# Generated by pormake.
# Topology ssb, (4,4)-cn, num edge types: 1
# Building blocks:
#     Node 0, Type 0, BuildingBlock: ESEHIV_clean_sbu_0, # of connection points: 4
#     Node 1, Type 0, BuildingBlock: ESEHIV_clean_sbu_0, # of connection points: 4
#     Node 2, Type 0, BuildingBlock: ESEHIV_clean_sbu_0, # of connection points: 4
#     Node 3, Type 0, BuildingBlock: ESEHIV_clean_sbu_0, # of connection points: 4
#     Node 4, Type 0, BuildingBlock: ESEHIV_clean_sbu_0, # of connection points: 4
#     Node 5, Type 0, BuildingBlock: ESEHIV_clean_sbu_0, # of connection points: 4
#     Node 6, Type 0, BuildingBlock: ESEHIV_clean_sbu_0, # of connection points: 4
#     Node 7, Type 0, BuildingBlock: ESEHIV_clean_sbu_0, # of connection points: 4
#     Node 8, Type 1, BuildingBlock: NAWXER_clean_sbu_0, # of connection points: 4
#     Node 9, Type 1, BuildingBlock: NAWXER_clean_sbu_0, # of connection points: 4
#     Node 10, Type 1, BuildingBlock: NAWXER_clean_sbu_0, # of connection points: 4
#     Node 11, Type 1, BuildingBlock: NAWXER_clean_sbu_0, # of connection points: 4
#     Node 12, Type 1, BuildingBlock: NAWXER_clean_sbu_0, # of connection points: 4
#     Node 13, Type 1, BuildingBlock: NAWXER_clean_sbu_0, # of connection points: 4
#     Node 14, Type 1, BuildingBlock: NAWXER_clean_sbu_0, # of connection points: 4
#     Node 15, Type 1, BuildingBlock: NAWXER_clean_sbu_0, # of connection points: 4
#     Edge 16, Type (0, 1), BuildingBlock: MIFKUJ_clean_linker_0, # of connection points: 2
#     Edge 17, Type (0, 1), BuildingBlock: MIFKUJ_clean_linker_0, # of connection points: 2
#     Edge 18, Type (0, 1), BuildingBlock: MIFKUJ_clean_linker_0, # of connection points: 2
#     Edge 19, Type (0, 1), BuildingBlock: MIFKUJ_clean_linker_0, # of connection points: 2
#     Edge 20, Type (0, 1), BuildingBlock: MIFKUJ_clean_linker_0, # of connection points: 2
#     Edge 21, Type (0, 1), BuildingBlock: MIFKUJ_clean_linker_0, # of connection points: 2
#     Edge 22, Type (0, 1), BuildingBlock: MIFKUJ_clean_linker_0, # of connection points: 2
#     Edge 23, Type (0, 1), BuildingBlock: MIFKUJ_clean_linker_0, # of connection points: 2
#     Edge 24, Type (0, 1), BuildingBlock: MIFKUJ_clean_linker_0, # of connection points: 2
#     Edge 25, Type (0, 1), BuildingBlock: MIFKUJ_clean_linker_0, # of connection points: 2
#     Edge 26, Type (0, 1), BuildingBlock: MIFKUJ_clean_linker_0, # of connection points: 2
#     Edge 27, Type (0, 1), BuildingBlock: MIFKUJ_clean_linker_0, # of connection points: 2
#     Edge 28, Type (0, 1), BuildingBlock: MIFKUJ_clean_linker_0, # of connection points: 2
#     Edge 29, Type (0, 1), BuildingBlock: MIFKUJ_clean_linker_0, # of connection points: 2
#     Edge 30, Type (0, 1), BuildingBlock: MIFKUJ_clean_linker_0, # of connection points: 2
#     Edge 31, Type (0, 1), BuildingBlock: MIFKUJ_clean_linker_0, # of connection points: 2
#     Edge 32, Type (0, 1), BuildingBlock: MIFKUJ_clean_linker_0, # of connection points: 2
#     Edge 33, Type (0, 1), BuildingBlock: MIFKUJ_clean_linker_0, # of connection points: 2
#     Edge 34, Type (0, 1), BuildingBlock: MIFKUJ_clean_linker_0, # of connection points: 2
#     Edge 35, Type (0, 1), BuildingBlock: MIFKUJ_clean_linker_0, # of connection points: 2
#     Edge 36, Type (0, 1), BuildingBlock: MIFKUJ_clean_linker_0, # of connection points: 2
#     Edge 37, Type (0, 1), BuildingBlock: MIFKUJ_clean_linker_0, # of connection points: 2
#     Edge 38, Type (0, 1), BuildingBlock: MIFKUJ_clean_linker_0, # of connection points: 2
#     Edge 39, Type (0, 1), BuildingBlock: MIFKUJ_clean_linker_0, # of connection points: 2
#     Edge 40, Type (0, 1), BuildingBlock: MIFKUJ_clean_linker_0, # of connection points: 2
#     Edge 41, Type (0, 1), BuildingBlock: MIFKUJ_clean_linker_0, # of connection points: 2
#     Edge 42, Type (0, 1), BuildingBlock: MIFKUJ_clean_linker_0, # of connection points: 2
#     Edge 43, Type (0, 1), BuildingBlock: MIFKUJ_clean_linker_0, # of connection points: 2
#     Edge 44, Type (0, 1), BuildingBlock: MIFKUJ_clean_linker_0, # of connection points: 2
#     Edge 45, Type (0, 1), BuildingBlock: MIFKUJ_clean_linker_0, # of connection points: 2
#     Edge 46, Type (0, 1), BuildingBlock: MIFKUJ_clean_linker_0, # of connection points: 2
#     Edge 47, Type (0, 1), BuildingBlock: MIFKUJ_clean_linker_0, # of connection points: 2
# Relax obj value: 0.002
# Max RMSD: 0.102
# Mean RMSD: 0.051
data_MOF--net-ssb--node1-ESEHIV_clean_sbu_0--node2-NAWXER_clean_sbu_0--edge1-MIFKUJ_clean_linker_0
_symmetry_space_group_name_H-M    P1
_symmetry_Int_Tables_number       1
_symmetry_cell_setting            triclinic
loop_
_symmetry_equiv_pos_as_xyz
'x, y, z'
_cell_length_a     59.673827
_cell_length_b     59.732775
_cell_length_c     51.374603
_cell_angle_alpha  90.321887
_cell_angle_beta   90.012449
_cell_angle_gamma 90.256086
loop_
_atom_site_label
_atom_site_type_symbol
_atom_site_fract_x
_atom_site_fract_y
_atom_site_fract_z
_atom_type_partial_charge
Cu0 Cu 0.27703 0.27195 0.25236 0.0
N1 N 0.27172 0.241 0.2533 0.0
N2 N 0.27251 0.2068 0.27072 0.0
C3 C 0.27909 0.22832 0.27306 0.0
C4 C 0.26039 0.20586 0.24854 0.0
C5 C 0.26 0.22702 0.23773 0.0
O6 O 0.26021 0.2832 0.28231 0.0
C7 C 0.32056 0.2627 0.23853 0.0
O8 O 0.30988 0.24611 0.22706 0.0
H9 H 0.28858 0.23503 0.28931 0.0
H10 H 0.25156 0.23183 0.22004 0.0
N11 N 0.26742 0.28665 0.22221 0.0
N12 N 0.26657 0.31391 0.19233 0.0
C13 C 0.27665 0.30597 0.21394 0.0
C14 C 0.25087 0.28202 0.20519 0.0
C15 C 0.25032 0.29877 0.18675 0.0
C16 C 0.23943 0.27822 0.28083 0.0
O17 O 0.23205 0.26895 0.25921 0.0
H18 H 0.29062 0.31397 0.22375 0.0
H19 H 0.23969 0.26778 0.20629 0.0
O20 O 0.30948 0.27646 0.25256 0.0
H21 H 0.25236 0.19099 0.24072 0.0
H22 H 0.23847 0.29992 0.17089 0.0
Cu23 Cu 0.77073 0.29686 0.27133 0.0
N24 N 0.76264 0.28482 0.23905 0.0
N25 N 0.74136 0.28083 0.20342 0.0
C26 C 0.74213 0.28735 0.2286 0.0
C27 C 0.76231 0.27383 0.1978 0.0
C28 C 0.77542 0.2763 0.21986 0.0
O29 O 0.7543 0.32499 0.27172 0.0
C30 C 0.77524 0.25824 0.3004 0.0
O31 O 0.79142 0.25559 0.28333 0.0
H32 H 0.7284 0.29524 0.23886 0.0
H33 H 0.79321 0.27316 0.22139 0.0
N34 N 0.80155 0.30296 0.27286 0.0
N35 N 0.83558 0.30957 0.2896 0.0
C36 C 0.81457 0.30211 0.29428 0.0
C37 C 0.81476 0.31125 0.25396 0.0
C38 C 0.83576 0.31536 0.26423 0.0
C39 C 0.76378 0.34405 0.27405 0.0
O40 O 0.78364 0.3453 0.28497 0.0
H41 H 0.80847 0.29694 0.31316 0.0
H42 H 0.80928 0.31467 0.23431 0.0
O43 O 0.76297 0.27562 0.29885 0.0
H44 H 0.76794 0.26793 0.17896 0.0
H45 H 0.84999 0.32222 0.25388 0.0
Cu46 Cu 0.80436 0.78181 0.26293 0.0
N47 N 0.82355 0.76756 0.23917 0.0
N48 N 0.83419 0.74164 0.21014 0.0
C49 C 0.82088 0.74632 0.23067 0.0
C50 C 0.84578 0.76068 0.20557 0.0
C51 C 0.83921 0.77665 0.22357 0.0
O52 O 0.77376 0.7739 0.25208 0.0
C53 C 0.8281 0.76083 0.30458 0.0
O54 O 0.83754 0.74879 0.28619 0.0
H55 H 0.80826 0.73504 0.23826 0.0
H56 H 0.8445 0.79399 0.22428 0.0
N57 N 0.80752 0.81301 0.26222 0.0
N58 N 0.81016 0.84774 0.27856 0.0
C59 C 0.81354 0.82575 0.28286 0.0
C60 C 0.80032 0.82752 0.24412 0.0
C61 C 0.80186 0.84895 0.25418 0.0
C62 C 0.77008 0.77463 0.2276 0.0
O63 O 0.78626 0.7814 0.21218 0.0
H64 H 0.81869 0.81892 0.30138 0.0
H65 H 0.7932 0.82286 0.22552 0.0
O66 O 0.81204 0.77385 0.29872 0.0
H67 H 0.85759 0.76311 0.18984 0.0
H68 H 0.79644 0.86415 0.24473 0.0
Cu69 Cu 0.27265 0.77337 0.28554 0.0
N70 N 0.30379 0.77215 0.28012 0.0
N71 N 0.33736 0.77403 0.26059 0.0
C72 C 0.3153 0.7693 0.25767 0.0
C73 C 0.33986 0.77971 0.28588 0.0
C74 C 0.31921 0.77851 0.29781 0.0
O75 O 0.25676 0.75981 0.25621 0.0
C76 C 0.24674 0.81336 0.29718 0.0
O77 O 0.22862 0.80197 0.29094 0.0
H78 H 0.30759 0.76509 0.23925 0.0
H79 H 0.31545 0.78311 0.31773 0.0
N80 N 0.26466 0.75676 0.31499 0.0
N81 N 0.24401 0.744 0.34823 0.0
C82 C 0.24564 0.75911 0.32885 0.0
C83 C 0.27552 0.7395 0.32595 0.0
C84 C 0.26279 0.73157 0.34644 0.0
C85 C 0.25893 0.76499 0.23235 0.0
O86 O 0.27075 0.78275 0.22606 0.0
H87 H 0.23288 0.77123 0.32434 0.0
H88 H 0.29141 0.73299 0.31929 0.0
O89 O 0.26591 0.80455 0.29372 0.0
H90 H 0.35539 0.78503 0.29493 0.0
H91 H 0.26708 0.71777 0.35904 0.0
Cu92 Cu 0.30869 0.77995 0.7578 0.0
N93 N 0.33837 0.76979 0.76011 0.0
N94 N 0.36999 0.75988 0.78043 0.0
C95 C 0.34947 0.76902 0.7829 0.0
C96 C 0.37202 0.75484 0.75488 0.0
C97 C 0.35239 0.76082 0.7424 0.0
O98 O 0.29546 0.76927 0.79021 0.0
C99 C 0.32189 0.81965 0.73503 0.0
O100 O 0.33606 0.80566 0.72423 0.0
H101 H 0.34246 0.775 0.80107 0.0
H102 H 0.34858 0.75859 0.72197 0.0
N103 N 0.29246 0.76816 0.72968 0.0
N104 N 0.26483 0.76571 0.70019 0.0
C105 C 0.27298 0.7768 0.72119 0.0
C106 C 0.29694 0.75095 0.71355 0.0
C107 C 0.27993 0.74938 0.69537 0.0
C108 C 0.29691 0.74807 0.79248 0.0
O109 O 0.30404 0.73635 0.77244 0.0
H110 H 0.26493 0.7909 0.73052 0.0
H111 H 0.31152 0.74035 0.71483 0.0
O112 O 0.30849 0.8123 0.75238 0.0
H113 H 0.3864 0.7469 0.74598 0.0
H114 H 0.27901 0.73731 0.67962 0.0
Cu115 Cu 0.2786 0.29486 0.7641 0.0
N116 N 0.28794 0.32471 0.76714 0.0
N117 N 0.28975 0.35841 0.78631 0.0
C118 C 0.27812 0.3391 0.78381 0.0
C119 C 0.30768 0.35609 0.7705 0.0
C120 C 0.30652 0.33526 0.75868 0.0
O121 O 0.28685 0.28282 0.79799 0.0
C122 C 0.24044 0.30859 0.73888 0.0
O123 O 0.25544 0.32214 0.72875 0.0
H124 H 0.26345 0.33483 0.79516 0.0
H125 H 0.31889 0.32807 0.74583 0.0
N126 N 0.29193 0.2789 0.73662 0.0
N127 N 0.29529 0.25269 0.70542 0.0
C128 C 0.28167 0.26226 0.72329 0.0
C129 C 0.31282 0.28 0.72685 0.0
C130 C 0.31494 0.26389 0.70764 0.0
C131 C 0.30333 0.26963 0.80116 0.0
O132 O 0.31157 0.25901 0.7809 0.0
H133 H 0.26469 0.25684 0.7273 0.0
H134 H 0.32584 0.29119 0.73369 0.0
O135 O 0.2466 0.29485 0.75638 0.0
H136 H 0.32099 0.36828 0.76818 0.0
H137 H 0.32988 0.26065 0.69633 0.0
Cu138 Cu 0.78373 0.26851 0.76599 0.0
N139 N 0.79011 0.28066 0.73348 0.0
N140 N 0.81022 0.28486 0.6971 0.0
C141 C 0.81061 0.27979 0.72264 0.0
C142 C 0.78854 0.28921 0.69163 0.0
C143 C 0.77614 0.2866 0.71416 0.0
O144 O 0.80133 0.24113 0.7653 0.0
C145 C 0.78102 0.30841 0.79353 0.0
O146 O 0.76604 0.31179 0.77523 0.0
H147 H 0.82523 0.27378 0.73288 0.0
H148 H 0.75812 0.28761 0.71593 0.0
N149 N 0.75326 0.26152 0.76881 0.0
N150 N 0.71967 0.25551 0.78671 0.0
C151 C 0.7404 0.26417 0.79013 0.0
C152 C 0.74021 0.25091 0.75123 0.0
C153 C 0.71947 0.24711 0.76227 0.0
C154 C 0.79293 0.22158 0.76733 0.0
O155 O 0.77328 0.21915 0.77849 0.0
H156 H 0.74644 0.27149 0.80815 0.0
H157 H 0.74565 0.24568 0.73207 0.0
O158 O 0.79176 0.29 0.79335 0.0
H159 H 0.78198 0.29317 0.67257 0.0
H160 H 0.70542 0.23866 0.75313 0.0
Cu161 Cu 0.75875 0.77845 0.76587 0.0
N162 N 0.74795 0.74923 0.77084 0.0
N163 N 0.74147 0.717 0.79162 0.0
C164 C 0.75109 0.73748 0.79284 0.0
C165 C 0.73187 0.71579 0.76786 0.0
C166 C 0.73598 0.73565 0.75503 0.0
O167 O 0.75262 0.79309 0.79931 0.0
C168 C 0.79785 0.76108 0.74281 0.0
O169 O 0.78398 0.7448 0.73657 0.0
H170 H 0.76017 0.74395 0.80952 0.0
H171 H 0.73102 0.73961 0.73537 0.0
N172 N 0.74414 0.79333 0.73862 0.0
N173 N 0.73744 0.81896 0.70799 0.0
C174 C 0.75153 0.81213 0.72691 0.0
C175 C 0.72458 0.78825 0.72683 0.0
C176 C 0.72051 0.80393 0.70779 0.0
C177 C 0.73579 0.80591 0.80259 0.0
O178 O 0.72462 0.81277 0.78214 0.0
H179 H 0.767 0.82057 0.73209 0.0
H180 H 0.71375 0.77445 0.73203 0.0
O181 O 0.79064 0.77739 0.75659 0.0
H182 H 0.72305 0.70137 0.76006 0.0
H183 H 0.70597 0.80455 0.69522 0.0
C184 C 1.00702 0.27081 0.54023 0.0
C185 C 0.07136 0.27617 0.4811 0.0
O186 O 0.01416 0.29086 0.53676 0.0
Zn187 Zn 0.0393 0.30824 0.51458 0.0
O188 O 0.01634 0.25457 0.52834 0.0
Zn189 Zn 0.03866 0.27255 0.51026 0.0
O190 O 0.05873 0.28521 0.54201 0.0
O191 O 0.05683 0.32214 0.54211 0.0
O192 O 0.06049 0.25858 0.48712 0.0
O193 O 0.06504 0.29516 0.4901 0.0
O194 O 0.02114 0.32634 0.49089 0.0
O195 O 0.01729 0.29005 0.48427 0.0
C196 C 0.06425 0.30417 0.55208 0.0
C197 C 0.01185 0.31018 0.47872 0.0
C198 C 0.80162 0.06905 0.55318 0.0
C199 C 0.80165 0.01707 0.47863 0.0
O200 O 0.81843 0.05999 0.54223 0.0
Zn201 Zn 0.80207 0.04323 0.51561 0.0
O202 O 0.7819 0.06469 0.54454 0.0
Zn203 Zn 0.76659 0.0447 0.5144 0.0
O204 O 0.7487 0.0236 0.53456 0.0
O205 O 0.78507 0.0179 0.53791 0.0
O206 O 0.78187 0.02324 0.48531 0.0
O207 O 0.81848 0.02483 0.49098 0.0
O208 O 0.78855 0.06927 0.49116 0.0
O209 O 0.75173 0.06718 0.49336 0.0
C210 C 0.7649 0.01226 0.5436 0.0
C211 C 0.76922 0.07663 0.48442 0.0
C212 C 0.99226 0.75381 0.57797 0.0
C213 C 0.04795 0.74426 0.50792 0.0
O214 O 0.9993 0.77228 0.56833 0.0
Zn215 Zn 0.02162 0.7836 0.53876 0.0
O216 O 0.99986 0.73545 0.56904 0.0
Zn217 Zn 0.01981 0.74778 0.54241 0.0
O218 O 0.04599 0.76367 0.56408 0.0
O219 O 0.04457 0.80021 0.55841 0.0
O220 O 0.03822 0.72853 0.52027 0.0
O221 O 0.04276 0.76467 0.5129 0.0
O222 O 1.00109 0.79852 0.51477 0.0
O223 O 0.99713 0.76176 0.51481 0.0
C224 C 0.05411 0.78324 0.56835 0.0
C225 C 0.99141 0.78097 0.50608 0.0
C226 C 0.26375 0.05622 0.54623 0.0
C227 C 0.25659 0.99176 0.48605 0.0
O228 O 0.28243 0.04817 0.53833 0.0
Zn229 Zn 0.29476 0.022 0.51384 0.0
O230 O 0.24553 0.04706 0.53874 0.0
Zn231 Zn 0.25889 0.02339 0.51712 0.0
O232 O 0.27503 1.00257 0.54525 0.0
O233 O 0.31144 1.0034 0.53802 0.0
O234 O 0.24054 1.00187 0.49742 0.0
O235 O 0.27682 0.99779 0.49091 0.0
O236 O 0.31006 0.03931 0.48696 0.0
O237 O 0.2732 0.04242 0.48605 0.0
C238 C 0.29489 0.99627 0.55126 0.0
C239 C 0.29246 0.04724 0.47652 0.0
C240 C 0.51228 0.78475 0.06753 0.0
C241 C 0.57773 0.79147 1.00945 0.0
O242 O 0.52164 0.80273 0.05989 0.0
Zn243 Zn 0.54477 0.78912 0.03813 0.0
O244 O 0.52002 0.76585 0.05979 0.0
Zn245 Zn 0.5467 0.75336 0.03575 0.0
O246 O 0.56518 0.73711 0.06064 0.0
O247 O 0.56584 0.77372 0.0665 0.0
O248 O 0.57206 0.77119 1.01438 0.0
O249 O 0.56624 0.80747 0.01891 0.0
O250 O 0.52614 0.77425 1.00691 0.0
O251 O 0.53038 0.73763 1.0081 0.0
C252 C 0.57234 0.75415 0.07318 0.0
C253 C 0.52198 0.75481 0.99735 0.0
C254 C 0.25139 0.57976 0.05648 0.0
C255 C 0.25832 0.52598 0.98394 0.0
O256 O 0.27162 0.57493 0.05041 0.0
Zn257 Zn 0.2894 0.55336 0.02464 0.0
O258 O 0.23533 0.56934 0.04541 0.0
Zn259 Zn 0.25352 0.55157 0.0211 0.0
O260 O 0.26789 0.52598 0.04458 0.0
O261 O 0.30429 0.53191 0.04759 0.0
O262 O 0.24002 0.53329 0.99346 0.0
O263 O 0.27699 0.53234 0.99395 0.0
O264 O 0.30631 0.57541 1.00469 0.0
O265 O 0.26969 0.57737 0.99882 0.0
C266 C 0.28714 0.52014 0.05314 0.0
C267 C 0.28947 0.58483 0.99418 0.0
C268 C 0.54526 0.26455 0.97803 0.0
C269 C 0.49129 0.27173 0.04969 0.0
O270 O 0.53943 0.28475 0.98302 0.0
Zn271 Zn 0.51774 0.3027 1.00863 0.0
O272 O 0.53626 0.24855 0.99058 0.0
Zn273 Zn 0.51739 0.26688 1.01318 0.0
O274 O 0.49287 0.27936 0.9869 0.0
O275 O 0.49547 0.31616 0.98539 0.0
O276 O 0.49892 0.25354 0.04026 0.0
O277 O 0.49713 0.29043 0.03955 0.0
O278 O 0.53995 0.32072 0.02759 0.0
O279 O 0.54173 0.28452 0.03614 0.0
C280 C 0.48595 0.29809 0.97801 0.0
C281 C 0.54883 0.30455 0.03988 0.0
C282 C 0.79962 0.54718 0.04815 0.0
C283 C 0.79205 0.48389 0.98726 0.0
O284 O 0.81516 0.53538 0.03823 0.0
Zn285 Zn 0.79606 0.51519 0.01836 0.0
O286 O 0.77911 0.5423 0.04299 0.0
Zn287 Zn 0.76081 0.51761 0.0203 0.0
O288 O 0.74436 0.50127 0.0468 0.0
O289 O 0.78077 0.49567 0.0487 0.0
O290 O 0.77302 0.49173 0.99445 0.0
O291 O 0.80989 0.49246 0.99653 0.0
O292 O 0.78086 0.53789 0.99064 0.0
O293 O 0.74427 0.53641 0.99666 0.0
C294 C 0.76102 0.49191 0.05755 0.0
C295 C 0.76105 0.54438 0.98455 0.0
H296 H 0.24583 0.29937 0.32849 0.0
H297 H 0.21936 0.30053 0.36522 0.0
H298 H 0.17223 0.26079 0.3208 0.0
H299 H 0.19778 0.26038 0.28428 0.0
H300 H 0.15036 0.29132 0.34309 0.0
H301 H 0.2065 0.23938 0.37171 0.0
H302 H 0.2446 0.22685 0.38299 0.0
H303 H 0.24906 0.27787 0.44201 0.0
H304 H 0.21107 0.29088 0.43085 0.0
H305 H 0.08028 0.24573 0.44235 0.0
H306 H 0.11129 0.247 0.41088 0.0
H307 H 0.1381 0.30555 0.44941 0.0
H308 H 0.10691 0.30479 0.48038 0.0
H309 H 0.17098 0.26829 0.43255 0.0
H310 H 0.11241 0.3184 0.40243 0.0
H311 H 0.07326 0.32722 0.39117 0.0
H312 H 0.07295 0.27456 0.33392 0.0
H313 H 0.11201 0.2652 0.34517 0.0
C314 C 0.22975 0.29104 0.32661 0.0
C315 C 0.22393 0.2799 0.30337 0.0
C316 C 0.21468 0.29156 0.34766 0.0
C317 C 0.19376 0.28059 0.34595 0.0
C318 C 0.1881 0.26954 0.3227 0.0
C319 C 0.20286 0.2693 0.30173 0.0
C320 C 0.17738 0.2805 0.36791 0.0
C321 C 0.15498 0.28611 0.36256 0.0
C322 C 0.18322 0.27401 0.39354 0.0
C323 C 0.20607 0.26628 0.40023 0.0
C324 C 0.21569 0.24805 0.38694 0.0
C325 C 0.23724 0.24083 0.39334 0.0
C326 C 0.24927 0.25161 0.41314 0.0
C327 C 0.23974 0.26958 0.42664 0.0
C328 C 0.2182 0.27687 0.42029 0.0
C329 C 0.09295 0.25868 0.44429 0.0
C330 C 0.0911 0.27525 0.46368 0.0
C331 C 0.11062 0.25939 0.42634 0.0
C332 C 0.12695 0.27638 0.42788 0.0
C333 C 0.12572 0.29228 0.44797 0.0
C334 C 0.10781 0.29188 0.46552 0.0
C335 C 0.14423 0.27863 0.40732 0.0
C336 C 0.16663 0.27357 0.41302 0.0
C337 C 0.13839 0.28515 0.38184 0.0
C338 C 0.11503 0.29095 0.37483 0.0
C339 C 0.10392 0.30858 0.38761 0.0
C340 C 0.08176 0.3137 0.3812 0.0
C341 C 0.0706 0.30142 0.36189 0.0
C342 C 0.0816 0.28404 0.3489 0.0
C343 C 0.10375 0.27883 0.35527 0.0
H344 H 0.05345 0.30541 0.35696 0.0
H345 H 0.26595 0.24599 0.41808 0.0
H346 H 0.73709 0.24747 0.32815 0.0
H347 H 0.7327 0.21718 0.35997 0.0
H348 H 0.80292 0.20142 0.35206 0.0
H349 H 0.80701 0.23069 0.31967 0.0
H350 H 0.78174 0.16506 0.35071 0.0
H351 H 0.77786 0.22928 0.40759 0.0
H352 H 0.76306 0.26523 0.42381 0.0
H353 H 0.6985 0.23493 0.43564 0.0
H354 H 0.71286 0.19884 0.41918 0.0
H355 H 0.80356 0.09924 0.46095 0.0
H356 H 0.80129 0.13051 0.43077 0.0
H357 H 0.72921 0.12937 0.43631 0.0
H358 H 0.73132 0.098 0.46687 0.0
H359 H 0.74683 0.17284 0.43784 0.0
H360 H 0.75452 0.10686 0.38392 0.0
H361 H 0.77232 0.07166 0.3697 0.0
H362 H 0.83368 0.10699 0.3543 0.0
H363 H 0.81638 0.14232 0.36881 0.0
C364 C 0.75156 0.23759 0.3334 0.0
C365 C 0.77235 0.24137 0.32127 0.0
C366 C 0.74909 0.22032 0.35169 0.0
C367 C 0.7675 0.2069 0.35865 0.0
C368 C 0.78835 0.21124 0.34697 0.0
C369 C 0.7907 0.22809 0.32844 0.0
C370 C 0.76529 0.18776 0.37721 0.0
C371 C 0.77429 0.16696 0.36985 0.0
C372 C 0.75503 0.18979 0.40202 0.0
C373 C 0.74636 0.21145 0.41187 0.0
C374 C 0.76046 0.23034 0.41345 0.0
C375 C 0.75216 0.25073 0.42273 0.0
C376 C 0.72983 0.25238 0.43067 0.0
C377 C 0.71577 0.23363 0.42943 0.0
C378 C 0.72399 0.21321 0.42015 0.0
C379 C 0.78717 0.10558 0.45584 0.0
C380 C 0.76761 0.09593 0.46628 0.0
C381 C 0.78592 0.12349 0.43849 0.0
C382 C 0.76507 0.13217 0.43097 0.0
C383 C 0.74548 0.12293 0.44175 0.0
C384 C 0.74672 0.10493 0.45914 0.0
C385 C 0.76392 0.15057 0.41151 0.0
C386 C 0.75415 0.17107 0.41862 0.0
C387 C 0.77389 0.14847 0.38662 0.0
C388 C 0.78418 0.12722 0.37761 0.0
C389 C 0.77184 0.1071 0.37765 0.0
C390 C 0.78185 0.08712 0.36953 0.0
C391 C 0.80413 0.0871 0.36114 0.0
C392 C 0.81643 0.10704 0.36081 0.0
C393 C 0.80653 0.12704 0.36896 0.0
H394 H 0.81189 0.07168 0.35485 0.0
H395 H 0.72344 0.26818 0.43785 0.0
H396 H 0.82232 0.79306 0.34246 0.0
H397 H 0.84561 0.79917 0.3812 0.0
H398 H 0.88261 0.73915 0.36341 0.0
H399 H 0.85948 0.7329 0.32488 0.0
H400 H 0.8745 0.74368 0.41574 0.0
H401 H 0.89983 0.7912 0.34399 0.0
H402 H 0.89431 0.82137 0.31206 0.0
H403 H 0.88109 0.86797 0.37405 0.0
H404 H 0.8864 0.83799 0.40632 0.0
H405 H 0.97976 0.74863 0.47142 0.0
H406 H 0.94844 0.74826 0.44111 0.0
H407 H 0.93003 0.81478 0.46605 0.0
H408 H 0.96228 0.81557 0.49594 0.0
H409 H 0.92331 0.81116 0.41587 0.0
H410 H 0.90111 0.76733 0.48782 0.0
H411 H 0.90428 0.73862 0.5219 0.0
H412 H 0.90819 0.68718 0.46338 0.0
H413 H 0.90538 0.71561 0.42892 0.0
C414 C 0.83511 0.78091 0.3471 0.0
C415 C 0.83914 0.76255 0.33043 0.0
C416 C 0.8485 0.78452 0.36917 0.0
C417 C 0.86611 0.76981 0.37499 0.0
C418 C 0.86921 0.75078 0.35927 0.0
C419 C 0.85596 0.74723 0.33719 0.0
C420 C 0.88228 0.77459 0.3964 0.0
C421 C 0.88523 0.75839 0.41574 0.0
C422 C 0.89566 0.79425 0.39705 0.0
C423 C 0.89311 0.81229 0.37755 0.0
C424 C 0.89559 0.80784 0.3508 0.0
C425 C 0.89255 0.82491 0.33264 0.0
C426 C 0.88728 0.84656 0.34102 0.0
C427 C 0.88512 0.85119 0.36758 0.0
C428 C 0.88814 0.83417 0.3858 0.0
C429 C 0.96914 0.76327 0.4704 0.0
C430 C 0.97336 0.78205 0.48628 0.0
C431 C 0.9511 0.76298 0.45314 0.0
C432 C 0.93635 0.7812 0.4518 0.0
C433 C 0.941 0.80041 0.4669 0.0
C434 C 0.95943 0.80087 0.48394 0.0
C435 C 0.91616 0.77978 0.43469 0.0
C436 C 0.91239 0.7966 0.41621 0.0
C437 C 0.90167 0.76088 0.43511 0.0
C438 C 0.90315 0.74365 0.45577 0.0
C439 C 0.90277 0.74991 0.48221 0.0
C440 C 0.9045 0.73368 0.50159 0.0
C441 C 0.90647 0.7111 0.49481 0.0
C442 C 0.90666 0.70469 0.46861 0.0
C443 C 0.90497 0.72085 0.44914 0.0
H444 H 0.90781 0.69856 0.50985 0.0
H445 H 0.88495 0.85975 0.32694 0.0
H446 H 0.20884 0.83401 0.31595 0.0
H447 H 0.207 0.86527 0.34697 0.0
H448 H 0.27901 0.87131 0.34507 0.0
H449 H 0.28103 0.84017 0.31428 0.0
H450 H 0.26359 0.86866 0.39431 0.0
H451 H 0.24531 0.91051 0.31718 0.0
H452 H 0.22355 0.91921 0.27773 0.0
H453 H 0.16409 0.92713 0.32387 0.0
H454 H 0.18545 0.91818 0.36358 0.0
H455 H 0.2879 0.96904 0.45805 0.0
H456 H 0.28226 0.93968 0.42581 0.0
H457 H 0.21078 0.94334 0.43722 0.0
H458 H 0.2163 0.97339 0.46961 0.0
H459 H 0.22144 0.9396 0.38545 0.0
H460 H 0.23991 0.9002 0.46284 0.0
H461 H 0.26143 0.89162 0.5025 0.0
H462 H 0.31986 0.87839 0.45625 0.0
H463 H 0.29878 0.88721 0.41633 0.0
C464 C 0.22426 0.84226 0.32174 0.0
C465 C 0.24509 0.83445 0.31264 0.0
C466 C 0.22318 0.86016 0.33951 0.0
C467 C 0.24288 0.87063 0.34847 0.0
C468 C 0.26358 0.86343 0.3386 0.0
C469 C 0.26469 0.84564 0.32085 0.0
C470 C 0.24228 0.88807 0.36936 0.0
C471 C 0.25455 0.88426 0.39222 0.0
C472 C 0.22977 0.90807 0.36716 0.0
C473 C 0.21692 0.91341 0.34331 0.0
C474 C 0.22755 0.9139 0.31888 0.0
C475 C 0.2153 0.91892 0.29648 0.0
C476 C 0.19244 0.92365 0.29828 0.0
C477 C 0.18179 0.92342 0.3225 0.0
C478 C 0.19396 0.91839 0.34496 0.0
C479 C 0.27091 0.96366 0.4539 0.0
C480 C 0.25255 0.97354 0.46668 0.0
C481 C 0.26773 0.94675 0.43541 0.0
C482 C 0.24613 0.93898 0.42931 0.0
C483 C 0.22763 0.94898 0.44168 0.0
C484 C 0.23081 0.96607 0.46027 0.0
C485 C 0.24327 0.92039 0.41005 0.0
C486 C 0.23031 0.92391 0.38761 0.0
C487 C 0.25506 0.89999 0.41263 0.0
C488 C 0.26778 0.89452 0.43659 0.0
C489 C 0.25739 0.89561 0.46114 0.0
C490 C 0.2695 0.89068 0.48366 0.0
C491 C 0.29201 0.8845 0.4819 0.0
C492 C 0.30243 0.88319 0.45759 0.0
C493 C 0.2904 0.88812 0.435 0.0
H494 H 0.30136 0.8807 0.49936 0.0
H495 H 0.18299 0.92754 0.28091 0.0
H496 H 0.24137 0.73728 0.66868 0.0
H497 H 0.20673 0.745 0.64535 0.0
H498 H 0.2064 0.81219 0.67644 0.0
H499 H 0.24127 0.80476 0.69955 0.0
H500 H 0.16569 0.79486 0.67937 0.0
H501 H 0.21978 0.8022 0.61223 0.0
H502 H 0.25211 0.79194 0.58487 0.0
H503 H 0.21683 0.73358 0.55746 0.0
H504 H 0.18446 0.74329 0.58509 0.0
H505 H 0.07429 0.82078 0.5901 0.0
H506 H 0.11102 0.82261 0.61203 0.0
H507 H 0.11971 0.75179 0.59915 0.0
H508 H 0.08342 0.74973 0.57786 0.0
H509 H 0.15731 0.77733 0.58537 0.0
H510 H 0.1048 0.76917 0.65701 0.0
H511 H 0.0726 0.78078 0.68389 0.0
H512 H 0.10534 0.8433 0.70112 0.0
H513 H 0.13762 0.83215 0.67402 0.0
C514 C 0.23418 0.75381 0.67036 0.0
C515 C 0.24434 0.77035 0.6861 0.0
C516 C 0.21427 0.75821 0.65697 0.0
C517 C 0.20402 0.7793 0.6588 0.0
C518 C 0.21393 0.79578 0.67469 0.0
C519 C 0.23391 0.79143 0.68802 0.0
C520 C 0.18273 0.78386 0.64459 0.0
C521 C 0.16402 0.79144 0.6587 0.0
C522 C 0.18037 0.77935 0.61761 0.0
C523 C 0.19982 0.77334 0.60102 0.0
C524 C 0.21904 0.78704 0.60062 0.0
C525 C 0.23735 0.78135 0.58501 0.0
C526 C 0.23656 0.76207 0.5695 0.0
C527 C 0.21744 0.74848 0.56953 0.0
C528 C 0.1991 0.75407 0.58517 0.0
C529 C 0.08401 0.80563 0.59213 0.0
C530 C 0.07578 0.78509 0.58247 0.0
C531 C 0.10497 0.80668 0.60462 0.0
C532 C 0.11808 0.7873 0.60722 0.0
C533 C 0.10992 0.76694 0.59735 0.0
C534 C 0.08902 0.76581 0.58533 0.0
C535 C 0.1403 0.78773 0.62028 0.0
C536 C 0.15917 0.78109 0.60594 0.0
C537 C 0.14283 0.7933 0.64692 0.0
C538 C 0.12347 0.79996 0.66323 0.0
C539 C 0.10503 0.78548 0.66633 0.0
C540 C 0.08679 0.79195 0.68165 0.0
C541 C 0.08689 0.8128 0.69413 0.0
C542 C 0.10526 0.82718 0.69139 0.0
C543 C 0.12354 0.82079 0.67606 0.0
H544 H 0.07275 0.81778 0.70599 0.0
H545 H 0.25074 0.7577 0.5574 0.0
H546 H 0.25418 0.23865 0.68881 0.0
H547 H 0.24569 0.20624 0.66121 0.0
H548 H 0.31617 0.19134 0.65581 0.0
H549 H 0.32479 0.22356 0.68348 0.0
H550 H 0.29664 0.18767 0.60913 0.0
H551 H 0.28058 0.16153 0.69591 0.0
H552 H 0.26203 0.16258 0.73879 0.0
H553 H 0.19766 0.15735 0.70181 0.0
H554 H 0.21584 0.15656 0.65867 0.0
H555 H 0.30027 0.07639 0.56791 0.0
H556 H 0.30197 0.11049 0.59383 0.0
H557 H 0.23011 0.11668 0.58935 0.0
H558 H 0.22818 0.082 0.56331 0.0
H559 H 0.24618 0.12658 0.63852 0.0
H560 H 0.26259 0.14947 0.55175 0.0
H561 H 0.28141 0.14789 0.50905 0.0
H562 H 0.34506 0.15921 0.54587 0.0
H563 H 0.32669 0.16058 0.58885 0.0
C564 C 0.26789 0.22841 0.68196 0.0
C565 C 0.29021 0.2338 0.68857 0.0
C566 C 0.26299 0.20985 0.66611 0.0
C567 C 0.28026 0.19615 0.65659 0.0
C568 C 0.30254 0.20165 0.66284 0.0
C569 C 0.30746 0.22019 0.67865 0.0
C570 C 0.27528 0.17609 0.64007 0.0
C571 C 0.28575 0.17425 0.61569 0.0
C572 C 0.26049 0.15883 0.64816 0.0
C573 C 0.24956 0.15924 0.67407 0.0
C574 C 0.26247 0.16078 0.69692 0.0
C575 C 0.25202 0.1613 0.72127 0.0
C576 C 0.22868 0.1601 0.72302 0.0
C577 C 0.21574 0.15832 0.70042 0.0
C578 C 0.2261 0.15782 0.67602 0.0
C579 C 0.28473 0.08487 0.5724 0.0
C580 C 0.26407 0.07646 0.56328 0.0
C581 C 0.28577 0.1045 0.5872 0.0
C582 C 0.26624 0.11645 0.59316 0.0
C583 C 0.24544 0.10782 0.58485 0.0
C584 C 0.24436 0.08801 0.56996 0.0
C585 C 0.26793 0.13799 0.60787 0.0
C586 C 0.25685 0.14013 0.63186 0.0
C587 C 0.28215 0.15557 0.59943 0.0
C588 C 0.29326 0.15498 0.57356 0.0
C589 C 0.28062 0.15148 0.55077 0.0
C590 C 0.2912 0.15064 0.52651 0.0
C591 C 0.31441 0.15339 0.52476 0.0
C592 C 0.32708 0.15707 0.54726 0.0
C593 C 0.31659 0.15791 0.57158 0.0
H594 H 0.32257 0.15272 0.50595 0.0
H595 H 0.22062 0.1605 0.74189 0.0
H596 H 0.80866 0.27302 0.64597 0.0
H597 H 0.84074 0.26701 0.61683 0.0
H598 H 0.88579 0.28719 0.67827 0.0
H599 H 0.85394 0.29254 0.70766 0.0
H600 H 0.88685 0.30834 0.61946 0.0
H601 H 0.89052 0.24055 0.67469 0.0
H602 H 0.87441 0.20577 0.69251 0.0
H603 H 0.86079 0.18185 0.61511 0.0
H604 H 0.87669 0.21663 0.59686 0.0
H605 H 0.9972 0.29354 0.58434 0.0
H606 H 0.96233 0.29261 0.60905 0.0
H607 H 0.93675 0.24073 0.55818 0.0
H608 H 0.97235 0.24092 0.53402 0.0
H609 H 0.92172 0.2339 0.60568 0.0
H610 H 0.92352 0.29585 0.54926 0.0
H611 H 0.93953 0.32925 0.52824 0.0
H612 H 0.93865 0.36453 0.60125 0.0
H613 H 0.92349 0.33103 0.623 0.0
C614 C 0.82539 0.27613 0.65326 0.0
C615 C 0.82878 0.28298 0.67922 0.0
C616 C 0.84367 0.27262 0.63664 0.0
C617 C 0.86556 0.27642 0.64557 0.0
C618 C 0.86898 0.28395 0.67116 0.0
C619 C 0.85079 0.28697 0.68791 0.0
C620 C 0.88504 0.27323 0.62816 0.0
C621 C 0.89461 0.29213 0.61652 0.0
C622 C 0.89443 0.25192 0.62344 0.0
C623 C 0.88448 0.2313 0.63445 0.0
C624 C 0.88382 0.22801 0.6615 0.0
C625 C 0.87483 0.20825 0.67166 0.0
C626 C 0.8665 0.19164 0.65495 0.0
C627 C 0.86723 0.19474 0.62803 0.0
C628 C 0.87623 0.21446 0.61777 0.0
C629 C 0.98429 0.28165 0.57871 0.0
C630 C 0.98735 0.26742 0.55719 0.0
C631 C 0.96429 0.28123 0.59273 0.0
C632 C 0.94659 0.26711 0.58499 0.0
C633 C 0.95007 0.25192 0.56438 0.0
C634 C 0.9704 0.25199 0.55063 0.0
C635 C 0.92429 0.26924 0.59776 0.0
C636 C 0.91399 0.25016 0.60833 0.0
C637 C 0.91385 0.29039 0.60093 0.0
C638 C 0.92249 0.31082 0.58782 0.0
C639 C 0.92688 0.31066 0.5609 0.0
C640 C 0.93581 0.32962 0.54884 0.0
C641 C 0.94001 0.34903 0.56336 0.0
C642 C 0.93536 0.34949 0.59002 0.0
C643 C 0.92665 0.33049 0.60224 0.0
H644 H 0.94689 0.3637 0.55397 0.0
H645 H 0.85951 0.17636 0.66285 0.0
H646 H 0.72645 0.82229 0.65715 0.0
H647 H 0.73077 0.85513 0.62924 0.0
H648 H 0.75652 0.89298 0.69464 0.0
H649 H 0.75321 0.85976 0.72212 0.0
H650 H 0.71383 0.89369 0.62685 0.0
H651 H 0.79255 0.93376 0.6752 0.0
H652 H 0.8259 0.92194 0.69986 0.0
H653 H 0.82155 0.85646 0.66539 0.0
H654 H 0.78864 0.86804 0.63987 0.0
H655 H 0.72862 1.00305 0.57478 0.0
H656 H 0.72332 0.97068 0.60328 0.0
H657 H 0.78654 0.94374 0.57724 0.0
H658 H 0.79239 0.97656 0.55006 0.0
H659 H 0.7848 0.93711 0.62484 0.0
H660 H 0.73179 0.9235 0.55653 0.0
H661 H 0.70008 0.93186 0.52741 0.0
H662 H 0.65637 0.93819 0.59341 0.0
H663 H 0.6879 0.93013 0.62295 0.0
C664 C 0.73307 0.83763 0.66547 0.0
C665 C 0.7397 0.83843 0.69171 0.0
C666 C 0.73549 0.85644 0.64956 0.0
C667 C 0.74428 0.8766 0.65961 0.0
C668 C 0.75027 0.87756 0.6861 0.0
C669 C 0.74834 0.85859 0.70185 0.0
C670 C 0.7473 0.89645 0.64232 0.0
C671 C 0.72938 0.90316 0.62644 0.0
C672 C 0.76769 0.90871 0.64125 0.0
C673 C 0.78794 0.90172 0.65586 0.0
C674 C 0.79882 0.91689 0.67271 0.0
C675 C 0.81768 0.91023 0.6868 0.0
C676 C 0.82584 0.88845 0.68418 0.0
C677 C 0.81525 0.87333 0.66732 0.0
C678 C 0.79651 0.87994 0.65302 0.0
C679 C 0.74132 0.99017 0.57515 0.0
C680 C 0.76092 0.99237 0.56019 0.0
C681 C 0.73825 0.97156 0.59135 0.0
C682 C 0.75438 0.95443 0.5923 0.0
C683 C 0.77385 0.95665 0.57712 0.0
C684 C 0.77716 0.97544 0.56146 0.0
C685 C 0.75134 0.93435 0.60927 0.0
C686 C 0.76925 0.92765 0.62521 0.0
C687 C 0.73124 0.92161 0.60965 0.0
C688 C 0.71225 0.92643 0.59195 0.0
C689 C 0.71545 0.92682 0.56483 0.0
C690 C 0.6975 0.93149 0.54826 0.0
C691 C 0.67624 0.93562 0.55856 0.0
C692 C 0.67286 0.93503 0.58546 0.0
C693 C 0.69075 0.93039 0.60213 0.0
H694 H 0.66237 0.93922 0.54569 0.0
H695 H 0.84037 0.88329 0.6952 0.0
H696 H 0.82631 0.79679 0.7346 0.0
H697 H 0.86182 0.79642 0.71036 0.0
H698 H 0.85631 0.72482 0.70096 0.0
H699 H 0.821 0.72508 0.72492 0.0
H700 H 0.89968 0.7379 0.71148 0.0
H701 H 0.83942 0.75861 0.65412 0.0
H702 H 0.8077 0.78145 0.63905 0.0
H703 H 0.85075 0.83908 0.63428 0.0
H704 H 0.88259 0.81673 0.65004 0.0
H705 H 0.96979 0.71842 0.60052 0.0
H706 H 0.93913 0.72027 0.63224 0.0
H707 H 0.94433 0.79231 0.63357 0.0
H708 H 0.97459 0.79064 0.60182 0.0
H709 H 0.90208 0.78031 0.6288 0.0
H710 H 0.96255 0.7602 0.68488 0.0
H711 H 0.99467 0.73788 0.69986 0.0
H712 H 0.95218 0.68001 0.70678 0.0
H713 H 0.91985 0.70193 0.69148 0.0
C714 C 0.8329 0.78094 0.72777 0.0
C715 C 0.82077 0.76098 0.73156 0.0
C716 C 0.85312 0.78076 0.71379 0.0
C717 C 0.86163 0.7606 0.70358 0.0
C718 C 0.85011 0.74057 0.70858 0.0
C719 C 0.82985 0.74077 0.72223 0.0
C720 C 0.88173 0.76032 0.68637 0.0
C721 C 0.90017 0.74707 0.69332 0.0
C722 C 0.88256 0.77257 0.66286 0.0
C723 C 0.86333 0.78606 0.65364 0.0
C724 C 0.84206 0.77622 0.6502 0.0
C725 C 0.82406 0.78908 0.64151 0.0
C726 C 0.82717 0.81173 0.63584 0.0
C727 C 0.84832 0.82156 0.63881 0.0
C728 C 0.86634 0.80882 0.64768 0.0
C729 C 0.96454 0.73463 0.60775 0.0
C730 C 0.97469 0.75436 0.59854 0.0
C731 C 0.94703 0.73568 0.62596 0.0
C732 C 0.93943 0.75645 0.63547 0.0
C733 C 0.94979 0.77609 0.62654 0.0
C734 C 0.96719 0.77507 0.60838 0.0
C735 C 0.92014 0.75792 0.65388 0.0
C736 C 0.90176 0.77131 0.64708 0.0
C737 C 0.91943 0.7459 0.67756 0.0
C738 C 0.93882 0.73266 0.68677 0.0
C739 C 0.96009 0.74267 0.68938 0.0
C740 C 0.97833 0.7301 0.69797 0.0
C741 C 0.97548 0.70752 0.7042 0.0
C742 C 0.95437 0.69749 0.70191 0.0
C743 C 0.93607 0.70999 0.6933 0.0
H744 H 0.98962 0.69782 0.71085 0.0
H745 H 0.81322 0.82166 0.62908 0.0
H746 H 0.28509 0.84727 0.73517 0.0
H747 H 0.27996 0.88105 0.7088 0.0
H748 H 0.34828 0.87619 0.68204 0.0
H749 H 0.35351 0.84276 0.70831 0.0
H750 H 0.33678 0.91943 0.68937 0.0
H751 H 0.30618 0.85417 0.64647 0.0
H752 H 0.28178 0.82094 0.64182 0.0
H753 H 0.22352 0.86223 0.65046 0.0
H754 H 0.24761 0.8957 0.65556 0.0
H755 H 0.33356 0.97532 0.567 0.0
H756 H 0.33784 0.94857 0.60262 0.0
H757 H 0.26774 0.95545 0.62139 0.0
H758 H 0.26325 0.98171 0.58565 0.0
H759 H 0.2785 0.91302 0.62084 0.0
H760 H 0.31005 0.97923 0.65974 0.0
H761 H 0.33527 0.01196 0.66267 0.0
H762 H 0.39249 0.96866 0.6604 0.0
H763 H 0.36761 0.93567 0.65709 0.0
C764 C 0.29916 0.85378 0.72421 0.0
C765 C 0.31966 0.84229 0.7237 0.0
C766 C 0.29617 0.87297 0.70898 0.0
C767 C 0.31365 0.88097 0.6931 0.0
C768 C 0.33454 0.87035 0.69403 0.0
C769 C 0.33748 0.85118 0.70904 0.0
C770 C 0.30992 0.89917 0.67391 0.0
C771 C 0.32409 0.91802 0.67432 0.0
C772 C 0.2932 0.89749 0.65444 0.0
C773 C 0.2787 0.87739 0.65169 0.0
C774 C 0.28818 0.85613 0.64764 0.0
C775 C 0.27441 0.83727 0.64487 0.0
C776 C 0.25114 0.8395 0.64586 0.0
C777 C 0.24156 0.86056 0.64971 0.0
C778 C 0.25526 0.87947 0.65255 0.0
C779 C 0.31909 0.97123 0.5788 0.0
C780 C 0.29806 0.98067 0.57339 0.0
C781 C 0.32158 0.956 0.59928 0.0
C782 C 0.30315 0.95012 0.61495 0.0
C783 C 0.28221 0.95967 0.60964 0.0
C784 C 0.27969 0.97475 0.58915 0.0
C785 C 0.30537 0.93337 0.63621 0.0
C786 C 0.29098 0.91469 0.6361 0.0
C787 C 0.32196 0.93519 0.65586 0.0
C788 C 0.33696 0.95499 0.65795 0.0
C789 C 0.32801 0.97669 0.65967 0.0
C790 C 0.34225 0.99529 0.66144 0.0
C791 C 0.36547 0.9924 0.66166 0.0
C792 C 0.3745 0.97088 0.66019 0.0
C793 C 0.36034 0.95223 0.65841 0.0
H794 H 0.37646 1.00681 0.66302 0.0
H795 H 0.24055 0.82493 0.64351 0.0
H796 H 0.21902 0.34264 0.71501 0.0
H797 H 0.18479 0.34066 0.68916 0.0
H798 H 0.17659 0.27118 0.70966 0.0
H799 H 0.21108 0.27311 0.73583 0.0
H800 H 0.17554 0.27835 0.65664 0.0
H801 H 0.13949 0.30876 0.7317 0.0
H802 H 0.13433 0.33489 0.76851 0.0
H803 H 0.12838 0.38976 0.71537 0.0
H804 H 0.13384 0.36402 0.67823 0.0
H805 H 0.07641 0.26907 0.58259 0.0
H806 H 0.10242 0.26914 0.61916 0.0
H807 H 0.11279 0.34018 0.61006 0.0
H808 H 0.08617 0.34035 0.57369 0.0
H809 H 0.11062 0.32989 0.66039 0.0
H810 H 0.15053 0.3014 0.58629 0.0
H811 H 0.15726 0.27652 0.54866 0.0
H812 H 0.1578 0.21947 0.59914 0.0
H813 H 0.15073 0.24399 0.63704 0.0
C814 C 0.20968 0.32705 0.7145 0.0
C815 C 0.21771 0.30802 0.72742 0.0
C816 C 0.19005 0.32597 0.69978 0.0
C817 C 0.17806 0.30581 0.69753 0.0
C818 C 0.18555 0.28694 0.71122 0.0
C819 C 0.20514 0.28809 0.72629 0.0
C820 C 0.15909 0.30413 0.67886 0.0
C821 C 0.16106 0.28924 0.65778 0.0
C822 C 0.14062 0.31891 0.67988 0.0
C823 C 0.13723 0.33446 0.70217 0.0
C824 C 0.13725 0.32642 0.72786 0.0
C825 C 0.13424 0.34116 0.74879 0.0
C826 C 0.13107 0.36397 0.74429 0.0
C827 C 0.13085 0.37209 0.71883 0.0
C828 C 0.13387 0.35742 0.69783 0.0
C829 C 0.08414 0.28477 0.58837 0.0
C830 C 0.07936 0.30469 0.57502 0.0
C831 C 0.09908 0.28475 0.60929 0.0
C832 C 0.10992 0.30458 0.61711 0.0
C833 C 0.1047 0.32465 0.60434 0.0
C834 C 0.08953 0.32472 0.58351 0.0
C835 C 0.12715 0.30419 0.63807 0.0
C836 C 0.12492 0.31876 0.65946 0.0
C837 C 0.14556 0.28929 0.63722 0.0
C838 C 0.14984 0.27451 0.61446 0.0
C839 C 0.15189 0.28353 0.58933 0.0
C840 C 0.1558 0.26949 0.56796 0.0
C841 C 0.15788 0.24642 0.57149 0.0
C842 C 0.15613 0.23734 0.59642 0.0
C843 C 0.15218 0.2513 0.61786 0.0
H844 H 0.16091 0.23558 0.55492 0.0
H845 H 0.12874 0.37536 0.76052 0.0
H846 H 0.825 0.22458 0.72932 0.0
H847 H 0.83203 0.19753 0.69464 0.0
H848 H 0.78729 0.15043 0.73115 0.0
H849 H 0.77981 0.17755 0.76592 0.0
H850 H 0.82318 0.12909 0.70761 0.0
H851 H 0.76867 0.1856 0.68728 0.0
H852 H 0.75541 0.22432 0.68185 0.0
H853 H 0.80453 0.23516 0.62211 0.0
H854 H 0.81849 0.19674 0.62773 0.0
H855 H 0.76946 0.09451 0.57651 0.0
H856 H 0.7733 0.11939 0.61403 0.0
H857 H 0.84366 0.10382 0.61889 0.0
H858 H 0.83995 0.07868 0.58113 0.0
H859 H 0.79801 0.15679 0.62159 0.0
H860 H 0.85751 0.1049 0.68522 0.0
H861 H 0.86828 0.0655 0.69187 0.0
H862 H 0.80345 0.04376 0.66535 0.0
H863 H 0.79222 0.08302 0.65888 0.0
C864 C 0.81714 0.20823 0.73051 0.0
C865 C 0.80162 0.20335 0.75035 0.0
C866 C 0.82121 0.19276 0.71056 0.0
C867 C 0.81005 0.17203 0.71009 0.0
C868 C 0.79608 0.16634 0.73106 0.0
C869 C 0.7918 0.1819 0.75093 0.0
C870 C 0.81078 0.15748 0.68648 0.0
C871 C 0.81789 0.1352 0.68875 0.0
C872 C 0.80356 0.16534 0.66188 0.0
C873 C 0.79493 0.1884 0.65827 0.0
C874 C 0.77684 0.19633 0.67322 0.0
C875 C 0.76918 0.21823 0.6701 0.0
C876 C 0.77919 0.23224 0.65176 0.0
C877 C 0.79688 0.22436 0.63646 0.0
C878 C 0.80472 0.20254 0.63965 0.0
C879 C 0.78581 0.09633 0.58547 0.0
C880 C 0.8044 0.0845 0.57579 0.0
C881 C 0.78798 0.11068 0.60691 0.0
C882 C 0.80873 0.11344 0.6194 0.0
C883 C 0.82743 0.10182 0.60972 0.0
C884 C 0.82529 0.08751 0.58808 0.0
C885 C 0.81045 0.12838 0.64266 0.0
C886 C 0.80373 0.15077 0.64032 0.0
C887 C 0.81768 0.12052 0.66722 0.0
C888 C 0.82415 0.09687 0.67127 0.0
C889 C 0.84555 0.0917 0.68087 0.0
C890 C 0.85173 0.0694 0.68461 0.0
C891 C 0.83659 0.05213 0.67894 0.0
C892 C 0.8152 0.05714 0.66962 0.0
C893 C 0.80893 0.07941 0.66588 0.0
H894 H 0.84141 0.03488 0.68183 0.0
H895 H 0.77316 0.24916 0.64931 0.0
H896 H 0.86865 0.34089 0.28999 0.0
H897 H 0.89875 0.34505 0.322 0.0
H898 H 0.87371 0.28736 0.36319 0.0
H899 H 0.84334 0.28348 0.33152 0.0
H900 H 0.88422 0.31798 0.39678 0.0
H901 H 0.92155 0.28611 0.32266 0.0
H902 H 0.9336 0.28353 0.27683 0.0
H903 H 0.96746 0.34686 0.28391 0.0
H904 H 0.95535 0.34995 0.32972 0.0
H905 H 0.97992 0.28043 0.46371 0.0
H906 H 0.95012 0.28537 0.4319 0.0
H907 H 0.97295 0.35272 0.41739 0.0
H908 H 1.00293 0.34805 0.44996 0.0
H909 H 0.96419 0.32251 0.3708 0.0
H910 H 0.92817 0.35171 0.44748 0.0
H911 H 0.91687 0.35147 0.49364 0.0
H912 H 0.88176 0.28935 0.48175 0.0
H913 H 0.8929 0.2892 0.43549 0.0
C914 C 0.86968 0.329 0.30575 0.0
C915 C 0.85363 0.31181 0.30817 0.0
C916 C 0.88692 0.33138 0.32407 0.0
C917 C 0.88875 0.31637 0.34494 0.0
C918 C 0.87268 0.29922 0.34736 0.0
C919 C 0.8553 0.297 0.32924 0.0
C920 C 0.9072 0.31853 0.36441 0.0
C921 C 0.90169 0.31883 0.391 0.0
C922 C 0.93007 0.32018 0.35705 0.0
C923 C 0.93731 0.31839 0.32951 0.0
C924 C 0.9314 0.29957 0.31437 0.0
C925 C 0.93827 0.298 0.28842 0.0
C926 C 0.95122 0.31506 0.27744 0.0
C927 C 0.95738 0.33369 0.29242 0.0
C928 C 0.95053 0.33535 0.31838 0.0
C929 C 0.97871 0.29634 0.4538 0.0
C930 C 0.99387 0.31385 0.4593 0.0
C931 C 0.96157 0.29914 0.43568 0.0
C932 C 0.9593 0.3194 0.42237 0.0
C933 C 0.97445 0.33695 0.42754 0.0
C934 C 0.99149 0.33429 0.44615 0.0
C935 C 0.94109 0.32169 0.40291 0.0
C936 C 0.94666 0.32208 0.3764 0.0
C937 C 0.91831 0.32033 0.41029 0.0
C938 C 0.91149 0.32038 0.43806 0.0
C939 C 0.91816 0.33793 0.45475 0.0
C940 C 0.91173 0.33789 0.48091 0.0
C941 C 0.89866 0.32037 0.49064 0.0
C942 C 0.89189 0.3029 0.47419 0.0
C943 C 0.89819 0.30291 0.44797 0.0
H944 H 0.89374 0.32035 0.51092 0.0
H945 H 0.95654 0.3138 0.25734 0.0
H946 H 0.84245 0.85397 0.31477 0.0
H947 H 0.84417 0.88358 0.34805 0.0
H948 H 0.78161 0.91013 0.31964 0.0
H949 H 0.78078 0.88145 0.28559 0.0
H950 H 0.80565 0.94289 0.3308 0.0
H951 H 0.78934 0.87494 0.37619 0.0
H952 H 0.79536 0.83627 0.39107 0.0
H953 H 0.85585 0.8567 0.42987 0.0
H954 H 0.85078 0.89528 0.41425 0.0
H955 H 0.77027 1.00297 0.44336 0.0
H956 H 0.77441 0.97489 0.40894 0.0
H957 H 0.84339 0.96517 0.4309 0.0
H958 H 0.83944 0.99344 0.46543 0.0
H959 H 0.81896 0.92469 0.42356 0.0
H960 H 0.83265 0.99377 0.37767 0.0
H961 H 0.82383 0.03205 0.36336 0.0
H962 H 0.76299 1.00831 0.32786 0.0
H963 H 0.77131 0.96991 0.34226 0.0
C964 C 0.82924 0.8663 0.31564 0.0
C965 C 0.81156 0.86552 0.29759 0.0
C966 C 0.83009 0.88312 0.33476 0.0
C967 C 0.81279 0.899 0.33685 0.0
C968 C 0.79524 0.89824 0.31856 0.0
C969 C 0.79474 0.88183 0.29905 0.0
C970 C 0.81274 0.91641 0.35791 0.0
C971 C 0.80833 0.93873 0.35108 0.0
C972 C 0.81665 0.9113 0.3845 0.0
C973 C 0.81984 0.88799 0.3937 0.0
C974 C 0.80411 0.87114 0.38757 0.0
C975 C 0.80739 0.8492 0.39608 0.0
C976 C 0.82609 0.84398 0.4112 0.0
C977 C 0.84151 0.8607 0.4179 0.0
C978 C 0.83849 0.8826 0.40914 0.0
C979 C 0.78638 0.99496 0.44085 0.0
C980 C 0.80455 1.00054 0.45715 0.0
C981 C 0.78872 0.97892 0.4211 0.0
C982 C 0.80924 0.968 0.41723 0.0
C983 C 0.82741 0.97341 0.43352 0.0
C984 C 0.82515 0.98965 0.45316 0.0
C985 C 0.81156 0.95082 0.39629 0.0
C986 C 0.81641 0.92866 0.40319 0.0
C987 C 0.80753 0.9559 0.36986 0.0
C988 C 0.80253 0.979 0.36122 0.0
C989 C 0.8173 0.99675 0.36699 0.0
C990 C 0.8124 0.01847 0.35883 0.0
C991 C 0.79283 0.02262 0.34474 0.0
C992 C 0.77813 1.00506 0.33878 0.0
C993 C 0.78295 0.98332 0.34691 0.0
H994 H 0.78907 0.03941 0.33833 0.0
H995 H 0.82857 0.82701 0.41786 0.0
H996 H 0.23019 0.70588 0.37225 0.0
H997 H 0.19802 0.70161 0.4015 0.0
H998 H 0.18366 0.77197 0.39411 0.0
H999 H 0.21594 0.77643 0.3654 0.0
H1000 H 0.18001 0.75816 0.44443 0.0
H1001 H 0.15443 0.73271 0.35944 0.0
H1002 H 0.15585 0.70878 0.32019 0.0
H1003 H 0.14794 0.65017 0.3674 0.0
H1004 H 0.14677 0.67377 0.40697 0.0
H1005 H 0.06855 0.77425 0.47621 0.0
H1006 H 0.10275 0.76931 0.45118 0.0
H1007 H 0.10504 0.69983 0.4732 0.0
H1008 H 0.07046 0.70465 0.49872 0.0
H1009 H 0.11689 0.70787 0.41999 0.0
H1010 H 0.13815 0.73272 0.5044 0.0
H1011 H 0.13624 0.75605 0.54409 0.0
H1012 H 0.15278 0.81442 0.49953 0.0
H1013 H 0.15447 0.79151 0.45948 0.0
C1014 C 0.22034 0.72048 0.37709 0.0
C1015 C 0.2256 0.74147 0.3663 0.0
C1016 C 0.20184 0.71798 0.39366 0.0
C1017 C 0.18825 0.73643 0.39982 0.0
C1018 C 0.19382 0.75748 0.3896 0.0
C1019 C 0.2122 0.75996 0.37298 0.0
C1020 C 0.16796 0.73395 0.41646 0.0
C1021 C 0.16619 0.74724 0.43901 0.0
C1022 C 0.15019 0.71912 0.40995 0.0
C1023 C 0.15077 0.70497 0.38616 0.0
C1024 C 0.15317 0.71471 0.36146 0.0
C1025 C 0.1539 0.70121 0.33916 0.0
C1026 C 0.15205 0.67796 0.34131 0.0
C1027 C 0.14941 0.66818 0.36576 0.0
C1028 C 0.1487 0.6816 0.38813 0.0
C1029 C 0.07609 0.75779 0.47561 0.0
C1030 C 0.06681 0.73988 0.48973 0.0
C1031 C 0.09574 0.75504 0.4613 0.0
C1032 C 0.10668 0.73433 0.46072 0.0
C1033 C 0.09691 0.716 0.47355 0.0
C1034 C 0.07714 0.71877 0.48805 0.0
C1035 C 0.12876 0.73252 0.44748 0.0
C1036 C 0.13088 0.71849 0.42564 0.0
C1037 C 0.14696 0.74651 0.45477 0.0
C1038 C 0.14628 0.76039 0.47887 0.0
C1039 C 0.14124 0.75056 0.50302 0.0
C1040 C 0.14021 0.7637 0.5256 0.0
C1041 C 0.14433 0.78671 0.52432 0.0
C1042 C 0.14958 0.7966 0.50048 0.0
C1043 C 0.1506 0.78353 0.47784 0.0
H1044 H 0.14348 0.79687 0.54181 0.0
H1045 H 0.15262 0.66754 0.32402 0.0
H1046 H 0.30907 0.2021 0.30136 0.0
H1047 H 0.31496 0.17397 0.33507 0.0
H1048 H 0.2515 0.14332 0.31569 0.0
H1049 H 0.24542 0.17162 0.28206 0.0
H1050 H 0.25671 0.15141 0.36857 0.0
H1051 H 0.29943 0.11813 0.29868 0.0
H1052 H 0.32846 0.11769 0.26454 0.0
H1053 H 0.37921 0.13088 0.32194 0.0
H1054 H 0.35043 0.13171 0.3564 0.0
H1055 H 0.25984 0.05351 0.44072 0.0
H1056 H 0.2594 0.07977 0.40471 0.0
H1057 H 0.32646 0.10133 0.42428 0.0
H1058 H 0.32726 0.07423 0.46019 0.0
H1059 H 0.3214 0.09961 0.37265 0.0
H1060 H 0.28042 0.1322 0.44264 0.0
H1061 H 0.25226 0.13386 0.47773 0.0
H1062 H 0.19952 0.12451 0.42185 0.0
H1063 H 0.22735 0.12237 0.38644 0.0
C1064 C 0.29639 0.18934 0.30423 0.0
C1065 C 0.27672 0.18914 0.28911 0.0
C1066 C 0.29987 0.17317 0.32337 0.0
C1067 C 0.28372 0.15649 0.32784 0.0
C1068 C 0.2642 0.15603 0.31253 0.0
C1069 C 0.26081 0.1721 0.2932 0.0
C1070 C 0.28666 0.14018 0.34929 0.0
C1071 C 0.27068 0.13985 0.36928 0.0
C1072 C 0.30542 0.1258 0.35077 0.0
C1073 C 0.32274 0.1252 0.33008 0.0
C1074 C 0.31675 0.12112 0.304 0.0
C1075 C 0.33317 0.12077 0.28459 0.0
C1076 C 0.35566 0.12432 0.29106 0.0
C1077 C 0.36178 0.12817 0.31696 0.0
C1078 C 0.34543 0.12856 0.33643 0.0
C1079 C 0.27458 0.06373 0.43733 0.0
C1080 C 0.2935 0.062 0.4535 0.0
C1081 C 0.27427 0.07883 0.41676 0.0
C1082 C 0.29265 0.093 0.41217 0.0
C1083 C 0.31199 0.0907 0.42758 0.0
C1084 C 0.31245 0.07524 0.44807 0.0
C1085 C 0.29115 0.11047 0.39169 0.0
C1086 C 0.30744 0.11116 0.37199 0.0
C1087 C 0.27283 0.12547 0.39064 0.0
C1088 C 0.256 0.12695 0.41189 0.0
C1089 C 0.26283 0.13034 0.43784 0.0
C1090 C 0.24693 0.13139 0.45779 0.0
C1091 C 0.22413 0.12927 0.45202 0.0
C1092 C 0.21718 0.12613 0.42628 0.0
C1093 C 0.23301 0.12501 0.40626 0.0
H1094 H 0.21186 0.13008 0.4675 0.0
H1095 H 0.36834 0.12404 0.27601 0.0
H1096 H 0.74524 0.78317 0.84763 0.0
H1097 H 0.72325 0.78337 0.8879 0.0
H1098 H 0.6812 0.83534 0.85692 0.0
H1099 H 0.70313 0.83537 0.81678 0.0
H1100 H 0.68903 0.8405 0.91045 0.0
H1101 H 0.6664 0.78137 0.84947 0.0
H1102 H 0.67457 0.74819 0.82233 0.0
H1103 H 0.696 0.71233 0.89005 0.0
H1104 H 0.68824 0.74544 0.91755 0.0
H1105 H 0.58573 0.82725 0.97738 0.0
H1106 H 0.6167 0.8318 0.94654 0.0
H1107 H 0.64566 0.76996 0.97334 0.0
H1108 H 0.61419 0.76487 1.0031 0.0
H1109 H 0.64795 0.76924 0.92475 0.0
H1110 H 0.66847 0.82448 0.98712 0.0
H1111 H 0.66376 0.857 0.01632 0.0
H1112 H 0.65063 0.89904 0.95057 0.0
H1113 H 0.65494 0.86669 0.92097 0.0
C1114 C 0.7317 0.79507 0.84964 0.0
C1115 C 0.72583 0.80912 0.82885 0.0
C1116 C 0.71905 0.79507 0.87264 0.0
C1117 C 0.70032 0.80911 0.87527 0.0
C1118 C 0.6955 0.82431 0.85533 0.0
C1119 C 0.70805 0.82425 0.83233 0.0
C1120 C 0.68439 0.80652 0.89738 0.0
C1121 C 0.67993 0.82498 0.91357 0.0
C1122 C 0.67302 0.78606 0.90194 0.0
C1123 C 0.67692 0.76593 0.88552 0.0
C1124 C 0.67292 0.76643 0.85855 0.0
C1125 C 0.67749 0.74765 0.84311 0.0
C1126 C 0.68585 0.72819 0.85445 0.0
C1127 C 0.68955 0.72743 0.88129 0.0
C1128 C 0.68505 0.74619 0.89682 0.0
C1129 C 0.59885 0.81478 0.97684 0.0
C1130 C 0.59747 0.79567 0.99257 0.0
C1131 C 0.61666 0.81742 0.95927 0.0
C1132 C 0.63381 0.80133 0.95762 0.0
C1133 C 0.63268 0.78258 0.97397 0.0
C1134 C 0.61468 0.77971 0.99107 0.0
C1135 C 0.65226 0.80336 0.938 0.0
C1136 C 0.65715 0.78476 0.92208 0.0
C1137 C 0.66438 0.82356 0.93413 0.0
C1138 C 0.66184 0.8431 0.95183 0.0
C1139 C 0.66442 0.84063 0.97889 0.0
C1140 C 0.66184 0.85904 0.99551 0.0
C1141 C 0.65685 0.88007 0.98531 0.0
C1142 C 0.65448 0.88274 0.95845 0.0
C1143 C 0.65701 0.86437 0.94173 0.0
H1144 H 0.65486 0.89431 0.99821 0.0
H1145 H 0.68941 0.71368 0.84246 0.0
H1146 H 0.33154 0.72629 0.81338 0.0
H1147 H 0.33186 0.70299 0.85216 0.0
H1148 H 0.26277 0.71992 0.86701 0.0
H1149 H 0.26297 0.74462 0.82864 0.0
H1150 H 0.28492 0.71438 0.91229 0.0
H1151 H 0.27671 0.67174 0.83373 0.0
H1152 H 0.28627 0.65946 0.7892 0.0
H1153 H 0.35037 0.63661 0.81588 0.0
H1154 H 0.34131 0.64904 0.86052 0.0
H1155 H 0.25691 0.61361 0.9788 0.0
H1156 H 0.26007 0.64494 0.94883 0.0
H1157 H 0.33074 0.63217 0.94005 0.0
H1158 H 0.32773 0.60057 0.97033 0.0
H1159 H 0.30824 0.63636 0.89302 0.0
H1160 H 0.31395 0.67725 0.97334 0.0
H1161 H 0.30229 0.68859 0.01751 0.0
H1162 H 0.24013 0.71334 0.98725 0.0
H1163 H 0.25126 0.70183 0.94293 0.0
C1164 C 0.31662 0.72556 0.82537 0.0
C1165 C 0.29725 0.73723 0.81817 0.0
C1166 C 0.31673 0.71205 0.84739 0.0
C1167 C 0.29715 0.70913 0.86213 0.0
C1168 C 0.27805 0.72179 0.85584 0.0
C1169 C 0.27813 0.73588 0.83399 0.0
C1170 C 0.29638 0.69155 0.88261 0.0
C1171 C 0.28977 0.69727 0.90802 0.0
C1172 C 0.30299 0.66922 0.87719 0.0
C1173 C 0.3084 0.6615 0.85042 0.0
C1174 C 0.2929 0.66421 0.83007 0.0
C1175 C 0.29822 0.65722 0.80481 0.0
C1176 C 0.31894 0.64731 0.7997 0.0
C1177 C 0.33434 0.64431 0.81986 0.0
C1178 C 0.32911 0.65131 0.84515 0.0
C1179 C 0.2732 0.61748 0.97065 0.0
C1180 C 0.29208 0.60448 0.97688 0.0
C1181 C 0.27499 0.63554 0.95364 0.0
C1182 C 0.29566 0.64104 0.94236 0.0
C1183 C 0.31463 0.62826 0.94866 0.0
C1184 C 0.3129 0.61025 0.96596 0.0
C1185 C 0.29701 0.6592 0.92274 0.0
C1186 C 0.30357 0.65351 0.89737 0.0
C1187 C 0.29003 0.68139 0.92818 0.0
C1188 C 0.28337 0.6885 0.95481 0.0
C1189 C 0.29771 0.68495 0.97611 0.0
C1190 C 0.29122 0.69143 1.00119 0.0
C1191 C 0.27047 0.70163 1.0052 0.0
C1192 C 0.2562 0.70542 0.98412 0.0
C1193 C 0.2626 0.69894 0.95901 0.0
H1194 H 0.26546 0.70663 0.02462 0.0
H1195 H 0.32303 0.64191 0.78014 0.0
H1196 H 0.30093 0.30096 0.84036 0.0
H1197 H 0.32836 0.30736 0.87509 0.0
H1198 H 0.36418 0.2482 0.85119 0.0
H1199 H 0.33689 0.24166 0.81645 0.0
H1200 H 0.36253 0.25403 0.90576 0.0
H1201 H 0.38002 0.29798 0.8281 0.0
H1202 H 0.36933 0.32553 0.79476 0.0
H1203 H 0.35807 0.3749 0.85434 0.0
H1204 H 0.36846 0.34752 0.88807 0.0
H1205 H 0.47266 0.26428 0.94609 0.0
H1206 H 0.43879 0.26177 0.91982 0.0
H1207 H 0.42045 0.32862 0.94353 0.0
H1208 H 0.4551 0.33152 0.96936 0.0
H1209 H 0.40904 0.3224 0.89431 0.0
H1210 H 0.39587 0.28198 0.97173 0.0
H1211 H 0.40354 0.25526 1.00698 0.0
H1212 H 0.40285 0.2009 0.95197 0.0
H1213 H 0.39556 0.22733 0.91627 0.0
C1214 C 0.31429 0.28895 0.8429 0.0
C1215 C 0.31677 0.27084 0.82548 0.0
C1216 C 0.33006 0.29275 0.86268 0.0
C1217 C 0.34853 0.27846 0.86548 0.0
C1218 C 0.35012 0.25949 0.84934 0.0
C1219 C 0.33449 0.25578 0.82946 0.0
C1220 C 0.36722 0.2841 0.88359 0.0
C1221 C 0.37278 0.2689 0.90322 0.0
C1222 C 0.38007 0.30396 0.88091 0.0
C1223 C 0.37487 0.32068 0.86059 0.0
C1224 C 0.37524 0.31471 0.83408 0.0
C1225 C 0.36923 0.33028 0.81512 0.0
C1226 C 0.363 0.35194 0.82244 0.0
C1227 C 0.36291 0.35811 0.84872 0.0
C1228 C 0.36889 0.34259 0.86776 0.0
C1229 C 0.46154 0.27856 0.94559 0.0
C1230 C 0.46647 0.29803 0.96002 0.0
C1231 C 0.44205 0.27705 0.93065 0.0
C1232 C 0.42662 0.29473 0.93024 0.0
C1233 C 0.43195 0.31465 0.9437 0.0
C1234 C 0.45177 0.31631 0.95842 0.0
C1235 C 0.40489 0.29191 0.91611 0.0
C1236 C 0.39869 0.30765 0.89722 0.0
C1237 C 0.39114 0.27273 0.91983 0.0
C1238 C 0.3953 0.25669 0.94127 0.0
C1239 C 0.39748 0.26435 0.96711 0.0
C1240 C 0.40175 0.24925 0.98718 0.0
C1241 C 0.4037 0.2264 0.98172 0.0
C1242 C 0.40134 0.2186 0.95617 0.0
C1243 C 0.39712 0.23364 0.936 0.0
H1244 H 0.40701 0.21474 0.99729 0.0
H1245 H 0.35829 0.36394 0.80773 0.0
H1246 H 0.8121 0.30916 0.83339 0.0
H1247 H 0.81698 0.33815 0.86702 0.0
H1248 H 0.76207 0.37533 0.83421 0.0
H1249 H 0.7575 0.34694 0.80049 0.0
H1250 H 0.79382 0.40311 0.84553 0.0
H1251 H 0.75687 0.34382 0.89084 0.0
H1252 H 0.75127 0.30538 0.90681 0.0
H1253 H 0.81319 0.30948 0.94922 0.0
H1254 H 0.81933 0.34789 0.93315 0.0
H1255 H 0.75947 0.47057 0.95317 0.0
H1256 H 0.76096 0.44012 0.92114 0.0
H1257 H 0.82783 0.42388 0.94621 0.0
H1258 H 0.82672 0.45478 0.978 0.0
H1259 H 0.79387 0.38548 0.93979 0.0
H1260 H 0.82769 0.44792 0.89462 0.0
H1261 H 0.82912 0.48696 0.87935 0.0
H1262 H 0.76767 0.47696 0.83727 0.0
H1263 H 0.7657 0.43794 0.85263 0.0
C1264 C 0.80111 0.32354 0.83336 0.0
C1265 C 0.78443 0.32568 0.81418 0.0
C1266 C 0.80384 0.34008 0.85268 0.0
C1267 C 0.78979 0.35895 0.85337 0.0
C1268 C 0.77322 0.36106 0.83414 0.0
C1269 C 0.77059 0.34469 0.81484 0.0
C1270 C 0.79215 0.37666 0.87388 0.0
C1271 C 0.79371 0.39916 0.86611 0.0
C1272 C 0.79229 0.3717 0.90085 0.0
C1273 C 0.7887 0.34862 0.91053 0.0
C1274 C 0.7694 0.33645 0.90339 0.0
C1275 C 0.7661 0.31468 0.9125 0.0
C1276 C 0.78189 0.30496 0.92897 0.0
C1277 C 0.80099 0.31702 0.93641 0.0
C1278 C 0.80439 0.3388 0.92731 0.0
C1279 C 0.77451 0.46052 0.95194 0.0
C1280 C 0.79301 0.46515 0.96812 0.0
C1281 C 0.77532 0.44313 0.93361 0.0
C1282 C 0.79449 0.42974 0.93132 0.0
C1283 C 0.81286 0.434 0.94772 0.0
C1284 C 0.81223 0.45172 0.96576 0.0
C1285 C 0.79534 0.41169 0.91128 0.0
C1286 C 0.79431 0.38924 0.91916 0.0
C1287 C 0.79519 0.41667 0.88441 0.0
C1288 C 0.79645 0.44007 0.87497 0.0
C1289 C 0.81438 0.4541 0.8823 0.0
C1290 C 0.81531 0.47622 0.87359 0.0
C1291 C 0.79847 0.48445 0.8574 0.0
C1292 C 0.78069 0.47057 0.84983 0.0
C1293 C 0.77967 0.44844 0.85851 0.0
H1294 H 0.79921 0.50158 0.85068 0.0
H1295 H 0.7793 0.2881 0.93602 0.0
H1296 H 0.69731 0.27898 0.21579 0.0
H1297 H 0.66544 0.2852 0.18675 0.0
H1298 H 0.71068 0.29503 0.12242 0.0
H1299 H 0.74268 0.28819 0.15125 0.0
H1300 H 0.67296 0.32966 0.13173 0.0
H1301 H 0.68787 0.25074 0.11872 0.0
H1302 H 0.69463 0.21221 0.13371 0.0
H1303 H 0.6308 0.21166 0.1723 0.0
H1304 H 0.62382 0.25034 0.15785 0.0
H1305 H 0.58818 0.32721 0.03185 0.0
H1306 H 0.62192 0.32552 0.05912 0.0
H1307 H 0.58511 0.28768 0.11651 0.0
H1308 H 0.55205 0.28823 0.08853 0.0
H1309 H 0.62095 0.26759 0.10901 0.0
H1310 H 0.60483 0.34507 0.1245 0.0
H1311 H 0.59711 0.38439 0.11335 0.0
H1312 H 0.66082 0.3893 0.07491 0.0
H1313 H 0.6688 0.34989 0.08553 0.0
C1314 C 0.70051 0.28249 0.19548 0.0
C1315 C 0.72259 0.28331 0.18592 0.0
C1316 C 0.68228 0.28602 0.17892 0.0
C1317 C 0.68574 0.29076 0.15252 0.0
C1318 C 0.7077 0.29155 0.1428 0.0
C1319 C 0.72595 0.28752 0.15927 0.0
C1320 C 0.66627 0.2944 0.13511 0.0
C1321 C 0.66168 0.31611 0.12636 0.0
C1322 C 0.65131 0.2768 0.12886 0.0
C1323 C 0.65543 0.25351 0.13743 0.0
C1324 C 0.67537 0.24248 0.13061 0.0
C1325 C 0.67922 0.2206 0.13896 0.0
C1326 C 0.66318 0.20952 0.15401 0.0
C1327 C 0.64323 0.22028 0.16067 0.0
C1328 C 0.63931 0.24217 0.15239 0.0
C1329 C 0.58727 0.31904 0.05059 0.0
C1330 C 0.56757 0.30796 0.05823 0.0
C1331 C 0.60655 0.31806 0.06622 0.0
C1332 C 0.60622 0.30649 0.09007 0.0
C1333 C 0.58602 0.29652 0.09818 0.0
C1334 C 0.56704 0.297 0.08231 0.0
C1335 C 0.62706 0.30313 0.10572 0.0
C1336 C 0.63205 0.28134 0.11418 0.0
C1337 C 0.6421 0.3208 0.1121 0.0
C1338 C 0.63729 0.34444 0.10554 0.0
C1339 C 0.61711 0.35447 0.11346 0.0
C1340 C 0.6127 0.37678 0.10728 0.0
C1341 C 0.62843 0.38931 0.09336 0.0
C1342 C 0.64863 0.37956 0.08564 0.0
C1343 C 0.6531 0.35724 0.09175 0.0
H1344 H 0.625 0.40659 0.08861 0.0
H1345 H 0.66619 0.19257 0.16045 0.0
H1346 H 0.82846 0.69937 0.22733 0.0
H1347 H 0.82569 0.6652 0.20098 0.0
H1348 H 0.83471 0.70423 0.13127 0.0
H1349 H 0.83834 0.73822 0.15775 0.0
H1350 H 0.79721 0.65161 0.16839 0.0
H1351 H 0.85628 0.67384 0.08224 0.0
H1352 H 0.8912 0.69504 0.07446 0.0
H1353 H 0.91046 0.68625 0.15427 0.0
H1354 H 0.87582 0.66476 0.16245 0.0
H1355 H 0.77167 0.58107 0.06256 0.0
H1356 H 0.77989 0.61309 0.09065 0.0
H1357 H 0.84741 0.58925 0.10139 0.0
H1358 H 0.83948 0.55752 0.07232 0.0
H1359 H 0.84907 0.63197 0.09646 0.0
H1360 H 0.80529 0.58351 0.14946 0.0
H1361 H 0.77327 0.55944 0.16131 0.0
H1362 H 0.72879 0.61544 0.15511 0.0
H1363 H 0.76053 0.63984 0.14292 0.0
C1364 C 0.83006 0.70057 0.20639 0.0
C1365 C 0.83376 0.72143 0.19462 0.0
C1366 C 0.82842 0.68104 0.19131 0.0
C1367 C 0.83019 0.68194 0.16404 0.0
C1368 C 0.83385 0.70286 0.15225 0.0
C1369 C 0.83589 0.72234 0.1674 0.0
C1370 C 0.82728 0.66118 0.14797 0.0
C1371 C 0.80862 0.64735 0.15272 0.0
C1372 C 0.84234 0.65516 0.12779 0.0
C1373 C 0.86334 0.66787 0.123 0.0
C1374 C 0.86801 0.67635 0.0981 0.0
C1375 C 0.88775 0.68844 0.09362 0.0
C1376 C 0.903 0.69205 0.11387 0.0
C1377 C 0.89859 0.68351 0.13862 0.0
C1378 C 0.8789 0.6714 0.1432 0.0
C1379 C 0.78828 0.58259 0.07091 0.0
C1380 C 0.80487 0.56662 0.06531 0.0
C1381 C 0.79294 0.6009 0.08712 0.0
C1382 C 0.81416 0.60347 0.09867 0.0
C1383 C 0.83088 0.58768 0.09283 0.0
C1384 C 0.82631 0.56949 0.07625 0.0
C1385 C 0.81883 0.62267 0.11667 0.0
C1386 C 0.83774 0.63622 0.11223 0.0
C1387 C 0.80442 0.62804 0.1377 0.0
C1388 C 0.78527 0.61345 0.14505 0.0
C1389 C 0.78866 0.59066 0.15044 0.0
C1390 C 0.77056 0.57696 0.15725 0.0
C1391 C 0.749 0.58587 0.15889 0.0
C1392 C 0.7455 0.60854 0.1538 0.0
C1393 C 0.76354 0.62233 0.14697 0.0
H1394 H 0.73501 0.57522 0.16416 0.0
H1395 H 0.91826 0.70142 0.11037 0.0
H1396 H 0.3413 0.74761 0.21773 0.0
H1397 H 0.37018 0.75011 0.18371 0.0
H1398 H 0.39998 0.80661 0.22343 0.0
H1399 H 0.37139 0.80403 0.25748 0.0
H1400 H 0.39465 0.81225 0.16796 0.0
H1401 H 0.4246 0.75958 0.22989 0.0
H1402 H 0.42352 0.72553 0.25678 0.0
H1403 H 0.41547 0.68499 0.1881 0.0
H1404 H 0.41618 0.71886 0.16081 0.0
H1405 H 0.49927 0.81841 0.10093 0.0
H1406 H 0.46874 0.81738 0.13279 0.0
H1407 H 0.4504 0.75113 0.10616 0.0
H1408 H 0.48144 0.75171 0.0753 0.0
H1409 H 0.44899 0.75061 0.15504 0.0
H1410 H 0.41904 0.80125 0.09238 0.0
H1411 H 0.41829 0.83439 0.06399 0.0
H1412 H 0.42377 0.87753 0.13085 0.0
H1413 H 0.42484 0.84462 0.15964 0.0
C1414 C 0.35399 0.76057 0.21913 0.0
C1415 C 0.35418 0.77548 0.24041 0.0
C1416 C 0.37049 0.76197 0.19975 0.0
C1417 C 0.38728 0.77853 0.20108 0.0
C1418 C 0.38721 0.79371 0.22201 0.0
C1419 C 0.37098 0.79208 0.24158 0.0
C1420 C 0.40521 0.7798 0.18096 0.0
C1421 C 0.4067 0.7989 0.16525 0.0
C1422 C 0.42054 0.76213 0.17698 0.0
C1423 C 0.42019 0.74176 0.19335 0.0
C1424 C 0.42239 0.74342 0.22055 0.0
C1425 C 0.42189 0.72415 0.23585 0.0
C1426 C 0.41936 0.70311 0.22416 0.0
C1427 C 0.41739 0.7013 0.19713 0.0
C1428 C 0.41786 0.72052 0.18173 0.0
C1429 C 0.4886 0.80371 0.10176 0.0
C1430 C 0.49282 0.78514 0.08559 0.0
C1431 C 0.47103 0.80316 0.11993 0.0
C1432 C 0.45693 0.78425 0.12185 0.0
C1433 C 0.46098 0.76589 0.1053 0.0
C1434 C 0.47874 0.76628 0.08754 0.0
C1435 C 0.43853 0.7831 0.14163 0.0
C1436 C 0.43695 0.764 0.15746 0.0
C1437 C 0.42288 0.80064 0.14538 0.0
C1438 C 0.42225 0.82046 0.12814 0.0
C1439 C 0.42026 0.8178 0.10101 0.0
C1440 C 0.41974 0.83654 0.08485 0.0
C1441 C 0.42104 0.85805 0.0956 0.0
C1442 C 0.4228 0.86086 0.12255 0.0
C1443 C 0.42334 0.84217 0.1388 0.0
H1444 H 0.42064 0.87254 0.08306 0.0
H1445 H 0.41899 0.68821 0.23605 0.0
H1446 H 0.25568 0.32462 0.14243 0.0
H1447 H 0.26363 0.3596 0.11992 0.0
H1448 H 0.29779 0.38495 0.18802 0.0
H1449 H 0.28909 0.35044 0.21105 0.0
H1450 H 0.27298 0.41646 0.16959 0.0
H1451 H 0.32643 0.36782 0.13327 0.0
H1452 H 0.34176 0.33389 0.1126 0.0
H1453 H 0.30296 0.34642 0.04385 0.0
H1454 H 0.28692 0.38016 0.06437 0.0
H1455 H 0.31667 0.50927 0.09233 0.0
H1456 H 0.31774 0.47406 0.11717 0.0
H1457 H 0.26354 0.44771 0.07057 0.0
H1458 H 0.26187 0.48283 0.04648 0.0
H1459 H 0.30407 0.41769 0.08003 0.0
H1460 H 0.24793 0.46506 0.12293 0.0
H1461 H 0.23636 0.49991 0.14501 0.0
H1462 H 0.28692 0.49024 0.20331 0.0
H1463 H 0.29901 0.45548 0.18131 0.0
C1464 C 0.26476 0.33762 0.15276 0.0
C1465 C 0.27173 0.33448 0.17867 0.0
C1466 C 0.26954 0.3576 0.1397 0.0
C1467 C 0.28162 0.37491 0.15208 0.0
C1468 C 0.28854 0.37188 0.17794 0.0
C1469 C 0.28369 0.35194 0.19105 0.0
C1470 C 0.28638 0.39636 0.13828 0.0
C1471 C 0.28015 0.41665 0.15019 0.0
C1472 C 0.29585 0.39684 0.11296 0.0
C1473 C 0.30528 0.37644 0.1005 0.0
C1474 C 0.32097 0.36323 0.11385 0.0
C1475 C 0.32982 0.34404 0.10213 0.0
C1476 C 0.32334 0.33799 0.07692 0.0
C1477 C 0.30796 0.35111 0.06339 0.0
C1478 C 0.29896 0.37028 0.07507 0.0
C1479 C 0.30508 0.4959 0.0874 0.0
C1480 C 0.28905 0.49886 0.06766 0.0
C1481 C 0.3057 0.47585 0.10154 0.0
C1482 C 0.29071 0.4583 0.09565 0.0
C1483 C 0.27526 0.46101 0.07538 0.0
C1484 C 0.27425 0.48115 0.06177 0.0
C1485 C 0.29019 0.43741 0.11119 0.0
C1486 C 0.29719 0.41731 0.09957 0.0
C1487 C 0.28198 0.43712 0.13698 0.0
C1488 C 0.27455 0.45786 0.1503 0.0
C1489 C 0.25672 0.47049 0.14031 0.0
C1490 C 0.25004 0.4902 0.15284 0.0
C1491 C 0.26095 0.49734 0.1755 0.0
C1492 C 0.27852 0.48473 0.18573 0.0
C1493 C 0.28528 0.46502 0.17325 0.0
H1494 H 0.25576 0.5126 0.18517 0.0
H1495 H 0.33028 0.32316 0.06785 0.0
H1496 H 0.35192 0.23161 0.22811 0.0
H1497 H 0.38572 0.23683 0.20233 0.0
H1498 H 0.37534 0.30829 0.2032 0.0
H1499 H 0.34105 0.30299 0.22899 0.0
H1500 H 0.37831 0.29257 0.15471 0.0
H1501 H 0.42257 0.28488 0.23102 0.0
H1502 H 0.43502 0.26824 0.27234 0.0
H1503 H 0.45177 0.20723 0.23243 0.0
H1504 H 0.43912 0.22337 0.1909 0.0
H1505 H 0.47266 0.30813 0.07329 0.0
H1506 H 0.44736 0.30906 0.11041 0.0
H1507 H 0.44938 0.23702 0.1149 0.0
H1508 H 0.47511 0.2359 0.07764 0.0
H1509 H 0.45282 0.25681 0.16306 0.0
H1510 H 0.40457 0.26283 0.08838 0.0
H1511 H 0.391 0.27865 0.04707 0.0
H1512 H 0.38118 0.34236 0.08433 0.0
H1513 H 0.39484 0.32697 0.12586 0.0
C1514 C 0.3573 0.24851 0.22364 0.0
C1515 C 0.34392 0.2669 0.23054 0.0
C1516 C 0.37669 0.25149 0.20891 0.0
C1517 C 0.38314 0.27296 0.20078 0.0
C1518 C 0.37069 0.29157 0.2093 0.0
C1519 C 0.35126 0.28858 0.22426 0.0
C1520 C 0.40078 0.27531 0.18052 0.0
C1521 C 0.39482 0.28527 0.15682 0.0
C1522 C 0.42205 0.2651 0.18289 0.0
C1523 C 0.42976 0.25532 0.20784 0.0
C1524 C 0.42875 0.26785 0.23107 0.0
C1525 C 0.43588 0.25852 0.25453 0.0
C1526 C 0.44415 0.23668 0.25502 0.0
C1527 C 0.44536 0.22415 0.23202 0.0
C1528 C 0.43825 0.2334 0.2085 0.0
C1529 C 0.46778 0.29241 0.08208 0.0
C1530 C 0.47586 0.27189 0.07235 0.0
C1531 C 0.45323 0.293 0.10332 0.0
C1532 C 0.44627 0.27312 0.11527 0.0
C1533 C 0.45453 0.25258 0.10593 0.0
C1534 C 0.46915 0.25195 0.08458 0.0
C1535 C 0.43019 0.27385 0.13733 0.0
C1536 C 0.43643 0.26442 0.16121 0.0
C1537 C 0.40911 0.28448 0.13515 0.0
C1538 C 0.40099 0.29381 0.11016 0.0
C1539 C 0.39971 0.28026 0.08771 0.0
C1540 C 0.39194 0.28914 0.06427 0.0
C1541 C 0.38529 0.31151 0.06306 0.0
C1542 C 0.38637 0.32504 0.08529 0.0
C1543 C 0.39408 0.31624 0.1088 0.0
H1544 H 0.37925 0.31834 0.0449 0.0
H1545 H 0.44966 0.22948 0.2732 0.0
H1546 H 0.72963 0.34385 0.23822 0.0
H1547 H 0.7237 0.3711 0.20365 0.0
H1548 H 0.77501 0.41362 0.23668 0.0
H1549 H 0.78101 0.38654 0.27144 0.0
H1550 H 0.74125 0.43841 0.21428 0.0
H1551 H 0.78866 0.37622 0.1928 0.0
H1552 H 0.79819 0.33632 0.18776 0.0
H1553 H 0.74551 0.32821 0.13148 0.0
H1554 H 0.73515 0.36787 0.13689 0.0
H1555 H 0.79191 0.46409 0.07924 0.0
H1556 H 0.7877 0.4405 0.1176 0.0
H1557 H 0.71935 0.46242 0.12635 0.0
H1558 H 0.7234 0.4861 0.08774 0.0
H1559 H 0.75966 0.40559 0.12795 0.0
H1560 H 0.70968 0.46674 0.19301 0.0
H1561 H 0.70485 0.5075 0.1989 0.0
H1562 H 0.77089 0.51901 0.1684 0.0
H1563 H 0.77614 0.47842 0.1626 0.0
C1564 C 0.7392 0.3593 0.23867 0.0
C1565 C 0.75606 0.36283 0.25747 0.0
C1566 C 0.73583 0.37484 0.21877 0.0
C1567 C 0.74921 0.3942 0.21728 0.0
C1568 C 0.76455 0.39876 0.23736 0.0
C1569 C 0.76799 0.3832 0.25723 0.0
C1570 C 0.74929 0.40815 0.19336 0.0
C1571 C 0.74499 0.43119 0.19536 0.0
C1572 C 0.75477 0.39886 0.16873 0.0
C1573 C 0.76094 0.37496 0.1655 0.0
C1574 C 0.77892 0.36586 0.1796 0.0
C1575 C 0.78446 0.34327 0.1767 0.0
C1576 C 0.7724 0.3297 0.15941 0.0
C1577 C 0.75475 0.33868 0.14501 0.0
C1578 C 0.749 0.36121 0.14803 0.0
C1579 C 0.77593 0.46389 0.08923 0.0
C1580 C 0.758 0.47705 0.0804 0.0
C1581 C 0.77354 0.4503 0.11113 0.0
C1582 C 0.75326 0.44975 0.12495 0.0
C1583 C 0.73521 0.4627 0.1161 0.0
C1584 C 0.73753 0.47616 0.09398 0.0
C1585 C 0.75128 0.43579 0.14876 0.0
C1586 C 0.75539 0.41273 0.14676 0.0
C1587 C 0.74614 0.44515 0.17342 0.0
C1588 C 0.74316 0.46958 0.17708 0.0
C1589 C 0.72315 0.478 0.18761 0.0
C1590 C 0.72034 0.50108 0.19092 0.0
C1591 C 0.7375 0.51587 0.18391 0.0
C1592 C 0.75754 0.5076 0.17368 0.0
C1593 C 0.76042 0.48456 0.17034 0.0
H1594 H 0.7353 0.53372 0.18648 0.0
H1595 H 0.77683 0.31226 0.15708 0.0
H1596 H 0.72785 0.77304 0.24983 0.0
H1597 H 0.6922 0.76546 0.22718 0.0
H1598 H 0.72844 0.75263 0.156 0.0
H1599 H 0.76357 0.7606 0.17811 0.0
H1600 H 0.69662 0.78051 0.14663 0.0
H1601 H 0.7023 0.7104 0.19139 0.0
H1602 H 0.70606 0.68579 0.22951 0.0
H1603 H 0.64496 0.71198 0.26132 0.0
H1604 H 0.64098 0.73697 0.22353 0.0
H1605 H 0.59733 0.71733 0.08708 0.0
H1606 H 0.62895 0.71666 0.11777 0.0
H1607 H 0.617 0.78584 0.13738 0.0
H1608 H 0.58571 0.78672 0.10702 0.0
H1609 H 0.63624 0.72773 0.1724 0.0
H1610 H 0.66734 0.81251 0.13236 0.0
H1611 H 0.66432 0.83479 0.09221 0.0
H1612 H 0.65474 0.77466 0.04731 0.0
H1613 H 0.65814 0.75202 0.0871 0.0
C1614 C 0.72812 0.76832 0.22945 0.0
C1615 C 0.74848 0.7677 0.21569 0.0
C1616 C 0.70778 0.76395 0.21652 0.0
C1617 C 0.70758 0.75856 0.18977 0.0
C1618 C 0.72804 0.757 0.1765 0.0
C1619 C 0.74817 0.76157 0.18923 0.0
C1620 C 0.68628 0.75594 0.17486 0.0
C1621 C 0.68347 0.76895 0.15238 0.0
C1622 C 0.66912 0.74071 0.18204 0.0
C1623 C 0.67147 0.72571 0.20476 0.0
C1624 C 0.68976 0.71104 0.20662 0.0
C1625 C 0.69191 0.697 0.22815 0.0
C1626 C 0.67579 0.69737 0.24786 0.0
C1627 C 0.65745 0.71174 0.24606 0.0
C1628 C 0.65523 0.72583 0.22458 0.0
C1629 C 0.60118 0.73224 0.09833 0.0
C1630 C 0.5892 0.75216 0.09429 0.0
C1631 C 0.61919 0.73181 0.11592 0.0
C1632 C 0.62546 0.75129 0.12961 0.0
C1633 C 0.61258 0.77069 0.12683 0.0
C1634 C 0.59471 0.77116 0.10936 0.0
C1635 C 0.64678 0.75236 0.14449 0.0
C1636 C 0.64949 0.73923 0.16684 0.0
C1637 C 0.66417 0.76715 0.13697 0.0
C1638 C 0.66275 0.7806 0.11278 0.0
C1639 C 0.66472 0.80404 0.1139 0.0
C1640 C 0.66293 0.81673 0.0912 0.0
C1641 C 0.65927 0.80615 0.06723 0.0
C1642 C 0.65751 0.78284 0.06589 0.0
C1643 C 0.65935 0.77008 0.08852 0.0
H1644 H 0.65784 0.81601 0.04969 0.0
H1645 H 0.67748 0.68648 0.26451 0.0
H1646 H 0.27603 0.75962 0.18344 0.0
H1647 H 0.26842 0.72922 0.1528 0.0
H1648 H 0.21772 0.70306 0.20444 0.0
H1649 H 0.22623 0.73287 0.23583 0.0
H1650 H 0.24064 0.67047 0.18968 0.0
H1651 H 0.20644 0.72892 0.14201 0.0
H1652 H 0.20243 0.7657 0.12101 0.0
H1653 H 0.25722 0.75051 0.0698 0.0
H1654 H 0.26182 0.71379 0.09076 0.0
H1655 H 0.21447 0.58853 0.08738 0.0
H1656 H 0.20924 0.62088 0.11683 0.0
H1657 H 0.27383 0.64682 0.09419 0.0
H1658 H 0.27941 0.61466 0.0656 0.0
H1659 H 0.23659 0.67897 0.09383 0.0
H1660 H 0.27264 0.62241 0.14769 0.0
H1661 H 0.27452 0.58517 0.16802 0.0
H1662 H 0.2119 0.59714 0.20673 0.0
H1663 H 0.20951 0.63436 0.18628 0.0
C1664 C 0.26294 0.74766 0.18805 0.0
C1665 C 0.25169 0.74872 0.21205 0.0
C1666 C 0.2585 0.73025 0.1704 0.0
C1667 C 0.24222 0.71383 0.17596 0.0
C1668 C 0.23038 0.7154 0.19957 0.0
C1669 C 0.23517 0.73254 0.21748 0.0
C1670 C 0.23887 0.69418 0.15815 0.0
C1671 C 0.23921 0.6725 0.16878 0.0
C1672 C 0.23717 0.69648 0.13073 0.0
C1673 C 0.23458 0.71864 0.11814 0.0
C1674 C 0.21776 0.73349 0.12643 0.0
C1675 C 0.21537 0.75432 0.1145 0.0
C1676 C 0.2296 0.76046 0.09413 0.0
C1677 C 0.24623 0.74575 0.08561 0.0
C1678 C 0.24872 0.72491 0.09749 0.0
C1679 C 0.22751 0.60115 0.08878 0.0
C1680 C 0.24742 0.59893 0.07436 0.0
C1681 C 0.22451 0.61958 0.10555 0.0
C1682 C 0.24116 0.63625 0.10761 0.0
C1683 C 0.26077 0.63421 0.09284 0.0
C1684 C 0.26397 0.61569 0.07664 0.0
C1685 C 0.23878 0.65572 0.12549 0.0
C1686 C 0.23747 0.67723 0.11482 0.0
C1687 C 0.23922 0.6533 0.15281 0.0
C1688 C 0.24074 0.63102 0.16519 0.0
C1689 C 0.25917 0.61701 0.16033 0.0
C1690 C 0.26035 0.59593 0.17192 0.0
C1691 C 0.2433 0.58875 0.18858 0.0
C1692 C 0.22507 0.60269 0.19376 0.0
C1693 C 0.22379 0.62378 0.18219 0.0
H1694 H 0.24425 0.57243 0.19754 0.0
H1695 H 0.2277 0.77659 0.08491 0.0
H1696 H 0.36068 0.7511 0.83095 0.0
H1697 H 0.38727 0.74679 0.86651 0.0
H1698 H 0.44216 0.75621 0.81298 0.0
H1699 H 0.41541 0.75982 0.77697 0.0
H1700 H 0.45331 0.72579 0.84795 0.0
H1701 H 0.42233 0.7997 0.85159 0.0
H1702 H 0.39214 0.82775 0.85299 0.0
H1703 H 0.36796 0.80002 0.92468 0.0
H1704 H 0.39785 0.77161 0.92352 0.0
H1705 H 0.50867 0.78863 0.9658 0.0
H1706 H 0.48436 0.78667 0.92789 0.0
H1707 H 0.47759 0.71526 0.93763 0.0
H1708 H 0.50264 0.71703 0.97554 0.0
H1709 H 0.44281 0.77628 0.92393 0.0
H1710 H 0.46618 0.69098 0.87779 0.0
H1711 H 0.49888 0.66602 0.874 0.0
H1712 H 0.54323 0.72227 0.88361 0.0
H1713 H 0.51082 0.74758 0.88712 0.0
C1714 C 0.37838 0.75214 0.82665 0.0
C1715 C 0.38589 0.75603 0.80111 0.0
C1716 C 0.39362 0.74969 0.84706 0.0
C1717 C 0.41676 0.75163 0.8426 0.0
C1718 C 0.42439 0.75469 0.81696 0.0
C1719 C 0.4091 0.75679 0.79639 0.0
C1720 C 0.43279 0.75164 0.86487 0.0
C1721 C 0.451 0.73679 0.8646 0.0
C1722 C 0.43007 0.76624 0.88647 0.0
C1723 C 0.4122 0.78342 0.88734 0.0
C1724 C 0.41049 0.79951 0.86756 0.0
C1725 C 0.39344 0.81548 0.86832 0.0
C1726 C 0.37811 0.81563 0.88887 0.0
C1727 C 0.37983 0.79986 0.90875 0.0
C1728 C 0.39683 0.78384 0.90807 0.0
C1729 C 0.50213 0.77243 0.95991 0.0
C1730 C 0.50758 0.75297 0.97383 0.0
C1731 C 0.48815 0.77136 0.93817 0.0
C1732 C 0.47909 0.75084 0.92975 0.0
C1733 C 0.48458 0.73128 0.94347 0.0
C1734 C 0.49883 0.73231 0.96522 0.0
C1735 C 0.46338 0.75039 0.90715 0.0
C1736 C 0.44513 0.76515 0.90739 0.0
C1737 C 0.46646 0.73615 0.8853 0.0
C1738 C 0.48607 0.72112 0.88302 0.0
C1739 C 0.48292 0.69802 0.87903 0.0
C1740 C 0.5014 0.68381 0.87694 0.0
C1741 C 0.52311 0.69254 0.87866 0.0
C1742 C 0.5264 0.71551 0.88239 0.0
C1743 C 0.50798 0.72979 0.88447 0.0
H1744 H 0.5374 0.68151 0.87705 0.0
H1745 H 0.36492 0.82801 0.88942 0.0
H1746 H 0.249 0.37185 0.80326 0.0
H1747 H 0.24105 0.40048 0.83619 0.0
H1748 H 0.31178 0.41433 0.84348 0.0
H1749 H 0.31983 0.38544 0.81085 0.0
H1750 H 0.29154 0.40953 0.8908 0.0
H1751 H 0.27746 0.45013 0.81158 0.0
H1752 H 0.25961 0.45655 0.76898 0.0
H1753 H 0.19474 0.45635 0.80513 0.0
H1754 H 0.2122 0.44964 0.84792 0.0
H1755 H 0.29504 0.51079 0.95816 0.0
H1756 H 0.297 0.48238 0.92427 0.0
H1757 H 0.22508 0.47518 0.92578 0.0
H1758 H 0.22287 0.50409 0.96002 0.0
H1759 H 0.24231 0.47489 0.87542 0.0
H1760 H 0.25584 0.43682 0.95482 0.0
H1761 H 0.27306 0.43035 0.99773 0.0
H1762 H 0.33782 0.42476 0.96194 0.0
H1763 H 0.32105 0.4316 0.91884 0.0
C1764 C 0.26285 0.38101 0.81186 0.0
C1765 C 0.28505 0.37636 0.80441 0.0
C1766 C 0.25828 0.39748 0.83055 0.0
C1767 C 0.2758 0.40967 0.84221 0.0
C1768 C 0.29798 0.40518 0.8347 0.0
C1769 C 0.30256 0.38879 0.81588 0.0
C1770 C 0.27111 0.42666 0.86277 0.0
C1771 C 0.28098 0.42395 0.88734 0.0
C1772 C 0.25662 0.44502 0.85858 0.0
C1773 C 0.24612 0.44914 0.8329 0.0
C1774 C 0.25938 0.45127 0.81041 0.0
C1775 C 0.24934 0.455 0.78624 0.0
C1776 C 0.22605 0.45679 0.78434 0.0
C1777 C 0.21277 0.45493 0.80663 0.0
C1778 C 0.22273 0.45118 0.83084 0.0
C1779 C 0.27953 0.5033 0.95135 0.0
C1780 C 0.25877 0.50963 0.96205 0.0
C1781 C 0.28073 0.48696 0.93194 0.0
C1782 C 0.26125 0.47635 0.92279 0.0
C1783 C 0.24035 0.48308 0.93269 0.0
C1784 C 0.23911 0.49957 0.95225 0.0
C1785 C 0.26315 0.458 0.90324 0.0
C1786 C 0.25272 0.46038 0.87893 0.0
C1787 C 0.27701 0.43921 0.9077 0.0
C1788 C 0.28719 0.43491 0.93359 0.0
C1789 C 0.27378 0.43439 0.95611 0.0
C1790 C 0.28346 0.43063 0.98047 0.0
C1791 C 0.30653 0.42719 0.98257 0.0
C1792 C 0.31996 0.42745 0.96029 0.0
C1793 C 0.31037 0.43125 0.93588 0.0
H1794 H 0.31399 0.42427 1.00145 0.0
H1795 H 0.21831 0.45968 0.76561 0.0
H1796 H 0.71023 0.28626 0.82379 0.0
H1797 H 0.68068 0.28429 0.85663 0.0
H1798 H 0.65982 0.22001 0.82613 0.0
H1799 H 0.68899 0.22236 0.7927 0.0
H1800 H 0.62453 0.24285 0.83709 0.0
H1801 H 0.69084 0.22589 0.88448 0.0
H1802 H 0.72966 0.23097 0.89996 0.0
H1803 H 0.7117 0.29347 0.9358 0.0
H1804 H 0.67281 0.28889 0.92027 0.0
H1805 H 0.55583 0.22545 0.95205 0.0
H1806 H 0.58577 0.22008 0.91965 0.0
H1807 H 0.60532 0.28927 0.92858 0.0
H1808 H 0.57555 0.29484 0.96035 0.0
H1809 H 0.64166 0.2587 0.9299 0.0
H1810 H 0.57573 0.27582 0.87829 0.0
H1811 H 0.53701 0.26935 0.86314 0.0
H1812 H 0.55503 0.20368 0.83617 0.0
H1813 H 0.59381 0.20966 0.85152 0.0
C1814 C 0.69939 0.27169 0.82419 0.0
C1815 C 0.70198 0.25443 0.80577 0.0
C1816 C 0.68254 0.2705 0.84303 0.0
C1817 C 0.66826 0.25175 0.8443 0.0
C1818 C 0.67063 0.23462 0.82566 0.0
C1819 C 0.68728 0.23598 0.80653 0.0
C1820 C 0.65069 0.25026 0.86485 0.0
C1821 C 0.62841 0.24589 0.85744 0.0
C1822 C 0.65558 0.25434 0.89148 0.0
C1823 C 0.67893 0.25711 0.90105 0.0
C1824 C 0.69519 0.24078 0.89554 0.0
C1825 C 0.7172 0.24356 0.90434 0.0
C1826 C 0.72314 0.26254 0.91883 0.0
C1827 C 0.70706 0.27876 0.92459 0.0
C1828 C 0.68502 0.27607 0.91582 0.0
C1829 C 0.56654 0.23946 0.94707 0.0
C1830 C 0.56322 0.26059 0.95865 0.0
C1831 C 0.58359 0.23639 0.92858 0.0
C1832 C 0.59773 0.25431 0.92174 0.0
C1833 C 0.59463 0.27523 0.93362 0.0
C1834 C 0.57749 0.27839 0.95167 0.0
C1835 C 0.61566 0.2517 0.90196 0.0
C1836 C 0.63797 0.25531 0.90957 0.0
C1837 C 0.61084 0.24664 0.87563 0.0
C1838 C 0.58757 0.24308 0.86635 0.0
C1839 C 0.57138 0.25992 0.86936 0.0
C1840 C 0.54944 0.25636 0.86069 0.0
C1841 C 0.54354 0.23608 0.84878 0.0
C1842 C 0.5596 0.21935 0.84545 0.0
C1843 C 0.58156 0.22282 0.85412 0.0
H1844 H 0.52655 0.23336 0.84207 0.0
H1845 H 0.74019 0.26465 0.92564 0.0
H1846 H 0.77507 0.70899 0.82565 0.0
H1847 H 0.77676 0.67918 0.85807 0.0
H1848 H 0.71125 0.65606 0.83451 0.0
H1849 H 0.7095 0.68591 0.80192 0.0
H1850 H 0.71784 0.65874 0.88997 0.0
H1851 H 0.75354 0.62785 0.81376 0.0
H1852 H 0.7806 0.62775 0.7775 0.0
H1853 H 0.83518 0.63112 0.83188 0.0
H1854 H 0.80841 0.63158 0.86848 0.0
H1855 H 0.7224 0.55572 0.9589 0.0
H1856 H 0.71769 0.58442 0.92555 0.0
H1857 H 0.78791 0.60129 0.93151 0.0
H1858 H 0.79286 0.57207 0.96397 0.0
H1859 H 0.77743 0.60132 0.88352 0.0
H1860 H 0.74384 0.63392 0.95945 0.0
H1861 H 0.71816 0.63618 0.99697 0.0
H1862 H 0.66155 0.63212 0.94553 0.0
H1863 H 0.6869 0.62954 0.90771 0.0
C1864 C 0.76095 0.69769 0.82751 0.0
C1865 C 0.74217 0.69976 0.81116 0.0
C1866 C 0.76199 0.68059 0.84594 0.0
C1867 C 0.7442 0.6653 0.84857 0.0
C1868 C 0.72518 0.66763 0.83274 0.0
C1869 C 0.72427 0.68457 0.81402 0.0
C1870 C 0.74575 0.64667 0.86752 0.0
C1871 C 0.73064 0.64596 0.88841 0.0
C1872 C 0.76284 0.63039 0.86583 0.0
C1873 C 0.77896 0.62995 0.84385 0.0
C1874 C 0.7713 0.62875 0.81798 0.0
C1875 C 0.78659 0.6286 0.79737 0.0
C1876 C 0.80959 0.62949 0.80238 0.0
C1877 C 0.81736 0.63046 0.82803 0.0
C1878 C 0.80214 0.63065 0.84871 0.0
C1879 C 0.73683 0.56554 0.95306 0.0
C1880 C 0.758 0.5616 0.96413 0.0
C1881 C 0.7341 0.58207 0.93408 0.0
C1882 C 0.75236 0.59538 0.9262 0.0
C1883 C 0.77353 0.59131 0.93715 0.0
C1884 C 0.77634 0.57458 0.95578 0.0
C1885 C 0.74963 0.61337 0.90638 0.0
C1886 C 0.76453 0.61399 0.8852 0.0
C1887 C 0.73255 0.62977 0.90808 0.0
C1888 C 0.71727 0.63127 0.93078 0.0
C1889 C 0.72591 0.63332 0.95616 0.0
C1890 C 0.71142 0.6347 0.97748 0.0
C1891 C 0.68824 0.63423 0.97364 0.0
C1892 C 0.67951 0.63244 0.94847 0.0
C1893 C 0.69393 0.63103 0.92709 0.0
H1894 H 0.67704 0.6353 0.99017 0.0
H1895 H 0.82141 0.62937 0.78639 0.0
loop_
_geom_bond_atom_site_label_1
_geom_bond_atom_site_label_2
_geom_bond_distance
_geom_bond_site_symmetry_2
_ccdc_geom_bond_type
Cu0 N1 1.999 . S
Cu0 O6 1.974 . S
Cu0 N11 1.985 . S
Cu0 O20 1.959 . S
N1 Cu0 1.999 . S
N1 C3 1.263 . S
N1 C5 1.389 . S
N2 C3 1.358 . S
N2 C4 1.400 . S
C3 N1 1.263 . S
C3 N2 1.358 . S
C3 H9 0.930 . S
C4 N2 1.400 . S
C4 C5 1.351 . S
C4 H21 0.930 . S
C5 N1 1.389 . S
C5 C4 1.351 . S
C5 H10 0.930 . S
O6 Cu0 1.974 . S
O6 C16 1.282 . S
C7 O8 1.261 . S
C7 O20 1.251 . S
O8 C7 1.261 . S
H9 C3 0.930 . S
H10 C5 0.930 . S
N11 Cu0 1.985 . S
N11 C13 1.335 . S
N11 C14 1.390 . S
N12 C13 1.345 . S
N12 C15 1.336 . S
C13 N11 1.335 . S
C13 N12 1.345 . S
C13 H18 0.930 . S
C14 N11 1.390 . S
C14 C15 1.346 . S
C14 H19 0.930 . S
C15 N12 1.336 . S
C15 C14 1.346 . S
C15 H22 0.929 . S
C16 O6 1.282 . S
C16 O17 1.216 . S
O17 C16 1.216 . S
H18 C13 0.930 . S
H19 C14 0.930 . S
O20 Cu0 1.959 . S
O20 C7 1.251 . S
H21 C4 0.930 . S
H22 C15 0.929 . S
Cu23 N24 1.999 . S
Cu23 O29 1.974 . S
Cu23 N34 1.985 . S
Cu23 O43 1.959 . S
N24 Cu23 1.999 . S
N24 C26 1.263 . S
N24 C28 1.389 . S
N25 C26 1.358 . S
N25 C27 1.400 . S
C26 N24 1.263 . S
C26 N25 1.358 . S
C26 H32 0.930 . S
C27 N25 1.400 . S
C27 C28 1.351 . S
C27 H44 0.930 . S
C28 N24 1.389 . S
C28 C27 1.351 . S
C28 H33 0.930 . S
O29 Cu23 1.974 . S
O29 C39 1.282 . S
C30 O31 1.261 . S
C30 O43 1.251 . S
O31 C30 1.261 . S
H32 C26 0.930 . S
H33 C28 0.930 . S
N34 Cu23 1.985 . S
N34 C36 1.335 . S
N34 C37 1.390 . S
N35 C36 1.345 . S
N35 C38 1.336 . S
C36 N34 1.335 . S
C36 N35 1.345 . S
C36 H41 0.930 . S
C37 N34 1.390 . S
C37 C38 1.346 . S
C37 H42 0.930 . S
C38 N35 1.336 . S
C38 C37 1.346 . S
C38 H45 0.929 . S
C39 O29 1.282 . S
C39 O40 1.216 . S
O40 C39 1.216 . S
H41 C36 0.930 . S
H42 C37 0.930 . S
O43 Cu23 1.959 . S
O43 C30 1.251 . S
H44 C27 0.930 . S
H45 C38 0.929 . S
Cu46 N47 1.999 . S
Cu46 O52 1.974 . S
Cu46 N57 1.985 . S
Cu46 O66 1.959 . S
N47 Cu46 1.999 . S
N47 C49 1.263 . S
N47 C51 1.389 . S
N48 C49 1.358 . S
N48 C50 1.400 . S
C49 N47 1.263 . S
C49 N48 1.358 . S
C49 H55 0.930 . S
C50 N48 1.400 . S
C50 C51 1.351 . S
C50 H67 0.930 . S
C51 N47 1.389 . S
C51 C50 1.351 . S
C51 H56 0.930 . S
O52 Cu46 1.974 . S
O52 C62 1.282 . S
C53 O54 1.261 . S
C53 O66 1.251 . S
O54 C53 1.261 . S
H55 C49 0.930 . S
H56 C51 0.930 . S
N57 Cu46 1.985 . S
N57 C59 1.335 . S
N57 C60 1.390 . S
N58 C59 1.345 . S
N58 C61 1.336 . S
C59 N57 1.335 . S
C59 N58 1.345 . S
C59 H64 0.930 . S
C60 N57 1.390 . S
C60 C61 1.346 . S
C60 H65 0.930 . S
C61 N58 1.336 . S
C61 C60 1.346 . S
C61 H68 0.929 . S
C62 O52 1.282 . S
C62 O63 1.216 . S
O63 C62 1.216 . S
H64 C59 0.930 . S
H65 C60 0.930 . S
O66 Cu46 1.959 . S
O66 C53 1.251 . S
H67 C50 0.930 . S
H68 C61 0.929 . S
Cu69 N70 1.999 . S
Cu69 O75 1.974 . S
Cu69 N80 1.985 . S
Cu69 O89 1.959 . S
N70 Cu69 1.999 . S
N70 C72 1.263 . S
N70 C74 1.389 . S
N71 C72 1.358 . S
N71 C73 1.400 . S
C72 N70 1.263 . S
C72 N71 1.358 . S
C72 H78 0.930 . S
C73 N71 1.400 . S
C73 C74 1.351 . S
C73 H90 0.930 . S
C74 N70 1.389 . S
C74 C73 1.351 . S
C74 H79 0.930 . S
O75 Cu69 1.974 . S
O75 C85 1.282 . S
C76 O77 1.261 . S
C76 O89 1.251 . S
O77 C76 1.261 . S
H78 C72 0.930 . S
H79 C74 0.930 . S
N80 Cu69 1.985 . S
N80 C82 1.335 . S
N80 C83 1.390 . S
N81 C82 1.345 . S
N81 C84 1.336 . S
C82 N80 1.335 . S
C82 N81 1.345 . S
C82 H87 0.930 . S
C83 N80 1.390 . S
C83 C84 1.346 . S
C83 H88 0.930 . S
C84 N81 1.336 . S
C84 C83 1.346 . S
C84 H91 0.929 . S
C85 O75 1.282 . S
C85 O86 1.216 . S
O86 C85 1.216 . S
H87 C82 0.930 . S
H88 C83 0.930 . S
O89 Cu69 1.959 . S
O89 C76 1.251 . S
H90 C73 0.930 . S
H91 C84 0.929 . S
Cu92 N93 1.999 . S
Cu92 O98 1.974 . S
Cu92 N103 1.985 . S
Cu92 O112 1.959 . S
N93 Cu92 1.999 . S
N93 C95 1.263 . S
N93 C97 1.389 . S
N94 C95 1.358 . S
N94 C96 1.400 . S
C95 N93 1.263 . S
C95 N94 1.358 . S
C95 H101 0.930 . S
C96 N94 1.400 . S
C96 C97 1.351 . S
C96 H113 0.930 . S
C97 N93 1.389 . S
C97 C96 1.351 . S
C97 H102 0.930 . S
O98 Cu92 1.974 . S
O98 C108 1.282 . S
C99 O100 1.261 . S
C99 O112 1.251 . S
O100 C99 1.261 . S
H101 C95 0.930 . S
H102 C97 0.930 . S
N103 Cu92 1.985 . S
N103 C105 1.335 . S
N103 C106 1.390 . S
N104 C105 1.345 . S
N104 C107 1.336 . S
C105 N103 1.335 . S
C105 N104 1.345 . S
C105 H110 0.930 . S
C106 N103 1.390 . S
C106 C107 1.346 . S
C106 H111 0.930 . S
C107 N104 1.336 . S
C107 C106 1.346 . S
C107 H114 0.929 . S
C108 O98 1.282 . S
C108 O109 1.216 . S
O109 C108 1.216 . S
H110 C105 0.930 . S
H111 C106 0.930 . S
O112 Cu92 1.959 . S
O112 C99 1.251 . S
H113 C96 0.930 . S
H114 C107 0.929 . S
Cu115 N116 1.999 . S
Cu115 O121 1.974 . S
Cu115 N126 1.985 . S
Cu115 O135 1.959 . S
N116 Cu115 1.999 . S
N116 C118 1.263 . S
N116 C120 1.389 . S
N117 C118 1.358 . S
N117 C119 1.400 . S
C118 N116 1.263 . S
C118 N117 1.358 . S
C118 H124 0.930 . S
C119 N117 1.400 . S
C119 C120 1.351 . S
C119 H136 0.930 . S
C120 N116 1.389 . S
C120 C119 1.351 . S
C120 H125 0.930 . S
O121 Cu115 1.974 . S
O121 C131 1.282 . S
C122 O123 1.261 . S
C122 O135 1.251 . S
O123 C122 1.261 . S
H124 C118 0.930 . S
H125 C120 0.930 . S
N126 Cu115 1.985 . S
N126 C128 1.335 . S
N126 C129 1.390 . S
N127 C128 1.345 . S
N127 C130 1.336 . S
C128 N126 1.335 . S
C128 N127 1.345 . S
C128 H133 0.930 . S
C129 N126 1.390 . S
C129 C130 1.346 . S
C129 H134 0.930 . S
C130 N127 1.336 . S
C130 C129 1.346 . S
C130 H137 0.929 . S
C131 O121 1.282 . S
C131 O132 1.216 . S
O132 C131 1.216 . S
H133 C128 0.930 . S
H134 C129 0.930 . S
O135 Cu115 1.959 . S
O135 C122 1.251 . S
H136 C119 0.930 . S
H137 C130 0.929 . S
Cu138 N139 1.999 . S
Cu138 O144 1.974 . S
Cu138 N149 1.985 . S
Cu138 O158 1.959 . S
N139 Cu138 1.999 . S
N139 C141 1.263 . S
N139 C143 1.389 . S
N140 C141 1.358 . S
N140 C142 1.400 . S
C141 N139 1.263 . S
C141 N140 1.358 . S
C141 H147 0.930 . S
C142 N140 1.400 . S
C142 C143 1.351 . S
C142 H159 0.930 . S
C143 N139 1.389 . S
C143 C142 1.351 . S
C143 H148 0.930 . S
O144 Cu138 1.974 . S
O144 C154 1.282 . S
C145 O146 1.261 . S
C145 O158 1.251 . S
O146 C145 1.261 . S
H147 C141 0.930 . S
H148 C143 0.930 . S
N149 Cu138 1.985 . S
N149 C151 1.335 . S
N149 C152 1.390 . S
N150 C151 1.345 . S
N150 C153 1.336 . S
C151 N149 1.335 . S
C151 N150 1.345 . S
C151 H156 0.930 . S
C152 N149 1.390 . S
C152 C153 1.346 . S
C152 H157 0.930 . S
C153 N150 1.336 . S
C153 C152 1.346 . S
C153 H160 0.929 . S
C154 O144 1.282 . S
C154 O155 1.216 . S
O155 C154 1.216 . S
H156 C151 0.930 . S
H157 C152 0.930 . S
O158 Cu138 1.959 . S
O158 C145 1.251 . S
H159 C142 0.930 . S
H160 C153 0.929 . S
Cu161 N162 1.999 . S
Cu161 O167 1.974 . S
Cu161 N172 1.985 . S
Cu161 O181 1.959 . S
N162 Cu161 1.999 . S
N162 C164 1.263 . S
N162 C166 1.389 . S
N163 C164 1.358 . S
N163 C165 1.400 . S
C164 N162 1.263 . S
C164 N163 1.358 . S
C164 H170 0.930 . S
C165 N163 1.400 . S
C165 C166 1.351 . S
C165 H182 0.930 . S
C166 N162 1.389 . S
C166 C165 1.351 . S
C166 H171 0.930 . S
O167 Cu161 1.974 . S
O167 C177 1.282 . S
C168 O169 1.261 . S
C168 O181 1.251 . S
O169 C168 1.261 . S
H170 C164 0.930 . S
H171 C166 0.930 . S
N172 Cu161 1.985 . S
N172 C174 1.335 . S
N172 C175 1.390 . S
N173 C174 1.345 . S
N173 C176 1.336 . S
C174 N172 1.335 . S
C174 N173 1.345 . S
C174 H179 0.930 . S
C175 N172 1.390 . S
C175 C176 1.346 . S
C175 H180 0.930 . S
C176 N173 1.336 . S
C176 C175 1.346 . S
C176 H183 0.929 . S
C177 O167 1.282 . S
C177 O178 1.216 . S
O178 C177 1.216 . S
H179 C174 0.930 . S
H180 C175 0.930 . S
O181 Cu161 1.959 . S
O181 C168 1.251 . S
H182 C165 0.930 . S
H183 C176 0.929 . S
C184 O186 1.247 . S
C184 O188 1.258 . S
C185 O192 1.247 . S
C185 O193 1.258 . S
O186 C184 1.247 . S
O186 Zn187 2.028 . S
Zn187 O186 2.028 . S
Zn187 O191 2.035 . S
Zn187 O193 2.035 . S
Zn187 O194 2.028 . S
O188 C184 1.258 . S
O188 Zn189 2.035 . S
Zn189 O188 2.035 . S
Zn189 O190 2.028 . S
Zn189 O192 2.028 . S
Zn189 O195 2.035 . S
O190 Zn189 2.028 . S
O190 C196 1.247 . S
O191 Zn187 2.035 . S
O191 C196 1.258 . S
O192 C185 1.247 . S
O192 Zn189 2.028 . S
O193 C185 1.258 . S
O193 Zn187 2.035 . S
O194 Zn187 2.028 . S
O194 C197 1.247 . S
O195 Zn189 2.035 . S
O195 C197 1.258 . S
C196 O190 1.247 . S
C196 O191 1.258 . S
C197 O194 1.247 . S
C197 O195 1.258 . S
C198 O200 1.247 . S
C198 O202 1.258 . S
C199 O206 1.247 . S
C199 O207 1.258 . S
O200 C198 1.247 . S
O200 Zn201 2.028 . S
Zn201 O200 2.028 . S
Zn201 O205 2.035 . S
Zn201 O207 2.035 . S
Zn201 O208 2.028 . S
O202 C198 1.258 . S
O202 Zn203 2.035 . S
Zn203 O202 2.035 . S
Zn203 O204 2.028 . S
Zn203 O206 2.028 . S
Zn203 O209 2.035 . S
O204 Zn203 2.028 . S
O204 C210 1.247 . S
O205 Zn201 2.035 . S
O205 C210 1.258 . S
O206 C199 1.247 . S
O206 Zn203 2.028 . S
O207 C199 1.258 . S
O207 Zn201 2.035 . S
O208 Zn201 2.028 . S
O208 C211 1.247 . S
O209 Zn203 2.035 . S
O209 C211 1.258 . S
C210 O204 1.247 . S
C210 O205 1.258 . S
C211 O208 1.247 . S
C211 O209 1.258 . S
C212 O214 1.247 . S
C212 O216 1.258 . S
C213 O220 1.247 . S
C213 O221 1.258 . S
O214 C212 1.247 . S
O214 Zn215 2.028 1_655 S
Zn215 O214 2.028 1_455 S
Zn215 O219 2.035 . S
Zn215 O221 2.035 . S
Zn215 O222 2.028 1_455 S
O216 C212 1.258 . S
O216 Zn217 2.035 1_655 S
Zn217 O216 2.035 1_455 S
Zn217 O218 2.028 . S
Zn217 O220 2.028 . S
Zn217 O223 2.035 1_455 S
O218 Zn217 2.028 . S
O218 C224 1.247 . S
O219 Zn215 2.035 . S
O219 C224 1.258 . S
O220 C213 1.247 . S
O220 Zn217 2.028 . S
O221 C213 1.258 . S
O221 Zn215 2.035 . S
O222 Zn215 2.028 1_655 S
O222 C225 1.247 . S
O223 Zn217 2.035 1_655 S
O223 C225 1.258 . S
C224 O218 1.247 . S
C224 O219 1.258 . S
C225 O222 1.247 . S
C225 O223 1.258 . S
C226 O228 1.247 . S
C226 O230 1.258 . S
C227 O234 1.247 . S
C227 O235 1.258 . S
O228 C226 1.247 . S
O228 Zn229 2.028 . S
Zn229 O228 2.028 . S
Zn229 O233 2.035 1_545 S
Zn229 O235 2.035 1_545 S
Zn229 O236 2.028 . S
O230 C226 1.258 . S
O230 Zn231 2.035 . S
Zn231 O230 2.035 . S
Zn231 O232 2.028 1_545 S
Zn231 O234 2.028 1_545 S
Zn231 O237 2.035 . S
O232 Zn231 2.028 1_565 S
O232 C238 1.247 . S
O233 Zn229 2.035 1_565 S
O233 C238 1.258 . S
O234 C227 1.247 . S
O234 Zn231 2.028 1_565 S
O235 C227 1.258 . S
O235 Zn229 2.035 1_565 S
O236 Zn229 2.028 . S
O236 C239 1.247 . S
O237 Zn231 2.035 . S
O237 C239 1.258 . S
C238 O232 1.247 . S
C238 O233 1.258 . S
C239 O236 1.247 . S
C239 O237 1.258 . S
C240 O242 1.247 . S
C240 O244 1.258 . S
C241 O248 1.247 . S
C241 O249 1.258 . S
O242 C240 1.247 . S
O242 Zn243 2.031 . S
Zn243 O242 2.031 . S
Zn243 O247 2.038 . S
Zn243 O249 2.032 1_554 S
Zn243 O250 2.025 1_554 S
O244 C240 1.258 . S
O244 Zn245 2.052 . S
Zn245 O244 2.052 . S
Zn245 O246 2.045 . S
Zn245 O248 2.011 1_554 S
Zn245 O251 2.018 1_554 S
O246 Zn245 2.045 . S
O246 C252 1.247 . S
O247 Zn243 2.038 . S
O247 C252 1.258 . S
O248 C241 1.247 . S
O248 Zn245 2.011 1_556 S
O249 C241 1.258 . S
O249 Zn243 2.032 1_556 S
O250 Zn243 2.025 1_556 S
O250 C253 1.247 . S
O251 Zn245 2.018 1_556 S
O251 C253 1.258 . S
C252 O246 1.247 . S
C252 O247 1.258 . S
C253 O250 1.247 . S
C253 O251 1.258 . S
C254 O256 1.247 . S
C254 O258 1.258 . S
C255 O262 1.247 . S
C255 O263 1.258 . S
O256 C254 1.247 . S
O256 Zn257 2.028 . S
Zn257 O256 2.028 . S
Zn257 O261 2.035 . S
Zn257 O263 2.035 1_554 S
Zn257 O264 2.028 1_554 S
O258 C254 1.258 . S
O258 Zn259 2.035 . S
Zn259 O258 2.035 . S
Zn259 O260 2.028 . S
Zn259 O262 2.028 1_554 S
Zn259 O265 2.035 1_554 S
O260 Zn259 2.028 . S
O260 C266 1.247 . S
O261 Zn257 2.035 . S
O261 C266 1.258 . S
O262 C255 1.247 . S
O262 Zn259 2.028 1_556 S
O263 C255 1.258 . S
O263 Zn257 2.035 1_556 S
O264 Zn257 2.028 1_556 S
O264 C267 1.247 . S
O265 Zn259 2.035 1_556 S
O265 C267 1.258 . S
C266 O260 1.247 . S
C266 O261 1.258 . S
C267 O264 1.247 . S
C267 O265 1.258 . S
C268 O270 1.247 . S
C268 O272 1.258 . S
C269 O276 1.247 . S
C269 O277 1.258 . S
O270 C268 1.247 . S
O270 Zn271 2.028 1_556 S
Zn271 O270 2.028 1_554 S
Zn271 O275 2.035 1_554 S
Zn271 O277 2.035 . S
Zn271 O278 2.028 . S
O272 C268 1.258 . S
O272 Zn273 2.035 1_556 S
Zn273 O272 2.035 1_554 S
Zn273 O274 2.028 1_554 S
Zn273 O276 2.028 . S
Zn273 O279 2.035 . S
O274 Zn273 2.028 1_556 S
O274 C280 1.247 . S
O275 Zn271 2.035 1_556 S
O275 C280 1.258 . S
O276 C269 1.247 . S
O276 Zn273 2.028 . S
O277 C269 1.258 . S
O277 Zn271 2.035 . S
O278 Zn271 2.028 . S
O278 C281 1.247 . S
O279 Zn273 2.035 . S
O279 C281 1.258 . S
C280 O274 1.247 . S
C280 O275 1.258 . S
C281 O278 1.247 . S
C281 O279 1.258 . S
C282 O284 1.247 . S
C282 O286 1.258 . S
C283 O290 1.247 . S
C283 O291 1.258 . S
O284 C282 1.247 . S
O284 Zn285 2.028 . S
Zn285 O284 2.028 . S
Zn285 O289 2.035 . S
Zn285 O291 2.035 1_554 S
Zn285 O292 2.028 1_554 S
O286 C282 1.258 . S
O286 Zn287 2.035 . S
Zn287 O286 2.035 . S
Zn287 O288 2.028 . S
Zn287 O290 2.028 1_554 S
Zn287 O293 2.035 1_554 S
O288 Zn287 2.028 . S
O288 C294 1.247 . S
O289 Zn285 2.035 . S
O289 C294 1.258 . S
O290 C283 1.247 . S
O290 Zn287 2.028 1_556 S
O291 C283 1.258 . S
O291 Zn285 2.035 1_556 S
O292 Zn285 2.028 1_556 S
O292 C295 1.247 . S
O293 Zn287 2.035 1_556 S
O293 C295 1.258 . S
C294 O288 1.247 . S
C294 O289 1.258 . S
C295 O292 1.247 . S
C295 O293 1.258 . S
H296 C314 0.951 . S
H297 C316 0.951 . S
H298 C318 0.950 . S
H299 C319 0.950 . S
H300 C321 0.950 . S
H301 C324 0.950 . S
H302 C325 0.950 . S
H303 C327 0.950 . S
H304 C328 0.950 . S
H305 C329 0.951 . S
H306 C331 0.951 . S
H307 C333 0.950 . S
H308 C334 0.950 . S
H309 C336 0.950 . S
H310 C339 0.950 . S
H311 C340 0.950 . S
H312 C342 0.950 . S
H313 C343 0.950 . S
C314 H296 0.951 . S
C314 C315 1.366 . S
C314 C316 1.388 . S
C315 C314 1.366 . S
C315 C319 1.385 . S
C316 H297 0.951 . S
C316 C314 1.388 . S
C316 C317 1.366 . S
C317 C316 1.366 . S
C317 C318 1.414 . S
C317 C320 1.499 . S
C318 H298 0.950 . S
C318 C317 1.414 . S
C318 C319 1.374 . S
C319 H299 0.950 . S
C319 C315 1.385 . S
C319 C318 1.374 . S
C320 C317 1.499 . S
C320 C321 1.373 . S
C320 C322 1.389 . S
C321 H300 0.950 . S
C321 C320 1.373 . S
C321 C337 1.377 . S
C322 C320 1.389 . S
C322 C323 1.524 . S
C322 C336 1.377 . S
C323 C322 1.524 . S
C323 C324 1.397 . S
C323 C328 1.363 . S
C324 H301 0.950 . S
C324 C323 1.397 . S
C324 C325 1.334 . S
C325 H302 0.950 . S
C325 C324 1.334 . S
C325 C326 1.287 . S
C326 C325 1.287 . S
C326 C327 1.524 . S
C326 H345 0.913 . S
C327 H303 0.950 . S
C327 C326 1.524 . S
C327 C328 1.415 . S
C328 H304 0.950 . S
C328 C323 1.363 . S
C328 C327 1.415 . S
C329 H305 0.951 . S
C329 C330 1.366 . S
C329 C331 1.388 . S
C330 C329 1.366 . S
C330 C334 1.385 . S
C331 H306 0.951 . S
C331 C329 1.388 . S
C331 C332 1.366 . S
C332 C331 1.366 . S
C332 C333 1.414 . S
C332 C335 1.499 . S
C333 H307 0.950 . S
C333 C332 1.414 . S
C333 C334 1.374 . S
C334 H308 0.950 . S
C334 C330 1.385 . S
C334 C333 1.374 . S
C335 C332 1.499 . S
C335 C336 1.373 . S
C335 C337 1.389 . S
C336 H309 0.950 . S
C336 C322 1.377 . S
C336 C335 1.373 . S
C337 C321 1.377 . S
C337 C335 1.389 . S
C337 C338 1.524 . S
C338 C337 1.524 . S
C338 C339 1.397 . S
C338 C343 1.363 . S
C339 H310 0.950 . S
C339 C338 1.397 . S
C339 C340 1.334 . S
C340 H311 0.950 . S
C340 C339 1.334 . S
C340 C341 1.287 . S
C341 C340 1.287 . S
C341 C342 1.524 . S
C341 H344 0.999 . S
C342 H312 0.950 . S
C342 C341 1.524 . S
C342 C343 1.415 . S
C343 H313 0.950 . S
C343 C338 1.363 . S
C343 C342 1.415 . S
H344 C341 0.999 . S
H345 C326 0.913 . S
H346 C364 0.951 . S
H347 C366 0.951 . S
H348 C368 0.950 . S
H349 C369 0.950 . S
H350 C371 0.950 . S
H351 C374 0.950 . S
H352 C375 0.950 . S
H353 C377 0.950 . S
H354 C378 0.950 . S
H355 C379 0.951 . S
H356 C381 0.951 . S
H357 C383 0.950 . S
H358 C384 0.950 . S
H359 C386 0.950 . S
H360 C389 0.950 . S
H361 C390 0.950 . S
H362 C392 0.950 . S
H363 C393 0.950 . S
C364 H346 0.951 . S
C364 C365 1.366 . S
C364 C366 1.388 . S
C365 C364 1.366 . S
C365 C369 1.385 . S
C366 H347 0.951 . S
C366 C364 1.388 . S
C366 C367 1.366 . S
C367 C366 1.366 . S
C367 C368 1.414 . S
C367 C370 1.499 . S
C368 H348 0.950 . S
C368 C367 1.414 . S
C368 C369 1.374 . S
C369 H349 0.950 . S
C369 C365 1.385 . S
C369 C368 1.374 . S
C370 C367 1.499 . S
C370 C371 1.373 . S
C370 C372 1.389 . S
C371 H350 0.950 . S
C371 C370 1.373 . S
C371 C387 1.377 . S
C372 C370 1.389 . S
C372 C373 1.524 . S
C372 C386 1.377 . S
C373 C372 1.524 . S
C373 C374 1.397 . S
C373 C378 1.363 . S
C374 H351 0.950 . S
C374 C373 1.397 . S
C374 C375 1.334 . S
C375 H352 0.950 . S
C375 C374 1.334 . S
C375 C376 1.287 . S
C376 C375 1.287 . S
C376 C377 1.524 . S
C376 H395 0.913 . S
C377 H353 0.950 . S
C377 C376 1.524 . S
C377 C378 1.415 . S
C378 H354 0.950 . S
C378 C373 1.363 . S
C378 C377 1.415 . S
C379 H355 0.951 . S
C379 C380 1.366 . S
C379 C381 1.388 . S
C380 C379 1.366 . S
C380 C384 1.385 . S
C381 H356 0.951 . S
C381 C379 1.388 . S
C381 C382 1.366 . S
C382 C381 1.366 . S
C382 C383 1.414 . S
C382 C385 1.499 . S
C383 H357 0.950 . S
C383 C382 1.414 . S
C383 C384 1.374 . S
C384 H358 0.950 . S
C384 C380 1.385 . S
C384 C383 1.374 . S
C385 C382 1.499 . S
C385 C386 1.373 . S
C385 C387 1.389 . S
C386 H359 0.950 . S
C386 C372 1.377 . S
C386 C385 1.373 . S
C387 C371 1.377 . S
C387 C385 1.389 . S
C387 C388 1.524 . S
C388 C387 1.524 . S
C388 C389 1.397 . S
C388 C393 1.363 . S
C389 H360 0.950 . S
C389 C388 1.397 . S
C389 C390 1.334 . S
C390 H361 0.950 . S
C390 C389 1.334 . S
C390 C391 1.287 . S
C391 C390 1.287 . S
C391 C392 1.524 . S
C391 H394 0.999 . S
C392 H362 0.950 . S
C392 C391 1.524 . S
C392 C393 1.415 . S
C393 H363 0.950 . S
C393 C388 1.363 . S
C393 C392 1.415 . S
H394 C391 0.999 . S
H395 C376 0.913 . S
H396 C414 0.951 . S
H397 C416 0.951 . S
H398 C418 0.950 . S
H399 C419 0.950 . S
H400 C421 0.950 . S
H401 C424 0.950 . S
H402 C425 0.950 . S
H403 C427 0.950 . S
H404 C428 0.950 . S
H405 C429 0.951 . S
H406 C431 0.951 . S
H407 C433 0.950 . S
H408 C434 0.950 . S
H409 C436 0.950 . S
H410 C439 0.950 . S
H411 C440 0.950 . S
H412 C442 0.950 . S
H413 C443 0.950 . S
C414 H396 0.951 . S
C414 C415 1.366 . S
C414 C416 1.388 . S
C415 C414 1.366 . S
C415 C419 1.385 . S
C416 H397 0.951 . S
C416 C414 1.388 . S
C416 C417 1.366 . S
C417 C416 1.366 . S
C417 C418 1.414 . S
C417 C420 1.499 . S
C418 H398 0.950 . S
C418 C417 1.414 . S
C418 C419 1.374 . S
C419 H399 0.950 . S
C419 C415 1.385 . S
C419 C418 1.374 . S
C420 C417 1.499 . S
C420 C421 1.373 . S
C420 C422 1.389 . S
C421 H400 0.950 . S
C421 C420 1.373 . S
C421 C437 1.377 . S
C422 C420 1.389 . S
C422 C423 1.524 . S
C422 C436 1.377 . S
C423 C422 1.524 . S
C423 C424 1.397 . S
C423 C428 1.363 . S
C424 H401 0.950 . S
C424 C423 1.397 . S
C424 C425 1.334 . S
C425 H402 0.950 . S
C425 C424 1.334 . S
C425 C426 1.287 . S
C426 C425 1.287 . S
C426 C427 1.524 . S
C426 H445 0.913 . S
C427 H403 0.950 . S
C427 C426 1.524 . S
C427 C428 1.415 . S
C428 H404 0.950 . S
C428 C423 1.363 . S
C428 C427 1.415 . S
C429 H405 0.951 . S
C429 C430 1.366 . S
C429 C431 1.388 . S
C430 C429 1.366 . S
C430 C434 1.385 . S
C431 H406 0.951 . S
C431 C429 1.388 . S
C431 C432 1.366 . S
C432 C431 1.366 . S
C432 C433 1.414 . S
C432 C435 1.499 . S
C433 H407 0.950 . S
C433 C432 1.414 . S
C433 C434 1.374 . S
C434 H408 0.950 . S
C434 C430 1.385 . S
C434 C433 1.374 . S
C435 C432 1.499 . S
C435 C436 1.373 . S
C435 C437 1.389 . S
C436 H409 0.950 . S
C436 C422 1.377 . S
C436 C435 1.373 . S
C437 C421 1.377 . S
C437 C435 1.389 . S
C437 C438 1.524 . S
C438 C437 1.524 . S
C438 C439 1.397 . S
C438 C443 1.363 . S
C439 H410 0.950 . S
C439 C438 1.397 . S
C439 C440 1.334 . S
C440 H411 0.950 . S
C440 C439 1.334 . S
C440 C441 1.287 . S
C441 C440 1.287 . S
C441 C442 1.524 . S
C441 H444 0.999 . S
C442 H412 0.950 . S
C442 C441 1.524 . S
C442 C443 1.415 . S
C443 H413 0.950 . S
C443 C438 1.363 . S
C443 C442 1.415 . S
H444 C441 0.999 . S
H445 C426 0.913 . S
H446 C464 0.951 . S
H447 C466 0.951 . S
H448 C468 0.950 . S
H449 C469 0.950 . S
H450 C471 0.950 . S
H451 C474 0.950 . S
H452 C475 0.950 . S
H453 C477 0.950 . S
H454 C478 0.950 . S
H455 C479 0.951 . S
H456 C481 0.951 . S
H457 C483 0.950 . S
H458 C484 0.950 . S
H459 C486 0.950 . S
H460 C489 0.950 . S
H461 C490 0.950 . S
H462 C492 0.950 . S
H463 C493 0.950 . S
C464 H446 0.951 . S
C464 C465 1.366 . S
C464 C466 1.388 . S
C465 C464 1.366 . S
C465 C469 1.385 . S
C466 H447 0.951 . S
C466 C464 1.388 . S
C466 C467 1.366 . S
C467 C466 1.366 . S
C467 C468 1.414 . S
C467 C470 1.499 . S
C468 H448 0.950 . S
C468 C467 1.414 . S
C468 C469 1.374 . S
C469 H449 0.950 . S
C469 C465 1.385 . S
C469 C468 1.374 . S
C470 C467 1.499 . S
C470 C471 1.373 . S
C470 C472 1.389 . S
C471 H450 0.950 . S
C471 C470 1.373 . S
C471 C487 1.377 . S
C472 C470 1.389 . S
C472 C473 1.524 . S
C472 C486 1.377 . S
C473 C472 1.524 . S
C473 C474 1.397 . S
C473 C478 1.363 . S
C474 H451 0.950 . S
C474 C473 1.397 . S
C474 C475 1.334 . S
C475 H452 0.950 . S
C475 C474 1.334 . S
C475 C476 1.287 . S
C476 C475 1.287 . S
C476 C477 1.524 . S
C476 H495 0.913 . S
C477 H453 0.950 . S
C477 C476 1.524 . S
C477 C478 1.415 . S
C478 H454 0.950 . S
C478 C473 1.363 . S
C478 C477 1.415 . S
C479 H455 0.951 . S
C479 C480 1.366 . S
C479 C481 1.388 . S
C480 C479 1.366 . S
C480 C484 1.385 . S
C481 H456 0.951 . S
C481 C479 1.388 . S
C481 C482 1.366 . S
C482 C481 1.366 . S
C482 C483 1.414 . S
C482 C485 1.499 . S
C483 H457 0.950 . S
C483 C482 1.414 . S
C483 C484 1.374 . S
C484 H458 0.950 . S
C484 C480 1.385 . S
C484 C483 1.374 . S
C485 C482 1.499 . S
C485 C486 1.373 . S
C485 C487 1.389 . S
C486 H459 0.950 . S
C486 C472 1.377 . S
C486 C485 1.373 . S
C487 C471 1.377 . S
C487 C485 1.389 . S
C487 C488 1.524 . S
C488 C487 1.524 . S
C488 C489 1.397 . S
C488 C493 1.363 . S
C489 H460 0.950 . S
C489 C488 1.397 . S
C489 C490 1.334 . S
C490 H461 0.950 . S
C490 C489 1.334 . S
C490 C491 1.287 . S
C491 C490 1.287 . S
C491 C492 1.524 . S
C491 H494 0.999 . S
C492 H462 0.950 . S
C492 C491 1.524 . S
C492 C493 1.415 . S
C493 H463 0.950 . S
C493 C488 1.363 . S
C493 C492 1.415 . S
H494 C491 0.999 . S
H495 C476 0.913 . S
H496 C514 0.951 . S
H497 C516 0.951 . S
H498 C518 0.950 . S
H499 C519 0.950 . S
H500 C521 0.950 . S
H501 C524 0.950 . S
H502 C525 0.950 . S
H503 C527 0.950 . S
H504 C528 0.950 . S
H505 C529 0.951 . S
H506 C531 0.951 . S
H507 C533 0.950 . S
H508 C534 0.950 . S
H509 C536 0.950 . S
H510 C539 0.950 . S
H511 C540 0.950 . S
H512 C542 0.950 . S
H513 C543 0.950 . S
C514 H496 0.951 . S
C514 C515 1.366 . S
C514 C516 1.388 . S
C515 C514 1.366 . S
C515 C519 1.385 . S
C516 H497 0.951 . S
C516 C514 1.388 . S
C516 C517 1.366 . S
C517 C516 1.366 . S
C517 C518 1.414 . S
C517 C520 1.499 . S
C518 H498 0.950 . S
C518 C517 1.414 . S
C518 C519 1.374 . S
C519 H499 0.950 . S
C519 C515 1.385 . S
C519 C518 1.374 . S
C520 C517 1.499 . S
C520 C521 1.373 . S
C520 C522 1.389 . S
C521 H500 0.950 . S
C521 C520 1.373 . S
C521 C537 1.377 . S
C522 C520 1.389 . S
C522 C523 1.524 . S
C522 C536 1.377 . S
C523 C522 1.524 . S
C523 C524 1.397 . S
C523 C528 1.363 . S
C524 H501 0.950 . S
C524 C523 1.397 . S
C524 C525 1.334 . S
C525 H502 0.950 . S
C525 C524 1.334 . S
C525 C526 1.287 . S
C526 C525 1.287 . S
C526 C527 1.524 . S
C526 H545 0.913 . S
C527 H503 0.950 . S
C527 C526 1.524 . S
C527 C528 1.415 . S
C528 H504 0.950 . S
C528 C523 1.363 . S
C528 C527 1.415 . S
C529 H505 0.951 . S
C529 C530 1.366 . S
C529 C531 1.388 . S
C530 C529 1.366 . S
C530 C534 1.385 . S
C531 H506 0.951 . S
C531 C529 1.388 . S
C531 C532 1.366 . S
C532 C531 1.366 . S
C532 C533 1.414 . S
C532 C535 1.499 . S
C533 H507 0.950 . S
C533 C532 1.414 . S
C533 C534 1.374 . S
C534 H508 0.950 . S
C534 C530 1.385 . S
C534 C533 1.374 . S
C535 C532 1.499 . S
C535 C536 1.373 . S
C535 C537 1.389 . S
C536 H509 0.950 . S
C536 C522 1.377 . S
C536 C535 1.373 . S
C537 C521 1.377 . S
C537 C535 1.389 . S
C537 C538 1.524 . S
C538 C537 1.524 . S
C538 C539 1.397 . S
C538 C543 1.363 . S
C539 H510 0.950 . S
C539 C538 1.397 . S
C539 C540 1.334 . S
C540 H511 0.950 . S
C540 C539 1.334 . S
C540 C541 1.287 . S
C541 C540 1.287 . S
C541 C542 1.524 . S
C541 H544 0.999 . S
C542 H512 0.950 . S
C542 C541 1.524 . S
C542 C543 1.415 . S
C543 H513 0.950 . S
C543 C538 1.363 . S
C543 C542 1.415 . S
H544 C541 0.999 . S
H545 C526 0.913 . S
H546 C564 0.951 . S
H547 C566 0.951 . S
H548 C568 0.950 . S
H549 C569 0.950 . S
H550 C571 0.950 . S
H551 C574 0.950 . S
H552 C575 0.950 . S
H553 C577 0.950 . S
H554 C578 0.950 . S
H555 C579 0.951 . S
H556 C581 0.951 . S
H557 C583 0.950 . S
H558 C584 0.950 . S
H559 C586 0.950 . S
H560 C589 0.950 . S
H561 C590 0.950 . S
H562 C592 0.950 . S
H563 C593 0.950 . S
C564 H546 0.951 . S
C564 C565 1.366 . S
C564 C566 1.388 . S
C565 C564 1.366 . S
C565 C569 1.385 . S
C566 H547 0.951 . S
C566 C564 1.388 . S
C566 C567 1.366 . S
C567 C566 1.366 . S
C567 C568 1.414 . S
C567 C570 1.499 . S
C568 H548 0.950 . S
C568 C567 1.414 . S
C568 C569 1.374 . S
C569 H549 0.950 . S
C569 C565 1.385 . S
C569 C568 1.374 . S
C570 C567 1.499 . S
C570 C571 1.373 . S
C570 C572 1.389 . S
C571 H550 0.950 . S
C571 C570 1.373 . S
C571 C587 1.377 . S
C572 C570 1.389 . S
C572 C573 1.524 . S
C572 C586 1.377 . S
C573 C572 1.524 . S
C573 C574 1.397 . S
C573 C578 1.363 . S
C574 H551 0.950 . S
C574 C573 1.397 . S
C574 C575 1.334 . S
C575 H552 0.950 . S
C575 C574 1.334 . S
C575 C576 1.287 . S
C576 C575 1.287 . S
C576 C577 1.524 . S
C576 H595 0.913 . S
C577 H553 0.950 . S
C577 C576 1.524 . S
C577 C578 1.415 . S
C578 H554 0.950 . S
C578 C573 1.363 . S
C578 C577 1.415 . S
C579 H555 0.951 . S
C579 C580 1.366 . S
C579 C581 1.388 . S
C580 C579 1.366 . S
C580 C584 1.385 . S
C581 H556 0.951 . S
C581 C579 1.388 . S
C581 C582 1.366 . S
C582 C581 1.366 . S
C582 C583 1.414 . S
C582 C585 1.499 . S
C583 H557 0.950 . S
C583 C582 1.414 . S
C583 C584 1.374 . S
C584 H558 0.950 . S
C584 C580 1.385 . S
C584 C583 1.374 . S
C585 C582 1.499 . S
C585 C586 1.373 . S
C585 C587 1.389 . S
C586 H559 0.950 . S
C586 C572 1.377 . S
C586 C585 1.373 . S
C587 C571 1.377 . S
C587 C585 1.389 . S
C587 C588 1.524 . S
C588 C587 1.524 . S
C588 C589 1.397 . S
C588 C593 1.363 . S
C589 H560 0.950 . S
C589 C588 1.397 . S
C589 C590 1.334 . S
C590 H561 0.950 . S
C590 C589 1.334 . S
C590 C591 1.287 . S
C591 C590 1.287 . S
C591 C592 1.524 . S
C591 H594 0.999 . S
C592 H562 0.950 . S
C592 C591 1.524 . S
C592 C593 1.415 . S
C593 H563 0.950 . S
C593 C588 1.363 . S
C593 C592 1.415 . S
H594 C591 0.999 . S
H595 C576 0.913 . S
H596 C614 0.951 . S
H597 C616 0.951 . S
H598 C618 0.950 . S
H599 C619 0.950 . S
H600 C621 0.950 . S
H601 C624 0.950 . S
H602 C625 0.950 . S
H603 C627 0.950 . S
H604 C628 0.950 . S
H605 C629 0.951 1_455 S
H606 C631 0.951 . S
H607 C633 0.950 . S
H608 C634 0.950 . S
H609 C636 0.950 . S
H610 C639 0.950 . S
H611 C640 0.950 . S
H612 C642 0.950 . S
H613 C643 0.950 . S
C614 H596 0.951 . S
C614 C615 1.366 . S
C614 C616 1.388 . S
C615 C614 1.366 . S
C615 C619 1.385 . S
C616 H597 0.951 . S
C616 C614 1.388 . S
C616 C617 1.366 . S
C617 C616 1.366 . S
C617 C618 1.414 . S
C617 C620 1.499 . S
C618 H598 0.950 . S
C618 C617 1.414 . S
C618 C619 1.374 . S
C619 H599 0.950 . S
C619 C615 1.385 . S
C619 C618 1.374 . S
C620 C617 1.499 . S
C620 C621 1.373 . S
C620 C622 1.389 . S
C621 H600 0.950 . S
C621 C620 1.373 . S
C621 C637 1.377 . S
C622 C620 1.389 . S
C622 C623 1.524 . S
C622 C636 1.377 . S
C623 C622 1.524 . S
C623 C624 1.397 . S
C623 C628 1.363 . S
C624 H601 0.950 . S
C624 C623 1.397 . S
C624 C625 1.334 . S
C625 H602 0.950 . S
C625 C624 1.334 . S
C625 C626 1.287 . S
C626 C625 1.287 . S
C626 C627 1.524 . S
C626 H645 0.913 . S
C627 H603 0.950 . S
C627 C626 1.524 . S
C627 C628 1.415 . S
C628 H604 0.950 . S
C628 C623 1.363 . S
C628 C627 1.415 . S
C629 H605 0.951 1_655 S
C629 C630 1.366 . S
C629 C631 1.388 . S
C630 C629 1.366 . S
C630 C634 1.385 . S
C631 H606 0.951 . S
C631 C629 1.388 . S
C631 C632 1.366 . S
C632 C631 1.366 . S
C632 C633 1.414 . S
C632 C635 1.499 . S
C633 H607 0.950 . S
C633 C632 1.414 . S
C633 C634 1.374 . S
C634 H608 0.950 . S
C634 C630 1.385 . S
C634 C633 1.374 . S
C635 C632 1.499 . S
C635 C636 1.373 . S
C635 C637 1.389 . S
C636 H609 0.950 . S
C636 C622 1.377 . S
C636 C635 1.373 . S
C637 C621 1.377 . S
C637 C635 1.389 . S
C637 C638 1.524 . S
C638 C637 1.524 . S
C638 C639 1.397 . S
C638 C643 1.363 . S
C639 H610 0.950 . S
C639 C638 1.397 . S
C639 C640 1.334 . S
C640 H611 0.950 . S
C640 C639 1.334 . S
C640 C641 1.287 . S
C641 C640 1.287 . S
C641 C642 1.524 . S
C641 H644 0.999 . S
C642 H612 0.950 . S
C642 C641 1.524 . S
C642 C643 1.415 . S
C643 H613 0.950 . S
C643 C638 1.363 . S
C643 C642 1.415 . S
H644 C641 0.999 . S
H645 C626 0.913 . S
H646 C664 0.951 . S
H647 C666 0.951 . S
H648 C668 0.950 . S
H649 C669 0.950 . S
H650 C671 0.950 . S
H651 C674 0.950 . S
H652 C675 0.950 . S
H653 C677 0.950 . S
H654 C678 0.950 . S
H655 C679 0.951 1_545 S
H656 C681 0.951 . S
H657 C683 0.950 . S
H658 C684 0.950 . S
H659 C686 0.950 . S
H660 C689 0.950 . S
H661 C690 0.950 . S
H662 C692 0.950 . S
H663 C693 0.950 . S
C664 H646 0.951 . S
C664 C665 1.366 . S
C664 C666 1.388 . S
C665 C664 1.366 . S
C665 C669 1.385 . S
C666 H647 0.951 . S
C666 C664 1.388 . S
C666 C667 1.366 . S
C667 C666 1.366 . S
C667 C668 1.414 . S
C667 C670 1.499 . S
C668 H648 0.950 . S
C668 C667 1.414 . S
C668 C669 1.374 . S
C669 H649 0.950 . S
C669 C665 1.385 . S
C669 C668 1.374 . S
C670 C667 1.499 . S
C670 C671 1.373 . S
C670 C672 1.389 . S
C671 H650 0.950 . S
C671 C670 1.373 . S
C671 C687 1.377 . S
C672 C670 1.389 . S
C672 C673 1.524 . S
C672 C686 1.377 . S
C673 C672 1.524 . S
C673 C674 1.397 . S
C673 C678 1.363 . S
C674 H651 0.950 . S
C674 C673 1.397 . S
C674 C675 1.334 . S
C675 H652 0.950 . S
C675 C674 1.334 . S
C675 C676 1.287 . S
C676 C675 1.287 . S
C676 C677 1.524 . S
C676 H695 0.913 . S
C677 H653 0.950 . S
C677 C676 1.524 . S
C677 C678 1.415 . S
C678 H654 0.950 . S
C678 C673 1.363 . S
C678 C677 1.415 . S
C679 H655 0.951 1_565 S
C679 C680 1.366 . S
C679 C681 1.388 . S
C680 C679 1.366 . S
C680 C684 1.385 . S
C681 H656 0.951 . S
C681 C679 1.388 . S
C681 C682 1.366 . S
C682 C681 1.366 . S
C682 C683 1.414 . S
C682 C685 1.499 . S
C683 H657 0.950 . S
C683 C682 1.414 . S
C683 C684 1.374 . S
C684 H658 0.950 . S
C684 C680 1.385 . S
C684 C683 1.374 . S
C685 C682 1.499 . S
C685 C686 1.373 . S
C685 C687 1.389 . S
C686 H659 0.950 . S
C686 C672 1.377 . S
C686 C685 1.373 . S
C687 C671 1.377 . S
C687 C685 1.389 . S
C687 C688 1.524 . S
C688 C687 1.524 . S
C688 C689 1.397 . S
C688 C693 1.363 . S
C689 H660 0.950 . S
C689 C688 1.397 . S
C689 C690 1.334 . S
C690 H661 0.950 . S
C690 C689 1.334 . S
C690 C691 1.287 . S
C691 C690 1.287 . S
C691 C692 1.524 . S
C691 H694 0.999 . S
C692 H662 0.950 . S
C692 C691 1.524 . S
C692 C693 1.415 . S
C693 H663 0.950 . S
C693 C688 1.363 . S
C693 C692 1.415 . S
H694 C691 0.999 . S
H695 C676 0.913 . S
H696 C714 0.951 . S
H697 C716 0.951 . S
H698 C718 0.950 . S
H699 C719 0.950 . S
H700 C721 0.950 . S
H701 C724 0.950 . S
H702 C725 0.950 . S
H703 C727 0.950 . S
H704 C728 0.950 . S
H705 C729 0.951 . S
H706 C731 0.951 . S
H707 C733 0.950 . S
H708 C734 0.950 . S
H709 C736 0.950 . S
H710 C739 0.950 . S
H711 C740 0.950 . S
H712 C742 0.950 . S
H713 C743 0.950 . S
C714 H696 0.951 . S
C714 C715 1.366 . S
C714 C716 1.388 . S
C715 C714 1.366 . S
C715 C719 1.385 . S
C716 H697 0.951 . S
C716 C714 1.388 . S
C716 C717 1.366 . S
C717 C716 1.366 . S
C717 C718 1.414 . S
C717 C720 1.499 . S
C718 H698 0.950 . S
C718 C717 1.414 . S
C718 C719 1.374 . S
C719 H699 0.950 . S
C719 C715 1.385 . S
C719 C718 1.374 . S
C720 C717 1.499 . S
C720 C721 1.373 . S
C720 C722 1.389 . S
C721 H700 0.950 . S
C721 C720 1.373 . S
C721 C737 1.377 . S
C722 C720 1.389 . S
C722 C723 1.524 . S
C722 C736 1.377 . S
C723 C722 1.524 . S
C723 C724 1.397 . S
C723 C728 1.363 . S
C724 H701 0.950 . S
C724 C723 1.397 . S
C724 C725 1.334 . S
C725 H702 0.950 . S
C725 C724 1.334 . S
C725 C726 1.287 . S
C726 C725 1.287 . S
C726 C727 1.524 . S
C726 H745 0.913 . S
C727 H703 0.950 . S
C727 C726 1.524 . S
C727 C728 1.415 . S
C728 H704 0.950 . S
C728 C723 1.363 . S
C728 C727 1.415 . S
C729 H705 0.951 . S
C729 C730 1.366 . S
C729 C731 1.388 . S
C730 C729 1.366 . S
C730 C734 1.385 . S
C731 H706 0.951 . S
C731 C729 1.388 . S
C731 C732 1.366 . S
C732 C731 1.366 . S
C732 C733 1.414 . S
C732 C735 1.499 . S
C733 H707 0.950 . S
C733 C732 1.414 . S
C733 C734 1.374 . S
C734 H708 0.950 . S
C734 C730 1.385 . S
C734 C733 1.374 . S
C735 C732 1.499 . S
C735 C736 1.373 . S
C735 C737 1.389 . S
C736 H709 0.950 . S
C736 C722 1.377 . S
C736 C735 1.373 . S
C737 C721 1.377 . S
C737 C735 1.389 . S
C737 C738 1.524 . S
C738 C737 1.524 . S
C738 C739 1.397 . S
C738 C743 1.363 . S
C739 H710 0.950 . S
C739 C738 1.397 . S
C739 C740 1.334 . S
C740 H711 0.950 . S
C740 C739 1.334 . S
C740 C741 1.287 . S
C741 C740 1.287 . S
C741 C742 1.524 . S
C741 H744 0.999 . S
C742 H712 0.950 . S
C742 C741 1.524 . S
C742 C743 1.415 . S
C743 H713 0.950 . S
C743 C738 1.363 . S
C743 C742 1.415 . S
H744 C741 0.999 . S
H745 C726 0.913 . S
H746 C764 0.951 . S
H747 C766 0.951 . S
H748 C768 0.950 . S
H749 C769 0.950 . S
H750 C771 0.950 . S
H751 C774 0.950 . S
H752 C775 0.950 . S
H753 C777 0.950 . S
H754 C778 0.950 . S
H755 C779 0.951 . S
H756 C781 0.951 . S
H757 C783 0.950 . S
H758 C784 0.950 . S
H759 C786 0.950 . S
H760 C789 0.950 . S
H761 C790 0.950 . S
H762 C792 0.950 . S
H763 C793 0.950 . S
C764 H746 0.951 . S
C764 C765 1.366 . S
C764 C766 1.388 . S
C765 C764 1.366 . S
C765 C769 1.385 . S
C766 H747 0.951 . S
C766 C764 1.388 . S
C766 C767 1.366 . S
C767 C766 1.366 . S
C767 C768 1.414 . S
C767 C770 1.499 . S
C768 H748 0.950 . S
C768 C767 1.414 . S
C768 C769 1.374 . S
C769 H749 0.950 . S
C769 C765 1.385 . S
C769 C768 1.374 . S
C770 C767 1.499 . S
C770 C771 1.373 . S
C770 C772 1.389 . S
C771 H750 0.950 . S
C771 C770 1.373 . S
C771 C787 1.377 . S
C772 C770 1.389 . S
C772 C773 1.524 . S
C772 C786 1.377 . S
C773 C772 1.524 . S
C773 C774 1.397 . S
C773 C778 1.363 . S
C774 H751 0.950 . S
C774 C773 1.397 . S
C774 C775 1.334 . S
C775 H752 0.950 . S
C775 C774 1.334 . S
C775 C776 1.287 . S
C776 C775 1.287 . S
C776 C777 1.524 . S
C776 H795 0.913 . S
C777 H753 0.950 . S
C777 C776 1.524 . S
C777 C778 1.415 . S
C778 H754 0.950 . S
C778 C773 1.363 . S
C778 C777 1.415 . S
C779 H755 0.951 . S
C779 C780 1.366 . S
C779 C781 1.388 . S
C780 C779 1.366 . S
C780 C784 1.385 . S
C781 H756 0.951 . S
C781 C779 1.388 . S
C781 C782 1.366 . S
C782 C781 1.366 . S
C782 C783 1.414 . S
C782 C785 1.499 . S
C783 H757 0.950 . S
C783 C782 1.414 . S
C783 C784 1.374 . S
C784 H758 0.950 . S
C784 C780 1.385 . S
C784 C783 1.374 . S
C785 C782 1.499 . S
C785 C786 1.373 . S
C785 C787 1.389 . S
C786 H759 0.950 . S
C786 C772 1.377 . S
C786 C785 1.373 . S
C787 C771 1.377 . S
C787 C785 1.389 . S
C787 C788 1.524 . S
C788 C787 1.524 . S
C788 C789 1.397 . S
C788 C793 1.363 . S
C789 H760 0.950 . S
C789 C788 1.397 . S
C789 C790 1.334 . S
C790 H761 0.950 . S
C790 C789 1.334 . S
C790 C791 1.287 . S
C791 C790 1.287 . S
C791 C792 1.524 . S
C791 H794 0.999 . S
C792 H762 0.950 . S
C792 C791 1.524 . S
C792 C793 1.415 . S
C793 H763 0.950 . S
C793 C788 1.363 . S
C793 C792 1.415 . S
H794 C791 0.999 . S
H795 C776 0.913 . S
H796 C814 0.951 . S
H797 C816 0.951 . S
H798 C818 0.950 . S
H799 C819 0.950 . S
H800 C821 0.950 . S
H801 C824 0.950 . S
H802 C825 0.950 . S
H803 C827 0.950 . S
H804 C828 0.950 . S
H805 C829 0.951 . S
H806 C831 0.951 . S
H807 C833 0.950 . S
H808 C834 0.950 . S
H809 C836 0.950 . S
H810 C839 0.950 . S
H811 C840 0.950 . S
H812 C842 0.950 . S
H813 C843 0.950 . S
C814 H796 0.951 . S
C814 C815 1.366 . S
C814 C816 1.388 . S
C815 C814 1.366 . S
C815 C819 1.385 . S
C816 H797 0.951 . S
C816 C814 1.388 . S
C816 C817 1.366 . S
C817 C816 1.366 . S
C817 C818 1.414 . S
C817 C820 1.499 . S
C818 H798 0.950 . S
C818 C817 1.414 . S
C818 C819 1.374 . S
C819 H799 0.950 . S
C819 C815 1.385 . S
C819 C818 1.374 . S
C820 C817 1.499 . S
C820 C821 1.373 . S
C820 C822 1.389 . S
C821 H800 0.950 . S
C821 C820 1.373 . S
C821 C837 1.377 . S
C822 C820 1.389 . S
C822 C823 1.524 . S
C822 C836 1.377 . S
C823 C822 1.524 . S
C823 C824 1.397 . S
C823 C828 1.363 . S
C824 H801 0.950 . S
C824 C823 1.397 . S
C824 C825 1.334 . S
C825 H802 0.950 . S
C825 C824 1.334 . S
C825 C826 1.287 . S
C826 C825 1.287 . S
C826 C827 1.524 . S
C826 H845 0.913 . S
C827 H803 0.950 . S
C827 C826 1.524 . S
C827 C828 1.415 . S
C828 H804 0.950 . S
C828 C823 1.363 . S
C828 C827 1.415 . S
C829 H805 0.951 . S
C829 C830 1.366 . S
C829 C831 1.388 . S
C830 C829 1.366 . S
C830 C834 1.385 . S
C831 H806 0.951 . S
C831 C829 1.388 . S
C831 C832 1.366 . S
C832 C831 1.366 . S
C832 C833 1.414 . S
C832 C835 1.499 . S
C833 H807 0.950 . S
C833 C832 1.414 . S
C833 C834 1.374 . S
C834 H808 0.950 . S
C834 C830 1.385 . S
C834 C833 1.374 . S
C835 C832 1.499 . S
C835 C836 1.373 . S
C835 C837 1.389 . S
C836 H809 0.950 . S
C836 C822 1.377 . S
C836 C835 1.373 . S
C837 C821 1.377 . S
C837 C835 1.389 . S
C837 C838 1.524 . S
C838 C837 1.524 . S
C838 C839 1.397 . S
C838 C843 1.363 . S
C839 H810 0.950 . S
C839 C838 1.397 . S
C839 C840 1.334 . S
C840 H811 0.950 . S
C840 C839 1.334 . S
C840 C841 1.287 . S
C841 C840 1.287 . S
C841 C842 1.524 . S
C841 H844 0.999 . S
C842 H812 0.950 . S
C842 C841 1.524 . S
C842 C843 1.415 . S
C843 H813 0.950 . S
C843 C838 1.363 . S
C843 C842 1.415 . S
H844 C841 0.999 . S
H845 C826 0.913 . S
H846 C864 0.951 . S
H847 C866 0.951 . S
H848 C868 0.950 . S
H849 C869 0.950 . S
H850 C871 0.950 . S
H851 C874 0.950 . S
H852 C875 0.950 . S
H853 C877 0.950 . S
H854 C878 0.950 . S
H855 C879 0.951 . S
H856 C881 0.951 . S
H857 C883 0.950 . S
H858 C884 0.950 . S
H859 C886 0.950 . S
H860 C889 0.950 . S
H861 C890 0.950 . S
H862 C892 0.950 . S
H863 C893 0.950 . S
C864 H846 0.951 . S
C864 C865 1.366 . S
C864 C866 1.388 . S
C865 C864 1.366 . S
C865 C869 1.385 . S
C866 H847 0.951 . S
C866 C864 1.388 . S
C866 C867 1.366 . S
C867 C866 1.366 . S
C867 C868 1.414 . S
C867 C870 1.499 . S
C868 H848 0.950 . S
C868 C867 1.414 . S
C868 C869 1.374 . S
C869 H849 0.950 . S
C869 C865 1.385 . S
C869 C868 1.374 . S
C870 C867 1.499 . S
C870 C871 1.373 . S
C870 C872 1.389 . S
C871 H850 0.950 . S
C871 C870 1.373 . S
C871 C887 1.377 . S
C872 C870 1.389 . S
C872 C873 1.524 . S
C872 C886 1.377 . S
C873 C872 1.524 . S
C873 C874 1.397 . S
C873 C878 1.363 . S
C874 H851 0.950 . S
C874 C873 1.397 . S
C874 C875 1.334 . S
C875 H852 0.950 . S
C875 C874 1.334 . S
C875 C876 1.287 . S
C876 C875 1.287 . S
C876 C877 1.524 . S
C876 H895 0.913 . S
C877 H853 0.950 . S
C877 C876 1.524 . S
C877 C878 1.415 . S
C878 H854 0.950 . S
C878 C873 1.363 . S
C878 C877 1.415 . S
C879 H855 0.951 . S
C879 C880 1.366 . S
C879 C881 1.388 . S
C880 C879 1.366 . S
C880 C884 1.385 . S
C881 H856 0.951 . S
C881 C879 1.388 . S
C881 C882 1.366 . S
C882 C881 1.366 . S
C882 C883 1.414 . S
C882 C885 1.499 . S
C883 H857 0.950 . S
C883 C882 1.414 . S
C883 C884 1.374 . S
C884 H858 0.950 . S
C884 C880 1.385 . S
C884 C883 1.374 . S
C885 C882 1.499 . S
C885 C886 1.373 . S
C885 C887 1.389 . S
C886 H859 0.950 . S
C886 C872 1.377 . S
C886 C885 1.373 . S
C887 C871 1.377 . S
C887 C885 1.389 . S
C887 C888 1.524 . S
C888 C887 1.524 . S
C888 C889 1.397 . S
C888 C893 1.363 . S
C889 H860 0.950 . S
C889 C888 1.397 . S
C889 C890 1.334 . S
C890 H861 0.950 . S
C890 C889 1.334 . S
C890 C891 1.287 . S
C891 C890 1.287 . S
C891 C892 1.524 . S
C891 H894 0.999 . S
C892 H862 0.950 . S
C892 C891 1.524 . S
C892 C893 1.415 . S
C893 H863 0.950 . S
C893 C888 1.363 . S
C893 C892 1.415 . S
H894 C891 0.999 . S
H895 C876 0.913 . S
H896 C914 0.951 . S
H897 C916 0.951 . S
H898 C918 0.950 . S
H899 C919 0.950 . S
H900 C921 0.950 . S
H901 C924 0.950 . S
H902 C925 0.950 . S
H903 C927 0.950 . S
H904 C928 0.950 . S
H905 C929 0.951 . S
H906 C931 0.951 . S
H907 C933 0.950 . S
H908 C934 0.950 1_455 S
H909 C936 0.950 . S
H910 C939 0.950 . S
H911 C940 0.950 . S
H912 C942 0.950 . S
H913 C943 0.950 . S
C914 H896 0.951 . S
C914 C915 1.366 . S
C914 C916 1.388 . S
C915 C914 1.366 . S
C915 C919 1.385 . S
C916 H897 0.951 . S
C916 C914 1.388 . S
C916 C917 1.366 . S
C917 C916 1.366 . S
C917 C918 1.414 . S
C917 C920 1.499 . S
C918 H898 0.950 . S
C918 C917 1.414 . S
C918 C919 1.374 . S
C919 H899 0.950 . S
C919 C915 1.385 . S
C919 C918 1.374 . S
C920 C917 1.499 . S
C920 C921 1.373 . S
C920 C922 1.389 . S
C921 H900 0.950 . S
C921 C920 1.373 . S
C921 C937 1.377 . S
C922 C920 1.389 . S
C922 C923 1.524 . S
C922 C936 1.377 . S
C923 C922 1.524 . S
C923 C924 1.397 . S
C923 C928 1.363 . S
C924 H901 0.950 . S
C924 C923 1.397 . S
C924 C925 1.334 . S
C925 H902 0.950 . S
C925 C924 1.334 . S
C925 C926 1.287 . S
C926 C925 1.287 . S
C926 C927 1.524 . S
C926 H945 0.913 . S
C927 H903 0.950 . S
C927 C926 1.524 . S
C927 C928 1.415 . S
C928 H904 0.950 . S
C928 C923 1.363 . S
C928 C927 1.415 . S
C929 H905 0.951 . S
C929 C930 1.366 . S
C929 C931 1.388 . S
C930 C929 1.366 . S
C930 C934 1.385 . S
C931 H906 0.951 . S
C931 C929 1.388 . S
C931 C932 1.366 . S
C932 C931 1.366 . S
C932 C933 1.414 . S
C932 C935 1.499 . S
C933 H907 0.950 . S
C933 C932 1.414 . S
C933 C934 1.374 . S
C934 H908 0.950 1_655 S
C934 C930 1.385 . S
C934 C933 1.374 . S
C935 C932 1.499 . S
C935 C936 1.373 . S
C935 C937 1.389 . S
C936 H909 0.950 . S
C936 C922 1.377 . S
C936 C935 1.373 . S
C937 C921 1.377 . S
C937 C935 1.389 . S
C937 C938 1.524 . S
C938 C937 1.524 . S
C938 C939 1.397 . S
C938 C943 1.363 . S
C939 H910 0.950 . S
C939 C938 1.397 . S
C939 C940 1.334 . S
C940 H911 0.950 . S
C940 C939 1.334 . S
C940 C941 1.287 . S
C941 C940 1.287 . S
C941 C942 1.524 . S
C941 H944 0.999 . S
C942 H912 0.950 . S
C942 C941 1.524 . S
C942 C943 1.415 . S
C943 H913 0.950 . S
C943 C938 1.363 . S
C943 C942 1.415 . S
H944 C941 0.999 . S
H945 C926 0.913 . S
H946 C964 0.951 . S
H947 C966 0.951 . S
H948 C968 0.950 . S
H949 C969 0.950 . S
H950 C971 0.950 . S
H951 C974 0.950 . S
H952 C975 0.950 . S
H953 C977 0.950 . S
H954 C978 0.950 . S
H955 C979 0.951 . S
H956 C981 0.951 . S
H957 C983 0.950 . S
H958 C984 0.950 . S
H959 C986 0.950 . S
H960 C989 0.950 . S
H961 C990 0.950 . S
H962 C992 0.950 . S
H963 C993 0.950 . S
C964 H946 0.951 . S
C964 C965 1.366 . S
C964 C966 1.388 . S
C965 C964 1.366 . S
C965 C969 1.385 . S
C966 H947 0.951 . S
C966 C964 1.388 . S
C966 C967 1.366 . S
C967 C966 1.366 . S
C967 C968 1.414 . S
C967 C970 1.499 . S
C968 H948 0.950 . S
C968 C967 1.414 . S
C968 C969 1.374 . S
C969 H949 0.950 . S
C969 C965 1.385 . S
C969 C968 1.374 . S
C970 C967 1.499 . S
C970 C971 1.373 . S
C970 C972 1.389 . S
C971 H950 0.950 . S
C971 C970 1.373 . S
C971 C987 1.377 . S
C972 C970 1.389 . S
C972 C973 1.524 . S
C972 C986 1.377 . S
C973 C972 1.524 . S
C973 C974 1.397 . S
C973 C978 1.363 . S
C974 H951 0.950 . S
C974 C973 1.397 . S
C974 C975 1.334 . S
C975 H952 0.950 . S
C975 C974 1.334 . S
C975 C976 1.287 . S
C976 C975 1.287 . S
C976 C977 1.524 . S
C976 H995 0.913 . S
C977 H953 0.950 . S
C977 C976 1.524 . S
C977 C978 1.415 . S
C978 H954 0.950 . S
C978 C973 1.363 . S
C978 C977 1.415 . S
C979 H955 0.951 . S
C979 C980 1.366 . S
C979 C981 1.388 . S
C980 C979 1.366 . S
C980 C984 1.385 . S
C981 H956 0.951 . S
C981 C979 1.388 . S
C981 C982 1.366 . S
C982 C981 1.366 . S
C982 C983 1.414 . S
C982 C985 1.499 . S
C983 H957 0.950 . S
C983 C982 1.414 . S
C983 C984 1.374 . S
C984 H958 0.950 . S
C984 C980 1.385 . S
C984 C983 1.374 . S
C985 C982 1.499 . S
C985 C986 1.373 . S
C985 C987 1.389 . S
C986 H959 0.950 . S
C986 C972 1.377 . S
C986 C985 1.373 . S
C987 C971 1.377 . S
C987 C985 1.389 . S
C987 C988 1.524 . S
C988 C987 1.524 . S
C988 C989 1.397 . S
C988 C993 1.363 . S
C989 H960 0.950 . S
C989 C988 1.397 . S
C989 C990 1.334 . S
C990 H961 0.950 . S
C990 C989 1.334 . S
C990 C991 1.287 . S
C991 C990 1.287 . S
C991 C992 1.524 . S
C991 H994 0.999 1_565 S
C992 H962 0.950 . S
C992 C991 1.524 . S
C992 C993 1.415 . S
C993 H963 0.950 . S
C993 C988 1.363 . S
C993 C992 1.415 . S
H994 C991 0.999 1_545 S
H995 C976 0.913 . S
H996 C1014 0.951 . S
H997 C1016 0.951 . S
H998 C1018 0.950 . S
H999 C1019 0.950 . S
H1000 C1021 0.950 . S
H1001 C1024 0.950 . S
H1002 C1025 0.950 . S
H1003 C1027 0.950 . S
H1004 C1028 0.950 . S
H1005 C1029 0.951 . S
H1006 C1031 0.951 . S
H1007 C1033 0.950 . S
H1008 C1034 0.950 . S
H1009 C1036 0.950 . S
H1010 C1039 0.950 . S
H1011 C1040 0.950 . S
H1012 C1042 0.950 . S
H1013 C1043 0.950 . S
C1014 H996 0.951 . S
C1014 C1015 1.366 . S
C1014 C1016 1.388 . S
C1015 C1014 1.366 . S
C1015 C1019 1.385 . S
C1016 H997 0.951 . S
C1016 C1014 1.388 . S
C1016 C1017 1.366 . S
C1017 C1016 1.366 . S
C1017 C1018 1.414 . S
C1017 C1020 1.499 . S
C1018 H998 0.950 . S
C1018 C1017 1.414 . S
C1018 C1019 1.374 . S
C1019 H999 0.950 . S
C1019 C1015 1.385 . S
C1019 C1018 1.374 . S
C1020 C1017 1.499 . S
C1020 C1021 1.373 . S
C1020 C1022 1.389 . S
C1021 H1000 0.950 . S
C1021 C1020 1.373 . S
C1021 C1037 1.377 . S
C1022 C1020 1.389 . S
C1022 C1023 1.524 . S
C1022 C1036 1.377 . S
C1023 C1022 1.524 . S
C1023 C1024 1.397 . S
C1023 C1028 1.363 . S
C1024 H1001 0.950 . S
C1024 C1023 1.397 . S
C1024 C1025 1.334 . S
C1025 H1002 0.950 . S
C1025 C1024 1.334 . S
C1025 C1026 1.287 . S
C1026 C1025 1.287 . S
C1026 C1027 1.524 . S
C1026 H1045 0.913 . S
C1027 H1003 0.950 . S
C1027 C1026 1.524 . S
C1027 C1028 1.415 . S
C1028 H1004 0.950 . S
C1028 C1023 1.363 . S
C1028 C1027 1.415 . S
C1029 H1005 0.951 . S
C1029 C1030 1.366 . S
C1029 C1031 1.388 . S
C1030 C1029 1.366 . S
C1030 C1034 1.385 . S
C1031 H1006 0.951 . S
C1031 C1029 1.388 . S
C1031 C1032 1.366 . S
C1032 C1031 1.366 . S
C1032 C1033 1.414 . S
C1032 C1035 1.499 . S
C1033 H1007 0.950 . S
C1033 C1032 1.414 . S
C1033 C1034 1.374 . S
C1034 H1008 0.950 . S
C1034 C1030 1.385 . S
C1034 C1033 1.374 . S
C1035 C1032 1.499 . S
C1035 C1036 1.373 . S
C1035 C1037 1.389 . S
C1036 H1009 0.950 . S
C1036 C1022 1.377 . S
C1036 C1035 1.373 . S
C1037 C1021 1.377 . S
C1037 C1035 1.389 . S
C1037 C1038 1.524 . S
C1038 C1037 1.524 . S
C1038 C1039 1.397 . S
C1038 C1043 1.363 . S
C1039 H1010 0.950 . S
C1039 C1038 1.397 . S
C1039 C1040 1.334 . S
C1040 H1011 0.950 . S
C1040 C1039 1.334 . S
C1040 C1041 1.287 . S
C1041 C1040 1.287 . S
C1041 C1042 1.524 . S
C1041 H1044 0.999 . S
C1042 H1012 0.950 . S
C1042 C1041 1.524 . S
C1042 C1043 1.415 . S
C1043 H1013 0.950 . S
C1043 C1038 1.363 . S
C1043 C1042 1.415 . S
H1044 C1041 0.999 . S
H1045 C1026 0.913 . S
H1046 C1064 0.951 . S
H1047 C1066 0.951 . S
H1048 C1068 0.950 . S
H1049 C1069 0.950 . S
H1050 C1071 0.950 . S
H1051 C1074 0.950 . S
H1052 C1075 0.950 . S
H1053 C1077 0.950 . S
H1054 C1078 0.950 . S
H1055 C1079 0.951 . S
H1056 C1081 0.951 . S
H1057 C1083 0.950 . S
H1058 C1084 0.950 . S
H1059 C1086 0.950 . S
H1060 C1089 0.950 . S
H1061 C1090 0.950 . S
H1062 C1092 0.950 . S
H1063 C1093 0.950 . S
C1064 H1046 0.951 . S
C1064 C1065 1.366 . S
C1064 C1066 1.388 . S
C1065 C1064 1.366 . S
C1065 C1069 1.385 . S
C1066 H1047 0.951 . S
C1066 C1064 1.388 . S
C1066 C1067 1.366 . S
C1067 C1066 1.366 . S
C1067 C1068 1.414 . S
C1067 C1070 1.499 . S
C1068 H1048 0.950 . S
C1068 C1067 1.414 . S
C1068 C1069 1.374 . S
C1069 H1049 0.950 . S
C1069 C1065 1.385 . S
C1069 C1068 1.374 . S
C1070 C1067 1.499 . S
C1070 C1071 1.373 . S
C1070 C1072 1.389 . S
C1071 H1050 0.950 . S
C1071 C1070 1.373 . S
C1071 C1087 1.377 . S
C1072 C1070 1.389 . S
C1072 C1073 1.524 . S
C1072 C1086 1.377 . S
C1073 C1072 1.524 . S
C1073 C1074 1.397 . S
C1073 C1078 1.363 . S
C1074 H1051 0.950 . S
C1074 C1073 1.397 . S
C1074 C1075 1.334 . S
C1075 H1052 0.950 . S
C1075 C1074 1.334 . S
C1075 C1076 1.287 . S
C1076 C1075 1.287 . S
C1076 C1077 1.524 . S
C1076 H1095 0.913 . S
C1077 H1053 0.950 . S
C1077 C1076 1.524 . S
C1077 C1078 1.415 . S
C1078 H1054 0.950 . S
C1078 C1073 1.363 . S
C1078 C1077 1.415 . S
C1079 H1055 0.951 . S
C1079 C1080 1.366 . S
C1079 C1081 1.388 . S
C1080 C1079 1.366 . S
C1080 C1084 1.385 . S
C1081 H1056 0.951 . S
C1081 C1079 1.388 . S
C1081 C1082 1.366 . S
C1082 C1081 1.366 . S
C1082 C1083 1.414 . S
C1082 C1085 1.499 . S
C1083 H1057 0.950 . S
C1083 C1082 1.414 . S
C1083 C1084 1.374 . S
C1084 H1058 0.950 . S
C1084 C1080 1.385 . S
C1084 C1083 1.374 . S
C1085 C1082 1.499 . S
C1085 C1086 1.373 . S
C1085 C1087 1.389 . S
C1086 H1059 0.950 . S
C1086 C1072 1.377 . S
C1086 C1085 1.373 . S
C1087 C1071 1.377 . S
C1087 C1085 1.389 . S
C1087 C1088 1.524 . S
C1088 C1087 1.524 . S
C1088 C1089 1.397 . S
C1088 C1093 1.363 . S
C1089 H1060 0.950 . S
C1089 C1088 1.397 . S
C1089 C1090 1.334 . S
C1090 H1061 0.950 . S
C1090 C1089 1.334 . S
C1090 C1091 1.287 . S
C1091 C1090 1.287 . S
C1091 C1092 1.524 . S
C1091 H1094 0.999 . S
C1092 H1062 0.950 . S
C1092 C1091 1.524 . S
C1092 C1093 1.415 . S
C1093 H1063 0.950 . S
C1093 C1088 1.363 . S
C1093 C1092 1.415 . S
H1094 C1091 0.999 . S
H1095 C1076 0.913 . S
H1096 C1114 0.951 . S
H1097 C1116 0.951 . S
H1098 C1118 0.950 . S
H1099 C1119 0.950 . S
H1100 C1121 0.950 . S
H1101 C1124 0.950 . S
H1102 C1125 0.950 . S
H1103 C1127 0.950 . S
H1104 C1128 0.950 . S
H1105 C1129 0.951 . S
H1106 C1131 0.951 . S
H1107 C1133 0.950 . S
H1108 C1134 0.950 . S
H1109 C1136 0.950 . S
H1110 C1139 0.950 . S
H1111 C1140 0.950 . S
H1112 C1142 0.950 . S
H1113 C1143 0.950 . S
C1114 H1096 0.951 . S
C1114 C1115 1.366 . S
C1114 C1116 1.388 . S
C1115 C1114 1.366 . S
C1115 C1119 1.385 . S
C1116 H1097 0.951 . S
C1116 C1114 1.388 . S
C1116 C1117 1.366 . S
C1117 C1116 1.366 . S
C1117 C1118 1.414 . S
C1117 C1120 1.499 . S
C1118 H1098 0.950 . S
C1118 C1117 1.414 . S
C1118 C1119 1.374 . S
C1119 H1099 0.950 . S
C1119 C1115 1.385 . S
C1119 C1118 1.374 . S
C1120 C1117 1.499 . S
C1120 C1121 1.373 . S
C1120 C1122 1.389 . S
C1121 H1100 0.950 . S
C1121 C1120 1.373 . S
C1121 C1137 1.377 . S
C1122 C1120 1.389 . S
C1122 C1123 1.524 . S
C1122 C1136 1.377 . S
C1123 C1122 1.524 . S
C1123 C1124 1.397 . S
C1123 C1128 1.363 . S
C1124 H1101 0.950 . S
C1124 C1123 1.397 . S
C1124 C1125 1.334 . S
C1125 H1102 0.950 . S
C1125 C1124 1.334 . S
C1125 C1126 1.287 . S
C1126 C1125 1.287 . S
C1126 C1127 1.524 . S
C1126 H1145 0.913 . S
C1127 H1103 0.950 . S
C1127 C1126 1.524 . S
C1127 C1128 1.415 . S
C1128 H1104 0.950 . S
C1128 C1123 1.363 . S
C1128 C1127 1.415 . S
C1129 H1105 0.951 . S
C1129 C1130 1.366 . S
C1129 C1131 1.388 . S
C1130 C1129 1.366 . S
C1130 C1134 1.385 . S
C1131 H1106 0.951 . S
C1131 C1129 1.388 . S
C1131 C1132 1.366 . S
C1132 C1131 1.366 . S
C1132 C1133 1.414 . S
C1132 C1135 1.499 . S
C1133 H1107 0.950 . S
C1133 C1132 1.414 . S
C1133 C1134 1.374 . S
C1134 H1108 0.950 . S
C1134 C1130 1.385 . S
C1134 C1133 1.374 . S
C1135 C1132 1.499 . S
C1135 C1136 1.373 . S
C1135 C1137 1.389 . S
C1136 H1109 0.950 . S
C1136 C1122 1.377 . S
C1136 C1135 1.373 . S
C1137 C1121 1.377 . S
C1137 C1135 1.389 . S
C1137 C1138 1.524 . S
C1138 C1137 1.524 . S
C1138 C1139 1.397 . S
C1138 C1143 1.363 . S
C1139 H1110 0.950 . S
C1139 C1138 1.397 . S
C1139 C1140 1.334 . S
C1140 H1111 0.950 . S
C1140 C1139 1.334 . S
C1140 C1141 1.287 . S
C1141 C1140 1.287 . S
C1141 C1142 1.524 . S
C1141 H1144 0.999 . S
C1142 H1112 0.950 . S
C1142 C1141 1.524 . S
C1142 C1143 1.415 . S
C1143 H1113 0.950 . S
C1143 C1138 1.363 . S
C1143 C1142 1.415 . S
H1144 C1141 0.999 . S
H1145 C1126 0.913 . S
H1146 C1164 0.951 . S
H1147 C1166 0.951 . S
H1148 C1168 0.950 . S
H1149 C1169 0.950 . S
H1150 C1171 0.950 . S
H1151 C1174 0.950 . S
H1152 C1175 0.950 . S
H1153 C1177 0.950 . S
H1154 C1178 0.950 . S
H1155 C1179 0.951 . S
H1156 C1181 0.951 . S
H1157 C1183 0.950 . S
H1158 C1184 0.950 . S
H1159 C1186 0.950 . S
H1160 C1189 0.950 . S
H1161 C1190 0.950 . S
H1162 C1192 0.950 . S
H1163 C1193 0.950 . S
C1164 H1146 0.951 . S
C1164 C1165 1.366 . S
C1164 C1166 1.388 . S
C1165 C1164 1.366 . S
C1165 C1169 1.385 . S
C1166 H1147 0.951 . S
C1166 C1164 1.388 . S
C1166 C1167 1.366 . S
C1167 C1166 1.366 . S
C1167 C1168 1.414 . S
C1167 C1170 1.499 . S
C1168 H1148 0.950 . S
C1168 C1167 1.414 . S
C1168 C1169 1.374 . S
C1169 H1149 0.950 . S
C1169 C1165 1.385 . S
C1169 C1168 1.374 . S
C1170 C1167 1.499 . S
C1170 C1171 1.373 . S
C1170 C1172 1.389 . S
C1171 H1150 0.950 . S
C1171 C1170 1.373 . S
C1171 C1187 1.377 . S
C1172 C1170 1.389 . S
C1172 C1173 1.524 . S
C1172 C1186 1.377 . S
C1173 C1172 1.524 . S
C1173 C1174 1.397 . S
C1173 C1178 1.363 . S
C1174 H1151 0.950 . S
C1174 C1173 1.397 . S
C1174 C1175 1.334 . S
C1175 H1152 0.950 . S
C1175 C1174 1.334 . S
C1175 C1176 1.287 . S
C1176 C1175 1.287 . S
C1176 C1177 1.524 . S
C1176 H1195 0.913 . S
C1177 H1153 0.950 . S
C1177 C1176 1.524 . S
C1177 C1178 1.415 . S
C1178 H1154 0.950 . S
C1178 C1173 1.363 . S
C1178 C1177 1.415 . S
C1179 H1155 0.951 . S
C1179 C1180 1.366 . S
C1179 C1181 1.388 . S
C1180 C1179 1.366 . S
C1180 C1184 1.385 . S
C1181 H1156 0.951 . S
C1181 C1179 1.388 . S
C1181 C1182 1.366 . S
C1182 C1181 1.366 . S
C1182 C1183 1.414 . S
C1182 C1185 1.499 . S
C1183 H1157 0.950 . S
C1183 C1182 1.414 . S
C1183 C1184 1.374 . S
C1184 H1158 0.950 . S
C1184 C1180 1.385 . S
C1184 C1183 1.374 . S
C1185 C1182 1.499 . S
C1185 C1186 1.373 . S
C1185 C1187 1.389 . S
C1186 H1159 0.950 . S
C1186 C1172 1.377 . S
C1186 C1185 1.373 . S
C1187 C1171 1.377 . S
C1187 C1185 1.389 . S
C1187 C1188 1.524 . S
C1188 C1187 1.524 . S
C1188 C1189 1.397 . S
C1188 C1193 1.363 . S
C1189 H1160 0.950 . S
C1189 C1188 1.397 . S
C1189 C1190 1.334 . S
C1190 H1161 0.950 . S
C1190 C1189 1.334 . S
C1190 C1191 1.287 . S
C1191 C1190 1.287 . S
C1191 C1192 1.524 . S
C1191 H1194 0.999 . S
C1192 H1162 0.950 . S
C1192 C1191 1.524 . S
C1192 C1193 1.415 . S
C1193 H1163 0.950 . S
C1193 C1188 1.363 . S
C1193 C1192 1.415 . S
H1194 C1191 0.999 . S
H1195 C1176 0.913 . S
H1196 C1214 0.951 . S
H1197 C1216 0.951 . S
H1198 C1218 0.950 . S
H1199 C1219 0.950 . S
H1200 C1221 0.950 . S
H1201 C1224 0.950 . S
H1202 C1225 0.950 . S
H1203 C1227 0.950 . S
H1204 C1228 0.950 . S
H1205 C1229 0.951 . S
H1206 C1231 0.951 . S
H1207 C1233 0.950 . S
H1208 C1234 0.950 . S
H1209 C1236 0.950 . S
H1210 C1239 0.950 . S
H1211 C1240 0.950 . S
H1212 C1242 0.950 . S
H1213 C1243 0.950 . S
C1214 H1196 0.951 . S
C1214 C1215 1.366 . S
C1214 C1216 1.388 . S
C1215 C1214 1.366 . S
C1215 C1219 1.385 . S
C1216 H1197 0.951 . S
C1216 C1214 1.388 . S
C1216 C1217 1.366 . S
C1217 C1216 1.366 . S
C1217 C1218 1.414 . S
C1217 C1220 1.499 . S
C1218 H1198 0.950 . S
C1218 C1217 1.414 . S
C1218 C1219 1.374 . S
C1219 H1199 0.950 . S
C1219 C1215 1.385 . S
C1219 C1218 1.374 . S
C1220 C1217 1.499 . S
C1220 C1221 1.373 . S
C1220 C1222 1.389 . S
C1221 H1200 0.950 . S
C1221 C1220 1.373 . S
C1221 C1237 1.377 . S
C1222 C1220 1.389 . S
C1222 C1223 1.524 . S
C1222 C1236 1.377 . S
C1223 C1222 1.524 . S
C1223 C1224 1.397 . S
C1223 C1228 1.363 . S
C1224 H1201 0.950 . S
C1224 C1223 1.397 . S
C1224 C1225 1.334 . S
C1225 H1202 0.950 . S
C1225 C1224 1.334 . S
C1225 C1226 1.287 . S
C1226 C1225 1.287 . S
C1226 C1227 1.524 . S
C1226 H1245 0.913 . S
C1227 H1203 0.950 . S
C1227 C1226 1.524 . S
C1227 C1228 1.415 . S
C1228 H1204 0.950 . S
C1228 C1223 1.363 . S
C1228 C1227 1.415 . S
C1229 H1205 0.951 . S
C1229 C1230 1.366 . S
C1229 C1231 1.388 . S
C1230 C1229 1.366 . S
C1230 C1234 1.385 . S
C1231 H1206 0.951 . S
C1231 C1229 1.388 . S
C1231 C1232 1.366 . S
C1232 C1231 1.366 . S
C1232 C1233 1.414 . S
C1232 C1235 1.499 . S
C1233 H1207 0.950 . S
C1233 C1232 1.414 . S
C1233 C1234 1.374 . S
C1234 H1208 0.950 . S
C1234 C1230 1.385 . S
C1234 C1233 1.374 . S
C1235 C1232 1.499 . S
C1235 C1236 1.373 . S
C1235 C1237 1.389 . S
C1236 H1209 0.950 . S
C1236 C1222 1.377 . S
C1236 C1235 1.373 . S
C1237 C1221 1.377 . S
C1237 C1235 1.389 . S
C1237 C1238 1.524 . S
C1238 C1237 1.524 . S
C1238 C1239 1.397 . S
C1238 C1243 1.363 . S
C1239 H1210 0.950 . S
C1239 C1238 1.397 . S
C1239 C1240 1.334 . S
C1240 H1211 0.950 . S
C1240 C1239 1.334 . S
C1240 C1241 1.287 . S
C1241 C1240 1.287 . S
C1241 C1242 1.524 . S
C1241 H1244 0.999 . S
C1242 H1212 0.950 . S
C1242 C1241 1.524 . S
C1242 C1243 1.415 . S
C1243 H1213 0.950 . S
C1243 C1238 1.363 . S
C1243 C1242 1.415 . S
H1244 C1241 0.999 . S
H1245 C1226 0.913 . S
H1246 C1264 0.951 . S
H1247 C1266 0.951 . S
H1248 C1268 0.950 . S
H1249 C1269 0.950 . S
H1250 C1271 0.950 . S
H1251 C1274 0.950 . S
H1252 C1275 0.950 . S
H1253 C1277 0.950 . S
H1254 C1278 0.950 . S
H1255 C1279 0.951 . S
H1256 C1281 0.951 . S
H1257 C1283 0.950 . S
H1258 C1284 0.950 . S
H1259 C1286 0.950 . S
H1260 C1289 0.950 . S
H1261 C1290 0.950 . S
H1262 C1292 0.950 . S
H1263 C1293 0.950 . S
C1264 H1246 0.951 . S
C1264 C1265 1.366 . S
C1264 C1266 1.388 . S
C1265 C1264 1.366 . S
C1265 C1269 1.385 . S
C1266 H1247 0.951 . S
C1266 C1264 1.388 . S
C1266 C1267 1.366 . S
C1267 C1266 1.366 . S
C1267 C1268 1.414 . S
C1267 C1270 1.499 . S
C1268 H1248 0.950 . S
C1268 C1267 1.414 . S
C1268 C1269 1.374 . S
C1269 H1249 0.950 . S
C1269 C1265 1.385 . S
C1269 C1268 1.374 . S
C1270 C1267 1.499 . S
C1270 C1271 1.373 . S
C1270 C1272 1.389 . S
C1271 H1250 0.950 . S
C1271 C1270 1.373 . S
C1271 C1287 1.377 . S
C1272 C1270 1.389 . S
C1272 C1273 1.524 . S
C1272 C1286 1.377 . S
C1273 C1272 1.524 . S
C1273 C1274 1.397 . S
C1273 C1278 1.363 . S
C1274 H1251 0.950 . S
C1274 C1273 1.397 . S
C1274 C1275 1.334 . S
C1275 H1252 0.950 . S
C1275 C1274 1.334 . S
C1275 C1276 1.287 . S
C1276 C1275 1.287 . S
C1276 C1277 1.524 . S
C1276 H1295 0.913 . S
C1277 H1253 0.950 . S
C1277 C1276 1.524 . S
C1277 C1278 1.415 . S
C1278 H1254 0.950 . S
C1278 C1273 1.363 . S
C1278 C1277 1.415 . S
C1279 H1255 0.951 . S
C1279 C1280 1.366 . S
C1279 C1281 1.388 . S
C1280 C1279 1.366 . S
C1280 C1284 1.385 . S
C1281 H1256 0.951 . S
C1281 C1279 1.388 . S
C1281 C1282 1.366 . S
C1282 C1281 1.366 . S
C1282 C1283 1.414 . S
C1282 C1285 1.499 . S
C1283 H1257 0.950 . S
C1283 C1282 1.414 . S
C1283 C1284 1.374 . S
C1284 H1258 0.950 . S
C1284 C1280 1.385 . S
C1284 C1283 1.374 . S
C1285 C1282 1.499 . S
C1285 C1286 1.373 . S
C1285 C1287 1.389 . S
C1286 H1259 0.950 . S
C1286 C1272 1.377 . S
C1286 C1285 1.373 . S
C1287 C1271 1.377 . S
C1287 C1285 1.389 . S
C1287 C1288 1.524 . S
C1288 C1287 1.524 . S
C1288 C1289 1.397 . S
C1288 C1293 1.363 . S
C1289 H1260 0.950 . S
C1289 C1288 1.397 . S
C1289 C1290 1.334 . S
C1290 H1261 0.950 . S
C1290 C1289 1.334 . S
C1290 C1291 1.287 . S
C1291 C1290 1.287 . S
C1291 C1292 1.524 . S
C1291 H1294 0.999 . S
C1292 H1262 0.950 . S
C1292 C1291 1.524 . S
C1292 C1293 1.415 . S
C1293 H1263 0.950 . S
C1293 C1288 1.363 . S
C1293 C1292 1.415 . S
H1294 C1291 0.999 . S
H1295 C1276 0.913 . S
H1296 C1314 0.951 . S
H1297 C1316 0.951 . S
H1298 C1318 0.950 . S
H1299 C1319 0.950 . S
H1300 C1321 0.950 . S
H1301 C1324 0.950 . S
H1302 C1325 0.950 . S
H1303 C1327 0.950 . S
H1304 C1328 0.950 . S
H1305 C1329 0.951 . S
H1306 C1331 0.951 . S
H1307 C1333 0.950 . S
H1308 C1334 0.950 . S
H1309 C1336 0.950 . S
H1310 C1339 0.950 . S
H1311 C1340 0.950 . S
H1312 C1342 0.950 . S
H1313 C1343 0.950 . S
C1314 H1296 0.951 . S
C1314 C1315 1.366 . S
C1314 C1316 1.388 . S
C1315 C1314 1.366 . S
C1315 C1319 1.385 . S
C1316 H1297 0.951 . S
C1316 C1314 1.388 . S
C1316 C1317 1.366 . S
C1317 C1316 1.366 . S
C1317 C1318 1.414 . S
C1317 C1320 1.499 . S
C1318 H1298 0.950 . S
C1318 C1317 1.414 . S
C1318 C1319 1.374 . S
C1319 H1299 0.950 . S
C1319 C1315 1.385 . S
C1319 C1318 1.374 . S
C1320 C1317 1.499 . S
C1320 C1321 1.373 . S
C1320 C1322 1.389 . S
C1321 H1300 0.950 . S
C1321 C1320 1.373 . S
C1321 C1337 1.377 . S
C1322 C1320 1.389 . S
C1322 C1323 1.524 . S
C1322 C1336 1.377 . S
C1323 C1322 1.524 . S
C1323 C1324 1.397 . S
C1323 C1328 1.363 . S
C1324 H1301 0.950 . S
C1324 C1323 1.397 . S
C1324 C1325 1.334 . S
C1325 H1302 0.950 . S
C1325 C1324 1.334 . S
C1325 C1326 1.287 . S
C1326 C1325 1.287 . S
C1326 C1327 1.524 . S
C1326 H1345 0.913 . S
C1327 H1303 0.950 . S
C1327 C1326 1.524 . S
C1327 C1328 1.415 . S
C1328 H1304 0.950 . S
C1328 C1323 1.363 . S
C1328 C1327 1.415 . S
C1329 H1305 0.951 . S
C1329 C1330 1.366 . S
C1329 C1331 1.388 . S
C1330 C1329 1.366 . S
C1330 C1334 1.385 . S
C1331 H1306 0.951 . S
C1331 C1329 1.388 . S
C1331 C1332 1.366 . S
C1332 C1331 1.366 . S
C1332 C1333 1.414 . S
C1332 C1335 1.499 . S
C1333 H1307 0.950 . S
C1333 C1332 1.414 . S
C1333 C1334 1.374 . S
C1334 H1308 0.950 . S
C1334 C1330 1.385 . S
C1334 C1333 1.374 . S
C1335 C1332 1.499 . S
C1335 C1336 1.373 . S
C1335 C1337 1.389 . S
C1336 H1309 0.950 . S
C1336 C1322 1.377 . S
C1336 C1335 1.373 . S
C1337 C1321 1.377 . S
C1337 C1335 1.389 . S
C1337 C1338 1.524 . S
C1338 C1337 1.524 . S
C1338 C1339 1.397 . S
C1338 C1343 1.363 . S
C1339 H1310 0.950 . S
C1339 C1338 1.397 . S
C1339 C1340 1.334 . S
C1340 H1311 0.950 . S
C1340 C1339 1.334 . S
C1340 C1341 1.287 . S
C1341 C1340 1.287 . S
C1341 C1342 1.524 . S
C1341 H1344 0.999 . S
C1342 H1312 0.950 . S
C1342 C1341 1.524 . S
C1342 C1343 1.415 . S
C1343 H1313 0.950 . S
C1343 C1338 1.363 . S
C1343 C1342 1.415 . S
H1344 C1341 0.999 . S
H1345 C1326 0.913 . S
H1346 C1364 0.951 . S
H1347 C1366 0.951 . S
H1348 C1368 0.950 . S
H1349 C1369 0.950 . S
H1350 C1371 0.950 . S
H1351 C1374 0.950 . S
H1352 C1375 0.950 . S
H1353 C1377 0.950 . S
H1354 C1378 0.950 . S
H1355 C1379 0.951 . S
H1356 C1381 0.951 . S
H1357 C1383 0.950 . S
H1358 C1384 0.950 . S
H1359 C1386 0.950 . S
H1360 C1389 0.950 . S
H1361 C1390 0.950 . S
H1362 C1392 0.950 . S
H1363 C1393 0.950 . S
C1364 H1346 0.951 . S
C1364 C1365 1.366 . S
C1364 C1366 1.388 . S
C1365 C1364 1.366 . S
C1365 C1369 1.385 . S
C1366 H1347 0.951 . S
C1366 C1364 1.388 . S
C1366 C1367 1.366 . S
C1367 C1366 1.366 . S
C1367 C1368 1.414 . S
C1367 C1370 1.499 . S
C1368 H1348 0.950 . S
C1368 C1367 1.414 . S
C1368 C1369 1.374 . S
C1369 H1349 0.950 . S
C1369 C1365 1.385 . S
C1369 C1368 1.374 . S
C1370 C1367 1.499 . S
C1370 C1371 1.373 . S
C1370 C1372 1.389 . S
C1371 H1350 0.950 . S
C1371 C1370 1.373 . S
C1371 C1387 1.377 . S
C1372 C1370 1.389 . S
C1372 C1373 1.524 . S
C1372 C1386 1.377 . S
C1373 C1372 1.524 . S
C1373 C1374 1.397 . S
C1373 C1378 1.363 . S
C1374 H1351 0.950 . S
C1374 C1373 1.397 . S
C1374 C1375 1.334 . S
C1375 H1352 0.950 . S
C1375 C1374 1.334 . S
C1375 C1376 1.287 . S
C1376 C1375 1.287 . S
C1376 C1377 1.524 . S
C1376 H1395 0.913 . S
C1377 H1353 0.950 . S
C1377 C1376 1.524 . S
C1377 C1378 1.415 . S
C1378 H1354 0.950 . S
C1378 C1373 1.363 . S
C1378 C1377 1.415 . S
C1379 H1355 0.951 . S
C1379 C1380 1.366 . S
C1379 C1381 1.388 . S
C1380 C1379 1.366 . S
C1380 C1384 1.385 . S
C1381 H1356 0.951 . S
C1381 C1379 1.388 . S
C1381 C1382 1.366 . S
C1382 C1381 1.366 . S
C1382 C1383 1.414 . S
C1382 C1385 1.499 . S
C1383 H1357 0.950 . S
C1383 C1382 1.414 . S
C1383 C1384 1.374 . S
C1384 H1358 0.950 . S
C1384 C1380 1.385 . S
C1384 C1383 1.374 . S
C1385 C1382 1.499 . S
C1385 C1386 1.373 . S
C1385 C1387 1.389 . S
C1386 H1359 0.950 . S
C1386 C1372 1.377 . S
C1386 C1385 1.373 . S
C1387 C1371 1.377 . S
C1387 C1385 1.389 . S
C1387 C1388 1.524 . S
C1388 C1387 1.524 . S
C1388 C1389 1.397 . S
C1388 C1393 1.363 . S
C1389 H1360 0.950 . S
C1389 C1388 1.397 . S
C1389 C1390 1.334 . S
C1390 H1361 0.950 . S
C1390 C1389 1.334 . S
C1390 C1391 1.287 . S
C1391 C1390 1.287 . S
C1391 C1392 1.524 . S
C1391 H1394 0.999 . S
C1392 H1362 0.950 . S
C1392 C1391 1.524 . S
C1392 C1393 1.415 . S
C1393 H1363 0.950 . S
C1393 C1388 1.363 . S
C1393 C1392 1.415 . S
H1394 C1391 0.999 . S
H1395 C1376 0.913 . S
H1396 C1414 0.951 . S
H1397 C1416 0.951 . S
H1398 C1418 0.950 . S
H1399 C1419 0.950 . S
H1400 C1421 0.950 . S
H1401 C1424 0.950 . S
H1402 C1425 0.950 . S
H1403 C1427 0.950 . S
H1404 C1428 0.950 . S
H1405 C1429 0.951 . S
H1406 C1431 0.951 . S
H1407 C1433 0.950 . S
H1408 C1434 0.950 . S
H1409 C1436 0.950 . S
H1410 C1439 0.950 . S
H1411 C1440 0.950 . S
H1412 C1442 0.950 . S
H1413 C1443 0.950 . S
C1414 H1396 0.951 . S
C1414 C1415 1.366 . S
C1414 C1416 1.388 . S
C1415 C1414 1.366 . S
C1415 C1419 1.385 . S
C1416 H1397 0.951 . S
C1416 C1414 1.388 . S
C1416 C1417 1.366 . S
C1417 C1416 1.366 . S
C1417 C1418 1.414 . S
C1417 C1420 1.499 . S
C1418 H1398 0.950 . S
C1418 C1417 1.414 . S
C1418 C1419 1.374 . S
C1419 H1399 0.950 . S
C1419 C1415 1.385 . S
C1419 C1418 1.374 . S
C1420 C1417 1.499 . S
C1420 C1421 1.373 . S
C1420 C1422 1.389 . S
C1421 H1400 0.950 . S
C1421 C1420 1.373 . S
C1421 C1437 1.377 . S
C1422 C1420 1.389 . S
C1422 C1423 1.524 . S
C1422 C1436 1.377 . S
C1423 C1422 1.524 . S
C1423 C1424 1.397 . S
C1423 C1428 1.363 . S
C1424 H1401 0.950 . S
C1424 C1423 1.397 . S
C1424 C1425 1.334 . S
C1425 H1402 0.950 . S
C1425 C1424 1.334 . S
C1425 C1426 1.287 . S
C1426 C1425 1.287 . S
C1426 C1427 1.524 . S
C1426 H1445 0.913 . S
C1427 H1403 0.950 . S
C1427 C1426 1.524 . S
C1427 C1428 1.415 . S
C1428 H1404 0.950 . S
C1428 C1423 1.363 . S
C1428 C1427 1.415 . S
C1429 H1405 0.951 . S
C1429 C1430 1.366 . S
C1429 C1431 1.388 . S
C1430 C1429 1.366 . S
C1430 C1434 1.385 . S
C1431 H1406 0.951 . S
C1431 C1429 1.388 . S
C1431 C1432 1.366 . S
C1432 C1431 1.366 . S
C1432 C1433 1.414 . S
C1432 C1435 1.499 . S
C1433 H1407 0.950 . S
C1433 C1432 1.414 . S
C1433 C1434 1.374 . S
C1434 H1408 0.950 . S
C1434 C1430 1.385 . S
C1434 C1433 1.374 . S
C1435 C1432 1.499 . S
C1435 C1436 1.373 . S
C1435 C1437 1.389 . S
C1436 H1409 0.950 . S
C1436 C1422 1.377 . S
C1436 C1435 1.373 . S
C1437 C1421 1.377 . S
C1437 C1435 1.389 . S
C1437 C1438 1.524 . S
C1438 C1437 1.524 . S
C1438 C1439 1.397 . S
C1438 C1443 1.363 . S
C1439 H1410 0.950 . S
C1439 C1438 1.397 . S
C1439 C1440 1.334 . S
C1440 H1411 0.950 . S
C1440 C1439 1.334 . S
C1440 C1441 1.287 . S
C1441 C1440 1.287 . S
C1441 C1442 1.524 . S
C1441 H1444 0.999 . S
C1442 H1412 0.950 . S
C1442 C1441 1.524 . S
C1442 C1443 1.415 . S
C1443 H1413 0.950 . S
C1443 C1438 1.363 . S
C1443 C1442 1.415 . S
H1444 C1441 0.999 . S
H1445 C1426 0.913 . S
H1446 C1464 0.951 . S
H1447 C1466 0.951 . S
H1448 C1468 0.950 . S
H1449 C1469 0.950 . S
H1450 C1471 0.950 . S
H1451 C1474 0.950 . S
H1452 C1475 0.950 . S
H1453 C1477 0.950 . S
H1454 C1478 0.950 . S
H1455 C1479 0.951 . S
H1456 C1481 0.951 . S
H1457 C1483 0.950 . S
H1458 C1484 0.950 . S
H1459 C1486 0.950 . S
H1460 C1489 0.950 . S
H1461 C1490 0.950 . S
H1462 C1492 0.950 . S
H1463 C1493 0.950 . S
C1464 H1446 0.951 . S
C1464 C1465 1.366 . S
C1464 C1466 1.388 . S
C1465 C1464 1.366 . S
C1465 C1469 1.385 . S
C1466 H1447 0.951 . S
C1466 C1464 1.388 . S
C1466 C1467 1.366 . S
C1467 C1466 1.366 . S
C1467 C1468 1.414 . S
C1467 C1470 1.499 . S
C1468 H1448 0.950 . S
C1468 C1467 1.414 . S
C1468 C1469 1.374 . S
C1469 H1449 0.950 . S
C1469 C1465 1.385 . S
C1469 C1468 1.374 . S
C1470 C1467 1.499 . S
C1470 C1471 1.373 . S
C1470 C1472 1.389 . S
C1471 H1450 0.950 . S
C1471 C1470 1.373 . S
C1471 C1487 1.377 . S
C1472 C1470 1.389 . S
C1472 C1473 1.524 . S
C1472 C1486 1.377 . S
C1473 C1472 1.524 . S
C1473 C1474 1.397 . S
C1473 C1478 1.363 . S
C1474 H1451 0.950 . S
C1474 C1473 1.397 . S
C1474 C1475 1.334 . S
C1475 H1452 0.950 . S
C1475 C1474 1.334 . S
C1475 C1476 1.287 . S
C1476 C1475 1.287 . S
C1476 C1477 1.524 . S
C1476 H1495 0.913 . S
C1477 H1453 0.950 . S
C1477 C1476 1.524 . S
C1477 C1478 1.415 . S
C1478 H1454 0.950 . S
C1478 C1473 1.363 . S
C1478 C1477 1.415 . S
C1479 H1455 0.951 . S
C1479 C1480 1.366 . S
C1479 C1481 1.388 . S
C1480 C1479 1.366 . S
C1480 C1484 1.385 . S
C1481 H1456 0.951 . S
C1481 C1479 1.388 . S
C1481 C1482 1.366 . S
C1482 C1481 1.366 . S
C1482 C1483 1.414 . S
C1482 C1485 1.499 . S
C1483 H1457 0.950 . S
C1483 C1482 1.414 . S
C1483 C1484 1.374 . S
C1484 H1458 0.950 . S
C1484 C1480 1.385 . S
C1484 C1483 1.374 . S
C1485 C1482 1.499 . S
C1485 C1486 1.373 . S
C1485 C1487 1.389 . S
C1486 H1459 0.950 . S
C1486 C1472 1.377 . S
C1486 C1485 1.373 . S
C1487 C1471 1.377 . S
C1487 C1485 1.389 . S
C1487 C1488 1.524 . S
C1488 C1487 1.524 . S
C1488 C1489 1.397 . S
C1488 C1493 1.363 . S
C1489 H1460 0.950 . S
C1489 C1488 1.397 . S
C1489 C1490 1.334 . S
C1490 H1461 0.950 . S
C1490 C1489 1.334 . S
C1490 C1491 1.287 . S
C1491 C1490 1.287 . S
C1491 C1492 1.524 . S
C1491 H1494 0.999 . S
C1492 H1462 0.950 . S
C1492 C1491 1.524 . S
C1492 C1493 1.415 . S
C1493 H1463 0.950 . S
C1493 C1488 1.363 . S
C1493 C1492 1.415 . S
H1494 C1491 0.999 . S
H1495 C1476 0.913 . S
H1496 C1514 0.951 . S
H1497 C1516 0.951 . S
H1498 C1518 0.950 . S
H1499 C1519 0.950 . S
H1500 C1521 0.950 . S
H1501 C1524 0.950 . S
H1502 C1525 0.950 . S
H1503 C1527 0.950 . S
H1504 C1528 0.950 . S
H1505 C1529 0.951 . S
H1506 C1531 0.951 . S
H1507 C1533 0.950 . S
H1508 C1534 0.950 . S
H1509 C1536 0.950 . S
H1510 C1539 0.950 . S
H1511 C1540 0.950 . S
H1512 C1542 0.950 . S
H1513 C1543 0.950 . S
C1514 H1496 0.951 . S
C1514 C1515 1.366 . S
C1514 C1516 1.388 . S
C1515 C1514 1.366 . S
C1515 C1519 1.385 . S
C1516 H1497 0.951 . S
C1516 C1514 1.388 . S
C1516 C1517 1.366 . S
C1517 C1516 1.366 . S
C1517 C1518 1.414 . S
C1517 C1520 1.499 . S
C1518 H1498 0.950 . S
C1518 C1517 1.414 . S
C1518 C1519 1.374 . S
C1519 H1499 0.950 . S
C1519 C1515 1.385 . S
C1519 C1518 1.374 . S
C1520 C1517 1.499 . S
C1520 C1521 1.373 . S
C1520 C1522 1.389 . S
C1521 H1500 0.950 . S
C1521 C1520 1.373 . S
C1521 C1537 1.377 . S
C1522 C1520 1.389 . S
C1522 C1523 1.524 . S
C1522 C1536 1.377 . S
C1523 C1522 1.524 . S
C1523 C1524 1.397 . S
C1523 C1528 1.363 . S
C1524 H1501 0.950 . S
C1524 C1523 1.397 . S
C1524 C1525 1.334 . S
C1525 H1502 0.950 . S
C1525 C1524 1.334 . S
C1525 C1526 1.287 . S
C1526 C1525 1.287 . S
C1526 C1527 1.524 . S
C1526 H1545 0.913 . S
C1527 H1503 0.950 . S
C1527 C1526 1.524 . S
C1527 C1528 1.415 . S
C1528 H1504 0.950 . S
C1528 C1523 1.363 . S
C1528 C1527 1.415 . S
C1529 H1505 0.951 . S
C1529 C1530 1.366 . S
C1529 C1531 1.388 . S
C1530 C1529 1.366 . S
C1530 C1534 1.385 . S
C1531 H1506 0.951 . S
C1531 C1529 1.388 . S
C1531 C1532 1.366 . S
C1532 C1531 1.366 . S
C1532 C1533 1.414 . S
C1532 C1535 1.499 . S
C1533 H1507 0.950 . S
C1533 C1532 1.414 . S
C1533 C1534 1.374 . S
C1534 H1508 0.950 . S
C1534 C1530 1.385 . S
C1534 C1533 1.374 . S
C1535 C1532 1.499 . S
C1535 C1536 1.373 . S
C1535 C1537 1.389 . S
C1536 H1509 0.950 . S
C1536 C1522 1.377 . S
C1536 C1535 1.373 . S
C1537 C1521 1.377 . S
C1537 C1535 1.389 . S
C1537 C1538 1.524 . S
C1538 C1537 1.524 . S
C1538 C1539 1.397 . S
C1538 C1543 1.363 . S
C1539 H1510 0.950 . S
C1539 C1538 1.397 . S
C1539 C1540 1.334 . S
C1540 H1511 0.950 . S
C1540 C1539 1.334 . S
C1540 C1541 1.287 . S
C1541 C1540 1.287 . S
C1541 C1542 1.524 . S
C1541 H1544 0.999 . S
C1542 H1512 0.950 . S
C1542 C1541 1.524 . S
C1542 C1543 1.415 . S
C1543 H1513 0.950 . S
C1543 C1538 1.363 . S
C1543 C1542 1.415 . S
H1544 C1541 0.999 . S
H1545 C1526 0.913 . S
H1546 C1564 0.951 . S
H1547 C1566 0.951 . S
H1548 C1568 0.950 . S
H1549 C1569 0.950 . S
H1550 C1571 0.950 . S
H1551 C1574 0.950 . S
H1552 C1575 0.950 . S
H1553 C1577 0.950 . S
H1554 C1578 0.950 . S
H1555 C1579 0.951 . S
H1556 C1581 0.951 . S
H1557 C1583 0.950 . S
H1558 C1584 0.950 . S
H1559 C1586 0.950 . S
H1560 C1589 0.950 . S
H1561 C1590 0.950 . S
H1562 C1592 0.950 . S
H1563 C1593 0.950 . S
C1564 H1546 0.951 . S
C1564 C1565 1.366 . S
C1564 C1566 1.388 . S
C1565 C1564 1.366 . S
C1565 C1569 1.385 . S
C1566 H1547 0.951 . S
C1566 C1564 1.388 . S
C1566 C1567 1.366 . S
C1567 C1566 1.366 . S
C1567 C1568 1.414 . S
C1567 C1570 1.499 . S
C1568 H1548 0.950 . S
C1568 C1567 1.414 . S
C1568 C1569 1.374 . S
C1569 H1549 0.950 . S
C1569 C1565 1.385 . S
C1569 C1568 1.374 . S
C1570 C1567 1.499 . S
C1570 C1571 1.373 . S
C1570 C1572 1.389 . S
C1571 H1550 0.950 . S
C1571 C1570 1.373 . S
C1571 C1587 1.377 . S
C1572 C1570 1.389 . S
C1572 C1573 1.524 . S
C1572 C1586 1.377 . S
C1573 C1572 1.524 . S
C1573 C1574 1.397 . S
C1573 C1578 1.363 . S
C1574 H1551 0.950 . S
C1574 C1573 1.397 . S
C1574 C1575 1.334 . S
C1575 H1552 0.950 . S
C1575 C1574 1.334 . S
C1575 C1576 1.287 . S
C1576 C1575 1.287 . S
C1576 C1577 1.524 . S
C1576 H1595 0.913 . S
C1577 H1553 0.950 . S
C1577 C1576 1.524 . S
C1577 C1578 1.415 . S
C1578 H1554 0.950 . S
C1578 C1573 1.363 . S
C1578 C1577 1.415 . S
C1579 H1555 0.951 . S
C1579 C1580 1.366 . S
C1579 C1581 1.388 . S
C1580 C1579 1.366 . S
C1580 C1584 1.385 . S
C1581 H1556 0.951 . S
C1581 C1579 1.388 . S
C1581 C1582 1.366 . S
C1582 C1581 1.366 . S
C1582 C1583 1.414 . S
C1582 C1585 1.499 . S
C1583 H1557 0.950 . S
C1583 C1582 1.414 . S
C1583 C1584 1.374 . S
C1584 H1558 0.950 . S
C1584 C1580 1.385 . S
C1584 C1583 1.374 . S
C1585 C1582 1.499 . S
C1585 C1586 1.373 . S
C1585 C1587 1.389 . S
C1586 H1559 0.950 . S
C1586 C1572 1.377 . S
C1586 C1585 1.373 . S
C1587 C1571 1.377 . S
C1587 C1585 1.389 . S
C1587 C1588 1.524 . S
C1588 C1587 1.524 . S
C1588 C1589 1.397 . S
C1588 C1593 1.363 . S
C1589 H1560 0.950 . S
C1589 C1588 1.397 . S
C1589 C1590 1.334 . S
C1590 H1561 0.950 . S
C1590 C1589 1.334 . S
C1590 C1591 1.287 . S
C1591 C1590 1.287 . S
C1591 C1592 1.524 . S
C1591 H1594 0.999 . S
C1592 H1562 0.950 . S
C1592 C1591 1.524 . S
C1592 C1593 1.415 . S
C1593 H1563 0.950 . S
C1593 C1588 1.363 . S
C1593 C1592 1.415 . S
H1594 C1591 0.999 . S
H1595 C1576 0.913 . S
H1596 C1614 0.951 . S
H1597 C1616 0.951 . S
H1598 C1618 0.950 . S
H1599 C1619 0.950 . S
H1600 C1621 0.950 . S
H1601 C1624 0.950 . S
H1602 C1625 0.950 . S
H1603 C1627 0.950 . S
H1604 C1628 0.950 . S
H1605 C1629 0.951 . S
H1606 C1631 0.951 . S
H1607 C1633 0.950 . S
H1608 C1634 0.950 . S
H1609 C1636 0.950 . S
H1610 C1639 0.950 . S
H1611 C1640 0.950 . S
H1612 C1642 0.950 . S
H1613 C1643 0.950 . S
C1614 H1596 0.951 . S
C1614 C1615 1.366 . S
C1614 C1616 1.388 . S
C1615 C1614 1.366 . S
C1615 C1619 1.385 . S
C1616 H1597 0.951 . S
C1616 C1614 1.388 . S
C1616 C1617 1.366 . S
C1617 C1616 1.366 . S
C1617 C1618 1.414 . S
C1617 C1620 1.499 . S
C1618 H1598 0.950 . S
C1618 C1617 1.414 . S
C1618 C1619 1.374 . S
C1619 H1599 0.950 . S
C1619 C1615 1.385 . S
C1619 C1618 1.374 . S
C1620 C1617 1.499 . S
C1620 C1621 1.373 . S
C1620 C1622 1.389 . S
C1621 H1600 0.950 . S
C1621 C1620 1.373 . S
C1621 C1637 1.377 . S
C1622 C1620 1.389 . S
C1622 C1623 1.524 . S
C1622 C1636 1.377 . S
C1623 C1622 1.524 . S
C1623 C1624 1.397 . S
C1623 C1628 1.363 . S
C1624 H1601 0.950 . S
C1624 C1623 1.397 . S
C1624 C1625 1.334 . S
C1625 H1602 0.950 . S
C1625 C1624 1.334 . S
C1625 C1626 1.287 . S
C1626 C1625 1.287 . S
C1626 C1627 1.524 . S
C1626 H1645 0.913 . S
C1627 H1603 0.950 . S
C1627 C1626 1.524 . S
C1627 C1628 1.415 . S
C1628 H1604 0.950 . S
C1628 C1623 1.363 . S
C1628 C1627 1.415 . S
C1629 H1605 0.951 . S
C1629 C1630 1.366 . S
C1629 C1631 1.388 . S
C1630 C1629 1.366 . S
C1630 C1634 1.385 . S
C1631 H1606 0.951 . S
C1631 C1629 1.388 . S
C1631 C1632 1.366 . S
C1632 C1631 1.366 . S
C1632 C1633 1.414 . S
C1632 C1635 1.499 . S
C1633 H1607 0.950 . S
C1633 C1632 1.414 . S
C1633 C1634 1.374 . S
C1634 H1608 0.950 . S
C1634 C1630 1.385 . S
C1634 C1633 1.374 . S
C1635 C1632 1.499 . S
C1635 C1636 1.373 . S
C1635 C1637 1.389 . S
C1636 H1609 0.950 . S
C1636 C1622 1.377 . S
C1636 C1635 1.373 . S
C1637 C1621 1.377 . S
C1637 C1635 1.389 . S
C1637 C1638 1.524 . S
C1638 C1637 1.524 . S
C1638 C1639 1.397 . S
C1638 C1643 1.363 . S
C1639 H1610 0.950 . S
C1639 C1638 1.397 . S
C1639 C1640 1.334 . S
C1640 H1611 0.950 . S
C1640 C1639 1.334 . S
C1640 C1641 1.287 . S
C1641 C1640 1.287 . S
C1641 C1642 1.524 . S
C1641 H1644 0.999 . S
C1642 H1612 0.950 . S
C1642 C1641 1.524 . S
C1642 C1643 1.415 . S
C1643 H1613 0.950 . S
C1643 C1638 1.363 . S
C1643 C1642 1.415 . S
H1644 C1641 0.999 . S
H1645 C1626 0.913 . S
H1646 C1664 0.951 . S
H1647 C1666 0.951 . S
H1648 C1668 0.950 . S
H1649 C1669 0.950 . S
H1650 C1671 0.950 . S
H1651 C1674 0.950 . S
H1652 C1675 0.950 . S
H1653 C1677 0.950 . S
H1654 C1678 0.950 . S
H1655 C1679 0.951 . S
H1656 C1681 0.951 . S
H1657 C1683 0.950 . S
H1658 C1684 0.950 . S
H1659 C1686 0.950 . S
H1660 C1689 0.950 . S
H1661 C1690 0.950 . S
H1662 C1692 0.950 . S
H1663 C1693 0.950 . S
C1664 H1646 0.951 . S
C1664 C1665 1.366 . S
C1664 C1666 1.388 . S
C1665 C1664 1.366 . S
C1665 C1669 1.385 . S
C1666 H1647 0.951 . S
C1666 C1664 1.388 . S
C1666 C1667 1.366 . S
C1667 C1666 1.366 . S
C1667 C1668 1.414 . S
C1667 C1670 1.499 . S
C1668 H1648 0.950 . S
C1668 C1667 1.414 . S
C1668 C1669 1.374 . S
C1669 H1649 0.950 . S
C1669 C1665 1.385 . S
C1669 C1668 1.374 . S
C1670 C1667 1.499 . S
C1670 C1671 1.373 . S
C1670 C1672 1.389 . S
C1671 H1650 0.950 . S
C1671 C1670 1.373 . S
C1671 C1687 1.377 . S
C1672 C1670 1.389 . S
C1672 C1673 1.524 . S
C1672 C1686 1.377 . S
C1673 C1672 1.524 . S
C1673 C1674 1.397 . S
C1673 C1678 1.363 . S
C1674 H1651 0.950 . S
C1674 C1673 1.397 . S
C1674 C1675 1.334 . S
C1675 H1652 0.950 . S
C1675 C1674 1.334 . S
C1675 C1676 1.287 . S
C1676 C1675 1.287 . S
C1676 C1677 1.524 . S
C1676 H1695 0.913 . S
C1677 H1653 0.950 . S
C1677 C1676 1.524 . S
C1677 C1678 1.415 . S
C1678 H1654 0.950 . S
C1678 C1673 1.363 . S
C1678 C1677 1.415 . S
C1679 H1655 0.951 . S
C1679 C1680 1.366 . S
C1679 C1681 1.388 . S
C1680 C1679 1.366 . S
C1680 C1684 1.385 . S
C1681 H1656 0.951 . S
C1681 C1679 1.388 . S
C1681 C1682 1.366 . S
C1682 C1681 1.366 . S
C1682 C1683 1.414 . S
C1682 C1685 1.499 . S
C1683 H1657 0.950 . S
C1683 C1682 1.414 . S
C1683 C1684 1.374 . S
C1684 H1658 0.950 . S
C1684 C1680 1.385 . S
C1684 C1683 1.374 . S
C1685 C1682 1.499 . S
C1685 C1686 1.373 . S
C1685 C1687 1.389 . S
C1686 H1659 0.950 . S
C1686 C1672 1.377 . S
C1686 C1685 1.373 . S
C1687 C1671 1.377 . S
C1687 C1685 1.389 . S
C1687 C1688 1.524 . S
C1688 C1687 1.524 . S
C1688 C1689 1.397 . S
C1688 C1693 1.363 . S
C1689 H1660 0.950 . S
C1689 C1688 1.397 . S
C1689 C1690 1.334 . S
C1690 H1661 0.950 . S
C1690 C1689 1.334 . S
C1690 C1691 1.287 . S
C1691 C1690 1.287 . S
C1691 C1692 1.524 . S
C1691 H1694 0.999 . S
C1692 H1662 0.950 . S
C1692 C1691 1.524 . S
C1692 C1693 1.415 . S
C1693 H1663 0.950 . S
C1693 C1688 1.363 . S
C1693 C1692 1.415 . S
H1694 C1691 0.999 . S
H1695 C1676 0.913 . S
H1696 C1714 0.951 . S
H1697 C1716 0.951 . S
H1698 C1718 0.950 . S
H1699 C1719 0.950 . S
H1700 C1721 0.950 . S
H1701 C1724 0.950 . S
H1702 C1725 0.950 . S
H1703 C1727 0.950 . S
H1704 C1728 0.950 . S
H1705 C1729 0.951 . S
H1706 C1731 0.951 . S
H1707 C1733 0.950 . S
H1708 C1734 0.950 . S
H1709 C1736 0.950 . S
H1710 C1739 0.950 . S
H1711 C1740 0.950 . S
H1712 C1742 0.950 . S
H1713 C1743 0.950 . S
C1714 H1696 0.951 . S
C1714 C1715 1.366 . S
C1714 C1716 1.388 . S
C1715 C1714 1.366 . S
C1715 C1719 1.385 . S
C1716 H1697 0.951 . S
C1716 C1714 1.388 . S
C1716 C1717 1.366 . S
C1717 C1716 1.366 . S
C1717 C1718 1.414 . S
C1717 C1720 1.499 . S
C1718 H1698 0.950 . S
C1718 C1717 1.414 . S
C1718 C1719 1.374 . S
C1719 H1699 0.950 . S
C1719 C1715 1.385 . S
C1719 C1718 1.374 . S
C1720 C1717 1.499 . S
C1720 C1721 1.373 . S
C1720 C1722 1.389 . S
C1721 H1700 0.950 . S
C1721 C1720 1.373 . S
C1721 C1737 1.377 . S
C1722 C1720 1.389 . S
C1722 C1723 1.524 . S
C1722 C1736 1.377 . S
C1723 C1722 1.524 . S
C1723 C1724 1.397 . S
C1723 C1728 1.363 . S
C1724 H1701 0.950 . S
C1724 C1723 1.397 . S
C1724 C1725 1.334 . S
C1725 H1702 0.950 . S
C1725 C1724 1.334 . S
C1725 C1726 1.287 . S
C1726 C1725 1.287 . S
C1726 C1727 1.524 . S
C1726 H1745 0.913 . S
C1727 H1703 0.950 . S
C1727 C1726 1.524 . S
C1727 C1728 1.415 . S
C1728 H1704 0.950 . S
C1728 C1723 1.363 . S
C1728 C1727 1.415 . S
C1729 H1705 0.951 . S
C1729 C1730 1.366 . S
C1729 C1731 1.388 . S
C1730 C1729 1.366 . S
C1730 C1734 1.385 . S
C1731 H1706 0.951 . S
C1731 C1729 1.388 . S
C1731 C1732 1.366 . S
C1732 C1731 1.366 . S
C1732 C1733 1.414 . S
C1732 C1735 1.499 . S
C1733 H1707 0.950 . S
C1733 C1732 1.414 . S
C1733 C1734 1.374 . S
C1734 H1708 0.950 . S
C1734 C1730 1.385 . S
C1734 C1733 1.374 . S
C1735 C1732 1.499 . S
C1735 C1736 1.373 . S
C1735 C1737 1.389 . S
C1736 H1709 0.950 . S
C1736 C1722 1.377 . S
C1736 C1735 1.373 . S
C1737 C1721 1.377 . S
C1737 C1735 1.389 . S
C1737 C1738 1.524 . S
C1738 C1737 1.524 . S
C1738 C1739 1.397 . S
C1738 C1743 1.363 . S
C1739 H1710 0.950 . S
C1739 C1738 1.397 . S
C1739 C1740 1.334 . S
C1740 H1711 0.950 . S
C1740 C1739 1.334 . S
C1740 C1741 1.287 . S
C1741 C1740 1.287 . S
C1741 C1742 1.524 . S
C1741 H1744 0.999 . S
C1742 H1712 0.950 . S
C1742 C1741 1.524 . S
C1742 C1743 1.415 . S
C1743 H1713 0.950 . S
C1743 C1738 1.363 . S
C1743 C1742 1.415 . S
H1744 C1741 0.999 . S
H1745 C1726 0.913 . S
H1746 C1764 0.951 . S
H1747 C1766 0.951 . S
H1748 C1768 0.950 . S
H1749 C1769 0.950 . S
H1750 C1771 0.950 . S
H1751 C1774 0.950 . S
H1752 C1775 0.950 . S
H1753 C1777 0.950 . S
H1754 C1778 0.950 . S
H1755 C1779 0.951 . S
H1756 C1781 0.951 . S
H1757 C1783 0.950 . S
H1758 C1784 0.950 . S
H1759 C1786 0.950 . S
H1760 C1789 0.950 . S
H1761 C1790 0.950 . S
H1762 C1792 0.950 . S
H1763 C1793 0.950 . S
C1764 H1746 0.951 . S
C1764 C1765 1.366 . S
C1764 C1766 1.388 . S
C1765 C1764 1.366 . S
C1765 C1769 1.385 . S
C1766 H1747 0.951 . S
C1766 C1764 1.388 . S
C1766 C1767 1.366 . S
C1767 C1766 1.366 . S
C1767 C1768 1.414 . S
C1767 C1770 1.499 . S
C1768 H1748 0.950 . S
C1768 C1767 1.414 . S
C1768 C1769 1.374 . S
C1769 H1749 0.950 . S
C1769 C1765 1.385 . S
C1769 C1768 1.374 . S
C1770 C1767 1.499 . S
C1770 C1771 1.373 . S
C1770 C1772 1.389 . S
C1771 H1750 0.950 . S
C1771 C1770 1.373 . S
C1771 C1787 1.377 . S
C1772 C1770 1.389 . S
C1772 C1773 1.524 . S
C1772 C1786 1.377 . S
C1773 C1772 1.524 . S
C1773 C1774 1.397 . S
C1773 C1778 1.363 . S
C1774 H1751 0.950 . S
C1774 C1773 1.397 . S
C1774 C1775 1.334 . S
C1775 H1752 0.950 . S
C1775 C1774 1.334 . S
C1775 C1776 1.287 . S
C1776 C1775 1.287 . S
C1776 C1777 1.524 . S
C1776 H1795 0.913 . S
C1777 H1753 0.950 . S
C1777 C1776 1.524 . S
C1777 C1778 1.415 . S
C1778 H1754 0.950 . S
C1778 C1773 1.363 . S
C1778 C1777 1.415 . S
C1779 H1755 0.951 . S
C1779 C1780 1.366 . S
C1779 C1781 1.388 . S
C1780 C1779 1.366 . S
C1780 C1784 1.385 . S
C1781 H1756 0.951 . S
C1781 C1779 1.388 . S
C1781 C1782 1.366 . S
C1782 C1781 1.366 . S
C1782 C1783 1.414 . S
C1782 C1785 1.499 . S
C1783 H1757 0.950 . S
C1783 C1782 1.414 . S
C1783 C1784 1.374 . S
C1784 H1758 0.950 . S
C1784 C1780 1.385 . S
C1784 C1783 1.374 . S
C1785 C1782 1.499 . S
C1785 C1786 1.373 . S
C1785 C1787 1.389 . S
C1786 H1759 0.950 . S
C1786 C1772 1.377 . S
C1786 C1785 1.373 . S
C1787 C1771 1.377 . S
C1787 C1785 1.389 . S
C1787 C1788 1.524 . S
C1788 C1787 1.524 . S
C1788 C1789 1.397 . S
C1788 C1793 1.363 . S
C1789 H1760 0.950 . S
C1789 C1788 1.397 . S
C1789 C1790 1.334 . S
C1790 H1761 0.950 . S
C1790 C1789 1.334 . S
C1790 C1791 1.287 . S
C1791 C1790 1.287 . S
C1791 C1792 1.524 . S
C1791 H1794 0.999 1_556 S
C1792 H1762 0.950 . S
C1792 C1791 1.524 . S
C1792 C1793 1.415 . S
C1793 H1763 0.950 . S
C1793 C1788 1.363 . S
C1793 C1792 1.415 . S
H1794 C1791 0.999 1_554 S
H1795 C1776 0.913 . S
H1796 C1814 0.951 . S
H1797 C1816 0.951 . S
H1798 C1818 0.950 . S
H1799 C1819 0.950 . S
H1800 C1821 0.950 . S
H1801 C1824 0.950 . S
H1802 C1825 0.950 . S
H1803 C1827 0.950 . S
H1804 C1828 0.950 . S
H1805 C1829 0.951 . S
H1806 C1831 0.951 . S
H1807 C1833 0.950 . S
H1808 C1834 0.950 . S
H1809 C1836 0.950 . S
H1810 C1839 0.950 . S
H1811 C1840 0.950 . S
H1812 C1842 0.950 . S
H1813 C1843 0.950 . S
C1814 H1796 0.951 . S
C1814 C1815 1.366 . S
C1814 C1816 1.388 . S
C1815 C1814 1.366 . S
C1815 C1819 1.385 . S
C1816 H1797 0.951 . S
C1816 C1814 1.388 . S
C1816 C1817 1.366 . S
C1817 C1816 1.366 . S
C1817 C1818 1.414 . S
C1817 C1820 1.499 . S
C1818 H1798 0.950 . S
C1818 C1817 1.414 . S
C1818 C1819 1.374 . S
C1819 H1799 0.950 . S
C1819 C1815 1.385 . S
C1819 C1818 1.374 . S
C1820 C1817 1.499 . S
C1820 C1821 1.373 . S
C1820 C1822 1.389 . S
C1821 H1800 0.950 . S
C1821 C1820 1.373 . S
C1821 C1837 1.377 . S
C1822 C1820 1.389 . S
C1822 C1823 1.524 . S
C1822 C1836 1.377 . S
C1823 C1822 1.524 . S
C1823 C1824 1.397 . S
C1823 C1828 1.363 . S
C1824 H1801 0.950 . S
C1824 C1823 1.397 . S
C1824 C1825 1.334 . S
C1825 H1802 0.950 . S
C1825 C1824 1.334 . S
C1825 C1826 1.287 . S
C1826 C1825 1.287 . S
C1826 C1827 1.524 . S
C1826 H1845 0.913 . S
C1827 H1803 0.950 . S
C1827 C1826 1.524 . S
C1827 C1828 1.415 . S
C1828 H1804 0.950 . S
C1828 C1823 1.363 . S
C1828 C1827 1.415 . S
C1829 H1805 0.951 . S
C1829 C1830 1.366 . S
C1829 C1831 1.388 . S
C1830 C1829 1.366 . S
C1830 C1834 1.385 . S
C1831 H1806 0.951 . S
C1831 C1829 1.388 . S
C1831 C1832 1.366 . S
C1832 C1831 1.366 . S
C1832 C1833 1.414 . S
C1832 C1835 1.499 . S
C1833 H1807 0.950 . S
C1833 C1832 1.414 . S
C1833 C1834 1.374 . S
C1834 H1808 0.950 . S
C1834 C1830 1.385 . S
C1834 C1833 1.374 . S
C1835 C1832 1.499 . S
C1835 C1836 1.373 . S
C1835 C1837 1.389 . S
C1836 H1809 0.950 . S
C1836 C1822 1.377 . S
C1836 C1835 1.373 . S
C1837 C1821 1.377 . S
C1837 C1835 1.389 . S
C1837 C1838 1.524 . S
C1838 C1837 1.524 . S
C1838 C1839 1.397 . S
C1838 C1843 1.363 . S
C1839 H1810 0.950 . S
C1839 C1838 1.397 . S
C1839 C1840 1.334 . S
C1840 H1811 0.950 . S
C1840 C1839 1.334 . S
C1840 C1841 1.287 . S
C1841 C1840 1.287 . S
C1841 C1842 1.524 . S
C1841 H1844 0.999 . S
C1842 H1812 0.950 . S
C1842 C1841 1.524 . S
C1842 C1843 1.415 . S
C1843 H1813 0.950 . S
C1843 C1838 1.363 . S
C1843 C1842 1.415 . S
H1844 C1841 0.999 . S
H1845 C1826 0.913 . S
H1846 C1864 0.951 . S
H1847 C1866 0.951 . S
H1848 C1868 0.950 . S
H1849 C1869 0.950 . S
H1850 C1871 0.950 . S
H1851 C1874 0.950 . S
H1852 C1875 0.950 . S
H1853 C1877 0.950 . S
H1854 C1878 0.950 . S
H1855 C1879 0.951 . S
H1856 C1881 0.951 . S
H1857 C1883 0.950 . S
H1858 C1884 0.950 . S
H1859 C1886 0.950 . S
H1860 C1889 0.950 . S
H1861 C1890 0.950 . S
H1862 C1892 0.950 . S
H1863 C1893 0.950 . S
C1864 H1846 0.951 . S
C1864 C1865 1.366 . S
C1864 C1866 1.388 . S
C1865 C1864 1.366 . S
C1865 C1869 1.385 . S
C1866 H1847 0.951 . S
C1866 C1864 1.388 . S
C1866 C1867 1.366 . S
C1867 C1866 1.366 . S
C1867 C1868 1.414 . S
C1867 C1870 1.499 . S
C1868 H1848 0.950 . S
C1868 C1867 1.414 . S
C1868 C1869 1.374 . S
C1869 H1849 0.950 . S
C1869 C1865 1.385 . S
C1869 C1868 1.374 . S
C1870 C1867 1.499 . S
C1870 C1871 1.373 . S
C1870 C1872 1.389 . S
C1871 H1850 0.950 . S
C1871 C1870 1.373 . S
C1871 C1887 1.377 . S
C1872 C1870 1.389 . S
C1872 C1873 1.524 . S
C1872 C1886 1.377 . S
C1873 C1872 1.524 . S
C1873 C1874 1.397 . S
C1873 C1878 1.363 . S
C1874 H1851 0.950 . S
C1874 C1873 1.397 . S
C1874 C1875 1.334 . S
C1875 H1852 0.950 . S
C1875 C1874 1.334 . S
C1875 C1876 1.287 . S
C1876 C1875 1.287 . S
C1876 C1877 1.524 . S
C1876 H1895 0.913 . S
C1877 H1853 0.950 . S
C1877 C1876 1.524 . S
C1877 C1878 1.415 . S
C1878 H1854 0.950 . S
C1878 C1873 1.363 . S
C1878 C1877 1.415 . S
C1879 H1855 0.951 . S
C1879 C1880 1.366 . S
C1879 C1881 1.388 . S
C1880 C1879 1.366 . S
C1880 C1884 1.385 . S
C1881 H1856 0.951 . S
C1881 C1879 1.388 . S
C1881 C1882 1.366 . S
C1882 C1881 1.366 . S
C1882 C1883 1.414 . S
C1882 C1885 1.499 . S
C1883 H1857 0.950 . S
C1883 C1882 1.414 . S
C1883 C1884 1.374 . S
C1884 H1858 0.950 . S
C1884 C1880 1.385 . S
C1884 C1883 1.374 . S
C1885 C1882 1.499 . S
C1885 C1886 1.373 . S
C1885 C1887 1.389 . S
C1886 H1859 0.950 . S
C1886 C1872 1.377 . S
C1886 C1885 1.373 . S
C1887 C1871 1.377 . S
C1887 C1885 1.389 . S
C1887 C1888 1.524 . S
C1888 C1887 1.524 . S
C1888 C1889 1.397 . S
C1888 C1893 1.363 . S
C1889 H1860 0.950 . S
C1889 C1888 1.397 . S
C1889 C1890 1.334 . S
C1890 H1861 0.950 . S
C1890 C1889 1.334 . S
C1890 C1891 1.287 . S
C1891 C1890 1.287 . S
C1891 C1892 1.524 . S
C1891 H1894 0.999 . S
C1892 H1862 0.950 . S
C1892 C1891 1.524 . S
C1892 C1893 1.415 . S
C1893 H1863 0.950 . S
C1893 C1888 1.363 . S
C1893 C1892 1.415 . S
H1894 C1891 0.999 . S
H1895 C1876 0.913 . S
C330 C185 1.568 . S
C315 C16 1.570 . S
C380 C211 1.570 . S
C365 C30 1.576 . S
C430 C225 1.578 . S
C415 C53 1.585 . S
C480 C227 1.608 . S
C465 C76 1.616 . S
C515 N104 1.430 . S
C530 C224 1.464 . S
C580 C226 1.496 . S
C565 N127 1.460 . S
C630 C184 1.468 1_655 S
C615 N140 1.435 . S
C680 C210 1.460 1_565 S
C665 N173 1.426 . S
C730 C212 1.583 . S
C715 C168 1.587 . S
C780 C238 1.587 . S
C765 C99 1.590 . S
C830 C196 1.575 . S
C815 C122 1.579 . S
C880 C198 1.555 . S
C865 C154 1.551 . S
C930 C197 1.476 1_655 S
C915 N35 1.442 . S
C980 C199 1.461 1_565 S
C965 N58 1.424 . S
C1030 C213 1.469 . S
C1015 N81 1.434 . S
C1080 C239 1.488 . S
C1065 N2 1.455 . S
C1130 C241 1.563 . S
C1115 C177 1.565 . S
C1165 C108 1.573 . S
C1180 C267 1.569 . S
C1215 C131 1.573 . S
C1230 C280 1.572 . S
C1265 C145 1.602 . S
C1280 C283 1.595 . S
C1315 N25 1.436 . S
C1330 C281 1.469 . S
C1365 N48 1.466 . S
C1380 C282 1.495 . S
C1415 N71 1.442 . S
C1430 C240 1.474 . S
C1480 C266 1.476 . S
C1465 N12 1.439 . S
C1530 C269 1.581 . S
C1515 C7 1.585 . S
C1565 C39 1.579 . S
C1580 C294 1.582 . S
C1615 C62 1.568 . S
C1630 C252 1.571 . S
C1665 C85 1.558 . S
C1680 C254 1.560 . S
C1730 C253 1.476 . S
C1715 N94 1.438 . S
C1780 C255 1.464 . S
C1765 N117 1.430 . S
C1815 N150 1.438 . S
C1830 C268 1.473 . S
C1880 C295 1.484 . S
C1865 N163 1.448 . S
