# Generated by pormake.
# Topology pts, (4,4)-cn, num edge types: 1
# Building blocks:
#     Node 0, Type 0, BuildingBlock: MUDLON_clean_sbu_0, # of connection points: 4
#     Node 1, Type 0, BuildingBlock: MUDLON_clean_sbu_0, # of connection points: 4
#     Node 2, Type 1, BuildingBlock: UXUYUI_clean_sbu_0, # of connection points: 4
#     Node 3, Type 1, BuildingBlock: UXUYUI_clean_sbu_0, # of connection points: 4
#     Edge 4, Type (0, 1), BuildingBlock: OJICUG_clean_linker_0, # of connection points: 2
#     Edge 5, Type (0, 1), BuildingBlock: OJICUG_clean_linker_0, # of connection points: 2
#     Edge 6, Type (0, 1), BuildingBlock: OJICUG_clean_linker_0, # of connection points: 2
#     Edge 7, Type (0, 1), BuildingBlock: OJICUG_clean_linker_0, # of connection points: 2
#     Edge 8, Type (0, 1), BuildingBlock: OJICUG_clean_linker_0, # of connection points: 2
#     Edge 9, Type (0, 1), BuildingBlock: OJICUG_clean_linker_0, # of connection points: 2
#     Edge 10, Type (0, 1), BuildingBlock: OJICUG_clean_linker_0, # of connection points: 2
#     Edge 11, Type (0, 1), BuildingBlock: OJICUG_clean_linker_0, # of connection points: 2
# Relax obj value: 0.040
# Max RMSD: 0.092
# Mean RMSD: 0.080
data_MOF--net-pts--node1-MUDLON_clean_sbu_0--node2-UXUYUI_clean_sbu_0--edge1-OJICUG_clean_linker_0
_symmetry_space_group_name_H-M    P1
_symmetry_Int_Tables_number       1
_symmetry_cell_setting            triclinic
loop_
_symmetry_equiv_pos_as_xyz
'x, y, z'
_cell_length_a     22.433425
_cell_length_b     22.433182
_cell_length_c     37.561558
_cell_angle_alpha  89.712481
_cell_angle_beta   89.717986
_cell_angle_gamma 89.892037
loop_
_atom_site_label
_atom_site_type_symbol
_atom_site_fract_x
_atom_site_fract_y
_atom_site_fract_z
_atom_type_partial_charge
Mg0 Mg 0.50187 0.01078 1.01895 0.0
C1 C 0.39766 1.00751 0.97802 0.0
O2 O 0.41042 0.95418 0.99052 0.0
C3 C 0.60447 0.01328 0.06064 0.0
O4 O 0.58894 0.95822 0.05337 0.0
C5 C 0.44435 0.99515 0.08961 0.0
O6 O 0.47863 0.04166 0.09468 0.0
O7 O 0.44829 0.96724 0.06023 0.0
O8 O 0.43232 0.05042 0.98597 0.0
O9 O 0.55779 0.95939 0.98247 0.0
C10 C 0.55546 0.9676 0.94894 0.0
O11 O 0.50986 0.99629 0.93532 0.0
O12 O 0.57206 0.05563 0.0487 0.0
Mg13 Mg 1.00516 0.51382 0.52029 0.0
C14 C 0.00839 0.61805 0.56122 0.0
O15 O 0.06171 0.60539 0.54868 0.0
C16 C 1.00257 0.41125 0.47858 0.0
O17 O 0.05765 0.42675 0.48583 0.0
C18 C 0.02075 0.57137 0.44964 0.0
O19 O 0.97424 0.53709 0.44456 0.0
O20 O 0.04866 0.56743 0.47901 0.0
O21 O 0.96552 0.5833 0.55332 0.0
O22 O 0.05657 0.45781 0.55673 0.0
C23 C 0.04858 0.46018 0.59027 0.0
O24 O 0.02019 0.5059 0.60395 0.0
O25 O 0.96025 0.44367 0.49055 0.0
Li26 Li 1.00492 0.0638 0.29562 0.0
Li27 Li 1.00538 0.95509 0.28988 0.0
Li28 Li 0.06066 0.01038 0.24937 0.0
Li29 Li 0.95194 0.0108 0.24361 0.0
C30 C 0.13169 0.01855 0.30419 0.0
N31 N 0.25276 0.03974 0.30815 0.0
C32 C 0.17238 0.97275 0.29711 0.0
C33 C 0.15257 0.07503 0.31343 0.0
C34 C 0.23341 0.98441 0.29919 0.0
C35 C 0.21396 0.08484 0.31529 0.0
C36 C 0.89765 0.97702 0.31748 0.0
C37 C 0.81298 0.91258 0.32652 0.0
N38 N 0.82481 0.91088 0.362 0.0
C39 C 0.90879 0.97496 0.35403 0.0
C40 C 0.84928 0.94581 0.30356 0.0
C41 C 0.87154 0.94111 0.3761 0.0
C42 C 0.97323 0.18063 0.31965 0.0
N43 N 0.99704 0.12691 0.32873 0.0
C44 C 0.00872 0.15794 0.38896 0.0
C45 C 0.01403 0.11468 0.36263 0.0
C46 C 0.98595 0.21462 0.38035 0.0
C47 C 0.96734 0.22552 0.34521 0.0
H48 H 0.95932 0.18876 0.29251 0.0
H49 H 0.03207 0.07124 0.36913 0.0
C50 C 0.96438 0.84125 0.31791 0.0
N51 N 1.00739 0.88384 0.319 0.0
C52 C 0.96988 0.78917 0.3382 0.0
C53 C 0.06351 0.82565 0.36069 0.0
C54 C 0.05587 0.87719 0.34027 0.0
C55 C 0.02035 0.78046 0.35976 0.0
H56 H 0.92606 0.84722 0.30099 0.0
H57 H 0.08916 0.91172 0.34125 0.0
C58 C 0.03867 0.11806 0.22172 0.0
N59 N 0.10475 0.19084 0.17713 0.0
C60 C 0.0407 0.10685 0.18518 0.0
C61 C 0.06987 0.16646 0.2356 0.0
C62 C 0.07453 0.14408 0.16308 0.0
C63 C 0.10308 0.20274 0.2126 0.0
C64 C 0.9973 0.88404 0.23507 0.0
C65 C 0.04314 0.8434 0.24217 0.0
C66 C 0.94085 0.86309 0.22582 0.0
C67 C 0.03156 0.78236 0.24011 0.0
C68 C 0.93111 0.80168 0.22398 0.0
N69 N 0.97625 0.76294 0.23114 0.0
C70 C 0.17449 0.05142 0.22135 0.0
C71 C 0.13857 0.95992 0.19898 0.0
C72 C 0.22657 0.04595 0.20105 0.0
N73 N 0.13191 0.00839 0.22025 0.0
C74 C 0.19011 0.95231 0.17856 0.0
C75 C 0.23529 0.99547 0.17949 0.0
H76 H 0.16851 0.08973 0.23826 0.0
H77 H 0.10405 0.92663 0.198 0.0
C78 C 0.83514 0.04254 0.21957 0.0
N79 N 0.88884 0.01865 0.2105 0.0
C80 C 0.79025 0.04843 0.19401 0.0
C81 C 0.85776 1.00689 0.15028 0.0
C82 C 0.90102 1.00159 0.17661 0.0
C83 C 0.80111 0.02975 0.15888 0.0
H84 H 0.82705 0.05651 0.2467 0.0
H85 H 0.94444 0.98348 0.17012 0.0
O86 O 0.07174 0.00807 0.30216 0.0
O87 O 0.93388 0.00944 0.2954 0.0
O88 O 1.00628 0.08186 0.24384 0.0
O89 O 1.00771 0.944 0.23709 0.0
H90 H 0.15698 0.92889 0.28962 0.0
H91 H 0.1218 0.11109 0.31876 0.0
H92 H 0.26539 0.94953 0.29354 0.0
H93 H 0.23076 0.1284 0.32226 0.0
H94 H 0.77555 0.88795 0.31612 0.0
H95 H 0.94617 0.99874 0.36517 0.0
H96 H 0.84025 0.94673 0.27529 0.0
H97 H 0.87982 0.93878 0.40442 0.0
H98 H 0.0228 0.14722 0.41579 0.0
H99 H 0.95008 0.26869 0.33733 0.0
H100 H 0.93464 0.75634 0.33714 0.0
H101 H 0.10336 0.82104 0.37661 0.0
H102 H 0.01693 0.06945 0.17407 0.0
H103 H 0.06897 0.17555 0.26386 0.0
H104 H 0.07683 0.13574 0.13476 0.0
H105 H 0.1277 0.2402 0.22297 0.0
H106 H 0.08698 0.85886 0.24967 0.0
H107 H 0.90476 0.89381 0.22047 0.0
H108 H 0.06647 0.75042 0.24578 0.0
H109 H 0.88758 0.78483 0.217 0.0
H110 H 0.25939 0.08119 0.20211 0.0
H111 H 0.19473 0.91246 0.16263 0.0
H112 H 0.7471 0.06576 0.20188 0.0
H113 H 0.86845 0.99275 0.12347 0.0
Li114 Li 0.93724 0.02025 0.79049 0.0
Li115 Li 0.04519 0.01778 0.79607 0.0
Li116 Li 0.99538 0.07842 0.74875 0.0
Li117 Li 0.99789 0.97043 0.74322 0.0
C118 C 0.96101 0.11434 0.82854 0.0
N119 N 0.89699 0.1645 0.88392 0.0
C120 C 0.97784 0.10376 0.86379 0.0
C121 C 0.91204 0.15107 0.82147 0.0
C122 C 0.94482 0.12936 0.89141 0.0
C123 C 0.88012 0.17582 0.84982 0.0
C124 C 0.01192 0.89557 0.80774 0.0
C125 C 0.07516 0.80891 0.80138 0.0
N126 N 0.05571 0.78822 0.83345 0.0
C127 C 0.99178 0.87267 0.84036 0.0
C128 C 0.05327 0.86274 0.78787 0.0
C129 C 0.01476 0.8187 0.85302 0.0
C130 C 0.8112 0.02109 0.80492 0.0
N131 N 0.86647 0.01224 0.81858 0.0
C132 C 0.82482 0.98073 0.87425 0.0
C133 C 0.87399 0.99347 0.85268 0.0
C134 C 0.76672 0.98918 0.86111 0.0
C135 C 0.76056 0.01059 0.82593 0.0
H136 H 0.80632 0.03581 0.77765 0.0
H137 H 0.91846 0.98775 0.86302 0.0
C138 C 0.15793 0.05195 0.82276 0.0
N139 N 0.10865 0.01854 0.82975 0.0
C140 C 0.20453 0.05433 0.84732 0.0
C141 C 0.14758 0.98987 0.88635 0.0
C142 C 0.10244 0.9884 0.86099 0.0
C143 C 0.19995 0.0225 0.87952 0.0
H144 H 0.1612 0.07642 0.79794 0.0
H145 H 0.06194 0.96412 0.86653 0.0
C146 C 0.90121 0.05451 0.71071 0.0
N147 N 0.85079 0.11833 0.65534 0.0
C148 C 0.91124 0.03726 0.67547 0.0
C149 C 0.8649 0.10378 0.71776 0.0
C150 C 0.8855 0.07019 0.64785 0.0
C151 C 0.84001 0.13561 0.68942 0.0
C152 C 0.12009 1.00413 0.7314 0.0
C153 C 0.14247 0.02434 0.69866 0.0
C154 C 0.15351 0.96316 0.7512 0.0
C155 C 0.19651 1.00179 0.68583 0.0
C156 C 0.20738 0.94169 0.73753 0.0
N157 N 0.22755 0.96119 0.70535 0.0
C158 C 0.99518 0.20448 0.73439 0.0
C159 C 0.02156 0.14163 0.68643 0.0
C160 C 1.00571 0.2551 0.71338 0.0
N161 N 1.0034 0.14917 0.72063 0.0
C162 C 0.03434 0.19076 0.66484 0.0
C163 C 0.02653 0.24888 0.67807 0.0
H164 H 0.98094 0.20938 0.76175 0.0
H165 H 0.02681 0.09715 0.67601 0.0
C166 C 0.96403 0.85753 0.71659 0.0
N167 N 0.9972 0.90696 0.70954 0.0
C168 C 0.96169 0.81094 0.69203 0.0
C169 C 0.02566 0.86818 0.65287 0.0
C170 C 0.02711 0.91331 0.67824 0.0
C171 C 0.99328 0.81569 0.65976 0.0
H172 H 0.93973 0.85415 0.74147 0.0
H173 H 0.05118 0.95393 0.67266 0.0
O174 O 0.99197 0.08851 0.80114 0.0
O175 O 0.98923 0.94825 0.79475 0.0
O176 O 0.92717 0.02362 0.7381 0.0
O177 O 0.06736 0.02644 0.74456 0.0
H178 H 0.01567 0.07573 0.86983 0.0
H179 H 0.89861 0.16018 0.79443 0.0
H180 H 0.95717 0.1212 0.91882 0.0
H181 H 0.84191 0.20402 0.8447 0.0
H182 H 0.10737 0.78342 0.78624 0.0
H183 H 0.95888 0.89615 0.85595 0.0
H184 H 0.06795 0.87802 0.76204 0.0
H185 H 0.99985 0.80093 0.87836 0.0
H186 H 0.83278 0.96354 0.90075 0.0
H187 H 0.71722 0.01954 0.81458 0.0
H188 H 0.24414 0.07972 0.8408 0.0
H189 H 0.14133 0.96585 0.91116 0.0
H190 H 0.9389 0.99917 0.66944 0.0
H191 H 0.85624 0.11753 0.7448 0.0
H192 H 0.89323 0.05753 0.62046 0.0
H193 H 0.81214 0.17406 0.69453 0.0
H194 H 0.11853 0.05695 0.68311 0.0
H195 H 0.13862 0.94842 0.77711 0.0
H196 H 0.21386 0.01675 0.6604 0.0
H197 H 0.23332 0.90977 0.75262 0.0
H198 H 0.99726 0.29846 0.72482 0.0
H199 H 0.05107 0.18274 0.63824 0.0
H200 H 0.93649 0.77122 0.6986 0.0
H201 H 0.04949 0.87455 0.62801 0.0
C202 C 0.34002 0.96115 0.10212 0.0
C203 C 0.39395 0.98499 0.11436 0.0
H204 H 0.24725 0.94748 0.1125 0.0
C205 C 0.39658 1.00748 0.14914 0.0
H206 H 0.33645 0.94421 0.07526 0.0
C207 C 0.3457 0.00882 0.17069 0.0
C208 C 0.29067 0.98846 0.15778 0.0
H209 H 0.43769 0.02587 0.15935 0.0
H210 H 0.34935 0.02695 0.19725 0.0
C211 C 0.28881 0.9632 0.12352 0.0
C212 C 0.06202 0.40825 0.64875 0.0
C213 C 0.05367 0.40518 0.61182 0.0
H214 H 0.06314 0.36147 0.69837 0.0
C215 C 0.0405 0.34989 0.59645 0.0
H216 H 0.07208 0.45044 0.66126 0.0
C217 C 0.03235 0.29936 0.61779 0.0
C218 C 0.0389 0.30229 0.65507 0.0
H219 H 0.03256 0.34637 0.5681 0.0
H220 H 0.0183 0.25876 0.60491 0.0
C221 C 0.05573 0.35725 0.67006 0.0
C222 C 0.69956 0.97651 0.08574 0.0
C223 C 0.65738 0.02268 0.08321 0.0
H224 H 0.77669 0.94224 0.11162 0.0
C225 C 0.66428 0.0735 0.10449 0.0
H226 H 0.69568 0.93677 0.06964 0.0
C227 C 0.71148 0.07669 0.12888 0.0
C228 C 0.75273 0.02945 0.13195 0.0
H229 H 0.63219 0.10957 0.1032 0.0
H230 H 0.71544 0.11577 0.1455 0.0
C231 C 0.74645 0.97981 0.10971 0.0
C232 C 0.05202 0.70466 0.59272 0.0
C233 C 1.00179 0.6693 0.58567 0.0
H234 H 0.08901 0.77681 0.62182 0.0
C235 C 0.94772 0.68272 0.60292 0.0
H236 H 0.09459 0.69567 0.58009 0.0
C237 C 0.94442 0.73043 0.62696 0.0
C238 C 0.99509 0.76547 0.63402 0.0
H239 H 0.90829 0.65625 0.59808 0.0
H240 H 0.9022 0.74009 0.6398 0.0
C241 C 0.04879 0.75177 0.61657 0.0
C242 C 0.31124 0.96374 0.94641 0.0
C243 C 0.34641 0.01407 0.95357 0.0
H244 H 0.23922 0.92667 0.91722 0.0
C245 C 0.33278 0.06819 0.93644 0.0
H246 H 0.32039 0.92113 0.95893 0.0
C247 C 0.28505 0.07147 0.91241 0.0
C248 C 0.2502 0.02071 0.90524 0.0
H249 H 0.35909 0.10769 0.94137 0.0
H250 H 0.27521 0.11374 0.89967 0.0
C251 C 0.26411 0.96695 0.92256 0.0
C252 C 0.94231 0.3515 0.43473 0.0
C253 C 0.99312 0.35834 0.45602 0.0
H254 H 0.90001 0.30039 0.39369 0.0
C255 C 0.03924 0.3161 0.45351 0.0
H256 H 0.90628 0.38364 0.436 0.0
C257 C 0.0359 0.2692 0.42955 0.0
C258 C 0.98627 0.263 0.40729 0.0
H259 H 0.07896 0.31993 0.46963 0.0
H260 H 0.07343 0.23892 0.42765 0.0
C261 C 0.93908 0.3043 0.41033 0.0
C262 C 0.60721 0.95441 0.89039 0.0
C263 C 0.6104 0.96233 0.92735 0.0
H264 H 0.65389 0.95356 0.84074 0.0
C265 C 0.6658 0.97493 0.94275 0.0
H266 H 0.56492 0.94479 0.87787 0.0
C267 C 0.71636 0.98296 0.92141 0.0
C268 C 0.7133 0.97688 0.8841 0.0
H269 H 0.66943 0.98253 0.97113 0.0
H270 H 0.75708 0.99657 0.93431 0.0
C271 C 0.65821 0.9606 0.86908 0.0
C272 C 0.0084 0.61915 0.3901 0.0
C273 C 0.0309 0.62178 0.42489 0.0
H274 H 0.98891 0.66639 0.342 0.0
C275 C 0.05472 0.67572 0.43713 0.0
H276 H 0.99002 0.57805 0.37989 0.0
C277 C 0.05265 0.72693 0.41573 0.0
C278 C 0.02739 0.72507 0.38147 0.0
H279 H 0.07166 0.67928 0.46399 0.0
H280 H 0.06837 0.7685 0.42675 0.0
C281 C 1.00705 0.67004 0.36856 0.0
loop_
_geom_bond_atom_site_label_1
_geom_bond_atom_site_label_2
_geom_bond_distance
_geom_bond_site_symmetry_2
_ccdc_geom_bond_type
Mg0 O7 2.165 . S
Mg0 O8 2.025 1_554 S
Mg0 O9 2.025 1_554 S
Mg0 O12 2.165 . S
C1 O2 1.313 . S
C1 O8 1.195 1_565 S
O2 C1 1.313 . S
C3 O4 1.245 . S
C3 O12 1.289 1_565 S
O4 C3 1.245 . S
C5 O6 1.245 . S
C5 O7 1.289 1_565 S
O6 C5 1.245 . S
O7 Mg0 2.165 . S
O7 C5 1.289 1_545 S
O8 Mg0 2.025 1_556 S
O8 C1 1.195 1_545 S
O9 Mg0 2.025 1_556 S
O9 C10 1.195 1_545 S
C10 O9 1.195 1_565 S
C10 O11 1.313 . S
O11 C10 1.313 . S
O12 Mg0 2.165 . S
O12 C3 1.289 1_545 S
Mg13 O20 2.141 . S
Mg13 O21 2.048 . S
Mg13 O22 2.048 . S
Mg13 O25 2.141 . S
C14 O15 1.313 . S
C14 O21 1.195 1_455 S
O15 C14 1.313 . S
C16 O17 1.245 . S
C16 O25 1.289 1_455 S
O17 C16 1.245 . S
C18 O19 1.245 . S
C18 O20 1.289 1_455 S
O19 C18 1.245 . S
O20 Mg13 2.141 . S
O20 C18 1.289 1_655 S
O21 Mg13 2.048 . S
O21 C14 1.195 1_655 S
O22 Mg13 2.048 . S
O22 C23 1.195 1_655 S
C23 O22 1.195 1_455 S
C23 O24 1.313 . S
O24 C23 1.313 . S
O25 Mg13 2.141 . S
O25 C16 1.289 1_655 S
Li26 N43 1.990 . S
Li26 O86 1.956 1_545 S
Li26 O87 1.970 1_455 S
Li26 O88 1.961 1_455 S
Li27 N51 1.990 . S
Li27 O86 1.970 1_655 S
Li27 O87 1.956 1_565 S
Li27 O89 1.961 1_655 S
Li28 N73 1.990 . S
Li28 O86 1.961 1_545 S
Li28 O88 1.956 1_455 S
Li28 O89 1.970 1_545 S
Li29 N79 1.990 . S
Li29 O87 1.961 1_565 S
Li29 O88 1.970 1_565 S
Li29 O89 1.956 1_655 S
C30 C32 1.348 1_545 S
C30 C33 1.356 . S
C30 O86 1.325 1_545 S
N31 C34 1.314 1_545 S
N31 C35 1.279 . S
C32 C30 1.348 1_565 S
C32 C34 1.353 . S
C32 H90 0.929 . S
C33 C30 1.356 . S
C33 C35 1.358 . S
C33 H91 0.930 . S
C34 N31 1.314 1_565 S
C34 C32 1.353 . S
C34 H92 0.930 . S
C35 N31 1.279 . S
C35 C33 1.358 . S
C35 H93 0.930 . S
C36 C39 1.348 . S
C36 C40 1.356 1_545 S
C36 O87 1.325 . S
C37 N38 1.279 . S
C37 C40 1.358 . S
C37 H94 0.930 . S
N38 C37 1.279 . S
N38 C41 1.314 1_565 S
C39 C36 1.348 . S
C39 C41 1.353 . S
C39 H95 0.929 . S
C40 C36 1.356 1_565 S
C40 C37 1.358 . S
C40 H96 0.930 . S
C41 N38 1.314 1_545 S
C41 C39 1.353 . S
C41 H97 0.930 . S
C42 N43 1.314 1_655 S
C42 C47 1.353 . S
C42 H48 0.930 . S
N43 Li26 1.990 . S
N43 C42 1.314 1_455 S
N43 C45 1.279 . S
C44 C45 1.358 . S
C44 C46 1.356 . S
C44 H98 0.930 . S
C45 N43 1.279 . S
C45 C44 1.358 . S
C45 H49 0.930 . S
C46 C44 1.356 . S
C46 C47 1.348 1_455 S
C47 C42 1.353 . S
C47 C46 1.348 1_655 S
C47 H99 0.929 . S
H48 C42 0.930 . S
H49 C45 0.930 . S
C50 N51 1.314 1_455 S
C50 C52 1.353 . S
C50 H56 0.930 . S
N51 Li27 1.990 . S
N51 C50 1.314 1_655 S
N51 C54 1.279 . S
C52 C50 1.353 . S
C52 C55 1.348 . S
C52 H100 0.929 . S
C53 C54 1.358 . S
C53 C55 1.356 1_655 S
C53 H101 0.930 . S
C54 N51 1.279 . S
C54 C53 1.358 . S
C54 H57 0.930 . S
C55 C52 1.348 . S
C55 C53 1.356 1_455 S
H56 C50 0.930 . S
H57 C54 0.930 . S
C58 C60 1.348 1_455 S
C58 C61 1.356 . S
C58 O88 1.325 1_455 S
N59 C62 1.314 1_455 S
N59 C63 1.279 . S
C60 C58 1.348 1_655 S
C60 C62 1.353 . S
C60 H102 0.929 . S
C61 C58 1.356 . S
C61 C63 1.358 . S
C61 H103 0.930 . S
C62 N59 1.314 1_655 S
C62 C60 1.353 . S
C62 H104 0.930 . S
C63 N59 1.279 . S
C63 C61 1.358 . S
C63 H105 0.930 . S
C64 C65 1.348 . S
C64 C66 1.356 1_455 S
C64 O89 1.325 . S
C65 C64 1.348 . S
C65 C67 1.353 . S
C65 H106 0.929 . S
C66 C64 1.356 1_655 S
C66 C68 1.358 . S
C66 H107 0.930 . S
C67 C65 1.353 . S
C67 N69 1.314 1_455 S
C67 H108 0.930 . S
C68 C66 1.358 . S
C68 N69 1.279 . S
C68 H109 0.930 . S
N69 C67 1.314 1_655 S
N69 C68 1.279 . S
C70 C72 1.353 . S
C70 N73 1.314 1_565 S
C70 H76 0.930 . S
C71 N73 1.279 . S
C71 C74 1.358 . S
C71 H77 0.930 . S
C72 C70 1.353 . S
C72 C75 1.348 1_565 S
C72 H110 0.929 . S
N73 Li28 1.990 . S
N73 C70 1.314 1_545 S
N73 C71 1.279 . S
C74 C71 1.358 . S
C74 C75 1.356 . S
C74 H111 0.930 . S
C75 C72 1.348 1_545 S
C75 C74 1.356 . S
H76 C70 0.930 . S
H77 C71 0.930 . S
C78 N79 1.314 1_545 S
C78 C80 1.353 . S
C78 H84 0.930 . S
N79 Li29 1.990 . S
N79 C78 1.314 1_565 S
N79 C82 1.279 . S
C80 C78 1.353 . S
C80 C83 1.348 . S
C80 H112 0.929 . S
C81 C82 1.358 . S
C81 C83 1.356 1_565 S
C81 H113 0.930 . S
C82 N79 1.279 . S
C82 C81 1.358 . S
C82 H85 0.930 . S
C83 C80 1.348 . S
C83 C81 1.356 1_545 S
H84 C78 0.930 . S
H85 C82 0.930 . S
O86 Li26 1.956 1_565 S
O86 Li27 1.970 1_455 S
O86 Li28 1.961 1_565 S
O86 C30 1.325 1_565 S
O87 Li26 1.970 1_655 S
O87 Li27 1.956 1_545 S
O87 Li29 1.961 1_545 S
O87 C36 1.325 . S
O88 Li26 1.961 1_655 S
O88 Li28 1.956 1_655 S
O88 Li29 1.970 1_545 S
O88 C58 1.325 1_655 S
O89 Li27 1.961 1_455 S
O89 Li28 1.970 1_565 S
O89 Li29 1.956 1_455 S
O89 C64 1.325 . S
H90 C32 0.929 . S
H91 C33 0.930 . S
H92 C34 0.930 . S
H93 C35 0.930 . S
H94 C37 0.930 . S
H95 C39 0.929 . S
H96 C40 0.930 . S
H97 C41 0.930 . S
H98 C44 0.930 . S
H99 C47 0.929 . S
H100 C52 0.929 . S
H101 C53 0.930 . S
H102 C60 0.929 . S
H103 C61 0.930 . S
H104 C62 0.930 . S
H105 C63 0.930 . S
H106 C65 0.929 . S
H107 C66 0.930 . S
H108 C67 0.930 . S
H109 C68 0.930 . S
H110 C72 0.929 . S
H111 C74 0.930 . S
H112 C80 0.929 . S
H113 C81 0.930 . S
Li114 N131 1.990 . S
Li114 O174 1.956 1_655 S
Li114 O175 1.970 1_545 S
Li114 O176 1.961 1_545 S
Li115 N139 1.990 . S
Li115 O174 1.970 1_565 S
Li115 O175 1.956 1_455 S
Li115 O177 1.961 1_565 S
Li116 N161 1.990 . S
Li116 O174 1.961 1_655 S
Li116 O176 1.956 1_545 S
Li116 O177 1.970 1_655 S
Li117 N167 1.990 . S
Li117 O175 1.961 1_455 S
Li117 O176 1.970 1_455 S
Li117 O177 1.956 1_565 S
C118 C120 1.348 . S
C118 C121 1.355 1_455 S
C118 O174 1.325 . S
N119 C122 1.314 1_655 S
N119 C123 1.279 . S
C120 C118 1.348 . S
C120 C122 1.353 . S
C120 H178 0.929 . S
C121 C118 1.355 1_655 S
C121 C123 1.358 . S
C121 H179 0.930 . S
C122 N119 1.314 1_455 S
C122 C120 1.353 . S
C122 H180 0.930 . S
C123 N119 1.279 . S
C123 C121 1.358 . S
C123 H181 0.930 . S
C124 C127 1.348 1_455 S
C124 C128 1.355 . S
C124 O175 1.325 1_455 S
C125 N126 1.279 . S
C125 C128 1.358 . S
C125 H182 0.930 . S
N126 C125 1.279 . S
N126 C129 1.314 1_455 S
C127 C124 1.348 1_655 S
C127 C129 1.353 . S
C127 H183 0.929 . S
C128 C124 1.355 . S
C128 C125 1.358 . S
C128 H184 0.930 . S
C129 N126 1.314 1_655 S
C129 C127 1.353 . S
C129 H185 0.930 . S
C130 N131 1.314 1_565 S
C130 C135 1.353 . S
C130 H136 0.930 . S
N131 Li114 1.990 . S
N131 C130 1.314 1_545 S
N131 C133 1.279 . S
C132 C133 1.358 . S
C132 C134 1.355 . S
C132 H186 0.930 . S
C133 N131 1.279 . S
C133 C132 1.358 . S
C133 H137 0.930 . S
C134 C132 1.355 . S
C134 C135 1.348 1_545 S
C135 C130 1.353 . S
C135 C134 1.348 1_565 S
C135 H187 0.929 . S
H136 C130 0.930 . S
H137 C133 0.930 . S
C138 N139 1.314 1_545 S
C138 C140 1.353 . S
C138 H144 0.930 . S
N139 Li115 1.990 . S
N139 C138 1.314 1_565 S
N139 C142 1.279 . S
C140 C138 1.353 . S
C140 C143 1.348 . S
C140 H188 0.929 . S
C141 C142 1.358 . S
C141 C143 1.355 1_565 S
C141 H189 0.930 . S
C142 N139 1.279 . S
C142 C141 1.358 . S
C142 H145 0.930 . S
C143 C140 1.348 . S
C143 C141 1.355 1_545 S
H144 C138 0.930 . S
H145 C142 0.930 . S
C146 C148 1.348 1_545 S
C146 C149 1.355 . S
C146 O176 1.325 1_545 S
N147 C150 1.314 1_545 S
N147 C151 1.279 . S
C148 C146 1.348 1_565 S
C148 C150 1.353 . S
C148 H190 0.929 . S
C149 C146 1.355 . S
C149 C151 1.358 . S
C149 H191 0.930 . S
C150 N147 1.314 1_565 S
C150 C148 1.353 . S
C150 H192 0.930 . S
C151 N147 1.279 . S
C151 C149 1.358 . S
C151 H193 0.930 . S
C152 C153 1.348 . S
C152 C154 1.355 1_545 S
C152 O177 1.325 . S
C153 C152 1.348 . S
C153 C155 1.353 . S
C153 H194 0.929 . S
C154 C152 1.355 1_565 S
C154 C156 1.358 . S
C154 H195 0.930 . S
C155 C153 1.353 . S
C155 N157 1.314 1_545 S
C155 H196 0.930 . S
C156 C154 1.358 . S
C156 N157 1.279 . S
C156 H197 0.930 . S
N157 C155 1.314 1_565 S
N157 C156 1.279 . S
C158 C160 1.353 . S
C158 N161 1.314 1_455 S
C158 H164 0.930 . S
C159 N161 1.279 . S
C159 C162 1.358 . S
C159 H165 0.930 . S
C160 C158 1.353 . S
C160 C163 1.348 . S
C160 H198 0.929 . S
N161 Li116 1.990 . S
N161 C158 1.314 1_655 S
N161 C159 1.279 . S
C162 C159 1.358 . S
C162 C163 1.355 1_655 S
C162 H199 0.930 . S
C163 C160 1.348 . S
C163 C162 1.355 1_455 S
H164 C158 0.930 . S
H165 C159 0.930 . S
C166 N167 1.314 1_655 S
C166 C168 1.353 . S
C166 H172 0.930 . S
N167 Li117 1.990 . S
N167 C166 1.314 1_455 S
N167 C170 1.279 . S
C168 C166 1.353 . S
C168 C171 1.348 1_655 S
C168 H200 0.929 . S
C169 C170 1.358 . S
C169 C171 1.355 . S
C169 H201 0.930 . S
C170 N167 1.279 . S
C170 C169 1.358 . S
C170 H173 0.930 . S
C171 C168 1.348 1_455 S
C171 C169 1.355 . S
H172 C166 0.930 . S
H173 C170 0.930 . S
O174 Li114 1.956 1_455 S
O174 Li115 1.970 1_545 S
O174 Li116 1.961 1_455 S
O174 C118 1.325 . S
O175 Li114 1.970 1_565 S
O175 Li115 1.956 1_655 S
O175 Li117 1.961 1_655 S
O175 C124 1.325 1_655 S
O176 Li114 1.961 1_565 S
O176 Li116 1.956 1_565 S
O176 Li117 1.970 1_655 S
O176 C146 1.325 1_565 S
O177 Li115 1.961 1_545 S
O177 Li116 1.970 1_455 S
O177 Li117 1.956 1_545 S
O177 C152 1.325 . S
H178 C120 0.929 . S
H179 C121 0.930 . S
H180 C122 0.930 . S
H181 C123 0.930 . S
H182 C125 0.930 . S
H183 C127 0.929 . S
H184 C128 0.930 . S
H185 C129 0.930 . S
H186 C132 0.930 . S
H187 C135 0.929 . S
H188 C140 0.929 . S
H189 C141 0.930 . S
H190 C148 0.929 . S
H191 C149 0.930 . S
H192 C150 0.930 . S
H193 C151 0.930 . S
H194 C153 0.929 . S
H195 C154 0.930 . S
H196 C155 0.930 . S
H197 C156 0.930 . S
H198 C160 0.929 . S
H199 C162 0.930 . S
H200 C168 0.929 . S
H201 C169 0.930 . S
C202 C203 1.387 1_545 S
C202 H206 0.950 . S
C202 C211 1.390 . S
C203 C202 1.387 1_565 S
C203 C205 1.388 . S
H204 C211 0.950 . S
C205 C203 1.388 . S
C205 C207 1.390 . S
C205 H209 0.950 . S
H206 C202 0.950 . S
C207 C205 1.390 . S
C207 C208 1.387 . S
C207 H210 0.950 . S
C208 C207 1.387 . S
C208 C211 1.387 1_565 S
H209 C205 0.950 . S
H210 C207 0.950 . S
C211 C202 1.390 . S
C211 H204 0.950 . S
C211 C208 1.387 1_545 S
C212 C213 1.392 . S
C212 H216 0.950 . S
C212 C221 1.390 . S
C213 C212 1.392 . S
C213 C215 1.383 1_455 S
H214 C221 0.950 . S
C215 C213 1.383 1_655 S
C215 C217 1.390 . S
C215 H219 0.950 . S
H216 C212 0.950 . S
C217 C215 1.390 . S
C217 C218 1.387 1_655 S
C217 H220 0.950 . S
C218 C217 1.387 1_455 S
C218 C221 1.387 . S
H219 C215 0.950 . S
H220 C217 0.950 . S
C221 C212 1.390 . S
C221 H214 0.950 . S
C221 C218 1.387 . S
C222 C223 1.383 1_565 S
C222 H226 0.950 . S
C222 C231 1.390 . S
C223 C222 1.383 1_545 S
C223 C225 1.392 . S
H224 C231 0.950 . S
C225 C223 1.392 . S
C225 C227 1.390 . S
C225 H229 0.950 . S
H226 C222 0.950 . S
C227 C225 1.390 . S
C227 C228 1.387 . S
C227 H230 0.950 . S
C228 C227 1.387 . S
C228 C231 1.387 1_545 S
H229 C225 0.950 . S
H230 C227 0.950 . S
C231 C222 1.390 . S
C231 H224 0.950 . S
C231 C228 1.387 1_565 S
C232 C233 1.387 1_455 S
C232 H236 0.950 . S
C232 C241 1.390 . S
C233 C232 1.387 1_655 S
C233 C235 1.388 . S
H234 C241 0.950 . S
C235 C233 1.388 . S
C235 C237 1.390 . S
C235 H239 0.950 . S
H236 C232 0.950 . S
C237 C235 1.390 . S
C237 C238 1.387 . S
C237 H240 0.950 . S
C238 C237 1.387 . S
C238 C241 1.387 1_655 S
H239 C235 0.950 . S
H240 C237 0.950 . S
C241 C232 1.390 . S
C241 H234 0.950 . S
C241 C238 1.387 1_455 S
C242 C243 1.383 1_565 S
C242 H246 0.950 . S
C242 C251 1.390 . S
C243 C242 1.383 1_545 S
C243 C245 1.392 . S
H244 C251 0.950 . S
C245 C243 1.392 . S
C245 C247 1.390 . S
C245 H249 0.950 . S
H246 C242 0.950 . S
C247 C245 1.390 . S
C247 C248 1.387 . S
C247 H250 0.950 . S
C248 C247 1.387 . S
C248 C251 1.387 1_545 S
H249 C245 0.950 . S
H250 C247 0.950 . S
C251 C242 1.390 . S
C251 H244 0.950 . S
C251 C248 1.387 1_565 S
C252 C253 1.388 . S
C252 H256 0.950 . S
C252 C261 1.390 . S
C253 C252 1.388 . S
C253 C255 1.387 1_655 S
H254 C261 0.950 . S
C255 C253 1.387 1_455 S
C255 C257 1.390 . S
C255 H259 0.950 . S
H256 C252 0.950 . S
C257 C255 1.390 . S
C257 C258 1.387 1_455 S
C257 H260 0.950 . S
C258 C257 1.387 1_655 S
C258 C261 1.387 . S
H259 C255 0.950 . S
H260 C257 0.950 . S
C261 C252 1.390 . S
C261 H254 0.950 . S
C261 C258 1.387 . S
C262 C263 1.388 . S
C262 H266 0.950 . S
C262 C271 1.390 . S
C263 C262 1.388 . S
C263 C265 1.387 1_565 S
H264 C271 0.950 . S
C265 C263 1.387 1_545 S
C265 C267 1.390 . S
C265 H269 0.950 . S
H266 C262 0.950 . S
C267 C265 1.390 . S
C267 C268 1.387 1_545 S
C267 H270 0.950 . S
C268 C267 1.387 1_565 S
C268 C271 1.387 . S
H269 C265 0.950 . S
H270 C267 0.950 . S
C271 C262 1.390 . S
C271 H264 0.950 . S
C271 C268 1.387 . S
C272 C273 1.392 . S
C272 H276 0.950 . S
C272 C281 1.390 . S
C273 C272 1.392 . S
C273 C275 1.383 1_455 S
H274 C281 0.950 . S
C275 C273 1.383 1_655 S
C275 C277 1.390 . S
C275 H279 0.950 . S
H276 C272 0.950 . S
C277 C275 1.390 . S
C277 C278 1.387 1_655 S
C277 H280 0.950 . S
C278 C277 1.387 1_455 S
C278 C281 1.387 . S
H279 C275 0.950 . S
H280 C277 0.950 . S
C281 C272 1.390 . S
C281 H274 0.950 . S
C281 C278 1.387 . S
C208 C75 1.429 1_565 S
C203 C5 1.420 . S
C218 C163 1.492 . S
C213 C23 1.489 . S
C228 C83 1.429 . S
C223 C3 1.424 1_545 S
C238 C171 1.491 1_655 S
C233 C14 1.492 1_655 S
C248 C143 1.492 . S
C243 C1 1.491 1_545 S
C258 C46 1.430 1_655 S
C253 C16 1.425 1_655 S
C268 C134 1.493 1_565 S
C263 C10 1.495 . S
C273 C18 1.426 . S
C278 C55 1.432 . S
