# Generated by pormake.
# Topology gar, (4,6)-cn, num edge types: 1
# Building blocks:
#     Node 0, Type 0, BuildingBlock: UXUYUI_clean_sbu_0, # of connection points: 4
#     Node 1, Type 0, BuildingBlock: UXUYUI_clean_sbu_0, # of connection points: 4
#     Node 2, Type 0, BuildingBlock: UXUYUI_clean_sbu_0, # of connection points: 4
#     Node 3, Type 0, BuildingBlock: UXUYUI_clean_sbu_0, # of connection points: 4
#     Node 4, Type 0, BuildingBlock: UXUYUI_clean_sbu_0, # of connection points: 4
#     Node 5, Type 0, BuildingBlock: UXUYUI_clean_sbu_0, # of connection points: 4
#     Node 6, Type 0, BuildingBlock: UXUYUI_clean_sbu_0, # of connection points: 4
#     Node 7, Type 0, BuildingBlock: UXUYUI_clean_sbu_0, # of connection points: 4
#     Node 8, Type 0, BuildingBlock: UXUYUI_clean_sbu_0, # of connection points: 4
#     Node 9, Type 0, BuildingBlock: UXUYUI_clean_sbu_0, # of connection points: 4
#     Node 10, Type 0, BuildingBlock: UXUYUI_clean_sbu_0, # of connection points: 4
#     Node 11, Type 0, BuildingBlock: UXUYUI_clean_sbu_0, # of connection points: 4
#     Node 12, Type 0, BuildingBlock: UXUYUI_clean_sbu_0, # of connection points: 4
#     Node 13, Type 0, BuildingBlock: UXUYUI_clean_sbu_0, # of connection points: 4
#     Node 14, Type 0, BuildingBlock: UXUYUI_clean_sbu_0, # of connection points: 4
#     Node 15, Type 0, BuildingBlock: UXUYUI_clean_sbu_0, # of connection points: 4
#     Node 16, Type 0, BuildingBlock: UXUYUI_clean_sbu_0, # of connection points: 4
#     Node 17, Type 0, BuildingBlock: UXUYUI_clean_sbu_0, # of connection points: 4
#     Node 18, Type 0, BuildingBlock: UXUYUI_clean_sbu_0, # of connection points: 4
#     Node 19, Type 0, BuildingBlock: UXUYUI_clean_sbu_0, # of connection points: 4
#     Node 20, Type 0, BuildingBlock: UXUYUI_clean_sbu_0, # of connection points: 4
#     Node 21, Type 0, BuildingBlock: UXUYUI_clean_sbu_0, # of connection points: 4
#     Node 22, Type 0, BuildingBlock: UXUYUI_clean_sbu_0, # of connection points: 4
#     Node 23, Type 0, BuildingBlock: UXUYUI_clean_sbu_0, # of connection points: 4
#     Node 24, Type 1, BuildingBlock: KUMJIN_clean_sbu_1, # of connection points: 6
#     Node 25, Type 1, BuildingBlock: KUMJIN_clean_sbu_1, # of connection points: 6
#     Node 26, Type 1, BuildingBlock: KUMJIN_clean_sbu_1, # of connection points: 6
#     Node 27, Type 1, BuildingBlock: KUMJIN_clean_sbu_1, # of connection points: 6
#     Node 28, Type 1, BuildingBlock: KUMJIN_clean_sbu_1, # of connection points: 6
#     Node 29, Type 1, BuildingBlock: KUMJIN_clean_sbu_1, # of connection points: 6
#     Node 30, Type 1, BuildingBlock: KUMJIN_clean_sbu_1, # of connection points: 6
#     Node 31, Type 1, BuildingBlock: KUMJIN_clean_sbu_1, # of connection points: 6
#     Node 32, Type 1, BuildingBlock: KUMJIN_clean_sbu_1, # of connection points: 6
#     Node 33, Type 1, BuildingBlock: KUMJIN_clean_sbu_1, # of connection points: 6
#     Node 34, Type 1, BuildingBlock: KUMJIN_clean_sbu_1, # of connection points: 6
#     Node 35, Type 1, BuildingBlock: KUMJIN_clean_sbu_1, # of connection points: 6
#     Node 36, Type 1, BuildingBlock: KUMJIN_clean_sbu_1, # of connection points: 6
#     Node 37, Type 1, BuildingBlock: KUMJIN_clean_sbu_1, # of connection points: 6
#     Node 38, Type 1, BuildingBlock: KUMJIN_clean_sbu_1, # of connection points: 6
#     Node 39, Type 1, BuildingBlock: KUMJIN_clean_sbu_1, # of connection points: 6
#     Edge 40, Type (0, 1), BuildingBlock: MIFKUJ_clean_linker_0, # of connection points: 2
#     Edge 41, Type (0, 1), BuildingBlock: MIFKUJ_clean_linker_0, # of connection points: 2
#     Edge 42, Type (0, 1), BuildingBlock: MIFKUJ_clean_linker_0, # of connection points: 2
#     Edge 43, Type (0, 1), BuildingBlock: MIFKUJ_clean_linker_0, # of connection points: 2
#     Edge 44, Type (0, 1), BuildingBlock: MIFKUJ_clean_linker_0, # of connection points: 2
#     Edge 45, Type (0, 1), BuildingBlock: MIFKUJ_clean_linker_0, # of connection points: 2
#     Edge 46, Type (0, 1), BuildingBlock: MIFKUJ_clean_linker_0, # of connection points: 2
#     Edge 47, Type (0, 1), BuildingBlock: MIFKUJ_clean_linker_0, # of connection points: 2
#     Edge 48, Type (0, 1), BuildingBlock: MIFKUJ_clean_linker_0, # of connection points: 2
#     Edge 49, Type (0, 1), BuildingBlock: MIFKUJ_clean_linker_0, # of connection points: 2
#     Edge 50, Type (0, 1), BuildingBlock: MIFKUJ_clean_linker_0, # of connection points: 2
#     Edge 51, Type (0, 1), BuildingBlock: MIFKUJ_clean_linker_0, # of connection points: 2
#     Edge 52, Type (0, 1), BuildingBlock: MIFKUJ_clean_linker_0, # of connection points: 2
#     Edge 53, Type (0, 1), BuildingBlock: MIFKUJ_clean_linker_0, # of connection points: 2
#     Edge 54, Type (0, 1), BuildingBlock: MIFKUJ_clean_linker_0, # of connection points: 2
#     Edge 55, Type (0, 1), BuildingBlock: MIFKUJ_clean_linker_0, # of connection points: 2
#     Edge 56, Type (0, 1), BuildingBlock: MIFKUJ_clean_linker_0, # of connection points: 2
#     Edge 57, Type (0, 1), BuildingBlock: MIFKUJ_clean_linker_0, # of connection points: 2
#     Edge 58, Type (0, 1), BuildingBlock: MIFKUJ_clean_linker_0, # of connection points: 2
#     Edge 59, Type (0, 1), BuildingBlock: MIFKUJ_clean_linker_0, # of connection points: 2
#     Edge 60, Type (0, 1), BuildingBlock: MIFKUJ_clean_linker_0, # of connection points: 2
#     Edge 61, Type (0, 1), BuildingBlock: MIFKUJ_clean_linker_0, # of connection points: 2
#     Edge 62, Type (0, 1), BuildingBlock: MIFKUJ_clean_linker_0, # of connection points: 2
#     Edge 63, Type (0, 1), BuildingBlock: MIFKUJ_clean_linker_0, # of connection points: 2
#     Edge 64, Type (0, 1), BuildingBlock: MIFKUJ_clean_linker_0, # of connection points: 2
#     Edge 65, Type (0, 1), BuildingBlock: MIFKUJ_clean_linker_0, # of connection points: 2
#     Edge 66, Type (0, 1), BuildingBlock: MIFKUJ_clean_linker_0, # of connection points: 2
#     Edge 67, Type (0, 1), BuildingBlock: MIFKUJ_clean_linker_0, # of connection points: 2
#     Edge 68, Type (0, 1), BuildingBlock: MIFKUJ_clean_linker_0, # of connection points: 2
#     Edge 69, Type (0, 1), BuildingBlock: MIFKUJ_clean_linker_0, # of connection points: 2
#     Edge 70, Type (0, 1), BuildingBlock: MIFKUJ_clean_linker_0, # of connection points: 2
#     Edge 71, Type (0, 1), BuildingBlock: MIFKUJ_clean_linker_0, # of connection points: 2
#     Edge 72, Type (0, 1), BuildingBlock: MIFKUJ_clean_linker_0, # of connection points: 2
#     Edge 73, Type (0, 1), BuildingBlock: MIFKUJ_clean_linker_0, # of connection points: 2
#     Edge 74, Type (0, 1), BuildingBlock: MIFKUJ_clean_linker_0, # of connection points: 2
#     Edge 75, Type (0, 1), BuildingBlock: MIFKUJ_clean_linker_0, # of connection points: 2
#     Edge 76, Type (0, 1), BuildingBlock: MIFKUJ_clean_linker_0, # of connection points: 2
#     Edge 77, Type (0, 1), BuildingBlock: MIFKUJ_clean_linker_0, # of connection points: 2
#     Edge 78, Type (0, 1), BuildingBlock: MIFKUJ_clean_linker_0, # of connection points: 2
#     Edge 79, Type (0, 1), BuildingBlock: MIFKUJ_clean_linker_0, # of connection points: 2
#     Edge 80, Type (0, 1), BuildingBlock: MIFKUJ_clean_linker_0, # of connection points: 2
#     Edge 81, Type (0, 1), BuildingBlock: MIFKUJ_clean_linker_0, # of connection points: 2
#     Edge 82, Type (0, 1), BuildingBlock: MIFKUJ_clean_linker_0, # of connection points: 2
#     Edge 83, Type (0, 1), BuildingBlock: MIFKUJ_clean_linker_0, # of connection points: 2
#     Edge 84, Type (0, 1), BuildingBlock: MIFKUJ_clean_linker_0, # of connection points: 2
#     Edge 85, Type (0, 1), BuildingBlock: MIFKUJ_clean_linker_0, # of connection points: 2
#     Edge 86, Type (0, 1), BuildingBlock: MIFKUJ_clean_linker_0, # of connection points: 2
#     Edge 87, Type (0, 1), BuildingBlock: MIFKUJ_clean_linker_0, # of connection points: 2
#     Edge 88, Type (0, 1), BuildingBlock: MIFKUJ_clean_linker_0, # of connection points: 2
#     Edge 89, Type (0, 1), BuildingBlock: MIFKUJ_clean_linker_0, # of connection points: 2
#     Edge 90, Type (0, 1), BuildingBlock: MIFKUJ_clean_linker_0, # of connection points: 2
#     Edge 91, Type (0, 1), BuildingBlock: MIFKUJ_clean_linker_0, # of connection points: 2
#     Edge 92, Type (0, 1), BuildingBlock: MIFKUJ_clean_linker_0, # of connection points: 2
#     Edge 93, Type (0, 1), BuildingBlock: MIFKUJ_clean_linker_0, # of connection points: 2
#     Edge 94, Type (0, 1), BuildingBlock: MIFKUJ_clean_linker_0, # of connection points: 2
#     Edge 95, Type (0, 1), BuildingBlock: MIFKUJ_clean_linker_0, # of connection points: 2
#     Edge 96, Type (0, 1), BuildingBlock: MIFKUJ_clean_linker_0, # of connection points: 2
#     Edge 97, Type (0, 1), BuildingBlock: MIFKUJ_clean_linker_0, # of connection points: 2
#     Edge 98, Type (0, 1), BuildingBlock: MIFKUJ_clean_linker_0, # of connection points: 2
#     Edge 99, Type (0, 1), BuildingBlock: MIFKUJ_clean_linker_0, # of connection points: 2
#     Edge 100, Type (0, 1), BuildingBlock: MIFKUJ_clean_linker_0, # of connection points: 2
#     Edge 101, Type (0, 1), BuildingBlock: MIFKUJ_clean_linker_0, # of connection points: 2
#     Edge 102, Type (0, 1), BuildingBlock: MIFKUJ_clean_linker_0, # of connection points: 2
#     Edge 103, Type (0, 1), BuildingBlock: MIFKUJ_clean_linker_0, # of connection points: 2
#     Edge 104, Type (0, 1), BuildingBlock: MIFKUJ_clean_linker_0, # of connection points: 2
#     Edge 105, Type (0, 1), BuildingBlock: MIFKUJ_clean_linker_0, # of connection points: 2
#     Edge 106, Type (0, 1), BuildingBlock: MIFKUJ_clean_linker_0, # of connection points: 2
#     Edge 107, Type (0, 1), BuildingBlock: MIFKUJ_clean_linker_0, # of connection points: 2
#     Edge 108, Type (0, 1), BuildingBlock: MIFKUJ_clean_linker_0, # of connection points: 2
#     Edge 109, Type (0, 1), BuildingBlock: MIFKUJ_clean_linker_0, # of connection points: 2
#     Edge 110, Type (0, 1), BuildingBlock: MIFKUJ_clean_linker_0, # of connection points: 2
#     Edge 111, Type (0, 1), BuildingBlock: MIFKUJ_clean_linker_0, # of connection points: 2
#     Edge 112, Type (0, 1), BuildingBlock: MIFKUJ_clean_linker_0, # of connection points: 2
#     Edge 113, Type (0, 1), BuildingBlock: MIFKUJ_clean_linker_0, # of connection points: 2
#     Edge 114, Type (0, 1), BuildingBlock: MIFKUJ_clean_linker_0, # of connection points: 2
#     Edge 115, Type (0, 1), BuildingBlock: MIFKUJ_clean_linker_0, # of connection points: 2
#     Edge 116, Type (0, 1), BuildingBlock: MIFKUJ_clean_linker_0, # of connection points: 2
#     Edge 117, Type (0, 1), BuildingBlock: MIFKUJ_clean_linker_0, # of connection points: 2
#     Edge 118, Type (0, 1), BuildingBlock: MIFKUJ_clean_linker_0, # of connection points: 2
#     Edge 119, Type (0, 1), BuildingBlock: MIFKUJ_clean_linker_0, # of connection points: 2
#     Edge 120, Type (0, 1), BuildingBlock: MIFKUJ_clean_linker_0, # of connection points: 2
#     Edge 121, Type (0, 1), BuildingBlock: MIFKUJ_clean_linker_0, # of connection points: 2
#     Edge 122, Type (0, 1), BuildingBlock: MIFKUJ_clean_linker_0, # of connection points: 2
#     Edge 123, Type (0, 1), BuildingBlock: MIFKUJ_clean_linker_0, # of connection points: 2
#     Edge 124, Type (0, 1), BuildingBlock: MIFKUJ_clean_linker_0, # of connection points: 2
#     Edge 125, Type (0, 1), BuildingBlock: MIFKUJ_clean_linker_0, # of connection points: 2
#     Edge 126, Type (0, 1), BuildingBlock: MIFKUJ_clean_linker_0, # of connection points: 2
#     Edge 127, Type (0, 1), BuildingBlock: MIFKUJ_clean_linker_0, # of connection points: 2
#     Edge 128, Type (0, 1), BuildingBlock: MIFKUJ_clean_linker_0, # of connection points: 2
#     Edge 129, Type (0, 1), BuildingBlock: MIFKUJ_clean_linker_0, # of connection points: 2
#     Edge 130, Type (0, 1), BuildingBlock: MIFKUJ_clean_linker_0, # of connection points: 2
#     Edge 131, Type (0, 1), BuildingBlock: MIFKUJ_clean_linker_0, # of connection points: 2
#     Edge 132, Type (0, 1), BuildingBlock: MIFKUJ_clean_linker_0, # of connection points: 2
#     Edge 133, Type (0, 1), BuildingBlock: MIFKUJ_clean_linker_0, # of connection points: 2
#     Edge 134, Type (0, 1), BuildingBlock: MIFKUJ_clean_linker_0, # of connection points: 2
#     Edge 135, Type (0, 1), BuildingBlock: MIFKUJ_clean_linker_0, # of connection points: 2
# Relax obj value: 0.080
# Max RMSD: 0.194
# Mean RMSD: 0.153
data_MOF--net-gar--node1-UXUYUI_clean_sbu_0--node2-KUMJIN_clean_sbu_1--edge1-MIFKUJ_clean_linker_0
_symmetry_space_group_name_H-M    P1
_symmetry_Int_Tables_number       1
_symmetry_cell_setting            triclinic
loop_
_symmetry_equiv_pos_as_xyz
'x, y, z'
_cell_length_a     89.118712
_cell_length_b     89.116939
_cell_length_c     84.362012
_cell_angle_alpha  95.365799
_cell_angle_beta   95.320179
_cell_angle_gamma 100.0866
loop_
_atom_site_label
_atom_site_type_symbol
_atom_site_fract_x
_atom_site_fract_y
_atom_site_fract_z
_atom_type_partial_charge
Li0 Li 0.02054 0.28868 0.34854 0.0
Li1 Li 0.038 0.30629 0.37132 0.0
Li2 Li 0.0502 0.29023 0.34944 0.0
Li3 Li 0.03546 0.27722 0.37036 0.0
C4 C 0.03433 0.31592 0.33563 0.0
N5 N 0.02764 0.33385 0.31192 0.0
C6 C 0.02872 0.32935 0.33944 0.0
C7 C 0.03676 0.31171 0.31984 0.0
C8 C 0.02534 0.33823 0.32725 0.0
C9 C 0.03325 0.3209 0.308 0.0
C10 C 0.00978 0.28677 0.38328 0.0
C11 C 0.00559 0.28202 0.41035 0.0
N12 N 0.99018 0.27959 0.40611 0.0
C13 C 0.99391 0.28417 0.37917 0.0
C14 C 0.01569 0.28568 0.39898 0.0
C15 C 0.98419 0.28058 0.3909 0.0
C16 C 0.99081 0.27259 0.33212 0.0
N17 N 0.99971 0.2867 0.33665 0.0
C18 C 0.97817 0.29858 0.32905 0.0
C19 C 0.9936 0.29957 0.33517 0.0
C20 C 0.96856 0.28418 0.32457 0.0
C21 C 0.97525 0.27108 0.32608 0.0
H22 H 0.99563 0.26243 0.3337 0.0
H23 H 1.00049 0.31068 0.33936 0.0
C24 C 0.0511 0.33792 0.38426 0.0
N25 N 0.03946 0.32587 0.38479 0.0
C26 C 0.05156 0.35207 0.39344 0.0
C27 C 0.02817 0.34122 0.40365 0.0
C28 C 0.0281 0.32737 0.39424 0.0
C29 C 0.03999 0.35392 0.40338 0.0
H30 H 0.05997 0.33661 0.3766 0.0
H31 H 0.01878 0.31787 0.39435 0.0
C32 C 0.03197 0.26137 0.33354 0.0
N33 N 0.03019 0.24032 0.30694 0.0
C34 C 0.03511 0.24676 0.33531 0.0
C35 C 0.02779 0.26526 0.3183 0.0
C36 C 0.03419 0.23629 0.32169 0.0
C37 C 0.02699 0.25446 0.30499 0.0
C38 C 0.06533 0.29407 0.38604 0.0
C39 C 0.07901 0.28903 0.38355 0.0
C40 C 0.06294 0.29975 0.40142 0.0
C41 C 0.09001 0.28954 0.39661 0.0
C42 C 0.07422 0.30007 0.41417 0.0
N43 N 0.0874 0.29499 0.41152 0.0
C44 C 0.07949 0.30252 0.33742 0.0
C45 C 0.0729 0.27553 0.33396 0.0
C46 C 0.09377 0.30193 0.33159 0.0
N47 N 0.06931 0.28942 0.33861 0.0
C48 C 0.08699 0.27442 0.32801 0.0
C49 C 0.09792 0.28771 0.32688 0.0
H50 H 0.07673 0.3135 0.34143 0.0
H51 H 0.06499 0.26516 0.3352 0.0
C52 C 0.02053 0.24986 0.3821 0.0
N53 N 0.03428 0.25954 0.38281 0.0
C54 C 0.01915 0.23667 0.39016 0.0
C55 C 0.04607 0.24351 0.39963 0.0
C56 C 0.04694 0.25653 0.39135 0.0
C57 C 0.03204 0.23326 0.39909 0.0
H58 H 0.0106 0.25232 0.37515 0.0
H59 H 0.05786 0.26405 0.39159 0.0
O60 O 0.0377 0.30709 0.34739 0.0
O61 O 0.01946 0.29044 0.372 0.0
O62 O 0.03278 0.27174 0.34672 0.0
O63 O 0.05444 0.29365 0.37342 0.0
H64 H 0.0269 0.3328 0.35165 0.0
H65 H 0.04137 0.30149 0.31678 0.0
H66 H 0.02089 0.3486 0.32999 0.0
H67 H 0.03501 0.31777 0.2957 0.0
H68 H 0.01 0.28111 0.42253 0.0
H69 H 0.98914 0.28502 0.3671 0.0
H70 H 0.02793 0.28757 0.40233 0.0
H71 H 0.97189 0.27861 0.38791 0.0
H72 H 0.97366 0.30906 0.32848 0.0
H73 H 0.96849 0.25969 0.32273 0.0
H74 H 0.06099 0.36141 0.39284 0.0
H75 H 0.01881 0.34205 0.4108 0.0
H76 H 0.03828 0.24359 0.34707 0.0
H77 H 0.02511 0.27645 0.31679 0.0
H78 H 0.03664 0.22495 0.32286 0.0
H79 H 0.02378 0.25729 0.2931 0.0
H80 H 0.08105 0.28467 0.37169 0.0
H81 H 0.05252 0.30392 0.40349 0.0
H82 H 0.10062 0.2856 0.3949 0.0
H83 H 0.07251 0.30439 0.42615 0.0
H84 H 0.10166 0.31258 0.33129 0.0
H85 H 0.08926 0.26314 0.32438 0.0
H86 H 0.00804 0.22927 0.38946 0.0
H87 H 0.0564 0.24133 0.40608 0.0
Li88 Li 0.01344 0.76299 0.66377 0.0
Li89 Li 0.02795 0.75229 0.68615 0.0
Li90 Li 0.01045 0.73391 0.66365 0.0
Li91 Li 0.99827 0.74898 0.68465 0.0
C92 C 0.0384 0.75156 0.6506 0.0
N93 N 0.0572 0.75507 0.62642 0.0
C94 C 0.05287 0.76098 0.65363 0.0
C95 C 0.03349 0.74392 0.63526 0.0
C96 C 0.0622 0.76261 0.64125 0.0
C97 C 0.04316 0.74585 0.6232 0.0
C98 C 0.02002 0.77858 0.70077 0.0
C99 C 0.02229 0.78571 0.72928 0.0
N100 N 0.03148 0.79919 0.72744 0.0
C101 C 0.0294 0.79253 0.69913 0.0
C102 C 0.01636 0.77515 0.71592 0.0
C103 C 0.03512 0.80278 0.71278 0.0
C104 C 0.00812 0.7927 0.6576 0.0
N105 N 0.01408 0.78066 0.65137 0.0
C106 C 0.02086 0.79424 0.62896 0.0
C107 C 0.02031 0.78123 0.63724 0.0
C108 C 0.01486 0.80692 0.63513 0.0
C109 C 0.00839 0.80592 0.6497 0.0
H110 H 0.00315 0.79205 0.66879 0.0
H111 H 0.02493 0.77165 0.63231 0.0
C112 C 0.05361 0.74268 0.70408 0.0
N113 N 0.04868 0.75504 0.69846 0.0
C114 C 0.06894 0.74371 0.71066 0.0
C115 C 0.07401 0.77021 0.70586 0.0
C116 C 0.05859 0.76869 0.6994 0.0
C117 C 0.07959 0.75758 0.71146 0.0
H118 H 0.04576 0.73182 0.70304 0.0
H119 H 0.05476 0.77831 0.69448 0.0
C120 C 0.98405 0.74145 0.64746 0.0
N121 N 0.96347 0.73027 0.62071 0.0
C122 C 0.96937 0.73364 0.64917 0.0
C123 C 0.98825 0.74368 0.63218 0.0
C124 C 0.95913 0.72804 0.63549 0.0
C125 C 0.97768 0.73791 0.6188 0.0
C126 C 0.00774 0.72474 0.69942 0.0
C127 C 0.99805 0.71048 0.69568 0.0
C128 C 0.01299 0.73017 0.7154 0.0
C129 C 0.99359 0.70192 0.70807 0.0
C130 C 0.00828 0.72127 0.72745 0.0
N131 N 0.99875 0.70746 0.72357 0.0
C132 C 0.02332 0.70947 0.6495 0.0
C133 C 0.99647 0.70531 0.64285 0.0
C134 C 0.02417 0.69571 0.64035 0.0
N135 N 0.00965 0.71414 0.65053 0.0
C136 C 0.99679 0.6914 0.6336 0.0
C137 C 0.01079 0.68633 0.63217 0.0
H138 H 0.03369 0.71655 0.65571 0.0
H139 H 0.98564 0.70896 0.64394 0.0
C140 C 0.97511 0.7629 0.69997 0.0
N141 N 0.97906 0.74913 0.69551 0.0
C142 C 0.96099 0.76371 0.70602 0.0
C143 C 0.95501 0.73617 0.70304 0.0
C144 C 0.96924 0.73588 0.697 0.0
C145 C 0.95047 0.75023 0.70757 0.0
H146 H 0.98277 0.77338 0.69844 0.0
H147 H 0.97221 0.72498 0.69313 0.0
O148 O 0.0292 0.74962 0.66264 0.0
O149 O 0.01438 0.76838 0.68757 0.0
O150 O 0.99423 0.74696 0.6607 0.0
O151 O 0.01222 0.73326 0.68747 0.0
H152 H 0.05685 0.76698 0.66541 0.0
H153 H 0.02229 0.73666 0.63265 0.0
H154 H 0.07343 0.76986 0.64343 0.0
H155 H 0.03949 0.74003 0.61127 0.0
H156 H 0.01957 0.7832 0.7411 0.0
H157 H 0.03231 0.79534 0.68745 0.0
H158 H 0.00897 0.76446 0.71735 0.0
H159 H 0.04245 0.81359 0.71171 0.0
H160 H 0.02618 0.7944 0.61794 0.0
H161 H 0.00338 0.81518 0.65491 0.0
H162 H 0.0724 0.73363 0.71496 0.0
H163 H 0.08161 0.7811 0.70584 0.0
H164 H 0.96596 0.73186 0.66094 0.0
H165 H 0.99955 0.74979 0.63069 0.0
H166 H 0.94774 0.72192 0.63661 0.0
H167 H 0.98077 0.73951 0.60689 0.0
H168 H 0.99395 0.70612 0.68334 0.0
H169 H 0.02066 0.74111 0.71845 0.0
H170 H 0.98603 0.69089 0.70538 0.0
H171 H 0.01222 0.72533 0.73988 0.0
H172 H 0.03531 0.69261 0.63955 0.0
H173 H 0.98609 0.68458 0.62783 0.0
H174 H 0.95819 0.7749 0.70897 0.0
H175 H 0.94764 0.72537 0.70408 0.0
Li176 Li 0.51907 0.79022 0.84833 0.0
Li177 Li 0.53599 0.80752 0.87126 0.0
Li178 Li 0.54887 0.79143 0.85027 0.0
Li179 Li 0.53402 0.7785 0.87068 0.0
C180 C 0.53316 0.8168 0.83528 0.0
N181 N 0.52656 0.83379 0.81068 0.0
C182 C 0.52692 0.82996 0.83835 0.0
C183 C 0.53614 0.8123 0.81975 0.0
C184 C 0.52364 0.8384 0.82573 0.0
C185 C 0.5327 0.82104 0.80746 0.0
C186 C 0.50843 0.79365 0.88348 0.0
C187 C 0.50297 0.79371 0.91096 0.0
N188 N 0.48967 0.79866 0.90698 0.0
C189 C 0.49463 0.79861 0.87964 0.0
C190 C 0.51258 0.79107 0.89924 0.0
C191 C 0.48534 0.80113 0.8917 0.0
C192 C 0.48714 0.77649 0.84037 0.0
N193 N 0.49801 0.78783 0.83631 0.0
C194 C 0.47834 0.79657 0.81978 0.0
C195 C 0.49382 0.79768 0.826 0.0
C196 C 0.46676 0.78523 0.82412 0.0
C197 C 0.47156 0.77498 0.83445 0.0
H198 H 0.49048 0.76881 0.84867 0.0
H199 H 0.50234 0.80674 0.82285 0.0
C200 C 0.54995 0.83551 0.89291 0.0
N201 N 0.53672 0.82731 0.88463 0.0
C202 C 0.54994 0.84941 0.90238 0.0
C203 C 0.52278 0.84633 0.89475 0.0
C204 C 0.52334 0.83266 0.88527 0.0
C205 C 0.53618 0.85499 0.90356 0.0
H206 H 0.56055 0.83127 0.89221 0.0
H207 H 0.51303 0.82638 0.87827 0.0
C208 C 0.53353 0.7639 0.83376 0.0
N209 N 0.53823 0.74547 0.8072 0.0
C210 C 0.54056 0.75125 0.83565 0.0
C211 C 0.52875 0.76711 0.8184 0.0
C212 C 0.54288 0.74209 0.82206 0.0
C213 C 0.53126 0.75767 0.80511 0.0
C214 C 0.56152 0.79424 0.88836 0.0
C215 C 0.57519 0.78861 0.88805 0.0
C216 C 0.55691 0.79916 0.90305 0.0
C217 C 0.58387 0.7877 0.90248 0.0
C218 C 0.56591 0.79809 0.91722 0.0
N219 N 0.57908 0.79241 0.91665 0.0
C220 C 0.57511 0.80042 0.83078 0.0
C221 C 0.57502 0.77765 0.84294 0.0
C222 C 0.58925 0.79911 0.82485 0.0
N223 N 0.56821 0.78978 0.83975 0.0
C224 C 0.58915 0.77598 0.83738 0.0
C225 C 0.59671 0.78684 0.82825 0.0
H226 H 0.56985 0.81016 0.82843 0.0
H227 H 0.56964 0.76932 0.85018 0.0
C228 C 0.51914 0.75414 0.88732 0.0
N229 N 0.53287 0.76074 0.8829 0.0
C230 C 0.51788 0.74096 0.89539 0.0
C231 C 0.54486 0.74138 0.89415 0.0
C232 C 0.54558 0.75451 0.88605 0.0
C233 C 0.53085 0.73432 0.89894 0.0
H234 H 0.50907 0.75902 0.88443 0.0
H235 H 0.55628 0.75954 0.88199 0.0
O236 O 0.53644 0.8084 0.84746 0.0
O237 O 0.51767 0.79109 0.87182 0.0
O238 O 0.53126 0.77306 0.84689 0.0
O239 O 0.55287 0.79522 0.87436 0.0
H240 H 0.52458 0.83359 0.85033 0.0
H241 H 0.54104 0.80217 0.81721 0.0
H242 H 0.51875 0.84859 0.8279 0.0
H243 H 0.5349 0.81769 0.79536 0.0
H244 H 0.50606 0.79177 0.9232 0.0
H245 H 0.49123 0.80067 0.8675 0.0
H246 H 0.52304 0.78692 0.90237 0.0
H247 H 0.47468 0.80507 0.88891 0.0
H248 H 0.47547 0.80491 0.81204 0.0
H249 H 0.46336 0.76583 0.83805 0.0
H250 H 0.56059 0.8556 0.90894 0.0
H251 H 0.51194 0.85022 0.89494 0.0
H252 H 0.54423 0.74858 0.84749 0.0
H253 H 0.52314 0.77679 0.81678 0.0
H254 H 0.54837 0.73229 0.82332 0.0
H255 H 0.52767 0.76003 0.79314 0.0
H256 H 0.57905 0.78492 0.87681 0.0
H257 H 0.54656 0.80387 0.9035 0.0
H258 H 0.59442 0.78328 0.90242 0.0
H259 H 0.56245 0.80183 0.92867 0.0
H260 H 0.59449 0.80794 0.81805 0.0
H261 H 0.59408 0.76617 0.84024 0.0
H262 H 0.50684 0.73609 0.89888 0.0
H263 H 0.55513 0.7366 0.89627 0.0
Li264 Li 0.51433 0.26472 0.16572 0.0
Li265 Li 0.52859 0.25315 0.18769 0.0
Li266 Li 0.51087 0.23582 0.1652 0.0
Li267 Li 0.49918 0.25032 0.18637 0.0
C268 C 0.53743 0.25109 0.15094 0.0
N269 N 0.55289 0.25123 0.12404 0.0
C270 C 0.55338 0.25251 0.1525 0.0
C271 C 0.52934 0.24978 0.13573 0.0
C272 C 0.56099 0.25256 0.13875 0.0
C273 C 0.53736 0.24984 0.12227 0.0
C274 C 0.522 0.27974 0.20256 0.0
C275 C 0.52563 0.28719 0.23106 0.0
N276 N 0.5353 0.30022 0.22875 0.0
C277 C 0.53189 0.29322 0.20044 0.0
C278 C 0.51877 0.2767 0.21796 0.0
C279 C 0.53854 0.30342 0.21385 0.0
C280 C 0.50283 0.28838 0.1503 0.0
N281 N 0.51561 0.28226 0.15345 0.0
C282 C 0.53025 0.30139 0.13994 0.0
C283 C 0.5292 0.28858 0.14853 0.0
C284 C 0.51723 0.30797 0.13645 0.0
C285 C 0.50338 0.30124 0.14181 0.0
H286 H 0.49217 0.28326 0.15442 0.0
H287 H 0.53932 0.28377 0.1514 0.0
C288 C 0.55412 0.24422 0.20695 0.0
N289 N 0.54945 0.25576 0.1994 0.0
C290 C 0.56961 0.24526 0.21296 0.0
C291 C 0.57534 0.27009 0.20358 0.0
C292 C 0.55977 0.26859 0.19776 0.0
C293 C 0.58065 0.25824 0.21112 0.0
H294 H 0.54594 0.23389 0.20778 0.0
H295 H 0.55606 0.27748 0.19136 0.0
C296 C 0.48381 0.24212 0.15051 0.0
N297 N 0.46127 0.22807 0.1264 0.0
C298 C 0.47325 0.22929 0.15314 0.0
C299 C 0.48292 0.24782 0.13564 0.0
C300 C 0.46193 0.22234 0.14079 0.0
C301 C 0.47145 0.24054 0.12359 0.0
C302 C 0.50771 0.22605 0.20079 0.0
C303 C 0.49741 0.21215 0.19707 0.0
C304 C 0.51297 0.23143 0.21678 0.0
C305 C 0.49239 0.2039 0.20948 0.0
C306 C 0.50769 0.22284 0.22884 0.0
N307 N 0.49759 0.20938 0.22497 0.0
C308 C 0.51515 0.20491 0.15839 0.0
C309 C 0.50376 0.2142 0.13579 0.0
C310 C 0.51524 0.19084 0.1494 0.0
N311 N 0.50946 0.2163 0.15156 0.0
C312 C 0.50361 0.2003 0.12635 0.0
C313 C 0.50947 0.18831 0.13306 0.0
H314 H 0.51985 0.20681 0.17086 0.0
H315 H 0.49944 0.22333 0.13039 0.0
C316 C 0.47703 0.26448 0.20309 0.0
N317 N 0.48023 0.25065 0.19752 0.0
C318 C 0.46308 0.26553 0.20938 0.0
C319 C 0.45574 0.2381 0.20435 0.0
C320 C 0.46983 0.23757 0.19816 0.0
C321 C 0.45197 0.25225 0.20998 0.0
H322 H 0.4852 0.27484 0.20235 0.0
H323 H 0.4722 0.22666 0.19341 0.0
O324 O 0.52985 0.25137 0.16428 0.0
O325 O 0.51542 0.2696 0.1896 0.0
O326 O 0.49493 0.24912 0.16245 0.0
O327 O 0.51275 0.23427 0.18882 0.0
H328 H 0.55981 0.25361 0.16421 0.0
H329 H 0.51702 0.24887 0.13437 0.0
H330 H 0.57333 0.25368 0.13976 0.0
H331 H 0.53124 0.24884 0.11041 0.0
H332 H 0.52325 0.28499 0.24306 0.0
H333 H 0.53444 0.29573 0.18856 0.0
H334 H 0.511 0.26637 0.21975 0.0
H335 H 0.54627 0.31388 0.21241 0.0
H336 H 0.54125 0.30628 0.13634 0.0
H337 H 0.493 0.30576 0.13934 0.0
H338 H 0.57299 0.23567 0.21842 0.0
H339 H 0.58318 0.28043 0.20196 0.0
H340 H 0.47387 0.22468 0.16454 0.0
H341 H 0.49105 0.25771 0.13339 0.0
H342 H 0.45368 0.21239 0.14264 0.0
H343 H 0.47064 0.2448 0.11201 0.0
H344 H 0.49324 0.20785 0.18473 0.0
H345 H 0.52107 0.2421 0.21982 0.0
H346 H 0.48435 0.19316 0.20679 0.0
H347 H 0.51165 0.22687 0.24128 0.0
H348 H 0.52013 0.18218 0.15516 0.0
H349 H 0.49887 0.19897 0.11391 0.0
H350 H 0.46104 0.27674 0.2137 0.0
H351 H 0.44767 0.22748 0.2042 0.0
Li352 Li 0.04479 0.79498 0.10033 0.0
Li353 Li 0.05999 0.78306 0.12112 0.0
Li354 Li 0.04217 0.76537 0.09856 0.0
Li355 Li 0.03081 0.77956 0.12099 0.0
C356 C 0.06877 0.78628 0.0851 0.0
N357 N 0.08481 0.79582 0.06026 0.0
C358 C 0.08133 0.79837 0.08806 0.0
C359 C 0.06438 0.77899 0.06955 0.0
C360 C 0.08929 0.80304 0.07532 0.0
C361 C 0.07263 0.784 0.05714 0.0
C362 C 0.05307 0.80908 0.1373 0.0
C363 C 0.05698 0.81626 0.16584 0.0
N364 N 0.06603 0.82966 0.16353 0.0
C365 C 0.06236 0.82293 0.13518 0.0
C366 C 0.0503 0.8057 0.15272 0.0
C367 C 0.06883 0.83318 0.14861 0.0
C368 C 0.03819 0.82519 0.09854 0.0
N369 N 0.0441 0.81434 0.0899 0.0
C370 C 0.04836 0.83143 0.06943 0.0
C371 C 0.04906 0.81725 0.07546 0.0
C372 C 0.04254 0.84297 0.07827 0.0
C373 C 0.03736 0.83949 0.09302 0.0
H374 H 0.03411 0.82279 0.10989 0.0
H375 H 0.05364 0.80863 0.06855 0.0
C376 C 0.08326 0.77054 0.13826 0.0
N377 N 0.0798 0.7841 0.13423 0.0
C378 C 0.09696 0.77009 0.14767 0.0
C379 C 0.10409 0.79746 0.14787 0.0
C380 C 0.09005 0.79743 0.1387 0.0
C381 C 0.10765 0.78366 0.15266 0.0
H382 H 0.07539 0.75995 0.13408 0.0
H383 H 0.08745 0.80807 0.13503 0.0
C384 C 0.01572 0.7735 0.0836 0.0
N385 N 0.99563 0.7634 0.05625 0.0
C386 C 1.00118 0.765 0.08467 0.0
C387 C 0.02004 0.77694 0.06866 0.0
C388 C 0.99119 0.75997 0.07069 0.0
C389 C 0.00972 0.77171 0.05496 0.0
C390 C 0.04243 0.75433 0.13356 0.0
C391 C 0.03438 0.73934 0.12944 0.0
C392 C 0.04869 0.75916 0.14941 0.0
C393 C 0.0327 0.72941 0.14129 0.0
C394 C 0.04675 0.7489 0.16091 0.0
N395 N 0.03886 0.73435 0.15665 0.0
C396 C 0.0536 0.73936 0.08461 0.0
C397 C 0.02655 0.73544 0.0817 0.0
C398 C 0.05322 0.72411 0.07819 0.0
N399 N 0.04039 0.74478 0.08637 0.0
C400 C 0.02565 0.72012 0.07516 0.0
C401 C 0.0391 0.71407 0.07347 0.0
H402 H 0.06452 0.74678 0.08862 0.0
H403 H 0.01613 0.73963 0.08359 0.0
C404 C 1.00061 0.78394 0.12676 0.0
N405 N 0.01296 0.77858 0.13323 0.0
C406 C 0.98733 0.78338 0.13463 0.0
C407 C 0.99963 0.77198 0.15584 0.0
C408 C 0.01265 0.77275 0.14758 0.0
C409 C 0.98665 0.77732 0.14943 0.0
H410 H 1.00105 0.78867 0.11543 0.0
H411 H 0.02247 0.76867 0.15272 0.0
O412 O 0.06088 0.7815 0.09738 0.0
O413 O 0.04658 0.79893 0.12431 0.0
O414 O 0.02566 0.77848 0.09714 0.0
O415 O 0.0445 0.7641 0.12205 0.0
H416 H 0.08485 0.80409 0.10007 0.0
H417 H 0.0547 0.76958 0.0671 0.0
H418 H 0.09902 0.8124 0.07741 0.0
H419 H 0.06936 0.7785 0.04503 0.0
H420 H 0.05495 0.81381 0.17786 0.0
H421 H 0.06465 0.82567 0.1233 0.0
H422 H 0.04307 0.79505 0.15453 0.0
H423 H 0.0761 0.84393 0.14716 0.0
H424 H 0.05261 0.8334 0.05806 0.0
H425 H 0.03249 0.84768 0.10026 0.0
H426 H 0.09932 0.75913 0.15074 0.0
H427 H 0.112 0.8082 0.15134 0.0
H428 H 0.9977 0.7622 0.09616 0.0
H429 H 0.03124 0.78357 0.06767 0.0
H430 H 0.97991 0.75332 0.07131 0.0
H431 H 0.0129 0.77425 0.0433 0.0
H432 H 0.02952 0.7354 0.11721 0.0
H433 H 0.0549 0.77076 0.15282 0.0
H434 H 0.02651 0.71776 0.13827 0.0
H435 H 0.05149 0.75249 0.17323 0.0
H436 H 0.06396 0.72022 0.07704 0.0
H437 H 0.01445 0.71294 0.07203 0.0
H438 H 0.97777 0.78786 0.12925 0.0
H439 H 0.9997 0.76702 0.16708 0.0
Li440 Li 0.50373 0.77524 0.43783 0.0
Li441 Li 0.48639 0.75831 0.4149 0.0
Li442 Li 0.50215 0.74569 0.43675 0.0
Li443 Li 0.5155 0.76056 0.4162 0.0
C444 C 0.47759 0.76347 0.45086 0.0
N445 N 0.46243 0.77436 0.47529 0.0
C446 C 0.46588 0.77165 0.4475 0.0
C447 C 0.48148 0.76066 0.46659 0.0
C448 C 0.45838 0.77712 0.46004 0.0
C449 C 0.47371 0.7663 0.47879 0.0
C450 C 0.50437 0.78571 0.40234 0.0
C451 C 0.50399 0.78857 0.37418 0.0
N452 N 0.50844 0.80401 0.37783 0.0
C453 C 0.50898 0.80158 0.40583 0.0
C454 C 0.50189 0.77913 0.38641 0.0
C455 C 0.51096 0.81064 0.39326 0.0
C456 C 0.51771 0.80322 0.46002 0.0
N457 N 0.5053 0.79604 0.44969 0.0
C458 C 0.49476 0.81923 0.45152 0.0
C459 C 0.49391 0.8038 0.4455 0.0
C460 C 0.50751 0.82707 0.46204 0.0
C461 C 0.51898 0.81866 0.46642 0.0
H462 H 0.52695 0.7972 0.46292 0.0
H463 H 0.48432 0.79817 0.43695 0.0
C464 C 0.45661 0.7438 0.39765 0.0
N465 N 0.46708 0.75711 0.40108 0.0
C466 C 0.44279 0.74333 0.3879 0.0
C467 C 0.45075 0.77015 0.38519 0.0
C468 C 0.46423 0.77019 0.3952 0.0
C469 C 0.43974 0.75661 0.38138 0.0
H470 H 0.45897 0.73353 0.40251 0.0
H471 H 0.4724 0.78077 0.39835 0.0
C472 C 0.53122 0.76306 0.45268 0.0
N473 N 0.55253 0.76295 0.47858 0.0
C474 C 0.54565 0.75974 0.45025 0.0
C475 C 0.52763 0.76635 0.46824 0.0
C476 C 0.55626 0.75972 0.46352 0.0
C477 C 0.53857 0.76624 0.48119 0.0
C478 C 0.5006 0.73073 0.40089 0.0
C479 C 0.50786 0.71864 0.40468 0.0
C480 C 0.49472 0.73132 0.38507 0.0
C481 C 0.50944 0.70749 0.39248 0.0
C482 C 0.49651 0.71994 0.3732 0.0
N483 N 0.50379 0.70837 0.37712 0.0
C484 C 0.49005 0.71454 0.44376 0.0
C485 C 0.51506 0.72399 0.45645 0.0
C486 C 0.49025 0.70008 0.4493 0.0
N487 N 0.50238 0.72625 0.44728 0.0
C488 C 0.51573 0.70975 0.46225 0.0
C489 C 0.50329 0.69732 0.45862 0.0
H490 H 0.48013 0.71625 0.43623 0.0
H491 H 0.52493 0.7331 0.45907 0.0
C492 C 0.53946 0.77495 0.39847 0.0
N493 N 0.53322 0.76154 0.40383 0.0
C494 C 0.5523 0.77585 0.38992 0.0
C495 C 0.55257 0.74928 0.39292 0.0
C496 C 0.5397 0.74889 0.40137 0.0
C497 C 0.55909 0.76289 0.38698 0.0
H498 H 0.53468 0.78512 0.40103 0.0
H499 H 0.53503 0.73848 0.40618 0.0
O500 O 0.48515 0.75815 0.43878 0.0
O501 O 0.50241 0.77666 0.41449 0.0
O502 O 0.52068 0.76303 0.43984 0.0
O503 O 0.49886 0.74169 0.41269 0.0
H504 H 0.46269 0.77382 0.43534 0.0
H505 H 0.49039 0.75415 0.46931 0.0
H506 H 0.44935 0.78355 0.45764 0.0
H507 H 0.47662 0.76426 0.49104 0.0
H508 H 0.50211 0.78364 0.36179 0.0
H509 H 0.51109 0.80685 0.4181 0.0
H510 H 0.4984 0.76687 0.38353 0.0
H511 H 0.51452 0.82295 0.39578 0.0
H512 H 0.48551 0.82498 0.44781 0.0
H513 H 0.52916 0.82412 0.47427 0.0
H514 H 0.43466 0.73262 0.3853 0.0
H515 H 0.44884 0.78073 0.3807 0.0
H516 H 0.54858 0.75715 0.43826 0.0
H517 H 0.51653 0.76902 0.47029 0.0
H518 H 0.56747 0.75714 0.46184 0.0
H519 H 0.53595 0.76878 0.49331 0.0
H520 H 0.51238 0.71796 0.4169 0.0
H521 H 0.48874 0.74038 0.38199 0.0
H522 H 0.51515 0.69813 0.39522 0.0
H523 H 0.49207 0.72027 0.36089 0.0
H524 H 0.48038 0.69102 0.44584 0.0
H525 H 0.52601 0.70855 0.46954 0.0
H526 H 0.55706 0.78673 0.386 0.0
H527 H 0.55731 0.73895 0.391 0.0
Li528 Li 0.54486 0.29569 0.59904 0.0
Li529 Li 0.55993 0.2841 0.6203 0.0
Li530 Li 0.54271 0.26627 0.59746 0.0
Li531 Li 0.53074 0.28002 0.6196 0.0
C532 C 0.56964 0.28839 0.585 0.0
N533 N 0.5864 0.30023 0.56162 0.0
C534 C 0.58313 0.29918 0.58931 0.0
C535 C 0.56468 0.28356 0.56884 0.0
C536 C 0.59144 0.30506 0.57729 0.0
C537 C 0.57332 0.2897 0.55718 0.0
C538 C 0.55067 0.31027 0.6361 0.0
C539 C 0.54932 0.31898 0.66378 0.0
N540 N 0.55972 0.33183 0.66252 0.0
C541 C 0.56131 0.32357 0.63505 0.0
C542 C 0.54457 0.30796 0.65055 0.0
C543 C 0.56574 0.33433 0.64855 0.0
C544 C 0.53052 0.31684 0.58048 0.0
N545 N 0.54412 0.31476 0.58801 0.0
C546 C 0.55571 0.34041 0.58344 0.0
C547 C 0.55664 0.32626 0.58937 0.0
C548 C 0.54176 0.343 0.57582 0.0
C549 C 0.52913 0.33075 0.57422 0.0
H550 H 0.52053 0.30783 0.57969 0.0
H551 H 0.56738 0.32466 0.59542 0.0
C552 C 0.58904 0.27595 0.62894 0.0
N553 N 0.57954 0.28537 0.63406 0.0
C554 C 0.60288 0.27538 0.63814 0.0
C555 C 0.59719 0.29428 0.65785 0.0
C556 C 0.58343 0.29446 0.64829 0.0
C557 C 0.60722 0.28459 0.65294 0.0
H558 H 0.58576 0.26866 0.61772 0.0
H559 H 0.57582 0.30177 0.65243 0.0
C560 C 0.51551 0.27185 0.58324 0.0
N561 N 0.49449 0.25721 0.55803 0.0
C562 C 0.50223 0.26212 0.58619 0.0
C563 C 0.5181 0.27422 0.56751 0.0
C564 C 0.49174 0.25479 0.57327 0.0
C565 C 0.50733 0.2667 0.55491 0.0
C566 C 0.54587 0.25686 0.63388 0.0
C567 C 0.54309 0.24084 0.63184 0.0
C568 C 0.54989 0.26469 0.64925 0.0
C569 C 0.54428 0.23288 0.64527 0.0
C570 C 0.55101 0.25632 0.66237 0.0
N571 N 0.54819 0.24072 0.66013 0.0
C572 C 0.55187 0.24137 0.5772 0.0
C573 C 0.52789 0.23486 0.587 0.0
C574 C 0.55104 0.22602 0.57069 0.0
N575 N 0.54043 0.24555 0.5853 0.0
C576 C 0.52663 0.21942 0.58077 0.0
C577 C 0.53839 0.21463 0.57263 0.0
H578 H 0.56196 0.24982 0.57624 0.0
H579 H 0.51905 0.23819 0.59378 0.0
C580 C 0.50344 0.28879 0.62969 0.0
N581 N 0.51289 0.27847 0.63165 0.0
C582 C 0.49029 0.28814 0.63776 0.0
C583 C 0.49677 0.26632 0.64986 0.0
C584 C 0.5097 0.26729 0.64144 0.0
C585 C 0.48678 0.27682 0.6481 0.0
H586 H 0.50611 0.29754 0.62179 0.0
H587 H 0.51708 0.25899 0.64268 0.0
O588 O 0.56136 0.28253 0.59657 0.0
O589 O 0.54611 0.29964 0.62301 0.0
O590 O 0.52592 0.27908 0.59572 0.0
O591 O 0.5446 0.26483 0.62089 0.0
H592 H 0.5871 0.30299 0.6018 0.0
H593 H 0.5543 0.27513 0.56534 0.0
H594 H 0.60189 0.31345 0.58043 0.0
H595 H 0.56963 0.28608 0.54462 0.0
H596 H 0.54474 0.31732 0.67505 0.0
H597 H 0.56617 0.32551 0.62399 0.0
H598 H 0.53629 0.29776 0.65156 0.0
H599 H 0.57399 0.34467 0.64793 0.0
H600 H 0.56588 0.34928 0.58488 0.0
H601 H 0.51805 0.33205 0.56866 0.0
H602 H 0.60994 0.2675 0.63381 0.0
H603 H 0.59994 0.30178 0.66899 0.0
H604 H 0.50008 0.26021 0.59833 0.0
H605 H 0.52829 0.28182 0.56506 0.0
H606 H 0.48142 0.24719 0.57535 0.0
H607 H 0.50917 0.26841 0.54266 0.0
H608 H 0.53999 0.23461 0.62002 0.0
H609 H 0.55206 0.27708 0.65102 0.0
H610 H 0.54211 0.22048 0.64388 0.0
H611 H 0.5541 0.26223 0.67433 0.0
H612 H 0.56053 0.22304 0.56474 0.0
H613 H 0.51654 0.21128 0.5825 0.0
H614 H 0.48305 0.29657 0.63608 0.0
H615 H 0.49447 0.25723 0.65746 0.0
Li616 Li 0.005 0.27524 0.93682 0.0
Li617 Li 0.9867 0.2576 0.91439 0.0
Li618 Li 0.00368 0.24572 0.93586 0.0
Li619 Li 0.0155 0.2604 0.91485 0.0
C620 C 0.97847 0.26098 0.95085 0.0
N621 N 0.96163 0.26682 0.97583 0.0
C622 C 0.96445 0.26576 0.94789 0.0
C623 C 0.98384 0.25896 0.96645 0.0
C624 C 0.95613 0.26871 0.9607 0.0
C625 C 0.97517 0.26203 0.97894 0.0
C626 C 0.0071 0.2847 0.90138 0.0
C627 C 0.01053 0.28645 0.87356 0.0
N628 N 0.01676 0.30159 0.87717 0.0
C629 C 0.01356 0.30026 0.90483 0.0
C630 C 0.00553 0.27772 0.88563 0.0
C631 C 0.01835 0.30861 0.89241 0.0
C632 C 0.02146 0.30531 0.95086 0.0
N633 N 0.00741 0.29594 0.94888 0.0
C634 C 0.99616 0.31692 0.95952 0.0
C635 C 0.99489 0.30152 0.95317 0.0
C636 C 0.01043 0.327 0.96127 0.0
C637 C 0.02321 0.32085 0.95697 0.0
H638 H 0.03127 0.30086 0.94712 0.0
H639 H 0.98373 0.29421 0.95112 0.0
C640 C 0.95481 0.24445 0.90211 0.0
N641 N 0.96683 0.25608 0.90149 0.0
C642 C 0.94056 0.24406 0.89316 0.0
C643 C 0.95129 0.26751 0.88299 0.0
C644 C 0.96522 0.26753 0.89221 0.0
C645 C 0.93862 0.25569 0.88333 0.0
H646 H 0.95621 0.23551 0.90966 0.0
H647 H 0.9747 0.27688 0.89209 0.0
C648 C 0.03229 0.26401 0.95143 0.0
N649 N 0.05323 0.26585 0.97812 0.0
C650 C 0.04627 0.25924 0.94998 0.0
C651 C 0.02898 0.2698 0.96642 0.0
C652 C 0.0567 0.26023 0.96363 0.0
C653 C 0.03971 0.27061 0.97978 0.0
C654 C 1.00152 0.23035 0.90039 0.0
C655 C 0.01209 0.22087 0.90368 0.0
C656 C 0.99301 0.22844 0.88534 0.0
C657 C 0.01404 0.20964 0.89173 0.0
C658 C 0.99531 0.21709 0.87372 0.0
N659 N 0.00569 0.20801 0.87713 0.0
C660 C 0.99335 0.21409 0.94179 0.0
C661 C 0.01672 0.22527 0.95723 0.0
C662 C 0.99406 0.19978 0.94742 0.0
N663 N 0.00462 0.22658 0.94661 0.0
C664 C 0.01793 0.21116 0.96309 0.0
C665 C 0.0066 0.19795 0.95814 0.0
H666 H 0.98385 0.21513 0.93325 0.0
H667 H 0.02574 0.23506 0.96096 0.0
C668 C 0.04602 0.27137 0.9087 0.0
N669 N 0.03287 0.26185 0.902 0.0
C670 C 0.05938 0.27266 0.90097 0.0
C671 C 0.04548 0.25462 0.87924 0.0
C672 C 0.03235 0.25371 0.88739 0.0
C673 C 0.05936 0.26408 0.88607 0.0
H674 H 0.04618 0.27792 0.9202 0.0
H675 H 0.02182 0.24641 0.88202 0.0
O676 O 0.98677 0.25807 0.93847 0.0
O677 O 1.00212 0.27639 0.91333 0.0
O678 O 0.02199 0.2632 0.9382 0.0
O679 O 0.9993 0.24128 0.91192 0.0
H680 H 0.96012 0.26728 0.93583 0.0
H681 H 0.99455 0.25501 0.96887 0.0
H682 H 0.94531 0.27252 0.95862 0.0
H683 H 0.97921 0.26058 0.99109 0.0
H684 H 0.00942 0.2812 0.86131 0.0
H685 H 0.01474 0.30586 0.91694 0.0
H686 H 1.0005 0.26569 0.88278 0.0
H687 H 0.0233 0.32068 0.89489 0.0
H688 H 0.98589 0.32104 0.96239 0.0
H689 H 0.03448 0.32802 0.95817 0.0
H690 H 0.93122 0.23466 0.89382 0.0
H691 H 0.95038 0.27692 0.87592 0.0
H692 H 0.04899 0.25472 0.93844 0.0
H693 H 0.01827 0.27368 0.96771 0.0
H694 H 0.06755 0.25654 0.96271 0.0
H695 H 0.03731 0.27506 0.99147 0.0
H696 H 0.01871 0.22219 0.91532 0.0
H697 H 0.98474 0.23569 0.88267 0.0
H698 H 0.02219 0.20222 0.89408 0.0
H699 H 0.98885 0.2155 0.86199 0.0
H700 H 0.98479 0.19025 0.94333 0.0
H701 H 0.02798 0.21059 0.9711 0.0
H702 H 0.0696 0.28041 0.90662 0.0
H703 H 0.04479 0.24771 0.86786 0.0
Li704 Li 0.38402 0.01628 0.29622 0.0
Li705 Li 0.36141 1.00196 0.27905 0.0
Li706 Li 0.3822 0.01748 0.26759 0.0
Li707 Li 0.36469 0.02888 0.28351 0.0
C708 C 0.39182 0.98936 0.28415 0.0
N709 N 0.40976 0.96929 0.29504 0.0
C710 C 0.38496 0.97527 0.28861 0.0
C711 C 0.4078 0.9932 0.28514 0.0
C712 C 0.39424 0.96529 0.29411 0.0
C713 C 0.41667 0.98291 0.29071 0.0
C714 C 0.35392 0.02077 0.31024 0.0
C715 C 0.3301 0.02779 0.31672 0.0
N716 N 0.33718 0.03473 0.33119 0.0
C717 C 0.36094 0.02788 0.3252 0.0
C718 C 0.33836 0.02062 0.30597 0.0
C719 C 0.35228 0.0349 0.33562 0.0
C720 C 0.40603 0.03108 0.3207 0.0
N721 N 0.39759 0.01713 0.3148 0.0
C722 C 0.40895 0.00529 0.33583 0.0
C723 C 0.39855 0.0044 0.32225 0.0
C724 C 0.41798 0.0195 0.34198 0.0
C725 C 0.41635 0.03255 0.33442 0.0
H726 H 0.40465 0.04108 0.31481 0.0
H727 H 0.39121 0.9936 0.31773 0.0
C728 C 0.34716 0.97288 0.26376 0.0
N729 N 0.34745 0.98332 0.27665 0.0
C730 C 0.33826 0.95829 0.26301 0.0
C731 C 0.33021 0.96552 0.28883 0.0
C732 C 0.3391 0.98002 0.28898 0.0
C733 C 0.32995 0.95443 0.27585 0.0
H734 H 0.35438 0.97567 0.25444 0.0
H735 H 0.33987 0.98842 0.29925 0.0
C736 C 0.39906 0.04479 0.28101 0.0
N737 N 0.4231 0.06518 0.27222 0.0
C738 C 0.3965 0.05853 0.27551 0.0
C739 C 0.41384 0.04146 0.28217 0.0
C740 C 0.40881 0.06868 0.2711 0.0
C741 C 0.42584 0.0519 0.27763 0.0
C742 C 0.34923 0.00781 0.25108 0.0
C743 C 0.35384 1.00142 0.23698 0.0
C744 C 0.33373 0.00509 0.2535 0.0
C745 C 0.34284 0.99222 0.22559 0.0
C746 C 0.32309 0.99581 0.24184 0.0
N747 N 0.32783 0.98961 0.22825 0.0
C748 C 0.40145 0.00734 0.24655 0.0
C749 C 0.3954 0.03157 0.24202 0.0
C750 C 0.41106 0.00808 0.23446 0.0
N751 N 0.39409 0.01909 0.25026 0.0
C752 C 0.40492 0.0328 0.22978 0.0
C753 C 0.413 0.02099 0.22601 0.0
H754 H 0.39981 0.99734 0.25293 0.0
H755 H 0.38913 0.0406 0.24503 0.0
C756 C 0.35969 0.0563 0.29925 0.0
N757 N 0.35504 0.04582 0.28618 0.0
C758 C 0.35324 0.06944 0.30101 0.0
C759 C 0.33755 0.06072 0.27573 0.0
C760 C 0.34412 0.04766 0.27458 0.0
C761 C 0.34225 0.07183 0.28899 0.0
H762 H 0.36864 0.0546 0.3081 0.0
H763 H 0.34082 0.03917 0.26426 0.0
O764 O 0.38293 0.99923 0.27857 0.0
O765 O 0.36221 0.01387 0.29986 0.0
O766 O 0.38715 0.0347 0.28536 0.0
O767 O 0.35984 0.01673 0.26243 0.0
H768 H 0.37263 0.97208 0.28797 0.0
H769 H 0.41331 0.00399 0.28163 0.0
H770 H 0.38908 0.95437 0.29765 0.0
H771 H 0.42905 0.98576 0.29157 0.0
H772 H 0.31807 0.02785 0.31354 0.0
H773 H 0.37296 0.02803 0.32872 0.0
H774 H 0.33276 0.01514 0.29444 0.0
H775 H 0.35757 0.0405 0.34722 0.0
H776 H 0.40974 0.99507 0.34164 0.0
H777 H 0.4231 0.04371 0.33898 0.0
H778 H 0.33854 0.94988 0.25297 0.0
H779 H 0.32399 0.96284 0.29896 0.0
H780 H 0.38511 0.06128 0.2746 0.0
H781 H 0.41602 0.03094 0.28655 0.0
H782 H 0.407 0.07935 0.26677 0.0
H783 H 0.43734 0.04945 0.27841 0.0
H784 H 0.36578 0.00344 0.2349 0.0
H785 H 0.32998 0.00998 0.26434 0.0
H786 H 0.34624 0.98713 0.21466 0.0
H787 H 0.31107 0.99351 0.2436 0.0
H788 H 0.41673 0.99852 0.23159 0.0
H789 H 0.40606 0.0429 0.22346 0.0
H790 H 0.35727 0.07792 0.31126 0.0
H791 H 0.3291 0.06229 0.26623 0.0
Li792 Li 0.26875 0.17235 0.523 0.0
Li793 Li 0.27902 0.15188 0.50767 0.0
Li794 Li 0.26658 0.17126 0.49357 0.0
Li795 Li 0.25054 0.15075 0.50539 0.0
C796 C 0.29689 0.18595 0.51666 0.0
N797 N 0.3195 0.20891 0.53282 0.0
C798 C 0.31016 0.1823 0.52432 0.0
C799 C 0.29517 0.20127 0.5171 0.0
C800 C 0.32145 0.19408 0.53245 0.0
C801 C 0.30671 0.21271 0.52537 0.0
C802 C 0.26572 0.1388 0.5347 0.0
C803 C 0.25922 0.1125 0.54024 0.0
N804 N 0.26714 0.11638 0.55505 0.0
C805 C 0.27377 0.14252 0.54999 0.0
C806 C 0.25835 0.12366 0.52979 0.0
C807 C 0.27437 0.13103 0.56009 0.0
C808 C 0.25902 0.19096 0.54776 0.0
N809 N 0.27113 0.18475 0.54344 0.0
C810 C 0.28515 0.19386 0.56918 0.0
C811 C 0.28408 0.18612 0.55378 0.0
C812 C 0.2727 0.20013 0.57412 0.0
C813 C 0.25957 0.19875 0.56307 0.0
H814 H 0.24875 0.18955 0.53946 0.0
H815 H 0.2934 0.18071 0.55033 0.0
C816 C 0.30654 0.145 0.49746 0.0
N817 N 0.29569 0.14068 0.50732 0.0
C818 C 0.31919 0.1377 0.49674 0.0
C819 C 0.30923 0.1215 0.51618 0.0
C820 C 0.29687 0.12917 0.51661 0.0
C821 C 0.32062 0.12573 0.50616 0.0
H822 H 0.30539 0.15422 0.49021 0.0
H823 H 0.28831 0.12586 0.52442 0.0
C824 C 0.24266 0.18361 0.50175 0.0
N825 N 0.22734 0.20478 0.48879 0.0
C826 C 0.22915 0.17868 0.4914 0.0
C827 C 0.2483 0.1993 0.50564 0.0
C828 C 0.2216 0.18956 0.48493 0.0
C829 C 0.24041 0.20982 0.49893 0.0
C830 C 0.25943 0.13492 0.47855 0.0
C831 C 0.25248 0.13444 0.46292 0.0
C832 C 0.26185 0.12132 0.48448 0.0
C833 C 0.24783 0.12031 0.45356 0.0
C834 C 0.25707 0.10741 0.47474 0.0
N835 N 0.25019 0.1072 0.45962 0.0
C836 C 0.27983 0.19274 0.47303 0.0
C837 C 0.2551 0.17867 0.46336 0.0
C838 C 0.28075 0.19967 0.45882 0.0
N839 N 0.26716 0.18239 0.47501 0.0
C840 C 0.25558 0.18521 0.44893 0.0
C841 C 0.26861 0.19575 0.44641 0.0
H842 H 0.28943 0.1953 0.48229 0.0
H843 H 0.24521 0.17031 0.46511 0.0
C844 C 0.22517 0.13362 0.51756 0.0
N845 N 0.23063 0.13781 0.50378 0.0
C846 C 0.21077 0.12428 0.51714 0.0
C847 C 0.20739 0.12444 0.48842 0.0
C848 C 0.22201 0.13353 0.48936 0.0
C849 C 0.20167 0.1196 0.50243 0.0
H850 H 0.23198 0.13759 0.52894 0.0
H851 H 0.22637 0.13737 0.47861 0.0
O852 O 0.28569 0.17459 0.50869 0.0
O853 O 0.26493 0.14995 0.5247 0.0
O854 O 0.25024 0.17314 0.50815 0.0
O855 O 0.26398 0.14866 0.4879 0.0
H856 H 0.31165 0.1705 0.52411 0.0
H857 H 0.28504 0.20428 0.51112 0.0
H858 H 0.33175 0.19143 0.5385 0.0
H859 H 0.30552 0.22461 0.52585 0.0
H860 H 0.2536 0.10075 0.53657 0.0
H861 H 0.27953 0.15414 0.55402 0.0
H862 H 0.25206 0.12053 0.51802 0.0
H863 H 0.28057 0.13376 0.57195 0.0
H864 H 0.29541 0.19441 0.57734 0.0
H865 H 0.24974 0.20351 0.56626 0.0
H866 H 0.32767 0.14128 0.48878 0.0
H867 H 0.30998 0.1125 0.52384 0.0
H868 H 0.22461 0.16658 0.48832 0.0
H869 H 0.25861 0.20329 0.51382 0.0
H870 H 0.21117 0.18591 0.47684 0.0
H871 H 0.24466 0.222 0.50182 0.0
H872 H 0.25062 0.14486 0.45807 0.0
H873 H 0.26741 0.12148 0.49644 0.0
H874 H 0.24234 0.11977 0.44148 0.0
H875 H 0.25885 0.09679 0.4792 0.0
H876 H 0.29109 0.20759 0.45734 0.0
H877 H 0.24589 0.18196 0.43977 0.0
H878 H 0.20665 0.12103 0.52824 0.0
H879 H 0.20067 0.12113 0.47685 0.0
Li880 Li 0.14424 0.04399 0.77976 0.0
Li881 Li 0.12395 0.02752 0.79206 0.0
Li882 Li 0.14319 0.01547 0.77719 0.0
Li883 Li 0.12235 0.02571 0.76262 0.0
C884 C 0.15983 0.03392 0.8072 0.0
N885 N 0.18655 0.041 0.82793 0.0
C886 C 0.15934 0.03859 0.82339 0.0
C887 C 0.17387 0.03278 0.80154 0.0
C888 C 0.17299 0.04214 0.83368 0.0
C889 C 0.18727 0.03643 0.81221 0.0
C890 C 0.11216 0.05261 0.78426 0.0
C891 C 0.08666 0.05633 0.78866 0.0
N892 N 0.09269 0.07006 0.79733 0.0
C893 C 0.11811 0.06682 0.79308 0.0
C894 C 0.09632 0.04736 0.78191 0.0
C895 C 0.10807 0.07545 0.79964 0.0
C896 C 0.15543 0.07116 0.76731 0.0
N897 N 0.15688 0.06396 0.78073 0.0
C898 C 0.17555 0.08532 0.79359 0.0
C899 C 0.1666 0.07078 0.79382 0.0
C900 C 0.17442 0.09301 0.77981 0.0
C901 C 0.16409 0.08571 0.76658 0.0
H902 H 0.14751 0.06554 0.75713 0.0
H903 H 0.16746 0.065 0.80446 0.0
C904 C 0.10515 0.01295 0.81393 0.0
N905 N 0.11316 0.02659 0.8108 0.0
C906 C 0.09814 0.01187 0.82808 0.0
C907 C 0.10762 0.03893 0.83547 0.0
C908 C 0.11457 0.03944 0.82129 0.0
C909 C 0.09936 0.02497 0.83918 0.0
H910 H 0.10449 0.00279 0.80563 0.0
H911 H 0.12138 0.05006 0.81883 0.0
C912 C 0.15588 0.02931 0.75039 0.0
N913 N 0.17853 0.02887 0.73019 0.0
C914 C 0.15275 0.02037 0.73555 0.0
C915 C 0.17053 0.03808 0.75494 0.0
C916 C 0.16436 0.02029 0.72551 0.0
C917 C 0.18183 0.03768 0.74457 0.0
C918 C 0.10841 0.99791 0.76928 0.0
C919 C 0.11095 0.98474 0.76038 0.0
C920 C 0.09342 1.00007 0.77069 0.0
C921 C 0.09839 0.97399 0.75286 0.0
C922 C 0.08117 0.98906 0.76299 0.0
N923 N 0.08389 0.97637 0.7543 0.0
C924 C 0.14935 0.98685 0.78491 0.0
C925 C 0.16745 0.99923 0.76928 0.0
C926 C 0.1568 0.97425 0.78505 0.0
N927 N 0.1547 0.99899 0.77703 0.0
C928 C 0.17522 0.98689 0.76909 0.0
C929 C 0.16993 0.97411 0.77701 0.0
H930 H 0.13923 0.98692 0.79104 0.0
H931 H 0.17165 0.00893 0.76318 0.0
C932 C 0.10235 0.03534 0.73899 0.0
N933 N 0.10947 0.02358 0.74258 0.0
C934 C 0.09423 0.03497 0.72389 0.0
C935 C 0.10072 0.01027 0.71646 0.0
C936 C 0.10869 0.01112 0.7317 0.0
C937 C 0.09352 0.0224 0.71226 0.0
H938 H 0.10337 0.04528 0.74769 0.0
H939 H 0.11466 1.00203 0.73466 0.0
O940 O 0.14657 0.03041 0.79699 0.0
O941 O 0.12181 0.04401 0.77775 0.0
O942 O 0.1446 0.02969 0.76028 0.0
O943 O 0.12055 0.00858 0.77668 0.0
H944 H 0.14853 0.03949 0.82795 0.0
H945 H 0.17443 0.02918 0.78905 0.0
H946 H 0.1728 0.04581 0.84624 0.0
H947 H 0.19823 0.03563 0.808 0.0
H948 H 0.07437 0.05239 0.78698 0.0
H949 H 0.13036 0.07107 0.79495 0.0
H950 H 0.09153 0.0365 0.7749 0.0
H951 H 0.11251 0.08642 0.80658 0.0
H952 H 0.18343 0.09037 0.80403 0.0
H953 H 0.16255 0.09123 0.75581 0.0
H954 H 0.0922 1.00077 0.83046 0.0
H955 H 0.10878 0.0494 0.84345 0.0
H956 H 0.14149 0.01353 0.73182 0.0
H957 H 0.17321 0.04502 0.7664 0.0
H958 H 0.16209 0.0134 0.71399 0.0
H959 H 0.19322 0.04437 0.74796 0.0
H960 H 0.12251 0.98291 0.75919 0.0
H961 H 0.09128 0.01012 0.7777 0.0
H962 H 0.10018 0.96378 0.74586 0.0
H963 H 0.0695 0.9906 0.76394 0.0
H964 H 0.15237 0.96478 0.7915 0.0
H965 H 0.18514 0.98728 0.76254 0.0
H966 H 0.08909 0.0447 0.72116 0.0
H967 H 0.10037 1.00027 0.70798 0.0
Li968 Li 0.26932 0.92898 0.00054 0.0
Li969 Li 0.27818 0.91102 0.01791 0.0
Li970 Li 0.29537 0.93111 0.00745 0.0
Li971 Li 0.28147 0.90903 0.98934 0.0
C972 C 0.28819 0.94422 0.03411 0.0
N973 N 0.30615 0.96557 0.05718 0.0
C974 C 0.29303 0.93988 0.04896 0.0
C975 C 0.29231 0.95947 0.03108 0.0
C976 C 0.30214 0.95084 0.06045 0.0
C977 C 0.30146 0.97008 0.04287 0.0
C978 C 0.25187 0.89373 0.00023 0.0
C979 C 0.24555 0.86637 0.00087 0.0
N980 N 0.23077 0.86759 0.00261 0.0
C981 C 0.23663 0.89471 0.00198 0.0
C982 C 0.25638 0.87946 0.99962 0.0
C983 C 0.22613 0.88136 0.00318 0.0
C984 C 0.24264 0.93204 0.98332 0.0
N985 N 0.25324 0.93894 0.99561 0.0
C986 C 0.23938 0.95901 0.00072 0.0
C987 C 0.25206 0.95227 0.00416 0.0
C988 C 0.22792 0.9518 0.9885 0.0
C989 C 0.22977 0.93835 0.97949 0.0
H990 H 0.24405 0.92143 0.97679 0.0
H991 H 0.26071 0.95737 0.0139 0.0
C992 C 0.28839 0.89592 0.04242 0.0
N993 N 0.27536 0.89919 0.03505 0.0
C994 C 0.28767 0.88653 0.05468 0.0
C995 C 0.26006 0.88412 0.05167 0.0
C996 C 0.26136 0.8938 0.03959 0.0
C997 C 0.27335 0.88027 0.0593 0.0
H998 H 0.29939 0.90065 0.03875 0.0
H999 H 0.2512 0.89687 0.03375 0.0
C1000 C 0.27938 0.93913 0.97477 0.0
N1001 N 0.26623 0.95573 0.95305 0.0
C1002 C 0.27221 0.93188 0.9599 0.0
C1003 C 0.28 0.95486 0.97852 0.0
C1004 C 0.2656 0.94046 0.9491 0.0
C1005 C 0.27323 0.96304 0.9674 0.0
C1006 C 0.30719 0.90024 0.00461 0.0
C1007 C 0.32124 0.90654 0.99962 0.0
C1008 C 0.30387 0.88459 0.00626 0.0
C1009 C 0.33163 0.89698 0.9961 0.0
C1010 C 0.31456 0.87541 0.00261 0.0
N1011 N 0.3281 0.88174 0.99763 0.0
C1012 C 0.32369 0.94251 0.02511 0.0
C1013 C 0.31902 0.95375 0.00111 0.0
C1014 C 0.33858 0.95086 0.02773 0.0
N1015 N 0.31438 0.94404 0.01191 0.0
C1016 C 0.33385 0.96221 0.00317 0.0
C1017 C 0.34386 0.96054 0.01645 0.0
H1018 H 0.31971 0.93437 0.03323 0.0
H1019 H 0.31143 0.95444 0.99057 0.0
C1020 C 0.2672 0.888 0.96387 0.0
N1021 N 0.28119 0.89527 0.97103 0.0
C1022 C 0.26601 0.87764 0.95025 0.0
C1023 C 0.29367 0.88297 0.95117 0.0
C1024 C 0.29431 0.89326 0.9648 0.0
C1025 C 0.27937 0.87496 0.94382 0.0
H1026 H 0.25691 0.89037 0.96861 0.0
H1027 H 0.30521 0.89977 0.97023 0.0
O1028 O 0.27945 0.93359 0.02262 0.0
O1029 O 0.26229 0.9067 0.99906 0.0
O1030 O 0.28566 0.93085 0.98563 0.0
O1031 O 0.29689 0.90942 0.00822 0.0
H1032 H 0.28984 0.92818 0.05157 0.0
H1033 H 0.28871 0.96302 0.01964 0.0
H1034 H 0.30605 0.94762 0.07196 0.0
H1035 H 0.30486 0.98188 0.04062 0.0
H1036 H 0.24888 0.85525 0.00042 0.0
H1037 H 0.23296 0.90569 0.00249 0.0
H1038 H 0.2681 0.8785 0.99814 0.0
H1039 H 0.2143 0.88195 0.00458 0.0
H1040 H 0.23813 0.96924 0.00811 0.0
H1041 H 0.22109 0.93251 0.97002 0.0
H1042 H 0.29827 0.88433 0.06056 0.0
H1043 H 0.24879 0.87957 0.05482 0.0
H1044 H 0.27167 0.91974 0.95676 0.0
H1045 H 0.28544 0.96065 0.98999 0.0
H1046 H 0.25995 0.93498 0.93759 0.0
H1047 H 0.27351 0.97518 0.97021 0.0
H1048 H 0.32401 0.91861 0.99824 0.0
H1049 H 0.29318 0.87957 0.01039 0.0
H1050 H 0.3425 0.90167 0.99211 0.0
H1051 H 0.31211 0.86327 0.00377 0.0
H1052 H 0.34614 0.94913 0.03795 0.0
H1053 H 0.33764 0.96957 0.99424 0.0
H1054 H 0.25477 0.87171 0.94489 0.0
H1055 H 0.3042 0.88149 0.94627 0.0
Li1056 Li 0.26795 0.38708 0.02701 0.0
Li1057 Li 0.28006 0.36856 0.04102 0.0
Li1058 Li 0.29657 0.38993 0.02871 0.0
Li1059 Li 0.28004 0.36728 0.01141 0.0
C1060 C 0.2829 0.40409 0.05645 0.0
N1061 N 0.28228 0.4301 0.07679 0.0
C1062 C 0.27683 0.40281 0.07106 0.0
C1063 C 0.28891 0.41858 0.05231 0.0
C1064 C 0.27653 0.4161 0.08113 0.0
C1065 C 0.28843 0.43159 0.06272 0.0
C1066 C 0.25149 0.35247 0.02743 0.0
C1067 C 0.24144 0.32538 0.02592 0.0
N1068 N 0.22988 0.32849 0.03441 0.0
C1069 C 0.23941 0.35542 0.03595 0.0
C1070 C 0.25244 0.33736 0.0222 0.0
C1071 C 0.22865 0.34313 0.03945 0.0
C1072 C 0.24466 0.40074 0.01194 0.0
N1073 N 0.25088 0.39761 0.02632 0.0
C1074 C 0.23204 0.40842 0.03968 0.0
C1075 C 0.24472 0.40113 0.04004 0.0
C1076 C 0.2255 0.41204 0.02503 0.0
C1077 C 0.23202 0.40808 0.01102 0.0
H1078 H 0.24945 0.39744 0.00111 0.0
H1079 H 0.24945 0.39801 0.05124 0.0
C1080 C 0.29006 0.34967 0.06428 0.0
N1081 N 0.27883 0.35736 0.0595 0.0
C1082 C 0.28941 0.34231 0.07823 0.0
C1083 C 0.26576 0.35107 0.08226 0.0
C1084 C 0.26686 0.35821 0.06823 0.0
C1085 C 0.27716 0.343 0.08752 0.0
H1086 H 0.29971 0.34945 0.05746 0.0
H1087 H 0.25833 0.3648 0.06452 0.0
C1088 C 0.28187 0.40035 0.99921 0.0
N1089 N 0.28243 0.42219 0.97798 0.0
C1090 C 0.28354 0.39648 0.98311 0.0
C1091 C 0.28043 0.41532 0.0045 0.0
C1092 C 0.28382 0.40769 0.97257 0.0
C1093 C 0.28075 0.4262 0.99358 0.0
C1094 C 0.30593 0.35645 0.02507 0.0
C1095 C 0.32131 0.36033 0.02245 0.0
C1096 C 0.29905 0.34104 0.02448 0.0
C1097 C 0.32957 0.34865 0.01922 0.0
C1098 C 0.3077 0.3297 0.02122 0.0
N1099 N 0.32265 0.33371 0.01867 0.0
C1100 C 0.32598 0.40481 0.04387 0.0
C1101 C 0.32002 0.41127 0.01772 0.0
C1102 C 0.34054 0.41411 0.04505 0.0
N1103 N 0.31607 0.40356 0.03033 0.0
C1104 C 0.33433 0.42082 0.01847 0.0
C1105 C 0.34485 0.4223 0.03223 0.0
H1106 H 0.32263 0.39845 0.05368 0.0
H1107 H 0.3122 0.40986 0.00692 0.0
C1108 C 0.26519 0.34977 0.98236 0.0
N1109 N 0.27902 0.35513 0.9911 0.0
C1110 C 0.26437 0.34226 0.96686 0.0
C1111 C 0.29198 0.34558 0.9698 0.0
C1112 C 0.29228 0.35319 0.98511 0.0
C1113 C 0.27791 0.34018 0.96025 0.0
H1114 H 0.25481 0.35172 0.98726 0.0
H1115 H 0.30317 0.35789 0.99204 0.0
O1116 O 0.28339 0.39119 0.04651 0.0
O1117 O 0.26209 0.36435 0.02384 0.0
O1118 O 0.28161 0.3895 0.00967 0.0
O1119 O 0.29767 0.36774 0.02819 0.0
H1120 H 0.2723 0.39169 0.07455 0.0
H1121 H 0.29401 0.41977 0.04126 0.0
H1122 H 0.27176 0.41528 0.09242 0.0
H1123 H 0.29301 0.44288 0.05965 0.0
H1124 H 0.24205 0.31362 0.02199 0.0
H1125 H 0.23842 0.36707 0.03992 0.0
H1126 H 0.26149 0.33491 0.01524 0.0
H1127 H 0.2193 0.34523 0.04615 0.0
H1128 H 0.22721 0.41089 0.05074 0.0
H1129 H 0.22748 0.4107 0.99946 0.0
H1130 H 0.29843 0.33617 0.08169 0.0
H1131 H 0.25629 0.35227 0.08915 0.0
H1132 H 0.28465 0.38494 0.97882 0.0
H1133 H 0.27889 0.41846 0.01684 0.0
H1134 H 0.28514 0.40486 0.96008 0.0
H1135 H 0.27962 0.43782 0.99751 0.0
H1136 H 0.32678 0.37223 0.02287 0.0
H1137 H 0.28721 0.33788 0.02665 0.0
H1138 H 0.34148 0.35147 0.01714 0.0
H1139 H 0.30253 0.31772 0.02075 0.0
H1140 H 0.34829 0.41496 0.0559 0.0
H1141 H 0.33727 0.4267 0.00819 0.0
H1142 H 0.25325 0.33859 0.95996 0.0
H1143 H 0.30275 0.3441 0.96546 0.0
Li1144 Li 0.76716 0.1357 0.04751 0.0
Li1145 Li 0.78092 0.1169 0.03516 0.0
Li1146 Li 0.76945 0.13489 0.02005 0.0
Li1147 Li 0.75323 0.11357 0.03019 0.0
C1148 C 0.7964 0.15031 0.03127 0.0
N1149 N 0.81573 0.17155 0.01708 0.0
C1150 C 0.80859 0.14601 0.02379 0.0
C1151 C 0.79414 0.16548 0.03165 0.0
C1152 C 0.81822 0.1569 0.01667 0.0
C1153 C 0.804 0.17602 0.02437 0.0
C1154 C 0.76389 0.10129 0.05853 0.0
C1155 C 0.76028 0.07384 0.05843 0.0
N1156 N 0.76002 0.07551 0.07459 0.0
C1157 C 0.76357 0.10275 0.07513 0.0
C1158 C 0.76223 0.08674 0.05009 0.0
C1159 C 0.76161 0.08957 0.08303 0.0
C1160 C 0.75541 0.14386 0.0759 0.0
N1161 N 0.76697 0.14756 0.06674 0.0
C1162 C 0.77891 0.16876 0.08555 0.0
C1163 C 0.77871 0.15953 0.07132 0.0
C1164 C 0.76703 0.16536 0.09516 0.0
C1165 C 0.75522 0.15269 0.09036 0.0
H1166 H 0.74634 0.13411 0.07189 0.0
H1167 H 0.78794 0.16187 0.06397 0.0
C1168 C 0.80388 0.10308 0.02472 0.0
N1169 N 0.79697 0.10648 0.03791 0.0
C1170 C 0.81644 0.09586 0.02605 0.0
C1171 C 0.81413 0.0953 0.05442 0.0
C1172 C 0.80173 0.1028 0.05258 0.0
C1173 C 0.82166 0.09203 0.04105 0.0
H1174 H 0.79979 0.10627 0.01327 0.0
H1175 H 0.79607 0.10589 0.06286 0.0
C1176 C 0.74099 0.14385 0.03702 0.0
N1177 N 0.72226 0.16138 0.05148 0.0
C1178 C 0.72577 0.13746 0.0385 0.0
C1179 C 0.74653 0.15931 0.04251 0.0
C1180 C 0.71652 0.14647 0.04593 0.0
C1181 C 0.73694 0.16794 0.04992 0.0
C1182 C 0.76457 0.10177 0.0016 0.0
C1183 C 0.75711 0.10522 0.98745 0.0
C1184 C 0.76804 0.08713 0.00242 0.0
C1185 C 0.75313 0.09391 0.97438 0.0
C1186 C 0.76385 0.07614 0.9891 0.0
N1187 N 0.75654 0.07972 0.97547 0.0
C1188 C 0.77966 0.14279 0.99069 0.0
C1189 C 0.76505 0.15937 0.00317 0.0
C1190 C 0.78079 0.15147 0.97778 0.0
N1191 N 0.77165 0.14675 0.00285 0.0
C1192 C 0.76613 0.16852 0.99071 0.0
C1193 C 0.77376 0.16442 0.9776 0.0
H1194 H 0.78488 0.13271 0.99089 0.0
H1195 H 0.75889 0.1623 0.01307 0.0
C1196 C 0.72772 0.09871 0.0414 0.0
N1197 N 0.7351 0.09886 0.02801 0.0
C1198 C 0.71339 0.08952 0.04114 0.0
C1199 C 0.71498 0.07996 0.01364 0.0
C1200 C 0.7292 0.08957 0.01435 0.0
C1201 C 0.70685 0.08025 0.02704 0.0
H1202 H 0.73268 0.10631 0.05205 0.0
H1203 H 0.73515 0.08992 0.00383 0.0
O1204 O 0.78665 0.13972 0.03803 0.0
O1205 O 0.76565 0.11411 0.05064 0.0
O1206 O 0.75022 0.13514 0.02979 0.0
O1207 O 0.76867 0.11273 0.01447 0.0
H1208 H 0.81059 0.13439 0.02344 0.0
H1209 H 0.78473 0.16903 0.03727 0.0
H1210 H 0.82766 0.15369 0.01079 0.0
H1211 H 0.80228 0.18775 0.02446 0.0
H1212 H 0.75895 0.06249 0.05205 0.0
H1213 H 0.76484 0.11395 0.08183 0.0
H1214 H 0.76233 0.08543 0.03725 0.0
H1215 H 0.76135 0.09053 0.09588 0.0
H1216 H 0.78831 0.17831 0.08913 0.0
H1217 H 0.74591 0.14982 0.09758 0.0
H1218 H 0.82211 0.09338 0.01554 0.0
H1219 H 0.81807 0.09249 0.06612 0.0
H1220 H 0.72105 0.12573 0.03376 0.0
H1221 H 0.75822 0.16453 0.04137 0.0
H1222 H 0.70475 0.14162 0.04721 0.0
H1223 H 0.74118 0.17984 0.05444 0.0
H1224 H 0.75428 0.11647 0.98663 0.0
H1225 H 0.77394 0.08428 0.01319 0.0
H1226 H 0.74729 0.0964 0.96338 0.0
H1227 H 0.76643 0.06476 0.98958 0.0
H1228 H 0.78662 0.14776 0.96784 0.0
H1229 H 0.76082 0.17856 0.99125 0.0
H1230 H 0.70725 0.09 0.05163 0.0
H1231 H 0.71004 0.07303 0.00253 0.0
Li1232 Li 0.1823 0.54009 0.25496 0.0
Li1233 Li 0.16152 0.52391 0.26645 0.0
Li1234 Li 0.17882 0.51248 0.24957 0.0
Li1235 Li 0.15943 0.52658 0.23858 0.0
C1236 C 0.19398 0.53048 0.28407 0.0
N1237 N 0.21392 0.54225 0.31123 0.0
C1238 C 0.18874 0.53801 0.29718 0.0
C1239 C 0.20937 0.52893 0.28482 0.0
C1240 C 0.199 0.54387 0.31079 0.0
C1241 C 0.21927 0.53496 0.29864 0.0
C1242 C 0.15108 0.55209 0.25129 0.0
C1243 C 0.12537 0.55563 0.24314 0.0
N1244 N 0.13102 0.57017 0.24021 0.0
C1245 C 0.1566 0.56715 0.24843 0.0
C1246 C 0.13531 0.54636 0.24886 0.0
C1247 C 0.14629 0.57608 0.24275 0.0
C1248 C 0.196 0.56611 0.24335 0.0
N1249 N 0.19652 0.55867 0.25669 0.0
C1250 C 0.21367 0.58007 0.27132 0.0
C1251 C 0.20539 0.5652 0.27043 0.0
C1252 C 0.21244 0.58829 0.25807 0.0
C1253 C 0.20381 0.58112 0.24381 0.0
H1254 H 0.18865 0.56073 0.23268 0.0
H1255 H 0.20549 0.55934 0.28097 0.0
C1256 C 0.14837 0.50899 0.2917 0.0
N1257 N 0.15026 0.52193 0.28417 0.0
C1258 C 0.1403 0.50831 0.30512 0.0
C1259 C 0.13647 0.53426 0.30271 0.0
C1260 C 0.14446 0.53439 0.28933 0.0
C1261 C 0.13442 0.52115 0.31084 0.0
H1262 H 0.15325 0.49931 0.28736 0.0
H1263 H 0.14629 0.54457 0.28322 0.0
C1264 C 0.1938 0.5295 0.22652 0.0
N1265 N 0.22006 0.53324 0.21124 0.0
C1266 C 0.19298 0.5318 0.21033 0.0
C1267 C 0.20794 0.52912 0.23496 0.0
C1268 C 0.2064 0.53367 0.20281 0.0
C1269 C 0.2211 0.53102 0.22701 0.0
C1270 C 0.14512 0.4956 0.25141 0.0
C1271 C 0.14831 0.4808 0.25162 0.0
C1272 C 0.13042 0.49818 0.25374 0.0
C1273 C 0.13669 0.46882 0.25413 0.0
C1274 C 0.11915 0.48593 0.25634 0.0
N1275 N 0.12248 0.47161 0.25643 0.0
C1276 C 0.19696 0.49194 0.25855 0.0
C1277 C 0.18736 0.48827 0.23097 0.0
C1278 C 0.20431 0.47949 0.25658 0.0
N1279 N 0.18876 0.49604 0.24584 0.0
C1280 C 0.19427 0.47548 0.22852 0.0
C1281 C 0.20284 0.47104 0.24147 0.0
H1282 H 0.19746 0.49811 0.27028 0.0
H1283 H 0.18061 0.49183 0.22117 0.0
C1284 C 0.14908 0.5399 0.21222 0.0
N1285 N 0.14638 0.52733 0.22021 0.0
C1286 C 0.14005 0.54061 0.19804 0.0
C1287 C 0.12593 0.51526 0.20048 0.0
C1288 C 0.13513 0.51511 0.2147 0.0
C1289 C 0.12841 0.52811 0.192 0.0
H1290 H 0.15836 0.54927 0.2168 0.0
H1291 H 0.13347 0.50518 0.2212 0.0
O1292 O 0.18409 0.52456 0.27067 0.0
O1293 O 0.16103 0.54312 0.25675 0.0
O1294 O 0.18077 0.52783 0.23404 0.0
O1295 O 0.15618 0.50729 0.2482 0.0
H1296 H 0.17696 0.53949 0.29682 0.0
H1297 H 0.2137 0.52321 0.27482 0.0
H1298 H 0.19511 0.54976 0.32098 0.0
H1299 H 0.23121 0.53388 0.29934 0.0
H1300 H 0.11316 0.55126 0.24106 0.0
H1301 H 0.16867 0.572 0.25071 0.0
H1302 H 0.1308 0.53486 0.25125 0.0
H1303 H 0.15043 0.58774 0.24043 0.0
H1304 H 0.22008 0.58545 0.28256 0.0
H1305 H 0.20259 0.58729 0.23344 0.0
H1306 H 0.13899 0.49804 0.31117 0.0
H1307 H 0.13196 0.54433 0.30667 0.0
H1308 H 0.18209 0.53218 0.20367 0.0
H1309 H 0.20873 0.52742 0.2475 0.0
H1310 H 0.20595 0.53547 0.19028 0.0
H1311 H 0.23214 0.53075 0.23338 0.0
H1312 H 0.15957 0.47855 0.24966 0.0
H1313 H 0.12771 0.50949 0.25353 0.0
H1314 H 0.13895 0.45729 0.25419 0.0
H1315 H 0.10774 0.48779 0.2582 0.0
H1316 H 0.21052 0.47609 0.2669 0.0
H1317 H 0.19279 0.46902 0.21677 0.0
H1318 H 0.14237 0.55062 0.19167 0.0
H1319 H 0.11699 0.50546 0.19616 0.0
Li1320 Li 0.76741 0.88881 0.5272 0.0
Li1321 Li 0.77944 0.87011 0.54123 0.0
Li1322 Li 0.79603 0.89145 0.52884 0.0
Li1323 Li 0.77949 0.8689 0.51145 0.0
C1324 C 0.78171 0.90511 0.55701 0.0
N1325 N 0.77963 0.93001 0.57825 0.0
C1326 C 0.77452 0.90292 0.57087 0.0
C1327 C 0.78808 0.91993 0.5541 0.0
C1328 C 0.7735 0.91566 0.58142 0.0
C1329 C 0.78685 0.93238 0.56495 0.0
C1330 C 0.75097 0.8536 0.52643 0.0
C1331 C 0.74184 0.82627 0.52336 0.0
N1332 N 0.72948 0.82847 0.531 0.0
C1333 C 0.73808 0.85562 0.53404 0.0
C1334 C 0.75279 0.83883 0.52086 0.0
C1335 C 0.72739 0.84277 0.53633 0.0
C1336 C 0.74534 0.90483 0.5131 0.0
N1337 N 0.75043 0.89962 0.52688 0.0
C1338 C 0.73096 0.90914 0.54047 0.0
C1339 C 0.74337 0.90145 0.54037 0.0
C1340 C 0.72565 0.91495 0.52651 0.0
C1341 C 0.73301 0.91265 0.51268 0.0
H1342 H 0.75073 0.9028 0.50235 0.0
H1343 H 0.74725 0.89678 0.55104 0.0
C1344 C 0.79064 0.85314 0.56566 0.0
N1345 N 0.77837 0.85892 0.55979 0.0
C1346 C 0.79026 0.84597 0.57975 0.0
C1347 C 0.76467 0.8509 0.58161 0.0
C1348 C 0.76556 0.85798 0.56751 0.0
C1349 C 0.77718 0.84485 0.58803 0.0
H1350 H 0.80091 0.85442 0.55965 0.0
H1351 H 0.75613 0.86307 0.56297 0.0
C1352 C 0.78244 0.9025 0.49985 0.0
N1353 N 0.78531 0.9253 0.4797 0.0
C1354 C 0.78416 0.89896 0.4837 0.0
C1355 C 0.78214 0.91762 0.50574 0.0
C1356 C 0.78561 0.91065 0.47371 0.0
C1357 C 0.78362 0.92899 0.49536 0.0
C1358 C 0.80543 0.85802 0.52596 0.0
C1359 C 0.82077 0.86188 0.52318 0.0
C1360 C 0.79883 0.84267 0.52643 0.0
C1361 C 0.82925 0.85024 0.52078 0.0
C1362 C 0.8077 0.83137 0.52398 0.0
N1363 N 0.82259 0.83535 0.52122 0.0
C1364 C 0.82479 0.90747 0.54466 0.0
C1365 C 0.82046 0.911 0.51725 0.0
C1366 C 0.83945 0.91658 0.5459 0.0
N1367 N 0.81563 0.90488 0.53048 0.0
C1368 C 0.83489 0.92036 0.51801 0.0
C1369 C 0.84463 0.9232 0.53245 0.0
H1370 H 0.82077 0.9023 0.55497 0.0
H1371 H 0.81328 0.90844 0.50597 0.0
C1372 C 0.76501 0.85195 0.48191 0.0
N1373 N 0.77869 0.85672 0.4911 0.0
C1374 C 0.76437 0.84429 0.46649 0.0
C1375 C 0.79186 0.84631 0.47039 0.0
C1376 C 0.79199 0.85411 0.4856 0.0
C1377 C 0.77794 0.84142 0.46051 0.0
H1378 H 0.75461 0.85436 0.48642 0.0
H1379 H 0.8028 0.85845 0.49281 0.0
O1380 O 0.78294 0.89275 0.54664 0.0
O1381 O 0.7615 0.86605 0.52399 0.0
O1382 O 0.78103 0.89117 0.50977 0.0
O1383 O 0.79698 0.86927 0.5283 0.0
H1384 H 0.76969 0.89151 0.5734 0.0
H1385 H 0.79404 0.92181 0.54366 0.0
H1386 H 0.76787 0.91415 0.59213 0.0
H1387 H 0.7917 0.94393 0.56282 0.0
H1388 H 0.74312 0.81476 0.51917 0.0
H1389 H 0.73642 0.867 0.53824 0.0
H1390 H 0.76249 0.8371 0.51457 0.0
H1391 H 0.71742 0.84415 0.54232 0.0
H1392 H 0.72568 0.91064 0.55142 0.0
H1393 H 0.72912 0.9166 0.50153 0.0
H1394 H 0.80031 0.84177 0.58435 0.0
H1395 H 0.7543 0.85026 0.58745 0.0
H1396 H 0.78439 0.8873 0.47896 0.0
H1397 H 0.78062 0.92051 0.51814 0.0
H1398 H 0.78696 0.90809 0.46119 0.0
H1399 H 0.78338 0.94073 0.49975 0.0
H1400 H 0.82604 0.87373 0.52283 0.0
H1401 H 0.78705 0.83954 0.52882 0.0
H1402 H 0.84113 0.85304 0.51857 0.0
H1403 H 0.80274 0.81943 0.52432 0.0
H1404 H 0.84662 0.91849 0.55726 0.0
H1405 H 0.83854 0.92499 0.50728 0.0
H1406 H 0.75338 0.84069 0.45931 0.0
H1407 H 0.80262 0.8446 0.46617 0.0
Li1408 Li 0.92677 0.01458 0.27298 0.0
Li1409 Li 0.90388 0.99782 0.25625 0.0
Li1410 Li 0.92491 0.01345 0.24309 0.0
Li1411 Li 0.90661 0.02629 0.25722 0.0
C1412 C 0.93804 0.98872 0.25799 0.0
N1413 N 0.96227 0.97326 0.26077 0.0
C1414 C 0.93563 0.97362 0.26178 0.0
C1415 C 0.95274 0.99596 0.25559 0.0
C1416 C 0.94804 0.966 0.26315 0.0
C1417 C 0.96485 0.98795 0.25704 0.0
C1418 C 0.89404 0.01336 0.28582 0.0
C1419 C 0.86941 0.01768 0.29289 0.0
N1420 N 0.87301 0.01392 0.30785 0.0
C1421 C 0.8975 0.00953 0.30126 0.0
C1422 C 0.87989 0.01747 0.28158 0.0
C1423 C 0.88671 0.00989 0.31223 0.0
C1424 C 0.93757 0.0286 0.30425 0.0
N1425 N 0.93922 0.01689 0.29337 0.0
C1426 C 0.95632 0.00822 0.31262 0.0
C1427 C 0.94843 0.00681 0.29727 0.0
C1428 C 0.95458 0.01998 0.32421 0.0
C1429 C 0.94511 0.03032 0.31982 0.0
H1430 H 0.93008 0.03639 0.30093 0.0
H1431 H 0.94943 0.9974 0.2887 0.0
C1432 C 0.89243 0.96663 0.24494 0.0
N1433 N 0.8899 0.97864 0.25487 0.0
C1434 C 0.88285 0.95227 0.24399 0.0
C1435 C 0.86815 0.96292 0.26335 0.0
C1436 C 0.87799 0.97703 0.26394 0.0
C1437 C 0.87052 0.95025 0.25333 0.0
H1438 H 0.90198 0.96821 0.23784 0.0
H1439 H 0.87614 0.98664 0.27175 0.0
C1440 C 0.94157 0.04269 0.25741 0.0
N1441 N 0.96633 0.06479 0.25325 0.0
C1442 C 0.93927 0.05562 0.25001 0.0
C1443 C 0.95642 0.04113 0.26298 0.0
C1444 C 0.95195 0.06663 0.24793 0.0
C1445 C 0.9688 0.0524 0.26068 0.0
C1446 C 0.8895 0.00908 0.2277 0.0
C1447 C 0.8908 0.01155 0.21173 0.0
C1448 C 0.87499 0.00516 0.23281 0.0
C1449 C 0.8775 0.01014 0.20111 0.0
C1450 C 0.86197 0.00384 0.22182 0.0
N1451 N 0.86349 0.00635 0.20634 0.0
C1452 C 0.94077 1.00195 0.21772 0.0
C1453 C 0.93598 0.02716 0.21658 0.0
C1454 C 0.94754 0.00251 0.2034 0.0
N1455 N 0.93533 0.01425 0.22411 0.0
C1456 C 0.94256 0.02818 0.20222 0.0
C1457 C 0.94844 0.01574 0.1954 0.0
H1458 H 0.93957 0.99157 0.22352 0.0
H1459 H 0.93105 0.03655 0.22153 0.0
C1460 C 0.8966 0.05201 0.27165 0.0
N1461 N 0.89608 0.0432 0.2575 0.0
C1462 C 0.88896 0.06444 0.27255 0.0
C1463 C 0.88057 0.05862 0.24423 0.0
C1464 C 0.88845 0.04639 0.24387 0.0
C1465 C 0.88071 0.06786 0.25872 0.0
H1466 H 0.90293 0.04934 0.28227 0.0
H1467 H 0.88846 0.03946 0.23268 0.0
O1468 O 0.92602 0.99633 0.25667 0.0
O1469 O 0.90455 0.01325 0.275 0.0
O1470 O 0.92929 0.03189 0.25969 0.0
O1471 O 0.90241 0.01053 0.23823 0.0
H1472 H 0.92431 0.96787 0.26371 0.0
H1473 H 0.95476 0.0076 0.25252 0.0
H1474 H 0.94636 0.95431 0.26611 0.0
H1475 H 0.97629 0.9934 0.25519 0.0
H1476 H 0.85842 0.02083 0.28977 0.0
H1477 H 0.90838 0.00629 0.30471 0.0
H1478 H 0.87699 0.02042 0.26968 0.0
H1479 H 0.88923 0.00696 0.32422 0.0
H1480 H 0.96331 0.99985 0.31553 0.0
H1481 H 0.9435 0.03962 0.32834 0.0
H1482 H 0.88504 0.94288 0.23595 0.0
H1483 H 0.85895 0.9619 0.27095 0.0
H1484 H 0.9278 0.05707 0.24585 0.0
H1485 H 0.95835 0.0314 0.26912 0.0
H1486 H 0.95036 0.07664 0.24212 0.0
H1487 H 0.98037 0.05132 0.26487 0.0
H1488 H 0.90196 0.01458 0.2076 0.0
H1489 H 0.8738 0.00317 0.24511 0.0
H1490 H 0.87832 0.01207 0.18873 0.0
H1491 H 0.85067 1.00082 0.2256 0.0
H1492 H 0.95161 0.99252 0.19842 0.0
H1493 H 0.94301 0.03861 0.1965 0.0
H1494 H 0.88968 0.07138 0.28393 0.0
H1495 H 0.87429 0.06069 0.23328 0.0
Li1496 Li 0.27113 0.63424 0.54557 0.0
Li1497 Li 0.28271 0.61394 0.53219 0.0
Li1498 Li 0.26942 0.63177 0.51687 0.0
Li1499 Li 0.2553 0.61194 0.53006 0.0
C1500 C 0.29878 0.64859 0.54007 0.0
N1501 N 0.31946 0.67278 0.557 0.0
C1502 C 0.31218 0.64595 0.54844 0.0
C1503 C 0.29597 0.66355 0.54017 0.0
C1504 C 0.32248 0.65834 0.55696 0.0
C1505 C 0.30654 0.67562 0.54885 0.0
C1506 C 0.26247 0.60173 0.55791 0.0
C1507 C 0.25441 0.57513 0.56155 0.0
N1508 N 0.247 0.57942 0.57413 0.0
C1509 C 0.25485 0.6059 0.57091 0.0
C1510 C 0.26233 0.58624 0.55322 0.0
C1511 C 0.24707 0.59444 0.57894 0.0
C1512 C 0.26174 0.65639 0.56592 0.0
N1513 N 0.27294 0.64804 0.56414 0.0
C1514 C 0.28656 0.65973 0.58915 0.0
C1515 C 0.28508 0.64928 0.57549 0.0
C1516 C 0.27525 0.66871 0.5912 0.0
C1517 C 0.26267 0.66687 0.57942 0.0
H1518 H 0.25196 0.65477 0.55695 0.0
H1519 H 0.2936 0.64216 0.5739 0.0
C1520 C 0.30561 0.60001 0.52042 0.0
N1521 N 0.29886 0.60337 0.53374 0.0
C1522 C 0.31751 0.5918 0.5213 0.0
C1523 C 0.31541 0.59101 0.54966 0.0
C1524 C 0.30346 0.59915 0.54819 0.0
C1525 C 0.32251 0.5872 0.53607 0.0
H1526 H 0.30166 0.60366 0.50915 0.0
H1527 H 0.29784 0.60212 0.55855 0.0
C1528 C 0.24338 0.64172 0.52313 0.0
N1529 N 0.2242 0.65849 0.50797 0.0
C1530 C 0.22933 0.63433 0.51482 0.0
C1531 C 0.24764 0.65764 0.52376 0.0
C1532 C 0.21979 0.64301 0.50723 0.0
C1533 C 0.23781 0.66591 0.51599 0.0
C1534 C 0.26329 0.59636 0.50188 0.0
C1535 C 0.25372 0.59679 0.4879 0.0
C1536 C 0.26804 0.58265 0.50491 0.0
C1537 C 0.24894 0.58348 0.47724 0.0
C1538 C 0.26304 0.56958 0.49393 0.0
N1539 N 0.25367 0.57026 0.48044 0.0
C1540 C 0.28257 0.653 0.4971 0.0
C1541 C 0.25694 0.64078 0.48824 0.0
C1542 C 0.28269 0.66203 0.48446 0.0
N1543 N 0.26973 0.64283 0.49887 0.0
C1544 C 0.25652 0.64958 0.47549 0.0
C1545 C 0.26944 0.66051 0.47362 0.0
H1546 H 0.29265 0.65425 0.50564 0.0
H1547 H 0.24695 0.63252 0.48981 0.0
C1548 C 0.22698 0.60435 0.54006 0.0
N1549 N 0.23617 0.59876 0.52992 0.0
C1550 C 0.2119 0.59693 0.54006 0.0
C1551 C 0.21616 0.57774 0.51959 0.0
C1552 C 0.23124 0.58545 0.52015 0.0
C1553 C 0.20618 0.58371 0.52934 0.0
H1554 H 0.23127 0.61492 0.54778 0.0
H1555 H 0.23871 0.58097 0.51242 0.0
O1556 O 0.2885 0.6366 0.53178 0.0
O1557 O 0.27003 0.61276 0.54982 0.0
O1558 O 0.25281 0.63344 0.53079 0.0
O1559 O 0.26824 0.60935 0.51235 0.0
H1560 H 0.31454 0.63444 0.54843 0.0
H1561 H 0.2857 0.66578 0.53368 0.0
H1562 H 0.33286 0.65646 0.56356 0.0
H1563 H 0.30447 0.68724 0.54911 0.0
H1564 H 0.25414 0.56309 0.55801 0.0
H1565 H 0.25489 0.61786 0.57468 0.0
H1566 H 0.26821 0.58285 0.5432 0.0
H1567 H 0.24107 0.59748 0.58899 0.0
H1568 H 0.29644 0.6608 0.59796 0.0
H1569 H 0.25348 0.67323 0.58076 0.0
H1570 H 0.32294 0.58933 0.51064 0.0
H1571 H 0.31901 0.58766 0.56122 0.0
H1572 H 0.22587 0.62201 0.51404 0.0
H1573 H 0.25845 0.66356 0.53015 0.0
H1574 H 0.20891 0.63744 0.50072 0.0
H1575 H 0.24098 0.67823 0.51636 0.0
H1576 H 0.24994 0.60725 0.48532 0.0
H1577 H 0.27539 0.58203 0.51567 0.0
H1578 H 0.24149 0.58365 0.46641 0.0
H1579 H 0.26658 0.55889 0.49615 0.0
H1580 H 0.29287 0.67037 0.48342 0.0
H1581 H 0.24617 0.64786 0.46721 0.0
H1582 H 0.20469 0.60173 0.54805 0.0
H1583 H 0.21221 0.56761 0.5111 0.0
Li1584 Li 0.40377 0.49839 0.75512 0.0
Li1585 Li 0.42573 0.51459 0.77215 0.0
Li1586 Li 0.40623 0.52655 0.75593 0.0
Li1587 Li 0.42498 0.51395 0.74239 0.0
C1588 C 0.39128 0.50881 0.78183 0.0
N1589 N 0.36646 0.49894 0.798 0.0
C1590 C 0.39322 0.50126 0.79545 0.0
C1591 C 0.37677 0.51154 0.77656 0.0
C1592 C 0.38051 0.49629 0.80343 0.0
C1593 C 0.36435 0.50641 0.78486 0.0
C1594 C 0.43914 0.49136 0.75863 0.0
C1595 C 0.46673 0.49522 0.76085 0.0
N1596 N 0.4661 0.48059 0.76451 0.0
C1597 C 0.43874 0.47637 0.76241 0.0
C1598 C 0.45321 0.50088 0.75785 0.0
C1599 C 0.45251 0.47114 0.76535 0.0
C1600 C 0.3797 0.47334 0.74146 0.0
N1601 N 0.39025 0.47902 0.75426 0.0
C1602 C 0.38254 0.4567 0.76739 0.0
C1603 C 0.39195 0.47092 0.76699 0.0
C1604 C 0.37131 0.45067 0.75449 0.0
C1605 C 0.36997 0.45918 0.74138 0.0
H1606 H 0.37891 0.47967 0.73121 0.0
H1607 H 0.40068 0.47552 0.77684 0.0
C1608 C 0.44515 0.52948 0.80026 0.0
N1609 N 0.4378 0.51576 0.79238 0.0
C1610 C 0.45309 0.53017 0.8155 0.0
C1611 C 0.44552 0.50267 0.81437 0.0
C1612 C 0.43788 0.50249 0.79911 0.0
C1613 C 0.45319 0.51665 0.82283 0.0
H1614 H 0.44454 0.53993 0.79487 0.0
H1615 H 0.43169 0.49177 0.79275 0.0
C1616 C 0.39097 0.51289 0.72573 0.0
N1617 N 0.36797 0.51719 0.70324 0.0
C1618 C 0.3946 0.51839 0.7113 0.0
C1619 C 0.37564 0.50962 0.72873 0.0
C1620 C 0.38281 0.52047 0.70008 0.0
C1621 C 0.36418 0.51186 0.7172 0.0
C1622 C 0.43919 0.54453 0.75592 0.0
C1623 C 0.43443 0.55452 0.74553 0.0
C1624 C 0.45433 0.54737 0.76315 0.0
C1625 C 0.44494 0.56726 0.74255 0.0
C1626 C 0.46449 0.56021 0.75983 0.0
N1627 N 0.45962 0.56981 0.7497 0.0
C1628 C 0.39462 0.55066 0.77132 0.0
C1629 C 0.38953 0.54851 0.7431 0.0
C1630 C 0.38711 0.56315 0.7729 0.0
N1631 N 0.39562 0.54355 0.75659 0.0
C1632 C 0.38164 0.56072 0.74412 0.0
C1633 C 0.38033 0.56832 0.75917 0.0
H1634 H 0.39976 0.54666 0.78188 0.0
H1635 H 0.39082 0.5431 0.73148 0.0
C1636 C 0.42971 0.50362 0.71109 0.0
N1637 N 0.43616 0.51399 0.72381 0.0
C1638 C 0.43603 0.50366 0.69652 0.0
C1639 C 0.45594 0.52466 0.70849 0.0
C1640 C 0.44923 0.52421 0.72283 0.0
C1641 C 0.44921 0.51445 0.69496 0.0
H1642 H 0.41937 0.49553 0.71216 0.0
H1643 H 0.4544 0.53221 0.73304 0.0
O1644 O 0.40359 0.51377 0.77389 0.0
O1645 O 0.42578 0.49674 0.75602 0.0
O1646 O 0.40237 0.51073 0.73682 0.0
O1647 O 0.42906 0.5321 0.75916 0.0
H1648 H 0.4044 0.49919 0.79978 0.0
H1649 H 0.37513 0.51764 0.76623 0.0
H1650 H 0.38182 0.49035 0.81394 0.0
H1651 H 0.35305 0.50841 0.78089 0.0
H1652 H 0.47772 0.50246 0.76031 0.0
H1653 H 0.42791 0.46891 0.76314 0.0
H1654 H 0.45368 0.51255 0.75508 0.0
H1655 H 0.4524 0.45957 0.76832 0.0
H1656 H 0.38395 0.45057 0.77775 0.0
H1657 H 0.3617 0.4548 0.73105 0.0
H1658 H 0.45865 0.54121 0.82171 0.0
H1659 H 0.44535 0.49197 0.81955 0.0
H1660 H 0.4064 0.5212 0.70886 0.0
H1661 H 0.3726 0.50533 0.73979 0.0
H1662 H 0.38546 0.52475 0.68889 0.0
H1663 H 0.35226 0.50934 0.71936 0.0
H1664 H 0.42277 0.55244 0.73979 0.0
H1665 H 0.45825 0.53964 0.77107 0.0
H1666 H 0.44142 0.57511 0.73454 0.0
H1667 H 0.47625 0.56252 0.76529 0.0
H1668 H 0.38682 0.56878 0.78477 0.0
H1669 H 0.37652 0.56404 0.73315 0.0
H1670 H 0.43057 0.49536 0.68654 0.0
H1671 H 0.46605 0.53323 0.7079 0.0
Li1672 Li 0.66136 0.023 0.76853 0.0
Li1673 Li 0.68258 0.03864 0.75756 0.0
Li1674 Li 0.65964 0.02456 0.73982 0.0
Li1675 Li 0.67874 0.01135 0.75106 0.0
C1676 C 0.65173 0.05145 0.76068 0.0
N1677 N 0.63279 0.07207 0.76758 0.0
C1678 C 0.65794 0.06698 0.765 0.0
C1679 C 0.6359 0.04641 0.75988 0.0
C1680 C 0.64817 0.07722 0.76844 0.0
C1681 C 0.62651 0.05701 0.76342 0.0
C1682 C 0.69531 0.02771 0.7849 0.0
C1683 C 0.72215 0.03204 0.79489 0.0
N1684 N 0.71871 0.03711 0.80959 0.0
C1685 C 0.69203 0.03276 0.80017 0.0
C1686 C 0.71048 0.02718 0.78228 0.0
C1687 C 0.70402 0.03754 0.81247 0.0
C1688 C 0.64203 0.00794 0.78901 0.0
N1689 N 0.64994 0.02167 0.78604 0.0
C1690 C 0.64004 0.03483 0.8074 0.0
C1691 C 0.64937 0.03494 0.79508 0.0
C1692 C 0.63138 0.0209 0.81048 0.0
C1693 C 0.63263 0.00727 0.80136 0.0
H1694 H 0.64281 0.99758 0.7816 0.0
H1695 H 0.65605 0.04563 0.79261 0.0
C1696 C 0.70189 0.06303 0.74795 0.0
N1697 N 0.69688 0.05688 0.76106 0.0
C1698 C 0.71161 0.07721 0.74965 0.0
C1699 C 0.71083 0.07843 0.77834 0.0
C1700 C 0.70109 0.06423 0.77607 0.0
C1701 C 0.71597 0.08517 0.76498 0.0
H1702 H 0.69785 0.05721 0.73612 0.0
H1703 H 0.69639 0.0594 0.7862 0.0
C1704 C 0.64342 0.99595 0.7438 0.0
N1705 N 0.61753 0.97614 0.72895 0.0
C1706 C 0.64483 0.98306 0.73367 0.0
C1707 C 0.62886 0.99861 0.74662 0.0
C1708 C 0.6316 0.97323 0.7262 0.0
C1709 C 0.61591 0.98851 0.73893 0.0
C1710 C 0.69247 0.02585 0.72639 0.0
C1711 C 0.68864 0.02287 0.70981 0.0
C1712 C 0.7078 0.02781 0.73281 0.0
C1713 C 0.70022 0.0217 0.69993 0.0
C1714 C 0.71905 0.02655 0.72254 0.0
N1715 N 0.71506 0.02354 0.70645 0.0
C1716 C 0.63914 0.03642 0.71886 0.0
C1717 C 0.64525 0.01238 0.70996 0.0
C1718 C 0.62937 0.03589 0.70486 0.0
N1719 N 0.64658 0.02461 0.72121 0.0
C1720 C 0.63554 0.01131 0.69588 0.0
C1721 C 0.62739 0.02312 0.69329 0.0
H1722 H 0.64083 0.04625 0.72775 0.0
H1723 H 0.65188 0.00353 0.7119 0.0
C1724 C 0.69645 0.99036 0.75966 0.0
N1725 N 0.68906 0.99533 0.74698 0.0
C1726 C 0.70522 0.97912 0.75715 0.0
C1727 C 0.69839 0.97822 0.72855 0.0
C1728 C 0.68963 0.98942 0.73165 0.0
C1729 C 0.70639 0.97303 0.74142 0.0
H1730 H 0.6955 0.99513 0.7717 0.0
H1731 H 0.68333 0.99346 0.72186 0.0
O1732 O 0.66118 0.04133 0.75717 0.0
O1733 O 0.68367 0.02288 0.77276 0.0
O1734 O 0.65626 0.00571 0.75118 0.0
O1735 O 0.68126 0.02717 0.73621 0.0
H1736 H 0.67017 0.07109 0.76563 0.0
H1737 H 0.6309 0.03449 0.75645 0.0
H1738 H 0.65281 0.08928 0.77177 0.0
H1739 H 0.61423 0.05326 0.76282 0.0
H1740 H 0.73394 0.03173 0.793 0.0
H1741 H 0.68036 0.03306 0.8025 0.0
H1742 H 0.71322 0.02293 0.7707 0.0
H1743 H 0.70164 0.04158 0.8243 0.0
H1744 H 0.63956 0.04552 0.81442 0.0
H1745 H 0.62607 0.99633 0.80345 0.0
H1746 H 0.71496 0.08225 0.73901 0.0
H1747 H 0.71388 0.08432 0.79034 0.0
H1748 H 0.65603 0.98073 0.73151 0.0
H1749 H 0.62755 0.0083 0.75471 0.0
H1750 H 0.63252 0.96327 0.71822 0.0
H1751 H 0.60456 0.99047 0.74095 0.0
H1752 H 0.67686 0.0215 0.70462 0.0
H1753 H 0.71098 0.03042 0.74556 0.0
H1754 H 0.69742 0.01937 0.68708 0.0
H1755 H 0.73096 0.02802 0.72736 0.0
H1756 H 0.62329 0.04524 0.70319 0.0
H1757 H 0.63457 1.00147 0.68702 0.0
H1758 H 0.71076 0.97502 0.76743 0.0
H1759 H 0.69889 0.97368 0.71629 0.0
Li1760 Li 0.76846 0.67227 0.02212 0.0
Li1761 Li 0.77839 0.65167 0.00676 0.0
Li1762 Li 0.76632 0.67104 0.99268 0.0
Li1763 Li 0.74996 0.65061 0.00466 0.0
C1764 C 0.79638 0.68633 0.01484 0.0
N1765 N 0.81855 0.71067 0.02911 0.0
C1766 C 0.81055 0.68375 0.02143 0.0
C1767 C 0.7935 0.70127 0.01544 0.0
C1768 C 0.82162 0.69621 0.02861 0.0
C1769 C 0.80485 0.71343 0.02273 0.0
C1770 C 0.76488 0.63983 0.0349 0.0
C1771 C 0.7562 0.6151 0.04368 0.0
N1772 N 0.76555 0.61949 0.05763 0.0
C1773 C 0.7744 0.6441 0.04932 0.0
C1774 C 0.75568 0.62522 0.03205 0.0
C1775 C 0.77457 0.63365 0.06066 0.0
C1776 C 0.75769 0.68863 0.04758 0.0
N1777 N 0.77064 0.68455 0.04257 0.0
C1778 C 0.78499 0.69561 0.06765 0.0
C1779 C 0.78415 0.68789 0.05226 0.0
C1780 C 0.77173 0.69971 0.07325 0.0
C1781 C 0.75798 0.69623 0.06291 0.0
H1782 H 0.74703 0.68564 0.03977 0.0
H1783 H 0.79419 0.68412 0.0483 0.0
C1784 C 0.80575 0.644 0.99705 0.0
N1785 N 0.79451 0.63989 0.00651 0.0
C1786 C 0.81808 0.63622 0.99657 0.0
C1787 C 0.80696 0.61998 0.01543 0.0
C1788 C 0.79486 0.62805 0.01553 0.0
C1789 C 0.81884 0.62404 0.0059 0.0
H1790 H 0.80518 0.65342 0.98994 0.0
H1791 H 0.78583 0.62484 0.02288 0.0
C1792 C 0.74192 0.68315 0.00091 0.0
N1793 N 0.72539 0.7035 0.98816 0.0
C1794 C 0.72899 0.67773 0.98986 0.0
C1795 C 0.74637 0.69887 0.00561 0.0
C1796 C 0.72081 0.68822 0.9835 0.0
C1797 C 0.73788 0.70899 0.999 0.0
C1798 C 0.7611 0.63464 0.9779 0.0
C1799 C 0.75879 0.63399 0.96122 0.0
C1800 C 0.76135 0.62116 0.98507 0.0
C1801 C 0.75668 0.61979 0.95196 0.0
C1802 C 0.75922 0.60719 0.97539 0.0
N1803 N 0.75694 0.6068 0.95917 0.0
C1804 C 0.77873 0.69293 0.97201 0.0
C1805 C 0.75497 0.67697 0.96201 0.0
C1806 C 0.77935 0.69957 0.95763 0.0
N1807 N 0.76667 0.68181 0.97393 0.0
C1808 C 0.75517 0.68322 0.94741 0.0
C1809 C 0.76756 0.69459 0.94499 0.0
H1810 H 0.78809 0.69634 0.98145 0.0
H1811 H 0.74564 0.66793 0.9637 0.0
C1812 C 0.72266 0.63961 0.01692 0.0
N1813 N 0.73012 0.63796 0.00371 0.0
C1814 C 0.70816 0.63084 0.01755 0.0
C1815 C 0.70914 0.61885 0.99088 0.0
C1816 C 0.72362 0.62793 0.99073 0.0
C1817 C 0.70119 0.62019 0.00444 0.0
H1818 H 0.72805 0.64777 0.02702 0.0
H1819 H 0.72964 0.62693 0.98026 0.0
O1820 O 0.78542 0.67428 0.00778 0.0
O1821 O 0.76441 0.64995 0.02373 0.0
O1822 O 0.75003 0.67307 0.00729 0.0
O1823 O 0.76317 0.64846 0.98711 0.0
H1824 H 0.81295 0.67223 0.02108 0.0
H1825 H 0.78261 0.70345 0.01033 0.0
H1826 H 0.83263 0.69439 0.0338 0.0
H1827 H 0.80276 0.72506 0.02331 0.0
H1828 H 0.74917 0.60375 0.04162 0.0
H1829 H 0.78162 0.65533 0.05169 0.0
H1830 H 0.74824 0.62169 0.02097 0.0
H1831 H 0.78188 0.6368 0.07188 0.0
H1832 H 0.79577 0.69784 0.07528 0.0
H1833 H 0.7475 0.69925 0.06667 0.0
H1834 H 0.82685 0.63965 0.98888 0.0
H1835 H 0.80712 0.61083 0.023 0.0
H1836 H 0.72536 0.66556 0.98619 0.0
H1837 H 0.75621 0.70321 0.01435 0.0
H1838 H 0.71081 0.68421 0.97488 0.0
H1839 H 0.74119 0.7212 0.00251 0.0
H1840 H 0.75863 0.64433 0.95549 0.0
H1841 H 0.76315 0.62149 0.99795 0.0
H1842 H 0.75484 0.6191 0.93903 0.0
H1843 H 0.75939 0.59666 0.98076 0.0
H1844 H 0.78923 0.70814 0.95622 0.0
H1845 H 0.74577 0.67911 0.93808 0.0
H1846 H 0.70241 0.63254 0.02815 0.0
H1847 H 0.70435 0.61072 0.98054 0.0
Li1848 Li 0.86645 0.50465 0.77852 0.0
Li1849 Li 0.88901 0.51835 0.79599 0.0
Li1850 Li 0.87001 0.53206 0.78406 0.0
Li1851 Li 0.88746 0.5205 0.7681 0.0
C1852 C 0.85711 0.51948 0.8099 0.0
N1853 N 0.83663 0.52548 0.83125 0.0
C1854 C 0.86216 0.52337 0.82619 0.0
C1855 C 0.84166 0.51861 0.80446 0.0
C1856 C 0.85163 0.52636 0.8368 0.0
C1857 C 0.83148 0.5217 0.81544 0.0
C1858 C 0.89587 0.49178 0.78529 0.0
C1859 C 0.91979 0.48535 0.79572 0.0
N1860 N 0.91198 0.47208 0.79999 0.0
C1861 C 0.88809 0.47805 0.78972 0.0
C1862 C 0.91187 0.49543 0.78824 0.0
C1863 C 0.89644 0.46825 0.79716 0.0
C1864 C 0.85109 0.47796 0.76008 0.0
N1865 N 0.852 0.48646 0.77448 0.0
C1866 C 0.83413 0.46713 0.78392 0.0
C1867 C 0.84379 0.4814 0.78634 0.0
C1868 C 0.83299 0.45816 0.76915 0.0
C1869 C 0.84138 0.46376 0.75704 0.0
H1870 H 0.85837 0.48194 0.75122 0.0
H1871 H 0.84522 0.48812 0.79789 0.0
C1872 C 0.91367 0.53063 0.8186 0.0
N1873 N 0.90222 0.51827 0.81461 0.0
C1874 C 0.92399 0.53134 0.83216 0.0
C1875 C 0.91039 0.50664 0.83742 0.0
C1876 C 0.90024 0.50647 0.82376 0.0
C1877 C 0.92247 0.51922 0.84171 0.0
H1878 H 0.91469 0.54004 0.81136 0.0
H1879 H 0.89081 0.49693 0.82041 0.0
C1880 C 0.85406 0.51394 0.75101 0.0
N1881 N 0.83109 0.50117 0.72679 0.0
C1882 C 0.85774 0.50769 0.73637 0.0
C1883 C 0.83871 0.51393 0.75324 0.0
C1884 C 0.84596 0.50123 0.7243 0.0
C1885 C 0.82726 0.50735 0.74088 0.0
C1886 C 0.90342 0.54727 0.77954 0.0
C1887 C 0.89965 0.56035 0.77345 0.0
C1888 C 0.91814 0.54404 0.77867 0.0
C1889 C 0.91067 0.56994 0.76645 0.0
C1890 C 0.92882 0.55389 0.77154 0.0
N1891 N 0.92489 0.56653 0.76563 0.0
C1892 C 0.85908 0.55597 0.80145 0.0
C1893 C 0.85451 0.55381 0.77307 0.0
C1894 C 0.85221 0.56887 0.8028 0.0
N1895 N 0.86002 0.54876 0.78674 0.0
C1896 C 0.84782 0.56679 0.77385 0.0
C1897 C 0.84674 0.57449 0.78885 0.0
H1898 H 0.86394 0.55192 0.81209 0.0
H1899 H 0.85567 0.54795 0.76156 0.0
C1900 C 0.90843 0.51227 0.74808 0.0
N1901 N 0.89871 0.52221 0.75037 0.0
C1902 C 0.91708 0.51295 0.73519 0.0
C1903 C 0.90534 0.53396 0.72709 0.0
C1904 C 0.89691 0.53288 0.7402 0.0
C1905 C 0.91561 0.52391 0.72452 0.0
H1906 H 0.90937 0.50372 0.75618 0.0
H1907 H 0.88892 0.5405 0.74229 0.0
O1908 O 0.86724 0.51625 0.79942 0.0
O1909 O 0.88791 0.50154 0.77801 0.0
O1910 O 0.86543 0.52027 0.76299 0.0
O1911 O 0.89272 0.53761 0.78623 0.0
H1912 H 0.87409 0.52404 0.8306 0.0
H1913 H 0.83756 0.5155 0.79192 0.0
H1914 H 0.85536 0.52937 0.84944 0.0
H1915 H 0.81949 0.52106 0.8114 0.0
H1916 H 0.93216 0.48809 0.79817 0.0
H1917 H 0.87575 0.47497 0.78752 0.0
H1918 H 0.91808 0.50603 0.78496 0.0
H1919 H 0.89056 0.45761 0.80069 0.0
H1920 H 0.82794 0.46296 0.79358 0.0
H1921 H 0.84106 0.45687 0.74568 0.0
H1922 H 0.93286 0.54145 0.83531 0.0
H1923 H 0.90883 0.49707 0.84449 0.0
H1924 H 0.86956 0.50764 0.73442 0.0
H1925 H 0.83568 0.51895 0.76439 0.0
H1926 H 0.84864 0.49623 0.71296 0.0
H1927 H 0.81533 0.50718 0.74247 0.0
H1928 H 0.88832 0.56302 0.77406 0.0
H1929 H 0.92121 0.53392 0.78326 0.0
H1930 H 0.90791 0.58007 0.76163 0.0
H1931 H 0.94021 0.55147 0.77067 0.0
H1932 H 0.85167 0.57471 0.81453 0.0
H1933 H 0.84369 0.57087 0.76286 0.0
H1934 H 0.9246 0.50477 0.7334 0.0
H1935 H 0.90391 0.54256 0.7191 0.0
Li1936 Li 0.77672 0.41192 0.51817 0.0
Li1937 Li 0.76827 0.42951 0.49886 0.0
Li1938 Li 0.77972 0.40877 0.48947 0.0
Li1939 Li 0.79448 0.43084 0.50652 0.0
C1940 C 0.75263 0.39289 0.49405 0.0
N1941 N 0.73742 0.3638 0.48183 0.0
C1942 C 0.73881 0.39094 0.48415 0.0
C1943 C 0.75869 0.38005 0.49781 0.0
C1944 C 0.7313 0.37614 0.47808 0.0
C1945 C 0.75084 0.36544 0.49149 0.0
C1946 C 0.78715 0.44623 0.53211 0.0
C1947 C 0.80098 0.4722 0.53893 0.0
N1948 N 0.80467 0.46902 0.5541 0.0
C1949 C 0.79087 0.44332 0.54786 0.0
C1950 C 0.79204 0.46088 0.5277 0.0
C1951 C 0.7998 0.45495 0.55877 0.0
C1952 C 0.78683 0.40177 0.54622 0.0
N1953 N 0.77397 0.40128 0.53606 0.0
C1954 C 0.75923 0.38393 0.55108 0.0
C1955 C 0.76028 0.3927 0.53822 0.0
C1956 C 0.77234 0.38436 0.5618 0.0
C1957 C 0.78623 0.3935 0.55939 0.0
H1958 H 0.79759 0.4085 0.54394 0.0
H1959 H 0.75029 0.39244 0.5298 0.0
C1960 C 0.74311 0.43503 0.47974 0.0
N1961 N 0.75276 0.4402 0.49332 0.0
C1962 C 0.73041 0.44177 0.47622 0.0
C1963 C 0.73854 0.4596 0.50022 0.0
C1964 C 0.75094 0.45238 0.50338 0.0
C1965 C 0.72792 0.45402 0.48671 0.0
H1966 H 0.74504 0.42536 0.47196 0.0
H1967 H 0.75881 0.45612 0.51412 0.0
C1968 C 0.8068 0.40157 0.50625 0.0
N1969 N 0.83078 0.38626 0.50204 0.0
C1970 C 0.81818 0.40715 0.49683 0.0
C1971 C 0.80759 0.38822 0.51351 0.0
C1972 C 0.83024 0.39924 0.49488 0.0
C1973 C 0.8198 0.38063 0.51122 0.0
C1974 C 0.78241 0.4393 0.47297 0.0
C1975 C 0.78256 0.43397 0.45687 0.0
C1976 C 0.78053 0.45438 0.47701 0.0
C1977 C 0.78034 0.44362 0.44508 0.0
C1978 C 0.7783 0.46368 0.46488 0.0
N1979 N 0.77824 0.45815 0.44929 0.0
C1980 C 0.7678 0.3957 0.4594 0.0
C1981 C 0.78746 0.38349 0.47011 0.0
C1982 C 0.76614 0.38633 0.44498 0.0
N1983 N 0.77854 0.39434 0.47143 0.0
C1984 C 0.78619 0.37385 0.45589 0.0
C1985 C 0.77557 0.37539 0.44305 0.0
H1986 H 0.76076 0.40434 0.46093 0.0
H1987 H 0.79558 0.38228 0.47996 0.0
C1988 C 0.82263 0.44142 0.52454 0.0
N1989 N 0.8139 0.44314 0.511 0.0
C1990 C 0.83743 0.44989 0.52805 0.0
C1991 C 0.8339 0.46165 0.50355 0.0
C1992 C 0.81913 0.45301 0.50058 0.0
C1993 C 0.84327 0.46004 0.51739 0.0
H1994 H 0.81809 0.43335 0.5325 0.0
H1995 H 0.81194 0.45397 0.48983 0.0
O1996 O 0.76038 0.4073 0.49979 0.0
O1997 O 0.77863 0.43486 0.52118 0.0
O1998 O 0.79486 0.40902 0.5083 0.0
O1999 O 0.78482 0.43001 0.48466 0.0
H2000 H 0.73394 0.40075 0.48116 0.0
H2001 H 0.76945 0.38137 0.50534 0.0
H2002 H 0.72061 0.37446 0.47037 0.0
H2003 H 0.75544 0.3554 0.49422 0.0
H2004 H 0.805 0.48351 0.53558 0.0
H2005 H 0.78682 0.43225 0.55168 0.0
H2006 H 0.78918 0.46344 0.51567 0.0
H2007 H 0.80283 0.45279 0.57095 0.0
H2008 H 0.74836 0.37691 0.55265 0.0
H2009 H 0.79659 0.39387 0.56734 0.0
H2010 H 0.72236 0.43718 0.46575 0.0
H2011 H 0.73678 0.46883 0.50874 0.0
H2012 H 0.81765 0.41738 0.491 0.0
H2013 H 0.79879 0.38369 0.52072 0.0
H2014 H 0.83913 0.4034 0.48763 0.0
H2015 H 0.82052 0.37025 0.51672 0.0
H2016 H 0.78467 0.42259 0.45349 0.0
H2017 H 0.78068 0.45886 0.48935 0.0
H2018 H 0.78041 0.4396 0.43259 0.0
H2019 H 0.77668 0.47532 0.46787 0.0
H2020 H 0.75787 0.38792 0.43533 0.0
H2021 H 0.79341 0.36529 0.45495 0.0
H2022 H 0.84425 0.44844 0.53892 0.0
H2023 H 0.83807 0.46914 0.4949 0.0
Li2024 Li 0.62239 0.52956 0.29177 0.0
Li2025 Li 0.64324 0.5448 0.27943 0.0
Li2026 Li 0.62084 0.5275 0.26196 0.0
Li2027 Li 0.64105 0.5168 0.27689 0.0
C2028 C 0.61027 0.55434 0.28127 0.0
N2029 N 0.5884 0.57138 0.2891 0.0
C2030 C 0.61466 0.56866 0.29032 0.0
C2031 C 0.5948 0.5488 0.27595 0.0
C2032 C 0.60342 0.57706 0.29424 0.0
C2033 C 0.5839 0.55755 0.2801 0.0
C2034 C 0.65721 0.53818 0.30765 0.0
C2035 C 0.68451 0.54547 0.31498 0.0
N2036 N 0.68195 0.55215 0.32939 0.0
C2037 C 0.65484 0.54499 0.3226 0.0
C2038 C 0.67216 0.53831 0.30385 0.0
C2039 C 0.6675 0.55204 0.3334 0.0
C2040 C 0.60449 0.51513 0.31425 0.0
N2041 N 0.61122 0.52896 0.31025 0.0
C2042 C 0.60415 0.54172 0.33392 0.0
C2043 C 0.61115 0.54214 0.31976 0.0
C2044 C 0.59722 0.52758 0.33846 0.0
C2045 C 0.59733 0.51417 0.3283 0.0
H2046 H 0.60502 0.50476 0.30674 0.0
H2047 H 0.61696 0.55296 0.31665 0.0
C2048 C 0.66253 0.56824 0.26702 0.0
N2049 N 0.65694 0.56411 0.28074 0.0
C2050 C 0.67219 0.58238 0.26695 0.0
C2051 C 0.6702 0.58784 0.29519 0.0
C2052 C 0.66046 0.57363 0.29466 0.0
C2053 C 0.67618 0.59245 0.28118 0.0
H2054 H 0.65928 0.56064 0.25601 0.0
H2055 H 0.65557 0.57031 0.30533 0.0
C2056 C 0.60548 0.4999 0.27118 0.0
N2057 N 0.57938 0.47816 0.26116 0.0
C2058 C 0.60668 0.48542 0.26406 0.0
C2059 C 0.59104 0.50327 0.27339 0.0
C2060 C 0.59334 0.4746 0.25902 0.0
C2061 C 0.57797 0.49214 0.2682 0.0
C2062 C 0.65316 0.52603 0.24983 0.0
C2063 C 0.64763 0.51747 0.23507 0.0
C2064 C 0.66896 0.52992 0.25434 0.0
C2065 C 0.65802 0.51267 0.22518 0.0
C2066 C 0.67898 0.52491 0.24411 0.0
N2067 N 0.67335 0.51645 0.22987 0.0
C2068 C 0.60565 0.53919 0.23638 0.0
C2069 C 0.60265 0.51213 0.23307 0.0
C2070 C 0.59764 0.53902 0.22127 0.0
N2071 N 0.60805 0.52588 0.24196 0.0
C2072 C 0.59449 0.51141 0.21794 0.0
C2073 C 0.59203 0.525 0.21171 0.0
H2074 H 0.61032 0.55001 0.24352 0.0
H2075 H 0.60501 0.50171 0.23749 0.0
C2076 C 0.6606 0.498 0.28993 0.0
N2077 N 0.65211 0.50025 0.2764 0.0
C2078 C 0.66871 0.48593 0.28985 0.0
C2079 C 0.65905 0.47856 0.26198 0.0
C2080 C 0.65106 0.49071 0.26263 0.0
C2081 C 0.66806 0.47605 0.2757 0.0
H2082 H 0.661 0.50553 0.30083 0.0
H2083 H 0.64385 0.49241 0.25219 0.0
O2084 O 0.62111 0.54598 0.27731 0.0
O2085 O 0.64495 0.53126 0.29691 0.0
O2086 O 0.61843 0.51063 0.27615 0.0
O2087 O 0.64315 0.53077 0.2597 0.0
H2088 H 0.62662 0.57316 0.2944 0.0
H2089 H 0.59125 0.53792 0.2686 0.0
H2090 H 0.60664 0.58811 0.30135 0.0
H2091 H 0.57188 0.55339 0.27611 0.0
H2092 H 0.69614 0.54569 0.31217 0.0
H2093 H 0.64337 0.54488 0.32581 0.0
H2094 H 0.6742 0.53287 0.29246 0.0
H2095 H 0.66583 0.55743 0.34498 0.0
H2096 H 0.6043 0.55237 0.34129 0.0
H2097 H 0.59239 0.50299 0.33141 0.0
H2098 H 0.67616 0.58551 0.25576 0.0
H2099 H 0.673 0.5951 0.30647 0.0
H2100 H 0.61778 0.48258 0.26238 0.0
H2101 H 0.58994 0.51431 0.27918 0.0
H2102 H 0.59409 0.46337 0.25341 0.0
H2103 H 0.56671 0.4946 0.2698 0.0
H2104 H 0.63544 0.51444 0.23135 0.0
H2105 H 0.67344 0.5368 0.26556 0.0
H2106 H 0.6539 0.50595 0.21377 0.0
H2107 H 0.69124 0.5278 0.24748 0.0
H2108 H 0.59632 0.54983 0.21695 0.0
H2109 H 0.5903 0.5003 0.21115 0.0
H2110 H 0.67553 0.48442 0.30069 0.0
H2111 H 0.65795 0.47103 0.25092 0.0
Eu2112 Eu 0.04386 0.03 0.02857 0.0
C2113 C 0.99928 0.97419 0.99177 0.0
N2114 N 0.00451 0.9882 0.98708 0.0
C2115 C 0.00802 0.97644 0.96129 0.0
C2116 C 0.99856 0.96068 0.98136 0.0
C2117 C 0.00853 0.98953 0.97199 0.0
C2118 C 0.00309 0.96196 0.96602 0.0
C2119 C 0.98965 0.95894 0.01235 0.0
C2120 C 0.99493 0.97333 0.00718 0.0
C2121 C 0.98896 0.94549 0.00201 0.0
C2122 C 0.99341 0.94635 0.98658 0.0
Eu2123 Eu 0.00431 0.00943 0.00594 0.0
N2124 N 0.99617 0.98652 0.0172 0.0
C2125 C 0.98518 0.95848 0.02779 0.0
C2126 C 0.99123 0.98615 0.03199 0.0
C2127 C 0.98586 0.97216 0.03759 0.0
H2128 H 0.01172 1.00066 0.96797 0.0
H2129 H 0.982 0.97197 0.04937 0.0
H2130 H 0.03871 0.03961 0.0669 0.0
H2131 H 0.06797 0.06597 0.98459 0.0
H2132 H 0.99093 0.99657 0.03934 0.0
H2133 H 0.98091 0.94765 0.03212 0.0
H2134 H 0.05858 0.04181 0.99529 0.0
H2135 H 0.01127 0.97755 0.94935 0.0
H2136 H 0.98499 0.93434 0.00583 0.0
H2137 H 0.99282 0.93586 0.97875 0.0
H2138 H 0.04183 0.06295 0.08587 0.0
H2139 H 1.00269 0.95184 0.95768 0.0
H2140 H 0.07014 0.09065 0.00148 0.0
N2141 N 0.04606 0.05162 0.04757 0.0
C2142 C 0.05185 0.06539 0.04271 0.0
C2143 C 0.04446 0.06383 0.07372 0.0
C2144 C 0.0538 0.07904 0.05319 0.0
C2145 C 0.04255 0.05062 0.06288 0.0
C2146 C 0.04998 0.07812 0.06885 0.0
N2147 N 0.0535 0.05252 0.01718 0.0
C2148 C 0.05848 0.05241 0.00237 0.0
C2149 C 0.06153 0.08 0.0217 0.0
C2150 C 0.05565 0.06585 0.0271 0.0
C2151 C 0.06559 0.08003 0.00607 0.0
C2152 C 0.06426 0.06614 0.99646 0.0
H2153 H 0.0514 0.08833 0.07729 0.0
H2154 H 0.06099 0.10375 0.05564 0.0
H2155 H 0.06773 0.10459 0.02809 0.0
O2156 O 0.06619 0.02527 0.02361 0.0
O2157 O 0.02687 0.04612 0.0232 0.0
O2158 O 0.01115 0.03439 0.00063 0.0
O2159 O 0.06234 0.03234 0.04796 0.0
O2160 O 0.04312 0.01769 0.00332 0.0
O2161 O 0.02055 0.02144 0.99041 0.0
O2162 O 0.98082 0.01098 0.00989 0.0
O2163 O 0.02245 0.99447 0.01162 0.0
O2164 O 0.03533 0.00604 0.03546 0.0
O2165 O 0.98644 0.0058 0.98581 0.0
O2166 O 0.00384 0.02179 0.03093 0.0
O2167 O 0.02683 0.01968 0.04445 0.0
C2168 C 0.01776 0.04688 0.01016 0.0
C2169 C 0.07772 0.01358 0.04397 0.0
C2170 C 0.09548 0.99615 0.03975 0.0
C2171 C 0.08962 0.98782 0.0519 0.0
C2172 C 0.07189 0.00517 0.05606 0.0
C2173 C 0.07785 0.99232 0.05996 0.0
C2174 C 0.08932 0.00892 0.03583 0.0
C2175 C 0.03472 0.01946 0.9902 0.0
C2176 C 0.07135 0.02662 0.03876 0.0
C2177 C 0.05947 0.09314 0.04777 0.0
C2178 C 0.06331 0.09362 0.03207 0.0
C2179 C 0.03001 0.99355 0.02557 0.0
C2180 C 0.96793 0.02132 0.98937 0.0
C2181 C 0.94806 0.03613 0.99374 0.0
C2182 C 0.9532 0.04547 0.98207 0.0
C2183 C 0.97312 0.03078 0.97779 0.0
C2184 C 0.95531 0.02394 0.99713 0.0
C2185 C 0.96567 0.04276 0.97412 0.0
C2186 C 0.01253 0.02146 0.04437 0.0
C2187 C 0.97616 0.0095 0.99461 0.0
H2188 H 0.09425 0.97798 0.05531 0.0
H2189 H 0.06268 0.0084 0.06235 0.0
H2190 H 0.07333 0.98585 0.06926 0.0
H2191 H 0.09332 0.01517 0.02613 0.0
H2192 H 0.94753 0.05479 0.97912 0.0
H2193 H 0.98301 0.0291 0.97178 0.0
H2194 H 0.95154 0.01688 0.00633 0.0
H2195 H 0.96969 0.05007 0.96524 0.0
Eu2196 Eu 0.26249 0.76903 0.28373 0.0
C2197 C 0.29551 0.73428 0.22416 0.0
N2198 N 0.30112 0.74522 0.23669 0.0
C2199 C 0.32332 0.73383 0.24156 0.0
C2200 C 0.30364 0.72254 0.21999 0.0
C2201 C 0.31489 0.74527 0.24525 0.0
C2202 C 0.31768 0.7224 0.22889 0.0
C2203 C 0.27521 0.72325 0.2029 0.0
C2204 C 0.28132 0.73456 0.21582 0.0
C2205 C 0.28337 0.71164 0.19864 0.0
C2206 C 0.29752 0.71126 0.20718 0.0
Eu2207 Eu 0.28642 0.76445 0.24138 0.0
N2208 N 0.2734 0.74569 0.22051 0.0
C2209 C 0.26105 0.72391 0.19461 0.0
C2210 C 0.25979 0.74659 0.21212 0.0
C2211 C 0.25336 0.73567 0.19921 0.0
H2212 H 0.31957 0.75426 0.25473 0.0
H2213 H 0.24256 0.73646 0.19268 0.0
H2214 H 0.22973 0.77937 0.27143 0.0
H2215 H 0.30604 0.79596 0.33339 0.0
H2216 H 0.25394 0.75588 0.21488 0.0
H2217 H 0.25599 0.71547 0.1846 0.0
H2218 H 0.2926 0.7752 0.31334 0.0
H2219 H 0.33422 0.7339 0.24841 0.0
H2220 H 0.27882 0.70286 0.18878 0.0
H2221 H 0.30363 0.70217 0.20379 0.0
H2222 H 0.2165 0.80135 0.27579 0.0
H2223 H 0.32425 0.71356 0.22605 0.0
H2224 H 0.29592 0.81995 0.33768 0.0
N2225 N 0.249 0.78923 0.28811 0.0
C2226 C 0.25563 0.80111 0.29919 0.0
C2227 C 0.22754 0.80147 0.2824 0.0
C2228 C 0.24855 0.81392 0.30209 0.0
C2229 C 0.23505 0.78908 0.2799 0.0
C2230 C 0.23436 0.81401 0.29347 0.0
N2231 N 0.27574 0.78764 0.30479 0.0
C2232 C 0.28837 0.78577 0.31433 0.0
C2233 C 0.27658 0.81243 0.31948 0.0
C2234 C 0.26949 0.80037 0.30767 0.0
C2235 C 0.29012 0.81096 0.32849 0.0
C2236 C 0.2959 0.79746 0.32606 0.0
H2237 H 0.22854 0.82361 0.29538 0.0
H2238 H 0.25057 0.83609 0.31587 0.0
H2239 H 0.27512 0.83478 0.33114 0.0
O2240 O 0.26095 0.75279 0.30149 0.0
O2241 O 0.26799 0.79035 0.27164 0.0
O2242 O 0.28888 0.78344 0.26193 0.0
O2243 O 0.24018 0.7571 0.28881 0.0
O2244 O 0.28643 0.76244 0.28748 0.0
O2245 O 0.30117 0.76827 0.26608 0.0
O2246 O 0.28618 0.77846 0.22153 0.0
O2247 O 0.27813 0.74076 0.2481 0.0
O2248 O 0.27017 0.7569 0.26374 0.0
O2249 O 0.30767 0.77344 0.23183 0.0
O2250 O 0.26242 0.77162 0.2392 0.0
O2251 O 0.24777 0.76261 0.25943 0.0
C2252 C 0.27966 0.79331 0.26336 0.0
C2253 C 0.2395 0.75198 0.31592 0.0
C2254 C 0.2397 0.74584 0.34351 0.0
C2255 C 0.22757 0.75379 0.34552 0.0
C2256 C 0.2274 0.75991 0.31812 0.0
C2257 C 0.2215 0.76079 0.33288 0.0
C2258 C 0.24557 0.74504 0.32865 0.0
C2259 C 0.2996 0.76443 0.28088 0.0
C2260 C 0.24604 0.75071 0.30057 0.0
C2261 C 0.25578 0.82612 0.31352 0.0
C2262 C 0.26978 0.82538 0.32219 0.0
C2263 C 0.27069 0.74264 0.26011 0.0
C2264 C 0.30885 0.79588 0.2184 0.0
C2265 C 0.31068 0.81599 0.20068 0.0
C2266 C 0.32526 0.82256 0.20848 0.0
C2267 C 0.3234 0.80264 0.22627 0.0
C2268 C 0.3025 0.80277 0.20579 0.0
C2269 C 0.33154 0.81592 0.22127 0.0
C2270 C 0.24913 0.76815 0.24541 0.0
C2271 C 0.301 0.78062 0.22133 0.0
H2272 H 0.2226 0.7544 0.35674 0.0
H2273 H 0.22251 0.76541 0.3085 0.0
H2274 H 0.21214 0.76684 0.33451 0.0
H2275 H 0.25504 0.73912 0.32697 0.0
H2276 H 0.33185 0.83268 0.20455 0.0
H2277 H 0.3287 0.79742 0.23588 0.0
H2278 H 0.29152 0.79731 0.1993 0.0
H2279 H 0.34294 0.82084 0.22696 0.0
Eu2280 Eu 0.50364 0.01938 0.52679 0.0
C2281 C 0.56011 0.05469 0.49837 0.0
N2282 N 0.54975 0.04217 0.4915 0.0
C2283 C 0.54773 0.05331 0.46681 0.0
C2284 C 0.56442 0.06724 0.4897 0.0
C2285 C 0.54373 0.04119 0.4759 0.0
C2286 C 0.55807 0.06642 0.47375 0.0
C2287 C 0.57646 0.06814 0.52187 0.0
C2288 C 0.56596 0.05516 0.51434 0.0
C2289 C 0.58069 0.0807 0.51329 0.0
C2290 C 0.57471 0.08024 0.49726 0.0
Eu2291 Eu 0.54365 0.02241 0.50782 0.0
N2292 N 0.5614 0.04296 0.5225 0.0
C2293 C 0.58254 0.06803 0.53775 0.0
C2294 C 0.56825 0.04231 0.53748 0.0
C2295 C 0.57862 0.05494 0.54549 0.0
H2296 H 0.53603 0.03095 0.47039 0.0
H2297 H 0.58378 0.05448 0.55752 0.0
H2298 H 0.51162 0.01288 0.56489 0.0
H2299 H 0.46511 0.98407 0.47773 0.0
H2300 H 0.56617 0.03193 0.54311 0.0
H2301 H 0.59062 0.07778 0.54397 0.0
H2302 H 0.48298 0.007 0.49068 0.0
H2303 H 0.54288 0.05252 0.45444 0.0
H2304 H 0.58868 0.09079 0.51892 0.0
H2305 H 0.5781 0.09002 0.49081 0.0
H2306 H 0.50461 0.99243 0.58218 0.0
H2307 H 0.56108 0.07583 0.46669 0.0
H2308 H 0.45708 0.96245 0.4933 0.0
N2309 N 0.49794 1.00059 0.54422 0.0
C2310 C 0.4876 0.98784 0.53795 0.0
C2311 C 0.49981 0.99096 0.56975 0.0
C2312 C 0.48304 0.97603 0.54747 0.0
C2313 C 0.50391 0.00243 0.5599 0.0
C2314 C 0.48934 0.97769 0.56351 0.0
N2315 N 0.48659 0.99793 0.51281 0.0
C2316 C 0.48036 0.99739 0.49735 0.0
C2317 C 0.47108 0.97334 0.51507 0.0
C2318 C 0.48178 0.98647 0.52184 0.0
C2319 C 0.4653 0.97237 0.49893 0.0
C2320 C 0.46988 0.98451 0.49008 0.0
H2321 H 0.48613 0.96885 0.5712 0.0
H2322 H 0.46858 0.95387 0.54791 0.0
H2323 H 0.45792 0.95168 0.51961 0.0
O2324 O 0.4836 0.03039 0.52136 0.0
O2325 O 0.51354 0.99717 0.52305 0.0
O2326 O 0.52617 1.00023 0.50073 0.0
O2327 O 0.49086 0.02656 0.54591 0.0
O2328 O 0.50498 0.02806 0.50244 0.0
O2329 O 0.52215 0.01523 0.49075 0.0
O2330 O 0.56343 0.01068 0.51239 0.0
O2331 O 0.53397 0.04484 0.51188 0.0
O2332 O 0.52079 0.04164 0.53381 0.0
O2333 O 0.55607 0.0156 0.48828 0.0
O2334 O 0.5422 0.01374 0.53225 0.0
O2335 O 0.52526 0.02722 0.54345 0.0
C2336 C 0.51914 0.99135 0.51043 0.0
C2337 C 0.46873 0.03881 0.54265 0.0
C2338 C 0.44657 0.05135 0.53897 0.0
C2339 C 0.44543 0.05197 0.55548 0.0
C2340 C 0.46732 0.0396 0.55917 0.0
C2341 C 0.45577 0.04615 0.5655 0.0
C2342 C 0.45827 0.04479 0.53251 0.0
C2343 C 0.51073 0.02271 0.48976 0.0
C2344 C 0.48122 0.03185 0.53641 0.0
C2345 C 0.47233 0.96299 0.54073 0.0
C2346 C 0.46633 0.9617 0.52461 0.0
C2347 C 0.52791 0.05061 0.52425 0.0
C2348 C 0.5777 0.00253 0.49033 0.0
C2349 C 0.60068 0.99091 0.49272 0.0
C2350 C 0.60024 0.98941 0.47593 0.0
C2351 C 0.57768 1.00088 0.47359 0.0
C2352 C 0.5892 0.99734 0.49994 0.0
C2353 C 0.58882 0.99432 0.46648 0.0
C2354 C 0.53631 0.01936 0.5447 0.0
C2355 C 0.56561 0.00968 0.49728 0.0
H2356 H 0.43648 0.05698 0.56061 0.0
H2357 H 0.47518 0.03516 0.56727 0.0
H2358 H 0.45481 0.04669 0.57823 0.0
H2359 H 0.45915 0.04429 0.51975 0.0
H2360 H 0.60874 0.98429 0.47007 0.0
H2361 H 0.56899 0.00464 0.46588 0.0
H2362 H 0.58941 0.99854 0.51286 0.0
H2363 H 0.58863 0.99307 0.45358 0.0
Eu2364 Eu 0.29397 0.26522 0.76558 0.0
C2365 C 0.23253 0.2809 0.73181 0.0
N2366 N 0.24103 0.28916 0.74501 0.0
C2367 C 0.23815 0.31258 0.73425 0.0
C2368 C 0.22718 0.28823 0.71888 0.0
C2369 C 0.24298 0.30476 0.74682 0.0
C2370 C 0.2305 0.30427 0.72006 0.0
C2371 C 0.21854 0.25634 0.71874 0.0
C2372 C 0.2282 0.26516 0.73172 0.0
C2373 C 0.21386 0.26349 0.70548 0.0
C2374 C 0.21819 0.2794 0.70554 0.0
Eu2375 Eu 0.24965 0.27486 0.76511 0.0
N2376 N 0.23318 0.2585 0.74459 0.0
C2377 C 0.2136 0.24066 0.71968 0.0
C2378 C 0.22754 0.24351 0.74609 0.0
C2379 C 0.21791 0.23428 0.73354 0.0
H2380 H 0.24781 0.31111 0.75817 0.0
H2381 H 0.21374 0.2223 0.73461 0.0
H2382 H 0.28844 0.22617 0.76138 0.0
H2383 H 0.33187 0.30608 0.81047 0.0
H2384 H 0.23053 0.23871 0.75696 0.0
H2385 H 0.20614 0.23349 0.70997 0.0
H2386 H 0.31473 0.29777 0.78534 0.0
H2387 H 0.24003 0.32499 0.73563 0.0
H2388 H 0.20658 0.25688 0.6953 0.0
H2389 H 0.21412 0.28482 0.69542 0.0
H2390 H 0.29329 0.2057 0.77769 0.0
H2391 H 0.22659 0.31035 0.7104 0.0
H2392 H 0.3373 0.287 0.82865 0.0
N2393 N 0.29867 0.24433 0.77951 0.0
C2394 C 0.30756 0.24816 0.79383 0.0
C2395 C 0.29717 0.21759 0.78248 0.0
C2396 C 0.311 0.23674 0.80336 0.0
C2397 C 0.29417 0.22928 0.77339 0.0
C2398 C 0.30541 0.22133 0.79764 0.0
N2399 N 0.31067 0.27427 0.78914 0.0
C2400 C 0.31716 0.28935 0.79306 0.0
C2401 C 0.32341 0.26777 0.81328 0.0
C2402 C 0.31384 0.26351 0.7987 0.0
C2403 C 0.32987 0.28328 0.81756 0.0
C2404 C 0.32685 0.29408 0.80732 0.0
H2405 H 0.30781 0.21224 0.8046 0.0
H2406 H 0.32285 0.23238 0.8256 0.0
H2407 H 0.33364 0.25953 0.83431 0.0
O2408 O 0.31689 0.2732 0.75859 0.0
O2409 O 0.28506 0.27076 0.78976 0.0
O2410 O 0.26743 0.28678 0.78526 0.0
O2411 O 0.30323 0.2521 0.74677 0.0
O2412 O 0.29277 0.29012 0.76355 0.0
O2413 O 0.26832 0.29663 0.76468 0.0
O2414 O 0.23404 0.26515 0.78174 0.0
O2415 O 0.25612 0.261 0.74357 0.0
O2416 O 0.28052 0.27349 0.74529 0.0
O2417 O 0.2309 0.28602 0.77219 0.0
O2418 O 0.25712 0.25498 0.77675 0.0
O2419 O 0.27335 0.2458 0.76028 0.0
C2420 C 0.27649 0.28056 0.7948 0.0
C2421 C 0.33036 0.25462 0.74781 0.0
C2422 C 0.35541 0.25343 0.73817 0.0
C2423 C 0.35678 0.24147 0.7477 0.0
C2424 C 0.33227 0.24286 0.75731 0.0
C2425 C 0.34534 0.23629 0.75716 0.0
C2426 C 0.34195 0.25985 0.73814 0.0
C2427 C 0.28339 0.30013 0.76358 0.0
C2428 C 0.31639 0.26148 0.748 0.0
C2429 C 0.32021 0.24099 0.81808 0.0
C2430 C 0.32639 0.25646 0.82303 0.0
C2431 C 0.26875 0.26463 0.73691 0.0
C2432 C 0.22234 0.28227 0.7975 0.0
C2433 C 0.204 0.2836 0.81744 0.0
C2434 C 0.2153 0.29452 0.82717 0.0
C2435 C 0.23327 0.29314 0.80749 0.0
C2436 C 0.20769 0.27751 0.80248 0.0
C2437 C 0.22976 0.29916 0.82225 0.0
C2438 C 0.26205 0.24351 0.76928 0.0
C2439 C 0.22608 0.27608 0.78179 0.0
H2440 H 0.36672 0.236 0.74777 0.0
H2441 H 0.32365 0.23871 0.76485 0.0
H2442 H 0.34662 0.22713 0.76445 0.0
H2443 H 0.3406 0.26904 0.73089 0.0
H2444 H 0.2129 0.29975 0.83854 0.0
H2445 H 0.2445 0.29703 0.80382 0.0
H2446 H 0.19929 0.26904 0.79477 0.0
H2447 H 0.23827 0.30758 0.82989 0.0
Eu2448 Eu 0.03095 1.00012 0.5166 0.0
C2449 C 0.01012 0.05646 0.55441 0.0
N2450 N 1.00236 0.04748 0.54125 0.0
C2451 C 0.97878 0.04637 0.55302 0.0
C2452 C 1.00244 0.06051 0.5676 0.0
C2453 C 0.9869 0.04256 0.54029 0.0
C2454 C 0.98659 0.05535 0.56676 0.0
C2455 C 0.03433 0.06997 0.56868 0.0
C2456 C 0.02592 0.06112 0.55493 0.0
C2457 C 0.02671 0.07406 0.58181 0.0
C2458 C 0.01081 0.06936 0.58126 0.0
Eu2459 Eu 0.01698 0.04151 0.5204 0.0
N2460 N 0.0331 0.05658 0.54222 0.0
C2461 C 0.05021 0.07435 0.56889 0.0
C2462 C 0.04844 0.06153 0.54209 0.0
C2463 C 0.05725 0.07017 0.5555 0.0
H2464 H 0.98077 0.03594 0.52957 0.0
H2465 H 0.06947 0.07367 0.55545 0.0
H2466 H 0.06691 0.00651 0.50668 0.0
H2467 H 0.97926 0.96325 0.48471 0.0
H2468 H 0.05394 0.05917 0.53163 0.0
H2469 H 0.05707 0.08112 0.57924 0.0
H2470 H 0.99452 0.98052 0.50701 0.0
H2471 H 0.96651 0.04242 0.5522 0.0
H2472 H 0.03301 0.08081 0.59247 0.0
H2473 H 0.0051 0.07255 0.59151 0.0
H2474 H 0.08106 0.9994 0.4842 0.0
H2475 H 0.98028 0.05822 0.57664 0.0
H2476 H 0.9916 0.95502 0.46115 0.0
N2477 N 0.04544 0.99389 0.49576 0.0
C2478 C 0.03777 0.98408 0.48314 0.0
C2479 C 0.06887 0.99509 0.4837 0.0
C2480 C 0.04546 0.97942 0.47019 0.0
C2481 C 0.0608 0.99927 0.49633 0.0
C2482 C 0.06117 0.98514 0.47055 0.0
N2483 N 0.01497 0.98362 0.49571 0.0
C2484 C 0.99989 0.97782 0.49655 0.0
C2485 C 0.01394 0.96838 0.47031 0.0
C2486 C 0.02213 0.97876 0.48314 0.0
C2487 C 0.99829 0.96301 0.47078 0.0
C2488 C 0.99127 0.96768 0.48401 0.0
H2489 H 0.06747 0.98183 0.46083 0.0
H2490 H 0.04304 0.96529 0.44743 0.0
H2491 H 0.01562 0.9552 0.44787 0.0
O2492 O 0.02497 0.98063 0.53117 0.0
O2493 O 0.02605 0.01058 0.4933 0.0
O2494 O 0.00718 0.02416 0.49902 0.0
O2495 O 0.04783 0.98655 0.52366 0.0
O2496 O 0.00849 1.00155 0.52726 0.0
O2497 O 0.99806 0.02044 0.51545 0.0
O2498 O 0.02354 0.06231 0.50771 0.0
O2499 O 0.02108 0.03026 0.54337 0.0
O2500 O 0.04059 0.0181 0.53732 0.0
O2501 O 1.00024 0.05526 0.51358 0.0
O2502 O 0.03907 0.04 0.509 0.0
O2503 O 0.04969 0.0214 0.52105 0.0
C2504 C 0.0148 0.01755 0.4887 0.0
C2505 C 0.04458 0.96538 0.53985 0.0
C2506 C 0.04131 0.94247 0.5543 0.0
C2507 C 0.05726 0.94336 0.55587 0.0
C2508 C 0.06052 0.96581 0.54172 0.0
C2509 C 0.06675 0.95493 0.54963 0.0
C2510 C 0.03489 0.95356 0.54625 0.0
C2511 C 0.99669 0.00796 0.52289 0.0
C2512 C 0.03879 0.97759 0.53145 0.0
C2513 C 0.03731 0.96911 0.45741 0.0
C2514 C 0.02164 0.96349 0.45757 0.0
C2515 C 0.0324 0.02338 0.54785 0.0
C2516 C 0.00423 0.0785 0.50056 0.0
C2517 C 0.00671 0.10062 0.4849 0.0
C2518 C 0.99208 0.10277 0.48836 0.0
C2519 C 0.98964 0.08118 0.50377 0.0
C2520 C 0.01291 0.08845 0.49112 0.0
C2521 C 0.98368 0.09318 0.49774 0.0
C2522 C 0.05093 0.03361 0.51319 0.0
C2523 C 0.00967 0.06522 0.50729 0.0
H2524 H 0.06239 0.93501 0.56195 0.0
H2525 H 0.06831 0.97469 0.53711 0.0
H2526 H 0.07904 0.95547 0.55095 0.0
H2527 H 0.02258 0.95297 0.54499 0.0
H2528 H 0.98714 0.112 0.48376 0.0
H2529 H 0.9827 0.07397 0.51102 0.0
H2530 H 0.02417 0.08664 0.48848 0.0
H2531 H 0.97243 0.09503 0.50033 0.0
Eu2532 Eu 0.27488 0.79113 0.76095 0.0
C2533 C 0.23945 0.73688 0.79079 0.0
N2534 N 0.25365 0.74541 0.7956 0.0
C2535 C 0.24771 0.74767 0.8228 0.0
C2536 C 0.22863 0.73389 0.80185 0.0
C2537 C 0.25819 0.74984 0.81152 0.0
C2538 C 0.23276 0.73992 0.8179 0.0
C2539 C 0.22221 0.71969 0.77019 0.0
C2540 C 0.23617 0.72993 0.77509 0.0
C2541 C 0.21126 0.71714 0.78102 0.0
C2542 C 0.2144 0.72433 0.79677 0.0
Eu2543 Eu 0.27012 0.74882 0.77519 0.0
N2544 N 0.24699 0.7325 0.76481 0.0
C2545 C 0.21992 0.71186 0.75472 0.0
C2546 C 0.24523 0.72429 0.75006 0.0
C2547 C 0.23158 0.71402 0.74471 0.0
H2548 H 0.26999 0.75475 0.81568 0.0
H2549 H 0.23006 0.70772 0.73294 0.0
H2550 H 0.28664 0.78471 0.72483 0.0
H2551 H 0.30324 0.82949 0.81382 0.0
H2552 H 0.25435 0.72584 0.74245 0.0
H2553 H 0.20937 0.70386 0.75054 0.0
H2554 H 0.28169 0.81229 0.79732 0.0
H2555 H 0.25129 0.75162 0.83533 0.0
H2556 H 0.20054 0.70923 0.77746 0.0
H2557 H 0.20598 0.72191 0.80511 0.0
H2558 H 0.30959 0.79245 0.7111 0.0
H2559 H 0.22475 0.73795 0.82673 0.0
H2560 H 0.3278 0.83696 0.80262 0.0
N2561 N 0.29636 0.79749 0.74703 0.0
C2562 C 0.30838 0.80772 0.75512 0.0
C2563 C 0.30944 0.79673 0.72352 0.0
C2564 C 0.3217 0.81248 0.74774 0.0
C2565 C 0.29652 0.79224 0.73136 0.0
C2566 C 0.32213 0.80682 0.73176 0.0
N2567 N 0.29437 0.80845 0.77771 0.0
C2568 C 0.29256 0.81466 0.79265 0.0
C2569 C 0.31993 0.82342 0.77975 0.0
C2570 C 0.30747 0.8131 0.77097 0.0
C2571 C 0.31848 0.82903 0.79548 0.0
C2572 C 0.30467 0.82478 0.80188 0.0
H2573 H 0.33216 0.81021 0.72567 0.0
H2574 H 0.34456 0.82629 0.75111 0.0
H2575 H 0.34302 0.83587 0.7791 0.0
O2576 O 0.26968 0.8144 0.76278 0.0
O2577 O 0.29633 0.77961 0.76381 0.0
O2578 O 0.29254 0.76511 0.78473 0.0
O2579 O 0.26326 0.79926 0.74027 0.0
O2580 O 0.26569 0.78778 0.78473 0.0
O2581 O 0.27768 0.76901 0.79426 0.0
O2582 O 0.28439 0.73271 0.76653 0.0
O2583 O 0.2495 0.7551 0.76027 0.0
O2584 O 0.25179 0.7806 0.76859 0.0
O2585 O 0.27275 0.7289 0.78747 0.0
O2586 O 0.27902 0.75311 0.75159 0.0
O2587 O 0.2671 0.7715 0.74123 0.0
C2588 C 0.30185 0.77309 0.77601 0.0
C2589 C 0.2565 0.8247 0.74077 0.0
C2590 C 0.24387 0.84695 0.74279 0.0
C2591 C 0.2429 0.84678 0.72608 0.0
C2592 C 0.25533 0.82474 0.72406 0.0
C2593 C 0.24864 0.83577 0.7168 0.0
C2594 C 0.2508 0.83595 0.75017 0.0
C2595 C 0.27119 0.78103 0.79656 0.0
C2596 C 0.26315 0.81257 0.7481 0.0
C2597 C 0.33418 0.82258 0.75654 0.0
C2598 C 0.33332 0.828 0.7725 0.0
C2599 C 0.24327 0.76741 0.76243 0.0
C2600 C 0.29597 0.72014 0.78656 0.0
C2601 C 0.3123 0.70118 0.79023 0.0
C2602 C 0.31947 0.70995 0.80452 0.0
C2603 C 0.30363 0.72901 0.80055 0.0
C2604 C 0.30054 0.7064 0.78125 0.0
C2605 C 0.31536 0.72393 0.80944 0.0
C2606 C 0.27223 0.75854 0.73953 0.0
C2607 C 0.28235 0.72435 0.77827 0.0
H2608 H 0.23764 0.85519 0.72022 0.0
H2609 H 0.25961 0.81623 0.71659 0.0
H2610 H 0.24782 0.83572 0.70391 0.0
H2611 H 0.25147 0.83598 0.76307 0.0
H2612 H 0.32848 0.70615 0.81172 0.0
H2613 H 0.30023 0.73964 0.8048 0.0
H2614 H 0.29459 0.69953 0.77047 0.0
H2615 H 0.32113 0.73072 0.82032 0.0
Eu2616 Eu 0.527 0.03526 0.99713 0.0
C2617 C 0.5463 0.99476 0.05822 0.0
N2618 N 0.53574 0.99076 0.04517 0.0
C2619 C 0.54245 0.9659 0.04142 0.0
C2620 C 0.5556 0.98444 0.06325 0.0
C2621 C 0.53354 0.97655 0.03686 0.0
C2622 C 0.55357 0.96987 0.05465 0.0
C2623 C 0.55913 0.01391 0.07978 0.0
C2624 C 0.54803 0.00935 0.06634 0.0
C2625 C 0.5684 0.00365 0.08485 0.0
C2626 C 0.56664 0.98896 0.07661 0.0
Eu2627 Eu 0.52095 0.00906 0.03826 0.0
N2628 N 0.53904 0.01913 0.06098 0.0
C2629 C 0.56066 0.02867 0.08772 0.0
C2630 C 0.54048 0.03353 0.06884 0.0
C2631 C 0.55129 0.03851 0.08221 0.0
H2632 H 0.52479 0.97332 0.02681 0.0
H2633 H 0.55236 0.04994 0.08829 0.0
H2634 H 0.50845 0.06407 0.00781 0.0
H2635 H 0.5221 0.99958 0.93979 0.0
H2636 H 0.53337 0.04136 0.06512 0.0
H2637 H 0.56905 0.03261 0.09807 0.0
H2638 H 0.53308 0.0096 0.96733 0.0
H2639 H 0.54071 0.95463 0.03477 0.0
H2640 H 0.57699 0.00699 0.09512 0.0
H2641 H 0.5739 0.98119 0.08065 0.0
H2642 H 0.48864 0.07692 0.99597 0.0
H2643 H 0.56048 0.96161 0.05815 0.0
H2644 H 0.50108 0.01038 0.92665 0.0
N2645 N 0.50771 0.04819 0.98717 0.0
C2646 C 0.50152 0.04357 0.97174 0.0
C2647 C 0.4921 0.06751 0.98905 0.0
C2648 C 0.49011 0.05067 0.96449 0.0
C2649 C 0.50332 0.06011 0.99578 0.0
C2650 C 0.48542 0.06274 0.97336 0.0
N2651 N 0.51742 0.02481 0.97056 0.0
C2652 C 0.5234 0.01387 0.96213 0.0
C2653 C 0.50012 0.02642 0.9473 0.0
C2654 C 0.50641 0.03148 0.96328 0.0
C2655 C 0.50562 0.01458 0.93893 0.0
C2656 C 0.51743 0.0084 0.94633 0.0
H2657 H 0.47671 0.0685 0.9682 0.0
H2658 H 0.47493 0.05082 0.94291 0.0
H2659 H 0.48373 0.02965 0.92786 0.0
O2660 O 0.54764 0.0384 0.98492 0.0
O2661 O 0.50173 0.02511 0.99608 0.0
O2662 O 0.513 0.01933 0.01744 0.0
O2663 O 0.53892 0.05819 0.99428 0.0
O2664 O 0.53169 0.01027 0.99553 0.0
O2665 O 0.51786 0.99552 0.0132 0.0
O2666 O 0.50461 0.00898 0.05587 0.0
O2667 O 0.54514 0.01251 0.03193 0.0
O2668 O 0.53938 0.03286 0.02109 0.0
O2669 O 0.50291 0.98904 0.03859 0.0
O2670 O 0.51676 0.03404 0.04177 0.0
O2671 O 0.52442 0.04911 0.02107 0.0
C2672 C 0.50009 0.01847 0.00883 0.0
C2673 C 0.54907 0.05949 0.96954 0.0
C2674 C 0.55222 0.05644 0.94105 0.0
C2675 C 0.55041 0.07173 0.94016 0.0
C2676 C 0.5474 0.07475 0.9684 0.0
C2677 C 0.54794 0.08076 0.95374 0.0
C2678 C 0.55132 0.05037 0.95578 0.0
C2679 C 0.52559 0.99693 0.00045 0.0
C2680 C 0.54827 0.05314 0.98502 0.0
C2681 C 0.48372 0.04551 0.94866 0.0
C2682 C 0.48871 0.03343 0.9401 0.0
C2683 C 0.54911 0.02372 0.02342 0.0
C2684 C 0.49657 0.98503 0.06484 0.0
C2685 C 0.48913 0.98213 0.09164 0.0
C2686 C 0.49398 0.96791 0.09105 0.0
C2687 C 0.5013 0.97077 0.06437 0.0
C2688 C 0.49051 0.99057 0.07845 0.0
C2689 C 0.5 0.96229 0.07745 0.0
C2690 C 0.51951 0.04735 0.03543 0.0
C2691 C 0.49823 0.99469 0.05166 0.0
H2692 H 0.55135 0.0769 0.92909 0.0
H2693 H 0.54566 0.08203 0.97883 0.0
H2694 H 0.54668 0.09254 0.95296 0.0
H2695 H 0.55242 0.03854 0.95651 0.0
H2696 H 0.49291 0.96105 0.10096 0.0
H2697 H 0.50606 0.96622 0.054 0.0
H2698 H 0.48712 1.0017 0.07887 0.0
H2699 H 0.50366 0.95132 0.07706 0.0
Eu2700 Eu 0.26442 0.24946 0.25492 0.0
C2701 C 0.32031 0.29394 0.28984 0.0
N2702 N 0.30661 0.28859 0.2951 0.0
C2703 C 0.31975 0.28285 0.31931 0.0
C2704 C 0.3343 0.29328 0.29884 0.0
C2705 C 0.30622 0.28394 0.31004 0.0
C2706 C 0.33385 0.28727 0.31356 0.0
C2707 C 0.33432 0.30729 0.27037 0.0
C2708 C 0.32038 0.3009 0.27584 0.0
C2709 C 0.34825 0.30609 0.27894 0.0
C2710 C 0.34824 0.29908 0.29314 0.0
Eu2711 Eu 0.28434 0.29008 0.27787 0.0
N2712 N 0.30674 0.30155 0.2676 0.0
C2713 C 0.3338 0.31482 0.25653 0.0
C2714 C 0.30611 0.30949 0.25458 0.0
C2715 C 0.31962 0.31609 0.24871 0.0
H2716 H 0.29559 0.28153 0.31513 0.0
H2717 H 0.31909 0.32214 0.23819 0.0
H2718 H 0.24851 0.26107 0.22184 0.0
H2719 H 0.23696 0.21296 0.29685 0.0
H2720 H 0.29516 0.31067 0.24869 0.0
H2721 H 0.34425 0.31989 0.25195 0.0
H2722 H 0.25839 0.22518 0.28327 0.0
H2723 H 0.31929 0.27888 0.33103 0.0
H2724 H 0.35909 0.31077 0.27484 0.0
H2725 H 0.35908 0.29854 0.29982 0.0
H2726 H 0.22274 0.26233 0.20911 0.0
H2727 H 0.34433 0.28658 0.32084 0.0
H2728 H 0.21039 0.21518 0.28745 0.0
N2729 N 0.2402 0.2509 0.24186 0.0
C2730 C 0.22772 0.24397 0.24832 0.0
C2731 C 0.22398 0.25735 0.22026 0.0
C2732 C 0.21278 0.24424 0.24139 0.0
C2733 C 0.23857 0.25685 0.22762 0.0
C2734 C 0.21102 0.25123 0.2273 0.0
N2735 N 0.24458 0.23609 0.26799 0.0
C2736 C 0.24707 0.22716 0.27987 0.0
C2737 C 0.21724 0.22913 0.26874 0.0
C2738 C 0.22999 0.23655 0.26188 0.0
C2739 C 0.21986 0.221 0.28181 0.0
C2740 C 0.23484 0.2198 0.28723 0.0
H2741 H 0.19972 0.25161 0.22157 0.0
H2742 H 0.18853 0.23752 0.24345 0.0
H2743 H 0.19243 0.22431 0.26741 0.0
O2744 O 0.25932 0.22488 0.24765 0.0
O2745 O 0.24995 0.26791 0.26071 0.0
O2746 O 0.2609 0.28006 0.28505 0.0
O2747 O 0.26964 0.24013 0.23157 0.0
O2748 O 0.27632 0.24812 0.27982 0.0
O2749 O 0.27578 0.27172 0.29361 0.0
O2750 O 0.27695 0.31156 0.27407 0.0
O2751 O 0.29758 0.27777 0.26047 0.0
O2752 O 0.29017 0.25242 0.26341 0.0
O2753 O 0.2883 0.30892 0.29718 0.0
O2754 O 0.2709 0.28996 0.25348 0.0
O2755 O 0.27406 0.26745 0.23945 0.0
C2756 C 0.24862 0.27428 0.27509 0.0
C2757 C 0.27537 0.2152 0.23009 0.0
C2758 C 0.29113 0.1967 0.23776 0.0
C2759 C 0.29197 0.19244 0.2214 0.0
C2760 C 0.2767 0.21107 0.21393 0.0
C2761 C 0.28506 0.19979 0.20962 0.0
C2762 C 0.28295 0.20833 0.242 0.0
C2763 C 0.2764 0.25701 0.29327 0.0
C2764 C 0.26524 0.22595 0.23418 0.0
C2765 C 0.2001 0.23733 0.24853 0.0
C2766 C 0.20233 0.22981 0.26219 0.0
C2767 C 0.30065 0.26387 0.26035 0.0
C2768 C 0.26821 0.32312 0.29638 0.0
C2769 C 0.25066 0.34113 0.29601 0.0
C2770 C 0.24223 0.33299 0.30679 0.0
C2771 C 0.25972 0.315 0.30711 0.0
C2772 C 0.2637 0.33616 0.291 0.0
C2773 C 0.24683 0.32003 0.31237 0.0
C2774 C 0.27237 0.28182 0.24006 0.0
C2775 C 0.28057 0.31728 0.28897 0.0
H2776 H 0.29764 0.18314 0.2176 0.0
H2777 H 0.27099 0.21634 0.20462 0.0
H2778 H 0.28585 0.19645 0.1971 0.0
H2779 H 0.28222 0.21186 0.2545 0.0
H2780 H 0.23211 0.33662 0.31084 0.0
H2781 H 0.26282 0.30465 0.31114 0.0
H2782 H 0.26997 0.342 0.28222 0.0
H2783 H 0.24026 0.31373 0.32058 0.0
Eu2784 Eu 0.5296 0.49842 0.01472 0.0
C2785 C 0.51259 0.55928 0.04976 0.0
N2786 N 0.50419 0.54978 0.0373 0.0
C2787 C 0.48111 0.55127 0.04933 0.0
C2788 C 0.50549 0.56505 0.06266 0.0
C2789 C 0.48865 0.54589 0.03677 0.0
C2790 C 0.48956 0.56084 0.06238 0.0
C2791 C 0.53732 0.57353 0.06205 0.0
C2792 C 0.52837 0.56333 0.04953 0.0
C2793 C 0.53032 0.5791 0.07505 0.0
C2794 C 0.51446 0.57485 0.07537 0.0
Eu2795 Eu 0.51792 0.54087 0.01696 0.0
N2796 N 0.53487 0.55761 0.03686 0.0
C2797 C 0.553 0.57812 0.06094 0.0
C2798 C 0.54983 0.56307 0.03511 0.0
C2799 C 0.55921 0.57308 0.04725 0.0
H2800 H 0.48205 0.53884 0.02654 0.0
H2801 H 0.57115 0.57716 0.04589 0.0
H2802 H 0.56644 0.50386 0.00702 0.0
H2803 H 0.47766 0.46728 0.97803 0.0
H2804 H 0.55445 0.56027 0.02415 0.0
H2805 H 0.56027 0.58597 0.07028 0.0
H2806 H 0.49256 0.48255 0.00195 0.0
H2807 H 0.46877 0.54812 0.04889 0.0
H2808 H 0.53704 0.58686 0.08483 0.0
H2809 H 0.50921 0.57935 0.08542 0.0
H2810 H 0.58131 0.49679 0.98512 0.0
H2811 H 0.48368 0.56502 0.07208 0.0
H2812 H 0.49092 0.45909 0.95515 0.0
N2813 N 0.54497 0.4926 0.99462 0.0
C2814 C 0.53745 0.48363 0.98131 0.0
C2815 C 0.56898 0.49309 0.98388 0.0
C2816 C 0.54555 0.47913 0.96865 0.0
C2817 C 0.56051 0.49723 0.99617 0.0
C2818 C 0.56148 0.48401 0.97005 0.0
N2819 N 0.5139 0.48408 0.99239 0.0
C2820 C 0.49843 0.47957 0.99192 0.0
C2821 C 0.51348 0.47014 0.96639 0.0
C2822 C 0.52153 0.4792 0.98019 0.0
C2823 C 0.49751 0.46601 0.96557 0.0
C2824 C 0.48997 0.47067 0.97843 0.0
H2825 H 0.56809 0.4808 0.96056 0.0
H2826 H 0.54359 0.46631 0.9452 0.0
H2827 H 0.51555 0.45839 0.94327 0.0
O2828 O 0.52127 0.47865 0.02751 0.0
O2829 O 0.52591 0.50978 0.99174 0.0
O2830 O 0.50664 0.52277 0.9969 0.0
O2831 O 0.5439 0.48156 0.01997 0.0
O2832 O 0.5075 0.50116 0.02531 0.0
O2833 O 0.49771 0.52082 0.01408 0.0
O2834 O 0.52588 0.55793 0.00093 0.0
O2835 O 0.52197 0.53126 0.04102 0.0
O2836 O 0.53905 0.51493 0.03685 0.0
O2837 O 0.50331 0.55651 0.0084 0.0
O2838 O 0.54003 0.53659 0.00702 0.0
O2839 O 0.54927 0.51851 0.02121 0.0
C2840 C 0.51442 0.51622 0.9868 0.0
C2841 C 0.53998 0.46767 0.04243 0.0
C2842 C 0.5393 0.44777 0.06076 0.0
C2843 C 0.5521 0.45676 0.07019 0.0
C2844 C 0.5532 0.47605 0.05174 0.0
C2845 C 0.55901 0.47078 0.06568 0.0
C2846 C 0.53314 0.45334 0.0469 0.0
C2847 C 0.49607 0.50823 0.02143 0.0
C2848 C 0.53398 0.47331 0.02752 0.0
C2849 C 0.53754 0.46996 0.955 0.0
C2850 C 0.52157 0.46547 0.95389 0.0
C2851 C 0.5316 0.52274 0.04641 0.0
C2852 C 0.51621 0.58111 0.00362 0.0
C2853 C 0.52064 0.60658 0.99399 0.0
C2854 C 0.52179 0.61326 0.00994 0.0
C2855 C 0.51733 0.58824 0.01933 0.0
C2856 C 0.51773 0.59036 0.99085 0.0
C2857 C 0.5201 0.60416 0.02245 0.0
C2858 C 0.55143 0.53064 0.01334 0.0
C2859 C 0.51365 0.5641 0.00074 0.0
H2860 H 0.557 0.45272 0.08087 0.0
H2861 H 0.55915 0.48666 0.04818 0.0
H2862 H 0.56908 0.47746 0.07287 0.0
H2863 H 0.52328 0.44645 0.03952 0.0
H2864 H 0.52383 0.62561 0.01273 0.0
H2865 H 0.51599 0.58151 0.02925 0.0
H2866 H 0.51688 0.58501 0.97865 0.0
H2867 H 0.52092 0.60948 0.03464 0.0
Eu2868 Eu 0.77689 0.29279 0.26235 0.0
C2869 C 0.74081 0.23493 0.28999 0.0
N2870 N 0.75475 0.24356 0.29586 0.0
C2871 C 0.74787 0.24324 0.32265 0.0
C2872 C 0.72969 0.23049 0.30035 0.0
C2873 C 0.75857 0.24733 0.31198 0.0
C2874 C 0.73333 0.23491 0.31682 0.0
C2875 C 0.72331 0.22141 0.2672 0.0
C2876 C 0.73763 0.23036 0.27354 0.0
C2877 C 0.71219 0.21718 0.27751 0.0
C2878 C 0.71537 0.22171 0.29401 0.0
Eu2879 Eu 0.77158 0.24979 0.27645 0.0
N2880 N 0.74834 0.23514 0.26367 0.0
C2881 C 0.72057 0.21704 0.25065 0.0
C2882 C 0.74604 0.23031 0.24768 0.0
C2883 C 0.73204 0.22137 0.24088 0.0
H2884 H 0.76995 0.25327 0.31673 0.0
H2885 H 0.73014 0.21778 0.22813 0.0
H2886 H 0.77667 0.29096 0.22206 0.0
H2887 H 0.81953 0.3241 0.30996 0.0
H2888 H 0.75499 0.23335 0.24021 0.0
H2889 H 0.7097 0.21017 0.24533 0.0
H2890 H 0.79463 0.30819 0.29845 0.0
H2891 H 0.75089 0.24639 0.3354 0.0
H2892 H 0.70109 0.21038 0.27284 0.0
H2893 H 0.70668 0.21828 0.3018 0.0
H2894 H 0.79458 0.29914 0.2026 0.0
H2895 H 0.72509 0.23173 0.32515 0.0
H2896 H 0.83886 0.33316 0.29206 0.0
N2897 N 0.79257 0.30044 0.24244 0.0
C2898 C 0.80653 0.30916 0.24794 0.0
C2899 C 0.79812 0.30193 0.21531 0.0
C2900 C 0.81698 0.31437 0.23719 0.0
C2901 C 0.78807 0.29713 0.22639 0.0
C2902 C 0.81267 0.31049 0.22072 0.0
N2903 N 0.80028 0.30757 0.27457 0.0
C2904 C 0.80314 0.31185 0.29066 0.0
C2905 C 0.82465 0.32229 0.27039 0.0
C2906 C 0.81037 0.31307 0.26439 0.0
C2907 C 0.82801 0.32611 0.28699 0.0
C2908 C 0.81714 0.32098 0.29715 0.0
H2909 H 0.82039 0.31425 0.21209 0.0
H2910 H 0.83949 0.32742 0.23507 0.0
H2911 H 0.84619 0.33435 0.26409 0.0
O2912 O 0.76729 0.31045 0.27564 0.0
O2913 O 0.79911 0.28372 0.26979 0.0
O2914 O 0.79468 0.26458 0.28672 0.0
O2915 O 0.77021 0.31182 0.25065 0.0
O2916 O 0.7657 0.28458 0.28362 0.0
O2917 O 0.77864 0.26883 0.29653 0.0
O2918 O 0.78232 0.23176 0.26517 0.0
O2919 O 0.74959 0.25894 0.2683 0.0
O2920 O 0.75441 0.27758 0.25097 0.0
O2921 O 0.77555 0.23037 0.28898 0.0
O2922 O 0.78276 0.25686 0.25467 0.0
O2923 O 0.77069 0.27375 0.24219 0.0
C2924 C 0.80405 0.27476 0.28007 0.0
C2925 C 0.74933 0.32125 0.26031 0.0
C2926 C 0.73193 0.33947 0.26125 0.0
C2927 C 0.71973 0.32771 0.25466 0.0
C2928 C 0.73703 0.3097 0.25361 0.0
C2929 C 0.72233 0.31291 0.25075 0.0
C2930 C 0.74678 0.33623 0.26407 0.0
C2931 C 0.77313 0.28149 0.29658 0.0
C2932 C 0.76477 0.31764 0.26316 0.0
C2933 C 0.83131 0.32337 0.24316 0.0
C2934 C 0.83512 0.32734 0.25969 0.0
C2935 C 0.74486 0.26749 0.25751 0.0
C2936 C 0.79734 0.22029 0.28348 0.0
C2937 C 0.81427 0.2016 0.28423 0.0
C2938 C 0.82394 0.21121 0.29661 0.0
C2939 C 0.80724 0.22978 0.29575 0.0
C2940 C 0.80103 0.20629 0.27752 0.0
C2941 C 0.82055 0.22534 0.30214 0.0
C2942 C 0.7759 0.26088 0.24182 0.0
C2943 C 0.78266 0.22447 0.27786 0.0
H2944 H 0.70826 0.33007 0.25232 0.0
H2945 H 0.73885 0.29825 0.25045 0.0
H2946 H 0.71299 0.30394 0.24534 0.0
H2947 H 0.75625 0.3453 0.26911 0.0
H2948 H 0.83412 0.20775 0.302 0.0
H2949 H 0.80436 0.2404 0.3007 0.0
H2950 H 0.79335 0.19881 0.26818 0.0
H2951 H 0.82809 0.2327 0.31165 0.0
Eu2952 Eu 0.0266 0.53361 0.49682 0.0
C2953 C 0.04972 0.50053 0.56319 0.0
N2954 N 0.04281 0.49504 0.54821 0.0
C2955 C 0.05897 0.47626 0.54623 0.0
C2956 C 0.06187 0.49422 0.57013 0.0
C2957 C 0.047 0.48289 0.53981 0.0
C2958 C 0.06651 0.48201 0.56141 0.0
C2959 C 0.05142 0.51822 0.58723 0.0
C2960 C 0.04465 0.51255 0.57154 0.0
C2961 C 0.06372 0.51217 0.59406 0.0
C2962 C 0.06894 0.50021 0.58553 0.0
Eu2963 Eu 0.02281 0.507 0.53831 0.0
N2964 N 0.03274 0.51825 0.56462 0.0
C2965 C 0.04535 0.52953 0.5958 0.0
C2966 C 0.02605 0.52839 0.57343 0.0
C2967 C 0.03244 0.53443 0.58896 0.0
H2968 H 0.04119 0.47834 0.52812 0.0
H2969 H 0.02728 0.54271 0.59574 0.0
H2970 H 0.0221 0.56937 0.50727 0.0
H2971 H 0.99497 0.49098 0.44834 0.0
H2972 H 0.01561 0.53174 0.56869 0.0
H2973 H 0.05021 0.53416 0.60788 0.0
H2974 H 0.01461 0.50071 0.47073 0.0
H2975 H 0.06237 0.46672 0.53947 0.0
H2976 H 0.06911 0.51648 0.60605 0.0
H2977 H 0.07833 0.49556 0.59103 0.0
H2978 H 0.00527 0.58723 0.49921 0.0
H2979 H 0.07579 0.47685 0.56634 0.0
H2980 H 0.97714 0.50735 0.43877 0.0
N2981 N 0.0111 0.55125 0.4896 0.0
C2982 C 1.00016 0.54662 0.47697 0.0
C2983 C 0.00367 0.57583 0.49288 0.0
C2984 C 0.99032 0.55647 0.47192 0.0
C2985 C 0.01312 0.56565 0.49748 0.0
C2986 C 0.99219 0.57121 0.48007 0.0
N2987 N 0.00819 0.52262 0.47461 0.0
C2988 C 0.00702 0.50813 0.46708 0.0
C2989 C 0.98716 0.52668 0.45627 0.0
C2990 C 0.99863 0.53189 0.46927 0.0
C2991 C 0.98582 0.51178 0.44876 0.0
C2992 C 0.99583 0.5025 0.45416 0.0
H2993 H 0.98486 0.57911 0.47656 0.0
H2994 H 0.97126 0.5587 0.45494 0.0
H2995 H 0.96852 0.53264 0.4412 0.0
O2996 O 0.04351 0.53398 0.47972 0.0
O2997 O 1.00264 0.52927 0.50374 0.0
O2998 O 0.00975 0.50969 0.51487 0.0
O2999 O 0.04315 0.55446 0.49547 0.0
O3000 O 0.03201 0.50905 0.49341 0.0
O3001 O 0.02454 0.49362 0.51395 0.0
O3002 O 1.00242 0.50309 0.55084 0.0
O3003 O 0.04799 0.51481 0.536 0.0
O3004 O 0.03567 0.52502 0.51832 0.0
O3005 O 0.01177 0.48378 0.54142 0.0
O3006 O 0.01873 0.53213 0.54113 0.0
O3007 O 0.02874 0.54752 0.52157 0.0
C3008 C 0.99956 0.5184 0.51288 0.0
C3009 C 0.04948 0.55763 0.46918 0.0
C3010 C 0.05594 0.55967 0.44197 0.0
C3011 C 0.05144 0.57402 0.44237 0.0
C3012 C 0.04487 0.57195 0.46941 0.0
C3013 C 0.04586 0.58008 0.45603 0.0
C3014 C 0.05501 0.55161 0.45543 0.0
C3015 C 0.02947 0.49567 0.49966 0.0
C3016 C 0.0486 0.54868 0.48299 0.0
C3017 C 0.97893 0.55131 0.45898 0.0
C3018 C 0.97737 0.53646 0.45117 0.0
C3019 C 0.04896 0.52315 0.52438 0.0
C3020 C 1.00248 0.4827 0.56677 0.0
C3021 C 0.99578 0.48502 0.59416 0.0
C3022 C 0.00374 0.47321 0.59759 0.0
C3023 C 0.01034 0.47085 0.57039 0.0
C3024 C 0.99517 0.48963 0.5787 0.0
C3025 C 0.01094 0.46616 0.58574 0.0
C3026 C 0.02293 0.54554 0.5354 0.0
C3027 C 1.00246 0.48849 0.55095 0.0
H3028 H 0.05214 0.58045 0.4321 0.0
H3029 H 0.04052 0.5769 0.47986 0.0
H3030 H 0.04232 0.5911 0.45627 0.0
H3031 H 0.05881 0.54068 0.45526 0.0
H3032 H 0.00423 0.46927 0.60936 0.0
H3033 H 0.01616 0.4653 0.56147 0.0
H3034 H 0.98928 0.49892 0.57604 0.0
H3035 H 0.01703 0.45706 0.58845 0.0
Eu3036 Eu 0.79348 0.76611 0.26633 0.0
C3037 C 0.73332 0.78188 0.23106 0.0
N3038 N 0.74159 0.78983 0.24456 0.0
C3039 C 0.7389 0.81361 0.23447 0.0
C3040 C 0.72807 0.78962 0.2184 0.0
C3041 C 0.74355 0.80544 0.24681 0.0
C3042 C 0.73139 0.80567 0.22007 0.0
C3043 C 0.71954 0.7576 0.21702 0.0
C3044 C 0.72902 0.76602 0.23036 0.0
C3045 C 0.71476 0.76524 0.20421 0.0
C3046 C 0.71908 0.78119 0.20485 0.0
Eu3047 Eu 0.74927 0.77478 0.26442 0.0
N3048 N 0.73367 0.75887 0.243 0.0
C3049 C 0.71483 0.74178 0.21712 0.0
C3050 C 0.72806 0.74371 0.24375 0.0
C3051 C 0.71903 0.73482 0.2306 0.0
H3052 H 0.74825 0.8116 0.25829 0.0
H3053 H 0.71537 0.72264 0.23082 0.0
H3054 H 0.79022 0.72781 0.26738 0.0
H3055 H 0.82592 0.81357 0.30844 0.0
H3056 H 0.7309 0.73845 0.25435 0.0
H3057 H 0.70769 0.73489 0.207 0.0
H3058 H 0.81006 0.80165 0.2835 0.0
H3059 H 0.74078 0.82601 0.23622 0.0
H3060 H 0.70735 0.75894 0.19397 0.0
H3061 H 0.71498 0.78695 0.19502 0.0
H3062 H 0.79745 0.71012 0.28618 0.0
H3063 H 0.72756 0.81203 0.21062 0.0
H3064 H 0.83416 0.79734 0.32856 0.0
N3065 N 0.79991 0.74795 0.28316 0.0
C3066 C 0.80888 0.75384 0.29705 0.0
C3067 C 0.80055 0.72238 0.28948 0.0
C3068 C 0.81356 0.74408 0.30801 0.0
C3069 C 0.79622 0.73248 0.27897 0.0
C3070 C 0.80912 0.7282 0.30415 0.0
N3071 N 0.80904 0.77886 0.28949 0.0
C3072 C 0.81348 0.79442 0.29216 0.0
C3073 C 0.82281 0.77605 0.31466 0.0
C3074 C 0.81365 0.76967 0.30025 0.0
C3075 C 0.82718 0.79201 0.31761 0.0
C3076 C 0.82253 0.80122 0.30629 0.0
H3077 H 0.81251 0.72034 0.31224 0.0
H3078 H 0.82627 0.74309 0.33095 0.0
H3079 H 0.83423 0.77105 0.33684 0.0
O3080 O 0.81632 0.77426 0.25942 0.0
O3081 O 0.78315 0.77092 0.28989 0.0
O3082 O 0.76656 0.78762 0.28467 0.0
O3083 O 0.80419 0.75163 0.24999 0.0
O3084 O 0.79128 0.78994 0.26079 0.0
O3085 O 0.76763 0.79681 0.26529 0.0
O3086 O 0.73478 0.76653 0.28282 0.0
O3087 O 0.75643 0.76044 0.24355 0.0
O3088 O 0.78084 0.77297 0.24454 0.0
O3089 O 0.72827 0.78333 0.2683 0.0
O3090 O 0.75641 0.75487 0.27615 0.0
O3091 O 0.77373 0.74566 0.26111 0.0
C3092 C 0.77539 0.78156 0.29469 0.0
C3093 C 0.83156 0.75622 0.25149 0.0
C3094 C 0.85697 0.75596 0.24236 0.0
C3095 C 0.85992 0.74652 0.25431 0.0
C3096 C 0.83496 0.74691 0.26331 0.0
C3097 C 0.84901 0.74204 0.26464 0.0
C3098 C 0.84258 0.76067 0.24092 0.0
C3099 C 0.78213 0.80006 0.26208 0.0
C3100 C 0.8168 0.76173 0.25039 0.0
C3101 C 0.82265 0.75042 0.32237 0.0
C3102 C 0.82722 0.76635 0.3257 0.0
C3103 C 0.76884 0.76413 0.23652 0.0
C3104 C 0.71897 0.78316 0.29352 0.0
C3105 C 0.69789 0.78615 0.30963 0.0
C3106 C 0.70629 0.8005 0.3165 0.0
C3107 C 0.72717 0.79738 0.30081 0.0
C3108 C 0.70441 0.7774 0.2982 0.0
C3109 C 0.72089 0.80592 0.31231 0.0
C3110 C 0.76166 0.74338 0.26913 0.0
C3111 C 0.72475 0.77519 0.27985 0.0
H3112 H 0.8707 0.74247 0.25563 0.0
H3113 H 0.82679 0.74342 0.27156 0.0
H3114 H 0.8515 0.73479 0.27377 0.0
H3115 H 0.84008 0.76802 0.23187 0.0
H3116 H 0.70161 0.80745 0.32532 0.0
H3117 H 0.73821 0.80207 0.29721 0.0
H3118 H 0.69793 0.76647 0.29251 0.0
H3119 H 0.72727 0.81693 0.31781 0.0
Eu3120 Eu 0.76083 0.2749 0.79023 0.0
C3121 C 0.79489 0.24376 0.73536 0.0
N3122 N 0.80082 0.25614 0.74614 0.0
C3123 C 0.82474 0.24739 0.74961 0.0
C3124 C 0.80369 0.23249 0.73149 0.0
C3125 C 0.81556 0.2582 0.75311 0.0
C3126 C 0.81876 0.23443 0.7388 0.0
C3127 C 0.77342 0.22939 0.7172 0.0
C3128 C 0.7799 0.24223 0.72836 0.0
C3129 C 0.78209 0.21807 0.71346 0.0
C3130 C 0.79719 0.21963 0.72056 0.0
Eu3131 Eu 0.78467 0.27389 0.75166 0.0
N3132 N 0.77171 0.25331 0.73236 0.0
C3133 C 0.75848 0.22837 0.70994 0.0
C3134 C 0.75757 0.25284 0.72435 0.0
C3135 C 0.75062 0.24028 0.71336 0.0
H3136 H 0.82037 0.2684 0.76106 0.0
H3137 H 0.7393 0.23994 0.7073 0.0
H3138 H 0.72672 0.28321 0.77822 0.0
H3139 H 0.80764 0.30793 0.83349 0.0
H3140 H 0.75167 0.26224 0.7258 0.0
H3141 H 0.75309 0.21869 0.70134 0.0
H3142 H 0.79455 0.28589 0.815 0.0
H3143 H 0.83644 0.24911 0.75518 0.0
H3144 H 0.77726 0.20813 0.70497 0.0
H3145 H 0.80376 0.21084 0.71749 0.0
H3146 H 0.71194 0.30378 0.78351 0.0
H3147 H 0.82589 0.22604 0.73612 0.0
H3148 H 0.79471 0.32982 0.83949 0.0
N3149 N 0.74623 0.2943 0.79403 0.0
C3150 C 0.7526 0.30652 0.80488 0.0
C3151 C 0.72337 0.30472 0.78955 0.0
C3152 C 0.74442 0.31835 0.80855 0.0
C3153 C 0.73183 0.29318 0.78643 0.0
C3154 C 0.72968 0.31735 0.80069 0.0
N3155 N 0.77508 0.29568 0.80837 0.0
C3156 C 0.7891 0.29562 0.81638 0.0
C3157 C 0.77428 0.31993 0.82341 0.0
C3158 C 0.76744 0.30729 0.81214 0.0
C3159 C 0.78907 0.32031 0.83079 0.0
C3160 C 0.79644 0.30803 0.82736 0.0
H3161 H 0.72307 0.32625 0.80316 0.0
H3162 H 0.74495 0.33985 0.82304 0.0
H3163 H 0.77114 0.34133 0.83593 0.0
O3164 O 0.76144 0.26357 0.81206 0.0
O3165 O 0.76581 0.29658 0.77838 0.0
O3166 O 0.78877 0.29232 0.7723 0.0
O3167 O 0.73979 0.26698 0.80068 0.0
O3168 O 0.78381 0.26624 0.79339 0.0
O3169 O 0.79942 0.27802 0.77583 0.0
O3170 O 0.78314 0.2884 0.73232 0.0
O3171 O 0.77865 0.25149 0.76182 0.0
O3172 O 0.75606 0.25415 0.77171 0.0
O3173 O 0.80527 0.28449 0.74195 0.0
O3174 O 0.76083 0.28081 0.74838 0.0
O3175 O 0.74599 0.26856 0.76625 0.0
C3176 C 0.77906 0.3015 0.77364 0.0
C3177 C 0.73969 0.24491 0.8143 0.0
C3178 C 0.73905 0.22376 0.8306 0.0
C3179 C 0.72648 0.21534 0.82035 0.0
C3180 C 0.72703 0.23642 0.80416 0.0
C3181 C 0.72059 0.22163 0.80711 0.0
C3182 C 0.74567 0.23847 0.82745 0.0
C3183 C 0.79751 0.27045 0.7885 0.0
C3184 C 0.74659 0.26064 0.81183 0.0
C3185 C 0.75116 0.33077 0.81991 0.0
C3186 C 0.76607 0.33161 0.82724 0.0
C3187 C 0.7659 0.24569 0.7673 0.0
C3188 C 0.80136 0.28621 0.71414 0.0
C3189 C 0.7993 0.29135 0.68624 0.0
C3190 C 0.80775 0.2798 0.68256 0.0
C3191 C 0.80978 0.27469 0.71027 0.0
C3192 C 0.79608 0.29438 0.70209 0.0
C3193 C 0.8129 0.2715 0.69453 0.0
C3194 C 0.74731 0.2756 0.7532 0.0
C3195 C 0.79767 0.28979 0.73053 0.0
H3196 H 0.72122 0.20395 0.82263 0.0
H3197 H 0.72214 0.24114 0.79393 0.0
H3198 H 0.71091 0.2151 0.79921 0.0
H3199 H 0.75521 0.24509 0.83552 0.0
H3200 H 0.81062 0.27735 0.67051 0.0
H3201 H 0.81397 0.26815 0.71934 0.0
H3202 H 0.78934 0.30304 0.70509 0.0
H3203 H 0.81944 0.26266 0.69162 0.0
Eu3204 Eu 0.76281 0.75123 0.7564 0.0
C3205 C 0.81762 0.80194 0.79698 0.0
N3206 N 0.8031 0.79671 0.80024 0.0
C3207 C 0.81167 0.79925 0.82829 0.0
C3208 C 0.82991 0.80542 0.80932 0.0
C3209 C 0.79986 0.7962 0.81567 0.0
C3210 C 0.82682 0.80359 0.82507 0.0
C3211 C 0.83472 0.8115 0.77791 0.0
C3212 C 0.81998 0.80502 0.78148 0.0
C3213 C 0.84713 0.81428 0.79 0.0
C3214 C 0.84473 0.81124 0.80566 0.0
Eu3215 Eu 0.78393 0.79147 0.77821 0.0
N3216 N 0.80779 0.80207 0.76998 0.0
C3217 C 0.83649 0.81517 0.76232 0.0
C3218 C 0.80925 0.80664 0.75509 0.0
C3219 C 0.82367 0.81291 0.75093 0.0
H3220 H 0.78811 0.79407 0.81821 0.0
H3221 H 0.82486 0.81608 0.73898 0.0
H3222 H 0.74876 0.76413 0.72309 0.0
H3223 H 0.73255 0.72387 0.80301 0.0
H3224 H 0.79934 0.80528 0.74638 0.0
H3225 H 0.84764 0.8201 0.75908 0.0
H3226 H 0.75473 0.73196 0.78856 0.0
H3227 H 0.80905 0.79859 0.84051 0.0
H3228 H 0.85856 0.81909 0.78744 0.0
H3229 H 0.85434 0.81385 0.81496 0.0
H3230 H 0.72369 0.76696 0.70988 0.0
H3231 H 0.83594 0.80618 0.83489 0.0
H3232 H 0.70677 0.72728 0.79219 0.0
N3233 N 0.73947 0.75484 0.74313 0.0
C3234 C 0.72656 0.7493 0.74976 0.0
C3235 C 0.72435 0.76215 0.72119 0.0
C3236 C 0.71198 0.75068 0.74262 0.0
C3237 C 0.73857 0.76073 0.7288 0.0
C3238 C 0.71101 0.75723 0.72819 0.0
N3239 N 0.74221 0.74156 0.77074 0.0
C3240 C 0.74382 0.73433 0.78418 0.0
C3241 C 0.71482 0.73772 0.77163 0.0
C3242 C 0.72799 0.74278 0.76409 0.0
C3243 C 0.71658 0.7312 0.78599 0.0
C3244 C 0.73113 0.72934 0.79218 0.0
H3245 H 0.70002 0.75845 0.72231 0.0
H3246 H 0.68763 0.74677 0.74491 0.0
H3247 H 0.69011 0.73557 0.77035 0.0
O3248 O 0.75726 0.72626 0.75242 0.0
O3249 O 0.75056 0.77133 0.76318 0.0
O3250 O 0.76178 0.78116 0.78788 0.0
O3251 O 0.76251 0.73922 0.7326 0.0
O3252 O 0.77586 0.74933 0.78048 0.0
O3253 O 0.77806 0.77325 0.795 0.0
O3254 O 0.77035 0.80853 0.77156 0.0
O3255 O 0.79954 0.77829 0.76459 0.0
O3256 O 0.78882 0.75238 0.76135 0.0
O3257 O 0.78838 0.81415 0.79145 0.0
O3258 O 0.77268 0.79014 0.75263 0.0
O3259 O 0.77512 0.76685 0.74027 0.0
C3260 C 0.7492 0.77629 0.77808 0.0
C3261 C 0.77102 0.71568 0.73274 0.0
C3262 C 0.78768 0.69753 0.73905 0.0
C3263 C 0.79167 0.69706 0.72328 0.0
C3264 C 0.77506 0.71496 0.71703 0.0
C3265 C 0.78541 0.70577 0.71239 0.0
C3266 C 0.77745 0.707 0.74371 0.0
C3267 C 0.77816 0.75838 0.79413 0.0
C3268 C 0.76033 0.72571 0.73759 0.0
C3269 C 0.6989 0.74567 0.75016 0.0
C3270 C 0.70032 0.7393 0.76465 0.0
C3271 C 0.80062 0.76374 0.76151 0.0
C3272 C 0.76695 0.82596 0.79314 0.0
C3273 C 0.75129 0.84547 0.79535 0.0
C3274 C 0.75025 0.84345 0.81151 0.0
C3275 C 0.76545 0.82347 0.80918 0.0
C3276 C 0.75961 0.83669 0.78625 0.0
C3277 C 0.75713 0.83225 0.81832 0.0
C3278 C 0.77475 0.78143 0.73989 0.0
C3279 C 0.77697 0.81849 0.78358 0.0
H3280 H 0.79935 0.68971 0.71924 0.0
H3281 H 0.77026 0.72155 0.70836 0.0
H3282 H 0.78849 0.70528 0.70026 0.0
H3283 H 0.77459 0.70767 0.75594 0.0
H3284 H 0.74413 0.85046 0.81877 0.0
H3285 H 0.77098 0.81507 0.8147 0.0
H3286 H 0.76094 0.83871 0.77391 0.0
H3287 H 0.75622 0.83056 0.83076 0.0
Eu3288 Eu 0.54437 0.52956 0.52837 0.0
C3289 C 0.49411 0.47525 0.4978 0.0
N3290 N 0.50245 0.48722 0.49174 0.0
C3291 C 0.50715 0.47039 0.46967 0.0
C3292 C 0.49247 0.46017 0.49025 0.0
C3293 C 0.50858 0.48513 0.47765 0.0
C3294 C 0.49916 0.45784 0.47605 0.0
C3295 C 0.47893 0.46586 0.51847 0.0
C3296 C 0.48736 0.47812 0.51171 0.0
C3297 C 0.4777 0.45076 0.51127 0.0
C3298 C 0.48437 0.44793 0.49715 0.0
Eu3299 Eu 0.50347 0.51173 0.5053 0.0
N3300 N 0.48854 0.49289 0.51828 0.0
C3301 C 0.47166 0.46916 0.53203 0.0
C3302 C 0.48041 0.49619 0.53067 0.0
C3303 C 0.4722 0.48441 0.538 0.0
H3304 H 0.51452 0.49483 0.47255 0.0
H3305 H 0.46605 0.48712 0.54805 0.0
H3306 H 0.53688 0.53734 0.56678 0.0
H3307 H 0.5767 0.5676 0.49169 0.0
H3308 H 0.47981 0.50786 0.53468 0.0
H3309 H 0.46515 0.46006 0.53762 0.0
H3310 H 0.56402 0.54272 0.4994 0.0
H3311 H 0.51217 0.46873 0.45858 0.0
H3312 H 0.47136 0.4412 0.51637 0.0
H3313 H 0.48314 0.43624 0.49163 0.0
H3314 H 0.5359 0.55978 0.58553 0.0
H3315 H 0.49815 0.44642 0.46988 0.0
H3316 H 0.57617 0.5917 0.50864 0.0
N3317 N 0.5438 0.55035 0.54793 0.0
C3318 C 0.54963 0.56455 0.54411 0.0
C3319 C 0.53946 0.56133 0.57379 0.0
C3320 C 0.54996 0.57779 0.55482 0.0
C3321 C 0.53962 0.54857 0.5629 0.0
C3322 C 0.54437 0.57604 0.56963 0.0
N3323 N 0.55603 0.55284 0.52001 0.0
C3324 C 0.56364 0.55324 0.5067 0.0
C3325 C 0.5633 0.58022 0.52604 0.0
C3326 C 0.55623 0.56581 0.52992 0.0
C3327 C 0.57058 0.58084 0.51202 0.0
C3328 C 0.57089 0.56726 0.5024 0.0
H3329 H 0.54444 0.58591 0.5782 0.0
H3330 H 0.55664 0.60255 0.55872 0.0
H3331 H 0.56832 0.60467 0.53352 0.0
O3332 O 0.56539 0.52161 0.52351 0.0
O3333 O 0.53273 0.54454 0.51222 0.0
O3334 O 0.50732 0.53719 0.51486 0.0
O3335 O 0.56355 0.53246 0.54712 0.0
O3336 O 0.5437 0.51668 0.50365 0.0
O3337 O 0.5217 0.52147 0.49027 0.0
O3338 O 0.47901 0.50989 0.49814 0.0
O3339 O 0.52053 0.49543 0.51044 0.0
O3340 O 0.53357 0.50602 0.5346 0.0
O3341 O 0.49531 0.51708 0.48171 0.0
O3342 O 0.50326 0.52403 0.53022 0.0
O3343 O 0.52582 0.52027 0.5435 0.0
C3344 C 0.51876 0.54758 0.51169 0.0
C3345 C 0.57786 0.51255 0.54519 0.0
C3346 C 0.5968 0.49603 0.54451 0.0
C3347 C 0.58945 0.48749 0.55571 0.0
C3348 C 0.57064 0.50412 0.55652 0.0
C3349 C 0.57645 0.49161 0.56174 0.0
C3350 C 0.59086 0.50849 0.53931 0.0
C3351 C 0.53586 0.51924 0.49054 0.0
C3352 C 0.57157 0.52491 0.5383 0.0
C3353 C 0.5564 0.59226 0.55069 0.0
C3354 C 0.56309 0.59347 0.53636 0.0
C3355 C 0.52775 0.49385 0.52441 0.0
C3356 C 0.47403 0.5295 0.48248 0.0
C3357 C 0.4555 0.54522 0.48976 0.0
C3358 C 0.46221 0.55661 0.48088 0.0
C3359 C 0.48049 0.54087 0.47329 0.0
C3360 C 0.46125 0.53164 0.49035 0.0
C3361 C 0.47454 0.55432 0.47248 0.0
C3362 C 0.51164 0.52255 0.54347 0.0
C3363 C 0.48117 0.51602 0.4849 0.0
H3364 H 0.59382 0.47778 0.55987 0.0
H3365 H 0.56047 0.50707 0.56115 0.0
H3366 H 0.57081 0.48503 0.57037 0.0
H3367 H 0.59612 0.51484 0.53025 0.0
H3368 H 0.45787 0.5672 0.4804 0.0
H3369 H 0.49032 0.53955 0.467 0.0
H3370 H 0.45605 0.523 0.49743 0.0
H3371 H 0.47966 0.56308 0.46555 0.0
Eu3372 Eu 0.99823 0.51567 0.02859 0.0
C3373 C 0.05889 0.54696 0.99392 0.0
N3374 N 0.04998 0.53283 0.99044 0.0
C3375 C 0.0522 0.5338 0.96244 0.0
C3376 C 0.06449 0.55531 0.98163 0.0
C3377 C 0.04704 0.52591 0.97506 0.0
C3378 C 0.06075 0.54867 0.96572 0.0
C3379 C 0.07419 0.56632 0.01391 0.0
C3380 C 0.06359 0.55246 0.00986 0.0
C3381 C 0.07904 0.57515 0.00174 0.0
C3382 C 0.07419 0.56966 0.98563 0.0
Eu3383 Eu 0.04118 0.52065 0.01236 0.0
N3384 N 0.05903 0.54346 0.02131 0.0
C3385 C 0.08024 0.57045 0.02996 0.0
C3386 C 0.06591 0.54673 0.03671 0.0
C3387 C 0.07634 0.56044 0.04135 0.0
H3388 H 0.0404 0.5144 0.97253 0.0
H3389 H 0.08139 0.56325 0.05367 0.0
H3390 H 0.00936 0.50897 0.06667 0.0
H3391 H 0.96285 0.47747 0.97962 0.0
H3392 H 0.06309 0.53887 0.04541 0.0
H3393 H 0.08844 0.581 0.03356 0.0
H3394 H 0.98123 0.50055 0.99167 0.0
H3395 H 0.04954 0.52843 0.95021 0.0
H3396 H 0.08704 0.58593 0.00463 0.0
H3397 H 0.07848 0.57633 0.97636 0.0
H3398 H 0.0039 0.48834 0.08381 0.0
H3399 H 0.06483 0.55472 0.95593 0.0
H3400 H 0.95416 0.45702 0.99631 0.0
N3401 N 0.99544 0.49647 0.0461 0.0
C3402 C 0.98514 0.48351 0.04018 0.0
C3403 C 0.99868 0.48678 0.07152 0.0
C3404 C 0.98146 0.47154 0.04979 0.0
C3405 C 1.00196 0.49838 0.06162 0.0
C3406 C 0.98841 0.47331 0.06559 0.0
N3407 N 0.98295 0.49321 0.01485 0.0
C3408 C 0.9776 0.4917 0.99902 0.0
C3409 C 0.96834 0.4684 0.01774 0.0
C3410 C 0.97861 0.48192 0.02423 0.0
C3411 C 0.9624 0.46701 0.00161 0.0
C3412 C 0.96722 0.47859 0.99216 0.0
H3413 H 0.98587 0.46437 0.07334 0.0
H3414 H 0.96808 0.4489 0.0506 0.0
H3415 H 0.9566 0.44617 0.02261 0.0
O3416 O 0.97549 0.52163 0.02324 0.0
O3417 O 0.00859 0.4943 0.02125 0.0
O3418 O 0.02284 0.50067 0.00073 0.0
O3419 O 0.98464 0.52099 0.04769 0.0
O3420 O 0.99912 0.5241 0.0044 0.0
O3421 O 0.02201 0.52216 0.9932 0.0
O3422 O 0.05754 0.50945 0.02581 0.0
O3423 O 0.03607 0.543 0.02482 0.0
O3424 O 0.00962 0.54053 0.02637 0.0
O3425 O 0.05607 0.50747 0.00011 0.0
O3426 O 0.03259 0.51188 0.03454 0.0
O3427 O 0.01781 0.52582 0.04724 0.0
C3428 C 0.01548 0.49028 0.00873 0.0
C3429 C 0.96752 0.53822 0.04349 0.0
C3430 C 0.9489 0.55512 0.03981 0.0
C3431 C 0.95416 0.56271 0.05516 0.0
C3432 C 0.97289 0.54642 0.05862 0.0
C3433 C 0.96614 0.55848 0.06442 0.0
C3434 C 0.95543 0.54264 0.03408 0.0
C3435 C 0.00797 0.52522 0.99275 0.0
C3436 C 0.97356 0.5243 0.03828 0.0
C3437 C 0.97105 0.45817 0.04336 0.0
C3438 C 0.96449 0.45662 0.02741 0.0
C3439 C 0.02358 0.54884 0.02679 0.0
C3440 C 0.08039 0.50803 0.01393 0.0
C3441 C 0.10517 0.49981 0.01681 0.0
C3442 C 0.11246 0.51474 0.01497 0.0
C3443 C 0.08798 0.52281 0.01197 0.0
C3444 C 0.08904 0.49645 0.01621 0.0
C3445 C 0.10389 0.52615 0.01255 0.0
C3446 C 0.03085 0.52118 0.04679 0.0
C3447 C 0.0635 0.50469 0.01318 0.0
H3448 H 0.9487 0.57175 0.06012 0.0
H3449 H 0.98205 0.54329 0.06625 0.0
H3450 H 0.97005 0.56438 0.07627 0.0
H3451 H 0.95105 0.53638 0.02247 0.0
H3452 H 0.12483 0.51754 0.01526 0.0
H3453 H 0.08162 0.53174 0.00978 0.0
H3454 H 0.0833 0.48495 0.01759 0.0
H3455 H 0.1096 0.5376 0.01102 0.0
H3456 H 0.02033 0.19146 0.98714 0.0
H3457 H 0.02264 0.16655 0.99598 0.0
H3458 H 0.99813 0.14391 0.95132 0.0
H3459 H 0.99604 0.16872 0.94221 0.0
H3460 H 0.98748 0.12953 0.97515 0.0
H3461 H 0.03825 0.14704 0.96122 0.0
H3462 H 0.06287 0.16499 0.9624 0.0
H3463 H 0.07165 0.16163 0.01274 0.0
H3464 H 0.04697 0.14383 0.01191 0.0
H3465 H 0.00372 0.05405 0.98191 0.0
H3466 H 1.00143 0.07937 0.97392 0.0
H3467 H 0.02517 0.1007 0.01944 0.0
H3468 H 0.02666 0.07541 0.02781 0.0
H3469 H 0.03673 0.11598 0.99572 0.0
H3470 H 0.98702 0.10225 0.01168 0.0
H3471 H 0.96084 0.08878 0.01387 0.0
H3472 H 0.94972 0.08677 0.96297 0.0
H3473 H 0.97584 0.10053 0.96055 0.0
C3474 C 0.01559 0.18127 0.979 0.0
C3475 C 0.00797 0.18245 0.96382 0.0
C3476 C 0.01692 0.16688 0.98416 0.0
C3477 C 0.01073 0.15309 0.97434 0.0
C3478 C 1.00304 0.15422 0.95926 0.0
C3479 C 1.00175 0.16858 0.95407 0.0
C3480 C 0.01183 0.13754 0.97984 0.0
C3481 C 0.99834 0.12653 0.97932 0.0
C3482 C 0.02584 0.13357 0.98602 0.0
C3483 C 0.04069 0.14423 0.98653 0.0
C3484 C 0.04537 0.15023 0.97257 0.0
C3485 C 0.05935 0.16036 0.97317 0.0
C3486 C 0.0688 0.16448 0.98765 0.0
C3487 C 0.06431 0.15845 0.00154 0.0
C3488 C 0.05033 0.14833 0.00101 0.0
C3489 C 0.0083 0.06407 0.99035 0.0
C3490 C 0.01565 0.06245 0.0055 0.0
C3491 C 0.007 0.07866 0.98572 0.0
C3492 C 0.01317 0.0922 0.99597 0.0
C3493 C 0.02039 0.09061 0.01114 0.0
C3494 C 0.02138 0.07601 0.0159 0.0
C3495 C 0.01237 0.10792 0.99077 0.0
C3496 C 0.0259 0.11895 0.99138 0.0
C3497 C 0.99839 0.11204 0.98488 0.0
C3498 C 0.9834 0.10223 0.98591 0.0
C3499 C 0.97907 0.09869 0.00092 0.0
C3500 C 0.9642 0.09113 0.00222 0.0
C3501 C 0.9536 0.08693 0.98856 0.0
C3502 C 0.95793 0.09008 0.97354 0.0
C3503 C 0.97275 0.0978 0.97221 0.0
H3504 H 0.94202 0.08128 0.98959 0.0
H3505 H 0.07961 0.17232 0.98809 0.0
H3506 H 0.11191 0.76877 0.1793 0.0
H3507 H 0.13607 0.76735 0.19505 0.0
H3508 H 0.16114 0.79581 0.16412 0.0
H3509 H 0.13694 0.79746 0.14844 0.0
H3510 H 0.17365 0.76925 0.17004 0.0
H3511 H 0.15812 0.81119 0.19974 0.0
H3512 H 0.14067 0.82462 0.21423 0.0
H3513 H 0.13814 0.79165 0.24835 0.0
H3514 H 0.1554 0.77788 0.23391 0.0
H3515 H 0.24617 0.78298 0.21832 0.0
H3516 H 0.22258 0.78612 0.20271 0.0
H3517 H 0.19567 0.76114 0.23493 0.0
H3518 H 0.21915 0.75763 0.25039 0.0
H3519 H 0.18439 0.78679 0.22822 0.0
H3520 H 0.19754 0.74373 0.19813 0.0
H3521 H 0.21422 0.72915 0.1838 0.0
H3522 H 0.22082 0.76327 0.1511 0.0
H3523 H 0.20407 0.77803 0.16522 0.0
C3524 C 0.12256 0.77476 0.17586 0.0
C3525 C 0.12243 0.78324 0.16258 0.0
C3526 C 0.13639 0.77399 0.18493 0.0
C3527 C 0.15051 0.7815 0.18085 0.0
C3528 C 0.15044 0.78992 0.16756 0.0
C3529 C 0.13657 0.79093 0.15864 0.0
C3530 C 0.16529 0.78032 0.19033 0.0
C3531 C 0.17609 0.77334 0.1827 0.0
C3532 C 0.1684 0.78522 0.20698 0.0
C3533 C 0.15792 0.7934 0.21562 0.0
C3534 C 0.15372 0.8067 0.21023 0.0
C3535 C 0.14389 0.8144 0.21846 0.0
C3536 C 0.13826 0.80897 0.23217 0.0
C3537 C 0.14248 0.79583 0.23771 0.0
C3538 C 0.1523 0.78808 0.22951 0.0
C3539 C 0.23526 0.77804 0.22207 0.0
C3540 C 0.23471 0.77004 0.23571 0.0
C3541 C 0.22172 0.77986 0.21309 0.0
C3542 C 0.20723 0.77383 0.21754 0.0
C3543 C 0.20664 0.76597 0.23122 0.0
C3544 C 0.22016 0.76398 0.24009 0.0
C3545 C 0.19274 0.7757 0.20794 0.0
C3546 C 0.18198 0.78279 0.21554 0.0
C3547 C 0.18959 0.77079 0.19131 0.0
C3548 C 0.19971 0.76205 0.18282 0.0
C3549 C 0.20264 0.74817 0.18794 0.0
C3550 C 0.21206 0.73985 0.17984 0.0
C3551 C 0.21866 0.74533 0.1666 0.0
C3552 C 0.21573 0.75907 0.16138 0.0
C3553 C 0.20623 0.76738 0.16939 0.0
H3554 H 0.226 0.73889 0.16038 0.0
H3555 H 0.13067 0.81495 0.23854 0.0
H3556 H 0.49915 0.85019 0.4455 0.0
H3557 H 0.50137 0.87736 0.45483 0.0
H3558 H 0.52172 0.86988 0.50109 0.0
H3559 H 0.51927 0.84251 0.49191 0.0
H3560 H 0.50112 0.88867 0.50461 0.0
H3561 H 0.54375 0.88771 0.47441 0.0
H3562 H 0.55691 0.88126 0.45094 0.0
H3563 H 0.52986 0.90637 0.4224 0.0
H3564 H 0.5164 0.91282 0.44566 0.0
H3565 H 0.52069 0.96945 0.53114 0.0
H3566 H 0.51967 0.94196 0.52455 0.0
H3567 H 0.51039 0.94693 0.47432 0.0
H3568 H 0.51301 0.9746 0.48095 0.0
H3569 H 0.52705 0.92869 0.47423 0.0
H3570 H 0.48084 0.92495 0.5033 0.0
H3571 H 0.46646 0.92911 0.52648 0.0
H3572 H 0.50024 0.91332 0.55702 0.0
H3573 H 0.5144 0.90829 0.53386 0.0
C3574 C 0.50399 0.85421 0.45773 0.0
C3575 C 0.50899 0.84392 0.46789 0.0
C3576 C 0.50541 0.8699 0.46303 0.0
C3577 C 0.51188 0.87592 0.47869 0.0
C3578 C 0.51672 0.86568 0.48895 0.0
C3579 C 0.51542 0.84997 0.48361 0.0
C3580 C 0.51348 0.89282 0.48427 0.0
C3581 C 0.50692 0.89742 0.49802 0.0
C3582 C 0.52087 0.90443 0.47573 0.0
C3583 C 0.52897 0.90062 0.46174 0.0
C3584 C 0.54053 0.89176 0.4631 0.0
C3585 C 0.54806 0.88812 0.44984 0.0
C3586 C 0.5442 0.89337 0.43518 0.0
C3587 C 0.53283 0.9023 0.43376 0.0
C3588 C 0.52526 0.90596 0.44698 0.0
C3589 C 0.51836 0.96462 0.5187 0.0
C3590 C 0.51701 0.97429 0.50658 0.0
C3591 C 0.51754 0.94872 0.51487 0.0
C3592 C 0.51458 0.94182 0.49882 0.0
C3593 C 0.5128 0.95159 0.4868 0.0
C3594 C 0.51422 0.96754 0.49059 0.0
C3595 C 0.51407 0.92476 0.4943 0.0
C3596 C 0.52104 0.92005 0.48079 0.0
C3597 C 0.50698 0.91305 0.50302 0.0
C3598 C 0.49875 0.91646 0.51695 0.0
C3599 C 0.48522 0.92246 0.51498 0.0
C3600 C 0.4771 0.92492 0.5281 0.0
C3601 C 0.48258 0.92177 0.54326 0.0
C3602 C 0.49605 0.91585 0.54529 0.0
C3603 C 0.50404 0.91303 0.53216 0.0
H3604 H 0.47631 0.9238 0.55339 0.0
H3605 H 0.55004 0.89054 0.42493 0.0
H3606 H 0.4577 0.28055 0.63709 0.0
H3607 H 0.43484 0.27817 0.65134 0.0
H3608 H 0.46133 0.26871 0.69345 0.0
H3609 H 0.48411 0.27083 0.67919 0.0
H3610 H 0.43573 0.24969 0.68942 0.0
H3611 H 0.44861 0.30433 0.68922 0.0
H3612 H 0.45434 0.32859 0.67719 0.0
H3613 H 0.41002 0.31834 0.64976 0.0
H3614 H 0.4041 0.29392 0.66148 0.0
H3615 H 0.3862 0.25878 0.74772 0.0
H3616 H 0.40732 0.26426 0.73149 0.0
H3617 H 0.37523 0.26619 0.69056 0.0
H3618 H 0.35383 0.26063 0.7069 0.0
H3619 H 0.40215 0.28856 0.69236 0.0
H3620 H 0.38927 0.23416 0.69374 0.0
H3621 H 0.38369 0.21051 0.70683 0.0
H3622 H 0.42864 0.22101 0.73294 0.0
H3623 H 0.43441 0.24486 0.72018 0.0
C3624 C 0.45871 0.27812 0.64944 0.0
C3625 C 0.47283 0.27587 0.65694 0.0
C3626 C 0.44559 0.27679 0.65763 0.0
C3627 C 0.44625 0.27341 0.67363 0.0
C3628 C 0.46037 0.27126 0.68113 0.0
C3629 C 0.47345 0.27245 0.67292 0.0
C3630 C 0.43224 0.27158 0.68243 0.0
C3631 C 0.42855 0.25833 0.69018 0.0
C3632 C 0.42245 0.28256 0.68316 0.0
C3633 C 0.42599 0.29722 0.6761 0.0
C3634 C 0.44014 0.30719 0.68053 0.0
C3635 C 0.44341 0.32098 0.67379 0.0
C3636 C 0.43257 0.32498 0.66269 0.0
C3637 C 0.41841 0.31521 0.65834 0.0
C3638 C 0.41509 0.3014 0.66504 0.0
C3639 C 0.38356 0.26039 0.73527 0.0
C3640 C 0.36823 0.25892 0.72856 0.0
C3641 C 0.3957 0.26357 0.72599 0.0
C3642 C 0.39293 0.26532 0.70967 0.0
C3643 C 0.3777 0.26478 0.70309 0.0
C3644 C 0.36546 0.26162 0.71245 0.0
C3645 C 0.40593 0.26685 0.6995 0.0
C3646 C 0.40936 0.27995 0.6915 0.0
C3647 C 0.41558 0.2558 0.69858 0.0
C3648 C 0.41223 0.24135 0.70608 0.0
C3649 C 0.39793 0.23147 0.70234 0.0
C3650 C 0.39474 0.21803 0.70969 0.0
C3651 C 0.40579 0.21427 0.72073 0.0
C3652 C 0.42008 0.22394 0.72439 0.0
C3653 C 0.42333 0.23741 0.71709 0.0
H3654 H 0.40329 0.20386 0.72641 0.0
H3655 H 0.43512 0.33566 0.65748 0.0
H3656 H 0.01174 0.80878 0.60254 0.0
H3657 H 0.01344 0.83168 0.58854 0.0
H3658 H 0.02062 0.86012 0.63379 0.0
H3659 H 0.01918 0.83727 0.64794 0.0
H3660 H 1.00126 0.87065 0.61286 0.0
H3661 H 0.05052 0.85629 0.61193 0.0
H3662 H 0.0687 0.83895 0.60683 0.0
H3663 H 0.05247 0.83263 0.55669 0.0
H3664 H 0.03403 0.84979 0.56152 0.0
H3665 H 0.03474 0.94157 0.58509 0.0
H3666 H 0.02701 0.91849 0.59826 0.0
H3667 H 0.02115 0.89081 0.55258 0.0
H3668 H 0.02906 0.91394 0.53949 0.0
H3669 H 0.0389 0.87966 0.57343 0.0
H3670 H 0.99031 0.89534 0.57445 0.0
H3671 H 0.9726 0.91309 0.57991 0.0
H3672 H 0.98797 0.91746 0.63018 0.0
H3673 H 0.00594 0.8999 0.62499 0.0
C3674 C 0.01384 0.81988 0.6096 0.0
C3675 C 0.01544 0.82102 0.62648 0.0
C3676 C 0.01475 0.83303 0.60152 0.0
C3677 C 0.01734 0.84775 0.61004 0.0
C3678 C 0.01859 0.84895 0.62687 0.0
C3679 C 0.01771 0.83579 0.63497 0.0
C3680 C 0.01904 0.86185 0.60142 0.0
C3681 C 0.00961 0.87269 0.60436 0.0
C3682 C 0.02971 0.8645 0.59006 0.0
C3683 C 0.04078 0.85419 0.58711 0.0
C3684 C 0.05074 0.8511 0.59983 0.0
C3685 C 0.06111 0.84133 0.59699 0.0
C3686 C 0.06171 0.83466 0.58146 0.0
C3687 C 0.05197 0.83779 0.56872 0.0
C3688 C 0.04157 0.84754 0.5715 0.0
C3689 C 0.03114 0.93062 0.5778 0.0
C3690 C 0.03209 0.9296 0.5612 0.0
C3691 C 0.02682 0.91738 0.58535 0.0
C3692 C 0.02342 0.90277 0.57647 0.0
C3693 C 0.02368 0.90187 0.55975 0.0
C3694 C 0.02797 0.91512 0.55221 0.0
C3695 C 0.02104 0.88846 0.58474 0.0
C3696 C 0.03044 0.87759 0.58181 0.0
C3697 C 0.01039 0.88586 0.59613 0.0
C3698 C 0.99958 0.89641 0.5993 0.0
C3699 C 0.99001 0.90018 0.58665 0.0
C3700 C 0.9799 0.91019 0.5897 0.0
C3701 C 0.97919 0.91643 0.60538 0.0
C3702 C 0.98855 0.91263 0.61804 0.0
C3703 C 0.99868 0.90264 0.61505 0.0
H3704 H 0.97135 0.92418 0.60771 0.0
H3705 H 0.06974 0.82709 0.57928 0.0
H3706 H 0.45349 0.79212 0.79511 0.0
H3707 H 0.42633 0.79055 0.78599 0.0
H3708 H 0.41415 0.7745 0.83051 0.0
H3709 H 0.44121 0.77622 0.83981 0.0
H3710 H 0.39579 0.75761 0.80602 0.0
H3711 H 0.41313 0.81269 0.82015 0.0
H3712 H 0.42958 0.83752 0.81777 0.0
H3713 H 0.41417 0.83332 0.76752 0.0
H3714 H 0.39777 0.80838 0.76957 0.0
H3715 H 0.31741 0.76475 0.80258 0.0
H3716 H 0.34499 0.76647 0.80911 0.0
H3717 H 0.35316 0.78617 0.76524 0.0
H3718 H 0.32547 0.78396 0.75841 0.0
H3719 H 0.37396 0.80119 0.7874 0.0
H3720 H 0.35775 0.74912 0.77036 0.0
H3721 H 0.3454 0.72185 0.76687 0.0
H3722 H 0.36065 0.71781 0.81579 0.0
H3723 H 0.37282 0.74515 0.81972 0.0
C3724 C 0.44512 0.78842 0.80312 0.0
C3725 C 0.44989 0.78428 0.8183 0.0
C3726 C 0.42944 0.78752 0.79783 0.0
C3727 C 0.41791 0.78255 0.80755 0.0
C3728 C 0.42262 0.77835 0.82265 0.0
C3729 C 0.43827 0.77926 0.82795 0.0
C3730 C 0.40099 0.7813 0.802 0.0
C3731 C 0.39099 0.76726 0.80229 0.0
C3732 C 0.39464 0.79353 0.79611 0.0
C3733 C 0.40432 0.80862 0.79499 0.0
C3734 C 0.41331 0.81703 0.80858 0.0
C3735 C 0.42262 0.83113 0.8073 0.0
C3736 C 0.42295 0.83698 0.7925 0.0
C3737 C 0.41392 0.82877 0.77897 0.0
C3738 C 0.4046 0.81467 0.78019 0.0
C3739 C 0.325 0.76936 0.7942 0.0
C3740 C 0.31897 0.77436 0.77997 0.0
C3741 C 0.34091 0.77032 0.79797 0.0
C3742 C 0.35146 0.77639 0.7877 0.0
C3743 C 0.34548 0.78151 0.77353 0.0
C3744 C 0.32952 0.78036 0.76965 0.0
C3745 C 0.36861 0.77756 0.79192 0.0
C3746 C 0.37866 0.79155 0.79132 0.0
C3747 C 0.37512 0.7651 0.79699 0.0
C3748 C 0.36614 0.74925 0.79536 0.0
C3749 C 0.35819 0.74253 0.78049 0.0
C3750 C 0.35132 0.72702 0.7784 0.0
C3751 C 0.35244 0.71809 0.79104 0.0
C3752 C 0.35994 0.72474 0.80597 0.0
C3753 C 0.36678 0.74025 0.80816 0.0
H3754 H 0.3475 0.70599 0.78927 0.0
H3755 H 0.43018 0.84788 0.79153 0.0
H3756 H 0.51484 0.18376 0.10142 0.0
H3757 H 0.51559 0.15972 0.08534 0.0
H3758 H 0.50589 0.13488 0.12578 0.0
H3759 H 0.50505 0.1589 0.14196 0.0
H3760 H 0.52704 0.1237 0.11164 0.0
H3761 H 0.47836 0.13422 0.09316 0.0
H3762 H 0.45963 0.14913 0.08256 0.0
H3763 H 0.482 0.15286 0.03978 0.0
H3764 H 0.50102 0.13814 0.05022 0.0
H3765 H 0.50766 0.04978 0.06451 0.0
H3766 H 0.50554 0.07314 0.08124 0.0
H3767 H 0.52441 0.10063 0.04593 0.0
H3768 H 0.52717 0.07748 0.02942 0.0
H3769 H 0.49771 0.10963 0.05782 0.0
H3770 H 0.54668 0.09865 0.07772 0.0
H3771 H 0.56385 0.08232 0.08866 0.0
H3772 H 0.53866 0.07793 0.1295 0.0
H3773 H 0.52118 0.09405 0.11866 0.0
C3774 C 0.51266 0.1732 0.10691 0.0
C3775 C 0.5098 0.17344 0.12308 0.0
C3776 C 0.51312 0.15937 0.09764 0.0
C3777 C 0.51061 0.1453 0.10418 0.0
C3778 C 0.50789 0.1455 0.12036 0.0
C3779 C 0.50746 0.15933 0.12965 0.0
C3780 C 0.511 0.13047 0.09421 0.0
C3781 C 0.52043 0.12058 0.09998 0.0
C3782 C 0.50255 0.12626 0.07885 0.0
C3783 C 0.49122 0.13522 0.07256 0.0
C3784 C 0.47938 0.13834 0.08155 0.0
C3785 C 0.46869 0.14674 0.07556 0.0
C3786 C 0.46965 0.15198 0.06052 0.0
C3787 C 0.48129 0.14882 0.05144 0.0
C3788 C 0.49202 0.14044 0.05738 0.0
C3789 C 0.51144 0.06077 0.06027 0.0
C3790 C 0.51759 0.06157 0.04548 0.0
C3791 C 0.51018 0.07415 0.06988 0.0
C3792 C 0.51483 0.08871 0.0649 0.0
C3793 C 0.52068 0.08957 0.05005 0.0
C3794 C 0.5222 0.07622 0.04056 0.0
C3795 C 0.51381 0.10306 0.07521 0.0
C3796 C 0.50427 0.11281 0.0695 0.0
C3797 C 0.52196 0.10701 0.0907 0.0
C3798 C 0.53253 0.09743 0.0973 0.0
C3799 C 0.54473 0.0941 0.08896 0.0
C3800 C 0.55453 0.08491 0.09516 0.0
C3801 C 0.55234 0.07908 0.10975 0.0
C3802 C 0.54034 0.08245 0.11819 0.0
C3803 C 0.53049 0.09162 0.11203 0.0
H3804 H 0.55994 0.07196 0.11453 0.0
H3805 H 0.46136 0.15847 0.0559 0.0
H3806 H 0.11641 0.30802 0.31039 0.0
H3807 H 0.14159 0.30642 0.30183 0.0
H3808 H 0.14025 0.26324 0.32125 0.0
H3809 H 0.11547 0.26512 0.33056 0.0
H3810 H 0.16786 0.2787 0.32812 0.0
H3811 H 0.13397 0.26776 0.27866 0.0
H3812 H 0.11475 0.27296 0.25791 0.0
H3813 H 0.14492 0.31422 0.2504 0.0
H3814 H 0.16425 0.30936 0.27124 0.0
H3815 H 0.23081 0.25586 0.29287 0.0
H3816 H 0.20532 0.25782 0.30051 0.0
H3817 H 0.20665 0.29922 0.27748 0.0
H3818 H 0.23165 0.29635 0.26867 0.0
H3819 H 0.17916 0.28541 0.27251 0.0
H3820 H 0.213 0.29708 0.3213 0.0
H3821 H 0.23286 0.2925 0.34173 0.0
H3822 H 0.20343 0.2514 0.35093 0.0
H3823 H 0.18349 0.25562 0.33038 0.0
C3824 C 0.12144 0.2982 0.31302 0.0
C3825 C 0.11351 0.28668 0.32121 0.0
C3826 C 0.13591 0.29719 0.30787 0.0
C3827 C 0.14301 0.28454 0.31054 0.0
C3828 C 0.13521 0.27312 0.31885 0.0
C3829 C 0.12079 0.27415 0.32406 0.0
C3830 C 0.15854 0.28324 0.30497 0.0
C3831 C 0.17019 0.27999 0.31588 0.0
C3832 C 0.16209 0.28536 0.28914 0.0
C3833 C 0.15048 0.28827 0.27662 0.0
C3834 C 0.13645 0.278 0.27266 0.0
C3835 C 0.12555 0.28087 0.26087 0.0
C3836 C 0.12859 0.29393 0.25287 0.0
C3837 C 0.14257 0.30412 0.25662 0.0
C3838 C 0.1535 0.3013 0.26841 0.0
C3839 C 0.22553 0.26523 0.28923 0.0
C3840 C 0.23315 0.27579 0.27994 0.0
C3841 C 0.21097 0.26654 0.29385 0.0
C3842 C 0.20386 0.27891 0.29001 0.0
C3843 C 0.21161 0.28952 0.28071 0.0
C3844 C 0.226 0.28793 0.27569 0.0
C3845 C 0.18848 0.28079 0.29565 0.0
C3846 C 0.17686 0.28416 0.28477 0.0
C3847 C 0.18501 0.27897 0.31157 0.0
C3848 C 0.19681 0.27661 0.32422 0.0
C3849 C 0.2108 0.28704 0.32765 0.0
C3850 C 0.22206 0.28451 0.33924 0.0
C3851 C 0.21942 0.27165 0.3476 0.0
C3852 C 0.20547 0.26134 0.34443 0.0
C3853 C 0.19417 0.26381 0.33283 0.0
H3854 H 0.22816 0.26969 0.35655 0.0
H3855 H 0.12014 0.29614 0.24375 0.0
H3856 H 0.93762 0.02734 0.16855 0.0
H3857 H 0.94851 0.02844 0.14303 0.0
H3858 H 0.985 0.0066 0.16131 0.0
H3859 H 0.97431 0.00569 0.18701 0.0
H3860 H 0.99552 0.03145 0.14546 0.0
H3861 H 0.95577 0.9864 0.13586 0.0
H3862 H 0.92937 0.97202 0.13515 0.0
H3863 H 0.91322 1.00095 0.10197 0.0
H3864 H 0.93956 0.01559 0.10275 0.0
H3865 H 0.02428 0.01283 0.0724 0.0
H3866 H 0.01341 0.0125 0.09779 0.0
H3867 H 0.97459 0.02975 0.07714 0.0
H3868 H 0.98538 0.0299 0.0514 0.0
H3869 H 0.96516 0.00737 0.0943 0.0
H3870 H 1.00263 0.05413 0.10608 0.0
H3871 H 0.02799 0.07095 0.108 0.0
H3872 H 0.04767 0.04032 0.13654 0.0
H3873 H 0.02229 0.02353 0.13514 0.0
C3874 C 0.94803 0.02287 0.1672 0.0
C3875 C 0.95509 0.01642 0.17985 0.0
C3876 C 0.95417 0.02339 0.15254 0.0
C3877 C 0.96749 0.01746 0.15018 0.0
C3878 C 0.97468 0.01118 0.16283 0.0
C3879 C 0.9685 0.01058 0.17748 0.0
C3880 C 0.97399 0.01795 0.13457 0.0
C3881 C 0.98895 0.02599 0.13431 0.0
C3882 C 0.96529 0.0112 0.11995 0.0
C3883 C 0.94956 1.0022 0.11945 0.0
C3884 C 0.94657 0.98976 0.12851 0.0
C3885 C 0.93162 0.98154 0.12809 0.0
C3886 C 0.91961 0.98559 0.11856 0.0
C3887 C 0.92252 0.99783 0.10938 0.0
C3888 C 0.93743 0.00607 0.10979 0.0
C3889 C 0.0135 0.01674 0.07324 0.0
C3890 C 0.0058 0.02159 0.05986 0.0
C3891 C 0.00731 0.01659 0.08785 0.0
C3892 C 0.99331 0.02139 0.08956 0.0
C3893 C 0.98547 0.02608 0.07618 0.0
C3894 C 0.99165 0.02618 0.06147 0.0
C3895 C 0.98669 0.02095 0.10516 0.0
C3896 C 0.97173 0.01284 0.10545 0.0
C3897 C 0.99532 0.02774 0.11982 0.0
C3898 C 0.01064 0.03753 0.12036 0.0
C3899 C 0.01239 0.05095 0.11268 0.0
C3900 C 0.02675 0.06051 0.11375 0.0
C3901 C 0.03947 0.05663 0.12226 0.0
C3902 C 0.03782 0.04328 0.1299 0.0
C3903 C 0.02344 0.0338 0.12908 0.0
H3904 H 0.05059 0.06401 0.12299 0.0
H3905 H 0.90805 0.97922 0.11825 0.0
H3906 H 0.29135 0.66852 0.45365 0.0
H3907 H 0.28954 0.68407 0.43127 0.0
H3908 H 0.24447 0.6903 0.44195 0.0
H3909 H 0.24623 0.67498 0.46431 0.0
H3910 H 0.24528 0.6805 0.41036 0.0
H3911 H 0.27473 0.71896 0.45165 0.0
H3912 H 0.29696 0.72923 0.47171 0.0
H3913 H 0.32729 0.72794 0.43511 0.0
H3914 H 0.30523 0.71747 0.41486 0.0
H3915 H 0.24507 0.75603 0.37557 0.0
H3916 H 0.25384 0.74221 0.39731 0.0
H3917 H 0.25835 0.70477 0.36289 0.0
H3918 H 0.24882 0.71802 0.34122 0.0
H3919 H 0.27975 0.72963 0.4054 0.0
H3920 H 0.24477 0.67221 0.37698 0.0
H3921 H 0.22265 0.66203 0.35669 0.0
H3922 H 0.20288 0.70169 0.36857 0.0
H3923 H 0.22483 0.71202 0.389 0.0
C3924 C 0.28115 0.67338 0.45131 0.0
C3925 C 0.26886 0.67044 0.46059 0.0
C3926 C 0.28013 0.68221 0.43855 0.0
C3927 C 0.26686 0.68826 0.435 0.0
C3928 C 0.25475 0.6856 0.44446 0.0
C3929 C 0.25575 0.67681 0.45716 0.0
C3930 C 0.26516 0.69692 0.42109 0.0
C3931 C 0.25287 0.6912 0.40925 0.0
C3932 C 0.27514 0.7108 0.41963 0.0
C3933 C 0.28835 0.7173 0.43177 0.0
C3934 C 0.28615 0.72077 0.4479 0.0
C3935 C 0.29871 0.72664 0.4593 0.0
C3936 C 0.31353 0.7292 0.4547 0.0
C3937 C 0.3158 0.72594 0.43867 0.0
C3938 C 0.30327 0.72005 0.42722 0.0
C3939 C 0.24786 0.74483 0.37264 0.0
C3940 C 0.24605 0.73806 0.35667 0.0
C3941 C 0.2531 0.73707 0.38504 0.0
C3942 C 0.25662 0.72246 0.38167 0.0
C3943 C 0.25559 0.71601 0.36571 0.0
C3944 C 0.2502 0.72366 0.35334 0.0
C3945 C 0.25973 0.71329 0.39487 0.0
C3946 C 0.27229 0.71885 0.40648 0.0
C3947 C 0.24998 0.69924 0.39621 0.0
C3948 C 0.23646 0.6929 0.38441 0.0
C3949 C 0.23564 0.67869 0.37531 0.0
C3950 C 0.22316 0.67292 0.36378 0.0
C3951 C 0.21138 0.68122 0.36133 0.0
C3952 C 0.21202 0.69528 0.37046 0.0
C3953 C 0.22448 0.70111 0.38201 0.0
H3954 H 0.20174 0.67675 0.35236 0.0
H3955 H 0.32325 0.73374 0.46355 0.0
H3956 H 0.62531 0.04532 0.67355 0.0
H3957 H 0.60799 0.04342 0.64889 0.0
H3958 H 0.58868 0.99673 0.6552 0.0
H3959 H 0.60604 0.99853 0.67982 0.0
H3960 H 0.59561 1.0003 0.62447 0.0
H3961 H 0.56959 0.02545 0.6645 0.0
H3962 H 0.56852 0.04582 0.68606 0.0
H3963 H 0.57845 0.08 0.65397 0.0
H3964 H 0.57979 0.05987 0.63228 0.0
H3965 H 0.53847 0.99398 0.55935 0.0
H3966 H 0.55099 0.99313 0.5863 0.0
H3967 H 0.56433 0.04258 0.59169 0.0
H3968 H 0.55006 0.04338 0.56578 0.0
H3969 H 0.55889 0.03575 0.61794 0.0
H3970 H 0.58867 0.01406 0.57952 0.0
H3971 H 0.59257 0.9958 0.55709 0.0
H3972 H 0.5795 0.95819 0.58434 0.0
H3973 H 0.57536 0.97623 0.60685 0.0
C3974 C 0.61728 0.03471 0.66972 0.0
C3975 C 0.61692 0.02208 0.67854 0.0
C3976 C 0.60744 0.03363 0.65568 0.0
C3977 C 0.59699 0.01999 0.65042 0.0
C3978 C 0.59669 0.00734 0.65914 0.0
C3979 C 0.60659 0.00837 0.67313 0.0
C3980 C 0.58644 0.01889 0.63571 0.0
C3981 C 0.58742 0.0079 0.62303 0.0
C3982 C 0.57612 0.02911 0.63385 0.0
C3983 C 0.57485 0.04115 0.6468 0.0
C3984 C 0.57159 0.03731 0.66206 0.0
C3985 C 0.57094 0.04882 0.67431 0.0
C3986 C 0.57343 0.06419 0.67139 0.0
C3987 C 0.57652 0.06809 0.65621 0.0
C3988 C 0.5772 0.05664 0.64394 0.0
C3989 C 0.54403 0.00458 0.56648 0.0
C3990 C 0.54374 0.01871 0.56063 0.0
C3991 C 0.55126 0.00413 0.58175 0.0
C3992 C 0.55911 0.01775 0.59084 0.0
C3993 C 0.55843 0.03189 0.58496 0.0
C3994 C 0.55045 0.03237 0.57013 0.0
C3995 C 0.56832 0.01745 0.6063 0.0
C3996 C 0.56703 0.02809 0.61924 0.0
C3997 C 0.57877 0.00728 0.6082 0.0
C3998 C 0.58159 0.99647 0.5948 0.0
C3999 C 0.5866 1.00189 0.5807 0.0
C4000 C 0.58884 0.99158 0.56798 0.0
C4001 C 0.58625 0.97584 0.56928 0.0
C4002 C 0.58148 0.97038 0.58334 0.0
C4003 C 0.5792 0.98064 0.59609 0.0
H4004 H 0.58797 0.96788 0.55941 0.0
H4005 H 0.57296 0.07308 0.6809 0.0
H4006 H 0.29858 0.3474 0.93861 0.0
H4007 H 0.29795 0.336 0.91119 0.0
H4008 H 0.25522 0.30609 0.91537 0.0
H4009 H 0.25626 0.31678 0.94332 0.0
H4010 H 0.27252 0.29068 0.89919 0.0
H4011 H 0.25692 0.33898 0.89537 0.0
H4012 H 0.2588 0.36695 0.90092 0.0
H4013 H 0.3012 0.37449 0.87994 0.0
H4014 H 0.29969 0.34656 0.87446 0.0
H4015 H 0.25542 0.27058 0.81439 0.0
H4016 H 0.25486 0.27991 0.84259 0.0
H4017 H 0.29821 0.31029 0.84215 0.0
H4018 H 0.29822 0.30154 0.81373 0.0
H4019 H 0.2791 0.325 0.85632 0.0
H4020 H 0.29443 0.276 0.86066 0.0
H4021 H 0.29146 0.24796 0.85446 0.0
H4022 H 0.24819 0.24171 0.87385 0.0
H4023 H 0.25081 0.26973 0.87996 0.0
C4024 C 0.28915 0.33821 0.9339 0.0
C4025 C 0.27747 0.33306 0.94336 0.0
C4026 C 0.2887 0.33183 0.91804 0.0
C4027 C 0.27638 0.32036 0.91101 0.0
C4028 C 0.26481 0.31499 0.92044 0.0
C4029 C 0.26534 0.32126 0.93641 0.0
C4030 C 0.27561 0.31412 0.89383 0.0
C4031 C 0.27375 0.29819 0.88981 0.0
C4032 C 0.27739 0.32386 0.8815 0.0
C4033 C 0.27825 0.34067 0.88463 0.0
C4034 C 0.26669 0.3466 0.89203 0.0
C4035 C 0.26769 0.36245 0.89515 0.0
C4036 C 0.28012 0.37249 0.89082 0.0
C4037 C 0.29158 0.3667 0.8833 0.0
C4038 C 0.29065 0.35086 0.88017 0.0
C4039 C 0.2649 0.2791 0.82045 0.0
C4040 C 0.27709 0.28508 0.81211 0.0
C4041 C 0.26461 0.2844 0.83656 0.0
C4042 C 0.27664 0.29563 0.84467 0.0
C4043 C 0.28885 0.30155 0.83625 0.0
C4044 C 0.28902 0.29638 0.82009 0.0
C4045 C 0.27632 0.3016 0.86174 0.0
C4046 C 0.27789 0.31749 0.86572 0.0
C4047 C 0.27416 0.29182 0.87397 0.0
C4048 C 0.27277 0.27496 0.87067 0.0
C4049 C 0.28426 0.26864 0.86355 0.0
C4050 C 0.28263 0.25276 0.86004 0.0
C4051 C 0.26963 0.24306 0.86373 0.0
C4052 C 0.25825 0.24923 0.87099 0.0
C4053 C 0.25981 0.26511 0.87449 0.0
H4054 H 0.26838 0.23077 0.86099 0.0
H4055 H 0.28088 0.38476 0.89326 0.0
H4056 H 0.94214 0.02513 0.35225 0.0
H4057 H 0.95402 0.02546 0.3796 0.0
H4058 H 0.99596 0.0175 0.36142 0.0
H4059 H 0.984 0.01689 0.33398 0.0
H4060 H 0.98973 0.99967 0.38355 0.0
H4061 H 0.99191 0.05333 0.38056 0.0
H4062 H 0.98188 0.07672 0.37541 0.0
H4063 H 0.95102 0.06861 0.41117 0.0
H4064 H 0.96072 0.04506 0.41638 0.0
H4065 H 0.03027 0.01121 0.46284 0.0
H4066 H 0.02191 0.01214 0.43449 0.0
H4067 H 0.97877 0.02267 0.44713 0.0
H4068 H 0.98729 0.02241 0.47532 0.0
H4069 H 0.98818 0.04059 0.42708 0.0
H4070 H 0.9835 0.98532 0.42731 0.0
H4071 H 0.99224 0.961 0.43109 0.0
H4072 H 0.02764 0.97229 0.40063 0.0
H4073 H 0.01896 0.99661 0.39652 0.0
C4074 C 0.95396 0.02367 0.35408 0.0
C4075 C 0.96213 0.02104 0.34091 0.0
C4076 C 0.96077 0.02388 0.36975 0.0
C4077 C 0.976 0.02172 0.37267 0.0
C4078 C 0.98421 0.0192 0.35953 0.0
C4079 C 0.97736 0.01884 0.34384 0.0
C4080 C 0.98312 0.02147 0.38937 0.0
C4081 C 0.98961 0.00876 0.39301 0.0
C4082 C 0.98278 0.03317 0.40185 0.0
C4083 C 0.97697 0.04736 0.39877 0.0
C4084 C 0.98291 0.05648 0.38725 0.0
C4085 C 0.9773 0.06978 0.38433 0.0
C4086 C 0.9658 0.07413 0.39294 0.0
C4087 C 0.95992 0.06522 0.40451 0.0
C4088 C 0.96548 0.05191 0.40746 0.0
C4089 C 0.01897 0.01363 0.45953 0.0
C4090 C 0.00951 0.01684 0.47137 0.0
C4091 C 0.01414 0.01407 0.44328 0.0
C4092 C 0.99962 0.0174 0.43852 0.0
C4093 C 0.99007 0.02021 0.45038 0.0
C4094 C 0.99496 0.02001 0.46656 0.0
C4095 C 0.9944 0.01856 0.42138 0.0
C4096 C 0.98836 0.03152 0.41762 0.0
C4097 C 0.99512 0.0071 0.4088 0.0
C4098 C 1.00068 0.9928 0.41173 0.0
C4099 C 0.99322 0.98265 0.42153 0.0
C4100 C 0.99812 0.96885 0.42366 0.0
C4101 C 0.01052 0.96512 0.41613 0.0
C4102 C 0.01804 0.97519 0.40645 0.0
C4103 C 0.0131 0.98895 0.40416 0.0
H4104 H 0.01429 0.95441 0.41776 0.0
H4105 H 0.96146 0.08443 0.39066 0.0
H4106 H 0.26818 0.69741 0.5935 0.0
H4107 H 0.26725 0.71406 0.61794 0.0
H4108 H 0.28387 0.68126 0.64629 0.0
H4109 H 0.28415 0.66423 0.62198 0.0
H4110 H 0.25929 0.68963 0.65709 0.0
H4111 H 0.30673 0.71539 0.64156 0.0
H4112 H 0.32369 0.72821 0.62343 0.0
H4113 H 0.29596 0.76288 0.62016 0.0
H4114 H 0.27871 0.75015 0.63811 0.0
H4115 H 0.28235 0.73201 0.73189 0.0
H4116 H 0.28126 0.71808 0.70557 0.0
H4117 H 0.25945 0.75203 0.68421 0.0
H4118 H 0.26037 0.7662 0.71078 0.0
H4119 H 0.28447 0.74432 0.66881 0.0
H4120 H 0.23735 0.71836 0.68498 0.0
H4121 H 0.22046 0.70496 0.70281 0.0
H4122 H 0.24868 0.67065 0.70544 0.0
H4123 H 0.26568 0.68381 0.68752 0.0
C4124 C 0.27163 0.69375 0.60495 0.0
C4125 C 0.27616 0.67948 0.60583 0.0
C4126 C 0.27126 0.70335 0.61887 0.0
C4127 C 0.27557 0.6989 0.63388 0.0
C4128 C 0.28051 0.68487 0.63478 0.0
C4129 C 0.28079 0.67523 0.62088 0.0
C4130 C 0.27404 0.70839 0.64872 0.0
C4131 C 0.26494 0.70154 0.65972 0.0
C4132 C 0.28099 0.72406 0.65185 0.0
C4133 C 0.29133 0.73172 0.64103 0.0
C4134 C 0.30417 0.72567 0.63686 0.0
C4135 C 0.31385 0.73294 0.62664 0.0
C4136 C 0.31088 0.74633 0.62061 0.0
C4137 C 0.29824 0.7525 0.62482 0.0
C4138 C 0.28851 0.74526 0.63502 0.0
C4139 C 0.27725 0.73657 0.72166 0.0
C4140 C 0.27144 0.75024 0.72344 0.0
C4141 C 0.27658 0.72852 0.70663 0.0
C4142 C 0.27012 0.73397 0.69305 0.0
C4143 C 0.2644 0.74766 0.69465 0.0
C4144 C 0.26495 0.75571 0.70979 0.0
C4145 C 0.26995 0.72544 0.67721 0.0
C4146 C 0.27871 0.73246 0.66604 0.0
C4147 C 0.26279 0.70988 0.67393 0.0
C4148 C 0.25281 0.70211 0.68499 0.0
C4149 C 0.24 0.70801 0.68944 0.0
C4150 C 0.23037 0.70041 0.69949 0.0
C4151 C 0.23351 0.68696 0.70527 0.0
C4152 C 0.24626 0.68105 0.70095 0.0
C4153 C 0.25585 0.68854 0.69078 0.0
H4154 H 0.22606 0.68112 0.71309 0.0
H4155 H 0.31839 0.75194 0.61271 0.0
H4156 H 0.61053 0.0393 0.81443 0.0
H4157 H 0.59452 0.04091 0.83625 0.0
H4158 H 0.61245 0.00406 0.8565 0.0
H4159 H 0.62842 1.00227 0.83442 0.0
H4160 H 0.58194 1.00186 0.8594 0.0
H4161 H 0.62712 0.0396 0.8717 0.0
H4162 H 0.64757 0.06094 0.86766 0.0
H4163 H 0.61441 0.09017 0.86167 0.0
H4164 H 0.59371 0.06892 0.86541 0.0
H4165 H 0.57217 0.03628 0.94072 0.0
H4166 H 0.58169 0.02444 0.9174 0.0
H4167 H 0.55169 0.04462 0.88623 0.0
H4168 H 0.54138 0.05588 0.90945 0.0
H4169 H 0.58867 0.05336 0.89003 0.0
H4170 H 0.54331 0.01298 0.87861 0.0
H4171 H 0.52502 0.99104 0.88543 0.0
H4172 H 0.56167 0.9662 0.89353 0.0
H4173 H 0.58023 0.98811 0.88701 0.0
C4174 C 0.61099 0.0315 0.8235 0.0
C4175 C 0.62083 0.02082 0.82294 0.0
C4176 C 0.60184 0.0324 0.8359 0.0
C4177 C 0.60254 0.02279 0.8481 0.0
C4178 C 0.61181 0.01159 0.84719 0.0
C4179 C 0.62091 0.0106 0.83464 0.0
C4180 C 0.59427 0.02521 0.86219 0.0
C4181 C 0.5835 0.01307 0.86621 0.0
C4182 C 0.59645 0.03981 0.87113 0.0
C4183 C 0.60883 0.05261 0.86867 0.0
C4184 C 0.62416 0.05053 0.86935 0.0
C4185 C 0.63581 0.06262 0.86715 0.0
C4186 C 0.63229 0.07689 0.86437 0.0
C4187 C 0.61711 0.0791 0.8638 0.0
C4188 C 0.60542 0.06703 0.86596 0.0
C4189 C 0.56708 0.03771 0.92893 0.0
C4190 C 0.55614 0.04724 0.92697 0.0
C4191 C 0.57257 0.03092 0.91563 0.0
C4192 C 0.5673 0.03365 0.90022 0.0
C4193 C 0.55575 0.04234 0.89811 0.0
C4194 C 0.55006 0.04893 0.91139 0.0
C4195 C 0.57598 0.03021 0.88681 0.0
C4196 C 0.58705 0.04218 0.88312 0.0
C4197 C 0.57434 0.0154 0.87856 0.0
C4198 C 0.56319 1.00227 0.88254 0.0
C4199 C 0.5475 0.00292 0.88205 0.0
C4200 C 0.53707 0.99047 0.88581 0.0
C4201 C 0.54218 0.97726 0.88997 0.0
C4202 C 0.55773 0.97645 0.89034 0.0
C4203 C 0.5682 0.98888 0.88661 0.0
H4204 H 0.53409 0.96762 0.89285 0.0
H4205 H 0.64132 0.08625 0.86269 0.0
H4206 H 0.25178 0.32824 0.09983 0.0
H4207 H 0.25066 0.31765 0.1255 0.0
H4208 H 0.29979 0.33052 0.13553 0.0
H4209 H 0.30103 0.34145 0.11007 0.0
H4210 H 0.28837 0.30083 0.14272 0.0
H4211 H 0.277 0.35226 0.15261 0.0
H4212 H 0.26216 0.37251 0.14724 0.0
H4213 H 0.2209 0.34314 0.15613 0.0
H4214 H 0.23547 0.32265 0.16137 0.0
H4215 H 0.29698 0.28896 0.22388 0.0
H4216 H 0.2979 0.30004 0.19849 0.0
H4217 H 0.24924 0.30003 0.19617 0.0
H4218 H 0.24889 0.29079 0.22263 0.0
H4219 H 0.25972 0.32262 0.1841 0.0
H4220 H 0.26837 0.27127 0.17398 0.0
H4221 H 0.28094 0.24918 0.17821 0.0
H4222 H 0.32367 0.27477 0.16776 0.0
H4223 H 0.3114 0.29708 0.16367 0.0
C4224 C 0.26236 0.32894 0.10752 0.0
C4225 C 0.2765 0.33581 0.10283 0.0
C4226 C 0.26169 0.32281 0.12219 0.0
C4227 C 0.27513 0.32341 0.13252 0.0
C4228 C 0.28928 0.3299 0.12774 0.0
C4229 C 0.28996 0.33609 0.11311 0.0
C4230 C 0.27445 0.31757 0.14846 0.0
C4231 C 0.28223 0.30566 0.15186 0.0
C4232 C 0.26597 0.32347 0.16015 0.0
C4233 C 0.2573 0.3359 0.15725 0.0
C4234 C 0.26475 0.3501 0.15334 0.0
C4235 C 0.25639 0.36162 0.15033 0.0
C4236 C 0.2406 0.3591 0.15131 0.0
C4237 C 0.23313 0.34507 0.15536 0.0
C4238 C 0.24144 0.33351 0.15837 0.0
C4239 C 0.28658 0.29163 0.21802 0.0
C4240 C 0.27289 0.28913 0.22513 0.0
C4241 C 0.28702 0.2977 0.20334 0.0
C4242 C 0.27352 0.30041 0.19491 0.0
C4243 C 0.25984 0.29804 0.20224 0.0
C4244 C 0.25959 0.2927 0.21733 0.0
C4245 C 0.27366 0.30573 0.17857 0.0
C4246 C 0.2658 0.3176 0.17504 0.0
C4247 C 0.28166 0.29941 0.16655 0.0
C4248 C 0.28899 0.28588 0.16863 0.0
C4249 C 0.28046 0.2722 0.17263 0.0
C4250 C 0.28753 0.25964 0.17501 0.0
C4251 C 0.3031 0.26058 0.17329 0.0
C4252 C 0.31162 0.27406 0.1691 0.0
C4253 C 0.3046 0.28666 0.16673 0.0
H4254 H 0.30856 0.25086 0.17518 0.0
H4255 H 0.23414 0.36803 0.14896 0.0
H4256 H 0.22295 0.98096 0.98644 0.0
H4257 H 0.19876 0.98988 0.98947 0.0
H4258 H 0.17597 0.94319 0.99113 0.0
H4259 H 0.19985 0.93427 0.98764 0.0
H4260 H 0.15688 0.95811 0.97736 0.0
H4261 H 0.19265 0.96671 0.02525 0.0
H4262 H 0.21705 0.97708 0.04211 0.0
H4263 H 0.21109 0.02297 0.0356 0.0
H4264 H 0.18675 0.01285 0.01848 0.0
H4265 H 0.10021 0.96725 0.02997 0.0
H4266 H 0.12148 0.96059 0.01617 0.0
H4267 H 0.13962 0.00865 0.01515 0.0
H4268 H 0.1193 0.0154 0.03004 0.0
H4269 H 0.16076 0.99465 0.02633 0.0
H4270 H 0.12367 0.98404 0.97774 0.0
H4271 H 0.09897 0.97173 0.96217 0.0
H4272 H 0.10686 0.92753 0.97335 0.0
H4273 H 0.13164 0.93958 0.98877 0.0
C4274 C 0.21264 0.97263 0.98701 0.0
C4275 C 0.21317 0.95699 0.98691 0.0
C4276 C 0.1989 0.9777 0.98877 0.0
C4277 C 0.18572 0.96719 0.99086 0.0
C4278 C 0.18602 0.95146 0.98952 0.0
C4279 C 0.19966 0.94638 0.98752 0.0
C4280 C 0.17214 0.97251 0.99629 0.0
C4281 C 0.15771 0.96614 0.98804 0.0
C4282 C 0.17328 0.98293 0.01026 0.0
C4283 C 0.188 0.98902 0.0204 0.0
C4284 C 0.19662 0.979 0.02728 0.0
C4285 C 0.21043 0.98484 0.03691 0.0
C4286 C 0.21565 1.00067 0.03987 0.0
C4287 C 0.20706 0.01071 0.03324 0.0
C4288 C 0.19326 0.00493 0.02358 0.0
C4289 C 0.10881 0.97638 0.02692 0.0
C4290 C 0.10806 0.99185 0.03111 0.0
C4291 C 0.12076 0.97256 0.01873 0.0
C4292 C 0.13192 0.98415 0.01437 0.0
C4293 C 0.13102 0.99955 0.01828 0.0
C4294 C 0.11932 0.00337 0.02672 0.0
C4295 C 0.14548 0.98039 0.00731 0.0
C4296 C 0.15993 0.98694 0.0154 0.0
C4297 C 0.14433 0.96989 0.99345 0.0
C4298 C 0.12941 0.9627 0.98438 0.0
C4299 C 0.12007 0.97171 0.97686 0.0
C4300 C 0.10611 0.96478 0.96804 0.0
C4301 C 0.10136 0.94887 0.96677 0.0
C4302 C 0.11057 0.93985 0.97429 0.0
C4303 C 0.1246 0.9467 0.98299 0.0
H4304 H 0.09054 0.94353 0.95997 0.0
H4305 H 0.22632 0.00517 0.04735 0.0
H4306 H 0.68959 0.60729 0.03012 0.0
H4307 H 0.66428 0.59192 0.03111 0.0
H4308 H 0.65263 0.59522 0.98095 0.0
H4309 H 0.67769 0.61129 0.98003 0.0
H4310 H 0.62919 0.59922 0.9976 0.0
H4311 H 0.66297 0.56231 0.9946 0.0
H4312 H 0.6856 0.55148 0.00335 0.0
H4313 H 0.66964 0.54684 0.04945 0.0
H4314 H 0.64701 0.55782 0.04103 0.0
H4315 H 0.56172 0.54299 0.98721 0.0
H4316 H 0.58741 0.55706 0.98481 0.0
H4317 H 0.60202 0.54993 0.03336 0.0
H4318 H 0.57659 0.53495 0.03531 0.0
H4319 H 0.6241 0.54794 0.01709 0.0
H4320 H 0.5907 0.5846 0.02124 0.0
H4321 H 0.56795 0.59568 0.01359 0.0
H4322 H 0.58298 0.60194 0.96735 0.0
H4323 H 0.60568 0.59059 0.9746 0.0
C4324 C 0.68162 0.60493 0.01932 0.0
C4325 C 0.68577 0.61057 0.00498 0.0
C4326 C 0.66718 0.59596 0.01986 0.0
C4327 C 0.6566 0.59219 0.00605 0.0
C4328 C 0.66062 0.5979 0.99175 0.0
C4329 C 0.67504 0.60697 0.99121 0.0
C4330 C 0.64135 0.58234 0.00651 0.0
C4331 C 0.62806 0.58792 0.00166 0.0
C4332 C 0.63984 0.56777 0.01224 0.0
C4333 C 0.65336 0.561 0.01722 0.0
C4334 C 0.66433 0.55906 0.00663 0.0
C4335 C 0.67716 0.55288 0.01152 0.0
C4336 C 0.67908 0.5485 0.02695 0.0
C4337 C 0.66815 0.55024 0.0375 0.0
C4338 C 0.65532 0.55643 0.03267 0.0
C4339 C 0.57052 0.54429 0.99727 0.0
C4340 C 0.56724 0.53795 0.01145 0.0
C4341 C 0.58515 0.55246 0.99596 0.0
C4342 C 0.59662 0.555 0.00906 0.0
C4343 C 0.59342 0.54823 0.02309 0.0
C4344 C 0.5789 0.53965 0.02421 0.0
C4345 C 0.61185 0.56482 0.00825 0.0
C4346 C 0.62516 0.55924 0.01303 0.0
C4347 C 0.61335 0.5795 0.00268 0.0
C4348 C 0.59984 0.58662 0.99842 0.0
C4349 C 0.58912 0.58826 0.00941 0.0
C4350 C 0.57623 0.59459 0.00514 0.0
C4351 C 0.57401 0.59949 0.98999 0.0
C4352 C 0.58471 0.59812 0.97908 0.0
C4353 C 0.59759 0.59174 0.98326 0.0
H4354 H 0.56401 0.60438 0.9867 0.0
H4355 H 0.68902 0.54373 0.03072 0.0
H4356 H 0.68454 0.46659 0.25216 0.0
H4357 H 0.69746 0.44455 0.25084 0.0
H4358 H 0.68363 0.43407 0.29684 0.0
H4359 H 0.67075 0.45619 0.29828 0.0
H4360 H 0.71253 0.4302 0.29475 0.0
H4361 H 0.66437 0.41417 0.26227 0.0
H4362 H 0.64399 0.41588 0.24101 0.0
H4363 H 0.67541 0.41339 0.20564 0.0
H4364 H 0.69605 0.41187 0.22672 0.0
H4365 H 0.71943 0.35088 0.28679 0.0
H4366 H 0.71097 0.37565 0.29039 0.0
H4367 H 0.72839 0.38745 0.24623 0.0
H4368 H 0.73694 0.36269 0.24273 0.0
H4369 H 0.69833 0.39092 0.24754 0.0
H4370 H 0.74632 0.40576 0.28082 0.0
H4371 H 0.76593 0.40323 0.30252 0.0
H4372 H 0.73381 0.40689 0.33697 0.0
H4373 H 0.71393 0.40922 0.31542 0.0
C4374 C 0.68421 0.45957 0.26198 0.0
C4375 C 0.67651 0.46306 0.27526 0.0
C4376 C 0.69162 0.44698 0.26122 0.0
C4377 C 0.69132 0.43751 0.27363 0.0
C4378 C 0.68401 0.44121 0.28712 0.0
C4379 C 0.67667 0.45387 0.28794 0.0
C4380 C 0.69824 0.4235 0.27229 0.0
C4381 C 0.70931 0.42153 0.28451 0.0
C4382 C 0.6942 0.41228 0.25882 0.0
C4383 C 0.68179 0.41306 0.24609 0.0
C4384 C 0.66696 0.41409 0.24997 0.0
C4385 C 0.65536 0.41501 0.23795 0.0
C4386 C 0.65842 0.41478 0.22199 0.0
C4387 C 0.67307 0.41358 0.21801 0.0
C4388 C 0.68472 0.41268 0.22999 0.0
C4389 C 0.72173 0.35897 0.2781 0.0
C4390 C 0.72895 0.35511 0.26461 0.0
C4391 C 0.71691 0.37306 0.28013 0.0
C4392 C 0.71912 0.38341 0.2686 0.0
C4393 C 0.72663 0.37964 0.25527 0.0
C4394 C 0.73158 0.36561 0.25333 0.0
C4395 C 0.71269 0.39768 0.26993 0.0
C4396 C 0.70163 0.39965 0.25772 0.0
C4397 C 0.71663 0.40878 0.28348 0.0
C4398 C 0.7286 0.40753 0.29648 0.0
C4399 C 0.7434 0.40591 0.293 0.0
C4400 C 0.75457 0.40453 0.30528 0.0
C4401 C 0.75111 0.40486 0.32111 0.0
C4402 C 0.73647 0.40662 0.3247 0.0
C4403 C 0.72526 0.40799 0.31246 0.0
H4404 H 0.75977 0.40379 0.3306 0.0
H4405 H 0.64942 0.4155 0.2127 0.0
H4406 H 0.8685 0.44895 0.52813 0.0
H4407 H 0.89516 0.46218 0.53147 0.0
H4408 H 0.88104 0.50284 0.5159 0.0
H4409 H 0.85422 0.48976 0.51279 0.0
H4410 H 0.90413 0.49414 0.49994 0.0
H4411 H 0.89333 0.50268 0.55415 0.0
H4412 H 0.88415 0.49578 0.57966 0.0
H4413 H 0.91755 0.46672 0.58497 0.0
H4414 H 0.92675 0.47322 0.55933 0.0
H4415 H 0.97922 0.53752 0.51602 0.0
H4416 H 0.95242 0.53039 0.52113 0.0
H4417 H 0.9593 0.48452 0.52757 0.0
H4418 H 0.98576 0.49129 0.52155 0.0
H4419 H 0.93974 0.49887 0.54982 0.0
H4420 H 0.94718 0.4865 0.49423 0.0
H4421 H 0.95718 0.49285 0.4689 0.0
H4422 H 0.9303 0.52827 0.46631 0.0
H4423 H 0.9204 0.52236 0.49186 0.0
C4424 C 0.87102 0.46082 0.52575 0.0
C4425 C 0.85929 0.46835 0.52026 0.0
C4426 C 0.88625 0.46833 0.52763 0.0
C4427 C 0.88997 0.4835 0.52408 0.0
C4428 C 0.87831 0.49113 0.51873 0.0
C4429 C 0.86305 0.48363 0.51689 0.0
C4430 C 0.90615 0.49101 0.52506 0.0
C4431 C 0.91184 0.49549 0.51094 0.0
C4432 C 0.91621 0.49236 0.53933 0.0
C4433 C 0.91065 0.48835 0.55473 0.0
C4434 C 0.89862 0.4947 0.56067 0.0
C4435 C 0.89343 0.49088 0.57517 0.0
C4436 C 0.90024 0.48079 0.58391 0.0
C4437 C 0.91227 0.47452 0.57817 0.0
C4438 C 0.91749 0.47828 0.56366 0.0
C4439 C 0.97506 0.52601 0.51885 0.0
C4440 C 0.98452 0.51497 0.51864 0.0
C4441 C 0.95986 0.52201 0.52184 0.0
C4442 C 0.95408 0.507 0.52478 0.0
C4443 C 0.96374 0.49622 0.52554 0.0
C4444 C 0.97883 0.50012 0.52221 0.0
C4445 C 0.93755 0.5019 0.52477 0.0
C4446 C 0.93188 0.49777 0.53897 0.0
C4447 C 0.92751 0.50072 0.51056 0.0
C4448 C 0.93321 0.50413 0.49506 0.0
C4449 C 0.94353 0.49576 0.48835 0.0
C4450 C 0.94916 0.49926 0.47395 0.0
C4451 C 0.9444 0.51097 0.46602 0.0
C4452 C 0.93399 0.51921 0.47249 0.0
C4453 C 0.92838 0.5158 0.48693 0.0
H4454 H 0.9487 0.51361 0.45483 0.0
H4455 H 0.89622 0.47787 0.59515 0.0
H4456 H 0.34285 0.09079 0.26584 0.0
H4457 H 0.33459 0.11555 0.26655 0.0
H4458 H 0.32105 0.11072 0.31387 0.0
H4459 H 0.32962 0.08584 0.31333 0.0
H4460 H 0.29859 0.11918 0.28653 0.0
H4461 H 0.34786 0.13518 0.31685 0.0
H4462 H 0.37545 0.13497 0.32258 0.0
H4463 H 0.38375 0.15221 0.27773 0.0
H4464 H 0.35617 0.15228 0.2716 0.0
H4465 H 0.28014 0.18907 0.26602 0.0
H4466 H 0.28982 0.17255 0.2844 0.0
H4467 H 0.32647 0.16781 0.25533 0.0
H4468 H 0.31772 0.18532 0.23781 0.0
H4469 H 0.33655 0.16665 0.28432 0.0
H4470 H 0.28919 0.14241 0.25025 0.0
H4471 H 0.26172 0.1396 0.24059 0.0
H4472 H 0.25006 0.13553 0.28847 0.0
H4473 H 0.27748 0.13846 0.29841 0.0
C4474 C 0.33804 0.09497 0.27635 0.0
C4475 C 0.33676 0.08648 0.28949 0.0
C4476 C 0.33344 0.1091 0.27679 0.0
C4477 C 0.32735 0.11489 0.29031 0.0
C4478 C 0.32581 0.10637 0.3034 0.0
C4479 C 0.33069 0.09227 0.30308 0.0
C4480 C 0.32242 0.12978 0.29019 0.0
C4481 C 0.30678 0.12975 0.28659 0.0
C4482 C 0.33325 0.14334 0.28997 0.0
C4483 C 0.34993 0.14373 0.29378 0.0
C4484 C 0.35556 0.13887 0.30818 0.0
C4485 C 0.3712 0.13878 0.3115 0.0
C4486 C 0.38135 0.14358 0.30053 0.0
C4487 C 0.37588 0.14852 0.28623 0.0
C4488 C 0.36024 0.14862 0.28284 0.0
C4489 C 0.29057 0.18496 0.26381 0.0
C4490 C 0.29798 0.18832 0.25017 0.0
C4491 C 0.29598 0.17534 0.27427 0.0
C4492 C 0.30861 0.16857 0.27102 0.0
C4493 C 0.31662 0.17277 0.25807 0.0
C4494 C 0.31145 0.18264 0.24786 0.0
C4495 C 0.31269 0.15593 0.27978 0.0
C4496 C 0.32821 0.15635 0.28498 0.0
C4497 C 0.30177 0.14257 0.28106 0.0
C4498 C 0.28534 0.14089 0.27509 0.0
C4499 C 0.28075 0.14102 0.25871 0.0
C4500 C 0.26521 0.13939 0.25319 0.0
C4501 C 0.25416 0.13745 0.26392 0.0
C4502 C 0.25863 0.13709 0.28018 0.0
C4503 C 0.27416 0.13874 0.28577 0.0
H4504 H 0.24213 0.13618 0.25963 0.0
H4505 H 0.39346 0.14348 0.30311 0.0
H4506 H 0.32036 0.09495 0.50528 0.0
H4507 H 0.34231 0.08194 0.50685 0.0
H4508 H 0.37301 0.1253 0.50794 0.0
H4509 H 0.35101 0.13841 0.50621 0.0
H4510 H 0.38295 0.10321 0.49006 0.0
H4511 H 0.3667 0.10921 0.54245 0.0
H4512 H 0.34837 0.10721 0.56267 0.0
H4513 H 0.33906 0.05816 0.55234 0.0
H4514 H 0.35719 0.05988 0.53189 0.0
H4515 H 0.44933 0.07986 0.52925 0.0
H4516 H 0.42824 0.09202 0.51908 0.0
H4517 H 0.39678 0.04899 0.51711 0.0
H4518 H 0.41783 0.03697 0.5275 0.0
H4519 H 0.38749 0.07119 0.53468 0.0
H4520 H 0.40546 0.06569 0.48287 0.0
H4521 H 0.42446 0.06853 0.46338 0.0
H4522 H 0.43161 0.11753 0.47358 0.0
H4523 H 0.41281 0.11499 0.49331 0.0
C4524 C 0.33178 0.10173 0.50584 0.0
C4525 C 0.33395 0.11774 0.50582 0.0
C4526 C 0.34432 0.09427 0.50671 0.0
C4527 C 0.35934 0.10267 0.50782 0.0
C4528 C 0.36153 0.11858 0.50713 0.0
C4529 C 0.34895 0.12606 0.50614 0.0
C4530 C 0.3727 0.0949 0.51047 0.0
C4531 C 0.38404 0.09633 0.49991 0.0
C4532 C 0.37406 0.08577 0.5232 0.0
C4533 C 0.36319 0.08469 0.53553 0.0
C4534 C 0.36066 0.09801 0.54441 0.0
C4535 C 0.35032 0.09692 0.55592 0.0
C4536 C 0.34253 0.08257 0.55876 0.0
C4537 C 0.34509 0.06927 0.55012 0.0
C4538 C 0.3554 0.07029 0.53857 0.0
C4539 C 0.438 0.07293 0.52605 0.0
C4540 C 0.43515 0.05748 0.52891 0.0
C4541 C 0.42595 0.07986 0.52028 0.0
C4542 C 0.4109 0.07142 0.51731 0.0
C4543 C 0.40828 0.05573 0.51931 0.0
C4544 C 0.4203 0.04883 0.5251 0.0
C4545 C 0.39766 0.07924 0.51411 0.0
C4546 C 0.38637 0.07795 0.52472 0.0
C4547 C 0.3965 0.08859 0.50153 0.0
C4548 C 0.40782 0.09014 0.48969 0.0
C4549 C 0.41118 0.07707 0.48107 0.0
C4550 C 0.4219 0.07863 0.46995 0.0
C4551 C 0.42926 0.0932 0.46727 0.0
C4552 C 0.42591 0.10625 0.47568 0.0
C4553 C 0.41521 0.10476 0.48682 0.0
H4554 H 0.43755 0.09438 0.45866 0.0
H4555 H 0.33453 0.08175 0.56768 0.0
H4556 H 0.70078 0.60011 0.26421 0.0
H4557 H 0.71586 0.6255 0.26297 0.0
H4558 H 0.68985 0.64493 0.29759 0.0
H4559 H 0.67407 0.61975 0.29812 0.0
H4560 H 0.69259 0.66226 0.27527 0.0
H4561 H 0.72796 0.64039 0.30692 0.0
H4562 H 0.74346 0.62135 0.31465 0.0
H4563 H 0.76741 0.62698 0.27309 0.0
H4564 H 0.75188 0.64591 0.26498 0.0
H4565 H 0.74172 0.73472 0.2906 0.0
H4566 H 0.72792 0.7091 0.29308 0.0
H4567 H 0.74995 0.69053 0.25432 0.0
H4568 H 0.76402 0.71631 0.25183 0.0
H4569 H 0.74941 0.67302 0.27917 0.0
H4570 H 0.7102 0.69437 0.24768 0.0
H4571 H 0.69351 0.71325 0.24254 0.0
H4572 H 0.67778 0.70987 0.28881 0.0
H4573 H 0.6939 0.69061 0.29404 0.0
C4574 C 0.69816 0.60978 0.27148 0.0
C4575 C 0.68612 0.6078 0.28123 0.0
C4576 C 0.70698 0.6243 0.27094 0.0
C4577 C 0.70416 0.63717 0.28033 0.0
C4578 C 0.6923 0.6352 0.29024 0.0
C4579 C 0.68337 0.62072 0.29067 0.0
C4580 C 0.71309 0.65276 0.27926 0.0
C4581 C 0.70503 0.6646 0.27634 0.0
C4582 C 0.72933 0.65591 0.2805 0.0
C4583 C 0.73863 0.64445 0.28524 0.0
C4584 C 0.73643 0.63747 0.29934 0.0
C4585 C 0.74524 0.62672 0.30381 0.0
C4586 C 0.75638 0.62293 0.29434 0.0
C4587 C 0.75875 0.62991 0.2804 0.0
C4588 C 0.74995 0.64066 0.27586 0.0
C4589 C 0.74368 0.72521 0.28258 0.0
C4590 C 0.75399 0.72758 0.27099 0.0
C4591 C 0.73567 0.71056 0.28395 0.0
C4592 C 0.73764 0.69791 0.27368 0.0
C4593 C 0.74818 0.70014 0.26232 0.0
C4594 C 0.75626 0.71486 0.26095 0.0
C4595 C 0.72888 0.68236 0.27504 0.0
C4596 C 0.73698 0.67057 0.27804 0.0
C4597 C 0.71268 0.67933 0.27433 0.0
C4598 C 0.70334 0.69118 0.27129 0.0
C4599 C 0.70325 0.69774 0.25678 0.0
C4600 C 0.69388 0.70847 0.25384 0.0
C4601 C 0.68479 0.7129 0.26541 0.0
C4602 C 0.68488 0.70648 0.27988 0.0
C4603 C 0.69402 0.69557 0.28279 0.0
H4604 H 0.6776 0.72124 0.2631 0.0
H4605 H 0.7632 0.61461 0.29783 0.0
H4606 H 0.8363 0.43608 0.7883 0.0
H4607 H 0.82425 0.40896 0.78342 0.0
H4608 H 0.7988 0.41746 0.74019 0.0
H4609 H 0.8111 0.44471 0.74486 0.0
H4610 H 0.7835 0.39808 0.76794 0.0
H4611 H 0.82196 0.4025 0.72986 0.0
H4612 H 0.84817 0.4117 0.72334 0.0
H4613 H 0.86645 0.38704 0.75962 0.0
H4614 H 0.84038 0.37793 0.76656 0.0
H4615 H 0.76026 0.31747 0.75811 0.0
H4616 H 0.76703 0.34368 0.7511 0.0
H4617 H 0.81311 0.3467 0.77395 0.0
H4618 H 0.80663 0.32016 0.77973 0.0
H4619 H 0.81525 0.36065 0.74976 0.0
H4620 H 0.78482 0.3651 0.79442 0.0
H4621 H 0.76231 0.35836 0.80893 0.0
H4622 H 0.73273 0.36631 0.76864 0.0
H4623 H 0.75528 0.37382 0.75415 0.0
C4624 C 0.82796 0.43219 0.7779 0.0
C4625 C 0.8245 0.44234 0.76696 0.0
C4626 C 0.8212 0.41677 0.77509 0.0
C4627 C 0.81081 0.4114 0.76142 0.0
C4628 C 0.80688 0.42156 0.75075 0.0
C4629 C 0.81386 0.43699 0.75342 0.0
C4630 C 0.80443 0.395 0.75836 0.0
C4631 C 0.79015 0.38982 0.76347 0.0
C4632 C 0.81357 0.38445 0.75326 0.0
C4633 C 0.82921 0.3896 0.74877 0.0
C4634 C 0.83158 0.39913 0.73652 0.0
C4635 C 0.84641 0.40432 0.73274 0.0
C4636 C 0.85897 0.39998 0.74107 0.0
C4637 C 0.85672 0.3904 0.75317 0.0
C4638 C 0.84191 0.3852 0.75701 0.0
C4639 C 0.77182 0.32381 0.76151 0.0
C4640 C 0.78295 0.31708 0.76952 0.0
C4641 C 0.77567 0.33874 0.75758 0.0
C4642 C 0.79049 0.34726 0.76227 0.0
C4643 C 0.80163 0.34034 0.77012 0.0
C4644 C 0.79792 0.32526 0.77353 0.0
C4645 C 0.79437 0.36359 0.75973 0.0
C4646 C 0.80823 0.3688 0.75362 0.0
C4647 C 0.7852 0.37424 0.76466 0.0
C4648 C 0.77163 0.36982 0.77319 0.0
C4649 C 0.7735 0.36537 0.78867 0.0
C4650 C 0.76074 0.36141 0.79688 0.0
C4651 C 0.74604 0.36161 0.78962 0.0
C4652 C 0.74411 0.36607 0.77422 0.0
C4653 C 0.75689 0.37033 0.76606 0.0
H4654 H 0.73616 0.35841 0.79598 0.0
H4655 H 0.87045 0.40402 0.73814 0.0
H4656 H 0.03641 0.84994 0.04714 0.0
H4657 H 0.03462 0.87486 0.0379 0.0
H4658 H 0.04541 0.8964 0.0865 0.0
H4659 H 0.04705 0.87156 0.09581 0.0
H4660 H 0.0243 0.9086 0.07385 0.0
H4661 H 0.07144 0.89944 0.0554 0.0
H4662 H 0.08857 0.88549 0.04098 0.0
H4663 H 0.0614 0.88641 0.99642 0.0
H4664 H 0.04398 0.90019 0.01061 0.0
H4665 H 0.03794 0.98619 0.05585 0.0
H4666 H 0.04038 0.96114 0.0643 0.0
H4667 H 0.02804 0.94042 0.01551 0.0
H4668 H 0.02643 0.96564 0.00692 0.0
H4669 H 0.04969 0.92774 0.02791 0.0
H4670 H 1.0016 0.93536 0.04723 0.0
H4671 H 0.98443 0.94882 0.06227 0.0
H4672 H 0.01466 0.95159 0.10551 0.0
H4673 H 0.0318 0.9378 0.09084 0.0
C4674 C 0.03858 0.85997 0.0559 0.0
C4675 C 0.04186 0.85847 0.07232 0.0
C4676 C 0.03757 0.87436 0.05055 0.0
C4677 C 0.04004 0.88786 0.06137 0.0
C4678 C 0.04336 0.88636 0.07775 0.0
C4679 C 0.04426 0.872 0.08311 0.0
C4680 C 0.03881 0.90342 0.05584 0.0
C4681 C 0.03007 0.91277 0.06392 0.0
C4682 C 0.04595 0.90909 0.04263 0.0
C4683 C 0.05631 0.90068 0.03409 0.0
C4684 C 0.06904 0.89654 0.04254 0.0
C4685 C 0.07882 0.88869 0.03441 0.0
C4686 C 0.07605 0.88503 0.0178 0.0
C4687 C 0.06351 0.88923 0.00929 0.0
C4688 C 0.05369 0.89706 0.01737 0.0
C4689 C 0.03581 0.97634 0.04686 0.0
C4690 C 0.03177 0.97809 0.03066 0.0
C4691 C 0.03702 0.96186 0.05177 0.0
C4692 C 0.03406 0.94852 0.0407 0.0
C4693 C 0.03031 0.95031 0.02446 0.0
C4694 C 0.02923 0.96483 0.01953 0.0
C4695 C 0.0352 0.93286 0.04595 0.0
C4696 C 0.04391 0.9235 0.03782 0.0
C4697 C 0.02813 0.9272 0.05917 0.0
C4698 C 0.01803 0.93572 0.06792 0.0
C4699 C 0.00461 0.93895 0.05992 0.0
C4700 C 0.99489 0.9466 0.06837 0.0
C4701 C 0.99855 0.95123 0.08476 0.0
C4702 C 0.01187 0.94806 0.0928 0.0
C4703 C 0.02154 0.94024 0.08445 0.0
H4704 H 0.99102 0.95719 0.09126 0.0
H4705 H 0.08365 0.87896 0.01152 0.0
H4706 H 0.93372 0.26355 0.85276 0.0
H4707 H 0.90948 0.26499 0.83746 0.0
H4708 H 0.88493 0.24943 0.87633 0.0
H4709 H 0.90924 0.24786 0.89172 0.0
H4710 H 0.86948 0.23624 0.8481 0.0
H4711 H 0.8924 0.28818 0.86962 0.0
H4712 H 0.91318 0.3109 0.87444 0.0
H4713 H 0.9129 0.31284 0.82375 0.0
H4714 H 0.89226 0.29001 0.81862 0.0
H4715 H 0.79906 0.2554 0.81563 0.0
H4716 H 0.82186 0.25256 0.83265 0.0
H4717 H 0.85055 0.27659 0.80106 0.0
H4718 H 0.8279 0.2812 0.78543 0.0
H4719 H 0.86356 0.28534 0.82734 0.0
H4720 H 0.84229 0.23304 0.80487 0.0
H4721 H 0.82215 0.20981 0.79907 0.0
H4722 H 0.81989 0.20769 0.84946 0.0
H4723 H 0.83992 0.23098 0.85555 0.0
C4724 C 0.9232 0.26049 0.85814 0.0
C4725 C 0.92357 0.25574 0.87363 0.0
C4726 C 0.90927 0.26131 0.84933 0.0
C4727 C 0.89525 0.25762 0.85578 0.0
C4728 C 0.89552 0.25241 0.87103 0.0
C4729 C 0.90948 0.25148 0.87984 0.0
C4730 C 0.88045 0.25952 0.84675 0.0
C4731 C 0.86813 0.24703 0.84368 0.0
C4732 C 0.87863 0.27347 0.84065 0.0
C4733 C 0.89086 0.28733 0.84375 0.0
C4734 C 0.89682 0.29342 0.85951 0.0
C4735 C 0.90857 0.30631 0.86229 0.0
C4736 C 0.91438 0.31329 0.84941 0.0
C4737 C 0.90841 0.30742 0.83371 0.0
C4738 C 0.89667 0.29452 0.83086 0.0
C4739 C 0.81023 0.26008 0.81229 0.0
C4740 C 0.81148 0.26812 0.7987 0.0
C4741 C 0.82338 0.25826 0.82198 0.0
C4742 C 0.83823 0.26386 0.81804 0.0
C4743 C 0.83941 0.27196 0.80451 0.0
C4744 C 0.8263 0.27431 0.79524 0.0
C4745 C 0.85255 0.26189 0.82811 0.0
C4746 C 0.86482 0.27446 0.83156 0.0
C4747 C 0.85438 0.24792 0.8343 0.0
C4748 C 0.8425 0.23381 0.83065 0.0
C4749 C 0.83745 0.22764 0.8147 0.0
C4750 C 0.82607 0.21446 0.81137 0.0
C4751 C 0.81973 0.2073 0.82389 0.0
C4752 C 0.82481 0.21325 0.83977 0.0
C4753 C 0.83619 0.22643 0.84317 0.0
H4754 H 0.8109 0.19711 0.82128 0.0
H4755 H 0.92348 0.32327 0.85159 0.0
H4756 H 0.54824 0.20191 0.54504 0.0
H4757 H 0.54738 0.17479 0.53601 0.0
H4758 H 0.52601 0.16195 0.57774 0.0
H4759 H 0.52713 0.18899 0.587 0.0
H4760 H 0.54775 0.14535 0.57269 0.0
H4761 H 0.50567 0.15793 0.53947 0.0
H4762 H 0.49342 0.17233 0.52001 0.0
H4763 H 0.52271 0.16007 0.48522 0.0
H4764 H 0.53527 0.14576 0.50455 0.0
H4765 H 0.52036 0.0662 0.55107 0.0
H4766 H 0.52284 0.09374 0.55792 0.0
H4767 H 0.54207 0.10186 0.51379 0.0
H4768 H 0.539 0.07408 0.50652 0.0
H4769 H 0.52311 0.1212 0.51907 0.0
H4770 H 0.56449 0.10782 0.55086 0.0
H4771 H 0.57698 0.09291 0.56955 0.0
H4772 H 0.55044 0.10681 0.60636 0.0
H4773 H 0.53756 0.12158 0.58778 0.0
C4774 C 0.54341 0.19336 0.55238 0.0
C4775 C 0.53769 0.19787 0.56679 0.0
C4776 C 0.54279 0.17774 0.54709 0.0
C4777 C 0.53647 0.16608 0.55604 0.0
C4778 C 0.53091 0.17056 0.57049 0.0
C4779 C 0.53143 0.18614 0.57573 0.0
C4780 C 0.53577 0.14928 0.55055 0.0
C4781 C 0.54219 0.14009 0.56102 0.0
C4782 C 0.52902 0.14227 0.53511 0.0
C4783 C 0.52153 0.15093 0.52352 0.0
C4784 C 0.50959 0.15842 0.52772 0.0
C4785 C 0.50257 0.16654 0.5167 0.0
C4786 C 0.50732 0.16715 0.50141 0.0
C4787 C 0.51907 0.15961 0.49709 0.0
C4788 C 0.52613 0.15149 0.50806 0.0
C4789 C 0.52515 0.07376 0.54274 0.0
C4790 C 0.52972 0.06771 0.52829 0.0
C4791 C 0.52665 0.08965 0.54677 0.0
C4792 C 0.53295 0.10015 0.5366 0.0
C4793 C 0.53728 0.09416 0.52199 0.0
C4794 C 0.53568 0.07819 0.5179 0.0
C4795 C 0.53488 0.11724 0.5413 0.0
C4796 C 0.52874 0.12648 0.5307 0.0
C4797 C 0.54205 0.12435 0.55656 0.0
C4798 C 0.54997 0.11573 0.56788 0.0
C4799 C 0.56125 0.10764 0.56291 0.0
C4800 C 0.5684 0.09921 0.57348 0.0
C4801 C 0.56449 0.0989 0.58912 0.0
C4802 C 0.55345 0.10705 0.59423 0.0
C4803 C 0.54622 0.11547 0.58369 0.0
H4804 H 0.57003 0.09235 0.59729 0.0
H4805 H 0.50187 0.17344 0.4929 0.0
H4806 H 0.58414 0.74905 0.39257 0.0
H4807 H 0.60684 0.75057 0.3782 0.0
H4808 H 0.58873 0.78042 0.34709 0.0
H4809 H 0.56573 0.7785 0.36104 0.0
H4810 H 0.60128 0.76051 0.32992 0.0
H4811 H 0.61734 0.79421 0.37843 0.0
H4812 H 0.62125 0.80172 0.4076 0.0
H4813 H 0.6498 0.76806 0.41352 0.0
H4814 H 0.64589 0.76021 0.38437 0.0
H4815 H 0.67365 0.80104 0.30888 0.0
H4816 H 0.64939 0.7941 0.32033 0.0
H4817 H 0.66313 0.75272 0.33408 0.0
H4818 H 0.68721 0.7593 0.32194 0.0
H4819 H 0.65316 0.7766 0.35975 0.0
H4820 H 0.63759 0.74398 0.31025 0.0
H4821 H 0.6339 0.73779 0.2809 0.0
H4822 H 0.60466 0.77107 0.27682 0.0
H4823 H 0.6084 0.77766 0.30616 0.0
C4824 C 0.58485 0.7558 0.38256 0.0
C4825 C 0.573 0.76369 0.37807 0.0
C4826 C 0.59797 0.75679 0.37442 0.0
C4827 C 0.5997 0.76578 0.36162 0.0
C4828 C 0.58778 0.77344 0.35693 0.0
C4829 C 0.57465 0.77245 0.36505 0.0
C4830 C 0.61394 0.76734 0.35326 0.0
C4831 C 0.61259 0.76415 0.33648 0.0
C4832 C 0.62883 0.77183 0.36172 0.0
C4833 C 0.63118 0.7765 0.37924 0.0
C4834 C 0.62435 0.78832 0.38596 0.0
C4835 C 0.62658 0.79266 0.40249 0.0
C4836 C 0.63573 0.78534 0.41242 0.0
C4837 C 0.64269 0.7737 0.40582 0.0
C4838 C 0.64048 0.7693 0.3893 0.0
C4839 C 0.67137 0.79031 0.31407 0.0
C4840 C 0.68236 0.78074 0.31457 0.0
C4841 C 0.65752 0.78637 0.32063 0.0
C4842 C 0.65447 0.77294 0.32815 0.0
C4843 C 0.66525 0.76315 0.32834 0.0
C4844 C 0.67896 0.76688 0.32135 0.0
C4845 C 0.64042 0.76974 0.33652 0.0
C4846 C 0.64183 0.77278 0.35327 0.0
C4847 C 0.62561 0.76525 0.32804 0.0
C4848 C 0.62345 0.76146 0.31039 0.0
C4849 C 0.63054 0.75013 0.30308 0.0
C4850 C 0.6284 0.74651 0.28645 0.0
C4851 C 0.6191 0.75407 0.27699 0.0
C4852 C 0.61189 0.76525 0.28416 0.0
C4853 C 0.61401 0.76892 0.30079 0.0
H4854 H 0.61743 0.75124 0.26411 0.0
H4855 H 0.63745 0.78872 0.42521 0.0
H4856 H 0.01538 0.20437 0.38885 0.0
H4857 H 0.01349 0.18133 0.40267 0.0
H4858 H 0.04434 0.20662 0.44242 0.0
H4859 H 0.04636 0.22973 0.42859 0.0
H4860 H 0.05127 0.17922 0.43696 0.0
H4861 H 0.0046 0.19735 0.44375 0.0
H4862 H 0.98069 0.20618 0.43529 0.0
H4863 H 0.96357 0.163 0.40681 0.0
H4864 H 0.98749 0.15398 0.41494 0.0
H4865 H 0.02971 0.12545 0.494 0.0
H4866 H 0.03658 0.14731 0.47868 0.0
H4867 H 0.00718 0.12268 0.43754 0.0
H4868 H 1.00022 0.10101 0.45293 0.0
H4869 H 1.0001 0.14994 0.44402 0.0
H4870 H 0.0472 0.13173 0.43845 0.0
H4871 H 0.0711 0.12336 0.44788 0.0
H4872 H 0.08732 0.16716 0.47545 0.0
H4873 H 0.06341 0.17573 0.46635 0.0
C4874 C 0.02167 0.20512 0.40059 0.0
C4875 C 0.03093 0.21906 0.40759 0.0
C4876 C 0.0206 0.19187 0.40852 0.0
C4877 C 0.02858 0.19216 0.42378 0.0
C4878 C 0.03804 0.20598 0.43068 0.0
C4879 C 0.0392 0.21924 0.42271 0.0
C4880 C 0.02688 0.17815 0.43259 0.0
C4881 C 0.04006 0.17293 0.43866 0.0
C4882 C 0.01231 0.16969 0.4347 0.0
C4883 C 0.9979 0.17505 0.42983 0.0
C4884 C 0.99578 0.18978 0.43559 0.0
C4885 C 0.98222 0.19481 0.43087 0.0
C4886 C 0.97064 0.18517 0.42049 0.0
C4887 C 0.97257 0.17046 0.41484 0.0
C4888 C 0.98612 0.16538 0.41951 0.0
C4889 C 0.02527 0.12448 0.48148 0.0
C4890 C 0.0147 0.11138 0.47456 0.0
C4891 C 0.02909 0.13704 0.47273 0.0
C4892 C 0.0224 0.13676 0.45687 0.0
C4893 C 0.0125 0.12329 0.44972 0.0
C4894 C 0.00869 0.11079 0.45845 0.0
C4895 C 0.02447 0.15086 0.44822 0.0
C4896 C 0.01132 0.15616 0.44226 0.0
C4897 C 0.03906 0.15943 0.44636 0.0
C4898 C 0.05344 0.15431 0.45184 0.0
C4899 C 0.0558 0.13953 0.44663 0.0
C4900 C 0.06937 0.13476 0.45189 0.0
C4901 C 0.0807 0.14471 0.46229 0.0
C4902 C 0.07852 0.15946 0.46741 0.0
C4903 C 0.06497 0.16429 0.46219 0.0
H4904 H 0.0912 0.141 0.46635 0.0
H4905 H 0.96015 0.18909 0.41685 0.0
H4906 H 0.60568 0.27116 0.19669 0.0
H4907 H 0.6329 0.27246 0.20492 0.0
H4908 H 0.62171 0.24838 0.24547 0.0
H4909 H 0.59435 0.24744 0.23758 0.0
H4910 H 0.64615 0.27127 0.25427 0.0
H4911 H 0.63287 0.23025 0.21136 0.0
H4912 H 0.62205 0.2184 0.18418 0.0
H4913 H 0.65398 0.251 0.16379 0.0
H4914 H 0.66485 0.26317 0.19086 0.0
H4915 H 0.72088 0.25567 0.27376 0.0
H4916 H 0.69337 0.25317 0.26606 0.0
H4917 H 0.70263 0.27318 0.22257 0.0
H4918 H 0.73018 0.27485 0.22982 0.0
H4919 H 0.67886 0.25188 0.21559 0.0
H4920 H 0.69097 0.29401 0.25717 0.0
H4921 H 0.70229 0.30693 0.28384 0.0
H4922 H 0.67273 0.27378 0.30617 0.0
H4923 H 0.6615 0.26054 0.27959 0.0
C4924 C 0.6089 0.26628 0.20749 0.0
C4925 C 0.59755 0.25918 0.2164 0.0
C4926 C 0.6246 0.26689 0.21211 0.0
C4927 C 0.62957 0.26034 0.22575 0.0
C4928 C 0.61832 0.25348 0.23486 0.0
C4929 C 0.60258 0.25284 0.23022 0.0
C4930 C 0.64642 0.26054 0.23037 0.0
C4931 C 0.65322 0.26681 0.24585 0.0
C4932 C 0.65596 0.25512 0.2194 0.0
C4933 C 0.64959 0.2477 0.20313 0.0
C4934 C 0.63752 0.23494 0.20108 0.0
C4935 C 0.63139 0.22817 0.18569 0.0
C4936 C 0.6373 0.23397 0.17227 0.0
C4937 C 0.6494 0.24653 0.1742 0.0
C4938 C 0.65557 0.25336 0.18956 0.0
C4939 C 0.71711 0.25933 0.26242 0.0
C4940 C 0.72791 0.26553 0.25248 0.0
C4941 C 0.70126 0.25812 0.25811 0.0
C4942 C 0.69566 0.26331 0.24384 0.0
C4943 C 0.70645 0.26913 0.23369 0.0
C4944 C 0.72229 0.27018 0.23791 0.0
C4945 C 0.67867 0.26269 0.23947 0.0
C4946 C 0.67182 0.25632 0.22404 0.0
C4947 C 0.66912 0.26816 0.25043 0.0
C4948 C 0.67559 0.27619 0.26642 0.0
C4949 C 0.68703 0.28942 0.26779 0.0
C4950 C 0.6934 0.29681 0.28287 0.0
C4951 C 0.68827 0.29114 0.2967 0.0
C4952 C 0.67671 0.27813 0.29545 0.0
C4953 C 0.67034 0.27069 0.28037 0.0
H4954 H 0.69321 0.29686 0.30838 0.0
H4955 H 0.63252 0.22871 0.16037 0.0
H4956 H 0.55647 0.88261 0.90676 0.0
H4957 H 0.55513 0.90661 0.92275 0.0
H4958 H 0.5136 0.88471 0.93993 0.0
H4959 H 0.51464 0.86088 0.92352 0.0
H4960 H 0.50969 0.91127 0.9347 0.0
H4961 H 0.55178 0.89426 0.96317 0.0
H4962 H 0.57667 0.88578 0.96658 0.0
H4963 H 0.59917 0.92808 0.95195 0.0
H4964 H 0.57438 0.93674 0.94827 0.0
H4965 H 0.50791 0.96814 0.9992 0.0
H4966 H 0.51035 0.94451 0.98327 0.0
H4967 H 0.54905 0.96891 0.96334 0.0
H4968 H 0.54707 0.99248 0.97981 0.0
H4969 H 0.55461 0.94164 0.9697 0.0
H4970 H 0.51221 0.95866 0.94187 0.0
H4971 H 0.48738 0.96736 0.93994 0.0
H4972 H 0.46546 0.92483 0.95461 0.0
H4973 H 0.49021 0.91594 0.95681 0.0
C4974 C 0.54711 0.88285 0.91404 0.0
C4975 C 0.5357 0.86968 0.9138 0.0
C4976 C 0.54636 0.89665 0.92329 0.0
C4977 C 0.53438 0.89765 0.93294 0.0
C4978 C 0.52298 0.88446 0.93268 0.0
C4979 C 0.5236 0.87075 0.92324 0.0
C4980 C 0.53351 0.91236 0.94306 0.0
C4981 C 0.51952 0.91773 0.94249 0.0
C4982 C 0.5463 0.92126 0.95308 0.0
C4983 C 0.5612 0.91607 0.95529 0.0
C4984 C 0.56202 0.9017 0.96057 0.0
C4985 C 0.57611 0.89687 0.96257 0.0
C4986 C 0.58948 0.90636 0.95944 0.0
C4987 C 0.5888 0.92073 0.95434 0.0
C4988 C 0.57473 0.92561 0.95231 0.0
C4989 C 0.517 0.96853 0.99148 0.0
C4990 C 0.52713 0.98241 0.99066 0.0
C4991 C 0.51832 0.95495 0.98223 0.0
C4992 C 0.52972 0.95482 0.97174 0.0
C4993 C 0.54006 0.96859 0.97117 0.0
C4994 C 0.53879 0.98217 0.98049 0.0
C4995 C 0.53081 0.94038 0.96138 0.0
C4996 C 0.54482 0.93513 0.96189 0.0
C4997 C 0.51804 0.93154 0.95137 0.0
C4998 C 0.50307 0.93668 0.9496 0.0
C4999 C 0.5021 0.95118 0.94473 0.0
C5000 C 0.48804 0.95615 0.94359 0.0
C5001 C 0.47485 0.94666 0.94717 0.0
C5002 C 0.47568 0.93216 0.95184 0.0
C5003 C 0.48972 0.92714 0.95301 0.0
H5004 H 0.46399 0.95054 0.94632 0.0
H5005 H 0.60038 0.9026 0.96099 0.0
H5006 H 0.94233 0.77203 0.72935 0.0
H5007 H 0.91726 0.77331 0.73826 0.0
H5008 H 0.89783 0.73095 0.70888 0.0
H5009 H 0.92271 0.72997 0.69927 0.0
H5010 H 0.87795 0.74917 0.70661 0.0
H5011 H 0.90656 0.73449 0.75209 0.0
H5012 H 0.92819 0.73693 0.77322 0.0
H5013 H 0.91973 0.78084 0.79177 0.0
H5014 H 0.89816 0.77874 0.77063 0.0
H5015 H 0.80656 0.73946 0.7413 0.0
H5016 H 0.83137 0.73566 0.73259 0.0
H5017 H 0.85387 0.77681 0.76252 0.0
H5018 H 0.82947 0.77986 0.77187 0.0
H5019 H 0.87198 0.75807 0.76437 0.0
H5020 H 0.8446 0.77396 0.71915 0.0
H5021 H 0.82275 0.77238 0.69846 0.0
H5022 H 0.82893 0.72769 0.6796 0.0
H5023 H 0.85069 0.72891 0.70034 0.0
C5024 C 0.93277 0.763 0.72459 0.0
C5025 C 0.93491 0.75085 0.7135 0.0
C5026 C 0.91832 0.76365 0.72993 0.0
C5027 C 0.9054 0.75209 0.72457 0.0
C5028 C 0.90744 0.74004 0.7134 0.0
C5029 C 0.92188 0.7394 0.708 0.0
C5030 C 0.88984 0.75262 0.73046 0.0
C5031 C 0.87669 0.75089 0.71928 0.0
C5032 C 0.88789 0.75525 0.74697 0.0
C5033 C 0.90084 0.75651 0.75969 0.0
C5034 C 0.90938 0.74471 0.76061 0.0
C5035 C 0.92162 0.74602 0.7726 0.0
C5036 C 0.92536 0.75905 0.78381 0.0
C5037 C 0.91684 0.77077 0.78307 0.0
C5038 C 0.9046 0.76952 0.7711 0.0
C5039 C 0.81683 0.74761 0.74614 0.0
C5040 C 0.8158 0.76032 0.75702 0.0
C5041 C 0.83108 0.74554 0.74099 0.0
C5042 C 0.84475 0.75616 0.74647 0.0
C5043 C 0.84371 0.76846 0.75781 0.0
C5044 C 0.82957 0.77041 0.763 0.0
C5045 C 0.8601 0.7547 0.74053 0.0
C5046 C 0.87322 0.75629 0.7517 0.0
C5047 C 0.86205 0.75212 0.72403 0.0
C5048 C 0.84917 0.75146 0.71138 0.0
C5049 C 0.84125 0.76376 0.71063 0.0
C5050 C 0.82889 0.76293 0.6989 0.0
C5051 C 0.82444 0.74993 0.68775 0.0
C5052 C 0.83238 0.73775 0.68827 0.0
C5053 C 0.84474 0.7385 0.7 0.0
H5054 H 0.81485 0.7493 0.67868 0.0
H5055 H 0.93483 0.76004 0.79308 0.0
H5056 H 0.07249 0.00683 0.84511 0.0
H5057 H 0.06167 0.00507 0.87054 0.0
H5058 H 0.09922 0.03975 0.89374 0.0
H5059 H 0.11065 0.04081 0.86866 0.0
H5060 H 0.09384 0.01967 0.91278 0.0
H5061 H 0.06218 0.04717 0.883 0.0
H5062 H 0.04541 0.0525 0.8601 0.0
H5063 H 0.01248 0.0123 0.86501 0.0
H5064 H 0.02916 0.0066 0.88783 0.0
H5065 H 0.03112 0.0384 0.96743 0.0
H5066 H 0.0421 0.03895 0.94196 0.0
H5067 H 0.06264 0.99989 0.95194 0.0
H5068 H 0.05261 1.00021 0.97806 0.0
H5069 H 0.03916 0.02253 0.91627 0.0
H5070 H 0.0947 0.99911 0.93338 0.0
H5071 H 0.11251 0.99845 0.95735 0.0
H5072 H 0.09963 0.0388 0.97988 0.0
H5073 H 0.08216 0.04005 0.9558 0.0
C5074 C 0.07859 0.01395 0.85564 0.0
C5075 C 0.09247 0.02403 0.85468 0.0
C5076 C 0.07225 0.01307 0.87019 0.0
C5077 C 0.07946 0.02244 0.88411 0.0
C5078 C 0.09336 0.03241 0.88322 0.0
C5079 C 0.0998 0.03315 0.86874 0.0
C5080 C 0.07259 0.02189 0.8996 0.0
C5081 C 0.08187 0.0203 0.91353 0.0
C5082 C 0.05707 0.02304 0.90077 0.0
C5083 C 0.04701 0.02636 0.88701 0.0
C5084 C 0.05142 0.03939 0.87911 0.0
C5085 C 0.04192 0.04249 0.86616 0.0
C5086 C 0.02791 0.03272 0.86107 0.0
C5087 C 0.02335 0.01984 0.86895 0.0
C5088 C 0.03282 0.01667 0.8819 0.0
C5089 C 0.03809 0.03002 0.96419 0.0
C5090 C 0.04123 0.0194 0.97473 0.0
C5091 C 0.0443 0.03026 0.94958 0.0
C5092 C 0.05346 0.01962 0.94498 0.0
C5093 C 0.05605 0.00857 0.95532 0.0
C5094 C 0.05028 0.00868 0.97022 0.0
C5095 C 0.0604 0.02032 0.92952 0.0
C5096 C 0.05112 0.02188 0.91556 0.0
C5097 C 0.07611 0.01986 0.92848 0.0
C5098 C 0.08697 0.01954 0.94285 0.0
C5099 C 0.09575 0.0079 0.94341 0.0
C5100 C 0.10577 0.00742 0.95703 0.0
C5101 C 0.10709 0.01848 0.97021 0.0
C5102 C 0.09855 0.03019 0.9697 0.0
C5103 C 0.08862 0.03082 0.95604 0.0
H5104 H 0.11479 0.018 0.98079 0.0
H5105 H 0.02056 0.03515 0.85104 0.0
H5106 H 0.76352 0.35348 0.56006 0.0
H5107 H 0.76575 0.33741 0.58184 0.0
H5108 H 0.78219 0.37801 0.61529 0.0
H5109 H 0.78064 0.39399 0.59334 0.0
H5110 H 0.79979 0.35864 0.61956 0.0
H5111 H 0.74528 0.35507 0.6141 0.0
H5112 H 0.71928 0.35031 0.5996 0.0
H5113 H 0.72275 0.30352 0.58593 0.0
H5114 H 0.74888 0.30805 0.60016 0.0
H5115 H 0.79912 0.3221 0.68933 0.0
H5116 H 0.7913 0.33746 0.66876 0.0
H5117 H 0.7808 0.2972 0.63419 0.0
H5118 H 0.78783 0.28149 0.65499 0.0
H5119 H 0.75954 0.31623 0.63091 0.0
H5120 H 0.8148 0.3209 0.63611 0.0
H5121 H 0.84037 0.3261 0.65163 0.0
H5122 H 0.83461 0.37188 0.6669 0.0
H5123 H 0.80892 0.36688 0.65162 0.0
C5124 C 0.76735 0.35891 0.57213 0.0
C5125 C 0.77187 0.37488 0.57515 0.0
C5126 C 0.76858 0.34976 0.58456 0.0
C5127 C 0.77397 0.35652 0.60024 0.0
C5128 C 0.77802 0.37255 0.60329 0.0
C5129 C 0.77709 0.38166 0.59081 0.0
C5130 C 0.77638 0.34688 0.61327 0.0
C5131 C 0.79087 0.34954 0.62219 0.0
C5132 C 0.76488 0.33477 0.61647 0.0
C5133 C 0.74909 0.33194 0.60809 0.0
C5134 C 0.74054 0.34379 0.60792 0.0
C5135 C 0.72577 0.34113 0.59976 0.0
C5136 C 0.71938 0.32663 0.59182 0.0
C5137 C 0.72772 0.31475 0.59207 0.0
C5138 C 0.7425 0.31735 0.6002 0.0
C5139 C 0.79485 0.31641 0.67745 0.0
C5140 C 0.79418 0.30056 0.67377 0.0
C5141 C 0.7905 0.32524 0.66569 0.0
C5142 C 0.78571 0.31847 0.64995 0.0
C5143 C 0.78454 0.30261 0.64629 0.0
C5144 C 0.78875 0.29371 0.65812 0.0
C5145 C 0.78283 0.32815 0.63715 0.0
C5146 C 0.76834 0.32542 0.62826 0.0
C5147 C 0.79426 0.34032 0.63405 0.0
C5148 C 0.80991 0.34348 0.64281 0.0
C5149 C 0.81898 0.33206 0.64282 0.0
C5150 C 0.83349 0.33497 0.65157 0.0
C5151 C 0.8391 0.3493 0.66026 0.0
C5152 C 0.83025 0.36078 0.66016 0.0
C5153 C 0.81572 0.35793 0.65144 0.0
H5154 H 0.85032 0.35152 0.66706 0.0
H5155 H 0.70795 0.3246 0.5855 0.0
H5156 H 0.44033 0.00283 0.34714 0.0
H5157 H 0.45811 0.00452 0.37144 0.0
H5158 H 0.43747 0.04034 0.39363 0.0
H5159 H 0.42008 0.03905 0.3691 0.0
H5160 H 0.46733 0.04694 0.40065 0.0
H5161 H 0.42813 0.00242 0.40141 0.0
H5162 H 0.41199 0.97749 0.39069 0.0
H5163 H 0.45217 0.95726 0.38831 0.0
H5164 H 0.46856 0.98213 0.39881 0.0
H5165 H 0.48971 0.04049 0.48224 0.0
H5166 H 0.47558 0.04078 0.4561 0.0
H5167 H 0.5001 0.00759 0.43523 0.0
H5168 H 0.51399 0.00689 0.4614 0.0
H5169 H 0.4695 0.99976 0.42703 0.0
H5170 H 0.50851 0.04476 0.42848 0.0
H5171 H 0.52373 0.06964 0.44071 0.0
H5172 H 0.48288 0.08905 0.44032 0.0
H5173 H 0.46737 0.06421 0.42832 0.0
C5174 C 0.43967 0.01107 0.35723 0.0
C5175 C 0.42887 0.02075 0.35642 0.0
C5176 C 0.44977 0.01202 0.37107 0.0
C5177 C 0.44891 0.02238 0.3844 0.0
C5178 C 0.43831 0.03228 0.38346 0.0
C5179 C 0.42839 0.03152 0.36951 0.0
C5180 C 0.45877 0.02264 0.39951 0.0
C5181 C 0.46771 0.03666 0.4065 0.0
C5182 C 0.45943 0.00915 0.40697 0.0
C5183 C 0.44957 0.99417 0.40074 0.0
C5184 C 0.43352 0.99268 0.39849 0.0
C5185 C 0.42433 0.97856 0.39247 0.0
C5186 C 0.43105 0.96581 0.38878 0.0
C5187 C 0.44698 0.96715 0.39115 0.0
C5188 C 0.45623 0.98125 0.39715 0.0
C5189 C 0.49216 0.03332 0.47207 0.0
C5190 C 0.50297 0.0237 0.47383 0.0
C5191 C 0.48415 0.03356 0.45715 0.0
C5192 C 0.48696 0.02432 0.44377 0.0
C5193 C 0.49785 0.01483 0.44545 0.0
C5194 C 0.50581 0.01451 0.46038 0.0
C5195 C 0.47802 0.02404 0.42814 0.0
C5196 C 0.46922 0.01001 0.42109 0.0
C5197 C 0.47738 0.03753 0.42075 0.0
C5198 C 0.48676 0.05259 0.42758 0.0
C5199 C 0.50276 0.05431 0.43107 0.0
C5200 C 0.51144 0.06841 0.43796 0.0
C5201 C 0.50428 0.08091 0.44131 0.0
C5202 C 0.48842 0.07936 0.43772 0.0
C5203 C 0.47967 0.06528 0.43085 0.0
H5204 H 0.51102 0.09181 0.44666 0.0
H5205 H 0.42392 0.95489 0.38412 0.0
H5206 H 0.79345 0.72293 0.08992 0.0
H5207 H 0.79379 0.7348 0.11738 0.0
H5208 H 0.7513 0.70461 0.12193 0.0
H5209 H 0.7508 0.69291 0.09448 0.0
H5210 H 0.75009 0.73273 0.1334 0.0
H5211 H 0.78797 0.69991 0.13943 0.0
H5212 H 0.8117 0.69072 0.13382 0.0
H5213 H 0.83808 0.73573 0.14905 0.0
H5214 H 0.81449 0.74523 0.15455 0.0
H5215 H 0.74806 0.74189 0.21744 0.0
H5216 H 0.74896 0.73239 0.18951 0.0
H5217 H 0.792 0.76325 0.18924 0.0
H5218 H 0.79111 0.77281 0.2172 0.0
H5219 H 0.79389 0.73645 0.17525 0.0
H5220 H 0.75835 0.76989 0.16952 0.0
H5221 H 0.73566 0.78175 0.17265 0.0
H5222 H 0.70608 0.73873 0.15567 0.0
H5223 H 0.72861 0.72655 0.15258 0.0
C5224 C 0.78423 0.71877 0.09682 0.0
C5225 C 0.77207 0.70699 0.08997 0.0
C5226 C 0.78445 0.72554 0.11255 0.0
C5227 C 0.77266 0.7205 0.12187 0.0
C5228 C 0.76053 0.70875 0.11502 0.0
C5229 C 0.76023 0.70209 0.09928 0.0
C5230 C 0.77263 0.72763 0.13861 0.0
C5231 C 0.75957 0.73331 0.14262 0.0
C5232 C 0.78528 0.72907 0.1505 0.0
C5233 C 0.79945 0.72331 0.14725 0.0
C5234 C 0.79882 0.70787 0.14147 0.0
C5235 C 0.81225 0.7026 0.13833 0.0
C5236 C 0.82638 0.71264 0.14103 0.0
C5237 C 0.82713 0.72796 0.14693 0.0
C5238 C 0.81373 0.73329 0.15007 0.0
C5239 C 0.75759 0.74683 0.21139 0.0
C5240 C 0.76937 0.75828 0.21953 0.0
C5241 C 0.75811 0.74137 0.19538 0.0
C5242 C 0.77045 0.74724 0.18711 0.0
C5243 C 0.78233 0.75855 0.19529 0.0
C5244 C 0.7818 0.76403 0.2113 0.0
C5245 C 0.77117 0.74124 0.17013 0.0
C5246 C 0.78436 0.73582 0.16606 0.0
C5247 C 0.75875 0.74028 0.15809 0.0
C5248 C 0.74518 0.74728 0.16092 0.0
C5249 C 0.74701 0.7629 0.16665 0.0
C5250 C 0.73418 0.76971 0.16832 0.0
C5251 C 0.71945 0.76102 0.16424 0.0
C5252 C 0.71751 0.74546 0.15873 0.0
C5253 C 0.7303 0.7386 0.15701 0.0
H5254 H 0.70953 0.76635 0.16543 0.0
H5255 H 0.83676 0.70854 0.13859 0.0
H5256 H 0.06679 0.03222 0.70285 0.0
H5257 H 0.05528 0.03305 0.6755 0.0
H5258 H 0.09159 0.01307 0.65672 0.0
H5259 H 0.10339 0.01262 0.68393 0.0
H5260 H 0.08659 0.03683 0.6412 0.0
H5261 H 0.05534 0.99202 0.65675 0.0
H5262 H 0.03829 0.97745 0.67363 0.0
H5263 H 0.00526 0.00651 0.66577 0.0
H5264 H 0.02222 0.02139 0.64901 0.0
H5265 H 0.05718 0.01296 0.56109 0.0
H5266 H 0.06605 0.01352 0.58935 0.0
H5267 H 0.0282 0.03454 0.60231 0.0
H5268 H 0.01892 0.03361 0.5739 0.0
H5269 H 0.03298 0.01221 0.62129 0.0
H5270 H 0.06374 0.05614 0.60436 0.0
H5271 H 0.08061 0.07 0.58679 0.0
H5272 H 0.11437 0.04225 0.59685 0.0
H5273 H 0.09769 0.02812 0.61439 0.0
C5274 C 0.07236 0.02805 0.6929 0.0
C5275 C 0.08601 0.02231 0.69565 0.0
C5276 C 0.06568 0.02841 0.67726 0.0
C5277 C 0.07249 0.02301 0.66401 0.0
C5278 C 0.0861 0.01727 0.66672 0.0
C5279 C 0.09275 0.01688 0.68233 0.0
C5280 C 0.0657 0.02362 0.64729 0.0
C5281 C 0.07491 0.03131 0.63683 0.0
C5282 C 0.0503 0.01682 0.64165 0.0
C5283 C 0.04013 0.00794 0.65179 0.0
C5284 C 0.04451 0.9954 0.65874 0.0
C5285 C 0.03484 0.98706 0.66826 0.0
C5286 C 0.02072 0.99108 0.67081 0.0
C5287 C 0.01621 0.00342 0.66381 0.0
C5288 C 0.02585 0.01181 0.6543 0.0
C5289 C 0.05069 0.01772 0.5699 0.0
C5290 C 0.03745 0.0235 0.56516 0.0
C5291 C 0.05584 0.01808 0.58609 0.0
C5292 C 0.04798 0.02434 0.59799 0.0
C5293 C 0.03453 0.02976 0.59335 0.0
C5294 C 0.0293 0.02933 0.57709 0.0
C5295 C 0.05396 0.0252 0.61519 0.0
C5296 C 0.04461 0.01783 0.62573 0.0
C5297 C 0.06923 0.03231 0.62093 0.0
C5298 C 0.07942 0.041 0.61063 0.0
C5299 C 0.07473 0.05294 0.60278 0.0
C5300 C 0.08425 0.06084 0.59282 0.0
C5301 C 0.0985 0.05697 0.59066 0.0
C5302 C 0.10332 0.04523 0.59852 0.0
C5303 C 0.09385 0.03729 0.60851 0.0
H5304 H 0.10583 0.06309 0.58292 0.0
H5305 H 0.01325 0.9846 0.67818 0.0
H5306 H 0.74967 0.36123 0.42386 0.0
H5307 H 0.7481 0.34555 0.39818 0.0
H5308 H 0.7975 0.35215 0.40192 0.0
H5309 H 0.79918 0.3683 0.42732 0.0
H5310 H 0.7854 0.35474 0.3719 0.0
H5311 H 0.77721 0.31969 0.41162 0.0
H5312 H 0.76484 0.3085 0.43386 0.0
H5313 H 0.72162 0.29737 0.40435 0.0
H5314 H 0.7337 0.30871 0.38199 0.0
H5315 H 0.79333 0.28591 0.32335 0.0
H5316 H 0.79218 0.30207 0.34827 0.0
H5317 H 0.74875 0.31177 0.32914 0.0
H5318 H 0.75007 0.29616 0.30402 0.0
H5319 H 0.75688 0.30103 0.36599 0.0
H5320 H 0.76569 0.33838 0.32678 0.0
H5321 H 0.77919 0.3477 0.30435 0.0
H5322 H 0.82242 0.35311 0.33336 0.0
H5323 H 0.80915 0.34344 0.35584 0.0
C5324 C 0.76019 0.35946 0.41911 0.0
C5325 C 0.77455 0.36586 0.4276 0.0
C5326 C 0.75927 0.35045 0.40453 0.0
C5327 C 0.77269 0.34761 0.39832 0.0
C5328 C 0.78704 0.35422 0.40659 0.0
C5329 C 0.78797 0.36327 0.42115 0.0
C5330 C 0.77178 0.33734 0.38342 0.0
C5331 C 0.7792 0.343 0.37065 0.0
C5332 C 0.7636 0.32206 0.38179 0.0
C5333 C 0.75632 0.31521 0.3952 0.0
C5334 C 0.76504 0.31498 0.40992 0.0
C5335 C 0.75809 0.30859 0.42254 0.0
C5336 C 0.74245 0.30227 0.42054 0.0
C5337 C 0.73373 0.3023 0.40589 0.0
C5338 C 0.74063 0.3087 0.39324 0.0
C5339 C 0.7835 0.2914 0.32458 0.0
C5340 C 0.77186 0.28998 0.31188 0.0
C5341 C 0.78287 0.30057 0.3387 0.0
C5342 C 0.77043 0.30804 0.34029 0.0
C5343 C 0.75844 0.30607 0.32793 0.0
C5344 C 0.75925 0.29724 0.31366 0.0
C5345 C 0.77034 0.31853 0.35464 0.0
C5346 C 0.76286 0.31286 0.36728 0.0
C5347 C 0.77849 0.33374 0.35618 0.0
C5348 C 0.78645 0.34003 0.3429 0.0
C5349 C 0.77808 0.34142 0.32832 0.0
C5350 C 0.78568 0.34679 0.31561 0.0
C5351 C 0.80165 0.35099 0.31743 0.0
C5352 C 0.81004 0.34986 0.33197 0.0
C5353 C 0.80249 0.34442 0.34469 0.0
H5354 H 0.80753 0.35511 0.30757 0.0
H5355 H 0.73708 0.29732 0.43032 0.0
H5356 H 0.44138 0.01348 0.22617 0.0
H5357 H 0.45612 0.01093 0.20338 0.0
H5358 H 0.42201 0.02763 0.17362 0.0
H5359 H 0.40698 0.0298 0.19629 0.0
H5360 H 0.42738 1.00062 0.1609 0.0
H5361 H 0.45777 0.04881 0.18316 0.0
H5362 H 0.47326 0.06765 0.2043 0.0
H5363 H 0.50623 0.03815 0.20975 0.0
H5364 H 0.49082 0.01902 0.1888 0.0
H5365 H 0.46488 0.99704 0.09196 0.0
H5366 H 0.45422 0.0076 0.11511 0.0
H5367 H 0.48715 0.99118 0.14664 0.0
H5368 H 0.49853 0.98127 0.12342 0.0
H5369 H 0.48272 0.01973 0.15807 0.0
H5370 H 0.45131 0.97081 0.13792 0.0
H5371 H 0.43598 0.95172 0.11688 0.0
H5372 H 0.40493 0.98257 0.108 0.0
H5373 H 0.4202 1.00193 0.12887 0.0
C5374 C 0.43712 0.01676 0.2148 0.0
C5375 C 0.42297 0.02168 0.21293 0.0
C5376 C 0.44562 0.01546 0.20185 0.0
C5377 C 0.44017 0.01915 0.18685 0.0
C5378 C 0.42641 0.02477 0.18514 0.0
C5379 C 0.41789 0.02607 0.1981 0.0
C5380 C 0.4479 0.01548 0.17262 0.0
C5381 C 0.4394 0.00506 0.16015 0.0
C5382 C 0.4637 0.02089 0.17192 0.0
C5383 C 0.47306 0.03241 0.18448 0.0
C5384 C 0.46826 0.04627 0.18895 0.0
C5385 C 0.47704 0.05702 0.20089 0.0
C5386 C 0.4907 0.05409 0.20839 0.0
C5387 C 0.49564 0.04041 0.20394 0.0
C5388 C 0.48689 0.02961 0.19202 0.0
C5389 C 0.47006 0.99588 0.1038 0.0
C5390 C 0.48254 0.98826 0.10584 0.0
C5391 C 0.46387 1.00183 0.11702 0.0
C5392 C 0.46978 0.99999 0.13256 0.0
C5393 C 0.48242 0.99267 0.13472 0.0
C5394 C 0.48876 0.98683 0.12145 0.0
C5395 C 0.46215 0.00494 0.14643 0.0
C5396 C 0.47066 0.01547 0.15882 0.0
C5397 C 0.44635 0.99959 0.14716 0.0
C5398 C 0.43696 0.98785 0.13486 0.0
C5399 C 0.44125 0.97354 0.13143 0.0
C5400 C 0.43257 0.96268 0.11954 0.0
C5401 C 0.41951 0.96594 0.11108 0.0
C5402 C 0.41506 0.98006 0.11455 0.0
C5403 C 0.42371 0.99098 0.12642 0.0
H5404 H 0.41282 0.95753 0.10186 0.0
H5405 H 0.49748 0.06242 0.21763 0.0
H5406 H 0.7609 0.67871 0.91502 0.0
H5407 H 0.7628 0.68879 0.88911 0.0
H5408 H 0.77819 0.7345 0.9132 0.0
H5409 H 0.77625 0.72451 0.93921 0.0
H5410 H 0.75485 0.732 0.88652 0.0
H5411 H 0.80378 0.71598 0.89922 0.0
H5412 H 0.81953 0.69688 0.9062 0.0
H5413 H 0.79967 0.6677 0.86329 0.0
H5414 H 0.78365 0.68655 0.85616 0.0
H5415 H 0.77735 0.77202 0.82441 0.0
H5416 H 0.7779 0.76096 0.84933 0.0
H5417 H 0.77812 0.71667 0.82392 0.0
H5418 H 0.78042 0.72851 0.79898 0.0
H5419 H 0.79209 0.71677 0.85074 0.0
H5420 H 0.74381 0.73057 0.83648 0.0
H5421 H 0.72672 0.74794 0.82782 0.0
H5422 H 0.74155 0.77796 0.87139 0.0
H5423 H 0.75896 0.76091 0.8802 0.0
C5424 C 0.76456 0.69093 0.91482 0.0
C5425 C 0.76842 0.70081 0.92921 0.0
C5426 C 0.76573 0.69666 0.89999 0.0
C5427 C 0.77072 0.71238 0.89922 0.0
C5428 C 0.77434 0.72232 0.91353 0.0
C5429 C 0.77331 0.71658 0.92837 0.0
C5430 C 0.77234 0.71846 0.8835 0.0
C5431 C 0.76308 0.72881 0.87874 0.0
C5432 C 0.78261 0.71378 0.87305 0.0
C5433 C 0.79243 0.70261 0.87724 0.0
C5434 C 0.80271 0.70545 0.89133 0.0
C5435 C 0.81169 0.69467 0.8953 0.0
C5436 C 0.81058 0.68107 0.88522 0.0
C5437 C 0.80052 0.67824 0.8711 0.0
C5438 C 0.7915 0.68896 0.86708 0.0
C5439 C 0.77832 0.76014 0.82403 0.0
C5440 C 0.77903 0.75133 0.8095 0.0
C5441 C 0.77808 0.75361 0.8384 0.0
C5442 C 0.77727 0.73777 0.83858 0.0
C5443 C 0.7785 0.72891 0.8242 0.0
C5444 C 0.77967 0.73568 0.80987 0.0
C5445 C 0.77472 0.73058 0.85369 0.0
C5446 C 0.78375 0.71996 0.85837 0.0
C5447 C 0.76382 0.73461 0.86384 0.0
C5448 C 0.75275 0.74448 0.85898 0.0
C5449 C 0.74342 0.74086 0.84423 0.0
C5450 C 0.73371 0.75068 0.83927 0.0
C5451 C 0.73307 0.76405 0.84905 0.0
C5452 C 0.74207 0.76759 0.86384 0.0
C5453 C 0.75185 0.75785 0.86884 0.0
H5454 H 0.72559 0.77165 0.84516 0.0
H5455 H 0.81753 0.67274 0.88832 0.0
H5456 H 0.85012 0.10532 0.03652 0.0
H5457 H 0.87194 0.09249 0.03342 0.0
H5458 H 0.8454 0.05036 0.04496 0.0
H5459 H 0.82354 0.06338 0.04843 0.0
H5460 H 0.87763 0.05564 0.05657 0.0
H5461 H 0.84455 0.05405 0.00804 0.0
H5462 H 0.82911 0.06484 0.98776 0.0
H5463 H 0.86953 0.09486 0.97783 0.0
H5464 H 0.88517 0.08446 0.99827 0.0
H5465 H 0.92276 0.01613 0.99947 0.0
H5466 H 0.90133 0.02236 0.01358 0.0
H5467 H 0.92419 0.06965 0.02281 0.0
H5468 H 0.94584 0.0633 0.00941 0.0
H5469 H 0.89129 0.05697 0.0009 0.0
H5470 H 0.92324 0.0611 0.0522 0.0
H5471 H 0.93833 0.05134 0.07359 0.0
H5472 H 0.89969 0.01631 0.07803 0.0
H5473 H 0.88443 0.02572 0.05643 0.0
C5474 C 0.84916 0.09345 0.03883 0.0
C5475 C 0.83533 0.08517 0.04254 0.0
C5476 C 0.86153 0.08616 0.03707 0.0
C5477 C 0.86004 0.07048 0.03868 0.0
C5478 C 0.84663 0.06247 0.04365 0.0
C5479 C 0.83424 0.06985 0.0456 0.0
C5480 C 0.87181 0.06227 0.0332 0.0
C5481 C 0.88049 0.05564 0.04434 0.0
C5482 C 0.87538 0.06235 0.01722 0.0
C5483 C 0.86602 0.06853 0.00477 0.0
C5484 C 0.85013 0.06303 0.00162 0.0
C5485 C 0.84134 0.06907 0.99008 0.0
C5486 C 0.84833 0.08054 0.98153 0.0
C5487 C 0.86413 0.08598 0.98447 0.0
C5488 C 0.87297 0.08 0.99602 0.0
C5489 C 0.92328 0.02778 0.00481 0.0
C5490 C 0.93561 0.03945 0.00297 0.0
C5491 C 0.91117 0.03126 0.01293 0.0
C5492 C 0.9114 0.04638 0.01927 0.0
C5493 C 0.924 0.05788 0.01807 0.0
C5494 C 0.93613 0.05437 0.01014 0.0
C5495 C 0.89746 0.05087 0.02441 0.0
C5496 C 0.88826 0.05669 0.01306 0.0
C5497 C 0.89344 0.04999 0.04012 0.0
C5498 C 0.90282 0.04391 0.05249 0.0
C5499 C 0.91806 0.05112 0.05749 0.0
C5500 C 0.92661 0.04572 0.06971 0.0
C5501 C 0.91998 0.03319 0.07709 0.0
C5502 C 0.90481 0.02598 0.07224 0.0
C5503 C 0.89622 0.03133 0.06 0.0
H5504 H 0.92655 0.02917 0.08665 0.0
H5505 H 0.84151 0.0852 0.9726 0.0
H5506 H 0.35201 0.45117 0.02326 0.0
H5507 H 0.37748 0.46662 0.02284 0.0
H5508 H 0.39817 0.43088 0.04197 0.0
H5509 H 0.37266 0.4155 0.04271 0.0
H5510 H 0.41302 0.45795 0.05557 0.0
H5511 H 0.39584 0.43602 0.00115 0.0
H5512 H 0.37791 0.43034 0.97635 0.0
H5513 H 0.38167 0.47852 0.97244 0.0
H5514 H 0.39947 0.48449 0.99733 0.0
H5515 H 0.48815 0.48215 0.03585 0.0
H5516 H 0.46262 0.46837 0.03845 0.0
H5517 H 0.44274 0.50297 0.01599 0.0
H5518 H 0.46831 0.5162 0.01213 0.0
H5519 H 0.42725 0.47692 0.00457 0.0
H5520 H 0.4451 0.49893 0.05881 0.0
H5521 H 0.46321 0.50443 0.08348 0.0
H5522 H 0.45835 0.45623 0.08781 0.0
H5523 H 0.44037 0.45043 0.06305 0.0
C5524 C 0.36199 0.44661 0.02738 0.0
C5525 C 0.36032 0.43206 0.03291 0.0
C5526 C 0.37656 0.45544 0.02711 0.0
C5527 C 0.3898 0.44981 0.03207 0.0
C5528 C 0.38815 0.43547 0.03804 0.0
C5529 C 0.37356 0.4267 0.03848 0.0
C5530 C 0.40535 0.45873 0.03075 0.0
C5531 C 0.41618 0.46197 0.04438 0.0
C5532 C 0.40944 0.46428 0.01624 0.0
C5533 C 0.39887 0.4607 0.00118 0.0
C5534 C 0.39277 0.4454 0.99505 0.0
C5535 C 0.38264 0.44213 0.98097 0.0
C5536 C 0.37862 0.45406 0.97285 0.0
C5537 C 0.38477 0.46929 0.97875 0.0
C5538 C 0.39489 0.47262 0.99284 0.0
C5539 C 0.47839 0.48695 0.03152 0.0
C5540 C 0.4804 0.50053 0.02402 0.0
C5541 C 0.46372 0.47907 0.03316 0.0
C5542 C 0.45065 0.48478 0.02783 0.0
C5543 C 0.4526 0.49836 0.02037 0.0
C5544 C 0.46729 0.50606 0.01835 0.0
C5545 C 0.43496 0.47628 0.02943 0.0
C5546 C 0.42409 0.47304 0.01582 0.0
C5547 C 0.43085 0.47075 0.04397 0.0
C5548 C 0.44146 0.47425 0.05902 0.0
C5549 C 0.44794 0.4895 0.06499 0.0
C5550 C 0.45818 0.49267 0.07899 0.0
C5551 C 0.46194 0.48069 0.08719 0.0
C5552 C 0.45543 0.4655 0.08144 0.0
C5553 C 0.4452 0.46227 0.06744 0.0
H5554 H 0.46989 0.48316 0.09802 0.0
H5555 H 0.37077 0.45151 0.96195 0.0
H5556 H 0.37805 0.58994 0.73811 0.0
H5557 H 0.3643 0.61118 0.74026 0.0
H5558 H 0.35114 0.59897 0.78598 0.0
H5559 H 0.3636 0.57682 0.78324 0.0
H5560 H 0.32829 0.60698 0.77058 0.0
H5561 H 0.38246 0.6296 0.78057 0.0
H5562 H 0.4091 0.63476 0.77384 0.0
H5563 H 0.39444 0.65432 0.73176 0.0
H5564 H 0.36769 0.64911 0.73815 0.0
H5565 H 0.31633 0.67781 0.80789 0.0
H5566 H 0.32581 0.65447 0.79953 0.0
H5567 H 0.32882 0.66836 0.75213 0.0
H5568 H 0.31931 0.6918 0.76047 0.0
H5569 H 0.35534 0.65949 0.76494 0.0
H5570 H 0.30175 0.63948 0.75661 0.0
H5571 H 0.27511 0.63448 0.76327 0.0
H5572 H 0.28863 0.61025 0.80226 0.0
H5573 H 0.31542 0.6153 0.79598 0.0
C5574 C 0.372 0.59151 0.74851 0.0
C5575 C 0.37208 0.58155 0.76054 0.0
C5576 C 0.36432 0.6039 0.74984 0.0
C5577 C 0.35694 0.60696 0.76346 0.0
C5578 C 0.35682 0.59696 0.77538 0.0
C5579 C 0.36419 0.58437 0.7739 0.0
C5580 C 0.3494 0.62058 0.76544 0.0
C5581 C 0.3343 0.61847 0.76952 0.0
C5582 C 0.35697 0.63557 0.7635 0.0
C5583 C 0.37307 0.63883 0.75976 0.0
C5584 C 0.38492 0.63492 0.76984 0.0
C5585 C 0.40004 0.63787 0.76609 0.0
C5586 C 0.40346 0.64483 0.75236 0.0
C5587 C 0.39178 0.64891 0.74238 0.0
C5588 C 0.37664 0.64598 0.74607 0.0
C5589 C 0.31894 0.67584 0.79567 0.0
C5590 C 0.31709 0.68659 0.78483 0.0
C5591 C 0.32426 0.66247 0.79087 0.0
C5592 C 0.32792 0.65964 0.77518 0.0
C5593 C 0.32599 0.67031 0.76427 0.0
C5594 C 0.32048 0.68362 0.76902 0.0
C5595 C 0.33446 0.64587 0.77051 0.0
C5596 C 0.34934 0.64797 0.76589 0.0
C5597 C 0.32672 0.6309 0.77202 0.0
C5598 C 0.31063 0.62789 0.7759 0.0
C5599 C 0.29908 0.63321 0.7667 0.0
C5600 C 0.28394 0.63034 0.77039 0.0
C5601 C 0.28019 0.62208 0.7832 0.0
C5602 C 0.29156 0.61666 0.79234 0.0
C5603 C 0.30672 0.61951 0.78871 0.0
H5604 H 0.26846 0.61986 0.78603 0.0
H5605 H 0.41517 0.64709 0.74947 0.0
H5606 H 0.19289 0.55323 0.5245 0.0
H5607 H 0.16545 0.54232 0.51988 0.0
H5608 H 0.15488 0.58781 0.52549 0.0
H5609 H 0.18214 0.59883 0.52964 0.0
H5610 H 0.13814 0.56753 0.54298 0.0
H5611 H 0.15227 0.56974 0.48933 0.0
H5612 H 0.16716 0.56438 0.46693 0.0
H5613 H 0.15202 0.51599 0.46755 0.0
H5614 H 0.13722 0.52105 0.49014 0.0
H5615 H 0.06081 0.55231 0.52044 0.0
H5616 H 0.08717 0.56214 0.51561 0.0
H5617 H 0.09645 0.51607 0.51199 0.0
H5618 H 0.06979 0.50618 0.51612 0.0
H5619 H 0.11371 0.53608 0.49244 0.0
H5620 H 0.10139 0.53332 0.54681 0.0
H5621 H 0.08552 0.53789 0.56859 0.0
H5622 H 0.09731 0.58648 0.56668 0.0
H5623 H 0.11301 0.58215 0.54466 0.0
C5624 C 0.18471 0.5609 0.52465 0.0
C5625 C 0.18968 0.57688 0.52749 0.0
C5626 C 0.16909 0.55466 0.52202 0.0
C5627 C 0.15825 0.56431 0.52223 0.0
C5628 C 0.16314 0.58021 0.52531 0.0
C5629 C 0.17871 0.58646 0.52782 0.0
C5630 C 0.14174 0.5579 0.51954 0.0
C5631 C 0.13278 0.56081 0.53187 0.0
C5632 C 0.1349 0.54883 0.50515 0.0
C5633 C 0.1438 0.54578 0.49157 0.0
C5634 C 0.15225 0.55795 0.48481 0.0
C5635 C 0.16066 0.55497 0.47207 0.0
C5636 C 0.16061 0.53985 0.46588 0.0
C5637 C 0.1521 0.52769 0.4724 0.0
C5638 C 0.14369 0.53061 0.48516 0.0
C5639 C 0.06823 0.54426 0.51763 0.0
C5640 C 0.0634 0.52856 0.51826 0.0
C5641 C 0.08328 0.54986 0.51505 0.0
C5642 C 0.09367 0.53979 0.51357 0.0
C5643 C 0.08851 0.52394 0.513 0.0
C5644 C 0.07341 0.51835 0.51548 0.0
C5645 C 0.11021 0.54593 0.51579 0.0
C5646 C 0.11914 0.54286 0.50349 0.0
C5647 C 0.11712 0.55473 0.53027 0.0
C5648 C 0.10827 0.55741 0.544 0.0
C5649 C 0.10055 0.54497 0.551 0.0
C5650 C 0.09158 0.54752 0.56337 0.0
C5651 C 0.09039 0.56247 0.56899 0.0
C5652 C 0.09823 0.5749 0.56231 0.0
C5653 C 0.10718 0.57241 0.54988 0.0
H5654 H 0.0834 0.56442 0.57855 0.0
H5655 H 0.16709 0.53757 0.45598 0.0
H5656 H 0.69767 0.94693 0.72059 0.0
H5657 H 0.70782 0.92334 0.722 0.0
H5658 H 0.74363 0.94669 0.75845 0.0
H5659 H 0.73408 0.97051 0.75646 0.0
H5660 H 0.75253 0.92282 0.74233 0.0
H5661 H 0.70854 0.93302 0.76888 0.0
H5662 H 0.68258 0.93901 0.76939 0.0
H5663 H 0.66393 0.89818 0.73755 0.0
H5664 H 0.68985 0.89208 0.73669 0.0
H5665 H 0.75859 0.87598 0.80453 0.0
H5666 H 0.75221 0.89635 0.78892 0.0
H5667 H 0.72426 0.86234 0.75344 0.0
H5668 H 0.73076 0.84194 0.76895 0.0
H5669 H 0.71095 0.88841 0.76371 0.0
H5670 H 0.75642 0.87618 0.74343 0.0
H5671 H 0.78292 0.87142 0.7454 0.0
H5672 H 0.79943 0.91717 0.76839 0.0
H5673 H 0.77299 0.92213 0.76679 0.0
C5674 C 0.70814 0.94723 0.72833 0.0
C5675 C 0.71484 0.96038 0.73881 0.0
C5676 C 0.71389 0.93373 0.72916 0.0
C5677 C 0.72613 0.93324 0.74069 0.0
C5678 C 0.73405 0.94684 0.7496 0.0
C5679 C 0.72846 0.96037 0.74861 0.0
C5680 C 0.72862 0.91852 0.74598 0.0
C5681 C 0.74345 0.91521 0.74691 0.0
C5682 C 0.7167 0.90865 0.75191 0.0
C5683 C 0.70112 0.9122 0.75255 0.0
C5684 C 0.69891 0.92538 0.76192 0.0
C5685 C 0.68421 0.92879 0.76228 0.0
C5686 C 0.67162 0.919 0.75347 0.0
C5687 C 0.6737 0.90576 0.74433 0.0
C5688 C 0.68839 0.90233 0.7439 0.0
C5689 C 0.75079 0.87295 0.79361 0.0
C5690 C 0.74499 0.85756 0.78791 0.0
C5691 C 0.74735 0.88449 0.78463 0.0
C5692 C 0.73802 0.8807 0.76997 0.0
C5693 C 0.73158 0.86537 0.76468 0.0
C5694 C 0.73517 0.85382 0.77355 0.0
C5695 C 0.73489 0.89284 0.76027 0.0
C5696 C 0.71993 0.89571 0.75866 0.0
C5697 C 0.74677 0.90244 0.75405 0.0
C5698 C 0.76269 0.89949 0.75509 0.0
C5699 C 0.76568 0.88518 0.74903 0.0
C5700 C 0.7807 0.88246 0.75005 0.0
C5701 C 0.79285 0.89398 0.75703 0.0
C5702 C 0.79 0.90825 0.76299 0.0
C5703 C 0.775 0.91103 0.76201 0.0
H5704 H 0.80447 0.89185 0.75779 0.0
H5705 H 0.66025 0.92166 0.75376 0.0
H5706 H 0.72243 0.94063 0.51197 0.0
H5707 H 0.70069 0.95395 0.5111 0.0
H5708 H 0.6774 0.9218 0.53994 0.0
H5709 H 0.69898 0.90811 0.54049 0.0
H5710 H 0.65814 0.92672 0.51529 0.0
H5711 H 0.69306 0.95814 0.55629 0.0
H5712 H 0.71784 0.97331 0.56883 0.0
H5713 H 0.71719 0.00415 0.5327 0.0
H5714 H 0.6925 0.98904 0.5198 0.0
H5715 H 0.59877 0.97114 0.51596 0.0
H5716 H 0.61947 0.95893 0.52724 0.0
H5717 H 0.65155 0.98625 0.50126 0.0
H5718 H 0.63113 0.99859 0.4904 0.0
H5719 H 0.66523 0.983 0.52945 0.0
H5720 H 0.63238 0.94906 0.48647 0.0
H5721 H 0.60776 0.93367 0.4737 0.0
H5722 H 0.60468 0.90746 0.51386 0.0
H5723 H 0.6292 0.92284 0.52696 0.0
C5724 C 0.71266 0.93631 0.51806 0.0
C5725 C 0.71249 0.92328 0.5263 0.0
C5726 C 0.70029 0.94406 0.5177 0.0
C5727 C 0.68746 0.93902 0.52564 0.0
C5728 C 0.68719 0.92596 0.53381 0.0
C5729 C 0.6996 0.91822 0.5342 0.0
C5730 C 0.67422 0.9472 0.52498 0.0
C5731 C 0.65963 0.93898 0.5187 0.0
C5732 C 0.67613 0.96322 0.52928 0.0
C5733 C 0.69097 0.97239 0.53702 0.0
C5734 C 0.69825 0.9681 0.55095 0.0
C5735 C 0.71228 0.9767 0.55813 0.0
C5736 C 0.7191 0.98967 0.55155 0.0
C5737 C 0.7119 0.99409 0.53778 0.0
C5738 C 0.69787 0.98552 0.53054 0.0
C5739 C 0.61034 0.97479 0.51305 0.0
C5740 C 0.61333 0.98568 0.50217 0.0
C5741 C 0.62213 0.96771 0.51935 0.0
C5742 C 0.63704 0.97142 0.51484 0.0
C5743 C 0.64017 0.98309 0.50489 0.0
C5744 C 0.62847 0.99011 0.49863 0.0
C5745 C 0.64926 0.9626 0.51934 0.0
C5746 C 0.66368 0.9707 0.52632 0.0
C5747 C 0.64719 0.94647 0.51568 0.0
C5748 C 0.63251 0.93721 0.50777 0.0
C5749 C 0.62639 0.94009 0.49262 0.0
C5750 C 0.61247 0.93136 0.48532 0.0
C5751 C 0.60463 0.91963 0.49299 0.0
C5752 C 0.61074 0.91657 0.50795 0.0
C5753 C 0.62464 0.92529 0.51532 0.0
H5754 H 0.59385 0.91289 0.48731 0.0
H5755 H 0.72996 0.99632 0.55713 0.0
H5756 H 0.37939 0.42437 0.764 0.0
H5757 H 0.36278 0.3995 0.76442 0.0
H5758 H 0.32383 0.41763 0.74566 0.0
H5759 H 0.34037 0.44267 0.74538 0.0
H5760 H 0.31816 0.40029 0.77171 0.0
H5761 H 0.3392 0.39528 0.72107 0.0
H5762 H 0.3602 0.3966 0.70386 0.0
H5763 H 0.37943 0.36386 0.72966 0.0
H5764 H 0.35866 0.3625 0.74716 0.0
H5765 H 0.27025 0.32606 0.76057 0.0
H5766 H 0.28313 0.35178 0.7571 0.0
H5767 H 0.32679 0.33703 0.7618 0.0
H5768 H 0.31397 0.3112 0.76335 0.0
H5769 H 0.3282 0.35379 0.74055 0.0
H5770 H 0.31081 0.36015 0.79297 0.0
H5771 H 0.29164 0.35891 0.81235 0.0
H5772 H 0.26798 0.38873 0.78654 0.0
H5773 H 0.28692 0.39 0.76691 0.0
C5774 C 0.36727 0.42311 0.76006 0.0
C5775 C 0.3612 0.43551 0.75465 0.0
C5776 C 0.35782 0.40886 0.76021 0.0
C5777 C 0.34209 0.40669 0.75496 0.0
C5778 C 0.33594 0.41906 0.74972 0.0
C5779 C 0.34542 0.43331 0.74946 0.0
C5780 C 0.33214 0.39147 0.75495 0.0
C5781 C 0.32019 0.39011 0.76475 0.0
C5782 C 0.33503 0.37818 0.74615 0.0
C5783 C 0.34743 0.37887 0.7355 0.0
C5784 C 0.34796 0.38844 0.72314 0.0
C5785 C 0.35982 0.38918 0.71332 0.0
C5786 C 0.37116 0.38034 0.71568 0.0
C5787 C 0.37064 0.37071 0.72784 0.0
C5788 C 0.35882 0.36993 0.7377 0.0
C5789 C 0.28252 0.32817 0.7607 0.0
C5790 C 0.29087 0.3163 0.76235 0.0
C5791 C 0.28997 0.34306 0.75893 0.0
C5792 C 0.30606 0.34658 0.75944 0.0
C5793 C 0.31439 0.33478 0.76128 0.0
C5794 C 0.30694 0.31989 0.76244 0.0
C5795 C 0.31442 0.36234 0.75782 0.0
C5796 C 0.32605 0.36388 0.74756 0.0
C5797 C 0.3115 0.37572 0.76656 0.0
C5798 C 0.30018 0.37504 0.7784 0.0
C5799 C 0.30147 0.36637 0.79139 0.0
C5800 C 0.29065 0.36567 0.80242 0.0
C5801 C 0.27858 0.3737 0.80065 0.0
C5802 C 0.27732 0.38249 0.78788 0.0
C5803 C 0.2881 0.38321 0.77681 0.0
H5804 H 0.27021 0.37315 0.80919 0.0
H5805 H 0.38033 0.38094 0.70807 0.0
H5806 H 0.24191 0.60305 0.26655 0.0
H5807 H 0.25101 0.63087 0.27168 0.0
H5808 H 0.20474 0.63816 0.26023 0.0
H5809 H 0.19588 0.61049 0.25429 0.0
H5810 H 0.22326 0.65737 0.24735 0.0
H5811 H 0.22295 0.64092 0.30022 0.0
H5812 H 0.22968 0.62535 0.32156 0.0
H5813 H 0.27752 0.64311 0.32032 0.0
H5814 H 0.27108 0.65864 0.29884 0.0
H5815 H 0.24155 0.73447 0.26703 0.0
H5816 H 0.23027 0.70963 0.27482 0.0
H5817 H 0.27487 0.6968 0.27833 0.0
H5818 H 0.28626 0.72202 0.27143 0.0
H5819 H 0.25517 0.68116 0.29782 0.0
H5820 H 0.25605 0.69337 0.24276 0.0
H5821 H 0.25078 0.70962 0.22166 0.0
H5822 H 0.20267 0.69952 0.22673 0.0
H5823 H 0.20774 0.68344 0.24821 0.0
C5824 C 0.23381 0.6107 0.26499 0.0
C5825 C 0.21829 0.60484 0.25995 0.0
C5826 C 0.23893 0.6265 0.26809 0.0
C5827 C 0.22846 0.63654 0.2667 0.0
C5828 C 0.21298 0.63061 0.26143 0.0
C5829 C 0.20795 0.61487 0.25798 0.0
C5830 C 0.23365 0.65327 0.2703 0.0
C5831 C 0.22993 0.66255 0.25855 0.0
C5832 C 0.24266 0.66003 0.28477 0.0
C5833 C 0.24653 0.65087 0.29786 0.0
C5834 C 0.2349 0.64145 0.30445 0.0
C5835 C 0.23867 0.63263 0.31658 0.0
C5836 C 0.25402 0.63322 0.32227 0.0
C5837 C 0.26563 0.64267 0.3159 0.0
C5838 C 0.26193 0.65149 0.30377 0.0
C5839 C 0.24904 0.72675 0.27053 0.0
C5840 C 0.26471 0.73006 0.2689 0.0
C5841 C 0.24259 0.71253 0.27485 0.0
C5842 C 0.25174 0.70138 0.27686 0.0
C5843 C 0.26767 0.7053 0.27686 0.0
C5844 C 0.27413 0.71959 0.27278 0.0
C5845 C 0.24461 0.68506 0.27496 0.0
C5846 C 0.24812 0.67589 0.28686 0.0
C5847 C 0.23547 0.67832 0.2606 0.0
C5848 C 0.23229 0.68733 0.24717 0.0
C5849 C 0.24435 0.69464 0.23939 0.0
C5850 C 0.2414 0.70384 0.22737 0.0
C5851 C 0.2264 0.70564 0.22283 0.0
C5852 C 0.21429 0.69815 0.23027 0.0
C5853 C 0.2172 0.68899 0.24238 0.0
H5854 H 0.22415 0.71281 0.21354 0.0
H5855 H 0.25691 0.62637 0.33164 0.0
H5856 H 0.47986 0.67544 0.46695 0.0
H5857 H 0.4812 0.65015 0.47537 0.0
H5858 H 0.52981 0.65807 0.47191 0.0
H5859 H 0.52849 0.68308 0.46286 0.0
H5860 H 0.51837 0.62972 0.46012 0.0
H5861 H 0.51279 0.65991 0.50914 0.0
H5862 H 0.50022 0.67647 0.52663 0.0
H5863 H 0.45944 0.64181 0.52073 0.0
H5864 H 0.47171 0.62513 0.50305 0.0
H5865 H 0.539 0.56961 0.50014 0.0
H5866 H 0.53562 0.59441 0.49248 0.0
H5867 H 0.4881 0.58441 0.50096 0.0
H5868 H 0.49202 0.5599 0.51032 0.0
H5869 H 0.49737 0.61316 0.5094 0.0
H5870 H 0.50227 0.58259 0.46128 0.0
H5871 H 0.51434 0.56518 0.44424 0.0
H5872 H 0.55506 0.59968 0.44757 0.0
H5873 H 0.54331 0.6172 0.46485 0.0
C5874 C 0.49087 0.67185 0.46782 0.0
C5875 C 0.50406 0.68166 0.46418 0.0
C5876 C 0.49165 0.6573 0.47288 0.0
C5877 C 0.50567 0.652 0.47461 0.0
C5878 C 0.51881 0.66169 0.47083 0.0
C5879 C 0.51805 0.67622 0.46577 0.0
C5880 C 0.50669 0.6364 0.48009 0.0
C5881 C 0.51391 0.62624 0.47101 0.0
C5882 C 0.50047 0.63132 0.49403 0.0
C5883 C 0.49311 0.64135 0.50465 0.0
C5884 C 0.5011 0.65588 0.51148 0.0
C5885 C 0.49404 0.66527 0.52145 0.0
C5886 C 0.47902 0.66021 0.52475 0.0
C5887 C 0.47106 0.64573 0.51814 0.0
C5888 C 0.47806 0.63629 0.50816 0.0
C5889 C 0.52793 0.57275 0.50088 0.0
C5890 C 0.51598 0.56268 0.50632 0.0
C5891 C 0.52585 0.58696 0.49604 0.0
C5892 C 0.51146 0.59147 0.49561 0.0
C5893 C 0.49938 0.58143 0.50104 0.0
C5894 C 0.50161 0.56728 0.50634 0.0
C5895 C 0.5092 0.60655 0.48952 0.0
C5896 C 0.50175 0.61659 0.49846 0.0
C5897 C 0.51503 0.61145 0.47533 0.0
C5898 C 0.52193 0.60117 0.46444 0.0
C5899 C 0.51381 0.58645 0.4584 0.0
C5900 C 0.5206 0.57655 0.44871 0.0
C5901 C 0.53547 0.58131 0.44484 0.0
C5902 C 0.54354 0.59601 0.45058 0.0
C5903 C 0.53681 0.60593 0.4603 0.0
H5904 H 0.54072 0.57362 0.43738 0.0
H5905 H 0.47357 0.6675 0.53247 0.0
H5906 H 0.61287 0.28749 0.686 0.0
H5907 H 0.63658 0.28649 0.70252 0.0
H5908 H 0.6588 0.27892 0.66001 0.0
H5909 H 0.63516 0.28007 0.64336 0.0
H5910 H 0.66709 0.26074 0.68065 0.0
H5911 H 0.66598 0.31422 0.68391 0.0
H5912 H 0.65534 0.33779 0.68862 0.0
H5913 H 0.6517 0.32986 0.73766 0.0
H5914 H 0.66212 0.30611 0.73319 0.0
H5915 H 0.74451 0.29147 0.72682 0.0
H5916 H 0.72107 0.29309 0.70984 0.0
H5917 H 0.69403 0.26491 0.73946 0.0
H5918 H 0.71736 0.26268 0.75612 0.0
H5919 H 0.6893 0.30165 0.72476 0.0
H5920 H 0.6852 0.24383 0.71691 0.0
H5921 H 0.69835 0.22202 0.71143 0.0
H5922 H 0.71446 0.24097 0.6698 0.0
H5923 H 0.70157 0.26301 0.67523 0.0
C5924 C 0.62281 0.28582 0.68007 0.0
C5925 C 0.62191 0.28396 0.66318 0.0
C5926 C 0.63645 0.2852 0.68961 0.0
C5927 C 0.64972 0.28279 0.68264 0.0
C5928 C 0.64883 0.28076 0.66581 0.0
C5929 C 0.63518 0.28138 0.65624 0.0
C5930 C 0.66442 0.28234 0.69287 0.0
C5931 C 0.67186 0.26976 0.69024 0.0
C5932 C 0.671 0.29407 0.70544 0.0
C5933 C 0.66467 0.3083 0.70817 0.0
C5934 C 0.66278 0.31743 0.69567 0.0
C5935 C 0.65682 0.33084 0.6983 0.0
C5936 C 0.6528 0.3353 0.71341 0.0
C5937 C 0.65478 0.32638 0.72595 0.0
C5938 C 0.66073 0.31295 0.72337 0.0
C5939 C 0.7336 0.28556 0.72975 0.0
C5940 C 0.73296 0.27697 0.74298 0.0
C5941 C 0.72018 0.28653 0.72 0.0
C5942 C 0.70574 0.27906 0.72328 0.0
C5943 C 0.70501 0.27069 0.73658 0.0
C5944 C 0.71842 0.26952 0.74619 0.0
C5945 C 0.69147 0.27991 0.71278 0.0
C5946 C 0.6843 0.29262 0.71526 0.0
C5947 C 0.68519 0.26843 0.70003 0.0
C5948 C 0.69257 0.25507 0.69654 0.0
C5949 C 0.69163 0.24337 0.70666 0.0
C5950 C 0.69902 0.23097 0.70356 0.0
C5951 C 0.70725 0.23011 0.69029 0.0
C5952 C 0.70809 0.24165 0.68008 0.0
C5953 C 0.70075 0.25409 0.68316 0.0
H5954 H 0.71298 0.22052 0.68793 0.0
H5955 H 0.64819 0.34569 0.71543 0.0
H5956 H 0.02762 0.35198 0.95025 0.0
H5957 H 0.02896 0.37924 0.95859 0.0
H5958 H 0.99777 0.36774 0.99362 0.0
H5959 H 0.99613 0.34046 0.98502 0.0
H5960 H 0.98963 0.38992 0.98112 0.0
H5961 H 0.03867 0.38288 0.00287 0.0
H5962 H 0.06399 0.37527 0.00349 0.0
H5963 H 0.07721 0.40654 0.96933 0.0
H5964 H 0.05187 0.41419 0.96833 0.0
H5965 H 0.0031 0.46539 0.02351 0.0
H5966 H 1.0022 0.43821 0.0156 0.0
H5967 H 0.02677 0.44943 0.97536 0.0
H5968 H 0.02737 0.4768 0.98303 0.0
H5969 H 0.03841 0.42763 0.99098 0.0
H5970 H 0.98763 0.43376 0.96997 0.0
H5971 H 0.96195 0.44038 0.97079 0.0
H5972 H 0.95264 0.41045 0.00715 0.0
H5973 H 0.97828 0.40366 0.00654 0.0
C5974 C 0.02118 0.35521 0.95988 0.0
C5975 C 0.01179 0.34384 0.96695 0.0
C5976 C 0.02198 0.37092 0.96471 0.0
C5977 C 0.01366 0.37584 0.977 0.0
C5978 C 0.00434 0.36448 0.98411 0.0
C5979 C 0.00339 0.34877 0.97916 0.0
C5980 C 0.01421 0.39272 0.98203 0.0
C5981 C 1.00038 0.39805 0.98351 0.0
C5982 C 0.02811 0.40367 0.98498 0.0
C5983 C 0.0433 0.39898 0.98538 0.0
C5984 C 0.04692 0.38803 0.99537 0.0
C5985 C 0.06129 0.38373 0.99581 0.0
C5986 C 0.07218 0.39038 0.98641 0.0
C5987 C 0.06874 0.40137 0.97657 0.0
C5988 C 0.05438 0.4057 0.97607 0.0
C5989 C 0.00806 0.46218 0.01279 0.0
C5990 C 0.01502 0.4735 0.00378 0.0
C5991 C 0.00759 0.44649 0.00828 0.0
C5992 C 0.01424 0.44155 0.9947 0.0
C5993 C 0.02147 0.45281 0.98584 0.0
C5994 C 0.02178 0.46853 0.99025 0.0
C5995 C 0.01386 0.42471 0.98997 0.0
C5996 C 0.02772 0.41943 0.98858 0.0
C5997 C 1.00003 0.41374 0.98745 0.0
C5998 C 0.98488 0.41828 0.98826 0.0
C5999 C 0.98015 0.42869 0.97822 0.0
C6000 C 0.96558 0.4324 0.97859 0.0
C6001 C 0.95565 0.42577 0.98896 0.0
C6002 C 0.96032 0.41551 0.99907 0.0
C6003 C 0.97485 0.41171 0.9987 0.0
H6004 H 0.94435 0.42862 0.98919 0.0
H6005 H 0.08331 0.38705 0.98679 0.0
H6006 H 0.98508 0.7823 0.18189 0.0
H6007 H 0.96236 0.77991 0.19618 0.0
H6008 H 0.93341 0.76829 0.1513 0.0
H6009 H 0.95617 0.77069 0.13685 0.0
H6010 H 0.92089 0.78657 0.17098 0.0
H6011 H 0.94074 0.74047 0.17573 0.0
H6012 H 0.96046 0.72498 0.18194 0.0
H6013 H 0.96691 0.74495 0.23098 0.0
H6014 H 0.94737 0.76072 0.22501 0.0
H6015 H 0.85428 0.75589 0.20943 0.0
H6016 H 0.87512 0.76074 0.19233 0.0
H6017 H 0.90808 0.77182 0.23443 0.0
H6018 H 0.88744 0.7668 0.25138 0.0
H6019 H 0.91755 0.75273 0.21444 0.0
H6020 H 0.89767 0.79926 0.20932 0.0
H6021 H 0.87786 0.81455 0.20275 0.0
H6022 H 0.87101 0.79333 0.15415 0.0
H6023 H 0.89064 0.77776 0.16049 0.0
C6024 C 0.97391 0.77912 0.17499 0.0
C6025 C 0.97259 0.77651 0.15815 0.0
C6026 C 0.96086 0.77779 0.18323 0.0
C6027 C 0.94605 0.77362 0.17491 0.0
C6028 C 0.94464 0.77147 0.15807 0.0
C6029 C 0.95773 0.77288 0.1498 0.0
C6030 C 0.93215 0.77114 0.18385 0.0
C6031 C 0.92008 0.77902 0.18035 0.0
C6032 C 0.93102 0.76142 0.19623 0.0
C6033 C 0.94269 0.75187 0.19989 0.0
C6034 C 0.94644 0.74163 0.18781 0.0
C6035 C 0.95757 0.73279 0.19129 0.0
C6036 C 0.96496 0.73401 0.20683 0.0
C6037 C 0.96119 0.74404 0.21894 0.0
C6038 C 0.95008 0.75291 0.21552 0.0
C6039 C 0.86595 0.75962 0.21501 0.0
C6040 C 0.86917 0.7608 0.2318 0.0
C6041 C 0.8779 0.7624 0.20522 0.0
C6042 C 0.89331 0.76665 0.21201 0.0
C6043 C 0.89639 0.76841 0.22879 0.0
C6044 C 0.88453 0.76554 0.23851 0.0
C6045 C 0.9064 0.76845 0.20189 0.0
C6046 C 0.91832 0.76032 0.20509 0.0
C6047 C 0.90732 0.77789 0.18923 0.0
C6048 C 0.8955 0.78722 0.18543 0.0
C6049 C 0.89185 0.79776 0.19727 0.0
C6050 C 0.88067 0.8065 0.19358 0.0
C6051 C 0.87315 0.80488 0.17806 0.0
C6052 C 0.87682 0.79455 0.16618 0.0
C6053 C 0.88798 0.78578 0.16981 0.0
H6054 H 0.8645 0.81166 0.17522 0.0
H6055 H 0.97358 0.72716 0.2095 0.0
H6056 H 0.53317 0.3144 0.11073 0.0
H6057 H 0.53515 0.3372 0.0965 0.0
H6058 H 0.50543 0.35585 0.12741 0.0
H6059 H 0.50332 0.33301 0.14165 0.0
H6060 H 0.49805 0.36147 0.09783 0.0
H6061 H 0.54516 0.36847 0.13218 0.0
H6062 H 0.56904 0.36154 0.14396 0.0
H6063 H 0.5853 0.35859 0.09762 0.0
H6064 H 0.56141 0.36531 0.08553 0.0
H6065 H 0.51995 0.44042 0.08326 0.0
H6066 H 0.5142 0.41574 0.09431 0.0
H6067 H 0.54069 0.39595 0.06047 0.0
H6068 H 0.54631 0.42061 0.04939 0.0
H6069 H 0.5493 0.39073 0.09099 0.0
H6070 H 0.50202 0.38501 0.05705 0.0
H6071 H 0.47818 0.39253 0.04601 0.0
H6072 H 0.46235 0.39398 0.09258 0.0
H6073 H 0.48621 0.38668 0.10395 0.0
C6074 C 0.52712 0.32338 0.1146 0.0
C6075 C 0.51816 0.32182 0.12747 0.0
C6076 C 0.52825 0.33646 0.10641 0.0
C6077 C 0.52063 0.34847 0.11097 0.0
C6078 C 0.51143 0.34681 0.1236 0.0
C6079 C 0.51022 0.33369 0.13174 0.0
C6080 C 0.52243 0.3628 0.10273 0.0
C6081 C 0.50927 0.36795 0.09652 0.0
C6082 C 0.53704 0.37123 0.10069 0.0
C6083 C 0.55143 0.36724 0.10793 0.0
C6084 C 0.55378 0.36624 0.12449 0.0
C6085 C 0.56732 0.36236 0.13122 0.0
C6086 C 0.57866 0.35958 0.12154 0.0
C6087 C 0.5765 0.36072 0.10511 0.0
C6088 C 0.56296 0.36457 0.09831 0.0
C6089 C 0.52413 0.43065 0.0779 0.0
C6090 C 0.53331 0.4323 0.06528 0.0
C6091 C 0.5209 0.41656 0.08425 0.0
C6092 C 0.52696 0.40389 0.07822 0.0
C6093 C 0.53584 0.40549 0.06532 0.0
C6094 C 0.53894 0.41953 0.05889 0.0
C6095 C 0.52494 0.38936 0.08604 0.0
C6096 C 0.53808 0.3842 0.09223 0.0
C6097 C 0.51033 0.38104 0.08818 0.0
C6098 C 0.49598 0.38545 0.08138 0.0
C6099 C 0.49352 0.38707 0.06497 0.0
C6100 C 0.47999 0.39126 0.05864 0.0
C6101 C 0.46878 0.39377 0.0686 0.0
C6102 C 0.47106 0.39206 0.08489 0.0
C6103 C 0.48458 0.38788 0.09128 0.0
H6104 H 0.4583 0.39701 0.06368 0.0
H6105 H 0.58914 0.35659 0.12677 0.0
H6106 H 0.95468 0.30251 0.30533 0.0
H6107 H 0.92739 0.30103 0.29708 0.0
H6108 H 0.9165 0.2617 0.32285 0.0
H6109 H 0.94383 0.26298 0.33095 0.0
H6110 H 0.89821 0.25684 0.29654 0.0
H6111 H 0.91189 0.30004 0.33686 0.0
H6112 H 0.92676 0.32489 0.34963 0.0
H6113 H 0.91377 0.3465 0.30839 0.0
H6114 H 0.89898 0.32172 0.29528 0.0
H6115 H 0.81938 0.26404 0.30537 0.0
H6116 H 0.84699 0.26505 0.31133 0.0
H6117 H 0.85547 0.29169 0.27198 0.0
H6118 H 0.8278 0.28945 0.26501 0.0
H6119 H 0.87467 0.30309 0.30422 0.0
H6120 H 0.8593 0.25964 0.26491 0.0
H6121 H 0.84445 0.23465 0.25266 0.0
H6122 H 0.8608 0.21312 0.29259 0.0
H6123 H 0.87521 0.23813 0.30546 0.0
C6124 C 0.94652 0.29356 0.30935 0.0
C6125 C 0.95169 0.28293 0.31895 0.0
C6126 C 0.93079 0.29274 0.30462 0.0
C6127 C 0.91957 0.28143 0.30953 0.0
C6128 C 0.92472 0.2706 0.31883 0.0
C6129 C 0.94048 0.27133 0.32345 0.0
C6130 C 0.90259 0.28091 0.30509 0.0
C6131 C 0.8931 0.26695 0.29847 0.0
C6132 C 0.89567 0.29408 0.30715 0.0
C6133 C 0.90447 0.309 0.31503 0.0
C6134 C 0.91229 0.31007 0.33047 0.0
C6135 C 0.92069 0.32415 0.33778 0.0
C6136 C 0.92124 0.33726 0.32981 0.0
C6137 C 0.91335 0.33633 0.31454 0.0
C6138 C 0.90495 0.32228 0.30717 0.0
C6139 C 0.82702 0.26977 0.29769 0.0
C6140 C 0.82111 0.27642 0.2845 0.0
C6141 C 0.8429 0.27052 0.30127 0.0
C6142 C 0.85344 0.27839 0.2921 0.0
C6143 C 0.84766 0.28554 0.27929 0.0
C6144 C 0.83174 0.28436 0.27539 0.0
C6145 C 0.87042 0.27905 0.29585 0.0
C6146 C 0.87984 0.29301 0.30234 0.0
C6147 C 0.87723 0.26585 0.29378 0.0
C6148 C 0.86816 0.25086 0.2863 0.0
C6149 C 0.85948 0.24966 0.27127 0.0
C6150 C 0.85115 0.23547 0.26419 0.0
C6151 C 0.85163 0.22232 0.27187 0.0
C6152 C 0.86038 0.22334 0.28668 0.0
C6153 C 0.86857 0.23753 0.29392 0.0
H6154 H 0.84527 0.21133 0.26632 0.0
H6155 H 0.92776 0.34814 0.33548 0.0
H6156 H 0.03008 0.6658 0.63788 0.0
H6157 H 0.03183 0.64218 0.62162 0.0
H6158 H 0.99479 0.64884 0.58798 0.0
H6159 H 0.99312 0.6727 0.60404 0.0
H6160 H 0.99126 0.61911 0.59331 0.0
H6161 H 0.03228 0.65617 0.57952 0.0
H6162 H 0.05542 0.67642 0.5846 0.0
H6163 H 0.08039 0.64549 0.60691 0.0
H6164 H 0.05732 0.6251 0.60216 0.0
H6165 H 1.00301 0.56489 0.52972 0.0
H6166 H 1.00069 0.58844 0.54616 0.0
H6167 H 0.03711 0.58154 0.58052 0.0
H6168 H 0.03957 0.55811 0.56387 0.0
H6169 H 0.04084 0.61136 0.57472 0.0
H6170 H 0.9998 0.57428 0.5885 0.0
H6171 H 0.97678 0.55392 0.58304 0.0
H6172 H 0.95193 0.58478 0.56041 0.0
H6173 H 0.97488 0.60529 0.56557 0.0
C6174 C 0.02239 0.66244 0.62693 0.0
C6175 C 0.01153 0.67145 0.62234 0.0
C6176 C 0.02338 0.64879 0.61762 0.0
C6177 C 0.01359 0.64368 0.60336 0.0
C6178 C 1.00251 0.65243 0.59889 0.0
C6179 C 1.00153 0.66613 0.60818 0.0
C6180 C 0.015 0.62931 0.59313 0.0
C6181 C 1.00207 0.61754 0.58908 0.0
C6182 C 0.02914 0.62695 0.58779 0.0
C6183 C 0.04303 0.63916 0.59063 0.0
C6184 C 0.04267 0.65372 0.58563 0.0
C6185 C 0.05578 0.66522 0.58842 0.0
C6186 C 0.06935 0.66226 0.59611 0.0
C6187 C 0.06986 0.64777 0.60098 0.0
C6188 C 0.05677 0.63624 0.59823 0.0
C6189 C 0.01054 0.56845 0.54076 0.0
C6190 C 0.02141 0.55964 0.54556 0.0
C6191 C 0.00914 0.58187 0.55023 0.0
C6192 C 0.01862 0.58682 0.56476 0.0
C6193 C 0.02962 0.57804 0.56945 0.0
C6194 C 0.03095 0.56457 0.56 0.0
C6195 C 0.01712 0.60116 0.57494 0.0
C6196 C 0.03003 0.61293 0.57896 0.0
C6197 C 1.00298 0.60352 0.58024 0.0
C6198 C 0.9891 0.59128 0.57729 0.0
C6199 C 0.98946 0.5767 0.58227 0.0
C6200 C 0.97642 0.56513 0.57924 0.0
C6201 C 0.96291 0.56804 0.57134 0.0
C6202 C 0.96241 0.58254 0.56651 0.0
C6203 C 0.97542 0.59414 0.5695 0.0
H6204 H 0.95283 0.55906 0.56899 0.0
H6205 H 0.07949 0.67117 0.59827 0.0
H6206 H 0.60841 0.7943 0.7999 0.0
H6207 H 0.63357 0.79212 0.79132 0.0
H6208 H 0.64582 0.77395 0.83526 0.0
H6209 H 0.62088 0.77636 0.84403 0.0
H6210 H 0.66947 0.79402 0.82914 0.0
H6211 H 0.63631 0.75127 0.79766 0.0
H6212 H 0.61431 0.7382 0.77846 0.0
H6213 H 0.63143 0.76484 0.74192 0.0
H6214 H 0.65342 0.77823 0.76097 0.0
H6215 H 0.73913 0.77252 0.80763 0.0
H6216 H 0.71363 0.77338 0.81587 0.0
H6217 H 0.69856 0.7843 0.76896 0.0
H6218 H 0.72386 0.78266 0.76055 0.0
H6219 H 0.67598 0.76741 0.77665 0.0
H6220 H 0.70566 0.81318 0.80818 0.0
H6221 H 0.72641 0.82861 0.82737 0.0
H6222 H 0.716 0.79772 0.86258 0.0
H6223 H 0.69469 0.78243 0.8438 0.0
C6224 C 0.61643 0.78989 0.80782 0.0
C6225 C 0.61229 0.78546 0.82272 0.0
C6226 C 0.63089 0.78849 0.80279 0.0
C6227 C 0.64182 0.78266 0.81246 0.0
C6228 C 0.63777 0.77841 0.8274 0.0
C6229 C 0.62331 0.7797 0.83238 0.0
C6230 C 0.65753 0.78132 0.80733 0.0
C6231 C 0.67079 0.788 0.81772 0.0
C6232 C 0.65966 0.77388 0.79225 0.0
C6233 C 0.64642 0.76588 0.7808 0.0
C6234 C 0.63531 0.75444 0.78558 0.0
C6235 C 0.62286 0.74696 0.77471 0.0
C6236 C 0.62145 0.75072 0.759 0.0
C6237 C 0.63251 0.76196 0.75411 0.0
C6238 C 0.64498 0.76949 0.76493 0.0
C6239 C 0.73042 0.77525 0.79911 0.0
C6240 C 0.7337 0.77759 0.7834 0.0
C6241 C 0.71573 0.77587 0.80388 0.0
C6242 C 0.70386 0.77934 0.7933 0.0
C6243 C 0.70723 0.78165 0.77757 0.0
C6244 C 0.72183 0.78075 0.77272 0.0
C6245 C 0.68799 0.7803 0.79841 0.0
C6246 C 0.67468 0.77348 0.78805 0.0
C6247 C 0.68577 0.78779 0.81343 0.0
C6248 C 0.69877 0.79659 0.82455 0.0
C6249 C 0.70788 0.80963 0.81998 0.0
C6250 C 0.71971 0.81837 0.83079 0.0
C6251 C 0.72271 0.81403 0.84609 0.0
C6252 C 0.7137 0.80105 0.85071 0.0
C6253 C 0.70167 0.79241 0.84004 0.0
H6254 H 0.73194 0.8208 0.85439 0.0
H6255 H 0.6118 0.7449 0.7506 0.0
H6256 H 0.43349 0.51114 0.66494 0.0
H6257 H 0.44393 0.51279 0.63928 0.0
H6258 H 0.48987 0.52167 0.66359 0.0
H6259 H 0.47951 0.51995 0.68936 0.0
H6260 H 0.48807 0.54032 0.64114 0.0
H6261 H 0.47432 0.48663 0.64324 0.0
H6262 H 0.45784 0.46212 0.64659 0.0
H6263 H 0.42664 0.46746 0.60646 0.0
H6264 H 0.44283 0.49213 0.60302 0.0
H6265 H 0.52159 0.51078 0.5704 0.0
H6266 H 0.51066 0.51055 0.5959 0.0
H6267 H 0.47475 0.53267 0.57686 0.0
H6268 H 0.48606 0.53368 0.55141 0.0
H6269 H 0.47185 0.49871 0.59631 0.0
H6270 H 0.48683 0.55532 0.59739 0.0
H6271 H 0.50589 0.57835 0.5947 0.0
H6272 H 0.5377 0.56506 0.62971 0.0
H6273 H 0.51889 0.54178 0.63237 0.0
C6274 C 0.44583 0.51325 0.66486 0.0
C6275 C 0.45564 0.5153 0.67927 0.0
C6276 C 0.45179 0.51424 0.65014 0.0
C6277 C 0.46771 0.5172 0.64944 0.0
C6278 C 0.47755 0.51941 0.6638 0.0
C6279 C 0.47159 0.51844 0.67854 0.0
C6280 C 0.47404 0.51803 0.63372 0.0
C6281 C 0.48451 0.53117 0.6314 0.0
C6282 C 0.46952 0.50611 0.62092 0.0
C6283 C 0.4597 0.49132 0.62299 0.0
C6284 C 0.46387 0.48265 0.63523 0.0
C6285 C 0.4546 0.46871 0.63712 0.0
C6286 C 0.44118 0.46326 0.62678 0.0
C6287 C 0.43702 0.47171 0.61449 0.0
C6288 C 0.44625 0.48568 0.61255 0.0
C6289 C 0.51148 0.5158 0.57165 0.0
C6290 C 0.50474 0.52234 0.55885 0.0
C6291 C 0.50523 0.51559 0.58623 0.0
C6292 C 0.49202 0.52172 0.58828 0.0
C6293 C 0.48507 0.52803 0.57552 0.0
C6294 C 0.49149 0.52852 0.56098 0.0
C6295 C 0.48538 0.52113 0.60372 0.0
C6296 C 0.47511 0.50791 0.60604 0.0
C6297 C 0.49025 0.53283 0.61657 0.0
C6298 C 0.50155 0.54674 0.61491 0.0
C6299 C 0.49796 0.55721 0.60435 0.0
C6300 C 0.50869 0.57034 0.60289 0.0
C6301 C 0.52299 0.57318 0.61204 0.0
C6302 C 0.52661 0.56286 0.62264 0.0
C6303 C 0.51593 0.5497 0.62412 0.0
H6304 H 0.53128 0.58334 0.61088 0.0
H6305 H 0.43402 0.45245 0.62826 0.0
H6306 H 0.74976 0.17612 0.96463 0.0
H6307 H 0.74773 0.18772 0.9398 0.0
H6308 H 0.79391 0.18257 0.93252 0.0
H6309 H 0.79641 0.17157 0.95802 0.0
H6310 H 0.78594 0.21033 0.923 0.0
H6311 H 0.76644 0.15604 0.91449 0.0
H6312 H 0.75098 0.13192 0.92058 0.0
H6313 H 0.70984 0.15022 0.91211 0.0
H6314 H 0.72508 0.17454 0.90621 0.0
H6315 H 0.76839 0.22077 0.84009 0.0
H6316 H 0.77775 0.21136 0.86489 0.0
H6317 H 0.73189 0.20497 0.87905 0.0
H6318 H 0.72251 0.21367 0.85404 0.0
H6319 H 0.74344 0.18125 0.8838 0.0
H6320 H 0.76248 0.23621 0.89512 0.0
H6321 H 0.77756 0.26112 0.89059 0.0
H6322 H 0.81886 0.24248 0.89444 0.0
H6323 H 0.80401 0.21741 0.89883 0.0
C6324 C 0.7597 0.17784 0.95807 0.0
C6325 C 0.77324 0.17282 0.96328 0.0
C6326 C 0.75845 0.18436 0.94379 0.0
C6327 C 0.77057 0.18571 0.93426 0.0
C6328 C 0.78441 0.1815 0.93973 0.0
C6329 C 0.78574 0.17507 0.95417 0.0
C6330 C 0.7681 0.1903 0.91804 0.0
C6331 C 0.77683 0.2039 0.91427 0.0
C6332 C 0.75614 0.18189 0.90681 0.0
C6333 C 0.74691 0.16713 0.90997 0.0
C6334 C 0.7541 0.15494 0.91399 0.0
C6335 C 0.74538 0.14124 0.91741 0.0
C6336 C 0.72944 0.13954 0.91674 0.0
C6337 C 0.72218 0.15154 0.91261 0.0
C6338 C 0.73086 0.16528 0.90921 0.0
C6339 C 0.76037 0.21725 0.84853 0.0
C6340 C 0.74473 0.21773 0.8452 0.0
C6341 C 0.76572 0.21203 0.86272 0.0
C6342 C 0.75554 0.20761 0.8739 0.0
C6343 C 0.73994 0.20823 0.87055 0.0
C6344 C 0.73456 0.21314 0.85628 0.0
C6345 C 0.76079 0.20174 0.88889 0.0
C6346 C 0.75267 0.18771 0.89239 0.0
C6347 C 0.77322 0.20986 0.89985 0.0
C6348 C 0.78211 0.22489 0.8971 0.0
C6349 C 0.77476 0.23739 0.89486 0.0
C6350 C 0.78327 0.25155 0.89235 0.0
C6351 C 0.79915 0.25336 0.89217 0.0
C6352 C 0.80656 0.24104 0.89455 0.0
C6353 C 0.7981 0.22687 0.89706 0.0
H6354 H 0.80572 0.26433 0.89024 0.0
H6355 H 0.7227 0.12893 0.91941 0.0
H6356 H 0.11427 0.55108 0.18278 0.0
H6357 H 0.09851 0.55127 0.15743 0.0
H6358 H 0.10589 0.50593 0.14161 0.0
H6359 H 0.12174 0.50571 0.16688 0.0
H6360 H 0.10915 0.52625 0.11819 0.0
H6361 H 0.07368 0.5085 0.15478 0.0
H6362 H 0.06159 0.50942 0.1799 0.0
H6363 H 0.04812 0.55196 0.17042 0.0
H6364 H 0.06035 0.55141 0.14534 0.0
H6365 H 0.04954 0.50182 0.05573 0.0
H6366 H 0.06706 0.50471 0.08021 0.0
H6367 H 0.05389 0.5478 0.0951 0.0
H6368 H 0.03588 0.54469 0.07068 0.0
H6369 H 0.05436 0.53027 0.1189 0.0
H6370 H 0.08859 0.54617 0.08018 0.0
H6371 H 0.09989 0.54336 0.05468 0.0
H6372 H 0.1149 0.50251 0.06764 0.0
H6373 H 0.10358 0.50495 0.09314 0.0
C6374 C 0.1126 0.54122 0.17382 0.0
C6375 C 0.11909 0.52835 0.17672 0.0
C6376 C 0.10359 0.54132 0.15944 0.0
C6377 C 0.10105 0.52859 0.14779 0.0
C6378 C 0.10778 0.51585 0.15052 0.0
C6379 C 0.11668 0.51569 0.16495 0.0
C6380 C 0.09098 0.52836 0.13292 0.0
C6381 C 0.09715 0.52704 0.11828 0.0
C6382 C 0.07542 0.52962 0.13321 0.0
C6383 C 0.0681 0.53001 0.14829 0.0
C6384 C 0.06828 0.51813 0.15814 0.0
C6385 C 0.06137 0.51857 0.17235 0.0
C6386 C 0.05414 0.53077 0.17678 0.0
C6387 C 0.05376 0.54254 0.16699 0.0
C6388 C 0.06067 0.54217 0.15277 0.0
C6389 C 0.05048 0.51197 0.06417 0.0
C6390 C 0.0415 0.5231 0.06139 0.0
C6391 C 0.06051 0.51363 0.0781 0.0
C6392 C 0.06196 0.52661 0.08927 0.0
C6393 C 0.05295 0.53774 0.08654 0.0
C6394 C 0.0427 0.53596 0.07268 0.0
C6395 C 0.0725 0.52822 0.10409 0.0
C6396 C 0.06642 0.52974 0.11876 0.0
C6397 C 0.0881 0.52701 0.10379 0.0
C6398 C 0.0952 0.52573 0.08858 0.0
C6399 C 0.09425 0.53656 0.07758 0.0
C6400 C 0.10064 0.53503 0.06312 0.0
C6401 C 0.10809 0.52278 0.05957 0.0
C6402 C 0.10915 0.51201 0.07044 0.0
C6403 C 0.10278 0.51348 0.08491 0.0
H6404 H 0.11311 0.52169 0.04845 0.0
H6405 H 0.04879 0.53108 0.18778 0.0
H6406 H 0.79305 0.81858 0.45037 0.0
H6407 H 0.79311 0.80682 0.42295 0.0
H6408 H 0.76282 0.83597 0.40559 0.0
H6409 H 0.76239 0.84741 0.433 0.0
H6410 H 0.75377 0.80839 0.3912 0.0
H6411 H 0.80365 0.84199 0.40259 0.0
H6412 H 0.82898 0.85129 0.41809 0.0
H6413 H 0.84047 0.80663 0.40944 0.0
H6414 H 0.81513 0.79702 0.39405 0.0
H6415 H 0.76404 0.80546 0.30891 0.0
H6416 H 0.76452 0.81348 0.33743 0.0
H6417 H 0.79017 0.77838 0.34877 0.0
H6418 H 0.78911 0.76978 0.32018 0.0
H6419 H 0.80201 0.80636 0.3668 0.0
H6420 H 0.75429 0.77307 0.35382 0.0
H6421 H 0.72844 0.7615 0.34078 0.0
H6422 H 0.71238 0.80309 0.35408 0.0
H6423 H 0.73828 0.81516 0.36664 0.0
C6424 C 0.78643 0.82249 0.44069 0.0
C6425 C 0.77772 0.83395 0.44388 0.0
C6426 C 0.78653 0.81581 0.42498 0.0
C6427 C 0.77819 0.82066 0.41205 0.0
C6428 C 0.76936 0.83199 0.41528 0.0
C6429 C 0.76909 0.83851 0.43099 0.0
C6430 C 0.77839 0.81389 0.39516 0.0
C6431 C 0.76433 0.80821 0.38579 0.0
C6432 C 0.79216 0.81291 0.38826 0.0
C6433 C 0.80746 0.81876 0.3973 0.0
C6434 C 0.81156 0.83414 0.40407 0.0
C6435 C 0.82592 0.83946 0.41283 0.0
C6436 C 0.83631 0.82955 0.41478 0.0
C6437 C 0.8324 0.8143 0.40793 0.0
C6438 C 0.81805 0.80891 0.39918 0.0
C6439 C 0.76963 0.79929 0.31741 0.0
C6440 C 0.77643 0.78687 0.31213 0.0
C6441 C 0.76995 0.80395 0.33377 0.0
C6442 C 0.77727 0.79647 0.3453 0.0
C6443 C 0.78444 0.78434 0.34012 0.0
C6444 C 0.78389 0.77948 0.32372 0.0
C6445 C 0.77735 0.80141 0.36271 0.0
C6446 C 0.79145 0.80664 0.37218 0.0
C6447 C 0.7636 0.80186 0.36977 0.0
C6448 C 0.74831 0.79508 0.36106 0.0
C6449 C 0.74536 0.77989 0.35366 0.0
C6450 C 0.73067 0.77321 0.34639 0.0
C6451 C 0.7188 0.78154 0.34666 0.0
C6452 C 0.72161 0.79666 0.3539 0.0
C6453 C 0.73631 0.80345 0.36102 0.0
H6454 H 0.70739 0.77626 0.34134 0.0
H6455 H 0.84742 0.83369 0.42158 0.0
H6456 H 0.4417 0.50204 0.84734 0.0
H6457 H 0.45378 0.50293 0.87474 0.0
H6458 H 0.49364 0.53328 0.86343 0.0
H6459 H 0.48157 0.53243 0.83588 0.0
H6460 H 0.50057 0.50891 0.88073 0.0
H6461 H 0.47069 0.54849 0.88452 0.0
H6462 H 0.44739 0.55969 0.88056 0.0
H6463 H 0.42397 0.5273 0.90875 0.0
H6464 H 0.44708 0.51575 0.91268 0.0
H6465 H 0.53219 0.52379 0.96318 0.0
H6466 H 0.52355 0.52492 0.93498 0.0
H6467 H 0.47712 0.50652 0.94332 0.0
H6468 H 0.48566 0.50679 0.97175 0.0
H6469 H 0.47524 0.5274 0.9267 0.0
H6470 H 0.5034 0.48507 0.91917 0.0
H6471 H 0.52602 0.47258 0.92141 0.0
H6472 H 0.55224 0.50938 0.90072 0.0
H6473 H 0.52962 0.52183 0.89782 0.0
C6474 C 0.45308 0.50882 0.85064 0.0
C6475 C 0.46069 0.51715 0.83944 0.0
C6476 C 0.45993 0.5094 0.86633 0.0
C6477 C 0.47457 0.51824 0.87115 0.0
C6478 C 0.48232 0.5264 0.85996 0.0
C6479 C 0.47539 0.52598 0.84427 0.0
C6480 C 0.48164 0.51892 0.88792 0.0
C6481 C 0.49516 0.51311 0.89082 0.0
C6482 C 0.47447 0.52422 0.90106 0.0
C6483 C 0.46058 0.53117 0.89877 0.0
C6484 C 0.46054 0.54367 0.88976 0.0
C6485 C 0.44737 0.5501 0.88755 0.0
C6486 C 0.4342 0.54419 0.89437 0.0
C6487 C 0.43418 0.53186 0.90346 0.0
C6488 C 0.44731 0.52538 0.90569 0.0
C6489 C 0.52017 0.5199 0.95886 0.0
C6490 C 0.50955 0.51528 0.96953 0.0
C6491 C 0.51522 0.52038 0.94269 0.0
C6492 C 0.49964 0.51559 0.93675 0.0
C6493 C 0.48917 0.51042 0.94747 0.0
C6494 C 0.49403 0.5105 0.96371 0.0
C6495 C 0.49393 0.51672 0.91972 0.0
C6496 C 0.4807 0.52308 0.91671 0.0
C6497 C 0.5013 0.51179 0.90649 0.0
C6498 C 0.51491 0.50443 0.90844 0.0
C6499 C 0.51402 0.49052 0.91518 0.0
C6500 C 0.52682 0.48344 0.91655 0.0
C6501 C 0.54062 0.49028 0.91145 0.0
C6502 C 0.54158 0.50412 0.90474 0.0
C6503 C 0.52874 0.51113 0.9031 0.0
H6504 H 0.55052 0.4848 0.9126 0.0
H6505 H 0.42402 0.54918 0.89264 0.0
H6506 H 0.7642 0.15616 0.12471 0.0
H6507 H 0.76575 0.17262 0.14998 0.0
H6508 H 0.77144 0.21266 0.1244 0.0
H6509 H 0.77029 0.19628 0.09924 0.0
H6510 H 0.79151 0.21684 0.15027 0.0
H6511 H 0.73698 0.1982 0.13772 0.0
H6512 H 0.71368 0.17828 0.13107 0.0
H6513 H 0.7232 0.15962 0.17525 0.0
H6514 H 0.74666 0.17932 0.18206 0.0
H6515 H 0.75933 0.2631 0.21367 0.0
H6516 H 0.75777 0.2467 0.18839 0.0
H6517 H 0.78996 0.22165 0.2101 0.0
H6518 H 0.79182 0.23804 0.23532 0.0
H6519 H 0.75065 0.21032 0.18662 0.0
H6520 H 0.81125 0.22368 0.18924 0.0
H6521 H 0.83356 0.24477 0.19653 0.0
H6522 H 0.8097 0.27509 0.17172 0.0
H6523 H 0.78723 0.25417 0.16443 0.0
C6524 C 0.76565 0.16847 0.12455 0.0
C6525 C 0.76711 0.17506 0.11019 0.0
C6526 C 0.76653 0.17782 0.13891 0.0
C6527 C 0.76858 0.1938 0.13895 0.0
C6528 C 0.76991 0.20035 0.12456 0.0
C6529 C 0.76922 0.19103 0.11026 0.0
C6530 C 0.76953 0.20379 0.15402 0.0
C6531 C 0.78253 0.21539 0.15815 0.0
C6532 C 0.75784 0.20188 0.16433 0.0
C6533 C 0.74364 0.19015 0.16032 0.0
C6534 C 0.73415 0.18979 0.14596 0.0
C6535 C 0.72091 0.17855 0.14218 0.0
C6536 C 0.71698 0.16767 0.15272 0.0
C6537 C 0.72626 0.16804 0.16709 0.0
C6538 C 0.73952 0.17925 0.17093 0.0
C6539 C 0.76623 0.25423 0.21299 0.0
C6540 C 0.77572 0.25183 0.22639 0.0
C6541 C 0.76523 0.24486 0.19864 0.0
C6542 C 0.77374 0.2331 0.19761 0.0
C6543 C 0.78337 0.23077 0.21084 0.0
C6544 C 0.78438 0.24011 0.22518 0.0
C6545 C 0.77252 0.22312 0.18264 0.0
C6546 C 0.75955 0.21159 0.17863 0.0
C6547 C 0.78411 0.22508 0.1724 0.0
C6548 C 0.7977 0.23743 0.17625 0.0
C6549 C 0.81085 0.23484 0.18529 0.0
C6550 C 0.82347 0.24676 0.18946 0.0
C6551 C 0.82306 0.26126 0.18456 0.0
C6552 C 0.81001 0.26386 0.17549 0.0
C6553 C 0.79734 0.25199 0.17134 0.0
H6554 H 0.83283 0.27047 0.18781 0.0
H6555 H 0.70673 0.15897 0.14976 0.0
H6556 H 0.1118 0.49898 0.31865 0.0
H6557 H 0.09735 0.50037 0.34201 0.0
H6558 H 0.12455 0.54499 0.35882 0.0
H6559 H 0.13912 0.54352 0.33584 0.0
H6560 H 0.11983 0.52739 0.38317 0.0
H6561 H 0.08968 0.54119 0.33708 0.0
H6562 H 0.0755 0.53619 0.31001 0.0
H6563 H 0.04597 0.49748 0.32422 0.0
H6564 H 0.06011 0.50216 0.35132 0.0
H6565 H 0.07898 0.5736 0.42651 0.0
H6566 H 0.09114 0.56191 0.40486 0.0
H6567 H 0.05924 0.51938 0.40423 0.0
H6568 H 0.04709 0.53101 0.42602 0.0
H6569 H 0.06449 0.52942 0.3731 0.0
H6570 H 0.09144 0.51857 0.4205 0.0
H6571 H 0.10463 0.52439 0.44796 0.0
H6572 H 0.13968 0.55707 0.43184 0.0
H6573 H 0.12655 0.55165 0.40428 0.0
C6574 C 0.11481 0.50894 0.32751 0.0
C6575 C 0.12645 0.52122 0.32542 0.0
C6576 C 0.10653 0.50976 0.34075 0.0
C6577 C 0.10982 0.52284 0.35202 0.0
C6578 C 0.12184 0.5348 0.35025 0.0
C6579 C 0.13006 0.53401 0.33706 0.0
C6580 C 0.10036 0.52471 0.36528 0.0
C6581 C 0.10773 0.5278 0.38099 0.0
C6582 C 0.08446 0.52474 0.36245 0.0
C6583 C 0.07608 0.52188 0.34613 0.0
C6584 C 0.08026 0.53152 0.33437 0.0
C6585 C 0.07221 0.52877 0.31904 0.0
C6586 C 0.05988 0.51649 0.31538 0.0
C6587 C 0.05555 0.50696 0.32705 0.0
C6588 C 0.06357 0.50966 0.3424 0.0
C6589 C 0.07445 0.56184 0.42158 0.0
C6590 C 0.06216 0.55317 0.42785 0.0
C6591 C 0.08144 0.55516 0.40935 0.0
C6592 C 0.07614 0.53977 0.40317 0.0
C6593 C 0.06348 0.53124 0.40896 0.0
C6594 C 0.0566 0.53787 0.42135 0.0
C6595 C 0.08412 0.53268 0.3908 0.0
C6596 C 0.07649 0.5286 0.37532 0.0
C6597 C 0.09975 0.53168 0.39385 0.0
C6598 C 0.10792 0.53479 0.41033 0.0
C6599 C 0.1019 0.52708 0.42281 0.0
C6600 C 0.10937 0.53029 0.4384 0.0
C6601 C 0.12294 0.54114 0.44165 0.0
C6602 C 0.12914 0.54869 0.42929 0.0
C6603 C 0.1217 0.54554 0.41368 0.0
H6604 H 0.12862 0.54368 0.45374 0.0
H6605 H 0.05365 0.51439 0.3035 0.0
H6606 H 0.78878 0.81964 0.59633 0.0
H6607 H 0.78855 0.80876 0.62189 0.0
H6608 H 0.76408 0.8431 0.64024 0.0
H6609 H 0.76477 0.85439 0.61497 0.0
H6610 H 0.78626 0.83994 0.66211 0.0
H6611 H 0.74605 0.80549 0.62824 0.0
H6612 H 0.73451 0.78774 0.60432 0.0
H6613 H 0.76615 0.75787 0.61489 0.0
H6614 H 0.77802 0.77556 0.63877 0.0
H6615 H 0.76405 0.8068 0.73132 0.0
H6616 H 0.7642 0.81701 0.70545 0.0
H6617 H 0.78683 0.781 0.68732 0.0
H6618 H 0.78608 0.77035 0.71301 0.0
H6619 H 0.76596 0.78493 0.66525 0.0
H6620 H 0.80613 0.81962 0.69942 0.0
H6621 H 0.81692 0.8372 0.72372 0.0
H6622 H 0.78484 0.86652 0.7128 0.0
H6623 H 0.77376 0.84905 0.6885 0.0
C6624 C 0.78344 0.82496 0.60583 0.0
C6625 C 0.77675 0.83789 0.60349 0.0
C6626 C 0.78318 0.81862 0.62042 0.0
C6627 C 0.77614 0.82498 0.633 0.0
C6628 C 0.76954 0.83793 0.63074 0.0
C6629 C 0.76981 0.84429 0.61618 0.0
C6630 C 0.77583 0.81832 0.6486 0.0
C6631 C 0.78166 0.82794 0.66279 0.0
C6632 C 0.77014 0.80259 0.64955 0.0
C6633 C 0.76303 0.79194 0.6352 0.0
C6634 C 0.75063 0.79521 0.62539 0.0
C6635 C 0.74401 0.78514 0.61185 0.0
C6636 C 0.74962 0.77171 0.60806 0.0
C6637 C 0.76183 0.76829 0.61783 0.0
C6638 C 0.7685 0.77833 0.63137 0.0
C6639 C 0.76909 0.80108 0.72184 0.0
C6640 C 0.77511 0.7878 0.72425 0.0
C6641 C 0.76924 0.80697 0.70704 0.0
C6642 C 0.7758 0.79999 0.69443 0.0
C6643 C 0.78172 0.78665 0.69681 0.0
C6644 C 0.78133 0.78058 0.71153 0.0
C6645 C 0.77641 0.80654 0.67877 0.0
C6646 C 0.77063 0.79691 0.66457 0.0
C6647 C 0.78214 0.82227 0.6778 0.0
C6648 C 0.78906 0.83297 0.69219 0.0
C6649 C 0.80135 0.82979 0.70223 0.0
C6650 C 0.80751 0.83973 0.716 0.0
C6651 C 0.80154 0.85294 0.71982 0.0
C6652 C 0.78944 0.85628 0.70983 0.0
C6653 C 0.78324 0.84638 0.69603 0.0
H6654 H 0.8063 0.8606 0.73051 0.0
H6655 H 0.74448 0.76393 0.59758 0.0
H6656 H 0.72362 0.48363 0.48775 0.0
H6657 H 0.69979 0.49255 0.49255 0.0
H6658 H 0.67582 0.44561 0.48818 0.0
H6659 H 0.69943 0.43671 0.48291 0.0
H6660 H 0.65689 0.46413 0.47841 0.0
H6661 H 0.69417 0.46341 0.52412 0.0
H6662 H 0.71967 0.47066 0.53972 0.0
H6663 H 0.71604 0.51821 0.54176 0.0
H6664 H 0.6906 0.51123 0.52596 0.0
H6665 H 0.60127 0.46759 0.53311 0.0
H6666 H 0.62294 0.46156 0.51941 0.0
H6667 H 0.64404 0.50948 0.52612 0.0
H6668 H 0.62284 0.51545 0.54032 0.0
H6669 H 0.66424 0.49218 0.53306 0.0
H6670 H 0.62542 0.49248 0.48966 0.0
H6671 H 0.59991 0.48491 0.47414 0.0
H6672 H 0.60606 0.43808 0.46809 0.0
H6673 H 0.63154 0.44534 0.48373 0.0
C6674 C 0.71311 0.47529 0.48725 0.0
C6675 C 0.7133 0.45952 0.48516 0.0
C6676 C 0.69956 0.48037 0.49002 0.0
C6677 C 0.68621 0.4697 0.49113 0.0
C6678 C 0.68604 0.454 0.48742 0.0
C6679 C 0.69952 0.44893 0.4844 0.0
C6680 C 0.67324 0.47457 0.49852 0.0
C6681 C 0.65844 0.47024 0.49036 0.0
C6682 C 0.67537 0.48265 0.51407 0.0
C6683 C 0.69058 0.48681 0.52372 0.0
C6684 C 0.69886 0.47541 0.52782 0.0
C6685 C 0.71329 0.47947 0.5367 0.0
C6686 C 0.71949 0.49489 0.5417 0.0
C6687 C 0.71124 0.50627 0.53786 0.0
C6688 C 0.69682 0.50227 0.52894 0.0
C6689 C 0.61068 0.47675 0.53188 0.0
C6690 C 0.6104 0.49198 0.5377 0.0
C6691 C 0.6229 0.47335 0.52386 0.0
C6692 C 0.63489 0.48514 0.52149 0.0
C6693 C 0.63482 0.50026 0.52772 0.0
C6694 C 0.6227 0.50364 0.53578 0.0
C6695 C 0.64783 0.48176 0.51297 0.0
C6696 C 0.66265 0.48628 0.521 0.0
C6697 C 0.64567 0.47383 0.49736 0.0
C6698 C 0.63033 0.46944 0.48799 0.0
C6699 C 0.62128 0.48055 0.48513 0.0
C6700 C 0.60683 0.47632 0.47629 0.0
C6701 C 0.60135 0.46102 0.47017 0.0
C6702 C 0.61032 0.44992 0.47285 0.0
C6703 C 0.62476 0.45409 0.48168 0.0
H6704 H 0.59017 0.45777 0.46332 0.0
H6705 H 0.73066 0.49801 0.54857 0.0
H6706 H 0.19367 0.09324 0.51621 0.0
H6707 H 0.1679 0.07804 0.51621 0.0
H6708 H 0.14889 0.10937 0.48774 0.0
H6709 H 0.17468 0.1245 0.48752 0.0
H6710 H 0.13384 0.10287 0.51554 0.0
H6711 H 0.14987 0.07642 0.46994 0.0
H6712 H 0.16702 0.06297 0.45501 0.0
H6713 H 0.16297 0.02803 0.48694 0.0
H6714 H 0.14598 0.04142 0.50224 0.0
H6715 H 0.05845 0.05822 0.49636 0.0
H6716 H 0.08402 0.07255 0.49394 0.0
H6717 H 0.10435 0.04212 0.52249 0.0
H6718 H 0.07884 0.02802 0.52549 0.0
H6719 H 0.1185 0.04805 0.49371 0.0
H6720 H 0.10857 0.07701 0.54236 0.0
H6721 H 0.09346 0.09104 0.55955 0.0
H6722 H 0.08614 0.11992 0.52265 0.0
H6723 H 0.10177 0.10642 0.50552 0.0
C6724 C 0.18399 0.09683 0.50989 0.0
C6725 C 0.18616 0.11004 0.50185 0.0
C6726 C 0.1693 0.08811 0.50984 0.0
C6727 C 0.1565 0.09255 0.50192 0.0
C6728 C 0.15863 0.10573 0.49388 0.0
C6729 C 0.17335 0.11431 0.49369 0.0
C6730 C 0.14084 0.08374 0.50259 0.0
C6731 C 0.13042 0.09096 0.5105 0.0
C6732 C 0.13651 0.06807 0.49645 0.0
C6733 C 0.14679 0.06003 0.48735 0.0
C6734 C 0.15277 0.06596 0.47389 0.0
C6735 C 0.16243 0.05833 0.46533 0.0
C6736 C 0.16612 0.04468 0.47005 0.0
C6737 C 0.16012 0.03862 0.48332 0.0
C6738 C 0.15047 0.04623 0.49193 0.0
C6739 C 0.06833 0.05451 0.5021 0.0
C6740 C 0.06652 0.0418 0.51094 0.0
C6741 C 0.08295 0.06277 0.50075 0.0
C6742 C 0.09607 0.0584 0.50805 0.0
C6743 C 0.09437 0.04562 0.51669 0.0
C6744 C 0.07974 0.03751 0.51828 0.0
C6745 C 0.11157 0.06722 0.50663 0.0
C6746 C 0.12194 0.05999 0.49862 0.0
C6747 C 0.11595 0.08284 0.51276 0.0
C6748 C 0.10614 0.09063 0.52265 0.0
C6749 C 0.10364 0.08629 0.53791 0.0
C6750 C 0.09507 0.09419 0.54765 0.0
C6751 C 0.08866 0.10623 0.54211 0.0
C6752 C 0.09104 0.11055 0.5269 0.0
C6753 C 0.09986 0.10287 0.51722 0.0
H6754 H 0.08194 0.11226 0.54965 0.0
H6755 H 0.17359 0.03878 0.4634 0.0
H6756 H 0.15724 0.94341 0.77438 0.0
H6757 H 0.17044 0.92157 0.77254 0.0
H6758 H 0.21397 0.95251 0.77672 0.0
H6759 H 0.2009 0.97439 0.77878 0.0
H6760 H 0.21197 0.9308 0.75245 0.0
H6761 H 0.20288 0.93191 0.8075 0.0
H6762 H 0.18757 0.93221 0.83037 0.0
H6763 H 0.16049 0.88851 0.81104 0.0
H6764 H 0.17551 0.88805 0.78792 0.0
H6765 H 0.25853 0.87517 0.75634 0.0
H6766 H 0.24657 0.8965 0.76631 0.0
H6767 H 0.20229 0.8666 0.75891 0.0
H6768 H 0.21431 0.84527 0.74905 0.0
H6769 H 0.20514 0.8878 0.78606 0.0
H6770 H 0.21321 0.88756 0.73042 0.0
H6771 H 0.22858 0.88709 0.7076 0.0
H6772 H 0.25747 0.92944 0.72825 0.0
H6773 H 0.2424 0.93002 0.75135 0.0
C6774 C 0.16964 0.9456 0.77519 0.0
C6775 C 0.17797 0.96073 0.77668 0.0
C6776 C 0.17718 0.93306 0.77412 0.0
C6777 C 0.19323 0.93535 0.77459 0.0
C6778 C 0.20158 0.95042 0.77628 0.0
C6779 C 0.19406 0.96295 0.77737 0.0
C6780 C 0.20128 0.92209 0.77245 0.0
C6781 C 0.21066 0.92155 0.76 0.0
C6782 C 0.1993 0.90978 0.78201 0.0
C6783 C 0.19023 0.91002 0.79589 0.0
C6784 C 0.19358 0.92242 0.80805 0.0
C6785 C 0.18496 0.92261 0.82107 0.0
C6786 C 0.17304 0.91041 0.82214 0.0
C6787 C 0.16972 0.89797 0.81019 0.0
C6788 C 0.17829 0.89773 0.79713 0.0
C6789 C 0.24633 0.8731 0.75735 0.0
C6790 C 0.23732 0.85864 0.75208 0.0
C6791 C 0.23948 0.88527 0.76293 0.0
C6792 C 0.22349 0.88321 0.76316 0.0
C6793 C 0.21463 0.86847 0.75887 0.0
C6794 C 0.22148 0.8563 0.75326 0.0
C6795 C 0.21588 0.89665 0.76618 0.0
C6796 C 0.20652 0.89716 0.77865 0.0
C6797 C 0.21783 0.90897 0.75665 0.0
C6798 C 0.22678 0.90875 0.74268 0.0
C6799 C 0.22291 0.89671 0.73015 0.0
C6800 C 0.23156 0.89643 0.71716 0.0
C6801 C 0.24402 0.90821 0.71649 0.0
C6802 C 0.24783 0.92031 0.7288 0.0
C6803 C 0.23924 0.92063 0.74184 0.0
H6804 H 0.2507 0.90797 0.70643 0.0
H6805 H 0.16639 0.91057 0.83224 0.0
H6806 H 0.36185 0.97704 0.04238 0.0
H6807 H 0.38963 0.98663 0.04448 0.0
H6808 H 0.39013 0.96857 0.9953 0.0
H6809 H 0.36251 0.95904 0.99311 0.0
H6810 H 0.41247 0.96024 0.01765 0.0
H6811 H 0.39253 0.00434 0.00191 0.0
H6812 H 0.37732 0.02489 0.00417 0.0
H6813 H 0.40169 0.04223 0.0504 0.0
H6814 H 0.41691 0.02163 0.0485 0.0
H6815 H 0.47928 0.99772 0.98924 0.0
H6816 H 0.45343 0.98647 0.99478 0.0
H6817 H 0.46218 0.01103 0.04231 0.0
H6818 H 0.48778 0.02261 0.03653 0.0
H6819 H 0.43602 0.01552 0.02553 0.0
H6820 H 0.45897 0.97333 0.03883 0.0
H6821 H 0.47512 0.9538 0.03481 0.0
H6822 H 0.44581 0.9333 0.9922 0.0
H6823 H 0.42959 0.95285 0.99581 0.0
C6824 C 0.36794 0.97526 0.03203 0.0
C6825 C 0.36017 0.96744 0.01757 0.0
C6826 C 0.3837 0.9807 0.03324 0.0
C6827 C 0.39176 0.97819 0.02005 0.0
C6828 C 0.384 0.97051 0.00558 0.0
C6829 C 0.36827 0.96525 0.00431 0.0
C6830 C 0.4084 0.98339 0.02125 0.0
C6831 C 0.41768 0.97231 0.01935 0.0
C6832 C 0.41504 0.99912 0.02389 0.0
C6833 C 0.40567 0.0113 0.02519 0.0
C6834 C 0.3945 0.01241 0.01266 0.0
C6835 C 0.38591 0.0241 0.01384 0.0
C6836 C 0.38848 0.03482 0.02745 0.0
C6837 C 0.39967 0.03388 0.03989 0.0
C6838 C 0.40827 0.0222 0.03877 0.0
C6839 C 0.47568 1.00044 0.00092 0.0
C6840 C 0.48544 0.0106 0.01267 0.0
C6841 C 0.46106 0.99399 0.00412 0.0
C6842 C 0.4561 0.99778 0.01904 0.0
C6843 C 0.46596 0.00786 0.03082 0.0
C6844 C 0.48058 0.01429 0.02761 0.0
C6845 C 0.44011 0.99239 0.02165 0.0
C6846 C 0.43091 0.00343 0.02424 0.0
C6847 C 0.43356 0.97663 0.0196 0.0
C6848 C 0.44308 0.96461 0.01757 0.0
C6849 C 0.45599 0.9647 0.02856 0.0
C6850 C 0.46516 0.95362 0.02635 0.0
C6851 C 0.46149 0.94232 0.01325 0.0
C6852 C 0.44862 0.94205 0.00235 0.0
C6853 C 0.43942 0.95311 0.00449 0.0
H6854 H 0.46862 0.93376 0.01155 0.0
H6855 H 0.38185 0.04388 0.02833 0.0
H6856 H 0.82367 0.58163 0.80558 0.0
H6857 H 0.81249 0.60499 0.80509 0.0
H6858 H 0.84527 0.62267 0.7737 0.0
H6859 H 0.85631 0.59946 0.77408 0.0
H6860 H 0.84056 0.64475 0.79836 0.0
H6861 H 0.81152 0.6043 0.7578 0.0
H6862 H 0.79534 0.57887 0.74934 0.0
H6863 H 0.76192 0.58992 0.77984 0.0
H6864 H 0.77802 0.61535 0.78864 0.0
H6865 H 0.81666 0.69121 0.74312 0.0
H6866 H 0.82562 0.67284 0.75961 0.0
H6867 H 0.78163 0.6639 0.77789 0.0
H6868 H 0.77228 0.68158 0.76067 0.0
H6869 H 0.78902 0.63838 0.76803 0.0
H6870 H 0.81503 0.68148 0.8029 0.0
H6871 H 0.83097 0.70701 0.81129 0.0
H6872 H 0.86966 0.69173 0.79275 0.0
H6873 H 0.85392 0.66617 0.78404 0.0
C6874 C 0.82855 0.59065 0.79878 0.0
C6875 C 0.84069 0.58882 0.78974 0.0
C6876 C 0.8222 0.60391 0.79851 0.0
C6877 C 0.8281 0.61547 0.78936 0.0
C6878 C 0.84065 0.61388 0.78089 0.0
C6879 C 0.84683 0.60061 0.781 0.0
C6880 C 0.82061 0.62873 0.78729 0.0
C6881 C 0.82925 0.64347 0.79182 0.0
C6882 C 0.80566 0.62691 0.77929 0.0
C6883 C 0.79606 0.61161 0.77405 0.0
C6884 C 0.8008 0.60123 0.76282 0.0
C6885 C 0.79163 0.58684 0.75794 0.0
C6886 C 0.77764 0.58275 0.7641 0.0
C6887 C 0.77277 0.59308 0.77512 0.0
C6888 C 0.78192 0.60748 0.78006 0.0
C6889 C 0.8089 0.68537 0.75067 0.0
C6890 C 0.79371 0.68775 0.75044 0.0
C6891 C 0.81412 0.67507 0.76033 0.0
C6892 C 0.80435 0.66714 0.77017 0.0
C6893 C 0.78938 0.66996 0.77047 0.0
C6894 C 0.7841 0.68015 0.76067 0.0
C6895 C 0.80922 0.65459 0.77848 0.0
C6896 C 0.80009 0.6399 0.7751 0.0
C6897 C 0.8237 0.6565 0.78763 0.0
C6898 C 0.83325 0.67189 0.79277 0.0
C6899 C 0.82691 0.68358 0.80051 0.0
C6900 C 0.83592 0.69807 0.80534 0.0
C6901 C 0.85131 0.701 0.80254 0.0
C6902 C 0.85774 0.68944 0.79492 0.0
C6903 C 0.84878 0.67494 0.79007 0.0
H6904 H 0.85827 0.71221 0.8063 0.0
H6905 H 0.77055 0.57161 0.76029 0.0
H6906 H 0.84933 0.63606 0.00536 0.0
H6907 H 0.87098 0.62261 0.00681 0.0
H6908 H 0.83999 0.5799 0.0083 0.0
H6909 H 0.81826 0.59323 0.0067 0.0
H6910 H 0.86332 0.58346 0.0311 0.0
H6911 H 0.85801 0.58757 0.97483 0.0
H6912 H 0.85585 0.60064 0.95045 0.0
H6913 H 0.90032 0.62853 0.9647 0.0
H6914 H 0.90266 0.61578 0.9893 0.0
H6915 H 0.92073 0.53825 0.02823 0.0
H6916 H 0.89814 0.54821 0.01794 0.0
H6917 H 0.9258 0.59342 0.02059 0.0
H6918 H 0.94831 0.58349 0.03086 0.0
H6919 H 0.90346 0.58696 0.99388 0.0
H6920 H 0.90754 0.58484 0.05099 0.0
H6921 H 0.91006 0.57207 0.07554 0.0
H6922 H 0.8678 0.54079 0.05962 0.0
H6923 H 0.86517 0.55323 0.03482 0.0
C6924 C 0.84707 0.62376 0.00571 0.0
C6925 C 0.83201 0.61576 0.00595 0.0
C6926 C 0.85949 0.61608 0.00655 0.0
C6927 C 0.85713 0.6002 0.00753 0.0
C6928 C 0.84211 0.59215 0.00758 0.0
C6929 C 0.82969 0.59982 0.00674 0.0
C6930 C 0.87036 0.59213 0.00941 0.0
C6931 C 0.87191 0.58399 0.02275 0.0
C6932 C 0.88182 0.5931 0.99877 0.0
C6933 C 0.88045 0.60081 0.98399 0.0
C6934 C 0.86728 0.59658 0.97284 0.0
C6935 C 0.86603 0.60391 0.95896 0.0
C6936 C 0.87792 0.61543 0.95604 0.0
C6937 C 0.89111 0.61961 0.96698 0.0
C6938 C 0.89241 0.61233 0.98089 0.0
C6939 C 0.92203 0.5502 0.02615 0.0
C6940 C 0.93618 0.56015 0.03041 0.0
C6941 C 0.90914 0.5559 0.02037 0.0
C6942 C 0.91026 0.5716 0.01869 0.0
C6943 C 0.92466 0.58129 0.0218 0.0
C6944 C 0.93748 0.57563 0.02771 0.0
C6945 C 0.89629 0.5783 0.01548 0.0
C6946 C 0.89469 0.58626 0.00202 0.0
C6947 C 0.88478 0.57723 0.02602 0.0
C6948 C 0.88626 0.56984 0.04097 0.0
C6949 C 0.89885 0.57515 0.05266 0.0
C6950 C 0.90029 0.56799 0.06663 0.0
C6951 C 0.88912 0.5556 0.06912 0.0
C6952 C 0.87646 0.55037 0.05766 0.0
C6953 C 0.87499 0.55747 0.04365 0.0
H6954 H 0.89024 0.55007 0.07995 0.0
H6955 H 0.87694 0.62109 0.94529 0.0
H6956 H 0.18781 0.10429 0.75424 0.0
H6957 H 0.2029 0.12969 0.75303 0.0
H6958 H 0.19833 0.14214 0.80275 0.0
H6959 H 0.18255 0.11696 0.80388 0.0
H6960 H 0.19428 0.16508 0.78555 0.0
H6961 H 0.23197 0.13252 0.79036 0.0
H6962 H 0.2436 0.11011 0.78273 0.0
H6963 H 0.24879 0.12484 0.7362 0.0
H6964 H 0.23701 0.14724 0.74348 0.0
H6965 H 0.2496 0.2333 0.79541 0.0
H6966 H 0.23589 0.20755 0.79807 0.0
H6967 H 0.24319 0.1926 0.74967 0.0
H6968 H 0.25773 0.21817 0.74737 0.0
H6969 H 0.24588 0.17084 0.76673 0.0
H6970 H 0.20832 0.20322 0.76127 0.0
H6971 H 0.19675 0.22579 0.76835 0.0
H6972 H 0.1906 0.21152 0.81492 0.0
H6973 H 0.20243 0.18902 0.80824 0.0
C6974 C 0.18983 0.11245 0.7649 0.0
C6975 C 0.18392 0.10848 0.77917 0.0
C6976 C 0.19865 0.12695 0.76423 0.0
C6977 C 0.20197 0.1378 0.77787 0.0
C6978 C 0.19599 0.13396 0.79209 0.0
C6979 C 0.18709 0.11947 0.79275 0.0
C6980 C 0.21159 0.15316 0.77724 0.0
C6981 C 0.20565 0.16635 0.78164 0.0
C6982 C 0.22628 0.15486 0.77175 0.0
C6983 C 0.2335 0.14148 0.76742 0.0
C6984 C 0.2355 0.13092 0.77847 0.0
C6985 C 0.24213 0.11823 0.77421 0.0
C6986 C 0.2469 0.11603 0.75898 0.0
C6987 C 0.24508 0.12655 0.74799 0.0
C6988 C 0.23845 0.13925 0.75218 0.0
C6989 C 0.24838 0.22445 0.7854 0.0
C6990 C 0.25465 0.2277 0.77116 0.0
C6991 C 0.24043 0.20977 0.78687 0.0
C6992 C 0.23809 0.19816 0.77392 0.0
C6993 C 0.24475 0.20132 0.75983 0.0
C6994 C 0.25306 0.21593 0.75851 0.0
C6995 C 0.22856 0.18282 0.77497 0.0
C6996 C 0.23451 0.16962 0.77065 0.0
C6997 C 0.21381 0.18113 0.78039 0.0
C6998 C 0.20638 0.19449 0.78429 0.0
C6999 C 0.20457 0.20493 0.77305 0.0
C7000 C 0.19797 0.21772 0.777 0.0
C7001 C 0.19296 0.2201 0.79209 0.0
C7002 C 0.1945 0.20967 0.80325 0.0
C7003 C 0.20115 0.1969 0.79939 0.0
H7004 H 0.18786 0.23001 0.79513 0.0
H7005 H 0.25202 0.1062 0.75571 0.0
H7006 H 0.31017 0.93582 0.25263 0.0
H7007 H 0.30031 0.90833 0.25251 0.0
H7008 H 0.32351 0.90961 0.29997 0.0
H7009 H 0.33332 0.93706 0.30018 0.0
H7010 H 0.3305 0.8876 0.27791 0.0
H7011 H 0.28719 0.90347 0.29715 0.0
H7012 H 0.26573 0.91741 0.29873 0.0
H7013 H 0.24502 0.89486 0.25269 0.0
H7014 H 0.26652 0.88095 0.25071 0.0
H7015 H 0.29878 0.81015 0.28747 0.0
H7016 H 0.30688 0.83808 0.29093 0.0
H7017 H 0.28272 0.84055 0.24469 0.0
H7018 H 0.27421 0.81255 0.24152 0.0
H7019 H 0.27623 0.86086 0.26808 0.0
H7020 H 0.32191 0.84395 0.25123 0.0
H7021 H 0.34301 0.82943 0.25391 0.0
H7022 H 0.35942 0.85419 0.30004 0.0
H7023 H 0.33813 0.86847 0.29804 0.0
C7024 C 0.31292 0.93024 0.2631 0.0
C7025 C 0.32243 0.93845 0.27641 0.0
C7026 C 0.30726 0.91463 0.26306 0.0
C7027 C 0.31121 0.90706 0.27625 0.0
C7028 C 0.32035 0.91534 0.28973 0.0
C7029 C 0.32584 0.93097 0.28986 0.0
C7030 C 0.30688 0.89028 0.27535 0.0
C7031 C 0.31864 0.88171 0.27597 0.0
C7032 C 0.29141 0.88276 0.27275 0.0
C7033 C 0.27858 0.89131 0.27368 0.0
C7034 C 0.27817 0.90162 0.28726 0.0
C7035 C 0.26597 0.90949 0.28825 0.0
C7036 C 0.25404 0.90706 0.27579 0.0
C7037 C 0.25429 0.89675 0.26232 0.0
C7038 C 0.26648 0.88887 0.26125 0.0
C7039 C 0.29551 0.81672 0.27796 0.0
C7040 C 0.28618 0.80948 0.26412 0.0
C7041 C 0.30007 0.83259 0.27994 0.0
C7042 C 0.29553 0.8413 0.26797 0.0
C7043 C 0.28636 0.83396 0.254 0.0
C7044 C 0.28164 0.81808 0.25212 0.0
C7045 C 0.29987 0.85814 0.27026 0.0
C7046 C 0.2881 0.86674 0.26995 0.0
C7047 C 0.31536 0.86568 0.27355 0.0
C7048 C 0.32831 0.85721 0.27453 0.0
C7049 C 0.32993 0.84623 0.26201 0.0
C7050 C 0.34193 0.83805 0.26339 0.0
C7051 C 0.35255 0.84092 0.27706 0.0
C7052 C 0.35118 0.85197 0.28944 0.0
C7053 C 0.33913 0.86009 0.28822 0.0
H7054 H 0.36183 0.83457 0.27806 0.0
H7055 H 0.24459 0.91314 0.2766 0.0
H7056 H 0.52512 0.34905 0.54841 0.0
H7057 H 0.52257 0.37393 0.53933 0.0
H7058 H 0.55243 0.39702 0.58077 0.0
H7059 H 0.55495 0.37221 0.58997 0.0
H7060 H 0.52726 0.41081 0.5753 0.0
H7061 H 0.56486 0.39394 0.54307 0.0
H7062 H 0.57409 0.37599 0.52386 0.0
H7063 H 0.53687 0.37864 0.4887 0.0
H7064 H 0.52731 0.39646 0.50778 0.0
H7065 H 0.53836 0.48631 0.55374 0.0
H7066 H 0.54149 0.46136 0.56154 0.0
H7067 H 0.5227 0.44027 0.51407 0.0
H7068 H 0.52177 0.46568 0.50571 0.0
H7069 H 0.54122 0.42467 0.52232 0.0
H7070 H 0.50251 0.44002 0.55199 0.0
H7071 H 0.49096 0.45722 0.56982 0.0
H7072 H 0.52581 0.45586 0.60812 0.0
H7073 H 0.53771 0.43883 0.59044 0.0
C7074 C 0.53113 0.35938 0.55567 0.0
C7075 C 0.54031 0.35838 0.56998 0.0
C7076 C 0.52975 0.37371 0.55037 0.0
C7077 C 0.53739 0.38759 0.55922 0.0
C7078 C 0.54641 0.38663 0.57359 0.0
C7079 C 0.54794 0.37232 0.5788 0.0
C7080 C 0.53593 0.40304 0.55366 0.0
C7081 C 0.53049 0.41388 0.56377 0.0
C7082 C 0.5395 0.40708 0.53836 0.0
C7083 C 0.54529 0.39641 0.52691 0.0
C7084 C 0.55858 0.3906 0.53129 0.0
C7085 C 0.56388 0.38047 0.52041 0.0
C7086 C 0.55605 0.37615 0.50509 0.0
C7087 C 0.54291 0.38198 0.50059 0.0
C7088 C 0.53756 0.3921 0.51142 0.0
C7089 C 0.53506 0.47643 0.54484 0.0
C7090 C 0.52937 0.47819 0.52909 0.0
C7091 C 0.53656 0.46193 0.54945 0.0
C7092 C 0.53174 0.44842 0.53873 0.0
C7093 C 0.52634 0.45022 0.52286 0.0
C7094 C 0.52543 0.46484 0.51809 0.0
C7095 C 0.53255 0.43263 0.54398 0.0
C7096 C 0.53788 0.42169 0.53383 0.0
C7097 C 0.52839 0.4283 0.55905 0.0
C7098 C 0.52106 0.43824 0.56985 0.0
C7099 C 0.50774 0.44343 0.5642 0.0
C7100 C 0.50114 0.45316 0.57428 0.0
C7101 C 0.50766 0.45765 0.59009 0.0
C7102 C 0.52077 0.45238 0.59587 0.0
C7103 C 0.52744 0.44267 0.58583 0.0
H7104 H 0.50255 0.46521 0.59787 0.0
H7105 H 0.56017 0.3683 0.49669 0.0
H7106 H 0.43646 0.76884 0.35288 0.0
H7107 H 0.41287 0.76938 0.33587 0.0
H7108 H 0.38635 0.74523 0.36904 0.0
H7109 H 0.41008 0.7441 0.38573 0.0
H7110 H 0.37366 0.73476 0.34084 0.0
H7111 H 0.39065 0.78638 0.36604 0.0
H7112 H 0.40895 0.8107 0.3738 0.0
H7113 H 0.41203 0.81677 0.32423 0.0
H7114 H 0.39389 0.79238 0.31618 0.0
H7115 H 0.30203 0.75097 0.3089 0.0
H7116 H 0.32523 0.74963 0.32612 0.0
H7117 H 0.3529 0.7728 0.29323 0.0
H7118 H 0.3297 0.7751 0.27652 0.0
H7119 H 0.36465 0.78373 0.32176 0.0
H7120 H 0.34733 0.73187 0.29672 0.0
H7121 H 0.32845 0.70789 0.28932 0.0
H7122 H 0.32547 0.70255 0.33905 0.0
H7123 H 0.34417 0.72662 0.34675 0.0
C7124 C 0.4256 0.76365 0.35657 0.0
C7125 C 0.42522 0.75652 0.37077 0.0
C7126 C 0.41204 0.76404 0.34685 0.0
C7127 C 0.3976 0.7577 0.35125 0.0
C7128 C 0.39723 0.75029 0.36528 0.0
C7129 C 0.41084 0.74964 0.37487 0.0
C7130 C 0.38297 0.75881 0.34126 0.0
C7131 C 0.37166 0.74554 0.33688 0.0
C7132 C 0.38023 0.77276 0.33569 0.0
C7133 C 0.39102 0.78749 0.34052 0.0
C7134 C 0.3953 0.79286 0.3568 0.0
C7135 C 0.40564 0.80666 0.36125 0.0
C7136 C 0.41168 0.81526 0.34951 0.0
C7137 C 0.40736 0.81009 0.3333 0.0
C7138 C 0.39704 0.79629 0.32879 0.0
C7139 C 0.31303 0.75592 0.30535 0.0
C7140 C 0.31386 0.76316 0.29122 0.0
C7141 C 0.32638 0.75496 0.31517 0.0
C7142 C 0.34101 0.76084 0.31094 0.0
C7143 C 0.34185 0.76809 0.29684 0.0
C7144 C 0.3285 0.76927 0.28716 0.0
C7145 C 0.35542 0.75967 0.32125 0.0
C7146 C 0.36667 0.77295 0.32572 0.0
C7147 C 0.35805 0.74575 0.32693 0.0
C7148 C 0.34706 0.73111 0.3223 0.0
C7149 C 0.3426 0.72561 0.30607 0.0
C7150 C 0.33193 0.71201 0.30183 0.0
C7151 C 0.32574 0.70372 0.31371 0.0
C7152 C 0.33026 0.70899 0.32986 0.0
C7153 C 0.34091 0.7226 0.33418 0.0
H7154 H 0.31746 0.6932 0.3104 0.0
H7155 H 0.41969 0.82593 0.35298 0.0
H7156 H 0.05818 0.69429 0.08286 0.0
H7157 H 0.05639 0.66714 0.07368 0.0
H7158 H 0.01655 0.66841 0.04107 0.0
H7159 H 0.01826 0.69556 0.0502 0.0
H7160 H 0.01103 0.64415 0.05538 0.0
H7161 H 0.05372 0.66535 0.02889 0.0
H7162 H 0.07921 0.68065 0.02682 0.0
H7163 H 0.10011 0.65334 0.05855 0.0
H7164 H 0.07472 0.638 0.06097 0.0
H7165 H 0.0037 0.56772 0.01795 0.0
H7166 H 0.00669 0.59552 0.02413 0.0
H7167 H 0.05017 0.59648 0.05179 0.0
H7168 H 0.04744 0.56882 0.04485 0.0
H7169 H 0.05413 0.62019 0.03901 0.0
H7170 H 0.01151 0.60164 0.06852 0.0
H7171 H 0.9858 0.58977 0.07447 0.0
H7172 H 0.96498 0.61298 0.03842 0.0
H7173 H 0.99057 0.62514 0.03242 0.0
C7174 C 0.04916 0.68893 0.07354 0.0
C7175 C 0.03838 0.69738 0.06734 0.0
C7176 C 0.04815 0.67327 0.06824 0.0
C7177 C 0.03643 0.66549 0.05645 0.0
C7178 C 0.02573 0.67394 0.05017 0.0
C7179 C 0.02669 0.68957 0.05549 0.0
C7180 C 0.03474 0.64848 0.05128 0.0
C7181 C 0.02044 0.639 0.05154 0.0
C7182 C 0.04702 0.64143 0.04668 0.0
C7183 C 0.0623 0.65062 0.04523 0.0
C7184 C 0.06374 0.66268 0.03552 0.0
C7185 C 0.07817 0.67135 0.03427 0.0
C7186 C 0.09126 0.66799 0.04258 0.0
C7187 C 0.08996 0.65594 0.05214 0.0
C7188 C 0.07555 0.64724 0.05344 0.0
C7189 C 0.01391 0.57387 0.02535 0.0
C7190 C 0.02539 0.56593 0.03075 0.0
C7191 C 0.01557 0.58988 0.02909 0.0
C7192 C 0.02854 0.59848 0.03885 0.0
C7193 C 0.04003 0.59045 0.04421 0.0
C7194 C 0.0385 0.57451 0.04017 0.0
C7195 C 0.03034 0.61571 0.04325 0.0
C7196 C 0.04468 0.62529 0.04281 0.0
C7197 C 0.01811 0.62291 0.04777 0.0
C7198 C 1.0029 0.61417 0.04995 0.0
C7199 C 1.00144 0.60398 0.06168 0.0
C7200 C 0.98689 0.59728 0.06512 0.0
C7201 C 0.97378 0.60065 0.05683 0.0
C7202 C 0.97515 0.61043 0.04485 0.0
C7203 C 0.98966 0.61724 0.04145 0.0
H7204 H 0.96254 0.59591 0.05985 0.0
H7205 H 0.10243 0.67472 0.0416 0.0
H7206 H 0.08913 0.26692 0.89979 0.0
H7207 H 0.11256 0.26902 0.88669 0.0
H7208 H 0.086 0.26483 0.84059 0.0
H7209 H 0.06242 0.26293 0.85364 0.0
H7210 H 0.1088 0.24828 0.83907 0.0
H7211 H 0.10544 0.29963 0.85786 0.0
H7212 H 0.10231 0.3209 0.87742 0.0
H7213 H 0.14267 0.31534 0.90657 0.0
H7214 H 0.14591 0.29388 0.88728 0.0
H7215 H 0.17541 0.27761 0.79975 0.0
H7216 H 0.1502 0.27268 0.80974 0.0
H7217 H 0.17216 0.27463 0.8578 0.0
H7218 H 0.19723 0.27914 0.84794 0.0
H7219 H 0.15077 0.29282 0.85658 0.0
H7220 H 0.15386 0.2411 0.83724 0.0
H7221 H 0.15696 0.22037 0.81701 0.0
H7222 H 0.11701 0.2272 0.78805 0.0
H7223 H 0.11384 0.24819 0.80798 0.0
C7224 C 0.08819 0.26661 0.88687 0.0
C7225 C 0.07374 0.26492 0.87787 0.0
C7226 C 0.10167 0.26774 0.87936 0.0
C7227 C 0.10117 0.2673 0.86261 0.0
C7228 C 0.08677 0.26521 0.85352 0.0
C7229 C 0.07324 0.26409 0.86104 0.0
C7230 C 0.1157 0.26938 0.85474 0.0
C7231 C 0.11789 0.25814 0.84275 0.0
C7232 C 0.12771 0.28214 0.85957 0.0
C7233 C 0.12583 0.29505 0.8712 0.0
C7234 C 0.11357 0.30286 0.8685 0.0
C7235 C 0.11179 0.31496 0.87953 0.0
C7236 C 0.12226 0.31944 0.89325 0.0
C7237 C 0.13456 0.31184 0.89595 0.0
C7238 C 0.13638 0.29972 0.88496 0.0
C7239 C 0.17489 0.2767 0.8124 0.0
C7240 C 0.18848 0.27901 0.82302 0.0
C7241 C 0.16043 0.27393 0.81812 0.0
C7242 C 0.15921 0.27337 0.83459 0.0
C7243 C 0.17273 0.27517 0.84509 0.0
C7244 C 0.18712 0.27783 0.8394 0.0
C7245 C 0.14401 0.2716 0.84113 0.0
C7246 C 0.14168 0.28297 0.85286 0.0
C7247 C 0.13189 0.25903 0.83596 0.0
C7248 C 0.13372 0.24635 0.82402 0.0
C7249 C 0.14582 0.23829 0.82649 0.0
C7250 C 0.14758 0.22647 0.81509 0.0
C7251 C 0.13721 0.2225 0.80123 0.0
C7252 C 0.12505 0.23031 0.79877 0.0
C7253 C 0.12327 0.24217 0.81012 0.0
H7254 H 0.13859 0.21334 0.79243 0.0
H7255 H 0.12087 0.32882 0.90178 0.0
H7256 H 0.50752 0.70903 0.89508 0.0
H7257 H 0.50568 0.68597 0.90888 0.0
H7258 H 0.54976 0.70397 0.93569 0.0
H7259 H 0.55172 0.72705 0.92185 0.0
H7260 H 0.54813 0.67462 0.92692 0.0
H7261 H 0.51482 0.70397 0.95221 0.0
H7262 H 0.49357 0.7183 0.95319 0.0
H7263 H 0.46165 0.67806 0.93196 0.0
H7264 H 0.48277 0.66353 0.93067 0.0
H7265 H 0.54393 0.63053 0.99269 0.0
H7266 H 0.54526 0.65025 0.97436 0.0
H7267 H 0.50267 0.62645 0.94796 0.0
H7268 H 0.50125 0.60663 0.96656 0.0
H7269 H 0.50259 0.65717 0.95468 0.0
H7270 H 0.53637 0.62734 0.93164 0.0
H7271 H 0.55789 0.6133 0.93224 0.0
H7272 H 0.58929 0.65488 0.95049 0.0
H7273 H 0.56792 0.66913 0.95023 0.0
C7274 C 0.51679 0.70819 0.90401 0.0
C7275 C 0.52974 0.72007 0.90736 0.0
C7276 C 0.51572 0.69492 0.91192 0.0
C7277 C 0.52747 0.69318 0.92358 0.0
C7278 C 0.54051 0.70492 0.92677 0.0
C7279 C 0.54163 0.71816 0.9188 0.0
C7280 C 0.52617 0.67925 0.9325 0.0
C7281 C 0.53822 0.67093 0.93309 0.0
C7282 C 0.51311 0.67405 0.94033 0.0
C7283 C 0.50039 0.68271 0.94118 0.0
C7284 C 0.50329 0.69821 0.94765 0.0
C7285 C 0.49127 0.70636 0.94828 0.0
C7286 C 0.47628 0.69911 0.9426 0.0
C7287 C 0.47327 0.68367 0.93633 0.0
C7288 C 0.48526 0.67547 0.93565 0.0
C7289 C 0.53496 0.62935 0.98283 0.0
C7290 C 0.5225 0.61697 0.98108 0.0
C7291 C 0.53574 0.64065 0.97231 0.0
C7292 C 0.52411 0.63991 0.95966 0.0
C7293 C 0.51181 0.62733 0.9576 0.0
C7294 C 0.51108 0.6159 0.96812 0.0
C7295 C 0.52459 0.65266 0.94917 0.0
C7296 C 0.51242 0.66077 0.94834 0.0
C7297 C 0.53758 0.65773 0.94122 0.0
C7298 C 0.55052 0.64928 0.94101 0.0
C7299 C 0.54785 0.63348 0.93585 0.0
C7300 C 0.56002 0.62548 0.93613 0.0
C7301 C 0.57494 0.63318 0.94144 0.0
C7302 C 0.57773 0.64892 0.9464 0.0
C7303 C 0.56559 0.65697 0.94616 0.0
H7304 H 0.58435 0.62696 0.94168 0.0
H7305 H 0.46699 0.70544 0.94309 0.0
H7306 H 0.10003 0.78246 0.72802 0.0
H7307 H 0.12724 0.78443 0.73703 0.0
H7308 H 0.1249 0.73739 0.71809 0.0
H7309 H 0.09775 0.73534 0.70884 0.0
H7310 H 0.14146 0.7429 0.74676 0.0
H7311 H 0.14165 0.76896 0.69906 0.0
H7312 H 0.13493 0.78833 0.68196 0.0
H7313 H 0.15673 0.82438 0.71848 0.0
H7314 H 0.1634 0.80522 0.73588 0.0
H7315 H 0.22186 0.74301 0.7469 0.0
H7316 H 0.19435 0.74144 0.73994 0.0
H7317 H 0.19854 0.78861 0.75947 0.0
H7318 H 0.22602 0.79002 0.76699 0.0
H7319 H 0.18103 0.78367 0.73134 0.0
H7320 H 0.18099 0.75977 0.77896 0.0
H7321 H 0.18554 0.74203 0.79884 0.0
H7322 H 0.16282 0.70374 0.76539 0.0
H7323 H 0.15826 0.72124 0.74521 0.0
C7324 C 0.10525 0.77252 0.72557 0.0
C7325 C 0.09639 0.75873 0.71754 0.0
C7326 C 0.12095 0.77368 0.73079 0.0
C7327 C 0.12843 0.76114 0.72812 0.0
C7328 C 0.11958 0.74729 0.72038 0.0
C7329 C 0.10389 0.74612 0.71513 0.0
C7330 C 0.14535 0.76236 0.73341 0.0
C7331 C 0.1501 0.75166 0.74312 0.0
C7332 C 0.15679 0.77414 0.72933 0.0
C7333 C 0.15289 0.78565 0.71882 0.0
C7334 C 0.14492 0.78102 0.70348 0.0
C7335 C 0.14113 0.79196 0.69373 0.0
C7336 C 0.14536 0.80757 0.69915 0.0
C7337 C 0.15344 0.81228 0.71431 0.0
C7338 C 0.15723 0.80139 0.72411 0.0
C7339 C 0.21694 0.75294 0.7501 0.0
C7340 C 0.22632 0.7665 0.7579 0.0
C7341 C 0.2011 0.75207 0.74599 0.0
C7342 C 0.1941 0.76485 0.74928 0.0
C7343 C 0.20348 0.77852 0.75679 0.0
C7344 C 0.21929 0.7793 0.76113 0.0
C7345 C 0.17716 0.76405 0.7445 0.0
C7346 C 0.17241 0.77483 0.7349 0.0
C7347 C 0.16569 0.75249 0.74889 0.0
C7348 C 0.1694 0.74182 0.76052 0.0
C7349 C 0.17716 0.74755 0.77575 0.0
C7350 C 0.17964 0.73755 0.78711 0.0
C7351 C 0.17435 0.72179 0.78342 0.0
C7352 C 0.16681 0.71596 0.76826 0.0
C7353 C 0.16428 0.72592 0.75685 0.0
H7354 H 0.17619 0.71407 0.79228 0.0
H7355 H 0.14241 0.81602 0.69158 0.0
H7356 H 0.03181 0.35863 0.43389 0.0
H7357 H 0.03079 0.38283 0.44953 0.0
H7358 H 0.04722 0.40767 0.4112 0.0
H7359 H 0.04832 0.38342 0.39545 0.0
H7360 H 0.06065 0.42253 0.43913 0.0
H7361 H 0.0085 0.40146 0.4182 0.0
H7362 H 0.98502 0.38164 0.41295 0.0
H7363 H 0.98285 0.38102 0.46353 0.0
H7364 H 0.00644 0.4007 0.46908 0.0
H7365 H 0.04135 0.4934 0.47053 0.0
H7366 H 0.04352 0.47015 0.45374 0.0
H7367 H 0.02487 0.44251 0.48912 0.0
H7368 H 0.02193 0.46555 0.50552 0.0
H7369 H 0.01251 0.42953 0.46154 0.0
H7370 H 0.06487 0.45011 0.48267 0.0
H7371 H 0.08822 0.47009 0.48812 0.0
H7372 H 0.09005 0.47173 0.43762 0.0
H7373 H 0.06658 0.4519 0.43187 0.0
C7374 C 0.03512 0.3692 0.42868 0.0
C7375 C 0.04002 0.36892 0.41325 0.0
C7376 C 0.03454 0.38312 0.4377 0.0
C7377 C 0.03865 0.39722 0.43153 0.0
C7378 C 0.04393 0.39703 0.41631 0.0
C7379 C 0.0446 0.38309 0.40729 0.0
C7380 C 0.03727 0.41206 0.44088 0.0
C7381 C 0.05005 0.42411 0.44384 0.0
C7382 C 0.02356 0.4142 0.44737 0.0
C7383 C 0.00931 0.40245 0.44405 0.0
C7384 C 1.00307 0.39703 0.4282 0.0
C7385 C 0.98974 0.38583 0.42517 0.0
C7386 C 0.98247 0.38005 0.4379 0.0
C7387 C 0.9885 0.38549 0.45368 0.0
C7388 C 1.00184 0.39668 0.45678 0.0
C7389 C 0.03768 0.48239 0.47478 0.0
C7390 C 0.03149 0.48153 0.48953 0.0
C7391 C 0.03906 0.46903 0.46517 0.0
C7392 C 0.03458 0.4544 0.47015 0.0
C7393 C 0.02845 0.45355 0.48488 0.0
C7394 C 0.02689 0.46685 0.49438 0.0
C7395 C 0.03596 0.43996 0.46003 0.0
C7396 C 0.02313 0.42798 0.45686 0.0
C7397 C 0.04964 0.43789 0.45342 0.0
C7398 C 0.06389 0.44962 0.45685 0.0
C7399 C 0.07021 0.45479 0.47273 0.0
C7400 C 0.08347 0.46608 0.47587 0.0
C7401 C 0.09059 0.4722 0.46323 0.0
C7402 C 0.08451 0.46699 0.4474 0.0
C7403 C 0.07124 0.45571 0.4442 0.0
H7404 H 0.10085 0.48095 0.46568 0.0
H7405 H 0.97215 0.37137 0.43553 0.0
H7406 H 0.43449 0.275 0.20738 0.0
H7407 H 0.40958 0.27628 0.2167 0.0
H7408 H 0.40887 0.23283 0.23539 0.0
H7409 H 0.43389 0.2315 0.22622 0.0
H7410 H 0.38147 0.233 0.22116 0.0
H7411 H 0.41564 0.26863 0.25999 0.0
H7412 H 0.43607 0.29091 0.26971 0.0
H7413 H 0.40951 0.32074 0.24768 0.0
H7414 H 0.389 0.29861 0.23764 0.0
H7415 H 0.31573 0.23936 0.26437 0.0
H7416 H 0.34119 0.23647 0.25674 0.0
H7417 H 0.34534 0.2796 0.23676 0.0
H7418 H 0.32008 0.28229 0.24397 0.0
H7419 H 0.37145 0.27901 0.25316 0.0
H7420 H 0.33767 0.24359 0.21376 0.0
H7421 H 0.3179 0.22127 0.2024 0.0
H7422 H 0.3439 0.19116 0.22475 0.0
H7423 H 0.36364 0.21333 0.23657 0.0
C7424 C 0.42924 0.26577 0.21368 0.0
C7425 C 0.43654 0.25316 0.21601 0.0
C7426 C 0.41483 0.26652 0.21904 0.0
C7427 C 0.40716 0.25476 0.22704 0.0
C7428 C 0.41435 0.24211 0.22928 0.0
C7429 C 0.42876 0.24134 0.22393 0.0
C7430 C 0.39161 0.2555 0.23275 0.0
C7431 C 0.37941 0.24299 0.22841 0.0
C7432 C 0.38854 0.2686 0.24192 0.0
C7433 C 0.40085 0.28193 0.24792 0.0
C7434 C 0.41421 0.27992 0.2571 0.0
C7435 C 0.42579 0.29253 0.26269 0.0
C7436 C 0.42411 0.30722 0.25928 0.0
C7437 C 0.41081 0.30935 0.2503 0.0
C7438 C 0.3992 0.29678 0.24467 0.0
C7439 C 0.32204 0.24818 0.25828 0.0
C7440 C 0.31583 0.26124 0.25514 0.0
C7441 C 0.33667 0.24652 0.25387 0.0
C7442 C 0.34547 0.25784 0.24613 0.0
C7443 C 0.3391 0.27073 0.24284 0.0
C7444 C 0.32454 0.27231 0.24711 0.0
C7445 C 0.36127 0.25653 0.24148 0.0
C7446 C 0.37353 0.26896 0.24602 0.0
C7447 C 0.36438 0.24337 0.23247 0.0
C7448 C 0.35207 0.23014 0.22617 0.0
C7449 C 0.33905 0.23224 0.21647 0.0
C7450 C 0.32788 0.21961 0.20991 0.0
C7451 C 0.32969 0.20482 0.2128 0.0
C7452 C 0.34254 0.20263 0.22249 0.0
C7453 C 0.3537 0.21522 0.22915 0.0
H7454 H 0.32121 0.19503 0.20744 0.0
H7455 H 0.43308 0.31697 0.26362 0.0
H7456 H 0.6084 0.54417 0.36747 0.0
H7457 H 0.59775 0.54247 0.39302 0.0
H7458 H 0.56048 0.50715 0.37051 0.0
H7459 H 0.57081 0.50912 0.34473 0.0
H7460 H 0.55003 0.52679 0.39067 0.0
H7461 H 0.59025 0.49796 0.39328 0.0
H7462 H 0.61639 0.49284 0.39154 0.0
H7463 H 0.63414 0.52941 0.42898 0.0
H7464 H 0.60812 0.53489 0.43078 0.0
H7465 H 0.55304 0.49998 0.47714 0.0
H7466 H 0.56307 0.50085 0.45104 0.0
H7467 H 0.54612 0.54276 0.44513 0.0
H7468 H 0.53514 0.54118 0.47055 0.0
H7469 H 0.58287 0.51785 0.43837 0.0
H7470 H 0.53737 0.54771 0.40787 0.0
H7471 H 0.51044 0.55021 0.40982 0.0
H7472 H 0.50138 0.50609 0.42719 0.0
H7473 H 0.52822 0.50328 0.42521 0.0
C7474 C 0.59782 0.53617 0.36786 0.0
C7475 C 0.59048 0.52677 0.35399 0.0
C7476 C 0.59182 0.53511 0.38255 0.0
C7477 C 0.5784 0.52455 0.38377 0.0
C7478 C 0.57087 0.51535 0.3699 0.0
C7479 C 0.57687 0.5164 0.35519 0.0
C7480 C 0.57236 0.52302 0.39954 0.0
C7481 C 0.5572 0.52481 0.40109 0.0
C7482 C 0.58158 0.52014 0.41312 0.0
C7483 C 0.59726 0.51693 0.41204 0.0
C7484 C 0.59975 0.50499 0.40104 0.0
C7485 C 0.61454 0.50201 0.40007 0.0
C7486 C 0.62693 0.51082 0.41012 0.0
C7487 C 0.62454 0.52261 0.42119 0.0
C7488 C 0.60977 0.52565 0.4222 0.0
C7489 C 0.5515 0.50934 0.47019 0.0
C7490 C 0.5432 0.5204 0.47565 0.0
C7491 C 0.55723 0.50986 0.4553 0.0
C7492 C 0.55504 0.52166 0.4458 0.0
C7493 C 0.54748 0.5332 0.45182 0.0
C7494 C 0.54132 0.53238 0.46642 0.0
C7495 C 0.56057 0.52182 0.42962 0.0
C7496 C 0.57565 0.5198 0.42797 0.0
C7497 C 0.55113 0.52406 0.41585 0.0
C7498 C 0.53481 0.52533 0.41645 0.0
C7499 C 0.52959 0.53849 0.41196 0.0
C7500 C 0.51436 0.53998 0.41312 0.0
C7501 C 0.50421 0.52832 0.41864 0.0
C7502 C 0.50925 0.51512 0.42294 0.0
C7503 C 0.52447 0.51357 0.4218 0.0
H7504 H 0.49244 0.52952 0.41958 0.0
H7505 H 0.63837 0.50849 0.40935 0.0
H7506 H 0.29092 0.85877 0.06533 0.0
H7507 H 0.29226 0.84505 0.08877 0.0
H7508 H 0.25442 0.86395 0.10556 0.0
H7509 H 0.25389 0.87883 0.08273 0.0
H7510 H 0.27556 0.86778 0.12838 0.0
H7511 H 0.25191 0.8242 0.09279 0.0
H7512 H 0.24722 0.80601 0.06821 0.0
H7513 H 0.29168 0.79445 0.07808 0.0
H7514 H 0.29675 0.81274 0.1026 0.0
H7515 H 0.28241 0.82323 0.19478 0.0
H7516 H 0.27138 0.83131 0.16992 0.0
H7517 H 0.31355 0.82935 0.14917 0.0
H7518 H 0.32467 0.82143 0.17401 0.0
H7519 H 0.28496 0.81458 0.12906 0.0
H7520 H 0.30893 0.86224 0.16225 0.0
H7521 H 0.31249 0.8799 0.18718 0.0
H7522 H 0.26464 0.88245 0.18162 0.0
H7523 H 0.26077 0.86462 0.15676 0.0
C7524 C 0.28289 0.86006 0.07401 0.0
C7525 C 0.27249 0.87014 0.07228 0.0
C7526 C 0.28345 0.85193 0.08728 0.0
C7527 C 0.27331 0.8533 0.09888 0.0
C7528 C 0.26234 0.8627 0.09675 0.0
C7529 C 0.26197 0.8711 0.0836 0.0
C7530 C 0.27544 0.84637 0.11402 0.0
C7531 C 0.27718 0.85601 0.12848 0.0
C7532 C 0.27774 0.83105 0.11423 0.0
C7533 C 0.27473 0.81992 0.09953 0.0
C7534 C 0.26073 0.81785 0.08968 0.0
C7535 C 0.258 0.80751 0.07576 0.0
C7536 C 0.26915 0.79909 0.07158 0.0
C7537 C 0.28305 0.80097 0.08133 0.0
C7538 C 0.28584 0.81131 0.09527 0.0
C7539 C 0.28931 0.82464 0.18491 0.0
C7540 C 0.30441 0.82193 0.18627 0.0
C7541 C 0.283 0.82915 0.17077 0.0
C7542 C 0.29167 0.83081 0.15779 0.0
C7543 C 0.30671 0.82802 0.15909 0.0
C7544 C 0.31309 0.82372 0.17329 0.0
C7545 C 0.28537 0.83614 0.14304 0.0
C7546 C 0.2829 0.82621 0.12878 0.0
C7547 C 0.28214 0.85107 0.14299 0.0
C7548 C 0.28453 0.86198 0.15777 0.0
C7549 C 0.29915 0.86648 0.16642 0.0
C7550 C 0.30123 0.87654 0.18052 0.0
C7551 C 0.28879 0.88226 0.18601 0.0
C7552 C 0.27426 0.87799 0.17737 0.0
C7553 C 0.27212 0.86792 0.16327 0.0
H7554 H 0.29041 0.89004 0.19694 0.0
H7555 H 0.26702 0.7911 0.06079 0.0
H7556 H 0.91533 0.51118 0.87092 0.0
H7557 H 0.93241 0.51504 0.89586 0.0
H7558 H 0.97035 0.53392 0.87107 0.0
H7559 H 0.95346 0.52949 0.84587 0.0
H7560 H 0.97844 0.51497 0.89283 0.0
H7561 H 0.95212 0.55774 0.89186 0.0
H7562 H 0.92932 0.56984 0.8888 0.0
H7563 H 0.91173 0.54817 0.92836 0.0
H7564 H 0.93432 0.53575 0.9315 0.0
H7565 H 0.02223 0.53762 0.96828 0.0
H7566 H 0.01028 0.54084 0.94188 0.0
H7567 H 0.96563 0.52576 0.95695 0.0
H7568 H 0.97744 0.52324 0.98332 0.0
H7569 H 0.96395 0.54675 0.93842 0.0
H7570 H 0.98636 0.50051 0.93646 0.0
H7571 H 0.00821 0.48712 0.94038 0.0
H7572 H 0.03184 0.51363 0.90718 0.0
H7573 H 0.01018 0.52729 0.90323 0.0
C7574 C 0.92737 0.51585 0.87069 0.0
C7575 C 0.93304 0.52018 0.85648 0.0
C7576 C 0.93706 0.51821 0.88497 0.0
C7577 C 0.95252 0.52508 0.88529 0.0
C7578 C 0.9584 0.52875 0.87103 0.0
C7579 C 0.94873 0.52632 0.85671 0.0
C7580 C 0.96239 0.52881 0.90065 0.0
C7581 C 0.97545 0.52213 0.90274 0.0
C7582 C 0.95834 0.53805 0.91354 0.0
C7583 C 0.94489 0.54576 0.91186 0.0
C7584 C 0.94336 0.5555 0.89985 0.0
C7585 C 0.93047 0.56242 0.89811 0.0
C7586 C 0.91908 0.55976 0.90836 0.0
C7587 C 0.92057 0.55022 0.92042 0.0
C7588 C 0.93342 0.54325 0.9222 0.0
C7589 C 0.00993 0.53476 0.96585 0.0
C7590 C 1.0009 0.52908 0.97751 0.0
C7591 C 0.00309 0.5368 0.95084 0.0
C7592 C 0.9871 0.53297 0.94728 0.0
C7593 C 0.97802 0.52854 0.95934 0.0
C7594 C 0.98485 0.52684 0.97439 0.0
C7595 C 0.97967 0.53244 0.93081 0.0
C7596 C 0.9671 0.5398 0.92845 0.0
C7597 C 0.984 0.52361 0.91776 0.0
C7598 C 0.99674 0.515 0.91966 0.0
C7599 C 0.99623 0.50348 0.93002 0.0
C7600 C 0.00858 0.49586 0.93226 0.0
C7601 C 0.02142 0.49955 0.92406 0.0
C7602 C 0.02189 0.5108 0.91354 0.0
C7603 C 0.00959 0.51848 0.91128 0.0
H7604 H 0.03099 0.49367 0.92585 0.0
H7605 H 0.9091 0.56512 0.90698 0.0
H7606 H 0.24976 0.19713 0.59368 0.0
H7607 H 0.25037 0.20885 0.6211 0.0
H7608 H 0.29722 0.2313 0.62018 0.0
H7609 H 0.29671 0.21948 0.59266 0.0
H7610 H 0.29424 0.22079 0.64821 0.0
H7611 H 0.26767 0.25127 0.61684 0.0
H7612 H 0.24855 0.25717 0.59647 0.0
H7613 H 0.21214 0.23715 0.62221 0.0
H7614 H 0.23104 0.23091 0.64264 0.0
H7615 H 0.29263 0.27145 0.71903 0.0
H7616 H 0.29435 0.26138 0.69141 0.0
H7617 H 0.24933 0.2335 0.68946 0.0
H7618 H 0.24755 0.2435 0.71706 0.0
H7619 H 0.25291 0.24851 0.66272 0.0
H7620 H 0.28194 0.2186 0.69475 0.0
H7621 H 0.30249 0.21648 0.71565 0.0
H7622 H 0.33626 0.23909 0.68839 0.0
H7623 H 0.31588 0.24172 0.66752 0.0
C7624 C 0.26016 0.20469 0.59921 0.0
C7625 C 0.27314 0.20747 0.59086 0.0
C7626 C 0.26051 0.21138 0.61495 0.0
C7627 C 0.27377 0.22117 0.6227 0.0
C7628 C 0.28684 0.2238 0.61449 0.0
C7629 C 0.28653 0.21703 0.59874 0.0
C7630 C 0.27385 0.22867 0.63931 0.0
C7631 C 0.2853 0.22701 0.65132 0.0
C7632 C 0.26223 0.23683 0.64347 0.0
C7633 C 0.25078 0.24048 0.63119 0.0
C7634 C 0.25558 0.248 0.61809 0.0
C7635 C 0.24478 0.25143 0.60654 0.0
C7636 C 0.22914 0.2475 0.60802 0.0
C7637 C 0.22426 0.24017 0.62107 0.0
C7638 C 0.23502 0.23669 0.63264 0.0
C7639 C 0.2831 0.26315 0.71274 0.0
C7640 C 0.2699 0.25834 0.72025 0.0
C7641 C 0.28412 0.25738 0.69695 0.0
C7642 C 0.27201 0.2466 0.68837 0.0
C7643 C 0.2588 0.24183 0.69582 0.0
C7644 C 0.25779 0.24758 0.71161 0.0
C7645 C 0.27303 0.24029 0.67162 0.0
C7646 C 0.26181 0.24225 0.65957 0.0
C7647 C 0.28506 0.23272 0.66742 0.0
C7648 C 0.29736 0.23048 0.67962 0.0
C7649 C 0.29374 0.22319 0.69324 0.0
C7650 C 0.30536 0.22192 0.7051 0.0
C7651 C 0.32067 0.22772 0.70339 0.0
C7652 C 0.3244 0.23468 0.68975 0.0
C7653 C 0.31282 0.23606 0.67789 0.0
H7654 H 0.32965 0.22678 0.71261 0.0
H7655 H 0.22079 0.25018 0.59907 0.0
H7656 H 0.57239 0.54341 0.20075 0.0
H7657 H 0.56096 0.54361 0.17333 0.0
H7658 H 0.5821 0.50564 0.15768 0.0
H7659 H 0.5942 0.50587 0.18485 0.0
H7660 H 0.5858 0.52613 0.13762 0.0
H7661 H 0.5427 0.50172 0.16201 0.0
H7662 H 0.52415 0.49928 0.182 0.0
H7663 H 0.50911 0.5402 0.16921 0.0
H7664 H 0.52772 0.54299 0.14928 0.0
H7665 H 0.5473 0.50382 0.06139 0.0
H7666 H 0.55544 0.50428 0.08969 0.0
H7667 H 0.53357 0.54304 0.10006 0.0
H7668 H 0.52445 0.54177 0.07157 0.0
H7669 H 0.53019 0.52406 0.12296 0.0
H7670 H 0.57311 0.54758 0.09758 0.0
H7671 H 0.59069 0.54852 0.07662 0.0
H7672 H 0.60566 0.50807 0.09097 0.0
H7673 H 0.58801 0.50676 0.11187 0.0
C7674 C 0.5747 0.53514 0.19148 0.0
C7675 C 0.58426 0.52461 0.19513 0.0
C7676 C 0.56798 0.53516 0.17579 0.0
C7677 C 0.57049 0.52453 0.16338 0.0
C7678 C 0.57993 0.51394 0.167 0.0
C7679 C 0.58672 0.51398 0.18265 0.0
C7680 C 0.56377 0.5247 0.14653 0.0
C7681 C 0.57362 0.52551 0.13444 0.0
C7682 C 0.54791 0.52432 0.14232 0.0
C7683 C 0.53672 0.52265 0.15428 0.0
C7684 C 0.53552 0.51026 0.16356 0.0
C7685 C 0.52498 0.5088 0.17485 0.0
C7686 C 0.51549 0.5196 0.17691 0.0
C7687 C 0.51649 0.53186 0.16763 0.0
C7688 C 0.52702 0.53338 0.15632 0.0
C7689 C 0.54417 0.51239 0.06962 0.0
C7690 C 0.53565 0.52303 0.06399 0.0
C7691 C 0.54889 0.51271 0.08588 0.0
C7692 C 0.54562 0.52404 0.09704 0.0
C7693 C 0.53648 0.53432 0.09167 0.0
C7694 C 0.53141 0.53372 0.0753 0.0
C7695 C 0.55222 0.52528 0.11412 0.0
C7696 C 0.54239 0.52478 0.12621 0.0
C7697 C 0.5681 0.5259 0.11837 0.0
C7698 C 0.57921 0.52705 0.10627 0.0
C7699 C 0.58015 0.53889 0.09627 0.0
C7700 C 0.59011 0.53947 0.08438 0.0
C7701 C 0.59928 0.52836 0.08246 0.0
C7702 C 0.59857 0.51668 0.09248 0.0
C7703 C 0.58861 0.51603 0.10437 0.0
H7704 H 0.60695 0.52881 0.07322 0.0
H7705 H 0.50733 0.51845 0.18566 0.0
H7706 H 0.29713 0.85344 0.93838 0.0
H7707 H 0.29534 0.83522 0.91441 0.0
H7708 H 0.25742 0.85336 0.89301 0.0
H7709 H 0.25922 0.8717 0.91684 0.0
H7710 H 0.25221 0.82188 0.88929 0.0
H7711 H 0.29173 0.864 0.88177 0.0
H7712 H 0.31578 0.88277 0.88912 0.0
H7713 H 0.34112 0.8461 0.89152 0.0
H7714 H 0.31716 0.8271 0.8844 0.0
H7715 H 0.25154 0.79883 0.80697 0.0
H7716 H 0.25264 0.81242 0.83364 0.0
H7717 H 0.29125 0.79234 0.84978 0.0
H7718 H 0.29057 0.77912 0.82289 0.0
H7719 H 0.29647 0.82285 0.85752 0.0
H7720 H 0.25608 0.78063 0.86182 0.0
H7721 H 0.23168 0.76286 0.85275 0.0
H7722 H 0.20751 0.80053 0.85498 0.0
H7723 H 0.23179 0.81857 0.86386 0.0
C7724 C 0.2885 0.8536 0.92851 0.0
C7725 C 0.27834 0.86397 0.9294 0.0
C7726 C 0.28744 0.84317 0.91491 0.0
C7727 C 0.27628 0.84305 0.90202 0.0
C7728 C 0.26603 0.85327 0.90294 0.0
C7729 C 0.26707 0.8637 0.91652 0.0
C7730 C 0.27552 0.83252 0.88735 0.0
C7731 C 0.26183 0.82211 0.88226 0.0
C7732 C 0.28822 0.83273 0.87846 0.0
C7733 C 0.30263 0.84413 0.88275 0.0
C7734 C 0.30241 0.85994 0.88402 0.0
C7735 C 0.31603 0.87062 0.88811 0.0
C7736 C 0.32996 0.86563 0.89084 0.0
C7737 C 0.33031 0.84995 0.88944 0.0
C7738 C 0.31672 0.83922 0.88537 0.0
C7739 C 0.26017 0.79722 0.81625 0.0
C7740 C 0.27095 0.78794 0.81296 0.0
C7741 C 0.26072 0.80488 0.83148 0.0
C7742 C 0.27191 0.80319 0.84366 0.0
C7743 C 0.28249 0.79367 0.8405 0.0
C7744 C 0.28202 0.78608 0.82522 0.0
C7745 C 0.27315 0.8122 0.8594 0.0
C7746 C 0.28692 0.8224 0.86467 0.0
C7747 C 0.26048 0.81186 0.86837 0.0
C7748 C 0.24579 0.80097 0.86345 0.0
C7749 C 0.24558 0.78514 0.86032 0.0
C7750 C 0.23177 0.77501 0.85521 0.0
C7751 C 0.21807 0.78056 0.85326 0.0
C7752 C 0.21814 0.79624 0.85649 0.0
C7753 C 0.23192 0.80642 0.8616 0.0
H7754 H 0.20739 0.77271 0.84927 0.0
H7755 H 0.34049 0.87391 0.894 0.0
H7756 H 0.90519 0.52653 0.69362 0.0
H7757 H 0.91904 0.52434 0.67002 0.0
H7758 H 0.95937 0.51952 0.70015 0.0
H7759 H 0.94574 0.5221 0.72381 0.0
H7760 H 0.96643 0.53727 0.67597 0.0
H7761 H 0.93526 0.48839 0.68238 0.0
H7762 H 0.91125 0.47063 0.68481 0.0
H7763 H 0.89208 0.48004 0.639 0.0
H7764 H 0.91591 0.49804 0.63641 0.0
H7765 H 0.00636 0.49383 0.62573 0.0
H7766 H 0.99282 0.50493 0.64643 0.0
H7767 H 0.95445 0.50487 0.61121 0.0
H7768 H 0.9676 0.49314 0.59062 0.0
H7769 H 0.94525 0.49216 0.63622 0.0
H7770 H 0.97775 0.53861 0.62818 0.0
H7771 H 1.00198 0.55593 0.62554 0.0
H7772 H 0.01888 0.55107 0.67379 0.0
H7773 H 0.99484 0.53354 0.67664 0.0
C7774 C 0.91711 0.52536 0.69523 0.0
C7775 C 0.92437 0.52434 0.7105 0.0
C7776 C 0.92496 0.52401 0.68176 0.0
C7777 C 0.94013 0.52158 0.68338 0.0
C7778 C 0.94765 0.52136 0.69868 0.0
C7779 C 0.93982 0.5227 0.71214 0.0
C7780 C 0.94786 0.51811 0.66913 0.0
C7781 C 0.96188 0.52738 0.66727 0.0
C7782 C 0.94167 0.50541 0.65766 0.0
C7783 C 0.92728 0.49473 0.65931 0.0
C7784 C 0.92586 0.4868 0.67291 0.0
C7785 C 0.9123 0.47666 0.6743 0.0
C7786 C 0.90013 0.47425 0.66209 0.0
C7787 C 0.9015 0.48195 0.64846 0.0
C7788 C 0.91503 0.49213 0.64703 0.0
C7789 C 0.99502 0.49615 0.62242 0.0
C7790 C 0.988 0.49251 0.60659 0.0
C7791 C 0.98741 0.50271 0.6342 0.0
C7792 C 0.97271 0.50589 0.6303 0.0
C7793 C 0.96582 0.50259 0.61443 0.0
C7794 C 0.97338 0.49595 0.60268 0.0
C7795 C 0.96395 0.51124 0.64303 0.0
C7796 C 0.94973 0.50224 0.64468 0.0
C7797 C 0.96999 0.52418 0.65427 0.0
C7798 C 0.98452 0.53465 0.65257 0.0
C7799 C 0.98669 0.54112 0.63818 0.0
C7800 C 1.00038 0.551 0.63666 0.0
C7801 C 0.01197 0.55457 0.64948 0.0
C7802 C 0.00989 0.54829 0.66386 0.0
C7803 C 0.99623 0.53839 0.66544 0.0
H7804 H 0.02256 0.56223 0.64828 0.0
H7805 H 0.88965 0.46638 0.66318 0.0
H7806 H 0.27916 0.22548 0.44094 0.0
H7807 H 0.281 0.23571 0.41502 0.0
H7808 H 0.26266 0.19066 0.39054 0.0
H7809 H 0.26078 0.18036 0.41634 0.0
H7810 H 0.2896 0.207 0.37836 0.0
H7811 H 0.23969 0.21543 0.39356 0.0
H7812 H 0.22346 0.22626 0.41207 0.0
H7813 H 0.24872 0.27155 0.4098 0.0
H7814 H 0.26523 0.26097 0.39145 0.0
H7815 H 0.28039 0.22796 0.29975 0.0
H7816 H 0.27755 0.21672 0.3247 0.0
H7817 H 0.27272 0.26067 0.34802 0.0
H7818 H 0.27184 0.2707 0.32242 0.0
H7819 H 0.25752 0.24416 0.36174 0.0
H7820 H 0.30864 0.23943 0.35001 0.0
H7821 H 0.32807 0.23146 0.33368 0.0
H7822 H 0.30639 0.18429 0.33229 0.0
H7823 H 0.28677 0.19199 0.34852 0.0
C7824 C 0.27558 0.21774 0.43003 0.0
C7825 C 0.26974 0.20211 0.43073 0.0
C7826 C 0.27658 0.22362 0.41524 0.0
C7827 C 0.27192 0.21396 0.40084 0.0
C7828 C 0.26632 0.19832 0.40149 0.0
C7829 C 0.26513 0.19248 0.41626 0.0
C7830 C 0.27267 0.22012 0.38507 0.0
C7831 C 0.28258 0.21511 0.37461 0.0
C7832 C 0.26392 0.23108 0.38045 0.0
C7833 C 0.25376 0.23739 0.39124 0.0
C7834 C 0.24184 0.22768 0.39709 0.0
C7835 C 0.23258 0.23378 0.40754 0.0
C7836 C 0.23507 0.24958 0.41213 0.0
C7837 C 0.2468 0.25932 0.40624 0.0
C7838 C 0.2561 0.25328 0.39581 0.0
C7839 C 0.27819 0.23508 0.31007 0.0
C7840 C 0.27621 0.25025 0.30884 0.0
C7841 C 0.2771 0.22876 0.32464 0.0
C7842 C 0.27546 0.23783 0.33878 0.0
C7843 C 0.2739 0.25314 0.33755 0.0
C7844 C 0.27376 0.25906 0.32279 0.0
C7845 C 0.27495 0.23152 0.35475 0.0
C7846 C 0.2649 0.23633 0.36532 0.0
C7847 C 0.2842 0.22096 0.35979 0.0
C7848 C 0.29619 0.2163 0.35037 0.0
C7849 C 0.30802 0.22736 0.34621 0.0
C7850 C 0.31905 0.2229 0.33696 0.0
C7851 C 0.31844 0.20738 0.33193 0.0
C7852 C 0.30684 0.1963 0.3362 0.0
C7853 C 0.29579 0.2007 0.34544 0.0
H7854 H 0.32697 0.20395 0.32473 0.0
H7855 H 0.22791 0.25427 0.42024 0.0
H7856 H 0.34728 0.59319 0.55874 0.0
H7857 H 0.37084 0.58268 0.55802 0.0
H7858 H 0.35085 0.55294 0.51518 0.0
H7859 H 0.32718 0.56314 0.51602 0.0
H7860 H 0.3703 0.53954 0.53525 0.0
H7861 H 0.36967 0.58749 0.51149 0.0
H7862 H 0.36707 0.61467 0.51253 0.0
H7863 H 0.40394 0.62659 0.55065 0.0
H7864 H 0.40659 0.59942 0.54997 0.0
H7865 H 0.42598 0.53068 0.48327 0.0
H7866 H 0.40438 0.53499 0.4979 0.0
H7867 H 0.43507 0.56846 0.53187 0.0
H7868 H 0.45652 0.56467 0.51662 0.0
H7869 H 0.41214 0.57979 0.52279 0.0
H7870 H 0.41657 0.53202 0.54184 0.0
H7871 H 0.41887 0.50477 0.54057 0.0
H7872 H 0.37533 0.49202 0.51178 0.0
H7873 H 0.37285 0.5192 0.51268 0.0
C7874 C 0.34776 0.58407 0.54947 0.0
C7875 C 0.33557 0.57912 0.53727 0.0
C7876 C 0.3612 0.57811 0.54907 0.0
C7877 C 0.36257 0.56721 0.53644 0.0
C7878 C 0.34996 0.56136 0.52501 0.0
C7879 C 0.33655 0.56731 0.5254 0.0
C7880 C 0.37766 0.56359 0.5336 0.0
C7881 C 0.37954 0.54827 0.53257 0.0
C7882 C 0.38973 0.57512 0.53051 0.0
C7883 C 0.3882 0.59144 0.53081 0.0
C7884 C 0.37714 0.5959 0.52017 0.0
C7885 C 0.37566 0.6113 0.52068 0.0
C7886 C 0.3853 0.62234 0.53169 0.0
C7887 C 0.39646 0.61802 0.54216 0.0
C7888 C 0.39795 0.60263 0.54172 0.0
C7889 C 0.42801 0.5389 0.4939 0.0
C7890 C 0.44268 0.54753 0.49882 0.0
C7891 C 0.41576 0.5412 0.50239 0.0
C7892 C 0.41814 0.55185 0.51618 0.0
C7893 C 0.43298 0.56016 0.5213 0.0
C7894 C 0.44517 0.55808 0.51261 0.0
C7895 C 0.40489 0.55556 0.52408 0.0
C7896 C 0.40324 0.57098 0.52596 0.0
C7897 C 0.39309 0.54407 0.52794 0.0
C7898 C 0.39457 0.52769 0.52727 0.0
C7899 C 0.40754 0.52342 0.53513 0.0
C7900 C 0.40886 0.50798 0.5345 0.0
C7901 C 0.39726 0.49668 0.52609 0.0
C7902 C 0.3843 0.50079 0.5183 0.0
C7903 C 0.38293 0.51621 0.51889 0.0
H7904 H 0.3983 0.48473 0.52562 0.0
H7905 H 0.38414 0.63426 0.53207 0.0
H7906 H 0.85258 0.95085 0.52104 0.0
H7907 H 0.87831 0.96582 0.52083 0.0
H7908 H 0.8977 0.93183 0.54491 0.0
H7909 H 0.87188 0.91703 0.54555 0.0
H7910 H 0.91254 0.95936 0.55662 0.0
H7911 H 0.89712 0.93364 0.50325 0.0
H7912 H 0.88003 0.92633 0.47796 0.0
H7913 H 0.88451 0.97368 0.46985 0.0
H7914 H 0.90147 0.98129 0.4952 0.0
H7915 H 0.98896 0.98298 0.53914 0.0
H7916 H 0.96341 0.96886 0.54149 0.0
H7917 H 0.94337 1.00086 0.51482 0.0
H7918 H 0.96891 0.01429 0.5113 0.0
H7919 H 0.92888 0.97414 0.50474 0.0
H7920 H 0.94447 1.00002 0.55805 0.0
H7921 H 0.96175 0.00733 0.58321 0.0
H7922 H 0.95709 0.96 0.59148 0.0
H7923 H 0.93994 0.95239 0.56626 0.0
C7924 C 0.86234 0.9466 0.52632 0.0
C7925 C 0.86022 0.93271 0.53321 0.0
C7926 C 0.87706 0.95513 0.52615 0.0
C7927 C 0.89003 0.94981 0.53254 0.0
C7928 C 0.88791 0.93617 0.53985 0.0
C7929 C 0.87315 0.92772 0.54023 0.0
C7930 C 0.90579 0.9583 0.5313 0.0
C7931 C 0.91616 0.96245 0.54525 0.0
C7932 C 0.9105 0.96262 0.51652 0.0
C7933 C 0.90045 0.95804 0.50118 0.0
C7934 C 0.89439 0.94249 0.49611 0.0
C7935 C 0.88473 0.9383 0.48176 0.0
C7936 C 0.88116 0.94954 0.47232 0.0
C7937 C 0.88727 0.96499 0.47718 0.0
C7938 C 0.89692 0.96925 0.49153 0.0
C7939 C 0.97913 0.98707 0.53381 0.0
C7940 C 0.98107 0.99996 0.52523 0.0
C7941 C 0.96446 0.97903 0.53529 0.0
C7942 C 0.95134 0.98395 0.52866 0.0
C7943 C 0.95326 0.99685 0.52015 0.0
C7944 C 0.96792 0.00467 0.51832 0.0
C7945 C 0.93563 0.97539 0.5301 0.0
C7946 C 0.92526 0.97115 0.51615 0.0
C7947 C 0.93094 0.97103 0.54488 0.0
C7948 C 0.941 0.97564 0.56021 0.0
C7949 C 0.94718 0.99117 0.5652 0.0
C7950 C 0.95695 0.99537 0.57947 0.0
C7951 C 0.96053 0.98414 0.58892 0.0
C7952 C 0.95431 0.96869 0.58415 0.0
C7953 C 0.94455 0.96443 0.56988 0.0
H7954 H 0.96812 0.98741 0.59995 0.0
H7955 H 0.87367 0.94626 0.46122 0.0
H7956 H 0.87749 0.0877 0.2361 0.0
H7957 H 0.86375 0.1091 0.23726 0.0
H7958 H 0.85193 0.09972 0.28426 0.0
H7959 H 0.86486 0.07774 0.2828 0.0
H7960 H 0.8282 0.10638 0.26746 0.0
H7961 H 0.8819 0.12906 0.27817 0.0
H7962 H 0.90889 0.1341 0.27256 0.0
H7963 H 0.89579 0.15252 0.2292 0.0
H7964 H 0.86869 0.1474 0.23446 0.0
H7965 H 0.81824 0.17892 0.30257 0.0
H7966 H 0.82673 0.1549 0.29465 0.0
H7967 H 0.82764 0.16649 0.24619 0.0
H7968 H 0.81881 0.19052 0.25408 0.0
H7969 H 0.85525 0.15842 0.26005 0.0
H7970 H 0.80163 0.1383 0.25158 0.0
H7971 H 0.77494 0.13368 0.25812 0.0
H7972 H 0.78823 0.11092 0.29839 0.0
H7973 H 0.81507 0.11561 0.29223 0.0
C7974 C 0.87179 0.09002 0.2466 0.0
C7975 C 0.87238 0.08098 0.25939 0.0
C7976 C 0.86407 0.1024 0.24732 0.0
C7977 C 0.85699 0.10619 0.26095 0.0
C7978 C 0.85735 0.09706 0.27363 0.0
C7979 C 0.86493 0.0846 0.27286 0.0
C7980 C 0.84936 0.11975 0.26217 0.0
C7981 C 0.83417 0.11777 0.26596 0.0
C7982 C 0.85697 0.13458 0.25977 0.0
C7983 C 0.87326 0.13769 0.25661 0.0
C7984 C 0.88476 0.13407 0.26738 0.0
C7985 C 0.90008 0.13696 0.26427 0.0
C7986 C 0.90405 0.14358 0.25051 0.0
C7987 C 0.8927 0.14737 0.23984 0.0
C7988 C 0.87736 0.14448 0.24288 0.0
C7989 C 0.82005 0.17621 0.29019 0.0
C7990 C 0.81791 0.1865 0.27891 0.0
C7991 C 0.82484 0.1625 0.28566 0.0
C7992 C 0.82776 0.15891 0.26983 0.0
C7993 C 0.82539 0.16905 0.25845 0.0
C7994 C 0.8203 0.18269 0.26293 0.0
C7995 C 0.83425 0.14504 0.26562 0.0
C7996 C 0.84923 0.14698 0.26131 0.0
C7997 C 0.82651 0.13022 0.26769 0.0
C7998 C 0.81039 0.12743 0.27151 0.0
C7999 C 0.79889 0.13244 0.26192 0.0
C8000 C 0.78373 0.12978 0.26554 0.0
C8001 C 0.7799 0.12204 0.27868 0.0
C8002 C 0.79122 0.11693 0.28822 0.0
C8003 C 0.80641 0.11957 0.28465 0.0
H8004 H 0.76815 0.11998 0.28146 0.0
H8005 H 0.91591 0.14581 0.24812 0.0
H8006 H 0.69559 0.04961 0.02068 0.0
H8007 H 0.66849 0.03705 0.01801 0.0
H8008 H 0.65544 0.08133 0.02662 0.0
H8009 H 0.6824 0.09366 0.0301 0.0
H8010 H 0.64002 0.0625 0.04268 0.0
H8011 H 0.65274 0.06062 0.98807 0.0
H8012 H 0.66735 0.05381 0.96587 0.0
H8013 H 0.65435 0.00604 0.97152 0.0
H8014 H 0.63983 0.01259 0.99389 0.0
H8015 H 0.56394 0.05073 0.01577 0.0
H8016 H 0.59098 0.05725 0.01199 0.0
H8017 H 0.59611 0.0106 0.01683 0.0
H8018 H 0.56876 0.0038 0.02005 0.0
H8019 H 0.61544 0.02765 0.99433 0.0
H8020 H 0.60199 0.03072 0.04904 0.0
H8021 H 0.5859 0.03848 0.06941 0.0
H8022 H 0.59962 0.08569 0.06189 0.0
H8023 H 0.61565 0.07816 0.04127 0.0
C8024 C 0.68683 0.05652 0.02208 0.0
C8025 C 0.69085 0.07248 0.02569 0.0
C8026 C 0.67144 0.04942 0.02046 0.0
C8027 C 0.65998 0.0583 0.02194 0.0
C8028 C 0.6641 0.07427 0.02551 0.0
C8029 C 0.67944 0.0813 0.02749 0.0
C8030 C 0.64361 0.05113 0.01997 0.0
C8031 C 0.63469 0.05496 0.03204 0.0
C8032 C 0.63669 0.04103 0.00625 0.0
C8033 C 0.64535 0.0371 0.99276 0.0
C8034 C 0.6531 0.04867 0.98465 0.0
C8035 C 0.66134 0.04486 0.97202 0.0
C8036 C 0.66181 0.0295 0.96732 0.0
C8037 C 0.654 0.01793 0.97519 0.0
C8038 C 0.64575 0.02168 0.98784 0.0
C8039 C 0.57065 0.0417 0.01529 0.0
C8040 C 0.56438 0.02679 0.01817 0.0
C8041 C 0.58606 0.04545 0.01319 0.0
C8042 C 0.5954 0.0344 0.0143 0.0
C8043 C 0.58895 0.01919 0.01589 0.0
C8044 C 0.57344 0.0154 0.01788 0.0
C8045 C 0.61206 0.03942 0.01679 0.0
C8046 C 0.62095 0.0351 0.00495 0.0
C8047 C 0.61898 0.04924 0.03062 0.0
C8048 C 0.60995 0.05387 0.04356 0.0
C8049 C 0.60154 0.04275 0.0517 0.0
C8050 C 0.59242 0.04711 0.06328 0.0
C8051 C 0.59169 0.06257 0.06693 0.0
C8052 C 0.60018 0.07371 0.05906 0.0
C8053 C 0.60932 0.06941 0.04744 0.0
H8054 H 0.58457 0.0659 0.07587 0.0
H8055 H 0.66821 0.02657 0.95755 0.0
H8056 H 0.23213 0.46742 0.24932 0.0
H8057 H 0.24052 0.44313 0.25326 0.0
H8058 H 0.19516 0.41835 0.23541 0.0
H8059 H 0.1868 0.4426 0.23117 0.0
H8060 H 0.20704 0.41636 0.26894 0.0
H8061 H 0.22019 0.41052 0.21507 0.0
H8062 H 0.23282 0.41906 0.19184 0.0
H8063 H 0.27692 0.42446 0.21914 0.0
H8064 H 0.26454 0.41618 0.24264 0.0
H8065 H 0.22163 0.34337 0.28438 0.0
H8066 H 0.21366 0.3644 0.27108 0.0
H8067 H 0.26034 0.38922 0.27818 0.0
H8068 H 0.26836 0.36832 0.29161 0.0
H8069 H 0.24706 0.39016 0.24796 0.0
H8070 H 0.23588 0.3996 0.3017 0.0
H8071 H 0.22512 0.39348 0.32671 0.0
H8072 H 0.17962 0.3843 0.30188 0.0
H8073 H 0.19015 0.39015 0.27664 0.0
C8074 C 0.22416 0.45672 0.24569 0.0
C8075 C 0.20887 0.45674 0.23997 0.0
C8076 C 0.22894 0.44292 0.24791 0.0
C8077 C 0.21841 0.42907 0.24461 0.0
C8078 C 0.20341 0.42899 0.23789 0.0
C8079 C 0.19869 0.44278 0.23542 0.0
C8080 C 0.22234 0.41519 0.25072 0.0
C8081 C 0.21551 0.41035 0.26413 0.0
C8082 C 0.23391 0.40799 0.24482 0.0
C8083 C 0.24141 0.41284 0.23067 0.0
C8084 C 0.23257 0.41365 0.21617 0.0
C8085 C 0.23969 0.41842 0.20294 0.0
C8086 C 0.25566 0.42233 0.20402 0.0
C8087 C 0.26455 0.42144 0.21832 0.0
C8088 C 0.25748 0.41669 0.2316 0.0
C8089 C 0.23013 0.35342 0.28333 0.0
C8090 C 0.24558 0.35428 0.28911 0.0
C8091 C 0.22561 0.36533 0.27561 0.0
C8092 C 0.23644 0.37831 0.27367 0.0
C8093 C 0.25186 0.37922 0.27945 0.0
C8094 C 0.25639 0.36733 0.28717 0.0
C8095 C 0.2316 0.39118 0.26608 0.0
C8096 C 0.23837 0.39596 0.25257 0.0
C8097 C 0.22022 0.39864 0.2721 0.0
C8098 C 0.21382 0.39513 0.28724 0.0
C8099 C 0.22359 0.39614 0.30154 0.0
C8100 C 0.21753 0.39274 0.31576 0.0
C8101 C 0.2017 0.38845 0.31587 0.0
C8102 C 0.19189 0.38759 0.30176 0.0
C8103 C 0.19789 0.39095 0.28749 0.0
H8104 H 0.19702 0.38583 0.3269 0.0
H8105 H 0.26115 0.42602 0.19376 0.0
H8106 H 0.21942 0.43474 0.04647 0.0
H8107 H 0.19711 0.44726 0.04533 0.0
H8108 H 0.17853 0.41958 0.00084 0.0
H8109 H 0.2007 0.40684 0.00199 0.0
H8110 H 0.17649 0.44909 0.99909 0.0
H8111 H 0.16356 0.4122 0.03565 0.0
H8112 H 0.16742 0.39857 0.05939 0.0
H8113 H 0.17149 0.44064 0.09012 0.0
H8114 H 0.16788 0.45457 0.06654 0.0
H8115 H 0.10396 0.47285 0.99802 0.0
H8116 H 0.12269 0.45561 0.9995 0.0
H8117 H 0.14674 0.4833 0.04201 0.0
H8118 H 0.12824 0.50057 0.04041 0.0
H8119 H 0.14453 0.45196 0.04402 0.0
H8120 H 0.15928 0.48901 0.00773 0.0
H8121 H 0.15599 0.50304 0.98419 0.0
H8122 H 0.14893 0.46083 0.95311 0.0
H8123 H 0.15192 0.44651 0.97651 0.0
C8124 C 0.21051 0.43115 0.03653 0.0
C8125 C 0.21189 0.41972 0.02434 0.0
C8126 C 0.19776 0.43835 0.03589 0.0
C8127 C 0.18604 0.43425 0.02309 0.0
C8128 C 0.18742 0.42295 0.01084 0.0
C8129 C 0.20016 0.41572 0.01148 0.0
C8130 C 0.17254 0.44201 0.02231 0.0
C8131 C 0.16933 0.44946 0.00879 0.0
C8132 C 0.16337 0.44279 0.0351 0.0
C8133 C 0.16559 0.43446 0.04931 0.0
C8134 C 0.16541 0.41857 0.04746 0.0
C8135 C 0.16753 0.41079 0.06089 0.0
C8136 C 0.16974 0.41874 0.07625 0.0
C8137 C 0.1698 0.4345 0.07821 0.0
C8138 C 0.1677 0.44234 0.06482 0.0
C8139 C 0.11307 0.475 0.00785 0.0
C8140 C 0.11469 0.48798 0.01912 0.0
C8141 C 0.1238 0.46525 0.00863 0.0
C8142 C 0.13619 0.46827 0.02078 0.0
C8143 C 0.13729 0.48076 0.03253 0.0
C8144 C 0.12673 0.49061 0.03162 0.0
C8145 C 0.14854 0.45904 0.02084 0.0
C8146 C 0.15158 0.45139 0.03424 0.0
C8147 C 0.15757 0.45809 0.00796 0.0
C8148 C 0.15559 0.46666 0.99389 0.0
C8149 C 0.15684 0.48269 0.99589 0.0
C8150 C 0.15507 0.49071 0.98257 0.0
C8151 C 0.15219 0.48283 0.96717 0.0
C8152 C 0.15111 0.46692 0.96505 0.0
C8153 C 0.15283 0.45884 0.97834 0.0
H8154 H 0.15086 0.48905 0.95686 0.0
H8155 H 0.17137 0.41269 0.08663 0.0
H8156 H 0.87863 0.92189 0.25203 0.0
H8157 H 0.86197 0.89702 0.25224 0.0
H8158 H 0.82278 0.9192 0.25426 0.0
H8159 H 0.83933 0.94411 0.25389 0.0
H8160 H 0.82326 0.89831 0.27591 0.0
H8161 H 0.82902 0.89941 0.21947 0.0
H8162 H 0.84382 0.9021 0.19626 0.0
H8163 H 0.86525 0.8644 0.20801 0.0
H8164 H 0.85074 0.86161 0.23141 0.0
H8165 H 0.77065 0.82704 0.26698 0.0
H8166 H 0.78329 0.85295 0.26343 0.0
H8167 H 0.82358 0.83551 0.25159 0.0
H8168 H 0.81062 0.80975 0.25341 0.0
H8169 H 0.82053 0.85518 0.23348 0.0
H8170 H 0.81861 0.85491 0.29045 0.0
H8171 H 0.80592 0.85165 0.31501 0.0
H8172 H 0.78027 0.88675 0.30445 0.0
H8173 H 0.79268 0.89007 0.27972 0.0
C8174 C 0.86644 0.92147 0.25228 0.0
C8175 C 0.86034 0.93502 0.25291 0.0
C8176 C 0.85693 0.90724 0.25245 0.0
C8177 C 0.8411 0.90623 0.25314 0.0
C8178 C 0.83496 0.91971 0.25376 0.0
C8179 C 0.84446 0.93395 0.25359 0.0
C8180 C 0.83097 0.89115 0.25346 0.0
C8181 C 0.82248 0.88891 0.26653 0.0
C8182 C 0.83026 0.87879 0.24143 0.0
C8183 C 0.83886 0.88038 0.22725 0.0
C8184 C 0.83696 0.89176 0.21716 0.0
C8185 C 0.84529 0.89329 0.20396 0.0
C8186 C 0.85549 0.88344 0.20068 0.0
C8187 C 0.85735 0.87202 0.21056 0.0
C8188 C 0.84906 0.87045 0.22378 0.0
C8189 C 0.78199 0.82864 0.26315 0.0
C8190 C 0.78937 0.8161 0.26023 0.0
C8191 C 0.78938 0.84357 0.26144 0.0
C8192 C 0.80454 0.84633 0.25741 0.0
C8193 C 0.81188 0.83382 0.25458 0.0
C8194 C 0.80439 0.81897 0.25578 0.0
C8195 C 0.81304 0.8621 0.25619 0.0
C8196 C 0.8212 0.86453 0.24288 0.0
C8197 C 0.81379 0.8745 0.26824 0.0
C8198 C 0.80645 0.87262 0.28316 0.0
C8199 C 0.8102 0.86186 0.29333 0.0
C8200 C 0.80306 0.86001 0.30728 0.0
C8201 C 0.79227 0.86896 0.31126 0.0
C8202 C 0.78862 0.87981 0.30133 0.0
C8203 C 0.7957 0.88168 0.28736 0.0
H8204 H 0.78675 0.8675 0.32206 0.0
H8205 H 0.86193 0.88465 0.19046 0.0
H8206 H 0.74049 0.09723 0.75 0.0
H8207 H 0.75096 0.12452 0.74963 0.0
H8208 H 0.72003 0.13631 0.78318 0.0
H8209 H 0.70929 0.10924 0.78333 0.0
H8210 H 0.71859 0.15056 0.75472 0.0
H8211 H 0.75701 0.13992 0.7955 0.0
H8212 H 0.77735 0.1263 0.80503 0.0
H8213 H 0.80352 0.14096 0.76717 0.0
H8214 H 0.78324 0.1545 0.7573 0.0
H8215 H 0.74054 0.22913 0.77712 0.0
H8216 H 0.73377 0.20138 0.77613 0.0
H8217 H 0.77417 0.1967 0.75286 0.0
H8218 H 0.78187 0.22437 0.75566 0.0
H8219 H 0.77167 0.17795 0.7729 0.0
H8220 H 0.73634 0.18951 0.73224 0.0
H8221 H 0.71685 0.20282 0.72016 0.0
H8222 H 0.68565 0.18582 0.753 0.0
H8223 H 0.70503 0.17259 0.76544 0.0
C8224 C 0.7361 0.10567 0.75744 0.0
C8225 C 0.7241 0.10118 0.76669 0.0
C8226 C 0.74211 0.12117 0.75726 0.0
C8227 C 0.73617 0.13227 0.76635 0.0
C8228 C 0.72468 0.1278 0.77609 0.0
C8229 C 0.71869 0.11236 0.77629 0.0
C8230 C 0.74112 0.14861 0.76497 0.0
C8231 C 0.73015 0.15666 0.75879 0.0
C8232 C 0.75638 0.15619 0.76955 0.0
C8233 C 0.76855 0.14808 0.77557 0.0
C8234 C 0.76704 0.14012 0.78913 0.0
C8235 C 0.77857 0.13245 0.79461 0.0
C8236 C 0.79169 0.13273 0.78668 0.0
C8237 C 0.79334 0.14073 0.77329 0.0
C8238 C 0.78184 0.14841 0.76775 0.0
C8239 C 0.74803 0.22218 0.77197 0.0
C8240 C 0.76161 0.22895 0.7663 0.0
C8241 C 0.74404 0.20632 0.77116 0.0
C8242 C 0.75325 0.19697 0.764 0.0
C8243 C 0.76683 0.2037 0.75833 0.0
C8244 C 0.77112 0.21956 0.75973 0.0
C8245 C 0.74902 0.18015 0.76301 0.0
C8246 C 0.76012 0.17195 0.76864 0.0
C8247 C 0.73397 0.17233 0.75743 0.0
C8248 C 0.72218 0.18011 0.74983 0.0
C8249 C 0.72535 0.18867 0.73694 0.0
C8250 C 0.71432 0.1962 0.73003 0.0
C8251 C 0.70003 0.19518 0.73582 0.0
C8252 C 0.69673 0.18659 0.74852 0.0
C8253 C 0.70772 0.17906 0.7555 0.0
H8254 H 0.6915 0.20101 0.73046 0.0
H8255 H 0.80061 0.12678 0.79095 0.0
loop_
_geom_bond_atom_site_label_1
_geom_bond_atom_site_label_2
_geom_bond_distance
_geom_bond_site_symmetry_2
_ccdc_geom_bond_type
Li0 N17 1.990 1_455 S
Li0 O60 1.956 . S
Li0 O61 1.970 . S
Li0 O62 1.961 . S
Li1 N25 1.990 . S
Li1 O60 1.970 . S
Li1 O61 1.956 . S
Li1 O63 1.961 . S
Li2 N47 1.990 . S
Li2 O60 1.961 . S
Li2 O62 1.956 . S
Li2 O63 1.970 . S
Li3 N53 1.990 . S
Li3 O61 1.961 . S
Li3 O62 1.970 . S
Li3 O63 1.956 . S
C4 C6 1.348 . S
C4 C7 1.356 . S
C4 O60 1.325 . S
N5 C8 1.314 . S
N5 C9 1.279 . S
C6 C4 1.348 . S
C6 C8 1.353 . S
C6 H64 0.929 . S
C7 C4 1.356 . S
C7 C9 1.358 . S
C7 H65 0.930 . S
C8 N5 1.314 . S
C8 C6 1.353 . S
C8 H66 0.930 . S
C9 N5 1.279 . S
C9 C7 1.358 . S
C9 H67 0.930 . S
C10 C13 1.348 1_455 S
C10 C14 1.356 . S
C10 O61 1.325 . S
C11 N12 1.279 . S
C11 C14 1.358 1_655 S
C11 H68 0.930 . S
N12 C11 1.279 . S
N12 C15 1.314 . S
C13 C10 1.348 1_655 S
C13 C15 1.353 . S
C13 H69 0.929 . S
C14 C10 1.356 . S
C14 C11 1.358 1_455 S
C14 H70 0.930 . S
C15 N12 1.314 . S
C15 C13 1.353 . S
C15 H71 0.930 . S
C16 N17 1.314 . S
C16 C21 1.353 . S
C16 H22 0.930 . S
N17 Li0 1.990 1_655 S
N17 C16 1.314 . S
N17 C19 1.279 . S
C18 C19 1.358 . S
C18 C20 1.356 . S
C18 H72 0.930 . S
C19 N17 1.279 . S
C19 C18 1.358 . S
C19 H23 0.930 . S
C20 C18 1.356 . S
C20 C21 1.348 . S
C21 C16 1.353 . S
C21 C20 1.348 . S
C21 H73 0.929 . S
H22 C16 0.930 . S
H23 C19 0.930 . S
C24 N25 1.314 . S
C24 C26 1.353 . S
C24 H30 0.930 . S
N25 Li1 1.990 . S
N25 C24 1.314 . S
N25 C28 1.279 . S
C26 C24 1.353 . S
C26 C29 1.348 . S
C26 H74 0.929 . S
C27 C28 1.358 . S
C27 C29 1.356 . S
C27 H75 0.930 . S
C28 N25 1.279 . S
C28 C27 1.358 . S
C28 H31 0.930 . S
C29 C26 1.348 . S
C29 C27 1.356 . S
H30 C24 0.930 . S
H31 C28 0.930 . S
C32 C34 1.348 . S
C32 C35 1.356 . S
C32 O62 1.325 . S
N33 C36 1.314 . S
N33 C37 1.279 . S
C34 C32 1.348 . S
C34 C36 1.353 . S
C34 H76 0.929 . S
C35 C32 1.356 . S
C35 C37 1.358 . S
C35 H77 0.930 . S
C36 N33 1.314 . S
C36 C34 1.353 . S
C36 H78 0.930 . S
C37 N33 1.279 . S
C37 C35 1.358 . S
C37 H79 0.930 . S
C38 C39 1.348 . S
C38 C40 1.356 . S
C38 O63 1.325 . S
C39 C38 1.348 . S
C39 C41 1.353 . S
C39 H80 0.929 . S
C40 C38 1.356 . S
C40 C42 1.358 . S
C40 H81 0.930 . S
C41 C39 1.353 . S
C41 N43 1.314 . S
C41 H82 0.930 . S
C42 C40 1.358 . S
C42 N43 1.279 . S
C42 H83 0.930 . S
N43 C41 1.314 . S
N43 C42 1.279 . S
C44 C46 1.353 . S
C44 N47 1.314 . S
C44 H50 0.930 . S
C45 N47 1.279 . S
C45 C48 1.358 . S
C45 H51 0.930 . S
C46 C44 1.353 . S
C46 C49 1.348 . S
C46 H84 0.929 . S
N47 Li2 1.990 . S
N47 C44 1.314 . S
N47 C45 1.279 . S
C48 C45 1.358 . S
C48 C49 1.356 . S
C48 H85 0.930 . S
C49 C46 1.348 . S
C49 C48 1.356 . S
H50 C44 0.930 . S
H51 C45 0.930 . S
C52 N53 1.314 . S
C52 C54 1.353 . S
C52 H58 0.930 . S
N53 Li3 1.990 . S
N53 C52 1.314 . S
N53 C56 1.279 . S
C54 C52 1.353 . S
C54 C57 1.348 . S
C54 H86 0.929 . S
C55 C56 1.358 . S
C55 C57 1.356 . S
C55 H87 0.930 . S
C56 N53 1.279 . S
C56 C55 1.358 . S
C56 H59 0.930 . S
C57 C54 1.348 . S
C57 C55 1.356 . S
H58 C52 0.930 . S
H59 C56 0.930 . S
O60 Li0 1.956 . S
O60 Li1 1.970 . S
O60 Li2 1.961 . S
O60 C4 1.325 . S
O61 Li0 1.970 . S
O61 Li1 1.956 . S
O61 Li3 1.961 . S
O61 C10 1.325 . S
O62 Li0 1.961 . S
O62 Li2 1.956 . S
O62 Li3 1.970 . S
O62 C32 1.325 . S
O63 Li1 1.961 . S
O63 Li2 1.970 . S
O63 Li3 1.956 . S
O63 C38 1.325 . S
H64 C6 0.929 . S
H65 C7 0.930 . S
H66 C8 0.930 . S
H67 C9 0.930 . S
H68 C11 0.930 . S
H69 C13 0.929 . S
H70 C14 0.930 . S
H71 C15 0.930 . S
H72 C18 0.930 . S
H73 C21 0.929 . S
H74 C26 0.929 . S
H75 C27 0.930 . S
H76 C34 0.929 . S
H77 C35 0.930 . S
H78 C36 0.930 . S
H79 C37 0.930 . S
H80 C39 0.929 . S
H81 C40 0.930 . S
H82 C41 0.930 . S
H83 C42 0.930 . S
H84 C46 0.929 . S
H85 C48 0.930 . S
H86 C54 0.929 . S
H87 C55 0.930 . S
Li88 N105 1.990 . S
Li88 O148 1.956 . S
Li88 O149 1.970 . S
Li88 O150 1.961 1_455 S
Li89 N113 1.990 . S
Li89 O148 1.970 . S
Li89 O149 1.956 . S
Li89 O151 1.961 . S
Li90 N135 1.990 . S
Li90 O148 1.961 . S
Li90 O150 1.956 1_455 S
Li90 O151 1.970 . S
Li91 N141 1.990 . S
Li91 O149 1.961 1_655 S
Li91 O150 1.970 . S
Li91 O151 1.956 1_655 S
C92 C94 1.348 . S
C92 C95 1.356 . S
C92 O148 1.325 . S
N93 C96 1.314 . S
N93 C97 1.279 . S
C94 C92 1.348 . S
C94 C96 1.353 . S
C94 H152 0.929 . S
C95 C92 1.356 . S
C95 C97 1.358 . S
C95 H153 0.930 . S
C96 N93 1.314 . S
C96 C94 1.353 . S
C96 H154 0.930 . S
C97 N93 1.279 . S
C97 C95 1.358 . S
C97 H155 0.930 . S
C98 C101 1.348 . S
C98 C102 1.356 . S
C98 O149 1.325 . S
C99 N100 1.279 . S
C99 C102 1.358 . S
C99 H156 0.930 . S
N100 C99 1.279 . S
N100 C103 1.314 . S
C101 C98 1.348 . S
C101 C103 1.353 . S
C101 H157 0.929 . S
C102 C98 1.356 . S
C102 C99 1.358 . S
C102 H158 0.930 . S
C103 N100 1.314 . S
C103 C101 1.353 . S
C103 H159 0.930 . S
C104 N105 1.314 . S
C104 C109 1.360 . S
C104 H110 0.930 1_455 S
N105 Li88 1.990 . S
N105 C104 1.314 . S
N105 C107 1.279 . S
C106 C107 1.358 . S
C106 C108 1.356 . S
C106 H160 0.930 . S
C107 N105 1.279 . S
C107 C106 1.358 . S
C107 H111 0.930 . S
C108 C106 1.356 . S
C108 C109 1.388 . S
C109 C104 1.360 . S
C109 C108 1.388 . S
C109 H161 0.884 1_455 S
H110 C104 0.930 1_655 S
H111 C107 0.930 . S
C112 N113 1.314 . S
C112 C114 1.353 . S
C112 H118 0.930 . S
N113 Li89 1.990 . S
N113 C112 1.314 . S
N113 C116 1.279 . S
C114 C112 1.353 . S
C114 C117 1.348 . S
C114 H162 0.929 . S
C115 C116 1.358 . S
C115 C117 1.356 . S
C115 H163 0.930 . S
C116 N113 1.279 . S
C116 C115 1.358 . S
C116 H119 0.930 . S
C117 C114 1.348 . S
C117 C115 1.356 . S
H118 C112 0.930 . S
H119 C116 0.930 . S
C120 C122 1.348 . S
C120 C123 1.356 . S
C120 O150 1.325 . S
N121 C124 1.314 . S
N121 C125 1.279 . S
C122 C120 1.348 . S
C122 C124 1.353 . S
C122 H164 0.929 . S
C123 C120 1.356 . S
C123 C125 1.358 . S
C123 H165 0.930 . S
C124 N121 1.314 . S
C124 C122 1.353 . S
C124 H166 0.930 . S
C125 N121 1.279 . S
C125 C123 1.358 . S
C125 H167 0.930 . S
C126 C127 1.348 . S
C126 C128 1.356 . S
C126 O151 1.325 . S
C127 C126 1.348 . S
C127 C129 1.353 . S
C127 H168 0.922 1_455 S
C128 C126 1.356 . S
C128 C130 1.358 . S
C128 H169 0.930 . S
C129 C127 1.353 . S
C129 N131 1.314 . S
C129 H170 0.923 1_455 S
C130 C128 1.358 . S
C130 N131 1.279 . S
C130 H171 0.930 . S
N131 C129 1.314 . S
N131 C130 1.279 . S
C132 C134 1.353 . S
C132 N135 1.314 . S
C132 H138 0.930 . S
C133 N135 1.279 1_655 S
C133 C136 1.358 . S
C133 H139 0.930 . S
C134 C132 1.353 . S
C134 C137 1.348 . S
C134 H172 0.929 . S
N135 Li90 1.990 . S
N135 C132 1.314 . S
N135 C133 1.279 1_455 S
C136 C133 1.358 . S
C136 C137 1.356 1_655 S
C136 H173 0.930 . S
C137 C134 1.348 . S
C137 C136 1.356 1_455 S
H138 C132 0.930 . S
H139 C133 0.930 . S
C140 N141 1.314 . S
C140 C142 1.353 . S
C140 H146 0.930 . S
N141 Li91 1.990 . S
N141 C140 1.314 . S
N141 C144 1.279 . S
C142 C140 1.353 . S
C142 C145 1.348 . S
C142 H174 0.929 . S
C143 C144 1.358 . S
C143 C145 1.356 . S
C143 H175 0.930 . S
C144 N141 1.279 . S
C144 C143 1.358 . S
C144 H147 0.930 . S
C145 C142 1.348 . S
C145 C143 1.356 . S
H146 C140 0.930 . S
H147 C144 0.930 . S
O148 Li88 1.956 . S
O148 Li89 1.970 . S
O148 Li90 1.961 . S
O148 C92 1.325 . S
O149 Li88 1.970 . S
O149 Li89 1.956 . S
O149 Li91 1.961 1_455 S
O149 C98 1.325 . S
O150 Li88 1.961 1_655 S
O150 Li90 1.956 1_655 S
O150 Li91 1.970 . S
O150 C120 1.325 . S
O151 Li89 1.961 . S
O151 Li90 1.970 . S
O151 Li91 1.956 1_455 S
O151 C126 1.325 . S
H152 C94 0.929 . S
H153 C95 0.930 . S
H154 C96 0.930 . S
H155 C97 0.930 . S
H156 C99 0.930 . S
H157 C101 0.929 . S
H158 C102 0.930 . S
H159 C103 0.930 . S
H160 C106 0.930 . S
H161 C109 0.884 1_655 S
H162 C114 0.929 . S
H163 C115 0.930 . S
H164 C122 0.929 . S
H165 C123 0.930 . S
H166 C124 0.930 . S
H167 C125 0.930 . S
H168 C127 0.922 1_655 S
H169 C128 0.930 . S
H170 C129 0.923 1_655 S
H171 C130 0.930 . S
H172 C134 0.929 . S
H173 C136 0.930 . S
H174 C142 0.929 . S
H175 C143 0.930 . S
Li176 N193 1.990 . S
Li176 O236 1.956 . S
Li176 O237 1.970 . S
Li176 O238 1.961 . S
Li177 N201 1.990 . S
Li177 O236 1.970 . S
Li177 O237 1.956 . S
Li177 O239 1.961 . S
Li178 N223 1.990 . S
Li178 O236 1.961 . S
Li178 O238 1.956 . S
Li178 O239 1.970 . S
Li179 N229 1.990 . S
Li179 O237 1.961 . S
Li179 O238 1.970 . S
Li179 O239 1.956 . S
C180 C182 1.348 . S
C180 C183 1.356 . S
C180 O236 1.325 . S
N181 C184 1.314 . S
N181 C185 1.279 . S
C182 C180 1.348 . S
C182 C184 1.353 . S
C182 H240 0.929 . S
C183 C180 1.356 . S
C183 C185 1.358 . S
C183 H241 0.930 . S
C184 N181 1.314 . S
C184 C182 1.353 . S
C184 H242 0.930 . S
C185 N181 1.279 . S
C185 C183 1.358 . S
C185 H243 0.930 . S
C186 C189 1.348 . S
C186 C190 1.356 . S
C186 O237 1.325 . S
C187 N188 1.279 . S
C187 C190 1.358 . S
C187 H244 0.930 . S
N188 C187 1.279 . S
N188 C191 1.314 . S
C189 C186 1.348 . S
C189 C191 1.353 . S
C189 H245 0.929 . S
C190 C186 1.356 . S
C190 C187 1.358 . S
C190 H246 0.930 . S
C191 N188 1.314 . S
C191 C189 1.353 . S
C191 H247 0.930 . S
C192 N193 1.314 . S
C192 C197 1.353 . S
C192 H198 0.930 . S
N193 Li176 1.990 . S
N193 C192 1.314 . S
N193 C195 1.279 . S
C194 C195 1.358 . S
C194 C196 1.356 . S
C194 H248 0.930 . S
C195 N193 1.279 . S
C195 C194 1.358 . S
C195 H199 0.930 . S
C196 C194 1.356 . S
C196 C197 1.348 . S
C197 C192 1.353 . S
C197 C196 1.348 . S
C197 H249 0.929 . S
H198 C192 0.930 . S
H199 C195 0.930 . S
C200 N201 1.314 . S
C200 C202 1.353 . S
C200 H206 0.930 . S
N201 Li177 1.990 . S
N201 C200 1.314 . S
N201 C204 1.279 . S
C202 C200 1.353 . S
C202 C205 1.348 . S
C202 H250 0.929 . S
C203 C204 1.358 . S
C203 C205 1.356 . S
C203 H251 0.930 . S
C204 N201 1.279 . S
C204 C203 1.358 . S
C204 H207 0.930 . S
C205 C202 1.348 . S
C205 C203 1.356 . S
H206 C200 0.930 . S
H207 C204 0.930 . S
C208 C210 1.348 . S
C208 C211 1.356 . S
C208 O238 1.325 . S
N209 C212 1.314 . S
N209 C213 1.279 . S
C210 C208 1.348 . S
C210 C212 1.353 . S
C210 H252 0.929 . S
C211 C208 1.356 . S
C211 C213 1.358 . S
C211 H253 0.930 . S
C212 N209 1.314 . S
C212 C210 1.353 . S
C212 H254 0.930 . S
C213 N209 1.279 . S
C213 C211 1.358 . S
C213 H255 0.930 . S
C214 C215 1.348 . S
C214 C216 1.356 . S
C214 O239 1.325 . S
C215 C214 1.348 . S
C215 C217 1.353 . S
C215 H256 0.929 . S
C216 C214 1.356 . S
C216 C218 1.358 . S
C216 H257 0.930 . S
C217 C215 1.353 . S
C217 N219 1.314 . S
C217 H258 0.930 . S
C218 C216 1.358 . S
C218 N219 1.279 . S
C218 H259 0.930 . S
N219 C217 1.314 . S
N219 C218 1.279 . S
C220 C222 1.353 . S
C220 N223 1.314 . S
C220 H226 0.930 . S
C221 N223 1.279 . S
C221 C224 1.358 . S
C221 H227 0.930 . S
C222 C220 1.353 . S
C222 C225 1.348 . S
C222 H260 0.929 . S
N223 Li178 1.990 . S
N223 C220 1.314 . S
N223 C221 1.279 . S
C224 C221 1.358 . S
C224 C225 1.356 . S
C224 H261 0.930 . S
C225 C222 1.348 . S
C225 C224 1.356 . S
H226 C220 0.930 . S
H227 C221 0.930 . S
C228 N229 1.314 . S
C228 C230 1.353 . S
C228 H234 0.930 . S
N229 Li179 1.990 . S
N229 C228 1.314 . S
N229 C232 1.279 . S
C230 C228 1.353 . S
C230 C233 1.348 . S
C230 H262 0.929 . S
C231 C232 1.358 . S
C231 C233 1.356 . S
C231 H263 0.930 . S
C232 N229 1.279 . S
C232 C231 1.358 . S
C232 H235 0.930 . S
C233 C230 1.348 . S
C233 C231 1.356 . S
H234 C228 0.930 . S
H235 C232 0.930 . S
O236 Li176 1.956 . S
O236 Li177 1.970 . S
O236 Li178 1.961 . S
O236 C180 1.325 . S
O237 Li176 1.970 . S
O237 Li177 1.956 . S
O237 Li179 1.961 . S
O237 C186 1.325 . S
O238 Li176 1.961 . S
O238 Li178 1.956 . S
O238 Li179 1.970 . S
O238 C208 1.325 . S
O239 Li177 1.961 . S
O239 Li178 1.970 . S
O239 Li179 1.956 . S
O239 C214 1.325 . S
H240 C182 0.929 . S
H241 C183 0.930 . S
H242 C184 0.930 . S
H243 C185 0.930 . S
H244 C187 0.930 . S
H245 C189 0.929 . S
H246 C190 0.930 . S
H247 C191 0.930 . S
H248 C194 0.930 . S
H249 C197 0.929 . S
H250 C202 0.929 . S
H251 C203 0.930 . S
H252 C210 0.929 . S
H253 C211 0.930 . S
H254 C212 0.930 . S
H255 C213 0.930 . S
H256 C215 0.929 . S
H257 C216 0.930 . S
H258 C217 0.930 . S
H259 C218 0.930 . S
H260 C222 0.929 . S
H261 C224 0.930 . S
H262 C230 0.929 . S
H263 C231 0.930 . S
Li264 N281 1.990 . S
Li264 O324 1.956 . S
Li264 O325 1.970 . S
Li264 O326 1.961 . S
Li265 N289 1.990 . S
Li265 O324 1.970 . S
Li265 O325 1.956 . S
Li265 O327 1.961 . S
Li266 N311 1.990 . S
Li266 O324 1.961 . S
Li266 O326 1.956 . S
Li266 O327 1.970 . S
Li267 N317 1.990 . S
Li267 O325 1.961 . S
Li267 O326 1.970 . S
Li267 O327 1.956 . S
C268 C270 1.348 . S
C268 C271 1.356 . S
C268 O324 1.325 . S
N269 C272 1.314 . S
N269 C273 1.279 . S
C270 C268 1.348 . S
C270 C272 1.353 . S
C270 H328 0.929 . S
C271 C268 1.356 . S
C271 C273 1.358 . S
C271 H329 0.930 . S
C272 N269 1.314 . S
C272 C270 1.353 . S
C272 H330 0.930 . S
C273 N269 1.279 . S
C273 C271 1.358 . S
C273 H331 0.930 . S
C274 C277 1.348 . S
C274 C278 1.356 . S
C274 O325 1.325 . S
C275 N276 1.279 . S
C275 C278 1.358 . S
C275 H332 0.930 . S
N276 C275 1.279 . S
N276 C279 1.314 . S
C277 C274 1.348 . S
C277 C279 1.353 . S
C277 H333 0.929 . S
C278 C274 1.356 . S
C278 C275 1.358 . S
C278 H334 0.930 . S
C279 N276 1.314 . S
C279 C277 1.353 . S
C279 H335 0.930 . S
C280 N281 1.314 . S
C280 C285 1.353 . S
C280 H286 0.930 . S
N281 Li264 1.990 . S
N281 C280 1.314 . S
N281 C283 1.279 . S
C282 C283 1.358 . S
C282 C284 1.356 . S
C282 H336 0.930 . S
C283 N281 1.279 . S
C283 C282 1.358 . S
C283 H287 0.930 . S
C284 C282 1.356 . S
C284 C285 1.348 . S
C285 C280 1.353 . S
C285 C284 1.348 . S
C285 H337 0.929 . S
H286 C280 0.930 . S
H287 C283 0.930 . S
C288 N289 1.314 . S
C288 C290 1.353 . S
C288 H294 0.930 . S
N289 Li265 1.990 . S
N289 C288 1.314 . S
N289 C292 1.279 . S
C290 C288 1.353 . S
C290 C293 1.348 . S
C290 H338 0.929 . S
C291 C292 1.358 . S
C291 C293 1.356 . S
C291 H339 0.930 . S
C292 N289 1.279 . S
C292 C291 1.358 . S
C292 H295 0.930 . S
C293 C290 1.348 . S
C293 C291 1.356 . S
H294 C288 0.930 . S
H295 C292 0.930 . S
C296 C298 1.348 . S
C296 C299 1.356 . S
C296 O326 1.325 . S
N297 C300 1.314 . S
N297 C301 1.279 . S
C298 C296 1.348 . S
C298 C300 1.353 . S
C298 H340 0.929 . S
C299 C296 1.356 . S
C299 C301 1.358 . S
C299 H341 0.930 . S
C300 N297 1.314 . S
C300 C298 1.353 . S
C300 H342 0.930 . S
C301 N297 1.279 . S
C301 C299 1.358 . S
C301 H343 0.930 . S
C302 C303 1.348 . S
C302 C304 1.356 . S
C302 O327 1.325 . S
C303 C302 1.348 . S
C303 C305 1.353 . S
C303 H344 0.929 . S
C304 C302 1.356 . S
C304 C306 1.358 . S
C304 H345 0.930 . S
C305 C303 1.353 . S
C305 N307 1.314 . S
C305 H346 0.930 . S
C306 C304 1.358 . S
C306 N307 1.279 . S
C306 H347 0.930 . S
N307 C305 1.314 . S
N307 C306 1.279 . S
C308 C310 1.353 . S
C308 N311 1.314 . S
C308 H314 0.930 . S
C309 N311 1.279 . S
C309 C312 1.358 . S
C309 H315 0.930 . S
C310 C308 1.353 . S
C310 C313 1.348 . S
C310 H348 0.929 . S
N311 Li266 1.990 . S
N311 C308 1.314 . S
N311 C309 1.279 . S
C312 C309 1.358 . S
C312 C313 1.356 . S
C312 H349 0.930 . S
C313 C310 1.348 . S
C313 C312 1.356 . S
H314 C308 0.930 . S
H315 C309 0.930 . S
C316 N317 1.314 . S
C316 C318 1.353 . S
C316 H322 0.930 . S
N317 Li267 1.990 . S
N317 C316 1.314 . S
N317 C320 1.279 . S
C318 C316 1.353 . S
C318 C321 1.348 . S
C318 H350 0.929 . S
C319 C320 1.358 . S
C319 C321 1.356 . S
C319 H351 0.930 . S
C320 N317 1.279 . S
C320 C319 1.358 . S
C320 H323 0.930 . S
C321 C318 1.348 . S
C321 C319 1.356 . S
H322 C316 0.930 . S
H323 C320 0.930 . S
O324 Li264 1.956 . S
O324 Li265 1.970 . S
O324 Li266 1.961 . S
O324 C268 1.325 . S
O325 Li264 1.970 . S
O325 Li265 1.956 . S
O325 Li267 1.961 . S
O325 C274 1.325 . S
O326 Li264 1.961 . S
O326 Li266 1.956 . S
O326 Li267 1.970 . S
O326 C296 1.325 . S
O327 Li265 1.961 . S
O327 Li266 1.970 . S
O327 Li267 1.956 . S
O327 C302 1.325 . S
H328 C270 0.929 . S
H329 C271 0.930 . S
H330 C272 0.930 . S
H331 C273 0.930 . S
H332 C275 0.930 . S
H333 C277 0.929 . S
H334 C278 0.930 . S
H335 C279 0.930 . S
H336 C282 0.930 . S
H337 C285 0.929 . S
H338 C290 0.929 . S
H339 C291 0.930 . S
H340 C298 0.929 . S
H341 C299 0.930 . S
H342 C300 0.930 . S
H343 C301 0.930 . S
H344 C303 0.929 . S
H345 C304 0.930 . S
H346 C305 0.930 . S
H347 C306 0.930 . S
H348 C310 0.929 . S
H349 C312 0.930 . S
H350 C318 0.929 . S
H351 C319 0.930 . S
Li352 N369 1.990 . S
Li352 O412 1.956 . S
Li352 O413 1.970 . S
Li352 O414 1.961 . S
Li353 N377 1.990 . S
Li353 O412 1.970 . S
Li353 O413 1.956 . S
Li353 O415 1.961 . S
Li354 N399 1.990 . S
Li354 O412 1.961 . S
Li354 O414 1.956 . S
Li354 O415 1.970 . S
Li355 N405 1.990 . S
Li355 O413 1.961 . S
Li355 O414 1.970 . S
Li355 O415 1.956 . S
C356 C358 1.348 . S
C356 C359 1.356 . S
C356 O412 1.325 . S
N357 C360 1.314 . S
N357 C361 1.279 . S
C358 C356 1.348 . S
C358 C360 1.353 . S
C358 H416 0.929 . S
C359 C356 1.356 . S
C359 C361 1.358 . S
C359 H417 0.930 . S
C360 N357 1.314 . S
C360 C358 1.353 . S
C360 H418 0.930 . S
C361 N357 1.279 . S
C361 C359 1.358 . S
C361 H419 0.930 . S
C362 C365 1.348 . S
C362 C366 1.356 . S
C362 O413 1.325 . S
C363 N364 1.279 . S
C363 C366 1.358 . S
C363 H420 0.930 . S
N364 C363 1.279 . S
N364 C367 1.314 . S
C365 C362 1.348 . S
C365 C367 1.353 . S
C365 H421 0.929 . S
C366 C362 1.356 . S
C366 C363 1.358 . S
C366 H422 0.930 . S
C367 N364 1.314 . S
C367 C365 1.353 . S
C367 H423 0.930 . S
C368 N369 1.314 . S
C368 C373 1.353 . S
C368 H374 0.930 . S
N369 Li352 1.990 . S
N369 C368 1.314 . S
N369 C371 1.279 . S
C370 C371 1.358 . S
C370 C372 1.356 . S
C370 H424 0.930 . S
C371 N369 1.279 . S
C371 C370 1.358 . S
C371 H375 0.930 . S
C372 C370 1.356 . S
C372 C373 1.348 . S
C373 C368 1.353 . S
C373 C372 1.348 . S
C373 H425 0.929 . S
H374 C368 0.930 . S
H375 C371 0.930 . S
C376 N377 1.314 . S
C376 C378 1.353 . S
C376 H382 0.930 . S
N377 Li353 1.990 . S
N377 C376 1.314 . S
N377 C380 1.279 . S
C378 C376 1.353 . S
C378 C381 1.348 . S
C378 H426 0.929 . S
C379 C380 1.358 . S
C379 C381 1.356 . S
C379 H427 0.930 . S
C380 N377 1.279 . S
C380 C379 1.358 . S
C380 H383 0.930 . S
C381 C378 1.348 . S
C381 C379 1.356 . S
H382 C376 0.930 . S
H383 C380 0.930 . S
C384 C386 1.348 1_455 S
C384 C387 1.356 . S
C384 O414 1.325 . S
N385 C388 1.314 . S
N385 C389 1.279 . S
C386 C384 1.348 1_655 S
C386 C388 1.353 . S
C386 H428 0.929 . S
C387 C384 1.356 . S
C387 C389 1.358 1_455 S
C387 H429 0.930 . S
C388 N385 1.314 . S
C388 C386 1.353 . S
C388 H430 0.930 . S
C389 N385 1.279 . S
C389 C387 1.358 1_655 S
C389 H431 0.930 . S
C390 C391 1.348 . S
C390 C392 1.356 . S
C390 O415 1.325 . S
C391 C390 1.348 . S
C391 C393 1.353 . S
C391 H432 0.929 . S
C392 C390 1.356 . S
C392 C394 1.358 . S
C392 H433 0.930 . S
C393 C391 1.353 . S
C393 N395 1.314 . S
C393 H434 0.930 . S
C394 C392 1.358 . S
C394 N395 1.279 . S
C394 H435 0.930 . S
N395 C393 1.314 . S
N395 C394 1.279 . S
C396 C398 1.353 . S
C396 N399 1.314 . S
C396 H402 0.930 . S
C397 N399 1.279 . S
C397 C400 1.358 . S
C397 H403 0.930 . S
C398 C396 1.353 . S
C398 C401 1.348 . S
C398 H436 0.929 . S
N399 Li354 1.990 . S
N399 C396 1.314 . S
N399 C397 1.279 . S
C400 C397 1.358 . S
C400 C401 1.356 . S
C400 H437 0.930 . S
C401 C398 1.348 . S
C401 C400 1.356 . S
H402 C396 0.930 . S
H403 C397 0.930 . S
C404 N405 1.314 . S
C404 C406 1.353 1_455 S
C404 H410 0.930 . S
N405 Li355 1.990 . S
N405 C404 1.314 . S
N405 C408 1.279 . S
C406 C404 1.353 1_655 S
C406 C409 1.348 . S
C406 H438 0.929 . S
C407 C408 1.358 1_655 S
C407 C409 1.356 . S
C407 H439 0.930 . S
C408 N405 1.279 . S
C408 C407 1.358 1_455 S
C408 H411 0.930 . S
C409 C406 1.348 . S
C409 C407 1.356 . S
H410 C404 0.930 . S
H411 C408 0.930 . S
O412 Li352 1.956 . S
O412 Li353 1.970 . S
O412 Li354 1.961 . S
O412 C356 1.325 . S
O413 Li352 1.970 . S
O413 Li353 1.956 . S
O413 Li355 1.961 . S
O413 C362 1.325 . S
O414 Li352 1.961 . S
O414 Li354 1.956 . S
O414 Li355 1.970 . S
O414 C384 1.325 . S
O415 Li353 1.961 . S
O415 Li354 1.970 . S
O415 Li355 1.956 . S
O415 C390 1.325 . S
H416 C358 0.929 . S
H417 C359 0.930 . S
H418 C360 0.930 . S
H419 C361 0.930 . S
H420 C363 0.930 . S
H421 C365 0.929 . S
H422 C366 0.930 . S
H423 C367 0.930 . S
H424 C370 0.930 . S
H425 C373 0.929 . S
H426 C378 0.929 . S
H427 C379 0.930 . S
H428 C386 0.929 . S
H429 C387 0.930 . S
H430 C388 0.930 . S
H431 C389 0.930 . S
H432 C391 0.929 . S
H433 C392 0.930 . S
H434 C393 0.930 . S
H435 C394 0.930 . S
H436 C398 0.929 . S
H437 C400 0.930 . S
H438 C406 0.929 . S
H439 C407 0.930 . S
Li440 N457 1.990 . S
Li440 O500 1.956 . S
Li440 O501 1.970 . S
Li440 O502 1.961 . S
Li441 N465 1.990 . S
Li441 O500 1.970 . S
Li441 O501 1.956 . S
Li441 O503 1.961 . S
Li442 N487 1.990 . S
Li442 O500 1.961 . S
Li442 O502 1.956 . S
Li442 O503 1.970 . S
Li443 N493 1.990 . S
Li443 O501 1.961 . S
Li443 O502 1.970 . S
Li443 O503 1.956 . S
C444 C446 1.348 . S
C444 C447 1.356 . S
C444 O500 1.325 . S
N445 C448 1.314 . S
N445 C449 1.279 . S
C446 C444 1.348 . S
C446 C448 1.353 . S
C446 H504 0.929 . S
C447 C444 1.356 . S
C447 C449 1.358 . S
C447 H505 0.930 . S
C448 N445 1.314 . S
C448 C446 1.353 . S
C448 H506 0.930 . S
C449 N445 1.279 . S
C449 C447 1.358 . S
C449 H507 0.930 . S
C450 C453 1.348 . S
C450 C454 1.356 . S
C450 O501 1.325 . S
C451 N452 1.279 . S
C451 C454 1.358 . S
C451 H508 0.930 . S
N452 C451 1.279 . S
N452 C455 1.314 . S
C453 C450 1.348 . S
C453 C455 1.353 . S
C453 H509 0.929 . S
C454 C450 1.356 . S
C454 C451 1.358 . S
C454 H510 0.930 . S
C455 N452 1.314 . S
C455 C453 1.353 . S
C455 H511 0.930 . S
C456 N457 1.314 . S
C456 C461 1.353 . S
C456 H462 0.930 . S
N457 Li440 1.990 . S
N457 C456 1.314 . S
N457 C459 1.279 . S
C458 C459 1.358 . S
C458 C460 1.356 . S
C458 H512 0.930 . S
C459 N457 1.279 . S
C459 C458 1.358 . S
C459 H463 0.930 . S
C460 C458 1.356 . S
C460 C461 1.348 . S
C461 C456 1.353 . S
C461 C460 1.348 . S
C461 H513 0.929 . S
H462 C456 0.930 . S
H463 C459 0.930 . S
C464 N465 1.314 . S
C464 C466 1.353 . S
C464 H470 0.930 . S
N465 Li441 1.990 . S
N465 C464 1.314 . S
N465 C468 1.279 . S
C466 C464 1.353 . S
C466 C469 1.348 . S
C466 H514 0.929 . S
C467 C468 1.358 . S
C467 C469 1.356 . S
C467 H515 0.930 . S
C468 N465 1.279 . S
C468 C467 1.358 . S
C468 H471 0.930 . S
C469 C466 1.348 . S
C469 C467 1.356 . S
H470 C464 0.930 . S
H471 C468 0.930 . S
C472 C474 1.348 . S
C472 C475 1.356 . S
C472 O502 1.325 . S
N473 C476 1.314 . S
N473 C477 1.279 . S
C474 C472 1.348 . S
C474 C476 1.353 . S
C474 H516 0.929 . S
C475 C472 1.356 . S
C475 C477 1.358 . S
C475 H517 0.930 . S
C476 N473 1.314 . S
C476 C474 1.353 . S
C476 H518 0.930 . S
C477 N473 1.279 . S
C477 C475 1.358 . S
C477 H519 0.930 . S
C478 C479 1.348 . S
C478 C480 1.356 . S
C478 O503 1.325 . S
C479 C478 1.348 . S
C479 C481 1.353 . S
C479 H520 0.929 . S
C480 C478 1.356 . S
C480 C482 1.358 . S
C480 H521 0.930 . S
C481 C479 1.353 . S
C481 N483 1.314 . S
C481 H522 0.930 . S
C482 C480 1.358 . S
C482 N483 1.279 . S
C482 H523 0.930 . S
N483 C481 1.314 . S
N483 C482 1.279 . S
C484 C486 1.353 . S
C484 N487 1.314 . S
C484 H490 0.930 . S
C485 N487 1.279 . S
C485 C488 1.358 . S
C485 H491 0.930 . S
C486 C484 1.353 . S
C486 C489 1.348 . S
C486 H524 0.929 . S
N487 Li442 1.990 . S
N487 C484 1.314 . S
N487 C485 1.279 . S
C488 C485 1.358 . S
C488 C489 1.356 . S
C488 H525 0.930 . S
C489 C486 1.348 . S
C489 C488 1.356 . S
H490 C484 0.930 . S
H491 C485 0.930 . S
C492 N493 1.314 . S
C492 C494 1.353 . S
C492 H498 0.930 . S
N493 Li443 1.990 . S
N493 C492 1.314 . S
N493 C496 1.279 . S
C494 C492 1.353 . S
C494 C497 1.348 . S
C494 H526 0.929 . S
C495 C496 1.358 . S
C495 C497 1.356 . S
C495 H527 0.930 . S
C496 N493 1.279 . S
C496 C495 1.358 . S
C496 H499 0.930 . S
C497 C494 1.348 . S
C497 C495 1.356 . S
H498 C492 0.930 . S
H499 C496 0.930 . S
O500 Li440 1.956 . S
O500 Li441 1.970 . S
O500 Li442 1.961 . S
O500 C444 1.325 . S
O501 Li440 1.970 . S
O501 Li441 1.956 . S
O501 Li443 1.961 . S
O501 C450 1.325 . S
O502 Li440 1.961 . S
O502 Li442 1.956 . S
O502 Li443 1.970 . S
O502 C472 1.325 . S
O503 Li441 1.961 . S
O503 Li442 1.970 . S
O503 Li443 1.956 . S
O503 C478 1.325 . S
H504 C446 0.929 . S
H505 C447 0.930 . S
H506 C448 0.930 . S
H507 C449 0.930 . S
H508 C451 0.930 . S
H509 C453 0.929 . S
H510 C454 0.930 . S
H511 C455 0.930 . S
H512 C458 0.930 . S
H513 C461 0.929 . S
H514 C466 0.929 . S
H515 C467 0.930 . S
H516 C474 0.929 . S
H517 C475 0.930 . S
H518 C476 0.930 . S
H519 C477 0.930 . S
H520 C479 0.929 . S
H521 C480 0.930 . S
H522 C481 0.930 . S
H523 C482 0.930 . S
H524 C486 0.929 . S
H525 C488 0.930 . S
H526 C494 0.929 . S
H527 C495 0.930 . S
Li528 N545 1.990 . S
Li528 O588 1.956 . S
Li528 O589 1.970 . S
Li528 O590 1.961 . S
Li529 N553 1.990 . S
Li529 O588 1.970 . S
Li529 O589 1.956 . S
Li529 O591 1.961 . S
Li530 N575 1.990 . S
Li530 O588 1.961 . S
Li530 O590 1.956 . S
Li530 O591 1.970 . S
Li531 N581 1.990 . S
Li531 O589 1.961 . S
Li531 O590 1.970 . S
Li531 O591 1.956 . S
C532 C534 1.348 . S
C532 C535 1.356 . S
C532 O588 1.325 . S
N533 C536 1.314 . S
N533 C537 1.279 . S
C534 C532 1.348 . S
C534 C536 1.353 . S
C534 H592 0.929 . S
C535 C532 1.356 . S
C535 C537 1.358 . S
C535 H593 0.930 . S
C536 N533 1.314 . S
C536 C534 1.353 . S
C536 H594 0.930 . S
C537 N533 1.279 . S
C537 C535 1.358 . S
C537 H595 0.930 . S
C538 C541 1.348 . S
C538 C542 1.356 . S
C538 O589 1.325 . S
C539 N540 1.279 . S
C539 C542 1.358 . S
C539 H596 0.930 . S
N540 C539 1.279 . S
N540 C543 1.314 . S
C541 C538 1.348 . S
C541 C543 1.353 . S
C541 H597 0.929 . S
C542 C538 1.356 . S
C542 C539 1.358 . S
C542 H598 0.930 . S
C543 N540 1.314 . S
C543 C541 1.353 . S
C543 H599 0.930 . S
C544 N545 1.314 . S
C544 C549 1.353 . S
C544 H550 0.930 . S
N545 Li528 1.990 . S
N545 C544 1.314 . S
N545 C547 1.279 . S
C546 C547 1.358 . S
C546 C548 1.356 . S
C546 H600 0.930 . S
C547 N545 1.279 . S
C547 C546 1.358 . S
C547 H551 0.930 . S
C548 C546 1.356 . S
C548 C549 1.348 . S
C549 C544 1.353 . S
C549 C548 1.348 . S
C549 H601 0.929 . S
H550 C544 0.930 . S
H551 C547 0.930 . S
C552 N553 1.314 . S
C552 C554 1.353 . S
C552 H558 0.930 . S
N553 Li529 1.990 . S
N553 C552 1.314 . S
N553 C556 1.279 . S
C554 C552 1.353 . S
C554 C557 1.348 . S
C554 H602 0.929 . S
C555 C556 1.358 . S
C555 C557 1.356 . S
C555 H603 0.930 . S
C556 N553 1.279 . S
C556 C555 1.358 . S
C556 H559 0.930 . S
C557 C554 1.348 . S
C557 C555 1.356 . S
H558 C552 0.930 . S
H559 C556 0.930 . S
C560 C562 1.348 . S
C560 C563 1.356 . S
C560 O590 1.325 . S
N561 C564 1.314 . S
N561 C565 1.279 . S
C562 C560 1.348 . S
C562 C564 1.353 . S
C562 H604 0.929 . S
C563 C560 1.356 . S
C563 C565 1.358 . S
C563 H605 0.930 . S
C564 N561 1.314 . S
C564 C562 1.353 . S
C564 H606 0.930 . S
C565 N561 1.279 . S
C565 C563 1.358 . S
C565 H607 0.930 . S
C566 C567 1.348 . S
C566 C568 1.356 . S
C566 O591 1.325 . S
C567 C566 1.348 . S
C567 C569 1.353 . S
C567 H608 0.929 . S
C568 C566 1.356 . S
C568 C570 1.358 . S
C568 H609 0.930 . S
C569 C567 1.353 . S
C569 N571 1.314 . S
C569 H610 0.930 . S
C570 C568 1.358 . S
C570 N571 1.279 . S
C570 H611 0.930 . S
N571 C569 1.314 . S
N571 C570 1.279 . S
C572 C574 1.353 . S
C572 N575 1.314 . S
C572 H578 0.930 . S
C573 N575 1.279 . S
C573 C576 1.358 . S
C573 H579 0.930 . S
C574 C572 1.353 . S
C574 C577 1.348 . S
C574 H612 0.929 . S
N575 Li530 1.990 . S
N575 C572 1.314 . S
N575 C573 1.279 . S
C576 C573 1.358 . S
C576 C577 1.356 . S
C576 H613 0.930 . S
C577 C574 1.348 . S
C577 C576 1.356 . S
H578 C572 0.930 . S
H579 C573 0.930 . S
C580 N581 1.314 . S
C580 C582 1.353 . S
C580 H586 0.930 . S
N581 Li531 1.990 . S
N581 C580 1.314 . S
N581 C584 1.279 . S
C582 C580 1.353 . S
C582 C585 1.348 . S
C582 H614 0.929 . S
C583 C584 1.358 . S
C583 C585 1.356 . S
C583 H615 0.930 . S
C584 N581 1.279 . S
C584 C583 1.358 . S
C584 H587 0.930 . S
C585 C582 1.348 . S
C585 C583 1.356 . S
H586 C580 0.930 . S
H587 C584 0.930 . S
O588 Li528 1.956 . S
O588 Li529 1.970 . S
O588 Li530 1.961 . S
O588 C532 1.325 . S
O589 Li528 1.970 . S
O589 Li529 1.956 . S
O589 Li531 1.961 . S
O589 C538 1.325 . S
O590 Li528 1.961 . S
O590 Li530 1.956 . S
O590 Li531 1.970 . S
O590 C560 1.325 . S
O591 Li529 1.961 . S
O591 Li530 1.970 . S
O591 Li531 1.956 . S
O591 C566 1.325 . S
H592 C534 0.929 . S
H593 C535 0.930 . S
H594 C536 0.930 . S
H595 C537 0.930 . S
H596 C539 0.930 . S
H597 C541 0.929 . S
H598 C542 0.930 . S
H599 C543 0.930 . S
H600 C546 0.930 . S
H601 C549 0.929 . S
H602 C554 0.929 . S
H603 C555 0.930 . S
H604 C562 0.929 . S
H605 C563 0.930 . S
H606 C564 0.930 . S
H607 C565 0.930 . S
H608 C567 0.929 . S
H609 C568 0.930 . S
H610 C569 0.930 . S
H611 C570 0.930 . S
H612 C574 0.929 . S
H613 C576 0.930 . S
H614 C582 0.929 . S
H615 C583 0.930 . S
Li616 N633 1.990 . S
Li616 O676 1.956 1_455 S
Li616 O677 1.970 . S
Li616 O678 1.961 . S
Li617 N641 1.990 . S
Li617 O676 1.970 . S
Li617 O677 1.956 1_655 S
Li617 O679 1.961 . S
Li618 N663 1.993 . S
Li618 O676 1.959 . S
Li618 O678 1.958 1_655 S
Li618 O679 1.970 . S
Li619 N669 1.990 . S
Li619 O677 1.961 . S
Li619 O678 1.970 . S
Li619 O679 1.956 1_455 S
C620 C622 1.348 . S
C620 C623 1.356 . S
C620 O676 1.325 . S
N621 C624 1.314 . S
N621 C625 1.279 . S
C622 C620 1.348 . S
C622 C624 1.353 . S
C622 H680 0.929 . S
C623 C620 1.356 . S
C623 C625 1.358 . S
C623 H681 0.930 . S
C624 N621 1.314 . S
C624 C622 1.353 . S
C624 H682 0.930 . S
C625 N621 1.279 . S
C625 C623 1.358 . S
C625 H683 0.930 . S
C626 C629 1.348 1_455 S
C626 C630 1.356 . S
C626 O677 1.325 . S
C627 N628 1.279 . S
C627 C630 1.358 . S
C627 H684 0.930 . S
N628 C627 1.279 . S
N628 C631 1.314 1_455 S
C629 C626 1.348 1_655 S
C629 C631 1.353 . S
C629 H685 0.929 . S
C630 C626 1.356 . S
C630 C627 1.358 . S
C630 H686 0.930 . S
C631 N628 1.314 1_655 S
C631 C629 1.353 . S
C631 H687 0.930 . S
C632 N633 1.314 . S
C632 C637 1.353 . S
C632 H638 0.930 . S
N633 Li616 1.990 . S
N633 C632 1.314 . S
N633 C635 1.279 1_455 S
C634 C635 1.358 . S
C634 C636 1.356 1_655 S
C634 H688 0.930 . S
C635 N633 1.279 1_655 S
C635 C634 1.358 . S
C635 H639 0.930 . S
C636 C634 1.356 1_455 S
C636 C637 1.348 . S
C637 C632 1.353 . S
C637 C636 1.348 . S
C637 H689 0.929 . S
H638 C632 0.930 . S
H639 C635 0.930 . S
C640 N641 1.314 . S
C640 C642 1.353 . S
C640 H646 0.930 . S
N641 Li617 1.990 . S
N641 C640 1.314 . S
N641 C644 1.279 . S
C642 C640 1.353 . S
C642 C645 1.348 . S
C642 H690 0.929 . S
C643 C644 1.358 . S
C643 C645 1.356 . S
C643 H691 0.930 . S
C644 N641 1.279 . S
C644 C643 1.358 . S
C644 H647 0.930 . S
C645 C642 1.348 . S
C645 C643 1.356 . S
H646 C640 0.930 . S
H647 C644 0.930 . S
C648 C650 1.348 . S
C648 C651 1.356 . S
C648 O678 1.325 . S
N649 C652 1.314 . S
N649 C653 1.279 . S
C650 C648 1.348 . S
C650 C652 1.353 . S
C650 H692 0.929 . S
C651 C648 1.356 . S
C651 C653 1.358 . S
C651 H693 0.930 . S
C652 N649 1.314 . S
C652 C650 1.353 . S
C652 H694 0.930 . S
C653 N649 1.279 . S
C653 C651 1.358 . S
C653 H695 0.930 . S
C654 C655 1.363 . S
C654 C656 1.356 . S
C654 O679 1.325 . S
C655 C654 1.363 . S
C655 C657 1.350 . S
C655 H696 0.920 1_655 S
C656 C654 1.356 . S
C656 C658 1.358 . S
C656 H697 0.930 . S
C657 C655 1.350 . S
C657 N659 1.314 . S
C657 H698 0.937 . S
C658 C656 1.358 . S
C658 N659 1.279 . S
C658 H699 0.930 . S
N659 C657 1.314 . S
N659 C658 1.279 . S
C660 C662 1.353 . S
C660 N663 1.341 . S
C660 H666 0.930 . S
C661 N663 1.251 1_455 S
C661 C664 1.358 . S
C661 H667 0.930 . S
C662 C660 1.353 . S
C662 C665 1.348 . S
C662 H700 0.929 . S
N663 Li618 1.993 . S
N663 C660 1.341 . S
N663 C661 1.251 1_655 S
C664 C661 1.358 . S
C664 C665 1.356 1_455 S
C664 H701 0.930 . S
C665 C662 1.348 . S
C665 C664 1.356 1_655 S
H666 C660 0.930 . S
H667 C661 0.930 . S
C668 N669 1.314 . S
C668 C670 1.353 . S
C668 H674 0.930 . S
N669 Li619 1.990 . S
N669 C668 1.314 . S
N669 C672 1.279 . S
C670 C668 1.353 . S
C670 C673 1.348 . S
C670 H702 0.929 . S
C671 C672 1.358 . S
C671 C673 1.356 . S
C671 H703 0.930 . S
C672 N669 1.279 . S
C672 C671 1.358 . S
C672 H675 0.930 . S
C673 C670 1.348 . S
C673 C671 1.356 . S
H674 C668 0.930 . S
H675 C672 0.930 . S
O676 Li616 1.956 1_655 S
O676 Li617 1.970 . S
O676 Li618 1.959 . S
O676 C620 1.325 . S
O677 Li616 1.970 . S
O677 Li617 1.956 1_455 S
O677 Li619 1.961 . S
O677 C626 1.325 . S
O678 Li616 1.961 . S
O678 Li618 1.958 1_455 S
O678 Li619 1.970 . S
O678 C648 1.325 . S
O679 Li617 1.961 . S
O679 Li618 1.970 . S
O679 Li619 1.956 1_655 S
O679 C654 1.325 . S
H680 C622 0.929 . S
H681 C623 0.930 . S
H682 C624 0.930 . S
H683 C625 0.930 . S
H684 C627 0.930 . S
H685 C629 0.929 . S
H686 C630 0.930 . S
H687 C631 0.930 . S
H688 C634 0.930 . S
H689 C637 0.929 . S
H690 C642 0.929 . S
H691 C643 0.930 . S
H692 C650 0.929 . S
H693 C651 0.930 . S
H694 C652 0.930 . S
H695 C653 0.930 . S
H696 C655 0.920 1_455 S
H697 C656 0.930 . S
H698 C657 0.937 . S
H699 C658 0.930 . S
H700 C662 0.929 . S
H701 C664 0.930 . S
H702 C670 0.929 . S
H703 C671 0.930 . S
Li704 N721 1.990 . S
Li704 O764 1.956 1_545 S
Li704 O765 1.970 . S
Li704 O766 1.961 . S
Li705 N729 1.990 . S
Li705 O764 1.970 . S
Li705 O765 1.956 1_565 S
Li705 O767 1.961 1_565 S
Li706 N751 1.990 . S
Li706 O764 1.961 1_545 S
Li706 O766 1.956 . S
Li706 O767 1.970 . S
Li707 N757 1.990 . S
Li707 O765 1.961 . S
Li707 O766 1.970 . S
Li707 O767 1.956 . S
C708 C710 1.348 . S
C708 C711 1.356 . S
C708 O764 1.325 . S
N709 C712 1.314 . S
N709 C713 1.279 . S
C710 C708 1.348 . S
C710 C712 1.353 . S
C710 H768 0.929 . S
C711 C708 1.356 . S
C711 C713 1.358 . S
C711 H769 0.930 . S
C712 N709 1.314 . S
C712 C710 1.353 . S
C712 H770 0.930 . S
C713 N709 1.279 . S
C713 C711 1.358 . S
C713 H771 0.930 . S
C714 C717 1.348 . S
C714 C718 1.356 . S
C714 O765 1.325 . S
C715 N716 1.279 . S
C715 C718 1.358 . S
C715 H772 0.930 . S
N716 C715 1.279 . S
N716 C719 1.314 . S
C717 C714 1.348 . S
C717 C719 1.353 . S
C717 H773 0.929 . S
C718 C714 1.356 . S
C718 C715 1.358 . S
C718 H774 0.930 . S
C719 N716 1.314 . S
C719 C717 1.353 . S
C719 H775 0.947 . S
C720 N721 1.314 . S
C720 C725 1.353 . S
C720 H726 0.930 . S
N721 Li704 1.990 . S
N721 C720 1.314 . S
N721 C723 1.300 . S
C722 C723 1.356 . S
C722 C724 1.356 . S
C722 H776 0.930 1_545 S
C723 N721 1.300 . S
C723 C722 1.356 . S
C723 H727 0.910 1_545 S
C724 C722 1.356 . S
C724 C725 1.348 . S
C725 C720 1.353 . S
C725 C724 1.348 . S
C725 H777 0.929 . S
H726 C720 0.930 . S
H727 C723 0.910 1_565 S
C728 N729 1.314 . S
C728 C730 1.353 . S
C728 H734 0.930 . S
N729 Li705 1.990 . S
N729 C728 1.314 . S
N729 C732 1.279 . S
C730 C728 1.353 . S
C730 C733 1.348 . S
C730 H778 0.929 . S
C731 C732 1.358 . S
C731 C733 1.356 . S
C731 H779 0.930 . S
C732 N729 1.279 . S
C732 C731 1.358 . S
C732 H735 0.930 . S
C733 C730 1.348 . S
C733 C731 1.356 . S
H734 C728 0.930 . S
H735 C732 0.930 . S
C736 C738 1.348 . S
C736 C739 1.356 . S
C736 O766 1.325 . S
N737 C740 1.314 . S
N737 C741 1.279 . S
C738 C736 1.348 . S
C738 C740 1.353 . S
C738 H780 0.929 . S
C739 C736 1.356 . S
C739 C741 1.358 . S
C739 H781 0.930 . S
C740 N737 1.314 . S
C740 C738 1.353 . S
C740 H782 0.930 . S
C741 N737 1.279 . S
C741 C739 1.358 . S
C741 H783 0.930 . S
C742 C743 1.348 . S
C742 C744 1.356 1_545 S
C742 O767 1.325 . S
C743 C742 1.348 . S
C743 C745 1.353 . S
C743 H784 0.929 . S
C744 C742 1.356 1_565 S
C744 C746 1.358 . S
C744 H785 0.930 . S
C745 C743 1.353 . S
C745 N747 1.317 . S
C745 H786 0.930 . S
C746 C744 1.358 . S
C746 N747 1.275 1_565 S
C746 H787 0.930 . S
N747 C745 1.317 . S
N747 C746 1.275 1_545 S
C748 C750 1.353 . S
C748 N751 1.314 1_565 S
C748 H754 0.930 . S
C749 N751 1.279 . S
C749 C752 1.358 . S
C749 H755 0.930 . S
C750 C748 1.353 . S
C750 C753 1.348 1_565 S
C750 H788 0.929 . S
N751 Li706 1.990 . S
N751 C748 1.314 1_545 S
N751 C749 1.279 . S
C752 C749 1.358 . S
C752 C753 1.356 . S
C752 H789 0.930 . S
C753 C750 1.348 1_545 S
C753 C752 1.356 . S
H754 C748 0.930 . S
H755 C749 0.930 . S
C756 N757 1.314 . S
C756 C758 1.353 . S
C756 H762 0.930 . S
N757 Li707 1.990 . S
N757 C756 1.314 . S
N757 C760 1.279 . S
C758 C756 1.353 . S
C758 C761 1.348 . S
C758 H790 0.929 . S
C759 C760 1.358 . S
C759 C761 1.356 . S
C759 H791 0.930 . S
C760 N757 1.279 . S
C760 C759 1.358 . S
C760 H763 0.930 . S
C761 C758 1.348 . S
C761 C759 1.356 . S
H762 C756 0.930 . S
H763 C760 0.930 . S
O764 Li704 1.956 1_565 S
O764 Li705 1.970 . S
O764 Li706 1.961 1_565 S
O764 C708 1.325 . S
O765 Li704 1.970 . S
O765 Li705 1.956 1_545 S
O765 Li707 1.961 . S
O765 C714 1.325 . S
O766 Li704 1.961 . S
O766 Li706 1.956 . S
O766 Li707 1.970 . S
O766 C736 1.325 . S
O767 Li705 1.961 1_545 S
O767 Li706 1.970 . S
O767 Li707 1.956 . S
O767 C742 1.325 . S
H768 C710 0.929 . S
H769 C711 0.930 . S
H770 C712 0.930 . S
H771 C713 0.930 . S
H772 C715 0.930 . S
H773 C717 0.929 . S
H774 C718 0.930 . S
H775 C719 0.947 . S
H776 C722 0.930 1_565 S
H777 C725 0.929 . S
H778 C730 0.929 . S
H779 C731 0.930 . S
H780 C738 0.929 . S
H781 C739 0.930 . S
H782 C740 0.930 . S
H783 C741 0.930 . S
H784 C743 0.929 . S
H785 C744 0.930 . S
H786 C745 0.930 . S
H787 C746 0.930 . S
H788 C750 0.929 . S
H789 C752 0.930 . S
H790 C758 0.929 . S
H791 C759 0.930 . S
Li792 N809 1.990 . S
Li792 O852 1.956 . S
Li792 O853 1.970 . S
Li792 O854 1.961 . S
Li793 N817 1.990 . S
Li793 O852 1.970 . S
Li793 O853 1.956 . S
Li793 O855 1.961 . S
Li794 N839 1.990 . S
Li794 O852 1.961 . S
Li794 O854 1.956 . S
Li794 O855 1.970 . S
Li795 N845 1.990 . S
Li795 O853 1.961 . S
Li795 O854 1.970 . S
Li795 O855 1.956 . S
C796 C798 1.348 . S
C796 C799 1.356 . S
C796 O852 1.325 . S
N797 C800 1.314 . S
N797 C801 1.279 . S
C798 C796 1.348 . S
C798 C800 1.353 . S
C798 H856 0.929 . S
C799 C796 1.356 . S
C799 C801 1.358 . S
C799 H857 0.930 . S
C800 N797 1.314 . S
C800 C798 1.353 . S
C800 H858 0.930 . S
C801 N797 1.279 . S
C801 C799 1.358 . S
C801 H859 0.930 . S
C802 C805 1.348 . S
C802 C806 1.356 . S
C802 O853 1.325 . S
C803 N804 1.279 . S
C803 C806 1.358 . S
C803 H860 0.930 . S
N804 C803 1.279 . S
N804 C807 1.314 . S
C805 C802 1.348 . S
C805 C807 1.353 . S
C805 H861 0.929 . S
C806 C802 1.356 . S
C806 C803 1.358 . S
C806 H862 0.930 . S
C807 N804 1.314 . S
C807 C805 1.353 . S
C807 H863 0.930 . S
C808 N809 1.314 . S
C808 C813 1.353 . S
C808 H814 0.930 . S
N809 Li792 1.990 . S
N809 C808 1.314 . S
N809 C811 1.279 . S
C810 C811 1.358 . S
C810 C812 1.356 . S
C810 H864 0.930 . S
C811 N809 1.279 . S
C811 C810 1.358 . S
C811 H815 0.930 . S
C812 C810 1.356 . S
C812 C813 1.348 . S
C813 C808 1.353 . S
C813 C812 1.348 . S
C813 H865 0.929 . S
H814 C808 0.930 . S
H815 C811 0.930 . S
C816 N817 1.314 . S
C816 C818 1.353 . S
C816 H822 0.930 . S
N817 Li793 1.990 . S
N817 C816 1.314 . S
N817 C820 1.279 . S
C818 C816 1.353 . S
C818 C821 1.348 . S
C818 H866 0.929 . S
C819 C820 1.358 . S
C819 C821 1.356 . S
C819 H867 0.930 . S
C820 N817 1.279 . S
C820 C819 1.358 . S
C820 H823 0.930 . S
C821 C818 1.348 . S
C821 C819 1.356 . S
H822 C816 0.930 . S
H823 C820 0.930 . S
C824 C826 1.348 . S
C824 C827 1.356 . S
C824 O854 1.325 . S
N825 C828 1.314 . S
N825 C829 1.279 . S
C826 C824 1.348 . S
C826 C828 1.353 . S
C826 H868 0.929 . S
C827 C824 1.356 . S
C827 C829 1.358 . S
C827 H869 0.930 . S
C828 N825 1.314 . S
C828 C826 1.353 . S
C828 H870 0.930 . S
C829 N825 1.279 . S
C829 C827 1.358 . S
C829 H871 0.930 . S
C830 C831 1.348 . S
C830 C832 1.356 . S
C830 O855 1.325 . S
C831 C830 1.348 . S
C831 C833 1.353 . S
C831 H872 0.929 . S
C832 C830 1.356 . S
C832 C834 1.358 . S
C832 H873 0.930 . S
C833 C831 1.353 . S
C833 N835 1.314 . S
C833 H874 0.930 . S
C834 C832 1.358 . S
C834 N835 1.279 . S
C834 H875 0.930 . S
N835 C833 1.314 . S
N835 C834 1.279 . S
C836 C838 1.353 . S
C836 N839 1.314 . S
C836 H842 0.930 . S
C837 N839 1.279 . S
C837 C840 1.358 . S
C837 H843 0.930 . S
C838 C836 1.353 . S
C838 C841 1.348 . S
C838 H876 0.929 . S
N839 Li794 1.990 . S
N839 C836 1.314 . S
N839 C837 1.279 . S
C840 C837 1.358 . S
C840 C841 1.356 . S
C840 H877 0.930 . S
C841 C838 1.348 . S
C841 C840 1.356 . S
H842 C836 0.930 . S
H843 C837 0.930 . S
C844 N845 1.314 . S
C844 C846 1.353 . S
C844 H850 0.930 . S
N845 Li795 1.990 . S
N845 C844 1.314 . S
N845 C848 1.279 . S
C846 C844 1.353 . S
C846 C849 1.348 . S
C846 H878 0.929 . S
C847 C848 1.358 . S
C847 C849 1.356 . S
C847 H879 0.930 . S
C848 N845 1.279 . S
C848 C847 1.358 . S
C848 H851 0.930 . S
C849 C846 1.348 . S
C849 C847 1.356 . S
H850 C844 0.930 . S
H851 C848 0.930 . S
O852 Li792 1.956 . S
O852 Li793 1.970 . S
O852 Li794 1.961 . S
O852 C796 1.325 . S
O853 Li792 1.970 . S
O853 Li793 1.956 . S
O853 Li795 1.961 . S
O853 C802 1.325 . S
O854 Li792 1.961 . S
O854 Li794 1.956 . S
O854 Li795 1.970 . S
O854 C824 1.325 . S
O855 Li793 1.961 . S
O855 Li794 1.970 . S
O855 Li795 1.956 . S
O855 C830 1.325 . S
H856 C798 0.929 . S
H857 C799 0.930 . S
H858 C800 0.930 . S
H859 C801 0.930 . S
H860 C803 0.930 . S
H861 C805 0.929 . S
H862 C806 0.930 . S
H863 C807 0.930 . S
H864 C810 0.930 . S
H865 C813 0.929 . S
H866 C818 0.929 . S
H867 C819 0.930 . S
H868 C826 0.929 . S
H869 C827 0.930 . S
H870 C828 0.930 . S
H871 C829 0.930 . S
H872 C831 0.929 . S
H873 C832 0.930 . S
H874 C833 0.930 . S
H875 C834 0.930 . S
H876 C838 0.929 . S
H877 C840 0.930 . S
H878 C846 0.929 . S
H879 C847 0.930 . S
Li880 N897 1.990 . S
Li880 O940 1.956 . S
Li880 O941 1.970 . S
Li880 O942 1.961 . S
Li881 N905 1.990 . S
Li881 O940 1.970 . S
Li881 O941 1.956 . S
Li881 O943 1.961 . S
Li882 N927 1.990 1_545 S
Li882 O940 1.961 . S
Li882 O942 1.956 . S
Li882 O943 1.970 . S
Li883 N933 1.990 . S
Li883 O941 1.961 . S
Li883 O942 1.970 . S
Li883 O943 1.956 . S
C884 C886 1.348 . S
C884 C887 1.356 . S
C884 O940 1.325 . S
N885 C888 1.314 . S
N885 C889 1.279 . S
C886 C884 1.348 . S
C886 C888 1.353 . S
C886 H944 0.929 . S
C887 C884 1.356 . S
C887 C889 1.358 . S
C887 H945 0.930 . S
C888 N885 1.314 . S
C888 C886 1.353 . S
C888 H946 0.930 . S
C889 N885 1.279 . S
C889 C887 1.358 . S
C889 H947 0.930 . S
C890 C893 1.348 . S
C890 C894 1.356 . S
C890 O941 1.325 . S
C891 N892 1.279 . S
C891 C894 1.358 . S
C891 H948 0.930 . S
N892 C891 1.279 . S
N892 C895 1.314 . S
C893 C890 1.348 . S
C893 C895 1.353 . S
C893 H949 0.929 . S
C894 C890 1.356 . S
C894 C891 1.358 . S
C894 H950 0.930 . S
C895 N892 1.314 . S
C895 C893 1.353 . S
C895 H951 0.930 . S
C896 N897 1.314 . S
C896 C901 1.353 . S
C896 H902 0.930 . S
N897 Li880 1.990 . S
N897 C896 1.314 . S
N897 C899 1.279 . S
C898 C899 1.358 . S
C898 C900 1.356 . S
C898 H952 0.930 . S
C899 N897 1.279 . S
C899 C898 1.358 . S
C899 H903 0.930 . S
C900 C898 1.356 . S
C900 C901 1.348 . S
C901 C896 1.353 . S
C901 C900 1.348 . S
C901 H953 0.929 . S
H902 C896 0.930 . S
H903 C899 0.930 . S
C904 N905 1.314 . S
C904 C906 1.353 . S
C904 H910 0.930 . S
N905 Li881 1.990 . S
N905 C904 1.314 . S
N905 C908 1.279 . S
C906 C904 1.353 . S
C906 C909 1.348 . S
C906 H954 0.999 . S
C907 C908 1.358 . S
C907 C909 1.356 . S
C907 H955 0.930 . S
C908 N905 1.279 . S
C908 C907 1.358 . S
C908 H911 0.930 . S
C909 C906 1.348 . S
C909 C907 1.356 . S
H910 C904 0.930 . S
H911 C908 0.930 . S
C912 C914 1.348 . S
C912 C915 1.356 . S
C912 O942 1.325 . S
N913 C916 1.314 . S
N913 C917 1.279 . S
C914 C912 1.348 . S
C914 C916 1.353 . S
C914 H956 0.929 . S
C915 C912 1.356 . S
C915 C917 1.358 . S
C915 H957 0.930 . S
C916 N913 1.314 . S
C916 C914 1.353 . S
C916 H958 0.930 . S
C917 N913 1.279 . S
C917 C915 1.358 . S
C917 H959 0.930 . S
C918 C919 1.348 . S
C918 C920 1.356 . S
C918 O943 1.325 1_565 S
C919 C918 1.348 . S
C919 C921 1.353 . S
C919 H960 0.929 . S
C920 C918 1.356 . S
C920 C922 1.358 . S
C920 H961 0.930 1_565 S
C921 C919 1.353 . S
C921 N923 1.314 . S
C921 H962 0.930 . S
C922 C920 1.358 . S
C922 N923 1.279 . S
C922 H963 0.930 . S
N923 C921 1.314 . S
N923 C922 1.279 . S
C924 C926 1.353 . S
C924 N927 1.314 . S
C924 H930 0.930 . S
C925 N927 1.279 . S
C925 C928 1.358 . S
C925 H931 0.930 . S
C926 C924 1.353 . S
C926 C929 1.348 . S
C926 H964 0.929 . S
N927 Li882 1.990 1_565 S
N927 C924 1.314 . S
N927 C925 1.279 . S
C928 C925 1.358 . S
C928 C929 1.356 . S
C928 H965 0.930 . S
C929 C926 1.348 . S
C929 C928 1.356 . S
H930 C924 0.930 . S
H931 C925 0.930 . S
C932 N933 1.314 . S
C932 C934 1.353 . S
C932 H938 0.930 . S
N933 Li883 1.990 . S
N933 C932 1.314 . S
N933 C936 1.279 . S
C934 C932 1.353 . S
C934 C937 1.348 . S
C934 H966 0.929 . S
C935 C936 1.358 . S
C935 C937 1.356 . S
C935 H967 0.930 1_545 S
C936 N933 1.279 . S
C936 C935 1.358 . S
C936 H939 0.930 1_545 S
C937 C934 1.348 . S
C937 C935 1.356 . S
H938 C932 0.930 . S
H939 C936 0.930 1_565 S
O940 Li880 1.956 . S
O940 Li881 1.970 . S
O940 Li882 1.961 . S
O940 C884 1.325 . S
O941 Li880 1.970 . S
O941 Li881 1.956 . S
O941 Li883 1.961 . S
O941 C890 1.325 . S
O942 Li880 1.961 . S
O942 Li882 1.956 . S
O942 Li883 1.970 . S
O942 C912 1.325 . S
O943 Li881 1.961 . S
O943 Li882 1.970 . S
O943 Li883 1.956 . S
O943 C918 1.325 1_545 S
H944 C886 0.929 . S
H945 C887 0.930 . S
H946 C888 0.930 . S
H947 C889 0.930 . S
H948 C891 0.930 . S
H949 C893 0.929 . S
H950 C894 0.930 . S
H951 C895 0.930 . S
H952 C898 0.930 . S
H953 C901 0.929 . S
H954 C906 0.999 . S
H955 C907 0.930 . S
H956 C914 0.929 . S
H957 C915 0.930 . S
H958 C916 0.930 . S
H959 C917 0.930 . S
H960 C919 0.929 . S
H961 C920 0.930 1_545 S
H962 C921 0.930 . S
H963 C922 0.930 . S
H964 C926 0.929 . S
H965 C928 0.930 . S
H966 C934 0.929 . S
H967 C935 0.930 1_565 S
Li968 N985 1.990 . S
Li968 O1028 1.980 . S
Li968 O1029 1.971 1_554 S
Li968 O1030 1.934 1_554 S
Li969 N993 1.990 . S
Li969 O1028 1.970 . S
Li969 O1029 1.956 1_554 S
Li969 O1031 1.995 . S
Li970 N1015 1.990 . S
Li970 O1028 1.961 . S
Li970 O1030 1.956 1_554 S
Li970 O1031 1.967 . S
Li971 N1021 1.990 . S
Li971 O1029 1.961 . S
Li971 O1030 1.970 . S
Li971 O1031 1.924 1_556 S
C972 C974 1.348 . S
C972 C975 1.356 . S
C972 O1028 1.325 . S
N973 C976 1.314 . S
N973 C977 1.279 . S
C974 C972 1.348 . S
C974 C976 1.353 . S
C974 H1032 0.929 . S
C975 C972 1.356 . S
C975 C977 1.358 . S
C975 H1033 0.930 . S
C976 N973 1.314 . S
C976 C974 1.353 . S
C976 H1034 0.930 . S
C977 N973 1.279 . S
C977 C975 1.358 . S
C977 H1035 0.930 . S
C978 C981 1.348 1_556 S
C978 C982 1.356 . S
C978 O1029 1.325 . S
C979 N980 1.279 . S
C979 C982 1.358 . S
C979 H1036 0.930 . S
N980 C979 1.279 . S
N980 C983 1.314 . S
C981 C978 1.348 1_554 S
C981 C983 1.353 1_554 S
C981 H1037 0.929 . S
C982 C978 1.356 . S
C982 C979 1.358 . S
C982 H1038 0.930 . S
C983 N980 1.314 . S
C983 C981 1.353 1_556 S
C983 H1039 0.929 1_556 S
C984 N985 1.271 1_556 S
C984 C989 1.353 . S
C984 H990 0.930 . S
N985 Li968 1.990 . S
N985 C984 1.271 1_554 S
N985 C987 1.324 . S
C986 C987 1.358 . S
C986 C988 1.348 1_554 S
C986 H1040 0.930 . S
C987 N985 1.324 . S
C987 C986 1.358 . S
C987 H991 0.930 . S
C988 C986 1.348 1_556 S
C988 C989 1.356 . S
C989 C984 1.353 . S
C989 C988 1.356 . S
C989 H1041 0.929 . S
H990 C984 0.930 . S
H991 C987 0.930 . S
C992 N993 1.314 . S
C992 C994 1.353 . S
C992 H998 0.930 . S
N993 Li969 1.990 . S
N993 C992 1.314 . S
N993 C996 1.279 . S
C994 C992 1.353 . S
C994 C997 1.348 . S
C994 H1042 0.929 . S
C995 C996 1.358 . S
C995 C997 1.356 . S
C995 H1043 0.930 . S
C996 N993 1.279 . S
C996 C995 1.358 . S
C996 H999 0.930 . S
C997 C994 1.348 . S
C997 C995 1.356 . S
H998 C992 0.930 . S
H999 C996 0.930 . S
C1000 C1002 1.348 . S
C1000 C1003 1.356 . S
C1000 O1030 1.325 . S
N1001 C1004 1.314 . S
N1001 C1005 1.279 . S
C1002 C1000 1.348 . S
C1002 C1004 1.353 . S
C1002 H1044 0.929 . S
C1003 C1000 1.356 . S
C1003 C1005 1.358 . S
C1003 H1045 0.930 . S
C1004 N1001 1.314 . S
C1004 C1002 1.353 . S
C1004 H1046 0.930 . S
C1005 N1001 1.279 . S
C1005 C1003 1.358 . S
C1005 H1047 0.930 . S
C1006 C1007 1.342 1_554 S
C1006 C1008 1.360 . S
C1006 O1031 1.324 . S
C1007 C1006 1.342 1_556 S
C1007 C1009 1.353 . S
C1007 H1048 0.929 . S
C1008 C1006 1.360 . S
C1008 C1010 1.358 . S
C1008 H1049 0.930 . S
C1009 C1007 1.353 . S
C1009 N1011 1.333 . S
C1009 H1050 0.930 . S
C1010 C1008 1.358 . S
C1010 N1011 1.261 1_554 S
C1010 H1051 0.930 . S
N1011 C1009 1.333 . S
N1011 C1010 1.261 1_556 S
C1012 C1014 1.353 . S
C1012 N1015 1.314 . S
C1012 H1018 0.930 . S
C1013 N1015 1.279 1_556 S
C1013 C1016 1.358 . S
C1013 H1019 0.930 . S
C1014 C1012 1.353 . S
C1014 C1017 1.348 . S
C1014 H1052 0.929 . S
N1015 Li970 1.990 . S
N1015 C1012 1.314 . S
N1015 C1013 1.279 1_554 S
C1016 C1013 1.358 . S
C1016 C1017 1.356 1_556 S
C1016 H1053 0.930 . S
C1017 C1014 1.348 . S
C1017 C1016 1.356 1_554 S
H1018 C1012 0.930 . S
H1019 C1013 0.930 . S
C1020 N1021 1.314 . S
C1020 C1022 1.353 . S
C1020 H1026 0.930 . S
N1021 Li971 1.990 . S
N1021 C1020 1.314 . S
N1021 C1024 1.279 . S
C1022 C1020 1.353 . S
C1022 C1025 1.348 . S
C1022 H1054 0.929 . S
C1023 C1024 1.358 . S
C1023 C1025 1.356 . S
C1023 H1055 0.930 . S
C1024 N1021 1.279 . S
C1024 C1023 1.358 . S
C1024 H1027 0.930 . S
C1025 C1022 1.348 . S
C1025 C1023 1.356 . S
H1026 C1020 0.930 . S
H1027 C1024 0.930 . S
O1028 Li968 1.980 . S
O1028 Li969 1.970 . S
O1028 Li970 1.961 . S
O1028 C972 1.325 . S
O1029 Li968 1.971 1_556 S
O1029 Li969 1.956 1_556 S
O1029 Li971 1.961 . S
O1029 C978 1.325 . S
O1030 Li968 1.934 1_556 S
O1030 Li970 1.956 1_556 S
O1030 Li971 1.970 . S
O1030 C1000 1.325 . S
O1031 Li969 1.995 . S
O1031 Li970 1.967 . S
O1031 Li971 1.924 1_554 S
O1031 C1006 1.324 . S
H1032 C974 0.929 . S
H1033 C975 0.930 . S
H1034 C976 0.930 . S
H1035 C977 0.930 . S
H1036 C979 0.930 . S
H1037 C981 0.929 . S
H1038 C982 0.930 . S
H1039 C983 0.929 1_554 S
H1040 C986 0.930 . S
H1041 C989 0.929 . S
H1042 C994 0.929 . S
H1043 C995 0.930 . S
H1044 C1002 0.929 . S
H1045 C1003 0.930 . S
H1046 C1004 0.930 . S
H1047 C1005 0.930 . S
H1048 C1007 0.929 . S
H1049 C1008 0.930 . S
H1050 C1009 0.930 . S
H1051 C1010 0.930 . S
H1052 C1014 0.929 . S
H1053 C1016 0.930 . S
H1054 C1022 0.929 . S
H1055 C1023 0.930 . S
Li1056 N1073 1.990 . S
Li1056 O1116 1.956 . S
Li1056 O1117 1.970 . S
Li1056 O1118 1.961 . S
Li1057 N1081 1.990 . S
Li1057 O1116 1.970 . S
Li1057 O1117 1.956 . S
Li1057 O1119 1.961 . S
Li1058 N1103 1.990 . S
Li1058 O1116 1.961 . S
Li1058 O1118 1.956 . S
Li1058 O1119 1.970 . S
Li1059 N1109 1.990 1_554 S
Li1059 O1117 1.961 . S
Li1059 O1118 1.970 . S
Li1059 O1119 1.956 . S
C1060 C1062 1.348 . S
C1060 C1063 1.356 . S
C1060 O1116 1.325 . S
N1061 C1064 1.314 . S
N1061 C1065 1.279 . S
C1062 C1060 1.348 . S
C1062 C1064 1.353 . S
C1062 H1120 0.929 . S
C1063 C1060 1.356 . S
C1063 C1065 1.358 . S
C1063 H1121 0.930 . S
C1064 N1061 1.314 . S
C1064 C1062 1.353 . S
C1064 H1122 0.930 . S
C1065 N1061 1.279 . S
C1065 C1063 1.358 . S
C1065 H1123 0.930 . S
C1066 C1069 1.348 . S
C1066 C1070 1.356 . S
C1066 O1117 1.325 . S
C1067 N1068 1.279 . S
C1067 C1070 1.358 . S
C1067 H1124 0.930 . S
N1068 C1067 1.279 . S
N1068 C1071 1.314 . S
C1069 C1066 1.348 . S
C1069 C1071 1.353 . S
C1069 H1125 0.929 . S
C1070 C1066 1.356 . S
C1070 C1067 1.358 . S
C1070 H1126 0.930 . S
C1071 N1068 1.314 . S
C1071 C1069 1.353 . S
C1071 H1127 0.930 . S
C1072 N1073 1.314 . S
C1072 C1077 1.353 . S
C1072 H1078 0.930 . S
N1073 Li1056 1.990 . S
N1073 C1072 1.314 . S
N1073 C1075 1.279 . S
C1074 C1075 1.358 . S
C1074 C1076 1.356 . S
C1074 H1128 0.930 . S
C1075 N1073 1.279 . S
C1075 C1074 1.358 . S
C1075 H1079 0.930 . S
C1076 C1074 1.356 . S
C1076 C1077 1.348 . S
C1077 C1072 1.353 . S
C1077 C1076 1.348 . S
C1077 H1129 0.929 . S
H1078 C1072 0.930 . S
H1079 C1075 0.930 . S
C1080 N1081 1.314 . S
C1080 C1082 1.353 . S
C1080 H1086 0.930 . S
N1081 Li1057 1.990 . S
N1081 C1080 1.314 . S
N1081 C1084 1.279 . S
C1082 C1080 1.353 . S
C1082 C1085 1.348 . S
C1082 H1130 0.929 . S
C1083 C1084 1.358 . S
C1083 C1085 1.356 . S
C1083 H1131 0.930 . S
C1084 N1081 1.279 . S
C1084 C1083 1.358 . S
C1084 H1087 0.930 . S
C1085 C1082 1.348 . S
C1085 C1083 1.356 . S
H1086 C1080 0.930 . S
H1087 C1084 0.930 . S
C1088 C1090 1.348 1_554 S
C1088 C1091 1.356 . S
C1088 O1118 1.325 . S
N1089 C1092 1.314 . S
N1089 C1093 1.279 . S
C1090 C1088 1.348 1_556 S
C1090 C1092 1.353 . S
C1090 H1132 0.929 . S
C1091 C1088 1.356 . S
C1091 C1093 1.358 1_554 S
C1091 H1133 0.930 . S
C1092 N1089 1.314 . S
C1092 C1090 1.353 . S
C1092 H1134 0.930 . S
C1093 N1089 1.279 . S
C1093 C1091 1.358 1_556 S
C1093 H1135 0.930 . S
C1094 C1095 1.348 . S
C1094 C1096 1.356 . S
C1094 O1119 1.325 . S
C1095 C1094 1.348 . S
C1095 C1097 1.353 . S
C1095 H1136 0.929 . S
C1096 C1094 1.356 . S
C1096 C1098 1.358 . S
C1096 H1137 0.930 . S
C1097 C1095 1.353 . S
C1097 N1099 1.314 . S
C1097 H1138 0.930 . S
C1098 C1096 1.358 . S
C1098 N1099 1.279 . S
C1098 H1139 0.930 . S
N1099 C1097 1.314 . S
N1099 C1098 1.279 . S
C1100 C1102 1.353 . S
C1100 N1103 1.314 . S
C1100 H1106 0.930 . S
C1101 N1103 1.279 . S
C1101 C1104 1.358 . S
C1101 H1107 0.930 . S
C1102 C1100 1.353 . S
C1102 C1105 1.348 . S
C1102 H1140 0.929 . S
N1103 Li1058 1.990 . S
N1103 C1100 1.314 . S
N1103 C1101 1.279 . S
C1104 C1101 1.358 . S
C1104 C1105 1.356 . S
C1104 H1141 0.930 . S
C1105 C1102 1.348 . S
C1105 C1104 1.356 . S
H1106 C1100 0.930 . S
H1107 C1101 0.930 . S
C1108 N1109 1.314 . S
C1108 C1110 1.353 . S
C1108 H1114 0.930 . S
N1109 Li1059 1.990 1_556 S
N1109 C1108 1.314 . S
N1109 C1112 1.279 . S
C1110 C1108 1.353 . S
C1110 C1113 1.348 . S
C1110 H1142 0.929 . S
C1111 C1112 1.358 . S
C1111 C1113 1.356 . S
C1111 H1143 0.930 . S
C1112 N1109 1.279 . S
C1112 C1111 1.358 . S
C1112 H1115 0.930 . S
C1113 C1110 1.348 . S
C1113 C1111 1.356 . S
H1114 C1108 0.930 . S
H1115 C1112 0.930 . S
O1116 Li1056 1.956 . S
O1116 Li1057 1.970 . S
O1116 Li1058 1.961 . S
O1116 C1060 1.325 . S
O1117 Li1056 1.970 . S
O1117 Li1057 1.956 . S
O1117 Li1059 1.961 . S
O1117 C1066 1.325 . S
O1118 Li1056 1.961 . S
O1118 Li1058 1.956 . S
O1118 Li1059 1.970 . S
O1118 C1088 1.325 . S
O1119 Li1057 1.961 . S
O1119 Li1058 1.970 . S
O1119 Li1059 1.956 . S
O1119 C1094 1.325 . S
H1120 C1062 0.929 . S
H1121 C1063 0.930 . S
H1122 C1064 0.930 . S
H1123 C1065 0.930 . S
H1124 C1067 0.930 . S
H1125 C1069 0.929 . S
H1126 C1070 0.930 . S
H1127 C1071 0.930 . S
H1128 C1074 0.930 . S
H1129 C1077 0.929 . S
H1130 C1082 0.929 . S
H1131 C1083 0.930 . S
H1132 C1090 0.929 . S
H1133 C1091 0.930 . S
H1134 C1092 0.930 . S
H1135 C1093 0.930 . S
H1136 C1095 0.929 . S
H1137 C1096 0.930 . S
H1138 C1097 0.930 . S
H1139 C1098 0.930 . S
H1140 C1102 0.929 . S
H1141 C1104 0.930 . S
H1142 C1110 0.929 . S
H1143 C1111 0.930 . S
Li1144 N1161 1.990 . S
Li1144 O1204 1.956 . S
Li1144 O1205 1.970 . S
Li1144 O1206 1.961 . S
Li1145 N1169 1.990 . S
Li1145 O1204 1.970 . S
Li1145 O1205 1.956 . S
Li1145 O1207 1.961 . S
Li1146 N1191 1.990 . S
Li1146 O1204 1.961 . S
Li1146 O1206 1.956 . S
Li1146 O1207 1.970 . S
Li1147 N1197 1.990 . S
Li1147 O1205 1.961 . S
Li1147 O1206 1.970 . S
Li1147 O1207 1.956 . S
C1148 C1150 1.348 . S
C1148 C1151 1.356 . S
C1148 O1204 1.325 . S
N1149 C1152 1.314 . S
N1149 C1153 1.279 . S
C1150 C1148 1.348 . S
C1150 C1152 1.353 . S
C1150 H1208 0.929 . S
C1151 C1148 1.356 . S
C1151 C1153 1.358 . S
C1151 H1209 0.930 . S
C1152 N1149 1.314 . S
C1152 C1150 1.353 . S
C1152 H1210 0.930 . S
C1153 N1149 1.279 . S
C1153 C1151 1.358 . S
C1153 H1211 0.930 . S
C1154 C1157 1.348 . S
C1154 C1158 1.356 . S
C1154 O1205 1.325 . S
C1155 N1156 1.279 . S
C1155 C1158 1.358 . S
C1155 H1212 0.930 . S
N1156 C1155 1.279 . S
N1156 C1159 1.314 . S
C1157 C1154 1.348 . S
C1157 C1159 1.353 . S
C1157 H1213 0.929 . S
C1158 C1154 1.356 . S
C1158 C1155 1.358 . S
C1158 H1214 0.930 . S
C1159 N1156 1.314 . S
C1159 C1157 1.353 . S
C1159 H1215 0.930 . S
C1160 N1161 1.314 . S
C1160 C1165 1.353 . S
C1160 H1166 0.930 . S
N1161 Li1144 1.990 . S
N1161 C1160 1.314 . S
N1161 C1163 1.279 . S
C1162 C1163 1.358 . S
C1162 C1164 1.356 . S
C1162 H1216 0.930 . S
C1163 N1161 1.279 . S
C1163 C1162 1.358 . S
C1163 H1167 0.930 . S
C1164 C1162 1.356 . S
C1164 C1165 1.348 . S
C1165 C1160 1.353 . S
C1165 C1164 1.348 . S
C1165 H1217 0.929 . S
H1166 C1160 0.930 . S
H1167 C1163 0.930 . S
C1168 N1169 1.314 . S
C1168 C1170 1.353 . S
C1168 H1174 0.930 . S
N1169 Li1145 1.990 . S
N1169 C1168 1.314 . S
N1169 C1172 1.279 . S
C1170 C1168 1.353 . S
C1170 C1173 1.348 . S
C1170 H1218 0.929 . S
C1171 C1172 1.358 . S
C1171 C1173 1.356 . S
C1171 H1219 0.930 . S
C1172 N1169 1.279 . S
C1172 C1171 1.358 . S
C1172 H1175 0.930 . S
C1173 C1170 1.348 . S
C1173 C1171 1.356 . S
H1174 C1168 0.930 . S
H1175 C1172 0.930 . S
C1176 C1178 1.348 . S
C1176 C1179 1.356 . S
C1176 O1206 1.325 . S
N1177 C1180 1.314 . S
N1177 C1181 1.279 . S
C1178 C1176 1.348 . S
C1178 C1180 1.353 . S
C1178 H1220 0.929 . S
C1179 C1176 1.356 . S
C1179 C1181 1.358 . S
C1179 H1221 0.930 . S
C1180 N1177 1.314 . S
C1180 C1178 1.353 . S
C1180 H1222 0.930 . S
C1181 N1177 1.279 . S
C1181 C1179 1.358 . S
C1181 H1223 0.930 . S
C1182 C1183 1.348 1_554 S
C1182 C1184 1.356 . S
C1182 O1207 1.325 . S
C1183 C1182 1.348 1_556 S
C1183 C1185 1.353 . S
C1183 H1224 0.929 . S
C1184 C1182 1.356 . S
C1184 C1186 1.358 1_554 S
C1184 H1225 0.930 . S
C1185 C1183 1.353 . S
C1185 N1187 1.314 . S
C1185 H1226 0.930 . S
C1186 C1184 1.358 1_556 S
C1186 N1187 1.279 . S
C1186 H1227 0.930 . S
N1187 C1185 1.314 . S
N1187 C1186 1.279 . S
C1188 C1190 1.353 . S
C1188 N1191 1.314 1_556 S
C1188 H1194 0.930 . S
C1189 N1191 1.279 1_556 S
C1189 C1192 1.358 . S
C1189 H1195 0.930 1_556 S
C1190 C1188 1.353 . S
C1190 C1193 1.348 . S
C1190 H1228 0.929 . S
N1191 Li1146 1.990 . S
N1191 C1188 1.314 1_554 S
N1191 C1189 1.279 1_554 S
C1192 C1189 1.358 . S
C1192 C1193 1.356 . S
C1192 H1229 0.930 . S
C1193 C1190 1.348 . S
C1193 C1192 1.356 . S
H1194 C1188 0.930 . S
H1195 C1189 0.930 1_554 S
C1196 N1197 1.314 . S
C1196 C1198 1.353 . S
C1196 H1202 0.930 . S
N1197 Li1147 1.990 . S
N1197 C1196 1.314 . S
N1197 C1200 1.279 . S
C1198 C1196 1.353 . S
C1198 C1201 1.348 . S
C1198 H1230 0.929 . S
C1199 C1200 1.358 . S
C1199 C1201 1.356 . S
C1199 H1231 0.930 . S
C1200 N1197 1.279 . S
C1200 C1199 1.358 . S
C1200 H1203 0.930 . S
C1201 C1198 1.348 . S
C1201 C1199 1.356 . S
H1202 C1196 0.930 . S
H1203 C1200 0.930 . S
O1204 Li1144 1.956 . S
O1204 Li1145 1.970 . S
O1204 Li1146 1.961 . S
O1204 C1148 1.325 . S
O1205 Li1144 1.970 . S
O1205 Li1145 1.956 . S
O1205 Li1147 1.961 . S
O1205 C1154 1.325 . S
O1206 Li1144 1.961 . S
O1206 Li1146 1.956 . S
O1206 Li1147 1.970 . S
O1206 C1176 1.325 . S
O1207 Li1145 1.961 . S
O1207 Li1146 1.970 . S
O1207 Li1147 1.956 . S
O1207 C1182 1.325 . S
H1208 C1150 0.929 . S
H1209 C1151 0.930 . S
H1210 C1152 0.930 . S
H1211 C1153 0.930 . S
H1212 C1155 0.930 . S
H1213 C1157 0.929 . S
H1214 C1158 0.930 . S
H1215 C1159 0.930 . S
H1216 C1162 0.930 . S
H1217 C1165 0.929 . S
H1218 C1170 0.929 . S
H1219 C1171 0.930 . S
H1220 C1178 0.929 . S
H1221 C1179 0.930 . S
H1222 C1180 0.930 . S
H1223 C1181 0.930 . S
H1224 C1183 0.929 . S
H1225 C1184 0.930 . S
H1226 C1185 0.930 . S
H1227 C1186 0.930 . S
H1228 C1190 0.929 . S
H1229 C1192 0.930 . S
H1230 C1198 0.929 . S
H1231 C1199 0.930 . S
Li1232 N1249 1.990 . S
Li1232 O1292 1.956 . S
Li1232 O1293 1.970 . S
Li1232 O1294 1.961 . S
Li1233 N1257 1.990 . S
Li1233 O1292 1.970 . S
Li1233 O1293 1.956 . S
Li1233 O1295 1.961 . S
Li1234 N1279 1.990 . S
Li1234 O1292 1.961 . S
Li1234 O1294 1.956 . S
Li1234 O1295 1.970 . S
Li1235 N1285 1.990 . S
Li1235 O1293 1.961 . S
Li1235 O1294 1.970 . S
Li1235 O1295 1.956 . S
C1236 C1238 1.348 . S
C1236 C1239 1.356 . S
C1236 O1292 1.325 . S
N1237 C1240 1.314 . S
N1237 C1241 1.279 . S
C1238 C1236 1.348 . S
C1238 C1240 1.353 . S
C1238 H1296 0.929 . S
C1239 C1236 1.356 . S
C1239 C1241 1.358 . S
C1239 H1297 0.930 . S
C1240 N1237 1.314 . S
C1240 C1238 1.353 . S
C1240 H1298 0.930 . S
C1241 N1237 1.279 . S
C1241 C1239 1.358 . S
C1241 H1299 0.930 . S
C1242 C1245 1.348 . S
C1242 C1246 1.356 . S
C1242 O1293 1.325 . S
C1243 N1244 1.279 . S
C1243 C1246 1.358 . S
C1243 H1300 0.930 . S
N1244 C1243 1.279 . S
N1244 C1247 1.314 . S
C1245 C1242 1.348 . S
C1245 C1247 1.353 . S
C1245 H1301 0.929 . S
C1246 C1242 1.356 . S
C1246 C1243 1.358 . S
C1246 H1302 0.930 . S
C1247 N1244 1.314 . S
C1247 C1245 1.353 . S
C1247 H1303 0.930 . S
C1248 N1249 1.314 . S
C1248 C1253 1.353 . S
C1248 H1254 0.930 . S
N1249 Li1232 1.990 . S
N1249 C1248 1.314 . S
N1249 C1251 1.279 . S
C1250 C1251 1.358 . S
C1250 C1252 1.356 . S
C1250 H1304 0.930 . S
C1251 N1249 1.279 . S
C1251 C1250 1.358 . S
C1251 H1255 0.930 . S
C1252 C1250 1.356 . S
C1252 C1253 1.348 . S
C1253 C1248 1.353 . S
C1253 C1252 1.348 . S
C1253 H1305 0.929 . S
H1254 C1248 0.930 . S
H1255 C1251 0.930 . S
C1256 N1257 1.314 . S
C1256 C1258 1.353 . S
C1256 H1262 0.930 . S
N1257 Li1233 1.990 . S
N1257 C1256 1.314 . S
N1257 C1260 1.279 . S
C1258 C1256 1.353 . S
C1258 C1261 1.348 . S
C1258 H1306 0.929 . S
C1259 C1260 1.358 . S
C1259 C1261 1.356 . S
C1259 H1307 0.930 . S
C1260 N1257 1.279 . S
C1260 C1259 1.358 . S
C1260 H1263 0.930 . S
C1261 C1258 1.348 . S
C1261 C1259 1.356 . S
H1262 C1256 0.930 . S
H1263 C1260 0.930 . S
C1264 C1266 1.348 . S
C1264 C1267 1.356 . S
C1264 O1294 1.325 . S
N1265 C1268 1.314 . S
N1265 C1269 1.279 . S
C1266 C1264 1.348 . S
C1266 C1268 1.353 . S
C1266 H1308 0.929 . S
C1267 C1264 1.356 . S
C1267 C1269 1.358 . S
C1267 H1309 0.930 . S
C1268 N1265 1.314 . S
C1268 C1266 1.353 . S
C1268 H1310 0.930 . S
C1269 N1265 1.279 . S
C1269 C1267 1.358 . S
C1269 H1311 0.930 . S
C1270 C1271 1.348 . S
C1270 C1272 1.356 . S
C1270 O1295 1.325 . S
C1271 C1270 1.348 . S
C1271 C1273 1.353 . S
C1271 H1312 0.929 . S
C1272 C1270 1.356 . S
C1272 C1274 1.358 . S
C1272 H1313 0.930 . S
C1273 C1271 1.353 . S
C1273 N1275 1.314 . S
C1273 H1314 0.930 . S
C1274 C1272 1.358 . S
C1274 N1275 1.279 . S
C1274 H1315 0.930 . S
N1275 C1273 1.314 . S
N1275 C1274 1.279 . S
C1276 C1278 1.353 . S
C1276 N1279 1.314 . S
C1276 H1282 0.930 . S
C1277 N1279 1.279 . S
C1277 C1280 1.358 . S
C1277 H1283 0.930 . S
C1278 C1276 1.353 . S
C1278 C1281 1.348 . S
C1278 H1316 0.929 . S
N1279 Li1234 1.990 . S
N1279 C1276 1.314 . S
N1279 C1277 1.279 . S
C1280 C1277 1.358 . S
C1280 C1281 1.356 . S
C1280 H1317 0.930 . S
C1281 C1278 1.348 . S
C1281 C1280 1.356 . S
H1282 C1276 0.930 . S
H1283 C1277 0.930 . S
C1284 N1285 1.314 . S
C1284 C1286 1.353 . S
C1284 H1290 0.930 . S
N1285 Li1235 1.990 . S
N1285 C1284 1.314 . S
N1285 C1288 1.279 . S
C1286 C1284 1.353 . S
C1286 C1289 1.348 . S
C1286 H1318 0.929 . S
C1287 C1288 1.358 . S
C1287 C1289 1.356 . S
C1287 H1319 0.930 . S
C1288 N1285 1.279 . S
C1288 C1287 1.358 . S
C1288 H1291 0.930 . S
C1289 C1286 1.348 . S
C1289 C1287 1.356 . S
H1290 C1284 0.930 . S
H1291 C1288 0.930 . S
O1292 Li1232 1.956 . S
O1292 Li1233 1.970 . S
O1292 Li1234 1.961 . S
O1292 C1236 1.325 . S
O1293 Li1232 1.970 . S
O1293 Li1233 1.956 . S
O1293 Li1235 1.961 . S
O1293 C1242 1.325 . S
O1294 Li1232 1.961 . S
O1294 Li1234 1.956 . S
O1294 Li1235 1.970 . S
O1294 C1264 1.325 . S
O1295 Li1233 1.961 . S
O1295 Li1234 1.970 . S
O1295 Li1235 1.956 . S
O1295 C1270 1.325 . S
H1296 C1238 0.929 . S
H1297 C1239 0.930 . S
H1298 C1240 0.930 . S
H1299 C1241 0.930 . S
H1300 C1243 0.930 . S
H1301 C1245 0.929 . S
H1302 C1246 0.930 . S
H1303 C1247 0.930 . S
H1304 C1250 0.930 . S
H1305 C1253 0.929 . S
H1306 C1258 0.929 . S
H1307 C1259 0.930 . S
H1308 C1266 0.929 . S
H1309 C1267 0.930 . S
H1310 C1268 0.930 . S
H1311 C1269 0.930 . S
H1312 C1271 0.929 . S
H1313 C1272 0.930 . S
H1314 C1273 0.930 . S
H1315 C1274 0.930 . S
H1316 C1278 0.929 . S
H1317 C1280 0.930 . S
H1318 C1286 0.929 . S
H1319 C1287 0.930 . S
Li1320 N1337 1.990 . S
Li1320 O1380 1.956 . S
Li1320 O1381 1.970 . S
Li1320 O1382 1.961 . S
Li1321 N1345 1.990 . S
Li1321 O1380 1.970 . S
Li1321 O1381 1.956 . S
Li1321 O1383 1.961 . S
Li1322 N1367 1.990 . S
Li1322 O1380 1.961 . S
Li1322 O1382 1.956 . S
Li1322 O1383 1.970 . S
Li1323 N1373 1.990 . S
Li1323 O1381 1.961 . S
Li1323 O1382 1.970 . S
Li1323 O1383 1.956 . S
C1324 C1326 1.348 . S
C1324 C1327 1.356 . S
C1324 O1380 1.325 . S
N1325 C1328 1.314 . S
N1325 C1329 1.279 . S
C1326 C1324 1.348 . S
C1326 C1328 1.353 . S
C1326 H1384 0.929 . S
C1327 C1324 1.356 . S
C1327 C1329 1.358 . S
C1327 H1385 0.930 . S
C1328 N1325 1.314 . S
C1328 C1326 1.353 . S
C1328 H1386 0.930 . S
C1329 N1325 1.279 . S
C1329 C1327 1.358 . S
C1329 H1387 0.930 . S
C1330 C1333 1.348 . S
C1330 C1334 1.356 . S
C1330 O1381 1.325 . S
C1331 N1332 1.279 . S
C1331 C1334 1.358 . S
C1331 H1388 0.930 . S
N1332 C1331 1.279 . S
N1332 C1335 1.314 . S
C1333 C1330 1.348 . S
C1333 C1335 1.353 . S
C1333 H1389 0.929 . S
C1334 C1330 1.356 . S
C1334 C1331 1.358 . S
C1334 H1390 0.930 . S
C1335 N1332 1.314 . S
C1335 C1333 1.353 . S
C1335 H1391 0.930 . S
C1336 N1337 1.314 . S
C1336 C1341 1.353 . S
C1336 H1342 0.930 . S
N1337 Li1320 1.990 . S
N1337 C1336 1.314 . S
N1337 C1339 1.279 . S
C1338 C1339 1.358 . S
C1338 C1340 1.356 . S
C1338 H1392 0.930 . S
C1339 N1337 1.279 . S
C1339 C1338 1.358 . S
C1339 H1343 0.930 . S
C1340 C1338 1.356 . S
C1340 C1341 1.348 . S
C1341 C1336 1.353 . S
C1341 C1340 1.348 . S
C1341 H1393 0.929 . S
H1342 C1336 0.930 . S
H1343 C1339 0.930 . S
C1344 N1345 1.314 . S
C1344 C1346 1.353 . S
C1344 H1350 0.930 . S
N1345 Li1321 1.990 . S
N1345 C1344 1.314 . S
N1345 C1348 1.279 . S
C1346 C1344 1.353 . S
C1346 C1349 1.348 . S
C1346 H1394 0.929 . S
C1347 C1348 1.358 . S
C1347 C1349 1.356 . S
C1347 H1395 0.930 . S
C1348 N1345 1.279 . S
C1348 C1347 1.358 . S
C1348 H1351 0.930 . S
C1349 C1346 1.348 . S
C1349 C1347 1.356 . S
H1350 C1344 0.930 . S
H1351 C1348 0.930 . S
C1352 C1354 1.348 . S
C1352 C1355 1.356 . S
C1352 O1382 1.325 . S
N1353 C1356 1.314 . S
N1353 C1357 1.279 . S
C1354 C1352 1.348 . S
C1354 C1356 1.353 . S
C1354 H1396 0.929 . S
C1355 C1352 1.356 . S
C1355 C1357 1.358 . S
C1355 H1397 0.930 . S
C1356 N1353 1.314 . S
C1356 C1354 1.353 . S
C1356 H1398 0.930 . S
C1357 N1353 1.279 . S
C1357 C1355 1.358 . S
C1357 H1399 0.930 . S
C1358 C1359 1.348 . S
C1358 C1360 1.356 . S
C1358 O1383 1.325 . S
C1359 C1358 1.348 . S
C1359 C1361 1.353 . S
C1359 H1400 0.929 . S
C1360 C1358 1.356 . S
C1360 C1362 1.358 . S
C1360 H1401 0.930 . S
C1361 C1359 1.353 . S
C1361 N1363 1.314 . S
C1361 H1402 0.930 . S
C1362 C1360 1.358 . S
C1362 N1363 1.279 . S
C1362 H1403 0.930 . S
N1363 C1361 1.314 . S
N1363 C1362 1.279 . S
C1364 C1366 1.353 . S
C1364 N1367 1.314 . S
C1364 H1370 0.930 . S
C1365 N1367 1.279 . S
C1365 C1368 1.358 . S
C1365 H1371 0.930 . S
C1366 C1364 1.353 . S
C1366 C1369 1.348 . S
C1366 H1404 0.929 . S
N1367 Li1322 1.990 . S
N1367 C1364 1.314 . S
N1367 C1365 1.279 . S
C1368 C1365 1.358 . S
C1368 C1369 1.356 . S
C1368 H1405 0.930 . S
C1369 C1366 1.348 . S
C1369 C1368 1.356 . S
H1370 C1364 0.930 . S
H1371 C1365 0.930 . S
C1372 N1373 1.314 . S
C1372 C1374 1.353 . S
C1372 H1378 0.930 . S
N1373 Li1323 1.990 . S
N1373 C1372 1.314 . S
N1373 C1376 1.279 . S
C1374 C1372 1.353 . S
C1374 C1377 1.348 . S
C1374 H1406 0.929 . S
C1375 C1376 1.358 . S
C1375 C1377 1.356 . S
C1375 H1407 0.930 . S
C1376 N1373 1.279 . S
C1376 C1375 1.358 . S
C1376 H1379 0.930 . S
C1377 C1374 1.348 . S
C1377 C1375 1.356 . S
H1378 C1372 0.930 . S
H1379 C1376 0.930 . S
O1380 Li1320 1.956 . S
O1380 Li1321 1.970 . S
O1380 Li1322 1.961 . S
O1380 C1324 1.325 . S
O1381 Li1320 1.970 . S
O1381 Li1321 1.956 . S
O1381 Li1323 1.961 . S
O1381 C1330 1.325 . S
O1382 Li1320 1.961 . S
O1382 Li1322 1.956 . S
O1382 Li1323 1.970 . S
O1382 C1352 1.325 . S
O1383 Li1321 1.961 . S
O1383 Li1322 1.970 . S
O1383 Li1323 1.956 . S
O1383 C1358 1.325 . S
H1384 C1326 0.929 . S
H1385 C1327 0.930 . S
H1386 C1328 0.930 . S
H1387 C1329 0.930 . S
H1388 C1331 0.930 . S
H1389 C1333 0.929 . S
H1390 C1334 0.930 . S
H1391 C1335 0.930 . S
H1392 C1338 0.930 . S
H1393 C1341 0.929 . S
H1394 C1346 0.929 . S
H1395 C1347 0.930 . S
H1396 C1354 0.929 . S
H1397 C1355 0.930 . S
H1398 C1356 0.930 . S
H1399 C1357 0.930 . S
H1400 C1359 0.929 . S
H1401 C1360 0.930 . S
H1402 C1361 0.930 . S
H1403 C1362 0.930 . S
H1404 C1366 0.929 . S
H1405 C1368 0.930 . S
H1406 C1374 0.929 . S
H1407 C1375 0.930 . S
Li1408 N1425 1.990 . S
Li1408 O1468 1.956 1_545 S
Li1408 O1469 1.970 . S
Li1408 O1470 1.961 . S
Li1409 N1433 1.990 . S
Li1409 O1468 1.970 . S
Li1409 O1469 1.956 1_565 S
Li1409 O1471 1.961 1_565 S
Li1410 N1455 1.990 . S
Li1410 O1468 1.961 1_545 S
Li1410 O1470 1.956 . S
Li1410 O1471 1.970 . S
Li1411 N1461 1.990 . S
Li1411 O1469 1.961 . S
Li1411 O1470 1.970 . S
Li1411 O1471 1.956 . S
C1412 C1414 1.348 . S
C1412 C1415 1.356 . S
C1412 O1468 1.325 . S
N1413 C1416 1.314 . S
N1413 C1417 1.279 . S
C1414 C1412 1.348 . S
C1414 C1416 1.353 . S
C1414 H1472 0.929 . S
C1415 C1412 1.356 . S
C1415 C1417 1.358 . S
C1415 H1473 0.930 . S
C1416 N1413 1.314 . S
C1416 C1414 1.353 . S
C1416 H1474 0.930 . S
C1417 N1413 1.279 . S
C1417 C1415 1.358 . S
C1417 H1475 0.930 . S
C1418 C1421 1.348 . S
C1418 C1422 1.356 . S
C1418 O1469 1.325 . S
C1419 N1420 1.279 . S
C1419 C1422 1.358 . S
C1419 H1476 0.930 . S
N1420 C1419 1.279 . S
N1420 C1423 1.314 . S
C1421 C1418 1.348 . S
C1421 C1423 1.353 . S
C1421 H1477 0.929 . S
C1422 C1418 1.356 . S
C1422 C1419 1.358 . S
C1422 H1478 0.930 . S
C1423 N1420 1.314 . S
C1423 C1421 1.353 . S
C1423 H1479 0.930 . S
C1424 N1425 1.314 . S
C1424 C1429 1.353 . S
C1424 H1430 0.930 . S
N1425 Li1408 1.990 . S
N1425 C1424 1.314 . S
N1425 C1427 1.279 . S
C1426 C1427 1.358 . S
C1426 C1428 1.356 . S
C1426 H1480 0.919 1_545 S
C1427 N1425 1.279 . S
C1427 C1426 1.358 . S
C1427 H1431 0.930 1_545 S
C1428 C1426 1.356 . S
C1428 C1429 1.348 . S
C1429 C1424 1.353 . S
C1429 C1428 1.348 . S
C1429 H1481 0.929 . S
H1430 C1424 0.930 . S
H1431 C1427 0.930 1_565 S
C1432 N1433 1.314 . S
C1432 C1434 1.353 . S
C1432 H1438 0.930 . S
N1433 Li1409 1.990 . S
N1433 C1432 1.314 . S
N1433 C1436 1.279 . S
C1434 C1432 1.353 . S
C1434 C1437 1.348 . S
C1434 H1482 0.929 . S
C1435 C1436 1.358 . S
C1435 C1437 1.356 . S
C1435 H1483 0.930 . S
C1436 N1433 1.279 . S
C1436 C1435 1.358 . S
C1436 H1439 0.930 . S
C1437 C1434 1.348 . S
C1437 C1435 1.356 . S
H1438 C1432 0.930 . S
H1439 C1436 0.930 . S
C1440 C1442 1.348 . S
C1440 C1443 1.356 . S
C1440 O1470 1.325 . S
N1441 C1444 1.314 . S
N1441 C1445 1.279 . S
C1442 C1440 1.348 . S
C1442 C1444 1.353 . S
C1442 H1484 0.929 . S
C1443 C1440 1.356 . S
C1443 C1445 1.358 . S
C1443 H1485 0.930 . S
C1444 N1441 1.314 . S
C1444 C1442 1.353 . S
C1444 H1486 0.930 . S
C1445 N1441 1.279 . S
C1445 C1443 1.358 . S
C1445 H1487 0.930 . S
C1446 C1447 1.348 . S
C1446 C1448 1.356 . S
C1446 O1471 1.325 . S
C1447 C1446 1.348 . S
C1447 C1449 1.353 . S
C1447 H1488 0.929 . S
C1448 C1446 1.356 . S
C1448 C1450 1.358 . S
C1448 H1489 0.930 . S
C1449 C1447 1.353 . S
C1449 N1451 1.314 . S
C1449 H1490 0.930 . S
C1450 C1448 1.358 . S
C1450 N1451 1.279 . S
C1450 H1491 0.925 1_545 S
N1451 C1449 1.314 . S
N1451 C1450 1.279 . S
C1452 C1454 1.353 . S
C1452 N1455 1.314 . S
C1452 H1458 0.930 1_545 S
C1453 N1455 1.279 . S
C1453 C1456 1.358 . S
C1453 H1459 0.930 . S
C1454 C1452 1.353 . S
C1454 C1457 1.348 . S
C1454 H1492 0.929 1_545 S
N1455 Li1410 1.990 . S
N1455 C1452 1.314 . S
N1455 C1453 1.279 . S
C1456 C1453 1.358 . S
C1456 C1457 1.356 . S
C1456 H1493 0.930 . S
C1457 C1454 1.348 . S
C1457 C1456 1.356 . S
H1458 C1452 0.930 1_565 S
H1459 C1453 0.930 . S
C1460 N1461 1.314 . S
C1460 C1462 1.353 . S
C1460 H1466 0.930 . S
N1461 Li1411 1.990 . S
N1461 C1460 1.314 . S
N1461 C1464 1.279 . S
C1462 C1460 1.353 . S
C1462 C1465 1.348 . S
C1462 H1494 0.929 . S
C1463 C1464 1.358 . S
C1463 C1465 1.356 . S
C1463 H1495 0.930 . S
C1464 N1461 1.279 . S
C1464 C1463 1.358 . S
C1464 H1467 0.930 . S
C1465 C1462 1.348 . S
C1465 C1463 1.356 . S
H1466 C1460 0.930 . S
H1467 C1464 0.930 . S
O1468 Li1408 1.956 1_565 S
O1468 Li1409 1.970 . S
O1468 Li1410 1.961 1_565 S
O1468 C1412 1.325 . S
O1469 Li1408 1.970 . S
O1469 Li1409 1.956 1_545 S
O1469 Li1411 1.961 . S
O1469 C1418 1.325 . S
O1470 Li1408 1.961 . S
O1470 Li1410 1.956 . S
O1470 Li1411 1.970 . S
O1470 C1440 1.325 . S
O1471 Li1409 1.961 1_545 S
O1471 Li1410 1.970 . S
O1471 Li1411 1.956 . S
O1471 C1446 1.325 . S
H1472 C1414 0.929 . S
H1473 C1415 0.930 . S
H1474 C1416 0.930 . S
H1475 C1417 0.930 . S
H1476 C1419 0.930 . S
H1477 C1421 0.929 . S
H1478 C1422 0.930 . S
H1479 C1423 0.930 . S
H1480 C1426 0.919 1_565 S
H1481 C1429 0.929 . S
H1482 C1434 0.929 . S
H1483 C1435 0.930 . S
H1484 C1442 0.929 . S
H1485 C1443 0.930 . S
H1486 C1444 0.930 . S
H1487 C1445 0.930 . S
H1488 C1447 0.929 . S
H1489 C1448 0.930 . S
H1490 C1449 0.930 . S
H1491 C1450 0.925 1_565 S
H1492 C1454 0.929 1_565 S
H1493 C1456 0.930 . S
H1494 C1462 0.929 . S
H1495 C1463 0.930 . S
Li1496 N1513 1.990 . S
Li1496 O1556 1.956 . S
Li1496 O1557 1.970 . S
Li1496 O1558 1.961 . S
Li1497 N1521 1.990 . S
Li1497 O1556 1.970 . S
Li1497 O1557 1.956 . S
Li1497 O1559 1.961 . S
Li1498 N1543 1.990 . S
Li1498 O1556 1.961 . S
Li1498 O1558 1.956 . S
Li1498 O1559 1.970 . S
Li1499 N1549 1.990 . S
Li1499 O1557 1.961 . S
Li1499 O1558 1.970 . S
Li1499 O1559 1.956 . S
C1500 C1502 1.348 . S
C1500 C1503 1.356 . S
C1500 O1556 1.325 . S
N1501 C1504 1.314 . S
N1501 C1505 1.279 . S
C1502 C1500 1.348 . S
C1502 C1504 1.353 . S
C1502 H1560 0.929 . S
C1503 C1500 1.356 . S
C1503 C1505 1.358 . S
C1503 H1561 0.930 . S
C1504 N1501 1.314 . S
C1504 C1502 1.353 . S
C1504 H1562 0.930 . S
C1505 N1501 1.279 . S
C1505 C1503 1.358 . S
C1505 H1563 0.930 . S
C1506 C1509 1.348 . S
C1506 C1510 1.356 . S
C1506 O1557 1.325 . S
C1507 N1508 1.279 . S
C1507 C1510 1.358 . S
C1507 H1564 0.930 . S
N1508 C1507 1.279 . S
N1508 C1511 1.314 . S
C1509 C1506 1.348 . S
C1509 C1511 1.353 . S
C1509 H1565 0.929 . S
C1510 C1506 1.356 . S
C1510 C1507 1.358 . S
C1510 H1566 0.930 . S
C1511 N1508 1.314 . S
C1511 C1509 1.353 . S
C1511 H1567 0.930 . S
C1512 N1513 1.314 . S
C1512 C1517 1.353 . S
C1512 H1518 0.930 . S
N1513 Li1496 1.990 . S
N1513 C1512 1.314 . S
N1513 C1515 1.279 . S
C1514 C1515 1.358 . S
C1514 C1516 1.356 . S
C1514 H1568 0.930 . S
C1515 N1513 1.279 . S
C1515 C1514 1.358 . S
C1515 H1519 0.930 . S
C1516 C1514 1.356 . S
C1516 C1517 1.348 . S
C1517 C1512 1.353 . S
C1517 C1516 1.348 . S
C1517 H1569 0.929 . S
H1518 C1512 0.930 . S
H1519 C1515 0.930 . S
C1520 N1521 1.314 . S
C1520 C1522 1.353 . S
C1520 H1526 0.930 . S
N1521 Li1497 1.990 . S
N1521 C1520 1.314 . S
N1521 C1524 1.279 . S
C1522 C1520 1.353 . S
C1522 C1525 1.348 . S
C1522 H1570 0.929 . S
C1523 C1524 1.358 . S
C1523 C1525 1.356 . S
C1523 H1571 0.930 . S
C1524 N1521 1.279 . S
C1524 C1523 1.358 . S
C1524 H1527 0.930 . S
C1525 C1522 1.348 . S
C1525 C1523 1.356 . S
H1526 C1520 0.930 . S
H1527 C1524 0.930 . S
C1528 C1530 1.348 . S
C1528 C1531 1.356 . S
C1528 O1558 1.325 . S
N1529 C1532 1.314 . S
N1529 C1533 1.279 . S
C1530 C1528 1.348 . S
C1530 C1532 1.353 . S
C1530 H1572 0.929 . S
C1531 C1528 1.356 . S
C1531 C1533 1.358 . S
C1531 H1573 0.930 . S
C1532 N1529 1.314 . S
C1532 C1530 1.353 . S
C1532 H1574 0.930 . S
C1533 N1529 1.279 . S
C1533 C1531 1.358 . S
C1533 H1575 0.930 . S
C1534 C1535 1.348 . S
C1534 C1536 1.356 . S
C1534 O1559 1.325 . S
C1535 C1534 1.348 . S
C1535 C1537 1.353 . S
C1535 H1576 0.929 . S
C1536 C1534 1.356 . S
C1536 C1538 1.358 . S
C1536 H1577 0.930 . S
C1537 C1535 1.353 . S
C1537 N1539 1.314 . S
C1537 H1578 0.930 . S
C1538 C1536 1.358 . S
C1538 N1539 1.279 . S
C1538 H1579 0.930 . S
N1539 C1537 1.314 . S
N1539 C1538 1.279 . S
C1540 C1542 1.353 . S
C1540 N1543 1.314 . S
C1540 H1546 0.930 . S
C1541 N1543 1.279 . S
C1541 C1544 1.358 . S
C1541 H1547 0.930 . S
C1542 C1540 1.353 . S
C1542 C1545 1.348 . S
C1542 H1580 0.929 . S
N1543 Li1498 1.990 . S
N1543 C1540 1.314 . S
N1543 C1541 1.279 . S
C1544 C1541 1.358 . S
C1544 C1545 1.356 . S
C1544 H1581 0.930 . S
C1545 C1542 1.348 . S
C1545 C1544 1.356 . S
H1546 C1540 0.930 . S
H1547 C1541 0.930 . S
C1548 N1549 1.314 . S
C1548 C1550 1.353 . S
C1548 H1554 0.930 . S
N1549 Li1499 1.990 . S
N1549 C1548 1.314 . S
N1549 C1552 1.279 . S
C1550 C1548 1.353 . S
C1550 C1553 1.348 . S
C1550 H1582 0.929 . S
C1551 C1552 1.358 . S
C1551 C1553 1.356 . S
C1551 H1583 0.930 . S
C1552 N1549 1.279 . S
C1552 C1551 1.358 . S
C1552 H1555 0.930 . S
C1553 C1550 1.348 . S
C1553 C1551 1.356 . S
H1554 C1548 0.930 . S
H1555 C1552 0.930 . S
O1556 Li1496 1.956 . S
O1556 Li1497 1.970 . S
O1556 Li1498 1.961 . S
O1556 C1500 1.325 . S
O1557 Li1496 1.970 . S
O1557 Li1497 1.956 . S
O1557 Li1499 1.961 . S
O1557 C1506 1.325 . S
O1558 Li1496 1.961 . S
O1558 Li1498 1.956 . S
O1558 Li1499 1.970 . S
O1558 C1528 1.325 . S
O1559 Li1497 1.961 . S
O1559 Li1498 1.970 . S
O1559 Li1499 1.956 . S
O1559 C1534 1.325 . S
H1560 C1502 0.929 . S
H1561 C1503 0.930 . S
H1562 C1504 0.930 . S
H1563 C1505 0.930 . S
H1564 C1507 0.930 . S
H1565 C1509 0.929 . S
H1566 C1510 0.930 . S
H1567 C1511 0.930 . S
H1568 C1514 0.930 . S
H1569 C1517 0.929 . S
H1570 C1522 0.929 . S
H1571 C1523 0.930 . S
H1572 C1530 0.929 . S
H1573 C1531 0.930 . S
H1574 C1532 0.930 . S
H1575 C1533 0.930 . S
H1576 C1535 0.929 . S
H1577 C1536 0.930 . S
H1578 C1537 0.930 . S
H1579 C1538 0.930 . S
H1580 C1542 0.929 . S
H1581 C1544 0.930 . S
H1582 C1550 0.929 . S
H1583 C1551 0.930 . S
Li1584 N1601 1.990 . S
Li1584 O1644 1.956 . S
Li1584 O1645 1.970 . S
Li1584 O1646 1.961 . S
Li1585 N1609 1.990 . S
Li1585 O1644 1.970 . S
Li1585 O1645 1.956 . S
Li1585 O1647 1.961 . S
Li1586 N1631 1.990 . S
Li1586 O1644 1.961 . S
Li1586 O1646 1.956 . S
Li1586 O1647 1.970 . S
Li1587 N1637 1.990 . S
Li1587 O1645 1.961 . S
Li1587 O1646 1.970 . S
Li1587 O1647 1.956 . S
C1588 C1590 1.348 . S
C1588 C1591 1.356 . S
C1588 O1644 1.325 . S
N1589 C1592 1.314 . S
N1589 C1593 1.279 . S
C1590 C1588 1.348 . S
C1590 C1592 1.353 . S
C1590 H1648 0.929 . S
C1591 C1588 1.356 . S
C1591 C1593 1.358 . S
C1591 H1649 0.930 . S
C1592 N1589 1.314 . S
C1592 C1590 1.353 . S
C1592 H1650 0.930 . S
C1593 N1589 1.279 . S
C1593 C1591 1.358 . S
C1593 H1651 0.930 . S
C1594 C1597 1.348 . S
C1594 C1598 1.356 . S
C1594 O1645 1.325 . S
C1595 N1596 1.279 . S
C1595 C1598 1.358 . S
C1595 H1652 0.930 . S
N1596 C1595 1.279 . S
N1596 C1599 1.314 . S
C1597 C1594 1.348 . S
C1597 C1599 1.353 . S
C1597 H1653 0.929 . S
C1598 C1594 1.356 . S
C1598 C1595 1.358 . S
C1598 H1654 0.930 . S
C1599 N1596 1.314 . S
C1599 C1597 1.353 . S
C1599 H1655 0.930 . S
C1600 N1601 1.314 . S
C1600 C1605 1.353 . S
C1600 H1606 0.930 . S
N1601 Li1584 1.990 . S
N1601 C1600 1.314 . S
N1601 C1603 1.279 . S
C1602 C1603 1.358 . S
C1602 C1604 1.356 . S
C1602 H1656 0.930 . S
C1603 N1601 1.279 . S
C1603 C1602 1.358 . S
C1603 H1607 0.930 . S
C1604 C1602 1.356 . S
C1604 C1605 1.348 . S
C1605 C1600 1.353 . S
C1605 C1604 1.348 . S
C1605 H1657 0.929 . S
H1606 C1600 0.930 . S
H1607 C1603 0.930 . S
C1608 N1609 1.314 . S
C1608 C1610 1.353 . S
C1608 H1614 0.930 . S
N1609 Li1585 1.990 . S
N1609 C1608 1.314 . S
N1609 C1612 1.279 . S
C1610 C1608 1.353 . S
C1610 C1613 1.348 . S
C1610 H1658 0.929 . S
C1611 C1612 1.358 . S
C1611 C1613 1.356 . S
C1611 H1659 0.930 . S
C1612 N1609 1.279 . S
C1612 C1611 1.358 . S
C1612 H1615 0.930 . S
C1613 C1610 1.348 . S
C1613 C1611 1.356 . S
H1614 C1608 0.930 . S
H1615 C1612 0.930 . S
C1616 C1618 1.348 . S
C1616 C1619 1.356 . S
C1616 O1646 1.325 . S
N1617 C1620 1.314 . S
N1617 C1621 1.279 . S
C1618 C1616 1.348 . S
C1618 C1620 1.353 . S
C1618 H1660 0.929 . S
C1619 C1616 1.356 . S
C1619 C1621 1.358 . S
C1619 H1661 0.930 . S
C1620 N1617 1.314 . S
C1620 C1618 1.353 . S
C1620 H1662 0.930 . S
C1621 N1617 1.279 . S
C1621 C1619 1.358 . S
C1621 H1663 0.930 . S
C1622 C1623 1.348 . S
C1622 C1624 1.356 . S
C1622 O1647 1.325 . S
C1623 C1622 1.348 . S
C1623 C1625 1.353 . S
C1623 H1664 0.929 . S
C1624 C1622 1.356 . S
C1624 C1626 1.358 . S
C1624 H1665 0.930 . S
C1625 C1623 1.353 . S
C1625 N1627 1.314 . S
C1625 H1666 0.930 . S
C1626 C1624 1.358 . S
C1626 N1627 1.279 . S
C1626 H1667 0.930 . S
N1627 C1625 1.314 . S
N1627 C1626 1.279 . S
C1628 C1630 1.353 . S
C1628 N1631 1.314 . S
C1628 H1634 0.930 . S
C1629 N1631 1.279 . S
C1629 C1632 1.358 . S
C1629 H1635 0.930 . S
C1630 C1628 1.353 . S
C1630 C1633 1.348 . S
C1630 H1668 0.929 . S
N1631 Li1586 1.990 . S
N1631 C1628 1.314 . S
N1631 C1629 1.279 . S
C1632 C1629 1.358 . S
C1632 C1633 1.356 . S
C1632 H1669 0.930 . S
C1633 C1630 1.348 . S
C1633 C1632 1.356 . S
H1634 C1628 0.930 . S
H1635 C1629 0.930 . S
C1636 N1637 1.314 . S
C1636 C1638 1.353 . S
C1636 H1642 0.930 . S
N1637 Li1587 1.990 . S
N1637 C1636 1.314 . S
N1637 C1640 1.279 . S
C1638 C1636 1.353 . S
C1638 C1641 1.348 . S
C1638 H1670 0.929 . S
C1639 C1640 1.358 . S
C1639 C1641 1.356 . S
C1639 H1671 0.930 . S
C1640 N1637 1.279 . S
C1640 C1639 1.358 . S
C1640 H1643 0.930 . S
C1641 C1638 1.348 . S
C1641 C1639 1.356 . S
H1642 C1636 0.930 . S
H1643 C1640 0.930 . S
O1644 Li1584 1.956 . S
O1644 Li1585 1.970 . S
O1644 Li1586 1.961 . S
O1644 C1588 1.325 . S
O1645 Li1584 1.970 . S
O1645 Li1585 1.956 . S
O1645 Li1587 1.961 . S
O1645 C1594 1.325 . S
O1646 Li1584 1.961 . S
O1646 Li1586 1.956 . S
O1646 Li1587 1.970 . S
O1646 C1616 1.325 . S
O1647 Li1585 1.961 . S
O1647 Li1586 1.970 . S
O1647 Li1587 1.956 . S
O1647 C1622 1.325 . S
H1648 C1590 0.929 . S
H1649 C1591 0.930 . S
H1650 C1592 0.930 . S
H1651 C1593 0.930 . S
H1652 C1595 0.930 . S
H1653 C1597 0.929 . S
H1654 C1598 0.930 . S
H1655 C1599 0.930 . S
H1656 C1602 0.930 . S
H1657 C1605 0.929 . S
H1658 C1610 0.929 . S
H1659 C1611 0.930 . S
H1660 C1618 0.929 . S
H1661 C1619 0.930 . S
H1662 C1620 0.930 . S
H1663 C1621 0.930 . S
H1664 C1623 0.929 . S
H1665 C1624 0.930 . S
H1666 C1625 0.930 . S
H1667 C1626 0.930 . S
H1668 C1630 0.929 . S
H1669 C1632 0.930 . S
H1670 C1638 0.929 . S
H1671 C1639 0.930 . S
Li1672 N1689 1.990 . S
Li1672 O1732 1.956 . S
Li1672 O1733 1.970 . S
Li1672 O1734 1.961 . S
Li1673 N1697 1.990 . S
Li1673 O1732 1.970 . S
Li1673 O1733 1.956 . S
Li1673 O1735 1.961 . S
Li1674 N1719 1.990 . S
Li1674 O1732 1.961 . S
Li1674 O1734 1.956 . S
Li1674 O1735 1.970 . S
Li1675 N1725 2.011 . S
Li1675 O1733 1.961 . S
Li1675 O1734 1.970 . S
Li1675 O1735 1.956 . S
C1676 C1678 1.348 . S
C1676 C1679 1.356 . S
C1676 O1732 1.325 . S
N1677 C1680 1.314 . S
N1677 C1681 1.279 . S
C1678 C1676 1.348 . S
C1678 C1680 1.353 . S
C1678 H1736 0.929 . S
C1679 C1676 1.356 . S
C1679 C1681 1.358 . S
C1679 H1737 0.930 . S
C1680 N1677 1.314 . S
C1680 C1678 1.353 . S
C1680 H1738 0.930 . S
C1681 N1677 1.279 . S
C1681 C1679 1.358 . S
C1681 H1739 0.930 . S
C1682 C1685 1.348 . S
C1682 C1686 1.356 . S
C1682 O1733 1.325 . S
C1683 N1684 1.279 . S
C1683 C1686 1.358 . S
C1683 H1740 0.930 . S
N1684 C1683 1.279 . S
N1684 C1687 1.314 . S
C1685 C1682 1.348 . S
C1685 C1687 1.353 . S
C1685 H1741 0.929 . S
C1686 C1682 1.356 . S
C1686 C1683 1.358 . S
C1686 H1742 0.930 . S
C1687 N1684 1.314 . S
C1687 C1685 1.353 . S
C1687 H1743 0.930 . S
C1688 N1689 1.314 . S
C1688 C1693 1.353 . S
C1688 H1694 0.930 . S
N1689 Li1672 1.990 . S
N1689 C1688 1.314 . S
N1689 C1691 1.279 . S
C1690 C1691 1.358 . S
C1690 C1692 1.356 . S
C1690 H1744 0.930 . S
C1691 N1689 1.279 . S
C1691 C1690 1.358 . S
C1691 H1695 0.930 . S
C1692 C1690 1.356 . S
C1692 C1693 1.348 . S
C1693 C1688 1.353 . S
C1693 C1692 1.348 . S
C1693 H1745 0.929 . S
H1694 C1688 0.930 . S
H1695 C1691 0.930 . S
C1696 N1697 1.314 . S
C1696 C1698 1.353 . S
C1696 H1702 0.930 . S
N1697 Li1673 1.990 . S
N1697 C1696 1.314 . S
N1697 C1700 1.279 . S
C1698 C1696 1.353 . S
C1698 C1701 1.348 . S
C1698 H1746 0.929 . S
C1699 C1700 1.358 . S
C1699 C1701 1.356 . S
C1699 H1747 0.930 . S
C1700 N1697 1.279 . S
C1700 C1699 1.358 . S
C1700 H1703 0.930 . S
C1701 C1698 1.348 . S
C1701 C1699 1.356 . S
H1702 C1696 0.930 . S
H1703 C1700 0.930 . S
C1704 C1706 1.413 . S
C1704 C1707 1.350 . S
C1704 O1734 1.272 1_565 S
N1705 C1708 1.314 . S
N1705 C1709 1.279 . S
C1706 C1704 1.413 . S
C1706 C1708 1.353 . S
C1706 H1748 0.929 . S
C1707 C1704 1.350 . S
C1707 C1709 1.358 . S
C1707 H1749 0.930 1_565 S
C1708 N1705 1.314 . S
C1708 C1706 1.353 . S
C1708 H1750 0.930 . S
C1709 N1705 1.279 . S
C1709 C1707 1.358 . S
C1709 H1751 0.930 . S
C1710 C1711 1.348 . S
C1710 C1712 1.356 . S
C1710 O1735 1.325 . S
C1711 C1710 1.348 . S
C1711 C1713 1.353 . S
C1711 H1752 0.929 . S
C1712 C1710 1.356 . S
C1712 C1714 1.358 . S
C1712 H1753 0.930 . S
C1713 C1711 1.353 . S
C1713 N1715 1.314 . S
C1713 H1754 0.930 . S
C1714 C1712 1.358 . S
C1714 N1715 1.279 . S
C1714 H1755 0.930 . S
N1715 C1713 1.314 . S
N1715 C1714 1.279 . S
C1716 C1718 1.353 . S
C1716 N1719 1.314 . S
C1716 H1722 0.930 . S
C1717 N1719 1.279 . S
C1717 C1720 1.358 . S
C1717 H1723 0.930 . S
C1718 C1716 1.353 . S
C1718 C1721 1.348 . S
C1718 H1756 0.929 . S
N1719 Li1674 1.990 . S
N1719 C1716 1.314 . S
N1719 C1717 1.279 . S
C1720 C1717 1.358 . S
C1720 C1721 1.356 . S
C1720 H1757 0.951 . S
C1721 C1718 1.348 . S
C1721 C1720 1.356 . S
H1722 C1716 0.930 . S
H1723 C1717 0.930 . S
C1724 N1725 1.299 1_565 S
C1724 C1726 1.353 . S
C1724 H1730 0.930 . S
N1725 Li1675 2.011 . S
N1725 C1724 1.299 1_545 S
N1725 C1728 1.270 1_545 S
C1726 C1724 1.353 . S
C1726 C1729 1.348 . S
C1726 H1758 0.929 . S
C1727 C1728 1.358 . S
C1727 C1729 1.356 . S
C1727 H1759 0.930 . S
C1728 N1725 1.270 1_565 S
C1728 C1727 1.358 . S
C1728 H1731 0.927 . S
C1729 C1726 1.348 . S
C1729 C1727 1.356 . S
H1730 C1724 0.930 . S
H1731 C1728 0.927 . S
O1732 Li1672 1.956 . S
O1732 Li1673 1.970 . S
O1732 Li1674 1.961 . S
O1732 C1676 1.325 . S
O1733 Li1672 1.970 . S
O1733 Li1673 1.956 . S
O1733 Li1675 1.961 . S
O1733 C1682 1.325 . S
O1734 Li1672 1.961 . S
O1734 Li1674 1.956 . S
O1734 Li1675 1.970 . S
O1734 C1704 1.272 1_545 S
O1735 Li1673 1.961 . S
O1735 Li1674 1.970 . S
O1735 Li1675 1.956 . S
O1735 C1710 1.325 . S
H1736 C1678 0.929 . S
H1737 C1679 0.930 . S
H1738 C1680 0.930 . S
H1739 C1681 0.930 . S
H1740 C1683 0.930 . S
H1741 C1685 0.929 . S
H1742 C1686 0.930 . S
H1743 C1687 0.930 . S
H1744 C1690 0.930 . S
H1745 C1693 0.929 . S
H1746 C1698 0.929 . S
H1747 C1699 0.930 . S
H1748 C1706 0.929 . S
H1749 C1707 0.930 1_545 S
H1750 C1708 0.930 . S
H1751 C1709 0.930 . S
H1752 C1711 0.929 . S
H1753 C1712 0.930 . S
H1754 C1713 0.930 . S
H1755 C1714 0.930 . S
H1756 C1718 0.929 . S
H1757 C1720 0.951 . S
H1758 C1726 0.929 . S
H1759 C1727 0.930 . S
Li1760 N1777 1.990 . S
Li1760 O1820 1.956 . S
Li1760 O1821 1.970 . S
Li1760 O1822 1.961 . S
Li1761 N1785 1.990 . S
Li1761 O1820 1.970 . S
Li1761 O1821 1.956 . S
Li1761 O1823 1.961 1_554 S
Li1762 N1807 1.990 . S
Li1762 O1820 1.961 1_556 S
Li1762 O1822 1.956 1_556 S
Li1762 O1823 1.970 . S
Li1763 N1813 1.990 . S
Li1763 O1821 1.961 . S
Li1763 O1822 1.970 . S
Li1763 O1823 1.956 1_554 S
C1764 C1766 1.348 . S
C1764 C1767 1.356 . S
C1764 O1820 1.325 . S
N1765 C1768 1.314 . S
N1765 C1769 1.279 . S
C1766 C1764 1.348 . S
C1766 C1768 1.353 . S
C1766 H1824 0.929 . S
C1767 C1764 1.356 . S
C1767 C1769 1.358 . S
C1767 H1825 0.930 . S
C1768 N1765 1.314 . S
C1768 C1766 1.353 . S
C1768 H1826 0.930 . S
C1769 N1765 1.279 . S
C1769 C1767 1.358 . S
C1769 H1827 0.930 . S
C1770 C1773 1.348 . S
C1770 C1774 1.356 . S
C1770 O1821 1.325 . S
C1771 N1772 1.279 . S
C1771 C1774 1.358 . S
C1771 H1828 0.930 . S
N1772 C1771 1.279 . S
N1772 C1775 1.314 . S
C1773 C1770 1.348 . S
C1773 C1775 1.353 . S
C1773 H1829 0.929 . S
C1774 C1770 1.356 . S
C1774 C1771 1.358 . S
C1774 H1830 0.930 . S
C1775 N1772 1.314 . S
C1775 C1773 1.353 . S
C1775 H1831 0.930 . S
C1776 N1777 1.314 . S
C1776 C1781 1.353 . S
C1776 H1782 0.930 . S
N1777 Li1760 1.990 . S
N1777 C1776 1.314 . S
N1777 C1779 1.279 . S
C1778 C1779 1.358 . S
C1778 C1780 1.356 . S
C1778 H1832 0.930 . S
C1779 N1777 1.279 . S
C1779 C1778 1.358 . S
C1779 H1783 0.930 . S
C1780 C1778 1.356 . S
C1780 C1781 1.348 . S
C1781 C1776 1.353 . S
C1781 C1780 1.348 . S
C1781 H1833 0.929 . S
H1782 C1776 0.930 . S
H1783 C1779 0.930 . S
C1784 N1785 1.314 1_556 S
C1784 C1786 1.353 . S
C1784 H1790 0.930 . S
N1785 Li1761 1.990 . S
N1785 C1784 1.314 1_554 S
N1785 C1788 1.279 . S
C1786 C1784 1.353 . S
C1786 C1789 1.348 1_556 S
C1786 H1834 0.929 . S
C1787 C1788 1.358 . S
C1787 C1789 1.356 . S
C1787 H1835 0.930 . S
C1788 N1785 1.279 . S
C1788 C1787 1.358 . S
C1788 H1791 0.930 . S
C1789 C1786 1.348 1_554 S
C1789 C1787 1.356 . S
H1790 C1784 0.930 . S
H1791 C1788 0.930 . S
C1792 C1794 1.348 1_554 S
C1792 C1795 1.356 . S
C1792 O1822 1.325 . S
N1793 C1796 1.314 1_554 S
N1793 C1797 1.279 . S
C1794 C1792 1.348 1_556 S
C1794 C1796 1.353 . S
C1794 H1836 0.929 . S
C1795 C1792 1.356 . S
C1795 C1797 1.358 . S
C1795 H1837 0.930 . S
C1796 N1793 1.314 1_556 S
C1796 C1794 1.353 . S
C1796 H1838 0.930 . S
C1797 N1793 1.279 . S
C1797 C1795 1.358 . S
C1797 H1839 0.930 . S
C1798 C1799 1.348 . S
C1798 C1800 1.356 . S
C1798 O1823 1.325 . S
C1799 C1798 1.348 . S
C1799 C1801 1.353 . S
C1799 H1840 0.929 . S
C1800 C1798 1.356 . S
C1800 C1802 1.358 . S
C1800 H1841 0.930 . S
C1801 C1799 1.353 . S
C1801 N1803 1.314 . S
C1801 H1842 0.930 . S
C1802 C1800 1.358 . S
C1802 N1803 1.279 . S
C1802 H1843 0.930 . S
N1803 C1801 1.314 . S
N1803 C1802 1.279 . S
C1804 C1806 1.353 . S
C1804 N1807 1.314 . S
C1804 H1810 0.930 . S
C1805 N1807 1.279 . S
C1805 C1808 1.358 . S
C1805 H1811 0.930 . S
C1806 C1804 1.353 . S
C1806 C1809 1.348 . S
C1806 H1844 0.929 . S
N1807 Li1762 1.990 . S
N1807 C1804 1.314 . S
N1807 C1805 1.279 . S
C1808 C1805 1.358 . S
C1808 C1809 1.356 . S
C1808 H1845 0.930 . S
C1809 C1806 1.348 . S
C1809 C1808 1.356 . S
H1810 C1804 0.930 . S
H1811 C1805 0.930 . S
C1812 N1813 1.310 . S
C1812 C1814 1.353 . S
C1812 H1818 0.930 . S
N1813 Li1763 1.990 . S
N1813 C1812 1.310 . S
N1813 C1816 1.283 1_554 S
C1814 C1812 1.353 . S
C1814 C1817 1.348 1_554 S
C1814 H1846 0.929 . S
C1815 C1816 1.358 . S
C1815 C1817 1.356 . S
C1815 H1847 0.930 . S
C1816 N1813 1.283 1_556 S
C1816 C1815 1.358 . S
C1816 H1819 0.930 . S
C1817 C1814 1.348 1_556 S
C1817 C1815 1.356 . S
H1818 C1812 0.930 . S
H1819 C1816 0.930 . S
O1820 Li1760 1.956 . S
O1820 Li1761 1.970 . S
O1820 Li1762 1.961 1_554 S
O1820 C1764 1.325 . S
O1821 Li1760 1.970 . S
O1821 Li1761 1.956 . S
O1821 Li1763 1.961 . S
O1821 C1770 1.325 . S
O1822 Li1760 1.961 . S
O1822 Li1762 1.956 1_554 S
O1822 Li1763 1.970 . S
O1822 C1792 1.325 . S
O1823 Li1761 1.961 1_556 S
O1823 Li1762 1.970 . S
O1823 Li1763 1.956 1_556 S
O1823 C1798 1.325 . S
H1824 C1766 0.929 . S
H1825 C1767 0.930 . S
H1826 C1768 0.930 . S
H1827 C1769 0.930 . S
H1828 C1771 0.930 . S
H1829 C1773 0.929 . S
H1830 C1774 0.930 . S
H1831 C1775 0.930 . S
H1832 C1778 0.930 . S
H1833 C1781 0.929 . S
H1834 C1786 0.929 . S
H1835 C1787 0.930 . S
H1836 C1794 0.929 . S
H1837 C1795 0.930 . S
H1838 C1796 0.930 . S
H1839 C1797 0.930 . S
H1840 C1799 0.929 . S
H1841 C1800 0.930 . S
H1842 C1801 0.930 . S
H1843 C1802 0.930 . S
H1844 C1806 0.929 . S
H1845 C1808 0.930 . S
H1846 C1814 0.929 . S
H1847 C1815 0.930 . S
Li1848 N1865 1.990 . S
Li1848 O1908 1.956 . S
Li1848 O1909 1.970 . S
Li1848 O1910 1.961 . S
Li1849 N1873 1.990 . S
Li1849 O1908 1.970 . S
Li1849 O1909 1.956 . S
Li1849 O1911 1.961 . S
Li1850 N1895 1.990 . S
Li1850 O1908 1.961 . S
Li1850 O1910 1.956 . S
Li1850 O1911 1.970 . S
Li1851 N1901 1.990 . S
Li1851 O1909 1.961 . S
Li1851 O1910 1.970 . S
Li1851 O1911 1.956 . S
C1852 C1854 1.348 . S
C1852 C1855 1.356 . S
C1852 O1908 1.325 . S
N1853 C1856 1.314 . S
N1853 C1857 1.279 . S
C1854 C1852 1.348 . S
C1854 C1856 1.353 . S
C1854 H1912 0.929 . S
C1855 C1852 1.356 . S
C1855 C1857 1.358 . S
C1855 H1913 0.930 . S
C1856 N1853 1.314 . S
C1856 C1854 1.353 . S
C1856 H1914 0.930 . S
C1857 N1853 1.279 . S
C1857 C1855 1.358 . S
C1857 H1915 0.930 . S
C1858 C1861 1.348 . S
C1858 C1862 1.356 . S
C1858 O1909 1.325 . S
C1859 N1860 1.279 . S
C1859 C1862 1.358 . S
C1859 H1916 0.930 . S
N1860 C1859 1.279 . S
N1860 C1863 1.314 . S
C1861 C1858 1.348 . S
C1861 C1863 1.353 . S
C1861 H1917 0.929 . S
C1862 C1858 1.356 . S
C1862 C1859 1.358 . S
C1862 H1918 0.930 . S
C1863 N1860 1.314 . S
C1863 C1861 1.353 . S
C1863 H1919 0.930 . S
C1864 N1865 1.314 . S
C1864 C1869 1.353 . S
C1864 H1870 0.930 . S
N1865 Li1848 1.990 . S
N1865 C1864 1.314 . S
N1865 C1867 1.279 . S
C1866 C1867 1.358 . S
C1866 C1868 1.356 . S
C1866 H1920 0.930 . S
C1867 N1865 1.279 . S
C1867 C1866 1.358 . S
C1867 H1871 0.930 . S
C1868 C1866 1.356 . S
C1868 C1869 1.348 . S
C1869 C1864 1.353 . S
C1869 C1868 1.348 . S
C1869 H1921 0.929 . S
H1870 C1864 0.930 . S
H1871 C1867 0.930 . S
C1872 N1873 1.314 . S
C1872 C1874 1.353 . S
C1872 H1878 0.930 . S
N1873 Li1849 1.990 . S
N1873 C1872 1.314 . S
N1873 C1876 1.279 . S
C1874 C1872 1.353 . S
C1874 C1877 1.348 . S
C1874 H1922 0.929 . S
C1875 C1876 1.358 . S
C1875 C1877 1.356 . S
C1875 H1923 0.930 . S
C1876 N1873 1.279 . S
C1876 C1875 1.358 . S
C1876 H1879 0.930 . S
C1877 C1874 1.348 . S
C1877 C1875 1.356 . S
H1878 C1872 0.930 . S
H1879 C1876 0.930 . S
C1880 C1882 1.348 . S
C1880 C1883 1.356 . S
C1880 O1910 1.325 . S
N1881 C1884 1.314 . S
N1881 C1885 1.279 . S
C1882 C1880 1.348 . S
C1882 C1884 1.353 . S
C1882 H1924 0.929 . S
C1883 C1880 1.356 . S
C1883 C1885 1.358 . S
C1883 H1925 0.930 . S
C1884 N1881 1.314 . S
C1884 C1882 1.353 . S
C1884 H1926 0.930 . S
C1885 N1881 1.279 . S
C1885 C1883 1.358 . S
C1885 H1927 0.930 . S
C1886 C1887 1.348 . S
C1886 C1888 1.356 . S
C1886 O1911 1.325 . S
C1887 C1886 1.348 . S
C1887 C1889 1.353 . S
C1887 H1928 0.929 . S
C1888 C1886 1.356 . S
C1888 C1890 1.358 . S
C1888 H1929 0.930 . S
C1889 C1887 1.353 . S
C1889 N1891 1.314 . S
C1889 H1930 0.930 . S
C1890 C1888 1.358 . S
C1890 N1891 1.279 . S
C1890 H1931 0.930 . S
N1891 C1889 1.314 . S
N1891 C1890 1.279 . S
C1892 C1894 1.353 . S
C1892 N1895 1.314 . S
C1892 H1898 0.930 . S
C1893 N1895 1.279 . S
C1893 C1896 1.358 . S
C1893 H1899 0.930 . S
C1894 C1892 1.353 . S
C1894 C1897 1.348 . S
C1894 H1932 0.929 . S
N1895 Li1850 1.990 . S
N1895 C1892 1.314 . S
N1895 C1893 1.279 . S
C1896 C1893 1.358 . S
C1896 C1897 1.356 . S
C1896 H1933 0.930 . S
C1897 C1894 1.348 . S
C1897 C1896 1.356 . S
H1898 C1892 0.930 . S
H1899 C1893 0.930 . S
C1900 N1901 1.314 . S
C1900 C1902 1.353 . S
C1900 H1906 0.930 . S
N1901 Li1851 1.990 . S
N1901 C1900 1.314 . S
N1901 C1904 1.279 . S
C1902 C1900 1.353 . S
C1902 C1905 1.348 . S
C1902 H1934 0.929 . S
C1903 C1904 1.358 . S
C1903 C1905 1.356 . S
C1903 H1935 0.930 . S
C1904 N1901 1.279 . S
C1904 C1903 1.358 . S
C1904 H1907 0.930 . S
C1905 C1902 1.348 . S
C1905 C1903 1.356 . S
H1906 C1900 0.930 . S
H1907 C1904 0.930 . S
O1908 Li1848 1.956 . S
O1908 Li1849 1.970 . S
O1908 Li1850 1.961 . S
O1908 C1852 1.325 . S
O1909 Li1848 1.970 . S
O1909 Li1849 1.956 . S
O1909 Li1851 1.961 . S
O1909 C1858 1.325 . S
O1910 Li1848 1.961 . S
O1910 Li1850 1.956 . S
O1910 Li1851 1.970 . S
O1910 C1880 1.325 . S
O1911 Li1849 1.961 . S
O1911 Li1850 1.970 . S
O1911 Li1851 1.956 . S
O1911 C1886 1.325 . S
H1912 C1854 0.929 . S
H1913 C1855 0.930 . S
H1914 C1856 0.930 . S
H1915 C1857 0.930 . S
H1916 C1859 0.930 . S
H1917 C1861 0.929 . S
H1918 C1862 0.930 . S
H1919 C1863 0.930 . S
H1920 C1866 0.930 . S
H1921 C1869 0.929 . S
H1922 C1874 0.929 . S
H1923 C1875 0.930 . S
H1924 C1882 0.929 . S
H1925 C1883 0.930 . S
H1926 C1884 0.930 . S
H1927 C1885 0.930 . S
H1928 C1887 0.929 . S
H1929 C1888 0.930 . S
H1930 C1889 0.930 . S
H1931 C1890 0.930 . S
H1932 C1894 0.929 . S
H1933 C1896 0.930 . S
H1934 C1902 0.929 . S
H1935 C1903 0.930 . S
Li1936 N1953 1.990 . S
Li1936 O1996 1.956 . S
Li1936 O1997 1.970 . S
Li1936 O1998 1.961 . S
Li1937 N1961 1.990 . S
Li1937 O1996 1.970 . S
Li1937 O1997 1.956 . S
Li1937 O1999 1.961 . S
Li1938 N1983 1.990 . S
Li1938 O1996 1.961 . S
Li1938 O1998 1.956 . S
Li1938 O1999 1.970 . S
Li1939 N1989 1.990 . S
Li1939 O1997 1.961 . S
Li1939 O1998 1.970 . S
Li1939 O1999 1.956 . S
C1940 C1942 1.348 . S
C1940 C1943 1.356 . S
C1940 O1996 1.325 . S
N1941 C1944 1.314 . S
N1941 C1945 1.279 . S
C1942 C1940 1.348 . S
C1942 C1944 1.353 . S
C1942 H2000 0.929 . S
C1943 C1940 1.356 . S
C1943 C1945 1.358 . S
C1943 H2001 0.930 . S
C1944 N1941 1.314 . S
C1944 C1942 1.353 . S
C1944 H2002 0.930 . S
C1945 N1941 1.279 . S
C1945 C1943 1.358 . S
C1945 H2003 0.930 . S
C1946 C1949 1.348 . S
C1946 C1950 1.356 . S
C1946 O1997 1.325 . S
C1947 N1948 1.279 . S
C1947 C1950 1.358 . S
C1947 H2004 0.930 . S
N1948 C1947 1.279 . S
N1948 C1951 1.314 . S
C1949 C1946 1.348 . S
C1949 C1951 1.353 . S
C1949 H2005 0.929 . S
C1950 C1946 1.356 . S
C1950 C1947 1.358 . S
C1950 H2006 0.930 . S
C1951 N1948 1.314 . S
C1951 C1949 1.353 . S
C1951 H2007 0.930 . S
C1952 N1953 1.314 . S
C1952 C1957 1.353 . S
C1952 H1958 0.930 . S
N1953 Li1936 1.990 . S
N1953 C1952 1.314 . S
N1953 C1955 1.279 . S
C1954 C1955 1.358 . S
C1954 C1956 1.356 . S
C1954 H2008 0.930 . S
C1955 N1953 1.279 . S
C1955 C1954 1.358 . S
C1955 H1959 0.930 . S
C1956 C1954 1.356 . S
C1956 C1957 1.348 . S
C1957 C1952 1.353 . S
C1957 C1956 1.348 . S
C1957 H2009 0.929 . S
H1958 C1952 0.930 . S
H1959 C1955 0.930 . S
C1960 N1961 1.314 . S
C1960 C1962 1.353 . S
C1960 H1966 0.930 . S
N1961 Li1937 1.990 . S
N1961 C1960 1.314 . S
N1961 C1964 1.279 . S
C1962 C1960 1.353 . S
C1962 C1965 1.348 . S
C1962 H2010 0.929 . S
C1963 C1964 1.358 . S
C1963 C1965 1.356 . S
C1963 H2011 0.930 . S
C1964 N1961 1.279 . S
C1964 C1963 1.358 . S
C1964 H1967 0.930 . S
C1965 C1962 1.348 . S
C1965 C1963 1.356 . S
H1966 C1960 0.930 . S
H1967 C1964 0.930 . S
C1968 C1970 1.348 . S
C1968 C1971 1.356 . S
C1968 O1998 1.325 . S
N1969 C1972 1.314 . S
N1969 C1973 1.279 . S
C1970 C1968 1.348 . S
C1970 C1972 1.353 . S
C1970 H2012 0.929 . S
C1971 C1968 1.356 . S
C1971 C1973 1.358 . S
C1971 H2013 0.930 . S
C1972 N1969 1.314 . S
C1972 C1970 1.353 . S
C1972 H2014 0.930 . S
C1973 N1969 1.279 . S
C1973 C1971 1.358 . S
C1973 H2015 0.930 . S
C1974 C1975 1.348 . S
C1974 C1976 1.356 . S
C1974 O1999 1.325 . S
C1975 C1974 1.348 . S
C1975 C1977 1.353 . S
C1975 H2016 0.929 . S
C1976 C1974 1.356 . S
C1976 C1978 1.358 . S
C1976 H2017 0.930 . S
C1977 C1975 1.353 . S
C1977 N1979 1.314 . S
C1977 H2018 0.930 . S
C1978 C1976 1.358 . S
C1978 N1979 1.279 . S
C1978 H2019 0.930 . S
N1979 C1977 1.314 . S
N1979 C1978 1.279 . S
C1980 C1982 1.353 . S
C1980 N1983 1.314 . S
C1980 H1986 0.930 . S
C1981 N1983 1.279 . S
C1981 C1984 1.358 . S
C1981 H1987 0.930 . S
C1982 C1980 1.353 . S
C1982 C1985 1.348 . S
C1982 H2020 0.929 . S
N1983 Li1938 1.990 . S
N1983 C1980 1.314 . S
N1983 C1981 1.279 . S
C1984 C1981 1.358 . S
C1984 C1985 1.356 . S
C1984 H2021 0.930 . S
C1985 C1982 1.348 . S
C1985 C1984 1.356 . S
H1986 C1980 0.930 . S
H1987 C1981 0.930 . S
C1988 N1989 1.314 . S
C1988 C1990 1.353 . S
C1988 H1994 0.930 . S
N1989 Li1939 1.990 . S
N1989 C1988 1.314 . S
N1989 C1992 1.279 . S
C1990 C1988 1.353 . S
C1990 C1993 1.348 . S
C1990 H2022 0.929 . S
C1991 C1992 1.358 . S
C1991 C1993 1.356 . S
C1991 H2023 0.930 . S
C1992 N1989 1.279 . S
C1992 C1991 1.358 . S
C1992 H1995 0.930 . S
C1993 C1990 1.348 . S
C1993 C1991 1.356 . S
H1994 C1988 0.930 . S
H1995 C1992 0.930 . S
O1996 Li1936 1.956 . S
O1996 Li1937 1.970 . S
O1996 Li1938 1.961 . S
O1996 C1940 1.325 . S
O1997 Li1936 1.970 . S
O1997 Li1937 1.956 . S
O1997 Li1939 1.961 . S
O1997 C1946 1.325 . S
O1998 Li1936 1.961 . S
O1998 Li1938 1.956 . S
O1998 Li1939 1.970 . S
O1998 C1968 1.325 . S
O1999 Li1937 1.961 . S
O1999 Li1938 1.970 . S
O1999 Li1939 1.956 . S
O1999 C1974 1.325 . S
H2000 C1942 0.929 . S
H2001 C1943 0.930 . S
H2002 C1944 0.930 . S
H2003 C1945 0.930 . S
H2004 C1947 0.930 . S
H2005 C1949 0.929 . S
H2006 C1950 0.930 . S
H2007 C1951 0.930 . S
H2008 C1954 0.930 . S
H2009 C1957 0.929 . S
H2010 C1962 0.929 . S
H2011 C1963 0.930 . S
H2012 C1970 0.929 . S
H2013 C1971 0.930 . S
H2014 C1972 0.930 . S
H2015 C1973 0.930 . S
H2016 C1975 0.929 . S
H2017 C1976 0.930 . S
H2018 C1977 0.930 . S
H2019 C1978 0.930 . S
H2020 C1982 0.929 . S
H2021 C1984 0.930 . S
H2022 C1990 0.929 . S
H2023 C1991 0.930 . S
Li2024 N2041 1.990 . S
Li2024 O2084 1.956 . S
Li2024 O2085 1.970 . S
Li2024 O2086 1.961 . S
Li2025 N2049 1.990 . S
Li2025 O2084 1.970 . S
Li2025 O2085 1.956 . S
Li2025 O2087 1.961 . S
Li2026 N2071 1.990 . S
Li2026 O2084 1.961 . S
Li2026 O2086 1.956 . S
Li2026 O2087 1.970 . S
Li2027 N2077 1.990 . S
Li2027 O2085 1.961 . S
Li2027 O2086 1.970 . S
Li2027 O2087 1.956 . S
C2028 C2030 1.348 . S
C2028 C2031 1.356 . S
C2028 O2084 1.325 . S
N2029 C2032 1.314 . S
N2029 C2033 1.279 . S
C2030 C2028 1.348 . S
C2030 C2032 1.353 . S
C2030 H2088 0.929 . S
C2031 C2028 1.356 . S
C2031 C2033 1.358 . S
C2031 H2089 0.930 . S
C2032 N2029 1.314 . S
C2032 C2030 1.353 . S
C2032 H2090 0.930 . S
C2033 N2029 1.279 . S
C2033 C2031 1.358 . S
C2033 H2091 0.930 . S
C2034 C2037 1.348 . S
C2034 C2038 1.356 . S
C2034 O2085 1.325 . S
C2035 N2036 1.279 . S
C2035 C2038 1.358 . S
C2035 H2092 0.930 . S
N2036 C2035 1.279 . S
N2036 C2039 1.314 . S
C2037 C2034 1.348 . S
C2037 C2039 1.353 . S
C2037 H2093 0.929 . S
C2038 C2034 1.356 . S
C2038 C2035 1.358 . S
C2038 H2094 0.930 . S
C2039 N2036 1.314 . S
C2039 C2037 1.353 . S
C2039 H2095 0.930 . S
C2040 N2041 1.314 . S
C2040 C2045 1.353 . S
C2040 H2046 0.930 . S
N2041 Li2024 1.990 . S
N2041 C2040 1.314 . S
N2041 C2043 1.279 . S
C2042 C2043 1.358 . S
C2042 C2044 1.356 . S
C2042 H2096 0.930 . S
C2043 N2041 1.279 . S
C2043 C2042 1.358 . S
C2043 H2047 0.930 . S
C2044 C2042 1.356 . S
C2044 C2045 1.348 . S
C2045 C2040 1.353 . S
C2045 C2044 1.348 . S
C2045 H2097 0.929 . S
H2046 C2040 0.930 . S
H2047 C2043 0.930 . S
C2048 N2049 1.314 . S
C2048 C2050 1.353 . S
C2048 H2054 0.930 . S
N2049 Li2025 1.990 . S
N2049 C2048 1.314 . S
N2049 C2052 1.279 . S
C2050 C2048 1.353 . S
C2050 C2053 1.348 . S
C2050 H2098 0.929 . S
C2051 C2052 1.358 . S
C2051 C2053 1.356 . S
C2051 H2099 0.930 . S
C2052 N2049 1.279 . S
C2052 C2051 1.358 . S
C2052 H2055 0.930 . S
C2053 C2050 1.348 . S
C2053 C2051 1.356 . S
H2054 C2048 0.930 . S
H2055 C2052 0.930 . S
C2056 C2058 1.348 . S
C2056 C2059 1.356 . S
C2056 O2086 1.325 . S
N2057 C2060 1.314 . S
N2057 C2061 1.279 . S
C2058 C2056 1.348 . S
C2058 C2060 1.353 . S
C2058 H2100 0.929 . S
C2059 C2056 1.356 . S
C2059 C2061 1.358 . S
C2059 H2101 0.930 . S
C2060 N2057 1.314 . S
C2060 C2058 1.353 . S
C2060 H2102 0.930 . S
C2061 N2057 1.279 . S
C2061 C2059 1.358 . S
C2061 H2103 0.930 . S
C2062 C2063 1.348 . S
C2062 C2064 1.356 . S
C2062 O2087 1.325 . S
C2063 C2062 1.348 . S
C2063 C2065 1.353 . S
C2063 H2104 0.929 . S
C2064 C2062 1.356 . S
C2064 C2066 1.358 . S
C2064 H2105 0.930 . S
C2065 C2063 1.353 . S
C2065 N2067 1.314 . S
C2065 H2106 0.930 . S
C2066 C2064 1.358 . S
C2066 N2067 1.279 . S
C2066 H2107 0.930 . S
N2067 C2065 1.314 . S
N2067 C2066 1.279 . S
C2068 C2070 1.353 . S
C2068 N2071 1.314 . S
C2068 H2074 0.930 . S
C2069 N2071 1.279 . S
C2069 C2072 1.358 . S
C2069 H2075 0.930 . S
C2070 C2068 1.353 . S
C2070 C2073 1.348 . S
C2070 H2108 0.929 . S
N2071 Li2026 1.990 . S
N2071 C2068 1.314 . S
N2071 C2069 1.279 . S
C2072 C2069 1.358 . S
C2072 C2073 1.356 . S
C2072 H2109 0.930 . S
C2073 C2070 1.348 . S
C2073 C2072 1.356 . S
H2074 C2068 0.930 . S
H2075 C2069 0.930 . S
C2076 N2077 1.314 . S
C2076 C2078 1.353 . S
C2076 H2082 0.930 . S
N2077 Li2027 1.990 . S
N2077 C2076 1.314 . S
N2077 C2080 1.279 . S
C2078 C2076 1.353 . S
C2078 C2081 1.348 . S
C2078 H2110 0.929 . S
C2079 C2080 1.358 . S
C2079 C2081 1.356 . S
C2079 H2111 0.930 . S
C2080 N2077 1.279 . S
C2080 C2079 1.358 . S
C2080 H2083 0.930 . S
C2081 C2078 1.348 . S
C2081 C2079 1.356 . S
H2082 C2076 0.930 . S
H2083 C2080 0.930 . S
O2084 Li2024 1.956 . S
O2084 Li2025 1.970 . S
O2084 Li2026 1.961 . S
O2084 C2028 1.325 . S
O2085 Li2024 1.970 . S
O2085 Li2025 1.956 . S
O2085 Li2027 1.961 . S
O2085 C2034 1.325 . S
O2086 Li2024 1.961 . S
O2086 Li2026 1.956 . S
O2086 Li2027 1.970 . S
O2086 C2056 1.325 . S
O2087 Li2025 1.961 . S
O2087 Li2026 1.970 . S
O2087 Li2027 1.956 . S
O2087 C2062 1.325 . S
H2088 C2030 0.929 . S
H2089 C2031 0.930 . S
H2090 C2032 0.930 . S
H2091 C2033 0.930 . S
H2092 C2035 0.930 . S
H2093 C2037 0.929 . S
H2094 C2038 0.930 . S
H2095 C2039 0.930 . S
H2096 C2042 0.930 . S
H2097 C2045 0.929 . S
H2098 C2050 0.929 . S
H2099 C2051 0.930 . S
H2100 C2058 0.929 . S
H2101 C2059 0.930 . S
H2102 C2060 0.930 . S
H2103 C2061 0.930 . S
H2104 C2063 0.929 . S
H2105 C2064 0.930 . S
H2106 C2065 0.930 . S
H2107 C2066 0.930 . S
H2108 C2070 0.929 . S
H2109 C2072 0.930 . S
H2110 C2078 0.929 . S
H2111 C2079 0.930 . S
Eu2112 N2141 2.600 . S
Eu2112 N2147 2.562 . S
Eu2112 O2156 2.462 . S
Eu2112 O2157 2.373 . S
Eu2112 O2159 2.432 . S
Eu2112 O2160 2.291 . S
Eu2112 O2164 2.284 1_545 S
Eu2112 O2167 2.372 . S
Eu2112 C2176 2.787 . S
C2113 N2114 1.365 . S
C2113 C2116 1.405 . S
C2113 C2120 1.448 1_556 S
N2114 C2113 1.365 . S
N2114 C2117 1.319 . S
N2114 Eu2123 2.600 1_566 S
C2115 C2117 1.397 . S
C2115 C2118 1.367 . S
C2115 H2135 0.931 . S
C2116 C2113 1.405 . S
C2116 C2118 1.403 . S
C2116 C2122 1.439 . S
C2117 N2114 1.319 . S
C2117 C2115 1.397 . S
C2117 H2128 0.930 . S
C2118 C2115 1.367 . S
C2118 C2116 1.403 . S
C2118 H2139 0.929 . S
C2119 C2120 1.430 . S
C2119 C2121 1.387 1_554 S
C2119 C2125 1.404 . S
C2120 C2113 1.448 1_554 S
C2120 C2119 1.430 . S
C2120 N2124 1.351 . S
C2121 C2119 1.387 1_556 S
C2121 C2122 1.374 . S
C2121 H2136 0.907 1_556 S
C2122 C2116 1.439 . S
C2122 C2121 1.374 . S
C2122 H2137 0.931 . S
Eu2123 N2114 2.600 1_544 S
Eu2123 N2124 2.562 1_545 S
Eu2123 O2158 2.335 1_655 S
Eu2123 O2161 2.372 1_654 S
Eu2123 O2162 2.462 . S
Eu2123 O2163 2.373 1_645 S
Eu2123 O2165 2.432 1_554 S
Eu2123 O2166 2.291 1_655 S
Eu2123 C2187 2.795 . S
N2124 C2120 1.351 . S
N2124 Eu2123 2.562 1_565 S
N2124 C2126 1.325 . S
C2125 C2119 1.404 . S
C2125 C2127 1.366 . S
C2125 H2133 0.930 . S
C2126 N2124 1.325 . S
C2126 C2127 1.416 . S
C2126 H2132 0.929 . S
C2127 C2125 1.366 . S
C2127 C2126 1.416 . S
C2127 H2129 0.930 . S
H2128 C2117 0.930 . S
H2129 C2127 0.930 . S
H2130 C2145 0.930 . S
H2131 C2152 0.917 1_556 S
H2132 C2126 0.929 . S
H2133 C2125 0.930 . S
H2134 C2148 0.893 1_556 S
H2135 C2115 0.931 . S
H2136 C2121 0.907 1_554 S
H2137 C2122 0.931 . S
H2138 C2143 0.931 . S
H2139 C2118 0.929 . S
H2140 C2151 0.930 . S
N2141 Eu2112 2.600 . S
N2141 C2142 1.365 . S
N2141 C2145 1.319 . S
C2142 N2141 1.365 . S
C2142 C2144 1.405 . S
C2142 C2150 1.448 . S
C2143 H2138 0.931 . S
C2143 C2145 1.397 . S
C2143 C2146 1.367 . S
C2144 C2142 1.405 . S
C2144 C2146 1.403 . S
C2144 C2177 1.439 . S
C2145 H2130 0.930 . S
C2145 N2141 1.319 . S
C2145 C2143 1.397 . S
C2146 C2143 1.367 . S
C2146 C2144 1.403 . S
C2146 H2153 0.929 . S
N2147 Eu2112 2.562 . S
N2147 C2148 1.325 . S
N2147 C2150 1.351 . S
C2148 H2134 0.893 1_554 S
C2148 N2147 1.325 . S
C2148 C2152 1.422 . S
C2149 C2150 1.430 . S
C2149 C2151 1.404 . S
C2149 C2178 1.387 . S
C2150 C2142 1.448 . S
C2150 N2147 1.351 . S
C2150 C2149 1.430 . S
C2151 H2140 0.930 . S
C2151 C2149 1.404 . S
C2151 C2152 1.373 . S
C2152 H2131 0.917 1_554 S
C2152 C2148 1.422 . S
C2152 C2151 1.373 . S
H2153 C2146 0.929 . S
H2154 C2177 0.931 . S
H2155 C2178 0.931 . S
O2156 Eu2112 2.462 . S
O2156 C2176 1.252 . S
O2157 Eu2112 2.373 . S
O2157 C2168 1.249 . S
O2158 Eu2123 2.335 1_455 S
O2158 C2168 1.264 . S
O2159 Eu2112 2.432 . S
O2159 C2176 1.268 . S
O2160 Eu2112 2.291 . S
O2160 C2175 1.255 1_554 S
O2161 Eu2123 2.372 1_456 S
O2161 C2175 1.257 . S
O2162 Eu2123 2.462 . S
O2162 C2187 1.319 . S
O2163 Eu2123 2.373 1_465 S
O2163 C2179 1.249 . S
O2164 Eu2112 2.284 1_565 S
O2164 C2179 1.294 . S
O2165 Eu2123 2.432 1_556 S
O2165 C2187 1.211 1_556 S
O2166 Eu2123 2.291 1_455 S
O2166 C2186 1.255 . S
O2167 Eu2112 2.372 . S
O2167 C2186 1.257 . S
C2168 O2157 1.249 . S
C2168 O2158 1.264 . S
C2169 C2172 1.382 . S
C2169 C2174 1.390 . S
C2169 C2176 1.506 . S
C2170 C2171 1.398 . S
C2170 C2174 1.392 1_565 S
C2171 C2170 1.398 . S
C2171 C2173 1.372 1_565 S
C2171 H2188 0.931 . S
C2172 C2169 1.382 . S
C2172 C2173 1.390 . S
C2172 H2189 0.931 . S
C2173 C2171 1.372 1_545 S
C2173 C2172 1.390 . S
C2173 H2190 0.929 . S
C2174 C2169 1.390 . S
C2174 C2170 1.392 1_545 S
C2174 H2191 0.930 . S
C2175 O2160 1.255 1_556 S
C2175 O2161 1.257 . S
C2176 Eu2112 2.787 . S
C2176 O2156 1.252 . S
C2176 O2159 1.268 . S
C2176 C2169 1.506 . S
C2177 C2144 1.439 . S
C2177 H2154 0.931 . S
C2177 C2178 1.374 . S
C2178 C2149 1.387 . S
C2178 H2155 0.931 . S
C2178 C2177 1.374 . S
C2179 O2163 1.249 . S
C2179 O2164 1.294 . S
C2180 C2183 1.382 . S
C2180 C2184 1.390 1_556 S
C2180 C2187 1.499 1_556 S
C2181 C2182 1.398 1_554 S
C2181 C2184 1.392 . S
C2182 C2181 1.398 1_556 S
C2182 C2185 1.372 . S
C2182 H2192 0.931 . S
C2183 C2180 1.382 . S
C2183 C2185 1.390 . S
C2183 H2193 0.931 . S
C2184 C2180 1.390 1_554 S
C2184 C2181 1.392 . S
C2184 H2194 0.930 . S
C2185 C2182 1.372 . S
C2185 C2183 1.390 . S
C2185 H2195 0.929 . S
C2186 O2166 1.255 . S
C2186 O2167 1.257 . S
C2187 Eu2123 2.795 . S
C2187 O2162 1.319 . S
C2187 O2165 1.211 1_554 S
C2187 C2180 1.499 1_554 S
H2188 C2171 0.931 . S
H2189 C2172 0.931 . S
H2190 C2173 0.929 . S
H2191 C2174 0.930 . S
H2192 C2182 0.931 . S
H2193 C2183 0.931 . S
H2194 C2184 0.930 . S
H2195 C2185 0.929 . S
Eu2196 N2225 2.600 . S
Eu2196 N2231 2.562 . S
Eu2196 O2240 2.462 . S
Eu2196 O2241 2.373 . S
Eu2196 O2243 2.432 . S
Eu2196 O2244 2.291 . S
Eu2196 O2248 2.335 . S
Eu2196 O2251 2.372 . S
Eu2196 C2260 2.787 . S
C2197 N2198 1.365 . S
C2197 C2200 1.405 . S
C2197 C2204 1.448 . S
N2198 C2197 1.365 . S
N2198 C2201 1.319 . S
N2198 Eu2207 2.600 . S
C2199 C2201 1.397 . S
C2199 C2202 1.367 . S
C2199 H2219 0.931 . S
C2200 C2197 1.405 . S
C2200 C2202 1.403 . S
C2200 C2206 1.439 . S
C2201 N2198 1.319 . S
C2201 C2199 1.397 . S
C2201 H2212 0.930 . S
C2202 C2199 1.367 . S
C2202 C2200 1.403 . S
C2202 H2223 0.929 . S
C2203 C2204 1.430 . S
C2203 C2205 1.387 . S
C2203 C2209 1.404 . S
C2204 C2197 1.448 . S
C2204 C2203 1.430 . S
C2204 N2208 1.351 . S
C2205 C2203 1.387 . S
C2205 C2206 1.374 . S
C2205 H2220 0.931 . S
C2206 C2200 1.439 . S
C2206 C2205 1.374 . S
C2206 H2221 0.931 . S
Eu2207 N2198 2.600 . S
Eu2207 N2208 2.562 . S
Eu2207 O2242 2.335 . S
Eu2207 O2245 2.372 . S
Eu2207 O2246 2.462 . S
Eu2207 O2247 2.373 . S
Eu2207 O2249 2.432 . S
Eu2207 O2250 2.291 . S
Eu2207 C2271 2.787 . S
N2208 C2204 1.351 . S
N2208 Eu2207 2.562 . S
N2208 C2210 1.325 . S
C2209 C2203 1.404 . S
C2209 C2211 1.366 . S
C2209 H2217 0.930 . S
C2210 N2208 1.325 . S
C2210 C2211 1.416 . S
C2210 H2216 0.929 . S
C2211 C2209 1.366 . S
C2211 C2210 1.416 . S
C2211 H2213 0.930 . S
H2212 C2201 0.930 . S
H2213 C2211 0.930 . S
H2214 C2229 0.930 . S
H2215 C2236 0.930 . S
H2216 C2210 0.929 . S
H2217 C2209 0.930 . S
H2218 C2232 0.929 . S
H2219 C2199 0.931 . S
H2220 C2205 0.931 . S
H2221 C2206 0.931 . S
H2222 C2227 0.931 . S
H2223 C2202 0.929 . S
H2224 C2235 0.930 . S
N2225 Eu2196 2.600 . S
N2225 C2226 1.365 . S
N2225 C2229 1.319 . S
C2226 N2225 1.365 . S
C2226 C2228 1.405 . S
C2226 C2234 1.448 . S
C2227 H2222 0.931 . S
C2227 C2229 1.397 . S
C2227 C2230 1.367 . S
C2228 C2226 1.405 . S
C2228 C2230 1.403 . S
C2228 C2261 1.439 . S
C2229 H2214 0.930 . S
C2229 N2225 1.319 . S
C2229 C2227 1.397 . S
C2230 C2227 1.367 . S
C2230 C2228 1.403 . S
C2230 H2237 0.929 . S
N2231 Eu2196 2.562 . S
N2231 C2232 1.325 . S
N2231 C2234 1.351 . S
C2232 H2218 0.929 . S
C2232 N2231 1.325 . S
C2232 C2236 1.416 . S
C2233 C2234 1.430 . S
C2233 C2235 1.404 . S
C2233 C2262 1.387 . S
C2234 C2226 1.448 . S
C2234 N2231 1.351 . S
C2234 C2233 1.430 . S
C2235 H2224 0.930 . S
C2235 C2233 1.404 . S
C2235 C2236 1.366 . S
C2236 H2215 0.930 . S
C2236 C2232 1.416 . S
C2236 C2235 1.366 . S
H2237 C2230 0.929 . S
H2238 C2261 0.931 . S
H2239 C2262 0.931 . S
O2240 Eu2196 2.462 . S
O2240 C2260 1.252 . S
O2241 Eu2196 2.373 . S
O2241 C2252 1.249 . S
O2242 Eu2207 2.335 . S
O2242 C2252 1.264 . S
O2243 Eu2196 2.432 . S
O2243 C2260 1.268 . S
O2244 Eu2196 2.291 . S
O2244 C2259 1.255 . S
O2245 Eu2207 2.372 . S
O2245 C2259 1.257 . S
O2246 Eu2207 2.462 . S
O2246 C2271 1.252 . S
O2247 Eu2207 2.373 . S
O2247 C2263 1.249 . S
O2248 Eu2196 2.335 . S
O2248 C2263 1.264 . S
O2249 Eu2207 2.432 . S
O2249 C2271 1.268 . S
O2250 Eu2207 2.291 . S
O2250 C2270 1.255 . S
O2251 Eu2196 2.372 . S
O2251 C2270 1.257 . S
C2252 O2241 1.249 . S
C2252 O2242 1.264 . S
C2253 C2256 1.382 . S
C2253 C2258 1.390 . S
C2253 C2260 1.506 . S
C2254 C2255 1.398 . S
C2254 C2258 1.392 . S
C2255 C2254 1.398 . S
C2255 C2257 1.372 . S
C2255 H2272 0.931 . S
C2256 C2253 1.382 . S
C2256 C2257 1.390 . S
C2256 H2273 0.931 . S
C2257 C2255 1.372 . S
C2257 C2256 1.390 . S
C2257 H2274 0.929 . S
C2258 C2253 1.390 . S
C2258 C2254 1.392 . S
C2258 H2275 0.930 . S
C2259 O2244 1.255 . S
C2259 O2245 1.257 . S
C2260 Eu2196 2.787 . S
C2260 O2240 1.252 . S
C2260 O2243 1.268 . S
C2260 C2253 1.506 . S
C2261 C2228 1.439 . S
C2261 H2238 0.931 . S
C2261 C2262 1.374 . S
C2262 C2233 1.387 . S
C2262 H2239 0.931 . S
C2262 C2261 1.374 . S
C2263 O2247 1.249 . S
C2263 O2248 1.264 . S
C2264 C2267 1.382 . S
C2264 C2268 1.390 . S
C2264 C2271 1.506 . S
C2265 C2266 1.398 . S
C2265 C2268 1.392 . S
C2266 C2265 1.398 . S
C2266 C2269 1.372 . S
C2266 H2276 0.931 . S
C2267 C2264 1.382 . S
C2267 C2269 1.390 . S
C2267 H2277 0.931 . S
C2268 C2264 1.390 . S
C2268 C2265 1.392 . S
C2268 H2278 0.930 . S
C2269 C2266 1.372 . S
C2269 C2267 1.390 . S
C2269 H2279 0.929 . S
C2270 O2250 1.255 . S
C2270 O2251 1.257 . S
C2271 Eu2207 2.787 . S
C2271 O2246 1.252 . S
C2271 O2249 1.268 . S
C2271 C2264 1.506 . S
H2272 C2255 0.931 . S
H2273 C2256 0.931 . S
H2274 C2257 0.929 . S
H2275 C2258 0.930 . S
H2276 C2266 0.931 . S
H2277 C2267 0.931 . S
H2278 C2268 0.930 . S
H2279 C2269 0.929 . S
Eu2280 N2309 2.600 1_545 S
Eu2280 N2315 2.562 1_545 S
Eu2280 O2324 2.462 . S
Eu2280 O2325 2.373 1_545 S
Eu2280 O2327 2.432 . S
Eu2280 O2328 2.291 . S
Eu2280 O2332 2.335 . S
Eu2280 O2335 2.372 . S
Eu2280 C2344 2.787 . S
C2281 N2282 1.365 . S
C2281 C2284 1.405 . S
C2281 C2288 1.448 . S
N2282 C2281 1.365 . S
N2282 C2285 1.319 . S
N2282 Eu2291 2.600 . S
C2283 C2285 1.397 . S
C2283 C2286 1.367 . S
C2283 H2303 0.931 . S
C2284 C2281 1.405 . S
C2284 C2286 1.403 . S
C2284 C2290 1.439 . S
C2285 N2282 1.319 . S
C2285 C2283 1.397 . S
C2285 H2296 0.930 . S
C2286 C2283 1.367 . S
C2286 C2284 1.403 . S
C2286 H2307 0.929 . S
C2287 C2288 1.430 . S
C2287 C2289 1.387 . S
C2287 C2293 1.404 . S
C2288 C2281 1.448 . S
C2288 C2287 1.430 . S
C2288 N2292 1.351 . S
C2289 C2287 1.387 . S
C2289 C2290 1.374 . S
C2289 H2304 0.931 . S
C2290 C2284 1.439 . S
C2290 C2289 1.374 . S
C2290 H2305 0.931 . S
Eu2291 N2282 2.600 . S
Eu2291 N2292 2.562 . S
Eu2291 O2326 2.335 1_545 S
Eu2291 O2329 2.372 . S
Eu2291 O2330 2.462 . S
Eu2291 O2331 2.373 . S
Eu2291 O2333 2.432 . S
Eu2291 O2334 2.291 . S
Eu2291 C2355 2.787 . S
N2292 C2288 1.351 . S
N2292 Eu2291 2.562 . S
N2292 C2294 1.325 . S
C2293 C2287 1.404 . S
C2293 C2295 1.366 . S
C2293 H2301 0.930 . S
C2294 N2292 1.325 . S
C2294 C2295 1.416 . S
C2294 H2300 0.929 . S
C2295 C2293 1.366 . S
C2295 C2294 1.416 . S
C2295 H2297 0.930 . S
H2296 C2285 0.930 . S
H2297 C2295 0.930 . S
H2298 C2313 0.878 1_545 S
H2299 C2320 0.930 . S
H2300 C2294 0.929 . S
H2301 C2293 0.930 . S
H2302 C2316 0.971 . S
H2303 C2283 0.931 . S
H2304 C2289 0.931 . S
H2305 C2290 0.931 . S
H2306 C2311 0.931 . S
H2307 C2286 0.929 . S
H2308 C2319 0.930 . S
N2309 Eu2280 2.600 1_565 S
N2309 C2310 1.365 . S
N2309 C2313 1.318 . S
C2310 N2309 1.365 . S
C2310 C2312 1.405 . S
C2310 C2318 1.448 . S
C2311 H2306 0.931 . S
C2311 C2313 1.451 . S
C2311 C2314 1.367 . S
C2312 C2310 1.405 . S
C2312 C2314 1.403 . S
C2312 C2345 1.439 . S
C2313 H2298 0.878 1_565 S
C2313 N2309 1.318 . S
C2313 C2311 1.451 . S
C2314 C2311 1.367 . S
C2314 C2312 1.403 . S
C2314 H2321 0.929 . S
N2315 Eu2280 2.562 1_565 S
N2315 C2316 1.325 . S
N2315 C2318 1.351 . S
C2316 H2302 0.971 . S
C2316 N2315 1.325 . S
C2316 C2320 1.416 . S
C2317 C2318 1.430 . S
C2317 C2319 1.404 . S
C2317 C2346 1.387 . S
C2318 C2310 1.448 . S
C2318 N2315 1.351 . S
C2318 C2317 1.430 . S
C2319 H2308 0.930 . S
C2319 C2317 1.404 . S
C2319 C2320 1.366 . S
C2320 H2299 0.930 . S
C2320 C2316 1.416 . S
C2320 C2319 1.366 . S
H2321 C2314 0.929 . S
H2322 C2345 0.931 . S
H2323 C2346 0.931 . S
O2324 Eu2280 2.462 . S
O2324 C2344 1.252 . S
O2325 Eu2280 2.373 1_565 S
O2325 C2336 1.249 . S
O2326 Eu2291 2.335 1_565 S
O2326 C2336 1.264 . S
O2327 Eu2280 2.432 . S
O2327 C2344 1.268 . S
O2328 Eu2280 2.291 . S
O2328 C2343 1.255 . S
O2329 Eu2291 2.372 . S
O2329 C2343 1.257 . S
O2330 Eu2291 2.462 . S
O2330 C2355 1.252 . S
O2331 Eu2291 2.373 . S
O2331 C2347 1.249 . S
O2332 Eu2280 2.335 . S
O2332 C2347 1.264 . S
O2333 Eu2291 2.432 . S
O2333 C2355 1.268 . S
O2334 Eu2291 2.291 . S
O2334 C2354 1.255 . S
O2335 Eu2280 2.372 . S
O2335 C2354 1.257 . S
C2336 O2325 1.249 . S
C2336 O2326 1.264 . S
C2337 C2340 1.382 . S
C2337 C2342 1.390 . S
C2337 C2344 1.506 . S
C2338 C2339 1.398 . S
C2338 C2342 1.392 . S
C2339 C2338 1.398 . S
C2339 C2341 1.372 . S
C2339 H2356 0.931 . S
C2340 C2337 1.382 . S
C2340 C2341 1.390 . S
C2340 H2357 0.931 . S
C2341 C2339 1.372 . S
C2341 C2340 1.390 . S
C2341 H2358 0.929 . S
C2342 C2337 1.390 . S
C2342 C2338 1.392 . S
C2342 H2359 0.930 . S
C2343 O2328 1.255 . S
C2343 O2329 1.257 . S
C2344 Eu2280 2.787 . S
C2344 O2324 1.252 . S
C2344 O2327 1.268 . S
C2344 C2337 1.506 . S
C2345 C2312 1.439 . S
C2345 H2322 0.931 . S
C2345 C2346 1.374 . S
C2346 C2317 1.387 . S
C2346 H2323 0.931 . S
C2346 C2345 1.374 . S
C2347 O2331 1.249 . S
C2347 O2332 1.264 . S
C2348 C2351 1.382 . S
C2348 C2352 1.390 . S
C2348 C2355 1.506 1_565 S
C2349 C2350 1.398 . S
C2349 C2352 1.392 . S
C2350 C2349 1.398 . S
C2350 C2353 1.372 . S
C2350 H2360 0.931 . S
C2351 C2348 1.382 . S
C2351 C2353 1.390 . S
C2351 H2361 0.931 . S
C2352 C2348 1.390 . S
C2352 C2349 1.392 . S
C2352 H2362 0.930 . S
C2353 C2350 1.372 . S
C2353 C2351 1.390 . S
C2353 H2363 0.929 . S
C2354 O2334 1.255 . S
C2354 O2335 1.257 . S
C2355 Eu2291 2.787 . S
C2355 O2330 1.252 . S
C2355 O2333 1.268 . S
C2355 C2348 1.506 1_545 S
H2356 C2339 0.931 . S
H2357 C2340 0.931 . S
H2358 C2341 0.929 . S
H2359 C2342 0.930 . S
H2360 C2350 0.931 . S
H2361 C2351 0.931 . S
H2362 C2352 0.930 . S
H2363 C2353 0.929 . S
Eu2364 N2393 2.600 . S
Eu2364 N2399 2.562 . S
Eu2364 O2408 2.462 . S
Eu2364 O2409 2.373 . S
Eu2364 O2411 2.432 . S
Eu2364 O2412 2.291 . S
Eu2364 O2416 2.335 . S
Eu2364 O2419 2.372 . S
Eu2364 C2428 2.787 . S
C2365 N2366 1.365 . S
C2365 C2368 1.405 . S
C2365 C2372 1.448 . S
N2366 C2365 1.365 . S
N2366 C2369 1.319 . S
N2366 Eu2375 2.600 . S
C2367 C2369 1.397 . S
C2367 C2370 1.367 . S
C2367 H2387 0.931 . S
C2368 C2365 1.405 . S
C2368 C2370 1.403 . S
C2368 C2374 1.439 . S
C2369 N2366 1.319 . S
C2369 C2367 1.397 . S
C2369 H2380 0.930 . S
C2370 C2367 1.367 . S
C2370 C2368 1.403 . S
C2370 H2391 0.929 . S
C2371 C2372 1.430 . S
C2371 C2373 1.387 . S
C2371 C2377 1.404 . S
C2372 C2365 1.448 . S
C2372 C2371 1.430 . S
C2372 N2376 1.351 . S
C2373 C2371 1.387 . S
C2373 C2374 1.374 . S
C2373 H2388 0.931 . S
C2374 C2368 1.439 . S
C2374 C2373 1.374 . S
C2374 H2389 0.931 . S
Eu2375 N2366 2.600 . S
Eu2375 N2376 2.562 . S
Eu2375 O2410 2.335 . S
Eu2375 O2413 2.372 . S
Eu2375 O2414 2.462 . S
Eu2375 O2415 2.373 . S
Eu2375 O2417 2.432 . S
Eu2375 O2418 2.291 . S
Eu2375 C2439 2.787 . S
N2376 C2372 1.351 . S
N2376 Eu2375 2.562 . S
N2376 C2378 1.325 . S
C2377 C2371 1.404 . S
C2377 C2379 1.366 . S
C2377 H2385 0.930 . S
C2378 N2376 1.325 . S
C2378 C2379 1.416 . S
C2378 H2384 0.929 . S
C2379 C2377 1.366 . S
C2379 C2378 1.416 . S
C2379 H2381 0.930 . S
H2380 C2369 0.930 . S
H2381 C2379 0.930 . S
H2382 C2397 0.930 . S
H2383 C2404 0.930 . S
H2384 C2378 0.929 . S
H2385 C2377 0.930 . S
H2386 C2400 0.929 . S
H2387 C2367 0.931 . S
H2388 C2373 0.931 . S
H2389 C2374 0.931 . S
H2390 C2395 0.931 . S
H2391 C2370 0.929 . S
H2392 C2403 0.930 . S
N2393 Eu2364 2.600 . S
N2393 C2394 1.365 . S
N2393 C2397 1.319 . S
C2394 N2393 1.365 . S
C2394 C2396 1.405 . S
C2394 C2402 1.448 . S
C2395 H2390 0.931 . S
C2395 C2397 1.397 . S
C2395 C2398 1.367 . S
C2396 C2394 1.405 . S
C2396 C2398 1.403 . S
C2396 C2429 1.439 . S
C2397 H2382 0.930 . S
C2397 N2393 1.319 . S
C2397 C2395 1.397 . S
C2398 C2395 1.367 . S
C2398 C2396 1.403 . S
C2398 H2405 0.929 . S
N2399 Eu2364 2.562 . S
N2399 C2400 1.325 . S
N2399 C2402 1.351 . S
C2400 H2386 0.929 . S
C2400 N2399 1.325 . S
C2400 C2404 1.416 . S
C2401 C2402 1.430 . S
C2401 C2403 1.404 . S
C2401 C2430 1.387 . S
C2402 C2394 1.448 . S
C2402 N2399 1.351 . S
C2402 C2401 1.430 . S
C2403 H2392 0.930 . S
C2403 C2401 1.404 . S
C2403 C2404 1.366 . S
C2404 H2383 0.930 . S
C2404 C2400 1.416 . S
C2404 C2403 1.366 . S
H2405 C2398 0.929 . S
H2406 C2429 0.931 . S
H2407 C2430 0.931 . S
O2408 Eu2364 2.462 . S
O2408 C2428 1.252 . S
O2409 Eu2364 2.373 . S
O2409 C2420 1.249 . S
O2410 Eu2375 2.335 . S
O2410 C2420 1.264 . S
O2411 Eu2364 2.432 . S
O2411 C2428 1.268 . S
O2412 Eu2364 2.291 . S
O2412 C2427 1.255 . S
O2413 Eu2375 2.372 . S
O2413 C2427 1.257 . S
O2414 Eu2375 2.462 . S
O2414 C2439 1.252 . S
O2415 Eu2375 2.373 . S
O2415 C2431 1.249 . S
O2416 Eu2364 2.335 . S
O2416 C2431 1.264 . S
O2417 Eu2375 2.432 . S
O2417 C2439 1.268 . S
O2418 Eu2375 2.291 . S
O2418 C2438 1.255 . S
O2419 Eu2364 2.372 . S
O2419 C2438 1.257 . S
C2420 O2409 1.249 . S
C2420 O2410 1.264 . S
C2421 C2424 1.382 . S
C2421 C2426 1.390 . S
C2421 C2428 1.506 . S
C2422 C2423 1.398 . S
C2422 C2426 1.392 . S
C2423 C2422 1.398 . S
C2423 C2425 1.372 . S
C2423 H2440 0.931 . S
C2424 C2421 1.382 . S
C2424 C2425 1.390 . S
C2424 H2441 0.931 . S
C2425 C2423 1.372 . S
C2425 C2424 1.390 . S
C2425 H2442 0.929 . S
C2426 C2421 1.390 . S
C2426 C2422 1.392 . S
C2426 H2443 0.930 . S
C2427 O2412 1.255 . S
C2427 O2413 1.257 . S
C2428 Eu2364 2.787 . S
C2428 O2408 1.252 . S
C2428 O2411 1.268 . S
C2428 C2421 1.506 . S
C2429 C2396 1.439 . S
C2429 H2406 0.931 . S
C2429 C2430 1.374 . S
C2430 C2401 1.387 . S
C2430 H2407 0.931 . S
C2430 C2429 1.374 . S
C2431 O2415 1.249 . S
C2431 O2416 1.264 . S
C2432 C2435 1.382 . S
C2432 C2436 1.390 . S
C2432 C2439 1.506 . S
C2433 C2434 1.398 . S
C2433 C2436 1.392 . S
C2434 C2433 1.398 . S
C2434 C2437 1.372 . S
C2434 H2444 0.931 . S
C2435 C2432 1.382 . S
C2435 C2437 1.390 . S
C2435 H2445 0.931 . S
C2436 C2432 1.390 . S
C2436 C2433 1.392 . S
C2436 H2446 0.930 . S
C2437 C2434 1.372 . S
C2437 C2435 1.390 . S
C2437 H2447 0.929 . S
C2438 O2418 1.255 . S
C2438 O2419 1.257 . S
C2439 Eu2375 2.787 . S
C2439 O2414 1.252 . S
C2439 O2417 1.268 . S
C2439 C2432 1.506 . S
H2440 C2423 0.931 . S
H2441 C2424 0.931 . S
H2442 C2425 0.929 . S
H2443 C2426 0.930 . S
H2444 C2434 0.931 . S
H2445 C2435 0.931 . S
H2446 C2436 0.930 . S
H2447 C2437 0.929 . S
Eu2448 N2477 2.600 . S
Eu2448 N2483 2.562 . S
Eu2448 O2492 2.462 . S
Eu2448 O2493 2.373 1_565 S
Eu2448 O2495 2.432 . S
Eu2448 O2496 2.279 1_565 S
Eu2448 O2500 2.335 1_565 S
Eu2448 O2503 2.372 1_565 S
Eu2448 C2512 2.787 . S
C2449 N2450 1.365 1_455 S
C2449 C2452 1.405 1_455 S
C2449 C2456 1.448 . S
N2450 C2449 1.365 1_655 S
N2450 C2453 1.319 . S
N2450 Eu2459 2.600 1_655 S
C2451 C2453 1.397 . S
C2451 C2454 1.367 . S
C2451 H2471 0.931 . S
C2452 C2449 1.405 1_655 S
C2452 C2454 1.403 . S
C2452 C2458 1.439 1_655 S
C2453 N2450 1.319 . S
C2453 C2451 1.397 . S
C2453 H2464 0.930 . S
C2454 C2451 1.367 . S
C2454 C2452 1.403 . S
C2454 H2475 0.929 . S
C2455 C2456 1.430 . S
C2455 C2457 1.387 . S
C2455 C2461 1.404 . S
C2456 C2449 1.448 . S
C2456 C2455 1.430 . S
C2456 N2460 1.351 . S
C2457 C2455 1.387 . S
C2457 C2458 1.374 . S
C2457 H2472 0.931 . S
C2458 C2452 1.439 1_455 S
C2458 C2457 1.374 . S
C2458 H2473 0.931 1_455 S
Eu2459 N2450 2.600 1_455 S
Eu2459 N2460 2.562 . S
Eu2459 O2494 2.335 . S
Eu2459 O2497 2.372 1_455 S
Eu2459 O2498 2.462 . S
Eu2459 O2499 2.373 . S
Eu2459 O2501 2.432 1_455 S
Eu2459 O2502 2.291 . S
Eu2459 C2523 2.787 . S
N2460 C2456 1.351 . S
N2460 Eu2459 2.562 . S
N2460 C2462 1.325 . S
C2461 C2455 1.404 . S
C2461 C2463 1.366 . S
C2461 H2469 0.930 . S
C2462 N2460 1.325 . S
C2462 C2463 1.416 . S
C2462 H2468 0.929 . S
C2463 C2461 1.366 . S
C2463 C2462 1.416 . S
C2463 H2465 0.930 . S
H2464 C2453 0.930 . S
H2465 C2463 0.930 . S
H2466 C2481 0.895 1_545 S
H2467 C2488 0.930 . S
H2468 C2462 0.929 . S
H2469 C2461 0.930 . S
H2470 C2484 0.909 1_655 S
H2471 C2451 0.931 . S
H2472 C2457 0.931 . S
H2473 C2458 0.931 1_655 S
H2474 C2479 0.931 . S
H2475 C2454 0.929 . S
H2476 C2487 0.946 . S
N2477 Eu2448 2.600 . S
N2477 C2478 1.365 . S
N2477 C2481 1.319 . S
C2478 N2477 1.365 . S
C2478 C2480 1.405 . S
C2478 C2486 1.448 . S
C2479 H2474 0.931 . S
C2479 C2481 1.397 . S
C2479 C2482 1.367 . S
C2480 C2478 1.405 . S
C2480 C2482 1.403 . S
C2480 C2513 1.439 . S
C2481 H2466 0.895 1_565 S
C2481 N2477 1.319 . S
C2481 C2479 1.397 . S
C2482 C2479 1.367 . S
C2482 C2480 1.403 . S
C2482 H2489 0.929 . S
N2483 Eu2448 2.562 . S
N2483 C2484 1.355 . S
N2483 C2486 1.351 . S
C2484 H2470 0.909 1_455 S
C2484 N2483 1.355 . S
C2484 C2488 1.404 1_455 S
C2485 C2486 1.430 . S
C2485 C2487 1.361 1_455 S
C2485 C2514 1.387 . S
C2486 C2478 1.448 . S
C2486 N2483 1.351 . S
C2486 C2485 1.430 . S
C2487 H2476 0.946 . S
C2487 C2485 1.361 1_655 S
C2487 C2488 1.395 . S
C2488 H2467 0.930 . S
C2488 C2484 1.404 1_655 S
C2488 C2487 1.395 . S
H2489 C2482 0.929 . S
H2490 C2513 0.931 . S
H2491 C2514 0.931 . S
O2492 Eu2448 2.462 . S
O2492 C2512 1.252 . S
O2493 Eu2448 2.373 1_545 S
O2493 C2504 1.249 . S
O2494 Eu2459 2.335 . S
O2494 C2504 1.264 . S
O2495 Eu2448 2.432 . S
O2495 C2512 1.268 . S
O2496 Eu2448 2.279 1_545 S
O2496 C2511 1.277 1_455 S
O2497 Eu2459 2.372 1_655 S
O2497 C2511 1.257 . S
O2498 Eu2459 2.462 . S
O2498 C2523 1.252 . S
O2499 Eu2459 2.373 . S
O2499 C2515 1.249 . S
O2500 Eu2448 2.335 1_545 S
O2500 C2515 1.264 . S
O2501 Eu2459 2.432 1_655 S
O2501 C2523 1.268 1_655 S
O2502 Eu2459 2.291 . S
O2502 C2522 1.255 . S
O2503 Eu2448 2.372 1_545 S
O2503 C2522 1.257 . S
C2504 O2493 1.249 . S
C2504 O2494 1.264 . S
C2505 C2508 1.382 . S
C2505 C2510 1.390 . S
C2505 C2512 1.506 . S
C2506 C2507 1.398 . S
C2506 C2510 1.392 . S
C2507 C2506 1.398 . S
C2507 C2509 1.372 . S
C2507 H2524 0.931 . S
C2508 C2505 1.382 . S
C2508 C2509 1.390 . S
C2508 H2525 0.931 . S
C2509 C2507 1.372 . S
C2509 C2508 1.390 . S
C2509 H2526 0.929 . S
C2510 C2505 1.390 . S
C2510 C2506 1.392 . S
C2510 H2527 0.930 . S
C2511 O2496 1.277 1_655 S
C2511 O2497 1.257 . S
C2512 Eu2448 2.787 . S
C2512 O2492 1.252 . S
C2512 O2495 1.268 . S
C2512 C2505 1.506 . S
C2513 C2480 1.439 . S
C2513 H2490 0.931 . S
C2513 C2514 1.374 . S
C2514 C2485 1.387 . S
C2514 H2491 0.931 . S
C2514 C2513 1.374 . S
C2515 O2499 1.249 . S
C2515 O2500 1.264 . S
C2516 C2519 1.382 1_455 S
C2516 C2520 1.390 . S
C2516 C2523 1.506 . S
C2517 C2518 1.396 1_455 S
C2517 C2520 1.392 . S
C2518 C2517 1.396 1_655 S
C2518 C2521 1.374 . S
C2518 H2528 0.932 . S
C2519 C2516 1.382 1_655 S
C2519 C2521 1.390 . S
C2519 H2529 0.931 . S
C2520 C2516 1.390 . S
C2520 C2517 1.392 . S
C2520 H2530 0.930 . S
C2521 C2518 1.374 . S
C2521 C2519 1.390 . S
C2521 H2531 0.929 . S
C2522 O2502 1.255 . S
C2522 O2503 1.257 . S
C2523 Eu2459 2.787 . S
C2523 O2498 1.252 . S
C2523 O2501 1.268 1_455 S
C2523 C2516 1.506 . S
H2524 C2507 0.931 . S
H2525 C2508 0.931 . S
H2526 C2509 0.929 . S
H2527 C2510 0.930 . S
H2528 C2518 0.932 . S
H2529 C2519 0.931 . S
H2530 C2520 0.930 . S
H2531 C2521 0.929 . S
Eu2532 N2561 2.600 . S
Eu2532 N2567 2.562 . S
Eu2532 O2576 2.462 . S
Eu2532 O2577 2.373 . S
Eu2532 O2579 2.432 . S
Eu2532 O2580 2.291 . S
Eu2532 O2584 2.335 . S
Eu2532 O2587 2.372 . S
Eu2532 C2596 2.787 . S
C2533 N2534 1.365 . S
C2533 C2536 1.405 . S
C2533 C2540 1.448 . S
N2534 C2533 1.365 . S
N2534 C2537 1.319 . S
N2534 Eu2543 2.600 . S
C2535 C2537 1.397 . S
C2535 C2538 1.367 . S
C2535 H2555 0.931 . S
C2536 C2533 1.405 . S
C2536 C2538 1.403 . S
C2536 C2542 1.439 . S
C2537 N2534 1.319 . S
C2537 C2535 1.397 . S
C2537 H2548 0.930 . S
C2538 C2535 1.367 . S
C2538 C2536 1.403 . S
C2538 H2559 0.929 . S
C2539 C2540 1.430 . S
C2539 C2541 1.387 . S
C2539 C2545 1.404 . S
C2540 C2533 1.448 . S
C2540 C2539 1.430 . S
C2540 N2544 1.351 . S
C2541 C2539 1.387 . S
C2541 C2542 1.374 . S
C2541 H2556 0.931 . S
C2542 C2536 1.439 . S
C2542 C2541 1.374 . S
C2542 H2557 0.931 . S
Eu2543 N2534 2.600 . S
Eu2543 N2544 2.562 . S
Eu2543 O2578 2.335 . S
Eu2543 O2581 2.372 . S
Eu2543 O2582 2.462 . S
Eu2543 O2583 2.373 . S
Eu2543 O2585 2.432 . S
Eu2543 O2586 2.291 . S
Eu2543 C2607 2.787 . S
N2544 C2540 1.351 . S
N2544 Eu2543 2.562 . S
N2544 C2546 1.325 . S
C2545 C2539 1.404 . S
C2545 C2547 1.366 . S
C2545 H2553 0.930 . S
C2546 N2544 1.325 . S
C2546 C2547 1.416 . S
C2546 H2552 0.929 . S
C2547 C2545 1.366 . S
C2547 C2546 1.416 . S
C2547 H2549 0.930 . S
H2548 C2537 0.930 . S
H2549 C2547 0.930 . S
H2550 C2565 0.930 . S
H2551 C2572 0.930 . S
H2552 C2546 0.929 . S
H2553 C2545 0.930 . S
H2554 C2568 0.929 . S
H2555 C2535 0.931 . S
H2556 C2541 0.931 . S
H2557 C2542 0.931 . S
H2558 C2563 0.931 . S
H2559 C2538 0.929 . S
H2560 C2571 0.930 . S
N2561 Eu2532 2.600 . S
N2561 C2562 1.365 . S
N2561 C2565 1.319 . S
C2562 N2561 1.365 . S
C2562 C2564 1.405 . S
C2562 C2570 1.448 . S
C2563 H2558 0.931 . S
C2563 C2565 1.397 . S
C2563 C2566 1.367 . S
C2564 C2562 1.405 . S
C2564 C2566 1.403 . S
C2564 C2597 1.439 . S
C2565 H2550 0.930 . S
C2565 N2561 1.319 . S
C2565 C2563 1.397 . S
C2566 C2563 1.367 . S
C2566 C2564 1.403 . S
C2566 H2573 0.929 . S
N2567 Eu2532 2.562 . S
N2567 C2568 1.325 . S
N2567 C2570 1.351 . S
C2568 H2554 0.929 . S
C2568 N2567 1.325 . S
C2568 C2572 1.416 . S
C2569 C2570 1.430 . S
C2569 C2571 1.404 . S
C2569 C2598 1.387 . S
C2570 C2562 1.448 . S
C2570 N2567 1.351 . S
C2570 C2569 1.430 . S
C2571 H2560 0.930 . S
C2571 C2569 1.404 . S
C2571 C2572 1.366 . S
C2572 H2551 0.930 . S
C2572 C2568 1.416 . S
C2572 C2571 1.366 . S
H2573 C2566 0.929 . S
H2574 C2597 0.931 . S
H2575 C2598 0.931 . S
O2576 Eu2532 2.462 . S
O2576 C2596 1.252 . S
O2577 Eu2532 2.373 . S
O2577 C2588 1.249 . S
O2578 Eu2543 2.335 . S
O2578 C2588 1.264 . S
O2579 Eu2532 2.432 . S
O2579 C2596 1.268 . S
O2580 Eu2532 2.291 . S
O2580 C2595 1.255 . S
O2581 Eu2543 2.372 . S
O2581 C2595 1.257 . S
O2582 Eu2543 2.462 . S
O2582 C2607 1.252 . S
O2583 Eu2543 2.373 . S
O2583 C2599 1.249 . S
O2584 Eu2532 2.335 . S
O2584 C2599 1.264 . S
O2585 Eu2543 2.432 . S
O2585 C2607 1.268 . S
O2586 Eu2543 2.291 . S
O2586 C2606 1.255 . S
O2587 Eu2532 2.372 . S
O2587 C2606 1.257 . S
C2588 O2577 1.249 . S
C2588 O2578 1.264 . S
C2589 C2592 1.382 . S
C2589 C2594 1.390 . S
C2589 C2596 1.506 . S
C2590 C2591 1.398 . S
C2590 C2594 1.392 . S
C2591 C2590 1.398 . S
C2591 C2593 1.372 . S
C2591 H2608 0.931 . S
C2592 C2589 1.382 . S
C2592 C2593 1.390 . S
C2592 H2609 0.931 . S
C2593 C2591 1.372 . S
C2593 C2592 1.390 . S
C2593 H2610 0.929 . S
C2594 C2589 1.390 . S
C2594 C2590 1.392 . S
C2594 H2611 0.930 . S
C2595 O2580 1.255 . S
C2595 O2581 1.257 . S
C2596 Eu2532 2.787 . S
C2596 O2576 1.252 . S
C2596 O2579 1.268 . S
C2596 C2589 1.506 . S
C2597 C2564 1.439 . S
C2597 H2574 0.931 . S
C2597 C2598 1.374 . S
C2598 C2569 1.387 . S
C2598 H2575 0.931 . S
C2598 C2597 1.374 . S
C2599 O2583 1.249 . S
C2599 O2584 1.264 . S
C2600 C2603 1.382 . S
C2600 C2604 1.390 . S
C2600 C2607 1.506 . S
C2601 C2602 1.398 . S
C2601 C2604 1.392 . S
C2602 C2601 1.398 . S
C2602 C2605 1.372 . S
C2602 H2612 0.931 . S
C2603 C2600 1.382 . S
C2603 C2605 1.390 . S
C2603 H2613 0.931 . S
C2604 C2600 1.390 . S
C2604 C2601 1.392 . S
C2604 H2614 0.930 . S
C2605 C2602 1.372 . S
C2605 C2603 1.390 . S
C2605 H2615 0.929 . S
C2606 O2586 1.255 . S
C2606 O2587 1.257 . S
C2607 Eu2543 2.787 . S
C2607 O2582 1.252 . S
C2607 O2585 1.268 . S
C2607 C2600 1.506 . S
H2608 C2591 0.931 . S
H2609 C2592 0.931 . S
H2610 C2593 0.929 . S
H2611 C2594 0.930 . S
H2612 C2602 0.931 . S
H2613 C2603 0.931 . S
H2614 C2604 0.930 . S
H2615 C2605 0.929 . S
Eu2616 N2645 2.600 . S
Eu2616 N2651 2.562 . S
Eu2616 O2660 2.462 . S
Eu2616 O2661 2.373 1_556 S
Eu2616 O2663 2.432 . S
Eu2616 O2664 2.306 . S
Eu2616 O2668 2.335 1_556 S
Eu2616 O2671 2.372 1_556 S
Eu2616 C2680 2.787 . S
C2617 N2618 1.365 . S
C2617 C2620 1.405 . S
C2617 C2624 1.448 1_565 S
N2618 C2617 1.365 . S
N2618 C2621 1.319 . S
N2618 Eu2627 2.600 1_565 S
C2619 C2621 1.397 . S
C2619 C2622 1.367 . S
C2619 H2639 0.931 . S
C2620 C2617 1.405 . S
C2620 C2622 1.403 . S
C2620 C2626 1.439 . S
C2621 N2618 1.319 . S
C2621 C2619 1.397 . S
C2621 H2632 0.930 . S
C2622 C2619 1.367 . S
C2622 C2620 1.403 . S
C2622 H2643 0.929 . S
C2623 C2624 1.430 . S
C2623 C2625 1.387 . S
C2623 C2629 1.404 . S
C2624 C2617 1.448 1_545 S
C2624 C2623 1.430 . S
C2624 N2628 1.351 . S
C2625 C2623 1.387 . S
C2625 C2626 1.374 1_545 S
C2625 H2640 0.931 . S
C2626 C2620 1.439 . S
C2626 C2625 1.374 1_565 S
C2626 H2641 0.931 . S
Eu2627 N2618 2.600 1_545 S
Eu2627 N2628 2.562 . S
Eu2627 O2662 2.335 . S
Eu2627 O2665 2.372 1_545 S
Eu2627 O2666 2.462 . S
Eu2627 O2667 2.373 . S
Eu2627 O2669 2.432 1_545 S
Eu2627 O2670 2.291 . S
Eu2627 C2691 2.791 . S
N2628 C2624 1.351 . S
N2628 Eu2627 2.562 . S
N2628 C2630 1.325 . S
C2629 C2623 1.404 . S
C2629 C2631 1.366 . S
C2629 H2637 0.930 . S
C2630 N2628 1.325 . S
C2630 C2631 1.416 . S
C2630 H2636 0.929 . S
C2631 C2629 1.366 . S
C2631 C2630 1.416 . S
C2631 H2633 0.930 . S
H2632 C2621 0.930 . S
H2633 C2631 0.930 . S
H2634 C2649 0.915 1_554 S
H2635 C2656 0.930 . S
H2636 C2630 0.929 . S
H2637 C2629 0.930 . S
H2638 C2652 0.929 1_565 S
H2639 C2619 0.931 . S
H2640 C2625 0.931 . S
H2641 C2626 0.931 . S
H2642 C2647 0.931 . S
H2643 C2622 0.929 . S
H2644 C2655 0.930 1_565 S
N2645 Eu2616 2.600 . S
N2645 C2646 1.365 . S
N2645 C2649 1.319 . S
C2646 N2645 1.365 . S
C2646 C2648 1.405 . S
C2646 C2654 1.448 . S
C2647 H2642 0.931 . S
C2647 C2649 1.397 . S
C2647 C2650 1.367 . S
C2648 C2646 1.405 . S
C2648 C2650 1.403 . S
C2648 C2681 1.439 . S
C2649 H2634 0.915 1_556 S
C2649 N2645 1.319 . S
C2649 C2647 1.397 . S
C2650 C2647 1.367 . S
C2650 C2648 1.403 . S
C2650 H2657 0.929 . S
N2651 Eu2616 2.562 . S
N2651 C2652 1.325 . S
N2651 C2654 1.351 . S
C2652 H2638 0.929 1_545 S
C2652 N2651 1.325 . S
C2652 C2656 1.416 1_545 S
C2653 C2654 1.430 . S
C2653 C2655 1.404 . S
C2653 C2682 1.387 . S
C2654 C2646 1.448 . S
C2654 N2651 1.351 . S
C2654 C2653 1.430 . S
C2655 H2644 0.930 1_545 S
C2655 C2653 1.404 . S
C2655 C2656 1.366 1_545 S
C2656 H2635 0.930 . S
C2656 C2652 1.416 1_565 S
C2656 C2655 1.366 1_565 S
H2657 C2650 0.929 . S
H2658 C2681 0.931 . S
H2659 C2682 0.931 . S
O2660 Eu2616 2.462 . S
O2660 C2680 1.252 . S
O2661 Eu2616 2.373 1_554 S
O2661 C2672 1.249 . S
O2662 Eu2627 2.335 . S
O2662 C2672 1.264 . S
O2663 Eu2616 2.432 . S
O2663 C2680 1.268 . S
O2664 Eu2616 2.306 . S
O2664 C2679 1.228 1_546 S
O2665 Eu2627 2.372 1_565 S
O2665 C2679 1.257 . S
O2666 Eu2627 2.462 . S
O2666 C2691 1.272 . S
O2667 Eu2627 2.373 . S
O2667 C2683 1.249 . S
O2668 Eu2616 2.335 1_554 S
O2668 C2683 1.264 . S
O2669 Eu2627 2.432 1_565 S
O2669 C2691 1.253 1_565 S
O2670 Eu2627 2.291 . S
O2670 C2690 1.255 . S
O2671 Eu2616 2.372 1_554 S
O2671 C2690 1.257 . S
C2672 O2661 1.249 . S
C2672 O2662 1.264 . S
C2673 C2676 1.382 . S
C2673 C2678 1.390 . S
C2673 C2680 1.506 . S
C2674 C2675 1.398 . S
C2674 C2678 1.392 . S
C2675 C2674 1.398 . S
C2675 C2677 1.372 . S
C2675 H2692 0.931 . S
C2676 C2673 1.382 . S
C2676 C2677 1.390 . S
C2676 H2693 0.931 . S
C2677 C2675 1.372 . S
C2677 C2676 1.390 . S
C2677 H2694 0.929 . S
C2678 C2673 1.390 . S
C2678 C2674 1.392 . S
C2678 H2695 0.930 . S
C2679 O2664 1.228 1_564 S
C2679 O2665 1.257 . S
C2680 Eu2616 2.787 . S
C2680 O2660 1.252 . S
C2680 O2663 1.268 . S
C2680 C2673 1.506 . S
C2681 C2648 1.439 . S
C2681 H2658 0.931 . S
C2681 C2682 1.374 . S
C2682 C2653 1.387 . S
C2682 H2659 0.931 . S
C2682 C2681 1.374 . S
C2683 O2667 1.249 . S
C2683 O2668 1.264 . S
C2684 C2687 1.382 . S
C2684 C2688 1.390 1_565 S
C2684 C2691 1.501 1_565 S
C2685 C2686 1.398 1_545 S
C2685 C2688 1.392 . S
C2686 C2685 1.398 1_565 S
C2686 C2689 1.372 . S
C2686 H2696 0.931 . S
C2687 C2684 1.382 . S
C2687 C2689 1.390 . S
C2687 H2697 0.931 . S
C2688 C2684 1.390 1_545 S
C2688 C2685 1.392 . S
C2688 H2698 0.930 . S
C2689 C2686 1.372 . S
C2689 C2687 1.390 . S
C2689 H2699 0.929 . S
C2690 O2670 1.255 . S
C2690 O2671 1.257 . S
C2691 Eu2627 2.791 . S
C2691 O2666 1.272 . S
C2691 O2669 1.253 1_545 S
C2691 C2684 1.501 1_545 S
H2692 C2675 0.931 . S
H2693 C2676 0.931 . S
H2694 C2677 0.929 . S
H2695 C2678 0.930 . S
H2696 C2686 0.931 . S
H2697 C2687 0.931 . S
H2698 C2688 0.930 . S
H2699 C2689 0.929 . S
Eu2700 N2729 2.600 . S
Eu2700 N2735 2.562 . S
Eu2700 O2744 2.462 . S
Eu2700 O2745 2.373 . S
Eu2700 O2747 2.432 . S
Eu2700 O2748 2.291 . S
Eu2700 O2752 2.335 . S
Eu2700 O2755 2.372 . S
Eu2700 C2764 2.787 . S
C2701 N2702 1.365 . S
C2701 C2704 1.405 . S
C2701 C2708 1.448 . S
N2702 C2701 1.365 . S
N2702 C2705 1.319 . S
N2702 Eu2711 2.600 . S
C2703 C2705 1.397 . S
C2703 C2706 1.367 . S
C2703 H2723 0.931 . S
C2704 C2701 1.405 . S
C2704 C2706 1.403 . S
C2704 C2710 1.439 . S
C2705 N2702 1.319 . S
C2705 C2703 1.397 . S
C2705 H2716 0.930 . S
C2706 C2703 1.367 . S
C2706 C2704 1.403 . S
C2706 H2727 0.929 . S
C2707 C2708 1.430 . S
C2707 C2709 1.387 . S
C2707 C2713 1.404 . S
C2708 C2701 1.448 . S
C2708 C2707 1.430 . S
C2708 N2712 1.351 . S
C2709 C2707 1.387 . S
C2709 C2710 1.374 . S
C2709 H2724 0.931 . S
C2710 C2704 1.439 . S
C2710 C2709 1.374 . S
C2710 H2725 0.931 . S
Eu2711 N2702 2.600 . S
Eu2711 N2712 2.562 . S
Eu2711 O2746 2.335 . S
Eu2711 O2749 2.372 . S
Eu2711 O2750 2.462 . S
Eu2711 O2751 2.373 . S
Eu2711 O2753 2.432 . S
Eu2711 O2754 2.291 . S
Eu2711 C2775 2.787 . S
N2712 C2708 1.351 . S
N2712 Eu2711 2.562 . S
N2712 C2714 1.325 . S
C2713 C2707 1.404 . S
C2713 C2715 1.366 . S
C2713 H2721 0.930 . S
C2714 N2712 1.325 . S
C2714 C2715 1.416 . S
C2714 H2720 0.929 . S
C2715 C2713 1.366 . S
C2715 C2714 1.416 . S
C2715 H2717 0.930 . S
H2716 C2705 0.930 . S
H2717 C2715 0.930 . S
H2718 C2733 0.930 . S
H2719 C2740 0.930 . S
H2720 C2714 0.929 . S
H2721 C2713 0.930 . S
H2722 C2736 0.929 . S
H2723 C2703 0.931 . S
H2724 C2709 0.931 . S
H2725 C2710 0.931 . S
H2726 C2731 0.931 . S
H2727 C2706 0.929 . S
H2728 C2739 0.930 . S
N2729 Eu2700 2.600 . S
N2729 C2730 1.365 . S
N2729 C2733 1.319 . S
C2730 N2729 1.365 . S
C2730 C2732 1.405 . S
C2730 C2738 1.448 . S
C2731 H2726 0.931 . S
C2731 C2733 1.397 . S
C2731 C2734 1.367 . S
C2732 C2730 1.405 . S
C2732 C2734 1.403 . S
C2732 C2765 1.439 . S
C2733 H2718 0.930 . S
C2733 N2729 1.319 . S
C2733 C2731 1.397 . S
C2734 C2731 1.367 . S
C2734 C2732 1.403 . S
C2734 H2741 0.929 . S
N2735 Eu2700 2.562 . S
N2735 C2736 1.325 . S
N2735 C2738 1.351 . S
C2736 H2722 0.929 . S
C2736 N2735 1.325 . S
C2736 C2740 1.416 . S
C2737 C2738 1.430 . S
C2737 C2739 1.404 . S
C2737 C2766 1.387 . S
C2738 C2730 1.448 . S
C2738 N2735 1.351 . S
C2738 C2737 1.430 . S
C2739 H2728 0.930 . S
C2739 C2737 1.404 . S
C2739 C2740 1.366 . S
C2740 H2719 0.930 . S
C2740 C2736 1.416 . S
C2740 C2739 1.366 . S
H2741 C2734 0.929 . S
H2742 C2765 0.931 . S
H2743 C2766 0.931 . S
O2744 Eu2700 2.462 . S
O2744 C2764 1.252 . S
O2745 Eu2700 2.373 . S
O2745 C2756 1.249 . S
O2746 Eu2711 2.335 . S
O2746 C2756 1.264 . S
O2747 Eu2700 2.432 . S
O2747 C2764 1.268 . S
O2748 Eu2700 2.291 . S
O2748 C2763 1.255 . S
O2749 Eu2711 2.372 . S
O2749 C2763 1.257 . S
O2750 Eu2711 2.462 . S
O2750 C2775 1.252 . S
O2751 Eu2711 2.373 . S
O2751 C2767 1.249 . S
O2752 Eu2700 2.335 . S
O2752 C2767 1.264 . S
O2753 Eu2711 2.432 . S
O2753 C2775 1.268 . S
O2754 Eu2711 2.291 . S
O2754 C2774 1.255 . S
O2755 Eu2700 2.372 . S
O2755 C2774 1.257 . S
C2756 O2745 1.249 . S
C2756 O2746 1.264 . S
C2757 C2760 1.382 . S
C2757 C2762 1.390 . S
C2757 C2764 1.506 . S
C2758 C2759 1.398 . S
C2758 C2762 1.392 . S
C2759 C2758 1.398 . S
C2759 C2761 1.372 . S
C2759 H2776 0.931 . S
C2760 C2757 1.382 . S
C2760 C2761 1.390 . S
C2760 H2777 0.931 . S
C2761 C2759 1.372 . S
C2761 C2760 1.390 . S
C2761 H2778 0.929 . S
C2762 C2757 1.390 . S
C2762 C2758 1.392 . S
C2762 H2779 0.930 . S
C2763 O2748 1.255 . S
C2763 O2749 1.257 . S
C2764 Eu2700 2.787 . S
C2764 O2744 1.252 . S
C2764 O2747 1.268 . S
C2764 C2757 1.506 . S
C2765 C2732 1.439 . S
C2765 H2742 0.931 . S
C2765 C2766 1.374 . S
C2766 C2737 1.387 . S
C2766 H2743 0.931 . S
C2766 C2765 1.374 . S
C2767 O2751 1.249 . S
C2767 O2752 1.264 . S
C2768 C2771 1.382 . S
C2768 C2772 1.390 . S
C2768 C2775 1.506 . S
C2769 C2770 1.398 . S
C2769 C2772 1.392 . S
C2770 C2769 1.398 . S
C2770 C2773 1.372 . S
C2770 H2780 0.931 . S
C2771 C2768 1.382 . S
C2771 C2773 1.390 . S
C2771 H2781 0.931 . S
C2772 C2768 1.390 . S
C2772 C2769 1.392 . S
C2772 H2782 0.930 . S
C2773 C2770 1.372 . S
C2773 C2771 1.390 . S
C2773 H2783 0.929 . S
C2774 O2754 1.255 . S
C2774 O2755 1.257 . S
C2775 Eu2711 2.787 . S
C2775 O2750 1.252 . S
C2775 O2753 1.268 . S
C2775 C2768 1.506 . S
H2776 C2759 0.931 . S
H2777 C2760 0.931 . S
H2778 C2761 0.929 . S
H2779 C2762 0.930 . S
H2780 C2770 0.931 . S
H2781 C2771 0.931 . S
H2782 C2772 0.930 . S
H2783 C2773 0.929 . S
Eu2784 N2813 2.600 1_554 S
Eu2784 N2819 2.562 1_554 S
Eu2784 O2828 2.462 . S
Eu2784 O2829 2.373 1_554 S
Eu2784 O2831 2.432 . S
Eu2784 O2832 2.291 . S
Eu2784 O2836 2.335 . S
Eu2784 O2839 2.372 . S
Eu2784 C2848 2.787 . S
C2785 N2786 1.365 . S
C2785 C2788 1.405 . S
C2785 C2792 1.448 . S
N2786 C2785 1.365 . S
N2786 C2789 1.319 . S
N2786 Eu2795 2.600 . S
C2787 C2789 1.397 . S
C2787 C2790 1.367 . S
C2787 H2807 0.931 . S
C2788 C2785 1.405 . S
C2788 C2790 1.403 . S
C2788 C2794 1.439 . S
C2789 N2786 1.319 . S
C2789 C2787 1.397 . S
C2789 H2800 0.930 . S
C2790 C2787 1.367 . S
C2790 C2788 1.403 . S
C2790 H2811 0.929 . S
C2791 C2792 1.430 . S
C2791 C2793 1.387 . S
C2791 C2797 1.404 . S
C2792 C2785 1.448 . S
C2792 C2791 1.430 . S
C2792 N2796 1.351 . S
C2793 C2791 1.387 . S
C2793 C2794 1.374 . S
C2793 H2808 0.931 . S
C2794 C2788 1.439 . S
C2794 C2793 1.374 . S
C2794 H2809 0.931 . S
Eu2795 N2786 2.600 . S
Eu2795 N2796 2.562 . S
Eu2795 O2830 2.335 1_554 S
Eu2795 O2833 2.372 . S
Eu2795 O2834 2.462 . S
Eu2795 O2835 2.373 . S
Eu2795 O2837 2.432 . S
Eu2795 O2838 2.291 . S
Eu2795 C2859 2.787 . S
N2796 C2792 1.351 . S
N2796 Eu2795 2.562 . S
N2796 C2798 1.325 . S
C2797 C2791 1.404 . S
C2797 C2799 1.366 . S
C2797 H2805 0.930 . S
C2798 N2796 1.325 . S
C2798 C2799 1.416 . S
C2798 H2804 0.929 . S
C2799 C2797 1.366 . S
C2799 C2798 1.416 . S
C2799 H2801 0.930 . S
H2800 C2789 0.930 . S
H2801 C2799 0.930 . S
H2802 C2817 0.930 1_554 S
H2803 C2824 0.930 . S
H2804 C2798 0.929 . S
H2805 C2797 0.930 . S
H2806 C2820 0.893 1_554 S
H2807 C2787 0.931 . S
H2808 C2793 0.931 . S
H2809 C2794 0.931 . S
H2810 C2815 0.931 . S
H2811 C2790 0.929 . S
H2812 C2823 0.930 . S
N2813 Eu2784 2.600 1_556 S
N2813 C2814 1.365 . S
N2813 C2817 1.319 . S
C2814 N2813 1.365 . S
C2814 C2816 1.405 . S
C2814 C2822 1.448 . S
C2815 H2810 0.931 . S
C2815 C2817 1.397 . S
C2815 C2818 1.367 . S
C2816 C2814 1.405 . S
C2816 C2818 1.403 . S
C2816 C2849 1.439 . S
C2817 H2802 0.930 1_556 S
C2817 N2813 1.319 . S
C2817 C2815 1.397 . S
C2818 C2815 1.367 . S
C2818 C2816 1.403 . S
C2818 H2825 0.929 . S
N2819 Eu2784 2.562 1_556 S
N2819 C2820 1.325 . S
N2819 C2822 1.351 . S
C2820 H2806 0.893 1_556 S
C2820 N2819 1.325 . S
C2820 C2824 1.416 . S
C2821 C2822 1.430 . S
C2821 C2823 1.404 . S
C2821 C2850 1.387 . S
C2822 C2814 1.448 . S
C2822 N2819 1.351 . S
C2822 C2821 1.430 . S
C2823 H2812 0.930 . S
C2823 C2821 1.404 . S
C2823 C2824 1.366 . S
C2824 H2803 0.930 . S
C2824 C2820 1.416 . S
C2824 C2823 1.366 . S
H2825 C2818 0.929 . S
H2826 C2849 0.931 . S
H2827 C2850 0.931 . S
O2828 Eu2784 2.462 . S
O2828 C2848 1.252 . S
O2829 Eu2784 2.373 1_556 S
O2829 C2840 1.249 . S
O2830 Eu2795 2.335 1_556 S
O2830 C2840 1.264 . S
O2831 Eu2784 2.432 . S
O2831 C2848 1.268 . S
O2832 Eu2784 2.291 . S
O2832 C2847 1.255 . S
O2833 Eu2795 2.372 . S
O2833 C2847 1.257 . S
O2834 Eu2795 2.462 . S
O2834 C2859 1.252 . S
O2835 Eu2795 2.373 . S
O2835 C2851 1.249 . S
O2836 Eu2784 2.335 . S
O2836 C2851 1.264 . S
O2837 Eu2795 2.432 . S
O2837 C2859 1.268 . S
O2838 Eu2795 2.291 . S
O2838 C2858 1.255 . S
O2839 Eu2784 2.372 . S
O2839 C2858 1.257 . S
C2840 O2829 1.249 . S
C2840 O2830 1.264 . S
C2841 C2844 1.382 . S
C2841 C2846 1.390 . S
C2841 C2848 1.506 . S
C2842 C2843 1.398 . S
C2842 C2846 1.392 . S
C2843 C2842 1.398 . S
C2843 C2845 1.372 . S
C2843 H2860 0.931 . S
C2844 C2841 1.382 . S
C2844 C2845 1.390 . S
C2844 H2861 0.931 . S
C2845 C2843 1.372 . S
C2845 C2844 1.390 . S
C2845 H2862 0.929 . S
C2846 C2841 1.390 . S
C2846 C2842 1.392 . S
C2846 H2863 0.930 . S
C2847 O2832 1.255 . S
C2847 O2833 1.257 . S
C2848 Eu2784 2.787 . S
C2848 O2828 1.252 . S
C2848 O2831 1.268 . S
C2848 C2841 1.506 . S
C2849 C2816 1.439 . S
C2849 H2826 0.931 . S
C2849 C2850 1.374 . S
C2850 C2821 1.387 . S
C2850 H2827 0.931 . S
C2850 C2849 1.374 . S
C2851 O2835 1.249 . S
C2851 O2836 1.264 . S
C2852 C2855 1.382 . S
C2852 C2856 1.390 . S
C2852 C2859 1.506 1_556 S
C2853 C2854 1.398 . S
C2853 C2856 1.392 . S
C2854 C2853 1.398 . S
C2854 C2857 1.372 . S
C2854 H2864 0.931 . S
C2855 C2852 1.382 . S
C2855 C2857 1.390 . S
C2855 H2865 0.931 . S
C2856 C2852 1.390 . S
C2856 C2853 1.392 . S
C2856 H2866 0.930 . S
C2857 C2854 1.372 . S
C2857 C2855 1.390 . S
C2857 H2867 0.929 . S
C2858 O2838 1.255 . S
C2858 O2839 1.257 . S
C2859 Eu2795 2.787 . S
C2859 O2834 1.252 . S
C2859 O2837 1.268 . S
C2859 C2852 1.506 1_554 S
H2860 C2843 0.931 . S
H2861 C2844 0.931 . S
H2862 C2845 0.929 . S
H2863 C2846 0.930 . S
H2864 C2854 0.931 . S
H2865 C2855 0.931 . S
H2866 C2856 0.930 . S
H2867 C2857 0.929 . S
Eu2868 N2897 2.600 . S
Eu2868 N2903 2.562 . S
Eu2868 O2912 2.462 . S
Eu2868 O2913 2.373 . S
Eu2868 O2915 2.432 . S
Eu2868 O2916 2.291 . S
Eu2868 O2920 2.335 . S
Eu2868 O2923 2.372 . S
Eu2868 C2932 2.787 . S
C2869 N2870 1.365 . S
C2869 C2872 1.405 . S
C2869 C2876 1.448 . S
N2870 C2869 1.365 . S
N2870 C2873 1.319 . S
N2870 Eu2879 2.600 . S
C2871 C2873 1.397 . S
C2871 C2874 1.367 . S
C2871 H2891 0.931 . S
C2872 C2869 1.405 . S
C2872 C2874 1.403 . S
C2872 C2878 1.439 . S
C2873 N2870 1.319 . S
C2873 C2871 1.397 . S
C2873 H2884 0.930 . S
C2874 C2871 1.367 . S
C2874 C2872 1.403 . S
C2874 H2895 0.929 . S
C2875 C2876 1.430 . S
C2875 C2877 1.387 . S
C2875 C2881 1.404 . S
C2876 C2869 1.448 . S
C2876 C2875 1.430 . S
C2876 N2880 1.351 . S
C2877 C2875 1.387 . S
C2877 C2878 1.374 . S
C2877 H2892 0.931 . S
C2878 C2872 1.439 . S
C2878 C2877 1.374 . S
C2878 H2893 0.931 . S
Eu2879 N2870 2.600 . S
Eu2879 N2880 2.562 . S
Eu2879 O2914 2.335 . S
Eu2879 O2917 2.372 . S
Eu2879 O2918 2.462 . S
Eu2879 O2919 2.373 . S
Eu2879 O2921 2.432 . S
Eu2879 O2922 2.291 . S
Eu2879 C2943 2.787 . S
N2880 C2876 1.351 . S
N2880 Eu2879 2.562 . S
N2880 C2882 1.325 . S
C2881 C2875 1.404 . S
C2881 C2883 1.366 . S
C2881 H2889 0.930 . S
C2882 N2880 1.325 . S
C2882 C2883 1.416 . S
C2882 H2888 0.929 . S
C2883 C2881 1.366 . S
C2883 C2882 1.416 . S
C2883 H2885 0.930 . S
H2884 C2873 0.930 . S
H2885 C2883 0.930 . S
H2886 C2901 0.930 . S
H2887 C2908 0.930 . S
H2888 C2882 0.929 . S
H2889 C2881 0.930 . S
H2890 C2904 0.929 . S
H2891 C2871 0.931 . S
H2892 C2877 0.931 . S
H2893 C2878 0.931 . S
H2894 C2899 0.931 . S
H2895 C2874 0.929 . S
H2896 C2907 0.930 . S
N2897 Eu2868 2.600 . S
N2897 C2898 1.365 . S
N2897 C2901 1.319 . S
C2898 N2897 1.365 . S
C2898 C2900 1.405 . S
C2898 C2906 1.448 . S
C2899 H2894 0.931 . S
C2899 C2901 1.397 . S
C2899 C2902 1.367 . S
C2900 C2898 1.405 . S
C2900 C2902 1.403 . S
C2900 C2933 1.439 . S
C2901 H2886 0.930 . S
C2901 N2897 1.319 . S
C2901 C2899 1.397 . S
C2902 C2899 1.367 . S
C2902 C2900 1.403 . S
C2902 H2909 0.929 . S
N2903 Eu2868 2.562 . S
N2903 C2904 1.325 . S
N2903 C2906 1.351 . S
C2904 H2890 0.929 . S
C2904 N2903 1.325 . S
C2904 C2908 1.416 . S
C2905 C2906 1.430 . S
C2905 C2907 1.404 . S
C2905 C2934 1.387 . S
C2906 C2898 1.448 . S
C2906 N2903 1.351 . S
C2906 C2905 1.430 . S
C2907 H2896 0.930 . S
C2907 C2905 1.404 . S
C2907 C2908 1.366 . S
C2908 H2887 0.930 . S
C2908 C2904 1.416 . S
C2908 C2907 1.366 . S
H2909 C2902 0.929 . S
H2910 C2933 0.931 . S
H2911 C2934 0.931 . S
O2912 Eu2868 2.462 . S
O2912 C2932 1.252 . S
O2913 Eu2868 2.373 . S
O2913 C2924 1.249 . S
O2914 Eu2879 2.335 . S
O2914 C2924 1.264 . S
O2915 Eu2868 2.432 . S
O2915 C2932 1.268 . S
O2916 Eu2868 2.291 . S
O2916 C2931 1.255 . S
O2917 Eu2879 2.372 . S
O2917 C2931 1.257 . S
O2918 Eu2879 2.462 . S
O2918 C2943 1.252 . S
O2919 Eu2879 2.373 . S
O2919 C2935 1.249 . S
O2920 Eu2868 2.335 . S
O2920 C2935 1.264 . S
O2921 Eu2879 2.432 . S
O2921 C2943 1.268 . S
O2922 Eu2879 2.291 . S
O2922 C2942 1.255 . S
O2923 Eu2868 2.372 . S
O2923 C2942 1.257 . S
C2924 O2913 1.249 . S
C2924 O2914 1.264 . S
C2925 C2928 1.382 . S
C2925 C2930 1.390 . S
C2925 C2932 1.506 . S
C2926 C2927 1.398 . S
C2926 C2930 1.392 . S
C2927 C2926 1.398 . S
C2927 C2929 1.372 . S
C2927 H2944 0.931 . S
C2928 C2925 1.382 . S
C2928 C2929 1.390 . S
C2928 H2945 0.931 . S
C2929 C2927 1.372 . S
C2929 C2928 1.390 . S
C2929 H2946 0.929 . S
C2930 C2925 1.390 . S
C2930 C2926 1.392 . S
C2930 H2947 0.930 . S
C2931 O2916 1.255 . S
C2931 O2917 1.257 . S
C2932 Eu2868 2.787 . S
C2932 O2912 1.252 . S
C2932 O2915 1.268 . S
C2932 C2925 1.506 . S
C2933 C2900 1.439 . S
C2933 H2910 0.931 . S
C2933 C2934 1.374 . S
C2934 C2905 1.387 . S
C2934 H2911 0.931 . S
C2934 C2933 1.374 . S
C2935 O2919 1.249 . S
C2935 O2920 1.264 . S
C2936 C2939 1.382 . S
C2936 C2940 1.390 . S
C2936 C2943 1.506 . S
C2937 C2938 1.398 . S
C2937 C2940 1.392 . S
C2938 C2937 1.398 . S
C2938 C2941 1.372 . S
C2938 H2948 0.931 . S
C2939 C2936 1.382 . S
C2939 C2941 1.390 . S
C2939 H2949 0.931 . S
C2940 C2936 1.390 . S
C2940 C2937 1.392 . S
C2940 H2950 0.930 . S
C2941 C2938 1.372 . S
C2941 C2939 1.390 . S
C2941 H2951 0.929 . S
C2942 O2922 1.255 . S
C2942 O2923 1.257 . S
C2943 Eu2879 2.787 . S
C2943 O2918 1.252 . S
C2943 O2921 1.268 . S
C2943 C2936 1.506 . S
H2944 C2927 0.931 . S
H2945 C2928 0.931 . S
H2946 C2929 0.929 . S
H2947 C2930 0.930 . S
H2948 C2938 0.931 . S
H2949 C2939 0.931 . S
H2950 C2940 0.930 . S
H2951 C2941 0.929 . S
Eu2952 N2981 2.543 1_455 S
Eu2952 N2987 2.562 1_455 S
Eu2952 O2996 2.462 . S
Eu2952 O2997 2.373 1_455 S
Eu2952 O2999 2.432 . S
Eu2952 O3000 2.291 . S
Eu2952 O3004 2.335 . S
Eu2952 O3007 2.372 . S
Eu2952 C3016 2.787 . S
C2953 N2954 1.365 . S
C2953 C2956 1.405 . S
C2953 C2960 1.448 . S
N2954 C2953 1.365 . S
N2954 C2957 1.319 . S
N2954 Eu2963 2.600 . S
C2955 C2957 1.397 . S
C2955 C2958 1.367 . S
C2955 H2975 0.931 . S
C2956 C2953 1.405 . S
C2956 C2958 1.403 . S
C2956 C2962 1.439 . S
C2957 N2954 1.319 . S
C2957 C2955 1.397 . S
C2957 H2968 0.930 . S
C2958 C2955 1.367 . S
C2958 C2956 1.403 . S
C2958 H2979 0.929 . S
C2959 C2960 1.430 . S
C2959 C2961 1.387 . S
C2959 C2965 1.404 . S
C2960 C2953 1.448 . S
C2960 C2959 1.430 . S
C2960 N2964 1.351 . S
C2961 C2959 1.387 . S
C2961 C2962 1.374 . S
C2961 H2976 0.931 . S
C2962 C2956 1.439 . S
C2962 C2961 1.374 . S
C2962 H2977 0.931 . S
Eu2963 N2954 2.600 . S
Eu2963 N2964 2.562 . S
Eu2963 O2998 2.335 1_455 S
Eu2963 O3001 2.372 . S
Eu2963 O3002 2.462 . S
Eu2963 O3003 2.373 . S
Eu2963 O3005 2.432 . S
Eu2963 O3006 2.291 . S
Eu2963 C3027 2.787 . S
N2964 C2960 1.351 . S
N2964 Eu2963 2.562 . S
N2964 C2966 1.325 . S
C2965 C2959 1.404 . S
C2965 C2967 1.366 . S
C2965 H2973 0.930 . S
C2966 N2964 1.325 . S
C2966 C2967 1.416 . S
C2966 H2972 0.929 . S
C2967 C2965 1.366 . S
C2967 C2966 1.416 . S
C2967 H2969 0.930 . S
H2968 C2957 0.930 . S
H2969 C2967 0.930 . S
H2970 C2985 0.926 1_455 S
H2971 C2992 0.930 . S
H2972 C2966 0.929 . S
H2973 C2965 0.930 . S
H2974 C2988 0.929 1_455 S
H2975 C2955 0.931 . S
H2976 C2961 0.931 . S
H2977 C2962 0.931 . S
H2978 C2983 0.931 . S
H2979 C2958 0.929 . S
H2980 C2991 0.930 . S
N2981 Eu2952 2.543 1_655 S
N2981 C2982 1.419 . S
N2981 C2985 1.332 . S
C2982 N2981 1.419 . S
C2982 C2984 1.405 . S
C2982 C2990 1.448 . S
C2983 H2978 0.931 . S
C2983 C2985 1.401 . S
C2983 C2986 1.367 . S
C2984 C2982 1.405 . S
C2984 C2986 1.403 . S
C2984 C3017 1.439 . S
C2985 H2970 0.926 1_655 S
C2985 N2981 1.332 . S
C2985 C2983 1.401 . S
C2986 C2983 1.367 . S
C2986 C2984 1.403 . S
C2986 H2993 0.929 . S
N2987 Eu2952 2.562 1_655 S
N2987 C2988 1.325 . S
N2987 C2990 1.351 . S
C2988 H2974 0.929 1_655 S
C2988 N2987 1.325 . S
C2988 C2992 1.416 . S
C2989 C2990 1.430 . S
C2989 C2991 1.404 . S
C2989 C3018 1.387 . S
C2990 C2982 1.448 . S
C2990 N2987 1.351 . S
C2990 C2989 1.430 . S
C2991 H2980 0.930 . S
C2991 C2989 1.404 . S
C2991 C2992 1.366 . S
C2992 H2971 0.930 . S
C2992 C2988 1.416 . S
C2992 C2991 1.366 . S
H2993 C2986 0.929 . S
H2994 C3017 0.931 . S
H2995 C3018 0.931 . S
O2996 Eu2952 2.462 . S
O2996 C3016 1.252 . S
O2997 Eu2952 2.373 1_655 S
O2997 C3008 1.249 . S
O2998 Eu2963 2.335 1_655 S
O2998 C3008 1.264 . S
O2999 Eu2952 2.432 . S
O2999 C3016 1.268 . S
O3000 Eu2952 2.291 . S
O3000 C3015 1.255 . S
O3001 Eu2963 2.372 . S
O3001 C3015 1.257 . S
O3002 Eu2963 2.462 . S
O3002 C3027 1.252 . S
O3003 Eu2963 2.373 . S
O3003 C3019 1.249 . S
O3004 Eu2952 2.335 . S
O3004 C3019 1.264 . S
O3005 Eu2963 2.432 . S
O3005 C3027 1.268 . S
O3006 Eu2963 2.291 . S
O3006 C3026 1.255 . S
O3007 Eu2952 2.372 . S
O3007 C3026 1.257 . S
C3008 O2997 1.249 . S
C3008 O2998 1.264 . S
C3009 C3012 1.382 . S
C3009 C3014 1.390 . S
C3009 C3016 1.506 . S
C3010 C3011 1.398 . S
C3010 C3014 1.392 . S
C3011 C3010 1.398 . S
C3011 C3013 1.372 . S
C3011 H3028 0.931 . S
C3012 C3009 1.382 . S
C3012 C3013 1.390 . S
C3012 H3029 0.931 . S
C3013 C3011 1.372 . S
C3013 C3012 1.390 . S
C3013 H3030 0.929 . S
C3014 C3009 1.390 . S
C3014 C3010 1.392 . S
C3014 H3031 0.930 . S
C3015 O3000 1.255 . S
C3015 O3001 1.257 . S
C3016 Eu2952 2.787 . S
C3016 O2996 1.252 . S
C3016 O2999 1.268 . S
C3016 C3009 1.506 . S
C3017 C2984 1.439 . S
C3017 H2994 0.931 . S
C3017 C3018 1.374 . S
C3018 C2989 1.387 . S
C3018 H2995 0.931 . S
C3018 C3017 1.374 . S
C3019 O3003 1.249 . S
C3019 O3004 1.264 . S
C3020 C3023 1.382 . S
C3020 C3024 1.390 . S
C3020 C3027 1.506 1_655 S
C3021 C3022 1.398 . S
C3021 C3024 1.392 . S
C3022 C3021 1.398 . S
C3022 C3025 1.372 . S
C3022 H3032 0.931 . S
C3023 C3020 1.382 . S
C3023 C3025 1.390 . S
C3023 H3033 0.931 . S
C3024 C3020 1.390 . S
C3024 C3021 1.392 . S
C3024 H3034 0.930 . S
C3025 C3022 1.372 . S
C3025 C3023 1.390 . S
C3025 H3035 0.929 . S
C3026 O3006 1.255 . S
C3026 O3007 1.257 . S
C3027 Eu2963 2.787 . S
C3027 O3002 1.252 . S
C3027 O3005 1.268 . S
C3027 C3020 1.506 1_455 S
H3028 C3011 0.931 . S
H3029 C3012 0.931 . S
H3030 C3013 0.929 . S
H3031 C3014 0.930 . S
H3032 C3022 0.931 . S
H3033 C3023 0.931 . S
H3034 C3024 0.930 . S
H3035 C3025 0.929 . S
Eu3036 N3065 2.600 . S
Eu3036 N3071 2.562 . S
Eu3036 O3080 2.462 . S
Eu3036 O3081 2.373 . S
Eu3036 O3083 2.432 . S
Eu3036 O3084 2.291 . S
Eu3036 O3088 2.335 . S
Eu3036 O3091 2.372 . S
Eu3036 C3100 2.787 . S
C3037 N3038 1.365 . S
C3037 C3040 1.405 . S
C3037 C3044 1.448 . S
N3038 C3037 1.365 . S
N3038 C3041 1.319 . S
N3038 Eu3047 2.600 . S
C3039 C3041 1.397 . S
C3039 C3042 1.367 . S
C3039 H3059 0.931 . S
C3040 C3037 1.405 . S
C3040 C3042 1.403 . S
C3040 C3046 1.439 . S
C3041 N3038 1.319 . S
C3041 C3039 1.397 . S
C3041 H3052 0.930 . S
C3042 C3039 1.367 . S
C3042 C3040 1.403 . S
C3042 H3063 0.929 . S
C3043 C3044 1.430 . S
C3043 C3045 1.387 . S
C3043 C3049 1.404 . S
C3044 C3037 1.448 . S
C3044 C3043 1.430 . S
C3044 N3048 1.351 . S
C3045 C3043 1.387 . S
C3045 C3046 1.374 . S
C3045 H3060 0.931 . S
C3046 C3040 1.439 . S
C3046 C3045 1.374 . S
C3046 H3061 0.931 . S
Eu3047 N3038 2.600 . S
Eu3047 N3048 2.562 . S
Eu3047 O3082 2.335 . S
Eu3047 O3085 2.372 . S
Eu3047 O3086 2.462 . S
Eu3047 O3087 2.373 . S
Eu3047 O3089 2.432 . S
Eu3047 O3090 2.291 . S
Eu3047 C3111 2.787 . S
N3048 C3044 1.351 . S
N3048 Eu3047 2.562 . S
N3048 C3050 1.325 . S
C3049 C3043 1.404 . S
C3049 C3051 1.366 . S
C3049 H3057 0.930 . S
C3050 N3048 1.325 . S
C3050 C3051 1.416 . S
C3050 H3056 0.929 . S
C3051 C3049 1.366 . S
C3051 C3050 1.416 . S
C3051 H3053 0.930 . S
H3052 C3041 0.930 . S
H3053 C3051 0.930 . S
H3054 C3069 0.930 . S
H3055 C3076 0.930 . S
H3056 C3050 0.929 . S
H3057 C3049 0.930 . S
H3058 C3072 0.929 . S
H3059 C3039 0.931 . S
H3060 C3045 0.931 . S
H3061 C3046 0.931 . S
H3062 C3067 0.931 . S
H3063 C3042 0.929 . S
H3064 C3075 0.930 . S
N3065 Eu3036 2.600 . S
N3065 C3066 1.365 . S
N3065 C3069 1.319 . S
C3066 N3065 1.365 . S
C3066 C3068 1.405 . S
C3066 C3074 1.448 . S
C3067 H3062 0.931 . S
C3067 C3069 1.397 . S
C3067 C3070 1.367 . S
C3068 C3066 1.405 . S
C3068 C3070 1.403 . S
C3068 C3101 1.439 . S
C3069 H3054 0.930 . S
C3069 N3065 1.319 . S
C3069 C3067 1.397 . S
C3070 C3067 1.367 . S
C3070 C3068 1.403 . S
C3070 H3077 0.929 . S
N3071 Eu3036 2.562 . S
N3071 C3072 1.325 . S
N3071 C3074 1.351 . S
C3072 H3058 0.929 . S
C3072 N3071 1.325 . S
C3072 C3076 1.416 . S
C3073 C3074 1.430 . S
C3073 C3075 1.404 . S
C3073 C3102 1.387 . S
C3074 C3066 1.448 . S
C3074 N3071 1.351 . S
C3074 C3073 1.430 . S
C3075 H3064 0.930 . S
C3075 C3073 1.404 . S
C3075 C3076 1.366 . S
C3076 H3055 0.930 . S
C3076 C3072 1.416 . S
C3076 C3075 1.366 . S
H3077 C3070 0.929 . S
H3078 C3101 0.931 . S
H3079 C3102 0.931 . S
O3080 Eu3036 2.462 . S
O3080 C3100 1.252 . S
O3081 Eu3036 2.373 . S
O3081 C3092 1.249 . S
O3082 Eu3047 2.335 . S
O3082 C3092 1.264 . S
O3083 Eu3036 2.432 . S
O3083 C3100 1.268 . S
O3084 Eu3036 2.291 . S
O3084 C3099 1.255 . S
O3085 Eu3047 2.372 . S
O3085 C3099 1.257 . S
O3086 Eu3047 2.462 . S
O3086 C3111 1.252 . S
O3087 Eu3047 2.373 . S
O3087 C3103 1.249 . S
O3088 Eu3036 2.335 . S
O3088 C3103 1.264 . S
O3089 Eu3047 2.432 . S
O3089 C3111 1.268 . S
O3090 Eu3047 2.291 . S
O3090 C3110 1.255 . S
O3091 Eu3036 2.372 . S
O3091 C3110 1.257 . S
C3092 O3081 1.249 . S
C3092 O3082 1.264 . S
C3093 C3096 1.382 . S
C3093 C3098 1.390 . S
C3093 C3100 1.506 . S
C3094 C3095 1.398 . S
C3094 C3098 1.392 . S
C3095 C3094 1.398 . S
C3095 C3097 1.372 . S
C3095 H3112 0.931 . S
C3096 C3093 1.382 . S
C3096 C3097 1.390 . S
C3096 H3113 0.931 . S
C3097 C3095 1.372 . S
C3097 C3096 1.390 . S
C3097 H3114 0.929 . S
C3098 C3093 1.390 . S
C3098 C3094 1.392 . S
C3098 H3115 0.930 . S
C3099 O3084 1.255 . S
C3099 O3085 1.257 . S
C3100 Eu3036 2.787 . S
C3100 O3080 1.252 . S
C3100 O3083 1.268 . S
C3100 C3093 1.506 . S
C3101 C3068 1.439 . S
C3101 H3078 0.931 . S
C3101 C3102 1.374 . S
C3102 C3073 1.387 . S
C3102 H3079 0.931 . S
C3102 C3101 1.374 . S
C3103 O3087 1.249 . S
C3103 O3088 1.264 . S
C3104 C3107 1.382 . S
C3104 C3108 1.390 . S
C3104 C3111 1.506 . S
C3105 C3106 1.398 . S
C3105 C3108 1.392 . S
C3106 C3105 1.398 . S
C3106 C3109 1.372 . S
C3106 H3116 0.931 . S
C3107 C3104 1.382 . S
C3107 C3109 1.390 . S
C3107 H3117 0.931 . S
C3108 C3104 1.390 . S
C3108 C3105 1.392 . S
C3108 H3118 0.930 . S
C3109 C3106 1.372 . S
C3109 C3107 1.390 . S
C3109 H3119 0.929 . S
C3110 O3090 1.255 . S
C3110 O3091 1.257 . S
C3111 Eu3047 2.787 . S
C3111 O3086 1.252 . S
C3111 O3089 1.268 . S
C3111 C3104 1.506 . S
H3112 C3095 0.931 . S
H3113 C3096 0.931 . S
H3114 C3097 0.929 . S
H3115 C3098 0.930 . S
H3116 C3106 0.931 . S
H3117 C3107 0.931 . S
H3118 C3108 0.930 . S
H3119 C3109 0.929 . S
Eu3120 N3149 2.600 . S
Eu3120 N3155 2.562 . S
Eu3120 O3164 2.462 . S
Eu3120 O3165 2.373 . S
Eu3120 O3167 2.432 . S
Eu3120 O3168 2.291 . S
Eu3120 O3172 2.335 . S
Eu3120 O3175 2.372 . S
Eu3120 C3184 2.787 . S
C3121 N3122 1.365 . S
C3121 C3124 1.405 . S
C3121 C3128 1.448 . S
N3122 C3121 1.365 . S
N3122 C3125 1.319 . S
N3122 Eu3131 2.600 . S
C3123 C3125 1.397 . S
C3123 C3126 1.367 . S
C3123 H3143 0.931 . S
C3124 C3121 1.405 . S
C3124 C3126 1.403 . S
C3124 C3130 1.439 . S
C3125 N3122 1.319 . S
C3125 C3123 1.397 . S
C3125 H3136 0.930 . S
C3126 C3123 1.367 . S
C3126 C3124 1.403 . S
C3126 H3147 0.929 . S
C3127 C3128 1.430 . S
C3127 C3129 1.387 . S
C3127 C3133 1.404 . S
C3128 C3121 1.448 . S
C3128 C3127 1.430 . S
C3128 N3132 1.351 . S
C3129 C3127 1.387 . S
C3129 C3130 1.374 . S
C3129 H3144 0.931 . S
C3130 C3124 1.439 . S
C3130 C3129 1.374 . S
C3130 H3145 0.931 . S
Eu3131 N3122 2.600 . S
Eu3131 N3132 2.562 . S
Eu3131 O3166 2.335 . S
Eu3131 O3169 2.372 . S
Eu3131 O3170 2.462 . S
Eu3131 O3171 2.373 . S
Eu3131 O3173 2.432 . S
Eu3131 O3174 2.291 . S
Eu3131 C3195 2.787 . S
N3132 C3128 1.351 . S
N3132 Eu3131 2.562 . S
N3132 C3134 1.325 . S
C3133 C3127 1.404 . S
C3133 C3135 1.366 . S
C3133 H3141 0.930 . S
C3134 N3132 1.325 . S
C3134 C3135 1.416 . S
C3134 H3140 0.929 . S
C3135 C3133 1.366 . S
C3135 C3134 1.416 . S
C3135 H3137 0.930 . S
H3136 C3125 0.930 . S
H3137 C3135 0.930 . S
H3138 C3153 0.930 . S
H3139 C3160 0.930 . S
H3140 C3134 0.929 . S
H3141 C3133 0.930 . S
H3142 C3156 0.929 . S
H3143 C3123 0.931 . S
H3144 C3129 0.931 . S
H3145 C3130 0.931 . S
H3146 C3151 0.931 . S
H3147 C3126 0.929 . S
H3148 C3159 0.930 . S
N3149 Eu3120 2.600 . S
N3149 C3150 1.365 . S
N3149 C3153 1.319 . S
C3150 N3149 1.365 . S
C3150 C3152 1.405 . S
C3150 C3158 1.448 . S
C3151 H3146 0.931 . S
C3151 C3153 1.397 . S
C3151 C3154 1.367 . S
C3152 C3150 1.405 . S
C3152 C3154 1.403 . S
C3152 C3185 1.439 . S
C3153 H3138 0.930 . S
C3153 N3149 1.319 . S
C3153 C3151 1.397 . S
C3154 C3151 1.367 . S
C3154 C3152 1.403 . S
C3154 H3161 0.929 . S
N3155 Eu3120 2.562 . S
N3155 C3156 1.325 . S
N3155 C3158 1.351 . S
C3156 H3142 0.929 . S
C3156 N3155 1.325 . S
C3156 C3160 1.416 . S
C3157 C3158 1.430 . S
C3157 C3159 1.404 . S
C3157 C3186 1.387 . S
C3158 C3150 1.448 . S
C3158 N3155 1.351 . S
C3158 C3157 1.430 . S
C3159 H3148 0.930 . S
C3159 C3157 1.404 . S
C3159 C3160 1.366 . S
C3160 H3139 0.930 . S
C3160 C3156 1.416 . S
C3160 C3159 1.366 . S
H3161 C3154 0.929 . S
H3162 C3185 0.931 . S
H3163 C3186 0.931 . S
O3164 Eu3120 2.462 . S
O3164 C3184 1.252 . S
O3165 Eu3120 2.373 . S
O3165 C3176 1.249 . S
O3166 Eu3131 2.335 . S
O3166 C3176 1.264 . S
O3167 Eu3120 2.432 . S
O3167 C3184 1.268 . S
O3168 Eu3120 2.291 . S
O3168 C3183 1.255 . S
O3169 Eu3131 2.372 . S
O3169 C3183 1.257 . S
O3170 Eu3131 2.462 . S
O3170 C3195 1.252 . S
O3171 Eu3131 2.373 . S
O3171 C3187 1.249 . S
O3172 Eu3120 2.335 . S
O3172 C3187 1.264 . S
O3173 Eu3131 2.432 . S
O3173 C3195 1.268 . S
O3174 Eu3131 2.291 . S
O3174 C3194 1.255 . S
O3175 Eu3120 2.372 . S
O3175 C3194 1.257 . S
C3176 O3165 1.249 . S
C3176 O3166 1.264 . S
C3177 C3180 1.382 . S
C3177 C3182 1.390 . S
C3177 C3184 1.506 . S
C3178 C3179 1.398 . S
C3178 C3182 1.392 . S
C3179 C3178 1.398 . S
C3179 C3181 1.372 . S
C3179 H3196 0.931 . S
C3180 C3177 1.382 . S
C3180 C3181 1.390 . S
C3180 H3197 0.931 . S
C3181 C3179 1.372 . S
C3181 C3180 1.390 . S
C3181 H3198 0.929 . S
C3182 C3177 1.390 . S
C3182 C3178 1.392 . S
C3182 H3199 0.930 . S
C3183 O3168 1.255 . S
C3183 O3169 1.257 . S
C3184 Eu3120 2.787 . S
C3184 O3164 1.252 . S
C3184 O3167 1.268 . S
C3184 C3177 1.506 . S
C3185 C3152 1.439 . S
C3185 H3162 0.931 . S
C3185 C3186 1.374 . S
C3186 C3157 1.387 . S
C3186 H3163 0.931 . S
C3186 C3185 1.374 . S
C3187 O3171 1.249 . S
C3187 O3172 1.264 . S
C3188 C3191 1.382 . S
C3188 C3192 1.390 . S
C3188 C3195 1.506 . S
C3189 C3190 1.398 . S
C3189 C3192 1.392 . S
C3190 C3189 1.398 . S
C3190 C3193 1.372 . S
C3190 H3200 0.931 . S
C3191 C3188 1.382 . S
C3191 C3193 1.390 . S
C3191 H3201 0.931 . S
C3192 C3188 1.390 . S
C3192 C3189 1.392 . S
C3192 H3202 0.930 . S
C3193 C3190 1.372 . S
C3193 C3191 1.390 . S
C3193 H3203 0.929 . S
C3194 O3174 1.255 . S
C3194 O3175 1.257 . S
C3195 Eu3131 2.787 . S
C3195 O3170 1.252 . S
C3195 O3173 1.268 . S
C3195 C3188 1.506 . S
H3196 C3179 0.931 . S
H3197 C3180 0.931 . S
H3198 C3181 0.929 . S
H3199 C3182 0.930 . S
H3200 C3190 0.931 . S
H3201 C3191 0.931 . S
H3202 C3192 0.930 . S
H3203 C3193 0.929 . S
Eu3204 N3233 2.600 . S
Eu3204 N3239 2.562 . S
Eu3204 O3248 2.462 . S
Eu3204 O3249 2.373 . S
Eu3204 O3251 2.432 . S
Eu3204 O3252 2.291 . S
Eu3204 O3256 2.335 . S
Eu3204 O3259 2.372 . S
Eu3204 C3268 2.787 . S
C3205 N3206 1.365 . S
C3205 C3208 1.405 . S
C3205 C3212 1.448 . S
N3206 C3205 1.365 . S
N3206 C3209 1.319 . S
N3206 Eu3215 2.600 . S
C3207 C3209 1.397 . S
C3207 C3210 1.367 . S
C3207 H3227 0.931 . S
C3208 C3205 1.405 . S
C3208 C3210 1.403 . S
C3208 C3214 1.439 . S
C3209 N3206 1.319 . S
C3209 C3207 1.397 . S
C3209 H3220 0.930 . S
C3210 C3207 1.367 . S
C3210 C3208 1.403 . S
C3210 H3231 0.929 . S
C3211 C3212 1.430 . S
C3211 C3213 1.387 . S
C3211 C3217 1.404 . S
C3212 C3205 1.448 . S
C3212 C3211 1.430 . S
C3212 N3216 1.351 . S
C3213 C3211 1.387 . S
C3213 C3214 1.374 . S
C3213 H3228 0.931 . S
C3214 C3208 1.439 . S
C3214 C3213 1.374 . S
C3214 H3229 0.931 . S
Eu3215 N3206 2.600 . S
Eu3215 N3216 2.562 . S
Eu3215 O3250 2.335 . S
Eu3215 O3253 2.372 . S
Eu3215 O3254 2.462 . S
Eu3215 O3255 2.373 . S
Eu3215 O3257 2.432 . S
Eu3215 O3258 2.291 . S
Eu3215 C3279 2.787 . S
N3216 C3212 1.351 . S
N3216 Eu3215 2.562 . S
N3216 C3218 1.325 . S
C3217 C3211 1.404 . S
C3217 C3219 1.366 . S
C3217 H3225 0.930 . S
C3218 N3216 1.325 . S
C3218 C3219 1.416 . S
C3218 H3224 0.929 . S
C3219 C3217 1.366 . S
C3219 C3218 1.416 . S
C3219 H3221 0.930 . S
H3220 C3209 0.930 . S
H3221 C3219 0.930 . S
H3222 C3237 0.930 . S
H3223 C3244 0.930 . S
H3224 C3218 0.929 . S
H3225 C3217 0.930 . S
H3226 C3240 0.929 . S
H3227 C3207 0.931 . S
H3228 C3213 0.931 . S
H3229 C3214 0.931 . S
H3230 C3235 0.931 . S
H3231 C3210 0.929 . S
H3232 C3243 0.930 . S
N3233 Eu3204 2.600 . S
N3233 C3234 1.365 . S
N3233 C3237 1.319 . S
C3234 N3233 1.365 . S
C3234 C3236 1.405 . S
C3234 C3242 1.448 . S
C3235 H3230 0.931 . S
C3235 C3237 1.397 . S
C3235 C3238 1.367 . S
C3236 C3234 1.405 . S
C3236 C3238 1.403 . S
C3236 C3269 1.439 . S
C3237 H3222 0.930 . S
C3237 N3233 1.319 . S
C3237 C3235 1.397 . S
C3238 C3235 1.367 . S
C3238 C3236 1.403 . S
C3238 H3245 0.929 . S
N3239 Eu3204 2.562 . S
N3239 C3240 1.325 . S
N3239 C3242 1.351 . S
C3240 H3226 0.929 . S
C3240 N3239 1.325 . S
C3240 C3244 1.416 . S
C3241 C3242 1.430 . S
C3241 C3243 1.404 . S
C3241 C3270 1.387 . S
C3242 C3234 1.448 . S
C3242 N3239 1.351 . S
C3242 C3241 1.430 . S
C3243 H3232 0.930 . S
C3243 C3241 1.404 . S
C3243 C3244 1.366 . S
C3244 H3223 0.930 . S
C3244 C3240 1.416 . S
C3244 C3243 1.366 . S
H3245 C3238 0.929 . S
H3246 C3269 0.931 . S
H3247 C3270 0.931 . S
O3248 Eu3204 2.462 . S
O3248 C3268 1.252 . S
O3249 Eu3204 2.373 . S
O3249 C3260 1.249 . S
O3250 Eu3215 2.335 . S
O3250 C3260 1.264 . S
O3251 Eu3204 2.432 . S
O3251 C3268 1.268 . S
O3252 Eu3204 2.291 . S
O3252 C3267 1.255 . S
O3253 Eu3215 2.372 . S
O3253 C3267 1.257 . S
O3254 Eu3215 2.462 . S
O3254 C3279 1.252 . S
O3255 Eu3215 2.373 . S
O3255 C3271 1.249 . S
O3256 Eu3204 2.335 . S
O3256 C3271 1.264 . S
O3257 Eu3215 2.432 . S
O3257 C3279 1.268 . S
O3258 Eu3215 2.291 . S
O3258 C3278 1.255 . S
O3259 Eu3204 2.372 . S
O3259 C3278 1.257 . S
C3260 O3249 1.249 . S
C3260 O3250 1.264 . S
C3261 C3264 1.382 . S
C3261 C3266 1.390 . S
C3261 C3268 1.506 . S
C3262 C3263 1.398 . S
C3262 C3266 1.392 . S
C3263 C3262 1.398 . S
C3263 C3265 1.372 . S
C3263 H3280 0.931 . S
C3264 C3261 1.382 . S
C3264 C3265 1.390 . S
C3264 H3281 0.931 . S
C3265 C3263 1.372 . S
C3265 C3264 1.390 . S
C3265 H3282 0.929 . S
C3266 C3261 1.390 . S
C3266 C3262 1.392 . S
C3266 H3283 0.930 . S
C3267 O3252 1.255 . S
C3267 O3253 1.257 . S
C3268 Eu3204 2.787 . S
C3268 O3248 1.252 . S
C3268 O3251 1.268 . S
C3268 C3261 1.506 . S
C3269 C3236 1.439 . S
C3269 H3246 0.931 . S
C3269 C3270 1.374 . S
C3270 C3241 1.387 . S
C3270 H3247 0.931 . S
C3270 C3269 1.374 . S
C3271 O3255 1.249 . S
C3271 O3256 1.264 . S
C3272 C3275 1.382 . S
C3272 C3276 1.390 . S
C3272 C3279 1.506 . S
C3273 C3274 1.398 . S
C3273 C3276 1.392 . S
C3274 C3273 1.398 . S
C3274 C3277 1.372 . S
C3274 H3284 0.931 . S
C3275 C3272 1.382 . S
C3275 C3277 1.390 . S
C3275 H3285 0.931 . S
C3276 C3272 1.390 . S
C3276 C3273 1.392 . S
C3276 H3286 0.930 . S
C3277 C3274 1.372 . S
C3277 C3275 1.390 . S
C3277 H3287 0.929 . S
C3278 O3258 1.255 . S
C3278 O3259 1.257 . S
C3279 Eu3215 2.787 . S
C3279 O3254 1.252 . S
C3279 O3257 1.268 . S
C3279 C3272 1.506 . S
H3280 C3263 0.931 . S
H3281 C3264 0.931 . S
H3282 C3265 0.929 . S
H3283 C3266 0.930 . S
H3284 C3274 0.931 . S
H3285 C3275 0.931 . S
H3286 C3276 0.930 . S
H3287 C3277 0.929 . S
Eu3288 N3317 2.600 . S
Eu3288 N3323 2.562 . S
Eu3288 O3332 2.462 . S
Eu3288 O3333 2.373 . S
Eu3288 O3335 2.432 . S
Eu3288 O3336 2.291 . S
Eu3288 O3340 2.335 . S
Eu3288 O3343 2.372 . S
Eu3288 C3352 2.787 . S
C3289 N3290 1.365 . S
C3289 C3292 1.405 . S
C3289 C3296 1.448 . S
N3290 C3289 1.365 . S
N3290 C3293 1.319 . S
N3290 Eu3299 2.600 . S
C3291 C3293 1.397 . S
C3291 C3294 1.367 . S
C3291 H3311 0.931 . S
C3292 C3289 1.405 . S
C3292 C3294 1.403 . S
C3292 C3298 1.439 . S
C3293 N3290 1.319 . S
C3293 C3291 1.397 . S
C3293 H3304 0.930 . S
C3294 C3291 1.367 . S
C3294 C3292 1.403 . S
C3294 H3315 0.929 . S
C3295 C3296 1.430 . S
C3295 C3297 1.387 . S
C3295 C3301 1.404 . S
C3296 C3289 1.448 . S
C3296 C3295 1.430 . S
C3296 N3300 1.351 . S
C3297 C3295 1.387 . S
C3297 C3298 1.374 . S
C3297 H3312 0.931 . S
C3298 C3292 1.439 . S
C3298 C3297 1.374 . S
C3298 H3313 0.931 . S
Eu3299 N3290 2.600 . S
Eu3299 N3300 2.562 . S
Eu3299 O3334 2.335 . S
Eu3299 O3337 2.372 . S
Eu3299 O3338 2.462 . S
Eu3299 O3339 2.373 . S
Eu3299 O3341 2.432 . S
Eu3299 O3342 2.291 . S
Eu3299 C3363 2.787 . S
N3300 C3296 1.351 . S
N3300 Eu3299 2.562 . S
N3300 C3302 1.325 . S
C3301 C3295 1.404 . S
C3301 C3303 1.366 . S
C3301 H3309 0.930 . S
C3302 N3300 1.325 . S
C3302 C3303 1.416 . S
C3302 H3308 0.929 . S
C3303 C3301 1.366 . S
C3303 C3302 1.416 . S
C3303 H3305 0.930 . S
H3304 C3293 0.930 . S
H3305 C3303 0.930 . S
H3306 C3321 0.930 . S
H3307 C3328 0.930 . S
H3308 C3302 0.929 . S
H3309 C3301 0.930 . S
H3310 C3324 0.929 . S
H3311 C3291 0.931 . S
H3312 C3297 0.931 . S
H3313 C3298 0.931 . S
H3314 C3319 0.931 . S
H3315 C3294 0.929 . S
H3316 C3327 0.930 . S
N3317 Eu3288 2.600 . S
N3317 C3318 1.365 . S
N3317 C3321 1.319 . S
C3318 N3317 1.365 . S
C3318 C3320 1.405 . S
C3318 C3326 1.448 . S
C3319 H3314 0.931 . S
C3319 C3321 1.397 . S
C3319 C3322 1.367 . S
C3320 C3318 1.405 . S
C3320 C3322 1.403 . S
C3320 C3353 1.439 . S
C3321 H3306 0.930 . S
C3321 N3317 1.319 . S
C3321 C3319 1.397 . S
C3322 C3319 1.367 . S
C3322 C3320 1.403 . S
C3322 H3329 0.929 . S
N3323 Eu3288 2.562 . S
N3323 C3324 1.325 . S
N3323 C3326 1.351 . S
C3324 H3310 0.929 . S
C3324 N3323 1.325 . S
C3324 C3328 1.416 . S
C3325 C3326 1.430 . S
C3325 C3327 1.404 . S
C3325 C3354 1.387 . S
C3326 C3318 1.448 . S
C3326 N3323 1.351 . S
C3326 C3325 1.430 . S
C3327 H3316 0.930 . S
C3327 C3325 1.404 . S
C3327 C3328 1.366 . S
C3328 H3307 0.930 . S
C3328 C3324 1.416 . S
C3328 C3327 1.366 . S
H3329 C3322 0.929 . S
H3330 C3353 0.931 . S
H3331 C3354 0.931 . S
O3332 Eu3288 2.462 . S
O3332 C3352 1.252 . S
O3333 Eu3288 2.373 . S
O3333 C3344 1.249 . S
O3334 Eu3299 2.335 . S
O3334 C3344 1.264 . S
O3335 Eu3288 2.432 . S
O3335 C3352 1.268 . S
O3336 Eu3288 2.291 . S
O3336 C3351 1.255 . S
O3337 Eu3299 2.372 . S
O3337 C3351 1.257 . S
O3338 Eu3299 2.462 . S
O3338 C3363 1.252 . S
O3339 Eu3299 2.373 . S
O3339 C3355 1.249 . S
O3340 Eu3288 2.335 . S
O3340 C3355 1.264 . S
O3341 Eu3299 2.432 . S
O3341 C3363 1.268 . S
O3342 Eu3299 2.291 . S
O3342 C3362 1.255 . S
O3343 Eu3288 2.372 . S
O3343 C3362 1.257 . S
C3344 O3333 1.249 . S
C3344 O3334 1.264 . S
C3345 C3348 1.382 . S
C3345 C3350 1.390 . S
C3345 C3352 1.506 . S
C3346 C3347 1.398 . S
C3346 C3350 1.392 . S
C3347 C3346 1.398 . S
C3347 C3349 1.372 . S
C3347 H3364 0.931 . S
C3348 C3345 1.382 . S
C3348 C3349 1.390 . S
C3348 H3365 0.931 . S
C3349 C3347 1.372 . S
C3349 C3348 1.390 . S
C3349 H3366 0.929 . S
C3350 C3345 1.390 . S
C3350 C3346 1.392 . S
C3350 H3367 0.930 . S
C3351 O3336 1.255 . S
C3351 O3337 1.257 . S
C3352 Eu3288 2.787 . S
C3352 O3332 1.252 . S
C3352 O3335 1.268 . S
C3352 C3345 1.506 . S
C3353 C3320 1.439 . S
C3353 H3330 0.931 . S
C3353 C3354 1.374 . S
C3354 C3325 1.387 . S
C3354 H3331 0.931 . S
C3354 C3353 1.374 . S
C3355 O3339 1.249 . S
C3355 O3340 1.264 . S
C3356 C3359 1.382 . S
C3356 C3360 1.390 . S
C3356 C3363 1.506 . S
C3357 C3358 1.398 . S
C3357 C3360 1.392 . S
C3358 C3357 1.398 . S
C3358 C3361 1.372 . S
C3358 H3368 0.931 . S
C3359 C3356 1.382 . S
C3359 C3361 1.390 . S
C3359 H3369 0.931 . S
C3360 C3356 1.390 . S
C3360 C3357 1.392 . S
C3360 H3370 0.930 . S
C3361 C3358 1.372 . S
C3361 C3359 1.390 . S
C3361 H3371 0.929 . S
C3362 O3342 1.255 . S
C3362 O3343 1.257 . S
C3363 Eu3299 2.787 . S
C3363 O3338 1.252 . S
C3363 O3341 1.268 . S
C3363 C3356 1.506 . S
H3364 C3347 0.931 . S
H3365 C3348 0.931 . S
H3366 C3349 0.929 . S
H3367 C3350 0.930 . S
H3368 C3358 0.931 . S
H3369 C3359 0.931 . S
H3370 C3360 0.930 . S
H3371 C3361 0.929 . S
Eu3372 N3401 2.600 . S
Eu3372 N3407 2.562 . S
Eu3372 O3416 2.461 . S
Eu3372 O3417 2.373 1_655 S
Eu3372 O3419 2.431 . S
Eu3372 O3420 2.291 1_655 S
Eu3372 O3424 2.335 1_655 S
Eu3372 O3427 2.372 1_655 S
Eu3372 C3436 2.786 . S
C3373 N3374 1.365 . S
C3373 C3376 1.405 . S
C3373 C3380 1.448 1_556 S
N3374 C3373 1.365 . S
N3374 C3377 1.319 . S
N3374 Eu3383 2.600 1_556 S
C3375 C3377 1.397 . S
C3375 C3378 1.367 . S
C3375 H3395 0.931 . S
C3376 C3373 1.405 . S
C3376 C3378 1.403 . S
C3376 C3382 1.439 . S
C3377 N3374 1.319 . S
C3377 C3375 1.397 . S
C3377 H3388 0.930 . S
C3378 C3375 1.367 . S
C3378 C3376 1.403 . S
C3378 H3399 0.929 . S
C3379 C3380 1.430 . S
C3379 C3381 1.387 . S
C3379 C3385 1.404 . S
C3380 C3373 1.448 1_554 S
C3380 C3379 1.430 . S
C3380 N3384 1.351 . S
C3381 C3379 1.387 . S
C3381 C3382 1.374 1_554 S
C3381 H3396 0.931 . S
C3382 C3376 1.439 . S
C3382 C3381 1.374 1_556 S
C3382 H3397 0.931 . S
Eu3383 N3374 2.600 1_554 S
Eu3383 N3384 2.562 . S
Eu3383 O3418 2.335 . S
Eu3383 O3421 2.372 1_554 S
Eu3383 O3422 2.462 . S
Eu3383 O3423 2.373 . S
Eu3383 O3425 2.432 1_554 S
Eu3383 O3426 2.291 . S
Eu3383 C3447 2.787 . S
N3384 C3380 1.351 . S
N3384 Eu3383 2.562 . S
N3384 C3386 1.325 . S
C3385 C3379 1.404 . S
C3385 C3387 1.366 . S
C3385 H3393 0.930 . S
C3386 N3384 1.325 . S
C3386 C3387 1.416 . S
C3386 H3392 0.929 . S
C3387 C3385 1.366 . S
C3387 C3386 1.416 . S
C3387 H3389 0.930 . S
H3388 C3377 0.930 . S
H3389 C3387 0.930 . S
H3390 C3405 0.930 1_455 S
H3391 C3412 0.930 . S
H3392 C3386 0.929 . S
H3393 C3385 0.930 . S
H3394 C3408 0.929 1_556 S
H3395 C3375 0.931 . S
H3396 C3381 0.931 . S
H3397 C3382 0.931 . S
H3398 C3403 0.931 . S
H3399 C3378 0.929 . S
H3400 C3411 0.930 . S
N3401 Eu3372 2.600 . S
N3401 C3402 1.365 . S
N3401 C3405 1.319 . S
C3402 N3401 1.365 . S
C3402 C3404 1.405 . S
C3402 C3410 1.448 . S
C3403 H3398 0.931 . S
C3403 C3405 1.397 . S
C3403 C3406 1.367 . S
C3404 C3402 1.405 . S
C3404 C3406 1.403 . S
C3404 C3437 1.439 . S
C3405 H3390 0.930 1_655 S
C3405 N3401 1.319 . S
C3405 C3403 1.397 . S
C3406 C3403 1.367 . S
C3406 C3404 1.403 . S
C3406 H3413 0.929 . S
N3407 Eu3372 2.562 . S
N3407 C3408 1.325 . S
N3407 C3410 1.351 . S
C3408 H3394 0.929 1_554 S
C3408 N3407 1.325 . S
C3408 C3412 1.416 1_554 S
C3409 C3410 1.430 . S
C3409 C3411 1.404 . S
C3409 C3438 1.387 . S
C3410 C3402 1.448 . S
C3410 N3407 1.351 . S
C3410 C3409 1.430 . S
C3411 H3400 0.930 . S
C3411 C3409 1.404 . S
C3411 C3412 1.366 1_554 S
C3412 H3391 0.930 . S
C3412 C3408 1.416 1_556 S
C3412 C3411 1.366 1_556 S
H3413 C3406 0.929 . S
H3414 C3437 0.931 . S
H3415 C3438 0.931 . S
O3416 Eu3372 2.461 . S
O3416 C3436 1.252 . S
O3417 Eu3372 2.373 1_455 S
O3417 C3428 1.249 . S
O3418 Eu3383 2.335 . S
O3418 C3428 1.264 . S
O3419 Eu3372 2.431 . S
O3419 C3436 1.268 . S
O3420 Eu3372 2.291 1_455 S
O3420 C3435 1.255 1_554 S
O3421 Eu3383 2.372 1_556 S
O3421 C3435 1.257 . S
O3422 Eu3383 2.462 . S
O3422 C3447 1.252 . S
O3423 Eu3383 2.373 . S
O3423 C3439 1.249 . S
O3424 Eu3372 2.335 1_455 S
O3424 C3439 1.264 . S
O3425 Eu3383 2.432 1_556 S
O3425 C3447 1.268 1_556 S
O3426 Eu3383 2.291 . S
O3426 C3446 1.255 . S
O3427 Eu3372 2.372 1_455 S
O3427 C3446 1.257 . S
C3428 O3417 1.249 . S
C3428 O3418 1.264 . S
C3429 C3432 1.382 . S
C3429 C3434 1.390 . S
C3429 C3436 1.506 . S
C3430 C3431 1.398 . S
C3430 C3434 1.392 . S
C3431 C3430 1.398 . S
C3431 C3433 1.372 . S
C3431 H3448 0.931 . S
C3432 C3429 1.382 . S
C3432 C3433 1.390 . S
C3432 H3449 0.931 . S
C3433 C3431 1.372 . S
C3433 C3432 1.390 . S
C3433 H3450 0.929 . S
C3434 C3429 1.390 . S
C3434 C3430 1.392 . S
C3434 H3451 0.930 . S
C3435 O3420 1.255 1_556 S
C3435 O3421 1.257 . S
C3436 Eu3372 2.786 . S
C3436 O3416 1.252 . S
C3436 O3419 1.268 . S
C3436 C3429 1.506 . S
C3437 C3404 1.439 . S
C3437 H3414 0.931 . S
C3437 C3438 1.374 . S
C3438 C3409 1.387 . S
C3438 H3415 0.931 . S
C3438 C3437 1.374 . S
C3439 O3423 1.249 . S
C3439 O3424 1.264 . S
C3440 C3443 1.382 . S
C3440 C3444 1.390 1_556 S
C3440 C3447 1.506 1_556 S
C3441 C3442 1.398 1_554 S
C3441 C3444 1.392 . S
C3442 C3441 1.398 1_556 S
C3442 C3445 1.372 . S
C3442 H3452 0.931 . S
C3443 C3440 1.382 . S
C3443 C3445 1.390 . S
C3443 H3453 0.931 . S
C3444 C3440 1.390 1_554 S
C3444 C3441 1.392 . S
C3444 H3454 0.930 . S
C3445 C3442 1.372 . S
C3445 C3443 1.390 . S
C3445 H3455 0.929 . S
C3446 O3426 1.255 . S
C3446 O3427 1.257 . S
C3447 Eu3383 2.787 . S
C3447 O3422 1.252 . S
C3447 O3425 1.268 1_554 S
C3447 C3440 1.506 1_554 S
H3448 C3431 0.931 . S
H3449 C3432 0.931 . S
H3450 C3433 0.929 . S
H3451 C3434 0.930 . S
H3452 C3442 0.931 . S
H3453 C3443 0.931 . S
H3454 C3444 0.930 . S
H3455 C3445 0.929 . S
H3456 C3474 0.951 . S
H3457 C3476 0.951 1_554 S
H3458 C3478 0.950 . S
H3459 C3479 0.950 . S
H3460 C3481 0.950 . S
H3461 C3484 0.950 . S
H3462 C3485 0.950 . S
H3463 C3487 0.950 . S
H3464 C3488 0.950 . S
H3465 C3489 0.951 . S
H3466 C3491 0.953 1_655 S
H3467 C3493 0.950 . S
H3468 C3494 0.950 . S
H3469 C3496 0.950 1_554 S
H3470 C3499 0.950 . S
H3471 C3500 0.950 . S
H3472 C3502 0.950 . S
H3473 C3503 0.950 . S
C3474 H3456 0.951 . S
C3474 C3475 1.366 1_455 S
C3474 C3476 1.388 . S
C3475 C3474 1.366 1_655 S
C3475 C3479 1.385 . S
C3476 H3457 0.951 1_556 S
C3476 C3474 1.388 . S
C3476 C3477 1.366 . S
C3477 C3476 1.366 . S
C3477 C3478 1.414 1_455 S
C3477 C3480 1.499 . S
C3478 H3458 0.950 . S
C3478 C3477 1.414 1_655 S
C3478 C3479 1.374 . S
C3479 H3459 0.950 . S
C3479 C3475 1.385 . S
C3479 C3478 1.374 . S
C3480 C3477 1.499 . S
C3480 C3481 1.373 1_455 S
C3480 C3482 1.389 . S
C3481 H3460 0.950 . S
C3481 C3480 1.373 1_655 S
C3481 C3497 1.377 . S
C3482 C3480 1.389 . S
C3482 C3483 1.524 . S
C3482 C3496 1.377 . S
C3483 C3482 1.524 . S
C3483 C3484 1.397 . S
C3483 C3488 1.363 1_556 S
C3484 H3461 0.950 . S
C3484 C3483 1.397 . S
C3484 C3485 1.334 . S
C3485 H3462 0.950 . S
C3485 C3484 1.334 . S
C3485 C3486 1.287 . S
C3486 C3485 1.287 . S
C3486 C3487 1.524 1_556 S
C3486 H3505 0.913 . S
C3487 H3463 0.950 . S
C3487 C3486 1.524 1_554 S
C3487 C3488 1.415 . S
C3488 H3464 0.950 . S
C3488 C3483 1.363 1_554 S
C3488 C3487 1.415 . S
C3489 H3465 0.951 . S
C3489 C3490 1.366 1_556 S
C3489 C3491 1.388 . S
C3490 C3489 1.366 1_554 S
C3490 C3494 1.385 . S
C3491 H3466 0.953 1_455 S
C3491 C3489 1.388 . S
C3491 C3492 1.366 1_556 S
C3492 C3491 1.366 1_554 S
C3492 C3493 1.414 . S
C3492 C3495 1.499 1_554 S
C3493 H3467 0.950 . S
C3493 C3492 1.414 . S
C3493 C3494 1.374 . S
C3494 H3468 0.950 . S
C3494 C3490 1.385 . S
C3494 C3493 1.374 . S
C3495 C3492 1.499 1_556 S
C3495 C3496 1.373 . S
C3495 C3497 1.389 1_455 S
C3496 H3469 0.950 1_556 S
C3496 C3482 1.377 . S
C3496 C3495 1.373 . S
C3497 C3481 1.377 . S
C3497 C3495 1.389 1_655 S
C3497 C3498 1.524 . S
C3498 C3497 1.524 . S
C3498 C3499 1.397 1_556 S
C3498 C3503 1.363 . S
C3499 H3470 0.950 . S
C3499 C3498 1.397 1_554 S
C3499 C3500 1.334 . S
C3500 H3471 0.950 . S
C3500 C3499 1.334 . S
C3500 C3501 1.287 1_554 S
C3501 C3500 1.287 1_556 S
C3501 C3502 1.524 . S
C3501 H3504 0.999 . S
C3502 H3472 0.950 . S
C3502 C3501 1.524 . S
C3502 C3503 1.415 . S
C3503 H3473 0.950 . S
C3503 C3498 1.363 . S
C3503 C3502 1.415 . S
H3504 C3501 0.999 . S
H3505 C3486 0.913 . S
H3506 C3524 0.951 . S
H3507 C3526 0.951 . S
H3508 C3528 0.950 . S
H3509 C3529 0.950 . S
H3510 C3531 0.950 . S
H3511 C3534 0.950 . S
H3512 C3535 0.950 . S
H3513 C3537 0.950 . S
H3514 C3538 0.950 . S
H3515 C3539 0.951 . S
H3516 C3541 0.951 . S
H3517 C3543 0.950 . S
H3518 C3544 0.950 . S
H3519 C3546 0.950 . S
H3520 C3549 0.950 . S
H3521 C3550 0.950 . S
H3522 C3552 0.950 . S
H3523 C3553 0.950 . S
C3524 H3506 0.951 . S
C3524 C3525 1.366 . S
C3524 C3526 1.388 . S
C3525 C3524 1.366 . S
C3525 C3529 1.385 . S
C3526 H3507 0.951 . S
C3526 C3524 1.388 . S
C3526 C3527 1.366 . S
C3527 C3526 1.366 . S
C3527 C3528 1.414 . S
C3527 C3530 1.499 . S
C3528 H3508 0.950 . S
C3528 C3527 1.414 . S
C3528 C3529 1.374 . S
C3529 H3509 0.950 . S
C3529 C3525 1.385 . S
C3529 C3528 1.374 . S
C3530 C3527 1.499 . S
C3530 C3531 1.373 . S
C3530 C3532 1.389 . S
C3531 H3510 0.950 . S
C3531 C3530 1.373 . S
C3531 C3547 1.377 . S
C3532 C3530 1.389 . S
C3532 C3533 1.524 . S
C3532 C3546 1.377 . S
C3533 C3532 1.524 . S
C3533 C3534 1.397 . S
C3533 C3538 1.363 . S
C3534 H3511 0.950 . S
C3534 C3533 1.397 . S
C3534 C3535 1.334 . S
C3535 H3512 0.950 . S
C3535 C3534 1.334 . S
C3535 C3536 1.287 . S
C3536 C3535 1.287 . S
C3536 C3537 1.524 . S
C3536 H3555 0.913 . S
C3537 H3513 0.950 . S
C3537 C3536 1.524 . S
C3537 C3538 1.415 . S
C3538 H3514 0.950 . S
C3538 C3533 1.363 . S
C3538 C3537 1.415 . S
C3539 H3515 0.951 . S
C3539 C3540 1.366 . S
C3539 C3541 1.388 . S
C3540 C3539 1.366 . S
C3540 C3544 1.385 . S
C3541 H3516 0.951 . S
C3541 C3539 1.388 . S
C3541 C3542 1.366 . S
C3542 C3541 1.366 . S
C3542 C3543 1.414 . S
C3542 C3545 1.499 . S
C3543 H3517 0.950 . S
C3543 C3542 1.414 . S
C3543 C3544 1.374 . S
C3544 H3518 0.950 . S
C3544 C3540 1.385 . S
C3544 C3543 1.374 . S
C3545 C3542 1.499 . S
C3545 C3546 1.373 . S
C3545 C3547 1.389 . S
C3546 H3519 0.950 . S
C3546 C3532 1.377 . S
C3546 C3545 1.373 . S
C3547 C3531 1.377 . S
C3547 C3545 1.389 . S
C3547 C3548 1.524 . S
C3548 C3547 1.524 . S
C3548 C3549 1.397 . S
C3548 C3553 1.363 . S
C3549 H3520 0.950 . S
C3549 C3548 1.397 . S
C3549 C3550 1.334 . S
C3550 H3521 0.950 . S
C3550 C3549 1.334 . S
C3550 C3551 1.287 . S
C3551 C3550 1.287 . S
C3551 C3552 1.524 . S
C3551 H3554 0.999 . S
C3552 H3522 0.950 . S
C3552 C3551 1.524 . S
C3552 C3553 1.415 . S
C3553 H3523 0.950 . S
C3553 C3548 1.363 . S
C3553 C3552 1.415 . S
H3554 C3551 0.999 . S
H3555 C3536 0.913 . S
H3556 C3574 0.951 . S
H3557 C3576 0.951 . S
H3558 C3578 0.950 . S
H3559 C3579 0.950 . S
H3560 C3581 0.950 . S
H3561 C3584 0.950 . S
H3562 C3585 0.950 . S
H3563 C3587 0.950 . S
H3564 C3588 0.950 . S
H3565 C3589 0.951 . S
H3566 C3591 0.951 . S
H3567 C3593 0.950 . S
H3568 C3594 0.950 . S
H3569 C3596 0.950 . S
H3570 C3599 0.950 . S
H3571 C3600 0.950 . S
H3572 C3602 0.950 . S
H3573 C3603 0.950 . S
C3574 H3556 0.951 . S
C3574 C3575 1.366 . S
C3574 C3576 1.388 . S
C3575 C3574 1.366 . S
C3575 C3579 1.385 . S
C3576 H3557 0.951 . S
C3576 C3574 1.388 . S
C3576 C3577 1.366 . S
C3577 C3576 1.366 . S
C3577 C3578 1.414 . S
C3577 C3580 1.499 . S
C3578 H3558 0.950 . S
C3578 C3577 1.414 . S
C3578 C3579 1.374 . S
C3579 H3559 0.950 . S
C3579 C3575 1.385 . S
C3579 C3578 1.374 . S
C3580 C3577 1.499 . S
C3580 C3581 1.373 . S
C3580 C3582 1.389 . S
C3581 H3560 0.950 . S
C3581 C3580 1.373 . S
C3581 C3597 1.377 . S
C3582 C3580 1.389 . S
C3582 C3583 1.524 . S
C3582 C3596 1.377 . S
C3583 C3582 1.524 . S
C3583 C3584 1.397 . S
C3583 C3588 1.363 . S
C3584 H3561 0.950 . S
C3584 C3583 1.397 . S
C3584 C3585 1.334 . S
C3585 H3562 0.950 . S
C3585 C3584 1.334 . S
C3585 C3586 1.287 . S
C3586 C3585 1.287 . S
C3586 C3587 1.524 . S
C3586 H3605 0.913 . S
C3587 H3563 0.950 . S
C3587 C3586 1.524 . S
C3587 C3588 1.415 . S
C3588 H3564 0.950 . S
C3588 C3583 1.363 . S
C3588 C3587 1.415 . S
C3589 H3565 0.951 . S
C3589 C3590 1.366 . S
C3589 C3591 1.388 . S
C3590 C3589 1.366 . S
C3590 C3594 1.385 . S
C3591 H3566 0.951 . S
C3591 C3589 1.388 . S
C3591 C3592 1.366 . S
C3592 C3591 1.366 . S
C3592 C3593 1.414 . S
C3592 C3595 1.499 . S
C3593 H3567 0.950 . S
C3593 C3592 1.414 . S
C3593 C3594 1.374 . S
C3594 H3568 0.950 . S
C3594 C3590 1.385 . S
C3594 C3593 1.374 . S
C3595 C3592 1.499 . S
C3595 C3596 1.373 . S
C3595 C3597 1.389 . S
C3596 H3569 0.950 . S
C3596 C3582 1.377 . S
C3596 C3595 1.373 . S
C3597 C3581 1.377 . S
C3597 C3595 1.389 . S
C3597 C3598 1.524 . S
C3598 C3597 1.524 . S
C3598 C3599 1.397 . S
C3598 C3603 1.363 . S
C3599 H3570 0.950 . S
C3599 C3598 1.397 . S
C3599 C3600 1.334 . S
C3600 H3571 0.950 . S
C3600 C3599 1.334 . S
C3600 C3601 1.287 . S
C3601 C3600 1.287 . S
C3601 C3602 1.524 . S
C3601 H3604 0.999 . S
C3602 H3572 0.950 . S
C3602 C3601 1.524 . S
C3602 C3603 1.415 . S
C3603 H3573 0.950 . S
C3603 C3598 1.363 . S
C3603 C3602 1.415 . S
H3604 C3601 0.999 . S
H3605 C3586 0.913 . S
H3606 C3624 0.951 . S
H3607 C3626 0.951 . S
H3608 C3628 0.950 . S
H3609 C3629 0.950 . S
H3610 C3631 0.950 . S
H3611 C3634 0.950 . S
H3612 C3635 0.950 . S
H3613 C3637 0.950 . S
H3614 C3638 0.950 . S
H3615 C3639 0.951 . S
H3616 C3641 0.951 . S
H3617 C3643 0.950 . S
H3618 C3644 0.950 . S
H3619 C3646 0.950 . S
H3620 C3649 0.950 . S
H3621 C3650 0.950 . S
H3622 C3652 0.950 . S
H3623 C3653 0.950 . S
C3624 H3606 0.951 . S
C3624 C3625 1.366 . S
C3624 C3626 1.388 . S
C3625 C3624 1.366 . S
C3625 C3629 1.385 . S
C3626 H3607 0.951 . S
C3626 C3624 1.388 . S
C3626 C3627 1.366 . S
C3627 C3626 1.366 . S
C3627 C3628 1.414 . S
C3627 C3630 1.499 . S
C3628 H3608 0.950 . S
C3628 C3627 1.414 . S
C3628 C3629 1.374 . S
C3629 H3609 0.950 . S
C3629 C3625 1.385 . S
C3629 C3628 1.374 . S
C3630 C3627 1.499 . S
C3630 C3631 1.373 . S
C3630 C3632 1.389 . S
C3631 H3610 0.950 . S
C3631 C3630 1.373 . S
C3631 C3647 1.377 . S
C3632 C3630 1.389 . S
C3632 C3633 1.524 . S
C3632 C3646 1.377 . S
C3633 C3632 1.524 . S
C3633 C3634 1.397 . S
C3633 C3638 1.363 . S
C3634 H3611 0.950 . S
C3634 C3633 1.397 . S
C3634 C3635 1.334 . S
C3635 H3612 0.950 . S
C3635 C3634 1.334 . S
C3635 C3636 1.287 . S
C3636 C3635 1.287 . S
C3636 C3637 1.524 . S
C3636 H3655 0.913 . S
C3637 H3613 0.950 . S
C3637 C3636 1.524 . S
C3637 C3638 1.415 . S
C3638 H3614 0.950 . S
C3638 C3633 1.363 . S
C3638 C3637 1.415 . S
C3639 H3615 0.951 . S
C3639 C3640 1.366 . S
C3639 C3641 1.388 . S
C3640 C3639 1.366 . S
C3640 C3644 1.385 . S
C3641 H3616 0.951 . S
C3641 C3639 1.388 . S
C3641 C3642 1.366 . S
C3642 C3641 1.366 . S
C3642 C3643 1.414 . S
C3642 C3645 1.499 . S
C3643 H3617 0.950 . S
C3643 C3642 1.414 . S
C3643 C3644 1.374 . S
C3644 H3618 0.950 . S
C3644 C3640 1.385 . S
C3644 C3643 1.374 . S
C3645 C3642 1.499 . S
C3645 C3646 1.373 . S
C3645 C3647 1.389 . S
C3646 H3619 0.950 . S
C3646 C3632 1.377 . S
C3646 C3645 1.373 . S
C3647 C3631 1.377 . S
C3647 C3645 1.389 . S
C3647 C3648 1.524 . S
C3648 C3647 1.524 . S
C3648 C3649 1.397 . S
C3648 C3653 1.363 . S
C3649 H3620 0.950 . S
C3649 C3648 1.397 . S
C3649 C3650 1.334 . S
C3650 H3621 0.950 . S
C3650 C3649 1.334 . S
C3650 C3651 1.287 . S
C3651 C3650 1.287 . S
C3651 C3652 1.524 . S
C3651 H3654 0.999 . S
C3652 H3622 0.950 . S
C3652 C3651 1.524 . S
C3652 C3653 1.415 . S
C3653 H3623 0.950 . S
C3653 C3648 1.363 . S
C3653 C3652 1.415 . S
H3654 C3651 0.999 . S
H3655 C3636 0.913 . S
H3656 C3674 0.951 . S
H3657 C3676 0.951 . S
H3658 C3678 0.950 . S
H3659 C3679 0.950 . S
H3660 C3681 0.950 . S
H3661 C3684 0.950 . S
H3662 C3685 0.950 . S
H3663 C3687 0.950 . S
H3664 C3688 0.950 . S
H3665 C3689 0.951 . S
H3666 C3691 0.951 . S
H3667 C3693 0.950 . S
H3668 C3694 0.950 . S
H3669 C3696 0.950 . S
H3670 C3699 0.950 . S
H3671 C3700 0.950 . S
H3672 C3702 0.950 . S
H3673 C3703 0.950 1_455 S
C3674 H3656 0.951 . S
C3674 C3675 1.366 . S
C3674 C3676 1.388 . S
C3675 C3674 1.366 . S
C3675 C3679 1.385 . S
C3676 H3657 0.951 . S
C3676 C3674 1.388 . S
C3676 C3677 1.366 . S
C3677 C3676 1.366 . S
C3677 C3678 1.414 . S
C3677 C3680 1.499 . S
C3678 H3658 0.950 . S
C3678 C3677 1.414 . S
C3678 C3679 1.374 . S
C3679 H3659 0.950 . S
C3679 C3675 1.385 . S
C3679 C3678 1.374 . S
C3680 C3677 1.499 . S
C3680 C3681 1.373 . S
C3680 C3682 1.389 . S
C3681 H3660 0.950 . S
C3681 C3680 1.373 . S
C3681 C3697 1.377 . S
C3682 C3680 1.389 . S
C3682 C3683 1.524 . S
C3682 C3696 1.377 . S
C3683 C3682 1.524 . S
C3683 C3684 1.397 . S
C3683 C3688 1.363 . S
C3684 H3661 0.950 . S
C3684 C3683 1.397 . S
C3684 C3685 1.334 . S
C3685 H3662 0.950 . S
C3685 C3684 1.334 . S
C3685 C3686 1.287 . S
C3686 C3685 1.287 . S
C3686 C3687 1.524 . S
C3686 H3705 0.913 . S
C3687 H3663 0.950 . S
C3687 C3686 1.524 . S
C3687 C3688 1.415 . S
C3688 H3664 0.950 . S
C3688 C3683 1.363 . S
C3688 C3687 1.415 . S
C3689 H3665 0.951 . S
C3689 C3690 1.366 . S
C3689 C3691 1.388 . S
C3690 C3689 1.366 . S
C3690 C3694 1.385 . S
C3691 H3666 0.951 . S
C3691 C3689 1.388 . S
C3691 C3692 1.366 . S
C3692 C3691 1.366 . S
C3692 C3693 1.414 . S
C3692 C3695 1.499 . S
C3693 H3667 0.950 . S
C3693 C3692 1.414 . S
C3693 C3694 1.374 . S
C3694 H3668 0.950 . S
C3694 C3690 1.385 . S
C3694 C3693 1.374 . S
C3695 C3692 1.499 . S
C3695 C3696 1.373 . S
C3695 C3697 1.389 . S
C3696 H3669 0.950 . S
C3696 C3682 1.377 . S
C3696 C3695 1.373 . S
C3697 C3681 1.377 . S
C3697 C3695 1.389 . S
C3697 C3698 1.524 1_455 S
C3698 C3697 1.524 1_655 S
C3698 C3699 1.397 . S
C3698 C3703 1.363 . S
C3699 H3670 0.950 . S
C3699 C3698 1.397 . S
C3699 C3700 1.334 . S
C3700 H3671 0.950 . S
C3700 C3699 1.334 . S
C3700 C3701 1.287 . S
C3701 C3700 1.287 . S
C3701 C3702 1.524 . S
C3701 H3704 0.999 . S
C3702 H3672 0.950 . S
C3702 C3701 1.524 . S
C3702 C3703 1.415 . S
C3703 H3673 0.950 1_655 S
C3703 C3698 1.363 . S
C3703 C3702 1.415 . S
H3704 C3701 0.999 . S
H3705 C3686 0.913 . S
H3706 C3724 0.951 . S
H3707 C3726 0.951 . S
H3708 C3728 0.950 . S
H3709 C3729 0.950 . S
H3710 C3731 0.950 . S
H3711 C3734 0.950 . S
H3712 C3735 0.950 . S
H3713 C3737 0.950 . S
H3714 C3738 0.950 . S
H3715 C3739 0.951 . S
H3716 C3741 0.951 . S
H3717 C3743 0.950 . S
H3718 C3744 0.950 . S
H3719 C3746 0.950 . S
H3720 C3749 0.950 . S
H3721 C3750 0.950 . S
H3722 C3752 0.950 . S
H3723 C3753 0.950 . S
C3724 H3706 0.951 . S
C3724 C3725 1.366 . S
C3724 C3726 1.388 . S
C3725 C3724 1.366 . S
C3725 C3729 1.385 . S
C3726 H3707 0.951 . S
C3726 C3724 1.388 . S
C3726 C3727 1.366 . S
C3727 C3726 1.366 . S
C3727 C3728 1.414 . S
C3727 C3730 1.499 . S
C3728 H3708 0.950 . S
C3728 C3727 1.414 . S
C3728 C3729 1.374 . S
C3729 H3709 0.950 . S
C3729 C3725 1.385 . S
C3729 C3728 1.374 . S
C3730 C3727 1.499 . S
C3730 C3731 1.373 . S
C3730 C3732 1.389 . S
C3731 H3710 0.950 . S
C3731 C3730 1.373 . S
C3731 C3747 1.377 . S
C3732 C3730 1.389 . S
C3732 C3733 1.524 . S
C3732 C3746 1.377 . S
C3733 C3732 1.524 . S
C3733 C3734 1.397 . S
C3733 C3738 1.363 . S
C3734 H3711 0.950 . S
C3734 C3733 1.397 . S
C3734 C3735 1.334 . S
C3735 H3712 0.950 . S
C3735 C3734 1.334 . S
C3735 C3736 1.287 . S
C3736 C3735 1.287 . S
C3736 C3737 1.524 . S
C3736 H3755 0.913 . S
C3737 H3713 0.950 . S
C3737 C3736 1.524 . S
C3737 C3738 1.415 . S
C3738 H3714 0.950 . S
C3738 C3733 1.363 . S
C3738 C3737 1.415 . S
C3739 H3715 0.951 . S
C3739 C3740 1.366 . S
C3739 C3741 1.388 . S
C3740 C3739 1.366 . S
C3740 C3744 1.385 . S
C3741 H3716 0.951 . S
C3741 C3739 1.388 . S
C3741 C3742 1.366 . S
C3742 C3741 1.366 . S
C3742 C3743 1.414 . S
C3742 C3745 1.499 . S
C3743 H3717 0.950 . S
C3743 C3742 1.414 . S
C3743 C3744 1.374 . S
C3744 H3718 0.950 . S
C3744 C3740 1.385 . S
C3744 C3743 1.374 . S
C3745 C3742 1.499 . S
C3745 C3746 1.373 . S
C3745 C3747 1.389 . S
C3746 H3719 0.950 . S
C3746 C3732 1.377 . S
C3746 C3745 1.373 . S
C3747 C3731 1.377 . S
C3747 C3745 1.389 . S
C3747 C3748 1.524 . S
C3748 C3747 1.524 . S
C3748 C3749 1.397 . S
C3748 C3753 1.363 . S
C3749 H3720 0.950 . S
C3749 C3748 1.397 . S
C3749 C3750 1.334 . S
C3750 H3721 0.950 . S
C3750 C3749 1.334 . S
C3750 C3751 1.287 . S
C3751 C3750 1.287 . S
C3751 C3752 1.524 . S
C3751 H3754 0.999 . S
C3752 H3722 0.950 . S
C3752 C3751 1.524 . S
C3752 C3753 1.415 . S
C3753 H3723 0.950 . S
C3753 C3748 1.363 . S
C3753 C3752 1.415 . S
H3754 C3751 0.999 . S
H3755 C3736 0.913 . S
H3756 C3774 0.951 . S
H3757 C3776 0.951 . S
H3758 C3778 0.950 . S
H3759 C3779 0.950 . S
H3760 C3781 0.950 . S
H3761 C3784 0.950 . S
H3762 C3785 0.950 . S
H3763 C3787 0.950 . S
H3764 C3788 0.950 . S
H3765 C3789 0.951 . S
H3766 C3791 0.951 . S
H3767 C3793 0.950 . S
H3768 C3794 0.950 . S
H3769 C3796 0.950 . S
H3770 C3799 0.950 . S
H3771 C3800 0.950 . S
H3772 C3802 0.950 . S
H3773 C3803 0.950 . S
C3774 H3756 0.951 . S
C3774 C3775 1.366 . S
C3774 C3776 1.388 . S
C3775 C3774 1.366 . S
C3775 C3779 1.385 . S
C3776 H3757 0.951 . S
C3776 C3774 1.388 . S
C3776 C3777 1.366 . S
C3777 C3776 1.366 . S
C3777 C3778 1.414 . S
C3777 C3780 1.499 . S
C3778 H3758 0.950 . S
C3778 C3777 1.414 . S
C3778 C3779 1.374 . S
C3779 H3759 0.950 . S
C3779 C3775 1.385 . S
C3779 C3778 1.374 . S
C3780 C3777 1.499 . S
C3780 C3781 1.373 . S
C3780 C3782 1.389 . S
C3781 H3760 0.950 . S
C3781 C3780 1.373 . S
C3781 C3797 1.377 . S
C3782 C3780 1.389 . S
C3782 C3783 1.524 . S
C3782 C3796 1.377 . S
C3783 C3782 1.524 . S
C3783 C3784 1.397 . S
C3783 C3788 1.363 . S
C3784 H3761 0.950 . S
C3784 C3783 1.397 . S
C3784 C3785 1.334 . S
C3785 H3762 0.950 . S
C3785 C3784 1.334 . S
C3785 C3786 1.287 . S
C3786 C3785 1.287 . S
C3786 C3787 1.524 . S
C3786 H3805 0.913 . S
C3787 H3763 0.950 . S
C3787 C3786 1.524 . S
C3787 C3788 1.415 . S
C3788 H3764 0.950 . S
C3788 C3783 1.363 . S
C3788 C3787 1.415 . S
C3789 H3765 0.951 . S
C3789 C3790 1.366 . S
C3789 C3791 1.388 . S
C3790 C3789 1.366 . S
C3790 C3794 1.385 . S
C3791 H3766 0.951 . S
C3791 C3789 1.388 . S
C3791 C3792 1.366 . S
C3792 C3791 1.366 . S
C3792 C3793 1.414 . S
C3792 C3795 1.499 . S
C3793 H3767 0.950 . S
C3793 C3792 1.414 . S
C3793 C3794 1.374 . S
C3794 H3768 0.950 . S
C3794 C3790 1.385 . S
C3794 C3793 1.374 . S
C3795 C3792 1.499 . S
C3795 C3796 1.373 . S
C3795 C3797 1.389 . S
C3796 H3769 0.950 . S
C3796 C3782 1.377 . S
C3796 C3795 1.373 . S
C3797 C3781 1.377 . S
C3797 C3795 1.389 . S
C3797 C3798 1.524 . S
C3798 C3797 1.524 . S
C3798 C3799 1.397 . S
C3798 C3803 1.363 . S
C3799 H3770 0.950 . S
C3799 C3798 1.397 . S
C3799 C3800 1.334 . S
C3800 H3771 0.950 . S
C3800 C3799 1.334 . S
C3800 C3801 1.287 . S
C3801 C3800 1.287 . S
C3801 C3802 1.524 . S
C3801 H3804 0.999 . S
C3802 H3772 0.950 . S
C3802 C3801 1.524 . S
C3802 C3803 1.415 . S
C3803 H3773 0.950 . S
C3803 C3798 1.363 . S
C3803 C3802 1.415 . S
H3804 C3801 0.999 . S
H3805 C3786 0.913 . S
H3806 C3824 0.951 . S
H3807 C3826 0.951 . S
H3808 C3828 0.950 . S
H3809 C3829 0.950 . S
H3810 C3831 0.950 . S
H3811 C3834 0.950 . S
H3812 C3835 0.950 . S
H3813 C3837 0.950 . S
H3814 C3838 0.950 . S
H3815 C3839 0.951 . S
H3816 C3841 0.951 . S
H3817 C3843 0.950 . S
H3818 C3844 0.950 . S
H3819 C3846 0.950 . S
H3820 C3849 0.950 . S
H3821 C3850 0.950 . S
H3822 C3852 0.950 . S
H3823 C3853 0.950 . S
C3824 H3806 0.951 . S
C3824 C3825 1.366 . S
C3824 C3826 1.388 . S
C3825 C3824 1.366 . S
C3825 C3829 1.385 . S
C3826 H3807 0.951 . S
C3826 C3824 1.388 . S
C3826 C3827 1.366 . S
C3827 C3826 1.366 . S
C3827 C3828 1.414 . S
C3827 C3830 1.499 . S
C3828 H3808 0.950 . S
C3828 C3827 1.414 . S
C3828 C3829 1.374 . S
C3829 H3809 0.950 . S
C3829 C3825 1.385 . S
C3829 C3828 1.374 . S
C3830 C3827 1.499 . S
C3830 C3831 1.373 . S
C3830 C3832 1.389 . S
C3831 H3810 0.950 . S
C3831 C3830 1.373 . S
C3831 C3847 1.377 . S
C3832 C3830 1.389 . S
C3832 C3833 1.524 . S
C3832 C3846 1.377 . S
C3833 C3832 1.524 . S
C3833 C3834 1.397 . S
C3833 C3838 1.363 . S
C3834 H3811 0.950 . S
C3834 C3833 1.397 . S
C3834 C3835 1.334 . S
C3835 H3812 0.950 . S
C3835 C3834 1.334 . S
C3835 C3836 1.287 . S
C3836 C3835 1.287 . S
C3836 C3837 1.524 . S
C3836 H3855 0.913 . S
C3837 H3813 0.950 . S
C3837 C3836 1.524 . S
C3837 C3838 1.415 . S
C3838 H3814 0.950 . S
C3838 C3833 1.363 . S
C3838 C3837 1.415 . S
C3839 H3815 0.951 . S
C3839 C3840 1.366 . S
C3839 C3841 1.388 . S
C3840 C3839 1.366 . S
C3840 C3844 1.385 . S
C3841 H3816 0.951 . S
C3841 C3839 1.388 . S
C3841 C3842 1.366 . S
C3842 C3841 1.366 . S
C3842 C3843 1.414 . S
C3842 C3845 1.499 . S
C3843 H3817 0.950 . S
C3843 C3842 1.414 . S
C3843 C3844 1.374 . S
C3844 H3818 0.950 . S
C3844 C3840 1.385 . S
C3844 C3843 1.374 . S
C3845 C3842 1.499 . S
C3845 C3846 1.373 . S
C3845 C3847 1.389 . S
C3846 H3819 0.950 . S
C3846 C3832 1.377 . S
C3846 C3845 1.373 . S
C3847 C3831 1.377 . S
C3847 C3845 1.389 . S
C3847 C3848 1.524 . S
C3848 C3847 1.524 . S
C3848 C3849 1.397 . S
C3848 C3853 1.363 . S
C3849 H3820 0.950 . S
C3849 C3848 1.397 . S
C3849 C3850 1.334 . S
C3850 H3821 0.950 . S
C3850 C3849 1.334 . S
C3850 C3851 1.287 . S
C3851 C3850 1.287 . S
C3851 C3852 1.524 . S
C3851 H3854 0.999 . S
C3852 H3822 0.950 . S
C3852 C3851 1.524 . S
C3852 C3853 1.415 . S
C3853 H3823 0.950 . S
C3853 C3848 1.363 . S
C3853 C3852 1.415 . S
H3854 C3851 0.999 . S
H3855 C3836 0.913 . S
H3856 C3874 0.951 . S
H3857 C3876 0.951 . S
H3858 C3878 0.950 . S
H3859 C3879 0.950 . S
H3860 C3881 0.950 . S
H3861 C3884 0.950 . S
H3862 C3885 0.950 . S
H3863 C3887 0.951 1_545 S
H3864 C3888 0.950 . S
H3865 C3889 0.951 . S
H3866 C3891 0.951 . S
H3867 C3893 0.950 . S
H3868 C3894 0.950 . S
H3869 C3896 0.950 . S
H3870 C3899 0.950 . S
H3871 C3900 0.950 . S
H3872 C3902 0.950 . S
H3873 C3903 0.950 . S
C3874 H3856 0.951 . S
C3874 C3875 1.366 . S
C3874 C3876 1.388 . S
C3875 C3874 1.366 . S
C3875 C3879 1.385 . S
C3876 H3857 0.951 . S
C3876 C3874 1.388 . S
C3876 C3877 1.366 . S
C3877 C3876 1.366 . S
C3877 C3878 1.414 . S
C3877 C3880 1.499 . S
C3878 H3858 0.950 . S
C3878 C3877 1.414 . S
C3878 C3879 1.374 . S
C3879 H3859 0.950 . S
C3879 C3875 1.385 . S
C3879 C3878 1.374 . S
C3880 C3877 1.499 . S
C3880 C3881 1.373 . S
C3880 C3882 1.389 . S
C3881 H3860 0.950 . S
C3881 C3880 1.373 . S
C3881 C3897 1.377 . S
C3882 C3880 1.389 . S
C3882 C3883 1.524 . S
C3882 C3896 1.377 . S
C3883 C3882 1.524 . S
C3883 C3884 1.397 1_545 S
C3883 C3888 1.363 . S
C3884 H3861 0.950 . S
C3884 C3883 1.397 1_565 S
C3884 C3885 1.334 . S
C3885 H3862 0.950 . S
C3885 C3884 1.334 . S
C3885 C3886 1.287 . S
C3886 C3885 1.287 . S
C3886 C3887 1.522 . S
C3886 H3905 0.913 . S
C3887 H3863 0.951 1_565 S
C3887 C3886 1.522 . S
C3887 C3888 1.416 1_565 S
C3888 H3864 0.950 . S
C3888 C3883 1.363 . S
C3888 C3887 1.416 1_545 S
C3889 H3865 0.951 . S
C3889 C3890 1.366 . S
C3889 C3891 1.388 . S
C3890 C3889 1.366 . S
C3890 C3894 1.385 1_455 S
C3891 H3866 0.951 . S
C3891 C3889 1.388 . S
C3891 C3892 1.366 1_455 S
C3892 C3891 1.366 1_655 S
C3892 C3893 1.414 . S
C3892 C3895 1.499 . S
C3893 H3867 0.950 . S
C3893 C3892 1.414 . S
C3893 C3894 1.374 . S
C3894 H3868 0.950 . S
C3894 C3890 1.385 1_655 S
C3894 C3893 1.374 . S
C3895 C3892 1.499 . S
C3895 C3896 1.373 . S
C3895 C3897 1.389 . S
C3896 H3869 0.950 . S
C3896 C3882 1.377 . S
C3896 C3895 1.373 . S
C3897 C3881 1.377 . S
C3897 C3895 1.389 . S
C3897 C3898 1.524 1_655 S
C3898 C3897 1.524 1_455 S
C3898 C3899 1.397 . S
C3898 C3903 1.363 . S
C3899 H3870 0.950 . S
C3899 C3898 1.397 . S
C3899 C3900 1.334 . S
C3900 H3871 0.950 . S
C3900 C3899 1.334 . S
C3900 C3901 1.287 . S
C3901 C3900 1.287 . S
C3901 C3902 1.524 . S
C3901 H3904 0.999 . S
C3902 H3872 0.950 . S
C3902 C3901 1.524 . S
C3902 C3903 1.415 . S
C3903 H3873 0.950 . S
C3903 C3898 1.363 . S
C3903 C3902 1.415 . S
H3904 C3901 0.999 . S
H3905 C3886 0.913 . S
H3906 C3924 0.951 . S
H3907 C3926 0.951 . S
H3908 C3928 0.950 . S
H3909 C3929 0.950 . S
H3910 C3931 0.950 . S
H3911 C3934 0.950 . S
H3912 C3935 0.950 . S
H3913 C3937 0.950 . S
H3914 C3938 0.950 . S
H3915 C3939 0.951 . S
H3916 C3941 0.951 . S
H3917 C3943 0.950 . S
H3918 C3944 0.950 . S
H3919 C3946 0.950 . S
H3920 C3949 0.950 . S
H3921 C3950 0.950 . S
H3922 C3952 0.950 . S
H3923 C3953 0.950 . S
C3924 H3906 0.951 . S
C3924 C3925 1.366 . S
C3924 C3926 1.388 . S
C3925 C3924 1.366 . S
C3925 C3929 1.385 . S
C3926 H3907 0.951 . S
C3926 C3924 1.388 . S
C3926 C3927 1.366 . S
C3927 C3926 1.366 . S
C3927 C3928 1.414 . S
C3927 C3930 1.499 . S
C3928 H3908 0.950 . S
C3928 C3927 1.414 . S
C3928 C3929 1.374 . S
C3929 H3909 0.950 . S
C3929 C3925 1.385 . S
C3929 C3928 1.374 . S
C3930 C3927 1.499 . S
C3930 C3931 1.373 . S
C3930 C3932 1.389 . S
C3931 H3910 0.950 . S
C3931 C3930 1.373 . S
C3931 C3947 1.377 . S
C3932 C3930 1.389 . S
C3932 C3933 1.524 . S
C3932 C3946 1.377 . S
C3933 C3932 1.524 . S
C3933 C3934 1.397 . S
C3933 C3938 1.363 . S
C3934 H3911 0.950 . S
C3934 C3933 1.397 . S
C3934 C3935 1.334 . S
C3935 H3912 0.950 . S
C3935 C3934 1.334 . S
C3935 C3936 1.287 . S
C3936 C3935 1.287 . S
C3936 C3937 1.524 . S
C3936 H3955 0.913 . S
C3937 H3913 0.950 . S
C3937 C3936 1.524 . S
C3937 C3938 1.415 . S
C3938 H3914 0.950 . S
C3938 C3933 1.363 . S
C3938 C3937 1.415 . S
C3939 H3915 0.951 . S
C3939 C3940 1.366 . S
C3939 C3941 1.388 . S
C3940 C3939 1.366 . S
C3940 C3944 1.385 . S
C3941 H3916 0.951 . S
C3941 C3939 1.388 . S
C3941 C3942 1.366 . S
C3942 C3941 1.366 . S
C3942 C3943 1.414 . S
C3942 C3945 1.499 . S
C3943 H3917 0.950 . S
C3943 C3942 1.414 . S
C3943 C3944 1.374 . S
C3944 H3918 0.950 . S
C3944 C3940 1.385 . S
C3944 C3943 1.374 . S
C3945 C3942 1.499 . S
C3945 C3946 1.373 . S
C3945 C3947 1.389 . S
C3946 H3919 0.950 . S
C3946 C3932 1.377 . S
C3946 C3945 1.373 . S
C3947 C3931 1.377 . S
C3947 C3945 1.389 . S
C3947 C3948 1.524 . S
C3948 C3947 1.524 . S
C3948 C3949 1.397 . S
C3948 C3953 1.363 . S
C3949 H3920 0.950 . S
C3949 C3948 1.397 . S
C3949 C3950 1.334 . S
C3950 H3921 0.950 . S
C3950 C3949 1.334 . S
C3950 C3951 1.287 . S
C3951 C3950 1.287 . S
C3951 C3952 1.524 . S
C3951 H3954 0.999 . S
C3952 H3922 0.950 . S
C3952 C3951 1.524 . S
C3952 C3953 1.415 . S
C3953 H3923 0.950 . S
C3953 C3948 1.363 . S
C3953 C3952 1.415 . S
H3954 C3951 0.999 . S
H3955 C3936 0.913 . S
H3956 C3974 0.951 . S
H3957 C3976 0.951 . S
H3958 C3978 0.965 . S
H3959 C3979 0.950 . S
H3960 C3981 0.950 1_565 S
H3961 C3984 0.950 . S
H3962 C3985 0.950 . S
H3963 C3987 0.950 . S
H3964 C3988 0.950 . S
H3965 C3989 0.951 1_565 S
H3966 C3991 0.951 1_565 S
H3967 C3993 0.950 . S
H3968 C3994 0.950 . S
H3969 C3996 0.950 . S
H3970 C3999 0.950 1_545 S
H3971 C4000 0.950 . S
H3972 C4002 0.950 . S
H3973 C4003 0.950 . S
C3974 H3956 0.951 . S
C3974 C3975 1.366 . S
C3974 C3976 1.388 . S
C3975 C3974 1.366 . S
C3975 C3979 1.385 . S
C3976 H3957 0.951 . S
C3976 C3974 1.388 . S
C3976 C3977 1.366 . S
C3977 C3976 1.366 . S
C3977 C3978 1.414 . S
C3977 C3980 1.499 . S
C3978 H3958 0.965 . S
C3978 C3977 1.414 . S
C3978 C3979 1.374 . S
C3979 H3959 0.950 . S
C3979 C3975 1.385 . S
C3979 C3978 1.374 . S
C3980 C3977 1.499 . S
C3980 C3981 1.373 . S
C3980 C3982 1.389 . S
C3981 H3960 0.950 1_545 S
C3981 C3980 1.373 . S
C3981 C3997 1.377 . S
C3982 C3980 1.389 . S
C3982 C3983 1.524 . S
C3982 C3996 1.377 . S
C3983 C3982 1.524 . S
C3983 C3984 1.397 . S
C3983 C3988 1.363 . S
C3984 H3961 0.950 . S
C3984 C3983 1.397 . S
C3984 C3985 1.334 . S
C3985 H3962 0.950 . S
C3985 C3984 1.334 . S
C3985 C3986 1.287 . S
C3986 C3985 1.287 . S
C3986 C3987 1.524 . S
C3986 H4005 0.913 . S
C3987 H3963 0.950 . S
C3987 C3986 1.524 . S
C3987 C3988 1.415 . S
C3988 H3964 0.950 . S
C3988 C3983 1.363 . S
C3988 C3987 1.415 . S
C3989 H3965 0.951 1_545 S
C3989 C3990 1.366 . S
C3989 C3991 1.388 . S
C3990 C3989 1.366 . S
C3990 C3994 1.385 . S
C3991 H3966 0.951 1_545 S
C3991 C3989 1.388 . S
C3991 C3992 1.366 . S
C3992 C3991 1.366 . S
C3992 C3993 1.414 . S
C3992 C3995 1.499 . S
C3993 H3967 0.950 . S
C3993 C3992 1.414 . S
C3993 C3994 1.374 . S
C3994 H3968 0.950 . S
C3994 C3990 1.385 . S
C3994 C3993 1.374 . S
C3995 C3992 1.499 . S
C3995 C3996 1.373 . S
C3995 C3997 1.389 . S
C3996 H3969 0.950 . S
C3996 C3982 1.377 . S
C3996 C3995 1.373 . S
C3997 C3981 1.377 . S
C3997 C3995 1.389 . S
C3997 C3998 1.524 1_545 S
C3998 C3997 1.524 1_565 S
C3998 C3999 1.397 . S
C3998 C4003 1.363 . S
C3999 H3970 0.950 1_565 S
C3999 C3998 1.397 . S
C3999 C4000 1.334 . S
C4000 H3971 0.950 . S
C4000 C3999 1.334 . S
C4000 C4001 1.287 . S
C4001 C4000 1.287 . S
C4001 C4002 1.524 . S
C4001 H4004 0.999 . S
C4002 H3972 0.950 . S
C4002 C4001 1.524 . S
C4002 C4003 1.415 . S
C4003 H3973 0.950 . S
C4003 C3998 1.363 . S
C4003 C4002 1.415 . S
H4004 C4001 0.999 . S
H4005 C3986 0.913 . S
H4006 C4024 0.951 . S
H4007 C4026 0.951 . S
H4008 C4028 0.950 . S
H4009 C4029 0.950 . S
H4010 C4031 0.950 . S
H4011 C4034 0.950 . S
H4012 C4035 0.950 . S
H4013 C4037 0.950 . S
H4014 C4038 0.950 . S
H4015 C4039 0.951 . S
H4016 C4041 0.951 . S
H4017 C4043 0.950 . S
H4018 C4044 0.950 . S
H4019 C4046 0.950 . S
H4020 C4049 0.950 . S
H4021 C4050 0.950 . S
H4022 C4052 0.950 . S
H4023 C4053 0.950 . S
C4024 H4006 0.951 . S
C4024 C4025 1.366 . S
C4024 C4026 1.388 . S
C4025 C4024 1.366 . S
C4025 C4029 1.385 . S
C4026 H4007 0.951 . S
C4026 C4024 1.388 . S
C4026 C4027 1.366 . S
C4027 C4026 1.366 . S
C4027 C4028 1.414 . S
C4027 C4030 1.499 . S
C4028 H4008 0.950 . S
C4028 C4027 1.414 . S
C4028 C4029 1.374 . S
C4029 H4009 0.950 . S
C4029 C4025 1.385 . S
C4029 C4028 1.374 . S
C4030 C4027 1.499 . S
C4030 C4031 1.373 . S
C4030 C4032 1.389 . S
C4031 H4010 0.950 . S
C4031 C4030 1.373 . S
C4031 C4047 1.377 . S
C4032 C4030 1.389 . S
C4032 C4033 1.524 . S
C4032 C4046 1.377 . S
C4033 C4032 1.524 . S
C4033 C4034 1.397 . S
C4033 C4038 1.363 . S
C4034 H4011 0.950 . S
C4034 C4033 1.397 . S
C4034 C4035 1.334 . S
C4035 H4012 0.950 . S
C4035 C4034 1.334 . S
C4035 C4036 1.287 . S
C4036 C4035 1.287 . S
C4036 C4037 1.524 . S
C4036 H4055 0.913 . S
C4037 H4013 0.950 . S
C4037 C4036 1.524 . S
C4037 C4038 1.415 . S
C4038 H4014 0.950 . S
C4038 C4033 1.363 . S
C4038 C4037 1.415 . S
C4039 H4015 0.951 . S
C4039 C4040 1.366 . S
C4039 C4041 1.388 . S
C4040 C4039 1.366 . S
C4040 C4044 1.385 . S
C4041 H4016 0.951 . S
C4041 C4039 1.388 . S
C4041 C4042 1.366 . S
C4042 C4041 1.366 . S
C4042 C4043 1.414 . S
C4042 C4045 1.499 . S
C4043 H4017 0.950 . S
C4043 C4042 1.414 . S
C4043 C4044 1.374 . S
C4044 H4018 0.950 . S
C4044 C4040 1.385 . S
C4044 C4043 1.374 . S
C4045 C4042 1.499 . S
C4045 C4046 1.373 . S
C4045 C4047 1.389 . S
C4046 H4019 0.950 . S
C4046 C4032 1.377 . S
C4046 C4045 1.373 . S
C4047 C4031 1.377 . S
C4047 C4045 1.389 . S
C4047 C4048 1.524 . S
C4048 C4047 1.524 . S
C4048 C4049 1.397 . S
C4048 C4053 1.363 . S
C4049 H4020 0.950 . S
C4049 C4048 1.397 . S
C4049 C4050 1.334 . S
C4050 H4021 0.950 . S
C4050 C4049 1.334 . S
C4050 C4051 1.287 . S
C4051 C4050 1.287 . S
C4051 C4052 1.524 . S
C4051 H4054 0.999 . S
C4052 H4022 0.950 . S
C4052 C4051 1.524 . S
C4052 C4053 1.415 . S
C4053 H4023 0.950 . S
C4053 C4048 1.363 . S
C4053 C4052 1.415 . S
H4054 C4051 0.999 . S
H4055 C4036 0.913 . S
H4056 C4074 0.951 . S
H4057 C4076 0.951 . S
H4058 C4078 0.950 . S
H4059 C4079 0.950 . S
H4060 C4081 0.950 . S
H4061 C4084 0.950 . S
H4062 C4085 0.950 . S
H4063 C4087 0.950 . S
H4064 C4088 0.950 . S
H4065 C4089 0.951 . S
H4066 C4091 0.951 . S
H4067 C4093 0.950 . S
H4068 C4094 0.950 . S
H4069 C4096 0.950 . S
H4070 C4099 0.950 . S
H4071 C4100 0.948 . S
H4072 C4102 0.950 . S
H4073 C4103 0.950 1_545 S
C4074 H4056 0.951 . S
C4074 C4075 1.366 . S
C4074 C4076 1.388 . S
C4075 C4074 1.366 . S
C4075 C4079 1.385 . S
C4076 H4057 0.951 . S
C4076 C4074 1.388 . S
C4076 C4077 1.366 . S
C4077 C4076 1.366 . S
C4077 C4078 1.414 . S
C4077 C4080 1.499 . S
C4078 H4058 0.950 . S
C4078 C4077 1.414 . S
C4078 C4079 1.374 . S
C4079 H4059 0.950 . S
C4079 C4075 1.385 . S
C4079 C4078 1.374 . S
C4080 C4077 1.499 . S
C4080 C4081 1.373 . S
C4080 C4082 1.389 . S
C4081 H4060 0.950 . S
C4081 C4080 1.373 . S
C4081 C4097 1.377 . S
C4082 C4080 1.389 . S
C4082 C4083 1.524 . S
C4082 C4096 1.377 . S
C4083 C4082 1.524 . S
C4083 C4084 1.397 . S
C4083 C4088 1.363 . S
C4084 H4061 0.950 . S
C4084 C4083 1.397 . S
C4084 C4085 1.334 . S
C4085 H4062 0.950 . S
C4085 C4084 1.334 . S
C4085 C4086 1.287 . S
C4086 C4085 1.287 . S
C4086 C4087 1.524 . S
C4086 H4105 0.913 . S
C4087 H4063 0.950 . S
C4087 C4086 1.524 . S
C4087 C4088 1.415 . S
C4088 H4064 0.950 . S
C4088 C4083 1.363 . S
C4088 C4087 1.415 . S
C4089 H4065 0.951 . S
C4089 C4090 1.366 . S
C4089 C4091 1.388 . S
C4090 C4089 1.366 . S
C4090 C4094 1.385 1_455 S
C4091 H4066 0.951 . S
C4091 C4089 1.388 . S
C4091 C4092 1.366 1_455 S
C4092 C4091 1.366 1_655 S
C4092 C4093 1.414 . S
C4092 C4095 1.499 . S
C4093 H4067 0.950 . S
C4093 C4092 1.414 . S
C4093 C4094 1.374 . S
C4094 H4068 0.950 . S
C4094 C4090 1.385 1_655 S
C4094 C4093 1.374 . S
C4095 C4092 1.499 . S
C4095 C4096 1.373 . S
C4095 C4097 1.389 . S
C4096 H4069 0.950 . S
C4096 C4082 1.377 . S
C4096 C4095 1.373 . S
C4097 C4081 1.377 . S
C4097 C4095 1.389 . S
C4097 C4098 1.524 1_645 S
C4098 C4097 1.524 1_465 S
C4098 C4099 1.397 1_455 S
C4098 C4103 1.363 . S
C4099 H4070 0.950 . S
C4099 C4098 1.397 1_655 S
C4099 C4100 1.334 1_655 S
C4100 H4071 0.948 . S
C4100 C4099 1.334 1_455 S
C4100 C4101 1.287 . S
C4101 C4100 1.287 . S
C4101 C4102 1.524 . S
C4101 H4104 0.999 . S
C4102 H4072 0.950 . S
C4102 C4101 1.524 . S
C4102 C4103 1.415 . S
C4103 H4073 0.950 1_565 S
C4103 C4098 1.363 . S
C4103 C4102 1.415 . S
H4104 C4101 0.999 . S
H4105 C4086 0.913 . S
H4106 C4124 0.951 . S
H4107 C4126 0.951 . S
H4108 C4128 0.950 . S
H4109 C4129 0.950 . S
H4110 C4131 0.950 . S
H4111 C4134 0.950 . S
H4112 C4135 0.950 . S
H4113 C4137 0.950 . S
H4114 C4138 0.950 . S
H4115 C4139 0.951 . S
H4116 C4141 0.951 . S
H4117 C4143 0.950 . S
H4118 C4144 0.950 . S
H4119 C4146 0.950 . S
H4120 C4149 0.950 . S
H4121 C4150 0.950 . S
H4122 C4152 0.950 . S
H4123 C4153 0.950 . S
C4124 H4106 0.951 . S
C4124 C4125 1.366 . S
C4124 C4126 1.388 . S
C4125 C4124 1.366 . S
C4125 C4129 1.385 . S
C4126 H4107 0.951 . S
C4126 C4124 1.388 . S
C4126 C4127 1.366 . S
C4127 C4126 1.366 . S
C4127 C4128 1.414 . S
C4127 C4130 1.499 . S
C4128 H4108 0.950 . S
C4128 C4127 1.414 . S
C4128 C4129 1.374 . S
C4129 H4109 0.950 . S
C4129 C4125 1.385 . S
C4129 C4128 1.374 . S
C4130 C4127 1.499 . S
C4130 C4131 1.373 . S
C4130 C4132 1.389 . S
C4131 H4110 0.950 . S
C4131 C4130 1.373 . S
C4131 C4147 1.377 . S
C4132 C4130 1.389 . S
C4132 C4133 1.524 . S
C4132 C4146 1.377 . S
C4133 C4132 1.524 . S
C4133 C4134 1.397 . S
C4133 C4138 1.363 . S
C4134 H4111 0.950 . S
C4134 C4133 1.397 . S
C4134 C4135 1.334 . S
C4135 H4112 0.950 . S
C4135 C4134 1.334 . S
C4135 C4136 1.287 . S
C4136 C4135 1.287 . S
C4136 C4137 1.524 . S
C4136 H4155 0.913 . S
C4137 H4113 0.950 . S
C4137 C4136 1.524 . S
C4137 C4138 1.415 . S
C4138 H4114 0.950 . S
C4138 C4133 1.363 . S
C4138 C4137 1.415 . S
C4139 H4115 0.951 . S
C4139 C4140 1.366 . S
C4139 C4141 1.388 . S
C4140 C4139 1.366 . S
C4140 C4144 1.385 . S
C4141 H4116 0.951 . S
C4141 C4139 1.388 . S
C4141 C4142 1.366 . S
C4142 C4141 1.366 . S
C4142 C4143 1.414 . S
C4142 C4145 1.499 . S
C4143 H4117 0.950 . S
C4143 C4142 1.414 . S
C4143 C4144 1.374 . S
C4144 H4118 0.950 . S
C4144 C4140 1.385 . S
C4144 C4143 1.374 . S
C4145 C4142 1.499 . S
C4145 C4146 1.373 . S
C4145 C4147 1.389 . S
C4146 H4119 0.950 . S
C4146 C4132 1.377 . S
C4146 C4145 1.373 . S
C4147 C4131 1.377 . S
C4147 C4145 1.389 . S
C4147 C4148 1.524 . S
C4148 C4147 1.524 . S
C4148 C4149 1.397 . S
C4148 C4153 1.363 . S
C4149 H4120 0.950 . S
C4149 C4148 1.397 . S
C4149 C4150 1.334 . S
C4150 H4121 0.950 . S
C4150 C4149 1.334 . S
C4150 C4151 1.287 . S
C4151 C4150 1.287 . S
C4151 C4152 1.524 . S
C4151 H4154 0.999 . S
C4152 H4122 0.950 . S
C4152 C4151 1.524 . S
C4152 C4153 1.415 . S
C4153 H4123 0.950 . S
C4153 C4148 1.363 . S
C4153 C4152 1.415 . S
H4154 C4151 0.999 . S
H4155 C4136 0.913 . S
H4156 C4174 0.951 . S
H4157 C4176 0.951 . S
H4158 C4178 0.950 . S
H4159 C4179 0.950 . S
H4160 C4181 0.950 . S
H4161 C4184 0.950 . S
H4162 C4185 0.950 . S
H4163 C4187 0.950 . S
H4164 C4188 0.950 . S
H4165 C4189 0.951 . S
H4166 C4191 0.951 . S
H4167 C4193 0.950 . S
H4168 C4194 0.950 . S
H4169 C4196 0.950 . S
H4170 C4199 0.950 . S
H4171 C4200 0.950 . S
H4172 C4202 0.950 . S
H4173 C4203 0.950 . S
C4174 H4156 0.951 . S
C4174 C4175 1.366 . S
C4174 C4176 1.388 . S
C4175 C4174 1.366 . S
C4175 C4179 1.385 . S
C4176 H4157 0.951 . S
C4176 C4174 1.388 . S
C4176 C4177 1.366 . S
C4177 C4176 1.366 . S
C4177 C4178 1.414 . S
C4177 C4180 1.499 . S
C4178 H4158 0.950 . S
C4178 C4177 1.414 . S
C4178 C4179 1.374 . S
C4179 H4159 0.950 . S
C4179 C4175 1.385 . S
C4179 C4178 1.374 . S
C4180 C4177 1.499 . S
C4180 C4181 1.373 . S
C4180 C4182 1.389 . S
C4181 H4160 0.950 . S
C4181 C4180 1.373 . S
C4181 C4197 1.377 . S
C4182 C4180 1.389 . S
C4182 C4183 1.524 . S
C4182 C4196 1.377 . S
C4183 C4182 1.524 . S
C4183 C4184 1.397 . S
C4183 C4188 1.363 . S
C4184 H4161 0.950 . S
C4184 C4183 1.397 . S
C4184 C4185 1.334 . S
C4185 H4162 0.950 . S
C4185 C4184 1.334 . S
C4185 C4186 1.287 . S
C4186 C4185 1.287 . S
C4186 C4187 1.524 . S
C4186 H4205 0.913 . S
C4187 H4163 0.950 . S
C4187 C4186 1.524 . S
C4187 C4188 1.415 . S
C4188 H4164 0.950 . S
C4188 C4183 1.363 . S
C4188 C4187 1.415 . S
C4189 H4165 0.951 . S
C4189 C4190 1.366 . S
C4189 C4191 1.388 . S
C4190 C4189 1.366 . S
C4190 C4194 1.385 . S
C4191 H4166 0.951 . S
C4191 C4189 1.388 . S
C4191 C4192 1.366 . S
C4192 C4191 1.366 . S
C4192 C4193 1.414 . S
C4192 C4195 1.499 . S
C4193 H4167 0.950 . S
C4193 C4192 1.414 . S
C4193 C4194 1.374 . S
C4194 H4168 0.950 . S
C4194 C4190 1.385 . S
C4194 C4193 1.374 . S
C4195 C4192 1.499 . S
C4195 C4196 1.373 . S
C4195 C4197 1.389 . S
C4196 H4169 0.950 . S
C4196 C4182 1.377 . S
C4196 C4195 1.373 . S
C4197 C4181 1.377 . S
C4197 C4195 1.389 . S
C4197 C4198 1.570 . S
C4198 C4197 1.570 . S
C4198 C4199 1.416 . S
C4198 C4203 1.303 1_545 S
C4199 H4170 0.950 . S
C4199 C4198 1.416 . S
C4199 C4200 1.334 1_545 S
C4200 H4171 0.950 . S
C4200 C4199 1.334 1_565 S
C4200 C4201 1.287 . S
C4201 C4200 1.287 . S
C4201 C4202 1.524 . S
C4201 H4204 0.999 . S
C4202 H4172 0.950 . S
C4202 C4201 1.524 . S
C4202 C4203 1.415 . S
C4203 H4173 0.950 . S
C4203 C4198 1.303 1_565 S
C4203 C4202 1.415 . S
H4204 C4201 0.999 . S
H4205 C4186 0.913 . S
H4206 C4224 0.951 . S
H4207 C4226 0.951 . S
H4208 C4228 0.950 . S
H4209 C4229 0.950 . S
H4210 C4231 0.950 . S
H4211 C4234 0.950 . S
H4212 C4235 0.950 . S
H4213 C4237 0.950 . S
H4214 C4238 0.950 . S
H4215 C4239 0.951 . S
H4216 C4241 0.951 . S
H4217 C4243 0.950 . S
H4218 C4244 0.950 . S
H4219 C4246 0.950 . S
H4220 C4249 0.950 . S
H4221 C4250 0.950 . S
H4222 C4252 0.950 . S
H4223 C4253 0.950 . S
C4224 H4206 0.951 . S
C4224 C4225 1.366 . S
C4224 C4226 1.388 . S
C4225 C4224 1.366 . S
C4225 C4229 1.385 . S
C4226 H4207 0.951 . S
C4226 C4224 1.388 . S
C4226 C4227 1.366 . S
C4227 C4226 1.366 . S
C4227 C4228 1.414 . S
C4227 C4230 1.499 . S
C4228 H4208 0.950 . S
C4228 C4227 1.414 . S
C4228 C4229 1.374 . S
C4229 H4209 0.950 . S
C4229 C4225 1.385 . S
C4229 C4228 1.374 . S
C4230 C4227 1.499 . S
C4230 C4231 1.373 . S
C4230 C4232 1.389 . S
C4231 H4210 0.950 . S
C4231 C4230 1.373 . S
C4231 C4247 1.377 . S
C4232 C4230 1.389 . S
C4232 C4233 1.524 . S
C4232 C4246 1.377 . S
C4233 C4232 1.524 . S
C4233 C4234 1.397 . S
C4233 C4238 1.363 . S
C4234 H4211 0.950 . S
C4234 C4233 1.397 . S
C4234 C4235 1.334 . S
C4235 H4212 0.950 . S
C4235 C4234 1.334 . S
C4235 C4236 1.287 . S
C4236 C4235 1.287 . S
C4236 C4237 1.524 . S
C4236 H4255 0.913 . S
C4237 H4213 0.950 . S
C4237 C4236 1.524 . S
C4237 C4238 1.415 . S
C4238 H4214 0.950 . S
C4238 C4233 1.363 . S
C4238 C4237 1.415 . S
C4239 H4215 0.951 . S
C4239 C4240 1.366 . S
C4239 C4241 1.388 . S
C4240 C4239 1.366 . S
C4240 C4244 1.385 . S
C4241 H4216 0.951 . S
C4241 C4239 1.388 . S
C4241 C4242 1.366 . S
C4242 C4241 1.366 . S
C4242 C4243 1.414 . S
C4242 C4245 1.499 . S
C4243 H4217 0.950 . S
C4243 C4242 1.414 . S
C4243 C4244 1.374 . S
C4244 H4218 0.950 . S
C4244 C4240 1.385 . S
C4244 C4243 1.374 . S
C4245 C4242 1.499 . S
C4245 C4246 1.373 . S
C4245 C4247 1.389 . S
C4246 H4219 0.950 . S
C4246 C4232 1.377 . S
C4246 C4245 1.373 . S
C4247 C4231 1.377 . S
C4247 C4245 1.389 . S
C4247 C4248 1.524 . S
C4248 C4247 1.524 . S
C4248 C4249 1.397 . S
C4248 C4253 1.363 . S
C4249 H4220 0.950 . S
C4249 C4248 1.397 . S
C4249 C4250 1.334 . S
C4250 H4221 0.950 . S
C4250 C4249 1.334 . S
C4250 C4251 1.287 . S
C4251 C4250 1.287 . S
C4251 C4252 1.524 . S
C4251 H4254 0.999 . S
C4252 H4222 0.950 . S
C4252 C4251 1.524 . S
C4252 C4253 1.415 . S
C4253 H4223 0.950 . S
C4253 C4248 1.363 . S
C4253 C4252 1.415 . S
H4254 C4251 0.999 . S
H4255 C4236 0.913 . S
H4256 C4274 0.957 . S
H4257 C4276 0.951 . S
H4258 C4278 0.950 . S
H4259 C4279 0.950 . S
H4260 C4281 0.953 . S
H4261 C4284 0.950 . S
H4262 C4285 0.950 . S
H4263 C4287 0.950 . S
H4264 C4288 0.950 . S
H4265 C4289 0.951 . S
H4266 C4291 0.951 . S
H4267 C4293 0.949 1_545 S
H4268 C4294 0.950 . S
H4269 C4296 0.950 . S
H4270 C4299 0.950 . S
H4271 C4300 0.950 . S
H4272 C4302 0.950 . S
H4273 C4303 0.950 . S
C4274 H4256 0.957 . S
C4274 C4275 1.366 . S
C4274 C4276 1.383 1_556 S
C4275 C4274 1.366 . S
C4275 C4279 1.376 1_556 S
C4276 H4257 0.951 . S
C4276 C4274 1.383 1_554 S
C4276 C4277 1.366 . S
C4277 C4276 1.366 . S
C4277 C4278 1.414 . S
C4277 C4280 1.499 . S
C4278 H4258 0.950 . S
C4278 C4277 1.414 . S
C4278 C4279 1.374 . S
C4279 H4259 0.950 . S
C4279 C4275 1.376 1_554 S
C4279 C4278 1.374 . S
C4280 C4277 1.499 . S
C4280 C4281 1.371 1_554 S
C4280 C4282 1.389 . S
C4281 H4260 0.953 . S
C4281 C4280 1.371 1_556 S
C4281 C4297 1.376 1_556 S
C4282 C4280 1.389 . S
C4282 C4283 1.524 . S
C4282 C4296 1.377 . S
C4283 C4282 1.524 . S
C4283 C4284 1.397 . S
C4283 C4288 1.363 1_565 S
C4284 H4261 0.950 . S
C4284 C4283 1.397 . S
C4284 C4285 1.334 . S
C4285 H4262 0.950 . S
C4285 C4284 1.334 . S
C4285 C4286 1.287 1_565 S
C4286 C4285 1.287 1_545 S
C4286 C4287 1.524 . S
C4286 H4305 0.913 . S
C4287 H4263 0.950 . S
C4287 C4286 1.524 . S
C4287 C4288 1.415 . S
C4288 H4264 0.950 . S
C4288 C4283 1.363 1_545 S
C4288 C4287 1.415 . S
C4289 H4265 0.951 . S
C4289 C4290 1.366 . S
C4289 C4291 1.388 . S
C4290 C4289 1.366 . S
C4290 C4294 1.385 1_565 S
C4291 H4266 0.951 . S
C4291 C4289 1.388 . S
C4291 C4292 1.366 . S
C4292 C4291 1.366 . S
C4292 C4293 1.417 . S
C4292 C4295 1.499 . S
C4293 H4267 0.949 1_565 S
C4293 C4292 1.417 . S
C4293 C4294 1.372 1_565 S
C4294 H4268 0.950 . S
C4294 C4290 1.385 1_545 S
C4294 C4293 1.372 1_545 S
C4295 C4292 1.499 . S
C4295 C4296 1.373 . S
C4295 C4297 1.389 . S
C4296 H4269 0.950 . S
C4296 C4282 1.377 . S
C4296 C4295 1.373 . S
C4297 C4281 1.376 1_554 S
C4297 C4295 1.389 . S
C4297 C4298 1.524 1_554 S
C4298 C4297 1.524 1_556 S
C4298 C4299 1.397 . S
C4298 C4303 1.363 . S
C4299 H4270 0.950 . S
C4299 C4298 1.397 . S
C4299 C4300 1.334 . S
C4300 H4271 0.950 . S
C4300 C4299 1.334 . S
C4300 C4301 1.287 . S
C4301 C4300 1.287 . S
C4301 C4302 1.524 . S
C4301 H4304 0.999 . S
C4302 H4272 0.950 . S
C4302 C4301 1.524 . S
C4302 C4303 1.415 . S
C4303 H4273 0.950 . S
C4303 C4298 1.363 . S
C4303 C4302 1.415 . S
H4304 C4301 0.999 . S
H4305 C4286 0.913 . S
H4306 C4324 0.951 . S
H4307 C4326 0.951 . S
H4308 C4328 0.950 . S
H4309 C4329 0.950 . S
H4310 C4331 0.950 . S
H4311 C4334 0.975 . S
H4312 C4335 0.950 . S
H4313 C4337 0.950 . S
H4314 C4338 0.950 . S
H4315 C4339 0.951 . S
H4316 C4341 0.951 . S
H4317 C4343 0.950 . S
H4318 C4344 0.950 . S
H4319 C4346 0.950 . S
H4320 C4349 0.950 1_554 S
H4321 C4350 0.950 . S
H4322 C4352 0.950 . S
H4323 C4353 0.950 . S
C4324 H4306 0.951 . S
C4324 C4325 1.366 1_554 S
C4324 C4326 1.388 . S
C4325 C4324 1.366 1_556 S
C4325 C4329 1.385 . S
C4326 H4307 0.951 . S
C4326 C4324 1.388 . S
C4326 C4327 1.366 . S
C4327 C4326 1.366 . S
C4327 C4328 1.414 1_554 S
C4327 C4330 1.499 . S
C4328 H4308 0.950 . S
C4328 C4327 1.414 1_556 S
C4328 C4329 1.374 . S
C4329 H4309 0.950 . S
C4329 C4325 1.385 . S
C4329 C4328 1.374 . S
C4330 C4327 1.499 . S
C4330 C4331 1.373 1_554 S
C4330 C4332 1.389 . S
C4331 H4310 0.950 . S
C4331 C4330 1.373 1_556 S
C4331 C4347 1.377 . S
C4332 C4330 1.389 . S
C4332 C4333 1.524 . S
C4332 C4346 1.377 . S
C4333 C4332 1.524 . S
C4333 C4334 1.397 . S
C4333 C4338 1.363 . S
C4334 H4311 0.975 . S
C4334 C4333 1.397 . S
C4334 C4335 1.334 . S
C4335 H4312 0.950 . S
C4335 C4334 1.334 . S
C4335 C4336 1.287 . S
C4336 C4335 1.287 . S
C4336 C4337 1.524 . S
C4336 H4355 0.913 . S
C4337 H4313 0.950 . S
C4337 C4336 1.524 . S
C4337 C4338 1.415 . S
C4338 H4314 0.950 . S
C4338 C4333 1.363 . S
C4338 C4337 1.415 . S
C4339 H4315 0.951 . S
C4339 C4340 1.366 1_556 S
C4339 C4341 1.388 . S
C4340 C4339 1.366 1_554 S
C4340 C4344 1.385 . S
C4341 H4316 0.951 . S
C4341 C4339 1.388 . S
C4341 C4342 1.366 1_556 S
C4342 C4341 1.366 1_554 S
C4342 C4343 1.414 . S
C4342 C4345 1.499 . S
C4343 H4317 0.950 . S
C4343 C4342 1.414 . S
C4343 C4344 1.374 . S
C4344 H4318 0.950 . S
C4344 C4340 1.385 . S
C4344 C4343 1.374 . S
C4345 C4342 1.499 . S
C4345 C4346 1.373 . S
C4345 C4347 1.389 1_554 S
C4346 H4319 0.950 . S
C4346 C4332 1.377 . S
C4346 C4345 1.373 . S
C4347 C4331 1.377 . S
C4347 C4345 1.389 1_556 S
C4347 C4348 1.524 . S
C4348 C4347 1.524 . S
C4348 C4349 1.397 . S
C4348 C4353 1.363 . S
C4349 H4320 0.950 1_556 S
C4349 C4348 1.397 . S
C4349 C4350 1.334 . S
C4350 H4321 0.950 . S
C4350 C4349 1.334 . S
C4350 C4351 1.287 . S
C4351 C4350 1.287 . S
C4351 C4352 1.524 . S
C4351 H4354 0.999 . S
C4352 H4322 0.950 . S
C4352 C4351 1.524 . S
C4352 C4353 1.415 . S
C4353 H4323 0.950 . S
C4353 C4348 1.363 . S
C4353 C4352 1.415 . S
H4354 C4351 0.999 . S
H4355 C4336 0.913 . S
H4356 C4374 0.951 . S
H4357 C4376 0.951 . S
H4358 C4378 0.950 . S
H4359 C4379 0.950 . S
H4360 C4381 0.950 . S
H4361 C4384 0.950 . S
H4362 C4385 0.950 . S
H4363 C4387 0.950 . S
H4364 C4388 0.950 . S
H4365 C4389 0.951 . S
H4366 C4391 0.951 . S
H4367 C4393 0.950 . S
H4368 C4394 0.950 . S
H4369 C4396 0.950 . S
H4370 C4399 0.950 . S
H4371 C4400 0.950 . S
H4372 C4402 0.950 . S
H4373 C4403 0.950 . S
C4374 H4356 0.951 . S
C4374 C4375 1.366 . S
C4374 C4376 1.388 . S
C4375 C4374 1.366 . S
C4375 C4379 1.385 . S
C4376 H4357 0.951 . S
C4376 C4374 1.388 . S
C4376 C4377 1.366 . S
C4377 C4376 1.366 . S
C4377 C4378 1.414 . S
C4377 C4380 1.499 . S
C4378 H4358 0.950 . S
C4378 C4377 1.414 . S
C4378 C4379 1.374 . S
C4379 H4359 0.950 . S
C4379 C4375 1.385 . S
C4379 C4378 1.374 . S
C4380 C4377 1.499 . S
C4380 C4381 1.373 . S
C4380 C4382 1.389 . S
C4381 H4360 0.950 . S
C4381 C4380 1.373 . S
C4381 C4397 1.377 . S
C4382 C4380 1.389 . S
C4382 C4383 1.524 . S
C4382 C4396 1.377 . S
C4383 C4382 1.524 . S
C4383 C4384 1.397 . S
C4383 C4388 1.363 . S
C4384 H4361 0.950 . S
C4384 C4383 1.397 . S
C4384 C4385 1.334 . S
C4385 H4362 0.950 . S
C4385 C4384 1.334 . S
C4385 C4386 1.287 . S
C4386 C4385 1.287 . S
C4386 C4387 1.524 . S
C4386 H4405 0.913 . S
C4387 H4363 0.950 . S
C4387 C4386 1.524 . S
C4387 C4388 1.415 . S
C4388 H4364 0.950 . S
C4388 C4383 1.363 . S
C4388 C4387 1.415 . S
C4389 H4365 0.951 . S
C4389 C4390 1.366 . S
C4389 C4391 1.388 . S
C4390 C4389 1.366 . S
C4390 C4394 1.385 . S
C4391 H4366 0.951 . S
C4391 C4389 1.388 . S
C4391 C4392 1.366 . S
C4392 C4391 1.366 . S
C4392 C4393 1.414 . S
C4392 C4395 1.499 . S
C4393 H4367 0.950 . S
C4393 C4392 1.414 . S
C4393 C4394 1.374 . S
C4394 H4368 0.950 . S
C4394 C4390 1.385 . S
C4394 C4393 1.374 . S
C4395 C4392 1.499 . S
C4395 C4396 1.373 . S
C4395 C4397 1.389 . S
C4396 H4369 0.950 . S
C4396 C4382 1.377 . S
C4396 C4395 1.373 . S
C4397 C4381 1.377 . S
C4397 C4395 1.389 . S
C4397 C4398 1.524 . S
C4398 C4397 1.524 . S
C4398 C4399 1.397 . S
C4398 C4403 1.363 . S
C4399 H4370 0.950 . S
C4399 C4398 1.397 . S
C4399 C4400 1.334 . S
C4400 H4371 0.950 . S
C4400 C4399 1.334 . S
C4400 C4401 1.287 . S
C4401 C4400 1.287 . S
C4401 C4402 1.524 . S
C4401 H4404 0.999 . S
C4402 H4372 0.950 . S
C4402 C4401 1.524 . S
C4402 C4403 1.415 . S
C4403 H4373 0.950 . S
C4403 C4398 1.363 . S
C4403 C4402 1.415 . S
H4404 C4401 0.999 . S
H4405 C4386 0.913 . S
H4406 C4424 0.951 . S
H4407 C4426 0.951 . S
H4408 C4428 0.950 . S
H4409 C4429 0.950 . S
H4410 C4431 0.950 . S
H4411 C4434 0.950 . S
H4412 C4435 0.950 . S
H4413 C4437 0.950 . S
H4414 C4438 0.950 . S
H4415 C4439 0.951 . S
H4416 C4441 0.951 . S
H4417 C4443 0.950 . S
H4418 C4444 0.950 . S
H4419 C4446 0.950 . S
H4420 C4449 0.950 . S
H4421 C4450 0.950 . S
H4422 C4452 0.950 . S
H4423 C4453 0.950 . S
C4424 H4406 0.951 . S
C4424 C4425 1.366 . S
C4424 C4426 1.388 . S
C4425 C4424 1.366 . S
C4425 C4429 1.385 . S
C4426 H4407 0.951 . S
C4426 C4424 1.388 . S
C4426 C4427 1.366 . S
C4427 C4426 1.366 . S
C4427 C4428 1.414 . S
C4427 C4430 1.499 . S
C4428 H4408 0.950 . S
C4428 C4427 1.414 . S
C4428 C4429 1.374 . S
C4429 H4409 0.950 . S
C4429 C4425 1.385 . S
C4429 C4428 1.374 . S
C4430 C4427 1.499 . S
C4430 C4431 1.373 . S
C4430 C4432 1.389 . S
C4431 H4410 0.950 . S
C4431 C4430 1.373 . S
C4431 C4447 1.377 . S
C4432 C4430 1.389 . S
C4432 C4433 1.524 . S
C4432 C4446 1.377 . S
C4433 C4432 1.524 . S
C4433 C4434 1.397 . S
C4433 C4438 1.363 . S
C4434 H4411 0.950 . S
C4434 C4433 1.397 . S
C4434 C4435 1.334 . S
C4435 H4412 0.950 . S
C4435 C4434 1.334 . S
C4435 C4436 1.287 . S
C4436 C4435 1.287 . S
C4436 C4437 1.524 . S
C4436 H4455 0.913 . S
C4437 H4413 0.950 . S
C4437 C4436 1.524 . S
C4437 C4438 1.415 . S
C4438 H4414 0.950 . S
C4438 C4433 1.363 . S
C4438 C4437 1.415 . S
C4439 H4415 0.951 . S
C4439 C4440 1.366 . S
C4439 C4441 1.388 . S
C4440 C4439 1.366 . S
C4440 C4444 1.385 . S
C4441 H4416 0.951 . S
C4441 C4439 1.388 . S
C4441 C4442 1.366 . S
C4442 C4441 1.366 . S
C4442 C4443 1.414 . S
C4442 C4445 1.499 . S
C4443 H4417 0.950 . S
C4443 C4442 1.414 . S
C4443 C4444 1.374 . S
C4444 H4418 0.950 . S
C4444 C4440 1.385 . S
C4444 C4443 1.374 . S
C4445 C4442 1.499 . S
C4445 C4446 1.373 . S
C4445 C4447 1.389 . S
C4446 H4419 0.950 . S
C4446 C4432 1.377 . S
C4446 C4445 1.373 . S
C4447 C4431 1.377 . S
C4447 C4445 1.389 . S
C4447 C4448 1.524 . S
C4448 C4447 1.524 . S
C4448 C4449 1.397 . S
C4448 C4453 1.363 . S
C4449 H4420 0.950 . S
C4449 C4448 1.397 . S
C4449 C4450 1.334 . S
C4450 H4421 0.950 . S
C4450 C4449 1.334 . S
C4450 C4451 1.287 . S
C4451 C4450 1.287 . S
C4451 C4452 1.524 . S
C4451 H4454 0.999 . S
C4452 H4422 0.950 . S
C4452 C4451 1.524 . S
C4452 C4453 1.415 . S
C4453 H4423 0.950 . S
C4453 C4448 1.363 . S
C4453 C4452 1.415 . S
H4454 C4451 0.999 . S
H4455 C4436 0.913 . S
H4456 C4474 0.951 . S
H4457 C4476 0.951 . S
H4458 C4478 0.950 . S
H4459 C4479 0.950 . S
H4460 C4481 0.950 . S
H4461 C4484 0.950 . S
H4462 C4485 0.950 . S
H4463 C4487 0.950 . S
H4464 C4488 0.950 . S
H4465 C4489 0.951 . S
H4466 C4491 0.951 . S
H4467 C4493 0.950 . S
H4468 C4494 0.950 . S
H4469 C4496 0.950 . S
H4470 C4499 0.950 . S
H4471 C4500 0.950 . S
H4472 C4502 0.950 . S
H4473 C4503 0.950 . S
C4474 H4456 0.951 . S
C4474 C4475 1.366 . S
C4474 C4476 1.388 . S
C4475 C4474 1.366 . S
C4475 C4479 1.385 . S
C4476 H4457 0.951 . S
C4476 C4474 1.388 . S
C4476 C4477 1.366 . S
C4477 C4476 1.366 . S
C4477 C4478 1.414 . S
C4477 C4480 1.499 . S
C4478 H4458 0.950 . S
C4478 C4477 1.414 . S
C4478 C4479 1.374 . S
C4479 H4459 0.950 . S
C4479 C4475 1.385 . S
C4479 C4478 1.374 . S
C4480 C4477 1.499 . S
C4480 C4481 1.373 . S
C4480 C4482 1.389 . S
C4481 H4460 0.950 . S
C4481 C4480 1.373 . S
C4481 C4497 1.377 . S
C4482 C4480 1.389 . S
C4482 C4483 1.524 . S
C4482 C4496 1.377 . S
C4483 C4482 1.524 . S
C4483 C4484 1.397 . S
C4483 C4488 1.363 . S
C4484 H4461 0.950 . S
C4484 C4483 1.397 . S
C4484 C4485 1.334 . S
C4485 H4462 0.950 . S
C4485 C4484 1.334 . S
C4485 C4486 1.287 . S
C4486 C4485 1.287 . S
C4486 C4487 1.524 . S
C4486 H4505 0.913 . S
C4487 H4463 0.950 . S
C4487 C4486 1.524 . S
C4487 C4488 1.415 . S
C4488 H4464 0.950 . S
C4488 C4483 1.363 . S
C4488 C4487 1.415 . S
C4489 H4465 0.951 . S
C4489 C4490 1.366 . S
C4489 C4491 1.388 . S
C4490 C4489 1.366 . S
C4490 C4494 1.385 . S
C4491 H4466 0.951 . S
C4491 C4489 1.388 . S
C4491 C4492 1.366 . S
C4492 C4491 1.366 . S
C4492 C4493 1.414 . S
C4492 C4495 1.499 . S
C4493 H4467 0.950 . S
C4493 C4492 1.414 . S
C4493 C4494 1.374 . S
C4494 H4468 0.950 . S
C4494 C4490 1.385 . S
C4494 C4493 1.374 . S
C4495 C4492 1.499 . S
C4495 C4496 1.373 . S
C4495 C4497 1.389 . S
C4496 H4469 0.950 . S
C4496 C4482 1.377 . S
C4496 C4495 1.373 . S
C4497 C4481 1.377 . S
C4497 C4495 1.389 . S
C4497 C4498 1.524 . S
C4498 C4497 1.524 . S
C4498 C4499 1.397 . S
C4498 C4503 1.363 . S
C4499 H4470 0.950 . S
C4499 C4498 1.397 . S
C4499 C4500 1.334 . S
C4500 H4471 0.950 . S
C4500 C4499 1.334 . S
C4500 C4501 1.287 . S
C4501 C4500 1.287 . S
C4501 C4502 1.524 . S
C4501 H4504 0.999 . S
C4502 H4472 0.950 . S
C4502 C4501 1.524 . S
C4502 C4503 1.415 . S
C4503 H4473 0.950 . S
C4503 C4498 1.363 . S
C4503 C4502 1.415 . S
H4504 C4501 0.999 . S
H4505 C4486 0.913 . S
H4506 C4524 0.951 . S
H4507 C4526 0.951 . S
H4508 C4528 0.950 . S
H4509 C4529 0.950 . S
H4510 C4531 0.950 . S
H4511 C4534 0.950 . S
H4512 C4535 0.950 . S
H4513 C4537 0.950 . S
H4514 C4538 0.950 . S
H4515 C4539 0.951 . S
H4516 C4541 0.951 . S
H4517 C4543 0.950 . S
H4518 C4544 0.950 . S
H4519 C4546 0.950 . S
H4520 C4549 0.950 . S
H4521 C4550 0.950 . S
H4522 C4552 0.950 . S
H4523 C4553 0.950 . S
C4524 H4506 0.951 . S
C4524 C4525 1.366 . S
C4524 C4526 1.388 . S
C4525 C4524 1.366 . S
C4525 C4529 1.385 . S
C4526 H4507 0.951 . S
C4526 C4524 1.388 . S
C4526 C4527 1.366 . S
C4527 C4526 1.366 . S
C4527 C4528 1.414 . S
C4527 C4530 1.499 . S
C4528 H4508 0.950 . S
C4528 C4527 1.414 . S
C4528 C4529 1.374 . S
C4529 H4509 0.950 . S
C4529 C4525 1.385 . S
C4529 C4528 1.374 . S
C4530 C4527 1.499 . S
C4530 C4531 1.373 . S
C4530 C4532 1.389 . S
C4531 H4510 0.950 . S
C4531 C4530 1.373 . S
C4531 C4547 1.377 . S
C4532 C4530 1.389 . S
C4532 C4533 1.524 . S
C4532 C4546 1.377 . S
C4533 C4532 1.524 . S
C4533 C4534 1.397 . S
C4533 C4538 1.363 . S
C4534 H4511 0.950 . S
C4534 C4533 1.397 . S
C4534 C4535 1.334 . S
C4535 H4512 0.950 . S
C4535 C4534 1.334 . S
C4535 C4536 1.287 . S
C4536 C4535 1.287 . S
C4536 C4537 1.524 . S
C4536 H4555 0.913 . S
C4537 H4513 0.950 . S
C4537 C4536 1.524 . S
C4537 C4538 1.415 . S
C4538 H4514 0.950 . S
C4538 C4533 1.363 . S
C4538 C4537 1.415 . S
C4539 H4515 0.951 . S
C4539 C4540 1.366 . S
C4539 C4541 1.388 . S
C4540 C4539 1.366 . S
C4540 C4544 1.385 . S
C4541 H4516 0.951 . S
C4541 C4539 1.388 . S
C4541 C4542 1.366 . S
C4542 C4541 1.366 . S
C4542 C4543 1.414 . S
C4542 C4545 1.499 . S
C4543 H4517 0.950 . S
C4543 C4542 1.414 . S
C4543 C4544 1.374 . S
C4544 H4518 0.950 . S
C4544 C4540 1.385 . S
C4544 C4543 1.374 . S
C4545 C4542 1.499 . S
C4545 C4546 1.373 . S
C4545 C4547 1.389 . S
C4546 H4519 0.950 . S
C4546 C4532 1.377 . S
C4546 C4545 1.373 . S
C4547 C4531 1.377 . S
C4547 C4545 1.389 . S
C4547 C4548 1.524 . S
C4548 C4547 1.524 . S
C4548 C4549 1.397 . S
C4548 C4553 1.363 . S
C4549 H4520 0.950 . S
C4549 C4548 1.397 . S
C4549 C4550 1.334 . S
C4550 H4521 0.950 . S
C4550 C4549 1.334 . S
C4550 C4551 1.287 . S
C4551 C4550 1.287 . S
C4551 C4552 1.524 . S
C4551 H4554 0.999 . S
C4552 H4522 0.950 . S
C4552 C4551 1.524 . S
C4552 C4553 1.415 . S
C4553 H4523 0.950 . S
C4553 C4548 1.363 . S
C4553 C4552 1.415 . S
H4554 C4551 0.999 . S
H4555 C4536 0.913 . S
H4556 C4574 0.951 . S
H4557 C4576 0.951 . S
H4558 C4578 0.950 . S
H4559 C4579 0.950 . S
H4560 C4581 0.950 . S
H4561 C4584 0.950 . S
H4562 C4585 0.950 . S
H4563 C4587 0.950 . S
H4564 C4588 0.950 . S
H4565 C4589 0.951 . S
H4566 C4591 0.951 . S
H4567 C4593 0.950 . S
H4568 C4594 0.950 . S
H4569 C4596 0.950 . S
H4570 C4599 0.950 . S
H4571 C4600 0.950 . S
H4572 C4602 0.950 . S
H4573 C4603 0.950 . S
C4574 H4556 0.951 . S
C4574 C4575 1.366 . S
C4574 C4576 1.388 . S
C4575 C4574 1.366 . S
C4575 C4579 1.385 . S
C4576 H4557 0.951 . S
C4576 C4574 1.388 . S
C4576 C4577 1.366 . S
C4577 C4576 1.366 . S
C4577 C4578 1.414 . S
C4577 C4580 1.499 . S
C4578 H4558 0.950 . S
C4578 C4577 1.414 . S
C4578 C4579 1.374 . S
C4579 H4559 0.950 . S
C4579 C4575 1.385 . S
C4579 C4578 1.374 . S
C4580 C4577 1.499 . S
C4580 C4581 1.373 . S
C4580 C4582 1.389 . S
C4581 H4560 0.950 . S
C4581 C4580 1.373 . S
C4581 C4597 1.377 . S
C4582 C4580 1.389 . S
C4582 C4583 1.524 . S
C4582 C4596 1.377 . S
C4583 C4582 1.524 . S
C4583 C4584 1.397 . S
C4583 C4588 1.363 . S
C4584 H4561 0.950 . S
C4584 C4583 1.397 . S
C4584 C4585 1.334 . S
C4585 H4562 0.950 . S
C4585 C4584 1.334 . S
C4585 C4586 1.287 . S
C4586 C4585 1.287 . S
C4586 C4587 1.524 . S
C4586 H4605 0.913 . S
C4587 H4563 0.950 . S
C4587 C4586 1.524 . S
C4587 C4588 1.415 . S
C4588 H4564 0.950 . S
C4588 C4583 1.363 . S
C4588 C4587 1.415 . S
C4589 H4565 0.951 . S
C4589 C4590 1.366 . S
C4589 C4591 1.388 . S
C4590 C4589 1.366 . S
C4590 C4594 1.385 . S
C4591 H4566 0.951 . S
C4591 C4589 1.388 . S
C4591 C4592 1.366 . S
C4592 C4591 1.366 . S
C4592 C4593 1.414 . S
C4592 C4595 1.499 . S
C4593 H4567 0.950 . S
C4593 C4592 1.414 . S
C4593 C4594 1.374 . S
C4594 H4568 0.950 . S
C4594 C4590 1.385 . S
C4594 C4593 1.374 . S
C4595 C4592 1.499 . S
C4595 C4596 1.373 . S
C4595 C4597 1.389 . S
C4596 H4569 0.950 . S
C4596 C4582 1.377 . S
C4596 C4595 1.373 . S
C4597 C4581 1.377 . S
C4597 C4595 1.389 . S
C4597 C4598 1.524 . S
C4598 C4597 1.524 . S
C4598 C4599 1.397 . S
C4598 C4603 1.363 . S
C4599 H4570 0.950 . S
C4599 C4598 1.397 . S
C4599 C4600 1.334 . S
C4600 H4571 0.950 . S
C4600 C4599 1.334 . S
C4600 C4601 1.287 . S
C4601 C4600 1.287 . S
C4601 C4602 1.524 . S
C4601 H4604 0.999 . S
C4602 H4572 0.950 . S
C4602 C4601 1.524 . S
C4602 C4603 1.415 . S
C4603 H4573 0.950 . S
C4603 C4598 1.363 . S
C4603 C4602 1.415 . S
H4604 C4601 0.999 . S
H4605 C4586 0.913 . S
H4606 C4624 0.951 . S
H4607 C4626 0.951 . S
H4608 C4628 0.950 . S
H4609 C4629 0.950 . S
H4610 C4631 0.950 . S
H4611 C4634 0.950 . S
H4612 C4635 0.950 . S
H4613 C4637 0.950 . S
H4614 C4638 0.950 . S
H4615 C4639 0.951 . S
H4616 C4641 0.951 . S
H4617 C4643 0.950 . S
H4618 C4644 0.950 . S
H4619 C4646 0.950 . S
H4620 C4649 0.950 . S
H4621 C4650 0.950 . S
H4622 C4652 0.950 . S
H4623 C4653 0.950 . S
C4624 H4606 0.951 . S
C4624 C4625 1.366 . S
C4624 C4626 1.388 . S
C4625 C4624 1.366 . S
C4625 C4629 1.385 . S
C4626 H4607 0.951 . S
C4626 C4624 1.388 . S
C4626 C4627 1.366 . S
C4627 C4626 1.366 . S
C4627 C4628 1.414 . S
C4627 C4630 1.499 . S
C4628 H4608 0.950 . S
C4628 C4627 1.414 . S
C4628 C4629 1.374 . S
C4629 H4609 0.950 . S
C4629 C4625 1.385 . S
C4629 C4628 1.374 . S
C4630 C4627 1.499 . S
C4630 C4631 1.373 . S
C4630 C4632 1.389 . S
C4631 H4610 0.950 . S
C4631 C4630 1.373 . S
C4631 C4647 1.377 . S
C4632 C4630 1.389 . S
C4632 C4633 1.524 . S
C4632 C4646 1.377 . S
C4633 C4632 1.524 . S
C4633 C4634 1.397 . S
C4633 C4638 1.363 . S
C4634 H4611 0.950 . S
C4634 C4633 1.397 . S
C4634 C4635 1.334 . S
C4635 H4612 0.950 . S
C4635 C4634 1.334 . S
C4635 C4636 1.287 . S
C4636 C4635 1.287 . S
C4636 C4637 1.524 . S
C4636 H4655 0.913 . S
C4637 H4613 0.950 . S
C4637 C4636 1.524 . S
C4637 C4638 1.415 . S
C4638 H4614 0.950 . S
C4638 C4633 1.363 . S
C4638 C4637 1.415 . S
C4639 H4615 0.951 . S
C4639 C4640 1.366 . S
C4639 C4641 1.388 . S
C4640 C4639 1.366 . S
C4640 C4644 1.385 . S
C4641 H4616 0.951 . S
C4641 C4639 1.388 . S
C4641 C4642 1.366 . S
C4642 C4641 1.366 . S
C4642 C4643 1.414 . S
C4642 C4645 1.499 . S
C4643 H4617 0.950 . S
C4643 C4642 1.414 . S
C4643 C4644 1.374 . S
C4644 H4618 0.950 . S
C4644 C4640 1.385 . S
C4644 C4643 1.374 . S
C4645 C4642 1.499 . S
C4645 C4646 1.373 . S
C4645 C4647 1.389 . S
C4646 H4619 0.950 . S
C4646 C4632 1.377 . S
C4646 C4645 1.373 . S
C4647 C4631 1.377 . S
C4647 C4645 1.389 . S
C4647 C4648 1.524 . S
C4648 C4647 1.524 . S
C4648 C4649 1.397 . S
C4648 C4653 1.363 . S
C4649 H4620 0.950 . S
C4649 C4648 1.397 . S
C4649 C4650 1.334 . S
C4650 H4621 0.950 . S
C4650 C4649 1.334 . S
C4650 C4651 1.287 . S
C4651 C4650 1.287 . S
C4651 C4652 1.524 . S
C4651 H4654 0.999 . S
C4652 H4622 0.950 . S
C4652 C4651 1.524 . S
C4652 C4653 1.415 . S
C4653 H4623 0.950 . S
C4653 C4648 1.363 . S
C4653 C4652 1.415 . S
H4654 C4651 0.999 . S
H4655 C4636 0.913 . S
H4656 C4674 0.951 . S
H4657 C4676 0.951 . S
H4658 C4678 0.950 . S
H4659 C4679 0.950 . S
H4660 C4681 0.950 . S
H4661 C4684 0.950 . S
H4662 C4685 0.950 . S
H4663 C4687 0.943 . S
H4664 C4688 0.950 . S
H4665 C4689 0.951 . S
H4666 C4691 0.951 . S
H4667 C4693 0.950 . S
H4668 C4694 0.950 . S
H4669 C4696 0.950 . S
H4670 C4699 0.950 . S
H4671 C4700 0.950 . S
H4672 C4702 0.950 . S
H4673 C4703 0.950 . S
C4674 H4656 0.951 . S
C4674 C4675 1.366 . S
C4674 C4676 1.388 . S
C4675 C4674 1.366 . S
C4675 C4679 1.385 . S
C4676 H4657 0.951 . S
C4676 C4674 1.388 . S
C4676 C4677 1.366 . S
C4677 C4676 1.366 . S
C4677 C4678 1.414 . S
C4677 C4680 1.499 . S
C4678 H4658 0.950 . S
C4678 C4677 1.414 . S
C4678 C4679 1.374 . S
C4679 H4659 0.950 . S
C4679 C4675 1.385 . S
C4679 C4678 1.374 . S
C4680 C4677 1.499 . S
C4680 C4681 1.373 . S
C4680 C4682 1.389 . S
C4681 H4660 0.950 . S
C4681 C4680 1.373 . S
C4681 C4697 1.377 . S
C4682 C4680 1.389 . S
C4682 C4683 1.524 . S
C4682 C4696 1.377 . S
C4683 C4682 1.524 . S
C4683 C4684 1.397 . S
C4683 C4688 1.363 . S
C4684 H4661 0.950 . S
C4684 C4683 1.397 . S
C4684 C4685 1.334 . S
C4685 H4662 0.950 . S
C4685 C4684 1.334 . S
C4685 C4686 1.287 . S
C4686 C4685 1.287 . S
C4686 C4687 1.528 1_554 S
C4686 H4705 0.913 . S
C4687 H4663 0.943 . S
C4687 C4686 1.528 1_556 S
C4687 C4688 1.419 1_556 S
C4688 H4664 0.950 . S
C4688 C4683 1.363 . S
C4688 C4687 1.419 1_554 S
C4689 H4665 0.951 . S
C4689 C4690 1.366 . S
C4689 C4691 1.388 . S
C4690 C4689 1.366 . S
C4690 C4694 1.385 . S
C4691 H4666 0.951 . S
C4691 C4689 1.388 . S
C4691 C4692 1.366 . S
C4692 C4691 1.366 . S
C4692 C4693 1.414 . S
C4692 C4695 1.499 . S
C4693 H4667 0.950 . S
C4693 C4692 1.414 . S
C4693 C4694 1.374 . S
C4694 H4668 0.950 . S
C4694 C4690 1.385 . S
C4694 C4693 1.374 . S
C4695 C4692 1.499 . S
C4695 C4696 1.373 . S
C4695 C4697 1.389 . S
C4696 H4669 0.950 . S
C4696 C4682 1.377 . S
C4696 C4695 1.373 . S
C4697 C4681 1.377 . S
C4697 C4695 1.389 . S
C4697 C4698 1.524 . S
C4698 C4697 1.524 . S
C4698 C4699 1.397 1_455 S
C4698 C4703 1.363 . S
C4699 H4670 0.950 . S
C4699 C4698 1.397 1_655 S
C4699 C4700 1.334 . S
C4700 H4671 0.950 . S
C4700 C4699 1.334 . S
C4700 C4701 1.287 . S
C4701 C4700 1.287 . S
C4701 C4702 1.524 1_655 S
C4701 H4704 0.999 . S
C4702 H4672 0.950 . S
C4702 C4701 1.524 1_455 S
C4702 C4703 1.415 . S
C4703 H4673 0.950 . S
C4703 C4698 1.363 . S
C4703 C4702 1.415 . S
H4704 C4701 0.999 . S
H4705 C4686 0.913 . S
H4706 C4724 0.951 . S
H4707 C4726 0.951 . S
H4708 C4728 0.950 . S
H4709 C4729 0.950 . S
H4710 C4731 0.950 . S
H4711 C4734 0.950 . S
H4712 C4735 0.950 . S
H4713 C4737 0.950 . S
H4714 C4738 0.950 . S
H4715 C4739 0.951 . S
H4716 C4741 0.951 . S
H4717 C4743 0.950 . S
H4718 C4744 0.950 . S
H4719 C4746 0.950 . S
H4720 C4749 0.950 . S
H4721 C4750 0.950 . S
H4722 C4752 0.950 . S
H4723 C4753 0.950 . S
C4724 H4706 0.951 . S
C4724 C4725 1.366 . S
C4724 C4726 1.388 . S
C4725 C4724 1.366 . S
C4725 C4729 1.385 . S
C4726 H4707 0.951 . S
C4726 C4724 1.388 . S
C4726 C4727 1.366 . S
C4727 C4726 1.366 . S
C4727 C4728 1.414 . S
C4727 C4730 1.499 . S
C4728 H4708 0.950 . S
C4728 C4727 1.414 . S
C4728 C4729 1.374 . S
C4729 H4709 0.950 . S
C4729 C4725 1.385 . S
C4729 C4728 1.374 . S
C4730 C4727 1.499 . S
C4730 C4731 1.373 . S
C4730 C4732 1.389 . S
C4731 H4710 0.950 . S
C4731 C4730 1.373 . S
C4731 C4747 1.377 . S
C4732 C4730 1.389 . S
C4732 C4733 1.524 . S
C4732 C4746 1.377 . S
C4733 C4732 1.524 . S
C4733 C4734 1.397 . S
C4733 C4738 1.363 . S
C4734 H4711 0.950 . S
C4734 C4733 1.397 . S
C4734 C4735 1.334 . S
C4735 H4712 0.950 . S
C4735 C4734 1.334 . S
C4735 C4736 1.287 . S
C4736 C4735 1.287 . S
C4736 C4737 1.524 . S
C4736 H4755 0.913 . S
C4737 H4713 0.950 . S
C4737 C4736 1.524 . S
C4737 C4738 1.415 . S
C4738 H4714 0.950 . S
C4738 C4733 1.363 . S
C4738 C4737 1.415 . S
C4739 H4715 0.951 . S
C4739 C4740 1.366 . S
C4739 C4741 1.388 . S
C4740 C4739 1.366 . S
C4740 C4744 1.385 . S
C4741 H4716 0.951 . S
C4741 C4739 1.388 . S
C4741 C4742 1.366 . S
C4742 C4741 1.366 . S
C4742 C4743 1.414 . S
C4742 C4745 1.499 . S
C4743 H4717 0.950 . S
C4743 C4742 1.414 . S
C4743 C4744 1.374 . S
C4744 H4718 0.950 . S
C4744 C4740 1.385 . S
C4744 C4743 1.374 . S
C4745 C4742 1.499 . S
C4745 C4746 1.373 . S
C4745 C4747 1.389 . S
C4746 H4719 0.950 . S
C4746 C4732 1.377 . S
C4746 C4745 1.373 . S
C4747 C4731 1.377 . S
C4747 C4745 1.389 . S
C4747 C4748 1.524 . S
C4748 C4747 1.524 . S
C4748 C4749 1.397 . S
C4748 C4753 1.363 . S
C4749 H4720 0.950 . S
C4749 C4748 1.397 . S
C4749 C4750 1.334 . S
C4750 H4721 0.950 . S
C4750 C4749 1.334 . S
C4750 C4751 1.287 . S
C4751 C4750 1.287 . S
C4751 C4752 1.524 . S
C4751 H4754 0.999 . S
C4752 H4722 0.950 . S
C4752 C4751 1.524 . S
C4752 C4753 1.415 . S
C4753 H4723 0.950 . S
C4753 C4748 1.363 . S
C4753 C4752 1.415 . S
H4754 C4751 0.999 . S
H4755 C4736 0.913 . S
H4756 C4774 0.951 . S
H4757 C4776 0.951 . S
H4758 C4778 0.950 . S
H4759 C4779 0.950 . S
H4760 C4781 0.950 . S
H4761 C4784 0.950 . S
H4762 C4785 0.950 . S
H4763 C4787 0.950 . S
H4764 C4788 0.950 . S
H4765 C4789 0.951 . S
H4766 C4791 0.951 . S
H4767 C4793 0.950 . S
H4768 C4794 0.950 . S
H4769 C4796 0.950 . S
H4770 C4799 0.950 . S
H4771 C4800 0.950 . S
H4772 C4802 0.950 . S
H4773 C4803 0.950 . S
C4774 H4756 0.951 . S
C4774 C4775 1.366 . S
C4774 C4776 1.388 . S
C4775 C4774 1.366 . S
C4775 C4779 1.385 . S
C4776 H4757 0.951 . S
C4776 C4774 1.388 . S
C4776 C4777 1.366 . S
C4777 C4776 1.366 . S
C4777 C4778 1.414 . S
C4777 C4780 1.499 . S
C4778 H4758 0.950 . S
C4778 C4777 1.414 . S
C4778 C4779 1.374 . S
C4779 H4759 0.950 . S
C4779 C4775 1.385 . S
C4779 C4778 1.374 . S
C4780 C4777 1.499 . S
C4780 C4781 1.373 . S
C4780 C4782 1.389 . S
C4781 H4760 0.950 . S
C4781 C4780 1.373 . S
C4781 C4797 1.377 . S
C4782 C4780 1.389 . S
C4782 C4783 1.524 . S
C4782 C4796 1.377 . S
C4783 C4782 1.524 . S
C4783 C4784 1.397 . S
C4783 C4788 1.363 . S
C4784 H4761 0.950 . S
C4784 C4783 1.397 . S
C4784 C4785 1.334 . S
C4785 H4762 0.950 . S
C4785 C4784 1.334 . S
C4785 C4786 1.287 . S
C4786 C4785 1.287 . S
C4786 C4787 1.524 . S
C4786 H4805 0.913 . S
C4787 H4763 0.950 . S
C4787 C4786 1.524 . S
C4787 C4788 1.415 . S
C4788 H4764 0.950 . S
C4788 C4783 1.363 . S
C4788 C4787 1.415 . S
C4789 H4765 0.951 . S
C4789 C4790 1.366 . S
C4789 C4791 1.388 . S
C4790 C4789 1.366 . S
C4790 C4794 1.385 . S
C4791 H4766 0.951 . S
C4791 C4789 1.388 . S
C4791 C4792 1.366 . S
C4792 C4791 1.366 . S
C4792 C4793 1.414 . S
C4792 C4795 1.499 . S
C4793 H4767 0.950 . S
C4793 C4792 1.414 . S
C4793 C4794 1.374 . S
C4794 H4768 0.950 . S
C4794 C4790 1.385 . S
C4794 C4793 1.374 . S
C4795 C4792 1.499 . S
C4795 C4796 1.373 . S
C4795 C4797 1.389 . S
C4796 H4769 0.950 . S
C4796 C4782 1.377 . S
C4796 C4795 1.373 . S
C4797 C4781 1.377 . S
C4797 C4795 1.389 . S
C4797 C4798 1.524 . S
C4798 C4797 1.524 . S
C4798 C4799 1.397 . S
C4798 C4803 1.363 . S
C4799 H4770 0.950 . S
C4799 C4798 1.397 . S
C4799 C4800 1.334 . S
C4800 H4771 0.950 . S
C4800 C4799 1.334 . S
C4800 C4801 1.287 . S
C4801 C4800 1.287 . S
C4801 C4802 1.524 . S
C4801 H4804 0.999 . S
C4802 H4772 0.950 . S
C4802 C4801 1.524 . S
C4802 C4803 1.415 . S
C4803 H4773 0.950 . S
C4803 C4798 1.363 . S
C4803 C4802 1.415 . S
H4804 C4801 0.999 . S
H4805 C4786 0.913 . S
H4806 C4824 0.951 . S
H4807 C4826 0.951 . S
H4808 C4828 0.950 . S
H4809 C4829 0.950 . S
H4810 C4831 0.950 . S
H4811 C4834 0.950 . S
H4812 C4835 0.950 . S
H4813 C4837 0.950 . S
H4814 C4838 0.950 . S
H4815 C4839 0.951 . S
H4816 C4841 0.951 . S
H4817 C4843 0.950 . S
H4818 C4844 0.950 . S
H4819 C4846 0.950 . S
H4820 C4849 0.950 . S
H4821 C4850 0.950 . S
H4822 C4852 0.950 . S
H4823 C4853 0.950 . S
C4824 H4806 0.951 . S
C4824 C4825 1.366 . S
C4824 C4826 1.388 . S
C4825 C4824 1.366 . S
C4825 C4829 1.385 . S
C4826 H4807 0.951 . S
C4826 C4824 1.388 . S
C4826 C4827 1.366 . S
C4827 C4826 1.366 . S
C4827 C4828 1.414 . S
C4827 C4830 1.499 . S
C4828 H4808 0.950 . S
C4828 C4827 1.414 . S
C4828 C4829 1.374 . S
C4829 H4809 0.950 . S
C4829 C4825 1.385 . S
C4829 C4828 1.374 . S
C4830 C4827 1.499 . S
C4830 C4831 1.373 . S
C4830 C4832 1.389 . S
C4831 H4810 0.950 . S
C4831 C4830 1.373 . S
C4831 C4847 1.377 . S
C4832 C4830 1.389 . S
C4832 C4833 1.524 . S
C4832 C4846 1.377 . S
C4833 C4832 1.524 . S
C4833 C4834 1.397 . S
C4833 C4838 1.363 . S
C4834 H4811 0.950 . S
C4834 C4833 1.397 . S
C4834 C4835 1.334 . S
C4835 H4812 0.950 . S
C4835 C4834 1.334 . S
C4835 C4836 1.287 . S
C4836 C4835 1.287 . S
C4836 C4837 1.524 . S
C4836 H4855 0.913 . S
C4837 H4813 0.950 . S
C4837 C4836 1.524 . S
C4837 C4838 1.415 . S
C4838 H4814 0.950 . S
C4838 C4833 1.363 . S
C4838 C4837 1.415 . S
C4839 H4815 0.951 . S
C4839 C4840 1.366 . S
C4839 C4841 1.388 . S
C4840 C4839 1.366 . S
C4840 C4844 1.385 . S
C4841 H4816 0.951 . S
C4841 C4839 1.388 . S
C4841 C4842 1.366 . S
C4842 C4841 1.366 . S
C4842 C4843 1.414 . S
C4842 C4845 1.499 . S
C4843 H4817 0.950 . S
C4843 C4842 1.414 . S
C4843 C4844 1.374 . S
C4844 H4818 0.950 . S
C4844 C4840 1.385 . S
C4844 C4843 1.374 . S
C4845 C4842 1.499 . S
C4845 C4846 1.373 . S
C4845 C4847 1.389 . S
C4846 H4819 0.950 . S
C4846 C4832 1.377 . S
C4846 C4845 1.373 . S
C4847 C4831 1.377 . S
C4847 C4845 1.389 . S
C4847 C4848 1.524 . S
C4848 C4847 1.524 . S
C4848 C4849 1.397 . S
C4848 C4853 1.363 . S
C4849 H4820 0.950 . S
C4849 C4848 1.397 . S
C4849 C4850 1.334 . S
C4850 H4821 0.950 . S
C4850 C4849 1.334 . S
C4850 C4851 1.287 . S
C4851 C4850 1.287 . S
C4851 C4852 1.524 . S
C4851 H4854 0.999 . S
C4852 H4822 0.950 . S
C4852 C4851 1.524 . S
C4852 C4853 1.415 . S
C4853 H4823 0.950 . S
C4853 C4848 1.363 . S
C4853 C4852 1.415 . S
H4854 C4851 0.999 . S
H4855 C4836 0.913 . S
H4856 C4874 0.951 . S
H4857 C4876 0.951 . S
H4858 C4878 0.950 . S
H4859 C4879 0.950 . S
H4860 C4881 0.950 . S
H4861 C4884 0.950 1_455 S
H4862 C4885 0.950 . S
H4863 C4887 0.950 . S
H4864 C4888 0.950 . S
H4865 C4889 0.951 . S
H4866 C4891 0.951 . S
H4867 C4893 0.950 . S
H4868 C4894 0.950 . S
H4869 C4896 1.011 . S
H4870 C4899 0.950 . S
H4871 C4900 0.950 . S
H4872 C4902 0.950 . S
H4873 C4903 0.950 . S
C4874 H4856 0.951 . S
C4874 C4875 1.366 . S
C4874 C4876 1.388 . S
C4875 C4874 1.366 . S
C4875 C4879 1.385 . S
C4876 H4857 0.951 . S
C4876 C4874 1.388 . S
C4876 C4877 1.366 . S
C4877 C4876 1.366 . S
C4877 C4878 1.414 . S
C4877 C4880 1.499 . S
C4878 H4858 0.950 . S
C4878 C4877 1.414 . S
C4878 C4879 1.374 . S
C4879 H4859 0.950 . S
C4879 C4875 1.385 . S
C4879 C4878 1.374 . S
C4880 C4877 1.499 . S
C4880 C4881 1.373 . S
C4880 C4882 1.389 . S
C4881 H4860 0.950 . S
C4881 C4880 1.373 . S
C4881 C4897 1.377 . S
C4882 C4880 1.389 . S
C4882 C4883 1.524 1_455 S
C4882 C4896 1.377 . S
C4883 C4882 1.524 1_655 S
C4883 C4884 1.397 . S
C4883 C4888 1.363 . S
C4884 H4861 0.950 1_655 S
C4884 C4883 1.397 . S
C4884 C4885 1.334 . S
C4885 H4862 0.950 . S
C4885 C4884 1.334 . S
C4885 C4886 1.287 . S
C4886 C4885 1.287 . S
C4886 C4887 1.524 . S
C4886 H4905 0.913 . S
C4887 H4863 0.950 . S
C4887 C4886 1.524 . S
C4887 C4888 1.415 . S
C4888 H4864 0.950 . S
C4888 C4883 1.363 . S
C4888 C4887 1.415 . S
C4889 H4865 0.951 . S
C4889 C4890 1.366 . S
C4889 C4891 1.388 . S
C4890 C4889 1.366 . S
C4890 C4894 1.385 . S
C4891 H4866 0.951 . S
C4891 C4889 1.388 . S
C4891 C4892 1.366 . S
C4892 C4891 1.366 . S
C4892 C4893 1.414 . S
C4892 C4895 1.499 . S
C4893 H4867 0.950 . S
C4893 C4892 1.414 . S
C4893 C4894 1.374 . S
C4894 H4868 0.950 . S
C4894 C4890 1.385 . S
C4894 C4893 1.374 . S
C4895 C4892 1.499 . S
C4895 C4896 1.373 . S
C4895 C4897 1.389 . S
C4896 H4869 1.011 . S
C4896 C4882 1.377 . S
C4896 C4895 1.373 . S
C4897 C4881 1.377 . S
C4897 C4895 1.389 . S
C4897 C4898 1.524 . S
C4898 C4897 1.524 . S
C4898 C4899 1.397 . S
C4898 C4903 1.363 . S
C4899 H4870 0.950 . S
C4899 C4898 1.397 . S
C4899 C4900 1.334 . S
C4900 H4871 0.950 . S
C4900 C4899 1.334 . S
C4900 C4901 1.287 . S
C4901 C4900 1.287 . S
C4901 C4902 1.524 . S
C4901 H4904 0.999 . S
C4902 H4872 0.950 . S
C4902 C4901 1.524 . S
C4902 C4903 1.415 . S
C4903 H4873 0.950 . S
C4903 C4898 1.363 . S
C4903 C4902 1.415 . S
H4904 C4901 0.999 . S
H4905 C4886 0.913 . S
H4906 C4924 0.951 . S
H4907 C4926 0.951 . S
H4908 C4928 0.950 . S
H4909 C4929 0.950 . S
H4910 C4931 0.950 . S
H4911 C4934 0.950 . S
H4912 C4935 0.950 . S
H4913 C4937 0.950 . S
H4914 C4938 0.950 . S
H4915 C4939 0.951 . S
H4916 C4941 0.951 . S
H4917 C4943 0.950 . S
H4918 C4944 0.950 . S
H4919 C4946 0.950 . S
H4920 C4949 0.950 . S
H4921 C4950 0.950 . S
H4922 C4952 0.950 . S
H4923 C4953 0.950 . S
C4924 H4906 0.951 . S
C4924 C4925 1.366 . S
C4924 C4926 1.388 . S
C4925 C4924 1.366 . S
C4925 C4929 1.385 . S
C4926 H4907 0.951 . S
C4926 C4924 1.388 . S
C4926 C4927 1.366 . S
C4927 C4926 1.366 . S
C4927 C4928 1.414 . S
C4927 C4930 1.499 . S
C4928 H4908 0.950 . S
C4928 C4927 1.414 . S
C4928 C4929 1.374 . S
C4929 H4909 0.950 . S
C4929 C4925 1.385 . S
C4929 C4928 1.374 . S
C4930 C4927 1.499 . S
C4930 C4931 1.373 . S
C4930 C4932 1.389 . S
C4931 H4910 0.950 . S
C4931 C4930 1.373 . S
C4931 C4947 1.377 . S
C4932 C4930 1.389 . S
C4932 C4933 1.524 . S
C4932 C4946 1.377 . S
C4933 C4932 1.524 . S
C4933 C4934 1.397 . S
C4933 C4938 1.363 . S
C4934 H4911 0.950 . S
C4934 C4933 1.397 . S
C4934 C4935 1.334 . S
C4935 H4912 0.950 . S
C4935 C4934 1.334 . S
C4935 C4936 1.287 . S
C4936 C4935 1.287 . S
C4936 C4937 1.524 . S
C4936 H4955 0.913 . S
C4937 H4913 0.950 . S
C4937 C4936 1.524 . S
C4937 C4938 1.415 . S
C4938 H4914 0.950 . S
C4938 C4933 1.363 . S
C4938 C4937 1.415 . S
C4939 H4915 0.951 . S
C4939 C4940 1.366 . S
C4939 C4941 1.388 . S
C4940 C4939 1.366 . S
C4940 C4944 1.385 . S
C4941 H4916 0.951 . S
C4941 C4939 1.388 . S
C4941 C4942 1.366 . S
C4942 C4941 1.366 . S
C4942 C4943 1.414 . S
C4942 C4945 1.499 . S
C4943 H4917 0.950 . S
C4943 C4942 1.414 . S
C4943 C4944 1.374 . S
C4944 H4918 0.950 . S
C4944 C4940 1.385 . S
C4944 C4943 1.374 . S
C4945 C4942 1.499 . S
C4945 C4946 1.373 . S
C4945 C4947 1.389 . S
C4946 H4919 0.950 . S
C4946 C4932 1.377 . S
C4946 C4945 1.373 . S
C4947 C4931 1.377 . S
C4947 C4945 1.389 . S
C4947 C4948 1.524 . S
C4948 C4947 1.524 . S
C4948 C4949 1.397 . S
C4948 C4953 1.363 . S
C4949 H4920 0.950 . S
C4949 C4948 1.397 . S
C4949 C4950 1.334 . S
C4950 H4921 0.950 . S
C4950 C4949 1.334 . S
C4950 C4951 1.287 . S
C4951 C4950 1.287 . S
C4951 C4952 1.524 . S
C4951 H4954 0.999 . S
C4952 H4922 0.950 . S
C4952 C4951 1.524 . S
C4952 C4953 1.415 . S
C4953 H4923 0.950 . S
C4953 C4948 1.363 . S
C4953 C4952 1.415 . S
H4954 C4951 0.999 . S
H4955 C4936 0.913 . S
H4956 C4974 0.951 . S
H4957 C4976 0.951 . S
H4958 C4978 0.950 . S
H4959 C4979 0.950 . S
H4960 C4981 0.950 . S
H4961 C4984 0.950 . S
H4962 C4985 0.950 . S
H4963 C4987 0.950 . S
H4964 C4988 0.950 . S
H4965 C4989 0.989 . S
H4966 C4991 0.951 . S
H4967 C4993 0.950 . S
H4968 C4994 0.950 . S
H4969 C4996 0.950 . S
H4970 C4999 0.950 . S
H4971 C5000 0.950 . S
H4972 C5002 0.950 . S
H4973 C5003 0.950 . S
C4974 H4956 0.951 . S
C4974 C4975 1.366 . S
C4974 C4976 1.388 . S
C4975 C4974 1.366 . S
C4975 C4979 1.385 . S
C4976 H4957 0.951 . S
C4976 C4974 1.388 . S
C4976 C4977 1.366 . S
C4977 C4976 1.366 . S
C4977 C4978 1.414 . S
C4977 C4980 1.499 . S
C4978 H4958 0.950 . S
C4978 C4977 1.414 . S
C4978 C4979 1.374 . S
C4979 H4959 0.950 . S
C4979 C4975 1.385 . S
C4979 C4978 1.374 . S
C4980 C4977 1.499 . S
C4980 C4981 1.373 . S
C4980 C4982 1.389 . S
C4981 H4960 0.950 . S
C4981 C4980 1.373 . S
C4981 C4997 1.377 . S
C4982 C4980 1.389 . S
C4982 C4983 1.524 . S
C4982 C4996 1.377 . S
C4983 C4982 1.524 . S
C4983 C4984 1.397 . S
C4983 C4988 1.363 . S
C4984 H4961 0.950 . S
C4984 C4983 1.397 . S
C4984 C4985 1.334 . S
C4985 H4962 0.950 . S
C4985 C4984 1.334 . S
C4985 C4986 1.287 . S
C4986 C4985 1.287 . S
C4986 C4987 1.524 . S
C4986 H5005 0.913 . S
C4987 H4963 0.950 . S
C4987 C4986 1.524 . S
C4987 C4988 1.415 . S
C4988 H4964 0.950 . S
C4988 C4983 1.363 . S
C4988 C4987 1.415 . S
C4989 H4965 0.989 . S
C4989 C4990 1.366 . S
C4989 C4991 1.388 . S
C4990 C4989 1.366 . S
C4990 C4994 1.385 . S
C4991 H4966 0.951 . S
C4991 C4989 1.388 . S
C4991 C4992 1.366 . S
C4992 C4991 1.366 . S
C4992 C4993 1.414 . S
C4992 C4995 1.499 . S
C4993 H4967 0.950 . S
C4993 C4992 1.414 . S
C4993 C4994 1.374 . S
C4994 H4968 0.950 . S
C4994 C4990 1.385 . S
C4994 C4993 1.374 . S
C4995 C4992 1.499 . S
C4995 C4996 1.373 . S
C4995 C4997 1.389 . S
C4996 H4969 0.950 . S
C4996 C4982 1.377 . S
C4996 C4995 1.373 . S
C4997 C4981 1.377 . S
C4997 C4995 1.389 . S
C4997 C4998 1.524 . S
C4998 C4997 1.524 . S
C4998 C4999 1.397 . S
C4998 C5003 1.363 . S
C4999 H4970 0.950 . S
C4999 C4998 1.397 . S
C4999 C5000 1.334 . S
C5000 H4971 0.950 . S
C5000 C4999 1.334 . S
C5000 C5001 1.287 . S
C5001 C5000 1.287 . S
C5001 C5002 1.524 . S
C5001 H5004 0.999 . S
C5002 H4972 0.950 . S
C5002 C5001 1.524 . S
C5002 C5003 1.415 . S
C5003 H4973 0.950 . S
C5003 C4998 1.363 . S
C5003 C5002 1.415 . S
H5004 C5001 0.999 . S
H5005 C4986 0.913 . S
H5006 C5024 0.951 . S
H5007 C5026 0.951 . S
H5008 C5028 0.950 . S
H5009 C5029 0.950 . S
H5010 C5031 0.950 . S
H5011 C5034 0.950 . S
H5012 C5035 0.950 . S
H5013 C5037 0.950 . S
H5014 C5038 0.950 . S
H5015 C5039 0.951 . S
H5016 C5041 0.951 . S
H5017 C5043 0.950 . S
H5018 C5044 0.950 . S
H5019 C5046 0.950 . S
H5020 C5049 0.950 . S
H5021 C5050 0.950 . S
H5022 C5052 0.950 . S
H5023 C5053 0.950 . S
C5024 H5006 0.951 . S
C5024 C5025 1.366 . S
C5024 C5026 1.388 . S
C5025 C5024 1.366 . S
C5025 C5029 1.385 . S
C5026 H5007 0.951 . S
C5026 C5024 1.388 . S
C5026 C5027 1.366 . S
C5027 C5026 1.366 . S
C5027 C5028 1.414 . S
C5027 C5030 1.499 . S
C5028 H5008 0.950 . S
C5028 C5027 1.414 . S
C5028 C5029 1.374 . S
C5029 H5009 0.950 . S
C5029 C5025 1.385 . S
C5029 C5028 1.374 . S
C5030 C5027 1.499 . S
C5030 C5031 1.373 . S
C5030 C5032 1.389 . S
C5031 H5010 0.950 . S
C5031 C5030 1.373 . S
C5031 C5047 1.377 . S
C5032 C5030 1.389 . S
C5032 C5033 1.524 . S
C5032 C5046 1.377 . S
C5033 C5032 1.524 . S
C5033 C5034 1.397 . S
C5033 C5038 1.363 . S
C5034 H5011 0.950 . S
C5034 C5033 1.397 . S
C5034 C5035 1.334 . S
C5035 H5012 0.950 . S
C5035 C5034 1.334 . S
C5035 C5036 1.287 . S
C5036 C5035 1.287 . S
C5036 C5037 1.524 . S
C5036 H5055 0.913 . S
C5037 H5013 0.950 . S
C5037 C5036 1.524 . S
C5037 C5038 1.415 . S
C5038 H5014 0.950 . S
C5038 C5033 1.363 . S
C5038 C5037 1.415 . S
C5039 H5015 0.951 . S
C5039 C5040 1.366 . S
C5039 C5041 1.388 . S
C5040 C5039 1.366 . S
C5040 C5044 1.385 . S
C5041 H5016 0.951 . S
C5041 C5039 1.388 . S
C5041 C5042 1.366 . S
C5042 C5041 1.366 . S
C5042 C5043 1.414 . S
C5042 C5045 1.499 . S
C5043 H5017 0.950 . S
C5043 C5042 1.414 . S
C5043 C5044 1.374 . S
C5044 H5018 0.950 . S
C5044 C5040 1.385 . S
C5044 C5043 1.374 . S
C5045 C5042 1.499 . S
C5045 C5046 1.373 . S
C5045 C5047 1.389 . S
C5046 H5019 0.950 . S
C5046 C5032 1.377 . S
C5046 C5045 1.373 . S
C5047 C5031 1.377 . S
C5047 C5045 1.389 . S
C5047 C5048 1.524 . S
C5048 C5047 1.524 . S
C5048 C5049 1.397 . S
C5048 C5053 1.363 . S
C5049 H5020 0.950 . S
C5049 C5048 1.397 . S
C5049 C5050 1.334 . S
C5050 H5021 0.950 . S
C5050 C5049 1.334 . S
C5050 C5051 1.287 . S
C5051 C5050 1.287 . S
C5051 C5052 1.524 . S
C5051 H5054 0.999 . S
C5052 H5022 0.950 . S
C5052 C5051 1.524 . S
C5052 C5053 1.415 . S
C5053 H5023 0.950 . S
C5053 C5048 1.363 . S
C5053 C5052 1.415 . S
H5054 C5051 0.999 . S
H5055 C5036 0.913 . S
H5056 C5074 0.951 . S
H5057 C5076 0.951 . S
H5058 C5078 0.950 . S
H5059 C5079 0.950 . S
H5060 C5081 0.950 . S
H5061 C5084 0.950 . S
H5062 C5085 0.950 . S
H5063 C5087 0.950 . S
H5064 C5088 0.950 . S
H5065 C5089 0.951 . S
H5066 C5091 0.951 . S
H5067 C5093 0.950 1_565 S
H5068 C5094 0.950 1_565 S
H5069 C5096 0.950 . S
H5070 C5099 0.950 . S
H5071 C5100 0.950 . S
H5072 C5102 0.950 . S
H5073 C5103 0.950 . S
C5074 H5056 0.951 . S
C5074 C5075 1.366 . S
C5074 C5076 1.388 . S
C5075 C5074 1.366 . S
C5075 C5079 1.385 . S
C5076 H5057 0.951 . S
C5076 C5074 1.388 . S
C5076 C5077 1.366 . S
C5077 C5076 1.366 . S
C5077 C5078 1.414 . S
C5077 C5080 1.499 . S
C5078 H5058 0.950 . S
C5078 C5077 1.414 . S
C5078 C5079 1.374 . S
C5079 H5059 0.950 . S
C5079 C5075 1.385 . S
C5079 C5078 1.374 . S
C5080 C5077 1.499 . S
C5080 C5081 1.373 . S
C5080 C5082 1.389 . S
C5081 H5060 0.950 . S
C5081 C5080 1.373 . S
C5081 C5097 1.377 . S
C5082 C5080 1.389 . S
C5082 C5083 1.524 . S
C5082 C5096 1.377 . S
C5083 C5082 1.524 . S
C5083 C5084 1.397 . S
C5083 C5088 1.363 . S
C5084 H5061 0.950 . S
C5084 C5083 1.397 . S
C5084 C5085 1.334 . S
C5085 H5062 0.950 . S
C5085 C5084 1.334 . S
C5085 C5086 1.287 . S
C5086 C5085 1.287 . S
C5086 C5087 1.524 . S
C5086 H5105 0.913 . S
C5087 H5063 0.950 . S
C5087 C5086 1.524 . S
C5087 C5088 1.415 . S
C5088 H5064 0.950 . S
C5088 C5083 1.363 . S
C5088 C5087 1.415 . S
C5089 H5065 0.951 . S
C5089 C5090 1.366 . S
C5089 C5091 1.388 . S
C5090 C5089 1.366 . S
C5090 C5094 1.385 . S
C5091 H5066 0.951 . S
C5091 C5089 1.388 . S
C5091 C5092 1.366 . S
C5092 C5091 1.366 . S
C5092 C5093 1.414 . S
C5092 C5095 1.499 . S
C5093 H5067 0.950 1_545 S
C5093 C5092 1.414 . S
C5093 C5094 1.374 . S
C5094 H5068 0.950 1_545 S
C5094 C5090 1.385 . S
C5094 C5093 1.374 . S
C5095 C5092 1.499 . S
C5095 C5096 1.373 . S
C5095 C5097 1.389 . S
C5096 H5069 0.950 . S
C5096 C5082 1.377 . S
C5096 C5095 1.373 . S
C5097 C5081 1.377 . S
C5097 C5095 1.389 . S
C5097 C5098 1.524 . S
C5098 C5097 1.524 . S
C5098 C5099 1.397 1_545 S
C5098 C5103 1.363 . S
C5099 H5070 0.950 . S
C5099 C5098 1.397 1_565 S
C5099 C5100 1.334 . S
C5100 H5071 0.950 . S
C5100 C5099 1.334 . S
C5100 C5101 1.287 . S
C5101 C5100 1.287 . S
C5101 C5102 1.524 1_565 S
C5101 H5104 0.999 . S
C5102 H5072 0.950 . S
C5102 C5101 1.524 1_545 S
C5102 C5103 1.415 . S
C5103 H5073 0.950 . S
C5103 C5098 1.363 . S
C5103 C5102 1.415 . S
H5104 C5101 0.999 . S
H5105 C5086 0.913 . S
H5106 C5124 0.951 . S
H5107 C5126 0.951 . S
H5108 C5128 0.950 . S
H5109 C5129 0.950 . S
H5110 C5131 0.950 . S
H5111 C5134 0.950 . S
H5112 C5135 0.950 . S
H5113 C5137 0.950 . S
H5114 C5138 0.950 . S
H5115 C5139 0.951 . S
H5116 C5141 0.951 . S
H5117 C5143 0.950 . S
H5118 C5144 0.950 . S
H5119 C5146 0.950 . S
H5120 C5149 0.950 . S
H5121 C5150 0.950 . S
H5122 C5152 0.950 . S
H5123 C5153 0.950 . S
C5124 H5106 0.951 . S
C5124 C5125 1.366 . S
C5124 C5126 1.388 . S
C5125 C5124 1.366 . S
C5125 C5129 1.385 . S
C5126 H5107 0.951 . S
C5126 C5124 1.388 . S
C5126 C5127 1.366 . S
C5127 C5126 1.366 . S
C5127 C5128 1.414 . S
C5127 C5130 1.499 . S
C5128 H5108 0.950 . S
C5128 C5127 1.414 . S
C5128 C5129 1.374 . S
C5129 H5109 0.950 . S
C5129 C5125 1.385 . S
C5129 C5128 1.374 . S
C5130 C5127 1.499 . S
C5130 C5131 1.373 . S
C5130 C5132 1.389 . S
C5131 H5110 0.950 . S
C5131 C5130 1.373 . S
C5131 C5147 1.377 . S
C5132 C5130 1.389 . S
C5132 C5133 1.524 . S
C5132 C5146 1.377 . S
C5133 C5132 1.524 . S
C5133 C5134 1.397 . S
C5133 C5138 1.363 . S
C5134 H5111 0.950 . S
C5134 C5133 1.397 . S
C5134 C5135 1.334 . S
C5135 H5112 0.950 . S
C5135 C5134 1.334 . S
C5135 C5136 1.287 . S
C5136 C5135 1.287 . S
C5136 C5137 1.524 . S
C5136 H5155 0.913 . S
C5137 H5113 0.950 . S
C5137 C5136 1.524 . S
C5137 C5138 1.415 . S
C5138 H5114 0.950 . S
C5138 C5133 1.363 . S
C5138 C5137 1.415 . S
C5139 H5115 0.951 . S
C5139 C5140 1.366 . S
C5139 C5141 1.388 . S
C5140 C5139 1.366 . S
C5140 C5144 1.385 . S
C5141 H5116 0.951 . S
C5141 C5139 1.388 . S
C5141 C5142 1.366 . S
C5142 C5141 1.366 . S
C5142 C5143 1.414 . S
C5142 C5145 1.499 . S
C5143 H5117 0.950 . S
C5143 C5142 1.414 . S
C5143 C5144 1.374 . S
C5144 H5118 0.950 . S
C5144 C5140 1.385 . S
C5144 C5143 1.374 . S
C5145 C5142 1.499 . S
C5145 C5146 1.373 . S
C5145 C5147 1.389 . S
C5146 H5119 0.950 . S
C5146 C5132 1.377 . S
C5146 C5145 1.373 . S
C5147 C5131 1.377 . S
C5147 C5145 1.389 . S
C5147 C5148 1.524 . S
C5148 C5147 1.524 . S
C5148 C5149 1.397 . S
C5148 C5153 1.363 . S
C5149 H5120 0.950 . S
C5149 C5148 1.397 . S
C5149 C5150 1.334 . S
C5150 H5121 0.950 . S
C5150 C5149 1.334 . S
C5150 C5151 1.287 . S
C5151 C5150 1.287 . S
C5151 C5152 1.524 . S
C5151 H5154 0.999 . S
C5152 H5122 0.950 . S
C5152 C5151 1.524 . S
C5152 C5153 1.415 . S
C5153 H5123 0.950 . S
C5153 C5148 1.363 . S
C5153 C5152 1.415 . S
H5154 C5151 0.999 . S
H5155 C5136 0.913 . S
H5156 C5174 0.951 . S
H5157 C5176 0.951 . S
H5158 C5178 0.950 . S
H5159 C5179 0.950 . S
H5160 C5181 0.950 . S
H5161 C5184 0.950 . S
H5162 C5185 0.950 . S
H5163 C5187 0.950 . S
H5164 C5188 0.950 . S
H5165 C5189 0.951 . S
H5166 C5191 0.951 . S
H5167 C5193 0.950 . S
H5168 C5194 0.950 . S
H5169 C5196 0.950 1_565 S
H5170 C5199 0.950 . S
H5171 C5200 0.950 . S
H5172 C5202 0.950 . S
H5173 C5203 0.950 . S
C5174 H5156 0.951 . S
C5174 C5175 1.366 . S
C5174 C5176 1.388 . S
C5175 C5174 1.366 . S
C5175 C5179 1.385 . S
C5176 H5157 0.951 . S
C5176 C5174 1.388 . S
C5176 C5177 1.366 . S
C5177 C5176 1.366 . S
C5177 C5178 1.414 . S
C5177 C5180 1.499 . S
C5178 H5158 0.950 . S
C5178 C5177 1.414 . S
C5178 C5179 1.374 . S
C5179 H5159 0.950 . S
C5179 C5175 1.385 . S
C5179 C5178 1.374 . S
C5180 C5177 1.499 . S
C5180 C5181 1.373 . S
C5180 C5182 1.389 . S
C5181 H5160 0.950 . S
C5181 C5180 1.373 . S
C5181 C5197 1.377 . S
C5182 C5180 1.389 . S
C5182 C5183 1.524 1_545 S
C5182 C5196 1.377 . S
C5183 C5182 1.524 1_565 S
C5183 C5184 1.397 . S
C5183 C5188 1.363 . S
C5184 H5161 0.950 . S
C5184 C5183 1.397 . S
C5184 C5185 1.334 . S
C5185 H5162 0.950 . S
C5185 C5184 1.334 . S
C5185 C5186 1.287 . S
C5186 C5185 1.287 . S
C5186 C5187 1.524 . S
C5186 H5205 0.913 . S
C5187 H5163 0.950 . S
C5187 C5186 1.524 . S
C5187 C5188 1.415 . S
C5188 H5164 0.950 . S
C5188 C5183 1.363 . S
C5188 C5187 1.415 . S
C5189 H5165 0.951 . S
C5189 C5190 1.366 . S
C5189 C5191 1.388 . S
C5190 C5189 1.366 . S
C5190 C5194 1.385 . S
C5191 H5166 0.951 . S
C5191 C5189 1.388 . S
C5191 C5192 1.366 . S
C5192 C5191 1.366 . S
C5192 C5193 1.414 . S
C5192 C5195 1.499 . S
C5193 H5167 0.950 . S
C5193 C5192 1.414 . S
C5193 C5194 1.374 . S
C5194 H5168 0.950 . S
C5194 C5190 1.385 . S
C5194 C5193 1.374 . S
C5195 C5192 1.499 . S
C5195 C5196 1.373 . S
C5195 C5197 1.389 . S
C5196 H5169 0.950 1_545 S
C5196 C5182 1.377 . S
C5196 C5195 1.373 . S
C5197 C5181 1.377 . S
C5197 C5195 1.389 . S
C5197 C5198 1.524 . S
C5198 C5197 1.524 . S
C5198 C5199 1.397 . S
C5198 C5203 1.363 . S
C5199 H5170 0.950 . S
C5199 C5198 1.397 . S
C5199 C5200 1.334 . S
C5200 H5171 0.950 . S
C5200 C5199 1.334 . S
C5200 C5201 1.287 . S
C5201 C5200 1.287 . S
C5201 C5202 1.524 . S
C5201 H5204 0.999 . S
C5202 H5172 0.950 . S
C5202 C5201 1.524 . S
C5202 C5203 1.415 . S
C5203 H5173 0.950 . S
C5203 C5198 1.363 . S
C5203 C5202 1.415 . S
H5204 C5201 0.999 . S
H5205 C5186 0.913 . S
H5206 C5224 0.951 . S
H5207 C5226 0.951 . S
H5208 C5228 0.950 . S
H5209 C5229 0.950 . S
H5210 C5231 0.950 . S
H5211 C5234 0.950 . S
H5212 C5235 0.950 . S
H5213 C5237 0.950 . S
H5214 C5238 0.950 . S
H5215 C5239 0.951 . S
H5216 C5241 0.951 . S
H5217 C5243 0.950 . S
H5218 C5244 0.950 . S
H5219 C5246 0.950 . S
H5220 C5249 0.950 . S
H5221 C5250 0.950 . S
H5222 C5252 0.950 . S
H5223 C5253 0.950 . S
C5224 H5206 0.951 . S
C5224 C5225 1.366 . S
C5224 C5226 1.388 . S
C5225 C5224 1.366 . S
C5225 C5229 1.385 . S
C5226 H5207 0.951 . S
C5226 C5224 1.388 . S
C5226 C5227 1.366 . S
C5227 C5226 1.366 . S
C5227 C5228 1.414 . S
C5227 C5230 1.499 . S
C5228 H5208 0.950 . S
C5228 C5227 1.414 . S
C5228 C5229 1.374 . S
C5229 H5209 0.950 . S
C5229 C5225 1.385 . S
C5229 C5228 1.374 . S
C5230 C5227 1.499 . S
C5230 C5231 1.373 . S
C5230 C5232 1.389 . S
C5231 H5210 0.950 . S
C5231 C5230 1.373 . S
C5231 C5247 1.377 . S
C5232 C5230 1.389 . S
C5232 C5233 1.524 . S
C5232 C5246 1.377 . S
C5233 C5232 1.524 . S
C5233 C5234 1.397 . S
C5233 C5238 1.363 . S
C5234 H5211 0.950 . S
C5234 C5233 1.397 . S
C5234 C5235 1.334 . S
C5235 H5212 0.950 . S
C5235 C5234 1.334 . S
C5235 C5236 1.287 . S
C5236 C5235 1.287 . S
C5236 C5237 1.524 . S
C5236 H5255 0.913 . S
C5237 H5213 0.950 . S
C5237 C5236 1.524 . S
C5237 C5238 1.415 . S
C5238 H5214 0.950 . S
C5238 C5233 1.363 . S
C5238 C5237 1.415 . S
C5239 H5215 0.951 . S
C5239 C5240 1.366 . S
C5239 C5241 1.388 . S
C5240 C5239 1.366 . S
C5240 C5244 1.385 . S
C5241 H5216 0.951 . S
C5241 C5239 1.388 . S
C5241 C5242 1.366 . S
C5242 C5241 1.366 . S
C5242 C5243 1.414 . S
C5242 C5245 1.499 . S
C5243 H5217 0.950 . S
C5243 C5242 1.414 . S
C5243 C5244 1.374 . S
C5244 H5218 0.950 . S
C5244 C5240 1.385 . S
C5244 C5243 1.374 . S
C5245 C5242 1.499 . S
C5245 C5246 1.373 . S
C5245 C5247 1.389 . S
C5246 H5219 0.950 . S
C5246 C5232 1.377 . S
C5246 C5245 1.373 . S
C5247 C5231 1.377 . S
C5247 C5245 1.389 . S
C5247 C5248 1.524 . S
C5248 C5247 1.524 . S
C5248 C5249 1.397 . S
C5248 C5253 1.363 . S
C5249 H5220 0.950 . S
C5249 C5248 1.397 . S
C5249 C5250 1.334 . S
C5250 H5221 0.950 . S
C5250 C5249 1.334 . S
C5250 C5251 1.287 . S
C5251 C5250 1.287 . S
C5251 C5252 1.524 . S
C5251 H5254 0.999 . S
C5252 H5222 0.950 . S
C5252 C5251 1.524 . S
C5252 C5253 1.415 . S
C5253 H5223 0.950 . S
C5253 C5248 1.363 . S
C5253 C5252 1.415 . S
H5254 C5251 0.999 . S
H5255 C5236 0.913 . S
H5256 C5274 0.951 . S
H5257 C5276 0.951 . S
H5258 C5278 0.950 . S
H5259 C5279 0.950 . S
H5260 C5281 0.950 . S
H5261 C5284 0.950 . S
H5262 C5285 0.950 . S
H5263 C5287 0.950 1_655 S
H5264 C5288 0.950 . S
H5265 C5289 0.951 . S
H5266 C5291 0.951 . S
H5267 C5293 0.950 . S
H5268 C5294 0.950 . S
H5269 C5296 0.950 . S
H5270 C5299 0.950 . S
H5271 C5300 0.950 . S
H5272 C5302 0.950 . S
H5273 C5303 0.950 . S
C5274 H5256 0.951 . S
C5274 C5275 1.366 . S
C5274 C5276 1.388 . S
C5275 C5274 1.366 . S
C5275 C5279 1.385 . S
C5276 H5257 0.951 . S
C5276 C5274 1.388 . S
C5276 C5277 1.366 . S
C5277 C5276 1.366 . S
C5277 C5278 1.414 . S
C5277 C5280 1.499 . S
C5278 H5258 0.950 . S
C5278 C5277 1.414 . S
C5278 C5279 1.374 . S
C5279 H5259 0.950 . S
C5279 C5275 1.385 . S
C5279 C5278 1.374 . S
C5280 C5277 1.499 . S
C5280 C5281 1.373 . S
C5280 C5282 1.389 . S
C5281 H5260 0.950 . S
C5281 C5280 1.373 . S
C5281 C5297 1.377 . S
C5282 C5280 1.389 . S
C5282 C5283 1.524 . S
C5282 C5296 1.377 . S
C5283 C5282 1.524 . S
C5283 C5284 1.397 1_545 S
C5283 C5288 1.363 . S
C5284 H5261 0.950 . S
C5284 C5283 1.397 1_565 S
C5284 C5285 1.334 . S
C5285 H5262 0.950 . S
C5285 C5284 1.334 . S
C5285 C5286 1.287 . S
C5286 C5285 1.287 . S
C5286 C5287 1.524 . S
C5286 H5305 0.913 . S
C5287 H5263 0.950 1_455 S
C5287 C5286 1.524 . S
C5287 C5288 1.415 1_565 S
C5288 H5264 0.950 . S
C5288 C5283 1.363 . S
C5288 C5287 1.415 1_545 S
C5289 H5265 0.951 . S
C5289 C5290 1.366 . S
C5289 C5291 1.388 . S
C5290 C5289 1.366 . S
C5290 C5294 1.385 . S
C5291 H5266 0.951 . S
C5291 C5289 1.388 . S
C5291 C5292 1.366 . S
C5292 C5291 1.366 . S
C5292 C5293 1.414 . S
C5292 C5295 1.499 . S
C5293 H5267 0.950 . S
C5293 C5292 1.414 . S
C5293 C5294 1.374 . S
C5294 H5268 0.950 . S
C5294 C5290 1.385 . S
C5294 C5293 1.374 . S
C5295 C5292 1.499 . S
C5295 C5296 1.373 . S
C5295 C5297 1.389 . S
C5296 H5269 0.950 . S
C5296 C5282 1.377 . S
C5296 C5295 1.373 . S
C5297 C5281 1.377 . S
C5297 C5295 1.389 . S
C5297 C5298 1.524 . S
C5298 C5297 1.524 . S
C5298 C5299 1.397 . S
C5298 C5303 1.363 . S
C5299 H5270 0.950 . S
C5299 C5298 1.397 . S
C5299 C5300 1.334 . S
C5300 H5271 0.950 . S
C5300 C5299 1.334 . S
C5300 C5301 1.287 . S
C5301 C5300 1.287 . S
C5301 C5302 1.524 . S
C5301 H5304 0.999 . S
C5302 H5272 0.950 . S
C5302 C5301 1.524 . S
C5302 C5303 1.415 . S
C5303 H5273 0.950 . S
C5303 C5298 1.363 . S
C5303 C5302 1.415 . S
H5304 C5301 0.999 . S
H5305 C5286 0.913 . S
H5306 C5324 0.951 . S
H5307 C5326 0.951 . S
H5308 C5328 0.950 . S
H5309 C5329 0.950 . S
H5310 C5331 0.950 . S
H5311 C5334 0.950 . S
H5312 C5335 0.950 . S
H5313 C5337 0.950 . S
H5314 C5338 0.950 . S
H5315 C5339 0.951 . S
H5316 C5341 0.951 . S
H5317 C5343 0.950 . S
H5318 C5344 0.950 . S
H5319 C5346 0.950 . S
H5320 C5349 0.950 . S
H5321 C5350 0.950 . S
H5322 C5352 0.950 . S
H5323 C5353 0.950 . S
C5324 H5306 0.951 . S
C5324 C5325 1.366 . S
C5324 C5326 1.388 . S
C5325 C5324 1.366 . S
C5325 C5329 1.385 . S
C5326 H5307 0.951 . S
C5326 C5324 1.388 . S
C5326 C5327 1.366 . S
C5327 C5326 1.366 . S
C5327 C5328 1.414 . S
C5327 C5330 1.499 . S
C5328 H5308 0.950 . S
C5328 C5327 1.414 . S
C5328 C5329 1.374 . S
C5329 H5309 0.950 . S
C5329 C5325 1.385 . S
C5329 C5328 1.374 . S
C5330 C5327 1.499 . S
C5330 C5331 1.373 . S
C5330 C5332 1.389 . S
C5331 H5310 0.950 . S
C5331 C5330 1.373 . S
C5331 C5347 1.377 . S
C5332 C5330 1.389 . S
C5332 C5333 1.524 . S
C5332 C5346 1.377 . S
C5333 C5332 1.524 . S
C5333 C5334 1.397 . S
C5333 C5338 1.363 . S
C5334 H5311 0.950 . S
C5334 C5333 1.397 . S
C5334 C5335 1.334 . S
C5335 H5312 0.950 . S
C5335 C5334 1.334 . S
C5335 C5336 1.287 . S
C5336 C5335 1.287 . S
C5336 C5337 1.524 . S
C5336 H5355 0.913 . S
C5337 H5313 0.950 . S
C5337 C5336 1.524 . S
C5337 C5338 1.415 . S
C5338 H5314 0.950 . S
C5338 C5333 1.363 . S
C5338 C5337 1.415 . S
C5339 H5315 0.951 . S
C5339 C5340 1.366 . S
C5339 C5341 1.388 . S
C5340 C5339 1.366 . S
C5340 C5344 1.385 . S
C5341 H5316 0.951 . S
C5341 C5339 1.388 . S
C5341 C5342 1.366 . S
C5342 C5341 1.366 . S
C5342 C5343 1.414 . S
C5342 C5345 1.499 . S
C5343 H5317 0.950 . S
C5343 C5342 1.414 . S
C5343 C5344 1.374 . S
C5344 H5318 0.950 . S
C5344 C5340 1.385 . S
C5344 C5343 1.374 . S
C5345 C5342 1.499 . S
C5345 C5346 1.373 . S
C5345 C5347 1.389 . S
C5346 H5319 0.950 . S
C5346 C5332 1.377 . S
C5346 C5345 1.373 . S
C5347 C5331 1.377 . S
C5347 C5345 1.389 . S
C5347 C5348 1.524 . S
C5348 C5347 1.524 . S
C5348 C5349 1.397 . S
C5348 C5353 1.363 . S
C5349 H5320 0.950 . S
C5349 C5348 1.397 . S
C5349 C5350 1.334 . S
C5350 H5321 0.950 . S
C5350 C5349 1.334 . S
C5350 C5351 1.287 . S
C5351 C5350 1.287 . S
C5351 C5352 1.524 . S
C5351 H5354 0.999 . S
C5352 H5322 0.950 . S
C5352 C5351 1.524 . S
C5352 C5353 1.415 . S
C5353 H5323 0.950 . S
C5353 C5348 1.363 . S
C5353 C5352 1.415 . S
H5354 C5351 0.999 . S
H5355 C5336 0.913 . S
H5356 C5374 0.951 . S
H5357 C5376 0.951 . S
H5358 C5378 0.950 . S
H5359 C5379 0.950 . S
H5360 C5381 0.944 1_565 S
H5361 C5384 0.950 . S
H5362 C5385 0.950 . S
H5363 C5387 0.950 . S
H5364 C5388 0.950 . S
H5365 C5389 0.951 . S
H5366 C5391 0.951 . S
H5367 C5393 0.950 . S
H5368 C5394 0.950 . S
H5369 C5396 0.950 . S
H5370 C5399 0.950 . S
H5371 C5400 0.950 . S
H5372 C5402 0.950 . S
H5373 C5403 0.950 . S
C5374 H5356 0.951 . S
C5374 C5375 1.366 . S
C5374 C5376 1.388 . S
C5375 C5374 1.366 . S
C5375 C5379 1.385 . S
C5376 H5357 0.951 . S
C5376 C5374 1.388 . S
C5376 C5377 1.366 . S
C5377 C5376 1.366 . S
C5377 C5378 1.414 . S
C5377 C5380 1.499 . S
C5378 H5358 0.950 . S
C5378 C5377 1.414 . S
C5378 C5379 1.374 . S
C5379 H5359 0.950 . S
C5379 C5375 1.385 . S
C5379 C5378 1.374 . S
C5380 C5377 1.499 . S
C5380 C5381 1.382 . S
C5380 C5382 1.389 . S
C5381 H5360 0.944 1_545 S
C5381 C5380 1.382 . S
C5381 C5397 1.373 1_545 S
C5382 C5380 1.389 . S
C5382 C5383 1.524 . S
C5382 C5396 1.377 . S
C5383 C5382 1.524 . S
C5383 C5384 1.397 . S
C5383 C5388 1.363 . S
C5384 H5361 0.950 . S
C5384 C5383 1.397 . S
C5384 C5385 1.334 . S
C5385 H5362 0.950 . S
C5385 C5384 1.334 . S
C5385 C5386 1.287 . S
C5386 C5385 1.287 . S
C5386 C5387 1.524 . S
C5386 H5405 0.913 . S
C5387 H5363 0.950 . S
C5387 C5386 1.524 . S
C5387 C5388 1.415 . S
C5388 H5364 0.950 . S
C5388 C5383 1.363 . S
C5388 C5387 1.415 . S
C5389 H5365 0.951 . S
C5389 C5390 1.366 . S
C5389 C5391 1.388 . S
C5390 C5389 1.366 . S
C5390 C5394 1.385 . S
C5391 H5366 0.951 . S
C5391 C5389 1.388 . S
C5391 C5392 1.366 . S
C5392 C5391 1.366 . S
C5392 C5393 1.414 . S
C5392 C5395 1.499 . S
C5393 H5367 0.950 . S
C5393 C5392 1.414 . S
C5393 C5394 1.374 . S
C5394 H5368 0.950 . S
C5394 C5390 1.385 . S
C5394 C5393 1.374 . S
C5395 C5392 1.499 . S
C5395 C5396 1.373 . S
C5395 C5397 1.370 1_545 S
C5396 H5369 0.950 . S
C5396 C5382 1.377 . S
C5396 C5395 1.373 . S
C5397 C5381 1.373 1_565 S
C5397 C5395 1.370 1_565 S
C5397 C5398 1.554 . S
C5398 C5397 1.554 . S
C5398 C5399 1.397 . S
C5398 C5403 1.363 . S
C5399 H5370 0.950 . S
C5399 C5398 1.397 . S
C5399 C5400 1.334 . S
C5400 H5371 0.950 . S
C5400 C5399 1.334 . S
C5400 C5401 1.287 . S
C5401 C5400 1.287 . S
C5401 C5402 1.524 . S
C5401 H5404 0.999 . S
C5402 H5372 0.950 . S
C5402 C5401 1.524 . S
C5402 C5403 1.415 . S
C5403 H5373 0.950 . S
C5403 C5398 1.363 . S
C5403 C5402 1.415 . S
H5404 C5401 0.999 . S
H5405 C5386 0.913 . S
H5406 C5424 0.951 . S
H5407 C5426 0.951 . S
H5408 C5428 0.950 . S
H5409 C5429 0.950 . S
H5410 C5431 0.950 . S
H5411 C5434 0.950 . S
H5412 C5435 0.950 . S
H5413 C5437 0.950 . S
H5414 C5438 0.950 . S
H5415 C5439 0.951 . S
H5416 C5441 0.951 . S
H5417 C5443 0.950 . S
H5418 C5444 0.950 . S
H5419 C5446 0.950 . S
H5420 C5449 0.950 . S
H5421 C5450 0.950 . S
H5422 C5452 0.950 . S
H5423 C5453 0.950 . S
C5424 H5406 0.951 . S
C5424 C5425 1.366 . S
C5424 C5426 1.388 . S
C5425 C5424 1.366 . S
C5425 C5429 1.385 . S
C5426 H5407 0.951 . S
C5426 C5424 1.388 . S
C5426 C5427 1.366 . S
C5427 C5426 1.366 . S
C5427 C5428 1.414 . S
C5427 C5430 1.499 . S
C5428 H5408 0.950 . S
C5428 C5427 1.414 . S
C5428 C5429 1.374 . S
C5429 H5409 0.950 . S
C5429 C5425 1.385 . S
C5429 C5428 1.374 . S
C5430 C5427 1.499 . S
C5430 C5431 1.373 . S
C5430 C5432 1.389 . S
C5431 H5410 0.950 . S
C5431 C5430 1.373 . S
C5431 C5447 1.377 . S
C5432 C5430 1.389 . S
C5432 C5433 1.524 . S
C5432 C5446 1.377 . S
C5433 C5432 1.524 . S
C5433 C5434 1.397 . S
C5433 C5438 1.363 . S
C5434 H5411 0.950 . S
C5434 C5433 1.397 . S
C5434 C5435 1.334 . S
C5435 H5412 0.950 . S
C5435 C5434 1.334 . S
C5435 C5436 1.287 . S
C5436 C5435 1.287 . S
C5436 C5437 1.524 . S
C5436 H5455 0.913 . S
C5437 H5413 0.950 . S
C5437 C5436 1.524 . S
C5437 C5438 1.415 . S
C5438 H5414 0.950 . S
C5438 C5433 1.363 . S
C5438 C5437 1.415 . S
C5439 H5415 0.951 . S
C5439 C5440 1.366 . S
C5439 C5441 1.388 . S
C5440 C5439 1.366 . S
C5440 C5444 1.385 . S
C5441 H5416 0.951 . S
C5441 C5439 1.388 . S
C5441 C5442 1.366 . S
C5442 C5441 1.366 . S
C5442 C5443 1.414 . S
C5442 C5445 1.499 . S
C5443 H5417 0.950 . S
C5443 C5442 1.414 . S
C5443 C5444 1.374 . S
C5444 H5418 0.950 . S
C5444 C5440 1.385 . S
C5444 C5443 1.374 . S
C5445 C5442 1.499 . S
C5445 C5446 1.373 . S
C5445 C5447 1.389 . S
C5446 H5419 0.950 . S
C5446 C5432 1.377 . S
C5446 C5445 1.373 . S
C5447 C5431 1.377 . S
C5447 C5445 1.389 . S
C5447 C5448 1.524 . S
C5448 C5447 1.524 . S
C5448 C5449 1.397 . S
C5448 C5453 1.363 . S
C5449 H5420 0.950 . S
C5449 C5448 1.397 . S
C5449 C5450 1.334 . S
C5450 H5421 0.950 . S
C5450 C5449 1.334 . S
C5450 C5451 1.287 . S
C5451 C5450 1.287 . S
C5451 C5452 1.524 . S
C5451 H5454 0.999 . S
C5452 H5422 0.950 . S
C5452 C5451 1.524 . S
C5452 C5453 1.415 . S
C5453 H5423 0.950 . S
C5453 C5448 1.363 . S
C5453 C5452 1.415 . S
H5454 C5451 0.999 . S
H5455 C5436 0.913 . S
H5456 C5474 0.951 . S
H5457 C5476 0.951 . S
H5458 C5478 0.950 . S
H5459 C5479 0.950 . S
H5460 C5481 0.950 . S
H5461 C5484 0.950 . S
H5462 C5485 0.950 . S
H5463 C5487 0.950 . S
H5464 C5488 0.950 . S
H5465 C5489 0.951 . S
H5466 C5491 0.951 . S
H5467 C5493 0.950 . S
H5468 C5494 0.950 . S
H5469 C5496 0.950 . S
H5470 C5499 0.950 . S
H5471 C5500 0.950 . S
H5472 C5502 0.950 . S
H5473 C5503 0.950 . S
C5474 H5456 0.951 . S
C5474 C5475 1.366 . S
C5474 C5476 1.388 . S
C5475 C5474 1.366 . S
C5475 C5479 1.385 . S
C5476 H5457 0.951 . S
C5476 C5474 1.388 . S
C5476 C5477 1.366 . S
C5477 C5476 1.366 . S
C5477 C5478 1.414 . S
C5477 C5480 1.499 . S
C5478 H5458 0.950 . S
C5478 C5477 1.414 . S
C5478 C5479 1.374 . S
C5479 H5459 0.950 . S
C5479 C5475 1.385 . S
C5479 C5478 1.374 . S
C5480 C5477 1.499 . S
C5480 C5481 1.373 . S
C5480 C5482 1.389 . S
C5481 H5460 0.950 . S
C5481 C5480 1.373 . S
C5481 C5497 1.377 . S
C5482 C5480 1.389 . S
C5482 C5483 1.481 1_554 S
C5482 C5496 1.377 . S
C5483 C5482 1.481 1_556 S
C5483 C5484 1.412 . S
C5483 C5488 1.394 . S
C5484 H5461 0.950 . S
C5484 C5483 1.412 . S
C5484 C5485 1.334 . S
C5485 H5462 0.950 . S
C5485 C5484 1.334 . S
C5485 C5486 1.287 . S
C5486 C5485 1.287 . S
C5486 C5487 1.524 . S
C5486 H5505 0.913 . S
C5487 H5463 0.950 . S
C5487 C5486 1.524 . S
C5487 C5488 1.415 . S
C5488 H5464 0.950 . S
C5488 C5483 1.394 . S
C5488 C5487 1.415 . S
C5489 H5465 0.951 . S
C5489 C5490 1.366 . S
C5489 C5491 1.388 . S
C5490 C5489 1.366 . S
C5490 C5494 1.385 . S
C5491 H5466 0.951 . S
C5491 C5489 1.388 . S
C5491 C5492 1.366 . S
C5492 C5491 1.366 . S
C5492 C5493 1.414 . S
C5492 C5495 1.499 . S
C5493 H5467 0.950 . S
C5493 C5492 1.414 . S
C5493 C5494 1.374 . S
C5494 H5468 0.950 . S
C5494 C5490 1.385 . S
C5494 C5493 1.374 . S
C5495 C5492 1.499 . S
C5495 C5496 1.373 . S
C5495 C5497 1.389 . S
C5496 H5469 0.950 . S
C5496 C5482 1.377 . S
C5496 C5495 1.373 . S
C5497 C5481 1.377 . S
C5497 C5495 1.389 . S
C5497 C5498 1.524 . S
C5498 C5497 1.524 . S
C5498 C5499 1.397 . S
C5498 C5503 1.363 . S
C5499 H5470 0.950 . S
C5499 C5498 1.397 . S
C5499 C5500 1.334 . S
C5500 H5471 0.950 . S
C5500 C5499 1.334 . S
C5500 C5501 1.287 . S
C5501 C5500 1.287 . S
C5501 C5502 1.524 . S
C5501 H5504 0.999 . S
C5502 H5472 0.950 . S
C5502 C5501 1.524 . S
C5502 C5503 1.415 . S
C5503 H5473 0.950 . S
C5503 C5498 1.363 . S
C5503 C5502 1.415 . S
H5504 C5501 0.999 . S
H5505 C5486 0.913 . S
H5506 C5524 0.951 . S
H5507 C5526 0.951 . S
H5508 C5528 0.950 . S
H5509 C5529 0.950 . S
H5510 C5531 0.950 . S
H5511 C5534 0.950 1_554 S
H5512 C5535 0.950 . S
H5513 C5537 0.950 . S
H5514 C5538 0.950 1_554 S
H5515 C5539 0.951 . S
H5516 C5541 0.951 . S
H5517 C5543 0.950 . S
H5518 C5544 0.950 . S
H5519 C5546 0.950 . S
H5520 C5549 0.950 . S
H5521 C5550 0.950 . S
H5522 C5552 0.950 . S
H5523 C5553 0.950 . S
C5524 H5506 0.951 . S
C5524 C5525 1.366 . S
C5524 C5526 1.388 . S
C5525 C5524 1.366 . S
C5525 C5529 1.385 . S
C5526 H5507 0.951 . S
C5526 C5524 1.388 . S
C5526 C5527 1.366 . S
C5527 C5526 1.366 . S
C5527 C5528 1.414 . S
C5527 C5530 1.499 . S
C5528 H5508 0.950 . S
C5528 C5527 1.414 . S
C5528 C5529 1.374 . S
C5529 H5509 0.950 . S
C5529 C5525 1.385 . S
C5529 C5528 1.374 . S
C5530 C5527 1.499 . S
C5530 C5531 1.373 . S
C5530 C5532 1.389 . S
C5531 H5510 0.950 . S
C5531 C5530 1.373 . S
C5531 C5547 1.377 . S
C5532 C5530 1.389 . S
C5532 C5533 1.524 . S
C5532 C5546 1.377 . S
C5533 C5532 1.524 . S
C5533 C5534 1.397 1_554 S
C5533 C5538 1.363 1_554 S
C5534 H5511 0.950 1_556 S
C5534 C5533 1.397 1_556 S
C5534 C5535 1.334 . S
C5535 H5512 0.950 . S
C5535 C5534 1.334 . S
C5535 C5536 1.287 . S
C5536 C5535 1.287 . S
C5536 C5537 1.524 . S
C5536 H5555 0.913 . S
C5537 H5513 0.950 . S
C5537 C5536 1.524 . S
C5537 C5538 1.415 . S
C5538 H5514 0.950 1_556 S
C5538 C5533 1.363 1_556 S
C5538 C5537 1.415 . S
C5539 H5515 0.951 . S
C5539 C5540 1.366 . S
C5539 C5541 1.388 . S
C5540 C5539 1.366 . S
C5540 C5544 1.385 . S
C5541 H5516 0.951 . S
C5541 C5539 1.388 . S
C5541 C5542 1.366 . S
C5542 C5541 1.366 . S
C5542 C5543 1.414 . S
C5542 C5545 1.499 . S
C5543 H5517 0.950 . S
C5543 C5542 1.414 . S
C5543 C5544 1.374 . S
C5544 H5518 0.950 . S
C5544 C5540 1.385 . S
C5544 C5543 1.374 . S
C5545 C5542 1.499 . S
C5545 C5546 1.373 . S
C5545 C5547 1.389 . S
C5546 H5519 0.950 . S
C5546 C5532 1.377 . S
C5546 C5545 1.373 . S
C5547 C5531 1.377 . S
C5547 C5545 1.389 . S
C5547 C5548 1.524 . S
C5548 C5547 1.524 . S
C5548 C5549 1.397 . S
C5548 C5553 1.363 . S
C5549 H5520 0.950 . S
C5549 C5548 1.397 . S
C5549 C5550 1.334 . S
C5550 H5521 0.950 . S
C5550 C5549 1.334 . S
C5550 C5551 1.287 . S
C5551 C5550 1.287 . S
C5551 C5552 1.524 . S
C5551 H5554 0.999 . S
C5552 H5522 0.950 . S
C5552 C5551 1.524 . S
C5552 C5553 1.415 . S
C5553 H5523 0.950 . S
C5553 C5548 1.363 . S
C5553 C5552 1.415 . S
H5554 C5551 0.999 . S
H5555 C5536 0.913 . S
H5556 C5574 0.951 . S
H5557 C5576 0.951 . S
H5558 C5578 0.950 . S
H5559 C5579 0.950 . S
H5560 C5581 0.950 . S
H5561 C5584 0.950 . S
H5562 C5585 0.950 . S
H5563 C5587 0.950 . S
H5564 C5588 0.950 . S
H5565 C5589 0.951 . S
H5566 C5591 0.951 . S
H5567 C5593 0.950 . S
H5568 C5594 0.950 . S
H5569 C5596 0.950 . S
H5570 C5599 0.950 . S
H5571 C5600 0.950 . S
H5572 C5602 0.950 . S
H5573 C5603 0.950 . S
C5574 H5556 0.951 . S
C5574 C5575 1.366 . S
C5574 C5576 1.388 . S
C5575 C5574 1.366 . S
C5575 C5579 1.385 . S
C5576 H5557 0.951 . S
C5576 C5574 1.388 . S
C5576 C5577 1.366 . S
C5577 C5576 1.366 . S
C5577 C5578 1.414 . S
C5577 C5580 1.499 . S
C5578 H5558 0.950 . S
C5578 C5577 1.414 . S
C5578 C5579 1.374 . S
C5579 H5559 0.950 . S
C5579 C5575 1.385 . S
C5579 C5578 1.374 . S
C5580 C5577 1.499 . S
C5580 C5581 1.373 . S
C5580 C5582 1.389 . S
C5581 H5560 0.950 . S
C5581 C5580 1.373 . S
C5581 C5597 1.377 . S
C5582 C5580 1.389 . S
C5582 C5583 1.524 . S
C5582 C5596 1.377 . S
C5583 C5582 1.524 . S
C5583 C5584 1.397 . S
C5583 C5588 1.363 . S
C5584 H5561 0.950 . S
C5584 C5583 1.397 . S
C5584 C5585 1.334 . S
C5585 H5562 0.950 . S
C5585 C5584 1.334 . S
C5585 C5586 1.287 . S
C5586 C5585 1.287 . S
C5586 C5587 1.524 . S
C5586 H5605 0.913 . S
C5587 H5563 0.950 . S
C5587 C5586 1.524 . S
C5587 C5588 1.415 . S
C5588 H5564 0.950 . S
C5588 C5583 1.363 . S
C5588 C5587 1.415 . S
C5589 H5565 0.951 . S
C5589 C5590 1.366 . S
C5589 C5591 1.388 . S
C5590 C5589 1.366 . S
C5590 C5594 1.385 . S
C5591 H5566 0.951 . S
C5591 C5589 1.388 . S
C5591 C5592 1.366 . S
C5592 C5591 1.366 . S
C5592 C5593 1.414 . S
C5592 C5595 1.499 . S
C5593 H5567 0.950 . S
C5593 C5592 1.414 . S
C5593 C5594 1.374 . S
C5594 H5568 0.950 . S
C5594 C5590 1.385 . S
C5594 C5593 1.374 . S
C5595 C5592 1.499 . S
C5595 C5596 1.373 . S
C5595 C5597 1.389 . S
C5596 H5569 0.950 . S
C5596 C5582 1.377 . S
C5596 C5595 1.373 . S
C5597 C5581 1.377 . S
C5597 C5595 1.389 . S
C5597 C5598 1.524 . S
C5598 C5597 1.524 . S
C5598 C5599 1.397 . S
C5598 C5603 1.363 . S
C5599 H5570 0.950 . S
C5599 C5598 1.397 . S
C5599 C5600 1.334 . S
C5600 H5571 0.950 . S
C5600 C5599 1.334 . S
C5600 C5601 1.287 . S
C5601 C5600 1.287 . S
C5601 C5602 1.524 . S
C5601 H5604 0.999 . S
C5602 H5572 0.950 . S
C5602 C5601 1.524 . S
C5602 C5603 1.415 . S
C5603 H5573 0.950 . S
C5603 C5598 1.363 . S
C5603 C5602 1.415 . S
H5604 C5601 0.999 . S
H5605 C5586 0.913 . S
H5606 C5624 0.951 . S
H5607 C5626 0.951 . S
H5608 C5628 0.950 . S
H5609 C5629 0.950 . S
H5610 C5631 0.950 . S
H5611 C5634 0.950 . S
H5612 C5635 0.950 . S
H5613 C5637 0.950 . S
H5614 C5638 0.950 . S
H5615 C5639 0.951 . S
H5616 C5641 0.951 . S
H5617 C5643 0.950 . S
H5618 C5644 0.950 . S
H5619 C5646 0.950 . S
H5620 C5649 0.950 . S
H5621 C5650 0.950 . S
H5622 C5652 0.950 . S
H5623 C5653 0.950 . S
C5624 H5606 0.951 . S
C5624 C5625 1.366 . S
C5624 C5626 1.388 . S
C5625 C5624 1.366 . S
C5625 C5629 1.385 . S
C5626 H5607 0.951 . S
C5626 C5624 1.388 . S
C5626 C5627 1.366 . S
C5627 C5626 1.366 . S
C5627 C5628 1.414 . S
C5627 C5630 1.499 . S
C5628 H5608 0.950 . S
C5628 C5627 1.414 . S
C5628 C5629 1.374 . S
C5629 H5609 0.950 . S
C5629 C5625 1.385 . S
C5629 C5628 1.374 . S
C5630 C5627 1.499 . S
C5630 C5631 1.373 . S
C5630 C5632 1.389 . S
C5631 H5610 0.950 . S
C5631 C5630 1.373 . S
C5631 C5647 1.377 . S
C5632 C5630 1.389 . S
C5632 C5633 1.524 . S
C5632 C5646 1.377 . S
C5633 C5632 1.524 . S
C5633 C5634 1.397 . S
C5633 C5638 1.363 . S
C5634 H5611 0.950 . S
C5634 C5633 1.397 . S
C5634 C5635 1.334 . S
C5635 H5612 0.950 . S
C5635 C5634 1.334 . S
C5635 C5636 1.287 . S
C5636 C5635 1.287 . S
C5636 C5637 1.524 . S
C5636 H5655 0.913 . S
C5637 H5613 0.950 . S
C5637 C5636 1.524 . S
C5637 C5638 1.415 . S
C5638 H5614 0.950 . S
C5638 C5633 1.363 . S
C5638 C5637 1.415 . S
C5639 H5615 0.951 . S
C5639 C5640 1.366 . S
C5639 C5641 1.388 . S
C5640 C5639 1.366 . S
C5640 C5644 1.385 . S
C5641 H5616 0.951 . S
C5641 C5639 1.388 . S
C5641 C5642 1.366 . S
C5642 C5641 1.366 . S
C5642 C5643 1.414 . S
C5642 C5645 1.499 . S
C5643 H5617 0.950 . S
C5643 C5642 1.414 . S
C5643 C5644 1.374 . S
C5644 H5618 0.950 . S
C5644 C5640 1.385 . S
C5644 C5643 1.374 . S
C5645 C5642 1.499 . S
C5645 C5646 1.373 . S
C5645 C5647 1.389 . S
C5646 H5619 0.950 . S
C5646 C5632 1.377 . S
C5646 C5645 1.373 . S
C5647 C5631 1.377 . S
C5647 C5645 1.389 . S
C5647 C5648 1.524 . S
C5648 C5647 1.524 . S
C5648 C5649 1.397 . S
C5648 C5653 1.363 . S
C5649 H5620 0.950 . S
C5649 C5648 1.397 . S
C5649 C5650 1.334 . S
C5650 H5621 0.950 . S
C5650 C5649 1.334 . S
C5650 C5651 1.287 . S
C5651 C5650 1.287 . S
C5651 C5652 1.524 . S
C5651 H5654 0.999 . S
C5652 H5622 0.950 . S
C5652 C5651 1.524 . S
C5652 C5653 1.415 . S
C5653 H5623 0.950 . S
C5653 C5648 1.363 . S
C5653 C5652 1.415 . S
H5654 C5651 0.999 . S
H5655 C5636 0.913 . S
H5656 C5674 0.951 . S
H5657 C5676 0.951 . S
H5658 C5678 0.950 . S
H5659 C5679 0.950 . S
H5660 C5681 0.950 . S
H5661 C5684 0.950 . S
H5662 C5685 0.950 . S
H5663 C5687 0.950 . S
H5664 C5688 0.950 . S
H5665 C5689 0.951 . S
H5666 C5691 0.951 . S
H5667 C5693 0.950 . S
H5668 C5694 0.950 . S
H5669 C5696 0.950 . S
H5670 C5699 0.950 . S
H5671 C5700 0.950 . S
H5672 C5702 0.950 . S
H5673 C5703 0.950 . S
C5674 H5656 0.951 . S
C5674 C5675 1.366 . S
C5674 C5676 1.388 . S
C5675 C5674 1.366 . S
C5675 C5679 1.385 . S
C5676 H5657 0.951 . S
C5676 C5674 1.388 . S
C5676 C5677 1.366 . S
C5677 C5676 1.366 . S
C5677 C5678 1.414 . S
C5677 C5680 1.499 . S
C5678 H5658 0.950 . S
C5678 C5677 1.414 . S
C5678 C5679 1.374 . S
C5679 H5659 0.950 . S
C5679 C5675 1.385 . S
C5679 C5678 1.374 . S
C5680 C5677 1.499 . S
C5680 C5681 1.373 . S
C5680 C5682 1.389 . S
C5681 H5660 0.950 . S
C5681 C5680 1.373 . S
C5681 C5697 1.377 . S
C5682 C5680 1.389 . S
C5682 C5683 1.524 . S
C5682 C5696 1.377 . S
C5683 C5682 1.524 . S
C5683 C5684 1.397 . S
C5683 C5688 1.363 . S
C5684 H5661 0.950 . S
C5684 C5683 1.397 . S
C5684 C5685 1.334 . S
C5685 H5662 0.950 . S
C5685 C5684 1.334 . S
C5685 C5686 1.287 . S
C5686 C5685 1.287 . S
C5686 C5687 1.524 . S
C5686 H5705 0.913 . S
C5687 H5663 0.950 . S
C5687 C5686 1.524 . S
C5687 C5688 1.415 . S
C5688 H5664 0.950 . S
C5688 C5683 1.363 . S
C5688 C5687 1.415 . S
C5689 H5665 0.951 . S
C5689 C5690 1.366 . S
C5689 C5691 1.388 . S
C5690 C5689 1.366 . S
C5690 C5694 1.385 . S
C5691 H5666 0.951 . S
C5691 C5689 1.388 . S
C5691 C5692 1.366 . S
C5692 C5691 1.366 . S
C5692 C5693 1.414 . S
C5692 C5695 1.499 . S
C5693 H5667 0.950 . S
C5693 C5692 1.414 . S
C5693 C5694 1.374 . S
C5694 H5668 0.950 . S
C5694 C5690 1.385 . S
C5694 C5693 1.374 . S
C5695 C5692 1.499 . S
C5695 C5696 1.373 . S
C5695 C5697 1.389 . S
C5696 H5669 0.950 . S
C5696 C5682 1.377 . S
C5696 C5695 1.373 . S
C5697 C5681 1.377 . S
C5697 C5695 1.389 . S
C5697 C5698 1.524 . S
C5698 C5697 1.524 . S
C5698 C5699 1.397 . S
C5698 C5703 1.363 . S
C5699 H5670 0.950 . S
C5699 C5698 1.397 . S
C5699 C5700 1.334 . S
C5700 H5671 0.950 . S
C5700 C5699 1.334 . S
C5700 C5701 1.287 . S
C5701 C5700 1.287 . S
C5701 C5702 1.524 . S
C5701 H5704 0.999 . S
C5702 H5672 0.950 . S
C5702 C5701 1.524 . S
C5702 C5703 1.415 . S
C5703 H5673 0.950 . S
C5703 C5698 1.363 . S
C5703 C5702 1.415 . S
H5704 C5701 0.999 . S
H5705 C5686 0.913 . S
H5706 C5724 0.951 . S
H5707 C5726 0.951 . S
H5708 C5728 0.950 . S
H5709 C5729 0.950 . S
H5710 C5731 0.950 . S
H5711 C5734 0.950 . S
H5712 C5735 0.950 . S
H5713 C5737 0.950 1_545 S
H5714 C5738 0.950 . S
H5715 C5739 0.951 . S
H5716 C5741 0.951 . S
H5717 C5743 0.950 . S
H5718 C5744 0.950 . S
H5719 C5746 0.950 . S
H5720 C5749 0.950 . S
H5721 C5750 0.950 . S
H5722 C5752 0.950 . S
H5723 C5753 0.950 . S
C5724 H5706 0.951 . S
C5724 C5725 1.366 . S
C5724 C5726 1.388 . S
C5725 C5724 1.366 . S
C5725 C5729 1.385 . S
C5726 H5707 0.951 . S
C5726 C5724 1.388 . S
C5726 C5727 1.366 . S
C5727 C5726 1.366 . S
C5727 C5728 1.414 . S
C5727 C5730 1.499 . S
C5728 H5708 0.950 . S
C5728 C5727 1.414 . S
C5728 C5729 1.374 . S
C5729 H5709 0.950 . S
C5729 C5725 1.385 . S
C5729 C5728 1.374 . S
C5730 C5727 1.499 . S
C5730 C5731 1.373 . S
C5730 C5732 1.389 . S
C5731 H5710 0.950 . S
C5731 C5730 1.373 . S
C5731 C5747 1.377 . S
C5732 C5730 1.389 . S
C5732 C5733 1.524 . S
C5732 C5746 1.377 . S
C5733 C5732 1.524 . S
C5733 C5734 1.397 . S
C5733 C5738 1.363 . S
C5734 H5711 0.950 . S
C5734 C5733 1.397 . S
C5734 C5735 1.334 . S
C5735 H5712 0.950 . S
C5735 C5734 1.334 . S
C5735 C5736 1.287 . S
C5736 C5735 1.287 . S
C5736 C5737 1.524 . S
C5736 H5755 0.913 . S
C5737 H5713 0.950 1_565 S
C5737 C5736 1.524 . S
C5737 C5738 1.415 . S
C5738 H5714 0.950 . S
C5738 C5733 1.363 . S
C5738 C5737 1.415 . S
C5739 H5715 0.951 . S
C5739 C5740 1.366 . S
C5739 C5741 1.388 . S
C5740 C5739 1.366 . S
C5740 C5744 1.385 . S
C5741 H5716 0.951 . S
C5741 C5739 1.388 . S
C5741 C5742 1.366 . S
C5742 C5741 1.366 . S
C5742 C5743 1.414 . S
C5742 C5745 1.499 . S
C5743 H5717 0.950 . S
C5743 C5742 1.414 . S
C5743 C5744 1.374 . S
C5744 H5718 0.950 . S
C5744 C5740 1.385 . S
C5744 C5743 1.374 . S
C5745 C5742 1.499 . S
C5745 C5746 1.373 . S
C5745 C5747 1.389 . S
C5746 H5719 0.950 . S
C5746 C5732 1.377 . S
C5746 C5745 1.373 . S
C5747 C5731 1.377 . S
C5747 C5745 1.389 . S
C5747 C5748 1.524 . S
C5748 C5747 1.524 . S
C5748 C5749 1.397 . S
C5748 C5753 1.363 . S
C5749 H5720 0.950 . S
C5749 C5748 1.397 . S
C5749 C5750 1.334 . S
C5750 H5721 0.950 . S
C5750 C5749 1.334 . S
C5750 C5751 1.287 . S
C5751 C5750 1.287 . S
C5751 C5752 1.524 . S
C5751 H5754 0.999 . S
C5752 H5722 0.950 . S
C5752 C5751 1.524 . S
C5752 C5753 1.415 . S
C5753 H5723 0.950 . S
C5753 C5748 1.363 . S
C5753 C5752 1.415 . S
H5754 C5751 0.999 . S
H5755 C5736 0.913 . S
H5756 C5774 0.951 . S
H5757 C5776 0.951 . S
H5758 C5778 0.950 . S
H5759 C5779 0.950 . S
H5760 C5781 0.950 . S
H5761 C5784 0.950 . S
H5762 C5785 0.950 . S
H5763 C5787 0.950 . S
H5764 C5788 0.950 . S
H5765 C5789 0.951 . S
H5766 C5791 0.951 . S
H5767 C5793 0.950 . S
H5768 C5794 0.950 . S
H5769 C5796 0.950 . S
H5770 C5799 0.950 . S
H5771 C5800 0.950 . S
H5772 C5802 0.950 . S
H5773 C5803 0.950 . S
C5774 H5756 0.951 . S
C5774 C5775 1.366 . S
C5774 C5776 1.388 . S
C5775 C5774 1.366 . S
C5775 C5779 1.385 . S
C5776 H5757 0.951 . S
C5776 C5774 1.388 . S
C5776 C5777 1.366 . S
C5777 C5776 1.366 . S
C5777 C5778 1.414 . S
C5777 C5780 1.499 . S
C5778 H5758 0.950 . S
C5778 C5777 1.414 . S
C5778 C5779 1.374 . S
C5779 H5759 0.950 . S
C5779 C5775 1.385 . S
C5779 C5778 1.374 . S
C5780 C5777 1.499 . S
C5780 C5781 1.373 . S
C5780 C5782 1.389 . S
C5781 H5760 0.950 . S
C5781 C5780 1.373 . S
C5781 C5797 1.377 . S
C5782 C5780 1.389 . S
C5782 C5783 1.524 . S
C5782 C5796 1.377 . S
C5783 C5782 1.524 . S
C5783 C5784 1.397 . S
C5783 C5788 1.363 . S
C5784 H5761 0.950 . S
C5784 C5783 1.397 . S
C5784 C5785 1.334 . S
C5785 H5762 0.950 . S
C5785 C5784 1.334 . S
C5785 C5786 1.287 . S
C5786 C5785 1.287 . S
C5786 C5787 1.524 . S
C5786 H5805 0.913 . S
C5787 H5763 0.950 . S
C5787 C5786 1.524 . S
C5787 C5788 1.415 . S
C5788 H5764 0.950 . S
C5788 C5783 1.363 . S
C5788 C5787 1.415 . S
C5789 H5765 0.951 . S
C5789 C5790 1.366 . S
C5789 C5791 1.388 . S
C5790 C5789 1.366 . S
C5790 C5794 1.385 . S
C5791 H5766 0.951 . S
C5791 C5789 1.388 . S
C5791 C5792 1.366 . S
C5792 C5791 1.366 . S
C5792 C5793 1.414 . S
C5792 C5795 1.499 . S
C5793 H5767 0.950 . S
C5793 C5792 1.414 . S
C5793 C5794 1.374 . S
C5794 H5768 0.950 . S
C5794 C5790 1.385 . S
C5794 C5793 1.374 . S
C5795 C5792 1.499 . S
C5795 C5796 1.373 . S
C5795 C5797 1.389 . S
C5796 H5769 0.950 . S
C5796 C5782 1.377 . S
C5796 C5795 1.373 . S
C5797 C5781 1.377 . S
C5797 C5795 1.389 . S
C5797 C5798 1.524 . S
C5798 C5797 1.524 . S
C5798 C5799 1.397 . S
C5798 C5803 1.363 . S
C5799 H5770 0.950 . S
C5799 C5798 1.397 . S
C5799 C5800 1.334 . S
C5800 H5771 0.950 . S
C5800 C5799 1.334 . S
C5800 C5801 1.287 . S
C5801 C5800 1.287 . S
C5801 C5802 1.524 . S
C5801 H5804 0.999 . S
C5802 H5772 0.950 . S
C5802 C5801 1.524 . S
C5802 C5803 1.415 . S
C5803 H5773 0.950 . S
C5803 C5798 1.363 . S
C5803 C5802 1.415 . S
H5804 C5801 0.999 . S
H5805 C5786 0.913 . S
H5806 C5824 0.951 . S
H5807 C5826 0.951 . S
H5808 C5828 0.950 . S
H5809 C5829 0.950 . S
H5810 C5831 0.950 . S
H5811 C5834 0.950 . S
H5812 C5835 0.950 . S
H5813 C5837 0.950 . S
H5814 C5838 0.950 . S
H5815 C5839 0.951 . S
H5816 C5841 0.951 . S
H5817 C5843 0.950 . S
H5818 C5844 0.950 . S
H5819 C5846 0.950 . S
H5820 C5849 0.950 . S
H5821 C5850 0.950 . S
H5822 C5852 0.950 . S
H5823 C5853 0.950 . S
C5824 H5806 0.951 . S
C5824 C5825 1.366 . S
C5824 C5826 1.388 . S
C5825 C5824 1.366 . S
C5825 C5829 1.385 . S
C5826 H5807 0.951 . S
C5826 C5824 1.388 . S
C5826 C5827 1.366 . S
C5827 C5826 1.366 . S
C5827 C5828 1.414 . S
C5827 C5830 1.499 . S
C5828 H5808 0.950 . S
C5828 C5827 1.414 . S
C5828 C5829 1.374 . S
C5829 H5809 0.950 . S
C5829 C5825 1.385 . S
C5829 C5828 1.374 . S
C5830 C5827 1.499 . S
C5830 C5831 1.373 . S
C5830 C5832 1.389 . S
C5831 H5810 0.950 . S
C5831 C5830 1.373 . S
C5831 C5847 1.377 . S
C5832 C5830 1.389 . S
C5832 C5833 1.524 . S
C5832 C5846 1.377 . S
C5833 C5832 1.524 . S
C5833 C5834 1.397 . S
C5833 C5838 1.363 . S
C5834 H5811 0.950 . S
C5834 C5833 1.397 . S
C5834 C5835 1.334 . S
C5835 H5812 0.950 . S
C5835 C5834 1.334 . S
C5835 C5836 1.287 . S
C5836 C5835 1.287 . S
C5836 C5837 1.524 . S
C5836 H5855 0.913 . S
C5837 H5813 0.950 . S
C5837 C5836 1.524 . S
C5837 C5838 1.415 . S
C5838 H5814 0.950 . S
C5838 C5833 1.363 . S
C5838 C5837 1.415 . S
C5839 H5815 0.951 . S
C5839 C5840 1.366 . S
C5839 C5841 1.388 . S
C5840 C5839 1.366 . S
C5840 C5844 1.385 . S
C5841 H5816 0.951 . S
C5841 C5839 1.388 . S
C5841 C5842 1.366 . S
C5842 C5841 1.366 . S
C5842 C5843 1.414 . S
C5842 C5845 1.499 . S
C5843 H5817 0.950 . S
C5843 C5842 1.414 . S
C5843 C5844 1.374 . S
C5844 H5818 0.950 . S
C5844 C5840 1.385 . S
C5844 C5843 1.374 . S
C5845 C5842 1.499 . S
C5845 C5846 1.373 . S
C5845 C5847 1.389 . S
C5846 H5819 0.950 . S
C5846 C5832 1.377 . S
C5846 C5845 1.373 . S
C5847 C5831 1.377 . S
C5847 C5845 1.389 . S
C5847 C5848 1.524 . S
C5848 C5847 1.524 . S
C5848 C5849 1.397 . S
C5848 C5853 1.363 . S
C5849 H5820 0.950 . S
C5849 C5848 1.397 . S
C5849 C5850 1.334 . S
C5850 H5821 0.950 . S
C5850 C5849 1.334 . S
C5850 C5851 1.287 . S
C5851 C5850 1.287 . S
C5851 C5852 1.524 . S
C5851 H5854 0.999 . S
C5852 H5822 0.950 . S
C5852 C5851 1.524 . S
C5852 C5853 1.415 . S
C5853 H5823 0.950 . S
C5853 C5848 1.363 . S
C5853 C5852 1.415 . S
H5854 C5851 0.999 . S
H5855 C5836 0.913 . S
H5856 C5874 0.951 . S
H5857 C5876 0.951 . S
H5858 C5878 0.950 . S
H5859 C5879 0.950 . S
H5860 C5881 0.950 . S
H5861 C5884 0.950 . S
H5862 C5885 0.950 . S
H5863 C5887 0.950 . S
H5864 C5888 0.950 . S
H5865 C5889 0.951 . S
H5866 C5891 0.951 . S
H5867 C5893 0.950 . S
H5868 C5894 0.950 . S
H5869 C5896 0.950 . S
H5870 C5899 0.950 . S
H5871 C5900 0.950 . S
H5872 C5902 0.950 . S
H5873 C5903 0.950 . S
C5874 H5856 0.951 . S
C5874 C5875 1.366 . S
C5874 C5876 1.388 . S
C5875 C5874 1.366 . S
C5875 C5879 1.385 . S
C5876 H5857 0.951 . S
C5876 C5874 1.388 . S
C5876 C5877 1.366 . S
C5877 C5876 1.366 . S
C5877 C5878 1.414 . S
C5877 C5880 1.499 . S
C5878 H5858 0.950 . S
C5878 C5877 1.414 . S
C5878 C5879 1.374 . S
C5879 H5859 0.950 . S
C5879 C5875 1.385 . S
C5879 C5878 1.374 . S
C5880 C5877 1.499 . S
C5880 C5881 1.373 . S
C5880 C5882 1.389 . S
C5881 H5860 0.950 . S
C5881 C5880 1.373 . S
C5881 C5897 1.377 . S
C5882 C5880 1.389 . S
C5882 C5883 1.524 . S
C5882 C5896 1.377 . S
C5883 C5882 1.524 . S
C5883 C5884 1.397 . S
C5883 C5888 1.363 . S
C5884 H5861 0.950 . S
C5884 C5883 1.397 . S
C5884 C5885 1.334 . S
C5885 H5862 0.950 . S
C5885 C5884 1.334 . S
C5885 C5886 1.287 . S
C5886 C5885 1.287 . S
C5886 C5887 1.524 . S
C5886 H5905 0.913 . S
C5887 H5863 0.950 . S
C5887 C5886 1.524 . S
C5887 C5888 1.415 . S
C5888 H5864 0.950 . S
C5888 C5883 1.363 . S
C5888 C5887 1.415 . S
C5889 H5865 0.951 . S
C5889 C5890 1.366 . S
C5889 C5891 1.388 . S
C5890 C5889 1.366 . S
C5890 C5894 1.385 . S
C5891 H5866 0.951 . S
C5891 C5889 1.388 . S
C5891 C5892 1.366 . S
C5892 C5891 1.366 . S
C5892 C5893 1.414 . S
C5892 C5895 1.499 . S
C5893 H5867 0.950 . S
C5893 C5892 1.414 . S
C5893 C5894 1.374 . S
C5894 H5868 0.950 . S
C5894 C5890 1.385 . S
C5894 C5893 1.374 . S
C5895 C5892 1.499 . S
C5895 C5896 1.373 . S
C5895 C5897 1.389 . S
C5896 H5869 0.950 . S
C5896 C5882 1.377 . S
C5896 C5895 1.373 . S
C5897 C5881 1.377 . S
C5897 C5895 1.389 . S
C5897 C5898 1.524 . S
C5898 C5897 1.524 . S
C5898 C5899 1.397 . S
C5898 C5903 1.363 . S
C5899 H5870 0.950 . S
C5899 C5898 1.397 . S
C5899 C5900 1.334 . S
C5900 H5871 0.950 . S
C5900 C5899 1.334 . S
C5900 C5901 1.287 . S
C5901 C5900 1.287 . S
C5901 C5902 1.524 . S
C5901 H5904 0.999 . S
C5902 H5872 0.950 . S
C5902 C5901 1.524 . S
C5902 C5903 1.415 . S
C5903 H5873 0.950 . S
C5903 C5898 1.363 . S
C5903 C5902 1.415 . S
H5904 C5901 0.999 . S
H5905 C5886 0.913 . S
H5906 C5924 0.951 . S
H5907 C5926 0.951 . S
H5908 C5928 0.950 . S
H5909 C5929 0.950 . S
H5910 C5931 0.950 . S
H5911 C5934 0.950 . S
H5912 C5935 0.950 . S
H5913 C5937 0.950 . S
H5914 C5938 0.950 . S
H5915 C5939 0.951 . S
H5916 C5941 0.951 . S
H5917 C5943 0.950 . S
H5918 C5944 0.950 . S
H5919 C5946 0.950 . S
H5920 C5949 0.950 . S
H5921 C5950 0.950 . S
H5922 C5952 0.950 . S
H5923 C5953 0.950 . S
C5924 H5906 0.951 . S
C5924 C5925 1.366 . S
C5924 C5926 1.388 . S
C5925 C5924 1.366 . S
C5925 C5929 1.385 . S
C5926 H5907 0.951 . S
C5926 C5924 1.388 . S
C5926 C5927 1.366 . S
C5927 C5926 1.366 . S
C5927 C5928 1.414 . S
C5927 C5930 1.499 . S
C5928 H5908 0.950 . S
C5928 C5927 1.414 . S
C5928 C5929 1.374 . S
C5929 H5909 0.950 . S
C5929 C5925 1.385 . S
C5929 C5928 1.374 . S
C5930 C5927 1.499 . S
C5930 C5931 1.373 . S
C5930 C5932 1.389 . S
C5931 H5910 0.950 . S
C5931 C5930 1.373 . S
C5931 C5947 1.377 . S
C5932 C5930 1.389 . S
C5932 C5933 1.524 . S
C5932 C5946 1.377 . S
C5933 C5932 1.524 . S
C5933 C5934 1.397 . S
C5933 C5938 1.363 . S
C5934 H5911 0.950 . S
C5934 C5933 1.397 . S
C5934 C5935 1.334 . S
C5935 H5912 0.950 . S
C5935 C5934 1.334 . S
C5935 C5936 1.287 . S
C5936 C5935 1.287 . S
C5936 C5937 1.524 . S
C5936 H5955 0.913 . S
C5937 H5913 0.950 . S
C5937 C5936 1.524 . S
C5937 C5938 1.415 . S
C5938 H5914 0.950 . S
C5938 C5933 1.363 . S
C5938 C5937 1.415 . S
C5939 H5915 0.951 . S
C5939 C5940 1.366 . S
C5939 C5941 1.388 . S
C5940 C5939 1.366 . S
C5940 C5944 1.385 . S
C5941 H5916 0.951 . S
C5941 C5939 1.388 . S
C5941 C5942 1.366 . S
C5942 C5941 1.366 . S
C5942 C5943 1.414 . S
C5942 C5945 1.499 . S
C5943 H5917 0.950 . S
C5943 C5942 1.414 . S
C5943 C5944 1.374 . S
C5944 H5918 0.950 . S
C5944 C5940 1.385 . S
C5944 C5943 1.374 . S
C5945 C5942 1.499 . S
C5945 C5946 1.373 . S
C5945 C5947 1.389 . S
C5946 H5919 0.950 . S
C5946 C5932 1.377 . S
C5946 C5945 1.373 . S
C5947 C5931 1.377 . S
C5947 C5945 1.389 . S
C5947 C5948 1.524 . S
C5948 C5947 1.524 . S
C5948 C5949 1.397 . S
C5948 C5953 1.363 . S
C5949 H5920 0.950 . S
C5949 C5948 1.397 . S
C5949 C5950 1.334 . S
C5950 H5921 0.950 . S
C5950 C5949 1.334 . S
C5950 C5951 1.287 . S
C5951 C5950 1.287 . S
C5951 C5952 1.524 . S
C5951 H5954 0.999 . S
C5952 H5922 0.950 . S
C5952 C5951 1.524 . S
C5952 C5953 1.415 . S
C5953 H5923 0.950 . S
C5953 C5948 1.363 . S
C5953 C5952 1.415 . S
H5954 C5951 0.999 . S
H5955 C5936 0.913 . S
H5956 C5974 0.951 . S
H5957 C5976 0.951 . S
H5958 C5978 0.950 1_654 S
H5959 C5979 0.950 1_654 S
H5960 C5981 0.972 . S
H5961 C5984 0.950 . S
H5962 C5985 0.950 . S
H5963 C5987 0.950 . S
H5964 C5988 0.950 . S
H5965 C5989 0.951 . S
H5966 C5991 0.951 . S
H5967 C5993 0.950 . S
H5968 C5994 0.950 . S
H5969 C5996 0.950 . S
H5970 C5999 0.950 . S
H5971 C6000 0.950 . S
H5972 C6002 0.950 . S
H5973 C6003 0.950 . S
C5974 H5956 0.951 . S
C5974 C5975 1.366 . S
C5974 C5976 1.388 . S
C5975 C5974 1.366 . S
C5975 C5979 1.385 . S
C5976 H5957 0.951 . S
C5976 C5974 1.388 . S
C5976 C5977 1.366 . S
C5977 C5976 1.366 . S
C5977 C5978 1.414 . S
C5977 C5980 1.499 . S
C5978 H5958 0.950 1_456 S
C5978 C5977 1.414 . S
C5978 C5979 1.374 . S
C5979 H5959 0.950 1_456 S
C5979 C5975 1.385 . S
C5979 C5978 1.374 . S
C5980 C5977 1.499 . S
C5980 C5981 1.347 1_455 S
C5980 C5982 1.389 . S
C5981 H5960 0.972 . S
C5981 C5980 1.347 1_655 S
C5981 C5997 1.380 . S
C5982 C5980 1.389 . S
C5982 C5983 1.524 . S
C5982 C5996 1.377 . S
C5983 C5982 1.524 . S
C5983 C5984 1.397 1_556 S
C5983 C5988 1.363 . S
C5984 H5961 0.950 . S
C5984 C5983 1.397 1_554 S
C5984 C5985 1.334 . S
C5985 H5962 0.950 . S
C5985 C5984 1.334 . S
C5985 C5986 1.287 1_554 S
C5986 C5985 1.287 1_556 S
C5986 C5987 1.524 . S
C5986 H6005 0.913 . S
C5987 H5963 0.950 . S
C5987 C5986 1.524 . S
C5987 C5988 1.415 . S
C5988 H5964 0.950 . S
C5988 C5983 1.363 . S
C5988 C5987 1.415 . S
C5989 H5965 0.951 . S
C5989 C5990 1.366 . S
C5989 C5991 1.388 . S
C5990 C5989 1.366 . S
C5990 C5994 1.385 1_554 S
C5991 H5966 0.951 . S
C5991 C5989 1.388 . S
C5991 C5992 1.411 . S
C5992 C5991 1.411 . S
C5992 C5993 1.376 1_554 S
C5992 C5995 1.493 1_554 S
C5993 H5967 0.950 . S
C5993 C5992 1.376 1_556 S
C5993 C5994 1.374 . S
C5994 H5968 0.950 . S
C5994 C5990 1.385 1_556 S
C5994 C5993 1.374 . S
C5995 C5992 1.493 1_556 S
C5995 C5996 1.373 . S
C5995 C5997 1.384 1_455 S
C5996 H5969 0.950 . S
C5996 C5982 1.377 . S
C5996 C5995 1.373 . S
C5997 C5981 1.380 . S
C5997 C5995 1.384 1_655 S
C5997 C5998 1.531 . S
C5998 C5997 1.531 . S
C5998 C5999 1.397 . S
C5998 C6003 1.363 1_556 S
C5999 H5970 0.950 . S
C5999 C5998 1.397 . S
C5999 C6000 1.334 . S
C6000 H5971 0.950 . S
C6000 C5999 1.334 . S
C6000 C6001 1.287 . S
C6001 C6000 1.287 . S
C6001 C6002 1.524 1_556 S
C6001 H6004 0.999 . S
C6002 H5972 0.950 . S
C6002 C6001 1.524 1_554 S
C6002 C6003 1.415 . S
C6003 H5973 0.950 . S
C6003 C5998 1.363 1_554 S
C6003 C6002 1.415 . S
H6004 C6001 0.999 . S
H6005 C5986 0.913 . S
H6006 C6024 0.951 . S
H6007 C6026 0.951 . S
H6008 C6028 0.950 . S
H6009 C6029 0.950 . S
H6010 C6031 0.950 . S
H6011 C6034 0.950 . S
H6012 C6035 0.950 . S
H6013 C6037 0.950 . S
H6014 C6038 0.950 . S
H6015 C6039 0.951 . S
H6016 C6041 0.951 . S
H6017 C6043 0.950 . S
H6018 C6044 0.950 . S
H6019 C6046 0.950 . S
H6020 C6049 0.950 . S
H6021 C6050 0.950 . S
H6022 C6052 0.950 . S
H6023 C6053 0.950 . S
C6024 H6006 0.951 . S
C6024 C6025 1.366 . S
C6024 C6026 1.388 . S
C6025 C6024 1.366 . S
C6025 C6029 1.385 . S
C6026 H6007 0.951 . S
C6026 C6024 1.388 . S
C6026 C6027 1.366 . S
C6027 C6026 1.366 . S
C6027 C6028 1.414 . S
C6027 C6030 1.499 . S
C6028 H6008 0.950 . S
C6028 C6027 1.414 . S
C6028 C6029 1.374 . S
C6029 H6009 0.950 . S
C6029 C6025 1.385 . S
C6029 C6028 1.374 . S
C6030 C6027 1.499 . S
C6030 C6031 1.373 . S
C6030 C6032 1.389 . S
C6031 H6010 0.950 . S
C6031 C6030 1.373 . S
C6031 C6047 1.377 . S
C6032 C6030 1.389 . S
C6032 C6033 1.524 . S
C6032 C6046 1.377 . S
C6033 C6032 1.524 . S
C6033 C6034 1.397 . S
C6033 C6038 1.363 . S
C6034 H6011 0.950 . S
C6034 C6033 1.397 . S
C6034 C6035 1.334 . S
C6035 H6012 0.950 . S
C6035 C6034 1.334 . S
C6035 C6036 1.287 . S
C6036 C6035 1.287 . S
C6036 C6037 1.524 . S
C6036 H6055 0.913 . S
C6037 H6013 0.950 . S
C6037 C6036 1.524 . S
C6037 C6038 1.415 . S
C6038 H6014 0.950 . S
C6038 C6033 1.363 . S
C6038 C6037 1.415 . S
C6039 H6015 0.951 . S
C6039 C6040 1.366 . S
C6039 C6041 1.388 . S
C6040 C6039 1.366 . S
C6040 C6044 1.385 . S
C6041 H6016 0.951 . S
C6041 C6039 1.388 . S
C6041 C6042 1.366 . S
C6042 C6041 1.366 . S
C6042 C6043 1.414 . S
C6042 C6045 1.499 . S
C6043 H6017 0.950 . S
C6043 C6042 1.414 . S
C6043 C6044 1.374 . S
C6044 H6018 0.950 . S
C6044 C6040 1.385 . S
C6044 C6043 1.374 . S
C6045 C6042 1.499 . S
C6045 C6046 1.373 . S
C6045 C6047 1.389 . S
C6046 H6019 0.950 . S
C6046 C6032 1.377 . S
C6046 C6045 1.373 . S
C6047 C6031 1.377 . S
C6047 C6045 1.389 . S
C6047 C6048 1.524 . S
C6048 C6047 1.524 . S
C6048 C6049 1.397 . S
C6048 C6053 1.363 . S
C6049 H6020 0.950 . S
C6049 C6048 1.397 . S
C6049 C6050 1.334 . S
C6050 H6021 0.950 . S
C6050 C6049 1.334 . S
C6050 C6051 1.287 . S
C6051 C6050 1.287 . S
C6051 C6052 1.524 . S
C6051 H6054 0.999 . S
C6052 H6022 0.950 . S
C6052 C6051 1.524 . S
C6052 C6053 1.415 . S
C6053 H6023 0.950 . S
C6053 C6048 1.363 . S
C6053 C6052 1.415 . S
H6054 C6051 0.999 . S
H6055 C6036 0.913 . S
H6056 C6074 0.951 . S
H6057 C6076 0.951 . S
H6058 C6078 0.950 . S
H6059 C6079 0.950 . S
H6060 C6081 0.950 . S
H6061 C6084 0.950 . S
H6062 C6085 0.950 . S
H6063 C6087 0.950 . S
H6064 C6088 0.950 . S
H6065 C6089 0.951 . S
H6066 C6091 0.951 . S
H6067 C6093 0.950 . S
H6068 C6094 0.950 . S
H6069 C6096 0.950 . S
H6070 C6099 0.950 . S
H6071 C6100 0.950 . S
H6072 C6102 0.950 . S
H6073 C6103 0.950 . S
C6074 H6056 0.951 . S
C6074 C6075 1.366 . S
C6074 C6076 1.388 . S
C6075 C6074 1.366 . S
C6075 C6079 1.385 . S
C6076 H6057 0.951 . S
C6076 C6074 1.388 . S
C6076 C6077 1.366 . S
C6077 C6076 1.366 . S
C6077 C6078 1.414 . S
C6077 C6080 1.499 . S
C6078 H6058 0.950 . S
C6078 C6077 1.414 . S
C6078 C6079 1.374 . S
C6079 H6059 0.950 . S
C6079 C6075 1.385 . S
C6079 C6078 1.374 . S
C6080 C6077 1.499 . S
C6080 C6081 1.373 . S
C6080 C6082 1.389 . S
C6081 H6060 0.950 . S
C6081 C6080 1.373 . S
C6081 C6097 1.377 . S
C6082 C6080 1.389 . S
C6082 C6083 1.524 . S
C6082 C6096 1.377 . S
C6083 C6082 1.524 . S
C6083 C6084 1.397 . S
C6083 C6088 1.363 . S
C6084 H6061 0.950 . S
C6084 C6083 1.397 . S
C6084 C6085 1.334 . S
C6085 H6062 0.950 . S
C6085 C6084 1.334 . S
C6085 C6086 1.287 . S
C6086 C6085 1.287 . S
C6086 C6087 1.524 . S
C6086 H6105 0.913 . S
C6087 H6063 0.950 . S
C6087 C6086 1.524 . S
C6087 C6088 1.415 . S
C6088 H6064 0.950 . S
C6088 C6083 1.363 . S
C6088 C6087 1.415 . S
C6089 H6065 0.951 . S
C6089 C6090 1.366 . S
C6089 C6091 1.388 . S
C6090 C6089 1.366 . S
C6090 C6094 1.385 . S
C6091 H6066 0.951 . S
C6091 C6089 1.388 . S
C6091 C6092 1.366 . S
C6092 C6091 1.366 . S
C6092 C6093 1.414 . S
C6092 C6095 1.499 . S
C6093 H6067 0.950 . S
C6093 C6092 1.414 . S
C6093 C6094 1.374 . S
C6094 H6068 0.950 . S
C6094 C6090 1.385 . S
C6094 C6093 1.374 . S
C6095 C6092 1.499 . S
C6095 C6096 1.373 . S
C6095 C6097 1.389 . S
C6096 H6069 0.950 . S
C6096 C6082 1.377 . S
C6096 C6095 1.373 . S
C6097 C6081 1.377 . S
C6097 C6095 1.389 . S
C6097 C6098 1.524 . S
C6098 C6097 1.524 . S
C6098 C6099 1.397 . S
C6098 C6103 1.363 . S
C6099 H6070 0.950 . S
C6099 C6098 1.397 . S
C6099 C6100 1.334 . S
C6100 H6071 0.950 . S
C6100 C6099 1.334 . S
C6100 C6101 1.287 . S
C6101 C6100 1.287 . S
C6101 C6102 1.524 . S
C6101 H6104 0.999 . S
C6102 H6072 0.950 . S
C6102 C6101 1.524 . S
C6102 C6103 1.415 . S
C6103 H6073 0.950 . S
C6103 C6098 1.363 . S
C6103 C6102 1.415 . S
H6104 C6101 0.999 . S
H6105 C6086 0.913 . S
H6106 C6124 0.951 . S
H6107 C6126 0.951 . S
H6108 C6128 0.950 . S
H6109 C6129 0.950 . S
H6110 C6131 0.950 . S
H6111 C6134 0.950 . S
H6112 C6135 0.950 . S
H6113 C6137 0.950 . S
H6114 C6138 0.950 . S
H6115 C6139 0.951 . S
H6116 C6141 0.951 . S
H6117 C6143 0.950 . S
H6118 C6144 0.950 . S
H6119 C6146 0.950 . S
H6120 C6149 0.950 . S
H6121 C6150 0.950 . S
H6122 C6152 0.950 . S
H6123 C6153 0.950 . S
C6124 H6106 0.951 . S
C6124 C6125 1.366 . S
C6124 C6126 1.388 . S
C6125 C6124 1.366 . S
C6125 C6129 1.385 . S
C6126 H6107 0.951 . S
C6126 C6124 1.388 . S
C6126 C6127 1.366 . S
C6127 C6126 1.366 . S
C6127 C6128 1.414 . S
C6127 C6130 1.499 . S
C6128 H6108 0.950 . S
C6128 C6127 1.414 . S
C6128 C6129 1.374 . S
C6129 H6109 0.950 . S
C6129 C6125 1.385 . S
C6129 C6128 1.374 . S
C6130 C6127 1.499 . S
C6130 C6131 1.373 . S
C6130 C6132 1.389 . S
C6131 H6110 0.950 . S
C6131 C6130 1.373 . S
C6131 C6147 1.377 . S
C6132 C6130 1.389 . S
C6132 C6133 1.524 . S
C6132 C6146 1.377 . S
C6133 C6132 1.524 . S
C6133 C6134 1.397 . S
C6133 C6138 1.363 . S
C6134 H6111 0.950 . S
C6134 C6133 1.397 . S
C6134 C6135 1.334 . S
C6135 H6112 0.950 . S
C6135 C6134 1.334 . S
C6135 C6136 1.287 . S
C6136 C6135 1.287 . S
C6136 C6137 1.524 . S
C6136 H6155 0.913 . S
C6137 H6113 0.950 . S
C6137 C6136 1.524 . S
C6137 C6138 1.415 . S
C6138 H6114 0.950 . S
C6138 C6133 1.363 . S
C6138 C6137 1.415 . S
C6139 H6115 0.951 . S
C6139 C6140 1.366 . S
C6139 C6141 1.388 . S
C6140 C6139 1.366 . S
C6140 C6144 1.385 . S
C6141 H6116 0.951 . S
C6141 C6139 1.388 . S
C6141 C6142 1.366 . S
C6142 C6141 1.366 . S
C6142 C6143 1.414 . S
C6142 C6145 1.499 . S
C6143 H6117 0.950 . S
C6143 C6142 1.414 . S
C6143 C6144 1.374 . S
C6144 H6118 0.950 . S
C6144 C6140 1.385 . S
C6144 C6143 1.374 . S
C6145 C6142 1.499 . S
C6145 C6146 1.373 . S
C6145 C6147 1.389 . S
C6146 H6119 0.950 . S
C6146 C6132 1.377 . S
C6146 C6145 1.373 . S
C6147 C6131 1.377 . S
C6147 C6145 1.389 . S
C6147 C6148 1.524 . S
C6148 C6147 1.524 . S
C6148 C6149 1.397 . S
C6148 C6153 1.363 . S
C6149 H6120 0.950 . S
C6149 C6148 1.397 . S
C6149 C6150 1.334 . S
C6150 H6121 0.950 . S
C6150 C6149 1.334 . S
C6150 C6151 1.287 . S
C6151 C6150 1.287 . S
C6151 C6152 1.524 . S
C6151 H6154 0.999 . S
C6152 H6122 0.950 . S
C6152 C6151 1.524 . S
C6152 C6153 1.415 . S
C6153 H6123 0.950 . S
C6153 C6148 1.363 . S
C6153 C6152 1.415 . S
H6154 C6151 0.999 . S
H6155 C6136 0.913 . S
H6156 C6174 0.951 . S
H6157 C6176 0.951 . S
H6158 C6178 0.950 . S
H6159 C6179 0.950 . S
H6160 C6181 0.950 . S
H6161 C6184 0.950 . S
H6162 C6185 0.950 . S
H6163 C6187 0.950 . S
H6164 C6188 0.950 . S
H6165 C6189 0.951 1_655 S
H6166 C6191 0.951 1_655 S
H6167 C6193 0.950 . S
H6168 C6194 0.950 . S
H6169 C6196 0.950 . S
H6170 C6199 0.950 . S
H6171 C6200 0.950 . S
H6172 C6202 0.950 . S
H6173 C6203 0.950 . S
C6174 H6156 0.951 . S
C6174 C6175 1.366 . S
C6174 C6176 1.388 . S
C6175 C6174 1.366 . S
C6175 C6179 1.385 1_455 S
C6176 H6157 0.951 . S
C6176 C6174 1.388 . S
C6176 C6177 1.366 . S
C6177 C6176 1.366 . S
C6177 C6178 1.414 1_455 S
C6177 C6180 1.499 . S
C6178 H6158 0.950 . S
C6178 C6177 1.414 1_655 S
C6178 C6179 1.374 . S
C6179 H6159 0.950 . S
C6179 C6175 1.385 1_655 S
C6179 C6178 1.374 . S
C6180 C6177 1.499 . S
C6180 C6181 1.373 1_455 S
C6180 C6182 1.389 . S
C6181 H6160 0.950 . S
C6181 C6180 1.373 1_655 S
C6181 C6197 1.377 . S
C6182 C6180 1.389 . S
C6182 C6183 1.524 . S
C6182 C6196 1.377 . S
C6183 C6182 1.524 . S
C6183 C6184 1.397 . S
C6183 C6188 1.363 . S
C6184 H6161 0.950 . S
C6184 C6183 1.397 . S
C6184 C6185 1.334 . S
C6185 H6162 0.950 . S
C6185 C6184 1.334 . S
C6185 C6186 1.287 . S
C6186 C6185 1.287 . S
C6186 C6187 1.524 . S
C6186 H6205 0.913 . S
C6187 H6163 0.950 . S
C6187 C6186 1.524 . S
C6187 C6188 1.415 . S
C6188 H6164 0.950 . S
C6188 C6183 1.363 . S
C6188 C6187 1.415 . S
C6189 H6165 0.951 1_455 S
C6189 C6190 1.366 . S
C6189 C6191 1.388 . S
C6190 C6189 1.366 . S
C6190 C6194 1.385 . S
C6191 H6166 0.951 1_455 S
C6191 C6189 1.388 . S
C6191 C6192 1.366 . S
C6192 C6191 1.366 . S
C6192 C6193 1.414 . S
C6192 C6195 1.499 . S
C6193 H6167 0.950 . S
C6193 C6192 1.414 . S
C6193 C6194 1.374 . S
C6194 H6168 0.950 . S
C6194 C6190 1.385 . S
C6194 C6193 1.374 . S
C6195 C6192 1.499 . S
C6195 C6196 1.373 . S
C6195 C6197 1.389 1_455 S
C6196 H6169 0.950 . S
C6196 C6182 1.377 . S
C6196 C6195 1.373 . S
C6197 C6181 1.377 . S
C6197 C6195 1.389 1_655 S
C6197 C6198 1.524 . S
C6198 C6197 1.524 . S
C6198 C6199 1.397 . S
C6198 C6203 1.363 . S
C6199 H6170 0.950 . S
C6199 C6198 1.397 . S
C6199 C6200 1.334 . S
C6200 H6171 0.950 . S
C6200 C6199 1.334 . S
C6200 C6201 1.287 . S
C6201 C6200 1.287 . S
C6201 C6202 1.524 . S
C6201 H6204 0.999 . S
C6202 H6172 0.950 . S
C6202 C6201 1.524 . S
C6202 C6203 1.415 . S
C6203 H6173 0.950 . S
C6203 C6198 1.363 . S
C6203 C6202 1.415 . S
H6204 C6201 0.999 . S
H6205 C6186 0.913 . S
H6206 C6224 0.951 . S
H6207 C6226 0.951 . S
H6208 C6228 0.950 . S
H6209 C6229 0.950 . S
H6210 C6231 0.950 . S
H6211 C6234 0.950 . S
H6212 C6235 0.950 . S
H6213 C6237 0.950 . S
H6214 C6238 0.950 . S
H6215 C6239 0.951 . S
H6216 C6241 0.951 . S
H6217 C6243 0.950 . S
H6218 C6244 0.950 . S
H6219 C6246 0.950 . S
H6220 C6249 0.950 . S
H6221 C6250 0.950 . S
H6222 C6252 0.950 . S
H6223 C6253 0.950 . S
C6224 H6206 0.951 . S
C6224 C6225 1.366 . S
C6224 C6226 1.388 . S
C6225 C6224 1.366 . S
C6225 C6229 1.385 . S
C6226 H6207 0.951 . S
C6226 C6224 1.388 . S
C6226 C6227 1.366 . S
C6227 C6226 1.366 . S
C6227 C6228 1.414 . S
C6227 C6230 1.499 . S
C6228 H6208 0.950 . S
C6228 C6227 1.414 . S
C6228 C6229 1.374 . S
C6229 H6209 0.950 . S
C6229 C6225 1.385 . S
C6229 C6228 1.374 . S
C6230 C6227 1.499 . S
C6230 C6231 1.373 . S
C6230 C6232 1.389 . S
C6231 H6210 0.950 . S
C6231 C6230 1.373 . S
C6231 C6247 1.377 . S
C6232 C6230 1.389 . S
C6232 C6233 1.524 . S
C6232 C6246 1.377 . S
C6233 C6232 1.524 . S
C6233 C6234 1.397 . S
C6233 C6238 1.363 . S
C6234 H6211 0.950 . S
C6234 C6233 1.397 . S
C6234 C6235 1.334 . S
C6235 H6212 0.950 . S
C6235 C6234 1.334 . S
C6235 C6236 1.287 . S
C6236 C6235 1.287 . S
C6236 C6237 1.524 . S
C6236 H6255 0.913 . S
C6237 H6213 0.950 . S
C6237 C6236 1.524 . S
C6237 C6238 1.415 . S
C6238 H6214 0.950 . S
C6238 C6233 1.363 . S
C6238 C6237 1.415 . S
C6239 H6215 0.951 . S
C6239 C6240 1.366 . S
C6239 C6241 1.388 . S
C6240 C6239 1.366 . S
C6240 C6244 1.385 . S
C6241 H6216 0.951 . S
C6241 C6239 1.388 . S
C6241 C6242 1.366 . S
C6242 C6241 1.366 . S
C6242 C6243 1.414 . S
C6242 C6245 1.499 . S
C6243 H6217 0.950 . S
C6243 C6242 1.414 . S
C6243 C6244 1.374 . S
C6244 H6218 0.950 . S
C6244 C6240 1.385 . S
C6244 C6243 1.374 . S
C6245 C6242 1.499 . S
C6245 C6246 1.373 . S
C6245 C6247 1.389 . S
C6246 H6219 0.950 . S
C6246 C6232 1.377 . S
C6246 C6245 1.373 . S
C6247 C6231 1.377 . S
C6247 C6245 1.389 . S
C6247 C6248 1.524 . S
C6248 C6247 1.524 . S
C6248 C6249 1.397 . S
C6248 C6253 1.363 . S
C6249 H6220 0.950 . S
C6249 C6248 1.397 . S
C6249 C6250 1.334 . S
C6250 H6221 0.950 . S
C6250 C6249 1.334 . S
C6250 C6251 1.287 . S
C6251 C6250 1.287 . S
C6251 C6252 1.524 . S
C6251 H6254 0.999 . S
C6252 H6222 0.950 . S
C6252 C6251 1.524 . S
C6252 C6253 1.415 . S
C6253 H6223 0.950 . S
C6253 C6248 1.363 . S
C6253 C6252 1.415 . S
H6254 C6251 0.999 . S
H6255 C6236 0.913 . S
H6256 C6274 0.951 . S
H6257 C6276 0.951 . S
H6258 C6278 0.950 . S
H6259 C6279 0.950 . S
H6260 C6281 0.950 . S
H6261 C6284 0.950 . S
H6262 C6285 0.950 . S
H6263 C6287 0.950 . S
H6264 C6288 0.950 . S
H6265 C6289 0.951 . S
H6266 C6291 0.951 . S
H6267 C6293 0.950 . S
H6268 C6294 0.950 . S
H6269 C6296 0.950 . S
H6270 C6299 0.950 . S
H6271 C6300 0.950 . S
H6272 C6302 0.950 . S
H6273 C6303 0.950 . S
C6274 H6256 0.951 . S
C6274 C6275 1.366 . S
C6274 C6276 1.388 . S
C6275 C6274 1.366 . S
C6275 C6279 1.385 . S
C6276 H6257 0.951 . S
C6276 C6274 1.388 . S
C6276 C6277 1.366 . S
C6277 C6276 1.366 . S
C6277 C6278 1.414 . S
C6277 C6280 1.499 . S
C6278 H6258 0.950 . S
C6278 C6277 1.414 . S
C6278 C6279 1.374 . S
C6279 H6259 0.950 . S
C6279 C6275 1.385 . S
C6279 C6278 1.374 . S
C6280 C6277 1.499 . S
C6280 C6281 1.373 . S
C6280 C6282 1.389 . S
C6281 H6260 0.950 . S
C6281 C6280 1.373 . S
C6281 C6297 1.377 . S
C6282 C6280 1.389 . S
C6282 C6283 1.524 . S
C6282 C6296 1.377 . S
C6283 C6282 1.524 . S
C6283 C6284 1.397 . S
C6283 C6288 1.363 . S
C6284 H6261 0.950 . S
C6284 C6283 1.397 . S
C6284 C6285 1.334 . S
C6285 H6262 0.950 . S
C6285 C6284 1.334 . S
C6285 C6286 1.287 . S
C6286 C6285 1.287 . S
C6286 C6287 1.524 . S
C6286 H6305 0.913 . S
C6287 H6263 0.950 . S
C6287 C6286 1.524 . S
C6287 C6288 1.415 . S
C6288 H6264 0.950 . S
C6288 C6283 1.363 . S
C6288 C6287 1.415 . S
C6289 H6265 0.951 . S
C6289 C6290 1.366 . S
C6289 C6291 1.388 . S
C6290 C6289 1.366 . S
C6290 C6294 1.385 . S
C6291 H6266 0.951 . S
C6291 C6289 1.388 . S
C6291 C6292 1.366 . S
C6292 C6291 1.366 . S
C6292 C6293 1.414 . S
C6292 C6295 1.499 . S
C6293 H6267 0.950 . S
C6293 C6292 1.414 . S
C6293 C6294 1.374 . S
C6294 H6268 0.950 . S
C6294 C6290 1.385 . S
C6294 C6293 1.374 . S
C6295 C6292 1.499 . S
C6295 C6296 1.373 . S
C6295 C6297 1.389 . S
C6296 H6269 0.950 . S
C6296 C6282 1.377 . S
C6296 C6295 1.373 . S
C6297 C6281 1.377 . S
C6297 C6295 1.389 . S
C6297 C6298 1.524 . S
C6298 C6297 1.524 . S
C6298 C6299 1.397 . S
C6298 C6303 1.363 . S
C6299 H6270 0.950 . S
C6299 C6298 1.397 . S
C6299 C6300 1.334 . S
C6300 H6271 0.950 . S
C6300 C6299 1.334 . S
C6300 C6301 1.287 . S
C6301 C6300 1.287 . S
C6301 C6302 1.524 . S
C6301 H6304 0.999 . S
C6302 H6272 0.950 . S
C6302 C6301 1.524 . S
C6302 C6303 1.415 . S
C6303 H6273 0.950 . S
C6303 C6298 1.363 . S
C6303 C6302 1.415 . S
H6304 C6301 0.999 . S
H6305 C6286 0.913 . S
H6306 C6324 0.951 . S
H6307 C6326 0.951 . S
H6308 C6328 0.950 . S
H6309 C6329 0.950 . S
H6310 C6331 0.950 . S
H6311 C6334 0.950 . S
H6312 C6335 0.950 . S
H6313 C6337 0.950 . S
H6314 C6338 0.950 . S
H6315 C6339 0.951 . S
H6316 C6341 0.951 . S
H6317 C6343 0.950 . S
H6318 C6344 0.950 . S
H6319 C6346 0.950 . S
H6320 C6349 0.950 . S
H6321 C6350 0.950 . S
H6322 C6352 0.950 . S
H6323 C6353 0.950 . S
C6324 H6306 0.951 . S
C6324 C6325 1.366 . S
C6324 C6326 1.388 . S
C6325 C6324 1.366 . S
C6325 C6329 1.385 . S
C6326 H6307 0.951 . S
C6326 C6324 1.388 . S
C6326 C6327 1.366 . S
C6327 C6326 1.366 . S
C6327 C6328 1.414 . S
C6327 C6330 1.499 . S
C6328 H6308 0.950 . S
C6328 C6327 1.414 . S
C6328 C6329 1.374 . S
C6329 H6309 0.950 . S
C6329 C6325 1.385 . S
C6329 C6328 1.374 . S
C6330 C6327 1.499 . S
C6330 C6331 1.373 . S
C6330 C6332 1.389 . S
C6331 H6310 0.950 . S
C6331 C6330 1.373 . S
C6331 C6347 1.377 . S
C6332 C6330 1.389 . S
C6332 C6333 1.524 . S
C6332 C6346 1.377 . S
C6333 C6332 1.524 . S
C6333 C6334 1.397 . S
C6333 C6338 1.363 . S
C6334 H6311 0.950 . S
C6334 C6333 1.397 . S
C6334 C6335 1.334 . S
C6335 H6312 0.950 . S
C6335 C6334 1.334 . S
C6335 C6336 1.287 . S
C6336 C6335 1.287 . S
C6336 C6337 1.524 . S
C6336 H6355 0.913 . S
C6337 H6313 0.950 . S
C6337 C6336 1.524 . S
C6337 C6338 1.415 . S
C6338 H6314 0.950 . S
C6338 C6333 1.363 . S
C6338 C6337 1.415 . S
C6339 H6315 0.951 . S
C6339 C6340 1.366 . S
C6339 C6341 1.388 . S
C6340 C6339 1.366 . S
C6340 C6344 1.385 . S
C6341 H6316 0.951 . S
C6341 C6339 1.388 . S
C6341 C6342 1.366 . S
C6342 C6341 1.366 . S
C6342 C6343 1.414 . S
C6342 C6345 1.499 . S
C6343 H6317 0.950 . S
C6343 C6342 1.414 . S
C6343 C6344 1.374 . S
C6344 H6318 0.950 . S
C6344 C6340 1.385 . S
C6344 C6343 1.374 . S
C6345 C6342 1.499 . S
C6345 C6346 1.373 . S
C6345 C6347 1.389 . S
C6346 H6319 0.950 . S
C6346 C6332 1.377 . S
C6346 C6345 1.373 . S
C6347 C6331 1.377 . S
C6347 C6345 1.389 . S
C6347 C6348 1.524 . S
C6348 C6347 1.524 . S
C6348 C6349 1.397 . S
C6348 C6353 1.363 . S
C6349 H6320 0.950 . S
C6349 C6348 1.397 . S
C6349 C6350 1.334 . S
C6350 H6321 0.950 . S
C6350 C6349 1.334 . S
C6350 C6351 1.287 . S
C6351 C6350 1.287 . S
C6351 C6352 1.524 . S
C6351 H6354 0.999 . S
C6352 H6322 0.950 . S
C6352 C6351 1.524 . S
C6352 C6353 1.415 . S
C6353 H6323 0.950 . S
C6353 C6348 1.363 . S
C6353 C6352 1.415 . S
H6354 C6351 0.999 . S
H6355 C6336 0.913 . S
H6356 C6374 0.951 . S
H6357 C6376 0.951 . S
H6358 C6378 0.950 . S
H6359 C6379 0.950 . S
H6360 C6381 0.950 . S
H6361 C6384 0.950 . S
H6362 C6385 0.950 . S
H6363 C6387 0.950 . S
H6364 C6388 0.950 . S
H6365 C6389 0.951 . S
H6366 C6391 0.951 . S
H6367 C6393 0.950 . S
H6368 C6394 0.950 . S
H6369 C6396 0.950 . S
H6370 C6399 0.950 . S
H6371 C6400 0.950 . S
H6372 C6402 0.950 . S
H6373 C6403 0.950 . S
C6374 H6356 0.951 . S
C6374 C6375 1.366 . S
C6374 C6376 1.388 . S
C6375 C6374 1.366 . S
C6375 C6379 1.385 . S
C6376 H6357 0.951 . S
C6376 C6374 1.388 . S
C6376 C6377 1.366 . S
C6377 C6376 1.366 . S
C6377 C6378 1.414 . S
C6377 C6380 1.499 . S
C6378 H6358 0.950 . S
C6378 C6377 1.414 . S
C6378 C6379 1.374 . S
C6379 H6359 0.950 . S
C6379 C6375 1.385 . S
C6379 C6378 1.374 . S
C6380 C6377 1.499 . S
C6380 C6381 1.373 . S
C6380 C6382 1.389 . S
C6381 H6360 0.950 . S
C6381 C6380 1.373 . S
C6381 C6397 1.377 . S
C6382 C6380 1.389 . S
C6382 C6383 1.524 . S
C6382 C6396 1.377 . S
C6383 C6382 1.524 . S
C6383 C6384 1.397 . S
C6383 C6388 1.363 . S
C6384 H6361 0.950 . S
C6384 C6383 1.397 . S
C6384 C6385 1.334 . S
C6385 H6362 0.950 . S
C6385 C6384 1.334 . S
C6385 C6386 1.287 . S
C6386 C6385 1.287 . S
C6386 C6387 1.524 . S
C6386 H6405 0.913 . S
C6387 H6363 0.950 . S
C6387 C6386 1.524 . S
C6387 C6388 1.415 . S
C6388 H6364 0.950 . S
C6388 C6383 1.363 . S
C6388 C6387 1.415 . S
C6389 H6365 0.951 . S
C6389 C6390 1.366 . S
C6389 C6391 1.388 . S
C6390 C6389 1.366 . S
C6390 C6394 1.385 . S
C6391 H6366 0.951 . S
C6391 C6389 1.388 . S
C6391 C6392 1.366 . S
C6392 C6391 1.366 . S
C6392 C6393 1.414 . S
C6392 C6395 1.499 . S
C6393 H6367 0.950 . S
C6393 C6392 1.414 . S
C6393 C6394 1.374 . S
C6394 H6368 0.950 . S
C6394 C6390 1.385 . S
C6394 C6393 1.374 . S
C6395 C6392 1.499 . S
C6395 C6396 1.373 . S
C6395 C6397 1.389 . S
C6396 H6369 0.950 . S
C6396 C6382 1.377 . S
C6396 C6395 1.373 . S
C6397 C6381 1.377 . S
C6397 C6395 1.389 . S
C6397 C6398 1.524 . S
C6398 C6397 1.524 . S
C6398 C6399 1.397 . S
C6398 C6403 1.363 . S
C6399 H6370 0.950 . S
C6399 C6398 1.397 . S
C6399 C6400 1.334 . S
C6400 H6371 0.950 . S
C6400 C6399 1.334 . S
C6400 C6401 1.287 . S
C6401 C6400 1.287 . S
C6401 C6402 1.524 . S
C6401 H6404 0.999 . S
C6402 H6372 0.950 . S
C6402 C6401 1.524 . S
C6402 C6403 1.415 . S
C6403 H6373 0.950 . S
C6403 C6398 1.363 . S
C6403 C6402 1.415 . S
H6404 C6401 0.999 . S
H6405 C6386 0.913 . S
H6406 C6424 0.951 . S
H6407 C6426 0.951 . S
H6408 C6428 0.950 . S
H6409 C6429 0.950 . S
H6410 C6431 0.950 . S
H6411 C6434 0.950 . S
H6412 C6435 0.950 . S
H6413 C6437 0.950 . S
H6414 C6438 0.950 . S
H6415 C6439 0.951 . S
H6416 C6441 0.951 . S
H6417 C6443 0.950 . S
H6418 C6444 0.950 . S
H6419 C6446 0.950 . S
H6420 C6449 0.950 . S
H6421 C6450 0.950 . S
H6422 C6452 0.950 . S
H6423 C6453 0.950 . S
C6424 H6406 0.951 . S
C6424 C6425 1.366 . S
C6424 C6426 1.388 . S
C6425 C6424 1.366 . S
C6425 C6429 1.385 . S
C6426 H6407 0.951 . S
C6426 C6424 1.388 . S
C6426 C6427 1.366 . S
C6427 C6426 1.366 . S
C6427 C6428 1.414 . S
C6427 C6430 1.499 . S
C6428 H6408 0.950 . S
C6428 C6427 1.414 . S
C6428 C6429 1.374 . S
C6429 H6409 0.950 . S
C6429 C6425 1.385 . S
C6429 C6428 1.374 . S
C6430 C6427 1.499 . S
C6430 C6431 1.373 . S
C6430 C6432 1.389 . S
C6431 H6410 0.950 . S
C6431 C6430 1.373 . S
C6431 C6447 1.377 . S
C6432 C6430 1.389 . S
C6432 C6433 1.524 . S
C6432 C6446 1.377 . S
C6433 C6432 1.524 . S
C6433 C6434 1.397 . S
C6433 C6438 1.363 . S
C6434 H6411 0.950 . S
C6434 C6433 1.397 . S
C6434 C6435 1.334 . S
C6435 H6412 0.950 . S
C6435 C6434 1.334 . S
C6435 C6436 1.287 . S
C6436 C6435 1.287 . S
C6436 C6437 1.524 . S
C6436 H6455 0.913 . S
C6437 H6413 0.950 . S
C6437 C6436 1.524 . S
C6437 C6438 1.415 . S
C6438 H6414 0.950 . S
C6438 C6433 1.363 . S
C6438 C6437 1.415 . S
C6439 H6415 0.951 . S
C6439 C6440 1.366 . S
C6439 C6441 1.388 . S
C6440 C6439 1.366 . S
C6440 C6444 1.385 . S
C6441 H6416 0.951 . S
C6441 C6439 1.388 . S
C6441 C6442 1.366 . S
C6442 C6441 1.366 . S
C6442 C6443 1.414 . S
C6442 C6445 1.499 . S
C6443 H6417 0.950 . S
C6443 C6442 1.414 . S
C6443 C6444 1.374 . S
C6444 H6418 0.950 . S
C6444 C6440 1.385 . S
C6444 C6443 1.374 . S
C6445 C6442 1.499 . S
C6445 C6446 1.373 . S
C6445 C6447 1.389 . S
C6446 H6419 0.950 . S
C6446 C6432 1.377 . S
C6446 C6445 1.373 . S
C6447 C6431 1.377 . S
C6447 C6445 1.389 . S
C6447 C6448 1.524 . S
C6448 C6447 1.524 . S
C6448 C6449 1.397 . S
C6448 C6453 1.363 . S
C6449 H6420 0.950 . S
C6449 C6448 1.397 . S
C6449 C6450 1.334 . S
C6450 H6421 0.950 . S
C6450 C6449 1.334 . S
C6450 C6451 1.287 . S
C6451 C6450 1.287 . S
C6451 C6452 1.524 . S
C6451 H6454 0.999 . S
C6452 H6422 0.950 . S
C6452 C6451 1.524 . S
C6452 C6453 1.415 . S
C6453 H6423 0.950 . S
C6453 C6448 1.363 . S
C6453 C6452 1.415 . S
H6454 C6451 0.999 . S
H6455 C6436 0.913 . S
H6456 C6474 0.951 . S
H6457 C6476 0.951 . S
H6458 C6478 0.950 . S
H6459 C6479 0.950 . S
H6460 C6481 0.950 . S
H6461 C6484 0.950 . S
H6462 C6485 0.950 . S
H6463 C6487 0.950 . S
H6464 C6488 0.950 . S
H6465 C6489 0.951 . S
H6466 C6491 0.951 . S
H6467 C6493 0.950 . S
H6468 C6494 0.950 . S
H6469 C6496 0.950 . S
H6470 C6499 0.950 . S
H6471 C6500 0.950 . S
H6472 C6502 0.950 . S
H6473 C6503 0.950 . S
C6474 H6456 0.951 . S
C6474 C6475 1.366 . S
C6474 C6476 1.388 . S
C6475 C6474 1.366 . S
C6475 C6479 1.385 . S
C6476 H6457 0.951 . S
C6476 C6474 1.388 . S
C6476 C6477 1.366 . S
C6477 C6476 1.366 . S
C6477 C6478 1.414 . S
C6477 C6480 1.499 . S
C6478 H6458 0.950 . S
C6478 C6477 1.414 . S
C6478 C6479 1.374 . S
C6479 H6459 0.950 . S
C6479 C6475 1.385 . S
C6479 C6478 1.374 . S
C6480 C6477 1.499 . S
C6480 C6481 1.373 . S
C6480 C6482 1.389 . S
C6481 H6460 0.950 . S
C6481 C6480 1.373 . S
C6481 C6497 1.377 . S
C6482 C6480 1.389 . S
C6482 C6483 1.524 . S
C6482 C6496 1.377 . S
C6483 C6482 1.524 . S
C6483 C6484 1.397 . S
C6483 C6488 1.363 . S
C6484 H6461 0.950 . S
C6484 C6483 1.397 . S
C6484 C6485 1.334 . S
C6485 H6462 0.950 . S
C6485 C6484 1.334 . S
C6485 C6486 1.287 . S
C6486 C6485 1.287 . S
C6486 C6487 1.524 . S
C6486 H6505 0.913 . S
C6487 H6463 0.950 . S
C6487 C6486 1.524 . S
C6487 C6488 1.415 . S
C6488 H6464 0.950 . S
C6488 C6483 1.363 . S
C6488 C6487 1.415 . S
C6489 H6465 0.951 . S
C6489 C6490 1.366 . S
C6489 C6491 1.388 . S
C6490 C6489 1.366 . S
C6490 C6494 1.385 . S
C6491 H6466 0.951 . S
C6491 C6489 1.388 . S
C6491 C6492 1.366 . S
C6492 C6491 1.366 . S
C6492 C6493 1.414 . S
C6492 C6495 1.499 . S
C6493 H6467 0.950 . S
C6493 C6492 1.414 . S
C6493 C6494 1.374 . S
C6494 H6468 0.950 . S
C6494 C6490 1.385 . S
C6494 C6493 1.374 . S
C6495 C6492 1.499 . S
C6495 C6496 1.373 . S
C6495 C6497 1.389 . S
C6496 H6469 0.950 . S
C6496 C6482 1.377 . S
C6496 C6495 1.373 . S
C6497 C6481 1.377 . S
C6497 C6495 1.389 . S
C6497 C6498 1.524 . S
C6498 C6497 1.524 . S
C6498 C6499 1.397 . S
C6498 C6503 1.363 . S
C6499 H6470 0.950 . S
C6499 C6498 1.397 . S
C6499 C6500 1.334 . S
C6500 H6471 0.950 . S
C6500 C6499 1.334 . S
C6500 C6501 1.287 . S
C6501 C6500 1.287 . S
C6501 C6502 1.524 . S
C6501 H6504 0.999 . S
C6502 H6472 0.950 . S
C6502 C6501 1.524 . S
C6502 C6503 1.415 . S
C6503 H6473 0.950 . S
C6503 C6498 1.363 . S
C6503 C6502 1.415 . S
H6504 C6501 0.999 . S
H6505 C6486 0.913 . S
H6506 C6524 0.951 . S
H6507 C6526 0.951 . S
H6508 C6528 0.950 . S
H6509 C6529 0.950 . S
H6510 C6531 0.950 . S
H6511 C6534 0.950 . S
H6512 C6535 0.950 . S
H6513 C6537 0.950 . S
H6514 C6538 0.950 . S
H6515 C6539 0.951 . S
H6516 C6541 0.951 . S
H6517 C6543 0.950 . S
H6518 C6544 0.950 . S
H6519 C6546 0.950 . S
H6520 C6549 0.950 . S
H6521 C6550 0.950 . S
H6522 C6552 0.950 . S
H6523 C6553 0.950 . S
C6524 H6506 0.951 . S
C6524 C6525 1.366 . S
C6524 C6526 1.388 . S
C6525 C6524 1.366 . S
C6525 C6529 1.385 . S
C6526 H6507 0.951 . S
C6526 C6524 1.388 . S
C6526 C6527 1.366 . S
C6527 C6526 1.366 . S
C6527 C6528 1.414 . S
C6527 C6530 1.499 . S
C6528 H6508 0.950 . S
C6528 C6527 1.414 . S
C6528 C6529 1.374 . S
C6529 H6509 0.950 . S
C6529 C6525 1.385 . S
C6529 C6528 1.374 . S
C6530 C6527 1.499 . S
C6530 C6531 1.373 . S
C6530 C6532 1.389 . S
C6531 H6510 0.950 . S
C6531 C6530 1.373 . S
C6531 C6547 1.377 . S
C6532 C6530 1.389 . S
C6532 C6533 1.524 . S
C6532 C6546 1.377 . S
C6533 C6532 1.524 . S
C6533 C6534 1.397 . S
C6533 C6538 1.363 . S
C6534 H6511 0.950 . S
C6534 C6533 1.397 . S
C6534 C6535 1.334 . S
C6535 H6512 0.950 . S
C6535 C6534 1.334 . S
C6535 C6536 1.287 . S
C6536 C6535 1.287 . S
C6536 C6537 1.524 . S
C6536 H6555 0.913 . S
C6537 H6513 0.950 . S
C6537 C6536 1.524 . S
C6537 C6538 1.415 . S
C6538 H6514 0.950 . S
C6538 C6533 1.363 . S
C6538 C6537 1.415 . S
C6539 H6515 0.951 . S
C6539 C6540 1.366 . S
C6539 C6541 1.388 . S
C6540 C6539 1.366 . S
C6540 C6544 1.385 . S
C6541 H6516 0.951 . S
C6541 C6539 1.388 . S
C6541 C6542 1.366 . S
C6542 C6541 1.366 . S
C6542 C6543 1.414 . S
C6542 C6545 1.499 . S
C6543 H6517 0.950 . S
C6543 C6542 1.414 . S
C6543 C6544 1.374 . S
C6544 H6518 0.950 . S
C6544 C6540 1.385 . S
C6544 C6543 1.374 . S
C6545 C6542 1.499 . S
C6545 C6546 1.373 . S
C6545 C6547 1.389 . S
C6546 H6519 0.950 . S
C6546 C6532 1.377 . S
C6546 C6545 1.373 . S
C6547 C6531 1.377 . S
C6547 C6545 1.389 . S
C6547 C6548 1.524 . S
C6548 C6547 1.524 . S
C6548 C6549 1.397 . S
C6548 C6553 1.363 . S
C6549 H6520 0.950 . S
C6549 C6548 1.397 . S
C6549 C6550 1.334 . S
C6550 H6521 0.950 . S
C6550 C6549 1.334 . S
C6550 C6551 1.287 . S
C6551 C6550 1.287 . S
C6551 C6552 1.524 . S
C6551 H6554 0.999 . S
C6552 H6522 0.950 . S
C6552 C6551 1.524 . S
C6552 C6553 1.415 . S
C6553 H6523 0.950 . S
C6553 C6548 1.363 . S
C6553 C6552 1.415 . S
H6554 C6551 0.999 . S
H6555 C6536 0.913 . S
H6556 C6574 0.951 . S
H6557 C6576 0.951 . S
H6558 C6578 0.950 . S
H6559 C6579 0.950 . S
H6560 C6581 0.950 . S
H6561 C6584 0.950 . S
H6562 C6585 0.950 . S
H6563 C6587 0.950 . S
H6564 C6588 0.950 . S
H6565 C6589 0.951 . S
H6566 C6591 0.951 . S
H6567 C6593 0.950 . S
H6568 C6594 0.950 . S
H6569 C6596 0.950 . S
H6570 C6599 0.950 . S
H6571 C6600 0.950 . S
H6572 C6602 0.950 . S
H6573 C6603 0.950 . S
C6574 H6556 0.951 . S
C6574 C6575 1.366 . S
C6574 C6576 1.388 . S
C6575 C6574 1.366 . S
C6575 C6579 1.385 . S
C6576 H6557 0.951 . S
C6576 C6574 1.388 . S
C6576 C6577 1.366 . S
C6577 C6576 1.366 . S
C6577 C6578 1.414 . S
C6577 C6580 1.499 . S
C6578 H6558 0.950 . S
C6578 C6577 1.414 . S
C6578 C6579 1.374 . S
C6579 H6559 0.950 . S
C6579 C6575 1.385 . S
C6579 C6578 1.374 . S
C6580 C6577 1.499 . S
C6580 C6581 1.373 . S
C6580 C6582 1.389 . S
C6581 H6560 0.950 . S
C6581 C6580 1.373 . S
C6581 C6597 1.377 . S
C6582 C6580 1.389 . S
C6582 C6583 1.524 . S
C6582 C6596 1.377 . S
C6583 C6582 1.524 . S
C6583 C6584 1.397 . S
C6583 C6588 1.363 . S
C6584 H6561 0.950 . S
C6584 C6583 1.397 . S
C6584 C6585 1.334 . S
C6585 H6562 0.950 . S
C6585 C6584 1.334 . S
C6585 C6586 1.287 . S
C6586 C6585 1.287 . S
C6586 C6587 1.524 . S
C6586 H6605 0.913 . S
C6587 H6563 0.950 . S
C6587 C6586 1.524 . S
C6587 C6588 1.415 . S
C6588 H6564 0.950 . S
C6588 C6583 1.363 . S
C6588 C6587 1.415 . S
C6589 H6565 0.951 . S
C6589 C6590 1.366 . S
C6589 C6591 1.388 . S
C6590 C6589 1.366 . S
C6590 C6594 1.385 . S
C6591 H6566 0.951 . S
C6591 C6589 1.388 . S
C6591 C6592 1.366 . S
C6592 C6591 1.366 . S
C6592 C6593 1.414 . S
C6592 C6595 1.499 . S
C6593 H6567 0.950 . S
C6593 C6592 1.414 . S
C6593 C6594 1.374 . S
C6594 H6568 0.950 . S
C6594 C6590 1.385 . S
C6594 C6593 1.374 . S
C6595 C6592 1.499 . S
C6595 C6596 1.373 . S
C6595 C6597 1.389 . S
C6596 H6569 0.950 . S
C6596 C6582 1.377 . S
C6596 C6595 1.373 . S
C6597 C6581 1.377 . S
C6597 C6595 1.389 . S
C6597 C6598 1.524 . S
C6598 C6597 1.524 . S
C6598 C6599 1.397 . S
C6598 C6603 1.363 . S
C6599 H6570 0.950 . S
C6599 C6598 1.397 . S
C6599 C6600 1.334 . S
C6600 H6571 0.950 . S
C6600 C6599 1.334 . S
C6600 C6601 1.287 . S
C6601 C6600 1.287 . S
C6601 C6602 1.524 . S
C6601 H6604 0.999 . S
C6602 H6572 0.950 . S
C6602 C6601 1.524 . S
C6602 C6603 1.415 . S
C6603 H6573 0.950 . S
C6603 C6598 1.363 . S
C6603 C6602 1.415 . S
H6604 C6601 0.999 . S
H6605 C6586 0.913 . S
H6606 C6624 0.951 . S
H6607 C6626 0.951 . S
H6608 C6628 0.950 . S
H6609 C6629 0.950 . S
H6610 C6631 0.950 . S
H6611 C6634 0.950 . S
H6612 C6635 0.950 . S
H6613 C6637 0.950 . S
H6614 C6638 0.950 . S
H6615 C6639 0.951 . S
H6616 C6641 0.951 . S
H6617 C6643 0.950 . S
H6618 C6644 0.950 . S
H6619 C6646 0.950 . S
H6620 C6649 0.950 . S
H6621 C6650 0.950 . S
H6622 C6652 0.950 . S
H6623 C6653 0.950 . S
C6624 H6606 0.951 . S
C6624 C6625 1.366 . S
C6624 C6626 1.388 . S
C6625 C6624 1.366 . S
C6625 C6629 1.385 . S
C6626 H6607 0.951 . S
C6626 C6624 1.388 . S
C6626 C6627 1.366 . S
C6627 C6626 1.366 . S
C6627 C6628 1.414 . S
C6627 C6630 1.499 . S
C6628 H6608 0.950 . S
C6628 C6627 1.414 . S
C6628 C6629 1.374 . S
C6629 H6609 0.950 . S
C6629 C6625 1.385 . S
C6629 C6628 1.374 . S
C6630 C6627 1.499 . S
C6630 C6631 1.373 . S
C6630 C6632 1.389 . S
C6631 H6610 0.950 . S
C6631 C6630 1.373 . S
C6631 C6647 1.377 . S
C6632 C6630 1.389 . S
C6632 C6633 1.524 . S
C6632 C6646 1.377 . S
C6633 C6632 1.524 . S
C6633 C6634 1.397 . S
C6633 C6638 1.363 . S
C6634 H6611 0.950 . S
C6634 C6633 1.397 . S
C6634 C6635 1.334 . S
C6635 H6612 0.950 . S
C6635 C6634 1.334 . S
C6635 C6636 1.287 . S
C6636 C6635 1.287 . S
C6636 C6637 1.524 . S
C6636 H6655 0.913 . S
C6637 H6613 0.950 . S
C6637 C6636 1.524 . S
C6637 C6638 1.415 . S
C6638 H6614 0.950 . S
C6638 C6633 1.363 . S
C6638 C6637 1.415 . S
C6639 H6615 0.951 . S
C6639 C6640 1.366 . S
C6639 C6641 1.388 . S
C6640 C6639 1.366 . S
C6640 C6644 1.385 . S
C6641 H6616 0.951 . S
C6641 C6639 1.388 . S
C6641 C6642 1.366 . S
C6642 C6641 1.366 . S
C6642 C6643 1.414 . S
C6642 C6645 1.499 . S
C6643 H6617 0.950 . S
C6643 C6642 1.414 . S
C6643 C6644 1.374 . S
C6644 H6618 0.950 . S
C6644 C6640 1.385 . S
C6644 C6643 1.374 . S
C6645 C6642 1.499 . S
C6645 C6646 1.373 . S
C6645 C6647 1.389 . S
C6646 H6619 0.950 . S
C6646 C6632 1.377 . S
C6646 C6645 1.373 . S
C6647 C6631 1.377 . S
C6647 C6645 1.389 . S
C6647 C6648 1.524 . S
C6648 C6647 1.524 . S
C6648 C6649 1.397 . S
C6648 C6653 1.363 . S
C6649 H6620 0.950 . S
C6649 C6648 1.397 . S
C6649 C6650 1.334 . S
C6650 H6621 0.950 . S
C6650 C6649 1.334 . S
C6650 C6651 1.287 . S
C6651 C6650 1.287 . S
C6651 C6652 1.524 . S
C6651 H6654 0.999 . S
C6652 H6622 0.950 . S
C6652 C6651 1.524 . S
C6652 C6653 1.415 . S
C6653 H6623 0.950 . S
C6653 C6648 1.363 . S
C6653 C6652 1.415 . S
H6654 C6651 0.999 . S
H6655 C6636 0.913 . S
H6656 C6674 0.951 . S
H6657 C6676 0.951 . S
H6658 C6678 0.950 . S
H6659 C6679 0.950 . S
H6660 C6681 0.950 . S
H6661 C6684 0.950 . S
H6662 C6685 0.950 . S
H6663 C6687 0.950 . S
H6664 C6688 0.950 . S
H6665 C6689 0.951 . S
H6666 C6691 0.951 . S
H6667 C6693 0.950 . S
H6668 C6694 0.950 . S
H6669 C6696 0.950 . S
H6670 C6699 0.950 . S
H6671 C6700 0.950 . S
H6672 C6702 0.950 . S
H6673 C6703 0.950 . S
C6674 H6656 0.951 . S
C6674 C6675 1.366 . S
C6674 C6676 1.388 . S
C6675 C6674 1.366 . S
C6675 C6679 1.385 . S
C6676 H6657 0.951 . S
C6676 C6674 1.388 . S
C6676 C6677 1.366 . S
C6677 C6676 1.366 . S
C6677 C6678 1.414 . S
C6677 C6680 1.499 . S
C6678 H6658 0.950 . S
C6678 C6677 1.414 . S
C6678 C6679 1.374 . S
C6679 H6659 0.950 . S
C6679 C6675 1.385 . S
C6679 C6678 1.374 . S
C6680 C6677 1.499 . S
C6680 C6681 1.373 . S
C6680 C6682 1.389 . S
C6681 H6660 0.950 . S
C6681 C6680 1.373 . S
C6681 C6697 1.377 . S
C6682 C6680 1.389 . S
C6682 C6683 1.524 . S
C6682 C6696 1.377 . S
C6683 C6682 1.524 . S
C6683 C6684 1.397 . S
C6683 C6688 1.363 . S
C6684 H6661 0.950 . S
C6684 C6683 1.397 . S
C6684 C6685 1.334 . S
C6685 H6662 0.950 . S
C6685 C6684 1.334 . S
C6685 C6686 1.287 . S
C6686 C6685 1.287 . S
C6686 C6687 1.524 . S
C6686 H6705 0.913 . S
C6687 H6663 0.950 . S
C6687 C6686 1.524 . S
C6687 C6688 1.415 . S
C6688 H6664 0.950 . S
C6688 C6683 1.363 . S
C6688 C6687 1.415 . S
C6689 H6665 0.951 . S
C6689 C6690 1.366 . S
C6689 C6691 1.388 . S
C6690 C6689 1.366 . S
C6690 C6694 1.385 . S
C6691 H6666 0.951 . S
C6691 C6689 1.388 . S
C6691 C6692 1.366 . S
C6692 C6691 1.366 . S
C6692 C6693 1.414 . S
C6692 C6695 1.499 . S
C6693 H6667 0.950 . S
C6693 C6692 1.414 . S
C6693 C6694 1.374 . S
C6694 H6668 0.950 . S
C6694 C6690 1.385 . S
C6694 C6693 1.374 . S
C6695 C6692 1.499 . S
C6695 C6696 1.373 . S
C6695 C6697 1.389 . S
C6696 H6669 0.950 . S
C6696 C6682 1.377 . S
C6696 C6695 1.373 . S
C6697 C6681 1.377 . S
C6697 C6695 1.389 . S
C6697 C6698 1.524 . S
C6698 C6697 1.524 . S
C6698 C6699 1.397 . S
C6698 C6703 1.363 . S
C6699 H6670 0.950 . S
C6699 C6698 1.397 . S
C6699 C6700 1.334 . S
C6700 H6671 0.950 . S
C6700 C6699 1.334 . S
C6700 C6701 1.287 . S
C6701 C6700 1.287 . S
C6701 C6702 1.524 . S
C6701 H6704 0.999 . S
C6702 H6672 0.950 . S
C6702 C6701 1.524 . S
C6702 C6703 1.415 . S
C6703 H6673 0.950 . S
C6703 C6698 1.363 . S
C6703 C6702 1.415 . S
H6704 C6701 0.999 . S
H6705 C6686 0.913 . S
H6706 C6724 0.951 . S
H6707 C6726 0.951 . S
H6708 C6728 0.950 . S
H6709 C6729 0.950 . S
H6710 C6731 0.950 . S
H6711 C6734 0.950 . S
H6712 C6735 0.950 . S
H6713 C6737 0.950 . S
H6714 C6738 0.950 . S
H6715 C6739 0.951 . S
H6716 C6741 0.951 . S
H6717 C6743 0.950 . S
H6718 C6744 0.950 . S
H6719 C6746 0.950 . S
H6720 C6749 0.950 . S
H6721 C6750 0.950 . S
H6722 C6752 0.950 . S
H6723 C6753 0.950 . S
C6724 H6706 0.951 . S
C6724 C6725 1.366 . S
C6724 C6726 1.388 . S
C6725 C6724 1.366 . S
C6725 C6729 1.385 . S
C6726 H6707 0.951 . S
C6726 C6724 1.388 . S
C6726 C6727 1.366 . S
C6727 C6726 1.366 . S
C6727 C6728 1.414 . S
C6727 C6730 1.499 . S
C6728 H6708 0.950 . S
C6728 C6727 1.414 . S
C6728 C6729 1.374 . S
C6729 H6709 0.950 . S
C6729 C6725 1.385 . S
C6729 C6728 1.374 . S
C6730 C6727 1.499 . S
C6730 C6731 1.373 . S
C6730 C6732 1.389 . S
C6731 H6710 0.950 . S
C6731 C6730 1.373 . S
C6731 C6747 1.377 . S
C6732 C6730 1.389 . S
C6732 C6733 1.524 . S
C6732 C6746 1.377 . S
C6733 C6732 1.524 . S
C6733 C6734 1.397 . S
C6733 C6738 1.363 . S
C6734 H6711 0.950 . S
C6734 C6733 1.397 . S
C6734 C6735 1.334 . S
C6735 H6712 0.950 . S
C6735 C6734 1.334 . S
C6735 C6736 1.287 . S
C6736 C6735 1.287 . S
C6736 C6737 1.524 . S
C6736 H6755 0.913 . S
C6737 H6713 0.950 . S
C6737 C6736 1.524 . S
C6737 C6738 1.415 . S
C6738 H6714 0.950 . S
C6738 C6733 1.363 . S
C6738 C6737 1.415 . S
C6739 H6715 0.951 . S
C6739 C6740 1.366 . S
C6739 C6741 1.388 . S
C6740 C6739 1.366 . S
C6740 C6744 1.385 . S
C6741 H6716 0.951 . S
C6741 C6739 1.388 . S
C6741 C6742 1.366 . S
C6742 C6741 1.366 . S
C6742 C6743 1.414 . S
C6742 C6745 1.499 . S
C6743 H6717 0.950 . S
C6743 C6742 1.414 . S
C6743 C6744 1.374 . S
C6744 H6718 0.950 . S
C6744 C6740 1.385 . S
C6744 C6743 1.374 . S
C6745 C6742 1.499 . S
C6745 C6746 1.373 . S
C6745 C6747 1.389 . S
C6746 H6719 0.950 . S
C6746 C6732 1.377 . S
C6746 C6745 1.373 . S
C6747 C6731 1.377 . S
C6747 C6745 1.389 . S
C6747 C6748 1.524 . S
C6748 C6747 1.524 . S
C6748 C6749 1.397 . S
C6748 C6753 1.363 . S
C6749 H6720 0.950 . S
C6749 C6748 1.397 . S
C6749 C6750 1.334 . S
C6750 H6721 0.950 . S
C6750 C6749 1.334 . S
C6750 C6751 1.287 . S
C6751 C6750 1.287 . S
C6751 C6752 1.524 . S
C6751 H6754 0.999 . S
C6752 H6722 0.950 . S
C6752 C6751 1.524 . S
C6752 C6753 1.415 . S
C6753 H6723 0.950 . S
C6753 C6748 1.363 . S
C6753 C6752 1.415 . S
H6754 C6751 0.999 . S
H6755 C6736 0.913 . S
H6756 C6774 0.951 . S
H6757 C6776 0.951 . S
H6758 C6778 0.950 . S
H6759 C6779 0.950 . S
H6760 C6781 0.950 . S
H6761 C6784 0.950 . S
H6762 C6785 0.950 . S
H6763 C6787 0.950 . S
H6764 C6788 0.950 . S
H6765 C6789 0.951 . S
H6766 C6791 0.951 . S
H6767 C6793 0.950 . S
H6768 C6794 0.950 . S
H6769 C6796 0.950 . S
H6770 C6799 0.950 . S
H6771 C6800 0.950 . S
H6772 C6802 0.950 . S
H6773 C6803 0.950 . S
C6774 H6756 0.951 . S
C6774 C6775 1.366 . S
C6774 C6776 1.388 . S
C6775 C6774 1.366 . S
C6775 C6779 1.385 . S
C6776 H6757 0.951 . S
C6776 C6774 1.388 . S
C6776 C6777 1.366 . S
C6777 C6776 1.366 . S
C6777 C6778 1.414 . S
C6777 C6780 1.499 . S
C6778 H6758 0.950 . S
C6778 C6777 1.414 . S
C6778 C6779 1.374 . S
C6779 H6759 0.950 . S
C6779 C6775 1.385 . S
C6779 C6778 1.374 . S
C6780 C6777 1.499 . S
C6780 C6781 1.373 . S
C6780 C6782 1.389 . S
C6781 H6760 0.950 . S
C6781 C6780 1.373 . S
C6781 C6797 1.377 . S
C6782 C6780 1.389 . S
C6782 C6783 1.524 . S
C6782 C6796 1.377 . S
C6783 C6782 1.524 . S
C6783 C6784 1.397 . S
C6783 C6788 1.363 . S
C6784 H6761 0.950 . S
C6784 C6783 1.397 . S
C6784 C6785 1.334 . S
C6785 H6762 0.950 . S
C6785 C6784 1.334 . S
C6785 C6786 1.287 . S
C6786 C6785 1.287 . S
C6786 C6787 1.524 . S
C6786 H6805 0.913 . S
C6787 H6763 0.950 . S
C6787 C6786 1.524 . S
C6787 C6788 1.415 . S
C6788 H6764 0.950 . S
C6788 C6783 1.363 . S
C6788 C6787 1.415 . S
C6789 H6765 0.951 . S
C6789 C6790 1.366 . S
C6789 C6791 1.388 . S
C6790 C6789 1.366 . S
C6790 C6794 1.385 . S
C6791 H6766 0.951 . S
C6791 C6789 1.388 . S
C6791 C6792 1.366 . S
C6792 C6791 1.366 . S
C6792 C6793 1.414 . S
C6792 C6795 1.499 . S
C6793 H6767 0.950 . S
C6793 C6792 1.414 . S
C6793 C6794 1.374 . S
C6794 H6768 0.950 . S
C6794 C6790 1.385 . S
C6794 C6793 1.374 . S
C6795 C6792 1.499 . S
C6795 C6796 1.373 . S
C6795 C6797 1.389 . S
C6796 H6769 0.950 . S
C6796 C6782 1.377 . S
C6796 C6795 1.373 . S
C6797 C6781 1.377 . S
C6797 C6795 1.389 . S
C6797 C6798 1.524 . S
C6798 C6797 1.524 . S
C6798 C6799 1.397 . S
C6798 C6803 1.363 . S
C6799 H6770 0.950 . S
C6799 C6798 1.397 . S
C6799 C6800 1.334 . S
C6800 H6771 0.950 . S
C6800 C6799 1.334 . S
C6800 C6801 1.287 . S
C6801 C6800 1.287 . S
C6801 C6802 1.524 . S
C6801 H6804 0.999 . S
C6802 H6772 0.950 . S
C6802 C6801 1.524 . S
C6802 C6803 1.415 . S
C6803 H6773 0.950 . S
C6803 C6798 1.363 . S
C6803 C6802 1.415 . S
H6804 C6801 0.999 . S
H6805 C6786 0.913 . S
H6806 C6824 0.951 . S
H6807 C6826 0.951 . S
H6808 C6828 0.950 . S
H6809 C6829 0.950 . S
H6810 C6831 0.950 . S
H6811 C6834 0.950 1_556 S
H6812 C6835 0.950 1_556 S
H6813 C6837 0.950 . S
H6814 C6838 0.950 . S
H6815 C6839 0.951 1_556 S
H6816 C6841 0.913 1_556 S
H6817 C6843 0.950 . S
H6818 C6844 0.950 . S
H6819 C6846 0.941 1_545 S
H6820 C6849 0.950 . S
H6821 C6850 0.950 . S
H6822 C6852 0.950 . S
H6823 C6853 0.950 . S
C6824 H6806 0.951 . S
C6824 C6825 1.366 . S
C6824 C6826 1.388 . S
C6825 C6824 1.366 . S
C6825 C6829 1.385 1_554 S
C6826 H6807 0.951 . S
C6826 C6824 1.388 . S
C6826 C6827 1.366 . S
C6827 C6826 1.366 . S
C6827 C6828 1.414 1_554 S
C6827 C6830 1.499 . S
C6828 H6808 0.950 . S
C6828 C6827 1.414 1_556 S
C6828 C6829 1.374 . S
C6829 H6809 0.950 . S
C6829 C6825 1.385 1_556 S
C6829 C6828 1.374 . S
C6830 C6827 1.499 . S
C6830 C6831 1.373 . S
C6830 C6832 1.389 . S
C6831 H6810 0.950 . S
C6831 C6830 1.373 . S
C6831 C6847 1.377 . S
C6832 C6830 1.389 . S
C6832 C6833 1.524 1_565 S
C6832 C6846 1.378 . S
C6833 C6832 1.524 1_545 S
C6833 C6834 1.397 . S
C6833 C6838 1.363 . S
C6834 H6811 0.950 1_554 S
C6834 C6833 1.397 . S
C6834 C6835 1.334 . S
C6835 H6812 0.950 1_554 S
C6835 C6834 1.334 . S
C6835 C6836 1.287 . S
C6836 C6835 1.287 . S
C6836 C6837 1.524 . S
C6836 H6855 0.913 . S
C6837 H6813 0.950 . S
C6837 C6836 1.524 . S
C6837 C6838 1.415 . S
C6838 H6814 0.950 . S
C6838 C6833 1.363 . S
C6838 C6837 1.415 . S
C6839 H6815 0.951 1_554 S
C6839 C6840 1.366 1_565 S
C6839 C6841 1.384 . S
C6840 C6839 1.366 1_545 S
C6840 C6844 1.385 . S
C6841 H6816 0.913 1_554 S
C6841 C6839 1.384 . S
C6841 C6842 1.408 . S
C6842 C6841 1.408 . S
C6842 C6843 1.414 1_565 S
C6842 C6845 1.499 . S
C6843 H6817 0.950 . S
C6843 C6842 1.414 1_545 S
C6843 C6844 1.374 . S
C6844 H6818 0.950 . S
C6844 C6840 1.385 . S
C6844 C6843 1.374 . S
C6845 C6842 1.499 . S
C6845 C6846 1.381 . S
C6845 C6847 1.389 . S
C6846 H6819 0.941 1_565 S
C6846 C6832 1.378 . S
C6846 C6845 1.381 . S
C6847 C6831 1.377 . S
C6847 C6845 1.389 . S
C6847 C6848 1.524 . S
C6848 C6847 1.524 . S
C6848 C6849 1.397 . S
C6848 C6853 1.363 1_554 S
C6849 H6820 0.950 . S
C6849 C6848 1.397 . S
C6849 C6850 1.334 . S
C6850 H6821 0.950 . S
C6850 C6849 1.334 . S
C6850 C6851 1.287 . S
C6851 C6850 1.287 . S
C6851 C6852 1.524 1_554 S
C6851 H6854 0.999 . S
C6852 H6822 0.950 . S
C6852 C6851 1.524 1_556 S
C6852 C6853 1.415 . S
C6853 H6823 0.950 . S
C6853 C6848 1.363 1_556 S
C6853 C6852 1.415 . S
H6854 C6851 0.999 . S
H6855 C6836 0.913 . S
H6856 C6874 0.951 . S
H6857 C6876 0.951 . S
H6858 C6878 0.950 . S
H6859 C6879 0.950 . S
H6860 C6881 0.950 . S
H6861 C6884 0.950 . S
H6862 C6885 0.950 . S
H6863 C6887 0.950 . S
H6864 C6888 0.950 . S
H6865 C6889 0.951 . S
H6866 C6891 0.951 . S
H6867 C6893 0.950 . S
H6868 C6894 0.950 . S
H6869 C6896 0.950 . S
H6870 C6899 0.950 . S
H6871 C6900 0.950 . S
H6872 C6902 0.950 . S
H6873 C6903 0.950 . S
C6874 H6856 0.951 . S
C6874 C6875 1.366 . S
C6874 C6876 1.388 . S
C6875 C6874 1.366 . S
C6875 C6879 1.385 . S
C6876 H6857 0.951 . S
C6876 C6874 1.388 . S
C6876 C6877 1.366 . S
C6877 C6876 1.366 . S
C6877 C6878 1.414 . S
C6877 C6880 1.499 . S
C6878 H6858 0.950 . S
C6878 C6877 1.414 . S
C6878 C6879 1.374 . S
C6879 H6859 0.950 . S
C6879 C6875 1.385 . S
C6879 C6878 1.374 . S
C6880 C6877 1.499 . S
C6880 C6881 1.373 . S
C6880 C6882 1.389 . S
C6881 H6860 0.950 . S
C6881 C6880 1.373 . S
C6881 C6897 1.377 . S
C6882 C6880 1.389 . S
C6882 C6883 1.524 . S
C6882 C6896 1.377 . S
C6883 C6882 1.524 . S
C6883 C6884 1.397 . S
C6883 C6888 1.363 . S
C6884 H6861 0.950 . S
C6884 C6883 1.397 . S
C6884 C6885 1.334 . S
C6885 H6862 0.950 . S
C6885 C6884 1.334 . S
C6885 C6886 1.287 . S
C6886 C6885 1.287 . S
C6886 C6887 1.524 . S
C6886 H6905 0.913 . S
C6887 H6863 0.950 . S
C6887 C6886 1.524 . S
C6887 C6888 1.415 . S
C6888 H6864 0.950 . S
C6888 C6883 1.363 . S
C6888 C6887 1.415 . S
C6889 H6865 0.951 . S
C6889 C6890 1.366 . S
C6889 C6891 1.388 . S
C6890 C6889 1.366 . S
C6890 C6894 1.385 . S
C6891 H6866 0.951 . S
C6891 C6889 1.388 . S
C6891 C6892 1.366 . S
C6892 C6891 1.366 . S
C6892 C6893 1.414 . S
C6892 C6895 1.499 . S
C6893 H6867 0.950 . S
C6893 C6892 1.414 . S
C6893 C6894 1.374 . S
C6894 H6868 0.950 . S
C6894 C6890 1.385 . S
C6894 C6893 1.374 . S
C6895 C6892 1.499 . S
C6895 C6896 1.373 . S
C6895 C6897 1.389 . S
C6896 H6869 0.950 . S
C6896 C6882 1.377 . S
C6896 C6895 1.373 . S
C6897 C6881 1.377 . S
C6897 C6895 1.389 . S
C6897 C6898 1.524 . S
C6898 C6897 1.524 . S
C6898 C6899 1.397 . S
C6898 C6903 1.363 . S
C6899 H6870 0.950 . S
C6899 C6898 1.397 . S
C6899 C6900 1.334 . S
C6900 H6871 0.950 . S
C6900 C6899 1.334 . S
C6900 C6901 1.287 . S
C6901 C6900 1.287 . S
C6901 C6902 1.524 . S
C6901 H6904 0.999 . S
C6902 H6872 0.950 . S
C6902 C6901 1.524 . S
C6902 C6903 1.415 . S
C6903 H6873 0.950 . S
C6903 C6898 1.363 . S
C6903 C6902 1.415 . S
H6904 C6901 0.999 . S
H6905 C6886 0.913 . S
H6906 C6924 0.951 . S
H6907 C6926 0.951 . S
H6908 C6928 0.950 . S
H6909 C6929 0.950 . S
H6910 C6931 0.950 . S
H6911 C6934 0.950 . S
H6912 C6935 0.950 . S
H6913 C6937 0.950 . S
H6914 C6938 0.950 . S
H6915 C6939 0.951 . S
H6916 C6941 0.951 . S
H6917 C6943 0.950 . S
H6918 C6944 0.950 . S
H6919 C6946 0.950 1_556 S
H6920 C6949 0.950 . S
H6921 C6950 0.950 . S
H6922 C6952 0.950 . S
H6923 C6953 0.950 . S
C6924 H6906 0.951 . S
C6924 C6925 1.366 . S
C6924 C6926 1.388 . S
C6925 C6924 1.366 . S
C6925 C6929 1.385 . S
C6926 H6907 0.951 . S
C6926 C6924 1.388 . S
C6926 C6927 1.366 . S
C6927 C6926 1.366 . S
C6927 C6928 1.414 . S
C6927 C6930 1.499 . S
C6928 H6908 0.950 . S
C6928 C6927 1.414 . S
C6928 C6929 1.374 . S
C6929 H6909 0.950 . S
C6929 C6925 1.385 . S
C6929 C6928 1.374 . S
C6930 C6927 1.499 . S
C6930 C6931 1.373 . S
C6930 C6932 1.431 . S
C6931 H6910 0.950 . S
C6931 C6930 1.373 . S
C6931 C6947 1.377 . S
C6932 C6930 1.431 . S
C6932 C6933 1.472 1_554 S
C6932 C6946 1.386 . S
C6933 C6932 1.472 1_556 S
C6933 C6934 1.397 . S
C6933 C6938 1.363 . S
C6934 H6911 0.950 . S
C6934 C6933 1.397 . S
C6934 C6935 1.334 . S
C6935 H6912 0.950 . S
C6935 C6934 1.334 . S
C6935 C6936 1.287 . S
C6936 C6935 1.287 . S
C6936 C6937 1.524 . S
C6936 H6955 0.913 . S
C6937 H6913 0.950 . S
C6937 C6936 1.524 . S
C6937 C6938 1.415 . S
C6938 H6914 0.950 . S
C6938 C6933 1.363 . S
C6938 C6937 1.415 . S
C6939 H6915 0.951 . S
C6939 C6940 1.366 . S
C6939 C6941 1.388 . S
C6940 C6939 1.366 . S
C6940 C6944 1.385 . S
C6941 H6916 0.951 . S
C6941 C6939 1.388 . S
C6941 C6942 1.366 . S
C6942 C6941 1.366 . S
C6942 C6943 1.414 . S
C6942 C6945 1.499 . S
C6943 H6917 0.950 . S
C6943 C6942 1.414 . S
C6943 C6944 1.374 . S
C6944 H6918 0.950 . S
C6944 C6940 1.385 . S
C6944 C6943 1.374 . S
C6945 C6942 1.499 . S
C6945 C6946 1.373 . S
C6945 C6947 1.389 . S
C6946 H6919 0.950 1_554 S
C6946 C6932 1.386 . S
C6946 C6945 1.373 . S
C6947 C6931 1.377 . S
C6947 C6945 1.389 . S
C6947 C6948 1.524 . S
C6948 C6947 1.524 . S
C6948 C6949 1.397 . S
C6948 C6953 1.363 . S
C6949 H6920 0.950 . S
C6949 C6948 1.397 . S
C6949 C6950 1.334 . S
C6950 H6921 0.950 . S
C6950 C6949 1.334 . S
C6950 C6951 1.287 . S
C6951 C6950 1.287 . S
C6951 C6952 1.524 . S
C6951 H6954 0.999 . S
C6952 H6922 0.950 . S
C6952 C6951 1.524 . S
C6952 C6953 1.415 . S
C6953 H6923 0.950 . S
C6953 C6948 1.363 . S
C6953 C6952 1.415 . S
H6954 C6951 0.999 . S
H6955 C6936 0.913 . S
H6956 C6974 0.951 . S
H6957 C6976 0.951 . S
H6958 C6978 0.950 . S
H6959 C6979 0.950 . S
H6960 C6981 0.950 . S
H6961 C6984 0.950 . S
H6962 C6985 0.950 . S
H6963 C6987 0.950 . S
H6964 C6988 0.950 . S
H6965 C6989 0.951 . S
H6966 C6991 0.951 . S
H6967 C6993 0.950 . S
H6968 C6994 0.950 . S
H6969 C6996 0.950 . S
H6970 C6999 0.950 . S
H6971 C7000 0.950 . S
H6972 C7002 0.950 . S
H6973 C7003 0.950 . S
C6974 H6956 0.951 . S
C6974 C6975 1.366 . S
C6974 C6976 1.388 . S
C6975 C6974 1.366 . S
C6975 C6979 1.385 . S
C6976 H6957 0.951 . S
C6976 C6974 1.388 . S
C6976 C6977 1.366 . S
C6977 C6976 1.366 . S
C6977 C6978 1.414 . S
C6977 C6980 1.499 . S
C6978 H6958 0.950 . S
C6978 C6977 1.414 . S
C6978 C6979 1.374 . S
C6979 H6959 0.950 . S
C6979 C6975 1.385 . S
C6979 C6978 1.374 . S
C6980 C6977 1.499 . S
C6980 C6981 1.373 . S
C6980 C6982 1.389 . S
C6981 H6960 0.950 . S
C6981 C6980 1.373 . S
C6981 C6997 1.377 . S
C6982 C6980 1.389 . S
C6982 C6983 1.524 . S
C6982 C6996 1.377 . S
C6983 C6982 1.524 . S
C6983 C6984 1.397 . S
C6983 C6988 1.363 . S
C6984 H6961 0.950 . S
C6984 C6983 1.397 . S
C6984 C6985 1.334 . S
C6985 H6962 0.950 . S
C6985 C6984 1.334 . S
C6985 C6986 1.287 . S
C6986 C6985 1.287 . S
C6986 C6987 1.524 . S
C6986 H7005 0.913 . S
C6987 H6963 0.950 . S
C6987 C6986 1.524 . S
C6987 C6988 1.415 . S
C6988 H6964 0.950 . S
C6988 C6983 1.363 . S
C6988 C6987 1.415 . S
C6989 H6965 0.951 . S
C6989 C6990 1.366 . S
C6989 C6991 1.388 . S
C6990 C6989 1.366 . S
C6990 C6994 1.385 . S
C6991 H6966 0.951 . S
C6991 C6989 1.388 . S
C6991 C6992 1.366 . S
C6992 C6991 1.366 . S
C6992 C6993 1.414 . S
C6992 C6995 1.499 . S
C6993 H6967 0.950 . S
C6993 C6992 1.414 . S
C6993 C6994 1.374 . S
C6994 H6968 0.950 . S
C6994 C6990 1.385 . S
C6994 C6993 1.374 . S
C6995 C6992 1.499 . S
C6995 C6996 1.373 . S
C6995 C6997 1.389 . S
C6996 H6969 0.950 . S
C6996 C6982 1.377 . S
C6996 C6995 1.373 . S
C6997 C6981 1.377 . S
C6997 C6995 1.389 . S
C6997 C6998 1.524 . S
C6998 C6997 1.524 . S
C6998 C6999 1.397 . S
C6998 C7003 1.363 . S
C6999 H6970 0.950 . S
C6999 C6998 1.397 . S
C6999 C7000 1.334 . S
C7000 H6971 0.950 . S
C7000 C6999 1.334 . S
C7000 C7001 1.287 . S
C7001 C7000 1.287 . S
C7001 C7002 1.524 . S
C7001 H7004 0.999 . S
C7002 H6972 0.950 . S
C7002 C7001 1.524 . S
C7002 C7003 1.415 . S
C7003 H6973 0.950 . S
C7003 C6998 1.363 . S
C7003 C7002 1.415 . S
H7004 C7001 0.999 . S
H7005 C6986 0.913 . S
H7006 C7024 0.951 . S
H7007 C7026 0.951 . S
H7008 C7028 0.950 . S
H7009 C7029 0.950 . S
H7010 C7031 0.950 . S
H7011 C7034 0.950 . S
H7012 C7035 0.950 . S
H7013 C7037 0.950 . S
H7014 C7038 0.950 . S
H7015 C7039 0.951 . S
H7016 C7041 0.951 . S
H7017 C7043 0.950 . S
H7018 C7044 0.950 . S
H7019 C7046 0.950 . S
H7020 C7049 0.950 . S
H7021 C7050 0.950 . S
H7022 C7052 0.950 . S
H7023 C7053 0.950 . S
C7024 H7006 0.951 . S
C7024 C7025 1.366 . S
C7024 C7026 1.388 . S
C7025 C7024 1.366 . S
C7025 C7029 1.385 . S
C7026 H7007 0.951 . S
C7026 C7024 1.388 . S
C7026 C7027 1.366 . S
C7027 C7026 1.366 . S
C7027 C7028 1.414 . S
C7027 C7030 1.499 . S
C7028 H7008 0.950 . S
C7028 C7027 1.414 . S
C7028 C7029 1.374 . S
C7029 H7009 0.950 . S
C7029 C7025 1.385 . S
C7029 C7028 1.374 . S
C7030 C7027 1.499 . S
C7030 C7031 1.373 . S
C7030 C7032 1.389 . S
C7031 H7010 0.950 . S
C7031 C7030 1.373 . S
C7031 C7047 1.377 . S
C7032 C7030 1.389 . S
C7032 C7033 1.524 . S
C7032 C7046 1.377 . S
C7033 C7032 1.524 . S
C7033 C7034 1.397 . S
C7033 C7038 1.363 . S
C7034 H7011 0.950 . S
C7034 C7033 1.397 . S
C7034 C7035 1.334 . S
C7035 H7012 0.950 . S
C7035 C7034 1.334 . S
C7035 C7036 1.287 . S
C7036 C7035 1.287 . S
C7036 C7037 1.524 . S
C7036 H7055 0.913 . S
C7037 H7013 0.950 . S
C7037 C7036 1.524 . S
C7037 C7038 1.415 . S
C7038 H7014 0.950 . S
C7038 C7033 1.363 . S
C7038 C7037 1.415 . S
C7039 H7015 0.951 . S
C7039 C7040 1.366 . S
C7039 C7041 1.388 . S
C7040 C7039 1.366 . S
C7040 C7044 1.385 . S
C7041 H7016 0.951 . S
C7041 C7039 1.388 . S
C7041 C7042 1.366 . S
C7042 C7041 1.366 . S
C7042 C7043 1.414 . S
C7042 C7045 1.499 . S
C7043 H7017 0.950 . S
C7043 C7042 1.414 . S
C7043 C7044 1.374 . S
C7044 H7018 0.950 . S
C7044 C7040 1.385 . S
C7044 C7043 1.374 . S
C7045 C7042 1.499 . S
C7045 C7046 1.373 . S
C7045 C7047 1.389 . S
C7046 H7019 0.950 . S
C7046 C7032 1.377 . S
C7046 C7045 1.373 . S
C7047 C7031 1.377 . S
C7047 C7045 1.389 . S
C7047 C7048 1.524 . S
C7048 C7047 1.524 . S
C7048 C7049 1.397 . S
C7048 C7053 1.363 . S
C7049 H7020 0.950 . S
C7049 C7048 1.397 . S
C7049 C7050 1.334 . S
C7050 H7021 0.950 . S
C7050 C7049 1.334 . S
C7050 C7051 1.287 . S
C7051 C7050 1.287 . S
C7051 C7052 1.524 . S
C7051 H7054 0.999 . S
C7052 H7022 0.950 . S
C7052 C7051 1.524 . S
C7052 C7053 1.415 . S
C7053 H7023 0.950 . S
C7053 C7048 1.363 . S
C7053 C7052 1.415 . S
H7054 C7051 0.999 . S
H7055 C7036 0.913 . S
H7056 C7074 0.951 . S
H7057 C7076 0.951 . S
H7058 C7078 0.950 . S
H7059 C7079 0.950 . S
H7060 C7081 0.950 . S
H7061 C7084 0.950 . S
H7062 C7085 0.950 . S
H7063 C7087 0.950 . S
H7064 C7088 0.950 . S
H7065 C7089 0.951 . S
H7066 C7091 0.951 . S
H7067 C7093 0.950 . S
H7068 C7094 0.950 . S
H7069 C7096 0.950 . S
H7070 C7099 0.950 . S
H7071 C7100 0.950 . S
H7072 C7102 0.950 . S
H7073 C7103 0.950 . S
C7074 H7056 0.951 . S
C7074 C7075 1.366 . S
C7074 C7076 1.388 . S
C7075 C7074 1.366 . S
C7075 C7079 1.385 . S
C7076 H7057 0.951 . S
C7076 C7074 1.388 . S
C7076 C7077 1.366 . S
C7077 C7076 1.366 . S
C7077 C7078 1.414 . S
C7077 C7080 1.499 . S
C7078 H7058 0.950 . S
C7078 C7077 1.414 . S
C7078 C7079 1.374 . S
C7079 H7059 0.950 . S
C7079 C7075 1.385 . S
C7079 C7078 1.374 . S
C7080 C7077 1.499 . S
C7080 C7081 1.373 . S
C7080 C7082 1.389 . S
C7081 H7060 0.950 . S
C7081 C7080 1.373 . S
C7081 C7097 1.377 . S
C7082 C7080 1.389 . S
C7082 C7083 1.524 . S
C7082 C7096 1.377 . S
C7083 C7082 1.524 . S
C7083 C7084 1.397 . S
C7083 C7088 1.363 . S
C7084 H7061 0.950 . S
C7084 C7083 1.397 . S
C7084 C7085 1.334 . S
C7085 H7062 0.950 . S
C7085 C7084 1.334 . S
C7085 C7086 1.287 . S
C7086 C7085 1.287 . S
C7086 C7087 1.524 . S
C7086 H7105 0.913 . S
C7087 H7063 0.950 . S
C7087 C7086 1.524 . S
C7087 C7088 1.415 . S
C7088 H7064 0.950 . S
C7088 C7083 1.363 . S
C7088 C7087 1.415 . S
C7089 H7065 0.951 . S
C7089 C7090 1.366 . S
C7089 C7091 1.388 . S
C7090 C7089 1.366 . S
C7090 C7094 1.385 . S
C7091 H7066 0.951 . S
C7091 C7089 1.388 . S
C7091 C7092 1.366 . S
C7092 C7091 1.366 . S
C7092 C7093 1.414 . S
C7092 C7095 1.499 . S
C7093 H7067 0.950 . S
C7093 C7092 1.414 . S
C7093 C7094 1.374 . S
C7094 H7068 0.950 . S
C7094 C7090 1.385 . S
C7094 C7093 1.374 . S
C7095 C7092 1.499 . S
C7095 C7096 1.373 . S
C7095 C7097 1.389 . S
C7096 H7069 0.950 . S
C7096 C7082 1.377 . S
C7096 C7095 1.373 . S
C7097 C7081 1.377 . S
C7097 C7095 1.389 . S
C7097 C7098 1.524 . S
C7098 C7097 1.524 . S
C7098 C7099 1.397 . S
C7098 C7103 1.363 . S
C7099 H7070 0.950 . S
C7099 C7098 1.397 . S
C7099 C7100 1.334 . S
C7100 H7071 0.950 . S
C7100 C7099 1.334 . S
C7100 C7101 1.287 . S
C7101 C7100 1.287 . S
C7101 C7102 1.524 . S
C7101 H7104 0.999 . S
C7102 H7072 0.950 . S
C7102 C7101 1.524 . S
C7102 C7103 1.415 . S
C7103 H7073 0.950 . S
C7103 C7098 1.363 . S
C7103 C7102 1.415 . S
H7104 C7101 0.999 . S
H7105 C7086 0.913 . S
H7106 C7124 0.951 . S
H7107 C7126 0.951 . S
H7108 C7128 0.950 . S
H7109 C7129 0.950 . S
H7110 C7131 0.950 . S
H7111 C7134 0.950 . S
H7112 C7135 0.950 . S
H7113 C7137 0.950 . S
H7114 C7138 0.950 . S
H7115 C7139 0.951 . S
H7116 C7141 0.951 . S
H7117 C7143 0.950 . S
H7118 C7144 0.950 . S
H7119 C7146 0.950 . S
H7120 C7149 0.950 . S
H7121 C7150 0.950 . S
H7122 C7152 0.950 . S
H7123 C7153 0.950 . S
C7124 H7106 0.951 . S
C7124 C7125 1.366 . S
C7124 C7126 1.388 . S
C7125 C7124 1.366 . S
C7125 C7129 1.385 . S
C7126 H7107 0.951 . S
C7126 C7124 1.388 . S
C7126 C7127 1.366 . S
C7127 C7126 1.366 . S
C7127 C7128 1.414 . S
C7127 C7130 1.499 . S
C7128 H7108 0.950 . S
C7128 C7127 1.414 . S
C7128 C7129 1.374 . S
C7129 H7109 0.950 . S
C7129 C7125 1.385 . S
C7129 C7128 1.374 . S
C7130 C7127 1.499 . S
C7130 C7131 1.373 . S
C7130 C7132 1.389 . S
C7131 H7110 0.950 . S
C7131 C7130 1.373 . S
C7131 C7147 1.377 . S
C7132 C7130 1.389 . S
C7132 C7133 1.524 . S
C7132 C7146 1.377 . S
C7133 C7132 1.524 . S
C7133 C7134 1.397 . S
C7133 C7138 1.363 . S
C7134 H7111 0.950 . S
C7134 C7133 1.397 . S
C7134 C7135 1.334 . S
C7135 H7112 0.950 . S
C7135 C7134 1.334 . S
C7135 C7136 1.287 . S
C7136 C7135 1.287 . S
C7136 C7137 1.524 . S
C7136 H7155 0.913 . S
C7137 H7113 0.950 . S
C7137 C7136 1.524 . S
C7137 C7138 1.415 . S
C7138 H7114 0.950 . S
C7138 C7133 1.363 . S
C7138 C7137 1.415 . S
C7139 H7115 0.951 . S
C7139 C7140 1.366 . S
C7139 C7141 1.388 . S
C7140 C7139 1.366 . S
C7140 C7144 1.385 . S
C7141 H7116 0.951 . S
C7141 C7139 1.388 . S
C7141 C7142 1.366 . S
C7142 C7141 1.366 . S
C7142 C7143 1.414 . S
C7142 C7145 1.499 . S
C7143 H7117 0.950 . S
C7143 C7142 1.414 . S
C7143 C7144 1.374 . S
C7144 H7118 0.950 . S
C7144 C7140 1.385 . S
C7144 C7143 1.374 . S
C7145 C7142 1.499 . S
C7145 C7146 1.373 . S
C7145 C7147 1.389 . S
C7146 H7119 0.950 . S
C7146 C7132 1.377 . S
C7146 C7145 1.373 . S
C7147 C7131 1.377 . S
C7147 C7145 1.389 . S
C7147 C7148 1.524 . S
C7148 C7147 1.524 . S
C7148 C7149 1.397 . S
C7148 C7153 1.363 . S
C7149 H7120 0.950 . S
C7149 C7148 1.397 . S
C7149 C7150 1.334 . S
C7150 H7121 0.950 . S
C7150 C7149 1.334 . S
C7150 C7151 1.287 . S
C7151 C7150 1.287 . S
C7151 C7152 1.524 . S
C7151 H7154 0.999 . S
C7152 H7122 0.950 . S
C7152 C7151 1.524 . S
C7152 C7153 1.415 . S
C7153 H7123 0.950 . S
C7153 C7148 1.363 . S
C7153 C7152 1.415 . S
H7154 C7151 0.999 . S
H7155 C7136 0.913 . S
H7156 C7174 0.951 . S
H7157 C7176 0.951 . S
H7158 C7178 0.950 . S
H7159 C7179 0.950 . S
H7160 C7181 0.950 . S
H7161 C7184 0.950 . S
H7162 C7185 0.950 . S
H7163 C7187 0.950 . S
H7164 C7188 0.950 . S
H7165 C7189 0.951 . S
H7166 C7191 0.951 . S
H7167 C7193 0.950 . S
H7168 C7194 0.950 . S
H7169 C7196 0.950 . S
H7170 C7199 0.950 1_455 S
H7171 C7200 0.950 . S
H7172 C7202 0.950 . S
H7173 C7203 0.950 . S
C7174 H7156 0.951 . S
C7174 C7175 1.366 . S
C7174 C7176 1.388 . S
C7175 C7174 1.366 . S
C7175 C7179 1.385 . S
C7176 H7157 0.951 . S
C7176 C7174 1.388 . S
C7176 C7177 1.366 . S
C7177 C7176 1.366 . S
C7177 C7178 1.414 . S
C7177 C7180 1.499 . S
C7178 H7158 0.950 . S
C7178 C7177 1.414 . S
C7178 C7179 1.374 . S
C7179 H7159 0.950 . S
C7179 C7175 1.385 . S
C7179 C7178 1.374 . S
C7180 C7177 1.499 . S
C7180 C7181 1.373 . S
C7180 C7182 1.389 . S
C7181 H7160 0.950 . S
C7181 C7180 1.373 . S
C7181 C7197 1.377 . S
C7182 C7180 1.389 . S
C7182 C7183 1.524 . S
C7182 C7196 1.377 . S
C7183 C7182 1.524 . S
C7183 C7184 1.397 . S
C7183 C7188 1.363 . S
C7184 H7161 0.950 . S
C7184 C7183 1.397 . S
C7184 C7185 1.334 . S
C7185 H7162 0.950 . S
C7185 C7184 1.334 . S
C7185 C7186 1.287 . S
C7186 C7185 1.287 . S
C7186 C7187 1.524 . S
C7186 H7205 0.913 . S
C7187 H7163 0.950 . S
C7187 C7186 1.524 . S
C7187 C7188 1.415 . S
C7188 H7164 0.950 . S
C7188 C7183 1.363 . S
C7188 C7187 1.415 . S
C7189 H7165 0.951 . S
C7189 C7190 1.366 . S
C7189 C7191 1.388 . S
C7190 C7189 1.366 . S
C7190 C7194 1.385 . S
C7191 H7166 0.951 . S
C7191 C7189 1.388 . S
C7191 C7192 1.366 . S
C7192 C7191 1.366 . S
C7192 C7193 1.414 . S
C7192 C7195 1.499 . S
C7193 H7167 0.950 . S
C7193 C7192 1.414 . S
C7193 C7194 1.374 . S
C7194 H7168 0.950 . S
C7194 C7190 1.385 . S
C7194 C7193 1.374 . S
C7195 C7192 1.499 . S
C7195 C7196 1.373 . S
C7195 C7197 1.389 . S
C7196 H7169 0.950 . S
C7196 C7182 1.377 . S
C7196 C7195 1.373 . S
C7197 C7181 1.377 . S
C7197 C7195 1.389 . S
C7197 C7198 1.524 1_455 S
C7198 C7197 1.524 1_655 S
C7198 C7199 1.397 . S
C7198 C7203 1.363 . S
C7199 H7170 0.950 1_655 S
C7199 C7198 1.397 . S
C7199 C7200 1.334 . S
C7200 H7171 0.950 . S
C7200 C7199 1.334 . S
C7200 C7201 1.287 . S
C7201 C7200 1.287 . S
C7201 C7202 1.524 . S
C7201 H7204 0.999 . S
C7202 H7172 0.950 . S
C7202 C7201 1.524 . S
C7202 C7203 1.415 . S
C7203 H7173 0.950 . S
C7203 C7198 1.363 . S
C7203 C7202 1.415 . S
H7204 C7201 0.999 . S
H7205 C7186 0.913 . S
H7206 C7224 0.951 . S
H7207 C7226 0.951 . S
H7208 C7228 0.950 . S
H7209 C7229 0.950 . S
H7210 C7231 0.950 . S
H7211 C7234 0.950 . S
H7212 C7235 0.950 . S
H7213 C7237 0.950 . S
H7214 C7238 0.950 . S
H7215 C7239 0.951 . S
H7216 C7241 0.951 . S
H7217 C7243 0.950 . S
H7218 C7244 0.950 . S
H7219 C7246 0.950 . S
H7220 C7249 0.950 . S
H7221 C7250 0.950 . S
H7222 C7252 0.950 . S
H7223 C7253 0.950 . S
C7224 H7206 0.951 . S
C7224 C7225 1.366 . S
C7224 C7226 1.388 . S
C7225 C7224 1.366 . S
C7225 C7229 1.385 . S
C7226 H7207 0.951 . S
C7226 C7224 1.388 . S
C7226 C7227 1.366 . S
C7227 C7226 1.366 . S
C7227 C7228 1.414 . S
C7227 C7230 1.499 . S
C7228 H7208 0.950 . S
C7228 C7227 1.414 . S
C7228 C7229 1.374 . S
C7229 H7209 0.950 . S
C7229 C7225 1.385 . S
C7229 C7228 1.374 . S
C7230 C7227 1.499 . S
C7230 C7231 1.373 . S
C7230 C7232 1.389 . S
C7231 H7210 0.950 . S
C7231 C7230 1.373 . S
C7231 C7247 1.377 . S
C7232 C7230 1.389 . S
C7232 C7233 1.524 . S
C7232 C7246 1.377 . S
C7233 C7232 1.524 . S
C7233 C7234 1.397 . S
C7233 C7238 1.363 . S
C7234 H7211 0.950 . S
C7234 C7233 1.397 . S
C7234 C7235 1.334 . S
C7235 H7212 0.950 . S
C7235 C7234 1.334 . S
C7235 C7236 1.287 . S
C7236 C7235 1.287 . S
C7236 C7237 1.524 . S
C7236 H7255 0.913 . S
C7237 H7213 0.950 . S
C7237 C7236 1.524 . S
C7237 C7238 1.415 . S
C7238 H7214 0.950 . S
C7238 C7233 1.363 . S
C7238 C7237 1.415 . S
C7239 H7215 0.951 . S
C7239 C7240 1.366 . S
C7239 C7241 1.388 . S
C7240 C7239 1.366 . S
C7240 C7244 1.385 . S
C7241 H7216 0.951 . S
C7241 C7239 1.388 . S
C7241 C7242 1.366 . S
C7242 C7241 1.366 . S
C7242 C7243 1.414 . S
C7242 C7245 1.499 . S
C7243 H7217 0.950 . S
C7243 C7242 1.414 . S
C7243 C7244 1.374 . S
C7244 H7218 0.950 . S
C7244 C7240 1.385 . S
C7244 C7243 1.374 . S
C7245 C7242 1.499 . S
C7245 C7246 1.373 . S
C7245 C7247 1.389 . S
C7246 H7219 0.950 . S
C7246 C7232 1.377 . S
C7246 C7245 1.373 . S
C7247 C7231 1.377 . S
C7247 C7245 1.389 . S
C7247 C7248 1.524 . S
C7248 C7247 1.524 . S
C7248 C7249 1.397 . S
C7248 C7253 1.363 . S
C7249 H7220 0.950 . S
C7249 C7248 1.397 . S
C7249 C7250 1.334 . S
C7250 H7221 0.950 . S
C7250 C7249 1.334 . S
C7250 C7251 1.287 . S
C7251 C7250 1.287 . S
C7251 C7252 1.524 . S
C7251 H7254 0.999 . S
C7252 H7222 0.950 . S
C7252 C7251 1.524 . S
C7252 C7253 1.415 . S
C7253 H7223 0.950 . S
C7253 C7248 1.363 . S
C7253 C7252 1.415 . S
H7254 C7251 0.999 . S
H7255 C7236 0.913 . S
H7256 C7274 0.951 . S
H7257 C7276 0.951 . S
H7258 C7278 0.950 . S
H7259 C7279 0.950 . S
H7260 C7281 0.950 . S
H7261 C7284 0.950 . S
H7262 C7285 0.950 . S
H7263 C7287 0.950 . S
H7264 C7288 0.950 . S
H7265 C7289 0.951 . S
H7266 C7291 0.951 . S
H7267 C7293 0.950 . S
H7268 C7294 0.950 . S
H7269 C7296 0.950 . S
H7270 C7299 0.950 . S
H7271 C7300 0.950 . S
H7272 C7302 0.950 . S
H7273 C7303 0.950 . S
C7274 H7256 0.951 . S
C7274 C7275 1.366 . S
C7274 C7276 1.388 . S
C7275 C7274 1.366 . S
C7275 C7279 1.385 . S
C7276 H7257 0.951 . S
C7276 C7274 1.388 . S
C7276 C7277 1.366 . S
C7277 C7276 1.366 . S
C7277 C7278 1.414 . S
C7277 C7280 1.499 . S
C7278 H7258 0.950 . S
C7278 C7277 1.414 . S
C7278 C7279 1.374 . S
C7279 H7259 0.950 . S
C7279 C7275 1.385 . S
C7279 C7278 1.374 . S
C7280 C7277 1.499 . S
C7280 C7281 1.373 . S
C7280 C7282 1.389 . S
C7281 H7260 0.950 . S
C7281 C7280 1.373 . S
C7281 C7297 1.377 . S
C7282 C7280 1.389 . S
C7282 C7283 1.524 . S
C7282 C7296 1.377 . S
C7283 C7282 1.524 . S
C7283 C7284 1.397 . S
C7283 C7288 1.363 . S
C7284 H7261 0.950 . S
C7284 C7283 1.397 . S
C7284 C7285 1.334 . S
C7285 H7262 0.950 . S
C7285 C7284 1.334 . S
C7285 C7286 1.287 . S
C7286 C7285 1.287 . S
C7286 C7287 1.524 . S
C7286 H7305 0.913 . S
C7287 H7263 0.950 . S
C7287 C7286 1.524 . S
C7287 C7288 1.415 . S
C7288 H7264 0.950 . S
C7288 C7283 1.363 . S
C7288 C7287 1.415 . S
C7289 H7265 0.951 . S
C7289 C7290 1.366 . S
C7289 C7291 1.388 . S
C7290 C7289 1.366 . S
C7290 C7294 1.385 . S
C7291 H7266 0.951 . S
C7291 C7289 1.388 . S
C7291 C7292 1.366 . S
C7292 C7291 1.366 . S
C7292 C7293 1.414 . S
C7292 C7295 1.499 . S
C7293 H7267 0.950 . S
C7293 C7292 1.414 . S
C7293 C7294 1.374 . S
C7294 H7268 0.950 . S
C7294 C7290 1.385 . S
C7294 C7293 1.374 . S
C7295 C7292 1.499 . S
C7295 C7296 1.373 . S
C7295 C7297 1.389 . S
C7296 H7269 0.950 . S
C7296 C7282 1.377 . S
C7296 C7295 1.373 . S
C7297 C7281 1.377 . S
C7297 C7295 1.389 . S
C7297 C7298 1.524 . S
C7298 C7297 1.524 . S
C7298 C7299 1.397 . S
C7298 C7303 1.363 . S
C7299 H7270 0.950 . S
C7299 C7298 1.397 . S
C7299 C7300 1.334 . S
C7300 H7271 0.950 . S
C7300 C7299 1.334 . S
C7300 C7301 1.287 . S
C7301 C7300 1.287 . S
C7301 C7302 1.524 . S
C7301 H7304 0.999 . S
C7302 H7272 0.950 . S
C7302 C7301 1.524 . S
C7302 C7303 1.415 . S
C7303 H7273 0.950 . S
C7303 C7298 1.363 . S
C7303 C7302 1.415 . S
H7304 C7301 0.999 . S
H7305 C7286 0.913 . S
H7306 C7324 0.951 . S
H7307 C7326 0.951 . S
H7308 C7328 0.950 . S
H7309 C7329 0.950 . S
H7310 C7331 0.950 . S
H7311 C7334 0.950 . S
H7312 C7335 0.950 . S
H7313 C7337 0.950 . S
H7314 C7338 0.950 . S
H7315 C7339 0.951 . S
H7316 C7341 0.951 . S
H7317 C7343 0.950 . S
H7318 C7344 0.950 . S
H7319 C7346 0.950 . S
H7320 C7349 0.950 . S
H7321 C7350 0.950 . S
H7322 C7352 0.950 . S
H7323 C7353 0.950 . S
C7324 H7306 0.951 . S
C7324 C7325 1.366 . S
C7324 C7326 1.388 . S
C7325 C7324 1.366 . S
C7325 C7329 1.385 . S
C7326 H7307 0.951 . S
C7326 C7324 1.388 . S
C7326 C7327 1.366 . S
C7327 C7326 1.366 . S
C7327 C7328 1.414 . S
C7327 C7330 1.499 . S
C7328 H7308 0.950 . S
C7328 C7327 1.414 . S
C7328 C7329 1.374 . S
C7329 H7309 0.950 . S
C7329 C7325 1.385 . S
C7329 C7328 1.374 . S
C7330 C7327 1.499 . S
C7330 C7331 1.373 . S
C7330 C7332 1.389 . S
C7331 H7310 0.950 . S
C7331 C7330 1.373 . S
C7331 C7347 1.377 . S
C7332 C7330 1.389 . S
C7332 C7333 1.524 . S
C7332 C7346 1.377 . S
C7333 C7332 1.524 . S
C7333 C7334 1.397 . S
C7333 C7338 1.363 . S
C7334 H7311 0.950 . S
C7334 C7333 1.397 . S
C7334 C7335 1.334 . S
C7335 H7312 0.950 . S
C7335 C7334 1.334 . S
C7335 C7336 1.287 . S
C7336 C7335 1.287 . S
C7336 C7337 1.524 . S
C7336 H7355 0.913 . S
C7337 H7313 0.950 . S
C7337 C7336 1.524 . S
C7337 C7338 1.415 . S
C7338 H7314 0.950 . S
C7338 C7333 1.363 . S
C7338 C7337 1.415 . S
C7339 H7315 0.951 . S
C7339 C7340 1.366 . S
C7339 C7341 1.388 . S
C7340 C7339 1.366 . S
C7340 C7344 1.385 . S
C7341 H7316 0.951 . S
C7341 C7339 1.388 . S
C7341 C7342 1.366 . S
C7342 C7341 1.366 . S
C7342 C7343 1.414 . S
C7342 C7345 1.499 . S
C7343 H7317 0.950 . S
C7343 C7342 1.414 . S
C7343 C7344 1.374 . S
C7344 H7318 0.950 . S
C7344 C7340 1.385 . S
C7344 C7343 1.374 . S
C7345 C7342 1.499 . S
C7345 C7346 1.373 . S
C7345 C7347 1.389 . S
C7346 H7319 0.950 . S
C7346 C7332 1.377 . S
C7346 C7345 1.373 . S
C7347 C7331 1.377 . S
C7347 C7345 1.389 . S
C7347 C7348 1.524 . S
C7348 C7347 1.524 . S
C7348 C7349 1.397 . S
C7348 C7353 1.363 . S
C7349 H7320 0.950 . S
C7349 C7348 1.397 . S
C7349 C7350 1.334 . S
C7350 H7321 0.950 . S
C7350 C7349 1.334 . S
C7350 C7351 1.287 . S
C7351 C7350 1.287 . S
C7351 C7352 1.524 . S
C7351 H7354 0.999 . S
C7352 H7322 0.950 . S
C7352 C7351 1.524 . S
C7352 C7353 1.415 . S
C7353 H7323 0.950 . S
C7353 C7348 1.363 . S
C7353 C7352 1.415 . S
H7354 C7351 0.999 . S
H7355 C7336 0.913 . S
H7356 C7374 0.951 . S
H7357 C7376 0.951 . S
H7358 C7378 0.950 . S
H7359 C7379 0.950 . S
H7360 C7381 0.950 . S
H7361 C7384 0.953 . S
H7362 C7385 0.950 . S
H7363 C7387 0.950 . S
H7364 C7388 0.950 . S
H7365 C7389 0.951 . S
H7366 C7391 0.951 . S
H7367 C7393 0.950 . S
H7368 C7394 0.950 . S
H7369 C7396 0.950 . S
H7370 C7399 0.950 . S
H7371 C7400 0.950 . S
H7372 C7402 0.950 . S
H7373 C7403 0.950 . S
C7374 H7356 0.951 . S
C7374 C7375 1.366 . S
C7374 C7376 1.388 . S
C7375 C7374 1.366 . S
C7375 C7379 1.385 . S
C7376 H7357 0.951 . S
C7376 C7374 1.388 . S
C7376 C7377 1.366 . S
C7377 C7376 1.366 . S
C7377 C7378 1.414 . S
C7377 C7380 1.499 . S
C7378 H7358 0.950 . S
C7378 C7377 1.414 . S
C7378 C7379 1.374 . S
C7379 H7359 0.950 . S
C7379 C7375 1.385 . S
C7379 C7378 1.374 . S
C7380 C7377 1.499 . S
C7380 C7381 1.373 . S
C7380 C7382 1.389 . S
C7381 H7360 0.950 . S
C7381 C7380 1.373 . S
C7381 C7397 1.377 . S
C7382 C7380 1.389 . S
C7382 C7383 1.524 . S
C7382 C7396 1.377 . S
C7383 C7382 1.524 . S
C7383 C7384 1.400 . S
C7383 C7388 1.363 . S
C7384 H7361 0.953 . S
C7384 C7383 1.400 . S
C7384 C7385 1.327 1_455 S
C7385 H7362 0.950 . S
C7385 C7384 1.327 1_655 S
C7385 C7386 1.287 . S
C7386 C7385 1.287 . S
C7386 C7387 1.524 . S
C7386 H7405 0.913 . S
C7387 H7363 0.950 . S
C7387 C7386 1.524 . S
C7387 C7388 1.415 1_655 S
C7388 H7364 0.950 . S
C7388 C7383 1.363 . S
C7388 C7387 1.415 1_455 S
C7389 H7365 0.951 . S
C7389 C7390 1.366 . S
C7389 C7391 1.388 . S
C7390 C7389 1.366 . S
C7390 C7394 1.385 . S
C7391 H7366 0.951 . S
C7391 C7389 1.388 . S
C7391 C7392 1.366 . S
C7392 C7391 1.366 . S
C7392 C7393 1.414 . S
C7392 C7395 1.499 . S
C7393 H7367 0.950 . S
C7393 C7392 1.414 . S
C7393 C7394 1.374 . S
C7394 H7368 0.950 . S
C7394 C7390 1.385 . S
C7394 C7393 1.374 . S
C7395 C7392 1.499 . S
C7395 C7396 1.373 . S
C7395 C7397 1.389 . S
C7396 H7369 0.950 . S
C7396 C7382 1.377 . S
C7396 C7395 1.373 . S
C7397 C7381 1.377 . S
C7397 C7395 1.389 . S
C7397 C7398 1.524 . S
C7398 C7397 1.524 . S
C7398 C7399 1.397 . S
C7398 C7403 1.363 . S
C7399 H7370 0.950 . S
C7399 C7398 1.397 . S
C7399 C7400 1.334 . S
C7400 H7371 0.950 . S
C7400 C7399 1.334 . S
C7400 C7401 1.287 . S
C7401 C7400 1.287 . S
C7401 C7402 1.524 . S
C7401 H7404 0.999 . S
C7402 H7372 0.950 . S
C7402 C7401 1.524 . S
C7402 C7403 1.415 . S
C7403 H7373 0.950 . S
C7403 C7398 1.363 . S
C7403 C7402 1.415 . S
H7404 C7401 0.999 . S
H7405 C7386 0.913 . S
H7406 C7424 0.951 . S
H7407 C7426 0.951 . S
H7408 C7428 0.950 . S
H7409 C7429 0.950 . S
H7410 C7431 0.950 . S
H7411 C7434 0.950 . S
H7412 C7435 0.950 . S
H7413 C7437 0.950 . S
H7414 C7438 0.950 . S
H7415 C7439 0.951 . S
H7416 C7441 0.951 . S
H7417 C7443 0.950 . S
H7418 C7444 0.950 . S
H7419 C7446 0.950 . S
H7420 C7449 0.950 . S
H7421 C7450 0.950 . S
H7422 C7452 0.950 . S
H7423 C7453 0.950 . S
C7424 H7406 0.951 . S
C7424 C7425 1.366 . S
C7424 C7426 1.388 . S
C7425 C7424 1.366 . S
C7425 C7429 1.385 . S
C7426 H7407 0.951 . S
C7426 C7424 1.388 . S
C7426 C7427 1.366 . S
C7427 C7426 1.366 . S
C7427 C7428 1.414 . S
C7427 C7430 1.499 . S
C7428 H7408 0.950 . S
C7428 C7427 1.414 . S
C7428 C7429 1.374 . S
C7429 H7409 0.950 . S
C7429 C7425 1.385 . S
C7429 C7428 1.374 . S
C7430 C7427 1.499 . S
C7430 C7431 1.373 . S
C7430 C7432 1.389 . S
C7431 H7410 0.950 . S
C7431 C7430 1.373 . S
C7431 C7447 1.377 . S
C7432 C7430 1.389 . S
C7432 C7433 1.524 . S
C7432 C7446 1.377 . S
C7433 C7432 1.524 . S
C7433 C7434 1.397 . S
C7433 C7438 1.363 . S
C7434 H7411 0.950 . S
C7434 C7433 1.397 . S
C7434 C7435 1.334 . S
C7435 H7412 0.950 . S
C7435 C7434 1.334 . S
C7435 C7436 1.287 . S
C7436 C7435 1.287 . S
C7436 C7437 1.524 . S
C7436 H7455 0.913 . S
C7437 H7413 0.950 . S
C7437 C7436 1.524 . S
C7437 C7438 1.415 . S
C7438 H7414 0.950 . S
C7438 C7433 1.363 . S
C7438 C7437 1.415 . S
C7439 H7415 0.951 . S
C7439 C7440 1.366 . S
C7439 C7441 1.388 . S
C7440 C7439 1.366 . S
C7440 C7444 1.385 . S
C7441 H7416 0.951 . S
C7441 C7439 1.388 . S
C7441 C7442 1.366 . S
C7442 C7441 1.366 . S
C7442 C7443 1.414 . S
C7442 C7445 1.499 . S
C7443 H7417 0.950 . S
C7443 C7442 1.414 . S
C7443 C7444 1.374 . S
C7444 H7418 0.950 . S
C7444 C7440 1.385 . S
C7444 C7443 1.374 . S
C7445 C7442 1.499 . S
C7445 C7446 1.373 . S
C7445 C7447 1.389 . S
C7446 H7419 0.950 . S
C7446 C7432 1.377 . S
C7446 C7445 1.373 . S
C7447 C7431 1.377 . S
C7447 C7445 1.389 . S
C7447 C7448 1.524 . S
C7448 C7447 1.524 . S
C7448 C7449 1.397 . S
C7448 C7453 1.363 . S
C7449 H7420 0.950 . S
C7449 C7448 1.397 . S
C7449 C7450 1.334 . S
C7450 H7421 0.950 . S
C7450 C7449 1.334 . S
C7450 C7451 1.287 . S
C7451 C7450 1.287 . S
C7451 C7452 1.524 . S
C7451 H7454 0.999 . S
C7452 H7422 0.950 . S
C7452 C7451 1.524 . S
C7452 C7453 1.415 . S
C7453 H7423 0.950 . S
C7453 C7448 1.363 . S
C7453 C7452 1.415 . S
H7454 C7451 0.999 . S
H7455 C7436 0.913 . S
H7456 C7474 0.951 . S
H7457 C7476 0.951 . S
H7458 C7478 0.950 . S
H7459 C7479 0.950 . S
H7460 C7481 0.950 . S
H7461 C7484 0.950 . S
H7462 C7485 0.950 . S
H7463 C7487 0.950 . S
H7464 C7488 0.950 . S
H7465 C7489 0.951 . S
H7466 C7491 0.951 . S
H7467 C7493 0.950 . S
H7468 C7494 0.950 . S
H7469 C7496 0.950 . S
H7470 C7499 0.950 . S
H7471 C7500 0.950 . S
H7472 C7502 0.950 . S
H7473 C7503 0.950 . S
C7474 H7456 0.951 . S
C7474 C7475 1.366 . S
C7474 C7476 1.388 . S
C7475 C7474 1.366 . S
C7475 C7479 1.385 . S
C7476 H7457 0.951 . S
C7476 C7474 1.388 . S
C7476 C7477 1.366 . S
C7477 C7476 1.366 . S
C7477 C7478 1.414 . S
C7477 C7480 1.499 . S
C7478 H7458 0.950 . S
C7478 C7477 1.414 . S
C7478 C7479 1.374 . S
C7479 H7459 0.950 . S
C7479 C7475 1.385 . S
C7479 C7478 1.374 . S
C7480 C7477 1.499 . S
C7480 C7481 1.373 . S
C7480 C7482 1.389 . S
C7481 H7460 0.950 . S
C7481 C7480 1.373 . S
C7481 C7497 1.377 . S
C7482 C7480 1.389 . S
C7482 C7483 1.524 . S
C7482 C7496 1.377 . S
C7483 C7482 1.524 . S
C7483 C7484 1.397 . S
C7483 C7488 1.363 . S
C7484 H7461 0.950 . S
C7484 C7483 1.397 . S
C7484 C7485 1.334 . S
C7485 H7462 0.950 . S
C7485 C7484 1.334 . S
C7485 C7486 1.287 . S
C7486 C7485 1.287 . S
C7486 C7487 1.524 . S
C7486 H7505 0.913 . S
C7487 H7463 0.950 . S
C7487 C7486 1.524 . S
C7487 C7488 1.415 . S
C7488 H7464 0.950 . S
C7488 C7483 1.363 . S
C7488 C7487 1.415 . S
C7489 H7465 0.951 . S
C7489 C7490 1.366 . S
C7489 C7491 1.388 . S
C7490 C7489 1.366 . S
C7490 C7494 1.385 . S
C7491 H7466 0.951 . S
C7491 C7489 1.388 . S
C7491 C7492 1.366 . S
C7492 C7491 1.366 . S
C7492 C7493 1.414 . S
C7492 C7495 1.499 . S
C7493 H7467 0.950 . S
C7493 C7492 1.414 . S
C7493 C7494 1.374 . S
C7494 H7468 0.950 . S
C7494 C7490 1.385 . S
C7494 C7493 1.374 . S
C7495 C7492 1.499 . S
C7495 C7496 1.373 . S
C7495 C7497 1.389 . S
C7496 H7469 0.950 . S
C7496 C7482 1.377 . S
C7496 C7495 1.373 . S
C7497 C7481 1.377 . S
C7497 C7495 1.389 . S
C7497 C7498 1.524 . S
C7498 C7497 1.524 . S
C7498 C7499 1.397 . S
C7498 C7503 1.363 . S
C7499 H7470 0.950 . S
C7499 C7498 1.397 . S
C7499 C7500 1.334 . S
C7500 H7471 0.950 . S
C7500 C7499 1.334 . S
C7500 C7501 1.287 . S
C7501 C7500 1.287 . S
C7501 C7502 1.524 . S
C7501 H7504 0.999 . S
C7502 H7472 0.950 . S
C7502 C7501 1.524 . S
C7502 C7503 1.415 . S
C7503 H7473 0.950 . S
C7503 C7498 1.363 . S
C7503 C7502 1.415 . S
H7504 C7501 0.999 . S
H7505 C7486 0.913 . S
H7506 C7524 0.951 . S
H7507 C7526 0.951 . S
H7508 C7528 0.950 . S
H7509 C7529 0.950 . S
H7510 C7531 0.950 . S
H7511 C7534 0.950 . S
H7512 C7535 0.950 . S
H7513 C7537 0.950 . S
H7514 C7538 0.950 . S
H7515 C7539 0.951 . S
H7516 C7541 0.951 . S
H7517 C7543 0.950 . S
H7518 C7544 0.950 . S
H7519 C7546 0.950 . S
H7520 C7549 0.950 . S
H7521 C7550 0.950 . S
H7522 C7552 0.950 . S
H7523 C7553 0.950 . S
C7524 H7506 0.951 . S
C7524 C7525 1.366 . S
C7524 C7526 1.388 . S
C7525 C7524 1.366 . S
C7525 C7529 1.385 . S
C7526 H7507 0.951 . S
C7526 C7524 1.388 . S
C7526 C7527 1.366 . S
C7527 C7526 1.366 . S
C7527 C7528 1.414 . S
C7527 C7530 1.499 . S
C7528 H7508 0.950 . S
C7528 C7527 1.414 . S
C7528 C7529 1.374 . S
C7529 H7509 0.950 . S
C7529 C7525 1.385 . S
C7529 C7528 1.374 . S
C7530 C7527 1.499 . S
C7530 C7531 1.373 . S
C7530 C7532 1.389 . S
C7531 H7510 0.950 . S
C7531 C7530 1.373 . S
C7531 C7547 1.377 . S
C7532 C7530 1.389 . S
C7532 C7533 1.524 . S
C7532 C7546 1.377 . S
C7533 C7532 1.524 . S
C7533 C7534 1.397 . S
C7533 C7538 1.363 . S
C7534 H7511 0.950 . S
C7534 C7533 1.397 . S
C7534 C7535 1.334 . S
C7535 H7512 0.950 . S
C7535 C7534 1.334 . S
C7535 C7536 1.287 . S
C7536 C7535 1.287 . S
C7536 C7537 1.524 . S
C7536 H7555 0.913 . S
C7537 H7513 0.950 . S
C7537 C7536 1.524 . S
C7537 C7538 1.415 . S
C7538 H7514 0.950 . S
C7538 C7533 1.363 . S
C7538 C7537 1.415 . S
C7539 H7515 0.951 . S
C7539 C7540 1.366 . S
C7539 C7541 1.388 . S
C7540 C7539 1.366 . S
C7540 C7544 1.385 . S
C7541 H7516 0.951 . S
C7541 C7539 1.388 . S
C7541 C7542 1.366 . S
C7542 C7541 1.366 . S
C7542 C7543 1.414 . S
C7542 C7545 1.499 . S
C7543 H7517 0.950 . S
C7543 C7542 1.414 . S
C7543 C7544 1.374 . S
C7544 H7518 0.950 . S
C7544 C7540 1.385 . S
C7544 C7543 1.374 . S
C7545 C7542 1.499 . S
C7545 C7546 1.373 . S
C7545 C7547 1.389 . S
C7546 H7519 0.950 . S
C7546 C7532 1.377 . S
C7546 C7545 1.373 . S
C7547 C7531 1.377 . S
C7547 C7545 1.389 . S
C7547 C7548 1.524 . S
C7548 C7547 1.524 . S
C7548 C7549 1.397 . S
C7548 C7553 1.363 . S
C7549 H7520 0.950 . S
C7549 C7548 1.397 . S
C7549 C7550 1.334 . S
C7550 H7521 0.950 . S
C7550 C7549 1.334 . S
C7550 C7551 1.287 . S
C7551 C7550 1.287 . S
C7551 C7552 1.524 . S
C7551 H7554 0.999 . S
C7552 H7522 0.950 . S
C7552 C7551 1.524 . S
C7552 C7553 1.415 . S
C7553 H7523 0.950 . S
C7553 C7548 1.363 . S
C7553 C7552 1.415 . S
H7554 C7551 0.999 . S
H7555 C7536 0.913 . S
H7556 C7574 0.951 . S
H7557 C7576 0.951 . S
H7558 C7578 0.950 . S
H7559 C7579 0.950 . S
H7560 C7581 0.950 . S
H7561 C7584 0.950 . S
H7562 C7585 0.950 . S
H7563 C7587 0.950 . S
H7564 C7588 0.950 . S
H7565 C7589 0.951 . S
H7566 C7591 0.951 1_455 S
H7567 C7593 0.950 . S
H7568 C7594 0.950 . S
H7569 C7596 0.950 . S
H7570 C7599 0.950 . S
H7571 C7600 0.950 . S
H7572 C7602 0.950 . S
H7573 C7603 0.958 . S
C7574 H7556 0.951 . S
C7574 C7575 1.366 . S
C7574 C7576 1.388 . S
C7575 C7574 1.366 . S
C7575 C7579 1.385 . S
C7576 H7557 0.951 . S
C7576 C7574 1.388 . S
C7576 C7577 1.366 . S
C7577 C7576 1.366 . S
C7577 C7578 1.414 . S
C7577 C7580 1.499 . S
C7578 H7558 0.950 . S
C7578 C7577 1.414 . S
C7578 C7579 1.374 . S
C7579 H7559 0.950 . S
C7579 C7575 1.385 . S
C7579 C7578 1.374 . S
C7580 C7577 1.499 . S
C7580 C7581 1.373 . S
C7580 C7582 1.389 . S
C7581 H7560 0.950 . S
C7581 C7580 1.373 . S
C7581 C7597 1.377 . S
C7582 C7580 1.389 . S
C7582 C7583 1.524 . S
C7582 C7596 1.377 . S
C7583 C7582 1.524 . S
C7583 C7584 1.397 . S
C7583 C7588 1.363 . S
C7584 H7561 0.950 . S
C7584 C7583 1.397 . S
C7584 C7585 1.334 . S
C7585 H7562 0.950 . S
C7585 C7584 1.334 . S
C7585 C7586 1.287 . S
C7586 C7585 1.287 . S
C7586 C7587 1.524 . S
C7586 H7605 0.913 . S
C7587 H7563 0.950 . S
C7587 C7586 1.524 . S
C7587 C7588 1.415 . S
C7588 H7564 0.950 . S
C7588 C7583 1.363 . S
C7588 C7587 1.415 . S
C7589 H7565 0.951 . S
C7589 C7590 1.396 . S
C7589 C7591 1.388 1_455 S
C7590 C7589 1.396 . S
C7590 C7594 1.323 1_455 S
C7591 H7566 0.951 1_655 S
C7591 C7589 1.388 1_655 S
C7591 C7592 1.366 . S
C7592 C7591 1.366 . S
C7592 C7593 1.414 . S
C7592 C7595 1.499 . S
C7593 H7567 0.950 . S
C7593 C7592 1.414 . S
C7593 C7594 1.374 . S
C7594 H7568 0.950 . S
C7594 C7590 1.323 1_655 S
C7594 C7593 1.374 . S
C7595 C7592 1.499 . S
C7595 C7596 1.373 . S
C7595 C7597 1.389 . S
C7596 H7569 0.950 . S
C7596 C7582 1.377 . S
C7596 C7595 1.373 . S
C7597 C7581 1.377 . S
C7597 C7595 1.389 . S
C7597 C7598 1.524 . S
C7598 C7597 1.524 . S
C7598 C7599 1.397 . S
C7598 C7603 1.363 1_655 S
C7599 H7570 0.950 . S
C7599 C7598 1.397 . S
C7599 C7600 1.334 1_655 S
C7600 H7571 0.950 . S
C7600 C7599 1.334 1_455 S
C7600 C7601 1.287 . S
C7601 C7600 1.287 . S
C7601 C7602 1.524 . S
C7601 H7604 0.999 . S
C7602 H7572 0.950 . S
C7602 C7601 1.524 . S
C7602 C7603 1.415 . S
C7603 H7573 0.958 . S
C7603 C7598 1.363 1_455 S
C7603 C7602 1.415 . S
H7604 C7601 0.999 . S
H7605 C7586 0.913 . S
H7606 C7624 0.951 . S
H7607 C7626 0.951 . S
H7608 C7628 0.950 . S
H7609 C7629 0.950 . S
H7610 C7631 0.950 . S
H7611 C7634 0.950 . S
H7612 C7635 0.950 . S
H7613 C7637 0.950 . S
H7614 C7638 0.950 . S
H7615 C7639 0.951 . S
H7616 C7641 0.951 . S
H7617 C7643 0.950 . S
H7618 C7644 0.950 . S
H7619 C7646 0.950 . S
H7620 C7649 0.950 . S
H7621 C7650 0.950 . S
H7622 C7652 0.950 . S
H7623 C7653 0.950 . S
C7624 H7606 0.951 . S
C7624 C7625 1.366 . S
C7624 C7626 1.388 . S
C7625 C7624 1.366 . S
C7625 C7629 1.385 . S
C7626 H7607 0.951 . S
C7626 C7624 1.388 . S
C7626 C7627 1.366 . S
C7627 C7626 1.366 . S
C7627 C7628 1.414 . S
C7627 C7630 1.499 . S
C7628 H7608 0.950 . S
C7628 C7627 1.414 . S
C7628 C7629 1.374 . S
C7629 H7609 0.950 . S
C7629 C7625 1.385 . S
C7629 C7628 1.374 . S
C7630 C7627 1.499 . S
C7630 C7631 1.373 . S
C7630 C7632 1.389 . S
C7631 H7610 0.950 . S
C7631 C7630 1.373 . S
C7631 C7647 1.377 . S
C7632 C7630 1.389 . S
C7632 C7633 1.524 . S
C7632 C7646 1.377 . S
C7633 C7632 1.524 . S
C7633 C7634 1.397 . S
C7633 C7638 1.363 . S
C7634 H7611 0.950 . S
C7634 C7633 1.397 . S
C7634 C7635 1.334 . S
C7635 H7612 0.950 . S
C7635 C7634 1.334 . S
C7635 C7636 1.287 . S
C7636 C7635 1.287 . S
C7636 C7637 1.524 . S
C7636 H7655 0.913 . S
C7637 H7613 0.950 . S
C7637 C7636 1.524 . S
C7637 C7638 1.415 . S
C7638 H7614 0.950 . S
C7638 C7633 1.363 . S
C7638 C7637 1.415 . S
C7639 H7615 0.951 . S
C7639 C7640 1.366 . S
C7639 C7641 1.388 . S
C7640 C7639 1.366 . S
C7640 C7644 1.385 . S
C7641 H7616 0.951 . S
C7641 C7639 1.388 . S
C7641 C7642 1.366 . S
C7642 C7641 1.366 . S
C7642 C7643 1.414 . S
C7642 C7645 1.499 . S
C7643 H7617 0.950 . S
C7643 C7642 1.414 . S
C7643 C7644 1.374 . S
C7644 H7618 0.950 . S
C7644 C7640 1.385 . S
C7644 C7643 1.374 . S
C7645 C7642 1.499 . S
C7645 C7646 1.373 . S
C7645 C7647 1.389 . S
C7646 H7619 0.950 . S
C7646 C7632 1.377 . S
C7646 C7645 1.373 . S
C7647 C7631 1.377 . S
C7647 C7645 1.389 . S
C7647 C7648 1.524 . S
C7648 C7647 1.524 . S
C7648 C7649 1.397 . S
C7648 C7653 1.363 . S
C7649 H7620 0.950 . S
C7649 C7648 1.397 . S
C7649 C7650 1.334 . S
C7650 H7621 0.950 . S
C7650 C7649 1.334 . S
C7650 C7651 1.287 . S
C7651 C7650 1.287 . S
C7651 C7652 1.524 . S
C7651 H7654 0.999 . S
C7652 H7622 0.950 . S
C7652 C7651 1.524 . S
C7652 C7653 1.415 . S
C7653 H7623 0.950 . S
C7653 C7648 1.363 . S
C7653 C7652 1.415 . S
H7654 C7651 0.999 . S
H7655 C7636 0.913 . S
H7656 C7674 0.951 . S
H7657 C7676 0.951 . S
H7658 C7678 0.950 . S
H7659 C7679 0.950 . S
H7660 C7681 0.950 . S
H7661 C7684 0.950 . S
H7662 C7685 0.950 . S
H7663 C7687 0.950 . S
H7664 C7688 0.950 . S
H7665 C7689 0.951 . S
H7666 C7691 0.951 . S
H7667 C7693 0.950 . S
H7668 C7694 0.950 . S
H7669 C7696 0.950 . S
H7670 C7699 0.950 . S
H7671 C7700 0.950 . S
H7672 C7702 0.950 . S
H7673 C7703 0.950 . S
C7674 H7656 0.951 . S
C7674 C7675 1.366 . S
C7674 C7676 1.388 . S
C7675 C7674 1.366 . S
C7675 C7679 1.385 . S
C7676 H7657 0.951 . S
C7676 C7674 1.388 . S
C7676 C7677 1.366 . S
C7677 C7676 1.366 . S
C7677 C7678 1.414 . S
C7677 C7680 1.499 . S
C7678 H7658 0.950 . S
C7678 C7677 1.414 . S
C7678 C7679 1.374 . S
C7679 H7659 0.950 . S
C7679 C7675 1.385 . S
C7679 C7678 1.374 . S
C7680 C7677 1.499 . S
C7680 C7681 1.373 . S
C7680 C7682 1.389 . S
C7681 H7660 0.950 . S
C7681 C7680 1.373 . S
C7681 C7697 1.377 . S
C7682 C7680 1.389 . S
C7682 C7683 1.524 . S
C7682 C7696 1.377 . S
C7683 C7682 1.524 . S
C7683 C7684 1.397 . S
C7683 C7688 1.363 . S
C7684 H7661 0.950 . S
C7684 C7683 1.397 . S
C7684 C7685 1.334 . S
C7685 H7662 0.950 . S
C7685 C7684 1.334 . S
C7685 C7686 1.287 . S
C7686 C7685 1.287 . S
C7686 C7687 1.524 . S
C7686 H7705 0.913 . S
C7687 H7663 0.950 . S
C7687 C7686 1.524 . S
C7687 C7688 1.415 . S
C7688 H7664 0.950 . S
C7688 C7683 1.363 . S
C7688 C7687 1.415 . S
C7689 H7665 0.951 . S
C7689 C7690 1.366 . S
C7689 C7691 1.388 . S
C7690 C7689 1.366 . S
C7690 C7694 1.385 . S
C7691 H7666 0.951 . S
C7691 C7689 1.388 . S
C7691 C7692 1.366 . S
C7692 C7691 1.366 . S
C7692 C7693 1.414 . S
C7692 C7695 1.499 . S
C7693 H7667 0.950 . S
C7693 C7692 1.414 . S
C7693 C7694 1.374 . S
C7694 H7668 0.950 . S
C7694 C7690 1.385 . S
C7694 C7693 1.374 . S
C7695 C7692 1.499 . S
C7695 C7696 1.373 . S
C7695 C7697 1.389 . S
C7696 H7669 0.950 . S
C7696 C7682 1.377 . S
C7696 C7695 1.373 . S
C7697 C7681 1.377 . S
C7697 C7695 1.389 . S
C7697 C7698 1.524 . S
C7698 C7697 1.524 . S
C7698 C7699 1.397 . S
C7698 C7703 1.363 . S
C7699 H7670 0.950 . S
C7699 C7698 1.397 . S
C7699 C7700 1.334 . S
C7700 H7671 0.950 . S
C7700 C7699 1.334 . S
C7700 C7701 1.287 . S
C7701 C7700 1.287 . S
C7701 C7702 1.524 . S
C7701 H7704 0.999 . S
C7702 H7672 0.950 . S
C7702 C7701 1.524 . S
C7702 C7703 1.415 . S
C7703 H7673 0.950 . S
C7703 C7698 1.363 . S
C7703 C7702 1.415 . S
H7704 C7701 0.999 . S
H7705 C7686 0.913 . S
H7706 C7724 0.951 . S
H7707 C7726 0.951 . S
H7708 C7728 0.950 . S
H7709 C7729 0.950 . S
H7710 C7731 0.950 . S
H7711 C7734 0.950 . S
H7712 C7735 0.950 . S
H7713 C7737 0.950 . S
H7714 C7738 0.950 . S
H7715 C7739 0.951 . S
H7716 C7741 0.951 . S
H7717 C7743 0.950 . S
H7718 C7744 0.950 . S
H7719 C7746 0.950 . S
H7720 C7749 0.950 . S
H7721 C7750 0.950 . S
H7722 C7752 0.950 . S
H7723 C7753 0.950 . S
C7724 H7706 0.951 . S
C7724 C7725 1.366 . S
C7724 C7726 1.388 . S
C7725 C7724 1.366 . S
C7725 C7729 1.385 . S
C7726 H7707 0.951 . S
C7726 C7724 1.388 . S
C7726 C7727 1.366 . S
C7727 C7726 1.366 . S
C7727 C7728 1.414 . S
C7727 C7730 1.499 . S
C7728 H7708 0.950 . S
C7728 C7727 1.414 . S
C7728 C7729 1.374 . S
C7729 H7709 0.950 . S
C7729 C7725 1.385 . S
C7729 C7728 1.374 . S
C7730 C7727 1.499 . S
C7730 C7731 1.373 . S
C7730 C7732 1.389 . S
C7731 H7710 0.950 . S
C7731 C7730 1.373 . S
C7731 C7747 1.377 . S
C7732 C7730 1.389 . S
C7732 C7733 1.524 . S
C7732 C7746 1.377 . S
C7733 C7732 1.524 . S
C7733 C7734 1.397 . S
C7733 C7738 1.363 . S
C7734 H7711 0.950 . S
C7734 C7733 1.397 . S
C7734 C7735 1.334 . S
C7735 H7712 0.950 . S
C7735 C7734 1.334 . S
C7735 C7736 1.287 . S
C7736 C7735 1.287 . S
C7736 C7737 1.524 . S
C7736 H7755 0.913 . S
C7737 H7713 0.950 . S
C7737 C7736 1.524 . S
C7737 C7738 1.415 . S
C7738 H7714 0.950 . S
C7738 C7733 1.363 . S
C7738 C7737 1.415 . S
C7739 H7715 0.951 . S
C7739 C7740 1.366 . S
C7739 C7741 1.388 . S
C7740 C7739 1.366 . S
C7740 C7744 1.385 . S
C7741 H7716 0.951 . S
C7741 C7739 1.388 . S
C7741 C7742 1.366 . S
C7742 C7741 1.366 . S
C7742 C7743 1.414 . S
C7742 C7745 1.499 . S
C7743 H7717 0.950 . S
C7743 C7742 1.414 . S
C7743 C7744 1.374 . S
C7744 H7718 0.950 . S
C7744 C7740 1.385 . S
C7744 C7743 1.374 . S
C7745 C7742 1.499 . S
C7745 C7746 1.373 . S
C7745 C7747 1.389 . S
C7746 H7719 0.950 . S
C7746 C7732 1.377 . S
C7746 C7745 1.373 . S
C7747 C7731 1.377 . S
C7747 C7745 1.389 . S
C7747 C7748 1.524 . S
C7748 C7747 1.524 . S
C7748 C7749 1.397 . S
C7748 C7753 1.363 . S
C7749 H7720 0.950 . S
C7749 C7748 1.397 . S
C7749 C7750 1.334 . S
C7750 H7721 0.950 . S
C7750 C7749 1.334 . S
C7750 C7751 1.287 . S
C7751 C7750 1.287 . S
C7751 C7752 1.524 . S
C7751 H7754 0.999 . S
C7752 H7722 0.950 . S
C7752 C7751 1.524 . S
C7752 C7753 1.415 . S
C7753 H7723 0.950 . S
C7753 C7748 1.363 . S
C7753 C7752 1.415 . S
H7754 C7751 0.999 . S
H7755 C7736 0.913 . S
H7756 C7774 0.951 . S
H7757 C7776 0.951 . S
H7758 C7778 0.950 . S
H7759 C7779 0.950 . S
H7760 C7781 0.950 . S
H7761 C7784 0.950 . S
H7762 C7785 0.950 . S
H7763 C7787 0.950 . S
H7764 C7788 0.950 . S
H7765 C7789 1.005 . S
H7766 C7791 0.951 . S
H7767 C7793 0.950 . S
H7768 C7794 0.950 . S
H7769 C7796 0.950 . S
H7770 C7799 0.950 . S
H7771 C7800 0.950 . S
H7772 C7802 0.950 . S
H7773 C7803 0.950 . S
C7774 H7756 0.951 . S
C7774 C7775 1.366 . S
C7774 C7776 1.388 . S
C7775 C7774 1.366 . S
C7775 C7779 1.385 . S
C7776 H7757 0.951 . S
C7776 C7774 1.388 . S
C7776 C7777 1.366 . S
C7777 C7776 1.366 . S
C7777 C7778 1.414 . S
C7777 C7780 1.499 . S
C7778 H7758 0.950 . S
C7778 C7777 1.414 . S
C7778 C7779 1.374 . S
C7779 H7759 0.950 . S
C7779 C7775 1.385 . S
C7779 C7778 1.374 . S
C7780 C7777 1.499 . S
C7780 C7781 1.373 . S
C7780 C7782 1.389 . S
C7781 H7760 0.950 . S
C7781 C7780 1.373 . S
C7781 C7797 1.377 . S
C7782 C7780 1.389 . S
C7782 C7783 1.524 . S
C7782 C7796 1.377 . S
C7783 C7782 1.524 . S
C7783 C7784 1.397 . S
C7783 C7788 1.363 . S
C7784 H7761 0.950 . S
C7784 C7783 1.397 . S
C7784 C7785 1.334 . S
C7785 H7762 0.950 . S
C7785 C7784 1.334 . S
C7785 C7786 1.287 . S
C7786 C7785 1.287 . S
C7786 C7787 1.524 . S
C7786 H7805 0.913 . S
C7787 H7763 0.950 . S
C7787 C7786 1.524 . S
C7787 C7788 1.415 . S
C7788 H7764 0.950 . S
C7788 C7783 1.363 . S
C7788 C7787 1.415 . S
C7789 H7765 1.005 . S
C7789 C7790 1.366 . S
C7789 C7791 1.388 . S
C7790 C7789 1.366 . S
C7790 C7794 1.385 . S
C7791 H7766 0.951 . S
C7791 C7789 1.388 . S
C7791 C7792 1.366 . S
C7792 C7791 1.366 . S
C7792 C7793 1.414 . S
C7792 C7795 1.499 . S
C7793 H7767 0.950 . S
C7793 C7792 1.414 . S
C7793 C7794 1.374 . S
C7794 H7768 0.950 . S
C7794 C7790 1.385 . S
C7794 C7793 1.374 . S
C7795 C7792 1.499 . S
C7795 C7796 1.373 . S
C7795 C7797 1.389 . S
C7796 H7769 0.950 . S
C7796 C7782 1.377 . S
C7796 C7795 1.373 . S
C7797 C7781 1.377 . S
C7797 C7795 1.389 . S
C7797 C7798 1.524 . S
C7798 C7797 1.524 . S
C7798 C7799 1.397 . S
C7798 C7803 1.363 . S
C7799 H7770 0.950 . S
C7799 C7798 1.397 . S
C7799 C7800 1.334 . S
C7800 H7771 0.950 . S
C7800 C7799 1.334 . S
C7800 C7801 1.286 . S
C7801 C7800 1.286 . S
C7801 C7802 1.524 1_655 S
C7801 H7804 1.000 1_655 S
C7802 H7772 0.950 . S
C7802 C7801 1.524 1_455 S
C7802 C7803 1.415 1_455 S
C7803 H7773 0.950 . S
C7803 C7798 1.363 . S
C7803 C7802 1.415 1_655 S
H7804 C7801 1.000 1_455 S
H7805 C7786 0.913 . S
H7806 C7824 0.951 . S
H7807 C7826 0.951 . S
H7808 C7828 0.950 . S
H7809 C7829 0.950 . S
H7810 C7831 0.950 . S
H7811 C7834 0.950 . S
H7812 C7835 0.950 . S
H7813 C7837 0.950 . S
H7814 C7838 0.950 . S
H7815 C7839 0.951 . S
H7816 C7841 0.951 . S
H7817 C7843 0.950 . S
H7818 C7844 0.950 . S
H7819 C7846 0.950 . S
H7820 C7849 0.950 . S
H7821 C7850 0.950 . S
H7822 C7852 0.950 . S
H7823 C7853 0.950 . S
C7824 H7806 0.951 . S
C7824 C7825 1.366 . S
C7824 C7826 1.388 . S
C7825 C7824 1.366 . S
C7825 C7829 1.385 . S
C7826 H7807 0.951 . S
C7826 C7824 1.388 . S
C7826 C7827 1.366 . S
C7827 C7826 1.366 . S
C7827 C7828 1.414 . S
C7827 C7830 1.499 . S
C7828 H7808 0.950 . S
C7828 C7827 1.414 . S
C7828 C7829 1.374 . S
C7829 H7809 0.950 . S
C7829 C7825 1.385 . S
C7829 C7828 1.374 . S
C7830 C7827 1.499 . S
C7830 C7831 1.373 . S
C7830 C7832 1.389 . S
C7831 H7810 0.950 . S
C7831 C7830 1.373 . S
C7831 C7847 1.377 . S
C7832 C7830 1.389 . S
C7832 C7833 1.524 . S
C7832 C7846 1.377 . S
C7833 C7832 1.524 . S
C7833 C7834 1.397 . S
C7833 C7838 1.363 . S
C7834 H7811 0.950 . S
C7834 C7833 1.397 . S
C7834 C7835 1.334 . S
C7835 H7812 0.950 . S
C7835 C7834 1.334 . S
C7835 C7836 1.287 . S
C7836 C7835 1.287 . S
C7836 C7837 1.524 . S
C7836 H7855 0.913 . S
C7837 H7813 0.950 . S
C7837 C7836 1.524 . S
C7837 C7838 1.415 . S
C7838 H7814 0.950 . S
C7838 C7833 1.363 . S
C7838 C7837 1.415 . S
C7839 H7815 0.951 . S
C7839 C7840 1.366 . S
C7839 C7841 1.388 . S
C7840 C7839 1.366 . S
C7840 C7844 1.385 . S
C7841 H7816 0.951 . S
C7841 C7839 1.388 . S
C7841 C7842 1.366 . S
C7842 C7841 1.366 . S
C7842 C7843 1.414 . S
C7842 C7845 1.499 . S
C7843 H7817 0.950 . S
C7843 C7842 1.414 . S
C7843 C7844 1.374 . S
C7844 H7818 0.950 . S
C7844 C7840 1.385 . S
C7844 C7843 1.374 . S
C7845 C7842 1.499 . S
C7845 C7846 1.373 . S
C7845 C7847 1.389 . S
C7846 H7819 0.950 . S
C7846 C7832 1.377 . S
C7846 C7845 1.373 . S
C7847 C7831 1.377 . S
C7847 C7845 1.389 . S
C7847 C7848 1.524 . S
C7848 C7847 1.524 . S
C7848 C7849 1.397 . S
C7848 C7853 1.363 . S
C7849 H7820 0.950 . S
C7849 C7848 1.397 . S
C7849 C7850 1.334 . S
C7850 H7821 0.950 . S
C7850 C7849 1.334 . S
C7850 C7851 1.287 . S
C7851 C7850 1.287 . S
C7851 C7852 1.524 . S
C7851 H7854 0.999 . S
C7852 H7822 0.950 . S
C7852 C7851 1.524 . S
C7852 C7853 1.415 . S
C7853 H7823 0.950 . S
C7853 C7848 1.363 . S
C7853 C7852 1.415 . S
H7854 C7851 0.999 . S
H7855 C7836 0.913 . S
H7856 C7874 0.951 . S
H7857 C7876 0.951 . S
H7858 C7878 0.950 . S
H7859 C7879 0.950 . S
H7860 C7881 0.950 . S
H7861 C7884 0.950 . S
H7862 C7885 0.950 . S
H7863 C7887 0.950 . S
H7864 C7888 0.950 . S
H7865 C7889 0.951 . S
H7866 C7891 0.951 . S
H7867 C7893 0.950 . S
H7868 C7894 0.950 . S
H7869 C7896 0.950 . S
H7870 C7899 0.950 . S
H7871 C7900 0.950 . S
H7872 C7902 0.950 . S
H7873 C7903 0.950 . S
C7874 H7856 0.951 . S
C7874 C7875 1.366 . S
C7874 C7876 1.388 . S
C7875 C7874 1.366 . S
C7875 C7879 1.385 . S
C7876 H7857 0.951 . S
C7876 C7874 1.388 . S
C7876 C7877 1.366 . S
C7877 C7876 1.366 . S
C7877 C7878 1.414 . S
C7877 C7880 1.499 . S
C7878 H7858 0.950 . S
C7878 C7877 1.414 . S
C7878 C7879 1.374 . S
C7879 H7859 0.950 . S
C7879 C7875 1.385 . S
C7879 C7878 1.374 . S
C7880 C7877 1.499 . S
C7880 C7881 1.373 . S
C7880 C7882 1.389 . S
C7881 H7860 0.950 . S
C7881 C7880 1.373 . S
C7881 C7897 1.377 . S
C7882 C7880 1.389 . S
C7882 C7883 1.524 . S
C7882 C7896 1.377 . S
C7883 C7882 1.524 . S
C7883 C7884 1.397 . S
C7883 C7888 1.363 . S
C7884 H7861 0.950 . S
C7884 C7883 1.397 . S
C7884 C7885 1.334 . S
C7885 H7862 0.950 . S
C7885 C7884 1.334 . S
C7885 C7886 1.287 . S
C7886 C7885 1.287 . S
C7886 C7887 1.524 . S
C7886 H7905 0.913 . S
C7887 H7863 0.950 . S
C7887 C7886 1.524 . S
C7887 C7888 1.415 . S
C7888 H7864 0.950 . S
C7888 C7883 1.363 . S
C7888 C7887 1.415 . S
C7889 H7865 0.951 . S
C7889 C7890 1.366 . S
C7889 C7891 1.388 . S
C7890 C7889 1.366 . S
C7890 C7894 1.385 . S
C7891 H7866 0.951 . S
C7891 C7889 1.388 . S
C7891 C7892 1.366 . S
C7892 C7891 1.366 . S
C7892 C7893 1.414 . S
C7892 C7895 1.499 . S
C7893 H7867 0.950 . S
C7893 C7892 1.414 . S
C7893 C7894 1.374 . S
C7894 H7868 0.950 . S
C7894 C7890 1.385 . S
C7894 C7893 1.374 . S
C7895 C7892 1.499 . S
C7895 C7896 1.373 . S
C7895 C7897 1.389 . S
C7896 H7869 0.950 . S
C7896 C7882 1.377 . S
C7896 C7895 1.373 . S
C7897 C7881 1.377 . S
C7897 C7895 1.389 . S
C7897 C7898 1.524 . S
C7898 C7897 1.524 . S
C7898 C7899 1.397 . S
C7898 C7903 1.363 . S
C7899 H7870 0.950 . S
C7899 C7898 1.397 . S
C7899 C7900 1.334 . S
C7900 H7871 0.950 . S
C7900 C7899 1.334 . S
C7900 C7901 1.287 . S
C7901 C7900 1.287 . S
C7901 C7902 1.524 . S
C7901 H7904 0.999 . S
C7902 H7872 0.950 . S
C7902 C7901 1.524 . S
C7902 C7903 1.415 . S
C7903 H7873 0.950 . S
C7903 C7898 1.363 . S
C7903 C7902 1.415 . S
H7904 C7901 0.999 . S
H7905 C7886 0.913 . S
H7906 C7924 0.951 . S
H7907 C7926 0.951 . S
H7908 C7928 0.950 . S
H7909 C7929 0.950 . S
H7910 C7931 0.950 . S
H7911 C7934 0.950 . S
H7912 C7935 0.950 . S
H7913 C7937 0.950 . S
H7914 C7938 0.950 . S
H7915 C7939 0.951 . S
H7916 C7941 0.951 . S
H7917 C7943 0.992 . S
H7918 C7944 0.950 . S
H7919 C7946 0.950 . S
H7920 C7949 0.950 . S
H7921 C7950 0.950 . S
H7922 C7952 0.950 . S
H7923 C7953 0.950 . S
C7924 H7906 0.951 . S
C7924 C7925 1.366 . S
C7924 C7926 1.388 . S
C7925 C7924 1.366 . S
C7925 C7929 1.385 . S
C7926 H7907 0.951 . S
C7926 C7924 1.388 . S
C7926 C7927 1.366 . S
C7927 C7926 1.366 . S
C7927 C7928 1.414 . S
C7927 C7930 1.499 . S
C7928 H7908 0.950 . S
C7928 C7927 1.414 . S
C7928 C7929 1.374 . S
C7929 H7909 0.950 . S
C7929 C7925 1.385 . S
C7929 C7928 1.374 . S
C7930 C7927 1.499 . S
C7930 C7931 1.373 . S
C7930 C7932 1.389 . S
C7931 H7910 0.950 . S
C7931 C7930 1.373 . S
C7931 C7947 1.377 . S
C7932 C7930 1.389 . S
C7932 C7933 1.524 . S
C7932 C7946 1.377 . S
C7933 C7932 1.524 . S
C7933 C7934 1.397 . S
C7933 C7938 1.363 . S
C7934 H7911 0.950 . S
C7934 C7933 1.397 . S
C7934 C7935 1.334 . S
C7935 H7912 0.950 . S
C7935 C7934 1.334 . S
C7935 C7936 1.287 . S
C7936 C7935 1.287 . S
C7936 C7937 1.524 . S
C7936 H7955 0.913 . S
C7937 H7913 0.950 . S
C7937 C7936 1.524 . S
C7937 C7938 1.415 . S
C7938 H7914 0.950 . S
C7938 C7933 1.363 . S
C7938 C7937 1.415 . S
C7939 H7915 0.951 . S
C7939 C7940 1.366 . S
C7939 C7941 1.388 . S
C7940 C7939 1.366 . S
C7940 C7944 1.385 1_565 S
C7941 H7916 0.951 . S
C7941 C7939 1.388 . S
C7941 C7942 1.366 . S
C7942 C7941 1.366 . S
C7942 C7943 1.414 . S
C7942 C7945 1.499 . S
C7943 H7917 0.992 . S
C7943 C7942 1.414 . S
C7943 C7944 1.374 1_565 S
C7944 H7918 0.950 . S
C7944 C7940 1.385 1_545 S
C7944 C7943 1.374 1_545 S
C7945 C7942 1.499 . S
C7945 C7946 1.373 . S
C7945 C7947 1.389 . S
C7946 H7919 0.950 . S
C7946 C7932 1.377 . S
C7946 C7945 1.373 . S
C7947 C7931 1.377 . S
C7947 C7945 1.389 . S
C7947 C7948 1.524 . S
C7948 C7947 1.524 . S
C7948 C7949 1.397 . S
C7948 C7953 1.363 . S
C7949 H7920 0.950 . S
C7949 C7948 1.397 . S
C7949 C7950 1.334 . S
C7950 H7921 0.950 . S
C7950 C7949 1.334 . S
C7950 C7951 1.287 . S
C7951 C7950 1.287 . S
C7951 C7952 1.524 . S
C7951 H7954 0.999 . S
C7952 H7922 0.950 . S
C7952 C7951 1.524 . S
C7952 C7953 1.415 . S
C7953 H7923 0.950 . S
C7953 C7948 1.363 . S
C7953 C7952 1.415 . S
H7954 C7951 0.999 . S
H7955 C7936 0.913 . S
H7956 C7974 0.951 . S
H7957 C7976 0.951 . S
H7958 C7978 0.950 . S
H7959 C7979 0.950 . S
H7960 C7981 0.950 . S
H7961 C7984 0.950 . S
H7962 C7985 0.950 . S
H7963 C7987 0.950 . S
H7964 C7988 0.950 . S
H7965 C7989 0.951 . S
H7966 C7991 0.951 . S
H7967 C7993 0.950 . S
H7968 C7994 0.950 . S
H7969 C7996 0.950 . S
H7970 C7999 0.950 . S
H7971 C8000 0.950 . S
H7972 C8002 0.950 . S
H7973 C8003 0.950 . S
C7974 H7956 0.951 . S
C7974 C7975 1.366 . S
C7974 C7976 1.388 . S
C7975 C7974 1.366 . S
C7975 C7979 1.385 . S
C7976 H7957 0.951 . S
C7976 C7974 1.388 . S
C7976 C7977 1.366 . S
C7977 C7976 1.366 . S
C7977 C7978 1.414 . S
C7977 C7980 1.499 . S
C7978 H7958 0.950 . S
C7978 C7977 1.414 . S
C7978 C7979 1.374 . S
C7979 H7959 0.950 . S
C7979 C7975 1.385 . S
C7979 C7978 1.374 . S
C7980 C7977 1.499 . S
C7980 C7981 1.373 . S
C7980 C7982 1.389 . S
C7981 H7960 0.950 . S
C7981 C7980 1.373 . S
C7981 C7997 1.377 . S
C7982 C7980 1.389 . S
C7982 C7983 1.524 . S
C7982 C7996 1.377 . S
C7983 C7982 1.524 . S
C7983 C7984 1.397 . S
C7983 C7988 1.363 . S
C7984 H7961 0.950 . S
C7984 C7983 1.397 . S
C7984 C7985 1.334 . S
C7985 H7962 0.950 . S
C7985 C7984 1.334 . S
C7985 C7986 1.287 . S
C7986 C7985 1.287 . S
C7986 C7987 1.524 . S
C7986 H8005 0.913 . S
C7987 H7963 0.950 . S
C7987 C7986 1.524 . S
C7987 C7988 1.415 . S
C7988 H7964 0.950 . S
C7988 C7983 1.363 . S
C7988 C7987 1.415 . S
C7989 H7965 0.951 . S
C7989 C7990 1.366 . S
C7989 C7991 1.388 . S
C7990 C7989 1.366 . S
C7990 C7994 1.385 . S
C7991 H7966 0.951 . S
C7991 C7989 1.388 . S
C7991 C7992 1.366 . S
C7992 C7991 1.366 . S
C7992 C7993 1.414 . S
C7992 C7995 1.499 . S
C7993 H7967 0.950 . S
C7993 C7992 1.414 . S
C7993 C7994 1.374 . S
C7994 H7968 0.950 . S
C7994 C7990 1.385 . S
C7994 C7993 1.374 . S
C7995 C7992 1.499 . S
C7995 C7996 1.373 . S
C7995 C7997 1.389 . S
C7996 H7969 0.950 . S
C7996 C7982 1.377 . S
C7996 C7995 1.373 . S
C7997 C7981 1.377 . S
C7997 C7995 1.389 . S
C7997 C7998 1.524 . S
C7998 C7997 1.524 . S
C7998 C7999 1.397 . S
C7998 C8003 1.363 . S
C7999 H7970 0.950 . S
C7999 C7998 1.397 . S
C7999 C8000 1.334 . S
C8000 H7971 0.950 . S
C8000 C7999 1.334 . S
C8000 C8001 1.287 . S
C8001 C8000 1.287 . S
C8001 C8002 1.524 . S
C8001 H8004 0.999 . S
C8002 H7972 0.950 . S
C8002 C8001 1.524 . S
C8002 C8003 1.415 . S
C8003 H7973 0.950 . S
C8003 C7998 1.363 . S
C8003 C8002 1.415 . S
H8004 C8001 0.999 . S
H8005 C7986 0.913 . S
H8006 C8024 0.951 . S
H8007 C8026 0.951 . S
H8008 C8028 0.950 . S
H8009 C8029 0.950 . S
H8010 C8031 0.950 . S
H8011 C8034 0.950 . S
H8012 C8035 0.950 . S
H8013 C8037 0.950 . S
H8014 C8038 0.950 1_554 S
H8015 C8039 0.951 . S
H8016 C8041 0.951 . S
H8017 C8043 0.950 . S
H8018 C8044 0.950 . S
H8019 C8046 0.950 . S
H8020 C8049 0.950 . S
H8021 C8050 0.950 . S
H8022 C8052 0.950 . S
H8023 C8053 0.950 . S
C8024 H8006 0.951 . S
C8024 C8025 1.366 . S
C8024 C8026 1.388 . S
C8025 C8024 1.366 . S
C8025 C8029 1.385 . S
C8026 H8007 0.951 . S
C8026 C8024 1.388 . S
C8026 C8027 1.366 . S
C8027 C8026 1.366 . S
C8027 C8028 1.414 . S
C8027 C8030 1.499 . S
C8028 H8008 0.950 . S
C8028 C8027 1.414 . S
C8028 C8029 1.374 . S
C8029 H8009 0.950 . S
C8029 C8025 1.385 . S
C8029 C8028 1.374 . S
C8030 C8027 1.499 . S
C8030 C8031 1.373 . S
C8030 C8032 1.389 . S
C8031 H8010 0.950 . S
C8031 C8030 1.373 . S
C8031 C8047 1.377 . S
C8032 C8030 1.389 . S
C8032 C8033 1.524 . S
C8032 C8046 1.377 . S
C8033 C8032 1.524 . S
C8033 C8034 1.397 1_554 S
C8033 C8038 1.363 1_554 S
C8034 H8011 0.950 . S
C8034 C8033 1.397 1_556 S
C8034 C8035 1.334 . S
C8035 H8012 0.950 . S
C8035 C8034 1.334 . S
C8035 C8036 1.287 . S
C8036 C8035 1.287 . S
C8036 C8037 1.524 . S
C8036 H8055 0.913 . S
C8037 H8013 0.950 . S
C8037 C8036 1.524 . S
C8037 C8038 1.415 . S
C8038 H8014 0.950 1_556 S
C8038 C8033 1.363 1_556 S
C8038 C8037 1.415 . S
C8039 H8015 0.951 . S
C8039 C8040 1.366 . S
C8039 C8041 1.388 . S
C8040 C8039 1.366 . S
C8040 C8044 1.385 . S
C8041 H8016 0.951 . S
C8041 C8039 1.388 . S
C8041 C8042 1.366 . S
C8042 C8041 1.366 . S
C8042 C8043 1.414 . S
C8042 C8045 1.499 . S
C8043 H8017 0.950 . S
C8043 C8042 1.414 . S
C8043 C8044 1.374 . S
C8044 H8018 0.950 . S
C8044 C8040 1.385 . S
C8044 C8043 1.374 . S
C8045 C8042 1.499 . S
C8045 C8046 1.373 . S
C8045 C8047 1.389 . S
C8046 H8019 0.950 . S
C8046 C8032 1.377 . S
C8046 C8045 1.373 . S
C8047 C8031 1.377 . S
C8047 C8045 1.389 . S
C8047 C8048 1.524 . S
C8048 C8047 1.524 . S
C8048 C8049 1.397 . S
C8048 C8053 1.363 . S
C8049 H8020 0.950 . S
C8049 C8048 1.397 . S
C8049 C8050 1.334 . S
C8050 H8021 0.950 . S
C8050 C8049 1.334 . S
C8050 C8051 1.287 . S
C8051 C8050 1.287 . S
C8051 C8052 1.524 . S
C8051 H8054 0.999 . S
C8052 H8022 0.950 . S
C8052 C8051 1.524 . S
C8052 C8053 1.415 . S
C8053 H8023 0.950 . S
C8053 C8048 1.363 . S
C8053 C8052 1.415 . S
H8054 C8051 0.999 . S
H8055 C8036 0.913 . S
H8056 C8074 0.951 . S
H8057 C8076 0.951 . S
H8058 C8078 0.950 . S
H8059 C8079 0.950 . S
H8060 C8081 0.950 . S
H8061 C8084 0.950 . S
H8062 C8085 0.950 . S
H8063 C8087 0.950 . S
H8064 C8088 0.950 . S
H8065 C8089 0.951 . S
H8066 C8091 0.951 . S
H8067 C8093 0.950 . S
H8068 C8094 0.950 . S
H8069 C8096 0.950 . S
H8070 C8099 0.950 . S
H8071 C8100 0.950 . S
H8072 C8102 0.950 . S
H8073 C8103 0.950 . S
C8074 H8056 0.951 . S
C8074 C8075 1.366 . S
C8074 C8076 1.388 . S
C8075 C8074 1.366 . S
C8075 C8079 1.385 . S
C8076 H8057 0.951 . S
C8076 C8074 1.388 . S
C8076 C8077 1.366 . S
C8077 C8076 1.366 . S
C8077 C8078 1.414 . S
C8077 C8080 1.499 . S
C8078 H8058 0.950 . S
C8078 C8077 1.414 . S
C8078 C8079 1.374 . S
C8079 H8059 0.950 . S
C8079 C8075 1.385 . S
C8079 C8078 1.374 . S
C8080 C8077 1.499 . S
C8080 C8081 1.373 . S
C8080 C8082 1.389 . S
C8081 H8060 0.950 . S
C8081 C8080 1.373 . S
C8081 C8097 1.377 . S
C8082 C8080 1.389 . S
C8082 C8083 1.524 . S
C8082 C8096 1.377 . S
C8083 C8082 1.524 . S
C8083 C8084 1.397 . S
C8083 C8088 1.363 . S
C8084 H8061 0.950 . S
C8084 C8083 1.397 . S
C8084 C8085 1.334 . S
C8085 H8062 0.950 . S
C8085 C8084 1.334 . S
C8085 C8086 1.287 . S
C8086 C8085 1.287 . S
C8086 C8087 1.524 . S
C8086 H8105 0.913 . S
C8087 H8063 0.950 . S
C8087 C8086 1.524 . S
C8087 C8088 1.415 . S
C8088 H8064 0.950 . S
C8088 C8083 1.363 . S
C8088 C8087 1.415 . S
C8089 H8065 0.951 . S
C8089 C8090 1.366 . S
C8089 C8091 1.388 . S
C8090 C8089 1.366 . S
C8090 C8094 1.385 . S
C8091 H8066 0.951 . S
C8091 C8089 1.388 . S
C8091 C8092 1.366 . S
C8092 C8091 1.366 . S
C8092 C8093 1.414 . S
C8092 C8095 1.499 . S
C8093 H8067 0.950 . S
C8093 C8092 1.414 . S
C8093 C8094 1.374 . S
C8094 H8068 0.950 . S
C8094 C8090 1.385 . S
C8094 C8093 1.374 . S
C8095 C8092 1.499 . S
C8095 C8096 1.373 . S
C8095 C8097 1.389 . S
C8096 H8069 0.950 . S
C8096 C8082 1.377 . S
C8096 C8095 1.373 . S
C8097 C8081 1.377 . S
C8097 C8095 1.389 . S
C8097 C8098 1.524 . S
C8098 C8097 1.524 . S
C8098 C8099 1.397 . S
C8098 C8103 1.363 . S
C8099 H8070 0.950 . S
C8099 C8098 1.397 . S
C8099 C8100 1.334 . S
C8100 H8071 0.950 . S
C8100 C8099 1.334 . S
C8100 C8101 1.287 . S
C8101 C8100 1.287 . S
C8101 C8102 1.524 . S
C8101 H8104 0.999 . S
C8102 H8072 0.950 . S
C8102 C8101 1.524 . S
C8102 C8103 1.415 . S
C8103 H8073 0.950 . S
C8103 C8098 1.363 . S
C8103 C8102 1.415 . S
H8104 C8101 0.999 . S
H8105 C8086 0.913 . S
H8106 C8124 0.951 . S
H8107 C8126 0.951 . S
H8108 C8128 0.950 . S
H8109 C8129 0.950 . S
H8110 C8131 0.950 . S
H8111 C8134 0.950 . S
H8112 C8135 0.950 . S
H8113 C8137 0.950 . S
H8114 C8138 0.950 . S
H8115 C8139 0.951 1_556 S
H8116 C8141 0.951 1_556 S
H8117 C8143 0.950 . S
H8118 C8144 0.950 . S
H8119 C8146 0.950 . S
H8120 C8149 0.950 1_554 S
H8121 C8150 0.950 . S
H8122 C8152 0.950 . S
H8123 C8153 0.950 . S
C8124 H8106 0.951 . S
C8124 C8125 1.366 . S
C8124 C8126 1.388 . S
C8125 C8124 1.366 . S
C8125 C8129 1.385 . S
C8126 H8107 0.951 . S
C8126 C8124 1.388 . S
C8126 C8127 1.366 . S
C8127 C8126 1.366 . S
C8127 C8128 1.414 . S
C8127 C8130 1.499 . S
C8128 H8108 0.950 . S
C8128 C8127 1.414 . S
C8128 C8129 1.374 . S
C8129 H8109 0.950 . S
C8129 C8125 1.385 . S
C8129 C8128 1.374 . S
C8130 C8127 1.499 . S
C8130 C8131 1.373 . S
C8130 C8132 1.389 . S
C8131 H8110 0.950 . S
C8131 C8130 1.373 . S
C8131 C8147 1.377 . S
C8132 C8130 1.389 . S
C8132 C8133 1.524 . S
C8132 C8146 1.377 . S
C8133 C8132 1.524 . S
C8133 C8134 1.397 . S
C8133 C8138 1.363 . S
C8134 H8111 0.950 . S
C8134 C8133 1.397 . S
C8134 C8135 1.334 . S
C8135 H8112 0.950 . S
C8135 C8134 1.334 . S
C8135 C8136 1.287 . S
C8136 C8135 1.287 . S
C8136 C8137 1.524 . S
C8136 H8155 0.913 . S
C8137 H8113 0.950 . S
C8137 C8136 1.524 . S
C8137 C8138 1.415 . S
C8138 H8114 0.950 . S
C8138 C8133 1.363 . S
C8138 C8137 1.415 . S
C8139 H8115 0.951 1_554 S
C8139 C8140 1.366 . S
C8139 C8141 1.388 . S
C8140 C8139 1.366 . S
C8140 C8144 1.385 . S
C8141 H8116 0.951 1_554 S
C8141 C8139 1.388 . S
C8141 C8142 1.366 . S
C8142 C8141 1.366 . S
C8142 C8143 1.414 . S
C8142 C8145 1.499 . S
C8143 H8117 0.950 . S
C8143 C8142 1.414 . S
C8143 C8144 1.374 . S
C8144 H8118 0.950 . S
C8144 C8140 1.385 . S
C8144 C8143 1.374 . S
C8145 C8142 1.499 . S
C8145 C8146 1.373 . S
C8145 C8147 1.389 . S
C8146 H8119 0.950 . S
C8146 C8132 1.377 . S
C8146 C8145 1.373 . S
C8147 C8131 1.377 . S
C8147 C8145 1.389 . S
C8147 C8148 1.524 1_554 S
C8148 C8147 1.524 1_556 S
C8148 C8149 1.397 . S
C8148 C8153 1.363 . S
C8149 H8120 0.950 1_556 S
C8149 C8148 1.397 . S
C8149 C8150 1.334 . S
C8150 H8121 0.950 . S
C8150 C8149 1.334 . S
C8150 C8151 1.287 . S
C8151 C8150 1.287 . S
C8151 C8152 1.524 . S
C8151 H8154 0.999 . S
C8152 H8122 0.950 . S
C8152 C8151 1.524 . S
C8152 C8153 1.415 . S
C8153 H8123 0.950 . S
C8153 C8148 1.363 . S
C8153 C8152 1.415 . S
H8154 C8151 0.999 . S
H8155 C8136 0.913 . S
H8156 C8174 0.951 . S
H8157 C8176 0.951 . S
H8158 C8178 0.950 . S
H8159 C8179 0.950 . S
H8160 C8181 0.950 . S
H8161 C8184 0.950 . S
H8162 C8185 0.950 . S
H8163 C8187 0.950 . S
H8164 C8188 0.950 . S
H8165 C8189 0.951 . S
H8166 C8191 0.951 . S
H8167 C8193 0.950 . S
H8168 C8194 0.950 . S
H8169 C8196 0.950 . S
H8170 C8199 0.950 . S
H8171 C8200 0.950 . S
H8172 C8202 0.950 . S
H8173 C8203 0.950 . S
C8174 H8156 0.951 . S
C8174 C8175 1.366 . S
C8174 C8176 1.388 . S
C8175 C8174 1.366 . S
C8175 C8179 1.385 . S
C8176 H8157 0.951 . S
C8176 C8174 1.388 . S
C8176 C8177 1.366 . S
C8177 C8176 1.366 . S
C8177 C8178 1.414 . S
C8177 C8180 1.499 . S
C8178 H8158 0.950 . S
C8178 C8177 1.414 . S
C8178 C8179 1.374 . S
C8179 H8159 0.950 . S
C8179 C8175 1.385 . S
C8179 C8178 1.374 . S
C8180 C8177 1.499 . S
C8180 C8181 1.373 . S
C8180 C8182 1.389 . S
C8181 H8160 0.950 . S
C8181 C8180 1.373 . S
C8181 C8197 1.377 . S
C8182 C8180 1.389 . S
C8182 C8183 1.524 . S
C8182 C8196 1.377 . S
C8183 C8182 1.524 . S
C8183 C8184 1.397 . S
C8183 C8188 1.363 . S
C8184 H8161 0.950 . S
C8184 C8183 1.397 . S
C8184 C8185 1.334 . S
C8185 H8162 0.950 . S
C8185 C8184 1.334 . S
C8185 C8186 1.287 . S
C8186 C8185 1.287 . S
C8186 C8187 1.524 . S
C8186 H8205 0.913 . S
C8187 H8163 0.950 . S
C8187 C8186 1.524 . S
C8187 C8188 1.415 . S
C8188 H8164 0.950 . S
C8188 C8183 1.363 . S
C8188 C8187 1.415 . S
C8189 H8165 0.951 . S
C8189 C8190 1.366 . S
C8189 C8191 1.388 . S
C8190 C8189 1.366 . S
C8190 C8194 1.385 . S
C8191 H8166 0.951 . S
C8191 C8189 1.388 . S
C8191 C8192 1.366 . S
C8192 C8191 1.366 . S
C8192 C8193 1.414 . S
C8192 C8195 1.499 . S
C8193 H8167 0.950 . S
C8193 C8192 1.414 . S
C8193 C8194 1.374 . S
C8194 H8168 0.950 . S
C8194 C8190 1.385 . S
C8194 C8193 1.374 . S
C8195 C8192 1.499 . S
C8195 C8196 1.373 . S
C8195 C8197 1.389 . S
C8196 H8169 0.950 . S
C8196 C8182 1.377 . S
C8196 C8195 1.373 . S
C8197 C8181 1.377 . S
C8197 C8195 1.389 . S
C8197 C8198 1.524 . S
C8198 C8197 1.524 . S
C8198 C8199 1.397 . S
C8198 C8203 1.363 . S
C8199 H8170 0.950 . S
C8199 C8198 1.397 . S
C8199 C8200 1.334 . S
C8200 H8171 0.950 . S
C8200 C8199 1.334 . S
C8200 C8201 1.287 . S
C8201 C8200 1.287 . S
C8201 C8202 1.524 . S
C8201 H8204 0.999 . S
C8202 H8172 0.950 . S
C8202 C8201 1.524 . S
C8202 C8203 1.415 . S
C8203 H8173 0.950 . S
C8203 C8198 1.363 . S
C8203 C8202 1.415 . S
H8204 C8201 0.999 . S
H8205 C8186 0.913 . S
H8206 C8224 0.951 . S
H8207 C8226 0.951 . S
H8208 C8228 0.950 . S
H8209 C8229 0.950 . S
H8210 C8231 0.950 . S
H8211 C8234 0.950 . S
H8212 C8235 0.950 . S
H8213 C8237 0.950 . S
H8214 C8238 0.950 . S
H8215 C8239 0.951 . S
H8216 C8241 0.951 . S
H8217 C8243 0.950 . S
H8218 C8244 0.950 . S
H8219 C8246 0.950 . S
H8220 C8249 0.950 . S
H8221 C8250 0.950 . S
H8222 C8252 0.950 . S
H8223 C8253 0.950 . S
C8224 H8206 0.951 . S
C8224 C8225 1.366 . S
C8224 C8226 1.388 . S
C8225 C8224 1.366 . S
C8225 C8229 1.385 . S
C8226 H8207 0.951 . S
C8226 C8224 1.388 . S
C8226 C8227 1.366 . S
C8227 C8226 1.366 . S
C8227 C8228 1.414 . S
C8227 C8230 1.499 . S
C8228 H8208 0.950 . S
C8228 C8227 1.414 . S
C8228 C8229 1.374 . S
C8229 H8209 0.950 . S
C8229 C8225 1.385 . S
C8229 C8228 1.374 . S
C8230 C8227 1.499 . S
C8230 C8231 1.373 . S
C8230 C8232 1.389 . S
C8231 H8210 0.950 . S
C8231 C8230 1.373 . S
C8231 C8247 1.377 . S
C8232 C8230 1.389 . S
C8232 C8233 1.524 . S
C8232 C8246 1.377 . S
C8233 C8232 1.524 . S
C8233 C8234 1.397 . S
C8233 C8238 1.363 . S
C8234 H8211 0.950 . S
C8234 C8233 1.397 . S
C8234 C8235 1.334 . S
C8235 H8212 0.950 . S
C8235 C8234 1.334 . S
C8235 C8236 1.287 . S
C8236 C8235 1.287 . S
C8236 C8237 1.524 . S
C8236 H8255 0.913 . S
C8237 H8213 0.950 . S
C8237 C8236 1.524 . S
C8237 C8238 1.415 . S
C8238 H8214 0.950 . S
C8238 C8233 1.363 . S
C8238 C8237 1.415 . S
C8239 H8215 0.951 . S
C8239 C8240 1.366 . S
C8239 C8241 1.388 . S
C8240 C8239 1.366 . S
C8240 C8244 1.385 . S
C8241 H8216 0.951 . S
C8241 C8239 1.388 . S
C8241 C8242 1.366 . S
C8242 C8241 1.366 . S
C8242 C8243 1.414 . S
C8242 C8245 1.499 . S
C8243 H8217 0.950 . S
C8243 C8242 1.414 . S
C8243 C8244 1.374 . S
C8244 H8218 0.950 . S
C8244 C8240 1.385 . S
C8244 C8243 1.374 . S
C8245 C8242 1.499 . S
C8245 C8246 1.373 . S
C8245 C8247 1.389 . S
C8246 H8219 0.950 . S
C8246 C8232 1.377 . S
C8246 C8245 1.373 . S
C8247 C8231 1.377 . S
C8247 C8245 1.389 . S
C8247 C8248 1.524 . S
C8248 C8247 1.524 . S
C8248 C8249 1.397 . S
C8248 C8253 1.363 . S
C8249 H8220 0.950 . S
C8249 C8248 1.397 . S
C8249 C8250 1.334 . S
C8250 H8221 0.950 . S
C8250 C8249 1.334 . S
C8250 C8251 1.287 . S
C8251 C8250 1.287 . S
C8251 C8252 1.524 . S
C8251 H8254 0.999 . S
C8252 H8222 0.950 . S
C8252 C8251 1.524 . S
C8252 C8253 1.415 . S
C8253 H8223 0.950 . S
C8253 C8248 1.363 . S
C8253 C8252 1.415 . S
H8254 C8251 0.999 . S
H8255 C8236 0.913 . S
C3475 C665 1.849 . S
C3490 C2168 1.874 . S
C3525 C381 1.751 . S
C3540 C2270 1.740 . S
C3575 C460 1.754 . S
C3590 C2336 1.786 . S
C3640 C2422 1.490 . S
C3625 C585 1.616 . S
C3675 C108 1.616 . S
C3690 C2506 1.488 . S
C3740 C2588 1.785 . S
C3725 C196 1.753 . S
C3790 C2690 1.740 . S
C3775 C313 1.751 . S
C3825 C49 1.848 . S
C3840 C2756 1.875 . S
C3890 C2186 1.351 . S
C3875 C1457 1.386 . S
C3925 C1545 0.766 . S
C3940 C2254 0.763 . S
C3990 C2354 0.964 . S
C3975 C1721 0.975 . S
C4040 C2420 1.575 . S
C4025 C1113 1.563 . S
C4075 C1428 1.562 . S
C4090 C2504 1.575 . S
C4140 C2606 0.965 . S
C4125 C1516 0.975 . S
C4190 C2674 0.762 . S
C4175 C1692 0.767 . S
C4240 C2774 1.352 . S
C4225 C1085 1.386 . S
C4290 C2170 0.790 . S
C4275 C988 0.801 . S
C4325 C1817 1.648 . S
C4340 C2858 1.626 . S
C4390 C2926 1.233 . S
C4375 C2081 1.312 . S
C4440 C3008 0.738 . S
C4425 C1993 0.738 . S
C4475 C761 0.801 . S
C4490 C2758 0.792 . S
C4525 C821 1.312 . S
C4540 C2338 1.232 . S
C4575 C2053 1.647 . S
C4590 C3110 1.626 . S
C4640 C3176 0.738 . S
C4625 C1868 0.739 . S
C4690 C2179 1.869 . S
C4675 C372 1.846 . S
C4740 C3183 1.736 . S
C4725 C645 1.749 . S
C4775 C577 1.748 . S
C4790 C2347 1.779 . S
C4825 C497 1.613 . S
C4840 C3105 1.485 . S
C4890 C2517 1.485 . S
C4875 C57 1.613 . S
C4925 C293 1.749 . S
C4940 C2935 1.780 . S
C4990 C2679 1.736 1_556 S
C4975 C205 1.744 . S
C5040 C3271 1.869 . S
C5025 C145 1.846 . S
C5090 C2175 1.346 . S
C5075 C909 1.381 . S
C5140 C3189 0.760 . S
C5125 C1956 0.762 . S
C5175 C724 0.970 . S
C5190 C2343 0.960 . S
C5225 C1780 1.558 . S
C5240 C3103 1.569 . S
C5275 C937 1.558 . S
C5290 C2515 1.569 . S
C5340 C2931 0.960 . S
C5325 C1985 0.970 . S
C5375 C753 0.762 . S
C5390 C2685 0.760 . S
C5425 C1809 1.381 . S
C5440 C3267 1.347 . S
C5475 C1173 0.797 . S
C5490 C2181 0.787 . S
C5525 C1105 1.643 . S
C5540 C2847 1.623 . S
C5575 C1633 1.310 . S
C5590 C2601 1.230 . S
C5625 C1553 0.732 . S
C5640 C3019 0.732 . S
C5690 C3273 0.788 . S
C5675 C1729 0.797 . S
C5725 C1340 1.310 . S
C5740 C2349 1.231 . S
C5790 C2427 1.623 . S
C5775 C1604 1.642 . S
C5840 C2263 0.732 . S
C5825 C1252 0.732 . S
C5875 C489 1.848 . S
C5890 C3344 1.875 . S
C5940 C3194 1.739 . S
C5925 C557 1.750 . S
C5975 C636 1.754 . S
C5990 C3428 1.786 . S
C6025 C409 1.617 . S
C6040 C3094 1.488 . S
C6075 C284 1.617 . S
C6090 C2842 1.488 . S
C6140 C2924 1.785 . S
C6125 C20 1.754 . S
C6190 C3026 1.740 . S
C6175 C137 1.751 . S
C6240 C3260 1.875 . S
C6225 C225 1.849 . S
C6290 C3362 1.351 . S
C6275 C1641 1.386 . S
C6325 C1193 0.767 . S
C6340 C3178 0.762 . S
C6390 C3446 0.964 . S
C6375 C1289 0.975 . S
C6440 C3092 1.574 . S
C6425 C1377 1.562 . S
C6490 C2840 1.575 . S
C6475 C1613 1.562 . S
C6525 C1164 0.975 . S
C6540 C2942 0.964 . S
C6590 C3010 0.762 . S
C6575 C1261 0.767 . S
C6625 C1349 1.386 . S
C6640 C3278 1.352 . S
C6690 C3346 0.790 . S
C6675 C1965 0.800 . S
C6725 C849 1.648 . S
C6740 C2522 1.627 . S
C6790 C2590 1.234 . S
C6775 C929 1.312 . S
C6840 C2672 0.738 . S
C6825 C1017 0.738 . S
C6890 C3262 0.790 . S
C6875 C1897 0.800 . S
C6925 C1789 1.312 . S
C6940 C3430 1.234 . S
C6990 C2438 1.626 . S
C6975 C900 1.648 . S
C7040 C2252 0.738 . S
C7025 C733 0.738 . S
C7075 C548 1.846 . S
C7090 C3355 1.870 . S
C7140 C2259 1.735 . S
C7125 C469 1.744 . S
C7175 C401 1.748 . S
C7190 C3439 1.779 . S
C7225 C673 1.613 . S
C7240 C2433 1.481 . S
C7275 C233 1.613 . S
C7290 C2853 1.485 . S
C7340 C2599 1.780 . S
C7325 C117 1.749 . S
C7375 C29 1.745 . S
C7390 C3015 1.736 . S
C7425 C321 1.846 . S
C7440 C2767 1.870 . S
C7490 C3351 1.347 . S
C7475 C2044 1.381 . S
C7525 C997 0.762 . S
C7540 C2265 0.754 . S
C7590 C3435 1.002 . S
C7575 C1877 0.970 . S
C7625 C812 1.558 . S
C7640 C2431 1.569 . S
C7675 C2073 1.558 . S
C7690 C2851 1.569 . S
C7740 C2595 0.961 . S
C7725 C1025 0.978 . S
C7775 C1905 0.763 . S
C7790 C3021 0.758 . S
C7840 C2763 1.346 . S
C7825 C841 1.381 . S
C7890 C3357 0.788 . S
C7875 C1525 0.798 . S
C7940 C2511 1.622 1_565 S
C7925 C1369 1.643 . S
C7975 C1465 1.309 . S
C7990 C2937 1.230 . S
C8040 C2683 0.732 . S
C8025 C1201 0.733 . S
C8075 C1281 0.796 . S
C8090 C2769 0.789 . S
C8125 C1076 1.310 . S
C8140 C3441 1.231 . S
C8190 C3099 1.623 . S
C8175 C1437 1.642 . S
C8240 C3187 0.732 . S
C8225 C1701 0.733 . S
