# Generated by pormake.
# Topology ocu, (6,8)-cn, num edge types: 1
# Building blocks:
#     Node 0, Type 0, BuildingBlock: KUMJIN_clean_sbu_0, # of connection points: 6
#     Node 1, Type 0, BuildingBlock: KUMJIN_clean_sbu_0, # of connection points: 6
#     Node 2, Type 0, BuildingBlock: KUMJIN_clean_sbu_0, # of connection points: 6
#     Node 3, Type 0, BuildingBlock: KUMJIN_clean_sbu_0, # of connection points: 6
#     Node 4, Type 0, BuildingBlock: KUMJIN_clean_sbu_0, # of connection points: 6
#     Node 5, Type 0, BuildingBlock: KUMJIN_clean_sbu_0, # of connection points: 6
#     Node 6, Type 0, BuildingBlock: KUMJIN_clean_sbu_0, # of connection points: 6
#     Node 7, Type 0, BuildingBlock: KUMJIN_clean_sbu_0, # of connection points: 6
#     Node 8, Type 1, BuildingBlock: AJUNOK_clean_sbu_0, # of connection points: 8
#     Node 9, Type 1, BuildingBlock: AJUNOK_clean_sbu_0, # of connection points: 8
#     Node 10, Type 1, BuildingBlock: AJUNOK_clean_sbu_0, # of connection points: 8
#     Node 11, Type 1, BuildingBlock: AJUNOK_clean_sbu_0, # of connection points: 8
#     Node 12, Type 1, BuildingBlock: AJUNOK_clean_sbu_0, # of connection points: 8
#     Node 13, Type 1, BuildingBlock: AJUNOK_clean_sbu_0, # of connection points: 8
#     Edge 14, Type (0, 1), BuildingBlock: MIFKUJ_clean_linker_0, # of connection points: 2
#     Edge 15, Type (0, 1), BuildingBlock: MIFKUJ_clean_linker_0, # of connection points: 2
#     Edge 16, Type (0, 1), BuildingBlock: MIFKUJ_clean_linker_0, # of connection points: 2
#     Edge 17, Type (0, 1), BuildingBlock: MIFKUJ_clean_linker_0, # of connection points: 2
#     Edge 18, Type (0, 1), BuildingBlock: MIFKUJ_clean_linker_0, # of connection points: 2
#     Edge 19, Type (0, 1), BuildingBlock: MIFKUJ_clean_linker_0, # of connection points: 2
#     Edge 20, Type (0, 1), BuildingBlock: MIFKUJ_clean_linker_0, # of connection points: 2
#     Edge 21, Type (0, 1), BuildingBlock: MIFKUJ_clean_linker_0, # of connection points: 2
#     Edge 22, Type (0, 1), BuildingBlock: MIFKUJ_clean_linker_0, # of connection points: 2
#     Edge 23, Type (0, 1), BuildingBlock: MIFKUJ_clean_linker_0, # of connection points: 2
#     Edge 24, Type (0, 1), BuildingBlock: MIFKUJ_clean_linker_0, # of connection points: 2
#     Edge 25, Type (0, 1), BuildingBlock: MIFKUJ_clean_linker_0, # of connection points: 2
#     Edge 26, Type (0, 1), BuildingBlock: MIFKUJ_clean_linker_0, # of connection points: 2
#     Edge 27, Type (0, 1), BuildingBlock: MIFKUJ_clean_linker_0, # of connection points: 2
#     Edge 28, Type (0, 1), BuildingBlock: MIFKUJ_clean_linker_0, # of connection points: 2
#     Edge 29, Type (0, 1), BuildingBlock: MIFKUJ_clean_linker_0, # of connection points: 2
#     Edge 30, Type (0, 1), BuildingBlock: MIFKUJ_clean_linker_0, # of connection points: 2
#     Edge 31, Type (0, 1), BuildingBlock: MIFKUJ_clean_linker_0, # of connection points: 2
#     Edge 32, Type (0, 1), BuildingBlock: MIFKUJ_clean_linker_0, # of connection points: 2
#     Edge 33, Type (0, 1), BuildingBlock: MIFKUJ_clean_linker_0, # of connection points: 2
#     Edge 34, Type (0, 1), BuildingBlock: MIFKUJ_clean_linker_0, # of connection points: 2
#     Edge 35, Type (0, 1), BuildingBlock: MIFKUJ_clean_linker_0, # of connection points: 2
#     Edge 36, Type (0, 1), BuildingBlock: MIFKUJ_clean_linker_0, # of connection points: 2
#     Edge 37, Type (0, 1), BuildingBlock: MIFKUJ_clean_linker_0, # of connection points: 2
#     Edge 38, Type (0, 1), BuildingBlock: MIFKUJ_clean_linker_0, # of connection points: 2
#     Edge 39, Type (0, 1), BuildingBlock: MIFKUJ_clean_linker_0, # of connection points: 2
#     Edge 40, Type (0, 1), BuildingBlock: MIFKUJ_clean_linker_0, # of connection points: 2
#     Edge 41, Type (0, 1), BuildingBlock: MIFKUJ_clean_linker_0, # of connection points: 2
#     Edge 42, Type (0, 1), BuildingBlock: MIFKUJ_clean_linker_0, # of connection points: 2
#     Edge 43, Type (0, 1), BuildingBlock: MIFKUJ_clean_linker_0, # of connection points: 2
#     Edge 44, Type (0, 1), BuildingBlock: MIFKUJ_clean_linker_0, # of connection points: 2
#     Edge 45, Type (0, 1), BuildingBlock: MIFKUJ_clean_linker_0, # of connection points: 2
#     Edge 46, Type (0, 1), BuildingBlock: MIFKUJ_clean_linker_0, # of connection points: 2
#     Edge 47, Type (0, 1), BuildingBlock: MIFKUJ_clean_linker_0, # of connection points: 2
#     Edge 48, Type (0, 1), BuildingBlock: MIFKUJ_clean_linker_0, # of connection points: 2
#     Edge 49, Type (0, 1), BuildingBlock: MIFKUJ_clean_linker_0, # of connection points: 2
#     Edge 50, Type (0, 1), BuildingBlock: MIFKUJ_clean_linker_0, # of connection points: 2
#     Edge 51, Type (0, 1), BuildingBlock: MIFKUJ_clean_linker_0, # of connection points: 2
#     Edge 52, Type (0, 1), BuildingBlock: MIFKUJ_clean_linker_0, # of connection points: 2
#     Edge 53, Type (0, 1), BuildingBlock: MIFKUJ_clean_linker_0, # of connection points: 2
#     Edge 54, Type (0, 1), BuildingBlock: MIFKUJ_clean_linker_0, # of connection points: 2
#     Edge 55, Type (0, 1), BuildingBlock: MIFKUJ_clean_linker_0, # of connection points: 2
#     Edge 56, Type (0, 1), BuildingBlock: MIFKUJ_clean_linker_0, # of connection points: 2
#     Edge 57, Type (0, 1), BuildingBlock: MIFKUJ_clean_linker_0, # of connection points: 2
#     Edge 58, Type (0, 1), BuildingBlock: MIFKUJ_clean_linker_0, # of connection points: 2
#     Edge 59, Type (0, 1), BuildingBlock: MIFKUJ_clean_linker_0, # of connection points: 2
#     Edge 60, Type (0, 1), BuildingBlock: MIFKUJ_clean_linker_0, # of connection points: 2
#     Edge 61, Type (0, 1), BuildingBlock: MIFKUJ_clean_linker_0, # of connection points: 2
# Relax obj value: 0.158
# Max RMSD: 0.259
# Mean RMSD: 0.210
data_MOF--net-ocu--node1-KUMJIN_clean_sbu_0--node2-AJUNOK_clean_sbu_0--edge1-MIFKUJ_clean_linker_0
_symmetry_space_group_name_H-M    P1
_symmetry_Int_Tables_number       1
_symmetry_cell_setting            triclinic
loop_
_symmetry_equiv_pos_as_xyz
'x, y, z'
_cell_length_a     54.467667
_cell_length_b     53.517423
_cell_length_c     48.625971
_cell_angle_alpha  87.742147
_cell_angle_beta   103.38316
_cell_angle_gamma 112.15359
loop_
_atom_site_label
_atom_site_type_symbol
_atom_site_fract_x
_atom_site_fract_y
_atom_site_fract_z
_atom_type_partial_charge
Eu0 Eu 0.2572 0.2287 0.21665 0.0
C1 C 0.32625 0.30247 0.32433 0.0
C2 C 0.32607 0.27041 0.36091 0.0
C3 C 0.36465 0.31322 0.36517 0.0
C4 C 0.31364 0.27768 0.33476 0.0
C5 C 0.35164 0.32077 0.33966 0.0
C6 C 0.35189 0.28807 0.37576 0.0
C7 C 0.34843 0.35335 0.30453 0.0
N8 N 0.31302 0.30922 0.29981 0.0
C9 C 0.32321 0.33455 0.29018 0.0
C10 C 0.36287 0.34634 0.32924 0.0
Eu11 Eu 0.27121 0.27591 0.27598 0.0
N12 N 0.28856 0.26129 0.3201 0.0
C13 C 0.27393 0.2382 0.33131 0.0
C14 C 0.31184 0.24595 0.37171 0.0
C15 C 0.28549 0.22996 0.35702 0.0
H16 H 0.31216 0.33999 0.27101 0.0
H17 H 0.27408 0.21127 0.36544 0.0
H18 H 0.36187 0.28274 0.39577 0.0
H19 H 0.35672 0.37322 0.29654 0.0
H20 H 0.25357 0.22565 0.32014 0.0
H21 H 0.2442 0.28452 0.12179 0.0
H22 H 0.32072 0.23958 0.39168 0.0
H23 H 0.22178 0.16332 0.2272 0.0
H24 H 0.26783 0.2756 0.16857 0.0
H25 H 0.17966 0.12603 0.20428 0.0
H26 H 0.38427 0.32691 0.37716 0.0
H27 H 0.19898 0.25127 0.09782 0.0
H28 H 0.16163 0.20578 0.09734 0.0
H29 H 0.38235 0.36097 0.34039 0.0
H30 H 0.14421 0.16256 0.11968 0.0
N31 N 0.23584 0.23841 0.17175 0.0
C32 C 0.24797 0.26113 0.15852 0.0
C33 C 0.20917 0.24739 0.1185 0.0
C34 C 0.19756 0.22336 0.13146 0.0
C35 C 0.2347 0.26617 0.13192 0.0
C36 C 0.21168 0.21933 0.15839 0.0
H37 H 0.15098 0.13252 0.15931 0.0
N38 N 0.21699 0.19135 0.196 0.0
C39 C 0.18562 0.14537 0.19472 0.0
C40 C 0.20196 0.195 0.17086 0.0
C41 C 0.20956 0.1667 0.2077 0.0
C42 C 0.16946 0.14912 0.16937 0.0
C43 C 0.17773 0.17404 0.1569 0.0
O44 O 0.27488 0.19834 0.21509 0.0
O45 O 0.28016 0.24155 0.26179 0.0
O46 O 0.31072 0.28584 0.26252 0.0
O47 O 0.29249 0.26843 0.2159 0.0
O48 O 0.25903 0.20088 0.25257 0.0
O49 O 0.284 0.23204 0.1882 0.0
O50 O 0.25856 0.30975 0.27933 0.0
O51 O 0.24903 0.26362 0.23094 0.0
O52 O 0.21676 0.22012 0.22718 0.0
O53 O 0.23294 0.23771 0.27384 0.0
O54 O 0.26914 0.3043 0.24044 0.0
O55 O 0.24343 0.27429 0.30269 0.0
C56 C 0.27561 0.21859 0.27219 0.0
C57 C 0.28411 0.19109 0.17168 0.0
C58 C 0.30259 0.16514 0.14787 0.0
C59 C 0.30568 0.18316 0.17003 0.0
C60 C 0.27757 0.15521 0.12762 0.0
C61 C 0.25956 0.18107 0.15106 0.0
C62 C 0.25633 0.16321 0.1292 0.0
C63 C 0.31277 0.28397 0.2362 0.0
C64 C 0.28711 0.20945 0.19513 0.0
C65 C 0.16296 0.17835 0.13064 0.0
C66 C 0.17286 0.20297 0.11794 0.0
C67 C 0.25311 0.28654 0.22049 0.0
C68 C 0.24633 0.31575 0.32145 0.0
C69 C 0.22519 0.32459 0.32255 0.0
C70 C 0.2274 0.34082 0.34592 0.0
C71 C 0.25128 0.34835 0.36777 0.0
C72 C 0.2698 0.32346 0.34359 0.0
C73 C 0.27224 0.33975 0.36655 0.0
C74 C 0.21299 0.22327 0.25249 0.0
C75 C 0.24369 0.29844 0.29724 0.0
H76 H 0.32484 0.19125 0.18567 0.0
H77 H 0.27425 0.14093 0.11066 0.0
H78 H 0.24285 0.187 0.15187 0.0
H79 H 0.23722 0.15541 0.11348 0.0
H80 H 0.20694 0.31846 0.30553 0.0
H81 H 0.25389 0.36118 0.38577 0.0
H82 H 0.2862 0.31688 0.34312 0.0
H83 H 0.29048 0.34574 0.38353 0.0
Eu84 Eu 0.77909 0.22955 0.23388 0.0
C85 C 0.72475 0.26957 0.31487 0.0
C86 C 0.67804 0.23753 0.3061 0.0
C87 C 0.69999 0.2614 0.35214 0.0
C88 C 0.70236 0.25078 0.297 0.0
C89 C 0.72371 0.27544 0.34251 0.0
C90 C 0.67715 0.24258 0.33392 0.0
C91 C 0.76858 0.3105 0.34806 0.0
N92 N 0.74709 0.28316 0.30473 0.0
C93 C 0.76847 0.30415 0.3204 0.0
C94 C 0.74623 0.29585 0.35931 0.0
Eu95 Eu 0.74606 0.27104 0.25809 0.0
N96 N 0.7039 0.24644 0.27025 0.0
C97 C 0.68136 0.23001 0.25111 0.0
C98 C 0.65513 0.22019 0.28673 0.0
C99 C 0.6568 0.21647 0.25912 0.0
H100 H 0.78584 0.31542 0.31176 0.0
H101 H 0.63916 0.20319 0.24394 0.0
H102 H 0.65873 0.23242 0.34137 0.0
H103 H 0.7859 0.32664 0.36067 0.0
H104 H 0.68215 0.22683 0.22968 0.0
H105 H 0.88549 0.29503 0.24101 0.0
H106 H 0.63596 0.2099 0.29274 0.0
H107 H 0.73494 0.18482 0.18191 0.0
H108 H 0.84367 0.27373 0.258 0.0
H109 H 0.73182 0.17128 0.13278 0.0
H110 H 0.69886 0.26548 0.37336 0.0
H111 H 0.88579 0.2856 0.19168 0.0
H112 H 0.8606 0.2604 0.14472 0.0
H113 H 0.74626 0.30091 0.38068 0.0
H114 H 0.8188 0.22694 0.11526 0.0
N115 N 0.82027 0.2515 0.21914 0.0
C116 C 0.84344 0.26892 0.23665 0.0
C117 C 0.86735 0.2758 0.19918 0.0
C118 C 0.84373 0.25751 0.1815 0.0
C119 C 0.86725 0.28127 0.22698 0.0
C120 C 0.82032 0.24523 0.19237 0.0
H121 H 0.77073 0.19357 0.11063 0.0
N122 N 0.77494 0.21477 0.18716 0.0
C123 C 0.75022 0.18685 0.14463 0.0
C124 C 0.79686 0.22646 0.1758 0.0
C125 C 0.75208 0.1945 0.17244 0.0
C126 C 0.77221 0.19952 0.13218 0.0
C127 C 0.79605 0.21935 0.14789 0.0
O128 O 0.7724 0.18692 0.23733 0.0
O129 O 0.74974 0.23148 0.25761 0.0
O130 O 0.7724 0.26097 0.29657 0.0
O131 O 0.80365 0.25285 0.27616 0.0
O132 O 0.73726 0.19658 0.23326 0.0
O133 O 0.80961 0.21736 0.26192 0.0
O134 O 0.75221 0.31365 0.25721 0.0
O135 O 0.77613 0.26978 0.23486 0.0
O136 O 0.75546 0.24202 0.19538 0.0
O137 O 0.72303 0.24933 0.21436 0.0
O138 O 0.78754 0.30439 0.25958 0.0
O139 O 0.71677 0.28423 0.22922 0.0
C140 C 0.73094 0.20872 0.25126 0.0
C141 C 0.78878 0.17799 0.28464 0.0
C142 C 0.80739 0.1684 0.33263 0.0
C143 C 0.81108 0.181 0.30718 0.0
C144 C 0.78072 0.15372 0.33572 0.0
C145 C 0.76231 0.1629 0.28795 0.0
C146 C 0.75838 0.15134 0.31356 0.0
C147 C 0.79604 0.25858 0.2984 0.0
C148 C 0.7936 0.19181 0.25849 0.0
C149 C 0.81908 0.23198 0.13672 0.0
C150 C 0.84289 0.25101 0.1535 0.0
C151 C 0.79452 0.29291 0.24157 0.0
C152 C 0.73951 0.32538 0.21011 0.0
C153 C 0.7195 0.32099 0.18489 0.0
C154 C 0.72559 0.33535 0.16096 0.0
C155 C 0.75245 0.35357 0.16226 0.0
C156 C 0.76617 0.3439 0.21109 0.0
C157 C 0.77262 0.35759 0.18714 0.0
C158 C 0.73197 0.24483 0.19254 0.0
C159 C 0.73244 0.30974 0.23472 0.0
H160 H 0.83137 0.19331 0.30475 0.0
H161 H 0.77705 0.1435 0.35489 0.0
H162 H 0.74461 0.16009 0.27094 0.0
H163 H 0.73792 0.14027 0.31604 0.0
H164 H 0.69905 0.30643 0.18401 0.0
H165 H 0.75775 0.36544 0.14444 0.0
H166 H 0.78209 0.34784 0.23027 0.0
H167 H 0.79319 0.37175 0.18804 0.0
Eu168 Eu 0.73946 0.74282 0.27448 0.0
C169 C 0.80458 0.80506 0.18601 0.0
C170 C 0.76929 0.79957 0.1433 0.0
C171 C 0.81182 0.83882 0.15065 0.0
C172 C 0.77889 0.79039 0.16963 0.0
C173 C 0.82158 0.82913 0.17644 0.0
C174 C 0.7857 0.8241 0.13415 0.0
C175 C 0.85735 0.83109 0.21744 0.0
N176 N 0.81351 0.79501 0.21067 0.0
C177 C 0.83975 0.80709 0.226 0.0
C178 C 0.84814 0.84233 0.19271 0.0
Eu179 Eu 0.78265 0.75442 0.22367 0.0
N180 N 0.76374 0.76657 0.17886 0.0
C181 C 0.73944 0.75022 0.16214 0.0
C182 C 0.74378 0.7835 0.12666 0.0
C183 C 0.72892 0.75858 0.13601 0.0
H184 H 0.84698 0.79849 0.24514 0.0
H185 H 0.70939 0.74576 0.12308 0.0
H186 H 0.77861 0.83156 0.11406 0.0
H187 H 0.87799 0.84088 0.22992 0.0
H188 H 0.72782 0.73085 0.16904 0.0
H189 H 0.81049 0.75137 0.3763 0.0
H190 H 0.73564 0.78987 0.10634 0.0
H191 H 0.6757 0.69791 0.25044 0.0
H192 H 0.79373 0.76533 0.32903 0.0
H193 H 0.64362 0.65623 0.26548 0.0
H194 H 0.82449 0.85739 0.14303 0.0
H195 H 0.78212 0.70896 0.3942 0.0
H196 H 0.73765 0.66877 0.38688 0.0
H197 H 0.86185 0.86087 0.18607 0.0
H198 H 0.69277 0.64258 0.35652 0.0
N199 N 0.75737 0.73024 0.31938 0.0
C200 C 0.7816 0.74642 0.33628 0.0
C201 C 0.77498 0.71467 0.37315 0.0
C202 C 0.74954 0.69878 0.35618 0.0
C203 C 0.79103 0.73866 0.36317 0.0
C204 C 0.74123 0.7072 0.32898 0.0
H205 H 0.65749 0.63774 0.31128 0.0
N206 N 0.70779 0.70237 0.28681 0.0
C207 C 0.66384 0.66628 0.27879 0.0
C208 C 0.71565 0.69281 0.31218 0.0
C209 C 0.68208 0.68989 0.27033 0.0
C210 C 0.67177 0.65588 0.30462 0.0
C211 C 0.69781 0.66934 0.32185 0.0
O212 O 0.70507 0.75458 0.27523 0.0
O213 O 0.74714 0.76069 0.2336 0.0
O214 O 0.78976 0.7957 0.2408 0.0
O215 O 0.77673 0.78225 0.28312 0.0
O216 O 0.70723 0.73938 0.23425 0.0
O217 O 0.74374 0.77362 0.30517 0.0
O218 O 0.81686 0.74207 0.22503 0.0
O219 O 0.77489 0.73639 0.26456 0.0
O220 O 0.73274 0.70173 0.25711 0.0
O221 O 0.7454 0.71514 0.21455 0.0
O222 O 0.81477 0.75849 0.26437 0.0
O223 O 0.78022 0.72517 0.19192 0.0
C224 C 0.723 0.75453 0.21908 0.0
C225 C 0.7046 0.77293 0.31877 0.0
C226 C 0.68304 0.79574 0.34226 0.0
C227 C 0.69439 0.79345 0.31966 0.0
C228 C 0.68162 0.77709 0.36355 0.0
C229 C 0.70276 0.75441 0.34016 0.0
C230 C 0.69123 0.75647 0.36237 0.0
C231 C 0.78706 0.80111 0.26592 0.0
C232 C 0.71868 0.77212 0.29654 0.0
C233 C 0.70621 0.6605 0.34865 0.0
C234 C 0.7319 0.67534 0.36588 0.0
C235 C 0.799 0.743 0.27937 0.0
C236 C 0.82183 0.72908 0.18157 0.0
C237 C 0.83092 0.70839 0.17747 0.0
C238 C 0.84737 0.71107 0.15807 0.0
C239 C 0.85487 0.73503 0.14342 0.0
C240 C 0.82916 0.75238 0.16622 0.0
C241 C 0.84568 0.75536 0.14737 0.0
C242 C 0.73458 0.69641 0.23156 0.0
C243 C 0.80503 0.7264 0.20209 0.0
H244 H 0.69594 0.80797 0.30331 0.0
H245 H 0.67289 0.77841 0.38108 0.0
H246 H 0.71057 0.73862 0.3399 0.0
H247 H 0.68998 0.7422 0.37888 0.0
H248 H 0.82477 0.69016 0.18897 0.0
H249 H 0.86814 0.7383 0.12903 0.0
H250 H 0.82222 0.76832 0.16886 0.0
H251 H 0.8515 0.77357 0.13583 0.0
Eu252 Eu 0.28025 0.73195 0.25187 0.0
C253 C 0.23392 0.81578 0.19266 0.0
C254 C 0.27436 0.85661 0.19552 0.0
C255 C 0.23517 0.84822 0.15598 0.0
C256 C 0.26046 0.83181 0.20653 0.0
C257 C 0.22085 0.82423 0.16763 0.0
C258 C 0.26185 0.86434 0.16987 0.0
C259 C 0.17949 0.78592 0.16866 0.0
N260 N 0.2204 0.79263 0.2043 0.0
C261 C 0.19319 0.77838 0.19349 0.0
C262 C 0.19348 0.80871 0.15542 0.0
Eu263 Eu 0.24624 0.78074 0.24489 0.0
N264 N 0.27225 0.82386 0.23131 0.0
C265 C 0.29664 0.84098 0.24735 0.0
C266 C 0.3002 0.87328 0.21093 0.0
C267 C 0.31114 0.86565 0.23719 0.0
H268 H 0.18233 0.76043 0.20322 0.0
H269 H 0.33085 0.87869 0.24959 0.0
H270 H 0.27239 0.88313 0.16096 0.0
H271 H 0.1582 0.77407 0.15967 0.0
H272 H 0.30567 0.8356 0.26758 0.0
H273 H 0.19381 0.63508 0.23856 0.0
H274 H 0.31156 0.89238 0.2031 0.0
H275 H 0.34008 0.75053 0.2992 0.0
H276 H 0.22261 0.67899 0.22391 0.0
H277 H 0.36 0.73612 0.34513 0.0
H278 H 0.22554 0.85483 0.13659 0.0
H279 H 0.20768 0.61976 0.28616 0.0
H280 H 0.24281 0.62766 0.33217 0.0
H281 H 0.18277 0.81453 0.13618 0.0
H282 H 0.28806 0.65523 0.3613 0.0
N283 N 0.25224 0.68867 0.26308 0.0
C284 C 0.22906 0.67242 0.24463 0.0
C285 C 0.22047 0.63899 0.27981 0.0
C286 C 0.24512 0.65503 0.29794 0.0
C287 C 0.21264 0.64754 0.25286 0.0
C288 C 0.26087 0.67999 0.28872 0.0
H289 H 0.33215 0.69551 0.36611 0.0
N290 N 0.30138 0.71857 0.29476 0.0
C291 C 0.3392 0.7246 0.33418 0.0
C292 C 0.28622 0.6955 0.30515 0.0
C293 C 0.32797 0.73259 0.30817 0.0
C294 C 0.32336 0.70169 0.34598 0.0
C295 C 0.29667 0.68652 0.3312 0.0
O296 O 0.31672 0.72955 0.24284 0.0
O297 O 0.27924 0.77057 0.23508 0.0
O298 O 0.23377 0.76001 0.20133 0.0
O299 O 0.2488 0.72405 0.20981 0.0
O300 O 0.31749 0.77007 0.25047 0.0
O301 O 0.27663 0.70558 0.2171 0.0
O302 O 0.23039 0.77672 0.28297 0.0
O303 O 0.24635 0.74146 0.26 0.0
O304 O 0.28744 0.75144 0.29489 0.0
O305 O 0.28364 0.79238 0.28195 0.0
O306 O 0.20859 0.74201 0.24135 0.0
O307 O 0.23356 0.81156 0.25833 0.0
C308 C 0.30416 0.78441 0.23797 0.0
C309 C 0.31011 0.68738 0.22327 0.0
C310 C 0.32505 0.65839 0.2002 0.0
C311 C 0.31972 0.6819 0.20088 0.0
C312 C 0.32094 0.64043 0.22203 0.0
C313 C 0.30622 0.66952 0.2452 0.0
C314 C 0.31168 0.64612 0.24457 0.0
C315 C 0.23597 0.73778 0.19321 0.0
C316 C 0.30275 0.71092 0.22254 0.0
C317 C 0.28053 0.66233 0.34116 0.0
C318 C 0.25477 0.64662 0.32456 0.0
C319 C 0.22124 0.72721 0.2544 0.0
C320 C 0.19721 0.79511 0.28071 0.0
C321 C 0.19395 0.81203 0.29956 0.0
C322 C 0.16775 0.81008 0.30043 0.0
C323 C 0.14482 0.79096 0.28245 0.0
C324 C 0.17415 0.77581 0.26311 0.0
C325 C 0.14807 0.77378 0.264 0.0
C326 C 0.29167 0.7768 0.30086 0.0
C327 C 0.22471 0.79822 0.27924 0.0
H328 H 0.32254 0.69558 0.18377 0.0
H329 H 0.32504 0.62216 0.22165 0.0
H330 H 0.29876 0.67349 0.26256 0.0
H331 H 0.30857 0.63232 0.26147 0.0
H332 H 0.21174 0.827 0.31316 0.0
H333 H 0.12443 0.78917 0.28291 0.0
H334 H 0.1762 0.76233 0.24871 0.0
H335 H 0.13036 0.7589 0.25034 0.0
Eu336 Eu 0.29001 0.73167 0.74261 0.0
C337 C 0.21577 0.76756 0.80857 0.0
C338 C 0.17534 0.72769 0.80869 0.0
C339 C 0.18845 0.7654 0.8424 0.0
C340 C 0.19805 0.74214 0.79737 0.0
C341 C 0.21115 0.77956 0.83119 0.0
C342 C 0.17057 0.73951 0.83117 0.0
C343 C 0.25136 0.81887 0.82951 0.0
N344 N 0.23774 0.78043 0.79756 0.0
C345 C 0.25518 0.80606 0.80728 0.0
C346 C 0.22941 0.80547 0.84175 0.0
Eu347 Eu 0.24147 0.75871 0.75795 0.0
N348 N 0.20395 0.73093 0.77646 0.0
C349 C 0.18776 0.70522 0.7658 0.0
C350 C 0.15862 0.70145 0.7977 0.0
C351 C 0.16494 0.69014 0.77624 0.0
H352 H 0.27222 0.81677 0.79807 0.0
H353 H 0.15231 0.66975 0.76779 0.0
H354 H 0.15333 0.72868 0.84025 0.0
H355 H 0.26527 0.83917 0.83697 0.0
H356 H 0.19238 0.69602 0.74938 0.0
H357 H 0.37664 0.73428 0.8288 0.0
H358 H 0.14109 0.68961 0.80594 0.0
H359 H 0.29209 0.74936 0.67537 0.0
H360 H 0.32867 0.71823 0.80314 0.0
H361 H 0.32548 0.77635 0.64902 0.0
H362 H 0.18462 0.77425 0.85983 0.0
H363 H 0.412 0.76833 0.80842 0.0
H364 H 0.42434 0.79603 0.76737 0.0
H365 H 0.22659 0.81542 0.85908 0.0
H366 H 0.41047 0.80738 0.71825 0.0
N367 N 0.3361 0.74351 0.76845 0.0
C368 C 0.34366 0.73294 0.79367 0.0
C369 C 0.39082 0.76142 0.79697 0.0
C370 C 0.38331 0.77067 0.77025 0.0
C371 C 0.37096 0.74213 0.80849 0.0
C372 C 0.35543 0.76112 0.75623 0.0
H373 H 0.37395 0.7992 0.67367 0.0
N374 N 0.32075 0.75751 0.71532 0.0
C375 C 0.33193 0.77467 0.67156 0.0
C376 C 0.34757 0.76805 0.72876 0.0
C377 C 0.31291 0.75957 0.68679 0.0
C378 C 0.35925 0.78744 0.68552 0.0
C379 C 0.36747 0.7839 0.71436 0.0
O380 O 0.26289 0.69059 0.72635 0.0
O381 O 0.25474 0.72403 0.7619 0.0
O382 O 0.27436 0.76577 0.79842 0.0
O383 O 0.30984 0.75943 0.7831 0.0
O384 O 0.28199 0.70621 0.78038 0.0
O385 O 0.30369 0.7065 0.72041 0.0
O386 O 0.237 0.79153 0.73206 0.0
O387 O 0.27461 0.76441 0.73552 0.0
O388 O 0.26056 0.73799 0.70395 0.0
O389 O 0.22454 0.72439 0.72446 0.0
O390 O 0.27661 0.7985 0.75586 0.0
O391 O 0.2023 0.75409 0.73002 0.0
C392 C 0.2604 0.70993 0.78219 0.0
C393 C 0.28416 0.66006 0.72597 0.0
C394 C 0.29842 0.63326 0.76329 0.0
C395 C 0.29425 0.65692 0.75447 0.0
C396 C 0.2918 0.61243 0.74277 0.0
C397 C 0.27745 0.63915 0.70586 0.0
C398 C 0.28119 0.61534 0.71431 0.0
C399 C 0.29985 0.76731 0.80225 0.0
C400 C 0.28116 0.68541 0.71733 0.0
C401 C 0.39501 0.79473 0.72881 0.0
C402 C 0.4029 0.78824 0.75677 0.0
C403 C 0.28863 0.78915 0.74138 0.0
C404 C 0.19418 0.79389 0.71996 0.0
C405 C 0.19091 0.80812 0.69582 0.0
C406 C 0.17471 0.82341 0.69267 0.0
C407 C 0.16225 0.82487 0.71456 0.0
C408 C 0.18189 0.79529 0.74186 0.0
C409 C 0.16596 0.8109 0.73912 0.0
C410 C 0.234 0.72717 0.70152 0.0
C411 C 0.21125 0.77847 0.72145 0.0
H412 H 0.299 0.67311 0.76969 0.0
H413 H 0.29533 0.59411 0.74844 0.0
H414 H 0.26959 0.64131 0.6837 0.0
H415 H 0.27622 0.59925 0.6987 0.0
H416 H 0.2012 0.80732 0.67942 0.0
H417 H 0.14932 0.83636 0.7125 0.0
H418 H 0.18457 0.78444 0.76084 0.0
H419 H 0.15633 0.81199 0.75591 0.0
Eu420 Eu 0.24055 0.24235 0.78032 0.0
C421 C 0.3036 0.30565 0.69155 0.0
C422 C 0.2682 0.29999 0.64888 0.0
C423 C 0.31082 0.33909 0.65585 0.0
C424 C 0.2779 0.29089 0.67522 0.0
C425 C 0.32062 0.32957 0.68173 0.0
C426 C 0.28463 0.32437 0.6395 0.0
C427 C 0.3566 0.33154 0.72251 0.0
N428 N 0.31262 0.29572 0.71625 0.0
C429 C 0.33899 0.30769 0.7313 0.0
C430 C 0.34728 0.34272 0.69779 0.0
Eu431 Eu 0.28222 0.25472 0.72894 0.0
N432 N 0.26264 0.26725 0.6847 0.0
C433 C 0.23802 0.25112 0.66834 0.0
C434 C 0.24247 0.28406 0.63251 0.0
C435 C 0.22742 0.25941 0.64221 0.0
H436 H 0.34633 0.29904 0.75035 0.0
H437 H 0.2077 0.24673 0.62953 0.0
H438 H 0.27748 0.33175 0.61937 0.0
H439 H 0.37734 0.34124 0.73477 0.0
H440 H 0.22629 0.2319 0.67543 0.0
H441 H 0.31518 0.25219 0.88082 0.0
H442 H 0.23427 0.29038 0.61219 0.0
H443 H 0.17518 0.19757 0.76052 0.0
H444 H 0.29699 0.26677 0.83519 0.0
H445 H 0.14552 0.1553 0.77676 0.0
H446 H 0.32352 0.35753 0.64803 0.0
H447 H 0.28903 0.20845 0.89777 0.0
H448 H 0.24707 0.16628 0.89011 0.0
H449 H 0.36101 0.36112 0.69093 0.0
H450 H 0.20156 0.13964 0.86165 0.0
N451 N 0.26136 0.23056 0.82448 0.0
C452 C 0.28544 0.24719 0.84147 0.0
C453 C 0.28125 0.21418 0.87703 0.0
C454 C 0.25607 0.19768 0.86024 0.0
C455 C 0.29594 0.23905 0.86766 0.0
C456 C 0.24627 0.20658 0.83377 0.0
H457 H 0.16346 0.13559 0.8198 0.0
N458 N 0.21003 0.20162 0.79361 0.0
C459 C 0.16644 0.16525 0.78846 0.0
C460 C 0.22006 0.19171 0.81791 0.0
C461 C 0.1833 0.18935 0.77943 0.0
C462 C 0.17669 0.15415 0.81269 0.0
C463 C 0.20356 0.16759 0.82802 0.0
O464 O 0.22959 0.27782 0.78045 0.0
O465 O 0.24634 0.26098 0.73907 0.0
O466 O 0.29049 0.29539 0.74919 0.0
O467 O 0.2794 0.27941 0.79158 0.0
O468 O 0.20728 0.23598 0.74082 0.0
O469 O 0.22091 0.24926 0.81232 0.0
O470 O 0.3168 0.24331 0.72906 0.0
O471 O 0.2748 0.23444 0.76927 0.0
O472 O 0.2269 0.20207 0.75715 0.0
O473 O 0.24675 0.21462 0.71843 0.0
O474 O 0.31464 0.25744 0.76877 0.0
O475 O 0.28052 0.22743 0.6954 0.0
C476 C 0.22151 0.25305 0.72545 0.0
C477 C 0.19062 0.27165 0.7972 0.0
C478 C 0.15979 0.29099 0.8085 0.0
C479 C 0.18625 0.2909 0.81237 0.0
C480 C 0.13812 0.27211 0.78892 0.0
C481 C 0.16861 0.25306 0.77785 0.0
C482 C 0.14257 0.25337 0.77366 0.0
C483 C 0.28947 0.29937 0.7755 0.0
C484 C 0.21796 0.2708 0.80149 0.0
C485 C 0.21392 0.15815 0.85363 0.0
C486 C 0.23997 0.17325 0.86978 0.0
C487 C 0.29919 0.24093 0.78343 0.0
C488 C 0.3226 0.23221 0.68515 0.0
C489 C 0.33056 0.21123 0.67894 0.0
C490 C 0.34876 0.21537 0.66103 0.0
C491 C 0.35886 0.24106 0.64994 0.0
C492 C 0.33232 0.25707 0.67289 0.0
C493 C 0.35039 0.26147 0.65551 0.0
C494 C 0.23091 0.19679 0.7327 0.0
C495 C 0.3053 0.22855 0.70547 0.0
H496 H 0.20315 0.30534 0.8274 0.0
H497 H 0.11767 0.27199 0.78525 0.0
H498 H 0.17154 0.2383 0.76594 0.0
H499 H 0.12575 0.23899 0.75858 0.0
H500 H 0.32248 0.19185 0.688 0.0
H501 H 0.37373 0.24576 0.6372 0.0
H502 H 0.32635 0.27327 0.67709 0.0
H503 H 0.35821 0.28096 0.64661 0.0
Eu504 Eu 0.78726 0.23836 0.75879 0.0
C505 C 0.73482 0.31272 0.68785 0.0
C506 C 0.77238 0.35613 0.69463 0.0
C507 C 0.73589 0.34583 0.65204 0.0
C508 C 0.75927 0.33028 0.70404 0.0
C509 C 0.72263 0.32039 0.66181 0.0
C510 C 0.76072 0.36367 0.66843 0.0
C511 C 0.68312 0.27913 0.6593 0.0
N512 N 0.72173 0.28909 0.69876 0.0
C513 C 0.69564 0.27298 0.68572 0.0
C514 C 0.69683 0.30283 0.64711 0.0
Eu515 Eu 0.74411 0.27899 0.7429 0.0
N516 N 0.76918 0.32288 0.72991 0.0
C517 C 0.79154 0.34093 0.74795 0.0
C518 C 0.79612 0.37411 0.7124 0.0
C519 C 0.80555 0.36658 0.73933 0.0
H520 H 0.68478 0.25504 0.69558 0.0
H521 H 0.82359 0.38052 0.7535 0.0
H522 H 0.77034 0.38358 0.66108 0.0
H523 H 0.66282 0.2658 0.64858 0.0
H524 H 0.79918 0.33559 0.76886 0.0
H525 H 0.71554 0.13464 0.76091 0.0
H526 H 0.80685 0.3941 0.70588 0.0
H527 H 0.84955 0.26838 0.80024 0.0
H528 H 0.73624 0.17778 0.73952 0.0
H529 H 0.87687 0.26205 0.84633 0.0
H530 H 0.72667 0.35222 0.63227 0.0
H531 H 0.73532 0.12782 0.81044 0.0
H532 H 0.77336 0.14507 0.85413 0.0
H533 H 0.68691 0.30786 0.62689 0.0
H534 H 0.81764 0.17972 0.87737 0.0
N535 N 0.76692 0.19565 0.77684 0.0
C536 C 0.74518 0.17508 0.7611 0.0
C537 C 0.74449 0.14684 0.80117 0.0
C538 C 0.7681 0.16725 0.8164 0.0
C539 C 0.73334 0.15056 0.77317 0.0
C540 C 0.7791 0.19166 0.80337 0.0
H541 H 0.85685 0.22305 0.87423 0.0
N542 N 0.81463 0.23347 0.80237 0.0
C543 C 0.8563 0.24766 0.83826 0.0
C544 C 0.80386 0.21116 0.81653 0.0
C545 C 0.84085 0.25118 0.8122 0.0
C546 C 0.84487 0.22569 0.85401 0.0
C547 C 0.81851 0.20682 0.84296 0.0
O548 O 0.82454 0.24272 0.74634 0.0
O549 O 0.78016 0.27266 0.73665 0.0
O550 O 0.73728 0.25564 0.70231 0.0
O551 O 0.75374 0.22168 0.71838 0.0
O552 O 0.81994 0.27956 0.75548 0.0
O553 O 0.78686 0.2089 0.72897 0.0
O554 O 0.70498 0.27541 0.75052 0.0
O555 O 0.75019 0.24378 0.76388 0.0
O556 O 0.79103 0.25812 0.8007 0.0
O557 O 0.77571 0.29271 0.78506 0.0
O558 O 0.7106 0.23803 0.74369 0.0
O559 O 0.74252 0.3048 0.77528 0.0
C560 C 0.80399 0.28976 0.7396 0.0
C561 C 0.82758 0.20196 0.73501 0.0
C562 C 0.84998 0.17771 0.71571 0.0
C563 C 0.83605 0.19534 0.7123 0.0
C564 C 0.85527 0.16672 0.74215 0.0
C565 C 0.83278 0.19079 0.76124 0.0
C566 C 0.84664 0.17325 0.76478 0.0
C567 C 0.74015 0.2326 0.69866 0.0
C568 C 0.813 0.22021 0.73076 0.0
C569 C 0.80688 0.18328 0.85686 0.0
C570 C 0.78166 0.16355 0.84362 0.0
C571 C 0.72605 0.22688 0.75881 0.0
C572 C 0.70408 0.31594 0.76642 0.0
C573 C 0.69702 0.32356 0.78972 0.0
C574 C 0.68742 0.3446 0.78792 0.0
C575 C 0.68469 0.35776 0.76244 0.0
C576 C 0.70126 0.32916 0.7411 0.0
C577 C 0.6915 0.34994 0.73913 0.0
C578 C 0.78747 0.28061 0.80523 0.0
C579 C 0.716 0.29544 0.76951 0.0
H580 H 0.83205 0.20416 0.6921 0.0
H581 H 0.86576 0.15283 0.74522 0.0
H582 H 0.82614 0.19554 0.77887 0.0
H583 H 0.85062 0.16464 0.78505 0.0
H584 H 0.69963 0.31359 0.80943 0.0
H585 H 0.67707 0.3739 0.76052 0.0
H586 H 0.70677 0.32363 0.72301 0.0
H587 H 0.68936 0.36011 0.71955 0.0
Eu588 Eu 0.75545 0.72764 0.71407 0.0
C589 C 0.82395 0.80463 0.82151 0.0
C590 C 0.8251 0.77475 0.86013 0.0
C591 C 0.86152 0.81899 0.86326 0.0
C592 C 0.81252 0.78005 0.833 0.0
C593 C 0.84833 0.82457 0.83673 0.0
C594 C 0.84986 0.79419 0.87499 0.0
C595 C 0.84336 0.85507 0.79978 0.0
N596 N 0.81033 0.80968 0.79619 0.0
C597 C 0.81915 0.83473 0.78557 0.0
C598 C 0.85819 0.84987 0.82531 0.0
Eu599 Eu 0.76926 0.77444 0.77388 0.0
N600 N 0.78823 0.76199 0.81846 0.0
C601 C 0.77482 0.73879 0.83033 0.0
C602 C 0.8119 0.7505 0.87193 0.0
C603 C 0.78661 0.73249 0.85699 0.0
H604 H 0.80779 0.83903 0.76596 0.0
H605 H 0.77604 0.71388 0.86612 0.0
H606 H 0.85981 0.79055 0.89588 0.0
H607 H 0.85052 0.87473 0.79105 0.0
H608 H 0.75505 0.72488 0.81926 0.0
H609 H 0.75024 0.78899 0.62226 0.0
H610 H 0.82058 0.74581 0.89287 0.0
H611 H 0.71605 0.66301 0.72059 0.0
H612 H 0.77135 0.77656 0.66854 0.0
H613 H 0.67198 0.62865 0.6959 0.0
H614 H 0.88032 0.83401 0.87524 0.0
H615 H 0.70367 0.75958 0.59695 0.0
H616 H 0.6631 0.71618 0.5944 0.0
H617 H 0.87684 0.86572 0.83638 0.0
H618 H 0.6419 0.6724 0.61431 0.0
N619 N 0.73685 0.74089 0.66978 0.0
C620 C 0.751 0.76359 0.65774 0.0
C621 C 0.71282 0.75406 0.61729 0.0
C622 C 0.69906 0.72999 0.62903 0.0
C623 C 0.73913 0.77066 0.63147 0.0
C624 C 0.71192 0.72375 0.65555 0.0
H625 H 0.64528 0.6394 0.65187 0.0
N626 N 0.71387 0.69317 0.69133 0.0
C627 C 0.67957 0.64843 0.68752 0.0
C628 C 0.70005 0.6991 0.66665 0.0
C629 C 0.70453 0.66793 0.70144 0.0
C630 C 0.66453 0.6546 0.66271 0.0
C631 C 0.6749 0.68004 0.65172 0.0
O632 O 0.77168 0.69611 0.71304 0.0
O633 O 0.77745 0.73969 0.75935 0.0
O634 O 0.80971 0.78304 0.76307 0.0
O635 O 0.79305 0.76626 0.71615 0.0
O636 O 0.75737 0.69892 0.74923 0.0
O637 O 0.78073 0.72856 0.68464 0.0
O638 O 0.75201 0.80528 0.77439 0.0
O639 O 0.747 0.76222 0.72871 0.0
O640 O 0.71555 0.71747 0.72638 0.0
O641 O 0.73321 0.73479 0.77313 0.0
O642 O 0.76837 0.8027 0.73805 0.0
O643 O 0.74364 0.77325 0.80319 0.0
C644 C 0.77321 0.71657 0.76934 0.0
C645 C 0.77977 0.6864 0.66996 0.0
C646 C 0.79762 0.659 0.64721 0.0
C647 C 0.8014 0.67865 0.66805 0.0
C648 C 0.77168 0.64715 0.62873 0.0
C649 C 0.75441 0.67461 0.65093 0.0
C650 C 0.75041 0.65504 0.63051 0.0
C651 C 0.81331 0.77983 0.73765 0.0
C652 C 0.78352 0.70601 0.6925 0.0
C653 C 0.66136 0.68668 0.62598 0.0
C654 C 0.67341 0.71162 0.61465 0.0
C655 C 0.75169 0.78516 0.71822 0.0
C656 C 0.74461 0.81558 0.81771 0.0
C657 C 0.72268 0.82188 0.82183 0.0
C658 C 0.7271 0.84223 0.84234 0.0
C659 C 0.75409 0.85641 0.85779 0.0
C660 C 0.77084 0.8294 0.83436 0.0
C661 C 0.77554 0.84978 0.85408 0.0
C662 C 0.71347 0.71883 0.75268 0.0
C663 C 0.7405 0.79561 0.7952 0.0
H664 H 0.82108 0.68806 0.68263 0.0
H665 H 0.76759 0.63142 0.61303 0.0
H666 H 0.73762 0.68034 0.652 0.0
H667 H 0.73064 0.64577 0.61609 0.0
H668 H 0.70239 0.81089 0.80915 0.0
H669 H 0.75896 0.87303 0.87268 0.0
H670 H 0.78783 0.8248 0.83181 0.0
H671 H 0.79603 0.86073 0.86638 0.0
Cd672 Cd 0.98865 0.98315 0.53364 0.0
Cd673 Cd 0.02995 0.03094 0.45947 0.0
C674 C 0.03633 0.96434 0.54441 0.0
N675 N 0.01548 0.96337 0.52241 0.0
C676 C 0.03134 0.94269 0.49164 0.0
C677 C 0.05417 0.94537 0.51351 0.0
C678 C 0.05622 0.95576 0.54035 0.0
C679 C 1.01219 0.95239 0.49645 0.0
H680 H 0.03772 0.97235 0.56501 0.0
H681 H 0.99492 0.95127 0.47955 0.0
C682 C 0.96555 0.98891 0.45644 0.0
C683 C 1.00373 0.06199 0.48655 0.0
C684 C 0.99668 0.0827 0.49381 0.0
C685 C 0.01517 0.10954 0.49512 0.0
C686 C 0.04138 0.11458 0.49114 0.0
C687 C 0.04758 0.09302 0.48377 0.0
N688 N 0.0284 0.06751 0.48092 0.0
H689 H 0.98878 0.04162 0.48329 0.0
H690 H 0.06698 0.09682 0.47882 0.0
C691 C 0.0378 0.98191 0.43731 0.0
N692 N 0.05184 0.00229 0.4574 0.0
C693 C 0.09177 0.99213 0.46376 0.0
C694 C 0.07794 0.97139 0.44242 0.0
C695 C 0.05048 0.96604 0.4295 0.0
C696 C 0.07829 0.00774 0.47071 0.0
H697 H 0.017 0.97867 0.42663 0.0
H698 H 0.08927 0.02505 0.48547 0.0
C699 C 0.04301 0.02779 0.53189 0.0
C700 C 0.96865 0.94789 0.57472 0.0
N701 N 0.97133 0.01475 0.539 0.0
C702 C 0.98092 0.02758 0.56499 0.0
C703 C 0.97104 0.04632 0.57177 0.0
C704 C 0.95159 0.05258 0.55127 0.0
C705 C 0.94211 0.03891 0.52444 0.0
C706 C 0.952 0.01961 0.51889 0.0
C707 C 0.04927 0.06065 0.41516 0.0
O708 O 0.97375 0.98713 0.48281 0.0
O709 O 0.98205 0.00323 0.44194 0.0
O710 O 0.02844 0.01996 0.50719 0.0
O711 O 0.03291 0.01764 0.55256 0.0
O712 O 0.95665 0.94173 0.54868 0.0
O713 O 0.98905 0.96995 0.58066 0.0
O714 O 0.06516 0.06216 0.43938 0.0
O715 O 0.02418 0.04558 0.41202 0.0
H716 H 0.99588 0.02275 0.5807 0.0
H717 H 0.94425 0.00861 0.49858 0.0
H718 H 0.02855 0.93355 0.47112 0.0
H719 H 0.07279 0.95685 0.55821 0.0
H720 H 0.97594 0.07783 0.49547 0.0
H721 H 0.05616 0.13502 0.4918 0.0
H722 H 0.11309 0.99714 0.47384 0.0
H723 H 0.03901 0.95001 0.41323 0.0
H724 H 0.97823 0.05516 0.59315 0.0
H725 H 0.92741 0.0431 0.50776 0.0
Cd726 Cd 0.51881 0.97921 0.05155 0.0
Cd727 Cd 0.51402 0.02626 0.95228 0.0
C728 C 0.57699 0.97162 0.08518 0.0
N729 N 0.5523 0.95912 0.06693 0.0
C730 C 0.55949 0.91732 0.0696 0.0
C731 C 0.58485 0.92933 0.08899 0.0
C732 C 0.59365 0.95712 0.09636 0.0
C733 C 0.54357 0.93249 0.05902 0.0
H734 H 0.58344 0.99263 0.09183 0.0
H735 H 0.52369 0.9227 0.04502 0.0
C736 C 0.48364 0.96777 0.97823 0.0
C737 C 0.45579 0.03235 0.91776 0.0
C738 C 0.43868 0.04617 0.90585 0.0
C739 C 0.44631 0.07373 0.91339 0.0
C740 C 0.47095 0.08622 0.93371 0.0
C741 C 0.48736 0.07168 0.94506 0.0
N742 N 0.47977 0.04528 0.9369 0.0
H743 H 0.45035 0.01158 0.91088 0.0
H744 H 0.50673 0.08181 0.95981 0.0
C745 C 0.5223 0.9879 0.90623 0.0
N746 N 0.52859 0.99511 0.9343 0.0
C747 C 0.55862 0.97108 0.94435 0.0
C748 C 0.55362 0.96431 0.91534 0.0
C749 C 0.53473 0.97258 0.89625 0.0
C750 C 0.54608 0.98671 0.95332 0.0
H751 H 0.50843 0.99488 0.89141 0.0
H752 H 0.55083 0.99277 0.9755 0.0
C753 C 0.54888 0.04112 0.02809 0.0
C754 C 0.47619 0.93983 0.07123 0.0
N755 N 0.50322 0.00818 0.07156 0.0
C756 C 0.51479 0.02255 0.09688 0.0
C757 C 0.50207 0.03779 0.1066 0.0
C758 C 0.47717 0.03806 0.09019 0.0
C759 C 0.4658 0.02271 0.06432 0.0
C760 C 0.47924 0.00808 0.05538 0.0
C761 C 0.55169 0.06456 0.92613 0.0
O762 O 0.50213 0.97986 -0.00011 0.0
O763 O 0.4816 0.98036 0.95553 0.0
O764 O 0.53403 0.02961 0.0043 0.0
O765 O 0.54888 0.02731 0.05012 0.0
O766 O 0.47389 0.94319 0.04482 0.0
O767 O 0.49866 0.95408 0.08784 0.0
O768 O 0.55552 0.06518 0.95297 0.0
O769 O 0.52987 0.04675 0.91194 0.0
H770 H 0.53375 0.0221 0.10957 0.0
H771 H 0.47028 0.99614 0.03557 0.0
H772 H 0.55177 0.89621 0.06271 0.0
H773 H 0.61279 0.96741 0.11143 0.0
H774 H 0.42017 0.03557 0.89007 0.0
H775 H 0.47774 0.1072 0.9407 0.0
H776 H 0.57241 0.9647 0.96007 0.0
H777 H 0.53029 0.96816 0.8737 0.0
H778 H 0.51174 0.04937 0.12661 0.0
H779 H 0.44637 0.02154 0.05119 0.0
Cd780 Cd 0.01895 0.48277 0.04994 0.0
Cd781 Cd 0.01296 0.52841 0.94788 0.0
C782 C 0.06247 0.46383 0.09482 0.0
N783 N 0.05237 0.46291 0.06632 0.0
C784 C 0.07479 0.43339 0.05933 0.0
C785 C 0.08487 0.43331 0.08878 0.0
C786 C 0.07871 0.44919 0.10647 0.0
C787 C 0.05843 0.44821 0.04855 0.0
H788 H 0.0572 0.47531 0.10869 0.0
H789 H 0.04981 0.44722 0.02603 0.0
C790 C 0.97948 0.47159 0.97812 0.0
C791 C 0.96171 0.53955 0.90482 0.0
C792 C 0.94474 0.55339 0.8927 0.0
C793 C 0.9462 0.57665 0.90677 0.0
C794 C 0.96467 0.58472 0.93341 0.0
C795 C 0.98116 0.57022 0.9448 0.0
N796 N 0.97959 0.54814 0.93043 0.0
H797 H 0.96106 0.52227 0.89341 0.0
H798 H 0.99593 0.57718 0.96478 0.0
C799 C 1.00873 0.47544 0.91007 0.0
N800 N 0.02566 0.49712 0.92795 0.0
C801 C 0.06424 0.48653 0.92633 0.0
C802 C 0.04746 0.46403 0.90783 0.0
C803 C 0.01927 0.45838 0.89986 0.0
C804 C 0.05286 0.50267 0.9363 0.0
H805 H 0.98714 0.47138 0.90373 0.0
H806 H 0.06582 0.51981 0.9508 0.0
C807 C 0.05233 0.54037 0.0208 0.0
C808 C 0.97726 0.44321 0.0706 0.0
N809 N 1.00647 0.51391 0.07005 0.0
C810 C 0.01414 0.52231 0.09787 0.0
C811 C 1.00232 0.53825 0.10791 0.0
C812 C 0.98232 0.54536 0.08916 0.0
C813 C 0.97516 0.53644 0.06054 0.0
C814 C 0.98754 0.52078 0.05146 0.0
C815 C 0.05625 0.56852 0.92961 0.0
O816 O 0.99996 0.48208 -0.00138 0.0
O817 O 0.97794 0.48399 0.95521 0.0
O818 O 0.03297 0.52937 -0.00061 0.0
O819 O 0.05331 0.52795 0.04377 0.0
O820 O 0.97366 0.44769 0.04436 0.0
O821 O 1.00028 0.4567 0.08673 0.0
O822 O 0.0561 0.56691 0.95578 0.0
O823 O 0.03563 0.55219 0.91217 0.0
H824 H 0.02887 0.51612 0.11236 0.0
H825 H 0.98139 0.51328 0.02961 0.0
H826 H 0.07863 0.42131 0.04474 0.0
H827 H 0.0862 0.45022 0.12922 0.0
H828 H 0.93071 0.54592 0.87237 0.0
H829 H 0.96715 0.60267 0.94506 0.0
H830 H 0.08598 0.49143 0.93339 0.0
H831 H 1.00563 0.44127 0.88554 0.0
H832 H 1.00869 0.54477 0.1301 0.0
H833 H 0.95947 0.54072 0.04532 0.0
Cd834 Cd 0.50355 0.48967 0.04486 0.0
Cd835 Cd 0.54281 0.53567 0.97424 0.0
C836 C 0.55193 0.47261 0.04165 0.0
N837 N 0.5256 0.46692 0.02795 0.0
C838 C 0.52558 0.43152 -0.00035 0.0
C839 C 0.55292 0.43734 0.0133 0.0
C840 C 0.5662 0.45832 0.03432 0.0
C841 C 0.51216 0.44675 0.0074 0.0
H842 H 0.5616 0.48748 0.0591 0.0
H843 H 0.49083 0.44192 0.99771 0.0
C844 C 0.48147 0.49045 0.96635 0.0
C845 C 0.49626 0.55603 0.94848 0.0
C846 C 0.47483 0.56444 0.94621 0.0
C847 C 0.47092 0.57407 0.97054 0.0
C848 C 0.48948 0.57639 0.9965 0.0
C849 C 0.51021 0.56671 0.99802 0.0
N850 N 0.51261 0.55613 0.97425 0.0
H851 H 0.49916 0.54828 0.92979 0.0
H852 H 0.52402 0.56728 0.01812 0.0
C853 C 0.54292 0.47987 0.95086 0.0
N854 N 0.55922 0.50351 0.96588 0.0
C855 C 0.59881 0.49393 0.96738 0.0
C856 C 0.58258 0.46966 0.95126 0.0
C857 C 0.55424 0.46258 0.94326 0.0
C858 C 0.58663 0.51074 0.97426 0.0
H859 H 0.52122 0.4746 0.94397 0.0
H860 H 0.59908 0.52995 0.98564 0.0
C861 C 0.55733 0.53635 0.04732 0.0
C862 C 0.48364 0.45142 0.08379 0.0
N863 N 0.48032 0.51742 0.04401 0.0
C864 C 0.49018 0.53643 0.06559 0.0
C865 C 0.47626 0.55292 0.0681 0.0
C866 C 0.45201 0.54988 0.04805 0.0
C867 C 0.44252 0.53026 0.02567 0.0
C868 C 0.45701 0.51395 0.02418 0.0
C869 C 0.57314 0.57866 0.94649 0.0
O870 O 0.48907 0.49024 0.99308 0.0
O871 O 0.49841 0.50398 0.95206 0.0
O872 O 0.54336 0.52908 0.02244 0.0
O873 O 0.54656 0.5253 0.0673 0.0
O874 O 0.46967 0.44948 0.0585 0.0
O875 O 0.50603 0.4715 0.09063 0.0
O876 O 0.58234 0.57723 0.97286 0.0
O877 O 0.55146 0.55971 0.93398 0.0
H878 H 0.50845 0.53818 0.08135 0.0
H879 H 0.44938 0.49823 0.00758 0.0
H880 H 0.51468 0.41511 0.98369 0.0
H881 H 0.58697 0.46268 0.0461 0.0
H882 H 0.46134 0.56332 0.92564 0.0
H883 H 0.48744 0.58476 0.01536 0.0
H884 H 0.6207 0.50001 0.97445 0.0
H885 H 0.54095 0.44431 0.93048 0.0
H886 H 0.48394 0.56717 0.08619 0.0
H887 H 0.42402 0.52735 0.00968 0.0
Cd888 Cd 0.01286 0.47399 0.54678 0.0
Cd889 Cd 0.01302 0.52635 0.44828 0.0
C890 C 0.04872 0.44952 0.59619 0.0
N891 N 0.04625 0.45517 0.56834 0.0
C892 C 0.07649 0.43297 0.56435 0.0
C893 C 0.07904 0.4263 0.59296 0.0
C894 C 0.06504 0.43523 0.60891 0.0
C895 C 0.05993 0.44732 0.55245 0.0
H896 H 0.03742 0.45549 0.60844 0.0
H897 H 0.05733 0.45143 0.53023 0.0
C898 C 0.98161 0.46563 0.47212 0.0
C899 C 0.9607 0.53737 0.40708 0.0
C900 C 0.94384 0.55151 0.3955 0.0
C901 C 0.94555 0.5746 0.41012 0.0
C902 C 0.96407 0.58211 0.43679 0.0
C903 C 0.98057 0.56745 0.44754 0.0
N904 N 0.97883 0.54559 0.43262 0.0
H905 H 0.96003 0.52042 0.3951 0.0
H906 H 0.99545 0.57409 0.46749 0.0
C907 C 0.02034 0.48899 0.39945 0.0
N908 N 0.02772 0.49733 0.42727 0.0
C909 C 0.06062 0.47664 0.43665 0.0
C910 C 0.05351 0.46739 0.40811 0.0
C911 C 0.03287 0.47372 0.38943 0.0
C912 C 0.04737 0.49139 0.44576 0.0
H913 H 1.00497 0.49437 0.38501 0.0
H914 H 0.05328 0.49883 0.46762 0.0
C915 C 0.04643 0.53602 0.52385 0.0
C916 C 0.96606 0.43343 0.55828 0.0
N917 N 0.99767 0.50374 0.56612 0.0
C918 C 1.00441 0.51186 0.59399 0.0
C919 C 0.99139 0.52677 0.60367 0.0
C920 C 0.97132 0.53343 0.5845 0.0
C921 C 0.96569 0.52554 0.55574 0.0
C922 C 0.97899 0.51059 0.54706 0.0
C923 C 0.05493 0.56755 0.42944 0.0
O924 O 0.9987 0.47705 0.4949 0.0
O925 O 0.98091 0.47906 0.44985 0.0
O926 O 0.02999 0.5263 0.50018 0.0
O927 O 0.04541 0.521 0.545 0.0
O928 O 0.97241 0.43194 0.53498 0.0
O929 O 0.98192 0.45282 0.57592 0.0
O930 O 0.05909 0.55996 0.45463 0.0
O931 O 0.03124 0.55626 0.4135 0.0
H932 H 0.01911 0.50591 0.60884 0.0
H933 H 0.97393 0.50379 0.52507 0.0
H934 H 0.08638 0.42634 0.55088 0.0
H935 H 0.06646 0.4311 0.63107 0.0
H936 H 0.93037 0.54494 0.37474 0.0
H937 H 0.9661 0.59938 0.44928 0.0
H938 H 0.07684 0.47324 0.4519 0.0
H939 H 0.02635 0.46696 0.36731 0.0
H940 H 0.99631 0.53213 0.62607 0.0
H941 H 0.95091 0.53062 0.53999 0.0
Cd942 Cd 0.51557 0.98171 0.55141 0.0
Cd943 Cd 0.51081 0.02524 0.44866 0.0
C944 C 0.56163 0.96466 0.5949 0.0
N945 N 0.54959 0.96217 0.56672 0.0
C946 C 0.57078 0.93154 0.55947 0.0
C947 C 0.58273 0.93298 0.58868 0.0
C948 C 0.57819 0.95025 0.6063 0.0
C949 C 0.55412 0.94616 0.54895 0.0
H950 H 0.55763 0.9772 0.60882 0.0
H951 H 0.54403 0.94395 0.52672 0.0
C952 C 0.47591 0.96817 0.47787 0.0
C953 C 0.45323 0.0347 0.41754 0.0
C954 C 0.43686 0.04959 0.40684 0.0
C955 C 0.44657 0.0776 0.41355 0.0
C956 C 0.47266 0.08951 0.43173 0.0
C957 C 0.48828 0.07392 0.44192 0.0
N958 N 0.47856 0.04703 0.43468 0.0
H959 H 0.44599 0.01347 0.4114 0.0
H960 H 0.50861 0.08352 0.45512 0.0
C961 C 0.51996 0.98923 0.40066 0.0
N962 N 0.52285 0.99308 0.42892 0.0
C963 C 0.54893 0.96507 0.43939 0.0
C964 C 0.54729 0.96147 0.41041 0.0
C965 C 0.53206 0.97343 0.39091 0.0
C966 C 0.53672 0.98111 0.44817 0.0
H967 H 0.50924 0.99929 0.38569 0.0
H968 H 0.53907 0.98479 0.47053 0.0
C969 C 0.54825 0.03872 0.52166 0.0
C970 C 0.47631 0.94467 0.57777 0.0
N971 N 0.50435 0.01448 0.57089 0.0
C972 C 0.50934 0.01996 0.59921 0.0
C973 C 0.498 0.0363 0.60931 0.0
C974 C 0.48149 0.04716 0.5901 0.0
C975 C 0.47742 0.04167 0.56099 0.0
C976 C 0.48897 0.02518 0.55187 0.0
C977 C 0.55095 0.06413 0.42505 0.0
O978 O 0.49473 0.97909 0.49976 0.0
O979 O 0.47575 0.98073 0.45493 0.0
O980 O 0.52987 0.02655 0.50002 0.0
O981 O 0.5491 0.02713 0.54513 0.0
O982 O 0.47082 0.94673 0.55104 0.0
O983 O 0.50011 0.95918 0.5916 0.0
O984 O 0.55563 0.06076 0.45158 0.0
O985 O 0.52752 0.04986 0.41012 0.0
H986 H 0.52135 0.01096 0.61401 0.0
H987 H 0.48487 0.02006 0.52952 0.0
H988 H 0.57336 0.9184 0.54495 0.0
H989 H 0.58715 0.95248 0.62884 0.0
H990 H 0.41716 0.03934 0.39265 0.0
H991 H 0.48113 0.11081 0.43803 0.0
H992 H 0.55991 0.95592 0.45529 0.0
H993 H 0.53041 0.97156 0.3684 0.0
H994 H 0.50192 0.04016 0.63192 0.0
H995 H 0.46454 0.04916 0.54535 0.0
H996 H 0.19458 0.2315 0.29751 0.0
H997 H 0.15291 0.20276 0.3109 0.0
H998 H 0.12793 0.1535 0.23376 0.0
H999 H 0.1691 0.18304 0.21943 0.0
H1000 H 0.0913 0.1745 0.28574 0.0
H1001 H 0.12892 0.09801 0.25926 0.0
H1002 H 0.17053 0.09624 0.24869 0.0
H1003 H 0.22026 0.15966 0.31239 0.0
H1004 H 0.17899 0.16138 0.32352 0.0
H1005 H 0.02037 0.06146 0.36132 0.0
H1006 H 0.03811 0.0858 0.32196 0.0
H1007 H 0.11911 0.11719 0.37621 0.0
H1008 H 0.10169 0.09293 0.41547 0.0
H1009 H 0.11854 0.0989 0.324 0.0
H1010 H 0.08222 0.15529 0.36479 0.0
H1011 H 0.04523 0.16351 0.37917 0.0
H1012 H 0.9977 0.14703 0.2934 0.0
H1013 H 0.03432 0.13836 0.27861 0.0
C1014 C 0.17995 0.21502 0.28296 0.0
C1015 C 0.18573 0.20879 0.25798 0.0
C1016 C 0.15589 0.1989 0.29044 0.0
C1017 C 0.13753 0.17603 0.27336 0.0
C1018 C 0.14189 0.1712 0.24712 0.0
C1019 C 0.16573 0.18775 0.23928 0.0
C1020 C 0.11887 0.1542 0.28664 0.0
C1021 C 0.09657 0.15744 0.2934 0.0
C1022 C 0.12634 0.13246 0.29715 0.0
C1023 C 0.15101 0.12974 0.29221 0.0
C1024 C 0.14878 0.11126 0.27121 0.0
C1025 C 0.17229 0.11035 0.26506 0.0
C1026 C 0.19805 0.12786 0.2798 0.0
C1027 C 0.20036 0.14609 0.30096 0.0
C1028 C 0.17694 0.14696 0.30728 0.0
C1029 C 0.04197 0.07353 0.36481 0.0
C1030 C 0.05967 0.0754 0.39147 0.0
C1031 C 0.05203 0.08733 0.34232 0.0
C1032 C 0.07988 0.10315 0.34625 0.0
C1033 C 0.09757 0.10483 0.37276 0.0
C1034 C 0.08756 0.09113 0.3952 0.0
C1035 C 0.09083 0.1191 0.32335 0.0
C1036 C 0.11205 0.11493 0.31508 0.0
C1037 C 0.08254 0.14018 0.31191 0.0
C1038 C 0.06083 0.14592 0.32066 0.0
C1039 C 0.0638 0.15329 0.34904 0.0
C1040 C 0.04293 0.15803 0.35726 0.0
C1041 C 0.0191 0.15573 0.33722 0.0
C1042 C 0.01615 0.14877 0.3089 0.0
C1043 C 0.03695 0.14395 0.30059 0.0
H1044 H 1.00294 0.15939 0.34363 0.0
H1045 H 0.21621 0.1273 0.27483 0.0
H1046 H 0.85593 0.16873 0.32577 0.0
H1047 H 0.89477 0.16886 0.36203 0.0
H1048 H 0.85191 0.16774 0.42668 0.0
H1049 H 0.81357 0.17045 0.39048 0.0
H1050 H 0.90548 0.19855 0.44421 0.0
H1051 H 0.8523 0.10925 0.40322 0.0
H1052 H 0.82691 0.07418 0.36457 0.0
H1053 H 0.89994 0.09116 0.33545 0.0
H1054 H 0.92574 0.12653 0.37376 0.0
H1055 H 0.97958 0.11479 0.52416 0.0
H1056 H 0.94722 0.13627 0.50537 0.0
H1057 H 0.99363 0.17477 0.44417 0.0
H1058 H 0.02516 0.15246 0.4616 0.0
H1059 H 0.93619 0.12481 0.42979 0.0
H1060 H 0.98899 0.21482 0.47356 0.0
H1061 H 1.01235 0.24862 0.51355 0.0
H1062 H 0.93735 0.22778 0.53984 0.0
H1063 H 0.91366 0.1933 0.50041 0.0
C1064 C 0.85488 0.16943 0.34767 0.0
C1065 C 0.83144 0.16951 0.35511 0.0
C1066 C 0.87705 0.16909 0.36839 0.0
C1067 C 0.87588 0.16769 0.3969 0.0
C1068 C 0.853 0.16858 0.40467 0.0
C1069 C 0.831 0.16974 0.38393 0.0
C1070 C 0.89798 0.1636 0.41809 0.0
C1071 C 0.91201 0.18224 0.44135 0.0
C1072 C 0.90632 0.14222 0.41423 0.0
C1073 C 0.89094 0.12064 0.39133 0.0
C1074 C 0.86293 0.10559 0.38851 0.0
C1075 C 0.84847 0.08564 0.36667 0.0
C1076 C 0.8618 0.08046 0.34756 0.0
C1077 C 0.88964 0.09518 0.35029 0.0
C1078 C 0.90422 0.11514 0.37211 0.0
C1079 C 0.9836 0.12881 0.50755 0.0
C1080 C 1.00448 0.13132 0.49384 0.0
C1081 C 0.96521 0.14121 0.49702 0.0
C1082 C 0.96822 0.15703 0.4735 0.0
C1083 C 0.99133 0.16284 0.46263 0.0
C1084 C 1.00945 0.15012 0.47278 0.0
C1085 C 0.9442 0.16028 0.45533 0.0
C1086 C 0.92956 0.14108 0.43274 0.0
C1087 C 0.93518 0.18082 0.46019 0.0
C1088 C 0.94962 0.20116 0.48423 0.0
C1089 C 0.97755 0.2171 0.4881 0.0
C1090 C 0.99083 0.2365 0.5106 0.0
C1091 C 0.97635 0.24037 0.5292 0.0
C1092 C 0.94853 0.22483 0.52535 0.0
C1093 C 0.93518 0.20531 0.50297 0.0
H1094 H 0.98668 0.25536 0.54664 0.0
H1095 H 0.85056 0.06503 0.33066 0.0
H1096 H 0.83426 0.84316 0.26267 0.0
H1097 H 0.85492 0.88444 0.29343 0.0
H1098 H 0.78136 0.86255 0.32367 0.0
H1099 H 0.76021 0.82267 0.29153 0.0
H1100 H 0.81014 0.91523 0.33379 0.0
H1101 H 0.82623 0.8318 0.35017 0.0
H1102 H 0.83985 0.79562 0.33722 0.0
H1103 H 0.91896 0.85407 0.33469 0.0
H1104 H 0.90577 0.89065 0.3474 0.0
H1105 H 0.92897 0.94378 0.47307 0.0
H1106 H 0.88416 0.91549 0.44429 0.0
H1107 H 0.89278 0.97456 0.38046 0.0
H1108 H 0.93747 0.00255 0.40874 0.0
H1109 H 0.88872 0.89833 0.39413 0.0
H1110 H 0.82977 0.96662 0.34108 0.0
H1111 H 0.81491 1.00075 0.35674 0.0
H1112 H 0.81863 0.96877 0.43932 0.0
H1113 H 0.83318 0.93428 0.42411 0.0
C1114 C 0.82216 0.84788 0.27486 0.0
C1115 C 0.79637 0.82916 0.27626 0.0
C1116 C 0.83389 0.87142 0.2924 0.0
C1117 C 0.82004 0.87563 0.31177 0.0
C1118 C 0.79263 0.85925 0.30945 0.0
C1119 C 0.7808 0.83614 0.29157 0.0
C1120 C 0.83546 0.8919 0.33832 0.0
C1121 C 0.82748 0.91182 0.34695 0.0
C1122 C 0.85684 0.88604 0.35633 0.0
C1123 C 0.86497 0.86393 0.34954 0.0
C1124 C 0.84651 0.83691 0.34682 0.0
C1125 C 0.85413 0.81635 0.33947 0.0
C1126 C 0.88018 0.82253 0.33502 0.0
C1127 C 0.89876 0.8493 0.33808 0.0
C1128 C 0.89126 0.86995 0.3454 0.0
C1129 C 0.92086 0.95101 0.45327 0.0
C1130 C 0.93682 0.97476 0.44251 0.0
C1131 C 0.89524 0.93503 0.43707 0.0
C1132 C 0.88535 0.94301 0.41034 0.0
C1133 C 0.9 0.96822 0.40118 0.0
C1134 C 0.92571 0.98394 0.41709 0.0
C1135 C 0.86452 0.92284 0.38895 0.0
C1136 C 0.87125 0.90176 0.38125 0.0
C1137 C 0.84177 0.92734 0.37235 0.0
C1138 C 0.83273 0.94794 0.38145 0.0
C1139 C 0.82726 0.96675 0.36252 0.0
C1140 C 0.81893 0.9862 0.37135 0.0
C1141 C 0.81586 0.98696 0.39902 0.0
C1142 C 0.82109 0.96824 0.41792 0.0
C1143 C 0.82945 0.94878 0.40922 0.0
H1144 H 0.80942 0.00203 0.4058 0.0
H1145 H 0.886 0.80658 0.32928 0.0
H1146 H 0.13987 0.8429 0.28614 0.0
H1147 H 0.13265 0.87253 0.31785 0.0
H1148 H 0.18021 0.84782 0.38942 0.0
H1149 H 0.18783 0.8183 0.35755 0.0
H1150 H 0.12621 0.84519 0.39405 0.0
H1151 H 0.20963 0.90682 0.37514 0.0
H1152 H 0.24167 0.9301 0.34538 0.0
H1153 H 0.18524 0.96389 0.2992 0.0
H1154 H 0.15269 0.94053 0.32847 0.0
H1155 H 0.11467 0.95161 0.47379 0.0
H1156 H 0.13564 0.92405 0.45675 0.0
H1157 H 0.09655 0.93188 0.3708 0.0
H1158 H 0.0745 0.95824 0.38781 0.0
H1159 H 0.1548 0.94394 0.38267 0.0
H1160 H 0.07005 0.87993 0.3994 0.0
H1161 H 0.03701 0.85523 0.42748 0.0
H1162 H 0.09414 0.82353 0.47616 0.0
H1163 H 0.12768 0.84826 0.44852 0.0
C1164 C 0.1488 0.84388 0.30863 0.0
C1165 C 0.16424 0.82838 0.31958 0.0
C1166 C 0.14481 0.86081 0.32663 0.0
C1167 C 0.15602 0.86228 0.35582 0.0
C1168 C 0.17151 0.84686 0.36689 0.0
C1169 C 0.17588 0.83018 0.34876 0.0
C1170 C 0.15054 0.87945 0.37452 0.0
C1171 C 0.133 0.86691 0.39231 0.0
C1172 C 0.15917 0.90759 0.37158 0.0
C1173 C 0.17867 0.92179 0.35392 0.0
C1174 C 0.20397 0.91906 0.3585 0.0
C1175 C 0.22224 0.93231 0.34175 0.0
C1176 C 0.21548 0.94844 0.32039 0.0
C1177 C 0.19045 0.95139 0.31577 0.0
C1178 C 0.1721 0.93819 0.33247 0.0
C1179 C 0.11022 0.94708 0.45141 0.0
C1180 C 0.09222 0.95628 0.4323 0.0
C1181 C 0.12238 0.93154 0.44168 0.0
C1182 C 0.11742 0.92591 0.41261 0.0
C1183 C 0.1004 0.93598 0.39338 0.0
C1184 C 0.0877 0.95083 0.40314 0.0
C1185 C 0.12991 0.90962 0.40174 0.0
C1186 C 0.14868 0.92237 0.38525 0.0
C1187 C 0.12222 0.88162 0.40583 0.0
C1188 C 0.1019 0.86686 0.42253 0.0
C1189 C 0.07589 0.86823 0.41649 0.0
C1190 C 0.05691 0.85397 0.43215 0.0
C1191 C 0.06349 0.83788 0.45365 0.0
C1192 C 0.08907 0.83604 0.45954 0.0
C1193 C 0.1081 0.85024 0.44392 0.0
H1194 H 0.04876 0.82684 0.46574 0.0
H1195 H 0.22966 0.95867 0.30744 0.0
H1196 H 0.17409 0.87403 0.68629 0.0
H1197 H 0.16295 0.89459 0.64171 0.0
H1198 H 0.15588 0.82449 0.59483 0.0
H1199 H 0.16605 0.80336 0.63906 0.0
H1200 H 0.18016 0.88122 0.57069 0.0
H1201 H 0.1016 0.8171 0.60355 0.0
H1202 H 0.07707 0.79922 0.64124 0.0
H1203 H 0.07565 0.87714 0.65623 0.0
H1204 H 0.10051 0.89556 0.61887 0.0
H1205 H 0.04573 0.89757 0.48783 0.0
H1206 H 0.07691 0.87397 0.49991 0.0
H1207 H 0.1396 0.94606 0.54461 0.0
H1208 H 0.109 0.97001 0.53204 0.0
H1209 H 0.08716 0.88038 0.56172 0.0
H1210 H 0.18239 0.94446 0.54312 0.0
H1211 H 0.20644 0.9641 0.50545 0.0
H1212 H 0.17346 0.88623 0.46153 0.0
H1213 H 0.14877 0.86632 0.49885 0.0
C1214 C 0.17036 0.86312 0.66649 0.0
C1215 C 0.17048 0.837 0.6661 0.0
C1216 C 0.16457 0.87505 0.64117 0.0
C1217 C 0.15887 0.86097 0.61529 0.0
C1218 C 0.16072 0.83569 0.61475 0.0
C1219 C 0.16629 0.82364 0.64002 0.0
C1220 C 0.14552 0.87005 0.58953 0.0
C1221 C 0.15973 0.88082 0.56843 0.0
C1222 C 0.11878 0.869 0.58669 0.0
C1223 C 0.10306 0.85773 0.60855 0.0
C1224 C 0.09617 0.83044 0.61499 0.0
C1225 C 0.08221 0.82021 0.63628 0.0
C1226 C 0.07488 0.83705 0.65117 0.0
C1227 C 0.08138 0.86413 0.64471 0.0
C1228 C 0.09536 0.87446 0.62344 0.0
C1229 C 0.06674 0.9089 0.49851 0.0
C1230 C 0.07484 0.93524 0.50991 0.0
C1231 C 0.08463 0.89545 0.50506 0.0
C1232 C 0.11051 0.9083 0.52295 0.0
C1233 C 0.11996 0.93593 0.53028 0.0
C1234 C 0.10219 0.94941 0.5237 0.0
C1235 C 0.12184 0.89206 0.54286 0.0
C1236 C 0.10725 0.88002 0.56331 0.0
C1237 C 0.14812 0.8922 0.54511 0.0
C1238 C 0.16348 0.90404 0.52337 0.0
C1239 C 0.1801 0.93162 0.52529 0.0
C1240 C 0.19384 0.94278 0.50405 0.0
C1241 C 0.19139 0.92642 0.48105 0.0
C1242 C 0.17524 0.89887 0.4793 0.0
C1243 C 0.16128 0.88768 0.50038 0.0
H1244 H 0.20201 0.93508 0.46461 0.0
H1245 H 0.06408 0.82911 0.66765 0.0
H1246 H 0.25178 0.16325 0.71631 0.0
H1247 H 0.22723 0.1252 0.6813 0.0
H1248 H 0.15176 0.13465 0.68082 0.0
H1249 H 0.17615 0.17156 0.71694 0.0
H1250 H 0.14164 0.08435 0.6688 0.0
H1251 H 0.19784 0.17232 0.63693 0.0
H1252 H 0.24231 0.20914 0.63794 0.0
H1253 H 0.27375 0.15201 0.61646 0.0
H1254 H 0.22944 0.11483 0.61516 0.0
H1255 H 0.06137 0.08141 0.54353 0.0
H1256 H 0.10646 0.1076 0.57273 0.0
H1257 H 0.13185 0.04141 0.56575 0.0
H1258 H 0.08693 0.01545 0.53597 0.0
H1259 H 0.17435 0.11157 0.58074 0.0
H1260 H 0.11467 0.02242 0.61551 0.0
H1261 H 0.06828 0.98905 0.61412 0.0
H1262 H 0.04241 0.05291 0.62861 0.0
H1263 H 0.08875 0.08657 0.63032 0.0
C1264 C 0.22976 0.15627 0.7095 0.0
C1265 C 0.21563 0.17006 0.71889 0.0
C1266 C 0.21584 0.13478 0.68943 0.0
C1267 C 0.1879 0.12778 0.67781 0.0
C1268 C 0.1734 0.13987 0.68939 0.0
C1269 C 0.18724 0.16089 0.71003 0.0
C1270 C 0.17433 0.11111 0.65111 0.0
C1271 C 0.14915 0.08995 0.64973 0.0
C1272 C 0.18414 0.11836 0.62612 0.0
C1273 C 0.21044 0.14082 0.62611 0.0
C1274 C 0.21424 0.16764 0.63239 0.0
C1275 C 0.2394 0.18855 0.63306 0.0
C1276 C 0.26085 0.18291 0.62741 0.0
C1277 C 0.25713 0.15634 0.62086 0.0
C1278 C 0.23198 0.13535 0.62007 0.0
C1279 C 0.07726 0.07336 0.54643 0.0
C1280 C 0.07113 0.04678 0.5373 0.0
C1281 C 0.10298 0.08827 0.5631 0.0
C1282 C 0.12226 0.07627 0.57135 0.0
C1283 C 0.11731 0.05105 0.55918 0.0
C1284 C 0.09166 0.03625 0.54225 0.0
C1285 C 0.14177 0.08541 0.59877 0.0
C1286 C 0.1677 0.10519 0.60013 0.0
C1287 C 0.13273 0.07711 0.62383 0.0
C1288 C 0.10505 0.05689 0.62312 0.0
C1289 C 0.09906 0.02927 0.61845 0.0
C1290 C 0.07281 0.01034 0.61762 0.0
C1291 C 0.05243 0.01886 0.62135 0.0
C1292 C 0.05824 0.04633 0.62586 0.0
C1293 C 0.0845 0.06532 0.62687 0.0
H1294 H 0.03215 0.00419 0.62075 0.0
H1295 H 0.2803 0.19914 0.628 0.0
H1296 H 0.82086 0.1638 0.66094 0.0
H1297 H 0.83541 0.15009 0.62194 0.0
H1298 H 0.91359 0.16209 0.67772 0.0
H1299 H 0.89948 0.17645 0.71645 0.0
H1300 H 0.91821 0.1802 0.62515 0.0
H1301 H 0.86165 0.10056 0.66678 0.0
H1302 H 0.81892 0.07088 0.67917 0.0
H1303 H 0.77649 0.06202 0.5917 0.0
H1304 H 0.81891 0.09197 0.57886 0.0
H1305 H 0.97737 0.09623 0.58949 0.0
H1306 H 0.95682 0.12247 0.60793 0.0
H1307 H 0.88184 0.0842 0.54486 0.0
H1308 H 0.90064 0.05413 0.52964 0.0
H1309 H 0.86921 0.08454 0.5896 0.0
H1310 H 0.93171 0.15465 0.54787 0.0
H1311 H 0.97654 0.18114 0.53801 0.0
H1312 H 1.00933 0.20828 0.62535 0.0
H1313 H 0.96522 0.18111 0.63623 0.0
C1314 C 0.84129 0.1639 0.66469 0.0
C1315 C 0.859 0.17081 0.69174 0.0
C1316 C 0.8495 0.15602 0.64248 0.0
C1317 C 0.87544 0.15491 0.64712 0.0
C1318 C 0.89348 0.16285 0.67378 0.0
C1319 C 0.88531 0.17071 0.69594 0.0
C1320 C 0.88344 0.14361 0.62511 0.0
C1321 C 0.90757 0.15934 0.6171 0.0
C1322 C 0.86884 0.1167 0.61406 0.0
C1323 C 0.84334 0.09885 0.62192 0.0
C1324 C 0.84315 0.09251 0.65023 0.0
C1325 C 0.819 0.07559 0.65733 0.0
C1326 C 0.79498 0.06467 0.63625 0.0
C1327 C 0.79508 0.07058 0.60802 0.0
C1328 C 0.81916 0.08753 0.60083 0.0
C1329 C 0.95632 0.09283 0.57976 0.0
C1330 C 0.94058 0.07232 0.5585 0.0
C1331 C 0.9448 0.10866 0.5898 0.0
C1332 C 0.91791 0.10593 0.57737 0.0
C1333 C 0.90269 0.08681 0.55477 0.0
C1334 C 0.91371 0.06983 0.54575 0.0
C1335 C 0.90487 0.12077 0.59017 0.0
C1336 C 0.87963 0.10573 0.5965 0.0
C1337 C 0.91859 0.14836 0.59967 0.0
C1338 C 0.94494 0.16575 0.59287 0.0
C1339 C 0.94846 0.16613 0.56505 0.0
C1340 C 0.97383 0.18112 0.55931 0.0
C1341 C 0.99569 0.19638 0.58097 0.0
C1342 C 0.99234 0.19653 0.60855 0.0
C1343 C 0.96716 0.18126 0.61455 0.0
H1344 H 0.01522 0.2081 0.57635 0.0
H1345 H 0.77632 0.05155 0.64178 0.0
H1346 H 0.8583 0.81939 0.77031 0.0
H1347 H 0.89947 0.84761 0.7551 0.0
H1348 H 0.87218 0.79709 0.6785 0.0
H1349 H 0.83074 0.76957 0.6929 0.0
H1350 H 0.93241 0.82438 0.69901 0.0
H1351 H 0.84641 0.84005 0.67007 0.0
H1352 H 0.80701 0.84316 0.68434 0.0
H1353 H 0.86096 0.90796 0.74491 0.0
H1354 H 0.90074 0.90483 0.73124 0.0
H1355 H 0.93686 0.89397 0.57084 0.0
H1356 H 0.92319 0.8657 0.60994 0.0
H1357 H 0.96671 0.93485 0.66887 0.0
H1358 H 0.98092 0.96302 0.63025 0.0
H1359 H 0.90838 0.90347 0.66776 0.0
H1360 H 0.99402 0.89479 0.67735 0.0
H1361 H 0.02954 0.88632 0.66025 0.0
H1362 H 0.9742 0.80509 0.63337 0.0
H1363 H 0.93816 0.81322 0.64982 0.0
C1364 C 0.86123 0.8141 0.75044 0.0
C1365 C 0.84063 0.79323 0.73207 0.0
C1366 C 0.88503 0.82988 0.74209 0.0
C1367 C 0.88859 0.82449 0.71558 0.0
C1368 C 0.86976 0.80149 0.69906 0.0
C1369 C 0.84581 0.7861 0.70711 0.0
C1370 C 0.90668 0.84602 0.70148 0.0
C1371 C 0.92761 0.84194 0.69249 0.0
C1372 C 0.90012 0.86873 0.69297 0.0
C1373 C 0.87642 0.87222 0.69969 0.0
C1374 C 0.8498 0.85504 0.68633 0.0
C1375 C 0.82743 0.85672 0.69438 0.0
C1376 C 0.83146 0.87576 0.71552 0.0
C1377 C 0.85788 0.89325 0.72852 0.0
C1378 C 0.88035 0.89155 0.72063 0.0
C1379 C 0.94352 0.90305 0.59215 0.0
C1380 C 0.95978 0.93061 0.59757 0.0
C1381 C 0.93595 0.88692 0.6144 0.0
C1382 C 0.94425 0.89832 0.64214 0.0
C1383 C 0.96038 0.9258 0.64757 0.0
C1384 C 0.96835 0.94179 0.62549 0.0
C1385 C 0.93419 0.8819 0.66508 0.0
C1386 C 0.91429 0.88672 0.67529 0.0
C1387 C 0.9416 0.85979 0.67431 0.0
C1388 C 0.9633 0.85469 0.66464 0.0
C1389 C 0.98933 0.87519 0.66758 0.0
C1390 C 1.00958 0.87044 0.65804 0.0
C1391 C 1.0041 0.8452 0.64567 0.0
C1392 C 0.9784 0.82463 0.64293 0.0
C1393 C 0.95806 0.8293 0.65239 0.0
H1394 H 0.01974 0.84156 0.6382 0.0
H1395 H 0.81412 0.87694 0.72184 0.0
H1396 H 0.33635 0.14944 0.19015 0.0
H1397 H 0.3692 0.12983 0.18483 0.0
H1398 H 0.35109 0.13969 0.09488 0.0
H1399 H 0.31889 0.15978 0.10014 0.0
H1400 H 0.3478 0.08853 0.10694 0.0
H1401 H 0.41085 0.17993 0.13764 0.0
H1402 H 0.43057 0.21981 0.17104 0.0
H1403 H 0.45602 0.17302 0.23711 0.0
H1404 H 0.43603 0.13271 0.20419 0.0
H1405 H 0.4482 0.06527 0.05747 0.0
H1406 H 0.42143 0.08773 0.07187 0.0
H1407 H 0.44699 0.07048 0.15874 0.0
H1408 H 0.47347 0.04715 0.14441 0.0
H1409 H 0.44651 0.12284 0.1533 0.0
H1410 H 0.38598 0.03246 0.12423 0.0
H1411 H 0.36386 0.99081 0.09334 0.0
H1412 H 0.33186 0.03352 0.02718 0.0
H1413 H 0.35411 0.07556 0.05756 0.0
C1414 C 0.33988 0.14805 0.16938 0.0
C1415 C 0.32485 0.15608 0.14557 0.0
C1416 C 0.35853 0.13665 0.16632 0.0
C1417 C 0.36251 0.13313 0.1394 0.0
C1418 C 0.34818 0.14194 0.11581 0.0
C1419 C 0.32973 0.1534 0.11887 0.0
C1420 C 0.3807 0.11937 0.13527 0.0
C1421 C 0.36944 0.09623 0.11686 0.0
C1422 C 0.40873 0.12877 0.14904 0.0
C1423 C 0.42175 0.15325 0.16851 0.0
C1424 C 0.42057 0.17812 0.15932 0.0
C1425 C 0.43179 0.2008 0.17816 0.0
C1426 C 0.4445 0.19893 0.2062 0.0
C1427 C 0.44615 0.17442 0.21539 0.0
C1428 C 0.43491 0.15166 0.19664 0.0
C1429 C 0.44808 0.06597 0.07965 0.0
C1430 C 0.46276 0.05388 0.09966 0.0
C1431 C 0.43285 0.07905 0.08788 0.0
C1432 C 0.43191 0.08054 0.11634 0.0
C1433 C 0.4474 0.06957 0.13664 0.0
C1434 C 0.46259 0.05628 0.12838 0.0
C1435 C 0.41368 0.09247 0.12433 0.0
C1436 C 0.42486 0.11512 0.1435 0.0
C1437 C 0.38542 0.08247 0.11151 0.0
C1438 C 0.37193 0.05724 0.09311 0.0
C1439 C 0.37441 0.03304 0.10301 0.0
C1440 C 0.36181 0.00935 0.08561 0.0
C1441 C 0.34651 0.00954 0.05829 0.0
C1442 C 0.34374 0.03341 0.04835 0.0
C1443 C 0.35631 0.05718 0.06566 0.0
H1444 H 0.33676 0.99117 0.04486 0.0
H1445 H 0.45308 0.21648 0.22079 0.0
H1446 H 0.79383 0.28044 0.18712 0.0
H1447 H 0.82376 0.30627 0.15793 0.0
H1448 H 0.85824 0.37278 0.22081 0.0
H1449 H 0.83242 0.34409 0.25264 0.0
H1450 H 0.83066 0.343 0.13028 0.0
H1451 H 0.91331 0.42003 0.21308 0.0
H1452 H 0.93599 0.42505 0.26395 0.0
H1453 H 0.92195 0.34052 0.26415 0.0
H1454 H 0.89948 0.33524 0.21312 0.0
H1455 H 0.92434 0.43826 0.05849 0.0
H1456 H 0.89023 0.4138 0.08524 0.0
H1457 H 0.94666 0.38135 0.1357 0.0
H1458 H 0.98126 0.40745 0.11043 0.0
H1459 H 0.92801 0.39945 0.1688 0.0
H1460 H 0.88544 0.34308 0.08288 0.0
H1461 H 0.86589 0.33348 0.03153 0.0
H1462 H 0.8055 0.36538 0.03654 0.0
H1463 H 0.82492 0.37552 0.08786 0.0
C1464 C 0.809 0.29981 0.19553 0.0
C1465 C 0.81225 0.30915 0.22317 0.0
C1466 C 0.82567 0.31523 0.17829 0.0
C1467 C 0.84452 0.34156 0.18721 0.0
C1468 C 0.84567 0.35201 0.21384 0.0
C1469 C 0.83047 0.33567 0.23198 0.0
C1470 C 0.86264 0.35751 0.1685 0.0
C1471 C 0.85203 0.35499 0.13891 0.0
C1472 C 0.89056 0.37395 0.17917 0.0
C1473 C 0.90427 0.37707 0.20961 0.0
C1474 C 0.91509 0.40254 0.22404 0.0
C1475 C 0.9279 0.40545 0.25284 0.0
C1476 C 0.93023 0.38307 0.26732 0.0
C1477 C 0.91993 0.35778 0.25296 0.0
C1478 C 0.90713 0.3548 0.22416 0.0
C1479 C 0.92912 0.42546 0.07499 0.0
C1480 C 0.95525 0.42464 0.08261 0.0
C1481 C 0.90964 0.41144 0.09022 0.0
C1482 C 0.91579 0.39565 0.11256 0.0
C1483 C 0.94148 0.39364 0.11884 0.0
C1484 C 0.96118 0.40835 0.10431 0.0
C1485 C 0.89655 0.38276 0.13091 0.0
C1486 C 0.90676 0.38678 0.16033 0.0
C1487 C 0.86873 0.36664 0.12001 0.0
C1488 C 0.85684 0.36034 0.08918 0.0
C1489 C 0.86811 0.34823 0.073 0.0
C1490 C 0.85704 0.34266 0.0439 0.0
C1491 C 0.83453 0.3489 0.03077 0.0
C1492 C 0.82298 0.36061 0.04673 0.0
C1493 C 0.83399 0.36626 0.07583 0.0
H1494 H 0.82602 0.3446 0.00824 0.0
H1495 H 0.94012 0.38534 0.28962 0.0
H1496 H 0.75129 0.80741 0.20647 0.0
H1497 H 0.73165 0.83862 0.18141 0.0
H1498 H 0.6515 0.77536 0.16699 0.0
H1499 H 0.67133 0.74387 0.18979 0.0
H1500 H 0.6514 0.80181 0.12453 0.0
H1501 H 0.68236 0.83046 0.22397 0.0
H1502 H 0.7171 0.84583 0.26894 0.0
H1503 H 0.76282 0.91602 0.23015 0.0
H1504 H 0.72856 0.90086 0.18482 0.0
H1505 H 0.56627 0.87623 0.10368 0.0
H1506 H 0.59244 0.84887 0.12331 0.0
H1507 H 0.66723 0.91676 0.12415 0.0
H1508 H 0.64107 0.94446 0.1043 0.0
H1509 H 0.67348 0.8908 0.17134 0.0
H1510 H 0.64065 0.86111 0.07209 0.0
H1511 H 0.6063 0.8436 0.02725 0.0
H1512 H 0.56242 0.77395 0.06798 0.0
H1513 H 0.59671 0.79087 0.11302 0.0
C1514 C 0.72963 0.79994 0.19716 0.0
C1515 C 0.71295 0.77295 0.19999 0.0
C1516 C 0.71824 0.81803 0.18327 0.0
C1517 C 0.68978 0.80982 0.17283 0.0
C1518 C 0.67342 0.78256 0.17476 0.0
C1519 C 0.68483 0.76444 0.1879 0.0
C1520 C 0.67654 0.82919 0.16036 0.0
C1521 C 0.65613 0.82111 0.1351 0.0
C1522 C 0.68287 0.85486 0.17346 0.0
C1523 C 0.70303 0.86439 0.20093 0.0
C1524 C 0.69986 0.84913 0.22501 0.0
C1525 C 0.71948 0.85779 0.25056 0.0
C1526 C 0.74218 0.88184 0.25238 0.0
C1527 C 0.74525 0.89737 0.22869 0.0
C1528 C 0.72573 0.88876 0.20308 0.0
C1529 C 0.58827 0.88544 0.10759 0.0
C1530 C 0.60132 0.91271 0.10182 0.0
C1531 C 0.60332 0.86962 0.11897 0.0
C1532 C 0.63198 0.88038 0.12478 0.0
C1533 C 0.64518 0.90776 0.11979 0.0
C1534 C 0.6301 0.92368 0.10844 0.0
C1535 C 0.64796 0.86299 0.13596 0.0
C1536 C 0.66886 0.87149 0.16088 0.0
C1537 C 0.64185 0.83745 0.12287 0.0
C1538 C 0.62109 0.82738 0.09593 0.0
C1539 C 0.62358 0.84215 0.0715 0.0
C1540 C 0.60414 0.83232 0.04605 0.0
C1541 C 0.58207 0.80781 0.04481 0.0
C1542 C 0.57949 0.79296 0.06898 0.0
C1543 C 0.59898 0.8026 0.09444 0.0
H1544 H 0.56703 0.80028 0.02507 0.0
H1545 H 0.75737 0.88849 0.27215 0.0
H1546 H 0.18534 0.73138 0.16146 0.0
H1547 H 0.16301 0.70703 0.1152 0.0
H1548 H 0.23724 0.69701 0.11182 0.0
H1549 H 0.25936 0.72074 0.15836 0.0
H1550 H 0.17055 0.70597 0.05828 0.0
H1551 H 0.22267 0.63534 0.09793 0.0
H1552 H 0.24822 0.62451 0.14266 0.0
H1553 H 0.19585 0.63982 0.18787 0.0
H1554 H 0.17033 0.65101 0.14354 0.0
H1555 H 0.103 0.5472 0.01604 0.0
H1556 H 0.14339 0.58934 0.02629 0.0
H1557 H 0.09245 0.63256 0.03473 0.0
H1558 H 0.05221 0.59066 0.02336 0.0
H1559 H 0.1589 0.61064 0.07568 0.0
H1560 H 0.1215 0.69807 0.03497 0.0
H1561 H 0.0975 0.71031 0.99031 0.0
H1562 H 0.12089 0.66054 0.943 0.0
H1563 H 0.14518 0.64801 0.98738 0.0
C1564 C 0.19707 0.72466 0.15045 0.0
C1565 C 0.22381 0.72741 0.16358 0.0
C1566 C 0.18437 0.7109 0.12395 0.0
C1567 C 0.19837 0.69995 0.11022 0.0
C1568 C 0.22598 0.70505 0.12217 0.0
C1569 C 0.23849 0.71836 0.14883 0.0
C1570 C 0.1827 0.67889 0.08701 0.0
C1571 C 0.16798 0.68509 0.06179 0.0
C1572 C 0.18029 0.65186 0.09113 0.0
C1573 C 0.19472 0.64401 0.11757 0.0
C1574 C 0.21659 0.63622 0.11746 0.0
C1575 C 0.23115 0.63019 0.14275 0.0
C1576 C 0.22378 0.63162 0.16817 0.0
C1577 C 0.20172 0.63892 0.16829 0.0
C1578 C 0.18722 0.64512 0.14311 0.0
C1579 C 0.1005 0.56599 0.01896 0.0
C1580 C 0.07479 0.56594 0.01915 0.0
C1581 C 0.1235 0.59003 0.02481 0.0
C1582 C 0.12114 0.61425 0.03149 0.0
C1583 C 0.09496 0.61442 0.02918 0.0
C1584 C 0.07193 0.59042 0.02293 0.0
C1585 C 0.14552 0.63724 0.04689 0.0
C1586 C 0.16197 0.63146 0.07107 0.0
C1587 C 0.14966 0.66457 0.04137 0.0
C1588 C 0.13507 0.672 0.01458 0.0
C1589 C 0.12165 0.6898 0.01506 0.0
C1590 C 0.10791 0.69672 0.98979 0.0
C1591 C 0.10759 0.6861 0.96386 0.0
C1592 C 0.12102 0.66856 0.96313 0.0
C1593 C 0.13469 0.66148 0.98835 0.0
H1594 H 0.09697 0.69152 0.94431 0.0
H1595 H 0.23512 0.62702 0.18774 0.0
H1596 H 0.29125 0.7567 0.85536 0.0
H1597 H 0.32284 0.77774 0.90039 0.0
H1598 H 0.38105 0.82828 0.85432 0.0
H1599 H 0.35074 0.80521 0.81008 0.0
H1600 H 0.40893 0.82009 0.89591 0.0
H1601 H 0.33032 0.84509 0.88616 0.0
H1602 H 0.28463 0.84396 0.88618 0.0
H1603 H 0.28813 0.80777 0.96655 0.0
H1604 H 0.33381 0.80855 0.967 0.0
H1605 H 0.42953 0.95042 0.9573 0.0
H1606 H 0.39843 0.9039 0.94522 0.0
H1607 H 0.46176 0.87618 0.98757 0.0
H1608 H 0.4934 0.92344 -0.00095 0.0
H1609 H 0.37609 0.85766 0.96492 0.0
H1610 H 0.4583 0.82573 0.94472 0.0
H1611 H 0.50629 0.84559 0.94095 0.0
H1612 H 0.49465 0.91685 0.90751 0.0
H1613 H 0.44657 0.89724 0.91082 0.0
C1614 C 0.31101 0.77212 0.85514 0.0
C1615 C 0.31871 0.77949 0.82942 0.0
C1616 C 0.329 0.78433 0.88085 0.0
C1617 C 0.35443 0.80507 0.88114 0.0
C1618 C 0.36189 0.81216 0.85515 0.0
C1619 C 0.34446 0.79917 0.82969 0.0
C1620 C 0.37317 0.82043 0.90784 0.0
C1621 C 0.40148 0.8281 0.91096 0.0
C1622 C 0.36403 0.83045 0.9285 0.0
C1623 C 0.33514 0.82621 0.92623 0.0
C1624 C 0.32102 0.83619 0.90344 0.0
C1625 C 0.2952 0.83575 0.90344 0.0
C1626 C 0.28335 0.82552 0.92614 0.0
C1627 C 0.29728 0.81559 0.9489 0.0
C1628 C 0.32303 0.81583 0.94896 0.0
C1629 C 0.43653 0.93437 0.96483 0.0
C1630 C 0.46374 0.9403 0.97885 0.0
C1631 C 0.41872 0.90772 0.9581 0.0
C1632 C 0.42787 0.88648 0.96504 0.0
C1633 C 0.45437 0.89227 0.98172 0.0
C1634 C 0.47234 0.91917 0.98844 0.0
C1635 C 0.41096 0.85971 0.9502 0.0
C1636 C 0.3832 0.84891 0.95013 0.0
C1637 C 0.42035 0.8485 0.93091 0.0
C1638 C 0.44903 0.86015 0.92834 0.0
C1639 C 0.46602 0.84559 0.93651 0.0
C1640 C 0.49322 0.85681 0.93446 0.0
C1641 C 0.50356 0.88252 0.92411 0.0
C1642 C 0.48667 0.89699 0.9156 0.0
C1643 C 0.45945 0.88582 0.91753 0.0
H1644 H 0.52463 0.89119 0.92262 0.0
H1645 H 0.26343 0.82538 0.92614 0.0
H1646 H 0.12135 0.27911 0.839 0.0
H1647 H 0.10577 0.31036 0.85828 0.0
H1648 H 0.16866 0.37782 0.83268 0.0
H1649 H 0.18475 0.34634 0.81373 0.0
H1650 H 0.15962 0.38942 0.88328 0.0
H1651 H 0.10534 0.35362 0.79058 0.0
H1652 H 0.07754 0.31739 0.75364 0.0
H1653 H 0.01903 0.28323 0.80425 0.0
H1654 H 0.04671 0.31905 0.84171 0.0
H1655 H 0.09376 0.48047 0.88816 0.0
H1656 H 0.11537 0.45275 0.87282 0.0
H1657 H 0.05069 0.38077 0.88864 0.0
H1658 H 0.02868 0.40864 0.90337 0.0
H1659 H 0.06227 0.37307 0.84177 0.0
H1660 H 0.11707 0.40861 0.93504 0.0
H1661 H 0.1453 0.44456 0.97217 0.0
H1662 H 0.20294 0.47935 0.92074 0.0
H1663 H 0.17486 0.44378 0.88313 0.0
C1664 C 0.13215 0.30063 0.83792 0.0
C1665 C 0.154 0.31032 0.82454 0.0
C1666 C 0.12319 0.31847 0.84885 0.0
C1667 C 0.13556 0.3464 0.84623 0.0
C1668 C 0.15866 0.35632 0.8347 0.0
C1669 C 0.16786 0.33837 0.82394 0.0
C1670 C 0.12298 0.36473 0.85369 0.0
C1671 C 0.13845 0.38611 0.87397 0.0
C1672 C 0.09522 0.36018 0.8418 0.0
C1673 C 0.07821 0.33893 0.81904 0.0
C1674 C 0.08661 0.33831 0.79389 0.0
C1675 C 0.07088 0.31785 0.77286 0.0
C1676 C 0.04656 0.298 0.77662 0.0
C1677 C 0.03788 0.29862 0.80138 0.0
C1678 C 0.05357 0.31902 0.82251 0.0
C1679 C 0.08421 0.45876 0.88843 0.0
C1680 C 0.05965 0.4468 0.89719 0.0
C1681 C 0.09664 0.44288 0.87977 0.0
C1682 C 0.08507 0.4146 0.88018 0.0
C1683 C 0.06015 0.40254 0.88827 0.0
C1684 C 0.04752 0.41847 0.89662 0.0
C1685 C 0.09871 0.39759 0.87184 0.0
C1686 C 0.08344 0.37647 0.8512 0.0
C1687 C 0.12665 0.40245 0.88341 0.0
C1688 C 0.14373 0.42365 0.90617 0.0
C1689 C 0.13569 0.42401 0.93158 0.0
C1690 C 0.15167 0.44431 0.95272 0.0
C1691 C 0.17586 0.46426 0.94879 0.0
C1692 C 0.18417 0.4639 0.92374 0.0
C1693 C 0.16825 0.44365 0.90252 0.0
H1694 H 0.18819 0.47997 0.96517 0.0
H1695 H 0.03441 0.28216 0.76032 0.0
H1696 H 0.68309 0.17965 0.74482 0.0
H1697 H 0.65918 0.14936 0.77735 0.0
H1698 H 0.71876 0.19944 0.84848 0.0
H1699 H 0.74391 0.22829 0.81599 0.0
H1700 H 0.69883 0.15066 0.86475 0.0
H1701 H 0.66048 0.21135 0.81572 0.0
H1702 H 0.64345 0.23275 0.77373 0.0
H1703 H 0.57955 0.15646 0.74209 0.0
H1704 H 0.59659 0.13449 0.7836 0.0
H1705 H 0.59786 0.10835 0.9491 0.0
H1706 H 0.63234 0.13708 0.92456 0.0
H1707 H 0.5866 0.0891 0.84692 0.0
H1708 H 0.55202 0.06105 0.87085 0.0
H1709 H 0.60215 0.14188 0.83873 0.0
H1710 H 0.64461 0.08207 0.89044 0.0
H1711 H 0.66203 0.06424 0.93508 0.0
H1712 H 0.71821 0.14432 0.96563 0.0
H1713 H 0.70087 0.16264 0.92128 0.0
C1714 C 0.69145 0.18356 0.76743 0.0
C1715 C 0.71513 0.20617 0.77805 0.0
C1716 C 0.67781 0.16641 0.78598 0.0
C1717 C 0.68662 0.17281 0.81529 0.0
C1718 C 0.71146 0.19426 0.82596 0.0
C1719 C 0.72575 0.21079 0.8074 0.0
C1720 C 0.66808 0.15965 0.83409 0.0
C1721 C 0.67774 0.14889 0.85917 0.0
C1722 C 0.64073 0.15792 0.82722 0.0
C1723 C 0.62992 0.17126 0.80267 0.0
C1724 C 0.64284 0.19914 0.79976 0.0
C1725 C 0.63322 0.21135 0.77602 0.0
C1726 C 0.61045 0.19596 0.75523 0.0
C1727 C 0.59721 0.16834 0.75819 0.0
C1728 C 0.60684 0.156 0.78181 0.0
C1729 C 0.59518 0.10411 0.92676 0.0
C1730 C 0.57222 0.08261 0.91181 0.0
C1731 C 0.61493 0.12039 0.91285 0.0
C1732 C 0.61208 0.11502 0.884 0.0
C1733 C 0.58912 0.09361 0.86917 0.0
C1734 C 0.56935 0.07761 0.88289 0.0
C1735 C 0.63246 0.1317 0.86855 0.0
C1736 C 0.62323 0.1436 0.84427 0.0
C1737 C 0.66022 0.13496 0.87659 0.0
C1738 C 0.67131 0.12373 0.90267 0.0
C1739 C 0.66063 0.09586 0.90671 0.0
C1740 C 0.67048 0.08568 0.93196 0.0
C1741 C 0.69117 0.10314 0.95321 0.0
C1742 C 0.70217 0.13081 0.94917 0.0
C1743 C 0.69237 0.1411 0.92398 0.0
H1744 H 0.69869 0.09524 0.97278 0.0
H1745 H 0.60305 0.20545 0.73685 0.0
H1746 H 0.76145 0.67216 0.79957 0.0
H1747 H 0.79268 0.65211 0.8258 0.0
H1748 H 0.86097 0.72128 0.81157 0.0
H1749 H 0.82943 0.74192 0.7862 0.0
H1750 H 0.82194 0.63411 0.80639 0.0
H1751 H 0.9178 0.72419 0.85055 0.0
H1752 H 0.93401 0.77015 0.87249 0.0
H1753 H 0.86471 0.74617 0.90936 0.0
H1754 H 0.84734 0.70047 0.88642 0.0
H1755 H 0.92967 0.58531 0.85014 0.0
H1756 H 0.90233 0.61134 0.82901 0.0
H1757 H 0.89705 0.63132 0.91187 0.0
H1758 H 0.92407 0.60505 0.93322 0.0
H1759 H 0.90609 0.67483 0.88193 0.0
H1760 H 0.84269 0.58176 0.86383 0.0
H1761 H 0.82587 0.53462 0.84507 0.0
H1762 H 0.82833 0.56197 0.76116 0.0
H1763 H 0.84546 0.60929 0.77949 0.0
C1764 C 0.78318 0.68358 0.80295 0.0
C1765 C 0.7929 0.70879 0.79111 0.0
C1766 C 0.80112 0.67192 0.81771 0.0
C1767 C 0.82945 0.68489 0.8208 0.0
C1768 C 0.83937 0.71083 0.81012 0.0
C1769 C 0.82128 0.72275 0.7956 0.0
C1770 C 0.84778 0.66997 0.83297 0.0
C1771 C 0.84033 0.64316 0.82294 0.0
C1772 C 0.87205 0.68139 0.85438 0.0
C1773 C 0.88123 0.70912 0.86663 0.0
C1774 C 0.90585 0.7289 0.86303 0.0
C1775 C 0.91511 0.75492 0.87544 0.0
C1776 C 0.90014 0.76118 0.89196 0.0
C1777 C 0.87586 0.74146 0.89598 0.0
C1778 C 0.86619 0.71558 0.88309 0.0
C1779 C 0.92245 0.59486 0.86399 0.0
C1780 C 0.92918 0.59267 0.89359 0.0
C1781 C 0.90679 0.60993 0.85177 0.0
C1782 C 0.89718 0.62321 0.86868 0.0
C1783 C 0.90414 0.6214 0.89821 0.0
C1784 C 0.91977 0.60632 0.91046 0.0
C1785 C 0.87989 0.63887 0.85576 0.0
C1786 C 0.88768 0.66583 0.86541 0.0
C1787 C 0.8558 0.62751 0.83406 0.0
C1788 C 0.84564 0.59907 0.82309 0.0
C1789 C 0.83985 0.57773 0.84142 0.0
C1790 C 0.83022 0.55098 0.83086 0.0
C1791 C 0.82611 0.54531 0.80196 0.0
C1792 C 0.83156 0.56639 0.78355 0.0
C1793 C 0.84121 0.59317 0.79401 0.0
H1794 H 0.81865 0.52459 0.79383 0.0
H1795 H 0.90747 0.78125 0.90183 0.0
H1796 H 0.25891 0.31696 0.17459 0.0
H1797 H 0.2279 0.33723 0.14831 0.0
H1798 H 0.17182 0.29956 0.20144 0.0
H1799 H 0.20107 0.27587 0.22447 0.0
H1800 H 0.14269 0.30455 0.15868 0.0
H1801 H 0.22623 0.37281 0.20882 0.0
H1802 H 0.27586 0.39876 0.22291 0.0
H1803 H 0.27653 0.42041 0.13703 0.0
H1804 H 0.22696 0.39437 0.12238 0.0
H1805 H 0.08302 0.40474 0.13727 0.0
H1806 H 0.10963 0.37766 0.15742 0.0
H1807 H 0.14969 0.39546 0.08822 0.0
H1808 H 0.12365 0.42321 0.06827 0.0
H1809 H 0.18592 0.4009 0.13881 0.0
H1810 H 0.09832 0.33278 0.09256 0.0
H1811 H 0.04838 0.30946 0.08401 0.0
H1812 H 0.05583 0.29151 0.1717 0.0
H1813 H 0.10579 0.31498 0.18083 0.0
C1814 C 0.23926 0.31187 0.17956 0.0
C1815 C 0.23195 0.29387 0.20073 0.0
C1816 C 0.22182 0.3243 0.16518 0.0
C1817 C 0.19774 0.32125 0.17348 0.0
C1818 C 0.19011 0.30262 0.1943 0.0
C1819 C 0.20682 0.28885 0.20747 0.0
C1820 C 0.18109 0.3379 0.1612 0.0
C1821 C 0.15239 0.32572 0.15486 0.0
C1822 C 0.19315 0.36572 0.15569 0.0
C1823 C 0.22294 0.38143 0.16447 0.0
C1824 C 0.237 0.383 0.19293 0.0
C1825 C 0.26511 0.39774 0.20101 0.0
C1826 C 0.27934 0.41117 0.18086 0.0
C1827 C 0.26548 0.40997 0.1526 0.0
C1828 C 0.23739 0.39525 0.1444 0.0
C1829 C 0.09762 0.40314 0.12636 0.0
C1830 C 0.10106 0.41637 0.10102 0.0
C1831 C 0.11266 0.38731 0.13781 0.0
C1832 C 0.13154 0.3841 0.12424 0.0
C1833 C 0.1352 0.39741 0.09909 0.0
C1834 C 0.12009 0.41318 0.08756 0.0
C1835 C 0.14792 0.36746 0.13652 0.0
C1836 C 0.17648 0.37972 0.14284 0.0
C1837 C 0.13577 0.3401 0.14301 0.0
C1838 C 0.10576 0.32582 0.1374 0.0
C1839 C 0.08929 0.324 0.11005 0.0
C1840 C 0.06098 0.31073 0.10509 0.0
C1841 C 0.04893 0.29906 0.12731 0.0
C1842 C 0.06518 0.30057 0.15451 0.0
C1843 C 0.09349 0.31382 0.15958 0.0
H1844 H 0.02702 0.28881 0.12343 0.0
H1845 H 0.3011 0.42255 0.18716 0.0
H1846 H 0.24262 0.73261 0.81947 0.0
H1847 H 0.2112 0.70933 0.84782 0.0
H1848 H 0.22324 0.63601 0.83286 0.0
H1849 H 0.24803 0.65844 0.79741 0.0
H1850 H 0.1797 0.61809 0.83581 0.0
H1851 H 0.24762 0.68676 0.90332 0.0
H1852 H 0.27857 0.73378 0.91875 0.0
H1853 H 0.20987 0.75692 0.90993 0.0
H1854 H 0.17853 0.71024 0.8941 0.0
H1855 H 0.10766 0.59608 0.96169 0.0
H1856 H 0.14888 0.62029 0.94444 0.0
H1857 H 0.10037 0.60575 0.85856 0.0
H1858 H 0.05948 0.58098 0.87552 0.0
H1859 H 0.16728 0.66334 0.91561 0.0
H1860 H 0.12964 0.58789 0.8158 0.0
H1861 H 0.10572 0.53875 0.8051 0.0
H1862 H 0.12829 0.5244 0.89316 0.0
H1863 H 0.15229 0.57323 0.9043 0.0
C1864 C 0.23674 0.71119 0.82045 0.0
C1865 C 0.24493 0.69688 0.80355 0.0
C1866 C 0.21997 0.69784 0.83845 0.0
C1867 C 0.21427 0.67035 0.84337 0.0
C1868 C 0.22582 0.6568 0.82904 0.0
C1869 C 0.2404 0.66974 0.80891 0.0
C1870 C 0.19497 0.65537 0.86154 0.0
C1871 C 0.17774 0.62824 0.85353 0.0
C1872 C 0.19205 0.66757 0.88554 0.0
C1873 C 0.21076 0.69499 0.89756 0.0
C1874 C 0.23913 0.70183 0.90494 0.0
C1875 C 0.25672 0.72843 0.9136 0.0
C1876 C 0.24613 0.74822 0.91526 0.0
C1877 C 0.21798 0.74149 0.90866 0.0
C1878 C 0.2003 0.71496 0.89995 0.0
C1879 C 0.10581 0.59832 0.93917 0.0
C1880 C 0.08041 0.58646 0.91991 0.0
C1881 C 0.12937 0.61211 0.92935 0.0
C1882 C 0.12777 0.61435 0.90019 0.0
C1883 C 0.10217 0.60375 0.88113 0.0
C1884 C 0.07878 0.58975 0.89085 0.0
C1885 C 0.15263 0.62708 0.88911 0.0
C1886 C 0.17047 0.65349 0.89841 0.0
C1887 C 0.15751 0.61373 0.86774 0.0
C1888 C 0.14258 0.58427 0.8609 0.0
C1889 C 0.12948 0.57422 0.83285 0.0
C1890 C 0.11585 0.54639 0.82671 0.0
C1891 C 0.11532 0.52842 0.84842 0.0
C1892 C 0.12843 0.53824 0.87633 0.0
C1893 C 0.142 0.56601 0.88258 0.0
H1894 H 0.10485 0.50689 0.8436 0.0
H1895 H 0.25973 0.76876 0.92157 0.0
H1896 H 0.27302 0.1873 0.79521 0.0
H1897 H 0.29498 0.15701 0.8191 0.0
H1898 H 0.37284 0.22363 0.83632 0.0
H1899 H 0.35106 0.25376 0.81329 0.0
H1900 H 0.37547 0.18148 0.81019 0.0
H1901 H 0.34994 0.192 0.89922 0.0
H1902 H 0.31977 0.19003 0.9308 0.0
H1903 H 0.2645 0.11167 0.89385 0.0
H1904 H 0.29502 0.11278 0.8629 0.0
H1905 H 0.46368 0.12715 0.89936 0.0
H1906 H 0.43636 0.15309 0.87821 0.0
H1907 H 0.36289 0.08254 0.87367 0.0
H1908 H 0.3901 0.05667 0.89612 0.0
H1909 H 0.35503 0.12349 0.89046 0.0
H1910 H 0.38889 0.10881 0.81315 0.0
H1911 H 0.42265 0.10864 0.78706 0.0
H1912 H 0.46222 0.19485 0.80014 0.0
H1913 H 0.42886 0.19552 0.82657 0.0
C1914 C 0.29466 0.19561 0.80492 0.0
C1915 C 0.31025 0.22305 0.80243 0.0
C1916 C 0.30727 0.17824 0.8185 0.0
C1917 C 0.33574 0.18789 0.82951 0.0
C1918 C 0.35095 0.21551 0.828 0.0
C1919 C 0.3384 0.23281 0.81487 0.0
C1920 C 0.3503 0.16926 0.84034 0.0
C1921 C 0.37113 0.16899 0.82793 0.0
C1922 C 0.34429 0.15213 0.86279 0.0
C1923 C 0.32445 0.15265 0.87859 0.0
C1924 C 0.33117 0.17452 0.89765 0.0
C1925 C 0.31423 0.17339 0.91568 0.0
C1926 C 0.29024 0.15074 0.91433 0.0
C1927 C 0.28311 0.12918 0.89489 0.0
C1928 C 0.30029 0.12996 0.87725 0.0
C1929 C 0.44171 0.11705 0.8942 0.0
C1930 C 0.42931 0.08958 0.89971 0.0
C1931 C 0.42602 0.13194 0.8816 0.0
C1932 C 0.39738 0.11984 0.87371 0.0
C1933 C 0.3849 0.09248 0.87928 0.0
C1934 C 0.40059 0.07757 0.89199 0.0
C1935 C 0.38054 0.13592 0.86061 0.0
C1936 C 0.35926 0.1357 0.8725 0.0
C1937 C 0.38608 0.15248 0.8375 0.0
C1938 C 0.40651 0.15216 0.82208 0.0
C1939 C 0.40494 0.1277 0.8107 0.0
C1940 C 0.42397 0.12753 0.79579 0.0
C1941 C 0.4446 0.15171 0.792 0.0
C1942 C 0.44625 0.17613 0.80311 0.0
C1943 C 0.42726 0.17642 0.81803 0.0
H1944 H 0.45928 0.15153 0.78041 0.0
H1945 H 0.27716 0.14993 0.92831 0.0
H1946 H 0.82316 0.27112 0.85043 0.0
H1947 H 0.84588 0.29811 0.89455 0.0
H1948 H 0.79461 0.34419 0.87202 0.0
H1949 H 0.7739 0.31895 0.82659 0.0
H1950 H 0.8417 0.37679 0.88369 0.0
H1951 H 0.79646 0.3031 0.93394 0.0
H1952 H 0.77861 0.25597 0.94776 0.0
H1953 H 0.86019 0.25829 0.97633 0.0
H1954 H 0.87856 0.30527 0.96231 0.0
H1955 H 0.93146 0.46962 0.98675 0.0
H1956 H 0.8884 0.43022 0.97609 0.0
H1957 H 0.93169 0.38035 0.96344 0.0
H1958 H 0.97479 0.41961 0.9749 0.0
H1959 H 0.87964 0.35024 0.97794 0.0
H1960 H 0.91937 0.41782 0.91112 0.0
H1961 H 0.93681 0.4648 0.89653 0.0
H1962 H 0.8618 0.47235 0.89986 0.0
H1963 H 0.84409 0.42551 0.91482 0.0
C1964 C 0.81688 0.28708 0.8547 0.0
C1965 C 0.79775 0.29369 0.83421 0.0
C1966 C 0.82942 0.30217 0.88045 0.0
C1967 C 0.82213 0.32343 0.88686 0.0
C1968 C 0.80099 0.32822 0.86754 0.0
C1969 C 0.78921 0.31378 0.8414 0.0
C1970 C 0.83956 0.34344 0.91082 0.0
C1971 C 0.8491 0.37079 0.90455 0.0
C1972 C 0.84983 0.33598 0.93812 0.0
C1973 C 0.8389 0.30776 0.94694 0.0
C1974 C 0.81061 0.29354 0.94302 0.0
C1975 C 0.80039 0.26683 0.95092 0.0
C1976 C 0.81825 0.25414 0.96289 0.0
C1977 C 0.84638 0.26815 0.96707 0.0
C1978 C 0.8567 0.29485 0.95921 0.0
C1979 C 0.93181 0.44994 0.98305 0.0
C1980 C 0.95609 0.44744 0.98119 0.0
C1981 C 0.90729 0.42744 0.97713 0.0
C1982 C 0.90681 0.4025 0.96838 0.0
C1983 C 0.93159 0.39938 0.97013 0.0
C1984 C 0.95617 0.42182 0.97644 0.0
C1985 C 0.88164 0.38285 0.95014 0.0
C1986 C 0.87104 0.35584 0.95736 0.0
C1987 C 0.86999 0.39041 0.92365 0.0
C1988 C 0.88054 0.41836 0.91431 0.0
C1989 C 0.90668 0.42957 0.90884 0.0
C1990 C 0.91661 0.45615 0.90054 0.0
C1991 C 0.90044 0.47155 0.89733 0.0
C1992 C 0.87431 0.46041 0.9024 0.0
C1993 C 0.86432 0.43387 0.91079 0.0
H1994 H 0.90808 0.49208 0.8908 0.0
H1995 H 0.8103 0.23345 0.96894 0.0
H1996 H 0.67829 0.83892 0.80541 0.0
H1997 H 0.64358 0.85369 0.81479 0.0
H1998 H 0.69084 0.8789 0.90037 0.0
H1999 H 0.72325 0.86099 0.89244 0.0
H2000 H 0.64426 0.86308 0.9043 0.0
H2001 H 0.68781 0.92331 0.83692 0.0
H2002 H 0.70151 0.9342 0.79157 0.0
H2003 H 0.61762 0.89968 0.74626 0.0
H2004 H 0.60346 0.8884 0.79136 0.0
H2005 H 0.60651 0.96874 0.93697 0.0
H2006 H 0.63102 0.94434 0.9213 0.0
H2007 H 0.56086 0.90324 0.85412 0.0
H2008 H 0.53557 0.92684 0.87027 0.0
H2009 H 0.61272 0.92316 0.83749 0.0
H2010 H 0.57088 0.86923 0.90838 0.0
H2011 H 0.55993 0.86534 0.9552 0.0
H2012 H 0.64516 0.89381 0.99577 0.0
H2013 H 0.65668 0.89831 0.94914 0.0
C2014 C 0.68106 0.84702 0.82644 0.0
C2015 C 0.70437 0.84937 0.84784 0.0
C2016 C 0.66132 0.85604 0.83165 0.0
C2017 C 0.66483 0.86852 0.85806 0.0
C2018 C 0.68746 0.86975 0.87966 0.0
C2019 C 0.70652 0.8599 0.87482 0.0
C2020 C 0.64559 0.88072 0.86364 0.0
C2021 C 0.63769 0.87636 0.88962 0.0
C2022 C 0.63612 0.8977 0.8445 0.0
C2023 C 0.64462 0.90477 0.81746 0.0
C2024 C 0.67232 0.91796 0.81727 0.0
C2025 C 0.68015 0.92421 0.79162 0.0
C2026 C 0.66045 0.91756 0.76605 0.0
C2027 C 0.63286 0.90477 0.76608 0.0
C2028 C 0.62491 0.89848 0.79167 0.0
C2029 C 0.59598 0.95427 0.91909 0.0
C2030 C 0.56878 0.94966 0.90517 0.0
C2031 C 0.61022 0.94052 0.90996 0.0
C2032 C 0.59776 0.92188 0.88659 0.0
C2033 C 0.57092 0.91764 0.87213 0.0
C2034 C 0.55651 0.93124 0.8814 0.0
C2035 C 0.61253 0.90607 0.87824 0.0
C2036 C 0.61934 0.90969 0.85185 0.0
C2037 C 0.62154 0.8889 0.8972 0.0
C2038 C 0.61464 0.88423 0.92526 0.0
C2039 C 0.58729 0.87461 0.92729 0.0
C2040 C 0.58098 0.87237 0.95377 0.0
C2041 C 0.60184 0.87946 0.97841 0.0
C2042 C 0.62904 0.88839 0.97664 0.0
C2043 C 0.63548 0.89074 0.95018 0.0
H2044 H 0.59689 0.87813 -0.00114 0.0
H2045 H 0.66656 0.92238 0.74621 0.0
H2046 H 0.85301 0.69525 0.10782 0.0
H2047 H 0.87389 0.66428 0.09983 0.0
H2048 H 0.88261 0.64452 0.18756 0.0
H2049 H 0.86371 0.67756 0.19632 0.0
H2050 H 0.92654 0.65004 0.17398 0.0
H2051 H 0.83417 0.59967 0.12989 0.0
H2052 H 0.78849 0.59033 0.0991 0.0
H2053 H 0.82244 0.60601 0.02589 0.0
H2054 H 0.86841 0.61593 0.05627 0.0
H2055 H 0.96724 0.54328 0.13987 0.0
H2056 H 0.94258 0.56817 0.15489 0.0
H2057 H 0.94013 0.60769 0.0759 0.0
H2058 H 0.96538 0.58367 0.06104 0.0
H2059 H 0.89014 0.58701 0.08914 0.0
H2060 H 0.9839 0.64064 0.13731 0.0
H2061 H 0.02815 0.64774 0.17021 0.0
H2062 H 0.98827 0.62121 0.2386 0.0
H2063 H 0.94374 0.61362 0.20602 0.0
C2064 C 0.85955 0.68457 0.12559 0.0
C2065 C 0.857 0.68935 0.15286 0.0
C2066 C 0.87108 0.66636 0.12083 0.0
C2067 C 0.8795 0.65156 0.14293 0.0
C2068 C 0.87623 0.65559 0.17007 0.0
C2069 C 0.86512 0.67431 0.175 0.0
C2070 C 0.893 0.63312 0.13775 0.0
C2071 C 0.91821 0.63584 0.15574 0.0
C2072 C 0.88243 0.61466 0.11383 0.0
C2073 C 0.85479 0.6087 0.09542 0.0
C2074 C 0.83193 0.60132 0.10725 0.0
C2075 C 0.80598 0.5959 0.08986 0.0
C2076 C 0.80257 0.5976 0.06056 0.0
C2077 C 0.82511 0.6047 0.04859 0.0
C2078 C 0.85112 0.6102 0.06589 0.0
C2079 C 0.96193 0.55762 0.12586 0.0
C2080 C 0.96838 0.56134 0.09916 0.0
C2081 C 0.94767 0.57174 0.13446 0.0
C2082 C 0.93956 0.58986 0.11656 0.0
C2083 C 0.94606 0.59373 0.09003 0.0
C2084 C 0.96044 0.57982 0.08151 0.0
C2085 C 0.92379 0.60449 0.12496 0.0
C2086 C 0.89815 0.60098 0.10756 0.0
C2087 C 0.93369 0.62175 0.14971 0.0
C2088 C 0.96047 0.62626 0.16917 0.0
C2089 C 0.98455 0.63608 0.15931 0.0
C2090 C 1.00968 0.64025 0.17791 0.0
C2091 C 1.01101 0.63484 0.20646 0.0
C2092 C 0.98721 0.62533 0.21648 0.0
C2093 C 0.96203 0.62111 0.19796 0.0
H2094 H 0.03049 0.63809 0.22082 0.0
H2095 H 0.78246 0.59337 0.04713 0.0
H2096 H 0.27809 0.79129 0.18496 0.0
H2097 H 0.29759 0.82247 0.1507 0.0
H2098 H 0.3753 0.85275 0.21119 0.0
H2099 H 0.35534 0.82239 0.24611 0.0
H2100 H 0.36551 0.89301 0.17928 0.0
H2101 H 0.35729 0.79911 0.16265 0.0
H2102 H 0.32825 0.7507 0.15304 0.0
H2103 H 0.28115 0.76905 0.077 0.0
H2104 H 0.30971 0.81763 0.08642 0.0
H2105 H 0.47757 0.92562 0.12553 0.0
H2106 H 0.43903 0.90166 0.14625 0.0
H2107 H 0.38385 0.89043 0.06413 0.0
H2108 H 0.42272 0.91436 0.04291 0.0
H2109 H 0.37017 0.84484 0.09655 0.0
H2110 H 0.38644 0.93718 0.10619 0.0
H2111 H 0.41378 0.98591 0.11576 0.0
H2112 H 0.44258 0.9722 0.20271 0.0
H2113 H 0.41583 0.92333 0.19361 0.0
C2114 C 0.29911 0.80512 0.19122 0.0
C2115 C 0.31519 0.80481 0.21828 0.0
C2116 C 0.31026 0.82283 0.17156 0.0
C2117 C 0.33794 0.83972 0.17831 0.0
C2118 C 0.35383 0.83997 0.20563 0.0
C2119 C 0.34256 0.82251 0.22544 0.0
C2120 C 0.35141 0.85475 0.15625 0.0
C2121 C 0.36649 0.88259 0.16112 0.0
C2122 C 0.35155 0.84126 0.13182 0.0
C2123 C 0.33552 0.81196 0.1253 0.0
C2124 C 0.34078 0.79278 0.14385 0.0
C2125 C 0.32436 0.76534 0.13849 0.0
C2126 C 0.30285 0.75681 0.11445 0.0
C2127 C 0.29782 0.7757 0.09562 0.0
C2128 C 0.31412 0.80318 0.10095 0.0
C2129 C 0.45731 0.91783 0.11175 0.0
C2130 C 0.45312 0.9221 0.08266 0.0
C2131 C 0.43528 0.90426 0.12365 0.0
C2132 C 0.4086 0.89492 0.10681 0.0
C2133 C 0.40432 0.89778 0.07747 0.0
C2134 C 0.4265 0.91137 0.06543 0.0
C2135 C 0.38559 0.88278 0.12062 0.0
C2136 C 0.3686 0.85554 0.11415 0.0
C2137 C 0.38335 0.89693 0.14332 0.0
C2138 C 0.3991 0.92648 0.14918 0.0
C2139 C 0.39869 0.94451 0.12734 0.0
C2140 C 0.41409 0.97218 0.13267 0.0
C2141 C 0.42989 0.98213 0.15982 0.0
C2142 C 0.43029 0.96445 0.1817 0.0
C2143 C 0.41496 0.93676 0.17648 0.0
H2144 H 0.44179 0.00354 0.16392 0.0
H2145 H 0.29009 0.73558 0.1104 0.0
H2146 H 0.74666 0.2475 0.14226 0.0
H2147 H 0.71667 0.22727 0.09656 0.0
H2148 H 0.64664 0.20889 0.13229 0.0
H2149 H 0.67649 0.22929 0.17785 0.0
H2150 H 0.68942 0.17603 0.09174 0.0
H2151 H 0.59021 0.19763 0.08621 0.0
H2152 H 0.5781 0.23735 0.08884 0.0
H2153 H 0.65199 0.28795 0.06571 0.0
H2154 H 0.66461 0.24881 0.06317 0.0
H2155 H 0.5477 0.07744 0.06386 0.0
H2156 H 0.5791 0.1245 0.07422 0.0
H2157 H 0.61896 0.11725 0.00957 0.0
H2158 H 0.58821 0.06959 0.00021 0.0
H2159 H 0.59636 0.17213 0.04697 0.0
H2160 H 0.68621 0.14933 0.036 0.0
H2161 H 0.6996 0.1106 0.032 0.0
H2162 H 0.64745 0.06595 0.08582 0.0
H2163 H 0.63396 0.1045 0.09024 0.0
C2164 C 0.7248 0.2398 0.14015 0.0
C2165 C 0.71389 0.23923 0.16384 0.0
C2166 C 0.70769 0.22838 0.11395 0.0
C2167 C 0.67938 0.21635 0.11094 0.0
C2168 C 0.66839 0.2183 0.13388 0.0
C2169 C 0.6855 0.22981 0.16009 0.0
C2170 C 0.66193 0.19713 0.08655 0.0
C2171 C 0.66945 0.17577 0.08117 0.0
C2172 C 0.63589 0.1966 0.07262 0.0
C2173 C 0.62838 0.22026 0.07459 0.0
C2174 C 0.60384 0.21726 0.08166 0.0
C2175 C 0.59695 0.23974 0.08327 0.0
C2176 C 0.61433 0.26527 0.07764 0.0
C2177 C 0.63865 0.26834 0.07043 0.0
C2178 C 0.64574 0.24602 0.069 0.0
C2179 C 0.56286 0.08612 0.05153 0.0
C2180 C 0.56541 0.07021 0.03097 0.0
C2181 C 0.58059 0.11304 0.05722 0.0
C2182 C 0.60138 0.12442 0.04268 0.0
C2183 C 0.603 0.10891 0.02097 0.0
C2184 C 0.58527 0.08183 0.01538 0.0
C2185 C 0.6235 0.15068 0.05372 0.0
C2186 C 0.61681 0.17319 0.0566 0.0
C2187 C 0.65052 0.15254 0.06512 0.0
C2188 C 0.65892 0.12957 0.06318 0.0
C2189 C 0.67771 0.13124 0.04702 0.0
C2190 C 0.68529 0.10935 0.04467 0.0
C2191 C 0.67433 0.0858 0.05859 0.0
C2192 C 0.65587 0.08416 0.075 0.0
C2193 C 0.64826 0.106 0.07743 0.0
H2194 H 0.68018 0.06885 0.0567 0.0
H2195 H 0.60892 0.28263 0.07877 0.0
H2196 H 0.65917 0.70973 0.73696 0.0
H2197 H 0.62454 0.68142 0.76189 0.0
H2198 H 0.68396 0.65315 0.81332 0.0
H2199 H 0.718 0.68109 0.78863 0.0
H2200 H 0.63322 0.61475 0.80545 0.0
H2201 H 0.68035 0.71236 0.83236 0.0
H2202 H 0.69165 0.76025 0.82151 0.0
H2203 H 0.60643 0.74674 0.7977 0.0
H2204 H 0.59469 0.69865 0.80827 0.0
H2205 H 0.62675 0.59947 0.94516 0.0
H2206 H 0.64473 0.62491 0.90628 0.0
H2207 H 0.5672 0.63155 0.87126 0.0
H2208 H 0.54916 0.60593 0.90972 0.0
H2209 H 0.61565 0.6777 0.86356 0.0
H2210 H 0.57098 0.58062 0.84906 0.0
H2211 H 0.56334 0.53431 0.86424 0.0
H2212 H 0.64653 0.54734 0.86632 0.0
H2213 H 0.65482 0.59396 0.85175 0.0
C2214 C 0.66429 0.69667 0.75293 0.0
C2215 C 0.69105 0.6977 0.76152 0.0
C2216 C 0.64465 0.68059 0.76709 0.0
C2217 C 0.65193 0.66563 0.78976 0.0
C2218 C 0.67794 0.66456 0.79596 0.0
C2219 C 0.69742 0.68065 0.78205 0.0
C2220 C 0.63515 0.6553 0.8106 0.0
C2221 C 0.62902 0.62838 0.81792 0.0
C2222 C 0.62958 0.67311 0.82678 0.0
C2223 C 0.63666 0.70198 0.82085 0.0
C2224 C 0.66406 0.71963 0.82473 0.0
C2225 C 0.67053 0.74679 0.81862 0.0
C2226 C 0.64977 0.75654 0.80884 0.0
C2227 C 0.62249 0.73915 0.80524 0.0
C2228 C 0.61591 0.71196 0.8113 0.0
C2229 C 0.61406 0.60743 0.92982 0.0
C2230 C 0.58665 0.60071 0.92997 0.0
C2231 C 0.62421 0.62176 0.90764 0.0
C2232 C 0.60699 0.62953 0.88582 0.0
C2233 C 0.58063 0.62558 0.8879 0.0
C2234 C 0.5704 0.61097 0.90977 0.0
C2235 C 0.61482 0.63755 0.85888 0.0
C2236 C 0.61904 0.66387 0.85054 0.0
C2237 C 0.61884 0.61924 0.8419 0.0
C2238 C 0.61356 0.59084 0.84949 0.0
C2239 C 0.58768 0.57366 0.85288 0.0
C2240 C 0.58323 0.54735 0.8614 0.0
C2241 C 0.60445 0.5379 0.86628 0.0
C2242 C 0.63012 0.55469 0.86254 0.0
C2243 C 0.63469 0.58105 0.85414 0.0
H2244 H 0.60099 0.51755 0.87293 0.0
H2245 H 0.65477 0.77757 0.80412 0.0
H2246 H 0.33506 0.67405 0.80215 0.0
H2247 H 0.35637 0.67013 0.85061 0.0
H2248 H 0.3144 0.58348 0.84114 0.0
H2249 H 0.28964 0.5875 0.79375 0.0
H2250 H 0.32179 0.59808 0.89277 0.0
H2251 H 0.38053 0.61936 0.82647 0.0
H2252 H 0.40286 0.64715 0.79089 0.0
H2253 H 0.44244 0.71509 0.85107 0.0
H2254 H 0.42011 0.68775 0.88693 0.0
H2255 H 0.41803 0.54294 0.95018 0.0
H2256 H 0.38244 0.55955 0.9293 0.0
H2257 H 0.43611 0.6403 0.96249 0.0
H2258 H 0.47216 0.62357 0.98289 0.0
H2259 H 0.42245 0.63806 0.90771 0.0
H2260 H 0.37149 0.60744 0.97768 0.0
H2261 H 0.34975 0.57566 0.01108 0.0
H2262 H 0.29674 0.51976 0.94177 0.0
H2263 H 0.31802 0.55131 0.90802 0.0
C2264 C 0.32922 0.65418 0.81049 0.0
C2265 C 0.31063 0.63101 0.79355 0.0
C2266 C 0.34194 0.65198 0.83826 0.0
C2267 C 0.33773 0.62647 0.84917 0.0
C2268 C 0.31822 0.60341 0.83304 0.0
C2269 C 0.3045 0.6057 0.80563 0.0
C2270 C 0.35565 0.62344 0.87591 0.0
C2271 C 0.34382 0.6068 0.89616 0.0
C2272 C 0.38442 0.63541 0.88057 0.0
C2273 C 0.39841 0.65163 0.85925 0.0
C2274 C 0.39394 0.64025 0.83207 0.0
C2275 C 0.40658 0.65592 0.81186 0.0
C2276 C 0.42398 0.68289 0.81869 0.0
C2277 C 0.4289 0.69421 0.8458 0.0
C2278 C 0.41628 0.67864 0.86607 0.0
C2279 C 0.4217 0.564 0.95411 0.0
C2280 C 0.44767 0.58216 0.96772 0.0
C2281 C 0.40129 0.57347 0.94237 0.0
C2282 C 0.40654 0.60118 0.94446 0.0
C2283 C 0.43159 0.61882 0.9609 0.0
C2284 C 0.45211 0.6093 0.9726 0.0
C2285 C 0.38864 0.61197 0.92436 0.0
C2286 C 0.40048 0.63003 0.90507 0.0
C2287 C 0.35995 0.60065 0.92026 0.0
C2288 C 0.34648 0.58179 0.94038 0.0
C2289 C 0.35526 0.58835 0.96964 0.0
C2290 C 0.34301 0.57037 0.98861 0.0
C2291 C 0.32199 0.54563 0.97858 0.0
C2292 C 0.31301 0.53894 0.94952 0.0
C2293 C 0.32507 0.55696 0.93045 0.0
H2294 H 0.31259 0.5317 0.99332 0.0
H2295 H 0.43369 0.69501 0.803 0.0
H2296 H 0.33467 0.34248 0.76844 0.0
H2297 H 0.35905 0.38287 0.80047 0.0
H2298 H 0.2939 0.35806 0.84422 0.0
H2299 H 0.26996 0.31771 0.81296 0.0
H2300 H 0.32384 0.41696 0.84469 0.0
H2301 H 0.33577 0.33075 0.8656 0.0
H2302 H 0.34593 0.29222 0.85239 0.0
H2303 H 0.42316 0.34675 0.83951 0.0
H2304 H 0.41335 0.3856 0.85235 0.0
H2305 H 0.44401 0.44548 0.98275 0.0
H2306 H 0.3995 0.41704 0.95323 0.0
H2307 H 0.41081 0.47441 0.88782 0.0
H2308 H 0.455 0.50244 0.91676 0.0
H2309 H 0.40145 0.39692 0.90283 0.0
H2310 H 0.34976 0.46862 0.8465 0.0
H2311 H 0.34205 0.50876 0.85924 0.0
H2312 H 0.34614 0.48494 0.945 0.0
H2313 H 0.35342 0.44441 0.93272 0.0
C2314 C 0.32518 0.34615 0.78421 0.0
C2315 C 0.30089 0.3267 0.78879 0.0
C2316 C 0.33897 0.36928 0.80233 0.0
C2317 C 0.32827 0.37307 0.82479 0.0
C2318 C 0.30238 0.35542 0.82697 0.0
C2319 C 0.2889 0.33222 0.80926 0.0
C2320 C 0.34622 0.39076 0.84961 0.0
C2321 C 0.34092 0.41283 0.85742 0.0
C2322 C 0.36767 0.38445 0.86669 0.0
C2323 C 0.37375 0.36103 0.85969 0.0
C2324 C 0.35484 0.3345 0.8598 0.0
C2325 C 0.36052 0.31262 0.85237 0.0
C2326 C 0.38509 0.31704 0.845 0.0
C2327 C 0.40411 0.34335 0.84517 0.0
C2328 C 0.39853 0.3653 0.85255 0.0
C2329 C 0.43663 0.45219 0.96232 0.0
C2330 C 0.45312 0.47557 0.95152 0.0
C2331 C 0.41122 0.43613 0.94566 0.0
C2332 C 0.40202 0.44373 0.91844 0.0
C2333 C 0.41745 0.46837 0.90888 0.0
C2334 C 0.44287 0.48414 0.92526 0.0
C2335 C 0.37986 0.42392 0.89764 0.0
C2336 C 0.38421 0.4011 0.89049 0.0
C2337 C 0.35771 0.42971 0.88134 0.0
C2338 C 0.35225 0.45349 0.88867 0.0
C2339 C 0.34875 0.47178 0.86801 0.0
C2340 C 0.34452 0.49464 0.87517 0.0
C2341 C 0.34366 0.49939 0.90291 0.0
C2342 C 0.34688 0.48124 0.92353 0.0
C2343 C 0.35108 0.45833 0.91649 0.0
H2344 H 0.34048 0.51712 0.9084 0.0
H2345 H 0.38943 0.30007 0.83925 0.0
H2346 H 0.65504 0.31238 0.8208 0.0
H2347 H 0.63967 0.32699 0.85866 0.0
H2348 H 0.68846 0.41002 0.84812 0.0
H2349 H 0.70391 0.39555 0.81041 0.0
H2350 H 0.68863 0.39711 0.90562 0.0
H2351 H 0.62529 0.38556 0.81315 0.0
H2352 H 0.59464 0.35864 0.76992 0.0
H2353 H 0.54646 0.30203 0.82023 0.0
H2354 H 0.57714 0.32843 0.86382 0.0
H2355 H 0.63085 0.48567 0.93508 0.0
H2356 H 0.65057 0.45738 0.91783 0.0
H2357 H 0.58256 0.38608 0.92847 0.0
H2358 H 0.56259 0.41424 0.94583 0.0
H2359 H 0.59076 0.38391 0.87877 0.0
H2360 H 0.64783 0.40021 0.97065 0.0
H2361 H 0.67838 0.42539 0.01469 0.0
H2362 H 0.7376 0.47132 0.96851 0.0
H2363 H 0.70732 0.4464 0.92411 0.0
C2364 C 0.66282 0.33368 0.82698 0.0
C2365 C 0.68029 0.35295 0.81254 0.0
C2366 C 0.65408 0.34196 0.84854 0.0
C2367 C 0.66287 0.36954 0.85595 0.0
C2368 C 0.68155 0.38864 0.84266 0.0
C2369 C 0.69009 0.38041 0.82098 0.0
C2370 C 0.65044 0.37896 0.87513 0.0
C2371 C 0.66725 0.39428 0.89994 0.0
C2372 C 0.62235 0.37435 0.86797 0.0
C2373 C 0.60371 0.35874 0.84174 0.0
C2374 C 0.60829 0.36725 0.815 0.0
C2375 C 0.5909 0.35211 0.79043 0.0
C2376 C 0.56867 0.32858 0.79233 0.0
C2377 C 0.56373 0.32021 0.8188 0.0
C2378 C 0.58111 0.33525 0.84344 0.0
C2379 C 0.62035 0.46396 0.93445 0.0
C2380 C 0.59518 0.45228 0.94201 0.0
C2381 C 0.63173 0.44777 0.92464 0.0
C2382 C 0.61832 0.41956 0.92244 0.0
C2383 C 0.59336 0.40778 0.93026 0.0
C2384 C 0.58185 0.42397 0.93989 0.0
C2385 C 0.62909 0.40286 0.9091 0.0
C2386 C 0.61198 0.3862 0.88519 0.0
C2387 C 0.65683 0.40605 0.91733 0.0
C2388 C 0.67517 0.42138 0.94396 0.0
C2389 C 0.66725 0.41574 0.96981 0.0
C2390 C 0.68456 0.42997 0.99487 0.0
C2391 C 0.70988 0.45001 0.99439 0.0
C2392 C 0.71797 0.45578 0.96885 0.0
C2393 C 0.70077 0.44152 0.94373 0.0
H2394 H 0.72325 0.46101 0.01381 0.0
H2395 H 0.55523 0.31688 0.77329 0.0
H2396 H 0.72764 0.33683 0.10495 0.0
H2397 H 0.69461 0.34445 0.06542 0.0
H2398 H 0.64026 0.33567 0.12015 0.0
H2399 H 0.67342 0.32976 0.15998 0.0
H2400 H 0.63062 0.31867 0.04044 0.0
H2401 H 0.63689 0.3967 0.119 0.0
H2402 H 0.66668 0.42171 0.16364 0.0
H2403 H 0.73712 0.42298 0.13728 0.0
H2404 H 0.70777 0.39839 0.09232 0.0
H2405 H 0.53396 0.38253 0.0127 0.0
H2406 H 0.56227 0.35567 0.0211 0.0
H2407 H 0.63173 0.42595 0.01139 0.0
H2408 H 0.60419 0.45319 0.00564 0.0
H2409 H 0.63728 0.41095 0.06287 0.0
H2410 H 0.6075 0.36484 0.97132 0.0
H2411 H 0.57508 0.33711 0.92949 0.0
H2412 H 0.54689 0.27066 0.98169 0.0
H2413 H 0.57909 0.29802 0.02391 0.0
C2414 C 0.70848 0.33609 0.10847 0.0
C2415 C 0.70348 0.33332 0.13577 0.0
C2416 C 0.6895 0.33996 0.08578 0.0
C2417 C 0.66527 0.34066 0.09015 0.0
C2418 C 0.6589 0.33497 0.11655 0.0
C2419 C 0.67796 0.33157 0.13929 0.0
C2420 C 0.64989 0.35337 0.06975 0.0
C2421 C 0.63202 0.3389 0.04495 0.0
C2422 C 0.65213 0.37975 0.07598 0.0
C2423 C 0.67013 0.39551 0.10244 0.0
C2424 C 0.65876 0.40248 0.12268 0.0
C2425 C 0.67555 0.41656 0.14804 0.0
C2426 C 0.70377 0.42386 0.15333 0.0
C2427 C 0.71526 0.41725 0.1332 0.0
C2428 C 0.69855 0.40323 0.10778 0.0
C2429 C 0.55499 0.39191 0.01113 0.0
C2430 C 0.56702 0.4199 0.00864 0.0
C2431 C 0.5711 0.37648 0.01568 0.0
C2432 C 0.59912 0.3889 0.01698 0.0
C2433 C 0.61015 0.41604 0.0105 0.0
C2434 C 0.59442 0.43162 0.00722 0.0
C2435 C 0.61774 0.37652 0.03276 0.0
C2436 C 0.63612 0.39099 0.05741 0.0
C2437 C 0.61548 0.35007 0.02633 0.0
C2438 C 0.59585 0.33362 0.00089 0.0
C2439 C 0.59437 0.34441 0.97397 0.0
C2440 C 0.57599 0.32872 0.95016 0.0
C2441 C 0.5589 0.30217 0.95294 0.0
C2442 C 0.56017 0.29123 0.97956 0.0
C2443 C 0.57855 0.30682 0.00343 0.0
H2444 H 0.5447 0.29005 0.93447 0.0
H2445 H 0.71673 0.43469 0.173 0.0
H2446 H 0.7659 0.6715 0.22032 0.0
H2447 H 0.75005 0.6303 0.19011 0.0
H2448 H 0.6667 0.61922 0.18744 0.0
H2449 H 0.68272 0.6597 0.21851 0.0
H2450 H 0.66929 0.57202 0.17999 0.0
H2451 H 0.70676 0.6641 0.139 0.0
H2452 H 0.74456 0.70625 0.13343 0.0
H2453 H 0.79151 0.66059 0.12096 0.0
H2454 H 0.75385 0.61815 0.12616 0.0
H2455 H 0.5812 0.58511 0.07506 0.0
H2456 H 0.62856 0.60364 0.10195 0.0
H2457 H 0.64483 0.54222 0.06316 0.0
H2458 H 0.59749 0.52414 0.03557 0.0
H2459 H 0.69132 0.6082 0.08933 0.0
H2460 H 0.63769 0.51548 0.11021 0.0
H2461 H 0.59251 0.47955 0.10809 0.0
H2462 H 0.57249 0.53095 0.15716 0.0
H2463 H 0.61742 0.56727 0.15928 0.0
C2464 C 0.74424 0.65947 0.21412 0.0
C2465 C 0.72533 0.66852 0.2212 0.0
C2466 C 0.73524 0.63607 0.19687 0.0
C2467 C 0.70725 0.62212 0.18591 0.0
C2468 C 0.68845 0.62968 0.19562 0.0
C2469 C 0.69749 0.65281 0.21329 0.0
C2470 C 0.69711 0.60353 0.16055 0.0
C2471 C 0.67479 0.57927 0.16025 0.0
C2472 C 0.70461 0.61265 0.13476 0.0
C2473 C 0.72769 0.6381 0.1332 0.0
C2474 C 0.72523 0.66313 0.13525 0.0
C2475 C 0.74657 0.68702 0.13209 0.0
C2476 C 0.77037 0.68608 0.12682 0.0
C2477 C 0.77303 0.66127 0.12499 0.0
C2478 C 0.75171 0.6373 0.128 0.0
C2479 C 0.59537 0.57673 0.07099 0.0
C2480 C 0.58611 0.55346 0.05338 0.0
C2481 C 0.62233 0.58723 0.08627 0.0
C2482 C 0.63984 0.57396 0.08463 0.0
C2483 C 0.63155 0.55273 0.06442 0.0
C2484 C 0.6046 0.54253 0.04866 0.0
C2485 C 0.66284 0.57797 0.10899 0.0
C2486 C 0.68737 0.59949 0.10916 0.0
C2487 C 0.65731 0.56644 0.13464 0.0
C2488 C 0.63098 0.54402 0.13502 0.0
C2489 C 0.62369 0.51906 0.12063 0.0
C2490 C 0.5981 0.49866 0.11937 0.0
C2491 C 0.57965 0.50296 0.1325 0.0
C2492 C 0.58682 0.52762 0.14706 0.0
C2493 C 0.61239 0.54808 0.14839 0.0
H2494 H 0.55982 0.48719 0.13139 0.0
H2495 H 0.78669 0.70458 0.12404 0.0
H2496 H 0.29636 0.62066 0.15748 0.0
H2497 H 0.314 0.60706 0.12104 0.0
H2498 H 0.39355 0.66843 0.15486 0.0
H2499 H 0.37543 0.68283 0.19043 0.0
H2500 H 0.38413 0.66218 0.09841 0.0
H2501 H 0.37637 0.60422 0.17722 0.0
H2502 H 0.35179 0.57463 0.21029 0.0
H2503 H 0.29661 0.51996 0.14086 0.0
H2504 H 0.32061 0.54949 0.10731 0.0
H2505 H 0.47093 0.60256 0.06753 0.0
H2506 H 0.44536 0.62464 0.08472 0.0
H2507 H 0.37075 0.55601 0.05321 0.0
H2508 H 0.39654 0.53281 0.0382 0.0
H2509 H 0.37442 0.56627 0.10444 0.0
H2510 H 0.38615 0.62268 0.02593 0.0
H2511 H 0.41173 0.6525 0.99365 0.0
H2512 H 0.4613 0.70977 0.06306 0.0
H2513 H 0.43595 0.68022 0.09567 0.0
C2514 C 0.31743 0.63148 0.15661 0.0
C2515 C 0.3348 0.6524 0.17665 0.0
C2516 C 0.32748 0.62378 0.13593 0.0
C2517 C 0.35519 0.63638 0.13573 0.0
C2518 C 0.37213 0.65843 0.15476 0.0
C2519 C 0.36191 0.6665 0.1751 0.0
C2520 C 0.36714 0.62468 0.11794 0.0
C2521 C 0.38212 0.64124 0.09968 0.0
C2522 C 0.36418 0.59728 0.1195 0.0
C2523 C 0.35012 0.5792 0.13974 0.0
C2524 C 0.35891 0.58596 0.16899 0.0
C2525 C 0.34508 0.56921 0.18782 0.0
C2526 C 0.32261 0.54547 0.17768 0.0
C2527 C 0.31399 0.53838 0.14868 0.0
C2528 C 0.3277 0.55511 0.12975 0.0
C2529 C 0.44903 0.59224 0.06405 0.0
C2530 C 0.43586 0.5657 0.05206 0.0
C2531 C 0.43434 0.60512 0.07344 0.0
C2532 C 0.40605 0.59211 0.07002 0.0
C2533 C 0.39257 0.56648 0.05598 0.0
C2534 C 0.40734 0.55332 0.04715 0.0
C2535 C 0.39121 0.60358 0.08435 0.0
C2536 C 0.37596 0.58705 0.10245 0.0
C2537 C 0.39414 0.631 0.08271 0.0
C2538 C 0.40918 0.64915 0.06317 0.0
C2539 C 0.40256 0.64158 0.03424 0.0
C2540 C 0.41703 0.65842 0.01592 0.0
C2541 C 0.43823 0.68295 0.02631 0.0
C2542 C 0.44488 0.69075 0.05503 0.0
C2543 C 0.43038 0.674 0.07342 0.0
H2544 H 0.44945 0.69594 0.0121 0.0
H2545 H 0.31191 0.53254 0.19228 0.0
H2546 H 0.31865 0.29756 0.18334 0.0
H2547 H 0.36019 0.32292 0.16851 0.0
H2548 H 0.40634 0.33419 0.25527 0.0
H2549 H 0.36402 0.30885 0.27067 0.0
H2550 H 0.42073 0.38058 0.22489 0.0
H2551 H 0.41149 0.2903 0.21325 0.0
H2552 H 0.38594 0.24188 0.20037 0.0
H2553 H 0.36648 0.25904 0.11293 0.0
H2554 H 0.3909 0.30775 0.12526 0.0
H2555 H 0.51166 0.44913 0.13741 0.0
H2556 H 0.49588 0.41698 0.17266 0.0
H2557 H 0.41961 0.37647 0.11233 0.0
H2558 H 0.43541 0.40819 0.07682 0.0
H2559 H 0.43738 0.34073 0.14392 0.0
H2560 H 0.4271 0.4263 0.15964 0.0
H2561 H 0.44595 0.47559 0.16999 0.0
H2562 H 0.49853 0.46656 0.24717 0.0
H2563 H 0.48016 0.41719 0.23704 0.0
C2564 C 0.33754 0.30527 0.1994 0.0
C2565 C 0.33815 0.30083 0.22813 0.0
C2566 C 0.36134 0.31969 0.19085 0.0
C2567 C 0.38641 0.32959 0.21071 0.0
C2568 C 0.38716 0.32622 0.23963 0.0
C2569 C 0.36306 0.31186 0.24834 0.0
C2570 C 0.41122 0.34409 0.20035 0.0
C2571 C 0.42518 0.37171 0.20789 0.0
C2572 C 0.41686 0.33236 0.17814 0.0
C2573 C 0.40324 0.30285 0.17025 0.0
C2574 C 0.40178 0.28383 0.19125 0.0
C2575 C 0.38742 0.25627 0.18405 0.0
C2576 C 0.37476 0.24732 0.15585 0.0
C2577 C 0.3764 0.26597 0.13477 0.0
C2578 C 0.39051 0.29361 0.14186 0.0
C2579 C 0.4916 0.43322 0.13159 0.0
C2580 C 0.47456 0.43132 0.1045 0.0
C2581 C 0.48271 0.41484 0.15172 0.0
C2582 C 0.45657 0.39451 0.14512 0.0
C2583 C 0.43995 0.39197 0.11775 0.0
C2584 C 0.44887 0.41023 0.09757 0.0
C2585 C 0.44508 0.37736 0.16711 0.0
C2586 C 0.43393 0.34927 0.16185 0.0
C2587 C 0.44173 0.38863 0.19117 0.0
C2588 C 0.45251 0.41818 0.19745 0.0
C2589 C 0.44278 0.43487 0.17874 0.0
C2590 C 0.45337 0.4628 0.18456 0.0
C2591 C 0.47349 0.47421 0.20918 0.0
C2592 C 0.48299 0.45769 0.22808 0.0
C2593 C 0.4725 0.42974 0.22231 0.0
H2594 H 0.48166 0.49583 0.21366 0.0
H2595 H 0.36362 0.22595 0.15038 0.0
H2596 H 0.80846 0.64587 0.5986 0.0
H2597 H 0.84134 0.62646 0.59406 0.0
H2598 H 0.87224 0.63439 0.68452 0.0
H2599 H 0.83822 0.65255 0.68962 0.0
H2600 H 0.90958 0.65225 0.63096 0.0
H2601 H 0.85046 0.58226 0.68246 0.0
H2602 H 0.80498 0.55406 0.68975 0.0
H2603 H 0.77934 0.52335 0.60324 0.0
H2604 H 0.82461 0.55174 0.59536 0.0
H2605 H 0.98945 0.57365 0.6267 0.0
H2606 H 0.9633 0.59641 0.64238 0.0
H2607 H 0.89182 0.54918 0.57933 0.0
H2608 H 0.91724 0.52524 0.5648 0.0
H2609 H 0.87679 0.55218 0.62471 0.0
H2610 H 0.93193 0.61832 0.57143 0.0
H2611 H 0.97449 0.64738 0.55848 0.0
H2612 H 1.00572 0.68592 0.64195 0.0
H2613 H 0.96314 0.65716 0.65533 0.0
C2614 C 0.82199 0.64332 0.61768 0.0
C2615 C 0.82013 0.65032 0.64456 0.0
C2616 C 0.84099 0.63246 0.61495 0.0
C2617 C 0.85897 0.62875 0.63894 0.0
C2618 C 0.85837 0.63698 0.66575 0.0
C2619 C 0.839 0.64753 0.66858 0.0
C2620 C 0.87725 0.61499 0.63555 0.0
C2621 C 0.90282 0.6304 0.63031 0.0
C2622 C 0.86788 0.58652 0.63356 0.0
C2623 C 0.84075 0.56935 0.63825 0.0
C2624 C 0.83501 0.56972 0.66492 0.0
C2625 C 0.80931 0.55365 0.66918 0.0
C2626 C 0.78924 0.53699 0.64694 0.0
C2627 C 0.79488 0.53631 0.62042 0.0
C2628 C 0.82056 0.55237 0.61606 0.0
C2629 C 0.96809 0.56785 0.61637 0.0
C2630 C 0.95564 0.54767 0.59426 0.0
C2631 C 0.9532 0.58117 0.62514 0.0
C2632 C 0.9256 0.5749 0.61178 0.0
C2633 C 0.91307 0.55454 0.58998 0.0
C2634 C 0.92782 0.54106 0.58141 0.0
C2635 C 0.90962 0.58936 0.62038 0.0
C2636 C 0.88413 0.57406 0.62611 0.0
C2637 C 0.91898 0.61797 0.62243 0.0
C2638 C 0.94452 0.63539 0.61447 0.0
C2639 C 0.94795 0.63289 0.58707 0.0
C2640 C 0.97207 0.64932 0.57964 0.0
C2641 C 0.99294 0.66832 0.59945 0.0
C2642 C 0.98959 0.67112 0.62666 0.0
C2643 C 0.96542 0.65483 0.63414 0.0
H2644 H 1.01164 0.68096 0.59367 0.0
H2645 H 0.76936 0.52455 0.65028 0.0
H2646 H 0.34264 0.81992 0.75856 0.0
H2647 H 0.37245 0.84842 0.72932 0.0
H2648 H 0.30359 0.8278 0.65719 0.0
H2649 H 0.27435 0.79812 0.68619 0.0
H2650 H 0.3423 0.82472 0.64029 0.0
H2651 H 0.33579 0.89257 0.69414 0.0
H2652 H 0.33698 0.91726 0.73647 0.0
H2653 H 0.4223 0.93327 0.76696 0.0
H2654 H 0.42154 0.90827 0.72502 0.0
H2655 H 0.42094 0.92217 0.55763 0.0
H2656 H 0.3869 0.89767 0.58454 0.0
H2657 H 0.45107 0.90368 0.65806 0.0
H2658 H 0.48513 0.92918 0.63192 0.0
H2659 H 0.41156 0.9164 0.67108 0.0
H2660 H 0.41588 0.84555 0.61599 0.0
H2661 H 0.41285 0.82204 0.572 0.0
H2662 H 0.32909 0.81271 0.54246 0.0
H2663 H 0.33179 0.83674 0.586 0.0
C2664 C 0.33406 0.82162 0.73647 0.0
C2665 C 0.30658 0.80659 0.72429 0.0
C2666 C 0.35093 0.83814 0.71982 0.0
C2667 C 0.34027 0.84063 0.691 0.0
C2668 C 0.3124 0.82621 0.67925 0.0
C2669 C 0.29573 0.80926 0.69574 0.0
C2670 C 0.35845 0.85685 0.67275 0.0
C2671 C 0.35721 0.84487 0.64699 0.0
C2672 C 0.37795 0.88325 0.68123 0.0
C2673 C 0.37854 0.89831 0.70653 0.0
C2674 C 0.35476 0.90116 0.70998 0.0
C2675 C 0.35537 0.91524 0.7339 0.0
C2676 C 0.37968 0.92677 0.75443 0.0
C2677 C 0.40347 0.92429 0.75106 0.0
C2678 C 0.40297 0.91018 0.7272 0.0
C2679 C 0.42777 0.91799 0.57943 0.0
C2680 C 0.45569 0.9275 0.59267 0.0
C2681 C 0.40832 0.90392 0.59467 0.0
C2682 C 0.41646 0.89851 0.62309 0.0
C2683 C 0.44434 0.90765 0.63616 0.0
C2684 C 0.46376 0.92208 0.62114 0.0
C2685 C 0.39601 0.8837 0.63947 0.0
C2686 C 0.39667 0.89614 0.66466 0.0
C2687 C 0.3758 0.85781 0.63033 0.0
C2688 C 0.37416 0.84328 0.60414 0.0
C2689 C 0.39689 0.83875 0.6 0.0
C2690 C 0.39522 0.82529 0.57515 0.0
C2691 C 0.37081 0.81594 0.55443 0.0
C2692 C 0.34798 0.81994 0.55855 0.0
C2693 C 0.34959 0.83354 0.58328 0.0
H2694 H 0.36957 0.80558 0.53518 0.0
H2695 H 0.38011 0.93767 0.77292 0.0
H2696 H 0.16831 0.2468 0.71483 0.0
H2697 H 0.14731 0.27771 0.69544 0.0
H2698 H 0.22244 0.33012 0.67468 0.0
H2699 H 0.2454 0.30257 0.70193 0.0
H2700 H 0.20325 0.36064 0.67853 0.0
H2701 H 0.15034 0.27633 0.62439 0.0
H2702 H 0.12245 0.22761 0.61527 0.0
H2703 H 0.06366 0.2362 0.65575 0.0
H2704 H 0.0913 0.28488 0.66535 0.0
H2705 H 0.12669 0.4259 0.58208 0.0
H2706 H 0.15215 0.39772 0.60215 0.0
H2707 H 0.09466 0.36077 0.65368 0.0
H2708 H 0.06847 0.38794 0.63293 0.0
H2709 H 0.10537 0.32338 0.62973 0.0
H2710 H 0.16228 0.411 0.6801 0.0
H2711 H 0.19018 0.45974 0.68163 0.0
H2712 H 0.24203 0.44331 0.63657 0.0
H2713 H 0.2143 0.39452 0.63457 0.0
C2714 C 0.18064 0.26493 0.70629 0.0
C2715 C 0.20865 0.27116 0.70887 0.0
C2716 C 0.16811 0.28252 0.69413 0.0
C2717 C 0.18213 0.30579 0.68108 0.0
C2718 C 0.21033 0.3122 0.6837 0.0
C2719 C 0.22355 0.29578 0.69848 0.0
C2720 C 0.16769 0.32375 0.66613 0.0
C2721 C 0.182 0.35203 0.66737 0.0
C2722 C 0.13961 0.31352 0.65145 0.0
C2723 C 0.12298 0.28422 0.64568 0.0
C2724 C 0.13151 0.2678 0.6314 0.0
C2725 C 0.11574 0.24019 0.62617 0.0
C2726 C 0.09132 0.22882 0.63495 0.0
C2727 C 0.08258 0.24503 0.64896 0.0
C2728 C 0.09826 0.27263 0.65426 0.0
C2729 C 0.11927 0.4117 0.59756 0.0
C2730 C 0.09537 0.40955 0.60582 0.0
C2731 C 0.13415 0.39574 0.60934 0.0
C2732 C 0.12574 0.37725 0.6299 0.0
C2733 C 0.10185 0.37494 0.63806 0.0
C2734 C 0.08695 0.39081 0.62628 0.0
C2735 C 0.14102 0.35957 0.64232 0.0
C2736 C 0.12676 0.3315 0.64062 0.0
C2737 C 0.16927 0.36986 0.65534 0.0
C2738 C 0.18611 0.39915 0.65703 0.0
C2739 C 0.17956 0.41781 0.67043 0.0
C2740 C 0.19536 0.44544 0.67139 0.0
C2741 C 0.21783 0.45462 0.65915 0.0
C2742 C 0.22462 0.43618 0.64603 0.0
C2743 C 0.2089 0.40855 0.64502 0.0
H2744 H 0.23 0.47601 0.65989 0.0
H2745 H 0.07915 0.20745 0.63086 0.0
H2746 H 0.76117 0.21064 0.66475 0.0
H2747 H 0.73679 0.18468 0.6192 0.0
H2748 H 0.66326 0.19377 0.62692 0.0
H2749 H 0.68736 0.21951 0.67173 0.0
H2750 H 0.68879 0.13584 0.6136 0.0
H2751 H 0.63928 0.20768 0.58254 0.0
H2752 H 0.64994 0.25661 0.57808 0.0
H2753 H 0.71807 0.26389 0.54364 0.0
H2754 H 0.70864 0.21539 0.54947 0.0
H2755 H 0.54916 0.08669 0.53749 0.0
H2756 H 0.58985 0.12811 0.55028 0.0
H2757 H 0.63574 0.09136 0.51676 0.0
H2758 H 0.59487 0.04973 0.50412 0.0
H2759 H 0.63522 0.16692 0.53238 0.0
H2760 H 0.68677 0.09372 0.57086 0.0
H2761 H 0.6745 0.04489 0.57779 0.0
H2762 H 0.6002 0.03985 0.5982 0.0
H2763 H 0.61231 0.08868 0.59184 0.0
C2764 C 0.73988 0.2073 0.65634 0.0
C2765 C 0.72616 0.21751 0.67127 0.0
C2766 C 0.7261 0.19273 0.63035 0.0
C2767 C 0.69849 0.18822 0.61917 0.0
C2768 C 0.68487 0.19819 0.63439 0.0
C2769 C 0.69862 0.21284 0.66008 0.0
C2770 C 0.6825 0.17027 0.59362 0.0
C2771 C 0.67785 0.14274 0.59529 0.0
C2772 C 0.66782 0.17914 0.57006 0.0
C2773 C 0.6734 0.20814 0.5666 0.0
C2774 C 0.65665 0.21986 0.57425 0.0
C2775 C 0.6626 0.24753 0.5717 0.0
C2776 C 0.68482 0.26345 0.56081 0.0
C2777 C 0.70115 0.25171 0.55252 0.0
C2778 C 0.69567 0.22419 0.55569 0.0
C2779 C 0.56764 0.088 0.53169 0.0
C2780 C 0.56923 0.06527 0.52012 0.0
C2781 C 0.59082 0.11169 0.5388 0.0
C2782 C 0.61588 0.11262 0.53487 0.0
C2783 C 0.61659 0.09097 0.52006 0.0
C2784 C 0.59335 0.06723 0.51294 0.0
C2785 C 0.64121 0.13241 0.55263 0.0
C2786 C 0.64727 0.16015 0.54979 0.0
C2787 C 0.65707 0.12368 0.57538 0.0
C2788 C 0.65034 0.09468 0.58064 0.0
C2789 C 0.66794 0.08218 0.57703 0.0
C2790 C 0.661 0.05452 0.58083 0.0
C2791 C 0.63655 0.03926 0.58836 0.0
C2792 C 0.61911 0.05167 0.59234 0.0
C2793 C 0.62602 0.07932 0.58869 0.0
H2794 H 0.63115 0.01783 0.59114 0.0
H2795 H 0.68931 0.28483 0.55867 0.0
H2796 H 0.85105 0.27166 0.30838 0.0
H2797 H 0.88511 0.29618 0.35025 0.0
H2798 H 0.82148 0.2884 0.39263 0.0
H2799 H 0.7871 0.2635 0.35079 0.0
H2800 H 0.88028 0.34488 0.36261 0.0
H2801 H 0.85641 0.29542 0.46754 0.0
H2802 H 0.84229 0.24991 0.48632 0.0
H2803 H 0.87487 0.22285 0.4263 0.0
H2804 H 0.8894 0.26806 0.40746 0.0
H2805 H 0.92667 0.44853 0.45899 0.0
H2806 H 0.89465 0.40249 0.44333 0.0
H2807 H 0.96074 0.37416 0.46453 0.0
H2808 H 0.99275 0.42025 0.48117 0.0
H2809 H 0.90461 0.33254 0.46575 0.0
H2810 H 0.95546 0.39538 0.40429 0.0
H2811 H 0.97309 0.44041 0.38534 0.0
H2812 H 0.89155 0.43815 0.35629 0.0
H2813 H 0.87344 0.393 0.37519 0.0
C2814 C 0.84422 0.27444 0.32681 0.0
C2815 C 0.81633 0.2667 0.32582 0.0
C2816 C 0.86377 0.28835 0.35081 0.0
C2817 C 0.85578 0.29436 0.37435 0.0
C2818 C 0.82806 0.28394 0.37467 0.0
C2819 C 0.80845 0.27006 0.35058 0.0
C2820 C 0.87544 0.31616 0.39523 0.0
C2821 C 0.88567 0.34201 0.38511 0.0
C2822 C 0.88253 0.31242 0.42456 0.0
C2823 C 0.87369 0.2851 0.43585 0.0
C2824 C 0.86058 0.27975 0.45839 0.0
C2825 C 0.85249 0.25396 0.46905 0.0
C2826 C 0.85756 0.23341 0.45744 0.0
C2827 C 0.87076 0.23864 0.43519 0.0
C2828 C 0.87886 0.26433 0.42445 0.0
C2829 C 0.93408 0.43222 0.4615 0.0
C2830 C 0.962 0.43771 0.47097 0.0
C2831 C 0.91581 0.40594 0.45274 0.0
C2832 C 0.92542 0.38503 0.45246 0.0
C2833 C 0.95292 0.38998 0.46476 0.0
C2834 C 0.97118 0.41629 0.47404 0.0
C2835 C 0.90879 0.36104 0.43292 0.0
C2836 C 0.89913 0.33508 0.44322 0.0
C2837 C 0.90246 0.36433 0.40347 0.0
C2838 C 0.91316 0.391 0.39128 0.0
C2839 C 0.94133 0.40455 0.39392 0.0
C2840 C 0.9514 0.43009 0.38321 0.0
C2841 C 0.93349 0.44225 0.36975 0.0
C2842 C 0.90542 0.42874 0.36676 0.0
C2843 C 0.89522 0.40315 0.37739 0.0
H2844 H 0.94137 0.46208 0.36156 0.0
H2845 H 0.85133 0.21348 0.46572 0.0
H2846 H 0.70193 0.83539 0.38375 0.0
H2847 H 0.6808 0.86656 0.39205 0.0
H2848 H 0.61867 0.8349 0.31513 0.0
H2849 H 0.64075 0.80455 0.30616 0.0
H2850 H 0.62966 0.88654 0.32173 0.0
H2851 H 0.6095 0.81261 0.38367 0.0
H2852 H 0.62036 0.78243 0.41997 0.0
H2853 H 0.66636 0.85046 0.47924 0.0
H2854 H 0.65606 0.88107 0.44317 0.0
H2855 H 0.53143 0.92787 0.36253 0.0
H2856 H 0.55598 0.90276 0.34775 0.0
H2857 H 0.62142 0.93513 0.4219 0.0
H2858 H 0.59737 0.96057 0.43657 0.0
H2859 H 0.60783 0.88272 0.41573 0.0
H2860 H 0.62793 0.95666 0.35459 0.0
H2861 H 0.61801 0.98737 0.31848 0.0
H2862 H 0.57256 0.92008 0.25818 0.0
H2863 H 0.58193 0.88892 0.29406 0.0
C2864 C 0.68407 0.83552 0.36836 0.0
C2865 C 0.67281 0.81748 0.34445 0.0
C2866 C 0.67182 0.85313 0.37324 0.0
C2867 C 0.64753 0.8525 0.35476 0.0
C2868 C 0.6372 0.83561 0.3299 0.0
C2869 C 0.64982 0.81831 0.32473 0.0
C2870 C 0.63236 0.86847 0.3621 0.0
C2871 C 0.62457 0.88541 0.34215 0.0
C2872 C 0.62609 0.86754 0.38896 0.0
C2873 C 0.63222 0.84913 0.41065 0.0
C2874 C 0.62207 0.82113 0.40439 0.0
C2875 C 0.62811 0.80396 0.42493 0.0
C2876 C 0.6441 0.81453 0.45187 0.0
C2877 C 0.65402 0.8423 0.45836 0.0
C2878 C 0.64807 0.85956 0.43788 0.0
C2879 C 0.55121 0.92997 0.37554 0.0
C2880 C 0.56223 0.94623 0.4009 0.0
C2881 C 0.56525 0.91555 0.36702 0.0
C2882 C 0.59071 0.91715 0.38357 0.0
C2883 C 0.6018 0.93346 0.40877 0.0
C2884 C 0.58785 0.94788 0.41725 0.0
C2885 C 0.60533 0.90099 0.37548 0.0
C2886 C 0.61291 0.88388 0.39529 0.0
C2887 C 0.61137 0.90181 0.34855 0.0
C2888 C 0.60534 0.92044 0.32711 0.0
C2889 C 0.61557 0.94838 0.33372 0.0
C2890 C 0.61011 0.96588 0.31327 0.0
C2891 C 0.59458 0.95567 0.28608 0.0
C2892 C 0.58452 0.92795 0.27927 0.0
C2893 C 0.58992 0.91037 0.29964 0.0
H2894 H 0.5904 0.96926 0.27027 0.0
H2895 H 0.64875 0.8012 0.46774 0.0
H2896 H 0.17012 0.68816 0.24362 0.0
H2897 H 0.14754 0.65898 0.27805 0.0
H2898 H 0.22133 0.69322 0.3434 0.0
H2899 H 0.24352 0.7226 0.30959 0.0
H2900 H 0.15947 0.6204 0.31714 0.0
H2901 H 0.20424 0.70742 0.39873 0.0
H2902 H 0.22442 0.75734 0.40147 0.0
H2903 H 0.17078 0.75852 0.32184 0.0
H2904 H 0.1507 0.70881 0.31841 0.0
H2905 H 0.1087 0.57508 0.44324 0.0
H2906 H 0.1437 0.60259 0.41851 0.0
H2907 H 0.08569 0.63178 0.3661 0.0
H2908 H 0.05048 0.60361 0.38986 0.0
H2909 H 0.1453 0.67205 0.3907 0.0
H2910 H 0.08671 0.58482 0.33764 0.0
H2911 H 0.06716 0.53498 0.33497 0.0
H2912 H 0.14766 0.53362 0.35739 0.0
H2913 H 0.16766 0.58351 0.36077 0.0
C2914 C 0.18154 0.68904 0.26524 0.0
C2915 C 0.20865 0.70727 0.27384 0.0
C2916 C 0.16877 0.67231 0.28478 0.0
C2917 C 0.18283 0.67403 0.31321 0.0
C2918 C 0.21016 0.69161 0.32156 0.0
C2919 C 0.22285 0.7083 0.30214 0.0
C2920 C 0.16804 0.65995 0.33473 0.0
C2921 C 0.15654 0.63164 0.33335 0.0
C2922 C 0.16456 0.67464 0.3561 0.0
C2923 C 0.17609 0.70451 0.3583 0.0
C2924 C 0.19677 0.71842 0.38186 0.0
C2925 C 0.2083 0.74667 0.38344 0.0
C2926 C 0.19905 0.76114 0.3617 0.0
C2927 C 0.17818 0.74739 0.33845 0.0
C2928 C 0.16676 0.71918 0.33665 0.0
C2929 C 0.10367 0.58781 0.42681 0.0
C2930 C 0.07699 0.58723 0.41823 0.0
C2931 C 0.12358 0.60341 0.41276 0.0
C2932 C 0.1171 0.61904 0.39055 0.0
C2933 C 0.09097 0.61983 0.38328 0.0
C2934 C 0.07092 0.60372 0.39674 0.0
C2935 C 0.13639 0.63255 0.37282 0.0
C2936 C 0.14875 0.66077 0.37492 0.0
C2937 C 0.14074 0.61775 0.35224 0.0
C2938 C 0.12866 0.58784 0.34978 0.0
C2939 C 0.10022 0.57389 0.34229 0.0
C2940 C 0.08906 0.54564 0.34061 0.0
C2941 C 0.10617 0.53116 0.34606 0.0
C2942 C 0.13445 0.54488 0.35322 0.0
C2943 C 0.1457 0.57313 0.35503 0.0
H2944 H 0.09754 0.50932 0.3446 0.0
H2945 H 0.20802 0.78299 0.36291 0.0
H2946 H 0.33183 0.24523 0.29171 0.0
H2947 H 0.36375 0.22564 0.31909 0.0
H2948 H 0.29572 0.15282 0.326 0.0
H2949 H 0.2643 0.17235 0.29929 0.0
H2950 H 0.33091 0.16192 0.37311 0.0
H2951 H 0.33635 0.16237 0.27576 0.0
H2952 H 0.34645 0.1792 0.23025 0.0
H2953 H 0.43041 0.22231 0.27144 0.0
H2954 H 0.42065 0.20646 0.31753 0.0
H2955 H 0.39051 0.0632 0.40097 0.0
H2956 H 0.36418 0.09041 0.38052 0.0
H2957 H 0.43854 0.15789 0.37855 0.0
H2958 H 0.46494 0.13045 0.39762 0.0
H2959 H 0.40352 0.15538 0.33191 0.0
H2960 H 0.39859 0.154 0.42892 0.0
H2961 H 0.38949 0.13373 0.47376 0.0
H2962 H 0.30544 0.09082 0.43253 0.0
H2963 H 0.3141 0.11064 0.38736 0.0
C2964 C 0.32376 0.22536 0.29978 0.0
C2965 C 0.29543 0.21044 0.29355 0.0
C2966 C 0.34204 0.21395 0.31511 0.0
C2967 C 0.33236 0.18738 0.32439 0.0
C2968 C 0.304 0.17324 0.31925 0.0
C2969 C 0.28592 0.18451 0.30401 0.0
C2970 C 0.35113 0.17358 0.33877 0.0
C2971 C 0.34667 0.16044 0.36389 0.0
C2972 C 0.37235 0.17195 0.32746 0.0
C2973 C 0.37766 0.18349 0.3002 0.0
C2974 C 0.35684 0.1759 0.27526 0.0
C2975 C 0.36255 0.18517 0.2493 0.0
C2976 C 0.38909 0.20166 0.24789 0.0
C2977 C 0.40987 0.2095 0.27256 0.0
C2978 C 0.40423 0.20048 0.29863 0.0
C2979 C 0.40138 0.08374 0.39602 0.0
C2980 C 0.43011 0.09442 0.4013 0.0
C2981 C 0.3862 0.09951 0.38461 0.0
C2982 C 0.3992 0.12659 0.37834 0.0
C2983 C 0.42782 0.13721 0.38329 0.0
C2984 C 0.443 0.12144 0.39457 0.0
C2985 C 0.38308 0.14359 0.36597 0.0
C2986 C 0.38801 0.15724 0.34129 0.0
C2987 C 0.36233 0.14574 0.37765 0.0
C2988 C 0.35706 0.13363 0.40471 0.0
C2989 C 0.37822 0.14008 0.42937 0.0
C2990 C 0.37313 0.12871 0.45485 0.0
C2991 C 0.34692 0.11095 0.45597 0.0
C2992 C 0.32574 0.10457 0.43162 0.0
C2993 C 0.33071 0.11589 0.40608 0.0
H2994 H 0.34303 0.10216 0.47572 0.0
H2995 H 0.39363 0.20809 0.22767 0.0
H2996 H 0.70067 0.77558 0.7248 0.0
H2997 H 0.67127 0.79942 0.70346 0.0
H2998 H 0.72508 0.83711 0.64806 0.0
H2999 H 0.75655 0.81685 0.6731 0.0
H3000 H 0.71262 0.87191 0.65878 0.0
H3001 H 0.64999 0.78 0.63068 0.0
H3002 H 0.62439 0.73232 0.63855 0.0
H3003 H 0.58561 0.75713 0.69374 0.0
H3004 H 0.6112 0.80496 0.68643 0.0
H3005 H 0.61932 0.9206 0.56635 0.0
H3006 H 0.64577 0.89319 0.5863 0.0
H3007 H 0.61007 0.87964 0.65859 0.0
H3008 H 0.58322 0.90662 0.6386 0.0
H3009 H 0.61174 0.83278 0.63892 0.0
H3010 H 0.67532 0.92531 0.66345 0.0
H3011 H 0.70102 0.97216 0.65299 0.0
H3012 H 0.73721 0.94329 0.59816 0.0
H3013 H 0.71151 0.89625 0.60808 0.0
C3014 C 0.70573 0.78836 0.70746 0.0
C3015 C 0.73033 0.79316 0.6996 0.0
C3016 C 0.6887 0.80203 0.69498 0.0
C3017 C 0.69493 0.81977 0.67304 0.0
C3018 C 0.71924 0.82373 0.66471 0.0
C3019 C 0.73707 0.81147 0.67852 0.0
C3020 C 0.67752 0.83563 0.66009 0.0
C3021 C 0.69055 0.86279 0.65388 0.0
C3022 C 0.6485 0.82479 0.65426 0.0
C3023 C 0.63263 0.79604 0.65813 0.0
C3024 C 0.63602 0.77527 0.64451 0.0
C3025 C 0.62153 0.74823 0.6489 0.0
C3026 C 0.60341 0.7417 0.66666 0.0
C3027 C 0.59965 0.76221 0.67999 0.0
C3028 C 0.61411 0.78928 0.6757 0.0
C3029 C 0.6169 0.91169 0.58641 0.0
C3030 C 0.59911 0.91614 0.60082 0.0
C3031 C 0.63225 0.89611 0.59794 0.0
C3032 C 0.63023 0.88442 0.62419 0.0
C3033 C 0.61216 0.88842 0.6384 0.0
C3034 C 0.59696 0.90415 0.62699 0.0
C3035 C 0.64701 0.86824 0.63693 0.0
C3036 C 0.63384 0.84132 0.64339 0.0
C3037 C 0.67583 0.87897 0.6422 0.0
C3038 C 0.69131 0.90726 0.63632 0.0
C3039 C 0.68861 0.92895 0.64901 0.0
C3040 C 0.70321 0.95554 0.64321 0.0
C3041 C 0.72068 0.9607 0.62487 0.0
C3042 C 0.72365 0.93927 0.61234 0.0
C3043 C 0.7091 0.91265 0.61807 0.0
H3044 H 0.73197 0.9813 0.62041 0.0
H3045 H 0.59225 0.72076 0.67007 0.0
H3046 H 0.7434 0.21526 0.30875 0.0
H3047 H 0.71621 0.19007 0.34139 0.0
H3048 H 0.6538 0.14202 0.27109 0.0
H3049 H 0.68147 0.16698 0.23809 0.0
H3050 H 0.65265 0.18356 0.32841 0.0
H3051 H 0.65947 0.10108 0.29025 0.0
H3052 H 0.68646 0.076 0.28008 0.0
H3053 H 0.73344 0.09153 0.3661 0.0
H3054 H 0.70707 0.11725 0.37652 0.0
H3055 H 0.54329 0.08426 0.37303 0.0
H3056 H 0.57809 0.11107 0.34837 0.0
H3057 H 0.64118 0.11182 0.42111 0.0
H3058 H 0.60625 0.0852 0.4463 0.0
H3059 H 0.64738 0.09557 0.3682 0.0
H3060 H 0.63525 0.16784 0.40919 0.0
H3061 H 0.61077 0.19412 0.42264 0.0
H3062 H 0.57716 0.20096 0.33494 0.0
H3063 H 0.60106 0.17431 0.32096 0.0
C3064 C 0.72384 0.19951 0.30014 0.0
C3065 C 0.71413 0.1936 0.27079 0.0
C3066 C 0.70854 0.18483 0.31889 0.0
C3067 C 0.68332 0.16389 0.30867 0.0
C3068 C 0.6736 0.15769 0.2794 0.0
C3069 C 0.6892 0.1721 0.2606 0.0
C3070 C 0.666 0.15065 0.32847 0.0
C3071 C 0.65109 0.16415 0.33668 0.0
C3072 C 0.6653 0.12604 0.34056 0.0
C3073 C 0.68174 0.11155 0.33396 0.0
C3074 C 0.67592 0.09962 0.3068 0.0
C3075 C 0.69098 0.08513 0.30105 0.0
C3076 C 0.71169 0.08221 0.32241 0.0
C3077 C 0.71741 0.09381 0.34957 0.0
C3078 C 0.70248 0.10841 0.35537 0.0
C3079 C 0.56456 0.09039 0.38395 0.0
C3080 C 0.57209 0.08261 0.41155 0.0
C3081 C 0.5844 0.10573 0.36984 0.0
C3082 C 0.61214 0.11335 0.38293 0.0
C3083 C 0.61982 0.10605 0.41069 0.0
C3084 C 0.5999 0.09102 0.42506 0.0
C3085 C 0.63276 0.12794 0.36678 0.0
C3086 C 0.64869 0.11496 0.35966 0.0
C3087 C 0.63453 0.15321 0.35572 0.0
C3088 C 0.6197 0.1688 0.36404 0.0
C3089 C 0.62237 0.17466 0.39278 0.0
C3090 C 0.60866 0.18969 0.4005 0.0
C3091 C 0.59235 0.19914 0.37966 0.0
C3092 C 0.58975 0.19359 0.35106 0.0
C3093 C 0.60338 0.17853 0.34323 0.0
H3094 H 0.58178 0.21081 0.38568 0.0
H3095 H 0.72331 0.07097 0.31793 0.0
H3096 H 0.77524 0.68751 0.28201 0.0
H3097 H 0.7978 0.65764 0.30446 0.0
H3098 H 0.8694 0.72716 0.34153 0.0
H3099 H 0.84736 0.75682 0.31764 0.0
H3100 H 0.88648 0.69654 0.32231 0.0
H3101 H 0.82364 0.67568 0.38455 0.0
H3102 H 0.77907 0.66121 0.39677 0.0
H3103 H 0.74989 0.5888 0.34373 0.0
H3104 H 0.79491 0.6023 0.33231 0.0
H3105 H 0.95962 0.62987 0.41561 0.0
H3106 H 0.9329 0.65657 0.39515 0.0
H3107 H 0.86738 0.58452 0.35367 0.0
H3108 H 0.89341 0.55735 0.37533 0.0
H3109 H 0.84622 0.61442 0.37292 0.0
H3110 H 0.91287 0.63345 0.31745 0.0
H3111 H 0.95893 0.6476 0.3087 0.0
H3112 H 0.98139 0.72546 0.34928 0.0
H3113 H 0.93553 0.71168 0.35852 0.0
C3114 C 0.79547 0.69642 0.29562 0.0
C3115 C 0.80932 0.72467 0.29835 0.0
C3116 C 0.8085 0.67922 0.3086 0.0
C3117 C 0.83553 0.68982 0.32518 0.0
C3118 C 0.84872 0.71812 0.32889 0.0
C3119 C 0.83593 0.73521 0.3155 0.0
C3120 C 0.85089 0.67191 0.33704 0.0
C3121 C 0.87769 0.67887 0.3338 0.0
C3122 C 0.83955 0.64806 0.35115 0.0
C3123 C 0.81241 0.64013 0.35734 0.0
C3124 C 0.80764 0.65675 0.37539 0.0
C3125 C 0.78234 0.64868 0.38223 0.0
C3126 C 0.76144 0.62433 0.37064 0.0
C3127 C 0.76602 0.60773 0.35257 0.0
C3128 C 0.79151 0.61544 0.34614 0.0
C3129 C 0.93939 0.61946 0.40248 0.0
C3130 C 0.92893 0.59116 0.39734 0.0
C3131 C 0.92419 0.63496 0.39034 0.0
C3132 C 0.89813 0.62284 0.37225 0.0
C3133 C 0.88744 0.5946 0.36732 0.0
C3134 C 0.90258 0.57902 0.3796 0.0
C3135 C 0.88198 0.63951 0.35884 0.0
C3136 C 0.855 0.63217 0.36153 0.0
C3137 C 0.89324 0.66312 0.34434 0.0
C3138 C 0.92085 0.67143 0.3389 0.0
C3139 C 0.9277 0.65352 0.32469 0.0
C3140 C 0.95375 0.66149 0.3196 0.0
C3141 C 0.97309 0.68738 0.3285 0.0
C3142 C 0.96639 0.70539 0.34243 0.0
C3143 C 0.94036 0.69753 0.34757 0.0
H3144 H 0.99325 0.69351 0.32454 0.0
H3145 H 0.74178 0.61824 0.37583 0.0
H3146 H 0.31745 0.83023 0.31787 0.0
H3147 H 0.34576 0.84975 0.36443 0.0
H3148 H 0.33023 0.77006 0.39562 0.0
H3149 H 0.30164 0.75012 0.34888 0.0
H3150 H 0.32639 0.82693 0.42708 0.0
H3151 H 0.38358 0.78065 0.40569 0.0
H3152 H 0.40409 0.76526 0.37285 0.0
H3153 H 0.43689 0.84601 0.34567 0.0
H3154 H 0.41699 0.86193 0.37875 0.0
H3155 H 0.47922 0.9223 0.50229 0.0
H3156 H 0.44373 0.87658 0.49215 0.0
H3157 H 0.3873 0.91014 0.4442 0.0
H3158 H 0.42249 0.95531 0.454 0.0
H3159 H 0.42635 0.85869 0.43758 0.0
H3160 H 0.3237 0.87065 0.43702 0.0
H3161 H 0.30418 0.88814 0.46906 0.0
H3162 H 0.36171 0.87757 0.54067 0.0
H3163 H 0.38155 0.85985 0.50923 0.0
C3164 C 0.31984 0.81677 0.33456 0.0
C3165 C 0.30758 0.78862 0.3295 0.0
C3166 C 0.33603 0.82797 0.36116 0.0
C3167 C 0.34009 0.81129 0.38327 0.0
C3168 C 0.32737 0.78319 0.3787 0.0
C3169 C 0.31122 0.77191 0.35196 0.0
C3170 C 0.35859 0.824 0.41059 0.0
C3171 C 0.34829 0.83352 0.42998 0.0
C3172 C 0.387 0.83187 0.41453 0.0
C3173 C 0.39873 0.82239 0.3945 0.0
C3174 C 0.39505 0.79505 0.39258 0.0
C3175 C 0.40659 0.78625 0.37398 0.0
C3176 C 0.42157 0.80459 0.35701 0.0
C3177 C 0.42524 0.83181 0.35878 0.0
C3178 C 0.41397 0.84076 0.37755 0.0
C3179 C 0.45888 0.91985 0.49054 0.0
C3180 C 0.45352 0.94212 0.47861 0.0
C3181 C 0.43865 0.89379 0.48479 0.0
C3182 C 0.41279 0.88989 0.46748 0.0
C3183 C 0.40686 0.91255 0.45798 0.0
C3184 C 0.42708 0.93839 0.46332 0.0
C3185 C 0.39433 0.86305 0.45362 0.0
C3186 C 0.40458 0.85112 0.43617 0.0
C3187 C 0.36587 0.85305 0.45158 0.0
C3188 C 0.35412 0.86386 0.47069 0.0
C3189 C 0.33211 0.87187 0.45963 0.0
C3190 C 0.32105 0.88194 0.47771 0.0
C3191 C 0.33176 0.88403 0.50693 0.0
C3192 C 0.35357 0.87611 0.51808 0.0
C3193 C 0.36478 0.86609 0.50013 0.0
H3194 H 0.32314 0.89177 0.52092 0.0
H3195 H 0.43043 0.79771 0.34258 0.0
H3196 H 0.19747 0.36168 0.30469 0.0
H3197 H 0.16416 0.38063 0.31035 0.0
H3198 H 0.1745 0.36031 0.39788 0.0
H3199 H 0.20705 0.34085 0.39217 0.0
H3200 H 0.12227 0.34953 0.37468 0.0
H3201 H 0.20739 0.42534 0.37744 0.0
H3202 H 0.24649 0.45392 0.35832 0.0
H3203 H 0.19192 0.46873 0.28641 0.0
H3204 H 0.15247 0.44 0.30498 0.0
H3205 H 0.07528 0.43268 0.43793 0.0
H3206 H 0.10197 0.41044 0.42343 0.0
H3207 H 0.09018 0.44222 0.34065 0.0
H3208 H 0.06506 0.46642 0.35571 0.0
H3209 H 0.14004 0.44585 0.35608 0.0
H3210 H 0.05498 0.37312 0.35459 0.0
H3211 H 0.01558 0.34462 0.37329 0.0
H3212 H 0.0689 0.32336 0.44138 0.0
H3213 H 0.10866 0.35195 0.42325 0.0
C3214 C 0.1923 0.3609 0.325 0.0
C3215 C 0.20519 0.35004 0.34808 0.0
C3216 C 0.17345 0.37198 0.32829 0.0
C3217 C 0.16712 0.37236 0.35471 0.0
C3218 C 0.17911 0.36045 0.37735 0.0
C3219 C 0.1979 0.34948 0.3741 0.0
C3220 C 0.14859 0.38561 0.35934 0.0
C3221 C 0.12625 0.37063 0.37075 0.0
C3222 C 0.15326 0.41297 0.35354 0.0
C3223 C 0.17698 0.4303 0.34244 0.0
C3224 C 0.20373 0.43454 0.35745 0.0
C3225 C 0.22595 0.4508 0.34674 0.0
C3226 C 0.22169 0.46307 0.32113 0.0
C3227 C 0.19519 0.45918 0.30622 0.0
C3228 C 0.17289 0.44294 0.31684 0.0
C3229 C 0.07857 0.43543 0.41672 0.0
C3230 C 0.06806 0.45185 0.3982 0.0
C3231 C 0.09355 0.42216 0.40826 0.0
C3232 C 0.0978 0.42412 0.38071 0.0
C3233 C 0.08716 0.44022 0.362 0.0
C3234 C 0.07248 0.45389 0.37061 0.0
C3235 C 0.11383 0.40985 0.3718 0.0
C3236 C 0.13576 0.42464 0.35965 0.0
C3237 C 0.1087 0.38224 0.37678 0.0
C3238 C 0.08481 0.36481 0.38763 0.0
C3239 C 0.05831 0.36246 0.37363 0.0
C3240 C 0.03592 0.34628 0.38412 0.0
C3241 C 0.03974 0.33222 0.40853 0.0
C3242 C 0.06597 0.33426 0.42247 0.0
C3243 C 0.08844 0.35041 0.41206 0.0
H3244 H 0.02237 0.31971 0.41662 0.0
H3245 H 0.23891 0.47564 0.31287 0.0
H3246 H 0.36264 0.20726 0.61215 0.0
H3247 H 0.38342 0.17682 0.6031 0.0
H3248 H 0.37339 0.14055 0.68268 0.0
H3249 H 0.35581 0.17375 0.69378 0.0
H3250 H 0.4184 0.14359 0.67804 0.0
H3251 H 0.33309 0.10954 0.61044 0.0
H3252 H 0.2951 0.1101 0.5716 0.0
H3253 H 0.34968 0.13916 0.51609 0.0
H3254 H 0.38806 0.13912 0.55467 0.0
H3255 H 0.45742 0.03875 0.63537 0.0
H3256 H 0.43281 0.06401 0.64982 0.0
H3257 H 0.44948 0.11717 0.58167 0.0
H3258 H 0.4741 0.09216 0.5672 0.0
H3259 H 0.39746 0.10033 0.5827 0.0
H3260 H 0.48313 0.13521 0.65404 0.0
H3261 H 0.51902 0.1319 0.6939 0.0
H3262 H 0.45966 0.09653 0.74335 0.0
H3263 H 0.42338 0.09925 0.70365 0.0
C3264 C 0.36521 0.19326 0.62817 0.0
C3265 C 0.35789 0.19366 0.65408 0.0
C3266 C 0.37654 0.17515 0.62251 0.0
C3267 C 0.37951 0.15567 0.64177 0.0
C3268 C 0.37131 0.15524 0.66728 0.0
C3269 C 0.36083 0.1741 0.67346 0.0
C3270 C 0.39263 0.13701 0.63586 0.0
C3271 C 0.41331 0.13371 0.6573 0.0
C3272 C 0.38652 0.12419 0.60873 0.0
C3273 C 0.36348 0.12448 0.58554 0.0
C3274 C 0.33702 0.11623 0.59002 0.0
C3275 C 0.31541 0.11642 0.56802 0.0
C3276 C 0.31998 0.12467 0.5414 0.0
C3277 C 0.34617 0.13275 0.53671 0.0
C3278 C 0.36785 0.13263 0.55862 0.0
C3279 C 0.45626 0.0561 0.62375 0.0
C3280 C 0.46782 0.06339 0.60009 0.0
C3281 C 0.44213 0.07052 0.63203 0.0
C3282 C 0.43944 0.09269 0.61702 0.0
C3283 C 0.4512 0.10014 0.59361 0.0
C3284 C 0.46524 0.08573 0.58528 0.0
C3285 C 0.42344 0.10755 0.62463 0.0
C3286 C 0.40221 0.11004 0.60348 0.0
C3287 C 0.42867 0.11909 0.65213 0.0
C3288 C 0.4505 0.11711 0.67574 0.0
C3289 C 0.4777 0.12645 0.6733 0.0
C3290 C 0.49812 0.12473 0.69589 0.0
C3291 C 0.49161 0.1139 0.72109 0.0
C3292 C 0.46467 0.10482 0.72379 0.0
C3293 C 0.44418 0.10645 0.70126 0.0
H3294 H 0.50745 0.11264 0.73856 0.0
H3295 H 0.30321 0.12477 0.5244 0.0
H3296 H 0.84759 0.3371 0.74294 0.0
H3297 H 0.86692 0.35976 0.70371 0.0
H3298 H 0.80275 0.29835 0.64493 0.0
H3299 H 0.78214 0.27776 0.68337 0.0
H3300 H 0.88857 0.34059 0.67452 0.0
H3301 H 0.79612 0.30511 0.5921 0.0
H3302 H 0.74867 0.30173 0.57432 0.0
H3303 H 0.77016 0.38133 0.60991 0.0
H3304 H 0.81733 0.38435 0.62973 0.0
H3305 H 0.94757 0.37833 0.55627 0.0
H3306 H 0.91126 0.34822 0.57815 0.0
H3307 H 0.89232 0.41616 0.59671 0.0
H3308 H 0.92895 0.44617 0.57594 0.0
H3309 H 0.84536 0.36484 0.58147 0.0
H3310 H 0.9365 0.40682 0.64382 0.0
H3311 H 0.98581 0.41629 0.65618 0.0
H3312 H 0.96903 0.33119 0.65791 0.0
H3313 H 0.91955 0.32127 0.64501 0.0
C3314 C 0.83709 0.32928 0.72142 0.0
C3315 C 0.81309 0.3061 0.71612 0.0
C3316 C 0.84816 0.34205 0.699 0.0
C3317 C 0.83614 0.33112 0.671 0.0
C3318 C 0.81183 0.30818 0.6658 0.0
C3319 C 0.80015 0.29613 0.68805 0.0
C3320 C 0.85107 0.34162 0.6483 0.0
C3321 C 0.87889 0.34575 0.65421 0.0
C3322 C 0.83872 0.34784 0.62132 0.0
C3323 C 0.80986 0.34458 0.61308 0.0
C3324 C 0.79045 0.32153 0.59683 0.0
C3325 C 0.76362 0.31963 0.58648 0.0
C3326 C 0.75628 0.34113 0.59128 0.0
C3327 C 0.77574 0.36447 0.60669 0.0
C3328 C 0.80238 0.36609 0.61796 0.0
C3329 C 0.93501 0.38651 0.56429 0.0
C3330 C 0.94095 0.41438 0.56484 0.0
C3331 C 0.91436 0.3694 0.57668 0.0
C3332 C 0.89929 0.38011 0.58906 0.0
C3333 C 0.90365 0.40757 0.58712 0.0
C3334 C 0.92462 0.42466 0.57545 0.0
C3335 C 0.88253 0.36433 0.6083 0.0
C3336 C 0.85462 0.35916 0.60172 0.0
C3337 C 0.89478 0.35736 0.63475 0.0
C3338 C 0.92442 0.3633 0.64315 0.0
C3339 C 0.94335 0.39015 0.64664 0.0
C3340 C 0.97131 0.39559 0.65375 0.0
C3341 C 0.98056 0.37435 0.65775 0.0
C3342 C 0.96184 0.34762 0.65475 0.0
C3343 C 0.93385 0.34207 0.64752 0.0
H3344 H 1.00221 0.3786 0.66325 0.0
H3345 H 0.73558 0.33979 0.58287 0.0
H3346 H 0.18024 0.69459 0.68981 0.0
H3347 H 0.15011 0.67737 0.64346 0.0
H3348 H 0.214 0.72594 0.60319 0.0
H3349 H 0.24465 0.74257 0.64978 0.0
H3350 H 0.128 0.693 0.59486 0.0
H3351 H 0.21289 0.68853 0.54892 0.0
H3352 H 0.26068 0.69212 0.56472 0.0
H3353 H 0.24483 0.65739 0.64301 0.0
H3354 H 0.19697 0.6532 0.62744 0.0
H3355 H 0.04603 0.58175 0.49597 0.0
H3356 H 0.081 0.62773 0.50693 0.0
H3357 H 0.12992 0.59672 0.57104 0.0
H3358 H 0.09607 0.55136 0.55941 0.0
H3359 H 0.16236 0.63655 0.54799 0.0
H3360 H 0.07881 0.62058 0.58525 0.0
H3361 H 0.02944 0.61112 0.57506 0.0
H3362 H 0.04066 0.67897 0.52233 0.0
H3363 H 0.09006 0.68868 0.53215 0.0
C3364 C 0.1878 0.70185 0.6711 0.0
C3365 C 0.21502 0.71929 0.67341 0.0
C3366 C 0.17044 0.69224 0.64455 0.0
C3367 C 0.17986 0.70006 0.61977 0.0
C3368 C 0.2064 0.71928 0.62199 0.0
C3369 C 0.22396 0.72858 0.64863 0.0
C3370 C 0.16325 0.68465 0.59265 0.0
C3371 C 0.13566 0.68115 0.58409 0.0
C3372 C 0.17318 0.66939 0.57821 0.0
C3373 C 0.20157 0.67085 0.58716 0.0
C3374 C 0.21964 0.68154 0.56942 0.0
C3375 C 0.24672 0.68367 0.57834 0.0
C3376 C 0.25582 0.67505 0.6049 0.0
C3377 C 0.23781 0.66406 0.62248 0.0
C3378 C 0.21072 0.66175 0.6136 0.0
C3379 C 0.06472 0.58481 0.51172 0.0
C3380 C 0.06836 0.56307 0.52693 0.0
C3381 C 0.08458 0.61106 0.51809 0.0
C3382 C 0.10805 0.61579 0.54002 0.0
C3383 C 0.11218 0.59371 0.55391 0.0
C3384 C 0.09261 0.56773 0.54747 0.0
C3385 C 0.12675 0.64334 0.55195 0.0
C3386 C 0.15493 0.64949 0.55746 0.0
C3387 C 0.11724 0.66042 0.56423 0.0
C3388 C 0.08791 0.65522 0.55925 0.0
C3389 C 0.07068 0.63349 0.57156 0.0
C3390 C 0.04274 0.62806 0.56582 0.0
C3391 C 0.03194 0.64438 0.54798 0.0
C3392 C 0.04907 0.66632 0.53608 0.0
C3393 C 0.07702 0.67181 0.54174 0.0
H3394 H 1.01029 0.63998 0.5433 0.0
H3395 H 0.27681 0.67684 0.61183 0.0
loop_
_geom_bond_atom_site_label_1
_geom_bond_atom_site_label_2
_geom_bond_distance
_geom_bond_site_symmetry_2
_ccdc_geom_bond_type
Eu0 N31 2.657 . S
Eu0 N38 2.609 . S
Eu0 O44 2.558 . S
Eu0 O45 2.612 . S
Eu0 O47 2.339 . S
Eu0 O48 2.563 . S
Eu0 O49 2.419 . S
Eu0 O51 2.380 . S
Eu0 O52 2.432 . S
Eu0 C64 2.848 . S
C1 C4 1.429 . S
C1 C5 1.411 . S
C1 N8 1.377 . S
C2 C4 1.420 . S
C2 C6 1.423 . S
C2 C14 1.392 . S
C3 C5 1.420 . S
C3 C6 1.351 . S
C3 H26 0.931 . S
C4 C1 1.429 . S
C4 C2 1.420 . S
C4 N12 1.362 . S
C5 C1 1.411 . S
C5 C3 1.420 . S
C5 C10 1.395 . S
C6 C2 1.423 . S
C6 C3 1.351 . S
C6 H18 0.930 . S
C7 C9 1.400 . S
C7 C10 1.386 . S
C7 H19 0.930 . S
N8 C1 1.377 . S
N8 C9 1.321 . S
N8 Eu11 2.609 . S
C9 C7 1.400 . S
C9 N8 1.321 . S
C9 H16 0.930 . S
C10 C5 1.395 . S
C10 C7 1.386 . S
C10 H29 0.930 . S
Eu11 N8 2.609 . S
Eu11 N12 2.657 . S
Eu11 O45 2.380 . S
Eu11 O46 2.432 . S
Eu11 O50 2.558 . S
Eu11 O51 2.612 . S
Eu11 O53 2.339 . S
Eu11 O54 2.563 . S
Eu11 O55 2.419 . S
Eu11 C75 2.848 . S
N12 C4 1.362 . S
N12 Eu11 2.657 . S
N12 C13 1.334 . S
C13 N12 1.334 . S
C13 C15 1.413 . S
C13 H20 0.929 . S
C14 C2 1.392 . S
C14 C15 1.367 . S
C14 H22 0.930 . S
C15 C13 1.413 . S
C15 C14 1.367 . S
C15 H17 0.930 . S
H16 C9 0.930 . S
H17 C15 0.930 . S
H18 C6 0.930 . S
H19 C7 0.930 . S
H20 C13 0.929 . S
H21 C35 0.930 . S
H22 C14 0.930 . S
H23 C41 0.930 . S
H24 C32 0.929 . S
H25 C39 0.930 . S
H26 C3 0.931 . S
H27 C33 0.930 . S
H28 C66 0.930 . S
H29 C10 0.930 . S
H30 C65 0.931 . S
N31 Eu0 2.657 . S
N31 C32 1.334 . S
N31 C36 1.362 . S
C32 H24 0.929 . S
C32 N31 1.334 . S
C32 C35 1.413 . S
C33 H27 0.930 . S
C33 C34 1.392 . S
C33 C35 1.367 . S
C34 C33 1.392 . S
C34 C36 1.420 . S
C34 C66 1.423 . S
C35 H21 0.930 . S
C35 C32 1.413 . S
C35 C33 1.367 . S
C36 N31 1.362 . S
C36 C34 1.420 . S
C36 C40 1.429 . S
H37 C42 0.930 . S
N38 Eu0 2.609 . S
N38 C40 1.377 . S
N38 C41 1.321 . S
C39 H25 0.930 . S
C39 C41 1.400 . S
C39 C42 1.386 . S
C40 C36 1.429 . S
C40 N38 1.377 . S
C40 C43 1.411 . S
C41 H23 0.930 . S
C41 N38 1.321 . S
C41 C39 1.400 . S
C42 H37 0.930 . S
C42 C39 1.386 . S
C42 C43 1.395 . S
C43 C40 1.411 . S
C43 C42 1.395 . S
C43 C65 1.420 . S
O44 Eu0 2.558 . S
O44 C64 1.257 . S
O45 Eu0 2.612 . S
O45 Eu11 2.380 . S
O45 C56 1.276 . S
O46 Eu11 2.432 . S
O46 C63 1.264 . S
O47 Eu0 2.339 . S
O47 C63 1.254 . S
O48 Eu0 2.563 . S
O48 C56 1.235 . S
O49 Eu0 2.419 . S
O49 C64 1.249 . S
O50 Eu11 2.558 . S
O50 C75 1.257 . S
O51 Eu0 2.380 . S
O51 Eu11 2.612 . S
O51 C67 1.276 . S
O52 Eu0 2.432 . S
O52 C74 1.264 . S
O53 Eu11 2.339 . S
O53 C74 1.254 . S
O54 Eu11 2.563 . S
O54 C67 1.235 . S
O55 Eu11 2.419 . S
O55 C75 1.249 . S
C56 O45 1.276 . S
C56 O48 1.235 . S
C57 C59 1.393 . S
C57 C61 1.395 . S
C57 C64 1.492 . S
C58 C59 1.392 . S
C58 C60 1.386 . S
C59 C57 1.393 . S
C59 C58 1.392 . S
C59 H76 0.930 . S
C60 C58 1.386 . S
C60 C62 1.395 . S
C60 H77 0.930 . S
C61 C57 1.395 . S
C61 C62 1.379 . S
C61 H78 0.930 . S
C62 C60 1.395 . S
C62 C61 1.379 . S
C62 H79 0.930 . S
C63 O46 1.264 . S
C63 O47 1.254 . S
C64 Eu0 2.848 . S
C64 O44 1.257 . S
C64 O49 1.249 . S
C64 C57 1.492 . S
C65 H30 0.931 . S
C65 C43 1.420 . S
C65 C66 1.351 . S
C66 H28 0.930 . S
C66 C34 1.423 . S
C66 C65 1.351 . S
C67 O51 1.276 . S
C67 O54 1.235 . S
C68 C69 1.393 . S
C68 C72 1.395 . S
C68 C75 1.492 . S
C69 C68 1.393 . S
C69 C70 1.392 . S
C69 H80 0.930 . S
C70 C69 1.392 . S
C70 C71 1.386 . S
C71 C70 1.386 . S
C71 C73 1.395 . S
C71 H81 0.930 . S
C72 C68 1.395 . S
C72 C73 1.379 . S
C72 H82 0.930 . S
C73 C71 1.395 . S
C73 C72 1.379 . S
C73 H83 0.930 . S
C74 O52 1.264 . S
C74 O53 1.254 . S
C75 Eu11 2.848 . S
C75 O50 1.257 . S
C75 O55 1.249 . S
C75 C68 1.492 . S
H76 C59 0.930 . S
H77 C60 0.930 . S
H78 C61 0.930 . S
H79 C62 0.930 . S
H80 C69 0.930 . S
H81 C71 0.930 . S
H82 C72 0.930 . S
H83 C73 0.930 . S
Eu84 N115 2.657 . S
Eu84 N122 2.609 . S
Eu84 O128 2.558 . S
Eu84 O129 2.612 . S
Eu84 O131 2.339 . S
Eu84 O132 2.563 . S
Eu84 O133 2.419 . S
Eu84 O135 2.380 . S
Eu84 O136 2.432 . S
Eu84 C148 2.848 . S
C85 C88 1.429 . S
C85 C89 1.411 . S
C85 N92 1.377 . S
C86 C88 1.420 . S
C86 C90 1.423 . S
C86 C98 1.392 . S
C87 C89 1.420 . S
C87 C90 1.351 . S
C87 H110 0.931 . S
C88 C85 1.429 . S
C88 C86 1.420 . S
C88 N96 1.362 . S
C89 C85 1.411 . S
C89 C87 1.420 . S
C89 C94 1.395 . S
C90 C86 1.423 . S
C90 C87 1.351 . S
C90 H102 0.930 . S
C91 C93 1.400 . S
C91 C94 1.386 . S
C91 H103 0.930 . S
N92 C85 1.377 . S
N92 C93 1.321 . S
N92 Eu95 2.609 . S
C93 C91 1.400 . S
C93 N92 1.321 . S
C93 H100 0.930 . S
C94 C89 1.395 . S
C94 C91 1.386 . S
C94 H113 0.930 . S
Eu95 N92 2.609 . S
Eu95 N96 2.657 . S
Eu95 O129 2.380 . S
Eu95 O130 2.432 . S
Eu95 O134 2.558 . S
Eu95 O135 2.612 . S
Eu95 O137 2.339 . S
Eu95 O138 2.563 . S
Eu95 O139 2.419 . S
Eu95 C159 2.848 . S
N96 C88 1.362 . S
N96 Eu95 2.657 . S
N96 C97 1.334 . S
C97 N96 1.334 . S
C97 C99 1.413 . S
C97 H104 0.929 . S
C98 C86 1.392 . S
C98 C99 1.367 . S
C98 H106 0.930 . S
C99 C97 1.413 . S
C99 C98 1.367 . S
C99 H101 0.930 . S
H100 C93 0.930 . S
H101 C99 0.930 . S
H102 C90 0.930 . S
H103 C91 0.930 . S
H104 C97 0.929 . S
H105 C119 0.930 . S
H106 C98 0.930 . S
H107 C125 0.930 . S
H108 C116 0.929 . S
H109 C123 0.930 . S
H110 C87 0.931 . S
H111 C117 0.930 . S
H112 C150 0.930 . S
H113 C94 0.930 . S
H114 C149 0.931 . S
N115 Eu84 2.657 . S
N115 C116 1.334 . S
N115 C120 1.362 . S
C116 H108 0.929 . S
C116 N115 1.334 . S
C116 C119 1.413 . S
C117 H111 0.930 . S
C117 C118 1.392 . S
C117 C119 1.367 . S
C118 C117 1.392 . S
C118 C120 1.420 . S
C118 C150 1.423 . S
C119 H105 0.930 . S
C119 C116 1.413 . S
C119 C117 1.367 . S
C120 N115 1.362 . S
C120 C118 1.420 . S
C120 C124 1.429 . S
H121 C126 0.930 . S
N122 Eu84 2.609 . S
N122 C124 1.377 . S
N122 C125 1.321 . S
C123 H109 0.930 . S
C123 C125 1.400 . S
C123 C126 1.386 . S
C124 C120 1.429 . S
C124 N122 1.377 . S
C124 C127 1.411 . S
C125 H107 0.930 . S
C125 N122 1.321 . S
C125 C123 1.400 . S
C126 H121 0.930 . S
C126 C123 1.386 . S
C126 C127 1.395 . S
C127 C124 1.411 . S
C127 C126 1.395 . S
C127 C149 1.420 . S
O128 Eu84 2.558 . S
O128 C148 1.257 . S
O129 Eu84 2.612 . S
O129 Eu95 2.380 . S
O129 C140 1.276 . S
O130 Eu95 2.432 . S
O130 C147 1.264 . S
O131 Eu84 2.339 . S
O131 C147 1.254 . S
O132 Eu84 2.563 . S
O132 C140 1.235 . S
O133 Eu84 2.419 . S
O133 C148 1.249 . S
O134 Eu95 2.558 . S
O134 C159 1.257 . S
O135 Eu84 2.380 . S
O135 Eu95 2.612 . S
O135 C151 1.276 . S
O136 Eu84 2.432 . S
O136 C158 1.264 . S
O137 Eu95 2.339 . S
O137 C158 1.254 . S
O138 Eu95 2.563 . S
O138 C151 1.235 . S
O139 Eu95 2.419 . S
O139 C159 1.249 . S
C140 O129 1.276 . S
C140 O132 1.235 . S
C141 C143 1.393 . S
C141 C145 1.395 . S
C141 C148 1.492 . S
C142 C143 1.392 . S
C142 C144 1.386 . S
C143 C141 1.393 . S
C143 C142 1.392 . S
C143 H160 0.930 . S
C144 C142 1.386 . S
C144 C146 1.395 . S
C144 H161 0.930 . S
C145 C141 1.395 . S
C145 C146 1.379 . S
C145 H162 0.930 . S
C146 C144 1.395 . S
C146 C145 1.379 . S
C146 H163 0.930 . S
C147 O130 1.264 . S
C147 O131 1.254 . S
C148 Eu84 2.848 . S
C148 O128 1.257 . S
C148 O133 1.249 . S
C148 C141 1.492 . S
C149 H114 0.931 . S
C149 C127 1.420 . S
C149 C150 1.351 . S
C150 H112 0.930 . S
C150 C118 1.423 . S
C150 C149 1.351 . S
C151 O135 1.276 . S
C151 O138 1.235 . S
C152 C153 1.393 . S
C152 C156 1.395 . S
C152 C159 1.492 . S
C153 C152 1.393 . S
C153 C154 1.392 . S
C153 H164 0.930 . S
C154 C153 1.392 . S
C154 C155 1.386 . S
C155 C154 1.386 . S
C155 C157 1.395 . S
C155 H165 0.930 . S
C156 C152 1.395 . S
C156 C157 1.379 . S
C156 H166 0.930 . S
C157 C155 1.395 . S
C157 C156 1.379 . S
C157 H167 0.930 . S
C158 O136 1.264 . S
C158 O137 1.254 . S
C159 Eu95 2.848 . S
C159 O134 1.257 . S
C159 O139 1.249 . S
C159 C152 1.492 . S
H160 C143 0.930 . S
H161 C144 0.930 . S
H162 C145 0.930 . S
H163 C146 0.930 . S
H164 C153 0.930 . S
H165 C155 0.930 . S
H166 C156 0.930 . S
H167 C157 0.930 . S
Eu168 N199 2.657 . S
Eu168 N206 2.609 . S
Eu168 O212 2.558 . S
Eu168 O213 2.612 . S
Eu168 O215 2.339 . S
Eu168 O216 2.563 . S
Eu168 O217 2.419 . S
Eu168 O219 2.380 . S
Eu168 O220 2.432 . S
Eu168 C232 2.848 . S
C169 C172 1.429 . S
C169 C173 1.411 . S
C169 N176 1.377 . S
C170 C172 1.420 . S
C170 C174 1.423 . S
C170 C182 1.392 . S
C171 C173 1.420 . S
C171 C174 1.351 . S
C171 H194 0.931 . S
C172 C169 1.429 . S
C172 C170 1.420 . S
C172 N180 1.362 . S
C173 C169 1.411 . S
C173 C171 1.420 . S
C173 C178 1.395 . S
C174 C170 1.423 . S
C174 C171 1.351 . S
C174 H186 0.930 . S
C175 C177 1.400 . S
C175 C178 1.386 . S
C175 H187 0.930 . S
N176 C169 1.377 . S
N176 C177 1.321 . S
N176 Eu179 2.609 . S
C177 C175 1.400 . S
C177 N176 1.321 . S
C177 H184 0.930 . S
C178 C173 1.395 . S
C178 C175 1.386 . S
C178 H197 0.930 . S
Eu179 N176 2.609 . S
Eu179 N180 2.657 . S
Eu179 O213 2.380 . S
Eu179 O214 2.432 . S
Eu179 O218 2.558 . S
Eu179 O219 2.612 . S
Eu179 O221 2.339 . S
Eu179 O222 2.563 . S
Eu179 O223 2.419 . S
Eu179 C243 2.848 . S
N180 C172 1.362 . S
N180 Eu179 2.657 . S
N180 C181 1.334 . S
C181 N180 1.334 . S
C181 C183 1.413 . S
C181 H188 0.929 . S
C182 C170 1.392 . S
C182 C183 1.367 . S
C182 H190 0.930 . S
C183 C181 1.413 . S
C183 C182 1.367 . S
C183 H185 0.930 . S
H184 C177 0.930 . S
H185 C183 0.930 . S
H186 C174 0.930 . S
H187 C175 0.930 . S
H188 C181 0.929 . S
H189 C203 0.930 . S
H190 C182 0.930 . S
H191 C209 0.930 . S
H192 C200 0.929 . S
H193 C207 0.930 . S
H194 C171 0.931 . S
H195 C201 0.930 . S
H196 C234 0.930 . S
H197 C178 0.930 . S
H198 C233 0.931 . S
N199 Eu168 2.657 . S
N199 C200 1.334 . S
N199 C204 1.362 . S
C200 H192 0.929 . S
C200 N199 1.334 . S
C200 C203 1.413 . S
C201 H195 0.930 . S
C201 C202 1.392 . S
C201 C203 1.367 . S
C202 C201 1.392 . S
C202 C204 1.420 . S
C202 C234 1.423 . S
C203 H189 0.930 . S
C203 C200 1.413 . S
C203 C201 1.367 . S
C204 N199 1.362 . S
C204 C202 1.420 . S
C204 C208 1.429 . S
H205 C210 0.930 . S
N206 Eu168 2.609 . S
N206 C208 1.377 . S
N206 C209 1.321 . S
C207 H193 0.930 . S
C207 C209 1.400 . S
C207 C210 1.386 . S
C208 C204 1.429 . S
C208 N206 1.377 . S
C208 C211 1.411 . S
C209 H191 0.930 . S
C209 N206 1.321 . S
C209 C207 1.400 . S
C210 H205 0.930 . S
C210 C207 1.386 . S
C210 C211 1.395 . S
C211 C208 1.411 . S
C211 C210 1.395 . S
C211 C233 1.420 . S
O212 Eu168 2.558 . S
O212 C232 1.257 . S
O213 Eu168 2.612 . S
O213 Eu179 2.380 . S
O213 C224 1.276 . S
O214 Eu179 2.432 . S
O214 C231 1.264 . S
O215 Eu168 2.339 . S
O215 C231 1.254 . S
O216 Eu168 2.563 . S
O216 C224 1.235 . S
O217 Eu168 2.419 . S
O217 C232 1.249 . S
O218 Eu179 2.558 . S
O218 C243 1.257 . S
O219 Eu168 2.380 . S
O219 Eu179 2.612 . S
O219 C235 1.276 . S
O220 Eu168 2.432 . S
O220 C242 1.264 . S
O221 Eu179 2.339 . S
O221 C242 1.254 . S
O222 Eu179 2.563 . S
O222 C235 1.235 . S
O223 Eu179 2.419 . S
O223 C243 1.249 . S
C224 O213 1.276 . S
C224 O216 1.235 . S
C225 C227 1.393 . S
C225 C229 1.395 . S
C225 C232 1.492 . S
C226 C227 1.392 . S
C226 C228 1.386 . S
C227 C225 1.393 . S
C227 C226 1.392 . S
C227 H244 0.930 . S
C228 C226 1.386 . S
C228 C230 1.395 . S
C228 H245 0.930 . S
C229 C225 1.395 . S
C229 C230 1.379 . S
C229 H246 0.930 . S
C230 C228 1.395 . S
C230 C229 1.379 . S
C230 H247 0.930 . S
C231 O214 1.264 . S
C231 O215 1.254 . S
C232 Eu168 2.848 . S
C232 O212 1.257 . S
C232 O217 1.249 . S
C232 C225 1.492 . S
C233 H198 0.931 . S
C233 C211 1.420 . S
C233 C234 1.351 . S
C234 H196 0.930 . S
C234 C202 1.423 . S
C234 C233 1.351 . S
C235 O219 1.276 . S
C235 O222 1.235 . S
C236 C237 1.393 . S
C236 C240 1.395 . S
C236 C243 1.492 . S
C237 C236 1.393 . S
C237 C238 1.392 . S
C237 H248 0.930 . S
C238 C237 1.392 . S
C238 C239 1.386 . S
C239 C238 1.386 . S
C239 C241 1.395 . S
C239 H249 0.930 . S
C240 C236 1.395 . S
C240 C241 1.379 . S
C240 H250 0.930 . S
C241 C239 1.395 . S
C241 C240 1.379 . S
C241 H251 0.930 . S
C242 O220 1.264 . S
C242 O221 1.254 . S
C243 Eu179 2.848 . S
C243 O218 1.257 . S
C243 O223 1.249 . S
C243 C236 1.492 . S
H244 C227 0.930 . S
H245 C228 0.930 . S
H246 C229 0.930 . S
H247 C230 0.930 . S
H248 C237 0.930 . S
H249 C239 0.930 . S
H250 C240 0.930 . S
H251 C241 0.930 . S
Eu252 N283 2.657 . S
Eu252 N290 2.609 . S
Eu252 O296 2.558 . S
Eu252 O297 2.612 . S
Eu252 O299 2.339 . S
Eu252 O300 2.563 . S
Eu252 O301 2.419 . S
Eu252 O303 2.380 . S
Eu252 O304 2.432 . S
Eu252 C316 2.848 . S
C253 C256 1.429 . S
C253 C257 1.411 . S
C253 N260 1.377 . S
C254 C256 1.420 . S
C254 C258 1.423 . S
C254 C266 1.392 . S
C255 C257 1.420 . S
C255 C258 1.351 . S
C255 H278 0.931 . S
C256 C253 1.429 . S
C256 C254 1.420 . S
C256 N264 1.362 . S
C257 C253 1.411 . S
C257 C255 1.420 . S
C257 C262 1.395 . S
C258 C254 1.423 . S
C258 C255 1.351 . S
C258 H270 0.930 . S
C259 C261 1.400 . S
C259 C262 1.386 . S
C259 H271 0.930 . S
N260 C253 1.377 . S
N260 C261 1.321 . S
N260 Eu263 2.609 . S
C261 C259 1.400 . S
C261 N260 1.321 . S
C261 H268 0.930 . S
C262 C257 1.395 . S
C262 C259 1.386 . S
C262 H281 0.930 . S
Eu263 N260 2.609 . S
Eu263 N264 2.657 . S
Eu263 O297 2.380 . S
Eu263 O298 2.432 . S
Eu263 O302 2.558 . S
Eu263 O303 2.612 . S
Eu263 O305 2.339 . S
Eu263 O306 2.563 . S
Eu263 O307 2.419 . S
Eu263 C327 2.848 . S
N264 C256 1.362 . S
N264 Eu263 2.657 . S
N264 C265 1.334 . S
C265 N264 1.334 . S
C265 C267 1.413 . S
C265 H272 0.929 . S
C266 C254 1.392 . S
C266 C267 1.367 . S
C266 H274 0.930 . S
C267 C265 1.413 . S
C267 C266 1.367 . S
C267 H269 0.930 . S
H268 C261 0.930 . S
H269 C267 0.930 . S
H270 C258 0.930 . S
H271 C259 0.930 . S
H272 C265 0.929 . S
H273 C287 0.930 . S
H274 C266 0.930 . S
H275 C293 0.930 . S
H276 C284 0.929 . S
H277 C291 0.930 . S
H278 C255 0.931 . S
H279 C285 0.930 . S
H280 C318 0.930 . S
H281 C262 0.930 . S
H282 C317 0.931 . S
N283 Eu252 2.657 . S
N283 C284 1.334 . S
N283 C288 1.362 . S
C284 H276 0.929 . S
C284 N283 1.334 . S
C284 C287 1.413 . S
C285 H279 0.930 . S
C285 C286 1.392 . S
C285 C287 1.367 . S
C286 C285 1.392 . S
C286 C288 1.420 . S
C286 C318 1.423 . S
C287 H273 0.930 . S
C287 C284 1.413 . S
C287 C285 1.367 . S
C288 N283 1.362 . S
C288 C286 1.420 . S
C288 C292 1.429 . S
H289 C294 0.930 . S
N290 Eu252 2.609 . S
N290 C292 1.377 . S
N290 C293 1.321 . S
C291 H277 0.930 . S
C291 C293 1.400 . S
C291 C294 1.386 . S
C292 C288 1.429 . S
C292 N290 1.377 . S
C292 C295 1.411 . S
C293 H275 0.930 . S
C293 N290 1.321 . S
C293 C291 1.400 . S
C294 H289 0.930 . S
C294 C291 1.386 . S
C294 C295 1.395 . S
C295 C292 1.411 . S
C295 C294 1.395 . S
C295 C317 1.420 . S
O296 Eu252 2.558 . S
O296 C316 1.257 . S
O297 Eu252 2.612 . S
O297 Eu263 2.380 . S
O297 C308 1.276 . S
O298 Eu263 2.432 . S
O298 C315 1.264 . S
O299 Eu252 2.339 . S
O299 C315 1.254 . S
O300 Eu252 2.563 . S
O300 C308 1.235 . S
O301 Eu252 2.419 . S
O301 C316 1.249 . S
O302 Eu263 2.558 . S
O302 C327 1.257 . S
O303 Eu252 2.380 . S
O303 Eu263 2.612 . S
O303 C319 1.276 . S
O304 Eu252 2.432 . S
O304 C326 1.264 . S
O305 Eu263 2.339 . S
O305 C326 1.254 . S
O306 Eu263 2.563 . S
O306 C319 1.235 . S
O307 Eu263 2.419 . S
O307 C327 1.249 . S
C308 O297 1.276 . S
C308 O300 1.235 . S
C309 C311 1.393 . S
C309 C313 1.395 . S
C309 C316 1.492 . S
C310 C311 1.392 . S
C310 C312 1.386 . S
C311 C309 1.393 . S
C311 C310 1.392 . S
C311 H328 0.930 . S
C312 C310 1.386 . S
C312 C314 1.395 . S
C312 H329 0.930 . S
C313 C309 1.395 . S
C313 C314 1.379 . S
C313 H330 0.930 . S
C314 C312 1.395 . S
C314 C313 1.379 . S
C314 H331 0.930 . S
C315 O298 1.264 . S
C315 O299 1.254 . S
C316 Eu252 2.848 . S
C316 O296 1.257 . S
C316 O301 1.249 . S
C316 C309 1.492 . S
C317 H282 0.931 . S
C317 C295 1.420 . S
C317 C318 1.351 . S
C318 H280 0.930 . S
C318 C286 1.423 . S
C318 C317 1.351 . S
C319 O303 1.276 . S
C319 O306 1.235 . S
C320 C321 1.393 . S
C320 C324 1.395 . S
C320 C327 1.492 . S
C321 C320 1.393 . S
C321 C322 1.392 . S
C321 H332 0.930 . S
C322 C321 1.392 . S
C322 C323 1.386 . S
C323 C322 1.386 . S
C323 C325 1.395 . S
C323 H333 0.930 . S
C324 C320 1.395 . S
C324 C325 1.379 . S
C324 H334 0.930 . S
C325 C323 1.395 . S
C325 C324 1.379 . S
C325 H335 0.930 . S
C326 O304 1.264 . S
C326 O305 1.254 . S
C327 Eu263 2.848 . S
C327 O302 1.257 . S
C327 O307 1.249 . S
C327 C320 1.492 . S
H328 C311 0.930 . S
H329 C312 0.930 . S
H330 C313 0.930 . S
H331 C314 0.930 . S
H332 C321 0.930 . S
H333 C323 0.930 . S
H334 C324 0.930 . S
H335 C325 0.930 . S
Eu336 N367 2.657 . S
Eu336 N374 2.609 . S
Eu336 O380 2.558 . S
Eu336 O381 2.612 . S
Eu336 O383 2.339 . S
Eu336 O384 2.563 . S
Eu336 O385 2.419 . S
Eu336 O387 2.380 . S
Eu336 O388 2.432 . S
Eu336 C400 2.848 . S
C337 C340 1.429 . S
C337 C341 1.411 . S
C337 N344 1.377 . S
C338 C340 1.420 . S
C338 C342 1.423 . S
C338 C350 1.392 . S
C339 C341 1.420 . S
C339 C342 1.351 . S
C339 H362 0.931 . S
C340 C337 1.429 . S
C340 C338 1.420 . S
C340 N348 1.362 . S
C341 C337 1.411 . S
C341 C339 1.420 . S
C341 C346 1.395 . S
C342 C338 1.423 . S
C342 C339 1.351 . S
C342 H354 0.930 . S
C343 C345 1.400 . S
C343 C346 1.386 . S
C343 H355 0.930 . S
N344 C337 1.377 . S
N344 C345 1.321 . S
N344 Eu347 2.609 . S
C345 C343 1.400 . S
C345 N344 1.321 . S
C345 H352 0.930 . S
C346 C341 1.395 . S
C346 C343 1.386 . S
C346 H365 0.930 . S
Eu347 N344 2.609 . S
Eu347 N348 2.657 . S
Eu347 O381 2.380 . S
Eu347 O382 2.432 . S
Eu347 O386 2.558 . S
Eu347 O387 2.612 . S
Eu347 O389 2.339 . S
Eu347 O390 2.563 . S
Eu347 O391 2.419 . S
Eu347 C411 2.848 . S
N348 C340 1.362 . S
N348 Eu347 2.657 . S
N348 C349 1.334 . S
C349 N348 1.334 . S
C349 C351 1.413 . S
C349 H356 0.929 . S
C350 C338 1.392 . S
C350 C351 1.367 . S
C350 H358 0.930 . S
C351 C349 1.413 . S
C351 C350 1.367 . S
C351 H353 0.930 . S
H352 C345 0.930 . S
H353 C351 0.930 . S
H354 C342 0.930 . S
H355 C343 0.930 . S
H356 C349 0.929 . S
H357 C371 0.930 . S
H358 C350 0.930 . S
H359 C377 0.930 . S
H360 C368 0.929 . S
H361 C375 0.930 . S
H362 C339 0.931 . S
H363 C369 0.930 . S
H364 C402 0.930 . S
H365 C346 0.930 . S
H366 C401 0.931 . S
N367 Eu336 2.657 . S
N367 C368 1.334 . S
N367 C372 1.362 . S
C368 H360 0.929 . S
C368 N367 1.334 . S
C368 C371 1.413 . S
C369 H363 0.930 . S
C369 C370 1.392 . S
C369 C371 1.367 . S
C370 C369 1.392 . S
C370 C372 1.420 . S
C370 C402 1.423 . S
C371 H357 0.930 . S
C371 C368 1.413 . S
C371 C369 1.367 . S
C372 N367 1.362 . S
C372 C370 1.420 . S
C372 C376 1.429 . S
H373 C378 0.930 . S
N374 Eu336 2.609 . S
N374 C376 1.377 . S
N374 C377 1.321 . S
C375 H361 0.930 . S
C375 C377 1.400 . S
C375 C378 1.386 . S
C376 C372 1.429 . S
C376 N374 1.377 . S
C376 C379 1.411 . S
C377 H359 0.930 . S
C377 N374 1.321 . S
C377 C375 1.400 . S
C378 H373 0.930 . S
C378 C375 1.386 . S
C378 C379 1.395 . S
C379 C376 1.411 . S
C379 C378 1.395 . S
C379 C401 1.420 . S
O380 Eu336 2.558 . S
O380 C400 1.257 . S
O381 Eu336 2.612 . S
O381 Eu347 2.380 . S
O381 C392 1.276 . S
O382 Eu347 2.432 . S
O382 C399 1.264 . S
O383 Eu336 2.339 . S
O383 C399 1.254 . S
O384 Eu336 2.563 . S
O384 C392 1.235 . S
O385 Eu336 2.419 . S
O385 C400 1.249 . S
O386 Eu347 2.558 . S
O386 C411 1.257 . S
O387 Eu336 2.380 . S
O387 Eu347 2.612 . S
O387 C403 1.276 . S
O388 Eu336 2.432 . S
O388 C410 1.264 . S
O389 Eu347 2.339 . S
O389 C410 1.254 . S
O390 Eu347 2.563 . S
O390 C403 1.235 . S
O391 Eu347 2.419 . S
O391 C411 1.249 . S
C392 O381 1.276 . S
C392 O384 1.235 . S
C393 C395 1.393 . S
C393 C397 1.395 . S
C393 C400 1.492 . S
C394 C395 1.392 . S
C394 C396 1.386 . S
C395 C393 1.393 . S
C395 C394 1.392 . S
C395 H412 0.930 . S
C396 C394 1.386 . S
C396 C398 1.395 . S
C396 H413 0.930 . S
C397 C393 1.395 . S
C397 C398 1.379 . S
C397 H414 0.930 . S
C398 C396 1.395 . S
C398 C397 1.379 . S
C398 H415 0.930 . S
C399 O382 1.264 . S
C399 O383 1.254 . S
C400 Eu336 2.848 . S
C400 O380 1.257 . S
C400 O385 1.249 . S
C400 C393 1.492 . S
C401 H366 0.931 . S
C401 C379 1.420 . S
C401 C402 1.351 . S
C402 H364 0.930 . S
C402 C370 1.423 . S
C402 C401 1.351 . S
C403 O387 1.276 . S
C403 O390 1.235 . S
C404 C405 1.393 . S
C404 C408 1.395 . S
C404 C411 1.492 . S
C405 C404 1.393 . S
C405 C406 1.392 . S
C405 H416 0.930 . S
C406 C405 1.392 . S
C406 C407 1.386 . S
C407 C406 1.386 . S
C407 C409 1.395 . S
C407 H417 0.930 . S
C408 C404 1.395 . S
C408 C409 1.379 . S
C408 H418 0.930 . S
C409 C407 1.395 . S
C409 C408 1.379 . S
C409 H419 0.930 . S
C410 O388 1.264 . S
C410 O389 1.254 . S
C411 Eu347 2.848 . S
C411 O386 1.257 . S
C411 O391 1.249 . S
C411 C404 1.492 . S
H412 C395 0.930 . S
H413 C396 0.930 . S
H414 C397 0.930 . S
H415 C398 0.930 . S
H416 C405 0.930 . S
H417 C407 0.930 . S
H418 C408 0.930 . S
H419 C409 0.930 . S
Eu420 N451 2.657 . S
Eu420 N458 2.609 . S
Eu420 O464 2.558 . S
Eu420 O465 2.612 . S
Eu420 O467 2.339 . S
Eu420 O468 2.563 . S
Eu420 O469 2.419 . S
Eu420 O471 2.380 . S
Eu420 O472 2.432 . S
Eu420 C484 2.848 . S
C421 C424 1.429 . S
C421 C425 1.411 . S
C421 N428 1.377 . S
C422 C424 1.420 . S
C422 C426 1.423 . S
C422 C434 1.392 . S
C423 C425 1.420 . S
C423 C426 1.351 . S
C423 H446 0.931 . S
C424 C421 1.429 . S
C424 C422 1.420 . S
C424 N432 1.362 . S
C425 C421 1.411 . S
C425 C423 1.420 . S
C425 C430 1.395 . S
C426 C422 1.423 . S
C426 C423 1.351 . S
C426 H438 0.930 . S
C427 C429 1.400 . S
C427 C430 1.386 . S
C427 H439 0.930 . S
N428 C421 1.377 . S
N428 C429 1.321 . S
N428 Eu431 2.609 . S
C429 C427 1.400 . S
C429 N428 1.321 . S
C429 H436 0.930 . S
C430 C425 1.395 . S
C430 C427 1.386 . S
C430 H449 0.930 . S
Eu431 N428 2.609 . S
Eu431 N432 2.657 . S
Eu431 O465 2.380 . S
Eu431 O466 2.432 . S
Eu431 O470 2.558 . S
Eu431 O471 2.612 . S
Eu431 O473 2.339 . S
Eu431 O474 2.563 . S
Eu431 O475 2.419 . S
Eu431 C495 2.848 . S
N432 C424 1.362 . S
N432 Eu431 2.657 . S
N432 C433 1.334 . S
C433 N432 1.334 . S
C433 C435 1.413 . S
C433 H440 0.929 . S
C434 C422 1.392 . S
C434 C435 1.367 . S
C434 H442 0.930 . S
C435 C433 1.413 . S
C435 C434 1.367 . S
C435 H437 0.930 . S
H436 C429 0.930 . S
H437 C435 0.930 . S
H438 C426 0.930 . S
H439 C427 0.930 . S
H440 C433 0.929 . S
H441 C455 0.930 . S
H442 C434 0.930 . S
H443 C461 0.930 . S
H444 C452 0.929 . S
H445 C459 0.930 . S
H446 C423 0.931 . S
H447 C453 0.930 . S
H448 C486 0.930 . S
H449 C430 0.930 . S
H450 C485 0.931 . S
N451 Eu420 2.657 . S
N451 C452 1.334 . S
N451 C456 1.362 . S
C452 H444 0.929 . S
C452 N451 1.334 . S
C452 C455 1.413 . S
C453 H447 0.930 . S
C453 C454 1.392 . S
C453 C455 1.367 . S
C454 C453 1.392 . S
C454 C456 1.420 . S
C454 C486 1.423 . S
C455 H441 0.930 . S
C455 C452 1.413 . S
C455 C453 1.367 . S
C456 N451 1.362 . S
C456 C454 1.420 . S
C456 C460 1.429 . S
H457 C462 0.930 . S
N458 Eu420 2.609 . S
N458 C460 1.377 . S
N458 C461 1.321 . S
C459 H445 0.930 . S
C459 C461 1.400 . S
C459 C462 1.386 . S
C460 C456 1.429 . S
C460 N458 1.377 . S
C460 C463 1.411 . S
C461 H443 0.930 . S
C461 N458 1.321 . S
C461 C459 1.400 . S
C462 H457 0.930 . S
C462 C459 1.386 . S
C462 C463 1.395 . S
C463 C460 1.411 . S
C463 C462 1.395 . S
C463 C485 1.420 . S
O464 Eu420 2.558 . S
O464 C484 1.257 . S
O465 Eu420 2.612 . S
O465 Eu431 2.380 . S
O465 C476 1.276 . S
O466 Eu431 2.432 . S
O466 C483 1.264 . S
O467 Eu420 2.339 . S
O467 C483 1.254 . S
O468 Eu420 2.563 . S
O468 C476 1.235 . S
O469 Eu420 2.419 . S
O469 C484 1.249 . S
O470 Eu431 2.558 . S
O470 C495 1.257 . S
O471 Eu420 2.380 . S
O471 Eu431 2.612 . S
O471 C487 1.276 . S
O472 Eu420 2.432 . S
O472 C494 1.264 . S
O473 Eu431 2.339 . S
O473 C494 1.254 . S
O474 Eu431 2.563 . S
O474 C487 1.235 . S
O475 Eu431 2.419 . S
O475 C495 1.249 . S
C476 O465 1.276 . S
C476 O468 1.235 . S
C477 C479 1.393 . S
C477 C481 1.395 . S
C477 C484 1.492 . S
C478 C479 1.392 . S
C478 C480 1.386 . S
C479 C477 1.393 . S
C479 C478 1.392 . S
C479 H496 0.930 . S
C480 C478 1.386 . S
C480 C482 1.395 . S
C480 H497 0.930 . S
C481 C477 1.395 . S
C481 C482 1.379 . S
C481 H498 0.930 . S
C482 C480 1.395 . S
C482 C481 1.379 . S
C482 H499 0.930 . S
C483 O466 1.264 . S
C483 O467 1.254 . S
C484 Eu420 2.848 . S
C484 O464 1.257 . S
C484 O469 1.249 . S
C484 C477 1.492 . S
C485 H450 0.931 . S
C485 C463 1.420 . S
C485 C486 1.351 . S
C486 H448 0.930 . S
C486 C454 1.423 . S
C486 C485 1.351 . S
C487 O471 1.276 . S
C487 O474 1.235 . S
C488 C489 1.393 . S
C488 C492 1.395 . S
C488 C495 1.492 . S
C489 C488 1.393 . S
C489 C490 1.392 . S
C489 H500 0.930 . S
C490 C489 1.392 . S
C490 C491 1.386 . S
C491 C490 1.386 . S
C491 C493 1.395 . S
C491 H501 0.930 . S
C492 C488 1.395 . S
C492 C493 1.379 . S
C492 H502 0.930 . S
C493 C491 1.395 . S
C493 C492 1.379 . S
C493 H503 0.930 . S
C494 O472 1.264 . S
C494 O473 1.254 . S
C495 Eu431 2.848 . S
C495 O470 1.257 . S
C495 O475 1.249 . S
C495 C488 1.492 . S
H496 C479 0.930 . S
H497 C480 0.930 . S
H498 C481 0.930 . S
H499 C482 0.930 . S
H500 C489 0.930 . S
H501 C491 0.930 . S
H502 C492 0.930 . S
H503 C493 0.930 . S
Eu504 N535 2.657 . S
Eu504 N542 2.609 . S
Eu504 O548 2.558 . S
Eu504 O549 2.612 . S
Eu504 O551 2.339 . S
Eu504 O552 2.563 . S
Eu504 O553 2.419 . S
Eu504 O555 2.380 . S
Eu504 O556 2.432 . S
Eu504 C568 2.848 . S
C505 C508 1.429 . S
C505 C509 1.411 . S
C505 N512 1.377 . S
C506 C508 1.420 . S
C506 C510 1.423 . S
C506 C518 1.392 . S
C507 C509 1.420 . S
C507 C510 1.351 . S
C507 H530 0.931 . S
C508 C505 1.429 . S
C508 C506 1.420 . S
C508 N516 1.362 . S
C509 C505 1.411 . S
C509 C507 1.420 . S
C509 C514 1.395 . S
C510 C506 1.423 . S
C510 C507 1.351 . S
C510 H522 0.930 . S
C511 C513 1.400 . S
C511 C514 1.386 . S
C511 H523 0.930 . S
N512 C505 1.377 . S
N512 C513 1.321 . S
N512 Eu515 2.609 . S
C513 C511 1.400 . S
C513 N512 1.321 . S
C513 H520 0.930 . S
C514 C509 1.395 . S
C514 C511 1.386 . S
C514 H533 0.930 . S
Eu515 N512 2.609 . S
Eu515 N516 2.657 . S
Eu515 O549 2.380 . S
Eu515 O550 2.432 . S
Eu515 O554 2.558 . S
Eu515 O555 2.612 . S
Eu515 O557 2.339 . S
Eu515 O558 2.563 . S
Eu515 O559 2.419 . S
Eu515 C579 2.848 . S
N516 C508 1.362 . S
N516 Eu515 2.657 . S
N516 C517 1.334 . S
C517 N516 1.334 . S
C517 C519 1.413 . S
C517 H524 0.929 . S
C518 C506 1.392 . S
C518 C519 1.367 . S
C518 H526 0.930 . S
C519 C517 1.413 . S
C519 C518 1.367 . S
C519 H521 0.930 . S
H520 C513 0.930 . S
H521 C519 0.930 . S
H522 C510 0.930 . S
H523 C511 0.930 . S
H524 C517 0.929 . S
H525 C539 0.930 . S
H526 C518 0.930 . S
H527 C545 0.930 . S
H528 C536 0.929 . S
H529 C543 0.930 . S
H530 C507 0.931 . S
H531 C537 0.930 . S
H532 C570 0.930 . S
H533 C514 0.930 . S
H534 C569 0.931 . S
N535 Eu504 2.657 . S
N535 C536 1.334 . S
N535 C540 1.362 . S
C536 H528 0.929 . S
C536 N535 1.334 . S
C536 C539 1.413 . S
C537 H531 0.930 . S
C537 C538 1.392 . S
C537 C539 1.367 . S
C538 C537 1.392 . S
C538 C540 1.420 . S
C538 C570 1.423 . S
C539 H525 0.930 . S
C539 C536 1.413 . S
C539 C537 1.367 . S
C540 N535 1.362 . S
C540 C538 1.420 . S
C540 C544 1.429 . S
H541 C546 0.930 . S
N542 Eu504 2.609 . S
N542 C544 1.377 . S
N542 C545 1.321 . S
C543 H529 0.930 . S
C543 C545 1.400 . S
C543 C546 1.386 . S
C544 C540 1.429 . S
C544 N542 1.377 . S
C544 C547 1.411 . S
C545 H527 0.930 . S
C545 N542 1.321 . S
C545 C543 1.400 . S
C546 H541 0.930 . S
C546 C543 1.386 . S
C546 C547 1.395 . S
C547 C544 1.411 . S
C547 C546 1.395 . S
C547 C569 1.420 . S
O548 Eu504 2.558 . S
O548 C568 1.257 . S
O549 Eu504 2.612 . S
O549 Eu515 2.380 . S
O549 C560 1.276 . S
O550 Eu515 2.432 . S
O550 C567 1.264 . S
O551 Eu504 2.339 . S
O551 C567 1.254 . S
O552 Eu504 2.563 . S
O552 C560 1.235 . S
O553 Eu504 2.419 . S
O553 C568 1.249 . S
O554 Eu515 2.558 . S
O554 C579 1.257 . S
O555 Eu504 2.380 . S
O555 Eu515 2.612 . S
O555 C571 1.276 . S
O556 Eu504 2.432 . S
O556 C578 1.264 . S
O557 Eu515 2.339 . S
O557 C578 1.254 . S
O558 Eu515 2.563 . S
O558 C571 1.235 . S
O559 Eu515 2.419 . S
O559 C579 1.249 . S
C560 O549 1.276 . S
C560 O552 1.235 . S
C561 C563 1.393 . S
C561 C565 1.395 . S
C561 C568 1.492 . S
C562 C563 1.392 . S
C562 C564 1.386 . S
C563 C561 1.393 . S
C563 C562 1.392 . S
C563 H580 0.930 . S
C564 C562 1.386 . S
C564 C566 1.395 . S
C564 H581 0.930 . S
C565 C561 1.395 . S
C565 C566 1.379 . S
C565 H582 0.930 . S
C566 C564 1.395 . S
C566 C565 1.379 . S
C566 H583 0.930 . S
C567 O550 1.264 . S
C567 O551 1.254 . S
C568 Eu504 2.848 . S
C568 O548 1.257 . S
C568 O553 1.249 . S
C568 C561 1.492 . S
C569 H534 0.931 . S
C569 C547 1.420 . S
C569 C570 1.351 . S
C570 H532 0.930 . S
C570 C538 1.423 . S
C570 C569 1.351 . S
C571 O555 1.276 . S
C571 O558 1.235 . S
C572 C573 1.393 . S
C572 C576 1.395 . S
C572 C579 1.492 . S
C573 C572 1.393 . S
C573 C574 1.392 . S
C573 H584 0.930 . S
C574 C573 1.392 . S
C574 C575 1.386 . S
C575 C574 1.386 . S
C575 C577 1.395 . S
C575 H585 0.930 . S
C576 C572 1.395 . S
C576 C577 1.379 . S
C576 H586 0.930 . S
C577 C575 1.395 . S
C577 C576 1.379 . S
C577 H587 0.930 . S
C578 O556 1.264 . S
C578 O557 1.254 . S
C579 Eu515 2.848 . S
C579 O554 1.257 . S
C579 O559 1.249 . S
C579 C572 1.492 . S
H580 C563 0.930 . S
H581 C564 0.930 . S
H582 C565 0.930 . S
H583 C566 0.930 . S
H584 C573 0.930 . S
H585 C575 0.930 . S
H586 C576 0.930 . S
H587 C577 0.930 . S
Eu588 N619 2.657 . S
Eu588 N626 2.609 . S
Eu588 O632 2.558 . S
Eu588 O633 2.612 . S
Eu588 O635 2.339 . S
Eu588 O636 2.563 . S
Eu588 O637 2.419 . S
Eu588 O639 2.380 . S
Eu588 O640 2.432 . S
Eu588 C652 2.848 . S
C589 C592 1.429 . S
C589 C593 1.411 . S
C589 N596 1.377 . S
C590 C592 1.420 . S
C590 C594 1.423 . S
C590 C602 1.392 . S
C591 C593 1.420 . S
C591 C594 1.351 . S
C591 H614 0.931 . S
C592 C589 1.429 . S
C592 C590 1.420 . S
C592 N600 1.362 . S
C593 C589 1.411 . S
C593 C591 1.420 . S
C593 C598 1.395 . S
C594 C590 1.423 . S
C594 C591 1.351 . S
C594 H606 0.930 . S
C595 C597 1.400 . S
C595 C598 1.386 . S
C595 H607 0.930 . S
N596 C589 1.377 . S
N596 C597 1.321 . S
N596 Eu599 2.609 . S
C597 C595 1.400 . S
C597 N596 1.321 . S
C597 H604 0.930 . S
C598 C593 1.395 . S
C598 C595 1.386 . S
C598 H617 0.930 . S
Eu599 N596 2.609 . S
Eu599 N600 2.657 . S
Eu599 O633 2.380 . S
Eu599 O634 2.432 . S
Eu599 O638 2.558 . S
Eu599 O639 2.612 . S
Eu599 O641 2.339 . S
Eu599 O642 2.563 . S
Eu599 O643 2.419 . S
Eu599 C663 2.848 . S
N600 C592 1.362 . S
N600 Eu599 2.657 . S
N600 C601 1.334 . S
C601 N600 1.334 . S
C601 C603 1.413 . S
C601 H608 0.929 . S
C602 C590 1.392 . S
C602 C603 1.367 . S
C602 H610 0.930 . S
C603 C601 1.413 . S
C603 C602 1.367 . S
C603 H605 0.930 . S
H604 C597 0.930 . S
H605 C603 0.930 . S
H606 C594 0.930 . S
H607 C595 0.930 . S
H608 C601 0.929 . S
H609 C623 0.930 . S
H610 C602 0.930 . S
H611 C629 0.930 . S
H612 C620 0.929 . S
H613 C627 0.930 . S
H614 C591 0.931 . S
H615 C621 0.930 . S
H616 C654 0.930 . S
H617 C598 0.930 . S
H618 C653 0.931 . S
N619 Eu588 2.657 . S
N619 C620 1.334 . S
N619 C624 1.362 . S
C620 H612 0.929 . S
C620 N619 1.334 . S
C620 C623 1.413 . S
C621 H615 0.930 . S
C621 C622 1.392 . S
C621 C623 1.367 . S
C622 C621 1.392 . S
C622 C624 1.420 . S
C622 C654 1.423 . S
C623 H609 0.930 . S
C623 C620 1.413 . S
C623 C621 1.367 . S
C624 N619 1.362 . S
C624 C622 1.420 . S
C624 C628 1.429 . S
H625 C630 0.930 . S
N626 Eu588 2.609 . S
N626 C628 1.377 . S
N626 C629 1.321 . S
C627 H613 0.930 . S
C627 C629 1.400 . S
C627 C630 1.386 . S
C628 C624 1.429 . S
C628 N626 1.377 . S
C628 C631 1.411 . S
C629 H611 0.930 . S
C629 N626 1.321 . S
C629 C627 1.400 . S
C630 H625 0.930 . S
C630 C627 1.386 . S
C630 C631 1.395 . S
C631 C628 1.411 . S
C631 C630 1.395 . S
C631 C653 1.420 . S
O632 Eu588 2.558 . S
O632 C652 1.257 . S
O633 Eu588 2.612 . S
O633 Eu599 2.380 . S
O633 C644 1.276 . S
O634 Eu599 2.432 . S
O634 C651 1.264 . S
O635 Eu588 2.339 . S
O635 C651 1.254 . S
O636 Eu588 2.563 . S
O636 C644 1.235 . S
O637 Eu588 2.419 . S
O637 C652 1.249 . S
O638 Eu599 2.558 . S
O638 C663 1.257 . S
O639 Eu588 2.380 . S
O639 Eu599 2.612 . S
O639 C655 1.276 . S
O640 Eu588 2.432 . S
O640 C662 1.264 . S
O641 Eu599 2.339 . S
O641 C662 1.254 . S
O642 Eu599 2.563 . S
O642 C655 1.235 . S
O643 Eu599 2.419 . S
O643 C663 1.249 . S
C644 O633 1.276 . S
C644 O636 1.235 . S
C645 C647 1.393 . S
C645 C649 1.395 . S
C645 C652 1.492 . S
C646 C647 1.392 . S
C646 C648 1.386 . S
C647 C645 1.393 . S
C647 C646 1.392 . S
C647 H664 0.930 . S
C648 C646 1.386 . S
C648 C650 1.395 . S
C648 H665 0.930 . S
C649 C645 1.395 . S
C649 C650 1.379 . S
C649 H666 0.930 . S
C650 C648 1.395 . S
C650 C649 1.379 . S
C650 H667 0.930 . S
C651 O634 1.264 . S
C651 O635 1.254 . S
C652 Eu588 2.848 . S
C652 O632 1.257 . S
C652 O637 1.249 . S
C652 C645 1.492 . S
C653 H618 0.931 . S
C653 C631 1.420 . S
C653 C654 1.351 . S
C654 H616 0.930 . S
C654 C622 1.423 . S
C654 C653 1.351 . S
C655 O639 1.276 . S
C655 O642 1.235 . S
C656 C657 1.393 . S
C656 C660 1.395 . S
C656 C663 1.492 . S
C657 C656 1.393 . S
C657 C658 1.392 . S
C657 H668 0.930 . S
C658 C657 1.392 . S
C658 C659 1.386 . S
C659 C658 1.386 . S
C659 C661 1.395 . S
C659 H669 0.930 . S
C660 C656 1.395 . S
C660 C661 1.379 . S
C660 H670 0.930 . S
C661 C659 1.395 . S
C661 C660 1.379 . S
C661 H671 0.930 . S
C662 O640 1.264 . S
C662 O641 1.254 . S
C663 Eu599 2.848 . S
C663 O638 1.257 . S
C663 O643 1.249 . S
C663 C656 1.492 . S
H664 C647 0.930 . S
H665 C648 0.930 . S
H666 C649 0.930 . S
H667 C650 0.930 . S
H668 C657 0.930 . S
H669 C659 0.930 . S
H670 C660 0.930 . S
H671 C661 0.930 . S
Cd672 N675 2.334 1_655 S
Cd672 N701 2.304 1_565 S
Cd672 O708 2.268 . S
Cd672 O711 2.273 1_665 S
Cd672 O712 2.417 . S
Cd672 O713 2.330 . S
Cd673 N688 2.304 1_455 S
Cd673 N692 2.334 1_545 S
Cd673 O709 2.273 1_445 S
Cd673 O710 2.268 . S
Cd673 O714 2.417 . S
Cd673 O715 2.330 . S
C674 N675 1.332 . S
C674 C678 1.381 . S
C674 H680 0.931 . S
N675 Cd672 2.334 1_455 S
N675 C674 1.332 . S
N675 C679 1.328 . S
C676 C677 1.396 . S
C676 C679 1.378 . S
C676 H718 0.931 . S
C677 C676 1.396 . S
C677 C678 1.382 . S
C678 C674 1.381 . S
C678 C677 1.382 . S
C678 H719 0.930 . S
C679 N675 1.328 . S
C679 C676 1.378 . S
C679 H681 0.930 1_455 S
H680 C674 0.931 . S
H681 C679 0.930 1_655 S
C682 O708 1.238 . S
C682 O709 1.253 . S
C683 C684 1.379 . S
C683 N688 1.337 . S
C683 H689 0.929 . S
C684 C683 1.379 . S
C684 C685 1.380 . S
C684 H720 0.929 . S
C685 C684 1.380 . S
C685 C686 1.399 . S
C686 C685 1.399 . S
C686 C687 1.376 . S
C686 H721 0.931 . S
C687 C686 1.376 . S
C687 N688 1.338 . S
C687 H690 0.930 1_655 S
N688 Cd673 2.304 1_655 S
N688 C683 1.337 . S
N688 C687 1.338 . S
H689 C683 0.929 . S
H690 C687 0.930 1_455 S
C691 N692 1.332 . S
C691 C695 1.381 . S
C691 H697 0.931 . S
N692 Cd673 2.334 1_565 S
N692 C691 1.332 . S
N692 C696 1.328 . S
C693 C694 1.396 . S
C693 C696 1.378 . S
C693 H722 0.931 . S
C694 C693 1.396 . S
C694 C695 1.382 . S
C695 C691 1.381 . S
C695 C694 1.382 . S
C695 H723 0.930 . S
C696 N692 1.328 . S
C696 C693 1.378 . S
C696 H698 0.930 1_565 S
H697 C691 0.931 . S
H698 C696 0.930 1_545 S
C699 O710 1.238 . S
C699 O711 1.253 . S
C700 O712 1.239 . S
C700 O713 1.230 . S
N701 Cd672 2.304 1_545 S
N701 C702 1.337 . S
N701 C706 1.338 . S
C702 N701 1.337 . S
C702 C703 1.379 . S
C702 H716 0.929 . S
C703 C702 1.379 . S
C703 C704 1.380 . S
C703 H724 0.929 . S
C704 C703 1.380 . S
C704 C705 1.399 . S
C705 C704 1.399 . S
C705 C706 1.376 . S
C705 H725 0.931 . S
C706 N701 1.338 . S
C706 C705 1.376 . S
C706 H717 0.930 1_545 S
C707 O714 1.239 . S
C707 O715 1.230 . S
O708 Cd672 2.268 . S
O708 C682 1.238 . S
O709 Cd673 2.273 1_665 S
O709 C682 1.253 . S
O710 Cd673 2.268 . S
O710 C699 1.238 . S
O711 Cd672 2.273 1_445 S
O711 C699 1.253 . S
O712 Cd672 2.417 . S
O712 C700 1.239 . S
O713 Cd672 2.330 . S
O713 C700 1.230 . S
O714 Cd673 2.417 . S
O714 C707 1.239 . S
O715 Cd673 2.330 . S
O715 C707 1.230 . S
H716 C702 0.929 . S
H717 C706 0.930 1_565 S
H718 C676 0.931 . S
H719 C678 0.930 . S
H720 C684 0.929 . S
H721 C686 0.931 . S
H722 C693 0.931 . S
H723 C695 0.930 . S
H724 C703 0.929 . S
H725 C705 0.931 . S
Cd726 N729 2.334 . S
Cd726 N755 2.304 1_565 S
Cd726 O762 2.268 1_554 S
Cd726 O765 2.273 1_565 S
Cd726 O766 2.417 . S
Cd726 O767 2.330 . S
Cd727 N742 2.304 . S
Cd727 N746 2.334 1_545 S
Cd727 O763 2.273 1_545 S
Cd727 O764 2.268 1_556 S
Cd727 O768 2.417 . S
Cd727 O769 2.330 . S
C728 N729 1.332 . S
C728 C732 1.381 . S
C728 H734 0.931 . S
N729 Cd726 2.334 . S
N729 C728 1.332 . S
N729 C733 1.328 . S
C730 C731 1.396 . S
C730 C733 1.378 . S
C730 H772 0.931 . S
C731 C730 1.396 . S
C731 C732 1.382 . S
C732 C728 1.381 . S
C732 C731 1.382 . S
C732 H773 0.930 . S
C733 N729 1.328 . S
C733 C730 1.378 . S
C733 H735 0.930 . S
H734 C728 0.931 . S
H735 C733 0.930 . S
C736 O762 1.238 . S
C736 O763 1.253 . S
C737 C738 1.379 . S
C737 N742 1.337 . S
C737 H743 0.929 . S
C738 C737 1.379 . S
C738 C739 1.380 . S
C738 H774 0.929 . S
C739 C738 1.380 . S
C739 C740 1.399 . S
C740 C739 1.399 . S
C740 C741 1.376 . S
C740 H775 0.945 . S
C741 C740 1.376 . S
C741 N742 1.338 . S
C741 H744 0.930 1_556 S
N742 Cd727 2.304 . S
N742 C737 1.337 . S
N742 C741 1.338 . S
H743 C737 0.929 . S
H744 C741 0.930 1_554 S
C745 N746 1.332 . S
C745 C749 1.381 . S
C745 H751 0.931 . S
N746 Cd727 2.334 1_565 S
N746 C745 1.332 . S
N746 C750 1.328 . S
C747 C748 1.396 . S
C747 C750 1.378 . S
C747 H776 0.931 1_556 S
C748 C747 1.396 . S
C748 C749 1.382 . S
C749 C745 1.381 . S
C749 C748 1.382 . S
C749 H777 0.930 . S
C750 N746 1.328 . S
C750 C747 1.378 . S
C750 H752 0.930 1_566 S
H751 C745 0.931 . S
H752 C750 0.930 1_544 S
C753 O764 1.238 . S
C753 O765 1.253 . S
C754 O766 1.239 . S
C754 O767 1.230 . S
N755 Cd726 2.304 1_545 S
N755 C756 1.337 . S
N755 C760 1.338 . S
C756 N755 1.337 . S
C756 C757 1.379 . S
C756 H770 0.929 . S
C757 C756 1.379 . S
C757 C758 1.380 . S
C757 H778 0.929 . S
C758 C757 1.380 . S
C758 C759 1.399 . S
C759 C758 1.399 . S
C759 C760 1.376 . S
C759 H779 0.931 1_554 S
C760 N755 1.338 . S
C760 C759 1.376 . S
C760 H771 0.930 1_544 S
C761 O768 1.239 . S
C761 O769 1.230 . S
O762 Cd726 2.268 1_556 S
O762 C736 1.238 . S
O763 Cd727 2.273 1_565 S
O763 C736 1.253 . S
O764 Cd727 2.268 1_554 S
O764 C753 1.238 . S
O765 Cd726 2.273 1_545 S
O765 C753 1.253 . S
O766 Cd726 2.417 . S
O766 C754 1.239 . S
O767 Cd726 2.330 . S
O767 C754 1.230 . S
O768 Cd727 2.417 . S
O768 C761 1.239 . S
O769 Cd727 2.330 . S
O769 C761 1.230 . S
H770 C756 0.929 . S
H771 C760 0.930 1_566 S
H772 C730 0.931 . S
H773 C732 0.930 . S
H774 C738 0.929 . S
H775 C740 0.945 . S
H776 C747 0.931 1_554 S
H777 C749 0.930 . S
H778 C757 0.929 . S
H779 C759 0.931 1_556 S
Cd780 N783 2.334 1_655 S
Cd780 N809 2.304 . S
Cd780 O816 2.268 1_554 S
Cd780 O819 2.273 1_655 S
Cd780 O820 2.417 . S
Cd780 O821 2.330 . S
Cd781 N796 2.304 1_455 S
Cd781 N800 2.334 . S
Cd781 O817 2.273 1_455 S
Cd781 O818 2.268 1_556 S
Cd781 O822 2.417 . S
Cd781 O823 2.330 . S
C782 N783 1.332 . S
C782 C786 1.381 . S
C782 H788 0.931 . S
N783 Cd780 2.334 1_455 S
N783 C782 1.332 . S
N783 C787 1.328 . S
C784 C785 1.396 . S
C784 C787 1.378 . S
C784 H826 0.931 . S
C785 C784 1.396 . S
C785 C786 1.382 . S
C786 C782 1.381 . S
C786 C785 1.382 . S
C786 H827 0.930 . S
C787 N783 1.328 . S
C787 C784 1.378 . S
C787 H789 0.930 1_455 S
H788 C782 0.931 . S
H789 C787 0.930 1_655 S
C790 O816 1.238 . S
C790 O817 1.253 . S
C791 C792 1.379 . S
C791 N796 1.337 . S
C791 H797 0.929 . S
C792 C791 1.379 . S
C792 C793 1.380 . S
C792 H828 0.929 . S
C793 C792 1.380 . S
C793 C794 1.399 . S
C794 C793 1.399 . S
C794 C795 1.376 . S
C794 H829 0.945 . S
C795 C794 1.376 . S
C795 N796 1.338 . S
C795 H798 0.930 1_656 S
N796 Cd781 2.304 1_655 S
N796 C791 1.337 . S
N796 C795 1.338 . S
H797 C791 0.929 . S
H798 C795 0.930 1_454 S
C799 N800 1.332 . S
C799 C803 1.381 . S
C799 H805 0.931 . S
N800 Cd781 2.334 . S
N800 C799 1.332 . S
N800 C804 1.328 . S
C801 C802 1.396 . S
C801 C804 1.378 . S
C801 H830 0.931 1_556 S
C802 C801 1.396 . S
C802 C803 1.382 . S
C803 C799 1.381 . S
C803 C802 1.382 . S
C803 H831 0.930 . S
C804 N800 1.328 . S
C804 C801 1.378 . S
C804 H806 0.930 1_556 S
H805 C799 0.931 . S
H806 C804 0.930 1_554 S
C807 O818 1.238 . S
C807 O819 1.253 . S
C808 O820 1.239 . S
C808 O821 1.230 . S
N809 Cd780 2.304 . S
N809 C810 1.337 . S
N809 C814 1.338 . S
C810 N809 1.337 . S
C810 C811 1.379 . S
C810 H824 0.929 . S
C811 C810 1.379 . S
C811 C812 1.380 . S
C811 H832 0.929 . S
C812 C811 1.380 . S
C812 C813 1.399 . S
C813 C812 1.399 . S
C813 C814 1.376 . S
C813 H833 0.931 1_554 S
C814 N809 1.338 . S
C814 C813 1.376 . S
C814 H825 0.930 1_554 S
C815 O822 1.239 . S
C815 O823 1.230 . S
O816 Cd780 2.268 1_556 S
O816 C790 1.238 . S
O817 Cd781 2.273 1_655 S
O817 C790 1.253 . S
O818 Cd781 2.268 1_554 S
O818 C807 1.238 . S
O819 Cd780 2.273 1_455 S
O819 C807 1.253 . S
O820 Cd780 2.417 . S
O820 C808 1.239 . S
O821 Cd780 2.330 . S
O821 C808 1.230 . S
O822 Cd781 2.417 . S
O822 C815 1.239 . S
O823 Cd781 2.330 . S
O823 C815 1.230 . S
H824 C810 0.929 . S
H825 C814 0.930 1_556 S
H826 C784 0.931 . S
H827 C786 0.930 . S
H828 C792 0.929 . S
H829 C794 0.945 . S
H830 C801 0.931 1_554 S
H831 C803 0.930 . S
H832 C811 0.929 . S
H833 C813 0.931 1_556 S
Cd834 N837 2.334 . S
Cd834 N863 2.304 . S
Cd834 O870 2.268 1_554 S
Cd834 O873 2.273 . S
Cd834 O874 2.417 . S
Cd834 O875 2.330 . S
Cd835 N850 2.304 . S
Cd835 N854 2.334 . S
Cd835 O871 2.273 . S
Cd835 O872 2.268 1_556 S
Cd835 O876 2.417 . S
Cd835 O877 2.330 . S
C836 N837 1.332 . S
C836 C840 1.381 . S
C836 H842 0.931 . S
N837 Cd834 2.334 . S
N837 C836 1.332 . S
N837 C841 1.328 . S
C838 C839 1.396 . S
C838 C841 1.378 . S
C838 H880 0.931 . S
C839 C838 1.396 . S
C839 C840 1.382 . S
C840 C836 1.381 . S
C840 C839 1.382 . S
C840 H881 0.930 . S
C841 N837 1.328 . S
C841 C838 1.378 . S
C841 H843 0.930 . S
H842 C836 0.931 . S
H843 C841 0.930 . S
C844 O870 1.238 . S
C844 O871 1.253 . S
C845 C846 1.379 . S
C845 N850 1.337 . S
C845 H851 0.929 . S
C846 C845 1.379 . S
C846 C847 1.380 . S
C846 H882 0.929 . S
C847 C846 1.380 . S
C847 C848 1.399 . S
C848 C847 1.399 . S
C848 C849 1.376 . S
C848 H883 0.945 . S
C849 C848 1.376 . S
C849 N850 1.338 . S
C849 H852 0.930 1_556 S
N850 Cd835 2.304 . S
N850 C845 1.337 . S
N850 C849 1.338 . S
H851 C845 0.929 . S
H852 C849 0.930 1_554 S
C853 N854 1.332 . S
C853 C857 1.381 . S
C853 H859 0.931 . S
N854 Cd835 2.334 . S
N854 C853 1.332 . S
N854 C858 1.328 . S
C855 C856 1.396 . S
C855 C858 1.378 . S
C855 H884 0.931 1_556 S
C856 C855 1.396 . S
C856 C857 1.382 . S
C857 C853 1.381 . S
C857 C856 1.382 . S
C857 H885 0.930 . S
C858 N854 1.328 . S
C858 C855 1.378 . S
C858 H860 0.930 1_556 S
H859 C853 0.931 . S
H860 C858 0.930 1_554 S
C861 O872 1.238 . S
C861 O873 1.253 . S
C862 O874 1.239 . S
C862 O875 1.230 . S
N863 Cd834 2.304 . S
N863 C864 1.337 . S
N863 C868 1.338 . S
C864 N863 1.337 . S
C864 C865 1.379 . S
C864 H878 0.929 . S
C865 C864 1.379 . S
C865 C866 1.380 . S
C865 H886 0.929 . S
C866 C865 1.380 . S
C866 C867 1.399 . S
C867 C866 1.399 . S
C867 C868 1.376 . S
C867 H887 0.931 1_554 S
C868 N863 1.338 . S
C868 C867 1.376 . S
C868 H879 0.930 1_554 S
C869 O876 1.239 . S
C869 O877 1.230 . S
O870 Cd834 2.268 1_556 S
O870 C844 1.238 . S
O871 Cd835 2.273 . S
O871 C844 1.253 . S
O872 Cd835 2.268 1_554 S
O872 C861 1.238 . S
O873 Cd834 2.273 . S
O873 C861 1.253 . S
O874 Cd834 2.417 . S
O874 C862 1.239 . S
O875 Cd834 2.330 . S
O875 C862 1.230 . S
O876 Cd835 2.417 . S
O876 C869 1.239 . S
O877 Cd835 2.330 . S
O877 C869 1.230 . S
H878 C864 0.929 . S
H879 C868 0.930 1_556 S
H880 C838 0.931 . S
H881 C840 0.930 . S
H882 C846 0.929 . S
H883 C848 0.945 . S
H884 C855 0.931 1_554 S
H885 C857 0.930 . S
H886 C865 0.929 . S
H887 C867 0.931 1_556 S
Cd888 N891 2.334 1_655 S
Cd888 N917 2.304 . S
Cd888 O924 2.268 . S
Cd888 O927 2.273 1_655 S
Cd888 O928 2.417 . S
Cd888 O929 2.330 . S
Cd889 N904 2.304 1_455 S
Cd889 N908 2.334 . S
Cd889 O925 2.273 1_455 S
Cd889 O926 2.268 . S
Cd889 O930 2.417 . S
Cd889 O931 2.330 . S
C890 N891 1.332 . S
C890 C894 1.381 . S
C890 H896 0.931 . S
N891 Cd888 2.334 1_455 S
N891 C890 1.332 . S
N891 C895 1.328 . S
C892 C893 1.396 . S
C892 C895 1.378 . S
C892 H934 0.931 . S
C893 C892 1.396 . S
C893 C894 1.382 . S
C894 C890 1.381 . S
C894 C893 1.382 . S
C894 H935 0.930 . S
C895 N891 1.328 . S
C895 C892 1.378 . S
C895 H897 0.930 1_455 S
H896 C890 0.931 . S
H897 C895 0.930 1_655 S
C898 O924 1.238 . S
C898 O925 1.253 . S
C899 C900 1.379 . S
C899 N904 1.337 . S
C899 H905 0.929 . S
C900 C899 1.379 . S
C900 C901 1.380 . S
C900 H936 0.929 . S
C901 C900 1.380 . S
C901 C902 1.399 . S
C902 C901 1.399 . S
C902 C903 1.376 . S
C902 H937 0.931 . S
C903 C902 1.376 . S
C903 N904 1.338 . S
C903 H906 0.930 1_655 S
N904 Cd889 2.304 1_655 S
N904 C899 1.337 . S
N904 C903 1.338 . S
H905 C899 0.929 . S
H906 C903 0.930 1_455 S
C907 N908 1.332 . S
C907 C911 1.381 . S
C907 H913 0.931 . S
N908 Cd889 2.334 . S
N908 C907 1.332 . S
N908 C912 1.328 . S
C909 C910 1.396 . S
C909 C912 1.378 . S
C909 H938 0.931 . S
C910 C909 1.396 . S
C910 C911 1.382 . S
C911 C907 1.381 . S
C911 C910 1.382 . S
C911 H939 0.930 . S
C912 N908 1.328 . S
C912 C909 1.378 . S
C912 H914 0.930 . S
H913 C907 0.931 . S
H914 C912 0.930 . S
C915 O926 1.238 . S
C915 O927 1.253 . S
C916 O928 1.239 . S
C916 O929 1.230 . S
N917 Cd888 2.304 . S
N917 C918 1.337 . S
N917 C922 1.338 . S
C918 N917 1.337 . S
C918 C919 1.379 . S
C918 H932 0.929 . S
C919 C918 1.379 . S
C919 C920 1.380 . S
C919 H940 0.929 . S
C920 C919 1.380 . S
C920 C921 1.399 . S
C921 C920 1.399 . S
C921 C922 1.376 . S
C921 H941 0.931 . S
C922 N917 1.338 . S
C922 C921 1.376 . S
C922 H933 0.930 . S
C923 O930 1.239 . S
C923 O931 1.230 . S
O924 Cd888 2.268 . S
O924 C898 1.238 . S
O925 Cd889 2.273 1_655 S
O925 C898 1.253 . S
O926 Cd889 2.268 . S
O926 C915 1.238 . S
O927 Cd888 2.273 1_455 S
O927 C915 1.253 . S
O928 Cd888 2.417 . S
O928 C916 1.239 . S
O929 Cd888 2.330 . S
O929 C916 1.230 . S
O930 Cd889 2.417 . S
O930 C923 1.239 . S
O931 Cd889 2.330 . S
O931 C923 1.230 . S
H932 C918 0.929 . S
H933 C922 0.930 . S
H934 C892 0.931 . S
H935 C894 0.930 . S
H936 C900 0.929 . S
H937 C902 0.931 . S
H938 C909 0.931 . S
H939 C911 0.930 . S
H940 C919 0.929 . S
H941 C921 0.931 . S
Cd942 N945 2.334 . S
Cd942 N971 2.304 1_565 S
Cd942 O978 2.268 . S
Cd942 O981 2.273 1_565 S
Cd942 O982 2.417 . S
Cd942 O983 2.330 . S
Cd943 N958 2.304 . S
Cd943 N962 2.334 1_545 S
Cd943 O979 2.273 1_545 S
Cd943 O980 2.268 . S
Cd943 O984 2.417 . S
Cd943 O985 2.330 . S
C944 N945 1.332 . S
C944 C948 1.381 . S
C944 H950 0.931 . S
N945 Cd942 2.334 . S
N945 C944 1.332 . S
N945 C949 1.328 . S
C946 C947 1.396 . S
C946 C949 1.378 . S
C946 H988 0.931 . S
C947 C946 1.396 . S
C947 C948 1.382 . S
C948 C944 1.381 . S
C948 C947 1.382 . S
C948 H989 0.930 . S
C949 N945 1.328 . S
C949 C946 1.378 . S
C949 H951 0.930 . S
H950 C944 0.931 . S
H951 C949 0.930 . S
C952 O978 1.238 . S
C952 O979 1.253 . S
C953 C954 1.379 . S
C953 N958 1.337 . S
C953 H959 0.929 . S
C954 C953 1.379 . S
C954 C955 1.380 . S
C954 H990 0.929 . S
C955 C954 1.380 . S
C955 C956 1.399 . S
C956 C955 1.399 . S
C956 C957 1.376 . S
C956 H991 0.931 . S
C957 C956 1.376 . S
C957 N958 1.338 . S
C957 H960 0.930 . S
N958 Cd943 2.304 . S
N958 C953 1.337 . S
N958 C957 1.338 . S
H959 C953 0.929 . S
H960 C957 0.930 . S
C961 N962 1.332 . S
C961 C965 1.381 . S
C961 H967 0.931 . S
N962 Cd943 2.334 1_565 S
N962 C961 1.332 . S
N962 C966 1.328 . S
C963 C964 1.396 . S
C963 C966 1.378 . S
C963 H992 0.931 . S
C964 C963 1.396 . S
C964 C965 1.382 . S
C965 C961 1.381 . S
C965 C964 1.382 . S
C965 H993 0.930 . S
C966 N962 1.328 . S
C966 C963 1.378 . S
C966 H968 0.930 1_565 S
H967 C961 0.931 . S
H968 C966 0.930 1_545 S
C969 O980 1.238 . S
C969 O981 1.253 . S
C970 O982 1.239 . S
C970 O983 1.230 . S
N971 Cd942 2.304 1_545 S
N971 C972 1.337 . S
N971 C976 1.338 . S
C972 N971 1.337 . S
C972 C973 1.379 . S
C972 H986 0.929 . S
C973 C972 1.379 . S
C973 C974 1.380 . S
C973 H994 0.929 . S
C974 C973 1.380 . S
C974 C975 1.399 . S
C975 C974 1.399 . S
C975 C976 1.376 . S
C975 H995 0.931 . S
C976 N971 1.338 . S
C976 C975 1.376 . S
C976 H987 0.930 1_545 S
C977 O984 1.239 . S
C977 O985 1.230 . S
O978 Cd942 2.268 . S
O978 C952 1.238 . S
O979 Cd943 2.273 1_565 S
O979 C952 1.253 . S
O980 Cd943 2.268 . S
O980 C969 1.238 . S
O981 Cd942 2.273 1_545 S
O981 C969 1.253 . S
O982 Cd942 2.417 . S
O982 C970 1.239 . S
O983 Cd942 2.330 . S
O983 C970 1.230 . S
O984 Cd943 2.417 . S
O984 C977 1.239 . S
O985 Cd943 2.330 . S
O985 C977 1.230 . S
H986 C972 0.929 . S
H987 C976 0.930 1_565 S
H988 C946 0.931 . S
H989 C948 0.930 . S
H990 C954 0.929 . S
H991 C956 0.931 . S
H992 C963 0.931 . S
H993 C965 0.930 . S
H994 C973 0.929 . S
H995 C975 0.931 . S
H996 C1014 0.951 . S
H997 C1016 0.951 . S
H998 C1018 0.950 . S
H999 C1019 0.950 . S
H1000 C1021 0.950 . S
H1001 C1024 0.950 . S
H1002 C1025 0.950 . S
H1003 C1027 0.950 . S
H1004 C1028 0.950 . S
H1005 C1029 0.951 . S
H1006 C1031 0.951 . S
H1007 C1033 0.950 . S
H1008 C1034 0.950 . S
H1009 C1036 0.950 . S
H1010 C1039 0.950 . S
H1011 C1040 0.950 . S
H1012 C1042 0.950 . S
H1013 C1043 0.950 . S
C1014 H996 0.951 . S
C1014 C1015 1.366 . S
C1014 C1016 1.388 . S
C1015 C1014 1.366 . S
C1015 C1019 1.385 . S
C1016 H997 0.951 . S
C1016 C1014 1.388 . S
C1016 C1017 1.366 . S
C1017 C1016 1.366 . S
C1017 C1018 1.414 . S
C1017 C1020 1.499 . S
C1018 H998 0.950 . S
C1018 C1017 1.414 . S
C1018 C1019 1.374 . S
C1019 H999 0.950 . S
C1019 C1015 1.385 . S
C1019 C1018 1.374 . S
C1020 C1017 1.499 . S
C1020 C1021 1.373 . S
C1020 C1022 1.389 . S
C1021 H1000 0.950 . S
C1021 C1020 1.373 . S
C1021 C1037 1.377 . S
C1022 C1020 1.389 . S
C1022 C1023 1.524 . S
C1022 C1036 1.377 . S
C1023 C1022 1.524 . S
C1023 C1024 1.397 . S
C1023 C1028 1.363 . S
C1024 H1001 0.950 . S
C1024 C1023 1.397 . S
C1024 C1025 1.334 . S
C1025 H1002 0.950 . S
C1025 C1024 1.334 . S
C1025 C1026 1.287 . S
C1026 C1025 1.287 . S
C1026 C1027 1.524 . S
C1026 H1045 0.913 . S
C1027 H1003 0.950 . S
C1027 C1026 1.524 . S
C1027 C1028 1.415 . S
C1028 H1004 0.950 . S
C1028 C1023 1.363 . S
C1028 C1027 1.415 . S
C1029 H1005 0.951 . S
C1029 C1030 1.366 . S
C1029 C1031 1.388 . S
C1030 C1029 1.366 . S
C1030 C1034 1.385 . S
C1031 H1006 0.951 . S
C1031 C1029 1.388 . S
C1031 C1032 1.366 . S
C1032 C1031 1.366 . S
C1032 C1033 1.414 . S
C1032 C1035 1.499 . S
C1033 H1007 0.950 . S
C1033 C1032 1.414 . S
C1033 C1034 1.374 . S
C1034 H1008 0.950 . S
C1034 C1030 1.385 . S
C1034 C1033 1.374 . S
C1035 C1032 1.499 . S
C1035 C1036 1.373 . S
C1035 C1037 1.389 . S
C1036 H1009 0.950 . S
C1036 C1022 1.377 . S
C1036 C1035 1.373 . S
C1037 C1021 1.377 . S
C1037 C1035 1.389 . S
C1037 C1038 1.524 . S
C1038 C1037 1.524 . S
C1038 C1039 1.397 . S
C1038 C1043 1.363 . S
C1039 H1010 0.950 . S
C1039 C1038 1.397 . S
C1039 C1040 1.334 . S
C1040 H1011 0.950 . S
C1040 C1039 1.334 . S
C1040 C1041 1.287 . S
C1041 C1040 1.287 . S
C1041 C1042 1.524 . S
C1041 H1044 0.999 . S
C1042 H1012 0.950 . S
C1042 C1041 1.524 . S
C1042 C1043 1.415 . S
C1043 H1013 0.950 . S
C1043 C1038 1.363 . S
C1043 C1042 1.415 . S
H1044 C1041 0.999 . S
H1045 C1026 0.913 . S
H1046 C1064 0.951 . S
H1047 C1066 0.951 . S
H1048 C1068 0.950 . S
H1049 C1069 0.950 . S
H1050 C1071 0.950 . S
H1051 C1074 0.950 . S
H1052 C1075 0.950 . S
H1053 C1077 0.950 . S
H1054 C1078 0.950 . S
H1055 C1079 0.951 . S
H1056 C1081 0.951 . S
H1057 C1083 0.950 . S
H1058 C1084 0.950 . S
H1059 C1086 0.950 . S
H1060 C1089 0.950 . S
H1061 C1090 0.950 . S
H1062 C1092 0.950 . S
H1063 C1093 0.950 . S
C1064 H1046 0.951 . S
C1064 C1065 1.366 . S
C1064 C1066 1.388 . S
C1065 C1064 1.366 . S
C1065 C1069 1.385 . S
C1066 H1047 0.951 . S
C1066 C1064 1.388 . S
C1066 C1067 1.366 . S
C1067 C1066 1.366 . S
C1067 C1068 1.414 . S
C1067 C1070 1.499 . S
C1068 H1048 0.950 . S
C1068 C1067 1.414 . S
C1068 C1069 1.374 . S
C1069 H1049 0.950 . S
C1069 C1065 1.385 . S
C1069 C1068 1.374 . S
C1070 C1067 1.499 . S
C1070 C1071 1.373 . S
C1070 C1072 1.389 . S
C1071 H1050 0.950 . S
C1071 C1070 1.373 . S
C1071 C1087 1.377 . S
C1072 C1070 1.389 . S
C1072 C1073 1.524 . S
C1072 C1086 1.377 . S
C1073 C1072 1.524 . S
C1073 C1074 1.397 . S
C1073 C1078 1.363 . S
C1074 H1051 0.950 . S
C1074 C1073 1.397 . S
C1074 C1075 1.334 . S
C1075 H1052 0.950 . S
C1075 C1074 1.334 . S
C1075 C1076 1.287 . S
C1076 C1075 1.287 . S
C1076 C1077 1.524 . S
C1076 H1095 0.913 . S
C1077 H1053 0.950 . S
C1077 C1076 1.524 . S
C1077 C1078 1.415 . S
C1078 H1054 0.950 . S
C1078 C1073 1.363 . S
C1078 C1077 1.415 . S
C1079 H1055 0.951 . S
C1079 C1080 1.366 . S
C1079 C1081 1.388 . S
C1080 C1079 1.366 . S
C1080 C1084 1.385 . S
C1081 H1056 0.951 . S
C1081 C1079 1.388 . S
C1081 C1082 1.366 . S
C1082 C1081 1.366 . S
C1082 C1083 1.414 . S
C1082 C1085 1.499 . S
C1083 H1057 0.950 . S
C1083 C1082 1.414 . S
C1083 C1084 1.374 . S
C1084 H1058 0.950 . S
C1084 C1080 1.385 . S
C1084 C1083 1.374 . S
C1085 C1082 1.499 . S
C1085 C1086 1.373 . S
C1085 C1087 1.389 . S
C1086 H1059 0.950 . S
C1086 C1072 1.377 . S
C1086 C1085 1.373 . S
C1087 C1071 1.377 . S
C1087 C1085 1.389 . S
C1087 C1088 1.524 . S
C1088 C1087 1.524 . S
C1088 C1089 1.397 . S
C1088 C1093 1.363 . S
C1089 H1060 0.950 . S
C1089 C1088 1.397 . S
C1089 C1090 1.334 . S
C1090 H1061 0.950 . S
C1090 C1089 1.334 . S
C1090 C1091 1.287 . S
C1091 C1090 1.287 . S
C1091 C1092 1.524 . S
C1091 H1094 0.999 . S
C1092 H1062 0.950 . S
C1092 C1091 1.524 . S
C1092 C1093 1.415 . S
C1093 H1063 0.950 . S
C1093 C1088 1.363 . S
C1093 C1092 1.415 . S
H1094 C1091 0.999 . S
H1095 C1076 0.913 . S
H1096 C1114 0.951 . S
H1097 C1116 0.951 . S
H1098 C1118 0.950 . S
H1099 C1119 0.950 . S
H1100 C1121 0.950 . S
H1101 C1124 0.950 . S
H1102 C1125 0.950 . S
H1103 C1127 0.950 . S
H1104 C1128 0.950 . S
H1105 C1129 0.951 . S
H1106 C1131 0.951 . S
H1107 C1133 0.950 . S
H1108 C1134 0.950 . S
H1109 C1136 0.950 . S
H1110 C1139 0.950 . S
H1111 C1140 0.950 . S
H1112 C1142 0.950 . S
H1113 C1143 0.950 . S
C1114 H1096 0.951 . S
C1114 C1115 1.366 . S
C1114 C1116 1.388 . S
C1115 C1114 1.366 . S
C1115 C1119 1.385 . S
C1116 H1097 0.951 . S
C1116 C1114 1.388 . S
C1116 C1117 1.366 . S
C1117 C1116 1.366 . S
C1117 C1118 1.414 . S
C1117 C1120 1.499 . S
C1118 H1098 0.950 . S
C1118 C1117 1.414 . S
C1118 C1119 1.374 . S
C1119 H1099 0.950 . S
C1119 C1115 1.385 . S
C1119 C1118 1.374 . S
C1120 C1117 1.499 . S
C1120 C1121 1.373 . S
C1120 C1122 1.389 . S
C1121 H1100 0.950 . S
C1121 C1120 1.373 . S
C1121 C1137 1.377 . S
C1122 C1120 1.389 . S
C1122 C1123 1.524 . S
C1122 C1136 1.377 . S
C1123 C1122 1.524 . S
C1123 C1124 1.397 . S
C1123 C1128 1.363 . S
C1124 H1101 0.950 . S
C1124 C1123 1.397 . S
C1124 C1125 1.334 . S
C1125 H1102 0.950 . S
C1125 C1124 1.334 . S
C1125 C1126 1.287 . S
C1126 C1125 1.287 . S
C1126 C1127 1.524 . S
C1126 H1145 0.913 . S
C1127 H1103 0.950 . S
C1127 C1126 1.524 . S
C1127 C1128 1.415 . S
C1128 H1104 0.950 . S
C1128 C1123 1.363 . S
C1128 C1127 1.415 . S
C1129 H1105 0.951 . S
C1129 C1130 1.366 . S
C1129 C1131 1.388 . S
C1130 C1129 1.366 . S
C1130 C1134 1.385 . S
C1131 H1106 0.951 . S
C1131 C1129 1.388 . S
C1131 C1132 1.366 . S
C1132 C1131 1.366 . S
C1132 C1133 1.414 . S
C1132 C1135 1.499 . S
C1133 H1107 0.950 . S
C1133 C1132 1.414 . S
C1133 C1134 1.374 . S
C1134 H1108 0.950 . S
C1134 C1130 1.385 . S
C1134 C1133 1.374 . S
C1135 C1132 1.499 . S
C1135 C1136 1.373 . S
C1135 C1137 1.389 . S
C1136 H1109 0.950 . S
C1136 C1122 1.377 . S
C1136 C1135 1.373 . S
C1137 C1121 1.377 . S
C1137 C1135 1.389 . S
C1137 C1138 1.524 . S
C1138 C1137 1.524 . S
C1138 C1139 1.397 . S
C1138 C1143 1.363 . S
C1139 H1110 0.950 . S
C1139 C1138 1.397 . S
C1139 C1140 1.334 . S
C1140 H1111 0.950 . S
C1140 C1139 1.334 . S
C1140 C1141 1.287 . S
C1141 C1140 1.287 . S
C1141 C1142 1.524 . S
C1141 H1144 0.999 . S
C1142 H1112 0.950 . S
C1142 C1141 1.524 . S
C1142 C1143 1.415 . S
C1143 H1113 0.950 . S
C1143 C1138 1.363 . S
C1143 C1142 1.415 . S
H1144 C1141 0.999 . S
H1145 C1126 0.913 . S
H1146 C1164 0.951 . S
H1147 C1166 0.951 . S
H1148 C1168 0.950 . S
H1149 C1169 0.950 . S
H1150 C1171 0.950 . S
H1151 C1174 0.950 . S
H1152 C1175 0.950 . S
H1153 C1177 0.950 . S
H1154 C1178 0.950 . S
H1155 C1179 0.951 . S
H1156 C1181 0.951 . S
H1157 C1183 0.950 . S
H1158 C1184 0.950 . S
H1159 C1186 0.950 . S
H1160 C1189 0.950 . S
H1161 C1190 0.950 . S
H1162 C1192 0.950 . S
H1163 C1193 0.950 . S
C1164 H1146 0.951 . S
C1164 C1165 1.366 . S
C1164 C1166 1.388 . S
C1165 C1164 1.366 . S
C1165 C1169 1.385 . S
C1166 H1147 0.951 . S
C1166 C1164 1.388 . S
C1166 C1167 1.366 . S
C1167 C1166 1.366 . S
C1167 C1168 1.414 . S
C1167 C1170 1.499 . S
C1168 H1148 0.950 . S
C1168 C1167 1.414 . S
C1168 C1169 1.374 . S
C1169 H1149 0.950 . S
C1169 C1165 1.385 . S
C1169 C1168 1.374 . S
C1170 C1167 1.499 . S
C1170 C1171 1.373 . S
C1170 C1172 1.389 . S
C1171 H1150 0.950 . S
C1171 C1170 1.373 . S
C1171 C1187 1.377 . S
C1172 C1170 1.389 . S
C1172 C1173 1.524 . S
C1172 C1186 1.377 . S
C1173 C1172 1.524 . S
C1173 C1174 1.397 . S
C1173 C1178 1.363 . S
C1174 H1151 0.950 . S
C1174 C1173 1.397 . S
C1174 C1175 1.334 . S
C1175 H1152 0.950 . S
C1175 C1174 1.334 . S
C1175 C1176 1.287 . S
C1176 C1175 1.287 . S
C1176 C1177 1.524 . S
C1176 H1195 0.913 . S
C1177 H1153 0.950 . S
C1177 C1176 1.524 . S
C1177 C1178 1.415 . S
C1178 H1154 0.950 . S
C1178 C1173 1.363 . S
C1178 C1177 1.415 . S
C1179 H1155 0.951 . S
C1179 C1180 1.366 . S
C1179 C1181 1.388 . S
C1180 C1179 1.366 . S
C1180 C1184 1.385 . S
C1181 H1156 0.951 . S
C1181 C1179 1.388 . S
C1181 C1182 1.366 . S
C1182 C1181 1.366 . S
C1182 C1183 1.414 . S
C1182 C1185 1.499 . S
C1183 H1157 0.950 . S
C1183 C1182 1.414 . S
C1183 C1184 1.374 . S
C1184 H1158 0.950 . S
C1184 C1180 1.385 . S
C1184 C1183 1.374 . S
C1185 C1182 1.499 . S
C1185 C1186 1.373 . S
C1185 C1187 1.389 . S
C1186 H1159 0.950 . S
C1186 C1172 1.377 . S
C1186 C1185 1.373 . S
C1187 C1171 1.377 . S
C1187 C1185 1.389 . S
C1187 C1188 1.524 . S
C1188 C1187 1.524 . S
C1188 C1189 1.397 . S
C1188 C1193 1.363 . S
C1189 H1160 0.950 . S
C1189 C1188 1.397 . S
C1189 C1190 1.334 . S
C1190 H1161 0.950 . S
C1190 C1189 1.334 . S
C1190 C1191 1.287 . S
C1191 C1190 1.287 . S
C1191 C1192 1.524 . S
C1191 H1194 0.999 . S
C1192 H1162 0.950 . S
C1192 C1191 1.524 . S
C1192 C1193 1.415 . S
C1193 H1163 0.950 . S
C1193 C1188 1.363 . S
C1193 C1192 1.415 . S
H1194 C1191 0.999 . S
H1195 C1176 0.913 . S
H1196 C1214 0.951 . S
H1197 C1216 0.951 . S
H1198 C1218 0.950 . S
H1199 C1219 0.950 . S
H1200 C1221 0.950 . S
H1201 C1224 0.950 . S
H1202 C1225 0.950 . S
H1203 C1227 0.950 . S
H1204 C1228 0.950 . S
H1205 C1229 0.951 . S
H1206 C1231 0.951 . S
H1207 C1233 0.950 . S
H1208 C1234 0.950 . S
H1209 C1236 0.950 . S
H1210 C1239 0.950 . S
H1211 C1240 0.950 . S
H1212 C1242 0.950 . S
H1213 C1243 0.950 . S
C1214 H1196 0.951 . S
C1214 C1215 1.366 . S
C1214 C1216 1.388 . S
C1215 C1214 1.366 . S
C1215 C1219 1.385 . S
C1216 H1197 0.951 . S
C1216 C1214 1.388 . S
C1216 C1217 1.366 . S
C1217 C1216 1.366 . S
C1217 C1218 1.414 . S
C1217 C1220 1.499 . S
C1218 H1198 0.950 . S
C1218 C1217 1.414 . S
C1218 C1219 1.374 . S
C1219 H1199 0.950 . S
C1219 C1215 1.385 . S
C1219 C1218 1.374 . S
C1220 C1217 1.499 . S
C1220 C1221 1.373 . S
C1220 C1222 1.389 . S
C1221 H1200 0.950 . S
C1221 C1220 1.373 . S
C1221 C1237 1.377 . S
C1222 C1220 1.389 . S
C1222 C1223 1.524 . S
C1222 C1236 1.377 . S
C1223 C1222 1.524 . S
C1223 C1224 1.397 . S
C1223 C1228 1.363 . S
C1224 H1201 0.950 . S
C1224 C1223 1.397 . S
C1224 C1225 1.334 . S
C1225 H1202 0.950 . S
C1225 C1224 1.334 . S
C1225 C1226 1.287 . S
C1226 C1225 1.287 . S
C1226 C1227 1.524 . S
C1226 H1245 0.913 . S
C1227 H1203 0.950 . S
C1227 C1226 1.524 . S
C1227 C1228 1.415 . S
C1228 H1204 0.950 . S
C1228 C1223 1.363 . S
C1228 C1227 1.415 . S
C1229 H1205 0.951 . S
C1229 C1230 1.366 . S
C1229 C1231 1.388 . S
C1230 C1229 1.366 . S
C1230 C1234 1.385 . S
C1231 H1206 0.951 . S
C1231 C1229 1.388 . S
C1231 C1232 1.366 . S
C1232 C1231 1.366 . S
C1232 C1233 1.414 . S
C1232 C1235 1.499 . S
C1233 H1207 0.950 . S
C1233 C1232 1.414 . S
C1233 C1234 1.374 . S
C1234 H1208 0.950 . S
C1234 C1230 1.385 . S
C1234 C1233 1.374 . S
C1235 C1232 1.499 . S
C1235 C1236 1.373 . S
C1235 C1237 1.389 . S
C1236 H1209 0.950 . S
C1236 C1222 1.377 . S
C1236 C1235 1.373 . S
C1237 C1221 1.377 . S
C1237 C1235 1.389 . S
C1237 C1238 1.524 . S
C1238 C1237 1.524 . S
C1238 C1239 1.397 . S
C1238 C1243 1.363 . S
C1239 H1210 0.950 . S
C1239 C1238 1.397 . S
C1239 C1240 1.334 . S
C1240 H1211 0.950 . S
C1240 C1239 1.334 . S
C1240 C1241 1.287 . S
C1241 C1240 1.287 . S
C1241 C1242 1.524 . S
C1241 H1244 0.999 . S
C1242 H1212 0.950 . S
C1242 C1241 1.524 . S
C1242 C1243 1.415 . S
C1243 H1213 0.950 . S
C1243 C1238 1.363 . S
C1243 C1242 1.415 . S
H1244 C1241 0.999 . S
H1245 C1226 0.913 . S
H1246 C1264 0.951 . S
H1247 C1266 0.951 . S
H1248 C1268 0.950 . S
H1249 C1269 0.950 . S
H1250 C1271 0.950 . S
H1251 C1274 0.950 . S
H1252 C1275 0.950 . S
H1253 C1277 0.950 . S
H1254 C1278 0.950 . S
H1255 C1279 0.951 . S
H1256 C1281 0.951 . S
H1257 C1283 0.950 . S
H1258 C1284 0.950 . S
H1259 C1286 0.950 . S
H1260 C1289 0.950 . S
H1261 C1290 0.950 . S
H1262 C1292 0.950 . S
H1263 C1293 0.950 . S
C1264 H1246 0.951 . S
C1264 C1265 1.366 . S
C1264 C1266 1.388 . S
C1265 C1264 1.366 . S
C1265 C1269 1.385 . S
C1266 H1247 0.951 . S
C1266 C1264 1.388 . S
C1266 C1267 1.366 . S
C1267 C1266 1.366 . S
C1267 C1268 1.414 . S
C1267 C1270 1.499 . S
C1268 H1248 0.950 . S
C1268 C1267 1.414 . S
C1268 C1269 1.374 . S
C1269 H1249 0.950 . S
C1269 C1265 1.385 . S
C1269 C1268 1.374 . S
C1270 C1267 1.499 . S
C1270 C1271 1.373 . S
C1270 C1272 1.389 . S
C1271 H1250 0.950 . S
C1271 C1270 1.373 . S
C1271 C1287 1.377 . S
C1272 C1270 1.389 . S
C1272 C1273 1.524 . S
C1272 C1286 1.377 . S
C1273 C1272 1.524 . S
C1273 C1274 1.397 . S
C1273 C1278 1.363 . S
C1274 H1251 0.950 . S
C1274 C1273 1.397 . S
C1274 C1275 1.334 . S
C1275 H1252 0.950 . S
C1275 C1274 1.334 . S
C1275 C1276 1.287 . S
C1276 C1275 1.287 . S
C1276 C1277 1.524 . S
C1276 H1295 0.913 . S
C1277 H1253 0.950 . S
C1277 C1276 1.524 . S
C1277 C1278 1.415 . S
C1278 H1254 0.950 . S
C1278 C1273 1.363 . S
C1278 C1277 1.415 . S
C1279 H1255 0.951 . S
C1279 C1280 1.366 . S
C1279 C1281 1.388 . S
C1280 C1279 1.366 . S
C1280 C1284 1.385 . S
C1281 H1256 0.951 . S
C1281 C1279 1.388 . S
C1281 C1282 1.366 . S
C1282 C1281 1.366 . S
C1282 C1283 1.414 . S
C1282 C1285 1.499 . S
C1283 H1257 0.950 . S
C1283 C1282 1.414 . S
C1283 C1284 1.374 . S
C1284 H1258 0.950 . S
C1284 C1280 1.385 . S
C1284 C1283 1.374 . S
C1285 C1282 1.499 . S
C1285 C1286 1.373 . S
C1285 C1287 1.389 . S
C1286 H1259 0.950 . S
C1286 C1272 1.377 . S
C1286 C1285 1.373 . S
C1287 C1271 1.377 . S
C1287 C1285 1.389 . S
C1287 C1288 1.524 . S
C1288 C1287 1.524 . S
C1288 C1289 1.397 . S
C1288 C1293 1.363 . S
C1289 H1260 0.950 . S
C1289 C1288 1.397 . S
C1289 C1290 1.334 . S
C1290 H1261 0.950 . S
C1290 C1289 1.334 . S
C1290 C1291 1.287 . S
C1291 C1290 1.287 . S
C1291 C1292 1.524 . S
C1291 H1294 0.999 . S
C1292 H1262 0.950 . S
C1292 C1291 1.524 . S
C1292 C1293 1.415 . S
C1293 H1263 0.950 . S
C1293 C1288 1.363 . S
C1293 C1292 1.415 . S
H1294 C1291 0.999 . S
H1295 C1276 0.913 . S
H1296 C1314 0.951 . S
H1297 C1316 0.951 . S
H1298 C1318 0.950 . S
H1299 C1319 0.950 . S
H1300 C1321 0.950 . S
H1301 C1324 0.950 . S
H1302 C1325 0.950 . S
H1303 C1327 0.950 . S
H1304 C1328 0.950 . S
H1305 C1329 0.951 . S
H1306 C1331 0.951 . S
H1307 C1333 0.950 . S
H1308 C1334 0.950 . S
H1309 C1336 0.950 . S
H1310 C1339 0.950 . S
H1311 C1340 0.950 . S
H1312 C1342 0.950 . S
H1313 C1343 0.950 . S
C1314 H1296 0.951 . S
C1314 C1315 1.366 . S
C1314 C1316 1.388 . S
C1315 C1314 1.366 . S
C1315 C1319 1.385 . S
C1316 H1297 0.951 . S
C1316 C1314 1.388 . S
C1316 C1317 1.366 . S
C1317 C1316 1.366 . S
C1317 C1318 1.414 . S
C1317 C1320 1.499 . S
C1318 H1298 0.950 . S
C1318 C1317 1.414 . S
C1318 C1319 1.374 . S
C1319 H1299 0.950 . S
C1319 C1315 1.385 . S
C1319 C1318 1.374 . S
C1320 C1317 1.499 . S
C1320 C1321 1.373 . S
C1320 C1322 1.389 . S
C1321 H1300 0.950 . S
C1321 C1320 1.373 . S
C1321 C1337 1.377 . S
C1322 C1320 1.389 . S
C1322 C1323 1.524 . S
C1322 C1336 1.377 . S
C1323 C1322 1.524 . S
C1323 C1324 1.397 . S
C1323 C1328 1.363 . S
C1324 H1301 0.950 . S
C1324 C1323 1.397 . S
C1324 C1325 1.334 . S
C1325 H1302 0.950 . S
C1325 C1324 1.334 . S
C1325 C1326 1.287 . S
C1326 C1325 1.287 . S
C1326 C1327 1.524 . S
C1326 H1345 0.913 . S
C1327 H1303 0.950 . S
C1327 C1326 1.524 . S
C1327 C1328 1.415 . S
C1328 H1304 0.950 . S
C1328 C1323 1.363 . S
C1328 C1327 1.415 . S
C1329 H1305 0.951 . S
C1329 C1330 1.366 . S
C1329 C1331 1.388 . S
C1330 C1329 1.366 . S
C1330 C1334 1.385 . S
C1331 H1306 0.951 . S
C1331 C1329 1.388 . S
C1331 C1332 1.366 . S
C1332 C1331 1.366 . S
C1332 C1333 1.414 . S
C1332 C1335 1.499 . S
C1333 H1307 0.950 . S
C1333 C1332 1.414 . S
C1333 C1334 1.374 . S
C1334 H1308 0.950 . S
C1334 C1330 1.385 . S
C1334 C1333 1.374 . S
C1335 C1332 1.499 . S
C1335 C1336 1.373 . S
C1335 C1337 1.389 . S
C1336 H1309 0.950 . S
C1336 C1322 1.377 . S
C1336 C1335 1.373 . S
C1337 C1321 1.377 . S
C1337 C1335 1.389 . S
C1337 C1338 1.524 . S
C1338 C1337 1.524 . S
C1338 C1339 1.397 . S
C1338 C1343 1.363 . S
C1339 H1310 0.950 . S
C1339 C1338 1.397 . S
C1339 C1340 1.334 . S
C1340 H1311 0.950 . S
C1340 C1339 1.334 . S
C1340 C1341 1.287 . S
C1341 C1340 1.287 . S
C1341 C1342 1.524 . S
C1341 H1344 0.999 . S
C1342 H1312 0.950 . S
C1342 C1341 1.524 . S
C1342 C1343 1.415 . S
C1343 H1313 0.950 . S
C1343 C1338 1.363 . S
C1343 C1342 1.415 . S
H1344 C1341 0.999 . S
H1345 C1326 0.913 . S
H1346 C1364 0.951 . S
H1347 C1366 0.951 . S
H1348 C1368 0.950 . S
H1349 C1369 0.950 . S
H1350 C1371 0.950 . S
H1351 C1374 0.950 . S
H1352 C1375 0.950 . S
H1353 C1377 0.950 . S
H1354 C1378 0.950 . S
H1355 C1379 0.951 . S
H1356 C1381 0.951 . S
H1357 C1383 0.950 . S
H1358 C1384 0.950 . S
H1359 C1386 0.950 . S
H1360 C1389 0.950 . S
H1361 C1390 0.950 . S
H1362 C1392 0.950 . S
H1363 C1393 0.950 . S
C1364 H1346 0.951 . S
C1364 C1365 1.366 . S
C1364 C1366 1.388 . S
C1365 C1364 1.366 . S
C1365 C1369 1.385 . S
C1366 H1347 0.951 . S
C1366 C1364 1.388 . S
C1366 C1367 1.366 . S
C1367 C1366 1.366 . S
C1367 C1368 1.414 . S
C1367 C1370 1.499 . S
C1368 H1348 0.950 . S
C1368 C1367 1.414 . S
C1368 C1369 1.374 . S
C1369 H1349 0.950 . S
C1369 C1365 1.385 . S
C1369 C1368 1.374 . S
C1370 C1367 1.499 . S
C1370 C1371 1.373 . S
C1370 C1372 1.389 . S
C1371 H1350 0.950 . S
C1371 C1370 1.373 . S
C1371 C1387 1.377 . S
C1372 C1370 1.389 . S
C1372 C1373 1.524 . S
C1372 C1386 1.377 . S
C1373 C1372 1.524 . S
C1373 C1374 1.397 . S
C1373 C1378 1.363 . S
C1374 H1351 0.950 . S
C1374 C1373 1.397 . S
C1374 C1375 1.334 . S
C1375 H1352 0.950 . S
C1375 C1374 1.334 . S
C1375 C1376 1.287 . S
C1376 C1375 1.287 . S
C1376 C1377 1.524 . S
C1376 H1395 0.913 . S
C1377 H1353 0.950 . S
C1377 C1376 1.524 . S
C1377 C1378 1.415 . S
C1378 H1354 0.950 . S
C1378 C1373 1.363 . S
C1378 C1377 1.415 . S
C1379 H1355 0.951 . S
C1379 C1380 1.366 . S
C1379 C1381 1.388 . S
C1380 C1379 1.366 . S
C1380 C1384 1.385 . S
C1381 H1356 0.951 . S
C1381 C1379 1.388 . S
C1381 C1382 1.366 . S
C1382 C1381 1.366 . S
C1382 C1383 1.414 . S
C1382 C1385 1.499 . S
C1383 H1357 0.950 . S
C1383 C1382 1.414 . S
C1383 C1384 1.374 . S
C1384 H1358 0.950 . S
C1384 C1380 1.385 . S
C1384 C1383 1.374 . S
C1385 C1382 1.499 . S
C1385 C1386 1.373 . S
C1385 C1387 1.389 . S
C1386 H1359 0.950 . S
C1386 C1372 1.377 . S
C1386 C1385 1.373 . S
C1387 C1371 1.377 . S
C1387 C1385 1.389 . S
C1387 C1388 1.524 . S
C1388 C1387 1.524 . S
C1388 C1389 1.397 . S
C1388 C1393 1.363 . S
C1389 H1360 0.950 . S
C1389 C1388 1.397 . S
C1389 C1390 1.334 . S
C1390 H1361 0.950 . S
C1390 C1389 1.334 . S
C1390 C1391 1.287 . S
C1391 C1390 1.287 . S
C1391 C1392 1.524 . S
C1391 H1394 0.999 . S
C1392 H1362 0.950 . S
C1392 C1391 1.524 . S
C1392 C1393 1.415 . S
C1393 H1363 0.950 . S
C1393 C1388 1.363 . S
C1393 C1392 1.415 . S
H1394 C1391 0.999 . S
H1395 C1376 0.913 . S
H1396 C1414 0.951 . S
H1397 C1416 0.951 . S
H1398 C1418 0.950 . S
H1399 C1419 0.950 . S
H1400 C1421 0.950 . S
H1401 C1424 0.950 . S
H1402 C1425 0.950 . S
H1403 C1427 0.950 . S
H1404 C1428 0.950 . S
H1405 C1429 0.951 1_556 S
H1406 C1431 0.951 . S
H1407 C1433 0.950 . S
H1408 C1434 0.950 . S
H1409 C1436 0.950 . S
H1410 C1439 0.950 . S
H1411 C1440 0.950 1_565 S
H1412 C1442 0.950 . S
H1413 C1443 0.950 . S
C1414 H1396 0.951 . S
C1414 C1415 1.366 . S
C1414 C1416 1.388 . S
C1415 C1414 1.366 . S
C1415 C1419 1.385 . S
C1416 H1397 0.951 . S
C1416 C1414 1.388 . S
C1416 C1417 1.366 . S
C1417 C1416 1.366 . S
C1417 C1418 1.414 . S
C1417 C1420 1.499 . S
C1418 H1398 0.950 . S
C1418 C1417 1.414 . S
C1418 C1419 1.374 . S
C1419 H1399 0.950 . S
C1419 C1415 1.385 . S
C1419 C1418 1.374 . S
C1420 C1417 1.499 . S
C1420 C1421 1.373 . S
C1420 C1422 1.389 . S
C1421 H1400 0.950 . S
C1421 C1420 1.373 . S
C1421 C1437 1.377 . S
C1422 C1420 1.389 . S
C1422 C1423 1.524 . S
C1422 C1436 1.377 . S
C1423 C1422 1.524 . S
C1423 C1424 1.397 . S
C1423 C1428 1.363 . S
C1424 H1401 0.950 . S
C1424 C1423 1.397 . S
C1424 C1425 1.334 . S
C1425 H1402 0.950 . S
C1425 C1424 1.334 . S
C1425 C1426 1.287 . S
C1426 C1425 1.287 . S
C1426 C1427 1.524 . S
C1426 H1445 0.913 . S
C1427 H1403 0.950 . S
C1427 C1426 1.524 . S
C1427 C1428 1.415 . S
C1428 H1404 0.950 . S
C1428 C1423 1.363 . S
C1428 C1427 1.415 . S
C1429 H1405 0.951 1_554 S
C1429 C1430 1.366 . S
C1429 C1431 1.388 . S
C1430 C1429 1.366 . S
C1430 C1434 1.385 . S
C1431 H1406 0.951 . S
C1431 C1429 1.388 . S
C1431 C1432 1.366 . S
C1432 C1431 1.366 . S
C1432 C1433 1.414 . S
C1432 C1435 1.499 . S
C1433 H1407 0.950 . S
C1433 C1432 1.414 . S
C1433 C1434 1.374 . S
C1434 H1408 0.950 . S
C1434 C1430 1.385 . S
C1434 C1433 1.374 . S
C1435 C1432 1.499 . S
C1435 C1436 1.373 . S
C1435 C1437 1.389 . S
C1436 H1409 0.950 . S
C1436 C1422 1.377 . S
C1436 C1435 1.373 . S
C1437 C1421 1.377 . S
C1437 C1435 1.389 . S
C1437 C1438 1.524 . S
C1438 C1437 1.524 . S
C1438 C1439 1.397 . S
C1438 C1443 1.363 . S
C1439 H1410 0.950 . S
C1439 C1438 1.397 . S
C1439 C1440 1.334 . S
C1440 H1411 0.950 1_545 S
C1440 C1439 1.334 . S
C1440 C1441 1.287 . S
C1441 C1440 1.287 . S
C1441 C1442 1.524 . S
C1441 H1444 0.999 1_545 S
C1442 H1412 0.950 . S
C1442 C1441 1.524 . S
C1442 C1443 1.415 . S
C1443 H1413 0.950 . S
C1443 C1438 1.363 . S
C1443 C1442 1.415 . S
H1444 C1441 0.999 1_565 S
H1445 C1426 0.913 . S
H1446 C1464 0.951 . S
H1447 C1466 0.951 . S
H1448 C1468 0.950 . S
H1449 C1469 0.950 . S
H1450 C1471 0.950 . S
H1451 C1474 0.950 . S
H1452 C1475 0.950 . S
H1453 C1477 0.950 . S
H1454 C1478 0.950 . S
H1455 C1479 0.951 . S
H1456 C1481 0.951 . S
H1457 C1483 0.950 . S
H1458 C1484 0.950 . S
H1459 C1486 0.950 . S
H1460 C1489 0.950 . S
H1461 C1490 0.950 . S
H1462 C1492 0.950 . S
H1463 C1493 0.950 . S
C1464 H1446 0.951 . S
C1464 C1465 1.366 . S
C1464 C1466 1.388 . S
C1465 C1464 1.366 . S
C1465 C1469 1.385 . S
C1466 H1447 0.951 . S
C1466 C1464 1.388 . S
C1466 C1467 1.366 . S
C1467 C1466 1.366 . S
C1467 C1468 1.414 . S
C1467 C1470 1.499 . S
C1468 H1448 0.950 . S
C1468 C1467 1.414 . S
C1468 C1469 1.374 . S
C1469 H1449 0.950 . S
C1469 C1465 1.385 . S
C1469 C1468 1.374 . S
C1470 C1467 1.499 . S
C1470 C1471 1.373 . S
C1470 C1472 1.389 . S
C1471 H1450 0.950 . S
C1471 C1470 1.373 . S
C1471 C1487 1.377 . S
C1472 C1470 1.389 . S
C1472 C1473 1.524 . S
C1472 C1486 1.377 . S
C1473 C1472 1.524 . S
C1473 C1474 1.397 . S
C1473 C1478 1.363 . S
C1474 H1451 0.950 . S
C1474 C1473 1.397 . S
C1474 C1475 1.334 . S
C1475 H1452 0.950 . S
C1475 C1474 1.334 . S
C1475 C1476 1.287 . S
C1476 C1475 1.287 . S
C1476 C1477 1.524 . S
C1476 H1495 0.913 . S
C1477 H1453 0.950 . S
C1477 C1476 1.524 . S
C1477 C1478 1.415 . S
C1478 H1454 0.950 . S
C1478 C1473 1.363 . S
C1478 C1477 1.415 . S
C1479 H1455 0.951 . S
C1479 C1480 1.366 . S
C1479 C1481 1.388 . S
C1480 C1479 1.366 . S
C1480 C1484 1.385 . S
C1481 H1456 0.951 . S
C1481 C1479 1.388 . S
C1481 C1482 1.366 . S
C1482 C1481 1.366 . S
C1482 C1483 1.414 . S
C1482 C1485 1.499 . S
C1483 H1457 0.950 . S
C1483 C1482 1.414 . S
C1483 C1484 1.374 . S
C1484 H1458 0.950 . S
C1484 C1480 1.385 . S
C1484 C1483 1.374 . S
C1485 C1482 1.499 . S
C1485 C1486 1.373 . S
C1485 C1487 1.389 . S
C1486 H1459 0.950 . S
C1486 C1472 1.377 . S
C1486 C1485 1.373 . S
C1487 C1471 1.377 . S
C1487 C1485 1.389 . S
C1487 C1488 1.524 . S
C1488 C1487 1.524 . S
C1488 C1489 1.397 . S
C1488 C1493 1.363 . S
C1489 H1460 0.950 . S
C1489 C1488 1.397 . S
C1489 C1490 1.334 . S
C1490 H1461 0.950 . S
C1490 C1489 1.334 . S
C1490 C1491 1.287 . S
C1491 C1490 1.287 . S
C1491 C1492 1.524 . S
C1491 H1494 0.999 . S
C1492 H1462 0.950 . S
C1492 C1491 1.524 . S
C1492 C1493 1.415 . S
C1493 H1463 0.950 . S
C1493 C1488 1.363 . S
C1493 C1492 1.415 . S
H1494 C1491 0.999 . S
H1495 C1476 0.913 . S
H1496 C1514 0.951 . S
H1497 C1516 0.951 . S
H1498 C1518 0.950 . S
H1499 C1519 0.950 . S
H1500 C1521 0.950 . S
H1501 C1524 0.950 . S
H1502 C1525 0.950 . S
H1503 C1527 0.950 . S
H1504 C1528 0.950 . S
H1505 C1529 0.951 . S
H1506 C1531 0.951 . S
H1507 C1533 0.950 . S
H1508 C1534 0.950 . S
H1509 C1536 0.950 . S
H1510 C1539 0.950 . S
H1511 C1540 0.950 . S
H1512 C1542 0.950 . S
H1513 C1543 0.950 . S
C1514 H1496 0.951 . S
C1514 C1515 1.366 . S
C1514 C1516 1.388 . S
C1515 C1514 1.366 . S
C1515 C1519 1.385 . S
C1516 H1497 0.951 . S
C1516 C1514 1.388 . S
C1516 C1517 1.366 . S
C1517 C1516 1.366 . S
C1517 C1518 1.414 . S
C1517 C1520 1.499 . S
C1518 H1498 0.950 . S
C1518 C1517 1.414 . S
C1518 C1519 1.374 . S
C1519 H1499 0.950 . S
C1519 C1515 1.385 . S
C1519 C1518 1.374 . S
C1520 C1517 1.499 . S
C1520 C1521 1.373 . S
C1520 C1522 1.389 . S
C1521 H1500 0.950 . S
C1521 C1520 1.373 . S
C1521 C1537 1.377 . S
C1522 C1520 1.389 . S
C1522 C1523 1.524 . S
C1522 C1536 1.377 . S
C1523 C1522 1.524 . S
C1523 C1524 1.397 . S
C1523 C1528 1.363 . S
C1524 H1501 0.950 . S
C1524 C1523 1.397 . S
C1524 C1525 1.334 . S
C1525 H1502 0.950 . S
C1525 C1524 1.334 . S
C1525 C1526 1.287 . S
C1526 C1525 1.287 . S
C1526 C1527 1.524 . S
C1526 H1545 0.913 . S
C1527 H1503 0.950 . S
C1527 C1526 1.524 . S
C1527 C1528 1.415 . S
C1528 H1504 0.950 . S
C1528 C1523 1.363 . S
C1528 C1527 1.415 . S
C1529 H1505 0.951 . S
C1529 C1530 1.366 . S
C1529 C1531 1.388 . S
C1530 C1529 1.366 . S
C1530 C1534 1.385 . S
C1531 H1506 0.951 . S
C1531 C1529 1.388 . S
C1531 C1532 1.366 . S
C1532 C1531 1.366 . S
C1532 C1533 1.414 . S
C1532 C1535 1.499 . S
C1533 H1507 0.950 . S
C1533 C1532 1.414 . S
C1533 C1534 1.374 . S
C1534 H1508 0.950 . S
C1534 C1530 1.385 . S
C1534 C1533 1.374 . S
C1535 C1532 1.499 . S
C1535 C1536 1.373 . S
C1535 C1537 1.389 . S
C1536 H1509 0.950 . S
C1536 C1522 1.377 . S
C1536 C1535 1.373 . S
C1537 C1521 1.377 . S
C1537 C1535 1.389 . S
C1537 C1538 1.524 . S
C1538 C1537 1.524 . S
C1538 C1539 1.397 . S
C1538 C1543 1.363 . S
C1539 H1510 0.950 . S
C1539 C1538 1.397 . S
C1539 C1540 1.334 . S
C1540 H1511 0.950 . S
C1540 C1539 1.334 . S
C1540 C1541 1.287 . S
C1541 C1540 1.287 . S
C1541 C1542 1.524 . S
C1541 H1544 0.999 . S
C1542 H1512 0.950 . S
C1542 C1541 1.524 . S
C1542 C1543 1.415 . S
C1543 H1513 0.950 . S
C1543 C1538 1.363 . S
C1543 C1542 1.415 . S
H1544 C1541 0.999 . S
H1545 C1526 0.913 . S
H1546 C1564 0.951 . S
H1547 C1566 0.951 . S
H1548 C1568 0.950 . S
H1549 C1569 0.950 . S
H1550 C1571 0.950 . S
H1551 C1574 0.950 . S
H1552 C1575 0.950 . S
H1553 C1577 0.950 . S
H1554 C1578 0.950 . S
H1555 C1579 0.951 . S
H1556 C1581 0.951 . S
H1557 C1583 0.950 . S
H1558 C1584 0.950 . S
H1559 C1586 0.950 . S
H1560 C1589 0.950 . S
H1561 C1590 0.950 . S
H1562 C1592 0.950 . S
H1563 C1593 0.950 . S
C1564 H1546 0.951 . S
C1564 C1565 1.366 . S
C1564 C1566 1.388 . S
C1565 C1564 1.366 . S
C1565 C1569 1.385 . S
C1566 H1547 0.951 . S
C1566 C1564 1.388 . S
C1566 C1567 1.366 . S
C1567 C1566 1.366 . S
C1567 C1568 1.414 . S
C1567 C1570 1.499 . S
C1568 H1548 0.950 . S
C1568 C1567 1.414 . S
C1568 C1569 1.374 . S
C1569 H1549 0.950 . S
C1569 C1565 1.385 . S
C1569 C1568 1.374 . S
C1570 C1567 1.499 . S
C1570 C1571 1.373 . S
C1570 C1572 1.389 . S
C1571 H1550 0.950 . S
C1571 C1570 1.373 . S
C1571 C1587 1.377 . S
C1572 C1570 1.389 . S
C1572 C1573 1.524 . S
C1572 C1586 1.377 . S
C1573 C1572 1.524 . S
C1573 C1574 1.397 . S
C1573 C1578 1.363 . S
C1574 H1551 0.950 . S
C1574 C1573 1.397 . S
C1574 C1575 1.334 . S
C1575 H1552 0.950 . S
C1575 C1574 1.334 . S
C1575 C1576 1.287 . S
C1576 C1575 1.287 . S
C1576 C1577 1.524 . S
C1576 H1595 0.913 . S
C1577 H1553 0.950 . S
C1577 C1576 1.524 . S
C1577 C1578 1.415 . S
C1578 H1554 0.950 . S
C1578 C1573 1.363 . S
C1578 C1577 1.415 . S
C1579 H1555 0.951 . S
C1579 C1580 1.366 . S
C1579 C1581 1.388 . S
C1580 C1579 1.366 . S
C1580 C1584 1.385 . S
C1581 H1556 0.951 . S
C1581 C1579 1.388 . S
C1581 C1582 1.366 . S
C1582 C1581 1.366 . S
C1582 C1583 1.414 . S
C1582 C1585 1.499 . S
C1583 H1557 0.950 . S
C1583 C1582 1.414 . S
C1583 C1584 1.374 . S
C1584 H1558 0.950 . S
C1584 C1580 1.385 . S
C1584 C1583 1.374 . S
C1585 C1582 1.499 . S
C1585 C1586 1.373 . S
C1585 C1587 1.389 . S
C1586 H1559 0.950 . S
C1586 C1572 1.377 . S
C1586 C1585 1.373 . S
C1587 C1571 1.377 . S
C1587 C1585 1.389 . S
C1587 C1588 1.524 . S
C1588 C1587 1.524 . S
C1588 C1589 1.397 . S
C1588 C1593 1.363 . S
C1589 H1560 0.950 . S
C1589 C1588 1.397 . S
C1589 C1590 1.334 . S
C1590 H1561 0.950 . S
C1590 C1589 1.334 . S
C1590 C1591 1.287 . S
C1591 C1590 1.287 . S
C1591 C1592 1.524 . S
C1591 H1594 0.999 . S
C1592 H1562 0.950 . S
C1592 C1591 1.524 . S
C1592 C1593 1.415 . S
C1593 H1563 0.950 . S
C1593 C1588 1.363 . S
C1593 C1592 1.415 . S
H1594 C1591 0.999 . S
H1595 C1576 0.913 . S
H1596 C1614 0.951 . S
H1597 C1616 0.951 . S
H1598 C1618 0.950 . S
H1599 C1619 0.950 . S
H1600 C1621 0.950 . S
H1601 C1624 0.950 . S
H1602 C1625 0.950 . S
H1603 C1627 0.950 . S
H1604 C1628 0.950 . S
H1605 C1629 0.951 . S
H1606 C1631 0.951 . S
H1607 C1633 0.950 . S
H1608 C1634 0.950 . S
H1609 C1636 0.950 . S
H1610 C1639 0.950 . S
H1611 C1640 0.950 . S
H1612 C1642 0.950 . S
H1613 C1643 0.950 . S
C1614 H1596 0.951 . S
C1614 C1615 1.366 . S
C1614 C1616 1.388 . S
C1615 C1614 1.366 . S
C1615 C1619 1.385 . S
C1616 H1597 0.951 . S
C1616 C1614 1.388 . S
C1616 C1617 1.366 . S
C1617 C1616 1.366 . S
C1617 C1618 1.414 . S
C1617 C1620 1.499 . S
C1618 H1598 0.950 . S
C1618 C1617 1.414 . S
C1618 C1619 1.374 . S
C1619 H1599 0.950 . S
C1619 C1615 1.385 . S
C1619 C1618 1.374 . S
C1620 C1617 1.499 . S
C1620 C1621 1.373 . S
C1620 C1622 1.389 . S
C1621 H1600 0.950 . S
C1621 C1620 1.373 . S
C1621 C1637 1.377 . S
C1622 C1620 1.389 . S
C1622 C1623 1.524 . S
C1622 C1636 1.377 . S
C1623 C1622 1.524 . S
C1623 C1624 1.397 . S
C1623 C1628 1.363 . S
C1624 H1601 0.950 . S
C1624 C1623 1.397 . S
C1624 C1625 1.334 . S
C1625 H1602 0.950 . S
C1625 C1624 1.334 . S
C1625 C1626 1.287 . S
C1626 C1625 1.287 . S
C1626 C1627 1.524 . S
C1626 H1645 0.913 . S
C1627 H1603 0.950 . S
C1627 C1626 1.524 . S
C1627 C1628 1.415 . S
C1628 H1604 0.950 . S
C1628 C1623 1.363 . S
C1628 C1627 1.415 . S
C1629 H1605 0.951 . S
C1629 C1630 1.366 . S
C1629 C1631 1.388 . S
C1630 C1629 1.366 . S
C1630 C1634 1.385 . S
C1631 H1606 0.951 . S
C1631 C1629 1.388 . S
C1631 C1632 1.366 . S
C1632 C1631 1.366 . S
C1632 C1633 1.414 . S
C1632 C1635 1.499 . S
C1633 H1607 0.950 . S
C1633 C1632 1.414 . S
C1633 C1634 1.374 . S
C1634 H1608 0.950 . S
C1634 C1630 1.385 . S
C1634 C1633 1.374 . S
C1635 C1632 1.499 . S
C1635 C1636 1.373 . S
C1635 C1637 1.389 . S
C1636 H1609 0.950 . S
C1636 C1622 1.377 . S
C1636 C1635 1.373 . S
C1637 C1621 1.377 . S
C1637 C1635 1.389 . S
C1637 C1638 1.524 . S
C1638 C1637 1.524 . S
C1638 C1639 1.397 . S
C1638 C1643 1.363 . S
C1639 H1610 0.950 . S
C1639 C1638 1.397 . S
C1639 C1640 1.334 . S
C1640 H1611 0.950 . S
C1640 C1639 1.334 . S
C1640 C1641 1.287 . S
C1641 C1640 1.287 . S
C1641 C1642 1.524 . S
C1641 H1644 0.999 . S
C1642 H1612 0.950 . S
C1642 C1641 1.524 . S
C1642 C1643 1.415 . S
C1643 H1613 0.950 . S
C1643 C1638 1.363 . S
C1643 C1642 1.415 . S
H1644 C1641 0.999 . S
H1645 C1626 0.913 . S
H1646 C1664 0.951 . S
H1647 C1666 0.951 . S
H1648 C1668 0.950 . S
H1649 C1669 0.950 . S
H1650 C1671 0.950 . S
H1651 C1674 0.950 . S
H1652 C1675 0.950 . S
H1653 C1677 0.950 . S
H1654 C1678 0.950 . S
H1655 C1679 0.951 . S
H1656 C1681 0.951 . S
H1657 C1683 0.950 . S
H1658 C1684 0.950 . S
H1659 C1686 0.950 . S
H1660 C1689 0.950 . S
H1661 C1690 0.950 . S
H1662 C1692 0.950 . S
H1663 C1693 0.950 . S
C1664 H1646 0.951 . S
C1664 C1665 1.366 . S
C1664 C1666 1.388 . S
C1665 C1664 1.366 . S
C1665 C1669 1.385 . S
C1666 H1647 0.951 . S
C1666 C1664 1.388 . S
C1666 C1667 1.366 . S
C1667 C1666 1.366 . S
C1667 C1668 1.414 . S
C1667 C1670 1.499 . S
C1668 H1648 0.950 . S
C1668 C1667 1.414 . S
C1668 C1669 1.374 . S
C1669 H1649 0.950 . S
C1669 C1665 1.385 . S
C1669 C1668 1.374 . S
C1670 C1667 1.499 . S
C1670 C1671 1.373 . S
C1670 C1672 1.389 . S
C1671 H1650 0.950 . S
C1671 C1670 1.373 . S
C1671 C1687 1.377 . S
C1672 C1670 1.389 . S
C1672 C1673 1.524 . S
C1672 C1686 1.377 . S
C1673 C1672 1.524 . S
C1673 C1674 1.397 . S
C1673 C1678 1.363 . S
C1674 H1651 0.950 . S
C1674 C1673 1.397 . S
C1674 C1675 1.334 . S
C1675 H1652 0.950 . S
C1675 C1674 1.334 . S
C1675 C1676 1.287 . S
C1676 C1675 1.287 . S
C1676 C1677 1.524 . S
C1676 H1695 0.913 . S
C1677 H1653 0.950 . S
C1677 C1676 1.524 . S
C1677 C1678 1.415 . S
C1678 H1654 0.950 . S
C1678 C1673 1.363 . S
C1678 C1677 1.415 . S
C1679 H1655 0.951 . S
C1679 C1680 1.366 . S
C1679 C1681 1.388 . S
C1680 C1679 1.366 . S
C1680 C1684 1.385 . S
C1681 H1656 0.951 . S
C1681 C1679 1.388 . S
C1681 C1682 1.366 . S
C1682 C1681 1.366 . S
C1682 C1683 1.414 . S
C1682 C1685 1.499 . S
C1683 H1657 0.950 . S
C1683 C1682 1.414 . S
C1683 C1684 1.374 . S
C1684 H1658 0.950 . S
C1684 C1680 1.385 . S
C1684 C1683 1.374 . S
C1685 C1682 1.499 . S
C1685 C1686 1.373 . S
C1685 C1687 1.389 . S
C1686 H1659 0.950 . S
C1686 C1672 1.377 . S
C1686 C1685 1.373 . S
C1687 C1671 1.377 . S
C1687 C1685 1.389 . S
C1687 C1688 1.524 . S
C1688 C1687 1.524 . S
C1688 C1689 1.397 . S
C1688 C1693 1.363 . S
C1689 H1660 0.950 . S
C1689 C1688 1.397 . S
C1689 C1690 1.334 1_556 S
C1690 H1661 0.950 . S
C1690 C1689 1.334 1_554 S
C1690 C1691 1.290 . S
C1691 C1690 1.290 . S
C1691 C1692 1.513 1_554 S
C1691 H1694 1.006 . S
C1692 H1662 0.950 . S
C1692 C1691 1.513 1_556 S
C1692 C1693 1.415 . S
C1693 H1663 0.950 . S
C1693 C1688 1.363 . S
C1693 C1692 1.415 . S
H1694 C1691 1.006 . S
H1695 C1676 0.913 . S
H1696 C1714 0.951 . S
H1697 C1716 0.951 . S
H1698 C1718 0.950 . S
H1699 C1719 0.950 . S
H1700 C1721 0.950 . S
H1701 C1724 0.950 . S
H1702 C1725 0.950 . S
H1703 C1727 0.950 . S
H1704 C1728 0.950 . S
H1705 C1729 0.951 . S
H1706 C1731 0.951 . S
H1707 C1733 0.950 . S
H1708 C1734 0.950 . S
H1709 C1736 0.950 . S
H1710 C1739 0.950 . S
H1711 C1740 0.950 . S
H1712 C1742 0.950 . S
H1713 C1743 0.950 . S
C1714 H1696 0.951 . S
C1714 C1715 1.366 . S
C1714 C1716 1.388 . S
C1715 C1714 1.366 . S
C1715 C1719 1.385 . S
C1716 H1697 0.951 . S
C1716 C1714 1.388 . S
C1716 C1717 1.366 . S
C1717 C1716 1.366 . S
C1717 C1718 1.414 . S
C1717 C1720 1.499 . S
C1718 H1698 0.950 . S
C1718 C1717 1.414 . S
C1718 C1719 1.374 . S
C1719 H1699 0.950 . S
C1719 C1715 1.385 . S
C1719 C1718 1.374 . S
C1720 C1717 1.499 . S
C1720 C1721 1.373 . S
C1720 C1722 1.389 . S
C1721 H1700 0.950 . S
C1721 C1720 1.373 . S
C1721 C1737 1.377 . S
C1722 C1720 1.389 . S
C1722 C1723 1.524 . S
C1722 C1736 1.377 . S
C1723 C1722 1.524 . S
C1723 C1724 1.397 . S
C1723 C1728 1.363 . S
C1724 H1701 0.950 . S
C1724 C1723 1.397 . S
C1724 C1725 1.334 . S
C1725 H1702 0.950 . S
C1725 C1724 1.334 . S
C1725 C1726 1.287 . S
C1726 C1725 1.287 . S
C1726 C1727 1.524 . S
C1726 H1745 0.913 . S
C1727 H1703 0.950 . S
C1727 C1726 1.524 . S
C1727 C1728 1.415 . S
C1728 H1704 0.950 . S
C1728 C1723 1.363 . S
C1728 C1727 1.415 . S
C1729 H1705 0.951 . S
C1729 C1730 1.366 . S
C1729 C1731 1.388 . S
C1730 C1729 1.366 . S
C1730 C1734 1.385 . S
C1731 H1706 0.951 . S
C1731 C1729 1.388 . S
C1731 C1732 1.366 . S
C1732 C1731 1.366 . S
C1732 C1733 1.414 . S
C1732 C1735 1.499 . S
C1733 H1707 0.950 . S
C1733 C1732 1.414 . S
C1733 C1734 1.374 . S
C1734 H1708 0.950 . S
C1734 C1730 1.385 . S
C1734 C1733 1.374 . S
C1735 C1732 1.499 . S
C1735 C1736 1.373 . S
C1735 C1737 1.389 . S
C1736 H1709 0.950 . S
C1736 C1722 1.377 . S
C1736 C1735 1.373 . S
C1737 C1721 1.377 . S
C1737 C1735 1.389 . S
C1737 C1738 1.524 . S
C1738 C1737 1.524 . S
C1738 C1739 1.397 . S
C1738 C1743 1.363 . S
C1739 H1710 0.950 . S
C1739 C1738 1.397 . S
C1739 C1740 1.334 . S
C1740 H1711 0.950 . S
C1740 C1739 1.334 . S
C1740 C1741 1.287 . S
C1741 C1740 1.287 . S
C1741 C1742 1.524 . S
C1741 H1744 1.033 . S
C1742 H1712 0.950 . S
C1742 C1741 1.524 . S
C1742 C1743 1.415 . S
C1743 H1713 0.950 . S
C1743 C1738 1.363 . S
C1743 C1742 1.415 . S
H1744 C1741 1.033 . S
H1745 C1726 0.913 . S
H1746 C1764 0.951 . S
H1747 C1766 0.951 . S
H1748 C1768 0.950 . S
H1749 C1769 0.950 . S
H1750 C1771 0.950 . S
H1751 C1774 0.950 . S
H1752 C1775 0.950 . S
H1753 C1777 0.950 . S
H1754 C1778 0.950 . S
H1755 C1779 0.951 . S
H1756 C1781 0.951 . S
H1757 C1783 0.950 . S
H1758 C1784 0.950 . S
H1759 C1786 0.950 . S
H1760 C1789 0.950 . S
H1761 C1790 0.950 . S
H1762 C1792 0.950 . S
H1763 C1793 0.950 . S
C1764 H1746 0.951 . S
C1764 C1765 1.366 . S
C1764 C1766 1.388 . S
C1765 C1764 1.366 . S
C1765 C1769 1.385 . S
C1766 H1747 0.951 . S
C1766 C1764 1.388 . S
C1766 C1767 1.366 . S
C1767 C1766 1.366 . S
C1767 C1768 1.414 . S
C1767 C1770 1.499 . S
C1768 H1748 0.950 . S
C1768 C1767 1.414 . S
C1768 C1769 1.374 . S
C1769 H1749 0.950 . S
C1769 C1765 1.385 . S
C1769 C1768 1.374 . S
C1770 C1767 1.499 . S
C1770 C1771 1.373 . S
C1770 C1772 1.389 . S
C1771 H1750 0.950 . S
C1771 C1770 1.373 . S
C1771 C1787 1.377 . S
C1772 C1770 1.389 . S
C1772 C1773 1.524 . S
C1772 C1786 1.377 . S
C1773 C1772 1.524 . S
C1773 C1774 1.397 . S
C1773 C1778 1.363 . S
C1774 H1751 0.950 . S
C1774 C1773 1.397 . S
C1774 C1775 1.334 . S
C1775 H1752 0.950 . S
C1775 C1774 1.334 . S
C1775 C1776 1.287 . S
C1776 C1775 1.287 . S
C1776 C1777 1.524 . S
C1776 H1795 0.913 . S
C1777 H1753 0.950 . S
C1777 C1776 1.524 . S
C1777 C1778 1.415 . S
C1778 H1754 0.950 . S
C1778 C1773 1.363 . S
C1778 C1777 1.415 . S
C1779 H1755 0.951 . S
C1779 C1780 1.366 . S
C1779 C1781 1.388 . S
C1780 C1779 1.366 . S
C1780 C1784 1.385 . S
C1781 H1756 0.951 . S
C1781 C1779 1.388 . S
C1781 C1782 1.366 . S
C1782 C1781 1.366 . S
C1782 C1783 1.414 . S
C1782 C1785 1.499 . S
C1783 H1757 0.950 . S
C1783 C1782 1.414 . S
C1783 C1784 1.374 . S
C1784 H1758 0.950 . S
C1784 C1780 1.385 . S
C1784 C1783 1.374 . S
C1785 C1782 1.499 . S
C1785 C1786 1.373 . S
C1785 C1787 1.389 . S
C1786 H1759 0.950 . S
C1786 C1772 1.377 . S
C1786 C1785 1.373 . S
C1787 C1771 1.377 . S
C1787 C1785 1.389 . S
C1787 C1788 1.524 . S
C1788 C1787 1.524 . S
C1788 C1789 1.397 . S
C1788 C1793 1.363 . S
C1789 H1760 0.950 . S
C1789 C1788 1.397 . S
C1789 C1790 1.334 . S
C1790 H1761 0.950 . S
C1790 C1789 1.334 . S
C1790 C1791 1.287 . S
C1791 C1790 1.287 . S
C1791 C1792 1.524 . S
C1791 H1794 0.999 . S
C1792 H1762 0.950 . S
C1792 C1791 1.524 . S
C1792 C1793 1.415 . S
C1793 H1763 0.950 . S
C1793 C1788 1.363 . S
C1793 C1792 1.415 . S
H1794 C1791 0.999 . S
H1795 C1776 0.913 . S
H1796 C1814 0.951 . S
H1797 C1816 0.951 . S
H1798 C1818 0.950 . S
H1799 C1819 0.950 . S
H1800 C1821 0.950 . S
H1801 C1824 0.950 . S
H1802 C1825 0.950 . S
H1803 C1827 0.950 . S
H1804 C1828 0.950 . S
H1805 C1829 0.951 . S
H1806 C1831 0.951 . S
H1807 C1833 0.950 . S
H1808 C1834 0.950 . S
H1809 C1836 0.950 . S
H1810 C1839 0.950 . S
H1811 C1840 0.950 . S
H1812 C1842 0.950 . S
H1813 C1843 0.950 . S
C1814 H1796 0.951 . S
C1814 C1815 1.366 . S
C1814 C1816 1.388 . S
C1815 C1814 1.366 . S
C1815 C1819 1.385 . S
C1816 H1797 0.951 . S
C1816 C1814 1.388 . S
C1816 C1817 1.366 . S
C1817 C1816 1.366 . S
C1817 C1818 1.414 . S
C1817 C1820 1.499 . S
C1818 H1798 0.950 . S
C1818 C1817 1.414 . S
C1818 C1819 1.374 . S
C1819 H1799 0.950 . S
C1819 C1815 1.385 . S
C1819 C1818 1.374 . S
C1820 C1817 1.499 . S
C1820 C1821 1.373 . S
C1820 C1822 1.389 . S
C1821 H1800 0.950 . S
C1821 C1820 1.373 . S
C1821 C1837 1.377 . S
C1822 C1820 1.389 . S
C1822 C1823 1.524 . S
C1822 C1836 1.377 . S
C1823 C1822 1.524 . S
C1823 C1824 1.397 . S
C1823 C1828 1.363 . S
C1824 H1801 0.950 . S
C1824 C1823 1.397 . S
C1824 C1825 1.334 . S
C1825 H1802 0.950 . S
C1825 C1824 1.334 . S
C1825 C1826 1.287 . S
C1826 C1825 1.287 . S
C1826 C1827 1.524 . S
C1826 H1845 0.913 . S
C1827 H1803 0.950 . S
C1827 C1826 1.524 . S
C1827 C1828 1.415 . S
C1828 H1804 0.950 . S
C1828 C1823 1.363 . S
C1828 C1827 1.415 . S
C1829 H1805 0.951 . S
C1829 C1830 1.366 . S
C1829 C1831 1.388 . S
C1830 C1829 1.366 . S
C1830 C1834 1.385 . S
C1831 H1806 0.951 . S
C1831 C1829 1.388 . S
C1831 C1832 1.366 . S
C1832 C1831 1.366 . S
C1832 C1833 1.414 . S
C1832 C1835 1.499 . S
C1833 H1807 0.950 . S
C1833 C1832 1.414 . S
C1833 C1834 1.374 . S
C1834 H1808 0.950 . S
C1834 C1830 1.385 . S
C1834 C1833 1.374 . S
C1835 C1832 1.499 . S
C1835 C1836 1.373 . S
C1835 C1837 1.389 . S
C1836 H1809 0.950 . S
C1836 C1822 1.377 . S
C1836 C1835 1.373 . S
C1837 C1821 1.377 . S
C1837 C1835 1.389 . S
C1837 C1838 1.524 . S
C1838 C1837 1.524 . S
C1838 C1839 1.397 . S
C1838 C1843 1.363 . S
C1839 H1810 0.950 . S
C1839 C1838 1.397 . S
C1839 C1840 1.334 . S
C1840 H1811 0.950 . S
C1840 C1839 1.334 . S
C1840 C1841 1.287 . S
C1841 C1840 1.287 . S
C1841 C1842 1.524 . S
C1841 H1844 0.999 1_455 S
C1842 H1812 0.950 . S
C1842 C1841 1.524 . S
C1842 C1843 1.415 . S
C1843 H1813 0.950 . S
C1843 C1838 1.363 . S
C1843 C1842 1.415 . S
H1844 C1841 0.999 1_655 S
H1845 C1826 0.913 . S
H1846 C1864 0.951 . S
H1847 C1866 0.951 . S
H1848 C1868 0.950 . S
H1849 C1869 0.950 . S
H1850 C1871 0.950 . S
H1851 C1874 0.950 . S
H1852 C1875 0.950 . S
H1853 C1877 0.950 . S
H1854 C1878 0.950 . S
H1855 C1879 0.951 . S
H1856 C1881 0.951 . S
H1857 C1883 0.950 . S
H1858 C1884 0.950 . S
H1859 C1886 0.950 . S
H1860 C1889 0.950 . S
H1861 C1890 0.950 . S
H1862 C1892 0.950 . S
H1863 C1893 0.950 . S
C1864 H1846 0.951 . S
C1864 C1865 1.366 . S
C1864 C1866 1.388 . S
C1865 C1864 1.366 . S
C1865 C1869 1.385 . S
C1866 H1847 0.951 . S
C1866 C1864 1.388 . S
C1866 C1867 1.366 . S
C1867 C1866 1.366 . S
C1867 C1868 1.414 . S
C1867 C1870 1.499 . S
C1868 H1848 0.950 . S
C1868 C1867 1.414 . S
C1868 C1869 1.374 . S
C1869 H1849 0.950 . S
C1869 C1865 1.385 . S
C1869 C1868 1.374 . S
C1870 C1867 1.499 . S
C1870 C1871 1.373 . S
C1870 C1872 1.389 . S
C1871 H1850 0.950 . S
C1871 C1870 1.373 . S
C1871 C1887 1.377 . S
C1872 C1870 1.389 . S
C1872 C1873 1.524 . S
C1872 C1886 1.377 . S
C1873 C1872 1.524 . S
C1873 C1874 1.397 . S
C1873 C1878 1.363 . S
C1874 H1851 0.950 . S
C1874 C1873 1.397 . S
C1874 C1875 1.334 . S
C1875 H1852 0.950 . S
C1875 C1874 1.334 . S
C1875 C1876 1.287 . S
C1876 C1875 1.287 . S
C1876 C1877 1.524 . S
C1876 H1895 0.913 . S
C1877 H1853 0.950 . S
C1877 C1876 1.524 . S
C1877 C1878 1.415 . S
C1878 H1854 0.950 . S
C1878 C1873 1.363 . S
C1878 C1877 1.415 . S
C1879 H1855 0.951 . S
C1879 C1880 1.366 . S
C1879 C1881 1.388 . S
C1880 C1879 1.366 . S
C1880 C1884 1.385 . S
C1881 H1856 0.951 . S
C1881 C1879 1.388 . S
C1881 C1882 1.366 . S
C1882 C1881 1.366 . S
C1882 C1883 1.414 . S
C1882 C1885 1.499 . S
C1883 H1857 0.950 . S
C1883 C1882 1.414 . S
C1883 C1884 1.374 . S
C1884 H1858 0.950 . S
C1884 C1880 1.385 . S
C1884 C1883 1.374 . S
C1885 C1882 1.499 . S
C1885 C1886 1.373 . S
C1885 C1887 1.389 . S
C1886 H1859 0.950 . S
C1886 C1872 1.377 . S
C1886 C1885 1.373 . S
C1887 C1871 1.377 . S
C1887 C1885 1.389 . S
C1887 C1888 1.524 . S
C1888 C1887 1.524 . S
C1888 C1889 1.397 . S
C1888 C1893 1.363 . S
C1889 H1860 0.950 . S
C1889 C1888 1.397 . S
C1889 C1890 1.334 . S
C1890 H1861 0.950 . S
C1890 C1889 1.334 . S
C1890 C1891 1.287 . S
C1891 C1890 1.287 . S
C1891 C1892 1.524 . S
C1891 H1894 0.999 . S
C1892 H1862 0.950 . S
C1892 C1891 1.524 . S
C1892 C1893 1.415 . S
C1893 H1863 0.950 . S
C1893 C1888 1.363 . S
C1893 C1892 1.415 . S
H1894 C1891 0.999 . S
H1895 C1876 0.913 . S
H1896 C1914 0.951 . S
H1897 C1916 0.951 . S
H1898 C1918 0.950 . S
H1899 C1919 0.950 . S
H1900 C1921 0.950 . S
H1901 C1924 0.950 . S
H1902 C1925 0.950 . S
H1903 C1927 0.950 . S
H1904 C1928 0.950 . S
H1905 C1929 0.951 . S
H1906 C1931 0.951 . S
H1907 C1933 0.950 . S
H1908 C1934 0.950 . S
H1909 C1936 0.950 . S
H1910 C1939 0.950 . S
H1911 C1940 0.950 . S
H1912 C1942 0.950 . S
H1913 C1943 0.950 . S
C1914 H1896 0.951 . S
C1914 C1915 1.366 . S
C1914 C1916 1.388 . S
C1915 C1914 1.366 . S
C1915 C1919 1.385 . S
C1916 H1897 0.951 . S
C1916 C1914 1.388 . S
C1916 C1917 1.366 . S
C1917 C1916 1.366 . S
C1917 C1918 1.414 . S
C1917 C1920 1.499 . S
C1918 H1898 0.950 . S
C1918 C1917 1.414 . S
C1918 C1919 1.374 . S
C1919 H1899 0.950 . S
C1919 C1915 1.385 . S
C1919 C1918 1.374 . S
C1920 C1917 1.499 . S
C1920 C1921 1.373 . S
C1920 C1922 1.389 . S
C1921 H1900 0.950 . S
C1921 C1920 1.373 . S
C1921 C1937 1.377 . S
C1922 C1920 1.389 . S
C1922 C1923 1.524 . S
C1922 C1936 1.377 . S
C1923 C1922 1.524 . S
C1923 C1924 1.397 . S
C1923 C1928 1.363 . S
C1924 H1901 0.950 . S
C1924 C1923 1.397 . S
C1924 C1925 1.334 . S
C1925 H1902 0.950 . S
C1925 C1924 1.334 . S
C1925 C1926 1.287 . S
C1926 C1925 1.287 . S
C1926 C1927 1.524 . S
C1926 H1945 0.913 . S
C1927 H1903 0.950 . S
C1927 C1926 1.524 . S
C1927 C1928 1.415 . S
C1928 H1904 0.950 . S
C1928 C1923 1.363 . S
C1928 C1927 1.415 . S
C1929 H1905 0.951 . S
C1929 C1930 1.366 . S
C1929 C1931 1.388 . S
C1930 C1929 1.366 . S
C1930 C1934 1.385 . S
C1931 H1906 0.951 . S
C1931 C1929 1.388 . S
C1931 C1932 1.366 . S
C1932 C1931 1.366 . S
C1932 C1933 1.414 . S
C1932 C1935 1.499 . S
C1933 H1907 0.950 . S
C1933 C1932 1.414 . S
C1933 C1934 1.374 . S
C1934 H1908 0.950 . S
C1934 C1930 1.385 . S
C1934 C1933 1.374 . S
C1935 C1932 1.499 . S
C1935 C1936 1.373 . S
C1935 C1937 1.389 . S
C1936 H1909 0.950 . S
C1936 C1922 1.377 . S
C1936 C1935 1.373 . S
C1937 C1921 1.377 . S
C1937 C1935 1.389 . S
C1937 C1938 1.524 . S
C1938 C1937 1.524 . S
C1938 C1939 1.397 . S
C1938 C1943 1.363 . S
C1939 H1910 0.950 . S
C1939 C1938 1.397 . S
C1939 C1940 1.334 . S
C1940 H1911 0.950 . S
C1940 C1939 1.334 . S
C1940 C1941 1.287 . S
C1941 C1940 1.287 . S
C1941 C1942 1.524 . S
C1941 H1944 0.999 . S
C1942 H1912 0.950 . S
C1942 C1941 1.524 . S
C1942 C1943 1.415 . S
C1943 H1913 0.950 . S
C1943 C1938 1.363 . S
C1943 C1942 1.415 . S
H1944 C1941 0.999 . S
H1945 C1926 0.913 . S
H1946 C1964 0.951 . S
H1947 C1966 0.951 . S
H1948 C1968 0.950 . S
H1949 C1969 0.950 . S
H1950 C1971 0.950 . S
H1951 C1974 0.950 . S
H1952 C1975 0.950 . S
H1953 C1977 0.950 . S
H1954 C1978 0.950 . S
H1955 C1979 0.951 . S
H1956 C1981 0.951 . S
H1957 C1983 0.950 . S
H1958 C1984 0.950 . S
H1959 C1986 0.950 . S
H1960 C1989 0.950 . S
H1961 C1990 0.950 . S
H1962 C1992 0.950 . S
H1963 C1993 0.950 . S
C1964 H1946 0.951 . S
C1964 C1965 1.366 . S
C1964 C1966 1.388 . S
C1965 C1964 1.366 . S
C1965 C1969 1.385 . S
C1966 H1947 0.951 . S
C1966 C1964 1.388 . S
C1966 C1967 1.366 . S
C1967 C1966 1.366 . S
C1967 C1968 1.414 . S
C1967 C1970 1.499 . S
C1968 H1948 0.950 . S
C1968 C1967 1.414 . S
C1968 C1969 1.374 . S
C1969 H1949 0.950 . S
C1969 C1965 1.385 . S
C1969 C1968 1.374 . S
C1970 C1967 1.499 . S
C1970 C1971 1.373 . S
C1970 C1972 1.389 . S
C1971 H1950 0.950 . S
C1971 C1970 1.373 . S
C1971 C1987 1.377 . S
C1972 C1970 1.389 . S
C1972 C1973 1.524 . S
C1972 C1986 1.377 . S
C1973 C1972 1.524 . S
C1973 C1974 1.397 . S
C1973 C1978 1.363 . S
C1974 H1951 0.950 . S
C1974 C1973 1.397 . S
C1974 C1975 1.334 . S
C1975 H1952 0.950 . S
C1975 C1974 1.334 . S
C1975 C1976 1.287 . S
C1976 C1975 1.287 . S
C1976 C1977 1.524 . S
C1976 H1995 0.913 . S
C1977 H1953 0.950 . S
C1977 C1976 1.524 . S
C1977 C1978 1.415 . S
C1978 H1954 0.950 . S
C1978 C1973 1.363 . S
C1978 C1977 1.415 . S
C1979 H1955 0.951 . S
C1979 C1980 1.366 . S
C1979 C1981 1.388 . S
C1980 C1979 1.366 . S
C1980 C1984 1.385 . S
C1981 H1956 0.951 . S
C1981 C1979 1.388 . S
C1981 C1982 1.366 . S
C1982 C1981 1.366 . S
C1982 C1983 1.414 . S
C1982 C1985 1.499 . S
C1983 H1957 0.950 . S
C1983 C1982 1.414 . S
C1983 C1984 1.374 . S
C1984 H1958 0.950 . S
C1984 C1980 1.385 . S
C1984 C1983 1.374 . S
C1985 C1982 1.499 . S
C1985 C1986 1.373 . S
C1985 C1987 1.389 . S
C1986 H1959 0.950 . S
C1986 C1972 1.377 . S
C1986 C1985 1.373 . S
C1987 C1971 1.377 . S
C1987 C1985 1.389 . S
C1987 C1988 1.524 . S
C1988 C1987 1.524 . S
C1988 C1989 1.397 . S
C1988 C1993 1.363 . S
C1989 H1960 0.950 . S
C1989 C1988 1.397 . S
C1989 C1990 1.334 . S
C1990 H1961 0.950 . S
C1990 C1989 1.334 . S
C1990 C1991 1.287 . S
C1991 C1990 1.287 . S
C1991 C1992 1.524 . S
C1991 H1994 0.999 . S
C1992 H1962 0.950 . S
C1992 C1991 1.524 . S
C1992 C1993 1.415 . S
C1993 H1963 0.950 . S
C1993 C1988 1.363 . S
C1993 C1992 1.415 . S
H1994 C1991 0.999 . S
H1995 C1976 0.913 . S
H1996 C2014 0.951 . S
H1997 C2016 0.951 . S
H1998 C2018 0.950 . S
H1999 C2019 0.950 . S
H2000 C2021 0.950 . S
H2001 C2024 0.950 . S
H2002 C2025 0.950 . S
H2003 C2027 0.950 . S
H2004 C2028 0.950 . S
H2005 C2029 0.951 . S
H2006 C2031 0.951 . S
H2007 C2033 0.950 . S
H2008 C2034 0.950 . S
H2009 C2036 0.950 . S
H2010 C2039 0.950 . S
H2011 C2040 0.950 . S
H2012 C2042 0.950 . S
H2013 C2043 0.950 . S
C2014 H1996 0.951 . S
C2014 C2015 1.366 . S
C2014 C2016 1.388 . S
C2015 C2014 1.366 . S
C2015 C2019 1.385 . S
C2016 H1997 0.951 . S
C2016 C2014 1.388 . S
C2016 C2017 1.366 . S
C2017 C2016 1.366 . S
C2017 C2018 1.414 . S
C2017 C2020 1.499 . S
C2018 H1998 0.950 . S
C2018 C2017 1.414 . S
C2018 C2019 1.374 . S
C2019 H1999 0.950 . S
C2019 C2015 1.385 . S
C2019 C2018 1.374 . S
C2020 C2017 1.499 . S
C2020 C2021 1.373 . S
C2020 C2022 1.389 . S
C2021 H2000 0.950 . S
C2021 C2020 1.373 . S
C2021 C2037 1.377 . S
C2022 C2020 1.389 . S
C2022 C2023 1.524 . S
C2022 C2036 1.377 . S
C2023 C2022 1.524 . S
C2023 C2024 1.397 . S
C2023 C2028 1.363 . S
C2024 H2001 0.950 . S
C2024 C2023 1.397 . S
C2024 C2025 1.334 . S
C2025 H2002 0.950 . S
C2025 C2024 1.334 . S
C2025 C2026 1.287 . S
C2026 C2025 1.287 . S
C2026 C2027 1.524 . S
C2026 H2045 0.913 . S
C2027 H2003 0.950 . S
C2027 C2026 1.524 . S
C2027 C2028 1.415 . S
C2028 H2004 0.950 . S
C2028 C2023 1.363 . S
C2028 C2027 1.415 . S
C2029 H2005 0.951 . S
C2029 C2030 1.366 . S
C2029 C2031 1.388 . S
C2030 C2029 1.366 . S
C2030 C2034 1.385 . S
C2031 H2006 0.951 . S
C2031 C2029 1.388 . S
C2031 C2032 1.366 . S
C2032 C2031 1.366 . S
C2032 C2033 1.414 . S
C2032 C2035 1.499 . S
C2033 H2007 0.950 . S
C2033 C2032 1.414 . S
C2033 C2034 1.374 . S
C2034 H2008 0.950 . S
C2034 C2030 1.385 . S
C2034 C2033 1.374 . S
C2035 C2032 1.499 . S
C2035 C2036 1.373 . S
C2035 C2037 1.389 . S
C2036 H2009 0.950 . S
C2036 C2022 1.377 . S
C2036 C2035 1.373 . S
C2037 C2021 1.377 . S
C2037 C2035 1.389 . S
C2037 C2038 1.524 . S
C2038 C2037 1.524 . S
C2038 C2039 1.397 . S
C2038 C2043 1.363 . S
C2039 H2010 0.950 . S
C2039 C2038 1.397 . S
C2039 C2040 1.334 1_556 S
C2040 H2011 0.950 . S
C2040 C2039 1.334 1_554 S
C2040 C2041 1.287 . S
C2041 C2040 1.287 . S
C2041 C2042 1.524 . S
C2041 H2044 0.999 . S
C2042 H2012 0.950 . S
C2042 C2041 1.524 . S
C2042 C2043 1.415 1_554 S
C2043 H2013 0.950 . S
C2043 C2038 1.363 . S
C2043 C2042 1.415 1_556 S
H2044 C2041 0.999 . S
H2045 C2026 0.913 . S
H2046 C2064 0.951 . S
H2047 C2066 0.951 . S
H2048 C2068 0.950 . S
H2049 C2069 0.950 . S
H2050 C2071 0.950 . S
H2051 C2074 0.950 . S
H2052 C2075 0.950 . S
H2053 C2077 0.950 1_556 S
H2054 C2078 0.950 . S
H2055 C2079 0.951 . S
H2056 C2081 0.951 . S
H2057 C2083 0.950 . S
H2058 C2084 0.950 . S
H2059 C2086 0.950 . S
H2060 C2089 0.950 . S
H2061 C2090 0.950 . S
H2062 C2092 0.950 . S
H2063 C2093 0.950 . S
C2064 H2046 0.951 . S
C2064 C2065 1.366 . S
C2064 C2066 1.388 . S
C2065 C2064 1.366 . S
C2065 C2069 1.385 . S
C2066 H2047 0.951 . S
C2066 C2064 1.388 . S
C2066 C2067 1.366 . S
C2067 C2066 1.366 . S
C2067 C2068 1.414 . S
C2067 C2070 1.499 . S
C2068 H2048 0.950 . S
C2068 C2067 1.414 . S
C2068 C2069 1.374 . S
C2069 H2049 0.950 . S
C2069 C2065 1.385 . S
C2069 C2068 1.374 . S
C2070 C2067 1.499 . S
C2070 C2071 1.373 . S
C2070 C2072 1.389 . S
C2071 H2050 0.950 . S
C2071 C2070 1.373 . S
C2071 C2087 1.377 . S
C2072 C2070 1.389 . S
C2072 C2073 1.524 . S
C2072 C2086 1.377 . S
C2073 C2072 1.524 . S
C2073 C2074 1.397 . S
C2073 C2078 1.363 . S
C2074 H2051 0.950 . S
C2074 C2073 1.397 . S
C2074 C2075 1.334 . S
C2075 H2052 0.950 . S
C2075 C2074 1.334 . S
C2075 C2076 1.287 . S
C2076 C2075 1.287 . S
C2076 C2077 1.524 . S
C2076 H2095 0.913 . S
C2077 H2053 0.950 1_554 S
C2077 C2076 1.524 . S
C2077 C2078 1.415 . S
C2078 H2054 0.950 . S
C2078 C2073 1.363 . S
C2078 C2077 1.415 . S
C2079 H2055 0.951 . S
C2079 C2080 1.366 . S
C2079 C2081 1.388 . S
C2080 C2079 1.366 . S
C2080 C2084 1.385 . S
C2081 H2056 0.951 . S
C2081 C2079 1.388 . S
C2081 C2082 1.366 . S
C2082 C2081 1.366 . S
C2082 C2083 1.414 . S
C2082 C2085 1.499 . S
C2083 H2057 0.950 . S
C2083 C2082 1.414 . S
C2083 C2084 1.374 . S
C2084 H2058 0.950 . S
C2084 C2080 1.385 . S
C2084 C2083 1.374 . S
C2085 C2082 1.499 . S
C2085 C2086 1.373 . S
C2085 C2087 1.389 . S
C2086 H2059 0.950 . S
C2086 C2072 1.377 . S
C2086 C2085 1.373 . S
C2087 C2071 1.377 . S
C2087 C2085 1.389 . S
C2087 C2088 1.524 . S
C2088 C2087 1.524 . S
C2088 C2089 1.397 . S
C2088 C2093 1.363 . S
C2089 H2060 0.950 . S
C2089 C2088 1.397 . S
C2089 C2090 1.334 . S
C2090 H2061 0.950 . S
C2090 C2089 1.334 . S
C2090 C2091 1.287 . S
C2091 C2090 1.287 . S
C2091 C2092 1.524 . S
C2091 H2094 0.999 . S
C2092 H2062 0.950 . S
C2092 C2091 1.524 . S
C2092 C2093 1.415 . S
C2093 H2063 0.950 . S
C2093 C2088 1.363 . S
C2093 C2092 1.415 . S
H2094 C2091 0.999 . S
H2095 C2076 0.913 . S
H2096 C2114 0.951 . S
H2097 C2116 0.951 . S
H2098 C2118 0.950 . S
H2099 C2119 0.950 . S
H2100 C2121 0.950 . S
H2101 C2124 0.950 . S
H2102 C2125 0.950 . S
H2103 C2127 0.950 . S
H2104 C2128 0.950 . S
H2105 C2129 0.951 . S
H2106 C2131 0.951 . S
H2107 C2133 0.950 . S
H2108 C2134 0.950 . S
H2109 C2136 0.950 . S
H2110 C2139 0.950 . S
H2111 C2140 0.950 . S
H2112 C2142 0.950 . S
H2113 C2143 0.950 . S
C2114 H2096 0.951 . S
C2114 C2115 1.366 . S
C2114 C2116 1.388 . S
C2115 C2114 1.366 . S
C2115 C2119 1.385 . S
C2116 H2097 0.951 . S
C2116 C2114 1.388 . S
C2116 C2117 1.366 . S
C2117 C2116 1.366 . S
C2117 C2118 1.414 . S
C2117 C2120 1.499 . S
C2118 H2098 0.950 . S
C2118 C2117 1.414 . S
C2118 C2119 1.374 . S
C2119 H2099 0.950 . S
C2119 C2115 1.385 . S
C2119 C2118 1.374 . S
C2120 C2117 1.499 . S
C2120 C2121 1.373 . S
C2120 C2122 1.389 . S
C2121 H2100 0.950 . S
C2121 C2120 1.373 . S
C2121 C2137 1.377 . S
C2122 C2120 1.389 . S
C2122 C2123 1.524 . S
C2122 C2136 1.377 . S
C2123 C2122 1.524 . S
C2123 C2124 1.397 . S
C2123 C2128 1.363 . S
C2124 H2101 0.950 . S
C2124 C2123 1.397 . S
C2124 C2125 1.334 . S
C2125 H2102 0.950 . S
C2125 C2124 1.334 . S
C2125 C2126 1.287 . S
C2126 C2125 1.287 . S
C2126 C2127 1.524 . S
C2126 H2145 0.913 . S
C2127 H2103 0.950 . S
C2127 C2126 1.524 . S
C2127 C2128 1.415 . S
C2128 H2104 0.950 . S
C2128 C2123 1.363 . S
C2128 C2127 1.415 . S
C2129 H2105 0.951 . S
C2129 C2130 1.366 . S
C2129 C2131 1.388 . S
C2130 C2129 1.366 . S
C2130 C2134 1.385 . S
C2131 H2106 0.951 . S
C2131 C2129 1.388 . S
C2131 C2132 1.366 . S
C2132 C2131 1.366 . S
C2132 C2133 1.414 . S
C2132 C2135 1.499 . S
C2133 H2107 0.950 . S
C2133 C2132 1.414 . S
C2133 C2134 1.374 . S
C2134 H2108 0.950 . S
C2134 C2130 1.385 . S
C2134 C2133 1.374 . S
C2135 C2132 1.499 . S
C2135 C2136 1.373 . S
C2135 C2137 1.389 . S
C2136 H2109 0.950 . S
C2136 C2122 1.377 . S
C2136 C2135 1.373 . S
C2137 C2121 1.377 . S
C2137 C2135 1.389 . S
C2137 C2138 1.524 . S
C2138 C2137 1.524 . S
C2138 C2139 1.397 . S
C2138 C2143 1.363 . S
C2139 H2110 0.950 . S
C2139 C2138 1.397 . S
C2139 C2140 1.334 . S
C2140 H2111 0.950 . S
C2140 C2139 1.334 . S
C2140 C2141 1.287 . S
C2141 C2140 1.287 . S
C2141 C2142 1.524 . S
C2141 H2144 0.999 . S
C2142 H2112 0.950 . S
C2142 C2141 1.524 . S
C2142 C2143 1.415 . S
C2143 H2113 0.950 . S
C2143 C2138 1.363 . S
C2143 C2142 1.415 . S
H2144 C2141 0.999 . S
H2145 C2126 0.913 . S
H2146 C2164 0.951 . S
H2147 C2166 0.951 . S
H2148 C2168 0.950 . S
H2149 C2169 0.950 . S
H2150 C2171 0.950 . S
H2151 C2174 0.950 . S
H2152 C2175 0.950 . S
H2153 C2177 0.950 . S
H2154 C2178 0.950 . S
H2155 C2179 0.951 . S
H2156 C2181 0.951 . S
H2157 C2183 0.950 . S
H2158 C2184 0.950 . S
H2159 C2186 0.950 . S
H2160 C2189 0.950 . S
H2161 C2190 0.950 . S
H2162 C2192 0.950 . S
H2163 C2193 0.950 . S
C2164 H2146 0.951 . S
C2164 C2165 1.366 . S
C2164 C2166 1.388 . S
C2165 C2164 1.366 . S
C2165 C2169 1.385 . S
C2166 H2147 0.951 . S
C2166 C2164 1.388 . S
C2166 C2167 1.366 . S
C2167 C2166 1.366 . S
C2167 C2168 1.414 . S
C2167 C2170 1.499 . S
C2168 H2148 0.950 . S
C2168 C2167 1.414 . S
C2168 C2169 1.374 . S
C2169 H2149 0.950 . S
C2169 C2165 1.385 . S
C2169 C2168 1.374 . S
C2170 C2167 1.499 . S
C2170 C2171 1.373 . S
C2170 C2172 1.389 . S
C2171 H2150 0.950 . S
C2171 C2170 1.373 . S
C2171 C2187 1.377 . S
C2172 C2170 1.389 . S
C2172 C2173 1.524 . S
C2172 C2186 1.377 . S
C2173 C2172 1.524 . S
C2173 C2174 1.397 . S
C2173 C2178 1.363 . S
C2174 H2151 0.950 . S
C2174 C2173 1.397 . S
C2174 C2175 1.334 . S
C2175 H2152 0.950 . S
C2175 C2174 1.334 . S
C2175 C2176 1.287 . S
C2176 C2175 1.287 . S
C2176 C2177 1.524 . S
C2176 H2195 0.913 . S
C2177 H2153 0.950 . S
C2177 C2176 1.524 . S
C2177 C2178 1.415 . S
C2178 H2154 0.950 . S
C2178 C2173 1.363 . S
C2178 C2177 1.415 . S
C2179 H2155 0.951 . S
C2179 C2180 1.366 . S
C2179 C2181 1.388 . S
C2180 C2179 1.366 . S
C2180 C2184 1.385 . S
C2181 H2156 0.951 . S
C2181 C2179 1.388 . S
C2181 C2182 1.366 . S
C2182 C2181 1.366 . S
C2182 C2183 1.414 . S
C2182 C2185 1.499 . S
C2183 H2157 0.950 . S
C2183 C2182 1.414 . S
C2183 C2184 1.374 . S
C2184 H2158 0.950 . S
C2184 C2180 1.385 . S
C2184 C2183 1.374 . S
C2185 C2182 1.499 . S
C2185 C2186 1.373 . S
C2185 C2187 1.389 . S
C2186 H2159 0.950 . S
C2186 C2172 1.377 . S
C2186 C2185 1.373 . S
C2187 C2171 1.377 . S
C2187 C2185 1.389 . S
C2187 C2188 1.524 . S
C2188 C2187 1.524 . S
C2188 C2189 1.397 . S
C2188 C2193 1.363 . S
C2189 H2160 0.950 . S
C2189 C2188 1.397 . S
C2189 C2190 1.334 . S
C2190 H2161 0.950 . S
C2190 C2189 1.334 . S
C2190 C2191 1.287 . S
C2191 C2190 1.287 . S
C2191 C2192 1.524 . S
C2191 H2194 0.999 . S
C2192 H2162 0.950 . S
C2192 C2191 1.524 . S
C2192 C2193 1.415 . S
C2193 H2163 0.950 . S
C2193 C2188 1.363 . S
C2193 C2192 1.415 . S
H2194 C2191 0.999 . S
H2195 C2176 0.913 . S
H2196 C2214 0.951 . S
H2197 C2216 0.951 . S
H2198 C2218 0.950 . S
H2199 C2219 0.950 . S
H2200 C2221 0.950 . S
H2201 C2224 0.950 . S
H2202 C2225 0.950 . S
H2203 C2227 0.950 . S
H2204 C2228 0.950 . S
H2205 C2229 0.951 . S
H2206 C2231 0.951 . S
H2207 C2233 0.950 . S
H2208 C2234 0.950 . S
H2209 C2236 0.950 . S
H2210 C2239 0.950 . S
H2211 C2240 0.950 . S
H2212 C2242 0.950 . S
H2213 C2243 0.950 . S
C2214 H2196 0.951 . S
C2214 C2215 1.366 . S
C2214 C2216 1.388 . S
C2215 C2214 1.366 . S
C2215 C2219 1.385 . S
C2216 H2197 0.951 . S
C2216 C2214 1.388 . S
C2216 C2217 1.366 . S
C2217 C2216 1.366 . S
C2217 C2218 1.414 . S
C2217 C2220 1.499 . S
C2218 H2198 0.950 . S
C2218 C2217 1.414 . S
C2218 C2219 1.374 . S
C2219 H2199 0.950 . S
C2219 C2215 1.385 . S
C2219 C2218 1.374 . S
C2220 C2217 1.499 . S
C2220 C2221 1.373 . S
C2220 C2222 1.389 . S
C2221 H2200 0.950 . S
C2221 C2220 1.373 . S
C2221 C2237 1.377 . S
C2222 C2220 1.389 . S
C2222 C2223 1.524 . S
C2222 C2236 1.377 . S
C2223 C2222 1.524 . S
C2223 C2224 1.397 . S
C2223 C2228 1.363 . S
C2224 H2201 0.950 . S
C2224 C2223 1.397 . S
C2224 C2225 1.334 . S
C2225 H2202 0.950 . S
C2225 C2224 1.334 . S
C2225 C2226 1.287 . S
C2226 C2225 1.287 . S
C2226 C2227 1.524 . S
C2226 H2245 0.913 . S
C2227 H2203 0.950 . S
C2227 C2226 1.524 . S
C2227 C2228 1.415 . S
C2228 H2204 0.950 . S
C2228 C2223 1.363 . S
C2228 C2227 1.415 . S
C2229 H2205 0.951 . S
C2229 C2230 1.366 . S
C2229 C2231 1.388 . S
C2230 C2229 1.366 . S
C2230 C2234 1.385 . S
C2231 H2206 0.951 . S
C2231 C2229 1.388 . S
C2231 C2232 1.366 . S
C2232 C2231 1.366 . S
C2232 C2233 1.414 . S
C2232 C2235 1.499 . S
C2233 H2207 0.950 . S
C2233 C2232 1.414 . S
C2233 C2234 1.374 . S
C2234 H2208 0.950 . S
C2234 C2230 1.385 . S
C2234 C2233 1.374 . S
C2235 C2232 1.499 . S
C2235 C2236 1.373 . S
C2235 C2237 1.389 . S
C2236 H2209 0.950 . S
C2236 C2222 1.377 . S
C2236 C2235 1.373 . S
C2237 C2221 1.377 . S
C2237 C2235 1.389 . S
C2237 C2238 1.524 . S
C2238 C2237 1.524 . S
C2238 C2239 1.397 . S
C2238 C2243 1.363 . S
C2239 H2210 0.950 . S
C2239 C2238 1.397 . S
C2239 C2240 1.334 . S
C2240 H2211 0.950 . S
C2240 C2239 1.334 . S
C2240 C2241 1.287 . S
C2241 C2240 1.287 . S
C2241 C2242 1.524 . S
C2241 H2244 0.999 . S
C2242 H2212 0.950 . S
C2242 C2241 1.524 . S
C2242 C2243 1.415 . S
C2243 H2213 0.950 . S
C2243 C2238 1.363 . S
C2243 C2242 1.415 . S
H2244 C2241 0.999 . S
H2245 C2226 0.913 . S
H2246 C2264 0.951 . S
H2247 C2266 0.951 . S
H2248 C2268 0.950 . S
H2249 C2269 0.950 . S
H2250 C2271 0.950 . S
H2251 C2274 0.950 . S
H2252 C2275 0.950 . S
H2253 C2277 0.950 . S
H2254 C2278 0.950 . S
H2255 C2279 0.951 . S
H2256 C2281 0.951 . S
H2257 C2283 0.950 . S
H2258 C2284 0.950 . S
H2259 C2286 0.950 . S
H2260 C2289 0.950 . S
H2261 C2290 0.978 . S
H2262 C2292 0.950 . S
H2263 C2293 0.950 . S
C2264 H2246 0.951 . S
C2264 C2265 1.366 . S
C2264 C2266 1.388 . S
C2265 C2264 1.366 . S
C2265 C2269 1.385 . S
C2266 H2247 0.951 . S
C2266 C2264 1.388 . S
C2266 C2267 1.366 . S
C2267 C2266 1.366 . S
C2267 C2268 1.414 . S
C2267 C2270 1.499 . S
C2268 H2248 0.950 . S
C2268 C2267 1.414 . S
C2268 C2269 1.374 . S
C2269 H2249 0.950 . S
C2269 C2265 1.385 . S
C2269 C2268 1.374 . S
C2270 C2267 1.499 . S
C2270 C2271 1.373 . S
C2270 C2272 1.389 . S
C2271 H2250 0.950 . S
C2271 C2270 1.373 . S
C2271 C2287 1.377 . S
C2272 C2270 1.389 . S
C2272 C2273 1.524 . S
C2272 C2286 1.377 . S
C2273 C2272 1.524 . S
C2273 C2274 1.397 . S
C2273 C2278 1.363 . S
C2274 H2251 0.950 . S
C2274 C2273 1.397 . S
C2274 C2275 1.334 . S
C2275 H2252 0.950 . S
C2275 C2274 1.334 . S
C2275 C2276 1.287 . S
C2276 C2275 1.287 . S
C2276 C2277 1.524 . S
C2276 H2295 0.913 . S
C2277 H2253 0.950 . S
C2277 C2276 1.524 . S
C2277 C2278 1.415 . S
C2278 H2254 0.950 . S
C2278 C2273 1.363 . S
C2278 C2277 1.415 . S
C2279 H2255 0.951 . S
C2279 C2280 1.366 . S
C2279 C2281 1.388 . S
C2280 C2279 1.366 . S
C2280 C2284 1.385 . S
C2281 H2256 0.951 . S
C2281 C2279 1.388 . S
C2281 C2282 1.366 . S
C2282 C2281 1.366 . S
C2282 C2283 1.414 . S
C2282 C2285 1.499 . S
C2283 H2257 0.950 . S
C2283 C2282 1.414 . S
C2283 C2284 1.374 . S
C2284 H2258 0.950 . S
C2284 C2280 1.385 . S
C2284 C2283 1.374 . S
C2285 C2282 1.499 . S
C2285 C2286 1.373 . S
C2285 C2287 1.389 . S
C2286 H2259 0.950 . S
C2286 C2272 1.377 . S
C2286 C2285 1.373 . S
C2287 C2271 1.377 . S
C2287 C2285 1.389 . S
C2287 C2288 1.524 . S
C2288 C2287 1.524 . S
C2288 C2289 1.397 . S
C2288 C2293 1.363 . S
C2289 H2260 0.950 . S
C2289 C2288 1.397 . S
C2289 C2290 1.306 1_556 S
C2290 H2261 0.978 . S
C2290 C2289 1.306 1_554 S
C2290 C2291 1.287 1_554 S
C2291 C2290 1.287 1_556 S
C2291 C2292 1.524 . S
C2291 H2294 0.999 1_556 S
C2292 H2262 0.950 . S
C2292 C2291 1.524 . S
C2292 C2293 1.415 . S
C2293 H2263 0.950 . S
C2293 C2288 1.363 . S
C2293 C2292 1.415 . S
H2294 C2291 0.999 1_554 S
H2295 C2276 0.913 . S
H2296 C2314 0.951 . S
H2297 C2316 0.951 . S
H2298 C2318 0.950 . S
H2299 C2319 0.950 . S
H2300 C2321 0.950 . S
H2301 C2324 0.950 . S
H2302 C2325 0.950 . S
H2303 C2327 0.950 . S
H2304 C2328 0.950 . S
H2305 C2329 0.951 . S
H2306 C2331 0.951 . S
H2307 C2333 0.950 . S
H2308 C2334 0.950 . S
H2309 C2336 0.950 . S
H2310 C2339 0.950 . S
H2311 C2340 0.950 . S
H2312 C2342 0.950 . S
H2313 C2343 0.950 . S
C2314 H2296 0.951 . S
C2314 C2315 1.366 . S
C2314 C2316 1.388 . S
C2315 C2314 1.366 . S
C2315 C2319 1.385 . S
C2316 H2297 0.951 . S
C2316 C2314 1.388 . S
C2316 C2317 1.366 . S
C2317 C2316 1.366 . S
C2317 C2318 1.414 . S
C2317 C2320 1.499 . S
C2318 H2298 0.950 . S
C2318 C2317 1.414 . S
C2318 C2319 1.374 . S
C2319 H2299 0.950 . S
C2319 C2315 1.385 . S
C2319 C2318 1.374 . S
C2320 C2317 1.499 . S
C2320 C2321 1.373 . S
C2320 C2322 1.389 . S
C2321 H2300 0.950 . S
C2321 C2320 1.373 . S
C2321 C2337 1.377 . S
C2322 C2320 1.389 . S
C2322 C2323 1.524 . S
C2322 C2336 1.377 . S
C2323 C2322 1.524 . S
C2323 C2324 1.397 . S
C2323 C2328 1.363 . S
C2324 H2301 0.950 . S
C2324 C2323 1.397 . S
C2324 C2325 1.334 . S
C2325 H2302 0.950 . S
C2325 C2324 1.334 . S
C2325 C2326 1.287 . S
C2326 C2325 1.287 . S
C2326 C2327 1.524 . S
C2326 H2345 0.913 . S
C2327 H2303 0.950 . S
C2327 C2326 1.524 . S
C2327 C2328 1.415 . S
C2328 H2304 0.950 . S
C2328 C2323 1.363 . S
C2328 C2327 1.415 . S
C2329 H2305 0.951 . S
C2329 C2330 1.366 . S
C2329 C2331 1.388 . S
C2330 C2329 1.366 . S
C2330 C2334 1.385 . S
C2331 H2306 0.951 . S
C2331 C2329 1.388 . S
C2331 C2332 1.366 . S
C2332 C2331 1.366 . S
C2332 C2333 1.414 . S
C2332 C2335 1.499 . S
C2333 H2307 0.950 . S
C2333 C2332 1.414 . S
C2333 C2334 1.374 . S
C2334 H2308 0.950 . S
C2334 C2330 1.385 . S
C2334 C2333 1.374 . S
C2335 C2332 1.499 . S
C2335 C2336 1.373 . S
C2335 C2337 1.389 . S
C2336 H2309 0.950 . S
C2336 C2322 1.377 . S
C2336 C2335 1.373 . S
C2337 C2321 1.377 . S
C2337 C2335 1.389 . S
C2337 C2338 1.524 . S
C2338 C2337 1.524 . S
C2338 C2339 1.397 . S
C2338 C2343 1.363 . S
C2339 H2310 0.950 . S
C2339 C2338 1.397 . S
C2339 C2340 1.334 . S
C2340 H2311 0.950 . S
C2340 C2339 1.334 . S
C2340 C2341 1.287 . S
C2341 C2340 1.287 . S
C2341 C2342 1.524 . S
C2341 H2344 0.999 . S
C2342 H2312 0.950 . S
C2342 C2341 1.524 . S
C2342 C2343 1.415 . S
C2343 H2313 0.950 . S
C2343 C2338 1.363 . S
C2343 C2342 1.415 . S
H2344 C2341 0.999 . S
H2345 C2326 0.913 . S
H2346 C2364 0.951 . S
H2347 C2366 0.951 . S
H2348 C2368 0.950 . S
H2349 C2369 0.950 . S
H2350 C2371 0.950 . S
H2351 C2374 0.950 . S
H2352 C2375 0.950 . S
H2353 C2377 0.950 . S
H2354 C2378 0.950 . S
H2355 C2379 0.951 . S
H2356 C2381 0.951 . S
H2357 C2383 0.950 . S
H2358 C2384 0.950 . S
H2359 C2386 0.950 . S
H2360 C2389 0.950 . S
H2361 C2390 0.950 . S
H2362 C2392 0.950 . S
H2363 C2393 0.950 . S
C2364 H2346 0.951 . S
C2364 C2365 1.366 . S
C2364 C2366 1.388 . S
C2365 C2364 1.366 . S
C2365 C2369 1.385 . S
C2366 H2347 0.951 . S
C2366 C2364 1.388 . S
C2366 C2367 1.366 . S
C2367 C2366 1.366 . S
C2367 C2368 1.414 . S
C2367 C2370 1.499 . S
C2368 H2348 0.950 . S
C2368 C2367 1.414 . S
C2368 C2369 1.374 . S
C2369 H2349 0.950 . S
C2369 C2365 1.385 . S
C2369 C2368 1.374 . S
C2370 C2367 1.499 . S
C2370 C2371 1.373 . S
C2370 C2372 1.389 . S
C2371 H2350 0.950 . S
C2371 C2370 1.373 . S
C2371 C2387 1.377 . S
C2372 C2370 1.389 . S
C2372 C2373 1.524 . S
C2372 C2386 1.377 . S
C2373 C2372 1.524 . S
C2373 C2374 1.397 . S
C2373 C2378 1.363 . S
C2374 H2351 0.950 . S
C2374 C2373 1.397 . S
C2374 C2375 1.334 . S
C2375 H2352 0.950 . S
C2375 C2374 1.334 . S
C2375 C2376 1.287 . S
C2376 C2375 1.287 . S
C2376 C2377 1.524 . S
C2376 H2395 0.913 . S
C2377 H2353 0.950 . S
C2377 C2376 1.524 . S
C2377 C2378 1.415 . S
C2378 H2354 0.950 . S
C2378 C2373 1.363 . S
C2378 C2377 1.415 . S
C2379 H2355 0.951 . S
C2379 C2380 1.366 . S
C2379 C2381 1.388 . S
C2380 C2379 1.366 . S
C2380 C2384 1.385 . S
C2381 H2356 0.951 . S
C2381 C2379 1.388 . S
C2381 C2382 1.366 . S
C2382 C2381 1.366 . S
C2382 C2383 1.414 . S
C2382 C2385 1.499 . S
C2383 H2357 0.950 . S
C2383 C2382 1.414 . S
C2383 C2384 1.374 . S
C2384 H2358 0.950 . S
C2384 C2380 1.385 . S
C2384 C2383 1.374 . S
C2385 C2382 1.499 . S
C2385 C2386 1.373 . S
C2385 C2387 1.389 . S
C2386 H2359 0.950 . S
C2386 C2372 1.377 . S
C2386 C2385 1.373 . S
C2387 C2371 1.377 . S
C2387 C2385 1.389 . S
C2387 C2388 1.524 . S
C2388 C2387 1.524 . S
C2388 C2389 1.397 . S
C2388 C2393 1.363 . S
C2389 H2360 0.950 . S
C2389 C2388 1.397 . S
C2389 C2390 1.334 1_556 S
C2390 H2361 0.950 . S
C2390 C2389 1.334 1_554 S
C2390 C2391 1.287 . S
C2391 C2390 1.287 . S
C2391 C2392 1.524 1_554 S
C2391 H2394 0.999 . S
C2392 H2362 0.950 . S
C2392 C2391 1.524 1_556 S
C2392 C2393 1.415 . S
C2393 H2363 0.950 . S
C2393 C2388 1.363 . S
C2393 C2392 1.415 . S
H2394 C2391 0.999 . S
H2395 C2376 0.913 . S
H2396 C2414 0.951 . S
H2397 C2416 0.951 . S
H2398 C2418 0.950 . S
H2399 C2419 0.950 . S
H2400 C2421 0.950 . S
H2401 C2424 0.950 . S
H2402 C2425 0.950 . S
H2403 C2427 0.950 . S
H2404 C2428 0.950 . S
H2405 C2429 0.951 . S
H2406 C2431 0.951 . S
H2407 C2433 0.950 . S
H2408 C2434 0.950 . S
H2409 C2436 0.950 . S
H2410 C2439 0.950 . S
H2411 C2440 0.950 . S
H2412 C2442 0.950 . S
H2413 C2443 0.950 . S
C2414 H2396 0.951 . S
C2414 C2415 1.366 . S
C2414 C2416 1.388 . S
C2415 C2414 1.366 . S
C2415 C2419 1.385 . S
C2416 H2397 0.951 . S
C2416 C2414 1.388 . S
C2416 C2417 1.366 . S
C2417 C2416 1.366 . S
C2417 C2418 1.414 . S
C2417 C2420 1.499 . S
C2418 H2398 0.950 . S
C2418 C2417 1.414 . S
C2418 C2419 1.374 . S
C2419 H2399 0.950 . S
C2419 C2415 1.385 . S
C2419 C2418 1.374 . S
C2420 C2417 1.499 . S
C2420 C2421 1.373 . S
C2420 C2422 1.389 . S
C2421 H2400 0.950 . S
C2421 C2420 1.373 . S
C2421 C2437 1.377 . S
C2422 C2420 1.389 . S
C2422 C2423 1.524 . S
C2422 C2436 1.377 . S
C2423 C2422 1.524 . S
C2423 C2424 1.397 . S
C2423 C2428 1.363 . S
C2424 H2401 0.950 . S
C2424 C2423 1.397 . S
C2424 C2425 1.334 . S
C2425 H2402 0.950 . S
C2425 C2424 1.334 . S
C2425 C2426 1.287 . S
C2426 C2425 1.287 . S
C2426 C2427 1.524 . S
C2426 H2445 0.913 . S
C2427 H2403 0.950 . S
C2427 C2426 1.524 . S
C2427 C2428 1.415 . S
C2428 H2404 0.950 . S
C2428 C2423 1.363 . S
C2428 C2427 1.415 . S
C2429 H2405 0.951 . S
C2429 C2430 1.366 . S
C2429 C2431 1.388 . S
C2430 C2429 1.366 . S
C2430 C2434 1.385 . S
C2431 H2406 0.951 . S
C2431 C2429 1.388 . S
C2431 C2432 1.366 . S
C2432 C2431 1.366 . S
C2432 C2433 1.414 . S
C2432 C2435 1.499 . S
C2433 H2407 0.950 . S
C2433 C2432 1.414 . S
C2433 C2434 1.374 . S
C2434 H2408 0.950 . S
C2434 C2430 1.385 . S
C2434 C2433 1.374 . S
C2435 C2432 1.499 . S
C2435 C2436 1.373 . S
C2435 C2437 1.389 . S
C2436 H2409 0.950 . S
C2436 C2422 1.377 . S
C2436 C2435 1.373 . S
C2437 C2421 1.377 . S
C2437 C2435 1.389 . S
C2437 C2438 1.524 . S
C2438 C2437 1.524 . S
C2438 C2439 1.397 . S
C2438 C2443 1.363 . S
C2439 H2410 0.950 . S
C2439 C2438 1.397 . S
C2439 C2440 1.334 1_554 S
C2440 H2411 0.950 . S
C2440 C2439 1.334 1_556 S
C2440 C2441 1.287 . S
C2441 C2440 1.287 . S
C2441 C2442 1.524 . S
C2441 H2444 0.999 . S
C2442 H2412 0.950 . S
C2442 C2441 1.524 . S
C2442 C2443 1.415 1_556 S
C2443 H2413 0.950 . S
C2443 C2438 1.363 . S
C2443 C2442 1.415 1_554 S
H2444 C2441 0.999 . S
H2445 C2426 0.913 . S
H2446 C2464 0.951 . S
H2447 C2466 0.951 . S
H2448 C2468 0.950 . S
H2449 C2469 0.950 . S
H2450 C2471 0.950 . S
H2451 C2474 0.950 . S
H2452 C2475 0.950 . S
H2453 C2477 0.950 . S
H2454 C2478 0.950 . S
H2455 C2479 0.951 . S
H2456 C2481 0.951 . S
H2457 C2483 0.950 . S
H2458 C2484 0.950 . S
H2459 C2486 0.950 . S
H2460 C2489 0.950 . S
H2461 C2490 0.950 . S
H2462 C2492 0.950 . S
H2463 C2493 0.950 . S
C2464 H2446 0.951 . S
C2464 C2465 1.366 . S
C2464 C2466 1.388 . S
C2465 C2464 1.366 . S
C2465 C2469 1.385 . S
C2466 H2447 0.951 . S
C2466 C2464 1.388 . S
C2466 C2467 1.366 . S
C2467 C2466 1.366 . S
C2467 C2468 1.414 . S
C2467 C2470 1.499 . S
C2468 H2448 0.950 . S
C2468 C2467 1.414 . S
C2468 C2469 1.374 . S
C2469 H2449 0.950 . S
C2469 C2465 1.385 . S
C2469 C2468 1.374 . S
C2470 C2467 1.499 . S
C2470 C2471 1.373 . S
C2470 C2472 1.389 . S
C2471 H2450 0.950 . S
C2471 C2470 1.373 . S
C2471 C2487 1.377 . S
C2472 C2470 1.389 . S
C2472 C2473 1.524 . S
C2472 C2486 1.377 . S
C2473 C2472 1.524 . S
C2473 C2474 1.397 . S
C2473 C2478 1.363 . S
C2474 H2451 0.950 . S
C2474 C2473 1.397 . S
C2474 C2475 1.334 . S
C2475 H2452 0.950 . S
C2475 C2474 1.334 . S
C2475 C2476 1.287 . S
C2476 C2475 1.287 . S
C2476 C2477 1.524 . S
C2476 H2495 0.913 . S
C2477 H2453 0.950 . S
C2477 C2476 1.524 . S
C2477 C2478 1.415 . S
C2478 H2454 0.950 . S
C2478 C2473 1.363 . S
C2478 C2477 1.415 . S
C2479 H2455 0.951 . S
C2479 C2480 1.366 . S
C2479 C2481 1.388 . S
C2480 C2479 1.366 . S
C2480 C2484 1.385 . S
C2481 H2456 0.951 . S
C2481 C2479 1.388 . S
C2481 C2482 1.366 . S
C2482 C2481 1.366 . S
C2482 C2483 1.414 . S
C2482 C2485 1.499 . S
C2483 H2457 0.950 . S
C2483 C2482 1.414 . S
C2483 C2484 1.374 . S
C2484 H2458 0.950 . S
C2484 C2480 1.385 . S
C2484 C2483 1.374 . S
C2485 C2482 1.499 . S
C2485 C2486 1.373 . S
C2485 C2487 1.389 . S
C2486 H2459 0.950 . S
C2486 C2472 1.377 . S
C2486 C2485 1.373 . S
C2487 C2471 1.377 . S
C2487 C2485 1.389 . S
C2487 C2488 1.524 . S
C2488 C2487 1.524 . S
C2488 C2489 1.397 . S
C2488 C2493 1.363 . S
C2489 H2460 0.950 . S
C2489 C2488 1.397 . S
C2489 C2490 1.334 . S
C2490 H2461 0.950 . S
C2490 C2489 1.334 . S
C2490 C2491 1.287 . S
C2491 C2490 1.287 . S
C2491 C2492 1.524 . S
C2491 H2494 0.999 . S
C2492 H2462 0.950 . S
C2492 C2491 1.524 . S
C2492 C2493 1.415 . S
C2493 H2463 0.950 . S
C2493 C2488 1.363 . S
C2493 C2492 1.415 . S
H2494 C2491 0.999 . S
H2495 C2476 0.913 . S
H2496 C2514 0.951 . S
H2497 C2516 0.951 . S
H2498 C2518 0.950 . S
H2499 C2519 0.950 . S
H2500 C2521 0.950 . S
H2501 C2524 0.950 . S
H2502 C2525 0.950 . S
H2503 C2527 0.950 . S
H2504 C2528 0.950 . S
H2505 C2529 0.951 . S
H2506 C2531 0.951 . S
H2507 C2533 0.950 . S
H2508 C2534 0.950 . S
H2509 C2536 0.950 . S
H2510 C2539 0.950 . S
H2511 C2540 0.950 1_556 S
H2512 C2542 0.950 . S
H2513 C2543 0.950 . S
C2514 H2496 0.951 . S
C2514 C2515 1.366 . S
C2514 C2516 1.388 . S
C2515 C2514 1.366 . S
C2515 C2519 1.385 . S
C2516 H2497 0.951 . S
C2516 C2514 1.388 . S
C2516 C2517 1.366 . S
C2517 C2516 1.366 . S
C2517 C2518 1.414 . S
C2517 C2520 1.499 . S
C2518 H2498 0.950 . S
C2518 C2517 1.414 . S
C2518 C2519 1.374 . S
C2519 H2499 0.950 . S
C2519 C2515 1.385 . S
C2519 C2518 1.374 . S
C2520 C2517 1.499 . S
C2520 C2521 1.373 . S
C2520 C2522 1.389 . S
C2521 H2500 0.950 . S
C2521 C2520 1.373 . S
C2521 C2537 1.377 . S
C2522 C2520 1.389 . S
C2522 C2523 1.524 . S
C2522 C2536 1.377 . S
C2523 C2522 1.524 . S
C2523 C2524 1.397 . S
C2523 C2528 1.363 . S
C2524 H2501 0.950 . S
C2524 C2523 1.397 . S
C2524 C2525 1.334 . S
C2525 H2502 0.950 . S
C2525 C2524 1.334 . S
C2525 C2526 1.287 . S
C2526 C2525 1.287 . S
C2526 C2527 1.524 . S
C2526 H2545 0.913 . S
C2527 H2503 0.950 . S
C2527 C2526 1.524 . S
C2527 C2528 1.415 . S
C2528 H2504 0.950 . S
C2528 C2523 1.363 . S
C2528 C2527 1.415 . S
C2529 H2505 0.951 . S
C2529 C2530 1.366 . S
C2529 C2531 1.388 . S
C2530 C2529 1.366 . S
C2530 C2534 1.385 . S
C2531 H2506 0.951 . S
C2531 C2529 1.388 . S
C2531 C2532 1.366 . S
C2532 C2531 1.366 . S
C2532 C2533 1.414 . S
C2532 C2535 1.499 . S
C2533 H2507 0.950 . S
C2533 C2532 1.414 . S
C2533 C2534 1.374 . S
C2534 H2508 0.950 . S
C2534 C2530 1.385 . S
C2534 C2533 1.374 . S
C2535 C2532 1.499 . S
C2535 C2536 1.373 . S
C2535 C2537 1.389 . S
C2536 H2509 0.950 . S
C2536 C2522 1.377 . S
C2536 C2535 1.373 . S
C2537 C2521 1.377 . S
C2537 C2535 1.389 . S
C2537 C2538 1.524 . S
C2538 C2537 1.524 . S
C2538 C2539 1.397 . S
C2538 C2543 1.363 . S
C2539 H2510 0.950 . S
C2539 C2538 1.397 . S
C2539 C2540 1.334 . S
C2540 H2511 0.950 1_554 S
C2540 C2539 1.334 . S
C2540 C2541 1.287 . S
C2541 C2540 1.287 . S
C2541 C2542 1.524 . S
C2541 H2544 0.999 . S
C2542 H2512 0.950 . S
C2542 C2541 1.524 . S
C2542 C2543 1.415 . S
C2543 H2513 0.950 . S
C2543 C2538 1.363 . S
C2543 C2542 1.415 . S
H2544 C2541 0.999 . S
H2545 C2526 0.913 . S
H2546 C2564 0.951 . S
H2547 C2566 0.951 . S
H2548 C2568 0.950 . S
H2549 C2569 0.950 . S
H2550 C2571 0.950 . S
H2551 C2574 0.950 . S
H2552 C2575 0.950 . S
H2553 C2577 0.950 . S
H2554 C2578 0.950 . S
H2555 C2579 0.951 . S
H2556 C2581 0.951 . S
H2557 C2583 0.950 . S
H2558 C2584 0.950 . S
H2559 C2586 0.950 . S
H2560 C2589 0.950 . S
H2561 C2590 0.950 . S
H2562 C2592 0.950 . S
H2563 C2593 0.950 . S
C2564 H2546 0.951 . S
C2564 C2565 1.366 . S
C2564 C2566 1.388 . S
C2565 C2564 1.366 . S
C2565 C2569 1.385 . S
C2566 H2547 0.951 . S
C2566 C2564 1.388 . S
C2566 C2567 1.366 . S
C2567 C2566 1.366 . S
C2567 C2568 1.414 . S
C2567 C2570 1.499 . S
C2568 H2548 0.950 . S
C2568 C2567 1.414 . S
C2568 C2569 1.374 . S
C2569 H2549 0.950 . S
C2569 C2565 1.385 . S
C2569 C2568 1.374 . S
C2570 C2567 1.499 . S
C2570 C2571 1.373 . S
C2570 C2572 1.389 . S
C2571 H2550 0.950 . S
C2571 C2570 1.373 . S
C2571 C2587 1.377 . S
C2572 C2570 1.389 . S
C2572 C2573 1.524 . S
C2572 C2586 1.377 . S
C2573 C2572 1.524 . S
C2573 C2574 1.397 . S
C2573 C2578 1.363 . S
C2574 H2551 0.950 . S
C2574 C2573 1.397 . S
C2574 C2575 1.334 . S
C2575 H2552 0.950 . S
C2575 C2574 1.334 . S
C2575 C2576 1.287 . S
C2576 C2575 1.287 . S
C2576 C2577 1.524 . S
C2576 H2595 0.913 . S
C2577 H2553 0.950 . S
C2577 C2576 1.524 . S
C2577 C2578 1.415 . S
C2578 H2554 0.950 . S
C2578 C2573 1.363 . S
C2578 C2577 1.415 . S
C2579 H2555 0.951 . S
C2579 C2580 1.366 . S
C2579 C2581 1.388 . S
C2580 C2579 1.366 . S
C2580 C2584 1.385 . S
C2581 H2556 0.951 . S
C2581 C2579 1.388 . S
C2581 C2582 1.366 . S
C2582 C2581 1.366 . S
C2582 C2583 1.414 . S
C2582 C2585 1.499 . S
C2583 H2557 0.950 . S
C2583 C2582 1.414 . S
C2583 C2584 1.374 . S
C2584 H2558 0.950 . S
C2584 C2580 1.385 . S
C2584 C2583 1.374 . S
C2585 C2582 1.499 . S
C2585 C2586 1.373 . S
C2585 C2587 1.389 . S
C2586 H2559 0.950 . S
C2586 C2572 1.377 . S
C2586 C2585 1.373 . S
C2587 C2571 1.377 . S
C2587 C2585 1.389 . S
C2587 C2588 1.524 . S
C2588 C2587 1.524 . S
C2588 C2589 1.397 . S
C2588 C2593 1.363 . S
C2589 H2560 0.950 . S
C2589 C2588 1.397 . S
C2589 C2590 1.334 . S
C2590 H2561 0.950 . S
C2590 C2589 1.334 . S
C2590 C2591 1.287 . S
C2591 C2590 1.287 . S
C2591 C2592 1.524 . S
C2591 H2594 0.999 . S
C2592 H2562 0.950 . S
C2592 C2591 1.524 . S
C2592 C2593 1.415 . S
C2593 H2563 0.950 . S
C2593 C2588 1.363 . S
C2593 C2592 1.415 . S
H2594 C2591 0.999 . S
H2595 C2576 0.913 . S
H2596 C2614 0.951 . S
H2597 C2616 0.951 . S
H2598 C2618 0.950 . S
H2599 C2619 0.950 . S
H2600 C2621 0.950 . S
H2601 C2624 0.950 . S
H2602 C2625 0.950 . S
H2603 C2627 0.950 . S
H2604 C2628 0.950 . S
H2605 C2629 0.951 . S
H2606 C2631 0.951 . S
H2607 C2633 0.950 . S
H2608 C2634 0.950 . S
H2609 C2636 0.950 . S
H2610 C2639 0.950 . S
H2611 C2640 0.950 . S
H2612 C2642 0.950 . S
H2613 C2643 0.950 . S
C2614 H2596 0.951 . S
C2614 C2615 1.366 . S
C2614 C2616 1.388 . S
C2615 C2614 1.366 . S
C2615 C2619 1.385 . S
C2616 H2597 0.951 . S
C2616 C2614 1.388 . S
C2616 C2617 1.366 . S
C2617 C2616 1.366 . S
C2617 C2618 1.414 . S
C2617 C2620 1.499 . S
C2618 H2598 0.950 . S
C2618 C2617 1.414 . S
C2618 C2619 1.374 . S
C2619 H2599 0.950 . S
C2619 C2615 1.385 . S
C2619 C2618 1.374 . S
C2620 C2617 1.499 . S
C2620 C2621 1.373 . S
C2620 C2622 1.389 . S
C2621 H2600 0.950 . S
C2621 C2620 1.373 . S
C2621 C2637 1.377 . S
C2622 C2620 1.389 . S
C2622 C2623 1.524 . S
C2622 C2636 1.377 . S
C2623 C2622 1.524 . S
C2623 C2624 1.397 . S
C2623 C2628 1.363 . S
C2624 H2601 0.950 . S
C2624 C2623 1.397 . S
C2624 C2625 1.334 . S
C2625 H2602 0.950 . S
C2625 C2624 1.334 . S
C2625 C2626 1.287 . S
C2626 C2625 1.287 . S
C2626 C2627 1.524 . S
C2626 H2645 0.913 . S
C2627 H2603 0.950 . S
C2627 C2626 1.524 . S
C2627 C2628 1.415 . S
C2628 H2604 0.950 . S
C2628 C2623 1.363 . S
C2628 C2627 1.415 . S
C2629 H2605 0.951 . S
C2629 C2630 1.366 . S
C2629 C2631 1.388 . S
C2630 C2629 1.366 . S
C2630 C2634 1.385 . S
C2631 H2606 0.951 . S
C2631 C2629 1.388 . S
C2631 C2632 1.366 . S
C2632 C2631 1.366 . S
C2632 C2633 1.414 . S
C2632 C2635 1.499 . S
C2633 H2607 0.950 . S
C2633 C2632 1.414 . S
C2633 C2634 1.374 . S
C2634 H2608 0.950 . S
C2634 C2630 1.385 . S
C2634 C2633 1.374 . S
C2635 C2632 1.499 . S
C2635 C2636 1.373 . S
C2635 C2637 1.389 . S
C2636 H2609 0.950 . S
C2636 C2622 1.377 . S
C2636 C2635 1.373 . S
C2637 C2621 1.377 . S
C2637 C2635 1.389 . S
C2637 C2638 1.524 . S
C2638 C2637 1.524 . S
C2638 C2639 1.397 . S
C2638 C2643 1.363 . S
C2639 H2610 0.950 . S
C2639 C2638 1.397 . S
C2639 C2640 1.334 . S
C2640 H2611 0.950 . S
C2640 C2639 1.334 . S
C2640 C2641 1.287 . S
C2641 C2640 1.287 . S
C2641 C2642 1.524 . S
C2641 H2644 0.999 . S
C2642 H2612 0.950 . S
C2642 C2641 1.524 . S
C2642 C2643 1.415 . S
C2643 H2613 0.950 . S
C2643 C2638 1.363 . S
C2643 C2642 1.415 . S
H2644 C2641 0.999 . S
H2645 C2626 0.913 . S
H2646 C2664 0.951 . S
H2647 C2666 0.951 . S
H2648 C2668 0.950 . S
H2649 C2669 0.950 . S
H2650 C2671 0.950 . S
H2651 C2674 0.950 . S
H2652 C2675 0.950 . S
H2653 C2677 0.950 . S
H2654 C2678 0.950 . S
H2655 C2679 0.951 . S
H2656 C2681 0.951 . S
H2657 C2683 0.950 . S
H2658 C2684 0.950 . S
H2659 C2686 0.950 . S
H2660 C2689 0.950 . S
H2661 C2690 0.950 . S
H2662 C2692 0.950 . S
H2663 C2693 0.950 . S
C2664 H2646 0.951 . S
C2664 C2665 1.366 . S
C2664 C2666 1.388 . S
C2665 C2664 1.366 . S
C2665 C2669 1.385 . S
C2666 H2647 0.951 . S
C2666 C2664 1.388 . S
C2666 C2667 1.366 . S
C2667 C2666 1.366 . S
C2667 C2668 1.414 . S
C2667 C2670 1.499 . S
C2668 H2648 0.950 . S
C2668 C2667 1.414 . S
C2668 C2669 1.374 . S
C2669 H2649 0.950 . S
C2669 C2665 1.385 . S
C2669 C2668 1.374 . S
C2670 C2667 1.499 . S
C2670 C2671 1.373 . S
C2670 C2672 1.389 . S
C2671 H2650 0.950 . S
C2671 C2670 1.373 . S
C2671 C2687 1.377 . S
C2672 C2670 1.389 . S
C2672 C2673 1.524 . S
C2672 C2686 1.377 . S
C2673 C2672 1.524 . S
C2673 C2674 1.397 . S
C2673 C2678 1.363 . S
C2674 H2651 0.950 . S
C2674 C2673 1.397 . S
C2674 C2675 1.334 . S
C2675 H2652 0.950 . S
C2675 C2674 1.334 . S
C2675 C2676 1.287 . S
C2676 C2675 1.287 . S
C2676 C2677 1.524 . S
C2676 H2695 0.913 . S
C2677 H2653 0.950 . S
C2677 C2676 1.524 . S
C2677 C2678 1.415 . S
C2678 H2654 0.950 . S
C2678 C2673 1.363 . S
C2678 C2677 1.415 . S
C2679 H2655 0.951 . S
C2679 C2680 1.366 . S
C2679 C2681 1.388 . S
C2680 C2679 1.366 . S
C2680 C2684 1.385 . S
C2681 H2656 0.951 . S
C2681 C2679 1.388 . S
C2681 C2682 1.366 . S
C2682 C2681 1.366 . S
C2682 C2683 1.414 . S
C2682 C2685 1.499 . S
C2683 H2657 0.950 . S
C2683 C2682 1.414 . S
C2683 C2684 1.374 . S
C2684 H2658 0.950 . S
C2684 C2680 1.385 . S
C2684 C2683 1.374 . S
C2685 C2682 1.499 . S
C2685 C2686 1.373 . S
C2685 C2687 1.389 . S
C2686 H2659 0.950 . S
C2686 C2672 1.377 . S
C2686 C2685 1.373 . S
C2687 C2671 1.377 . S
C2687 C2685 1.389 . S
C2687 C2688 1.524 . S
C2688 C2687 1.524 . S
C2688 C2689 1.397 . S
C2688 C2693 1.363 . S
C2689 H2660 0.950 . S
C2689 C2688 1.397 . S
C2689 C2690 1.334 . S
C2690 H2661 0.950 . S
C2690 C2689 1.334 . S
C2690 C2691 1.287 . S
C2691 C2690 1.287 . S
C2691 C2692 1.524 . S
C2691 H2694 0.999 . S
C2692 H2662 0.950 . S
C2692 C2691 1.524 . S
C2692 C2693 1.415 . S
C2693 H2663 0.950 . S
C2693 C2688 1.363 . S
C2693 C2692 1.415 . S
H2694 C2691 0.999 . S
H2695 C2676 0.913 . S
H2696 C2714 0.951 . S
H2697 C2716 0.951 . S
H2698 C2718 0.950 . S
H2699 C2719 0.950 . S
H2700 C2721 0.950 . S
H2701 C2724 0.950 . S
H2702 C2725 0.950 . S
H2703 C2727 0.950 . S
H2704 C2728 0.950 . S
H2705 C2729 0.951 . S
H2706 C2731 0.951 . S
H2707 C2733 0.950 . S
H2708 C2734 0.950 . S
H2709 C2736 0.950 . S
H2710 C2739 0.950 . S
H2711 C2740 0.950 . S
H2712 C2742 0.950 . S
H2713 C2743 0.950 . S
C2714 H2696 0.951 . S
C2714 C2715 1.366 . S
C2714 C2716 1.388 . S
C2715 C2714 1.366 . S
C2715 C2719 1.385 . S
C2716 H2697 0.951 . S
C2716 C2714 1.388 . S
C2716 C2717 1.366 . S
C2717 C2716 1.366 . S
C2717 C2718 1.414 . S
C2717 C2720 1.499 . S
C2718 H2698 0.950 . S
C2718 C2717 1.414 . S
C2718 C2719 1.374 . S
C2719 H2699 0.950 . S
C2719 C2715 1.385 . S
C2719 C2718 1.374 . S
C2720 C2717 1.499 . S
C2720 C2721 1.373 . S
C2720 C2722 1.389 . S
C2721 H2700 0.950 . S
C2721 C2720 1.373 . S
C2721 C2737 1.377 . S
C2722 C2720 1.389 . S
C2722 C2723 1.524 . S
C2722 C2736 1.377 . S
C2723 C2722 1.524 . S
C2723 C2724 1.397 . S
C2723 C2728 1.363 . S
C2724 H2701 0.950 . S
C2724 C2723 1.397 . S
C2724 C2725 1.334 . S
C2725 H2702 0.950 . S
C2725 C2724 1.334 . S
C2725 C2726 1.287 . S
C2726 C2725 1.287 . S
C2726 C2727 1.524 . S
C2726 H2745 0.913 . S
C2727 H2703 0.950 . S
C2727 C2726 1.524 . S
C2727 C2728 1.415 . S
C2728 H2704 0.950 . S
C2728 C2723 1.363 . S
C2728 C2727 1.415 . S
C2729 H2705 0.951 . S
C2729 C2730 1.366 . S
C2729 C2731 1.388 . S
C2730 C2729 1.366 . S
C2730 C2734 1.385 . S
C2731 H2706 0.951 . S
C2731 C2729 1.388 . S
C2731 C2732 1.366 . S
C2732 C2731 1.366 . S
C2732 C2733 1.414 . S
C2732 C2735 1.499 . S
C2733 H2707 0.950 . S
C2733 C2732 1.414 . S
C2733 C2734 1.374 . S
C2734 H2708 0.950 . S
C2734 C2730 1.385 . S
C2734 C2733 1.374 . S
C2735 C2732 1.499 . S
C2735 C2736 1.373 . S
C2735 C2737 1.389 . S
C2736 H2709 0.950 . S
C2736 C2722 1.377 . S
C2736 C2735 1.373 . S
C2737 C2721 1.377 . S
C2737 C2735 1.389 . S
C2737 C2738 1.524 . S
C2738 C2737 1.524 . S
C2738 C2739 1.397 . S
C2738 C2743 1.363 . S
C2739 H2710 0.950 . S
C2739 C2738 1.397 . S
C2739 C2740 1.334 . S
C2740 H2711 0.950 . S
C2740 C2739 1.334 . S
C2740 C2741 1.287 . S
C2741 C2740 1.287 . S
C2741 C2742 1.524 . S
C2741 H2744 0.999 . S
C2742 H2712 0.950 . S
C2742 C2741 1.524 . S
C2742 C2743 1.415 . S
C2743 H2713 0.950 . S
C2743 C2738 1.363 . S
C2743 C2742 1.415 . S
H2744 C2741 0.999 . S
H2745 C2726 0.913 . S
H2746 C2764 0.951 . S
H2747 C2766 0.951 . S
H2748 C2768 0.950 . S
H2749 C2769 0.950 . S
H2750 C2771 0.950 . S
H2751 C2774 0.950 . S
H2752 C2775 0.950 . S
H2753 C2777 0.950 . S
H2754 C2778 0.950 . S
H2755 C2779 0.951 . S
H2756 C2781 0.951 . S
H2757 C2783 0.950 . S
H2758 C2784 0.950 . S
H2759 C2786 0.950 . S
H2760 C2789 0.950 . S
H2761 C2790 0.950 . S
H2762 C2792 0.950 . S
H2763 C2793 0.950 . S
C2764 H2746 0.951 . S
C2764 C2765 1.366 . S
C2764 C2766 1.388 . S
C2765 C2764 1.366 . S
C2765 C2769 1.385 . S
C2766 H2747 0.951 . S
C2766 C2764 1.388 . S
C2766 C2767 1.366 . S
C2767 C2766 1.366 . S
C2767 C2768 1.414 . S
C2767 C2770 1.499 . S
C2768 H2748 0.950 . S
C2768 C2767 1.414 . S
C2768 C2769 1.374 . S
C2769 H2749 0.950 . S
C2769 C2765 1.385 . S
C2769 C2768 1.374 . S
C2770 C2767 1.499 . S
C2770 C2771 1.373 . S
C2770 C2772 1.389 . S
C2771 H2750 0.950 . S
C2771 C2770 1.373 . S
C2771 C2787 1.377 . S
C2772 C2770 1.389 . S
C2772 C2773 1.524 . S
C2772 C2786 1.377 . S
C2773 C2772 1.524 . S
C2773 C2774 1.397 . S
C2773 C2778 1.363 . S
C2774 H2751 0.950 . S
C2774 C2773 1.397 . S
C2774 C2775 1.334 . S
C2775 H2752 0.950 . S
C2775 C2774 1.334 . S
C2775 C2776 1.287 . S
C2776 C2775 1.287 . S
C2776 C2777 1.524 . S
C2776 H2795 0.913 . S
C2777 H2753 0.950 . S
C2777 C2776 1.524 . S
C2777 C2778 1.415 . S
C2778 H2754 0.950 . S
C2778 C2773 1.363 . S
C2778 C2777 1.415 . S
C2779 H2755 0.951 . S
C2779 C2780 1.366 . S
C2779 C2781 1.388 . S
C2780 C2779 1.366 . S
C2780 C2784 1.385 . S
C2781 H2756 0.951 . S
C2781 C2779 1.388 . S
C2781 C2782 1.366 . S
C2782 C2781 1.366 . S
C2782 C2783 1.414 . S
C2782 C2785 1.499 . S
C2783 H2757 0.950 . S
C2783 C2782 1.414 . S
C2783 C2784 1.374 . S
C2784 H2758 0.950 . S
C2784 C2780 1.385 . S
C2784 C2783 1.374 . S
C2785 C2782 1.499 . S
C2785 C2786 1.373 . S
C2785 C2787 1.389 . S
C2786 H2759 0.950 . S
C2786 C2772 1.377 . S
C2786 C2785 1.373 . S
C2787 C2771 1.377 . S
C2787 C2785 1.389 . S
C2787 C2788 1.524 . S
C2788 C2787 1.524 . S
C2788 C2789 1.397 . S
C2788 C2793 1.363 . S
C2789 H2760 0.950 . S
C2789 C2788 1.397 . S
C2789 C2790 1.334 . S
C2790 H2761 0.950 . S
C2790 C2789 1.334 . S
C2790 C2791 1.287 . S
C2791 C2790 1.287 . S
C2791 C2792 1.524 . S
C2791 H2794 0.999 . S
C2792 H2762 0.950 . S
C2792 C2791 1.524 . S
C2792 C2793 1.415 . S
C2793 H2763 0.950 . S
C2793 C2788 1.363 . S
C2793 C2792 1.415 . S
H2794 C2791 0.999 . S
H2795 C2776 0.913 . S
H2796 C2814 0.951 . S
H2797 C2816 0.951 . S
H2798 C2818 0.950 . S
H2799 C2819 0.950 . S
H2800 C2821 0.950 . S
H2801 C2824 0.950 . S
H2802 C2825 0.950 . S
H2803 C2827 0.950 . S
H2804 C2828 0.950 . S
H2805 C2829 0.951 . S
H2806 C2831 0.951 . S
H2807 C2833 0.950 . S
H2808 C2834 0.950 . S
H2809 C2836 0.950 . S
H2810 C2839 0.950 . S
H2811 C2840 0.950 . S
H2812 C2842 0.950 . S
H2813 C2843 0.950 . S
C2814 H2796 0.951 . S
C2814 C2815 1.366 . S
C2814 C2816 1.388 . S
C2815 C2814 1.366 . S
C2815 C2819 1.385 . S
C2816 H2797 0.951 . S
C2816 C2814 1.388 . S
C2816 C2817 1.366 . S
C2817 C2816 1.366 . S
C2817 C2818 1.414 . S
C2817 C2820 1.499 . S
C2818 H2798 0.950 . S
C2818 C2817 1.414 . S
C2818 C2819 1.374 . S
C2819 H2799 0.950 . S
C2819 C2815 1.385 . S
C2819 C2818 1.374 . S
C2820 C2817 1.499 . S
C2820 C2821 1.373 . S
C2820 C2822 1.389 . S
C2821 H2800 0.950 . S
C2821 C2820 1.373 . S
C2821 C2837 1.377 . S
C2822 C2820 1.389 . S
C2822 C2823 1.524 . S
C2822 C2836 1.377 . S
C2823 C2822 1.524 . S
C2823 C2824 1.397 . S
C2823 C2828 1.363 . S
C2824 H2801 0.950 . S
C2824 C2823 1.397 . S
C2824 C2825 1.334 . S
C2825 H2802 0.950 . S
C2825 C2824 1.334 . S
C2825 C2826 1.287 . S
C2826 C2825 1.287 . S
C2826 C2827 1.524 . S
C2826 H2845 0.913 . S
C2827 H2803 0.950 . S
C2827 C2826 1.524 . S
C2827 C2828 1.415 . S
C2828 H2804 0.950 . S
C2828 C2823 1.363 . S
C2828 C2827 1.415 . S
C2829 H2805 0.951 . S
C2829 C2830 1.366 . S
C2829 C2831 1.388 . S
C2830 C2829 1.366 . S
C2830 C2834 1.385 . S
C2831 H2806 0.951 . S
C2831 C2829 1.388 . S
C2831 C2832 1.366 . S
C2832 C2831 1.366 . S
C2832 C2833 1.414 . S
C2832 C2835 1.499 . S
C2833 H2807 0.950 . S
C2833 C2832 1.414 . S
C2833 C2834 1.374 . S
C2834 H2808 0.950 . S
C2834 C2830 1.385 . S
C2834 C2833 1.374 . S
C2835 C2832 1.499 . S
C2835 C2836 1.373 . S
C2835 C2837 1.389 . S
C2836 H2809 0.950 . S
C2836 C2822 1.377 . S
C2836 C2835 1.373 . S
C2837 C2821 1.377 . S
C2837 C2835 1.389 . S
C2837 C2838 1.524 . S
C2838 C2837 1.524 . S
C2838 C2839 1.397 . S
C2838 C2843 1.363 . S
C2839 H2810 0.950 . S
C2839 C2838 1.397 . S
C2839 C2840 1.334 . S
C2840 H2811 0.950 . S
C2840 C2839 1.334 . S
C2840 C2841 1.287 . S
C2841 C2840 1.287 . S
C2841 C2842 1.524 . S
C2841 H2844 0.999 . S
C2842 H2812 0.950 . S
C2842 C2841 1.524 . S
C2842 C2843 1.415 . S
C2843 H2813 0.950 . S
C2843 C2838 1.363 . S
C2843 C2842 1.415 . S
H2844 C2841 0.999 . S
H2845 C2826 0.913 . S
H2846 C2864 0.951 . S
H2847 C2866 0.951 . S
H2848 C2868 0.950 . S
H2849 C2869 0.950 . S
H2850 C2871 0.950 . S
H2851 C2874 0.950 . S
H2852 C2875 0.950 . S
H2853 C2877 0.950 . S
H2854 C2878 0.950 . S
H2855 C2879 0.951 . S
H2856 C2881 0.951 . S
H2857 C2883 0.950 . S
H2858 C2884 0.950 . S
H2859 C2886 0.950 . S
H2860 C2889 0.950 . S
H2861 C2890 0.950 . S
H2862 C2892 0.950 . S
H2863 C2893 0.950 . S
C2864 H2846 0.951 . S
C2864 C2865 1.366 . S
C2864 C2866 1.388 . S
C2865 C2864 1.366 . S
C2865 C2869 1.385 . S
C2866 H2847 0.951 . S
C2866 C2864 1.388 . S
C2866 C2867 1.366 . S
C2867 C2866 1.366 . S
C2867 C2868 1.414 . S
C2867 C2870 1.499 . S
C2868 H2848 0.950 . S
C2868 C2867 1.414 . S
C2868 C2869 1.374 . S
C2869 H2849 0.950 . S
C2869 C2865 1.385 . S
C2869 C2868 1.374 . S
C2870 C2867 1.499 . S
C2870 C2871 1.373 . S
C2870 C2872 1.389 . S
C2871 H2850 0.950 . S
C2871 C2870 1.373 . S
C2871 C2887 1.377 . S
C2872 C2870 1.389 . S
C2872 C2873 1.524 . S
C2872 C2886 1.377 . S
C2873 C2872 1.524 . S
C2873 C2874 1.397 . S
C2873 C2878 1.363 . S
C2874 H2851 0.950 . S
C2874 C2873 1.397 . S
C2874 C2875 1.334 . S
C2875 H2852 0.950 . S
C2875 C2874 1.334 . S
C2875 C2876 1.287 . S
C2876 C2875 1.287 . S
C2876 C2877 1.524 . S
C2876 H2895 0.913 . S
C2877 H2853 0.950 . S
C2877 C2876 1.524 . S
C2877 C2878 1.415 . S
C2878 H2854 0.950 . S
C2878 C2873 1.363 . S
C2878 C2877 1.415 . S
C2879 H2855 0.951 . S
C2879 C2880 1.366 . S
C2879 C2881 1.388 . S
C2880 C2879 1.366 . S
C2880 C2884 1.385 . S
C2881 H2856 0.951 . S
C2881 C2879 1.388 . S
C2881 C2882 1.366 . S
C2882 C2881 1.366 . S
C2882 C2883 1.414 . S
C2882 C2885 1.499 . S
C2883 H2857 0.950 . S
C2883 C2882 1.414 . S
C2883 C2884 1.374 . S
C2884 H2858 0.950 . S
C2884 C2880 1.385 . S
C2884 C2883 1.374 . S
C2885 C2882 1.499 . S
C2885 C2886 1.373 . S
C2885 C2887 1.389 . S
C2886 H2859 0.950 . S
C2886 C2872 1.377 . S
C2886 C2885 1.373 . S
C2887 C2871 1.377 . S
C2887 C2885 1.389 . S
C2887 C2888 1.524 . S
C2888 C2887 1.524 . S
C2888 C2889 1.397 . S
C2888 C2893 1.363 . S
C2889 H2860 0.950 . S
C2889 C2888 1.397 . S
C2889 C2890 1.334 . S
C2890 H2861 0.950 . S
C2890 C2889 1.334 . S
C2890 C2891 1.287 . S
C2891 C2890 1.287 . S
C2891 C2892 1.524 . S
C2891 H2894 0.999 . S
C2892 H2862 0.950 . S
C2892 C2891 1.524 . S
C2892 C2893 1.415 . S
C2893 H2863 0.950 . S
C2893 C2888 1.363 . S
C2893 C2892 1.415 . S
H2894 C2891 0.999 . S
H2895 C2876 0.913 . S
H2896 C2914 0.951 . S
H2897 C2916 0.951 . S
H2898 C2918 0.950 . S
H2899 C2919 0.950 . S
H2900 C2921 0.950 . S
H2901 C2924 0.950 . S
H2902 C2925 0.950 . S
H2903 C2927 0.950 . S
H2904 C2928 0.950 . S
H2905 C2929 0.951 . S
H2906 C2931 0.951 . S
H2907 C2933 0.950 . S
H2908 C2934 0.950 . S
H2909 C2936 0.950 . S
H2910 C2939 0.950 . S
H2911 C2940 0.950 . S
H2912 C2942 0.950 . S
H2913 C2943 0.950 . S
C2914 H2896 0.951 . S
C2914 C2915 1.366 . S
C2914 C2916 1.388 . S
C2915 C2914 1.366 . S
C2915 C2919 1.385 . S
C2916 H2897 0.951 . S
C2916 C2914 1.388 . S
C2916 C2917 1.366 . S
C2917 C2916 1.366 . S
C2917 C2918 1.414 . S
C2917 C2920 1.499 . S
C2918 H2898 0.950 . S
C2918 C2917 1.414 . S
C2918 C2919 1.374 . S
C2919 H2899 0.950 . S
C2919 C2915 1.385 . S
C2919 C2918 1.374 . S
C2920 C2917 1.499 . S
C2920 C2921 1.373 . S
C2920 C2922 1.389 . S
C2921 H2900 0.950 . S
C2921 C2920 1.373 . S
C2921 C2937 1.377 . S
C2922 C2920 1.389 . S
C2922 C2923 1.524 . S
C2922 C2936 1.377 . S
C2923 C2922 1.524 . S
C2923 C2924 1.397 . S
C2923 C2928 1.363 . S
C2924 H2901 0.950 . S
C2924 C2923 1.397 . S
C2924 C2925 1.334 . S
C2925 H2902 0.950 . S
C2925 C2924 1.334 . S
C2925 C2926 1.287 . S
C2926 C2925 1.287 . S
C2926 C2927 1.524 . S
C2926 H2945 0.913 . S
C2927 H2903 0.950 . S
C2927 C2926 1.524 . S
C2927 C2928 1.415 . S
C2928 H2904 0.950 . S
C2928 C2923 1.363 . S
C2928 C2927 1.415 . S
C2929 H2905 0.951 . S
C2929 C2930 1.366 . S
C2929 C2931 1.388 . S
C2930 C2929 1.366 . S
C2930 C2934 1.385 . S
C2931 H2906 0.951 . S
C2931 C2929 1.388 . S
C2931 C2932 1.366 . S
C2932 C2931 1.366 . S
C2932 C2933 1.414 . S
C2932 C2935 1.499 . S
C2933 H2907 0.950 . S
C2933 C2932 1.414 . S
C2933 C2934 1.374 . S
C2934 H2908 0.950 . S
C2934 C2930 1.385 . S
C2934 C2933 1.374 . S
C2935 C2932 1.499 . S
C2935 C2936 1.373 . S
C2935 C2937 1.389 . S
C2936 H2909 0.950 . S
C2936 C2922 1.377 . S
C2936 C2935 1.373 . S
C2937 C2921 1.377 . S
C2937 C2935 1.389 . S
C2937 C2938 1.524 . S
C2938 C2937 1.524 . S
C2938 C2939 1.397 . S
C2938 C2943 1.363 . S
C2939 H2910 0.950 . S
C2939 C2938 1.397 . S
C2939 C2940 1.334 . S
C2940 H2911 0.950 . S
C2940 C2939 1.334 . S
C2940 C2941 1.287 . S
C2941 C2940 1.287 . S
C2941 C2942 1.524 . S
C2941 H2944 0.999 . S
C2942 H2912 0.950 . S
C2942 C2941 1.524 . S
C2942 C2943 1.415 . S
C2943 H2913 0.950 . S
C2943 C2938 1.363 . S
C2943 C2942 1.415 . S
H2944 C2941 0.999 . S
H2945 C2926 0.913 . S
H2946 C2964 0.951 . S
H2947 C2966 0.951 . S
H2948 C2968 0.950 . S
H2949 C2969 0.950 . S
H2950 C2971 0.950 . S
H2951 C2974 0.950 . S
H2952 C2975 0.950 . S
H2953 C2977 0.950 . S
H2954 C2978 0.950 . S
H2955 C2979 0.951 . S
H2956 C2981 0.951 . S
H2957 C2983 0.950 . S
H2958 C2984 0.950 . S
H2959 C2986 0.950 . S
H2960 C2989 0.950 . S
H2961 C2990 0.950 . S
H2962 C2992 0.950 . S
H2963 C2993 0.950 . S
C2964 H2946 0.951 . S
C2964 C2965 1.366 . S
C2964 C2966 1.388 . S
C2965 C2964 1.366 . S
C2965 C2969 1.385 . S
C2966 H2947 0.951 . S
C2966 C2964 1.388 . S
C2966 C2967 1.366 . S
C2967 C2966 1.366 . S
C2967 C2968 1.414 . S
C2967 C2970 1.499 . S
C2968 H2948 0.950 . S
C2968 C2967 1.414 . S
C2968 C2969 1.374 . S
C2969 H2949 0.950 . S
C2969 C2965 1.385 . S
C2969 C2968 1.374 . S
C2970 C2967 1.499 . S
C2970 C2971 1.373 . S
C2970 C2972 1.389 . S
C2971 H2950 0.950 . S
C2971 C2970 1.373 . S
C2971 C2987 1.377 . S
C2972 C2970 1.389 . S
C2972 C2973 1.524 . S
C2972 C2986 1.377 . S
C2973 C2972 1.524 . S
C2973 C2974 1.397 . S
C2973 C2978 1.363 . S
C2974 H2951 0.950 . S
C2974 C2973 1.397 . S
C2974 C2975 1.334 . S
C2975 H2952 0.950 . S
C2975 C2974 1.334 . S
C2975 C2976 1.287 . S
C2976 C2975 1.287 . S
C2976 C2977 1.524 . S
C2976 H2995 0.913 . S
C2977 H2953 0.950 . S
C2977 C2976 1.524 . S
C2977 C2978 1.415 . S
C2978 H2954 0.950 . S
C2978 C2973 1.363 . S
C2978 C2977 1.415 . S
C2979 H2955 0.951 . S
C2979 C2980 1.366 . S
C2979 C2981 1.388 . S
C2980 C2979 1.366 . S
C2980 C2984 1.385 . S
C2981 H2956 0.951 . S
C2981 C2979 1.388 . S
C2981 C2982 1.366 . S
C2982 C2981 1.366 . S
C2982 C2983 1.414 . S
C2982 C2985 1.499 . S
C2983 H2957 0.950 . S
C2983 C2982 1.414 . S
C2983 C2984 1.374 . S
C2984 H2958 0.950 . S
C2984 C2980 1.385 . S
C2984 C2983 1.374 . S
C2985 C2982 1.499 . S
C2985 C2986 1.373 . S
C2985 C2987 1.389 . S
C2986 H2959 0.950 . S
C2986 C2972 1.377 . S
C2986 C2985 1.373 . S
C2987 C2971 1.377 . S
C2987 C2985 1.389 . S
C2987 C2988 1.524 . S
C2988 C2987 1.524 . S
C2988 C2989 1.397 . S
C2988 C2993 1.363 . S
C2989 H2960 0.950 . S
C2989 C2988 1.397 . S
C2989 C2990 1.334 . S
C2990 H2961 0.950 . S
C2990 C2989 1.334 . S
C2990 C2991 1.287 . S
C2991 C2990 1.287 . S
C2991 C2992 1.524 . S
C2991 H2994 0.999 . S
C2992 H2962 0.950 . S
C2992 C2991 1.524 . S
C2992 C2993 1.415 . S
C2993 H2963 0.950 . S
C2993 C2988 1.363 . S
C2993 C2992 1.415 . S
H2994 C2991 0.999 . S
H2995 C2976 0.913 . S
H2996 C3014 0.951 . S
H2997 C3016 0.951 . S
H2998 C3018 0.950 . S
H2999 C3019 0.950 . S
H3000 C3021 0.950 . S
H3001 C3024 0.950 . S
H3002 C3025 0.950 . S
H3003 C3027 0.950 . S
H3004 C3028 0.950 . S
H3005 C3029 0.951 . S
H3006 C3031 0.951 . S
H3007 C3033 0.950 . S
H3008 C3034 0.950 . S
H3009 C3036 0.950 . S
H3010 C3039 0.950 . S
H3011 C3040 0.950 . S
H3012 C3042 0.950 . S
H3013 C3043 0.950 . S
C3014 H2996 0.951 . S
C3014 C3015 1.366 . S
C3014 C3016 1.388 . S
C3015 C3014 1.366 . S
C3015 C3019 1.385 . S
C3016 H2997 0.951 . S
C3016 C3014 1.388 . S
C3016 C3017 1.366 . S
C3017 C3016 1.366 . S
C3017 C3018 1.414 . S
C3017 C3020 1.499 . S
C3018 H2998 0.950 . S
C3018 C3017 1.414 . S
C3018 C3019 1.374 . S
C3019 H2999 0.950 . S
C3019 C3015 1.385 . S
C3019 C3018 1.374 . S
C3020 C3017 1.499 . S
C3020 C3021 1.373 . S
C3020 C3022 1.389 . S
C3021 H3000 0.950 . S
C3021 C3020 1.373 . S
C3021 C3037 1.377 . S
C3022 C3020 1.389 . S
C3022 C3023 1.524 . S
C3022 C3036 1.377 . S
C3023 C3022 1.524 . S
C3023 C3024 1.397 . S
C3023 C3028 1.363 . S
C3024 H3001 0.950 . S
C3024 C3023 1.397 . S
C3024 C3025 1.334 . S
C3025 H3002 0.950 . S
C3025 C3024 1.334 . S
C3025 C3026 1.287 . S
C3026 C3025 1.287 . S
C3026 C3027 1.524 . S
C3026 H3045 0.913 . S
C3027 H3003 0.950 . S
C3027 C3026 1.524 . S
C3027 C3028 1.415 . S
C3028 H3004 0.950 . S
C3028 C3023 1.363 . S
C3028 C3027 1.415 . S
C3029 H3005 0.951 . S
C3029 C3030 1.366 . S
C3029 C3031 1.388 . S
C3030 C3029 1.366 . S
C3030 C3034 1.385 . S
C3031 H3006 0.951 . S
C3031 C3029 1.388 . S
C3031 C3032 1.366 . S
C3032 C3031 1.366 . S
C3032 C3033 1.414 . S
C3032 C3035 1.499 . S
C3033 H3007 0.950 . S
C3033 C3032 1.414 . S
C3033 C3034 1.374 . S
C3034 H3008 0.950 . S
C3034 C3030 1.385 . S
C3034 C3033 1.374 . S
C3035 C3032 1.499 . S
C3035 C3036 1.373 . S
C3035 C3037 1.389 . S
C3036 H3009 0.950 . S
C3036 C3022 1.377 . S
C3036 C3035 1.373 . S
C3037 C3021 1.377 . S
C3037 C3035 1.389 . S
C3037 C3038 1.524 . S
C3038 C3037 1.524 . S
C3038 C3039 1.397 . S
C3038 C3043 1.363 . S
C3039 H3010 0.950 . S
C3039 C3038 1.397 . S
C3039 C3040 1.334 . S
C3040 H3011 0.950 . S
C3040 C3039 1.334 . S
C3040 C3041 1.287 . S
C3041 C3040 1.287 . S
C3041 C3042 1.524 . S
C3041 H3044 0.999 . S
C3042 H3012 0.950 . S
C3042 C3041 1.524 . S
C3042 C3043 1.415 . S
C3043 H3013 0.950 . S
C3043 C3038 1.363 . S
C3043 C3042 1.415 . S
H3044 C3041 0.999 . S
H3045 C3026 0.913 . S
H3046 C3064 0.951 . S
H3047 C3066 0.951 . S
H3048 C3068 0.950 . S
H3049 C3069 0.950 . S
H3050 C3071 0.950 . S
H3051 C3074 0.950 . S
H3052 C3075 0.950 . S
H3053 C3077 0.950 . S
H3054 C3078 0.950 . S
H3055 C3079 0.951 . S
H3056 C3081 0.951 . S
H3057 C3083 0.950 . S
H3058 C3084 0.950 . S
H3059 C3086 0.950 . S
H3060 C3089 0.950 . S
H3061 C3090 0.950 . S
H3062 C3092 0.950 . S
H3063 C3093 0.950 . S
C3064 H3046 0.951 . S
C3064 C3065 1.366 . S
C3064 C3066 1.388 . S
C3065 C3064 1.366 . S
C3065 C3069 1.385 . S
C3066 H3047 0.951 . S
C3066 C3064 1.388 . S
C3066 C3067 1.366 . S
C3067 C3066 1.366 . S
C3067 C3068 1.414 . S
C3067 C3070 1.499 . S
C3068 H3048 0.950 . S
C3068 C3067 1.414 . S
C3068 C3069 1.374 . S
C3069 H3049 0.950 . S
C3069 C3065 1.385 . S
C3069 C3068 1.374 . S
C3070 C3067 1.499 . S
C3070 C3071 1.373 . S
C3070 C3072 1.389 . S
C3071 H3050 0.950 . S
C3071 C3070 1.373 . S
C3071 C3087 1.377 . S
C3072 C3070 1.389 . S
C3072 C3073 1.524 . S
C3072 C3086 1.377 . S
C3073 C3072 1.524 . S
C3073 C3074 1.397 . S
C3073 C3078 1.363 . S
C3074 H3051 0.950 . S
C3074 C3073 1.397 . S
C3074 C3075 1.334 . S
C3075 H3052 0.950 . S
C3075 C3074 1.334 . S
C3075 C3076 1.287 . S
C3076 C3075 1.287 . S
C3076 C3077 1.524 . S
C3076 H3095 0.913 . S
C3077 H3053 0.950 . S
C3077 C3076 1.524 . S
C3077 C3078 1.415 . S
C3078 H3054 0.950 . S
C3078 C3073 1.363 . S
C3078 C3077 1.415 . S
C3079 H3055 0.951 . S
C3079 C3080 1.366 . S
C3079 C3081 1.388 . S
C3080 C3079 1.366 . S
C3080 C3084 1.385 . S
C3081 H3056 0.951 . S
C3081 C3079 1.388 . S
C3081 C3082 1.366 . S
C3082 C3081 1.366 . S
C3082 C3083 1.414 . S
C3082 C3085 1.499 . S
C3083 H3057 0.950 . S
C3083 C3082 1.414 . S
C3083 C3084 1.374 . S
C3084 H3058 0.950 . S
C3084 C3080 1.385 . S
C3084 C3083 1.374 . S
C3085 C3082 1.499 . S
C3085 C3086 1.373 . S
C3085 C3087 1.389 . S
C3086 H3059 0.950 . S
C3086 C3072 1.377 . S
C3086 C3085 1.373 . S
C3087 C3071 1.377 . S
C3087 C3085 1.389 . S
C3087 C3088 1.524 . S
C3088 C3087 1.524 . S
C3088 C3089 1.397 . S
C3088 C3093 1.363 . S
C3089 H3060 0.950 . S
C3089 C3088 1.397 . S
C3089 C3090 1.334 . S
C3090 H3061 0.950 . S
C3090 C3089 1.334 . S
C3090 C3091 1.287 . S
C3091 C3090 1.287 . S
C3091 C3092 1.524 . S
C3091 H3094 0.999 . S
C3092 H3062 0.950 . S
C3092 C3091 1.524 . S
C3092 C3093 1.415 . S
C3093 H3063 0.950 . S
C3093 C3088 1.363 . S
C3093 C3092 1.415 . S
H3094 C3091 0.999 . S
H3095 C3076 0.913 . S
H3096 C3114 0.951 . S
H3097 C3116 0.951 . S
H3098 C3118 0.950 . S
H3099 C3119 0.950 . S
H3100 C3121 0.950 . S
H3101 C3124 0.950 . S
H3102 C3125 0.950 . S
H3103 C3127 0.950 . S
H3104 C3128 0.950 . S
H3105 C3129 0.951 . S
H3106 C3131 0.951 . S
H3107 C3133 0.950 . S
H3108 C3134 0.950 . S
H3109 C3136 0.950 . S
H3110 C3139 0.950 . S
H3111 C3140 0.950 . S
H3112 C3142 0.950 . S
H3113 C3143 0.950 . S
C3114 H3096 0.951 . S
C3114 C3115 1.366 . S
C3114 C3116 1.388 . S
C3115 C3114 1.366 . S
C3115 C3119 1.385 . S
C3116 H3097 0.951 . S
C3116 C3114 1.388 . S
C3116 C3117 1.366 . S
C3117 C3116 1.366 . S
C3117 C3118 1.414 . S
C3117 C3120 1.499 . S
C3118 H3098 0.950 . S
C3118 C3117 1.414 . S
C3118 C3119 1.374 . S
C3119 H3099 0.950 . S
C3119 C3115 1.385 . S
C3119 C3118 1.374 . S
C3120 C3117 1.499 . S
C3120 C3121 1.373 . S
C3120 C3122 1.389 . S
C3121 H3100 0.950 . S
C3121 C3120 1.373 . S
C3121 C3137 1.377 . S
C3122 C3120 1.389 . S
C3122 C3123 1.524 . S
C3122 C3136 1.377 . S
C3123 C3122 1.524 . S
C3123 C3124 1.397 . S
C3123 C3128 1.363 . S
C3124 H3101 0.950 . S
C3124 C3123 1.397 . S
C3124 C3125 1.334 . S
C3125 H3102 0.950 . S
C3125 C3124 1.334 . S
C3125 C3126 1.287 . S
C3126 C3125 1.287 . S
C3126 C3127 1.524 . S
C3126 H3145 0.913 . S
C3127 H3103 0.950 . S
C3127 C3126 1.524 . S
C3127 C3128 1.415 . S
C3128 H3104 0.950 . S
C3128 C3123 1.363 . S
C3128 C3127 1.415 . S
C3129 H3105 0.951 . S
C3129 C3130 1.366 . S
C3129 C3131 1.388 . S
C3130 C3129 1.366 . S
C3130 C3134 1.385 . S
C3131 H3106 0.951 . S
C3131 C3129 1.388 . S
C3131 C3132 1.366 . S
C3132 C3131 1.366 . S
C3132 C3133 1.414 . S
C3132 C3135 1.499 . S
C3133 H3107 0.950 . S
C3133 C3132 1.414 . S
C3133 C3134 1.374 . S
C3134 H3108 0.950 . S
C3134 C3130 1.385 . S
C3134 C3133 1.374 . S
C3135 C3132 1.499 . S
C3135 C3136 1.373 . S
C3135 C3137 1.389 . S
C3136 H3109 0.950 . S
C3136 C3122 1.377 . S
C3136 C3135 1.373 . S
C3137 C3121 1.377 . S
C3137 C3135 1.389 . S
C3137 C3138 1.524 . S
C3138 C3137 1.524 . S
C3138 C3139 1.397 . S
C3138 C3143 1.363 . S
C3139 H3110 0.950 . S
C3139 C3138 1.397 . S
C3139 C3140 1.334 . S
C3140 H3111 0.950 . S
C3140 C3139 1.334 . S
C3140 C3141 1.287 . S
C3141 C3140 1.287 . S
C3141 C3142 1.524 . S
C3141 H3144 0.999 . S
C3142 H3112 0.950 . S
C3142 C3141 1.524 . S
C3142 C3143 1.415 . S
C3143 H3113 0.950 . S
C3143 C3138 1.363 . S
C3143 C3142 1.415 . S
H3144 C3141 0.999 . S
H3145 C3126 0.913 . S
H3146 C3164 0.951 . S
H3147 C3166 0.951 . S
H3148 C3168 0.950 . S
H3149 C3169 0.950 . S
H3150 C3171 0.950 . S
H3151 C3174 0.950 . S
H3152 C3175 0.950 . S
H3153 C3177 0.950 . S
H3154 C3178 0.950 . S
H3155 C3179 0.951 . S
H3156 C3181 0.951 . S
H3157 C3183 0.950 . S
H3158 C3184 0.950 . S
H3159 C3186 0.950 . S
H3160 C3189 0.950 . S
H3161 C3190 0.950 . S
H3162 C3192 0.950 . S
H3163 C3193 0.950 . S
C3164 H3146 0.951 . S
C3164 C3165 1.366 . S
C3164 C3166 1.388 . S
C3165 C3164 1.366 . S
C3165 C3169 1.385 . S
C3166 H3147 0.951 . S
C3166 C3164 1.388 . S
C3166 C3167 1.366 . S
C3167 C3166 1.366 . S
C3167 C3168 1.414 . S
C3167 C3170 1.499 . S
C3168 H3148 0.950 . S
C3168 C3167 1.414 . S
C3168 C3169 1.374 . S
C3169 H3149 0.950 . S
C3169 C3165 1.385 . S
C3169 C3168 1.374 . S
C3170 C3167 1.499 . S
C3170 C3171 1.373 . S
C3170 C3172 1.389 . S
C3171 H3150 0.950 . S
C3171 C3170 1.373 . S
C3171 C3187 1.377 . S
C3172 C3170 1.389 . S
C3172 C3173 1.524 . S
C3172 C3186 1.377 . S
C3173 C3172 1.524 . S
C3173 C3174 1.397 . S
C3173 C3178 1.363 . S
C3174 H3151 0.950 . S
C3174 C3173 1.397 . S
C3174 C3175 1.334 . S
C3175 H3152 0.950 . S
C3175 C3174 1.334 . S
C3175 C3176 1.287 . S
C3176 C3175 1.287 . S
C3176 C3177 1.524 . S
C3176 H3195 0.913 . S
C3177 H3153 0.950 . S
C3177 C3176 1.524 . S
C3177 C3178 1.415 . S
C3178 H3154 0.950 . S
C3178 C3173 1.363 . S
C3178 C3177 1.415 . S
C3179 H3155 0.951 . S
C3179 C3180 1.366 . S
C3179 C3181 1.388 . S
C3180 C3179 1.366 . S
C3180 C3184 1.385 . S
C3181 H3156 0.951 . S
C3181 C3179 1.388 . S
C3181 C3182 1.366 . S
C3182 C3181 1.366 . S
C3182 C3183 1.414 . S
C3182 C3185 1.499 . S
C3183 H3157 0.950 . S
C3183 C3182 1.414 . S
C3183 C3184 1.374 . S
C3184 H3158 0.950 . S
C3184 C3180 1.385 . S
C3184 C3183 1.374 . S
C3185 C3182 1.499 . S
C3185 C3186 1.373 . S
C3185 C3187 1.389 . S
C3186 H3159 0.950 . S
C3186 C3172 1.377 . S
C3186 C3185 1.373 . S
C3187 C3171 1.377 . S
C3187 C3185 1.389 . S
C3187 C3188 1.524 . S
C3188 C3187 1.524 . S
C3188 C3189 1.397 . S
C3188 C3193 1.363 . S
C3189 H3160 0.950 . S
C3189 C3188 1.397 . S
C3189 C3190 1.334 . S
C3190 H3161 0.950 . S
C3190 C3189 1.334 . S
C3190 C3191 1.287 . S
C3191 C3190 1.287 . S
C3191 C3192 1.524 . S
C3191 H3194 0.999 . S
C3192 H3162 0.950 . S
C3192 C3191 1.524 . S
C3192 C3193 1.415 . S
C3193 H3163 0.950 . S
C3193 C3188 1.363 . S
C3193 C3192 1.415 . S
H3194 C3191 0.999 . S
H3195 C3176 0.913 . S
H3196 C3214 0.951 . S
H3197 C3216 0.951 . S
H3198 C3218 0.950 . S
H3199 C3219 0.950 . S
H3200 C3221 0.950 . S
H3201 C3224 0.950 . S
H3202 C3225 0.950 . S
H3203 C3227 0.950 . S
H3204 C3228 0.950 . S
H3205 C3229 0.951 . S
H3206 C3231 0.951 . S
H3207 C3233 0.950 . S
H3208 C3234 0.950 . S
H3209 C3236 0.950 . S
H3210 C3239 0.950 . S
H3211 C3240 0.950 . S
H3212 C3242 0.950 . S
H3213 C3243 0.950 . S
C3214 H3196 0.951 . S
C3214 C3215 1.366 . S
C3214 C3216 1.388 . S
C3215 C3214 1.366 . S
C3215 C3219 1.385 . S
C3216 H3197 0.951 . S
C3216 C3214 1.388 . S
C3216 C3217 1.366 . S
C3217 C3216 1.366 . S
C3217 C3218 1.414 . S
C3217 C3220 1.499 . S
C3218 H3198 0.950 . S
C3218 C3217 1.414 . S
C3218 C3219 1.374 . S
C3219 H3199 0.950 . S
C3219 C3215 1.385 . S
C3219 C3218 1.374 . S
C3220 C3217 1.499 . S
C3220 C3221 1.373 . S
C3220 C3222 1.389 . S
C3221 H3200 0.950 . S
C3221 C3220 1.373 . S
C3221 C3237 1.377 . S
C3222 C3220 1.389 . S
C3222 C3223 1.524 . S
C3222 C3236 1.377 . S
C3223 C3222 1.524 . S
C3223 C3224 1.397 . S
C3223 C3228 1.363 . S
C3224 H3201 0.950 . S
C3224 C3223 1.397 . S
C3224 C3225 1.334 . S
C3225 H3202 0.950 . S
C3225 C3224 1.334 . S
C3225 C3226 1.287 . S
C3226 C3225 1.287 . S
C3226 C3227 1.524 . S
C3226 H3245 0.913 . S
C3227 H3203 0.950 . S
C3227 C3226 1.524 . S
C3227 C3228 1.415 . S
C3228 H3204 0.950 . S
C3228 C3223 1.363 . S
C3228 C3227 1.415 . S
C3229 H3205 0.951 . S
C3229 C3230 1.366 . S
C3229 C3231 1.388 . S
C3230 C3229 1.366 . S
C3230 C3234 1.385 . S
C3231 H3206 0.951 . S
C3231 C3229 1.388 . S
C3231 C3232 1.366 . S
C3232 C3231 1.366 . S
C3232 C3233 1.414 . S
C3232 C3235 1.499 . S
C3233 H3207 0.950 . S
C3233 C3232 1.414 . S
C3233 C3234 1.374 . S
C3234 H3208 0.950 . S
C3234 C3230 1.385 . S
C3234 C3233 1.374 . S
C3235 C3232 1.499 . S
C3235 C3236 1.373 . S
C3235 C3237 1.389 . S
C3236 H3209 0.950 . S
C3236 C3222 1.377 . S
C3236 C3235 1.373 . S
C3237 C3221 1.377 . S
C3237 C3235 1.389 . S
C3237 C3238 1.524 . S
C3238 C3237 1.524 . S
C3238 C3239 1.397 . S
C3238 C3243 1.363 . S
C3239 H3210 0.950 . S
C3239 C3238 1.397 . S
C3239 C3240 1.334 . S
C3240 H3211 0.950 . S
C3240 C3239 1.334 . S
C3240 C3241 1.287 . S
C3241 C3240 1.287 . S
C3241 C3242 1.524 . S
C3241 H3244 0.999 . S
C3242 H3212 0.950 . S
C3242 C3241 1.524 . S
C3242 C3243 1.415 . S
C3243 H3213 0.950 . S
C3243 C3238 1.363 . S
C3243 C3242 1.415 . S
H3244 C3241 0.999 . S
H3245 C3226 0.913 . S
H3246 C3264 0.951 . S
H3247 C3266 0.951 . S
H3248 C3268 0.950 . S
H3249 C3269 0.950 . S
H3250 C3271 0.950 . S
H3251 C3274 0.950 . S
H3252 C3275 0.950 . S
H3253 C3277 0.950 . S
H3254 C3278 0.950 . S
H3255 C3279 0.951 . S
H3256 C3281 0.951 . S
H3257 C3283 0.950 . S
H3258 C3284 0.950 . S
H3259 C3286 0.950 . S
H3260 C3289 0.950 . S
H3261 C3290 0.950 . S
H3262 C3292 0.950 . S
H3263 C3293 0.950 . S
C3264 H3246 0.951 . S
C3264 C3265 1.366 . S
C3264 C3266 1.388 . S
C3265 C3264 1.366 . S
C3265 C3269 1.385 . S
C3266 H3247 0.951 . S
C3266 C3264 1.388 . S
C3266 C3267 1.366 . S
C3267 C3266 1.366 . S
C3267 C3268 1.414 . S
C3267 C3270 1.499 . S
C3268 H3248 0.950 . S
C3268 C3267 1.414 . S
C3268 C3269 1.374 . S
C3269 H3249 0.950 . S
C3269 C3265 1.385 . S
C3269 C3268 1.374 . S
C3270 C3267 1.499 . S
C3270 C3271 1.373 . S
C3270 C3272 1.389 . S
C3271 H3250 0.950 . S
C3271 C3270 1.373 . S
C3271 C3287 1.377 . S
C3272 C3270 1.389 . S
C3272 C3273 1.524 . S
C3272 C3286 1.377 . S
C3273 C3272 1.524 . S
C3273 C3274 1.397 . S
C3273 C3278 1.363 . S
C3274 H3251 0.950 . S
C3274 C3273 1.397 . S
C3274 C3275 1.334 . S
C3275 H3252 0.950 . S
C3275 C3274 1.334 . S
C3275 C3276 1.287 . S
C3276 C3275 1.287 . S
C3276 C3277 1.524 . S
C3276 H3295 0.913 . S
C3277 H3253 0.950 . S
C3277 C3276 1.524 . S
C3277 C3278 1.415 . S
C3278 H3254 0.950 . S
C3278 C3273 1.363 . S
C3278 C3277 1.415 . S
C3279 H3255 0.951 . S
C3279 C3280 1.366 . S
C3279 C3281 1.388 . S
C3280 C3279 1.366 . S
C3280 C3284 1.385 . S
C3281 H3256 0.951 . S
C3281 C3279 1.388 . S
C3281 C3282 1.366 . S
C3282 C3281 1.366 . S
C3282 C3283 1.414 . S
C3282 C3285 1.499 . S
C3283 H3257 0.950 . S
C3283 C3282 1.414 . S
C3283 C3284 1.374 . S
C3284 H3258 0.950 . S
C3284 C3280 1.385 . S
C3284 C3283 1.374 . S
C3285 C3282 1.499 . S
C3285 C3286 1.373 . S
C3285 C3287 1.389 . S
C3286 H3259 0.950 . S
C3286 C3272 1.377 . S
C3286 C3285 1.373 . S
C3287 C3271 1.377 . S
C3287 C3285 1.389 . S
C3287 C3288 1.524 . S
C3288 C3287 1.524 . S
C3288 C3289 1.397 . S
C3288 C3293 1.363 . S
C3289 H3260 0.950 . S
C3289 C3288 1.397 . S
C3289 C3290 1.334 . S
C3290 H3261 0.950 . S
C3290 C3289 1.334 . S
C3290 C3291 1.287 . S
C3291 C3290 1.287 . S
C3291 C3292 1.524 . S
C3291 H3294 0.999 . S
C3292 H3262 0.950 . S
C3292 C3291 1.524 . S
C3292 C3293 1.415 . S
C3293 H3263 0.950 . S
C3293 C3288 1.363 . S
C3293 C3292 1.415 . S
H3294 C3291 0.999 . S
H3295 C3276 0.913 . S
H3296 C3314 0.951 . S
H3297 C3316 0.951 . S
H3298 C3318 0.950 . S
H3299 C3319 0.950 . S
H3300 C3321 0.950 . S
H3301 C3324 0.950 . S
H3302 C3325 0.950 . S
H3303 C3327 0.950 . S
H3304 C3328 0.950 . S
H3305 C3329 0.951 . S
H3306 C3331 0.951 . S
H3307 C3333 0.950 . S
H3308 C3334 0.950 . S
H3309 C3336 0.950 . S
H3310 C3339 0.950 . S
H3311 C3340 0.950 . S
H3312 C3342 0.950 . S
H3313 C3343 0.950 . S
C3314 H3296 0.951 . S
C3314 C3315 1.366 . S
C3314 C3316 1.388 . S
C3315 C3314 1.366 . S
C3315 C3319 1.385 . S
C3316 H3297 0.951 . S
C3316 C3314 1.388 . S
C3316 C3317 1.366 . S
C3317 C3316 1.366 . S
C3317 C3318 1.414 . S
C3317 C3320 1.499 . S
C3318 H3298 0.950 . S
C3318 C3317 1.414 . S
C3318 C3319 1.374 . S
C3319 H3299 0.950 . S
C3319 C3315 1.385 . S
C3319 C3318 1.374 . S
C3320 C3317 1.499 . S
C3320 C3321 1.373 . S
C3320 C3322 1.389 . S
C3321 H3300 0.950 . S
C3321 C3320 1.373 . S
C3321 C3337 1.377 . S
C3322 C3320 1.389 . S
C3322 C3323 1.524 . S
C3322 C3336 1.377 . S
C3323 C3322 1.524 . S
C3323 C3324 1.397 . S
C3323 C3328 1.363 . S
C3324 H3301 0.950 . S
C3324 C3323 1.397 . S
C3324 C3325 1.334 . S
C3325 H3302 0.950 . S
C3325 C3324 1.334 . S
C3325 C3326 1.287 . S
C3326 C3325 1.287 . S
C3326 C3327 1.524 . S
C3326 H3345 0.913 . S
C3327 H3303 0.950 . S
C3327 C3326 1.524 . S
C3327 C3328 1.415 . S
C3328 H3304 0.950 . S
C3328 C3323 1.363 . S
C3328 C3327 1.415 . S
C3329 H3305 0.951 . S
C3329 C3330 1.366 . S
C3329 C3331 1.388 . S
C3330 C3329 1.366 . S
C3330 C3334 1.385 . S
C3331 H3306 0.951 . S
C3331 C3329 1.388 . S
C3331 C3332 1.366 . S
C3332 C3331 1.366 . S
C3332 C3333 1.414 . S
C3332 C3335 1.499 . S
C3333 H3307 0.950 . S
C3333 C3332 1.414 . S
C3333 C3334 1.374 . S
C3334 H3308 0.950 . S
C3334 C3330 1.385 . S
C3334 C3333 1.374 . S
C3335 C3332 1.499 . S
C3335 C3336 1.373 . S
C3335 C3337 1.389 . S
C3336 H3309 0.950 . S
C3336 C3322 1.377 . S
C3336 C3335 1.373 . S
C3337 C3321 1.377 . S
C3337 C3335 1.389 . S
C3337 C3338 1.524 . S
C3338 C3337 1.524 . S
C3338 C3339 1.397 . S
C3338 C3343 1.363 . S
C3339 H3310 0.950 . S
C3339 C3338 1.397 . S
C3339 C3340 1.334 . S
C3340 H3311 0.950 . S
C3340 C3339 1.334 . S
C3340 C3341 1.287 . S
C3341 C3340 1.287 . S
C3341 C3342 1.524 . S
C3341 H3344 0.999 . S
C3342 H3312 0.950 . S
C3342 C3341 1.524 . S
C3342 C3343 1.415 . S
C3343 H3313 0.950 . S
C3343 C3338 1.363 . S
C3343 C3342 1.415 . S
H3344 C3341 0.999 . S
H3345 C3326 0.913 . S
H3346 C3364 0.951 . S
H3347 C3366 0.951 . S
H3348 C3368 0.950 . S
H3349 C3369 0.950 . S
H3350 C3371 0.950 . S
H3351 C3374 0.950 . S
H3352 C3375 0.950 . S
H3353 C3377 0.950 . S
H3354 C3378 0.950 . S
H3355 C3379 0.951 . S
H3356 C3381 0.951 . S
H3357 C3383 0.950 . S
H3358 C3384 0.950 . S
H3359 C3386 0.950 . S
H3360 C3389 0.950 . S
H3361 C3390 0.950 . S
H3362 C3392 0.950 . S
H3363 C3393 0.950 . S
C3364 H3346 0.951 . S
C3364 C3365 1.366 . S
C3364 C3366 1.388 . S
C3365 C3364 1.366 . S
C3365 C3369 1.385 . S
C3366 H3347 0.951 . S
C3366 C3364 1.388 . S
C3366 C3367 1.366 . S
C3367 C3366 1.366 . S
C3367 C3368 1.414 . S
C3367 C3370 1.499 . S
C3368 H3348 0.950 . S
C3368 C3367 1.414 . S
C3368 C3369 1.374 . S
C3369 H3349 0.950 . S
C3369 C3365 1.385 . S
C3369 C3368 1.374 . S
C3370 C3367 1.499 . S
C3370 C3371 1.373 . S
C3370 C3372 1.389 . S
C3371 H3350 0.950 . S
C3371 C3370 1.373 . S
C3371 C3387 1.377 . S
C3372 C3370 1.389 . S
C3372 C3373 1.524 . S
C3372 C3386 1.377 . S
C3373 C3372 1.524 . S
C3373 C3374 1.397 . S
C3373 C3378 1.363 . S
C3374 H3351 0.950 . S
C3374 C3373 1.397 . S
C3374 C3375 1.334 . S
C3375 H3352 0.950 . S
C3375 C3374 1.334 . S
C3375 C3376 1.287 . S
C3376 C3375 1.287 . S
C3376 C3377 1.524 . S
C3376 H3395 0.913 . S
C3377 H3353 0.950 . S
C3377 C3376 1.524 . S
C3377 C3378 1.415 . S
C3378 H3354 0.950 . S
C3378 C3373 1.363 . S
C3378 C3377 1.415 . S
C3379 H3355 0.951 . S
C3379 C3380 1.366 . S
C3379 C3381 1.388 . S
C3380 C3379 1.366 . S
C3380 C3384 1.385 . S
C3381 H3356 0.951 . S
C3381 C3379 1.388 . S
C3381 C3382 1.366 . S
C3382 C3381 1.366 . S
C3382 C3383 1.414 . S
C3382 C3385 1.499 . S
C3383 H3357 0.950 . S
C3383 C3382 1.414 . S
C3383 C3384 1.374 . S
C3384 H3358 0.950 . S
C3384 C3380 1.385 . S
C3384 C3383 1.374 . S
C3385 C3382 1.499 . S
C3385 C3386 1.373 . S
C3385 C3387 1.389 . S
C3386 H3359 0.950 . S
C3386 C3372 1.377 . S
C3386 C3385 1.373 . S
C3387 C3371 1.377 . S
C3387 C3385 1.389 . S
C3387 C3388 1.524 . S
C3388 C3387 1.524 . S
C3388 C3389 1.397 . S
C3388 C3393 1.363 . S
C3389 H3360 0.950 . S
C3389 C3388 1.397 . S
C3389 C3390 1.334 . S
C3390 H3361 0.950 . S
C3390 C3389 1.334 . S
C3390 C3391 1.287 . S
C3391 C3390 1.287 . S
C3391 C3392 1.524 . S
C3391 H3394 0.999 . S
C3392 H3362 0.950 . S
C3392 C3391 1.524 . S
C3392 C3393 1.415 . S
C3393 H3363 0.950 . S
C3393 C3388 1.363 . S
C3393 C3392 1.415 . S
H3394 C3391 0.999 . S
H3395 C3376 0.913 . S
C1030 C707 1.105 . S
C1015 C74 1.049 . S
C1080 C685 0.329 . S
C1065 C142 0.700 . S
C1130 C682 0.523 . S
C1115 C231 0.585 . S
C1165 C322 1.709 . S
C1180 C694 1.791 . S
C1215 C406 0.701 . S
C1230 C677 0.336 . S
C1280 C699 0.524 . S
C1265 C494 0.583 . S
C1315 C562 1.713 . S
C1330 C704 1.797 . S
C1365 C651 1.051 . S
C1380 C700 1.107 . S
C1430 C758 1.820 . S
C1415 C58 1.733 . S
C1465 C151 1.172 . S
C1480 C808 1.224 . S
C1530 C731 2.827 . S
C1515 C224 2.732 . S
C1580 C807 0.507 . S
C1565 C315 0.582 . S
C1615 C399 0.595 . S
C1630 C736 0.523 . S
C1680 C802 1.808 . S
C1665 C478 1.724 . S
C1715 C571 1.138 . S
C1730 C761 1.209 . S
C1765 C644 2.739 . S
C1780 C793 2.826 . S
C1815 C67 2.743 . S
C1830 C785 2.829 . S
C1865 C392 1.177 . S
C1880 C815 1.230 . S
C1930 C739 2.846 . S
C1915 C487 2.745 . S
C1980 C790 0.524 . S
C1965 C578 0.590 . S
C2015 C658 1.740 . S
C2030 C748 1.822 . S
C2065 C238 1.737 . S
C2080 C812 1.826 . S
C2130 C754 1.221 . S
C2115 C308 1.146 . S
C2165 C158 0.604 . S
C2180 C753 0.535 . S
C2215 C662 1.047 . S
C2230 C869 1.105 . S
C2265 C394 0.700 . S
C2280 C847 0.329 . S
C2330 C844 0.523 . S
C2315 C483 0.585 . S
C2380 C856 1.790 . S
C2365 C574 1.710 . S
C2415 C154 0.702 . S
C2430 C839 0.335 . S
C2480 C861 0.523 . S
C2465 C242 0.582 . S
C2515 C310 1.713 . S
C2530 C866 1.797 . S
C2565 C63 1.049 . S
C2580 C862 1.107 . S
C2615 C646 1.734 . S
C2630 C920 1.820 . S
C2680 C970 1.224 . S
C2665 C403 1.173 . S
C2715 C476 2.732 . S
C2730 C893 2.827 . S
C2765 C567 0.581 . S
C2780 C969 0.507 . S
C2830 C898 0.523 . S
C2815 C147 0.594 . S
C2865 C226 1.724 . S
C2880 C964 1.809 . S
C2930 C923 1.209 . S
C2915 C319 1.136 . S
C2980 C955 2.826 . S
C2965 C56 2.740 . S
C3030 C947 2.829 . S
C3015 C655 2.743 . S
C3065 C140 1.179 . S
C3080 C977 1.230 . S
C3115 C235 2.745 . S
C3130 C901 2.846 . S
C3180 C952 0.523 . S
C3165 C326 0.592 . S
C3215 C70 1.740 . S
C3230 C910 1.823 . S
C3265 C490 1.737 . S
C3280 C974 1.826 . S
C3330 C916 1.221 . S
C3315 C560 1.146 . S
C3380 C915 0.536 . S
C3365 C410 0.604 . S
