# Generated by pormake.
# Topology iac, (4,6)-cn, num edge types: 1
# Building blocks:
#     Node 0, Type 0, BuildingBlock: QUQFOY_clean_sbu_1, # of connection points: 4
#     Node 1, Type 0, BuildingBlock: QUQFOY_clean_sbu_1, # of connection points: 4
#     Node 2, Type 0, BuildingBlock: QUQFOY_clean_sbu_1, # of connection points: 4
#     Node 3, Type 0, BuildingBlock: QUQFOY_clean_sbu_1, # of connection points: 4
#     Node 4, Type 0, BuildingBlock: QUQFOY_clean_sbu_1, # of connection points: 4
#     Node 5, Type 0, BuildingBlock: QUQFOY_clean_sbu_1, # of connection points: 4
#     Node 6, Type 0, BuildingBlock: QUQFOY_clean_sbu_1, # of connection points: 4
#     Node 7, Type 0, BuildingBlock: QUQFOY_clean_sbu_1, # of connection points: 4
#     Node 8, Type 0, BuildingBlock: QUQFOY_clean_sbu_1, # of connection points: 4
#     Node 9, Type 0, BuildingBlock: QUQFOY_clean_sbu_1, # of connection points: 4
#     Node 10, Type 0, BuildingBlock: QUQFOY_clean_sbu_1, # of connection points: 4
#     Node 11, Type 0, BuildingBlock: QUQFOY_clean_sbu_1, # of connection points: 4
#     Node 12, Type 0, BuildingBlock: QUQFOY_clean_sbu_1, # of connection points: 4
#     Node 13, Type 0, BuildingBlock: QUQFOY_clean_sbu_1, # of connection points: 4
#     Node 14, Type 0, BuildingBlock: QUQFOY_clean_sbu_1, # of connection points: 4
#     Node 15, Type 0, BuildingBlock: QUQFOY_clean_sbu_1, # of connection points: 4
#     Node 16, Type 0, BuildingBlock: QUQFOY_clean_sbu_1, # of connection points: 4
#     Node 17, Type 0, BuildingBlock: QUQFOY_clean_sbu_1, # of connection points: 4
#     Node 18, Type 0, BuildingBlock: QUQFOY_clean_sbu_1, # of connection points: 4
#     Node 19, Type 0, BuildingBlock: QUQFOY_clean_sbu_1, # of connection points: 4
#     Node 20, Type 0, BuildingBlock: QUQFOY_clean_sbu_1, # of connection points: 4
#     Node 21, Type 0, BuildingBlock: QUQFOY_clean_sbu_1, # of connection points: 4
#     Node 22, Type 0, BuildingBlock: QUQFOY_clean_sbu_1, # of connection points: 4
#     Node 23, Type 0, BuildingBlock: QUQFOY_clean_sbu_1, # of connection points: 4
#     Node 24, Type 1, BuildingBlock: JUFBIX_clean_sbu_0, # of connection points: 6
#     Node 25, Type 1, BuildingBlock: JUFBIX_clean_sbu_0, # of connection points: 6
#     Node 26, Type 1, BuildingBlock: JUFBIX_clean_sbu_0, # of connection points: 6
#     Node 27, Type 1, BuildingBlock: JUFBIX_clean_sbu_0, # of connection points: 6
#     Node 28, Type 1, BuildingBlock: JUFBIX_clean_sbu_0, # of connection points: 6
#     Node 29, Type 1, BuildingBlock: JUFBIX_clean_sbu_0, # of connection points: 6
#     Node 30, Type 1, BuildingBlock: JUFBIX_clean_sbu_0, # of connection points: 6
#     Node 31, Type 1, BuildingBlock: JUFBIX_clean_sbu_0, # of connection points: 6
#     Node 32, Type 1, BuildingBlock: JUFBIX_clean_sbu_0, # of connection points: 6
#     Node 33, Type 1, BuildingBlock: JUFBIX_clean_sbu_0, # of connection points: 6
#     Node 34, Type 1, BuildingBlock: JUFBIX_clean_sbu_0, # of connection points: 6
#     Node 35, Type 1, BuildingBlock: JUFBIX_clean_sbu_0, # of connection points: 6
#     Node 36, Type 1, BuildingBlock: JUFBIX_clean_sbu_0, # of connection points: 6
#     Node 37, Type 1, BuildingBlock: JUFBIX_clean_sbu_0, # of connection points: 6
#     Node 38, Type 1, BuildingBlock: JUFBIX_clean_sbu_0, # of connection points: 6
#     Node 39, Type 1, BuildingBlock: JUFBIX_clean_sbu_0, # of connection points: 6
#     Edge 40, Type (0, 1), BuildingBlock: OJICUG_clean_linker_0, # of connection points: 2
#     Edge 41, Type (0, 1), BuildingBlock: OJICUG_clean_linker_0, # of connection points: 2
#     Edge 42, Type (0, 1), BuildingBlock: OJICUG_clean_linker_0, # of connection points: 2
#     Edge 43, Type (0, 1), BuildingBlock: OJICUG_clean_linker_0, # of connection points: 2
#     Edge 44, Type (0, 1), BuildingBlock: OJICUG_clean_linker_0, # of connection points: 2
#     Edge 45, Type (0, 1), BuildingBlock: OJICUG_clean_linker_0, # of connection points: 2
#     Edge 46, Type (0, 1), BuildingBlock: OJICUG_clean_linker_0, # of connection points: 2
#     Edge 47, Type (0, 1), BuildingBlock: OJICUG_clean_linker_0, # of connection points: 2
#     Edge 48, Type (0, 1), BuildingBlock: OJICUG_clean_linker_0, # of connection points: 2
#     Edge 49, Type (0, 1), BuildingBlock: OJICUG_clean_linker_0, # of connection points: 2
#     Edge 50, Type (0, 1), BuildingBlock: OJICUG_clean_linker_0, # of connection points: 2
#     Edge 51, Type (0, 1), BuildingBlock: OJICUG_clean_linker_0, # of connection points: 2
#     Edge 52, Type (0, 1), BuildingBlock: OJICUG_clean_linker_0, # of connection points: 2
#     Edge 53, Type (0, 1), BuildingBlock: OJICUG_clean_linker_0, # of connection points: 2
#     Edge 54, Type (0, 1), BuildingBlock: OJICUG_clean_linker_0, # of connection points: 2
#     Edge 55, Type (0, 1), BuildingBlock: OJICUG_clean_linker_0, # of connection points: 2
#     Edge 56, Type (0, 1), BuildingBlock: OJICUG_clean_linker_0, # of connection points: 2
#     Edge 57, Type (0, 1), BuildingBlock: OJICUG_clean_linker_0, # of connection points: 2
#     Edge 58, Type (0, 1), BuildingBlock: OJICUG_clean_linker_0, # of connection points: 2
#     Edge 59, Type (0, 1), BuildingBlock: OJICUG_clean_linker_0, # of connection points: 2
#     Edge 60, Type (0, 1), BuildingBlock: OJICUG_clean_linker_0, # of connection points: 2
#     Edge 61, Type (0, 1), BuildingBlock: OJICUG_clean_linker_0, # of connection points: 2
#     Edge 62, Type (0, 1), BuildingBlock: OJICUG_clean_linker_0, # of connection points: 2
#     Edge 63, Type (0, 1), BuildingBlock: OJICUG_clean_linker_0, # of connection points: 2
#     Edge 64, Type (0, 1), BuildingBlock: OJICUG_clean_linker_0, # of connection points: 2
#     Edge 65, Type (0, 1), BuildingBlock: OJICUG_clean_linker_0, # of connection points: 2
#     Edge 66, Type (0, 1), BuildingBlock: OJICUG_clean_linker_0, # of connection points: 2
#     Edge 67, Type (0, 1), BuildingBlock: OJICUG_clean_linker_0, # of connection points: 2
#     Edge 68, Type (0, 1), BuildingBlock: OJICUG_clean_linker_0, # of connection points: 2
#     Edge 69, Type (0, 1), BuildingBlock: OJICUG_clean_linker_0, # of connection points: 2
#     Edge 70, Type (0, 1), BuildingBlock: OJICUG_clean_linker_0, # of connection points: 2
#     Edge 71, Type (0, 1), BuildingBlock: OJICUG_clean_linker_0, # of connection points: 2
#     Edge 72, Type (0, 1), BuildingBlock: OJICUG_clean_linker_0, # of connection points: 2
#     Edge 73, Type (0, 1), BuildingBlock: OJICUG_clean_linker_0, # of connection points: 2
#     Edge 74, Type (0, 1), BuildingBlock: OJICUG_clean_linker_0, # of connection points: 2
#     Edge 75, Type (0, 1), BuildingBlock: OJICUG_clean_linker_0, # of connection points: 2
#     Edge 76, Type (0, 1), BuildingBlock: OJICUG_clean_linker_0, # of connection points: 2
#     Edge 77, Type (0, 1), BuildingBlock: OJICUG_clean_linker_0, # of connection points: 2
#     Edge 78, Type (0, 1), BuildingBlock: OJICUG_clean_linker_0, # of connection points: 2
#     Edge 79, Type (0, 1), BuildingBlock: OJICUG_clean_linker_0, # of connection points: 2
#     Edge 80, Type (0, 1), BuildingBlock: OJICUG_clean_linker_0, # of connection points: 2
#     Edge 81, Type (0, 1), BuildingBlock: OJICUG_clean_linker_0, # of connection points: 2
#     Edge 82, Type (0, 1), BuildingBlock: OJICUG_clean_linker_0, # of connection points: 2
#     Edge 83, Type (0, 1), BuildingBlock: OJICUG_clean_linker_0, # of connection points: 2
#     Edge 84, Type (0, 1), BuildingBlock: OJICUG_clean_linker_0, # of connection points: 2
#     Edge 85, Type (0, 1), BuildingBlock: OJICUG_clean_linker_0, # of connection points: 2
#     Edge 86, Type (0, 1), BuildingBlock: OJICUG_clean_linker_0, # of connection points: 2
#     Edge 87, Type (0, 1), BuildingBlock: OJICUG_clean_linker_0, # of connection points: 2
#     Edge 88, Type (0, 1), BuildingBlock: OJICUG_clean_linker_0, # of connection points: 2
#     Edge 89, Type (0, 1), BuildingBlock: OJICUG_clean_linker_0, # of connection points: 2
#     Edge 90, Type (0, 1), BuildingBlock: OJICUG_clean_linker_0, # of connection points: 2
#     Edge 91, Type (0, 1), BuildingBlock: OJICUG_clean_linker_0, # of connection points: 2
#     Edge 92, Type (0, 1), BuildingBlock: OJICUG_clean_linker_0, # of connection points: 2
#     Edge 93, Type (0, 1), BuildingBlock: OJICUG_clean_linker_0, # of connection points: 2
#     Edge 94, Type (0, 1), BuildingBlock: OJICUG_clean_linker_0, # of connection points: 2
#     Edge 95, Type (0, 1), BuildingBlock: OJICUG_clean_linker_0, # of connection points: 2
#     Edge 96, Type (0, 1), BuildingBlock: OJICUG_clean_linker_0, # of connection points: 2
#     Edge 97, Type (0, 1), BuildingBlock: OJICUG_clean_linker_0, # of connection points: 2
#     Edge 98, Type (0, 1), BuildingBlock: OJICUG_clean_linker_0, # of connection points: 2
#     Edge 99, Type (0, 1), BuildingBlock: OJICUG_clean_linker_0, # of connection points: 2
#     Edge 100, Type (0, 1), BuildingBlock: OJICUG_clean_linker_0, # of connection points: 2
#     Edge 101, Type (0, 1), BuildingBlock: OJICUG_clean_linker_0, # of connection points: 2
#     Edge 102, Type (0, 1), BuildingBlock: OJICUG_clean_linker_0, # of connection points: 2
#     Edge 103, Type (0, 1), BuildingBlock: OJICUG_clean_linker_0, # of connection points: 2
#     Edge 104, Type (0, 1), BuildingBlock: OJICUG_clean_linker_0, # of connection points: 2
#     Edge 105, Type (0, 1), BuildingBlock: OJICUG_clean_linker_0, # of connection points: 2
#     Edge 106, Type (0, 1), BuildingBlock: OJICUG_clean_linker_0, # of connection points: 2
#     Edge 107, Type (0, 1), BuildingBlock: OJICUG_clean_linker_0, # of connection points: 2
#     Edge 108, Type (0, 1), BuildingBlock: OJICUG_clean_linker_0, # of connection points: 2
#     Edge 109, Type (0, 1), BuildingBlock: OJICUG_clean_linker_0, # of connection points: 2
#     Edge 110, Type (0, 1), BuildingBlock: OJICUG_clean_linker_0, # of connection points: 2
#     Edge 111, Type (0, 1), BuildingBlock: OJICUG_clean_linker_0, # of connection points: 2
#     Edge 112, Type (0, 1), BuildingBlock: OJICUG_clean_linker_0, # of connection points: 2
#     Edge 113, Type (0, 1), BuildingBlock: OJICUG_clean_linker_0, # of connection points: 2
#     Edge 114, Type (0, 1), BuildingBlock: OJICUG_clean_linker_0, # of connection points: 2
#     Edge 115, Type (0, 1), BuildingBlock: OJICUG_clean_linker_0, # of connection points: 2
#     Edge 116, Type (0, 1), BuildingBlock: OJICUG_clean_linker_0, # of connection points: 2
#     Edge 117, Type (0, 1), BuildingBlock: OJICUG_clean_linker_0, # of connection points: 2
#     Edge 118, Type (0, 1), BuildingBlock: OJICUG_clean_linker_0, # of connection points: 2
#     Edge 119, Type (0, 1), BuildingBlock: OJICUG_clean_linker_0, # of connection points: 2
#     Edge 120, Type (0, 1), BuildingBlock: OJICUG_clean_linker_0, # of connection points: 2
#     Edge 121, Type (0, 1), BuildingBlock: OJICUG_clean_linker_0, # of connection points: 2
#     Edge 122, Type (0, 1), BuildingBlock: OJICUG_clean_linker_0, # of connection points: 2
#     Edge 123, Type (0, 1), BuildingBlock: OJICUG_clean_linker_0, # of connection points: 2
#     Edge 124, Type (0, 1), BuildingBlock: OJICUG_clean_linker_0, # of connection points: 2
#     Edge 125, Type (0, 1), BuildingBlock: OJICUG_clean_linker_0, # of connection points: 2
#     Edge 126, Type (0, 1), BuildingBlock: OJICUG_clean_linker_0, # of connection points: 2
#     Edge 127, Type (0, 1), BuildingBlock: OJICUG_clean_linker_0, # of connection points: 2
#     Edge 128, Type (0, 1), BuildingBlock: OJICUG_clean_linker_0, # of connection points: 2
#     Edge 129, Type (0, 1), BuildingBlock: OJICUG_clean_linker_0, # of connection points: 2
#     Edge 130, Type (0, 1), BuildingBlock: OJICUG_clean_linker_0, # of connection points: 2
#     Edge 131, Type (0, 1), BuildingBlock: OJICUG_clean_linker_0, # of connection points: 2
#     Edge 132, Type (0, 1), BuildingBlock: OJICUG_clean_linker_0, # of connection points: 2
#     Edge 133, Type (0, 1), BuildingBlock: OJICUG_clean_linker_0, # of connection points: 2
#     Edge 134, Type (0, 1), BuildingBlock: OJICUG_clean_linker_0, # of connection points: 2
#     Edge 135, Type (0, 1), BuildingBlock: OJICUG_clean_linker_0, # of connection points: 2
# Relax obj value: 0.269
# Max RMSD: 0.257
# Mean RMSD: 0.173
data_MOF--net-iac--node1-QUQFOY_clean_sbu_1--node2-JUFBIX_clean_sbu_0--edge1-OJICUG_clean_linker_0
_symmetry_space_group_name_H-M    P1
_symmetry_Int_Tables_number       1
_symmetry_cell_setting            triclinic
loop_
_symmetry_equiv_pos_as_xyz
'x, y, z'
_cell_length_a     40.742412
_cell_length_b     42.102249
_cell_length_c     41.688724
_cell_angle_alpha  90.481502
_cell_angle_beta   88.293693
_cell_angle_gamma 91.809
loop_
_atom_site_label
_atom_site_type_symbol
_atom_site_fract_x
_atom_site_fract_y
_atom_site_fract_z
_atom_type_partial_charge
O0 O 0.03294 0.23112 0.16222 0.0
Cd1 Cd 0.03375 0.26871 0.1958 0.0
Cd2 Cd 0.06898 0.30033 0.14117 0.0
O3 O 0.05659 0.25401 0.1194 0.0
O4 O 0.99907 0.25616 0.22966 0.0
O5 O 0.99556 0.29936 0.20088 0.0
C6 C 0.98278 0.28084 0.22277 0.0
C7 C 0.06027 0.35173 0.11573 0.0
C8 C 0.04293 0.22929 0.13294 0.0
C9 C 0.10485 0.29083 0.20667 0.0
O10 O 0.10521 0.30113 0.17775 0.0
O11 O 0.07869 0.2775 0.21859 0.0
O12 O 0.08511 0.33454 0.10834 0.0
O13 O 0.0394 0.33954 0.13649 0.0
O14 O 0.15423 0.76578 0.44789 0.0
Cd15 Cd 0.1163 0.76335 0.47999 0.0
Cd16 Cd 0.07463 0.77182 0.42229 0.0
O17 O 0.12291 0.76639 0.40543 0.0
O18 O 0.12024 0.73081 0.51327 0.0
O19 O 0.08516 0.72772 0.47316 0.0
C20 C 0.09683 0.71566 0.49873 0.0
C21 C 0.03722 0.77929 0.38179 0.0
C22 C 0.15108 0.76525 0.41772 0.0
C23 C 0.06723 0.80852 0.48826 0.0
O24 O 0.05703 0.79647 0.46221 0.0
O25 O 0.09536 0.80244 0.49819 0.0
O26 O 0.05878 0.80085 0.38919 0.0
O27 O 0.03797 0.75232 0.39623 0.0
O28 O 0.52235 0.73936 0.65969 0.0
Cd29 Cd 0.52258 0.77684 0.6933 0.0
Cd30 Cd 0.55694 0.80908 0.63804 0.0
O31 O 0.54541 0.76231 0.61661 0.0
O32 O 0.48859 0.76304 0.72743 0.0
O33 O 0.48348 0.80637 0.69923 0.0
C34 C 0.47144 0.78727 0.72097 0.0
C35 C 0.54653 0.86024 0.61232 0.0
C36 C 0.53231 0.73745 0.6304 0.0
C37 C 0.59375 0.79978 0.70326 0.0
O38 O 0.59364 0.81029 0.6744 0.0
O39 O 0.56782 0.78621 0.71544 0.0
O40 O 0.5718 0.84363 0.60487 0.0
O41 O 0.52627 0.84768 0.63342 0.0
O42 O 0.65532 0.26881 0.94696 0.0
Cd43 Cd 0.61731 0.26361 0.97898 0.0
Cd44 Cd 0.57644 0.27568 0.92168 0.0
O45 O 0.62469 0.27215 0.9042 0.0
O46 O 0.62298 0.22973 0.01055 0.0
O47 O 0.58724 0.22735 0.97099 0.0
C48 C 0.59987 0.21449 0.99568 0.0
C49 C 0.5377 0.28212 0.88205 0.0
C50 C 0.65268 0.27054 0.91678 0.0
C51 C 0.56964 0.31089 0.98859 0.0
O52 O 0.56028 0.30154 0.96121 0.0
O53 O 0.59608 0.30144 0.99984 0.0
O54 O 0.55929 0.30394 0.88857 0.0
O55 O 0.53918 0.25538 0.8968 0.0
O56 O 0.20588 0.99003 0.22435 0.0
Cd57 Cd 0.23641 0.99738 0.26193 0.0
Cd58 Cd 0.17879 0.99917 0.30081 0.0
O59 O 0.1639 0.9812 0.25789 0.0
O60 O 0.27602 0.97216 0.25861 0.0
O61 O 0.23611 0.96497 0.29586 0.0
C62 C 0.2642 0.95703 0.28348 0.0
C63 C 0.13547 0.99358 0.3384 0.0
C64 C 0.17613 0.98139 0.22962 0.0
C65 C 0.22758 0.05683 0.29512 0.0
O66 O 0.201 0.04371 0.3057 0.0
O67 O 0.24701 0.04218 0.27645 0.0
O68 O 0.13461 0.01254 0.31458 0.0
O69 O 0.16135 0.97706 0.34116 0.0
O70 O 0.2435 0.93143 0.64158 0.0
Cd71 Cd 0.24453 0.95918 0.60218 0.0
Cd72 Cd 0.26556 0.90139 0.56551 0.0
O73 O 0.25542 0.88879 0.61282 0.0
O74 O 0.2107 0.99169 0.60273 0.0
O75 O 0.21076 0.94923 0.57035 0.0
C76 C 0.19747 0.97534 0.57983 0.0
C77 C 0.28497 0.85913 0.53483 0.0
C78 C 0.24797 0.90182 0.63955 0.0
C79 C 0.29778 0.96848 0.55713 0.0
O80 O 0.28758 0.94204 0.54581 0.0
O81 O 0.28746 0.97809 0.58433 0.0
O82 O 0.30274 0.87298 0.55607 0.0
O83 O 0.25519 0.86822 0.53213 0.0
O84 O 0.38258 0.05884 0.70122 0.0
Cd85 Cd 0.35341 0.06863 0.73949 0.0
Cd86 Cd 0.41058 0.06227 0.77721 0.0
O87 O 0.42651 0.06808 0.73 0.0
O88 O 0.32408 0.10325 0.73088 0.0
O89 O 0.36711 0.10702 0.76288 0.0
C90 C 0.34267 0.12005 0.74958 0.0
C91 C 0.45264 0.0656 0.81358 0.0
C92 C 0.41327 0.06389 0.70302 0.0
C93 C 0.34566 0.02197 0.78877 0.0
O94 O 0.37509 0.03023 0.79481 0.0
O95 O 0.33116 0.03408 0.76566 0.0
O96 O 0.44993 0.0423 0.79363 0.0
O97 O 0.4321 0.08823 0.81204 0.0
O98 O 0.29857 0.17723 0.10875 0.0
Cd99 Cd 0.29786 0.14452 0.07029 0.0
Cd100 Cd 0.26861 0.20019 0.03911 0.0
O101 O 0.27954 0.22026 0.08634 0.0
O102 O 0.32785 0.1096 0.08331 0.0
O103 O 0.33837 0.13857 0.04041 0.0
C104 C 0.3471 0.11613 0.05899 0.0
C105 C 0.28151 0.22789 0.98848 0.0
C106 C 0.29059 0.20629 0.11105 0.0
C107 C 0.22755 0.13542 0.04662 0.0
O108 O 0.22991 0.16431 0.03697 0.0
O109 O 0.25184 0.12313 0.06009 0.0
O110 O 0.25645 0.23452 1.00673 0.0
O111 O 0.30031 0.20646 0.9992 0.0
O112 O 0.7633 0.43878 0.14621 0.0
Cd113 Cd 0.76136 0.46749 0.10769 0.0
Cd114 Cd 0.77702 0.40985 0.06842 0.0
O115 O 0.7675 0.39615 0.11529 0.0
O116 O 0.72642 0.49877 0.11105 0.0
O117 O 0.72561 0.45654 0.07833 0.0
C118 C 0.71194 0.48194 0.08922 0.0
C119 C 0.79317 0.36727 0.03643 0.0
C120 C 0.764 0.40885 0.14286 0.0
C121 C 0.81342 0.4758 0.06042 0.0
O122 O 0.80313 0.4489 0.05036 0.0
O123 O 0.80279 0.48695 0.08691 0.0
O124 O 0.8118 0.37914 0.05804 0.0
O125 O 0.76422 0.37852 0.03403 0.0
O126 O 0.89581 0.55821 0.2032 0.0
Cd127 Cd 0.86407 0.56809 0.2397 0.0
Cd128 Cd 0.92042 0.5631 0.28032 0.0
O129 O 0.93861 0.56707 0.2337 0.0
O130 O 0.83382 0.60141 0.22872 0.0
O131 O 0.87502 0.60757 0.26265 0.0
C132 C 0.85076 0.61934 0.24788 0.0
C133 C 0.96078 0.56541 0.31865 0.0
C134 C 0.92648 0.56248 0.20626 0.0
C135 C 0.85558 0.52206 0.28984 0.0
O136 O 0.88445 0.53122 0.2969 0.0
O137 O 0.84176 0.53327 0.26584 0.0
O138 O 0.95846 0.54225 0.29853 0.0
O139 O 0.94114 0.58865 0.31597 0.0
O140 O 0.79202 0.68108 0.60552 0.0
Cd141 Cd 0.79185 0.64694 0.56852 0.0
Cd142 Cd 0.76408 0.70174 0.53463 0.0
O143 O 0.77383 0.72341 0.58118 0.0
O144 O 0.82108 0.61241 0.58399 0.0
O145 O 0.83304 0.63944 0.5401 0.0
C146 C 0.8411 0.61785 0.55999 0.0
C147 C 0.77873 0.72794 0.48362 0.0
C148 C 0.78418 0.71021 0.6066 0.0
C149 C 0.72183 0.63797 0.54411 0.0
O150 O 0.72486 0.66639 0.53325 0.0
O151 O 0.74571 0.62579 0.55837 0.0
O152 O 0.75322 0.73521 0.50094 0.0
O153 O 0.7969 0.70656 0.49541 0.0
O154 O 0.70106 0.49225 0.71949 0.0
Cd155 Cd 0.73257 0.50181 0.75618 0.0
Cd156 Cd 0.67812 0.50368 0.79406 0.0
O157 O 0.66043 0.48203 0.7541 0.0
O158 O 0.77327 0.47788 0.75353 0.0
O159 O 0.73413 0.47103 0.79153 0.0
C160 C 0.7625 0.46373 0.77937 0.0
C161 C 0.64613 0.49195 0.83959 0.0
C162 C 0.67175 0.48248 0.72551 0.0
C163 C 0.72049 0.5636 0.78412 0.0
O164 O 0.69339 0.55087 0.79381 0.0
O165 O 0.74171 0.54755 0.76894 0.0
O166 O 0.63506 0.50779 0.81631 0.0
O167 O 0.67574 0.48204 0.83708 0.0
O168 O 0.08947 0.78498 0.91538 0.0
Cd169 Cd 0.05407 0.7863 0.9531 0.0
Cd170 Cd 0.01967 0.8191 0.89601 0.0
O171 O 0.06534 0.80733 0.87436 0.0
O172 O 0.07043 0.75469 0.98682 0.0
O173 O 0.02607 0.74435 0.96 0.0
C174 C 0.04704 0.73451 0.98008 0.0
C175 C 0.96861 0.81102 0.8677 0.0
C176 C 0.0902 0.79437 0.8863 0.0
C177 C 0.03582 0.85949 0.9575 0.0
O178 O 0.02424 0.85684 0.92933 0.0
O179 O 0.04648 0.83471 0.97161 0.0
O180 O 0.98943 0.83382 0.86072 0.0
O181 O 0.97658 0.79244 0.89054 0.0
O182 O 0.01558 0.24449 0.61 0.0
Cd183 Cd 0.02062 0.26888 0.65265 0.0
Cd184 Cd 0.05481 0.30968 0.61817 0.0
O185 O 0.0549 0.27307 0.58562 0.0
O186 O 0.98941 0.25179 0.68603 0.0
O187 O 0.99046 0.30182 0.66956 0.0
C188 C 0.97934 0.28041 0.68939 0.0
C189 C 0.03262 0.35616 0.60207 0.0
C190 C 0.03494 0.24935 0.5859 0.0
C191 C 0.08651 0.28755 0.67549 0.0
O192 O 0.08719 0.3097 0.655 0.0
O193 O 0.06372 0.26641 0.67556 0.0
O194 O 0.06174 0.34853 0.59245 0.0
O195 O 0.01618 0.33756 0.62151 0.0
O196 O 0.53627 0.23521 0.42956 0.0
Cd197 Cd 0.54141 0.27198 0.39647 0.0
Cd198 Cd 0.50945 0.30819 0.44833 0.0
O199 O 0.51826 0.2624 0.47199 0.0
O200 O 0.57615 0.25846 0.36356 0.0
O201 O 0.58332 0.30033 0.39472 0.0
C202 C 0.59508 0.28176 0.37266 0.0
C203 C 0.52218 0.36218 0.46949 0.0
C204 C 0.52719 0.23587 0.45907 0.0
C205 C 0.47212 0.29448 0.38451 0.0
O206 O 0.47204 0.30623 0.41303 0.0
O207 O 0.49771 0.28114 0.37301 0.0
O208 O 0.49862 0.34418 0.48129 0.0
O209 O 0.53978 0.34941 0.44682 0.0
O210 O 0.51979 0.74582 0.11077 0.0
Cd211 Cd 0.52091 0.77098 0.15332 0.0
Cd212 Cd 0.55329 0.81308 0.12045 0.0
O213 O 0.56006 0.7757 0.08989 0.0
O214 O 0.49061 0.75107 0.18571 0.0
O215 O 0.48731 0.80102 0.16969 0.0
C216 C 0.47796 0.77863 0.18926 0.0
C217 C 0.53003 0.85618 0.09822 0.0
C218 C 0.5414 0.75113 0.08864 0.0
C219 C 0.5836 0.7953 0.17927 0.0
O220 O 0.58291 0.8177 0.15917 0.0
O221 O 0.56325 0.77203 0.17781 0.0
O222 O 0.56048 0.85007 0.09253 0.0
O223 O 0.51279 0.83827 0.11775 0.0
O224 O 0.94662 0.07925 0.69473 0.0
Cd225 Cd 0.92779 0.07661 0.74123 0.0
Cd226 Cd 0.98138 0.04153 0.74503 0.0
O227 O 0.996 0.06069 0.70198 0.0
O228 O 0.8887 0.10358 0.74121 0.0
O229 O 0.93059 0.11288 0.77278 0.0
C230 C 0.9018 0.12015 0.76383 0.0
C231 C 1.00068 0.05745 0.79389 0.0
C232 C 0.9753 0.07306 0.68405 0.0
C233 C 0.91839 0.00707 0.75184 0.0
O234 O 0.94833 1.00381 0.74363 0.0
O235 O 0.90673 0.0344 0.75578 0.0
O236 O 0.0155 0.03559 0.77756 0.0
O237 O 0.97594 0.07072 0.7816 0.0
O238 O 0.85006 0.18036 0.5851 0.0
Cd239 Cd 0.83478 0.14471 0.55504 0.0
Cd240 Cd 0.80794 0.1874 0.52149 0.0
O241 O 0.8241 0.21601 0.55804 0.0
O242 O 0.86319 0.10772 0.55317 0.0
O243 O 0.8547 0.13913 0.5117 0.0
C244 C 0.86773 0.11427 0.52309 0.0
C245 C 0.81308 0.20741 0.47008 0.0
C246 C 0.84025 0.20852 0.58225 0.0
C247 C 0.76323 0.13869 0.55168 0.0
O248 O 0.76579 0.16175 0.53228 0.0
O249 O 0.78844 0.1279 0.56423 0.0
O250 O 0.79356 0.21961 0.49127 0.0
O251 O 0.82997 0.18351 0.47783 0.0
O252 O 0.64937 0.98482 0.25355 0.0
Cd253 Cd 0.6901 1.00106 0.27654 0.0
Cd254 Cd 0.6526 0.02776 0.31842 0.0
O255 O 0.61811 0.01149 0.28727 0.0
O256 O 0.72702 0.97316 0.26952 0.0
O257 O 0.70257 0.98161 0.31733 0.0
C258 C 0.72519 0.96823 0.30007 0.0
C259 C 0.63253 0.02644 0.37072 0.0
C260 C 0.62124 0.99428 0.26238 0.0
C261 C 0.69956 0.06965 0.28099 0.0
O262 O 0.67946 0.06749 0.30476 0.0
O263 O 0.70712 0.04522 0.26492 0.0
O264 O 0.62177 0.04576 0.35013 0.0
O265 O 0.6562 0.00829 0.36222 0.0
O266 O 0.78016 0.90943 0.10626 0.0
Cd267 Cd 0.77825 0.94362 0.06976 0.0
Cd268 Cd 0.81226 0.89585 0.03244 0.0
O269 O 0.80735 0.87251 0.07929 0.0
O270 O 0.74265 0.97438 0.08389 0.0
O271 O 0.73838 0.94509 0.04035 0.0
C272 C 0.72545 0.96574 0.05963 0.0
C273 C 0.79595 0.87462 0.97982 0.0
C274 C 0.79417 0.8827 0.1058 0.0
C275 C 0.84937 0.95983 0.04473 0.0
O276 O 0.84927 0.93245 0.0311 0.0
O277 O 0.82382 0.96884 0.06059 0.0
O278 O 0.82055 0.86402 0.99492 0.0
O279 O 0.7794 0.89612 0.99488 0.0
O280 O 0.36209 0.67938 0.08209 0.0
Cd281 Cd 0.34965 0.64501 0.04918 0.0
Cd282 Cd 0.3186 0.68737 0.02036 0.0
O283 O 0.33537 0.7157 0.05677 0.0
O284 O 0.38096 0.6105 0.04564 0.0
O285 O 0.37049 0.64287 1.00547 0.0
C286 C 0.38526 0.61853 0.01593 0.0
C287 C 0.31792 0.70944 0.96974 0.0
C288 C 0.35133 0.70734 0.08079 0.0
C289 C 0.27839 0.63467 0.04996 0.0
O290 O 0.2784 0.65968 0.03321 0.0
O291 O 0.30515 0.62358 0.05875 0.0
O292 O 0.29966 0.71968 0.99302 0.0
O293 O 0.33703 0.6864 0.97499 0.0
O294 O 0.13397 0.49432 0.76532 0.0
Cd295 Cd 0.18219 0.50192 0.77538 0.0
Cd296 Cd 0.16274 0.5335 0.8234 0.0
O297 O 0.12305 0.53671 0.79435 0.0
O298 O 0.21189 0.46753 0.76392 0.0
O299 O 0.20011 0.4833 0.81411 0.0
C300 C 0.21645 0.46557 0.79441 0.0
C301 C 0.14925 0.52664 0.87699 0.0
C302 C 0.11435 0.51588 0.77381 0.0
C303 C 0.21481 0.56208 0.78205 0.0
O304 O 0.20543 0.5583 0.8111 0.0
O305 O 0.20371 0.5436 0.7606 0.0
O306 O 0.14915 0.55429 0.86404 0.0
O307 O 0.15762 0.50259 0.85962 0.0
O308 O 0.2766 0.41047 0.61171 0.0
Cd309 Cd 0.27343 0.44565 0.57629 0.0
Cd310 Cd 0.3095 0.39685 0.5375 0.0
O311 O 0.30456 0.37406 0.58454 0.0
O312 O 0.23864 0.47644 0.59275 0.0
O313 O 0.23238 0.44834 0.5487 0.0
C314 C 0.22044 0.46868 0.56894 0.0
C315 C 0.29645 0.37316 0.48498 0.0
C316 C 0.29106 0.38395 0.61103 0.0
C317 C 0.34399 0.46268 0.54947 0.0
O318 O 0.34457 0.4352 0.53608 0.0
O319 O 0.31849 0.47114 0.56577 0.0
O320 O 0.32116 0.3646 0.50122 0.0
O321 O 0.27803 0.39399 0.49882 0.0
O322 O 0.45185 0.57734 0.19472 0.0
Cd323 Cd 0.43193 0.57128 0.24042 0.0
Cd324 Cd 0.48838 0.53794 0.24406 0.0
O325 O 0.50154 0.55915 0.20155 0.0
O326 O 0.39118 0.59598 0.2412 0.0
O327 O 0.4324 0.60627 0.27337 0.0
C328 C 0.40325 0.61233 0.26453 0.0
C329 C 0.505 0.556 0.29324 0.0
C330 C 0.48089 0.57243 0.18422 0.0
C331 C 0.42702 0.50073 0.25031 0.0
O332 O 0.45724 0.49868 0.24262 0.0
O333 O 0.41384 0.52746 0.25352 0.0
O334 O 0.52209 0.53514 0.27777 0.0
O335 O 0.47957 0.56689 0.28001 0.0
Co336 Co 0.03537 0.0573 0.01688 0.0
C337 C 0.03133 0.10199 0.06962 0.0
Co338 Co 0.04212 0.03626 0.06384 0.0
C339 C 0.02312 0.06335 0.9494 0.0
C340 C 0.03662 0.10783 0.97125 0.0
N341 N 0.03034 0.07683 0.97787 0.0
N342 N 0.02471 0.08468 0.92544 0.0
C343 C 0.0329 0.11276 0.93906 0.0
H344 H 0.01721 0.03831 0.94611 0.0
H345 H 0.04468 0.12562 0.98838 0.0
C346 C 0.04641 0.99093 0.01222 0.0
N347 N 0.04801 0.01579 0.10202 0.0
C348 C 0.07502 0.01726 0.11986 0.0
C349 C 0.03071 0.98989 0.1127 0.0
N350 N 0.07582 0.9928 0.1404 0.0
C351 C 0.0477 0.97579 0.13641 0.0
C352 C 0.97636 0.03064 0.04367 0.0
O353 O 0.04284 0.01568 0.99522 0.0
O354 O 0.04825 0.99512 0.04237 0.0
O355 O 0.99499 0.02605 0.0671 0.0
O356 O 0.98866 0.04522 0.0192 0.0
O357 O 0.03611 0.0771 0.08598 0.0
H358 H 1.00864 0.98016 0.10209 0.0
H359 H 0.09458 0.03502 0.11678 0.0
O360 O 0.02805 0.09836 0.03939 0.0
O361 O 0.08165 0.06952 0.01402 0.0
O362 O 0.08944 0.04733 0.06003 0.0
C363 C 0.10092 0.06396 0.0366 0.0
H364 H 0.03719 0.13494 0.92643 0.0
H365 H 0.04096 0.95359 0.14813 0.0
Co366 Co 0.33833 0.78175 0.33611 0.0
C367 C 0.33824 0.72151 0.31212 0.0
Co368 Co 0.31185 0.77751 0.29089 0.0
C369 C 0.33441 0.79963 0.40069 0.0
C370 C 0.37759 0.77276 0.39289 0.0
N371 N 0.35268 0.78574 0.37749 0.0
N372 N 0.34603 0.79524 0.43006 0.0
C373 C 0.37366 0.77882 0.42546 0.0
H374 H 0.31212 0.81197 0.39616 0.0
H375 H 0.39634 0.75856 0.38145 0.0
C376 C 0.31289 0.83771 0.31345 0.0
N377 N 0.29792 0.77311 0.2495 0.0
C378 C 0.31596 0.75793 0.22696 0.0
C379 C 0.2745 0.78748 0.23327 0.0
N380 N 0.30554 0.76261 0.19718 0.0
C381 C 0.27915 0.78104 0.20091 0.0
C382 C 0.26906 0.767 0.33856 0.0
O383 O 0.32845 0.82597 0.33623 0.0
O384 O 0.30306 0.82025 0.29063 0.0
O385 O 0.26947 0.76833 0.30815 0.0
O386 O 0.29565 0.77149 0.35327 0.0
O387 O 0.32107 0.7341 0.29112 0.0
H388 H 0.2565 0.803 0.244 0.0
H389 H 0.33801 0.74556 0.23224 0.0
O390 O 0.34844 0.73826 0.33544 0.0
O391 O 0.38088 0.79142 0.31843 0.0
O392 O 0.35411 0.78729 0.27369 0.0
C393 C 0.38067 0.79252 0.28801 0.0
H394 H 0.38898 0.77061 0.44428 0.0
H395 H 0.26478 0.78991 0.18169 0.0
Co396 Co 0.50645 0.04228 0.52664 0.0
C397 C 0.52619 0.10769 0.51842 0.0
Co398 Co 0.55042 0.05519 0.55259 0.0
C399 C 0.44087 0.02099 0.5206 0.0
C400 C 0.45995 0.03742 0.47518 0.0
N401 N 0.46847 0.03215 0.50571 0.0
N402 N 0.41527 0.01987 0.50113 0.0
C403 C 0.42695 0.0296 0.47222 0.0
H404 H 0.43921 0.01465 0.54574 0.0
H405 H 0.47625 0.04755 0.45675 0.0
C406 C 0.53136 0.98999 0.56064 0.0
N407 N 0.58724 0.06524 0.57431 0.0
C408 C 0.61283 0.08295 0.56306 0.0
C409 C 0.59548 0.05615 0.60389 0.0
N410 N 0.63696 0.08525 0.58426 0.0
C411 C 0.62638 0.06837 0.61005 0.0
C412 C 0.49431 0.06311 0.58851 0.0
O413 O 0.50717 0.99835 0.5441 0.0
O414 O 0.55352 0.01111 0.56642 0.0
O415 O 0.52527 0.06448 0.58987 0.0
O416 O 0.48128 0.05516 0.56244 0.0
O417 O 0.54762 0.09997 0.53848 0.0
H418 H 0.58024 0.04121 0.61964 0.0
H419 H 0.6142 0.09294 0.53919 0.0
O420 O 0.50597 0.08582 0.50936 0.0
O421 O 0.53134 0.02958 0.49104 0.0
O422 O 0.5761 0.04554 0.51507 0.0
C423 C 0.56227 0.03379 0.49058 0.0
H424 H 0.41243 0.03225 0.45114 0.0
H425 H 0.64007 0.0649 0.63153 0.0
Co426 Co 0.32669 0.30983 0.80029 0.0
C427 C 0.30061 0.32466 0.73939 0.0
Co428 Co 0.27427 0.2972 0.79779 0.0
C429 C 0.39368 0.30389 0.81798 0.0
C430 C 0.38747 0.34508 0.78933 0.0
N431 N 0.37082 0.32033 0.80299 0.0
N432 N 0.4241 0.31732 0.81428 0.0
C433 C 0.42018 0.3433 0.79619 0.0
H434 H 0.38787 0.28258 0.8316 0.0
H435 H 0.37657 0.36312 0.77512 0.0
C436 C 0.29854 0.28259 0.85831 0.0
N437 N 0.23077 0.28581 0.79474 0.0
C438 C 0.20898 0.29966 0.77623 0.0
C439 C 0.21572 0.25862 0.80495 0.0
N440 N 0.18134 0.28163 0.77323 0.0
C441 C 0.18529 0.25596 0.79172 0.0
C442 C 0.3149 0.24927 0.77914 0.0
O443 O 0.32518 0.29464 0.84581 0.0
O444 O 0.27335 0.28129 0.84103 0.0
O445 O 0.28521 0.25711 0.78184 0.0
O446 O 0.33754 0.26907 0.78639 0.0
O447 O 0.27475 0.31379 0.75391 0.0
H448 H 0.22716 0.2407 0.8189 0.0
H449 H 0.21423 0.32166 0.76362 0.0
O450 O 0.32736 0.32455 0.75472 0.0
O451 O 0.31569 0.3512 0.81406 0.0
O452 O 0.26337 0.33687 0.81362 0.0
C453 C 0.28571 0.35775 0.81874 0.0
H454 H 0.43949 0.35985 0.78816 0.0
H455 H 0.16872 0.2354 0.79338 0.0
Co456 Co 0.01625 0.00887 0.50304 0.0
C457 C 1.00773 0.05159 0.55244 0.0
Co458 Co 0.03848 0.05599 0.49263 0.0
C459 C 0.01819 0.943 0.51395 0.0
C460 C 0.96949 0.95901 0.52287 0.0
N461 N 1.00001 0.96897 0.51317 0.0
N462 N 1.00062 0.91734 0.52404 0.0
C463 C 0.96969 0.92686 0.52913 0.0
H464 H 0.04384 0.94264 0.50641 0.0
H465 H 0.94855 0.97409 0.52531 0.0
C466 C 0.04774 0.01345 0.44371 0.0
N467 N 0.05376 0.09685 0.48432 0.0
C468 C 0.0361 0.12215 0.49292 0.0
C469 C 0.08457 0.10853 0.47892 0.0
N470 N 0.05472 0.14897 0.49539 0.0
C471 C 0.08525 0.14067 0.48581 0.0
C472 C 0.08138 0.01807 0.52117 0.0
O473 O 0.03311 0.99397 0.46283 0.0
O474 O 0.05163 0.04248 0.45166 0.0
O475 O 0.07971 0.04528 0.50858 0.0
O476 O 0.05633 0.99948 0.52178 0.0
O477 O 0.02551 0.06944 0.5344 0.0
H478 H 0.10572 0.09419 0.47397 0.0
H479 H 0.01061 0.12006 0.50078 0.0
O480 O 0.99981 0.02376 0.54309 0.0
O481 O 0.97643 0.01837 0.48472 0.0
O482 O 0.99704 0.06635 0.47709 0.0
C483 C 0.97279 0.04677 0.47606 0.0
H484 H 0.94896 0.91172 0.53666 0.0
H485 H 0.1072 0.15572 0.48732 0.0
Co486 Co 0.284 0.81964 0.81262 0.0
C487 C 0.21966 0.79334 0.82268 0.0
Co488 Co 0.27519 0.77424 0.78809 0.0
C489 C 0.29789 0.8851 0.82193 0.0
C490 C 0.28433 0.86306 0.86659 0.0
N491 N 0.28969 0.85689 0.835 0.0
N492 N 0.29745 0.90859 0.84378 0.0
C493 C 0.28948 0.89515 0.87216 0.0
H494 H 0.30378 0.88857 0.79667 0.0
H495 H 0.27636 0.84556 0.88424 0.0
C496 C 0.33957 0.79977 0.7781 0.0
N497 N 0.27016 0.73716 0.76545 0.0
C498 C 0.26184 0.70843 0.77733 0.0
C499 C 0.27831 0.73197 0.73425 0.0
N500 N 0.26497 0.68537 0.755 0.0
C501 C 0.27493 0.70001 0.72768 0.0
C502 C 0.26086 0.82721 0.75246 0.0
O503 O 0.32942 0.82268 0.79559 0.0
O504 O 0.31962 0.77687 0.77221 0.0
O505 O 0.26129 0.79709 0.75178 0.0
O506 O 0.26987 0.8419 0.77738 0.0
O507 O 0.23021 0.77104 0.80466 0.0
H508 H 0.28735 0.75009 0.71769 0.0
H509 H 0.25404 0.7045 0.80206 0.0
O510 O 0.2391 0.81667 0.82905 0.0
O511 O 0.29792 0.79769 0.8479 0.0
O512 O 0.28923 0.75165 0.82452 0.0
C513 C 0.29826 0.7677 0.84878 0.0
H514 H 0.2867 0.90771 0.89479 0.0
H515 H 0.28034 0.68837 0.70497 0.0
Co516 Co 0.53216 0.02892 0.01833 0.0
C517 C 0.59234 0.01357 0.04528 0.0
Co518 Co 0.5333 0.03949 0.06973 0.0
C519 C 0.52011 0.04358 0.95323 0.0
C520 C 0.54267 0.99861 0.95717 0.0
N521 N 0.5318 0.02336 0.97465 0.0
N522 N 0.52292 0.03242 0.92287 0.0
C523 C 0.53716 1.00404 0.92533 0.0
H524 H 0.5095 0.06596 0.96003 0.0
H525 H 0.5533 0.97772 0.96702 0.0
C526 C 0.4738 0.05534 0.0445 0.0
N527 N 0.53368 0.04408 0.11328 0.0
C528 C 0.54366 0.0212 0.13264 0.0
C529 C 0.52452 0.06793 0.13298 0.0
N530 N 0.54164 0.02958 0.16375 0.0
C531 C 0.52956 0.05909 0.1642 0.0
C532 C 0.55494 0.08986 0.03458 0.0
O533 O 0.48717 0.04518 0.01841 0.0
O534 O 0.48999 0.05447 0.06997 0.0
O535 O 0.55028 0.08156 0.06363 0.0
O536 O 0.54895 0.07017 0.01224 0.0
O537 O 0.57751 0.02443 0.07007 0.0
H538 H 0.51537 0.09033 0.12512 0.0
H539 H 0.55265 0.99878 0.12379 0.0
O540 O 0.57712 0.01306 0.01894 0.0
O541 O 0.51535 0.98724 0.02412 0.0
O542 O 0.51615 0.9976 0.0755 0.0
C543 C 0.51025 0.97831 0.0528 0.0
H544 H 0.54211 0.98765 0.90579 0.0
H545 H 0.52605 0.07384 0.18533 0.0
Co546 Co 0.28348 0.27192 0.30662 0.0
C547 C 0.34953 0.29232 0.31301 0.0
Co548 Co 0.29339 0.31864 0.28622 0.0
C549 C 0.25859 0.20814 0.31459 0.0
C550 C 0.28775 0.22411 0.35385 0.0
N551 N 0.27506 0.23371 0.32612 0.0
N552 N 0.26099 0.18292 0.33381 0.0
C553 C 0.27945 0.19259 0.35843 0.0
H554 H 0.24705 0.20737 0.29152 0.0
H555 H 0.30353 0.23862 0.36885 0.0
C556 C 0.22747 0.29841 0.27932 0.0
N557 N 0.30269 0.35678 0.26683 0.0
C558 C 0.32446 0.37933 0.27633 0.0
C559 C 0.29457 0.36513 0.23696 0.0
N560 N 0.33094 0.40084 0.25322 0.0
C561 C 0.3123 0.3922 0.22836 0.0
C562 C 0.29782 0.26728 0.24024 0.0
O563 O 0.23677 0.27491 0.29566 0.0
O564 O 0.24815 0.32121 0.27414 0.0
O565 O 0.30208 0.29718 0.24438 0.0
O566 O 0.29091 0.25065 0.26511 0.0
O567 O 0.33924 0.31638 0.29851 0.0
H568 H 0.27858 0.35123 0.22162 0.0
H569 H 0.33732 0.37861 0.29866 0.0
O570 O 0.32966 0.2687 0.31707 0.0
O571 O 0.27649 0.29281 0.34821 0.0
O572 O 0.28466 0.34011 0.32803 0.0
C573 C 0.27957 0.3227 0.35278 0.0
H574 H 0.28754 0.17754 0.37739 0.0
H575 H 0.31264 0.40383 0.20528 0.0
Co576 Co 0.53157 0.51381 1.00705 0.0
C577 C 0.51886 0.5583 0.05381 0.0
Co578 Co 0.55627 0.56011 0.99737 0.0
C579 C 0.52959 0.44786 0.01872 0.0
C580 C 0.48135 0.46617 0.02373 0.0
N581 N 0.51295 0.47472 0.01665 0.0
N582 N 0.50991 0.42287 0.02686 0.0
C583 C 0.47933 0.43395 0.02955 0.0
H584 H 0.5556 0.44632 0.01301 0.0
H585 H 0.46112 0.48221 0.02424 0.0
C586 C 0.57 0.51531 0.9516 0.0
N587 N 0.57376 0.60026 0.98928 0.0
C588 C 0.55558 0.62603 0.99426 0.0
C589 C 0.60518 0.61128 0.98927 0.0
N590 N 0.574 0.65237 1.00003 0.0
C591 C 0.60538 0.64344 0.996 0.0
C592 C 0.59429 0.52218 0.03188 0.0
O593 O 0.55089 0.49754 0.96867 0.0
O594 O 0.57514 0.54425 0.9593 0.0
O595 O 0.594 0.54943 0.01926 0.0
O596 O 0.56957 0.50336 0.02943 0.0
O597 O 0.5379 0.57573 0.03654 0.0
H598 H 0.62639 0.59644 0.9887 0.0
H599 H 0.52921 0.62456 0.99805 0.0
O600 O 0.51247 0.52993 0.04521 0.0
O601 O 0.49406 0.5244 0.98523 0.0
O602 O 0.51782 0.57069 0.97567 0.0
C603 C 0.49268 0.55224 0.97417 0.0
H604 H 0.45725 0.4197 0.0347 0.0
H605 H 0.62685 0.65796 1.00174 0.0
Co606 Co 0.79546 0.31877 0.31309 0.0
C607 C 0.73041 0.29476 0.32117 0.0
Co608 Co 0.78617 0.27495 0.28644 0.0
C609 C 0.81154 0.38358 0.32289 0.0
C610 C 0.79662 0.36189 0.36737 0.0
N611 N 0.80262 0.35553 0.33593 0.0
N612 N 0.81067 0.40725 0.34453 0.0
C613 C 0.80185 0.39402 0.37282 0.0
H614 H 0.81766 0.38691 0.29766 0.0
H615 H 0.78769 0.34459 0.38485 0.0
C616 C 0.85101 0.29748 0.27832 0.0
N617 N 0.77867 0.23864 0.26362 0.0
C618 C 0.76073 0.21351 0.27427 0.0
C619 C 0.78863 0.23093 0.23347 0.0
N620 N 0.75877 0.19033 0.25205 0.0
C621 C 0.77648 0.20089 0.22629 0.0
C622 C 0.77427 0.32894 0.25239 0.0
O623 O 0.8409 0.32083 0.2953 0.0
O624 O 0.83084 0.27482 0.27229 0.0
O625 O 0.77547 0.29895 0.24992 0.0
O626 O 0.78137 0.34219 0.27866 0.0
O627 O 0.74084 0.27449 0.30087 0.0
H628 H 0.80364 0.24617 0.2178 0.0
H629 H 0.74974 0.21211 0.2982 0.0
O630 O 0.7505 0.31645 0.33058 0.0
O631 O 0.80927 0.29588 0.34734 0.0
O632 O 0.79701 0.25087 0.32331 0.0
C633 C 0.80726 0.26589 0.34781 0.0
H634 H 0.7981 0.40679 0.3952 0.0
H635 H 0.78007 0.18802 0.20395 0.0
Co636 Co 0.02757 0.53221 0.52902 0.0
C637 C 0.08794 0.51916 0.55804 0.0
Co638 Co 0.02824 0.54421 0.58018 0.0
C639 C 0.01813 0.54328 0.4629 0.0
C640 C 0.03938 0.49811 0.4698 0.0
N641 N 0.02846 0.52382 0.48572 0.0
N642 N 0.02192 0.53084 0.43316 0.0
C643 C 0.0353 0.50229 0.43747 0.0
H644 H 1.008 0.56621 0.46827 0.0
H645 H 0.04931 0.47756 0.48102 0.0
C646 C 0.96834 0.55738 0.55204 0.0
N647 N 0.02639 0.55321 0.62322 0.0
C648 C 0.03778 0.53537 0.64673 0.0
C649 C 0.01157 0.57757 0.63833 0.0
N650 N 0.03072 0.54747 0.67609 0.0
C651 C 0.01429 0.57416 0.67091 0.0
C652 C 0.04865 0.59376 0.54218 0.0
O653 O 0.98266 0.54726 0.52653 0.0
O654 O 0.98387 0.55713 0.57794 0.0
O655 O 0.04352 0.58647 0.57141 0.0
O656 O 0.04371 0.57311 0.52053 0.0
O657 O 0.0733 0.53099 0.5826 0.0
H658 H 0.99952 0.59652 0.62642 0.0
H659 H 0.05177 0.51429 0.6422 0.0
O660 O 0.07248 0.51742 0.53185 0.0
O661 O 0.01158 0.49089 0.5374 0.0
O662 O 0.0133 0.5019 0.58878 0.0
C663 C 1.00799 0.48202 0.56631 0.0
H664 H 0.04087 0.48509 0.41883 0.0
H665 H 1.00523 0.59027 0.68923 0.0
Co666 Co 0.82897 0.80883 0.29592 0.0
C667 C 0.80321 0.82416 0.23474 0.0
Co668 Co 0.77682 0.79577 0.29248 0.0
C669 C 0.89562 0.8023 0.3141 0.0
C670 C 0.89011 0.8438 0.28572 0.0
N671 N 0.87312 0.81902 0.29893 0.0
N672 N 0.92613 0.81561 0.311 0.0
C673 C 0.92268 0.8418 0.29308 0.0
H674 H 0.88948 0.78095 0.32752 0.0
H675 H 0.87952 0.86209 0.27158 0.0
C676 C 0.80033 0.78072 0.35318 0.0
N677 N 0.73336 0.78493 0.28951 0.0
C678 C 0.71106 0.80095 0.27361 0.0
C679 C 0.71783 0.75771 0.29888 0.0
N680 N 0.68236 0.78443 0.27162 0.0
C681 C 0.6864 0.75729 0.28785 0.0
C682 C 0.81759 0.74818 0.27372 0.0
O683 O 0.82717 0.79291 0.34126 0.0
O684 O 0.77556 0.7794 0.3354 0.0
O685 O 0.78769 0.75553 0.27603 0.0
O686 O 0.83972 0.76836 0.28136 0.0
O687 O 0.77732 0.8128 0.24883 0.0
H688 H 0.72925 0.73861 0.31117 0.0
H689 H 0.71645 0.82366 0.26238 0.0
O690 O 0.82976 0.82434 0.25047 0.0
O691 O 0.81831 0.84981 0.3107 0.0
O692 O 0.7661 0.83551 0.30907 0.0
C693 C 0.78832 0.85613 0.31553 0.0
H694 H 0.94221 0.85835 0.28561 0.0
H695 H 0.6689 0.73747 0.28955 0.0
Co696 Co 0.84083 0.29195 0.8355 0.0
C697 C 0.83999 0.23183 0.81081 0.0
Co698 Co 0.81419 0.28836 0.79043 0.0
C699 C 0.83831 0.30925 0.90021 0.0
C700 C 0.88047 0.28117 0.89141 0.0
N701 N 0.85585 0.29525 0.87658 0.0
N702 N 0.85004 0.30383 0.92934 0.0
C703 C 0.87706 0.28664 0.9241 0.0
H704 H 0.81636 0.32231 0.89615 0.0
H705 H 0.89855 0.26653 0.8795 0.0
C706 C 0.81608 0.34845 0.81339 0.0
N707 N 0.79949 0.28451 0.74936 0.0
C708 C 0.81681 0.26926 0.72638 0.0
C709 C 0.77476 0.29779 0.73404 0.0
N710 N 0.80447 0.27255 0.69717 0.0
C711 C 0.77776 0.29041 0.70172 0.0
C712 C 0.77152 0.27802 0.83853 0.0
O713 O 0.83164 0.33647 0.83606 0.0
O714 O 0.8059 0.33112 0.79062 0.0
O715 O 0.77189 0.2795 0.80814 0.0
O716 O 0.7982 0.2822 0.85316 0.0
O717 O 0.82286 0.24481 0.79004 0.0
H718 H 0.75653 0.31265 0.74537 0.0
H719 H 0.83922 0.25719 0.73094 0.0
O720 O 0.85032 0.24822 0.83432 0.0
O721 O 0.88326 0.30099 0.8175 0.0
O722 O 0.85641 0.29772 0.77277 0.0
C723 C 0.88309 0.30223 0.78711 0.0
H724 H 0.89223 0.27748 0.94257 0.0
H725 H 0.76172 0.29779 0.68314 0.0
Co726 Co 0.77418 0.77908 0.8007 0.0
C727 C 0.84071 0.79922 0.80519 0.0
Co728 Co 0.78412 0.82547 0.77966 0.0
C729 C 0.7494 0.71538 0.80699 0.0
C730 C 0.77869 0.72995 0.84668 0.0
N731 N 0.76591 0.74051 0.81937 0.0
N732 N 0.7519 0.68946 0.82518 0.0
C733 C 0.7704 0.69827 0.8501 0.0
H734 H 0.73791 0.71544 0.7839 0.0
H735 H 0.79458 0.7439 0.86207 0.0
C736 C 0.71779 0.80581 0.77409 0.0
N737 N 0.79294 0.86399 0.76104 0.0
C738 C 0.81398 0.88667 0.77163 0.0
C739 C 0.78495 0.87318 0.7314 0.0
N740 N 0.82007 0.90918 0.74947 0.0
C741 C 0.80207 0.90096 0.72403 0.0
C742 C 0.78802 0.77471 0.73385 0.0
O743 O 0.72743 0.78185 0.78953 0.0
O744 O 0.73835 0.82881 0.76937 0.0
O745 O 0.79108 0.80477 0.73736 0.0
O746 O 0.78221 0.75834 0.75908 0.0
O747 O 0.8304 0.82247 0.78945 0.0
H748 H 0.76945 0.85949 0.71542 0.0
H749 H 0.82668 0.88538 0.79401 0.0
O750 O 0.82038 0.77638 0.81148 0.0
O751 O 0.76684 0.79905 0.84231 0.0
O752 O 0.77742 0.84615 0.82255 0.0
C753 C 0.77168 0.82867 0.84719 0.0
H754 H 0.77865 0.68253 0.8684 0.0
H755 H 0.80255 0.91334 0.70135 0.0
Co756 Co 0.52807 0.56241 0.51771 0.0
C757 C 0.52375 0.60873 0.56959 0.0
Co758 Co 0.53403 0.54319 0.56564 0.0
C759 C 0.51878 0.56667 0.44947 0.0
C760 C 0.52684 0.6123 0.47126 0.0
N761 N 0.52298 0.58106 0.47814 0.0
N762 N 0.51999 0.58763 0.4252 0.0
C763 C 0.52473 0.61641 0.43877 0.0
H764 H 0.51539 0.54127 0.44624 0.0
H765 H 0.53231 0.63096 0.4884 0.0
C766 C 0.5381 0.49613 0.51527 0.0
N767 N 0.53997 0.52334 0.60431 0.0
C768 C 0.56789 0.52321 0.62079 0.0
C769 C 0.52168 0.49847 0.61598 0.0
N770 N 0.5683 0.49865 0.64127 0.0
C771 C 0.53898 0.48334 0.63879 0.0
C772 C 0.46875 0.5369 0.54549 0.0
O773 O 0.53606 0.52021 0.49701 0.0
O774 O 0.53887 0.50157 0.54529 0.0
O775 O 0.487 0.53388 0.56948 0.0
O776 O 0.48137 0.54995 0.52028 0.0
O777 O 0.52887 0.58447 0.58673 0.0
H778 H 0.49864 0.48984 0.60645 0.0
H779 H 0.58836 0.53975 0.61666 0.0
O780 O 0.52037 0.60407 0.53947 0.0
O781 O 0.57415 0.57477 0.51459 0.0
O782 O 0.58161 0.55342 0.56107 0.0
C783 C 0.59334 0.56935 0.53724 0.0
H784 H 0.52784 0.63862 0.42597 0.0
H785 H 0.53152 0.46145 0.65074 0.0
Co786 Co 0.02615 0.53571 0.03261 0.0
C787 C 0.04601 0.60122 0.02724 0.0
Co788 Co 0.06905 0.54772 0.06072 0.0
C789 C 0.95994 0.51664 0.02497 0.0
C790 C 0.98081 0.53315 0.98027 0.0
N791 N 0.9884 0.52662 0.0108 0.0
N792 N 0.93474 0.5176 1.00508 0.0
C793 C 0.94752 0.52741 0.97662 0.0
H794 H 0.95731 0.51011 0.05001 0.0
H795 H 0.9979 0.54318 0.96247 0.0
C796 C 0.04956 0.48256 0.06617 0.0
N797 N 0.10607 0.55725 0.08265 0.0
C798 C 0.13063 0.57627 0.07136 0.0
C799 C 0.11641 0.54616 0.11077 0.0
N800 N 0.15613 0.57751 0.09098 0.0
C801 C 0.1476 0.5585 0.11587 0.0
C802 C 0.01267 0.55521 0.09536 0.0
O803 O 0.02615 0.4915 0.04892 0.0
O804 O 0.07164 0.5033 0.07339 0.0
O805 O 0.04355 0.55617 0.09789 0.0
O806 O 1.00055 0.54799 0.0686 0.0
O807 O 0.06657 0.59257 0.04772 0.0
H808 H 0.10261 0.52953 0.126 0.0
H809 H 0.13047 0.58773 0.04821 0.0
O810 O 0.02611 0.57985 0.01661 0.0
O811 O 0.05189 0.52345 0.99678 0.0
O812 O 0.09502 0.53925 0.02353 0.0
C813 C 0.08272 0.52799 0.99813 0.0
H814 H 0.93358 0.53185 0.95551 0.0
H815 H 0.16296 0.5535 0.13585 0.0
C816 C 0.0423 0.19342 0.08205 0.0
C817 C 0.03925 0.19714 0.11573 0.0
H818 H 0.04151 0.16142 0.04123 0.0
C819 C 0.03253 0.16909 0.13361 0.0
H820 H 0.04741 0.21403 0.06716 0.0
C821 C 0.02957 0.13881 0.11878 0.0
C822 C 0.03246 0.13499 0.08519 0.0
H823 H 0.03006 0.17036 0.15952 0.0
H824 H 0.02506 0.1182 0.13384 0.0
C825 C 0.03867 0.16302 0.06709 0.0
C826 C 0.17895 0.76649 0.36317 0.0
C827 C 0.1807 0.76333 0.39666 0.0
H828 H 0.20575 0.76991 0.31818 0.0
C829 C 0.21131 0.75871 0.41017 0.0
H830 H 0.15564 0.76988 0.35205 0.0
C831 C 0.23968 0.75842 0.39086 0.0
C832 C 0.23822 0.76294 0.35759 0.0
H833 H 0.21353 0.75579 0.4358 0.0
H834 H 0.26294 0.75541 0.40223 0.0
C835 C 0.20755 0.76632 0.34376 0.0
C836 C 0.56938 0.91221 0.58818 0.0
C837 C 0.54198 0.89304 0.5982 0.0
H838 H 0.58766 0.95718 0.56956 0.0
C839 C 0.51065 0.90607 0.59509 0.0
H840 H 0.59393 0.90344 0.59021 0.0
C841 C 0.50696 0.93685 0.58213 0.0
C842 C 0.53451 0.95625 0.57286 0.0
H843 H 0.48885 0.89231 0.60245 0.0
H844 H 0.48247 0.94579 0.58011 0.0
C845 C 0.56575 0.94329 0.57633 0.0
C846 C 0.50868 0.31968 0.84765 0.0
C847 C 0.51038 0.28922 0.86091 0.0
H848 H 0.48007 0.35265 0.82311 0.0
C849 C 0.4843 0.26722 0.85639 0.0
H850 H 0.52835 0.33726 0.85067 0.0
C851 C 0.45643 0.27603 0.84015 0.0
C852 C 0.454 0.30711 0.8283 0.0
H853 H 0.48493 0.24352 0.86622 0.0
H854 H 0.43665 0.25857 0.83742 0.0
C855 C 0.48086 0.32853 0.83166 0.0
C856 C 0.06143 0.85438 0.52582 0.0
C857 C 0.04701 0.83219 0.50485 0.0
H858 H 0.05692 0.89964 0.54896 0.0
C859 C 0.01397 0.8352 0.49673 0.0
H860 H 0.08669 0.85243 0.5328 0.0
C861 C 0.9969 0.86195 0.50641 0.0
C862 C 0.01283 0.88597 0.52398 0.0
H863 H 1.00205 0.81802 0.48107 0.0
H864 H 0.97256 0.86535 0.49752 0.0
C865 C 0.04444 0.88124 0.53518 0.0
C866 C 0.4238 0.82164 0.73921 0.0
C867 C 0.4384 0.79171 0.73694 0.0
H868 H 0.38157 0.84809 0.75491 0.0
C869 C 0.42065 0.76525 0.74959 0.0
H870 H 0.43677 0.84255 0.72978 0.0
C871 C 0.38898 0.76832 0.76315 0.0
C872 C 0.37425 0.79808 0.76543 0.0
H873 H 0.43089 0.74183 0.74825 0.0
H874 H 0.37589 0.74716 0.77188 0.0
C875 C 0.39227 0.82487 0.75376 0.0
C876 C 0.59492 0.17197 0.03722 0.0
C877 C 0.58816 0.18294 1.00641 0.0
H878 H 0.5891 0.13361 0.07077 0.0
C879 C 0.56991 0.16351 0.98563 0.0
H880 H 0.6088 0.1867 0.05375 0.0
C881 C 0.55909 0.13338 0.99517 0.0
C882 C 0.56592 0.12221 0.02584 0.0
H883 H 0.56433 0.17137 0.96177 0.0
H884 H 0.54525 0.11884 0.97843 0.0
C885 C 0.58356 0.1418 0.04702 0.0
C886 C 0.1612 0.31567 0.21844 0.0
C887 C 0.13549 0.29371 0.22646 0.0
H888 H 0.2092 0.3349 0.22888 0.0
C889 C 0.13984 0.27408 0.2533 0.0
H890 H 0.15906 0.33128 0.19814 0.0
C891 C 0.16913 0.27579 0.27083 0.0
C892 C 0.19483 0.29776 0.26271 0.0
H893 H 0.12086 0.25673 0.26034 0.0
H894 H 0.17172 0.25967 0.29064 0.0
C895 C 0.19007 0.31787 0.23636 0.0
C896 C 0.1601 0.99154 0.17354 0.0
C897 C 0.15325 0.9771 0.20326 0.0
H898 H 0.14055 0.00774 0.12987 0.0
C899 C 0.12166 0.96392 0.20988 0.0
H900 H 0.18426 1.00178 0.16776 0.0
C901 C 0.09652 0.96793 0.18859 0.0
C902 C 0.10256 0.98503 0.16023 0.0
H903 H 0.11577 0.95233 0.23254 0.0
H904 H 0.07198 0.95931 0.19528 0.0
C905 C 0.13489 0.99551 0.15217 0.0
C906 C 0.28081 0.82293 0.48745 0.0
C907 C 0.29978 0.83669 0.5117 0.0
H908 H 0.28085 0.79807 0.44268 0.0
C909 C 0.33392 0.83217 0.5111 0.0
H910 H 0.25445 0.8256 0.48746 0.0
C911 C 0.34913 0.81662 0.48517 0.0
C912 C 0.33041 0.80543 0.45956 0.0
H913 H 0.34919 0.84234 0.52963 0.0
H914 H 0.37563 0.81525 0.48415 0.0
C915 C 0.29599 0.80737 0.46169 0.0
C916 C 0.41959 0.06272 0.64346 0.0
C917 C 0.43389 0.06563 0.67358 0.0
H918 H 0.42762 0.06034 0.59276 0.0
C919 C 0.46809 0.07037 0.67537 0.0
H920 H 0.39327 0.05942 0.64132 0.0
C921 C 0.48778 0.07102 0.64752 0.0
C922 C 0.47355 0.06696 0.61749 0.0
H923 H 0.47978 0.07298 0.69829 0.0
H924 H 0.51417 0.07374 0.6496 0.0
C925 C 0.43926 0.06344 0.61564 0.0
C926 C 0.31797 0.24341 0.93917 0.0
C927 C 0.28716 0.2432 0.9558 0.0
H928 H 0.34624 0.25655 0.89624 0.0
C929 C 0.261 0.25715 0.94026 0.0
H930 H 0.33881 0.23297 0.95011 0.0
C931 C 0.26508 0.26995 0.90916 0.0
C932 C 0.29574 0.27022 0.89243 0.0
H933 H 0.23687 0.25749 0.95186 0.0
H934 H 0.24393 0.27972 0.89811 0.0
C935 C 0.3223 0.2571 0.90821 0.0
C936 C 0.08421 0.01617 0.36092 0.0
C937 C 0.10866 0.99347 0.36283 0.0
H938 H 0.04536 0.04016 0.38558 0.0
C939 C 0.1087 0.97339 0.38956 0.0
H940 H 0.08325 0.03181 0.34049 0.0
C941 C 0.08618 0.97773 0.41509 0.0
C942 C 0.06395 1.00248 0.41417 0.0
H943 H 0.12712 0.95557 0.3915 0.0
H944 H 0.08795 0.96355 0.43651 0.0
C945 C 0.06233 0.0209 0.38657 0.0
C946 C 0.24596 0.89671 0.69917 0.0
C947 C 0.24673 0.88227 0.66872 0.0
H948 H 0.24967 0.89043 0.74967 0.0
C949 C 0.24859 0.84901 0.66632 0.0
H950 H 0.24436 0.92223 0.70182 0.0
C951 C 0.25145 0.83073 0.69377 0.0
C952 C 0.25272 0.84544 0.72402 0.0
H953 H 0.24888 0.83715 0.64316 0.0
H954 H 0.25413 0.80531 0.69114 0.0
C955 C 0.24905 0.87847 0.72657 0.0
C956 C 0.46837 0.07754 0.86975 0.0
C957 C 0.4757 0.06356 0.83988 0.0
H958 H 0.4771 0.0782 0.91983 0.0
C959 C 0.50208 0.04299 0.83691 0.0
H960 H 0.44806 0.09341 0.87268 0.0
C961 C 0.51907 0.03442 0.86388 0.0
C962 C 0.50967 0.04584 0.89446 0.0
H963 H 0.5085 0.0322 0.81398 0.0
H964 H 0.53859 0.01775 0.86084 0.0
C965 C 0.48507 0.06864 0.89686 0.0
C966 C 0.29735 0.2048 0.17175 0.0
C967 C 0.2934 0.22287 0.1437 0.0
H968 H 0.30159 0.20395 0.22311 0.0
C969 C 0.29206 0.25616 0.14787 0.0
H970 H 0.29842 0.17917 0.17013 0.0
C971 C 0.29459 0.2706 0.17873 0.0
C972 C 0.29799 0.25232 0.20676 0.0
H973 H 0.28907 0.27115 0.12725 0.0
H974 H 0.29311 0.29618 0.18069 0.0
C975 C 0.29926 0.21912 0.2025 0.0
C976 C 0.17212 0.12468 0.02089 0.0
C977 C 0.19584 0.11601 0.04288 0.0
H978 H 0.12468 0.11498 1.00108 0.0
C979 C 0.18853 0.0888 0.06177 0.0
H980 H 0.17657 0.1453 1.00583 0.0
C981 C 0.15831 0.07152 0.05939 0.0
C982 C 0.13456 0.08031 0.03746 0.0
H983 H 0.2059 0.08124 0.0791 0.0
H984 H 0.15343 0.0514 0.07503 0.0
C985 C 0.14226 0.10702 0.01802 0.0
C986 C 0.6735 0.52438 0.07623 0.0
C987 C 0.68096 0.49206 0.07622 0.0
H988 H 0.64014 0.55938 0.06153 0.0
C989 C 0.65921 0.46964 0.06261 0.0
H990 H 0.69005 0.54209 0.08649 0.0
C991 C 0.63044 0.47943 0.04898 0.0
C992 C 0.62349 0.51185 0.04807 0.0
H993 H 0.66445 0.44457 0.06246 0.0
H994 H 0.61411 0.46173 0.03837 0.0
C995 C 0.64514 0.53426 0.06186 0.0
C996 C 0.85352 0.48538 0.33658 0.0
C997 C 0.83931 0.49636 0.30851 0.0
H998 H 0.85453 0.44765 0.37081 0.0
C999 C 0.81128 0.48055 0.2968 0.0
H1000 H 0.87487 0.49745 0.34644 0.0
C1001 C 0.79985 0.45237 0.31086 0.0
C1002 C 0.81601 0.4399 0.33694 0.0
H1003 H 0.79958 0.48864 0.27549 0.0
H1004 H 0.77981 0.43903 0.30005 0.0
C1005 C 0.84179 0.45724 0.3508 0.0
C1006 C 0.88501 0.58489 0.58305 0.0
C1007 C 0.87278 0.60075 0.55656 0.0
H1008 H 0.92434 0.55916 0.60235 0.0
C1009 C 0.89161 0.60067 0.5276 0.0
H1010 H 0.87138 0.58441 0.60576 0.0
C1011 C 0.92199 0.5854 0.52543 0.0
C1012 C 0.93459 0.5705 0.55237 0.0
H1013 H 0.88298 0.61257 0.50668 0.0
H1014 H 0.93613 0.58623 0.50301 0.0
C1015 C 0.91551 0.57035 0.58109 0.0
C1016 C 0.26899 0.09825 0.31021 0.0
C1017 C 0.23608 0.08924 0.30536 0.0
H1018 H 0.30252 0.13575 0.32423 0.0
C1019 C 0.21131 0.11125 0.31084 0.0
H1020 H 0.2884 0.08151 0.30631 0.0
C1021 C 0.21951 0.14221 0.3204 0.0
C1022 C 0.25234 0.15099 0.32554 0.0
H1023 H 0.18576 0.10469 0.30713 0.0
H1024 H 0.20041 0.15932 0.32389 0.0
C1025 C 0.27702 0.12891 0.32067 0.0
C1026 C 0.34117 0.01147 0.55456 0.0
C1027 C 0.32427 0.9862 0.53956 0.0
H1028 H 0.38379 0.04241 0.55331 0.0
C1029 C 0.33507 0.97593 0.50887 0.0
H1030 H 0.3333 0.02016 0.57799 0.0
C1031 C 0.36387 0.98893 0.49471 0.0
C1032 C 0.38221 0.01207 0.51121 0.0
H1033 H 0.32226 0.95673 0.49652 0.0
H1034 H 0.37307 0.97936 0.47211 0.0
C1035 C 0.37 0.02419 0.54051 0.0
C1036 C 0.8658 0.6739 0.26602 0.0
C1037 C 0.84262 0.65262 0.25287 0.0
H1038 H 0.87613 0.72116 0.2824 0.0
C1039 C 0.81162 0.6633 0.24496 0.0
H1040 H 0.88999 0.66625 0.27205 0.0
C1041 C 0.80353 0.69471 0.25115 0.0
C1042 C 0.82657 0.71585 0.26481 0.0
H1043 H 0.79336 0.64725 0.23475 0.0
H1044 H 0.77921 0.70233 0.24558 0.0
C1045 C 0.85793 0.70534 0.27173 0.0
C1046 C 0.76893 0.42205 0.8208 0.0
C1047 C 0.78117 0.43823 0.79336 0.0
H1048 H 0.7717 0.38024 0.84956 0.0
C1049 C 0.80975 0.42777 0.77747 0.0
H1050 H 0.74711 0.42982 0.83371 0.0
C1051 C 0.82374 0.3997 0.78672 0.0
C1052 C 0.80967 0.38212 0.81223 0.0
H1053 H 0.81995 0.43994 0.75648 0.0
H1054 H 0.84393 0.3904 0.77235 0.0
C1055 C 0.78317 0.39401 0.83019 0.0
C1056 C 0.04854 0.8988 1.00408 0.0
C1057 C 0.03866 0.89292 0.97232 0.0
H1058 H 0.05869 0.93335 0.04136 0.0
C1059 C 0.03247 0.92006 0.95374 0.0
H1060 H 0.05378 0.87905 0.01938 0.0
C1061 C 0.03588 0.95139 0.96617 0.0
C1062 C 0.04538 0.9573 0.99797 0.0
H1063 H 0.02505 0.9172 0.92913 0.0
H1064 H 0.03049 0.97109 0.95084 0.0
C1065 C 0.05156 0.93025 0.01669 0.0
C1066 C 0.93734 0.31522 0.71476 0.0
C1067 C 0.95729 0.28878 0.71647 0.0
H1068 H 0.89791 0.34067 0.73697 0.0
C1069 C 0.95649 0.27056 0.7446 0.0
H1070 H 0.93778 0.3298 0.69345 0.0
C1071 C 0.93476 0.27763 0.76998 0.0
C1072 C 0.91316 0.30261 0.76722 0.0
H1073 H 0.97212 0.25037 0.7467 0.0
H1074 H 0.93294 0.26199 0.79052 0.0
C1075 C 0.91504 0.32178 0.7398 0.0
C1076 C 0.51139 0.17709 0.46102 0.0
C1077 C 0.52493 0.20418 0.47666 0.0
H1078 H 0.50041 0.12674 0.46167 0.0
C1079 C 0.53839 0.19926 0.50701 0.0
H1080 H 0.50095 0.1795 0.4376 0.0
C1081 C 0.53902 0.16829 0.52058 0.0
C1082 C 0.52535 0.14124 0.50475 0.0
H1083 H 0.54949 0.21915 0.51979 0.0
H1084 H 0.55025 0.16555 0.54356 0.0
C1085 C 0.51111 0.14653 0.47491 0.0
C1086 C 0.60151 0.7775 0.23228 0.0
C1087 C 0.60772 0.79578 0.20461 0.0
H1088 H 0.62009 0.76059 0.27604 0.0
C1089 C 0.63742 0.81316 0.20101 0.0
H1090 H 0.57839 0.76441 0.23594 0.0
C1091 C 0.66152 0.81058 0.22378 0.0
C1092 C 0.65604 0.79089 0.25071 0.0
H1093 H 0.64265 0.82752 0.17992 0.0
H1094 H 0.68489 0.82283 0.21925 0.0
C1095 C 0.62537 0.77527 0.25522 0.0
C1096 C 0.01649 0.19824 0.56081 0.0
C1097 C 0.03655 0.22584 0.55952 0.0
H1098 H 1.00659 0.15221 0.54211 0.0
C1099 C 0.06017 0.22937 0.53434 0.0
H1100 H 0.99801 0.19482 0.5798 0.0
C1101 C 0.065 0.20479 0.51212 0.0
C1102 C 0.04631 0.1763 0.51465 0.0
H1103 H 0.07586 0.25056 0.53253 0.0
H1104 H 0.08409 0.20765 0.49366 0.0
C1105 C 0.02134 0.17376 0.53876 0.0
C1106 C 0.64157 0.26488 0.33549 0.0
C1107 C 0.62941 0.28617 0.35887 0.0
H1108 H 0.68231 0.2508 0.30549 0.0
C1109 C 0.65076 0.31088 0.36939 0.0
H1110 H 0.62607 0.24551 0.32675 0.0
C1111 C 0.68333 0.31396 0.35708 0.0
C1112 C 0.69552 0.29242 0.3339 0.0
H1113 H 0.64241 0.32772 0.38739 0.0
H1114 H 0.69905 0.33311 0.36595 0.0
C1115 C 0.67402 0.26793 0.32324 0.0
C1116 C 0.52571 0.89186 0.05197 0.0
C1117 C 0.51626 0.88398 0.08359 0.0
H1118 H 0.52953 0.92825 0.01659 0.0
C1119 C 0.49793 0.90519 0.10233 0.0
H1120 H 0.53962 0.87553 0.0371 0.0
C1121 C 0.49268 0.93559 0.09086 0.0
C1122 C 0.50506 0.94458 0.06032 0.0
H1123 H 0.49043 0.89939 0.12679 0.0
H1124 H 0.48131 0.95281 0.10676 0.0
C1125 C 0.51966 0.92187 0.04017 0.0
C1126 C 0.91447 0.78108 0.85702 0.0
C1127 C 0.93658 0.80684 0.85043 0.0
H1128 H 0.86764 0.75815 0.84794 0.0
C1129 C 0.92739 0.82904 0.82743 0.0
H1130 H 0.92046 0.76342 0.87447 0.0
C1131 C 0.89697 0.82603 0.81216 0.0
C1132 C 0.87462 0.80055 0.81908 0.0
H1133 H 0.94352 0.84922 0.82154 0.0
H1134 H 0.89073 0.84411 0.79524 0.0
C1135 C 0.88409 0.77796 0.84159 0.0
C1136 C 0.99951 0.09427 0.84083 0.0
C1137 C 1.0099 0.06571 0.82679 0.0
H1138 H 0.99628 0.12265 0.88358 0.0
C1139 C 0.02642 0.044 0.84535 0.0
H1140 H 0.98666 0.11139 0.82702 0.0
C1141 C 0.03134 0.05025 0.87782 0.0
C1142 C 0.02036 0.07853 0.89197 0.0
H1143 H 0.03448 0.02173 0.83512 0.0
H1144 H 0.0437 0.03301 0.89189 0.0
C1145 C 1.00498 0.10074 0.8731 0.0
C1146 C 0.84863 0.21822 0.6403 0.0
C1147 C 0.83932 0.22972 0.61056 0.0
H1148 H 0.84359 0.22179 0.691 0.0
C1149 C 0.82197 0.25809 0.60965 0.0
H1150 H 0.86197 0.19646 0.64192 0.0
C1151 C 0.81128 0.2728 0.63805 0.0
C1152 C 0.81799 0.25953 0.66781 0.0
H1153 H 0.8146 0.26774 0.58705 0.0
H1154 H 0.79691 0.29389 0.63666 0.0
C1155 C 0.83786 0.23279 0.66859 0.0
C1156 C 0.63297 0.02533 0.43056 0.0
C1157 C 0.61575 0.02387 0.40196 0.0
H1158 H 0.62919 0.03019 0.48184 0.0
C1159 C 0.58139 0.02276 0.4029 0.0
H1160 H 0.65958 0.0263 0.43007 0.0
C1161 C 0.56419 0.02434 0.43201 0.0
C1162 C 0.5811 0.02781 0.46072 0.0
H1163 H 0.56778 0.02143 0.38095 0.0
H1164 H 0.5376 0.0243 0.43179 0.0
C1165 C 0.61565 0.02768 0.45995 0.0
C1166 C 0.7695 0.86414 0.15975 0.0
C1167 C 0.79625 0.86482 0.13739 0.0
H1168 H 0.75039 0.85053 0.20654 0.0
C1169 C 0.82566 0.85145 0.14743 0.0
H1170 H 0.74652 0.87437 0.15345 0.0
C1171 C 0.82833 0.8387 0.17879 0.0
C1172 C 0.80138 0.8379 0.20102 0.0
H1173 H 0.84709 0.8519 0.13142 0.0
H1174 H 0.85154 0.82929 0.18556 0.0
C1175 C 0.77181 0.85047 0.19052 0.0
C1176 C 0.9579 0.0633 0.62841 0.0
C1177 C 0.9823 0.07403 0.64939 0.0
H1178 H 0.94731 0.04691 0.58088 0.0
C1179 C 0.01429 0.08064 0.63737 0.0
H1180 H 0.93313 0.05771 0.63726 0.0
C1181 C 0.02207 0.0753 0.60498 0.0
C1182 C 0.99824 0.06219 0.58472 0.0
H1183 H 0.03344 0.08876 0.65323 0.0
H1184 H 0.04714 0.07949 0.59624 0.0
C1185 C 0.96598 0.05687 0.59635 0.0
C1186 C 0.81775 0.25436 0.43579 0.0
C1187 C 0.81622 0.2213 0.43824 0.0
H1188 H 0.81725 0.29424 0.40516 0.0
C1189 C 0.81506 0.20231 0.41044 0.0
H1190 H 0.81896 0.2693 0.45706 0.0
C1191 C 0.81322 0.21658 0.38037 0.0
C1192 C 0.81338 0.24986 0.37809 0.0
H1193 H 0.81382 0.17664 0.41213 0.0
H1194 H 0.81072 0.20172 0.35919 0.0
C1195 C 0.81681 0.26852 0.406 0.0
C1196 C 0.56583 0.01026 0.24658 0.0
C1197 C 0.59417 0.99285 0.2398 0.0
H1198 H 0.52656 0.03583 0.22718 0.0
C1199 C 0.59996 0.98141 0.20857 0.0
H1200 H 0.56022 0.01879 0.27065 0.0
C1201 C 0.58089 0.99147 0.18372 0.0
C1202 C 0.55552 0.01292 0.18979 0.0
H1203 H 0.62126 0.96748 0.20267 0.0
H1204 H 0.58826 0.98467 0.15959 0.0
C1205 C 0.54674 0.0204 0.22167 0.0
C1206 C 0.79441 0.83166 0.93634 0.0
C1207 C 0.78781 0.86296 0.9462 0.0
H1208 H 0.79367 0.79647 0.89869 0.0
C1209 C 0.77474 0.88308 0.92304 0.0
H1210 H 0.80454 0.81534 0.9531 0.0
C1211 C 0.7694 0.87246 0.89105 0.0
C1212 C 0.7757 0.84093 0.88141 0.0
H1213 H 0.76955 0.90745 0.92937 0.0
H1214 H 0.76021 0.88892 0.8739 0.0
C1215 C 0.78798 0.82075 0.9049 0.0
C1216 C 0.89148 0.99653 0.07141 0.0
C1217 C 0.88043 0.98045 0.04371 0.0
H1218 H 0.93035 0.02415 0.09348 0.0
C1219 C 0.90057 0.98269 0.01567 0.0
H1220 H 0.87694 0.99514 0.09356 0.0
C1221 C 0.93065 1.00039 0.01532 0.0
C1222 C 0.94227 0.01548 0.04331 0.0
H1223 H 0.89312 0.97057 0.99393 0.0
H1224 H 0.94554 1.00111 0.99336 0.0
C1225 C 0.92219 0.01319 0.07139 0.0
C1226 C 0.40662 0.56726 0.99717 0.0
C1227 C 0.40728 0.60043 0.995 0.0
H1228 H 0.43286 0.52489 0.98919 0.0
C1229 C 0.43197 0.61601 0.97644 0.0
H1230 H 0.3872 0.55483 0.0108 0.0
C1231 C 0.45858 0.59897 0.96443 0.0
C1232 C 0.46033 0.56629 0.97085 0.0
H1233 H 0.43252 0.64164 0.97418 0.0
H1234 H 0.47936 0.61198 0.95358 0.0
C1235 C 0.43265 0.55014 0.98445 0.0
C1236 C 0.24992 0.60861 0.79707 0.0
C1237 C 0.23439 0.59059 0.77317 0.0
H1238 H 0.27278 0.65304 0.80961 0.0
C1239 C 0.23385 0.60235 0.74176 0.0
H1240 H 0.25122 0.5998 0.82134 0.0
C1241 C 0.24577 0.63306 0.73518 0.0
C1242 C 0.25846 0.65215 0.7599 0.0
H1243 H 0.22214 0.58879 0.72284 0.0
H1244 H 0.243 0.64254 0.7114 0.0
C1245 C 0.26198 0.63913 0.79044 0.0
C1246 C 0.16838 0.47664 0.53784 0.0
C1247 C 0.18682 0.48218 0.56555 0.0
H1248 H 0.12337 0.48397 0.5135 0.0
C1249 C 0.17246 0.50044 0.59045 0.0
H1250 H 0.17841 0.46273 0.51812 0.0
C1251 C 0.14071 0.51241 0.58793 0.0
C1252 C 0.12222 0.50688 0.56025 0.0
H1253 H 0.18564 0.50525 0.61223 0.0
H1254 H 0.13063 0.52603 0.60783 0.0
C1255 C 0.1367 0.48892 0.53516 0.0
C1256 C 0.89652 0.95638 0.72931 0.0
C1257 C 0.89564 0.97966 0.75353 0.0
H1258 H 0.87174 0.9158 0.70858 0.0
C1259 C 0.87011 0.97892 0.77689 0.0
H1260 H 0.91582 0.95689 0.71085 0.0
C1261 C 0.84543 0.95534 0.77578 0.0
C1262 C 0.84551 0.93304 0.75074 0.0
H1263 H 0.869 0.99688 0.79563 0.0
H1264 H 0.82577 0.95494 0.79386 0.0
C1265 C 0.87127 0.93337 0.7277 0.0
C1266 C 0.70247 0.13898 0.5493 0.0
C1267 C 0.73073 0.12532 0.5608 0.0
H1268 H 0.65014 0.13732 0.54881 0.0
C1269 C 0.72761 0.09941 0.58183 0.0
H1270 H 0.7041 0.15926 0.53344 0.0
C1271 C 0.69666 0.08689 0.59059 0.0
C1272 C 0.66851 0.10008 0.57837 0.0
H1273 H 0.74904 0.08855 0.59124 0.0
H1274 H 0.6948 0.06629 0.60597 0.0
C1275 C 0.67162 0.12649 0.5581 0.0
C1276 C 0.23016 0.42434 0.83329 0.0
C1277 C 0.23913 0.44277 0.80643 0.0
H1278 H 0.23904 0.38168 0.85882 0.0
C1279 C 0.26848 0.43719 0.78925 0.0
H1280 H 0.20762 0.42858 0.8469 0.0
C1281 C 0.28718 0.41144 0.79702 0.0
C1282 C 0.27589 0.39056 0.82122 0.0
H1283 H 0.27591 0.45161 0.76872 0.0
H1284 H 0.30818 0.40579 0.78167 0.0
C1285 C 0.24824 0.3979 0.84035 0.0
C1286 C 0.35345 0.6449 0.26893 0.0
C1287 C 0.38437 0.63754 0.28026 0.0
H1288 H 0.314 0.67706 0.27098 0.0
C1289 C 0.39738 0.65511 0.30598 0.0
H1290 H 0.34256 0.63146 0.24946 0.0
C1291 C 0.38077 0.68108 0.31862 0.0
C1292 C 0.35107 0.68987 0.30552 0.0
H1293 H 0.42098 0.64961 0.3155 0.0
H1294 H 0.39227 0.69545 0.33709 0.0
C1295 C 0.33696 0.67086 0.28143 0.0
C1296 C 0.53277 0.70064 0.58006 0.0
C1297 C 0.52939 0.70499 0.61365 0.0
H1298 H 0.53297 0.66779 0.53987 0.0
C1299 C 0.52315 0.67718 0.63204 0.0
H1300 H 0.53755 0.72104 0.56478 0.0
C1301 C 0.52094 0.64659 0.61781 0.0
C1302 C 0.52419 0.64212 0.58432 0.0
H1303 H 0.52045 0.67888 0.65791 0.0
H1304 H 0.51673 0.62624 0.63328 0.0
C1305 C 0.52992 0.66988 0.56568 0.0
C1306 C 0.71347 0.26783 0.90986 0.0
C1307 C 0.68272 0.27078 0.89607 0.0
H1308 H 0.76537 0.26718 0.9024 0.0
C1309 C 0.68116 0.27423 0.86259 0.0
H1310 H 0.71561 0.26488 0.9355 0.0
C1311 C 0.70996 0.27557 0.84345 0.0
C1312 C 0.74069 0.2735 0.85752 0.0
H1313 H 0.65779 0.27641 0.85123 0.0
H1314 H 0.7082 0.27903 0.81785 0.0
C1315 C 0.74207 0.26912 0.89082 0.0
C1316 C 0.08501 0.40351 0.0931 0.0
C1317 C 0.05691 0.3848 0.10203 0.0
H1318 H 0.10483 0.44846 0.07586 0.0
C1319 C 0.02605 0.39854 0.09836 0.0
H1320 H 0.10924 0.39413 0.09563 0.0
C1321 C 0.02346 0.42963 0.0859 0.0
C1322 C 0.05168 0.44857 0.07775 0.0
H1323 H 1.00377 0.38512 0.1049 0.0
H1324 H 0.99929 0.43917 0.08341 0.0
C1325 C 0.08247 0.43489 0.08177 0.0
C1326 C 1.00938 0.81757 0.34719 0.0
C1327 C 0.01072 0.78683 0.35988 0.0
H1328 H 0.98152 0.85096 0.32232 0.0
C1329 C 0.98497 0.76482 0.35394 0.0
H1330 H 0.02882 0.83515 0.3513 0.0
C1331 C 0.95774 0.77388 0.33691 0.0
C1332 C 0.95559 0.8052 0.32566 0.0
H1333 H 0.98536 0.74091 0.36327 0.0
H1334 H 0.93817 0.75642 0.3331 0.0
C1335 C 0.98216 0.82666 0.33039 0.0
C1336 C 0.56586 0.3556 0.02784 0.0
C1337 C 0.5507 0.3353 1.00552 0.0
H1338 H 0.56379 0.4002 0.0527 0.0
C1339 C 0.51845 0.34101 0.99643 0.0
H1340 H 0.59054 0.35155 0.03552 0.0
C1341 C 0.50307 0.36853 1.00667 0.0
C1342 C 0.51995 0.39071 0.02575 0.0
H1343 H 0.50596 0.32532 0.97969 0.0
H1344 H 0.47948 0.37395 0.99712 0.0
C1345 C 0.55059 0.38328 0.03775 0.0
C1346 C 0.93585 0.31671 0.23954 0.0
C1347 C 0.94987 0.28646 0.2385 0.0
H1348 H 0.89402 0.34439 0.25386 0.0
C1349 C 0.93164 0.26081 0.25217 0.0
H1350 H 0.9492 0.33703 0.22931 0.0
C1351 C 0.90004 0.2649 0.26546 0.0
C1352 C 0.88584 0.29494 0.26641 0.0
H1353 H 0.94144 0.23718 0.25181 0.0
H1354 H 0.88653 0.24429 0.27493 0.0
C1355 C 0.90434 0.321 0.25378 0.0
C1356 C 0.0648 0.66545 0.49077 0.0
C1357 C 0.08375 0.68508 0.51079 0.0
H1358 H 0.03887 0.62114 0.48525 0.0
C1359 C 0.09002 0.67515 0.54208 0.0
H1360 H 0.05951 0.67255 0.46659 0.0
C1361 C 0.07776 0.6457 0.55301 0.0
C1362 C 0.05966 0.62577 0.5325 0.0
H1363 H 0.10439 0.69007 0.55804 0.0
H1364 H 0.08314 0.63819 0.57703 0.0
C1365 C 0.05305 0.636 0.50145 0.0
C1366 C 0.65042 0.82443 0.71463 0.0
C1367 C 0.62477 0.8024 0.72264 0.0
H1368 H 0.6987 0.84334 0.72467 0.0
C1369 C 0.62957 0.78226 0.749 0.0
H1370 H 0.64798 0.84041 0.69468 0.0
C1371 C 0.65918 0.78354 0.76605 0.0
C1372 C 0.68483 0.80559 0.75797 0.0
H1373 H 0.61069 0.7648 0.75601 0.0
H1374 H 0.66207 0.76703 0.78548 0.0
C1375 C 0.67964 0.82622 0.73212 0.0
C1376 C 0.65403 0.49297 0.67008 0.0
C1377 C 0.648 0.47833 0.69984 0.0
H1378 H 0.63316 0.51075 0.62775 0.0
C1379 C 0.61629 0.46598 0.70754 0.0
H1380 H 0.67825 0.50252 0.66341 0.0
C1381 C 0.59032 0.47145 0.68759 0.0
C1382 C 0.59566 0.48907 0.65944 0.0
H1383 H 0.61098 0.45422 0.73022 0.0
H1384 H 0.5658 0.46365 0.69529 0.0
C1385 C 0.62802 0.4983 0.65001 0.0
C1386 C 0.78669 0.33289 0.98799 0.0
C1387 C 0.80646 0.34473 0.01256 0.0
H1388 H 0.78517 0.3096 0.94244 0.0
C1389 C 0.84021 0.33836 0.01163 0.0
H1390 H 0.76057 0.337 0.98827 0.0
C1391 C 0.85443 0.32301 0.9851 0.0
C1392 C 0.83508 0.3138 0.95921 0.0
H1393 H 0.85607 0.34702 0.03041 0.0
H1394 H 0.88077 0.32027 0.98388 0.0
C1395 C 0.80087 0.31745 0.96163 0.0
C1396 C 0.98272 0.56554 0.18097 0.0
C1397 C 0.94853 0.56228 0.17773 0.0
H1398 H 0.02998 0.56613 0.15726 0.0
C1399 C 0.93564 0.55868 0.14704 0.0
H1400 H 0.99338 0.56855 0.20434 0.0
C1401 C 0.95659 0.5575 0.12015 0.0
C1402 C 0.99079 0.5598 0.12347 0.0
H1403 H 0.90939 0.55637 0.14375 0.0
H1404 H 0.94597 0.55412 0.09684 0.0
C1405 C 1.0037 0.5643 0.15404 0.0
C1406 C 0.76019 0.75669 0.43435 0.0
C1407 C 0.78563 0.7426 0.45083 0.0
H1408 H 0.74476 0.779 0.39144 0.0
C1409 C 0.81689 0.74218 0.4351 0.0
H1410 H 0.73577 0.75753 0.44525 0.0
C1411 C 0.82236 0.75542 0.40406 0.0
C1412 C 0.7965 0.76871 0.38736 0.0
H1413 H 0.83721 0.73161 0.44681 0.0
H1414 H 0.84659 0.75443 0.39277 0.0
C1415 C 0.7654 0.76905 0.40321 0.0
C1416 C 0.59199 0.48888 0.8682 0.0
C1417 C 0.62645 0.48926 0.86941 0.0
H1418 H 0.54662 0.49639 0.89425 0.0
C1419 C 0.64164 0.49346 0.89892 0.0
H1420 H 0.57986 0.4857 0.84556 0.0
C1421 C 0.62273 0.50033 0.92636 0.0
C1422 C 0.58853 0.50214 0.92457 0.0
H1423 H 0.66817 0.49417 0.90028 0.0
H1424 H 0.63487 0.50581 0.94861 0.0
C1425 C 0.57304 0.49501 0.89582 0.0
C1426 C 0.76295 0.35496 0.16739 0.0
C1427 C 0.76267 0.3882 0.1712 0.0
H1428 H 0.76658 0.30997 0.19025 0.0
C1429 C 0.763 0.40141 0.20218 0.0
H1430 H 0.76239 0.34403 0.14379 0.0
C1431 C 0.76534 0.38187 0.22872 0.0
C1432 C 0.76733 0.34877 0.22475 0.0
H1433 H 0.76257 0.42689 0.20591 0.0
H1434 H 0.76663 0.39286 0.25227 0.0
C1435 C 0.76523 0.3354 0.19397 0.0
C1436 C 0.97363 0.5775 0.37554 0.0
C1437 C 0.98185 0.56245 0.34644 0.0
H1438 H 0.97922 0.57888 0.42608 0.0
C1439 C 1.00672 0.54009 0.34562 0.0
H1440 H 0.95442 0.59473 0.37686 0.0
C1441 C 0.02126 0.53106 0.37385 0.0
C1442 C 0.01092 0.54388 0.40356 0.0
H1443 H 0.01379 0.52836 0.32335 0.0
H1444 H 0.03966 0.51311 0.37239 0.0
C1445 C 0.98788 0.5682 0.40388 0.0
C1446 C 0.79017 0.7106 0.66729 0.0
C1447 C 0.78618 0.72777 0.63869 0.0
H1448 H 0.79368 0.71129 0.71867 0.0
C1449 C 0.78383 0.76107 0.64182 0.0
H1450 H 0.79197 0.685 0.66643 0.0
C1451 C 0.78542 0.77641 0.67228 0.0
C1452 C 0.78887 0.75899 0.70084 0.0
H1453 H 0.78075 0.77536 0.62071 0.0
H1454 H 0.78321 0.80196 0.67351 0.0
C1455 C 0.79119 0.72579 0.69759 0.0
C1456 C 0.6661 0.62758 0.51892 0.0
C1457 C 0.68969 0.61912 0.54113 0.0
H1458 H 0.61831 0.61841 0.49973 0.0
C1459 C 0.68171 0.59285 0.56113 0.0
H1460 H 0.67104 0.6475 0.50304 0.0
C1461 C 0.651 0.5763 0.55959 0.0
C1462 C 0.62739 0.58491 0.53745 0.0
H1463 H 0.69894 0.5855 0.57869 0.0
H1464 H 0.64564 0.5569 0.57602 0.0
C1465 C 0.63574 0.61064 0.51691 0.0
C1466 C 0.14653 0.96465 0.54975 0.0
C1467 C 0.16806 0.98648 0.5645 0.0
H1468 H 0.10186 0.95774 0.52468 0.0
C1469 C 0.16147 0.01904 0.56417 0.0
H1470 H 0.15113 0.93944 0.5497 0.0
C1471 C 0.13367 0.02961 0.54919 0.0
C1472 C 0.11178 0.00764 0.53512 0.0
H1473 H 0.17794 0.03632 0.57521 0.0
H1474 H 0.1289 0.05478 0.54927 0.0
C1475 C 0.11839 0.97512 0.53552 0.0
C1476 C 0.29975 0.98243 0.79713 0.0
C1477 C 0.32916 0.99662 0.80768 0.0
H1478 H 0.26622 0.94249 0.80136 0.0
C1479 C 0.34403 0.98456 0.83489 0.0
H1480 H 0.28752 0.99141 0.77651 0.0
C1481 C 0.33135 0.95691 0.84937 0.0
C1482 C 0.30398 0.94113 0.83657 0.0
H1483 H 0.36645 0.99539 0.84386 0.0
H1484 H 0.34446 0.94636 0.86862 0.0
C1485 C 0.28739 0.95471 0.81141 0.0
C1486 C 0.39147 0.08181 0.07894 0.0
C1487 C 0.37865 0.09912 0.05373 0.0
H1488 H 0.43109 0.0548 0.09573 0.0
C1489 C 0.39672 0.1004 0.02431 0.0
H1490 H 0.37845 0.08023 0.10193 0.0
C1491 C 0.42695 0.08502 0.02048 0.0
C1492 C 0.44014 0.06866 0.04622 0.0
H1493 H 0.38759 0.11342 1.00432 0.0
H1494 H 0.44052 0.0869 0.9978 0.0
C1495 C 0.42179 0.06716 0.07536 0.0
C1496 C 0.70363 0.61861 0.79719 0.0
C1497 C 0.72849 0.59643 0.79334 0.0
H1498 H 0.69217 0.66656 0.81018 0.0
C1499 C 0.76099 0.60524 0.80041 0.0
H1500 H 0.6784 0.61218 0.7919 0.0
C1501 C 0.76845 0.63567 0.81178 0.0
C1502 C 0.74367 0.65781 0.81543 0.0
H1503 H 0.78047 0.58838 0.79792 0.0
H1504 H 0.79361 0.6422 0.81722 0.0
C1505 C 0.71134 0.64939 0.8077 0.0
C1506 C 0.85123 0.48021 0.01227 0.0
C1507 C 0.84087 0.49184 0.04261 0.0
H1508 H 0.88991 0.47997 0.97611 0.0
C1509 C 0.85941 0.5162 0.05729 0.0
H1510 H 0.83718 0.4617 1.00015 0.0
C1511 C 0.88936 0.52643 0.04344 0.0
C1512 C 0.90104 0.5127 0.01467 0.0
H1513 H 0.85196 0.52585 0.08045 0.0
H1514 H 0.90435 0.54386 0.05603 0.0
C1515 C 0.88116 0.49071 0.99833 0.0
C1516 C 0.30557 0.16557 0.74836 0.0
C1517 C 0.3361 0.15348 0.75572 0.0
H1518 H 0.27488 0.20576 0.75016 0.0
C1519 C 0.36021 0.17346 0.76931 0.0
H1520 H 0.28661 0.15057 0.73781 0.0
C1521 C 0.35367 0.20507 0.77598 0.0
C1522 C 0.32278 0.21691 0.76953 0.0
H1523 H 0.38407 0.16468 0.77494 0.0
H1524 H 0.37247 0.21995 0.78696 0.0
C1525 C 0.29886 0.19707 0.75543 0.0
C1526 C 0.26881 0.91333 0.32308 0.0
C1527 C 0.28132 0.92975 0.29589 0.0
H1528 H 0.27014 0.87059 0.35068 0.0
C1529 C 0.30854 0.91804 0.27867 0.0
H1530 H 0.248 0.92202 0.33693 0.0
C1531 C 0.32097 0.88885 0.28655 0.0
C1532 C 0.3068 0.87142 0.3121 0.0
H1533 H 0.31887 0.93029 0.25778 0.0
H1534 H 0.34024 0.87891 0.27142 0.0
C1535 C 0.28159 0.8842 0.33119 0.0
C1536 C 0.51842 0.40571 0.51249 0.0
C1537 C 0.52795 0.39638 0.48109 0.0
H1538 H 0.51488 0.44319 0.5477 0.0
C1539 C 0.5417 0.42049 0.46083 0.0
H1540 H 0.50766 0.38827 0.52896 0.0
C1541 C 0.54501 0.45268 0.47139 0.0
C1542 C 0.53577 0.46183 0.50301 0.0
H1543 H 0.54915 0.41464 0.4364 0.0
H1544 H 0.55499 0.47039 0.4548 0.0
C1545 C 0.5227 0.4375 0.52332 0.0
C1546 C 0.43375 0.81015 0.21575 0.0
C1547 C 0.45527 0.78486 0.21654 0.0
H1548 H 0.39303 0.83282 0.23897 0.0
C1549 C 0.45563 0.76582 0.2441 0.0
H1550 H 0.43324 0.82535 0.19495 0.0
C1551 C 0.4336 0.77094 0.26978 0.0
C1552 C 0.4106 0.7948 0.26794 0.0
H1553 H 0.47247 0.74651 0.24554 0.0
H1554 H 0.43279 0.75467 0.28982 0.0
C1555 C 0.41123 0.81478 0.24111 0.0
C1556 C 0.06908 0.6905 0.01503 0.0
C1557 C 0.04563 0.70076 0.99337 0.0
H1558 H 0.08771 0.65217 0.04248 0.0
C1559 C 0.02196 0.67774 0.98338 0.0
H1560 H 0.08791 0.70705 0.02336 0.0
C1561 C 0.02196 0.64589 0.99431 0.0
C1562 C 0.04556 0.6356 0.01582 0.0
H1563 H 1.00354 0.68423 0.96664 0.0
H1564 H 1.00341 0.6292 0.98568 0.0
C1565 C 0.06901 0.65871 0.02605 0.0
C1566 C 0.10373 0.26942 0.72877 0.0
C1567 C 0.11075 0.28708 0.70081 0.0
H1568 H 0.12019 0.2549 0.7743 0.0
C1569 C 0.14049 0.30453 0.6978 0.0
H1570 H 0.08063 0.2562 0.73202 0.0
C1571 C 0.16336 0.30345 0.72194 0.0
C1572 C 0.15666 0.28523 0.74972 0.0
H1573 H 0.1464 0.31841 0.67652 0.0
H1574 H 0.18661 0.31614 0.71816 0.0
C1575 C 0.12635 0.26868 0.75305 0.0
C1576 C 0.57288 0.73215 0.0401 0.0
C1577 C 0.54693 0.7276 0.06286 0.0
H1578 H 0.60163 0.71156 1.00179 0.0
C1579 C 0.52808 0.69926 0.06232 0.0
H1580 H 0.58779 0.75391 0.03981 0.0
C1581 C 0.53606 0.67522 0.04069 0.0
C1582 C 0.56303 0.67901 0.01888 0.0
H1583 H 0.50798 0.69502 0.0795 0.0
H1584 H 0.52204 0.65305 0.04254 0.0
C1585 C 0.5809 0.70799 0.01835 0.0
C1586 C 0.1411 0.76555 0.86788 0.0
C1587 C 0.12181 0.79272 0.86719 0.0
H1588 H 0.18655 0.744 0.85336 0.0
C1589 C 0.13448 0.81948 0.8504 0.0
H1590 H 0.13219 0.74463 0.88079 0.0
C1591 C 0.16609 0.81953 0.83582 0.0
C1592 C 0.18538 0.79241 0.83653 0.0
H1593 H 0.12051 0.84092 0.84975 0.0
H1594 H 0.17556 0.84091 0.82405 0.0
C1595 C 0.17221 0.76517 0.85216 0.0
C1596 C 1.00416 0.40649 0.61376 0.0
C1597 C 0.01918 0.38596 0.59155 0.0
H1598 H 0.98864 0.45396 0.62302 0.0
C1599 C 0.0246 0.39553 0.55971 0.0
H1600 H 0.99977 0.39935 0.63847 0.0
C1601 C 0.01727 0.42615 0.55061 0.0
C1602 C 1.00547 0.44794 0.57356 0.0
H1603 H 0.03588 0.37978 0.5422 0.0
H1604 H 0.02356 0.43346 0.52628 0.0
C1605 C 0.99773 0.43757 0.60491 0.0
C1606 C 0.43148 0.2675 0.34717 0.0
C1607 C 0.4415 0.29463 0.36494 0.0
H1608 H 0.39462 0.24507 0.31769 0.0
C1609 C 0.42153 0.32132 0.3642 0.0
H1610 H 0.44601 0.24639 0.34728 0.0
C1611 C 0.39274 0.32098 0.34606 0.0
C1612 C 0.38225 0.29353 0.32905 0.0
H1613 H 0.4283 0.34261 0.37751 0.0
H1614 H 0.37796 0.34193 0.34631 0.0
C1615 C 0.40199 0.26672 0.33011 0.0
C1616 C 0.52952 0.54577 0.34613 0.0
C1617 C 0.51239 0.56575 0.32621 0.0
H1618 H 0.54501 0.53707 0.39384 0.0
C1619 C 0.49927 0.59377 0.33898 0.0
H1620 H 0.53967 0.52394 0.33686 0.0
C1621 C 0.50245 0.60128 0.37135 0.0
C1622 C 0.5183 0.58065 0.39159 0.0
H1623 H 0.48592 0.60959 0.3241 0.0
H1624 H 0.49153 0.62265 0.38083 0.0
C1625 C 0.53221 0.55304 0.37869 0.0
C1626 C 0.33091 0.75489 0.11037 0.0
C1627 C 0.34824 0.72646 0.1105 0.0
H1628 H 0.30332 0.78852 0.13788 0.0
C1629 C 0.35477 0.7126 0.14002 0.0
H1630 H 0.32564 0.76634 0.08801 0.0
C1631 C 0.34128 0.72488 0.16841 0.0
C1632 C 0.32145 0.75166 0.16803 0.0
H1633 H 0.36793 0.69069 0.14107 0.0
H1634 H 0.34496 0.71216 0.19037 0.0
C1635 C 0.31753 0.76729 0.13886 0.0
C1636 C 0.14619 0.54512 0.93334 0.0
C1637 C 0.13708 0.52269 0.90998 0.0
H1638 H 0.13644 0.56358 0.98046 0.0
C1639 C 0.1126 0.49948 0.91711 0.0
H1640 H 0.165 0.56325 0.92806 0.0
C1641 C 0.09551 0.5003 0.94657 0.0
C1642 C 0.10359 0.5237 0.96941 0.0
H1643 H 0.10511 0.48221 0.89912 0.0
H1644 H 0.07531 0.48342 0.95109 0.0
C1645 C 0.12992 0.54526 0.96316 0.0
C1646 C 0.32261 0.3522 0.65216 0.0
C1647 C 0.29323 0.36586 0.64245 0.0
H1648 H 0.34857 0.32959 0.68994 0.0
C1649 C 0.2666 0.36516 0.66494 0.0
H1650 H 0.34394 0.35263 0.63602 0.0
C1651 C 0.26901 0.35126 0.69556 0.0
C1652 C 0.29856 0.33841 0.70574 0.0
H1653 H 0.24365 0.37559 0.65886 0.0
H1654 H 0.2477 0.35138 0.71173 0.0
C1655 C 0.32538 0.33919 0.68337 0.0
C1656 C 0.46531 0.56744 0.12747 0.0
C1657 C 0.48882 0.57664 0.14999 0.0
H1658 H 0.45689 0.55376 0.07869 0.0
C1659 C 0.52105 0.58463 0.13953 0.0
H1660 H 0.44035 0.56093 0.13509 0.0
C1661 C 0.53015 0.58149 0.10715 0.0
C1662 C 0.50737 0.56929 0.08532 0.0
H1663 H 0.5395 0.59173 0.15658 0.0
H1664 H 0.55555 0.58611 0.09969 0.0
C1665 C 0.4747 0.5632 0.09536 0.0
C1666 C 0.31072 0.75659 0.93664 0.0
C1667 C 0.31657 0.72411 0.93821 0.0
H1668 H 0.30105 0.79581 0.90706 0.0
C1669 C 0.31862 0.70591 0.90989 0.0
H1670 H 0.30927 0.77106 0.95823 0.0
C1671 C 0.31316 0.71997 0.88029 0.0
C1672 C 0.30647 0.75245 0.87892 0.0
H1673 H 0.323 0.68069 0.91079 0.0
H1674 H 0.31368 0.70547 0.85871 0.0
C1675 C 0.30609 0.77071 0.90728 0.0
C1676 C 0.07481 0.49749 0.73276 0.0
C1677 C 0.08495 0.52061 0.75507 0.0
H1678 H 0.04807 0.48772 0.69039 0.0
C1679 C 0.07065 0.55055 0.75513 0.0
H1680 H 0.08481 0.47395 0.73267 0.0
C1681 C 0.0502 0.55866 0.73051 0.0
C1682 C 0.04352 0.53682 0.70573 0.0
H1683 H 0.07764 0.56875 0.77237 0.0
H1684 H 0.04218 0.58286 0.72949 0.0
C1685 C 0.05401 0.50549 0.70839 0.0
C1686 C 0.27647 0.37867 0.42739 0.0
C1687 C 0.29028 0.36014 0.45143 0.0
H1688 H 0.263 0.38228 0.37771 0.0
C1689 C 0.29952 0.32922 0.44254 0.0
H1690 H 0.26927 0.40268 0.43296 0.0
C1691 C 0.29487 0.31717 0.41116 0.0
C1692 C 0.28182 0.33583 0.38684 0.0
H1693 H 0.31033 0.31412 0.46 0.0
H1694 H 0.30251 0.29327 0.40567 0.0
C1695 C 0.2729 0.36696 0.39552 0.0
C1696 C 0.39441 0.48583 0.51942 0.0
C1697 C 0.3743 0.48426 0.54752 0.0
H1698 H 0.43888 0.50449 0.49637 0.0
C1699 C 0.3847 0.50204 0.57442 0.0
H1700 H 0.38742 0.47244 0.49826 0.0
C1701 C 0.41484 0.51966 0.57366 0.0
C1702 C 0.43494 0.52118 0.54555 0.0
H1703 H 0.37016 0.50124 0.5966 0.0
H1704 H 0.42261 0.53188 0.59524 0.0
C1705 C 0.4239 0.50443 0.51828 0.0
C1706 C 0.91007 0.10845 0.47961 0.0
C1707 C 0.88862 0.09447 0.50271 0.0
H1708 H 0.95441 0.1032 0.45158 0.0
C1709 C 0.88988 0.06189 0.50877 0.0
H1710 H 0.90904 0.13353 0.47426 0.0
C1711 C 0.91491 0.04425 0.49486 0.0
C1712 C 0.9397 0.05947 0.47591 0.0
H1713 H 0.87289 0.05055 0.52594 0.0
H1714 H 0.91705 0.01986 0.50237 0.0
C1715 C 0.93574 0.09102 0.46637 0.0
C1716 C 0.70056 0.12838 0.28511 0.0
C1717 C 0.71373 0.10074 0.27178 0.0
H1718 H 0.70401 0.17887 0.28814 0.0
C1719 C 0.74037 0.10311 0.24964 0.0
H1720 H 0.6796 0.12728 0.30173 0.0
C1721 C 0.75452 0.13276 0.24204 0.0
C1722 C 0.74211 0.16026 0.25644 0.0
H1723 H 0.75083 0.08208 0.23885 0.0
H1724 H 0.77588 0.13407 0.22598 0.0
C1725 C 0.71452 0.15788 0.27735 0.0
C1726 C 0.67417 0.9725 0.0267 0.0
C1727 C 0.69171 0.97848 0.05495 0.0
H1728 H 0.6296 0.97896 1.00112 0.0
C1729 C 0.67628 0.99644 0.0794 0.0
H1730 H 0.68508 0.95878 1.0073 0.0
C1731 C 0.64441 0.00766 0.076 0.0
C1732 C 0.62676 1.00177 0.04785 0.0
H1733 H 0.68868 1.00155 0.10156 0.0
H1734 H 0.63357 0.02108 0.09568 0.0
C1735 C 0.64227 0.98415 0.02311 0.0
C1736 C 0.38235 0.47046 0.2787 0.0
C1737 C 0.40571 0.47241 0.25332 0.0
H1738 H 0.34005 0.44522 0.29854 0.0
C1739 C 0.40513 0.44971 0.22857 0.0
H1740 H 0.38238 0.48803 0.29785 0.0
C1741 C 0.38031 0.42614 0.22843 0.0
C1742 C 0.35652 0.42469 0.25345 0.0
H1743 H 0.42272 0.45122 0.20859 0.0
H1744 H 0.37948 0.40913 0.20882 0.0
C1745 C 0.35818 0.44636 0.27901 0.0
C1746 C 0.21756 0.63452 0.05462 0.0
C1747 C 0.24708 0.61996 0.0612 0.0
H1748 H 0.16537 0.63282 0.06022 0.0
C1749 C 0.24638 0.5923 0.07993 0.0
H1750 H 0.21731 0.65615 0.04075 0.0
C1751 C 0.21648 0.57899 0.09114 0.0
C1752 C 0.18702 0.59316 0.08369 0.0
H1753 H 0.26885 0.58077 0.08564 0.0
H1754 H 0.21631 0.55707 0.10454 0.0
C1755 C 0.18786 0.6213 0.06587 0.0
C1756 C 0.73265 0.92203 0.33478 0.0
C1757 C 0.74635 0.94496 0.31379 0.0
H1758 H 0.73606 0.87456 0.35198 0.0
C1759 C 0.77818 0.9415 0.30077 0.0
H1760 H 0.7081 0.92441 0.34506 0.0
C1761 C 0.79453 0.91348 0.30546 0.0
C1762 C 0.77858 0.88855 0.32236 0.0
H1763 H 0.78916 0.95924 0.28474 0.0
H1764 H 0.81767 0.90996 0.29262 0.0
C1765 C 0.74859 0.89362 0.33873 0.0
C1766 C 0.85354 0.15484 0.76751 0.0
C1767 C 0.88418 0.14662 0.77889 0.0
H1768 H 0.815 0.18801 0.76946 0.0
C1769 C 0.89786 0.16418 0.80429 0.0
H1770 H 0.84215 0.14149 0.74826 0.0
C1771 C 0.88202 0.1907 0.81678 0.0
C1772 C 0.85242 0.20007 0.80386 0.0
H1773 H 0.92128 0.15807 0.81381 0.0
H1774 H 0.89394 0.20489 0.83513 0.0
C1775 C 0.83784 0.18133 0.77984 0.0
loop_
_geom_bond_atom_site_label_1
_geom_bond_atom_site_label_2
_geom_bond_distance
_geom_bond_site_symmetry_2
_ccdc_geom_bond_type
O0 Cd1 2.223 . S
O0 C8 1.315 . S
Cd1 O0 2.223 . S
Cd1 O4 2.297 1_455 S
Cd1 O5 2.439 1_455 S
Cd1 O11 2.240 . S
Cd2 O3 2.240 . S
Cd2 O10 2.223 . S
Cd2 O12 2.297 . S
Cd2 O13 2.439 . S
O3 Cd2 2.240 . S
O3 C8 1.279 . S
O4 Cd1 2.297 1_655 S
O4 C6 1.247 . S
O5 Cd1 2.439 1_655 S
O5 C6 1.208 . S
C6 O4 1.247 . S
C6 O5 1.208 . S
C7 O12 1.247 . S
C7 O13 1.208 . S
C8 O0 1.315 . S
C8 O3 1.279 . S
C9 O10 1.315 . S
C9 O11 1.279 . S
O10 Cd2 2.223 . S
O10 C9 1.315 . S
O11 Cd1 2.240 . S
O11 C9 1.279 . S
O12 Cd2 2.297 . S
O12 C7 1.247 . S
O13 Cd2 2.439 . S
O13 C7 1.208 . S
O14 Cd15 2.223 . S
O14 C22 1.315 . S
Cd15 O14 2.223 . S
Cd15 O18 2.297 . S
Cd15 O19 2.439 . S
Cd15 O25 2.240 . S
Cd16 O17 2.240 . S
Cd16 O24 2.223 . S
Cd16 O26 2.297 . S
Cd16 O27 2.439 . S
O17 Cd16 2.240 . S
O17 C22 1.279 . S
O18 Cd15 2.297 . S
O18 C20 1.247 . S
O19 Cd15 2.439 . S
O19 C20 1.208 . S
C20 O18 1.247 . S
C20 O19 1.208 . S
C21 O26 1.247 1_655 S
C21 O27 1.208 1_655 S
C22 O14 1.315 . S
C22 O17 1.279 . S
C23 O24 1.315 . S
C23 O25 1.279 . S
O24 Cd16 2.223 . S
O24 C23 1.315 . S
O25 Cd15 2.240 . S
O25 C23 1.279 . S
O26 Cd16 2.297 . S
O26 C21 1.247 1_455 S
O27 Cd16 2.439 . S
O27 C21 1.208 1_455 S
O28 Cd29 2.223 . S
O28 C36 1.315 . S
Cd29 O28 2.223 . S
Cd29 O32 2.297 . S
Cd29 O33 2.439 . S
Cd29 O39 2.240 . S
Cd30 O31 2.240 . S
Cd30 O38 2.223 . S
Cd30 O40 2.297 . S
Cd30 O41 2.439 . S
O31 Cd30 2.240 . S
O31 C36 1.279 . S
O32 Cd29 2.297 . S
O32 C34 1.247 . S
O33 Cd29 2.439 . S
O33 C34 1.208 . S
C34 O32 1.247 . S
C34 O33 1.208 . S
C35 O40 1.247 . S
C35 O41 1.208 . S
C36 O28 1.315 . S
C36 O31 1.279 . S
C37 O38 1.315 . S
C37 O39 1.279 . S
O38 Cd30 2.223 . S
O38 C37 1.315 . S
O39 Cd29 2.240 . S
O39 C37 1.279 . S
O40 Cd30 2.297 . S
O40 C35 1.247 . S
O41 Cd30 2.439 . S
O41 C35 1.208 . S
O42 Cd43 2.223 . S
O42 C50 1.315 . S
Cd43 O42 2.223 . S
Cd43 O46 2.297 . S
Cd43 O47 2.439 . S
Cd43 O53 2.240 . S
Cd44 O45 2.240 . S
Cd44 O52 2.223 . S
Cd44 O54 2.297 . S
Cd44 O55 2.439 . S
O45 Cd44 2.240 . S
O45 C50 1.279 . S
O46 Cd43 2.297 . S
O46 C48 1.247 . S
O47 Cd43 2.439 . S
O47 C48 1.208 . S
C48 O46 1.247 . S
C48 O47 1.208 . S
C49 O54 1.247 . S
C49 O55 1.208 . S
C50 O42 1.315 . S
C50 O45 1.279 . S
C51 O52 1.315 . S
C51 O53 1.279 . S
O52 Cd44 2.223 . S
O52 C51 1.315 . S
O53 Cd43 2.240 . S
O53 C51 1.279 . S
O54 Cd44 2.297 . S
O54 C49 1.247 . S
O55 Cd44 2.439 . S
O55 C49 1.208 . S
O56 Cd57 2.223 1_545 S
O56 C64 1.315 . S
Cd57 O56 2.223 1_565 S
Cd57 O60 2.297 . S
Cd57 O61 2.439 . S
Cd57 O67 2.240 1_565 S
Cd58 O59 2.240 1_545 S
Cd58 O66 2.223 . S
Cd58 O68 2.297 . S
Cd58 O69 2.439 1_545 S
O59 Cd58 2.240 1_565 S
O59 C64 1.279 1_565 S
O60 Cd57 2.297 . S
O60 C62 1.247 . S
O61 Cd57 2.439 . S
O61 C62 1.208 . S
C62 O60 1.247 . S
C62 O61 1.208 . S
C63 O68 1.247 . S
C63 O69 1.208 1_545 S
C64 O56 1.315 . S
C64 O59 1.279 1_545 S
C65 O66 1.315 . S
C65 O67 1.279 . S
O66 Cd58 2.223 . S
O66 C65 1.315 . S
O67 Cd57 2.240 1_545 S
O67 C65 1.279 . S
O68 Cd58 2.297 . S
O68 C63 1.247 . S
O69 Cd58 2.439 1_565 S
O69 C63 1.208 1_565 S
O70 Cd71 2.223 . S
O70 C78 1.315 . S
Cd71 O70 2.223 . S
Cd71 O74 2.297 . S
Cd71 O75 2.439 . S
Cd71 O81 2.240 . S
Cd72 O73 2.240 . S
Cd72 O80 2.223 . S
Cd72 O82 2.297 . S
Cd72 O83 2.439 . S
O73 Cd72 2.240 . S
O73 C78 1.279 . S
O74 Cd71 2.297 . S
O74 C76 1.247 . S
O75 Cd71 2.439 . S
O75 C76 1.208 . S
C76 O74 1.247 . S
C76 O75 1.208 . S
C77 O82 1.247 . S
C77 O83 1.208 . S
C78 O70 1.315 . S
C78 O73 1.279 . S
C79 O80 1.315 . S
C79 O81 1.279 . S
O80 Cd72 2.223 . S
O80 C79 1.315 . S
O81 Cd71 2.240 . S
O81 C79 1.279 . S
O82 Cd72 2.297 . S
O82 C77 1.247 . S
O83 Cd72 2.439 . S
O83 C77 1.208 . S
O84 Cd85 2.223 . S
O84 C92 1.315 . S
Cd85 O84 2.223 . S
Cd85 O88 2.297 . S
Cd85 O89 2.439 . S
Cd85 O95 2.240 . S
Cd86 O87 2.240 . S
Cd86 O94 2.223 . S
Cd86 O96 2.297 . S
Cd86 O97 2.439 . S
O87 Cd86 2.240 . S
O87 C92 1.279 . S
O88 Cd85 2.297 . S
O88 C90 1.247 . S
O89 Cd85 2.439 . S
O89 C90 1.208 . S
C90 O88 1.247 . S
C90 O89 1.208 . S
C91 O96 1.247 . S
C91 O97 1.208 . S
C92 O84 1.315 . S
C92 O87 1.279 . S
C93 O94 1.315 . S
C93 O95 1.279 . S
O94 Cd86 2.223 . S
O94 C93 1.315 . S
O95 Cd85 2.240 . S
O95 C93 1.279 . S
O96 Cd86 2.297 . S
O96 C91 1.247 . S
O97 Cd86 2.439 . S
O97 C91 1.208 . S
O98 Cd99 2.223 . S
O98 C106 1.315 . S
Cd99 O98 2.223 . S
Cd99 O102 2.297 . S
Cd99 O103 2.439 . S
Cd99 O109 2.240 . S
Cd100 O101 2.240 . S
Cd100 O108 2.223 . S
Cd100 O110 2.297 1_554 S
Cd100 O111 2.439 1_554 S
O101 Cd100 2.240 . S
O101 C106 1.279 . S
O102 Cd99 2.297 . S
O102 C104 1.247 . S
O103 Cd99 2.439 . S
O103 C104 1.208 . S
C104 O102 1.247 . S
C104 O103 1.208 . S
C105 O110 1.247 . S
C105 O111 1.208 . S
C106 O98 1.315 . S
C106 O101 1.279 . S
C107 O108 1.315 . S
C107 O109 1.279 . S
O108 Cd100 2.223 . S
O108 C107 1.315 . S
O109 Cd99 2.240 . S
O109 C107 1.279 . S
O110 Cd100 2.297 1_556 S
O110 C105 1.247 . S
O111 Cd100 2.439 1_556 S
O111 C105 1.208 . S
O112 Cd113 2.223 . S
O112 C120 1.315 . S
Cd113 O112 2.223 . S
Cd113 O116 2.297 . S
Cd113 O117 2.439 . S
Cd113 O123 2.240 . S
Cd114 O115 2.240 . S
Cd114 O122 2.223 . S
Cd114 O124 2.297 . S
Cd114 O125 2.439 . S
O115 Cd114 2.240 . S
O115 C120 1.279 . S
O116 Cd113 2.297 . S
O116 C118 1.247 . S
O117 Cd113 2.439 . S
O117 C118 1.208 . S
C118 O116 1.247 . S
C118 O117 1.208 . S
C119 O124 1.247 1_556 S
C119 O125 1.208 1_556 S
C120 O112 1.315 . S
C120 O115 1.279 . S
C121 O122 1.315 . S
C121 O123 1.279 . S
O122 Cd114 2.223 . S
O122 C121 1.315 . S
O123 Cd113 2.240 . S
O123 C121 1.279 . S
O124 Cd114 2.297 . S
O124 C119 1.247 1_554 S
O125 Cd114 2.439 . S
O125 C119 1.208 1_554 S
O126 Cd127 2.223 . S
O126 C134 1.315 . S
Cd127 O126 2.223 . S
Cd127 O130 2.297 . S
Cd127 O131 2.439 . S
Cd127 O137 2.240 . S
Cd128 O129 2.240 . S
Cd128 O136 2.223 . S
Cd128 O138 2.297 . S
Cd128 O139 2.439 . S
O129 Cd128 2.240 . S
O129 C134 1.279 . S
O130 Cd127 2.297 . S
O130 C132 1.247 . S
O131 Cd127 2.439 . S
O131 C132 1.208 . S
C132 O130 1.247 . S
C132 O131 1.208 . S
C133 O138 1.247 . S
C133 O139 1.208 . S
C134 O126 1.315 . S
C134 O129 1.279 . S
C135 O136 1.315 . S
C135 O137 1.279 . S
O136 Cd128 2.223 . S
O136 C135 1.315 . S
O137 Cd127 2.240 . S
O137 C135 1.279 . S
O138 Cd128 2.297 . S
O138 C133 1.247 . S
O139 Cd128 2.439 . S
O139 C133 1.208 . S
O140 Cd141 2.223 . S
O140 C148 1.315 . S
Cd141 O140 2.223 . S
Cd141 O144 2.297 . S
Cd141 O145 2.439 . S
Cd141 O151 2.240 . S
Cd142 O143 2.240 . S
Cd142 O150 2.223 . S
Cd142 O152 2.297 . S
Cd142 O153 2.439 . S
O143 Cd142 2.240 . S
O143 C148 1.279 . S
O144 Cd141 2.297 . S
O144 C146 1.247 . S
O145 Cd141 2.439 . S
O145 C146 1.208 . S
C146 O144 1.247 . S
C146 O145 1.208 . S
C147 O152 1.247 . S
C147 O153 1.208 . S
C148 O140 1.315 . S
C148 O143 1.279 . S
C149 O150 1.315 . S
C149 O151 1.279 . S
O150 Cd142 2.223 . S
O150 C149 1.315 . S
O151 Cd141 2.240 . S
O151 C149 1.279 . S
O152 Cd142 2.297 . S
O152 C147 1.247 . S
O153 Cd142 2.439 . S
O153 C147 1.208 . S
O154 Cd155 2.223 . S
O154 C162 1.315 . S
Cd155 O154 2.223 . S
Cd155 O158 2.297 . S
Cd155 O159 2.439 . S
Cd155 O165 2.240 . S
Cd156 O157 2.240 . S
Cd156 O164 2.223 . S
Cd156 O166 2.297 . S
Cd156 O167 2.439 . S
O157 Cd156 2.240 . S
O157 C162 1.279 . S
O158 Cd155 2.297 . S
O158 C160 1.247 . S
O159 Cd155 2.439 . S
O159 C160 1.208 . S
C160 O158 1.247 . S
C160 O159 1.208 . S
C161 O166 1.247 . S
C161 O167 1.208 . S
C162 O154 1.315 . S
C162 O157 1.279 . S
C163 O164 1.315 . S
C163 O165 1.279 . S
O164 Cd156 2.223 . S
O164 C163 1.315 . S
O165 Cd155 2.240 . S
O165 C163 1.279 . S
O166 Cd156 2.297 . S
O166 C161 1.247 . S
O167 Cd156 2.439 . S
O167 C161 1.208 . S
O168 Cd169 2.223 . S
O168 C176 1.315 . S
Cd169 O168 2.223 . S
Cd169 O172 2.297 . S
Cd169 O173 2.439 . S
Cd169 O179 2.240 . S
Cd170 O171 2.240 . S
Cd170 O178 2.223 . S
Cd170 O180 2.297 1_455 S
Cd170 O181 2.439 1_455 S
O171 Cd170 2.240 . S
O171 C176 1.279 . S
O172 Cd169 2.297 . S
O172 C174 1.247 . S
O173 Cd169 2.439 . S
O173 C174 1.208 . S
C174 O172 1.247 . S
C174 O173 1.208 . S
C175 O180 1.247 . S
C175 O181 1.208 . S
C176 O168 1.315 . S
C176 O171 1.279 . S
C177 O178 1.315 . S
C177 O179 1.279 . S
O178 Cd170 2.223 . S
O178 C177 1.315 . S
O179 Cd169 2.240 . S
O179 C177 1.279 . S
O180 Cd170 2.297 1_655 S
O180 C175 1.247 . S
O181 Cd170 2.439 1_655 S
O181 C175 1.208 . S
O182 Cd183 2.223 1_455 S
O182 C190 1.315 . S
Cd183 O182 2.223 1_655 S
Cd183 O186 2.297 . S
Cd183 O187 2.439 . S
Cd183 O193 2.240 1_655 S
Cd184 O185 2.240 1_455 S
Cd184 O192 2.223 . S
Cd184 O194 2.297 . S
Cd184 O195 2.439 1_455 S
O185 Cd184 2.240 1_655 S
O185 C190 1.279 1_655 S
O186 Cd183 2.297 . S
O186 C188 1.247 . S
O187 Cd183 2.439 . S
O187 C188 1.208 . S
C188 O186 1.247 . S
C188 O187 1.208 . S
C189 O194 1.247 . S
C189 O195 1.208 1_455 S
C190 O182 1.315 . S
C190 O185 1.279 1_455 S
C191 O192 1.315 . S
C191 O193 1.279 . S
O192 Cd184 2.223 . S
O192 C191 1.315 . S
O193 Cd183 2.240 1_455 S
O193 C191 1.279 . S
O194 Cd184 2.297 . S
O194 C189 1.247 . S
O195 Cd184 2.439 1_655 S
O195 C189 1.208 1_655 S
O196 Cd197 2.223 . S
O196 C204 1.315 . S
Cd197 O196 2.223 . S
Cd197 O200 2.297 . S
Cd197 O201 2.439 . S
Cd197 O207 2.240 . S
Cd198 O199 2.240 . S
Cd198 O206 2.223 . S
Cd198 O208 2.297 . S
Cd198 O209 2.439 . S
O199 Cd198 2.240 . S
O199 C204 1.279 . S
O200 Cd197 2.297 . S
O200 C202 1.247 . S
O201 Cd197 2.439 . S
O201 C202 1.208 . S
C202 O200 1.247 . S
C202 O201 1.208 . S
C203 O208 1.247 . S
C203 O209 1.208 . S
C204 O196 1.315 . S
C204 O199 1.279 . S
C205 O206 1.315 . S
C205 O207 1.279 . S
O206 Cd198 2.223 . S
O206 C205 1.315 . S
O207 Cd197 2.240 . S
O207 C205 1.279 . S
O208 Cd198 2.297 . S
O208 C203 1.247 . S
O209 Cd198 2.439 . S
O209 C203 1.208 . S
O210 Cd211 2.223 . S
O210 C218 1.315 . S
Cd211 O210 2.223 . S
Cd211 O214 2.297 . S
Cd211 O215 2.439 . S
Cd211 O221 2.240 . S
Cd212 O213 2.240 . S
Cd212 O220 2.223 . S
Cd212 O222 2.297 . S
Cd212 O223 2.439 . S
O213 Cd212 2.240 . S
O213 C218 1.279 . S
O214 Cd211 2.297 . S
O214 C216 1.247 . S
O215 Cd211 2.439 . S
O215 C216 1.208 . S
C216 O214 1.247 . S
C216 O215 1.208 . S
C217 O222 1.247 . S
C217 O223 1.208 . S
C218 O210 1.315 . S
C218 O213 1.279 . S
C219 O220 1.315 . S
C219 O221 1.279 . S
O220 Cd212 2.223 . S
O220 C219 1.315 . S
O221 Cd211 2.240 . S
O221 C219 1.279 . S
O222 Cd212 2.297 . S
O222 C217 1.247 . S
O223 Cd212 2.439 . S
O223 C217 1.208 . S
O224 Cd225 2.223 . S
O224 C232 1.315 . S
Cd225 O224 2.223 . S
Cd225 O228 2.297 . S
Cd225 O229 2.439 . S
Cd225 O235 2.240 . S
Cd226 O227 2.240 . S
Cd226 O234 2.223 . S
Cd226 O236 2.297 . S
Cd226 O237 2.439 . S
O227 Cd226 2.240 . S
O227 C232 1.279 . S
O228 Cd225 2.297 . S
O228 C230 1.247 . S
O229 Cd225 2.439 . S
O229 C230 1.208 . S
C230 O228 1.247 . S
C230 O229 1.208 . S
C231 O236 1.247 . S
C231 O237 1.208 . S
C232 O224 1.315 . S
C232 O227 1.279 . S
C233 O234 1.315 . S
C233 O235 1.279 . S
O234 Cd226 2.223 . S
O234 C233 1.315 . S
O235 Cd225 2.240 . S
O235 C233 1.279 . S
O236 Cd226 2.297 . S
O236 C231 1.247 . S
O237 Cd226 2.439 . S
O237 C231 1.208 . S
O238 Cd239 2.223 . S
O238 C246 1.315 . S
Cd239 O238 2.223 . S
Cd239 O242 2.297 . S
Cd239 O243 2.439 . S
Cd239 O249 2.240 . S
Cd240 O241 2.240 . S
Cd240 O248 2.223 . S
Cd240 O250 2.297 . S
Cd240 O251 2.439 . S
O241 Cd240 2.240 . S
O241 C246 1.279 . S
O242 Cd239 2.297 . S
O242 C244 1.247 . S
O243 Cd239 2.439 . S
O243 C244 1.208 . S
C244 O242 1.247 . S
C244 O243 1.208 . S
C245 O250 1.247 . S
C245 O251 1.208 . S
C246 O238 1.315 . S
C246 O241 1.279 . S
C247 O248 1.315 . S
C247 O249 1.279 . S
O248 Cd240 2.223 . S
O248 C247 1.315 . S
O249 Cd239 2.240 . S
O249 C247 1.279 . S
O250 Cd240 2.297 . S
O250 C245 1.247 . S
O251 Cd240 2.439 . S
O251 C245 1.208 . S
O252 Cd253 2.223 1_545 S
O252 C260 1.315 . S
Cd253 O252 2.223 1_565 S
Cd253 O256 2.297 . S
Cd253 O257 2.439 . S
Cd253 O263 2.240 1_565 S
Cd254 O255 2.240 1_545 S
Cd254 O262 2.223 . S
Cd254 O264 2.297 . S
Cd254 O265 2.437 1_545 S
O255 Cd254 2.240 1_565 S
O255 C260 1.279 1_565 S
O256 Cd253 2.297 . S
O256 C258 1.247 . S
O257 Cd253 2.439 . S
O257 C258 1.208 . S
C258 O256 1.247 . S
C258 O257 1.208 . S
C259 O264 1.247 . S
C259 O265 1.206 1_545 S
C260 O252 1.315 . S
C260 O255 1.279 1_545 S
C261 O262 1.315 . S
C261 O263 1.279 . S
O262 Cd254 2.223 . S
O262 C261 1.315 . S
O263 Cd253 2.240 1_545 S
O263 C261 1.279 . S
O264 Cd254 2.297 . S
O264 C259 1.247 . S
O265 Cd254 2.437 1_565 S
O265 C259 1.206 1_565 S
O266 Cd267 2.223 . S
O266 C274 1.315 . S
Cd267 O266 2.223 . S
Cd267 O270 2.297 . S
Cd267 O271 2.439 . S
Cd267 O277 2.240 . S
Cd268 O269 2.240 . S
Cd268 O276 2.223 . S
Cd268 O278 2.297 1_554 S
Cd268 O279 2.439 1_554 S
O269 Cd268 2.240 . S
O269 C274 1.279 . S
O270 Cd267 2.297 . S
O270 C272 1.247 . S
O271 Cd267 2.439 . S
O271 C272 1.208 . S
C272 O270 1.247 . S
C272 O271 1.208 . S
C273 O278 1.247 . S
C273 O279 1.208 . S
C274 O266 1.315 . S
C274 O269 1.279 . S
C275 O276 1.315 . S
C275 O277 1.279 . S
O276 Cd268 2.223 . S
O276 C275 1.315 . S
O277 Cd267 2.240 . S
O277 C275 1.279 . S
O278 Cd268 2.297 1_556 S
O278 C273 1.247 . S
O279 Cd268 2.439 1_556 S
O279 C273 1.208 . S
O280 Cd281 2.223 . S
O280 C288 1.315 . S
Cd281 O280 2.223 . S
Cd281 O284 2.297 . S
Cd281 O285 2.439 1_554 S
Cd281 O291 2.240 1_554 S
Cd282 O283 2.240 1_556 S
Cd282 O290 2.223 1_556 S
Cd282 O292 2.297 . S
Cd282 O293 2.439 . S
O283 Cd282 2.240 1_554 S
O283 C288 1.279 . S
O284 Cd281 2.297 . S
O284 C286 1.247 . S
O285 Cd281 2.439 1_556 S
O285 C286 1.208 1_556 S
C286 O284 1.247 . S
C286 O285 1.208 1_554 S
C287 O292 1.247 . S
C287 O293 1.208 . S
C288 O280 1.315 . S
C288 O283 1.279 . S
C289 O290 1.315 . S
C289 O291 1.279 1_554 S
O290 Cd282 2.223 1_554 S
O290 C289 1.315 . S
O291 Cd281 2.240 1_556 S
O291 C289 1.279 1_556 S
O292 Cd282 2.297 . S
O292 C287 1.247 . S
O293 Cd282 2.439 . S
O293 C287 1.208 . S
O294 Cd295 2.223 . S
O294 C302 1.315 . S
Cd295 O294 2.223 . S
Cd295 O298 2.297 . S
Cd295 O299 2.439 . S
Cd295 O305 2.240 . S
Cd296 O297 2.240 . S
Cd296 O304 2.223 . S
Cd296 O306 2.297 . S
Cd296 O307 2.439 . S
O297 Cd296 2.240 . S
O297 C302 1.279 . S
O298 Cd295 2.297 . S
O298 C300 1.247 . S
O299 Cd295 2.439 . S
O299 C300 1.208 . S
C300 O298 1.247 . S
C300 O299 1.208 . S
C301 O306 1.247 . S
C301 O307 1.208 . S
C302 O294 1.315 . S
C302 O297 1.279 . S
C303 O304 1.315 . S
C303 O305 1.279 . S
O304 Cd296 2.223 . S
O304 C303 1.315 . S
O305 Cd295 2.240 . S
O305 C303 1.279 . S
O306 Cd296 2.297 . S
O306 C301 1.247 . S
O307 Cd296 2.439 . S
O307 C301 1.208 . S
O308 Cd309 2.223 . S
O308 C316 1.315 . S
Cd309 O308 2.223 . S
Cd309 O312 2.297 . S
Cd309 O313 2.439 . S
Cd309 O319 2.240 . S
Cd310 O311 2.240 . S
Cd310 O318 2.223 . S
Cd310 O320 2.297 . S
Cd310 O321 2.439 . S
O311 Cd310 2.240 . S
O311 C316 1.279 . S
O312 Cd309 2.297 . S
O312 C314 1.247 . S
O313 Cd309 2.439 . S
O313 C314 1.208 . S
C314 O312 1.247 . S
C314 O313 1.208 . S
C315 O320 1.247 . S
C315 O321 1.208 . S
C316 O308 1.315 . S
C316 O311 1.279 . S
C317 O318 1.315 . S
C317 O319 1.279 . S
O318 Cd310 2.223 . S
O318 C317 1.315 . S
O319 Cd309 2.240 . S
O319 C317 1.279 . S
O320 Cd310 2.297 . S
O320 C315 1.247 . S
O321 Cd310 2.439 . S
O321 C315 1.208 . S
O322 Cd323 2.223 . S
O322 C330 1.315 . S
Cd323 O322 2.223 . S
Cd323 O326 2.297 . S
Cd323 O327 2.439 . S
Cd323 O333 2.240 . S
Cd324 O325 2.240 . S
Cd324 O332 2.223 . S
Cd324 O334 2.297 . S
Cd324 O335 2.439 . S
O325 Cd324 2.240 . S
O325 C330 1.279 . S
O326 Cd323 2.297 . S
O326 C328 1.247 . S
O327 Cd323 2.439 . S
O327 C328 1.208 . S
C328 O326 1.247 . S
C328 O327 1.208 . S
C329 O334 1.247 . S
C329 O335 1.208 . S
C330 O322 1.315 . S
C330 O325 1.279 . S
C331 O332 1.315 . S
C331 O333 1.279 . S
O332 Cd324 2.223 . S
O332 C331 1.315 . S
O333 Cd323 2.240 . S
O333 C331 1.279 . S
O334 Cd324 2.297 . S
O334 C329 1.247 . S
O335 Cd324 2.439 . S
O335 C329 1.208 . S
Co336 N341 2.057 1_554 S
Co336 O353 2.021 1_544 S
Co336 O356 2.062 1_455 S
Co336 O360 2.117 . S
Co336 O361 2.020 . S
C337 O357 1.259 . S
C337 O360 1.258 . S
Co338 N347 2.057 1_545 S
Co338 O354 2.117 1_545 S
Co338 O355 2.020 . S
Co338 O357 2.021 . S
Co338 O362 2.062 . S
C339 N341 1.316 . S
C339 N342 1.347 . S
C339 H344 0.931 . S
C340 N341 1.375 . S
C340 C343 1.350 . S
C340 H345 0.930 . S
N341 Co336 2.057 1_556 S
N341 C339 1.316 . S
N341 C340 1.375 . S
N342 C339 1.347 . S
N342 C343 1.373 . S
C343 C340 1.350 . S
C343 N342 1.373 . S
C343 H364 0.931 1_455 S
H344 C339 0.931 . S
H345 C340 0.930 . S
C346 O353 1.259 1_554 S
C346 O354 1.258 . S
N347 Co338 2.057 1_565 S
N347 C348 1.316 1_565 S
N347 C349 1.375 . S
C348 N347 1.316 1_545 S
C348 N350 1.347 1_545 S
C348 H359 0.931 . S
C349 N347 1.375 . S
C349 C351 1.350 . S
C349 H358 0.930 . S
N350 C348 1.347 1_565 S
N350 C351 1.373 . S
C351 C349 1.350 . S
C351 N350 1.373 . S
C351 H365 0.931 . S
C352 O355 1.256 1_655 S
C352 O356 1.255 . S
O353 Co336 2.021 1_566 S
O353 C346 1.259 1_556 S
O354 Co338 2.117 1_565 S
O354 C346 1.258 . S
O355 Co338 2.020 . S
O355 C352 1.256 1_455 S
O356 Co336 2.062 1_655 S
O356 C352 1.255 . S
O357 C337 1.259 . S
O357 Co338 2.021 . S
H358 C349 0.930 . S
H359 C348 0.931 . S
O360 Co336 2.117 . S
O360 C337 1.258 . S
O361 Co336 2.020 . S
O361 C363 1.256 . S
O362 Co338 2.062 . S
O362 C363 1.255 . S
C363 O361 1.256 . S
C363 O362 1.255 . S
H364 C343 0.931 1_655 S
H365 C351 0.931 . S
Co366 N371 2.057 . S
Co366 O383 2.021 . S
Co366 O386 2.062 . S
Co366 O390 2.117 . S
Co366 O391 2.020 . S
C367 O387 1.259 . S
C367 O390 1.258 . S
Co368 N377 2.057 . S
Co368 O384 2.117 . S
Co368 O385 2.020 . S
Co368 O387 2.021 . S
Co368 O392 2.062 . S
C369 N371 1.316 . S
C369 N372 1.347 . S
C369 H374 0.931 . S
C370 N371 1.375 . S
C370 C373 1.350 . S
C370 H375 0.930 . S
N371 Co366 2.057 . S
N371 C369 1.316 . S
N371 C370 1.375 . S
N372 C369 1.347 . S
N372 C373 1.373 . S
C373 C370 1.350 . S
C373 N372 1.373 . S
C373 H394 0.931 . S
H374 C369 0.931 . S
H375 C370 0.930 . S
C376 O383 1.259 . S
C376 O384 1.258 . S
N377 Co368 2.057 . S
N377 C378 1.316 . S
N377 C379 1.375 . S
C378 N377 1.316 . S
C378 N380 1.347 . S
C378 H389 0.931 . S
C379 N377 1.375 . S
C379 C381 1.350 . S
C379 H388 0.930 . S
N380 C378 1.347 . S
N380 C381 1.373 . S
C381 C379 1.350 . S
C381 N380 1.373 . S
C381 H395 0.931 . S
C382 O385 1.256 . S
C382 O386 1.255 . S
O383 Co366 2.021 . S
O383 C376 1.259 . S
O384 Co368 2.117 . S
O384 C376 1.258 . S
O385 Co368 2.020 . S
O385 C382 1.256 . S
O386 Co366 2.062 . S
O386 C382 1.255 . S
O387 C367 1.259 . S
O387 Co368 2.021 . S
H388 C379 0.930 . S
H389 C378 0.931 . S
O390 Co366 2.117 . S
O390 C367 1.258 . S
O391 Co366 2.020 . S
O391 C393 1.256 . S
O392 Co368 2.062 . S
O392 C393 1.255 . S
C393 O391 1.256 . S
C393 O392 1.255 . S
H394 C373 0.931 . S
H395 C381 0.931 . S
Co396 N401 2.057 . S
Co396 O413 2.021 1_545 S
Co396 O416 2.062 . S
Co396 O420 2.117 . S
Co396 O421 2.020 . S
C397 O417 1.259 . S
C397 O420 1.258 . S
Co398 N407 2.057 . S
Co398 O414 2.117 . S
Co398 O415 2.020 . S
Co398 O417 2.021 . S
Co398 O422 2.062 . S
C399 N401 1.295 1_565 S
C399 N402 1.342 1_565 S
C399 H404 0.955 . S
C400 N401 1.375 . S
C400 C403 1.350 . S
C400 H405 0.930 . S
N401 Co396 2.057 . S
N401 C399 1.295 1_545 S
N401 C400 1.375 . S
N402 C399 1.342 1_545 S
N402 C403 1.373 . S
C403 C400 1.350 . S
C403 N402 1.373 . S
C403 H424 0.931 . S
H404 C399 0.955 . S
H405 C400 0.930 . S
C406 O413 1.259 . S
C406 O414 1.258 1_565 S
N407 Co398 2.057 . S
N407 C408 1.316 . S
N407 C409 1.375 . S
C408 N407 1.316 . S
C408 N410 1.347 . S
C408 H419 0.931 . S
C409 N407 1.375 . S
C409 C411 1.350 . S
C409 H418 0.930 . S
N410 C408 1.347 . S
N410 C411 1.373 . S
C411 C409 1.350 . S
C411 N410 1.373 . S
C411 H425 0.931 . S
C412 O415 1.256 . S
C412 O416 1.255 . S
O413 Co396 2.021 1_565 S
O413 C406 1.259 . S
O414 Co398 2.117 . S
O414 C406 1.258 1_545 S
O415 Co398 2.020 . S
O415 C412 1.256 . S
O416 Co396 2.062 . S
O416 C412 1.255 . S
O417 C397 1.259 . S
O417 Co398 2.021 . S
H418 C409 0.930 . S
H419 C408 0.931 . S
O420 Co396 2.117 . S
O420 C397 1.258 . S
O421 Co396 2.020 . S
O421 C423 1.256 . S
O422 Co398 2.062 . S
O422 C423 1.255 . S
C423 O421 1.256 . S
C423 O422 1.255 . S
H424 C403 0.931 . S
H425 C411 0.931 . S
Co426 N431 2.057 . S
Co426 O443 2.021 . S
Co426 O446 2.062 . S
Co426 O450 2.117 . S
Co426 O451 2.020 . S
C427 O447 1.259 . S
C427 O450 1.258 . S
Co428 N437 2.057 . S
Co428 O444 2.117 . S
Co428 O445 2.020 . S
Co428 O447 2.021 . S
Co428 O452 2.062 . S
C429 N431 1.316 . S
C429 N432 1.347 . S
C429 H434 0.931 . S
C430 N431 1.375 . S
C430 C433 1.350 . S
C430 H435 0.930 . S
N431 Co426 2.057 . S
N431 C429 1.316 . S
N431 C430 1.375 . S
N432 C429 1.347 . S
N432 C433 1.373 . S
C433 C430 1.350 . S
C433 N432 1.373 . S
C433 H454 0.931 . S
H434 C429 0.931 . S
H435 C430 0.930 . S
C436 O443 1.259 . S
C436 O444 1.258 . S
N437 Co428 2.057 . S
N437 C438 1.316 . S
N437 C439 1.375 . S
C438 N437 1.316 . S
C438 N440 1.347 . S
C438 H449 0.931 . S
C439 N437 1.375 . S
C439 C441 1.350 . S
C439 H448 0.930 . S
N440 C438 1.347 . S
N440 C441 1.373 . S
C441 C439 1.350 . S
C441 N440 1.373 . S
C441 H455 0.931 . S
C442 O445 1.256 . S
C442 O446 1.255 . S
O443 Co426 2.021 . S
O443 C436 1.259 . S
O444 Co428 2.117 . S
O444 C436 1.258 . S
O445 Co428 2.020 . S
O445 C442 1.256 . S
O446 Co426 2.062 . S
O446 C442 1.255 . S
O447 C427 1.259 . S
O447 Co428 2.021 . S
H448 C439 0.930 . S
H449 C438 0.931 . S
O450 Co426 2.117 . S
O450 C427 1.258 . S
O451 Co426 2.020 . S
O451 C453 1.256 . S
O452 Co428 2.062 . S
O452 C453 1.255 . S
C453 O451 1.256 . S
C453 O452 1.255 . S
H454 C433 0.931 . S
H455 C441 0.931 . S
Co456 N461 2.057 1_545 S
Co456 O473 2.021 . S
Co456 O476 2.062 1_545 S
Co456 O480 2.117 . S
Co456 O481 2.020 1_455 S
C457 O477 1.259 . S
C457 O480 1.258 . S
Co458 N467 2.057 . S
Co458 O474 2.117 . S
Co458 O475 2.020 . S
Co458 O477 2.021 . S
Co458 O482 2.062 1_455 S
C459 N461 1.316 . S
C459 N462 1.347 . S
C459 H464 0.931 . S
C460 N461 1.375 1_655 S
C460 C463 1.350 . S
C460 H465 0.930 . S
N461 Co456 2.057 1_565 S
N461 C459 1.316 . S
N461 C460 1.375 1_455 S
N462 C459 1.347 . S
N462 C463 1.373 1_455 S
C463 C460 1.350 . S
C463 N462 1.373 1_655 S
C463 H484 0.931 . S
H464 C459 0.931 . S
H465 C460 0.930 . S
C466 O473 1.259 . S
C466 O474 1.258 . S
N467 Co458 2.057 . S
N467 C468 1.316 . S
N467 C469 1.375 . S
C468 N467 1.316 . S
C468 N470 1.347 . S
C468 H479 0.931 . S
C469 N467 1.375 . S
C469 C471 1.350 . S
C469 H478 0.930 . S
N470 C468 1.347 . S
N470 C471 1.373 . S
C471 C469 1.350 . S
C471 N470 1.373 . S
C471 H485 0.931 . S
C472 O475 1.256 . S
C472 O476 1.255 1_545 S
O473 Co456 2.021 . S
O473 C466 1.259 . S
O474 Co458 2.117 . S
O474 C466 1.258 . S
O475 Co458 2.020 . S
O475 C472 1.256 . S
O476 Co456 2.062 1_565 S
O476 C472 1.255 1_565 S
O477 C457 1.259 . S
O477 Co458 2.021 . S
H478 C469 0.930 . S
H479 C468 0.931 . S
O480 Co456 2.117 . S
O480 C457 1.258 . S
O481 Co456 2.020 1_655 S
O481 C483 1.256 . S
O482 Co458 2.062 1_655 S
O482 C483 1.255 . S
C483 O481 1.256 . S
C483 O482 1.255 . S
H484 C463 0.931 . S
H485 C471 0.931 . S
Co486 N491 2.057 . S
Co486 O503 2.021 . S
Co486 O506 2.062 . S
Co486 O510 2.117 . S
Co486 O511 2.020 . S
C487 O507 1.259 . S
C487 O510 1.258 . S
Co488 N497 2.057 . S
Co488 O504 2.117 . S
Co488 O505 2.020 . S
Co488 O507 2.021 . S
Co488 O512 2.062 . S
C489 N491 1.316 . S
C489 N492 1.347 . S
C489 H494 0.931 . S
C490 N491 1.375 . S
C490 C493 1.350 . S
C490 H495 0.930 . S
N491 Co486 2.057 . S
N491 C489 1.316 . S
N491 C490 1.375 . S
N492 C489 1.347 . S
N492 C493 1.373 . S
C493 C490 1.350 . S
C493 N492 1.373 . S
C493 H514 0.931 . S
H494 C489 0.931 . S
H495 C490 0.930 . S
C496 O503 1.259 . S
C496 O504 1.258 . S
N497 Co488 2.057 . S
N497 C498 1.316 . S
N497 C499 1.375 . S
C498 N497 1.316 . S
C498 N500 1.347 . S
C498 H509 0.931 . S
C499 N497 1.375 . S
C499 C501 1.350 . S
C499 H508 0.930 . S
N500 C498 1.347 . S
N500 C501 1.373 . S
C501 C499 1.350 . S
C501 N500 1.373 . S
C501 H515 0.931 . S
C502 O505 1.256 . S
C502 O506 1.255 . S
O503 Co486 2.021 . S
O503 C496 1.259 . S
O504 Co488 2.117 . S
O504 C496 1.258 . S
O505 Co488 2.020 . S
O505 C502 1.256 . S
O506 Co486 2.062 . S
O506 C502 1.255 . S
O507 C487 1.259 . S
O507 Co488 2.021 . S
H508 C499 0.930 . S
H509 C498 0.931 . S
O510 Co486 2.117 . S
O510 C487 1.258 . S
O511 Co486 2.020 . S
O511 C513 1.256 . S
O512 Co488 2.062 . S
O512 C513 1.255 . S
C513 O511 1.256 . S
C513 O512 1.255 . S
H514 C493 0.931 . S
H515 C501 0.931 . S
Co516 N521 2.057 1_554 S
Co516 O533 2.021 . S
Co516 O536 2.061 . S
Co516 O540 2.117 . S
Co516 O541 2.020 1_545 S
C517 O537 1.259 . S
C517 O540 1.258 . S
Co518 N527 2.057 . S
Co518 O534 2.117 . S
Co518 O535 2.020 . S
Co518 O537 2.021 . S
Co518 O542 2.062 . S
C519 N521 1.316 . S
C519 N522 1.347 . S
C519 H524 0.931 . S
C520 N521 1.375 . S
C520 C523 1.350 . S
C520 H525 0.930 1_545 S
N521 Co516 2.057 1_556 S
N521 C519 1.316 . S
N521 C520 1.375 . S
N522 C519 1.347 . S
N522 C523 1.373 . S
C523 C520 1.350 . S
C523 N522 1.373 . S
C523 H544 0.931 1_545 S
H524 C519 0.931 . S
H525 C520 0.930 1_565 S
C526 O533 1.259 . S
C526 O534 1.258 . S
N527 Co518 2.057 . S
N527 C528 1.316 . S
N527 C529 1.375 . S
C528 N527 1.316 . S
C528 N530 1.347 . S
C528 H539 0.931 . S
C529 N527 1.375 . S
C529 C531 1.350 . S
C529 H538 0.930 . S
N530 C528 1.347 . S
N530 C531 1.373 . S
C531 C529 1.350 . S
C531 N530 1.373 . S
C531 H545 0.931 . S
C532 O535 1.256 . S
C532 O536 1.254 . S
O533 Co516 2.021 . S
O533 C526 1.259 . S
O534 Co518 2.117 . S
O534 C526 1.258 . S
O535 Co518 2.020 . S
O535 C532 1.256 . S
O536 Co516 2.061 . S
O536 C532 1.254 . S
O537 C517 1.259 . S
O537 Co518 2.021 . S
H538 C529 0.930 . S
H539 C528 0.931 . S
O540 Co516 2.117 . S
O540 C517 1.258 . S
O541 Co516 2.020 1_565 S
O541 C543 1.256 . S
O542 Co518 2.062 . S
O542 C543 1.255 1_545 S
C543 O541 1.256 . S
C543 O542 1.255 1_565 S
H544 C523 0.931 1_565 S
H545 C531 0.931 . S
Co546 N551 2.057 . S
Co546 O563 2.021 . S
Co546 O566 2.062 . S
Co546 O570 2.117 . S
Co546 O571 2.020 . S
C547 O567 1.259 . S
C547 O570 1.258 . S
Co548 N557 2.057 . S
Co548 O564 2.117 . S
Co548 O565 2.020 . S
Co548 O567 2.021 . S
Co548 O572 2.062 . S
C549 N551 1.316 . S
C549 N552 1.347 . S
C549 H554 0.931 . S
C550 N551 1.375 . S
C550 C553 1.350 . S
C550 H555 0.930 . S
N551 Co546 2.057 . S
N551 C549 1.316 . S
N551 C550 1.375 . S
N552 C549 1.347 . S
N552 C553 1.373 . S
C553 C550 1.350 . S
C553 N552 1.373 . S
C553 H574 0.931 . S
H554 C549 0.931 . S
H555 C550 0.930 . S
C556 O563 1.259 . S
C556 O564 1.258 . S
N557 Co548 2.057 . S
N557 C558 1.316 . S
N557 C559 1.375 . S
C558 N557 1.316 . S
C558 N560 1.347 . S
C558 H569 0.931 . S
C559 N557 1.375 . S
C559 C561 1.350 . S
C559 H568 0.930 . S
N560 C558 1.347 . S
N560 C561 1.373 . S
C561 C559 1.350 . S
C561 N560 1.373 . S
C561 H575 0.931 . S
C562 O565 1.256 . S
C562 O566 1.255 . S
O563 Co546 2.021 . S
O563 C556 1.259 . S
O564 Co548 2.117 . S
O564 C556 1.258 . S
O565 Co548 2.020 . S
O565 C562 1.256 . S
O566 Co546 2.062 . S
O566 C562 1.255 . S
O567 C547 1.259 . S
O567 Co548 2.021 . S
H568 C559 0.930 . S
H569 C558 0.931 . S
O570 Co546 2.117 . S
O570 C547 1.258 . S
O571 Co546 2.020 . S
O571 C573 1.256 . S
O572 Co548 2.062 . S
O572 C573 1.255 . S
C573 O571 1.256 . S
C573 O572 1.255 . S
H574 C553 0.931 . S
H575 C561 0.931 . S
Co576 N581 2.057 . S
Co576 O593 2.021 1_554 S
Co576 O596 2.062 . S
Co576 O600 2.117 . S
Co576 O601 2.020 . S
C577 O597 1.259 . S
C577 O600 1.258 . S
Co578 N587 2.057 . S
Co578 O594 2.117 . S
Co578 O595 2.020 . S
Co578 O597 2.021 . S
Co578 O602 2.062 . S
C579 N581 1.316 . S
C579 N582 1.347 . S
C579 H584 0.931 1_554 S
C580 N581 1.375 . S
C580 C583 1.350 . S
C580 H585 0.930 . S
N581 Co576 2.057 . S
N581 C579 1.316 . S
N581 C580 1.375 . S
N582 C579 1.347 . S
N582 C583 1.373 . S
C583 C580 1.350 . S
C583 N582 1.373 . S
C583 H604 0.931 . S
H584 C579 0.931 1_556 S
H585 C580 0.930 . S
C586 O593 1.259 . S
C586 O594 1.258 1_556 S
N587 Co578 2.057 . S
N587 C588 1.316 . S
N587 C589 1.375 . S
C588 N587 1.316 . S
C588 N590 1.347 . S
C588 H599 0.931 . S
C589 N587 1.375 . S
C589 C591 1.350 . S
C589 H598 0.930 . S
N590 C588 1.347 . S
N590 C591 1.373 . S
C591 C589 1.350 . S
C591 N590 1.373 . S
C591 H605 0.931 . S
C592 O595 1.256 . S
C592 O596 1.255 . S
O593 Co576 2.021 1_556 S
O593 C586 1.259 . S
O594 Co578 2.117 . S
O594 C586 1.258 1_554 S
O595 Co578 2.020 . S
O595 C592 1.256 . S
O596 Co576 2.062 . S
O596 C592 1.255 . S
O597 C577 1.259 . S
O597 Co578 2.021 . S
H598 C589 0.930 . S
H599 C588 0.931 . S
O600 Co576 2.117 . S
O600 C577 1.258 . S
O601 Co576 2.020 . S
O601 C603 1.256 . S
O602 Co578 2.062 . S
O602 C603 1.255 . S
C603 O601 1.256 . S
C603 O602 1.255 . S
H604 C583 0.931 . S
H605 C591 0.931 . S
Co606 N611 2.057 . S
Co606 O623 2.021 . S
Co606 O626 2.062 . S
Co606 O630 2.117 . S
Co606 O631 2.020 . S
C607 O627 1.259 . S
C607 O630 1.258 . S
Co608 N617 2.057 . S
Co608 O624 2.117 . S
Co608 O625 2.020 . S
Co608 O627 2.021 . S
Co608 O632 2.062 . S
C609 N611 1.316 . S
C609 N612 1.347 . S
C609 H614 0.931 . S
C610 N611 1.375 . S
C610 C613 1.350 . S
C610 H615 0.930 . S
N611 Co606 2.057 . S
N611 C609 1.316 . S
N611 C610 1.375 . S
N612 C609 1.347 . S
N612 C613 1.373 . S
C613 C610 1.350 . S
C613 N612 1.373 . S
C613 H634 0.931 . S
H614 C609 0.931 . S
H615 C610 0.930 . S
C616 O623 1.259 . S
C616 O624 1.258 . S
N617 Co608 2.057 . S
N617 C618 1.316 . S
N617 C619 1.375 . S
C618 N617 1.316 . S
C618 N620 1.347 . S
C618 H629 0.931 . S
C619 N617 1.375 . S
C619 C621 1.350 . S
C619 H628 0.930 . S
N620 C618 1.347 . S
N620 C621 1.373 . S
C621 C619 1.350 . S
C621 N620 1.373 . S
C621 H635 0.931 . S
C622 O625 1.256 . S
C622 O626 1.255 . S
O623 Co606 2.021 . S
O623 C616 1.259 . S
O624 Co608 2.117 . S
O624 C616 1.258 . S
O625 Co608 2.020 . S
O625 C622 1.256 . S
O626 Co606 2.062 . S
O626 C622 1.255 . S
O627 C607 1.259 . S
O627 Co608 2.021 . S
H628 C619 0.930 . S
H629 C618 0.931 . S
O630 Co606 2.117 . S
O630 C607 1.258 . S
O631 Co606 2.020 . S
O631 C633 1.256 . S
O632 Co608 2.062 . S
O632 C633 1.255 . S
C633 O631 1.256 . S
C633 O632 1.255 . S
H634 C613 0.931 . S
H635 C621 0.931 . S
Co636 N641 2.057 . S
Co636 O653 2.021 1_455 S
Co636 O656 2.062 . S
Co636 O660 2.117 . S
Co636 O661 2.020 . S
C637 O657 1.259 . S
C637 O660 1.258 . S
Co638 N647 2.057 . S
Co638 O654 2.117 . S
Co638 O655 2.020 . S
Co638 O657 2.021 . S
Co638 O662 2.062 . S
C639 N641 1.316 . S
C639 N642 1.347 . S
C639 H644 0.931 1_455 S
C640 N641 1.375 . S
C640 C643 1.350 . S
C640 H645 0.930 . S
N641 Co636 2.057 . S
N641 C639 1.316 . S
N641 C640 1.375 . S
N642 C639 1.347 . S
N642 C643 1.373 . S
C643 C640 1.350 . S
C643 N642 1.373 . S
C643 H664 0.931 . S
H644 C639 0.931 1_655 S
H645 C640 0.930 . S
C646 O653 1.259 . S
C646 O654 1.258 1_655 S
N647 Co638 2.057 . S
N647 C648 1.316 . S
N647 C649 1.375 . S
C648 N647 1.316 . S
C648 N650 1.347 . S
C648 H659 0.931 . S
C649 N647 1.375 . S
C649 C651 1.350 . S
C649 H658 0.930 . S
N650 C648 1.347 . S
N650 C651 1.373 . S
C651 C649 1.350 . S
C651 N650 1.373 . S
C651 H665 0.931 . S
C652 O655 1.256 . S
C652 O656 1.255 . S
O653 Co636 2.021 1_655 S
O653 C646 1.259 . S
O654 Co638 2.117 . S
O654 C646 1.258 1_455 S
O655 Co638 2.020 . S
O655 C652 1.256 . S
O656 Co636 2.062 . S
O656 C652 1.255 . S
O657 C637 1.259 . S
O657 Co638 2.021 . S
H658 C649 0.930 . S
H659 C648 0.931 . S
O660 Co636 2.117 . S
O660 C637 1.258 . S
O661 Co636 2.020 . S
O661 C663 1.256 . S
O662 Co638 2.062 . S
O662 C663 1.255 . S
C663 O661 1.256 . S
C663 O662 1.255 . S
H664 C643 0.931 . S
H665 C651 0.931 . S
Co666 N671 2.057 . S
Co666 O683 2.021 . S
Co666 O686 2.062 . S
Co666 O690 2.117 . S
Co666 O691 2.020 . S
C667 O687 1.259 . S
C667 O690 1.258 . S
Co668 N677 2.057 . S
Co668 O684 2.117 . S
Co668 O685 2.020 . S
Co668 O687 2.021 . S
Co668 O692 2.062 . S
C669 N671 1.316 . S
C669 N672 1.347 . S
C669 H674 0.931 . S
C670 N671 1.375 . S
C670 C673 1.350 . S
C670 H675 0.930 . S
N671 Co666 2.057 . S
N671 C669 1.316 . S
N671 C670 1.375 . S
N672 C669 1.347 . S
N672 C673 1.373 . S
C673 C670 1.350 . S
C673 N672 1.373 . S
C673 H694 0.931 . S
H674 C669 0.931 . S
H675 C670 0.930 . S
C676 O683 1.259 . S
C676 O684 1.258 . S
N677 Co668 2.057 . S
N677 C678 1.316 . S
N677 C679 1.375 . S
C678 N677 1.316 . S
C678 N680 1.347 . S
C678 H689 0.931 . S
C679 N677 1.375 . S
C679 C681 1.350 . S
C679 H688 0.930 . S
N680 C678 1.347 . S
N680 C681 1.373 . S
C681 C679 1.350 . S
C681 N680 1.373 . S
C681 H695 0.931 . S
C682 O685 1.256 . S
C682 O686 1.255 . S
O683 Co666 2.021 . S
O683 C676 1.259 . S
O684 Co668 2.117 . S
O684 C676 1.258 . S
O685 Co668 2.020 . S
O685 C682 1.256 . S
O686 Co666 2.062 . S
O686 C682 1.255 . S
O687 C667 1.259 . S
O687 Co668 2.021 . S
H688 C679 0.930 . S
H689 C678 0.931 . S
O690 Co666 2.117 . S
O690 C667 1.258 . S
O691 Co666 2.020 . S
O691 C693 1.256 . S
O692 Co668 2.062 . S
O692 C693 1.255 . S
C693 O691 1.256 . S
C693 O692 1.255 . S
H694 C673 0.931 . S
H695 C681 0.931 . S
Co696 N701 2.057 . S
Co696 O713 2.021 . S
Co696 O716 2.062 . S
Co696 O720 2.117 . S
Co696 O721 2.020 . S
C697 O717 1.259 . S
C697 O720 1.258 . S
Co698 N707 2.057 . S
Co698 O714 2.117 . S
Co698 O715 2.020 . S
Co698 O717 2.021 . S
Co698 O722 2.062 . S
C699 N701 1.316 . S
C699 N702 1.347 . S
C699 H704 0.931 . S
C700 N701 1.375 . S
C700 C703 1.350 . S
C700 H705 0.930 . S
N701 Co696 2.057 . S
N701 C699 1.316 . S
N701 C700 1.375 . S
N702 C699 1.347 . S
N702 C703 1.373 . S
C703 C700 1.350 . S
C703 N702 1.373 . S
C703 H724 0.931 . S
H704 C699 0.931 . S
H705 C700 0.930 . S
C706 O713 1.259 . S
C706 O714 1.258 . S
N707 Co698 2.057 . S
N707 C708 1.316 . S
N707 C709 1.375 . S
C708 N707 1.316 . S
C708 N710 1.347 . S
C708 H719 0.931 . S
C709 N707 1.375 . S
C709 C711 1.350 . S
C709 H718 0.930 . S
N710 C708 1.347 . S
N710 C711 1.373 . S
C711 C709 1.350 . S
C711 N710 1.373 . S
C711 H725 0.931 . S
C712 O715 1.256 . S
C712 O716 1.255 . S
O713 Co696 2.021 . S
O713 C706 1.259 . S
O714 Co698 2.117 . S
O714 C706 1.258 . S
O715 Co698 2.020 . S
O715 C712 1.256 . S
O716 Co696 2.062 . S
O716 C712 1.255 . S
O717 C697 1.259 . S
O717 Co698 2.021 . S
H718 C709 0.930 . S
H719 C708 0.931 . S
O720 Co696 2.117 . S
O720 C697 1.258 . S
O721 Co696 2.020 . S
O721 C723 1.256 . S
O722 Co698 2.062 . S
O722 C723 1.255 . S
C723 O721 1.256 . S
C723 O722 1.255 . S
H724 C703 0.931 . S
H725 C711 0.931 . S
Co726 N731 2.057 . S
Co726 O743 2.021 . S
Co726 O746 2.062 . S
Co726 O750 2.117 . S
Co726 O751 2.020 . S
C727 O747 1.259 . S
C727 O750 1.258 . S
Co728 N737 2.057 . S
Co728 O744 2.117 . S
Co728 O745 2.020 . S
Co728 O747 2.021 . S
Co728 O752 2.062 . S
C729 N731 1.316 . S
C729 N732 1.347 . S
C729 H734 0.931 . S
C730 N731 1.375 . S
C730 C733 1.350 . S
C730 H735 0.930 . S
N731 Co726 2.057 . S
N731 C729 1.316 . S
N731 C730 1.375 . S
N732 C729 1.347 . S
N732 C733 1.373 . S
C733 C730 1.350 . S
C733 N732 1.373 . S
C733 H754 0.931 . S
H734 C729 0.931 . S
H735 C730 0.930 . S
C736 O743 1.259 . S
C736 O744 1.258 . S
N737 Co728 2.057 . S
N737 C738 1.316 . S
N737 C739 1.375 . S
C738 N737 1.316 . S
C738 N740 1.347 . S
C738 H749 0.931 . S
C739 N737 1.375 . S
C739 C741 1.350 . S
C739 H748 0.930 . S
N740 C738 1.347 . S
N740 C741 1.373 . S
C741 C739 1.350 . S
C741 N740 1.373 . S
C741 H755 0.931 . S
C742 O745 1.256 . S
C742 O746 1.255 . S
O743 Co726 2.021 . S
O743 C736 1.259 . S
O744 Co728 2.117 . S
O744 C736 1.258 . S
O745 Co728 2.020 . S
O745 C742 1.256 . S
O746 Co726 2.062 . S
O746 C742 1.255 . S
O747 C727 1.259 . S
O747 Co728 2.021 . S
H748 C739 0.930 . S
H749 C738 0.931 . S
O750 Co726 2.117 . S
O750 C727 1.258 . S
O751 Co726 2.020 . S
O751 C753 1.256 . S
O752 Co728 2.062 . S
O752 C753 1.255 . S
C753 O751 1.256 . S
C753 O752 1.255 . S
H754 C733 0.931 . S
H755 C741 0.931 . S
Co756 N761 2.057 . S
Co756 O773 2.021 . S
Co756 O776 2.062 . S
Co756 O780 2.117 . S
Co756 O781 2.020 . S
C757 O777 1.259 . S
C757 O780 1.258 . S
Co758 N767 2.057 . S
Co758 O774 2.117 . S
Co758 O775 2.020 . S
Co758 O777 2.021 . S
Co758 O782 2.062 . S
C759 N761 1.316 . S
C759 N762 1.347 . S
C759 H764 0.931 . S
C760 N761 1.375 . S
C760 C763 1.350 . S
C760 H765 0.930 . S
N761 Co756 2.057 . S
N761 C759 1.316 . S
N761 C760 1.375 . S
N762 C759 1.347 . S
N762 C763 1.373 . S
C763 C760 1.350 . S
C763 N762 1.373 . S
C763 H784 0.931 . S
H764 C759 0.931 . S
H765 C760 0.930 . S
C766 O773 1.259 . S
C766 O774 1.258 . S
N767 Co758 2.057 . S
N767 C768 1.316 . S
N767 C769 1.375 . S
C768 N767 1.316 . S
C768 N770 1.347 . S
C768 H779 0.931 . S
C769 N767 1.375 . S
C769 C771 1.350 . S
C769 H778 0.930 . S
N770 C768 1.347 . S
N770 C771 1.373 . S
C771 C769 1.350 . S
C771 N770 1.373 . S
C771 H785 0.931 . S
C772 O775 1.256 . S
C772 O776 1.255 . S
O773 Co756 2.021 . S
O773 C766 1.259 . S
O774 Co758 2.117 . S
O774 C766 1.258 . S
O775 Co758 2.020 . S
O775 C772 1.256 . S
O776 Co756 2.062 . S
O776 C772 1.255 . S
O777 C757 1.259 . S
O777 Co758 2.021 . S
H778 C769 0.930 . S
H779 C768 0.931 . S
O780 Co756 2.117 . S
O780 C757 1.258 . S
O781 Co756 2.020 . S
O781 C783 1.256 . S
O782 Co758 2.062 . S
O782 C783 1.255 . S
C783 O781 1.256 . S
C783 O782 1.255 . S
H784 C763 0.931 . S
H785 C771 0.931 . S
Co786 N791 2.057 1_455 S
Co786 O803 2.021 . S
Co786 O806 2.058 1_455 S
Co786 O810 2.117 . S
Co786 O811 2.020 1_554 S
C787 O807 1.259 . S
C787 O810 1.258 . S
Co788 N797 2.057 . S
Co788 O804 2.117 . S
Co788 O805 2.020 . S
Co788 O807 2.021 . S
Co788 O812 2.062 . S
C789 N791 1.316 . S
C789 N792 1.347 . S
C789 H794 0.931 . S
C790 N791 1.375 . S
C790 C793 1.350 . S
C790 H795 0.930 . S
N791 Co786 2.057 1_655 S
N791 C789 1.316 . S
N791 C790 1.375 . S
N792 C789 1.347 . S
N792 C793 1.373 . S
C793 C790 1.350 . S
C793 N792 1.373 . S
C793 H814 0.931 . S
H794 C789 0.931 . S
H795 C790 0.930 . S
C796 O803 1.259 . S
C796 O804 1.258 . S
N797 Co788 2.057 . S
N797 C798 1.316 . S
N797 C799 1.375 . S
C798 N797 1.316 . S
C798 N800 1.347 . S
C798 H809 0.931 . S
C799 N797 1.375 . S
C799 C801 1.350 . S
C799 H808 0.930 . S
N800 C798 1.347 . S
N800 C801 1.373 . S
C801 C799 1.350 . S
C801 N800 1.373 . S
C801 H815 0.931 . S
C802 O805 1.256 . S
C802 O806 1.242 1_455 S
O803 Co786 2.021 . S
O803 C796 1.259 . S
O804 Co788 2.117 . S
O804 C796 1.258 . S
O805 Co788 2.020 . S
O805 C802 1.256 . S
O806 Co786 2.058 1_655 S
O806 C802 1.242 1_655 S
O807 C787 1.259 . S
O807 Co788 2.021 . S
H808 C799 0.930 . S
H809 C798 0.931 . S
O810 Co786 2.117 . S
O810 C787 1.258 . S
O811 Co786 2.020 1_556 S
O811 C813 1.256 . S
O812 Co788 2.062 . S
O812 C813 1.255 1_554 S
C813 O811 1.256 . S
C813 O812 1.255 1_556 S
H814 C793 0.931 . S
H815 C801 0.931 . S
C816 C817 1.387 . S
C816 H820 0.950 . S
C816 C825 1.390 . S
C817 C816 1.387 . S
C817 C819 1.387 . S
H818 C825 0.950 . S
C819 C817 1.387 . S
C819 C821 1.390 . S
C819 H823 0.950 . S
H820 C816 0.950 . S
C821 C819 1.390 . S
C821 C822 1.387 . S
C821 H824 0.950 . S
C822 C821 1.387 . S
C822 C825 1.387 . S
H823 C819 0.950 . S
H824 C821 0.950 . S
C825 C816 1.390 . S
C825 H818 0.950 . S
C825 C822 1.387 . S
C826 C827 1.387 . S
C826 H830 0.950 . S
C826 C835 1.390 . S
C827 C826 1.387 . S
C827 C829 1.387 . S
H828 C835 0.950 . S
C829 C827 1.387 . S
C829 C831 1.390 . S
C829 H833 0.950 . S
H830 C826 0.950 . S
C831 C829 1.390 . S
C831 C832 1.387 . S
C831 H834 0.950 . S
C832 C831 1.387 . S
C832 C835 1.387 . S
H833 C829 0.950 . S
H834 C831 0.950 . S
C835 C826 1.390 . S
C835 H828 0.950 . S
C835 C832 1.387 . S
C836 C837 1.387 . S
C836 H840 0.950 . S
C836 C845 1.390 . S
C837 C836 1.387 . S
C837 C839 1.387 . S
H838 C845 0.950 . S
C839 C837 1.387 . S
C839 C841 1.390 . S
C839 H843 0.950 . S
H840 C836 0.950 . S
C841 C839 1.390 . S
C841 C842 1.387 . S
C841 H844 0.950 . S
C842 C841 1.387 . S
C842 C845 1.387 . S
H843 C839 0.950 . S
H844 C841 0.950 . S
C845 C836 1.390 . S
C845 H838 0.950 . S
C845 C842 1.387 . S
C846 C847 1.387 . S
C846 H850 0.950 . S
C846 C855 1.390 . S
C847 C846 1.387 . S
C847 C849 1.387 . S
H848 C855 0.950 . S
C849 C847 1.387 . S
C849 C851 1.390 . S
C849 H853 0.950 . S
H850 C846 0.950 . S
C851 C849 1.390 . S
C851 C852 1.387 . S
C851 H854 0.950 . S
C852 C851 1.387 . S
C852 C855 1.387 . S
H853 C849 0.950 . S
H854 C851 0.950 . S
C855 C846 1.390 . S
C855 H848 0.950 . S
C855 C852 1.387 . S
C856 C857 1.387 . S
C856 H860 0.950 . S
C856 C865 1.390 . S
C857 C856 1.387 . S
C857 C859 1.387 . S
H858 C865 0.950 . S
C859 C857 1.387 . S
C859 C861 1.390 . S
C859 H863 0.950 . S
H860 C856 0.950 . S
C861 C859 1.390 . S
C861 C862 1.387 . S
C861 H864 0.950 . S
C862 C861 1.387 . S
C862 C865 1.387 . S
H863 C859 0.950 . S
H864 C861 0.950 . S
C865 C856 1.390 . S
C865 H858 0.950 . S
C865 C862 1.387 . S
C866 C867 1.387 . S
C866 H870 0.950 . S
C866 C875 1.390 . S
C867 C866 1.387 . S
C867 C869 1.387 . S
H868 C875 0.950 . S
C869 C867 1.387 . S
C869 C871 1.390 . S
C869 H873 0.950 . S
H870 C866 0.950 . S
C871 C869 1.390 . S
C871 C872 1.387 . S
C871 H874 0.950 . S
C872 C871 1.387 . S
C872 C875 1.387 . S
H873 C869 0.950 . S
H874 C871 0.950 . S
C875 C866 1.390 . S
C875 H868 0.950 . S
C875 C872 1.387 . S
C876 C877 1.387 . S
C876 H880 0.950 . S
C876 C885 1.390 . S
C877 C876 1.387 . S
C877 C879 1.387 . S
H878 C885 0.950 . S
C879 C877 1.387 . S
C879 C881 1.374 1_556 S
C879 H883 0.950 . S
H880 C876 0.950 . S
C881 C879 1.374 1_554 S
C881 C882 1.390 . S
C881 H884 0.963 . S
C882 C881 1.390 . S
C882 C885 1.387 1_554 S
H883 C879 0.950 . S
H884 C881 0.963 . S
C885 C876 1.390 . S
C885 H878 0.950 . S
C885 C882 1.387 1_556 S
C886 C887 1.387 . S
C886 H890 0.950 . S
C886 C895 1.390 . S
C887 C886 1.387 . S
C887 C889 1.387 . S
H888 C895 0.950 . S
C889 C887 1.387 . S
C889 C891 1.390 . S
C889 H893 0.950 . S
H890 C886 0.950 . S
C891 C889 1.390 . S
C891 C892 1.387 . S
C891 H894 0.950 . S
C892 C891 1.387 . S
C892 C895 1.387 . S
H893 C889 0.950 . S
H894 C891 0.950 . S
C895 C886 1.390 . S
C895 H888 0.950 . S
C895 C892 1.387 . S
C896 C897 1.387 . S
C896 H900 0.950 . S
C896 C905 1.390 . S
C897 C896 1.387 . S
C897 C899 1.387 1_545 S
H898 C905 0.950 . S
C899 C897 1.387 1_565 S
C899 C901 1.390 . S
C899 H903 0.950 . S
H900 C896 0.950 . S
C901 C899 1.390 . S
C901 C902 1.387 . S
C901 H904 0.950 . S
C902 C901 1.387 . S
C902 C905 1.387 1_565 S
H903 C899 0.950 . S
H904 C901 0.950 . S
C905 C896 1.390 . S
C905 H898 0.950 . S
C905 C902 1.387 1_545 S
C906 C907 1.387 . S
C906 H910 0.950 . S
C906 C915 1.390 . S
C907 C906 1.387 . S
C907 C909 1.387 . S
H908 C915 0.950 . S
C909 C907 1.387 . S
C909 C911 1.390 . S
C909 H913 0.950 . S
H910 C906 0.950 . S
C911 C909 1.390 . S
C911 C912 1.387 . S
C911 H914 0.950 . S
C912 C911 1.387 . S
C912 C915 1.387 . S
H913 C909 0.950 . S
H914 C911 0.950 . S
C915 C906 1.390 . S
C915 H908 0.950 . S
C915 C912 1.387 . S
C916 C917 1.387 . S
C916 H920 0.950 . S
C916 C925 1.390 . S
C917 C916 1.387 . S
C917 C919 1.387 . S
H918 C925 0.950 . S
C919 C917 1.387 . S
C919 C921 1.390 . S
C919 H923 0.950 . S
H920 C916 0.950 . S
C921 C919 1.390 . S
C921 C922 1.387 . S
C921 H924 0.950 . S
C922 C921 1.387 . S
C922 C925 1.387 . S
H923 C919 0.950 . S
H924 C921 0.950 . S
C925 C916 1.390 . S
C925 H918 0.950 . S
C925 C922 1.387 . S
C926 C927 1.387 . S
C926 H930 0.950 . S
C926 C935 1.390 . S
C927 C926 1.387 . S
C927 C929 1.387 . S
H928 C935 0.950 . S
C929 C927 1.387 . S
C929 C931 1.390 . S
C929 H933 0.950 . S
H930 C926 0.950 . S
C931 C929 1.390 . S
C931 C932 1.387 . S
C931 H934 0.950 . S
C932 C931 1.387 . S
C932 C935 1.387 . S
H933 C929 0.950 . S
H934 C931 0.950 . S
C935 C926 1.390 . S
C935 H928 0.950 . S
C935 C932 1.387 . S
C936 C937 1.387 . S
C936 H940 0.950 . S
C936 C945 1.390 . S
C937 C936 1.387 . S
C937 C939 1.387 . S
H938 C945 0.950 . S
C939 C937 1.387 . S
C939 C941 1.390 . S
C939 H943 0.950 1_545 S
H940 C936 0.950 . S
C941 C939 1.390 . S
C941 C942 1.387 . S
C941 H944 0.947 1_545 S
C942 C941 1.387 . S
C942 C945 1.387 . S
H943 C939 0.950 1_565 S
H944 C941 0.947 1_565 S
C945 C936 1.390 . S
C945 H938 0.950 . S
C945 C942 1.387 . S
C946 C947 1.387 . S
C946 H950 0.950 . S
C946 C955 1.390 . S
C947 C946 1.387 . S
C947 C949 1.387 . S
H948 C955 0.950 . S
C949 C947 1.387 . S
C949 C951 1.390 . S
C949 H953 0.950 . S
H950 C946 0.950 . S
C951 C949 1.390 . S
C951 C952 1.387 . S
C951 H954 0.950 . S
C952 C951 1.387 . S
C952 C955 1.387 . S
H953 C949 0.950 . S
H954 C951 0.950 . S
C955 C946 1.390 . S
C955 H948 0.950 . S
C955 C952 1.387 . S
C956 C957 1.387 . S
C956 H960 0.950 . S
C956 C965 1.390 . S
C957 C956 1.387 . S
C957 C959 1.387 . S
H958 C965 0.950 . S
C959 C957 1.387 . S
C959 C961 1.390 . S
C959 H963 0.950 . S
H960 C956 0.950 . S
C961 C959 1.390 . S
C961 C962 1.387 . S
C961 H964 0.950 1_545 S
C962 C961 1.387 . S
C962 C965 1.387 . S
H963 C959 0.950 . S
H964 C961 0.950 1_565 S
C965 C956 1.390 . S
C965 H958 0.950 . S
C965 C962 1.387 . S
C966 C967 1.387 . S
C966 H970 0.950 . S
C966 C975 1.390 . S
C967 C966 1.387 . S
C967 C969 1.387 . S
H968 C975 0.950 . S
C969 C967 1.387 . S
C969 C971 1.390 . S
C969 H973 0.950 . S
H970 C966 0.950 . S
C971 C969 1.390 . S
C971 C972 1.387 . S
C971 H974 0.950 . S
C972 C971 1.387 . S
C972 C975 1.387 . S
H973 C969 0.950 . S
H974 C971 0.950 . S
C975 C966 1.390 . S
C975 H968 0.950 . S
C975 C972 1.387 . S
C976 C977 1.387 . S
C976 H980 0.950 . S
C976 C985 1.390 . S
C977 C976 1.387 . S
C977 C979 1.387 . S
H978 C985 0.950 . S
C979 C977 1.387 . S
C979 C981 1.390 . S
C979 H983 0.950 . S
H980 C976 0.950 . S
C981 C979 1.390 . S
C981 C982 1.387 . S
C981 H984 0.950 . S
C982 C981 1.387 . S
C982 C985 1.387 . S
H983 C979 0.950 . S
H984 C981 0.950 . S
C985 C976 1.390 . S
C985 H978 0.950 . S
C985 C982 1.387 . S
C986 C987 1.387 . S
C986 H990 0.950 . S
C986 C995 1.390 . S
C987 C986 1.387 . S
C987 C989 1.387 . S
H988 C995 0.950 . S
C989 C987 1.387 . S
C989 C991 1.390 . S
C989 H993 0.950 . S
H990 C986 0.950 . S
C991 C989 1.390 . S
C991 C992 1.387 . S
C991 H994 0.950 . S
C992 C991 1.387 . S
C992 C995 1.387 . S
H993 C989 0.950 . S
H994 C991 0.950 . S
C995 C986 1.390 . S
C995 H988 0.950 . S
C995 C992 1.387 . S
C996 C997 1.387 . S
C996 H1000 0.950 . S
C996 C1005 1.390 . S
C997 C996 1.387 . S
C997 C999 1.387 . S
H998 C1005 0.950 . S
C999 C997 1.387 . S
C999 C1001 1.390 . S
C999 H1003 0.950 . S
H1000 C996 0.950 . S
C1001 C999 1.390 . S
C1001 C1002 1.387 . S
C1001 H1004 0.950 . S
C1002 C1001 1.387 . S
C1002 C1005 1.387 . S
H1003 C999 0.950 . S
H1004 C1001 0.950 . S
C1005 C996 1.390 . S
C1005 H998 0.950 . S
C1005 C1002 1.387 . S
C1006 C1007 1.387 . S
C1006 H1010 0.950 . S
C1006 C1015 1.390 . S
C1007 C1006 1.387 . S
C1007 C1009 1.387 . S
H1008 C1015 0.950 . S
C1009 C1007 1.387 . S
C1009 C1011 1.390 . S
C1009 H1013 0.950 . S
H1010 C1006 0.950 . S
C1011 C1009 1.390 . S
C1011 C1012 1.387 . S
C1011 H1014 0.950 . S
C1012 C1011 1.387 . S
C1012 C1015 1.387 . S
H1013 C1009 0.950 . S
H1014 C1011 0.950 . S
C1015 C1006 1.390 . S
C1015 H1008 0.950 . S
C1015 C1012 1.387 . S
C1016 C1017 1.387 . S
C1016 H1020 0.950 . S
C1016 C1025 1.390 . S
C1017 C1016 1.387 . S
C1017 C1019 1.387 . S
H1018 C1025 0.950 . S
C1019 C1017 1.387 . S
C1019 C1021 1.390 . S
C1019 H1023 0.950 . S
H1020 C1016 0.950 . S
C1021 C1019 1.390 . S
C1021 C1022 1.387 . S
C1021 H1024 0.950 . S
C1022 C1021 1.387 . S
C1022 C1025 1.387 . S
H1023 C1019 0.950 . S
H1024 C1021 0.950 . S
C1025 C1016 1.390 . S
C1025 H1018 0.950 . S
C1025 C1022 1.387 . S
C1026 C1027 1.387 . S
C1026 H1030 0.950 . S
C1026 C1035 1.390 . S
C1027 C1026 1.387 . S
C1027 C1029 1.387 . S
H1028 C1035 0.950 1_545 S
C1029 C1027 1.387 . S
C1029 C1031 1.390 . S
C1029 H1033 0.950 . S
H1030 C1026 0.950 . S
C1031 C1029 1.390 . S
C1031 C1032 1.387 . S
C1031 H1034 0.950 . S
C1032 C1031 1.387 . S
C1032 C1035 1.387 . S
H1033 C1029 0.950 . S
H1034 C1031 0.950 . S
C1035 C1026 1.390 . S
C1035 H1028 0.950 1_565 S
C1035 C1032 1.387 . S
C1036 C1037 1.387 . S
C1036 H1040 0.950 . S
C1036 C1045 1.390 . S
C1037 C1036 1.387 . S
C1037 C1039 1.387 . S
H1038 C1045 0.950 . S
C1039 C1037 1.387 . S
C1039 C1041 1.390 . S
C1039 H1043 0.950 . S
H1040 C1036 0.950 . S
C1041 C1039 1.390 . S
C1041 C1042 1.387 . S
C1041 H1044 0.950 . S
C1042 C1041 1.387 . S
C1042 C1045 1.387 . S
H1043 C1039 0.950 . S
H1044 C1041 0.950 . S
C1045 C1036 1.390 . S
C1045 H1038 0.950 . S
C1045 C1042 1.387 . S
C1046 C1047 1.387 . S
C1046 H1050 0.950 . S
C1046 C1055 1.390 . S
C1047 C1046 1.387 . S
C1047 C1049 1.387 . S
H1048 C1055 0.950 . S
C1049 C1047 1.387 . S
C1049 C1051 1.390 . S
C1049 H1053 0.950 . S
H1050 C1046 0.950 . S
C1051 C1049 1.390 . S
C1051 C1052 1.387 . S
C1051 H1054 0.950 . S
C1052 C1051 1.387 . S
C1052 C1055 1.387 . S
H1053 C1049 0.950 . S
H1054 C1051 0.950 . S
C1055 C1046 1.390 . S
C1055 H1048 0.950 . S
C1055 C1052 1.387 . S
C1056 C1057 1.387 . S
C1056 H1060 0.971 . S
C1056 C1065 1.390 . S
C1057 C1056 1.387 . S
C1057 C1059 1.387 . S
H1058 C1065 0.950 1_554 S
C1059 C1057 1.387 . S
C1059 C1061 1.390 . S
C1059 H1063 0.950 . S
H1060 C1056 0.971 . S
C1061 C1059 1.390 . S
C1061 C1062 1.387 . S
C1061 H1064 0.950 . S
C1062 C1061 1.387 . S
C1062 C1065 1.387 . S
H1063 C1059 0.950 . S
H1064 C1061 0.950 . S
C1065 C1056 1.390 . S
C1065 H1058 0.950 1_556 S
C1065 C1062 1.387 . S
C1066 C1067 1.387 . S
C1066 H1070 0.950 . S
C1066 C1075 1.390 . S
C1067 C1066 1.387 . S
C1067 C1069 1.387 . S
H1068 C1075 0.950 . S
C1069 C1067 1.387 . S
C1069 C1071 1.390 . S
C1069 H1073 0.950 . S
H1070 C1066 0.950 . S
C1071 C1069 1.390 . S
C1071 C1072 1.387 . S
C1071 H1074 0.950 . S
C1072 C1071 1.387 . S
C1072 C1075 1.387 . S
H1073 C1069 0.950 . S
H1074 C1071 0.950 . S
C1075 C1066 1.390 . S
C1075 H1068 0.950 . S
C1075 C1072 1.387 . S
C1076 C1077 1.387 . S
C1076 H1080 0.950 . S
C1076 C1085 1.390 . S
C1077 C1076 1.387 . S
C1077 C1079 1.387 . S
H1078 C1085 0.950 . S
C1079 C1077 1.387 . S
C1079 C1081 1.390 . S
C1079 H1083 0.950 . S
H1080 C1076 0.950 . S
C1081 C1079 1.390 . S
C1081 C1082 1.387 . S
C1081 H1084 0.950 . S
C1082 C1081 1.387 . S
C1082 C1085 1.387 . S
H1083 C1079 0.950 . S
H1084 C1081 0.950 . S
C1085 C1076 1.390 . S
C1085 H1078 0.950 . S
C1085 C1082 1.387 . S
C1086 C1087 1.387 . S
C1086 H1090 0.950 . S
C1086 C1095 1.390 . S
C1087 C1086 1.387 . S
C1087 C1089 1.387 . S
H1088 C1095 0.950 . S
C1089 C1087 1.387 . S
C1089 C1091 1.390 . S
C1089 H1093 0.950 . S
H1090 C1086 0.950 . S
C1091 C1089 1.390 . S
C1091 C1092 1.387 . S
C1091 H1094 0.950 . S
C1092 C1091 1.387 . S
C1092 C1095 1.387 . S
H1093 C1089 0.950 . S
H1094 C1091 0.950 . S
C1095 C1086 1.390 . S
C1095 H1088 0.950 . S
C1095 C1092 1.387 . S
C1096 C1097 1.387 . S
C1096 H1100 0.950 . S
C1096 C1105 1.390 . S
C1097 C1096 1.387 . S
C1097 C1099 1.387 . S
H1098 C1105 0.950 . S
C1099 C1097 1.387 . S
C1099 C1101 1.390 . S
C1099 H1103 0.969 . S
H1100 C1096 0.950 . S
C1101 C1099 1.390 . S
C1101 C1102 1.387 . S
C1101 H1104 0.950 . S
C1102 C1101 1.387 . S
C1102 C1105 1.387 . S
H1103 C1099 0.969 . S
H1104 C1101 0.950 . S
C1105 C1096 1.390 . S
C1105 H1098 0.950 . S
C1105 C1102 1.387 . S
C1106 C1107 1.387 . S
C1106 H1110 0.950 . S
C1106 C1115 1.390 . S
C1107 C1106 1.387 . S
C1107 C1109 1.387 . S
H1108 C1115 0.950 . S
C1109 C1107 1.387 . S
C1109 C1111 1.390 . S
C1109 H1113 0.950 . S
H1110 C1106 0.950 . S
C1111 C1109 1.390 . S
C1111 C1112 1.387 . S
C1111 H1114 0.950 . S
C1112 C1111 1.387 . S
C1112 C1115 1.387 . S
H1113 C1109 0.950 . S
H1114 C1111 0.950 . S
C1115 C1106 1.390 . S
C1115 H1108 0.950 . S
C1115 C1112 1.387 . S
C1116 C1117 1.387 . S
C1116 H1120 0.950 . S
C1116 C1125 1.390 . S
C1117 C1116 1.387 . S
C1117 C1119 1.387 . S
H1118 C1125 0.950 . S
C1119 C1117 1.387 . S
C1119 C1121 1.390 . S
C1119 H1123 0.950 . S
H1120 C1116 0.950 . S
C1121 C1119 1.390 . S
C1121 C1122 1.387 . S
C1121 H1124 0.950 . S
C1122 C1121 1.387 . S
C1122 C1125 1.387 . S
H1123 C1119 0.950 . S
H1124 C1121 0.950 . S
C1125 C1116 1.390 . S
C1125 H1118 0.950 . S
C1125 C1122 1.387 . S
C1126 C1127 1.387 . S
C1126 H1130 0.950 . S
C1126 C1135 1.390 . S
C1127 C1126 1.387 . S
C1127 C1129 1.387 . S
H1128 C1135 0.950 . S
C1129 C1127 1.387 . S
C1129 C1131 1.390 . S
C1129 H1133 0.950 . S
H1130 C1126 0.950 . S
C1131 C1129 1.390 . S
C1131 C1132 1.387 . S
C1131 H1134 0.950 . S
C1132 C1131 1.387 . S
C1132 C1135 1.387 . S
H1133 C1129 0.950 . S
H1134 C1131 0.950 . S
C1135 C1126 1.390 . S
C1135 H1128 0.950 . S
C1135 C1132 1.387 . S
C1136 C1137 1.387 . S
C1136 H1140 0.950 . S
C1136 C1145 1.390 . S
C1137 C1136 1.387 . S
C1137 C1139 1.387 . S
H1138 C1145 0.950 . S
C1139 C1137 1.387 . S
C1139 C1141 1.390 . S
C1139 H1143 0.950 . S
H1140 C1136 0.950 . S
C1141 C1139 1.390 . S
C1141 C1142 1.387 . S
C1141 H1144 0.950 . S
C1142 C1141 1.387 . S
C1142 C1145 1.387 . S
H1143 C1139 0.950 . S
H1144 C1141 0.950 . S
C1145 C1136 1.390 . S
C1145 H1138 0.950 . S
C1145 C1142 1.387 . S
C1146 C1147 1.387 . S
C1146 H1150 0.950 . S
C1146 C1155 1.390 . S
C1147 C1146 1.387 . S
C1147 C1149 1.387 . S
H1148 C1155 0.950 . S
C1149 C1147 1.387 . S
C1149 C1151 1.390 . S
C1149 H1153 0.950 . S
H1150 C1146 0.950 . S
C1151 C1149 1.390 . S
C1151 C1152 1.387 . S
C1151 H1154 0.950 . S
C1152 C1151 1.387 . S
C1152 C1155 1.387 . S
H1153 C1149 0.950 . S
H1154 C1151 0.950 . S
C1155 C1146 1.390 . S
C1155 H1148 0.950 . S
C1155 C1152 1.387 . S
C1156 C1157 1.387 1_565 S
C1156 H1160 0.950 . S
C1156 C1165 1.390 . S
C1157 C1156 1.387 1_545 S
C1157 C1159 1.387 . S
H1158 C1165 0.950 . S
C1159 C1157 1.387 . S
C1159 C1161 1.390 . S
C1159 H1163 0.950 . S
H1160 C1156 0.950 . S
C1161 C1159 1.390 . S
C1161 C1162 1.387 . S
C1161 H1164 0.950 . S
C1162 C1161 1.387 . S
C1162 C1165 1.387 1_545 S
H1163 C1159 0.950 . S
H1164 C1161 0.950 . S
C1165 C1156 1.390 . S
C1165 H1158 0.950 . S
C1165 C1162 1.387 1_565 S
C1166 C1167 1.387 . S
C1166 H1170 0.950 . S
C1166 C1175 1.390 . S
C1167 C1166 1.387 . S
C1167 C1169 1.387 . S
H1168 C1175 0.950 . S
C1169 C1167 1.387 . S
C1169 C1171 1.390 . S
C1169 H1173 0.950 . S
H1170 C1166 0.950 . S
C1171 C1169 1.390 . S
C1171 C1172 1.387 . S
C1171 H1174 0.950 . S
C1172 C1171 1.387 . S
C1172 C1175 1.387 . S
H1173 C1169 0.950 . S
H1174 C1171 0.950 . S
C1175 C1166 1.390 . S
C1175 H1168 0.950 . S
C1175 C1172 1.387 . S
C1176 C1177 1.387 . S
C1176 H1180 0.950 . S
C1176 C1185 1.390 . S
C1177 C1176 1.387 . S
C1177 C1179 1.387 . S
H1178 C1185 0.950 . S
C1179 C1177 1.387 . S
C1179 C1181 1.390 . S
C1179 H1183 0.950 . S
H1180 C1176 0.950 . S
C1181 C1179 1.390 . S
C1181 C1182 1.387 . S
C1181 H1184 0.950 1_655 S
C1182 C1181 1.387 . S
C1182 C1185 1.387 . S
H1183 C1179 0.950 . S
H1184 C1181 0.950 1_455 S
C1185 C1176 1.390 . S
C1185 H1178 0.950 . S
C1185 C1182 1.387 . S
C1186 C1187 1.387 . S
C1186 H1190 0.950 . S
C1186 C1195 1.390 . S
C1187 C1186 1.387 . S
C1187 C1189 1.387 . S
H1188 C1195 0.950 . S
C1189 C1187 1.387 . S
C1189 C1191 1.390 . S
C1189 H1193 0.950 . S
H1190 C1186 0.950 . S
C1191 C1189 1.390 . S
C1191 C1192 1.387 . S
C1191 H1194 0.950 . S
C1192 C1191 1.387 . S
C1192 C1195 1.387 . S
H1193 C1189 0.950 . S
H1194 C1191 0.950 . S
C1195 C1186 1.390 . S
C1195 H1188 0.950 . S
C1195 C1192 1.387 . S
C1196 C1197 1.387 . S
C1196 H1200 0.950 . S
C1196 C1205 1.390 . S
C1197 C1196 1.387 . S
C1197 C1199 1.387 . S
H1198 C1205 0.950 . S
C1199 C1197 1.387 . S
C1199 C1201 1.390 . S
C1199 H1203 0.950 1_545 S
H1200 C1196 0.950 . S
C1201 C1199 1.390 . S
C1201 C1202 1.387 . S
C1201 H1204 0.950 . S
C1202 C1201 1.387 . S
C1202 C1205 1.387 . S
H1203 C1199 0.950 1_565 S
H1204 C1201 0.950 . S
C1205 C1196 1.390 . S
C1205 H1198 0.950 . S
C1205 C1202 1.387 . S
C1206 C1207 1.387 . S
C1206 H1210 0.950 . S
C1206 C1215 1.390 . S
C1207 C1206 1.387 . S
C1207 C1209 1.387 . S
H1208 C1215 0.950 . S
C1209 C1207 1.387 . S
C1209 C1211 1.390 . S
C1209 H1213 0.950 . S
H1210 C1206 0.950 . S
C1211 C1209 1.390 . S
C1211 C1212 1.387 . S
C1211 H1214 0.950 . S
C1212 C1211 1.387 . S
C1212 C1215 1.387 . S
H1213 C1209 0.950 . S
H1214 C1211 0.950 . S
C1215 C1206 1.390 . S
C1215 H1208 0.950 . S
C1215 C1212 1.387 . S
C1216 C1217 1.387 . S
C1216 H1220 0.950 . S
C1216 C1225 1.390 . S
C1217 C1216 1.387 . S
C1217 C1219 1.387 . S
H1218 C1225 0.950 . S
C1219 C1217 1.387 . S
C1219 C1221 1.390 . S
C1219 H1223 0.950 1_554 S
H1220 C1216 0.950 . S
C1221 C1219 1.390 . S
C1221 C1222 1.387 . S
C1221 H1224 0.950 1_554 S
C1222 C1221 1.387 . S
C1222 C1225 1.387 . S
H1223 C1219 0.950 1_556 S
H1224 C1221 0.950 1_556 S
C1225 C1216 1.390 . S
C1225 H1218 0.950 . S
C1225 C1222 1.387 . S
C1226 C1227 1.387 1_556 S
C1226 H1230 0.950 . S
C1226 C1235 1.390 . S
C1227 C1226 1.387 1_554 S
C1227 C1229 1.387 . S
H1228 C1235 0.950 . S
C1229 C1227 1.387 . S
C1229 C1231 1.390 . S
C1229 H1233 0.950 . S
H1230 C1226 0.950 . S
C1231 C1229 1.390 . S
C1231 C1232 1.387 . S
C1231 H1234 0.950 . S
C1232 C1231 1.387 . S
C1232 C1235 1.387 1_554 S
H1233 C1229 0.950 . S
H1234 C1231 0.950 . S
C1235 C1226 1.390 . S
C1235 H1228 0.950 . S
C1235 C1232 1.387 1_556 S
C1236 C1237 1.387 . S
C1236 H1240 0.950 . S
C1236 C1245 1.390 . S
C1237 C1236 1.387 . S
C1237 C1239 1.387 . S
H1238 C1245 0.950 . S
C1239 C1237 1.387 . S
C1239 C1241 1.390 . S
C1239 H1243 0.950 . S
H1240 C1236 0.950 . S
C1241 C1239 1.390 . S
C1241 C1242 1.387 . S
C1241 H1244 0.950 . S
C1242 C1241 1.387 . S
C1242 C1245 1.387 . S
H1243 C1239 0.950 . S
H1244 C1241 0.950 . S
C1245 C1236 1.390 . S
C1245 H1238 0.950 . S
C1245 C1242 1.387 . S
C1246 C1247 1.387 . S
C1246 H1250 0.950 . S
C1246 C1255 1.390 . S
C1247 C1246 1.387 . S
C1247 C1249 1.387 . S
H1248 C1255 0.950 . S
C1249 C1247 1.387 . S
C1249 C1251 1.390 . S
C1249 H1253 0.950 . S
H1250 C1246 0.950 . S
C1251 C1249 1.390 . S
C1251 C1252 1.387 . S
C1251 H1254 0.950 . S
C1252 C1251 1.387 . S
C1252 C1255 1.387 . S
H1253 C1249 0.950 . S
H1254 C1251 0.950 . S
C1255 C1246 1.390 . S
C1255 H1248 0.950 . S
C1255 C1252 1.387 . S
C1256 C1257 1.387 . S
C1256 H1260 0.950 . S
C1256 C1265 1.390 . S
C1257 C1256 1.387 . S
C1257 C1259 1.387 . S
H1258 C1265 0.950 . S
C1259 C1257 1.387 . S
C1259 C1261 1.390 . S
C1259 H1263 0.950 . S
H1260 C1256 0.950 . S
C1261 C1259 1.390 . S
C1261 C1262 1.387 . S
C1261 H1264 0.950 . S
C1262 C1261 1.387 . S
C1262 C1265 1.387 . S
H1263 C1259 0.950 . S
H1264 C1261 0.950 . S
C1265 C1256 1.390 . S
C1265 H1258 0.950 . S
C1265 C1262 1.387 . S
C1266 C1267 1.387 . S
C1266 H1270 0.950 . S
C1266 C1275 1.390 . S
C1267 C1266 1.387 . S
C1267 C1269 1.387 . S
H1268 C1275 0.950 . S
C1269 C1267 1.387 . S
C1269 C1271 1.390 . S
C1269 H1273 0.950 . S
H1270 C1266 0.950 . S
C1271 C1269 1.390 . S
C1271 C1272 1.387 . S
C1271 H1274 0.950 . S
C1272 C1271 1.387 . S
C1272 C1275 1.387 . S
H1273 C1269 0.950 . S
H1274 C1271 0.950 . S
C1275 C1266 1.390 . S
C1275 H1268 0.950 . S
C1275 C1272 1.387 . S
C1276 C1277 1.387 . S
C1276 H1280 0.950 . S
C1276 C1285 1.390 . S
C1277 C1276 1.387 . S
C1277 C1279 1.387 . S
H1278 C1285 0.950 . S
C1279 C1277 1.387 . S
C1279 C1281 1.390 . S
C1279 H1283 0.950 . S
H1280 C1276 0.950 . S
C1281 C1279 1.390 . S
C1281 C1282 1.387 . S
C1281 H1284 0.950 . S
C1282 C1281 1.387 . S
C1282 C1285 1.387 . S
H1283 C1279 0.950 . S
H1284 C1281 0.950 . S
C1285 C1276 1.390 . S
C1285 H1278 0.950 . S
C1285 C1282 1.387 . S
C1286 C1287 1.387 . S
C1286 H1290 0.950 . S
C1286 C1295 1.390 . S
C1287 C1286 1.387 . S
C1287 C1289 1.387 . S
H1288 C1295 0.950 . S
C1289 C1287 1.387 . S
C1289 C1291 1.390 . S
C1289 H1293 0.950 . S
H1290 C1286 0.950 . S
C1291 C1289 1.390 . S
C1291 C1292 1.387 . S
C1291 H1294 0.950 . S
C1292 C1291 1.387 . S
C1292 C1295 1.387 . S
H1293 C1289 0.950 . S
H1294 C1291 0.950 . S
C1295 C1286 1.390 . S
C1295 H1288 0.950 . S
C1295 C1292 1.387 . S
C1296 C1297 1.387 . S
C1296 H1300 0.950 . S
C1296 C1305 1.390 . S
C1297 C1296 1.387 . S
C1297 C1299 1.387 . S
H1298 C1305 0.950 . S
C1299 C1297 1.387 . S
C1299 C1301 1.390 . S
C1299 H1303 0.950 . S
H1300 C1296 0.950 . S
C1301 C1299 1.390 . S
C1301 C1302 1.387 . S
C1301 H1304 0.950 . S
C1302 C1301 1.387 . S
C1302 C1305 1.387 . S
H1303 C1299 0.950 . S
H1304 C1301 0.950 . S
C1305 C1296 1.390 . S
C1305 H1298 0.950 . S
C1305 C1302 1.387 . S
C1306 C1307 1.387 . S
C1306 H1310 0.950 . S
C1306 C1315 1.390 . S
C1307 C1306 1.387 . S
C1307 C1309 1.387 . S
H1308 C1315 0.950 . S
C1309 C1307 1.387 . S
C1309 C1311 1.390 . S
C1309 H1313 0.950 . S
H1310 C1306 0.950 . S
C1311 C1309 1.390 . S
C1311 C1312 1.387 . S
C1311 H1314 0.950 . S
C1312 C1311 1.387 . S
C1312 C1315 1.387 . S
H1313 C1309 0.950 . S
H1314 C1311 0.950 . S
C1315 C1306 1.390 . S
C1315 H1308 0.950 . S
C1315 C1312 1.387 . S
C1316 C1317 1.387 . S
C1316 H1320 0.950 . S
C1316 C1325 1.390 . S
C1317 C1316 1.387 . S
C1317 C1319 1.387 . S
H1318 C1325 0.950 . S
C1319 C1317 1.387 . S
C1319 C1321 1.390 . S
C1319 H1323 0.950 . S
H1320 C1316 0.950 . S
C1321 C1319 1.390 . S
C1321 C1322 1.387 . S
C1321 H1324 0.950 . S
C1322 C1321 1.387 . S
C1322 C1325 1.387 . S
H1323 C1319 0.950 . S
H1324 C1321 0.950 . S
C1325 C1316 1.390 . S
C1325 H1318 0.950 . S
C1325 C1322 1.387 . S
C1326 C1327 1.387 . S
C1326 H1330 0.950 . S
C1326 C1335 1.390 . S
C1327 C1326 1.387 . S
C1327 C1329 1.387 . S
H1328 C1335 0.950 . S
C1329 C1327 1.387 . S
C1329 C1331 1.390 . S
C1329 H1333 0.950 . S
H1330 C1326 0.950 . S
C1331 C1329 1.390 . S
C1331 C1332 1.387 . S
C1331 H1334 0.950 . S
C1332 C1331 1.387 . S
C1332 C1335 1.387 . S
H1333 C1329 0.950 . S
H1334 C1331 0.950 . S
C1335 C1326 1.390 . S
C1335 H1328 0.950 . S
C1335 C1332 1.387 . S
C1336 C1337 1.387 . S
C1336 H1340 0.950 . S
C1336 C1345 1.390 1_556 S
C1337 C1336 1.387 . S
C1337 C1339 1.387 . S
H1338 C1345 0.950 . S
C1339 C1337 1.387 . S
C1339 C1341 1.390 . S
C1339 H1343 0.950 . S
H1340 C1336 0.950 . S
C1341 C1339 1.390 . S
C1341 C1342 1.387 . S
C1341 H1344 0.950 . S
C1342 C1341 1.387 . S
C1342 C1345 1.387 1_556 S
H1343 C1339 0.950 . S
H1344 C1341 0.950 . S
C1345 C1336 1.390 1_554 S
C1345 H1338 0.950 . S
C1345 C1342 1.387 1_554 S
C1346 C1347 1.387 . S
C1346 H1350 0.950 . S
C1346 C1355 1.390 . S
C1347 C1346 1.387 . S
C1347 C1349 1.387 . S
H1348 C1355 0.950 . S
C1349 C1347 1.387 . S
C1349 C1351 1.390 . S
C1349 H1353 0.950 . S
H1350 C1346 0.950 . S
C1351 C1349 1.390 . S
C1351 C1352 1.387 . S
C1351 H1354 0.950 . S
C1352 C1351 1.387 . S
C1352 C1355 1.387 . S
H1353 C1349 0.950 . S
H1354 C1351 0.950 . S
C1355 C1346 1.390 . S
C1355 H1348 0.950 . S
C1355 C1352 1.387 . S
C1356 C1357 1.387 . S
C1356 H1360 0.950 . S
C1356 C1365 1.390 . S
C1357 C1356 1.387 . S
C1357 C1359 1.387 . S
H1358 C1365 0.950 . S
C1359 C1357 1.387 . S
C1359 C1361 1.390 . S
C1359 H1363 0.950 . S
H1360 C1356 0.950 . S
C1361 C1359 1.390 . S
C1361 C1362 1.387 . S
C1361 H1364 0.950 . S
C1362 C1361 1.387 . S
C1362 C1365 1.387 . S
H1363 C1359 0.950 . S
H1364 C1361 0.950 . S
C1365 C1356 1.390 . S
C1365 H1358 0.950 . S
C1365 C1362 1.387 . S
C1366 C1367 1.387 . S
C1366 H1370 0.950 . S
C1366 C1375 1.390 . S
C1367 C1366 1.387 . S
C1367 C1369 1.387 . S
H1368 C1375 0.950 . S
C1369 C1367 1.387 . S
C1369 C1371 1.390 . S
C1369 H1373 0.950 . S
H1370 C1366 0.950 . S
C1371 C1369 1.390 . S
C1371 C1372 1.387 . S
C1371 H1374 0.950 . S
C1372 C1371 1.387 . S
C1372 C1375 1.387 . S
H1373 C1369 0.950 . S
H1374 C1371 0.950 . S
C1375 C1366 1.390 . S
C1375 H1368 0.950 . S
C1375 C1372 1.387 . S
C1376 C1377 1.387 . S
C1376 H1380 0.950 . S
C1376 C1385 1.390 . S
C1377 C1376 1.387 . S
C1377 C1379 1.387 . S
H1378 C1385 0.950 . S
C1379 C1377 1.387 . S
C1379 C1381 1.390 . S
C1379 H1383 0.950 . S
H1380 C1376 0.950 . S
C1381 C1379 1.390 . S
C1381 C1382 1.387 . S
C1381 H1384 0.950 . S
C1382 C1381 1.387 . S
C1382 C1385 1.387 . S
H1383 C1379 0.950 . S
H1384 C1381 0.950 . S
C1385 C1376 1.390 . S
C1385 H1378 0.950 . S
C1385 C1382 1.387 . S
C1386 C1387 1.387 . S
C1386 H1390 0.950 . S
C1386 C1395 1.390 . S
C1387 C1386 1.387 . S
C1387 C1389 1.387 . S
H1388 C1395 0.950 . S
C1389 C1387 1.387 . S
C1389 C1391 1.390 . S
C1389 H1393 0.950 . S
H1390 C1386 0.950 . S
C1391 C1389 1.390 . S
C1391 C1392 1.387 . S
C1391 H1394 0.950 . S
C1392 C1391 1.387 . S
C1392 C1395 1.387 . S
H1393 C1389 0.950 . S
H1394 C1391 0.950 . S
C1395 C1386 1.390 . S
C1395 H1388 0.950 . S
C1395 C1392 1.387 . S
C1396 C1397 1.387 . S
C1396 H1400 0.950 . S
C1396 C1405 1.390 . S
C1397 C1396 1.387 . S
C1397 C1399 1.387 . S
H1398 C1405 0.948 . S
C1399 C1397 1.387 . S
C1399 C1401 1.390 . S
C1399 H1403 0.950 . S
H1400 C1396 0.950 . S
C1401 C1399 1.390 . S
C1401 C1402 1.388 . S
C1401 H1404 0.950 . S
C1402 C1401 1.388 . S
C1402 C1405 1.388 . S
H1403 C1399 0.950 . S
H1404 C1401 0.950 . S
C1405 C1396 1.390 . S
C1405 H1398 0.948 . S
C1405 C1402 1.388 . S
C1406 C1407 1.387 . S
C1406 H1410 0.950 . S
C1406 C1415 1.390 . S
C1407 C1406 1.387 . S
C1407 C1409 1.387 . S
H1408 C1415 0.950 . S
C1409 C1407 1.387 . S
C1409 C1411 1.390 . S
C1409 H1413 0.950 . S
H1410 C1406 0.950 . S
C1411 C1409 1.390 . S
C1411 C1412 1.387 . S
C1411 H1414 0.950 . S
C1412 C1411 1.387 . S
C1412 C1415 1.387 . S
H1413 C1409 0.950 . S
H1414 C1411 0.950 . S
C1415 C1406 1.390 . S
C1415 H1408 0.950 . S
C1415 C1412 1.387 . S
C1416 C1417 1.387 . S
C1416 H1420 0.950 . S
C1416 C1425 1.390 . S
C1417 C1416 1.387 . S
C1417 C1419 1.387 . S
H1418 C1425 0.950 . S
C1419 C1417 1.387 . S
C1419 C1421 1.390 . S
C1419 H1423 0.950 . S
H1420 C1416 0.950 . S
C1421 C1419 1.390 . S
C1421 C1422 1.387 . S
C1421 H1424 0.950 . S
C1422 C1421 1.387 . S
C1422 C1425 1.387 . S
H1423 C1419 0.950 . S
H1424 C1421 0.950 . S
C1425 C1416 1.390 . S
C1425 H1418 0.950 . S
C1425 C1422 1.387 . S
C1426 C1427 1.387 . S
C1426 H1430 0.950 . S
C1426 C1435 1.390 . S
C1427 C1426 1.387 . S
C1427 C1429 1.387 . S
H1428 C1435 0.950 . S
C1429 C1427 1.387 . S
C1429 C1431 1.390 . S
C1429 H1433 0.950 . S
H1430 C1426 0.950 . S
C1431 C1429 1.390 . S
C1431 C1432 1.387 . S
C1431 H1434 0.950 . S
C1432 C1431 1.387 . S
C1432 C1435 1.387 . S
H1433 C1429 0.950 . S
H1434 C1431 0.950 . S
C1435 C1426 1.390 . S
C1435 H1428 0.950 . S
C1435 C1432 1.387 . S
C1436 C1437 1.387 . S
C1436 H1440 0.950 . S
C1436 C1445 1.390 . S
C1437 C1436 1.387 . S
C1437 C1439 1.387 . S
H1438 C1445 0.950 . S
C1439 C1437 1.387 . S
C1439 C1441 1.390 . S
C1439 H1443 0.950 . S
H1440 C1436 0.950 . S
C1441 C1439 1.390 . S
C1441 C1442 1.387 . S
C1441 H1444 0.950 1_655 S
C1442 C1441 1.387 . S
C1442 C1445 1.387 . S
H1443 C1439 0.950 . S
H1444 C1441 0.950 1_455 S
C1445 C1436 1.390 . S
C1445 H1438 0.950 . S
C1445 C1442 1.387 . S
C1446 C1447 1.387 . S
C1446 H1450 0.950 . S
C1446 C1455 1.390 . S
C1447 C1446 1.387 . S
C1447 C1449 1.387 . S
H1448 C1455 0.950 . S
C1449 C1447 1.387 . S
C1449 C1451 1.390 . S
C1449 H1453 0.950 . S
H1450 C1446 0.950 . S
C1451 C1449 1.390 . S
C1451 C1452 1.387 . S
C1451 H1454 0.950 . S
C1452 C1451 1.387 . S
C1452 C1455 1.387 . S
H1453 C1449 0.950 . S
H1454 C1451 0.950 . S
C1455 C1446 1.390 . S
C1455 H1448 0.950 . S
C1455 C1452 1.387 . S
C1456 C1457 1.387 . S
C1456 H1460 0.950 . S
C1456 C1465 1.390 . S
C1457 C1456 1.387 . S
C1457 C1459 1.387 . S
H1458 C1465 0.950 . S
C1459 C1457 1.387 . S
C1459 C1461 1.390 . S
C1459 H1463 0.950 . S
H1460 C1456 0.950 . S
C1461 C1459 1.390 . S
C1461 C1462 1.387 . S
C1461 H1464 0.950 . S
C1462 C1461 1.387 . S
C1462 C1465 1.387 . S
H1463 C1459 0.950 . S
H1464 C1461 0.950 . S
C1465 C1456 1.390 . S
C1465 H1458 0.950 . S
C1465 C1462 1.387 . S
C1466 C1467 1.387 . S
C1466 H1470 0.950 . S
C1466 C1475 1.390 . S
C1467 C1466 1.387 . S
C1467 C1469 1.387 . S
H1468 C1475 0.950 . S
C1469 C1467 1.387 . S
C1469 C1471 1.390 . S
C1469 H1473 0.950 . S
H1470 C1466 0.950 . S
C1471 C1469 1.390 . S
C1471 C1472 1.392 . S
C1471 H1474 0.950 1_565 S
C1472 C1471 1.392 . S
C1472 C1475 1.405 . S
H1473 C1469 0.950 . S
H1474 C1471 0.950 1_545 S
C1475 C1466 1.390 . S
C1475 H1468 0.950 . S
C1475 C1472 1.405 . S
C1476 C1477 1.387 . S
C1476 H1480 0.950 . S
C1476 C1485 1.390 . S
C1477 C1476 1.387 . S
C1477 C1479 1.387 . S
H1478 C1485 0.950 . S
C1479 C1477 1.387 . S
C1479 C1481 1.390 . S
C1479 H1483 0.950 1_565 S
H1480 C1476 0.950 . S
C1481 C1479 1.390 . S
C1481 C1482 1.387 . S
C1481 H1484 0.950 . S
C1482 C1481 1.387 . S
C1482 C1485 1.387 . S
H1483 C1479 0.950 1_545 S
H1484 C1481 0.950 . S
C1485 C1476 1.390 . S
C1485 H1478 0.950 . S
C1485 C1482 1.387 . S
C1486 C1487 1.387 . S
C1486 H1490 0.950 . S
C1486 C1495 1.390 . S
C1487 C1486 1.387 . S
C1487 C1489 1.387 . S
H1488 C1495 0.950 . S
C1489 C1487 1.387 . S
C1489 C1491 1.390 . S
C1489 H1493 0.923 1_554 S
H1490 C1486 0.950 . S
C1491 C1489 1.390 . S
C1491 C1492 1.387 . S
C1491 H1494 0.950 . S
C1492 C1491 1.387 . S
C1492 C1495 1.387 . S
H1493 C1489 0.923 1_556 S
H1494 C1491 0.950 . S
C1495 C1486 1.390 . S
C1495 H1488 0.950 . S
C1495 C1492 1.387 . S
C1496 C1497 1.387 . S
C1496 H1500 0.950 . S
C1496 C1505 1.390 . S
C1497 C1496 1.387 . S
C1497 C1499 1.387 . S
H1498 C1505 0.950 . S
C1499 C1497 1.387 . S
C1499 C1501 1.390 . S
C1499 H1503 0.950 . S
H1500 C1496 0.950 . S
C1501 C1499 1.390 . S
C1501 C1502 1.387 . S
C1501 H1504 0.950 . S
C1502 C1501 1.387 . S
C1502 C1505 1.387 . S
H1503 C1499 0.950 . S
H1504 C1501 0.950 . S
C1505 C1496 1.390 . S
C1505 H1498 0.950 . S
C1505 C1502 1.387 . S
C1506 C1507 1.387 . S
C1506 H1510 0.950 . S
C1506 C1515 1.390 . S
C1507 C1506 1.387 . S
C1507 C1509 1.387 . S
H1508 C1515 0.950 . S
C1509 C1507 1.387 . S
C1509 C1511 1.390 . S
C1509 H1513 0.950 . S
H1510 C1506 0.950 . S
C1511 C1509 1.390 . S
C1511 C1512 1.387 . S
C1511 H1514 0.950 . S
C1512 C1511 1.387 . S
C1512 C1515 1.387 . S
H1513 C1509 0.950 . S
H1514 C1511 0.950 . S
C1515 C1506 1.390 . S
C1515 H1508 0.950 . S
C1515 C1512 1.387 . S
C1516 C1517 1.387 . S
C1516 H1520 0.950 . S
C1516 C1525 1.390 . S
C1517 C1516 1.387 . S
C1517 C1519 1.387 . S
H1518 C1525 0.950 . S
C1519 C1517 1.387 . S
C1519 C1521 1.390 . S
C1519 H1523 0.950 . S
H1520 C1516 0.950 . S
C1521 C1519 1.390 . S
C1521 C1522 1.387 . S
C1521 H1524 0.950 . S
C1522 C1521 1.387 . S
C1522 C1525 1.387 . S
H1523 C1519 0.950 . S
H1524 C1521 0.950 . S
C1525 C1516 1.390 . S
C1525 H1518 0.950 . S
C1525 C1522 1.387 . S
C1526 C1527 1.387 . S
C1526 H1530 0.950 . S
C1526 C1535 1.390 . S
C1527 C1526 1.387 . S
C1527 C1529 1.387 . S
H1528 C1535 0.950 . S
C1529 C1527 1.387 . S
C1529 C1531 1.390 . S
C1529 H1533 0.950 . S
H1530 C1526 0.950 . S
C1531 C1529 1.390 . S
C1531 C1532 1.387 . S
C1531 H1534 0.950 . S
C1532 C1531 1.387 . S
C1532 C1535 1.387 . S
H1533 C1529 0.950 . S
H1534 C1531 0.950 . S
C1535 C1526 1.390 . S
C1535 H1528 0.950 . S
C1535 C1532 1.387 . S
C1536 C1537 1.387 . S
C1536 H1540 0.950 . S
C1536 C1545 1.390 . S
C1537 C1536 1.387 . S
C1537 C1539 1.387 . S
H1538 C1545 0.950 . S
C1539 C1537 1.387 . S
C1539 C1541 1.390 . S
C1539 H1543 0.950 . S
H1540 C1536 0.950 . S
C1541 C1539 1.390 . S
C1541 C1542 1.387 . S
C1541 H1544 0.950 . S
C1542 C1541 1.387 . S
C1542 C1545 1.387 . S
H1543 C1539 0.950 . S
H1544 C1541 0.950 . S
C1545 C1536 1.390 . S
C1545 H1538 0.950 . S
C1545 C1542 1.387 . S
C1546 C1547 1.387 . S
C1546 H1550 0.950 . S
C1546 C1555 1.390 . S
C1547 C1546 1.387 . S
C1547 C1549 1.387 . S
H1548 C1555 0.950 . S
C1549 C1547 1.387 . S
C1549 C1551 1.390 . S
C1549 H1553 0.950 . S
H1550 C1546 0.950 . S
C1551 C1549 1.390 . S
C1551 C1552 1.387 . S
C1551 H1554 0.950 . S
C1552 C1551 1.387 . S
C1552 C1555 1.387 . S
H1553 C1549 0.950 . S
H1554 C1551 0.950 . S
C1555 C1546 1.390 . S
C1555 H1548 0.950 . S
C1555 C1552 1.387 . S
C1556 C1557 1.387 . S
C1556 H1560 0.950 1_556 S
C1556 C1565 1.390 1_556 S
C1557 C1556 1.387 . S
C1557 C1559 1.387 . S
H1558 C1565 0.950 . S
C1559 C1557 1.387 . S
C1559 C1561 1.390 . S
C1559 H1563 0.950 . S
H1560 C1556 0.950 1_554 S
C1561 C1559 1.390 . S
C1561 C1562 1.364 1_556 S
C1561 H1564 0.950 . S
C1562 C1561 1.364 1_554 S
C1562 C1565 1.397 . S
H1563 C1559 0.950 . S
H1564 C1561 0.950 . S
C1565 C1556 1.390 1_554 S
C1565 H1558 0.950 . S
C1565 C1562 1.397 . S
C1566 C1567 1.387 . S
C1566 H1570 0.950 . S
C1566 C1575 1.390 . S
C1567 C1566 1.387 . S
C1567 C1569 1.387 . S
H1568 C1575 0.950 . S
C1569 C1567 1.387 . S
C1569 C1571 1.390 . S
C1569 H1573 0.950 . S
H1570 C1566 0.950 . S
C1571 C1569 1.390 . S
C1571 C1572 1.387 . S
C1571 H1574 0.950 . S
C1572 C1571 1.387 . S
C1572 C1575 1.387 . S
H1573 C1569 0.950 . S
H1574 C1571 0.950 . S
C1575 C1566 1.390 . S
C1575 H1568 0.950 . S
C1575 C1572 1.387 . S
C1576 C1577 1.387 . S
C1576 H1580 0.950 . S
C1576 C1585 1.390 . S
C1577 C1576 1.387 . S
C1577 C1579 1.387 . S
H1578 C1585 0.950 . S
C1579 C1577 1.387 . S
C1579 C1581 1.390 . S
C1579 H1583 0.950 . S
H1580 C1576 0.950 . S
C1581 C1579 1.390 . S
C1581 C1582 1.387 . S
C1581 H1584 0.950 . S
C1582 C1581 1.387 . S
C1582 C1585 1.387 . S
H1583 C1579 0.950 . S
H1584 C1581 0.950 . S
C1585 C1576 1.390 . S
C1585 H1578 0.950 . S
C1585 C1582 1.387 . S
C1586 C1587 1.387 . S
C1586 H1590 0.950 . S
C1586 C1595 1.390 . S
C1587 C1586 1.387 . S
C1587 C1589 1.387 . S
H1588 C1595 0.950 . S
C1589 C1587 1.387 . S
C1589 C1591 1.390 . S
C1589 H1593 0.950 . S
H1590 C1586 0.950 . S
C1591 C1589 1.390 . S
C1591 C1592 1.387 . S
C1591 H1594 0.950 . S
C1592 C1591 1.387 . S
C1592 C1595 1.387 . S
H1593 C1589 0.950 . S
H1594 C1591 0.950 . S
C1595 C1586 1.390 . S
C1595 H1588 0.950 . S
C1595 C1592 1.387 . S
C1596 C1597 1.387 . S
C1596 H1600 0.950 . S
C1596 C1605 1.390 . S
C1597 C1596 1.387 . S
C1597 C1599 1.387 1_455 S
H1598 C1605 0.950 . S
C1599 C1597 1.387 1_655 S
C1599 C1601 1.390 . S
C1599 H1603 0.950 . S
H1600 C1596 0.950 . S
C1601 C1599 1.390 . S
C1601 C1602 1.387 1_655 S
C1601 H1604 0.950 . S
C1602 C1601 1.387 1_455 S
C1602 C1605 1.387 . S
H1603 C1599 0.950 . S
H1604 C1601 0.950 . S
C1605 C1596 1.390 . S
C1605 H1598 0.950 . S
C1605 C1602 1.387 . S
C1606 C1607 1.387 . S
C1606 H1610 0.950 . S
C1606 C1615 1.390 . S
C1607 C1606 1.387 . S
C1607 C1609 1.387 . S
H1608 C1615 0.950 . S
C1609 C1607 1.387 . S
C1609 C1611 1.390 . S
C1609 H1613 0.950 . S
H1610 C1606 0.950 . S
C1611 C1609 1.390 . S
C1611 C1612 1.387 . S
C1611 H1614 0.950 . S
C1612 C1611 1.387 . S
C1612 C1615 1.387 . S
H1613 C1609 0.950 . S
H1614 C1611 0.950 . S
C1615 C1606 1.390 . S
C1615 H1608 0.950 . S
C1615 C1612 1.387 . S
C1616 C1617 1.387 . S
C1616 H1620 0.950 . S
C1616 C1625 1.390 . S
C1617 C1616 1.387 . S
C1617 C1619 1.387 . S
H1618 C1625 0.950 . S
C1619 C1617 1.387 . S
C1619 C1621 1.390 . S
C1619 H1623 0.950 . S
H1620 C1616 0.950 . S
C1621 C1619 1.390 . S
C1621 C1622 1.387 . S
C1621 H1624 0.950 . S
C1622 C1621 1.387 . S
C1622 C1625 1.387 . S
H1623 C1619 0.950 . S
H1624 C1621 0.950 . S
C1625 C1616 1.390 . S
C1625 H1618 0.950 . S
C1625 C1622 1.387 . S
C1626 C1627 1.387 . S
C1626 H1630 0.950 . S
C1626 C1635 1.390 . S
C1627 C1626 1.387 . S
C1627 C1629 1.387 . S
H1628 C1635 0.950 . S
C1629 C1627 1.387 . S
C1629 C1631 1.390 . S
C1629 H1633 0.950 . S
H1630 C1626 0.950 . S
C1631 C1629 1.390 . S
C1631 C1632 1.387 . S
C1631 H1634 0.950 . S
C1632 C1631 1.387 . S
C1632 C1635 1.387 . S
H1633 C1629 0.950 . S
H1634 C1631 0.950 . S
C1635 C1626 1.390 . S
C1635 H1628 0.950 . S
C1635 C1632 1.387 . S
C1636 C1637 1.387 . S
C1636 H1640 0.950 . S
C1636 C1645 1.390 . S
C1637 C1636 1.387 . S
C1637 C1639 1.387 . S
H1638 C1645 0.950 . S
C1639 C1637 1.387 . S
C1639 C1641 1.390 . S
C1639 H1643 0.950 . S
H1640 C1636 0.950 . S
C1641 C1639 1.390 . S
C1641 C1642 1.387 . S
C1641 H1644 0.950 . S
C1642 C1641 1.387 . S
C1642 C1645 1.387 . S
H1643 C1639 0.950 . S
H1644 C1641 0.950 . S
C1645 C1636 1.390 . S
C1645 H1638 0.950 . S
C1645 C1642 1.387 . S
C1646 C1647 1.387 . S
C1646 H1650 0.950 . S
C1646 C1655 1.390 . S
C1647 C1646 1.387 . S
C1647 C1649 1.387 . S
H1648 C1655 0.950 . S
C1649 C1647 1.387 . S
C1649 C1651 1.390 . S
C1649 H1653 0.950 . S
H1650 C1646 0.950 . S
C1651 C1649 1.390 . S
C1651 C1652 1.387 . S
C1651 H1654 0.950 . S
C1652 C1651 1.387 . S
C1652 C1655 1.387 . S
H1653 C1649 0.950 . S
H1654 C1651 0.950 . S
C1655 C1646 1.390 . S
C1655 H1648 0.950 . S
C1655 C1652 1.387 . S
C1656 C1657 1.387 . S
C1656 H1660 0.950 . S
C1656 C1665 1.390 . S
C1657 C1656 1.387 . S
C1657 C1659 1.387 . S
H1658 C1665 0.950 . S
C1659 C1657 1.387 . S
C1659 C1661 1.390 . S
C1659 H1663 0.950 . S
H1660 C1656 0.950 . S
C1661 C1659 1.390 . S
C1661 C1662 1.387 . S
C1661 H1664 0.950 . S
C1662 C1661 1.387 . S
C1662 C1665 1.387 . S
H1663 C1659 0.950 . S
H1664 C1661 0.950 . S
C1665 C1656 1.390 . S
C1665 H1658 0.950 . S
C1665 C1662 1.387 . S
C1666 C1667 1.387 . S
C1666 H1670 0.950 . S
C1666 C1675 1.390 . S
C1667 C1666 1.387 . S
C1667 C1669 1.387 . S
H1668 C1675 0.950 . S
C1669 C1667 1.387 . S
C1669 C1671 1.390 . S
C1669 H1673 0.950 . S
H1670 C1666 0.950 . S
C1671 C1669 1.390 . S
C1671 C1672 1.387 . S
C1671 H1674 0.950 . S
C1672 C1671 1.387 . S
C1672 C1675 1.387 . S
H1673 C1669 0.950 . S
H1674 C1671 0.950 . S
C1675 C1666 1.390 . S
C1675 H1668 0.950 . S
C1675 C1672 1.387 . S
C1676 C1677 1.387 . S
C1676 H1680 0.950 . S
C1676 C1685 1.390 . S
C1677 C1676 1.387 . S
C1677 C1679 1.387 . S
H1678 C1685 0.950 . S
C1679 C1677 1.387 . S
C1679 C1681 1.390 . S
C1679 H1683 0.950 . S
H1680 C1676 0.950 . S
C1681 C1679 1.390 . S
C1681 C1682 1.387 . S
C1681 H1684 0.950 . S
C1682 C1681 1.387 . S
C1682 C1685 1.387 . S
H1683 C1679 0.950 . S
H1684 C1681 0.950 . S
C1685 C1676 1.390 . S
C1685 H1678 0.950 . S
C1685 C1682 1.387 . S
C1686 C1687 1.387 . S
C1686 H1690 0.950 . S
C1686 C1695 1.390 . S
C1687 C1686 1.387 . S
C1687 C1689 1.387 . S
H1688 C1695 0.950 . S
C1689 C1687 1.387 . S
C1689 C1691 1.390 . S
C1689 H1693 0.950 . S
H1690 C1686 0.950 . S
C1691 C1689 1.390 . S
C1691 C1692 1.387 . S
C1691 H1694 0.950 . S
C1692 C1691 1.387 . S
C1692 C1695 1.387 . S
H1693 C1689 0.950 . S
H1694 C1691 0.950 . S
C1695 C1686 1.390 . S
C1695 H1688 0.950 . S
C1695 C1692 1.387 . S
C1696 C1697 1.387 . S
C1696 H1700 0.950 . S
C1696 C1705 1.390 . S
C1697 C1696 1.387 . S
C1697 C1699 1.387 . S
H1698 C1705 0.950 . S
C1699 C1697 1.387 . S
C1699 C1701 1.390 . S
C1699 H1703 0.950 . S
H1700 C1696 0.950 . S
C1701 C1699 1.390 . S
C1701 C1702 1.387 . S
C1701 H1704 0.950 . S
C1702 C1701 1.387 . S
C1702 C1705 1.387 . S
H1703 C1699 0.950 . S
H1704 C1701 0.950 . S
C1705 C1696 1.390 . S
C1705 H1698 0.950 . S
C1705 C1702 1.387 . S
C1706 C1707 1.387 . S
C1706 H1710 0.950 . S
C1706 C1715 1.390 . S
C1707 C1706 1.387 . S
C1707 C1709 1.387 . S
H1708 C1715 0.950 . S
C1709 C1707 1.387 . S
C1709 C1711 1.390 . S
C1709 H1713 0.950 . S
H1710 C1706 0.950 . S
C1711 C1709 1.390 . S
C1711 C1712 1.387 . S
C1711 H1714 0.950 . S
C1712 C1711 1.387 . S
C1712 C1715 1.387 . S
H1713 C1709 0.950 . S
H1714 C1711 0.950 . S
C1715 C1706 1.390 . S
C1715 H1708 0.950 . S
C1715 C1712 1.387 . S
C1716 C1717 1.387 . S
C1716 H1720 0.950 . S
C1716 C1725 1.390 . S
C1717 C1716 1.387 . S
C1717 C1719 1.387 . S
H1718 C1725 0.950 . S
C1719 C1717 1.387 . S
C1719 C1721 1.390 . S
C1719 H1723 0.950 . S
H1720 C1716 0.950 . S
C1721 C1719 1.390 . S
C1721 C1722 1.387 . S
C1721 H1724 0.950 . S
C1722 C1721 1.387 . S
C1722 C1725 1.387 . S
H1723 C1719 0.950 . S
H1724 C1721 0.950 . S
C1725 C1716 1.390 . S
C1725 H1718 0.950 . S
C1725 C1722 1.387 . S
C1726 C1727 1.387 . S
C1726 H1730 0.950 1_554 S
C1726 C1735 1.390 . S
C1727 C1726 1.387 . S
C1727 C1729 1.387 . S
H1728 C1735 0.950 1_556 S
C1729 C1727 1.387 . S
C1729 C1731 1.390 1_565 S
C1729 H1733 0.950 . S
H1730 C1726 0.950 1_556 S
C1731 C1729 1.390 1_545 S
C1731 C1732 1.388 . S
C1731 H1734 0.950 . S
C1732 C1731 1.388 . S
C1732 C1735 1.381 1_545 S
H1733 C1729 0.950 . S
H1734 C1731 0.950 . S
C1735 C1726 1.390 . S
C1735 H1728 0.950 1_554 S
C1735 C1732 1.381 1_565 S
C1736 C1737 1.387 . S
C1736 H1740 0.950 . S
C1736 C1745 1.390 . S
C1737 C1736 1.387 . S
C1737 C1739 1.387 . S
H1738 C1745 0.950 . S
C1739 C1737 1.387 . S
C1739 C1741 1.390 . S
C1739 H1743 0.950 . S
H1740 C1736 0.950 . S
C1741 C1739 1.390 . S
C1741 C1742 1.387 . S
C1741 H1744 0.950 . S
C1742 C1741 1.387 . S
C1742 C1745 1.387 . S
H1743 C1739 0.950 . S
H1744 C1741 0.950 . S
C1745 C1736 1.390 . S
C1745 H1738 0.950 . S
C1745 C1742 1.387 . S
C1746 C1747 1.387 . S
C1746 H1750 0.950 . S
C1746 C1755 1.390 . S
C1747 C1746 1.387 . S
C1747 C1749 1.387 . S
H1748 C1755 0.950 . S
C1749 C1747 1.387 . S
C1749 C1751 1.390 . S
C1749 H1753 0.950 . S
H1750 C1746 0.950 . S
C1751 C1749 1.390 . S
C1751 C1752 1.387 . S
C1751 H1754 0.950 . S
C1752 C1751 1.387 . S
C1752 C1755 1.387 . S
H1753 C1749 0.950 . S
H1754 C1751 0.950 . S
C1755 C1746 1.390 . S
C1755 H1748 0.950 . S
C1755 C1752 1.387 . S
C1756 C1757 1.387 . S
C1756 H1760 0.950 . S
C1756 C1765 1.390 . S
C1757 C1756 1.387 . S
C1757 C1759 1.387 . S
H1758 C1765 0.950 . S
C1759 C1757 1.387 . S
C1759 C1761 1.390 . S
C1759 H1763 0.950 . S
H1760 C1756 0.950 . S
C1761 C1759 1.390 . S
C1761 C1762 1.387 . S
C1761 H1764 0.950 . S
C1762 C1761 1.387 . S
C1762 C1765 1.387 . S
H1763 C1759 0.950 . S
H1764 C1761 0.950 . S
C1765 C1756 1.390 . S
C1765 H1758 0.950 . S
C1765 C1762 1.387 . S
C1766 C1767 1.387 . S
C1766 H1770 0.950 . S
C1766 C1775 1.390 . S
C1767 C1766 1.387 . S
C1767 C1769 1.387 . S
H1768 C1775 0.950 . S
C1769 C1767 1.387 . S
C1769 C1771 1.390 . S
C1769 H1773 0.950 . S
H1770 C1766 0.950 . S
C1771 C1769 1.390 . S
C1771 C1772 1.387 . S
C1771 H1774 0.950 . S
C1772 C1771 1.387 . S
C1772 C1775 1.387 . S
H1773 C1769 0.950 . S
H1774 C1771 0.950 . S
C1775 C1766 1.390 . S
C1775 H1768 0.950 . S
C1775 C1772 1.387 . S
C822 C337 1.978 . S
C817 C8 1.982 . S
C827 C22 1.362 . S
C832 C382 1.319 . S
C837 C35 1.653 . S
C842 C406 1.668 . S
C852 N432 1.252 . S
C847 C49 1.147 . S
C857 C23 1.671 . S
C862 N462 1.758 . S
C872 C496 1.529 . S
C867 C34 1.514 . S
C882 C532 1.191 . S
C877 C48 1.148 . S
C887 C9 1.986 . S
C892 C556 1.970 . S
C897 C64 1.173 . S
C902 N350 1.192 . S
C907 C77 1.119 . S
C912 N372 1.194 . S
C922 C412 1.300 . S
C917 C92 1.323 . S
C932 C436 1.909 . S
C927 C105 1.897 . S
C937 C63 1.241 . S
C942 C466 1.260 . S
C952 C502 1.412 . S
C947 C78 1.438 . S
C962 N522 1.272 . S
C957 C91 1.183 . S
C972 C562 1.898 . S
C967 C106 1.897 . S
C982 C363 1.840 . S
C977 C107 1.867 . S
C992 C592 1.110 . S
C987 C118 1.067 . S
C997 C135 1.398 . S
C1002 N612 1.470 . S
C1012 C646 1.692 . S
C1007 C146 1.685 . S
C1017 C65 1.169 . S
C1022 N552 1.173 . S
C1032 N402 1.499 1_565 S
C1027 C79 1.422 . S
C1037 C132 1.186 . S
C1042 C682 1.226 . S
C1052 C706 1.113 . S
C1047 C160 1.109 . S
C1057 C177 2.026 . S
C1062 C346 1.965 1_556 S
C1072 C723 0.959 . S
C1067 C188 0.946 . S
C1077 C204 1.961 . S
C1082 C397 1.935 . S
C1087 C219 1.280 . S
C1092 N680 1.285 . S
C1102 N470 1.373 . S
C1097 C190 1.370 . S
C1112 C607 1.614 . S
C1107 C202 1.603 . S
C1122 C543 1.149 . S
C1117 C217 1.116 . S
C1132 C727 1.790 . S
C1127 C175 1.764 . S
C1142 N342 1.050 1_655 S
C1137 C231 1.015 . S
C1147 C246 1.446 . S
C1152 N710 1.443 . S
C1162 C423 1.080 . S
C1157 C259 1.041 . S
C1167 C274 1.971 . S
C1172 C667 1.949 . S
C1177 C232 1.420 . S
C1182 C457 1.352 1_655 S
C1187 C245 1.090 . S
C1192 C633 1.128 . S
C1202 N530 1.307 . S
C1197 C260 1.304 . S
C1207 C273 1.749 . S
C1212 C753 1.747 . S
C1217 C275 1.925 . S
C1222 C352 1.882 1_565 S
C1227 C286 1.100 . S
C1232 C603 1.168 . S
C1237 C303 1.353 . S
C1242 N500 1.357 . S
C1247 C314 1.548 . S
C1252 C637 1.556 . S
C1262 N740 1.142 . S
C1257 C233 1.141 1_565 S
C1272 N410 1.321 . S
C1267 C247 1.316 . S
C1282 C453 1.119 . S
C1277 C300 1.082 . S
C1292 C367 1.175 . S
C1287 C328 1.188 . S
C1297 C36 1.970 . S
C1302 C757 1.966 . S
C1312 C712 1.322 . S
C1307 C50 1.365 . S
C1322 C796 1.646 . S
C1317 C7 1.639 . S
C1327 C21 1.140 . S
C1332 N672 1.243 . S
C1337 C51 1.655 . S
C1342 N582 1.740 1_556 S
C1352 C616 1.514 . S
C1347 C6 1.505 . S
C1362 C652 1.194 . S
C1357 C20 1.147 . S
C1372 C736 1.957 . S
C1367 C37 1.975 . S
C1382 N770 1.140 . S
C1377 C162 1.136 . S
C1387 C119 1.092 . S
C1392 N702 1.165 . S
C1397 C134 1.310 . S
C1402 C802 1.277 1_655 S
C1412 C676 1.904 . S
C1407 C147 1.891 . S
C1422 C586 1.250 . S
C1417 C161 1.226 . S
C1427 C120 1.429 . S
C1432 C622 1.394 . S
C1442 N642 1.248 1_655 S
C1437 C133 1.162 . S
C1447 C148 1.855 . S
C1452 C742 1.852 . S
C1462 C783 1.871 . S
C1457 C149 1.881 . S
C1472 C472 1.045 1_565 S
C1467 C76 1.013 . S
C1482 N492 1.522 . S
C1477 C93 1.444 1_565 S
C1487 C104 1.652 . S
C1492 C526 1.661 . S
C1502 N732 1.159 . S
C1497 C163 1.159 . S
C1507 C121 1.377 . S
C1512 N792 1.447 . S
C1522 C442 1.179 . S
C1517 C90 1.139 . S
C1532 C376 1.083 . S
C1527 C62 1.079 . S
C1537 C203 1.783 . S
C1542 C766 1.772 . S
C1552 C393 1.012 . S
C1547 C216 0.986 . S
C1562 C787 1.725 . S
C1557 C174 1.705 . S
C1567 C191 1.290 . S
C1572 N440 1.290 . S
C1577 C218 1.366 . S
C1582 N590 1.369 . S
C1587 C176 1.847 . S
C1592 C487 1.816 . S
C1597 C189 1.080 . S
C1602 C663 1.102 . S
C1607 C205 2.068 . S
C1612 C547 2.018 . S
C1622 N762 1.025 . S
C1617 C329 1.000 . S
C1627 C288 1.430 . S
C1632 N380 1.428 . S
C1642 C813 1.012 . S
C1637 C301 0.994 . S
C1647 C316 1.923 . S
C1652 C427 1.897 . S
C1657 C330 1.469 . S
C1662 C577 1.403 . S
C1672 C513 1.204 . S
C1667 C287 1.145 . S
C1677 C302 1.321 . S
C1682 N650 1.324 . S
C1692 C573 1.768 . S
C1687 C315 1.756 . S
C1702 C772 1.827 . S
C1697 C317 1.885 . S
C1712 C483 1.143 . S
C1707 C244 1.092 . S
C1717 C261 1.366 . S
C1722 N620 1.368 . S
C1732 C517 1.543 . S
C1727 C272 1.541 . S
C1742 N560 1.159 . S
C1737 C331 1.157 . S
C1747 C289 1.330 . S
C1752 N800 1.334 . S
C1762 C693 1.132 . S
C1757 C258 1.085 . S
C1772 C697 1.195 . S
C1767 C230 1.196 . S
