# Generated by pormake.
# Topology pts, (4,4)-cn, num edge types: 1
# Building blocks:
#     Node 0, Type 0, BuildingBlock: NAWXER_clean_sbu_0, # of connection points: 4
#     Node 1, Type 0, BuildingBlock: NAWXER_clean_sbu_0, # of connection points: 4
#     Node 2, Type 1, BuildingBlock: AZAVOO_clean_sbu_0, # of connection points: 4
#     Node 3, Type 1, BuildingBlock: AZAVOO_clean_sbu_0, # of connection points: 4
#     Edge 4, Type (0, 1), BuildingBlock: ZUJKAS_clean_linker_0, # of connection points: 2
#     Edge 5, Type (0, 1), BuildingBlock: ZUJKAS_clean_linker_0, # of connection points: 2
#     Edge 6, Type (0, 1), BuildingBlock: ZUJKAS_clean_linker_0, # of connection points: 2
#     Edge 7, Type (0, 1), BuildingBlock: ZUJKAS_clean_linker_0, # of connection points: 2
#     Edge 8, Type (0, 1), BuildingBlock: ZUJKAS_clean_linker_0, # of connection points: 2
#     Edge 9, Type (0, 1), BuildingBlock: ZUJKAS_clean_linker_0, # of connection points: 2
#     Edge 10, Type (0, 1), BuildingBlock: ZUJKAS_clean_linker_0, # of connection points: 2
#     Edge 11, Type (0, 1), BuildingBlock: ZUJKAS_clean_linker_0, # of connection points: 2
# Relax obj value: 0.010
# Max RMSD: 0.059
# Mean RMSD: 0.047
data_MOF--net-pts--node1-NAWXER_clean_sbu_0--node2-AZAVOO_clean_sbu_0--edge1-ZUJKAS_clean_linker_0
_symmetry_space_group_name_H-M    P1
_symmetry_Int_Tables_number       1
_symmetry_cell_setting            triclinic
loop_
_symmetry_equiv_pos_as_xyz
'x, y, z'
_cell_length_a     29.720306
_cell_length_b     30.528964
_cell_length_c     48.945393
_cell_angle_alpha  89.974175
_cell_angle_beta   95.977666
_cell_angle_gamma 90.053435
loop_
_atom_site_label
_atom_site_type_symbol
_atom_site_fract_x
_atom_site_fract_y
_atom_site_fract_z
_atom_type_partial_charge
C0 C 0.4865 0.06286 0.9732 0.0
C1 C 0.61516 0.0648 0.04474 0.0
O2 O 0.50047 0.0249 0.98131 0.0
Zn3 Zn 0.55121 0.9958 0.00932 0.0
O4 O 0.50684 0.09682 0.98326 0.0
Zn5 Zn 0.5513 0.06628 0.00876 0.0
O6 O 0.59423 0.03596 0.98197 0.0
O7 O 0.58814 0.96419 0.98522 0.0
O8 O 0.59567 0.09821 0.03332 0.0
O9 O 0.60122 0.02635 0.03754 0.0
O10 O 0.51432 0.96469 0.0335 0.0
O11 O 0.50937 0.03664 0.03677 0.0
C12 C 0.60571 0.99752 0.97483 0.0
C13 C 0.49784 0.99829 0.0442 0.0
C14 C 0.02193 0.57243 0.47242 0.0
C15 C 0.01103 0.4603 0.54245 0.0
O16 O 0.98628 0.5556 0.48022 0.0
Zn17 Zn 0.01605 0.51638 0.50726 0.0
O18 O 0.06079 0.5599 0.48358 0.0
Zn19 Zn 0.08756 0.51418 0.51464 0.0
O20 O 0.12239 0.47528 0.49406 0.0
O21 O 0.04884 0.47073 0.48223 0.0
O22 O 0.05212 0.47027 0.53929 0.0
O23 O 0.979 0.4793 0.52783 0.0
O24 O 0.04566 0.56116 0.53797 0.0
O25 O 0.11963 0.5516 0.54192 0.0
C26 C 0.0893 0.45847 0.47912 0.0
C27 C 0.08521 0.57127 0.54926 0.0
Mg28 Mg 0.09586 0.0041 0.27442 0.0
O29 O 0.02897 0.01714 0.24704 0.0
O30 O 0.97413 0.01961 0.27499 0.0
Mg31 Mg 1.00421 0.00881 0.3192 0.0
C32 C 0.98741 0.02201 0.25106 0.0
C33 C 0.13962 0.98984 0.22033 0.0
O34 O 0.11383 0.95498 0.22102 0.0
O35 O 0.09729 0.07545 0.28908 0.0
O36 O 0.04208 0.07397 0.31691 0.0
O37 O 0.08533 0.93131 0.27246 0.0
O38 O 0.06083 0.97374 0.3041 0.0
C39 C 0.07328 0.09416 0.30589 0.0
C40 C 0.06367 0.93515 0.29391 0.0
O41 O 0.13814 0.01883 0.2389 0.0
Mg42 Mg 0.00736 0.99946 0.74226 0.0
O43 O 0.07491 0.01719 0.76787 0.0
O44 O 0.127 0.02142 0.73808 0.0
Mg45 Mg 0.09473 0.00679 0.69475 0.0
C46 C 0.11554 0.02418 0.76246 0.0
C47 C 0.93708 0.98178 0.78059 0.0
O48 O 0.93561 0.94905 0.7631 0.0
O49 O 1.00053 0.07011 0.72618 0.0
O50 O 0.05399 0.07012 0.69713 0.0
O51 O 0.02361 0.92796 0.7463 0.0
O52 O 0.04196 0.96961 0.71237 0.0
C53 C 0.02262 0.08929 0.70854 0.0
C54 C 0.04317 0.93181 0.72402 0.0
O55 O 0.96564 0.01232 0.77825 0.0
H56 H 0.47006 0.06196 0.07748 0.0
H57 H 0.40979 0.05809 0.10757 0.0
H58 H 0.38654 0.92259 0.08541 0.0
H59 H 0.4479 0.92592 0.05562 0.0
H60 H 0.32155 0.04218 0.09273 0.0
H61 H 0.38983 0.91687 0.1681 0.0
H62 H 0.42425 0.94289 0.14449 0.0
H63 H 0.3866 0.89892 0.13304 0.0
C64 C 0.45256 0.0311 0.07923 0.0
C65 C 0.46383 0.99419 0.06415 0.0
C66 C 0.41802 0.029 0.09643 0.0
C67 C 0.39382 0.99 0.09896 0.0
C68 C 0.40535 0.95281 0.08425 0.0
H69 H 0.15756 0.92835 0.18247 0.0
H70 H 0.21782 0.92926 0.15211 0.0
C71 C 0.44032 0.95478 0.06715 0.0
C72 C 0.35511 0.98938 0.11589 0.0
H73 H 0.31391 0.93941 0.17061 0.0
C74 C 0.32 0.01979 0.10982 0.0
C75 C 0.35305 0.96014 0.13818 0.0
C76 C 0.39062 0.92812 0.14656 0.0
C77 C 0.28283 0.0216 0.12529 0.0
C78 C 0.28082 0.99241 0.14752 0.0
C79 C 0.31561 0.96172 0.15349 0.0
C80 C 0.24294 0.99327 0.16495 0.0
C81 C 0.24565 0.0543 0.11756 0.0
C82 C 0.23695 0.02918 0.18212 0.0
C83 C 0.20255 0.02878 0.19961 0.0
C84 C 0.17354 0.99242 0.20021 0.0
C85 C 0.17916 0.95694 0.18251 0.0
C86 C 0.21368 0.95729 0.16519 0.0
H87 H 0.24759 0.06807 0.0967 0.0
H88 H 0.21191 0.03894 0.11829 0.0
H89 H 0.24861 0.08175 0.1325 0.0
H90 H 0.25954 0.05708 0.18243 0.0
H91 H 0.19928 0.05654 0.21303 0.0
H92 H 0.07241 0.4114 0.57445 0.0
H93 H 0.05795 0.35615 0.60834 0.0
H94 H 0.91444 0.37885 0.5922 0.0
H95 H 0.92858 0.43407 0.55764 0.0
H96 H 0.01442 0.36406 0.65606 0.0
H97 H 0.9252 0.24614 0.58213 0.0
H98 H 0.95721 0.29178 0.57088 0.0
H99 H 0.90273 0.30076 0.58263 0.0
C100 C 0.03769 0.40473 0.57799 0.0
C101 C 1.00163 0.42701 0.56317 0.0
C102 C 0.02951 0.37319 0.59748 0.0
C103 C 0.98513 0.36312 0.60265 0.0
C104 C 0.94892 0.38565 0.58823 0.0
H105 H 0.94004 0.13063 0.70457 0.0
H106 H 0.92174 0.20258 0.68343 0.0
C107 C 0.95709 0.41726 0.56855 0.0
C108 C 0.9777 0.32839 0.6229 0.0
H109 H 0.94251 0.22237 0.62749 0.0
C110 C 0.99792 0.33336 0.64995 0.0
C111 C 0.95582 0.28849 0.61497 0.0
C112 C 0.93417 0.28107 0.58606 0.0
C113 C 0.99926 0.29863 0.66879 0.0
C114 C 0.9802 0.25785 0.66028 0.0
C115 C 0.95701 0.2538 0.63392 0.0
C116 C 0.99079 0.21743 0.67638 0.0
C117 C 0.02285 0.30519 0.69729 0.0
C118 C 0.03555 0.20235 0.67954 0.0
C119 C 0.04587 0.16146 0.69115 0.0
C120 C 0.01168 0.13482 0.70004 0.0
C121 C 0.96706 0.1507 0.69808 0.0
C122 C 0.95657 0.1916 0.68597 0.0
H123 H 0.0229 0.34024 0.70339 0.0
H124 H 0.00652 0.28557 0.71264 0.0
H125 H 0.05857 0.29441 0.69768 0.0
H126 H 0.06233 0.22144 0.67189 0.0
H127 H 0.08058 0.15014 0.69247 0.0
H128 H 0.66939 0.137 0.05712 0.0
H129 H 0.73947 0.13964 0.08867 0.0
H130 H 0.72018 0.0046 0.11058 0.0
H131 H 0.65131 0.00145 0.07917 0.0
H132 H 0.75636 0.12461 0.14462 0.0
H133 H 0.84765 0.00302 0.08773 0.0
H134 H 0.79612 0.02897 0.07307 0.0
H135 H 0.79393 0.98221 0.09537 0.0
C136 C 0.68007 0.10801 0.0688 0.0
C137 C 0.65506 0.06889 0.0654 0.0
C138 C 0.72014 0.10951 0.08671 0.0
C139 C 0.73569 0.07192 0.10136 0.0
C140 C 0.70965 0.03357 0.09883 0.0
H141 H 0.89565 0.02521 0.25113 0.0
H142 H 0.83919 0.04326 0.21323 0.0
C143 C 0.67002 0.03196 0.08096 0.0
C144 C 0.77856 0.0722 0.11985 0.0
H145 H 0.87533 0.01315 0.13551 0.0
C146 C 0.78279 0.10079 0.14239 0.0
C147 C 0.81362 0.04185 0.11661 0.0
C148 C 0.81287 0.01263 0.0917 0.0
C149 C 0.8196 0.09772 0.16278 0.0
C150 C 0.85242 0.06454 0.16083 0.0
C151 C 0.84981 0.03807 0.13729 0.0
C152 C 0.88755 0.05452 0.18383 0.0
C153 C 0.82257 0.12969 0.18639 0.0
C154 C 0.93361 0.05302 0.1797 0.0
C155 C 0.96623 0.04199 0.20138 0.0
C156 C 0.95329 0.03212 0.22755 0.0
C157 C 0.90702 0.03302 0.23138 0.0
C158 C 0.87459 0.0438 0.20975 0.0
H159 H 0.80563 0.16111 0.18019 0.0
H160 H 0.80508 0.11565 0.20334 0.0
H161 H 0.85827 0.13659 0.19427 0.0
H162 H 0.94433 0.06062 0.15975 0.0
H163 H 1.00153 0.04159 0.19768 0.0
H164 H 0.15989 0.59105 0.5851 0.0
H165 H 0.16578 0.64703 0.6213 0.0
H166 H 0.02797 0.68606 0.59694 0.0
H167 H 0.0214 0.62979 0.56154 0.0
H168 H 0.15819 0.73464 0.6194 0.0
H169 H 0.02451 0.66857 0.67792 0.0
H170 H 0.0477 0.63753 0.65132 0.0
H171 H 1.00307 0.67669 0.6427 0.0
C172 C 0.13083 0.61149 0.58758 0.0
C173 C 0.09002 0.60567 0.57066 0.0
C174 C 0.13424 0.6434 0.60826 0.0
C175 C 0.09694 0.66998 0.61229 0.0
C176 C 0.05671 0.66499 0.59485 0.0
H177 H 0.06842 0.9258 0.67229 0.0
H178 H 0.09082 0.86019 0.64898 0.0
C179 C 0.05312 0.63294 0.57446 0.0
C180 C 0.0999 0.70401 0.63404 0.0
H181 H 0.04136 0.74562 0.68441 0.0
C182 C 0.13317 0.73667 0.63398 0.0
C183 C 0.06816 0.70606 0.65364 0.0
C184 C 0.03422 0.67001 0.65662 0.0
C185 C 0.13352 0.77291 0.65169 0.0
C186 C 0.09887 0.77716 0.66931 0.0
C187 C 0.06758 0.74292 0.67066 0.0
C188 C 0.09169 0.81811 0.6847 0.0
C189 C 0.17081 0.80634 0.65108 0.0
C190 C 0.08415 0.81654 0.71256 0.0
C191 C 0.0702 0.854 0.72581 0.0
C192 C 0.06386 0.89377 0.71148 0.0
C193 C 0.07346 0.89577 0.68399 0.0
C194 C 0.08671 0.85824 0.67067 0.0
H195 H 0.20251 0.79073 0.64576 0.0
H196 H 0.16071 0.83109 0.635 0.0
H197 H 0.17789 0.8233 0.67113 0.0
H198 H 0.08755 0.78595 0.72382 0.0
H199 H 0.06309 0.85147 0.74702 0.0
H200 H 0.45267 0.13482 0.94351 0.0
H201 H 0.38746 0.13627 0.90813 0.0
H202 H 0.36415 0.99893 0.92189 0.0
H203 H 0.42892 0.99695 0.95644 0.0
H204 H 0.36658 0.018 0.86788 0.0
H205 H 0.25101 0.13174 0.91522 0.0
H206 H 0.30691 0.15244 0.91211 0.0
H207 H 0.29954 0.10703 0.93454 0.0
C208 C 0.43338 0.10509 0.93907 0.0
C209 C 0.44624 0.06574 0.95267 0.0
C210 C 0.39599 0.10601 0.919 0.0
C211 C 0.37072 0.06774 0.91253 0.0
C212 C 0.38314 0.02883 0.9265 0.0
H213 H 0.11254 0.01639 0.81827 0.0
H214 H 0.17418 0.03049 0.85461 0.0
C215 C 0.42036 0.0278 0.94626 0.0
C216 C 0.3329 0.0667 0.89018 0.0
H217 H 0.22652 0.10543 0.87061 0.0
C218 C 0.33604 0.03728 0.86843 0.0
C219 C 0.29287 0.09145 0.89113 0.0
C220 C 0.28696 0.12222 0.91458 0.0
C221 C 0.3002 0.03152 0.84777 0.0
C222 C 0.2604 0.05674 0.84842 0.0
C223 C 0.25719 0.08636 0.87008 0.0
C224 C 0.22177 0.05211 0.82683 0.0
C225 C 0.30484 0.99743 0.82589 0.0
C226 C 0.22772 0.06069 0.7993 0.0
C227 C 0.19293 0.05224 0.77857 0.0
C228 C 0.15108 0.03557 0.78492 0.0
C229 C 0.1444 0.02898 0.81266 0.0
C230 C 0.17952 0.03713 0.83345 0.0
H231 H 0.33176 0.97325 0.8324 0.0
H232 H 0.27254 0.97952 0.82072 0.0
H233 H 0.31402 0.01381 0.807 0.0
H234 H 0.25969 0.07317 0.79378 0.0
H235 H 0.19908 0.05843 0.75748 0.0
H236 H 0.02545 0.41171 0.44749 0.0
H237 H 0.03705 0.35754 0.41238 0.0
H238 H 0.18134 0.37696 0.42665 0.0
H239 H 0.17009 0.4309 0.46243 0.0
H240 H 0.07782 0.36657 0.36414 0.0
H241 H 0.16881 0.24449 0.43426 0.0
H242 H 0.13873 0.29024 0.44696 0.0
H243 H 0.19271 0.29859 0.43435 0.0
C244 C 0.05973 0.40447 0.44329 0.0
C245 C 0.09687 0.42546 0.45792 0.0
C246 C 0.06628 0.37357 0.42311 0.0
C247 C 0.11005 0.36293 0.41705 0.0
C248 C 0.14731 0.38415 0.43133 0.0
H249 H 0.15462 0.13756 0.31009 0.0
H250 H 0.17144 0.20879 0.33239 0.0
C251 C 0.14079 0.41503 0.45171 0.0
C252 C 0.11586 0.32914 0.39596 0.0
H253 H 0.15113 0.22387 0.38829 0.0
C254 C 0.09449 0.33561 0.3693 0.0
C255 C 0.13796 0.28891 0.40265 0.0
C256 C 0.16065 0.27976 0.43112 0.0
C257 C 0.09255 0.30211 0.3496 0.0
C258 C 0.1122 0.26107 0.35683 0.0
C259 C 0.13621 0.25551 0.38284 0.0
C260 C 0.1021 0.22173 0.33962 0.0
C261 C 0.06803 0.31032 0.32152 0.0
C262 C 0.0576 0.20589 0.33606 0.0
C263 C 0.04807 0.16535 0.32373 0.0
C264 C 0.08285 0.13986 0.31455 0.0
C265 C 0.12713 0.15672 0.31678 0.0
C266 C 0.13679 0.19723 0.32957 0.0
H267 H 0.06746 0.34577 0.31634 0.0
H268 H 0.084 0.29207 0.30545 0.0
H269 H 0.03248 0.29902 0.32127 0.0
H270 H 0.03047 0.22393 0.34408 0.0
H271 H 0.01362 0.15324 0.32224 0.0
H272 H 0.63216 0.92312 0.9489 0.0
H273 H 0.69046 0.91762 0.91687 0.0
H274 H 0.71606 0.05621 0.92511 0.0
H275 H 0.65822 0.06218 0.9567 0.0
H276 H 0.69292 0.97188 0.8651 0.0
H277 H 0.84294 0.99361 0.94178 0.0
H278 H 0.78895 0.97464 0.95106 0.0
H279 H 0.79718 0.03159 0.94391 0.0
C280 C 0.65027 0.95235 0.9439 0.0
C281 C 0.64047 0.99306 0.95536 0.0
C282 C 0.68351 0.94916 0.92564 0.0
C283 C 0.70783 0.98645 0.91894 0.0
C284 C 0.69805 0.02698 0.9303 0.0
H285 H 0.92131 0.04851 0.81623 0.0
H286 H 0.86541 0.04938 0.84984 0.0
C287 C 0.66473 0.0303 0.94826 0.0
C288 C 0.74262 0.98379 0.89945 0.0
H289 H 0.8558 0.99636 0.89483 0.0
C290 C 0.72859 0.97679 0.87156 0.0
C291 C 0.78897 0.99087 0.90799 0.0
C292 C 0.8057 0.99782 0.93784 0.0
C293 C 0.75967 0.97755 0.85182 0.0
C294 C 0.80619 0.98438 0.86035 0.0
C295 C 0.82018 0.9912 0.88831 0.0
C296 C 0.84087 0.9837 0.84059 0.0
C297 C 0.74214 0.97234 0.82193 0.0
C298 C 0.84632 0.94623 0.82473 0.0
C299 C 0.87786 0.94575 0.80552 0.0
C300 C 0.90516 0.98258 0.80194 0.0
C301 C 0.9007 0.0197 0.81843 0.0
C302 C 0.8688 0.02023 0.83762 0.0
H303 H 0.70557 0.98039 0.8182 0.0
H304 H 0.76101 0.9936 0.80865 0.0
H305 H 0.74647 0.93779 0.81569 0.0
H306 H 0.82606 0.91725 0.82718 0.0
H307 H 0.88072 0.91638 0.79342 0.0
H308 H 0.9466 0.61555 0.44869 0.0
H309 H 0.94422 0.67529 0.41505 0.0
H310 H 0.08878 0.66596 0.4138 0.0
H311 H 0.09163 0.60713 0.44757 0.0
H312 H 0.06025 0.74943 0.42223 0.0
H313 H 0.9584 0.67448 0.33258 0.0
H314 H 0.93289 0.67278 0.36428 0.0
H315 H 0.98387 0.64249 0.36115 0.0
C316 C 0.97779 0.62598 0.44104 0.0
C317 C 0.01933 0.60671 0.45091 0.0
C318 C 0.97632 0.6599 0.42168 0.0
C319 C 0.01628 0.67473 0.41172 0.0
C320 C 0.05755 0.65495 0.42118 0.0
H321 H 0.0743 0.84873 0.28132 0.0
H322 H 0.05672 0.78528 0.30895 0.0
C323 C 0.05909 0.62133 0.44054 0.0
C324 C 0.0161 0.71283 0.39294 0.0
H325 H 0.97775 0.74949 0.32873 0.0
C326 C 0.0421 0.74949 0.40181 0.0
C327 C 0.99268 0.7126 0.36625 0.0
C328 C 0.96566 0.67338 0.3553 0.0
C329 C 0.04575 0.78581 0.3847 0.0
C330 C 0.02179 0.78598 0.35815 0.0
C331 C 0.99562 0.7494 0.34921 0.0
C332 C 0.0255 0.82328 0.33915 0.0
C333 C 0.07641 0.82311 0.39493 0.0
C334 C 0.01204 0.86536 0.34636 0.0
C335 C 0.02243 0.90165 0.33082 0.0
C336 C 0.04589 0.89644 0.30753 0.0
C337 C 0.05633 0.85388 0.2992 0.0
C338 C 0.04625 0.81757 0.31493 0.0
H339 H 0.10045 0.81327 0.41279 0.0
H340 H 0.09614 0.83536 0.37844 0.0
H341 H 0.05557 0.85051 0.40155 0.0
H342 H 0.99524 0.87033 0.36472 0.0
H343 H 0.01369 0.93384 0.3378 0.0
loop_
_geom_bond_atom_site_label_1
_geom_bond_atom_site_label_2
_geom_bond_distance
_geom_bond_site_symmetry_2
_ccdc_geom_bond_type
C0 O2 1.247 1_545 S
C0 O4 1.258 . S
C1 O8 1.247 . S
C1 O9 1.258 1_545 S
O2 C0 1.247 1_565 S
O2 Zn3 2.028 1_556 S
Zn3 O2 2.028 1_554 S
Zn3 O7 2.035 1_554 S
Zn3 O9 2.035 . S
Zn3 O10 2.028 . S
O4 C0 1.258 . S
O4 Zn5 2.035 1_556 S
Zn5 O4 2.035 1_554 S
Zn5 O6 2.028 1_554 S
Zn5 O8 2.028 . S
Zn5 O11 2.035 . S
O6 Zn5 2.028 1_556 S
O6 C12 1.247 . S
O7 Zn3 2.035 1_556 S
O7 C12 1.258 1_565 S
O8 C1 1.247 . S
O8 Zn5 2.028 . S
O9 C1 1.258 1_565 S
O9 Zn3 2.035 . S
O10 Zn3 2.028 . S
O10 C13 1.247 1_565 S
O11 Zn5 2.035 . S
O11 C13 1.258 . S
C12 O6 1.247 . S
C12 O7 1.258 1_545 S
C13 O10 1.247 1_545 S
C13 O11 1.258 . S
C14 O16 1.247 . S
C14 O18 1.258 . S
C15 O22 1.247 . S
C15 O23 1.258 . S
O16 C14 1.247 . S
O16 Zn17 2.028 1_455 S
Zn17 O16 2.028 1_655 S
Zn17 O21 2.035 1_655 S
Zn17 O23 2.035 1_655 S
Zn17 O24 2.028 1_655 S
O18 C14 1.258 . S
O18 Zn19 2.035 . S
Zn19 O18 2.035 . S
Zn19 O20 2.028 . S
Zn19 O22 2.028 . S
Zn19 O25 2.035 . S
O20 Zn19 2.028 . S
O20 C26 1.247 . S
O21 Zn17 2.035 1_455 S
O21 C26 1.258 . S
O22 C15 1.247 . S
O22 Zn19 2.028 . S
O23 C15 1.258 . S
O23 Zn17 2.035 1_455 S
O24 Zn17 2.028 1_455 S
O24 C27 1.247 . S
O25 Zn19 2.035 . S
O25 C27 1.258 . S
C26 O20 1.247 . S
C26 O21 1.258 . S
C27 O24 1.247 . S
C27 O25 1.258 . S
Mg28 O29 2.028 . S
Mg28 O35 1.986 . S
Mg28 O37 2.114 1_545 S
Mg28 O38 2.251 1_545 S
Mg28 O41 2.010 . S
O29 Mg28 2.028 . S
O29 C32 1.250 . S
O30 Mg31 2.028 . S
O30 C32 1.248 1_655 S
Mg31 O30 2.028 . S
Mg31 O36 2.032 1_655 S
Mg31 O38 2.079 1_645 S
C32 O29 1.250 . S
C32 O30 1.248 1_455 S
C33 O34 1.264 . S
C33 O41 1.249 . S
O34 C33 1.264 . S
O35 Mg28 1.986 . S
O35 C39 1.246 . S
O36 Mg31 2.032 1_455 S
O36 C39 1.259 . S
O37 Mg28 2.114 1_565 S
O37 C40 1.252 . S
O38 Mg28 2.251 1_565 S
O38 Mg31 2.079 1_465 S
O38 C40 1.273 . S
C39 O35 1.246 . S
C39 O36 1.259 . S
C40 O37 1.252 . S
C40 O38 1.273 . S
O41 Mg28 2.010 . S
O41 C33 1.249 . S
Mg42 O43 2.028 1_655 S
Mg42 O49 1.986 1_655 S
Mg42 O51 2.114 1_545 S
Mg42 O52 2.251 1_645 S
Mg42 O55 2.010 . S
O43 Mg42 2.028 1_455 S
O43 C46 1.250 . S
O44 Mg45 2.028 . S
O44 C46 1.248 . S
Mg45 O44 2.028 . S
Mg45 O50 2.032 . S
Mg45 O52 2.079 1_545 S
C46 O43 1.250 . S
C46 O44 1.248 . S
C47 O48 1.264 . S
C47 O55 1.249 . S
O48 C47 1.264 . S
O49 Mg42 1.986 1_455 S
O49 C53 1.246 . S
O50 Mg45 2.032 . S
O50 C53 1.259 . S
O51 Mg42 2.114 1_565 S
O51 C54 1.252 1_655 S
O52 Mg42 2.251 1_465 S
O52 Mg45 2.079 1_565 S
O52 C54 1.273 . S
C53 O49 1.246 . S
C53 O50 1.259 . S
C54 O51 1.252 1_455 S
C54 O52 1.273 . S
O55 Mg42 2.010 . S
O55 C47 1.249 . S
H56 C64 0.929 . S
H57 C66 0.930 . S
H58 C68 0.930 . S
H59 C71 0.929 . S
H60 C74 0.930 . S
H61 C76 0.960 . S
H62 C76 0.960 . S
H63 C76 0.960 . S
C64 H56 0.929 . S
C64 C65 1.377 . S
C64 C66 1.384 . S
C65 C64 1.377 . S
C65 C71 1.390 1_545 S
C66 H57 0.930 . S
C66 C64 1.384 . S
C66 C67 1.372 . S
C67 C66 1.372 . S
C67 C68 1.400 1_545 S
C67 C72 1.490 . S
C68 H58 0.930 . S
C68 C67 1.400 1_565 S
C68 C71 1.386 . S
H69 C85 0.930 . S
H70 C86 0.931 . S
C71 H59 0.929 . S
C71 C65 1.390 1_565 S
C71 C68 1.386 . S
C72 C67 1.490 . S
C72 C74 1.395 . S
C72 C75 1.403 1_545 S
H73 C79 0.930 . S
C74 H60 0.930 . S
C74 C72 1.395 . S
C74 C77 1.403 . S
C75 C72 1.403 1_565 S
C75 C76 1.524 . S
C75 C79 1.400 . S
C76 H61 0.960 . S
C76 H62 0.960 . S
C76 H63 0.960 . S
C76 C75 1.524 . S
C77 C74 1.403 . S
C77 C78 1.392 . S
C77 C81 1.495 . S
C78 C77 1.392 . S
C78 C79 1.385 1_545 S
C78 C80 1.478 . S
C79 H73 0.930 . S
C79 C75 1.400 . S
C79 C78 1.385 1_565 S
C80 C78 1.478 . S
C80 C82 1.381 . S
C80 C86 1.383 1_545 S
C81 C77 1.495 . S
C81 H87 0.959 . S
C81 H88 0.961 . S
C81 H89 0.960 . S
C82 C80 1.381 . S
C82 C83 1.394 . S
C82 H90 0.930 . S
C83 C82 1.394 . S
C83 C84 1.383 . S
C83 H91 0.929 . S
C84 C83 1.383 . S
C84 C85 1.377 1_545 S
C85 H69 0.930 . S
C85 C84 1.377 1_565 S
C85 C86 1.379 . S
C86 H70 0.931 . S
C86 C80 1.383 1_565 S
C86 C85 1.379 . S
H87 C81 0.959 . S
H88 C81 0.961 . S
H89 C81 0.960 . S
H90 C82 0.930 . S
H91 C83 0.929 . S
H92 C100 0.929 . S
H93 C102 0.930 . S
H94 C104 0.930 1_655 S
H95 C107 0.929 1_655 S
H96 C110 0.930 . S
H97 C112 0.960 . S
H98 C112 0.960 . S
H99 C112 0.960 . S
C100 H92 0.929 . S
C100 C101 1.377 . S
C100 C102 1.384 . S
C101 C100 1.377 . S
C101 C107 1.390 . S
C102 H93 0.930 . S
C102 C100 1.384 . S
C102 C103 1.372 . S
C103 C102 1.372 . S
C103 C104 1.400 . S
C103 C108 1.490 . S
C104 H94 0.930 1_455 S
C104 C103 1.400 . S
C104 C107 1.386 . S
H105 C121 0.930 1_655 S
H106 C122 0.928 1_655 S
C107 H95 0.929 1_455 S
C107 C101 1.390 . S
C107 C104 1.386 . S
C108 C103 1.490 . S
C108 C110 1.395 . S
C108 C111 1.403 1_455 S
H109 C115 0.930 . S
C110 H96 0.930 . S
C110 C108 1.395 . S
C110 C113 1.403 . S
C111 C108 1.403 1_655 S
C111 C112 1.524 . S
C111 C115 1.400 . S
C112 H97 0.960 . S
C112 H98 0.960 . S
C112 H99 0.960 . S
C112 C111 1.524 . S
C113 C110 1.403 . S
C113 C114 1.392 . S
C113 C117 1.495 . S
C114 C113 1.392 . S
C114 C115 1.385 1_455 S
C114 C116 1.478 . S
C115 H109 0.930 . S
C115 C111 1.400 . S
C115 C114 1.385 1_655 S
C116 C114 1.478 . S
C116 C118 1.381 . S
C116 C122 1.383 . S
C117 C113 1.495 . S
C117 H123 0.959 . S
C117 H124 0.961 . S
C117 H125 0.960 . S
C118 C116 1.381 . S
C118 C119 1.394 . S
C118 H126 0.930 . S
C119 C118 1.394 . S
C119 C120 1.383 . S
C119 H127 0.929 . S
C120 C119 1.383 . S
C120 C121 1.377 . S
C121 H105 0.930 1_455 S
C121 C120 1.377 . S
C121 C122 1.379 . S
C122 H106 0.928 1_455 S
C122 C116 1.383 . S
C122 C121 1.379 . S
H123 C117 0.959 . S
H124 C117 0.961 . S
H125 C117 0.960 . S
H126 C118 0.930 . S
H127 C119 0.929 . S
H128 C136 0.929 . S
H129 C138 0.930 . S
H130 C140 0.926 1_565 S
H131 C143 0.932 . S
H132 C146 0.930 . S
H133 C148 0.960 . S
H134 C148 0.960 . S
H135 C148 0.960 . S
C136 H128 0.929 . S
C136 C137 1.377 . S
C136 C138 1.384 . S
C137 C136 1.377 . S
C137 C143 1.387 1_545 S
C138 H129 0.930 . S
C138 C136 1.384 . S
C138 C139 1.372 . S
C139 C138 1.372 . S
C139 C140 1.405 . S
C139 C144 1.490 . S
C140 H130 0.926 1_545 S
C140 C139 1.405 . S
C140 C143 1.385 1_545 S
H141 C157 0.930 . S
H142 C158 0.931 . S
C143 H131 0.932 . S
C143 C137 1.387 1_565 S
C143 C140 1.385 1_565 S
C144 C139 1.490 . S
C144 C146 1.395 . S
C144 C147 1.403 1_545 S
H145 C151 0.930 . S
C146 H132 0.930 . S
C146 C144 1.395 . S
C146 C149 1.403 . S
C147 C144 1.403 1_565 S
C147 C148 1.524 . S
C147 C151 1.400 . S
C148 H133 0.960 . S
C148 H134 0.960 . S
C148 H135 0.960 . S
C148 C147 1.524 . S
C149 C146 1.403 . S
C149 C150 1.392 . S
C149 C153 1.495 . S
C150 C149 1.392 . S
C150 C151 1.385 1_545 S
C150 C152 1.478 . S
C151 H145 0.930 . S
C151 C147 1.400 . S
C151 C150 1.385 1_565 S
C152 C150 1.478 . S
C152 C154 1.381 . S
C152 C158 1.383 . S
C153 C149 1.495 . S
C153 H159 0.959 . S
C153 H160 0.961 . S
C153 H161 0.960 . S
C154 C152 1.381 . S
C154 C155 1.394 . S
C154 H162 0.930 . S
C155 C154 1.394 . S
C155 C156 1.383 . S
C155 H163 0.929 1_655 S
C156 C155 1.383 . S
C156 C157 1.377 . S
C157 H141 0.930 . S
C157 C156 1.377 . S
C157 C158 1.379 . S
C158 H142 0.931 . S
C158 C152 1.383 . S
C158 C157 1.379 . S
H159 C153 0.959 . S
H160 C153 0.961 . S
H161 C153 0.960 . S
H162 C154 0.930 . S
H163 C155 0.929 1_455 S
H164 C172 0.929 . S
H165 C174 0.930 . S
H166 C176 0.930 1_655 S
H167 C179 0.929 1_655 S
H168 C182 0.930 . S
H169 C184 0.960 . S
H170 C184 0.960 . S
H171 C184 0.960 . S
C172 H164 0.929 . S
C172 C173 1.377 . S
C172 C174 1.384 . S
C173 C172 1.377 . S
C173 C179 1.390 . S
C174 H165 0.930 . S
C174 C172 1.384 . S
C174 C175 1.372 . S
C175 C174 1.372 . S
C175 C176 1.400 . S
C175 C180 1.490 . S
C176 H166 0.930 1_455 S
C176 C175 1.400 . S
C176 C179 1.386 . S
H177 C193 0.930 1_655 S
H178 C194 0.931 1_655 S
C179 H167 0.929 1_455 S
C179 C173 1.390 . S
C179 C176 1.386 . S
C180 C175 1.490 . S
C180 C182 1.395 . S
C180 C183 1.403 1_455 S
H181 C187 0.913 1_655 S
C182 H168 0.930 . S
C182 C180 1.395 . S
C182 C185 1.403 . S
C183 C180 1.403 1_655 S
C183 C184 1.524 . S
C183 C187 1.400 1_655 S
C184 H169 0.960 . S
C184 H170 0.960 . S
C184 H171 0.960 . S
C184 C183 1.524 . S
C185 C182 1.403 . S
C185 C186 1.392 . S
C185 C189 1.495 . S
C186 C185 1.392 . S
C186 C187 1.401 . S
C186 C188 1.478 . S
C187 H181 0.913 1_455 S
C187 C183 1.400 1_455 S
C187 C186 1.401 . S
C188 C186 1.478 . S
C188 C190 1.381 . S
C188 C194 1.383 . S
C189 C185 1.495 . S
C189 H195 0.959 . S
C189 H196 0.961 . S
C189 H197 0.960 . S
C190 C188 1.381 . S
C190 C191 1.394 . S
C190 H198 0.930 . S
C191 C190 1.394 . S
C191 C192 1.383 . S
C191 H199 0.929 . S
C192 C191 1.383 . S
C192 C193 1.377 . S
C193 H177 0.930 1_455 S
C193 C192 1.377 . S
C193 C194 1.379 . S
C194 H178 0.931 1_455 S
C194 C188 1.383 . S
C194 C193 1.379 . S
H195 C189 0.959 . S
H196 C189 0.961 . S
H197 C189 0.960 . S
H198 C190 0.930 . S
H199 C191 0.929 . S
H200 C208 0.929 . S
H201 C210 0.930 . S
H202 C212 0.930 . S
H203 C215 0.929 . S
H204 C218 0.930 . S
H205 C220 0.960 . S
H206 C220 0.960 . S
H207 C220 0.960 . S
C208 H200 0.929 . S
C208 C209 1.377 . S
C208 C210 1.384 . S
C209 C208 1.377 . S
C209 C215 1.390 1_545 S
C210 H201 0.930 . S
C210 C208 1.384 . S
C210 C211 1.372 . S
C211 C210 1.372 . S
C211 C212 1.400 1_545 S
C211 C216 1.490 . S
C212 H202 0.930 . S
C212 C211 1.400 1_565 S
C212 C215 1.386 . S
H213 C229 0.930 . S
H214 C230 0.931 . S
C215 H203 0.929 . S
C215 C209 1.390 1_565 S
C215 C212 1.386 . S
C216 C211 1.490 . S
C216 C218 1.395 . S
C216 C219 1.403 . S
H217 C223 0.930 . S
C218 H204 0.930 . S
C218 C216 1.395 . S
C218 C221 1.403 . S
C219 C216 1.403 . S
C219 C220 1.524 . S
C219 C223 1.400 . S
C220 H205 0.960 . S
C220 H206 0.960 . S
C220 H207 0.960 . S
C220 C219 1.524 . S
C221 C218 1.403 . S
C221 C222 1.392 . S
C221 C225 1.495 1_545 S
C222 C221 1.392 . S
C222 C223 1.385 . S
C222 C224 1.478 . S
C223 H217 0.930 . S
C223 C219 1.400 . S
C223 C222 1.385 . S
C224 C222 1.478 . S
C224 C226 1.381 . S
C224 C230 1.383 1_545 S
C225 C221 1.495 1_565 S
C225 H231 0.959 . S
C225 H232 0.961 . S
C225 H233 0.960 1_565 S
C226 C224 1.381 . S
C226 C227 1.394 . S
C226 H234 0.930 . S
C227 C226 1.394 . S
C227 C228 1.383 . S
C227 H235 0.929 . S
C228 C227 1.383 . S
C228 C229 1.377 1_545 S
C229 H213 0.930 . S
C229 C228 1.377 1_565 S
C229 C230 1.379 . S
C230 H214 0.931 . S
C230 C224 1.383 1_565 S
C230 C229 1.379 . S
H231 C225 0.959 . S
H232 C225 0.961 . S
H233 C225 0.960 1_545 S
H234 C226 0.930 . S
H235 C227 0.929 . S
H236 C244 0.929 . S
H237 C246 0.930 . S
H238 C248 0.930 . S
H239 C251 0.929 . S
H240 C254 0.930 1_655 S
H241 C256 0.960 . S
H242 C256 0.960 . S
H243 C256 0.960 . S
C244 H236 0.929 . S
C244 C245 1.377 . S
C244 C246 1.384 . S
C245 C244 1.377 . S
C245 C251 1.390 . S
C246 H237 0.930 . S
C246 C244 1.384 . S
C246 C247 1.372 . S
C247 C246 1.372 . S
C247 C248 1.400 . S
C247 C252 1.490 . S
C248 H238 0.930 . S
C248 C247 1.400 . S
C248 C251 1.386 . S
H249 C265 0.930 . S
H250 C266 0.931 . S
C251 H239 0.929 . S
C251 C245 1.390 . S
C251 C248 1.386 . S
C252 C247 1.490 . S
C252 C254 1.395 . S
C252 C255 1.403 . S
H253 C259 0.930 . S
C254 H240 0.930 1_455 S
C254 C252 1.395 . S
C254 C257 1.403 . S
C255 C252 1.403 . S
C255 C256 1.524 . S
C255 C259 1.400 . S
C256 H241 0.960 . S
C256 H242 0.960 . S
C256 H243 0.960 . S
C256 C255 1.524 . S
C257 C254 1.403 . S
C257 C258 1.392 . S
C257 C261 1.495 1_455 S
C258 C257 1.392 . S
C258 C259 1.385 . S
C258 C260 1.478 . S
C259 H253 0.930 . S
C259 C255 1.400 . S
C259 C258 1.385 . S
C260 C258 1.478 . S
C260 C262 1.381 . S
C260 C266 1.383 . S
C261 C257 1.495 1_655 S
C261 H267 0.959 . S
C261 H268 0.961 . S
C261 H269 0.960 . S
C262 C260 1.381 . S
C262 C263 1.394 . S
C262 H270 0.930 . S
C263 C262 1.394 . S
C263 C264 1.383 . S
C263 H271 0.929 . S
C264 C263 1.383 . S
C264 C265 1.377 . S
C265 H249 0.930 . S
C265 C264 1.377 . S
C265 C266 1.379 . S
C266 H250 0.931 . S
C266 C260 1.383 . S
C266 C265 1.379 . S
H267 C261 0.959 . S
H268 C261 0.961 . S
H269 C261 0.960 . S
H270 C262 0.930 . S
H271 C263 0.929 . S
H272 C280 0.929 . S
H273 C282 0.930 . S
H274 C284 0.930 . S
H275 C287 0.929 . S
H276 C290 0.930 . S
H277 C292 0.960 . S
H278 C292 0.960 1_565 S
H279 C292 0.960 . S
C280 H272 0.929 . S
C280 C281 1.377 1_565 S
C280 C282 1.384 . S
C281 C280 1.377 1_545 S
C281 C287 1.390 . S
C282 H273 0.930 . S
C282 C280 1.384 . S
C282 C283 1.372 1_565 S
C283 C282 1.372 1_545 S
C283 C284 1.400 . S
C283 C288 1.490 . S
C284 H274 0.930 . S
C284 C283 1.400 . S
C284 C287 1.386 . S
H285 C301 0.930 . S
H286 C302 0.931 . S
C287 H275 0.929 . S
C287 C281 1.390 . S
C287 C284 1.386 . S
C288 C283 1.490 . S
C288 C290 1.395 . S
C288 C291 1.403 . S
H289 C295 0.930 . S
C290 H276 0.930 . S
C290 C288 1.395 . S
C290 C293 1.403 . S
C291 C288 1.403 . S
C291 C292 1.524 . S
C291 C295 1.400 . S
C292 H277 0.960 . S
C292 H278 0.960 1_545 S
C292 H279 0.960 . S
C292 C291 1.524 . S
C293 C290 1.403 . S
C293 C294 1.392 . S
C293 C297 1.495 . S
C294 C293 1.392 . S
C294 C295 1.385 . S
C294 C296 1.478 . S
C295 H289 0.930 . S
C295 C291 1.400 . S
C295 C294 1.385 . S
C296 C294 1.478 . S
C296 C298 1.381 1_545 S
C296 C302 1.383 . S
C297 C293 1.495 . S
C297 H303 0.959 . S
C297 H304 0.961 . S
C297 H305 0.960 1_545 S
C298 C296 1.381 1_565 S
C298 C299 1.394 . S
C298 H306 0.930 . S
C299 C298 1.394 . S
C299 C300 1.383 1_565 S
C299 H307 0.929 . S
C300 C299 1.383 1_545 S
C300 C301 1.377 . S
C301 H285 0.930 . S
C301 C300 1.377 . S
C301 C302 1.379 . S
C302 H286 0.931 . S
C302 C296 1.383 . S
C302 C301 1.379 . S
H303 C297 0.959 . S
H304 C297 0.961 . S
H305 C297 0.960 1_565 S
H306 C298 0.930 . S
H307 C299 0.929 . S
H308 C316 0.929 . S
H309 C318 0.930 . S
H310 C320 0.930 . S
H311 C323 0.929 . S
H312 C326 0.930 . S
H313 C328 0.960 . S
H314 C328 0.960 . S
H315 C328 0.960 . S
C316 H308 0.929 . S
C316 C317 1.377 . S
C316 C318 1.384 . S
C317 C316 1.377 . S
C317 C323 1.390 . S
C318 H309 0.930 . S
C318 C316 1.384 . S
C318 C319 1.372 . S
C319 C318 1.372 . S
C319 C320 1.400 . S
C319 C324 1.490 . S
C320 H310 0.930 . S
C320 C319 1.400 . S
C320 C323 1.386 . S
H321 C337 0.930 . S
H322 C338 0.931 . S
C323 H311 0.929 . S
C323 C317 1.390 . S
C323 C320 1.386 . S
C324 C319 1.490 . S
C324 C326 1.395 . S
C324 C327 1.403 . S
H325 C331 0.930 . S
C326 H312 0.930 . S
C326 C324 1.395 . S
C326 C329 1.403 . S
C327 C324 1.403 . S
C327 C328 1.524 . S
C327 C331 1.400 . S
C328 H313 0.960 . S
C328 H314 0.960 . S
C328 H315 0.960 . S
C328 C327 1.524 . S
C329 C326 1.403 . S
C329 C330 1.392 . S
C329 C333 1.495 . S
C330 C329 1.392 . S
C330 C331 1.385 . S
C330 C332 1.478 . S
C331 H325 0.930 . S
C331 C327 1.400 . S
C331 C330 1.385 . S
C332 C330 1.478 . S
C332 C334 1.381 . S
C332 C338 1.383 . S
C333 C329 1.495 . S
C333 H339 0.959 . S
C333 H340 0.961 . S
C333 H341 0.960 . S
C334 C332 1.381 . S
C334 C335 1.394 . S
C334 H342 0.930 . S
C335 C334 1.394 . S
C335 C336 1.383 . S
C335 H343 0.929 . S
C336 C335 1.383 . S
C336 C337 1.377 . S
C337 H321 0.930 . S
C337 C336 1.377 . S
C337 C338 1.379 . S
C338 H322 0.931 . S
C338 C332 1.383 . S
C338 C337 1.379 . S
H339 C333 0.959 . S
H340 C333 0.961 . S
H341 C333 0.960 . S
H342 C334 0.930 . S
H343 C335 0.929 . S
C84 C33 1.286 . S
C65 C13 1.453 . S
C120 C53 1.407 . S
C101 C15 1.454 . S
C156 C32 1.438 1_655 S
C137 C1 1.470 . S
C192 C54 1.467 . S
C173 C27 1.470 . S
C228 C46 1.414 . S
C209 C0 1.470 . S
C264 C39 1.404 . S
C245 C26 1.454 . S
C300 C47 1.186 . S
C281 C12 1.454 . S
C317 C14 1.470 . S
C336 C40 1.464 . S
