# Generated by pormake.
# Topology pts, (4,4)-cn, num edge types: 1
# Building blocks:
#     Node 0, Type 0, BuildingBlock: MUDLON_clean_sbu_0, # of connection points: 4
#     Node 1, Type 0, BuildingBlock: MUDLON_clean_sbu_0, # of connection points: 4
#     Node 2, Type 1, BuildingBlock: QUQFOY_clean_sbu_1, # of connection points: 4
#     Node 3, Type 1, BuildingBlock: QUQFOY_clean_sbu_1, # of connection points: 4
#     Edge 4, Type (0, 1), BuildingBlock: ZUJKAS_clean_linker_0, # of connection points: 2
#     Edge 5, Type (0, 1), BuildingBlock: ZUJKAS_clean_linker_0, # of connection points: 2
#     Edge 6, Type (0, 1), BuildingBlock: ZUJKAS_clean_linker_0, # of connection points: 2
#     Edge 7, Type (0, 1), BuildingBlock: ZUJKAS_clean_linker_0, # of connection points: 2
#     Edge 8, Type (0, 1), BuildingBlock: ZUJKAS_clean_linker_0, # of connection points: 2
#     Edge 9, Type (0, 1), BuildingBlock: ZUJKAS_clean_linker_0, # of connection points: 2
#     Edge 10, Type (0, 1), BuildingBlock: ZUJKAS_clean_linker_0, # of connection points: 2
#     Edge 11, Type (0, 1), BuildingBlock: ZUJKAS_clean_linker_0, # of connection points: 2
# Relax obj value: 0.128
# Max RMSD: 0.245
# Mean RMSD: 0.144
data_MOF--net-pts--node1-MUDLON_clean_sbu_0--node2-QUQFOY_clean_sbu_1--edge1-ZUJKAS_clean_linker_0
_symmetry_space_group_name_H-M    P1
_symmetry_Int_Tables_number       1
_symmetry_cell_setting            triclinic
loop_
_symmetry_equiv_pos_as_xyz
'x, y, z'
_cell_length_a     27.991694
_cell_length_b     30.455689
_cell_length_c     53.029902
_cell_angle_alpha  90.179277
_cell_angle_beta   89.9615
_cell_angle_gamma 89.829161
loop_
_atom_site_label
_atom_site_type_symbol
_atom_site_fract_x
_atom_site_fract_y
_atom_site_fract_z
_atom_type_partial_charge
Mg0 Mg 0.49733 0.01866 0.02019 0.0
C1 C 0.407 0.97269 0.99854 0.0
O2 O 0.38913 0.97626 0.02138 0.0
C3 C 0.5271 0.97604 0.06869 0.0
O4 O 0.48423 0.9898 0.07507 0.0
C5 C 0.41462 0.07631 0.03961 0.0
O6 O 0.39805 0.07215 0.01656 0.0
O7 O 0.45617 0.0619 0.04464 0.0
O8 O 0.45 0.98401 0.99458 0.0
O9 O 0.54799 0.04804 0.99426 0.0
C10 C 0.56737 0.01769 0.9812 0.0
O11 O 0.55572 0.97681 0.98611 0.0
O12 O 0.54013 0.97931 0.04578 0.0
Mg13 Mg 0.01072 0.5113 0.51726 0.0
C14 C 0.05877 0.54713 0.56655 0.0
O15 O 0.05561 0.50695 0.57533 0.0
C16 C 0.0586 0.42727 0.50074 0.0
O17 O 0.04582 0.41589 0.52364 0.0
C18 C 0.01281 0.58444 0.48355 0.0
O19 O 0.0559 0.57935 0.49294 0.0
O20 O 0.98034 0.55773 0.49037 0.0
O21 O 0.04693 0.55477 0.54384 0.0
O22 O 0.96375 0.46668 0.53762 0.0
C23 C 0.9499 0.4727 0.56021 0.0
O24 O 0.95443 0.51183 0.5704 0.0
O25 O 0.05366 0.46715 0.4941 0.0
O26 O 0.94155 0.98037 0.24626 0.0
Cd27 Cd 0.00528 0.97872 0.26563 0.0
Cd28 Cd 0.98699 0.06572 0.26881 0.0
O29 O 0.92103 0.04906 0.25389 0.0
O30 O 0.01341 0.91517 0.27348 0.0
O31 O 0.00391 0.96598 0.30293 0.0
C32 C 0.00843 0.92498 0.297 0.0
C33 C 0.99419 0.11045 0.30454 0.0
C34 C 0.91158 1.01161 0.24445 0.0
C35 C 0.07244 0.03725 0.23799 0.0
O36 O 0.04379 0.06802 0.24401 0.0
O37 O 0.06572 0.99854 0.24621 0.0
O38 O 0.98217 0.12636 0.28293 0.0
O39 O 0.00036 0.06847 0.30613 0.0
O40 O 0.94789 0.05968 0.78461 0.0
Cd41 Cd 0.01002 0.0619 0.76378 0.0
Cd42 Cd 0.99444 0.9722 0.76309 0.0
O43 O 0.92974 0.98985 0.77914 0.0
O44 O 0.01551 0.12527 0.75479 0.0
O45 O 0.0052 0.07305 0.72632 0.0
C46 C 0.00884 0.11439 0.73155 0.0
C47 C -0.00157 0.91625 0.7326 0.0
C48 C 0.91959 0.02766 0.78794 0.0
C49 C 0.08068 1.00676 0.79155 0.0
O50 O 0.05301 0.97491 0.78652 0.0
O51 O 0.07224 0.04476 0.78263 0.0
O52 O 0.98897 0.90804 0.75588 0.0
O53 O 0.00388 0.95685 0.72624 0.0
H54 H 0.31985 0.09874 0.03701 0.0
H55 H 0.2629 0.10219 0.07197 0.0
H56 H 0.37731 0.0789 0.12474 0.0
H57 H 0.43449 0.07654 0.09012 0.0
H58 H 0.24428 0.03365 0.10209 0.0
H59 H 0.30337 0.17354 0.16107 0.0
H60 H 0.32385 0.16559 0.12908 0.0
H61 H 0.35087 0.1355 0.15454 0.0
C62 C 0.33312 0.09561 0.0561 0.0
C63 C 0.38176 0.08719 0.0607 0.0
C64 C 0.30047 0.09741 0.07607 0.0
C65 C 0.3158 0.09103 0.10102 0.0
C66 C 0.36466 0.08481 0.10575 0.0
H67 H 0.14146 0.98036 0.2207 0.0
H68 H 0.20189 0.99433 0.18834 0.0
C69 C 0.39735 0.08324 0.08584 0.0
C70 C 0.28034 0.08601 0.12168 0.0
H71 H 0.25042 0.12215 0.18069 0.0
C72 C 0.24539 0.05331 0.11918 0.0
C73 C 0.28162 0.11174 0.14394 0.0
C74 C 0.31665 0.14885 0.14725 0.0
C75 C 0.21222 0.04511 0.13844 0.0
C76 C 0.21473 0.06959 0.16112 0.0
C77 C 0.24903 0.10293 0.16345 0.0
C78 C 0.18095 0.06195 0.18225 0.0
C79 C 0.17434 1.01072 0.13411 0.0
C80 C 0.15056 0.09584 0.19037 0.0
C81 C 0.11635 0.08812 0.20903 0.0
C82 C 0.11183 0.04628 0.22 0.0
C83 C 0.14364 1.01284 0.21252 0.0
C84 C 0.17802 0.02069 0.19391 0.0
H85 H 0.16944 1.00354 0.11372 0.0
H86 H 0.18525 0.97979 0.14352 0.0
H87 H 0.13948 0.0213 0.14212 0.0
H88 H 0.15238 0.128 0.18176 0.0
H89 H 0.09263 0.11473 0.21438 0.0
H90 H 0.94313 0.47018 0.61171 0.0
H91 H 0.94649 0.40512 0.6385 0.0
H92 H 0.94163 0.32196 0.57261 0.0
H93 H 0.93935 0.38685 0.54559 0.0
H94 H 0.89039 0.33205 0.64572 0.0
H95 H 0.06627 0.28417 0.60528 0.0
H96 H 0.039 0.33682 0.59924 0.0
H97 H 0.01897 0.28876 0.5826 0.0
C98 C 0.94188 0.43809 0.60288 0.0
C99 C 0.94154 0.43382 0.57645 0.0
C100 C 0.94397 0.40087 0.61825 0.0
C101 C 0.94567 0.35866 0.60755 0.0
C102 C 0.94175 0.3542 0.58127 0.0
H103 H 0.99289 0.10345 0.68075 0.0
H104 H 0.97578 0.16089 0.64958 0.0
C105 C 0.93996 0.39139 0.56586 0.0
C106 C 0.95389 0.31971 0.62386 0.0
H107 H 0.03339 0.2368 0.6358 0.0
C108 C 0.92155 0.31115 0.64348 0.0
C109 C 0.99468 0.29243 0.62098 0.0
C110 C 0.03199 0.3011 0.60105 0.0
C111 C 0.92896 0.27623 0.66031 0.0
C112 C 0.97007 0.24945 0.65764 0.0
C113 C 0.00186 0.25733 0.63773 0.0
C114 C 0.98188 0.21461 0.67616 0.0
C115 C 0.89272 0.26821 0.68084 0.0
C116 C 0.99228 0.22589 0.70121 0.0
C117 C 0.00238 0.19334 0.71895 0.0
C118 C 0.00234 0.14869 0.71202 0.0
C119 C 0.99318 0.1375 0.68671 0.0
C120 C 0.98329 0.17024 0.6689 0.0
H121 H 0.85784 0.28398 0.67653 0.0
H122 H 0.88698 0.23249 0.68366 0.0
H123 H 0.90613 0.28226 0.69881 0.0
H124 H 0.9923 0.25999 0.7071 0.0
H125 H 0.00938 0.20322 0.73823 0.0
H126 H 0.51494 0.98009 0.11981 0.0
H127 H 0.57747 0.98067 0.15193 0.0
H128 H 0.68332 0.95281 0.09495 0.0
H129 H 0.62115 0.95295 0.06255 0.0
H130 H 0.64802 0.92229 0.16829 0.0
H131 H 0.72664 0.07074 0.1244 0.0
H132 H 0.66871 0.04985 0.11565 0.0
H133 H 0.72208 0.02457 0.10341 0.0
C134 C 0.55138 0.9733 0.11411 0.0
C135 C 0.56312 0.96716 0.08852 0.0
C136 C 0.5871 0.97369 0.13253 0.0
C137 C 0.63513 0.96792 0.12571 0.0
C138 C 0.64656 0.95841 0.1005 0.0
H139 H 0.88239 0.93619 0.2212 0.0
H140 H 0.81269 0.9257 0.1944 0.0
C141 C 0.61091 0.95818 0.08203 0.0
C142 C 0.67336 0.97467 0.14467 0.0
H143 H 0.76995 0.03883 0.15807 0.0
C144 C 0.67467 0.94778 0.16611 0.0
C145 C 0.7074 1.00866 0.14208 0.0
C146 C 0.70603 0.04043 0.12029 0.0
C147 C 0.70992 0.95325 0.18471 0.0
C148 C 0.74515 0.98604 0.18156 0.0
C149 C 0.74311 1.01354 0.16041 0.0
C150 C 0.78541 0.99168 0.19947 0.0
C151 C 0.70871 0.92424 0.20771 0.0
C152 C 0.79372 0.03253 0.21103 0.0
C153 C 0.83398 0.03885 0.22625 0.0
C154 C 0.86682 1.00447 0.23006 0.0
C155 C 0.85781 0.96339 0.2188 0.0
C156 C 0.8177 0.95717 0.20358 0.0
H157 H 0.6724 0.91078 0.21102 0.0
H158 H 0.73344 0.89612 0.20485 0.0
H159 H 0.72018 0.94244 0.22484 0.0
H160 H 0.76938 0.05971 0.20797 0.0
H161 H 0.83984 0.0709 0.23458 0.0
H162 H 0.0581 0.54679 0.61826 0.0
H163 H 0.05341 0.61074 0.6463 0.0
H164 H 0.06742 0.69692 0.58242 0.0
H165 H 0.07231 0.63334 0.55424 0.0
H166 H 0.12063 0.72281 0.62787 0.0
H167 H 0.92871 0.68729 0.64529 0.0
H168 H 0.96931 0.64249 0.65083 0.0
H169 H 0.96156 0.66311 0.61941 0.0
C170 C 0.06124 0.57929 0.6102 0.0
C171 C 0.06516 0.5849 0.58396 0.0
C172 C 0.0582 0.6158 0.62624 0.0
C173 C 0.0592 0.65851 0.61636 0.0
C174 C 0.06627 0.66423 0.5904 0.0
H175 H 0.02218 0.92114 0.68235 0.0
H176 H 0.0372 0.85986 0.65323 0.0
C177 C 0.06906 0.6278 0.57434 0.0
C178 C 0.04974 0.69712 0.63277 0.0
H179 H 0.96254 0.74596 0.66824 0.0
C180 C 0.0861 0.72801 0.63669 0.0
C181 C 0.0045 0.70391 0.64406 0.0
C182 C 0.96354 0.67273 0.6396 0.0
C183 C 0.0788 0.76497 0.65224 0.0
C184 C 0.03359 0.77161 0.66367 0.0
C185 C 0.99715 0.74087 0.65948 0.0
C186 C 0.0237 0.80921 0.68087 0.0
C187 C 0.11995 0.79584 0.65686 0.0
C188 C 0.00953 0.80119 0.70581 0.0
C189 C 0.00043 0.83601 0.72234 0.0
C190 C 0.00515 0.87977 0.71431 0.0
C191 C 0.01837 0.88785 0.68915 0.0
C192 C 0.02739 0.85285 0.67256 0.0
H193 H 0.1548 0.78053 0.6519 0.0
H194 H 0.11533 0.82551 0.645 0.0
H195 H 0.12109 0.80644 0.6769 0.0
H196 H 0.00613 0.76783 0.71262 0.0
H197 H 0.9903 0.82852 0.74157 0.0
H198 H 0.43175 0.97206 0.9487 0.0
H199 H 0.37831 0.97317 0.91247 0.0
H200 H 0.25717 0.95665 0.96179 0.0
H201 H 0.31043 0.95687 0.99842 0.0
H202 H 0.31369 0.91825 0.89207 0.0
H203 H 0.22367 0.06983 0.92605 0.0
H204 H 0.27718 0.04853 0.94052 0.0
H205 H 0.21996 0.02495 0.9478 0.0
C206 C 0.39378 0.96813 0.95193 0.0
C207 C 0.37532 0.96504 0.97656 0.0
C208 C 0.36325 0.96878 0.93112 0.0
C209 C 0.31364 0.96619 0.93444 0.0
C210 C 0.29527 0.95998 0.95884 0.0
H211 H 0.10331 0.93134 0.8166 0.0
H212 H 0.16232 0.92147 0.84979 0.0
C213 C 0.3258 0.95967 0.97975 0.0
C214 C 0.28143 0.97197 0.91244 0.0
H215 H 0.1913 0.03627 0.88954 0.0
C216 C 0.28693 0.94406 0.8915 0.0
C217 C 0.24733 1.00637 0.91144 0.0
C218 C 0.2419 0.03943 0.93252 0.0
C219 C 0.25871 0.9491 0.86979 0.0
C220 C 0.22324 0.98232 0.86924 0.0
C221 C 0.21829 1.01065 0.89001 0.0
C222 C 0.1899 0.98766 0.84766 0.0
C223 C 0.26787 0.91931 0.84751 0.0
C224 C 0.18516 0.02841 0.83553 0.0
C225 C 0.15083 0.03443 0.81664 0.0
C226 C 0.12049 0.99977 0.80958 0.0
C227 C 0.1262 0.95874 0.82139 0.0
C228 C 0.16024 0.95287 0.84032 0.0
H229 H 0.30491 0.90608 0.84771 0.0
H230 H 0.24304 0.89102 0.84834 0.0
H231 H 0.26201 0.93675 0.82941 0.0
H232 H 0.20753 0.05581 0.84098 0.0
H233 H 0.14735 0.06646 0.80802 0.0
H234 H 0.06954 0.33895 0.50815 0.0
H235 H 0.06884 0.28111 0.47608 0.0
H236 H 0.0634 0.3792 0.41767 0.0
H237 H 0.06528 0.43714 0.44951 0.0
H238 H 0.9962 0.26659 0.4443 0.0
H239 H 0.15973 0.29551 0.38825 0.0
H240 H 0.15038 0.32029 0.41883 0.0
H241 H 0.12389 0.34416 0.39111 0.0
C242 C 0.06948 0.34827 0.48846 0.0
C243 C 0.0674 0.39276 0.48144 0.0
C244 C 0.0689 0.31511 0.47013 0.0
C245 C 0.06638 0.32569 0.44441 0.0
C246 C 0.06641 0.37009 0.43732 0.0
H247 H 0.99074 0.19998 0.30524 0.0
H248 H 0.0094 0.24924 0.34029 0.0
C249 C 0.0673 0.40329 0.45562 0.0
C250 C 0.05884 0.29063 0.42522 0.0
H251 H 0.09899 0.25156 0.36854 0.0
C252 C 0.01913 0.26287 0.42793 0.0
C253 C 0.08865 0.28578 0.40382 0.0
C254 C 0.13331 0.31274 0.40043 0.0
C255 C 0.00745 0.2316 0.40941 0.0
C256 C 0.03643 0.22774 0.38769 0.0
C257 C 0.07671 0.25476 0.38519 0.0
C258 C 0.02437 0.19721 0.3668 0.0
C259 C 0.96322 0.20402 0.41274 0.0
C260 C 0.0265 0.15151 0.37011 0.0
C261 C 0.01587 0.12312 0.35005 0.0
C262 C 0.00288 0.13999 0.32635 0.0
C263 C 0.00041 0.18582 0.32324 0.0
C264 C 0.01125 0.21408 0.34323 0.0
H265 H 0.94024 0.21624 0.42836 0.0
H266 H 0.94189 0.2035 0.39509 0.0
H267 H 0.97387 0.16974 0.41705 0.0
H268 H 0.03703 0.13784 0.38811 0.0
H269 H 0.01836 0.08802 0.35303 0.0
H270 H 0.60307 0.09753 0.9656 0.0
H271 H 0.65738 0.11072 0.92988 0.0
H272 H 0.6606 0.97187 0.91389 0.0
H273 H 0.60702 0.95841 0.94907 0.0
H274 H 0.75148 0.07206 0.92205 0.0
H275 H 0.62561 0.02853 0.84546 0.0
H276 H 0.60596 0.0428 0.87691 0.0
H277 H 0.628 0.98847 0.8702 0.0
C278 C 0.61533 0.06992 0.9544 0.0
C279 C 0.60058 0.02697 0.96014 0.0
C280 C 0.64622 0.07749 0.93403 0.0
C281 C 0.66218 0.04232 0.919 0.0
C282 C 0.64787 0.99955 0.92491 0.0
H283 H 0.85696 0.96509 0.8046 0.0
H284 H 0.79219 0.97466 0.83511 0.0
C285 C 0.61742 0.99195 0.94519 0.0
C286 C 0.69543 0.04918 0.89766 0.0
H287 H 0.70899 0.02701 0.8349 0.0
C288 C 0.74208 0.06313 0.90287 0.0
C289 C 0.68293 0.03729 0.87272 0.0
C290 C 0.63275 0.02382 0.86588 0.0
C291 C 0.77743 0.06303 0.88405 0.0
C292 C 0.76538 0.04939 0.8593 0.0
C293 C 0.71818 0.03726 0.85389 0.0
C294 C 0.80195 0.04477 0.83923 0.0
C295 C 0.82791 0.07522 0.89114 0.0
C296 C 0.82788 0.08124 0.83084 0.0
C297 C 0.86501 0.07589 0.81345 0.0
C298 C 0.87668 0.03395 0.80398 0.0
C299 C 0.84904 0.9978 0.81152 0.0
C300 C 0.81202 1.00321 0.82898 0.0
H301 H 0.83316 0.07596 0.9119 0.0
H302 H 0.8539 0.0517 0.88279 0.0
H303 H 0.83605 0.10838 0.8837 0.0
H304 H 0.81998 0.11375 0.8381 0.0
H305 H 0.88525 0.10452 0.80789 0.0
H306 H 0.9354 0.59708 0.45199 0.0
H307 H 0.92699 0.65393 0.4193 0.0
H308 H 0.06219 0.70927 0.44156 0.0
H309 H 0.07111 0.65306 0.47365 0.0
H310 H 0.92898 0.7489 0.42176 0.0
H311 H 0.07986 0.68127 0.36613 0.0
H312 H 0.05078 0.65064 0.39083 0.0
H313 H 0.09507 0.69123 0.39851 0.0
C314 C 0.96308 0.62158 0.44996 0.0
C315 C 0.00423 0.62015 0.46516 0.0
C316 C 0.95826 0.65398 0.43132 0.0
C317 C 0.99449 0.68522 0.42769 0.0
C318 C 0.03435 0.68491 0.44364 0.0
H319 H 0.00515 0.93359 0.34855 0.0
H320 H -0.00185 0.8748 0.37979 0.0
C321 C 0.03929 0.65269 0.46204 0.0
C322 C 0.99214 0.71768 0.40693 0.0
H323 H 0.05512 0.75419 0.35606 0.0
C324 C 0.95617 0.74987 0.40719 0.0
C325 C 0.02728 0.7185 0.38775 0.0
C326 C 0.06516 0.6833 0.38557 0.0
C327 C 0.9555 0.78387 0.38928 0.0
C328 C 0.99236 0.78611 0.37099 0.0
C329 C 0.02724 0.75292 0.37026 0.0
C330 C 0.99555 0.82221 0.35224 0.0
C331 C 0.91514 0.81678 0.39001 0.0
C332 C -0.0019 0.81223 0.32642 0.0
C333 C 0.00305 0.84561 0.30862 0.0
C334 C 0.00548 0.88984 0.31621 0.0
C335 C 0.00323 0.89987 0.34209 0.0
C336 C -0.00133 0.86632 0.35995 0.0
H337 H 0.88321 0.80325 0.39969 0.0
H338 H 0.92681 0.84628 0.40065 0.0
H339 H 0.90473 0.82711 0.37072 0.0
H340 H 0.99608 0.77848 0.31999 0.0
H341 H 0.00446 0.83669 0.28884 0.0
loop_
_geom_bond_atom_site_label_1
_geom_bond_atom_site_label_2
_geom_bond_distance
_geom_bond_site_symmetry_2
_ccdc_geom_bond_type
Mg0 O7 2.141 . S
Mg0 O8 2.048 1_554 S
Mg0 O9 2.048 1_554 S
Mg0 O12 2.141 . S
C1 O2 1.313 . S
C1 O8 1.195 1_565 S
O2 C1 1.313 . S
C3 O4 1.245 . S
C3 O12 1.289 1_565 S
O4 C3 1.245 . S
C5 O6 1.245 . S
C5 O7 1.289 1_565 S
O6 C5 1.245 . S
O7 Mg0 2.141 . S
O7 C5 1.289 1_545 S
O8 Mg0 2.048 1_556 S
O8 C1 1.195 1_545 S
O9 Mg0 2.048 1_556 S
O9 C10 1.195 1_545 S
C10 O9 1.195 1_565 S
C10 O11 1.313 . S
O11 C10 1.313 . S
O12 Mg0 2.141 . S
O12 C3 1.289 1_545 S
Mg13 O20 2.141 . S
Mg13 O21 2.048 . S
Mg13 O22 2.048 . S
Mg13 O25 2.141 . S
C14 O15 1.313 . S
C14 O21 1.195 1_455 S
O15 C14 1.313 . S
C16 O17 1.245 . S
C16 O25 1.289 1_455 S
O17 C16 1.245 . S
C18 O19 1.245 . S
C18 O20 1.289 1_455 S
O19 C18 1.245 . S
O20 Mg13 2.141 . S
O20 C18 1.289 1_655 S
O21 Mg13 2.048 . S
O21 C14 1.195 1_655 S
O22 Mg13 2.048 . S
O22 C23 1.195 1_655 S
C23 O22 1.195 1_455 S
C23 O24 1.313 . S
O24 C23 1.313 . S
O25 Mg13 2.141 . S
O25 C16 1.289 1_655 S
O26 Cd27 2.223 1_655 S
O26 C34 1.315 . S
Cd27 O26 2.223 1_455 S
Cd27 O30 2.297 1_455 S
Cd27 O31 2.439 1_455 S
Cd27 O37 2.240 1_565 S
Cd28 O29 2.240 1_545 S
Cd28 O36 2.223 1_655 S
Cd28 O38 2.297 1_655 S
Cd28 O39 2.439 1_655 S
O29 Cd28 2.240 1_565 S
O29 C34 1.279 . S
O30 Cd27 2.297 1_655 S
O30 C32 1.247 . S
O31 Cd27 2.439 1_655 S
O31 C32 1.208 . S
C32 O30 1.247 . S
C32 O31 1.208 . S
C33 O38 1.247 . S
C33 O39 1.208 . S
C34 O26 1.315 . S
C34 O29 1.279 . S
C35 O36 1.315 . S
C35 O37 1.279 . S
O36 Cd28 2.223 1_455 S
O36 C35 1.315 . S
O37 Cd27 2.240 1_545 S
O37 C35 1.279 . S
O38 Cd28 2.297 1_455 S
O38 C33 1.247 . S
O39 Cd28 2.439 1_455 S
O39 C33 1.208 . S
O40 Cd41 2.223 1_655 S
O40 C48 1.315 . S
Cd41 O40 2.223 1_455 S
Cd41 O44 2.297 1_455 S
Cd41 O45 2.439 1_455 S
Cd41 O51 2.240 1_545 S
Cd42 O43 2.240 1_565 S
Cd42 O50 2.223 1_655 S
Cd42 O52 2.297 1_655 S
Cd42 O53 2.439 1_655 S
O43 Cd42 2.240 1_545 S
O43 C48 1.279 . S
O44 Cd41 2.297 1_655 S
O44 C46 1.247 . S
O45 Cd41 2.439 1_655 S
O45 C46 1.208 . S
C46 O44 1.247 . S
C46 O45 1.208 . S
C47 O52 1.247 . S
C47 O53 1.208 . S
C48 O40 1.315 . S
C48 O43 1.279 . S
C49 O50 1.315 . S
C49 O51 1.279 . S
O50 Cd42 2.223 1_455 S
O50 C49 1.315 . S
O51 Cd41 2.240 1_565 S
O51 C49 1.279 . S
O52 Cd42 2.297 1_455 S
O52 C47 1.247 . S
O53 Cd42 2.439 1_455 S
O53 C47 1.208 . S
H54 C62 0.928 1_565 S
H55 C64 0.930 . S
H56 C66 0.930 . S
H57 C69 0.929 . S
H58 C72 0.930 . S
H59 C74 0.960 . S
H60 C74 0.960 . S
H61 C74 0.960 . S
C62 H54 0.928 1_545 S
C62 C63 1.378 . S
C62 C64 1.385 . S
C63 C62 1.378 . S
C63 C69 1.390 . S
C64 H55 0.930 . S
C64 C62 1.385 . S
C64 C65 1.372 . S
C65 C64 1.372 . S
C65 C66 1.400 . S
C65 C70 1.490 . S
C66 H56 0.930 . S
C66 C65 1.400 . S
C66 C69 1.386 . S
H67 C83 0.930 . S
H68 C84 0.931 . S
C69 H57 0.929 . S
C69 C63 1.390 . S
C69 C66 1.386 . S
C70 C65 1.490 . S
C70 C72 1.395 1_545 S
C70 C73 1.403 . S
H71 C77 0.930 . S
C72 H58 0.930 . S
C72 C70 1.395 1_565 S
C72 C75 1.403 . S
C73 C70 1.403 . S
C73 C74 1.524 . S
C73 C77 1.400 . S
C74 H59 0.960 . S
C74 H60 0.960 . S
C74 H61 0.960 . S
C74 C73 1.524 . S
C75 C72 1.403 . S
C75 C76 1.392 1_565 S
C75 C79 1.495 . S
C76 C75 1.392 1_545 S
C76 C77 1.385 . S
C76 C78 1.478 . S
C77 H71 0.930 . S
C77 C73 1.400 . S
C77 C76 1.385 . S
C78 C76 1.478 . S
C78 C80 1.381 . S
C78 C84 1.383 . S
C79 C75 1.495 . S
C79 H85 0.959 . S
C79 H86 0.961 . S
C79 H87 0.960 . S
C80 C78 1.381 . S
C80 C81 1.394 . S
C80 H88 0.930 . S
C81 C80 1.394 . S
C81 C82 1.383 . S
C81 H89 0.929 . S
C82 C81 1.383 . S
C82 C83 1.377 . S
C83 H67 0.930 . S
C83 C82 1.377 . S
C83 C84 1.379 . S
C84 H68 0.931 . S
C84 C78 1.383 . S
C84 C83 1.379 . S
H85 C79 0.959 . S
H86 C79 0.961 . S
H87 C79 0.960 . S
H88 C80 0.930 . S
H89 C81 0.929 . S
H90 C98 0.929 . S
H91 C100 0.930 . S
H92 C102 0.930 . S
H93 C105 0.929 . S
H94 C108 0.930 . S
H95 C110 0.960 . S
H96 C110 0.960 1_455 S
H97 C110 0.960 . S
C98 H90 0.929 . S
C98 C99 1.377 1_455 S
C98 C100 1.384 . S
C99 C98 1.377 1_655 S
C99 C105 1.390 . S
C100 H91 0.930 . S
C100 C98 1.384 . S
C100 C101 1.372 1_455 S
C101 C100 1.372 1_655 S
C101 C102 1.400 . S
C101 C106 1.490 . S
C102 H92 0.930 . S
C102 C101 1.400 . S
C102 C105 1.386 . S
H103 C119 0.930 . S
H104 C120 0.931 . S
C105 H93 0.929 . S
C105 C99 1.390 . S
C105 C102 1.386 . S
C106 C101 1.490 . S
C106 C108 1.395 . S
C106 C109 1.403 . S
H107 C113 0.930 . S
C108 H94 0.930 . S
C108 C106 1.395 . S
C108 C111 1.403 . S
C109 C106 1.403 . S
C109 C110 1.524 . S
C109 C113 1.400 . S
C110 H95 0.960 . S
C110 H96 0.960 1_655 S
C110 H97 0.960 . S
C110 C109 1.524 . S
C111 C108 1.403 . S
C111 C112 1.392 . S
C111 C115 1.495 . S
C112 C111 1.392 . S
C112 C113 1.385 . S
C112 C114 1.478 . S
C113 H107 0.930 . S
C113 C109 1.400 . S
C113 C112 1.385 . S
C114 C112 1.478 . S
C114 C116 1.381 1_655 S
C114 C120 1.383 . S
C115 C111 1.495 . S
C115 H121 0.959 . S
C115 H122 0.961 . S
C115 H123 0.960 1_655 S
C116 C114 1.381 1_455 S
C116 C117 1.394 . S
C116 H124 0.930 . S
C117 C116 1.394 . S
C117 C118 1.383 1_455 S
C117 H125 0.929 . S
C118 C117 1.383 1_655 S
C118 C119 1.377 . S
C119 H103 0.930 . S
C119 C118 1.377 . S
C119 C120 1.379 . S
C120 H104 0.931 . S
C120 C114 1.383 . S
C120 C119 1.379 . S
H121 C115 0.959 . S
H122 C115 0.961 . S
H123 C115 0.960 1_455 S
H124 C116 0.930 . S
H125 C117 0.929 . S
H126 C134 0.929 . S
H127 C136 0.930 . S
H128 C138 0.930 . S
H129 C141 0.929 . S
H130 C144 0.930 . S
H131 C146 0.960 . S
H132 C146 0.960 . S
H133 C146 0.960 . S
C134 H126 0.929 . S
C134 C135 1.382 . S
C134 C136 1.384 . S
C135 C134 1.382 . S
C135 C141 1.387 1_565 S
C136 H127 0.930 . S
C136 C134 1.384 . S
C136 C137 1.372 . S
C137 C136 1.372 . S
C137 C138 1.400 1_565 S
C137 C142 1.490 . S
C138 H128 0.930 . S
C138 C137 1.400 1_545 S
C138 C141 1.386 . S
H139 C155 0.930 . S
H140 C156 0.931 . S
C141 H129 0.929 . S
C141 C135 1.387 1_545 S
C141 C138 1.386 . S
C142 C137 1.490 . S
C142 C144 1.395 . S
C142 C145 1.403 1_565 S
H143 C149 0.930 . S
C144 H130 0.930 . S
C144 C142 1.395 . S
C144 C147 1.403 . S
C145 C142 1.403 1_545 S
C145 C146 1.524 . S
C145 C149 1.400 . S
C146 H131 0.960 . S
C146 H132 0.960 . S
C146 H133 0.960 . S
C146 C145 1.524 . S
C147 C144 1.403 . S
C147 C148 1.392 . S
C147 C151 1.495 . S
C148 C147 1.392 . S
C148 C149 1.385 1_565 S
C148 C150 1.478 . S
C149 H143 0.930 . S
C149 C145 1.400 . S
C149 C148 1.385 1_545 S
C150 C148 1.478 . S
C150 C152 1.381 . S
C150 C156 1.383 . S
C151 C147 1.495 . S
C151 H157 0.959 . S
C151 H158 0.961 . S
C151 H159 0.960 . S
C152 C150 1.381 . S
C152 C153 1.394 . S
C152 H160 0.930 . S
C153 C152 1.394 . S
C153 C154 1.383 . S
C153 H161 0.929 . S
C154 C153 1.383 . S
C154 C155 1.377 . S
C155 H139 0.930 . S
C155 C154 1.377 . S
C155 C156 1.379 . S
C156 H140 0.931 . S
C156 C150 1.383 . S
C156 C155 1.379 . S
H157 C151 0.959 . S
H158 C151 0.961 . S
H159 C151 0.960 . S
H160 C152 0.930 . S
H161 C153 0.929 . S
H162 C170 0.929 . S
H163 C172 0.930 . S
H164 C174 0.930 . S
H165 C177 0.929 . S
H166 C180 0.930 . S
H167 C182 0.960 . S
H168 C182 0.960 . S
H169 C182 0.960 . S
C170 H162 0.929 . S
C170 C171 1.377 . S
C170 C172 1.384 . S
C171 C170 1.377 . S
C171 C177 1.390 1_455 S
C172 H163 0.930 . S
C172 C170 1.384 . S
C172 C173 1.372 . S
C173 C172 1.372 . S
C173 C174 1.400 1_455 S
C173 C178 1.490 . S
C174 H164 0.930 . S
C174 C173 1.400 1_655 S
C174 C177 1.386 . S
H175 C191 0.930 . S
H176 C192 0.931 . S
C177 H165 0.929 . S
C177 C171 1.390 1_655 S
C177 C174 1.386 . S
C178 C173 1.490 . S
C178 C180 1.395 . S
C178 C181 1.403 1_455 S
H179 C185 0.930 . S
C180 H166 0.930 . S
C180 C178 1.395 . S
C180 C183 1.403 . S
C181 C178 1.403 1_655 S
C181 C182 1.524 . S
C181 C185 1.400 . S
C182 H167 0.960 . S
C182 H168 0.960 . S
C182 H169 0.960 . S
C182 C181 1.524 . S
C183 C180 1.403 . S
C183 C184 1.392 . S
C183 C187 1.495 . S
C184 C183 1.392 . S
C184 C185 1.385 1_455 S
C184 C186 1.478 . S
C185 H179 0.930 . S
C185 C181 1.400 . S
C185 C184 1.385 1_655 S
C186 C184 1.478 . S
C186 C188 1.381 . S
C186 C192 1.383 1_455 S
C187 C183 1.495 . S
C187 H193 0.959 . S
C187 H194 0.961 . S
C187 H195 0.960 . S
C188 C186 1.381 . S
C188 C189 1.394 . S
C188 H196 0.930 . S
C189 C188 1.394 . S
C189 C190 1.383 . S
C189 H197 0.929 . S
C190 C189 1.383 . S
C190 C191 1.377 1_455 S
C191 H175 0.930 . S
C191 C190 1.377 1_655 S
C191 C192 1.379 . S
C192 H176 0.931 . S
C192 C186 1.383 1_655 S
C192 C191 1.379 . S
H193 C187 0.959 . S
H194 C187 0.961 . S
H195 C187 0.960 . S
H196 C188 0.930 . S
H197 C189 0.929 . S
H198 C206 0.929 . S
H199 C208 0.930 . S
H200 C210 0.930 . S
H201 C213 0.929 . S
H202 C216 0.930 . S
H203 C218 0.960 . S
H204 C218 0.960 . S
H205 C218 0.968 . S
C206 H198 0.929 . S
C206 C207 1.367 1_545 S
C206 C208 1.384 . S
C207 C206 1.367 1_565 S
C207 C213 1.401 . S
C208 H199 0.930 . S
C208 C206 1.384 . S
C208 C209 1.372 1_545 S
C209 C208 1.372 1_565 S
C209 C210 1.400 . S
C209 C214 1.490 . S
C210 H200 0.930 . S
C210 C209 1.400 . S
C210 C213 1.386 . S
H211 C227 0.930 . S
H212 C228 0.931 . S
C213 H201 0.929 . S
C213 C207 1.401 . S
C213 C210 1.386 . S
C214 C209 1.490 . S
C214 C216 1.395 . S
C214 C217 1.403 1_565 S
H215 C221 0.930 1_545 S
C216 H202 0.930 . S
C216 C214 1.395 . S
C216 C219 1.403 . S
C217 C214 1.403 1_545 S
C217 C218 1.524 . S
C217 C221 1.400 1_545 S
C218 H203 0.960 . S
C218 H204 0.960 . S
C218 H205 0.968 . S
C218 C217 1.524 . S
C219 C216 1.403 . S
C219 C220 1.392 . S
C219 C223 1.495 . S
C220 C219 1.392 . S
C220 C221 1.385 . S
C220 C222 1.478 . S
C221 H215 0.930 1_565 S
C221 C217 1.400 1_565 S
C221 C220 1.385 . S
C222 C220 1.478 . S
C222 C224 1.381 1_565 S
C222 C228 1.383 . S
C223 C219 1.495 . S
C223 H229 0.959 . S
C223 H230 0.961 . S
C223 H231 0.960 . S
C224 C222 1.381 1_545 S
C224 C225 1.394 . S
C224 H232 0.930 . S
C225 C224 1.394 . S
C225 C226 1.383 1_545 S
C225 H233 0.929 . S
C226 C225 1.383 1_565 S
C226 C227 1.377 . S
C227 H211 0.930 . S
C227 C226 1.377 . S
C227 C228 1.379 . S
C228 H212 0.931 . S
C228 C222 1.383 . S
C228 C227 1.379 . S
H229 C223 0.959 . S
H230 C223 0.961 . S
H231 C223 0.960 . S
H232 C224 0.930 . S
H233 C225 0.929 . S
H234 C242 0.929 . S
H235 C244 0.930 . S
H236 C246 0.930 . S
H237 C249 0.929 . S
H238 C252 0.930 . S
H239 C254 0.960 . S
H240 C254 0.960 . S
H241 C254 0.960 1_655 S
C242 H234 0.929 . S
C242 C243 1.377 . S
C242 C244 1.384 . S
C243 C242 1.377 . S
C243 C249 1.390 1_455 S
C244 H235 0.930 . S
C244 C242 1.384 . S
C244 C245 1.372 . S
C245 C244 1.372 . S
C245 C246 1.400 1_455 S
C245 C250 1.490 . S
C246 H236 0.930 . S
C246 C245 1.400 1_655 S
C246 C249 1.386 . S
H247 C263 0.930 . S
H248 C264 0.931 . S
C249 H237 0.929 . S
C249 C243 1.390 1_655 S
C249 C246 1.386 . S
C250 C245 1.490 . S
C250 C252 1.395 . S
C250 C253 1.403 . S
H251 C257 0.930 . S
C252 H238 0.930 . S
C252 C250 1.395 . S
C252 C255 1.403 . S
C253 C250 1.403 . S
C253 C254 1.524 . S
C253 C257 1.400 . S
C254 H239 0.960 . S
C254 H240 0.960 . S
C254 H241 0.960 1_455 S
C254 C253 1.524 . S
C255 C252 1.403 . S
C255 C256 1.392 . S
C255 C259 1.495 . S
C256 C255 1.392 . S
C256 C257 1.385 . S
C256 C258 1.478 . S
C257 H251 0.930 . S
C257 C253 1.400 . S
C257 C256 1.385 . S
C258 C256 1.478 . S
C258 C260 1.381 . S
C258 C264 1.383 1_455 S
C259 C255 1.495 . S
C259 H265 0.959 . S
C259 H266 0.961 1_455 S
C259 H267 0.960 . S
C260 C258 1.381 . S
C260 C261 1.394 . S
C260 H268 0.930 . S
C261 C260 1.394 . S
C261 C262 1.383 . S
C261 H269 0.929 . S
C262 C261 1.383 . S
C262 C263 1.377 1_455 S
C263 H247 0.930 . S
C263 C262 1.377 1_655 S
C263 C264 1.379 . S
C264 H248 0.931 . S
C264 C258 1.383 1_655 S
C264 C263 1.379 . S
H265 C259 0.959 . S
H266 C259 0.961 1_655 S
H267 C259 0.960 . S
H268 C260 0.930 . S
H269 C261 0.929 . S
H270 C278 0.929 . S
H271 C280 0.930 . S
H272 C282 0.930 . S
H273 C285 0.929 . S
H274 C288 0.930 . S
H275 C290 0.960 . S
H276 C290 0.960 1_545 S
H277 C290 0.960 . S
C278 H270 0.929 . S
C278 C279 1.377 . S
C278 C280 1.384 . S
C279 C278 1.377 . S
C279 C285 1.390 1_545 S
C280 H271 0.930 . S
C280 C278 1.384 . S
C280 C281 1.372 . S
C281 C280 1.372 . S
C281 C282 1.400 1_545 S
C281 C286 1.490 . S
C282 H272 0.930 . S
C282 C281 1.400 1_565 S
C282 C285 1.386 . S
H283 C299 0.930 . S
H284 C300 0.931 . S
C285 H273 0.929 . S
C285 C279 1.390 1_565 S
C285 C282 1.386 . S
C286 C281 1.490 . S
C286 C288 1.395 . S
C286 C289 1.403 1_545 S
H287 C293 0.930 1_565 S
C288 H274 0.930 . S
C288 C286 1.395 . S
C288 C291 1.403 . S
C289 C286 1.403 1_565 S
C289 C290 1.524 . S
C289 C293 1.400 1_565 S
C290 H275 0.960 . S
C290 H276 0.960 1_565 S
C290 H277 0.960 . S
C290 C289 1.524 . S
C291 C288 1.403 . S
C291 C292 1.392 . S
C291 C295 1.495 . S
C292 C291 1.392 . S
C292 C293 1.385 . S
C292 C294 1.478 . S
C293 H287 0.930 1_545 S
C293 C289 1.400 1_545 S
C293 C292 1.385 . S
C294 C292 1.478 . S
C294 C296 1.381 . S
C294 C300 1.383 1_545 S
C295 C291 1.495 . S
C295 H301 0.959 . S
C295 H302 0.961 . S
C295 H303 0.960 . S
C296 C294 1.381 . S
C296 C297 1.394 . S
C296 H304 0.930 . S
C297 C296 1.394 . S
C297 C298 1.383 . S
C297 H305 0.929 . S
C298 C297 1.383 . S
C298 C299 1.377 1_545 S
C299 H283 0.930 . S
C299 C298 1.377 1_565 S
C299 C300 1.379 . S
C300 H284 0.931 . S
C300 C294 1.383 1_565 S
C300 C299 1.379 . S
H301 C295 0.959 . S
H302 C295 0.961 . S
H303 C295 0.960 . S
H304 C296 0.930 . S
H305 C297 0.929 . S
H306 C314 0.929 . S
H307 C316 0.930 . S
H308 C318 0.930 . S
H309 C321 0.929 . S
H310 C324 0.930 . S
H311 C326 0.960 . S
H312 C326 0.960 . S
H313 C326 0.960 . S
C314 H306 0.929 . S
C314 C315 1.377 . S
C314 C316 1.384 . S
C315 C314 1.377 . S
C315 C321 1.390 1_655 S
C316 H307 0.930 . S
C316 C314 1.384 . S
C316 C317 1.372 . S
C317 C316 1.372 . S
C317 C318 1.400 1_655 S
C317 C322 1.490 . S
C318 H308 0.930 . S
C318 C317 1.400 1_455 S
C318 C321 1.386 . S
H319 C335 0.930 1_455 S
H320 C336 0.931 1_455 S
C321 H309 0.929 . S
C321 C315 1.390 1_455 S
C321 C318 1.386 . S
C322 C317 1.490 . S
C322 C324 1.395 . S
C322 C325 1.403 1_655 S
H323 C329 0.930 . S
C324 H310 0.930 . S
C324 C322 1.395 . S
C324 C327 1.403 . S
C325 C322 1.403 1_455 S
C325 C326 1.524 . S
C325 C329 1.400 . S
C326 H311 0.960 . S
C326 H312 0.960 . S
C326 H313 0.960 . S
C326 C325 1.524 . S
C327 C324 1.403 . S
C327 C328 1.392 . S
C327 C331 1.495 . S
C328 C327 1.392 . S
C328 C329 1.385 1_655 S
C328 C330 1.478 . S
C329 H323 0.930 . S
C329 C325 1.400 . S
C329 C328 1.385 1_455 S
C330 C328 1.478 . S
C330 C332 1.381 . S
C330 C336 1.383 . S
C331 C327 1.495 . S
C331 H337 0.959 . S
C331 H338 0.961 . S
C331 H339 0.960 . S
C332 C330 1.381 . S
C332 C333 1.394 . S
C332 H340 0.930 . S
C333 C332 1.394 . S
C333 C334 1.383 . S
C333 H341 0.929 . S
C334 C333 1.383 . S
C334 C335 1.377 . S
C335 H319 0.930 1_655 S
C335 C334 1.377 . S
C335 C336 1.379 . S
C336 H320 0.931 1_655 S
C336 C330 1.383 . S
C336 C335 1.379 . S
H337 C331 0.959 . S
H338 C331 0.961 . S
H339 C331 0.960 . S
H340 C332 0.930 . S
H341 C333 0.929 . S
C82 C35 1.475 . S
C63 C5 1.469 1_545 S
C118 C46 1.504 . S
C99 C23 1.567 1_655 S
C154 C34 1.468 . S
C135 C3 1.465 . S
C190 C47 1.541 . S
C171 C14 1.563 . S
C226 C49 1.539 . S
C207 C1 1.535 . S
C262 C33 1.451 . S
C243 C16 1.471 . S
C298 C48 1.539 . S
C279 C10 1.544 1_545 S
C315 C18 1.489 1_655 S
C334 C32 1.469 . S
