# Generated by pormake.
# Topology nia, (6,6)-cn, num edge types: 1
# Building blocks:
#     Node 0, Type 0, BuildingBlock: BETFEN_clean_sbu_0, # of connection points: 6
#     Node 1, Type 0, BuildingBlock: BETFEN_clean_sbu_0, # of connection points: 6
#     Node 2, Type 1, BuildingBlock: MIDCAF_clean_sbu_0, # of connection points: 6
#     Node 3, Type 1, BuildingBlock: MIDCAF_clean_sbu_0, # of connection points: 6
#     Edge 4, Type (0, 1), BuildingBlock: EZIPEK_clean_linker_0, # of connection points: 2
#     Edge 5, Type (0, 1), BuildingBlock: EZIPEK_clean_linker_0, # of connection points: 2
#     Edge 6, Type (0, 1), BuildingBlock: EZIPEK_clean_linker_0, # of connection points: 2
#     Edge 7, Type (0, 1), BuildingBlock: EZIPEK_clean_linker_0, # of connection points: 2
#     Edge 8, Type (0, 1), BuildingBlock: EZIPEK_clean_linker_0, # of connection points: 2
#     Edge 9, Type (0, 1), BuildingBlock: EZIPEK_clean_linker_0, # of connection points: 2
#     Edge 10, Type (0, 1), BuildingBlock: EZIPEK_clean_linker_0, # of connection points: 2
#     Edge 11, Type (0, 1), BuildingBlock: EZIPEK_clean_linker_0, # of connection points: 2
#     Edge 12, Type (0, 1), BuildingBlock: EZIPEK_clean_linker_0, # of connection points: 2
#     Edge 13, Type (0, 1), BuildingBlock: EZIPEK_clean_linker_0, # of connection points: 2
#     Edge 14, Type (0, 1), BuildingBlock: EZIPEK_clean_linker_0, # of connection points: 2
#     Edge 15, Type (0, 1), BuildingBlock: EZIPEK_clean_linker_0, # of connection points: 2
# Relax obj value: 0.235
# Max RMSD: 0.293
# Mean RMSD: 0.224
data_MOF--net-nia--node1-BETFEN_clean_sbu_0--node2-MIDCAF_clean_sbu_0--edge1-EZIPEK_clean_linker_0
_symmetry_space_group_name_H-M    P1
_symmetry_Int_Tables_number       1
_symmetry_cell_setting            triclinic
loop_
_symmetry_equiv_pos_as_xyz
'x, y, z'
_cell_length_a     22.228803
_cell_length_b     22.290538
_cell_length_c     25.776819
_cell_angle_alpha  90.712529
_cell_angle_beta   90.982165
_cell_angle_gamma 139.22429
loop_
_atom_site_label
_atom_site_type_symbol
_atom_site_fract_x
_atom_site_fract_y
_atom_site_fract_z
_atom_type_partial_charge
Pr0 Pr 0.96897 0.02776 0.97403 0.0
Pr1 Pr 0.06314 0.98264 0.0307 0.0
C2 C 0.84775 0.02129 0.9434 0.0
C3 C 0.83977 0.07592 0.9214 0.0
C4 C 0.88692 0.12786 0.87701 0.0
C5 C 0.87274 0.17367 0.85491 0.0
C6 C 0.81172 0.16843 0.8771 0.0
C7 C 0.76533 0.11725 0.92152 0.0
C8 C 0.7792 0.07132 0.94346 0.0
C9 C 0.14804 0.1457 0.93841 0.0
C10 C 0.09807 0.14292 0.08368 0.0
C11 C 0.15291 0.94835 0.0545 0.0
C12 C 0.17786 0.91884 0.09089 0.0
C13 C 0.18814 0.93589 0.14491 0.0
C14 C 0.2146 0.9081 0.17741 0.0
C15 C 0.23128 0.86358 0.15595 0.0
C16 C 0.22004 0.84618 0.10216 0.0
C17 C 0.19352 0.87343 0.07 0.0
C18 C 0.89498 0.89287 0.07054 0.0
C19 C 0.97375 0.90598 0.91003 0.0
O20 O 0.87843 0.03966 0.99177 0.0
O21 O 0.87603 -0.00028 0.9128 0.0
O22 O 0.10769 0.08526 0.97194 0.0
O23 O 0.09489 0.14918 0.92249 0.0
O24 O 0.12275 0.1044 0.08346 0.0
O25 O 0.04036 0.12305 0.0486 0.0
O26 O 0.06842 0.88543 0.03446 0.0
O27 O 0.19012 0.02977 0.06185 0.0
O28 O 0.91555 0.90991 0.02319 0.0
O29 O 0.95663 0.90892 0.09677 0.0
O30 O 0.92108 0.91248 0.92062 0.0
O31 O 0.03709 0.93476 0.94391 0.0
H32 H 0.93385 0.13227 0.85911 0.0
H33 H 0.90899 0.21294 0.82059 0.0
H34 H 0.71804 0.11263 0.93908 0.0
H35 H 0.74165 0.03116 0.97736 0.0
H36 H 0.17617 0.97077 0.16177 0.0
H37 H 0.22275 0.92178 0.21894 0.0
H38 H 0.23236 0.81174 0.08498 0.0
H39 H 0.18597 0.85966 0.02849 0.0
Pr40 Pr 0.96855 0.03826 0.53131 0.0
Pr41 Pr 0.06721 0.98644 0.48866 0.0
C42 C 0.91807 0.11561 0.5406 0.0
C43 C 0.88986 0.14155 0.57699 0.0
C44 C 0.84379 0.09347 0.62242 0.0
C45 C 0.80871 0.11349 0.65303 0.0
C46 C 0.81895 0.18121 0.63816 0.0
C47 C 0.86842 0.23157 0.59405 0.0
C48 C 0.90355 0.21187 0.56372 0.0
C49 C 0.90171 0.88448 0.58153 0.0
C50 C 0.87454 0.88716 0.43197 0.0
C51 C 0.12465 0.91576 0.47817 0.0
C52 C 0.1692 0.90428 0.44508 0.0
C53 C 0.13647 0.86642 0.39404 0.0
C54 C 0.17247 0.84475 0.36663 0.0
C55 C 0.24106 0.86031 0.39012 0.0
C56 C 0.2769 0.90252 0.43988 0.0
C57 C 0.24123 0.92423 0.46711 0.0
C58 C 0.12897 0.13397 0.43387 0.0
C59 C 0.1397 0.11263 0.60107 0.0
O60 O 0.85938 0.02751 0.53062 0.0
O61 O 0.00466 0.16392 0.54296 0.0
O62 O 0.96071 0.93239 0.54706 0.0
O63 O 0.87809 0.92144 0.59361 0.0
O64 O 0.92847 0.88125 0.44099 0.0
O65 O 0.88224 0.94521 0.45663 0.0
O66 O 0.17665 -0.00256 0.49951 0.0
O67 O 0.04067 0.86984 0.46504 0.0
O68 O 0.07254 0.09054 0.46999 0.0
O69 O 0.15369 0.09771 0.42395 0.0
O70 O 0.08738 0.12069 0.59331 0.0
O71 O 0.1397 0.06513 0.56957 0.0
H72 H 0.83274 0.03899 0.63333 0.0
H73 H 0.77096 0.07426 0.68711 0.0
H74 H 0.87714 0.28419 0.58212 0.0
H75 H 0.93889 0.24962 0.52885 0.0
H76 H 0.08104 0.85052 0.37609 0.0
H77 H 0.14393 0.81191 0.32825 0.0
H78 H 0.32953 0.91463 0.45863 0.0
H79 H 0.26734 0.95314 0.5064 0.0
Zn80 Zn 0.37688 0.63257 0.15904 0.0
Zn81 Zn 0.42494 0.65293 0.39371 0.0
Zn82 Zn 0.41516 0.6426 0.25796 0.0
C83 C 0.56383 0.70908 0.31093 0.0
C84 C 0.29761 0.46894 0.34492 0.0
O85 O 0.37187 0.70456 0.24359 0.0
O86 O 0.33221 0.68245 0.16012 0.0
C87 C 0.55778 0.72981 0.16118 0.0
O88 O 0.5554 0.71477 0.26296 0.0
O89 O 0.50379 0.68673 0.33839 0.0
O90 O 0.32317 0.51573 0.38657 0.0
O91 O 0.3267 0.5062 0.29971 0.0
O92 O 0.49832 0.70634 0.12946 0.0
O93 O 0.53981 0.71262 0.20996 0.0
O94 O 0.31147 0.49917 0.24379 0.0
O95 O 0.28827 0.49801 0.1596 0.0
C96 C 0.27221 0.45644 0.19981 0.0
O97 O 0.38815 0.71007 0.29823 0.0
O98 O 0.3871 0.70973 0.3854 0.0
C99 C 0.34123 0.71268 0.20478 0.0
C100 C 0.37813 0.72979 0.34239 0.0
Zn101 Zn 0.67381 0.42018 0.86561 0.0
Zn102 Zn 0.60636 0.35563 0.65926 0.0
Zn103 Zn 0.63522 0.3921 0.76248 0.0
C104 C 0.72739 0.54321 0.6707 0.0
C105 C 0.44257 0.26959 0.70924 0.0
O106 O 0.68593 0.34123 0.78951 0.0
O107 O 0.71312 0.36567 0.87471 0.0
C108 C 0.78432 0.58856 0.81391 0.0
O109 O 0.71686 0.52257 0.71896 0.0
O110 O 0.68795 0.4821 0.63524 0.0
O111 O 0.47483 0.27774 0.66649 0.0
O112 O 0.49246 0.30749 0.75146 0.0
O113 O 0.76973 0.55473 0.85743 0.0
O114 O 0.73977 0.53765 0.77247 0.0
O115 O 0.5094 0.32658 0.80598 0.0
O116 O 0.55189 0.35443 0.88939 0.0
C117 C 0.49144 0.32075 0.85444 0.0
O118 O 0.66776 0.3237 0.73617 0.0
O119 O 0.64336 0.29861 0.6509 0.0
C120 C 0.71178 0.33544 0.83248 0.0
C121 C 0.66895 0.2942 0.69324 0.0
C122 C 0.35657 0.89297 0.19324 0.0
C123 C 0.26127 0.83431 0.18821 0.0
C124 C 0.22383 0.70448 0.21628 0.0
C125 C 0.31734 0.75885 0.21093 0.0
N126 N 0.47515 0.90561 0.19897 0.0
N127 N 0.10368 0.68842 0.20105 0.0
C128 C 0.38485 0.85403 0.20193 0.0
C129 C 0.19477 0.74159 0.20284 0.0
N130 N 0.41931 0.98548 0.18882 0.0
N131 N 0.16325 0.61707 0.23319 0.0
H132 H 0.08172 0.71557 0.19353 0.0
H133 H 0.04984 0.61784 0.2059 0.0
H134 H 0.18354 0.58881 0.24262 0.0
H135 H 0.09526 0.57502 0.24166 0.0
H136 H 0.4899 0.03366 0.19592 0.0
H137 H 0.39945 0.01484 0.18231 0.0
H138 H 0.52696 0.97289 0.18681 0.0
H139 H 0.49803 0.87958 0.20746 0.0
C140 C 0.19159 0.09402 0.67738 0.0
C141 C 0.1979 0.15238 0.64908 0.0
C142 C 0.34555 0.28472 0.69381 0.0
C143 C 0.3508 0.22736 0.70713 0.0
N144 N 0.27853 0.07578 0.71159 0.0
N145 N 0.27808 0.30562 0.63368 0.0
C146 C 0.27277 0.13102 0.70039 0.0
C147 C 0.27268 0.24862 0.65947 0.0
N148 N 0.10864 0.00339 0.68063 0.0
N149 N 0.41292 0.37422 0.71159 0.0
H150 H 0.22544 0.28155 0.60877 0.0
H151 H 0.33663 0.37691 0.63524 0.0
H152 H 0.46682 0.40103 0.73666 0.0
H153 H 0.41023 0.41832 0.70574 0.0
H154 H 0.09922 0.95863 0.70345 0.0
H155 H 0.0482 0.97686 0.66496 0.0
H156 H 0.22574 0.00554 0.70204 0.0
H157 H 0.33833 0.10174 0.72794 0.0
C158 C 0.08284 0.21548 0.14928 0.0
C159 C 0.13898 0.21425 0.12439 0.0
C160 C 0.27322 0.35126 0.17621 0.0
C161 C 0.22139 0.36202 0.19202 0.0
N162 N 0.07806 0.30536 0.19885 0.0
N163 N 0.29258 0.29197 0.10892 0.0
C164 C 0.1259 0.29312 0.18107 0.0
C165 C 0.23522 0.28363 0.13736 0.0
N166 N 0.989 0.14344 0.1425 0.0
N167 N 0.36123 0.41016 0.19581 0.0
H168 H 0.27113 0.25043 0.07653 0.0
H169 H 0.36416 0.34744 0.11349 0.0
H170 H 0.39252 0.46415 0.22207 0.0
H171 H 0.39949 0.40021 0.18979 0.0
H172 H 0.94492 0.13632 0.16418 0.0
H173 H 0.95355 0.08677 0.11779 0.0
H174 H 0.01063 0.26473 0.18689 0.0
H175 H 0.10831 0.35954 0.22478 0.0
C176 C 0.67917 0.13857 0.65467 0.0
C177 C 0.77361 0.19707 0.66585 0.0
C178 C 0.79615 0.314 0.70472 0.0
C179 C 0.70222 0.25649 0.69231 0.0
N180 N 0.54882 0.10482 0.67104 0.0
N181 N 0.913 0.325 0.71569 0.0
C182 C 0.64185 0.16545 0.67249 0.0
C183 C 0.82894 0.27957 0.69595 0.0
N184 N 0.62655 0.06018 0.62445 0.0
N185 N 0.85548 0.40326 0.72141 0.0
H186 H 0.93805 0.3006 0.7096 0.0
H187 H 0.95297 0.38079 0.74214 0.0
H188 H 0.83477 0.43174 0.72786 0.0
H189 H 0.92654 0.45097 0.72556 0.0
H190 H 0.56075 0.02096 0.60967 0.0
H191 H 0.65068 0.03707 0.6114 0.0
H192 H 0.50057 0.03504 0.66151 0.0
H193 H 0.51982 0.12272 0.68455 0.0
C194 C 0.71989 0.76905 0.07116 0.0
C195 C 0.80821 0.85078 0.09367 0.0
C196 C 0.73226 0.85556 0.15959 0.0
C197 C 0.64458 0.77028 0.13987 0.0
N198 N 0.55648 0.63449 0.08491 0.0
N199 N 0.89468 0.95635 0.16895 0.0
C200 C 0.63879 0.72406 0.09766 0.0
C201 C 0.81326 0.88905 0.14088 0.0
N202 N 0.71255 0.73214 0.02528 0.0
N203 N 0.73895 0.90666 0.19504 0.0
H204 H 0.95782 0.98898 0.15633 0.0
H205 H 0.89905 0.97814 0.20628 0.0
H206 H 0.68159 0.88524 0.20931 0.0
H207 H 0.80139 0.97391 0.20661 0.0
H208 H 0.65057 0.68051 1.00381 0.0
H209 H 0.76851 0.75563 1.00704 0.0
H210 H 0.54953 0.59384 0.05829 0.0
H211 H 0.49669 0.59721 0.10504 0.0
C212 C 0.9102 0.78047 0.61162 0.0
C213 C 0.8595 0.79674 0.60393 0.0
C214 C 0.73041 0.65491 0.6503 0.0
C215 C 0.77858 0.63629 0.65485 0.0
N216 N 0.90906 0.67397 0.6347 0.0
N217 N 0.70907 0.73068 0.60293 0.0
C218 C 0.86708 0.69721 0.63413 0.0
C219 C 0.76654 0.72925 0.62019 0.0
N220 N 0.00023 0.84476 0.59875 0.0
N221 N 0.64818 0.59971 0.67371 0.0
H222 H 0.7277 0.77698 0.57648 0.0
H223 H 0.63863 0.6783 0.60904 0.0
H224 H 0.61656 0.54128 0.69328 0.0
H225 H 0.61544 0.61628 0.67769 0.0
H226 H 0.04416 0.84324 0.61027 0.0
H227 H 0.03375 0.90328 0.57926 0.0
H228 H 0.96709 0.70749 0.61389 0.0
H229 H 0.8825 0.61715 0.65384 0.0
C230 C 0.21243 0.72919 0.37296 0.0
C231 C 0.2683 0.82278 0.36634 0.0
C232 C 0.39362 0.85375 0.33599 0.0
C233 C 0.3381 0.76062 0.34342 0.0
N234 N 0.18783 0.60469 0.35503 0.0
N235 N 0.40114 0.9681 0.32985 0.0
C236 C 0.24508 0.69671 0.35728 0.0
C237 C 0.35549 0.88313 0.34382 0.0
N238 N 0.13048 0.67258 0.39699 0.0
N239 N 0.48362 0.91459 0.32366 0.0
H240 H 0.37413 0.99064 0.33515 0.0
H241 H 0.46109 0.01263 0.30903 0.0
H242 H 0.5124 0.89433 0.31626 0.0
H243 H 0.53079 0.98533 0.32308 0.0
H244 H 0.09254 0.60734 0.40897 0.0
H245 H 0.1028 0.69274 0.40824 0.0
H246 H 0.11696 0.55391 0.35937 0.0
H247 H 0.2096 0.57853 0.34354 0.0
C248 C 0.32101 0.28296 0.93271 0.0
C249 C 0.23553 0.19455 0.91373 0.0
C250 C 0.31653 0.18901 0.85457 0.0
C251 C 0.40216 0.27939 0.87114 0.0
N252 N 0.48226 0.42145 0.91613 0.0
N253 N 0.15282 0.08244 0.84245 0.0
C254 C 0.40339 0.32915 0.90746 0.0
C255 C 0.23339 0.15333 0.87023 0.0
N256 N 0.32361 0.32298 0.97468 0.0
N257 N 0.31388 0.13449 0.8269 0.0
H258 H 0.09181 0.05832 0.85104 0.0
H259 H 0.14954 0.05521 0.80782 0.0
H260 H 0.3732 0.15606 0.81722 0.0
H261 H 0.25269 0.06506 0.81836 0.0
H262 H 0.38463 0.38246 0.99412 0.0
H263 H 0.26413 0.29339 0.99198 0.0
H264 H 0.48536 0.46294 0.93861 0.0
H265 H 0.54233 0.45856 0.89633 0.0
C266 C 0.26138 0.2871 0.39345 0.0
C267 C 0.16705 0.21634 0.40673 0.0
C268 C 0.15187 0.30547 0.3681 0.0
C269 C 0.2443 0.37232 0.35235 0.0
N270 N 0.37617 0.41032 0.33609 0.0
N271 N 0.01718 0.14892 0.39377 0.0
C272 C 0.29479 0.35682 0.35992 0.0
C273 C 0.11049 0.22274 0.39037 0.0
N274 N 0.32171 0.29278 0.41611 0.0
N275 N 0.10408 0.32179 0.36246 0.0
H276 H 0.98455 0.08632 0.40705 0.0
H277 H 0.97194 0.14675 0.3783 0.0
H278 H 0.13071 0.37872 0.34337 0.0
H279 H 0.04053 0.28145 0.37871 0.0
H280 H 0.39257 0.34788 0.41121 0.0
H281 H 0.30352 0.24962 0.44507 0.0
H282 H 0.41192 0.39677 0.33645 0.0
H283 H 0.40269 0.46242 0.3117 0.0
C284 C 0.85823 0.3112 0.86675 0.0
C285 C 0.79551 0.21647 0.85467 0.0
C286 C 0.68138 0.20186 0.82017 0.0
C287 C 0.74354 0.29631 0.83307 0.0
N288 N 0.89935 0.44621 0.85337 0.0
N289 N 0.6609 0.07929 0.80611 0.0
C290 C 0.83483 0.35276 0.85144 0.0
C291 C 0.71148 0.16438 0.82662 0.0
N292 N 0.938 0.36035 0.89499 0.0
N293 N 0.59224 0.14679 0.80475 0.0
H294 H 0.68168 0.05043 0.81036 0.0
H295 H 0.60385 0.0417 0.78079 0.0
H296 H 0.56731 0.17143 0.79969 0.0
H297 H 0.5413 0.07556 0.80029 0.0
H298 H 0.98099 0.42656 0.91035 0.0
H299 H 0.95857 0.33288 0.90592 0.0
H300 H 0.9692 0.49154 0.86165 0.0
H301 H 0.88447 0.47862 0.84146 0.0
C302 C 0.70688 0.74623 0.41796 0.0
C303 C 0.7942 0.81899 0.39646 0.0
C304 C 0.72133 0.77845 0.3108 0.0
C305 C 0.63722 0.72568 0.33502 0.0
N306 N 0.54122 0.61924 0.40293 0.0
N307 N 0.88771 0.89986 0.32201 0.0
C308 C 0.62698 0.69679 0.38623 0.0
C309 C 0.80258 0.83273 0.34247 0.0
N310 N 0.70128 0.72733 0.46906 0.0
N311 N 0.72197 0.76973 0.25855 0.0
H312 H 0.94843 0.93898 0.34425 0.0
H313 H 0.89778 0.91909 0.28366 0.0
H314 H 0.66097 0.71953 0.2361 0.0
H315 H 0.7806 0.80065 0.2395 0.0
H316 H 0.64077 0.68309 0.4893 0.0
H317 H 0.75898 0.75805 0.4917 0.0
H318 H 0.52829 0.59061 0.43861 0.0
H319 H 0.48296 0.57727 0.37823 0.0
C320 C 0.8778 0.81392 0.82912 0.0
C321 C 0.95408 0.85546 0.86164 0.0
C322 C 0.94343 0.74471 0.82874 0.0
C323 C 0.8513 0.68788 0.81264 0.0
N324 N 0.73138 0.66951 0.79229 0.0
N325 N 0.08675 0.89062 0.86902 0.0
C326 C 0.81958 0.72383 0.80922 0.0
C327 C 0.99668 0.83115 0.85363 0.0
N328 N 0.86193 0.86065 0.81757 0.0
N329 N 0.97646 0.71269 0.82271 0.0
H330 H 0.12865 0.95739 0.88276 0.0
H331 H 0.12256 0.87773 0.86429 0.0
H332 H 0.93804 0.65052 0.80265 0.0
H333 H 0.0407 0.74666 0.83667 0.0
H334 H 0.80995 0.83517 0.79128 0.0
H335 H 0.90864 0.92952 0.82938 0.0
H336 H 0.70222 0.6901 0.7947 0.0
H337 H 0.68562 0.60176 0.77884 0.0
loop_
_geom_bond_atom_site_label_1
_geom_bond_atom_site_label_2
_geom_bond_distance
_geom_bond_site_symmetry_2
_ccdc_geom_bond_type
Pr0 C2 2.880 . S
Pr0 O20 2.562 . S
Pr0 O21 2.490 . S
Pr0 O22 2.695 1_655 S
Pr0 O23 2.512 1_655 S
Pr0 O25 2.437 1_656 S
Pr0 O28 2.436 1_546 S
Pr0 O30 2.438 1_545 S
Pr1 C11 2.880 . S
Pr1 O22 2.436 1_564 S
Pr1 O24 2.438 1_565 S
Pr1 O26 2.562 . S
Pr1 O27 2.490 . S
Pr1 O28 2.695 1_455 S
Pr1 O29 2.512 1_455 S
Pr1 O31 2.437 1_455 S
C2 Pr0 2.880 . S
C2 C3 1.491 . S
C2 O20 1.254 . S
C2 O21 1.225 . S
C3 C2 1.491 . S
C3 C4 1.392 . S
C3 C8 1.356 . S
C4 C3 1.392 . S
C4 C5 1.368 . S
C4 H32 0.929 . S
C5 C4 1.368 . S
C5 C6 1.386 . S
C5 H33 0.929 . S
C6 C5 1.386 . S
C6 C7 1.373 . S
C7 C6 1.373 . S
C7 C8 1.409 . S
C7 H34 0.931 . S
C8 C3 1.356 . S
C8 C7 1.409 . S
C8 H35 0.930 . S
C9 O22 1.270 . S
C9 O23 1.248 . S
C10 O24 1.267 . S
C10 O25 1.278 . S
C11 Pr1 2.880 . S
C11 C12 1.491 . S
C11 O26 1.254 . S
C11 O27 1.225 . S
C12 C11 1.491 . S
C12 C13 1.392 . S
C12 C17 1.356 . S
C13 C12 1.392 . S
C13 C14 1.368 . S
C13 H36 0.929 . S
C14 C13 1.368 . S
C14 C15 1.386 . S
C14 H37 0.929 . S
C15 C14 1.386 . S
C15 C16 1.373 . S
C16 C15 1.373 . S
C16 C17 1.409 . S
C16 H38 0.931 . S
C17 C12 1.356 . S
C17 C16 1.409 . S
C17 H39 0.930 . S
C18 O28 1.270 . S
C18 O29 1.248 . S
C19 O30 1.267 . S
C19 O31 1.278 1_556 S
O20 Pr0 2.562 . S
O20 C2 1.254 . S
O21 Pr0 2.490 . S
O21 C2 1.225 . S
O22 Pr0 2.695 1_455 S
O22 Pr1 2.436 1_546 S
O22 C9 1.270 . S
O23 Pr0 2.512 1_455 S
O23 C9 1.248 . S
O24 Pr1 2.438 1_545 S
O24 C10 1.267 . S
O25 Pr0 2.437 1_454 S
O25 C10 1.278 . S
O26 Pr1 2.562 . S
O26 C11 1.254 . S
O27 Pr1 2.490 . S
O27 C11 1.225 . S
O28 Pr0 2.436 1_564 S
O28 Pr1 2.695 1_655 S
O28 C18 1.270 . S
O29 Pr1 2.512 1_655 S
O29 C18 1.248 . S
O30 Pr0 2.438 1_565 S
O30 C19 1.267 . S
O31 Pr1 2.437 1_655 S
O31 C19 1.278 1_554 S
H32 C4 0.929 . S
H33 C5 0.929 . S
H34 C7 0.931 . S
H35 C8 0.930 . S
H36 C13 0.929 . S
H37 C14 0.929 . S
H38 C16 0.931 . S
H39 C17 0.930 . S
Pr40 C42 2.880 1_455 S
Pr40 O60 2.562 1_455 S
Pr40 O61 2.490 1_455 S
Pr40 O62 2.695 1_445 S
Pr40 O63 2.512 1_445 S
Pr40 O65 2.437 1_445 S
Pr40 O68 2.436 . S
Pr40 O70 2.438 . S
Pr41 C51 2.880 . S
Pr41 O62 2.436 1_455 S
Pr41 O64 2.438 1_455 S
Pr41 O66 2.562 . S
Pr41 O67 2.490 . S
Pr41 O68 2.695 1_565 S
Pr41 O69 2.512 1_565 S
Pr41 O71 2.437 1_565 S
C42 Pr40 2.880 1_655 S
C42 C43 1.491 . S
C42 O60 1.254 . S
C42 O61 1.225 . S
C43 C42 1.491 . S
C43 C44 1.392 . S
C43 C48 1.356 . S
C44 C43 1.392 . S
C44 C45 1.368 . S
C44 H72 0.929 . S
C45 C44 1.368 . S
C45 C46 1.386 . S
C45 H73 0.929 . S
C46 C45 1.386 . S
C46 C47 1.373 . S
C47 C46 1.373 . S
C47 C48 1.409 . S
C47 H74 0.931 . S
C48 C43 1.356 . S
C48 C47 1.409 . S
C48 H75 0.930 . S
C49 O62 1.270 . S
C49 O63 1.248 . S
C50 O64 1.267 . S
C50 O65 1.278 . S
C51 Pr41 2.880 . S
C51 C52 1.491 . S
C51 O66 1.254 . S
C51 O67 1.225 . S
C52 C51 1.491 . S
C52 C53 1.392 . S
C52 C57 1.356 . S
C53 C52 1.392 . S
C53 C54 1.368 . S
C53 H76 0.929 1_565 S
C54 C53 1.368 . S
C54 C55 1.386 . S
C54 H77 0.929 . S
C55 C54 1.386 . S
C55 C56 1.373 . S
C56 C55 1.373 . S
C56 C57 1.409 . S
C56 H78 0.931 . S
C57 C52 1.356 . S
C57 C56 1.409 . S
C57 H79 0.930 . S
C58 O68 1.270 . S
C58 O69 1.248 . S
C59 O70 1.267 . S
C59 O71 1.278 . S
O60 Pr40 2.562 1_655 S
O60 C42 1.254 . S
O61 Pr40 2.490 1_655 S
O61 C42 1.225 . S
O62 Pr40 2.695 1_665 S
O62 Pr41 2.436 1_655 S
O62 C49 1.270 . S
O63 Pr40 2.512 1_665 S
O63 C49 1.248 . S
O64 Pr41 2.438 1_655 S
O64 C50 1.267 . S
O65 Pr40 2.437 1_665 S
O65 C50 1.278 . S
O66 Pr41 2.562 . S
O66 C51 1.254 . S
O67 Pr41 2.490 . S
O67 C51 1.225 . S
O68 Pr40 2.436 . S
O68 Pr41 2.695 1_545 S
O68 C58 1.270 . S
O69 Pr41 2.512 1_545 S
O69 C58 1.248 . S
O70 Pr40 2.438 . S
O70 C59 1.267 . S
O71 Pr41 2.437 1_545 S
O71 C59 1.278 . S
H72 C44 0.929 . S
H73 C45 0.929 . S
H74 C47 0.931 . S
H75 C48 0.930 . S
H76 C53 0.929 1_545 S
H77 C54 0.929 . S
H78 C56 0.931 . S
H79 C57 0.930 . S
Zn80 O86 1.920 . S
Zn80 O92 1.898 . S
Zn80 O95 1.905 . S
Zn81 O89 1.905 . S
Zn81 O90 1.898 . S
Zn81 O98 1.920 . S
Zn82 O85 2.080 . S
Zn82 O88 2.114 . S
Zn82 O91 2.120 . S
Zn82 O93 2.120 . S
Zn82 O94 2.114 . S
Zn82 O97 2.080 . S
C83 O88 1.166 . S
C83 O89 1.182 . S
C84 O90 1.167 . S
C84 O91 1.299 . S
O85 Zn82 2.080 . S
O85 C99 1.305 . S
O86 Zn80 1.920 . S
O86 C99 1.234 . S
C87 O92 1.167 . S
C87 O93 1.299 . S
O88 Zn82 2.114 . S
O88 C83 1.166 . S
O89 Zn81 1.905 . S
O89 C83 1.182 . S
O90 Zn81 1.898 . S
O90 C84 1.167 . S
O91 Zn82 2.120 . S
O91 C84 1.299 . S
O92 Zn80 1.898 . S
O92 C87 1.167 . S
O93 Zn82 2.120 . S
O93 C87 1.299 . S
O94 Zn82 2.114 . S
O94 C96 1.166 . S
O95 Zn80 1.905 . S
O95 C96 1.182 . S
C96 O94 1.166 . S
C96 O95 1.182 . S
O97 Zn82 2.080 . S
O97 C100 1.305 . S
O98 Zn81 1.920 . S
O98 C100 1.234 . S
C99 O85 1.305 . S
C99 O86 1.234 . S
C100 O97 1.305 . S
C100 O98 1.234 . S
Zn101 O107 1.920 . S
Zn101 O113 1.898 . S
Zn101 O116 1.905 . S
Zn102 O110 1.905 . S
Zn102 O111 1.898 . S
Zn102 O119 1.920 . S
Zn103 O106 2.080 . S
Zn103 O109 2.114 . S
Zn103 O112 2.120 . S
Zn103 O114 2.120 . S
Zn103 O115 2.114 . S
Zn103 O118 2.080 . S
C104 O109 1.166 . S
C104 O110 1.182 . S
C105 O111 1.167 . S
C105 O112 1.299 . S
O106 Zn103 2.080 . S
O106 C120 1.305 . S
O107 Zn101 1.920 . S
O107 C120 1.234 . S
C108 O113 1.167 . S
C108 O114 1.299 . S
O109 Zn103 2.114 . S
O109 C104 1.166 . S
O110 Zn102 1.905 . S
O110 C104 1.182 . S
O111 Zn102 1.898 . S
O111 C105 1.167 . S
O112 Zn103 2.120 . S
O112 C105 1.299 . S
O113 Zn101 1.898 . S
O113 C108 1.167 . S
O114 Zn103 2.120 . S
O114 C108 1.299 . S
O115 Zn103 2.114 . S
O115 C117 1.166 . S
O116 Zn101 1.905 . S
O116 C117 1.182 . S
C117 O115 1.166 . S
C117 O116 1.182 . S
O118 Zn103 2.080 . S
O118 C121 1.305 . S
O119 Zn102 1.920 . S
O119 C121 1.234 . S
C120 O106 1.305 . S
C120 O107 1.234 . S
C121 O118 1.305 . S
C121 O119 1.234 . S
C122 C123 1.363 . S
C122 C128 1.379 . S
C122 N130 1.356 . S
C123 C122 1.363 . S
C123 C129 1.363 . S
C124 C125 1.363 . S
C124 C129 1.379 . S
C124 N131 1.356 . S
C125 C124 1.363 . S
C125 C128 1.363 . S
N126 C128 1.356 . S
N126 H138 0.984 . S
N126 H139 0.985 . S
N127 C129 1.356 . S
N127 H132 0.984 . S
N127 H133 0.985 1_455 S
C128 C122 1.379 . S
C128 C125 1.363 . S
C128 N126 1.356 . S
C129 C123 1.363 . S
C129 C124 1.379 . S
C129 N127 1.356 . S
N130 C122 1.356 . S
N130 H136 0.984 . S
N130 H137 0.984 . S
N131 C124 1.356 . S
N131 H134 0.984 . S
N131 H135 0.985 . S
H132 N127 0.984 . S
H133 N127 0.985 1_655 S
H134 N131 0.984 . S
H135 N131 0.985 . S
H136 N130 0.984 . S
H137 N130 0.984 . S
H138 N126 0.984 . S
H139 N126 0.985 . S
C140 C141 1.363 . S
C140 C146 1.379 . S
C140 N148 1.356 . S
C141 C140 1.363 . S
C141 C147 1.363 . S
C142 C143 1.363 . S
C142 C147 1.379 . S
C142 N149 1.356 . S
C143 C142 1.363 . S
C143 C146 1.363 . S
N144 C146 1.356 . S
N144 H156 0.984 . S
N144 H157 0.985 . S
N145 C147 1.356 . S
N145 H150 0.984 . S
N145 H151 0.985 . S
C146 C140 1.379 . S
C146 C143 1.363 . S
C146 N144 1.356 . S
C147 C141 1.363 . S
C147 C142 1.379 . S
C147 N145 1.356 . S
N148 C140 1.356 . S
N148 H154 0.984 1_545 S
N148 H155 0.984 . S
N149 C142 1.356 . S
N149 H152 0.984 . S
N149 H153 0.985 . S
H150 N145 0.984 . S
H151 N145 0.985 . S
H152 N149 0.984 . S
H153 N149 0.985 . S
H154 N148 0.984 1_565 S
H155 N148 0.984 . S
H156 N144 0.984 . S
H157 N144 0.985 . S
C158 C159 1.363 . S
C158 C164 1.379 . S
C158 N166 1.356 . S
C159 C158 1.363 . S
C159 C165 1.363 . S
C160 C161 1.363 . S
C160 C165 1.379 . S
C160 N167 1.356 . S
C161 C160 1.363 . S
C161 C164 1.363 . S
N162 C164 1.356 . S
N162 H174 0.984 . S
N162 H175 0.985 . S
N163 C165 1.356 . S
N163 H168 0.984 . S
N163 H169 0.985 . S
C164 C158 1.379 . S
C164 C161 1.363 . S
C164 N162 1.356 . S
C165 C159 1.363 . S
C165 C160 1.379 . S
C165 N163 1.356 . S
N166 C158 1.356 . S
N166 H172 0.984 1_455 S
N166 H173 0.984 . S
N167 C160 1.356 . S
N167 H170 0.984 . S
N167 H171 0.985 . S
H168 N163 0.984 . S
H169 N163 0.985 . S
H170 N167 0.984 . S
H171 N167 0.985 . S
H172 N166 0.984 1_655 S
H173 N166 0.984 . S
H174 N162 0.984 . S
H175 N162 0.985 . S
C176 C177 1.363 . S
C176 C182 1.379 . S
C176 N184 1.356 . S
C177 C176 1.363 . S
C177 C183 1.363 . S
C178 C179 1.363 . S
C178 C183 1.379 . S
C178 N185 1.356 . S
C179 C178 1.363 . S
C179 C182 1.363 . S
N180 C182 1.356 . S
N180 H192 0.984 . S
N180 H193 0.985 . S
N181 C183 1.356 . S
N181 H186 0.984 . S
N181 H187 0.985 . S
C182 C176 1.379 . S
C182 C179 1.363 . S
C182 N180 1.356 . S
C183 C177 1.363 . S
C183 C178 1.379 . S
C183 N181 1.356 . S
N184 C176 1.356 . S
N184 H190 0.984 . S
N184 H191 0.984 . S
N185 C178 1.356 . S
N185 H188 0.984 . S
N185 H189 0.985 . S
H186 N181 0.984 . S
H187 N181 0.985 . S
H188 N185 0.984 . S
H189 N185 0.985 . S
H190 N184 0.984 . S
H191 N184 0.984 . S
H192 N180 0.984 . S
H193 N180 0.985 . S
C194 C195 1.363 . S
C194 C200 1.379 . S
C194 N202 1.356 . S
C195 C194 1.363 . S
C195 C201 1.363 . S
C196 C197 1.363 . S
C196 C201 1.379 . S
C196 N203 1.356 . S
C197 C196 1.363 . S
C197 C200 1.363 . S
N198 C200 1.356 . S
N198 H210 0.984 . S
N198 H211 0.985 . S
N199 C201 1.356 . S
N199 H204 0.984 . S
N199 H205 0.985 1_565 S
C200 C194 1.379 . S
C200 C197 1.363 . S
C200 N198 1.356 . S
C201 C195 1.363 . S
C201 C196 1.379 . S
C201 N199 1.356 . S
N202 C194 1.356 . S
N202 H208 0.984 . S
N202 H209 0.984 . S
N203 C196 1.356 . S
N203 H206 0.984 . S
N203 H207 0.985 . S
H204 N199 0.984 . S
H205 N199 0.985 1_545 S
H206 N203 0.984 . S
H207 N203 0.985 . S
H208 N202 0.984 . S
H209 N202 0.984 . S
H210 N198 0.984 . S
H211 N198 0.985 . S
C212 C213 1.363 . S
C212 C218 1.379 . S
C212 N220 1.356 1_655 S
C213 C212 1.363 . S
C213 C219 1.363 . S
C214 C215 1.363 . S
C214 C219 1.379 . S
C214 N221 1.356 . S
C215 C214 1.363 . S
C215 C218 1.363 . S
N216 C218 1.356 . S
N216 H228 0.984 . S
N216 H229 0.985 . S
N217 C219 1.356 . S
N217 H222 0.984 . S
N217 H223 0.985 . S
C218 C212 1.379 . S
C218 C215 1.363 . S
C218 N216 1.356 . S
C219 C213 1.363 . S
C219 C214 1.379 . S
C219 N217 1.356 . S
N220 C212 1.356 1_455 S
N220 H226 0.984 . S
N220 H227 0.984 . S
N221 C214 1.356 . S
N221 H224 0.984 . S
N221 H225 0.985 . S
H222 N217 0.984 . S
H223 N217 0.985 . S
H224 N221 0.984 . S
H225 N221 0.985 . S
H226 N220 0.984 . S
H227 N220 0.984 . S
H228 N216 0.984 . S
H229 N216 0.985 . S
C230 C231 1.363 . S
C230 C236 1.379 . S
C230 N238 1.356 . S
C231 C230 1.363 . S
C231 C237 1.363 . S
C232 C233 1.363 . S
C232 C237 1.379 . S
C232 N239 1.356 . S
C233 C232 1.363 . S
C233 C236 1.363 . S
N234 C236 1.356 . S
N234 H246 0.984 . S
N234 H247 0.985 . S
N235 C237 1.356 . S
N235 H240 0.984 . S
N235 H241 0.985 . S
C236 C230 1.379 . S
C236 C233 1.363 . S
C236 N234 1.356 . S
C237 C231 1.363 . S
C237 C232 1.379 . S
C237 N235 1.356 . S
N238 C230 1.356 . S
N238 H244 0.984 . S
N238 H245 0.984 . S
N239 C232 1.356 . S
N239 H242 0.984 . S
N239 H243 0.985 . S
H240 N235 0.984 . S
H241 N235 0.985 . S
H242 N239 0.984 . S
H243 N239 0.985 . S
H244 N238 0.984 . S
H245 N238 0.984 . S
H246 N234 0.984 . S
H247 N234 0.985 . S
C248 C249 1.363 . S
C248 C254 1.379 . S
C248 N256 1.356 . S
C249 C248 1.363 . S
C249 C255 1.363 . S
C250 C251 1.363 . S
C250 C255 1.379 . S
C250 N257 1.356 . S
C251 C250 1.363 . S
C251 C254 1.363 . S
N252 C254 1.356 . S
N252 H264 0.984 . S
N252 H265 0.985 . S
N253 C255 1.356 . S
N253 H258 0.984 . S
N253 H259 0.985 1_545 S
C254 C248 1.379 . S
C254 C251 1.363 . S
C254 N252 1.356 . S
C255 C249 1.363 . S
C255 C250 1.379 . S
C255 N253 1.356 . S
N256 C248 1.356 . S
N256 H262 0.984 . S
N256 H263 0.984 . S
N257 C250 1.356 . S
N257 H260 0.984 . S
N257 H261 0.985 . S
H258 N253 0.984 . S
H259 N253 0.985 1_565 S
H260 N257 0.984 . S
H261 N257 0.985 . S
H262 N256 0.984 . S
H263 N256 0.984 . S
H264 N252 0.984 . S
H265 N252 0.985 . S
C266 C267 1.363 . S
C266 C272 1.379 . S
C266 N274 1.356 . S
C267 C266 1.363 . S
C267 C273 1.363 . S
C268 C269 1.363 . S
C268 C273 1.379 . S
C268 N275 1.356 . S
C269 C268 1.363 . S
C269 C272 1.363 . S
N270 C272 1.356 . S
N270 H282 0.984 . S
N270 H283 0.985 . S
N271 C273 1.356 . S
N271 H276 0.984 . S
N271 H277 0.985 . S
C272 C266 1.379 . S
C272 C269 1.363 . S
C272 N270 1.356 . S
C273 C267 1.363 . S
C273 C268 1.379 . S
C273 N271 1.356 . S
N274 C266 1.356 . S
N274 H280 0.984 . S
N274 H281 0.984 . S
N275 C268 1.356 . S
N275 H278 0.984 . S
N275 H279 0.985 . S
H276 N271 0.984 . S
H277 N271 0.985 . S
H278 N275 0.984 . S
H279 N275 0.985 . S
H280 N274 0.984 . S
H281 N274 0.984 . S
H282 N270 0.984 . S
H283 N270 0.985 . S
C284 C285 1.363 . S
C284 C290 1.379 . S
C284 N292 1.356 . S
C285 C284 1.363 . S
C285 C291 1.363 . S
C286 C287 1.363 . S
C286 C291 1.379 . S
C286 N293 1.356 . S
C287 C286 1.363 . S
C287 C290 1.363 . S
N288 C290 1.356 . S
N288 H300 0.984 . S
N288 H301 0.985 . S
N289 C291 1.356 . S
N289 H294 0.984 . S
N289 H295 0.985 . S
C290 C284 1.379 . S
C290 C287 1.363 . S
C290 N288 1.356 . S
C291 C285 1.363 . S
C291 C286 1.379 . S
C291 N289 1.356 . S
N292 C284 1.356 . S
N292 H298 0.984 . S
N292 H299 0.984 . S
N293 C286 1.356 . S
N293 H296 0.984 . S
N293 H297 0.985 . S
H294 N289 0.984 . S
H295 N289 0.985 . S
H296 N293 0.984 . S
H297 N293 0.985 . S
H298 N292 0.984 . S
H299 N292 0.984 . S
H300 N288 0.984 . S
H301 N288 0.985 . S
C302 C303 1.363 . S
C302 C308 1.379 . S
C302 N310 1.356 . S
C303 C302 1.363 . S
C303 C309 1.363 . S
C304 C305 1.363 . S
C304 C309 1.379 . S
C304 N311 1.356 . S
C305 C304 1.363 . S
C305 C308 1.363 . S
N306 C308 1.356 . S
N306 H318 0.984 . S
N306 H319 0.985 . S
N307 C309 1.356 . S
N307 H312 0.984 1_565 S
N307 H313 0.985 1_565 S
C308 C302 1.379 . S
C308 C305 1.363 . S
C308 N306 1.356 . S
C309 C303 1.363 . S
C309 C304 1.379 . S
C309 N307 1.356 . S
N310 C302 1.356 . S
N310 H316 0.984 . S
N310 H317 0.984 . S
N311 C304 1.356 . S
N311 H314 0.984 . S
N311 H315 0.985 . S
H312 N307 0.984 1_545 S
H313 N307 0.985 1_545 S
H314 N311 0.984 . S
H315 N311 0.985 . S
H316 N310 0.984 . S
H317 N310 0.984 . S
H318 N306 0.984 . S
H319 N306 0.985 . S
C320 C321 1.363 . S
C320 C326 1.379 . S
C320 N328 1.356 . S
C321 C320 1.363 . S
C321 C327 1.363 . S
C322 C323 1.363 . S
C322 C327 1.379 . S
C322 N329 1.356 . S
C323 C322 1.363 . S
C323 C326 1.363 . S
N324 C326 1.356 . S
N324 H336 0.984 . S
N324 H337 0.985 . S
N325 C327 1.356 . S
N325 H330 0.984 1_556 S
N325 H331 0.985 1_556 S
C326 C320 1.379 . S
C326 C323 1.363 . S
C326 N324 1.356 . S
C327 C321 1.363 . S
C327 C322 1.379 . S
C327 N325 1.356 . S
N328 C320 1.356 . S
N328 H334 0.984 . S
N328 H335 0.984 . S
N329 C322 1.356 . S
N329 H332 0.984 . S
N329 H333 0.985 . S
H330 N325 0.984 1_554 S
H331 N325 0.985 1_554 S
H332 N329 0.984 . S
H333 N329 0.985 . S
H334 N328 0.984 . S
H335 N328 0.984 . S
H336 N324 0.984 . S
H337 N324 0.985 . S
C123 C15 1.412 . S
C125 C99 1.345 . S
C141 C59 1.353 . S
C143 C105 1.178 . S
C159 C10 1.434 . S
C161 C96 1.307 . S
C177 C46 1.567 . S
C179 C121 1.465 . S
C195 C18 1.883 . S
C197 C87 1.701 . S
C215 C104 1.787 . S
C213 C49 1.917 . S
C231 C55 1.412 . S
C233 C100 1.345 . S
C251 C117 1.787 . S
C249 C9 1.917 . S
C269 C84 1.701 . S
C267 C58 1.883 . S
C287 C120 1.465 . S
C285 C6 1.567 . S
C305 C83 1.307 . S
C303 C50 1.434 . S
C323 C108 1.178 . S
C321 C19 1.353 . S
