# Generated by pormake.
# Topology bwt, (3,3)-cn, num edge types: 1
# Building blocks:
#     Node 0, Type 0, BuildingBlock: WUSLED_clean_sbu_0, # of connection points: 3
#     Node 1, Type 0, BuildingBlock: WUSLED_clean_sbu_0, # of connection points: 3
#     Node 2, Type 0, BuildingBlock: WUSLED_clean_sbu_0, # of connection points: 3
#     Node 3, Type 0, BuildingBlock: WUSLED_clean_sbu_0, # of connection points: 3
#     Node 4, Type 0, BuildingBlock: WUSLED_clean_sbu_0, # of connection points: 3
#     Node 5, Type 0, BuildingBlock: WUSLED_clean_sbu_0, # of connection points: 3
#     Node 6, Type 0, BuildingBlock: WUSLED_clean_sbu_0, # of connection points: 3
#     Node 7, Type 0, BuildingBlock: WUSLED_clean_sbu_0, # of connection points: 3
#     Node 8, Type 0, BuildingBlock: WUSLED_clean_sbu_0, # of connection points: 3
#     Node 9, Type 0, BuildingBlock: WUSLED_clean_sbu_0, # of connection points: 3
#     Node 10, Type 0, BuildingBlock: WUSLED_clean_sbu_0, # of connection points: 3
#     Node 11, Type 0, BuildingBlock: WUSLED_clean_sbu_0, # of connection points: 3
#     Node 12, Type 0, BuildingBlock: WUSLED_clean_sbu_0, # of connection points: 3
#     Node 13, Type 0, BuildingBlock: WUSLED_clean_sbu_0, # of connection points: 3
#     Node 14, Type 0, BuildingBlock: WUSLED_clean_sbu_0, # of connection points: 3
#     Node 15, Type 0, BuildingBlock: WUSLED_clean_sbu_0, # of connection points: 3
#     Node 16, Type 0, BuildingBlock: WUSLED_clean_sbu_0, # of connection points: 3
#     Node 17, Type 0, BuildingBlock: WUSLED_clean_sbu_0, # of connection points: 3
#     Node 18, Type 0, BuildingBlock: WUSLED_clean_sbu_0, # of connection points: 3
#     Node 19, Type 0, BuildingBlock: WUSLED_clean_sbu_0, # of connection points: 3
#     Node 20, Type 0, BuildingBlock: WUSLED_clean_sbu_0, # of connection points: 3
#     Node 21, Type 0, BuildingBlock: WUSLED_clean_sbu_0, # of connection points: 3
#     Node 22, Type 0, BuildingBlock: WUSLED_clean_sbu_0, # of connection points: 3
#     Node 23, Type 0, BuildingBlock: WUSLED_clean_sbu_0, # of connection points: 3
#     Node 24, Type 1, BuildingBlock: WUSLED_clean_sbu_0, # of connection points: 3
#     Node 25, Type 1, BuildingBlock: WUSLED_clean_sbu_0, # of connection points: 3
#     Node 26, Type 1, BuildingBlock: WUSLED_clean_sbu_0, # of connection points: 3
#     Node 27, Type 1, BuildingBlock: WUSLED_clean_sbu_0, # of connection points: 3
#     Node 28, Type 1, BuildingBlock: WUSLED_clean_sbu_0, # of connection points: 3
#     Node 29, Type 1, BuildingBlock: WUSLED_clean_sbu_0, # of connection points: 3
#     Node 30, Type 1, BuildingBlock: WUSLED_clean_sbu_0, # of connection points: 3
#     Node 31, Type 1, BuildingBlock: WUSLED_clean_sbu_0, # of connection points: 3
#     Node 32, Type 1, BuildingBlock: WUSLED_clean_sbu_0, # of connection points: 3
#     Node 33, Type 1, BuildingBlock: WUSLED_clean_sbu_0, # of connection points: 3
#     Node 34, Type 1, BuildingBlock: WUSLED_clean_sbu_0, # of connection points: 3
#     Node 35, Type 1, BuildingBlock: WUSLED_clean_sbu_0, # of connection points: 3
#     Node 36, Type 1, BuildingBlock: WUSLED_clean_sbu_0, # of connection points: 3
#     Node 37, Type 1, BuildingBlock: WUSLED_clean_sbu_0, # of connection points: 3
#     Node 38, Type 1, BuildingBlock: WUSLED_clean_sbu_0, # of connection points: 3
#     Node 39, Type 1, BuildingBlock: WUSLED_clean_sbu_0, # of connection points: 3
#     Node 40, Type 1, BuildingBlock: WUSLED_clean_sbu_0, # of connection points: 3
#     Node 41, Type 1, BuildingBlock: WUSLED_clean_sbu_0, # of connection points: 3
#     Node 42, Type 1, BuildingBlock: WUSLED_clean_sbu_0, # of connection points: 3
#     Node 43, Type 1, BuildingBlock: WUSLED_clean_sbu_0, # of connection points: 3
#     Node 44, Type 1, BuildingBlock: WUSLED_clean_sbu_0, # of connection points: 3
#     Node 45, Type 1, BuildingBlock: WUSLED_clean_sbu_0, # of connection points: 3
#     Node 46, Type 1, BuildingBlock: WUSLED_clean_sbu_0, # of connection points: 3
#     Node 47, Type 1, BuildingBlock: WUSLED_clean_sbu_0, # of connection points: 3
#     Edge 48, Type (0, 1), BuildingBlock: UVAHIK_clean_linker_0, # of connection points: 2
#     Edge 49, Type (0, 1), BuildingBlock: UVAHIK_clean_linker_0, # of connection points: 2
#     Edge 50, Type (0, 1), BuildingBlock: UVAHIK_clean_linker_0, # of connection points: 2
#     Edge 51, Type (0, 1), BuildingBlock: UVAHIK_clean_linker_0, # of connection points: 2
#     Edge 52, Type (0, 1), BuildingBlock: UVAHIK_clean_linker_0, # of connection points: 2
#     Edge 53, Type (0, 1), BuildingBlock: UVAHIK_clean_linker_0, # of connection points: 2
#     Edge 54, Type (0, 1), BuildingBlock: UVAHIK_clean_linker_0, # of connection points: 2
#     Edge 55, Type (0, 1), BuildingBlock: UVAHIK_clean_linker_0, # of connection points: 2
#     Edge 56, Type (0, 1), BuildingBlock: UVAHIK_clean_linker_0, # of connection points: 2
#     Edge 57, Type (0, 1), BuildingBlock: UVAHIK_clean_linker_0, # of connection points: 2
#     Edge 58, Type (0, 1), BuildingBlock: UVAHIK_clean_linker_0, # of connection points: 2
#     Edge 59, Type (0, 1), BuildingBlock: UVAHIK_clean_linker_0, # of connection points: 2
#     Edge 60, Type (0, 1), BuildingBlock: UVAHIK_clean_linker_0, # of connection points: 2
#     Edge 61, Type (0, 1), BuildingBlock: UVAHIK_clean_linker_0, # of connection points: 2
#     Edge 62, Type (0, 1), BuildingBlock: UVAHIK_clean_linker_0, # of connection points: 2
#     Edge 63, Type (0, 1), BuildingBlock: UVAHIK_clean_linker_0, # of connection points: 2
#     Edge 64, Type (0, 1), BuildingBlock: UVAHIK_clean_linker_0, # of connection points: 2
#     Edge 65, Type (0, 1), BuildingBlock: UVAHIK_clean_linker_0, # of connection points: 2
#     Edge 66, Type (0, 1), BuildingBlock: UVAHIK_clean_linker_0, # of connection points: 2
#     Edge 67, Type (0, 1), BuildingBlock: UVAHIK_clean_linker_0, # of connection points: 2
#     Edge 68, Type (0, 1), BuildingBlock: UVAHIK_clean_linker_0, # of connection points: 2
#     Edge 69, Type (0, 1), BuildingBlock: UVAHIK_clean_linker_0, # of connection points: 2
#     Edge 70, Type (0, 1), BuildingBlock: UVAHIK_clean_linker_0, # of connection points: 2
#     Edge 71, Type (0, 1), BuildingBlock: UVAHIK_clean_linker_0, # of connection points: 2
#     Edge 72, Type (0, 1), BuildingBlock: UVAHIK_clean_linker_0, # of connection points: 2
#     Edge 73, Type (0, 1), BuildingBlock: UVAHIK_clean_linker_0, # of connection points: 2
#     Edge 74, Type (0, 1), BuildingBlock: UVAHIK_clean_linker_0, # of connection points: 2
#     Edge 75, Type (0, 1), BuildingBlock: UVAHIK_clean_linker_0, # of connection points: 2
#     Edge 76, Type (0, 1), BuildingBlock: UVAHIK_clean_linker_0, # of connection points: 2
#     Edge 77, Type (0, 1), BuildingBlock: UVAHIK_clean_linker_0, # of connection points: 2
#     Edge 78, Type (0, 1), BuildingBlock: UVAHIK_clean_linker_0, # of connection points: 2
#     Edge 79, Type (0, 1), BuildingBlock: UVAHIK_clean_linker_0, # of connection points: 2
#     Edge 80, Type (0, 1), BuildingBlock: UVAHIK_clean_linker_0, # of connection points: 2
#     Edge 81, Type (0, 1), BuildingBlock: UVAHIK_clean_linker_0, # of connection points: 2
#     Edge 82, Type (0, 1), BuildingBlock: UVAHIK_clean_linker_0, # of connection points: 2
#     Edge 83, Type (0, 1), BuildingBlock: UVAHIK_clean_linker_0, # of connection points: 2
#     Edge 84, Type (0, 1), BuildingBlock: UVAHIK_clean_linker_0, # of connection points: 2
#     Edge 85, Type (0, 1), BuildingBlock: UVAHIK_clean_linker_0, # of connection points: 2
#     Edge 86, Type (0, 1), BuildingBlock: UVAHIK_clean_linker_0, # of connection points: 2
#     Edge 87, Type (0, 1), BuildingBlock: UVAHIK_clean_linker_0, # of connection points: 2
#     Edge 88, Type (0, 1), BuildingBlock: UVAHIK_clean_linker_0, # of connection points: 2
#     Edge 89, Type (0, 1), BuildingBlock: UVAHIK_clean_linker_0, # of connection points: 2
#     Edge 90, Type (0, 1), BuildingBlock: UVAHIK_clean_linker_0, # of connection points: 2
#     Edge 91, Type (0, 1), BuildingBlock: UVAHIK_clean_linker_0, # of connection points: 2
#     Edge 92, Type (0, 1), BuildingBlock: UVAHIK_clean_linker_0, # of connection points: 2
#     Edge 93, Type (0, 1), BuildingBlock: UVAHIK_clean_linker_0, # of connection points: 2
#     Edge 94, Type (0, 1), BuildingBlock: UVAHIK_clean_linker_0, # of connection points: 2
#     Edge 95, Type (0, 1), BuildingBlock: UVAHIK_clean_linker_0, # of connection points: 2
#     Edge 96, Type (0, 1), BuildingBlock: UVAHIK_clean_linker_0, # of connection points: 2
#     Edge 97, Type (0, 1), BuildingBlock: UVAHIK_clean_linker_0, # of connection points: 2
#     Edge 98, Type (0, 1), BuildingBlock: UVAHIK_clean_linker_0, # of connection points: 2
#     Edge 99, Type (0, 1), BuildingBlock: UVAHIK_clean_linker_0, # of connection points: 2
#     Edge 100, Type (0, 1), BuildingBlock: UVAHIK_clean_linker_0, # of connection points: 2
#     Edge 101, Type (0, 1), BuildingBlock: UVAHIK_clean_linker_0, # of connection points: 2
#     Edge 102, Type (0, 1), BuildingBlock: UVAHIK_clean_linker_0, # of connection points: 2
#     Edge 103, Type (0, 1), BuildingBlock: UVAHIK_clean_linker_0, # of connection points: 2
#     Edge 104, Type (0, 1), BuildingBlock: UVAHIK_clean_linker_0, # of connection points: 2
#     Edge 105, Type (0, 1), BuildingBlock: UVAHIK_clean_linker_0, # of connection points: 2
#     Edge 106, Type (0, 1), BuildingBlock: UVAHIK_clean_linker_0, # of connection points: 2
#     Edge 107, Type (0, 1), BuildingBlock: UVAHIK_clean_linker_0, # of connection points: 2
#     Edge 108, Type (0, 1), BuildingBlock: UVAHIK_clean_linker_0, # of connection points: 2
#     Edge 109, Type (0, 1), BuildingBlock: UVAHIK_clean_linker_0, # of connection points: 2
#     Edge 110, Type (0, 1), BuildingBlock: UVAHIK_clean_linker_0, # of connection points: 2
#     Edge 111, Type (0, 1), BuildingBlock: UVAHIK_clean_linker_0, # of connection points: 2
#     Edge 112, Type (0, 1), BuildingBlock: UVAHIK_clean_linker_0, # of connection points: 2
#     Edge 113, Type (0, 1), BuildingBlock: UVAHIK_clean_linker_0, # of connection points: 2
#     Edge 114, Type (0, 1), BuildingBlock: UVAHIK_clean_linker_0, # of connection points: 2
#     Edge 115, Type (0, 1), BuildingBlock: UVAHIK_clean_linker_0, # of connection points: 2
#     Edge 116, Type (0, 1), BuildingBlock: UVAHIK_clean_linker_0, # of connection points: 2
#     Edge 117, Type (0, 1), BuildingBlock: UVAHIK_clean_linker_0, # of connection points: 2
#     Edge 118, Type (0, 1), BuildingBlock: UVAHIK_clean_linker_0, # of connection points: 2
#     Edge 119, Type (0, 1), BuildingBlock: UVAHIK_clean_linker_0, # of connection points: 2
# Relax obj value: 0.218
# Max RMSD: 0.270
# Mean RMSD: 0.138
data_MOF--net-bwt--node1-WUSLED_clean_sbu_0--node2-WUSLED_clean_sbu_0--edge1-UVAHIK_clean_linker_0
_symmetry_space_group_name_H-M    P1
_symmetry_Int_Tables_number       1
_symmetry_cell_setting            triclinic
loop_
_symmetry_equiv_pos_as_xyz
'x, y, z'
_cell_length_a     99.907817
_cell_length_b     99.970046
_cell_length_c     99.895771
_cell_angle_alpha  90.451518
_cell_angle_beta   90.475011
_cell_angle_gamma 90.44772
loop_
_atom_site_label
_atom_site_type_symbol
_atom_site_fract_x
_atom_site_fract_y
_atom_site_fract_z
_atom_type_partial_charge
C0 C 0.29853 0.64597 0.42726 0.0
C1 C 0.30779 0.65555 0.43199 0.0
C2 C 0.32328 0.65105 0.41346 0.0
C3 C 0.31976 0.6582 0.42518 0.0
C4 C 0.31426 0.64074 0.40929 0.0
C5 C 0.30206 0.63842 0.41592 0.0
U6 U 0.26023 0.64267 0.43935 0.0
O7 O 0.24887 0.65937 0.43039 0.0
O8 O 0.24726 0.6393 0.42158 0.0
C9 C 0.24318 0.65176 0.42114 0.0
C10 C 0.28648 0.64273 0.43553 0.0
C11 C 0.2288 0.65428 0.4176 0.0
C12 C 0.21293 0.66521 0.40252 0.0
C13 C 0.22609 0.66272 0.40676 0.0
C14 C 0.20454 0.65084 0.4199 0.0
C15 C 0.20184 0.65943 0.40901 0.0
C16 C 0.21786 0.6483 0.42415 0.0
C17 C 0.25566 0.62693 0.47485 0.0
C18 C 0.24948 0.61709 0.4962 0.0
C19 C 0.27255 0.61643 0.48904 0.0
C20 C 0.26905 0.62334 0.47729 0.0
C21 C 0.26272 0.61313 0.49852 0.0
C22 C 0.24599 0.62387 0.48448 0.0
C23 C 0.25117 0.63315 0.46216 0.0
O24 O 0.27851 0.63279 0.43188 0.0
O25 O 0.28002 0.65262 0.44126 0.0
O26 O 0.25243 0.6259 0.45122 0.0
O27 O 0.25418 0.64583 0.46037 0.0
H28 H 0.30582 0.66102 0.44114 0.0
H29 H 0.32599 0.66611 0.42925 0.0
H30 H 0.31639 0.63436 0.40084 0.0
H31 H 0.29551 0.63049 0.41226 0.0
H32 H 0.2115 0.67157 0.39391 0.0
H33 H 0.23427 0.66734 0.40139 0.0
H34 H 0.19638 0.6462 0.42526 0.0
H35 H 0.21959 0.64168 0.4325 0.0
H36 H 0.24174 0.61463 0.50332 0.0
H37 H 0.28285 0.61352 0.49066 0.0
H38 H 0.2767 0.62563 0.47002 0.0
H39 H 0.23561 0.6265 0.48282 0.0
C40 C 0.22795 0.31563 0.63583 0.0
C41 C 0.22159 0.32388 0.64515 0.0
C42 C 0.20008 0.31456 0.63807 0.0
C43 C 0.20765 0.32339 0.64622 0.0
C44 C 0.20654 0.30642 0.62872 0.0
C45 C 0.22039 0.30701 0.62757 0.0
U46 U 0.26751 0.32078 0.6395 0.0
O47 O 0.27974 0.32031 0.6213 0.0
O48 O 0.2799 0.3033 0.63503 0.0
C49 C 0.2849 0.30862 0.62417 0.0
C50 C 0.24243 0.31533 0.63441 0.0
C51 C 0.29941 0.30758 0.62304 0.0
C52 C 0.31859 0.29445 0.61642 0.0
C53 C 0.30481 0.29665 0.61616 0.0
C54 C 0.32165 0.31451 0.62996 0.0
C55 C 0.32714 0.30312 0.6237 0.0
C56 C 0.30789 0.3167 0.62965 0.0
C57 C 0.27735 0.34615 0.66982 0.0
C58 C 0.29174 0.35831 0.68543 0.0
C59 C 0.2678 0.36186 0.68583 0.0
C60 C 0.26615 0.35259 0.67522 0.0
C61 C 0.28066 0.36476 0.69111 0.0
C62 C 0.29008 0.3491 0.67502 0.0
C63 C 0.27662 0.33668 0.65847 0.0
O64 O 0.24861 0.32574 0.62929 0.0
O65 O 0.24949 0.30867 0.64325 0.0
O66 O 0.27336 0.34098 0.64648 0.0
O67 O 0.27413 0.32392 0.66049 0.0
H68 H 0.22737 0.33053 0.65162 0.0
H69 H 0.20279 0.32965 0.6536 0.0
H70 H 0.20087 0.2996 0.62232 0.0
H71 H 0.22524 0.30061 0.6203 0.0
H72 H 0.32247 0.28569 0.61139 0.0
H73 H 0.29831 0.28952 0.61101 0.0
H74 H 0.32784 0.3213 0.63587 0.0
H75 H 0.30383 0.32515 0.63508 0.0
H76 H 0.30182 0.3605 0.68891 0.0
H77 H 0.25905 0.36663 0.68997 0.0
H78 H 0.25622 0.35049 0.67127 0.0
H79 H 0.29886 0.34435 0.67088 0.0
C80 C 0.79062 0.00702 0.6237 0.0
C81 C 0.79894 1.00428 0.61274 0.0
C82 C 0.81881 0.0082 0.62671 0.0
C83 C 0.81293 1.00493 0.61422 0.0
C84 C 0.81041 0.0103 0.63773 0.0
C85 C 0.79648 0.00977 0.63622 0.0
U86 U 0.75774 1.00292 0.60362 0.0
O87 O 0.7371 0.99879 0.61034 0.0
O88 O 0.74185 0.01765 0.60015 0.0
C89 C 0.7326 0.01024 0.60581 0.0
C90 C 0.77595 0.0083 0.6221 0.0
C91 C 0.72211 0.01727 0.61341 0.0
C92 C 0.71325 0.02887 0.63301 0.0
C93 C 0.72371 0.0219 0.62667 0.0
C94 C 0.69969 0.0265 0.61293 0.0
C95 C 0.70105 0.0312 0.62618 0.0
C96 C 0.71003 0.01964 0.60669 0.0
C97 C 0.7602 0.98724 0.56797 0.0
C98 C 0.74441 0.99002 0.54952 0.0
C99 C 0.76536 0.97861 0.54581 0.0
C100 C 0.76871 0.98028 0.55933 0.0
C101 C 0.75341 0.98388 0.54062 0.0
C102 C 0.74781 0.99175 0.56309 0.0
C103 C 0.76535 0.9911 0.58134 0.0
O104 O 0.77203 0.01694 0.61307 0.0
O105 O 0.76885 0.99716 0.62188 0.0
O106 O 0.7608 0.98447 0.59169 0.0
O107 O 0.76642 1.00402 0.58356 0.0
H108 H 0.79462 1.0021 0.60298 0.0
H109 H 0.81915 1.00316 0.60556 0.0
H110 H 0.8146 0.013 0.64743 0.0
H111 H 0.79025 0.012 0.64478 0.0
H112 H 0.71465 0.03234 0.64322 0.0
H113 H 0.733 0.02021 0.63205 0.0
H114 H 0.69066 0.02837 0.60719 0.0
H115 H 0.70861 0.01627 0.59643 0.0
H116 H 0.73512 0.9942 0.54584 0.0
H117 H 0.77239 0.97362 0.5393 0.0
H118 H 0.77829 0.9767 0.56291 0.0
H119 H 0.7411 0.99717 0.56961 0.0
C120 C 0.6965 0.95004 0.36567 0.0
C121 C 0.68611 0.95937 0.36675 0.0
C122 C 0.66943 0.94125 0.36742 0.0
C123 C 0.67271 0.95503 0.36752 0.0
C124 C 0.68 0.93204 0.3666 0.0
C125 C 0.69328 0.93637 0.36588 0.0
U126 U 0.72895 0.96541 0.34965 0.0
O127 O 0.7465 0.97399 0.36045 0.0
O128 O 0.74809 0.95482 0.34942 0.0
C129 C 0.75392 0.96359 0.35746 0.0
C130 C 0.71083 0.95393 0.36488 0.0
C131 C 0.76856 0.96489 0.35703 0.0
C132 C 0.78974 0.95989 0.36798 0.0
C133 C 0.7758 0.96066 0.3683 0.0
C134 C 0.78945 0.96788 0.34514 0.0
C135 C 0.79665 0.96327 0.35634 0.0
C136 C 0.77544 0.96871 0.34548 0.0
C137 C 0.72134 0.98342 0.31444 0.0
C138 C 0.73273 0.99477 0.29628 0.0
C139 C 0.70919 0.98903 0.29417 0.0
C140 C 0.70947 0.98347 0.30686 0.0
C141 C 0.72087 0.99429 0.28859 0.0
C142 C 0.73293 0.98945 0.30928 0.0
C143 C 0.72101 0.97652 0.32736 0.0
O144 O 0.71782 0.94754 0.35582 0.0
O145 O 0.71421 0.96663 0.36602 0.0
O146 O 0.72285 0.98335 0.33854 0.0
O147 O 0.72425 0.96382 0.32805 0.0
H148 H 0.68829 0.96999 0.36685 0.0
H149 H 0.66499 0.96251 0.36827 0.0
H150 H 0.67811 0.92138 0.36616 0.0
H151 H 0.70109 0.92893 0.36534 0.0
H152 H 0.79508 0.95615 0.37665 0.0
H153 H 0.77062 0.95746 0.37723 0.0
H154 H 0.79466 0.97053 0.33606 0.0
H155 H 0.76999 0.97191 0.33666 0.0
H156 H 0.7419 0.99859 0.292 0.0
H157 H 0.70003 0.98835 0.28829 0.0
H158 H 0.70048 0.97866 0.31048 0.0
H159 H 0.74218 0.9895 0.31501 0.0
C160 C 0.42524 0.2964 0.64589 0.0
C161 C 0.43032 0.30678 0.65406 0.0
C162 C 0.40967 0.31973 0.65154 0.0
C163 C 0.42279 0.31829 0.6567 0.0
C164 C 0.40481 0.30943 0.64295 0.0
C165 C 0.41257 0.2981 0.63998 0.0
U166 U 0.43818 0.2587 0.64232 0.0
O167 O 0.42918 0.24703 0.65876 0.0
O168 O 0.42041 0.2458 0.63861 0.0
C169 C 0.41987 0.2416 0.65103 0.0
C170 C 0.43408 0.28485 0.64257 0.0
C171 C 0.41589 0.22734 0.65341 0.0
C172 C 0.39844 0.21189 0.66088 0.0
C173 C 0.40295 0.2249 0.65819 0.0
C174 C 0.41976 0.20311 0.65401 0.0
C175 C 0.40676 0.20069 0.6591 0.0
C176 C 0.42427 0.21628 0.65119 0.0
C177 C 0.47399 0.25421 0.62702 0.0
C178 C 0.49547 0.2476 0.61786 0.0
C179 C 0.48844 0.27062 0.61614 0.0
C180 C 0.47654 0.26743 0.62297 0.0
C181 C 0.49791 0.26063 0.61318 0.0
C182 C 0.48369 0.24446 0.62464 0.0
C183 C 0.46114 0.24986 0.63301 0.0
O184 O 0.43076 0.27695 0.63247 0.0
O185 O 0.43976 0.2784 0.65251 0.0
O186 O 0.45032 0.25118 0.6256 0.0
O187 O 0.45919 0.25276 0.6457 0.0
H188 H 0.4403 0.30608 0.65832 0.0
H189 H 0.4274 0.32604 0.66282 0.0
H190 H 0.3949 0.30987 0.6386 0.0
H191 H 0.4085 0.29055 0.63323 0.0
H192 H 0.38825 0.21071 0.66427 0.0
H193 H 0.39621 0.23317 0.65988 0.0
H194 H 0.42658 0.1949 0.65244 0.0
H195 H 0.43429 0.21781 0.64741 0.0
H196 H 0.50263 0.2397 0.61614 0.0
H197 H 0.48996 0.28077 0.61275 0.0
H198 H 0.46922 0.27516 0.62476 0.0
H199 H 0.482 0.23423 0.62776 0.0
C200 C 0.36533 0.69534 0.9509 0.0
C201 C 0.36626 0.68487 0.96015 0.0
C202 C 0.36727 0.66837 0.94185 0.0
C203 C 0.36707 0.67153 0.95568 0.0
C204 C 0.36667 0.67905 0.93274 0.0
C205 C 0.36586 0.69226 0.9372 0.0
U206 U 0.35112 0.72932 0.96571 0.0
O207 O 0.36342 0.74629 0.97331 0.0
O208 O 0.35267 0.74775 0.95408 0.0
C209 C 0.36075 0.75363 0.96276 0.0
C210 C 0.36478 0.70964 0.95485 0.0
C211 C 0.35919 0.76815 0.96458 0.0
C212 C 0.36911 0.79021 0.96171 0.0
C213 C 0.37035 0.77632 0.96211 0.0
C214 C 0.34547 0.78804 0.96657 0.0
C215 C 0.35662 0.79621 0.96367 0.0
C216 C 0.34675 0.77407 0.96705 0.0
C217 C 0.31532 0.72283 0.98397 0.0
C218 C 0.29726 0.73057 0.99824 0.0
C219 C 0.29475 0.70998 0.98546 0.0
C220 C 0.30756 0.71164 0.98033 0.0
C221 C 0.28931 0.71965 0.99405 0.0
C222 C 0.31029 0.73209 0.99329 0.0
C223 C 0.32823 0.72517 0.97738 0.0
O224 O 0.3561 0.71695 0.94829 0.0
O225 O 0.36603 0.71313 0.96753 0.0
O226 O 0.33958 0.72565 0.98412 0.0
O227 O 0.32913 0.72678 0.96436 0.0
H228 H 0.36632 0.68698 0.97079 0.0
H229 H 0.36771 0.66376 0.96313 0.0
H230 H 0.36648 0.67733 0.92205 0.0
H231 H 0.36556 0.70016 0.92984 0.0
H232 H 0.37782 0.79623 0.95931 0.0
H233 H 0.37998 0.7719 0.95997 0.0
H234 H 0.33575 0.79245 0.96821 0.0
H235 H 0.338 0.76791 0.9689 0.0
H236 H 0.29315 0.73824 1.0047 0.0
H237 H 0.28873 0.70152 0.98209 0.0
H238 H 0.31123 0.7044 0.97315 0.0
H239 H 0.31615 0.74083 0.99617 0.0
C240 C 0.63585 0.22776 0.31598 0.0
C241 C 0.64528 0.22142 0.32414 0.0
C242 C 0.63803 0.19991 0.31501 0.0
C243 C 0.6463 0.20748 0.32371 0.0
C244 C 0.62853 0.20633 0.307 0.0
C245 C 0.62741 0.22018 0.30755 0.0
U246 U 0.64029 0.26727 0.32052 0.0
O247 O 0.62229 0.27977 0.32033 0.0
O248 O 0.63565 0.27959 0.30303 0.0
C249 C 0.62498 0.28479 0.30854 0.0
C250 C 0.63458 0.24224 0.31549 0.0
C251 C 0.62405 0.2993 0.30748 0.0
C252 C 0.61583 0.31858 0.29545 0.0
C253 C 0.6157 0.3048 0.29766 0.0
C254 C 0.63219 0.3214 0.31336 0.0
C255 C 0.62427 0.32698 0.30312 0.0
C256 C 0.63212 0.30765 0.31549 0.0
C257 C 0.67117 0.27713 0.34532 0.0
C258 C 0.68663 0.2917 0.35751 0.0
C259 C 0.68631 0.26794 0.36206 0.0
C260 C 0.67616 0.2661 0.35234 0.0
C261 C 0.69145 0.28085 0.36495 0.0
C262 C 0.67662 0.28985 0.34785 0.0
C263 C 0.65972 0.27625 0.33595 0.0
O264 O 0.62985 0.24864 0.32596 0.0
O265 O 0.64337 0.24906 0.30852 0.0
O266 O 0.64775 0.27327 0.3405 0.0
O267 O 0.66149 0.27349 0.32319 0.0
H268 H 0.65188 0.22722 0.33064 0.0
H269 H 0.65378 0.20263 0.32987 0.0
H270 H 0.62205 0.20064 0.30028 0.0
H271 H 0.62006 0.22501 0.30121 0.0
H272 H 0.60967 0.32261 0.2875 0.0
H273 H 0.60945 0.29839 0.29139 0.0
H274 H 0.63904 0.32757 0.31923 0.0
H275 H 0.63871 0.30349 0.32303 0.0
H276 H 0.69053 0.30172 0.35919 0.0
H277 H 0.68981 0.25936 0.36759 0.0
H278 H 0.67206 0.25619 0.35052 0.0
H279 H 0.6729 0.29848 0.34252 0.0
C280 C 0.62371 0.7895 1.00632 0.0
C281 C 0.61279 0.79815 1.00452 0.0
C282 C 0.62723 0.81751 0.00902 0.0
C283 C 0.61456 0.81209 1.00579 0.0
C284 C 0.6382 0.80884 0.01 0.0
C285 C 0.63646 0.79501 0.00863 0.0
U286 U 0.60314 0.75685 1.00252 0.0
O287 O 0.60942 0.73614 0.99795 0.0
O288 O 0.60015 0.74091 0.01725 0.0
C289 C 0.60553 0.73166 0.00964 0.0
C290 C 0.62194 0.77484 0.0074 0.0
C291 C 0.61393 0.72161 0.01645 0.0
C292 C 0.63092 0.71513 0.03281 0.0
C293 C 0.62453 0.72506 0.0252 0.0
C294 C 0.61658 0.69825 0.02255 0.0
C295 C 0.62685 0.70162 0.0317 0.0
C296 C 0.6102 0.70812 0.01507 0.0
C297 C 0.56699 0.76029 0.98804 0.0
C298 C 0.54995 0.74291 0.98538 0.0
C299 C 0.54371 0.76624 0.98463 0.0
C300 C 0.55708 0.76997 0.98643 0.0
C301 C 0.53986 0.75267 0.98432 0.0
C302 C 0.56342 0.74669 0.98729 0.0
C303 C 0.58061 0.76493 0.99155 0.0
O304 O 0.61321 0.7709 0.01633 0.0
O305 O 0.62126 0.76789 0.99617 0.0
O306 O 0.59063 0.76019 0.98454 0.0
O307 O 0.58325 0.7658 1.00442 0.0
H308 H 0.60284 0.79411 1.00272 0.0
H309 H 0.60593 0.81854 1.005 0.0
H310 H 0.6481 0.81275 0.01236 0.0
H311 H 0.64501 0.78855 0.01002 0.0
H312 H 0.63886 0.71801 0.03972 0.0
H313 H 0.62758 0.73543 0.02643 0.0
H314 H 0.61306 0.68801 0.02159 0.0
H315 H 0.60196 0.70524 0.00852 0.0
H316 H 0.54743 0.73236 0.98499 0.0
H317 H 0.53632 0.77409 0.98413 0.0
H318 H 0.55964 0.78051 0.98706 0.0
H319 H 0.57095 0.73904 0.98852 0.0
C320 C 0.64638 0.42514 0.29696 0.0
C321 C 0.65473 0.43015 0.30724 0.0
C322 C 0.65211 0.4096 0.32032 0.0
C323 C 0.65743 0.42262 0.31876 0.0
C324 C 0.64332 0.40482 0.31015 0.0
C325 C 0.64032 0.41256 0.2988 0.0
U326 U 0.64262 0.43815 0.2592 0.0
O327 O 0.65913 0.42935 0.24745 0.0
O328 O 0.63906 0.42042 0.24622 0.0
C329 C 0.65147 0.42002 0.24197 0.0
C330 C 0.64299 0.43397 0.28538 0.0
C331 C 0.65382 0.41618 0.22765 0.0
C332 C 0.66174 0.39908 0.21202 0.0
C333 C 0.65931 0.40355 0.22511 0.0
C334 C 0.65327 0.41986 0.20334 0.0
C335 C 0.65868 0.40703 0.20082 0.0
C336 C 0.65084 0.42437 0.2166 0.0
C337 C 0.62702 0.47386 0.25472 0.0
C338 C 0.61812 0.49545 0.2481 0.0
C339 C 0.6158 0.48819 0.271 0.0
C340 C 0.62265 0.4763 0.26785 0.0
C341 C 0.61313 0.4978 0.26104 0.0
C342 C 0.6249 0.48366 0.245 0.0
C343 C 0.63309 0.46104 0.2504 0.0
O344 O 0.6329 0.4306 0.27748 0.0
O345 O 0.65286 0.43973 0.27891 0.0
O346 O 0.62577 0.45016 0.25177 0.0
O347 O 0.6458 0.45919 0.25327 0.0
H348 H 0.65909 0.44007 0.30647 0.0
H349 H 0.66374 0.42712 0.32644 0.0
H350 H 0.63885 0.39497 0.31073 0.0
H351 H 0.63342 0.40855 0.29135 0.0
H352 H 0.66623 0.38934 0.21075 0.0
H353 H 0.6618 0.39703 0.23336 0.0
H354 H 0.65071 0.42633 0.19508 0.0
H355 H 0.6466 0.43418 0.21821 0.0
H356 H 0.61666 0.5027 0.24023 0.0
H357 H 0.61216 0.4896 0.28109 0.0
H358 H 0.62423 0.4689 0.27556 0.0
H359 H 0.62826 0.48206 0.23483 0.0
C360 C 0.95022 0.36546 0.69539 0.0
C361 C 0.95905 0.36405 0.68462 0.0
C362 C 0.94057 0.36734 0.6687 0.0
C363 C 0.95421 0.36469 0.67136 0.0
C364 C 0.93221 0.37 0.67966 0.0
C365 C 0.93691 0.36885 0.69275 0.0
U366 U 0.96455 0.3504 0.7294 0.0
O367 O 0.95293 0.35249 0.74782 0.0
O368 O 0.9724 0.36275 0.74619 0.0
C369 C 0.96182 0.36044 0.75358 0.0
C370 C 0.95426 0.3643 0.7096 0.0
C371 C 0.96369 0.35903 0.7681 0.0
C372 C 0.9606 0.36905 0.79006 0.0
C373 C 0.9607 0.37011 0.77616 0.0
C374 C 0.96703 0.3458 0.78815 0.0
C375 C 0.9635 0.35683 0.79626 0.0
C376 C 0.96705 0.34687 0.77413 0.0
C377 C 0.9822 0.31416 0.72384 0.0
C378 C 0.9972 0.29676 0.73169 0.0
C379 C 0.9846 0.29361 0.71106 0.0
C380 C 0.97875 0.30612 0.71278 0.0
C381 C 0.99371 0.28869 0.72059 0.0
C382 C 0.99162 0.30951 0.73319 0.0
C383 C 0.97574 0.32721 0.7257 0.0
O384 O 0.94738 0.35578 0.71679 0.0
O385 O 0.96696 0.36504 0.71307 0.0
O386 O 0.9827 0.33843 0.72608 0.0
O387 O 0.96273 0.3284 0.72714 0.0
H388 H 0.96954 0.36214 0.68643 0.0
H389 H 0.96108 0.36271 0.66327 0.0
H390 H 0.92189 0.37288 0.67824 0.0
H391 H 0.93003 0.37063 0.7009 0.0
H392 H 0.95808 0.37779 0.79596 0.0
H393 H 0.95802 0.37957 0.77165 0.0
H394 H 0.96925 0.33622 0.79261 0.0
H395 H 0.9693 0.33817 0.76804 0.0
H396 H 1.00416 0.29318 0.7392 0.0
H397 H 0.98159 0.28753 0.70251 0.0
H398 H 0.97146 0.30949 0.70549 0.0
H399 H 0.99437 0.31559 0.74183 0.0
C400 C 0.31341 0.63091 0.23061 0.0
C401 C 0.32194 0.64075 0.2254 0.0
C402 C 0.31323 0.63639 0.20295 0.0
C403 C 0.32186 0.64346 0.21172 0.0
C404 C 0.30504 0.62618 0.20811 0.0
C405 C 0.30509 0.6235 0.22188 0.0
U406 U 0.32436 0.64269 0.26465 0.0
O407 O 0.31381 0.64607 0.28345 0.0
O408 O 0.33056 0.63185 0.28289 0.0
C409 C 0.32113 0.63744 0.29008 0.0
C410 C 0.31284 0.62899 0.24518 0.0
C411 C 0.31416 0.6293 0.30012 0.0
C412 C 0.29311 0.62346 0.3107 0.0
C413 C 0.30036 0.62658 0.29917 0.0
C414 C 0.31365 0.62398 0.32373 0.0
C415 C 0.29959 0.62309 0.32326 0.0
C416 C 0.32085 0.62709 0.31226 0.0
C417 C 0.34797 0.67342 0.26472 0.0
C418 C 0.35769 0.68408 0.28456 0.0
C419 C 0.36421 0.69141 0.26247 0.0
C420 C 0.35546 0.68204 0.25668 0.0
C421 C 0.36557 0.6924 0.27645 0.0
C422 C 0.34898 0.67456 0.27872 0.0
C423 C 0.33963 0.66308 0.25812 0.0
O424 O 0.32419 0.62543 0.25083 0.0
O425 O 0.3068 0.63863 0.25176 0.0
O426 O 0.32665 0.66402 0.25982 0.0
O427 O 0.34403 0.65077 0.25901 0.0
H428 H 0.32848 0.64654 0.23198 0.0
H429 H 0.32843 0.65124 0.208 0.0
H430 H 0.29827 0.62061 0.20159 0.0
H431 H 0.29843 0.61588 0.22575 0.0
H432 H 0.28231 0.62258 0.31 0.0
H433 H 0.295 0.62808 0.28984 0.0
H434 H 0.31902 0.62385 0.33319 0.0
H435 H 0.33148 0.62917 0.31321 0.0
H436 H 0.35859 0.68465 0.29537 0.0
H437 H 0.37003 0.69783 0.25601 0.0
H438 H 0.35473 0.68136 0.24586 0.0
H439 H 0.34324 0.66796 0.28508 0.0
C440 C 0.00732 0.62319 0.79039 0.0
C441 C 1.00444 0.61236 0.79882 0.0
C442 C 0.00856 0.62643 0.8186 0.0
C443 C 1.00508 0.61396 0.8128 0.0
C444 C 0.01088 0.63732 0.81005 0.0
C445 C 0.01028 0.6357 0.79614 0.0
U446 U 1.00332 0.6028 0.75769 0.0
O447 O 0.99913 0.60932 0.73699 0.0
O448 O 0.0181 0.59937 0.74184 0.0
C449 C 0.01065 0.60489 0.73254 0.0
C450 C 0.00854 0.62148 0.77574 0.0
C451 C 0.01764 0.61253 0.72202 0.0
C452 C 0.02913 0.63218 0.71312 0.0
C453 C 0.02217 0.62582 0.72359 0.0
C454 C 0.02697 0.61205 0.69964 0.0
C455 C 0.03157 0.62533 0.70096 0.0
C456 C 0.02011 0.6058 0.70998 0.0
C457 C 0.98821 0.56695 0.76059 0.0
C458 C 0.98738 0.54991 0.74305 0.0
C459 C 0.98332 0.54379 0.76608 0.0
C460 C 0.985 0.55714 0.76999 0.0
C461 C 0.98481 0.5399 0.75261 0.0
C462 C 0.98912 0.56334 0.74702 0.0
C463 C 0.99183 0.58044 0.76557 0.0
O464 O 0.01728 0.61252 0.77187 0.0
O465 O 0.99736 0.62106 0.76869 0.0
O466 O 0.98506 0.59063 0.76085 0.0
O467 O 1.00472 0.58286 0.76663 0.0
H468 H 1.00211 0.60259 0.79459 0.0
H469 H 1.00308 0.60539 0.81907 0.0
H470 H 0.01378 0.64701 0.8141 0.0
H471 H 0.01262 0.64416 0.78983 0.0
H472 H 0.03251 0.64241 0.7145 0.0
H473 H 0.0204 0.63121 0.73285 0.0
H474 H 0.02892 0.60628 0.69065 0.0
H475 H 0.01683 0.59551 0.70859 0.0
H476 H 0.9884 0.54732 0.73257 0.0
H477 H 0.98155 0.53642 0.77376 0.0
H478 H 0.98434 0.55973 0.78052 0.0
H479 H 0.99159 0.57078 0.7396 0.0
C480 C 0.71493 0.37167 0.59106 0.0
C481 C 0.70442 0.36445 0.58492 0.0
C482 C 0.69172 0.36337 0.60591 0.0
C483 C 0.69322 0.36021 0.59217 0.0
C484 C 0.70238 0.37072 0.61205 0.0
C485 C 0.71379 0.37474 0.60477 0.0
U486 U 0.75225 0.37691 0.5776 0.0
O487 O 0.76362 0.35953 0.58512 0.0
O488 O 0.76575 0.37901 0.59516 0.0
C489 C 0.76954 0.36645 0.59476 0.0
C490 C 0.72617 0.37657 0.58246 0.0
C491 C 0.78378 0.36338 0.59827 0.0
C492 C 0.79932 0.35475 0.61508 0.0
C493 C 0.78629 0.35776 0.61085 0.0
C494 C 0.808 0.36285 0.59415 0.0
C495 C 0.8105 0.35737 0.60696 0.0
C496 C 0.79478 0.36585 0.58986 0.0
C497 C 0.75681 0.39343 0.54215 0.0
C498 C 0.76376 0.40499 0.52195 0.0
C499 C 0.74045 0.39906 0.52478 0.0
C500 C 0.74355 0.3933 0.53727 0.0
C501 C 0.75056 0.40494 0.5169 0.0
C502 C 0.76681 0.39933 0.53435 0.0
C503 C 0.76091 0.38713 0.55494 0.0
O504 O 0.73432 0.38603 0.58692 0.0
O505 O 0.7323 0.36766 0.57506 0.0
O506 O 0.75789 0.37443 0.55646 0.0
O507 O 0.75965 0.39419 0.56602 0.0
H508 H 0.70487 0.36202 0.57434 0.0
H509 H 0.68585 0.35433 0.58674 0.0
H510 H 0.70199 0.37365 0.62246 0.0
H511 H 0.72164 0.38037 0.60987 0.0
H512 H 0.80054 0.3502 0.6248 0.0
H513 H 0.77805 0.35566 0.61752 0.0
H514 H 0.81624 0.36507 0.58754 0.0
H515 H 0.79319 0.37016 0.58007 0.0
H516 H 0.7718 0.40962 0.51639 0.0
H517 H 0.73018 0.39875 0.52122 0.0
H518 H 0.73565 0.38871 0.54306 0.0
H519 H 0.7771 0.39953 0.53785 0.0
C520 C 0.78215 0.69415 0.3865 0.0
C521 C 0.78833 0.68285 0.38096 0.0
C522 C 0.80979 0.69471 0.38045 0.0
C523 C 0.80202 0.68309 0.37806 0.0
C524 C 0.80362 0.70583 0.38646 0.0
C525 C 0.78994 0.70554 0.38945 0.0
U526 U 0.74751 0.68313 0.37499 0.0
O527 O 0.72874 0.67869 0.38586 0.0
O528 O 0.72953 0.69486 0.37088 0.0
C529 C 0.7222 0.68797 0.37928 0.0
C530 C 0.76746 0.69465 0.38805 0.0
C531 C 0.71057 0.69457 0.38528 0.0
C532 C 0.69899 0.71486 0.39194 0.0
C533 C 0.71097 0.70782 0.39009 0.0
C534 C 0.68634 0.69512 0.38524 0.0
C535 C 0.68655 0.70877 0.38882 0.0
C536 C 0.69821 0.68814 0.38353 0.0
C537 C 0.74646 0.65825 0.34503 0.0
C538 C 0.7266 0.64823 0.3346 0.0
C539 C 0.74845 0.64466 0.32491 0.0
C540 C 0.75432 0.65243 0.33506 0.0
C541 C 0.73454 0.64245 0.32453 0.0
C542 C 0.73252 0.65617 0.34476 0.0
C543 C 0.75323 0.66645 0.35542 0.0
O544 O 0.76109 0.70034 0.37808 0.0
O545 O 0.76156 0.68361 0.39214 0.0
O546 O 0.7517 0.66269 0.3679 0.0
O547 O 0.75256 0.67946 0.3539 0.0
H548 H 0.78252 0.67395 0.37853 0.0
H549 H 0.80645 0.67423 0.37371 0.0
H550 H 0.80919 0.71499 0.38834 0.0
H551 H 0.78534 0.7144 0.39363 0.0
H552 H 0.69949 0.72531 0.39488 0.0
H553 H 0.72046 0.71296 0.39152 0.0
H554 H 0.67709 0.69008 0.38246 0.0
H555 H 0.69769 0.67799 0.37965 0.0
H556 H 0.71585 0.64674 0.33451 0.0
H557 H 0.75484 0.64019 0.31743 0.0
H558 H 0.76508 0.65389 0.33513 0.0
H559 H 0.72627 0.66066 0.35235 0.0
C560 C 0.22202 0.99814 0.39108 0.0
C561 C 0.21363 1.00133 0.40185 0.0
C562 C 0.19384 0.99819 0.38755 0.0
C563 C 0.19967 1.00136 0.4001 0.0
C564 C 0.2024 0.99525 0.37679 0.0
C565 C 0.21629 0.99526 0.37855 0.0
U566 U 0.25415 1.00308 0.41173 0.0
O567 O 0.27121 0.98968 0.41472 0.0
O568 O 0.27445 0.0094 0.40568 0.0
C569 C 0.27981 0.99798 0.40925 0.0
C570 C 0.23667 0.99723 0.39275 0.0
C571 C 0.28973 0.99202 0.40016 0.0
C572 C 0.29638 0.97502 0.38399 0.0
C573 C 0.28631 0.98191 0.39086 0.0
C574 C 0.31324 0.98884 0.395 0.0
C575 C 0.30998 0.9782 0.38625 0.0
C576 C 0.30322 0.99562 0.40191 0.0
C577 C 0.25059 0.01781 0.44733 0.0
C578 C 0.2688 0.02087 0.46339 0.0
C579 C 0.2458 0.0231 0.47052 0.0
C580 C 0.24141 0.02053 0.45746 0.0
C581 C 0.25954 0.02307 0.47376 0.0
C582 C 0.26435 0.01819 0.45028 0.0
C583 C 0.24541 0.01371 0.43411 0.0
O584 O 0.24327 0.00865 0.39333 0.0
O585 O 0.24083 0.98853 0.40163 0.0
O586 O 0.24548 1.00078 0.43172 0.0
O587 O 0.24925 0.02088 0.42383 0.0
H588 H 0.21788 1.00361 0.41163 0.0
H589 H 0.19346 1.00382 0.40859 0.0
H590 H 0.19839 0.99249 0.36705 0.0
H591 H 0.22259 0.99273 0.37013 0.0
H592 H 0.29357 0.96696 0.37719 0.0
H593 H 0.27594 0.97901 0.38931 0.0
H594 H 0.3236 0.99144 0.39709 0.0
H595 H 0.30608 1.00333 0.40909 0.0
H596 H 0.27946 0.02095 0.46543 0.0
H597 H 0.23833 0.02446 0.47818 0.0
H598 H 0.23075 0.02021 0.45536 0.0
H599 H 0.27159 0.01609 0.44254 0.0
C600 C 0.31401 0.06818 0.64491 0.0
C601 C 0.3236 0.06299 0.65372 0.0
C602 C 0.3414 0.07554 0.64262 0.0
C603 C 0.33714 0.06657 0.65255 0.0
C604 C 0.33175 0.08031 0.63348 0.0
C605 C 0.31822 0.07667 0.63463 0.0
U606 U 0.28502 0.05324 0.66485 0.0
O607 O 0.26474 0.06089 0.66805 0.0
O608 O 0.26745 0.04114 0.65801 0.0
C609 C 0.25915 0.05017 0.66265 0.0
C610 C 0.29962 0.06508 0.6465 0.0
C611 C 0.24466 0.04977 0.65995 0.0
C612 C 0.22441 0.0596 0.65075 0.0
C613 C 0.23841 0.0594 0.65194 0.0
C614 C 0.22287 0.04044 0.66537 0.0
C615 C 0.21649 0.05034 0.65777 0.0
C616 C 0.23682 0.04012 0.66638 0.0
C617 C 0.29564 0.03695 0.69886 0.0
C618 C 0.28246 0.02492 0.71533 0.0
C619 C 0.30608 0.0291 0.71929 0.0
C620 C 0.30688 0.0358 0.70719 0.0
C621 C 0.29388 0.0237 0.72359 0.0
C622 C 0.28337 0.03139 0.70291 0.0
C623 C 0.29739 0.04399 0.68612 0.0
O624 O 0.29631 0.05234 0.64606 0.0
O625 O 0.29359 0.07159 0.65618 0.0
O626 O 0.29282 0.05625 0.68538 0.0
O627 O 0.29547 0.03697 0.67512 0.0
H628 H 0.32055 0.05629 0.6616 0.0
H629 H 0.34424 0.06255 0.65963 0.0
H630 H 0.33461 0.08691 0.62544 0.0
H631 H 0.311 0.08064 0.62758 0.0
H632 H 0.21975 0.06736 0.64484 0.0
H633 H 0.24432 0.06693 0.64689 0.0
H634 H 0.21705 0.0331 0.67078 0.0
H635 H 0.24148 0.03262 0.6726 0.0
H636 H 0.27288 0.02097 0.71852 0.0
H637 H 0.31497 0.02866 0.72556 0.0
H638 H 0.31634 0.04028 0.70448 0.0
H639 H 0.27454 0.03223 0.6966 0.0
C640 C 0.58983 0.71246 0.37392 0.0
C641 C 0.58564 0.69984 0.37842 0.0
C642 C 0.60435 0.6887 0.36714 0.0
C643 C 0.59277 0.68818 0.37517 0.0
C644 C 0.6087 0.70152 0.36307 0.0
C645 C 0.60155 0.71318 0.36643 0.0
U646 U 0.57724 0.75063 0.37667 0.0
O647 O 0.59483 0.7639 0.38003 0.0
O648 O 0.58573 0.76244 0.36005 0.0
C649 C 0.59502 0.76814 0.36761 0.0
C650 C 0.58142 0.72443 0.37683 0.0
C651 C 0.59864 0.78251 0.36514 0.0
C652 C 0.61605 0.79839 0.35843 0.0
C653 C 0.61187 0.78535 0.36149 0.0
C654 C 0.5938 0.80649 0.36275 0.0
C655 C 0.60711 0.80924 0.35869 0.0
C656 C 0.58961 0.79328 0.36592 0.0
C657 C 0.5415 0.75531 0.39243 0.0
C658 C 0.52129 0.76245 0.40379 0.0
C659 C 0.52463 0.73892 0.39924 0.0
C660 C 0.53701 0.74196 0.39322 0.0
C661 C 0.51653 0.74918 0.40458 0.0
C662 C 0.5335 0.76544 0.39777 0.0
C663 C 0.55432 0.75935 0.3862 0.0
O664 O 0.57603 0.73081 0.36669 0.0
O665 O 0.58499 0.73251 0.3867 0.0
O666 O 0.55611 0.75619 0.37355 0.0
O667 O 0.56524 0.7582 0.39351 0.0
H668 H 0.57669 0.69896 0.38442 0.0
H669 H 0.58915 0.67877 0.37906 0.0
H670 H 0.61749 0.70256 0.35702 0.0
H671 H 0.60497 0.72281 0.36314 0.0
H672 H 0.62646 0.79988 0.35591 0.0
H673 H 0.61911 0.77735 0.36089 0.0
H674 H 0.58653 0.81444 0.36318 0.0
H675 H 0.57933 0.79148 0.3688 0.0
H676 H 0.5157 0.77065 0.40806 0.0
H677 H 0.52135 0.72858 0.39957 0.0
H678 H 0.54303 0.73395 0.38917 0.0
H679 H 0.53677 0.77579 0.39735 0.0
C680 C 0.64615 0.31299 0.06953 0.0
C681 C 0.64796 0.32349 0.06039 0.0
C682 C 0.64324 0.34011 0.07788 0.0
C683 C 0.64635 0.33687 0.06448 0.0
C684 C 0.64084 0.32946 0.08674 0.0
C685 C 0.64232 0.31614 0.08263 0.0
U686 U 0.66627 0.28469 0.05298 0.0
O687 O 0.67109 0.2645 0.06022 0.0
O688 O 0.65963 0.26692 0.04129 0.0
C689 C 0.66558 0.25873 0.04965 0.0
C690 C 0.64814 0.29872 0.0658 0.0
C691 C 0.66216 0.24439 0.04982 0.0
C692 C 0.64881 0.22529 0.05694 0.0
C693 C 0.65099 0.23921 0.05651 0.0
C694 C 0.66884 0.22182 0.04391 0.0
C695 C 0.65781 0.2164 0.05071 0.0
C696 C 0.67093 0.23561 0.04345 0.0
C697 C 0.6993 0.29566 0.03557 0.0
C698 C 0.71628 0.28193 0.02496 0.0
C699 C 0.71929 0.30596 0.02659 0.0
C700 C 0.70712 0.30698 0.03312 0.0
C701 C 0.72415 0.29343 0.02262 0.0
C702 C 0.70381 0.28305 0.03131 0.0
C703 C 0.6868 0.29765 0.04296 0.0
O704 O 0.64716 0.29557 0.05304 0.0
O705 O 0.65812 0.29268 0.07186 0.0
O706 O 0.68653 0.29329 0.05532 0.0
O707 O 0.67561 0.29542 0.03635 0.0
H708 H 0.65078 0.3214 0.05014 0.0
H709 H 0.64792 0.34464 0.0572 0.0
H710 H 0.63787 0.33135 0.09697 0.0
H711 H 0.6406 0.30825 0.0898 0.0
H712 H 0.64015 0.22149 0.06217 0.0
H713 H 0.64409 0.24586 0.0615 0.0
H714 H 0.67616 0.21539 0.03926 0.0
H715 H 0.67967 0.23943 0.03832 0.0
H716 H 0.71986 0.27213 0.02209 0.0
H717 H 0.72522 0.31497 0.0253 0.0
H718 H 0.70398 0.31664 0.03666 0.0
H719 H 0.69789 0.27414 0.03316 0.0
C720 C 0.38629 0.78161 0.69454 0.0
C721 C 0.37757 0.78714 0.68504 0.0
C722 C 0.38095 0.80947 0.69476 0.0
C723 C 0.3749 0.80087 0.68516 0.0
C724 C 0.39006 0.80386 0.70398 0.0
C725 C 0.39263 0.79008 0.70391 0.0
U726 U 0.3749 0.74716 0.68357 0.0
O727 O 0.38569 0.72846 0.67877 0.0
O728 O 0.37067 0.72894 0.69486 0.0
C729 C 0.37914 0.72172 0.68793 0.0
C730 C 0.388 0.76697 0.69526 0.0
C731 C 0.38569 0.71056 0.69483 0.0
C732 C 0.39269 0.69984 0.71549 0.0
C733 C 0.39036 0.71151 0.70811 0.0
C734 C 0.38684 0.6864 0.69599 0.0
C735 C 0.39024 0.68715 0.70968 0.0
C736 C 0.38461 0.69798 0.68868 0.0
C737 C 0.345 0.74706 0.65854 0.0
C738 C 0.33344 0.72764 0.64897 0.0
C739 C 0.32604 0.74999 0.64355 0.0
C740 C 0.33613 0.75539 0.65171 0.0
C741 C 0.32461 0.73606 0.64193 0.0
C742 C 0.34358 0.73311 0.65723 0.0
C743 C 0.35542 0.75339 0.66699 0.0
O744 O 0.37805 0.76055 0.70092 0.0
O745 O 0.39212 0.76109 0.68422 0.0
O746 O 0.36788 0.75181 0.6632 0.0
O747 O 0.35384 0.75235 0.67998 0.0
H748 H 0.37251 0.78076 0.67775 0.0
H749 H 0.36767 0.80459 0.67801 0.0
H750 H 0.39517 0.81007 0.71136 0.0
H751 H 0.39938 0.78601 0.71135 0.0
H752 H 0.39543 0.70073 0.72597 0.0
H753 H 0.39126 0.72117 0.71303 0.0
H754 H 0.38458 0.67689 0.69118 0.0
H755 H 0.38086 0.69702 0.6785 0.0
H756 H 0.33266 0.71687 0.64793 0.0
H757 H 0.31927 0.75678 0.63859 0.0
H758 H 0.337 0.76616 0.65271 0.0
H759 H 0.35033 0.72651 0.66251 0.0
C760 C 0.39096 0.22101 0.99871 0.0
C761 C 0.40218 0.21275 1.00029 0.0
C762 C 0.3879 0.19282 0.99886 0.0
C763 C 0.40067 0.19878 1.00033 0.0
C764 C 0.37669 0.20121 0.99776 0.0
C765 C 0.37823 0.21513 0.99767 0.0
U766 U 0.41113 0.25338 1.00328 0.0
O767 O 0.41422 0.27021 0.98955 0.0
O768 O 0.40503 0.27375 0.00916 0.0
C769 C 0.40896 0.27898 0.9978 0.0
C770 C 0.39236 0.23567 0.99749 0.0
C771 C 0.40052 0.28946 0.99184 0.0
C772 C 0.38169 0.29706 0.97831 0.0
C773 C 0.38867 0.28666 0.98464 0.0
C774 C 0.39815 0.31303 0.98664 0.0
C775 C 0.38646 0.31037 0.97912 0.0
C776 C 0.40507 0.30271 0.99289 0.0
C777 C 0.44651 0.25022 0.01873 0.0
C778 C 0.46432 0.26683 0.01704 0.0
C779 C 0.46867 0.24554 0.02761 0.0
C780 C 0.45534 0.24172 0.02547 0.0
C781 C 0.47332 0.25796 0.02309 0.0
C782 C 0.45094 0.26299 0.01487 0.0
C783 C 0.43335 0.24492 0.01453 0.0
O784 O 0.39269 0.24253 0.00878 0.0
O785 O 0.40128 0.23979 0.98881 0.0
O786 O 0.43115 0.2447 1.00155 0.0
O787 O 0.42295 0.24889 0.02144 0.0
H788 H 0.41212 0.21709 1.0012 0.0
H789 H 0.4095 0.19264 1.00135 0.0
H790 H 0.36674 0.19702 0.99643 0.0
H791 H 0.36945 0.22132 0.99644 0.0
H792 H 0.37267 0.29467 0.97267 0.0
H793 H 0.38499 0.27647 0.98373 0.0
H794 H 0.4023 0.32305 0.98729 0.0
H795 H 0.41424 0.30506 0.99832 0.0
H796 H 0.4678 0.27641 0.01338 0.0
H797 H 0.47552 0.23854 0.03217 0.0
H798 H 0.45209 0.23183 0.02847 0.0
H799 H 0.44426 0.26967 0.00963 0.0
C800 C 0.37096 0.5896 0.71332 0.0
C801 C 0.36776 0.58287 0.70131 0.0
C802 C 0.36504 0.60401 0.68936 0.0
C803 C 0.36497 0.58991 0.68953 0.0
C804 C 0.36854 0.61077 0.70142 0.0
C805 C 0.37162 0.60364 0.71319 0.0
U806 U 0.37552 0.57694 0.75132 0.0
O807 O 0.37887 0.5946 0.76449 0.0
O808 O 0.35908 0.58502 0.76362 0.0
C809 C 0.36656 0.59453 0.76903 0.0
C810 C 0.3745 0.5814 0.72524 0.0
C811 C 0.36436 0.59828 0.7834 0.0
C812 C 0.35825 0.61589 0.79927 0.0
C813 C 0.36121 0.61163 0.78624 0.0
C814 C 0.36173 0.59348 0.80734 0.0
C815 C 0.35812 0.60691 0.8101 0.0
C816 C 0.36479 0.58921 0.79414 0.0
C817 C 0.39209 0.54135 0.75552 0.0
C818 C 0.40339 0.5211 0.7627 0.0
C819 C 0.39906 0.5245 0.73914 0.0
C820 C 0.39299 0.53688 0.74216 0.0
C821 C 0.40432 0.51636 0.74943 0.0
C822 C 0.39733 0.53331 0.76567 0.0
C823 C 0.38582 0.55417 0.7596 0.0
O824 O 0.36484 0.57542 0.73183 0.0
O825 O 0.38456 0.58521 0.73298 0.0
O826 O 0.37303 0.55575 0.75692 0.0
O827 O 0.39289 0.5652 0.75815 0.0
H828 H 0.36761 0.57204 0.70098 0.0
H829 H 0.36288 0.58419 0.68051 0.0
H830 H 0.3687 0.62159 0.70187 0.0
H831 H 0.37454 0.60909 0.72215 0.0
H832 H 0.35606 0.62637 0.80079 0.0
H833 H 0.36088 0.61889 0.77824 0.0
H834 H 0.36185 0.58618 0.81528 0.0
H835 H 0.36727 0.57883 0.79231 0.0
H836 H 0.40759 0.51551 0.77094 0.0
H837 H 0.39948 0.52126 0.72879 0.0
H838 H 0.38901 0.54291 0.73412 0.0
H839 H 0.39682 0.53653 0.77603 0.0
C840 C 0.06766 0.64315 0.31197 0.0
C841 C 0.06061 0.64995 0.32199 0.0
C842 C 0.07523 0.64072 0.33948 0.0
C843 C 0.06431 0.64874 0.33552 0.0
C844 C 0.08166 0.63327 0.32932 0.0
C845 C 0.07802 0.6346 0.3158 0.0
U846 U 0.05246 0.66412 0.284 0.0
O847 O 0.05938 0.66922 0.26381 0.0
O848 O 0.04011 0.65853 0.26629 0.0
C849 C 0.0485 0.66432 0.25804 0.0
C850 C 0.0646 0.64517 0.29755 0.0
C851 C 0.04913 0.65986 0.24397 0.0
C852 C 0.06006 0.6486 0.22539 0.0
C853 C 0.05871 0.65081 0.23924 0.0
C854 C 0.0419 0.66394 0.22108 0.0
C855 C 0.0518 0.65537 0.21624 0.0
C856 C 0.0406 0.66617 0.23481 0.0
C857 C 0.03604 0.69715 0.29626 0.0
C858 C 0.02627 0.71503 0.28307 0.0
C859 C 0.02795 0.71717 0.30721 0.0
C860 C 0.03397 0.70471 0.30786 0.0
C861 C 0.02447 0.72263 0.29482 0.0
C862 C 0.03193 0.70221 0.2838 0.0
C863 C 0.04312 0.68443 0.29776 0.0
O864 O 0.05189 0.64464 0.29408 0.0
O865 O 0.07103 0.65511 0.29184 0.0
O866 O 0.05541 0.684 0.29322 0.0
O867 O 0.0362 0.67349 0.29525 0.0
H868 H 0.05241 0.65645 0.31931 0.0
H869 H 0.05882 0.65456 0.34274 0.0
H870 H 0.08966 0.62645 0.33166 0.0
H871 H 0.08347 0.62905 0.30828 0.0
H872 H 0.06777 0.64194 0.22181 0.0
H873 H 0.0654 0.64585 0.24616 0.0
H874 H 0.03556 0.66939 0.2142 0.0
H875 H 0.03326 0.67332 0.23826 0.0
H876 H 0.02394 0.71925 0.27337 0.0
H877 H 0.02693 0.723 0.31633 0.0
H878 H 0.03766 0.7013 0.31742 0.0
H879 H 0.03361 0.69654 0.27469 0.0
C880 C 0.69338 0.38618 0.78169 0.0
C881 C 0.68562 0.37567 0.78684 0.0
C882 C 0.69498 0.37965 0.80913 0.0
C883 C 0.68645 0.37241 0.80041 0.0
C884 C 0.70236 0.39051 0.80405 0.0
C885 C 0.70162 0.39369 0.79041 0.0
U886 U 0.68177 0.37602 0.74707 0.0
O887 O 0.6767 0.38777 0.72894 0.0
O888 O 0.69242 0.37245 0.72845 0.0
C889 C 0.68586 0.38165 0.72181 0.0
C890 C 0.69352 0.38866 0.76715 0.0
C891 C 0.69367 0.38918 0.71187 0.0
C892 C 0.71555 0.39119 0.70164 0.0
C893 C 0.70765 0.39037 0.71312 0.0
C894 C 0.69556 0.3922 0.68785 0.0
C895 C 0.70952 0.39092 0.68888 0.0
C896 C 0.68767 0.39128 0.69931 0.0
C897 C 0.65846 0.3447 0.74656 0.0
C898 C 0.64843 0.33345 0.72718 0.0
C899 C 0.64526 0.32447 0.7494 0.0
C900 C 0.65307 0.33482 0.75481 0.0
C901 C 0.6427 0.32374 0.73557 0.0
C902 C 0.65625 0.34393 0.73266 0.0
C903 C 0.66638 0.3555 0.75294 0.0
O904 O 0.69939 0.37931 0.76005 0.0
O905 O 0.6821 0.39253 0.76185 0.0
O906 O 0.66185 0.36775 0.75169 0.0
O907 O 0.67941 0.35468 0.75167 0.0
H908 H 0.67916 0.36978 0.78027 0.0
H909 H 0.68052 0.36411 0.80408 0.0
H910 H 0.70905 0.39622 0.81053 0.0
H911 H 0.70772 0.4018 0.78662 0.0
H912 H 0.72631 0.39032 0.70266 0.0
H913 H 0.71252 0.38895 0.72272 0.0
H914 H 0.69066 0.39199 0.67813 0.0
H915 H 0.6769 0.39044 0.69811 0.0
H916 H 0.64659 0.33313 0.71648 0.0
H917 H 0.64115 0.31702 0.75607 0.0
H918 H 0.65482 0.33516 0.76553 0.0
H919 H 0.66043 0.35145 0.72612 0.0
C920 C 0.99979 0.39162 0.22159 0.0
C921 C 0.9984 0.4023 0.2126 0.0
C922 C 0.99923 0.38678 0.1936 0.0
C923 C 0.99811 0.3999 0.19872 0.0
C924 C 1.00146 0.3763 0.20268 0.0
C925 C 1.00165 0.3787 0.21648 0.0
U926 U 1.00435 0.41202 0.25415 0.0
O927 O 0.99065 0.41483 0.27103 0.0
O928 O 0.01021 0.40553 0.27445 0.0
C929 C 0.99877 0.4092 0.2797 0.0
C930 C 0.99858 0.39346 0.23624 0.0
C931 C 0.99262 0.40019 0.28962 0.0
C932 C 0.97553 0.38407 0.29621 0.0
C933 C 0.98257 0.39083 0.28615 0.0
C934 C 0.98911 0.39524 0.31316 0.0
C935 C 0.97857 0.38646 0.3098 0.0
C936 C 0.99602 0.40208 0.30316 0.0
C937 C 0.01991 0.44731 0.2518 0.0
C938 C 0.01833 0.4643 0.2692 0.0
C939 C 0.02834 0.46979 0.2479 0.0
C940 C 0.02627 0.45662 0.24352 0.0
C941 C 0.02394 0.47385 0.26059 0.0
C942 C 0.01638 0.45108 0.26486 0.0
C943 C 0.01573 0.43432 0.2461 0.0
O944 O 0.00983 0.39366 0.24316 0.0
O945 O 0.98995 0.40246 0.24028 0.0
O946 O 1.00274 0.43217 0.24577 0.0
O947 O 0.02257 0.42381 0.2499 0.0
H948 H 0.99709 0.41242 0.2163 0.0
H949 H 0.99638 0.40822 0.19207 0.0
H950 H 1.00274 0.36613 0.19914 0.0
H951 H 1.00289 0.37034 0.22321 0.0
H952 H 0.96742 0.37733 0.29341 0.0
H953 H 0.97981 0.38919 0.27576 0.0
H954 H 0.99152 0.39736 0.32356 0.0
H955 H 1.00366 0.40931 0.30606 0.0
H956 H 0.01486 0.46725 0.27903 0.0
H957 H 0.03252 0.47701 0.24104 0.0
H958 H 0.029 0.45388 0.23339 0.0
H959 H 0.01149 0.444 0.2714 0.0
C960 C 0.32205 0.54346 0.69527 0.0
C961 C 0.31528 0.55424 0.68954 0.0
C962 C 0.32521 0.5694 0.70628 0.0
C963 C 0.31683 0.56713 0.69503 0.0
C964 C 0.33168 0.55844 0.71212 0.0
C965 C 0.33009 0.54562 0.70667 0.0
U966 U 0.31744 0.50976 0.67304 0.0
O967 O 0.33417 0.4956 0.67426 0.0
O968 O 0.31483 0.49037 0.68326 0.0
C969 C 0.32732 0.48689 0.68125 0.0
C970 C 0.32164 0.52991 0.68948 0.0
C971 C 0.33069 0.47261 0.67972 0.0
C972 C 0.34485 0.45436 0.68708 0.0
C973 C 0.34061 0.46758 0.6882 0.0
C974 C 0.32878 0.45058 0.66923 0.0
C975 C 0.3391 0.44543 0.67757 0.0
C976 C 0.32473 0.46403 0.67021 0.0
C977 C 0.29891 0.51975 0.63908 0.0
C978 C 0.28825 0.52013 0.61705 0.0
C979 C 0.29248 0.54091 0.62896 0.0
C980 C 0.29801 0.53375 0.63975 0.0
C981 C 0.28775 0.53421 0.61729 0.0
C982 C 0.29382 0.51306 0.62773 0.0
C983 C 0.30557 0.51161 0.64947 0.0
O984 O 0.31046 0.52287 0.68946 0.0
O985 O 0.32993 0.52682 0.67982 0.0
O986 O 0.29906 0.5091 0.66058 0.0
O987 O 0.31852 0.51333 0.65132 0.0
H988 H 0.30903 0.55273 0.68074 0.0
H989 H 0.31161 0.57534 0.69036 0.0
H990 H 0.3384 0.5598 0.72059 0.0
H991 H 0.33544 0.5374 0.7112 0.0
H992 H 0.35297 0.4515 0.69361 0.0
H993 H 0.34535 0.47405 0.69564 0.0
H994 H 0.32369 0.44438 0.66188 0.0
H995 H 0.31701 0.46771 0.66355 0.0
H996 H 0.28442 0.51446 0.60856 0.0
H997 H 0.29239 0.55171 0.62962 0.0
H998 H 0.30183 0.53913 0.64844 0.0
H999 H 0.29436 0.50225 0.62701 0.0
C1000 C 0.35095 0.452 0.88751 0.0
C1001 C 0.34939 0.44014 0.87996 0.0
C1002 C 0.35713 0.42691 0.899 0.0
C1003 C 0.35241 0.42768 0.88569 0.0
C1004 C 0.35861 0.43885 0.90643 0.0
C1005 C 0.35554 0.45121 0.90076 0.0
U1006 U 0.3384 0.4759 0.85985 0.0
O1007 O 0.32644 0.49426 0.86181 0.0
O1008 O 0.3467 0.49535 0.85359 0.0
C1009 C 0.33609 0.50203 0.85738 0.0
C1010 C 0.34792 0.46535 0.882 0.0
C1011 C 0.3386 0.51469 0.8648 0.0
C1012 C 0.34459 0.52729 0.885 0.0
C1013 C 0.3422 0.515 0.87842 0.0
C1014 C 0.33969 0.53904 0.86447 0.0
C1015 C 0.34343 0.53951 0.87809 0.0
C1016 C 0.33735 0.5268 0.85793 0.0
C1017 C 0.32666 0.45704 0.82658 0.0
C1018 C 0.32037 0.4641 0.80407 0.0
C1019 C 0.32163 0.44052 0.80933 0.0
C1020 C 0.32517 0.4437 0.82247 0.0
C1021 C 0.31941 0.45062 0.79992 0.0
C1022 C 0.32411 0.46731 0.81736 0.0
C1023 C 0.33166 0.45936 0.84033 0.0
O1024 O 0.35553 0.46946 0.87216 0.0
O1025 O 0.33521 0.46813 0.88017 0.0
O1026 O 0.32317 0.46339 0.84946 0.0
O1027 O 0.34374 0.46449 0.84178 0.0
H1028 H 0.34586 0.44052 0.86969 0.0
H1029 H 0.3512 0.41868 0.87967 0.0
H1030 H 0.36196 0.43865 0.91677 0.0
H1031 H 0.35674 0.4602 0.90678 0.0
H1032 H 0.34759 0.52718 0.89543 0.0
H1033 H 0.34323 0.50577 0.88392 0.0
H1034 H 0.33842 0.54815 0.85883 0.0
H1035 H 0.33452 0.52679 0.84744 0.0
H1036 H 0.31864 0.47205 0.79697 0.0
H1037 H 0.32076 0.43007 0.80645 0.0
H1038 H 0.32706 0.43564 0.82942 0.0
H1039 H 0.32522 0.4777 0.82037 0.0
C1040 C 0.67765 0.96683 0.33455 0.0
C1041 C 0.68558 0.95532 0.33441 0.0
C1042 C 0.66592 0.9408 0.33086 0.0
C1043 C 0.67984 0.94255 0.33289 0.0
C1044 C 0.65819 0.95261 0.32977 0.0
C1045 C 0.66391 0.96539 0.33188 0.0
U1046 U 0.69157 1.00469 0.34188 0.0
O1047 O 0.69549 0.01557 0.32312 0.0
O1048 O 0.67719 0.01942 0.33449 0.0
C1049 C 0.68469 0.02289 0.32434 0.0
C1050 C 0.68385 0.97953 0.33959 0.0
C1051 C 0.68617 0.0374 0.32229 0.0
C1052 C 0.6808 0.05643 0.30836 0.0
C1053 C 0.68219 0.04265 0.30995 0.0
C1054 C 0.68842 0.06003 0.3312 0.0
C1055 C 0.68341 0.06526 0.31911 0.0
C1056 C 0.68976 0.04618 0.3328 0.0
C1057 C 0.71419 0.00765 0.37422 0.0
C1058 C 0.72958 0.01305 0.39258 0.0
C1059 C 0.71595 0.99294 0.39339 0.0
C1060 C 0.71042 0.99591 0.38082 0.0
C1061 C 0.72523 1.00173 0.39963 0.0
C1062 C 0.72408 0.01597 0.38001 0.0
C1063 C 0.7072 0.01223 0.36201 0.0
O1064 O 0.69485 0.98422 0.3343 0.0
O1065 O 0.67671 0.98864 0.34578 0.0
O1066 O 0.69406 0.01257 0.3624 0.0
O1067 O 0.71179 0.00802 0.35046 0.0
H1068 H 0.69622 0.95611 0.33647 0.0
H1069 H 0.68644 0.93413 0.33405 0.0
H1070 H 0.64759 0.95218 0.32763 0.0
H1071 H 0.65751 0.97408 0.33179 0.0
H1072 H 0.67681 0.06003 0.29896 0.0
H1073 H 0.67939 0.03604 0.30174 0.0
H1074 H 0.69078 0.0666 0.33959 0.0
H1075 H 0.69296 0.04232 0.3424 0.0
H1076 H 0.73665 0.02004 0.3971 0.0
H1077 H 0.71259 0.984 0.39846 0.0
H1078 H 0.70284 0.98934 0.37653 0.0
H1079 H 0.72713 0.0251 0.37506 0.0
C1080 C 0.66594 0.04467 0.06889 0.0
C1081 C 0.66761 0.05239 0.08064 0.0
C1082 C 0.66701 0.07302 0.0676 0.0
C1083 C 0.66814 0.06643 0.08 0.0
C1084 C 0.66554 0.06513 0.05591 0.0
C1085 C 0.66506 0.05117 0.05657 0.0
U1086 U 0.66856 0.01146 0.08742 0.0
O1087 O 0.65554 0.99354 0.08712 0.0
O1088 O 0.67666 0.99192 0.08125 0.0
C1089 C 0.66523 0.98565 0.08316 0.0
C1090 C 0.66479 0.02992 0.06923 0.0
C1091 C 0.66179 0.9743 0.0742 0.0
C1092 C 0.65391 0.96436 0.05316 0.0
C1093 C 0.65691 0.97577 0.06105 0.0
C1094 C 0.66071 0.95014 0.07147 0.0
C1095 C 0.65593 0.95143 0.05829 0.0
C1096 C 0.66355 0.96142 0.07931 0.0
C1097 C 0.68035 0.01398 0.12436 0.0
C1098 C 0.6859 0.99558 0.13918 0.0
C1099 C 0.68835 0.01855 0.14688 0.0
C1100 C 0.68371 0.02307 0.13457 0.0
C1101 C 0.68963 1.00481 0.14925 0.0
C1102 C 0.68136 1.00016 0.1267 0.0
C1103 C 0.67649 0.01941 0.11131 0.0
O1104 O 0.67609 0.0234 0.07058 0.0
O1105 O 0.65511 0.02507 0.07665 0.0
O1106 O 0.66381 0.01825 0.10785 0.0
O1107 O 0.68475 0.01698 0.10144 0.0
H1108 H 0.66839 0.04756 0.09028 0.0
H1109 H 0.66945 0.07209 0.0892 0.0
H1110 H 0.66438 0.06972 0.0462 0.0
H1111 H 0.66377 0.04542 0.0474 0.0
H1112 H 0.65026 0.96563 0.04301 0.0
H1113 H 0.65547 0.98565 0.05693 0.0
H1114 H 0.66218 0.94034 0.07577 0.0
H1115 H 0.66721 0.96006 0.08945 0.0
H1116 H 0.68676 0.98493 0.14088 0.0
H1117 H 0.69096 0.02581 0.1546 0.0
H1118 H 0.68293 0.03375 0.13295 0.0
H1119 H 0.67881 0.99301 0.11887 0.0
C1120 C 0.69874 0.32524 0.53898 0.0
C1121 C 0.69017 0.32413 0.55002 0.0
C1122 C 0.70917 0.32692 0.56554 0.0
C1123 C 0.69532 0.32502 0.56315 0.0
C1124 C 0.71769 0.32742 0.55437 0.0
C1125 C 0.71252 0.3267 0.54132 0.0
U1126 U 0.67285 0.31697 0.51085 0.0
O1127 O 0.66608 0.3295 0.49405 0.0
O1128 O 0.6762 0.31043 0.48988 0.0
C1129 C 0.67027 0.32102 0.4849 0.0
C1130 C 0.6937 0.3255 0.52495 0.0
C1131 C 0.67404 0.32605 0.47143 0.0
C1132 C 0.68256 0.34322 0.45626 0.0
C1133 C 0.68145 0.33788 0.46929 0.0
C1134 C 0.66957 0.32463 0.44742 0.0
C1135 C 0.67613 0.33694 0.44519 0.0
C1136 C 0.66851 0.31935 0.4603 0.0
C1137 C 0.64146 0.29665 0.52587 0.0
C1138 C 0.61736 0.29429 0.52227 0.0
C1139 C 0.62795 0.2833 0.54103 0.0
C1140 C 0.64039 0.28828 0.53702 0.0
C1141 C 0.61628 0.28656 0.53394 0.0
C1142 C 0.6299 0.29931 0.51823 0.0
C1143 C 0.65432 0.30388 0.52411 0.0
O1144 O 0.69344 0.31402 0.51846 0.0
O1145 O 0.68307 0.33282 0.5226 0.0
O1146 O 0.65411 0.31688 0.52228 0.0
O1147 O 0.66441 0.29787 0.51829 0.0
H1148 H 0.67948 0.32291 0.5485 0.0
H1149 H 0.68835 0.32472 0.57139 0.0
H1150 H 0.7284 0.32851 0.55563 0.0
H1151 H 0.71934 0.3275 0.53298 0.0
H1152 H 0.68782 0.35263 0.45501 0.0
H1153 H 0.68592 0.34323 0.47769 0.0
H1154 H 0.66485 0.31917 0.43924 0.0
H1155 H 0.66278 0.31022 0.46163 0.0
H1156 H 0.60845 0.29697 0.51669 0.0
H1157 H 0.62735 0.27756 0.55017 0.0
H1158 H 0.64911 0.28623 0.54317 0.0
H1159 H 0.63046 0.30577 0.50959 0.0
C1160 C 0.06844 0.66633 0.04435 0.0
C1161 C 0.08003 0.66744 0.05239 0.0
C1162 C 0.06648 0.66653 0.07267 0.0
C1163 C 0.07906 0.66753 0.06642 0.0
C1164 C 0.05494 0.66597 0.06447 0.0
C1165 C 0.05593 0.6658 0.05052 0.0
U1166 U 0.08759 0.66913 0.0114 0.0
O1167 O 0.08726 0.65651 0.99321 0.0
O1168 O 0.08166 0.67771 0.99197 0.0
C1169 C 0.08343 0.66638 0.98548 0.0
C1170 C 0.06909 0.66547 0.02958 0.0
C1171 C 0.07436 0.66314 0.97417 0.0
C1172 C 0.05301 0.65595 0.96438 0.0
C1173 C 0.06087 0.65939 0.97571 0.0
C1174 C 0.07207 0.66002 0.9501 0.0
C1175 C 0.05867 0.65608 0.95151 0.0
C1176 C 0.07979 0.66356 0.96129 0.0
C1177 C 0.12483 0.67975 0.01428 0.0
C1178 C 0.13958 0.68618 0.99611 0.0
C1179 C 0.14765 0.68664 0.01907 0.0
C1180 C 0.13527 0.68204 0.02343 0.0
C1181 C 0.14986 0.68897 1.00544 0.0
C1182 C 0.12703 0.68167 1.00054 0.0
C1183 C 0.11165 0.67619 0.01963 0.0
O1184 O 0.07084 0.67686 0.02332 0.0
O1185 O 0.07636 0.65571 0.02467 0.0
O1186 O 0.10783 0.66365 0.01825 0.0
O1187 O 0.10204 0.68478 0.01733 0.0
H1188 H 0.08982 0.66798 0.04781 0.0
H1189 H 0.08819 0.66795 0.07235 0.0
H1190 H 0.04506 0.66558 0.06882 0.0
H1191 H 0.04687 0.66511 0.04451 0.0
H1192 H 0.04269 0.65289 0.96569 0.0
H1193 H 0.05649 0.65898 0.98558 0.0
H1194 H 0.07662 0.66026 0.9403 0.0
H1195 H 0.09016 0.66646 0.95989 0.0
H1196 H 0.14113 0.68785 0.98553 0.0
H1197 H 0.15552 0.6885 0.02639 0.0
H1198 H 0.13376 0.68054 0.03405 0.0
H1199 H 0.11903 0.67993 0.99333 0.0
C1200 C 0.88792 0.35129 0.45174 0.0
C1201 C 0.8808 0.34887 0.43974 0.0
C1202 C 0.90004 0.3564 0.42678 0.0
C1203 C 0.8868 0.3515 0.42732 0.0
C1204 C 0.90693 0.35907 0.43883 0.0
C1205 C 0.90092 0.35659 0.45115 0.0
U1206 U 0.85994 0.33915 0.47542 0.0
O1207 O 0.86165 0.3268 0.49355 0.0
O1208 O 0.85399 0.34726 0.49503 0.0
C1209 C 0.85756 0.33645 0.50151 0.0
C1210 C 0.88235 0.34814 0.46502 0.0
C1211 C 0.86518 0.33866 0.5141 0.0
C1212 C 0.88541 0.34491 0.52653 0.0
C1213 C 0.87875 0.34243 0.51429 0.0
C1214 C 0.865 0.33991 0.53843 0.0
C1215 C 0.87859 0.3438 0.53882 0.0
C1216 C 0.85844 0.33731 0.52626 0.0
C1217 C 0.8259 0.32925 0.4573 0.0
C1218 C 0.80622 0.31616 0.46345 0.0
C1219 C 0.80633 0.32859 0.44273 0.0
C1220 C 0.81927 0.33312 0.44557 0.0
C1221 C 0.79973 0.31996 0.45152 0.0
C1222 C 0.81925 0.32087 0.46639 0.0
C1223 C 0.83996 0.33361 0.45896 0.0
O1224 O 0.87282 0.356 0.46936 0.0
O1225 O 0.88007 0.33543 0.46745 0.0
O1226 O 0.84881 0.32469 0.46272 0.0
O1227 O 0.84211 0.34556 0.46412 0.0
H1228 H 0.87072 0.3448 0.43998 0.0
H1229 H 0.88128 0.34933 0.41817 0.0
H1230 H 0.91706 0.363 0.43872 0.0
H1231 H 0.90654 0.35862 0.46027 0.0
H1232 H 0.89591 0.34764 0.52632 0.0
H1233 H 0.88415 0.34352 0.505 0.0
H1234 H 0.85922 0.33917 0.54752 0.0
H1235 H 0.84796 0.33445 0.52634 0.0
H1236 H 0.80129 0.30947 0.47036 0.0
H1237 H 0.80163 0.33146 0.43338 0.0
H1238 H 0.82426 0.33946 0.43837 0.0
H1239 H 0.8242 0.31777 0.47553 0.0
C1240 C 0.33377 0.67919 0.96728 0.0
C1241 C 0.33344 0.68677 0.95553 0.0
C1242 C 0.33029 0.66664 0.94154 0.0
C1243 C 0.332 0.68064 0.94291 0.0
C1244 C 0.3293 0.65924 0.95357 0.0
C1245 C 0.33127 0.66537 0.96621 0.0
U1246 U 0.34155 0.69231 1.0052 0.0
O1247 O 0.32286 0.69541 0.01651 0.0
O1248 O 0.3345 0.67711 0.01931 0.0
C1249 C 0.32419 0.6842 0.02318 0.0
C1250 C 0.33935 0.68562 0.97968 0.0
C1251 C 0.32172 0.68455 0.03779 0.0
C1252 C 0.30796 0.67663 0.05612 0.0
C1253 C 0.30986 0.67873 0.04245 0.0
C1254 C 0.32939 0.68713 0.06095 0.0
C1255 C 0.31786 0.68042 0.06549 0.0
C1256 C 0.33137 0.68909 0.04716 0.0
C1257 C 0.37412 0.71454 0.00907 0.0
C1258 C 0.39251 0.72954 0.01531 0.0
C1259 C 0.39315 0.71741 0.99425 0.0
C1260 C 0.38067 0.71152 0.99704 0.0
C1261 C 0.39927 0.72623 1.00352 0.0
C1262 C 0.38 0.72381 0.018 0.0
C1263 C 0.36185 0.70742 0.0133 0.0
O1264 O 0.33387 0.69639 0.98477 0.0
O1265 O 0.34575 0.67836 0.98855 0.0
O1266 O 0.36213 0.69428 0.01306 0.0
O1267 O 0.3503 0.7123 0.0094 0.0
H1268 H 0.33538 0.69744 0.95602 0.0
H1269 H 0.33304 0.68699 0.93429 0.0
H1270 H 0.3274 0.64859 0.9534 0.0
H1271 H 0.33135 0.65921 0.97508 0.0
H1272 H 0.29892 0.67159 0.05934 0.0
H1273 H 0.30227 0.6752 0.03543 0.0
H1274 H 0.33718 0.69016 0.06798 0.0
H1275 H 0.34063 0.69363 0.04379 0.0
H1276 H 0.39714 0.73615 0.02268 0.0
H1277 H 0.39832 0.71459 0.98518 0.0
H1278 H 0.37642 0.70424 0.99012 0.0
H1279 H 0.37517 0.7262 0.02738 0.0
C1280 C 0.54027 0.69911 0.32579 0.0
C1281 C 0.5502 0.69306 0.31796 0.0
C1282 C 0.56718 0.70878 0.32677 0.0
C1283 C 0.5635 0.69785 0.31842 0.0
C1284 C 0.55711 0.71473 0.33456 0.0
C1285 C 0.54388 0.70999 0.33403 0.0
U1286 U 0.51241 0.67329 0.31697 0.0
O1287 O 0.49606 0.66548 0.32952 0.0
O1288 O 0.49119 0.67624 0.31099 0.0
C1289 C 0.48661 0.66964 0.32136 0.0
C1290 C 0.52616 0.69424 0.32584 0.0
C1291 C 0.47312 0.67266 0.32685 0.0
C1292 C 0.45739 0.68508 0.34087 0.0
C1293 C 0.47029 0.68363 0.33525 0.0
C1294 C 0.45016 0.66473 0.32973 0.0
C1295 C 0.44709 0.6755 0.33835 0.0
C1296 C 0.46284 0.66343 0.32405 0.0
C1297 C 0.52726 0.64207 0.29677 0.0
C1298 C 0.52329 0.61797 0.2955 0.0
C1299 C 0.54134 0.6279 0.28288 0.0
C1300 C 0.53783 0.64055 0.28773 0.0
C1301 C 0.53439 0.61645 0.28703 0.0
C1302 C 0.5197 0.63072 0.3003 0.0
C1303 C 0.5261 0.65512 0.30377 0.0
O1304 O 0.51979 0.69397 0.31427 0.0
O1305 O 0.52377 0.68359 0.33309 0.0
O1306 O 0.52455 0.65505 0.31681 0.0
O1307 O 0.51992 0.66502 0.29781 0.0
H1308 H 0.54769 0.68461 0.31153 0.0
H1309 H 0.57086 0.69301 0.31218 0.0
H1310 H 0.55946 0.72289 0.34139 0.0
H1311 H 0.53644 0.71477 0.34024 0.0
H1312 H 0.45558 0.69367 0.34724 0.0
H1313 H 0.47803 0.69094 0.3376 0.0
H1314 H 0.44294 0.65685 0.32766 0.0
H1315 H 0.46474 0.65483 0.31769 0.0
H1316 H 0.51779 0.60925 0.29884 0.0
H1317 H 0.55005 0.62698 0.27656 0.0
H1318 H 0.54394 0.64911 0.28501 0.0
H1319 H 0.51151 0.63161 0.30729 0.0
C1320 C 0.04493 0.06915 0.66661 0.0
C1321 C 0.05266 0.08096 0.66759 0.0
C1322 C 0.07318 0.06795 0.66675 0.0
C1323 C 0.06671 0.08036 0.66761 0.0
C1324 C 0.06545 0.05619 0.66609 0.0
C1325 C 0.05145 0.05679 0.66601 0.0
U1326 U 0.0115 0.08733 0.67048 0.0
O1327 O 0.9933 0.08713 0.65785 0.0
O1328 O 0.99226 0.08044 0.67875 0.0
C1329 C 0.98569 0.08268 0.66754 0.0
C1330 C 0.03014 0.06946 0.66589 0.0
C1331 C 0.97435 0.07378 0.66394 0.0
C1332 C 0.9644 0.05262 0.65646 0.0
C1333 C 0.97578 0.06031 0.66007 0.0
C1334 C 0.95029 0.07179 0.66056 0.0
C1335 C 0.95157 0.0584 0.65651 0.0
C1336 C 0.96153 0.07935 0.66427 0.0
C1337 C 0.01312 0.1242 0.68255 0.0
C1338 C 0.99566 0.14106 0.68154 0.0
C1339 C 0.01598 0.14533 0.69435 0.0
C1340 C 0.02078 0.13276 0.69076 0.0
C1341 C 1.00347 0.14963 0.6897 0.0
C1342 C 1.00042 0.12832 0.67807 0.0
C1343 C 0.01899 0.11131 0.6786 0.0
O1344 O 0.02393 0.07057 0.67739 0.0
O1345 O 0.02496 0.07704 0.6565 0.0
O1346 O 0.01788 0.10788 0.66591 0.0
O1347 O 0.01697 0.10131 0.6868 0.0
H1348 H 0.04784 0.09061 0.66814 0.0
H1349 H 0.07252 0.08955 0.66812 0.0
H1350 H 0.07026 0.04654 0.66539 0.0
H1351 H 0.0457 0.04758 0.66529 0.0
H1352 H 0.96562 0.04231 0.65332 0.0
H1353 H 0.9856 0.05583 0.65974 0.0
H1354 H 0.94054 0.07645 0.66081 0.0
H1355 H 0.9602 0.08969 0.66729 0.0
H1356 H 0.98597 0.14423 0.67786 0.0
H1357 H 0.02222 0.15186 0.70051 0.0
H1358 H 0.0306 0.12979 0.69426 0.0
H1359 H 0.99433 0.1218 0.67176 0.0
C1360 C 0.45234 0.8875 0.35193 0.0
C1361 C 0.44026 0.88081 0.34877 0.0
C1362 C 0.42744 0.89985 0.35717 0.0
C1363 C 0.42789 0.88693 0.35143 0.0
C1364 C 0.4396 0.9062 0.36068 0.0
C1365 C 0.45185 0.90011 0.35807 0.0
U1366 U 0.47623 0.85992 0.33897 0.0
O1367 O 0.49453 0.86209 0.32695 0.0
O1368 O 0.49577 0.85372 0.34714 0.0
C1369 C 0.50238 0.85761 0.33652 0.0
C1370 C 0.46562 0.88192 0.34873 0.0
C1371 C 0.51511 0.86498 0.33899 0.0
C1372 C 0.52794 0.88523 0.34425 0.0
C1373 C 0.51557 0.87873 0.34195 0.0
C1374 C 0.53946 0.86435 0.34054 0.0
C1375 C 0.54008 0.87811 0.34364 0.0
C1376 C 0.52715 0.8579 0.33829 0.0
C1377 C 0.45736 0.82658 0.32742 0.0
C1378 C 0.46446 0.80472 0.31924 0.0
C1379 C 0.44106 0.80878 0.32387 0.0
C1380 C 0.44413 0.82189 0.32758 0.0
C1381 C 0.45115 0.80002 0.3198 0.0
C1382 C 0.46759 0.81797 0.32315 0.0
C1383 C 0.45971 0.84035 0.33232 0.0
O1384 O 0.46981 0.87205 0.35625 0.0
O1385 O 0.46828 0.88018 0.33597 0.0
O1386 O 0.46373 0.84945 0.32379 0.0
O1387 O 0.46488 0.84183 0.34437 0.0
H1388 H 0.4404 0.871 0.34408 0.0
H1389 H 0.41872 0.88174 0.3486 0.0
H1390 H 0.43968 0.916 0.36539 0.0
H1391 H 0.46103 0.9054 0.3607 0.0
H1392 H 0.52794 0.89579 0.34675 0.0
H1393 H 0.50641 0.88441 0.34256 0.0
H1394 H 0.54851 0.85853 0.3397 0.0
H1395 H 0.52704 0.8473 0.33594 0.0
H1396 H 0.47238 0.7981 0.31607 0.0
H1397 H 0.43073 0.80542 0.32423 0.0
H1398 H 0.43611 0.82838 0.33079 0.0
H1399 H 0.47789 0.82143 0.32298 0.0
C1400 C 0.96652 0.33301 0.67967 0.0
C1401 C 0.95533 0.33148 0.68793 0.0
C1402 C 0.9404 0.32914 0.66836 0.0
C1403 C 0.9425 0.32954 0.68239 0.0
C1404 C 0.95185 0.33011 0.66018 0.0
C1405 C 0.96469 0.33192 0.66576 0.0
U1406 U 1.00464 0.34059 0.69336 0.0
O1407 O 0.01625 0.32232 0.69736 0.0
O1408 O 0.01908 0.33333 0.67866 0.0
C1409 C 0.02302 0.32338 0.68619 0.0
C1410 C 0.97985 0.33632 0.68561 0.0
C1411 C 0.03757 0.32152 0.68701 0.0
C1412 C 0.05652 0.30789 0.6808 0.0
C1413 C 0.04278 0.30935 0.68254 0.0
C1414 C 0.06016 0.33055 0.6889 0.0
C1415 C 0.06537 0.31859 0.68356 0.0
C1416 C 0.04633 0.33203 0.69056 0.0
C1417 C 0.00891 0.37398 0.71482 0.0
C1418 C 0.01651 0.39281 0.72856 0.0
C1419 C 0.99404 0.39264 0.71927 0.0
C1420 C 0.99648 0.3802 0.71316 0.0
C1421 C 1.00417 0.3992 0.72676 0.0
C1422 C 0.0188 0.38028 0.72275 0.0
C1423 C 0.0124 0.36143 0.70784 0.0
O1424 O 0.98433 0.33198 0.69716 0.0
O1425 O 0.98853 0.34332 0.67867 0.0
O1426 O 0.01198 0.3614 0.69468 0.0
O1427 O 0.00832 0.35012 0.71308 0.0
H1428 H 0.95646 0.33218 0.6987 0.0
H1429 H 0.93426 0.32847 0.68924 0.0
H1430 H 0.95098 0.33004 0.64939 0.0
H1431 H 0.97316 0.33288 0.65913 0.0
H1432 H 0.06007 0.29861 0.67651 0.0
H1433 H 0.03614 0.30117 0.6797 0.0
H1434 H 0.06671 0.33891 0.69136 0.0
H1435 H 0.04246 0.34151 0.69407 0.0
H1436 H 0.0245 0.39766 0.73424 0.0
H1437 H 0.98451 0.39746 0.71757 0.0
H1438 H 0.9889 0.37568 0.70676 0.0
H1439 H 0.0285 0.37568 0.72409 0.0
C1440 C 0.69258 0.47574 0.31109 0.0
C1441 C 0.70066 0.46582 0.31683 0.0
C1442 C 0.6906 0.44876 0.30205 0.0
C1443 C 0.69971 0.45248 0.31233 0.0
C1444 C 0.68271 0.45884 0.29627 0.0
C1445 C 0.68373 0.47212 0.3007 0.0
U1446 U 0.70152 0.50266 0.33753 0.0
O1447 O 0.70748 0.52399 0.33545 0.0
O1448 O 0.68908 0.51862 0.3461 0.0
C1449 C 0.69708 0.52829 0.34219 0.0
C1450 C 0.69265 0.48976 0.31608 0.0
C1451 C 0.69096 0.5414 0.33876 0.0
C1452 C 0.6745 0.55533 0.32726 0.0
C1453 C 0.6813 0.54305 0.32857 0.0
C1454 C 0.68741 0.56458 0.34574 0.0
C1455 C 0.67734 0.56617 0.33601 0.0
C1456 C 0.69406 0.55237 0.34712 0.0
C1457 C 0.72115 0.48613 0.36824 0.0
C1458 C 0.72412 0.4909 0.39207 0.0
C1459 C 0.73304 0.47054 0.38255 0.0
C1460 C 0.72833 0.47427 0.36994 0.0
C1461 C 0.73075 0.47861 0.39389 0.0
C1462 C 0.71931 0.49463 0.37934 0.0
C1463 C 0.71438 0.48805 0.35519 0.0
O1464 O 0.6853 0.49203 0.32669 0.0
O1465 O 0.70431 0.49596 0.31663 0.0
O1466 O 0.72053 0.49471 0.34572 0.0
O1467 O 0.70135 0.48969 0.35519 0.0
H1468 H 0.70754 0.46835 0.32491 0.0
H1469 H 0.70604 0.44507 0.317 0.0
H1470 H 0.67533 0.45645 0.28862 0.0
H1471 H 0.67732 0.47956 0.2962 0.0
H1472 H 0.66684 0.55629 0.3196 0.0
H1473 H 0.67873 0.53477 0.32196 0.0
H1474 H 0.68973 0.57262 0.35273 0.0
H1475 H 0.70134 0.55134 0.35514 0.0
H1476 H 0.72233 0.49746 0.40054 0.0
H1477 H 0.73784 0.46092 0.38349 0.0
H1478 H 0.72971 0.46749 0.36156 0.0
H1479 H 0.71378 0.50383 0.37827 0.0
C1480 C 0.6541 0.56031 0.12695 0.0
C1481 C 0.65626 0.57241 0.13397 0.0
C1482 C 0.65012 0.5852 0.11401 0.0
C1483 C 0.65425 0.58476 0.12756 0.0
C1484 C 0.64746 0.57299 0.10734 0.0
C1485 C 0.64949 0.56076 0.1137 0.0
U1486 U 0.66601 0.53621 0.15501 0.0
O1487 O 0.65843 0.51613 0.16011 0.0
O1488 O 0.67898 0.51857 0.15292 0.0
C1489 C 0.66956 0.51015 0.15659 0.0
C1490 C 0.65712 0.54706 0.13272 0.0
C1491 C 0.66807 0.49764 0.14866 0.0
C1492 C 0.66336 0.48535 0.12793 0.0
C1493 C 0.66491 0.49755 0.13494 0.0
C1494 C 0.66805 0.47328 0.1483 0.0
C1495 C 0.6648 0.47297 0.13453 0.0
C1496 C 0.66974 0.48542 0.1552 0.0
C1497 C 0.67627 0.55455 0.18912 0.0
C1498 C 0.68746 0.54789 0.20981 0.0
C1499 C 0.68149 0.57105 0.20635 0.0
C1500 C 0.67589 0.56771 0.19396 0.0
C1501 C 0.68757 0.56129 0.21429 0.0
C1502 C 0.6819 0.54453 0.19718 0.0
C1503 C 0.6714 0.55231 0.1753 0.0
O1504 O 0.66981 0.54456 0.13507 0.0
O1505 O 0.64919 0.54268 0.1422 0.0
O1506 O 0.65965 0.54656 0.17348 0.0
O1507 O 0.68023 0.54911 0.16616 0.0
H1508 H 0.65978 0.5723 0.14425 0.0
H1509 H 0.65638 0.59391 0.13306 0.0
H1510 H 0.6439 0.57282 0.09708 0.0
H1511 H 0.64767 0.55158 0.10812 0.0
H1512 H 0.66109 0.48568 0.11733 0.0
H1513 H 0.66362 0.50688 0.12966 0.0
H1514 H 0.66899 0.46415 0.15396 0.0
H1515 H 0.67217 0.48524 0.16579 0.0
H1516 H 0.6921 0.54019 0.2158 0.0
H1517 H 0.68135 0.58141 0.20962 0.0
H1518 H 0.67158 0.57558 0.18793 0.0
H1519 H 0.68227 0.53428 0.19361 0.0
C1520 C 0.34416 0.03978 0.6876 0.0
C1521 C 0.335 0.05027 0.68586 0.0
C1522 C 0.35293 0.06709 0.68796 0.0
C1523 C 0.33927 0.06375 0.68625 0.0
C1524 C 0.36194 0.05653 0.69028 0.0
C1525 C 0.35762 0.04314 0.6901 0.0
U1526 U 0.32661 0.00909 0.67084 0.0
O1527 O 0.33332 0.98837 0.6682 0.0
O1528 O 0.31507 0.99238 0.67969 0.0
C1529 C 0.32333 0.98331 0.67505 0.0
C1530 C 0.34012 0.02535 0.68703 0.0
C1531 C 0.32597 0.97126 0.68315 0.0
C1532 C 0.34146 0.956 0.69408 0.0
C1533 C 0.33847 0.96879 0.68917 0.0
C1534 C 0.31927 0.94829 0.68775 0.0
C1535 C 0.33208 0.94544 0.69288 0.0
C1536 C 0.31627 0.96103 0.68296 0.0
C1537 C 0.30781 0.01666 0.63714 0.0
C1538 C 0.29447 1.00217 0.6224 0.0
C1539 C 0.29783 0.02551 0.61693 0.0
C1540 C 0.30563 0.02726 0.6284 0.0
C1541 C 0.29208 0.01299 0.61374 0.0
C1542 C 0.30223 1.00402 0.63412 0.0
C1543 C 0.31584 0.01954 0.64926 0.0
O1544 O 0.32737 0.02242 0.68851 0.0
O1545 O 0.34579 0.01803 0.6777 0.0
O1546 O 0.3281 0.01491 0.64965 0.0
O1547 O 0.30965 0.01873 0.66076 0.0
H1548 H 0.32458 0.04808 0.68386 0.0
H1549 H 0.33196 0.07147 0.68438 0.0
H1550 H 0.37245 0.05856 0.69213 0.0
H1551 H 0.3649 0.03534 0.69174 0.0
H1552 H 0.35142 0.95416 0.69798 0.0
H1553 H 0.34613 0.97651 0.68943 0.0
H1554 H 0.31173 0.94048 0.68688 0.0
H1555 H 0.30657 0.96267 0.67834 0.0
H1556 H 0.29029 0.99236 0.62018 0.0
H1557 H 0.29663 0.03397 0.61034 0.0
H1558 H 0.31011 0.03699 0.63038 0.0
H1559 H 0.3039 0.99566 0.64075 0.0
C1560 C 0.33829 0.96772 0.94528 0.0
C1561 C 0.3354 0.95963 0.93402 0.0
C1562 C 0.33997 0.93947 0.94696 0.0
C1563 C 0.33617 0.94561 0.93487 0.0
C1564 C 0.34237 0.94765 0.95827 0.0
C1565 C 0.34154 0.96158 0.95743 0.0
U1566 U 0.33381 1.00106 0.92667 0.0
O1567 O 0.3273 0.02085 0.93398 0.0
O1568 O 0.34741 0.01846 0.92551 0.0
C1569 C 0.33867 0.02667 0.93078 0.0
C1570 C 0.33886 0.9825 0.94452 0.0
C1571 C 0.34388 0.03761 0.93942 0.0
C1572 C 0.35019 0.04771 0.96091 0.0
C1573 C 0.34544 0.03663 0.95339 0.0
C1574 C 0.35192 0.0606 0.94056 0.0
C1575 C 0.35356 0.05978 0.9545 0.0
C1576 C 0.34713 0.04968 0.93315 0.0
C1577 C 0.32103 0.99909 0.88992 0.0
C1578 C 0.32141 0.01687 0.87337 0.0
C1579 C 0.31435 0.99445 0.86696 0.0
C1580 C 0.31622 0.99021 0.88008 0.0
C1581 C 0.31716 0.00772 0.86342 0.0
C1582 C 0.32344 0.01255 0.88659 0.0
C1583 C 0.32446 0.99358 0.90311 0.0
O1584 O 0.34794 0.98743 0.93645 0.0
O1585 O 0.32735 0.98877 0.94375 0.0
O1586 O 0.31668 0.99677 0.91317 0.0
O1587 O 0.33724 0.99372 0.90624 0.0
H1588 H 0.33288 0.96416 0.92452 0.0
H1589 H 0.33427 0.93962 0.92597 0.0
H1590 H 0.34507 0.94327 0.96779 0.0
H1591 H 0.34374 0.96761 0.96625 0.0
H1592 H 0.35139 0.04681 0.97165 0.0
H1593 H 0.34297 0.02739 0.95843 0.0
H1594 H 0.35421 0.0698 0.93537 0.0
H1595 H 0.34589 0.0507 0.92242 0.0
H1596 H 0.32361 0.02717 0.87081 0.0
H1597 H 0.31095 0.98728 0.85946 0.0
H1598 H 0.31431 0.97981 0.88247 0.0
H1599 H 0.3272 0.01955 0.89408 0.0
C1600 C 0.31002 0.6915 0.47237 0.0
C1601 C 0.31694 0.69831 0.46226 0.0
C1602 C 0.30116 0.68965 0.4452 0.0
C1603 C 0.31251 0.69749 0.44884 0.0
C1604 C 0.2942 0.68319 0.4556 0.0
C1605 C 0.29853 0.68416 0.46891 0.0
U1606 U 0.33573 0.69936 0.5006 0.0
O1607 O 0.3327 0.70445 0.52205 0.0
O1608 O 0.34341 0.68605 0.51638 0.0
C1609 C 0.3393 0.69387 0.52612 0.0
C1610 C 0.3148 0.69115 0.48647 0.0
C1611 C 0.33704 0.68817 0.53964 0.0
C1612 C 0.32534 0.67416 0.5559 0.0
C1613 C 0.32603 0.68004 0.54306 0.0
C1614 C 0.34651 0.68451 0.56185 0.0
C1615 C 0.3357 0.6762 0.56551 0.0
C1616 C 0.34708 0.69043 0.54925 0.0
C1617 C 0.36697 0.71971 0.4856 0.0
C1618 C 0.39044 0.72395 0.49119 0.0
C1619 C 0.38138 0.73145 0.47003 0.0
C1620 C 0.36884 0.72637 0.47348 0.0
C1621 C 0.39246 0.7301 0.47867 0.0
C1622 C 0.37778 0.71873 0.49462 0.0
C1623 C 0.35402 0.71274 0.48736 0.0
O1624 O 0.32535 0.68372 0.48875 0.0
O1625 O 0.31515 0.70256 0.4931 0.0
O1626 O 0.34431 0.71866 0.49387 0.0
O1627 O 0.35405 0.69967 0.48855 0.0
H1628 H 0.32587 0.70408 0.4647 0.0
H1629 H 0.31814 0.70287 0.44139 0.0
H1630 H 0.28568 0.67675 0.45356 0.0
H1631 H 0.29306 0.67876 0.4765 0.0
H1632 H 0.31673 0.668 0.55823 0.0
H1633 H 0.31812 0.67809 0.53581 0.0
H1634 H 0.35495 0.68616 0.56853 0.0
H1635 H 0.35573 0.69655 0.54685 0.0
H1636 H 0.39869 0.72287 0.49818 0.0
H1637 H 0.38248 0.73582 0.46021 0.0
H1638 H 0.36068 0.7271 0.46631 0.0
H1639 H 0.37655 0.71361 0.50405 0.0
C1640 C 0.94485 0.33914 0.96719 0.0
C1641 C 0.9333 0.33682 0.95933 0.0
C1642 C 0.94626 0.3397 0.9389 0.0
C1643 C 0.93399 0.33716 0.94529 0.0
C1644 C 0.9578 0.34169 0.94686 0.0
C1645 C 0.95708 0.34144 0.96083 0.0
U1646 U 0.92687 0.33476 1.00078 0.0
O1647 O 0.93447 0.32885 0.02063 0.0
O1648 O 0.92552 0.34871 0.01792 0.0
C1649 C 0.93104 0.34024 0.02626 0.0
C1650 C 0.94433 0.34004 0.98196 0.0
C1651 C 0.93957 0.34571 0.03715 0.0
C1652 C 0.96102 0.35201 0.04733 0.0
C1653 C 0.95346 0.34779 0.03605 0.0
C1654 C 0.94083 0.35225 0.06058 0.0
C1655 C 0.95476 0.35396 0.05977 0.0
C1656 C 0.93336 0.34822 0.04941 0.0
C1657 C 0.8906 0.3207 0.99941 0.0
C1658 C 0.87398 0.32162 0.0171 0.0
C1659 C 0.86788 0.31313 0.99507 0.0
C1660 C 0.88096 0.31509 0.99078 0.0
C1661 C 0.86419 0.31667 0.00813 0.0
C1662 C 0.88717 0.32373 0.01272 0.0
C1663 C 0.9036 0.32444 0.99369 0.0
O1664 O 0.93602 0.34894 0.9868 0.0
O1665 O 0.94408 0.32866 0.98849 0.0
O1666 O 0.91397 0.3171 0.99695 0.0
O1667 O 0.90628 0.33731 0.99353 0.0
H1668 H 0.92374 0.33499 0.96405 0.0
H1669 H 0.92495 0.33546 0.93942 0.0
H1670 H 0.96736 0.34383 0.94229 0.0
H1671 H 0.96607 0.34333 0.96669 0.0
H1672 H 0.97176 0.35326 0.04646 0.0
H1673 H 0.95845 0.34591 0.02665 0.0
H1674 H 0.93572 0.35384 0.06997 0.0
H1675 H 0.92266 0.34672 0.05046 0.0
H1676 H 0.87131 0.32439 0.02724 0.0
H1677 H 0.86049 0.30919 0.98805 0.0
H1678 H 0.88343 0.31269 0.98049 0.0
H1679 H 0.89451 0.32811 0.01952 0.0
C1680 C 0.12669 0.65493 0.56042 0.0
C1681 C 0.13413 0.65646 0.57238 0.0
C1682 C 0.11445 0.65027 0.58561 0.0
C1683 C 0.12806 0.65414 0.58487 0.0
C1684 C 0.10718 0.64887 0.57352 0.0
C1685 C 0.11323 0.65108 0.56117 0.0
U1686 U 0.15416 0.66671 0.53557 0.0
O1687 O 0.15905 0.65885 0.51549 0.0
O1688 O 0.15169 0.67935 0.51771 0.0
C1689 C 0.15554 0.66992 0.50939 0.0
C1690 C 0.13224 0.65768 0.54699 0.0
C1691 C 0.1481 0.66853 0.49652 0.0
C1692 C 0.12852 0.6622 0.483 0.0
C1693 C 0.13491 0.66359 0.49559 0.0
C1694 C 0.14831 0.67092 0.47224 0.0
C1695 C 0.13521 0.6657 0.47109 0.0
C1696 C 0.15464 0.67226 0.48474 0.0
C1697 C 0.1879 0.67809 0.55451 0.0
C1698 C 0.21063 0.68492 0.54876 0.0
C1699 C 0.20373 0.68462 0.57194 0.0
C1700 C 0.191 0.68034 0.56802 0.0
C1701 C 0.21374 0.68681 0.56244 0.0
C1702 C 0.19775 0.68046 0.54479 0.0
C1703 C 0.17432 0.67297 0.55151 0.0
O1704 O 0.13425 0.67032 0.54407 0.0
O1705 O 0.14181 0.64983 0.54269 0.0
O1706 O 0.17292 0.66112 0.54584 0.0
O1707 O 0.16499 0.68153 0.54814 0.0
H1708 H 0.14456 0.6595 0.57205 0.0
H1709 H 0.13405 0.65527 0.5939 0.0
H1710 H 0.09664 0.64631 0.57352 0.0
H1711 H 0.10726 0.64996 0.55212 0.0
H1712 H 0.11848 0.65807 0.4826 0.0
H1713 H 0.12962 0.66069 0.50455 0.0
H1714 H 0.15374 0.67404 0.46346 0.0
H1715 H 0.16477 0.67619 0.4852 0.0
H1716 H 0.21821 0.68658 0.54124 0.0
H1717 H 0.20577 0.68618 0.58251 0.0
H1718 H 0.18355 0.67863 0.57566 0.0
H1719 H 0.19553 0.67877 0.53428 0.0
C1720 C 0.68432 0.34509 0.04007 0.0
C1721 C 0.67352 0.35192 0.04589 0.0
C1722 C 0.68495 0.35273 0.06763 0.0
C1723 C 0.67395 0.35585 0.05943 0.0
C1724 C 0.69578 0.34598 0.06188 0.0
C1725 C 0.69555 0.34242 0.04823 0.0
U1726 U 0.66999 0.32653 0.00874 0.0
O1727 O 0.6672 0.33286 0.98787 0.0
O1728 O 0.68038 0.3159 0.99237 0.0
C1729 C 0.67487 0.32336 0.98308 0.0
C1730 C 0.68441 0.34144 0.02548 0.0
C1731 C 0.6824 0.32619 0.97077 0.0
C1732 C 0.69736 0.3399 0.9574 0.0
C1733 C 0.69199 0.33646 0.9699 0.0
C1734 C 0.68393 0.32255 0.94673 0.0
C1735 C 0.69308 0.33324 0.94556 0.0
C1736 C 0.67873 0.31906 0.95917 0.0
C1737 C 0.63819 0.30432 0.01406 0.0
C1738 C 0.61659 0.30063 1.00309 0.0
C1739 C 0.62395 0.2857 0.02058 0.0
C1740 C 0.63605 0.29273 0.02158 0.0
C1741 C 0.61383 0.28998 0.0118 0.0
C1742 C 0.62865 0.30783 1.00428 0.0
C1743 C 0.64924 0.31345 0.01817 0.0
O1744 O 0.68729 0.32899 0.02245 0.0
O1745 O 0.67472 0.34618 0.01792 0.0
O1746 O 0.64868 0.32591 0.0141 0.0
O1747 O 0.66137 0.30856 0.01801 0.0
H1748 H 0.66479 0.35442 0.03995 0.0
H1749 H 0.66566 0.36139 0.06353 0.0
H1750 H 0.70454 0.34372 0.06789 0.0
H1751 H 0.70433 0.33783 0.04399 0.0
H1752 H 0.7046 0.34799 0.957 0.0
H1753 H 0.695 0.34206 0.97877 0.0
H1754 H 0.68016 0.31726 0.93797 0.0
H1755 H 0.6713 0.31112 0.95962 0.0
H1756 H 0.60902 0.30405 0.99611 0.0
H1757 H 0.62223 0.27733 0.02719 0.0
H1758 H 0.64344 0.28954 0.02882 0.0
H1759 H 0.63014 0.31658 0.99813 0.0
C1760 C 0.4764 0.31042 0.69213 0.0
C1761 C 0.46653 0.31619 0.70025 0.0
C1762 C 0.4494 0.3015 0.69023 0.0
C1763 C 0.45318 0.31173 0.69935 0.0
C1764 C 0.45943 0.29565 0.68233 0.0
C1765 C 0.47274 0.30004 0.6833 0.0
U1766 U 0.50308 0.33703 0.70096 0.0
O1767 O 0.52441 0.33515 0.70694 0.0
O1768 O 0.51897 0.34559 0.6884 0.0
C1769 C 0.52866 0.34178 0.69645 0.0
C1770 C 0.49038 0.31548 0.69211 0.0
C1771 C 0.54187 0.33848 0.6905 0.0
C1772 C 0.55644 0.32697 0.67459 0.0
C1773 C 0.54383 0.32842 0.68079 0.0
C1774 C 0.56516 0.34542 0.68786 0.0
C1775 C 0.56731 0.33561 0.67792 0.0
C1776 C 0.55273 0.34675 0.69405 0.0
C1777 C 0.48629 0.36746 0.72089 0.0
C1778 C 0.49145 0.39107 0.72487 0.0
C1779 C 0.4705 0.38175 0.73258 0.0
C1780 C 0.47414 0.36921 0.72758 0.0
C1781 C 0.47892 0.39295 0.73104 0.0
C1782 C 0.49511 0.37841 0.71982 0.0
C1783 C 0.48834 0.35449 0.71398 0.0
O1784 O 0.4925 0.32611 0.68477 0.0
O1785 O 0.49663 0.31606 0.70374 0.0
O1786 O 0.49512 0.34505 0.72003 0.0
O1787 O 0.48997 0.35461 0.70095 0.0
H1788 H 0.46911 0.32427 0.70711 0.0
H1789 H 0.44581 0.31643 0.70569 0.0
H1790 H 0.45697 0.28801 0.67495 0.0
H1791 H 0.48015 0.29553 0.67687 0.0
H1792 H 0.55763 0.31916 0.66713 0.0
H1793 H 0.53561 0.32189 0.67782 0.0
H1794 H 0.57294 0.35254 0.69058 0.0
H1795 H 0.55147 0.35467 0.70139 0.0
H1796 H 0.49826 0.39944 0.72364 0.0
H1797 H 0.46071 0.38277 0.73703 0.0
H1798 H 0.46712 0.36095 0.7284 0.0
H1799 H 0.50456 0.3773 0.7147 0.0
C1800 C 0.96843 0.94597 0.33826 0.0
C1801 C 0.96046 0.93471 0.33508 0.0
C1802 C 0.94015 0.94732 0.33998 0.0
C1803 C 0.94643 0.93539 0.33591 0.0
C1804 C 0.94825 0.95867 0.34256 0.0
C1805 C 0.96219 0.95797 0.34176 0.0
U1806 U 1.00141 0.927 0.33424 0.0
O1807 O 0.02136 0.9337 0.32758 0.0
O1808 O 0.01879 0.92567 0.34785 0.0
C1809 C 0.02712 0.93065 0.33904 0.0
C1810 C 0.98321 0.94527 0.33889 0.0
C1811 C 0.03805 0.93935 0.34418 0.0
C1812 C 0.04834 0.96096 0.34955 0.0
C1813 C 0.03726 0.95338 0.34492 0.0
C1814 C 0.06082 0.94057 0.3529 0.0
C1815 C 0.0602 0.95457 0.35364 0.0
C1816 C 0.0499 0.93308 0.34819 0.0
C1817 C 0.99824 0.8901 0.32208 0.0
C1818 C 0.01611 0.87418 0.31797 0.0
C1819 C 0.99291 0.8669 0.31708 0.0
C1820 C 0.98882 0.87983 0.32019 0.0
C1821 C 0.00654 0.86395 0.3159 0.0
C1822 C 0.01196 0.88726 0.32098 0.0
C1823 C 0.99322 0.90348 0.32543 0.0
O1824 O 0.98807 0.93741 0.34818 0.0
O1825 O 0.98947 0.94417 0.32741 0.0
O1826 O 0.99664 0.91331 0.31745 0.0
O1827 O 0.99361 0.90681 0.33816 0.0
H1828 H 0.96509 0.92533 0.33233 0.0
H1829 H 0.94057 0.92644 0.33385 0.0
H1830 H 0.94382 0.96812 0.34537 0.0
H1831 H 0.96814 0.96678 0.34418 0.0
H1832 H 0.04762 0.97176 0.35008 0.0
H1833 H 0.02819 0.95842 0.34188 0.0
H1834 H 0.06986 0.9354 0.35582 0.0
H1835 H 0.05077 0.92229 0.34759 0.0
H1836 H 0.02669 0.87207 0.31713 0.0
H1837 H 0.98539 0.85913 0.31573 0.0
H1838 H 0.97822 0.88181 0.32114 0.0
H1839 H 0.01939 0.8951 0.32247 0.0
C1840 C 0.56062 0.12627 0.65555 0.0
C1841 C 0.57257 0.13374 0.65681 0.0
C1842 C 0.58572 0.114 0.65072 0.0
C1843 C 0.58502 0.12765 0.6544 0.0
C1844 C 0.57362 0.10671 0.64957 0.0
C1845 C 0.56131 0.11278 0.65187 0.0
U1846 U 0.53638 0.15421 0.66712 0.0
O1847 O 0.51639 0.15939 0.65929 0.0
O1848 O 0.51859 0.15236 0.67992 0.0
C1849 C 0.51028 0.15609 0.67041 0.0
C1850 C 0.54726 0.13192 0.65838 0.0
C1851 C 0.49758 0.14843 0.66901 0.0
C1852 C 0.48459 0.12873 0.66218 0.0
C1853 C 0.49699 0.13536 0.66377 0.0
C1854 C 0.47331 0.14804 0.67132 0.0
C1855 C 0.47252 0.13506 0.66577 0.0
C1856 C 0.48565 0.15462 0.67287 0.0
C1857 C 0.55486 0.18811 0.6775 0.0
C1858 C 0.54778 0.20922 0.68746 0.0
C1859 C 0.57107 0.20585 0.68184 0.0
C1860 C 0.568 0.19303 0.67715 0.0
C1861 C 0.56105 0.21403 0.68708 0.0
C1862 C 0.54466 0.19627 0.68261 0.0
C1863 C 0.55268 0.17428 0.67271 0.0
O1864 O 0.54457 0.13422 0.67103 0.0
O1865 O 0.54295 0.14137 0.65039 0.0
O1866 O 0.54707 0.17248 0.66088 0.0
O1867 O 0.54921 0.16523 0.68153 0.0
H1868 H 0.57228 0.1442 0.6597 0.0
H1869 H 0.59406 0.13365 0.65533 0.0
H1870 H 0.5736 0.09614 0.64715 0.0
H1871 H 0.55224 0.10681 0.65094 0.0
H1872 H 0.48444 0.1188 0.65778 0.0
H1873 H 0.50608 0.13036 0.66075 0.0
H1874 H 0.46437 0.15317 0.6745 0.0
H1875 H 0.48586 0.16467 0.67702 0.0
H1876 H 0.53991 0.21542 0.69151 0.0
H1877 H 0.58136 0.20932 0.68159 0.0
H1878 H 0.57601 0.18687 0.67332 0.0
H1879 H 0.53443 0.19262 0.68296 0.0
C1880 C 0.04022 0.68589 0.34633 0.0
C1881 C 0.05001 0.6821 0.33702 0.0
C1882 C 0.068 0.68583 0.35362 0.0
C1883 C 0.0637 0.68216 0.34057 0.0
C1884 C 0.05812 0.69004 0.36272 0.0
C1885 C 0.04449 0.69011 0.35911 0.0
U1886 U 0.00945 0.66966 0.32899 0.0
O1887 O 0.98852 0.66695 0.33514 0.0
O1888 O 0.99304 0.67872 0.3172 0.0
C1889 C 0.98373 0.67397 0.32512 0.0
C1890 C 0.02559 0.6855 0.34303 0.0
C1891 C 0.97171 0.68218 0.32756 0.0
C1892 C 0.95628 0.69324 0.34273 0.0
C1893 C 0.96901 0.68803 0.34006 0.0
C1894 C 0.9492 0.68784 0.32011 0.0
C1895 C 0.94599 0.69273 0.33295 0.0
C1896 C 0.96184 0.68254 0.31751 0.0
C1897 C 0.01774 0.63694 0.30892 0.0
C1898 C 1.00337 0.62241 0.29529 0.0
C1899 C 0.02686 0.61722 0.29816 0.0
C1900 C 0.02849 0.62845 0.30636 0.0
C1901 C 0.01429 0.61397 0.29263 0.0
C1902 C 1.00512 0.63395 0.30329 0.0
C1903 C 0.02036 0.64869 0.31754 0.0
O1904 O 0.02222 0.6876 0.3305 0.0
O1905 O 0.01856 0.67578 0.34841 0.0
O1906 O 0.0154 0.64848 0.32968 0.0
O1907 O 0.01957 0.66044 0.31186 0.0
H1908 H 0.04708 0.67895 0.32702 0.0
H1909 H 0.07087 0.67912 0.3331 0.0
H1910 H 0.06081 0.6929 0.37286 0.0
H1911 H 0.03721 0.69324 0.36645 0.0
H1912 H 0.95434 0.69689 0.35275 0.0
H1913 H 0.97649 0.68793 0.34797 0.0
H1914 H 0.94182 0.68764 0.31211 0.0
H1915 H 0.96368 0.67811 0.30777 0.0
H1916 H 0.99353 0.62004 0.29123 0.0
H1917 H 0.03537 0.61076 0.29659 0.0
H1918 H 0.0382 0.63042 0.31089 0.0
H1919 H 0.99667 0.64039 0.30521 0.0
C1920 C 0.18461 0.67522 0.39905 0.0
C1921 C 0.18772 0.66252 0.40427 0.0
C1922 C 0.17187 0.67804 0.39377 0.0
C1923 C 0.13999 0.6613 0.38139 0.0
H1924 H 0.12722 0.69777 0.38095 0.0
C1925 C 0.09065 0.6743 0.35304 0.0
C1926 C 0.08247 0.68457 0.35804 0.0
C1927 C 0.10361 0.6722 0.35821 0.0
C1928 C 0.13043 0.68746 0.38105 0.0
H1929 H 0.17918 0.64296 0.40823 0.0
H1930 H 0.15686 0.64801 0.39959 0.0
H1931 H 0.14831 0.69275 0.39185 0.0
H1932 H 0.08241 0.70148 0.37179 0.0
H1933 H 0.10451 0.69758 0.3811 0.0
H1934 H 0.12205 0.65602 0.37087 0.0
C1935 C 0.16447 0.65575 0.39919 0.0
C1936 C 0.14281 0.68457 0.3872 0.0
C1937 C 0.17733 0.65288 0.40439 0.0
C1938 C 0.08808 0.69314 0.36792 0.0
C1939 C 0.101 0.69099 0.37317 0.0
C1940 C 0.1276 0.6642 0.37531 0.0
C1941 C 0.16151 0.66837 0.39362 0.0
C1942 C 0.14791 0.67142 0.38746 0.0
C1943 C 0.10895 0.68026 0.36866 0.0
C1944 C 0.12249 0.67732 0.375 0.0
H1945 H 0.1921 0.6831 0.39897 0.0
H1946 H 0.17032 0.68783 0.38951 0.0
H1947 H 0.14342 0.65107 0.38106 0.0
H1948 H 0.08695 0.66755 0.34533 0.0
H1949 H 0.10938 0.66413 0.35397 0.0
C1950 C 0.35098 0.30937 0.62877 0.0
C1951 C 0.3412 0.29938 0.62665 0.0
C1952 C 0.3627 0.30648 0.63578 0.0
C1953 C 0.38504 0.28158 0.64982 0.0
H1954 H 0.38468 0.30525 0.68072 0.0
C1955 C 0.4313 0.28462 0.684 0.0
C1956 C 0.43501 0.2977 0.68796 0.0
C1957 C 0.41835 0.28177 0.67923 0.0
C1958 C 0.38518 0.29866 0.67211 0.0
H1959 H 0.33709 0.27806 0.62834 0.0
H1960 H 0.35787 0.27301 0.64012 0.0
H1961 H 0.36714 0.30675 0.66397 0.0
H1962 H 0.42738 0.31772 0.69118 0.0
H1963 H 0.40526 0.31296 0.68297 0.0
H1964 H 0.40349 0.27402 0.65732 0.0
C1965 C 0.3562 0.28313 0.63671 0.0
C1966 C 0.37502 0.2995 0.66253 0.0
C1967 C 0.34433 0.28606 0.62988 0.0
C1968 C 0.42502 0.3075 0.68829 0.0
C1969 C 0.41212 0.30468 0.68353 0.0
C1970 C 0.39545 0.28092 0.65929 0.0
C1971 C 0.36499 0.29349 0.6405 0.0
C1972 C 0.37518 0.29138 0.65104 0.0
C1973 C 0.40874 0.29195 0.67823 0.0
C1974 C 0.39608 0.29002 0.6702 0.0
H1975 H 0.34911 0.31964 0.62597 0.0
H1976 H 0.36952 0.31458 0.63835 0.0
H1977 H 0.38519 0.27503 0.64112 0.0
H1978 H 0.43856 0.27664 0.68408 0.0
H1979 H 0.41612 0.27169 0.67585 0.0
C1980 C 0.69203 0.05074 0.63965 0.0
C1981 C 0.68977 0.03884 0.63231 0.0
C1982 C 0.68128 0.05906 0.64315 0.0
C1983 C 0.64812 0.06761 0.63008 0.0
H1984 H 0.64209 0.08559 0.66396 0.0
C1985 C 0.59945 0.09668 0.63867 0.0
C1986 C 0.59878 0.10708 0.64821 0.0
C1987 C 0.611 0.08904 0.63722 0.0
C1988 C 0.64371 0.08089 0.65432 0.0
H1989 H 0.67426 0.0257 0.62425 0.0
H1990 H 0.65572 0.0402 0.63008 0.0
H1991 H 0.66119 0.07064 0.66153 0.0
H1992 H 0.61039 0.11798 0.66322 0.0
H1993 H 0.63088 0.10525 0.66007 0.0
H1994 H 0.63127 0.07809 0.62251 0.0
C1995 C 0.66579 0.04329 0.63288 0.0
C1996 C 0.65465 0.07221 0.65299 0.0
C1997 C 0.67645 0.03498 0.62952 0.0
C1998 C 0.61043 0.11008 0.65575 0.0
C1999 C 0.62217 0.10256 0.65409 0.0
C2000 C 0.63742 0.07645 0.63129 0.0
C2001 C 0.66809 0.05566 0.63931 0.0
C2002 C 0.65683 0.06528 0.64091 0.0
C2003 C 0.62259 0.09173 0.64494 0.0
C2004 C 0.6348 0.08307 0.6435 0.0
H2005 H 0.70214 0.05403 0.64201 0.0
H2006 H 0.68337 0.06849 0.64818 0.0
H2007 H 0.64969 0.06269 0.62053 0.0
H2008 H 0.5909 0.09423 0.63235 0.0
H2009 H 0.61058 0.08074 0.63021 0.0
C2010 C 0.81606 0.95043 0.34774 0.0
C2011 C 0.81122 0.96097 0.35559 0.0
C2012 C 0.82981 0.94801 0.34705 0.0
C2013 C 0.86309 0.95782 0.36244 0.0
H2014 H 0.87599 0.94401 0.32871 0.0
C2015 C 0.92021 0.9555 0.35284 0.0
C2016 C 0.92534 0.94795 0.34216 0.0
C2017 C 0.90642 0.9566 0.35481 0.0
C2018 C 0.87283 0.94764 0.33837 0.0
H2019 H 0.8167 0.97701 0.36923 0.0
H2020 H 0.84078 0.97347 0.3674 0.0
H2021 H 0.85247 0.94654 0.33191 0.0
H2022 H 0.91974 0.93526 0.32533 0.0
H2023 H 0.89595 0.93622 0.3292 0.0
H2024 H 0.88327 0.9588 0.36908 0.0
C2025 C 0.83409 0.96674 0.36202 0.0
C2026 C 0.85904 0.94912 0.34021 0.0
C2027 C 0.82029 0.96892 0.36296 0.0
C2028 C 0.91621 0.94115 0.33371 0.0
C2029 C 0.90237 0.94196 0.33587 0.0
C2030 C 0.87689 0.95621 0.36067 0.0
C2031 C 0.83911 0.95631 0.35391 0.0
C2032 C 0.85391 0.95432 0.35223 0.0
C2033 C 0.8971 0.94985 0.3464 0.0
C2034 C 0.88214 0.95118 0.34853 0.0
H2035 H 0.80918 0.94397 0.34224 0.0
H2036 H 0.83307 0.93957 0.34111 0.0
H2037 H 0.85967 0.96162 0.37198 0.0
H2038 H 0.92688 0.96065 0.35979 0.0
H2039 H 0.90328 0.96302 0.36291 0.0
C2040 C 0.40605 0.17511 0.65611 0.0
C2041 C 0.40172 0.18679 0.66276 0.0
C2042 C 0.40083 0.16238 0.6594 0.0
C2043 C 0.37895 0.14464 0.68529 0.0
H2044 H 0.37934 0.11638 0.65882 0.0
C2045 C 0.35055 0.09255 0.69026 0.0
C2046 C 0.35803 0.08125 0.68632 0.0
C2047 C 0.35547 0.10567 0.68815 0.0
C2048 C 0.37911 0.12414 0.66632 0.0
H2049 H 0.38872 0.19362 0.67872 0.0
H2050 H 0.37907 0.17214 0.68357 0.0
H2051 H 0.38867 0.138 0.65331 0.0
H2052 H 0.37665 0.07533 0.677 0.0
H2053 H 0.38516 0.09787 0.67406 0.0
H2054 H 0.36886 0.13054 0.69802 0.0
C2055 C 0.38674 0.17253 0.67602 0.0
C2056 C 0.38466 0.13667 0.66324 0.0
C2057 C 0.39215 0.18513 0.67295 0.0
C2058 C 0.37056 0.08358 0.68039 0.0
C2059 C 0.3754 0.09657 0.67838 0.0
C2060 C 0.3731 0.13212 0.68822 0.0
C2061 C 0.39091 0.16082 0.66935 0.0
C2062 C 0.38484 0.14724 0.67268 0.0
C2063 C 0.36792 0.10784 0.68195 0.0
C2064 C 0.37323 0.12161 0.6788 0.0
H2065 H 0.41333 0.17574 0.64819 0.0
H2066 H 0.4047 0.15379 0.65411 0.0
H2067 H 0.37902 0.15216 0.69312 0.0
H2068 H 0.34093 0.09129 0.69501 0.0
H2069 H 0.3494 0.1141 0.69113 0.0
C2070 C 0.36391 0.8199 0.96841 0.0
C2071 C 0.35518 0.81087 0.96188 0.0
C2072 C 0.36291 0.83369 0.96623 0.0
C2073 C 0.34591 0.85888 0.94359 0.0
H2074 H 0.35726 0.88342 0.9717 0.0
C2075 C 0.33293 0.91551 0.94205 0.0
C2076 C 0.34207 0.9247 0.9478 0.0
C2077 C 0.33487 0.90166 0.94334 0.0
C2078 C 0.35415 0.87678 0.96363 0.0
H2079 H 0.33879 0.80912 0.94771 0.0
H2080 H 0.33654 0.833 0.94429 0.0
H2081 H 0.36008 0.8597 0.97475 0.0
H2082 H 0.36073 0.92646 0.95891 0.0
H2083 H 0.36432 0.90256 0.96083 0.0
H2084 H 0.33966 0.8761 0.93267 0.0
C2085 C 0.3444 0.82967 0.95094 0.0
C2086 C 0.35584 0.863 0.96536 0.0
C2087 C 0.34548 0.81589 0.95308 0.0
C2088 C 0.35334 0.91968 0.95459 0.0
C2089 C 0.35536 0.9059 0.95574 0.0
C2090 C 0.34408 0.87267 0.94194 0.0
C2091 C 0.35307 0.83888 0.95749 0.0
C2092 C 0.35168 0.85374 0.95541 0.0
C2093 C 0.34611 0.89663 0.95027 0.0
C2094 C 0.34814 0.88186 0.95194 0.0
H2095 H 0.37154 0.81628 0.97522 0.0
H2096 H 0.37005 0.84018 0.9713 0.0
H2097 H 0.34288 0.85233 0.93543 0.0
H2098 H 0.3241 0.91901 0.93683 0.0
H2099 H 0.32738 0.89493 0.93914 0.0
C2100 C 0.62948 0.3443 0.28602 0.0
C2101 C 0.62652 0.34109 0.29937 0.0
C2102 C 0.6361 0.35628 0.28309 0.0
C2103 C 0.66191 0.37484 0.29965 0.0
H2104 H 0.65726 0.40341 0.2742 0.0
C2105 C 0.68872 0.42429 0.30781 0.0
C2106 C 0.68831 0.4344 0.29812 0.0
C2107 C 0.6838 0.41146 0.3049 0.0
C2108 C 0.65908 0.39533 0.2811 0.0
H2109 H 0.62599 0.34872 0.31971 0.0
H2110 H 0.63768 0.36955 0.31461 0.0
H2111 H 0.64079 0.38537 0.27508 0.0
H2112 H 0.68427 0.43816 0.27711 0.0
H2113 H 0.67578 0.41588 0.27203 0.0
H2114 H 0.68022 0.38415 0.30553 0.0
C2115 C 0.63516 0.36272 0.30648 0.0
C2116 C 0.64944 0.38508 0.28168 0.0
C2117 C 0.6285 0.35082 0.3094 0.0
C2118 C 0.68421 0.43083 0.28503 0.0
C2119 C 0.67927 0.41797 0.28211 0.0
C2120 C 0.67165 0.38483 0.2989 0.0
C2121 C 0.63983 0.36508 0.29348 0.0
C2122 C 0.65046 0.37518 0.29147 0.0
C2123 C 0.67826 0.40828 0.29221 0.0
C2124 C 0.66997 0.39578 0.29026 0.0
H2125 H 0.62798 0.337 0.27807 0.0
H2126 H 0.63948 0.35799 0.27296 0.0
H2127 H 0.66321 0.36691 0.30688 0.0
H2128 H 0.69176 0.42651 0.31802 0.0
H2129 H 0.68332 0.40453 0.31312 0.0
C2130 C 0.63591 0.67849 0.0353 0.0
C2131 C 0.63239 0.69104 0.0406 0.0
C2132 C 0.63917 0.66785 0.04376 0.0
C2133 C 0.63337 0.6557 0.07821 0.0
H2134 H 0.66088 0.6302 0.06922 0.0
C2135 C 0.64423 0.60992 0.1125 0.0
C2136 C 0.64906 0.59813 0.10649 0.0
C2137 C 0.64298 0.62177 0.10507 0.0
C2138 C 0.65294 0.637 0.07185 0.0
H2139 H 0.63001 0.70237 0.05897 0.0
H2140 H 0.63577 0.68384 0.07378 0.0
H2141 H 0.65749 0.64952 0.05516 0.0
H2142 H 0.6568 0.58993 0.08796 0.0
H2143 H 0.65381 0.60988 0.075 0.0
H2144 H 0.62842 0.643 0.09459 0.0
C2145 C 0.63588 0.68217 0.06306 0.0
C2146 C 0.65108 0.64823 0.06375 0.0
C2147 C 0.63275 0.69285 0.05457 0.0
C2148 C 0.65274 0.59864 0.09294 0.0
C2149 C 0.65128 0.61033 0.08549 0.0
C2150 C 0.63507 0.64433 0.08621 0.0
C2151 C 0.63889 0.66944 0.05778 0.0
C2152 C 0.64124 0.65773 0.06677 0.0
C2153 C 0.6464 0.62217 0.09137 0.0
C2154 C 0.64484 0.63469 0.08314 0.0
H2155 H 0.63578 0.67678 0.02458 0.0
H2156 H 0.64137 0.65823 0.03929 0.0
H2157 H 0.62556 0.6627 0.08078 0.0
H2158 H 0.64123 0.60997 0.12289 0.0
H2159 H 0.63938 0.63061 0.11017 0.0
C2160 C 0.65978 0.38789 0.18396 0.0
C2161 C 0.66123 0.40167 0.1868 0.0
C2162 C 0.66323 0.38245 0.17147 0.0
C2163 C 0.68266 0.38987 0.14009 0.0
H2164 H 0.66417 0.35807 0.12724 0.0
C2165 C 0.68938 0.37009 0.08546 0.0
C2166 C 0.68527 0.35709 0.08195 0.0
C2167 C 0.68857 0.37471 0.09875 0.0
C2168 C 0.66976 0.36677 0.13063 0.0
H2169 H 0.667 0.42058 0.17795 0.0
H2170 H 0.67251 0.41121 0.15598 0.0
H2171 H 0.65755 0.36826 0.14803 0.0
H2172 H 0.67776 0.33841 0.08973 0.0
H2173 H 0.67636 0.34625 0.11287 0.0
H2174 H 0.69473 0.38851 0.12255 0.0
C2175 C 0.6691 0.40447 0.16369 0.0
C2176 C 0.66584 0.37275 0.14276 0.0
C2177 C 0.66573 0.40993 0.17632 0.0
C2178 C 0.68087 0.34856 0.09213 0.0
C2179 C 0.67995 0.35319 0.10545 0.0
C2180 C 0.68654 0.38392 0.12789 0.0
C2181 C 0.6681 0.39057 0.16107 0.0
C2182 C 0.67218 0.38443 0.14778 0.0
C2183 C 0.68323 0.36657 0.10897 0.0
C2184 C 0.68007 0.37231 0.12277 0.0
H2185 H 0.65604 0.38112 0.19149 0.0
H2186 H 0.66236 0.37173 0.17014 0.0
H2187 H 0.68806 0.39867 0.14358 0.0
H2188 H 0.69292 0.37685 0.07781 0.0
H2189 H 0.69143 0.38499 0.1007 0.0
C2190 C 0.97159 0.34837 0.81861 0.0
C2191 C 0.9622 0.35556 0.81105 0.0
C2192 C 0.97013 0.3471 0.83248 0.0
C2193 C 0.95226 0.36129 0.86196 0.0
H2194 H 0.95957 0.3266 0.87731 0.0
C2195 C 0.93804 0.34842 0.91669 0.0
C2196 C 0.94719 0.34071 0.92405 0.0
C2197 C 0.93974 0.35033 0.9029 0.0
C2198 C 0.95763 0.33642 0.87327 0.0
H2199 H 0.94386 0.36699 0.81218 0.0
H2200 H 0.94128 0.36469 0.83624 0.0
H2201 H 0.96343 0.33022 0.85364 0.0
H2202 H 0.96499 0.32858 0.92258 0.0
H2203 H 0.96806 0.33198 0.89872 0.0
H2204 H 0.94646 0.36749 0.88164 0.0
C2205 C 0.94992 0.36025 0.83155 0.0
C2206 C 0.95988 0.3385 0.85964 0.0
C2207 C 0.9514 0.36154 0.81771 0.0
C2208 C 0.95783 0.33466 0.91723 0.0
C2209 C 0.95951 0.33654 0.90349 0.0
C2210 C 0.95005 0.35922 0.87563 0.0
C2211 C 0.95921 0.35292 0.83912 0.0
C2212 C 0.9572 0.35095 0.85378 0.0
C2213 C 0.95058 0.3445 0.89612 0.0
C2214 C 0.9527 0.34674 0.88149 0.0
H2215 H 0.98012 0.34382 0.81382 0.0
H2216 H 0.97761 0.34159 0.83801 0.0
H2217 H 0.95024 0.37107 0.85784 0.0
H2218 H 0.92979 0.3533 0.92166 0.0
H2219 H 0.93254 0.35638 0.89756 0.0
C2220 C 0.28264 0.6358 0.3363 0.0
C2221 C 0.29205 0.62539 0.33584 0.0
C2222 C 0.27964 0.64208 0.34845 0.0
C2223 C 0.29962 0.6505 0.37724 0.0
H2224 H 0.26844 0.66869 0.39088 0.0
C2225 C 0.30683 0.68753 0.42043 0.0
C2226 C 0.29728 0.68697 0.43074 0.0
C2227 C 0.30406 0.682 0.40776 0.0
C2228 C 0.27728 0.66366 0.3873 0.0
H2229 H 0.30367 0.61179 0.34797 0.0
H2230 H 0.29839 0.62273 0.3692 0.0
H2231 H 0.2659 0.65232 0.37268 0.0
H2232 H 0.27634 0.68221 0.43448 0.0
H2233 H 0.27209 0.67146 0.41323 0.0
H2234 H 0.31115 0.66202 0.39103 0.0
C2235 C 0.29367 0.62629 0.36012 0.0
C2236 C 0.27578 0.65426 0.37684 0.0
C2237 C 0.29666 0.62 0.34797 0.0
C2238 C 0.28438 0.68212 0.42731 0.0
C2239 C 0.28177 0.67617 0.41481 0.0
C2240 C 0.30115 0.66005 0.38737 0.0
C2241 C 0.28597 0.63802 0.36032 0.0
C2242 C 0.28694 0.64738 0.37192 0.0
C2243 C 0.29179 0.6754 0.40504 0.0
C2244 C 0.29002 0.66656 0.39289 0.0
H2245 H 0.27884 0.64019 0.32716 0.0
H2246 H 0.27357 0.65101 0.3483 0.0
H2247 H 0.30851 0.64574 0.37336 0.0
H2248 H 0.31686 0.69129 0.42228 0.0
H2249 H 0.3119 0.6823 0.40036 0.0
C2250 C 0.03546 0.62853 0.67634 0.0
C2251 C 0.03919 0.63148 0.68967 0.0
C2252 C 0.04378 0.63195 0.6657 0.0
C2253 C 0.0724 0.65247 0.6545 0.0
H2254 H 0.07892 0.62195 0.6314 0.0
C2255 C 0.11038 0.6555 0.61029 0.0
C2256 C 0.10753 0.64781 0.59871 0.0
C2257 C 0.10285 0.65385 0.62203 0.0
C2258 C 0.0771 0.63074 0.63747 0.0
H2259 H 0.05417 0.64153 0.70203 0.0
H2260 H 0.06863 0.6478 0.6833 0.0
H2261 H 0.0635 0.61983 0.6498 0.0
H2262 H 0.09494 0.63168 0.59097 0.0
H2263 H 0.08144 0.62952 0.61064 0.0
H2264 H 0.08562 0.66357 0.64186 0.0
C2265 C 0.05929 0.6426 0.68119 0.0
C2266 C 0.06825 0.62945 0.64816 0.0
C2267 C 0.05098 0.63904 0.69193 0.0
C2268 C 0.09728 0.63811 0.59945 0.0
C2269 C 0.08962 0.63666 0.611 0.0
C2270 C 0.08109 0.65387 0.64355 0.0
C2271 C 0.05603 0.63861 0.668 0.0
C2272 C 0.06569 0.6403 0.65677 0.0
C2273 C 0.09216 0.64453 0.62253 0.0
C2274 C 0.08349 0.64304 0.63474 0.0
H2275 H 0.02626 0.62311 0.67413 0.0
H2276 H 0.04078 0.62904 0.65564 0.0
H2277 H 0.07065 0.66102 0.66096 0.0
H2278 H 0.11817 0.66308 0.61019 0.0
H2279 H 0.10541 0.65995 0.63069 0.0
C2280 C 0.83485 0.34977 0.60388 0.0
C2281 C 0.82448 0.35445 0.6122 0.0
C2282 C 0.84749 0.34627 0.60927 0.0
C2283 C 0.86849 0.35029 0.64075 0.0
H2284 H 0.88843 0.32031 0.62671 0.0
C2285 C 0.91529 0.33332 0.66948 0.0
C2286 C 0.92643 0.32863 0.6623 0.0
C2287 C 0.90267 0.33452 0.66335 0.0
C2288 C 0.8831 0.32877 0.63081 0.0
H2289 H 0.81999 0.35974 0.63279 0.0
H2290 H 0.84126 0.35316 0.64206 0.0
H2291 H 0.86782 0.32722 0.61556 0.0
H2292 H 0.93202 0.31982 0.64318 0.0
H2293 H 0.9104 0.32236 0.63252 0.0
H2294 H 0.88369 0.35223 0.6557 0.0
C2295 C 0.83987 0.35229 0.63133 0.0
C2296 C 0.87118 0.33278 0.62431 0.0
C2297 C 0.82741 0.35587 0.62597 0.0
C2298 C 0.92408 0.32418 0.64902 0.0
C2299 C 0.91145 0.32553 0.64284 0.0
C2300 C 0.88031 0.34633 0.64718 0.0
C2301 C 0.85019 0.34738 0.62316 0.0
C2302 C 0.86351 0.34349 0.62932 0.0
C2303 C 0.90067 0.33145 0.64966 0.0
C2304 C 0.8878 0.33535 0.64253 0.0
H2305 H 0.83313 0.34849 0.59323 0.0
H2306 H 0.85514 0.34274 0.60253 0.0
H2307 H 0.86332 0.35889 0.64475 0.0
H2308 H 0.91629 0.33684 0.67969 0.0
H2309 H 0.8946 0.33838 0.66936 0.0
C2310 C 0.67528 0.72857 0.37861 0.0
C2311 C 0.67429 0.71681 0.38624 0.0
C2312 C 0.6643 0.733 0.37111 0.0
C2313 C 0.64265 0.71734 0.34979 0.0
H2314 H 0.61481 0.74391 0.35112 0.0
C2315 C 0.59216 0.70462 0.32732 0.0
C2316 C 0.58145 0.71362 0.32798 0.0
C2317 C 0.60527 0.70878 0.33038 0.0
C2318 C 0.62259 0.73655 0.35015 0.0
H2319 H 0.66033 0.70218 0.39413 0.0
H2320 H 0.64132 0.70972 0.38071 0.0
H2321 H 0.633 0.74485 0.36731 0.0
H2322 H 0.57664 0.73457 0.33081 0.0
H2323 H 0.59923 0.74185 0.33591 0.0
H2324 H 0.63284 0.70906 0.33267 0.0
C2325 C 0.65064 0.71532 0.38037 0.0
C2326 C 0.63298 0.73708 0.3597 0.0
C2327 C 0.66154 0.711 0.38801 0.0
C2328 C 0.58449 0.72717 0.33068 0.0
C2329 C 0.59762 0.73137 0.33366 0.0
C2330 C 0.63247 0.71694 0.34011 0.0
C2331 C 0.65223 0.72578 0.37122 0.0
C2332 C 0.64259 0.727 0.36002 0.0
C2333 C 0.60823 0.72215 0.33425 0.0
C2334 C 0.6215 0.72573 0.3409 0.0
H2335 H 0.68488 0.7334 0.37711 0.0
H2336 H 0.66567 0.74117 0.36419 0.0
H2337 H 0.6503 0.70971 0.34962 0.0
H2338 H 0.59038 0.6941 0.32528 0.0
H2339 H 0.61277 0.70107 0.33063 0.0
C2340 C 0.3325 0.97556 0.37542 0.0
C2341 C 0.32085 0.96973 0.3807 0.0
C2342 C 0.34345 0.96763 0.37191 0.0
C2343 C 0.3587 0.93488 0.37961 0.0
H2344 H 0.38025 0.94215 0.34841 0.0
C2345 C 0.40309 0.90075 0.3642 0.0
C2346 C 0.41455 0.90712 0.35908 0.0
C2347 C 0.3913 0.90799 0.36644 0.0
C2348 C 0.37447 0.94005 0.35727 0.0
H2349 H 0.31144 0.95096 0.3861 0.0
H2350 H 0.33045 0.93711 0.37988 0.0
H2351 H 0.36054 0.95559 0.35276 0.0
H2352 H 0.42233 0.92603 0.35189 0.0
H2353 H 0.40213 0.9386 0.35607 0.0
H2354 H 0.37275 0.91948 0.38427 0.0
C2355 C 0.3312 0.94783 0.37855 0.0
C2356 C 0.36311 0.94777 0.35974 0.0
C2357 C 0.32022 0.95575 0.38195 0.0
C2358 C 0.4138 0.92081 0.35604 0.0
C2359 C 0.40209 0.92802 0.35828 0.0
C2360 C 0.37012 0.92719 0.37718 0.0
C2361 C 0.34305 0.95367 0.37371 0.0
C2362 C 0.35506 0.9453 0.37095 0.0
C2363 C 0.39065 0.92176 0.36353 0.0
C2364 C 0.37821 0.92968 0.36598 0.0
H2365 H 0.33326 0.98631 0.37429 0.0
H2366 H 0.3524 0.9725 0.36826 0.0
H2367 H 0.35289 0.93283 0.38848 0.0
H2368 H 0.40332 0.89023 0.3667 0.0
H2369 H 0.38267 0.90276 0.37036 0.0
C2370 C 0.195 0.05138 0.67037 0.0
C2371 C 0.20168 0.05155 0.65806 0.0
C2372 C 0.18112 0.05289 0.67092 0.0
C2373 C 0.15203 0.06514 0.65119 0.0
H2374 H 0.13181 0.0463 0.6782 0.0
C2375 C 0.09412 0.06781 0.65329 0.0
C2376 C 0.08794 0.06714 0.66582 0.0
C2377 C 0.10792 0.06585 0.65212 0.0
C2378 C 0.13727 0.05182 0.67071 0.0
H2379 H 0.19903 0.05323 0.63661 0.0
H2380 H 0.17466 0.0555 0.63747 0.0
H2381 H 0.1557 0.04257 0.6763 0.0
H2382 H 0.09121 0.06409 0.68698 0.0
H2383 H 0.11542 0.06119 0.68513 0.0
H2384 H 0.13365 0.0745 0.64566 0.0
C2385 C 0.18019 0.05452 0.64678 0.0
C2386 C 0.15105 0.04964 0.66959 0.0
C2387 C 0.19414 0.05316 0.64625 0.0
C2388 C 0.0958 0.06471 0.67722 0.0
C2389 C 0.10965 0.06288 0.67609 0.0
C2390 C 0.13825 0.06736 0.65233 0.0
C2391 C 0.17348 0.05447 0.65915 0.0
C2392 C 0.15866 0.05634 0.65989 0.0
C2393 C 0.11592 0.06326 0.66348 0.0
C2394 C 0.13065 0.06081 0.66217 0.0
H2395 H 0.20056 0.05038 0.67966 0.0
H2396 H 0.17643 0.05311 0.68065 0.0
H2397 H 0.15753 0.07064 0.6437 0.0
H2398 H 0.08818 0.06954 0.64435 0.0
H2399 H 0.11223 0.06601 0.64221 0.0
C2400 C 0.62212 0.82441 0.34491 0.0
C2401 C 0.61189 0.82307 0.35447 0.0
C2402 C 0.62752 0.83693 0.34156 0.0
C2403 C 0.62769 0.87368 0.35225 0.0
H2404 H 0.64869 0.87732 0.31998 0.0
C2405 C 0.64567 0.92519 0.33326 0.0
C2406 C 0.6595 0.9269 0.33092 0.0
C2407 C 0.63996 0.91248 0.33495 0.0
C2408 C 0.64293 0.87644 0.32908 0.0
H2409 H 0.5989 0.8346 0.36739 0.0
H2410 H 0.60752 0.8564 0.36089 0.0
H2411 H 0.63768 0.85618 0.32473 0.0
H2412 H 0.67761 0.91548 0.32697 0.0
H2413 H 0.66757 0.89353 0.33033 0.0
H2414 H 0.6324 0.89435 0.35593 0.0
C2415 C 0.61199 0.84765 0.3564 0.0
C2416 C 0.63661 0.86417 0.33197 0.0
C2417 C 0.60678 0.83499 0.36002 0.0
C2418 C 0.66711 0.91506 0.32941 0.0
C2419 C 0.66131 0.90229 0.33115 0.0
C2420 C 0.63369 0.88601 0.34913 0.0
C2421 C 0.62268 0.84891 0.34723 0.0
C2422 C 0.62895 0.8624 0.34374 0.0
C2423 C 0.64771 0.90089 0.33439 0.0
C2424 C 0.6415 0.88757 0.33758 0.0
H2425 H 0.62615 0.8157 0.33993 0.0
H2426 H 0.63577 0.83698 0.33464 0.0
H2427 H 0.62224 0.87308 0.36153 0.0
H2428 H 0.63907 0.93361 0.33425 0.0
H2429 H 0.62936 0.91165 0.3368 0.0
C2430 C 0.66005 0.19314 0.04107 0.0
C2431 C 0.65631 0.20154 0.05177 0.0
C2432 C 0.66045 0.17925 0.04261 0.0
C2433 C 0.64903 0.15112 0.06377 0.0
H2434 H 0.68122 0.13402 0.05096 0.0
C2435 C 0.66051 0.09586 0.07648 0.0
C2436 C 0.66685 0.08798 0.0667 0.0
C2437 C 0.65932 0.10974 0.07491 0.0
C2438 C 0.67204 0.1385 0.05444 0.0
H2439 H 0.64938 0.20169 0.07229 0.0
H2440 H 0.64982 0.17744 0.07486 0.0
H2441 H 0.67787 0.1577 0.04701 0.0
H2442 H 0.67763 0.08889 0.04795 0.0
H2443 H 0.67496 0.1127 0.04486 0.0
H2444 H 0.64303 0.13191 0.07096 0.0
C2445 C 0.65251 0.18165 0.06529 0.0
C2446 C 0.67014 0.15216 0.05218 0.0
C2447 C 0.65222 0.19558 0.06379 0.0
C2448 C 0.67238 0.09449 0.05556 0.0
C2449 C 0.67103 0.1083 0.05389 0.0
C2450 C 0.65085 0.1374 0.06589 0.0
C2451 C 0.65697 0.17334 0.05483 0.0
C2452 C 0.65865 0.15867 0.05686 0.0
C2453 C 0.66433 0.11616 0.06345 0.0
C2454 C 0.66242 0.13087 0.06131 0.0
H2455 H 0.66294 0.1973 0.03154 0.0
H2456 H 0.66364 0.17313 0.03424 0.0
H2457 H 0.63999 0.15579 0.06738 0.0
H2458 H 0.65607 0.09129 0.08519 0.0
H2459 H 0.65437 0.11541 0.08268 0.0
C2460 C 0.39082 0.66229 0.71279 0.0
C2461 C 0.38804 0.67507 0.71804 0.0
C2462 C 0.38366 0.65113 0.71721 0.0
C2463 C 0.3629 0.63215 0.7367 0.0
H2464 H 0.33628 0.63354 0.70827 0.0
C2465 C 0.33004 0.58595 0.72499 0.0
C2466 C 0.3282 0.58321 0.71124 0.0
C2467 C 0.33453 0.59856 0.72939 0.0
C2468 C 0.34362 0.63285 0.71625 0.0
H2469 H 0.37748 0.68569 0.73372 0.0
H2470 H 0.36516 0.66612 0.74147 0.0
H2471 H 0.35261 0.65149 0.71073 0.0
H2472 H 0.32931 0.59176 0.69142 0.0
H2473 H 0.33725 0.61332 0.69883 0.0
H2474 H 0.35473 0.61307 0.74168 0.0
C2475 C 0.37267 0.66485 0.73381 0.0
C2476 C 0.35288 0.64326 0.71773 0.0
C2477 C 0.37979 0.67604 0.72937 0.0
C2478 C 0.33036 0.59354 0.70209 0.0
C2479 C 0.33491 0.60606 0.70644 0.0
C2480 C 0.35371 0.62157 0.73513 0.0
C2481 C 0.37389 0.65257 0.72711 0.0
C2482 C 0.36291 0.64269 0.72758 0.0
C2483 C 0.33742 0.60872 0.72014 0.0
C2484 C 0.34448 0.62138 0.72431 0.0
H2485 H 0.39734 0.66116 0.70426 0.0
H2486 H 0.38474 0.64169 0.71192 0.0
H2487 H 0.37049 0.63167 0.74449 0.0
H2488 H 0.32827 0.57825 0.73235 0.0
H2489 H 0.33599 0.60019 0.74002 0.0
C2490 C 0.3793 0.33439 0.97704 0.0
C2491 C 0.38005 0.32145 0.97147 0.0
C2492 C 0.37546 0.34527 0.96921 0.0
C2493 C 0.36177 0.35471 0.93525 0.0
H2494 H 0.37974 0.38805 0.94411 0.0
C2495 C 0.35159 0.40279 0.90421 0.0
C2496 C 0.3603 0.41384 0.90544 0.0
C2497 C 0.35373 0.39117 0.91173 0.0
C2498 C 0.3748 0.37885 0.9411 0.0
H2499 H 0.37647 0.30975 0.95343 0.0
H2500 H 0.37005 0.32865 0.9397 0.0
H2501 H 0.38337 0.36888 0.95786 0.0
H2502 H 0.37879 0.42082 0.91462 0.0
H2503 H 0.3831 0.40059 0.92686 0.0
H2504 H 0.35411 0.36426 0.91786 0.0
C2505 C 0.37229 0.33049 0.95017 0.0
C2506 C 0.37662 0.36777 0.94938 0.0
C2507 C 0.376 0.31956 0.95807 0.0
C2508 C 0.37168 0.41262 0.91368 0.0
C2509 C 0.37403 0.40093 0.92091 0.0
C2510 C 0.36027 0.36569 0.92669 0.0
C2511 C 0.37238 0.34361 0.95549 0.0
C2512 C 0.37008 0.35552 0.94668 0.0
C2513 C 0.36486 0.39009 0.92051 0.0
C2514 C 0.36671 0.37805 0.92945 0.0
H2515 H 0.38203 0.33617 0.98742 0.0
H2516 H 0.37517 0.35505 0.97392 0.0
H2517 H 0.35636 0.34558 0.93282 0.0
H2518 H 0.34273 0.40336 0.89793 0.0
H2519 H 0.34626 0.38333 0.91094 0.0
C2520 C 0.34469 0.62224 0.82525 0.0
C2521 C 0.35396 0.61176 0.82391 0.0
C2522 C 0.34135 0.62761 0.8378 0.0
C2523 C 0.3515 0.62687 0.87476 0.0
H2524 H 0.32006 0.6491 0.87818 0.0
C2525 C 0.33349 0.64609 0.92645 0.0
C2526 C 0.33056 0.65984 0.92782 0.0
C2527 C 0.33523 0.6401 0.91383 0.0
C2528 C 0.32893 0.64298 0.8774 0.0
H2529 H 0.36641 0.59833 0.83543 0.0
H2530 H 0.35992 0.60687 0.85725 0.0
H2531 H 0.32474 0.63827 0.85697 0.0
H2532 H 0.32579 0.67744 0.91596 0.0
H2533 H 0.32926 0.66701 0.89425 0.0
H2534 H 0.35505 0.63115 0.89554 0.0
C2535 C 0.35565 0.61157 0.84851 0.0
C2536 C 0.33178 0.63675 0.86506 0.0
C2537 C 0.35926 0.60639 0.83583 0.0
C2538 C 0.32864 0.66705 0.91579 0.0
C2539 C 0.33044 0.66099 0.90314 0.0
C2540 C 0.34841 0.63281 0.88715 0.0
C2541 C 0.34675 0.62249 0.84979 0.0
C2542 C 0.34326 0.62867 0.86335 0.0
C2543 C 0.33414 0.64748 0.902 0.0
C2544 C 0.33717 0.64107 0.88867 0.0
H2545 H 0.33992 0.62649 0.81651 0.0
H2546 H 0.33466 0.63604 0.83785 0.0
H2547 H 0.36056 0.62107 0.87424 0.0
H2548 H 0.33486 0.63981 0.93506 0.0
H2549 H 0.33748 0.62957 0.9133 0.0
C2550 C 0.06511 0.66179 0.1963 0.0
C2551 C 0.05421 0.65478 0.20166 0.0
C2552 C 0.06651 0.66295 0.18243 0.0
C2553 C 0.0557 0.6479 0.15005 0.0
H2554 H 0.06661 0.68218 0.13568 0.0
C2555 C 0.05537 0.65718 0.09315 0.0
C2556 C 0.06526 0.6655 0.08757 0.0
C2557 C 0.05397 0.65612 0.10701 0.0
C2558 C 0.06375 0.67247 0.13949 0.0
H2559 H 0.03627 0.64342 0.1969 0.0
H2560 H 0.03883 0.64514 0.17258 0.0
H2561 H 0.06435 0.67956 0.15978 0.0
H2562 H 0.0815 0.67925 0.0925 0.0
H2563 H 0.07945 0.67698 0.11671 0.0
H2564 H 0.05529 0.64069 0.12988 0.0
C2565 C 0.04634 0.64972 0.17905 0.0
C2566 C 0.06242 0.67098 0.15335 0.0
C2567 C 0.04486 0.64871 0.19295 0.0
C2568 C 0.07383 0.67265 0.09636 0.0
C2569 C 0.07252 0.67149 0.1103 0.0
C2570 C 0.05713 0.64936 0.13621 0.0
C2571 C 0.05709 0.65704 0.17361 0.0
C2572 C 0.0584 0.65866 0.15882 0.0
C2573 C 0.06256 0.66317 0.11584 0.0
C2574 C 0.06116 0.66167 0.13068 0.0
H2575 H 0.0723 0.66674 0.20287 0.0
H2576 H 0.07498 0.66852 0.17862 0.0
H2577 H 0.05275 0.63823 0.1539 0.0
H2578 H 0.04872 0.65129 0.0868 0.0
H2579 H 0.04603 0.6498 0.11077 0.0
C2580 C 0.72114 0.37158 0.67891 0.0
C2581 C 0.71671 0.38481 0.6775 0.0
C2582 C 0.7247 0.36403 0.66772 0.0
C2583 C 0.73487 0.36206 0.63348 0.0
H2584 H 0.70579 0.33673 0.62828 0.0
C2585 C 0.72547 0.3382 0.58158 0.0
C2586 C 0.71457 0.32945 0.57944 0.0
C2587 C 0.72917 0.34244 0.59447 0.0
C2588 C 0.71433 0.3433 0.62945 0.0
H2589 H 0.71328 0.40079 0.66342 0.0
H2590 H 0.72012 0.3876 0.6437 0.0
H2591 H 0.70697 0.34981 0.64845 0.0
H2592 H 0.70056 0.31648 0.58965 0.0
H2593 H 0.70732 0.32312 0.61193 0.0
H2594 H 0.74281 0.35535 0.615 0.0
C2595 C 0.72074 0.38316 0.65354 0.0
C2596 C 0.71484 0.351 0.64114 0.0
C2597 C 0.71684 0.39068 0.66476 0.0
C2598 C 0.7085 0.32385 0.59076 0.0
C2599 C 0.71239 0.32786 0.60371 0.0
C2600 C 0.7347 0.35397 0.62193 0.0
C2601 C 0.72417 0.36962 0.65492 0.0
C2602 C 0.72483 0.36072 0.64306 0.0
C2603 C 0.72219 0.33798 0.60584 0.0
C2604 C 0.72407 0.34477 0.61935 0.0
H2605 H 0.72081 0.36671 0.68855 0.0
H2606 H 0.72713 0.35356 0.66898 0.0
H2607 H 0.74281 0.3694 0.63489 0.0
H2608 H 0.73071 0.34252 0.57323 0.0
H2609 H 0.73702 0.34988 0.59518 0.0
C2610 C 0.95685 0.38633 0.32187 0.0
C2611 C 0.96983 0.38129 0.32054 0.0
C2612 C 0.94904 0.383 0.33294 0.0
C2613 C 0.94569 0.35868 0.36077 0.0
H2614 H 0.92459 0.38687 0.37682 0.0
C2615 C 0.91968 0.35238 0.41194 0.0
C2616 C 0.9071 0.35824 0.41384 0.0
C2617 C 0.92697 0.35473 0.40029 0.0
C2618 C 0.93025 0.37881 0.37237 0.0
H2619 H 0.98481 0.36862 0.32953 0.0
H2620 H 0.97109 0.36252 0.34884 0.0
H2621 H 0.93809 0.39163 0.35722 0.0
H2622 H 0.89216 0.37103 0.40491 0.0
H2623 H 0.90488 0.37517 0.38442 0.0
H2624 H 0.9379 0.34587 0.37597 0.0
C2625 C 0.96689 0.36906 0.34134 0.0
C2626 C 0.93803 0.38155 0.3611 0.0
C2627 C 0.97477 0.37254 0.33031 0.0
C2628 C 0.90181 0.36633 0.40368 0.0
C2629 C 0.90918 0.3688 0.39202 0.0
C2630 C 0.9379 0.35594 0.37204 0.0
C2631 C 0.95399 0.37446 0.34294 0.0
C2632 C 0.94583 0.37151 0.35509 0.0
C2633 C 0.92191 0.36309 0.3902 0.0
C2634 C 0.93004 0.36596 0.378 0.0
H2635 H 0.9529 0.39323 0.31455 0.0
H2636 H 0.93912 0.38721 0.33369 0.0
H2637 H 0.95143 0.35064 0.35636 0.0
H2638 H 0.92397 0.34605 0.41958 0.0
H2639 H 0.93676 0.35026 0.39938 0.0
C2640 C 0.26715 0.59114 0.50956 0.0
C2641 C 0.26592 0.60508 0.51057 0.0
C2642 C 0.26874 0.58332 0.52108 0.0
C2643 C 0.27679 0.58606 0.55803 0.0
H2644 H 0.26329 0.5496 0.55829 0.0
C2645 C 0.27679 0.55433 0.60637 0.0
C2646 C 0.28297 0.54175 0.60517 0.0
C2647 C 0.27334 0.56172 0.59496 0.0
C2648 C 0.26711 0.55978 0.55837 0.0
H2649 H 0.26535 0.62183 0.52434 0.0
H2650 H 0.26793 0.60838 0.54444 0.0
H2651 H 0.26032 0.5632 0.53832 0.0
H2652 H 0.28992 0.52711 0.5906 0.0
H2653 H 0.28345 0.53975 0.57096 0.0
H2654 H 0.28321 0.58266 0.57824 0.0
C2655 C 0.26798 0.60331 0.53483 0.0
C2656 C 0.26553 0.56759 0.54684 0.0
C2657 C 0.26643 0.6111 0.5233 0.0
C2658 C 0.285 0.5366 0.59214 0.0
C2659 C 0.28134 0.54389 0.58077 0.0
C2660 C 0.27811 0.57834 0.56961 0.0
C2661 C 0.26907 0.58925 0.53397 0.0
C2662 C 0.27046 0.58087 0.5464 0.0
C2663 C 0.27576 0.55668 0.58202 0.0
C2664 C 0.27341 0.56507 0.56991 0.0
H2665 H 0.2666 0.58625 0.49985 0.0
H2666 H 0.26975 0.57262 0.51981 0.0
H2667 H 0.28104 0.59604 0.55818 0.0
H2668 H 0.27469 0.55857 0.61612 0.0
H2669 H 0.26886 0.57148 0.59627 0.0
C2670 C 0.27603 0.38662 0.70323 0.0
C2671 C 0.28291 0.37441 0.70242 0.0
C2672 C 0.27935 0.39611 0.7132 0.0
C2673 C 0.29991 0.39987 0.74503 0.0
H2674 H 0.29566 0.43778 0.73844 0.0
C2675 C 0.32531 0.43768 0.77948 0.0
C2676 C 0.31653 0.44654 0.78586 0.0
C2677 C 0.32135 0.4308 0.76789 0.0
C2678 C 0.29691 0.42721 0.74036 0.0
H2679 H 0.29815 0.3624 0.71201 0.0
H2680 H 0.30456 0.37895 0.72843 0.0
H2681 H 0.28799 0.42148 0.72161 0.0
H2682 H 0.29722 0.45612 0.78447 0.0
H2683 H 0.29026 0.44406 0.76395 0.0
H2684 H 0.30935 0.40565 0.76347 0.0
C2685 C 0.29633 0.38131 0.72179 0.0
C2686 C 0.29239 0.4178 0.73078 0.0
C2687 C 0.29281 0.37179 0.71209 0.0
C2688 C 0.30418 0.44937 0.77971 0.0
C2689 C 0.3002 0.44245 0.76801 0.0
C2690 C 0.30472 0.40923 0.75434 0.0
C2691 C 0.28973 0.3937 0.72255 0.0
C2692 C 0.29391 0.40393 0.73292 0.0
C2693 C 0.30851 0.43262 0.76239 0.0
C2694 C 0.30335 0.42299 0.75212 0.0
H2695 H 0.26836 0.38902 0.69593 0.0
H2696 H 0.27378 0.40534 0.7135 0.0
H2697 H 0.30087 0.38942 0.74751 0.0
H2698 H 0.33493 0.43543 0.78397 0.0
H2699 H 0.32806 0.42347 0.76365 0.0
C2700 C 0.73839 0.98153 0.52025 0.0
C2701 C 0.75109 0.9842 0.52587 0.0
C2702 C 0.7362 0.98286 0.50645 0.0
C2703 C 0.75356 0.98634 0.47366 0.0
H2704 H 0.72039 1.00328 0.46317 0.0
C2705 C 0.74242 1.00166 0.41845 0.0
C2706 C 0.72914 0.99984 0.41392 0.0
C2707 C 0.7457 1.00008 0.43206 0.0
C2708 C 0.72964 0.99836 0.46583 0.0
H2709 H 0.77143 0.99029 0.52132 0.0
H2710 H 0.76757 0.99274 0.49741 0.0
H2711 H 0.72468 0.9987 0.4866 0.0
H2712 H 0.7089 0.99546 0.42021 0.0
H2713 H 0.71456 0.99229 0.44355 0.0
H2714 H 0.75845 0.98589 0.45281 0.0
C2715 C 0.75936 0.98934 0.50356 0.0
C2716 C 0.73209 0.99572 0.47934 0.0
C2717 C 0.76157 0.98794 0.51731 0.0
C2718 C 0.71926 0.99663 0.42329 0.0
C2719 C 0.7225 0.99505 0.43679 0.0
C2720 C 0.75105 0.98889 0.46008 0.0
C2721 C 0.7466 0.98702 0.49795 0.0
C2722 C 0.74403 0.98959 0.48345 0.0
C2723 C 0.73575 0.99674 0.44143 0.0
C2724 C 0.73897 0.99481 0.45595 0.0
H2725 H 0.73015 0.97847 0.52653 0.0
H2726 H 0.7263 0.98072 0.50244 0.0
H2727 H 0.76285 0.98156 0.47644 0.0
H2728 H 0.75027 1.00421 0.41148 0.0
H2729 H 0.75599 1.00162 0.43523 0.0
C2730 C 0.7208 0.98467 0.26591 0.0
C2731 C 0.72099 0.99616 0.274 0.0
C2732 C 0.71826 0.98557 0.25226 0.0
C2733 C 0.71628 0.00882 0.22364 0.0
H2734 H 0.69507 0.9796 0.20867 0.0
C2735 C 0.70722 1.00537 0.16697 0.0
C2736 C 0.69477 1.00054 0.16241 0.0
C2737 C 0.71101 1.00395 0.18036 0.0
C2738 C 0.70084 0.98796 0.21261 0.0
H2739 H 0.71904 0.0177 0.27433 0.0
H2740 H 0.71458 0.0194 0.25014 0.0
H2741 H 0.69976 0.98029 0.23242 0.0
H2742 H 0.67679 0.98983 0.16789 0.0
H2743 H 0.68302 0.98777 0.19139 0.0
H2744 H 0.71656 0.01703 0.20401 0.0
C2745 C 0.71652 0.00966 0.25437 0.0
C2746 C 0.70376 0.98824 0.22628 0.0
C2747 C 0.71911 0.00873 0.26817 0.0
C2748 C 0.68648 0.99356 0.17122 0.0
C2749 C 0.69012 0.9924 0.18471 0.0
C2750 C 0.71309 0.00873 0.20998 0.0
C2751 C 0.71569 0.998 0.24633 0.0
C2752 C 0.71178 0.99849 0.23194 0.0
C2753 C 0.70226 0.99798 0.18957 0.0
C2754 C 0.70551 0.99816 0.2042 0.0
H2755 H 0.72208 0.97488 0.2703 0.0
H2756 H 0.71809 0.97642 0.24639 0.0
H2757 H 0.72247 0.01688 0.22763 0.0
H2758 H 0.71381 0.01072 0.16027 0.0
H2759 H 0.72066 0.00791 0.1835 0.0
C2760 C 0.51742 0.27533 0.60598 0.0
C2761 C 0.50997 0.26338 0.60471 0.0
C2762 C 0.52881 0.27756 0.59808 0.0
C2763 C 0.54586 0.26516 0.56696 0.0
H2764 H 0.57601 0.28525 0.58151 0.0
C2765 C 0.59714 0.27099 0.53944 0.0
C2766 C 0.60311 0.28375 0.54013 0.0
C2767 C 0.58558 0.26813 0.54688 0.0
C2768 C 0.56763 0.2797 0.57723 0.0
H2769 H 0.50861 0.24458 0.59375 0.0
H2770 H 0.52849 0.2482 0.5805 0.0
H2771 H 0.55654 0.28113 0.59541 0.0
H2772 H 0.60184 0.30345 0.54905 0.0
H2773 H 0.58176 0.29857 0.56198 0.0
H2774 H 0.55715 0.26359 0.54883 0.0
C2775 C 0.52554 0.256 0.58742 0.0
C2776 C 0.55639 0.27737 0.58522 0.0
C2777 C 0.51417 0.25382 0.59524 0.0
C2778 C 0.59729 0.2936 0.54822 0.0
C2779 C 0.58589 0.29073 0.55575 0.0
C2780 C 0.55717 0.26739 0.55901 0.0
C2781 C 0.53307 0.2679 0.58868 0.0
C2782 C 0.54524 0.27018 0.58019 0.0
C2783 C 0.57996 0.27792 0.55535 0.0
C2784 C 0.56814 0.27486 0.56397 0.0
H2785 H 0.51457 0.28292 0.61319 0.0
H2786 H 0.53417 0.28695 0.59927 0.0
H2787 H 0.53748 0.25972 0.56258 0.0
H2788 H 0.60158 0.26318 0.5334 0.0
H2789 H 0.58132 0.25814 0.54636 0.0
C2790 C 0.26633 0.72109 0.98514 0.0
C2791 C 0.27475 0.71937 0.99625 0.0
C2792 C 0.25261 0.71902 0.98616 0.0
C2793 C 0.22464 0.71417 0.00998 0.0
H2794 H 0.20812 0.69806 0.97842 0.0
C2795 C 0.16782 0.70621 0.00752 0.0
C2796 C 0.16297 0.69445 1.00139 0.0
C2797 C 0.18114 0.71012 1.00604 0.0
C2798 C 0.21251 0.70241 0.9874 0.0
H2799 H 0.27555 0.71474 0.01736 0.0
H2800 H 0.25132 0.71075 0.01921 0.0
H2801 H 0.23193 0.70244 0.97876 0.0
H2802 H 0.16787 0.67795 0.98824 0.0
H2803 H 0.19132 0.68443 0.98593 0.0
H2804 H 0.20536 0.71325 0.01897 0.0
C2805 C 0.25533 0.71386 0.00968 0.0
C2806 C 0.22622 0.70516 0.98752 0.0
C2807 C 0.26918 0.71612 0.00866 0.0
C2808 C 0.17142 0.68709 0.99303 0.0
C2809 C 0.18486 0.69085 0.99173 0.0
C2810 C 0.21095 0.71114 0.00997 0.0
C2811 C 0.24694 0.71491 0.99829 0.0
C2812 C 0.23244 0.71133 0.99869 0.0
C2813 C 0.19002 0.70219 0.99861 0.0
C2814 C 0.20464 0.70537 0.9986 0.0
H2815 H 0.27046 0.7237 0.9755 0.0
H2816 H 0.24649 0.72042 0.9773 0.0
H2817 H 0.22904 0.71892 0.01876 0.0
H2818 H 0.16139 0.71212 0.0139 0.0
H2819 H 0.18454 0.71917 0.01105 0.0
C2820 C 0.7006 0.29474 0.38407 0.0
C2821 C 0.70154 0.2833 0.37585 0.0
C2822 C 0.71042 0.2977 0.39371 0.0
C2823 C 0.7456 0.28919 0.40332 0.0
H2824 H 0.73686 0.30944 0.4353 0.0
C2825 C 0.78541 0.30074 0.44391 0.0
C2826 C 0.78657 0.31433 0.44736 0.0
C2827 C 0.77416 0.29601 0.43682 0.0
C2828 C 0.73945 0.30378 0.42642 0.0
H2829 H 0.71343 0.26574 0.37171 0.0
H2830 H 0.73026 0.27052 0.38894 0.0
H2831 H 0.71909 0.30268 0.41978 0.0
H2832 H 0.77664 0.33348 0.44691 0.0
H2833 H 0.75678 0.32517 0.43488 0.0
H2834 H 0.76596 0.29015 0.41017 0.0
C2835 C 0.72213 0.2775 0.38766 0.0
C2836 C 0.72927 0.29996 0.41741 0.0
C2837 C 0.71235 0.27462 0.37788 0.0
C2838 C 0.7759 0.32293 0.44444 0.0
C2839 C 0.76456 0.31816 0.43754 0.0
C2840 C 0.75573 0.29281 0.41243 0.0
C2841 C 0.72141 0.28919 0.39563 0.0
C2842 C 0.73219 0.29271 0.40563 0.0
C2843 C 0.76379 0.30476 0.43321 0.0
C2844 C 0.7528 0.30022 0.42404 0.0
H2845 H 0.69228 0.30154 0.383 0.0
H2846 H 0.70947 0.30689 0.39942 0.0
H2847 H 0.74841 0.28393 0.39427 0.0
H2848 H 0.79359 0.29396 0.44591 0.0
H2849 H 0.77377 0.28559 0.43375 0.0
C2850 C 0.51596 0.75689 0.97716 0.0
C2851 C 0.52532 0.74899 0.98408 0.0
C2852 C 0.50219 0.7547 0.97858 0.0
C2853 C 0.47717 0.72964 0.98956 0.0
H2854 H 0.4546 0.76043 0.99583 0.0
C2855 C 0.42346 0.7226 0.00787 0.0
C2856 C 0.41343 0.7303 1.0019 0.0
C2857 C 0.43695 0.72566 1.00588 0.0
C2858 C 0.46073 0.75173 0.99396 0.0
H2859 H 0.52732 0.7321 0.99745 0.0
H2860 H 0.50342 0.72808 0.99964 0.0
H2861 H 0.47838 0.76369 0.99105 0.0
H2862 H 0.40945 0.74767 0.98977 0.0
H2863 H 0.4332 0.75307 0.98611 0.0
H2864 H 0.45965 0.71766 0.99238 0.0
C2865 C 0.50674 0.73606 0.99316 0.0
C2866 C 0.47436 0.7536 0.99119 0.0
C2867 C 0.5205 0.73833 0.99184 0.0
C2868 C 0.41708 0.74151 0.99433 0.0
C2869 C 0.43065 0.74462 0.99234 0.0
C2870 C 0.46359 0.72778 0.99228 0.0
C2871 C 0.4974 0.7444 0.98681 0.0
C2872 C 0.48277 0.74255 0.98908 0.0
C2873 C 0.44076 0.73651 0.99782 0.0
C2874 C 0.45519 0.73877 0.99466 0.0
H2875 H 0.51924 0.76499 0.9708 0.0
H2876 H 0.49528 0.76112 0.9733 0.0
H2877 H 0.48328 0.72092 0.98774 0.0
H2878 H 0.42083 0.71401 0.01389 0.0
H2879 H 0.44442 0.71941 0.01056 0.0
C2880 C 0.59572 0.51455 0.25391 0.0
C2881 C 0.6047 0.50991 0.26375 0.0
C2882 C 0.58791 0.52592 0.25612 0.0
C2883 C 0.58455 0.55575 0.27896 0.0
H2884 H 0.54938 0.55783 0.26241 0.0
C2885 C 0.54661 0.59614 0.29445 0.0
C2886 C 0.54012 0.60308 0.28414 0.0
C2887 C 0.55401 0.58463 0.29165 0.0
C2888 C 0.55921 0.55745 0.26703 0.0
H2889 H 0.61229 0.51379 0.28381 0.0
H2890 H 0.5983 0.53326 0.28791 0.0
H2891 H 0.56319 0.53823 0.25849 0.0
H2892 H 0.53594 0.60326 0.26286 0.0
H2893 H 0.54851 0.58275 0.25796 0.0
H2894 H 0.58032 0.57486 0.28778 0.0
C2895 C 0.59753 0.5283 0.27827 0.0
C2896 C 0.56723 0.5462 0.26474 0.0
C2897 C 0.60546 0.51695 0.27599 0.0
C2898 C 0.54075 0.598 0.271 0.0
C2899 C 0.54797 0.58629 0.26822 0.0
C2900 C 0.57646 0.5669 0.28139 0.0
C2901 C 0.58861 0.533 0.26835 0.0
C2902 C 0.58004 0.54512 0.27071 0.0
C2903 C 0.55498 0.57966 0.27848 0.0
C2904 C 0.56365 0.56787 0.27553 0.0
H2905 H 0.59459 0.50932 0.24443 0.0
H2906 H 0.58141 0.5292 0.24809 0.0
H2907 H 0.59442 0.55559 0.28349 0.0
H2908 H 0.54642 0.59996 0.30462 0.0
H2909 H 0.55913 0.5797 0.29981 0.0
C2910 C 0.9967 0.26563 0.72971 0.0
C2911 C 0.99852 0.27475 0.71926 0.0
C2912 C 0.99845 0.25191 0.72748 0.0
C2913 C 0.00988 0.22681 0.70173 0.0
H2914 H 0.98329 0.20435 0.71877 0.0
C2915 C 0.99921 0.17319 0.68298 0.0
C2916 C 0.99928 0.16341 0.69296 0.0
C2917 C 0.99853 0.18676 0.68647 0.0
C2918 C 0.99081 0.21048 0.71396 0.0
H2919 H 1.00481 0.27691 0.69871 0.0
H2920 H 0.00755 0.25314 0.69465 0.0
H2921 H 0.98517 0.22782 0.72508 0.0
H2922 H 0.99787 0.15987 0.71423 0.0
H2923 H 0.99636 0.18354 0.72037 0.0
H2924 H 0.01516 0.20945 0.69031 0.0
C2925 C 1.00483 0.25636 0.70462 0.0
C2926 C 0.99201 0.22396 0.71768 0.0
C2927 C 1.00316 0.27005 0.70688 0.0
C2928 C 0.99774 0.16729 0.70638 0.0
C2929 C 0.9969 0.18082 0.70987 0.0
C2930 C 0.00852 0.21339 0.69788 0.0
C2931 C 1.00197 0.24703 0.71471 0.0
C2932 C 1.00151 0.23237 0.71156 0.0
C2933 C 0.9978 0.19073 0.7 0.0
C2934 C 0.99892 0.20508 0.70389 0.0
H2935 H 0.99314 0.26901 0.73937 0.0
H2936 H 0.99655 0.24513 0.73565 0.0
H2937 H 0.01753 0.23279 0.69697 0.0
H2938 H 1.00052 0.1704 0.67257 0.0
H2939 H 0.99903 0.19416 0.67863 0.0
C2940 C 0.37211 0.71134 0.29194 0.0
C2941 C 0.37565 0.70177 0.28231 0.0
C2942 C 0.38152 0.72082 0.29654 0.0
C2943 C 0.41642 0.73411 0.28887 0.0
H2944 H 0.41018 0.75386 0.32162 0.0
C2945 C 0.44706 0.78171 0.30299 0.0
C2946 C 0.44727 0.78608 0.31635 0.0
C2947 C 0.44 0.77005 0.29931 0.0
C2948 C 0.41239 0.74826 0.3126 0.0
H2949 H 0.39193 0.69407 0.27046 0.0
H2950 H 0.40853 0.70963 0.27911 0.0
H2951 H 0.395 0.73621 0.31518 0.0
H2952 H 0.44136 0.78126 0.33652 0.0
H2953 H 0.42994 0.76051 0.33041 0.0
H2954 H 0.43446 0.7455 0.28696 0.0
C2955 C 0.39841 0.71063 0.28267 0.0
C2956 C 0.40333 0.73823 0.30864 0.0
C2957 C 0.38889 0.70148 0.27778 0.0
C2958 C 0.44131 0.77806 0.32613 0.0
C2959 C 0.43452 0.76628 0.32253 0.0
C2960 C 0.42576 0.7438 0.29311 0.0
C2961 C 0.39489 0.72071 0.29194 0.0
C2962 C 0.40501 0.73107 0.29656 0.0
C2963 C 0.43315 0.76242 0.30898 0.0
C2964 C 0.42381 0.75122 0.30494 0.0
H2965 H 0.36192 0.7118 0.29555 0.0
H2966 H 0.37807 0.7284 0.30343 0.0
H2967 H 0.41819 0.72925 0.27936 0.0
H2968 H 0.4515 0.78782 0.29526 0.0
H2969 H 0.43926 0.76758 0.28877 0.0
C2970 C 0.99451 0.52046 0.73995 0.0
C2971 C 0.98495 0.52538 0.74894 0.0
C2972 C 0.99594 0.5067 0.73783 0.0
C2973 C 0.9885 0.47383 0.75364 0.0
H2974 H 0.99944 0.46017 0.71904 0.0
C2975 C 0.99154 0.41704 0.73928 0.0
C2976 C 1.00246 0.41324 0.73136 0.0
C2977 C 0.98951 0.43055 0.74255 0.0
C2978 C 0.99653 0.46383 0.72882 0.0
H2979 H 0.96884 0.51956 0.76216 0.0
H2980 H 0.97121 0.49557 0.75833 0.0
H2981 H 0.99477 0.48384 0.72173 0.0
H2982 H 0.02003 0.42047 0.72104 0.0
H2983 H 0.01641 0.44398 0.72654 0.0
H2984 H 0.99005 0.4536 0.76058 0.0
C2985 C 0.97788 0.50235 0.75318 0.0
C2986 C 0.99385 0.47745 0.73038 0.0
C2987 C 0.97647 0.51614 0.75533 0.0
C2988 C 0.01153 0.42312 0.72716 0.0
C2989 C 0.0094 0.43659 0.73023 0.0
C2990 C 0.99107 0.46013 0.75204 0.0
C2991 C 0.9878 0.49742 0.74458 0.0
C2992 C 0.98994 0.4827 0.74284 0.0
C2993 C 0.99821 0.44052 0.73771 0.0
C2994 C 0.99526 0.455 0.73962 0.0
H2995 H 1.00137 0.5272 0.73499 0.0
H2996 H 1.00383 0.50335 0.73126 0.0
H2997 H 0.9857 0.47748 0.76345 0.0
H2998 H 0.98449 0.40957 0.74275 0.0
H2999 H 0.98082 0.43324 0.74837 0.0
C3000 C 0.73616 0.41926 0.50176 0.0
C3001 C 0.7476 0.41134 0.50365 0.0
C3002 C 0.73429 0.42647 0.48987 0.0
C3003 C 0.75368 0.44022 0.46117 0.0
H3004 H 0.7185 0.44668 0.44609 0.0
C3005 C 0.7457 0.46563 0.40957 0.0
C3006 C 0.73416 0.47339 0.40751 0.0
C3007 C 0.74772 0.45874 0.42158 0.0
C3008 C 0.72841 0.44518 0.45026 0.0
H3009 H 0.76548 0.40404 0.49391 0.0
H3010 H 0.76219 0.41644 0.47331 0.0
H3011 H 0.72075 0.4326 0.46573 0.0
H3012 H 0.71613 0.48059 0.417 0.0
H3013 H 0.71986 0.469 0.43807 0.0
H3014 H 0.76134 0.45277 0.44568 0.0
C3015 C 0.75485 0.41748 0.48116 0.0
C3016 C 0.7297 0.43703 0.46156 0.0
C3017 C 0.75673 0.41031 0.49302 0.0
C3018 C 0.72515 0.47475 0.41817 0.0
C3019 C 0.72718 0.46789 0.43021 0.0
C3020 C 0.75239 0.44837 0.44987 0.0
C3021 C 0.74377 0.42592 0.4795 0.0
C3022 C 0.74235 0.43442 0.46722 0.0
C3023 C 0.73829 0.45946 0.43196 0.0
C3024 C 0.73972 0.45101 0.44424 0.0
H3025 H 0.72892 0.42037 0.50969 0.0
H3026 H 0.72564 0.43288 0.48905 0.0
H3027 H 0.76359 0.43869 0.46532 0.0
H3028 H 0.75301 0.46451 0.4017 0.0
H3029 H 0.7564 0.45239 0.42245 0.0
C3030 C 0.71996 0.62325 0.31658 0.0
C3031 C 0.72862 0.63396 0.31366 0.0
C3032 C 0.71575 0.61434 0.30644 0.0
C3033 C 0.72543 0.60275 0.27232 0.0
H3034 H 0.68991 0.58695 0.27155 0.0
C3035 C 0.70493 0.5754 0.22553 0.0
C3036 C 0.69472 0.56578 0.22663 0.0
C3037 C 0.70989 0.58214 0.23683 0.0
C3038 C 0.69998 0.59102 0.2717 0.0
H3039 H 0.73898 0.64422 0.29773 0.0
H3040 H 0.73135 0.62902 0.28004 0.0
H3041 H 0.69616 0.60233 0.28955 0.0
H3042 H 0.68219 0.55502 0.24051 0.0
H3043 H 0.69123 0.56642 0.26051 0.0
H3044 H 0.72937 0.59144 0.25461 0.0
C3045 C 0.72817 0.62713 0.29019 0.0
C3046 C 0.70354 0.59995 0.28205 0.0
C3047 C 0.73247 0.63593 0.30032 0.0
C3048 C 0.69014 0.56236 0.23941 0.0
C3049 C 0.69518 0.56907 0.25082 0.0
C3050 C 0.72192 0.59376 0.26206 0.0
C3051 C 0.72 0.61601 0.29313 0.0
C3052 C 0.71625 0.60611 0.2824 0.0
C3053 C 0.70485 0.57939 0.24965 0.0
C3054 C 0.70905 0.5879 0.26142 0.0
H3055 H 0.71691 0.62144 0.32679 0.0
H3056 H 0.70954 0.60587 0.30914 0.0
H3057 H 0.73544 0.60699 0.27239 0.0
H3058 H 0.7086 0.57823 0.21576 0.0
H3059 H 0.71716 0.59005 0.23531 0.0
C3060 C 0.25674 0.03176 0.49732 0.0
C3061 C 0.2639 0.02402 0.48807 0.0
C3062 C 0.25924 0.03075 0.51107 0.0
C3063 C 0.28041 0.01064 0.53613 0.0
H3064 H 0.25605 0.02728 0.56094 0.0
C3065 C 0.2866 1.00059 0.59227 0.0
C3066 C 0.28445 0.0115 0.60091 0.0
C3067 C 0.28201 1.00094 0.57897 0.0
C3068 C 0.26313 0.02263 0.55426 0.0
H3069 H 0.28023 0.01004 0.48611 0.0
H3070 H 0.28495 0.00854 0.50939 0.0
H3071 H 0.25396 0.03193 0.53775 0.0
H3072 H 0.27419 0.03043 0.60291 0.0
H3073 H 0.26715 0.03156 0.57984 0.0
H3074 H 0.28981 1.00176 0.553 0.0
C3075 C 0.27695 0.01513 0.50661 0.0
C3076 C 0.26191 0.02529 0.54057 0.0
C3077 C 0.27439 0.01612 0.49288 0.0
C3078 C 0.27645 0.02206 0.59636 0.0
C3079 C 0.2722 0.0226 0.58304 0.0
C3080 C 0.28171 0.00814 0.54982 0.0
C3081 C 0.26902 0.02192 0.51615 0.0
C3082 C 0.27057 0.0194 0.53108 0.0
C3083 C 0.27545 0.01234 0.57392 0.0
C3084 C 0.27316 0.01413 0.55917 0.0
H3085 H 0.24889 0.03839 0.49397 0.0
H3086 H 0.25312 0.03685 0.51746 0.0
H3087 H 0.28746 1.00561 0.52979 0.0
H3088 H 0.29255 0.99218 0.59547 0.0
H3089 H 0.28416 0.99248 0.57254 0.0
C3090 C 0.28405 0.02355 0.7465 0.0
C3091 C 0.29321 0.01827 0.73733 0.0
C3092 C 0.2858 0.02147 0.76023 0.0
C3093 C 0.30465 1.00218 0.78572 0.0
H3094 H 0.30252 0.03518 0.80627 0.0
C3095 C 0.32417 1.00471 0.8398 0.0
C3096 C 0.31621 0.01142 0.84916 0.0
C3097 C 0.32179 0.00612 0.82611 0.0
C3098 C 0.30302 0.02584 0.80074 0.0
H3099 H 0.31051 1.00553 0.73514 0.0
H3100 H 0.31357 1.00187 0.75907 0.0
H3101 H 0.29608 0.03496 0.7827 0.0
H3102 H 0.29996 0.02534 0.85169 0.0
H3103 H 0.29553 0.02767 0.82768 0.0
H3104 H 0.31153 0.99302 0.80373 0.0
C3105 C 0.3051 0.00769 0.75574 0.0
C3106 C 0.29928 0.0257 0.78723 0.0
C3107 C 0.30337 0.0098 0.74203 0.0
C3108 C 0.30627 0.02015 0.84462 0.0
C3109 C 0.30377 0.02145 0.83087 0.0
C3110 C 0.30832 1.0023 0.79925 0.0
C3111 C 0.2967 0.01402 0.76502 0.0
C3112 C 0.30004 0.01387 0.77956 0.0
C3113 C 0.31124 0.01412 0.82145 0.0
C3114 C 0.30759 0.01414 0.80695 0.0
H3115 H 0.27615 0.03013 0.74316 0.0
H3116 H 0.27897 0.02621 0.76713 0.0
H3117 H 0.30529 0.99289 0.78012 0.0
H3118 H 0.33195 0.99798 0.84313 0.0
H3119 H 0.32801 1.00063 0.81918 0.0
C3120 C 0.50121 0.73488 0.41897 0.0
C3121 C 0.50333 0.74637 0.41121 0.0
C3122 C 0.48931 0.73314 0.42622 0.0
C3123 C 0.45547 0.74987 0.43288 0.0
H3124 H 0.45546 0.72478 0.46201 0.0
C3125 C 0.40786 0.74507 0.46544 0.0
C3126 C 0.40611 0.73399 0.47383 0.0
C3127 C 0.42002 0.74735 0.45891 0.0
C3128 C 0.45492 0.73188 0.45397 0.0
H3129 H 0.49383 0.76451 0.40427 0.0
H3130 H 0.47414 0.76227 0.41746 0.0
H3131 H 0.47461 0.72652 0.44831 0.0
H3132 H 0.41633 0.71719 0.48269 0.0
H3133 H 0.43716 0.72087 0.47158 0.0
H3134 H 0.43598 0.75545 0.43854 0.0
C3135 C 0.48125 0.75423 0.41801 0.0
C3136 C 0.46625 0.73282 0.4458 0.0
C3137 C 0.49291 0.75573 0.41048 0.0
C3138 C 0.41721 0.72581 0.47626 0.0
C3139 C 0.42936 0.72798 0.46962 0.0
C3140 C 0.44421 0.74902 0.44111 0.0
C3141 C 0.47919 0.743 0.42627 0.0
C3142 C 0.46683 0.74181 0.43499 0.0
C3143 C 0.43096 0.73852 0.46034 0.0
C3144 C 0.44353 0.73994 0.45187 0.0
H3145 H 0.50889 0.72735 0.4198 0.0
H3146 H 0.48828 0.72402 0.43185 0.0
H3147 H 0.4549 0.7568 0.42467 0.0
H3148 H 0.39968 0.75188 0.46363 0.0
H3149 H 0.42046 0.75604 0.45261 0.0
C3150 C 0.74289 0.3022 0.00862 0.0
C3151 C 0.7381 0.29266 0.01772 0.0
C3152 C 0.75664 0.30405 0.00684 0.0
C3153 C 0.78772 0.30022 0.02615 0.0
H3154 H 0.80497 0.30962 0.99291 0.0
C3155 C 0.84524 0.30668 0.0211 0.0
C3156 C 0.84989 0.31593 0.01171 0.0
C3157 C 0.83147 0.3043 0.0224 0.0
C3158 C 0.80028 0.30722 1.00233 0.0
H3159 H 0.74387 0.27675 0.03112 0.0
H3160 H 0.7679 0.27974 0.02777 0.0
H3161 H 0.7814 0.30326 0.99272 0.0
H3162 H 0.84403 0.33067 0.99709 0.0
H3163 H 0.82006 0.32693 0.99966 0.0
H3164 H 0.80653 0.30434 0.0358 0.0
C3165 C 0.76103 0.28602 0.02227 0.0
C3166 C 0.78677 0.30348 1.00219 0.0
C3167 C 0.74727 0.28416 0.02403 0.0
C3168 C 0.84062 0.3234 1.00432 0.0
C3169 C 0.82692 0.32114 1.0057 0.0
C3170 C 0.80122 0.30401 0.02631 0.0
C3171 C 0.76586 0.29637 0.01412 0.0
C3172 C 0.78034 0.29988 0.01409 0.0
C3173 C 0.82216 0.31121 0.01438 0.0
C3174 C 0.80768 0.30754 0.01439 0.0
H3175 H 0.73602 0.30882 1.00353 0.0
H3176 H 0.76001 0.31208 1.00045 0.0
H3177 H 0.78298 0.29781 0.03555 0.0
H3178 H 0.85224 0.30076 0.02684 0.0
H3179 H 0.82817 0.29655 0.02916 0.0
C3180 C 0.31091 0.73713 0.62075 0.0
C3181 C 0.31397 0.73057 0.63279 0.0
C3182 C 0.30048 0.7326 0.61245 0.0
C3183 C 0.27009 0.71067 0.61239 0.0
H3184 H 0.27308 0.71364 0.57381 0.0
C3185 C 0.23331 0.68333 0.57755 0.0
C3186 C 0.22728 0.69081 0.56734 0.0
C3187 C 0.24448 0.68828 0.58449 0.0
C3188 C 0.27206 0.71284 0.58456 0.0
H3189 H 0.30851 0.71385 0.64537 0.0
H3190 H 0.29069 0.70556 0.63061 0.0
H3191 H 0.29125 0.72184 0.58823 0.0
H3192 H 0.22875 0.70895 0.55573 0.0
H3193 H 0.24856 0.71766 0.56786 0.0
H3194 H 0.25104 0.7014 0.60867 0.0
C3195 C 0.29612 0.71449 0.62775 0.0
C3196 C 0.28246 0.71759 0.59287 0.0
C3197 C 0.30651 0.71911 0.63614 0.0
C3198 C 0.23326 0.70296 0.56352 0.0
C3199 C 0.24453 0.70795 0.57051 0.0
C3200 C 0.2598 0.70581 0.60409 0.0
C3201 C 0.29289 0.72123 0.61581 0.0
C3202 C 0.28168 0.71645 0.60692 0.0
C3203 C 0.24994 0.70086 0.5814 0.0
C3204 C 0.26072 0.70668 0.59007 0.0
H3205 H 0.31657 0.74585 0.61769 0.0
H3206 H 0.29825 0.73819 0.60347 0.0
H3207 H 0.26889 0.70995 0.62312 0.0
H3208 H 0.22899 0.67387 0.58059 0.0
H3209 H 0.24862 0.68242 0.59258 0.0
C3210 C 0.49446 0.26755 0.03308 0.0
C3211 C 0.48785 0.26062 0.02272 0.0
C3212 C 0.50836 0.26956 0.03261 0.0
C3213 C 0.53895 0.25968 0.01227 0.0
H3214 H 0.55484 0.28932 0.03205 0.0
C3215 C 0.59214 0.28119 1.00185 0.0
C3216 C 0.59999 0.28463 0.01312 0.0
C3217 C 0.57876 0.27714 1.00337 0.0
C3218 C 0.55057 0.28095 0.02651 0.0
H3219 H 0.49023 0.25032 1.00384 0.0
H3220 H 0.51401 0.25452 1.00236 0.0
H3221 H 0.5312 0.28479 0.03415 0.0
H3222 H 0.59999 0.28656 0.03475 0.0
H3223 H 0.57679 0.27953 0.03737 0.0
H3224 H 0.55847 0.2565 1.0041 0.0
C3225 C 0.50898 0.25803 0.01123 0.0
C3226 C 0.5369 0.27821 0.02779 0.0
C3227 C 0.49521 0.25577 0.0119 0.0
C3228 C 0.59426 0.28379 0.02589 0.0
C3229 C 0.58091 0.27991 0.02739 0.0
C3230 C 0.55256 0.26268 0.01072 0.0
C3231 C 0.51591 0.26494 0.02158 0.0
C3232 C 0.53075 0.26755 0.02065 0.0
C3233 C 0.57295 0.27668 0.01615 0.0
C3234 C 0.55852 0.27335 0.01782 0.0
H3235 H 0.48891 0.27128 0.04158 0.0
H3236 H 0.51307 0.27461 0.04103 0.0
H3237 H 0.53503 0.25107 0.00689 0.0
H3238 H 0.5963 0.28175 0.99189 0.0
H3239 H 0.57286 0.27478 0.99451 0.0
C3240 C 0.41042 0.49275 0.75607 0.0
C3241 C 0.41104 0.50316 0.74665 0.0
C3242 C 0.41796 0.48109 0.75455 0.0
C3243 C 0.44702 0.46714 0.73505 0.0
H3244 H 0.43602 0.43433 0.75222 0.0
C3245 C 0.47541 0.41733 0.72578 0.0
C3246 C 0.47386 0.40659 0.73464 0.0
C3247 C 0.46859 0.42939 0.72782 0.0
C3248 C 0.43953 0.4434 0.74753 0.0
H3249 H 0.41958 0.50868 0.72756 0.0
H3250 H 0.43195 0.48803 0.72441 0.0
H3251 H 0.42202 0.45374 0.75374 0.0
H3252 H 0.46485 0.40067 0.75336 0.0
H3253 H 0.45362 0.42175 0.75736 0.0
H3254 H 0.46456 0.45681 0.72887 0.0
C3255 C 0.42617 0.48918 0.73345 0.0
C3256 C 0.43133 0.45471 0.74838 0.0
C3257 C 0.41881 0.50103 0.73513 0.0
C3258 C 0.46607 0.40862 0.74615 0.0
C3259 C 0.45945 0.42076 0.74834 0.0
C3260 C 0.45525 0.45583 0.73423 0.0
C3261 C 0.42618 0.47911 0.74331 0.0
C3262 C 0.43487 0.46683 0.74214 0.0
C3263 C 0.46015 0.43125 0.73896 0.0
C3264 C 0.45166 0.44367 0.7404 0.0
H3265 H 0.40425 0.49366 0.76488 0.0
H3266 H 0.41758 0.47384 0.76252 0.0
H3267 H 0.45043 0.47622 0.73031 0.0
H3268 H 0.48126 0.41615 0.71677 0.0
H3269 H 0.4695 0.43695 0.72021 0.0
C3270 C 0.03283 0.74573 0.29687 0.0
C3271 C 0.02197 0.73712 0.29442 0.0
C3272 C 0.03084 0.75931 0.29905 0.0
C3273 C 1.00506 0.78643 0.29735 0.0
H3274 H 0.03252 0.80487 0.31816 0.0
C3275 C 1.00516 0.84378 0.30119 0.0
C3276 C 0.01038 0.85005 0.31272 0.0
C3277 C 0.00672 0.83006 0.29915 0.0
C3278 C 0.02457 0.79997 0.31253 0.0
H3279 H 1.00048 0.73578 0.29209 0.0
H3280 H 0.99676 0.75964 0.29625 0.0
H3281 H 0.03364 0.78104 0.31531 0.0
H3282 H 0.02162 0.8471 0.33102 0.0
H3283 H 0.02389 0.82304 0.32791 0.0
H3284 H 0.99524 0.80521 0.29581 0.0
C3285 C 0.00694 0.75603 0.29623 0.0
C3286 C 0.0254 0.78617 0.31055 0.0
C3287 C 0.00901 0.74234 0.29382 0.0
C3288 C 0.01763 0.84247 0.32198 0.0
C3289 C 0.01891 0.82864 0.32013 0.0
C3290 C 1.00394 0.80018 0.29978 0.0
C3291 C 0.01785 0.7647 0.2992 0.0
C3292 C 0.01596 0.77922 0.30249 0.0
C3293 C 0.01323 0.82215 0.30879 0.0
C3294 C 0.01391 0.80727 0.30705 0.0
H3295 H 0.0429 0.74183 0.29751 0.0
H3296 H 0.03962 0.76551 0.30072 0.0
H3297 H 0.99749 0.78161 0.29115 0.0
H3298 H 0.99956 0.84948 0.29389 0.0
H3299 H 1.00263 0.82569 0.29004 0.0
C3300 C 0.63727 0.30502 0.71931 0.0
C3301 C 0.63362 0.3131 0.73021 0.0
C3302 C 0.62886 0.29455 0.71491 0.0
C3303 C 0.59781 0.27517 0.725 0.0
H3304 H 0.59963 0.26292 0.68825 0.0
C3305 C 0.56739 0.22896 0.70622 0.0
C3306 C 0.56505 0.2273 0.69246 0.0
C3307 C 0.57472 0.24002 0.71105 0.0
C3308 C 0.59864 0.26637 0.69848 0.0
H3309 H 0.61813 0.31689 0.74474 0.0
H3310 H 0.60317 0.29945 0.73668 0.0
H3311 H 0.61419 0.28077 0.69576 0.0
H3312 H 0.56766 0.23616 0.673 0.0
H3313 H 0.57941 0.25598 0.68135 0.0
H3314 H 0.5815 0.26155 0.72742 0.0
C3315 C 0.61274 0.30052 0.73182 0.0
C3316 C 0.60738 0.2765 0.70295 0.0
C3317 C 0.62128 0.31072 0.7364 0.0
C3318 C 0.56927 0.23732 0.68369 0.0
C3319 C 0.57631 0.24854 0.68851 0.0
C3320 C 0.58875 0.26538 0.7204 0.0
C3321 C 0.6164 0.29212 0.72107 0.0
C3322 C 0.60716 0.28109 0.7163 0.0
C3323 C 0.57971 0.2498 0.70221 0.0
C3324 C 0.58902 0.26074 0.70706 0.0
H3325 H 0.6468 0.30657 0.71443 0.0
H3326 H 0.63233 0.28826 0.70681 0.0
H3327 H 0.59742 0.27798 0.73546 0.0
H3328 H 0.5644 0.22122 0.71314 0.0
H3329 H 0.57709 0.24037 0.72162 0.0
C3330 C 0.01046 0.49385 0.26592 0.0
C3331 C 0.02305 0.48828 0.2638 0.0
C3332 C 0.00899 0.50763 0.26742 0.0
C3333 C 0.0293 0.54053 0.26761 0.0
H3334 H 0.99406 0.55455 0.27461 0.0
C3335 C 0.02203 0.59719 0.27563 0.0
C3336 C 0.01267 0.60107 0.28531 0.0
C3337 C 0.02233 0.584 0.27086 0.0
C3338 C 1.00407 0.5509 0.27289 0.0
H3339 H 0.04414 0.49261 0.26186 0.0
H3340 H 0.04201 0.51641 0.26529 0.0
H3341 H 0.99675 0.53121 0.27221 0.0
H3342 H 0.99579 0.59442 0.29699 0.0
H3343 H 0.99655 0.57143 0.28923 0.0
H3344 H 0.03653 0.56061 0.26936 0.0
C3345 C 0.03291 0.51057 0.26539 0.0
C3346 C 1.00571 0.53714 0.27125 0.0
C3347 C 0.03429 0.49672 0.26354 0.0
C3348 C 1.00306 0.59173 0.28946 0.0
C3349 C 1.00353 0.57848 0.28493 0.0
C3350 C 0.02768 0.55431 0.26965 0.0
C3351 C 0.02015 0.51646 0.26716 0.0
C3352 C 0.0184 0.53149 0.26867 0.0
C3353 C 0.01345 0.57427 0.27587 0.0
C3354 C 0.01505 0.55972 0.27248 0.0
H3355 H 1.00159 0.48754 0.26591 0.0
H3356 H 0.99887 0.51101 0.26854 0.0
H3357 H 0.03929 0.53725 0.26539 0.0
H3358 H 0.02948 0.60426 0.27214 0.0
H3359 H 0.02982 0.5814 0.26354 0.0
C3360 C 0.34582 0.66349 0.41058 0.0
C3361 C 0.3359 0.65455 0.40552 0.0
C3362 C 0.35707 0.66719 0.40301 0.0
C3363 C 0.37187 0.66434 0.36796 0.0
H3364 H 0.40389 0.67633 0.38656 0.0
C3365 C 0.42216 0.66982 0.33913 0.0
C3366 C 0.43348 0.6761 0.34503 0.0
C3367 C 0.41001 0.66856 0.34601 0.0
C3368 C 0.39511 0.67324 0.38095 0.0
H3369 H 0.33102 0.64264 0.38771 0.0
H3370 H 0.35072 0.64805 0.3754 0.0
H3371 H 0.38416 0.67135 0.39908 0.0
H3372 H 0.43999 0.68711 0.36275 0.0
H3373 H 0.41878 0.6861 0.37411 0.0
H3374 H 0.38271 0.66627 0.34983 0.0
C3375 C 0.34956 0.65276 0.3851 0.0
C3376 C 0.38352 0.6703 0.38832 0.0
C3377 C 0.33811 0.64934 0.3925 0.0
C3378 C 0.43173 0.68207 0.35772 0.0
C3379 C 0.4194 0.68119 0.36447 0.0
C3380 C 0.38345 0.66732 0.36057 0.0
C3381 C 0.35928 0.66186 0.39011 0.0
C3382 C 0.37165 0.66559 0.38205 0.0
C3383 C 0.40835 0.67398 0.359 0.0
C3384 C 0.39548 0.67167 0.36688 0.0
H3385 H 0.34516 0.66783 0.42047 0.0
H3386 H 0.36394 0.67442 0.40741 0.0
H3387 H 0.36303 0.66119 0.36244 0.0
H3388 H 0.42263 0.66555 0.32916 0.0
H3389 H 0.40213 0.66291 0.34108 0.0
C3390 C 0.17752 0.32487 0.63913 0.0
C3391 C 0.18551 0.31344 0.63972 0.0
C3392 C 0.16388 0.32397 0.64185 0.0
C3393 C 0.14117 0.30419 0.66206 0.0
H3394 H 0.11387 0.3254 0.64467 0.0
C3395 C 0.08647 0.30539 0.68045 0.0
C3396 C 0.07964 0.31761 0.67954 0.0
C3397 C 0.09913 0.30392 0.67484 0.0
C3398 C 0.12141 0.31953 0.64973 0.0
H3399 H 0.18565 0.29203 0.64293 0.0
H3400 H 0.16174 0.29046 0.64788 0.0
H3401 H 0.13608 0.32399 0.63487 0.0
H3402 H 0.08112 0.33804 0.67245 0.0
H3403 H 0.10345 0.33569 0.66336 0.0
H3404 H 0.12674 0.30007 0.67715 0.0
C3405 C 0.166 0.3001 0.64535 0.0
C3406 C 0.13409 0.31865 0.64405 0.0
C3407 C 0.17962 0.30098 0.64248 0.0
C3408 C 0.08609 0.32851 0.67347 0.0
C3409 C 0.09881 0.32709 0.668 0.0
C3410 C 0.12852 0.30513 0.66778 0.0
C3411 C 0.15807 0.31165 0.64537 0.0
C3412 C 0.14416 0.31118 0.6503 0.0
C3413 C 0.10536 0.31469 0.66833 0.0
C3414 C 0.11856 0.31302 0.66183 0.0
H3415 H 0.18189 0.33453 0.63684 0.0
H3416 H 0.15804 0.33305 0.64186 0.0
H3417 H 0.14879 0.29849 0.6672 0.0
H3418 H 0.08191 0.29683 0.68524 0.0
H3419 H 0.10385 0.29422 0.67526 0.0
C3420 C 0.84066 1.00561 0.63921 0.0
C3421 C 0.83352 0.01058 0.62814 0.0
C3422 C 0.85405 0.00936 0.6415 0.0
C3423 C 0.87747 0.03706 0.63428 0.0
H3424 H 0.90474 0.01311 0.64761 0.0
C3425 C 0.93151 0.05612 0.64159 0.0
C3426 C 0.9394 0.05095 0.65198 0.0
C3427 C 0.9192 0.05025 0.63817 0.0
C3428 C 0.89725 0.02004 0.64408 0.0
H3429 H 0.83502 0.02302 0.61055 0.0
H3430 H 0.85834 0.02953 0.6145 0.0
H3431 H 0.88235 1.00449 0.64256 0.0
H3432 H 0.94071 0.03542 0.66686 0.0
H3433 H 0.91892 0.02537 0.66133 0.0
H3434 H 0.89196 0.05272 0.63624 0.0
C3435 C 0.85358 0.02281 0.62149 0.0
C3436 C 0.88437 0.01503 0.64111 0.0
C3437 C 0.84025 0.01895 0.61913 0.0
C3438 C 0.93486 0.03952 0.65871 0.0
C3439 C 0.92235 0.03376 0.65548 0.0
C3440 C 0.89023 0.0421 0.63742 0.0
C3441 C 0.86058 0.01829 0.63286 0.0
C3442 C 0.87435 0.02346 0.63604 0.0
C3443 C 0.91419 0.03918 0.64528 0.0
C3444 C 0.90042 0.03367 0.64223 0.0
H3445 H 0.83578 0.99907 0.64628 0.0
H3446 H 0.85909 1.00569 0.65037 0.0
H3447 H 0.86994 0.04394 0.63072 0.0
H3448 H 0.93482 0.06489 0.63619 0.0
H3449 H 0.91359 0.05452 0.62996 0.0
C3450 C 0.65201 0.9237 0.37306 0.0
C3451 C 0.65518 0.93632 0.36768 0.0
C3452 C 0.63914 0.91821 0.37173 0.0
C3453 C 0.60849 0.92154 0.35031 0.0
H3454 H 0.59445 0.89472 0.37428 0.0
C3455 C 0.55573 0.89813 0.3423 0.0
C3456 C 0.55333 0.88487 0.34634 0.0
C3457 C 0.568 0.90451 0.34509 0.0
C3458 C 0.59829 0.90201 0.36731 0.0
H3459 H 0.64656 0.95347 0.35767 0.0
H3460 H 0.62406 0.94428 0.35609 0.0
H3461 H 0.61516 0.90632 0.37999 0.0
H3462 H 0.5623 0.86796 0.35644 0.0
H3463 H 0.58376 0.8788 0.36075 0.0
H3464 H 0.59182 0.91701 0.33748 0.0
C3465 C 0.63173 0.93831 0.36082 0.0
C3466 C 0.61023 0.90877 0.37065 0.0
C3467 C 0.6447 0.94372 0.36192 0.0
C3468 C 0.56372 0.87812 0.35303 0.0
C3469 C 0.57604 0.88445 0.35571 0.0
C3470 C 0.59664 0.91469 0.34691 0.0
C3471 C 0.62886 0.92523 0.36519 0.0
C3472 C 0.61559 0.91862 0.36217 0.0
C3473 C 0.57834 0.89782 0.35194 0.0
C3474 C 0.59129 0.90484 0.35538 0.0
H3475 H 0.65953 0.91783 0.37814 0.0
H3476 H 0.63749 0.90819 0.37542 0.0
H3477 H 0.61232 0.92879 0.3433 0.0
H3478 H 0.54813 0.90362 0.33692 0.0
H3479 H 0.56923 0.91482 0.3421 0.0
C3480 C 0.39061 0.33598 0.64677 0.0
C3481 C 0.40125 0.33183 0.65508 0.0
C3482 C 0.38279 0.34714 0.65005 0.0
C3483 C 0.37702 0.37321 0.67755 0.0
H3484 H 0.35916 0.39111 0.64838 0.0
C3485 C 0.35277 0.42549 0.68591 0.0
C3486 C 0.34428 0.4312 0.67613 0.0
C3487 C 0.35878 0.413 0.68394 0.0
C3488 C 0.36375 0.38631 0.65687 0.0
H3489 H 0.41148 0.33666 0.67385 0.0
H3490 H 0.39902 0.35657 0.67872 0.0
H3491 H 0.37103 0.37101 0.64403 0.0
H3492 H 0.33483 0.42673 0.65685 0.0
H3493 H 0.34374 0.40483 0.65429 0.0
H3494 H 0.36978 0.38857 0.6904 0.0
C3495 C 0.39621 0.35092 0.66986 0.0
C3496 C 0.37075 0.37447 0.6543 0.0
C3497 C 0.40372 0.33945 0.66683 0.0
C3498 C 0.34127 0.42321 0.66477 0.0
C3499 C 0.34681 0.41044 0.66309 0.0
C3500 C 0.36996 0.38507 0.68015 0.0
C3501 C 0.38556 0.35506 0.66152 0.0
C3502 C 0.37765 0.36765 0.66453 0.0
C3503 C 0.35611 0.40519 0.67238 0.0
C3504 C 0.36322 0.392 0.66984 0.0
H3505 H 0.38831 0.3308 0.63749 0.0
H3506 H 0.37454 0.34944 0.64341 0.0
H3507 H 0.38181 0.36838 0.68594 0.0
H3508 H 0.35508 0.43056 0.69522 0.0
H3509 H 0.36575 0.40976 0.69154 0.0
C3510 C 0.37284 0.65116 0.924 0.0
C3511 C 0.36767 0.65416 0.93677 0.0
C3512 C 0.37157 0.63833 0.91842 0.0
C3513 C 0.3506 0.60747 0.92196 0.0
H3514 H 0.37402 0.5939 0.8944 0.0
C3515 C 0.34281 0.55481 0.89841 0.0
C3516 C 0.34623 0.55268 0.88492 0.0
C3517 C 0.34567 0.56703 0.90484 0.0
C3518 C 0.36723 0.59761 0.90193 0.0
H3519 H 0.35815 0.6452 0.95405 0.0
H3520 H 0.35682 0.6228 0.94473 0.0
H3521 H 0.37984 0.61454 0.90609 0.0
H3522 H 0.35533 0.56207 0.86767 0.0
H3523 H 0.35978 0.58344 0.87865 0.0
H3524 H 0.33788 0.59067 0.91763 0.0
C3525 C 0.36127 0.63059 0.93872 0.0
C3526 C 0.37062 0.6095 0.90873 0.0
C3527 C 0.36226 0.64352 0.94421 0.0
C3528 C 0.3524 0.56328 0.87801 0.0
C3529 C 0.35516 0.57554 0.88441 0.0
C3530 C 0.34718 0.59564 0.91512 0.0
C3531 C 0.36536 0.62791 0.92551 0.0
C3532 C 0.36233 0.61468 0.91884 0.0
C3533 C 0.35198 0.57757 0.89797 0.0
C3534 C 0.35546 0.59047 0.90502 0.0
H3535 H 0.3777 0.65875 0.91807 0.0
H3536 H 0.37505 0.63682 0.9083 0.0
H3537 H 0.34371 0.61119 0.92939 0.0
H3538 H 0.33785 0.54703 0.90404 0.0
H3539 H 0.34315 0.56807 0.91531 0.0
C3540 C 0.64306 0.17968 0.30139 0.0
C3541 C 0.63975 0.18538 0.31379 0.0
C3542 C 0.64598 0.16609 0.30043 0.0
C3543 C 0.64376 0.13389 0.31831 0.0
H3544 H 0.67773 0.12681 0.30123 0.0
C3545 C 0.67279 0.08579 0.32877 0.0
C3546 C 0.67938 0.07952 0.31807 0.0
C3547 C 0.66729 0.09849 0.32725 0.0
C3548 C 0.66812 0.12852 0.30585 0.0
H3549 H 0.63598 0.18148 0.33469 0.0
H3550 H 0.64104 0.15764 0.33309 0.0
H3551 H 0.66794 0.14893 0.29965 0.0
H3552 H 0.68589 0.082 0.29757 0.0
H3553 H 0.67597 0.10398 0.29479 0.0
H3554 H 0.64398 0.11353 0.32463 0.0
C3555 C 0.64144 0.16362 0.32411 0.0
C3556 C 0.6625 0.14121 0.30492 0.0
C3557 C 0.63868 0.17724 0.32508 0.0
C3558 C 0.68074 0.08647 0.30597 0.0
C3559 C 0.67514 0.09913 0.30441 0.0
C3560 C 0.64934 0.12117 0.31918 0.0
C3561 C 0.64548 0.158 0.31186 0.0
C3562 C 0.65041 0.14409 0.31138 0.0
C3563 C 0.66815 0.10519 0.31496 0.0
C3564 C 0.66174 0.11842 0.31322 0.0
H3565 H 0.64389 0.18585 0.29255 0.0
H3566 H 0.64894 0.16198 0.29085 0.0
H3567 H 0.63433 0.13581 0.32322 0.0
H3568 H 0.67139 0.0807 0.33819 0.0
H3569 H 0.66224 0.10299 0.33569 0.0
C3570 C 0.63488 0.83497 0.02536 0.0
C3571 C 0.62897 0.83183 0.01294 0.0
C3572 C 0.63716 0.84823 0.02924 0.0
C3573 C 0.6304 0.88419 0.01974 0.0
H3574 H 0.65899 0.88984 0.04557 0.0
C3575 C 0.64077 0.93659 0.0442 0.0
C3576 C 0.65331 0.9391 0.05018 0.0
C3577 C 0.63782 0.92403 0.0384 0.0
C3578 C 0.65117 0.8887 0.0381 0.0
H3579 H 0.62044 0.84021 0.99492 0.0
H3580 H 0.62515 0.8635 1.00125 0.0
H3581 H 0.65436 0.86775 0.03748 0.0
H3582 H 0.67294 0.93087 0.05385 0.0
H3583 H 0.66834 0.9096 0.04301 0.0
H3584 H 0.62811 0.90545 0.01952 0.0
C3585 C 0.62774 0.85574 0.00827 0.0
C3586 C 0.64817 0.87572 0.03369 0.0
C3587 C 0.6251 0.84235 1.00454 0.0
C3588 C 0.66311 0.92915 0.04949 0.0
C3589 C 0.66033 0.91679 0.04341 0.0
C3590 C 0.63373 0.89731 0.02381 0.0
C3591 C 0.63402 0.85892 0.02065 0.0
C3592 C 0.63754 0.87311 0.02466 0.0
C3593 C 0.64747 0.91375 0.03819 0.0
C3594 C 0.64411 0.89982 0.0332 0.0
H3595 H 0.63769 0.82708 0.03219 0.0
H3596 H 0.64138 0.84999 0.0391 0.0
H3597 H 0.62207 0.88281 0.01287 0.0
H3598 H 0.63301 0.94408 0.04461 0.0
H3599 H 0.62778 0.9223 0.03462 0.0
C3600 C 0.66777 0.40314 0.33961 0.0
C3601 C 0.65563 0.4012 0.33244 0.0
C3602 C 0.67081 0.39563 0.35111 0.0
C3603 C 0.65418 0.37356 0.37664 0.0
H3604 H 0.69059 0.36643 0.38786 0.0
C3605 C 0.66327 0.34205 0.42397 0.0
C3606 C 0.6751 0.34348 0.43163 0.0
C3607 C 0.66182 0.34815 0.41149 0.0
C3608 C 0.68032 0.3684 0.38507 0.0
H3609 H 0.63734 0.38927 0.33221 0.0
H3610 H 0.64299 0.37579 0.35131 0.0
H3611 H 0.68645 0.37852 0.36724 0.0
H3612 H 0.69486 0.35256 0.43166 0.0
H3613 H 0.6921 0.36392 0.41028 0.0
H3614 H 0.6479 0.36401 0.39444 0.0
C3615 C 0.65003 0.3835 0.34841 0.0
C3616 C 0.67792 0.3754 0.37308 0.0
C3617 C 0.64687 0.39116 0.33709 0.0
C3618 C 0.6855 0.35132 0.42623 0.0
C3619 C 0.68394 0.35772 0.41375 0.0
C3620 C 0.65655 0.36671 0.3886 0.0
C3621 C 0.66194 0.38573 0.35583 0.0
C3622 C 0.66477 0.37808 0.36859 0.0
C3623 C 0.67195 0.35643 0.40618 0.0
C3624 C 0.66965 0.36386 0.39312 0.0
H3625 H 0.67505 0.41047 0.33641 0.0
H3626 H 0.68005 0.39786 0.35642 0.0
H3627 H 0.64389 0.37564 0.37397 0.0
H3628 H 0.65486 0.33634 0.42771 0.0
H3629 H 0.65258 0.34627 0.40608 0.0
C3630 C 0.92129 0.36265 0.65293 0.0
C3631 C 0.93472 0.36671 0.65482 0.0
C3632 C 0.91567 0.36148 0.64018 0.0
C3633 C 0.91657 0.37159 0.60558 0.0
H3634 H 0.90158 0.33634 0.59847 0.0
C3635 C 0.89557 0.35671 0.55299 0.0
C3636 C 0.88541 0.3469 0.55197 0.0
C3637 C 0.90171 0.35976 0.56533 0.0
C3638 C 0.9054 0.34635 0.60023 0.0
H3639 H 0.95251 0.37333 0.64431 0.0
H3640 H 0.94256 0.37102 0.62182 0.0
H3641 H 0.91206 0.34121 0.61986 0.0
H3642 H 0.87396 0.33253 0.56352 0.0
H3643 H 0.88374 0.33851 0.58491 0.0
H3644 H 0.90942 0.37708 0.58615 0.0
C3645 C 0.93652 0.36875 0.63048 0.0
C3646 C 0.91157 0.34905 0.61254 0.0
C3647 C 0.94224 0.36991 0.64336 0.0
C3648 C 0.88154 0.34032 0.56376 0.0
C3649 C 0.88742 0.34359 0.57613 0.0
C3650 C 0.91012 0.36901 0.59327 0.0
C3651 C 0.92323 0.36426 0.62881 0.0
C3652 C 0.91725 0.36164 0.61537 0.0
C3653 C 0.89773 0.35327 0.57714 0.0
C3654 C 0.90445 0.3563 0.59036 0.0
H3655 H 0.91503 0.36007 0.66129 0.0
H3656 H 0.90535 0.35828 0.63916 0.0
H3657 H 0.92072 0.38146 0.60758 0.0
H3658 H 0.89875 0.36222 0.54427 0.0
H3659 H 0.9097 0.36712 0.56551 0.0
C3660 C 0.31141 0.6539 0.18535 0.0
C3661 C 0.31236 0.64031 0.18866 0.0
C3662 C 0.31117 0.6579 0.172 0.0
C3663 C 0.3052 0.64645 0.13723 0.0
H3664 H 0.32748 0.67711 0.12878 0.0
C3665 C 0.31407 0.66256 0.08246 0.0
C3666 C 0.3166 0.67609 0.07965 0.0
C3667 C 0.31305 0.65815 0.09566 0.0
C3668 C 0.32097 0.6687 0.1309 0.0
H3669 H 0.31341 0.62019 0.18055 0.0
H3670 H 0.31314 0.62722 0.15705 0.0
H3671 H 0.32642 0.66928 0.15164 0.0
H3672 H 0.3197 0.69571 0.08848 0.0
H3673 H 0.31726 0.68821 0.11157 0.0
H3674 H 0.29948 0.646 0.11657 0.0
C3675 C 0.31247 0.63476 0.16485 0.0
C3676 C 0.32044 0.66415 0.14407 0.0
C3677 C 0.31266 0.63074 0.17828 0.0
C3678 C 0.31788 0.68519 0.09036 0.0
C3679 C 0.31656 0.68083 0.10361 0.0
C3680 C 0.30558 0.65112 0.12404 0.0
C3681 C 0.31193 0.64843 0.16158 0.0
C3682 C 0.31254 0.65299 0.14742 0.0
C3683 C 0.31427 0.66718 0.10649 0.0
C3684 C 0.31351 0.66233 0.12064 0.0
H3685 H 0.31085 0.66149 0.19312 0.0
H3686 H 0.3104 0.66847 0.16985 0.0
H3687 H 0.29892 0.63789 0.13949 0.0
H3688 H 0.31318 0.65529 0.07439 0.0
H3689 H 0.31159 0.64755 0.0973 0.0
C3690 C 0.00701 0.63979 0.84009 0.0
C3691 C 0.01081 0.62801 0.83335 0.0
C3692 C 0.0107 0.64206 0.85349 0.0
C3693 C 0.03656 0.63208 0.87807 0.0
H3694 H 0.01395 0.65003 0.90377 0.0
C3695 C 0.05546 0.64049 0.93212 0.0
C3696 C 0.05107 0.65163 0.93942 0.0
C3697 C 0.04952 0.63703 0.91984 0.0
C3698 C 0.02055 0.6452 0.89673 0.0
H3699 H 0.02101 0.6091 0.83576 0.0
H3700 H 0.02722 0.61292 0.85915 0.0
H3701 H 1.00537 0.64509 0.8814 0.0
H3702 H 0.03696 0.6679 0.9397 0.0
H3703 H 0.02693 0.66237 0.91795 0.0
H3704 H 0.05194 0.63266 0.89293 0.0
C3705 C 0.02157 0.62054 0.85399 0.0
C3706 C 0.01554 0.64228 0.88385 0.0
C3707 C 0.01785 0.61827 0.8406 0.0
C3708 C 0.04042 0.65915 0.93431 0.0
C3709 C 0.03465 0.6559 0.92181 0.0
C3710 C 0.04163 0.63518 0.89083 0.0
C3711 C 0.01833 0.63261 0.86053 0.0
C3712 C 0.02346 0.63559 0.87437 0.0
C3713 C 0.03924 0.64486 0.91424 0.0
C3714 C 0.0337 0.6417 0.90048 0.0
H3715 H 1.00142 0.64743 0.8349 0.0
H3716 H 0.00803 0.65147 0.85815 0.0
H3717 H 0.04309 0.62721 0.87096 0.0
H3718 H 0.06367 0.63453 0.93588 0.0
H3719 H 0.05315 0.6282 0.91476 0.0
C3720 C 0.67861 0.35933 0.62769 0.0
C3721 C 0.67914 0.35918 0.61353 0.0
C3722 C 0.66688 0.35567 0.63459 0.0
C3723 C 0.6297 0.34849 0.6289 0.0
H3724 H 0.63184 0.33595 0.66541 0.0
C3725 C 0.5815 0.33189 0.65706 0.0
C3726 C 0.58062 0.33514 0.67079 0.0
C3727 C 0.59369 0.33323 0.65015 0.0
C3728 C 0.63094 0.33954 0.65525 0.0
H3729 H 0.66666 0.35489 0.59594 0.0
H3730 H 0.64729 0.34752 0.60772 0.0
H3731 H 0.6522 0.34153 0.6536 0.0
H3732 H 0.59256 0.34127 0.68807 0.0
H3733 H 0.61328 0.34424 0.67608 0.0
H3734 H 0.60843 0.34643 0.63057 0.0
C3735 C 0.65577 0.35099 0.61362 0.0
C3736 C 0.64278 0.34283 0.64839 0.0
C3737 C 0.66732 0.355 0.60673 0.0
C3738 C 0.59255 0.33905 0.67745 0.0
C3739 C 0.60465 0.34055 0.67054 0.0
C3740 C 0.61789 0.34512 0.63573 0.0
C3741 C 0.65518 0.35137 0.62772 0.0
C3742 C 0.64244 0.3475 0.63508 0.0
C3743 C 0.60543 0.33794 0.65668 0.0
C3744 C 0.61824 0.3407 0.64909 0.0
H3745 H 0.68722 0.36222 0.63366 0.0
H3746 H 0.66705 0.35642 0.6454 0.0
H3747 H 0.62867 0.35225 0.61883 0.0
H3748 H 0.57267 0.32879 0.65147 0.0
H3749 H 0.59381 0.33072 0.63959 0.0
C3750 C 0.82778 0.68941 0.36381 0.0
C3751 C 0.82401 0.69549 0.37593 0.0
C3752 C 0.84095 0.69029 0.35929 0.0
C3753 C 0.87237 0.70977 0.36209 0.0
H3754 H 0.88786 0.67722 0.34799 0.0
C3755 C 0.92856 0.7051 0.34666 0.0
C3756 C 0.93174 0.69581 0.3365 0.0
C3757 C 0.91536 0.70641 0.3512 0.0
C3758 C 0.88367 0.68651 0.35162 0.0
H3759 H 0.83134 0.70735 0.3928 0.0
H3760 H 0.85438 0.70898 0.38479 0.0
H3761 H 0.86532 0.67676 0.3567 0.0
H3762 H 0.92294 0.68122 0.32266 0.0
H3763 H 0.9002 0.6842 0.32981 0.0
H3764 H 0.89076 0.71957 0.35682 0.0
C3765 C 0.84703 0.70358 0.37877 0.0
C3766 C 0.87072 0.6862 0.35672 0.0
C3767 C 0.83382 0.70263 0.38336 0.0
C3768 C 0.92113 0.68858 0.33042 0.0
C3769 C 0.90797 0.69007 0.33476 0.0
C3770 C 0.88537 0.71013 0.35684 0.0
C3771 C 0.85076 0.69734 0.36672 0.0
C3772 C 0.86483 0.69782 0.3619 0.0
C3773 C 0.90494 0.69858 0.34558 0.0
C3774 C 0.89115 0.6985 0.35137 0.0
H3775 H 0.8205 0.68414 0.35761 0.0
H3776 H 0.84342 0.68557 0.34984 0.0
H3777 H 0.86809 0.71892 0.36598 0.0
H3778 H 0.93631 0.71115 0.3514 0.0
H3779 H 0.91346 0.71315 0.35949 0.0
C3780 C 0.17294 1.00059 0.37338 0.0
C3781 C 0.17897 0.99717 0.38567 0.0
C3782 C 0.15936 0.99791 0.3709 0.0
C3783 C 0.1322 0.97544 0.38241 0.0
H3784 H 0.1099 0.9972 0.35949 0.0
C3785 C 0.07793 0.9589 0.37098 0.0
C3786 C 0.07213 0.96216 0.35861 0.0
C3787 C 0.09013 0.96463 0.37506 0.0
C3788 C 0.11597 0.99083 0.36576 0.0
H3789 H 0.17498 0.98901 0.40532 0.0
H3790 H 0.15126 0.98487 0.4012 0.0
H3791 H 0.13242 1.00471 0.36523 0.0
H3792 H 0.07438 0.97417 0.34087 0.0
H3793 H 0.09598 0.98372 0.34753 0.0
H3794 H 0.11621 0.96128 0.38256 0.0
C3795 C 0.15716 0.98922 0.39328 0.0
C3796 C 0.12895 0.99523 0.36912 0.0
C3797 C 0.17078 0.99179 0.39573 0.0
C3798 C 0.07859 0.97158 0.35052 0.0
C3799 C 0.09102 0.97709 0.35443 0.0
C3800 C 0.11933 0.97096 0.37891 0.0
C3801 C 0.15134 0.99187 0.38069 0.0
C3802 C 0.13726 0.9876 0.37751 0.0
C3803 C 0.09714 0.97352 0.36669 0.0
C3804 C 0.11091 0.97857 0.37055 0.0
H3805 H 0.17879 1.00506 0.36549 0.0
H3806 H 0.15532 1.0001 0.36108 0.0
H3807 H 0.13835 0.96909 0.38863 0.0
H3808 H 0.07311 0.95171 0.37745 0.0
H3809 H 0.09405 0.96191 0.38477 0.0
C3810 C 0.36632 0.07207 0.64603 0.0
C3811 C 0.35565 0.0804 0.64226 0.0
C3812 C 0.37947 0.07706 0.64689 0.0
C3813 C 0.40077 0.10778 0.63988 0.0
H3814 H 0.4221 0.09375 0.66906 0.0
C3815 C 0.44798 0.13597 0.65934 0.0
C3816 C 0.45915 0.12843 0.66337 0.0
C3817 C 0.43559 0.12981 0.65661 0.0
C3818 C 0.41643 0.09772 0.66073 0.0
H3819 H 0.35078 0.10051 0.63595 0.0
H3820 H 0.37338 0.10906 0.63718 0.0
H3821 H 0.40118 0.0829 0.663 0.0
H3822 H 0.46567 0.10836 0.66813 0.0
H3823 H 0.44432 0.09757 0.66289 0.0
H3824 H 0.41614 0.1226 0.63766 0.0
C3825 C 0.37179 0.09864 0.63954 0.0
C3826 C 0.40433 0.09141 0.65715 0.0
C3827 C 0.35866 0.09368 0.63877 0.0
C3828 C 0.45743 0.11452 0.66482 0.0
C3829 C 0.44506 0.10833 0.66199 0.0
C3830 C 0.41294 0.11402 0.64339 0.0
C3831 C 0.3824 0.09057 0.64409 0.0
C3832 C 0.39611 0.09646 0.64684 0.0
C3833 C 0.43397 0.11585 0.65766 0.0
C3834 C 0.42093 0.10916 0.65395 0.0
H3835 H 0.36454 0.06168 0.64845 0.0
H3836 H 0.38729 0.07028 0.64994 0.0
H3837 H 0.39508 0.11187 0.63164 0.0
H3838 H 0.44883 0.14668 0.65798 0.0
H3839 H 0.42729 0.13604 0.65362 0.0
C3840 C 0.62543 0.67624 0.3597 0.0
C3841 C 0.61168 0.67605 0.36296 0.0
C3842 C 0.63213 0.66452 0.35571 0.0
C3843 C 0.6296 0.62704 0.35697 0.0
H3844 H 0.65737 0.62835 0.33016 0.0
C3845 C 0.65546 0.57822 0.33887 0.0
C3846 C 0.66921 0.57872 0.33605 0.0
C3847 C 0.64817 0.59001 0.34107 0.0
C3848 C 0.64976 0.62774 0.33779 0.0
H3849 H 0.59438 0.66276 0.36402 0.0
H3850 H 0.60605 0.64257 0.35754 0.0
H3851 H 0.64551 0.6487 0.33626 0.0
H3852 H 0.68597 0.59211 0.33285 0.0
H3853 H 0.67335 0.61266 0.33649 0.0
H3854 H 0.63395 0.60618 0.35872 0.0
C3855 C 0.61172 0.65183 0.35819 0.0
C3856 C 0.6429 0.63951 0.34131 0.0
C3857 C 0.60498 0.66356 0.36202 0.0
C3858 C 0.67537 0.59137 0.33497 0.0
C3859 C 0.66806 0.60319 0.33703 0.0
C3860 C 0.6365 0.61529 0.35351 0.0
C3861 C 0.62543 0.65206 0.35495 0.0
C3862 C 0.6327 0.6394 0.35099 0.0
C3863 C 0.65436 0.60275 0.34046 0.0
C3864 C 0.64674 0.61538 0.34386 0.0
H3865 H 0.63124 0.68539 0.36044 0.0
H3866 H 0.6427 0.66521 0.35352 0.0
H3867 H 0.62201 0.62644 0.36462 0.0
H3868 H 0.65045 0.56864 0.33993 0.0
H3869 H 0.63764 0.58908 0.34339 0.0
C3870 C 0.63994 0.36525 0.07466 0.0
C3871 C 0.6434 0.35436 0.08291 0.0
C3872 C 0.64121 0.37854 0.07937 0.0
C3873 C 0.66109 0.39809 0.10349 0.0
H3874 H 0.63399 0.42538 0.10196 0.0
C3875 C 0.66925 0.44817 0.13154 0.0
C3876 C 0.66259 0.45981 0.12736 0.0
C3877 C 0.66648 0.43571 0.12559 0.0
C3878 C 0.64186 0.41802 0.10225 0.0
H3879 H 0.65054 0.34935 0.10286 0.0
H3880 H 0.65203 0.37219 0.11096 0.0
H3881 H 0.62948 0.40334 0.09206 0.0
H3882 H 0.64792 0.46714 0.11308 0.0
H3883 H 0.64398 0.4458 0.10203 0.0
H3884 H 0.67382 0.41245 0.11303 0.0
C3885 C 0.64877 0.3704 0.10077 0.0
C3886 C 0.63918 0.40532 0.09661 0.0
C3887 C 0.64763 0.35724 0.09612 0.0
C3888 C 0.65343 0.45856 0.1166 0.0
C3889 C 0.65092 0.44613 0.11039 0.0
C3890 C 0.66395 0.41077 0.10878 0.0
C3891 C 0.64593 0.38123 0.09243 0.0
C3892 C 0.64874 0.39513 0.09736 0.0
C3893 C 0.65726 0.43442 0.11487 0.0
C3894 C 0.65432 0.42097 0.1085 0.0
H3895 H 0.63641 0.36356 0.06452 0.0
H3896 H 0.63888 0.38669 0.07269 0.0
H3897 H 0.66861 0.39053 0.10418 0.0
H3898 H 0.67664 0.44857 0.13952 0.0
H3899 H 0.67149 0.42708 0.12968 0.0
C3900 C 0.37319 0.83097 0.684 0.0
C3901 C 0.3772 0.82399 0.69554 0.0
C3902 C 0.36838 0.84407 0.68491 0.0
C3903 C 0.36789 0.87463 0.70567 0.0
H3904 H 0.33423 0.88097 0.68742 0.0
C3905 C 0.34389 0.92758 0.70639 0.0
C3906 C 0.33605 0.93127 0.69528 0.0
C3907 C 0.34817 0.9143 0.70791 0.0
C3908 C 0.34379 0.87963 0.69235 0.0
H3909 H 0.37969 0.8259 0.71713 0.0
H3910 H 0.37187 0.84887 0.71853 0.0
H3911 H 0.34419 0.85901 0.68638 0.0
H3912 H 0.32675 0.92385 0.67699 0.0
H3913 H 0.33459 0.9013 0.67913 0.0
H3914 H 0.36798 0.89533 0.71111 0.0
C3915 C 0.37231 0.84405 0.7088 0.0
C3916 C 0.34944 0.86688 0.69183 0.0
C3917 C 0.37689 0.83085 0.70794 0.0
C3918 C 0.33255 0.92136 0.68582 0.0
C3919 C 0.33704 0.90824 0.68715 0.0
C3920 C 0.36242 0.88753 0.7059 0.0
C3921 C 0.36768 0.85069 0.69734 0.0
C3922 C 0.36163 0.86425 0.69834 0.0
C3923 C 0.345 0.9044 0.69818 0.0
C3924 C 0.35036 0.89035 0.69903 0.0
H3925 H 0.37363 0.82632 0.67419 0.0
H3926 H 0.36515 0.84902 0.67585 0.0
H3927 H 0.37727 0.87289 0.71085 0.0
H3928 H 0.3467 0.93496 0.71391 0.0
H3929 H 0.35398 0.9119 0.71673 0.0
C3930 C 0.37514 0.17137 1.00306 0.0
C3931 C 0.38622 0.17801 0.99745 0.0
C3932 C 0.37256 0.15785 1.00018 0.0
C3933 C 0.37902 0.13292 0.97369 0.0
H3934 H 0.3647 0.10732 0.99887 0.0
C3935 C 0.37015 0.07847 0.95731 0.0
C3936 C 0.35876 0.0717 0.96198 0.0
C3937 C 0.37414 0.09072 0.96293 0.0
C3938 C 0.36855 0.11436 0.99165 0.0
H3939 H 0.40366 0.1753 0.98496 0.0
H3940 H 0.39931 0.15173 0.98016 0.0
H3941 H 0.37064 0.1299 0.00651 0.0
H3942 H 0.34291 0.07221 0.97659 0.0
H3943 H 0.34964 0.09384 0.98628 0.0
H3944 H 0.37659 0.11774 0.95874 0.0
C3945 C 0.39246 0.15706 0.98659 0.0
C3946 C 0.37201 0.12732 0.99606 0.0
C3947 C 0.39505 0.17056 0.98949 0.0
C3948 C 0.35177 0.07718 0.97284 0.0
C3949 C 0.35566 0.0896 0.97838 0.0
C3950 C 0.37547 0.12007 0.96927 0.0
C3951 C 0.38098 0.15062 0.99159 0.0
C3952 C 0.3774 0.13673 0.98714 0.0
C3953 C 0.36673 0.09671 0.97327 0.0
C3954 C 0.3703 0.11051 0.97818 0.0
H3955 H 0.36825 0.17674 0.00942 0.0
H3956 H 0.36363 0.15324 1.00421 0.0
H3957 H 0.38279 0.13998 0.96644 0.0
H3958 H 0.37585 0.0744 0.94907 0.0
H3959 H 0.38297 0.09558 0.95898 0.0
C3960 C 0.36696 0.62408 0.67379 0.0
C3961 C 0.36133 0.61147 0.67673 0.0
C3962 C 0.3634 0.63096 0.66205 0.0
C3963 C 0.34594 0.62644 0.62843 0.0
H3964 H 0.3461 0.66512 0.62938 0.0
C3965 C 0.3301 0.65667 0.58102 0.0
C3966 C 0.33586 0.66943 0.57904 0.0
C3967 C 0.33181 0.64985 0.59323 0.0
C3968 C 0.34618 0.65433 0.62865 0.0
H3969 H 0.34718 0.59652 0.66928 0.0
H3970 H 0.34103 0.60837 0.64912 0.0
H3971 H 0.35241 0.65293 0.64913 0.0
H3972 H 0.34694 0.6853 0.58931 0.0
H3973 H 0.35088 0.67326 0.60959 0.0
H3974 H 0.3399 0.62781 0.60791 0.0
C3975 C 0.34845 0.61292 0.65571 0.0
C3976 C 0.34984 0.64724 0.6402 0.0
C3977 C 0.35203 0.60603 0.66742 0.0
C3978 C 0.34276 0.67532 0.59 0.0
C3979 C 0.34477 0.6684 0.60199 0.0
C3980 C 0.34239 0.63354 0.61682 0.0
C3981 C 0.35399 0.62557 0.6528 0.0
C3982 C 0.3499 0.63314 0.64033 0.0
C3983 C 0.33954 0.6554 0.60387 0.0
C3984 C 0.34256 0.64768 0.6166 0.0
H3985 H 0.37434 0.62861 0.68043 0.0
H3986 H 0.36823 0.64048 0.66019 0.0
H3987 H 0.34592 0.61563 0.62788 0.0
H3988 H 0.32464 0.65169 0.573 0.0
H3989 H 0.32714 0.64011 0.59417 0.0
C3990 C 0.07262 0.64545 0.36457 0.0
C3991 C 0.08051 0.64097 0.35377 0.0
C3992 C 0.07822 0.64759 0.37738 0.0
C3993 C 0.1092 0.64128 0.39835 0.0
H3994 H 0.09605 0.67148 0.41879 0.0
C3995 C 0.13665 0.65962 0.44647 0.0
C3996 C 0.12886 0.66359 0.45749 0.0
C3997 C 0.13084 0.65737 0.43381 0.0
C3998 C 0.0998 0.66293 0.4133 0.0
H3999 H 0.10066 0.63438 0.34894 0.0
H4000 H 0.10978 0.63692 0.37101 0.0
H4001 H 0.08564 0.66571 0.39738 0.0
H4002 H 0.10868 0.66866 0.46345 0.0
H4003 H 0.09849 0.66433 0.44153 0.0
H4004 H 0.12354 0.6387 0.41412 0.0
C4005 C 0.09938 0.63943 0.36954 0.0
C4006 C 0.09374 0.65953 0.40097 0.0
C4007 C 0.09394 0.63771 0.35667 0.0
C4008 C 0.11503 0.66541 0.45534 0.0
C4009 C 0.10919 0.6631 0.44265 0.0
C4010 C 0.11533 0.64476 0.41059 0.0
C4011 C 0.09184 0.64502 0.37999 0.0
C4012 C 0.09825 0.64856 0.39331 0.0
C4013 C 0.11698 0.65888 0.43171 0.0
C4014 C 0.11067 0.65557 0.41834 0.0
H4015 H 0.0621 0.64756 0.36324 0.0
H4016 H 0.07179 0.65129 0.38523 0.0
H4017 H 0.11297 0.63267 0.393 0.0
H4018 H 0.14729 0.65795 0.44762 0.0
H4019 H 0.13727 0.65439 0.42566 0.0
C4020 C 0.69905 0.36197 0.82631 0.0
C4021 C 0.69662 0.37543 0.8233 0.0
C4022 C 0.70039 0.35781 0.8396 0.0
C4023 C 0.69337 0.36914 0.87484 0.0
H4024 H 0.71364 0.33744 0.88359 0.0
C4025 C 0.69858 0.35187 0.92953 0.0
C4026 C 0.69701 0.3381 0.93196 0.0
C4027 C 0.70036 0.35662 0.91651 0.0
C4028 C 0.70788 0.34628 0.88133 0.0
H4029 H 0.69391 0.39517 0.83185 0.0
H4030 H 0.69662 0.38811 0.85499 0.0
H4031 H 0.71346 0.34558 0.86076 0.0
H4032 H 0.69709 0.3185 0.92241 0.0
H4033 H 0.69963 0.32681 0.89975 0.0
H4034 H 0.68797 0.3699 0.89549 0.0
C4035 C 0.6972 0.38058 0.84719 0.0
C4036 C 0.70769 0.35096 0.86813 0.0
C4037 C 0.6958 0.38472 0.83387 0.0
C4038 C 0.69795 0.32919 0.921 0.0
C4039 C 0.6996 0.33396 0.90795 0.0
C4040 C 0.69371 0.36456 0.88804 0.0
C4041 C 0.6994 0.36701 0.85031 0.0
C4042 C 0.70028 0.36239 0.8646 0.0
C4043 C 0.70051 0.34778 0.90548 0.0
C4044 C 0.70085 0.35299 0.89148 0.0
H4045 H 0.69993 0.35462 0.81835 0.0
H4046 H 0.70188 0.34726 0.84137 0.0
H4047 H 0.6873 0.37778 0.87268 0.0
H4048 H 0.69784 0.35912 0.93759 0.0
H4049 H 0.70133 0.36731 0.91507 0.0
C4050 C 0.98951 0.37223 0.17534 0.0
C4051 C 0.99687 0.38373 0.17907 0.0
C4052 C 0.98653 0.36946 0.16194 0.0
C4053 C 0.99494 0.37756 0.12674 0.0
H4054 H 0.95919 0.36338 0.12047 0.0
C4055 C 0.97084 0.36827 0.07348 0.0
C4056 C 0.96244 0.35696 0.07226 0.0
C4057 C 0.97636 0.37192 0.08601 0.0
C4058 C 0.96928 0.36717 0.122 0.0
H4059 H 0.00714 0.40121 0.17137 0.0
H4060 H 1.00161 0.3965 0.14781 0.0
H4061 H 0.96624 0.36921 0.14302 0.0
H4062 H 0.95406 0.34011 0.08287 0.0
H4063 H 0.96385 0.34618 0.10444 0.0
H4064 H 0.99783 0.37551 0.10551 0.0
C4065 C 0.99829 0.38955 0.15538 0.0
C4066 C 0.97334 0.37053 0.13499 0.0
C4067 C 1.00135 0.39232 0.16889 0.0
C4068 C 0.96032 0.34898 0.08356 0.0
C4069 C 0.96587 0.35254 0.09595 0.0
C4070 C 0.99084 0.37418 0.11363 0.0
C4071 C 0.99062 0.37819 0.15177 0.0
C4072 C 0.9863 0.37552 0.13763 0.0
C4073 C 0.97361 0.36427 0.09748 0.0
C4074 C 0.97802 0.36869 0.11115 0.0
H4075 H 0.98567 0.36546 0.18282 0.0
H4076 H 0.98084 0.36047 0.15957 0.0
H4077 H 1.005 0.38138 0.12839 0.0
H4078 H 0.9726 0.37461 0.06492 0.0
H4079 H 0.98228 0.38101 0.08681 0.0
loop_
_geom_bond_atom_site_label_1
_geom_bond_atom_site_label_2
_geom_bond_distance
_geom_bond_site_symmetry_2
_ccdc_geom_bond_type
C0 C1 1.264 . S
C0 C5 1.479 . S
C0 C10 1.465 . S
C1 C0 1.264 . S
C1 C3 1.339 . S
C1 H28 0.931 . S
C2 C3 1.395 . S
C2 C4 1.320 . S
C3 C1 1.339 . S
C3 C2 1.395 . S
C3 H29 0.929 . S
C4 C2 1.320 . S
C4 C5 1.405 . S
C4 H30 0.930 . S
C5 C0 1.479 . S
C5 C4 1.405 . S
C5 H31 0.931 . S
U6 O7 2.454 . S
U6 O8 2.458 . S
U6 C9 2.984 . S
U6 C10 2.847 . S
U6 C23 2.882 . S
U6 O24 2.441 . S
U6 O25 2.420 . S
U6 O26 2.455 . S
U6 O27 2.449 . S
O7 U6 2.454 . S
O7 C9 1.353 . S
O8 U6 2.458 . S
O8 C9 1.286 . S
C9 U6 2.984 . S
C9 O7 1.353 . S
C9 O8 1.286 . S
C9 C11 1.363 . S
C10 C0 1.465 . S
C10 U6 2.847 . S
C10 O24 1.249 . S
C10 O25 1.202 . S
C11 C9 1.363 . S
C11 C13 1.408 . S
C11 C16 1.342 . S
C12 C13 1.310 . S
C12 C15 1.461 . S
C12 H32 0.932 . S
C13 C11 1.408 . S
C13 C12 1.310 . S
C13 H33 0.930 . S
C14 C15 1.474 . S
C14 C16 1.285 . S
C14 H34 0.929 . S
C15 C12 1.461 . S
C15 C14 1.474 . S
C16 C11 1.342 . S
C16 C14 1.285 . S
C16 H35 0.930 . S
C17 C20 1.424 . S
C17 C22 1.245 . S
C17 C23 1.428 . S
C18 C21 1.260 . S
C18 C22 1.477 . S
C18 H36 0.932 . S
C19 C20 1.384 . S
C19 C21 1.479 . S
C19 H37 0.929 . S
C20 C17 1.424 . S
C20 C19 1.384 . S
C20 H38 0.928 . S
C21 C18 1.260 . S
C21 C19 1.479 . S
C22 C17 1.245 . S
C22 C18 1.477 . S
C22 H39 0.932 . S
C23 U6 2.882 . S
C23 C17 1.428 . S
C23 O26 1.301 . S
C23 O27 1.282 . S
O24 U6 2.441 . S
O24 C10 1.249 . S
O25 U6 2.420 . S
O25 C10 1.202 . S
O26 U6 2.455 . S
O26 C23 1.301 . S
O27 U6 2.449 . S
O27 C23 1.282 . S
H28 C1 0.931 . S
H29 C3 0.929 . S
H30 C4 0.930 . S
H31 C5 0.931 . S
H32 C12 0.932 . S
H33 C13 0.930 . S
H34 C14 0.929 . S
H35 C16 0.930 . S
H36 C18 0.932 . S
H37 C19 0.929 . S
H38 C20 0.928 . S
H39 C22 0.932 . S
C40 C41 1.264 . S
C40 C45 1.479 . S
C40 C50 1.465 . S
C41 C40 1.264 . S
C41 C43 1.339 . S
C41 H68 0.931 . S
C42 C43 1.395 . S
C42 C44 1.320 . S
C43 C41 1.339 . S
C43 C42 1.395 . S
C43 H69 0.929 . S
C44 C42 1.320 . S
C44 C45 1.405 . S
C44 H70 0.930 . S
C45 C40 1.479 . S
C45 C44 1.405 . S
C45 H71 0.931 . S
U46 O47 2.454 . S
U46 O48 2.458 . S
U46 C49 2.984 . S
U46 C50 2.847 . S
U46 C63 2.882 . S
U46 O64 2.441 . S
U46 O65 2.420 . S
U46 O66 2.455 . S
U46 O67 2.449 . S
O47 U46 2.454 . S
O47 C49 1.353 . S
O48 U46 2.458 . S
O48 C49 1.286 . S
C49 U46 2.984 . S
C49 O47 1.353 . S
C49 O48 1.286 . S
C49 C51 1.363 . S
C50 C40 1.465 . S
C50 U46 2.847 . S
C50 O64 1.249 . S
C50 O65 1.202 . S
C51 C49 1.363 . S
C51 C53 1.408 . S
C51 C56 1.342 . S
C52 C53 1.310 . S
C52 C55 1.461 . S
C52 H72 0.932 . S
C53 C51 1.408 . S
C53 C52 1.310 . S
C53 H73 0.930 . S
C54 C55 1.474 . S
C54 C56 1.285 . S
C54 H74 0.929 . S
C55 C52 1.461 . S
C55 C54 1.474 . S
C56 C51 1.342 . S
C56 C54 1.285 . S
C56 H75 0.930 . S
C57 C60 1.424 . S
C57 C62 1.245 . S
C57 C63 1.428 . S
C58 C61 1.260 . S
C58 C62 1.477 . S
C58 H76 0.932 . S
C59 C60 1.384 . S
C59 C61 1.479 . S
C59 H77 0.929 . S
C60 C57 1.424 . S
C60 C59 1.384 . S
C60 H78 0.928 . S
C61 C58 1.260 . S
C61 C59 1.479 . S
C62 C57 1.245 . S
C62 C58 1.477 . S
C62 H79 0.932 . S
C63 U46 2.882 . S
C63 C57 1.428 . S
C63 O66 1.301 . S
C63 O67 1.282 . S
O64 U46 2.441 . S
O64 C50 1.249 . S
O65 U46 2.420 . S
O65 C50 1.202 . S
O66 U46 2.455 . S
O66 C63 1.301 . S
O67 U46 2.449 . S
O67 C63 1.282 . S
H68 C41 0.931 . S
H69 C43 0.929 . S
H70 C44 0.930 . S
H71 C45 0.931 . S
H72 C52 0.932 . S
H73 C53 0.930 . S
H74 C54 0.929 . S
H75 C56 0.930 . S
H76 C58 0.932 . S
H77 C59 0.929 . S
H78 C60 0.928 . S
H79 C62 0.932 . S
C80 C81 1.264 . S
C80 C85 1.479 1_565 S
C80 C90 1.465 . S
C81 C80 1.264 . S
C81 C83 1.339 . S
C81 H108 0.931 . S
C82 C83 1.368 1_545 S
C82 C84 1.340 . S
C83 C81 1.339 . S
C83 C82 1.368 1_565 S
C83 H109 0.929 . S
C84 C82 1.340 . S
C84 C85 1.405 . S
C84 H110 0.930 . S
C85 C80 1.479 1_545 S
C85 C84 1.405 . S
C85 H111 0.931 . S
U86 O87 2.454 1_565 S
U86 O88 2.458 1_565 S
U86 C89 2.984 1_565 S
U86 C90 2.847 . S
U86 C103 2.882 . S
U86 O104 2.453 . S
U86 O105 2.420 . S
U86 O106 2.455 . S
U86 O107 2.449 . S
O87 U86 2.454 1_545 S
O87 C89 1.353 . S
O88 U86 2.458 1_545 S
O88 C89 1.286 . S
C89 U86 2.984 1_545 S
C89 O87 1.353 . S
C89 O88 1.286 . S
C89 C91 1.363 . S
C90 C80 1.465 . S
C90 U86 2.847 . S
C90 O104 1.272 . S
C90 O105 1.202 . S
C91 C89 1.363 . S
C91 C93 1.408 . S
C91 C96 1.342 . S
C92 C93 1.310 . S
C92 C95 1.461 . S
C92 H112 0.932 . S
C93 C91 1.408 . S
C93 C92 1.310 . S
C93 H113 0.930 . S
C94 C95 1.474 . S
C94 C96 1.285 . S
C94 H114 0.929 . S
C95 C92 1.461 . S
C95 C94 1.474 . S
C96 C91 1.342 . S
C96 C94 1.285 . S
C96 H115 0.930 . S
C97 C100 1.424 . S
C97 C102 1.245 . S
C97 C103 1.428 . S
C98 C101 1.260 . S
C98 C102 1.477 . S
C98 H116 0.932 . S
C99 C100 1.384 . S
C99 C101 1.479 . S
C99 H117 0.929 . S
C100 C97 1.424 . S
C100 C99 1.384 . S
C100 H118 0.928 . S
C101 C98 1.260 . S
C101 C99 1.479 . S
C102 C97 1.245 . S
C102 C98 1.477 . S
C102 H119 0.932 . S
C103 U86 2.882 . S
C103 C97 1.428 . S
C103 O106 1.301 . S
C103 O107 1.282 . S
O104 U86 2.453 . S
O104 C90 1.272 . S
O105 U86 2.420 . S
O105 C90 1.202 . S
O106 U86 2.455 . S
O106 C103 1.301 . S
O107 U86 2.449 . S
O107 C103 1.282 . S
H108 C81 0.931 . S
H109 C83 0.929 . S
H110 C84 0.930 . S
H111 C85 0.931 . S
H112 C92 0.932 . S
H113 C93 0.930 . S
H114 C94 0.929 . S
H115 C96 0.930 . S
H116 C98 0.932 . S
H117 C99 0.929 . S
H118 C100 0.928 . S
H119 C102 0.932 . S
C120 C121 1.264 . S
C120 C125 1.479 . S
C120 C130 1.465 . S
C121 C120 1.264 . S
C121 C123 1.339 . S
C121 H148 0.931 . S
C122 C123 1.395 . S
C122 C124 1.320 . S
C123 C121 1.339 . S
C123 C122 1.395 . S
C123 H149 0.929 . S
C124 C122 1.320 . S
C124 C125 1.405 . S
C124 H150 0.930 . S
C125 C120 1.479 . S
C125 C124 1.405 . S
C125 H151 0.931 . S
U126 O127 2.454 . S
U126 O128 2.458 . S
U126 C129 2.984 . S
U126 C130 2.847 . S
U126 C143 2.882 . S
U126 O144 2.441 . S
U126 O145 2.420 . S
U126 O146 2.455 . S
U126 O147 2.449 . S
O127 U126 2.454 . S
O127 C129 1.353 . S
O128 U126 2.458 . S
O128 C129 1.286 . S
C129 U126 2.984 . S
C129 O127 1.353 . S
C129 O128 1.286 . S
C129 C131 1.363 . S
C130 C120 1.465 . S
C130 U126 2.847 . S
C130 O144 1.249 . S
C130 O145 1.202 . S
C131 C129 1.363 . S
C131 C133 1.408 . S
C131 C136 1.342 . S
C132 C133 1.310 . S
C132 C135 1.461 . S
C132 H152 0.932 . S
C133 C131 1.408 . S
C133 C132 1.310 . S
C133 H153 0.930 . S
C134 C135 1.474 . S
C134 C136 1.285 . S
C134 H154 0.929 . S
C135 C132 1.461 . S
C135 C134 1.474 . S
C136 C131 1.342 . S
C136 C134 1.285 . S
C136 H155 0.930 . S
C137 C140 1.424 . S
C137 C142 1.245 . S
C137 C143 1.428 . S
C138 C141 1.260 . S
C138 C142 1.477 . S
C138 H156 0.934 . S
C139 C140 1.384 . S
C139 C141 1.479 . S
C139 H157 0.929 . S
C140 C137 1.424 . S
C140 C139 1.384 . S
C140 H158 0.928 . S
C141 C138 1.260 . S
C141 C139 1.479 . S
C142 C137 1.245 . S
C142 C138 1.477 . S
C142 H159 0.932 . S
C143 U126 2.882 . S
C143 C137 1.428 . S
C143 O146 1.301 . S
C143 O147 1.282 . S
O144 U126 2.441 . S
O144 C130 1.249 . S
O145 U126 2.420 . S
O145 C130 1.202 . S
O146 U126 2.455 . S
O146 C143 1.301 . S
O147 U126 2.449 . S
O147 C143 1.282 . S
H148 C121 0.931 . S
H149 C123 0.929 . S
H150 C124 0.930 . S
H151 C125 0.931 . S
H152 C132 0.932 . S
H153 C133 0.930 . S
H154 C134 0.929 . S
H155 C136 0.930 . S
H156 C138 0.934 . S
H157 C139 0.929 . S
H158 C140 0.928 . S
H159 C142 0.932 . S
C160 C161 1.264 . S
C160 C165 1.479 . S
C160 C170 1.465 . S
C161 C160 1.264 . S
C161 C163 1.339 . S
C161 H188 0.931 . S
C162 C163 1.395 . S
C162 C164 1.320 . S
C163 C161 1.339 . S
C163 C162 1.395 . S
C163 H189 0.929 . S
C164 C162 1.320 . S
C164 C165 1.405 . S
C164 H190 0.930 . S
C165 C160 1.479 . S
C165 C164 1.405 . S
C165 H191 0.931 . S
U166 O167 2.454 . S
U166 O168 2.458 . S
U166 C169 2.984 . S
U166 C170 2.847 . S
U166 C183 2.882 . S
U166 O184 2.441 . S
U166 O185 2.420 . S
U166 O186 2.455 . S
U166 O187 2.449 . S
O167 U166 2.454 . S
O167 C169 1.353 . S
O168 U166 2.458 . S
O168 C169 1.286 . S
C169 U166 2.984 . S
C169 O167 1.353 . S
C169 O168 1.286 . S
C169 C171 1.363 . S
C170 C160 1.465 . S
C170 U166 2.847 . S
C170 O184 1.249 . S
C170 O185 1.202 . S
C171 C169 1.363 . S
C171 C173 1.408 . S
C171 C176 1.342 . S
C172 C173 1.310 . S
C172 C175 1.461 . S
C172 H192 0.932 . S
C173 C171 1.408 . S
C173 C172 1.310 . S
C173 H193 0.930 . S
C174 C175 1.474 . S
C174 C176 1.285 . S
C174 H194 0.929 . S
C175 C172 1.461 . S
C175 C174 1.474 . S
C176 C171 1.342 . S
C176 C174 1.285 . S
C176 H195 0.930 . S
C177 C180 1.424 . S
C177 C182 1.245 . S
C177 C183 1.428 . S
C178 C181 1.260 . S
C178 C182 1.477 . S
C178 H196 0.932 . S
C179 C180 1.384 . S
C179 C181 1.479 . S
C179 H197 0.929 . S
C180 C177 1.424 . S
C180 C179 1.384 . S
C180 H198 0.928 . S
C181 C178 1.260 . S
C181 C179 1.479 . S
C182 C177 1.245 . S
C182 C178 1.477 . S
C182 H199 0.932 . S
C183 U166 2.882 . S
C183 C177 1.428 . S
C183 O186 1.301 . S
C183 O187 1.282 . S
O184 U166 2.441 . S
O184 C170 1.249 . S
O185 U166 2.420 . S
O185 C170 1.202 . S
O186 U166 2.455 . S
O186 C183 1.301 . S
O187 U166 2.449 . S
O187 C183 1.282 . S
H188 C161 0.931 . S
H189 C163 0.929 . S
H190 C164 0.930 . S
H191 C165 0.931 . S
H192 C172 0.932 . S
H193 C173 0.930 . S
H194 C174 0.929 . S
H195 C176 0.930 . S
H196 C178 0.932 . S
H197 C179 0.929 . S
H198 C180 0.928 . S
H199 C182 0.932 . S
C200 C201 1.264 . S
C200 C205 1.479 . S
C200 C210 1.465 . S
C201 C200 1.264 . S
C201 C203 1.339 . S
C201 H228 0.931 . S
C202 C203 1.395 . S
C202 C204 1.320 . S
C203 C201 1.339 . S
C203 C202 1.395 . S
C203 H229 0.929 . S
C204 C202 1.320 . S
C204 C205 1.405 . S
C204 H230 0.930 . S
C205 C200 1.479 . S
C205 C204 1.405 . S
C205 H231 0.931 . S
U206 O207 2.454 . S
U206 O208 2.458 . S
U206 C209 2.984 . S
U206 C210 2.847 . S
U206 C223 2.882 . S
U206 O224 2.441 . S
U206 O225 2.420 . S
U206 O226 2.455 . S
U206 O227 2.449 . S
O207 U206 2.454 . S
O207 C209 1.353 . S
O208 U206 2.458 . S
O208 C209 1.286 . S
C209 U206 2.984 . S
C209 O207 1.353 . S
C209 O208 1.286 . S
C209 C211 1.363 . S
C210 C200 1.465 . S
C210 U206 2.847 . S
C210 O224 1.249 . S
C210 O225 1.202 . S
C211 C209 1.363 . S
C211 C213 1.408 . S
C211 C216 1.342 . S
C212 C213 1.310 . S
C212 C215 1.461 . S
C212 H232 0.932 . S
C213 C211 1.408 . S
C213 C212 1.310 . S
C213 H233 0.930 . S
C214 C215 1.474 . S
C214 C216 1.285 . S
C214 H234 0.929 . S
C215 C212 1.461 . S
C215 C214 1.474 . S
C216 C211 1.342 . S
C216 C214 1.285 . S
C216 H235 0.930 . S
C217 C220 1.424 . S
C217 C222 1.245 . S
C217 C223 1.428 . S
C218 C221 1.260 . S
C218 C222 1.477 . S
C218 H236 0.933 . S
C219 C220 1.384 . S
C219 C221 1.479 . S
C219 H237 0.929 . S
C220 C217 1.424 . S
C220 C219 1.384 . S
C220 H238 0.928 . S
C221 C218 1.260 . S
C221 C219 1.479 . S
C222 C217 1.245 . S
C222 C218 1.477 . S
C222 H239 0.932 . S
C223 U206 2.882 . S
C223 C217 1.428 . S
C223 O226 1.301 . S
C223 O227 1.282 . S
O224 U206 2.441 . S
O224 C210 1.249 . S
O225 U206 2.420 . S
O225 C210 1.202 . S
O226 U206 2.455 . S
O226 C223 1.301 . S
O227 U206 2.449 . S
O227 C223 1.282 . S
H228 C201 0.931 . S
H229 C203 0.929 . S
H230 C204 0.930 . S
H231 C205 0.931 . S
H232 C212 0.932 . S
H233 C213 0.930 . S
H234 C214 0.929 . S
H235 C216 0.930 . S
H236 C218 0.933 . S
H237 C219 0.929 . S
H238 C220 0.928 . S
H239 C222 0.932 . S
C240 C241 1.264 . S
C240 C245 1.479 . S
C240 C250 1.465 . S
C241 C240 1.264 . S
C241 C243 1.339 . S
C241 H268 0.931 . S
C242 C243 1.395 . S
C242 C244 1.320 . S
C243 C241 1.339 . S
C243 C242 1.395 . S
C243 H269 0.929 . S
C244 C242 1.320 . S
C244 C245 1.405 . S
C244 H270 0.930 . S
C245 C240 1.479 . S
C245 C244 1.405 . S
C245 H271 0.931 . S
U246 O247 2.454 . S
U246 O248 2.458 . S
U246 C249 2.984 . S
U246 C250 2.847 . S
U246 C263 2.882 . S
U246 O264 2.441 . S
U246 O265 2.420 . S
U246 O266 2.455 . S
U246 O267 2.449 . S
O247 U246 2.454 . S
O247 C249 1.353 . S
O248 U246 2.458 . S
O248 C249 1.286 . S
C249 U246 2.984 . S
C249 O247 1.353 . S
C249 O248 1.286 . S
C249 C251 1.363 . S
C250 C240 1.465 . S
C250 U246 2.847 . S
C250 O264 1.249 . S
C250 O265 1.202 . S
C251 C249 1.363 . S
C251 C253 1.408 . S
C251 C256 1.342 . S
C252 C253 1.310 . S
C252 C255 1.461 . S
C252 H272 0.932 . S
C253 C251 1.408 . S
C253 C252 1.310 . S
C253 H273 0.930 . S
C254 C255 1.474 . S
C254 C256 1.285 . S
C254 H274 0.929 . S
C255 C252 1.461 . S
C255 C254 1.474 . S
C256 C251 1.342 . S
C256 C254 1.285 . S
C256 H275 0.930 . S
C257 C260 1.424 . S
C257 C262 1.245 . S
C257 C263 1.428 . S
C258 C261 1.260 . S
C258 C262 1.477 . S
C258 H276 0.932 . S
C259 C260 1.384 . S
C259 C261 1.479 . S
C259 H277 0.929 . S
C260 C257 1.424 . S
C260 C259 1.384 . S
C260 H278 0.928 . S
C261 C258 1.260 . S
C261 C259 1.479 . S
C262 C257 1.245 . S
C262 C258 1.477 . S
C262 H279 0.932 . S
C263 U246 2.882 . S
C263 C257 1.428 . S
C263 O266 1.301 . S
C263 O267 1.282 . S
O264 U246 2.441 . S
O264 C250 1.249 . S
O265 U246 2.420 . S
O265 C250 1.202 . S
O266 U246 2.455 . S
O266 C263 1.301 . S
O267 U246 2.449 . S
O267 C263 1.282 . S
H268 C241 0.931 . S
H269 C243 0.929 . S
H270 C244 0.930 . S
H271 C245 0.931 . S
H272 C252 0.932 . S
H273 C253 0.930 . S
H274 C254 0.929 . S
H275 C256 0.930 . S
H276 C258 0.932 . S
H277 C259 0.929 . S
H278 C260 0.928 . S
H279 C262 0.932 . S
C280 C281 1.264 . S
C280 C285 1.479 1_556 S
C280 C290 1.465 . S
C281 C280 1.264 . S
C281 C283 1.339 . S
C281 H308 0.931 . S
C282 C283 1.368 1_554 S
C282 C284 1.340 . S
C283 C281 1.339 . S
C283 C282 1.368 1_556 S
C283 H309 0.929 . S
C284 C282 1.340 . S
C284 C285 1.405 . S
C284 H310 0.930 . S
C285 C280 1.479 1_554 S
C285 C284 1.405 . S
C285 H311 0.931 . S
U286 O287 2.454 1_556 S
U286 O288 2.458 1_556 S
U286 C289 2.984 1_556 S
U286 C290 2.847 . S
U286 C303 2.882 . S
U286 O304 2.453 . S
U286 O305 2.420 . S
U286 O306 2.455 . S
U286 O307 2.449 . S
O287 U286 2.454 1_554 S
O287 C289 1.353 . S
O288 U286 2.458 1_554 S
O288 C289 1.286 . S
C289 U286 2.984 1_554 S
C289 O287 1.353 . S
C289 O288 1.286 . S
C289 C291 1.363 . S
C290 C280 1.465 . S
C290 U286 2.847 . S
C290 O304 1.272 . S
C290 O305 1.202 . S
C291 C289 1.363 . S
C291 C293 1.408 . S
C291 C296 1.342 . S
C292 C293 1.310 . S
C292 C295 1.461 . S
C292 H312 0.932 . S
C293 C291 1.408 . S
C293 C292 1.310 . S
C293 H313 0.930 . S
C294 C295 1.474 . S
C294 C296 1.285 . S
C294 H314 0.929 . S
C295 C292 1.461 . S
C295 C294 1.474 . S
C296 C291 1.342 . S
C296 C294 1.285 . S
C296 H315 0.930 . S
C297 C300 1.424 . S
C297 C302 1.245 . S
C297 C303 1.428 . S
C298 C301 1.260 . S
C298 C302 1.477 . S
C298 H316 0.932 . S
C299 C300 1.384 . S
C299 C301 1.479 . S
C299 H317 0.929 . S
C300 C297 1.424 . S
C300 C299 1.384 . S
C300 H318 0.928 . S
C301 C298 1.260 . S
C301 C299 1.479 . S
C302 C297 1.245 . S
C302 C298 1.477 . S
C302 H319 0.932 . S
C303 U286 2.882 . S
C303 C297 1.428 . S
C303 O306 1.301 . S
C303 O307 1.282 . S
O304 U286 2.453 . S
O304 C290 1.272 . S
O305 U286 2.420 . S
O305 C290 1.202 . S
O306 U286 2.455 . S
O306 C303 1.301 . S
O307 U286 2.449 . S
O307 C303 1.282 . S
H308 C281 0.931 . S
H309 C283 0.929 . S
H310 C284 0.930 . S
H311 C285 0.931 . S
H312 C292 0.932 . S
H313 C293 0.930 . S
H314 C294 0.929 . S
H315 C296 0.930 . S
H316 C298 0.932 . S
H317 C299 0.929 . S
H318 C300 0.928 . S
H319 C302 0.932 . S
C320 C321 1.264 . S
C320 C325 1.479 . S
C320 C330 1.465 . S
C321 C320 1.264 . S
C321 C323 1.339 . S
C321 H348 0.931 . S
C322 C323 1.395 . S
C322 C324 1.320 . S
C323 C321 1.339 . S
C323 C322 1.395 . S
C323 H349 0.929 . S
C324 C322 1.320 . S
C324 C325 1.405 . S
C324 H350 0.930 . S
C325 C320 1.479 . S
C325 C324 1.405 . S
C325 H351 0.931 . S
U326 O327 2.454 . S
U326 O328 2.458 . S
U326 C329 2.984 . S
U326 C330 2.847 . S
U326 C343 2.882 . S
U326 O344 2.441 . S
U326 O345 2.420 . S
U326 O346 2.455 . S
U326 O347 2.449 . S
O327 U326 2.454 . S
O327 C329 1.353 . S
O328 U326 2.458 . S
O328 C329 1.286 . S
C329 U326 2.984 . S
C329 O327 1.353 . S
C329 O328 1.286 . S
C329 C331 1.363 . S
C330 C320 1.465 . S
C330 U326 2.847 . S
C330 O344 1.249 . S
C330 O345 1.202 . S
C331 C329 1.363 . S
C331 C333 1.408 . S
C331 C336 1.342 . S
C332 C333 1.310 . S
C332 C335 1.461 . S
C332 H352 0.932 . S
C333 C331 1.408 . S
C333 C332 1.310 . S
C333 H353 0.930 . S
C334 C335 1.474 . S
C334 C336 1.285 . S
C334 H354 0.929 . S
C335 C332 1.461 . S
C335 C334 1.474 . S
C336 C331 1.342 . S
C336 C334 1.285 . S
C336 H355 0.930 . S
C337 C340 1.424 . S
C337 C342 1.245 . S
C337 C343 1.428 . S
C338 C341 1.260 . S
C338 C342 1.477 . S
C338 H356 0.932 . S
C339 C340 1.384 . S
C339 C341 1.479 . S
C339 H357 0.929 . S
C340 C337 1.424 . S
C340 C339 1.384 . S
C340 H358 0.928 . S
C341 C338 1.260 . S
C341 C339 1.479 . S
C342 C337 1.245 . S
C342 C338 1.477 . S
C342 H359 0.932 . S
C343 U326 2.882 . S
C343 C337 1.428 . S
C343 O346 1.301 . S
C343 O347 1.282 . S
O344 U326 2.441 . S
O344 C330 1.249 . S
O345 U326 2.420 . S
O345 C330 1.202 . S
O346 U326 2.455 . S
O346 C343 1.301 . S
O347 U326 2.449 . S
O347 C343 1.282 . S
H348 C321 0.931 . S
H349 C323 0.929 . S
H350 C324 0.930 . S
H351 C325 0.931 . S
H352 C332 0.932 . S
H353 C333 0.930 . S
H354 C334 0.929 . S
H355 C336 0.930 . S
H356 C338 0.932 . S
H357 C339 0.929 . S
H358 C340 0.928 . S
H359 C342 0.932 . S
C360 C361 1.264 . S
C360 C365 1.479 . S
C360 C370 1.465 . S
C361 C360 1.264 . S
C361 C363 1.339 . S
C361 H388 0.931 . S
C362 C363 1.395 . S
C362 C364 1.320 . S
C363 C361 1.339 . S
C363 C362 1.395 . S
C363 H389 0.929 . S
C364 C362 1.320 . S
C364 C365 1.405 . S
C364 H390 0.930 . S
C365 C360 1.479 . S
C365 C364 1.405 . S
C365 H391 0.931 . S
U366 O367 2.454 . S
U366 O368 2.458 . S
U366 C369 2.984 . S
U366 C370 2.847 . S
U366 C383 2.882 . S
U366 O384 2.441 . S
U366 O385 2.420 . S
U366 O386 2.455 . S
U366 O387 2.449 . S
O367 U366 2.454 . S
O367 C369 1.353 . S
O368 U366 2.458 . S
O368 C369 1.286 . S
C369 U366 2.984 . S
C369 O367 1.353 . S
C369 O368 1.286 . S
C369 C371 1.363 . S
C370 C360 1.465 . S
C370 U366 2.847 . S
C370 O384 1.249 . S
C370 O385 1.202 . S
C371 C369 1.363 . S
C371 C373 1.408 . S
C371 C376 1.342 . S
C372 C373 1.310 . S
C372 C375 1.461 . S
C372 H392 0.932 . S
C373 C371 1.408 . S
C373 C372 1.310 . S
C373 H393 0.930 . S
C374 C375 1.474 . S
C374 C376 1.285 . S
C374 H394 0.929 . S
C375 C372 1.461 . S
C375 C374 1.474 . S
C376 C371 1.342 . S
C376 C374 1.285 . S
C376 H395 0.930 . S
C377 C380 1.424 . S
C377 C382 1.245 . S
C377 C383 1.428 . S
C378 C381 1.260 . S
C378 C382 1.477 . S
C378 H396 0.933 . S
C379 C380 1.384 . S
C379 C381 1.479 . S
C379 H397 0.929 . S
C380 C377 1.424 . S
C380 C379 1.384 . S
C380 H398 0.928 . S
C381 C378 1.260 . S
C381 C379 1.479 . S
C382 C377 1.245 . S
C382 C378 1.477 . S
C382 H399 0.932 . S
C383 U366 2.882 . S
C383 C377 1.428 . S
C383 O386 1.301 . S
C383 O387 1.282 . S
O384 U366 2.441 . S
O384 C370 1.249 . S
O385 U366 2.420 . S
O385 C370 1.202 . S
O386 U366 2.455 . S
O386 C383 1.301 . S
O387 U366 2.449 . S
O387 C383 1.282 . S
H388 C361 0.931 . S
H389 C363 0.929 . S
H390 C364 0.930 . S
H391 C365 0.931 . S
H392 C372 0.932 . S
H393 C373 0.930 . S
H394 C374 0.929 . S
H395 C376 0.930 . S
H396 C378 0.933 . S
H397 C379 0.929 . S
H398 C380 0.928 . S
H399 C382 0.932 . S
C400 C401 1.264 . S
C400 C405 1.479 . S
C400 C410 1.465 . S
C401 C400 1.264 . S
C401 C403 1.339 . S
C401 H428 0.931 . S
C402 C403 1.395 . S
C402 C404 1.320 . S
C403 C401 1.339 . S
C403 C402 1.395 . S
C403 H429 0.929 . S
C404 C402 1.320 . S
C404 C405 1.405 . S
C404 H430 0.930 . S
C405 C400 1.479 . S
C405 C404 1.405 . S
C405 H431 0.931 . S
U406 O407 2.454 . S
U406 O408 2.458 . S
U406 C409 2.984 . S
U406 C410 2.847 . S
U406 C423 2.882 . S
U406 O424 2.441 . S
U406 O425 2.420 . S
U406 O426 2.455 . S
U406 O427 2.449 . S
O407 U406 2.454 . S
O407 C409 1.353 . S
O408 U406 2.458 . S
O408 C409 1.286 . S
C409 U406 2.984 . S
C409 O407 1.353 . S
C409 O408 1.286 . S
C409 C411 1.363 . S
C410 C400 1.465 . S
C410 U406 2.847 . S
C410 O424 1.249 . S
C410 O425 1.202 . S
C411 C409 1.363 . S
C411 C413 1.408 . S
C411 C416 1.342 . S
C412 C413 1.310 . S
C412 C415 1.461 . S
C412 H432 0.932 . S
C413 C411 1.408 . S
C413 C412 1.310 . S
C413 H433 0.930 . S
C414 C415 1.474 . S
C414 C416 1.285 . S
C414 H434 0.929 . S
C415 C412 1.461 . S
C415 C414 1.474 . S
C416 C411 1.342 . S
C416 C414 1.285 . S
C416 H435 0.930 . S
C417 C420 1.424 . S
C417 C422 1.245 . S
C417 C423 1.428 . S
C418 C421 1.260 . S
C418 C422 1.477 . S
C418 H436 0.932 . S
C419 C420 1.384 . S
C419 C421 1.479 . S
C419 H437 0.929 . S
C420 C417 1.424 . S
C420 C419 1.384 . S
C420 H438 0.928 . S
C421 C418 1.260 . S
C421 C419 1.479 . S
C422 C417 1.245 . S
C422 C418 1.477 . S
C422 H439 0.932 . S
C423 U406 2.882 . S
C423 C417 1.428 . S
C423 O426 1.301 . S
C423 O427 1.282 . S
O424 U406 2.441 . S
O424 C410 1.249 . S
O425 U406 2.420 . S
O425 C410 1.202 . S
O426 U406 2.455 . S
O426 C423 1.301 . S
O427 U406 2.449 . S
O427 C423 1.282 . S
H428 C401 0.931 . S
H429 C403 0.929 . S
H430 C404 0.930 . S
H431 C405 0.931 . S
H432 C412 0.932 . S
H433 C413 0.930 . S
H434 C414 0.929 . S
H435 C416 0.930 . S
H436 C418 0.932 . S
H437 C419 0.929 . S
H438 C420 0.928 . S
H439 C422 0.932 . S
C440 C441 1.264 . S
C440 C445 1.479 1_655 S
C440 C450 1.465 . S
C441 C440 1.264 . S
C441 C443 1.339 . S
C441 H468 0.931 . S
C442 C443 1.368 1_455 S
C442 C444 1.340 . S
C443 C441 1.339 . S
C443 C442 1.368 1_655 S
C443 H469 0.929 . S
C444 C442 1.340 . S
C444 C445 1.405 . S
C444 H470 0.930 . S
C445 C440 1.479 1_455 S
C445 C444 1.405 . S
C445 H471 0.931 . S
U446 O447 2.454 1_655 S
U446 O448 2.458 1_655 S
U446 C449 2.984 1_655 S
U446 C450 2.847 . S
U446 C463 2.882 . S
U446 O464 2.453 . S
U446 O465 2.420 . S
U446 O466 2.455 . S
U446 O467 2.449 . S
O447 U446 2.454 1_455 S
O447 C449 1.353 . S
O448 U446 2.458 1_455 S
O448 C449 1.286 . S
C449 U446 2.984 1_455 S
C449 O447 1.353 . S
C449 O448 1.286 . S
C449 C451 1.363 . S
C450 C440 1.465 . S
C450 U446 2.847 . S
C450 O464 1.272 . S
C450 O465 1.202 . S
C451 C449 1.363 . S
C451 C453 1.408 . S
C451 C456 1.342 . S
C452 C453 1.310 . S
C452 C455 1.461 . S
C452 H472 0.932 . S
C453 C451 1.408 . S
C453 C452 1.310 . S
C453 H473 0.930 . S
C454 C455 1.474 . S
C454 C456 1.285 . S
C454 H474 0.929 . S
C455 C452 1.461 . S
C455 C454 1.474 . S
C456 C451 1.342 . S
C456 C454 1.285 . S
C456 H475 0.930 . S
C457 C460 1.424 . S
C457 C462 1.245 . S
C457 C463 1.428 . S
C458 C461 1.260 . S
C458 C462 1.477 . S
C458 H476 0.932 . S
C459 C460 1.384 . S
C459 C461 1.479 . S
C459 H477 0.929 . S
C460 C457 1.424 . S
C460 C459 1.384 . S
C460 H478 0.928 . S
C461 C458 1.260 . S
C461 C459 1.479 . S
C462 C457 1.245 . S
C462 C458 1.477 . S
C462 H479 0.932 . S
C463 U446 2.882 . S
C463 C457 1.428 . S
C463 O466 1.301 . S
C463 O467 1.282 . S
O464 U446 2.453 . S
O464 C450 1.272 . S
O465 U446 2.420 . S
O465 C450 1.202 . S
O466 U446 2.455 . S
O466 C463 1.301 . S
O467 U446 2.449 . S
O467 C463 1.282 . S
H468 C441 0.931 . S
H469 C443 0.929 . S
H470 C444 0.930 . S
H471 C445 0.931 . S
H472 C452 0.932 . S
H473 C453 0.930 . S
H474 C454 0.929 . S
H475 C456 0.930 . S
H476 C458 0.932 . S
H477 C459 0.929 . S
H478 C460 0.928 . S
H479 C462 0.932 . S
C480 C481 1.264 . S
C480 C485 1.479 . S
C480 C490 1.465 . S
C481 C480 1.264 . S
C481 C483 1.339 . S
C481 H508 0.931 . S
C482 C483 1.395 . S
C482 C484 1.320 . S
C483 C481 1.339 . S
C483 C482 1.395 . S
C483 H509 0.929 . S
C484 C482 1.320 . S
C484 C485 1.405 . S
C484 H510 0.930 . S
C485 C480 1.479 . S
C485 C484 1.405 . S
C485 H511 0.931 . S
U486 O487 2.454 . S
U486 O488 2.458 . S
U486 C489 2.984 . S
U486 C490 2.847 . S
U486 C503 2.882 . S
U486 O504 2.441 . S
U486 O505 2.420 . S
U486 O506 2.455 . S
U486 O507 2.449 . S
O487 U486 2.454 . S
O487 C489 1.353 . S
O488 U486 2.458 . S
O488 C489 1.286 . S
C489 U486 2.984 . S
C489 O487 1.353 . S
C489 O488 1.286 . S
C489 C491 1.363 . S
C490 C480 1.465 . S
C490 U486 2.847 . S
C490 O504 1.249 . S
C490 O505 1.202 . S
C491 C489 1.363 . S
C491 C493 1.408 . S
C491 C496 1.342 . S
C492 C493 1.310 . S
C492 C495 1.461 . S
C492 H512 0.932 . S
C493 C491 1.408 . S
C493 C492 1.310 . S
C493 H513 0.930 . S
C494 C495 1.474 . S
C494 C496 1.285 . S
C494 H514 0.929 . S
C495 C492 1.461 . S
C495 C494 1.474 . S
C496 C491 1.342 . S
C496 C494 1.285 . S
C496 H515 0.930 . S
C497 C500 1.424 . S
C497 C502 1.245 . S
C497 C503 1.428 . S
C498 C501 1.260 . S
C498 C502 1.477 . S
C498 H516 0.932 . S
C499 C500 1.384 . S
C499 C501 1.479 . S
C499 H517 0.929 . S
C500 C497 1.424 . S
C500 C499 1.384 . S
C500 H518 0.928 . S
C501 C498 1.260 . S
C501 C499 1.479 . S
C502 C497 1.245 . S
C502 C498 1.477 . S
C502 H519 0.932 . S
C503 U486 2.882 . S
C503 C497 1.428 . S
C503 O506 1.301 . S
C503 O507 1.282 . S
O504 U486 2.441 . S
O504 C490 1.249 . S
O505 U486 2.420 . S
O505 C490 1.202 . S
O506 U486 2.455 . S
O506 C503 1.301 . S
O507 U486 2.449 . S
O507 C503 1.282 . S
H508 C481 0.931 . S
H509 C483 0.929 . S
H510 C484 0.930 . S
H511 C485 0.931 . S
H512 C492 0.932 . S
H513 C493 0.930 . S
H514 C494 0.929 . S
H515 C496 0.930 . S
H516 C498 0.932 . S
H517 C499 0.929 . S
H518 C500 0.928 . S
H519 C502 0.932 . S
C520 C521 1.264 . S
C520 C525 1.479 . S
C520 C530 1.465 . S
C521 C520 1.264 . S
C521 C523 1.339 . S
C521 H548 0.931 . S
C522 C523 1.395 . S
C522 C524 1.320 . S
C523 C521 1.339 . S
C523 C522 1.395 . S
C523 H549 0.929 . S
C524 C522 1.320 . S
C524 C525 1.405 . S
C524 H550 0.930 . S
C525 C520 1.479 . S
C525 C524 1.405 . S
C525 H551 0.931 . S
U526 O527 2.454 . S
U526 O528 2.458 . S
U526 C529 2.984 . S
U526 C530 2.847 . S
U526 C543 2.882 . S
U526 O544 2.441 . S
U526 O545 2.420 . S
U526 O546 2.455 . S
U526 O547 2.449 . S
O527 U526 2.454 . S
O527 C529 1.353 . S
O528 U526 2.458 . S
O528 C529 1.286 . S
C529 U526 2.984 . S
C529 O527 1.353 . S
C529 O528 1.286 . S
C529 C531 1.363 . S
C530 C520 1.465 . S
C530 U526 2.847 . S
C530 O544 1.249 . S
C530 O545 1.202 . S
C531 C529 1.363 . S
C531 C533 1.408 . S
C531 C536 1.342 . S
C532 C533 1.310 . S
C532 C535 1.461 . S
C532 H552 0.932 . S
C533 C531 1.408 . S
C533 C532 1.310 . S
C533 H553 0.930 . S
C534 C535 1.474 . S
C534 C536 1.285 . S
C534 H554 0.929 . S
C535 C532 1.461 . S
C535 C534 1.474 . S
C536 C531 1.342 . S
C536 C534 1.285 . S
C536 H555 0.930 . S
C537 C540 1.424 . S
C537 C542 1.245 . S
C537 C543 1.428 . S
C538 C541 1.260 . S
C538 C542 1.477 . S
C538 H556 0.932 . S
C539 C540 1.384 . S
C539 C541 1.479 . S
C539 H557 0.929 . S
C540 C537 1.424 . S
C540 C539 1.384 . S
C540 H558 0.928 . S
C541 C538 1.260 . S
C541 C539 1.479 . S
C542 C537 1.245 . S
C542 C538 1.477 . S
C542 H559 0.932 . S
C543 U526 2.882 . S
C543 C537 1.428 . S
C543 O546 1.301 . S
C543 O547 1.282 . S
O544 U526 2.441 . S
O544 C530 1.249 . S
O545 U526 2.420 . S
O545 C530 1.202 . S
O546 U526 2.455 . S
O546 C543 1.301 . S
O547 U526 2.449 . S
O547 C543 1.282 . S
H548 C521 0.931 . S
H549 C523 0.929 . S
H550 C524 0.930 . S
H551 C525 0.931 . S
H552 C532 0.932 . S
H553 C533 0.930 . S
H554 C534 0.929 . S
H555 C536 0.930 . S
H556 C538 0.932 . S
H557 C539 0.929 . S
H558 C540 0.928 . S
H559 C542 0.932 . S
C560 C561 1.264 . S
C560 C565 1.479 . S
C560 C570 1.465 . S
C561 C560 1.264 . S
C561 C563 1.339 . S
C561 H588 0.931 . S
C562 C563 1.395 . S
C562 C564 1.320 . S
C563 C561 1.339 . S
C563 C562 1.395 . S
C563 H589 0.916 1_565 S
C564 C562 1.320 . S
C564 C565 1.405 . S
C564 H590 0.930 . S
C565 C560 1.479 . S
C565 C564 1.405 . S
C565 H591 0.931 . S
U566 O567 2.454 . S
U566 O568 2.458 . S
U566 C569 2.984 . S
U566 C570 2.847 . S
U566 C583 2.882 1_565 S
U566 O584 2.441 . S
U566 O585 2.420 . S
U566 O586 2.455 . S
U566 O587 2.449 . S
O567 U566 2.454 . S
O567 C569 1.353 . S
O568 U566 2.458 . S
O568 C569 1.286 . S
C569 U566 2.984 . S
C569 O567 1.353 . S
C569 O568 1.286 . S
C569 C571 1.363 . S
C570 C560 1.465 . S
C570 U566 2.847 . S
C570 O584 1.249 . S
C570 O585 1.202 . S
C571 C569 1.363 . S
C571 C573 1.408 . S
C571 C576 1.342 . S
C572 C573 1.310 . S
C572 C575 1.461 . S
C572 H592 0.932 . S
C573 C571 1.408 . S
C573 C572 1.310 . S
C573 H593 0.930 . S
C574 C575 1.474 . S
C574 C576 1.285 . S
C574 H594 0.929 . S
C575 C572 1.461 . S
C575 C574 1.474 . S
C576 C571 1.342 . S
C576 C574 1.285 . S
C576 H595 0.930 . S
C577 C580 1.424 . S
C577 C582 1.245 . S
C577 C583 1.428 . S
C578 C581 1.260 . S
C578 C582 1.477 . S
C578 H596 0.932 . S
C579 C580 1.384 . S
C579 C581 1.479 . S
C579 H597 0.929 . S
C580 C577 1.424 . S
C580 C579 1.384 . S
C580 H598 0.928 . S
C581 C578 1.260 . S
C581 C579 1.479 . S
C582 C577 1.245 . S
C582 C578 1.477 . S
C582 H599 0.932 . S
C583 U566 2.882 1_545 S
C583 C577 1.428 . S
C583 O586 1.301 1_545 S
C583 O587 1.282 1_545 S
O584 U566 2.441 . S
O584 C570 1.249 . S
O585 U566 2.420 . S
O585 C570 1.202 . S
O586 U566 2.455 . S
O586 C583 1.301 1_565 S
O587 U566 2.449 . S
O587 C583 1.282 1_565 S
H588 C561 0.931 . S
H589 C563 0.916 1_545 S
H590 C564 0.930 . S
H591 C565 0.931 . S
H592 C572 0.932 . S
H593 C573 0.930 . S
H594 C574 0.929 . S
H595 C576 0.930 . S
H596 C578 0.932 . S
H597 C579 0.929 . S
H598 C580 0.928 . S
H599 C582 0.932 . S
C600 C601 1.264 . S
C600 C605 1.479 . S
C600 C610 1.465 . S
C601 C600 1.264 . S
C601 C603 1.339 . S
C601 H628 0.931 . S
C602 C603 1.395 . S
C602 C604 1.320 . S
C603 C601 1.339 . S
C603 C602 1.395 . S
C603 H629 0.929 . S
C604 C602 1.320 . S
C604 C605 1.405 . S
C604 H630 0.930 . S
C605 C600 1.479 . S
C605 C604 1.405 . S
C605 H631 0.931 . S
U606 O607 2.454 . S
U606 O608 2.458 . S
U606 C609 2.984 . S
U606 C610 2.847 . S
U606 C623 2.882 . S
U606 O624 2.441 . S
U606 O625 2.420 . S
U606 O626 2.455 . S
U606 O627 2.449 . S
O607 U606 2.454 . S
O607 C609 1.353 . S
O608 U606 2.458 . S
O608 C609 1.286 . S
C609 U606 2.984 . S
C609 O607 1.353 . S
C609 O608 1.286 . S
C609 C611 1.363 . S
C610 C600 1.465 . S
C610 U606 2.847 . S
C610 O624 1.249 . S
C610 O625 1.202 . S
C611 C609 1.363 . S
C611 C613 1.408 . S
C611 C616 1.342 . S
C612 C613 1.310 . S
C612 C615 1.461 . S
C612 H632 0.932 . S
C613 C611 1.408 . S
C613 C612 1.310 . S
C613 H633 0.930 . S
C614 C615 1.474 . S
C614 C616 1.285 . S
C614 H634 0.929 . S
C615 C612 1.461 . S
C615 C614 1.474 . S
C616 C611 1.342 . S
C616 C614 1.285 . S
C616 H635 0.930 . S
C617 C620 1.424 . S
C617 C622 1.245 . S
C617 C623 1.428 . S
C618 C621 1.260 . S
C618 C622 1.477 . S
C618 H636 0.932 . S
C619 C620 1.384 . S
C619 C621 1.479 . S
C619 H637 0.929 . S
C620 C617 1.424 . S
C620 C619 1.384 . S
C620 H638 0.928 . S
C621 C618 1.260 . S
C621 C619 1.479 . S
C622 C617 1.245 . S
C622 C618 1.477 . S
C622 H639 0.932 . S
C623 U606 2.882 . S
C623 C617 1.428 . S
C623 O626 1.301 . S
C623 O627 1.282 . S
O624 U606 2.441 . S
O624 C610 1.249 . S
O625 U606 2.420 . S
O625 C610 1.202 . S
O626 U606 2.455 . S
O626 C623 1.301 . S
O627 U606 2.449 . S
O627 C623 1.282 . S
H628 C601 0.931 . S
H629 C603 0.929 . S
H630 C604 0.930 . S
H631 C605 0.931 . S
H632 C612 0.932 . S
H633 C613 0.930 . S
H634 C614 0.929 . S
H635 C616 0.930 . S
H636 C618 0.932 . S
H637 C619 0.929 . S
H638 C620 0.928 . S
H639 C622 0.932 . S
C640 C641 1.264 . S
C640 C645 1.479 . S
C640 C650 1.465 . S
C641 C640 1.264 . S
C641 C643 1.339 . S
C641 H668 0.931 . S
C642 C643 1.395 . S
C642 C644 1.320 . S
C643 C641 1.339 . S
C643 C642 1.395 . S
C643 H669 0.929 . S
C644 C642 1.320 . S
C644 C645 1.405 . S
C644 H670 0.930 . S
C645 C640 1.479 . S
C645 C644 1.405 . S
C645 H671 0.931 . S
U646 O647 2.454 . S
U646 O648 2.458 . S
U646 C649 2.984 . S
U646 C650 2.847 . S
U646 C663 2.882 . S
U646 O664 2.441 . S
U646 O665 2.420 . S
U646 O666 2.455 . S
U646 O667 2.449 . S
O647 U646 2.454 . S
O647 C649 1.353 . S
O648 U646 2.458 . S
O648 C649 1.286 . S
C649 U646 2.984 . S
C649 O647 1.353 . S
C649 O648 1.286 . S
C649 C651 1.363 . S
C650 C640 1.465 . S
C650 U646 2.847 . S
C650 O664 1.249 . S
C650 O665 1.202 . S
C651 C649 1.363 . S
C651 C653 1.408 . S
C651 C656 1.342 . S
C652 C653 1.310 . S
C652 C655 1.461 . S
C652 H672 0.932 . S
C653 C651 1.408 . S
C653 C652 1.310 . S
C653 H673 0.930 . S
C654 C655 1.474 . S
C654 C656 1.285 . S
C654 H674 0.929 . S
C655 C652 1.461 . S
C655 C654 1.474 . S
C656 C651 1.342 . S
C656 C654 1.285 . S
C656 H675 0.930 . S
C657 C660 1.424 . S
C657 C662 1.245 . S
C657 C663 1.428 . S
C658 C661 1.260 . S
C658 C662 1.477 . S
C658 H676 0.932 . S
C659 C660 1.384 . S
C659 C661 1.479 . S
C659 H677 0.929 . S
C660 C657 1.424 . S
C660 C659 1.384 . S
C660 H678 0.928 . S
C661 C658 1.260 . S
C661 C659 1.479 . S
C662 C657 1.245 . S
C662 C658 1.477 . S
C662 H679 0.932 . S
C663 U646 2.882 . S
C663 C657 1.428 . S
C663 O666 1.301 . S
C663 O667 1.282 . S
O664 U646 2.441 . S
O664 C650 1.249 . S
O665 U646 2.420 . S
O665 C650 1.202 . S
O666 U646 2.455 . S
O666 C663 1.301 . S
O667 U646 2.449 . S
O667 C663 1.282 . S
H668 C641 0.931 . S
H669 C643 0.929 . S
H670 C644 0.930 . S
H671 C645 0.931 . S
H672 C652 0.932 . S
H673 C653 0.930 . S
H674 C654 0.929 . S
H675 C656 0.930 . S
H676 C658 0.932 . S
H677 C659 0.929 . S
H678 C660 0.928 . S
H679 C662 0.932 . S
C680 C681 1.264 . S
C680 C685 1.479 . S
C680 C690 1.465 . S
C681 C680 1.264 . S
C681 C683 1.339 . S
C681 H708 0.931 . S
C682 C683 1.395 . S
C682 C684 1.320 . S
C683 C681 1.339 . S
C683 C682 1.395 . S
C683 H709 0.929 . S
C684 C682 1.320 . S
C684 C685 1.405 . S
C684 H710 0.930 . S
C685 C680 1.479 . S
C685 C684 1.405 . S
C685 H711 0.931 . S
U686 O687 2.454 . S
U686 O688 2.458 . S
U686 C689 2.984 . S
U686 C690 2.847 . S
U686 C703 2.882 . S
U686 O704 2.441 . S
U686 O705 2.420 . S
U686 O706 2.455 . S
U686 O707 2.449 . S
O687 U686 2.454 . S
O687 C689 1.353 . S
O688 U686 2.458 . S
O688 C689 1.286 . S
C689 U686 2.984 . S
C689 O687 1.353 . S
C689 O688 1.286 . S
C689 C691 1.363 . S
C690 C680 1.465 . S
C690 U686 2.847 . S
C690 O704 1.249 . S
C690 O705 1.202 . S
C691 C689 1.363 . S
C691 C693 1.408 . S
C691 C696 1.342 . S
C692 C693 1.310 . S
C692 C695 1.461 . S
C692 H712 0.932 . S
C693 C691 1.408 . S
C693 C692 1.310 . S
C693 H713 0.930 . S
C694 C695 1.474 . S
C694 C696 1.285 . S
C694 H714 0.929 . S
C695 C692 1.461 . S
C695 C694 1.474 . S
C696 C691 1.342 . S
C696 C694 1.285 . S
C696 H715 0.930 . S
C697 C700 1.424 . S
C697 C702 1.245 . S
C697 C703 1.428 . S
C698 C701 1.260 . S
C698 C702 1.477 . S
C698 H716 0.932 . S
C699 C700 1.384 . S
C699 C701 1.479 . S
C699 H717 0.929 . S
C700 C697 1.424 . S
C700 C699 1.384 . S
C700 H718 0.928 . S
C701 C698 1.260 . S
C701 C699 1.479 . S
C702 C697 1.245 . S
C702 C698 1.477 . S
C702 H719 0.932 . S
C703 U686 2.882 . S
C703 C697 1.428 . S
C703 O706 1.301 . S
C703 O707 1.282 . S
O704 U686 2.441 . S
O704 C690 1.249 . S
O705 U686 2.420 . S
O705 C690 1.202 . S
O706 U686 2.455 . S
O706 C703 1.301 . S
O707 U686 2.449 . S
O707 C703 1.282 . S
H708 C681 0.931 . S
H709 C683 0.929 . S
H710 C684 0.930 . S
H711 C685 0.931 . S
H712 C692 0.932 . S
H713 C693 0.930 . S
H714 C694 0.929 . S
H715 C696 0.930 . S
H716 C698 0.932 . S
H717 C699 0.929 . S
H718 C700 0.928 . S
H719 C702 0.932 . S
C720 C721 1.264 . S
C720 C725 1.479 . S
C720 C730 1.465 . S
C721 C720 1.264 . S
C721 C723 1.339 . S
C721 H748 0.931 . S
C722 C723 1.395 . S
C722 C724 1.320 . S
C723 C721 1.339 . S
C723 C722 1.395 . S
C723 H749 0.929 . S
C724 C722 1.320 . S
C724 C725 1.405 . S
C724 H750 0.930 . S
C725 C720 1.479 . S
C725 C724 1.405 . S
C725 H751 0.931 . S
U726 O727 2.454 . S
U726 O728 2.458 . S
U726 C729 2.984 . S
U726 C730 2.847 . S
U726 C743 2.882 . S
U726 O744 2.441 . S
U726 O745 2.420 . S
U726 O746 2.455 . S
U726 O747 2.449 . S
O727 U726 2.454 . S
O727 C729 1.353 . S
O728 U726 2.458 . S
O728 C729 1.286 . S
C729 U726 2.984 . S
C729 O727 1.353 . S
C729 O728 1.286 . S
C729 C731 1.363 . S
C730 C720 1.465 . S
C730 U726 2.847 . S
C730 O744 1.249 . S
C730 O745 1.202 . S
C731 C729 1.363 . S
C731 C733 1.408 . S
C731 C736 1.342 . S
C732 C733 1.310 . S
C732 C735 1.461 . S
C732 H752 0.932 . S
C733 C731 1.408 . S
C733 C732 1.310 . S
C733 H753 0.930 . S
C734 C735 1.474 . S
C734 C736 1.285 . S
C734 H754 0.929 . S
C735 C732 1.461 . S
C735 C734 1.474 . S
C736 C731 1.342 . S
C736 C734 1.285 . S
C736 H755 0.930 . S
C737 C740 1.424 . S
C737 C742 1.245 . S
C737 C743 1.428 . S
C738 C741 1.260 . S
C738 C742 1.477 . S
C738 H756 0.932 . S
C739 C740 1.384 . S
C739 C741 1.479 . S
C739 H757 0.929 . S
C740 C737 1.424 . S
C740 C739 1.384 . S
C740 H758 0.928 . S
C741 C738 1.260 . S
C741 C739 1.479 . S
C742 C737 1.245 . S
C742 C738 1.477 . S
C742 H759 0.932 . S
C743 U726 2.882 . S
C743 C737 1.428 . S
C743 O746 1.301 . S
C743 O747 1.282 . S
O744 U726 2.441 . S
O744 C730 1.249 . S
O745 U726 2.420 . S
O745 C730 1.202 . S
O746 U726 2.455 . S
O746 C743 1.301 . S
O747 U726 2.449 . S
O747 C743 1.282 . S
H748 C721 0.931 . S
H749 C723 0.929 . S
H750 C724 0.930 . S
H751 C725 0.931 . S
H752 C732 0.932 . S
H753 C733 0.930 . S
H754 C734 0.929 . S
H755 C736 0.930 . S
H756 C738 0.932 . S
H757 C739 0.929 . S
H758 C740 0.928 . S
H759 C742 0.932 . S
C760 C761 1.264 . S
C760 C765 1.479 . S
C760 C770 1.465 . S
C761 C760 1.264 . S
C761 C763 1.339 . S
C761 H788 0.931 . S
C762 C763 1.395 . S
C762 C764 1.320 . S
C763 C761 1.339 . S
C763 C762 1.395 . S
C763 H789 0.916 1_556 S
C764 C762 1.320 . S
C764 C765 1.405 . S
C764 H790 0.930 . S
C765 C760 1.479 . S
C765 C764 1.405 . S
C765 H791 0.931 . S
U766 O767 2.454 . S
U766 O768 2.458 . S
U766 C769 2.984 . S
U766 C770 2.847 . S
U766 C783 2.882 1_556 S
U766 O784 2.441 . S
U766 O785 2.420 . S
U766 O786 2.455 . S
U766 O787 2.449 . S
O767 U766 2.454 . S
O767 C769 1.353 . S
O768 U766 2.458 . S
O768 C769 1.286 . S
C769 U766 2.984 . S
C769 O767 1.353 . S
C769 O768 1.286 . S
C769 C771 1.363 . S
C770 C760 1.465 . S
C770 U766 2.847 . S
C770 O784 1.249 . S
C770 O785 1.202 . S
C771 C769 1.363 . S
C771 C773 1.408 . S
C771 C776 1.342 . S
C772 C773 1.310 . S
C772 C775 1.461 . S
C772 H792 0.932 . S
C773 C771 1.408 . S
C773 C772 1.310 . S
C773 H793 0.930 . S
C774 C775 1.474 . S
C774 C776 1.285 . S
C774 H794 0.929 . S
C775 C772 1.461 . S
C775 C774 1.474 . S
C776 C771 1.342 . S
C776 C774 1.285 . S
C776 H795 0.930 . S
C777 C780 1.424 . S
C777 C782 1.245 . S
C777 C783 1.428 . S
C778 C781 1.260 . S
C778 C782 1.477 . S
C778 H796 0.932 . S
C779 C780 1.384 . S
C779 C781 1.479 . S
C779 H797 0.929 . S
C780 C777 1.424 . S
C780 C779 1.384 . S
C780 H798 0.928 . S
C781 C778 1.260 . S
C781 C779 1.479 . S
C782 C777 1.245 . S
C782 C778 1.477 . S
C782 H799 0.932 . S
C783 U766 2.882 1_554 S
C783 C777 1.428 . S
C783 O786 1.301 1_554 S
C783 O787 1.282 1_554 S
O784 U766 2.441 . S
O784 C770 1.249 . S
O785 U766 2.420 . S
O785 C770 1.202 . S
O786 U766 2.455 . S
O786 C783 1.301 1_556 S
O787 U766 2.449 . S
O787 C783 1.282 1_556 S
H788 C761 0.931 . S
H789 C763 0.916 1_554 S
H790 C764 0.930 . S
H791 C765 0.931 . S
H792 C772 0.932 . S
H793 C773 0.930 . S
H794 C774 0.929 . S
H795 C776 0.930 . S
H796 C778 0.932 . S
H797 C779 0.929 . S
H798 C780 0.928 . S
H799 C782 0.932 . S
C800 C801 1.264 . S
C800 C805 1.479 . S
C800 C810 1.465 . S
C801 C800 1.264 . S
C801 C803 1.339 . S
C801 H828 0.931 . S
C802 C803 1.395 . S
C802 C804 1.320 . S
C803 C801 1.339 . S
C803 C802 1.395 . S
C803 H829 0.929 . S
C804 C802 1.320 . S
C804 C805 1.405 . S
C804 H830 0.930 . S
C805 C800 1.479 . S
C805 C804 1.405 . S
C805 H831 0.931 . S
U806 O807 2.454 . S
U806 O808 2.458 . S
U806 C809 2.984 . S
U806 C810 2.847 . S
U806 C823 2.882 . S
U806 O824 2.441 . S
U806 O825 2.420 . S
U806 O826 2.455 . S
U806 O827 2.449 . S
O807 U806 2.454 . S
O807 C809 1.353 . S
O808 U806 2.458 . S
O808 C809 1.286 . S
C809 U806 2.984 . S
C809 O807 1.353 . S
C809 O808 1.286 . S
C809 C811 1.363 . S
C810 C800 1.465 . S
C810 U806 2.847 . S
C810 O824 1.249 . S
C810 O825 1.202 . S
C811 C809 1.363 . S
C811 C813 1.408 . S
C811 C816 1.342 . S
C812 C813 1.310 . S
C812 C815 1.461 . S
C812 H832 0.932 . S
C813 C811 1.408 . S
C813 C812 1.310 . S
C813 H833 0.930 . S
C814 C815 1.474 . S
C814 C816 1.285 . S
C814 H834 0.929 . S
C815 C812 1.461 . S
C815 C814 1.474 . S
C816 C811 1.342 . S
C816 C814 1.285 . S
C816 H835 0.930 . S
C817 C820 1.424 . S
C817 C822 1.245 . S
C817 C823 1.428 . S
C818 C821 1.260 . S
C818 C822 1.477 . S
C818 H836 0.932 . S
C819 C820 1.384 . S
C819 C821 1.479 . S
C819 H837 0.929 . S
C820 C817 1.424 . S
C820 C819 1.384 . S
C820 H838 0.928 . S
C821 C818 1.260 . S
C821 C819 1.479 . S
C822 C817 1.245 . S
C822 C818 1.477 . S
C822 H839 0.932 . S
C823 U806 2.882 . S
C823 C817 1.428 . S
C823 O826 1.301 . S
C823 O827 1.282 . S
O824 U806 2.441 . S
O824 C810 1.249 . S
O825 U806 2.420 . S
O825 C810 1.202 . S
O826 U806 2.455 . S
O826 C823 1.301 . S
O827 U806 2.449 . S
O827 C823 1.282 . S
H828 C801 0.931 . S
H829 C803 0.929 . S
H830 C804 0.930 . S
H831 C805 0.931 . S
H832 C812 0.932 . S
H833 C813 0.930 . S
H834 C814 0.929 . S
H835 C816 0.930 . S
H836 C818 0.932 . S
H837 C819 0.929 . S
H838 C820 0.928 . S
H839 C822 0.932 . S
C840 C841 1.264 . S
C840 C845 1.479 . S
C840 C850 1.465 . S
C841 C840 1.264 . S
C841 C843 1.339 . S
C841 H868 0.931 . S
C842 C843 1.395 . S
C842 C844 1.320 . S
C843 C841 1.339 . S
C843 C842 1.395 . S
C843 H869 0.929 . S
C844 C842 1.320 . S
C844 C845 1.405 . S
C844 H870 0.930 . S
C845 C840 1.479 . S
C845 C844 1.405 . S
C845 H871 0.931 . S
U846 O847 2.454 . S
U846 O848 2.458 . S
U846 C849 2.984 . S
U846 C850 2.847 . S
U846 C863 2.882 . S
U846 O864 2.441 . S
U846 O865 2.420 . S
U846 O866 2.455 . S
U846 O867 2.449 . S
O847 U846 2.454 . S
O847 C849 1.353 . S
O848 U846 2.458 . S
O848 C849 1.286 . S
C849 U846 2.984 . S
C849 O847 1.353 . S
C849 O848 1.286 . S
C849 C851 1.363 . S
C850 C840 1.465 . S
C850 U846 2.847 . S
C850 O864 1.249 . S
C850 O865 1.202 . S
C851 C849 1.363 . S
C851 C853 1.408 . S
C851 C856 1.342 . S
C852 C853 1.310 . S
C852 C855 1.461 . S
C852 H872 0.932 . S
C853 C851 1.408 . S
C853 C852 1.310 . S
C853 H873 0.930 . S
C854 C855 1.474 . S
C854 C856 1.285 . S
C854 H874 0.929 . S
C855 C852 1.461 . S
C855 C854 1.474 . S
C856 C851 1.342 . S
C856 C854 1.285 . S
C856 H875 0.930 . S
C857 C860 1.424 . S
C857 C862 1.245 . S
C857 C863 1.428 . S
C858 C861 1.260 . S
C858 C862 1.477 . S
C858 H876 0.932 . S
C859 C860 1.384 . S
C859 C861 1.479 . S
C859 H877 0.929 . S
C860 C857 1.424 . S
C860 C859 1.384 . S
C860 H878 0.928 . S
C861 C858 1.260 . S
C861 C859 1.479 . S
C862 C857 1.245 . S
C862 C858 1.477 . S
C862 H879 0.932 . S
C863 U846 2.882 . S
C863 C857 1.428 . S
C863 O866 1.301 . S
C863 O867 1.282 . S
O864 U846 2.441 . S
O864 C850 1.249 . S
O865 U846 2.420 . S
O865 C850 1.202 . S
O866 U846 2.455 . S
O866 C863 1.301 . S
O867 U846 2.449 . S
O867 C863 1.282 . S
H868 C841 0.931 . S
H869 C843 0.929 . S
H870 C844 0.930 . S
H871 C845 0.931 . S
H872 C852 0.932 . S
H873 C853 0.930 . S
H874 C854 0.929 . S
H875 C856 0.930 . S
H876 C858 0.932 . S
H877 C859 0.929 . S
H878 C860 0.928 . S
H879 C862 0.932 . S
C880 C881 1.264 . S
C880 C885 1.479 . S
C880 C890 1.465 . S
C881 C880 1.264 . S
C881 C883 1.339 . S
C881 H908 0.931 . S
C882 C883 1.395 . S
C882 C884 1.320 . S
C883 C881 1.339 . S
C883 C882 1.395 . S
C883 H909 0.929 . S
C884 C882 1.320 . S
C884 C885 1.405 . S
C884 H910 0.930 . S
C885 C880 1.479 . S
C885 C884 1.405 . S
C885 H911 0.931 . S
U886 O887 2.454 . S
U886 O888 2.458 . S
U886 C889 2.984 . S
U886 C890 2.847 . S
U886 C903 2.882 . S
U886 O904 2.441 . S
U886 O905 2.420 . S
U886 O906 2.455 . S
U886 O907 2.449 . S
O887 U886 2.454 . S
O887 C889 1.353 . S
O888 U886 2.458 . S
O888 C889 1.286 . S
C889 U886 2.984 . S
C889 O887 1.353 . S
C889 O888 1.286 . S
C889 C891 1.363 . S
C890 C880 1.465 . S
C890 U886 2.847 . S
C890 O904 1.249 . S
C890 O905 1.202 . S
C891 C889 1.363 . S
C891 C893 1.408 . S
C891 C896 1.342 . S
C892 C893 1.310 . S
C892 C895 1.461 . S
C892 H912 0.932 . S
C893 C891 1.408 . S
C893 C892 1.310 . S
C893 H913 0.930 . S
C894 C895 1.474 . S
C894 C896 1.285 . S
C894 H914 0.929 . S
C895 C892 1.461 . S
C895 C894 1.474 . S
C896 C891 1.342 . S
C896 C894 1.285 . S
C896 H915 0.930 . S
C897 C900 1.424 . S
C897 C902 1.245 . S
C897 C903 1.428 . S
C898 C901 1.260 . S
C898 C902 1.477 . S
C898 H916 0.932 . S
C899 C900 1.384 . S
C899 C901 1.479 . S
C899 H917 0.929 . S
C900 C897 1.424 . S
C900 C899 1.384 . S
C900 H918 0.928 . S
C901 C898 1.260 . S
C901 C899 1.479 . S
C902 C897 1.245 . S
C902 C898 1.477 . S
C902 H919 0.932 . S
C903 U886 2.882 . S
C903 C897 1.428 . S
C903 O906 1.301 . S
C903 O907 1.282 . S
O904 U886 2.441 . S
O904 C890 1.249 . S
O905 U886 2.420 . S
O905 C890 1.202 . S
O906 U886 2.455 . S
O906 C903 1.301 . S
O907 U886 2.449 . S
O907 C903 1.282 . S
H908 C881 0.931 . S
H909 C883 0.929 . S
H910 C884 0.930 . S
H911 C885 0.931 . S
H912 C892 0.932 . S
H913 C893 0.930 . S
H914 C894 0.929 . S
H915 C896 0.930 . S
H916 C898 0.932 . S
H917 C899 0.929 . S
H918 C900 0.928 . S
H919 C902 0.932 . S
C920 C921 1.264 . S
C920 C925 1.479 . S
C920 C930 1.465 . S
C921 C920 1.264 . S
C921 C923 1.339 . S
C921 H948 0.931 . S
C922 C923 1.395 . S
C922 C924 1.320 . S
C923 C921 1.339 . S
C923 C922 1.395 . S
C923 H949 0.916 1_655 S
C924 C922 1.320 . S
C924 C925 1.405 . S
C924 H950 0.930 . S
C925 C920 1.479 . S
C925 C924 1.405 . S
C925 H951 0.931 . S
U926 O927 2.454 . S
U926 O928 2.458 . S
U926 C929 2.984 . S
U926 C930 2.847 . S
U926 C943 2.882 1_655 S
U926 O944 2.441 . S
U926 O945 2.420 . S
U926 O946 2.455 . S
U926 O947 2.449 . S
O927 U926 2.454 . S
O927 C929 1.353 . S
O928 U926 2.458 . S
O928 C929 1.286 . S
C929 U926 2.984 . S
C929 O927 1.353 . S
C929 O928 1.286 . S
C929 C931 1.363 . S
C930 C920 1.465 . S
C930 U926 2.847 . S
C930 O944 1.249 . S
C930 O945 1.202 . S
C931 C929 1.363 . S
C931 C933 1.408 . S
C931 C936 1.342 . S
C932 C933 1.310 . S
C932 C935 1.461 . S
C932 H952 0.932 . S
C933 C931 1.408 . S
C933 C932 1.310 . S
C933 H953 0.930 . S
C934 C935 1.474 . S
C934 C936 1.285 . S
C934 H954 0.929 . S
C935 C932 1.461 . S
C935 C934 1.474 . S
C936 C931 1.342 . S
C936 C934 1.285 . S
C936 H955 0.930 . S
C937 C940 1.424 . S
C937 C942 1.245 . S
C937 C943 1.428 . S
C938 C941 1.260 . S
C938 C942 1.477 . S
C938 H956 0.932 . S
C939 C940 1.384 . S
C939 C941 1.479 . S
C939 H957 0.929 . S
C940 C937 1.424 . S
C940 C939 1.384 . S
C940 H958 0.928 . S
C941 C938 1.260 . S
C941 C939 1.479 . S
C942 C937 1.245 . S
C942 C938 1.477 . S
C942 H959 0.932 . S
C943 U926 2.882 1_455 S
C943 C937 1.428 . S
C943 O946 1.301 1_455 S
C943 O947 1.282 1_455 S
O944 U926 2.441 . S
O944 C930 1.249 . S
O945 U926 2.420 . S
O945 C930 1.202 . S
O946 U926 2.455 . S
O946 C943 1.301 1_655 S
O947 U926 2.449 . S
O947 C943 1.282 1_655 S
H948 C921 0.931 . S
H949 C923 0.916 1_455 S
H950 C924 0.930 . S
H951 C925 0.931 . S
H952 C932 0.932 . S
H953 C933 0.930 . S
H954 C934 0.929 . S
H955 C936 0.930 . S
H956 C938 0.932 . S
H957 C939 0.929 . S
H958 C940 0.928 . S
H959 C942 0.932 . S
C960 C961 1.264 . S
C960 C965 1.479 . S
C960 C970 1.465 . S
C961 C960 1.264 . S
C961 C963 1.339 . S
C961 H988 0.931 . S
C962 C963 1.395 . S
C962 C964 1.320 . S
C963 C961 1.339 . S
C963 C962 1.395 . S
C963 H989 0.929 . S
C964 C962 1.320 . S
C964 C965 1.405 . S
C964 H990 0.930 . S
C965 C960 1.479 . S
C965 C964 1.405 . S
C965 H991 0.931 . S
U966 O967 2.454 . S
U966 O968 2.458 . S
U966 C969 2.984 . S
U966 C970 2.847 . S
U966 C983 2.882 . S
U966 O984 2.441 . S
U966 O985 2.420 . S
U966 O986 2.455 . S
U966 O987 2.449 . S
O967 U966 2.454 . S
O967 C969 1.353 . S
O968 U966 2.458 . S
O968 C969 1.286 . S
C969 U966 2.984 . S
C969 O967 1.353 . S
C969 O968 1.286 . S
C969 C971 1.363 . S
C970 C960 1.465 . S
C970 U966 2.847 . S
C970 O984 1.249 . S
C970 O985 1.202 . S
C971 C969 1.363 . S
C971 C973 1.408 . S
C971 C976 1.342 . S
C972 C973 1.310 . S
C972 C975 1.461 . S
C972 H992 0.932 . S
C973 C971 1.408 . S
C973 C972 1.310 . S
C973 H993 0.930 . S
C974 C975 1.474 . S
C974 C976 1.285 . S
C974 H994 0.929 . S
C975 C972 1.461 . S
C975 C974 1.474 . S
C976 C971 1.342 . S
C976 C974 1.285 . S
C976 H995 0.930 . S
C977 C980 1.424 . S
C977 C982 1.245 . S
C977 C983 1.428 . S
C978 C981 1.260 . S
C978 C982 1.477 . S
C978 H996 0.932 . S
C979 C980 1.384 . S
C979 C981 1.479 . S
C979 H997 0.929 . S
C980 C977 1.424 . S
C980 C979 1.384 . S
C980 H998 0.928 . S
C981 C978 1.260 . S
C981 C979 1.479 . S
C982 C977 1.245 . S
C982 C978 1.477 . S
C982 H999 0.932 . S
C983 U966 2.882 . S
C983 C977 1.428 . S
C983 O986 1.301 . S
C983 O987 1.282 . S
O984 U966 2.441 . S
O984 C970 1.249 . S
O985 U966 2.420 . S
O985 C970 1.202 . S
O986 U966 2.455 . S
O986 C983 1.301 . S
O987 U966 2.449 . S
O987 C983 1.282 . S
H988 C961 0.931 . S
H989 C963 0.929 . S
H990 C964 0.930 . S
H991 C965 0.931 . S
H992 C972 0.932 . S
H993 C973 0.930 . S
H994 C974 0.929 . S
H995 C976 0.930 . S
H996 C978 0.932 . S
H997 C979 0.929 . S
H998 C980 0.928 . S
H999 C982 0.932 . S
C1000 C1001 1.264 . S
C1000 C1005 1.479 . S
C1000 C1010 1.465 . S
C1001 C1000 1.264 . S
C1001 C1003 1.339 . S
C1001 H1028 0.931 . S
C1002 C1003 1.395 . S
C1002 C1004 1.320 . S
C1003 C1001 1.339 . S
C1003 C1002 1.395 . S
C1003 H1029 0.929 . S
C1004 C1002 1.320 . S
C1004 C1005 1.405 . S
C1004 H1030 0.930 . S
C1005 C1000 1.479 . S
C1005 C1004 1.405 . S
C1005 H1031 0.931 . S
U1006 O1007 2.454 . S
U1006 O1008 2.458 . S
U1006 C1009 2.984 . S
U1006 C1010 2.847 . S
U1006 C1023 2.882 . S
U1006 O1024 2.441 . S
U1006 O1025 2.420 . S
U1006 O1026 2.455 . S
U1006 O1027 2.449 . S
O1007 U1006 2.454 . S
O1007 C1009 1.353 . S
O1008 U1006 2.458 . S
O1008 C1009 1.286 . S
C1009 U1006 2.984 . S
C1009 O1007 1.353 . S
C1009 O1008 1.286 . S
C1009 C1011 1.363 . S
C1010 C1000 1.465 . S
C1010 U1006 2.847 . S
C1010 O1024 1.249 . S
C1010 O1025 1.202 . S
C1011 C1009 1.363 . S
C1011 C1013 1.408 . S
C1011 C1016 1.342 . S
C1012 C1013 1.310 . S
C1012 C1015 1.461 . S
C1012 H1032 0.932 . S
C1013 C1011 1.408 . S
C1013 C1012 1.310 . S
C1013 H1033 0.930 . S
C1014 C1015 1.474 . S
C1014 C1016 1.285 . S
C1014 H1034 0.929 . S
C1015 C1012 1.461 . S
C1015 C1014 1.474 . S
C1016 C1011 1.342 . S
C1016 C1014 1.285 . S
C1016 H1035 0.930 . S
C1017 C1020 1.424 . S
C1017 C1022 1.245 . S
C1017 C1023 1.428 . S
C1018 C1021 1.260 . S
C1018 C1022 1.477 . S
C1018 H1036 0.932 . S
C1019 C1020 1.384 . S
C1019 C1021 1.479 . S
C1019 H1037 0.929 . S
C1020 C1017 1.424 . S
C1020 C1019 1.384 . S
C1020 H1038 0.928 . S
C1021 C1018 1.260 . S
C1021 C1019 1.479 . S
C1022 C1017 1.245 . S
C1022 C1018 1.477 . S
C1022 H1039 0.932 . S
C1023 U1006 2.882 . S
C1023 C1017 1.428 . S
C1023 O1026 1.301 . S
C1023 O1027 1.282 . S
O1024 U1006 2.441 . S
O1024 C1010 1.249 . S
O1025 U1006 2.420 . S
O1025 C1010 1.202 . S
O1026 U1006 2.455 . S
O1026 C1023 1.301 . S
O1027 U1006 2.449 . S
O1027 C1023 1.282 . S
H1028 C1001 0.931 . S
H1029 C1003 0.929 . S
H1030 C1004 0.930 . S
H1031 C1005 0.931 . S
H1032 C1012 0.932 . S
H1033 C1013 0.930 . S
H1034 C1014 0.929 . S
H1035 C1016 0.930 . S
H1036 C1018 0.932 . S
H1037 C1019 0.929 . S
H1038 C1020 0.928 . S
H1039 C1022 0.932 . S
C1040 C1041 1.264 . S
C1040 C1045 1.479 . S
C1040 C1050 1.465 . S
C1041 C1040 1.264 . S
C1041 C1043 1.339 . S
C1041 H1068 0.931 . S
C1042 C1043 1.395 . S
C1042 C1044 1.320 . S
C1043 C1041 1.339 . S
C1043 C1042 1.395 . S
C1043 H1069 0.929 . S
C1044 C1042 1.320 . S
C1044 C1045 1.405 . S
C1044 H1070 0.930 . S
C1045 C1040 1.479 . S
C1045 C1044 1.405 . S
C1045 H1071 0.931 . S
U1046 O1047 2.411 1_565 S
U1046 O1048 2.384 1_565 S
U1046 C1049 2.919 1_565 S
U1046 C1050 2.910 . S
U1046 C1063 2.885 . S
U1046 O1064 2.481 . S
U1046 O1065 2.494 . S
U1046 O1066 2.424 1_565 S
U1046 O1067 2.484 . S
O1047 U1046 2.411 1_545 S
O1047 C1049 1.353 . S
O1048 U1046 2.384 1_545 S
O1048 C1049 1.286 . S
C1049 U1046 2.919 1_545 S
C1049 O1047 1.353 . S
C1049 O1048 1.286 . S
C1049 C1051 1.363 . S
C1050 C1040 1.465 . S
C1050 U1046 2.910 . S
C1050 O1064 1.249 . S
C1050 O1065 1.202 . S
C1051 C1049 1.363 . S
C1051 C1053 1.408 . S
C1051 C1056 1.342 . S
C1052 C1053 1.310 . S
C1052 C1055 1.461 . S
C1052 H1072 0.932 . S
C1053 C1051 1.408 . S
C1053 C1052 1.310 . S
C1053 H1073 0.930 . S
C1054 C1055 1.474 . S
C1054 C1056 1.285 . S
C1054 H1074 0.929 . S
C1055 C1052 1.461 . S
C1055 C1054 1.474 . S
C1056 C1051 1.342 . S
C1056 C1054 1.285 . S
C1056 H1075 0.930 . S
C1057 C1060 1.457 . S
C1057 C1062 1.212 1_565 S
C1057 C1063 1.429 . S
C1058 C1061 1.260 1_545 S
C1058 C1062 1.477 . S
C1058 H1076 0.932 . S
C1059 C1060 1.384 . S
C1059 C1061 1.479 . S
C1059 H1077 0.929 . S
C1060 C1057 1.457 . S
C1060 C1059 1.384 . S
C1060 H1078 0.928 . S
C1061 C1058 1.260 1_565 S
C1061 C1059 1.479 . S
C1062 C1057 1.212 1_545 S
C1062 C1058 1.477 . S
C1062 H1079 0.932 . S
C1063 U1046 2.885 . S
C1063 C1057 1.429 . S
C1063 O1066 1.301 1_565 S
C1063 O1067 1.282 . S
O1064 U1046 2.481 . S
O1064 C1050 1.249 . S
O1065 U1046 2.494 . S
O1065 C1050 1.202 . S
O1066 U1046 2.424 1_545 S
O1066 C1063 1.301 1_545 S
O1067 U1046 2.484 . S
O1067 C1063 1.282 . S
H1068 C1041 0.931 . S
H1069 C1043 0.929 . S
H1070 C1044 0.930 . S
H1071 C1045 0.931 . S
H1072 C1052 0.932 . S
H1073 C1053 0.930 . S
H1074 C1054 0.929 . S
H1075 C1056 0.930 . S
H1076 C1058 0.932 . S
H1077 C1059 0.929 . S
H1078 C1060 0.928 . S
H1079 C1062 0.932 . S
C1080 C1081 1.264 . S
C1080 C1085 1.479 . S
C1080 C1090 1.465 . S
C1081 C1080 1.264 . S
C1081 C1083 1.339 . S
C1081 H1108 0.931 . S
C1082 C1083 1.395 . S
C1082 C1084 1.320 . S
C1083 C1081 1.339 . S
C1083 C1082 1.395 . S
C1083 H1109 0.929 . S
C1084 C1082 1.320 . S
C1084 C1085 1.405 . S
C1084 H1110 0.930 . S
C1085 C1080 1.479 . S
C1085 C1084 1.405 . S
C1085 H1111 0.931 . S
U1086 O1087 2.425 1_545 S
U1086 O1088 2.395 1_545 S
U1086 C1089 2.933 1_545 S
U1086 C1090 2.906 . S
U1086 C1103 2.875 1_545 S
U1086 O1104 2.483 . S
U1086 O1105 2.485 . S
U1086 O1106 2.420 1_545 S
U1086 O1107 2.470 . S
O1087 U1086 2.425 1_565 S
O1087 C1089 1.353 . S
O1088 U1086 2.395 1_565 S
O1088 C1089 1.286 . S
C1089 U1086 2.933 1_565 S
C1089 O1087 1.353 . S
C1089 O1088 1.286 . S
C1089 C1091 1.363 . S
C1090 C1080 1.465 . S
C1090 U1086 2.906 . S
C1090 O1104 1.249 . S
C1090 O1105 1.202 . S
C1091 C1089 1.363 . S
C1091 C1093 1.408 . S
C1091 C1096 1.342 . S
C1092 C1093 1.310 . S
C1092 C1095 1.461 . S
C1092 H1112 0.932 . S
C1093 C1091 1.408 . S
C1093 C1092 1.310 . S
C1093 H1113 0.930 . S
C1094 C1095 1.474 . S
C1094 C1096 1.285 . S
C1094 H1114 0.929 . S
C1095 C1092 1.461 . S
C1095 C1094 1.474 . S
C1096 C1091 1.342 . S
C1096 C1094 1.285 . S
C1096 H1115 0.930 . S
C1097 C1100 1.424 1_565 S
C1097 C1102 1.245 . S
C1097 C1103 1.428 . S
C1098 C1101 1.260 . S
C1098 C1102 1.477 . S
C1098 H1116 0.932 . S
C1099 C1100 1.384 . S
C1099 C1101 1.479 1_545 S
C1099 H1117 0.929 . S
C1100 C1097 1.424 1_545 S
C1100 C1099 1.384 . S
C1100 H1118 0.928 . S
C1101 C1098 1.260 . S
C1101 C1099 1.479 1_565 S
C1102 C1097 1.245 . S
C1102 C1098 1.477 . S
C1102 H1119 0.932 . S
C1103 U1086 2.875 1_565 S
C1103 C1097 1.428 . S
C1103 O1106 1.301 . S
C1103 O1107 1.282 1_565 S
O1104 U1086 2.483 . S
O1104 C1090 1.249 . S
O1105 U1086 2.485 . S
O1105 C1090 1.202 . S
O1106 U1086 2.420 1_565 S
O1106 C1103 1.301 . S
O1107 U1086 2.470 . S
O1107 C1103 1.282 1_545 S
H1108 C1081 0.931 . S
H1109 C1083 0.929 . S
H1110 C1084 0.930 . S
H1111 C1085 0.931 . S
H1112 C1092 0.932 . S
H1113 C1093 0.930 . S
H1114 C1094 0.929 . S
H1115 C1096 0.930 . S
H1116 C1098 0.932 . S
H1117 C1099 0.929 . S
H1118 C1100 0.928 . S
H1119 C1102 0.932 . S
C1120 C1121 1.264 . S
C1120 C1125 1.479 . S
C1120 C1130 1.465 . S
C1121 C1120 1.264 . S
C1121 C1123 1.339 . S
C1121 H1148 0.931 . S
C1122 C1123 1.395 . S
C1122 C1124 1.320 . S
C1123 C1121 1.339 . S
C1123 C1122 1.395 . S
C1123 H1149 0.929 . S
C1124 C1122 1.320 . S
C1124 C1125 1.405 . S
C1124 H1150 0.930 . S
C1125 C1120 1.479 . S
C1125 C1124 1.405 . S
C1125 H1151 0.931 . S
U1126 O1127 2.454 . S
U1126 O1128 2.458 . S
U1126 C1129 2.984 . S
U1126 C1130 2.847 . S
U1126 C1143 2.882 . S
U1126 O1144 2.441 . S
U1126 O1145 2.420 . S
U1126 O1146 2.455 . S
U1126 O1147 2.449 . S
O1127 U1126 2.454 . S
O1127 C1129 1.353 . S
O1128 U1126 2.458 . S
O1128 C1129 1.286 . S
C1129 U1126 2.984 . S
C1129 O1127 1.353 . S
C1129 O1128 1.286 . S
C1129 C1131 1.363 . S
C1130 C1120 1.465 . S
C1130 U1126 2.847 . S
C1130 O1144 1.249 . S
C1130 O1145 1.202 . S
C1131 C1129 1.363 . S
C1131 C1133 1.408 . S
C1131 C1136 1.342 . S
C1132 C1133 1.310 . S
C1132 C1135 1.461 . S
C1132 H1152 0.932 . S
C1133 C1131 1.408 . S
C1133 C1132 1.310 . S
C1133 H1153 0.930 . S
C1134 C1135 1.474 . S
C1134 C1136 1.285 . S
C1134 H1154 0.929 . S
C1135 C1132 1.461 . S
C1135 C1134 1.474 . S
C1136 C1131 1.342 . S
C1136 C1134 1.285 . S
C1136 H1155 0.930 . S
C1137 C1140 1.424 . S
C1137 C1142 1.245 . S
C1137 C1143 1.428 . S
C1138 C1141 1.260 . S
C1138 C1142 1.477 . S
C1138 H1156 0.932 . S
C1139 C1140 1.384 . S
C1139 C1141 1.479 . S
C1139 H1157 0.929 . S
C1140 C1137 1.424 . S
C1140 C1139 1.384 . S
C1140 H1158 0.928 . S
C1141 C1138 1.260 . S
C1141 C1139 1.479 . S
C1142 C1137 1.245 . S
C1142 C1138 1.477 . S
C1142 H1159 0.932 . S
C1143 U1126 2.882 . S
C1143 C1137 1.428 . S
C1143 O1146 1.301 . S
C1143 O1147 1.282 . S
O1144 U1126 2.441 . S
O1144 C1130 1.249 . S
O1145 U1126 2.420 . S
O1145 C1130 1.202 . S
O1146 U1126 2.455 . S
O1146 C1143 1.301 . S
O1147 U1126 2.449 . S
O1147 C1143 1.282 . S
H1148 C1121 0.931 . S
H1149 C1123 0.929 . S
H1150 C1124 0.930 . S
H1151 C1125 0.931 . S
H1152 C1132 0.932 . S
H1153 C1133 0.930 . S
H1154 C1134 0.929 . S
H1155 C1136 0.930 . S
H1156 C1138 0.932 . S
H1157 C1139 0.929 . S
H1158 C1140 0.928 . S
H1159 C1142 0.932 . S
C1160 C1161 1.264 . S
C1160 C1165 1.479 . S
C1160 C1170 1.465 . S
C1161 C1160 1.264 . S
C1161 C1163 1.339 . S
C1161 H1188 0.931 . S
C1162 C1163 1.395 . S
C1162 C1164 1.320 . S
C1163 C1161 1.339 . S
C1163 C1162 1.395 . S
C1163 H1189 0.929 . S
C1164 C1162 1.320 . S
C1164 C1165 1.405 . S
C1164 H1190 0.930 . S
C1165 C1160 1.479 . S
C1165 C1164 1.405 . S
C1165 H1191 0.931 . S
U1166 O1167 2.425 1_554 S
U1166 O1168 2.395 1_554 S
U1166 C1169 2.932 1_554 S
U1166 C1170 2.906 . S
U1166 C1183 2.875 1_554 S
U1166 O1184 2.483 . S
U1166 O1185 2.485 . S
U1166 O1186 2.420 1_554 S
U1166 O1187 2.470 . S
O1167 U1166 2.425 1_556 S
O1167 C1169 1.353 . S
O1168 U1166 2.395 1_556 S
O1168 C1169 1.286 . S
C1169 U1166 2.932 1_556 S
C1169 O1167 1.353 . S
C1169 O1168 1.286 . S
C1169 C1171 1.363 . S
C1170 C1160 1.465 . S
C1170 U1166 2.906 . S
C1170 O1184 1.249 . S
C1170 O1185 1.202 . S
C1171 C1169 1.363 . S
C1171 C1173 1.408 . S
C1171 C1176 1.342 . S
C1172 C1173 1.310 . S
C1172 C1175 1.461 . S
C1172 H1192 0.932 . S
C1173 C1171 1.408 . S
C1173 C1172 1.310 . S
C1173 H1193 0.930 . S
C1174 C1175 1.474 . S
C1174 C1176 1.285 . S
C1174 H1194 0.929 . S
C1175 C1172 1.461 . S
C1175 C1174 1.474 . S
C1176 C1171 1.342 . S
C1176 C1174 1.285 . S
C1176 H1195 0.930 . S
C1177 C1180 1.424 1_556 S
C1177 C1182 1.245 . S
C1177 C1183 1.428 . S
C1178 C1181 1.260 . S
C1178 C1182 1.477 . S
C1178 H1196 0.932 . S
C1179 C1180 1.384 . S
C1179 C1181 1.479 1_554 S
C1179 H1197 0.929 . S
C1180 C1177 1.424 1_554 S
C1180 C1179 1.384 . S
C1180 H1198 0.928 . S
C1181 C1178 1.260 . S
C1181 C1179 1.479 1_556 S
C1182 C1177 1.245 . S
C1182 C1178 1.477 . S
C1182 H1199 0.932 . S
C1183 U1166 2.875 1_556 S
C1183 C1177 1.428 . S
C1183 O1186 1.301 . S
C1183 O1187 1.282 1_556 S
O1184 U1166 2.483 . S
O1184 C1170 1.249 . S
O1185 U1166 2.485 . S
O1185 C1170 1.202 . S
O1186 U1166 2.420 1_556 S
O1186 C1183 1.301 . S
O1187 U1166 2.470 . S
O1187 C1183 1.282 1_554 S
H1188 C1161 0.931 . S
H1189 C1163 0.929 . S
H1190 C1164 0.930 . S
H1191 C1165 0.931 . S
H1192 C1172 0.932 . S
H1193 C1173 0.930 . S
H1194 C1174 0.929 . S
H1195 C1176 0.930 . S
H1196 C1178 0.932 . S
H1197 C1179 0.929 . S
H1198 C1180 0.928 . S
H1199 C1182 0.932 . S
C1200 C1201 1.264 . S
C1200 C1205 1.479 . S
C1200 C1210 1.465 . S
C1201 C1200 1.264 . S
C1201 C1203 1.339 . S
C1201 H1228 0.931 . S
C1202 C1203 1.395 . S
C1202 C1204 1.320 . S
C1203 C1201 1.339 . S
C1203 C1202 1.395 . S
C1203 H1229 0.929 . S
C1204 C1202 1.320 . S
C1204 C1205 1.405 . S
C1204 H1230 0.930 . S
C1205 C1200 1.479 . S
C1205 C1204 1.405 . S
C1205 H1231 0.931 . S
U1206 O1207 2.454 . S
U1206 O1208 2.458 . S
U1206 C1209 2.984 . S
U1206 C1210 2.847 . S
U1206 C1223 2.882 . S
U1206 O1224 2.441 . S
U1206 O1225 2.420 . S
U1206 O1226 2.455 . S
U1206 O1227 2.449 . S
O1207 U1206 2.454 . S
O1207 C1209 1.353 . S
O1208 U1206 2.458 . S
O1208 C1209 1.286 . S
C1209 U1206 2.984 . S
C1209 O1207 1.353 . S
C1209 O1208 1.286 . S
C1209 C1211 1.363 . S
C1210 C1200 1.465 . S
C1210 U1206 2.847 . S
C1210 O1224 1.249 . S
C1210 O1225 1.202 . S
C1211 C1209 1.363 . S
C1211 C1213 1.408 . S
C1211 C1216 1.342 . S
C1212 C1213 1.310 . S
C1212 C1215 1.461 . S
C1212 H1232 0.932 . S
C1213 C1211 1.408 . S
C1213 C1212 1.310 . S
C1213 H1233 0.930 . S
C1214 C1215 1.474 . S
C1214 C1216 1.285 . S
C1214 H1234 0.929 . S
C1215 C1212 1.461 . S
C1215 C1214 1.474 . S
C1216 C1211 1.342 . S
C1216 C1214 1.285 . S
C1216 H1235 0.930 . S
C1217 C1220 1.424 . S
C1217 C1222 1.245 . S
C1217 C1223 1.428 . S
C1218 C1221 1.260 . S
C1218 C1222 1.477 . S
C1218 H1236 0.932 . S
C1219 C1220 1.384 . S
C1219 C1221 1.479 . S
C1219 H1237 0.929 . S
C1220 C1217 1.424 . S
C1220 C1219 1.384 . S
C1220 H1238 0.928 . S
C1221 C1218 1.260 . S
C1221 C1219 1.479 . S
C1222 C1217 1.245 . S
C1222 C1218 1.477 . S
C1222 H1239 0.932 . S
C1223 U1206 2.882 . S
C1223 C1217 1.428 . S
C1223 O1226 1.301 . S
C1223 O1227 1.282 . S
O1224 U1206 2.441 . S
O1224 C1210 1.249 . S
O1225 U1206 2.420 . S
O1225 C1210 1.202 . S
O1226 U1206 2.455 . S
O1226 C1223 1.301 . S
O1227 U1206 2.449 . S
O1227 C1223 1.282 . S
H1228 C1201 0.931 . S
H1229 C1203 0.929 . S
H1230 C1204 0.930 . S
H1231 C1205 0.931 . S
H1232 C1212 0.932 . S
H1233 C1213 0.930 . S
H1234 C1214 0.929 . S
H1235 C1216 0.930 . S
H1236 C1218 0.932 . S
H1237 C1219 0.929 . S
H1238 C1220 0.928 . S
H1239 C1222 0.932 . S
C1240 C1241 1.264 . S
C1240 C1245 1.479 . S
C1240 C1250 1.465 . S
C1241 C1240 1.264 . S
C1241 C1243 1.339 . S
C1241 H1268 0.931 . S
C1242 C1243 1.395 . S
C1242 C1244 1.320 . S
C1243 C1241 1.339 . S
C1243 C1242 1.395 . S
C1243 H1269 0.929 . S
C1244 C1242 1.320 . S
C1244 C1245 1.405 . S
C1244 H1270 0.930 . S
C1245 C1240 1.479 . S
C1245 C1244 1.405 . S
C1245 H1271 0.931 . S
U1246 O1247 2.411 1_556 S
U1246 O1248 2.384 1_556 S
U1246 C1249 2.919 1_556 S
U1246 C1250 2.910 . S
U1246 C1263 2.885 . S
U1246 O1264 2.481 . S
U1246 O1265 2.494 . S
U1246 O1266 2.424 1_556 S
U1246 O1267 2.484 . S
O1247 U1246 2.411 1_554 S
O1247 C1249 1.353 . S
O1248 U1246 2.384 1_554 S
O1248 C1249 1.286 . S
C1249 U1246 2.919 1_554 S
C1249 O1247 1.353 . S
C1249 O1248 1.286 . S
C1249 C1251 1.363 . S
C1250 C1240 1.465 . S
C1250 U1246 2.910 . S
C1250 O1264 1.249 . S
C1250 O1265 1.202 . S
C1251 C1249 1.363 . S
C1251 C1253 1.408 . S
C1251 C1256 1.342 . S
C1252 C1253 1.310 . S
C1252 C1255 1.461 . S
C1252 H1272 0.932 . S
C1253 C1251 1.408 . S
C1253 C1252 1.310 . S
C1253 H1273 0.930 . S
C1254 C1255 1.474 . S
C1254 C1256 1.285 . S
C1254 H1274 0.929 . S
C1255 C1252 1.461 . S
C1255 C1254 1.474 . S
C1256 C1251 1.342 . S
C1256 C1254 1.285 . S
C1256 H1275 0.930 . S
C1257 C1260 1.458 . S
C1257 C1262 1.212 1_556 S
C1257 C1263 1.429 . S
C1258 C1261 1.260 1_554 S
C1258 C1262 1.477 . S
C1258 H1276 0.932 . S
C1259 C1260 1.384 . S
C1259 C1261 1.479 . S
C1259 H1277 0.929 . S
C1260 C1257 1.458 . S
C1260 C1259 1.384 . S
C1260 H1278 0.928 . S
C1261 C1258 1.260 1_556 S
C1261 C1259 1.479 . S
C1262 C1257 1.212 1_554 S
C1262 C1258 1.477 . S
C1262 H1279 0.932 . S
C1263 U1246 2.885 . S
C1263 C1257 1.429 . S
C1263 O1266 1.301 1_556 S
C1263 O1267 1.282 . S
O1264 U1246 2.481 . S
O1264 C1250 1.249 . S
O1265 U1246 2.494 . S
O1265 C1250 1.202 . S
O1266 U1246 2.424 1_554 S
O1266 C1263 1.301 1_554 S
O1267 U1246 2.484 . S
O1267 C1263 1.282 . S
H1268 C1241 0.931 . S
H1269 C1243 0.929 . S
H1270 C1244 0.930 . S
H1271 C1245 0.931 . S
H1272 C1252 0.932 . S
H1273 C1253 0.930 . S
H1274 C1254 0.929 . S
H1275 C1256 0.930 . S
H1276 C1258 0.932 . S
H1277 C1259 0.929 . S
H1278 C1260 0.928 . S
H1279 C1262 0.932 . S
C1280 C1281 1.264 . S
C1280 C1285 1.479 . S
C1280 C1290 1.465 . S
C1281 C1280 1.264 . S
C1281 C1283 1.339 . S
C1281 H1308 0.931 . S
C1282 C1283 1.395 . S
C1282 C1284 1.320 . S
C1283 C1281 1.339 . S
C1283 C1282 1.395 . S
C1283 H1309 0.929 . S
C1284 C1282 1.320 . S
C1284 C1285 1.405 . S
C1284 H1310 0.930 . S
C1285 C1280 1.479 . S
C1285 C1284 1.405 . S
C1285 H1311 0.931 . S
U1286 O1287 2.454 . S
U1286 O1288 2.458 . S
U1286 C1289 2.984 . S
U1286 C1290 2.847 . S
U1286 C1303 2.882 . S
U1286 O1304 2.441 . S
U1286 O1305 2.420 . S
U1286 O1306 2.455 . S
U1286 O1307 2.449 . S
O1287 U1286 2.454 . S
O1287 C1289 1.353 . S
O1288 U1286 2.458 . S
O1288 C1289 1.286 . S
C1289 U1286 2.984 . S
C1289 O1287 1.353 . S
C1289 O1288 1.286 . S
C1289 C1291 1.363 . S
C1290 C1280 1.465 . S
C1290 U1286 2.847 . S
C1290 O1304 1.249 . S
C1290 O1305 1.202 . S
C1291 C1289 1.363 . S
C1291 C1293 1.408 . S
C1291 C1296 1.342 . S
C1292 C1293 1.310 . S
C1292 C1295 1.461 . S
C1292 H1312 0.932 . S
C1293 C1291 1.408 . S
C1293 C1292 1.310 . S
C1293 H1313 0.930 . S
C1294 C1295 1.474 . S
C1294 C1296 1.285 . S
C1294 H1314 0.929 . S
C1295 C1292 1.461 . S
C1295 C1294 1.474 . S
C1296 C1291 1.342 . S
C1296 C1294 1.285 . S
C1296 H1315 0.930 . S
C1297 C1300 1.424 . S
C1297 C1302 1.245 . S
C1297 C1303 1.428 . S
C1298 C1301 1.260 . S
C1298 C1302 1.477 . S
C1298 H1316 0.932 . S
C1299 C1300 1.384 . S
C1299 C1301 1.479 . S
C1299 H1317 0.929 . S
C1300 C1297 1.424 . S
C1300 C1299 1.384 . S
C1300 H1318 0.928 . S
C1301 C1298 1.260 . S
C1301 C1299 1.479 . S
C1302 C1297 1.245 . S
C1302 C1298 1.477 . S
C1302 H1319 0.932 . S
C1303 U1286 2.882 . S
C1303 C1297 1.428 . S
C1303 O1306 1.301 . S
C1303 O1307 1.282 . S
O1304 U1286 2.441 . S
O1304 C1290 1.249 . S
O1305 U1286 2.420 . S
O1305 C1290 1.202 . S
O1306 U1286 2.455 . S
O1306 C1303 1.301 . S
O1307 U1286 2.449 . S
O1307 C1303 1.282 . S
H1308 C1281 0.931 . S
H1309 C1283 0.929 . S
H1310 C1284 0.930 . S
H1311 C1285 0.931 . S
H1312 C1292 0.932 . S
H1313 C1293 0.930 . S
H1314 C1294 0.929 . S
H1315 C1296 0.930 . S
H1316 C1298 0.932 . S
H1317 C1299 0.929 . S
H1318 C1300 0.928 . S
H1319 C1302 0.932 . S
C1320 C1321 1.264 . S
C1320 C1325 1.479 . S
C1320 C1330 1.465 . S
C1321 C1320 1.264 . S
C1321 C1323 1.339 . S
C1321 H1348 0.931 . S
C1322 C1323 1.395 . S
C1322 C1324 1.320 . S
C1323 C1321 1.339 . S
C1323 C1322 1.395 . S
C1323 H1349 0.929 . S
C1324 C1322 1.320 . S
C1324 C1325 1.405 . S
C1324 H1350 0.930 . S
C1325 C1320 1.479 . S
C1325 C1324 1.405 . S
C1325 H1351 0.931 . S
U1326 O1327 2.425 1_455 S
U1326 O1328 2.395 1_455 S
U1326 C1329 2.933 1_455 S
U1326 C1330 2.906 . S
U1326 C1343 2.875 1_455 S
U1326 O1344 2.483 . S
U1326 O1345 2.484 . S
U1326 O1346 2.420 1_455 S
U1326 O1347 2.470 . S
O1327 U1326 2.425 1_655 S
O1327 C1329 1.353 . S
O1328 U1326 2.395 1_655 S
O1328 C1329 1.286 . S
C1329 U1326 2.933 1_655 S
C1329 O1327 1.353 . S
C1329 O1328 1.286 . S
C1329 C1331 1.363 . S
C1330 C1320 1.465 . S
C1330 U1326 2.906 . S
C1330 O1344 1.249 . S
C1330 O1345 1.202 . S
C1331 C1329 1.363 . S
C1331 C1333 1.408 . S
C1331 C1336 1.342 . S
C1332 C1333 1.310 . S
C1332 C1335 1.461 . S
C1332 H1352 0.932 . S
C1333 C1331 1.408 . S
C1333 C1332 1.310 . S
C1333 H1353 0.930 . S
C1334 C1335 1.474 . S
C1334 C1336 1.285 . S
C1334 H1354 0.929 . S
C1335 C1332 1.461 . S
C1335 C1334 1.474 . S
C1336 C1331 1.342 . S
C1336 C1334 1.285 . S
C1336 H1355 0.930 . S
C1337 C1340 1.424 1_655 S
C1337 C1342 1.245 . S
C1337 C1343 1.428 . S
C1338 C1341 1.260 . S
C1338 C1342 1.477 . S
C1338 H1356 0.932 . S
C1339 C1340 1.384 . S
C1339 C1341 1.479 1_455 S
C1339 H1357 0.929 . S
C1340 C1337 1.424 1_455 S
C1340 C1339 1.384 . S
C1340 H1358 0.928 . S
C1341 C1338 1.260 . S
C1341 C1339 1.479 1_655 S
C1342 C1337 1.245 . S
C1342 C1338 1.477 . S
C1342 H1359 0.932 . S
C1343 U1326 2.875 1_655 S
C1343 C1337 1.428 . S
C1343 O1346 1.301 . S
C1343 O1347 1.282 1_655 S
O1344 U1326 2.483 . S
O1344 C1330 1.249 . S
O1345 U1326 2.484 . S
O1345 C1330 1.202 . S
O1346 U1326 2.420 1_655 S
O1346 C1343 1.301 . S
O1347 U1326 2.470 . S
O1347 C1343 1.282 1_455 S
H1348 C1321 0.931 . S
H1349 C1323 0.929 . S
H1350 C1324 0.930 . S
H1351 C1325 0.931 . S
H1352 C1332 0.932 . S
H1353 C1333 0.930 . S
H1354 C1334 0.929 . S
H1355 C1336 0.930 . S
H1356 C1338 0.932 . S
H1357 C1339 0.929 . S
H1358 C1340 0.928 . S
H1359 C1342 0.932 . S
C1360 C1361 1.264 . S
C1360 C1365 1.479 . S
C1360 C1370 1.465 . S
C1361 C1360 1.264 . S
C1361 C1363 1.339 . S
C1361 H1388 0.931 . S
C1362 C1363 1.395 . S
C1362 C1364 1.320 . S
C1363 C1361 1.339 . S
C1363 C1362 1.395 . S
C1363 H1389 0.929 . S
C1364 C1362 1.320 . S
C1364 C1365 1.405 . S
C1364 H1390 0.930 . S
C1365 C1360 1.479 . S
C1365 C1364 1.405 . S
C1365 H1391 0.931 . S
U1366 O1367 2.454 . S
U1366 O1368 2.458 . S
U1366 C1369 2.984 . S
U1366 C1370 2.847 . S
U1366 C1383 2.882 . S
U1366 O1384 2.441 . S
U1366 O1385 2.420 . S
U1366 O1386 2.455 . S
U1366 O1387 2.449 . S
O1367 U1366 2.454 . S
O1367 C1369 1.353 . S
O1368 U1366 2.458 . S
O1368 C1369 1.286 . S
C1369 U1366 2.984 . S
C1369 O1367 1.353 . S
C1369 O1368 1.286 . S
C1369 C1371 1.363 . S
C1370 C1360 1.465 . S
C1370 U1366 2.847 . S
C1370 O1384 1.249 . S
C1370 O1385 1.202 . S
C1371 C1369 1.363 . S
C1371 C1373 1.408 . S
C1371 C1376 1.342 . S
C1372 C1373 1.310 . S
C1372 C1375 1.461 . S
C1372 H1392 0.932 . S
C1373 C1371 1.408 . S
C1373 C1372 1.310 . S
C1373 H1393 0.930 . S
C1374 C1375 1.474 . S
C1374 C1376 1.285 . S
C1374 H1394 0.929 . S
C1375 C1372 1.461 . S
C1375 C1374 1.474 . S
C1376 C1371 1.342 . S
C1376 C1374 1.285 . S
C1376 H1395 0.930 . S
C1377 C1380 1.424 . S
C1377 C1382 1.245 . S
C1377 C1383 1.428 . S
C1378 C1381 1.260 . S
C1378 C1382 1.477 . S
C1378 H1396 0.932 . S
C1379 C1380 1.384 . S
C1379 C1381 1.479 . S
C1379 H1397 0.929 . S
C1380 C1377 1.424 . S
C1380 C1379 1.384 . S
C1380 H1398 0.928 . S
C1381 C1378 1.260 . S
C1381 C1379 1.479 . S
C1382 C1377 1.245 . S
C1382 C1378 1.477 . S
C1382 H1399 0.932 . S
C1383 U1366 2.882 . S
C1383 C1377 1.428 . S
C1383 O1386 1.301 . S
C1383 O1387 1.282 . S
O1384 U1366 2.441 . S
O1384 C1370 1.249 . S
O1385 U1366 2.420 . S
O1385 C1370 1.202 . S
O1386 U1366 2.455 . S
O1386 C1383 1.301 . S
O1387 U1366 2.449 . S
O1387 C1383 1.282 . S
H1388 C1361 0.931 . S
H1389 C1363 0.929 . S
H1390 C1364 0.930 . S
H1391 C1365 0.931 . S
H1392 C1372 0.932 . S
H1393 C1373 0.930 . S
H1394 C1374 0.929 . S
H1395 C1376 0.930 . S
H1396 C1378 0.932 . S
H1397 C1379 0.929 . S
H1398 C1380 0.928 . S
H1399 C1382 0.932 . S
C1400 C1401 1.264 . S
C1400 C1405 1.479 . S
C1400 C1410 1.465 . S
C1401 C1400 1.264 . S
C1401 C1403 1.339 . S
C1401 H1428 0.931 . S
C1402 C1403 1.395 . S
C1402 C1404 1.320 . S
C1403 C1401 1.339 . S
C1403 C1402 1.395 . S
C1403 H1429 0.929 . S
C1404 C1402 1.320 . S
C1404 C1405 1.405 . S
C1404 H1430 0.930 . S
C1405 C1400 1.479 . S
C1405 C1404 1.405 . S
C1405 H1431 0.931 . S
U1406 O1407 2.411 1_655 S
U1406 O1408 2.384 1_655 S
U1406 C1409 2.919 1_655 S
U1406 C1410 2.910 . S
U1406 C1423 2.885 . S
U1406 O1424 2.481 . S
U1406 O1425 2.494 . S
U1406 O1426 2.424 1_655 S
U1406 O1427 2.484 . S
O1407 U1406 2.411 1_455 S
O1407 C1409 1.353 . S
O1408 U1406 2.384 1_455 S
O1408 C1409 1.286 . S
C1409 U1406 2.919 1_455 S
C1409 O1407 1.353 . S
C1409 O1408 1.286 . S
C1409 C1411 1.363 . S
C1410 C1400 1.465 . S
C1410 U1406 2.910 . S
C1410 O1424 1.249 . S
C1410 O1425 1.202 . S
C1411 C1409 1.363 . S
C1411 C1413 1.408 . S
C1411 C1416 1.342 . S
C1412 C1413 1.310 . S
C1412 C1415 1.461 . S
C1412 H1432 0.932 . S
C1413 C1411 1.408 . S
C1413 C1412 1.310 . S
C1413 H1433 0.930 . S
C1414 C1415 1.474 . S
C1414 C1416 1.285 . S
C1414 H1434 0.929 . S
C1415 C1412 1.461 . S
C1415 C1414 1.474 . S
C1416 C1411 1.342 . S
C1416 C1414 1.285 . S
C1416 H1435 0.930 . S
C1417 C1420 1.457 . S
C1417 C1422 1.212 1_655 S
C1417 C1423 1.429 . S
C1418 C1421 1.260 1_455 S
C1418 C1422 1.477 . S
C1418 H1436 0.932 . S
C1419 C1420 1.384 . S
C1419 C1421 1.479 . S
C1419 H1437 0.929 . S
C1420 C1417 1.457 . S
C1420 C1419 1.384 . S
C1420 H1438 0.928 . S
C1421 C1418 1.260 1_655 S
C1421 C1419 1.479 . S
C1422 C1417 1.212 1_455 S
C1422 C1418 1.477 . S
C1422 H1439 0.932 . S
C1423 U1406 2.885 . S
C1423 C1417 1.429 . S
C1423 O1426 1.301 1_655 S
C1423 O1427 1.282 . S
O1424 U1406 2.481 . S
O1424 C1410 1.249 . S
O1425 U1406 2.494 . S
O1425 C1410 1.202 . S
O1426 U1406 2.424 1_455 S
O1426 C1423 1.301 1_455 S
O1427 U1406 2.484 . S
O1427 C1423 1.282 . S
H1428 C1401 0.931 . S
H1429 C1403 0.929 . S
H1430 C1404 0.930 . S
H1431 C1405 0.931 . S
H1432 C1412 0.932 . S
H1433 C1413 0.930 . S
H1434 C1414 0.929 . S
H1435 C1416 0.930 . S
H1436 C1418 0.932 . S
H1437 C1419 0.929 . S
H1438 C1420 0.928 . S
H1439 C1422 0.932 . S
C1440 C1441 1.264 . S
C1440 C1445 1.479 . S
C1440 C1450 1.465 . S
C1441 C1440 1.264 . S
C1441 C1443 1.339 . S
C1441 H1468 0.931 . S
C1442 C1443 1.395 . S
C1442 C1444 1.320 . S
C1443 C1441 1.339 . S
C1443 C1442 1.395 . S
C1443 H1469 0.929 . S
C1444 C1442 1.320 . S
C1444 C1445 1.405 . S
C1444 H1470 0.930 . S
C1445 C1440 1.479 . S
C1445 C1444 1.405 . S
C1445 H1471 0.931 . S
U1446 O1447 2.454 . S
U1446 O1448 2.458 . S
U1446 C1449 2.984 . S
U1446 C1450 2.847 . S
U1446 C1463 2.882 . S
U1446 O1464 2.441 . S
U1446 O1465 2.420 . S
U1446 O1466 2.455 . S
U1446 O1467 2.449 . S
O1447 U1446 2.454 . S
O1447 C1449 1.353 . S
O1448 U1446 2.458 . S
O1448 C1449 1.286 . S
C1449 U1446 2.984 . S
C1449 O1447 1.353 . S
C1449 O1448 1.286 . S
C1449 C1451 1.363 . S
C1450 C1440 1.465 . S
C1450 U1446 2.847 . S
C1450 O1464 1.249 . S
C1450 O1465 1.202 . S
C1451 C1449 1.363 . S
C1451 C1453 1.408 . S
C1451 C1456 1.342 . S
C1452 C1453 1.310 . S
C1452 C1455 1.461 . S
C1452 H1472 0.932 . S
C1453 C1451 1.408 . S
C1453 C1452 1.310 . S
C1453 H1473 0.930 . S
C1454 C1455 1.474 . S
C1454 C1456 1.285 . S
C1454 H1474 0.929 . S
C1455 C1452 1.461 . S
C1455 C1454 1.474 . S
C1456 C1451 1.342 . S
C1456 C1454 1.285 . S
C1456 H1475 0.930 . S
C1457 C1460 1.424 . S
C1457 C1462 1.245 . S
C1457 C1463 1.428 . S
C1458 C1461 1.260 . S
C1458 C1462 1.477 . S
C1458 H1476 0.932 . S
C1459 C1460 1.384 . S
C1459 C1461 1.479 . S
C1459 H1477 0.929 . S
C1460 C1457 1.424 . S
C1460 C1459 1.384 . S
C1460 H1478 0.928 . S
C1461 C1458 1.260 . S
C1461 C1459 1.479 . S
C1462 C1457 1.245 . S
C1462 C1458 1.477 . S
C1462 H1479 0.932 . S
C1463 U1446 2.882 . S
C1463 C1457 1.428 . S
C1463 O1466 1.301 . S
C1463 O1467 1.282 . S
O1464 U1446 2.441 . S
O1464 C1450 1.249 . S
O1465 U1446 2.420 . S
O1465 C1450 1.202 . S
O1466 U1446 2.455 . S
O1466 C1463 1.301 . S
O1467 U1446 2.449 . S
O1467 C1463 1.282 . S
H1468 C1441 0.931 . S
H1469 C1443 0.929 . S
H1470 C1444 0.930 . S
H1471 C1445 0.931 . S
H1472 C1452 0.932 . S
H1473 C1453 0.930 . S
H1474 C1454 0.929 . S
H1475 C1456 0.930 . S
H1476 C1458 0.932 . S
H1477 C1459 0.929 . S
H1478 C1460 0.928 . S
H1479 C1462 0.932 . S
C1480 C1481 1.264 . S
C1480 C1485 1.479 . S
C1480 C1490 1.465 . S
C1481 C1480 1.264 . S
C1481 C1483 1.339 . S
C1481 H1508 0.931 . S
C1482 C1483 1.395 . S
C1482 C1484 1.320 . S
C1483 C1481 1.339 . S
C1483 C1482 1.395 . S
C1483 H1509 0.929 . S
C1484 C1482 1.320 . S
C1484 C1485 1.405 . S
C1484 H1510 0.930 . S
C1485 C1480 1.479 . S
C1485 C1484 1.405 . S
C1485 H1511 0.931 . S
U1486 O1487 2.454 . S
U1486 O1488 2.458 . S
U1486 C1489 2.984 . S
U1486 C1490 2.847 . S
U1486 C1503 2.882 . S
U1486 O1504 2.441 . S
U1486 O1505 2.420 . S
U1486 O1506 2.455 . S
U1486 O1507 2.449 . S
O1487 U1486 2.454 . S
O1487 C1489 1.353 . S
O1488 U1486 2.458 . S
O1488 C1489 1.286 . S
C1489 U1486 2.984 . S
C1489 O1487 1.353 . S
C1489 O1488 1.286 . S
C1489 C1491 1.363 . S
C1490 C1480 1.465 . S
C1490 U1486 2.847 . S
C1490 O1504 1.249 . S
C1490 O1505 1.202 . S
C1491 C1489 1.363 . S
C1491 C1493 1.408 . S
C1491 C1496 1.342 . S
C1492 C1493 1.310 . S
C1492 C1495 1.461 . S
C1492 H1512 0.932 . S
C1493 C1491 1.408 . S
C1493 C1492 1.310 . S
C1493 H1513 0.930 . S
C1494 C1495 1.474 . S
C1494 C1496 1.285 . S
C1494 H1514 0.929 . S
C1495 C1492 1.461 . S
C1495 C1494 1.474 . S
C1496 C1491 1.342 . S
C1496 C1494 1.285 . S
C1496 H1515 0.930 . S
C1497 C1500 1.424 . S
C1497 C1502 1.245 . S
C1497 C1503 1.428 . S
C1498 C1501 1.260 . S
C1498 C1502 1.477 . S
C1498 H1516 0.932 . S
C1499 C1500 1.384 . S
C1499 C1501 1.479 . S
C1499 H1517 0.929 . S
C1500 C1497 1.424 . S
C1500 C1499 1.384 . S
C1500 H1518 0.928 . S
C1501 C1498 1.260 . S
C1501 C1499 1.479 . S
C1502 C1497 1.245 . S
C1502 C1498 1.477 . S
C1502 H1519 0.932 . S
C1503 U1486 2.882 . S
C1503 C1497 1.428 . S
C1503 O1506 1.301 . S
C1503 O1507 1.282 . S
O1504 U1486 2.441 . S
O1504 C1490 1.249 . S
O1505 U1486 2.420 . S
O1505 C1490 1.202 . S
O1506 U1486 2.455 . S
O1506 C1503 1.301 . S
O1507 U1486 2.449 . S
O1507 C1503 1.282 . S
H1508 C1481 0.931 . S
H1509 C1483 0.929 . S
H1510 C1484 0.930 . S
H1511 C1485 0.931 . S
H1512 C1492 0.932 . S
H1513 C1493 0.930 . S
H1514 C1494 0.929 . S
H1515 C1496 0.930 . S
H1516 C1498 0.932 . S
H1517 C1499 0.929 . S
H1518 C1500 0.928 . S
H1519 C1502 0.932 . S
C1520 C1521 1.264 . S
C1520 C1525 1.479 . S
C1520 C1530 1.465 . S
C1521 C1520 1.264 . S
C1521 C1523 1.339 . S
C1521 H1548 0.931 . S
C1522 C1523 1.395 . S
C1522 C1524 1.320 . S
C1523 C1521 1.339 . S
C1523 C1522 1.395 . S
C1523 H1549 0.929 . S
C1524 C1522 1.320 . S
C1524 C1525 1.405 . S
C1524 H1550 0.930 . S
C1525 C1520 1.479 . S
C1525 C1524 1.405 . S
C1525 H1551 0.931 . S
U1526 O1527 2.454 . S
U1526 O1528 2.458 . S
U1526 C1529 2.984 . S
U1526 C1530 2.847 1_565 S
U1526 C1543 2.882 . S
U1526 O1544 2.441 1_565 S
U1526 O1545 2.420 1_565 S
U1526 O1546 2.455 . S
U1526 O1547 2.449 1_565 S
O1527 U1526 2.454 . S
O1527 C1529 1.353 . S
O1528 U1526 2.458 . S
O1528 C1529 1.286 . S
C1529 U1526 2.984 . S
C1529 O1527 1.353 . S
C1529 O1528 1.286 . S
C1529 C1531 1.363 . S
C1530 C1520 1.465 . S
C1530 U1526 2.847 1_545 S
C1530 O1544 1.249 . S
C1530 O1545 1.202 . S
C1531 C1529 1.363 . S
C1531 C1533 1.408 . S
C1531 C1536 1.342 . S
C1532 C1533 1.310 . S
C1532 C1535 1.461 . S
C1532 H1552 0.932 . S
C1533 C1531 1.408 . S
C1533 C1532 1.310 . S
C1533 H1553 0.930 . S
C1534 C1535 1.474 . S
C1534 C1536 1.285 . S
C1534 H1554 0.929 . S
C1535 C1532 1.461 . S
C1535 C1534 1.474 . S
C1536 C1531 1.342 . S
C1536 C1534 1.285 . S
C1536 H1555 0.930 . S
C1537 C1540 1.424 1_565 S
C1537 C1542 1.245 . S
C1537 C1543 1.428 . S
C1538 C1541 1.220 1_565 S
C1538 C1542 1.477 . S
C1538 H1556 0.932 . S
C1539 C1540 1.384 . S
C1539 C1541 1.517 . S
C1539 H1557 0.929 . S
C1540 C1537 1.424 1_545 S
C1540 C1539 1.384 . S
C1540 H1558 0.928 . S
C1541 C1538 1.220 1_545 S
C1541 C1539 1.517 . S
C1542 C1537 1.245 . S
C1542 C1538 1.477 . S
C1542 H1559 0.932 . S
C1543 U1526 2.882 . S
C1543 C1537 1.428 . S
C1543 O1546 1.301 . S
C1543 O1547 1.282 1_565 S
O1544 U1526 2.441 1_545 S
O1544 C1530 1.249 . S
O1545 U1526 2.420 1_545 S
O1545 C1530 1.202 . S
O1546 U1526 2.455 . S
O1546 C1543 1.301 . S
O1547 U1526 2.449 1_545 S
O1547 C1543 1.282 1_545 S
H1548 C1521 0.931 . S
H1549 C1523 0.929 . S
H1550 C1524 0.930 . S
H1551 C1525 0.931 . S
H1552 C1532 0.932 . S
H1553 C1533 0.930 . S
H1554 C1534 0.929 . S
H1555 C1536 0.930 . S
H1556 C1538 0.932 . S
H1557 C1539 0.929 . S
H1558 C1540 0.928 . S
H1559 C1542 0.932 . S
C1560 C1561 1.264 . S
C1560 C1565 1.479 . S
C1560 C1570 1.465 . S
C1561 C1560 1.264 . S
C1561 C1563 1.339 . S
C1561 H1588 0.931 . S
C1562 C1563 1.395 . S
C1562 C1564 1.320 . S
C1563 C1561 1.339 . S
C1563 C1562 1.395 . S
C1563 H1589 0.929 . S
C1564 C1562 1.320 . S
C1564 C1565 1.405 . S
C1564 H1590 0.930 . S
C1565 C1560 1.479 . S
C1565 C1564 1.405 . S
C1565 H1591 0.931 . S
U1566 O1567 2.454 . S
U1566 O1568 2.458 . S
U1566 C1569 2.984 . S
U1566 C1570 2.847 1_545 S
U1566 C1583 2.882 . S
U1566 O1584 2.441 1_545 S
U1566 O1585 2.420 1_545 S
U1566 O1586 2.455 . S
U1566 O1587 2.449 1_545 S
O1567 U1566 2.454 . S
O1567 C1569 1.353 . S
O1568 U1566 2.458 . S
O1568 C1569 1.286 . S
C1569 U1566 2.984 . S
C1569 O1567 1.353 . S
C1569 O1568 1.286 . S
C1569 C1571 1.363 . S
C1570 C1560 1.465 . S
C1570 U1566 2.847 1_565 S
C1570 O1584 1.249 . S
C1570 O1585 1.202 . S
C1571 C1569 1.363 . S
C1571 C1573 1.408 . S
C1571 C1576 1.342 . S
C1572 C1573 1.310 . S
C1572 C1575 1.461 . S
C1572 H1592 0.932 . S
C1573 C1571 1.408 . S
C1573 C1572 1.310 . S
C1573 H1593 0.930 . S
C1574 C1575 1.474 . S
C1574 C1576 1.285 . S
C1574 H1594 0.929 . S
C1575 C1572 1.461 . S
C1575 C1574 1.474 . S
C1576 C1571 1.342 . S
C1576 C1574 1.285 . S
C1576 H1595 0.930 . S
C1577 C1580 1.424 1_545 S
C1577 C1582 1.245 . S
C1577 C1583 1.428 . S
C1578 C1581 1.260 . S
C1578 C1582 1.477 . S
C1578 H1596 0.932 . S
C1579 C1580 1.384 . S
C1579 C1581 1.479 1_565 S
C1579 H1597 0.929 . S
C1580 C1577 1.424 1_565 S
C1580 C1579 1.384 . S
C1580 H1598 0.928 . S
C1581 C1578 1.260 . S
C1581 C1579 1.479 1_545 S
C1582 C1577 1.245 . S
C1582 C1578 1.477 . S
C1582 H1599 0.932 . S
C1583 U1566 2.882 . S
C1583 C1577 1.428 . S
C1583 O1586 1.301 . S
C1583 O1587 1.282 1_545 S
O1584 U1566 2.441 1_565 S
O1584 C1570 1.249 . S
O1585 U1566 2.420 1_565 S
O1585 C1570 1.202 . S
O1586 U1566 2.455 . S
O1586 C1583 1.301 . S
O1587 U1566 2.449 1_565 S
O1587 C1583 1.282 1_565 S
H1588 C1561 0.931 . S
H1589 C1563 0.929 . S
H1590 C1564 0.930 . S
H1591 C1565 0.931 . S
H1592 C1572 0.932 . S
H1593 C1573 0.930 . S
H1594 C1574 0.929 . S
H1595 C1576 0.930 . S
H1596 C1578 0.932 . S
H1597 C1579 0.929 . S
H1598 C1580 0.928 . S
H1599 C1582 0.932 . S
C1600 C1601 1.264 . S
C1600 C1605 1.479 . S
C1600 C1610 1.465 . S
C1601 C1600 1.264 . S
C1601 C1603 1.339 . S
C1601 H1628 0.931 . S
C1602 C1603 1.395 . S
C1602 C1604 1.320 . S
C1603 C1601 1.339 . S
C1603 C1602 1.395 . S
C1603 H1629 0.929 . S
C1604 C1602 1.320 . S
C1604 C1605 1.405 . S
C1604 H1630 0.930 . S
C1605 C1600 1.479 . S
C1605 C1604 1.405 . S
C1605 H1631 0.931 . S
U1606 O1607 2.454 . S
U1606 O1608 2.458 . S
U1606 C1609 2.984 . S
U1606 C1610 2.847 . S
U1606 C1623 2.882 . S
U1606 O1624 2.441 . S
U1606 O1625 2.420 . S
U1606 O1626 2.455 . S
U1606 O1627 2.449 . S
O1607 U1606 2.454 . S
O1607 C1609 1.353 . S
O1608 U1606 2.458 . S
O1608 C1609 1.286 . S
C1609 U1606 2.984 . S
C1609 O1607 1.353 . S
C1609 O1608 1.286 . S
C1609 C1611 1.363 . S
C1610 C1600 1.465 . S
C1610 U1606 2.847 . S
C1610 O1624 1.249 . S
C1610 O1625 1.202 . S
C1611 C1609 1.363 . S
C1611 C1613 1.408 . S
C1611 C1616 1.342 . S
C1612 C1613 1.310 . S
C1612 C1615 1.461 . S
C1612 H1632 0.932 . S
C1613 C1611 1.408 . S
C1613 C1612 1.310 . S
C1613 H1633 0.930 . S
C1614 C1615 1.474 . S
C1614 C1616 1.285 . S
C1614 H1634 0.929 . S
C1615 C1612 1.461 . S
C1615 C1614 1.474 . S
C1616 C1611 1.342 . S
C1616 C1614 1.285 . S
C1616 H1635 0.930 . S
C1617 C1620 1.424 . S
C1617 C1622 1.245 . S
C1617 C1623 1.428 . S
C1618 C1621 1.260 . S
C1618 C1622 1.477 . S
C1618 H1636 0.932 . S
C1619 C1620 1.384 . S
C1619 C1621 1.479 . S
C1619 H1637 0.929 . S
C1620 C1617 1.424 . S
C1620 C1619 1.384 . S
C1620 H1638 0.928 . S
C1621 C1618 1.260 . S
C1621 C1619 1.479 . S
C1622 C1617 1.245 . S
C1622 C1618 1.477 . S
C1622 H1639 0.932 . S
C1623 U1606 2.882 . S
C1623 C1617 1.428 . S
C1623 O1626 1.301 . S
C1623 O1627 1.282 . S
O1624 U1606 2.441 . S
O1624 C1610 1.249 . S
O1625 U1606 2.420 . S
O1625 C1610 1.202 . S
O1626 U1606 2.455 . S
O1626 C1623 1.301 . S
O1627 U1606 2.449 . S
O1627 C1623 1.282 . S
H1628 C1601 0.931 . S
H1629 C1603 0.929 . S
H1630 C1604 0.930 . S
H1631 C1605 0.931 . S
H1632 C1612 0.932 . S
H1633 C1613 0.930 . S
H1634 C1614 0.929 . S
H1635 C1616 0.930 . S
H1636 C1618 0.932 . S
H1637 C1619 0.929 . S
H1638 C1620 0.928 . S
H1639 C1622 0.932 . S
C1640 C1641 1.264 . S
C1640 C1645 1.479 . S
C1640 C1650 1.465 . S
C1641 C1640 1.264 . S
C1641 C1643 1.339 . S
C1641 H1668 0.931 . S
C1642 C1643 1.395 . S
C1642 C1644 1.320 . S
C1643 C1641 1.339 . S
C1643 C1642 1.395 . S
C1643 H1669 0.929 . S
C1644 C1642 1.320 . S
C1644 C1645 1.405 . S
C1644 H1670 0.930 . S
C1645 C1640 1.479 . S
C1645 C1644 1.405 . S
C1645 H1671 0.931 . S
U1646 O1647 2.454 . S
U1646 O1648 2.458 . S
U1646 C1649 2.984 . S
U1646 C1650 2.847 1_554 S
U1646 C1663 2.882 . S
U1646 O1664 2.441 1_554 S
U1646 O1665 2.420 1_554 S
U1646 O1666 2.455 . S
U1646 O1667 2.449 1_554 S
O1647 U1646 2.454 . S
O1647 C1649 1.353 . S
O1648 U1646 2.458 . S
O1648 C1649 1.286 . S
C1649 U1646 2.984 . S
C1649 O1647 1.353 . S
C1649 O1648 1.286 . S
C1649 C1651 1.363 . S
C1650 C1640 1.465 . S
C1650 U1646 2.847 1_556 S
C1650 O1664 1.249 . S
C1650 O1665 1.202 . S
C1651 C1649 1.363 . S
C1651 C1653 1.408 . S
C1651 C1656 1.342 . S
C1652 C1653 1.310 . S
C1652 C1655 1.461 . S
C1652 H1672 0.932 . S
C1653 C1651 1.408 . S
C1653 C1652 1.310 . S
C1653 H1673 0.930 . S
C1654 C1655 1.474 . S
C1654 C1656 1.285 . S
C1654 H1674 0.929 . S
C1655 C1652 1.461 . S
C1655 C1654 1.474 . S
C1656 C1651 1.342 . S
C1656 C1654 1.285 . S
C1656 H1675 0.930 . S
C1657 C1660 1.424 1_554 S
C1657 C1662 1.245 . S
C1657 C1663 1.428 . S
C1658 C1661 1.260 . S
C1658 C1662 1.477 . S
C1658 H1676 0.932 . S
C1659 C1660 1.384 . S
C1659 C1661 1.479 1_556 S
C1659 H1677 0.929 . S
C1660 C1657 1.424 1_556 S
C1660 C1659 1.384 . S
C1660 H1678 0.928 . S
C1661 C1658 1.260 . S
C1661 C1659 1.479 1_554 S
C1662 C1657 1.245 . S
C1662 C1658 1.477 . S
C1662 H1679 0.932 . S
C1663 U1646 2.882 . S
C1663 C1657 1.428 . S
C1663 O1666 1.301 . S
C1663 O1667 1.282 1_554 S
O1664 U1646 2.441 1_556 S
O1664 C1650 1.249 . S
O1665 U1646 2.420 1_556 S
O1665 C1650 1.202 . S
O1666 U1646 2.455 . S
O1666 C1663 1.301 . S
O1667 U1646 2.449 1_556 S
O1667 C1663 1.282 1_556 S
H1668 C1641 0.931 . S
H1669 C1643 0.929 . S
H1670 C1644 0.930 . S
H1671 C1645 0.931 . S
H1672 C1652 0.932 . S
H1673 C1653 0.930 . S
H1674 C1654 0.929 . S
H1675 C1656 0.930 . S
H1676 C1658 0.932 . S
H1677 C1659 0.929 . S
H1678 C1660 0.928 . S
H1679 C1662 0.932 . S
C1680 C1681 1.264 . S
C1680 C1685 1.479 . S
C1680 C1690 1.465 . S
C1681 C1680 1.264 . S
C1681 C1683 1.339 . S
C1681 H1708 0.931 . S
C1682 C1683 1.395 . S
C1682 C1684 1.320 . S
C1683 C1681 1.339 . S
C1683 C1682 1.395 . S
C1683 H1709 0.929 . S
C1684 C1682 1.320 . S
C1684 C1685 1.405 . S
C1684 H1710 0.930 . S
C1685 C1680 1.479 . S
C1685 C1684 1.405 . S
C1685 H1711 0.931 . S
U1686 O1687 2.454 . S
U1686 O1688 2.458 . S
U1686 C1689 2.984 . S
U1686 C1690 2.847 . S
U1686 C1703 2.882 . S
U1686 O1704 2.441 . S
U1686 O1705 2.420 . S
U1686 O1706 2.455 . S
U1686 O1707 2.449 . S
O1687 U1686 2.454 . S
O1687 C1689 1.353 . S
O1688 U1686 2.458 . S
O1688 C1689 1.286 . S
C1689 U1686 2.984 . S
C1689 O1687 1.353 . S
C1689 O1688 1.286 . S
C1689 C1691 1.363 . S
C1690 C1680 1.465 . S
C1690 U1686 2.847 . S
C1690 O1704 1.249 . S
C1690 O1705 1.202 . S
C1691 C1689 1.363 . S
C1691 C1693 1.408 . S
C1691 C1696 1.342 . S
C1692 C1693 1.310 . S
C1692 C1695 1.461 . S
C1692 H1712 0.932 . S
C1693 C1691 1.408 . S
C1693 C1692 1.310 . S
C1693 H1713 0.930 . S
C1694 C1695 1.474 . S
C1694 C1696 1.285 . S
C1694 H1714 0.929 . S
C1695 C1692 1.461 . S
C1695 C1694 1.474 . S
C1696 C1691 1.342 . S
C1696 C1694 1.285 . S
C1696 H1715 0.930 . S
C1697 C1700 1.424 . S
C1697 C1702 1.245 . S
C1697 C1703 1.428 . S
C1698 C1701 1.260 . S
C1698 C1702 1.477 . S
C1698 H1716 0.932 . S
C1699 C1700 1.384 . S
C1699 C1701 1.479 . S
C1699 H1717 0.929 . S
C1700 C1697 1.424 . S
C1700 C1699 1.384 . S
C1700 H1718 0.928 . S
C1701 C1698 1.260 . S
C1701 C1699 1.479 . S
C1702 C1697 1.245 . S
C1702 C1698 1.477 . S
C1702 H1719 0.932 . S
C1703 U1686 2.882 . S
C1703 C1697 1.428 . S
C1703 O1706 1.301 . S
C1703 O1707 1.282 . S
O1704 U1686 2.441 . S
O1704 C1690 1.249 . S
O1705 U1686 2.420 . S
O1705 C1690 1.202 . S
O1706 U1686 2.455 . S
O1706 C1703 1.301 . S
O1707 U1686 2.449 . S
O1707 C1703 1.282 . S
H1708 C1681 0.931 . S
H1709 C1683 0.929 . S
H1710 C1684 0.930 . S
H1711 C1685 0.931 . S
H1712 C1692 0.932 . S
H1713 C1693 0.930 . S
H1714 C1694 0.929 . S
H1715 C1696 0.930 . S
H1716 C1698 0.932 . S
H1717 C1699 0.929 . S
H1718 C1700 0.928 . S
H1719 C1702 0.932 . S
C1720 C1721 1.264 . S
C1720 C1725 1.479 . S
C1720 C1730 1.465 . S
C1721 C1720 1.264 . S
C1721 C1723 1.339 . S
C1721 H1748 0.931 . S
C1722 C1723 1.395 . S
C1722 C1724 1.320 . S
C1723 C1721 1.339 . S
C1723 C1722 1.395 . S
C1723 H1749 0.929 . S
C1724 C1722 1.320 . S
C1724 C1725 1.405 . S
C1724 H1750 0.930 . S
C1725 C1720 1.479 . S
C1725 C1724 1.405 . S
C1725 H1751 0.931 . S
U1726 O1727 2.454 . S
U1726 O1728 2.458 . S
U1726 C1729 2.984 . S
U1726 C1730 2.847 1_556 S
U1726 C1743 2.882 . S
U1726 O1744 2.441 1_556 S
U1726 O1745 2.420 1_556 S
U1726 O1746 2.455 . S
U1726 O1747 2.449 1_556 S
O1727 U1726 2.454 . S
O1727 C1729 1.353 . S
O1728 U1726 2.458 . S
O1728 C1729 1.286 . S
C1729 U1726 2.984 . S
C1729 O1727 1.353 . S
C1729 O1728 1.286 . S
C1729 C1731 1.363 . S
C1730 C1720 1.465 . S
C1730 U1726 2.847 1_554 S
C1730 O1744 1.249 . S
C1730 O1745 1.202 . S
C1731 C1729 1.363 . S
C1731 C1733 1.408 . S
C1731 C1736 1.342 . S
C1732 C1733 1.310 . S
C1732 C1735 1.461 . S
C1732 H1752 0.932 . S
C1733 C1731 1.408 . S
C1733 C1732 1.310 . S
C1733 H1753 0.930 . S
C1734 C1735 1.474 . S
C1734 C1736 1.285 . S
C1734 H1754 0.929 . S
C1735 C1732 1.461 . S
C1735 C1734 1.474 . S
C1736 C1731 1.342 . S
C1736 C1734 1.285 . S
C1736 H1755 0.930 . S
C1737 C1740 1.424 1_556 S
C1737 C1742 1.245 . S
C1737 C1743 1.428 . S
C1738 C1741 1.219 1_556 S
C1738 C1742 1.477 . S
C1738 H1756 0.932 . S
C1739 C1740 1.384 . S
C1739 C1741 1.517 . S
C1739 H1757 0.929 . S
C1740 C1737 1.424 1_554 S
C1740 C1739 1.384 . S
C1740 H1758 0.928 . S
C1741 C1738 1.219 1_554 S
C1741 C1739 1.517 . S
C1742 C1737 1.245 . S
C1742 C1738 1.477 . S
C1742 H1759 0.932 . S
C1743 U1726 2.882 . S
C1743 C1737 1.428 . S
C1743 O1746 1.301 . S
C1743 O1747 1.282 1_556 S
O1744 U1726 2.441 1_554 S
O1744 C1730 1.249 . S
O1745 U1726 2.420 1_554 S
O1745 C1730 1.202 . S
O1746 U1726 2.455 . S
O1746 C1743 1.301 . S
O1747 U1726 2.449 1_554 S
O1747 C1743 1.282 1_554 S
H1748 C1721 0.931 . S
H1749 C1723 0.929 . S
H1750 C1724 0.930 . S
H1751 C1725 0.931 . S
H1752 C1732 0.932 . S
H1753 C1733 0.930 . S
H1754 C1734 0.929 . S
H1755 C1736 0.930 . S
H1756 C1738 0.932 . S
H1757 C1739 0.929 . S
H1758 C1740 0.928 . S
H1759 C1742 0.932 . S
C1760 C1761 1.264 . S
C1760 C1765 1.479 . S
C1760 C1770 1.465 . S
C1761 C1760 1.264 . S
C1761 C1763 1.339 . S
C1761 H1788 0.931 . S
C1762 C1763 1.395 . S
C1762 C1764 1.320 . S
C1763 C1761 1.339 . S
C1763 C1762 1.395 . S
C1763 H1789 0.929 . S
C1764 C1762 1.320 . S
C1764 C1765 1.405 . S
C1764 H1790 0.930 . S
C1765 C1760 1.479 . S
C1765 C1764 1.405 . S
C1765 H1791 0.931 . S
U1766 O1767 2.454 . S
U1766 O1768 2.458 . S
U1766 C1769 2.984 . S
U1766 C1770 2.847 . S
U1766 C1783 2.882 . S
U1766 O1784 2.441 . S
U1766 O1785 2.420 . S
U1766 O1786 2.455 . S
U1766 O1787 2.449 . S
O1767 U1766 2.454 . S
O1767 C1769 1.353 . S
O1768 U1766 2.458 . S
O1768 C1769 1.286 . S
C1769 U1766 2.984 . S
C1769 O1767 1.353 . S
C1769 O1768 1.286 . S
C1769 C1771 1.363 . S
C1770 C1760 1.465 . S
C1770 U1766 2.847 . S
C1770 O1784 1.249 . S
C1770 O1785 1.202 . S
C1771 C1769 1.363 . S
C1771 C1773 1.408 . S
C1771 C1776 1.342 . S
C1772 C1773 1.310 . S
C1772 C1775 1.461 . S
C1772 H1792 0.932 . S
C1773 C1771 1.408 . S
C1773 C1772 1.310 . S
C1773 H1793 0.930 . S
C1774 C1775 1.474 . S
C1774 C1776 1.285 . S
C1774 H1794 0.929 . S
C1775 C1772 1.461 . S
C1775 C1774 1.474 . S
C1776 C1771 1.342 . S
C1776 C1774 1.285 . S
C1776 H1795 0.930 . S
C1777 C1780 1.424 . S
C1777 C1782 1.245 . S
C1777 C1783 1.428 . S
C1778 C1781 1.260 . S
C1778 C1782 1.477 . S
C1778 H1796 0.932 . S
C1779 C1780 1.384 . S
C1779 C1781 1.479 . S
C1779 H1797 0.929 . S
C1780 C1777 1.424 . S
C1780 C1779 1.384 . S
C1780 H1798 0.928 . S
C1781 C1778 1.260 . S
C1781 C1779 1.479 . S
C1782 C1777 1.245 . S
C1782 C1778 1.477 . S
C1782 H1799 0.932 . S
C1783 U1766 2.882 . S
C1783 C1777 1.428 . S
C1783 O1786 1.301 . S
C1783 O1787 1.282 . S
O1784 U1766 2.441 . S
O1784 C1770 1.249 . S
O1785 U1766 2.420 . S
O1785 C1770 1.202 . S
O1786 U1766 2.455 . S
O1786 C1783 1.301 . S
O1787 U1766 2.449 . S
O1787 C1783 1.282 . S
H1788 C1761 0.931 . S
H1789 C1763 0.929 . S
H1790 C1764 0.930 . S
H1791 C1765 0.931 . S
H1792 C1772 0.932 . S
H1793 C1773 0.930 . S
H1794 C1774 0.929 . S
H1795 C1776 0.930 . S
H1796 C1778 0.932 . S
H1797 C1779 0.929 . S
H1798 C1780 0.928 . S
H1799 C1782 0.932 . S
C1800 C1801 1.264 . S
C1800 C1805 1.479 . S
C1800 C1810 1.465 . S
C1801 C1800 1.264 . S
C1801 C1803 1.339 . S
C1801 H1828 0.931 . S
C1802 C1803 1.395 . S
C1802 C1804 1.320 . S
C1803 C1801 1.339 . S
C1803 C1802 1.395 . S
C1803 H1829 0.929 . S
C1804 C1802 1.320 . S
C1804 C1805 1.405 . S
C1804 H1830 0.930 . S
C1805 C1800 1.479 . S
C1805 C1804 1.405 . S
C1805 H1831 0.931 . S
U1806 O1807 2.454 . S
U1806 O1808 2.458 . S
U1806 C1809 2.984 . S
U1806 C1810 2.847 1_455 S
U1806 C1823 2.882 . S
U1806 O1824 2.441 1_455 S
U1806 O1825 2.420 1_455 S
U1806 O1826 2.455 . S
U1806 O1827 2.449 1_455 S
O1807 U1806 2.454 . S
O1807 C1809 1.353 . S
O1808 U1806 2.458 . S
O1808 C1809 1.286 . S
C1809 U1806 2.984 . S
C1809 O1807 1.353 . S
C1809 O1808 1.286 . S
C1809 C1811 1.363 . S
C1810 C1800 1.465 . S
C1810 U1806 2.847 1_655 S
C1810 O1824 1.249 . S
C1810 O1825 1.202 . S
C1811 C1809 1.363 . S
C1811 C1813 1.408 . S
C1811 C1816 1.342 . S
C1812 C1813 1.310 . S
C1812 C1815 1.461 . S
C1812 H1832 0.932 . S
C1813 C1811 1.408 . S
C1813 C1812 1.310 . S
C1813 H1833 0.930 . S
C1814 C1815 1.474 . S
C1814 C1816 1.285 . S
C1814 H1834 0.929 . S
C1815 C1812 1.461 . S
C1815 C1814 1.474 . S
C1816 C1811 1.342 . S
C1816 C1814 1.285 . S
C1816 H1835 0.930 . S
C1817 C1820 1.424 1_455 S
C1817 C1822 1.245 . S
C1817 C1823 1.428 . S
C1818 C1821 1.260 . S
C1818 C1822 1.477 . S
C1818 H1836 0.932 . S
C1819 C1820 1.384 . S
C1819 C1821 1.479 1_655 S
C1819 H1837 0.929 . S
C1820 C1817 1.424 1_655 S
C1820 C1819 1.384 . S
C1820 H1838 0.928 . S
C1821 C1818 1.260 . S
C1821 C1819 1.479 1_455 S
C1822 C1817 1.245 . S
C1822 C1818 1.477 . S
C1822 H1839 0.932 . S
C1823 U1806 2.882 . S
C1823 C1817 1.428 . S
C1823 O1826 1.301 . S
C1823 O1827 1.282 1_455 S
O1824 U1806 2.441 1_655 S
O1824 C1810 1.249 . S
O1825 U1806 2.420 1_655 S
O1825 C1810 1.202 . S
O1826 U1806 2.455 . S
O1826 C1823 1.301 . S
O1827 U1806 2.449 1_655 S
O1827 C1823 1.282 1_655 S
H1828 C1801 0.931 . S
H1829 C1803 0.929 . S
H1830 C1804 0.930 . S
H1831 C1805 0.931 . S
H1832 C1812 0.932 . S
H1833 C1813 0.930 . S
H1834 C1814 0.929 . S
H1835 C1816 0.930 . S
H1836 C1818 0.932 . S
H1837 C1819 0.929 . S
H1838 C1820 0.928 . S
H1839 C1822 0.932 . S
C1840 C1841 1.264 . S
C1840 C1845 1.479 . S
C1840 C1850 1.465 . S
C1841 C1840 1.264 . S
C1841 C1843 1.339 . S
C1841 H1868 0.931 . S
C1842 C1843 1.395 . S
C1842 C1844 1.320 . S
C1843 C1841 1.339 . S
C1843 C1842 1.395 . S
C1843 H1869 0.929 . S
C1844 C1842 1.320 . S
C1844 C1845 1.405 . S
C1844 H1870 0.930 . S
C1845 C1840 1.479 . S
C1845 C1844 1.405 . S
C1845 H1871 0.931 . S
U1846 O1847 2.454 . S
U1846 O1848 2.458 . S
U1846 C1849 2.984 . S
U1846 C1850 2.847 . S
U1846 C1863 2.882 . S
U1846 O1864 2.441 . S
U1846 O1865 2.420 . S
U1846 O1866 2.455 . S
U1846 O1867 2.449 . S
O1847 U1846 2.454 . S
O1847 C1849 1.353 . S
O1848 U1846 2.458 . S
O1848 C1849 1.286 . S
C1849 U1846 2.984 . S
C1849 O1847 1.353 . S
C1849 O1848 1.286 . S
C1849 C1851 1.363 . S
C1850 C1840 1.465 . S
C1850 U1846 2.847 . S
C1850 O1864 1.249 . S
C1850 O1865 1.202 . S
C1851 C1849 1.363 . S
C1851 C1853 1.408 . S
C1851 C1856 1.342 . S
C1852 C1853 1.310 . S
C1852 C1855 1.461 . S
C1852 H1872 0.932 . S
C1853 C1851 1.408 . S
C1853 C1852 1.310 . S
C1853 H1873 0.930 . S
C1854 C1855 1.474 . S
C1854 C1856 1.285 . S
C1854 H1874 0.929 . S
C1855 C1852 1.461 . S
C1855 C1854 1.474 . S
C1856 C1851 1.342 . S
C1856 C1854 1.285 . S
C1856 H1875 0.930 . S
C1857 C1860 1.424 . S
C1857 C1862 1.245 . S
C1857 C1863 1.428 . S
C1858 C1861 1.260 . S
C1858 C1862 1.477 . S
C1858 H1876 0.932 . S
C1859 C1860 1.384 . S
C1859 C1861 1.479 . S
C1859 H1877 0.929 . S
C1860 C1857 1.424 . S
C1860 C1859 1.384 . S
C1860 H1878 0.928 . S
C1861 C1858 1.260 . S
C1861 C1859 1.479 . S
C1862 C1857 1.245 . S
C1862 C1858 1.477 . S
C1862 H1879 0.932 . S
C1863 U1846 2.882 . S
C1863 C1857 1.428 . S
C1863 O1866 1.301 . S
C1863 O1867 1.282 . S
O1864 U1846 2.441 . S
O1864 C1850 1.249 . S
O1865 U1846 2.420 . S
O1865 C1850 1.202 . S
O1866 U1846 2.455 . S
O1866 C1863 1.301 . S
O1867 U1846 2.449 . S
O1867 C1863 1.282 . S
H1868 C1841 0.931 . S
H1869 C1843 0.929 . S
H1870 C1844 0.930 . S
H1871 C1845 0.931 . S
H1872 C1852 0.932 . S
H1873 C1853 0.930 . S
H1874 C1854 0.929 . S
H1875 C1856 0.930 . S
H1876 C1858 0.932 . S
H1877 C1859 0.929 . S
H1878 C1860 0.928 . S
H1879 C1862 0.932 . S
C1880 C1881 1.264 . S
C1880 C1885 1.479 . S
C1880 C1890 1.465 . S
C1881 C1880 1.264 . S
C1881 C1883 1.339 . S
C1881 H1908 0.931 . S
C1882 C1883 1.395 . S
C1882 C1884 1.320 . S
C1883 C1881 1.339 . S
C1883 C1882 1.395 . S
C1883 H1909 0.929 . S
C1884 C1882 1.320 . S
C1884 C1885 1.405 . S
C1884 H1910 0.930 . S
C1885 C1880 1.479 . S
C1885 C1884 1.405 . S
C1885 H1911 0.931 . S
U1886 O1887 2.454 . S
U1886 O1888 2.458 . S
U1886 C1889 2.984 . S
U1886 C1890 2.847 1_655 S
U1886 C1903 2.882 . S
U1886 O1904 2.441 1_655 S
U1886 O1905 2.420 1_655 S
U1886 O1906 2.455 . S
U1886 O1907 2.449 1_655 S
O1887 U1886 2.454 . S
O1887 C1889 1.353 . S
O1888 U1886 2.458 . S
O1888 C1889 1.286 . S
C1889 U1886 2.984 . S
C1889 O1887 1.353 . S
C1889 O1888 1.286 . S
C1889 C1891 1.363 . S
C1890 C1880 1.465 . S
C1890 U1886 2.847 1_455 S
C1890 O1904 1.249 . S
C1890 O1905 1.202 . S
C1891 C1889 1.363 . S
C1891 C1893 1.408 . S
C1891 C1896 1.342 . S
C1892 C1893 1.310 . S
C1892 C1895 1.461 . S
C1892 H1912 0.932 . S
C1893 C1891 1.408 . S
C1893 C1892 1.310 . S
C1893 H1913 0.930 . S
C1894 C1895 1.474 . S
C1894 C1896 1.285 . S
C1894 H1914 0.929 . S
C1895 C1892 1.461 . S
C1895 C1894 1.474 . S
C1896 C1891 1.342 . S
C1896 C1894 1.285 . S
C1896 H1915 0.930 . S
C1897 C1900 1.424 1_655 S
C1897 C1902 1.245 . S
C1897 C1903 1.428 . S
C1898 C1901 1.220 1_655 S
C1898 C1902 1.477 . S
C1898 H1916 0.932 . S
C1899 C1900 1.384 . S
C1899 C1901 1.517 . S
C1899 H1917 0.929 . S
C1900 C1897 1.424 1_455 S
C1900 C1899 1.384 . S
C1900 H1918 0.928 . S
C1901 C1898 1.220 1_455 S
C1901 C1899 1.517 . S
C1902 C1897 1.245 . S
C1902 C1898 1.477 . S
C1902 H1919 0.932 . S
C1903 U1886 2.882 . S
C1903 C1897 1.428 . S
C1903 O1906 1.301 . S
C1903 O1907 1.282 1_655 S
O1904 U1886 2.441 1_455 S
O1904 C1890 1.249 . S
O1905 U1886 2.420 1_455 S
O1905 C1890 1.202 . S
O1906 U1886 2.455 . S
O1906 C1903 1.301 . S
O1907 U1886 2.449 1_455 S
O1907 C1903 1.282 1_455 S
H1908 C1881 0.931 . S
H1909 C1883 0.929 . S
H1910 C1884 0.930 . S
H1911 C1885 0.931 . S
H1912 C1892 0.932 . S
H1913 C1893 0.930 . S
H1914 C1894 0.929 . S
H1915 C1896 0.930 . S
H1916 C1898 0.932 . S
H1917 C1899 0.929 . S
H1918 C1900 0.928 . S
H1919 C1902 0.932 . S
C1920 C1921 1.349 . S
C1920 C1922 1.327 . S
C1920 H1945 0.950 . S
C1921 C1920 1.349 . S
C1921 C1937 1.349 . S
C1922 C1920 1.327 . S
C1922 C1941 1.429 . S
C1922 H1946 0.950 . S
C1923 C1940 1.574 . S
C1923 C1942 1.368 . S
C1923 H1947 0.949 . S
H1924 C1928 0.949 . S
C1925 C1926 1.349 . S
C1925 C1927 1.327 . S
C1925 H1948 0.950 . S
C1926 C1925 1.349 . S
C1926 C1938 1.349 . S
C1927 C1925 1.327 . S
C1927 C1943 1.429 . S
C1927 H1949 0.950 . S
C1928 H1924 0.949 . S
C1928 C1936 1.574 . S
C1928 C1944 1.368 . S
H1929 C1937 0.950 . S
H1930 C1935 0.950 . S
H1931 C1936 0.949 . S
H1932 C1938 0.950 . S
H1933 C1939 0.950 . S
H1934 C1940 0.949 . S
C1935 H1930 0.950 . S
C1935 C1937 1.327 . S
C1935 C1941 1.429 . S
C1936 C1928 1.574 . S
C1936 H1931 0.949 . S
C1936 C1942 1.368 . S
C1937 C1921 1.349 . S
C1937 H1929 0.950 . S
C1937 C1935 1.327 . S
C1938 C1926 1.349 . S
C1938 H1932 0.950 . S
C1938 C1939 1.327 . S
C1939 H1933 0.950 . S
C1939 C1938 1.327 . S
C1939 C1943 1.429 . S
C1940 C1923 1.574 . S
C1940 H1934 0.949 . S
C1940 C1944 1.368 . S
C1941 C1922 1.429 . S
C1941 C1935 1.429 . S
C1941 C1942 1.523 . S
C1942 C1923 1.368 . S
C1942 C1936 1.368 . S
C1942 C1941 1.523 . S
C1943 C1927 1.429 . S
C1943 C1939 1.429 . S
C1943 C1944 1.523 . S
C1944 C1928 1.368 . S
C1944 C1940 1.368 . S
C1944 C1943 1.523 . S
H1945 C1920 0.950 . S
H1946 C1922 0.950 . S
H1947 C1923 0.949 . S
H1948 C1925 0.950 . S
H1949 C1927 0.950 . S
C1950 C1951 1.349 . S
C1950 C1952 1.327 . S
C1950 H1975 0.950 . S
C1951 C1950 1.349 . S
C1951 C1967 1.349 . S
C1952 C1950 1.327 . S
C1952 C1971 1.429 . S
C1952 H1976 0.950 . S
C1953 C1970 1.574 . S
C1953 C1972 1.368 . S
C1953 H1977 0.949 . S
H1954 C1958 0.949 . S
C1955 C1956 1.349 . S
C1955 C1957 1.327 . S
C1955 H1978 0.950 . S
C1956 C1955 1.349 . S
C1956 C1968 1.349 . S
C1957 C1955 1.327 . S
C1957 C1973 1.429 . S
C1957 H1979 0.950 . S
C1958 H1954 0.949 . S
C1958 C1966 1.574 . S
C1958 C1974 1.368 . S
H1959 C1967 0.950 . S
H1960 C1965 0.950 . S
H1961 C1966 0.949 . S
H1962 C1968 0.950 . S
H1963 C1969 0.950 . S
H1964 C1970 0.949 . S
C1965 H1960 0.950 . S
C1965 C1967 1.327 . S
C1965 C1971 1.429 . S
C1966 C1958 1.574 . S
C1966 H1961 0.949 . S
C1966 C1972 1.368 . S
C1967 C1951 1.349 . S
C1967 H1959 0.950 . S
C1967 C1965 1.327 . S
C1968 C1956 1.349 . S
C1968 H1962 0.950 . S
C1968 C1969 1.327 . S
C1969 H1963 0.950 . S
C1969 C1968 1.327 . S
C1969 C1973 1.429 . S
C1970 C1953 1.574 . S
C1970 H1964 0.949 . S
C1970 C1974 1.368 . S
C1971 C1952 1.429 . S
C1971 C1965 1.429 . S
C1971 C1972 1.523 . S
C1972 C1953 1.368 . S
C1972 C1966 1.368 . S
C1972 C1971 1.523 . S
C1973 C1957 1.429 . S
C1973 C1969 1.429 . S
C1973 C1974 1.523 . S
C1974 C1958 1.368 . S
C1974 C1970 1.368 . S
C1974 C1973 1.523 . S
H1975 C1950 0.950 . S
H1976 C1952 0.950 . S
H1977 C1953 0.949 . S
H1978 C1955 0.950 . S
H1979 C1957 0.950 . S
C1980 C1981 1.349 . S
C1980 C1982 1.327 . S
C1980 H2005 0.950 . S
C1981 C1980 1.349 . S
C1981 C1997 1.349 . S
C1982 C1980 1.327 . S
C1982 C2001 1.429 . S
C1982 H2006 0.950 . S
C1983 C2000 1.574 . S
C1983 C2002 1.368 . S
C1983 H2007 0.949 . S
H1984 C1988 0.949 . S
C1985 C1986 1.349 . S
C1985 C1987 1.327 . S
C1985 H2008 0.950 . S
C1986 C1985 1.349 . S
C1986 C1998 1.349 . S
C1987 C1985 1.327 . S
C1987 C2003 1.429 . S
C1987 H2009 0.950 . S
C1988 H1984 0.949 . S
C1988 C1996 1.574 . S
C1988 C2004 1.368 . S
H1989 C1997 0.950 . S
H1990 C1995 0.950 . S
H1991 C1996 0.949 . S
H1992 C1998 0.950 . S
H1993 C1999 0.950 . S
H1994 C2000 0.949 . S
C1995 H1990 0.950 . S
C1995 C1997 1.327 . S
C1995 C2001 1.429 . S
C1996 C1988 1.574 . S
C1996 H1991 0.949 . S
C1996 C2002 1.368 . S
C1997 C1981 1.349 . S
C1997 H1989 0.950 . S
C1997 C1995 1.327 . S
C1998 C1986 1.349 . S
C1998 H1992 0.950 . S
C1998 C1999 1.327 . S
C1999 H1993 0.950 . S
C1999 C1998 1.327 . S
C1999 C2003 1.429 . S
C2000 C1983 1.574 . S
C2000 H1994 0.949 . S
C2000 C2004 1.368 . S
C2001 C1982 1.429 . S
C2001 C1995 1.429 . S
C2001 C2002 1.523 . S
C2002 C1983 1.368 . S
C2002 C1996 1.368 . S
C2002 C2001 1.523 . S
C2003 C1987 1.429 . S
C2003 C1999 1.429 . S
C2003 C2004 1.523 . S
C2004 C1988 1.368 . S
C2004 C2000 1.368 . S
C2004 C2003 1.523 . S
H2005 C1980 0.950 . S
H2006 C1982 0.950 . S
H2007 C1983 0.949 . S
H2008 C1985 0.950 . S
H2009 C1987 0.950 . S
C2010 C2011 1.349 . S
C2010 C2012 1.327 . S
C2010 H2035 0.950 . S
C2011 C2010 1.349 . S
C2011 C2027 1.349 . S
C2012 C2010 1.327 . S
C2012 C2031 1.429 . S
C2012 H2036 0.950 . S
C2013 C2030 1.574 . S
C2013 C2032 1.368 . S
C2013 H2037 0.949 . S
H2014 C2018 0.949 . S
C2015 C2016 1.349 . S
C2015 C2017 1.327 . S
C2015 H2038 0.950 . S
C2016 C2015 1.349 . S
C2016 C2028 1.349 . S
C2017 C2015 1.327 . S
C2017 C2033 1.429 . S
C2017 H2039 0.950 . S
C2018 H2014 0.949 . S
C2018 C2026 1.574 . S
C2018 C2034 1.368 . S
H2019 C2027 0.950 . S
H2020 C2025 0.950 . S
H2021 C2026 0.949 . S
H2022 C2028 0.950 . S
H2023 C2029 0.950 . S
H2024 C2030 0.949 . S
C2025 H2020 0.950 . S
C2025 C2027 1.327 . S
C2025 C2031 1.429 . S
C2026 C2018 1.574 . S
C2026 H2021 0.949 . S
C2026 C2032 1.368 . S
C2027 C2011 1.349 . S
C2027 H2019 0.950 . S
C2027 C2025 1.327 . S
C2028 C2016 1.349 . S
C2028 H2022 0.950 . S
C2028 C2029 1.327 . S
C2029 H2023 0.950 . S
C2029 C2028 1.327 . S
C2029 C2033 1.429 . S
C2030 C2013 1.574 . S
C2030 H2024 0.949 . S
C2030 C2034 1.368 . S
C2031 C2012 1.429 . S
C2031 C2025 1.429 . S
C2031 C2032 1.523 . S
C2032 C2013 1.368 . S
C2032 C2026 1.368 . S
C2032 C2031 1.523 . S
C2033 C2017 1.429 . S
C2033 C2029 1.429 . S
C2033 C2034 1.523 . S
C2034 C2018 1.368 . S
C2034 C2030 1.368 . S
C2034 C2033 1.523 . S
H2035 C2010 0.950 . S
H2036 C2012 0.950 . S
H2037 C2013 0.949 . S
H2038 C2015 0.950 . S
H2039 C2017 0.950 . S
C2040 C2041 1.349 . S
C2040 C2042 1.327 . S
C2040 H2065 0.950 . S
C2041 C2040 1.349 . S
C2041 C2057 1.349 . S
C2042 C2040 1.327 . S
C2042 C2061 1.429 . S
C2042 H2066 0.950 . S
C2043 C2060 1.574 . S
C2043 C2062 1.368 . S
C2043 H2067 0.949 . S
H2044 C2048 0.949 . S
C2045 C2046 1.349 . S
C2045 C2047 1.327 . S
C2045 H2068 0.950 . S
C2046 C2045 1.349 . S
C2046 C2058 1.349 . S
C2047 C2045 1.327 . S
C2047 C2063 1.429 . S
C2047 H2069 0.950 . S
C2048 H2044 0.949 . S
C2048 C2056 1.574 . S
C2048 C2064 1.368 . S
H2049 C2057 0.950 . S
H2050 C2055 0.950 . S
H2051 C2056 0.949 . S
H2052 C2058 0.950 . S
H2053 C2059 0.950 . S
H2054 C2060 0.949 . S
C2055 H2050 0.950 . S
C2055 C2057 1.327 . S
C2055 C2061 1.429 . S
C2056 C2048 1.574 . S
C2056 H2051 0.949 . S
C2056 C2062 1.368 . S
C2057 C2041 1.349 . S
C2057 H2049 0.950 . S
C2057 C2055 1.327 . S
C2058 C2046 1.349 . S
C2058 H2052 0.950 . S
C2058 C2059 1.327 . S
C2059 H2053 0.950 . S
C2059 C2058 1.327 . S
C2059 C2063 1.429 . S
C2060 C2043 1.574 . S
C2060 H2054 0.949 . S
C2060 C2064 1.368 . S
C2061 C2042 1.429 . S
C2061 C2055 1.429 . S
C2061 C2062 1.523 . S
C2062 C2043 1.368 . S
C2062 C2056 1.368 . S
C2062 C2061 1.523 . S
C2063 C2047 1.429 . S
C2063 C2059 1.429 . S
C2063 C2064 1.523 . S
C2064 C2048 1.368 . S
C2064 C2060 1.368 . S
C2064 C2063 1.523 . S
H2065 C2040 0.950 . S
H2066 C2042 0.950 . S
H2067 C2043 0.949 . S
H2068 C2045 0.950 . S
H2069 C2047 0.950 . S
C2070 C2071 1.349 . S
C2070 C2072 1.327 . S
C2070 H2095 0.950 . S
C2071 C2070 1.349 . S
C2071 C2087 1.349 . S
C2072 C2070 1.327 . S
C2072 C2091 1.429 . S
C2072 H2096 0.950 . S
C2073 C2090 1.574 . S
C2073 C2092 1.368 . S
C2073 H2097 0.949 . S
H2074 C2078 0.949 . S
C2075 C2076 1.349 . S
C2075 C2077 1.327 . S
C2075 H2098 0.950 . S
C2076 C2075 1.349 . S
C2076 C2088 1.349 . S
C2077 C2075 1.327 . S
C2077 C2093 1.429 . S
C2077 H2099 0.950 . S
C2078 H2074 0.949 . S
C2078 C2086 1.574 . S
C2078 C2094 1.368 . S
H2079 C2087 0.950 . S
H2080 C2085 0.950 . S
H2081 C2086 0.949 . S
H2082 C2088 0.950 . S
H2083 C2089 0.950 . S
H2084 C2090 0.949 . S
C2085 H2080 0.950 . S
C2085 C2087 1.327 . S
C2085 C2091 1.429 . S
C2086 C2078 1.574 . S
C2086 H2081 0.949 . S
C2086 C2092 1.368 . S
C2087 C2071 1.349 . S
C2087 H2079 0.950 . S
C2087 C2085 1.327 . S
C2088 C2076 1.349 . S
C2088 H2082 0.950 . S
C2088 C2089 1.327 . S
C2089 H2083 0.950 . S
C2089 C2088 1.327 . S
C2089 C2093 1.429 . S
C2090 C2073 1.574 . S
C2090 H2084 0.949 . S
C2090 C2094 1.368 . S
C2091 C2072 1.429 . S
C2091 C2085 1.429 . S
C2091 C2092 1.523 . S
C2092 C2073 1.368 . S
C2092 C2086 1.368 . S
C2092 C2091 1.523 . S
C2093 C2077 1.429 . S
C2093 C2089 1.429 . S
C2093 C2094 1.523 . S
C2094 C2078 1.368 . S
C2094 C2090 1.368 . S
C2094 C2093 1.523 . S
H2095 C2070 0.950 . S
H2096 C2072 0.950 . S
H2097 C2073 0.949 . S
H2098 C2075 0.950 . S
H2099 C2077 0.950 . S
C2100 C2101 1.349 . S
C2100 C2102 1.327 . S
C2100 H2125 0.950 . S
C2101 C2100 1.349 . S
C2101 C2117 1.349 . S
C2102 C2100 1.327 . S
C2102 C2121 1.429 . S
C2102 H2126 0.950 . S
C2103 C2120 1.574 . S
C2103 C2122 1.368 . S
C2103 H2127 0.949 . S
H2104 C2108 0.949 . S
C2105 C2106 1.349 . S
C2105 C2107 1.327 . S
C2105 H2128 0.950 . S
C2106 C2105 1.349 . S
C2106 C2118 1.349 . S
C2107 C2105 1.327 . S
C2107 C2123 1.429 . S
C2107 H2129 0.950 . S
C2108 H2104 0.949 . S
C2108 C2116 1.574 . S
C2108 C2124 1.368 . S
H2109 C2117 0.950 . S
H2110 C2115 0.950 . S
H2111 C2116 0.949 . S
H2112 C2118 0.950 . S
H2113 C2119 0.950 . S
H2114 C2120 0.949 . S
C2115 H2110 0.950 . S
C2115 C2117 1.327 . S
C2115 C2121 1.429 . S
C2116 C2108 1.574 . S
C2116 H2111 0.949 . S
C2116 C2122 1.368 . S
C2117 C2101 1.349 . S
C2117 H2109 0.950 . S
C2117 C2115 1.327 . S
C2118 C2106 1.349 . S
C2118 H2112 0.950 . S
C2118 C2119 1.327 . S
C2119 H2113 0.950 . S
C2119 C2118 1.327 . S
C2119 C2123 1.429 . S
C2120 C2103 1.574 . S
C2120 H2114 0.949 . S
C2120 C2124 1.368 . S
C2121 C2102 1.429 . S
C2121 C2115 1.429 . S
C2121 C2122 1.523 . S
C2122 C2103 1.368 . S
C2122 C2116 1.368 . S
C2122 C2121 1.523 . S
C2123 C2107 1.429 . S
C2123 C2119 1.429 . S
C2123 C2124 1.523 . S
C2124 C2108 1.368 . S
C2124 C2120 1.368 . S
C2124 C2123 1.523 . S
H2125 C2100 0.950 . S
H2126 C2102 0.950 . S
H2127 C2103 0.949 . S
H2128 C2105 0.950 . S
H2129 C2107 0.950 . S
C2130 C2131 1.349 . S
C2130 C2132 1.327 . S
C2130 H2155 0.950 . S
C2131 C2130 1.349 . S
C2131 C2147 1.349 . S
C2132 C2130 1.327 . S
C2132 C2151 1.429 . S
C2132 H2156 0.950 . S
C2133 C2150 1.574 . S
C2133 C2152 1.368 . S
C2133 H2157 0.949 . S
H2134 C2138 0.949 . S
C2135 C2136 1.349 . S
C2135 C2137 1.327 . S
C2135 H2158 0.950 . S
C2136 C2135 1.349 . S
C2136 C2148 1.349 . S
C2137 C2135 1.327 . S
C2137 C2153 1.429 . S
C2137 H2159 0.950 . S
C2138 H2134 0.949 . S
C2138 C2146 1.574 . S
C2138 C2154 1.368 . S
H2139 C2147 0.950 . S
H2140 C2145 0.950 . S
H2141 C2146 0.949 . S
H2142 C2148 0.950 . S
H2143 C2149 0.950 . S
H2144 C2150 0.949 . S
C2145 H2140 0.950 . S
C2145 C2147 1.327 . S
C2145 C2151 1.429 . S
C2146 C2138 1.574 . S
C2146 H2141 0.949 . S
C2146 C2152 1.368 . S
C2147 C2131 1.349 . S
C2147 H2139 0.950 . S
C2147 C2145 1.327 . S
C2148 C2136 1.349 . S
C2148 H2142 0.950 . S
C2148 C2149 1.327 . S
C2149 H2143 0.950 . S
C2149 C2148 1.327 . S
C2149 C2153 1.429 . S
C2150 C2133 1.574 . S
C2150 H2144 0.949 . S
C2150 C2154 1.368 . S
C2151 C2132 1.429 . S
C2151 C2145 1.429 . S
C2151 C2152 1.523 . S
C2152 C2133 1.368 . S
C2152 C2146 1.368 . S
C2152 C2151 1.523 . S
C2153 C2137 1.429 . S
C2153 C2149 1.429 . S
C2153 C2154 1.523 . S
C2154 C2138 1.368 . S
C2154 C2150 1.368 . S
C2154 C2153 1.523 . S
H2155 C2130 0.950 . S
H2156 C2132 0.950 . S
H2157 C2133 0.949 . S
H2158 C2135 0.950 . S
H2159 C2137 0.950 . S
C2160 C2161 1.349 . S
C2160 C2162 1.327 . S
C2160 H2185 0.950 . S
C2161 C2160 1.349 . S
C2161 C2177 1.349 . S
C2162 C2160 1.327 . S
C2162 C2181 1.429 . S
C2162 H2186 0.950 . S
C2163 C2180 1.574 . S
C2163 C2182 1.368 . S
C2163 H2187 0.949 . S
H2164 C2168 0.949 . S
C2165 C2166 1.349 . S
C2165 C2167 1.327 . S
C2165 H2188 0.950 . S
C2166 C2165 1.349 . S
C2166 C2178 1.349 . S
C2167 C2165 1.327 . S
C2167 C2183 1.429 . S
C2167 H2189 0.950 . S
C2168 H2164 0.949 . S
C2168 C2176 1.574 . S
C2168 C2184 1.368 . S
H2169 C2177 0.950 . S
H2170 C2175 0.950 . S
H2171 C2176 0.949 . S
H2172 C2178 0.950 . S
H2173 C2179 0.950 . S
H2174 C2180 0.949 . S
C2175 H2170 0.950 . S
C2175 C2177 1.327 . S
C2175 C2181 1.429 . S
C2176 C2168 1.574 . S
C2176 H2171 0.949 . S
C2176 C2182 1.368 . S
C2177 C2161 1.349 . S
C2177 H2169 0.950 . S
C2177 C2175 1.327 . S
C2178 C2166 1.349 . S
C2178 H2172 0.950 . S
C2178 C2179 1.327 . S
C2179 H2173 0.950 . S
C2179 C2178 1.327 . S
C2179 C2183 1.429 . S
C2180 C2163 1.574 . S
C2180 H2174 0.949 . S
C2180 C2184 1.368 . S
C2181 C2162 1.429 . S
C2181 C2175 1.429 . S
C2181 C2182 1.523 . S
C2182 C2163 1.368 . S
C2182 C2176 1.368 . S
C2182 C2181 1.523 . S
C2183 C2167 1.429 . S
C2183 C2179 1.429 . S
C2183 C2184 1.523 . S
C2184 C2168 1.368 . S
C2184 C2180 1.368 . S
C2184 C2183 1.523 . S
H2185 C2160 0.950 . S
H2186 C2162 0.950 . S
H2187 C2163 0.949 . S
H2188 C2165 0.950 . S
H2189 C2167 0.950 . S
C2190 C2191 1.349 . S
C2190 C2192 1.327 . S
C2190 H2215 0.950 . S
C2191 C2190 1.349 . S
C2191 C2207 1.349 . S
C2192 C2190 1.327 . S
C2192 C2211 1.429 . S
C2192 H2216 0.950 . S
C2193 C2210 1.574 . S
C2193 C2212 1.368 . S
C2193 H2217 0.949 . S
H2194 C2198 0.949 . S
C2195 C2196 1.349 . S
C2195 C2197 1.327 . S
C2195 H2218 0.950 . S
C2196 C2195 1.349 . S
C2196 C2208 1.349 . S
C2197 C2195 1.327 . S
C2197 C2213 1.429 . S
C2197 H2219 0.950 . S
C2198 H2194 0.949 . S
C2198 C2206 1.574 . S
C2198 C2214 1.368 . S
H2199 C2207 0.950 . S
H2200 C2205 0.950 . S
H2201 C2206 0.949 . S
H2202 C2208 0.950 . S
H2203 C2209 0.950 . S
H2204 C2210 0.949 . S
C2205 H2200 0.950 . S
C2205 C2207 1.327 . S
C2205 C2211 1.429 . S
C2206 C2198 1.574 . S
C2206 H2201 0.949 . S
C2206 C2212 1.368 . S
C2207 C2191 1.349 . S
C2207 H2199 0.950 . S
C2207 C2205 1.327 . S
C2208 C2196 1.349 . S
C2208 H2202 0.950 . S
C2208 C2209 1.327 . S
C2209 H2203 0.950 . S
C2209 C2208 1.327 . S
C2209 C2213 1.429 . S
C2210 C2193 1.574 . S
C2210 H2204 0.949 . S
C2210 C2214 1.368 . S
C2211 C2192 1.429 . S
C2211 C2205 1.429 . S
C2211 C2212 1.523 . S
C2212 C2193 1.368 . S
C2212 C2206 1.368 . S
C2212 C2211 1.523 . S
C2213 C2197 1.429 . S
C2213 C2209 1.429 . S
C2213 C2214 1.523 . S
C2214 C2198 1.368 . S
C2214 C2210 1.368 . S
C2214 C2213 1.523 . S
H2215 C2190 0.950 . S
H2216 C2192 0.950 . S
H2217 C2193 0.949 . S
H2218 C2195 0.950 . S
H2219 C2197 0.950 . S
C2220 C2221 1.349 . S
C2220 C2222 1.327 . S
C2220 H2245 0.950 . S
C2221 C2220 1.349 . S
C2221 C2237 1.349 . S
C2222 C2220 1.327 . S
C2222 C2241 1.429 . S
C2222 H2246 0.950 . S
C2223 C2240 1.574 . S
C2223 C2242 1.368 . S
C2223 H2247 0.949 . S
H2224 C2228 0.949 . S
C2225 C2226 1.349 . S
C2225 C2227 1.327 . S
C2225 H2248 0.950 . S
C2226 C2225 1.349 . S
C2226 C2238 1.349 . S
C2227 C2225 1.327 . S
C2227 C2243 1.429 . S
C2227 H2249 0.950 . S
C2228 H2224 0.949 . S
C2228 C2236 1.574 . S
C2228 C2244 1.368 . S
H2229 C2237 0.950 . S
H2230 C2235 0.950 . S
H2231 C2236 0.949 . S
H2232 C2238 0.950 . S
H2233 C2239 0.950 . S
H2234 C2240 0.949 . S
C2235 H2230 0.950 . S
C2235 C2237 1.327 . S
C2235 C2241 1.429 . S
C2236 C2228 1.574 . S
C2236 H2231 0.949 . S
C2236 C2242 1.368 . S
C2237 C2221 1.349 . S
C2237 H2229 0.950 . S
C2237 C2235 1.327 . S
C2238 C2226 1.349 . S
C2238 H2232 0.950 . S
C2238 C2239 1.327 . S
C2239 H2233 0.950 . S
C2239 C2238 1.327 . S
C2239 C2243 1.429 . S
C2240 C2223 1.574 . S
C2240 H2234 0.949 . S
C2240 C2244 1.368 . S
C2241 C2222 1.429 . S
C2241 C2235 1.429 . S
C2241 C2242 1.523 . S
C2242 C2223 1.368 . S
C2242 C2236 1.368 . S
C2242 C2241 1.523 . S
C2243 C2227 1.429 . S
C2243 C2239 1.429 . S
C2243 C2244 1.523 . S
C2244 C2228 1.368 . S
C2244 C2240 1.368 . S
C2244 C2243 1.523 . S
H2245 C2220 0.950 . S
H2246 C2222 0.950 . S
H2247 C2223 0.949 . S
H2248 C2225 0.950 . S
H2249 C2227 0.950 . S
C2250 C2251 1.349 . S
C2250 C2252 1.327 . S
C2250 H2275 0.950 . S
C2251 C2250 1.349 . S
C2251 C2267 1.349 . S
C2252 C2250 1.327 . S
C2252 C2271 1.429 . S
C2252 H2276 0.950 . S
C2253 C2270 1.574 . S
C2253 C2272 1.368 . S
C2253 H2277 0.949 . S
H2254 C2258 0.949 . S
C2255 C2256 1.349 . S
C2255 C2257 1.327 . S
C2255 H2278 0.950 . S
C2256 C2255 1.349 . S
C2256 C2268 1.349 . S
C2257 C2255 1.327 . S
C2257 C2273 1.429 . S
C2257 H2279 0.950 . S
C2258 H2254 0.949 . S
C2258 C2266 1.574 . S
C2258 C2274 1.368 . S
H2259 C2267 0.950 . S
H2260 C2265 0.950 . S
H2261 C2266 0.949 . S
H2262 C2268 0.950 . S
H2263 C2269 0.950 . S
H2264 C2270 0.949 . S
C2265 H2260 0.950 . S
C2265 C2267 1.327 . S
C2265 C2271 1.429 . S
C2266 C2258 1.574 . S
C2266 H2261 0.949 . S
C2266 C2272 1.368 . S
C2267 C2251 1.349 . S
C2267 H2259 0.950 . S
C2267 C2265 1.327 . S
C2268 C2256 1.349 . S
C2268 H2262 0.950 . S
C2268 C2269 1.327 . S
C2269 H2263 0.950 . S
C2269 C2268 1.327 . S
C2269 C2273 1.429 . S
C2270 C2253 1.574 . S
C2270 H2264 0.949 . S
C2270 C2274 1.368 . S
C2271 C2252 1.429 . S
C2271 C2265 1.429 . S
C2271 C2272 1.523 . S
C2272 C2253 1.368 . S
C2272 C2266 1.368 . S
C2272 C2271 1.523 . S
C2273 C2257 1.429 . S
C2273 C2269 1.429 . S
C2273 C2274 1.523 . S
C2274 C2258 1.368 . S
C2274 C2270 1.368 . S
C2274 C2273 1.523 . S
H2275 C2250 0.950 . S
H2276 C2252 0.950 . S
H2277 C2253 0.949 . S
H2278 C2255 0.950 . S
H2279 C2257 0.950 . S
C2280 C2281 1.349 . S
C2280 C2282 1.327 . S
C2280 H2305 0.950 . S
C2281 C2280 1.349 . S
C2281 C2297 1.349 . S
C2282 C2280 1.327 . S
C2282 C2301 1.429 . S
C2282 H2306 0.950 . S
C2283 C2300 1.574 . S
C2283 C2302 1.368 . S
C2283 H2307 0.949 . S
H2284 C2288 0.949 . S
C2285 C2286 1.349 . S
C2285 C2287 1.327 . S
C2285 H2308 0.950 . S
C2286 C2285 1.349 . S
C2286 C2298 1.349 . S
C2287 C2285 1.327 . S
C2287 C2303 1.429 . S
C2287 H2309 0.950 . S
C2288 H2284 0.949 . S
C2288 C2296 1.574 . S
C2288 C2304 1.368 . S
H2289 C2297 0.950 . S
H2290 C2295 0.950 . S
H2291 C2296 0.949 . S
H2292 C2298 0.950 . S
H2293 C2299 0.950 . S
H2294 C2300 0.949 . S
C2295 H2290 0.950 . S
C2295 C2297 1.327 . S
C2295 C2301 1.429 . S
C2296 C2288 1.574 . S
C2296 H2291 0.949 . S
C2296 C2302 1.368 . S
C2297 C2281 1.349 . S
C2297 H2289 0.950 . S
C2297 C2295 1.327 . S
C2298 C2286 1.349 . S
C2298 H2292 0.950 . S
C2298 C2299 1.327 . S
C2299 H2293 0.950 . S
C2299 C2298 1.327 . S
C2299 C2303 1.429 . S
C2300 C2283 1.574 . S
C2300 H2294 0.949 . S
C2300 C2304 1.368 . S
C2301 C2282 1.429 . S
C2301 C2295 1.429 . S
C2301 C2302 1.523 . S
C2302 C2283 1.368 . S
C2302 C2296 1.368 . S
C2302 C2301 1.523 . S
C2303 C2287 1.429 . S
C2303 C2299 1.429 . S
C2303 C2304 1.523 . S
C2304 C2288 1.368 . S
C2304 C2300 1.368 . S
C2304 C2303 1.523 . S
H2305 C2280 0.950 . S
H2306 C2282 0.950 . S
H2307 C2283 0.949 . S
H2308 C2285 0.950 . S
H2309 C2287 0.950 . S
C2310 C2311 1.349 . S
C2310 C2312 1.327 . S
C2310 H2335 0.950 . S
C2311 C2310 1.349 . S
C2311 C2327 1.349 . S
C2312 C2310 1.327 . S
C2312 C2331 1.429 . S
C2312 H2336 0.950 . S
C2313 C2330 1.574 . S
C2313 C2332 1.368 . S
C2313 H2337 0.949 . S
H2314 C2318 0.949 . S
C2315 C2316 1.349 . S
C2315 C2317 1.327 . S
C2315 H2338 0.950 . S
C2316 C2315 1.349 . S
C2316 C2328 1.349 . S
C2317 C2315 1.327 . S
C2317 C2333 1.429 . S
C2317 H2339 0.950 . S
C2318 H2314 0.949 . S
C2318 C2326 1.574 . S
C2318 C2334 1.368 . S
H2319 C2327 0.950 . S
H2320 C2325 0.950 . S
H2321 C2326 0.949 . S
H2322 C2328 0.950 . S
H2323 C2329 0.950 . S
H2324 C2330 0.949 . S
C2325 H2320 0.950 . S
C2325 C2327 1.327 . S
C2325 C2331 1.429 . S
C2326 C2318 1.574 . S
C2326 H2321 0.949 . S
C2326 C2332 1.368 . S
C2327 C2311 1.349 . S
C2327 H2319 0.950 . S
C2327 C2325 1.327 . S
C2328 C2316 1.349 . S
C2328 H2322 0.950 . S
C2328 C2329 1.327 . S
C2329 H2323 0.950 . S
C2329 C2328 1.327 . S
C2329 C2333 1.429 . S
C2330 C2313 1.574 . S
C2330 H2324 0.949 . S
C2330 C2334 1.368 . S
C2331 C2312 1.429 . S
C2331 C2325 1.429 . S
C2331 C2332 1.523 . S
C2332 C2313 1.368 . S
C2332 C2326 1.368 . S
C2332 C2331 1.523 . S
C2333 C2317 1.429 . S
C2333 C2329 1.429 . S
C2333 C2334 1.523 . S
C2334 C2318 1.368 . S
C2334 C2330 1.368 . S
C2334 C2333 1.523 . S
H2335 C2310 0.950 . S
H2336 C2312 0.950 . S
H2337 C2313 0.949 . S
H2338 C2315 0.950 . S
H2339 C2317 0.950 . S
C2340 C2341 1.349 . S
C2340 C2342 1.327 . S
C2340 H2365 0.950 . S
C2341 C2340 1.349 . S
C2341 C2357 1.349 . S
C2342 C2340 1.327 . S
C2342 C2361 1.429 . S
C2342 H2366 0.950 . S
C2343 C2360 1.574 . S
C2343 C2362 1.368 . S
C2343 H2367 0.949 . S
H2344 C2348 0.949 . S
C2345 C2346 1.349 . S
C2345 C2347 1.327 . S
C2345 H2368 0.950 . S
C2346 C2345 1.349 . S
C2346 C2358 1.349 . S
C2347 C2345 1.327 . S
C2347 C2363 1.429 . S
C2347 H2369 0.950 . S
C2348 H2344 0.949 . S
C2348 C2356 1.574 . S
C2348 C2364 1.368 . S
H2349 C2357 0.950 . S
H2350 C2355 0.950 . S
H2351 C2356 0.949 . S
H2352 C2358 0.950 . S
H2353 C2359 0.950 . S
H2354 C2360 0.949 . S
C2355 H2350 0.950 . S
C2355 C2357 1.327 . S
C2355 C2361 1.429 . S
C2356 C2348 1.574 . S
C2356 H2351 0.949 . S
C2356 C2362 1.368 . S
C2357 C2341 1.349 . S
C2357 H2349 0.950 . S
C2357 C2355 1.327 . S
C2358 C2346 1.349 . S
C2358 H2352 0.950 . S
C2358 C2359 1.327 . S
C2359 H2353 0.950 . S
C2359 C2358 1.327 . S
C2359 C2363 1.429 . S
C2360 C2343 1.574 . S
C2360 H2354 0.949 . S
C2360 C2364 1.368 . S
C2361 C2342 1.429 . S
C2361 C2355 1.429 . S
C2361 C2362 1.523 . S
C2362 C2343 1.368 . S
C2362 C2356 1.368 . S
C2362 C2361 1.523 . S
C2363 C2347 1.429 . S
C2363 C2359 1.429 . S
C2363 C2364 1.523 . S
C2364 C2348 1.368 . S
C2364 C2360 1.368 . S
C2364 C2363 1.523 . S
H2365 C2340 0.950 . S
H2366 C2342 0.950 . S
H2367 C2343 0.949 . S
H2368 C2345 0.950 . S
H2369 C2347 0.950 . S
C2370 C2371 1.349 . S
C2370 C2372 1.327 . S
C2370 H2395 0.950 . S
C2371 C2370 1.349 . S
C2371 C2387 1.349 . S
C2372 C2370 1.327 . S
C2372 C2391 1.429 . S
C2372 H2396 0.950 . S
C2373 C2390 1.574 . S
C2373 C2392 1.368 . S
C2373 H2397 0.949 . S
H2374 C2378 0.949 . S
C2375 C2376 1.349 . S
C2375 C2377 1.327 . S
C2375 H2398 0.950 . S
C2376 C2375 1.349 . S
C2376 C2388 1.349 . S
C2377 C2375 1.327 . S
C2377 C2393 1.429 . S
C2377 H2399 0.950 . S
C2378 H2374 0.949 . S
C2378 C2386 1.574 . S
C2378 C2394 1.368 . S
H2379 C2387 0.950 . S
H2380 C2385 0.950 . S
H2381 C2386 0.949 . S
H2382 C2388 0.950 . S
H2383 C2389 0.950 . S
H2384 C2390 0.949 . S
C2385 H2380 0.950 . S
C2385 C2387 1.327 . S
C2385 C2391 1.429 . S
C2386 C2378 1.574 . S
C2386 H2381 0.949 . S
C2386 C2392 1.368 . S
C2387 C2371 1.349 . S
C2387 H2379 0.950 . S
C2387 C2385 1.327 . S
C2388 C2376 1.349 . S
C2388 H2382 0.950 . S
C2388 C2389 1.327 . S
C2389 H2383 0.950 . S
C2389 C2388 1.327 . S
C2389 C2393 1.429 . S
C2390 C2373 1.574 . S
C2390 H2384 0.949 . S
C2390 C2394 1.368 . S
C2391 C2372 1.429 . S
C2391 C2385 1.429 . S
C2391 C2392 1.523 . S
C2392 C2373 1.368 . S
C2392 C2386 1.368 . S
C2392 C2391 1.523 . S
C2393 C2377 1.429 . S
C2393 C2389 1.429 . S
C2393 C2394 1.523 . S
C2394 C2378 1.368 . S
C2394 C2390 1.368 . S
C2394 C2393 1.523 . S
H2395 C2370 0.950 . S
H2396 C2372 0.950 . S
H2397 C2373 0.949 . S
H2398 C2375 0.950 . S
H2399 C2377 0.950 . S
C2400 C2401 1.349 . S
C2400 C2402 1.327 . S
C2400 H2425 0.950 . S
C2401 C2400 1.349 . S
C2401 C2417 1.349 . S
C2402 C2400 1.327 . S
C2402 C2421 1.429 . S
C2402 H2426 0.950 . S
C2403 C2420 1.574 . S
C2403 C2422 1.368 . S
C2403 H2427 0.949 . S
H2404 C2408 0.949 . S
C2405 C2406 1.349 . S
C2405 C2407 1.327 . S
C2405 H2428 0.950 . S
C2406 C2405 1.349 . S
C2406 C2418 1.349 . S
C2407 C2405 1.327 . S
C2407 C2423 1.429 . S
C2407 H2429 0.950 . S
C2408 H2404 0.949 . S
C2408 C2416 1.574 . S
C2408 C2424 1.368 . S
H2409 C2417 0.950 . S
H2410 C2415 0.950 . S
H2411 C2416 0.949 . S
H2412 C2418 0.950 . S
H2413 C2419 0.950 . S
H2414 C2420 0.949 . S
C2415 H2410 0.950 . S
C2415 C2417 1.327 . S
C2415 C2421 1.429 . S
C2416 C2408 1.574 . S
C2416 H2411 0.949 . S
C2416 C2422 1.368 . S
C2417 C2401 1.349 . S
C2417 H2409 0.950 . S
C2417 C2415 1.327 . S
C2418 C2406 1.349 . S
C2418 H2412 0.950 . S
C2418 C2419 1.327 . S
C2419 H2413 0.950 . S
C2419 C2418 1.327 . S
C2419 C2423 1.429 . S
C2420 C2403 1.574 . S
C2420 H2414 0.949 . S
C2420 C2424 1.368 . S
C2421 C2402 1.429 . S
C2421 C2415 1.429 . S
C2421 C2422 1.523 . S
C2422 C2403 1.368 . S
C2422 C2416 1.368 . S
C2422 C2421 1.523 . S
C2423 C2407 1.429 . S
C2423 C2419 1.429 . S
C2423 C2424 1.523 . S
C2424 C2408 1.368 . S
C2424 C2420 1.368 . S
C2424 C2423 1.523 . S
H2425 C2400 0.950 . S
H2426 C2402 0.950 . S
H2427 C2403 0.949 . S
H2428 C2405 0.950 . S
H2429 C2407 0.950 . S
C2430 C2431 1.349 . S
C2430 C2432 1.327 . S
C2430 H2455 0.950 . S
C2431 C2430 1.349 . S
C2431 C2447 1.349 . S
C2432 C2430 1.327 . S
C2432 C2451 1.429 . S
C2432 H2456 0.950 . S
C2433 C2450 1.574 . S
C2433 C2452 1.368 . S
C2433 H2457 0.949 . S
H2434 C2438 0.949 . S
C2435 C2436 1.349 . S
C2435 C2437 1.327 . S
C2435 H2458 0.950 . S
C2436 C2435 1.349 . S
C2436 C2448 1.349 . S
C2437 C2435 1.327 . S
C2437 C2453 1.429 . S
C2437 H2459 0.950 . S
C2438 H2434 0.949 . S
C2438 C2446 1.574 . S
C2438 C2454 1.368 . S
H2439 C2447 0.950 . S
H2440 C2445 0.950 . S
H2441 C2446 0.949 . S
H2442 C2448 0.950 . S
H2443 C2449 0.950 . S
H2444 C2450 0.949 . S
C2445 H2440 0.950 . S
C2445 C2447 1.327 . S
C2445 C2451 1.429 . S
C2446 C2438 1.574 . S
C2446 H2441 0.949 . S
C2446 C2452 1.368 . S
C2447 C2431 1.349 . S
C2447 H2439 0.950 . S
C2447 C2445 1.327 . S
C2448 C2436 1.349 . S
C2448 H2442 0.950 . S
C2448 C2449 1.327 . S
C2449 H2443 0.950 . S
C2449 C2448 1.327 . S
C2449 C2453 1.429 . S
C2450 C2433 1.574 . S
C2450 H2444 0.949 . S
C2450 C2454 1.368 . S
C2451 C2432 1.429 . S
C2451 C2445 1.429 . S
C2451 C2452 1.523 . S
C2452 C2433 1.368 . S
C2452 C2446 1.368 . S
C2452 C2451 1.523 . S
C2453 C2437 1.429 . S
C2453 C2449 1.429 . S
C2453 C2454 1.523 . S
C2454 C2438 1.368 . S
C2454 C2450 1.368 . S
C2454 C2453 1.523 . S
H2455 C2430 0.950 . S
H2456 C2432 0.950 . S
H2457 C2433 0.949 . S
H2458 C2435 0.950 . S
H2459 C2437 0.950 . S
C2460 C2461 1.349 . S
C2460 C2462 1.327 . S
C2460 H2485 0.950 . S
C2461 C2460 1.349 . S
C2461 C2477 1.349 . S
C2462 C2460 1.327 . S
C2462 C2481 1.429 . S
C2462 H2486 0.950 . S
C2463 C2480 1.574 . S
C2463 C2482 1.368 . S
C2463 H2487 0.949 . S
H2464 C2468 0.949 . S
C2465 C2466 1.349 . S
C2465 C2467 1.327 . S
C2465 H2488 0.950 . S
C2466 C2465 1.349 . S
C2466 C2478 1.349 . S
C2467 C2465 1.327 . S
C2467 C2483 1.429 . S
C2467 H2489 0.950 . S
C2468 H2464 0.949 . S
C2468 C2476 1.574 . S
C2468 C2484 1.368 . S
H2469 C2477 0.950 . S
H2470 C2475 0.950 . S
H2471 C2476 0.949 . S
H2472 C2478 0.950 . S
H2473 C2479 0.950 . S
H2474 C2480 0.949 . S
C2475 H2470 0.950 . S
C2475 C2477 1.327 . S
C2475 C2481 1.429 . S
C2476 C2468 1.574 . S
C2476 H2471 0.949 . S
C2476 C2482 1.368 . S
C2477 C2461 1.349 . S
C2477 H2469 0.950 . S
C2477 C2475 1.327 . S
C2478 C2466 1.349 . S
C2478 H2472 0.950 . S
C2478 C2479 1.327 . S
C2479 H2473 0.950 . S
C2479 C2478 1.327 . S
C2479 C2483 1.429 . S
C2480 C2463 1.574 . S
C2480 H2474 0.949 . S
C2480 C2484 1.368 . S
C2481 C2462 1.429 . S
C2481 C2475 1.429 . S
C2481 C2482 1.523 . S
C2482 C2463 1.368 . S
C2482 C2476 1.368 . S
C2482 C2481 1.523 . S
C2483 C2467 1.429 . S
C2483 C2479 1.429 . S
C2483 C2484 1.523 . S
C2484 C2468 1.368 . S
C2484 C2480 1.368 . S
C2484 C2483 1.523 . S
H2485 C2460 0.950 . S
H2486 C2462 0.950 . S
H2487 C2463 0.949 . S
H2488 C2465 0.950 . S
H2489 C2467 0.950 . S
C2490 C2491 1.349 . S
C2490 C2492 1.327 . S
C2490 H2515 0.950 . S
C2491 C2490 1.349 . S
C2491 C2507 1.349 . S
C2492 C2490 1.327 . S
C2492 C2511 1.429 . S
C2492 H2516 0.950 . S
C2493 C2510 1.574 . S
C2493 C2512 1.368 . S
C2493 H2517 0.949 . S
H2494 C2498 0.949 . S
C2495 C2496 1.349 . S
C2495 C2497 1.327 . S
C2495 H2518 0.950 . S
C2496 C2495 1.349 . S
C2496 C2508 1.349 . S
C2497 C2495 1.327 . S
C2497 C2513 1.429 . S
C2497 H2519 0.950 . S
C2498 H2494 0.949 . S
C2498 C2506 1.574 . S
C2498 C2514 1.368 . S
H2499 C2507 0.950 . S
H2500 C2505 0.950 . S
H2501 C2506 0.949 . S
H2502 C2508 0.950 . S
H2503 C2509 0.950 . S
H2504 C2510 0.949 . S
C2505 H2500 0.950 . S
C2505 C2507 1.327 . S
C2505 C2511 1.429 . S
C2506 C2498 1.574 . S
C2506 H2501 0.949 . S
C2506 C2512 1.368 . S
C2507 C2491 1.349 . S
C2507 H2499 0.950 . S
C2507 C2505 1.327 . S
C2508 C2496 1.349 . S
C2508 H2502 0.950 . S
C2508 C2509 1.327 . S
C2509 H2503 0.950 . S
C2509 C2508 1.327 . S
C2509 C2513 1.429 . S
C2510 C2493 1.574 . S
C2510 H2504 0.949 . S
C2510 C2514 1.368 . S
C2511 C2492 1.429 . S
C2511 C2505 1.429 . S
C2511 C2512 1.523 . S
C2512 C2493 1.368 . S
C2512 C2506 1.368 . S
C2512 C2511 1.523 . S
C2513 C2497 1.429 . S
C2513 C2509 1.429 . S
C2513 C2514 1.523 . S
C2514 C2498 1.368 . S
C2514 C2510 1.368 . S
C2514 C2513 1.523 . S
H2515 C2490 0.950 . S
H2516 C2492 0.950 . S
H2517 C2493 0.949 . S
H2518 C2495 0.950 . S
H2519 C2497 0.950 . S
C2520 C2521 1.349 . S
C2520 C2522 1.327 . S
C2520 H2545 0.950 . S
C2521 C2520 1.349 . S
C2521 C2537 1.349 . S
C2522 C2520 1.327 . S
C2522 C2541 1.429 . S
C2522 H2546 0.950 . S
C2523 C2540 1.574 . S
C2523 C2542 1.368 . S
C2523 H2547 0.949 . S
H2524 C2528 0.949 . S
C2525 C2526 1.349 . S
C2525 C2527 1.327 . S
C2525 H2548 0.950 . S
C2526 C2525 1.349 . S
C2526 C2538 1.349 . S
C2527 C2525 1.327 . S
C2527 C2543 1.429 . S
C2527 H2549 0.950 . S
C2528 H2524 0.949 . S
C2528 C2536 1.574 . S
C2528 C2544 1.368 . S
H2529 C2537 0.950 . S
H2530 C2535 0.950 . S
H2531 C2536 0.949 . S
H2532 C2538 0.950 . S
H2533 C2539 0.950 . S
H2534 C2540 0.949 . S
C2535 H2530 0.950 . S
C2535 C2537 1.327 . S
C2535 C2541 1.429 . S
C2536 C2528 1.574 . S
C2536 H2531 0.949 . S
C2536 C2542 1.368 . S
C2537 C2521 1.349 . S
C2537 H2529 0.950 . S
C2537 C2535 1.327 . S
C2538 C2526 1.349 . S
C2538 H2532 0.950 . S
C2538 C2539 1.327 . S
C2539 H2533 0.950 . S
C2539 C2538 1.327 . S
C2539 C2543 1.429 . S
C2540 C2523 1.574 . S
C2540 H2534 0.949 . S
C2540 C2544 1.368 . S
C2541 C2522 1.429 . S
C2541 C2535 1.429 . S
C2541 C2542 1.523 . S
C2542 C2523 1.368 . S
C2542 C2536 1.368 . S
C2542 C2541 1.523 . S
C2543 C2527 1.429 . S
C2543 C2539 1.429 . S
C2543 C2544 1.523 . S
C2544 C2528 1.368 . S
C2544 C2540 1.368 . S
C2544 C2543 1.523 . S
H2545 C2520 0.950 . S
H2546 C2522 0.950 . S
H2547 C2523 0.949 . S
H2548 C2525 0.950 . S
H2549 C2527 0.950 . S
C2550 C2551 1.349 . S
C2550 C2552 1.327 . S
C2550 H2575 0.950 . S
C2551 C2550 1.349 . S
C2551 C2567 1.349 . S
C2552 C2550 1.327 . S
C2552 C2571 1.429 . S
C2552 H2576 0.950 . S
C2553 C2570 1.574 . S
C2553 C2572 1.368 . S
C2553 H2577 0.949 . S
H2554 C2558 0.949 . S
C2555 C2556 1.349 . S
C2555 C2557 1.327 . S
C2555 H2578 0.950 . S
C2556 C2555 1.349 . S
C2556 C2568 1.349 . S
C2557 C2555 1.327 . S
C2557 C2573 1.429 . S
C2557 H2579 0.950 . S
C2558 H2554 0.949 . S
C2558 C2566 1.574 . S
C2558 C2574 1.368 . S
H2559 C2567 0.950 . S
H2560 C2565 0.950 . S
H2561 C2566 0.949 . S
H2562 C2568 0.950 . S
H2563 C2569 0.950 . S
H2564 C2570 0.949 . S
C2565 H2560 0.950 . S
C2565 C2567 1.327 . S
C2565 C2571 1.429 . S
C2566 C2558 1.574 . S
C2566 H2561 0.949 . S
C2566 C2572 1.368 . S
C2567 C2551 1.349 . S
C2567 H2559 0.950 . S
C2567 C2565 1.327 . S
C2568 C2556 1.349 . S
C2568 H2562 0.950 . S
C2568 C2569 1.327 . S
C2569 H2563 0.950 . S
C2569 C2568 1.327 . S
C2569 C2573 1.429 . S
C2570 C2553 1.574 . S
C2570 H2564 0.949 . S
C2570 C2574 1.368 . S
C2571 C2552 1.429 . S
C2571 C2565 1.429 . S
C2571 C2572 1.523 . S
C2572 C2553 1.368 . S
C2572 C2566 1.368 . S
C2572 C2571 1.523 . S
C2573 C2557 1.429 . S
C2573 C2569 1.429 . S
C2573 C2574 1.523 . S
C2574 C2558 1.368 . S
C2574 C2570 1.368 . S
C2574 C2573 1.523 . S
H2575 C2550 0.950 . S
H2576 C2552 0.950 . S
H2577 C2553 0.949 . S
H2578 C2555 0.950 . S
H2579 C2557 0.950 . S
C2580 C2581 1.349 . S
C2580 C2582 1.327 . S
C2580 H2605 0.950 . S
C2581 C2580 1.349 . S
C2581 C2597 1.349 . S
C2582 C2580 1.327 . S
C2582 C2601 1.429 . S
C2582 H2606 0.950 . S
C2583 C2600 1.574 . S
C2583 C2602 1.368 . S
C2583 H2607 0.949 . S
H2584 C2588 0.949 . S
C2585 C2586 1.349 . S
C2585 C2587 1.327 . S
C2585 H2608 0.950 . S
C2586 C2585 1.349 . S
C2586 C2598 1.349 . S
C2587 C2585 1.327 . S
C2587 C2603 1.429 . S
C2587 H2609 0.950 . S
C2588 H2584 0.949 . S
C2588 C2596 1.574 . S
C2588 C2604 1.368 . S
H2589 C2597 0.950 . S
H2590 C2595 0.950 . S
H2591 C2596 0.949 . S
H2592 C2598 0.950 . S
H2593 C2599 0.950 . S
H2594 C2600 0.949 . S
C2595 H2590 0.950 . S
C2595 C2597 1.327 . S
C2595 C2601 1.429 . S
C2596 C2588 1.574 . S
C2596 H2591 0.949 . S
C2596 C2602 1.368 . S
C2597 C2581 1.349 . S
C2597 H2589 0.950 . S
C2597 C2595 1.327 . S
C2598 C2586 1.349 . S
C2598 H2592 0.950 . S
C2598 C2599 1.327 . S
C2599 H2593 0.950 . S
C2599 C2598 1.327 . S
C2599 C2603 1.429 . S
C2600 C2583 1.574 . S
C2600 H2594 0.949 . S
C2600 C2604 1.368 . S
C2601 C2582 1.429 . S
C2601 C2595 1.429 . S
C2601 C2602 1.523 . S
C2602 C2583 1.368 . S
C2602 C2596 1.368 . S
C2602 C2601 1.523 . S
C2603 C2587 1.429 . S
C2603 C2599 1.429 . S
C2603 C2604 1.523 . S
C2604 C2588 1.368 . S
C2604 C2600 1.368 . S
C2604 C2603 1.523 . S
H2605 C2580 0.950 . S
H2606 C2582 0.950 . S
H2607 C2583 0.949 . S
H2608 C2585 0.950 . S
H2609 C2587 0.950 . S
C2610 C2611 1.349 . S
C2610 C2612 1.327 . S
C2610 H2635 0.950 . S
C2611 C2610 1.349 . S
C2611 C2627 1.349 . S
C2612 C2610 1.327 . S
C2612 C2631 1.429 . S
C2612 H2636 0.950 . S
C2613 C2630 1.574 . S
C2613 C2632 1.368 . S
C2613 H2637 0.949 . S
H2614 C2618 0.949 . S
C2615 C2616 1.349 . S
C2615 C2617 1.327 . S
C2615 H2638 0.950 . S
C2616 C2615 1.349 . S
C2616 C2628 1.349 . S
C2617 C2615 1.327 . S
C2617 C2633 1.429 . S
C2617 H2639 0.950 . S
C2618 H2614 0.949 . S
C2618 C2626 1.574 . S
C2618 C2634 1.368 . S
H2619 C2627 0.950 . S
H2620 C2625 0.950 . S
H2621 C2626 0.949 . S
H2622 C2628 0.950 . S
H2623 C2629 0.950 . S
H2624 C2630 0.949 . S
C2625 H2620 0.950 . S
C2625 C2627 1.327 . S
C2625 C2631 1.429 . S
C2626 C2618 1.574 . S
C2626 H2621 0.949 . S
C2626 C2632 1.368 . S
C2627 C2611 1.349 . S
C2627 H2619 0.950 . S
C2627 C2625 1.327 . S
C2628 C2616 1.349 . S
C2628 H2622 0.950 . S
C2628 C2629 1.327 . S
C2629 H2623 0.950 . S
C2629 C2628 1.327 . S
C2629 C2633 1.429 . S
C2630 C2613 1.574 . S
C2630 H2624 0.949 . S
C2630 C2634 1.368 . S
C2631 C2612 1.429 . S
C2631 C2625 1.429 . S
C2631 C2632 1.523 . S
C2632 C2613 1.368 . S
C2632 C2626 1.368 . S
C2632 C2631 1.523 . S
C2633 C2617 1.429 . S
C2633 C2629 1.429 . S
C2633 C2634 1.523 . S
C2634 C2618 1.368 . S
C2634 C2630 1.368 . S
C2634 C2633 1.523 . S
H2635 C2610 0.950 . S
H2636 C2612 0.950 . S
H2637 C2613 0.949 . S
H2638 C2615 0.950 . S
H2639 C2617 0.950 . S
C2640 C2641 1.349 . S
C2640 C2642 1.327 . S
C2640 H2665 0.950 . S
C2641 C2640 1.349 . S
C2641 C2657 1.349 . S
C2642 C2640 1.327 . S
C2642 C2661 1.429 . S
C2642 H2666 0.950 . S
C2643 C2660 1.574 . S
C2643 C2662 1.368 . S
C2643 H2667 0.949 . S
H2644 C2648 0.949 . S
C2645 C2646 1.349 . S
C2645 C2647 1.327 . S
C2645 H2668 0.950 . S
C2646 C2645 1.349 . S
C2646 C2658 1.349 . S
C2647 C2645 1.327 . S
C2647 C2663 1.429 . S
C2647 H2669 0.950 . S
C2648 H2644 0.949 . S
C2648 C2656 1.574 . S
C2648 C2664 1.368 . S
H2649 C2657 0.950 . S
H2650 C2655 0.950 . S
H2651 C2656 0.949 . S
H2652 C2658 0.950 . S
H2653 C2659 0.950 . S
H2654 C2660 0.949 . S
C2655 H2650 0.950 . S
C2655 C2657 1.327 . S
C2655 C2661 1.429 . S
C2656 C2648 1.574 . S
C2656 H2651 0.949 . S
C2656 C2662 1.368 . S
C2657 C2641 1.349 . S
C2657 H2649 0.950 . S
C2657 C2655 1.327 . S
C2658 C2646 1.349 . S
C2658 H2652 0.950 . S
C2658 C2659 1.327 . S
C2659 H2653 0.950 . S
C2659 C2658 1.327 . S
C2659 C2663 1.429 . S
C2660 C2643 1.574 . S
C2660 H2654 0.949 . S
C2660 C2664 1.368 . S
C2661 C2642 1.429 . S
C2661 C2655 1.429 . S
C2661 C2662 1.523 . S
C2662 C2643 1.368 . S
C2662 C2656 1.368 . S
C2662 C2661 1.523 . S
C2663 C2647 1.429 . S
C2663 C2659 1.429 . S
C2663 C2664 1.523 . S
C2664 C2648 1.368 . S
C2664 C2660 1.368 . S
C2664 C2663 1.523 . S
H2665 C2640 0.950 . S
H2666 C2642 0.950 . S
H2667 C2643 0.949 . S
H2668 C2645 0.950 . S
H2669 C2647 0.950 . S
C2670 C2671 1.349 . S
C2670 C2672 1.327 . S
C2670 H2695 0.950 . S
C2671 C2670 1.349 . S
C2671 C2687 1.349 . S
C2672 C2670 1.327 . S
C2672 C2691 1.429 . S
C2672 H2696 0.950 . S
C2673 C2690 1.574 . S
C2673 C2692 1.368 . S
C2673 H2697 0.949 . S
H2674 C2678 0.949 . S
C2675 C2676 1.349 . S
C2675 C2677 1.327 . S
C2675 H2698 0.950 . S
C2676 C2675 1.349 . S
C2676 C2688 1.349 . S
C2677 C2675 1.327 . S
C2677 C2693 1.429 . S
C2677 H2699 0.950 . S
C2678 H2674 0.949 . S
C2678 C2686 1.574 . S
C2678 C2694 1.368 . S
H2679 C2687 0.950 . S
H2680 C2685 0.950 . S
H2681 C2686 0.949 . S
H2682 C2688 0.950 . S
H2683 C2689 0.950 . S
H2684 C2690 0.949 . S
C2685 H2680 0.950 . S
C2685 C2687 1.327 . S
C2685 C2691 1.429 . S
C2686 C2678 1.574 . S
C2686 H2681 0.949 . S
C2686 C2692 1.368 . S
C2687 C2671 1.349 . S
C2687 H2679 0.950 . S
C2687 C2685 1.327 . S
C2688 C2676 1.349 . S
C2688 H2682 0.950 . S
C2688 C2689 1.327 . S
C2689 H2683 0.950 . S
C2689 C2688 1.327 . S
C2689 C2693 1.429 . S
C2690 C2673 1.574 . S
C2690 H2684 0.949 . S
C2690 C2694 1.368 . S
C2691 C2672 1.429 . S
C2691 C2685 1.429 . S
C2691 C2692 1.523 . S
C2692 C2673 1.368 . S
C2692 C2686 1.368 . S
C2692 C2691 1.523 . S
C2693 C2677 1.429 . S
C2693 C2689 1.429 . S
C2693 C2694 1.523 . S
C2694 C2678 1.368 . S
C2694 C2690 1.368 . S
C2694 C2693 1.523 . S
H2695 C2670 0.950 . S
H2696 C2672 0.950 . S
H2697 C2673 0.949 . S
H2698 C2675 0.950 . S
H2699 C2677 0.950 . S
C2700 C2701 1.349 . S
C2700 C2702 1.327 . S
C2700 H2725 0.950 . S
C2701 C2700 1.349 . S
C2701 C2717 1.349 . S
C2702 C2700 1.327 . S
C2702 C2721 1.429 . S
C2702 H2726 0.950 . S
C2703 C2720 1.574 . S
C2703 C2722 1.368 . S
C2703 H2727 0.949 . S
H2704 C2708 0.949 . S
C2705 C2706 1.349 . S
C2705 C2707 1.327 . S
C2705 H2728 0.950 . S
C2706 C2705 1.349 . S
C2706 C2718 1.349 . S
C2707 C2705 1.327 . S
C2707 C2723 1.429 . S
C2707 H2729 0.950 . S
C2708 H2704 0.949 . S
C2708 C2716 1.574 . S
C2708 C2724 1.368 . S
H2709 C2717 0.950 . S
H2710 C2715 0.950 . S
H2711 C2716 0.949 . S
H2712 C2718 0.950 . S
H2713 C2719 0.950 . S
H2714 C2720 0.949 . S
C2715 H2710 0.950 . S
C2715 C2717 1.327 . S
C2715 C2721 1.429 . S
C2716 C2708 1.574 . S
C2716 H2711 0.949 . S
C2716 C2722 1.368 . S
C2717 C2701 1.349 . S
C2717 H2709 0.950 . S
C2717 C2715 1.327 . S
C2718 C2706 1.349 . S
C2718 H2712 0.950 . S
C2718 C2719 1.327 . S
C2719 H2713 0.950 . S
C2719 C2718 1.327 . S
C2719 C2723 1.429 . S
C2720 C2703 1.574 . S
C2720 H2714 0.949 . S
C2720 C2724 1.368 . S
C2721 C2702 1.429 . S
C2721 C2715 1.429 . S
C2721 C2722 1.523 . S
C2722 C2703 1.368 . S
C2722 C2716 1.368 . S
C2722 C2721 1.523 . S
C2723 C2707 1.429 . S
C2723 C2719 1.429 . S
C2723 C2724 1.523 . S
C2724 C2708 1.368 . S
C2724 C2720 1.368 . S
C2724 C2723 1.523 . S
H2725 C2700 0.950 . S
H2726 C2702 0.950 . S
H2727 C2703 0.949 . S
H2728 C2705 0.950 . S
H2729 C2707 0.950 . S
C2730 C2731 1.349 . S
C2730 C2732 1.327 . S
C2730 H2755 0.950 . S
C2731 C2730 1.349 . S
C2731 C2747 1.349 1_565 S
C2732 C2730 1.327 . S
C2732 C2751 1.429 . S
C2732 H2756 0.950 . S
C2733 C2750 1.574 . S
C2733 C2752 1.368 1_545 S
C2733 H2757 0.949 . S
H2734 C2738 0.949 . S
C2735 C2736 1.349 1_545 S
C2735 C2737 1.327 . S
C2735 H2758 0.950 . S
C2736 C2735 1.349 1_565 S
C2736 C2748 1.349 . S
C2737 C2735 1.327 . S
C2737 C2753 1.429 1_545 S
C2737 H2759 0.950 . S
C2738 H2734 0.949 . S
C2738 C2746 1.574 . S
C2738 C2754 1.368 . S
H2739 C2747 0.950 . S
H2740 C2745 0.950 . S
H2741 C2746 0.949 . S
H2742 C2748 0.950 . S
H2743 C2749 0.950 . S
H2744 C2750 0.949 . S
C2745 H2740 0.950 . S
C2745 C2747 1.327 . S
C2745 C2751 1.429 1_545 S
C2746 C2738 1.574 . S
C2746 H2741 0.949 . S
C2746 C2752 1.368 . S
C2747 C2731 1.349 1_545 S
C2747 H2739 0.950 . S
C2747 C2745 1.327 . S
C2748 C2736 1.349 . S
C2748 H2742 0.950 . S
C2748 C2749 1.327 . S
C2749 H2743 0.950 . S
C2749 C2748 1.327 . S
C2749 C2753 1.429 . S
C2750 C2733 1.574 . S
C2750 H2744 0.949 . S
C2750 C2754 1.368 1_545 S
C2751 C2732 1.429 . S
C2751 C2745 1.429 1_565 S
C2751 C2752 1.523 . S
C2752 C2733 1.368 1_565 S
C2752 C2746 1.368 . S
C2752 C2751 1.523 . S
C2753 C2737 1.429 1_565 S
C2753 C2749 1.429 . S
C2753 C2754 1.523 . S
C2754 C2738 1.368 . S
C2754 C2750 1.368 1_565 S
C2754 C2753 1.523 . S
H2755 C2730 0.950 . S
H2756 C2732 0.950 . S
H2757 C2733 0.949 . S
H2758 C2735 0.950 . S
H2759 C2737 0.950 . S
C2760 C2761 1.349 . S
C2760 C2762 1.327 . S
C2760 H2785 0.950 . S
C2761 C2760 1.349 . S
C2761 C2777 1.349 . S
C2762 C2760 1.327 . S
C2762 C2781 1.429 . S
C2762 H2786 0.950 . S
C2763 C2780 1.574 . S
C2763 C2782 1.368 . S
C2763 H2787 0.949 . S
H2764 C2768 0.949 . S
C2765 C2766 1.349 . S
C2765 C2767 1.327 . S
C2765 H2788 0.950 . S
C2766 C2765 1.349 . S
C2766 C2778 1.349 . S
C2767 C2765 1.327 . S
C2767 C2783 1.429 . S
C2767 H2789 0.950 . S
C2768 H2764 0.949 . S
C2768 C2776 1.574 . S
C2768 C2784 1.368 . S
H2769 C2777 0.950 . S
H2770 C2775 0.950 . S
H2771 C2776 0.949 . S
H2772 C2778 0.950 . S
H2773 C2779 0.950 . S
H2774 C2780 0.949 . S
C2775 H2770 0.950 . S
C2775 C2777 1.327 . S
C2775 C2781 1.429 . S
C2776 C2768 1.574 . S
C2776 H2771 0.949 . S
C2776 C2782 1.368 . S
C2777 C2761 1.349 . S
C2777 H2769 0.950 . S
C2777 C2775 1.327 . S
C2778 C2766 1.349 . S
C2778 H2772 0.950 . S
C2778 C2779 1.327 . S
C2779 H2773 0.950 . S
C2779 C2778 1.327 . S
C2779 C2783 1.429 . S
C2780 C2763 1.574 . S
C2780 H2774 0.949 . S
C2780 C2784 1.368 . S
C2781 C2762 1.429 . S
C2781 C2775 1.429 . S
C2781 C2782 1.523 . S
C2782 C2763 1.368 . S
C2782 C2776 1.368 . S
C2782 C2781 1.523 . S
C2783 C2767 1.429 . S
C2783 C2779 1.429 . S
C2783 C2784 1.523 . S
C2784 C2768 1.368 . S
C2784 C2780 1.368 . S
C2784 C2783 1.523 . S
H2785 C2760 0.950 . S
H2786 C2762 0.950 . S
H2787 C2763 0.949 . S
H2788 C2765 0.950 . S
H2789 C2767 0.950 . S
C2790 C2791 1.349 . S
C2790 C2792 1.327 . S
C2790 H2815 0.950 . S
C2791 C2790 1.349 . S
C2791 C2807 1.349 1_556 S
C2792 C2790 1.327 . S
C2792 C2811 1.429 . S
C2792 H2816 0.950 . S
C2793 C2810 1.574 . S
C2793 C2812 1.368 1_554 S
C2793 H2817 0.949 . S
H2794 C2798 0.949 . S
C2795 C2796 1.349 1_554 S
C2795 C2797 1.327 . S
C2795 H2818 0.950 . S
C2796 C2795 1.349 1_556 S
C2796 C2808 1.349 . S
C2797 C2795 1.327 . S
C2797 C2813 1.429 1_554 S
C2797 H2819 0.950 . S
C2798 H2794 0.949 . S
C2798 C2806 1.574 . S
C2798 C2814 1.368 . S
H2799 C2807 0.950 . S
H2800 C2805 0.950 . S
H2801 C2806 0.949 . S
H2802 C2808 0.950 . S
H2803 C2809 0.950 . S
H2804 C2810 0.949 . S
C2805 H2800 0.950 . S
C2805 C2807 1.327 . S
C2805 C2811 1.429 1_554 S
C2806 C2798 1.574 . S
C2806 H2801 0.949 . S
C2806 C2812 1.368 . S
C2807 C2791 1.349 1_554 S
C2807 H2799 0.950 . S
C2807 C2805 1.327 . S
C2808 C2796 1.349 . S
C2808 H2802 0.950 . S
C2808 C2809 1.327 . S
C2809 H2803 0.950 . S
C2809 C2808 1.327 . S
C2809 C2813 1.429 . S
C2810 C2793 1.574 . S
C2810 H2804 0.949 . S
C2810 C2814 1.368 1_554 S
C2811 C2792 1.429 . S
C2811 C2805 1.429 1_556 S
C2811 C2812 1.523 . S
C2812 C2793 1.368 1_556 S
C2812 C2806 1.368 . S
C2812 C2811 1.523 . S
C2813 C2797 1.429 1_556 S
C2813 C2809 1.429 . S
C2813 C2814 1.523 . S
C2814 C2798 1.368 . S
C2814 C2810 1.368 1_556 S
C2814 C2813 1.523 . S
H2815 C2790 0.950 . S
H2816 C2792 0.950 . S
H2817 C2793 0.949 . S
H2818 C2795 0.950 . S
H2819 C2797 0.950 . S
C2820 C2821 1.349 . S
C2820 C2822 1.327 . S
C2820 H2845 0.950 . S
C2821 C2820 1.349 . S
C2821 C2837 1.349 . S
C2822 C2820 1.327 . S
C2822 C2841 1.429 . S
C2822 H2846 0.950 . S
C2823 C2840 1.574 . S
C2823 C2842 1.368 . S
C2823 H2847 0.949 . S
H2824 C2828 0.949 . S
C2825 C2826 1.349 . S
C2825 C2827 1.327 . S
C2825 H2848 0.950 . S
C2826 C2825 1.349 . S
C2826 C2838 1.349 . S
C2827 C2825 1.327 . S
C2827 C2843 1.429 . S
C2827 H2849 0.950 . S
C2828 H2824 0.949 . S
C2828 C2836 1.574 . S
C2828 C2844 1.368 . S
H2829 C2837 0.950 . S
H2830 C2835 0.950 . S
H2831 C2836 0.949 . S
H2832 C2838 0.950 . S
H2833 C2839 0.950 . S
H2834 C2840 0.949 . S
C2835 H2830 0.950 . S
C2835 C2837 1.327 . S
C2835 C2841 1.429 . S
C2836 C2828 1.574 . S
C2836 H2831 0.949 . S
C2836 C2842 1.368 . S
C2837 C2821 1.349 . S
C2837 H2829 0.950 . S
C2837 C2835 1.327 . S
C2838 C2826 1.349 . S
C2838 H2832 0.950 . S
C2838 C2839 1.327 . S
C2839 H2833 0.950 . S
C2839 C2838 1.327 . S
C2839 C2843 1.429 . S
C2840 C2823 1.574 . S
C2840 H2834 0.949 . S
C2840 C2844 1.368 . S
C2841 C2822 1.429 . S
C2841 C2835 1.429 . S
C2841 C2842 1.523 . S
C2842 C2823 1.368 . S
C2842 C2836 1.368 . S
C2842 C2841 1.523 . S
C2843 C2827 1.429 . S
C2843 C2839 1.429 . S
C2843 C2844 1.523 . S
C2844 C2828 1.368 . S
C2844 C2840 1.368 . S
C2844 C2843 1.523 . S
H2845 C2820 0.950 . S
H2846 C2822 0.950 . S
H2847 C2823 0.949 . S
H2848 C2825 0.950 . S
H2849 C2827 0.950 . S
C2850 C2851 1.349 . S
C2850 C2852 1.327 . S
C2850 H2875 0.950 . S
C2851 C2850 1.349 . S
C2851 C2867 1.349 . S
C2852 C2850 1.327 . S
C2852 C2871 1.429 . S
C2852 H2876 0.950 . S
C2853 C2870 1.574 . S
C2853 C2872 1.368 . S
C2853 H2877 0.949 . S
H2854 C2858 0.949 . S
C2855 C2856 1.348 . S
C2855 C2857 1.326 . S
C2855 H2878 0.952 1_556 S
C2856 C2855 1.348 . S
C2856 C2868 1.349 . S
C2857 C2855 1.326 . S
C2857 C2873 1.429 . S
C2857 H2879 0.950 . S
C2858 H2854 0.949 . S
C2858 C2866 1.574 . S
C2858 C2874 1.368 . S
H2859 C2867 0.950 . S
H2860 C2865 0.950 . S
H2861 C2866 0.949 . S
H2862 C2868 0.950 . S
H2863 C2869 0.950 . S
H2864 C2870 0.949 . S
C2865 H2860 0.950 . S
C2865 C2867 1.327 . S
C2865 C2871 1.429 . S
C2866 C2858 1.574 . S
C2866 H2861 0.949 . S
C2866 C2872 1.368 . S
C2867 C2851 1.349 . S
C2867 H2859 0.950 . S
C2867 C2865 1.327 . S
C2868 C2856 1.349 . S
C2868 H2862 0.950 . S
C2868 C2869 1.327 . S
C2869 H2863 0.950 . S
C2869 C2868 1.327 . S
C2869 C2873 1.429 . S
C2870 C2853 1.574 . S
C2870 H2864 0.949 . S
C2870 C2874 1.368 . S
C2871 C2852 1.429 . S
C2871 C2865 1.429 . S
C2871 C2872 1.523 . S
C2872 C2853 1.368 . S
C2872 C2866 1.368 . S
C2872 C2871 1.523 . S
C2873 C2857 1.429 . S
C2873 C2869 1.429 . S
C2873 C2874 1.523 . S
C2874 C2858 1.368 . S
C2874 C2870 1.368 . S
C2874 C2873 1.523 . S
H2875 C2850 0.950 . S
H2876 C2852 0.950 . S
H2877 C2853 0.949 . S
H2878 C2855 0.952 1_554 S
H2879 C2857 0.950 . S
C2880 C2881 1.349 . S
C2880 C2882 1.327 . S
C2880 H2905 0.950 . S
C2881 C2880 1.349 . S
C2881 C2897 1.349 . S
C2882 C2880 1.327 . S
C2882 C2901 1.429 . S
C2882 H2906 0.950 . S
C2883 C2900 1.574 . S
C2883 C2902 1.368 . S
C2883 H2907 0.949 . S
H2884 C2888 0.949 . S
C2885 C2886 1.349 . S
C2885 C2887 1.327 . S
C2885 H2908 0.950 . S
C2886 C2885 1.349 . S
C2886 C2898 1.349 . S
C2887 C2885 1.327 . S
C2887 C2903 1.429 . S
C2887 H2909 0.950 . S
C2888 H2884 0.949 . S
C2888 C2896 1.574 . S
C2888 C2904 1.368 . S
H2889 C2897 0.950 . S
H2890 C2895 0.950 . S
H2891 C2896 0.949 . S
H2892 C2898 0.950 . S
H2893 C2899 0.950 . S
H2894 C2900 0.949 . S
C2895 H2890 0.950 . S
C2895 C2897 1.327 . S
C2895 C2901 1.429 . S
C2896 C2888 1.574 . S
C2896 H2891 0.949 . S
C2896 C2902 1.368 . S
C2897 C2881 1.349 . S
C2897 H2889 0.950 . S
C2897 C2895 1.327 . S
C2898 C2886 1.349 . S
C2898 H2892 0.950 . S
C2898 C2899 1.327 . S
C2899 H2893 0.950 . S
C2899 C2898 1.327 . S
C2899 C2903 1.429 . S
C2900 C2883 1.574 . S
C2900 H2894 0.949 . S
C2900 C2904 1.368 . S
C2901 C2882 1.429 . S
C2901 C2895 1.429 . S
C2901 C2902 1.523 . S
C2902 C2883 1.368 . S
C2902 C2896 1.368 . S
C2902 C2901 1.523 . S
C2903 C2887 1.429 . S
C2903 C2899 1.429 . S
C2903 C2904 1.523 . S
C2904 C2888 1.368 . S
C2904 C2900 1.368 . S
C2904 C2903 1.523 . S
H2905 C2880 0.950 . S
H2906 C2882 0.950 . S
H2907 C2883 0.949 . S
H2908 C2885 0.950 . S
H2909 C2887 0.950 . S
C2910 C2911 1.349 . S
C2910 C2912 1.327 . S
C2910 H2935 0.950 . S
C2911 C2910 1.349 . S
C2911 C2927 1.349 1_655 S
C2912 C2910 1.327 . S
C2912 C2931 1.429 . S
C2912 H2936 0.950 . S
C2913 C2930 1.572 1_455 S
C2913 C2932 1.350 1_455 S
C2913 H2937 0.968 . S
H2914 C2918 0.949 . S
C2915 C2916 1.349 . S
C2915 C2917 1.327 . S
C2915 H2938 0.921 1_655 S
C2916 C2915 1.349 . S
C2916 C2928 1.349 . S
C2917 C2915 1.327 . S
C2917 C2933 1.429 . S
C2917 H2939 0.950 1_655 S
C2918 H2914 0.949 . S
C2918 C2926 1.574 . S
C2918 C2934 1.368 . S
H2919 C2927 0.950 . S
H2920 C2925 0.950 . S
H2921 C2926 0.949 . S
H2922 C2928 0.950 . S
H2923 C2929 0.950 . S
H2924 C2930 0.943 1_455 S
C2925 H2920 0.950 . S
C2925 C2927 1.327 . S
C2925 C2931 1.429 1_455 S
C2926 C2918 1.574 . S
C2926 H2921 0.949 . S
C2926 C2932 1.368 . S
C2927 C2911 1.349 1_455 S
C2927 H2919 0.950 . S
C2927 C2925 1.327 . S
C2928 C2916 1.349 . S
C2928 H2922 0.950 . S
C2928 C2929 1.327 . S
C2929 H2923 0.950 . S
C2929 C2928 1.327 . S
C2929 C2933 1.429 . S
C2930 C2913 1.572 1_655 S
C2930 H2924 0.943 1_655 S
C2930 C2934 1.376 . S
C2931 C2912 1.429 . S
C2931 C2925 1.429 1_655 S
C2931 C2932 1.523 . S
C2932 C2913 1.350 1_655 S
C2932 C2926 1.368 . S
C2932 C2931 1.523 . S
C2933 C2917 1.429 . S
C2933 C2929 1.429 . S
C2933 C2934 1.523 . S
C2934 C2918 1.368 . S
C2934 C2930 1.376 . S
C2934 C2933 1.523 . S
H2935 C2910 0.950 . S
H2936 C2912 0.950 . S
H2937 C2913 0.968 . S
H2938 C2915 0.921 1_455 S
H2939 C2917 0.950 1_455 S
C2940 C2941 1.349 . S
C2940 C2942 1.327 . S
C2940 H2965 0.950 . S
C2941 C2940 1.349 . S
C2941 C2957 1.349 . S
C2942 C2940 1.327 . S
C2942 C2961 1.429 . S
C2942 H2966 0.950 . S
C2943 C2960 1.574 . S
C2943 C2962 1.368 . S
C2943 H2967 0.949 . S
H2944 C2948 0.949 . S
C2945 C2946 1.349 . S
C2945 C2947 1.327 . S
C2945 H2968 0.950 . S
C2946 C2945 1.349 . S
C2946 C2958 1.349 . S
C2947 C2945 1.327 . S
C2947 C2963 1.429 . S
C2947 H2969 0.950 . S
C2948 H2944 0.949 . S
C2948 C2956 1.574 . S
C2948 C2964 1.368 . S
H2949 C2957 0.950 . S
H2950 C2955 0.950 . S
H2951 C2956 0.949 . S
H2952 C2958 0.950 . S
H2953 C2959 0.950 . S
H2954 C2960 0.949 . S
C2955 H2950 0.950 . S
C2955 C2957 1.327 . S
C2955 C2961 1.429 . S
C2956 C2948 1.574 . S
C2956 H2951 0.949 . S
C2956 C2962 1.368 . S
C2957 C2941 1.349 . S
C2957 H2949 0.950 . S
C2957 C2955 1.327 . S
C2958 C2946 1.349 . S
C2958 H2952 0.950 . S
C2958 C2959 1.327 . S
C2959 H2953 0.950 . S
C2959 C2958 1.327 . S
C2959 C2963 1.429 . S
C2960 C2943 1.574 . S
C2960 H2954 0.949 . S
C2960 C2964 1.368 . S
C2961 C2942 1.429 . S
C2961 C2955 1.429 . S
C2961 C2962 1.523 . S
C2962 C2943 1.368 . S
C2962 C2956 1.368 . S
C2962 C2961 1.523 . S
C2963 C2947 1.429 . S
C2963 C2959 1.429 . S
C2963 C2964 1.523 . S
C2964 C2948 1.368 . S
C2964 C2960 1.368 . S
C2964 C2963 1.523 . S
H2965 C2940 0.950 . S
H2966 C2942 0.950 . S
H2967 C2943 0.949 . S
H2968 C2945 0.950 . S
H2969 C2947 0.950 . S
C2970 C2971 1.349 . S
C2970 C2972 1.327 . S
C2970 H2995 0.950 . S
C2971 C2970 1.349 . S
C2971 C2987 1.349 . S
C2972 C2970 1.327 . S
C2972 C2991 1.429 . S
C2972 H2996 0.950 . S
C2973 C2990 1.574 . S
C2973 C2992 1.368 . S
C2973 H2997 0.949 . S
H2974 C2978 0.951 . S
C2975 C2976 1.349 . S
C2975 C2977 1.327 . S
C2975 H2998 0.950 . S
C2976 C2975 1.349 . S
C2976 C2988 1.349 1_655 S
C2977 C2975 1.327 . S
C2977 C2993 1.429 . S
C2977 H2999 0.950 . S
C2978 H2974 0.951 . S
C2978 C2986 1.574 . S
C2978 C2994 1.368 . S
H2979 C2987 0.950 . S
H2980 C2985 0.950 . S
H2981 C2986 0.949 . S
H2982 C2988 0.950 . S
H2983 C2989 0.962 . S
H2984 C2990 0.949 . S
C2985 H2980 0.950 . S
C2985 C2987 1.327 . S
C2985 C2991 1.429 . S
C2986 C2978 1.574 . S
C2986 H2981 0.949 . S
C2986 C2992 1.368 . S
C2987 C2971 1.349 . S
C2987 H2979 0.950 . S
C2987 C2985 1.327 . S
C2988 C2976 1.349 1_455 S
C2988 H2982 0.950 . S
C2988 C2989 1.335 . S
C2989 H2983 0.962 . S
C2989 C2988 1.335 . S
C2989 C2993 1.410 1_455 S
C2990 C2973 1.574 . S
C2990 H2984 0.949 . S
C2990 C2994 1.368 . S
C2991 C2972 1.429 . S
C2991 C2985 1.429 . S
C2991 C2992 1.523 . S
C2992 C2973 1.368 . S
C2992 C2986 1.368 . S
C2992 C2991 1.523 . S
C2993 C2977 1.429 . S
C2993 C2989 1.410 1_655 S
C2993 C2994 1.523 . S
C2994 C2978 1.368 . S
C2994 C2990 1.368 . S
C2994 C2993 1.523 . S
H2995 C2970 0.950 . S
H2996 C2972 0.950 . S
H2997 C2973 0.949 . S
H2998 C2975 0.950 . S
H2999 C2977 0.950 . S
C3000 C3001 1.349 . S
C3000 C3002 1.327 . S
C3000 H3025 0.950 . S
C3001 C3000 1.349 . S
C3001 C3017 1.349 . S
C3002 C3000 1.327 . S
C3002 C3021 1.429 . S
C3002 H3026 0.950 . S
C3003 C3020 1.574 . S
C3003 C3022 1.368 . S
C3003 H3027 0.949 . S
H3004 C3008 0.949 . S
C3005 C3006 1.349 . S
C3005 C3007 1.327 . S
C3005 H3028 0.950 . S
C3006 C3005 1.349 . S
C3006 C3018 1.349 . S
C3007 C3005 1.327 . S
C3007 C3023 1.429 . S
C3007 H3029 0.950 . S
C3008 H3004 0.949 . S
C3008 C3016 1.574 . S
C3008 C3024 1.368 . S
H3009 C3017 0.950 . S
H3010 C3015 0.950 . S
H3011 C3016 0.949 . S
H3012 C3018 0.950 . S
H3013 C3019 0.950 . S
H3014 C3020 0.949 . S
C3015 H3010 0.950 . S
C3015 C3017 1.327 . S
C3015 C3021 1.429 . S
C3016 C3008 1.574 . S
C3016 H3011 0.949 . S
C3016 C3022 1.368 . S
C3017 C3001 1.349 . S
C3017 H3009 0.950 . S
C3017 C3015 1.327 . S
C3018 C3006 1.349 . S
C3018 H3012 0.950 . S
C3018 C3019 1.327 . S
C3019 H3013 0.950 . S
C3019 C3018 1.327 . S
C3019 C3023 1.429 . S
C3020 C3003 1.574 . S
C3020 H3014 0.949 . S
C3020 C3024 1.368 . S
C3021 C3002 1.429 . S
C3021 C3015 1.429 . S
C3021 C3022 1.523 . S
C3022 C3003 1.368 . S
C3022 C3016 1.368 . S
C3022 C3021 1.523 . S
C3023 C3007 1.429 . S
C3023 C3019 1.429 . S
C3023 C3024 1.523 . S
C3024 C3008 1.368 . S
C3024 C3020 1.368 . S
C3024 C3023 1.523 . S
H3025 C3000 0.950 . S
H3026 C3002 0.950 . S
H3027 C3003 0.949 . S
H3028 C3005 0.950 . S
H3029 C3007 0.950 . S
C3030 C3031 1.349 . S
C3030 C3032 1.327 . S
C3030 H3055 0.950 . S
C3031 C3030 1.349 . S
C3031 C3047 1.349 . S
C3032 C3030 1.327 . S
C3032 C3051 1.429 . S
C3032 H3056 0.950 . S
C3033 C3050 1.574 . S
C3033 C3052 1.368 . S
C3033 H3057 0.949 . S
H3034 C3038 0.949 . S
C3035 C3036 1.349 . S
C3035 C3037 1.327 . S
C3035 H3058 0.950 . S
C3036 C3035 1.349 . S
C3036 C3048 1.349 . S
C3037 C3035 1.327 . S
C3037 C3053 1.429 . S
C3037 H3059 0.950 . S
C3038 H3034 0.949 . S
C3038 C3046 1.574 . S
C3038 C3054 1.368 . S
H3039 C3047 0.950 . S
H3040 C3045 0.950 . S
H3041 C3046 0.949 . S
H3042 C3048 0.950 . S
H3043 C3049 0.950 . S
H3044 C3050 0.949 . S
C3045 H3040 0.950 . S
C3045 C3047 1.327 . S
C3045 C3051 1.429 . S
C3046 C3038 1.574 . S
C3046 H3041 0.949 . S
C3046 C3052 1.368 . S
C3047 C3031 1.349 . S
C3047 H3039 0.950 . S
C3047 C3045 1.327 . S
C3048 C3036 1.349 . S
C3048 H3042 0.950 . S
C3048 C3049 1.327 . S
C3049 H3043 0.950 . S
C3049 C3048 1.327 . S
C3049 C3053 1.429 . S
C3050 C3033 1.574 . S
C3050 H3044 0.949 . S
C3050 C3054 1.368 . S
C3051 C3032 1.429 . S
C3051 C3045 1.429 . S
C3051 C3052 1.523 . S
C3052 C3033 1.368 . S
C3052 C3046 1.368 . S
C3052 C3051 1.523 . S
C3053 C3037 1.429 . S
C3053 C3049 1.429 . S
C3053 C3054 1.523 . S
C3054 C3038 1.368 . S
C3054 C3050 1.368 . S
C3054 C3053 1.523 . S
H3055 C3030 0.950 . S
H3056 C3032 0.950 . S
H3057 C3033 0.949 . S
H3058 C3035 0.950 . S
H3059 C3037 0.950 . S
C3060 C3061 1.349 . S
C3060 C3062 1.327 . S
C3060 H3085 0.950 . S
C3061 C3060 1.349 . S
C3061 C3077 1.349 . S
C3062 C3060 1.327 . S
C3062 C3081 1.429 . S
C3062 H3086 0.950 . S
C3063 C3080 1.574 . S
C3063 C3082 1.368 . S
C3063 H3087 0.949 . S
H3064 C3068 0.949 . S
C3065 C3066 1.349 1_565 S
C3065 C3067 1.327 . S
C3065 H3088 0.950 . S
C3066 C3065 1.349 1_545 S
C3066 C3078 1.349 . S
C3067 C3065 1.327 . S
C3067 C3083 1.429 1_565 S
C3067 H3089 0.950 . S
C3068 H3064 0.949 . S
C3068 C3076 1.574 . S
C3068 C3084 1.368 . S
H3069 C3077 0.950 . S
H3070 C3075 0.950 . S
H3071 C3076 0.949 . S
H3072 C3078 0.950 . S
H3073 C3079 0.950 . S
H3074 C3080 0.949 1_565 S
C3075 H3070 0.950 . S
C3075 C3077 1.327 . S
C3075 C3081 1.429 . S
C3076 C3068 1.574 . S
C3076 H3071 0.949 . S
C3076 C3082 1.368 . S
C3077 C3061 1.349 . S
C3077 H3069 0.950 . S
C3077 C3075 1.327 . S
C3078 C3066 1.349 . S
C3078 H3072 0.950 . S
C3078 C3079 1.327 . S
C3079 H3073 0.950 . S
C3079 C3078 1.327 . S
C3079 C3083 1.429 . S
C3080 C3063 1.574 . S
C3080 H3074 0.949 1_545 S
C3080 C3084 1.368 . S
C3081 C3062 1.429 . S
C3081 C3075 1.429 . S
C3081 C3082 1.523 . S
C3082 C3063 1.368 . S
C3082 C3076 1.368 . S
C3082 C3081 1.523 . S
C3083 C3067 1.429 1_545 S
C3083 C3079 1.429 . S
C3083 C3084 1.523 . S
C3084 C3068 1.368 . S
C3084 C3080 1.368 . S
C3084 C3083 1.523 . S
H3085 C3060 0.950 . S
H3086 C3062 0.950 . S
H3087 C3063 0.949 . S
H3088 C3065 0.950 . S
H3089 C3067 0.950 . S
C3090 C3091 1.349 . S
C3090 C3092 1.327 . S
C3090 H3115 0.950 . S
C3091 C3090 1.349 . S
C3091 C3107 1.349 1_545 S
C3092 C3090 1.327 . S
C3092 C3111 1.429 . S
C3092 H3116 0.950 . S
C3093 C3110 1.574 . S
C3093 C3112 1.368 1_565 S
C3093 H3117 0.949 . S
H3094 C3098 0.949 . S
C3095 C3096 1.349 1_565 S
C3095 C3097 1.327 . S
C3095 H3118 0.950 . S
C3096 C3095 1.349 1_545 S
C3096 C3108 1.349 . S
C3097 C3095 1.327 . S
C3097 C3113 1.429 1_565 S
C3097 H3119 0.950 . S
C3098 H3094 0.949 . S
C3098 C3106 1.574 . S
C3098 C3114 1.368 . S
H3099 C3107 0.950 . S
H3100 C3105 0.950 . S
H3101 C3106 0.949 . S
H3102 C3108 0.950 . S
H3103 C3109 0.950 . S
H3104 C3110 0.949 . S
C3105 H3100 0.950 . S
C3105 C3107 1.327 . S
C3105 C3111 1.429 1_565 S
C3106 C3098 1.574 . S
C3106 H3101 0.949 . S
C3106 C3112 1.368 . S
C3107 C3091 1.349 1_565 S
C3107 H3099 0.950 . S
C3107 C3105 1.327 . S
C3108 C3096 1.349 . S
C3108 H3102 0.950 . S
C3108 C3109 1.327 . S
C3109 H3103 0.950 . S
C3109 C3108 1.327 . S
C3109 C3113 1.429 . S
C3110 C3093 1.574 . S
C3110 H3104 0.949 . S
C3110 C3114 1.368 1_565 S
C3111 C3092 1.429 . S
C3111 C3105 1.429 1_545 S
C3111 C3112 1.523 . S
C3112 C3093 1.368 1_545 S
C3112 C3106 1.368 . S
C3112 C3111 1.523 . S
C3113 C3097 1.429 1_545 S
C3113 C3109 1.429 . S
C3113 C3114 1.523 . S
C3114 C3098 1.368 . S
C3114 C3110 1.368 1_545 S
C3114 C3113 1.523 . S
H3115 C3090 0.950 . S
H3116 C3092 0.950 . S
H3117 C3093 0.949 . S
H3118 C3095 0.950 . S
H3119 C3097 0.950 . S
C3120 C3121 1.349 . S
C3120 C3122 1.327 . S
C3120 H3145 0.950 . S
C3121 C3120 1.349 . S
C3121 C3137 1.349 . S
C3122 C3120 1.327 . S
C3122 C3141 1.429 . S
C3122 H3146 0.950 . S
C3123 C3140 1.574 . S
C3123 C3142 1.368 . S
C3123 H3147 0.949 . S
H3124 C3128 0.949 . S
C3125 C3126 1.349 . S
C3125 C3127 1.327 . S
C3125 H3148 0.950 . S
C3126 C3125 1.349 . S
C3126 C3138 1.349 . S
C3127 C3125 1.327 . S
C3127 C3143 1.429 . S
C3127 H3149 0.950 . S
C3128 H3124 0.949 . S
C3128 C3136 1.574 . S
C3128 C3144 1.368 . S
H3129 C3137 0.950 . S
H3130 C3135 0.950 . S
H3131 C3136 0.949 . S
H3132 C3138 0.950 . S
H3133 C3139 0.950 . S
H3134 C3140 0.949 . S
C3135 H3130 0.950 . S
C3135 C3137 1.327 . S
C3135 C3141 1.429 . S
C3136 C3128 1.574 . S
C3136 H3131 0.949 . S
C3136 C3142 1.368 . S
C3137 C3121 1.349 . S
C3137 H3129 0.950 . S
C3137 C3135 1.327 . S
C3138 C3126 1.349 . S
C3138 H3132 0.950 . S
C3138 C3139 1.327 . S
C3139 H3133 0.950 . S
C3139 C3138 1.327 . S
C3139 C3143 1.429 . S
C3140 C3123 1.574 . S
C3140 H3134 0.949 . S
C3140 C3144 1.368 . S
C3141 C3122 1.429 . S
C3141 C3135 1.429 . S
C3141 C3142 1.523 . S
C3142 C3123 1.368 . S
C3142 C3136 1.368 . S
C3142 C3141 1.523 . S
C3143 C3127 1.429 . S
C3143 C3139 1.429 . S
C3143 C3144 1.523 . S
C3144 C3128 1.368 . S
C3144 C3140 1.368 . S
C3144 C3143 1.523 . S
H3145 C3120 0.950 . S
H3146 C3122 0.950 . S
H3147 C3123 0.949 . S
H3148 C3125 0.950 . S
H3149 C3127 0.950 . S
C3150 C3151 1.349 1_556 S
C3150 C3152 1.327 . S
C3150 H3175 0.950 . S
C3151 C3150 1.349 1_554 S
C3151 C3167 1.349 . S
C3152 C3150 1.327 . S
C3152 C3171 1.429 1_556 S
C3152 H3176 0.950 . S
C3153 C3170 1.574 . S
C3153 C3172 1.368 . S
C3153 H3177 0.949 . S
H3154 C3158 0.949 . S
C3155 C3156 1.349 . S
C3155 C3157 1.327 . S
C3155 H3178 0.950 . S
C3156 C3155 1.349 . S
C3156 C3168 1.349 1_554 S
C3157 C3155 1.327 . S
C3157 C3173 1.429 . S
C3157 H3179 0.950 . S
C3158 H3154 0.949 . S
C3158 C3166 1.574 . S
C3158 C3174 1.368 1_556 S
H3159 C3167 0.950 . S
H3160 C3165 0.950 . S
H3161 C3166 0.949 . S
H3162 C3168 0.950 . S
H3163 C3169 0.950 . S
H3164 C3170 0.949 . S
C3165 H3160 0.950 . S
C3165 C3167 1.327 . S
C3165 C3171 1.429 . S
C3166 C3158 1.574 . S
C3166 H3161 0.949 . S
C3166 C3172 1.368 1_556 S
C3167 C3151 1.349 . S
C3167 H3159 0.950 . S
C3167 C3165 1.327 . S
C3168 C3156 1.349 1_556 S
C3168 H3162 0.950 . S
C3168 C3169 1.327 . S
C3169 H3163 0.950 . S
C3169 C3168 1.327 . S
C3169 C3173 1.429 1_556 S
C3170 C3153 1.574 . S
C3170 H3164 0.949 . S
C3170 C3174 1.368 . S
C3171 C3152 1.429 1_554 S
C3171 C3165 1.429 . S
C3171 C3172 1.523 . S
C3172 C3153 1.368 . S
C3172 C3166 1.368 1_554 S
C3172 C3171 1.523 . S
C3173 C3157 1.429 . S
C3173 C3169 1.429 1_554 S
C3173 C3174 1.523 . S
C3174 C3158 1.368 1_554 S
C3174 C3170 1.368 . S
C3174 C3173 1.523 . S
H3175 C3150 0.950 . S
H3176 C3152 0.950 . S
H3177 C3153 0.949 . S
H3178 C3155 0.950 . S
H3179 C3157 0.950 . S
C3180 C3181 1.349 . S
C3180 C3182 1.327 . S
C3180 H3205 0.950 . S
C3181 C3180 1.349 . S
C3181 C3197 1.349 . S
C3182 C3180 1.327 . S
C3182 C3201 1.429 . S
C3182 H3206 0.950 . S
C3183 C3200 1.574 . S
C3183 C3202 1.368 . S
C3183 H3207 0.949 . S
H3184 C3188 0.949 . S
C3185 C3186 1.349 . S
C3185 C3187 1.327 . S
C3185 H3208 0.950 . S
C3186 C3185 1.349 . S
C3186 C3198 1.349 . S
C3187 C3185 1.327 . S
C3187 C3203 1.429 . S
C3187 H3209 0.950 . S
C3188 H3184 0.949 . S
C3188 C3196 1.574 . S
C3188 C3204 1.368 . S
H3189 C3197 0.950 . S
H3190 C3195 0.950 . S
H3191 C3196 0.949 . S
H3192 C3198 0.950 . S
H3193 C3199 0.950 . S
H3194 C3200 0.949 . S
C3195 H3190 0.950 . S
C3195 C3197 1.327 . S
C3195 C3201 1.429 . S
C3196 C3188 1.574 . S
C3196 H3191 0.949 . S
C3196 C3202 1.368 . S
C3197 C3181 1.349 . S
C3197 H3189 0.950 . S
C3197 C3195 1.327 . S
C3198 C3186 1.349 . S
C3198 H3192 0.950 . S
C3198 C3199 1.327 . S
C3199 H3193 0.950 . S
C3199 C3198 1.327 . S
C3199 C3203 1.429 . S
C3200 C3183 1.574 . S
C3200 H3194 0.949 . S
C3200 C3204 1.368 . S
C3201 C3182 1.429 . S
C3201 C3195 1.429 . S
C3201 C3202 1.523 . S
C3202 C3183 1.368 . S
C3202 C3196 1.368 . S
C3202 C3201 1.523 . S
C3203 C3187 1.429 . S
C3203 C3199 1.429 . S
C3203 C3204 1.523 . S
C3204 C3188 1.368 . S
C3204 C3200 1.368 . S
C3204 C3203 1.523 . S
H3205 C3180 0.950 . S
H3206 C3182 0.950 . S
H3207 C3183 0.949 . S
H3208 C3185 0.950 . S
H3209 C3187 0.950 . S
C3210 C3211 1.349 . S
C3210 C3212 1.327 . S
C3210 H3235 0.950 . S
C3211 C3210 1.349 . S
C3211 C3227 1.349 . S
C3212 C3210 1.327 . S
C3212 C3231 1.429 . S
C3212 H3236 0.950 . S
C3213 C3230 1.574 . S
C3213 C3232 1.368 . S
C3213 H3237 0.907 1_554 S
H3214 C3218 0.949 . S
C3215 C3216 1.349 1_556 S
C3215 C3217 1.327 . S
C3215 H3238 0.950 . S
C3216 C3215 1.349 1_554 S
C3216 C3228 1.349 . S
C3217 C3215 1.327 . S
C3217 C3233 1.429 1_556 S
C3217 H3239 0.950 . S
C3218 H3214 0.949 . S
C3218 C3226 1.574 . S
C3218 C3234 1.368 . S
H3219 C3227 0.950 . S
H3220 C3225 0.950 . S
H3221 C3226 0.949 . S
H3222 C3228 0.950 . S
H3223 C3229 0.950 . S
H3224 C3230 0.949 1_556 S
C3225 H3220 0.950 . S
C3225 C3227 1.327 . S
C3225 C3231 1.429 . S
C3226 C3218 1.574 . S
C3226 H3221 0.949 . S
C3226 C3232 1.368 . S
C3227 C3211 1.349 . S
C3227 H3219 0.950 . S
C3227 C3225 1.327 . S
C3228 C3216 1.349 . S
C3228 H3222 0.950 . S
C3228 C3229 1.327 . S
C3229 H3223 0.950 . S
C3229 C3228 1.327 . S
C3229 C3233 1.429 . S
C3230 C3213 1.574 . S
C3230 H3224 0.949 1_554 S
C3230 C3234 1.368 . S
C3231 C3212 1.429 . S
C3231 C3225 1.429 . S
C3231 C3232 1.523 . S
C3232 C3213 1.368 . S
C3232 C3226 1.368 . S
C3232 C3231 1.523 . S
C3233 C3217 1.429 1_554 S
C3233 C3229 1.429 . S
C3233 C3234 1.523 . S
C3234 C3218 1.368 . S
C3234 C3230 1.368 . S
C3234 C3233 1.523 . S
H3235 C3210 0.950 . S
H3236 C3212 0.950 . S
H3237 C3213 0.907 1_556 S
H3238 C3215 0.950 . S
H3239 C3217 0.950 . S
C3240 C3241 1.349 . S
C3240 C3242 1.327 . S
C3240 H3265 0.950 . S
C3241 C3240 1.349 . S
C3241 C3257 1.349 . S
C3242 C3240 1.327 . S
C3242 C3261 1.429 . S
C3242 H3266 0.950 . S
C3243 C3260 1.574 . S
C3243 C3262 1.368 . S
C3243 H3267 0.949 . S
H3244 C3248 0.949 . S
C3245 C3246 1.349 . S
C3245 C3247 1.327 . S
C3245 H3268 0.950 . S
C3246 C3245 1.349 . S
C3246 C3258 1.349 . S
C3247 C3245 1.327 . S
C3247 C3263 1.429 . S
C3247 H3269 0.950 . S
C3248 H3244 0.949 . S
C3248 C3256 1.574 . S
C3248 C3264 1.368 . S
H3249 C3257 0.950 . S
H3250 C3255 0.950 . S
H3251 C3256 0.949 . S
H3252 C3258 0.950 . S
H3253 C3259 0.950 . S
H3254 C3260 0.949 . S
C3255 H3250 0.950 . S
C3255 C3257 1.327 . S
C3255 C3261 1.429 . S
C3256 C3248 1.574 . S
C3256 H3251 0.949 . S
C3256 C3262 1.368 . S
C3257 C3241 1.349 . S
C3257 H3249 0.950 . S
C3257 C3255 1.327 . S
C3258 C3246 1.349 . S
C3258 H3252 0.950 . S
C3258 C3259 1.327 . S
C3259 H3253 0.950 . S
C3259 C3258 1.327 . S
C3259 C3263 1.429 . S
C3260 C3243 1.574 . S
C3260 H3254 0.949 . S
C3260 C3264 1.368 . S
C3261 C3242 1.429 . S
C3261 C3255 1.429 . S
C3261 C3262 1.523 . S
C3262 C3243 1.368 . S
C3262 C3256 1.368 . S
C3262 C3261 1.523 . S
C3263 C3247 1.429 . S
C3263 C3259 1.429 . S
C3263 C3264 1.523 . S
C3264 C3248 1.368 . S
C3264 C3260 1.368 . S
C3264 C3263 1.523 . S
H3265 C3240 0.950 . S
H3266 C3242 0.950 . S
H3267 C3243 0.949 . S
H3268 C3245 0.950 . S
H3269 C3247 0.950 . S
C3270 C3271 1.349 . S
C3270 C3272 1.327 . S
C3270 H3295 0.950 . S
C3271 C3270 1.349 . S
C3271 C3287 1.349 1_455 S
C3272 C3270 1.327 . S
C3272 C3291 1.429 . S
C3272 H3296 0.950 . S
C3273 C3290 1.574 . S
C3273 C3292 1.368 1_655 S
C3273 H3297 0.949 . S
H3274 C3278 0.949 . S
C3275 C3276 1.349 1_655 S
C3275 C3277 1.327 . S
C3275 H3298 0.950 . S
C3276 C3275 1.349 1_455 S
C3276 C3288 1.349 . S
C3277 C3275 1.327 . S
C3277 C3293 1.429 1_655 S
C3277 H3299 0.950 . S
C3278 H3274 0.949 . S
C3278 C3286 1.574 . S
C3278 C3294 1.368 . S
H3279 C3287 0.950 . S
H3280 C3285 0.950 . S
H3281 C3286 0.949 . S
H3282 C3288 0.950 . S
H3283 C3289 0.950 . S
H3284 C3290 0.949 . S
C3285 H3280 0.950 . S
C3285 C3287 1.327 . S
C3285 C3291 1.429 1_655 S
C3286 C3278 1.574 . S
C3286 H3281 0.949 . S
C3286 C3292 1.368 . S
C3287 C3271 1.349 1_655 S
C3287 H3279 0.950 . S
C3287 C3285 1.327 . S
C3288 C3276 1.349 . S
C3288 H3282 0.950 . S
C3288 C3289 1.327 . S
C3289 H3283 0.950 . S
C3289 C3288 1.327 . S
C3289 C3293 1.429 . S
C3290 C3273 1.574 . S
C3290 H3284 0.949 . S
C3290 C3294 1.368 1_655 S
C3291 C3272 1.429 . S
C3291 C3285 1.429 1_455 S
C3291 C3292 1.523 . S
C3292 C3273 1.368 1_455 S
C3292 C3286 1.368 . S
C3292 C3291 1.523 . S
C3293 C3277 1.429 1_455 S
C3293 C3289 1.429 . S
C3293 C3294 1.523 . S
C3294 C3278 1.368 . S
C3294 C3290 1.368 1_455 S
C3294 C3293 1.523 . S
H3295 C3270 0.950 . S
H3296 C3272 0.950 . S
H3297 C3273 0.949 . S
H3298 C3275 0.950 . S
H3299 C3277 0.950 . S
C3300 C3301 1.349 . S
C3300 C3302 1.327 . S
C3300 H3325 0.950 . S
C3301 C3300 1.349 . S
C3301 C3317 1.349 . S
C3302 C3300 1.327 . S
C3302 C3321 1.429 . S
C3302 H3326 0.950 . S
C3303 C3320 1.574 . S
C3303 C3322 1.368 . S
C3303 H3327 0.949 . S
H3304 C3308 0.949 . S
C3305 C3306 1.349 . S
C3305 C3307 1.327 . S
C3305 H3328 0.950 . S
C3306 C3305 1.349 . S
C3306 C3318 1.349 . S
C3307 C3305 1.327 . S
C3307 C3323 1.429 . S
C3307 H3329 0.950 . S
C3308 H3304 0.949 . S
C3308 C3316 1.574 . S
C3308 C3324 1.368 . S
H3309 C3317 0.950 . S
H3310 C3315 0.950 . S
H3311 C3316 0.949 . S
H3312 C3318 0.950 . S
H3313 C3319 0.950 . S
H3314 C3320 0.949 . S
C3315 H3310 0.950 . S
C3315 C3317 1.327 . S
C3315 C3321 1.429 . S
C3316 C3308 1.574 . S
C3316 H3311 0.949 . S
C3316 C3322 1.368 . S
C3317 C3301 1.349 . S
C3317 H3309 0.950 . S
C3317 C3315 1.327 . S
C3318 C3306 1.349 . S
C3318 H3312 0.950 . S
C3318 C3319 1.327 . S
C3319 H3313 0.950 . S
C3319 C3318 1.327 . S
C3319 C3323 1.429 . S
C3320 C3303 1.574 . S
C3320 H3314 0.949 . S
C3320 C3324 1.368 . S
C3321 C3302 1.429 . S
C3321 C3315 1.429 . S
C3321 C3322 1.523 . S
C3322 C3303 1.368 . S
C3322 C3316 1.368 . S
C3322 C3321 1.523 . S
C3323 C3307 1.429 . S
C3323 C3319 1.429 . S
C3323 C3324 1.523 . S
C3324 C3308 1.368 . S
C3324 C3320 1.368 . S
C3324 C3323 1.523 . S
H3325 C3300 0.950 . S
H3326 C3302 0.950 . S
H3327 C3303 0.949 . S
H3328 C3305 0.950 . S
H3329 C3307 0.950 . S
C3330 C3331 1.349 . S
C3330 C3332 1.327 . S
C3330 H3355 0.950 . S
C3331 C3330 1.349 . S
C3331 C3347 1.349 . S
C3332 C3330 1.327 . S
C3332 C3351 1.429 . S
C3332 H3356 0.950 . S
C3333 C3350 1.574 . S
C3333 C3352 1.368 . S
C3333 H3357 0.949 . S
H3334 C3338 0.943 1_655 S
C3335 C3336 1.349 . S
C3335 C3337 1.327 . S
C3335 H3358 0.950 . S
C3336 C3335 1.349 . S
C3336 C3348 1.349 1_455 S
C3337 C3335 1.327 . S
C3337 C3353 1.429 . S
C3337 H3359 0.950 . S
C3338 H3334 0.943 1_455 S
C3338 C3346 1.575 . S
C3338 C3354 1.373 . S
H3339 C3347 0.950 . S
H3340 C3345 0.950 . S
H3341 C3346 0.949 1_655 S
H3342 C3348 0.950 . S
H3343 C3349 0.950 . S
H3344 C3350 0.949 . S
C3345 H3340 0.950 . S
C3345 C3347 1.327 . S
C3345 C3351 1.429 . S
C3346 C3338 1.575 . S
C3346 H3341 0.949 1_455 S
C3346 C3352 1.368 . S
C3347 C3331 1.349 . S
C3347 H3339 0.950 . S
C3347 C3345 1.327 . S
C3348 C3336 1.349 1_655 S
C3348 H3342 0.950 . S
C3348 C3349 1.327 . S
C3349 H3343 0.950 . S
C3349 C3348 1.327 . S
C3349 C3353 1.429 1_655 S
C3350 C3333 1.574 . S
C3350 H3344 0.949 . S
C3350 C3354 1.368 . S
C3351 C3332 1.429 . S
C3351 C3345 1.429 . S
C3351 C3352 1.523 . S
C3352 C3333 1.368 . S
C3352 C3346 1.368 . S
C3352 C3351 1.523 . S
C3353 C3337 1.429 . S
C3353 C3349 1.429 1_455 S
C3353 C3354 1.523 . S
C3354 C3338 1.373 . S
C3354 C3350 1.368 . S
C3354 C3353 1.523 . S
H3355 C3330 0.950 . S
H3356 C3332 0.950 . S
H3357 C3333 0.949 . S
H3358 C3335 0.950 . S
H3359 C3337 0.950 . S
C3360 C3361 1.349 . S
C3360 C3362 1.327 . S
C3360 H3385 0.950 . S
C3361 C3360 1.349 . S
C3361 C3377 1.349 . S
C3362 C3360 1.327 . S
C3362 C3381 1.429 . S
C3362 H3386 0.950 . S
C3363 C3380 1.574 . S
C3363 C3382 1.368 . S
C3363 H3387 0.949 . S
H3364 C3368 0.949 . S
C3365 C3366 1.349 . S
C3365 C3367 1.327 . S
C3365 H3388 0.950 . S
C3366 C3365 1.349 . S
C3366 C3378 1.349 . S
C3367 C3365 1.327 . S
C3367 C3383 1.429 . S
C3367 H3389 0.950 . S
C3368 H3364 0.949 . S
C3368 C3376 1.574 . S
C3368 C3384 1.368 . S
H3369 C3377 0.950 . S
H3370 C3375 0.950 . S
H3371 C3376 0.949 . S
H3372 C3378 0.950 . S
H3373 C3379 0.950 . S
H3374 C3380 0.949 . S
C3375 H3370 0.950 . S
C3375 C3377 1.327 . S
C3375 C3381 1.429 . S
C3376 C3368 1.574 . S
C3376 H3371 0.949 . S
C3376 C3382 1.368 . S
C3377 C3361 1.349 . S
C3377 H3369 0.950 . S
C3377 C3375 1.327 . S
C3378 C3366 1.349 . S
C3378 H3372 0.950 . S
C3378 C3379 1.327 . S
C3379 H3373 0.950 . S
C3379 C3378 1.327 . S
C3379 C3383 1.429 . S
C3380 C3363 1.574 . S
C3380 H3374 0.949 . S
C3380 C3384 1.368 . S
C3381 C3362 1.429 . S
C3381 C3375 1.429 . S
C3381 C3382 1.523 . S
C3382 C3363 1.368 . S
C3382 C3376 1.368 . S
C3382 C3381 1.523 . S
C3383 C3367 1.429 . S
C3383 C3379 1.429 . S
C3383 C3384 1.523 . S
C3384 C3368 1.368 . S
C3384 C3380 1.368 . S
C3384 C3383 1.523 . S
H3385 C3360 0.950 . S
H3386 C3362 0.950 . S
H3387 C3363 0.949 . S
H3388 C3365 0.950 . S
H3389 C3367 0.950 . S
C3390 C3391 1.349 . S
C3390 C3392 1.327 . S
C3390 H3415 0.950 . S
C3391 C3390 1.349 . S
C3391 C3407 1.349 . S
C3392 C3390 1.327 . S
C3392 C3411 1.429 . S
C3392 H3416 0.950 . S
C3393 C3410 1.574 . S
C3393 C3412 1.368 . S
C3393 H3417 0.949 . S
H3394 C3398 0.949 . S
C3395 C3396 1.349 . S
C3395 C3397 1.327 . S
C3395 H3418 0.950 . S
C3396 C3395 1.349 . S
C3396 C3408 1.349 . S
C3397 C3395 1.327 . S
C3397 C3413 1.429 . S
C3397 H3419 0.950 . S
C3398 H3394 0.949 . S
C3398 C3406 1.574 . S
C3398 C3414 1.368 . S
H3399 C3407 0.950 . S
H3400 C3405 0.950 . S
H3401 C3406 0.949 . S
H3402 C3408 0.950 . S
H3403 C3409 0.950 . S
H3404 C3410 0.949 . S
C3405 H3400 0.950 . S
C3405 C3407 1.327 . S
C3405 C3411 1.429 . S
C3406 C3398 1.574 . S
C3406 H3401 0.949 . S
C3406 C3412 1.368 . S
C3407 C3391 1.349 . S
C3407 H3399 0.950 . S
C3407 C3405 1.327 . S
C3408 C3396 1.349 . S
C3408 H3402 0.950 . S
C3408 C3409 1.327 . S
C3409 H3403 0.950 . S
C3409 C3408 1.327 . S
C3409 C3413 1.429 . S
C3410 C3393 1.574 . S
C3410 H3404 0.949 . S
C3410 C3414 1.368 . S
C3411 C3392 1.429 . S
C3411 C3405 1.429 . S
C3411 C3412 1.523 . S
C3412 C3393 1.368 . S
C3412 C3406 1.368 . S
C3412 C3411 1.523 . S
C3413 C3397 1.429 . S
C3413 C3409 1.429 . S
C3413 C3414 1.523 . S
C3414 C3398 1.368 . S
C3414 C3410 1.368 . S
C3414 C3413 1.523 . S
H3415 C3390 0.950 . S
H3416 C3392 0.950 . S
H3417 C3393 0.949 . S
H3418 C3395 0.950 . S
H3419 C3397 0.950 . S
C3420 C3421 1.349 1_565 S
C3420 C3422 1.327 1_565 S
C3420 H3445 0.950 . S
C3421 C3420 1.349 1_545 S
C3421 C3437 1.349 . S
C3422 C3420 1.327 1_545 S
C3422 C3441 1.429 . S
C3422 H3446 0.950 1_545 S
C3423 C3440 1.574 . S
C3423 C3442 1.368 . S
C3423 H3447 0.949 . S
H3424 C3428 0.949 . S
C3425 C3426 1.349 . S
C3425 C3427 1.327 . S
C3425 H3448 0.950 . S
C3426 C3425 1.349 . S
C3426 C3438 1.349 . S
C3427 C3425 1.327 . S
C3427 C3443 1.429 . S
C3427 H3449 0.950 . S
C3428 H3424 0.949 . S
C3428 C3436 1.574 . S
C3428 C3444 1.368 . S
H3429 C3437 0.950 . S
H3430 C3435 0.950 . S
H3431 C3436 0.949 . S
H3432 C3438 0.950 . S
H3433 C3439 0.950 . S
H3434 C3440 0.949 . S
C3435 H3430 0.950 . S
C3435 C3437 1.327 . S
C3435 C3441 1.429 . S
C3436 C3428 1.574 . S
C3436 H3431 0.949 . S
C3436 C3442 1.368 . S
C3437 C3421 1.349 . S
C3437 H3429 0.950 . S
C3437 C3435 1.327 . S
C3438 C3426 1.349 . S
C3438 H3432 0.950 . S
C3438 C3439 1.327 . S
C3439 H3433 0.950 . S
C3439 C3438 1.327 . S
C3439 C3443 1.429 . S
C3440 C3423 1.574 . S
C3440 H3434 0.949 . S
C3440 C3444 1.368 . S
C3441 C3422 1.429 . S
C3441 C3435 1.429 . S
C3441 C3442 1.523 . S
C3442 C3423 1.368 . S
C3442 C3436 1.368 . S
C3442 C3441 1.523 . S
C3443 C3427 1.429 . S
C3443 C3439 1.429 . S
C3443 C3444 1.523 . S
C3444 C3428 1.368 . S
C3444 C3440 1.368 . S
C3444 C3443 1.523 . S
H3445 C3420 0.950 . S
H3446 C3422 0.950 1_565 S
H3447 C3423 0.949 . S
H3448 C3425 0.950 . S
H3449 C3427 0.950 . S
C3450 C3451 1.349 . S
C3450 C3452 1.327 . S
C3450 H3475 0.950 . S
C3451 C3450 1.349 . S
C3451 C3467 1.349 . S
C3452 C3450 1.327 . S
C3452 C3471 1.429 . S
C3452 H3476 0.950 . S
C3453 C3470 1.574 . S
C3453 C3472 1.368 . S
C3453 H3477 0.949 . S
H3454 C3458 0.949 . S
C3455 C3456 1.349 . S
C3455 C3457 1.327 . S
C3455 H3478 0.950 . S
C3456 C3455 1.349 . S
C3456 C3468 1.349 . S
C3457 C3455 1.327 . S
C3457 C3473 1.429 . S
C3457 H3479 0.950 . S
C3458 H3454 0.949 . S
C3458 C3466 1.574 . S
C3458 C3474 1.368 . S
H3459 C3467 0.950 . S
H3460 C3465 0.950 . S
H3461 C3466 0.949 . S
H3462 C3468 0.950 . S
H3463 C3469 0.950 . S
H3464 C3470 0.949 . S
C3465 H3460 0.950 . S
C3465 C3467 1.327 . S
C3465 C3471 1.429 . S
C3466 C3458 1.574 . S
C3466 H3461 0.949 . S
C3466 C3472 1.368 . S
C3467 C3451 1.349 . S
C3467 H3459 0.950 . S
C3467 C3465 1.327 . S
C3468 C3456 1.349 . S
C3468 H3462 0.950 . S
C3468 C3469 1.327 . S
C3469 H3463 0.950 . S
C3469 C3468 1.327 . S
C3469 C3473 1.429 . S
C3470 C3453 1.574 . S
C3470 H3464 0.949 . S
C3470 C3474 1.368 . S
C3471 C3452 1.429 . S
C3471 C3465 1.429 . S
C3471 C3472 1.523 . S
C3472 C3453 1.368 . S
C3472 C3466 1.368 . S
C3472 C3471 1.523 . S
C3473 C3457 1.429 . S
C3473 C3469 1.429 . S
C3473 C3474 1.523 . S
C3474 C3458 1.368 . S
C3474 C3470 1.368 . S
C3474 C3473 1.523 . S
H3475 C3450 0.950 . S
H3476 C3452 0.950 . S
H3477 C3453 0.949 . S
H3478 C3455 0.950 . S
H3479 C3457 0.950 . S
C3480 C3481 1.349 . S
C3480 C3482 1.327 . S
C3480 H3505 0.950 . S
C3481 C3480 1.349 . S
C3481 C3497 1.349 . S
C3482 C3480 1.327 . S
C3482 C3501 1.429 . S
C3482 H3506 0.950 . S
C3483 C3500 1.574 . S
C3483 C3502 1.368 . S
C3483 H3507 0.949 . S
H3484 C3488 0.949 . S
C3485 C3486 1.349 . S
C3485 C3487 1.327 . S
C3485 H3508 0.950 . S
C3486 C3485 1.349 . S
C3486 C3498 1.349 . S
C3487 C3485 1.327 . S
C3487 C3503 1.429 . S
C3487 H3509 0.950 . S
C3488 H3484 0.949 . S
C3488 C3496 1.574 . S
C3488 C3504 1.368 . S
H3489 C3497 0.950 . S
H3490 C3495 0.950 . S
H3491 C3496 0.949 . S
H3492 C3498 0.950 . S
H3493 C3499 0.950 . S
H3494 C3500 0.949 . S
C3495 H3490 0.950 . S
C3495 C3497 1.327 . S
C3495 C3501 1.429 . S
C3496 C3488 1.574 . S
C3496 H3491 0.949 . S
C3496 C3502 1.368 . S
C3497 C3481 1.349 . S
C3497 H3489 0.950 . S
C3497 C3495 1.327 . S
C3498 C3486 1.349 . S
C3498 H3492 0.950 . S
C3498 C3499 1.327 . S
C3499 H3493 0.950 . S
C3499 C3498 1.327 . S
C3499 C3503 1.429 . S
C3500 C3483 1.574 . S
C3500 H3494 0.949 . S
C3500 C3504 1.368 . S
C3501 C3482 1.429 . S
C3501 C3495 1.429 . S
C3501 C3502 1.523 . S
C3502 C3483 1.368 . S
C3502 C3496 1.368 . S
C3502 C3501 1.523 . S
C3503 C3487 1.429 . S
C3503 C3499 1.429 . S
C3503 C3504 1.523 . S
C3504 C3488 1.368 . S
C3504 C3500 1.368 . S
C3504 C3503 1.523 . S
H3505 C3480 0.950 . S
H3506 C3482 0.950 . S
H3507 C3483 0.949 . S
H3508 C3485 0.950 . S
H3509 C3487 0.950 . S
C3510 C3511 1.349 . S
C3510 C3512 1.327 . S
C3510 H3535 0.950 . S
C3511 C3510 1.349 . S
C3511 C3527 1.349 . S
C3512 C3510 1.327 . S
C3512 C3531 1.429 . S
C3512 H3536 0.950 . S
C3513 C3530 1.574 . S
C3513 C3532 1.368 . S
C3513 H3537 0.949 . S
H3514 C3518 0.949 . S
C3515 C3516 1.349 . S
C3515 C3517 1.327 . S
C3515 H3538 0.950 . S
C3516 C3515 1.349 . S
C3516 C3528 1.349 . S
C3517 C3515 1.327 . S
C3517 C3533 1.429 . S
C3517 H3539 0.950 . S
C3518 H3514 0.949 . S
C3518 C3526 1.574 . S
C3518 C3534 1.368 . S
H3519 C3527 0.950 . S
H3520 C3525 0.950 . S
H3521 C3526 0.949 . S
H3522 C3528 0.950 . S
H3523 C3529 0.950 . S
H3524 C3530 0.949 . S
C3525 H3520 0.950 . S
C3525 C3527 1.327 . S
C3525 C3531 1.429 . S
C3526 C3518 1.574 . S
C3526 H3521 0.949 . S
C3526 C3532 1.368 . S
C3527 C3511 1.349 . S
C3527 H3519 0.950 . S
C3527 C3525 1.327 . S
C3528 C3516 1.349 . S
C3528 H3522 0.950 . S
C3528 C3529 1.327 . S
C3529 H3523 0.950 . S
C3529 C3528 1.327 . S
C3529 C3533 1.429 . S
C3530 C3513 1.574 . S
C3530 H3524 0.949 . S
C3530 C3534 1.368 . S
C3531 C3512 1.429 . S
C3531 C3525 1.429 . S
C3531 C3532 1.523 . S
C3532 C3513 1.368 . S
C3532 C3526 1.368 . S
C3532 C3531 1.523 . S
C3533 C3517 1.429 . S
C3533 C3529 1.429 . S
C3533 C3534 1.523 . S
C3534 C3518 1.368 . S
C3534 C3530 1.368 . S
C3534 C3533 1.523 . S
H3535 C3510 0.950 . S
H3536 C3512 0.950 . S
H3537 C3513 0.949 . S
H3538 C3515 0.950 . S
H3539 C3517 0.950 . S
C3540 C3541 1.349 . S
C3540 C3542 1.327 . S
C3540 H3565 0.950 . S
C3541 C3540 1.349 . S
C3541 C3557 1.349 . S
C3542 C3540 1.327 . S
C3542 C3561 1.429 . S
C3542 H3566 0.950 . S
C3543 C3560 1.574 . S
C3543 C3562 1.368 . S
C3543 H3567 0.949 . S
H3544 C3548 0.949 . S
C3545 C3546 1.349 . S
C3545 C3547 1.327 . S
C3545 H3568 0.950 . S
C3546 C3545 1.349 . S
C3546 C3558 1.349 . S
C3547 C3545 1.327 . S
C3547 C3563 1.429 . S
C3547 H3569 0.950 . S
C3548 H3544 0.949 . S
C3548 C3556 1.574 . S
C3548 C3564 1.368 . S
H3549 C3557 0.950 . S
H3550 C3555 0.950 . S
H3551 C3556 0.949 . S
H3552 C3558 0.950 . S
H3553 C3559 0.950 . S
H3554 C3560 0.949 . S
C3555 H3550 0.950 . S
C3555 C3557 1.327 . S
C3555 C3561 1.429 . S
C3556 C3548 1.574 . S
C3556 H3551 0.949 . S
C3556 C3562 1.368 . S
C3557 C3541 1.349 . S
C3557 H3549 0.950 . S
C3557 C3555 1.327 . S
C3558 C3546 1.349 . S
C3558 H3552 0.950 . S
C3558 C3559 1.327 . S
C3559 H3553 0.950 . S
C3559 C3558 1.327 . S
C3559 C3563 1.429 . S
C3560 C3543 1.574 . S
C3560 H3554 0.949 . S
C3560 C3564 1.368 . S
C3561 C3542 1.429 . S
C3561 C3555 1.429 . S
C3561 C3562 1.523 . S
C3562 C3543 1.368 . S
C3562 C3556 1.368 . S
C3562 C3561 1.523 . S
C3563 C3547 1.429 . S
C3563 C3559 1.429 . S
C3563 C3564 1.523 . S
C3564 C3548 1.368 . S
C3564 C3560 1.368 . S
C3564 C3563 1.523 . S
H3565 C3540 0.950 . S
H3566 C3542 0.950 . S
H3567 C3543 0.949 . S
H3568 C3545 0.950 . S
H3569 C3547 0.950 . S
C3570 C3571 1.349 . S
C3570 C3572 1.327 . S
C3570 H3595 0.950 . S
C3571 C3570 1.349 . S
C3571 C3587 1.345 1_554 S
C3572 C3570 1.327 . S
C3572 C3591 1.429 . S
C3572 H3596 0.950 . S
C3573 C3590 1.574 . S
C3573 C3592 1.368 . S
C3573 H3597 0.949 . S
H3574 C3578 0.949 . S
C3575 C3576 1.349 . S
C3575 C3577 1.327 . S
C3575 H3598 0.950 . S
C3576 C3575 1.349 . S
C3576 C3588 1.349 . S
C3577 C3575 1.327 . S
C3577 C3593 1.429 . S
C3577 H3599 0.950 . S
C3578 H3574 0.949 . S
C3578 C3586 1.574 . S
C3578 C3594 1.368 . S
H3579 C3587 0.958 . S
H3580 C3585 0.980 . S
H3581 C3586 0.949 . S
H3582 C3588 0.950 . S
H3583 C3589 0.950 . S
H3584 C3590 0.949 . S
C3585 H3580 0.980 . S
C3585 C3587 1.323 1_554 S
C3585 C3591 1.429 . S
C3586 C3578 1.574 . S
C3586 H3581 0.949 . S
C3586 C3592 1.368 . S
C3587 C3571 1.345 1_556 S
C3587 H3579 0.958 . S
C3587 C3585 1.323 1_556 S
C3588 C3576 1.349 . S
C3588 H3582 0.950 . S
C3588 C3589 1.327 . S
C3589 H3583 0.950 . S
C3589 C3588 1.327 . S
C3589 C3593 1.429 . S
C3590 C3573 1.574 . S
C3590 H3584 0.949 . S
C3590 C3594 1.368 . S
C3591 C3572 1.429 . S
C3591 C3585 1.429 . S
C3591 C3592 1.523 . S
C3592 C3573 1.368 . S
C3592 C3586 1.368 . S
C3592 C3591 1.523 . S
C3593 C3577 1.429 . S
C3593 C3589 1.429 . S
C3593 C3594 1.523 . S
C3594 C3578 1.368 . S
C3594 C3590 1.368 . S
C3594 C3593 1.523 . S
H3595 C3570 0.950 . S
H3596 C3572 0.950 . S
H3597 C3573 0.949 . S
H3598 C3575 0.950 . S
H3599 C3577 0.950 . S
C3600 C3601 1.349 . S
C3600 C3602 1.327 . S
C3600 H3625 0.950 . S
C3601 C3600 1.349 . S
C3601 C3617 1.349 . S
C3602 C3600 1.327 . S
C3602 C3621 1.429 . S
C3602 H3626 0.950 . S
C3603 C3620 1.574 . S
C3603 C3622 1.368 . S
C3603 H3627 0.949 . S
H3604 C3608 0.949 . S
C3605 C3606 1.349 . S
C3605 C3607 1.327 . S
C3605 H3628 0.950 . S
C3606 C3605 1.349 . S
C3606 C3618 1.349 . S
C3607 C3605 1.327 . S
C3607 C3623 1.429 . S
C3607 H3629 0.950 . S
C3608 H3604 0.949 . S
C3608 C3616 1.574 . S
C3608 C3624 1.368 . S
H3609 C3617 0.950 . S
H3610 C3615 0.950 . S
H3611 C3616 0.949 . S
H3612 C3618 0.950 . S
H3613 C3619 0.950 . S
H3614 C3620 0.949 . S
C3615 H3610 0.950 . S
C3615 C3617 1.327 . S
C3615 C3621 1.429 . S
C3616 C3608 1.574 . S
C3616 H3611 0.949 . S
C3616 C3622 1.368 . S
C3617 C3601 1.349 . S
C3617 H3609 0.950 . S
C3617 C3615 1.327 . S
C3618 C3606 1.349 . S
C3618 H3612 0.950 . S
C3618 C3619 1.327 . S
C3619 H3613 0.950 . S
C3619 C3618 1.327 . S
C3619 C3623 1.429 . S
C3620 C3603 1.574 . S
C3620 H3614 0.949 . S
C3620 C3624 1.368 . S
C3621 C3602 1.429 . S
C3621 C3615 1.429 . S
C3621 C3622 1.523 . S
C3622 C3603 1.368 . S
C3622 C3616 1.368 . S
C3622 C3621 1.523 . S
C3623 C3607 1.429 . S
C3623 C3619 1.429 . S
C3623 C3624 1.523 . S
C3624 C3608 1.368 . S
C3624 C3620 1.368 . S
C3624 C3623 1.523 . S
H3625 C3600 0.950 . S
H3626 C3602 0.950 . S
H3627 C3603 0.949 . S
H3628 C3605 0.950 . S
H3629 C3607 0.950 . S
C3630 C3631 1.349 . S
C3630 C3632 1.327 . S
C3630 H3655 0.950 . S
C3631 C3630 1.349 . S
C3631 C3647 1.349 . S
C3632 C3630 1.327 . S
C3632 C3651 1.429 . S
C3632 H3656 0.950 . S
C3633 C3650 1.574 . S
C3633 C3652 1.368 . S
C3633 H3657 0.949 . S
H3634 C3638 0.949 . S
C3635 C3636 1.349 . S
C3635 C3637 1.327 . S
C3635 H3658 0.950 . S
C3636 C3635 1.349 . S
C3636 C3648 1.349 . S
C3637 C3635 1.327 . S
C3637 C3653 1.429 . S
C3637 H3659 0.950 . S
C3638 H3634 0.949 . S
C3638 C3646 1.574 . S
C3638 C3654 1.368 . S
H3639 C3647 0.950 . S
H3640 C3645 0.950 . S
H3641 C3646 0.949 . S
H3642 C3648 0.950 . S
H3643 C3649 0.950 . S
H3644 C3650 0.949 . S
C3645 H3640 0.950 . S
C3645 C3647 1.327 . S
C3645 C3651 1.429 . S
C3646 C3638 1.574 . S
C3646 H3641 0.949 . S
C3646 C3652 1.368 . S
C3647 C3631 1.349 . S
C3647 H3639 0.950 . S
C3647 C3645 1.327 . S
C3648 C3636 1.349 . S
C3648 H3642 0.950 . S
C3648 C3649 1.327 . S
C3649 H3643 0.950 . S
C3649 C3648 1.327 . S
C3649 C3653 1.429 . S
C3650 C3633 1.574 . S
C3650 H3644 0.949 . S
C3650 C3654 1.368 . S
C3651 C3632 1.429 . S
C3651 C3645 1.429 . S
C3651 C3652 1.523 . S
C3652 C3633 1.368 . S
C3652 C3646 1.368 . S
C3652 C3651 1.523 . S
C3653 C3637 1.429 . S
C3653 C3649 1.429 . S
C3653 C3654 1.523 . S
C3654 C3638 1.368 . S
C3654 C3650 1.368 . S
C3654 C3653 1.523 . S
H3655 C3630 0.950 . S
H3656 C3632 0.950 . S
H3657 C3633 0.949 . S
H3658 C3635 0.950 . S
H3659 C3637 0.950 . S
C3660 C3661 1.349 . S
C3660 C3662 1.327 . S
C3660 H3685 0.950 . S
C3661 C3660 1.349 . S
C3661 C3677 1.349 . S
C3662 C3660 1.327 . S
C3662 C3681 1.429 . S
C3662 H3686 0.950 . S
C3663 C3680 1.574 . S
C3663 C3682 1.368 . S
C3663 H3687 0.949 . S
H3664 C3668 0.949 . S
C3665 C3666 1.349 . S
C3665 C3667 1.327 . S
C3665 H3688 0.950 . S
C3666 C3665 1.349 . S
C3666 C3678 1.349 . S
C3667 C3665 1.327 . S
C3667 C3683 1.429 . S
C3667 H3689 0.950 . S
C3668 H3664 0.949 . S
C3668 C3676 1.574 . S
C3668 C3684 1.368 . S
H3669 C3677 0.950 . S
H3670 C3675 0.950 . S
H3671 C3676 0.949 . S
H3672 C3678 0.950 . S
H3673 C3679 0.950 . S
H3674 C3680 0.949 . S
C3675 H3670 0.950 . S
C3675 C3677 1.327 . S
C3675 C3681 1.429 . S
C3676 C3668 1.574 . S
C3676 H3671 0.949 . S
C3676 C3682 1.368 . S
C3677 C3661 1.349 . S
C3677 H3669 0.950 . S
C3677 C3675 1.327 . S
C3678 C3666 1.349 . S
C3678 H3672 0.950 . S
C3678 C3679 1.327 . S
C3679 H3673 0.950 . S
C3679 C3678 1.327 . S
C3679 C3683 1.429 . S
C3680 C3663 1.574 . S
C3680 H3674 0.949 . S
C3680 C3684 1.368 . S
C3681 C3662 1.429 . S
C3681 C3675 1.429 . S
C3681 C3682 1.523 . S
C3682 C3663 1.368 . S
C3682 C3676 1.368 . S
C3682 C3681 1.523 . S
C3683 C3667 1.429 . S
C3683 C3679 1.429 . S
C3683 C3684 1.523 . S
C3684 C3668 1.368 . S
C3684 C3680 1.368 . S
C3684 C3683 1.523 . S
H3685 C3660 0.950 . S
H3686 C3662 0.950 . S
H3687 C3663 0.949 . S
H3688 C3665 0.950 . S
H3689 C3667 0.950 . S
C3690 C3691 1.349 1_655 S
C3690 C3692 1.327 1_655 S
C3690 H3715 0.950 . S
C3691 C3690 1.349 1_455 S
C3691 C3707 1.349 . S
C3692 C3690 1.327 1_455 S
C3692 C3711 1.429 . S
C3692 H3716 0.950 1_455 S
C3693 C3710 1.574 . S
C3693 C3712 1.368 . S
C3693 H3717 0.949 . S
H3694 C3698 0.949 . S
C3695 C3696 1.349 . S
C3695 C3697 1.327 . S
C3695 H3718 0.950 . S
C3696 C3695 1.349 . S
C3696 C3708 1.349 . S
C3697 C3695 1.327 . S
C3697 C3713 1.429 . S
C3697 H3719 0.950 . S
C3698 H3694 0.949 . S
C3698 C3706 1.574 . S
C3698 C3714 1.368 . S
H3699 C3707 0.950 . S
H3700 C3705 0.950 . S
H3701 C3706 0.949 . S
H3702 C3708 0.950 . S
H3703 C3709 0.950 . S
H3704 C3710 0.949 . S
C3705 H3700 0.950 . S
C3705 C3707 1.327 . S
C3705 C3711 1.429 . S
C3706 C3698 1.574 . S
C3706 H3701 0.949 . S
C3706 C3712 1.368 . S
C3707 C3691 1.349 . S
C3707 H3699 0.950 . S
C3707 C3705 1.327 . S
C3708 C3696 1.349 . S
C3708 H3702 0.950 . S
C3708 C3709 1.327 . S
C3709 H3703 0.950 . S
C3709 C3708 1.327 . S
C3709 C3713 1.429 . S
C3710 C3693 1.574 . S
C3710 H3704 0.949 . S
C3710 C3714 1.368 . S
C3711 C3692 1.429 . S
C3711 C3705 1.429 . S
C3711 C3712 1.523 . S
C3712 C3693 1.368 . S
C3712 C3706 1.368 . S
C3712 C3711 1.523 . S
C3713 C3697 1.429 . S
C3713 C3709 1.429 . S
C3713 C3714 1.523 . S
C3714 C3698 1.368 . S
C3714 C3710 1.368 . S
C3714 C3713 1.523 . S
H3715 C3690 0.950 . S
H3716 C3692 0.950 1_655 S
H3717 C3693 0.949 . S
H3718 C3695 0.950 . S
H3719 C3697 0.950 . S
C3720 C3721 1.349 . S
C3720 C3722 1.327 . S
C3720 H3745 0.950 . S
C3721 C3720 1.349 . S
C3721 C3737 1.349 . S
C3722 C3720 1.327 . S
C3722 C3741 1.429 . S
C3722 H3746 0.950 . S
C3723 C3740 1.574 . S
C3723 C3742 1.368 . S
C3723 H3747 0.949 . S
H3724 C3728 0.949 . S
C3725 C3726 1.349 . S
C3725 C3727 1.327 . S
C3725 H3748 0.950 . S
C3726 C3725 1.349 . S
C3726 C3738 1.349 . S
C3727 C3725 1.327 . S
C3727 C3743 1.429 . S
C3727 H3749 0.950 . S
C3728 H3724 0.949 . S
C3728 C3736 1.574 . S
C3728 C3744 1.368 . S
H3729 C3737 0.950 . S
H3730 C3735 0.950 . S
H3731 C3736 0.949 . S
H3732 C3738 0.950 . S
H3733 C3739 0.950 . S
H3734 C3740 0.949 . S
C3735 H3730 0.950 . S
C3735 C3737 1.327 . S
C3735 C3741 1.429 . S
C3736 C3728 1.574 . S
C3736 H3731 0.949 . S
C3736 C3742 1.368 . S
C3737 C3721 1.349 . S
C3737 H3729 0.950 . S
C3737 C3735 1.327 . S
C3738 C3726 1.349 . S
C3738 H3732 0.950 . S
C3738 C3739 1.327 . S
C3739 H3733 0.950 . S
C3739 C3738 1.327 . S
C3739 C3743 1.429 . S
C3740 C3723 1.574 . S
C3740 H3734 0.949 . S
C3740 C3744 1.368 . S
C3741 C3722 1.429 . S
C3741 C3735 1.429 . S
C3741 C3742 1.523 . S
C3742 C3723 1.368 . S
C3742 C3736 1.368 . S
C3742 C3741 1.523 . S
C3743 C3727 1.429 . S
C3743 C3739 1.429 . S
C3743 C3744 1.523 . S
C3744 C3728 1.368 . S
C3744 C3740 1.368 . S
C3744 C3743 1.523 . S
H3745 C3720 0.950 . S
H3746 C3722 0.950 . S
H3747 C3723 0.949 . S
H3748 C3725 0.950 . S
H3749 C3727 0.950 . S
C3750 C3751 1.349 . S
C3750 C3752 1.327 . S
C3750 H3775 0.950 . S
C3751 C3750 1.349 . S
C3751 C3767 1.349 . S
C3752 C3750 1.327 . S
C3752 C3771 1.429 . S
C3752 H3776 0.950 . S
C3753 C3770 1.574 . S
C3753 C3772 1.368 . S
C3753 H3777 0.949 . S
H3754 C3758 0.949 . S
C3755 C3756 1.349 . S
C3755 C3757 1.327 . S
C3755 H3778 0.950 . S
C3756 C3755 1.349 . S
C3756 C3768 1.349 . S
C3757 C3755 1.327 . S
C3757 C3773 1.429 . S
C3757 H3779 0.950 . S
C3758 H3754 0.949 . S
C3758 C3766 1.574 . S
C3758 C3774 1.368 . S
H3759 C3767 0.950 . S
H3760 C3765 0.950 . S
H3761 C3766 0.949 . S
H3762 C3768 0.950 . S
H3763 C3769 0.950 . S
H3764 C3770 0.949 . S
C3765 H3760 0.950 . S
C3765 C3767 1.327 . S
C3765 C3771 1.429 . S
C3766 C3758 1.574 . S
C3766 H3761 0.949 . S
C3766 C3772 1.368 . S
C3767 C3751 1.349 . S
C3767 H3759 0.950 . S
C3767 C3765 1.327 . S
C3768 C3756 1.349 . S
C3768 H3762 0.950 . S
C3768 C3769 1.327 . S
C3769 H3763 0.950 . S
C3769 C3768 1.327 . S
C3769 C3773 1.429 . S
C3770 C3753 1.574 . S
C3770 H3764 0.949 . S
C3770 C3774 1.368 . S
C3771 C3752 1.429 . S
C3771 C3765 1.429 . S
C3771 C3772 1.523 . S
C3772 C3753 1.368 . S
C3772 C3766 1.368 . S
C3772 C3771 1.523 . S
C3773 C3757 1.429 . S
C3773 C3769 1.429 . S
C3773 C3774 1.523 . S
C3774 C3758 1.368 . S
C3774 C3770 1.368 . S
C3774 C3773 1.523 . S
H3775 C3750 0.950 . S
H3776 C3752 0.950 . S
H3777 C3753 0.949 . S
H3778 C3755 0.950 . S
H3779 C3757 0.950 . S
C3780 C3781 1.349 . S
C3780 C3782 1.327 . S
C3780 H3805 0.949 1_565 S
C3781 C3780 1.349 . S
C3781 C3797 1.349 . S
C3782 C3780 1.327 . S
C3782 C3801 1.429 . S
C3782 H3806 0.950 . S
C3783 C3800 1.574 . S
C3783 C3802 1.368 . S
C3783 H3807 0.949 . S
H3784 C3788 0.949 . S
C3785 C3786 1.349 . S
C3785 C3787 1.327 . S
C3785 H3808 0.950 . S
C3786 C3785 1.349 . S
C3786 C3798 1.349 . S
C3787 C3785 1.327 . S
C3787 C3803 1.429 . S
C3787 H3809 0.950 . S
C3788 H3784 0.949 . S
C3788 C3796 1.574 . S
C3788 C3804 1.368 . S
H3789 C3797 0.950 . S
H3790 C3795 0.950 . S
H3791 C3796 0.949 . S
H3792 C3798 0.950 . S
H3793 C3799 0.950 . S
H3794 C3800 0.949 . S
C3795 H3790 0.950 . S
C3795 C3797 1.327 . S
C3795 C3801 1.429 . S
C3796 C3788 1.574 . S
C3796 H3791 0.949 . S
C3796 C3802 1.368 . S
C3797 C3781 1.349 . S
C3797 H3789 0.950 . S
C3797 C3795 1.327 . S
C3798 C3786 1.349 . S
C3798 H3792 0.950 . S
C3798 C3799 1.327 . S
C3799 H3793 0.950 . S
C3799 C3798 1.327 . S
C3799 C3803 1.429 . S
C3800 C3783 1.574 . S
C3800 H3794 0.949 . S
C3800 C3804 1.368 . S
C3801 C3782 1.429 . S
C3801 C3795 1.429 . S
C3801 C3802 1.523 . S
C3802 C3783 1.368 . S
C3802 C3796 1.368 . S
C3802 C3801 1.523 . S
C3803 C3787 1.429 . S
C3803 C3799 1.429 . S
C3803 C3804 1.523 . S
C3804 C3788 1.368 . S
C3804 C3800 1.368 . S
C3804 C3803 1.523 . S
H3805 C3780 0.949 1_545 S
H3806 C3782 0.950 . S
H3807 C3783 0.949 . S
H3808 C3785 0.950 . S
H3809 C3787 0.950 . S
C3810 C3811 1.349 . S
C3810 C3812 1.327 . S
C3810 H3835 0.950 . S
C3811 C3810 1.349 . S
C3811 C3827 1.349 . S
C3812 C3810 1.327 . S
C3812 C3831 1.429 . S
C3812 H3836 0.950 . S
C3813 C3830 1.574 . S
C3813 C3832 1.368 . S
C3813 H3837 0.949 . S
H3814 C3818 0.949 . S
C3815 C3816 1.349 . S
C3815 C3817 1.327 . S
C3815 H3838 0.950 . S
C3816 C3815 1.349 . S
C3816 C3828 1.349 . S
C3817 C3815 1.327 . S
C3817 C3833 1.429 . S
C3817 H3839 0.950 . S
C3818 H3814 0.949 . S
C3818 C3826 1.574 . S
C3818 C3834 1.368 . S
H3819 C3827 0.950 . S
H3820 C3825 0.950 . S
H3821 C3826 0.949 . S
H3822 C3828 0.950 . S
H3823 C3829 0.950 . S
H3824 C3830 0.949 . S
C3825 H3820 0.950 . S
C3825 C3827 1.327 . S
C3825 C3831 1.429 . S
C3826 C3818 1.574 . S
C3826 H3821 0.949 . S
C3826 C3832 1.368 . S
C3827 C3811 1.349 . S
C3827 H3819 0.950 . S
C3827 C3825 1.327 . S
C3828 C3816 1.349 . S
C3828 H3822 0.950 . S
C3828 C3829 1.327 . S
C3829 H3823 0.950 . S
C3829 C3828 1.327 . S
C3829 C3833 1.429 . S
C3830 C3813 1.574 . S
C3830 H3824 0.949 . S
C3830 C3834 1.368 . S
C3831 C3812 1.429 . S
C3831 C3825 1.429 . S
C3831 C3832 1.523 . S
C3832 C3813 1.368 . S
C3832 C3826 1.368 . S
C3832 C3831 1.523 . S
C3833 C3817 1.429 . S
C3833 C3829 1.429 . S
C3833 C3834 1.523 . S
C3834 C3818 1.368 . S
C3834 C3830 1.368 . S
C3834 C3833 1.523 . S
H3835 C3810 0.950 . S
H3836 C3812 0.950 . S
H3837 C3813 0.949 . S
H3838 C3815 0.950 . S
H3839 C3817 0.950 . S
C3840 C3841 1.349 . S
C3840 C3842 1.327 . S
C3840 H3865 0.950 . S
C3841 C3840 1.349 . S
C3841 C3857 1.349 . S
C3842 C3840 1.327 . S
C3842 C3861 1.429 . S
C3842 H3866 0.950 . S
C3843 C3860 1.574 . S
C3843 C3862 1.368 . S
C3843 H3867 0.949 . S
H3844 C3848 0.949 . S
C3845 C3846 1.349 . S
C3845 C3847 1.327 . S
C3845 H3868 0.950 . S
C3846 C3845 1.349 . S
C3846 C3858 1.349 . S
C3847 C3845 1.327 . S
C3847 C3863 1.429 . S
C3847 H3869 0.950 . S
C3848 H3844 0.949 . S
C3848 C3856 1.574 . S
C3848 C3864 1.368 . S
H3849 C3857 0.950 . S
H3850 C3855 0.950 . S
H3851 C3856 0.949 . S
H3852 C3858 0.950 . S
H3853 C3859 0.950 . S
H3854 C3860 0.949 . S
C3855 H3850 0.950 . S
C3855 C3857 1.327 . S
C3855 C3861 1.429 . S
C3856 C3848 1.574 . S
C3856 H3851 0.949 . S
C3856 C3862 1.368 . S
C3857 C3841 1.349 . S
C3857 H3849 0.950 . S
C3857 C3855 1.327 . S
C3858 C3846 1.349 . S
C3858 H3852 0.950 . S
C3858 C3859 1.327 . S
C3859 H3853 0.950 . S
C3859 C3858 1.327 . S
C3859 C3863 1.429 . S
C3860 C3843 1.574 . S
C3860 H3854 0.949 . S
C3860 C3864 1.368 . S
C3861 C3842 1.429 . S
C3861 C3855 1.429 . S
C3861 C3862 1.523 . S
C3862 C3843 1.368 . S
C3862 C3856 1.368 . S
C3862 C3861 1.523 . S
C3863 C3847 1.429 . S
C3863 C3859 1.429 . S
C3863 C3864 1.523 . S
C3864 C3848 1.368 . S
C3864 C3860 1.368 . S
C3864 C3863 1.523 . S
H3865 C3840 0.950 . S
H3866 C3842 0.950 . S
H3867 C3843 0.949 . S
H3868 C3845 0.950 . S
H3869 C3847 0.950 . S
C3870 C3871 1.349 . S
C3870 C3872 1.327 . S
C3870 H3895 0.950 . S
C3871 C3870 1.349 . S
C3871 C3887 1.349 . S
C3872 C3870 1.327 . S
C3872 C3891 1.429 . S
C3872 H3896 0.950 . S
C3873 C3890 1.574 . S
C3873 C3892 1.368 . S
C3873 H3897 0.949 . S
H3874 C3878 0.949 . S
C3875 C3876 1.349 . S
C3875 C3877 1.327 . S
C3875 H3898 0.950 . S
C3876 C3875 1.349 . S
C3876 C3888 1.349 . S
C3877 C3875 1.327 . S
C3877 C3893 1.429 . S
C3877 H3899 0.950 . S
C3878 H3874 0.949 . S
C3878 C3886 1.574 . S
C3878 C3894 1.368 . S
H3879 C3887 0.950 . S
H3880 C3885 0.950 . S
H3881 C3886 0.949 . S
H3882 C3888 0.950 . S
H3883 C3889 0.950 . S
H3884 C3890 0.949 . S
C3885 H3880 0.950 . S
C3885 C3887 1.327 . S
C3885 C3891 1.429 . S
C3886 C3878 1.574 . S
C3886 H3881 0.949 . S
C3886 C3892 1.368 . S
C3887 C3871 1.349 . S
C3887 H3879 0.950 . S
C3887 C3885 1.327 . S
C3888 C3876 1.349 . S
C3888 H3882 0.950 . S
C3888 C3889 1.327 . S
C3889 H3883 0.950 . S
C3889 C3888 1.327 . S
C3889 C3893 1.429 . S
C3890 C3873 1.574 . S
C3890 H3884 0.949 . S
C3890 C3894 1.368 . S
C3891 C3872 1.429 . S
C3891 C3885 1.429 . S
C3891 C3892 1.523 . S
C3892 C3873 1.368 . S
C3892 C3886 1.368 . S
C3892 C3891 1.523 . S
C3893 C3877 1.429 . S
C3893 C3889 1.429 . S
C3893 C3894 1.523 . S
C3894 C3878 1.368 . S
C3894 C3890 1.368 . S
C3894 C3893 1.523 . S
H3895 C3870 0.950 . S
H3896 C3872 0.950 . S
H3897 C3873 0.949 . S
H3898 C3875 0.950 . S
H3899 C3877 0.950 . S
C3900 C3901 1.349 . S
C3900 C3902 1.327 . S
C3900 H3925 0.950 . S
C3901 C3900 1.349 . S
C3901 C3917 1.349 . S
C3902 C3900 1.327 . S
C3902 C3921 1.429 . S
C3902 H3926 0.950 . S
C3903 C3920 1.574 . S
C3903 C3922 1.368 . S
C3903 H3927 0.949 . S
H3904 C3908 0.949 . S
C3905 C3906 1.349 . S
C3905 C3907 1.327 . S
C3905 H3928 0.950 . S
C3906 C3905 1.349 . S
C3906 C3918 1.349 . S
C3907 C3905 1.327 . S
C3907 C3923 1.429 . S
C3907 H3929 0.950 . S
C3908 H3904 0.949 . S
C3908 C3916 1.574 . S
C3908 C3924 1.368 . S
H3909 C3917 0.950 . S
H3910 C3915 0.950 . S
H3911 C3916 0.949 . S
H3912 C3918 0.950 . S
H3913 C3919 0.950 . S
H3914 C3920 0.949 . S
C3915 H3910 0.950 . S
C3915 C3917 1.327 . S
C3915 C3921 1.429 . S
C3916 C3908 1.574 . S
C3916 H3911 0.949 . S
C3916 C3922 1.368 . S
C3917 C3901 1.349 . S
C3917 H3909 0.950 . S
C3917 C3915 1.327 . S
C3918 C3906 1.349 . S
C3918 H3912 0.950 . S
C3918 C3919 1.327 . S
C3919 H3913 0.950 . S
C3919 C3918 1.327 . S
C3919 C3923 1.429 . S
C3920 C3903 1.574 . S
C3920 H3914 0.949 . S
C3920 C3924 1.368 . S
C3921 C3902 1.429 . S
C3921 C3915 1.429 . S
C3921 C3922 1.523 . S
C3922 C3903 1.368 . S
C3922 C3916 1.368 . S
C3922 C3921 1.523 . S
C3923 C3907 1.429 . S
C3923 C3919 1.429 . S
C3923 C3924 1.523 . S
C3924 C3908 1.368 . S
C3924 C3920 1.368 . S
C3924 C3923 1.523 . S
H3925 C3900 0.950 . S
H3926 C3902 0.950 . S
H3927 C3903 0.949 . S
H3928 C3905 0.950 . S
H3929 C3907 0.950 . S
C3930 C3931 1.349 1_554 S
C3930 C3932 1.327 1_554 S
C3930 H3955 0.950 . S
C3931 C3930 1.349 1_556 S
C3931 C3947 1.349 . S
C3932 C3930 1.327 1_556 S
C3932 C3951 1.429 . S
C3932 H3956 0.950 1_556 S
C3933 C3950 1.574 . S
C3933 C3952 1.368 . S
C3933 H3957 0.949 . S
H3934 C3938 0.949 . S
C3935 C3936 1.349 . S
C3935 C3937 1.327 . S
C3935 H3958 0.950 . S
C3936 C3935 1.349 . S
C3936 C3948 1.349 . S
C3937 C3935 1.327 . S
C3937 C3953 1.429 . S
C3937 H3959 0.950 . S
C3938 H3934 0.949 . S
C3938 C3946 1.574 . S
C3938 C3954 1.368 . S
H3939 C3947 0.950 . S
H3940 C3945 0.950 . S
H3941 C3946 0.949 . S
H3942 C3948 0.950 . S
H3943 C3949 0.950 . S
H3944 C3950 0.949 . S
C3945 H3940 0.950 . S
C3945 C3947 1.327 . S
C3945 C3951 1.429 . S
C3946 C3938 1.574 . S
C3946 H3941 0.949 . S
C3946 C3952 1.368 . S
C3947 C3931 1.349 . S
C3947 H3939 0.950 . S
C3947 C3945 1.327 . S
C3948 C3936 1.349 . S
C3948 H3942 0.950 . S
C3948 C3949 1.327 . S
C3949 H3943 0.950 . S
C3949 C3948 1.327 . S
C3949 C3953 1.429 . S
C3950 C3933 1.574 . S
C3950 H3944 0.949 . S
C3950 C3954 1.368 . S
C3951 C3932 1.429 . S
C3951 C3945 1.429 . S
C3951 C3952 1.523 . S
C3952 C3933 1.368 . S
C3952 C3946 1.368 . S
C3952 C3951 1.523 . S
C3953 C3937 1.429 . S
C3953 C3949 1.429 . S
C3953 C3954 1.523 . S
C3954 C3938 1.368 . S
C3954 C3950 1.368 . S
C3954 C3953 1.523 . S
H3955 C3930 0.950 . S
H3956 C3932 0.950 1_554 S
H3957 C3933 0.949 . S
H3958 C3935 0.950 . S
H3959 C3937 0.950 . S
C3960 C3961 1.349 . S
C3960 C3962 1.327 . S
C3960 H3985 0.950 . S
C3961 C3960 1.349 . S
C3961 C3977 1.349 . S
C3962 C3960 1.327 . S
C3962 C3981 1.429 . S
C3962 H3986 0.950 . S
C3963 C3980 1.574 . S
C3963 C3982 1.368 . S
C3963 H3987 0.949 . S
H3964 C3968 0.949 . S
C3965 C3966 1.349 . S
C3965 C3967 1.327 . S
C3965 H3988 0.950 . S
C3966 C3965 1.349 . S
C3966 C3978 1.349 . S
C3967 C3965 1.327 . S
C3967 C3983 1.429 . S
C3967 H3989 0.950 . S
C3968 H3964 0.949 . S
C3968 C3976 1.574 . S
C3968 C3984 1.368 . S
H3969 C3977 0.950 . S
H3970 C3975 0.950 . S
H3971 C3976 0.949 . S
H3972 C3978 0.950 . S
H3973 C3979 0.950 . S
H3974 C3980 0.949 . S
C3975 H3970 0.950 . S
C3975 C3977 1.327 . S
C3975 C3981 1.429 . S
C3976 C3968 1.574 . S
C3976 H3971 0.949 . S
C3976 C3982 1.368 . S
C3977 C3961 1.349 . S
C3977 H3969 0.950 . S
C3977 C3975 1.327 . S
C3978 C3966 1.349 . S
C3978 H3972 0.950 . S
C3978 C3979 1.327 . S
C3979 H3973 0.950 . S
C3979 C3978 1.327 . S
C3979 C3983 1.429 . S
C3980 C3963 1.574 . S
C3980 H3974 0.949 . S
C3980 C3984 1.368 . S
C3981 C3962 1.429 . S
C3981 C3975 1.429 . S
C3981 C3982 1.523 . S
C3982 C3963 1.368 . S
C3982 C3976 1.368 . S
C3982 C3981 1.523 . S
C3983 C3967 1.429 . S
C3983 C3979 1.429 . S
C3983 C3984 1.523 . S
C3984 C3968 1.368 . S
C3984 C3980 1.368 . S
C3984 C3983 1.523 . S
H3985 C3960 0.950 . S
H3986 C3962 0.950 . S
H3987 C3963 0.949 . S
H3988 C3965 0.950 . S
H3989 C3967 0.950 . S
C3990 C3991 1.349 . S
C3990 C3992 1.327 . S
C3990 H4015 0.950 . S
C3991 C3990 1.349 . S
C3991 C4007 1.349 . S
C3992 C3990 1.327 . S
C3992 C4011 1.429 . S
C3992 H4016 0.950 . S
C3993 C4010 1.574 . S
C3993 C4012 1.368 . S
C3993 H4017 0.949 . S
H3994 C3998 0.949 . S
C3995 C3996 1.349 . S
C3995 C3997 1.327 . S
C3995 H4018 0.950 . S
C3996 C3995 1.349 . S
C3996 C4008 1.349 . S
C3997 C3995 1.327 . S
C3997 C4013 1.429 . S
C3997 H4019 0.950 . S
C3998 H3994 0.949 . S
C3998 C4006 1.574 . S
C3998 C4014 1.368 . S
H3999 C4007 0.950 . S
H4000 C4005 0.950 . S
H4001 C4006 0.949 . S
H4002 C4008 0.950 . S
H4003 C4009 0.950 . S
H4004 C4010 0.949 . S
C4005 H4000 0.950 . S
C4005 C4007 1.327 . S
C4005 C4011 1.429 . S
C4006 C3998 1.574 . S
C4006 H4001 0.949 . S
C4006 C4012 1.368 . S
C4007 C3991 1.349 . S
C4007 H3999 0.950 . S
C4007 C4005 1.327 . S
C4008 C3996 1.349 . S
C4008 H4002 0.950 . S
C4008 C4009 1.327 . S
C4009 H4003 0.950 . S
C4009 C4008 1.327 . S
C4009 C4013 1.429 . S
C4010 C3993 1.574 . S
C4010 H4004 0.949 . S
C4010 C4014 1.368 . S
C4011 C3992 1.429 . S
C4011 C4005 1.429 . S
C4011 C4012 1.523 . S
C4012 C3993 1.368 . S
C4012 C4006 1.368 . S
C4012 C4011 1.523 . S
C4013 C3997 1.429 . S
C4013 C4009 1.429 . S
C4013 C4014 1.523 . S
C4014 C3998 1.368 . S
C4014 C4010 1.368 . S
C4014 C4013 1.523 . S
H4015 C3990 0.950 . S
H4016 C3992 0.950 . S
H4017 C3993 0.949 . S
H4018 C3995 0.950 . S
H4019 C3997 0.950 . S
C4020 C4021 1.349 . S
C4020 C4022 1.327 . S
C4020 H4045 0.950 . S
C4021 C4020 1.349 . S
C4021 C4037 1.349 . S
C4022 C4020 1.327 . S
C4022 C4041 1.429 . S
C4022 H4046 0.950 . S
C4023 C4040 1.574 . S
C4023 C4042 1.368 . S
C4023 H4047 0.949 . S
H4024 C4028 0.949 . S
C4025 C4026 1.349 . S
C4025 C4027 1.327 . S
C4025 H4048 0.950 . S
C4026 C4025 1.349 . S
C4026 C4038 1.349 . S
C4027 C4025 1.327 . S
C4027 C4043 1.429 . S
C4027 H4049 0.950 . S
C4028 H4024 0.949 . S
C4028 C4036 1.574 . S
C4028 C4044 1.368 . S
H4029 C4037 0.950 . S
H4030 C4035 0.950 . S
H4031 C4036 0.949 . S
H4032 C4038 0.950 . S
H4033 C4039 0.950 . S
H4034 C4040 0.949 . S
C4035 H4030 0.950 . S
C4035 C4037 1.327 . S
C4035 C4041 1.429 . S
C4036 C4028 1.574 . S
C4036 H4031 0.949 . S
C4036 C4042 1.368 . S
C4037 C4021 1.349 . S
C4037 H4029 0.950 . S
C4037 C4035 1.327 . S
C4038 C4026 1.349 . S
C4038 H4032 0.950 . S
C4038 C4039 1.327 . S
C4039 H4033 0.950 . S
C4039 C4038 1.327 . S
C4039 C4043 1.429 . S
C4040 C4023 1.574 . S
C4040 H4034 0.949 . S
C4040 C4044 1.368 . S
C4041 C4022 1.429 . S
C4041 C4035 1.429 . S
C4041 C4042 1.523 . S
C4042 C4023 1.368 . S
C4042 C4036 1.368 . S
C4042 C4041 1.523 . S
C4043 C4027 1.429 . S
C4043 C4039 1.429 . S
C4043 C4044 1.523 . S
C4044 C4028 1.368 . S
C4044 C4040 1.368 . S
C4044 C4043 1.523 . S
H4045 C4020 0.950 . S
H4046 C4022 0.950 . S
H4047 C4023 0.949 . S
H4048 C4025 0.950 . S
H4049 C4027 0.950 . S
C4050 C4051 1.349 . S
C4050 C4052 1.327 . S
C4050 H4075 0.950 . S
C4051 C4050 1.349 . S
C4051 C4067 1.349 1_655 S
C4052 C4050 1.327 . S
C4052 C4071 1.429 . S
C4052 H4076 0.950 . S
C4053 C4070 1.574 . S
C4053 C4072 1.368 . S
C4053 H4077 0.949 . S
H4054 C4058 0.949 . S
C4055 C4056 1.349 . S
C4055 C4057 1.327 . S
C4055 H4078 0.950 . S
C4056 C4055 1.349 . S
C4056 C4068 1.349 . S
C4057 C4055 1.327 . S
C4057 C4073 1.429 . S
C4057 H4079 0.950 . S
C4058 H4054 0.949 . S
C4058 C4066 1.574 . S
C4058 C4074 1.368 . S
H4059 C4067 0.950 . S
H4060 C4065 0.925 1_455 S
H4061 C4066 0.949 . S
H4062 C4068 0.950 . S
H4063 C4069 0.950 . S
H4064 C4070 0.949 . S
C4065 H4060 0.925 1_655 S
C4065 C4067 1.327 1_655 S
C4065 C4071 1.429 . S
C4066 C4058 1.574 . S
C4066 H4061 0.949 . S
C4066 C4072 1.368 . S
C4067 C4051 1.349 1_455 S
C4067 H4059 0.950 . S
C4067 C4065 1.327 1_455 S
C4068 C4056 1.349 . S
C4068 H4062 0.950 . S
C4068 C4069 1.327 . S
C4069 H4063 0.950 . S
C4069 C4068 1.327 . S
C4069 C4073 1.429 . S
C4070 C4053 1.574 . S
C4070 H4064 0.949 . S
C4070 C4074 1.368 . S
C4071 C4052 1.429 . S
C4071 C4065 1.429 . S
C4071 C4072 1.523 . S
C4072 C4053 1.368 . S
C4072 C4066 1.368 . S
C4072 C4071 1.523 . S
C4073 C4057 1.429 . S
C4073 C4069 1.429 . S
C4073 C4074 1.523 . S
C4074 C4058 1.368 . S
C4074 C4070 1.368 . S
C4074 C4073 1.523 . S
H4075 C4050 0.950 . S
H4076 C4052 0.950 . S
H4077 C4053 0.949 . S
H4078 C4055 0.950 . S
H4079 C4057 0.950 . S
C1926 C1882 1.980 . S
C1921 C15 2.111 . S
C1956 C1762 1.926 . S
C1951 C55 1.678 . S
C1986 C1842 1.768 . S
C1981 C95 1.706 . S
C2016 C1802 2.201 . S
C2011 C135 2.130 . S
C2046 C1522 1.980 . S
C2041 C175 2.110 . S
C2071 C215 2.119 . S
C2076 C1562 2.210 . S
C2106 C1442 1.926 . S
C2101 C255 1.677 . S
C2131 C295 1.711 . S
C2136 C1482 1.762 . S
C2166 C1722 1.980 . S
C2161 C335 2.110 . S
C2191 C375 2.120 . S
C2196 C1642 2.212 . S
C2221 C415 1.678 . S
C2226 C1602 1.926 . S
C2256 C1682 1.767 . S
C2251 C455 1.705 . S
C2286 C1402 2.070 . S
C2281 C495 2.112 . S
C2311 C535 1.687 . S
C2316 C1282 1.775 . S
C2346 C1362 1.720 . S
C2341 C575 1.698 . S
C2371 C615 2.113 . S
C2376 C1322 2.147 . S
C2406 C1042 2.070 . S
C2401 C655 2.111 . S
C2436 C1082 2.136 . S
C2431 C695 2.123 . S
C2461 C735 1.686 . S
C2466 C962 1.774 . S
C2491 C775 1.703 . S
C2496 C1002 1.714 . S
C2521 C815 2.103 . S
C2526 C1242 2.079 . S
C2551 C855 2.113 . S
C2556 C1162 2.147 . S
C2586 C1122 1.775 . S
C2581 C895 1.687 . S
C2611 C935 1.702 . S
C2616 C1202 1.713 . S
C2646 C981 1.502 . S
C2641 C21 1.636 . S
C2676 C1021 0.904 . S
C2671 C61 0.923 . S
C2701 C101 1.118 . S
C2706 C1061 1.118 . S
C2731 C141 0.561 . S
C2736 C1101 0.569 . S
C2766 C1141 1.502 . S
C2761 C181 1.636 . S
C2791 C221 0.562 . S
C2796 C1181 0.570 . S
C2826 C1221 0.904 . S
C2821 C261 0.923 . S
C2856 C1261 1.118 . S
C2851 C301 1.118 . S
C2886 C1301 1.502 . S
C2881 C341 1.636 . S
C2911 C381 0.561 . S
C2916 C1341 0.569 . S
C2941 C421 0.923 . S
C2946 C1381 0.904 . S
C2971 C461 1.118 . S
C2976 C1421 1.118 . S
C3001 C501 1.580 . S
C3006 C1461 1.587 . S
C3031 C541 0.920 . S
C3036 C1501 0.913 . S
C3061 C581 1.047 . S
C3066 C1541 1.077 . S
C3091 C621 0.620 . S
C3096 C1581 0.554 . S
C3121 C661 1.580 . S
C3126 C1621 1.586 . S
C3156 C1661 0.557 . S
C3151 C701 0.613 . S
C3186 C1701 0.912 . S
C3181 C741 0.920 . S
C3216 C1741 1.077 . S
C3211 C781 1.047 . S
C3246 C1781 1.587 . S
C3241 C821 1.580 . S
C3271 C861 0.620 . S
C3276 C1821 0.554 . S
C3301 C901 0.920 . S
C3306 C1861 0.913 . S
C3331 C941 1.047 . S
C3336 C1901 1.077 . S
C3361 C2 2.123 . S
C3366 C1295 2.083 . S
C3396 C1415 2.077 . S
C3391 C42 2.000 . S
C3421 C82 1.408 . S
C3426 C1335 1.377 . S
C3456 C1375 2.270 . S
C3451 C122 2.237 . S
C3481 C162 2.122 . S
C3486 C975 2.082 . S
C3511 C202 2.237 . S
C3516 C1015 2.270 . S
C3541 C242 2.009 . S
C3546 C1055 2.066 . S
C3571 C282 1.408 . S
C3576 C1095 1.377 . S
C3606 C1135 2.083 . S
C3601 C322 2.123 . S
C3636 C1215 2.270 . S
C3631 C362 2.238 . S
C3661 C402 2.010 . S
C3666 C1255 2.067 . S
C3691 C442 1.407 . S
C3696 C1175 1.376 . S
C3726 C1775 2.091 . S
C3721 C482 2.119 . S
C3756 C1895 2.065 . S
C3751 C522 2.074 . S
C3781 C562 1.336 . S
C3786 C1815 1.377 . S
C3816 C1855 2.266 . S
C3811 C602 2.126 . S
C3841 C642 2.118 . S
C3846 C1455 2.091 . S
C3871 C682 2.126 . S
C3876 C1495 2.266 . S
C3901 C722 2.083 . S
C3906 C1535 2.055 . S
C3936 C1575 1.390 . S
C3931 C762 1.326 . S
C3966 C1615 2.091 . S
C3961 C802 2.119 . S
C3996 C1695 2.266 . S
C3991 C842 2.127 . S
C4021 C882 2.084 . S
C4026 C1735 2.055 . S
C4056 C1655 1.389 . S
C4051 C922 1.325 . S
