# Generated by pormake.
# Topology eea, (3,6)-cn, num edge types: 1
# Building blocks:
#     Node 0, Type 0, BuildingBlock: OLANEW_clean_sbu_2, # of connection points: 3
#     Node 1, Type 0, BuildingBlock: OLANEW_clean_sbu_2, # of connection points: 3
#     Node 2, Type 0, BuildingBlock: OLANEW_clean_sbu_2, # of connection points: 3
#     Node 3, Type 0, BuildingBlock: OLANEW_clean_sbu_2, # of connection points: 3
#     Node 4, Type 0, BuildingBlock: OLANEW_clean_sbu_2, # of connection points: 3
#     Node 5, Type 0, BuildingBlock: OLANEW_clean_sbu_2, # of connection points: 3
#     Node 6, Type 0, BuildingBlock: OLANEW_clean_sbu_2, # of connection points: 3
#     Node 7, Type 0, BuildingBlock: OLANEW_clean_sbu_2, # of connection points: 3
#     Node 8, Type 0, BuildingBlock: OLANEW_clean_sbu_2, # of connection points: 3
#     Node 9, Type 0, BuildingBlock: OLANEW_clean_sbu_2, # of connection points: 3
#     Node 10, Type 0, BuildingBlock: OLANEW_clean_sbu_2, # of connection points: 3
#     Node 11, Type 0, BuildingBlock: OLANEW_clean_sbu_2, # of connection points: 3
#     Node 12, Type 0, BuildingBlock: OLANEW_clean_sbu_2, # of connection points: 3
#     Node 13, Type 0, BuildingBlock: OLANEW_clean_sbu_2, # of connection points: 3
#     Node 14, Type 0, BuildingBlock: OLANEW_clean_sbu_2, # of connection points: 3
#     Node 15, Type 0, BuildingBlock: OLANEW_clean_sbu_2, # of connection points: 3
#     Node 16, Type 0, BuildingBlock: OLANEW_clean_sbu_2, # of connection points: 3
#     Node 17, Type 0, BuildingBlock: OLANEW_clean_sbu_2, # of connection points: 3
#     Node 18, Type 1, BuildingBlock: KUMBOL_clean_sbu_0, # of connection points: 6
#     Node 19, Type 1, BuildingBlock: KUMBOL_clean_sbu_0, # of connection points: 6
#     Node 20, Type 1, BuildingBlock: KUMBOL_clean_sbu_0, # of connection points: 6
#     Node 21, Type 1, BuildingBlock: KUMBOL_clean_sbu_0, # of connection points: 6
#     Node 22, Type 1, BuildingBlock: KUMBOL_clean_sbu_0, # of connection points: 6
#     Node 23, Type 1, BuildingBlock: KUMBOL_clean_sbu_0, # of connection points: 6
#     Node 24, Type 1, BuildingBlock: KUMBOL_clean_sbu_0, # of connection points: 6
#     Node 25, Type 1, BuildingBlock: KUMBOL_clean_sbu_0, # of connection points: 6
#     Node 26, Type 1, BuildingBlock: KUMBOL_clean_sbu_0, # of connection points: 6
#     Edge 27, Type (0, 1), BuildingBlock: OJICUG_clean_linker_0, # of connection points: 2
#     Edge 28, Type (0, 1), BuildingBlock: OJICUG_clean_linker_0, # of connection points: 2
#     Edge 29, Type (0, 1), BuildingBlock: OJICUG_clean_linker_0, # of connection points: 2
#     Edge 30, Type (0, 1), BuildingBlock: OJICUG_clean_linker_0, # of connection points: 2
#     Edge 31, Type (0, 1), BuildingBlock: OJICUG_clean_linker_0, # of connection points: 2
#     Edge 32, Type (0, 1), BuildingBlock: OJICUG_clean_linker_0, # of connection points: 2
#     Edge 33, Type (0, 1), BuildingBlock: OJICUG_clean_linker_0, # of connection points: 2
#     Edge 34, Type (0, 1), BuildingBlock: OJICUG_clean_linker_0, # of connection points: 2
#     Edge 35, Type (0, 1), BuildingBlock: OJICUG_clean_linker_0, # of connection points: 2
#     Edge 36, Type (0, 1), BuildingBlock: OJICUG_clean_linker_0, # of connection points: 2
#     Edge 37, Type (0, 1), BuildingBlock: OJICUG_clean_linker_0, # of connection points: 2
#     Edge 38, Type (0, 1), BuildingBlock: OJICUG_clean_linker_0, # of connection points: 2
#     Edge 39, Type (0, 1), BuildingBlock: OJICUG_clean_linker_0, # of connection points: 2
#     Edge 40, Type (0, 1), BuildingBlock: OJICUG_clean_linker_0, # of connection points: 2
#     Edge 41, Type (0, 1), BuildingBlock: OJICUG_clean_linker_0, # of connection points: 2
#     Edge 42, Type (0, 1), BuildingBlock: OJICUG_clean_linker_0, # of connection points: 2
#     Edge 43, Type (0, 1), BuildingBlock: OJICUG_clean_linker_0, # of connection points: 2
#     Edge 44, Type (0, 1), BuildingBlock: OJICUG_clean_linker_0, # of connection points: 2
#     Edge 45, Type (0, 1), BuildingBlock: OJICUG_clean_linker_0, # of connection points: 2
#     Edge 46, Type (0, 1), BuildingBlock: OJICUG_clean_linker_0, # of connection points: 2
#     Edge 47, Type (0, 1), BuildingBlock: OJICUG_clean_linker_0, # of connection points: 2
#     Edge 48, Type (0, 1), BuildingBlock: OJICUG_clean_linker_0, # of connection points: 2
#     Edge 49, Type (0, 1), BuildingBlock: OJICUG_clean_linker_0, # of connection points: 2
#     Edge 50, Type (0, 1), BuildingBlock: OJICUG_clean_linker_0, # of connection points: 2
#     Edge 51, Type (0, 1), BuildingBlock: OJICUG_clean_linker_0, # of connection points: 2
#     Edge 52, Type (0, 1), BuildingBlock: OJICUG_clean_linker_0, # of connection points: 2
#     Edge 53, Type (0, 1), BuildingBlock: OJICUG_clean_linker_0, # of connection points: 2
#     Edge 54, Type (0, 1), BuildingBlock: OJICUG_clean_linker_0, # of connection points: 2
#     Edge 55, Type (0, 1), BuildingBlock: OJICUG_clean_linker_0, # of connection points: 2
#     Edge 56, Type (0, 1), BuildingBlock: OJICUG_clean_linker_0, # of connection points: 2
#     Edge 57, Type (0, 1), BuildingBlock: OJICUG_clean_linker_0, # of connection points: 2
#     Edge 58, Type (0, 1), BuildingBlock: OJICUG_clean_linker_0, # of connection points: 2
#     Edge 59, Type (0, 1), BuildingBlock: OJICUG_clean_linker_0, # of connection points: 2
#     Edge 60, Type (0, 1), BuildingBlock: OJICUG_clean_linker_0, # of connection points: 2
#     Edge 61, Type (0, 1), BuildingBlock: OJICUG_clean_linker_0, # of connection points: 2
#     Edge 62, Type (0, 1), BuildingBlock: OJICUG_clean_linker_0, # of connection points: 2
#     Edge 63, Type (0, 1), BuildingBlock: OJICUG_clean_linker_0, # of connection points: 2
#     Edge 64, Type (0, 1), BuildingBlock: OJICUG_clean_linker_0, # of connection points: 2
#     Edge 65, Type (0, 1), BuildingBlock: OJICUG_clean_linker_0, # of connection points: 2
#     Edge 66, Type (0, 1), BuildingBlock: OJICUG_clean_linker_0, # of connection points: 2
#     Edge 67, Type (0, 1), BuildingBlock: OJICUG_clean_linker_0, # of connection points: 2
#     Edge 68, Type (0, 1), BuildingBlock: OJICUG_clean_linker_0, # of connection points: 2
#     Edge 69, Type (0, 1), BuildingBlock: OJICUG_clean_linker_0, # of connection points: 2
#     Edge 70, Type (0, 1), BuildingBlock: OJICUG_clean_linker_0, # of connection points: 2
#     Edge 71, Type (0, 1), BuildingBlock: OJICUG_clean_linker_0, # of connection points: 2
#     Edge 72, Type (0, 1), BuildingBlock: OJICUG_clean_linker_0, # of connection points: 2
#     Edge 73, Type (0, 1), BuildingBlock: OJICUG_clean_linker_0, # of connection points: 2
#     Edge 74, Type (0, 1), BuildingBlock: OJICUG_clean_linker_0, # of connection points: 2
#     Edge 75, Type (0, 1), BuildingBlock: OJICUG_clean_linker_0, # of connection points: 2
#     Edge 76, Type (0, 1), BuildingBlock: OJICUG_clean_linker_0, # of connection points: 2
#     Edge 77, Type (0, 1), BuildingBlock: OJICUG_clean_linker_0, # of connection points: 2
#     Edge 78, Type (0, 1), BuildingBlock: OJICUG_clean_linker_0, # of connection points: 2
#     Edge 79, Type (0, 1), BuildingBlock: OJICUG_clean_linker_0, # of connection points: 2
#     Edge 80, Type (0, 1), BuildingBlock: OJICUG_clean_linker_0, # of connection points: 2
# Relax obj value: 0.012
# Max RMSD: 0.176
# Mean RMSD: 0.120
data_MOF--net-eea--node1-OLANEW_clean_sbu_2--node2-KUMBOL_clean_sbu_0--edge1-OJICUG_clean_linker_0
_symmetry_space_group_name_H-M    P1
_symmetry_Int_Tables_number       1
_symmetry_cell_setting            triclinic
loop_
_symmetry_equiv_pos_as_xyz
'x, y, z'
_cell_length_a     44.682584
_cell_length_b     45.552105
_cell_length_c     53.6096
_cell_angle_alpha  94.97834
_cell_angle_beta   89.930343
_cell_angle_gamma 120.71038
loop_
_atom_site_label
_atom_site_type_symbol
_atom_site_fract_x
_atom_site_fract_y
_atom_site_fract_z
_atom_type_partial_charge
O0 O 0.22334 0.12759 0.43729 0.0
Cd1 Cd 0.23063 0.13729 0.39511 0.0
O2 O 0.25947 0.10776 0.43598 0.0
Cd3 Cd 0.27307 0.10566 0.39696 0.0
O4 O 0.23382 0.05757 0.37766 0.0
C5 C 0.22797 0.03331 0.39059 0.0
O6 O 0.24829 0.04012 0.41059 0.0
C7 C 0.23916 0.1153 0.44784 0.0
C8 C 0.20419 0.17808 0.38448 0.0
O9 O 0.20056 0.16719 0.40595 0.0
O10 O 0.22004 0.16978 0.36819 0.0
O11 O 0.9237 0.1312 0.43958 0.0
Cd12 Cd 0.94086 0.10881 0.40396 0.0
O13 O 0.90896 0.0783 0.44148 0.0
Cd14 Cd 0.9091 0.03366 0.42641 0.0
O15 O 0.87301 0.01378 0.39447 0.0
C16 C 0.84469 0.01168 0.40069 0.0
O17 O 0.84356 0.02485 0.42323 0.0
C18 C 0.90854 0.10441 0.45069 0.0
C19 C 0.99327 0.16472 0.3849 0.0
O20 O 0.96906 0.16639 0.39622 0.0
O21 O 0.992 0.13604 0.38142 0.0
O22 O 0.90178 0.75121 0.43717 0.0
Cd23 Cd 0.91089 0.74994 0.39326 0.0
O24 O 0.84397 0.72039 0.43371 0.0
Cd25 Cd 0.82785 0.71136 0.39404 0.0
O26 O 0.8165 0.74767 0.37814 0.0
C27 C 0.79869 0.75669 0.39184 0.0
O28 O 0.78572 0.74093 0.41199 0.0
C29 C 0.87241 0.73724 0.44703 0.0
C30 C 0.98071 0.7765 0.38046 0.0
O31 O 0.97368 0.78727 0.40112 0.0
O32 O 0.95518 0.75276 0.36652 0.0
O33 O 0.14616 0.2387 0.59437 0.0
Cd34 Cd 0.15584 0.23978 0.63885 0.0
O35 O 0.11928 0.26849 0.59799 0.0
Cd36 Cd 0.11269 0.27685 0.63774 0.0
O37 O 0.06425 0.24107 0.65427 0.0
C38 C 0.03719 0.2315 0.64037 0.0
O39 O 0.04109 0.24537 0.6192 0.0
C40 C 0.13096 0.25239 0.58463 0.0
C41 C 0.19688 0.21183 0.65245 0.0
O42 O 0.1843 0.20735 0.63015 0.0
O43 O 0.19077 0.23004 0.66868 0.0
O44 O 0.77977 0.86697 0.6016 0.0
Cd45 Cd 0.82384 0.88643 0.6322 0.0
O46 O 0.81896 0.91546 0.58724 0.0
Cd47 Cd 0.85893 0.94552 0.61631 0.0
O48 O 0.84581 0.97339 0.64387 0.0
C49 C 0.82222 0.97721 0.63435 0.0
O50 O 0.80956 0.96309 0.61153 0.0
C51 C 0.78992 0.88755 0.58499 0.0
C52 C 0.81327 0.82691 0.64817 0.0
O53 O 0.78941 0.8268 0.63531 0.0
O54 O 0.84182 0.85517 0.65368 0.0
O55 O 0.08355 0.86361 0.59077 0.0
Cd56 Cd 0.07811 0.85365 0.63339 0.0
O57 O 0.14054 0.88438 0.59359 0.0
Cd58 Cd 0.15476 0.88579 0.63288 0.0
O59 O 0.16406 0.93374 0.65125 0.0
C60 C 0.18407 0.95719 0.63794 0.0
O61 O 0.19821 0.9493 0.61899 0.0
C62 C 0.11287 0.87666 0.581 0.0
C63 C 0.00957 0.81203 0.64759 0.0
O64 O 0.01526 0.82256 0.62584 0.0
O65 O 0.03583 0.82038 0.66207 0.0
O66 O 0.89093 0.46173 0.77087 0.0
Cd67 Cd 0.89748 0.47055 0.72858 0.0
O68 O 0.92598 0.44068 0.76989 0.0
Cd69 Cd 0.93885 0.43861 0.73105 0.0
O70 O 0.89945 0.39075 0.71192 0.0
C71 C 0.88998 0.36554 0.72472 0.0
O72 O 0.90561 0.37082 0.74679 0.0
C73 C 0.90602 0.44882 0.78155 0.0
C74 C 0.87133 0.5117 0.71779 0.0
O75 O 0.86588 0.49946 0.73887 0.0
O76 O 0.88911 0.50476 0.70237 0.0
O77 O 0.59089 0.46506 0.77309 0.0
Cd78 Cd 0.60808 0.44346 0.73726 0.0
O79 O 0.57658 0.41212 0.77482 0.0
Cd80 Cd 0.57775 0.36769 0.7599 0.0
O81 O 0.54053 0.3505 0.72858 0.0
C82 C 0.51168 0.33708 0.73898 0.0
O83 O 0.51191 0.33496 0.76325 0.0
C84 C 0.57553 0.43801 0.78393 0.0
C85 C 0.66062 0.49837 0.71725 0.0
O86 O 0.63597 0.50043 0.72757 0.0
O87 O 0.66008 0.46999 0.71584 0.0
O88 O 0.56802 0.08405 0.77047 0.0
Cd89 Cd 0.57564 0.08114 0.7263 0.0
O90 O 0.51033 0.05308 0.76686 0.0
Cd91 Cd 0.49469 0.04461 0.72721 0.0
O92 O 0.4833 0.08102 0.71153 0.0
C93 C 0.46549 0.09008 0.72518 0.0
O94 O 0.4525 0.0744 0.74537 0.0
C95 C 0.53865 0.06997 0.7803 0.0
C96 C 0.64626 0.10974 0.71517 0.0
O97 O 0.6376 0.11667 0.73653 0.0
O98 O 0.62174 0.08859 0.69933 0.0
O99 O 0.81486 0.5735 0.92717 0.0
Cd100 Cd 0.82351 0.57372 0.97142 0.0
O101 O 0.78736 0.60261 0.93203 0.0
Cd102 Cd 0.78054 0.61394 0.97128 0.0
O103 O 0.73193 0.57711 0.9871 0.0
C104 C 0.70509 0.56836 0.97317 0.0
O105 O 0.7088 0.58489 0.95341 0.0
C106 C 0.79899 0.58692 0.91807 0.0
C107 C 0.8651 0.54582 0.98314 0.0
O108 O 0.84832 0.53769 0.96204 0.0
O109 O 0.86303 0.56773 0.99849 0.0
O110 O 0.4467 0.20151 0.93557 0.0
Cd111 Cd 0.49125 0.22025 0.96587 0.0
O112 O 0.4858 0.24971 0.92087 0.0
Cd113 Cd 0.52643 0.27813 0.94995 0.0
O114 O 0.50879 0.30286 0.97676 0.0
C115 C 0.49582 0.31626 0.96406 0.0
O116 O 0.49875 0.3151 0.93965 0.0
C117 C 0.45665 0.22183 0.91877 0.0
C118 C 0.48122 0.1606 0.98131 0.0
O119 O 0.45832 0.1604 0.96723 0.0
O120 O 0.50873 0.189 0.98855 0.0
O121 O 0.75276 0.18856 0.92388 0.0
Cd122 Cd 0.74782 0.18921 0.96834 0.0
O123 O 0.80784 0.22971 0.92627 0.0
Cd124 Cd 0.82189 0.22042 0.96177 0.0
O125 O 0.83069 0.26686 0.98158 0.0
C126 C 0.84821 0.29298 0.9698 0.0
O127 O 0.861 0.28969 0.94836 0.0
C128 C 0.77917 0.21135 0.9138 0.0
C129 C 0.67841 0.14538 0.98016 0.0
O130 O 0.68602 0.15912 0.95959 0.0
O131 O 0.7035 0.15207 0.99541 0.0
O132 O 0.55845 0.79604 0.10466 0.0
Cd133 Cd 0.56423 0.80382 0.06205 0.0
O134 O 0.59358 0.77512 0.10226 0.0
Cd135 Cd 0.60585 0.77316 0.0629 0.0
O136 O 0.56674 0.72449 0.04388 0.0
C137 C 0.5629 0.70104 0.05701 0.0
O138 O 0.58495 0.70928 0.07619 0.0
C139 C 0.57406 0.78318 0.11472 0.0
C140 C 0.53791 0.84468 0.05134 0.0
O141 O 0.53276 0.8326 0.07246 0.0
O142 O 0.55541 0.83765 0.03572 0.0
O143 O 0.24805 0.78649 0.09999 0.0
Cd144 Cd 0.27509 0.77047 0.06887 0.0
O145 O 0.23682 0.7386 0.11546 0.0
Cd146 Cd 0.24759 0.70906 0.08732 0.0
O147 O 0.20668 0.68155 0.05895 0.0
C148 C 0.17849 0.67711 0.06774 0.0
O149 O 0.17906 0.68994 0.09075 0.0
C150 C 0.23625 0.76621 0.11684 0.0
C151 C 0.3244 0.83113 0.0506 0.0
O152 O 0.30112 0.83017 0.06473 0.0
O153 O 0.32393 0.80326 0.04432 0.0
O154 O 0.23537 0.41742 0.10394 0.0
Cd155 Cd 0.2452 0.41804 0.05993 0.0
O156 O 0.17758 0.38671 0.0998 0.0
Cd157 Cd 0.16191 0.37786 0.05988 0.0
O158 O 0.14903 0.41304 0.0436 0.0
C159 C 0.1301 0.41983 0.05784 0.0
O160 O 0.11807 0.40272 0.07755 0.0
C161 C 0.20576 0.40325 0.11348 0.0
C162 C 0.31448 0.44275 0.04651 0.0
O163 O 0.30819 0.45565 0.0665 0.0
O164 O 0.28856 0.41782 0.0336 0.0
O165 O 0.47999 0.90638 0.26124 0.0
Cd166 Cd 0.48916 0.90727 0.30589 0.0
O167 O 0.45267 0.93571 0.26459 0.0
Cd168 Cd 0.44641 0.94425 0.30426 0.0
O169 O 0.39804 0.90794 0.32049 0.0
C170 C 0.37073 0.89858 0.30695 0.0
O171 O 0.37398 0.91324 0.28624 0.0
C172 C 0.46457 0.91973 0.25134 0.0
C173 C 0.53099 0.87982 0.31848 0.0
O174 O 0.51695 0.87456 0.29659 0.0
O175 O 0.52585 0.89853 0.33493 0.0
O176 O 0.10509 0.52558 0.26732 0.0
Cd177 Cd 0.15291 0.54865 0.29789 0.0
O178 O 0.14659 0.57689 0.2626 0.0
Cd179 Cd 0.1934 0.62422 0.27148 0.0
O180 O 0.17753 0.6389 0.30566 0.0
C181 C 0.15174 0.64254 0.30169 0.0
O182 O 0.13545 0.63141 0.27946 0.0
C183 C 0.11898 0.55031 0.254 0.0
C184 C 0.14692 0.49325 0.31754 0.0
O185 O 0.12243 0.49069 0.30382 0.0
O186 O 0.17501 0.52218 0.3219 0.0
O187 O 0.41713 0.53021 0.25775 0.0
Cd188 Cd 0.41398 0.52116 0.30071 0.0
O189 O 0.47409 0.55103 0.26017 0.0
Cd190 Cd 0.48958 0.55285 0.29916 0.0
O191 O 0.49803 0.60038 0.31763 0.0
C192 C 0.5175 0.62413 0.30435 0.0
O193 O 0.53172 0.61683 0.28516 0.0
C194 C 0.44627 0.54319 0.24775 0.0
C195 C 0.34497 0.47924 0.31371 0.0
O196 O 0.35237 0.49111 0.29246 0.0
O197 O 0.37017 0.48708 0.32919 0.0
Gd198 Gd 0.50681 0.01521 0.05017 0.0
Gd199 Gd 0.47827 0.97304 0.98145 0.0
C200 C 0.36329 0.8972 0.95473 0.0
C201 C 0.36416 0.84579 0.93956 0.0
C202 C 0.41763 0.89765 0.95643 0.0
C203 C 0.39961 0.91478 0.96065 0.0
C204 C 0.40005 0.86297 0.94571 0.0
C205 C 0.34584 0.86288 0.94406 0.0
C206 C 0.34512 0.91405 0.96079 0.0
C207 C 0.36274 0.94706 0.97311 0.0
N208 N 0.41665 0.94699 0.97321 0.0
C209 C 0.39834 0.963 0.97945 0.0
H210 H 0.41012 0.98777 0.98994 0.0
C211 C 0.47081 0.8989 0.9582 0.0
N212 N 0.4518 0.91417 0.96433 0.0
C213 C 0.45468 0.8647 0.94764 0.0
C214 C 0.41896 0.8464 0.94177 0.0
H215 H 0.49883 0.91354 0.96082 0.0
H216 H 0.318 0.84912 0.93965 0.0
H217 H 0.57409 0.00079 0.04155 0.0
H218 H 0.31731 0.9015 0.95659 0.0
H219 H 0.34871 0.96008 0.97825 0.0
H220 H 0.3503 0.81923 0.93157 0.0
H221 H 0.48542 0.07356 0.07252 0.0
H222 H 0.66761 0.08774 0.07401 0.0
H223 H 0.63599 0.02875 0.0529 0.0
H224 H 0.63433 0.17003 0.09891 0.0
H225 H 0.47001 0.85274 0.94361 0.0
H226 H 0.40647 0.81992 0.93367 0.0
H227 H 0.66693 0.14039 0.0907 0.0
H228 H 0.51371 0.13441 0.08952 0.0
N229 N 0.56832 0.04214 0.05763 0.0
C230 C 0.63981 0.07519 0.06979 0.0
C231 C 0.62206 0.04194 0.05779 0.0
C232 C 0.62173 0.09221 0.07562 0.0
C233 C 0.58543 0.07455 0.06977 0.0
C234 C 0.5864 0.02591 0.05159 0.0
N235 N 0.53287 0.07424 0.06701 0.0
C236 C 0.56732 0.09147 0.07397 0.0
C237 C 0.52938 0.12304 0.08469 0.0
C238 C 0.56532 0.14209 0.08951 0.0
C239 C 0.5135 0.08878 0.07425 0.0
C240 C 0.58468 0.12611 0.08479 0.0
H241 H 0.57761 0.16851 0.0977 0.0
O242 O 0.48067 0.01809 0.0833 0.0
O243 O 0.46801 0.9708 0.02281 0.0
O244 O 0.46918 0.01677 0.9893 0.0
O245 O 0.48945 0.04493 0.03014 0.0
O246 O 0.44863 0.9874 0.05186 0.0
O247 O 0.51026 -0.00796 0.08435 0.0
O248 O 0.50395 0.96972 0.94815 0.0
O249 O 0.51847 0.01767 1.00859 0.0
O250 O 0.51419 0.97012 0.04334 0.0
O251 O 0.49569 0.94282 1.00205 0.0
O252 O 0.53511 0.00411 0.97628 0.0
O253 O 0.47375 -0.00456 0.94743 0.0
C254 C 0.44035 0.96358 0.03374 0.0
C255 C 0.62062 0.14353 0.09077 0.0
C256 C 0.6391 0.12658 0.08623 0.0
C257 C 0.49041 0.00133 0.0963 0.0
C258 C 0.48481 0.0009 0.12382 0.0
C259 C 0.48368 0.02838 0.13719 0.0
C260 C 0.47842 0.97242 0.13663 0.0
C261 C 0.47067 0.97168 0.16222 0.0
C262 C 0.47653 0.02774 0.16256 0.0
C263 C 0.47004 -0.00037 0.17496 0.0
C264 C 0.47488 0.04076 1.00766 0.0
C265 C 0.54517 0.0266 0.99548 0.0
C266 C 0.49385 0.98652 0.93535 0.0
C267 C 0.49859 0.98686 0.90777 0.0
C268 C 0.49853 0.95898 0.89404 0.0
C269 C 0.50517 0.01561 0.89518 0.0
C270 C 0.51062 0.01554 0.86921 0.0
C271 C 0.50269 0.95859 0.86823 0.0
C272 C 0.50795 0.9863 0.85586 0.0
C273 C 0.50874 0.94605 0.02508 0.0
H274 H 0.48833 0.05047 0.12796 0.0
H275 H 0.47899 0.95095 0.12673 0.0
H276 H 0.47599 0.0491 0.17265 0.0
H277 H 0.46486 -0.00015 0.19473 0.0
H278 H 0.49465 0.93712 0.90323 0.0
H279 H 0.50713 0.03806 0.9056 0.0
H280 H 0.50204 0.93681 0.8578 0.0
H281 H 0.5116 0.9856 0.83584 0.0
Gd282 Gd 0.98874 0.48665 0.05286 0.0
Gd283 Gd 0.01761 0.49125 0.98534 0.0
C284 C 0.08063 0.44211 0.9569 0.0
C285 C 0.13441 0.49135 0.94577 0.0
C286 C 0.08812 0.49903 0.96323 0.0
C287 C 0.06731 0.46385 0.9641 0.0
C288 C 0.12151 0.51296 0.95328 0.0
C289 C 0.11418 0.4561 0.9478 0.0
C290 C 0.0608 0.40727 0.96061 0.0
C291 C 0.02878 0.39481 0.97155 0.0
N292 N 0.03584 0.45125 0.97474 0.0
C293 C 0.01658 0.41709 0.97843 0.0
H294 H 0.99242 0.40658 0.98765 0.0
C295 C 0.09371 0.55366 0.96765 0.0
N296 N 0.07571 0.5196 0.97179 0.0
C297 C 0.12665 0.56853 0.95771 0.0
C298 C 0.14088 0.54819 0.95085 0.0
H299 H 0.08226 0.56943 0.97114 0.0
H300 H 0.12484 0.43989 0.94248 0.0
H301 H 0.01947 0.57484 0.05996 0.0
H302 H 0.07042 0.39005 0.95579 0.0
H303 H 0.01364 0.3681 0.97507 0.0
H304 H 0.16012 0.50171 0.93843 0.0
H305 H 0.92308 0.40807 0.06536 0.0
H306 H 0.93716 0.5887 0.08498 0.0
H307 H 0.99741 0.61235 0.07175 0.0
H308 H 0.8469 0.47664 0.10024 0.0
H309 H 0.14073 0.59554 0.95491 0.0
H310 H 0.1664 0.55974 0.94308 0.0
H311 H 0.88178 0.53831 0.09592 0.0
H312 H 0.86621 0.38299 0.08385 0.0
N313 N 0.97142 0.52762 0.06411 0.0
C314 C 0.94658 0.57148 0.07951 0.0
C315 C 0.9806 0.5849 0.07215 0.0
C316 C 0.92549 0.53607 0.08051 0.0
C317 C 0.93849 0.51433 0.0724 0.0
C318 C 0.99297 0.56277 0.0652 0.0
N319 N 0.93008 0.45826 0.06506 0.0
C320 C 0.91769 0.47899 0.07336 0.0
C321 C 0.87999 0.40982 0.08055 0.0
C322 C 0.86614 0.43034 0.08778 0.0
C323 C 0.91212 0.42423 0.06948 0.0
C324 C 0.88491 0.46528 0.08431 0.0
H325 H 0.84126 0.41912 0.09649 0.0
O326 O 0.98333 0.45723 0.08415 0.0
O327 O 0.02442 0.47999 0.02506 0.0
O328 O 0.96839 0.44118 0.98856 0.0
O329 O 0.95214 0.43781 0.03046 0.0
O330 O 0.02409 0.4671 0.0607 0.0
O331 O 0.01377 0.51407 0.08919 0.0
O332 O 0.01963 0.51848 0.95399 0.0
O333 O 0.98301 0.4978 0.01354 0.0
O334 O 0.03601 0.53667 0.04835 0.0
O335 O 0.0531 0.54221 1.00678 0.0
O336 O 0.98405 0.51358 0.97877 0.0
O337 O 0.98892 0.46201 0.94984 0.0
C338 C 0.04007 0.47101 0.04031 0.0
C339 C 0.87214 0.48688 0.09214 0.0
C340 C 0.89206 0.52202 0.08978 0.0
C341 C 1.00181 0.48529 0.09934 0.0
C342 C 0.00807 0.48353 0.12599 0.0
C343 C 0.98128 0.45773 0.13862 0.0
C344 C 0.03974 0.50793 0.13923 0.0
C345 C 0.04375 0.50618 0.16498 0.0
C346 C 0.98503 0.457 0.16427 0.0
C347 C 0.01567 0.48143 0.17744 0.0
C348 C 0.94782 0.42593 1.00676 0.0
C349 C 0.96869 0.50912 0.99948 0.0
C350 C 0.99812 0.4905 0.93979 0.0
C351 C 0.9966 0.49207 0.91246 0.0
C352 C 0.02539 0.51733 0.90081 0.0
C353 C 0.9651 0.47028 0.89822 0.0
C354 C 0.96346 0.47295 0.87243 0.0
C355 C 0.02402 0.5187 0.87499 0.0
C356 C 0.99368 0.49584 0.86077 0.0
C357 C 0.05612 0.55379 0.03056 0.0
H358 H 0.95699 0.43859 0.12875 0.0
H359 H 0.06114 0.52717 0.12952 0.0
H360 H 0.96409 0.43737 0.17397 0.0
H361 H 0.01807 0.48001 0.19737 0.0
H362 H 0.04923 0.53557 0.91157 0.0
H363 H 0.94182 0.45269 0.9073 0.0
H364 H 0.04645 0.53773 0.86601 0.0
H365 H 0.99296 0.49785 0.84078 0.0
Gd366 Gd 0.49681 0.50215 0.9785 0.0
Gd367 Gd 0.5217 0.49941 0.04661 0.0
C368 C 0.63604 0.54939 0.07433 0.0
C369 C 0.63887 0.5006 0.08631 0.0
C370 C 0.58465 0.49231 0.06829 0.0
C371 C 0.6004 0.52738 0.06669 0.0
C372 C 0.60353 0.47877 0.07892 0.0
C373 C 0.65514 0.53573 0.08381 0.0
C374 C 0.65167 0.58456 0.07203 0.0
C375 C 0.63178 0.5973 0.06294 0.0
N376 N 0.58128 0.54007 0.05742 0.0
C377 C 0.59645 0.57483 0.05612 0.0
H378 H 0.58265 0.58598 0.04879 0.0
C379 C 0.53277 0.43853 0.06705 0.0
N380 N 0.55043 0.47174 0.06098 0.0
C381 C 0.55035 0.42384 0.07712 0.0
C382 C 0.58608 0.44393 0.0827 0.0
H383 H 0.5047 0.42327 0.06454 0.0
H384 H 0.68244 0.55225 0.08963 0.0
H385 H 0.43362 0.41658 0.98066 0.0
H386 H 0.67903 0.60206 0.07723 0.0
H387 H 0.6437 0.62444 0.06096 0.0
H388 H 0.65375 0.49062 0.0943 0.0
H389 H 0.51322 0.57841 0.96105 0.0
H390 H 0.3385 0.3999 0.94973 0.0
H391 H 0.37326 0.37795 0.9675 0.0
H392 H 0.36501 0.51022 0.92926 0.0
H393 H 0.53615 0.39728 0.08113 0.0
H394 H 0.59963 0.43269 0.09086 0.0
H395 H 0.3358 0.44908 0.93549 0.0
H396 H 0.48206 0.60382 0.9433 0.0
N397 N 0.43598 0.46214 0.97043 0.0
C398 C 0.36568 0.41752 0.95542 0.0
C399 C 0.38524 0.40503 0.96527 0.0
C400 C 0.38148 0.45253 0.95274 0.0
C401 C 0.417 0.47464 0.96073 0.0
C402 C 0.42034 0.42759 0.97248 0.0
N403 N 0.46757 0.53004 0.96502 0.0
C404 C 0.43322 0.50944 0.95788 0.0
C405 C 0.46777 0.57745 0.94774 0.0
C406 C 0.43224 0.55711 0.9416 0.0
C407 C 0.48518 0.56316 0.95864 0.0
C408 C 0.41467 0.52254 0.9461 0.0
H409 H 0.41892 0.56797 0.93258 0.0
O410 O 0.52226 0.52956 0.94699 0.0
O411 O 0.53907 0.50993 1.00682 0.0
O412 O 0.52463 0.54919 0.04166 0.0
O413 O 0.50971 0.55203 1.00023 0.0
O414 O 0.55297 0.52207 0.9711 0.0
O415 O 0.49218 0.47271 0.94243 0.0
O416 O 0.49352 0.47202 0.07767 0.0
O417 O 0.4814 0.49157 0.01749 0.0
O418 O 0.49247 0.4517 0.98352 0.0
O419 O 0.50564 0.44814 0.02535 0.0
O420 O 0.46493 0.48014 0.05288 0.0
O421 O 0.52314 0.52851 0.08191 0.0
C422 C 0.56429 0.51871 0.99197 0.0
C423 C 0.37951 0.50058 0.9383 0.0
C424 C 0.36292 0.46575 0.94177 0.0
C425 C 0.51144 0.50131 0.93215 0.0
C426 C 0.51993 0.50332 0.90559 0.0
C427 C 0.52568 0.53251 0.89445 0.0
C428 C 0.5257 0.4788 0.89193 0.0
C429 C 0.53942 0.4854 0.86802 0.0
C430 C 0.54243 0.54035 0.87209 0.0
C431 C 0.55151 0.51811 0.85993 0.0
C432 C 0.51863 0.56441 0.02399 0.0
C433 C 0.45546 0.48272 0.03106 0.0
C434 C 0.50175 0.50021 0.09186 0.0
C435 C 0.49878 0.49924 0.11925 0.0
C436 C 0.50189 0.47482 0.13161 0.0
C437 C 0.48953 0.52114 0.13286 0.0
C438 C 0.48511 0.51945 0.1587 0.0
C439 C 0.49904 0.47437 0.15752 0.0
C440 C 0.49189 0.49733 0.17109 0.0
C441 C 0.49547 0.43523 1.00172 0.0
H442 H 0.51938 0.55054 0.90392 0.0
H443 H 0.51864 0.45482 0.89936 0.0
H444 H 0.54856 0.56379 0.86422 0.0
H445 H 0.56427 0.52474 0.84236 0.0
H446 H 0.50714 0.45654 0.12131 0.0
H447 H 0.48412 0.53803 0.12322 0.0
H448 H 0.50201 0.45596 0.16707 0.0
H449 H 0.48883 0.49591 0.19111 0.0
Gd450 Gd 0.17279 0.34845 0.38342 0.0
Gd451 Gd 0.14499 0.3063 0.31452 0.0
C452 C 0.03046 0.23071 0.28766 0.0
C453 C 0.03109 0.1789 0.27355 0.0
C454 C 0.08432 0.23046 0.29121 0.0
C455 C 0.0667 0.2481 0.29412 0.0
C456 C 0.06684 0.19592 0.28015 0.0
C457 C 0.01289 0.19617 0.27751 0.0
C458 C 0.01248 0.24805 0.29256 0.0
C459 C 0.03043 0.28194 0.30323 0.0
N460 N 0.08409 0.2813 0.30492 0.0
C461 C 0.06626 0.29841 0.30893 0.0
H462 H 0.07823 0.32418 0.31766 0.0
C463 C 0.13772 0.23203 0.29218 0.0
N464 N 0.11862 0.24714 0.29867 0.0
C465 C 0.12164 0.19796 0.28134 0.0
C466 C 0.08589 0.17958 0.27569 0.0
H467 H 0.16573 0.24628 0.29546 0.0
H468 H 0.98516 0.18258 0.2727 0.0
H469 H 0.24006 0.33409 0.37448 0.0
H470 H 0.98464 0.23538 0.28845 0.0
H471 H 0.01659 0.29542 0.30733 0.0
H472 H 0.0173 0.15242 0.26538 0.0
H473 H 0.15211 0.40984 0.40041 0.0
H474 H 0.33343 0.42089 0.40733 0.0
H475 H 0.30197 0.36204 0.38599 0.0
H476 H 0.2999 0.50278 0.4328 0.0
H477 H 0.137 0.18609 0.2771 0.0
H478 H 0.07348 0.15327 0.26724 0.0
H479 H 0.33254 0.47327 0.42441 0.0
H480 H 0.18057 0.46965 0.41907 0.0
N481 N 0.23423 0.37535 0.39066 0.0
C482 C 0.30565 0.40835 0.40303 0.0
C483 C 0.28799 0.37518 0.39089 0.0
C484 C 0.28748 0.42528 0.40891 0.0
C485 C 0.25121 0.40769 0.40287 0.0
C486 C 0.25235 0.35915 0.38461 0.0
N487 N 0.19893 0.40805 0.3989 0.0
C488 C 0.23308 0.42471 0.40689 0.0
C489 C 0.19589 0.45761 0.41536 0.0
C490 C 0.23134 0.47557 0.42212 0.0
C491 C 0.17999 0.42373 0.40418 0.0
C492 C 0.25041 0.4592 0.41801 0.0
H493 H 0.2436 0.5018 0.43072 0.0
O494 O 0.1483 0.35333 0.41693 0.0
O495 O 0.13396 0.30507 0.35564 0.0
O496 O 0.13654 0.35018 0.3222 0.0
O497 O 0.15468 0.3772 0.36344 0.0
O498 O 0.11431 0.31894 0.38567 0.0
O499 O 0.1761 0.32533 0.41761 0.0
O500 O 0.17071 0.30277 0.28131 0.0
O501 O 0.18533 0.35002 0.34209 0.0
O502 O 0.18001 0.30331 0.37679 0.0
O503 O 0.16182 0.27598 0.33547 0.0
O504 O 0.20126 0.33828 0.30872 0.0
O505 O 0.14049 0.32856 0.28049 0.0
C506 C 0.10596 0.29667 0.36642 0.0
C507 C 0.28623 0.47637 0.42446 0.0
C508 C 0.30475 0.4595 0.4198 0.0
C509 C 0.15776 0.33626 0.42989 0.0
C510 C 0.15086 0.3344 0.45717 0.0
C511 C 0.14939 0.36156 0.47073 0.0
C512 C 0.14481 0.30585 0.46978 0.0
C513 C 0.13673 0.30468 0.49534 0.0
C514 C 0.1418 0.36041 0.496 0.0
C515 C 0.13533 0.33215 0.50816 0.0
C516 C 0.14105 0.37323 0.34083 0.0
C517 C 0.21155 0.36008 0.32831 0.0
C518 C 0.16059 0.31957 0.26848 0.0
C519 C 0.16546 0.32009 0.24097 0.0
C520 C 0.16527 0.29221 0.22718 0.0
C521 C 0.17195 0.34888 0.22846 0.0
C522 C 0.17714 0.34879 0.20245 0.0
C523 C 0.16917 0.29181 0.20135 0.0
C524 C 0.1743 0.31951 0.18903 0.0
C525 C 0.17453 0.27917 0.35859 0.0
H526 H 0.1542 0.38387 0.46174 0.0
H527 H 0.14619 0.28485 0.45985 0.0
H528 H 0.14098 0.38155 0.50621 0.0
H529 H 0.12991 0.33203 0.5279 0.0
H530 H 0.16141 0.27033 0.23633 0.0
H531 H 0.17402 0.37134 0.23894 0.0
H532 H 0.16842 0.27001 0.19087 0.0
H533 H 0.17779 0.3188 0.169 0.0
Gd534 Gd 0.65543 0.81976 0.38667 0.0
Gd535 Gd 0.6849 0.8239 0.31938 0.0
C536 C 0.74924 0.77558 0.29307 0.0
C537 C 0.80214 0.82477 0.2808 0.0
C538 C 0.75654 0.83246 0.29961 0.0
C539 C 0.73622 0.79725 0.30112 0.0
C540 C 0.7892 0.84627 0.2885 0.0
C541 C 0.7825 0.78966 0.28348 0.0
C542 C 0.72803 0.74014 0.29398 0.0
C543 C 0.69385 0.7267 0.30108 0.0
N544 N 0.70328 0.78392 0.30923 0.0
C545 C 0.68154 0.74889 0.308 0.0
H546 H 0.65505 0.73723 0.31335 0.0
C547 C 0.76072 0.88656 0.30212 0.0
N548 N 0.74346 0.8528 0.30716 0.0
C549 C 0.79304 0.90126 0.29129 0.0
C550 C 0.80748 0.88109 0.28461 0.0
H551 H 0.74902 0.90218 0.30546 0.0
H552 H 0.79278 0.77341 0.27725 0.0
H553 H 0.6787 0.90451 0.38144 0.0
H554 H 0.73739 0.72289 0.28845 0.0
H555 H 0.67693 0.69925 0.30133 0.0
H556 H 0.8272 0.83501 0.27243 0.0
H557 H 0.59183 0.74267 0.40253 0.0
H558 H 0.60206 0.92126 0.41493 0.0
H559 H 0.65801 0.94287 0.39463 0.0
H560 H 0.51373 0.81036 0.43429 0.0
H561 H 0.80637 0.92793 0.28757 0.0
H562 H 0.83234 0.89242 0.27587 0.0
H563 H 0.54846 0.87185 0.42919 0.0
H564 H 0.53318 0.71655 0.41872 0.0
N565 N 0.63668 0.86006 0.39581 0.0
C566 C 0.61165 0.90404 0.40999 0.0
C567 C 0.64314 0.91627 0.39846 0.0
C568 C 0.59233 0.86946 0.41425 0.0
C569 C 0.60587 0.84785 0.40734 0.0
C570 C 0.65509 0.89394 0.39126 0.0
N571 N 0.59772 0.79197 0.40079 0.0
C572 C 0.58551 0.81275 0.40929 0.0
C573 C 0.54714 0.74345 0.4156 0.0
C574 C 0.5329 0.76383 0.42218 0.0
C575 C 0.58003 0.7582 0.40561 0.0
C576 C 0.55225 0.79898 0.41947 0.0
H577 H 0.50741 0.7524 0.42998 0.0
O578 O 0.65167 0.79115 0.41775 0.0
O579 O 0.69012 0.81237 0.35871 0.0
O580 O 0.63603 0.7745 0.3233 0.0
O581 O 0.61762 0.76986 0.36457 0.0
O582 O 0.69377 0.80294 0.39478 0.0
O583 O 0.68053 0.84808 0.42307 0.0
O584 O 0.68817 0.851 0.2877 0.0
O585 O 0.64897 0.82994 0.34701 0.0
O586 O 0.70262 0.87048 0.38271 0.0
O587 O 0.72011 0.87465 0.3411 0.0
O588 O 0.65361 0.84753 0.31269 0.0
O589 O 0.6569 0.7945 0.28339 0.0
C590 C 0.70748 0.80517 0.37353 0.0
C591 C 0.53929 0.82059 0.4267 0.0
C592 C 0.55918 0.85566 0.424 0.0
C593 C 0.66935 0.81914 0.43302 0.0
C594 C 0.67478 0.81691 0.45962 0.0
C595 C 0.64788 0.79078 0.47207 0.0
C596 C 0.70629 0.84088 0.47283 0.0
C597 C 0.71022 0.8385 0.49831 0.0
C598 C 0.65157 0.78954 0.49768 0.0
C599 C 0.68233 0.81365 0.51084 0.0
C600 C 0.61412 0.75847 0.34062 0.0
C601 C 0.63606 0.84214 0.33239 0.0
C602 C 0.66774 0.82311 0.27311 0.0
C603 C 0.66339 0.82574 0.24615 0.0
C604 C 0.69126 0.8519 0.23438 0.0
C605 C 0.6317 0.80337 0.23215 0.0
C606 C 0.62902 0.80693 0.20654 0.0
C607 C 0.68882 0.85431 0.20884 0.0
C608 C 0.65827 0.83146 0.19489 0.0
C609 C 0.72294 0.88685 0.36469 0.0
H610 H 0.62359 0.77187 0.46209 0.0
H611 H 0.7277 0.86039 0.46328 0.0
H612 H 0.63061 0.76981 0.50732 0.0
H613 H 0.68494 0.81207 0.53073 0.0
H614 H 0.71543 0.87003 0.24485 0.0
H615 H 0.60932 0.78427 0.24119 0.0
H616 H 0.71066 0.87405 0.19984 0.0
H617 H 0.6568 0.8341 0.17507 0.0
Gd618 Gd 0.16369 0.83503 0.31132 0.0
Gd619 Gd 0.18799 0.83255 0.37954 0.0
C620 C 0.303 0.88137 0.40505 0.0
C621 C 0.30473 0.83312 0.41938 0.0
C622 C 0.25109 0.82453 0.39991 0.0
C623 C 0.26744 0.8594 0.39721 0.0
C624 C 0.26954 0.81125 0.41156 0.0
C625 C 0.3215 0.86797 0.41587 0.0
C626 C 0.31883 0.91644 0.40245 0.0
C627 C 0.29905 0.92918 0.3933 0.0
N628 N 0.24849 0.87209 0.38783 0.0
C629 C 0.26373 0.90675 0.38653 0.0
H630 H 0.2497 0.91783 0.37943 0.0
C631 C 0.19937 0.77021 0.39746 0.0
N632 N 0.21684 0.80398 0.39244 0.0
C633 C 0.21668 0.75595 0.40859 0.0
C634 C 0.25193 0.77653 0.41566 0.0
H635 H 0.17152 0.75415 0.39383 0.0
H636 H 0.34866 0.88453 0.42207 0.0
H637 H 0.10273 0.74803 0.30687 0.0
H638 H 0.34611 0.93396 0.40792 0.0
H639 H 0.31094 0.95634 0.39142 0.0
H640 H 0.31918 0.82334 0.42831 0.0
H641 H 0.17973 0.91203 0.29511 0.0
H642 H 0.00573 0.73279 0.28122 0.0
H643 H 0.04169 0.70989 0.29508 0.0
H644 H 0.03168 0.84377 0.26319 0.0
H645 H 0.20253 0.72927 0.41229 0.0
H646 H 0.26513 0.76556 0.42468 0.0
H647 H 0.00257 0.78248 0.26878 0.0
H648 H 0.14857 0.93735 0.27753 0.0
N649 N 0.10325 0.79463 0.30202 0.0
C650 C 0.03295 0.7503 0.28684 0.0
C651 C 0.05319 0.73728 0.29451 0.0
C652 C 0.04843 0.78557 0.28539 0.0
C653 C 0.08395 0.80756 0.29348 0.0
C654 C 0.08848 0.75968 0.3014 0.0
N655 N 0.13431 0.86322 0.29857 0.0
C656 C 0.09999 0.84259 0.29132 0.0
C657 C 0.13433 0.91089 0.28178 0.0
C658 C 0.09889 0.89049 0.27544 0.0
C659 C 0.15174 0.89661 0.29266 0.0
C660 C 0.08138 0.85586 0.27978 0.0
H661 H 0.08557 0.90138 0.26648 0.0
O662 O 0.18986 0.86467 0.28026 0.0
O663 O 0.20492 0.8437 0.3403 0.0
O664 O 0.19047 0.88224 0.37517 0.0
O665 O 0.17794 0.88522 0.33311 0.0
O666 O 0.21955 0.85096 0.30407 0.0
O667 O 0.15931 0.8077 0.27502 0.0
O668 O 0.16267 0.80582 0.41128 0.0
O669 O 0.14723 0.82425 0.35049 0.0
O670 O 0.1604 0.78497 0.31588 0.0
O671 O 0.16946 0.78113 0.35854 0.0
O672 O 0.13145 0.81262 0.38612 0.0
O673 O 0.19029 0.86242 0.41494 0.0
C674 C 0.22994 0.84994 0.32605 0.0
C675 C 0.04622 0.83399 0.27199 0.0
C676 C 0.02968 0.79908 0.27512 0.0
C677 C 0.1778 0.83658 0.26496 0.0
C678 C 0.18585 0.83743 0.23849 0.0
C679 C 0.18553 0.86256 0.22524 0.0
C680 C 0.19305 0.81332 0.22617 0.0
C681 C 0.19938 0.81469 0.2006 0.0
C682 C 0.19018 0.86259 0.19959 0.0
C683 C 0.19623 0.83828 0.18722 0.0
C684 C 0.18566 0.89751 0.35696 0.0
C685 C 0.12145 0.81501 0.36442 0.0
C686 C 0.1706 0.83402 0.42532 0.0
C687 C 0.16563 0.83256 0.45248 0.0
C688 C 0.16855 0.8081 0.46491 0.0
C689 C 0.15619 0.85443 0.46593 0.0
C690 C 0.15175 0.85277 0.49181 0.0
C691 C 0.16579 0.80778 0.49078 0.0
C692 C 0.15878 0.83085 0.50426 0.0
C693 C 0.16165 0.76873 0.33481 0.0
H694 H 0.18058 0.88159 0.23462 0.0
H695 H 0.19497 0.7948 0.23644 0.0
H696 H 0.18923 0.88156 0.18933 0.0
H697 H 0.20043 0.83906 0.16729 0.0
H698 H 0.17406 0.78993 0.45473 0.0
H699 H 0.15096 0.87138 0.45622 0.0
H700 H 0.16888 0.78947 0.50038 0.0
H701 H 0.15589 0.82958 0.5243 0.0
Gd702 Gd 0.83939 0.68149 0.71736 0.0
Gd703 Gd 0.8115 0.6404 0.64776 0.0
C704 C 0.69641 0.56336 0.62313 0.0
C705 C 0.69742 0.51185 0.60875 0.0
C706 C 0.75047 0.56345 0.62669 0.0
C707 C 0.73248 0.5807 0.6301 0.0
C708 C 0.73319 0.52904 0.61531 0.0
C709 C 0.67903 0.5289 0.61285 0.0
C710 C 0.67877 0.58127 0.62627 0.0
C711 C 0.69705 0.61582 0.6353 0.0
N712 N 0.75008 0.61441 0.63967 0.0
C713 C 0.73268 0.63208 0.64168 0.0
H714 H 0.74479 0.65825 0.64936 0.0
C715 C 0.80446 0.56622 0.62555 0.0
N716 N 0.78523 0.58088 0.6329 0.0
C717 C 0.78849 0.53211 0.61483 0.0
C718 C 0.75258 0.51325 0.60996 0.0
H719 H 0.83255 0.58132 0.62711 0.0
H720 H 0.65145 0.51542 0.60751 0.0
H721 H 0.90621 0.66659 0.70881 0.0
H722 H 0.65111 0.56879 0.62147 0.0
H723 H 0.68361 0.62994 0.63772 0.0
H724 H 0.68387 0.48558 0.60015 0.0
H725 H 0.81778 0.74063 0.7379 0.0
H726 H 1.00028 0.7546 0.73947 0.0
H727 H 0.9683 0.69488 0.71973 0.0
H728 H 0.96678 0.83648 0.76508 0.0
H729 H 0.80411 0.52079 0.60964 0.0
H730 H 0.74034 0.48709 0.6012 0.0
H731 H 0.9996 0.80728 0.75599 0.0
H732 H 0.84613 0.80065 0.75659 0.0
N733 N 0.90113 0.70921 0.72263 0.0
C734 C 0.97261 0.74227 0.73478 0.0
C735 C 0.95463 0.70855 0.72367 0.0
C736 C 0.95474 0.75972 0.73967 0.0
C737 C 0.91856 0.74233 0.73332 0.0
C738 C 0.91892 0.69243 0.7176 0.0
N739 N 0.86529 0.741 0.73265 0.0
C740 C 0.90018 0.75883 0.73829 0.0
C741 C 0.86179 0.78939 0.75136 0.0
C742 C 0.89778 0.80847 0.75595 0.0
C743 C 0.84586 0.75532 0.74049 0.0
C744 C 0.91736 0.79304 0.74999 0.0
H745 H 0.90997 0.8346 0.76477 0.0
O746 O 0.81413 0.6851 0.75061 0.0
O747 O 0.80097 0.64009 0.68862 0.0
O748 O 0.80275 0.68411 0.65574 0.0
O749 O 0.82071 0.70985 0.69742 0.0
O750 O 0.78111 0.64921 0.7205 0.0
O751 O 0.84423 0.65935 0.75156 0.0
O752 O 0.8383 0.63732 0.61499 0.0
O753 O 0.85204 0.6808 0.67678 0.0
O754 O 0.84597 0.6361 0.71042 0.0
O755 O 0.83109 0.61155 0.66813 0.0
O756 O 0.86554 0.68026 0.64021 0.0
O757 O 0.80559 0.66053 0.61316 0.0
C758 C 0.77307 0.62961 0.6998 0.0
C759 C 0.95329 0.8104 0.7561 0.0
C760 C 0.97193 0.79374 0.75098 0.0
C761 C 0.82429 0.66855 0.76354 0.0
C762 C 0.81879 0.66808 0.79095 0.0
C763 C 0.81837 0.69593 0.80428 0.0
C764 C 0.81192 0.63942 0.8037 0.0
C765 C 0.80485 0.63912 0.82941 0.0
C766 C 0.81237 0.69594 0.8298 0.0
C767 C 0.80598 0.66797 0.84229 0.0
C768 C 0.80833 0.70739 0.67451 0.0
C769 C 0.87618 0.69673 0.66205 0.0
C770 C 0.82706 0.65291 0.60171 0.0
C771 C 0.83195 0.65319 0.57423 0.0
C772 C 0.83116 0.62498 0.56054 0.0
C773 C 0.83863 0.68195 0.56162 0.0
C774 C 0.84326 0.68145 0.53555 0.0
C775 C 0.83437 0.62412 0.53465 0.0
C776 C 0.8395 0.65172 0.52219 0.0
C777 C 0.84179 0.61314 0.69165 0.0
H778 H 0.82305 0.71798 0.79497 0.0
H779 H 0.81131 0.6174 0.79365 0.0
H780 H 0.81264 0.71771 0.83994 0.0
H781 H 0.80161 0.66874 0.86218 0.0
H782 H 0.82722 0.60316 0.56982 0.0
H783 H 0.84131 0.70471 0.57206 0.0
H784 H 0.83307 0.60202 0.5242 0.0
H785 H 0.84251 0.65066 0.5021 0.0
Gd786 Gd 0.32236 0.15324 0.71994 0.0
Gd787 Gd 0.35159 0.15673 0.6526 0.0
C788 C 0.41623 0.10864 0.62669 0.0
C789 C 0.4691 0.1579 0.6144 0.0
C790 C 0.42307 0.16534 0.63261 0.0
C791 C 0.40305 0.13022 0.63455 0.0
C792 C 0.45583 0.17924 0.62167 0.0
C793 C 0.44955 0.12281 0.61717 0.0
C794 C 0.39507 0.07321 0.62759 0.0
C795 C 0.36084 0.05969 0.63455 0.0
N796 N 0.37005 0.11681 0.64256 0.0
C797 C 0.34841 0.08179 0.64136 0.0
H798 H 0.32187 0.07001 0.64661 0.0
C799 C 0.42554 0.21842 0.63292 0.0
N800 N 0.40939 0.18537 0.6393 0.0
C801 C 0.45823 0.23346 0.62261 0.0
C802 C 0.47369 0.21389 0.61725 0.0
H803 H 0.41311 0.23346 0.63567 0.0
H804 H 0.45995 0.10661 0.61108 0.0
H805 H 0.34449 0.23721 0.7132 0.0
H806 H 0.40451 0.05601 0.62212 0.0
H807 H 0.34395 0.03223 0.63479 0.0
H808 H 0.49421 0.16818 0.6061 0.0
H809 H 0.25873 0.07602 0.73591 0.0
H810 H 0.26851 0.25444 0.7474 0.0
H811 H 0.32453 0.27604 0.72716 0.0
H812 H 0.18036 0.14359 0.76716 0.0
H813 H 0.4711 0.25988 0.61832 0.0
H814 H 0.49877 0.22538 0.60883 0.0
H815 H 0.21473 0.20495 0.76152 0.0
H816 H 0.20047 0.05015 0.7526 0.0
N817 N 0.30282 0.1931 0.72797 0.0
C818 C 0.2779 0.23712 0.74221 0.0
C819 C 0.30948 0.24937 0.73081 0.0
C820 C 0.2583 0.20242 0.74608 0.0
C821 C 0.27171 0.18077 0.73903 0.0
C822 C 0.32122 0.22692 0.72338 0.0
N823 N 0.26441 0.12522 0.73368 0.0
C824 C 0.25179 0.14585 0.7416 0.0
C825 C 0.21419 0.07692 0.74912 0.0
C826 C 0.19978 0.0972 0.75543 0.0
C827 C 0.24695 0.09159 0.73892 0.0
C828 C 0.21874 0.13217 0.75212 0.0
H829 H 0.17445 0.08584 0.76349 0.0
O830 O 0.31781 0.12354 0.75092 0.0
O831 O 0.35665 0.14536 0.69196 0.0
O832 O 0.3032 0.10732 0.65678 0.0
O833 O 0.28425 0.10349 0.69784 0.0
O834 O 0.36115 0.13701 0.72819 0.0
O835 O 0.34601 0.18045 0.75644 0.0
O836 O 0.35282 0.18395 0.62142 0.0
O837 O 0.31656 0.16384 0.68053 0.0
O838 O 0.3699 0.20452 0.71602 0.0
O839 O 0.38817 0.20742 0.67454 0.0
O840 O 0.31788 0.17761 0.64527 0.0
O841 O 0.32434 0.12747 0.61649 0.0
C842 C 0.3743 0.13853 0.70679 0.0
C843 C 0.2057 0.15375 0.75924 0.0
C844 C 0.22535 0.18872 0.75617 0.0
C845 C 0.33582 0.15184 0.76622 0.0
C846 C 0.3407 0.15055 0.79305 0.0
C847 C 0.31406 0.12472 0.80554 0.0
C848 C 0.37283 0.1743 0.8061 0.0
C849 C 0.37651 0.17216 0.83174 0.0
C850 C 0.31732 0.12421 0.83123 0.0
C851 C 0.34788 0.14848 0.84441 0.0
C852 C 0.28095 0.09173 0.67399 0.0
C853 C 0.30242 0.17465 0.66579 0.0
C854 C 0.33281 0.15599 0.60673 0.0
C855 C 0.32987 0.15852 0.57958 0.0
C856 C 0.35838 0.18409 0.56792 0.0
C857 C 0.29821 0.13673 0.56536 0.0
C858 C 0.29654 0.13946 0.53949 0.0
C859 C 0.35703 0.18534 0.5421 0.0
C860 C 0.32687 0.16218 0.52785 0.0
C861 C 0.39058 0.2206 0.69797 0.0
H862 H 0.28994 0.1056 0.79554 0.0
H863 H 0.39466 0.19309 0.79636 0.0
H864 H 0.29607 0.10491 0.84094 0.0
H865 H 0.34995 0.1474 0.86443 0.0
H866 H 0.38227 0.20234 0.57863 0.0
H867 H 0.27506 0.11893 0.57444 0.0
H868 H 0.37943 0.20437 0.5331 0.0
H869 H 0.3263 0.16402 0.50783 0.0
Gd870 Gd 0.82992 0.16825 0.64482 0.0
Gd871 Gd 0.85437 0.16557 0.71298 0.0
C872 C 0.96979 0.21498 0.73809 0.0
C873 C 0.9719 0.16698 0.75259 0.0
C874 C 0.91798 0.15816 0.7335 0.0
C875 C 0.93419 0.19284 0.73046 0.0
C876 C 0.93665 0.14499 0.74498 0.0
C877 C 0.98847 0.20182 0.74902 0.0
C878 C 0.9855 0.24991 0.73502 0.0
C879 C 0.9657 0.26223 0.72518 0.0
N880 N 0.91506 0.20518 0.72083 0.0
C881 C 0.93039 0.23957 0.71847 0.0
H882 H 0.91626 0.25017 0.71073 0.0
C883 C 0.86609 0.10427 0.73232 0.0
N884 N 0.88358 0.13768 0.72657 0.0
C885 C 0.88364 0.08988 0.7429 0.0
C886 C 0.91915 0.1103 0.7492 0.0
H887 H 0.8381 0.08877 0.72962 0.0
H888 H 0.01566 0.2185 0.7551 0.0
H889 H 0.76859 0.08034 0.63995 0.0
H890 H 0.01276 0.2676 0.74043 0.0
H891 H 0.97757 0.28923 0.72273 0.0
H892 H 0.98651 0.15734 0.76147 0.0
H893 H 0.84594 0.24684 0.63138 0.0
H894 H 0.67268 0.06576 0.61268 0.0
H895 H 0.70779 0.04274 0.62811 0.0
H896 H 0.69869 0.17723 0.59571 0.0
H897 H 0.86948 0.06334 0.74694 0.0
H898 H 0.93256 0.09935 0.75796 0.0
H899 H 0.66977 0.11564 0.60031 0.0
H900 H 0.8148 0.2717 0.61298 0.0
N901 N 0.7704 0.12725 0.63314 0.0
C902 C 0.70004 0.0831 0.61799 0.0
C903 C 0.71977 0.07001 0.62662 0.0
C904 C 0.71589 0.11833 0.61598 0.0
C905 C 0.75148 0.14024 0.62397 0.0
C906 C 0.7551 0.09223 0.63347 0.0
N907 N 0.80102 0.19643 0.63135 0.0
C908 C 0.76723 0.17552 0.62282 0.0
C909 C 0.80089 0.24478 0.61607 0.0
C910 C 0.7658 0.22404 0.6086 0.0
C911 C 0.81824 0.2305 0.62707 0.0
C912 C 0.74854 0.18904 0.61182 0.0
H913 H 0.75245 0.23512 0.59993 0.0
O914 O 0.85697 0.19671 0.61401 0.0
O915 O 0.87081 0.17631 0.67376 0.0
O916 O 0.85627 0.21538 0.70911 0.0
O917 O 0.84423 0.218 0.66676 0.0
O918 O 0.88592 0.1844 0.63777 0.0
O919 O 0.8278 0.13977 0.60902 0.0
O920 O 0.82824 0.13931 0.74468 0.0
O921 O 0.81347 0.15921 0.68462 0.0
O922 O 0.82466 0.11816 0.65056 0.0
O923 O 0.83832 0.11458 0.69204 0.0
O924 O 0.79706 0.13981 0.71832 0.0
O925 O 0.85599 0.19572 0.74789 0.0
C926 C 0.89598 0.1827 0.65966 0.0
C927 C 0.71342 0.1672 0.60387 0.0
C928 C 0.69701 0.1321 0.60635 0.0
C929 C 0.84716 0.16855 0.5991 0.0
C930 C 0.85463 0.17103 0.57243 0.0
C931 C 0.85908 0.19964 0.56114 0.0
C932 C 0.85946 0.14614 0.55844 0.0
C933 C 0.87223 0.15226 0.53434 0.0
C934 C 0.87474 0.20699 0.5383 0.0
C935 C 0.88352 0.1846 0.52588 0.0
C936 C 0.85168 0.2303 0.69053 0.0
C937 C 0.78667 0.14528 0.69788 0.0
C938 C 0.83563 0.16756 0.75834 0.0
C939 C 0.83302 0.16682 0.78564 0.0
C940 C 0.83645 0.14248 0.79787 0.0
C941 C 0.82341 0.18834 0.79928 0.0
C942 C 0.81936 0.1866 0.82512 0.0
C943 C 0.83424 0.14221 0.82378 0.0
C944 C 0.82721 0.16514 0.83745 0.0
C945 C 0.82824 0.10195 0.66851 0.0
H946 H 0.85307 0.21773 0.57086 0.0
H947 H 0.85285 0.12232 0.56599 0.0
H948 H 0.88041 0.23022 0.53032 0.0
H949 H 0.89562 0.19089 0.50806 0.0
H950 H 0.84166 0.12422 0.78748 0.0
H951 H 0.81727 0.20476 0.78968 0.0
H952 H 0.83763 0.124 0.83326 0.0
H953 H 0.82462 0.16387 0.85751 0.0
C954 C 0.37151 0.8891 0.06593 0.0
C955 C 0.35414 0.86413 0.04567 0.0
H956 H 0.4126 0.93983 0.07806 0.0
C957 C 0.36787 0.86993 0.02197 0.0
H958 H 0.36266 0.88418 0.08477 0.0
C959 C 0.39812 0.90115 0.01878 0.0
C960 C 0.41254 0.92807 0.03788 0.0
H961 H 0.35634 0.85 1.00642 0.0
H962 H 0.41177 0.90369 1.00234 0.0
C963 C 0.4003 0.92083 0.06207 0.0
C964 C 0.11017 0.46083 0.07084 0.0
C965 C 0.11801 0.44333 0.05157 0.0
H966 H 0.08163 0.48533 0.08169 0.0
C967 C 0.10771 0.44334 0.02698 0.0
H968 H 0.11843 0.46208 0.09009 0.0
C969 C 0.08498 0.45532 0.02248 0.0
C970 C 0.07322 0.46921 0.04161 0.0
H971 H 0.11335 0.43013 0.01158 0.0
H972 H 0.07363 0.44948 1.00476 0.0
C973 C 0.08873 0.47409 0.06585 0.0
C974 C 0.53115 0.64061 0.06601 0.0
C975 C 0.53945 0.66467 0.04866 0.0
H976 H 0.5186 0.58996 0.0717 0.0
C977 C 0.53287 0.65364 0.02303 0.0
H978 H 0.53485 0.64842 0.08598 0.0
C979 C 0.52455 0.62033 0.01476 0.0
C980 C 0.52148 0.59755 0.03208 0.0
H981 H 0.53841 0.6717 0.00932 0.0
H982 H 0.52359 0.61379 0.99494 0.0
C983 C 0.52243 0.6073 0.05778 0.0
C984 C 0.88611 0.332 1.00468 0.0
C985 C 0.86494 0.32665 0.98355 0.0
H986 H 0.93058 0.36861 0.02807 0.0
C987 C 0.86772 0.35456 0.97232 0.0
H988 H 0.88449 0.31055 0.01324 0.0
C989 C 0.89412 0.38768 0.98075 0.0
C990 C 0.91753 0.39249 1.00021 0.0
H991 H 0.85144 0.35054 0.95591 0.0
H992 H 0.89745 0.4092 0.97131 0.0
C993 C 0.91262 0.36492 0.01289 0.0
C994 C 0.64285 0.52261 0.96325 0.0
C995 C 0.66961 0.54497 0.98106 0.0
H996 H 0.58799 0.49404 0.95408 0.0
C997 C 0.66067 0.55077 1.00513 0.0
H998 H 0.64902 0.51759 0.94438 0.0
C999 C 0.62584 0.53964 0.00979 0.0
C1000 C 0.59852 0.51941 0.99201 0.0
H1001 H 0.68075 0.56868 0.01905 0.0
H1002 H 0.62182 0.55227 0.02526 0.0
C1003 C 0.60776 0.50919 0.96894 0.0
C1004 C 0.47874 0.12458 0.01323 0.0
C1005 C 0.47655 0.12881 0.98806 0.0
H1006 H 0.47488 0.09089 0.03915 0.0
C1007 C 0.46988 0.1026 0.96928 0.0
H1008 H 0.48313 0.14459 0.02783 0.0
C1009 C 0.46741 0.07266 0.97568 0.0
C1010 C 0.47056 0.06861 1.00101 0.0
H1011 H 0.46805 0.10593 0.94967 0.0
H1012 H 0.46433 0.05351 0.96079 0.0
C1013 C 0.47452 0.09407 0.01965 0.0
C1014 C 0.62199 0.09545 0.96426 0.0
C1015 C 0.64221 0.11911 0.98438 0.0
H1016 H 0.57643 0.04829 0.95219 0.0
C1017 C 0.62761 0.11622 1.00795 0.0
H1018 H 0.63198 0.09765 0.94565 0.0
C1019 C 0.59377 0.0886 0.01119 0.0
C1020 C 0.57621 0.06153 0.99227 0.0
H1021 H 0.64184 0.13554 0.02348 0.0
H1022 H 0.58094 0.08884 0.02772 0.0
C1023 C 0.58992 0.06688 0.96822 0.0
C1024 C 0.90622 0.54165 0.0122 0.0
C1025 C 0.88675 0.53098 0.98938 0.0
H1026 H 0.9503 0.54747 0.03069 0.0
C1027 C 0.89029 0.50799 0.97211 0.0
H1028 H 0.90499 0.56005 0.02574 0.0
C1029 C 0.91373 0.49707 0.97746 0.0
C1030 C 0.93531 0.50971 0.99979 0.0
H1031 H 0.87593 0.49935 0.95412 0.0
H1032 H 0.91707 0.48083 0.96309 0.0
C1033 C 0.93109 0.53244 0.01648 0.0
C1034 C 0.47245 0.35443 0.96092 0.0
C1035 C 0.48483 0.33904 0.97614 0.0
H1036 H 0.46756 0.39763 0.95667 0.0
C1037 C 0.49305 0.35085 1.00162 0.0
H1038 H 0.46458 0.34495 0.94138 0.0
C1039 C 0.49433 0.38115 0.01063 0.0
C1040 C 0.48737 0.39977 0.9943 0.0
H1041 H 0.5017 0.33871 0.01396 0.0
H1042 H 0.50318 0.39089 0.02976 0.0
C1043 C 0.47435 0.38488 0.96975 0.0
C1044 C 0.12862 0.62136 0.07309 0.0
C1045 C 0.1462 0.64753 0.05757 0.0
H1046 H 0.08694 0.57112 0.07641 0.0
C1047 C 0.13395 0.64374 0.03277 0.0
H1048 H 0.13833 0.62373 0.09213 0.0
C1049 C 0.10365 0.6134 0.02365 0.0
C1050 C 0.08646 0.58689 0.03927 0.0
H1051 H 0.14767 0.66401 0.02066 0.0
H1052 H 0.09386 0.6107 1.00464 0.0
C1053 C 0.09918 0.59128 0.06403 0.0
C1054 C 0.35877 0.43105 0.02827 0.0
C1055 C 0.35044 0.45501 0.03885 0.0
H1056 H 0.39929 0.42124 0.01877 0.0
C1057 C 0.37682 0.48985 0.04258 0.0
H1058 H 0.33919 0.40397 0.02582 0.0
C1059 C 0.41114 0.50017 0.03606 0.0
C1060 C 0.41975 0.47572 0.02629 0.0
H1061 H 0.3711 0.50885 0.05097 0.0
H1062 H 0.43148 0.52674 0.04059 0.0
C1063 C 0.39311 0.44113 0.02308 0.0
C1064 C 0.52471 0.89028 0.06413 0.0
C1065 C 0.52586 0.86752 0.04537 0.0
H1066 H 0.51903 0.93374 0.07229 0.0
C1067 C 0.51931 0.86923 0.02025 0.0
H1068 H 0.52979 0.88924 0.08369 0.0
C1069 C 0.51375 0.89481 0.01367 0.0
C1070 C 0.51422 0.9188 0.03209 0.0
H1071 H 0.51983 0.85159 1.00556 0.0
H1072 H 0.51044 0.89626 0.99412 0.0
C1073 C 0.51908 0.91597 0.05751 0.0
C1074 C 0.02532 0.20783 0.35586 0.0
C1075 C 0.02382 0.19592 0.37904 0.0
H1076 H 0.04756 0.25175 0.33733 0.0
C1077 C 0.0499 0.21599 0.39779 0.0
H1078 H 0.00418 0.19343 0.34176 0.0
C1079 C 0.07819 0.24768 0.39288 0.0
C1080 C 0.07945 0.26053 0.3697 0.0
H1081 H 0.04822 0.20728 0.41621 0.0
H1082 H 0.09812 0.26286 0.40762 0.0
C1083 C 0.05193 0.24058 0.35205 0.0
C1084 C 0.76362 0.76522 0.36091 0.0
C1085 C 0.78537 0.77782 0.38262 0.0
H1086 H 0.71753 0.75872 0.34516 0.0
C1087 C 0.78651 0.80497 0.39813 0.0
H1088 H 0.7608 0.74309 0.34938 0.0
C1089 C 0.76475 0.81781 0.39239 0.0
C1090 C 0.7398 0.80252 0.37187 0.0
H1091 H 0.80248 0.81472 0.41545 0.0
H1092 H 0.76472 0.8372 0.40562 0.0
C1093 C 0.73972 0.77577 0.35687 0.0
C1094 C 0.20482 0.98813 0.35512 0.0
C1095 C 0.20524 -0.00253 0.38072 0.0
H1096 H 0.20177 0.9499 0.32786 0.0
C1097 C 0.19207 0.97217 0.39747 0.0
H1098 H 0.21469 0.0073 0.34188 0.0
C1099 C 0.18375 0.93891 0.3893 0.0
C1100 C 0.18851 0.93072 0.36432 0.0
H1101 H 0.19145 0.97886 0.41729 0.0
H1102 H 0.17569 0.92028 0.40289 0.0
C1103 C 0.19739 0.95509 0.34706 0.0
C1104 C 0.53451 0.67002 0.33897 0.0
C1105 C 0.53095 0.6601 0.31318 0.0
H1106 H 0.56574 0.70841 0.36812 0.0
C1107 C 0.54873 0.68486 0.29651 0.0
H1108 H 0.5203 0.6514 0.35213 0.0
C1109 C 0.57469 0.71761 0.30567 0.0
C1110 C 0.58267 0.72602 0.33161 0.0
H1111 H 0.54529 0.67792 0.27642 0.0
H1112 H 0.58983 0.73548 0.29228 0.0
C1113 C 0.56088 0.70275 0.34818 0.0
C1114 C 0.31079 0.84751 0.31098 0.0
C1115 C 0.33644 0.88192 0.31804 0.0
H1116 H 0.25629 0.80936 0.3101 0.0
C1117 C 0.32711 0.90312 0.33194 0.0
H1118 H 0.31717 0.83096 0.29934 0.0
C1119 C 0.2923 0.89133 0.33678 0.0
C1120 C 0.26608 0.8571 0.33033 0.0
H1121 H 0.34612 0.93013 0.33645 0.0
H1122 H 0.28546 0.91036 0.34245 0.0
C1123 C 0.27598 0.83511 0.31741 0.0
C1124 C 0.15915 0.44777 0.3081 0.0
C1125 C 0.1449 0.46264 0.32415 0.0
H1126 H 0.16813 0.40633 0.30091 0.0
C1127 C 0.12689 0.44691 0.34496 0.0
H1128 H 0.17274 0.4599 0.29182 0.0
C1129 C 0.12408 0.41629 0.35013 0.0
C1130 C 0.13861 0.40157 0.33406 0.0
H1131 H 0.11546 0.4584 0.35714 0.0
H1132 H 0.11101 0.40435 0.3666 0.0
C1133 C 0.15593 0.41713 0.313 0.0
C1134 C 0.29012 0.42783 0.2983 0.0
C1135 C 0.30908 0.45265 0.3181 0.0
H1136 H 0.24602 0.37999 0.28634 0.0
C1137 C 0.2937 0.45037 0.34133 0.0
H1138 H 0.30077 0.42937 0.27995 0.0
C1139 C 0.26 0.42235 0.3445 0.0
C1140 C 0.24355 0.39455 0.32593 0.0
H1141 H 0.30712 0.47047 0.35655 0.0
H1142 H 0.24645 0.42289 0.36062 0.0
C1143 C 0.25842 0.39912 0.30224 0.0
C1144 C 0.57451 0.86541 0.30371 0.0
C1145 C 0.55497 0.86726 0.32335 0.0
H1146 H 0.61429 0.85695 0.29149 0.0
C1147 C 0.55842 0.85629 0.34644 0.0
H1148 H 0.57174 0.87236 0.28538 0.0
C1149 C 0.58206 0.84462 0.34952 0.0
C1150 C 0.6055 0.84782 0.33104 0.0
H1151 H 0.54179 0.85514 0.36151 0.0
H1152 H 0.58031 0.83125 0.36516 0.0
C1153 C 0.59941 0.85649 0.30755 0.0
C1154 C 0.13146 0.67449 0.33032 0.0
C1155 C 0.15509 0.674 0.31334 0.0
H1156 H 0.11552 0.70641 0.35116 0.0
C1157 C 0.1811 0.70441 0.30461 0.0
H1158 H 0.1111 0.65095 0.33697 0.0
C1159 C 0.18266 0.73505 0.3117 0.0
C1160 C 0.15898 0.73589 0.32826 0.0
H1161 H 0.19931 0.70419 0.29132 0.0
H1162 H 0.20218 0.75809 0.30401 0.0
C1163 C 0.13383 0.70579 0.33818 0.0
C1164 C 0.79768 0.97851 0.36694 0.0
C1165 C 0.81311 0.98119 0.39043 0.0
H1166 H 0.75532 0.94553 0.34012 0.0
C1167 C 0.79928 0.95324 0.40467 0.0
H1168 H 0.80865 2e-05 0.35571 0.0
C1169 C 0.7698 0.92286 0.39598 0.0
C1170 C 0.75362 0.91984 0.37283 0.0
H1171 H 0.81159 0.95483 0.42256 0.0
H1172 H 0.75997 0.90147 0.40731 0.0
C1173 C 0.76763 0.94763 0.3581 0.0
C1174 C 0.02447 0.77005 0.35578 0.0
C1175 C 0.01704 0.7901 0.37303 0.0
H1176 H 0.06356 0.76016 0.34309 0.0
C1177 C 0.04476 0.82165 0.38395 0.0
H1178 H 0.00389 0.74502 0.34781 0.0
C1179 C 0.07923 0.83249 0.37767 0.0
C1180 C 0.08682 0.81143 0.36117 0.0
H1181 H 0.03994 0.83746 0.39771 0.0
H1182 H 0.10025 0.85593 0.38744 0.0
C1183 C 0.05889 0.77969 0.35129 0.0
C1184 C 0.20344 0.23113 0.39573 0.0
C1185 C 0.19313 0.20175 0.37917 0.0
H1186 H 0.20703 0.27963 0.40163 0.0
C1187 C 0.17522 0.19681 0.35645 0.0
H1188 H 0.21745 0.23513 0.41337 0.0
C1189 C 0.1684 0.22171 0.34998 0.0
C1190 C 0.18065 0.25233 0.36565 0.0
H1191 H 0.16672 0.17385 0.34371 0.0
H1192 H 0.15354 0.2167 0.33282 0.0
C1193 C 0.19769 0.25658 0.38886 0.0
C1194 C 0.72237 0.54303 0.72363 0.0
C1195 C 0.69067 0.52902 0.70987 0.0
H1196 H 0.77453 0.58573 0.7299 0.0
C1197 C 0.68682 0.5468 0.69146 0.0
H1198 H 0.72504 0.53006 0.73875 0.0
C1199 C 0.71423 0.57922 0.6876 0.0
C1200 C 0.74661 0.5931 0.70029 0.0
H1201 H 0.66187 0.53687 0.68152 0.0
H1202 H 0.70865 0.59461 0.67684 0.0
C1203 C 0.75047 0.57467 0.71854 0.0
C1204 C 0.45386 0.13879 0.73063 0.0
C1205 C 0.45183 0.11079 0.71571 0.0
H1206 H 0.43279 0.17171 0.73763 0.0
C1207 C 0.42902 0.09709 0.69454 0.0
H1208 H 0.4706 0.14933 0.74759 0.0
C1209 C 0.40513 0.10767 0.69054 0.0
C1210 C 0.40629 0.13544 0.70487 0.0
H1211 H 0.4255 0.07431 0.68357 0.0
H1212 H 0.38227 0.09015 0.67949 0.0
C1213 C 0.43209 0.15158 0.72482 0.0
C1214 C 0.89273 0.32519 0.69336 0.0
C1215 C 0.87375 0.33121 0.71176 0.0
H1216 H 0.9008 0.28772 0.6727 0.0
C1217 C 0.84453 0.30356 0.7211 0.0
H1218 H 0.91569 0.34634 0.68633 0.0
C1219 C 0.83609 0.27001 0.71333 0.0
C1220 C 0.85711 0.26441 0.69647 0.0
H1221 H 0.82977 0.30799 0.73543 0.0
H1222 H 0.81435 0.24866 0.72124 0.0
C1223 C 0.88454 0.2919 0.68582 0.0
C1224 C 0.20029 0.0038 0.672 0.0
C1225 C 0.19782 -0.00665 0.64636 0.0
H1226 H 0.23038 0.04273 0.70121 0.0
C1227 C 0.2166 0.01771 0.62965 0.0
H1228 H 0.18519 0.98553 0.68516 0.0
C1229 C 0.24253 0.05045 0.63883 0.0
C1230 C 0.24945 0.05934 0.66483 0.0
H1231 H 0.21397 0.01045 0.60962 0.0
H1232 H 0.25843 0.06791 0.62544 0.0
C1233 C 0.22655 0.0366 0.68125 0.0
C1234 C 0.97803 0.18075 0.64777 0.0
C1235 C 0.00275 0.21613 0.65133 0.0
H1236 H 0.92395 0.14163 0.64947 0.0
C1237 C 0.9926 0.23852 0.66209 0.0
H1238 H 0.98505 0.16305 0.63868 0.0
C1239 C 0.95798 0.2265 0.66768 0.0
C1240 C 0.93261 0.19144 0.6643 0.0
H1241 H 0.01087 0.26597 0.6641 0.0
H1242 H 0.95037 0.24532 0.67205 0.0
C1243 C 0.94321 0.1685 0.65429 0.0
C1244 C 0.7884 0.76422 0.64063 0.0
C1245 C 0.80874 0.79533 0.65567 0.0
H1246 H 0.77242 0.71119 0.63473 0.0
C1247 C 0.82774 0.797 0.6768 0.0
H1248 H 0.77448 0.76301 0.62368 0.0
C1249 C 0.82725 0.76805 0.6826 0.0
C1250 C 0.80621 0.73653 0.66837 0.0
H1251 H 0.84433 0.82103 0.68817 0.0
H1252 H 0.84538 0.77125 0.69717 0.0
C1253 C 0.78724 0.73475 0.64692 0.0
C1254 C 0.95303 0.78861 0.66974 0.0
C1255 C 0.97523 0.78405 0.65324 0.0
H1256 H 0.90231 0.76396 0.68555 0.0
C1257 C 0.96602 0.75116 0.64316 0.0
H1258 H 0.96002 0.81412 0.67773 0.0
C1259 C 0.93557 0.72295 0.64962 0.0
C1260 C 0.91208 0.72661 0.66516 0.0
H1261 H 0.98283 0.74714 0.6305 0.0
H1262 H 0.92931 0.69789 0.641 0.0
C1263 C 0.92079 0.75995 0.67499 0.0
C1264 C 0.22149 0.18394 0.67877 0.0
C1265 C 0.2221 0.20097 0.65778 0.0
H1266 H 0.24232 0.15628 0.69558 0.0
C1267 C 0.24767 0.20786 0.64066 0.0
H1268 H 0.20088 0.17696 0.69177 0.0
C1269 C 0.27358 0.20054 0.64507 0.0
C1270 C 0.2743 0.18384 0.666 0.0
H1271 H 0.24859 0.22033 0.6241 0.0
H1272 H 0.29324 0.20807 0.63125 0.0
C1273 C 0.2463 0.17363 0.68194 0.0
C1274 C 0.8144 0.01279 0.66881 0.0
C1275 C 0.8199 0.00678 0.64362 0.0
H1276 H 0.81096 0.04766 0.6965 0.0
C1277 C 0.82661 0.0311 0.62693 0.0
H1278 H 0.80929 -0.00595 0.68186 0.0
C1279 C 0.82874 0.06164 0.63525 0.0
C1280 C 0.82365 0.06832 0.66043 0.0
H1281 H 0.83169 0.02713 0.60752 0.0
H1282 H 0.83536 0.08039 0.62194 0.0
C1283 C 0.8158 0.04344 0.67715 0.0
C1284 C 0.47767 0.30279 0.69985 0.0
C1285 C 0.47862 0.31654 0.72443 0.0
H1286 H 0.44926 0.26048 0.67258 0.0
C1287 C 0.448 0.30338 0.73752 0.0
H1288 H 0.50094 0.31295 0.6892 0.0
C1289 C 0.41863 0.27295 0.72823 0.0
C1290 C 0.41899 0.25604 0.70515 0.0
H1291 H 0.44787 0.31435 0.75627 0.0
H1292 H 0.39658 0.26168 0.74001 0.0
C1293 C 0.44795 0.27242 0.69035 0.0
C1294 C 0.69182 0.11689 0.68549 0.0
C1295 C 0.68331 0.12517 0.70909 0.0
H1296 H 0.72948 0.11286 0.66555 0.0
C1297 C 0.71052 0.1464 0.72701 0.0
H1298 H 0.67159 0.10014 0.67129 0.0
C1299 C 0.74529 0.15738 0.72155 0.0
C1300 C 0.75366 0.14639 0.69844 0.0
H1301 H 0.70495 0.15335 0.74553 0.0
H1302 H 0.76535 0.17197 0.73633 0.0
C1303 C 0.72611 0.12626 0.68093 0.0
C1304 C 0.85506 0.53785 0.68634 0.0
C1305 C 0.85925 0.53451 0.71158 0.0
H1306 H 0.84836 0.56647 0.66028 0.0
C1307 C 0.85549 0.55557 0.73039 0.0
H1308 H 0.85758 0.52154 0.67157 0.0
C1309 C 0.84959 0.58114 0.72385 0.0
C1310 C 0.84723 0.58571 0.69843 0.0
H1311 H 0.85864 0.55331 0.75004 0.0
H1312 H 0.84738 0.59749 0.73875 0.0
C1313 C 0.84945 0.56346 0.67984 0.0
C1314 C 0.43212 0.91492 0.21244 0.0
C1315 C 0.46265 0.91985 0.22409 0.0
H1316 H 0.4103 0.92582 0.18162 0.0
C1317 C 0.49306 0.93218 0.21072 0.0
H1318 H 0.40834 0.90529 0.22249 0.0
C1319 C 0.49423 0.94417 0.18735 0.0
C1320 C 0.46495 0.94365 0.17724 0.0
H1321 H 0.51692 0.93634 0.21952 0.0
H1322 H 0.51913 0.95789 0.17887 0.0
C1323 C 0.43314 0.92627 0.18894 0.0
C1324 C 0.10293 0.51469 0.21419 0.0
C1325 C 0.10859 0.54491 0.22763 0.0
H1326 H 0.08158 0.48097 0.1808 0.0
C1327 C 0.10354 0.56842 0.21573 0.0
H1328 H 0.10785 0.49685 0.22292 0.0
C1329 C 0.08713 0.55864 0.19168 0.0
C1330 C 0.07717 0.52602 0.17961 0.0
H1331 H 0.10893 0.59243 0.22582 0.0
H1332 H 0.07844 0.57442 0.18402 0.0
C1333 C 0.08885 0.5061 0.18987 0.0
C1334 C 0.47658 0.57138 0.21065 0.0
C1335 C 0.44779 0.54411 0.22069 0.0
H1336 H 0.5112 0.58556 0.18043 0.0
C1337 C 0.42528 0.51425 0.20524 0.0
H1338 H 0.4939 0.59479 0.22242 0.0
C1339 C 0.43414 0.50985 0.18093 0.0
C1340 C 0.46672 0.53412 0.17274 0.0
H1341 H 0.40311 0.49282 0.21274 0.0
H1342 H 0.41883 0.48483 0.17043 0.0
C1343 C 0.48614 0.5664 0.18653 0.0
C1344 C 0.90488 0.42074 0.8191 0.0
C1345 C 0.90498 0.44788 0.8085 0.0
H1346 H 0.92269 0.40679 0.85052 0.0
C1347 C 0.91182 0.47744 0.82365 0.0
H1348 H 0.89896 0.39751 0.80751 0.0
C1349 C 0.92329 0.48178 0.84848 0.0
C1350 C 0.93049 0.45783 0.85751 0.0
H1351 H 0.91215 0.4987 0.8157 0.0
H1352 H 0.93291 0.50666 0.85895 0.0
C1353 C 0.9177 0.4257 0.84378 0.0
C1354 C 0.53253 0.44921 0.80334 0.0
C1355 C 0.55451 0.43606 0.80506 0.0
H1356 H 0.50668 0.47132 0.82323 0.0
C1357 C 0.56091 0.42746 0.82817 0.0
H1358 H 0.52645 0.45496 0.78547 0.0
C1359 C 0.55188 0.43942 0.85024 0.0
C1360 C 0.53501 0.4582 0.84851 0.0
H1361 H 0.57703 0.41614 0.82941 0.0
H1362 H 0.56166 0.43772 0.86819 0.0
C1363 C 0.52134 0.45854 0.82498 0.0
C1364 C 0.50512 0.06214 0.81856 0.0
C1365 C 0.53663 0.06989 0.80766 0.0
H1366 H 0.47189 0.03929 0.84857 0.0
C1367 C 0.56336 0.07137 0.82237 0.0
H1368 H 0.48445 0.06185 0.80777 0.0
C1369 C 0.5566 0.05999 0.84624 0.0
C1370 C 0.52283 0.04591 0.85515 0.0
H1371 H 0.58807 0.07762 0.81455 0.0
H1372 H 0.57605 0.05705 0.85592 0.0
C1373 C 0.49811 0.04994 0.84217 0.0
C1374 C 0.09926 0.24608 0.54481 0.0
C1375 C 0.13018 0.25365 0.5575 0.0
H1376 H 0.07686 0.25469 0.51301 0.0
C1377 C 0.16163 0.26944 0.54539 0.0
H1378 H 0.07475 0.23406 0.554 0.0
C1379 C 0.16284 0.28128 0.522 0.0
C1380 C 0.13262 0.27739 0.51054 0.0
H1381 H 0.18581 0.27596 0.55513 0.0
H1382 H 0.18803 0.29726 0.51446 0.0
C1383 C 0.1004 0.25747 0.52125 0.0
C1384 C 0.76846 0.84757 0.54746 0.0
C1385 C 0.77237 0.87711 0.5608 0.0
H1386 H 0.75031 0.81513 0.51323 0.0
C1387 C 0.76612 0.89988 0.54905 0.0
H1388 H 0.77526 0.83092 0.55605 0.0
C1389 C 0.7513 0.89059 0.52477 0.0
C1390 C 0.74339 0.8588 0.51253 0.0
H1391 H 0.77111 0.92382 0.55904 0.0
H1392 H 0.74223 0.90596 0.5169 0.0
C1393 C 0.75585 0.8395 0.52277 0.0
C1394 C 0.14284 0.9047 0.54367 0.0
C1395 C 0.11447 0.8773 0.55394 0.0
H1396 H 0.17708 0.91901 0.51321 0.0
C1397 C 0.09222 0.8471 0.53872 0.0
H1398 H 0.15993 0.92836 0.55527 0.0
C1399 C 0.10092 0.84261 0.51439 0.0
C1400 C 0.13315 0.86716 0.50592 0.0
H1401 H 0.07037 0.82558 0.54641 0.0
H1402 H 0.08584 0.81741 0.5041 0.0
C1403 C 0.15228 0.89964 0.51951 0.0
C1404 C 0.57365 0.80652 0.1581 0.0
C1405 C 0.57263 0.78035 0.14164 0.0
H1406 H 0.5899 0.83329 0.19469 0.0
C1407 C 0.57688 0.75489 0.15112 0.0
H1408 H 0.57015 0.82629 0.15116 0.0
C1409 C 0.58859 0.75915 0.17601 0.0
C1410 C 0.59608 0.78898 0.19125 0.0
H1411 H 0.57515 0.73395 0.13866 0.0
H1412 H 0.59709 0.74232 0.18194 0.0
C1413 C 0.5844 0.81017 0.18313 0.0
C1414 C 0.2524 0.80771 0.15344 0.0
C1415 C 0.22759 0.77668 0.14039 0.0
H1416 H 0.26454 0.84153 0.1867 0.0
C1417 C 0.19772 0.75323 0.15195 0.0
H1418 H 0.27647 0.82517 0.14511 0.0
C1419 C 0.19049 0.7629 0.17546 0.0
C1420 C 0.21367 0.7957 0.18732 0.0
H1421 H 0.17932 0.72835 0.14227 0.0
H1422 H 0.16532 0.74663 0.18293 0.0
C1423 C 0.24629 0.81627 0.17751 0.0
C1424 C 0.23001 0.4041 0.15555 0.0
C1425 C 0.20341 0.40288 0.14084 0.0
H1426 H 0.24257 0.38975 0.18911 0.0
C1427 C 0.17206 0.39561 0.15181 0.0
H1428 H 0.25462 0.41004 0.14771 0.0
C1429 C 0.16504 0.38361 0.17551 0.0
C1430 C 0.18958 0.37925 0.18845 0.0
H1431 H 0.15154 0.39559 0.14104 0.0
H1432 H 0.13891 0.37333 0.18201 0.0
C1433 C 0.22326 0.39293 0.17946 0.0
C1434 C 0.82223 0.59247 0.87521 0.0
C1435 C 0.79484 0.58636 0.89087 0.0
H1436 H 0.84663 0.61393 0.84156 0.0
C1437 C 0.7657 0.58639 0.8813 0.0
H1438 H 0.84478 0.59212 0.88217 0.0
C1439 C 0.76616 0.59744 0.85785 0.0
C1440 C 0.79639 0.60999 0.84415 0.0
H1441 H 0.7439 0.58103 0.89289 0.0
H1442 H 0.7451 0.60109 0.8522 0.0
C1443 C 0.8231 0.60454 0.85184 0.0
C1444 C 0.43121 0.17885 0.88277 0.0
C1445 C 0.43897 0.21074 0.89447 0.0
H1446 H 0.41063 0.14416 0.84972 0.0
C1447 C 0.43621 0.23434 0.88098 0.0
H1448 H 0.43511 0.16116 0.89262 0.0
C1449 C 0.42121 0.22423 0.85673 0.0
C1450 C 0.4098 0.19077 0.84609 0.0
H1451 H 0.44403 0.25981 0.88964 0.0
H1452 H 0.41486 0.24081 0.84761 0.0
C1453 C 0.41884 0.16989 0.858 0.0
C1454 C 0.80732 0.23837 0.87556 0.0
C1455 C 0.78012 0.21061 0.88658 0.0
H1456 H 0.84151 0.25277 0.84505 0.0
C1457 C 0.75936 0.17925 0.87211 0.0
H1458 H 0.82338 0.26295 0.88644 0.0
C1459 C 0.76831 0.17439 0.84801 0.0
C1460 C 0.79969 0.19974 0.83908 0.0
H1461 H 0.73851 0.15736 0.88019 0.0
H1462 H 0.75438 0.14871 0.83833 0.0
C1463 C 0.81735 0.23284 0.85176 0.0
C1464 C 0.24643 0.14482 0.48986 0.0
C1465 C 0.2388 0.11485 0.47491 0.0
H1466 H 0.26746 0.17413 0.52513 0.0
C1467 C 0.23799 0.08755 0.48577 0.0
H1468 H 0.24742 0.16625 0.48171 0.0
C1469 C 0.2505 0.09246 0.51059 0.0
C1470 C 0.26372 0.12472 0.52426 0.0
H1471 H 0.23153 0.06404 0.47435 0.0
H1472 H 0.25478 0.07321 0.51757 0.0
C1473 C 0.25745 0.14908 0.51482 0.0
C1474 C 0.86487 0.11447 0.47028 0.0
C1475 C 0.88814 0.10285 0.47208 0.0
H1476 H 0.8377 0.13522 0.4901 0.0
C1477 C 0.89603 0.09575 0.49531 0.0
H1478 H 0.85774 0.11907 0.45232 0.0
C1479 C 0.88682 0.10765 0.51728 0.0
C1480 C 0.8683 0.12481 0.51534 0.0
H1481 H 0.91322 0.08563 0.49659 0.0
H1482 H 0.89761 0.10723 0.53523 0.0
C1483 C 0.85348 0.12361 0.4919 0.0
C1484 C 0.84021 0.73107 0.48591 0.0
C1485 C 0.87073 0.73679 0.47434 0.0
H1486 H 0.80732 0.70944 0.51639 0.0
C1487 C 0.89661 0.73569 0.48822 0.0
H1488 H 0.82027 0.7327 0.47569 0.0
C1489 C 0.8898 0.724 0.51193 0.0
C1490 C 0.85665 0.71199 0.52152 0.0
H1491 H 0.92048 0.7402 0.4798 0.0
H1492 H 0.90836 0.71916 0.52091 0.0
C1493 C 0.83304 0.71845 0.50942 0.0
loop_
_geom_bond_atom_site_label_1
_geom_bond_atom_site_label_2
_geom_bond_distance
_geom_bond_site_symmetry_2
_ccdc_geom_bond_type
O0 Cd1 2.300 . S
O0 C7 1.275 . S
Cd1 O0 2.300 . S
Cd1 O9 2.381 . S
Cd1 O10 2.378 . S
O2 Cd3 2.385 . S
O2 C7 1.255 . S
Cd3 O2 2.385 . S
Cd3 O4 2.317 . S
O4 Cd3 2.317 . S
O4 C5 1.232 . S
C5 O4 1.232 . S
C5 O6 1.218 . S
O6 C5 1.218 . S
C7 O0 1.275 . S
C7 O2 1.255 . S
C8 O9 1.258 . S
C8 O10 1.256 . S
O9 Cd1 2.381 . S
O9 C8 1.258 . S
O10 Cd1 2.378 . S
O10 C8 1.256 . S
O11 Cd12 2.300 . S
O11 C18 1.275 . S
Cd12 O11 2.300 . S
Cd12 O20 2.381 . S
Cd12 O21 2.378 . S
O13 Cd14 2.385 . S
O13 C18 1.255 . S
Cd14 O13 2.385 . S
Cd14 O15 2.317 . S
O15 Cd14 2.317 . S
O15 C16 1.232 . S
C16 O15 1.232 . S
C16 O17 1.218 1_545 S
O17 C16 1.218 1_565 S
C18 O11 1.275 . S
C18 O13 1.255 . S
C19 O20 1.258 . S
C19 O21 1.256 . S
O20 Cd12 2.381 . S
O20 C19 1.258 . S
O21 Cd12 2.378 . S
O21 C19 1.256 . S
O22 Cd23 2.300 . S
O22 C29 1.275 . S
Cd23 O22 2.300 . S
Cd23 O31 2.381 . S
Cd23 O32 2.378 . S
O24 Cd25 2.385 . S
O24 C29 1.255 . S
Cd25 O24 2.385 . S
Cd25 O26 2.317 . S
O26 Cd25 2.317 . S
O26 C27 1.232 . S
C27 O26 1.232 . S
C27 O28 1.218 . S
O28 C27 1.218 . S
C29 O22 1.275 . S
C29 O24 1.255 . S
C30 O31 1.258 . S
C30 O32 1.256 . S
O31 Cd23 2.381 . S
O31 C30 1.258 . S
O32 Cd23 2.378 . S
O32 C30 1.256 . S
O33 Cd34 2.300 . S
O33 C40 1.275 . S
Cd34 O33 2.300 . S
Cd34 O42 2.381 . S
Cd34 O43 2.378 . S
O35 Cd36 2.385 . S
O35 C40 1.255 . S
Cd36 O35 2.385 . S
Cd36 O37 2.317 . S
O37 Cd36 2.317 . S
O37 C38 1.232 . S
C38 O37 1.232 . S
C38 O39 1.218 . S
O39 C38 1.218 . S
C40 O33 1.275 . S
C40 O35 1.255 . S
C41 O42 1.258 . S
C41 O43 1.256 . S
O42 Cd34 2.381 . S
O42 C41 1.258 . S
O43 Cd34 2.378 . S
O43 C41 1.256 . S
O44 Cd45 2.300 . S
O44 C51 1.275 . S
Cd45 O44 2.300 . S
Cd45 O53 2.381 . S
Cd45 O54 2.378 . S
O46 Cd47 2.385 . S
O46 C51 1.255 . S
Cd47 O46 2.385 . S
Cd47 O48 2.317 . S
O48 Cd47 2.317 . S
O48 C49 1.232 . S
C49 O48 1.232 . S
C49 O50 1.218 1_565 S
O50 C49 1.218 1_545 S
C51 O44 1.275 . S
C51 O46 1.255 . S
C52 O53 1.258 . S
C52 O54 1.256 . S
O53 Cd45 2.381 . S
O53 C52 1.258 . S
O54 Cd45 2.378 . S
O54 C52 1.256 . S
O55 Cd56 2.300 . S
O55 C62 1.275 . S
Cd56 O55 2.300 . S
Cd56 O64 2.381 . S
Cd56 O65 2.378 . S
O57 Cd58 2.385 . S
O57 C62 1.255 . S
Cd58 O57 2.385 . S
Cd58 O59 2.317 . S
O59 Cd58 2.317 . S
O59 C60 1.232 . S
C60 O59 1.232 . S
C60 O61 1.218 . S
O61 C60 1.218 . S
C62 O55 1.275 . S
C62 O57 1.255 . S
C63 O64 1.258 . S
C63 O65 1.256 . S
O64 Cd56 2.381 . S
O64 C63 1.258 . S
O65 Cd56 2.378 . S
O65 C63 1.256 . S
O66 Cd67 2.300 . S
O66 C73 1.275 . S
Cd67 O66 2.300 . S
Cd67 O75 2.381 . S
Cd67 O76 2.378 . S
O68 Cd69 2.385 . S
O68 C73 1.255 . S
Cd69 O68 2.385 . S
Cd69 O70 2.317 . S
O70 Cd69 2.317 . S
O70 C71 1.232 . S
C71 O70 1.232 . S
C71 O72 1.218 . S
O72 C71 1.218 . S
C73 O66 1.275 . S
C73 O68 1.255 . S
C74 O75 1.258 . S
C74 O76 1.256 . S
O75 Cd67 2.381 . S
O75 C74 1.258 . S
O76 Cd67 2.378 . S
O76 C74 1.256 . S
O77 Cd78 2.300 . S
O77 C84 1.275 . S
Cd78 O77 2.300 . S
Cd78 O86 2.381 . S
Cd78 O87 2.378 . S
O79 Cd80 2.385 . S
O79 C84 1.255 . S
Cd80 O79 2.385 . S
Cd80 O81 2.317 . S
O81 Cd80 2.317 . S
O81 C82 1.232 . S
C82 O81 1.232 . S
C82 O83 1.218 . S
O83 C82 1.218 . S
C84 O77 1.275 . S
C84 O79 1.255 . S
C85 O86 1.258 . S
C85 O87 1.256 . S
O86 Cd78 2.381 . S
O86 C85 1.258 . S
O87 Cd78 2.378 . S
O87 C85 1.256 . S
O88 Cd89 2.300 . S
O88 C95 1.275 . S
Cd89 O88 2.300 . S
Cd89 O97 2.381 . S
Cd89 O98 2.378 . S
O90 Cd91 2.385 . S
O90 C95 1.255 . S
Cd91 O90 2.385 . S
Cd91 O92 2.317 . S
O92 Cd91 2.317 . S
O92 C93 1.232 . S
C93 O92 1.232 . S
C93 O94 1.218 . S
O94 C93 1.218 . S
C95 O88 1.275 . S
C95 O90 1.255 . S
C96 O97 1.258 . S
C96 O98 1.256 . S
O97 Cd89 2.381 . S
O97 C96 1.258 . S
O98 Cd89 2.378 . S
O98 C96 1.256 . S
O99 Cd100 2.300 . S
O99 C106 1.275 . S
Cd100 O99 2.300 . S
Cd100 O108 2.381 . S
Cd100 O109 2.378 . S
O101 Cd102 2.385 . S
O101 C106 1.255 . S
Cd102 O101 2.385 . S
Cd102 O103 2.317 . S
O103 Cd102 2.317 . S
O103 C104 1.232 . S
C104 O103 1.232 . S
C104 O105 1.218 . S
O105 C104 1.218 . S
C106 O99 1.275 . S
C106 O101 1.255 . S
C107 O108 1.258 . S
C107 O109 1.256 . S
O108 Cd100 2.381 . S
O108 C107 1.258 . S
O109 Cd100 2.378 . S
O109 C107 1.256 . S
O110 Cd111 2.300 . S
O110 C117 1.275 . S
Cd111 O110 2.300 . S
Cd111 O119 2.381 . S
Cd111 O120 2.378 . S
O112 Cd113 2.385 . S
O112 C117 1.255 . S
Cd113 O112 2.385 . S
Cd113 O114 2.317 . S
O114 Cd113 2.317 . S
O114 C115 1.232 . S
C115 O114 1.232 . S
C115 O116 1.218 . S
O116 C115 1.218 . S
C117 O110 1.275 . S
C117 O112 1.255 . S
C118 O119 1.258 . S
C118 O120 1.256 . S
O119 Cd111 2.381 . S
O119 C118 1.258 . S
O120 Cd111 2.378 . S
O120 C118 1.256 . S
O121 Cd122 2.300 . S
O121 C128 1.275 . S
Cd122 O121 2.300 . S
Cd122 O130 2.381 . S
Cd122 O131 2.378 . S
O123 Cd124 2.385 . S
O123 C128 1.255 . S
Cd124 O123 2.385 . S
Cd124 O125 2.317 . S
O125 Cd124 2.317 . S
O125 C126 1.232 . S
C126 O125 1.232 . S
C126 O127 1.218 . S
O127 C126 1.218 . S
C128 O121 1.275 . S
C128 O123 1.255 . S
C129 O130 1.258 . S
C129 O131 1.256 . S
O130 Cd122 2.381 . S
O130 C129 1.258 . S
O131 Cd122 2.378 . S
O131 C129 1.256 . S
O132 Cd133 2.300 . S
O132 C139 1.275 . S
Cd133 O132 2.300 . S
Cd133 O141 2.381 . S
Cd133 O142 2.378 . S
O134 Cd135 2.385 . S
O134 C139 1.255 . S
Cd135 O134 2.385 . S
Cd135 O136 2.317 . S
O136 Cd135 2.317 . S
O136 C137 1.232 . S
C137 O136 1.232 . S
C137 O138 1.218 . S
O138 C137 1.218 . S
C139 O132 1.275 . S
C139 O134 1.255 . S
C140 O141 1.258 . S
C140 O142 1.256 . S
O141 Cd133 2.381 . S
O141 C140 1.258 . S
O142 Cd133 2.378 . S
O142 C140 1.256 . S
O143 Cd144 2.300 . S
O143 C150 1.275 . S
Cd144 O143 2.300 . S
Cd144 O152 2.381 . S
Cd144 O153 2.378 . S
O145 Cd146 2.385 . S
O145 C150 1.255 . S
Cd146 O145 2.385 . S
Cd146 O147 2.317 . S
O147 Cd146 2.317 . S
O147 C148 1.232 . S
C148 O147 1.232 . S
C148 O149 1.218 . S
O149 C148 1.218 . S
C150 O143 1.275 . S
C150 O145 1.255 . S
C151 O152 1.258 . S
C151 O153 1.256 . S
O152 Cd144 2.381 . S
O152 C151 1.258 . S
O153 Cd144 2.378 . S
O153 C151 1.256 . S
O154 Cd155 2.300 . S
O154 C161 1.275 . S
Cd155 O154 2.300 . S
Cd155 O163 2.381 . S
Cd155 O164 2.378 . S
O156 Cd157 2.385 . S
O156 C161 1.255 . S
Cd157 O156 2.385 . S
Cd157 O158 2.317 . S
O158 Cd157 2.317 . S
O158 C159 1.232 . S
C159 O158 1.232 . S
C159 O160 1.218 . S
O160 C159 1.218 . S
C161 O154 1.275 . S
C161 O156 1.255 . S
C162 O163 1.258 . S
C162 O164 1.256 . S
O163 Cd155 2.381 . S
O163 C162 1.258 . S
O164 Cd155 2.378 . S
O164 C162 1.256 . S
O165 Cd166 2.300 . S
O165 C172 1.275 . S
Cd166 O165 2.300 . S
Cd166 O174 2.381 . S
Cd166 O175 2.378 . S
O167 Cd168 2.385 . S
O167 C172 1.255 . S
Cd168 O167 2.385 . S
Cd168 O169 2.317 . S
O169 Cd168 2.317 . S
O169 C170 1.232 . S
C170 O169 1.232 . S
C170 O171 1.218 . S
O171 C170 1.218 . S
C172 O165 1.275 . S
C172 O167 1.255 . S
C173 O174 1.258 . S
C173 O175 1.256 . S
O174 Cd166 2.381 . S
O174 C173 1.258 . S
O175 Cd166 2.378 . S
O175 C173 1.256 . S
O176 Cd177 2.300 . S
O176 C183 1.275 . S
Cd177 O176 2.300 . S
Cd177 O185 2.381 . S
Cd177 O186 2.378 . S
O178 Cd179 2.385 . S
O178 C183 1.255 . S
Cd179 O178 2.385 . S
Cd179 O180 2.317 . S
O180 Cd179 2.317 . S
O180 C181 1.232 . S
C181 O180 1.232 . S
C181 O182 1.218 . S
O182 C181 1.218 . S
C183 O176 1.275 . S
C183 O178 1.255 . S
C184 O185 1.258 . S
C184 O186 1.256 . S
O185 Cd177 2.381 . S
O185 C184 1.258 . S
O186 Cd177 2.378 . S
O186 C184 1.256 . S
O187 Cd188 2.300 . S
O187 C194 1.275 . S
Cd188 O187 2.300 . S
Cd188 O196 2.381 . S
Cd188 O197 2.378 . S
O189 Cd190 2.385 . S
O189 C194 1.255 . S
Cd190 O189 2.385 . S
Cd190 O191 2.317 . S
O191 Cd190 2.317 . S
O191 C192 1.232 . S
C192 O191 1.232 . S
C192 O193 1.218 . S
O193 C192 1.218 . S
C194 O187 1.275 . S
C194 O189 1.255 . S
C195 O196 1.258 . S
C195 O197 1.256 . S
O196 Cd188 2.381 . S
O196 C195 1.258 . S
O197 Cd188 2.378 . S
O197 C195 1.256 . S
Gd198 N229 2.661 . S
Gd198 N235 2.601 . S
Gd198 O242 2.545 . S
Gd198 O243 2.606 1_545 S
Gd198 O245 2.429 . S
Gd198 O246 2.545 1_545 S
Gd198 O247 2.412 . S
Gd198 O249 2.362 . S
Gd198 O250 2.324 1_545 S
Gd198 C257 2.828 . S
Gd199 N208 2.661 . S
Gd199 N212 2.601 . S
Gd199 O243 2.362 1_556 S
Gd199 O244 2.324 1_565 S
Gd199 O248 2.545 . S
Gd199 O249 2.606 1_566 S
Gd199 O251 2.429 . S
Gd199 O252 2.545 1_565 S
Gd199 O253 2.412 1_565 S
Gd199 C266 2.828 . S
C200 C203 1.417 . S
C200 C205 1.431 . S
C200 C206 1.412 . S
C201 C204 1.437 . S
C201 C205 1.317 . S
C201 H220 0.929 . S
C202 C203 1.426 . S
C202 C204 1.413 . S
C202 N212 1.359 . S
C203 C200 1.417 . S
C203 C202 1.426 . S
C203 N208 1.350 . S
C204 C201 1.437 . S
C204 C202 1.413 . S
C204 C214 1.391 . S
C205 C200 1.431 . S
C205 C201 1.317 . S
C205 H216 0.930 . S
C206 C200 1.412 . S
C206 C207 1.355 . S
C206 H218 0.930 . S
C207 C206 1.355 . S
C207 C209 1.402 . S
C207 H219 0.930 . S
N208 Gd199 2.661 . S
N208 C203 1.350 . S
N208 C209 1.307 . S
C209 C207 1.402 . S
C209 N208 1.307 . S
C209 H210 0.930 . S
H210 C209 0.930 . S
C211 N212 1.334 . S
C211 C213 1.394 . S
C211 H215 0.930 . S
N212 Gd199 2.601 . S
N212 C202 1.359 . S
N212 C211 1.334 . S
C213 C211 1.394 . S
C213 C214 1.359 . S
C213 H225 0.930 . S
C214 C204 1.391 . S
C214 C213 1.359 . S
C214 H226 0.929 . S
H215 C211 0.930 . S
H216 C205 0.930 . S
H217 C234 0.930 . S
H218 C206 0.930 . S
H219 C207 0.930 . S
H220 C201 0.929 . S
H221 C239 0.930 . S
H222 C230 0.930 . S
H223 C231 0.930 . S
H224 C255 0.929 . S
H225 C213 0.930 . S
H226 C214 0.929 . S
H227 C256 0.930 . S
H228 C237 0.930 . S
N229 Gd198 2.661 . S
N229 C233 1.350 . S
N229 C234 1.307 . S
C230 H222 0.930 . S
C230 C231 1.355 . S
C230 C232 1.412 . S
C231 H223 0.930 . S
C231 C230 1.355 . S
C231 C234 1.402 . S
C232 C230 1.412 . S
C232 C233 1.417 . S
C232 C256 1.431 . S
C233 N229 1.350 . S
C233 C232 1.417 . S
C233 C236 1.426 . S
C234 H217 0.930 . S
C234 N229 1.307 . S
C234 C231 1.402 . S
N235 Gd198 2.601 . S
N235 C236 1.359 . S
N235 C239 1.334 . S
C236 C233 1.426 . S
C236 N235 1.359 . S
C236 C240 1.413 . S
C237 H228 0.930 . S
C237 C238 1.359 . S
C237 C239 1.394 . S
C238 C237 1.359 . S
C238 C240 1.391 . S
C238 H241 0.929 . S
C239 H221 0.930 . S
C239 N235 1.334 . S
C239 C237 1.394 . S
C240 C236 1.413 . S
C240 C238 1.391 . S
C240 C255 1.437 . S
H241 C238 0.929 . S
O242 Gd198 2.545 . S
O242 C257 1.258 . S
O243 Gd198 2.606 1_565 S
O243 Gd199 2.362 1_554 S
O243 C254 1.284 . S
O244 Gd199 2.324 1_545 S
O244 C264 1.254 . S
O245 Gd198 2.429 . S
O245 C264 1.268 1_554 S
O246 Gd198 2.545 1_565 S
O246 C254 1.250 . S
O247 Gd198 2.412 . S
O247 C257 1.252 . S
O248 Gd199 2.545 . S
O248 C266 1.258 . S
O249 Gd198 2.362 . S
O249 Gd199 2.606 1_544 S
O249 C265 1.284 1_554 S
O250 Gd198 2.324 1_565 S
O250 C273 1.254 . S
O251 Gd199 2.429 . S
O251 C273 1.268 1_556 S
O252 Gd199 2.545 1_545 S
O252 C265 1.250 . S
O253 Gd199 2.412 1_545 S
O253 C266 1.252 1_545 S
C254 O243 1.284 . S
C254 O246 1.250 . S
C255 H224 0.929 . S
C255 C240 1.437 . S
C255 C256 1.317 . S
C256 H227 0.930 . S
C256 C232 1.431 . S
C256 C255 1.317 . S
C257 Gd198 2.828 . S
C257 O242 1.258 . S
C257 O247 1.252 . S
C257 C258 1.497 . S
C258 C257 1.497 . S
C258 C259 1.395 . S
C258 C260 1.380 1_545 S
C259 C258 1.395 . S
C259 C262 1.398 . S
C259 H274 0.930 . S
C260 C258 1.380 1_565 S
C260 C261 1.391 . S
C260 H275 0.930 . S
C261 C260 1.391 . S
C261 C263 1.387 . S
C262 C259 1.398 . S
C262 C263 1.380 1_545 S
C262 H276 0.930 . S
C263 C261 1.387 . S
C263 C262 1.380 1_565 S
C263 H277 0.930 . S
C264 O244 1.254 . S
C264 O245 1.268 1_556 S
C265 O249 1.284 1_556 S
C265 O252 1.250 . S
C266 Gd199 2.828 . S
C266 O248 1.258 . S
C266 O253 1.252 1_565 S
C266 C267 1.497 . S
C267 C266 1.497 . S
C267 C268 1.395 . S
C267 C269 1.380 1_565 S
C268 C267 1.395 . S
C268 C271 1.398 . S
C268 H278 0.930 . S
C269 C267 1.380 1_545 S
C269 C270 1.391 . S
C269 H279 0.930 . S
C270 C269 1.391 . S
C270 C272 1.387 . S
C271 C268 1.398 . S
C271 C272 1.380 1_565 S
C271 H280 0.930 . S
C272 C270 1.387 . S
C272 C271 1.380 1_545 S
C272 H281 0.930 . S
C273 O250 1.254 . S
C273 O251 1.268 1_554 S
H274 C259 0.930 . S
H275 C260 0.930 . S
H276 C262 0.930 . S
H277 C263 0.930 . S
H278 C268 0.930 . S
H279 C269 0.930 . S
H280 C271 0.930 . S
H281 C272 0.930 . S
Gd282 N313 2.661 . S
Gd282 N319 2.601 . S
Gd282 O326 2.545 . S
Gd282 O327 2.606 1_655 S
Gd282 O329 2.429 . S
Gd282 O330 2.545 1_655 S
Gd282 O331 2.412 1_655 S
Gd282 O333 2.362 . S
Gd282 O334 2.324 1_655 S
Gd282 C341 2.828 . S
Gd283 N292 2.661 . S
Gd283 N296 2.601 . S
Gd283 O327 2.362 1_556 S
Gd283 O328 2.324 1_455 S
Gd283 O332 2.545 . S
Gd283 O333 2.606 1_456 S
Gd283 O335 2.419 1_556 S
Gd283 O336 2.545 1_455 S
Gd283 O337 2.412 1_455 S
Gd283 C350 2.828 . S
C284 C287 1.417 . S
C284 C289 1.431 . S
C284 C290 1.412 . S
C285 C288 1.437 . S
C285 C289 1.317 . S
C285 H304 0.929 . S
C286 C287 1.426 . S
C286 C288 1.413 . S
C286 N296 1.359 . S
C287 C284 1.417 . S
C287 C286 1.426 . S
C287 N292 1.350 . S
C288 C285 1.437 . S
C288 C286 1.413 . S
C288 C298 1.391 . S
C289 C284 1.431 . S
C289 C285 1.317 . S
C289 H300 0.930 . S
C290 C284 1.412 . S
C290 C291 1.355 . S
C290 H302 0.930 . S
C291 C290 1.355 . S
C291 C293 1.402 . S
C291 H303 0.930 . S
N292 Gd283 2.661 . S
N292 C287 1.350 . S
N292 C293 1.307 . S
C293 C291 1.402 . S
C293 N292 1.307 . S
C293 H294 0.930 1_455 S
H294 C293 0.930 1_655 S
C295 N296 1.334 . S
C295 C297 1.394 . S
C295 H299 0.930 . S
N296 Gd283 2.601 . S
N296 C286 1.359 . S
N296 C295 1.334 . S
C297 C295 1.394 . S
C297 C298 1.359 . S
C297 H309 0.930 . S
C298 C288 1.391 . S
C298 C297 1.359 . S
C298 H310 0.929 . S
H299 C295 0.930 . S
H300 C289 0.930 . S
H301 C318 0.930 1_455 S
H302 C290 0.930 . S
H303 C291 0.930 . S
H304 C285 0.929 . S
H305 C323 0.930 . S
H306 C314 0.930 . S
H307 C315 0.930 . S
H308 C339 0.929 . S
H309 C297 0.930 . S
H310 C298 0.929 . S
H311 C340 0.930 . S
H312 C321 0.930 . S
N313 Gd282 2.661 . S
N313 C317 1.350 . S
N313 C318 1.307 . S
C314 H306 0.930 . S
C314 C315 1.355 . S
C314 C316 1.412 . S
C315 H307 0.930 . S
C315 C314 1.355 . S
C315 C318 1.402 . S
C316 C314 1.412 . S
C316 C317 1.417 . S
C316 C340 1.431 . S
C317 N313 1.350 . S
C317 C316 1.417 . S
C317 C320 1.426 . S
C318 H301 0.930 1_655 S
C318 N313 1.307 . S
C318 C315 1.402 . S
N319 Gd282 2.601 . S
N319 C320 1.359 . S
N319 C323 1.334 . S
C320 C317 1.426 . S
C320 N319 1.359 . S
C320 C324 1.413 . S
C321 H312 0.930 . S
C321 C322 1.359 . S
C321 C323 1.394 . S
C322 C321 1.359 . S
C322 C324 1.391 . S
C322 H325 0.929 . S
C323 H305 0.930 . S
C323 N319 1.334 . S
C323 C321 1.394 . S
C324 C320 1.413 . S
C324 C322 1.391 . S
C324 C339 1.437 . S
H325 C322 0.929 . S
O326 Gd282 2.545 . S
O326 C341 1.258 . S
O327 Gd282 2.606 1_455 S
O327 Gd283 2.362 1_554 S
O327 C338 1.284 . S
O328 Gd283 2.324 1_655 S
O328 C348 1.254 . S
O329 Gd282 2.429 . S
O329 C348 1.268 1_554 S
O330 Gd282 2.545 1_455 S
O330 C338 1.250 . S
O331 Gd282 2.412 1_455 S
O331 C341 1.252 1_455 S
O332 Gd283 2.545 . S
O332 C350 1.258 . S
O333 Gd282 2.362 . S
O333 Gd283 2.606 1_654 S
O333 C349 1.284 1_554 S
O334 Gd282 2.324 1_455 S
O334 C357 1.254 . S
O335 Gd283 2.419 1_554 S
O335 C357 1.290 . S
O336 Gd283 2.545 1_655 S
O336 C349 1.250 . S
O337 Gd283 2.412 1_655 S
O337 C350 1.252 1_655 S
C338 O327 1.284 . S
C338 O330 1.250 . S
C339 H308 0.929 . S
C339 C324 1.437 . S
C339 C340 1.317 . S
C340 H311 0.930 . S
C340 C316 1.431 . S
C340 C339 1.317 . S
C341 Gd282 2.828 . S
C341 O326 1.258 . S
C341 O331 1.252 1_655 S
C341 C342 1.497 1_655 S
C342 C341 1.497 1_455 S
C342 C343 1.395 1_455 S
C342 C344 1.380 . S
C343 C342 1.395 1_655 S
C343 C346 1.398 . S
C343 H358 0.930 . S
C344 C342 1.380 . S
C344 C345 1.391 . S
C344 H359 0.930 . S
C345 C344 1.391 . S
C345 C347 1.387 . S
C346 C343 1.398 . S
C346 C347 1.380 1_655 S
C346 H360 0.930 . S
C347 C345 1.387 . S
C347 C346 1.380 1_455 S
C347 H361 0.930 . S
C348 O328 1.254 . S
C348 O329 1.268 1_556 S
C349 O333 1.284 1_556 S
C349 O336 1.250 . S
C350 Gd283 2.828 . S
C350 O332 1.258 . S
C350 O337 1.252 1_455 S
C350 C351 1.497 1_455 S
C351 C350 1.497 1_655 S
C351 C352 1.395 1_655 S
C351 C353 1.380 . S
C352 C351 1.395 1_455 S
C352 C355 1.398 . S
C352 H362 0.930 . S
C353 C351 1.380 . S
C353 C354 1.391 . S
C353 H363 0.930 . S
C354 C353 1.391 . S
C354 C356 1.387 . S
C355 C352 1.398 . S
C355 C356 1.380 1_455 S
C355 H364 0.930 . S
C356 C354 1.387 . S
C356 C355 1.380 1_655 S
C356 H365 0.930 . S
C357 O334 1.254 . S
C357 O335 1.290 . S
H358 C343 0.930 . S
H359 C344 0.930 . S
H360 C346 0.930 . S
H361 C347 0.930 . S
H362 C352 0.930 . S
H363 C353 0.930 . S
H364 C355 0.930 . S
H365 C356 0.930 . S
Gd366 N397 2.661 . S
Gd366 N403 2.601 . S
Gd366 O410 2.545 . S
Gd366 O411 2.601 1_556 S
Gd366 O413 2.429 . S
Gd366 O414 2.545 . S
Gd366 O415 2.412 . S
Gd366 O417 2.362 1_556 S
Gd366 O418 2.324 . S
Gd366 C425 2.828 . S
Gd367 N376 2.661 . S
Gd367 N380 2.601 . S
Gd367 O411 2.369 . S
Gd367 O412 2.324 . S
Gd367 O416 2.545 . S
Gd367 O417 2.606 . S
Gd367 O419 2.429 . S
Gd367 O420 2.545 . S
Gd367 O421 2.412 . S
Gd367 C434 2.828 . S
C368 C371 1.417 . S
C368 C373 1.431 . S
C368 C374 1.412 . S
C369 C372 1.437 . S
C369 C373 1.317 . S
C369 H388 0.929 . S
C370 C371 1.426 . S
C370 C372 1.413 . S
C370 N380 1.359 . S
C371 C368 1.417 . S
C371 C370 1.426 . S
C371 N376 1.350 . S
C372 C369 1.437 . S
C372 C370 1.413 . S
C372 C382 1.391 . S
C373 C368 1.431 . S
C373 C369 1.317 . S
C373 H384 0.930 . S
C374 C368 1.412 . S
C374 C375 1.355 . S
C374 H386 0.930 . S
C375 C374 1.355 . S
C375 C377 1.402 . S
C375 H387 0.930 . S
N376 Gd367 2.661 . S
N376 C371 1.350 . S
N376 C377 1.307 . S
C377 C375 1.402 . S
C377 N376 1.307 . S
C377 H378 0.930 . S
H378 C377 0.930 . S
C379 N380 1.334 . S
C379 C381 1.394 . S
C379 H383 0.930 . S
N380 Gd367 2.601 . S
N380 C370 1.359 . S
N380 C379 1.334 . S
C381 C379 1.394 . S
C381 C382 1.359 . S
C381 H393 0.930 . S
C382 C372 1.391 . S
C382 C381 1.359 . S
C382 H394 0.929 . S
H383 C379 0.930 . S
H384 C373 0.930 . S
H385 C402 0.930 . S
H386 C374 0.930 . S
H387 C375 0.930 . S
H388 C369 0.929 . S
H389 C407 0.930 . S
H390 C398 0.930 . S
H391 C399 0.930 . S
H392 C423 0.929 . S
H393 C381 0.930 . S
H394 C382 0.929 . S
H395 C424 0.930 . S
H396 C405 0.930 . S
N397 Gd366 2.661 . S
N397 C401 1.350 . S
N397 C402 1.307 . S
C398 H390 0.930 . S
C398 C399 1.355 . S
C398 C400 1.412 . S
C399 H391 0.930 . S
C399 C398 1.355 . S
C399 C402 1.402 . S
C400 C398 1.412 . S
C400 C401 1.417 . S
C400 C424 1.431 . S
C401 N397 1.350 . S
C401 C400 1.417 . S
C401 C404 1.426 . S
C402 H385 0.930 . S
C402 N397 1.307 . S
C402 C399 1.402 . S
N403 Gd366 2.601 . S
N403 C404 1.359 . S
N403 C407 1.334 . S
C404 C401 1.426 . S
C404 N403 1.359 . S
C404 C408 1.413 . S
C405 H396 0.930 . S
C405 C406 1.359 . S
C405 C407 1.394 . S
C406 C405 1.359 . S
C406 C408 1.391 . S
C406 H409 0.929 . S
C407 H389 0.930 . S
C407 N403 1.334 . S
C407 C405 1.394 . S
C408 C404 1.413 . S
C408 C406 1.391 . S
C408 C423 1.437 . S
H409 C406 0.929 . S
O410 Gd366 2.545 . S
O410 C425 1.258 . S
O411 Gd366 2.601 1_554 S
O411 Gd367 2.369 . S
O411 C422 1.279 1_554 S
O412 Gd367 2.324 . S
O412 C432 1.254 . S
O413 Gd366 2.429 . S
O413 C432 1.268 1_556 S
O414 Gd366 2.545 . S
O414 C422 1.250 . S
O415 Gd366 2.412 . S
O415 C425 1.252 . S
O416 Gd367 2.545 . S
O416 C434 1.258 . S
O417 Gd366 2.362 1_554 S
O417 Gd367 2.606 . S
O417 C433 1.284 . S
O418 Gd366 2.324 . S
O418 C441 1.254 . S
O419 Gd367 2.429 . S
O419 C441 1.268 1_554 S
O420 Gd367 2.545 . S
O420 C433 1.250 . S
O421 Gd367 2.412 . S
O421 C434 1.252 . S
C422 O411 1.279 1_556 S
C422 O414 1.250 . S
C423 H392 0.929 . S
C423 C408 1.437 . S
C423 C424 1.317 . S
C424 H395 0.930 . S
C424 C400 1.431 . S
C424 C423 1.317 . S
C425 Gd366 2.828 . S
C425 O410 1.258 . S
C425 O415 1.252 . S
C425 C426 1.497 . S
C426 C425 1.497 . S
C426 C427 1.395 . S
C426 C428 1.380 . S
C427 C426 1.395 . S
C427 C430 1.398 . S
C427 H442 0.930 . S
C428 C426 1.380 . S
C428 C429 1.391 . S
C428 H443 0.930 . S
C429 C428 1.391 . S
C429 C431 1.387 . S
C430 C427 1.398 . S
C430 C431 1.380 . S
C430 H444 0.930 . S
C431 C429 1.387 . S
C431 C430 1.380 . S
C431 H445 0.930 . S
C432 O412 1.254 . S
C432 O413 1.268 1_554 S
C433 O417 1.284 . S
C433 O420 1.250 . S
C434 Gd367 2.828 . S
C434 O416 1.258 . S
C434 O421 1.252 . S
C434 C435 1.497 . S
C435 C434 1.497 . S
C435 C436 1.395 . S
C435 C437 1.380 . S
C436 C435 1.395 . S
C436 C439 1.398 . S
C436 H446 0.930 . S
C437 C435 1.380 . S
C437 C438 1.391 . S
C437 H447 0.930 . S
C438 C437 1.391 . S
C438 C440 1.387 . S
C439 C436 1.398 . S
C439 C440 1.380 . S
C439 H448 0.930 . S
C440 C438 1.387 . S
C440 C439 1.380 . S
C440 H449 0.930 . S
C441 O418 1.254 . S
C441 O419 1.268 1_556 S
H442 C427 0.930 . S
H443 C428 0.930 . S
H444 C430 0.930 . S
H445 C431 0.930 . S
H446 C436 0.930 . S
H447 C437 0.930 . S
H448 C439 0.930 . S
H449 C440 0.930 . S
Gd450 N481 2.661 . S
Gd450 N487 2.601 . S
Gd450 O494 2.545 . S
Gd450 O495 2.606 . S
Gd450 O497 2.429 . S
Gd450 O498 2.545 . S
Gd450 O499 2.412 . S
Gd450 O501 2.362 . S
Gd450 O502 2.324 . S
Gd450 C509 2.828 . S
Gd451 N460 2.661 . S
Gd451 N464 2.601 . S
Gd451 O495 2.362 . S
Gd451 O496 2.324 . S
Gd451 O500 2.545 . S
Gd451 O501 2.606 . S
Gd451 O503 2.429 . S
Gd451 O504 2.545 . S
Gd451 O505 2.412 . S
Gd451 C518 2.828 . S
C452 C455 1.417 . S
C452 C457 1.431 . S
C452 C458 1.412 . S
C453 C456 1.437 . S
C453 C457 1.317 . S
C453 H472 0.929 . S
C454 C455 1.426 . S
C454 C456 1.413 . S
C454 N464 1.359 . S
C455 C452 1.417 . S
C455 C454 1.426 . S
C455 N460 1.350 . S
C456 C453 1.437 . S
C456 C454 1.413 . S
C456 C466 1.391 . S
C457 C452 1.431 . S
C457 C453 1.317 . S
C457 H468 0.930 1_455 S
C458 C452 1.412 . S
C458 C459 1.355 . S
C458 H470 0.930 1_455 S
C459 C458 1.355 . S
C459 C461 1.402 . S
C459 H471 0.930 . S
N460 Gd451 2.661 . S
N460 C455 1.350 . S
N460 C461 1.307 . S
C461 C459 1.402 . S
C461 N460 1.307 . S
C461 H462 0.930 . S
H462 C461 0.930 . S
C463 N464 1.334 . S
C463 C465 1.394 . S
C463 H467 0.930 . S
N464 Gd451 2.601 . S
N464 C454 1.359 . S
N464 C463 1.334 . S
C465 C463 1.394 . S
C465 C466 1.359 . S
C465 H477 0.930 . S
C466 C456 1.391 . S
C466 C465 1.359 . S
C466 H478 0.929 . S
H467 C463 0.930 . S
H468 C457 0.930 1_655 S
H469 C486 0.930 . S
H470 C458 0.930 1_655 S
H471 C459 0.930 . S
H472 C453 0.929 . S
H473 C491 0.930 . S
H474 C482 0.930 . S
H475 C483 0.930 . S
H476 C507 0.929 . S
H477 C465 0.930 . S
H478 C466 0.929 . S
H479 C508 0.930 . S
H480 C489 0.930 . S
N481 Gd450 2.661 . S
N481 C485 1.350 . S
N481 C486 1.307 . S
C482 H474 0.930 . S
C482 C483 1.355 . S
C482 C484 1.412 . S
C483 H475 0.930 . S
C483 C482 1.355 . S
C483 C486 1.402 . S
C484 C482 1.412 . S
C484 C485 1.417 . S
C484 C508 1.431 . S
C485 N481 1.350 . S
C485 C484 1.417 . S
C485 C488 1.426 . S
C486 H469 0.930 . S
C486 N481 1.307 . S
C486 C483 1.402 . S
N487 Gd450 2.601 . S
N487 C488 1.359 . S
N487 C491 1.334 . S
C488 C485 1.426 . S
C488 N487 1.359 . S
C488 C492 1.413 . S
C489 H480 0.930 . S
C489 C490 1.359 . S
C489 C491 1.394 . S
C490 C489 1.359 . S
C490 C492 1.391 . S
C490 H493 0.929 . S
C491 H473 0.930 . S
C491 N487 1.334 . S
C491 C489 1.394 . S
C492 C488 1.413 . S
C492 C490 1.391 . S
C492 C507 1.437 . S
H493 C490 0.929 . S
O494 Gd450 2.545 . S
O494 C509 1.258 . S
O495 Gd450 2.606 . S
O495 Gd451 2.362 . S
O495 C506 1.284 . S
O496 Gd451 2.324 . S
O496 C516 1.254 . S
O497 Gd450 2.429 . S
O497 C516 1.268 . S
O498 Gd450 2.545 . S
O498 C506 1.250 . S
O499 Gd450 2.412 . S
O499 C509 1.252 . S
O500 Gd451 2.545 . S
O500 C518 1.258 . S
O501 Gd450 2.362 . S
O501 Gd451 2.606 . S
O501 C517 1.284 . S
O502 Gd450 2.324 . S
O502 C525 1.254 . S
O503 Gd451 2.429 . S
O503 C525 1.268 . S
O504 Gd451 2.545 . S
O504 C517 1.250 . S
O505 Gd451 2.412 . S
O505 C518 1.252 . S
C506 O495 1.284 . S
C506 O498 1.250 . S
C507 H476 0.929 . S
C507 C492 1.437 . S
C507 C508 1.317 . S
C508 H479 0.930 . S
C508 C484 1.431 . S
C508 C507 1.317 . S
C509 Gd450 2.828 . S
C509 O494 1.258 . S
C509 O499 1.252 . S
C509 C510 1.497 . S
C510 C509 1.497 . S
C510 C511 1.395 . S
C510 C512 1.380 . S
C511 C510 1.395 . S
C511 C514 1.398 . S
C511 H526 0.930 . S
C512 C510 1.380 . S
C512 C513 1.391 . S
C512 H527 0.930 . S
C513 C512 1.391 . S
C513 C515 1.387 . S
C514 C511 1.398 . S
C514 C515 1.380 . S
C514 H528 0.930 . S
C515 C513 1.387 . S
C515 C514 1.380 . S
C515 H529 0.930 . S
C516 O496 1.254 . S
C516 O497 1.268 . S
C517 O501 1.284 . S
C517 O504 1.250 . S
C518 Gd451 2.828 . S
C518 O500 1.258 . S
C518 O505 1.252 . S
C518 C519 1.497 . S
C519 C518 1.497 . S
C519 C520 1.395 . S
C519 C521 1.380 . S
C520 C519 1.395 . S
C520 C523 1.398 . S
C520 H530 0.930 . S
C521 C519 1.380 . S
C521 C522 1.391 . S
C521 H531 0.930 . S
C522 C521 1.391 . S
C522 C524 1.387 . S
C523 C520 1.398 . S
C523 C524 1.380 . S
C523 H532 0.930 . S
C524 C522 1.387 . S
C524 C523 1.380 . S
C524 H533 0.930 . S
C525 O502 1.254 . S
C525 O503 1.268 . S
H526 C511 0.930 . S
H527 C512 0.930 . S
H528 C514 0.930 . S
H529 C515 0.930 . S
H530 C520 0.930 . S
H531 C521 0.930 . S
H532 C523 0.930 . S
H533 C524 0.930 . S
Gd534 N565 2.661 . S
Gd534 N571 2.601 . S
Gd534 O578 2.545 . S
Gd534 O579 2.606 . S
Gd534 O581 2.429 . S
Gd534 O582 2.545 . S
Gd534 O583 2.412 . S
Gd534 O585 2.362 . S
Gd534 O586 2.324 . S
Gd534 C593 2.828 . S
Gd535 N544 2.661 . S
Gd535 N548 2.601 . S
Gd535 O579 2.362 . S
Gd535 O580 2.324 . S
Gd535 O584 2.545 . S
Gd535 O585 2.606 . S
Gd535 O587 2.429 . S
Gd535 O588 2.545 . S
Gd535 O589 2.412 . S
Gd535 C602 2.828 . S
C536 C539 1.417 . S
C536 C541 1.431 . S
C536 C542 1.412 . S
C537 C540 1.437 . S
C537 C541 1.317 . S
C537 H556 0.929 . S
C538 C539 1.426 . S
C538 C540 1.413 . S
C538 N548 1.359 . S
C539 C536 1.417 . S
C539 C538 1.426 . S
C539 N544 1.350 . S
C540 C537 1.437 . S
C540 C538 1.413 . S
C540 C550 1.391 . S
C541 C536 1.431 . S
C541 C537 1.317 . S
C541 H552 0.930 . S
C542 C536 1.412 . S
C542 C543 1.355 . S
C542 H554 0.930 . S
C543 C542 1.355 . S
C543 C545 1.402 . S
C543 H555 0.930 . S
N544 Gd535 2.661 . S
N544 C539 1.350 . S
N544 C545 1.307 . S
C545 C543 1.402 . S
C545 N544 1.307 . S
C545 H546 0.930 . S
H546 C545 0.930 . S
C547 N548 1.334 . S
C547 C549 1.394 . S
C547 H551 0.930 . S
N548 Gd535 2.601 . S
N548 C538 1.359 . S
N548 C547 1.334 . S
C549 C547 1.394 . S
C549 C550 1.359 . S
C549 H561 0.930 . S
C550 C540 1.391 . S
C550 C549 1.359 . S
C550 H562 0.929 . S
H551 C547 0.930 . S
H552 C541 0.930 . S
H553 C570 0.930 . S
H554 C542 0.930 . S
H555 C543 0.930 . S
H556 C537 0.929 . S
H557 C575 0.930 . S
H558 C566 0.930 . S
H559 C567 0.930 . S
H560 C591 0.929 . S
H561 C549 0.930 . S
H562 C550 0.929 . S
H563 C592 0.930 . S
H564 C573 0.930 . S
N565 Gd534 2.661 . S
N565 C569 1.350 . S
N565 C570 1.307 . S
C566 H558 0.930 . S
C566 C567 1.355 . S
C566 C568 1.412 . S
C567 H559 0.930 . S
C567 C566 1.355 . S
C567 C570 1.402 . S
C568 C566 1.412 . S
C568 C569 1.417 . S
C568 C592 1.431 . S
C569 N565 1.350 . S
C569 C568 1.417 . S
C569 C572 1.426 . S
C570 H553 0.930 . S
C570 N565 1.307 . S
C570 C567 1.402 . S
N571 Gd534 2.601 . S
N571 C572 1.359 . S
N571 C575 1.334 . S
C572 C569 1.426 . S
C572 N571 1.359 . S
C572 C576 1.413 . S
C573 H564 0.930 . S
C573 C574 1.359 . S
C573 C575 1.394 . S
C574 C573 1.359 . S
C574 C576 1.391 . S
C574 H577 0.929 . S
C575 H557 0.930 . S
C575 N571 1.334 . S
C575 C573 1.394 . S
C576 C572 1.413 . S
C576 C574 1.391 . S
C576 C591 1.437 . S
H577 C574 0.929 . S
O578 Gd534 2.545 . S
O578 C593 1.258 . S
O579 Gd534 2.606 . S
O579 Gd535 2.362 . S
O579 C590 1.284 . S
O580 Gd535 2.324 . S
O580 C600 1.254 . S
O581 Gd534 2.429 . S
O581 C600 1.268 . S
O582 Gd534 2.545 . S
O582 C590 1.250 . S
O583 Gd534 2.412 . S
O583 C593 1.252 . S
O584 Gd535 2.545 . S
O584 C602 1.258 . S
O585 Gd534 2.362 . S
O585 Gd535 2.606 . S
O585 C601 1.284 . S
O586 Gd534 2.324 . S
O586 C609 1.254 . S
O587 Gd535 2.429 . S
O587 C609 1.268 . S
O588 Gd535 2.545 . S
O588 C601 1.250 . S
O589 Gd535 2.412 . S
O589 C602 1.252 . S
C590 O579 1.284 . S
C590 O582 1.250 . S
C591 H560 0.929 . S
C591 C576 1.437 . S
C591 C592 1.317 . S
C592 H563 0.930 . S
C592 C568 1.431 . S
C592 C591 1.317 . S
C593 Gd534 2.828 . S
C593 O578 1.258 . S
C593 O583 1.252 . S
C593 C594 1.497 . S
C594 C593 1.497 . S
C594 C595 1.395 . S
C594 C596 1.380 . S
C595 C594 1.395 . S
C595 C598 1.398 . S
C595 H610 0.930 . S
C596 C594 1.380 . S
C596 C597 1.391 . S
C596 H611 0.930 . S
C597 C596 1.391 . S
C597 C599 1.387 . S
C598 C595 1.398 . S
C598 C599 1.380 . S
C598 H612 0.930 . S
C599 C597 1.387 . S
C599 C598 1.380 . S
C599 H613 0.930 . S
C600 O580 1.254 . S
C600 O581 1.268 . S
C601 O585 1.284 . S
C601 O588 1.250 . S
C602 Gd535 2.828 . S
C602 O584 1.258 . S
C602 O589 1.252 . S
C602 C603 1.497 . S
C603 C602 1.497 . S
C603 C604 1.395 . S
C603 C605 1.380 . S
C604 C603 1.395 . S
C604 C607 1.398 . S
C604 H614 0.930 . S
C605 C603 1.380 . S
C605 C606 1.391 . S
C605 H615 0.930 . S
C606 C605 1.391 . S
C606 C608 1.387 . S
C607 C604 1.398 . S
C607 C608 1.380 . S
C607 H616 0.930 . S
C608 C606 1.387 . S
C608 C607 1.380 . S
C608 H617 0.930 . S
C609 O586 1.254 . S
C609 O587 1.268 . S
H610 C595 0.930 . S
H611 C596 0.930 . S
H612 C598 0.930 . S
H613 C599 0.930 . S
H614 C604 0.930 . S
H615 C605 0.930 . S
H616 C607 0.930 . S
H617 C608 0.930 . S
Gd618 N649 2.661 . S
Gd618 N655 2.601 . S
Gd618 O662 2.545 . S
Gd618 O663 2.606 . S
Gd618 O665 2.429 . S
Gd618 O666 2.545 . S
Gd618 O667 2.412 . S
Gd618 O669 2.362 . S
Gd618 O670 2.324 . S
Gd618 C677 2.828 . S
Gd619 N628 2.661 . S
Gd619 N632 2.601 . S
Gd619 O663 2.362 . S
Gd619 O664 2.324 . S
Gd619 O668 2.545 . S
Gd619 O669 2.606 . S
Gd619 O671 2.429 . S
Gd619 O672 2.545 . S
Gd619 O673 2.412 . S
Gd619 C686 2.828 . S
C620 C623 1.417 . S
C620 C625 1.431 . S
C620 C626 1.412 . S
C621 C624 1.437 . S
C621 C625 1.317 . S
C621 H640 0.929 . S
C622 C623 1.426 . S
C622 C624 1.413 . S
C622 N632 1.359 . S
C623 C620 1.417 . S
C623 C622 1.426 . S
C623 N628 1.350 . S
C624 C621 1.437 . S
C624 C622 1.413 . S
C624 C634 1.391 . S
C625 C620 1.431 . S
C625 C621 1.317 . S
C625 H636 0.930 . S
C626 C620 1.412 . S
C626 C627 1.355 . S
C626 H638 0.930 . S
C627 C626 1.355 . S
C627 C629 1.402 . S
C627 H639 0.930 . S
N628 Gd619 2.661 . S
N628 C623 1.350 . S
N628 C629 1.307 . S
C629 C627 1.402 . S
C629 N628 1.307 . S
C629 H630 0.930 . S
H630 C629 0.930 . S
C631 N632 1.334 . S
C631 C633 1.394 . S
C631 H635 0.930 . S
N632 Gd619 2.601 . S
N632 C622 1.359 . S
N632 C631 1.334 . S
C633 C631 1.394 . S
C633 C634 1.359 . S
C633 H645 0.930 . S
C634 C624 1.391 . S
C634 C633 1.359 . S
C634 H646 0.929 . S
H635 C631 0.930 . S
H636 C625 0.930 . S
H637 C654 0.930 . S
H638 C626 0.930 . S
H639 C627 0.930 . S
H640 C621 0.929 . S
H641 C659 0.930 . S
H642 C650 0.930 . S
H643 C651 0.930 . S
H644 C675 0.929 . S
H645 C633 0.930 . S
H646 C634 0.929 . S
H647 C676 0.944 . S
H648 C657 0.930 . S
N649 Gd618 2.661 . S
N649 C653 1.350 . S
N649 C654 1.307 . S
C650 H642 0.930 . S
C650 C651 1.355 . S
C650 C652 1.412 . S
C651 H643 0.930 . S
C651 C650 1.355 . S
C651 C654 1.402 . S
C652 C650 1.412 . S
C652 C653 1.417 . S
C652 C676 1.431 . S
C653 N649 1.350 . S
C653 C652 1.417 . S
C653 C656 1.426 . S
C654 H637 0.930 . S
C654 N649 1.307 . S
C654 C651 1.402 . S
N655 Gd618 2.601 . S
N655 C656 1.359 . S
N655 C659 1.334 . S
C656 C653 1.426 . S
C656 N655 1.359 . S
C656 C660 1.413 . S
C657 H648 0.930 . S
C657 C658 1.359 . S
C657 C659 1.394 . S
C658 C657 1.359 . S
C658 C660 1.391 . S
C658 H661 0.929 . S
C659 H641 0.930 . S
C659 N655 1.334 . S
C659 C657 1.394 . S
C660 C656 1.413 . S
C660 C658 1.391 . S
C660 C675 1.437 . S
H661 C658 0.929 . S
O662 Gd618 2.545 . S
O662 C677 1.258 . S
O663 Gd618 2.606 . S
O663 Gd619 2.362 . S
O663 C674 1.284 . S
O664 Gd619 2.324 . S
O664 C684 1.254 . S
O665 Gd618 2.429 . S
O665 C684 1.268 . S
O666 Gd618 2.545 . S
O666 C674 1.250 . S
O667 Gd618 2.412 . S
O667 C677 1.252 . S
O668 Gd619 2.545 . S
O668 C686 1.258 . S
O669 Gd618 2.362 . S
O669 Gd619 2.606 . S
O669 C685 1.284 . S
O670 Gd618 2.324 . S
O670 C693 1.254 . S
O671 Gd619 2.429 . S
O671 C693 1.268 . S
O672 Gd619 2.545 . S
O672 C685 1.250 . S
O673 Gd619 2.412 . S
O673 C686 1.252 . S
C674 O663 1.284 . S
C674 O666 1.250 . S
C675 H644 0.929 . S
C675 C660 1.437 . S
C675 C676 1.317 . S
C676 H647 0.944 . S
C676 C652 1.431 . S
C676 C675 1.317 . S
C677 Gd618 2.828 . S
C677 O662 1.258 . S
C677 O667 1.252 . S
C677 C678 1.497 . S
C678 C677 1.497 . S
C678 C679 1.395 . S
C678 C680 1.380 . S
C679 C678 1.395 . S
C679 C682 1.398 . S
C679 H694 0.930 . S
C680 C678 1.380 . S
C680 C681 1.391 . S
C680 H695 0.930 . S
C681 C680 1.391 . S
C681 C683 1.387 . S
C682 C679 1.398 . S
C682 C683 1.380 . S
C682 H696 0.930 . S
C683 C681 1.387 . S
C683 C682 1.380 . S
C683 H697 0.930 . S
C684 O664 1.254 . S
C684 O665 1.268 . S
C685 O669 1.284 . S
C685 O672 1.250 . S
C686 Gd619 2.828 . S
C686 O668 1.258 . S
C686 O673 1.252 . S
C686 C687 1.497 . S
C687 C686 1.497 . S
C687 C688 1.395 . S
C687 C689 1.380 . S
C688 C687 1.395 . S
C688 C691 1.398 . S
C688 H698 0.930 . S
C689 C687 1.380 . S
C689 C690 1.391 . S
C689 H699 0.930 . S
C690 C689 1.391 . S
C690 C692 1.387 . S
C691 C688 1.398 . S
C691 C692 1.380 . S
C691 H700 0.930 . S
C692 C690 1.387 . S
C692 C691 1.380 . S
C692 H701 0.930 . S
C693 O670 1.254 . S
C693 O671 1.268 . S
H694 C679 0.930 . S
H695 C680 0.930 . S
H696 C682 0.930 . S
H697 C683 0.930 . S
H698 C688 0.930 . S
H699 C689 0.930 . S
H700 C691 0.930 . S
H701 C692 0.930 . S
Gd702 N733 2.661 . S
Gd702 N739 2.601 . S
Gd702 O746 2.545 . S
Gd702 O747 2.606 . S
Gd702 O749 2.429 . S
Gd702 O750 2.545 . S
Gd702 O751 2.412 . S
Gd702 O753 2.362 . S
Gd702 O754 2.324 . S
Gd702 C761 2.828 . S
Gd703 N712 2.661 . S
Gd703 N716 2.601 . S
Gd703 O747 2.362 . S
Gd703 O748 2.324 . S
Gd703 O752 2.545 . S
Gd703 O753 2.606 . S
Gd703 O755 2.429 . S
Gd703 O756 2.545 . S
Gd703 O757 2.412 . S
Gd703 C770 2.828 . S
C704 C707 1.417 . S
C704 C709 1.431 . S
C704 C710 1.412 . S
C705 C708 1.437 . S
C705 C709 1.317 . S
C705 H724 0.929 . S
C706 C707 1.426 . S
C706 C708 1.413 . S
C706 N716 1.359 . S
C707 C704 1.417 . S
C707 C706 1.426 . S
C707 N712 1.350 . S
C708 C705 1.437 . S
C708 C706 1.413 . S
C708 C718 1.391 . S
C709 C704 1.431 . S
C709 C705 1.317 . S
C709 H720 0.930 . S
C710 C704 1.412 . S
C710 C711 1.355 . S
C710 H722 0.930 . S
C711 C710 1.355 . S
C711 C713 1.402 . S
C711 H723 0.930 . S
N712 Gd703 2.661 . S
N712 C707 1.350 . S
N712 C713 1.307 . S
C713 C711 1.402 . S
C713 N712 1.307 . S
C713 H714 0.930 . S
H714 C713 0.930 . S
C715 N716 1.334 . S
C715 C717 1.394 . S
C715 H719 0.930 . S
N716 Gd703 2.601 . S
N716 C706 1.359 . S
N716 C715 1.334 . S
C717 C715 1.394 . S
C717 C718 1.359 . S
C717 H729 0.930 . S
C718 C708 1.391 . S
C718 C717 1.359 . S
C718 H730 0.929 . S
H719 C715 0.930 . S
H720 C709 0.930 . S
H721 C738 0.930 . S
H722 C710 0.930 . S
H723 C711 0.930 . S
H724 C705 0.929 . S
H725 C743 0.930 . S
H726 C734 0.930 . S
H727 C735 0.930 . S
H728 C759 0.929 . S
H729 C717 0.930 . S
H730 C718 0.929 . S
H731 C760 0.930 . S
H732 C741 0.930 . S
N733 Gd702 2.661 . S
N733 C737 1.350 . S
N733 C738 1.307 . S
C734 H726 0.930 . S
C734 C735 1.355 . S
C734 C736 1.412 . S
C735 H727 0.930 . S
C735 C734 1.355 . S
C735 C738 1.402 . S
C736 C734 1.412 . S
C736 C737 1.417 . S
C736 C760 1.431 . S
C737 N733 1.350 . S
C737 C736 1.417 . S
C737 C740 1.426 . S
C738 H721 0.930 . S
C738 N733 1.307 . S
C738 C735 1.402 . S
N739 Gd702 2.601 . S
N739 C740 1.359 . S
N739 C743 1.334 . S
C740 C737 1.426 . S
C740 N739 1.359 . S
C740 C744 1.413 . S
C741 H732 0.930 . S
C741 C742 1.359 . S
C741 C743 1.394 . S
C742 C741 1.359 . S
C742 C744 1.391 . S
C742 H745 0.929 . S
C743 H725 0.930 . S
C743 N739 1.334 . S
C743 C741 1.394 . S
C744 C740 1.413 . S
C744 C742 1.391 . S
C744 C759 1.437 . S
H745 C742 0.929 . S
O746 Gd702 2.545 . S
O746 C761 1.258 . S
O747 Gd702 2.606 . S
O747 Gd703 2.362 . S
O747 C758 1.284 . S
O748 Gd703 2.324 . S
O748 C768 1.254 . S
O749 Gd702 2.429 . S
O749 C768 1.268 . S
O750 Gd702 2.545 . S
O750 C758 1.250 . S
O751 Gd702 2.412 . S
O751 C761 1.252 . S
O752 Gd703 2.545 . S
O752 C770 1.258 . S
O753 Gd702 2.362 . S
O753 Gd703 2.606 . S
O753 C769 1.284 . S
O754 Gd702 2.324 . S
O754 C777 1.254 . S
O755 Gd703 2.429 . S
O755 C777 1.268 . S
O756 Gd703 2.545 . S
O756 C769 1.250 . S
O757 Gd703 2.412 . S
O757 C770 1.252 . S
C758 O747 1.284 . S
C758 O750 1.250 . S
C759 H728 0.929 . S
C759 C744 1.437 . S
C759 C760 1.317 . S
C760 H731 0.930 . S
C760 C736 1.431 . S
C760 C759 1.317 . S
C761 Gd702 2.828 . S
C761 O746 1.258 . S
C761 O751 1.252 . S
C761 C762 1.497 . S
C762 C761 1.497 . S
C762 C763 1.395 . S
C762 C764 1.380 . S
C763 C762 1.395 . S
C763 C766 1.398 . S
C763 H778 0.930 . S
C764 C762 1.380 . S
C764 C765 1.391 . S
C764 H779 0.930 . S
C765 C764 1.391 . S
C765 C767 1.387 . S
C766 C763 1.398 . S
C766 C767 1.380 . S
C766 H780 0.930 . S
C767 C765 1.387 . S
C767 C766 1.380 . S
C767 H781 0.930 . S
C768 O748 1.254 . S
C768 O749 1.268 . S
C769 O753 1.284 . S
C769 O756 1.250 . S
C770 Gd703 2.828 . S
C770 O752 1.258 . S
C770 O757 1.252 . S
C770 C771 1.497 . S
C771 C770 1.497 . S
C771 C772 1.395 . S
C771 C773 1.380 . S
C772 C771 1.395 . S
C772 C775 1.398 . S
C772 H782 0.930 . S
C773 C771 1.380 . S
C773 C774 1.391 . S
C773 H783 0.930 . S
C774 C773 1.391 . S
C774 C776 1.387 . S
C775 C772 1.398 . S
C775 C776 1.380 . S
C775 H784 0.930 . S
C776 C774 1.387 . S
C776 C775 1.380 . S
C776 H785 0.930 . S
C777 O754 1.254 . S
C777 O755 1.268 . S
H778 C763 0.930 . S
H779 C764 0.930 . S
H780 C766 0.930 . S
H781 C767 0.930 . S
H782 C772 0.930 . S
H783 C773 0.930 . S
H784 C775 0.930 . S
H785 C776 0.930 . S
Gd786 N817 2.661 . S
Gd786 N823 2.601 . S
Gd786 O830 2.545 . S
Gd786 O831 2.606 . S
Gd786 O833 2.429 . S
Gd786 O834 2.545 . S
Gd786 O835 2.412 . S
Gd786 O837 2.362 . S
Gd786 O838 2.324 . S
Gd786 C845 2.828 . S
Gd787 N796 2.661 . S
Gd787 N800 2.601 . S
Gd787 O831 2.362 . S
Gd787 O832 2.324 . S
Gd787 O836 2.545 . S
Gd787 O837 2.606 . S
Gd787 O839 2.429 . S
Gd787 O840 2.545 . S
Gd787 O841 2.412 . S
Gd787 C854 2.828 . S
C788 C791 1.417 . S
C788 C793 1.431 . S
C788 C794 1.412 . S
C789 C792 1.437 . S
C789 C793 1.317 . S
C789 H808 0.929 . S
C790 C791 1.426 . S
C790 C792 1.413 . S
C790 N800 1.359 . S
C791 C788 1.417 . S
C791 C790 1.426 . S
C791 N796 1.350 . S
C792 C789 1.437 . S
C792 C790 1.413 . S
C792 C802 1.391 . S
C793 C788 1.431 . S
C793 C789 1.317 . S
C793 H804 0.930 . S
C794 C788 1.412 . S
C794 C795 1.355 . S
C794 H806 0.930 . S
C795 C794 1.355 . S
C795 C797 1.402 . S
C795 H807 0.930 . S
N796 Gd787 2.661 . S
N796 C791 1.350 . S
N796 C797 1.307 . S
C797 C795 1.402 . S
C797 N796 1.307 . S
C797 H798 0.930 . S
H798 C797 0.930 . S
C799 N800 1.334 . S
C799 C801 1.394 . S
C799 H803 0.930 . S
N800 Gd787 2.601 . S
N800 C790 1.359 . S
N800 C799 1.334 . S
C801 C799 1.394 . S
C801 C802 1.359 . S
C801 H813 0.930 . S
C802 C792 1.391 . S
C802 C801 1.359 . S
C802 H814 0.929 . S
H803 C799 0.930 . S
H804 C793 0.930 . S
H805 C822 0.930 . S
H806 C794 0.930 . S
H807 C795 0.930 . S
H808 C789 0.929 . S
H809 C827 0.930 . S
H810 C818 0.930 . S
H811 C819 0.930 . S
H812 C843 0.929 . S
H813 C801 0.930 . S
H814 C802 0.929 . S
H815 C844 0.930 . S
H816 C825 0.930 . S
N817 Gd786 2.661 . S
N817 C821 1.350 . S
N817 C822 1.307 . S
C818 H810 0.930 . S
C818 C819 1.355 . S
C818 C820 1.412 . S
C819 H811 0.930 . S
C819 C818 1.355 . S
C819 C822 1.402 . S
C820 C818 1.412 . S
C820 C821 1.417 . S
C820 C844 1.431 . S
C821 N817 1.350 . S
C821 C820 1.417 . S
C821 C824 1.426 . S
C822 H805 0.930 . S
C822 N817 1.307 . S
C822 C819 1.402 . S
N823 Gd786 2.601 . S
N823 C824 1.359 . S
N823 C827 1.334 . S
C824 C821 1.426 . S
C824 N823 1.359 . S
C824 C828 1.413 . S
C825 H816 0.930 . S
C825 C826 1.359 . S
C825 C827 1.394 . S
C826 C825 1.359 . S
C826 C828 1.391 . S
C826 H829 0.929 . S
C827 H809 0.930 . S
C827 N823 1.334 . S
C827 C825 1.394 . S
C828 C824 1.413 . S
C828 C826 1.391 . S
C828 C843 1.437 . S
H829 C826 0.929 . S
O830 Gd786 2.545 . S
O830 C845 1.258 . S
O831 Gd786 2.606 . S
O831 Gd787 2.362 . S
O831 C842 1.284 . S
O832 Gd787 2.324 . S
O832 C852 1.254 . S
O833 Gd786 2.429 . S
O833 C852 1.268 . S
O834 Gd786 2.545 . S
O834 C842 1.250 . S
O835 Gd786 2.412 . S
O835 C845 1.252 . S
O836 Gd787 2.545 . S
O836 C854 1.258 . S
O837 Gd786 2.362 . S
O837 Gd787 2.606 . S
O837 C853 1.284 . S
O838 Gd786 2.324 . S
O838 C861 1.254 . S
O839 Gd787 2.429 . S
O839 C861 1.268 . S
O840 Gd787 2.545 . S
O840 C853 1.250 . S
O841 Gd787 2.412 . S
O841 C854 1.252 . S
C842 O831 1.284 . S
C842 O834 1.250 . S
C843 H812 0.929 . S
C843 C828 1.437 . S
C843 C844 1.317 . S
C844 H815 0.930 . S
C844 C820 1.431 . S
C844 C843 1.317 . S
C845 Gd786 2.828 . S
C845 O830 1.258 . S
C845 O835 1.252 . S
C845 C846 1.497 . S
C846 C845 1.497 . S
C846 C847 1.395 . S
C846 C848 1.380 . S
C847 C846 1.395 . S
C847 C850 1.398 . S
C847 H862 0.930 . S
C848 C846 1.380 . S
C848 C849 1.391 . S
C848 H863 0.930 . S
C849 C848 1.391 . S
C849 C851 1.387 . S
C850 C847 1.398 . S
C850 C851 1.380 . S
C850 H864 0.930 . S
C851 C849 1.387 . S
C851 C850 1.380 . S
C851 H865 0.930 . S
C852 O832 1.254 . S
C852 O833 1.268 . S
C853 O837 1.284 . S
C853 O840 1.250 . S
C854 Gd787 2.828 . S
C854 O836 1.258 . S
C854 O841 1.252 . S
C854 C855 1.497 . S
C855 C854 1.497 . S
C855 C856 1.395 . S
C855 C857 1.380 . S
C856 C855 1.395 . S
C856 C859 1.398 . S
C856 H866 0.930 . S
C857 C855 1.380 . S
C857 C858 1.391 . S
C857 H867 0.930 . S
C858 C857 1.391 . S
C858 C860 1.387 . S
C859 C856 1.398 . S
C859 C860 1.380 . S
C859 H868 0.930 . S
C860 C858 1.387 . S
C860 C859 1.380 . S
C860 H869 0.930 . S
C861 O838 1.254 . S
C861 O839 1.268 . S
H862 C847 0.930 . S
H863 C848 0.930 . S
H864 C850 0.930 . S
H865 C851 0.930 . S
H866 C856 0.930 . S
H867 C857 0.930 . S
H868 C859 0.930 . S
H869 C860 0.930 . S
Gd870 N901 2.661 . S
Gd870 N907 2.601 . S
Gd870 O914 2.545 . S
Gd870 O915 2.606 . S
Gd870 O917 2.429 . S
Gd870 O918 2.545 . S
Gd870 O919 2.412 . S
Gd870 O921 2.362 . S
Gd870 O922 2.324 . S
Gd870 C929 2.828 . S
Gd871 N880 2.661 . S
Gd871 N884 2.601 . S
Gd871 O915 2.362 . S
Gd871 O916 2.324 . S
Gd871 O920 2.545 . S
Gd871 O921 2.606 . S
Gd871 O923 2.429 . S
Gd871 O924 2.545 . S
Gd871 O925 2.412 . S
Gd871 C938 2.828 . S
C872 C875 1.417 . S
C872 C877 1.431 . S
C872 C878 1.412 . S
C873 C876 1.437 . S
C873 C877 1.317 . S
C873 H892 0.929 . S
C874 C875 1.426 . S
C874 C876 1.413 . S
C874 N884 1.359 . S
C875 C872 1.417 . S
C875 C874 1.426 . S
C875 N880 1.350 . S
C876 C873 1.437 . S
C876 C874 1.413 . S
C876 C886 1.391 . S
C877 C872 1.431 . S
C877 C873 1.317 . S
C877 H888 0.930 1_655 S
C878 C872 1.412 . S
C878 C879 1.355 . S
C878 H890 0.930 1_655 S
C879 C878 1.355 . S
C879 C881 1.402 . S
C879 H891 0.930 . S
N880 Gd871 2.661 . S
N880 C875 1.350 . S
N880 C881 1.307 . S
C881 C879 1.402 . S
C881 N880 1.307 . S
C881 H882 0.930 . S
H882 C881 0.930 . S
C883 N884 1.334 . S
C883 C885 1.394 . S
C883 H887 0.930 . S
N884 Gd871 2.601 . S
N884 C874 1.359 . S
N884 C883 1.334 . S
C885 C883 1.394 . S
C885 C886 1.359 . S
C885 H897 0.930 . S
C886 C876 1.391 . S
C886 C885 1.359 . S
C886 H898 0.929 . S
H887 C883 0.930 . S
H888 C877 0.930 1_455 S
H889 C906 0.930 . S
H890 C878 0.930 1_455 S
H891 C879 0.930 . S
H892 C873 0.929 . S
H893 C911 0.930 . S
H894 C902 0.930 . S
H895 C903 0.930 . S
H896 C927 0.929 . S
H897 C885 0.930 . S
H898 C886 0.929 . S
H899 C928 0.930 . S
H900 C909 0.930 . S
N901 Gd870 2.661 . S
N901 C905 1.350 . S
N901 C906 1.307 . S
C902 H894 0.930 . S
C902 C903 1.355 . S
C902 C904 1.412 . S
C903 H895 0.930 . S
C903 C902 1.355 . S
C903 C906 1.402 . S
C904 C902 1.412 . S
C904 C905 1.417 . S
C904 C928 1.431 . S
C905 N901 1.350 . S
C905 C904 1.417 . S
C905 C908 1.426 . S
C906 H889 0.930 . S
C906 N901 1.307 . S
C906 C903 1.402 . S
N907 Gd870 2.601 . S
N907 C908 1.359 . S
N907 C911 1.334 . S
C908 C905 1.426 . S
C908 N907 1.359 . S
C908 C912 1.413 . S
C909 H900 0.930 . S
C909 C910 1.359 . S
C909 C911 1.394 . S
C910 C909 1.359 . S
C910 C912 1.391 . S
C910 H913 0.929 . S
C911 H893 0.930 . S
C911 N907 1.334 . S
C911 C909 1.394 . S
C912 C908 1.413 . S
C912 C910 1.391 . S
C912 C927 1.437 . S
H913 C910 0.929 . S
O914 Gd870 2.545 . S
O914 C929 1.258 . S
O915 Gd870 2.606 . S
O915 Gd871 2.362 . S
O915 C926 1.284 . S
O916 Gd871 2.324 . S
O916 C936 1.254 . S
O917 Gd870 2.429 . S
O917 C936 1.268 . S
O918 Gd870 2.545 . S
O918 C926 1.250 . S
O919 Gd870 2.412 . S
O919 C929 1.252 . S
O920 Gd871 2.545 . S
O920 C938 1.258 . S
O921 Gd870 2.362 . S
O921 Gd871 2.606 . S
O921 C937 1.284 . S
O922 Gd870 2.324 . S
O922 C945 1.254 . S
O923 Gd871 2.429 . S
O923 C945 1.268 . S
O924 Gd871 2.545 . S
O924 C937 1.250 . S
O925 Gd871 2.412 . S
O925 C938 1.252 . S
C926 O915 1.284 . S
C926 O918 1.250 . S
C927 H896 0.929 . S
C927 C912 1.437 . S
C927 C928 1.317 . S
C928 H899 0.930 . S
C928 C904 1.431 . S
C928 C927 1.317 . S
C929 Gd870 2.828 . S
C929 O914 1.258 . S
C929 O919 1.252 . S
C929 C930 1.497 . S
C930 C929 1.497 . S
C930 C931 1.395 . S
C930 C932 1.380 . S
C931 C930 1.395 . S
C931 C934 1.398 . S
C931 H946 0.930 . S
C932 C930 1.380 . S
C932 C933 1.391 . S
C932 H947 0.930 . S
C933 C932 1.391 . S
C933 C935 1.387 . S
C934 C931 1.398 . S
C934 C935 1.380 . S
C934 H948 0.930 . S
C935 C933 1.387 . S
C935 C934 1.380 . S
C935 H949 0.930 . S
C936 O916 1.254 . S
C936 O917 1.268 . S
C937 O921 1.284 . S
C937 O924 1.250 . S
C938 Gd871 2.828 . S
C938 O920 1.258 . S
C938 O925 1.252 . S
C938 C939 1.497 . S
C939 C938 1.497 . S
C939 C940 1.395 . S
C939 C941 1.380 . S
C940 C939 1.395 . S
C940 C943 1.398 . S
C940 H950 0.930 . S
C941 C939 1.380 . S
C941 C942 1.391 . S
C941 H951 0.930 . S
C942 C941 1.391 . S
C942 C944 1.387 . S
C943 C940 1.398 . S
C943 C944 1.380 . S
C943 H952 0.930 . S
C944 C942 1.387 . S
C944 C943 1.380 . S
C944 H953 0.930 . S
C945 O922 1.254 . S
C945 O923 1.268 . S
H946 C931 0.930 . S
H947 C932 0.930 . S
H948 C934 0.930 . S
H949 C935 0.930 . S
H950 C940 0.930 . S
H951 C941 0.930 . S
H952 C943 0.930 . S
H953 C944 0.930 . S
C954 C955 1.387 . S
C954 H958 0.950 . S
C954 C963 1.390 . S
C955 C954 1.387 . S
C955 C957 1.387 . S
H956 C963 0.950 . S
C957 C955 1.387 . S
C957 C959 1.390 . S
C957 H961 0.950 1_554 S
H958 C954 0.950 . S
C959 C957 1.390 . S
C959 C960 1.387 . S
C959 H962 0.950 1_554 S
C960 C959 1.387 . S
C960 C963 1.387 . S
H961 C957 0.950 1_556 S
H962 C959 0.950 1_556 S
C963 C954 1.390 . S
C963 H956 0.950 . S
C963 C960 1.387 . S
C964 C965 1.387 . S
C964 H968 0.950 . S
C964 C973 1.390 . S
C965 C964 1.387 . S
C965 C967 1.387 . S
H966 C973 0.950 . S
C967 C965 1.387 . S
C967 C969 1.390 . S
C967 H971 0.950 . S
H968 C964 0.950 . S
C969 C967 1.390 . S
C969 C970 1.387 . S
C969 H972 0.950 1_554 S
C970 C969 1.387 . S
C970 C973 1.387 . S
H971 C967 0.950 . S
H972 C969 0.950 1_556 S
C973 C964 1.390 . S
C973 H966 0.950 . S
C973 C970 1.387 . S
C974 C975 1.387 . S
C974 H978 0.950 . S
C974 C983 1.390 . S
C975 C974 1.387 . S
C975 C977 1.387 . S
H976 C983 0.950 . S
C977 C975 1.387 . S
C977 C979 1.390 . S
C977 H981 0.950 . S
H978 C974 0.950 . S
C979 C977 1.390 . S
C979 C980 1.387 . S
C979 H982 0.950 1_554 S
C980 C979 1.387 . S
C980 C983 1.387 . S
H981 C977 0.950 . S
H982 C979 0.950 1_556 S
C983 C974 1.390 . S
C983 H976 0.950 . S
C983 C980 1.387 . S
C984 C985 1.387 . S
C984 H988 0.950 . S
C984 C993 1.390 . S
C985 C984 1.387 . S
C985 C987 1.387 . S
H986 C993 0.950 1_554 S
C987 C985 1.387 . S
C987 C989 1.390 . S
C987 H991 0.950 . S
H988 C984 0.950 . S
C989 C987 1.390 . S
C989 C990 1.387 . S
C989 H992 0.950 . S
C990 C989 1.387 . S
C990 C993 1.387 . S
H991 C987 0.950 . S
H992 C989 0.950 . S
C993 C984 1.390 . S
C993 H986 0.950 1_556 S
C993 C990 1.387 . S
C994 C995 1.387 . S
C994 H998 0.950 . S
C994 C1003 1.390 . S
C995 C994 1.387 . S
C995 C997 1.387 . S
H996 C1003 0.950 . S
C997 C995 1.387 . S
C997 C999 1.378 1_556 S
C997 H1001 0.950 1_556 S
H998 C994 0.950 . S
C999 C997 1.378 1_554 S
C999 C1000 1.360 1_554 S
C999 H1002 0.991 . S
C1000 C999 1.360 1_556 S
C1000 C1003 1.387 . S
H1001 C997 0.950 1_554 S
H1002 C999 0.991 . S
C1003 C994 1.390 . S
C1003 H996 0.950 . S
C1003 C1000 1.387 . S
C1004 C1005 1.387 1_554 S
C1004 H1008 0.950 . S
C1004 C1013 1.390 . S
C1005 C1004 1.387 1_556 S
C1005 C1007 1.387 . S
H1006 C1013 0.950 . S
C1007 C1005 1.387 . S
C1007 C1009 1.390 . S
C1007 H1011 0.950 . S
H1008 C1004 0.950 . S
C1009 C1007 1.390 . S
C1009 C1010 1.387 . S
C1009 H1012 0.950 . S
C1010 C1009 1.387 . S
C1010 C1013 1.387 1_556 S
H1011 C1007 0.950 . S
H1012 C1009 0.950 . S
C1013 C1004 1.390 . S
C1013 H1006 0.950 . S
C1013 C1010 1.387 1_554 S
C1014 C1015 1.387 . S
C1014 H1018 0.950 . S
C1014 C1023 1.390 . S
C1015 C1014 1.387 . S
C1015 C1017 1.409 . S
H1016 C1023 0.950 . S
C1017 C1015 1.409 . S
C1017 C1019 1.383 1_556 S
C1017 H1021 0.936 1_556 S
H1018 C1014 0.950 . S
C1019 C1017 1.383 1_554 S
C1019 C1020 1.387 1_554 S
C1019 H1022 0.950 . S
C1020 C1019 1.387 1_556 S
C1020 C1023 1.387 . S
H1021 C1017 0.936 1_554 S
H1022 C1019 0.950 . S
C1023 C1014 1.390 . S
C1023 H1016 0.950 . S
C1023 C1020 1.387 . S
C1024 C1025 1.387 1_554 S
C1024 H1028 0.950 . S
C1024 C1033 1.390 . S
C1025 C1024 1.387 1_556 S
C1025 C1027 1.387 . S
H1026 C1033 0.950 . S
C1027 C1025 1.387 . S
C1027 C1029 1.390 . S
C1027 H1031 0.950 . S
H1028 C1024 0.950 . S
C1029 C1027 1.390 . S
C1029 C1030 1.387 . S
C1029 H1032 0.950 . S
C1030 C1029 1.387 . S
C1030 C1033 1.387 1_556 S
H1031 C1027 0.950 . S
H1032 C1029 0.950 . S
C1033 C1024 1.390 . S
C1033 H1026 0.950 . S
C1033 C1030 1.387 1_554 S
C1034 C1035 1.387 . S
C1034 H1038 0.950 . S
C1034 C1043 1.390 . S
C1035 C1034 1.387 . S
C1035 C1037 1.387 . S
H1036 C1043 0.950 . S
C1037 C1035 1.387 . S
C1037 C1039 1.390 1_556 S
C1037 H1041 0.950 1_556 S
H1038 C1034 0.950 . S
C1039 C1037 1.390 1_554 S
C1039 C1040 1.387 1_554 S
C1039 H1042 0.950 . S
C1040 C1039 1.387 1_556 S
C1040 C1043 1.387 . S
H1041 C1037 0.950 1_554 S
H1042 C1039 0.950 . S
C1043 C1034 1.390 . S
C1043 H1036 0.950 . S
C1043 C1040 1.387 . S
C1044 C1045 1.387 . S
C1044 H1048 0.950 . S
C1044 C1053 1.390 . S
C1045 C1044 1.387 . S
C1045 C1047 1.387 . S
H1046 C1053 0.950 . S
C1047 C1045 1.387 . S
C1047 C1049 1.390 . S
C1047 H1051 0.950 . S
H1048 C1044 0.950 . S
C1049 C1047 1.390 . S
C1049 C1050 1.387 . S
C1049 H1052 0.950 1_554 S
C1050 C1049 1.387 . S
C1050 C1053 1.387 . S
H1051 C1047 0.950 . S
H1052 C1049 0.950 1_556 S
C1053 C1044 1.390 . S
C1053 H1046 0.950 . S
C1053 C1050 1.387 . S
C1054 C1055 1.387 . S
C1054 H1058 0.950 . S
C1054 C1063 1.390 . S
C1055 C1054 1.387 . S
C1055 C1057 1.387 . S
H1056 C1063 0.950 . S
C1057 C1055 1.387 . S
C1057 C1059 1.390 . S
C1057 H1061 0.950 . S
H1058 C1054 0.950 . S
C1059 C1057 1.390 . S
C1059 C1060 1.387 . S
C1059 H1062 0.950 . S
C1060 C1059 1.387 . S
C1060 C1063 1.387 . S
H1061 C1057 0.950 . S
H1062 C1059 0.950 . S
C1063 C1054 1.390 . S
C1063 H1056 0.950 . S
C1063 C1060 1.387 . S
C1064 C1065 1.387 . S
C1064 H1068 0.950 . S
C1064 C1073 1.390 . S
C1065 C1064 1.387 . S
C1065 C1067 1.387 . S
H1066 C1073 0.950 . S
C1067 C1065 1.387 . S
C1067 C1069 1.390 . S
C1067 H1071 0.950 1_554 S
H1068 C1064 0.950 . S
C1069 C1067 1.390 . S
C1069 C1070 1.387 . S
C1069 H1072 0.950 1_554 S
C1070 C1069 1.387 . S
C1070 C1073 1.387 . S
H1071 C1067 0.950 1_556 S
H1072 C1069 0.950 1_556 S
C1073 C1064 1.390 . S
C1073 H1066 0.950 . S
C1073 C1070 1.387 . S
C1074 C1075 1.387 . S
C1074 H1078 0.950 . S
C1074 C1083 1.390 . S
C1075 C1074 1.387 . S
C1075 C1077 1.387 . S
H1076 C1083 0.950 . S
C1077 C1075 1.387 . S
C1077 C1079 1.390 . S
C1077 H1081 0.950 . S
H1078 C1074 0.950 . S
C1079 C1077 1.390 . S
C1079 C1080 1.387 . S
C1079 H1082 0.950 . S
C1080 C1079 1.387 . S
C1080 C1083 1.387 . S
H1081 C1077 0.950 . S
H1082 C1079 0.950 . S
C1083 C1074 1.390 . S
C1083 H1076 0.950 . S
C1083 C1080 1.387 . S
C1084 C1085 1.387 . S
C1084 H1088 0.950 . S
C1084 C1093 1.390 . S
C1085 C1084 1.387 . S
C1085 C1087 1.387 . S
H1086 C1093 0.950 . S
C1087 C1085 1.387 . S
C1087 C1089 1.390 . S
C1087 H1091 0.950 . S
H1088 C1084 0.950 . S
C1089 C1087 1.390 . S
C1089 C1090 1.387 . S
C1089 H1092 0.950 . S
C1090 C1089 1.387 . S
C1090 C1093 1.387 . S
H1091 C1087 0.950 . S
H1092 C1089 0.950 . S
C1093 C1084 1.390 . S
C1093 H1086 0.950 . S
C1093 C1090 1.387 . S
C1094 C1095 1.387 1_565 S
C1094 H1098 0.950 1_565 S
C1094 C1103 1.390 . S
C1095 C1094 1.387 1_545 S
C1095 C1097 1.387 1_545 S
H1096 C1103 0.950 . S
C1097 C1095 1.387 1_565 S
C1097 C1099 1.390 . S
C1097 H1101 0.950 . S
H1098 C1094 0.950 1_545 S
C1099 C1097 1.390 . S
C1099 C1100 1.387 . S
C1099 H1102 0.950 . S
C1100 C1099 1.387 . S
C1100 C1103 1.387 . S
H1101 C1097 0.950 . S
H1102 C1099 0.950 . S
C1103 C1094 1.390 . S
C1103 H1096 0.950 . S
C1103 C1100 1.387 . S
C1104 C1105 1.387 . S
C1104 H1108 0.950 . S
C1104 C1113 1.390 . S
C1105 C1104 1.387 . S
C1105 C1107 1.387 . S
H1106 C1113 0.950 . S
C1107 C1105 1.387 . S
C1107 C1109 1.390 . S
C1107 H1111 0.950 . S
H1108 C1104 0.950 . S
C1109 C1107 1.390 . S
C1109 C1110 1.387 . S
C1109 H1112 0.950 . S
C1110 C1109 1.387 . S
C1110 C1113 1.387 . S
H1111 C1107 0.950 . S
H1112 C1109 0.950 . S
C1113 C1104 1.390 . S
C1113 H1106 0.950 . S
C1113 C1110 1.387 . S
C1114 C1115 1.387 . S
C1114 H1118 0.950 . S
C1114 C1123 1.390 . S
C1115 C1114 1.387 . S
C1115 C1117 1.387 . S
H1116 C1123 0.950 . S
C1117 C1115 1.387 . S
C1117 C1119 1.390 . S
C1117 H1121 0.950 . S
H1118 C1114 0.950 . S
C1119 C1117 1.390 . S
C1119 C1120 1.387 . S
C1119 H1122 0.950 . S
C1120 C1119 1.387 . S
C1120 C1123 1.387 . S
H1121 C1117 0.950 . S
H1122 C1119 0.950 . S
C1123 C1114 1.390 . S
C1123 H1116 0.950 . S
C1123 C1120 1.387 . S
C1124 C1125 1.387 . S
C1124 H1128 0.950 . S
C1124 C1133 1.390 . S
C1125 C1124 1.387 . S
C1125 C1127 1.387 . S
H1126 C1133 0.950 . S
C1127 C1125 1.387 . S
C1127 C1129 1.390 . S
C1127 H1131 0.950 . S
H1128 C1124 0.950 . S
C1129 C1127 1.390 . S
C1129 C1130 1.387 . S
C1129 H1132 0.950 . S
C1130 C1129 1.387 . S
C1130 C1133 1.387 . S
H1131 C1127 0.950 . S
H1132 C1129 0.950 . S
C1133 C1124 1.390 . S
C1133 H1126 0.950 . S
C1133 C1130 1.387 . S
C1134 C1135 1.387 . S
C1134 H1138 0.950 . S
C1134 C1143 1.390 . S
C1135 C1134 1.387 . S
C1135 C1137 1.387 . S
H1136 C1143 0.950 . S
C1137 C1135 1.387 . S
C1137 C1139 1.390 . S
C1137 H1141 0.950 . S
H1138 C1134 0.950 . S
C1139 C1137 1.390 . S
C1139 C1140 1.387 . S
C1139 H1142 0.950 . S
C1140 C1139 1.387 . S
C1140 C1143 1.387 . S
H1141 C1137 0.950 . S
H1142 C1139 0.950 . S
C1143 C1134 1.390 . S
C1143 H1136 0.950 . S
C1143 C1140 1.387 . S
C1144 C1145 1.387 . S
C1144 H1148 0.950 . S
C1144 C1153 1.390 . S
C1145 C1144 1.387 . S
C1145 C1147 1.387 . S
H1146 C1153 0.950 . S
C1147 C1145 1.387 . S
C1147 C1149 1.390 . S
C1147 H1151 0.950 . S
H1148 C1144 0.950 . S
C1149 C1147 1.390 . S
C1149 C1150 1.387 . S
C1149 H1152 0.950 . S
C1150 C1149 1.387 . S
C1150 C1153 1.387 . S
H1151 C1147 0.950 . S
H1152 C1149 0.950 . S
C1153 C1144 1.390 . S
C1153 H1146 0.950 . S
C1153 C1150 1.387 . S
C1154 C1155 1.387 . S
C1154 H1158 0.950 . S
C1154 C1163 1.390 . S
C1155 C1154 1.387 . S
C1155 C1157 1.387 . S
H1156 C1163 0.950 . S
C1157 C1155 1.387 . S
C1157 C1159 1.390 . S
C1157 H1161 0.950 . S
H1158 C1154 0.950 . S
C1159 C1157 1.390 . S
C1159 C1160 1.387 . S
C1159 H1162 0.950 . S
C1160 C1159 1.387 . S
C1160 C1163 1.387 . S
H1161 C1157 0.950 . S
H1162 C1159 0.950 . S
C1163 C1154 1.390 . S
C1163 H1156 0.950 . S
C1163 C1160 1.387 . S
C1164 C1165 1.387 . S
C1164 H1168 0.950 1_565 S
C1164 C1173 1.390 . S
C1165 C1164 1.387 . S
C1165 C1167 1.387 . S
H1166 C1173 0.950 . S
C1167 C1165 1.387 . S
C1167 C1169 1.390 . S
C1167 H1171 0.950 . S
H1168 C1164 0.950 1_545 S
C1169 C1167 1.390 . S
C1169 C1170 1.387 . S
C1169 H1172 0.950 . S
C1170 C1169 1.387 . S
C1170 C1173 1.387 . S
H1171 C1167 0.950 . S
H1172 C1169 0.950 . S
C1173 C1164 1.390 . S
C1173 H1166 0.950 . S
C1173 C1170 1.387 . S
C1174 C1175 1.387 . S
C1174 H1178 0.943 1_455 S
C1174 C1183 1.390 . S
C1175 C1174 1.387 . S
C1175 C1177 1.387 . S
H1176 C1183 0.950 . S
C1177 C1175 1.387 . S
C1177 C1179 1.390 . S
C1177 H1181 0.950 . S
H1178 C1174 0.943 1_655 S
C1179 C1177 1.390 . S
C1179 C1180 1.387 . S
C1179 H1182 0.950 . S
C1180 C1179 1.387 . S
C1180 C1183 1.387 . S
H1181 C1177 0.950 . S
H1182 C1179 0.950 . S
C1183 C1174 1.390 . S
C1183 H1176 0.950 . S
C1183 C1180 1.387 . S
C1184 C1185 1.387 . S
C1184 H1188 0.950 . S
C1184 C1193 1.390 . S
C1185 C1184 1.387 . S
C1185 C1187 1.387 . S
H1186 C1193 0.950 . S
C1187 C1185 1.387 . S
C1187 C1189 1.390 . S
C1187 H1191 0.950 . S
H1188 C1184 0.950 . S
C1189 C1187 1.390 . S
C1189 C1190 1.387 . S
C1189 H1192 0.950 . S
C1190 C1189 1.387 . S
C1190 C1193 1.387 . S
H1191 C1187 0.950 . S
H1192 C1189 0.950 . S
C1193 C1184 1.390 . S
C1193 H1186 0.950 . S
C1193 C1190 1.387 . S
C1194 C1195 1.387 . S
C1194 H1198 0.950 . S
C1194 C1203 1.390 . S
C1195 C1194 1.387 . S
C1195 C1197 1.387 . S
H1196 C1203 0.950 . S
C1197 C1195 1.387 . S
C1197 C1199 1.390 . S
C1197 H1201 0.950 . S
H1198 C1194 0.950 . S
C1199 C1197 1.390 . S
C1199 C1200 1.387 . S
C1199 H1202 0.950 . S
C1200 C1199 1.387 . S
C1200 C1203 1.387 . S
H1201 C1197 0.950 . S
H1202 C1199 0.950 . S
C1203 C1194 1.390 . S
C1203 H1196 0.950 . S
C1203 C1200 1.387 . S
C1204 C1205 1.387 . S
C1204 H1208 0.950 . S
C1204 C1213 1.390 . S
C1205 C1204 1.387 . S
C1205 C1207 1.387 . S
H1206 C1213 0.950 . S
C1207 C1205 1.387 . S
C1207 C1209 1.390 . S
C1207 H1211 0.950 . S
H1208 C1204 0.950 . S
C1209 C1207 1.390 . S
C1209 C1210 1.387 . S
C1209 H1212 0.950 . S
C1210 C1209 1.387 . S
C1210 C1213 1.387 . S
H1211 C1207 0.950 . S
H1212 C1209 0.950 . S
C1213 C1204 1.390 . S
C1213 H1206 0.950 . S
C1213 C1210 1.387 . S
C1214 C1215 1.387 . S
C1214 H1218 0.950 . S
C1214 C1223 1.390 . S
C1215 C1214 1.387 . S
C1215 C1217 1.387 . S
H1216 C1223 0.950 . S
C1217 C1215 1.387 . S
C1217 C1219 1.390 . S
C1217 H1221 0.950 . S
H1218 C1214 0.950 . S
C1219 C1217 1.390 . S
C1219 C1220 1.387 . S
C1219 H1222 0.950 . S
C1220 C1219 1.387 . S
C1220 C1223 1.387 . S
H1221 C1217 0.950 . S
H1222 C1219 0.950 . S
C1223 C1214 1.390 . S
C1223 H1216 0.950 . S
C1223 C1220 1.387 . S
C1224 C1225 1.387 . S
C1224 H1228 0.952 . S
C1224 C1233 1.390 . S
C1225 C1224 1.387 . S
C1225 C1227 1.387 . S
H1226 C1233 0.950 . S
C1227 C1225 1.387 . S
C1227 C1229 1.390 . S
C1227 H1231 0.950 . S
H1228 C1224 0.952 . S
C1229 C1227 1.390 . S
C1229 C1230 1.387 . S
C1229 H1232 0.950 . S
C1230 C1229 1.387 . S
C1230 C1233 1.387 . S
H1231 C1227 0.950 . S
H1232 C1229 0.950 . S
C1233 C1224 1.390 . S
C1233 H1226 0.950 . S
C1233 C1230 1.387 . S
C1234 C1235 1.387 1_655 S
C1234 H1238 0.950 . S
C1234 C1243 1.390 . S
C1235 C1234 1.387 1_455 S
C1235 C1237 1.387 1_455 S
H1236 C1243 0.950 . S
C1237 C1235 1.387 1_655 S
C1237 C1239 1.390 . S
C1237 H1241 0.950 1_655 S
H1238 C1234 0.950 . S
C1239 C1237 1.390 . S
C1239 C1240 1.387 . S
C1239 H1242 0.950 . S
C1240 C1239 1.387 . S
C1240 C1243 1.387 . S
H1241 C1237 0.950 1_455 S
H1242 C1239 0.950 . S
C1243 C1234 1.390 . S
C1243 H1236 0.950 . S
C1243 C1240 1.387 . S
C1244 C1245 1.387 . S
C1244 H1248 0.950 . S
C1244 C1253 1.390 . S
C1245 C1244 1.387 . S
C1245 C1247 1.387 . S
H1246 C1253 0.950 . S
C1247 C1245 1.387 . S
C1247 C1249 1.390 . S
C1247 H1251 0.950 . S
H1248 C1244 0.950 . S
C1249 C1247 1.390 . S
C1249 C1250 1.387 . S
C1249 H1252 0.950 . S
C1250 C1249 1.387 . S
C1250 C1253 1.387 . S
H1251 C1247 0.950 . S
H1252 C1249 0.950 . S
C1253 C1244 1.390 . S
C1253 H1246 0.950 . S
C1253 C1250 1.387 . S
C1254 C1255 1.387 . S
C1254 H1258 0.950 . S
C1254 C1263 1.390 . S
C1255 C1254 1.387 . S
C1255 C1257 1.387 . S
H1256 C1263 0.950 . S
C1257 C1255 1.387 . S
C1257 C1259 1.390 . S
C1257 H1261 0.950 . S
H1258 C1254 0.950 . S
C1259 C1257 1.390 . S
C1259 C1260 1.387 . S
C1259 H1262 0.950 . S
C1260 C1259 1.387 . S
C1260 C1263 1.387 . S
H1261 C1257 0.950 . S
H1262 C1259 0.950 . S
C1263 C1254 1.390 . S
C1263 H1256 0.950 . S
C1263 C1260 1.387 . S
C1264 C1265 1.387 . S
C1264 H1268 0.950 . S
C1264 C1273 1.390 . S
C1265 C1264 1.387 . S
C1265 C1267 1.387 . S
H1266 C1273 0.950 . S
C1267 C1265 1.387 . S
C1267 C1269 1.390 . S
C1267 H1271 0.950 . S
H1268 C1264 0.950 . S
C1269 C1267 1.390 . S
C1269 C1270 1.387 . S
C1269 H1272 0.950 . S
C1270 C1269 1.387 . S
C1270 C1273 1.387 . S
H1271 C1267 0.950 . S
H1272 C1269 0.950 . S
C1273 C1264 1.390 . S
C1273 H1266 0.950 . S
C1273 C1270 1.387 . S
C1274 C1275 1.387 . S
C1274 H1278 0.950 . S
C1274 C1283 1.390 . S
C1275 C1274 1.387 . S
C1275 C1277 1.387 . S
H1276 C1283 0.950 . S
C1277 C1275 1.387 . S
C1277 C1279 1.390 . S
C1277 H1281 0.950 . S
H1278 C1274 0.950 . S
C1279 C1277 1.390 . S
C1279 C1280 1.387 . S
C1279 H1282 0.950 . S
C1280 C1279 1.387 . S
C1280 C1283 1.387 . S
H1281 C1277 0.950 . S
H1282 C1279 0.950 . S
C1283 C1274 1.390 . S
C1283 H1276 0.950 . S
C1283 C1280 1.387 . S
C1284 C1285 1.387 . S
C1284 H1288 0.950 . S
C1284 C1293 1.390 . S
C1285 C1284 1.387 . S
C1285 C1287 1.387 . S
H1286 C1293 0.950 . S
C1287 C1285 1.387 . S
C1287 C1289 1.390 . S
C1287 H1291 0.950 . S
H1288 C1284 0.950 . S
C1289 C1287 1.390 . S
C1289 C1290 1.387 . S
C1289 H1292 0.950 . S
C1290 C1289 1.387 . S
C1290 C1293 1.387 . S
H1291 C1287 0.950 . S
H1292 C1289 0.950 . S
C1293 C1284 1.390 . S
C1293 H1286 0.950 . S
C1293 C1290 1.387 . S
C1294 C1295 1.387 . S
C1294 H1298 0.950 . S
C1294 C1303 1.390 . S
C1295 C1294 1.387 . S
C1295 C1297 1.387 . S
H1296 C1303 0.950 . S
C1297 C1295 1.387 . S
C1297 C1299 1.390 . S
C1297 H1301 0.950 . S
H1298 C1294 0.950 . S
C1299 C1297 1.390 . S
C1299 C1300 1.387 . S
C1299 H1302 0.950 . S
C1300 C1299 1.387 . S
C1300 C1303 1.387 . S
H1301 C1297 0.950 . S
H1302 C1299 0.950 . S
C1303 C1294 1.390 . S
C1303 H1296 0.950 . S
C1303 C1300 1.387 . S
C1304 C1305 1.387 . S
C1304 H1308 0.950 . S
C1304 C1313 1.390 . S
C1305 C1304 1.387 . S
C1305 C1307 1.387 . S
H1306 C1313 0.950 . S
C1307 C1305 1.387 . S
C1307 C1309 1.390 . S
C1307 H1311 0.950 . S
H1308 C1304 0.950 . S
C1309 C1307 1.390 . S
C1309 C1310 1.387 . S
C1309 H1312 0.950 . S
C1310 C1309 1.387 . S
C1310 C1313 1.387 . S
H1311 C1307 0.950 . S
H1312 C1309 0.950 . S
C1313 C1304 1.390 . S
C1313 H1306 0.950 . S
C1313 C1310 1.387 . S
C1314 C1315 1.387 . S
C1314 H1318 0.950 . S
C1314 C1323 1.390 . S
C1315 C1314 1.387 . S
C1315 C1317 1.387 . S
H1316 C1323 0.950 . S
C1317 C1315 1.387 . S
C1317 C1319 1.390 . S
C1317 H1321 0.950 . S
H1318 C1314 0.950 . S
C1319 C1317 1.390 . S
C1319 C1320 1.387 . S
C1319 H1322 0.950 . S
C1320 C1319 1.387 . S
C1320 C1323 1.387 . S
H1321 C1317 0.950 . S
H1322 C1319 0.950 . S
C1323 C1314 1.390 . S
C1323 H1316 0.950 . S
C1323 C1320 1.387 . S
C1324 C1325 1.387 . S
C1324 H1328 0.950 . S
C1324 C1333 1.390 . S
C1325 C1324 1.387 . S
C1325 C1327 1.387 . S
H1326 C1333 0.950 . S
C1327 C1325 1.387 . S
C1327 C1329 1.390 . S
C1327 H1331 0.950 . S
H1328 C1324 0.950 . S
C1329 C1327 1.390 . S
C1329 C1330 1.387 . S
C1329 H1332 0.950 . S
C1330 C1329 1.387 . S
C1330 C1333 1.387 . S
H1331 C1327 0.950 . S
H1332 C1329 0.950 . S
C1333 C1324 1.390 . S
C1333 H1326 0.950 . S
C1333 C1330 1.387 . S
C1334 C1335 1.387 . S
C1334 H1338 0.950 . S
C1334 C1343 1.390 . S
C1335 C1334 1.387 . S
C1335 C1337 1.387 . S
H1336 C1343 0.950 . S
C1337 C1335 1.387 . S
C1337 C1339 1.390 . S
C1337 H1341 0.950 . S
H1338 C1334 0.950 . S
C1339 C1337 1.390 . S
C1339 C1340 1.387 . S
C1339 H1342 0.950 . S
C1340 C1339 1.387 . S
C1340 C1343 1.387 . S
H1341 C1337 0.950 . S
H1342 C1339 0.950 . S
C1343 C1334 1.390 . S
C1343 H1336 0.950 . S
C1343 C1340 1.387 . S
C1344 C1345 1.387 . S
C1344 H1348 0.950 . S
C1344 C1353 1.390 . S
C1345 C1344 1.387 . S
C1345 C1347 1.387 . S
H1346 C1353 0.950 . S
C1347 C1345 1.387 . S
C1347 C1349 1.390 . S
C1347 H1351 0.950 . S
H1348 C1344 0.950 . S
C1349 C1347 1.390 . S
C1349 C1350 1.387 . S
C1349 H1352 0.950 . S
C1350 C1349 1.387 . S
C1350 C1353 1.387 . S
H1351 C1347 0.950 . S
H1352 C1349 0.950 . S
C1353 C1344 1.390 . S
C1353 H1346 0.950 . S
C1353 C1350 1.387 . S
C1354 C1355 1.387 . S
C1354 H1358 0.950 . S
C1354 C1363 1.390 . S
C1355 C1354 1.387 . S
C1355 C1357 1.387 . S
H1356 C1363 0.950 . S
C1357 C1355 1.387 . S
C1357 C1359 1.390 . S
C1357 H1361 0.950 . S
H1358 C1354 0.950 . S
C1359 C1357 1.390 . S
C1359 C1360 1.387 . S
C1359 H1362 0.950 . S
C1360 C1359 1.387 . S
C1360 C1363 1.387 . S
H1361 C1357 0.950 . S
H1362 C1359 0.950 . S
C1363 C1354 1.390 . S
C1363 H1356 0.950 . S
C1363 C1360 1.387 . S
C1364 C1365 1.387 . S
C1364 H1368 0.950 . S
C1364 C1373 1.390 . S
C1365 C1364 1.387 . S
C1365 C1367 1.387 . S
H1366 C1373 0.950 . S
C1367 C1365 1.387 . S
C1367 C1369 1.390 . S
C1367 H1371 0.950 . S
H1368 C1364 0.950 . S
C1369 C1367 1.390 . S
C1369 C1370 1.387 . S
C1369 H1372 0.950 . S
C1370 C1369 1.387 . S
C1370 C1373 1.387 . S
H1371 C1367 0.950 . S
H1372 C1369 0.950 . S
C1373 C1364 1.390 . S
C1373 H1366 0.950 . S
C1373 C1370 1.387 . S
C1374 C1375 1.387 . S
C1374 H1378 0.950 . S
C1374 C1383 1.390 . S
C1375 C1374 1.387 . S
C1375 C1377 1.387 . S
H1376 C1383 0.950 . S
C1377 C1375 1.387 . S
C1377 C1379 1.390 . S
C1377 H1381 0.950 . S
H1378 C1374 0.950 . S
C1379 C1377 1.390 . S
C1379 C1380 1.387 . S
C1379 H1382 0.950 . S
C1380 C1379 1.387 . S
C1380 C1383 1.387 . S
H1381 C1377 0.950 . S
H1382 C1379 0.950 . S
C1383 C1374 1.390 . S
C1383 H1376 0.950 . S
C1383 C1380 1.387 . S
C1384 C1385 1.387 . S
C1384 H1388 0.950 . S
C1384 C1393 1.390 . S
C1385 C1384 1.387 . S
C1385 C1387 1.387 . S
H1386 C1393 0.950 . S
C1387 C1385 1.387 . S
C1387 C1389 1.390 . S
C1387 H1391 0.950 . S
H1388 C1384 0.950 . S
C1389 C1387 1.390 . S
C1389 C1390 1.387 . S
C1389 H1392 0.950 . S
C1390 C1389 1.387 . S
C1390 C1393 1.387 . S
H1391 C1387 0.950 . S
H1392 C1389 0.950 . S
C1393 C1384 1.390 . S
C1393 H1386 0.950 . S
C1393 C1390 1.387 . S
C1394 C1395 1.387 . S
C1394 H1398 0.950 . S
C1394 C1403 1.390 . S
C1395 C1394 1.387 . S
C1395 C1397 1.387 . S
H1396 C1403 0.950 . S
C1397 C1395 1.387 . S
C1397 C1399 1.390 . S
C1397 H1401 0.950 . S
H1398 C1394 0.950 . S
C1399 C1397 1.390 . S
C1399 C1400 1.387 . S
C1399 H1402 0.950 . S
C1400 C1399 1.387 . S
C1400 C1403 1.387 . S
H1401 C1397 0.950 . S
H1402 C1399 0.950 . S
C1403 C1394 1.390 . S
C1403 H1396 0.950 . S
C1403 C1400 1.387 . S
C1404 C1405 1.387 . S
C1404 H1408 0.950 . S
C1404 C1413 1.390 . S
C1405 C1404 1.387 . S
C1405 C1407 1.387 . S
H1406 C1413 0.950 . S
C1407 C1405 1.387 . S
C1407 C1409 1.390 . S
C1407 H1411 0.950 . S
H1408 C1404 0.950 . S
C1409 C1407 1.390 . S
C1409 C1410 1.387 . S
C1409 H1412 0.950 . S
C1410 C1409 1.387 . S
C1410 C1413 1.387 . S
H1411 C1407 0.950 . S
H1412 C1409 0.950 . S
C1413 C1404 1.390 . S
C1413 H1406 0.950 . S
C1413 C1410 1.387 . S
C1414 C1415 1.387 . S
C1414 H1418 0.950 . S
C1414 C1423 1.390 . S
C1415 C1414 1.387 . S
C1415 C1417 1.387 . S
H1416 C1423 0.950 . S
C1417 C1415 1.387 . S
C1417 C1419 1.390 . S
C1417 H1421 0.950 . S
H1418 C1414 0.950 . S
C1419 C1417 1.390 . S
C1419 C1420 1.387 . S
C1419 H1422 0.950 . S
C1420 C1419 1.387 . S
C1420 C1423 1.387 . S
H1421 C1417 0.950 . S
H1422 C1419 0.950 . S
C1423 C1414 1.390 . S
C1423 H1416 0.950 . S
C1423 C1420 1.387 . S
C1424 C1425 1.387 . S
C1424 H1428 0.950 . S
C1424 C1433 1.390 . S
C1425 C1424 1.387 . S
C1425 C1427 1.387 . S
H1426 C1433 0.950 . S
C1427 C1425 1.387 . S
C1427 C1429 1.390 . S
C1427 H1431 0.950 . S
H1428 C1424 0.950 . S
C1429 C1427 1.390 . S
C1429 C1430 1.387 . S
C1429 H1432 0.950 . S
C1430 C1429 1.387 . S
C1430 C1433 1.387 . S
H1431 C1427 0.950 . S
H1432 C1429 0.950 . S
C1433 C1424 1.390 . S
C1433 H1426 0.950 . S
C1433 C1430 1.387 . S
C1434 C1435 1.387 . S
C1434 H1438 0.950 . S
C1434 C1443 1.390 . S
C1435 C1434 1.387 . S
C1435 C1437 1.387 . S
H1436 C1443 0.950 . S
C1437 C1435 1.387 . S
C1437 C1439 1.390 . S
C1437 H1441 0.950 . S
H1438 C1434 0.950 . S
C1439 C1437 1.390 . S
C1439 C1440 1.387 . S
C1439 H1442 0.950 . S
C1440 C1439 1.387 . S
C1440 C1443 1.387 . S
H1441 C1437 0.950 . S
H1442 C1439 0.950 . S
C1443 C1434 1.390 . S
C1443 H1436 0.950 . S
C1443 C1440 1.387 . S
C1444 C1445 1.387 . S
C1444 H1448 0.950 . S
C1444 C1453 1.390 . S
C1445 C1444 1.387 . S
C1445 C1447 1.387 . S
H1446 C1453 0.950 . S
C1447 C1445 1.387 . S
C1447 C1449 1.390 . S
C1447 H1451 0.950 . S
H1448 C1444 0.950 . S
C1449 C1447 1.390 . S
C1449 C1450 1.387 . S
C1449 H1452 0.950 . S
C1450 C1449 1.387 . S
C1450 C1453 1.387 . S
H1451 C1447 0.950 . S
H1452 C1449 0.950 . S
C1453 C1444 1.390 . S
C1453 H1446 0.950 . S
C1453 C1450 1.387 . S
C1454 C1455 1.387 . S
C1454 H1458 0.950 . S
C1454 C1463 1.390 . S
C1455 C1454 1.387 . S
C1455 C1457 1.387 . S
H1456 C1463 0.950 . S
C1457 C1455 1.387 . S
C1457 C1459 1.390 . S
C1457 H1461 0.950 . S
H1458 C1454 0.950 . S
C1459 C1457 1.390 . S
C1459 C1460 1.387 . S
C1459 H1462 0.950 . S
C1460 C1459 1.387 . S
C1460 C1463 1.387 . S
H1461 C1457 0.950 . S
H1462 C1459 0.950 . S
C1463 C1454 1.390 . S
C1463 H1456 0.950 . S
C1463 C1460 1.387 . S
C1464 C1465 1.387 . S
C1464 H1468 0.950 . S
C1464 C1473 1.390 . S
C1465 C1464 1.387 . S
C1465 C1467 1.387 . S
H1466 C1473 0.950 . S
C1467 C1465 1.387 . S
C1467 C1469 1.390 . S
C1467 H1471 0.950 . S
H1468 C1464 0.950 . S
C1469 C1467 1.390 . S
C1469 C1470 1.387 . S
C1469 H1472 0.950 . S
C1470 C1469 1.387 . S
C1470 C1473 1.387 . S
H1471 C1467 0.950 . S
H1472 C1469 0.950 . S
C1473 C1464 1.390 . S
C1473 H1466 0.950 . S
C1473 C1470 1.387 . S
C1474 C1475 1.387 . S
C1474 H1478 0.950 . S
C1474 C1483 1.390 . S
C1475 C1474 1.387 . S
C1475 C1477 1.387 . S
H1476 C1483 0.950 . S
C1477 C1475 1.387 . S
C1477 C1479 1.390 . S
C1477 H1481 0.950 . S
H1478 C1474 0.950 . S
C1479 C1477 1.390 . S
C1479 C1480 1.387 . S
C1479 H1482 0.950 . S
C1480 C1479 1.387 . S
C1480 C1483 1.387 . S
H1481 C1477 0.950 . S
H1482 C1479 0.950 . S
C1483 C1474 1.390 . S
C1483 H1476 0.950 . S
C1483 C1480 1.387 . S
C1484 C1485 1.387 . S
C1484 H1488 0.950 . S
C1484 C1493 1.390 . S
C1485 C1484 1.387 . S
C1485 C1487 1.387 . S
H1486 C1493 0.950 . S
C1487 C1485 1.387 . S
C1487 C1489 1.390 . S
C1487 H1491 0.950 . S
H1488 C1484 0.950 . S
C1489 C1487 1.390 . S
C1489 C1490 1.387 . S
C1489 H1492 0.950 . S
C1490 C1489 1.387 . S
C1490 C1493 1.387 . S
H1491 C1487 0.950 . S
H1492 C1489 0.950 . S
C1493 C1484 1.390 . S
C1493 H1486 0.950 . S
C1493 C1490 1.387 . S
C955 C151 1.208 . S
C960 C254 1.183 . S
C965 C159 1.660 . S
C970 C338 1.733 . S
C975 C137 1.328 . S
C980 C432 1.455 . S
C985 C126 1.291 . S
C990 C348 1.435 . S
C1000 C422 1.693 . S
C995 C104 1.630 . S
C1005 C118 1.173 . S
C1010 C264 1.177 . S
C1020 C265 1.377 . S
C1015 C129 1.436 . S
C1030 C349 1.546 . S
C1025 C107 1.618 . S
C1035 C115 1.249 . S
C1040 C441 1.447 . S
C1045 C148 1.255 . S
C1050 C357 1.429 . S
C1055 C162 1.578 . S
C1060 C433 1.501 . S
C1070 C273 1.378 . S
C1065 C140 1.411 . S
C1080 C506 1.183 . S
C1075 C19 1.207 1_455 S
C1085 C27 1.663 . S
C1090 C590 1.731 . S
C1095 C5 1.333 . S
C1100 C684 1.452 . S
C1105 C192 1.292 . S
C1110 C600 1.434 . S
C1115 C170 1.631 . S
C1120 C674 1.693 . S
C1125 C184 1.173 . S
C1130 C516 1.179 . S
C1135 C195 1.436 . S
C1140 C517 1.377 . S
C1145 C173 1.618 . S
C1150 C601 1.544 . S
C1160 C693 1.448 . S
C1155 C181 1.252 . S
C1165 C16 1.258 1_565 S
C1170 C609 1.430 . S
C1180 C685 1.501 . S
C1175 C30 1.578 1_455 S
C1185 C8 1.411 . S
C1190 C525 1.378 . S
C1200 C758 1.184 . S
C1195 C85 1.207 . S
C1205 C93 1.660 . S
C1210 C842 1.734 . S
C1220 C936 1.453 . S
C1215 C71 1.332 . S
C1230 C852 1.435 . S
C1225 C60 1.292 1_545 S
C1240 C926 1.693 . S
C1235 C38 1.632 . S
C1245 C52 1.175 . S
C1250 C768 1.179 . S
C1255 C63 1.435 1_655 S
C1260 C769 1.377 . S
C1265 C41 1.618 . S
C1270 C853 1.545 . S
C1280 C945 1.449 . S
C1275 C49 1.254 1_545 S
C1285 C82 1.260 . S
C1290 C861 1.431 . S
C1295 C96 1.579 . S
C1300 C937 1.500 . S
C1305 C74 1.410 . S
C1310 C777 1.381 . S
C1315 C172 1.573 . S
C1320 C261 1.465 . S
C1330 C345 1.251 . S
C1325 C183 1.333 . S
C1335 C194 1.474 . S
C1340 C438 1.333 . S
C1345 C73 1.501 . S
C1350 C354 1.340 . S
C1355 C84 1.320 . S
C1360 C429 1.244 . S
C1370 C270 1.450 . S
C1365 C95 1.559 . S
C1375 C40 1.573 . S
C1380 C513 1.465 . S
C1385 C51 1.334 . S
C1390 C597 1.250 . S
C1395 C62 1.474 . S
C1400 C690 1.333 . S
C1405 C139 1.500 . S
C1410 C606 1.345 . S
C1420 C681 1.242 . S
C1415 C150 1.321 . S
C1425 C161 1.558 . S
C1430 C522 1.455 . S
C1435 C106 1.572 . S
C1440 C765 1.470 . S
C1445 C117 1.333 . S
C1450 C849 1.251 . S
C1460 C942 1.333 . S
C1455 C128 1.474 . S
C1465 C7 1.500 . S
C1470 C858 1.345 . S
C1475 C18 1.320 . S
C1480 C933 1.244 . S
C1485 C29 1.559 . S
C1490 C774 1.451 . S
