# Generated by pormake.
# Topology ocu, (6,8)-cn, num edge types: 1
# Building blocks:
#     Node 0, Type 0, BuildingBlock: PAMTUU_clean_sbu_0, # of connection points: 6
#     Node 1, Type 0, BuildingBlock: PAMTUU_clean_sbu_0, # of connection points: 6
#     Node 2, Type 0, BuildingBlock: PAMTUU_clean_sbu_0, # of connection points: 6
#     Node 3, Type 0, BuildingBlock: PAMTUU_clean_sbu_0, # of connection points: 6
#     Node 4, Type 0, BuildingBlock: PAMTUU_clean_sbu_0, # of connection points: 6
#     Node 5, Type 0, BuildingBlock: PAMTUU_clean_sbu_0, # of connection points: 6
#     Node 6, Type 0, BuildingBlock: PAMTUU_clean_sbu_0, # of connection points: 6
#     Node 7, Type 0, BuildingBlock: PAMTUU_clean_sbu_0, # of connection points: 6
#     Node 8, Type 1, BuildingBlock: TAGTUT_clean_sbu_1, # of connection points: 8
#     Node 9, Type 1, BuildingBlock: TAGTUT_clean_sbu_1, # of connection points: 8
#     Node 10, Type 1, BuildingBlock: TAGTUT_clean_sbu_1, # of connection points: 8
#     Node 11, Type 1, BuildingBlock: TAGTUT_clean_sbu_1, # of connection points: 8
#     Node 12, Type 1, BuildingBlock: TAGTUT_clean_sbu_1, # of connection points: 8
#     Node 13, Type 1, BuildingBlock: TAGTUT_clean_sbu_1, # of connection points: 8
#     Edge 14, Type (0, 1), BuildingBlock: CIFDUS_clean_linker_0, # of connection points: 2
#     Edge 15, Type (0, 1), BuildingBlock: CIFDUS_clean_linker_0, # of connection points: 2
#     Edge 16, Type (0, 1), BuildingBlock: CIFDUS_clean_linker_0, # of connection points: 2
#     Edge 17, Type (0, 1), BuildingBlock: CIFDUS_clean_linker_0, # of connection points: 2
#     Edge 18, Type (0, 1), BuildingBlock: CIFDUS_clean_linker_0, # of connection points: 2
#     Edge 19, Type (0, 1), BuildingBlock: CIFDUS_clean_linker_0, # of connection points: 2
#     Edge 20, Type (0, 1), BuildingBlock: CIFDUS_clean_linker_0, # of connection points: 2
#     Edge 21, Type (0, 1), BuildingBlock: CIFDUS_clean_linker_0, # of connection points: 2
#     Edge 22, Type (0, 1), BuildingBlock: CIFDUS_clean_linker_0, # of connection points: 2
#     Edge 23, Type (0, 1), BuildingBlock: CIFDUS_clean_linker_0, # of connection points: 2
#     Edge 24, Type (0, 1), BuildingBlock: CIFDUS_clean_linker_0, # of connection points: 2
#     Edge 25, Type (0, 1), BuildingBlock: CIFDUS_clean_linker_0, # of connection points: 2
#     Edge 26, Type (0, 1), BuildingBlock: CIFDUS_clean_linker_0, # of connection points: 2
#     Edge 27, Type (0, 1), BuildingBlock: CIFDUS_clean_linker_0, # of connection points: 2
#     Edge 28, Type (0, 1), BuildingBlock: CIFDUS_clean_linker_0, # of connection points: 2
#     Edge 29, Type (0, 1), BuildingBlock: CIFDUS_clean_linker_0, # of connection points: 2
#     Edge 30, Type (0, 1), BuildingBlock: CIFDUS_clean_linker_0, # of connection points: 2
#     Edge 31, Type (0, 1), BuildingBlock: CIFDUS_clean_linker_0, # of connection points: 2
#     Edge 32, Type (0, 1), BuildingBlock: CIFDUS_clean_linker_0, # of connection points: 2
#     Edge 33, Type (0, 1), BuildingBlock: CIFDUS_clean_linker_0, # of connection points: 2
#     Edge 34, Type (0, 1), BuildingBlock: CIFDUS_clean_linker_0, # of connection points: 2
#     Edge 35, Type (0, 1), BuildingBlock: CIFDUS_clean_linker_0, # of connection points: 2
#     Edge 36, Type (0, 1), BuildingBlock: CIFDUS_clean_linker_0, # of connection points: 2
#     Edge 37, Type (0, 1), BuildingBlock: CIFDUS_clean_linker_0, # of connection points: 2
#     Edge 38, Type (0, 1), BuildingBlock: CIFDUS_clean_linker_0, # of connection points: 2
#     Edge 39, Type (0, 1), BuildingBlock: CIFDUS_clean_linker_0, # of connection points: 2
#     Edge 40, Type (0, 1), BuildingBlock: CIFDUS_clean_linker_0, # of connection points: 2
#     Edge 41, Type (0, 1), BuildingBlock: CIFDUS_clean_linker_0, # of connection points: 2
#     Edge 42, Type (0, 1), BuildingBlock: CIFDUS_clean_linker_0, # of connection points: 2
#     Edge 43, Type (0, 1), BuildingBlock: CIFDUS_clean_linker_0, # of connection points: 2
#     Edge 44, Type (0, 1), BuildingBlock: CIFDUS_clean_linker_0, # of connection points: 2
#     Edge 45, Type (0, 1), BuildingBlock: CIFDUS_clean_linker_0, # of connection points: 2
#     Edge 46, Type (0, 1), BuildingBlock: CIFDUS_clean_linker_0, # of connection points: 2
#     Edge 47, Type (0, 1), BuildingBlock: CIFDUS_clean_linker_0, # of connection points: 2
#     Edge 48, Type (0, 1), BuildingBlock: CIFDUS_clean_linker_0, # of connection points: 2
#     Edge 49, Type (0, 1), BuildingBlock: CIFDUS_clean_linker_0, # of connection points: 2
#     Edge 50, Type (0, 1), BuildingBlock: CIFDUS_clean_linker_0, # of connection points: 2
#     Edge 51, Type (0, 1), BuildingBlock: CIFDUS_clean_linker_0, # of connection points: 2
#     Edge 52, Type (0, 1), BuildingBlock: CIFDUS_clean_linker_0, # of connection points: 2
#     Edge 53, Type (0, 1), BuildingBlock: CIFDUS_clean_linker_0, # of connection points: 2
#     Edge 54, Type (0, 1), BuildingBlock: CIFDUS_clean_linker_0, # of connection points: 2
#     Edge 55, Type (0, 1), BuildingBlock: CIFDUS_clean_linker_0, # of connection points: 2
#     Edge 56, Type (0, 1), BuildingBlock: CIFDUS_clean_linker_0, # of connection points: 2
#     Edge 57, Type (0, 1), BuildingBlock: CIFDUS_clean_linker_0, # of connection points: 2
#     Edge 58, Type (0, 1), BuildingBlock: CIFDUS_clean_linker_0, # of connection points: 2
#     Edge 59, Type (0, 1), BuildingBlock: CIFDUS_clean_linker_0, # of connection points: 2
#     Edge 60, Type (0, 1), BuildingBlock: CIFDUS_clean_linker_0, # of connection points: 2
#     Edge 61, Type (0, 1), BuildingBlock: CIFDUS_clean_linker_0, # of connection points: 2
# Relax obj value: 0.152
# Max RMSD: 0.272
# Mean RMSD: 0.146
data_MOF--net-ocu--node1-PAMTUU_clean_sbu_0--node2-TAGTUT_clean_sbu_1--edge1-CIFDUS_clean_linker_0
_symmetry_space_group_name_H-M    P1
_symmetry_Int_Tables_number       1
_symmetry_cell_setting            triclinic
loop_
_symmetry_equiv_pos_as_xyz
'x, y, z'
_cell_length_a     35.521846
_cell_length_b     36.149454
_cell_length_c     36.912227
_cell_angle_alpha  84.634362
_cell_angle_beta   97.682756
_cell_angle_gamma 116.44888
loop_
_atom_site_label
_atom_site_type_symbol
_atom_site_fract_x
_atom_site_fract_y
_atom_site_fract_z
_atom_type_partial_charge
Tb0 Tb 0.26167 0.28291 0.26544 0.0
Tb1 Tb 0.33922 0.28972 0.32394 0.0
C2 C 0.24975 0.21913 0.33243 0.0
C3 C 0.16292 0.2854 0.22497 0.0
C4 C 0.11488 0.3292 0.22615 0.0
C5 C 0.13711 0.32274 0.25847 0.0
C6 C 0.16042 0.30025 0.25799 0.0
C7 C 0.13772 0.2887 0.19349 0.0
C8 C 0.11342 0.31013 0.19417 0.0
C9 C 0.1981 0.27557 0.22145 0.0
O10 O 0.25487 0.32077 0.30728 0.0
O11 O 0.30806 0.32256 0.35078 0.0
O12 O 0.37002 0.33117 0.27975 0.0
O13 O 0.31449 0.33823 0.2462 0.0
O14 O 0.36445 0.26351 0.36772 0.0
O15 O 0.40047 0.3262 0.34866 0.0
O16 O 0.34852 0.25663 0.27915 0.0
O17 O 0.28991 0.24743 0.23933 0.0
O18 O 0.23414 0.24127 0.31145 0.0
O19 O 0.2899 0.22832 0.3342 0.0
C20 C 0.27506 0.3314 0.34047 0.0
O21 O 0.23461 0.30784 0.22228 0.0
O22 O 0.20018 0.24499 0.24188 0.0
C23 C 0.35505 0.34825 0.25257 0.0
C24 C 0.43583 0.28388 0.36375 0.0
C25 C 0.48311 0.24058 0.35637 0.0
C26 C 0.48207 0.25348 0.39083 0.0
C27 C 0.45817 0.27463 0.39456 0.0
C28 C 0.44056 0.27482 0.32886 0.0
C29 C 0.46338 0.25254 0.32524 0.0
C30 C 0.40163 0.29487 0.36849 0.0
C31 C 0.3254 0.2425 0.24755 0.0
H32 H 0.13866 0.3373 0.28333 0.0
H33 H 0.17908 0.29733 0.28271 0.0
H34 H 0.13944 0.27768 0.16773 0.0
H35 H 0.09676 0.31519 0.16883 0.0
H36 H 0.49664 0.24396 0.41526 0.0
H37 H 0.45472 0.2811 0.42168 0.0
H38 H 0.42421 0.28236 0.30465 0.0
H39 H 0.46343 0.24244 0.29855 0.0
Tb40 Tb 0.76247 0.26499 0.28333 0.0
Tb41 Tb 0.84737 0.24967 0.28337 0.0
C42 C 0.833 0.28601 0.3482 0.0
C43 C 0.65963 0.2781 0.2871 0.0
C44 C 0.59158 0.29907 0.27705 0.0
C45 C 0.61974 0.30983 0.30901 0.0
C46 C 0.65341 0.29925 0.31404 0.0
C47 C 0.62995 0.26489 0.25635 0.0
C48 C 0.59618 0.27523 0.2514 0.0
C49 C 0.69496 0.26691 0.29359 0.0
O50 O 0.80625 0.32417 0.25919 0.0
O51 O 0.86488 0.3116 0.25882 0.0
O52 O 0.80125 0.21854 0.23903 0.0
O53 O 0.77112 0.26294 0.22692 0.0
O54 O 0.8954 0.23397 0.30748 0.0
O55 O 0.89068 0.25023 0.24962 0.0
O56 O 0.80614 0.20134 0.32025 0.0
O57 O 0.74568 0.19947 0.28963 0.0
O58 O 0.79258 0.26804 0.33835 0.0
O59 O 0.86114 0.29121 0.32634 0.0
C60 C 0.84516 0.33524 0.25102 0.0
O61 O 0.6967 0.24084 0.27234 0.0
O62 O 0.73225 0.29428 0.30637 0.0
C63 C 0.78498 0.23829 0.21567 0.0
C64 C 0.91943 0.20343 0.26767 0.0
C65 C 0.95136 0.14519 0.26866 0.0
C66 C 0.97123 0.18381 0.25033 0.0
C67 C 0.95562 0.21305 0.25035 0.0
C68 C 0.89556 0.16278 0.28015 0.0
C69 C 0.91134 0.13368 0.28048 0.0
C70 C 0.91015 0.23705 0.27617 0.0
C71 C 0.76451 0.18435 0.31538 0.0
H72 H 0.61695 0.32826 0.32909 0.0
H73 H 0.67518 0.3084 0.33867 0.0
H74 H 0.63336 0.24754 0.23566 0.0
H75 H 0.57547 0.26708 0.22612 0.0
H76 H 1.00158 0.19321 0.24023 0.0
H77 H 0.97377 0.24416 0.23966 0.0
H78 H 0.86681 0.15454 0.29266 0.0
H79 H 0.8948 0.10412 0.29448 0.0
Tb80 Tb 0.85198 0.82274 0.26581 0.0
Tb81 Tb 0.76924 0.75602 0.29649 0.0
C82 C 0.82337 0.84017 0.33357 0.0
C83 C 0.95287 0.86639 0.22968 0.0
C84 C 0.9625 0.81369 0.18503 0.0
C85 C 0.96941 0.80942 0.22331 0.0
C86 C 0.96406 0.83538 0.24561 0.0
C87 C 0.95652 0.8768 0.19238 0.0
C88 C 0.95997 0.84989 0.16993 0.0
C89 C 0.92213 0.87464 0.24608 0.0
O90 O 0.87442 0.78239 0.3062 0.0
O91 O 0.81281 0.72536 0.31516 0.0
O92 O 0.77203 0.72517 0.2505 0.0
O93 O 0.8326 0.77385 0.22739 0.0
O94 O 0.73908 0.71562 0.33925 0.0
O95 O 0.70282 0.72376 0.29044 0.0
O96 O 0.74657 0.80173 0.26355 0.0
O97 O 0.8054 0.8446 0.23583 0.0
O98 O 0.83419 0.85485 0.30123 0.0
O99 O 0.80466 0.80012 0.33941 0.0
C100 C 0.85499 0.74349 0.32002 0.0
O101 O 0.8863 0.86351 0.22557 0.0
O102 O 0.91626 0.86232 0.28015 0.0
C103 C 0.80006 0.73728 0.22691 0.0
C104 C 0.68173 0.72667 0.34663 0.0
C105 C 0.65575 0.76085 0.39789 0.0
C106 C 0.63397 0.71819 0.39118 0.0
C107 C 0.64743 0.70102 0.36601 0.0
C108 C 0.70165 0.76918 0.35172 0.0
C109 C 0.68985 0.78585 0.37769 0.0
C110 C 0.70188 0.71074 0.32456 0.0
C111 C 0.76508 0.83378 0.24002 0.0
H112 H 0.9745 0.78359 0.23607 0.0
H113 H 0.96306 0.82755 0.27464 0.0
H114 H 0.94896 0.90129 0.17967 0.0
H115 H 0.95544 0.8553 0.14073 0.0
H116 H 0.60725 0.69796 0.40577 0.0
H117 H 0.63189 0.66797 0.36235 0.0
H118 H 0.72817 0.78945 0.33693 0.0
H119 H 0.7091 0.8183 0.38265 0.0
Tb120 Tb 0.34415 0.75772 0.28928 0.0
Tb121 Tb 0.2755 0.79683 0.28154 0.0
C122 C 0.26105 0.71345 0.32243 0.0
C123 C 0.42413 0.73017 0.26492 0.0
C124 C 0.46194 0.72722 0.20397 0.0
C125 C 0.43758 0.69065 0.22326 0.0
C126 C 0.41897 0.69214 0.25361 0.0
C127 C 0.45007 0.76697 0.24654 0.0
C128 C 0.46909 0.76548 0.21637 0.0
C129 C 0.3986 0.73059 0.2929 0.0
O130 O 0.29285 0.72324 0.24794 0.0
O131 O 0.26901 0.77214 0.22822 0.0
O132 O 0.33532 0.8435 0.2664 0.0
O133 O 0.36042 0.80258 0.24468 0.0
O134 O 0.21286 0.78867 0.27921 0.0
O135 O 0.26444 0.84966 0.27689 0.0
O136 O 0.30553 0.80664 0.33766 0.0
O137 O 0.36814 0.80923 0.32555 0.0
O138 O 0.30182 0.72667 0.33005 0.0
O139 O 0.24449 0.73307 0.2993 0.0
C140 C 0.27055 0.73705 0.22407 0.0
O141 O 0.40662 0.76678 0.30393 0.0
O142 O 0.35809 0.70738 0.28674 0.0
C143 C 0.36177 0.83881 0.24794 0.0
C144 C 0.21394 0.8387 0.31609 0.0
C145 C 0.20585 0.86574 0.38238 0.0
C146 C 0.20499 0.88845 0.3494 0.0
C147 C 0.20907 0.87501 0.31646 0.0
C148 C 0.21401 0.81561 0.34891 0.0
C149 C 0.20982 0.8289 0.38171 0.0
C150 C 0.22513 0.82795 0.28304 0.0
C151 C 0.34641 0.81932 0.34544 0.0
H152 H 0.43241 0.66083 0.21446 0.0
H153 H 0.3992 0.66349 0.26741 0.0
H154 H 0.45456 0.79683 0.25461 0.0
H155 H 0.48798 0.79399 0.20192 0.0
H156 H 0.20139 0.9167 0.34911 0.0
H157 H 0.20962 0.89354 0.29152 0.0
H158 H 0.2187 0.78791 0.34945 0.0
H159 H 0.21096 0.81101 0.40671 0.0
Tb160 Tb 0.26687 0.82178 0.77728 0.0
Tb161 Tb 0.31187 0.76333 0.79683 0.0
C162 C 0.33504 0.84088 0.84622 0.0
C163 C 0.21199 0.88763 0.78372 0.0
C164 C 0.16273 0.92241 0.80662 0.0
C165 C 0.15461 0.88118 0.81691 0.0
C166 C 0.17873 0.86369 0.80505 0.0
C167 C 0.22449 0.93013 0.77899 0.0
C168 C 0.2005 0.94753 0.79069 0.0
C169 C 0.2316 0.869 0.76327 0.0
O170 O 0.32806 0.85299 0.75455 0.0
O171 O 0.33919 0.79665 0.74837 0.0
O172 O 0.26027 0.72965 0.75512 0.0
O173 O 0.25226 0.78521 0.72785 0.0
O174 O 0.36621 0.75369 0.80483 0.0
O175 O 0.30403 0.70324 0.81114 0.0
O176 O 0.27516 0.75444 0.8414 0.0
O177 O 0.22414 0.77026 0.81071 0.0
O178 O 0.29944 0.84198 0.83222 0.0
O179 O 0.34849 0.81739 0.83158 0.0
C180 C 0.34818 0.83545 0.74082 0.0
O181 O 0.27226 0.88214 0.77054 0.0
O182 O 0.21199 0.82914 0.75921 0.0
C183 C 0.24697 0.7467 0.7265 0.0
C184 C 0.3593 0.70652 0.85363 0.0
C185 C 0.39269 0.69158 0.92311 0.0
C186 C 0.38592 0.66588 0.8939 0.0
C187 C 0.36939 0.67338 0.85948 0.0
C188 C 0.36345 0.73093 0.88279 0.0
C189 C 0.38062 0.7238 0.91744 0.0
C190 C 0.34478 0.71579 0.81698 0.0
C191 C 0.23729 0.75226 0.83867 0.0
H192 H 0.1269 0.86124 0.83051 0.0
H193 H 0.16947 0.83096 0.81031 0.0
H194 H 0.25086 0.94938 0.76352 0.0
H195 H 0.20901 0.97963 0.78277 0.0
H196 H 0.39583 0.64134 0.89684 0.0
H197 H 0.36584 0.65419 0.83719 0.0
H198 H 0.35462 0.75616 0.87841 0.0
H199 H 0.38587 0.74414 0.93928 0.0
Tb200 Tb 0.33971 0.30301 0.76047 0.0
Tb201 Tb 0.26231 0.27541 0.81178 0.0
C202 C 0.34305 0.36206 0.81872 0.0
C203 C 0.40676 0.29374 0.69507 0.0
C204 C 0.42612 0.24497 0.65165 0.0
C205 C 0.45742 0.27283 0.67633 0.0
C206 C 0.44782 0.29685 0.69774 0.0
C207 C 0.37542 0.26633 0.67019 0.0
C208 C 0.38496 0.24211 0.6488 0.0
C209 C 0.39729 0.31819 0.71946 0.0
O210 O 0.36204 0.28651 0.81549 0.0
O211 O 0.29868 0.24039 0.83483 0.0
O212 O 0.23972 0.22736 0.77241 0.0
O213 O 0.30334 0.23704 0.75473 0.0
O214 O 0.24263 0.26185 0.86464 0.0
O215 O 0.1993 0.26166 0.8179 0.0
O216 O 0.25435 0.32028 0.7697 0.0
O217 O 0.28607 0.30775 0.72567 0.0
O218 O 0.35366 0.36012 0.78638 0.0
O219 O 0.31314 0.33054 0.83414 0.0
C220 C 0.34037 0.25543 0.83754 0.0
O221 O 0.36424 0.32496 0.70969 0.0
O222 O 0.39999 0.30837 0.75415 0.0
C223 C 0.26248 0.21525 0.7557 0.0
C224 C 0.19405 0.2872 0.8728 0.0
C225 C 0.17329 0.33831 0.91176 0.0
C226 C 0.15936 0.29597 0.92155 0.0
C227 C 0.16958 0.27073 0.90223 0.0
C228 C 0.20863 0.32947 0.86314 0.0
C229 C 0.19824 0.35475 0.88234 0.0
C230 C 0.20574 0.2605 0.85351 0.0
C231 C 0.26015 0.32167 0.7349 0.0
H232 H 0.48927 0.27546 0.67976 0.0
H233 H 0.47248 0.31758 0.71683 0.0
H234 H 0.34353 0.26348 0.66736 0.0
H235 H 0.36016 0.22134 0.62987 0.0
H236 H 0.14085 0.2823 0.94445 0.0
H237 H 0.15857 0.23833 0.91045 0.0
H238 H 0.22802 0.3429 0.84072 0.0
H239 H 0.20923 0.38702 0.87373 0.0
Tb240 Tb 0.84652 0.25175 0.81154 0.0
Tb241 Tb 0.77166 0.27777 0.78137 0.0
C242 C 0.76557 0.21946 0.85368 0.0
C243 C 0.91684 0.21406 0.79188 0.0
C244 C 0.94187 0.19794 0.72784 0.0
C245 C 0.97072 0.21121 0.75955 0.0
C246 C 0.95834 0.2195 0.79126 0.0
C247 C 0.88793 0.19972 0.76064 0.0
C248 C 0.90022 0.19196 0.72907 0.0
C249 C 0.9043 0.22891 0.82196 0.0
O250 O 0.79468 0.20017 0.78409 0.0
O251 O 0.77061 0.23678 0.74187 0.0
O252 O 0.82566 0.31903 0.75016 0.0
O253 O 0.8579 0.27625 0.75531 0.0
O254 O 0.70736 0.26023 0.76407 0.0
O255 O 0.75157 0.32453 0.76937 0.0
O256 O 0.80067 0.30796 0.83213 0.0
O257 O 0.86687 0.31374 0.8304 0.0
O258 O 0.80724 0.23362 0.8574 0.0
O259 O 0.74598 0.22666 0.82274 0.0
C260 C 0.77612 0.20373 0.75194 0.0
O261 O 0.91167 0.26765 0.81818 0.0
O262 O 0.86616 0.20576 0.83085 0.0
C263 C 0.85391 0.30876 0.73977 0.0
C264 C 0.68896 0.30153 0.79633 0.0
C265 C 0.65422 0.31592 0.85461 0.0
C266 C 0.64347 0.32665 0.81834 0.0
C267 C 0.66104 0.31973 0.78927 0.0
C268 C 0.69831 0.28965 0.83242 0.0
C269 C 0.68121 0.29674 0.86121 0.0
C270 C 0.71189 0.29763 0.76771 0.0
C271 C 0.84133 0.32714 0.84064 0.0
H272 H 1.00297 0.21566 0.75976 0.0
H273 H 0.98136 0.23117 0.8148 0.0
H274 H 0.856 0.19603 0.76 0.0
H275 H 0.87728 0.18273 0.70519 0.0
H276 H 0.62275 0.34166 0.81266 0.0
H277 H 0.65373 0.32941 0.76165 0.0
H278 H 0.7199 0.27587 0.83865 0.0
H279 H 0.68959 0.2877 0.88878 0.0
Tb280 Tb 0.80761 0.82126 0.82521 0.0
Tb281 Tb 0.77689 0.75025 0.76381 0.0
C282 C 0.85252 0.8376 0.75494 0.0
C283 C 0.80474 0.89348 0.88946 0.0
C284 C 0.7588 0.92525 0.92326 0.0
C285 C 0.75605 0.92471 0.88486 0.0
C286 C 0.77853 0.9088 0.86816 0.0
C287 C 0.80835 0.8948 0.9277 0.0
C288 C 0.78558 0.91041 0.94445 0.0
C289 C 0.82756 0.87507 0.87247 0.0
O290 O 0.76486 0.83403 0.78299 0.0
O291 O 0.72602 0.76934 0.75997 0.0
O292 O 0.75047 0.71858 0.81347 0.0
O293 O 0.74754 0.77208 0.83965 0.0
O294 O 0.75927 0.73385 0.70883 0.0
O295 O 0.76253 0.68964 0.75098 0.0
O296 O 0.83766 0.75533 0.7905 0.0
O297 O 0.83401 0.77797 0.8452 0.0
O298 O 0.859 0.84196 0.79047 0.0
O299 O 0.81719 0.80921 0.73979 0.0
C300 C 0.73136 0.8074 0.76356 0.0
O301 O 0.81696 0.83608 0.88053 0.0
O302 O 0.83232 0.88378 0.8378 0.0
C303 C 0.73753 0.73251 0.83836 0.0
C304 C 0.78613 0.688 0.69502 0.0
C305 C 0.83997 0.66775 0.65967 0.0
C306 C 0.804 0.63652 0.6743 0.0
C307 C 0.77734 0.64658 0.69167 0.0
C308 C 0.82193 0.71935 0.68045 0.0
C309 C 0.84842 0.70931 0.66277 0.0
C310 C 0.75946 0.69792 0.71594 0.0
C311 C 0.848 0.7587 0.82597 0.0
H312 H 0.73634 0.93647 0.86758 0.0
H313 H 0.77502 0.90817 0.83858 0.0
H314 H 0.82828 0.88305 0.94468 0.0
H315 H 0.78809 0.90976 0.97404 0.0
H316 H 0.79687 0.60422 0.67307 0.0
H317 H 0.75022 0.62196 0.70316 0.0
H318 H 0.82975 0.75165 0.68304 0.0
H319 H 0.87545 0.73416 0.65144 0.0
C320 C 0.98686 0.12034 0.55164 0.0
C321 C 0.03731 0.09991 0.45345 0.0
C322 C 0.97395 0.94331 0.5032 0.0
Mg323 Mg 0.06824 0.11705 0.53384 0.0
O324 O 1.03379 0.06112 0.54549 0.0
Mg325 Mg 0.9776 0.03268 0.51642 0.0
Mg326 Mg 0.05569 0.02031 0.5424 0.0
O327 O 0.07772 0.97893 0.54046 0.0
Mg328 Mg 0.04262 0.92428 0.55574 0.0
Mg329 Mg 0.13157 0.00786 0.57324 0.0
C330 C 0.13518 0.09604 0.58527 0.0
C331 C 0.1381 0.06113 0.49561 0.0
O332 O 0.96434 0.08458 0.53783 0.0
O333 O 1.02716 0.13876 0.55182 0.0
O334 O 1.00379 0.07031 0.46428 0.0
O335 O 0.06823 0.12199 0.47579 0.0
O336 O 0.12534 0.12389 0.56879 0.0
O337 O 0.11115 0.05738 0.58213 0.0
C338 C 0.97571 0.9781 0.59096 0.0
O339 O 1.01366 0.98441 0.58811 0.0
O340 O 0.95584 0.99328 0.56761 0.0
O341 O 0.14614 0.95463 0.55872 0.0
O342 O 0.08421 0.89911 0.54514 0.0
O343 O 0.10173 0.97364 0.62592 0.0
C344 C 0.12472 0.91741 0.54787 0.0
O345 O 0.0379 0.92201 0.61287 0.0
O346 O 0.98595 0.91731 0.5207 0.0
C347 C 0.06696 0.94517 0.63584 0.0
O348 O 0.99762 0.98263 0.50313 0.0
O349 O 0.10012 0.05645 0.49692 0.0
O350 O 0.15587 0.0451 0.52056 0.0
C351 C 0.43604 0.14444 0.11377 0.0
C352 C 0.44401 0.14051 0.99388 0.0
C353 C 0.4636 0.98239 0.02293 0.0
Mg354 Mg 0.51067 0.15688 0.06652 0.0
O355 O 0.49851 0.10091 0.06063 0.0
Mg356 Mg 0.43517 0.06412 0.05897 0.0
Mg357 Mg 0.53148 0.0634 0.068 0.0
O358 O 0.56125 0.02312 0.08485 0.0
Mg359 Mg 0.55334 0.97325 0.06572 0.0
Mg360 Mg 0.62313 0.06237 0.0974 0.0
C361 C 0.60462 0.15199 0.08519 0.0
C362 C 0.60626 0.09269 1.00959 0.0
O363 O 0.41462 0.11133 0.09446 0.0
O364 O 0.47605 0.16393 0.11097 0.0
O365 O 0.42785 0.10157 1.00355 0.0
O366 O 0.47621 0.16704 0.01326 0.0
O367 O 0.57922 0.16929 0.07668 0.0
O368 O 0.59181 0.11273 0.093 0.0
C369 C 0.47253 0.03488 0.13455 0.0
O370 O 0.50735 0.04454 0.12229 0.0
O371 O 0.44123 0.03621 0.11457 0.0
O372 O 0.65143 0.02202 0.07492 0.0
O373 O 0.60143 0.99262 0.02947 0.0
O374 O 0.64485 1.00084 0.11856 0.0
C375 C 0.63969 1.0053 0.04346 0.0
O376 O 0.58524 0.94259 0.11073 0.0
O377 O 0.49205 0.96876 0.03259 0.0
C378 C 0.62458 0.96043 0.12477 0.0
O379 O 0.46563 0.01494 0.03825 0.0
O380 O 0.56794 0.08649 0.01317 0.0
O381 O 0.62869 0.08405 0.03617 0.0
C382 C 0.94003 0.65659 0.04388 0.0
C383 C 0.96212 0.63475 0.94535 0.0
C384 C 0.91832 0.47927 0.99256 0.0
Mg385 Mg 1.01417 0.64528 0.01789 0.0
O386 O 0.98175 0.59368 0.04021 0.0
Mg387 Mg 0.92204 0.56512 0.01633 0.0
Mg388 Mg 1.00323 0.55332 0.03228 0.0
O389 O 1.02411 0.5132 0.02282 0.0
Mg390 Mg 0.98977 0.45849 0.03635 0.0
Mg391 Mg 0.08236 0.53903 0.04897 0.0
C392 C 0.08919 0.62952 0.06522 0.0
C393 C 0.07733 0.59783 0.97714 0.0
O394 O 0.91368 0.61825 0.04004 0.0
O395 O 0.9787 0.67187 0.03725 0.0
O396 O 0.93414 0.60579 0.96307 0.0
O397 O 1.00062 0.65146 0.95906 0.0
O398 O 0.07533 0.65368 0.04649 0.0
O399 O 0.06602 0.59002 0.06829 0.0
C400 C 0.92938 0.50775 0.08924 0.0
O401 O 0.96623 0.51402 0.08186 0.0
O402 O 0.90829 0.52432 0.06908 0.0
O403 O 0.09169 0.4856 0.02404 0.0
O404 O 1.02645 0.43296 0.01589 0.0
O405 O 0.06275 0.49687 0.1022 0.0
C406 C 0.06634 0.44876 0.01352 0.0
O407 O 0.99506 0.45126 0.09391 0.0
O408 O 0.93018 0.45225 1.00769 0.0
C409 C 1.02968 0.46748 0.11432 0.0
O410 O 0.94189 0.51819 0.99533 0.0
O411 O 0.04036 0.59191 0.98371 0.0
O412 O 0.09806 0.58065 0.99718 0.0
C413 C 0.52336 0.63755 0.051 0.0
C414 C 0.55584 0.61675 0.96223 0.0
C415 C 0.48258 0.45508 0.99411 0.0
Mg416 Mg 0.59624 0.62205 0.03505 0.0
O417 O 0.55488 0.56725 0.04869 0.0
Mg418 Mg 0.50215 0.546 0.014 0.0
Mg419 Mg 0.56757 0.52058 0.04248 0.0
O420 O 0.58051 0.47465 0.03461 0.0
Mg421 Mg 0.53895 0.42068 0.04398 0.0
Mg422 Mg 0.63699 0.4948 0.06368 0.0
C423 C 0.65679 0.58787 0.08279 0.0
C424 C 0.64644 0.55655 0.99281 0.0
O425 O 0.49868 0.60389 0.03461 0.0
O426 O 0.56345 0.65003 0.05676 0.0
O427 O 0.5464 0.57933 0.97023 0.0
O428 O 0.59108 0.642 0.97745 0.0
O429 O 0.65104 0.618 0.06578 0.0
O430 O 0.62781 0.55017 0.08205 0.0
C431 C 0.48305 0.48643 0.08673 0.0
O432 O 0.51932 0.4863 0.08618 0.0
O433 O 0.46973 0.50695 0.06246 0.0
O434 O 0.63951 0.43797 0.03982 0.0
O435 O 0.57238 0.3907 0.02596 0.0
O436 O 0.60619 0.45731 0.1148 0.0
C437 C 0.61228 0.40351 0.02596 0.0
O438 O 0.53768 0.41504 0.10169 0.0
O439 O 0.48585 0.42275 1.00827 0.0
C440 C 0.56991 0.43216 0.12472 0.0
O441 O 0.51108 0.49148 1.00111 0.0
O442 O 0.61156 0.55551 0.99932 0.0
O443 O 0.66307 0.5352 0.01218 0.0
C444 C 0.96023 0.58014 0.54866 0.0
C445 C 0.97484 0.60172 0.44241 0.0
C446 C 0.9876 0.42847 0.48498 0.0
Mg447 Mg 0.04279 0.60295 0.51385 0.0
O448 O 1.02563 0.54505 0.5181 0.0
Mg449 Mg 0.9653 0.5096 0.49883 0.0
Mg450 Mg 0.05935 0.50898 0.51856 0.0
O451 O 0.09319 0.47373 0.51428 0.0
Mg452 Mg 0.07933 0.41736 0.50918 0.0
Mg453 Mg 0.15506 0.50965 0.52483 0.0
C454 C 0.1319 0.59248 0.55731 0.0
C455 C 0.12125 0.55236 0.45521 0.0
O456 O 0.94289 0.54778 0.52943 0.0
O457 O 1.00009 0.60379 0.5505 0.0
O458 O 0.95936 0.56134 0.44762 0.0
O459 O 1.00949 0.62401 0.46227 0.0
O460 O 0.10632 0.60876 0.5441 0.0
O461 O 0.1229 0.55356 0.55213 0.0
C462 C 0.98491 0.45914 0.5759 0.0
O463 O 1.02416 0.4702 0.57152 0.0
O464 O 0.96156 0.46989 0.55212 0.0
O465 O 0.17836 0.46546 0.48646 0.0
O466 O 0.11839 0.41187 0.46789 0.0
O467 O 0.15812 0.46704 0.57795 0.0
C468 C 0.15867 0.43228 0.46668 0.0
O469 O 0.1095 0.40307 0.56351 0.0
O470 O 1.01207 0.4099 0.4929 0.0
C471 C 0.1405 0.42766 0.58525 0.0
O472 O 1.00109 0.4681 0.48421 0.0
O473 O 0.08629 0.5434 0.46736 0.0
O474 O 0.1499 0.54397 0.47306 0.0
C475 C 0.52757 0.13 0.54966 0.0
C476 C 0.56613 0.09908 0.455 0.0
C477 C 0.4947 0.93995 0.51351 0.0
Mg478 Mg 0.60258 0.11274 0.53461 0.0
O479 O 0.56518 0.05959 0.54934 0.0
Mg480 Mg 0.5079 0.03525 0.5215 0.0
Mg481 Mg 0.58189 0.01436 0.54678 0.0
O482 O 0.59922 0.9693 0.54564 0.0
Mg483 Mg 0.56422 0.91582 0.5632 0.0
Mg484 Mg 0.65908 0.99599 0.56893 0.0
C485 C 0.66945 0.08689 0.58265 0.0
C486 C 0.6585 0.04921 0.49231 0.0
O487 O 0.50149 0.09334 0.53932 0.0
O488 O 0.56774 0.1435 0.55036 0.0
O489 O 0.53197 0.07125 0.46683 0.0
O490 O 0.59977 0.11615 0.47653 0.0
O491 O 0.6597 0.11473 0.56591 0.0
O492 O 0.64325 0.04845 0.58365 0.0
C493 C 0.50551 0.98469 0.59942 0.0
O494 O 0.54058 0.98376 0.59544 0.0
O495 O 0.48833 1.00202 0.5755 0.0
O496 O 0.66374 0.94101 0.54613 0.0
O497 O 0.59726 0.88949 0.53887 0.0
O498 O 0.64448 0.95848 0.62383 0.0
C499 C 0.6369 0.90479 0.53568 0.0
O500 O 0.58011 0.90583 0.62155 0.0
O501 O 0.50477 0.91352 0.53316 0.0
C502 C 0.61644 0.92652 0.63877 0.0
O503 O 0.52076 0.97865 0.5104 0.0
O504 O 0.62198 0.04643 0.49661 0.0
O505 O 0.67657 0.03242 0.51568 0.0
H506 H 0.27455 0.18301 0.39292 0.0
H507 H 0.16311 0.17962 0.32731 0.0
H508 H 0.11843 0.12788 0.37008 0.0
H509 H 0.11104 0.08872 0.42973 0.0
H510 H 0.22338 0.09342 0.49485 0.0
H511 H 0.26714 0.14018 0.44946 0.0
C512 C 0.24045 0.17097 0.38786 0.0
C513 C 0.22236 0.18554 0.35698 0.0
C514 C 0.21489 0.14229 0.41324 0.0
C515 C 0.17804 0.16942 0.35102 0.0
C516 C 0.15239 0.1401 0.37572 0.0
C517 C 0.14505 0.09997 0.43397 0.0
C518 C 0.16366 0.08769 0.46605 0.0
C519 C 0.17044 0.12715 0.40752 0.0
C520 C 0.2079 0.10216 0.47062 0.0
C521 C 0.23316 0.12913 0.44464 0.0
H522 H 1.03108 0.18285 0.30085 0.0
H523 H 0.92915 0.06178 0.28008 0.0
H524 H 0.9542 0.03405 0.33599 0.0
H525 H 0.9912 0.04959 0.39791 0.0
H526 H 0.08718 0.17318 0.42055 0.0
H527 H 0.07826 0.19469 0.35668 0.0
C528 C 1.01535 0.14994 0.30741 0.0
C529 C 0.97715 0.12473 0.28722 0.0
C530 C 1.0279 0.13515 0.34084 0.0
C531 C 0.95795 0.08203 0.29583 0.0
C532 C 0.97188 0.06635 0.3281 0.0
C533 C 1.01072 0.08102 0.38865 0.0
C534 C 0.03873 0.11019 0.414 0.0
C535 C 1.00448 0.09347 0.35219 0.0
C536 C 0.06472 0.15045 0.40164 0.0
C537 C 0.05964 0.16275 0.36513 0.0
H538 H 0.82067 0.82106 0.40667 0.0
H539 H 0.86637 0.9243 0.32898 0.0
H540 H 0.91225 0.96923 0.37761 0.0
H541 H 0.9502 0.97512 0.43928 0.0
H542 H 0.90583 0.87121 0.51631 0.0
H543 H 0.84827 0.83127 0.47134 0.0
C544 C 0.83981 0.85361 0.40053 0.0
C545 C 0.84112 0.86886 0.36411 0.0
C546 C 0.86693 0.87924 0.42854 0.0
C547 C 0.86548 0.91139 0.35672 0.0
C548 C 0.89191 0.93722 0.38452 0.0
C549 C 0.92704 0.94429 0.44657 0.0
C550 C 0.93288 0.92571 0.48059 0.0
C551 C 0.89462 0.92093 0.42016 0.0
C552 C 0.90249 0.88582 0.48986 0.0
C553 C 0.86963 0.86285 0.46413 0.0
H554 H 0.15748 0.82023 0.43603 0.0
H555 H 0.24714 0.94402 0.40726 0.0
H556 H 0.23664 0.96959 0.46221 0.0
H557 H 0.19479 0.95825 0.51301 0.0
H558 H 0.10077 0.83551 0.53891 0.0
H559 H 0.12172 0.80756 0.49155 0.0
C560 C 0.17534 0.85265 0.44221 0.0
C561 C 0.2025 0.88036 0.4174 0.0
C562 C 0.16862 0.86718 0.47349 0.0
C563 C 0.22531 0.92231 0.42558 0.0
C564 C 0.21957 0.93686 0.4571 0.0
C565 C 0.17989 0.92517 0.50922 0.0
C566 C 0.14611 0.89897 0.52923 0.0
C567 C 0.19034 0.90979 0.4806 0.0
C568 C 0.1268 0.85625 0.52372 0.0
C569 C 0.13843 0.84037 0.49639 0.0
H570 H 0.07809 0.8729 0.7894 0.0
H571 H 0.16423 1.00021 0.8085 0.0
H572 H 0.13249 0.02174 0.75299 0.0
H573 H 0.10191 1.00063 0.68959 0.0
H574 H 1.01854 0.87233 0.67012 0.0
H575 H 1.02749 0.85482 0.73509 0.0
C576 C 0.08892 0.90561 0.78263 0.0
C577 C 0.12728 0.93466 0.79998 0.0
C578 C 0.0722 0.91722 0.74944 0.0
C579 C 0.13715 0.97684 0.79331 0.0
C580 C 0.11951 0.9892 0.76113 0.0
C581 C 0.08481 0.96905 0.69981 0.0
C582 C 0.0617 0.93734 0.67512 0.0
C583 C 0.09065 0.9591 0.73707 0.0
C584 C 0.03785 0.89695 0.68861 0.0
C585 C 0.04288 0.88694 0.72578 0.0
H586 H 0.28485 0.20638 0.69166 0.0
H587 H 0.19021 0.14519 0.76665 0.0
H588 H 0.14612 0.09435 0.72084 0.0
H589 H 0.12892 0.0768 0.65623 0.0
H590 H 0.21794 0.1472 0.57875 0.0
H591 H 0.27066 0.18453 0.62866 0.0
C592 C 0.25515 0.18121 0.69829 0.0
C593 C 0.24054 0.17951 0.73221 0.0
C594 C 0.22899 0.15405 0.67111 0.0
C595 C 0.20181 0.14711 0.74051 0.0
C596 C 0.17664 0.1182 0.71433 0.0
C597 C 0.16047 0.09929 0.65063 0.0
C598 C 0.17013 0.10931 0.61432 0.0
C599 C 0.18904 0.12266 0.67902 0.0
C600 C 0.2104 0.13907 0.60676 0.0
C601 C 0.24021 0.16053 0.63519 0.0
H602 H 0.89582 0.13873 0.67774 0.0
H603 H 1.01736 0.24332 0.69921 0.0
H604 H 0.03939 0.23237 0.64296 0.0
H605 H 1.02608 0.19046 0.59032 0.0
H606 H 0.90491 0.08532 0.56905 0.0
H607 H 0.87997 0.10101 0.62145 0.0
C608 C 0.92691 0.15965 0.66992 0.0
C609 C 0.95505 0.19152 0.69315 0.0
C610 C 0.93922 0.15356 0.63722 0.0
C611 C 0.99538 0.21786 0.68254 0.0
C612 C 1.00785 0.21196 0.65008 0.0
C613 C 0.99385 0.17134 0.59654 0.0
C614 C 0.96767 0.13635 0.57586 0.0
C615 C 0.98025 0.17954 0.62752 0.0
C616 C 0.92591 0.11236 0.58438 0.0
C617 C 0.91176 0.12102 0.61468 0.0
H618 H 0.84266 0.83848 0.68155 0.0
H619 H 0.93285 0.89991 0.77246 0.0
H620 H 0.98161 0.94752 0.72944 0.0
H621 H 0.9959 0.97419 0.6652 0.0
H622 H 0.90138 0.91322 0.57673 0.0
H623 H 0.85689 0.86261 0.61977 0.0
C624 C 0.87295 0.86216 0.69231 0.0
C625 C 0.88384 0.86585 0.73025 0.0
C626 C 0.89993 0.88963 0.66773 0.0
C627 C 0.9235 0.89662 0.74334 0.0
C628 C 0.95133 0.92383 0.71877 0.0
C629 C 0.96565 0.94959 0.65564 0.0
C630 C 0.95145 0.94741 0.6181 0.0
C631 C 0.93952 0.92105 0.68082 0.0
C632 C 0.9124 0.91563 0.60566 0.0
C633 C 0.88706 0.8867 0.63017 0.0
H634 H 0.40117 0.23064 0.24782 0.0
H635 H 0.28319 0.20404 0.18187 0.0
H636 H 0.30304 0.17135 0.13736 0.0
H637 H 0.35511 0.14955 0.11423 0.0
H638 H 0.47383 0.17896 0.18008 0.0
H639 H 0.45201 0.20823 0.2255 0.0
C640 C 0.37925 0.21765 0.22394 0.0
C641 C 0.33966 0.22076 0.21986 0.0
C642 C 0.3913 0.19838 0.19717 0.0
C643 C 0.31346 0.2031 0.1874 0.0
C644 C 0.32507 0.18395 0.16128 0.0
C645 C 0.37654 0.1621 0.13847 0.0
C646 C 0.41704 0.16063 0.1423 0.0
C647 C 0.36408 0.18116 0.16537 0.0
C648 C 0.44293 0.17859 0.17477 0.0
C649 C 0.43042 0.19612 0.20131 0.0
H650 H 0.81029 0.37385 0.19919 0.0
H651 H 0.93011 0.38229 0.25045 0.0
H652 H 0.96721 0.4376 0.20672 0.0
H653 H 0.96566 0.47944 0.14978 0.0
H654 H 0.84545 0.4701 0.09836 0.0
H655 H 0.80914 0.41962 0.14542 0.0
C656 C 0.84455 0.38834 0.20125 0.0
C657 C 0.86719 0.37377 0.22832 0.0
C658 C 0.86589 0.4195 0.1751 0.0
C659 C 0.91167 0.39267 0.22999 0.0
C660 C 0.93302 0.42416 0.20468 0.0
C661 C 0.93156 0.46639 0.14885 0.0
C662 C 0.90859 0.47857 0.12002 0.0
C663 C 0.91048 0.43706 0.17636 0.0
C664 C 0.86431 0.4616 0.11996 0.0
C665 C 0.84329 0.43249 0.14696 0.0
H666 H 0.67552 0.81962 0.22033 0.0
H667 H 0.80225 0.91288 0.20834 0.0
H668 H 0.7742 0.95834 0.17509 0.0
H669 H 0.71318 0.97493 0.14712 0.0
H670 H 0.58632 0.88041 0.15566 0.0
H671 H 0.61423 0.83539 0.19041 0.0
C672 C 0.69758 0.84984 0.21075 0.0
C673 C 0.74258 0.86108 0.21853 0.0
C674 C 0.6806 0.87718 0.18992 0.0
C675 C 0.76822 0.90135 0.20415 0.0
C676 C 0.7518 0.92821 0.18457 0.0
C677 C 0.69105 0.94461 0.15646 0.0
C678 C 0.64614 0.93299 0.14753 0.0
C679 C 0.7079 0.91705 0.17689 0.0
C680 C 0.62032 0.89224 0.16086 0.0
C681 C 0.63667 0.86569 0.18133 0.0
H682 H 0.25033 0.75827 0.15409 0.0
H683 H 0.22499 0.65355 0.22951 0.0
H684 H 0.16926 0.60857 0.18525 0.0
H685 H 0.12207 0.60092 0.12748 0.0
H686 H 0.15132 0.70573 0.05119 0.0
H687 H 0.21136 0.74802 0.09273 0.0
C688 C 0.233 0.72548 0.16054 0.0
C689 C 0.24142 0.70937 0.19508 0.0
C690 C 0.20147 0.69964 0.13473 0.0
C691 C 0.21911 0.66671 0.203 0.0
C692 C 0.18708 0.64096 0.17775 0.0
C693 C 0.14226 0.63264 0.11953 0.0
C694 C 0.13138 0.6502 0.08652 0.0
C695 C 0.1772 0.65726 0.14378 0.0
C696 C 0.15824 0.69144 0.0767 0.0
C697 C 0.19266 0.71589 0.10053 0.0
H698 H 0.33018 0.90542 0.88065 0.0
H699 H 0.39695 0.82949 0.8903 0.0
H700 H 0.43743 0.86322 0.94574 0.0
H701 H 0.45623 0.91428 0.99089 0.0
H702 H 0.39717 0.99678 0.98243 0.0
H703 H 0.35145 0.96031 0.92806 0.0
C704 C 0.35359 0.89624 0.89488 0.0
C705 C 0.35985 0.86419 0.88052 0.0
C706 C 0.37827 0.91694 0.92735 0.0
C707 C 0.39077 0.85347 0.89984 0.0
C708 C 0.41419 0.87292 0.93194 0.0
C709 C 0.43337 0.92479 0.97773 0.0
C710 C 0.43067 0.95879 0.99185 0.0
C711 C 0.40844 0.90468 0.94588 0.0
C712 C 0.40028 0.97081 0.9732 0.0
C713 C 0.37422 0.94995 0.94169 0.0
H714 H 0.09771 0.31718 0.93739 0.0
H715 H 0.22109 0.41942 0.93087 0.0
H716 H 0.19985 0.46265 0.96237 0.0
H717 H 0.14534 0.47165 0.99135 0.0
H718 H 1.02299 0.36738 0.99827 0.0
H719 H 0.04523 0.32493 0.96798 0.0
C720 C 0.12033 0.34871 0.94331 0.0
C721 C 0.16099 0.36479 0.93168 0.0
C722 C 0.10811 0.37325 0.96172 0.0
C723 C 0.18935 0.40618 0.93898 0.0
C724 C 0.17732 0.43092 0.95727 0.0
C725 C 0.1237 0.43958 0.98649 0.0
C726 C 0.0824 0.42309 0.99708 0.0
C727 C 0.13664 0.41484 0.9687 0.0
C728 C 0.05485 0.38133 0.99036 0.0
C729 C 0.0675 0.3568 0.97295 0.0
H730 H 0.68003 0.19305 0.86155 0.0
H731 H 0.79312 0.1887 0.91685 0.0
H732 H 0.75394 0.14843 0.96757 0.0
H733 H 0.68843 0.11506 0.99747 0.0
H734 H 0.57483 0.12017 0.94472 0.0
H735 H 0.61306 0.15884 0.89231 0.0
C736 C 0.6962 0.18324 0.88462 0.0
C737 C 0.74007 0.19433 0.88477 0.0
C738 C 0.6732 0.15991 0.91444 0.0
C739 C 0.75985 0.18115 0.91541 0.0
C740 C 0.73728 0.15787 0.94465 0.0
C741 C 0.67154 0.1242 0.97452 0.0
C742 C 0.62812 0.11398 0.97556 0.0
C743 C 0.69401 0.14709 0.94461 0.0
C744 C 0.60779 0.12692 0.94514 0.0
C745 C 0.62988 0.14933 0.91503 0.0
H746 H 0.9268 0.75959 0.8285 0.0
H747 H 0.8046 0.69403 0.86872 0.0
H748 H 0.82712 0.64572 0.90399 0.0
H749 H 0.88217 0.62512 0.92713 0.0
H750 H 1.00818 0.69418 0.89478 0.0
H751 H 0.98366 0.73744 0.85231 0.0
C752 C 0.90527 0.73451 0.84487 0.0
C753 C 0.86392 0.73016 0.84598 0.0
C754 C 0.91914 0.70742 0.8664 0.0
C755 C 0.83639 0.69786 0.86746 0.0
C756 C 0.84929 0.67021 0.88761 0.0
C757 C 0.9044 0.64903 0.91036 0.0
C758 C 0.94705 0.65598 0.91415 0.0
C759 C 0.89068 0.67501 0.88771 0.0
C760 C 0.97513 0.68779 0.89236 0.0
C761 C 0.96115 0.7128 0.86829 0.0
H762 H 0.03512 0.32194 0.21071 0.0
H763 H 0.16502 0.41068 0.23264 0.0
H764 H 0.14775 0.46652 0.20636 0.0
H765 H 0.09931 0.48591 0.16406 0.0
H766 H 0.96904 0.3966 0.14244 0.0
H767 H 0.98237 0.34593 0.18301 0.0
C768 C 0.05911 0.35379 0.21104 0.0
C769 C 0.10122 0.36241 0.22295 0.0
C770 C 0.04904 0.3856 0.19547 0.0
C771 C 0.13233 0.40359 0.2235 0.0
C772 C 0.12254 0.43543 0.20817 0.0
C773 C 0.07348 0.45588 0.16918 0.0
C774 C 1.0338 0.4446 0.14892 0.0
C775 C 0.08151 0.42632 0.19204 0.0
C776 C 1.00038 0.40587 0.15674 0.0
C777 C 1.00794 0.3766 0.17984 0.0
H778 H 0.14987 0.71445 0.83826 0.0
H779 H 0.26607 0.73884 0.90736 0.0
H780 H 0.22672 0.69425 0.95564 0.0
H781 H 0.16068 0.6449 0.97743 0.0
H782 H 0.04263 0.61966 0.91187 0.0
H783 H 0.08107 0.66797 0.86337 0.0
C784 C 0.16637 0.7104 0.86409 0.0
C785 C 0.21098 0.72954 0.86879 0.0
C786 C 0.1433 0.68413 0.89231 0.0
C787 C 0.23187 0.72403 0.90256 0.0
C788 C 0.20941 0.69846 0.93036 0.0
C789 C 0.14322 0.64975 0.95246 0.0
C790 C 0.09898 0.62801 0.94788 0.0
C791 C 0.16534 0.67763 0.92524 0.0
C792 C 0.07681 0.63571 0.91587 0.0
C793 C 0.09882 0.66332 0.88816 0.0
H794 H 0.31598 0.17616 0.87075 0.0
H795 H 0.42055 0.29775 0.87051 0.0
H796 H 0.46173 0.27416 0.91691 0.0
H797 H 0.46879 0.21907 0.9592 0.0
H798 H 0.36601 0.09621 0.95658 0.0
H799 H 0.32477 0.11989 0.91045 0.0
C800 C 0.34771 0.1976 0.88088 0.0
C801 C 0.36452 0.23914 0.86679 0.0
C802 C 0.37221 0.18339 0.90738 0.0
C803 C 0.40623 0.26578 0.88036 0.0
C804 C 0.43007 0.25222 0.90715 0.0
C805 C 0.43756 0.1972 0.94837 0.0
C806 C 0.42118 0.15546 0.96206 0.0
C807 C 0.41357 0.21105 0.92103 0.0
C808 C 0.38027 0.12828 0.94705 0.0
C809 C 0.35624 0.14195 0.92053 0.0
H810 H 0.80183 0.34375 0.89002 0.0
H811 H 0.91719 0.3944 0.83785 0.0
H812 H 0.94499 0.45637 0.87372 0.0
H813 H 0.941 0.49002 0.92617 0.0
H814 H 0.83279 0.43194 0.98728 0.0
H815 H 0.79588 0.38052 0.9402 0.0
C816 C 0.83292 0.36859 0.88637 0.0
C817 C 0.8579 0.36448 0.86194 0.0
C818 C 0.84925 0.40319 0.90811 0.0
C819 C 0.89798 0.39667 0.8572 0.0
C820 C 0.9136 0.4322 0.87735 0.0
C821 C 0.90848 0.46727 0.92809 0.0
C822 C 0.88919 0.46481 0.95959 0.0
C823 C 0.89002 0.43518 0.9036 0.0
C824 C 0.84769 0.4347 0.96275 0.0
C825 C 0.82718 0.40476 0.93637 0.0
H826 H 0.78012 0.96998 0.98524 0.0
H827 H 0.67733 0.91182 0.90149 0.0
H828 H 0.63302 0.93353 0.93011 0.0
H829 H 0.6222 0.96672 0.97952 0.0
H830 H 0.72271 0.02229 0.06554 0.0
H831 H 0.76894 1.00353 0.03553 0.0
C832 C 0.74795 0.96181 0.97336 0.0
C833 C 0.73237 0.93944 0.94099 0.0
C834 C 0.72212 0.97381 0.9904 0.0
C835 C 0.69067 0.92967 0.92586 0.0
C836 C 0.66507 0.94179 0.9424 0.0
C837 C 0.65426 0.97494 0.99181 0.0
C838 C 0.66885 0.99589 0.02485 0.0
C839 C 0.68037 0.96366 0.97471 0.0
C840 C 0.71058 1.00622 0.04014 0.0
C841 C 0.73701 0.99541 0.02301 0.0
H842 H 0.97384 0.81571 0.11287 0.0
H843 H 0.92257 0.73069 0.20373 0.0
H844 H 0.90252 0.67258 0.16533 0.0
H845 H 0.90603 0.64617 0.10727 0.0
H846 H 0.95151 0.73159 0.01599 0.0
H847 H 0.96349 0.78931 0.05257 0.0
C848 C 0.95735 0.78469 0.12437 0.0
C849 C 0.9511 0.77815 0.16165 0.0
C850 C 0.94351 0.75129 0.10172 0.0
C851 C 0.93002 0.73719 0.17567 0.0
C852 C 0.9175 0.70368 0.1535 0.0
C853 C 0.91658 0.6772 0.09506 0.0
C854 C 0.92825 0.68506 0.05939 0.0
C855 C 0.92476 0.71038 0.11663 0.0
C856 C 0.94237 0.72523 0.04361 0.0
C857 C 0.94997 0.75822 0.06465 0.0
H858 H 0.37252 0.91664 0.25175 0.0
H859 H 0.42719 0.84416 0.21275 0.0
H860 H 0.47821 0.90605 0.18294 0.0
H861 H 0.49569 0.97572 0.15762 0.0
H862 H 0.43098 0.04308 0.18748 0.0
H863 H 0.3966 0.98873 0.23311 0.0
C864 C 0.3958 0.9143 0.23703 0.0
C865 C 0.39531 0.87586 0.2332 0.0
C866 C 0.42345 0.94926 0.21887 0.0
C867 C 0.42635 0.87343 0.21505 0.0
C868 C 0.4556 0.90874 0.19826 0.0
C869 C 0.47532 0.97907 0.17524 0.0
C870 C 0.46506 0.01246 0.16944 0.0
C871 C 0.45292 0.94624 0.19852 0.0
C872 C 0.43869 0.01706 0.1918 0.0
C873 C 0.41882 0.98592 0.21738 0.0
H874 H 0.76385 0.28012 0.15905 0.0
H875 H 0.78239 0.17033 0.18646 0.0
H876 H 0.73462 0.13676 0.13328 0.0
H877 H 0.66978 0.13065 0.09736 0.0
H878 H 0.64311 0.23655 0.07846 0.0
H879 H 0.71237 0.28009 0.10827 0.0
C880 C 0.75839 0.24932 0.15258 0.0
C881 C 0.7736 0.22633 0.17761 0.0
C882 C 0.72858 0.22926 0.12381 0.0
C883 C 0.76906 0.18771 0.16822 0.0
C884 C 0.7416 0.16845 0.13793 0.0
C885 C 0.67929 0.16324 0.09903 0.0
C886 C 0.65017 0.17956 0.08875 0.0
C887 C 0.71785 0.18738 0.11833 0.0
C888 C 0.66419 0.22265 0.08829 0.0
C889 C 0.70385 0.24767 0.10532 0.0
H890 H 0.72682 0.65337 0.85098 0.0
H891 H 0.70182 0.74659 0.89378 0.0
H892 H 0.67356 0.70054 0.9464 0.0
H893 H 0.65825 0.63479 0.98102 0.0
H894 H 0.6839 0.54217 0.93901 0.0
H895 H 0.71224 0.58816 0.88594 0.0
C896 C 0.71497 0.66369 0.87163 0.0
C897 C 0.71633 0.70346 0.86831 0.0
C898 C 0.69995 0.63757 0.90224 0.0
C899 C 0.701 0.71617 0.89552 0.0
C900 C 0.68513 0.68997 0.92573 0.0
C901 C 0.66938 0.62458 0.95982 0.0
C902 C 0.66818 0.58507 0.96318 0.0
C903 C 0.6848 0.65082 0.92944 0.0
C904 C 0.68459 0.57255 0.93678 0.0
C905 C 0.70031 0.59864 0.90639 0.0
H906 H 0.3834 0.62292 0.96319 0.0
H907 H 0.46349 0.75346 0.95701 0.0
H908 H 0.52617 0.74108 0.97268 0.0
H909 H 0.55753 0.69258 0.96888 0.0
H910 H 0.47294 0.56417 0.94887 0.0
H911 H 0.41291 0.57587 0.95747 0.0
C912 C 0.41473 0.6486 0.96665 0.0
C913 C 0.41936 0.68842 0.95626 0.0
C914 C 0.44995 0.64107 0.96715 0.0
C915 C 0.45928 0.72203 0.96315 0.0
C916 C 0.4952 0.71492 0.9706 0.0
C917 C 0.52597 0.66732 0.96616 0.0
C918 C 0.52003 0.62728 0.95967 0.0
C919 C 0.49087 0.67459 0.96888 0.0
C920 C 0.47866 0.59512 0.95489 0.0
C921 C 0.44421 0.60151 0.96032 0.0
H922 H 0.32493 0.37744 0.88273 0.0
H923 H 0.42211 0.42473 0.80893 0.0
H924 H 0.47317 0.46694 0.85737 0.0
H925 H 0.49314 0.47715 0.92365 0.0
H926 H 0.39797 0.41874 0.99842 0.0
H927 H 0.34293 0.39402 0.9469 0.0
C928 C 0.35711 0.39756 0.87689 0.0
C929 C 0.37002 0.39702 0.84254 0.0
C930 C 0.38675 0.41917 0.90545 0.0
C931 C 0.41144 0.42417 0.83521 0.0
C932 C 0.44075 0.44797 0.86306 0.0
C933 C 0.4601 0.46014 0.92838 0.0
C934 C 0.44913 0.44967 0.96438 0.0
C935 C 0.42927 0.44376 0.89875 0.0
C936 C 0.40667 0.42706 0.97073 0.0
C937 C 0.37543 0.41283 0.94135 0.0
H938 H 0.7013 0.35473 0.91557 0.0
H939 H 0.57332 0.29941 0.86378 0.0
H940 H 0.54842 0.31609 0.91589 0.0
H941 H 0.56375 0.35011 0.97347 0.0
H942 H 0.69242 0.411 0.02328 0.0
H943 H 0.71636 0.38698 0.97501 0.0
C944 C 0.66791 0.34605 0.91593 0.0
C945 C 0.63906 0.326 0.88597 0.0
C946 C 0.65405 0.35631 0.94564 0.0
C947 C 0.59602 0.31528 0.8864 0.0
C948 C 0.58183 0.32454 0.91625 0.0
C949 C 0.59699 0.35753 0.9744 0.0
C950 C 0.62628 0.38233 1.0021 0.0
C951 C 0.61065 0.34546 0.94574 0.0
C952 C 0.66923 0.39189 1.00238 0.0
C953 C 0.68294 0.37848 0.97463 0.0
H954 H 0.61617 0.38057 0.27944 0.0
H955 H 0.50922 0.2673 0.2468 0.0
H956 H 0.48455 0.30487 0.19856 0.0
H957 H 0.50879 0.36371 0.15426 0.0
H958 H 0.62265 0.47391 0.18292 0.0
H959 H 0.62922 0.4444 0.24414 0.0
C960 C 0.58625 0.36442 0.26306 0.0
C961 C 0.56534 0.32108 0.2653 0.0
C962 C 0.57472 0.38572 0.23356 0.0
C963 C 0.52618 0.3006 0.24462 0.0
C964 C 0.51261 0.32205 0.21669 0.0
C965 C 0.53431 0.38172 0.17427 0.0
C966 C 0.5664 0.41996 0.16373 0.0
C967 C 0.53906 0.36372 0.20878 0.0
C968 C 0.59854 0.44362 0.19011 0.0
C969 C 0.60223 0.42683 0.22515 0.0
H970 H 0.75676 0.65388 0.22868 0.0
H971 H 0.8245 0.75815 0.15775 0.0
H972 H 0.79307 0.71487 0.10456 0.0
H973 H 0.7333 0.65319 0.07834 0.0
H974 H 0.66305 0.55036 0.14946 0.0
H975 H 0.7096 0.58657 0.20245 0.0
C976 C 0.76541 0.66687 0.20163 0.0
C977 C 0.79158 0.70943 0.19687 0.0
C978 C 0.74653 0.64205 0.17123 0.0
C979 C 0.80375 0.72564 0.16198 0.0
C980 C 0.78562 0.70093 0.13155 0.0
C981 C 0.72929 0.63808 0.10532 0.0
C982 C 0.69408 0.59978 0.11021 0.0
C983 C 0.75499 0.65988 0.13575 0.0
C984 C 0.68965 0.58 0.14504 0.0
C985 C 0.71591 0.60101 0.17544 0.0
H986 H 0.4184 0.68148 0.14593 0.0
H987 H 0.54348 0.7678 0.18774 0.0
H988 H 0.5734 0.7535 0.13771 0.0
H989 H 0.56464 0.7074 0.08953 0.0
H990 H 0.43945 0.61788 0.05028 0.0
H991 H 0.40865 0.64341 0.0912 0.0
C992 C 0.45213 0.69751 0.14363 0.0
C993 C 0.47902 0.72476 0.17063 0.0
C994 C 0.46896 0.68843 0.11548 0.0
C995 C 0.52246 0.74637 0.16724 0.0
C996 C 0.53947 0.73806 0.13882 0.0
C997 C 0.53055 0.69394 0.08936 0.0
C998 C 0.50447 0.65984 0.06784 0.0
C999 C 0.51317 0.70775 0.11384 0.0
C1000 C 0.46033 0.64357 0.06718 0.0
C1001 C 0.44267 0.658 0.09071 0.0
H1002 H 0.3372 0.38472 0.18844 0.0
H1003 H 0.44093 0.37589 0.25803 0.0
H1004 H 0.4896 0.41728 0.21344 0.0
H1005 H 0.50283 0.45447 0.15323 0.0
H1006 H 0.39869 0.46314 0.08423 0.0
H1007 H 0.35071 0.42351 0.12964 0.0
C1008 C 0.37049 0.39214 0.19409 0.0
C1009 C 0.38506 0.37708 0.22675 0.0
C1010 C 0.39852 0.41573 0.16806 0.0
C1011 C 0.42849 0.38699 0.23326 0.0
C1012 C 0.45652 0.41055 0.2076 0.0
C1013 C 0.46964 0.44751 0.14809 0.0
C1014 C 0.45462 0.46179 0.11516 0.0
C1015 C 0.44186 0.42471 0.17463 0.0
C1016 C 0.41144 0.45282 0.10928 0.0
C1017 C 0.38376 0.43003 0.13529 0.0
H1018 H 0.81803 0.60361 0.61531 0.0
H1019 H 0.92662 0.70756 0.66324 0.0
H1020 H 0.97339 0.68991 0.63326 0.0
H1021 H 0.98353 0.64467 0.59353 0.0
H1022 H 0.87442 0.53934 0.54779 0.0
H1023 H 0.82815 0.55738 0.5776 0.0
C1024 C 0.85195 0.62216 0.61967 0.0
C1025 C 0.8686 0.65693 0.64153 0.0
C1026 C 0.87874 0.61148 0.60286 0.0
C1027 C 0.91271 0.68101 0.64613 0.0
C1028 C 0.93958 0.67075 0.62921 0.0
C1029 C 0.94966 0.62556 0.59016 0.0
C1030 C 0.93268 0.59072 0.56831 0.0
C1031 C 0.92295 0.63604 0.60748 0.0
C1032 C 0.8886 0.56634 0.56439 0.0
C1033 C 0.86196 0.57665 0.58139 0.0
H1034 H 0.37703 0.91666 0.71798 0.0
H1035 H 0.39627 0.80806 0.7097 0.0
H1036 H 0.45079 0.84604 0.66891 0.0
H1037 H 0.4899 0.90899 0.63172 0.0
H1038 H 0.46808 0.01621 0.63805 0.0
H1039 H 0.41874 0.9804 0.68375 0.0
C1040 C 0.39323 0.90132 0.70739 0.0
C1041 C 0.38211 0.85944 0.71673 0.0
C1042 C 0.42454 0.92328 0.68364 0.0
C1043 C 0.40377 0.84021 0.70283 0.0
C1044 C 0.43517 0.86193 0.6795 0.0
C1045 C 0.47506 0.92467 0.64386 0.0
C1046 C 0.48266 0.96512 0.63177 0.0
C1047 C 0.44551 0.90336 0.66931 0.0
C1048 C 0.46267 0.985 0.64708 0.0
C1049 C 0.43426 0.96448 0.67303 0.0
H1050 H 0.23422 0.38491 0.73406 0.0
H1051 H 0.22938 0.29145 0.66666 0.0
H1052 H 0.1897 0.31267 0.61674 0.0
H1053 H 0.15743 0.35926 0.59028 0.0
H1054 H 0.16899 0.45795 0.65451 0.0
H1055 H 0.204 0.43356 0.70648 0.0
C1056 C 0.22435 0.36901 0.70853 0.0
C1057 C 0.23506 0.33608 0.7048 0.0
C1058 C 0.20231 0.3825 0.67883 0.0
C1059 C 0.22211 0.31673 0.67089 0.0
C1060 C 0.19913 0.3289 0.64207 0.0
C1061 C 0.16704 0.37519 0.61579 0.0
C1062 C 0.15937 0.41024 0.61817 0.0
C1063 C 0.18909 0.36189 0.64545 0.0
C1064 C 0.17363 0.43079 0.6515 0.0
C1065 C 0.19396 0.41681 0.68142 0.0
H1066 H 0.79749 0.21448 0.68384 0.0
H1067 H 0.72986 0.1212 0.7632 0.0
H1068 H 0.69972 0.06923 0.71611 0.0
H1069 H 0.67993 0.05645 0.6506 0.0
H1070 H 0.74474 0.15177 0.57132 0.0
H1071 H 0.79111 0.19623 0.62027 0.0
C1072 C 0.77667 0.18254 0.69071 0.0
C1073 C 0.76411 0.17147 0.72598 0.0
C1074 C 0.75961 0.15329 0.66365 0.0
C1075 C 0.73871 0.13009 0.73561 0.0
C1076 C 0.72172 0.10053 0.70883 0.0
C1077 C 0.7056 0.08612 0.64409 0.0
C1078 C 0.70822 0.10173 0.6078 0.0
C1079 C 0.73011 0.11243 0.67237 0.0
C1080 C 0.74184 0.13978 0.59937 0.0
C1081 C 0.76784 0.1654 0.6273 0.0
H1082 H 0.83384 0.35203 0.37489 0.0
H1083 H 0.86328 0.24886 0.4028 0.0
H1084 H 0.90409 0.28087 0.45965 0.0
H1085 H 0.94643 0.34539 0.48981 0.0
H1086 H 0.92815 0.4539 0.45348 0.0
H1087 H 0.86609 0.41239 0.41331 0.0
C1088 C 0.84819 0.3363 0.39426 0.0
C1089 C 0.84708 0.2992 0.38522 0.0
C1090 C 0.87367 0.35611 0.42524 0.0
C1091 C 0.86498 0.2781 0.40972 0.0
C1092 C 0.88811 0.29632 0.44197 0.0
C1093 C 0.92827 0.3598 0.47375 0.0
C1094 C 0.94302 0.40282 0.47295 0.0
C1095 C 0.89522 0.33661 0.44841 0.0
C1096 C 0.91813 0.4209 0.45367 0.0
C1097 C 0.88284 0.39726 0.43038 0.0
H1098 H 0.66604 0.83996 0.39865 0.0
H1099 H 0.62163 0.72482 0.46276 0.0
H1100 H 0.61263 0.75947 0.51233 0.0
H1101 H 0.61993 0.82376 0.53796 0.0
H1102 H 0.67946 0.9397 0.47763 0.0
H1103 H 0.68418 0.90377 0.42705 0.0
C1104 C 0.65595 0.82227 0.42381 0.0
C1105 C 0.64552 0.77982 0.42687 0.0
C1106 C 0.65502 0.84288 0.45338 0.0
C1107 C 0.62958 0.75742 0.45911 0.0
C1108 C 0.62517 0.77735 0.48785 0.0
C1109 C 0.63503 0.84099 0.5141 0.0
C1110 C 0.64966 0.88407 0.51129 0.0
C1111 C 0.63851 0.82025 0.48546 0.0
C1112 C 0.66883 0.90652 0.48042 0.0
C1113 C 0.67083 0.88599 0.45133 0.0
H1114 H 0.18369 0.6942 0.33996 0.0
H1115 H 0.27561 0.64653 0.34011 0.0
H1116 H 0.23107 0.58389 0.37346 0.0
H1117 H 0.17416 0.55047 0.41176 0.0
H1118 H 0.0885 0.60353 0.42061 0.0
H1119 H 0.12095 0.65548 0.37259 0.0
C1120 C 0.19343 0.66968 0.3469 0.0
C1121 C 0.2329 0.67478 0.33893 0.0
C1122 C 0.16872 0.63495 0.36729 0.0
C1123 C 0.24563 0.6432 0.34731 0.0
C1124 C 0.22015 0.60747 0.36595 0.0
C1125 C 0.16222 0.57308 0.40272 0.0
C1126 C 0.13055 0.57475 0.4203 0.0
C1127 C 0.18283 0.60415 0.37757 0.0
C1128 C 0.11368 0.6026 0.40765 0.0
C1129 C 0.13243 0.6324 0.3806 0.0
H1130 H 0.56301 0.24684 0.366 0.0
H1131 H 0.43207 0.16039 0.34507 0.0
H1132 H 0.44905 0.10276 0.36516 0.0
H1133 H 0.49753 0.08087 0.40422 0.0
H1134 H 0.6289 0.16729 0.42497 0.0
H1135 H 0.61592 0.22032 0.38748 0.0
C1136 C 0.53869 0.2152 0.36436 0.0
C1137 C 0.49637 0.20758 0.35486 0.0
C1138 C 0.54866 0.18224 0.37633 0.0
C1139 C 0.46487 0.16668 0.35253 0.0
C1140 C 0.47452 0.13379 0.36427 0.0
C1141 C 0.52374 0.11072 0.39937 0.0
C1142 C 0.56347 0.12084 0.41927 0.0
C1143 C 0.51582 0.14157 0.37861 0.0
C1144 C 0.59745 0.1591 0.41128 0.0
C1145 C 0.59002 0.18974 0.39008 0.0
H1146 H 0.73276 0.88417 0.76226 0.0
H1147 H 0.65957 0.76279 0.71874 0.0
H1148 H 0.61279 0.78737 0.68092 0.0
H1149 H 0.59721 0.84521 0.65486 0.0
H1150 H 0.67293 0.96726 0.69581 0.0
H1151 H 0.7131 0.94043 0.74032 0.0
C1152 C 0.70631 0.86285 0.74486 0.0
C1153 C 0.70024 0.82159 0.74334 0.0
C1154 C 0.67962 0.87738 0.72265 0.0
C1155 C 0.66548 0.79468 0.72055 0.0
C1156 C 0.63856 0.80876 0.6988 0.0
C1157 C 0.62146 0.86567 0.67441 0.0
C1158 C 0.63154 0.90823 0.67219 0.0
C1159 C 0.6458 0.85027 0.69899 0.0
C1160 C 0.66406 0.93437 0.69712 0.0
C1161 C 0.68743 0.91908 0.72234 0.0
H1162 H 0.79106 0.15428 0.3796 0.0
H1163 H 0.67827 0.14767 0.31413 0.0
H1164 H 0.63534 0.1067 0.36263 0.0
H1165 H 0.62955 0.07392 0.42519 0.0
H1166 H 0.74302 0.08025 0.48945 0.0
H1167 H 0.78506 0.11958 0.44039 0.0
C1168 C 0.75703 0.1433 0.3756 0.0
C1169 C 0.73825 0.15412 0.34296 0.0
C1170 C 0.73225 0.11972 0.4038 0.0
C1171 C 0.69393 0.13981 0.33874 0.0
C1172 C 0.66917 0.11644 0.36665 0.0
C1173 C 0.66343 0.08396 0.42844 0.0
C1174 C 0.68274 0.07385 0.46123 0.0
C1175 C 0.68796 0.10655 0.3996 0.0
C1176 C 0.72687 0.08709 0.46462 0.0
C1177 C 0.75122 0.10976 0.43648 0.0
H1178 H 0.83504 0.65657 0.34262 0.0
H1179 H 0.93919 0.77812 0.35062 0.0
H1180 H 0.98331 0.74866 0.38623 0.0
H1181 H 0.99503 0.68783 0.41786 0.0
H1182 H 0.89245 0.5657 0.40672 0.0
H1183 H 0.8481 0.59514 0.37139 0.0
C1184 C 0.86738 0.67718 0.35189 0.0
C1185 C 0.88203 0.72117 0.34266 0.0
C1186 C 0.89433 0.65926 0.37273 0.0
C1187 C 0.92509 0.745 0.35602 0.0
C1188 C 0.95107 0.72772 0.37696 0.0
C1189 C 0.96315 0.66699 0.40758 0.0
C1190 C 0.94891 0.62294 0.41623 0.0
C1191 C 0.93657 0.68473 0.38589 0.0
C1192 C 0.9064 0.59885 0.40155 0.0
C1193 C 0.88021 0.61615 0.38093 0.0
H1194 H 0.33725 0.81575 0.4183 0.0
H1195 H 0.40987 0.89399 0.33306 0.0
H1196 H 0.45762 0.94408 0.37788 0.0
H1197 H 0.48506 0.96027 0.44182 0.0
H1198 H 0.4181 0.87814 0.52796 0.0
H1199 H 0.36149 0.83576 0.48286 0.0
C1200 C 0.36305 0.84422 0.40969 0.0
C1201 C 0.37033 0.85125 0.37263 0.0
C1202 C 0.39153 0.87219 0.43592 0.0
C1203 C 0.40401 0.88794 0.36159 0.0
C1204 C 0.43129 0.91658 0.38718 0.0
C1205 C 0.45731 0.93396 0.45074 0.0
C1206 C 0.45557 0.92249 0.48812 0.0
C1207 C 0.42626 0.90838 0.42454 0.0
C1208 C 0.41994 0.88769 0.49929 0.0
C1209 C 0.3878 0.86321 0.47347 0.0
H1210 H 0.20028 0.34573 0.33656 0.0
H1211 H 0.31416 0.36878 0.4077 0.0
H1212 H 0.29271 0.40242 0.45024 0.0
H1213 H 0.23998 0.42586 0.47024 0.0
H1214 H 0.12484 0.39877 0.39943 0.0
H1215 H 0.14811 0.3681 0.35632 0.0
C1216 C 0.22099 0.35808 0.36118 0.0
C1217 C 0.26 0.35369 0.36725 0.0
C1218 C 0.20781 0.37769 0.38687 0.0
C1219 C 0.28446 0.37063 0.4006 0.0
C1220 C 0.27189 0.39037 0.42558 0.0
C1221 C 0.21983 0.41392 0.44525 0.0
C1222 C 0.17972 0.41647 0.43938 0.0
C1223 C 0.23343 0.3944 0.4195 0.0
C1224 C 0.15545 0.39875 0.40619 0.0
C1225 C 0.16896 0.3806 0.38088 0.0
H1226 H 0.49717 0.26725 0.61762 0.0
H1227 H 0.37832 0.16306 0.6362 0.0
H1228 H 0.39734 0.11889 0.6037 0.0
H1229 H 0.45009 0.1087 0.57346 0.0
H1230 H 0.56964 0.21328 0.55709 0.0
H1231 H 0.54803 0.25801 0.58528 0.0
C1232 C 0.47542 0.23484 0.61471 0.0
C1233 C 0.43648 0.21859 0.6297 0.0
C1234 C 0.48677 0.20947 0.5964 0.0
C1235 C 0.40838 0.17664 0.62481 0.0
C1236 C 0.41937 0.15122 0.60638 0.0
C1237 C 0.47118 0.14137 0.57562 0.0
C1238 C 0.5116 0.15737 0.56327 0.0
C1239 C 0.45877 0.16714 0.59246 0.0
C1240 C 0.53851 0.19986 0.56654 0.0
C1241 C 0.5262 0.22559 0.58272 0.0
H1242 H 0.86811 0.38583 0.70681 0.0
H1243 H 0.90336 0.28644 0.70418 0.0
H1244 H 0.9493 0.32402 0.65646 0.0
H1245 H 0.97887 0.38514 0.61279 0.0
H1246 H 0.94289 0.48388 0.61595 0.0
H1247 H 0.89942 0.44744 0.66537 0.0
C1248 C 0.8857 0.37224 0.69583 0.0
C1249 C 0.88149 0.33281 0.70951 0.0
C1250 C 0.91284 0.39442 0.66816 0.0
C1251 C 0.90534 0.31646 0.69463 0.0
C1252 C 0.93198 0.33812 0.66712 0.0
C1253 C 0.96232 0.3991 0.62486 0.0
C1254 C 0.96503 0.43788 0.61054 0.0
C1255 C 0.93616 0.37726 0.65343 0.0
C1256 C 0.94207 0.45449 0.6263 0.0
C1257 C 0.91676 0.43343 0.65461 0.0
H1258 H 0.23224 0.66643 0.71142 0.0
H1259 H 0.21855 0.77318 0.66132 0.0
H1260 H 0.18836 0.73724 0.60428 0.0
H1261 H 0.16241 0.67506 0.56875 0.0
H1262 H 0.17143 0.56587 0.61777 0.0
H1263 H 0.20789 0.60346 0.67391 0.0
C1264 C 0.22266 0.68194 0.68808 0.0
C1265 C 0.22772 0.72296 0.69148 0.0
C1266 C 0.20483 0.66068 0.65463 0.0
C1267 C 0.21511 0.74197 0.66033 0.0
C1268 C 0.19786 0.72133 0.62735 0.0
C1269 C 0.17283 0.65927 0.59136 0.0
C1270 C 0.16388 0.61712 0.5882 0.0
C1271 C 0.19226 0.68065 0.62416 0.0
C1272 C 0.17806 0.5981 0.61846 0.0
C1273 C 0.19847 0.61961 0.65101 0.0
loop_
_geom_bond_atom_site_label_1
_geom_bond_atom_site_label_2
_geom_bond_distance
_geom_bond_site_symmetry_2
_ccdc_geom_bond_type
Tb0 C9 2.764 . S
Tb0 O10 2.325 . S
Tb0 O13 2.303 . S
Tb0 O17 2.322 . S
Tb0 O18 2.349 . S
Tb0 O21 2.415 . S
Tb0 O22 2.399 . S
Tb1 O11 2.322 . S
Tb1 O12 2.349 . S
Tb1 O14 2.415 . S
Tb1 O15 2.399 . S
Tb1 O16 2.325 . S
Tb1 O19 2.303 . S
Tb1 C30 2.764 . S
C2 O18 1.261 . S
C2 O19 1.257 . S
C3 C6 1.358 . S
C3 C7 1.332 . S
C3 C9 1.504 . S
C4 C5 1.373 . S
C4 C8 1.308 . S
C5 C4 1.373 . S
C5 C6 1.429 . S
C5 H32 0.932 . S
C6 C3 1.358 . S
C6 C5 1.429 . S
C6 H33 0.930 . S
C7 C3 1.332 . S
C7 C8 1.394 . S
C7 H34 0.932 . S
C8 C4 1.308 . S
C8 C7 1.394 . S
C8 H35 0.929 . S
C9 Tb0 2.764 . S
C9 C3 1.504 . S
C9 O21 1.239 . S
C9 O22 1.263 . S
O10 Tb0 2.325 . S
O10 C20 1.236 . S
O11 Tb1 2.322 . S
O11 C20 1.257 . S
O12 Tb1 2.349 . S
O12 C23 1.261 . S
O13 Tb0 2.303 . S
O13 C23 1.257 . S
O14 Tb1 2.415 . S
O14 C30 1.239 . S
O15 Tb1 2.399 . S
O15 C30 1.263 . S
O16 Tb1 2.325 . S
O16 C31 1.236 . S
O17 Tb0 2.322 . S
O17 C31 1.257 . S
O18 Tb0 2.349 . S
O18 C2 1.261 . S
O19 Tb1 2.303 . S
O19 C2 1.257 . S
C20 O10 1.236 . S
C20 O11 1.257 . S
O21 Tb0 2.415 . S
O21 C9 1.239 . S
O22 Tb0 2.399 . S
O22 C9 1.263 . S
C23 O12 1.261 . S
C23 O13 1.257 . S
C24 C27 1.358 . S
C24 C28 1.332 . S
C24 C30 1.504 . S
C25 C26 1.373 . S
C25 C29 1.308 . S
C26 C25 1.373 . S
C26 C27 1.429 . S
C26 H36 0.932 . S
C27 C24 1.358 . S
C27 C26 1.429 . S
C27 H37 0.930 . S
C28 C24 1.332 . S
C28 C29 1.394 . S
C28 H38 0.932 . S
C29 C25 1.308 . S
C29 C28 1.394 . S
C29 H39 0.929 . S
C30 Tb1 2.764 . S
C30 O14 1.239 . S
C30 O15 1.263 . S
C30 C24 1.504 . S
C31 O16 1.236 . S
C31 O17 1.257 . S
H32 C5 0.932 . S
H33 C6 0.930 . S
H34 C7 0.932 . S
H35 C8 0.929 . S
H36 C26 0.932 . S
H37 C27 0.930 . S
H38 C28 0.932 . S
H39 C29 0.929 . S
Tb40 C49 2.764 . S
Tb40 O50 2.325 . S
Tb40 O53 2.303 . S
Tb40 O57 2.322 . S
Tb40 O58 2.349 . S
Tb40 O61 2.415 . S
Tb40 O62 2.399 . S
Tb41 O51 2.322 . S
Tb41 O52 2.349 . S
Tb41 O54 2.415 . S
Tb41 O55 2.399 . S
Tb41 O56 2.325 . S
Tb41 O59 2.303 . S
Tb41 C70 2.764 . S
C42 O58 1.261 . S
C42 O59 1.257 . S
C43 C46 1.358 . S
C43 C47 1.332 . S
C43 C49 1.504 . S
C44 C45 1.373 . S
C44 C48 1.308 . S
C45 C44 1.373 . S
C45 C46 1.429 . S
C45 H72 0.932 . S
C46 C43 1.358 . S
C46 C45 1.429 . S
C46 H73 0.930 . S
C47 C43 1.332 . S
C47 C48 1.394 . S
C47 H74 0.932 . S
C48 C44 1.308 . S
C48 C47 1.394 . S
C48 H75 0.929 . S
C49 Tb40 2.764 . S
C49 C43 1.504 . S
C49 O61 1.239 . S
C49 O62 1.263 . S
O50 Tb40 2.325 . S
O50 C60 1.236 . S
O51 Tb41 2.322 . S
O51 C60 1.257 . S
O52 Tb41 2.349 . S
O52 C63 1.261 . S
O53 Tb40 2.303 . S
O53 C63 1.257 . S
O54 Tb41 2.415 . S
O54 C70 1.239 . S
O55 Tb41 2.399 . S
O55 C70 1.263 . S
O56 Tb41 2.325 . S
O56 C71 1.236 . S
O57 Tb40 2.322 . S
O57 C71 1.257 . S
O58 Tb40 2.349 . S
O58 C42 1.261 . S
O59 Tb41 2.303 . S
O59 C42 1.257 . S
C60 O50 1.236 . S
C60 O51 1.257 . S
O61 Tb40 2.415 . S
O61 C49 1.239 . S
O62 Tb40 2.399 . S
O62 C49 1.263 . S
C63 O52 1.261 . S
C63 O53 1.257 . S
C64 C67 1.358 . S
C64 C68 1.332 . S
C64 C70 1.504 . S
C65 C66 1.373 . S
C65 C69 1.308 . S
C66 C65 1.373 . S
C66 C67 1.429 . S
C66 H76 0.932 . S
C67 C64 1.358 . S
C67 C66 1.429 . S
C67 H77 0.930 . S
C68 C64 1.332 . S
C68 C69 1.394 . S
C68 H78 0.932 . S
C69 C65 1.308 . S
C69 C68 1.394 . S
C69 H79 0.929 . S
C70 Tb41 2.764 . S
C70 O54 1.239 . S
C70 O55 1.263 . S
C70 C64 1.504 . S
C71 O56 1.236 . S
C71 O57 1.257 . S
H72 C45 0.932 . S
H73 C46 0.930 . S
H74 C47 0.932 . S
H75 C48 0.929 . S
H76 C66 0.932 . S
H77 C67 0.930 . S
H78 C68 0.932 . S
H79 C69 0.929 . S
Tb80 C89 2.764 . S
Tb80 O90 2.325 . S
Tb80 O93 2.303 . S
Tb80 O97 2.322 . S
Tb80 O98 2.349 . S
Tb80 O101 2.415 . S
Tb80 O102 2.399 . S
Tb81 O91 2.322 . S
Tb81 O92 2.349 . S
Tb81 O94 2.415 . S
Tb81 O95 2.399 . S
Tb81 O96 2.325 . S
Tb81 O99 2.303 . S
Tb81 C110 2.764 . S
C82 O98 1.261 . S
C82 O99 1.257 . S
C83 C86 1.358 . S
C83 C87 1.332 . S
C83 C89 1.504 . S
C84 C85 1.373 . S
C84 C88 1.308 . S
C85 C84 1.373 . S
C85 C86 1.429 . S
C85 H112 0.932 . S
C86 C83 1.358 . S
C86 C85 1.429 . S
C86 H113 0.930 . S
C87 C83 1.332 . S
C87 C88 1.394 . S
C87 H114 0.932 . S
C88 C84 1.308 . S
C88 C87 1.394 . S
C88 H115 0.929 . S
C89 Tb80 2.764 . S
C89 C83 1.504 . S
C89 O101 1.239 . S
C89 O102 1.263 . S
O90 Tb80 2.325 . S
O90 C100 1.236 . S
O91 Tb81 2.322 . S
O91 C100 1.257 . S
O92 Tb81 2.349 . S
O92 C103 1.261 . S
O93 Tb80 2.303 . S
O93 C103 1.257 . S
O94 Tb81 2.415 . S
O94 C110 1.239 . S
O95 Tb81 2.399 . S
O95 C110 1.263 . S
O96 Tb81 2.325 . S
O96 C111 1.236 . S
O97 Tb80 2.322 . S
O97 C111 1.257 . S
O98 Tb80 2.349 . S
O98 C82 1.261 . S
O99 Tb81 2.303 . S
O99 C82 1.257 . S
C100 O90 1.236 . S
C100 O91 1.257 . S
O101 Tb80 2.415 . S
O101 C89 1.239 . S
O102 Tb80 2.399 . S
O102 C89 1.263 . S
C103 O92 1.261 . S
C103 O93 1.257 . S
C104 C107 1.358 . S
C104 C108 1.332 . S
C104 C110 1.504 . S
C105 C106 1.373 . S
C105 C109 1.308 . S
C106 C105 1.373 . S
C106 C107 1.429 . S
C106 H116 0.932 . S
C107 C104 1.358 . S
C107 C106 1.429 . S
C107 H117 0.930 . S
C108 C104 1.332 . S
C108 C109 1.394 . S
C108 H118 0.932 . S
C109 C105 1.308 . S
C109 C108 1.394 . S
C109 H119 0.929 . S
C110 Tb81 2.764 . S
C110 O94 1.239 . S
C110 O95 1.263 . S
C110 C104 1.504 . S
C111 O96 1.236 . S
C111 O97 1.257 . S
H112 C85 0.932 . S
H113 C86 0.930 . S
H114 C87 0.932 . S
H115 C88 0.929 . S
H116 C106 0.932 . S
H117 C107 0.930 . S
H118 C108 0.932 . S
H119 C109 0.929 . S
Tb120 C129 2.764 . S
Tb120 O130 2.325 . S
Tb120 O133 2.303 . S
Tb120 O137 2.322 . S
Tb120 O138 2.349 . S
Tb120 O141 2.415 . S
Tb120 O142 2.399 . S
Tb121 O131 2.322 . S
Tb121 O132 2.349 . S
Tb121 O134 2.415 . S
Tb121 O135 2.399 . S
Tb121 O136 2.325 . S
Tb121 O139 2.303 . S
Tb121 C150 2.764 . S
C122 O138 1.261 . S
C122 O139 1.257 . S
C123 C126 1.358 . S
C123 C127 1.332 . S
C123 C129 1.504 . S
C124 C125 1.373 . S
C124 C128 1.308 . S
C125 C124 1.373 . S
C125 C126 1.429 . S
C125 H152 0.932 . S
C126 C123 1.358 . S
C126 C125 1.429 . S
C126 H153 0.930 . S
C127 C123 1.332 . S
C127 C128 1.394 . S
C127 H154 0.932 . S
C128 C124 1.308 . S
C128 C127 1.394 . S
C128 H155 0.929 . S
C129 Tb120 2.764 . S
C129 C123 1.504 . S
C129 O141 1.239 . S
C129 O142 1.263 . S
O130 Tb120 2.325 . S
O130 C140 1.236 . S
O131 Tb121 2.322 . S
O131 C140 1.257 . S
O132 Tb121 2.349 . S
O132 C143 1.261 . S
O133 Tb120 2.303 . S
O133 C143 1.257 . S
O134 Tb121 2.415 . S
O134 C150 1.239 . S
O135 Tb121 2.399 . S
O135 C150 1.263 . S
O136 Tb121 2.325 . S
O136 C151 1.236 . S
O137 Tb120 2.322 . S
O137 C151 1.257 . S
O138 Tb120 2.349 . S
O138 C122 1.261 . S
O139 Tb121 2.303 . S
O139 C122 1.257 . S
C140 O130 1.236 . S
C140 O131 1.257 . S
O141 Tb120 2.415 . S
O141 C129 1.239 . S
O142 Tb120 2.399 . S
O142 C129 1.263 . S
C143 O132 1.261 . S
C143 O133 1.257 . S
C144 C147 1.358 . S
C144 C148 1.332 . S
C144 C150 1.504 . S
C145 C146 1.373 . S
C145 C149 1.308 . S
C146 C145 1.373 . S
C146 C147 1.429 . S
C146 H156 0.932 . S
C147 C144 1.358 . S
C147 C146 1.429 . S
C147 H157 0.930 . S
C148 C144 1.332 . S
C148 C149 1.394 . S
C148 H158 0.932 . S
C149 C145 1.308 . S
C149 C148 1.394 . S
C149 H159 0.929 . S
C150 Tb121 2.764 . S
C150 O134 1.239 . S
C150 O135 1.263 . S
C150 C144 1.504 . S
C151 O136 1.236 . S
C151 O137 1.257 . S
H152 C125 0.932 . S
H153 C126 0.930 . S
H154 C127 0.932 . S
H155 C128 0.929 . S
H156 C146 0.932 . S
H157 C147 0.930 . S
H158 C148 0.932 . S
H159 C149 0.929 . S
Tb160 C169 2.764 . S
Tb160 O170 2.325 . S
Tb160 O173 2.303 . S
Tb160 O177 2.322 . S
Tb160 O178 2.349 . S
Tb160 O181 2.415 . S
Tb160 O182 2.399 . S
Tb161 O171 2.322 . S
Tb161 O172 2.349 . S
Tb161 O174 2.415 . S
Tb161 O175 2.399 . S
Tb161 O176 2.325 . S
Tb161 O179 2.303 . S
Tb161 C190 2.764 . S
C162 O178 1.261 . S
C162 O179 1.257 . S
C163 C166 1.358 . S
C163 C167 1.332 . S
C163 C169 1.504 . S
C164 C165 1.373 . S
C164 C168 1.308 . S
C165 C164 1.373 . S
C165 C166 1.429 . S
C165 H192 0.932 . S
C166 C163 1.358 . S
C166 C165 1.429 . S
C166 H193 0.930 . S
C167 C163 1.332 . S
C167 C168 1.394 . S
C167 H194 0.932 . S
C168 C164 1.308 . S
C168 C167 1.394 . S
C168 H195 0.929 . S
C169 Tb160 2.764 . S
C169 C163 1.504 . S
C169 O181 1.239 . S
C169 O182 1.263 . S
O170 Tb160 2.325 . S
O170 C180 1.236 . S
O171 Tb161 2.322 . S
O171 C180 1.257 . S
O172 Tb161 2.349 . S
O172 C183 1.261 . S
O173 Tb160 2.303 . S
O173 C183 1.257 . S
O174 Tb161 2.415 . S
O174 C190 1.239 . S
O175 Tb161 2.399 . S
O175 C190 1.263 . S
O176 Tb161 2.325 . S
O176 C191 1.236 . S
O177 Tb160 2.322 . S
O177 C191 1.257 . S
O178 Tb160 2.349 . S
O178 C162 1.261 . S
O179 Tb161 2.303 . S
O179 C162 1.257 . S
C180 O170 1.236 . S
C180 O171 1.257 . S
O181 Tb160 2.415 . S
O181 C169 1.239 . S
O182 Tb160 2.399 . S
O182 C169 1.263 . S
C183 O172 1.261 . S
C183 O173 1.257 . S
C184 C187 1.358 . S
C184 C188 1.332 . S
C184 C190 1.504 . S
C185 C186 1.373 . S
C185 C189 1.308 . S
C186 C185 1.373 . S
C186 C187 1.429 . S
C186 H196 0.932 . S
C187 C184 1.358 . S
C187 C186 1.429 . S
C187 H197 0.930 . S
C188 C184 1.332 . S
C188 C189 1.394 . S
C188 H198 0.932 . S
C189 C185 1.308 . S
C189 C188 1.394 . S
C189 H199 0.929 . S
C190 Tb161 2.764 . S
C190 O174 1.239 . S
C190 O175 1.263 . S
C190 C184 1.504 . S
C191 O176 1.236 . S
C191 O177 1.257 . S
H192 C165 0.932 . S
H193 C166 0.930 . S
H194 C167 0.932 . S
H195 C168 0.929 . S
H196 C186 0.932 . S
H197 C187 0.930 . S
H198 C188 0.932 . S
H199 C189 0.929 . S
Tb200 C209 2.764 . S
Tb200 O210 2.325 . S
Tb200 O213 2.303 . S
Tb200 O217 2.322 . S
Tb200 O218 2.349 . S
Tb200 O221 2.415 . S
Tb200 O222 2.399 . S
Tb201 O211 2.322 . S
Tb201 O212 2.349 . S
Tb201 O214 2.415 . S
Tb201 O215 2.399 . S
Tb201 O216 2.325 . S
Tb201 O219 2.303 . S
Tb201 C230 2.764 . S
C202 O218 1.261 . S
C202 O219 1.257 . S
C203 C206 1.358 . S
C203 C207 1.332 . S
C203 C209 1.504 . S
C204 C205 1.373 . S
C204 C208 1.308 . S
C205 C204 1.373 . S
C205 C206 1.429 . S
C205 H232 0.932 . S
C206 C203 1.358 . S
C206 C205 1.429 . S
C206 H233 0.930 . S
C207 C203 1.332 . S
C207 C208 1.394 . S
C207 H234 0.932 . S
C208 C204 1.308 . S
C208 C207 1.394 . S
C208 H235 0.929 . S
C209 Tb200 2.764 . S
C209 C203 1.504 . S
C209 O221 1.239 . S
C209 O222 1.263 . S
O210 Tb200 2.325 . S
O210 C220 1.236 . S
O211 Tb201 2.322 . S
O211 C220 1.257 . S
O212 Tb201 2.349 . S
O212 C223 1.261 . S
O213 Tb200 2.303 . S
O213 C223 1.257 . S
O214 Tb201 2.415 . S
O214 C230 1.239 . S
O215 Tb201 2.399 . S
O215 C230 1.263 . S
O216 Tb201 2.325 . S
O216 C231 1.236 . S
O217 Tb200 2.322 . S
O217 C231 1.257 . S
O218 Tb200 2.349 . S
O218 C202 1.261 . S
O219 Tb201 2.303 . S
O219 C202 1.257 . S
C220 O210 1.236 . S
C220 O211 1.257 . S
O221 Tb200 2.415 . S
O221 C209 1.239 . S
O222 Tb200 2.399 . S
O222 C209 1.263 . S
C223 O212 1.261 . S
C223 O213 1.257 . S
C224 C227 1.358 . S
C224 C228 1.332 . S
C224 C230 1.504 . S
C225 C226 1.373 . S
C225 C229 1.308 . S
C226 C225 1.373 . S
C226 C227 1.429 . S
C226 H236 0.932 . S
C227 C224 1.358 . S
C227 C226 1.429 . S
C227 H237 0.930 . S
C228 C224 1.332 . S
C228 C229 1.394 . S
C228 H238 0.932 . S
C229 C225 1.308 . S
C229 C228 1.394 . S
C229 H239 0.929 . S
C230 Tb201 2.764 . S
C230 O214 1.239 . S
C230 O215 1.263 . S
C230 C224 1.504 . S
C231 O216 1.236 . S
C231 O217 1.257 . S
H232 C205 0.932 . S
H233 C206 0.930 . S
H234 C207 0.932 . S
H235 C208 0.929 . S
H236 C226 0.932 . S
H237 C227 0.930 . S
H238 C228 0.932 . S
H239 C229 0.929 . S
Tb240 C249 2.764 . S
Tb240 O250 2.325 . S
Tb240 O253 2.303 . S
Tb240 O257 2.322 . S
Tb240 O258 2.349 . S
Tb240 O261 2.415 . S
Tb240 O262 2.399 . S
Tb241 O251 2.322 . S
Tb241 O252 2.349 . S
Tb241 O254 2.415 . S
Tb241 O255 2.399 . S
Tb241 O256 2.325 . S
Tb241 O259 2.303 . S
Tb241 C270 2.764 . S
C242 O258 1.261 . S
C242 O259 1.257 . S
C243 C246 1.358 . S
C243 C247 1.332 . S
C243 C249 1.504 . S
C244 C245 1.373 . S
C244 C248 1.308 . S
C245 C244 1.373 . S
C245 C246 1.429 . S
C245 H272 0.932 . S
C246 C243 1.358 . S
C246 C245 1.429 . S
C246 H273 0.930 . S
C247 C243 1.332 . S
C247 C248 1.394 . S
C247 H274 0.932 . S
C248 C244 1.308 . S
C248 C247 1.394 . S
C248 H275 0.929 . S
C249 Tb240 2.764 . S
C249 C243 1.504 . S
C249 O261 1.239 . S
C249 O262 1.263 . S
O250 Tb240 2.325 . S
O250 C260 1.236 . S
O251 Tb241 2.322 . S
O251 C260 1.257 . S
O252 Tb241 2.349 . S
O252 C263 1.261 . S
O253 Tb240 2.303 . S
O253 C263 1.257 . S
O254 Tb241 2.415 . S
O254 C270 1.239 . S
O255 Tb241 2.399 . S
O255 C270 1.263 . S
O256 Tb241 2.325 . S
O256 C271 1.236 . S
O257 Tb240 2.322 . S
O257 C271 1.257 . S
O258 Tb240 2.349 . S
O258 C242 1.261 . S
O259 Tb241 2.303 . S
O259 C242 1.257 . S
C260 O250 1.236 . S
C260 O251 1.257 . S
O261 Tb240 2.415 . S
O261 C249 1.239 . S
O262 Tb240 2.399 . S
O262 C249 1.263 . S
C263 O252 1.261 . S
C263 O253 1.257 . S
C264 C267 1.358 . S
C264 C268 1.332 . S
C264 C270 1.504 . S
C265 C266 1.373 . S
C265 C269 1.308 . S
C266 C265 1.373 . S
C266 C267 1.429 . S
C266 H276 0.932 . S
C267 C264 1.358 . S
C267 C266 1.429 . S
C267 H277 0.930 . S
C268 C264 1.332 . S
C268 C269 1.394 . S
C268 H278 0.932 . S
C269 C265 1.308 . S
C269 C268 1.394 . S
C269 H279 0.929 . S
C270 Tb241 2.764 . S
C270 O254 1.239 . S
C270 O255 1.263 . S
C270 C264 1.504 . S
C271 O256 1.236 . S
C271 O257 1.257 . S
H272 C245 0.932 . S
H273 C246 0.930 . S
H274 C247 0.932 . S
H275 C248 0.929 . S
H276 C266 0.932 . S
H277 C267 0.930 . S
H278 C268 0.932 . S
H279 C269 0.929 . S
Tb280 C289 2.764 . S
Tb280 O290 2.325 . S
Tb280 O293 2.303 . S
Tb280 O297 2.322 . S
Tb280 O298 2.349 . S
Tb280 O301 2.415 . S
Tb280 O302 2.399 . S
Tb281 O291 2.322 . S
Tb281 O292 2.349 . S
Tb281 O294 2.415 . S
Tb281 O295 2.399 . S
Tb281 O296 2.325 . S
Tb281 O299 2.303 . S
Tb281 C310 2.764 . S
C282 O298 1.261 . S
C282 O299 1.257 . S
C283 C286 1.358 . S
C283 C287 1.332 . S
C283 C289 1.504 . S
C284 C285 1.373 . S
C284 C288 1.308 . S
C285 C284 1.373 . S
C285 C286 1.429 . S
C285 H312 0.932 . S
C286 C283 1.358 . S
C286 C285 1.429 . S
C286 H313 0.930 . S
C287 C283 1.332 . S
C287 C288 1.394 . S
C287 H314 0.932 . S
C288 C284 1.308 . S
C288 C287 1.394 . S
C288 H315 0.929 . S
C289 Tb280 2.764 . S
C289 C283 1.504 . S
C289 O301 1.239 . S
C289 O302 1.263 . S
O290 Tb280 2.325 . S
O290 C300 1.236 . S
O291 Tb281 2.322 . S
O291 C300 1.257 . S
O292 Tb281 2.349 . S
O292 C303 1.261 . S
O293 Tb280 2.303 . S
O293 C303 1.257 . S
O294 Tb281 2.415 . S
O294 C310 1.239 . S
O295 Tb281 2.399 . S
O295 C310 1.263 . S
O296 Tb281 2.325 . S
O296 C311 1.236 . S
O297 Tb280 2.322 . S
O297 C311 1.257 . S
O298 Tb280 2.349 . S
O298 C282 1.261 . S
O299 Tb281 2.303 . S
O299 C282 1.257 . S
C300 O290 1.236 . S
C300 O291 1.257 . S
O301 Tb280 2.415 . S
O301 C289 1.239 . S
O302 Tb280 2.399 . S
O302 C289 1.263 . S
C303 O292 1.261 . S
C303 O293 1.257 . S
C304 C307 1.358 . S
C304 C308 1.332 . S
C304 C310 1.504 . S
C305 C306 1.373 . S
C305 C309 1.308 . S
C306 C305 1.373 . S
C306 C307 1.429 . S
C306 H316 0.932 . S
C307 C304 1.358 . S
C307 C306 1.429 . S
C307 H317 0.930 . S
C308 C304 1.332 . S
C308 C309 1.394 . S
C308 H318 0.932 . S
C309 C305 1.308 . S
C309 C308 1.394 . S
C309 H319 0.929 . S
C310 Tb281 2.764 . S
C310 O294 1.239 . S
C310 O295 1.263 . S
C310 C304 1.504 . S
C311 O296 1.236 . S
C311 O297 1.257 . S
H312 C285 0.932 . S
H313 C286 0.930 . S
H314 C287 0.932 . S
H315 C288 0.929 . S
H316 C306 0.932 . S
H317 C307 0.930 . S
H318 C308 0.932 . S
H319 C309 0.929 . S
C320 O332 1.241 . S
C320 O333 1.280 . S
C321 O334 1.277 . S
C321 O335 1.245 . S
C322 O346 1.247 . S
C322 O348 1.289 . S
Mg323 O324 1.926 1_455 S
Mg323 O333 1.984 1_455 S
Mg323 O335 1.988 1_455 S
Mg323 O336 2.061 . S
O324 Mg323 1.926 1_655 S
O324 Mg325 1.986 . S
O324 Mg326 1.917 1_655 S
Mg325 O324 1.986 . S
Mg325 O332 2.042 . S
Mg325 O334 2.041 . S
Mg325 O340 2.038 1_545 S
Mg325 O348 2.238 1_545 S
Mg326 O324 1.917 1_455 S
Mg326 O327 1.917 1_545 S
Mg326 O337 2.106 . S
Mg326 O339 2.079 1_445 S
Mg326 O348 2.106 1_445 S
Mg326 O349 2.079 . S
O327 Mg326 1.917 1_565 S
O327 Mg328 1.926 . S
O327 Mg329 1.986 1_565 S
Mg328 O327 1.926 . S
Mg328 O342 1.984 . S
Mg328 O345 1.988 . S
Mg328 O346 2.061 1_455 S
Mg329 O327 1.986 1_545 S
Mg329 O337 2.238 . S
Mg329 O341 2.042 . S
Mg329 O343 2.041 1_545 S
Mg329 O350 2.038 . S
C330 O336 1.247 . S
C330 O337 1.289 . S
C331 O349 1.245 . S
C331 O350 1.274 . S
O332 C320 1.241 . S
O332 Mg325 2.042 . S
O333 C320 1.280 . S
O333 Mg323 1.984 1_655 S
O334 C321 1.277 . S
O334 Mg325 2.041 . S
O335 C321 1.245 . S
O335 Mg323 1.988 1_655 S
O336 Mg323 2.061 . S
O336 C330 1.247 . S
O337 Mg326 2.106 . S
O337 Mg329 2.238 . S
O337 C330 1.289 . S
C338 O339 1.245 . S
C338 O340 1.274 . S
O339 Mg326 2.079 1_665 S
O339 C338 1.245 . S
O340 Mg325 2.038 1_565 S
O340 C338 1.274 . S
O341 Mg329 2.042 . S
O341 C344 1.241 1_545 S
O342 Mg328 1.984 . S
O342 C344 1.280 . S
O343 Mg329 2.041 1_565 S
O343 C347 1.277 . S
C344 O341 1.241 1_565 S
C344 O342 1.280 . S
O345 Mg328 1.988 . S
O345 C347 1.245 . S
O346 C322 1.247 . S
O346 Mg328 2.061 1_655 S
C347 O343 1.277 . S
C347 O345 1.245 . S
O348 C322 1.289 . S
O348 Mg325 2.238 1_565 S
O348 Mg326 2.106 1_665 S
O349 Mg326 2.079 . S
O349 C331 1.245 . S
O350 Mg329 2.038 . S
O350 C331 1.274 . S
C351 O363 1.241 . S
C351 O364 1.280 . S
C352 O365 1.277 1_556 S
C352 O366 1.245 1_556 S
C353 O377 1.247 1_556 S
C353 O379 1.289 1_566 S
Mg354 O355 1.926 . S
Mg354 O364 1.984 . S
Mg354 O366 1.988 . S
Mg354 O367 2.061 . S
O355 Mg354 1.926 . S
O355 Mg356 1.986 . S
O355 Mg357 1.917 . S
Mg356 O355 1.986 . S
Mg356 O363 2.042 . S
Mg356 O365 2.041 . S
Mg356 O371 2.038 1_545 S
Mg356 O379 2.238 . S
Mg357 O355 1.917 . S
Mg357 O358 1.917 . S
Mg357 O368 2.106 . S
Mg357 O370 2.079 1_545 S
Mg357 O379 2.106 . S
Mg357 O380 2.079 . S
O358 Mg357 1.917 . S
O358 Mg359 1.926 1_545 S
O358 Mg360 1.986 . S
Mg359 O358 1.926 1_565 S
Mg359 O373 1.984 . S
Mg359 O376 1.988 . S
Mg359 O377 2.061 . S
Mg360 O358 1.986 . S
Mg360 O368 2.238 . S
Mg360 O372 2.042 . S
Mg360 O374 2.041 . S
Mg360 O381 2.038 . S
C361 O367 1.247 . S
C361 O368 1.289 . S
C362 O380 1.245 1_556 S
C362 O381 1.274 1_556 S
O363 C351 1.241 . S
O363 Mg356 2.042 . S
O364 C351 1.280 . S
O364 Mg354 1.984 . S
O365 C352 1.277 1_554 S
O365 Mg356 2.041 . S
O366 C352 1.245 1_554 S
O366 Mg354 1.988 . S
O367 Mg354 2.061 . S
O367 C361 1.247 . S
O368 Mg357 2.106 . S
O368 Mg360 2.238 . S
O368 C361 1.289 . S
C369 O370 1.245 . S
C369 O371 1.274 . S
O370 Mg357 2.079 1_565 S
O370 C369 1.245 . S
O371 Mg356 2.038 1_565 S
O371 C369 1.274 . S
O372 Mg360 2.042 . S
O372 C375 1.258 1_545 S
O373 Mg359 1.984 . S
O373 C375 1.285 . S
O374 Mg360 2.041 . S
O374 C378 1.277 1_545 S
C375 O372 1.258 1_565 S
C375 O373 1.285 . S
O376 Mg359 1.988 . S
O376 C378 1.245 . S
O377 C353 1.247 1_554 S
O377 Mg359 2.061 . S
C378 O374 1.277 1_565 S
C378 O376 1.245 . S
O379 C353 1.289 1_544 S
O379 Mg356 2.238 . S
O379 Mg357 2.106 . S
O380 Mg357 2.079 . S
O380 C362 1.245 1_554 S
O381 Mg360 2.038 . S
O381 C362 1.274 1_554 S
C382 O394 1.241 . S
C382 O395 1.280 . S
C383 O396 1.277 . S
C383 O397 1.245 . S
C384 O408 1.247 . S
C384 O410 1.289 . S
Mg385 O386 1.928 1_455 S
Mg385 O395 1.972 1_455 S
Mg385 O397 1.982 1_454 S
Mg385 O398 2.075 . S
O386 Mg385 1.928 1_655 S
O386 Mg387 1.986 1_554 S
O386 Mg388 1.892 1_655 S
Mg387 O386 1.986 1_556 S
Mg387 O394 2.042 1_556 S
Mg387 O396 2.041 . S
Mg387 O402 2.038 1_556 S
Mg387 O410 2.238 . S
Mg388 O386 1.892 1_455 S
Mg388 O389 1.942 1_554 S
Mg388 O399 2.125 . S
Mg388 O401 2.074 1_455 S
Mg388 O410 2.089 1_454 S
Mg388 O411 2.084 1_554 S
O389 Mg388 1.942 1_556 S
O389 Mg390 1.926 . S
O389 Mg391 1.986 1_556 S
Mg390 O389 1.926 . S
Mg390 O404 1.984 . S
Mg390 O407 1.988 1_556 S
Mg390 O408 2.061 1_455 S
Mg391 O389 1.986 1_554 S
Mg391 O399 2.238 . S
Mg391 O403 2.042 1_554 S
Mg391 O405 2.041 . S
Mg391 O412 2.038 1_554 S
C392 O398 1.247 . S
C392 O399 1.289 . S
C393 O411 1.245 . S
C393 O412 1.274 . S
O394 C382 1.241 . S
O394 Mg387 2.042 1_554 S
O395 C382 1.280 . S
O395 Mg385 1.972 1_655 S
O396 C383 1.277 . S
O396 Mg387 2.041 . S
O397 C383 1.245 . S
O397 Mg385 1.982 1_656 S
O398 Mg385 2.075 . S
O398 C392 1.247 . S
O399 Mg388 2.125 . S
O399 Mg391 2.238 . S
O399 C392 1.289 . S
C400 O401 1.245 . S
C400 O402 1.274 . S
O401 Mg388 2.074 1_655 S
O401 C400 1.245 . S
O402 Mg387 2.038 1_554 S
O402 C400 1.274 . S
O403 Mg391 2.042 1_556 S
O403 C406 1.241 . S
O404 Mg390 1.984 . S
O404 C406 1.280 . S
O405 Mg391 2.041 . S
O405 C409 1.277 . S
C406 O403 1.241 . S
C406 O404 1.280 . S
O407 Mg390 1.988 1_554 S
O407 C409 1.245 . S
O408 C384 1.247 . S
O408 Mg390 2.061 1_655 S
C409 O405 1.277 . S
C409 O407 1.245 . S
O410 C384 1.289 . S
O410 Mg387 2.238 . S
O410 Mg388 2.089 1_656 S
O411 Mg388 2.084 1_556 S
O411 C393 1.245 . S
O412 Mg391 2.038 1_556 S
O412 C393 1.274 . S
C413 O425 1.241 . S
C413 O426 1.280 . S
C414 O427 1.277 . S
C414 O428 1.245 . S
C415 O439 1.247 . S
C415 O441 1.289 . S
Mg416 O417 1.926 . S
Mg416 O426 1.984 . S
Mg416 O428 1.988 1_554 S
Mg416 O429 2.061 . S
O417 Mg416 1.926 . S
O417 Mg418 1.986 . S
O417 Mg419 1.917 . S
Mg418 O417 1.986 . S
Mg418 O425 2.042 . S
Mg418 O427 2.041 1_554 S
Mg418 O433 2.038 . S
Mg418 O441 2.238 1_554 S
Mg419 O417 1.917 . S
Mg419 O420 1.917 . S
Mg419 O430 2.106 . S
Mg419 O432 2.079 . S
Mg419 O441 2.106 1_554 S
Mg419 O442 2.079 1_554 S
O420 Mg419 1.917 . S
O420 Mg421 1.926 . S
O420 Mg422 1.986 . S
Mg421 O420 1.926 . S
Mg421 O435 1.984 1_554 S
Mg421 O438 1.988 . S
Mg421 O439 2.061 1_554 S
Mg422 O420 1.986 . S
Mg422 O430 2.238 . S
Mg422 O434 2.042 1_554 S
Mg422 O436 2.041 . S
Mg422 O443 2.038 1_554 S
C423 O429 1.247 . S
C423 O430 1.289 . S
C424 O442 1.245 . S
C424 O443 1.274 . S
O425 C413 1.241 . S
O425 Mg418 2.042 . S
O426 C413 1.280 . S
O426 Mg416 1.984 . S
O427 C414 1.277 . S
O427 Mg418 2.041 1_556 S
O428 C414 1.245 . S
O428 Mg416 1.988 1_556 S
O429 Mg416 2.061 . S
O429 C423 1.247 . S
O430 Mg419 2.106 . S
O430 Mg422 2.238 . S
O430 C423 1.289 . S
C431 O432 1.245 . S
C431 O433 1.274 . S
O432 Mg419 2.079 . S
O432 C431 1.245 . S
O433 Mg418 2.038 . S
O433 C431 1.274 . S
O434 Mg422 2.042 1_556 S
O434 C437 1.241 . S
O435 Mg421 1.984 1_556 S
O435 C437 1.280 . S
O436 Mg422 2.041 . S
O436 C440 1.277 . S
C437 O434 1.241 . S
C437 O435 1.280 . S
O438 Mg421 1.988 . S
O438 C440 1.245 . S
O439 C415 1.247 . S
O439 Mg421 2.061 1_556 S
C440 O436 1.277 . S
C440 O438 1.245 . S
O441 C415 1.289 . S
O441 Mg418 2.238 1_556 S
O441 Mg419 2.106 1_556 S
O442 Mg419 2.079 1_556 S
O442 C424 1.245 . S
O443 Mg422 2.038 1_556 S
O443 C424 1.274 . S
C444 O456 1.241 . S
C444 O457 1.280 . S
C445 O458 1.277 . S
C445 O459 1.245 1_655 S
C446 O470 1.247 . S
C446 O472 1.289 . S
Mg447 O448 1.926 . S
Mg447 O457 1.984 1_455 S
Mg447 O459 1.988 . S
Mg447 O460 2.061 . S
O448 Mg447 1.926 . S
O448 Mg449 1.986 1_455 S
O448 Mg450 1.917 . S
Mg449 O448 1.986 1_655 S
Mg449 O456 2.042 . S
Mg449 O458 2.041 . S
Mg449 O464 2.038 . S
Mg449 O472 2.238 . S
Mg450 O448 1.917 . S
Mg450 O451 1.917 . S
Mg450 O461 2.106 . S
Mg450 O463 2.079 . S
Mg450 O472 2.106 1_455 S
Mg450 O473 2.079 . S
O451 Mg450 1.917 . S
O451 Mg452 1.926 . S
O451 Mg453 1.986 . S
Mg452 O451 1.926 . S
Mg452 O466 1.984 . S
Mg452 O469 1.988 . S
Mg452 O470 2.061 1_455 S
Mg453 O451 1.986 . S
Mg453 O461 2.238 . S
Mg453 O465 2.042 . S
Mg453 O467 2.041 . S
Mg453 O474 2.038 . S
C454 O460 1.247 . S
C454 O461 1.289 . S
C455 O473 1.245 . S
C455 O474 1.274 . S
O456 C444 1.241 . S
O456 Mg449 2.042 . S
O457 C444 1.280 . S
O457 Mg447 1.984 1_655 S
O458 C445 1.277 . S
O458 Mg449 2.041 . S
O459 C445 1.245 1_455 S
O459 Mg447 1.988 . S
O460 Mg447 2.061 . S
O460 C454 1.247 . S
O461 Mg450 2.106 . S
O461 Mg453 2.238 . S
O461 C454 1.289 . S
C462 O463 1.245 1_655 S
C462 O464 1.274 . S
O463 Mg450 2.079 . S
O463 C462 1.245 1_455 S
O464 Mg449 2.038 . S
O464 C462 1.274 . S
O465 Mg453 2.042 . S
O465 C468 1.241 . S
O466 Mg452 1.984 . S
O466 C468 1.280 . S
O467 Mg453 2.041 . S
O467 C471 1.277 . S
C468 O465 1.241 . S
C468 O466 1.280 . S
O469 Mg452 1.988 . S
O469 C471 1.245 . S
O470 C446 1.247 . S
O470 Mg452 2.061 1_655 S
C471 O467 1.277 . S
C471 O469 1.245 . S
O472 C446 1.289 . S
O472 Mg449 2.238 . S
O472 Mg450 2.106 1_655 S
O473 Mg450 2.079 . S
O473 C455 1.245 . S
O474 Mg453 2.038 . S
O474 C455 1.274 . S
C475 O487 1.241 . S
C475 O488 1.280 . S
C476 O489 1.277 . S
C476 O490 1.245 . S
C477 O501 1.247 . S
C477 O503 1.289 . S
Mg478 O479 1.926 . S
Mg478 O488 1.984 . S
Mg478 O490 1.988 . S
Mg478 O491 2.061 . S
O479 Mg478 1.926 . S
O479 Mg480 1.986 1_545 S
O479 Mg481 1.917 . S
Mg480 O479 1.986 1_565 S
Mg480 O487 2.042 1_565 S
Mg480 O489 2.041 1_565 S
Mg480 O495 2.038 . S
Mg480 O503 2.238 . S
Mg481 O479 1.917 . S
Mg481 O482 1.917 1_545 S
Mg481 O492 2.106 . S
Mg481 O494 2.079 1_545 S
Mg481 O503 2.106 1_545 S
Mg481 O504 2.079 . S
O482 Mg481 1.917 1_565 S
O482 Mg483 1.926 . S
O482 Mg484 1.986 1_565 S
Mg483 O482 1.926 . S
Mg483 O497 1.984 . S
Mg483 O500 1.988 . S
Mg483 O501 2.061 . S
Mg484 O482 1.986 1_545 S
Mg484 O492 2.238 . S
Mg484 O496 2.042 1_545 S
Mg484 O498 2.041 1_545 S
Mg484 O505 2.038 . S
C485 O491 1.247 . S
C485 O492 1.289 . S
C486 O504 1.245 . S
C486 O505 1.274 . S
O487 C475 1.241 . S
O487 Mg480 2.042 1_545 S
O488 C475 1.280 . S
O488 Mg478 1.984 . S
O489 C476 1.277 . S
O489 Mg480 2.041 1_545 S
O490 C476 1.245 . S
O490 Mg478 1.988 . S
O491 Mg478 2.061 . S
O491 C485 1.247 . S
O492 Mg481 2.106 . S
O492 Mg484 2.238 . S
O492 C485 1.289 . S
C493 O494 1.245 . S
C493 O495 1.274 . S
O494 Mg481 2.079 1_565 S
O494 C493 1.245 . S
O495 Mg480 2.038 . S
O495 C493 1.274 . S
O496 Mg484 2.042 1_565 S
O496 C499 1.241 . S
O497 Mg483 1.984 . S
O497 C499 1.280 . S
O498 Mg484 2.041 1_565 S
O498 C502 1.277 . S
C499 O496 1.241 . S
C499 O497 1.280 . S
O500 Mg483 1.988 . S
O500 C502 1.245 . S
O501 C477 1.247 . S
O501 Mg483 2.061 . S
C502 O498 1.277 . S
C502 O500 1.245 . S
O503 C477 1.289 . S
O503 Mg480 2.238 . S
O503 Mg481 2.106 1_565 S
O504 Mg481 2.079 . S
O504 C486 1.245 . S
O505 Mg484 2.038 . S
O505 C486 1.274 . S
H506 C512 0.930 . S
H507 C515 0.930 . S
H508 C516 0.930 . S
H509 C517 0.930 . S
H510 C520 0.930 . S
H511 C521 0.930 . S
C512 H506 0.930 . S
C512 C513 1.355 . S
C512 C514 1.415 . S
C513 C512 1.355 . S
C513 C515 1.419 . S
C514 C512 1.415 . S
C514 C519 1.425 . S
C514 C521 1.409 . S
C515 H507 0.930 . S
C515 C513 1.419 . S
C515 C516 1.362 . S
C516 H508 0.930 . S
C516 C515 1.362 . S
C516 C519 1.409 . S
C517 H509 0.930 . S
C517 C518 1.355 . S
C517 C519 1.415 . S
C518 C517 1.355 . S
C518 C520 1.419 . S
C519 C514 1.425 . S
C519 C516 1.409 . S
C519 C517 1.415 . S
C520 H510 0.930 . S
C520 C518 1.419 . S
C520 C521 1.362 . S
C521 H511 0.930 . S
C521 C514 1.409 . S
C521 C520 1.362 . S
H522 C528 0.930 . S
H523 C531 0.930 . S
H524 C532 0.930 . S
H525 C533 0.930 . S
H526 C536 0.930 1_455 S
H527 C537 0.930 . S
C528 H522 0.930 . S
C528 C529 1.355 . S
C528 C530 1.415 . S
C529 C528 1.355 . S
C529 C531 1.419 . S
C530 C528 1.415 . S
C530 C535 1.425 . S
C530 C537 1.409 . S
C531 H523 0.930 . S
C531 C529 1.419 . S
C531 C532 1.362 . S
C532 H524 0.930 . S
C532 C531 1.362 . S
C532 C535 1.409 . S
C533 H525 0.930 . S
C533 C534 1.355 . S
C533 C535 1.415 . S
C534 C533 1.355 . S
C534 C536 1.419 . S
C535 C530 1.425 . S
C535 C532 1.409 . S
C535 C533 1.415 . S
C536 H526 0.930 1_655 S
C536 C534 1.419 . S
C536 C537 1.362 . S
C537 H527 0.930 . S
C537 C530 1.409 . S
C537 C536 1.362 . S
H538 C544 0.930 . S
H539 C547 0.930 . S
H540 C548 0.930 . S
H541 C549 0.930 . S
H542 C552 0.930 . S
H543 C553 0.930 . S
C544 H538 0.930 . S
C544 C545 1.355 . S
C544 C546 1.415 . S
C545 C544 1.355 . S
C545 C547 1.419 . S
C546 C544 1.415 . S
C546 C551 1.425 . S
C546 C553 1.409 . S
C547 H539 0.930 . S
C547 C545 1.419 . S
C547 C548 1.362 . S
C548 H540 0.930 . S
C548 C547 1.362 . S
C548 C551 1.409 . S
C549 H541 0.930 . S
C549 C550 1.355 . S
C549 C551 1.415 . S
C550 C549 1.355 . S
C550 C552 1.419 . S
C551 C546 1.425 . S
C551 C548 1.409 . S
C551 C549 1.415 . S
C552 H542 0.930 . S
C552 C550 1.419 . S
C552 C553 1.362 . S
C553 H543 0.930 . S
C553 C546 1.409 . S
C553 C552 1.362 . S
H554 C560 0.930 . S
H555 C563 0.930 . S
H556 C564 0.930 1_545 S
H557 C565 0.930 1_545 S
H558 C568 0.930 . S
H559 C569 0.930 . S
C560 H554 0.930 . S
C560 C561 1.355 . S
C560 C562 1.415 . S
C561 C560 1.355 . S
C561 C563 1.419 . S
C562 C560 1.415 . S
C562 C567 1.425 . S
C562 C569 1.409 . S
C563 H555 0.930 . S
C563 C561 1.419 . S
C563 C564 1.362 . S
C564 H556 0.930 1_565 S
C564 C563 1.362 . S
C564 C567 1.409 . S
C565 H557 0.930 1_565 S
C565 C566 1.355 . S
C565 C567 1.415 . S
C566 C565 1.355 . S
C566 C568 1.419 . S
C567 C562 1.425 . S
C567 C564 1.409 . S
C567 C565 1.415 . S
C568 H558 0.930 . S
C568 C566 1.419 . S
C568 C569 1.362 . S
C569 H559 0.930 . S
C569 C562 1.409 . S
C569 C568 1.362 . S
H570 C576 0.930 . S
H571 C579 0.930 . S
H572 C580 0.930 1_545 S
H573 C581 0.930 1_545 S
H574 C584 0.930 . S
H575 C585 0.930 . S
C576 H570 0.930 . S
C576 C577 1.355 . S
C576 C578 1.415 . S
C577 C576 1.355 . S
C577 C579 1.419 . S
C578 C576 1.415 . S
C578 C583 1.425 . S
C578 C585 1.409 . S
C579 H571 0.930 . S
C579 C577 1.419 . S
C579 C580 1.362 . S
C580 H572 0.930 1_565 S
C580 C579 1.362 . S
C580 C583 1.409 . S
C581 H573 0.930 1_565 S
C581 C582 1.355 . S
C581 C583 1.415 . S
C582 C581 1.355 . S
C582 C584 1.419 . S
C583 C578 1.425 . S
C583 C580 1.409 . S
C583 C581 1.415 . S
C584 H574 0.930 . S
C584 C582 1.419 . S
C584 C585 1.362 . S
C585 H575 0.930 . S
C585 C578 1.409 . S
C585 C584 1.362 . S
H586 C592 0.930 . S
H587 C595 0.930 . S
H588 C596 0.930 . S
H589 C597 0.930 . S
H590 C600 0.930 . S
H591 C601 0.930 . S
C592 H586 0.930 . S
C592 C593 1.355 . S
C592 C594 1.415 . S
C593 C592 1.355 . S
C593 C595 1.419 . S
C594 C592 1.415 . S
C594 C599 1.425 . S
C594 C601 1.409 . S
C595 H587 0.930 . S
C595 C593 1.419 . S
C595 C596 1.362 . S
C596 H588 0.930 . S
C596 C595 1.362 . S
C596 C599 1.409 . S
C597 H589 0.930 . S
C597 C598 1.355 . S
C597 C599 1.415 . S
C598 C597 1.355 . S
C598 C600 1.419 . S
C599 C594 1.425 . S
C599 C596 1.409 . S
C599 C597 1.415 . S
C600 H590 0.930 . S
C600 C598 1.419 . S
C600 C601 1.362 . S
C601 H591 0.930 . S
C601 C594 1.409 . S
C601 C600 1.362 . S
H602 C608 0.930 . S
H603 C611 0.930 . S
H604 C612 0.930 . S
H605 C613 0.930 . S
H606 C616 0.930 . S
H607 C617 0.930 . S
C608 H602 0.930 . S
C608 C609 1.355 . S
C608 C610 1.415 . S
C609 C608 1.355 . S
C609 C611 1.419 . S
C610 C608 1.415 . S
C610 C615 1.425 . S
C610 C617 1.409 . S
C611 H603 0.930 . S
C611 C609 1.419 . S
C611 C612 1.362 . S
C612 H604 0.930 . S
C612 C611 1.362 . S
C612 C615 1.409 . S
C613 H605 0.930 . S
C613 C614 1.355 . S
C613 C615 1.415 . S
C614 C613 1.355 . S
C614 C616 1.419 . S
C615 C610 1.425 . S
C615 C612 1.409 . S
C615 C613 1.415 . S
C616 H606 0.930 . S
C616 C614 1.419 . S
C616 C617 1.362 . S
C617 H607 0.930 . S
C617 C610 1.409 . S
C617 C616 1.362 . S
H618 C624 0.930 . S
H619 C627 0.930 . S
H620 C628 0.930 . S
H621 C629 0.930 . S
H622 C632 0.930 . S
H623 C633 0.930 . S
C624 H618 0.930 . S
C624 C625 1.355 . S
C624 C626 1.415 . S
C625 C624 1.355 . S
C625 C627 1.419 . S
C626 C624 1.415 . S
C626 C631 1.425 . S
C626 C633 1.409 . S
C627 H619 0.930 . S
C627 C625 1.419 . S
C627 C628 1.362 . S
C628 H620 0.930 . S
C628 C627 1.362 . S
C628 C631 1.409 . S
C629 H621 0.930 . S
C629 C630 1.355 . S
C629 C631 1.415 . S
C630 C629 1.355 . S
C630 C632 1.419 . S
C631 C626 1.425 . S
C631 C628 1.409 . S
C631 C629 1.415 . S
C632 H622 0.930 . S
C632 C630 1.419 . S
C632 C633 1.362 . S
C633 H623 0.930 . S
C633 C626 1.409 . S
C633 C632 1.362 . S
H634 C640 0.930 . S
H635 C643 0.930 . S
H636 C644 0.930 . S
H637 C645 0.930 . S
H638 C648 0.930 . S
H639 C649 0.930 . S
C640 H634 0.930 . S
C640 C641 1.355 . S
C640 C642 1.415 . S
C641 C640 1.355 . S
C641 C643 1.419 . S
C642 C640 1.415 . S
C642 C647 1.425 . S
C642 C649 1.409 . S
C643 H635 0.930 . S
C643 C641 1.419 . S
C643 C644 1.362 . S
C644 H636 0.930 . S
C644 C643 1.362 . S
C644 C647 1.409 . S
C645 H637 0.930 . S
C645 C646 1.355 . S
C645 C647 1.415 . S
C646 C645 1.355 . S
C646 C648 1.419 . S
C647 C642 1.425 . S
C647 C644 1.409 . S
C647 C645 1.415 . S
C648 H638 0.930 . S
C648 C646 1.419 . S
C648 C649 1.362 . S
C649 H639 0.930 . S
C649 C642 1.409 . S
C649 C648 1.362 . S
H650 C656 0.930 . S
H651 C659 0.930 . S
H652 C660 0.930 . S
H653 C661 0.930 . S
H654 C664 0.930 . S
H655 C665 0.930 . S
C656 H650 0.930 . S
C656 C657 1.355 . S
C656 C658 1.415 . S
C657 C656 1.355 . S
C657 C659 1.419 . S
C658 C656 1.415 . S
C658 C663 1.425 . S
C658 C665 1.409 . S
C659 H651 0.930 . S
C659 C657 1.419 . S
C659 C660 1.362 . S
C660 H652 0.930 . S
C660 C659 1.362 . S
C660 C663 1.409 . S
C661 H653 0.930 . S
C661 C662 1.355 . S
C661 C663 1.415 . S
C662 C661 1.355 . S
C662 C664 1.419 . S
C663 C658 1.425 . S
C663 C660 1.409 . S
C663 C661 1.415 . S
C664 H654 0.930 . S
C664 C662 1.419 . S
C664 C665 1.362 . S
C665 H655 0.930 . S
C665 C658 1.409 . S
C665 C664 1.362 . S
H666 C672 0.930 . S
H667 C675 0.930 . S
H668 C676 0.930 . S
H669 C677 0.930 . S
H670 C680 0.930 . S
H671 C681 0.930 . S
C672 H666 0.930 . S
C672 C673 1.355 . S
C672 C674 1.415 . S
C673 C672 1.355 . S
C673 C675 1.419 . S
C674 C672 1.415 . S
C674 C679 1.425 . S
C674 C681 1.409 . S
C675 H667 0.930 . S
C675 C673 1.419 . S
C675 C676 1.362 . S
C676 H668 0.930 . S
C676 C675 1.362 . S
C676 C679 1.409 . S
C677 H669 0.930 . S
C677 C678 1.355 . S
C677 C679 1.415 . S
C678 C677 1.355 . S
C678 C680 1.419 . S
C679 C674 1.425 . S
C679 C676 1.409 . S
C679 C677 1.415 . S
C680 H670 0.930 . S
C680 C678 1.419 . S
C680 C681 1.362 . S
C681 H671 0.930 . S
C681 C674 1.409 . S
C681 C680 1.362 . S
H682 C688 0.930 . S
H683 C691 0.930 . S
H684 C692 0.930 . S
H685 C693 0.930 . S
H686 C696 0.930 . S
H687 C697 0.930 . S
C688 H682 0.930 . S
C688 C689 1.355 . S
C688 C690 1.415 . S
C689 C688 1.355 . S
C689 C691 1.419 . S
C690 C688 1.415 . S
C690 C695 1.425 . S
C690 C697 1.409 . S
C691 H683 0.930 . S
C691 C689 1.419 . S
C691 C692 1.362 . S
C692 H684 0.930 . S
C692 C691 1.362 . S
C692 C695 1.409 . S
C693 H685 0.930 . S
C693 C694 1.355 . S
C693 C695 1.415 . S
C694 C693 1.355 . S
C694 C696 1.419 . S
C695 C690 1.425 . S
C695 C692 1.409 . S
C695 C693 1.415 . S
C696 H686 0.930 . S
C696 C694 1.419 . S
C696 C697 1.362 . S
C697 H687 0.930 . S
C697 C690 1.409 . S
C697 C696 1.362 . S
H698 C704 0.930 . S
H699 C707 0.930 . S
H700 C708 0.930 . S
H701 C709 0.930 . S
H702 C712 0.930 . S
H703 C713 0.930 . S
C704 H698 0.930 . S
C704 C705 1.355 . S
C704 C706 1.415 . S
C705 C704 1.355 . S
C705 C707 1.419 . S
C706 C704 1.415 . S
C706 C711 1.425 . S
C706 C713 1.409 . S
C707 H699 0.930 . S
C707 C705 1.419 . S
C707 C708 1.362 . S
C708 H700 0.930 . S
C708 C707 1.362 . S
C708 C711 1.409 . S
C709 H701 0.930 . S
C709 C710 1.355 . S
C709 C711 1.415 . S
C710 C709 1.355 . S
C710 C712 1.419 . S
C711 C706 1.425 . S
C711 C708 1.409 . S
C711 C709 1.415 . S
C712 H702 0.930 . S
C712 C710 1.419 . S
C712 C713 1.362 . S
C713 H703 0.930 . S
C713 C706 1.409 . S
C713 C712 1.362 . S
H714 C720 0.930 . S
H715 C723 0.930 . S
H716 C724 0.930 . S
H717 C725 0.930 . S
H718 C728 0.930 . S
H719 C729 0.930 . S
C720 H714 0.930 . S
C720 C721 1.355 . S
C720 C722 1.415 . S
C721 C720 1.355 . S
C721 C723 1.419 . S
C722 C720 1.415 . S
C722 C727 1.425 . S
C722 C729 1.409 . S
C723 H715 0.930 . S
C723 C721 1.419 . S
C723 C724 1.362 . S
C724 H716 0.930 . S
C724 C723 1.362 . S
C724 C727 1.409 . S
C725 H717 0.930 . S
C725 C726 1.355 . S
C725 C727 1.415 . S
C726 C725 1.355 . S
C726 C728 1.419 . S
C727 C722 1.425 . S
C727 C724 1.409 . S
C727 C725 1.415 . S
C728 H718 0.930 . S
C728 C726 1.419 . S
C728 C729 1.362 . S
C729 H719 0.930 . S
C729 C722 1.409 . S
C729 C728 1.362 . S
H730 C736 0.930 . S
H731 C739 0.930 . S
H732 C740 0.930 . S
H733 C741 0.930 . S
H734 C744 0.930 . S
H735 C745 0.930 . S
C736 H730 0.930 . S
C736 C737 1.355 . S
C736 C738 1.415 . S
C737 C736 1.355 . S
C737 C739 1.419 . S
C738 C736 1.415 . S
C738 C743 1.425 . S
C738 C745 1.409 . S
C739 H731 0.930 . S
C739 C737 1.419 . S
C739 C740 1.362 . S
C740 H732 0.930 . S
C740 C739 1.362 . S
C740 C743 1.409 . S
C741 H733 0.930 . S
C741 C742 1.355 . S
C741 C743 1.415 . S
C742 C741 1.355 . S
C742 C744 1.419 . S
C743 C738 1.425 . S
C743 C740 1.409 . S
C743 C741 1.415 . S
C744 H734 0.930 . S
C744 C742 1.419 . S
C744 C745 1.362 . S
C745 H735 0.930 . S
C745 C738 1.409 . S
C745 C744 1.362 . S
H746 C752 0.930 . S
H747 C755 0.930 . S
H748 C756 0.930 . S
H749 C757 0.930 . S
H750 C760 0.930 . S
H751 C761 0.930 . S
C752 H746 0.930 . S
C752 C753 1.355 . S
C752 C754 1.415 . S
C753 C752 1.355 . S
C753 C755 1.419 . S
C754 C752 1.415 . S
C754 C759 1.425 . S
C754 C761 1.409 . S
C755 H747 0.930 . S
C755 C753 1.419 . S
C755 C756 1.362 . S
C756 H748 0.930 . S
C756 C755 1.362 . S
C756 C759 1.409 . S
C757 H749 0.930 . S
C757 C758 1.355 . S
C757 C759 1.415 . S
C758 C757 1.355 . S
C758 C760 1.419 . S
C759 C754 1.425 . S
C759 C756 1.409 . S
C759 C757 1.415 . S
C760 H750 0.930 . S
C760 C758 1.419 . S
C760 C761 1.362 . S
C761 H751 0.930 . S
C761 C754 1.409 . S
C761 C760 1.362 . S
H762 C768 0.930 . S
H763 C771 0.930 . S
H764 C772 0.930 . S
H765 C773 0.930 . S
H766 C776 0.930 . S
H767 C777 0.930 . S
C768 H762 0.930 . S
C768 C769 1.355 . S
C768 C770 1.415 . S
C769 C768 1.355 . S
C769 C771 1.419 . S
C770 C768 1.415 . S
C770 C775 1.425 . S
C770 C777 1.409 . S
C771 H763 0.930 . S
C771 C769 1.419 . S
C771 C772 1.362 . S
C772 H764 0.930 . S
C772 C771 1.362 . S
C772 C775 1.409 . S
C773 H765 0.930 . S
C773 C774 1.355 . S
C773 C775 1.415 . S
C774 C773 1.355 . S
C774 C776 1.419 . S
C775 C770 1.425 . S
C775 C772 1.409 . S
C775 C773 1.415 . S
C776 H766 0.930 . S
C776 C774 1.419 . S
C776 C777 1.362 . S
C777 H767 0.930 . S
C777 C770 1.409 . S
C777 C776 1.362 . S
H778 C784 0.930 . S
H779 C787 0.930 . S
H780 C788 0.930 . S
H781 C789 0.930 . S
H782 C792 0.930 . S
H783 C793 0.930 . S
C784 H778 0.930 . S
C784 C785 1.355 . S
C784 C786 1.415 . S
C785 C784 1.355 . S
C785 C787 1.419 . S
C786 C784 1.415 . S
C786 C791 1.425 . S
C786 C793 1.409 . S
C787 H779 0.930 . S
C787 C785 1.419 . S
C787 C788 1.362 . S
C788 H780 0.930 . S
C788 C787 1.362 . S
C788 C791 1.409 . S
C789 H781 0.930 . S
C789 C790 1.355 . S
C789 C791 1.415 . S
C790 C789 1.355 . S
C790 C792 1.419 . S
C791 C786 1.425 . S
C791 C788 1.409 . S
C791 C789 1.415 . S
C792 H782 0.930 . S
C792 C790 1.419 . S
C792 C793 1.362 . S
C793 H783 0.930 . S
C793 C786 1.409 . S
C793 C792 1.362 . S
H794 C800 0.930 . S
H795 C803 0.930 . S
H796 C804 0.930 . S
H797 C805 0.930 . S
H798 C808 0.930 . S
H799 C809 0.930 . S
C800 H794 0.930 . S
C800 C801 1.355 . S
C800 C802 1.415 . S
C801 C800 1.355 . S
C801 C803 1.419 . S
C802 C800 1.415 . S
C802 C807 1.425 . S
C802 C809 1.409 . S
C803 H795 0.930 . S
C803 C801 1.419 . S
C803 C804 1.362 . S
C804 H796 0.930 . S
C804 C803 1.362 . S
C804 C807 1.409 . S
C805 H797 0.930 . S
C805 C806 1.355 . S
C805 C807 1.415 . S
C806 C805 1.355 . S
C806 C808 1.419 . S
C807 C802 1.425 . S
C807 C804 1.409 . S
C807 C805 1.415 . S
C808 H798 0.930 . S
C808 C806 1.419 . S
C808 C809 1.362 . S
C809 H799 0.930 . S
C809 C802 1.409 . S
C809 C808 1.362 . S
H810 C816 0.930 . S
H811 C819 0.930 . S
H812 C820 0.930 . S
H813 C821 0.930 . S
H814 C824 0.930 . S
H815 C825 0.930 . S
C816 H810 0.930 . S
C816 C817 1.355 . S
C816 C818 1.415 . S
C817 C816 1.355 . S
C817 C819 1.419 . S
C818 C816 1.415 . S
C818 C823 1.425 . S
C818 C825 1.409 . S
C819 H811 0.930 . S
C819 C817 1.419 . S
C819 C820 1.362 . S
C820 H812 0.930 . S
C820 C819 1.362 . S
C820 C823 1.409 . S
C821 H813 0.930 . S
C821 C822 1.355 . S
C821 C823 1.415 . S
C822 C821 1.355 . S
C822 C824 1.419 . S
C823 C818 1.425 . S
C823 C820 1.409 . S
C823 C821 1.415 . S
C824 H814 0.930 . S
C824 C822 1.419 . S
C824 C825 1.362 . S
C825 H815 0.930 . S
C825 C818 1.409 . S
C825 C824 1.362 . S
H826 C832 0.930 . S
H827 C835 0.930 . S
H828 C836 0.930 . S
H829 C837 0.930 1_545 S
H830 C840 0.913 1_554 S
H831 C841 0.930 1_554 S
C832 H826 0.930 . S
C832 C833 1.355 . S
C832 C834 1.415 . S
C833 C832 1.355 . S
C833 C835 1.419 . S
C834 C832 1.415 . S
C834 C839 1.425 . S
C834 C841 1.409 . S
C835 H827 0.930 . S
C835 C833 1.419 . S
C835 C836 1.362 . S
C836 H828 0.930 . S
C836 C835 1.362 . S
C836 C839 1.409 . S
C837 H829 0.930 1_565 S
C837 C838 1.355 . S
C837 C839 1.415 . S
C838 C837 1.355 . S
C838 C840 1.428 . S
C839 C834 1.425 . S
C839 C836 1.409 . S
C839 C837 1.415 . S
C840 H830 0.913 1_556 S
C840 C838 1.428 . S
C840 C841 1.370 . S
C841 H831 0.930 1_556 S
C841 C834 1.409 . S
C841 C840 1.370 . S
H842 C848 0.930 . S
H843 C851 0.930 . S
H844 C852 0.930 . S
H845 C853 0.930 . S
H846 C856 0.930 . S
H847 C857 0.930 . S
C848 H842 0.930 . S
C848 C849 1.355 . S
C848 C850 1.415 . S
C849 C848 1.355 . S
C849 C851 1.419 . S
C850 C848 1.415 . S
C850 C855 1.425 . S
C850 C857 1.409 . S
C851 H843 0.930 . S
C851 C849 1.419 . S
C851 C852 1.362 . S
C852 H844 0.930 . S
C852 C851 1.362 . S
C852 C855 1.409 . S
C853 H845 0.930 . S
C853 C854 1.355 . S
C853 C855 1.415 . S
C854 C853 1.355 . S
C854 C856 1.419 . S
C855 C850 1.425 . S
C855 C852 1.409 . S
C855 C853 1.415 . S
C856 H846 0.930 . S
C856 C854 1.419 . S
C856 C857 1.362 . S
C857 H847 0.930 . S
C857 C850 1.409 . S
C857 C856 1.362 . S
H858 C864 0.930 . S
H859 C867 0.930 . S
H860 C868 0.930 . S
H861 C869 0.930 . S
H862 C872 0.930 . S
H863 C873 0.930 . S
C864 H858 0.930 . S
C864 C865 1.355 . S
C864 C866 1.415 . S
C865 C864 1.355 . S
C865 C867 1.419 . S
C866 C864 1.415 . S
C866 C871 1.425 . S
C866 C873 1.409 . S
C867 H859 0.930 . S
C867 C865 1.419 . S
C867 C868 1.362 . S
C868 H860 0.930 . S
C868 C867 1.362 . S
C868 C871 1.409 . S
C869 H861 0.930 . S
C869 C870 1.355 . S
C869 C871 1.415 . S
C870 C869 1.355 . S
C870 C872 1.419 . S
C871 C866 1.425 . S
C871 C868 1.409 . S
C871 C869 1.415 . S
C872 H862 0.930 . S
C872 C870 1.419 . S
C872 C873 1.362 . S
C873 H863 0.930 . S
C873 C866 1.409 . S
C873 C872 1.362 . S
H874 C880 0.930 . S
H875 C883 0.930 . S
H876 C884 0.930 . S
H877 C885 0.930 . S
H878 C888 0.930 . S
H879 C889 0.930 . S
C880 H874 0.930 . S
C880 C881 1.355 . S
C880 C882 1.415 . S
C881 C880 1.355 . S
C881 C883 1.419 . S
C882 C880 1.415 . S
C882 C887 1.425 . S
C882 C889 1.409 . S
C883 H875 0.930 . S
C883 C881 1.419 . S
C883 C884 1.362 . S
C884 H876 0.930 . S
C884 C883 1.362 . S
C884 C887 1.409 . S
C885 H877 0.930 . S
C885 C886 1.355 . S
C885 C887 1.415 . S
C886 C885 1.355 . S
C886 C888 1.419 . S
C887 C882 1.425 . S
C887 C884 1.409 . S
C887 C885 1.415 . S
C888 H878 0.930 . S
C888 C886 1.419 . S
C888 C889 1.362 . S
C889 H879 0.930 . S
C889 C882 1.409 . S
C889 C888 1.362 . S
H890 C896 0.930 . S
H891 C899 0.930 . S
H892 C900 0.930 . S
H893 C901 0.930 . S
H894 C904 0.930 . S
H895 C905 0.930 . S
C896 H890 0.930 . S
C896 C897 1.355 . S
C896 C898 1.415 . S
C897 C896 1.355 . S
C897 C899 1.419 . S
C898 C896 1.415 . S
C898 C903 1.425 . S
C898 C905 1.409 . S
C899 H891 0.930 . S
C899 C897 1.419 . S
C899 C900 1.362 . S
C900 H892 0.930 . S
C900 C899 1.362 . S
C900 C903 1.409 . S
C901 H893 0.930 . S
C901 C902 1.355 . S
C901 C903 1.415 . S
C902 C901 1.355 . S
C902 C904 1.419 . S
C903 C898 1.425 . S
C903 C900 1.409 . S
C903 C901 1.415 . S
C904 H894 0.930 . S
C904 C902 1.419 . S
C904 C905 1.362 . S
C905 H895 0.930 . S
C905 C898 1.409 . S
C905 C904 1.362 . S
H906 C912 0.930 . S
H907 C915 0.930 . S
H908 C916 0.930 . S
H909 C917 0.930 . S
H910 C920 0.930 . S
H911 C921 0.930 . S
C912 H906 0.930 . S
C912 C913 1.355 . S
C912 C914 1.415 . S
C913 C912 1.355 . S
C913 C915 1.419 . S
C914 C912 1.415 . S
C914 C919 1.425 . S
C914 C921 1.409 . S
C915 H907 0.930 . S
C915 C913 1.419 . S
C915 C916 1.362 . S
C916 H908 0.930 . S
C916 C915 1.362 . S
C916 C919 1.409 . S
C917 H909 0.930 . S
C917 C918 1.355 . S
C917 C919 1.415 . S
C918 C917 1.355 . S
C918 C920 1.419 . S
C919 C914 1.425 . S
C919 C916 1.409 . S
C919 C917 1.415 . S
C920 H910 0.930 . S
C920 C918 1.419 . S
C920 C921 1.362 . S
C921 H911 0.930 . S
C921 C914 1.409 . S
C921 C920 1.362 . S
H922 C928 0.930 . S
H923 C931 0.930 . S
H924 C932 0.930 . S
H925 C933 0.930 . S
H926 C936 0.930 . S
H927 C937 0.930 . S
C928 H922 0.930 . S
C928 C929 1.355 . S
C928 C930 1.415 . S
C929 C928 1.355 . S
C929 C931 1.419 . S
C930 C928 1.415 . S
C930 C935 1.425 . S
C930 C937 1.409 . S
C931 H923 0.930 . S
C931 C929 1.419 . S
C931 C932 1.362 . S
C932 H924 0.930 . S
C932 C931 1.362 . S
C932 C935 1.409 . S
C933 H925 0.930 . S
C933 C934 1.355 . S
C933 C935 1.415 . S
C934 C933 1.355 . S
C934 C936 1.419 . S
C935 C930 1.425 . S
C935 C932 1.409 . S
C935 C933 1.415 . S
C936 H926 0.930 . S
C936 C934 1.419 . S
C936 C937 1.362 . S
C937 H927 0.930 . S
C937 C930 1.409 . S
C937 C936 1.362 . S
H938 C944 0.930 . S
H939 C947 0.930 . S
H940 C948 0.930 . S
H941 C949 0.930 . S
H942 C952 0.930 . S
H943 C953 0.930 . S
C944 H938 0.930 . S
C944 C945 1.355 . S
C944 C946 1.415 . S
C945 C944 1.355 . S
C945 C947 1.419 . S
C946 C944 1.415 . S
C946 C951 1.425 . S
C946 C953 1.409 . S
C947 H939 0.930 . S
C947 C945 1.419 . S
C947 C948 1.362 . S
C948 H940 0.930 . S
C948 C947 1.362 . S
C948 C951 1.409 . S
C949 H941 0.930 . S
C949 C950 1.355 . S
C949 C951 1.415 . S
C950 C949 1.355 . S
C950 C952 1.419 . S
C951 C946 1.425 . S
C951 C948 1.409 . S
C951 C949 1.415 . S
C952 H942 0.930 . S
C952 C950 1.419 . S
C952 C953 1.362 . S
C953 H943 0.930 . S
C953 C946 1.409 . S
C953 C952 1.362 . S
H954 C960 0.930 . S
H955 C963 0.930 . S
H956 C964 0.930 . S
H957 C965 0.930 . S
H958 C968 0.930 . S
H959 C969 0.930 . S
C960 H954 0.930 . S
C960 C961 1.355 . S
C960 C962 1.415 . S
C961 C960 1.355 . S
C961 C963 1.419 . S
C962 C960 1.415 . S
C962 C967 1.425 . S
C962 C969 1.409 . S
C963 H955 0.930 . S
C963 C961 1.419 . S
C963 C964 1.362 . S
C964 H956 0.930 . S
C964 C963 1.362 . S
C964 C967 1.409 . S
C965 H957 0.930 . S
C965 C966 1.355 . S
C965 C967 1.415 . S
C966 C965 1.355 . S
C966 C968 1.419 . S
C967 C962 1.425 . S
C967 C964 1.409 . S
C967 C965 1.415 . S
C968 H958 0.930 . S
C968 C966 1.419 . S
C968 C969 1.362 . S
C969 H959 0.930 . S
C969 C962 1.409 . S
C969 C968 1.362 . S
H970 C976 0.930 . S
H971 C979 0.930 . S
H972 C980 0.930 . S
H973 C981 0.930 . S
H974 C984 0.930 . S
H975 C985 0.930 . S
C976 H970 0.930 . S
C976 C977 1.355 . S
C976 C978 1.415 . S
C977 C976 1.355 . S
C977 C979 1.419 . S
C978 C976 1.415 . S
C978 C983 1.425 . S
C978 C985 1.409 . S
C979 H971 0.930 . S
C979 C977 1.419 . S
C979 C980 1.362 . S
C980 H972 0.930 . S
C980 C979 1.362 . S
C980 C983 1.409 . S
C981 H973 0.930 . S
C981 C982 1.355 . S
C981 C983 1.415 . S
C982 C981 1.355 . S
C982 C984 1.419 . S
C983 C978 1.425 . S
C983 C980 1.409 . S
C983 C981 1.415 . S
C984 H974 0.930 . S
C984 C982 1.419 . S
C984 C985 1.362 . S
C985 H975 0.930 . S
C985 C978 1.409 . S
C985 C984 1.362 . S
H986 C992 0.930 . S
H987 C995 0.930 . S
H988 C996 0.930 . S
H989 C997 0.930 . S
H990 C1000 0.930 . S
H991 C1001 0.930 . S
C992 H986 0.930 . S
C992 C993 1.355 . S
C992 C994 1.415 . S
C993 C992 1.355 . S
C993 C995 1.419 . S
C994 C992 1.415 . S
C994 C999 1.425 . S
C994 C1001 1.409 . S
C995 H987 0.930 . S
C995 C993 1.419 . S
C995 C996 1.362 . S
C996 H988 0.930 . S
C996 C995 1.362 . S
C996 C999 1.409 . S
C997 H989 0.930 . S
C997 C998 1.355 . S
C997 C999 1.415 . S
C998 C997 1.355 . S
C998 C1000 1.419 . S
C999 C994 1.425 . S
C999 C996 1.409 . S
C999 C997 1.415 . S
C1000 H990 0.930 . S
C1000 C998 1.419 . S
C1000 C1001 1.362 . S
C1001 H991 0.930 . S
C1001 C994 1.409 . S
C1001 C1000 1.362 . S
H1002 C1008 0.930 . S
H1003 C1011 0.930 . S
H1004 C1012 0.930 . S
H1005 C1013 0.930 . S
H1006 C1016 0.930 . S
H1007 C1017 0.930 . S
C1008 H1002 0.930 . S
C1008 C1009 1.355 . S
C1008 C1010 1.415 . S
C1009 C1008 1.355 . S
C1009 C1011 1.419 . S
C1010 C1008 1.415 . S
C1010 C1015 1.425 . S
C1010 C1017 1.409 . S
C1011 H1003 0.930 . S
C1011 C1009 1.419 . S
C1011 C1012 1.362 . S
C1012 H1004 0.930 . S
C1012 C1011 1.362 . S
C1012 C1015 1.409 . S
C1013 H1005 0.930 . S
C1013 C1014 1.355 . S
C1013 C1015 1.415 . S
C1014 C1013 1.355 . S
C1014 C1016 1.419 . S
C1015 C1010 1.425 . S
C1015 C1012 1.409 . S
C1015 C1013 1.415 . S
C1016 H1006 0.930 . S
C1016 C1014 1.419 . S
C1016 C1017 1.362 . S
C1017 H1007 0.930 . S
C1017 C1010 1.409 . S
C1017 C1016 1.362 . S
H1018 C1024 0.930 . S
H1019 C1027 0.930 . S
H1020 C1028 0.930 . S
H1021 C1029 0.930 . S
H1022 C1032 0.930 . S
H1023 C1033 0.930 . S
C1024 H1018 0.930 . S
C1024 C1025 1.355 . S
C1024 C1026 1.415 . S
C1025 C1024 1.355 . S
C1025 C1027 1.419 . S
C1026 C1024 1.415 . S
C1026 C1031 1.425 . S
C1026 C1033 1.409 . S
C1027 H1019 0.930 . S
C1027 C1025 1.419 . S
C1027 C1028 1.362 . S
C1028 H1020 0.930 . S
C1028 C1027 1.362 . S
C1028 C1031 1.409 . S
C1029 H1021 0.930 . S
C1029 C1030 1.355 . S
C1029 C1031 1.415 . S
C1030 C1029 1.355 . S
C1030 C1032 1.419 . S
C1031 C1026 1.425 . S
C1031 C1028 1.409 . S
C1031 C1029 1.415 . S
C1032 H1022 0.930 . S
C1032 C1030 1.419 . S
C1032 C1033 1.362 . S
C1033 H1023 0.930 . S
C1033 C1026 1.409 . S
C1033 C1032 1.362 . S
H1034 C1040 0.930 . S
H1035 C1043 0.930 . S
H1036 C1044 0.930 . S
H1037 C1045 0.930 . S
H1038 C1048 0.930 . S
H1039 C1049 0.930 . S
C1040 H1034 0.930 . S
C1040 C1041 1.355 . S
C1040 C1042 1.415 . S
C1041 C1040 1.355 . S
C1041 C1043 1.419 . S
C1042 C1040 1.415 . S
C1042 C1047 1.425 . S
C1042 C1049 1.409 . S
C1043 H1035 0.930 . S
C1043 C1041 1.419 . S
C1043 C1044 1.362 . S
C1044 H1036 0.930 . S
C1044 C1043 1.362 . S
C1044 C1047 1.409 . S
C1045 H1037 0.930 . S
C1045 C1046 1.355 . S
C1045 C1047 1.415 . S
C1046 C1045 1.355 . S
C1046 C1048 1.419 . S
C1047 C1042 1.425 . S
C1047 C1044 1.409 . S
C1047 C1045 1.415 . S
C1048 H1038 0.930 . S
C1048 C1046 1.419 . S
C1048 C1049 1.362 . S
C1049 H1039 0.930 . S
C1049 C1042 1.409 . S
C1049 C1048 1.362 . S
H1050 C1056 0.930 . S
H1051 C1059 0.930 . S
H1052 C1060 0.930 . S
H1053 C1061 0.930 . S
H1054 C1064 0.930 . S
H1055 C1065 0.930 . S
C1056 H1050 0.930 . S
C1056 C1057 1.355 . S
C1056 C1058 1.415 . S
C1057 C1056 1.355 . S
C1057 C1059 1.419 . S
C1058 C1056 1.415 . S
C1058 C1063 1.425 . S
C1058 C1065 1.409 . S
C1059 H1051 0.930 . S
C1059 C1057 1.419 . S
C1059 C1060 1.362 . S
C1060 H1052 0.930 . S
C1060 C1059 1.362 . S
C1060 C1063 1.409 . S
C1061 H1053 0.930 . S
C1061 C1062 1.355 . S
C1061 C1063 1.415 . S
C1062 C1061 1.355 . S
C1062 C1064 1.419 . S
C1063 C1058 1.425 . S
C1063 C1060 1.409 . S
C1063 C1061 1.415 . S
C1064 H1054 0.930 . S
C1064 C1062 1.419 . S
C1064 C1065 1.362 . S
C1065 H1055 0.930 . S
C1065 C1058 1.409 . S
C1065 C1064 1.362 . S
H1066 C1072 0.930 . S
H1067 C1075 0.930 . S
H1068 C1076 0.930 . S
H1069 C1077 0.930 . S
H1070 C1080 0.930 . S
H1071 C1081 0.930 . S
C1072 H1066 0.930 . S
C1072 C1073 1.355 . S
C1072 C1074 1.415 . S
C1073 C1072 1.355 . S
C1073 C1075 1.419 . S
C1074 C1072 1.415 . S
C1074 C1079 1.425 . S
C1074 C1081 1.409 . S
C1075 H1067 0.930 . S
C1075 C1073 1.419 . S
C1075 C1076 1.362 . S
C1076 H1068 0.930 . S
C1076 C1075 1.362 . S
C1076 C1079 1.409 . S
C1077 H1069 0.930 . S
C1077 C1078 1.355 . S
C1077 C1079 1.415 . S
C1078 C1077 1.355 . S
C1078 C1080 1.419 . S
C1079 C1074 1.425 . S
C1079 C1076 1.409 . S
C1079 C1077 1.415 . S
C1080 H1070 0.930 . S
C1080 C1078 1.419 . S
C1080 C1081 1.362 . S
C1081 H1071 0.930 . S
C1081 C1074 1.409 . S
C1081 C1080 1.362 . S
H1082 C1088 0.930 . S
H1083 C1091 0.930 . S
H1084 C1092 0.930 . S
H1085 C1093 0.930 . S
H1086 C1096 0.930 . S
H1087 C1097 0.930 . S
C1088 H1082 0.930 . S
C1088 C1089 1.355 . S
C1088 C1090 1.415 . S
C1089 C1088 1.355 . S
C1089 C1091 1.419 . S
C1090 C1088 1.415 . S
C1090 C1095 1.425 . S
C1090 C1097 1.409 . S
C1091 H1083 0.930 . S
C1091 C1089 1.419 . S
C1091 C1092 1.362 . S
C1092 H1084 0.930 . S
C1092 C1091 1.362 . S
C1092 C1095 1.409 . S
C1093 H1085 0.930 . S
C1093 C1094 1.355 . S
C1093 C1095 1.415 . S
C1094 C1093 1.355 . S
C1094 C1096 1.419 . S
C1095 C1090 1.425 . S
C1095 C1092 1.409 . S
C1095 C1093 1.415 . S
C1096 H1086 0.930 . S
C1096 C1094 1.419 . S
C1096 C1097 1.362 . S
C1097 H1087 0.930 . S
C1097 C1090 1.409 . S
C1097 C1096 1.362 . S
H1098 C1104 0.930 . S
H1099 C1107 0.930 . S
H1100 C1108 0.930 . S
H1101 C1109 0.930 . S
H1102 C1112 0.930 . S
H1103 C1113 0.930 . S
C1104 H1098 0.930 . S
C1104 C1105 1.355 . S
C1104 C1106 1.415 . S
C1105 C1104 1.355 . S
C1105 C1107 1.419 . S
C1106 C1104 1.415 . S
C1106 C1111 1.425 . S
C1106 C1113 1.409 . S
C1107 H1099 0.930 . S
C1107 C1105 1.419 . S
C1107 C1108 1.362 . S
C1108 H1100 0.930 . S
C1108 C1107 1.362 . S
C1108 C1111 1.409 . S
C1109 H1101 0.930 . S
C1109 C1110 1.355 . S
C1109 C1111 1.415 . S
C1110 C1109 1.355 . S
C1110 C1112 1.419 . S
C1111 C1106 1.425 . S
C1111 C1108 1.409 . S
C1111 C1109 1.415 . S
C1112 H1102 0.930 . S
C1112 C1110 1.419 . S
C1112 C1113 1.362 . S
C1113 H1103 0.930 . S
C1113 C1106 1.409 . S
C1113 C1112 1.362 . S
H1114 C1120 0.930 . S
H1115 C1123 0.930 . S
H1116 C1124 0.930 . S
H1117 C1125 0.930 . S
H1118 C1128 0.930 . S
H1119 C1129 0.930 . S
C1120 H1114 0.930 . S
C1120 C1121 1.355 . S
C1120 C1122 1.415 . S
C1121 C1120 1.355 . S
C1121 C1123 1.419 . S
C1122 C1120 1.415 . S
C1122 C1127 1.425 . S
C1122 C1129 1.409 . S
C1123 H1115 0.930 . S
C1123 C1121 1.419 . S
C1123 C1124 1.362 . S
C1124 H1116 0.930 . S
C1124 C1123 1.362 . S
C1124 C1127 1.409 . S
C1125 H1117 0.930 . S
C1125 C1126 1.355 . S
C1125 C1127 1.415 . S
C1126 C1125 1.355 . S
C1126 C1128 1.419 . S
C1127 C1122 1.425 . S
C1127 C1124 1.409 . S
C1127 C1125 1.415 . S
C1128 H1118 0.930 . S
C1128 C1126 1.419 . S
C1128 C1129 1.362 . S
C1129 H1119 0.930 . S
C1129 C1122 1.409 . S
C1129 C1128 1.362 . S
H1130 C1136 0.930 . S
H1131 C1139 0.930 . S
H1132 C1140 0.930 . S
H1133 C1141 0.930 . S
H1134 C1144 0.930 . S
H1135 C1145 0.930 . S
C1136 H1130 0.930 . S
C1136 C1137 1.355 . S
C1136 C1138 1.415 . S
C1137 C1136 1.355 . S
C1137 C1139 1.419 . S
C1138 C1136 1.415 . S
C1138 C1143 1.425 . S
C1138 C1145 1.409 . S
C1139 H1131 0.930 . S
C1139 C1137 1.419 . S
C1139 C1140 1.362 . S
C1140 H1132 0.930 . S
C1140 C1139 1.362 . S
C1140 C1143 1.409 . S
C1141 H1133 0.930 . S
C1141 C1142 1.355 . S
C1141 C1143 1.415 . S
C1142 C1141 1.355 . S
C1142 C1144 1.419 . S
C1143 C1138 1.425 . S
C1143 C1140 1.409 . S
C1143 C1141 1.415 . S
C1144 H1134 0.930 . S
C1144 C1142 1.419 . S
C1144 C1145 1.362 . S
C1145 H1135 0.930 . S
C1145 C1138 1.409 . S
C1145 C1144 1.362 . S
H1146 C1152 0.930 . S
H1147 C1155 0.930 . S
H1148 C1156 0.930 . S
H1149 C1157 0.930 . S
H1150 C1160 0.930 . S
H1151 C1161 0.930 . S
C1152 H1146 0.930 . S
C1152 C1153 1.355 . S
C1152 C1154 1.415 . S
C1153 C1152 1.355 . S
C1153 C1155 1.419 . S
C1154 C1152 1.415 . S
C1154 C1159 1.425 . S
C1154 C1161 1.409 . S
C1155 H1147 0.930 . S
C1155 C1153 1.419 . S
C1155 C1156 1.362 . S
C1156 H1148 0.930 . S
C1156 C1155 1.362 . S
C1156 C1159 1.409 . S
C1157 H1149 0.930 . S
C1157 C1158 1.355 . S
C1157 C1159 1.415 . S
C1158 C1157 1.355 . S
C1158 C1160 1.419 . S
C1159 C1154 1.425 . S
C1159 C1156 1.409 . S
C1159 C1157 1.415 . S
C1160 H1150 0.930 . S
C1160 C1158 1.419 . S
C1160 C1161 1.362 . S
C1161 H1151 0.930 . S
C1161 C1154 1.409 . S
C1161 C1160 1.362 . S
H1162 C1168 0.930 . S
H1163 C1171 0.930 . S
H1164 C1172 0.930 . S
H1165 C1173 0.930 . S
H1166 C1176 0.930 . S
H1167 C1177 0.930 . S
C1168 H1162 0.930 . S
C1168 C1169 1.355 . S
C1168 C1170 1.415 . S
C1169 C1168 1.355 . S
C1169 C1171 1.419 . S
C1170 C1168 1.415 . S
C1170 C1175 1.425 . S
C1170 C1177 1.409 . S
C1171 H1163 0.930 . S
C1171 C1169 1.419 . S
C1171 C1172 1.362 . S
C1172 H1164 0.930 . S
C1172 C1171 1.362 . S
C1172 C1175 1.409 . S
C1173 H1165 0.930 . S
C1173 C1174 1.355 . S
C1173 C1175 1.415 . S
C1174 C1173 1.355 . S
C1174 C1176 1.419 . S
C1175 C1170 1.425 . S
C1175 C1172 1.409 . S
C1175 C1173 1.415 . S
C1176 H1166 0.930 . S
C1176 C1174 1.419 . S
C1176 C1177 1.362 . S
C1177 H1167 0.930 . S
C1177 C1170 1.409 . S
C1177 C1176 1.362 . S
H1178 C1184 0.930 . S
H1179 C1187 0.930 . S
H1180 C1188 0.930 . S
H1181 C1189 0.930 . S
H1182 C1192 0.930 . S
H1183 C1193 0.930 . S
C1184 H1178 0.930 . S
C1184 C1185 1.355 . S
C1184 C1186 1.415 . S
C1185 C1184 1.355 . S
C1185 C1187 1.419 . S
C1186 C1184 1.415 . S
C1186 C1191 1.425 . S
C1186 C1193 1.409 . S
C1187 H1179 0.930 . S
C1187 C1185 1.419 . S
C1187 C1188 1.362 . S
C1188 H1180 0.930 . S
C1188 C1187 1.362 . S
C1188 C1191 1.409 . S
C1189 H1181 0.930 . S
C1189 C1190 1.355 . S
C1189 C1191 1.415 . S
C1190 C1189 1.355 . S
C1190 C1192 1.419 . S
C1191 C1186 1.425 . S
C1191 C1188 1.409 . S
C1191 C1189 1.415 . S
C1192 H1182 0.930 . S
C1192 C1190 1.419 . S
C1192 C1193 1.362 . S
C1193 H1183 0.930 . S
C1193 C1186 1.409 . S
C1193 C1192 1.362 . S
H1194 C1200 0.930 . S
H1195 C1203 0.930 . S
H1196 C1204 0.930 . S
H1197 C1205 0.930 . S
H1198 C1208 0.930 . S
H1199 C1209 0.930 . S
C1200 H1194 0.930 . S
C1200 C1201 1.355 . S
C1200 C1202 1.415 . S
C1201 C1200 1.355 . S
C1201 C1203 1.419 . S
C1202 C1200 1.415 . S
C1202 C1207 1.425 . S
C1202 C1209 1.409 . S
C1203 H1195 0.930 . S
C1203 C1201 1.419 . S
C1203 C1204 1.362 . S
C1204 H1196 0.930 . S
C1204 C1203 1.362 . S
C1204 C1207 1.409 . S
C1205 H1197 0.930 . S
C1205 C1206 1.355 . S
C1205 C1207 1.415 . S
C1206 C1205 1.355 . S
C1206 C1208 1.419 . S
C1207 C1202 1.425 . S
C1207 C1204 1.409 . S
C1207 C1205 1.415 . S
C1208 H1198 0.930 . S
C1208 C1206 1.419 . S
C1208 C1209 1.362 . S
C1209 H1199 0.930 . S
C1209 C1202 1.409 . S
C1209 C1208 1.362 . S
H1210 C1216 0.930 . S
H1211 C1219 0.930 . S
H1212 C1220 0.930 . S
H1213 C1221 0.930 . S
H1214 C1224 0.930 . S
H1215 C1225 0.930 . S
C1216 H1210 0.930 . S
C1216 C1217 1.355 . S
C1216 C1218 1.415 . S
C1217 C1216 1.355 . S
C1217 C1219 1.419 . S
C1218 C1216 1.415 . S
C1218 C1223 1.425 . S
C1218 C1225 1.409 . S
C1219 H1211 0.930 . S
C1219 C1217 1.419 . S
C1219 C1220 1.362 . S
C1220 H1212 0.930 . S
C1220 C1219 1.362 . S
C1220 C1223 1.409 . S
C1221 H1213 0.930 . S
C1221 C1222 1.355 . S
C1221 C1223 1.415 . S
C1222 C1221 1.355 . S
C1222 C1224 1.419 . S
C1223 C1218 1.425 . S
C1223 C1220 1.409 . S
C1223 C1221 1.415 . S
C1224 H1214 0.930 . S
C1224 C1222 1.419 . S
C1224 C1225 1.362 . S
C1225 H1215 0.930 . S
C1225 C1218 1.409 . S
C1225 C1224 1.362 . S
H1226 C1232 0.930 . S
H1227 C1235 0.930 . S
H1228 C1236 0.930 . S
H1229 C1237 0.930 . S
H1230 C1240 0.930 . S
H1231 C1241 0.930 . S
C1232 H1226 0.930 . S
C1232 C1233 1.355 . S
C1232 C1234 1.415 . S
C1233 C1232 1.355 . S
C1233 C1235 1.419 . S
C1234 C1232 1.415 . S
C1234 C1239 1.425 . S
C1234 C1241 1.409 . S
C1235 H1227 0.930 . S
C1235 C1233 1.419 . S
C1235 C1236 1.362 . S
C1236 H1228 0.930 . S
C1236 C1235 1.362 . S
C1236 C1239 1.409 . S
C1237 H1229 0.930 . S
C1237 C1238 1.355 . S
C1237 C1239 1.415 . S
C1238 C1237 1.355 . S
C1238 C1240 1.419 . S
C1239 C1234 1.425 . S
C1239 C1236 1.409 . S
C1239 C1237 1.415 . S
C1240 H1230 0.930 . S
C1240 C1238 1.419 . S
C1240 C1241 1.362 . S
C1241 H1231 0.930 . S
C1241 C1234 1.409 . S
C1241 C1240 1.362 . S
H1242 C1248 0.930 . S
H1243 C1251 0.930 . S
H1244 C1252 0.930 . S
H1245 C1253 0.930 . S
H1246 C1256 0.930 . S
H1247 C1257 0.930 . S
C1248 H1242 0.930 . S
C1248 C1249 1.355 . S
C1248 C1250 1.415 . S
C1249 C1248 1.355 . S
C1249 C1251 1.419 . S
C1250 C1248 1.415 . S
C1250 C1255 1.425 . S
C1250 C1257 1.409 . S
C1251 H1243 0.930 . S
C1251 C1249 1.419 . S
C1251 C1252 1.362 . S
C1252 H1244 0.930 . S
C1252 C1251 1.362 . S
C1252 C1255 1.409 . S
C1253 H1245 0.930 . S
C1253 C1254 1.355 . S
C1253 C1255 1.415 . S
C1254 C1253 1.355 . S
C1254 C1256 1.419 . S
C1255 C1250 1.425 . S
C1255 C1252 1.409 . S
C1255 C1253 1.415 . S
C1256 H1246 0.930 . S
C1256 C1254 1.419 . S
C1256 C1257 1.362 . S
C1257 H1247 0.930 . S
C1257 C1250 1.409 . S
C1257 C1256 1.362 . S
H1258 C1264 0.930 . S
H1259 C1267 0.930 . S
H1260 C1268 0.930 . S
H1261 C1269 0.930 . S
H1262 C1272 0.930 . S
H1263 C1273 0.930 . S
C1264 H1258 0.930 . S
C1264 C1265 1.355 . S
C1264 C1266 1.415 . S
C1265 C1264 1.355 . S
C1265 C1267 1.419 . S
C1266 C1264 1.415 . S
C1266 C1271 1.425 . S
C1266 C1273 1.409 . S
C1267 H1259 0.930 . S
C1267 C1265 1.419 . S
C1267 C1268 1.362 . S
C1268 H1260 0.930 . S
C1268 C1267 1.362 . S
C1268 C1271 1.409 . S
C1269 H1261 0.930 . S
C1269 C1270 1.355 . S
C1269 C1271 1.415 . S
C1270 C1269 1.355 . S
C1270 C1272 1.419 . S
C1271 C1266 1.425 . S
C1271 C1268 1.409 . S
C1271 C1269 1.415 . S
C1272 H1262 0.930 . S
C1272 C1270 1.419 . S
C1272 C1273 1.362 . S
C1273 H1263 0.930 . S
C1273 C1266 1.409 . S
C1273 C1272 1.362 . S
C518 C331 1.631 . S
C513 C2 1.627 . S
C534 C321 0.575 . S
C529 C65 0.474 . S
C550 C322 1.307 . S
C545 C82 1.301 . S
C561 C145 0.814 . S
C566 C344 0.737 . S
C577 C164 0.534 . S
C582 C347 0.676 . S
C598 C330 1.300 . S
C593 C223 1.265 . S
C609 C244 1.018 . S
C614 C320 0.987 . S
C625 C282 1.593 . S
C630 C338 1.632 . S
C646 C351 3.196 . S
C641 C31 3.244 . S
C657 C60 1.904 . S
C662 C400 1.869 . S
C678 C378 3.349 . S
C673 C111 3.404 . S
C694 C392 1.413 . S
C689 C140 1.462 . S
C705 C162 1.512 . S
C710 C353 1.478 . S
C726 C406 1.256 . S
C721 C225 1.315 . S
C737 C242 1.989 . S
C742 C362 1.952 . S
C753 C311 2.435 . S
C758 C383 2.413 . S
C769 C4 0.998 . S
C774 C409 0.982 . S
C785 C191 1.258 . S
C790 C393 1.224 . S
C806 C352 2.939 . S
C801 C220 2.945 . S
C822 C384 0.852 . S
C817 C271 0.949 . S
C833 C284 1.561 . S
C838 C375 1.520 1_556 S
C849 C84 0.980 . S
C854 C382 1.005 . S
C870 C369 1.233 . S
C865 C143 1.286 . S
C881 C63 1.001 . S
C886 C361 0.965 . S
C897 C303 1.626 . S
C902 C424 1.590 . S
C913 C185 0.285 . S
C918 C414 0.503 . S
C934 C415 1.238 . S
C929 C202 1.306 . S
C950 C437 1.031 . S
C945 C265 0.954 . S
C961 C44 0.289 . S
C966 C440 0.450 . S
C982 C423 1.313 . S
C977 C103 1.308 . S
C993 C124 0.757 . S
C998 C413 0.811 . S
C1009 C23 1.627 . S
C1014 C431 1.632 . S
C1025 C305 1.536 . S
C1030 C444 1.557 . S
C1046 C493 1.195 . S
C1041 C180 1.245 . S
C1057 C231 2.942 . S
C1062 C471 2.941 . S
C1073 C260 0.983 . S
C1078 C485 0.989 . S
C1094 C446 1.041 . S
C1089 C42 1.037 . S
C1105 C105 0.980 . S
C1110 C499 0.994 . S
C1126 C455 1.197 . S
C1121 C122 1.263 . S
C1142 C476 1.062 . S
C1137 C25 1.008 . S
C1158 C502 2.418 . S
C1153 C300 2.470 . S
C1169 C71 1.889 . S
C1174 C486 1.862 . S
C1185 C100 3.401 . S
C1190 C445 3.349 . S
C1206 C477 1.411 . S
C1201 C151 1.460 . S
C1217 C20 3.236 . S
C1222 C468 3.210 . S
C1233 C204 1.324 . S
C1238 C475 1.245 . S
C1254 C462 1.936 . S
C1249 C263 2.004 . S
C1270 C454 1.476 . S
C1265 C183 1.499 . S
