# Generated by pormake.
# Topology pyr, (3,6)-cn, num edge types: 1
# Building blocks:
#     Node 0, Type 0, BuildingBlock: OLANEW_clean_sbu_2, # of connection points: 3
#     Node 1, Type 0, BuildingBlock: OLANEW_clean_sbu_2, # of connection points: 3
#     Node 2, Type 0, BuildingBlock: OLANEW_clean_sbu_2, # of connection points: 3
#     Node 3, Type 0, BuildingBlock: OLANEW_clean_sbu_2, # of connection points: 3
#     Node 4, Type 0, BuildingBlock: OLANEW_clean_sbu_2, # of connection points: 3
#     Node 5, Type 0, BuildingBlock: OLANEW_clean_sbu_2, # of connection points: 3
#     Node 6, Type 0, BuildingBlock: OLANEW_clean_sbu_2, # of connection points: 3
#     Node 7, Type 0, BuildingBlock: OLANEW_clean_sbu_2, # of connection points: 3
#     Node 8, Type 1, BuildingBlock: MIFKUJ_clean_sbu_0, # of connection points: 6
#     Node 9, Type 1, BuildingBlock: MIFKUJ_clean_sbu_0, # of connection points: 6
#     Node 10, Type 1, BuildingBlock: MIFKUJ_clean_sbu_0, # of connection points: 6
#     Node 11, Type 1, BuildingBlock: MIFKUJ_clean_sbu_0, # of connection points: 6
#     Edge 12, Type (0, 1), BuildingBlock: KIFKEQ_clean_linker_1, # of connection points: 2
#     Edge 13, Type (0, 1), BuildingBlock: KIFKEQ_clean_linker_1, # of connection points: 2
#     Edge 14, Type (0, 1), BuildingBlock: KIFKEQ_clean_linker_1, # of connection points: 2
#     Edge 15, Type (0, 1), BuildingBlock: KIFKEQ_clean_linker_1, # of connection points: 2
#     Edge 16, Type (0, 1), BuildingBlock: KIFKEQ_clean_linker_1, # of connection points: 2
#     Edge 17, Type (0, 1), BuildingBlock: KIFKEQ_clean_linker_1, # of connection points: 2
#     Edge 18, Type (0, 1), BuildingBlock: KIFKEQ_clean_linker_1, # of connection points: 2
#     Edge 19, Type (0, 1), BuildingBlock: KIFKEQ_clean_linker_1, # of connection points: 2
#     Edge 20, Type (0, 1), BuildingBlock: KIFKEQ_clean_linker_1, # of connection points: 2
#     Edge 21, Type (0, 1), BuildingBlock: KIFKEQ_clean_linker_1, # of connection points: 2
#     Edge 22, Type (0, 1), BuildingBlock: KIFKEQ_clean_linker_1, # of connection points: 2
#     Edge 23, Type (0, 1), BuildingBlock: KIFKEQ_clean_linker_1, # of connection points: 2
#     Edge 24, Type (0, 1), BuildingBlock: KIFKEQ_clean_linker_1, # of connection points: 2
#     Edge 25, Type (0, 1), BuildingBlock: KIFKEQ_clean_linker_1, # of connection points: 2
#     Edge 26, Type (0, 1), BuildingBlock: KIFKEQ_clean_linker_1, # of connection points: 2
#     Edge 27, Type (0, 1), BuildingBlock: KIFKEQ_clean_linker_1, # of connection points: 2
#     Edge 28, Type (0, 1), BuildingBlock: KIFKEQ_clean_linker_1, # of connection points: 2
#     Edge 29, Type (0, 1), BuildingBlock: KIFKEQ_clean_linker_1, # of connection points: 2
#     Edge 30, Type (0, 1), BuildingBlock: KIFKEQ_clean_linker_1, # of connection points: 2
#     Edge 31, Type (0, 1), BuildingBlock: KIFKEQ_clean_linker_1, # of connection points: 2
#     Edge 32, Type (0, 1), BuildingBlock: KIFKEQ_clean_linker_1, # of connection points: 2
#     Edge 33, Type (0, 1), BuildingBlock: KIFKEQ_clean_linker_1, # of connection points: 2
#     Edge 34, Type (0, 1), BuildingBlock: KIFKEQ_clean_linker_1, # of connection points: 2
#     Edge 35, Type (0, 1), BuildingBlock: KIFKEQ_clean_linker_1, # of connection points: 2
# Relax obj value: 0.072
# Max RMSD: 0.168
# Mean RMSD: 0.122
data_MOF--net-pyr--node1-OLANEW_clean_sbu_2--node2-MIFKUJ_clean_sbu_0--edge1-KIFKEQ_clean_linker_1
_symmetry_space_group_name_H-M    P1
_symmetry_Int_Tables_number       1
_symmetry_cell_setting            triclinic
loop_
_symmetry_equiv_pos_as_xyz
'x, y, z'
_cell_length_a     42.541306
_cell_length_b     38.471962
_cell_length_c     40.20351
_cell_angle_alpha  90.11094
_cell_angle_beta   87.082325
_cell_angle_gamma 101.46565
loop_
_atom_site_label
_atom_site_type_symbol
_atom_site_fract_x
_atom_site_fract_y
_atom_site_fract_z
_atom_type_partial_charge
O0 O 0.27612 0.21375 0.19803 0.0
Cd1 Cd 0.23615 0.23994 0.23022 0.0
O2 O 0.25554 0.16089 0.21899 0.0
Cd3 Cd 0.21738 0.17637 0.25034 0.0
O4 O 0.18281 0.16699 0.29285 0.0
C5 C 0.16576 0.1359 0.29497 0.0
O6 O 0.16892 0.11332 0.27105 0.0
C7 C 0.27655 0.18086 0.20028 0.0
C8 C 0.20218 0.28061 0.19379 0.0
O9 O 0.22961 0.29415 0.20493 0.0
O10 O 0.19101 0.24754 0.19929 0.0
O11 O 0.38966 0.91017 0.78153 0.0
Cd12 Cd 0.36416 0.89529 0.72904 0.0
O13 O 0.35493 0.94087 0.80222 0.0
Cd14 Cd 0.32542 0.93226 0.75897 0.0
O15 O 0.28885 0.93163 0.72272 0.0
C16 C 0.2631 0.90825 0.72494 0.0
O17 O 0.25961 0.88382 0.74838 0.0
C18 C 0.38024 0.92848 0.80495 0.0
C19 C 0.38873 0.83972 0.70016 0.0
O20 O 0.40265 0.87206 0.69465 0.0
O21 O 0.36283 0.83373 0.71879 0.0
O22 O 0.77627 0.4319 0.83238 0.0
Cd23 Cd 0.73097 0.40131 0.80109 0.0
O24 O 0.77097 0.38499 0.86495 0.0
Cd25 Cd 0.72565 0.35527 0.848 0.0
O26 O 0.68731 0.31356 0.86852 0.0
C27 C 0.68696 0.31183 0.90011 0.0
O28 O 0.70768 0.33528 0.91582 0.0
C29 C 0.7862 0.41566 0.85601 0.0
C30 C 0.69585 0.4432 0.76768 0.0
O31 O 0.6867 0.431 0.797 0.0
O32 O 0.72212 0.43656 0.75462 0.0
O33 O 0.88724 0.7246 0.367 0.0
Cd34 Cd 0.85794 0.66926 0.34359 0.0
O35 O 0.91346 0.70062 0.40349 0.0
Cd36 Cd 0.88304 0.6494 0.39419 0.0
O37 O 0.833 0.62451 0.40565 0.0
C38 C 0.81724 0.6447 0.42142 0.0
O39 O 0.83206 0.67698 0.42856 0.0
C40 C 0.9076 0.72808 0.3895 0.0
C41 C 0.89203 0.64052 0.29292 0.0
O42 O 0.87814 0.6664 0.2872 0.0
O43 O 0.89024 0.62835 0.32276 0.0
O44 O 0.85224 0.79155 0.77383 0.0
Cd45 Cd 0.82976 0.74904 0.81776 0.0
O46 O 0.83576 0.83274 0.8034 0.0
Cd47 Cd 0.82368 0.88345 0.81784 0.0
O48 O 0.79554 0.91526 0.84736 0.0
C49 C 0.76678 0.91448 0.83979 0.0
O50 O 0.75594 0.8964 0.81357 0.0
C51 C 0.84987 0.8238 0.77704 0.0
C52 C 0.87719 0.73166 0.85617 0.0
O53 O 0.8686 0.71429 0.82981 0.0
O54 O 0.86342 0.75744 0.86428 0.0
O55 O 0.68231 0.14441 0.34371 0.0
Cd56 Cd 0.69253 0.15251 0.40288 0.0
O57 O 0.6674 0.19579 0.34022 0.0
Cd58 Cd 0.67263 0.21171 0.39195 0.0
O59 O 0.65601 0.24736 0.42792 0.0
C60 C 0.63843 0.26656 0.41544 0.0
O61 O 0.63249 0.26297 0.38372 0.0
C62 C 0.67223 0.16735 0.32663 0.0
C63 C 0.74837 0.13113 0.42073 0.0
O64 O 0.72188 0.10869 0.41878 0.0
O65 O 0.74857 0.16373 0.41399 0.0
O66 O 0.4193 0.76138 0.24263 0.0
Cd67 Cd 0.38487 0.71507 0.2773 0.0
O68 O 0.38069 0.75958 0.20787 0.0
Cd69 Cd 0.34532 0.71594 0.2298 0.0
O70 O 0.2993 0.6819 0.22055 0.0
C71 C 0.29625 0.67073 0.19088 0.0
O72 O 0.32094 0.67868 0.16935 0.0
C73 C 0.40873 0.77305 0.21672 0.0
C74 C 0.41609 0.68452 0.3256 0.0
O75 O 0.40935 0.66863 0.29805 0.0
O76 O 0.40861 0.71492 0.33002 0.0
O77 O 0.16993 0.41629 0.77946 0.0
Cd78 Cd 0.18601 0.38675 0.72912 0.0
O79 O 0.17178 0.37055 0.81153 0.0
Cd80 Cd 0.17905 0.33615 0.76985 0.0
O81 O 0.16772 0.29387 0.73348 0.0
C82 C 0.14517 0.26798 0.74192 0.0
O83 O 0.13079 0.26797 0.77164 0.0
C84 C 0.16739 0.4021 0.80829 0.0
C85 C 0.24857 0.41559 0.70529 0.0
O86 O 0.22447 0.42699 0.69483 0.0
O87 O 0.24309 0.39057 0.72711 0.0
Zn88 Zn 0.04109 0.9967 0.56588 0.0
Zn89 Zn 0.98437 0.02344 0.54098 0.0
C90 C 0.07706 0.06067 0.58963 0.0
O91 O 0.09887 0.04955 0.57036 0.0
C92 C 0.95269 0.95759 0.51317 0.0
O93 O 0.92737 0.96739 0.52739 0.0
O94 O 0.07591 0.97182 0.5794 0.0
O95 O 0.99943 0.96593 0.58204 0.0
O96 O 0.97544 0.01097 0.59 0.0
C97 C 0.07457 0.96151 0.60956 0.0
O98 O 0.05019 0.96611 0.62933 0.0
O99 O 0.04861 0.0424 0.59158 0.0
C100 C 0.94346 0.04712 0.49549 0.0
O101 O 0.96162 0.03292 0.47419 0.0
O102 O 0.94885 0.04688 0.52631 0.0
O103 O 0.02589 0.05486 0.52406 0.0
O104 O 0.04829 0.00845 0.51719 0.0
O105 O 0.98019 0.97726 0.51587 0.0
C106 C 0.97852 0.97986 0.59784 0.0
C107 C 0.04532 0.03912 0.50785 0.0
Zn108 Zn 0.56656 0.02579 0.04011 0.0
Zn109 Zn 0.51739 0.06369 0.07227 0.0
C110 C 0.52109 0.98376 0.99977 0.0
O111 O 0.53402 0.95889 0.01268 0.0
C112 C 0.56321 0.10852 0.11307 0.0
O113 O 0.55727 0.13414 0.0943 0.0
O114 O 0.6022 0.00522 0.01774 0.0
O115 O 0.58366 0.07816 0.04139 0.0
O116 O 0.53652 0.08763 0.02901 0.0
C117 C 0.60984 0.01646 0.9881 0.0
O118 O 0.59485 0.03987 0.97575 0.0
O119 O 0.53072 0.01574 0.0084 0.0
C120 C 0.46506 0.07782 0.11399 0.0
O121 O 0.47572 0.05607 0.13376 0.0
O122 O 0.47916 0.08524 0.08552 0.0
O123 O 0.50256 0.0105 0.07555 0.0
O124 O 0.5507 -0.00022 0.08292 0.0
O125 O 0.54915 0.07677 0.10794 0.0
C126 C 0.56692 0.09685 0.02691 0.0
C127 C 0.52037 0.99144 0.088 0.0
Zn128 Zn 0.53688 0.52504 0.54904 0.0
Zn129 Zn 0.51852 0.58737 0.58838 0.0
C130 C 0.58751 0.55391 0.50312 0.0
O131 O 0.56703 0.53538 0.48325 0.0
C132 C 0.47112 0.54228 0.62964 0.0
O133 O 0.489 0.55943 0.65249 0.0
O134 O 0.53971 0.47681 0.53118 0.0
O135 O 0.536 0.51953 0.5993 0.0
O136 O 0.55753 0.57523 0.6082 0.0
C137 C 0.56373 0.46475 0.54022 0.0
O138 O 0.58308 0.4833 0.56111 0.0
O139 O 0.57949 0.55518 0.53394 0.0
C140 C 0.48013 0.63659 0.60332 0.0
O141 O 0.46279 0.61492 0.58291 0.0
O142 O 0.50742 0.63075 0.61047 0.0
O143 O 0.52139 0.59867 0.53975 0.0
O144 O 0.50277 0.54369 0.52472 0.0
O145 O 0.47964 0.54853 0.59911 0.0
C146 C 0.55489 0.54261 0.61534 0.0
C147 C 0.50632 0.5769 0.51954 0.0
Zn148 Zn 0.02381 0.55395 0.02629 0.0
Zn149 Zn 0.04311 0.49321 0.07153 0.0
C150 C 0.98597 0.52196 0.97509 0.0
O151 O 0.01052 0.54117 0.95808 0.0
C152 C 0.08588 0.53453 0.11235 0.0
O153 O 0.06622 0.51381 0.13356 0.0
O154 O 0.02207 0.60031 0.0038 0.0
O155 O 0.01344 0.56002 0.07549 0.0
O156 O 0.00455 0.50541 0.09626 0.0
C157 C 0.9966 0.61194 0.01088 0.0
O158 O 0.97605 0.59535 0.03386 0.0
O159 O 0.98641 0.52108 0.00671 0.0
C160 C 0.08212 0.44413 0.08021 0.0
O161 O 0.09754 0.46495 0.05628 0.0
O162 O 0.0552 0.44981 0.0918 0.0
O163 O 0.0418 0.48376 0.02236 0.0
O164 O 0.06448 0.53859 0.00941 0.0
O165 O 0.08047 0.53218 0.08152 0.0
C166 C 0.00116 0.53749 0.09805 0.0
C167 C 0.0611 0.50561 0.00367 0.0
H168 H 0.15676 0.17405 0.35119 0.0
H169 H 0.12845 0.07058 0.30734 0.0
H170 H 0.12694 0.152 0.40301 0.0
H171 H 0.09852 0.04885 0.3588 0.0
H172 H 0.08645 0.01104 0.46664 0.0
H173 H 0.11391 0.03611 0.41505 0.0
H174 H 0.07156 0.12873 0.42768 0.0
H175 H 0.04413 0.10376 0.47976 0.0
C176 C 0.14389 0.14676 0.35245 0.0
C177 C 0.14522 0.12398 0.32524 0.0
C178 C 0.12675 0.13419 0.38209 0.0
C179 C 0.11073 0.0986 0.38507 0.0
C180 C 0.11114 0.07624 0.35745 0.0
C181 C 0.12815 0.08878 0.32788 0.0
C182 C 0.08301 0.0368 0.45855 0.0
C183 C 0.063 0.05533 0.47728 0.0
C184 C 0.0986 0.05106 0.42884 0.0
C185 C 0.09463 0.08422 0.41715 0.0
C186 C 0.07516 0.10317 0.43616 0.0
C187 C 0.0594 0.08881 0.46591 0.0
H188 H 0.43343 0.90314 0.82001 0.0
H189 H 0.36952 0.96996 0.85818 0.0
H190 H 0.46518 0.91591 0.86882 0.0
H191 H 0.4012 0.98235 0.90734 0.0
H192 H 0.4911 0.02891 0.96658 0.0
H193 H 0.45521 0.01466 0.92088 0.0
H194 H 0.46136 0.90429 0.92903 0.0
H195 H 0.49754 0.91851 0.97434 0.0
C196 C 0.42603 0.92041 0.83889 0.0
C197 C 0.39896 0.93559 0.83513 0.0
C198 C 0.44412 0.92753 0.86699 0.0
C199 C 0.43565 0.95007 0.89197 0.0
C200 C 0.40848 0.96512 0.88836 0.0
C201 C 0.39027 0.95788 0.86027 0.0
C202 C 0.4846 0.00156 0.95878 0.0
C203 C 0.49736 0.97488 0.97391 0.0
C204 C 0.46391 0.99339 0.93272 0.0
C205 C 0.45565 0.95839 0.92121 0.0
C206 C 0.4677 0.93159 0.937 0.0
C207 C 0.4883 0.93973 0.96308 0.0
H208 H 0.6329 0.44649 0.78098 0.0
H209 H 0.71311 0.48301 0.71098 0.0
H210 H 0.59824 0.47329 0.7465 0.0
H211 H 0.67844 0.51016 0.67679 0.0
H212 H 0.60997 0.58022 0.64042 0.0
H213 H 0.64435 0.55934 0.67982 0.0
H214 H 0.57856 0.4583 0.68735 0.0
H215 H 0.54443 0.47885 0.64775 0.0
C216 C 0.64325 0.46066 0.75851 0.0
C217 C 0.67572 0.46251 0.74862 0.0
C218 C 0.62336 0.47584 0.73873 0.0
C219 C 0.63566 0.49368 0.70896 0.0
C220 C 0.6684 0.49675 0.69974 0.0
C221 C 0.68818 0.48108 0.71923 0.0
C222 C 0.6027 0.55368 0.65075 0.0
C223 C 0.57452 0.53115 0.64097 0.0
C224 C 0.62246 0.54171 0.67313 0.0
C225 C 0.61407 0.50725 0.68662 0.0
C226 C 0.58544 0.4851 0.67755 0.0
C227 C 0.56601 0.49682 0.65476 0.0
H228 H 0.90333 0.5731 0.28902 0.0
H229 H 0.91899 0.67249 0.23521 0.0
H230 H 0.92817 0.5462 0.24224 0.0
H231 H 0.94577 0.64671 0.18945 0.0
H232 H 0.96325 0.58635 0.09808 0.0
H233 H 0.93637 0.60938 0.14525 0.0
H234 H 0.97445 0.54107 0.21129 0.0
H235 H 0.99952 0.51628 0.16319 0.0
C236 C 0.91257 0.58932 0.26733 0.0
C237 C 0.90903 0.62479 0.26561 0.0
C238 C 0.92701 0.57398 0.24052 0.0
C239 C 0.93884 0.59402 0.21163 0.0
C240 C 0.93614 0.62993 0.21063 0.0
C241 C 0.92104 0.64494 0.23706 0.0
C242 C 0.96565 0.57608 0.12265 0.0
C243 C 0.98351 0.54961 0.12697 0.0
C244 C 0.95049 0.58957 0.1499 0.0
C245 C 0.95357 0.57774 0.18247 0.0
C246 C 0.97112 0.5507 0.1867 0.0
C247 C 0.98564 0.53651 0.15917 0.0
H248 H 0.28241 0.11159 0.19874 0.0
H249 H 0.32974 0.21596 0.16363 0.0
H250 H 0.32724 0.0871 0.17591 0.0
H251 H 0.37505 0.19127 0.14105 0.0
H252 H 0.43802 0.12558 0.08039 0.0
H253 H 0.39152 0.1506 0.09853 0.0
H254 H 0.3828 0.09066 0.19042 0.0
H255 H 0.42878 0.06537 0.17224 0.0
C256 C 0.3023 0.12934 0.18597 0.0
C257 C 0.30255 0.16584 0.18326 0.0
C258 C 0.32813 0.11528 0.17306 0.0
C259 C 0.35491 0.1373 0.15707 0.0
C260 C 0.3547 0.17358 0.15314 0.0
C261 C 0.32878 0.18773 0.16614 0.0
C262 C 0.42613 0.11772 0.10445 0.0
C263 C 0.43705 0.09335 0.12482 0.0
C264 C 0.3996 0.1322 0.11488 0.0
C265 C 0.38334 0.12246 0.14581 0.0
C266 C 0.39443 0.09826 0.1662 0.0
C267 C 0.42095 0.08391 0.15585 0.0
H268 H 0.20326 0.86582 0.72658 0.0
H269 H 0.26202 0.95633 0.6752 0.0
H270 H 0.15741 0.87355 0.69535 0.0
H271 H 0.21608 0.96433 0.64444 0.0
H272 H 0.13231 0.9569 0.57819 0.0
H273 H 0.17809 0.93899 0.6027 0.0
H274 H 0.12323 0.91768 0.69639 0.0
H275 H 0.07747 0.93497 0.67189 0.0
C276 C 0.2065 0.88716 0.70843 0.0
C277 C 0.23623 0.91066 0.70362 0.0
C278 C 0.18017 0.89167 0.69065 0.0
C279 C 0.18304 0.91971 0.66761 0.0
C280 C 0.21313 0.94227 0.66178 0.0
C281 C 0.23943 0.93781 0.67959 0.0
C282 C 0.12991 0.94794 0.60389 0.0
C283 C 0.10132 0.94758 0.62316 0.0
C284 C 0.15618 0.93787 0.61796 0.0
C285 C 0.15434 0.92706 0.65152 0.0
C286 C 0.12534 0.92548 0.67037 0.0
C287 C 0.09916 0.93565 0.65637 0.0
H288 H 0.81229 0.38722 0.90743 0.0
H289 H 0.82644 0.48026 0.84405 0.0
H290 H 0.86053 0.41229 0.93582 0.0
H291 H 0.8747 0.50574 0.87312 0.0
H292 H 0.9775 0.52127 0.90826 0.0
H293 H 0.92925 0.49609 0.87956 0.0
H294 H 0.88054 0.45975 0.97378 0.0
H295 H 0.92904 0.48444 0.00251 0.0
C296 C 0.8256 0.41315 0.89961 0.0
C297 C 0.81545 0.43173 0.87338 0.0
C298 C 0.85321 0.42761 0.9161 0.0
C299 C 0.87145 0.46103 0.90683 0.0
C300 C 0.86135 0.47972 0.88062 0.0
C301 C 0.83361 0.46524 0.86409 0.0
C302 C 0.95657 0.50772 0.92288 0.0
C303 C 0.95715 0.50478 0.9577 0.0
C304 C 0.92881 0.49357 0.90642 0.0
C305 C 0.90098 0.47608 0.92436 0.0
C306 C 0.90168 0.47277 0.95917 0.0
C307 C 0.92946 0.48697 0.97566 0.0
H308 H 0.77907 0.68049 0.4589 0.0
H309 H 0.77816 0.58089 0.40865 0.0
H310 H 0.72312 0.66015 0.47774 0.0
H311 H 0.72213 0.56042 0.42788 0.0
H312 H 0.61326 0.55059 0.4399 0.0
H313 H 0.66839 0.57341 0.41942 0.0
H314 H 0.69157 0.61551 0.51679 0.0
H315 H 0.63628 0.59299 0.53731 0.0
C316 C 0.76695 0.65423 0.45186 0.0
C317 C 0.7831 0.63226 0.4323 0.0
C318 C 0.73492 0.64254 0.46283 0.0
C319 C 0.71824 0.60868 0.45436 0.0
C320 C 0.73427 0.58681 0.43452 0.0
C321 C 0.7664 0.59845 0.42367 0.0
C322 C 0.63003 0.56494 0.45692 0.0
C323 C 0.62039 0.56994 0.49027 0.0
C324 C 0.66168 0.57778 0.44521 0.0
C325 C 0.68436 0.59606 0.46653 0.0
C326 C 0.67456 0.60176 0.49969 0.0
C327 C 0.64292 0.58877 0.51147 0.0
H328 H 0.1399 0.26283 0.17532 0.0
H329 H 0.22267 0.34878 0.17182 0.0
H330 H 0.10935 0.30036 0.14681 0.0
H331 H 0.19218 0.38609 0.14351 0.0
H332 H 0.14057 0.42944 0.06221 0.0
H333 H 0.16842 0.3883 0.08851 0.0
H334 H 0.08716 0.35601 0.15809 0.0
H335 H 0.05894 0.39738 0.13159 0.0
C336 C 0.15161 0.28965 0.16837 0.0
C337 C 0.18375 0.3028 0.17575 0.0
C338 C 0.13404 0.31117 0.15225 0.0
C339 C 0.14839 0.34611 0.14285 0.0
C340 C 0.18057 0.35913 0.15008 0.0
C341 C 0.198 0.33779 0.16644 0.0
C342 C 0.12844 0.41347 0.08298 0.0
C343 C 0.09757 0.4169 0.09494 0.0
C344 C 0.14453 0.39 0.09814 0.0
C345 C 0.13012 0.36918 0.12555 0.0
C346 C 0.0988 0.37163 0.13689 0.0
C347 C 0.08271 0.39538 0.1218 0.0
H348 H 0.6855 0.29839 0.96666 0.0
H349 H 0.64107 0.25848 0.87615 0.0
H350 H 0.6546 0.24739 0.99731 0.0
H351 H 0.61007 0.20716 0.90713 0.0
H352 H 0.53994 0.13725 0.98487 0.0
H353 H 0.5668 0.19069 0.95408 0.0
H354 H 0.65648 0.18261 0.99618 0.0
H355 H 0.62987 0.1295 0.02685 0.0
C356 C 0.66896 0.27888 0.95331 0.0
C357 C 0.66594 0.28235 0.91888 0.0
C358 C 0.65138 0.24959 0.97089 0.0
C359 C 0.63021 0.22319 0.95452 0.0
C360 C 0.62617 0.22723 0.92036 0.0
C361 C 0.64399 0.25651 0.90264 0.0
C362 C 0.56537 0.14697 0.98757 0.0
C363 C 0.58279 0.12922 0.00832 0.0
C364 C 0.58073 0.1774 0.96984 0.0
C365 C 0.61365 0.19083 0.9729 0.0
C366 C 0.63098 0.17309 0.99369 0.0
C367 C 0.61576 0.14256 0.0111 0.0
H368 H 0.89322 0.79114 0.37105 0.0
H369 H 0.95137 0.746 0.43761 0.0
H370 H 0.90719 0.84801 0.39885 0.0
H371 H 0.96536 0.8032 0.46534 0.0
H372 H 0.99964 0.92274 0.49027 0.0
H373 H 0.99302 0.8687 0.4568 0.0
H374 H 0.8909 0.86502 0.45731 0.0
H375 H 0.89735 0.91861 0.49074 0.0
C376 C 0.90947 0.79346 0.39119 0.0
C377 C 0.92088 0.76385 0.40234 0.0
C378 C 0.91729 0.82602 0.40722 0.0
C379 C 0.93696 0.82983 0.43453 0.0
C380 C 0.95016 0.80098 0.44432 0.0
C381 C 0.94208 0.76823 0.42846 0.0
C382 C 0.9758 0.91037 0.48318 0.0
C383 C 0.94899 0.92488 0.49317 0.0
C384 C 0.97204 0.87945 0.46412 0.0
C385 C 0.9415 0.86288 0.45427 0.0
C386 C 0.91479 0.87753 0.46415 0.0
C387 C 0.91847 0.90807 0.48353 0.0
H388 H 0.44702 0.84339 0.66689 0.0
H389 H 0.36162 0.76914 0.70162 0.0
H390 H 0.46981 0.79437 0.64404 0.0
H391 H 0.3845 0.72026 0.67888 0.0
H392 H 0.42002 0.64988 0.59885 0.0
H393 H 0.39853 0.69914 0.6224 0.0
H394 H 0.48973 0.74089 0.6643 0.0
H395 H 0.51149 0.6914 0.64054 0.0
C396 C 0.4331 0.81664 0.66962 0.0
C397 C 0.40245 0.81015 0.68596 0.0
C398 C 0.44627 0.78859 0.65675 0.0
C399 C 0.42893 0.75353 0.65968 0.0
C400 C 0.39829 0.74706 0.67598 0.0
C401 C 0.38524 0.77505 0.68909 0.0
C402 C 0.43557 0.66952 0.61307 0.0
C403 C 0.46748 0.66672 0.61785 0.0
C404 C 0.42315 0.69763 0.62671 0.0
C405 C 0.44241 0.72378 0.64526 0.0
C406 C 0.47442 0.72121 0.64989 0.0
C407 C 0.4868 0.69282 0.63645 0.0
H408 H 0.85912 0.80949 0.71178 0.0
H409 H 0.87238 0.89583 0.78179 0.0
H410 H 0.88739 0.84918 0.66824 0.0
H411 H 0.9009 0.93579 0.73793 0.0
H412 H 0.93145 0.00034 0.63856 0.0
H413 H 0.89682 0.96455 0.68175 0.0
H414 H 0.94446 0.87723 0.66038 0.0
H415 H 0.97852 0.91235 0.61754 0.0
C416 C 0.86777 0.83709 0.71779 0.0
C417 C 0.8635 0.84951 0.75025 0.0
C418 C 0.88406 0.85981 0.69285 0.0
C419 C 0.89674 0.89549 0.69977 0.0
C420 C 0.89119 0.90846 0.73182 0.0
C421 C 0.87474 0.88561 0.75691 0.0
C422 C 0.93444 0.97348 0.64313 0.0
C423 C 0.95763 0.95915 0.62445 0.0
C424 C 0.91471 0.95309 0.66791 0.0
C425 C 0.91768 0.91796 0.67417 0.0
C426 C 0.94111 0.90395 0.65571 0.0
C427 C 0.96081 0.92423 0.63123 0.0
H428 H 0.67598 0.10819 0.28936 0.0
H429 H 0.64792 0.21001 0.28503 0.0
H430 H 0.65524 0.0941 0.23435 0.0
H431 H 0.62638 0.19556 0.23101 0.0
H432 H 0.60383 0.17108 0.12563 0.0
H433 H 0.6366 0.18556 0.17365 0.0
H434 H 0.60329 0.07896 0.21195 0.0
H435 H 0.57153 0.0642 0.16341 0.0
C436 C 0.66569 0.12768 0.27658 0.0
C437 C 0.66338 0.16009 0.29175 0.0
C438 C 0.6536 0.11952 0.24515 0.0
C439 C 0.63888 0.14356 0.2283 0.0
C440 C 0.63789 0.17655 0.24294 0.0
C441 C 0.65008 0.18475 0.27417 0.0
C442 C 0.60376 0.15067 0.14417 0.0
C443 C 0.58483 0.11663 0.14092 0.0
C444 C 0.62247 0.15898 0.17176 0.0
C445 C 0.6224 0.13354 0.19689 0.0
C446 C 0.6043 0.09911 0.19295 0.0
C447 C 0.58585 0.09072 0.16521 0.0
H448 H 0.41262 0.6139 0.33727 0.0
H449 H 0.45343 0.71781 0.37365 0.0
H450 H 0.4337 0.58669 0.38377 0.0
H451 H 0.47651 0.69103 0.41872 0.0
H452 H 0.48478 0.63837 0.51598 0.0
H453 H 0.46304 0.6629 0.46886 0.0
H454 H 0.47708 0.57268 0.40953 0.0
H455 H 0.49682 0.54703 0.45798 0.0
C456 C 0.42664 0.63089 0.35494 0.0
C457 C 0.43118 0.66795 0.35206 0.0
C458 C 0.43892 0.61532 0.38157 0.0
C459 C 0.45664 0.6365 0.40552 0.0
C460 C 0.46217 0.67366 0.40161 0.0
C461 C 0.44922 0.68915 0.37552 0.0
C462 C 0.48305 0.6237 0.4929 0.0
C463 C 0.4925 0.59082 0.49061 0.0
C464 C 0.47088 0.63796 0.46562 0.0
C465 C 0.46865 0.62022 0.43489 0.0
C466 C 0.47799 0.58705 0.43274 0.0
C467 C 0.48946 0.57233 0.46044 0.0
H468 H 0.16471 0.38175 0.87356 0.0
H469 H 0.14625 0.46498 0.80978 0.0
H470 H 0.1422 0.40901 0.92138 0.0
H471 H 0.12296 0.49181 0.85765 0.0
H472 H 0.10316 0.54442 0.9571 0.0
H473 H 0.13272 0.52192 0.91081 0.0
H474 H 0.08876 0.41457 0.94017 0.0
H475 H 0.05997 0.43685 0.98655 0.0
C476 C 0.15603 0.40599 0.86974 0.0
C477 C 0.15701 0.42098 0.83776 0.0
C478 C 0.14293 0.42151 0.89716 0.0
C479 C 0.13033 0.45231 0.89329 0.0
C480 C 0.13261 0.46821 0.86155 0.0
C481 C 0.14585 0.45274 0.83408 0.0
C482 C 0.09994 0.51602 0.95369 0.0
C483 C 0.0792 0.49244 0.97552 0.0
C484 C 0.11676 0.50314 0.9271 0.0
C485 C 0.11325 0.46643 0.92187 0.0
C486 C 0.09253 0.44297 0.94379 0.0
C487 C 0.07577 0.45579 0.97027 0.0
H488 H 0.70633 0.92306 0.82733 0.0
H489 H 0.77788 0.94395 0.90126 0.0
H490 H 0.66938 0.94834 0.86383 0.0
H491 H 0.74078 0.96943 0.93775 0.0
H492 H 0.64905 0.97173 0.00617 0.0
H493 H 0.68815 0.94834 0.97037 0.0
H494 H 0.66474 0.00721 0.88691 0.0
H495 H 0.62578 0.0304 0.92237 0.0
C496 C 0.71426 0.93323 0.85129 0.0
C497 C 0.74506 0.93153 0.86136 0.0
C498 C 0.69311 0.94783 0.87214 0.0
C499 C 0.70219 0.96084 0.90365 0.0
C500 C 0.73304 0.9593 0.91373 0.0
C501 C 0.75433 0.94496 0.89272 0.0
C502 C 0.65235 0.97973 0.98021 0.0
C503 C 0.63424 0.00283 0.96711 0.0
C504 C 0.67484 0.9665 0.95978 0.0
C505 C 0.6794 0.97587 0.92582 0.0
C506 C 0.66148 -0.00081 0.91287 0.0
C507 C 0.63926 0.0126 0.93328 0.0
H508 H 0.76003 0.06393 0.42125 0.0
H509 H 0.8029 0.17248 0.44325 0.0
H510 H 0.80817 0.04484 0.43872 0.0
H511 H 0.85088 0.15315 0.46121 0.0
H512 H 0.90959 0.09124 0.52852 0.0
H513 H 0.86301 0.11276 0.5096 0.0
H514 H 0.86829 0.05555 0.4177 0.0
H515 H 0.91503 0.03443 0.43625 0.0
C516 C 0.77971 0.08369 0.42983 0.0
C517 C 0.77771 0.11971 0.43086 0.0
C518 C 0.80728 0.07277 0.43968 0.0
C519 C 0.83317 0.09755 0.4513 0.0
C520 C 0.83115 0.13353 0.45251 0.0
C521 C 0.80379 0.14456 0.44209 0.0
C522 C 0.90089 0.08342 0.50422 0.0
C523 C 0.91595 0.06115 0.48388 0.0
C524 C 0.87437 0.09585 0.49337 0.0
C525 C 0.86209 0.08571 0.46225 0.0
C526 C 0.87719 0.06356 0.44189 0.0
C527 C 0.90402 0.05164 0.45247 0.0
H528 H 0.23795 0.65988 0.22536 0.0
H529 H 0.28389 0.63759 0.13159 0.0
H530 H 0.18618 0.62985 0.20616 0.0
H531 H 0.23239 0.60656 0.11281 0.0
H532 H 0.13156 0.58171 0.07609 0.0
H533 H 0.18173 0.61622 0.09543 0.0
H534 H 0.15728 0.57192 0.19431 0.0
H535 H 0.10691 0.53856 0.17532 0.0
C536 C 0.23704 0.64827 0.20078 0.0
C537 C 0.26502 0.65108 0.18001 0.0
C538 C 0.20737 0.63097 0.18978 0.0
C539 C 0.20506 0.61585 0.15788 0.0
C540 C 0.23315 0.61847 0.13726 0.0
C541 C 0.26275 0.63598 0.14816 0.0
C542 C 0.13681 0.57966 0.10201 0.0
C543 C 0.1153 0.55736 0.12413 0.0
C544 C 0.16566 0.59921 0.11306 0.0
C545 C 0.17366 0.59669 0.1464 0.0
C546 C 0.15176 0.57491 0.16859 0.0
C547 C 0.1229 0.55559 0.15762 0.0
H548 H 0.30483 0.40099 0.72617 0.0
H549 H 0.26736 0.46527 0.65597 0.0
H550 H 0.35949 0.42782 0.70643 0.0
H551 H 0.32195 0.49226 0.63652 0.0
H552 H 0.42334 0.51205 0.58929 0.0
H553 H 0.37006 0.4783 0.60637 0.0
H554 H 0.39505 0.48674 0.70926 0.0
H555 H 0.44829 0.52008 0.69227 0.0
C556 C 0.30824 0.42075 0.70648 0.0
C557 C 0.28173 0.43109 0.69274 0.0
C558 C 0.33955 0.43621 0.69526 0.0
C559 C 0.34505 0.46216 0.66992 0.0
C560 C 0.31853 0.47202 0.65579 0.0
C561 C 0.28723 0.45673 0.66713 0.0
C562 C 0.41759 0.50632 0.61552 0.0
C563 C 0.44 0.51891 0.63944 0.0
C564 C 0.387 0.48721 0.6253 0.0
C565 C 0.37827 0.48005 0.65918 0.0
C566 C 0.4011 0.49155 0.68296 0.0
C567 C 0.43158 0.51084 0.67321 0.0
H568 H 0.91134 0.67938 0.84472 0.0
H569 H 0.89736 0.76017 0.91567 0.0
H570 H 0.94654 0.65795 0.88228 0.0
H571 H 0.93299 0.73893 0.95311 0.0
H572 H 0.94952 0.64897 0.02499 0.0
H573 H 0.92625 0.68437 0.98665 0.0
H574 H 0.99801 0.67116 0.91026 0.0
H575 H 0.02122 0.63523 0.94873 0.0
C576 C 0.91617 0.69292 0.86811 0.0
C577 C 0.90123 0.72119 0.87739 0.0
C578 C 0.93659 0.68083 0.88953 0.0
C579 C 0.94247 0.69668 0.92073 0.0
C580 C 0.92865 0.72595 0.92937 0.0
C581 C 0.90829 0.73814 0.9079 0.0
C582 C 0.96077 0.65421 0.00024 0.0
C583 C 0.98699 0.63903 0.98977 0.0
C584 C 0.94753 0.6747 0.9783 0.0
C585 C 0.96011 0.68029 0.94532 0.0
C586 C 0.98758 0.66692 0.93543 0.0
C587 C 0.00101 0.6466 0.95752 0.0
H588 H 0.46634 0.81572 0.23139 0.0
H589 H 0.39447 0.79882 0.15761 0.0
H590 H 0.49486 0.86852 0.2006 0.0
H591 H 0.423 0.85075 0.12699 0.0
H592 H 0.45683 0.96763 0.10464 0.0
H593 H 0.43201 0.9145 0.13602 0.0
H594 H 0.52526 0.88878 0.14711 0.0
H595 H 0.55038 0.94255 0.11596 0.0
C596 C 0.45683 0.82299 0.2085 0.0
C597 C 0.42796 0.80324 0.19717 0.0
C598 C 0.47319 0.85315 0.19084 0.0
C599 C 0.46092 0.86406 0.16161 0.0
C600 C 0.4327 0.84353 0.1498 0.0
C601 C 0.41644 0.81358 0.16733 0.0
C602 C 0.47213 0.95072 0.11371 0.0
C603 C 0.50559 0.95924 0.10756 0.0
C604 C 0.45786 0.92014 0.1316 0.0
C605 C 0.47665 0.89724 0.14377 0.0
C606 C 0.51018 0.90601 0.13819 0.0
C607 C 0.52452 0.93669 0.1202 0.0
H608 H 0.10043 0.20736 0.75415 0.0
H609 H 0.1664 0.26191 0.6771 0.0
H610 H 0.08348 0.15857 0.71631 0.0
H611 H 0.1488 0.21343 0.6389 0.0
H612 H 0.13671 0.10186 0.59436 0.0
H613 H 0.15264 0.15246 0.63039 0.0
H614 H 0.054 0.14326 0.66694 0.0
H615 H 0.03815 0.09189 0.63143 0.0
C616 C 0.11119 0.20905 0.72906 0.0
C617 C 0.13485 0.2385 0.71868 0.0
C618 C 0.10128 0.18116 0.70726 0.0
C619 C 0.11469 0.18208 0.67451 0.0
C620 C 0.13825 0.21165 0.66408 0.0
C621 C 0.14826 0.23951 0.68594 0.0
C622 C 0.11835 0.11071 0.60994 0.0
C623 C 0.08616 0.09275 0.61011 0.0
C624 C 0.12749 0.1399 0.63049 0.0
C625 C 0.10464 0.15193 0.65163 0.0
C626 C 0.0723 0.13436 0.65133 0.0
C627 C 0.06317 0.10505 0.63082 0.0
H628 H 0.64268 0.2786 0.48247 0.0
H629 H 0.60436 0.31439 0.3941 0.0
H630 H 0.62165 0.32328 0.51515 0.0
H631 H 0.58424 0.35948 0.4264 0.0
H632 H 0.52925 0.4196 0.49643 0.0
H633 H 0.5449 0.36875 0.46863 0.0
H634 H 0.63259 0.38662 0.52145 0.0
H635 H 0.61654 0.4366 0.54989 0.0
C636 C 0.62981 0.29599 0.47003 0.0
C637 C 0.62527 0.293 0.43569 0.0
C638 C 0.61786 0.32168 0.48871 0.0
C639 C 0.60123 0.34498 0.47341 0.0
C640 C 0.59642 0.34162 0.43913 0.0
C641 C 0.60822 0.3159 0.42054 0.0
C642 C 0.55169 0.4124 0.50236 0.0
C643 C 0.57172 0.43226 0.52522 0.0
C644 C 0.56076 0.3834 0.48629 0.0
C645 C 0.59013 0.37374 0.49262 0.0
C646 C 0.60965 0.393 0.51625 0.0
C647 C 0.60052 0.42186 0.53242 0.0
loop_
_geom_bond_atom_site_label_1
_geom_bond_atom_site_label_2
_geom_bond_distance
_geom_bond_site_symmetry_2
_ccdc_geom_bond_type
O0 Cd1 2.300 . S
O0 C7 1.275 . S
Cd1 O0 2.300 . S
Cd1 O9 2.381 . S
Cd1 O10 2.378 . S
O2 Cd3 2.385 . S
O2 C7 1.255 . S
Cd3 O2 2.385 . S
Cd3 O4 2.317 . S
O4 Cd3 2.317 . S
O4 C5 1.232 . S
C5 O4 1.232 . S
C5 O6 1.218 . S
O6 C5 1.218 . S
C7 O0 1.275 . S
C7 O2 1.255 . S
C8 O9 1.258 . S
C8 O10 1.256 . S
O9 Cd1 2.381 . S
O9 C8 1.258 . S
O10 Cd1 2.378 . S
O10 C8 1.256 . S
O11 Cd12 2.300 . S
O11 C18 1.275 . S
Cd12 O11 2.300 . S
Cd12 O20 2.381 . S
Cd12 O21 2.378 . S
O13 Cd14 2.385 . S
O13 C18 1.255 . S
Cd14 O13 2.385 . S
Cd14 O15 2.317 . S
O15 Cd14 2.317 . S
O15 C16 1.232 . S
C16 O15 1.232 . S
C16 O17 1.218 . S
O17 C16 1.218 . S
C18 O11 1.275 . S
C18 O13 1.255 . S
C19 O20 1.258 . S
C19 O21 1.256 . S
O20 Cd12 2.381 . S
O20 C19 1.258 . S
O21 Cd12 2.378 . S
O21 C19 1.256 . S
O22 Cd23 2.300 . S
O22 C29 1.275 . S
Cd23 O22 2.300 . S
Cd23 O31 2.381 . S
Cd23 O32 2.378 . S
O24 Cd25 2.385 . S
O24 C29 1.255 . S
Cd25 O24 2.385 . S
Cd25 O26 2.317 . S
O26 Cd25 2.317 . S
O26 C27 1.232 . S
C27 O26 1.232 . S
C27 O28 1.218 . S
O28 C27 1.218 . S
C29 O22 1.275 . S
C29 O24 1.255 . S
C30 O31 1.258 . S
C30 O32 1.256 . S
O31 Cd23 2.381 . S
O31 C30 1.258 . S
O32 Cd23 2.378 . S
O32 C30 1.256 . S
O33 Cd34 2.300 . S
O33 C40 1.275 . S
Cd34 O33 2.300 . S
Cd34 O42 2.381 . S
Cd34 O43 2.378 . S
O35 Cd36 2.385 . S
O35 C40 1.255 . S
Cd36 O35 2.385 . S
Cd36 O37 2.317 . S
O37 Cd36 2.317 . S
O37 C38 1.232 . S
C38 O37 1.232 . S
C38 O39 1.218 . S
O39 C38 1.218 . S
C40 O33 1.275 . S
C40 O35 1.255 . S
C41 O42 1.258 . S
C41 O43 1.256 . S
O42 Cd34 2.381 . S
O42 C41 1.258 . S
O43 Cd34 2.378 . S
O43 C41 1.256 . S
O44 Cd45 2.300 . S
O44 C51 1.275 . S
Cd45 O44 2.300 . S
Cd45 O53 2.381 . S
Cd45 O54 2.378 . S
O46 Cd47 2.385 . S
O46 C51 1.255 . S
Cd47 O46 2.385 . S
Cd47 O48 2.317 . S
O48 Cd47 2.317 . S
O48 C49 1.232 . S
C49 O48 1.232 . S
C49 O50 1.218 . S
O50 C49 1.218 . S
C51 O44 1.275 . S
C51 O46 1.255 . S
C52 O53 1.258 . S
C52 O54 1.256 . S
O53 Cd45 2.381 . S
O53 C52 1.258 . S
O54 Cd45 2.378 . S
O54 C52 1.256 . S
O55 Cd56 2.300 . S
O55 C62 1.275 . S
Cd56 O55 2.300 . S
Cd56 O64 2.381 . S
Cd56 O65 2.378 . S
O57 Cd58 2.385 . S
O57 C62 1.255 . S
Cd58 O57 2.385 . S
Cd58 O59 2.317 . S
O59 Cd58 2.317 . S
O59 C60 1.232 . S
C60 O59 1.232 . S
C60 O61 1.218 . S
O61 C60 1.218 . S
C62 O55 1.275 . S
C62 O57 1.255 . S
C63 O64 1.258 . S
C63 O65 1.256 . S
O64 Cd56 2.381 . S
O64 C63 1.258 . S
O65 Cd56 2.378 . S
O65 C63 1.256 . S
O66 Cd67 2.300 . S
O66 C73 1.275 . S
Cd67 O66 2.300 . S
Cd67 O75 2.381 . S
Cd67 O76 2.378 . S
O68 Cd69 2.385 . S
O68 C73 1.255 . S
Cd69 O68 2.385 . S
Cd69 O70 2.317 . S
O70 Cd69 2.317 . S
O70 C71 1.232 . S
C71 O70 1.232 . S
C71 O72 1.218 . S
O72 C71 1.218 . S
C73 O66 1.275 . S
C73 O68 1.255 . S
C74 O75 1.258 . S
C74 O76 1.256 . S
O75 Cd67 2.381 . S
O75 C74 1.258 . S
O76 Cd67 2.378 . S
O76 C74 1.256 . S
O77 Cd78 2.300 . S
O77 C84 1.275 . S
Cd78 O77 2.300 . S
Cd78 O86 2.381 . S
Cd78 O87 2.378 . S
O79 Cd80 2.385 . S
O79 C84 1.255 . S
Cd80 O79 2.385 . S
Cd80 O81 2.317 . S
O81 Cd80 2.317 . S
O81 C82 1.232 . S
C82 O81 1.232 . S
C82 O83 1.218 . S
O83 C82 1.218 . S
C84 O77 1.275 . S
C84 O79 1.255 . S
C85 O86 1.258 . S
C85 O87 1.256 . S
O86 Cd78 2.381 . S
O86 C85 1.258 . S
O87 Cd78 2.378 . S
O87 C85 1.256 . S
Zn88 O94 1.969 1_545 S
Zn88 O95 1.965 1_545 S
Zn88 O99 2.024 . S
Zn88 O104 1.969 . S
Zn89 O96 1.969 1_545 S
Zn89 O102 1.969 . S
Zn89 O103 1.965 1_655 S
Zn89 O105 2.024 1_545 S
C90 O91 1.229 . S
C90 O99 1.058 . S
O91 C90 1.229 . S
C92 O93 1.229 . S
C92 O105 1.058 . S
O93 C92 1.229 . S
O94 Zn88 1.969 1_565 S
O94 C97 1.267 . S
O95 Zn88 1.965 1_565 S
O95 C106 1.260 1_455 S
O96 Zn89 1.969 1_565 S
O96 C106 1.258 . S
C97 O94 1.267 . S
C97 O98 1.228 . S
O98 C97 1.228 . S
O99 Zn88 2.024 . S
O99 C90 1.058 . S
C100 O101 1.228 . S
C100 O102 1.267 . S
O101 C100 1.228 . S
O102 Zn89 1.969 . S
O102 C100 1.267 . S
O103 Zn89 1.965 1_455 S
O103 C107 1.260 . S
O104 Zn88 1.969 . S
O104 C107 1.258 . S
O105 Zn89 2.024 1_565 S
O105 C92 1.058 . S
C106 O95 1.260 1_655 S
C106 O96 1.258 . S
C107 O103 1.260 . S
C107 O104 1.258 . S
Zn108 O114 1.969 1_545 S
Zn108 O115 1.965 . S
Zn108 O119 2.024 1_554 S
Zn108 O124 1.969 1_545 S
Zn109 O116 1.969 . S
Zn109 O122 1.969 . S
Zn109 O123 1.965 . S
Zn109 O125 2.024 . S
C110 O111 1.229 . S
C110 O119 1.058 1_565 S
O111 C110 1.229 . S
C112 O113 1.229 . S
C112 O125 1.058 . S
O113 C112 1.229 . S
O114 Zn108 1.969 1_565 S
O114 C117 1.267 1_554 S
O115 Zn108 1.965 . S
O115 C126 1.260 . S
O116 Zn109 1.969 . S
O116 C126 1.258 . S
C117 O114 1.267 1_556 S
C117 O118 1.228 1_565 S
O118 C117 1.228 1_545 S
O119 Zn108 2.024 1_556 S
O119 C110 1.058 1_545 S
C120 O121 1.228 . S
C120 O122 1.267 . S
O121 C120 1.228 . S
O122 Zn109 1.969 . S
O122 C120 1.267 . S
O123 Zn109 1.965 . S
O123 C127 1.260 1_545 S
O124 Zn108 1.969 1_565 S
O124 C127 1.258 . S
O125 Zn109 2.024 . S
O125 C112 1.058 . S
C126 O115 1.260 . S
C126 O116 1.258 . S
C127 O123 1.260 1_565 S
C127 O124 1.258 . S
Zn128 O134 1.969 . S
Zn128 O135 1.965 . S
Zn128 O139 2.024 . S
Zn128 O144 1.969 . S
Zn129 O136 1.969 . S
Zn129 O142 1.969 . S
Zn129 O143 1.965 . S
Zn129 O145 2.024 . S
C130 O131 1.229 . S
C130 O139 1.058 . S
O131 C130 1.229 . S
C132 O133 1.229 . S
C132 O145 1.058 . S
O133 C132 1.229 . S
O134 Zn128 1.969 . S
O134 C137 1.267 . S
O135 Zn128 1.965 . S
O135 C146 1.260 . S
O136 Zn129 1.969 . S
O136 C146 1.258 . S
C137 O134 1.267 . S
C137 O138 1.228 . S
O138 C137 1.228 . S
O139 Zn128 2.024 . S
O139 C130 1.058 . S
C140 O141 1.228 . S
C140 O142 1.267 . S
O141 C140 1.228 . S
O142 Zn129 1.969 . S
O142 C140 1.267 . S
O143 Zn129 1.965 . S
O143 C147 1.260 . S
O144 Zn128 1.969 . S
O144 C147 1.258 . S
O145 Zn129 2.024 . S
O145 C132 1.058 . S
C146 O135 1.260 . S
C146 O136 1.258 . S
C147 O143 1.260 . S
C147 O144 1.258 . S
Zn148 O154 1.969 . S
Zn148 O155 1.965 1_556 S
Zn148 O159 2.024 1_455 S
Zn148 O164 1.969 . S
Zn149 O156 1.969 . S
Zn149 O162 1.969 . S
Zn149 O163 1.965 . S
Zn149 O165 2.024 . S
C150 O151 1.229 . S
C150 O159 1.058 . S
O151 C150 1.229 . S
C152 O153 1.229 . S
C152 O165 1.058 . S
O153 C152 1.229 . S
O154 Zn148 1.969 . S
O154 C157 1.267 1_455 S
O155 Zn148 1.965 1_554 S
O155 C166 1.260 . S
O156 Zn149 1.969 . S
O156 C166 1.258 . S
C157 O154 1.267 1_655 S
C157 O158 1.228 . S
O158 C157 1.228 . S
O159 Zn148 2.024 1_655 S
O159 C150 1.058 . S
C160 O161 1.228 . S
C160 O162 1.267 . S
O161 C160 1.228 . S
O162 Zn149 1.969 . S
O162 C160 1.267 . S
O163 Zn149 1.965 . S
O163 C167 1.260 1_554 S
O164 Zn148 1.969 . S
O164 C167 1.258 . S
O165 Zn149 2.024 . S
O165 C152 1.058 . S
C166 O155 1.260 . S
C166 O156 1.258 . S
C167 O163 1.260 1_556 S
C167 O164 1.258 . S
H168 C176 0.950 . S
H169 C181 0.950 . S
H170 C178 0.950 . S
H171 C180 0.950 . S
H172 C182 0.950 . S
H173 C184 0.950 . S
H174 C186 0.950 . S
H175 C187 0.950 . S
C176 H168 0.950 . S
C176 C177 1.386 . S
C176 C178 1.391 . S
C177 C176 1.386 . S
C177 C181 1.393 . S
C178 H170 0.950 . S
C178 C176 1.391 . S
C178 C179 1.400 . S
C179 C178 1.400 . S
C179 C180 1.398 . S
C179 C185 1.491 . S
C180 H171 0.950 . S
C180 C179 1.398 . S
C180 C181 1.391 . S
C181 H169 0.950 . S
C181 C177 1.393 . S
C181 C180 1.391 . S
C182 H172 0.950 . S
C182 C183 1.386 . S
C182 C184 1.391 . S
C183 C182 1.386 . S
C183 C187 1.393 . S
C184 H173 0.950 . S
C184 C182 1.391 . S
C184 C185 1.400 . S
C185 C179 1.491 . S
C185 C184 1.400 . S
C185 C186 1.398 . S
C186 H174 0.950 . S
C186 C185 1.398 . S
C186 C187 1.391 . S
C187 H175 0.950 . S
C187 C183 1.393 . S
C187 C186 1.391 . S
H188 C196 0.950 . S
H189 C201 0.950 . S
H190 C198 0.950 . S
H191 C200 0.950 . S
H192 C202 0.950 . S
H193 C204 0.950 . S
H194 C206 0.950 . S
H195 C207 0.950 . S
C196 H188 0.950 . S
C196 C197 1.386 . S
C196 C198 1.391 . S
C197 C196 1.386 . S
C197 C201 1.393 . S
C198 H190 0.950 . S
C198 C196 1.391 . S
C198 C199 1.400 . S
C199 C198 1.400 . S
C199 C200 1.398 . S
C199 C205 1.491 . S
C200 H191 0.950 . S
C200 C199 1.398 . S
C200 C201 1.391 . S
C201 H189 0.950 . S
C201 C197 1.393 . S
C201 C200 1.391 . S
C202 H192 0.950 . S
C202 C203 1.386 . S
C202 C204 1.391 . S
C203 C202 1.386 . S
C203 C207 1.393 . S
C204 H193 0.950 . S
C204 C202 1.391 . S
C204 C205 1.400 . S
C205 C199 1.491 . S
C205 C204 1.400 . S
C205 C206 1.398 . S
C206 H194 0.950 . S
C206 C205 1.398 . S
C206 C207 1.391 . S
C207 H195 0.950 . S
C207 C203 1.393 . S
C207 C206 1.391 . S
H208 C216 0.950 . S
H209 C221 0.950 . S
H210 C218 0.950 . S
H211 C220 0.950 . S
H212 C222 0.950 . S
H213 C224 0.950 . S
H214 C226 0.950 . S
H215 C227 0.950 . S
C216 H208 0.950 . S
C216 C217 1.386 . S
C216 C218 1.391 . S
C217 C216 1.386 . S
C217 C221 1.393 . S
C218 H210 0.950 . S
C218 C216 1.391 . S
C218 C219 1.400 . S
C219 C218 1.400 . S
C219 C220 1.398 . S
C219 C225 1.491 . S
C220 H211 0.950 . S
C220 C219 1.398 . S
C220 C221 1.391 . S
C221 H209 0.950 . S
C221 C217 1.393 . S
C221 C220 1.391 . S
C222 H212 0.950 . S
C222 C223 1.386 . S
C222 C224 1.391 . S
C223 C222 1.386 . S
C223 C227 1.393 . S
C224 H213 0.950 . S
C224 C222 1.391 . S
C224 C225 1.400 . S
C225 C219 1.491 . S
C225 C224 1.400 . S
C225 C226 1.398 . S
C226 H214 0.950 . S
C226 C225 1.398 . S
C226 C227 1.391 . S
C227 H215 0.950 . S
C227 C223 1.393 . S
C227 C226 1.391 . S
H228 C236 0.950 . S
H229 C241 0.950 . S
H230 C238 0.950 . S
H231 C240 0.950 . S
H232 C242 0.950 . S
H233 C244 0.950 . S
H234 C246 0.950 . S
H235 C247 0.950 . S
C236 H228 0.950 . S
C236 C237 1.386 . S
C236 C238 1.391 . S
C237 C236 1.386 . S
C237 C241 1.393 . S
C238 H230 0.950 . S
C238 C236 1.391 . S
C238 C239 1.400 . S
C239 C238 1.400 . S
C239 C240 1.398 . S
C239 C245 1.491 . S
C240 H231 0.950 . S
C240 C239 1.398 . S
C240 C241 1.391 . S
C241 H229 0.950 . S
C241 C237 1.393 . S
C241 C240 1.391 . S
C242 H232 0.950 . S
C242 C243 1.386 . S
C242 C244 1.391 . S
C243 C242 1.386 . S
C243 C247 1.393 1_655 S
C244 H233 0.950 . S
C244 C242 1.391 . S
C244 C245 1.400 . S
C245 C239 1.491 . S
C245 C244 1.400 . S
C245 C246 1.398 1_655 S
C246 H234 0.950 . S
C246 C245 1.398 1_455 S
C246 C247 1.391 . S
C247 H235 0.950 . S
C247 C243 1.393 1_455 S
C247 C246 1.391 . S
H248 C256 0.950 . S
H249 C261 0.950 . S
H250 C258 0.950 . S
H251 C260 0.950 . S
H252 C262 0.950 . S
H253 C264 0.950 . S
H254 C266 0.950 . S
H255 C267 0.950 . S
C256 H248 0.950 . S
C256 C257 1.386 . S
C256 C258 1.391 . S
C257 C256 1.386 . S
C257 C261 1.393 . S
C258 H250 0.950 . S
C258 C256 1.391 . S
C258 C259 1.400 . S
C259 C258 1.400 . S
C259 C260 1.398 . S
C259 C265 1.491 . S
C260 H251 0.950 . S
C260 C259 1.398 . S
C260 C261 1.391 . S
C261 H249 0.950 . S
C261 C257 1.393 . S
C261 C260 1.391 . S
C262 H252 0.950 . S
C262 C263 1.386 . S
C262 C264 1.391 . S
C263 C262 1.386 . S
C263 C267 1.393 . S
C264 H253 0.950 . S
C264 C262 1.391 . S
C264 C265 1.400 . S
C265 C259 1.491 . S
C265 C264 1.400 . S
C265 C266 1.398 . S
C266 H254 0.950 . S
C266 C265 1.398 . S
C266 C267 1.391 . S
C267 H255 0.950 . S
C267 C263 1.393 . S
C267 C266 1.391 . S
H268 C276 0.950 . S
H269 C281 0.950 . S
H270 C278 0.950 . S
H271 C280 0.950 . S
H272 C282 0.950 . S
H273 C284 0.950 . S
H274 C286 0.950 . S
H275 C287 0.950 1_545 S
C276 H268 0.950 . S
C276 C277 1.386 . S
C276 C278 1.391 . S
C277 C276 1.386 . S
C277 C281 1.393 . S
C278 H270 0.950 . S
C278 C276 1.391 . S
C278 C279 1.400 . S
C279 C278 1.400 . S
C279 C280 1.398 . S
C279 C285 1.491 . S
C280 H271 0.950 . S
C280 C279 1.398 . S
C280 C281 1.391 . S
C281 H269 0.950 . S
C281 C277 1.393 . S
C281 C280 1.391 . S
C282 H272 0.950 . S
C282 C283 1.386 . S
C282 C284 1.391 . S
C283 C282 1.386 . S
C283 C287 1.393 . S
C284 H273 0.950 . S
C284 C282 1.391 . S
C284 C285 1.400 . S
C285 C279 1.491 . S
C285 C284 1.400 . S
C285 C286 1.398 . S
C286 H274 0.950 . S
C286 C285 1.398 . S
C286 C287 1.391 . S
C287 H275 0.950 1_565 S
C287 C283 1.393 . S
C287 C286 1.391 . S
H288 C296 0.950 . S
H289 C301 0.950 . S
H290 C298 0.950 . S
H291 C300 0.950 . S
H292 C302 0.950 . S
H293 C304 0.950 . S
H294 C306 0.950 . S
H295 C307 0.950 . S
C296 H288 0.950 . S
C296 C297 1.386 . S
C296 C298 1.391 . S
C297 C296 1.386 . S
C297 C301 1.393 . S
C298 H290 0.950 . S
C298 C296 1.391 . S
C298 C299 1.400 . S
C299 C298 1.400 . S
C299 C300 1.398 . S
C299 C305 1.491 . S
C300 H291 0.950 . S
C300 C299 1.398 . S
C300 C301 1.391 . S
C301 H289 0.950 . S
C301 C297 1.393 . S
C301 C300 1.391 . S
C302 H292 0.950 . S
C302 C303 1.386 . S
C302 C304 1.391 . S
C303 C302 1.386 . S
C303 C307 1.393 . S
C304 H293 0.950 . S
C304 C302 1.391 . S
C304 C305 1.400 . S
C305 C299 1.491 . S
C305 C304 1.400 . S
C305 C306 1.398 . S
C306 H294 0.950 . S
C306 C305 1.398 . S
C306 C307 1.391 . S
C307 H295 0.950 . S
C307 C303 1.393 . S
C307 C306 1.391 . S
H308 C316 0.950 . S
H309 C321 0.950 . S
H310 C318 0.950 . S
H311 C320 0.950 . S
H312 C322 0.950 . S
H313 C324 0.950 . S
H314 C326 0.950 . S
H315 C327 0.950 . S
C316 H308 0.950 . S
C316 C317 1.386 . S
C316 C318 1.391 . S
C317 C316 1.386 . S
C317 C321 1.393 . S
C318 H310 0.950 . S
C318 C316 1.391 . S
C318 C319 1.400 . S
C319 C318 1.400 . S
C319 C320 1.398 . S
C319 C325 1.491 . S
C320 H311 0.950 . S
C320 C319 1.398 . S
C320 C321 1.391 . S
C321 H309 0.950 . S
C321 C317 1.393 . S
C321 C320 1.391 . S
C322 H312 0.950 . S
C322 C323 1.386 . S
C322 C324 1.391 . S
C323 C322 1.386 . S
C323 C327 1.393 . S
C324 H313 0.950 . S
C324 C322 1.391 . S
C324 C325 1.400 . S
C325 C319 1.491 . S
C325 C324 1.400 . S
C325 C326 1.398 . S
C326 H314 0.950 . S
C326 C325 1.398 . S
C326 C327 1.391 . S
C327 H315 0.950 . S
C327 C323 1.393 . S
C327 C326 1.391 . S
H328 C336 0.950 . S
H329 C341 0.950 . S
H330 C338 0.950 . S
H331 C340 0.950 . S
H332 C342 0.950 . S
H333 C344 0.950 . S
H334 C346 0.950 . S
H335 C347 0.950 . S
C336 H328 0.950 . S
C336 C337 1.386 . S
C336 C338 1.391 . S
C337 C336 1.386 . S
C337 C341 1.393 . S
C338 H330 0.950 . S
C338 C336 1.391 . S
C338 C339 1.400 . S
C339 C338 1.400 . S
C339 C340 1.398 . S
C339 C345 1.491 . S
C340 H331 0.950 . S
C340 C339 1.398 . S
C340 C341 1.391 . S
C341 H329 0.950 . S
C341 C337 1.393 . S
C341 C340 1.391 . S
C342 H332 0.950 . S
C342 C343 1.386 . S
C342 C344 1.391 . S
C343 C342 1.386 . S
C343 C347 1.393 . S
C344 H333 0.950 . S
C344 C342 1.391 . S
C344 C345 1.400 . S
C345 C339 1.491 . S
C345 C344 1.400 . S
C345 C346 1.398 . S
C346 H334 0.950 . S
C346 C345 1.398 . S
C346 C347 1.391 . S
C347 H335 0.950 . S
C347 C343 1.393 . S
C347 C346 1.391 . S
H348 C356 0.950 . S
H349 C361 0.950 . S
H350 C358 0.950 . S
H351 C360 0.950 . S
H352 C362 0.950 . S
H353 C364 0.950 . S
H354 C366 0.950 . S
H355 C367 0.950 1_554 S
C356 H348 0.950 . S
C356 C357 1.386 . S
C356 C358 1.391 . S
C357 C356 1.386 . S
C357 C361 1.393 . S
C358 H350 0.950 . S
C358 C356 1.391 . S
C358 C359 1.400 . S
C359 C358 1.400 . S
C359 C360 1.398 . S
C359 C365 1.491 . S
C360 H351 0.950 . S
C360 C359 1.398 . S
C360 C361 1.391 . S
C361 H349 0.950 . S
C361 C357 1.393 . S
C361 C360 1.391 . S
C362 H352 0.950 . S
C362 C363 1.386 . S
C362 C364 1.391 1_554 S
C363 C362 1.386 . S
C363 C367 1.393 1_554 S
C364 H353 0.950 . S
C364 C362 1.391 1_556 S
C364 C365 1.400 . S
C365 C359 1.491 . S
C365 C364 1.400 . S
C365 C366 1.398 . S
C366 H354 0.950 . S
C366 C365 1.398 . S
C366 C367 1.391 . S
C367 H355 0.950 1_556 S
C367 C363 1.393 1_556 S
C367 C366 1.391 . S
H368 C376 0.950 . S
H369 C381 0.950 . S
H370 C378 0.950 . S
H371 C380 0.950 . S
H372 C382 0.950 . S
H373 C384 0.950 . S
H374 C386 0.950 . S
H375 C387 0.950 . S
C376 H368 0.950 . S
C376 C377 1.386 . S
C376 C378 1.391 . S
C377 C376 1.386 . S
C377 C381 1.393 . S
C378 H370 0.950 . S
C378 C376 1.391 . S
C378 C379 1.400 . S
C379 C378 1.400 . S
C379 C380 1.398 . S
C379 C385 1.491 . S
C380 H371 0.950 . S
C380 C379 1.398 . S
C380 C381 1.391 . S
C381 H369 0.950 . S
C381 C377 1.393 . S
C381 C380 1.391 . S
C382 H372 0.950 . S
C382 C383 1.386 . S
C382 C384 1.391 . S
C383 C382 1.386 . S
C383 C387 1.393 . S
C384 H373 0.950 . S
C384 C382 1.391 . S
C384 C385 1.400 . S
C385 C379 1.491 . S
C385 C384 1.400 . S
C385 C386 1.398 . S
C386 H374 0.950 . S
C386 C385 1.398 . S
C386 C387 1.391 . S
C387 H375 0.950 . S
C387 C383 1.393 . S
C387 C386 1.391 . S
H388 C396 0.950 . S
H389 C401 0.950 . S
H390 C398 0.950 . S
H391 C400 0.950 . S
H392 C402 0.950 . S
H393 C404 0.950 . S
H394 C406 0.950 . S
H395 C407 0.950 . S
C396 H388 0.950 . S
C396 C397 1.386 . S
C396 C398 1.391 . S
C397 C396 1.386 . S
C397 C401 1.393 . S
C398 H390 0.950 . S
C398 C396 1.391 . S
C398 C399 1.400 . S
C399 C398 1.400 . S
C399 C400 1.398 . S
C399 C405 1.491 . S
C400 H391 0.950 . S
C400 C399 1.398 . S
C400 C401 1.391 . S
C401 H389 0.950 . S
C401 C397 1.393 . S
C401 C400 1.391 . S
C402 H392 0.950 . S
C402 C403 1.386 . S
C402 C404 1.391 . S
C403 C402 1.386 . S
C403 C407 1.393 . S
C404 H393 0.950 . S
C404 C402 1.391 . S
C404 C405 1.400 . S
C405 C399 1.491 . S
C405 C404 1.400 . S
C405 C406 1.398 . S
C406 H394 0.950 . S
C406 C405 1.398 . S
C406 C407 1.391 . S
C407 H395 0.950 . S
C407 C403 1.393 . S
C407 C406 1.391 . S
H408 C416 0.950 . S
H409 C421 0.950 . S
H410 C418 0.950 . S
H411 C420 0.950 . S
H412 C422 0.950 1_545 S
H413 C424 0.950 . S
H414 C426 0.950 . S
H415 C427 0.950 . S
C416 H408 0.950 . S
C416 C417 1.386 . S
C416 C418 1.391 . S
C417 C416 1.386 . S
C417 C421 1.393 . S
C418 H410 0.950 . S
C418 C416 1.391 . S
C418 C419 1.400 . S
C419 C418 1.400 . S
C419 C420 1.398 . S
C419 C425 1.491 . S
C420 H411 0.950 . S
C420 C419 1.398 . S
C420 C421 1.391 . S
C421 H409 0.950 . S
C421 C417 1.393 . S
C421 C420 1.391 . S
C422 H412 0.950 1_565 S
C422 C423 1.386 . S
C422 C424 1.391 . S
C423 C422 1.386 . S
C423 C427 1.393 . S
C424 H413 0.950 . S
C424 C422 1.391 . S
C424 C425 1.400 . S
C425 C419 1.491 . S
C425 C424 1.400 . S
C425 C426 1.398 . S
C426 H414 0.950 . S
C426 C425 1.398 . S
C426 C427 1.391 . S
C427 H415 0.950 . S
C427 C423 1.393 . S
C427 C426 1.391 . S
H428 C436 0.950 . S
H429 C441 0.950 . S
H430 C438 0.950 . S
H431 C440 0.950 . S
H432 C442 0.950 . S
H433 C444 0.950 . S
H434 C446 0.950 . S
H435 C447 0.950 . S
C436 H428 0.950 . S
C436 C437 1.386 . S
C436 C438 1.391 . S
C437 C436 1.386 . S
C437 C441 1.393 . S
C438 H430 0.950 . S
C438 C436 1.391 . S
C438 C439 1.400 . S
C439 C438 1.400 . S
C439 C440 1.398 . S
C439 C445 1.491 . S
C440 H431 0.950 . S
C440 C439 1.398 . S
C440 C441 1.391 . S
C441 H429 0.950 . S
C441 C437 1.393 . S
C441 C440 1.391 . S
C442 H432 0.950 . S
C442 C443 1.386 . S
C442 C444 1.391 . S
C443 C442 1.386 . S
C443 C447 1.393 . S
C444 H433 0.950 . S
C444 C442 1.391 . S
C444 C445 1.400 . S
C445 C439 1.491 . S
C445 C444 1.400 . S
C445 C446 1.398 . S
C446 H434 0.950 . S
C446 C445 1.398 . S
C446 C447 1.391 . S
C447 H435 0.950 . S
C447 C443 1.393 . S
C447 C446 1.391 . S
H448 C456 0.950 . S
H449 C461 0.950 . S
H450 C458 0.950 . S
H451 C460 0.950 . S
H452 C462 0.950 . S
H453 C464 0.950 . S
H454 C466 0.950 . S
H455 C467 0.950 . S
C456 H448 0.950 . S
C456 C457 1.386 . S
C456 C458 1.391 . S
C457 C456 1.386 . S
C457 C461 1.393 . S
C458 H450 0.950 . S
C458 C456 1.391 . S
C458 C459 1.400 . S
C459 C458 1.400 . S
C459 C460 1.398 . S
C459 C465 1.491 . S
C460 H451 0.950 . S
C460 C459 1.398 . S
C460 C461 1.391 . S
C461 H449 0.950 . S
C461 C457 1.393 . S
C461 C460 1.391 . S
C462 H452 0.950 . S
C462 C463 1.386 . S
C462 C464 1.391 . S
C463 C462 1.386 . S
C463 C467 1.393 . S
C464 H453 0.950 . S
C464 C462 1.391 . S
C464 C465 1.400 . S
C465 C459 1.491 . S
C465 C464 1.400 . S
C465 C466 1.398 . S
C466 H454 0.950 . S
C466 C465 1.398 . S
C466 C467 1.391 . S
C467 H455 0.950 . S
C467 C463 1.393 . S
C467 C466 1.391 . S
H468 C476 0.950 . S
H469 C481 0.950 . S
H470 C478 0.950 . S
H471 C480 0.950 . S
H472 C482 0.950 . S
H473 C484 0.950 . S
H474 C486 0.950 . S
H475 C487 0.950 . S
C476 H468 0.950 . S
C476 C477 1.386 . S
C476 C478 1.391 . S
C477 C476 1.386 . S
C477 C481 1.393 . S
C478 H470 0.950 . S
C478 C476 1.391 . S
C478 C479 1.400 . S
C479 C478 1.400 . S
C479 C480 1.398 . S
C479 C485 1.491 . S
C480 H471 0.950 . S
C480 C479 1.398 . S
C480 C481 1.391 . S
C481 H469 0.950 . S
C481 C477 1.393 . S
C481 C480 1.391 . S
C482 H472 0.950 . S
C482 C483 1.386 . S
C482 C484 1.391 . S
C483 C482 1.386 . S
C483 C487 1.393 . S
C484 H473 0.950 . S
C484 C482 1.391 . S
C484 C485 1.400 . S
C485 C479 1.491 . S
C485 C484 1.400 . S
C485 C486 1.398 . S
C486 H474 0.950 . S
C486 C485 1.398 . S
C486 C487 1.391 . S
C487 H475 0.950 . S
C487 C483 1.393 . S
C487 C486 1.391 . S
H488 C496 0.950 . S
H489 C501 0.950 . S
H490 C498 0.950 . S
H491 C500 0.950 . S
H492 C502 0.950 1_554 S
H493 C504 0.950 . S
H494 C506 0.950 . S
H495 C507 0.950 . S
C496 H488 0.950 . S
C496 C497 1.386 . S
C496 C498 1.391 . S
C497 C496 1.386 . S
C497 C501 1.393 . S
C498 H490 0.950 . S
C498 C496 1.391 . S
C498 C499 1.400 . S
C499 C498 1.400 . S
C499 C500 1.398 . S
C499 C505 1.491 . S
C500 H491 0.950 . S
C500 C499 1.398 . S
C500 C501 1.391 . S
C501 H489 0.950 . S
C501 C497 1.393 . S
C501 C500 1.391 . S
C502 H492 0.950 1_556 S
C502 C503 1.386 . S
C502 C504 1.391 . S
C503 C502 1.386 . S
C503 C507 1.393 . S
C504 H493 0.950 . S
C504 C502 1.391 . S
C504 C505 1.400 . S
C505 C499 1.491 . S
C505 C504 1.400 . S
C505 C506 1.398 . S
C506 H494 0.950 . S
C506 C505 1.398 . S
C506 C507 1.391 . S
C507 H495 0.950 . S
C507 C503 1.393 . S
C507 C506 1.391 . S
H508 C516 0.950 . S
H509 C521 0.950 . S
H510 C518 0.950 . S
H511 C520 0.950 . S
H512 C522 0.950 . S
H513 C524 0.950 . S
H514 C526 0.950 . S
H515 C527 0.950 . S
C516 H508 0.950 . S
C516 C517 1.386 . S
C516 C518 1.391 . S
C517 C516 1.386 . S
C517 C521 1.393 . S
C518 H510 0.950 . S
C518 C516 1.391 . S
C518 C519 1.400 . S
C519 C518 1.400 . S
C519 C520 1.398 . S
C519 C525 1.491 . S
C520 H511 0.950 . S
C520 C519 1.398 . S
C520 C521 1.391 . S
C521 H509 0.950 . S
C521 C517 1.393 . S
C521 C520 1.391 . S
C522 H512 0.950 . S
C522 C523 1.386 . S
C522 C524 1.391 . S
C523 C522 1.386 . S
C523 C527 1.393 . S
C524 H513 0.950 . S
C524 C522 1.391 . S
C524 C525 1.400 . S
C525 C519 1.491 . S
C525 C524 1.400 . S
C525 C526 1.398 . S
C526 H514 0.950 . S
C526 C525 1.398 . S
C526 C527 1.391 . S
C527 H515 0.950 . S
C527 C523 1.393 . S
C527 C526 1.391 . S
H528 C536 0.950 . S
H529 C541 0.950 . S
H530 C538 0.950 . S
H531 C540 0.950 . S
H532 C542 0.950 . S
H533 C544 0.950 . S
H534 C546 0.950 . S
H535 C547 0.950 . S
C536 H528 0.950 . S
C536 C537 1.386 . S
C536 C538 1.391 . S
C537 C536 1.386 . S
C537 C541 1.393 . S
C538 H530 0.950 . S
C538 C536 1.391 . S
C538 C539 1.400 . S
C539 C538 1.400 . S
C539 C540 1.398 . S
C539 C545 1.491 . S
C540 H531 0.950 . S
C540 C539 1.398 . S
C540 C541 1.391 . S
C541 H529 0.950 . S
C541 C537 1.393 . S
C541 C540 1.391 . S
C542 H532 0.950 . S
C542 C543 1.386 . S
C542 C544 1.391 . S
C543 C542 1.386 . S
C543 C547 1.393 . S
C544 H533 0.950 . S
C544 C542 1.391 . S
C544 C545 1.400 . S
C545 C539 1.491 . S
C545 C544 1.400 . S
C545 C546 1.398 . S
C546 H534 0.950 . S
C546 C545 1.398 . S
C546 C547 1.391 . S
C547 H535 0.950 . S
C547 C543 1.393 . S
C547 C546 1.391 . S
H548 C556 0.950 . S
H549 C561 0.950 . S
H550 C558 0.950 . S
H551 C560 0.950 . S
H552 C562 0.950 . S
H553 C564 0.950 . S
H554 C566 0.950 . S
H555 C567 0.950 . S
C556 H548 0.950 . S
C556 C557 1.386 . S
C556 C558 1.391 . S
C557 C556 1.386 . S
C557 C561 1.393 . S
C558 H550 0.950 . S
C558 C556 1.391 . S
C558 C559 1.400 . S
C559 C558 1.400 . S
C559 C560 1.398 . S
C559 C565 1.491 . S
C560 H551 0.950 . S
C560 C559 1.398 . S
C560 C561 1.391 . S
C561 H549 0.950 . S
C561 C557 1.393 . S
C561 C560 1.391 . S
C562 H552 0.950 . S
C562 C563 1.386 . S
C562 C564 1.391 . S
C563 C562 1.386 . S
C563 C567 1.393 . S
C564 H553 0.950 . S
C564 C562 1.391 . S
C564 C565 1.400 . S
C565 C559 1.491 . S
C565 C564 1.400 . S
C565 C566 1.398 . S
C566 H554 0.950 . S
C566 C565 1.398 . S
C566 C567 1.391 . S
C567 H555 0.950 . S
C567 C563 1.393 . S
C567 C566 1.391 . S
H568 C576 0.950 . S
H569 C581 0.950 . S
H570 C578 0.950 . S
H571 C580 0.950 . S
H572 C582 0.950 . S
H573 C584 0.950 . S
H574 C586 0.950 . S
H575 C587 0.950 . S
C576 H568 0.950 . S
C576 C577 1.386 . S
C576 C578 1.391 . S
C577 C576 1.386 . S
C577 C581 1.393 . S
C578 H570 0.950 . S
C578 C576 1.391 . S
C578 C579 1.400 . S
C579 C578 1.400 . S
C579 C580 1.398 . S
C579 C585 1.491 . S
C580 H571 0.950 . S
C580 C579 1.398 . S
C580 C581 1.391 . S
C581 H569 0.950 . S
C581 C577 1.393 . S
C581 C580 1.391 . S
C582 H572 0.950 . S
C582 C583 1.386 . S
C582 C584 1.391 . S
C583 C582 1.386 . S
C583 C587 1.393 . S
C584 H573 0.950 . S
C584 C582 1.391 . S
C584 C585 1.400 . S
C585 C579 1.491 . S
C585 C584 1.400 . S
C585 C586 1.398 . S
C586 H574 0.950 . S
C586 C585 1.398 . S
C586 C587 1.391 . S
C587 H575 0.950 . S
C587 C583 1.393 . S
C587 C586 1.391 . S
H588 C596 0.950 . S
H589 C601 0.950 . S
H590 C598 0.950 . S
H591 C600 0.950 . S
H592 C602 0.950 . S
H593 C604 0.950 . S
H594 C606 0.950 . S
H595 C607 0.950 . S
C596 H588 0.950 . S
C596 C597 1.386 . S
C596 C598 1.391 . S
C597 C596 1.386 . S
C597 C601 1.393 . S
C598 H590 0.950 . S
C598 C596 1.391 . S
C598 C599 1.400 . S
C599 C598 1.400 . S
C599 C600 1.398 . S
C599 C605 1.491 . S
C600 H591 0.950 . S
C600 C599 1.398 . S
C600 C601 1.391 . S
C601 H589 0.950 . S
C601 C597 1.393 . S
C601 C600 1.391 . S
C602 H592 0.950 . S
C602 C603 1.386 . S
C602 C604 1.391 . S
C603 C602 1.386 . S
C603 C607 1.393 . S
C604 H593 0.950 . S
C604 C602 1.391 . S
C604 C605 1.400 . S
C605 C599 1.491 . S
C605 C604 1.400 . S
C605 C606 1.398 . S
C606 H594 0.950 . S
C606 C605 1.398 . S
C606 C607 1.391 . S
C607 H595 0.950 . S
C607 C603 1.393 . S
C607 C606 1.391 . S
H608 C616 0.950 . S
H609 C621 0.950 . S
H610 C618 0.950 . S
H611 C620 0.950 . S
H612 C622 0.950 . S
H613 C624 0.950 . S
H614 C626 0.950 . S
H615 C627 0.950 . S
C616 H608 0.950 . S
C616 C617 1.386 . S
C616 C618 1.391 . S
C617 C616 1.386 . S
C617 C621 1.393 . S
C618 H610 0.950 . S
C618 C616 1.391 . S
C618 C619 1.400 . S
C619 C618 1.400 . S
C619 C620 1.398 . S
C619 C625 1.491 . S
C620 H611 0.950 . S
C620 C619 1.398 . S
C620 C621 1.391 . S
C621 H609 0.950 . S
C621 C617 1.393 . S
C621 C620 1.391 . S
C622 H612 0.950 . S
C622 C623 1.386 . S
C622 C624 1.391 . S
C623 C622 1.386 . S
C623 C627 1.393 . S
C624 H613 0.950 . S
C624 C622 1.391 . S
C624 C625 1.400 . S
C625 C619 1.491 . S
C625 C624 1.400 . S
C625 C626 1.398 . S
C626 H614 0.950 . S
C626 C625 1.398 . S
C626 C627 1.391 . S
C627 H615 0.950 . S
C627 C623 1.393 . S
C627 C626 1.391 . S
H628 C636 0.950 . S
H629 C641 0.950 . S
H630 C638 0.950 . S
H631 C640 0.950 . S
H632 C642 0.950 . S
H633 C644 0.950 . S
H634 C646 0.950 . S
H635 C647 0.950 . S
C636 H628 0.950 . S
C636 C637 1.386 . S
C636 C638 1.391 . S
C637 C636 1.386 . S
C637 C641 1.393 . S
C638 H630 0.950 . S
C638 C636 1.391 . S
C638 C639 1.400 . S
C639 C638 1.400 . S
C639 C640 1.398 . S
C639 C645 1.491 . S
C640 H631 0.950 . S
C640 C639 1.398 . S
C640 C641 1.391 . S
C641 H629 0.950 . S
C641 C637 1.393 . S
C641 C640 1.391 . S
C642 H632 0.950 . S
C642 C643 1.386 . S
C642 C644 1.391 . S
C643 C642 1.386 . S
C643 C647 1.393 . S
C644 H633 0.950 . S
C644 C642 1.391 . S
C644 C645 1.400 . S
C645 C639 1.491 . S
C645 C644 1.400 . S
C645 C646 1.398 . S
C646 H634 0.950 . S
C646 C645 1.398 . S
C646 C647 1.391 . S
C647 H635 0.950 . S
C647 C643 1.393 . S
C647 C646 1.391 . S
C177 C5 1.507 . S
C183 C107 1.777 . S
C197 C18 1.358 . S
C203 C110 1.360 . S
C223 C146 1.548 . S
C217 C30 1.587 . S
C237 C41 1.350 . S
C243 C166 1.348 1_655 S
C263 C120 1.947 . S
C257 C7 1.868 . S
C283 C97 1.748 . S
C277 C16 1.618 . S
C303 C150 1.563 . S
C297 C29 1.624 . S
C323 C130 1.004 . S
C317 C38 0.930 . S
C337 C8 1.463 . S
C343 C160 1.430 . S
C363 C126 1.812 . S
C357 C27 1.668 . S
C377 C40 1.679 . S
C383 C92 1.670 . S
C397 C19 1.065 . S
C403 C140 1.040 . S
C423 C106 1.560 . S
C417 C51 1.472 . S
C437 C62 1.483 . S
C443 C112 1.472 . S
C457 C74 1.691 . S
C463 C147 1.673 . S
C477 C84 1.440 . S
C483 C167 1.455 . S
C497 C49 1.781 . S
C503 C117 2.023 . S
C523 C100 1.505 . S
C517 C63 1.525 . S
C543 C152 1.470 . S
C537 C71 1.406 . S
C563 C132 1.156 . S
C557 C85 1.229 . S
C577 C52 1.375 . S
C583 C157 1.310 . S
C603 C127 1.876 . S
C597 C73 1.863 . S
C623 C90 1.411 . S
C617 C82 1.359 . S
C637 C60 1.262 . S
C643 C137 1.420 . S
