# Generated by pormake.
# Topology gar, (4,6)-cn, num edge types: 1
# Building blocks:
#     Node 0, Type 0, BuildingBlock: QUQFOY_clean_sbu_3, # of connection points: 4
#     Node 1, Type 0, BuildingBlock: QUQFOY_clean_sbu_3, # of connection points: 4
#     Node 2, Type 0, BuildingBlock: QUQFOY_clean_sbu_3, # of connection points: 4
#     Node 3, Type 0, BuildingBlock: QUQFOY_clean_sbu_3, # of connection points: 4
#     Node 4, Type 0, BuildingBlock: QUQFOY_clean_sbu_3, # of connection points: 4
#     Node 5, Type 0, BuildingBlock: QUQFOY_clean_sbu_3, # of connection points: 4
#     Node 6, Type 0, BuildingBlock: QUQFOY_clean_sbu_3, # of connection points: 4
#     Node 7, Type 0, BuildingBlock: QUQFOY_clean_sbu_3, # of connection points: 4
#     Node 8, Type 0, BuildingBlock: QUQFOY_clean_sbu_3, # of connection points: 4
#     Node 9, Type 0, BuildingBlock: QUQFOY_clean_sbu_3, # of connection points: 4
#     Node 10, Type 0, BuildingBlock: QUQFOY_clean_sbu_3, # of connection points: 4
#     Node 11, Type 0, BuildingBlock: QUQFOY_clean_sbu_3, # of connection points: 4
#     Node 12, Type 0, BuildingBlock: QUQFOY_clean_sbu_3, # of connection points: 4
#     Node 13, Type 0, BuildingBlock: QUQFOY_clean_sbu_3, # of connection points: 4
#     Node 14, Type 0, BuildingBlock: QUQFOY_clean_sbu_3, # of connection points: 4
#     Node 15, Type 0, BuildingBlock: QUQFOY_clean_sbu_3, # of connection points: 4
#     Node 16, Type 0, BuildingBlock: QUQFOY_clean_sbu_3, # of connection points: 4
#     Node 17, Type 0, BuildingBlock: QUQFOY_clean_sbu_3, # of connection points: 4
#     Node 18, Type 0, BuildingBlock: QUQFOY_clean_sbu_3, # of connection points: 4
#     Node 19, Type 0, BuildingBlock: QUQFOY_clean_sbu_3, # of connection points: 4
#     Node 20, Type 0, BuildingBlock: QUQFOY_clean_sbu_3, # of connection points: 4
#     Node 21, Type 0, BuildingBlock: QUQFOY_clean_sbu_3, # of connection points: 4
#     Node 22, Type 0, BuildingBlock: QUQFOY_clean_sbu_3, # of connection points: 4
#     Node 23, Type 0, BuildingBlock: QUQFOY_clean_sbu_3, # of connection points: 4
#     Node 24, Type 1, BuildingBlock: BETDAH_clean_sbu_0, # of connection points: 6
#     Node 25, Type 1, BuildingBlock: BETDAH_clean_sbu_0, # of connection points: 6
#     Node 26, Type 1, BuildingBlock: BETDAH_clean_sbu_0, # of connection points: 6
#     Node 27, Type 1, BuildingBlock: BETDAH_clean_sbu_0, # of connection points: 6
#     Node 28, Type 1, BuildingBlock: BETDAH_clean_sbu_0, # of connection points: 6
#     Node 29, Type 1, BuildingBlock: BETDAH_clean_sbu_0, # of connection points: 6
#     Node 30, Type 1, BuildingBlock: BETDAH_clean_sbu_0, # of connection points: 6
#     Node 31, Type 1, BuildingBlock: BETDAH_clean_sbu_0, # of connection points: 6
#     Node 32, Type 1, BuildingBlock: BETDAH_clean_sbu_0, # of connection points: 6
#     Node 33, Type 1, BuildingBlock: BETDAH_clean_sbu_0, # of connection points: 6
#     Node 34, Type 1, BuildingBlock: BETDAH_clean_sbu_0, # of connection points: 6
#     Node 35, Type 1, BuildingBlock: BETDAH_clean_sbu_0, # of connection points: 6
#     Node 36, Type 1, BuildingBlock: BETDAH_clean_sbu_0, # of connection points: 6
#     Node 37, Type 1, BuildingBlock: BETDAH_clean_sbu_0, # of connection points: 6
#     Node 38, Type 1, BuildingBlock: BETDAH_clean_sbu_0, # of connection points: 6
#     Node 39, Type 1, BuildingBlock: BETDAH_clean_sbu_0, # of connection points: 6
#     Edge 40, Type (0, 1), BuildingBlock: XUDNAN_clean_linker_2, # of connection points: 2
#     Edge 41, Type (0, 1), BuildingBlock: XUDNAN_clean_linker_2, # of connection points: 2
#     Edge 42, Type (0, 1), BuildingBlock: XUDNAN_clean_linker_2, # of connection points: 2
#     Edge 43, Type (0, 1), BuildingBlock: XUDNAN_clean_linker_2, # of connection points: 2
#     Edge 44, Type (0, 1), BuildingBlock: XUDNAN_clean_linker_2, # of connection points: 2
#     Edge 45, Type (0, 1), BuildingBlock: XUDNAN_clean_linker_2, # of connection points: 2
#     Edge 46, Type (0, 1), BuildingBlock: XUDNAN_clean_linker_2, # of connection points: 2
#     Edge 47, Type (0, 1), BuildingBlock: XUDNAN_clean_linker_2, # of connection points: 2
#     Edge 48, Type (0, 1), BuildingBlock: XUDNAN_clean_linker_2, # of connection points: 2
#     Edge 49, Type (0, 1), BuildingBlock: XUDNAN_clean_linker_2, # of connection points: 2
#     Edge 50, Type (0, 1), BuildingBlock: XUDNAN_clean_linker_2, # of connection points: 2
#     Edge 51, Type (0, 1), BuildingBlock: XUDNAN_clean_linker_2, # of connection points: 2
#     Edge 52, Type (0, 1), BuildingBlock: XUDNAN_clean_linker_2, # of connection points: 2
#     Edge 53, Type (0, 1), BuildingBlock: XUDNAN_clean_linker_2, # of connection points: 2
#     Edge 54, Type (0, 1), BuildingBlock: XUDNAN_clean_linker_2, # of connection points: 2
#     Edge 55, Type (0, 1), BuildingBlock: XUDNAN_clean_linker_2, # of connection points: 2
#     Edge 56, Type (0, 1), BuildingBlock: XUDNAN_clean_linker_2, # of connection points: 2
#     Edge 57, Type (0, 1), BuildingBlock: XUDNAN_clean_linker_2, # of connection points: 2
#     Edge 58, Type (0, 1), BuildingBlock: XUDNAN_clean_linker_2, # of connection points: 2
#     Edge 59, Type (0, 1), BuildingBlock: XUDNAN_clean_linker_2, # of connection points: 2
#     Edge 60, Type (0, 1), BuildingBlock: XUDNAN_clean_linker_2, # of connection points: 2
#     Edge 61, Type (0, 1), BuildingBlock: XUDNAN_clean_linker_2, # of connection points: 2
#     Edge 62, Type (0, 1), BuildingBlock: XUDNAN_clean_linker_2, # of connection points: 2
#     Edge 63, Type (0, 1), BuildingBlock: XUDNAN_clean_linker_2, # of connection points: 2
#     Edge 64, Type (0, 1), BuildingBlock: XUDNAN_clean_linker_2, # of connection points: 2
#     Edge 65, Type (0, 1), BuildingBlock: XUDNAN_clean_linker_2, # of connection points: 2
#     Edge 66, Type (0, 1), BuildingBlock: XUDNAN_clean_linker_2, # of connection points: 2
#     Edge 67, Type (0, 1), BuildingBlock: XUDNAN_clean_linker_2, # of connection points: 2
#     Edge 68, Type (0, 1), BuildingBlock: XUDNAN_clean_linker_2, # of connection points: 2
#     Edge 69, Type (0, 1), BuildingBlock: XUDNAN_clean_linker_2, # of connection points: 2
#     Edge 70, Type (0, 1), BuildingBlock: XUDNAN_clean_linker_2, # of connection points: 2
#     Edge 71, Type (0, 1), BuildingBlock: XUDNAN_clean_linker_2, # of connection points: 2
#     Edge 72, Type (0, 1), BuildingBlock: XUDNAN_clean_linker_2, # of connection points: 2
#     Edge 73, Type (0, 1), BuildingBlock: XUDNAN_clean_linker_2, # of connection points: 2
#     Edge 74, Type (0, 1), BuildingBlock: XUDNAN_clean_linker_2, # of connection points: 2
#     Edge 75, Type (0, 1), BuildingBlock: XUDNAN_clean_linker_2, # of connection points: 2
#     Edge 76, Type (0, 1), BuildingBlock: XUDNAN_clean_linker_2, # of connection points: 2
#     Edge 77, Type (0, 1), BuildingBlock: XUDNAN_clean_linker_2, # of connection points: 2
#     Edge 78, Type (0, 1), BuildingBlock: XUDNAN_clean_linker_2, # of connection points: 2
#     Edge 79, Type (0, 1), BuildingBlock: XUDNAN_clean_linker_2, # of connection points: 2
#     Edge 80, Type (0, 1), BuildingBlock: XUDNAN_clean_linker_2, # of connection points: 2
#     Edge 81, Type (0, 1), BuildingBlock: XUDNAN_clean_linker_2, # of connection points: 2
#     Edge 82, Type (0, 1), BuildingBlock: XUDNAN_clean_linker_2, # of connection points: 2
#     Edge 83, Type (0, 1), BuildingBlock: XUDNAN_clean_linker_2, # of connection points: 2
#     Edge 84, Type (0, 1), BuildingBlock: XUDNAN_clean_linker_2, # of connection points: 2
#     Edge 85, Type (0, 1), BuildingBlock: XUDNAN_clean_linker_2, # of connection points: 2
#     Edge 86, Type (0, 1), BuildingBlock: XUDNAN_clean_linker_2, # of connection points: 2
#     Edge 87, Type (0, 1), BuildingBlock: XUDNAN_clean_linker_2, # of connection points: 2
#     Edge 88, Type (0, 1), BuildingBlock: XUDNAN_clean_linker_2, # of connection points: 2
#     Edge 89, Type (0, 1), BuildingBlock: XUDNAN_clean_linker_2, # of connection points: 2
#     Edge 90, Type (0, 1), BuildingBlock: XUDNAN_clean_linker_2, # of connection points: 2
#     Edge 91, Type (0, 1), BuildingBlock: XUDNAN_clean_linker_2, # of connection points: 2
#     Edge 92, Type (0, 1), BuildingBlock: XUDNAN_clean_linker_2, # of connection points: 2
#     Edge 93, Type (0, 1), BuildingBlock: XUDNAN_clean_linker_2, # of connection points: 2
#     Edge 94, Type (0, 1), BuildingBlock: XUDNAN_clean_linker_2, # of connection points: 2
#     Edge 95, Type (0, 1), BuildingBlock: XUDNAN_clean_linker_2, # of connection points: 2
#     Edge 96, Type (0, 1), BuildingBlock: XUDNAN_clean_linker_2, # of connection points: 2
#     Edge 97, Type (0, 1), BuildingBlock: XUDNAN_clean_linker_2, # of connection points: 2
#     Edge 98, Type (0, 1), BuildingBlock: XUDNAN_clean_linker_2, # of connection points: 2
#     Edge 99, Type (0, 1), BuildingBlock: XUDNAN_clean_linker_2, # of connection points: 2
#     Edge 100, Type (0, 1), BuildingBlock: XUDNAN_clean_linker_2, # of connection points: 2
#     Edge 101, Type (0, 1), BuildingBlock: XUDNAN_clean_linker_2, # of connection points: 2
#     Edge 102, Type (0, 1), BuildingBlock: XUDNAN_clean_linker_2, # of connection points: 2
#     Edge 103, Type (0, 1), BuildingBlock: XUDNAN_clean_linker_2, # of connection points: 2
#     Edge 104, Type (0, 1), BuildingBlock: XUDNAN_clean_linker_2, # of connection points: 2
#     Edge 105, Type (0, 1), BuildingBlock: XUDNAN_clean_linker_2, # of connection points: 2
#     Edge 106, Type (0, 1), BuildingBlock: XUDNAN_clean_linker_2, # of connection points: 2
#     Edge 107, Type (0, 1), BuildingBlock: XUDNAN_clean_linker_2, # of connection points: 2
#     Edge 108, Type (0, 1), BuildingBlock: XUDNAN_clean_linker_2, # of connection points: 2
#     Edge 109, Type (0, 1), BuildingBlock: XUDNAN_clean_linker_2, # of connection points: 2
#     Edge 110, Type (0, 1), BuildingBlock: XUDNAN_clean_linker_2, # of connection points: 2
#     Edge 111, Type (0, 1), BuildingBlock: XUDNAN_clean_linker_2, # of connection points: 2
#     Edge 112, Type (0, 1), BuildingBlock: XUDNAN_clean_linker_2, # of connection points: 2
#     Edge 113, Type (0, 1), BuildingBlock: XUDNAN_clean_linker_2, # of connection points: 2
#     Edge 114, Type (0, 1), BuildingBlock: XUDNAN_clean_linker_2, # of connection points: 2
#     Edge 115, Type (0, 1), BuildingBlock: XUDNAN_clean_linker_2, # of connection points: 2
#     Edge 116, Type (0, 1), BuildingBlock: XUDNAN_clean_linker_2, # of connection points: 2
#     Edge 117, Type (0, 1), BuildingBlock: XUDNAN_clean_linker_2, # of connection points: 2
#     Edge 118, Type (0, 1), BuildingBlock: XUDNAN_clean_linker_2, # of connection points: 2
#     Edge 119, Type (0, 1), BuildingBlock: XUDNAN_clean_linker_2, # of connection points: 2
#     Edge 120, Type (0, 1), BuildingBlock: XUDNAN_clean_linker_2, # of connection points: 2
#     Edge 121, Type (0, 1), BuildingBlock: XUDNAN_clean_linker_2, # of connection points: 2
#     Edge 122, Type (0, 1), BuildingBlock: XUDNAN_clean_linker_2, # of connection points: 2
#     Edge 123, Type (0, 1), BuildingBlock: XUDNAN_clean_linker_2, # of connection points: 2
#     Edge 124, Type (0, 1), BuildingBlock: XUDNAN_clean_linker_2, # of connection points: 2
#     Edge 125, Type (0, 1), BuildingBlock: XUDNAN_clean_linker_2, # of connection points: 2
#     Edge 126, Type (0, 1), BuildingBlock: XUDNAN_clean_linker_2, # of connection points: 2
#     Edge 127, Type (0, 1), BuildingBlock: XUDNAN_clean_linker_2, # of connection points: 2
#     Edge 128, Type (0, 1), BuildingBlock: XUDNAN_clean_linker_2, # of connection points: 2
#     Edge 129, Type (0, 1), BuildingBlock: XUDNAN_clean_linker_2, # of connection points: 2
#     Edge 130, Type (0, 1), BuildingBlock: XUDNAN_clean_linker_2, # of connection points: 2
#     Edge 131, Type (0, 1), BuildingBlock: XUDNAN_clean_linker_2, # of connection points: 2
#     Edge 132, Type (0, 1), BuildingBlock: XUDNAN_clean_linker_2, # of connection points: 2
#     Edge 133, Type (0, 1), BuildingBlock: XUDNAN_clean_linker_2, # of connection points: 2
#     Edge 134, Type (0, 1), BuildingBlock: XUDNAN_clean_linker_2, # of connection points: 2
#     Edge 135, Type (0, 1), BuildingBlock: XUDNAN_clean_linker_2, # of connection points: 2
# Relax obj value: 0.189
# Max RMSD: 0.313
# Mean RMSD: 0.156
data_MOF--net-gar--node1-QUQFOY_clean_sbu_3--node2-BETDAH_clean_sbu_0--edge1-XUDNAN_clean_linker_2
_symmetry_space_group_name_H-M    P1
_symmetry_Int_Tables_number       1
_symmetry_cell_setting            triclinic
loop_
_symmetry_equiv_pos_as_xyz
'x, y, z'
_cell_length_a     62.692769
_cell_length_b     58.027387
_cell_length_c     57.874041
_cell_angle_alpha  99.609949
_cell_angle_beta   95.326344
_cell_angle_gamma 103.00145
loop_
_atom_site_label
_atom_site_type_symbol
_atom_site_fract_x
_atom_site_fract_y
_atom_site_fract_z
_atom_type_partial_charge
C0 C 0.07617 0.33986 0.35136 0.0
O1 O 0.08918 0.35181 0.33963 0.0
Cd2 Cd 0.12809 0.36438 0.3508 0.0
O3 O 0.08321 0.33274 0.36945 0.0
Cd4 Cd 0.11711 0.33136 0.39175 0.0
C5 C 0.12281 0.39007 0.40742 0.0
O6 O 0.13643 0.32909 0.35943 0.0
O7 O 0.15636 0.33311 0.39323 0.0
O8 O 0.09674 0.29086 0.38533 0.0
C9 C 0.15498 0.33067 0.37091 0.0
O10 O 0.12809 0.39197 0.38698 0.0
C11 C 0.09899 0.28923 0.40694 0.0
O12 O 0.11778 0.36978 0.41364 0.0
O13 O 0.11077 0.3074 0.42177 0.0
C14 C 0.95639 0.74221 0.67652 0.0
O15 O 0.96694 0.72854 0.68488 0.0
Cd16 Cd 1.00347 0.72616 0.68241 0.0
O17 O 0.96464 0.75619 0.66325 0.0
Cd18 Cd 0.99787 0.75735 0.64558 0.0
C19 C 0.99217 0.69961 0.62565 0.0
O20 O 0.02408 0.7655 0.68048 0.0
O21 O 0.03495 0.7521 0.64744 0.0
O22 O 0.00561 0.79898 0.6407 0.0
C23 C 0.03973 0.76322 0.66871 0.0
O24 O 1.00135 0.69892 0.64594 0.0
C25 C 0.00642 0.79339 0.61869 0.0
O26 O 0.98563 0.71795 0.62181 0.0
O27 O 1.00071 0.77118 0.60924 0.0
C28 C 0.57086 0.83679 0.85575 0.0
O29 O 0.58211 0.84855 0.8425 0.0
Cd30 Cd 0.62046 0.86368 0.85076 0.0
O31 O 0.57964 0.83127 0.87402 0.0
Cd32 Cd 0.61581 0.83305 0.89378 0.0
C33 C 0.61816 0.89217 0.90724 0.0
O34 O 0.62739 0.82682 0.85742 0.0
O35 O 0.65436 0.83537 0.88603 0.0
O36 O 0.59792 0.79215 0.8956 0.0
C37 C 0.64734 0.82819 0.86411 0.0
O38 O 0.62075 0.89365 0.88595 0.0
C39 C 0.60494 0.79448 0.91732 0.0
O40 O 0.61609 0.87243 0.91449 0.0
O41 O 0.61774 0.81457 0.92767 0.0
C42 C 0.46006 0.23883 0.18362 0.0
O43 O 0.47241 0.22643 0.19131 0.0
Cd44 Cd 0.50765 0.22248 0.18373 0.0
O45 O 0.46531 0.25093 0.16765 0.0
Cd46 Cd 0.49713 0.25437 0.14547 0.0
C47 C 0.49395 0.19532 0.12643 0.0
O48 O 0.52528 0.26142 0.17897 0.0
O49 O 0.53517 0.25386 0.14415 0.0
O50 O 0.50321 0.29698 0.14215 0.0
C51 C 0.54054 0.26107 0.1662 0.0
O52 O 0.5029 0.19495 0.14693 0.0
C53 C 0.50406 0.29241 0.12007 0.0
O54 O 0.48781 0.21381 0.12201 0.0
O55 O 0.4982 0.27041 0.10979 0.0
C56 C 0.05367 0.80335 0.15053 0.0
O57 O 0.06918 0.80008 0.16424 0.0
Cd58 Cd 0.10379 0.79576 0.15823 0.0
O59 O 0.0575 0.80878 0.13047 0.0
Cd60 Cd 0.09539 0.81885 0.11282 0.0
C61 C 0.08736 0.76036 0.10032 0.0
O62 O 0.12505 0.82984 0.14867 0.0
O63 O 0.13562 0.81395 0.11758 0.0
O64 O 0.09014 0.85978 0.10903 0.0
C65 C 0.14069 0.82287 0.13953 0.0
O66 O 0.09381 0.76627 0.12244 0.0
C67 C 0.09077 0.85744 0.08689 0.0
O68 O 0.08481 0.77655 0.08864 0.0
O69 O 0.09448 0.83775 0.07685 0.0
C70 C 0.47587 0.77956 0.37738 0.0
O71 O 0.49159 0.79135 0.36849 0.0
Cd72 Cd 0.53093 0.80091 0.37921 0.0
O73 O 0.48019 0.76851 0.39414 0.0
Cd74 Cd 0.51842 0.76589 0.41642 0.0
C75 C 0.52812 0.82647 0.43585 0.0
O76 O 0.54504 0.76833 0.38696 0.0
O77 O 0.55868 0.78151 0.42365 0.0
O78 O 0.51552 0.72283 0.4209 0.0
C79 C 0.56207 0.77634 0.4024 0.0
O80 O 0.5353 0.82906 0.41635 0.0
C81 C 0.51931 0.72745 0.44341 0.0
O82 O 0.5191 0.80571 0.43973 0.0
O83 O 0.52039 0.74906 0.45321 0.0
C84 C 0.55045 0.29966 0.64828 0.0
O85 O 0.56568 0.3011 0.66485 0.0
Cd86 Cd 0.59875 0.29218 0.6546 0.0
O87 O 0.55549 0.30302 0.62796 0.0
Cd88 Cd 0.59334 0.31945 0.61385 0.0
C89 C 0.58298 0.26085 0.59569 0.0
O90 O 0.62222 0.32772 0.64936 0.0
O91 O 0.63274 0.31438 0.61689 0.0
O92 O 0.58624 0.35916 0.61625 0.0
C93 C 0.63777 0.32197 0.63907 0.0
O94 O 0.58827 0.26195 0.61774 0.0
C95 C 0.58707 0.36133 0.59484 0.0
O96 O 0.58292 0.27998 0.58763 0.0
O97 O 0.59206 0.34415 0.5814 0.0
C98 C 0.97253 0.27564 0.87776 0.0
O99 O 0.98716 0.28946 0.86927 0.0
Cd100 Cd 0.02629 0.30006 0.8785 0.0
O101 O 0.97838 0.26424 0.89369 0.0
Cd102 Cd 0.01765 0.26469 0.91659 0.0
C103 C 0.02713 0.32471 0.93707 0.0
O104 O 0.0394 0.26609 0.88374 0.0
O105 O 0.05921 0.27874 0.91752 0.0
O106 O 0.01468 0.22189 0.92173 0.0
C107 C 0.0586 0.27378 0.89528 0.0
O108 O 0.03168 0.32673 0.91641 0.0
C109 C 0.01999 0.22713 0.94409 0.0
O110 O 0.01974 0.30404 0.94206 0.0
O111 O 0.02231 0.24907 0.95358 0.0
C112 C 0.4677 0.02923 0.33189 0.0
O113 O 0.48178 0.02379 0.31891 0.0
Cd114 Cd 0.47925 0.01637 0.27706 0.0
O115 O 0.44976 0.03321 0.32368 0.0
Cd116 Cd 0.43045 0.03298 0.28658 0.0
C117 C 0.43111 0.97418 0.27148 0.0
O118 O 0.46048 0.04495 0.26752 0.0
O119 O 0.42918 0.03343 0.24498 0.0
O120 O 0.42758 0.07168 0.30201 0.0
C121 C 0.4501 0.0393 0.24679 0.0
O122 O 0.45143 0.97899 0.26876 0.0
C123 C 0.40717 0.06717 0.29423 0.0
O124 O 0.42104 0.99024 0.27867 0.0
O125 O 0.39668 0.04523 0.28679 0.0
C126 C 0.32289 0.16731 0.50759 0.0
O127 O 0.30787 0.14816 0.50591 0.0
Cd128 Cd 0.27287 0.1521 0.51452 0.0
O129 O 0.31786 0.18731 0.50645 0.0
Cd130 Cd 0.28213 0.20003 0.49472 0.0
C131 C 0.28945 0.2104 0.55161 0.0
O132 O 0.25375 0.16196 0.48276 0.0
O133 O 0.24125 0.19021 0.50112 0.0
O134 O 0.29012 0.19848 0.45417 0.0
C135 C 0.23726 0.16845 0.49026 0.0
O136 O 0.28343 0.18751 0.54577 0.0
C137 C 0.29003 0.21994 0.45232 0.0
O138 O 0.2909 0.22332 0.53576 0.0
O139 O 0.28647 0.23335 0.47065 0.0
C140 C 0.14092 0.02857 0.82153 0.0
O141 O 0.13368 0.04309 0.81055 0.0
Cd142 Cd 0.1425 0.05188 0.77188 0.0
O143 O 0.15468 0.01722 0.81166 0.0
Cd144 Cd 0.17412 0.01286 0.76788 0.0
C145 C 0.19701 0.08043 0.772 0.0
O146 O 0.13833 0.01509 0.74259 0.0
O147 O 0.16367 0.01079 0.72173 0.0
O148 O 0.17751 0.96646 0.76659 0.0
C149 C 0.14436 0.01415 0.72207 0.0
O150 O 0.17748 0.08293 0.77357 0.0
C151 C 0.198 0.96867 0.7647 0.0
O152 O 0.20047 0.05889 0.77021 0.0
O153 O 0.20764 0.99036 0.76395 0.0
C154 C 0.36299 0.96339 0.0121 0.0
O155 O 0.35652 0.98261 0.01318 0.0
Cd156 Cd 0.32638 0.97372 0.98169 0.0
O157 O 0.35116 0.94432 0.99921 0.0
Cd158 Cd 0.31265 0.93544 1.00095 0.0
C159 C 0.3241 0.9173 0.95043 0.0
O160 O 0.29579 0.9688 1.00343 0.0
O161 O 0.27568 0.93277 0.98694 0.0
O162 O 0.32314 0.93754 0.04226 0.0
C163 C 0.27687 0.9543 0.99705 0.0
O164 O 0.32908 0.93983 0.95048 0.0
C165 C 0.31494 0.9151 0.0405 0.0
O166 O 0.31586 0.90926 0.96744 0.0
O167 O 0.30347 0.90341 0.02109 0.0
C168 C 0.36941 0.43236 0.0307 0.0
O169 O 0.35723 0.44554 0.02442 0.0
Cd170 Cd 0.31833 0.43306 0.0157 0.0
O171 O 0.36069 0.41195 0.03586 0.0
Cd172 Cd 0.32018 0.38973 0.039 0.0
C173 C 0.31124 0.37509 0.98143 0.0
O174 O 0.29954 0.42069 0.04628 0.0
O175 O 0.28152 0.38809 0.0223 0.0
O176 O 0.32012 0.38675 0.08165 0.0
C177 C 0.28129 0.40826 0.03457 0.0
O178 O 0.31108 0.39732 0.98504 0.0
C179 C 0.3159 0.36392 0.07806 0.0
O180 O 0.31611 0.36522 0.99864 0.0
O181 O 0.3146 0.35327 0.05672 0.0
C182 C 0.81997 0.11654 0.03363 0.0
O183 O 0.80424 0.10271 0.04062 0.0
Cd184 Cd 0.76875 0.11055 0.0432 0.0
O185 O 0.81785 0.13583 0.02737 0.0
Cd186 Cd 0.78908 0.15541 0.02274 0.0
C187 C 0.78284 0.16763 0.07773 0.0
O188 O 0.75725 0.12361 0.00871 0.0
O189 O 0.75195 0.15853 0.02375 0.0
O190 O 0.79275 0.15002 0.98254 0.0
C191 C 0.74429 0.13751 0.01152 0.0
O192 O 0.77328 0.14528 0.07371 0.0
C193 C 0.79363 0.17185 0.98169 0.0
O194 O 0.793 0.17726 0.06238 0.0
O195 O 0.79662 0.18694 1.00115 0.0
C196 C 0.14971 0.56381 0.27604 0.0
O197 O 0.13266 0.5633 0.26208 0.0
Cd198 Cd 0.1338 0.56864 0.22184 0.0
O199 O 0.16783 0.56299 0.26869 0.0
Cd200 Cd 0.18265 0.558 0.2334 0.0
C201 C 0.17797 0.61292 0.24394 0.0
O202 O 0.15483 0.54429 0.20245 0.0
O203 O 0.18609 0.566 0.19485 0.0
O204 O 0.17908 0.51933 0.23739 0.0
C205 C 0.16645 0.55331 0.18775 0.0
O206 O 0.16102 0.60671 0.22828 0.0
C207 C 0.19966 0.52154 0.24275 0.0
O208 O 0.18533 0.59756 0.25334 0.0
O209 O 0.21324 0.54171 0.24289 0.0
C210 C 0.86955 0.93043 0.53343 0.0
O211 O 0.85851 0.94518 0.52856 0.0
Cd212 Cd 0.81985 0.93272 0.51652 0.0
O213 O 0.85963 0.90933 0.53615 0.0
Cd214 Cd 0.81864 0.88784 0.53846 0.0
C215 C 0.81212 0.87512 0.48066 0.0
O216 O 0.79937 0.92019 0.54597 0.0
O217 O 0.78018 0.88824 0.52205 0.0
O218 O 0.82164 0.8841 0.58154 0.0
C219 C 0.78083 0.90873 0.53424 0.0
O220 O 0.81284 0.89757 0.48493 0.0
C221 C 0.81346 0.86149 0.57756 0.0
O222 O 0.81557 0.86429 0.49758 0.0
O223 O 0.80886 0.85126 0.55586 0.0
C224 C 0.97092 0.06584 0.3104 0.0
O225 O 0.98242 0.05853 0.29526 0.0
Cd226 Cd 0.95429 0.05171 0.2609 0.0
O227 O 0.95279 0.07072 0.30214 0.0
Cd228 Cd 0.93364 0.0706 0.25549 0.0
C229 C 0.91375 1.00584 0.25441 0.0
O230 O 0.96922 0.06807 0.22914 0.0
O231 O 0.93839 0.06583 0.20938 0.0
O232 O 0.93163 0.1173 0.26567 0.0
C233 C 0.95883 0.0666 0.20873 0.0
O234 O 0.93438 1.00896 0.25375 0.0
C235 C 0.91097 0.11602 0.26116 0.0
O236 O 0.90636 0.02509 0.25564 0.0
O237 O 0.89994 0.09416 0.25401 0.0
C238 C 0.31816 0.61724 0.53125 0.0
O239 O 0.30214 0.60562 0.53989 0.0
Cd240 Cd 0.26697 0.6145 0.54204 0.0
O241 O 0.31713 0.63625 0.52361 0.0
Cd242 Cd 0.2905 0.65914 0.52166 0.0
C243 C 0.28554 0.66804 0.57859 0.0
O244 O 0.25981 0.62703 0.50583 0.0
O245 O 0.25286 0.6606 0.52162 0.0
O246 O 0.29592 0.66574 0.4831 0.0
C247 C 0.24622 0.64011 0.50812 0.0
O248 O 0.27152 0.64781 0.57507 0.0
C249 C 0.2941 0.6873 0.48815 0.0
O250 O 0.29662 0.67499 0.56267 0.0
O251 O 0.29671 0.69707 0.50993 0.0
C252 C 0.47135 0.56104 0.80691 0.0
O253 O 0.47446 0.54327 0.79272 0.0
Cd254 Cd 0.46122 0.53323 0.75032 0.0
O255 O 0.45981 0.57463 0.79855 0.0
Cd256 Cd 0.43495 0.57185 0.75473 0.0
C257 C 0.4102 0.50434 0.7526 0.0
O258 O 0.46846 0.56682 0.72869 0.0
O259 O 0.43855 0.56653 0.70843 0.0
O260 O 0.43039 0.61877 0.75971 0.0
C261 C 0.45869 0.56572 0.70803 0.0
O262 O 0.42757 0.50054 0.74467 0.0
C263 C 0.40954 0.61529 0.75993 0.0
O264 O 0.40892 0.52663 0.75853 0.0
O265 O 0.40044 0.5929 0.75817 0.0
C266 C 0.65278 0.07015 0.77535 0.0
O267 O 0.63421 0.06269 0.76232 0.0
Cd268 Cd 0.63336 0.0657 0.72193 0.0
O269 O 0.67079 0.07076 0.76704 0.0
Cd270 Cd 0.68121 0.05317 0.73071 0.0
C271 C 0.68094 0.11013 0.73452 0.0
O272 O 0.65022 0.03555 0.705 0.0
O273 O 0.67933 0.04998 0.68886 0.0
O274 O 0.67846 0.01902 0.74655 0.0
C275 C 0.65906 0.03886 0.68661 0.0
O276 O 0.66 0.10499 0.72941 0.0
C277 C 0.69894 0.01974 0.74768 0.0
O278 O 0.69179 0.09428 0.73583 0.0
O279 O 0.71154 0.03629 0.73967 0.0
C280 C 0.8237 0.66614 0.00549 0.0
O281 O 0.80878 0.64684 1.00347 0.0
Cd282 Cd 0.77313 0.64946 0.0121 0.0
O283 O 0.81856 0.68604 1.00427 0.0
Cd284 Cd 0.78275 0.69794 0.99252 0.0
C285 C 0.78885 0.70715 0.05034 0.0
O286 O 0.75159 0.66042 0.98267 0.0
O287 O 0.74431 0.69212 1.00181 0.0
O288 O 0.78991 0.7017 0.95085 0.0
C289 C 0.73739 0.66998 0.99223 0.0
O290 O 0.78256 0.68428 0.04412 0.0
C291 C 0.78849 0.72344 0.95291 0.0
O292 O 0.7916 0.72024 0.03464 0.0
O293 O 0.78471 0.73313 0.97306 0.0
C294 C 0.9696 0.53859 0.83543 0.0
O295 O 0.98323 0.53377 0.82155 0.0
Cd296 Cd 0.97917 0.51932 0.78013 0.0
O297 O 0.95 0.53882 0.82829 0.0
Cd298 Cd 0.92945 0.53174 0.79061 0.0
C299 C 0.93615 0.47519 0.78609 0.0
O300 O 0.95439 0.53881 0.76383 0.0
O301 O 0.9221 0.51442 0.75036 0.0
O302 O 0.92118 0.56948 0.79308 0.0
C303 C 0.94122 0.52465 0.74668 0.0
O304 O 0.9553 0.48056 0.77987 0.0
C305 C 0.90042 0.56056 0.78866 0.0
O306 O 0.92494 0.49053 0.7919 0.0
O307 O 0.89316 0.53816 0.78857 0.0
C308 C 0.8647 0.46775 0.50236 0.0
O309 O 0.85875 0.48661 0.49937 0.0
Cd310 Cd 0.82561 0.47509 0.47232 0.0
O311 O 0.8533 0.44753 0.4913 0.0
Cd312 Cd 0.81732 0.43709 0.50136 0.0
C313 C 0.82116 0.4142 0.44947 0.0
O314 O 0.80457 0.47268 0.50403 0.0
O315 O 0.7793 0.43885 0.49593 0.0
O316 O 0.83669 0.44412 0.54109 0.0
C317 C 0.78448 0.46164 0.50248 0.0
O318 O 0.8252 0.43621 0.44731 0.0
C319 C 0.82516 0.42435 0.5445 0.0
O320 O 0.81552 0.40783 0.46832 0.0
O321 O 0.81067 0.4112 0.52785 0.0
C322 C 0.64031 0.52842 0.32156 0.0
O323 O 0.63314 0.54271 0.31025 0.0
Cd324 Cd 0.64439 0.55045 0.27225 0.0
O325 O 0.65435 0.5173 0.31205 0.0
Cd326 Cd 0.67431 0.51387 0.26857 0.0
C327 C 0.69717 0.58145 0.27291 0.0
O328 O 0.63865 0.51527 0.24016 0.0
O329 O 0.66739 0.51396 0.22362 0.0
O330 O 0.67858 0.46665 0.26245 0.0
C331 C 0.6475 0.5157 0.22117 0.0
O332 O 0.67755 0.58357 0.27435 0.0
C333 C 0.69965 0.4706 0.26566 0.0
O334 O 0.70084 0.56001 0.27107 0.0
O335 O 0.7087 0.49323 0.27008 0.0
Ho336 Ho 0.03435 0.03165 1.00133 0.0
Ho337 Ho 0.07521 0.0552 0.03438 0.0
C338 C 0.05238 0.09007 0.00977 0.0
C339 C 0.99297 0.02076 0.98449 0.0
C340 C 0.97821 0.03671 0.98187 0.0
C341 C 0.98434 0.06059 0.99443 0.0
C342 C 0.96944 0.07503 0.99434 0.0
C343 C 0.94792 0.06533 0.98262 0.0
C344 C 0.94254 0.04244 0.96794 0.0
C345 C 0.95775 0.02813 0.96751 0.0
C346 C 0.06709 0.03147 0.97246 0.0
C347 C 0.05812 0.99674 0.0251 0.0
C348 C 0.11677 0.06939 0.05007 0.0
C349 C 0.13392 0.05608 0.04877 0.0
C350 C 0.13096 0.0354 0.03117 0.0
C351 C 0.14563 0.0207 0.03187 0.0
C352 C 0.16336 0.02648 0.0502 0.0
C353 C 0.1665 0.04733 0.06759 0.0
C354 C 0.15172 0.06199 0.06696 0.0
C355 C 0.04215 0.05496 0.06333 0.0
O356 O 0.03784 0.07047 0.99839 0.0
O357 O 0.06855 0.0892 0.0255 0.0
O358 O 0.00873 0.02298 0.97134 0.0
O359 O 1.00004 0.01992 0.00623 0.0
O360 O 0.04646 0.02052 0.96656 0.0
O361 O 0.07004 0.04012 0.99504 0.0
O362 O 0.0741 0.01607 0.03427 0.0
O363 O 0.04021 0.99785 0.01187 0.0
O364 O 0.10175 0.06149 0.06289 0.0
O365 O 0.10832 0.07348 0.03006 0.0
O366 O 0.06306 0.06403 0.06977 0.0
O367 O 0.03954 0.04654 0.04073 0.0
H368 H 0.99988 0.06751 0.00587 0.0
H369 H 0.9737 0.09251 0.00608 0.0
H370 H 0.92585 0.03462 0.95904 0.0
H371 H 0.95297 1.00987 0.95739 0.0
H372 H 0.11705 0.03034 0.0172 0.0
H373 H 0.14323 1.0049 0.01802 0.0
H374 H 0.18017 0.05202 0.0818 0.0
H375 H 0.15387 0.07761 0.08093 0.0
Ho376 Ho 0.31358 0.79556 0.2505 0.0
Ho377 Ho 0.28952 0.80095 0.29153 0.0
C378 C 0.3103 0.84813 0.27575 0.0
C379 C 0.33444 0.79743 0.21448 0.0
C380 C 0.34135 0.81445 0.19934 0.0
C381 C 0.32756 0.82848 0.19185 0.0
C382 C 0.33449 0.84374 0.17644 0.0
C383 C 0.3553 0.84524 0.16886 0.0
C384 C 0.36948 0.83223 0.17743 0.0
C385 C 0.36251 0.81688 0.19268 0.0
C386 C 0.33657 0.79206 0.29148 0.0
C387 C 0.29064 0.74857 0.26482 0.0
C388 C 0.27941 0.79991 0.33325 0.0
C389 C 0.26638 0.78014 0.34271 0.0
C390 C 0.27578 0.76156 0.34814 0.0
C391 C 0.26387 0.74347 0.35809 0.0
C392 C 0.2423 0.74355 0.36288 0.0
C393 C 0.23238 0.76119 0.35601 0.0
C394 C 0.24439 0.77945 0.34609 0.0
C395 C 0.25886 0.79676 0.25296 0.0
O396 O 0.312 0.83426 0.25579 0.0
O397 O 0.30345 0.83925 0.29379 0.0
O398 O 0.3441 0.80438 0.23625 0.0
O399 O 0.31326 0.78747 0.21266 0.0
O400 O 0.3344 0.77737 0.27158 0.0
O401 O 0.32554 0.8076 0.28884 0.0
O402 O 0.28927 0.76218 0.28486 0.0
O403 O 0.29579 0.7576 0.24622 0.0
O404 O 0.26863 0.8089 0.31801 0.0
O405 O 0.29825 0.79685 0.32708 0.0
O406 O 0.25493 0.79818 0.27457 0.0
O407 O 0.27899 0.79635 0.25235 0.0
H408 H 0.31131 0.82709 0.19728 0.0
H409 H 0.3232 0.85335 0.16944 0.0
H410 H 0.38536 0.83292 0.17123 0.0
H411 H 0.37336 0.80631 0.1987 0.0
H412 H 0.29263 0.76137 0.34551 0.0
H413 H 0.27228 0.73051 0.36365 0.0
H414 H 0.21581 0.76164 0.35958 0.0
H415 H 0.23669 0.79339 0.34173 0.0
Ho416 Ho 0.57864 0.04233 0.51523 0.0
Ho417 Ho 0.52932 0.0443 0.51745 0.0
C418 C 0.53927 0.99267 0.50788 0.0
C419 C 0.61741 0.03371 0.51751 0.0
C420 C 0.62779 0.01349 0.51018 0.0
C421 C 0.62352 0.99269 0.52013 0.0
C422 C 0.63702 0.97651 0.51722 0.0
C423 C 0.65502 0.9808 0.50438 0.0
C424 C 0.65767 0.99998 0.49216 0.0
C425 C 0.64415 0.01623 0.49507 0.0
C426 C 0.55467 0.04245 0.47493 0.0
C427 C 0.56757 0.09333 0.52177 0.0
C428 C 0.49052 0.05271 0.5151 0.0
C429 C 0.48033 0.07316 0.52182 0.0
C430 C 0.47558 0.08671 0.50495 0.0
C431 C 0.46308 0.10357 0.50979 0.0
C432 C 0.45505 0.1073 0.5316 0.0
C433 C 0.46073 0.09483 0.54908 0.0
C434 C 0.47324 0.07781 0.54421 0.0
C435 C 0.55297 0.04443 0.55813 0.0
O436 O 0.56052 1.00348 0.51488 0.0
O437 O 0.52434 1.00502 0.50411 0.0
O438 O 0.60926 0.0429 0.50059 0.0
O439 O 0.60522 0.03239 0.53475 0.0
O440 O 0.57528 0.05382 0.48016 0.0
O441 O 0.54829 0.03137 0.49066 0.0
O442 O 0.54667 0.08189 0.51448 0.0
O443 O 0.58282 0.08206 0.52783 0.0
O444 O 0.499 0.04418 0.53234 0.0
O445 O 0.50244 0.05343 0.49764 0.0
O446 O 0.53234 0.03336 0.55252 0.0
O447 O 0.55985 0.05544 0.54243 0.0
H448 H 0.61084 0.9898 0.53156 0.0
H449 H 0.63482 0.96198 0.52704 0.0
H450 H 0.67158 1.00387 0.48244 0.0
H451 H 0.64763 0.03195 0.48694 0.0
H452 H 0.48065 0.08353 0.48754 0.0
H453 H 0.45867 0.11286 0.49599 0.0
H454 H 0.45438 0.09718 0.56588 0.0
H455 H 0.47648 0.06756 0.55759 0.0
Ho456 Ho 0.28236 0.30136 0.7666 0.0
Ho457 Ho 0.32591 0.28834 0.76795 0.0
C458 C 0.30977 0.30218 0.8166 0.0
C459 C 0.24475 0.31022 0.77562 0.0
C460 C 0.2298 0.31101 0.79409 0.0
C461 C 0.22266 0.29171 0.80572 0.0
C462 C 0.20593 0.29214 0.82038 0.0
C463 C 0.19601 0.31175 0.82345 0.0
C464 C 0.20437 0.33162 0.81312 0.0
C465 C 0.22099 0.33122 0.79866 0.0
C466 C 0.31753 0.33863 0.76201 0.0
C467 C 0.29496 0.28104 0.71795 0.0
C468 C 0.3666 0.29313 0.76009 0.0
C469 C 0.37978 0.28554 0.74137 0.0
C470 C 0.39032 0.30266 0.72884 0.0
C471 C 0.40504 0.29717 0.71321 0.0
C472 C 0.40971 0.27434 0.70963 0.0
C473 C 0.39799 0.2567 0.72103 0.0
C474 C 0.38339 0.26228 0.73685 0.0
C475 C 0.29441 0.2452 0.7662 0.0
O476 O 0.29019 0.29676 0.8038 0.0
O477 O 0.32789 0.30253 0.80669 0.0
O478 O 0.26342 0.32656 0.77969 0.0
O479 O 0.24668 0.28931 0.76473 0.0
O480 O 0.2983 0.33241 0.74913 0.0
O481 O 0.31715 0.32389 0.7762 0.0
O482 O 0.31502 0.28542 0.72937 0.0
O483 O 0.27782 0.28299 0.72891 0.0
O484 O 0.35694 0.27746 0.77217 0.0
O485 O 0.35438 0.30755 0.75495 0.0
O486 O 0.31559 0.24785 0.76687 0.0
O487 O 0.29088 0.26618 0.76643 0.0
H488 H 0.22929 0.27593 0.8027 0.0
H489 H 0.19976 0.27652 0.828 0.0
H490 H 0.19715 0.34702 0.8152 0.0
H491 H 0.22623 0.34637 0.79006 0.0
H492 H 0.38788 0.32077 0.73188 0.0
H493 H 0.41369 0.31135 0.70504 0.0
H494 H 0.40059 0.23867 0.71832 0.0
H495 H 0.37543 0.24856 0.74599 0.0
Ho496 Ho 0.05302 0.0665 0.52716 0.0
Ho497 Ho 0.06056 0.02128 0.50832 0.0
C498 C 0.03879 0.04608 0.46977 0.0
C499 C 0.05117 0.11087 0.53386 0.0
C500 C 0.04993 0.12669 0.51679 0.0
C501 C 0.06423 0.12804 0.49945 0.0
C502 C 0.06256 0.14277 0.48306 0.0
C503 C 0.0465 0.15607 0.48373 0.0
C504 C 0.03183 0.15431 0.5005 0.0
C505 C 0.03347 0.13954 0.51693 0.0
C506 C 0.01867 0.02882 0.529 0.0
C507 C 0.07333 0.04159 0.56648 0.0
C508 C 0.06166 0.97679 0.50235 0.0
C509 C 0.06535 0.96181 0.5197 0.0
C510 C 0.05206 0.95924 0.53788 0.0
C511 C 0.05424 0.94289 0.55252 0.0
C512 C 0.06981 0.92906 0.54925 0.0
C513 C 0.08455 0.93351 0.53273 0.0
C514 C 0.08221 0.94965 0.51793 0.0
C515 C 0.09357 0.05762 0.50174 0.0
O516 O 0.04526 0.06543 0.48701 0.0
O517 O 0.0409 0.02499 0.4744 0.0
O518 O 0.03378 0.0931 0.53205 0.0
O519 O 0.06967 0.10426 0.5369 0.0
O520 O 0.02597 0.04745 0.54599 0.0
O521 O 0.02964 0.03154 0.51212 0.0
O522 O 0.07033 0.02325 0.54838 0.0
O523 O 0.06845 0.06179 0.56266 0.0
O524 O 0.07863 0.99382 0.50048 0.0
O525 O 0.04331 0.98385 0.50223 0.0
O526 O 0.08422 0.03823 0.48622 0.0
O527 O 0.08473 0.05702 0.52069 0.0
H528 H 0.07681 0.11794 0.49865 0.0
H529 H 0.07418 0.14436 0.47032 0.0
H530 H 0.01952 0.16477 0.5012 0.0
H531 H 0.02204 0.13829 0.52987 0.0
H532 H 0.03928 0.96895 0.54011 0.0
H533 H 0.04259 0.93973 0.56505 0.0
H534 H 0.09687 0.92324 0.53015 0.0
H535 H 0.09296 0.95186 0.50443 0.0
Ho536 Ho 0.32242 0.80944 0.76321 0.0
Ho537 Ho 0.28231 0.77374 0.76765 0.0
C538 C 0.32635 0.75241 0.76753 0.0
C539 C 0.3621 0.8348 0.77029 0.0
C540 C 0.38242 0.82662 0.77312 0.0
C541 C 0.38531 0.81184 0.78952 0.0
C542 C 0.40548 0.80615 0.79377 0.0
C543 C 0.42289 0.81537 0.78184 0.0
C544 C 0.41924 0.82762 0.76352 0.0
C545 C 0.39899 0.83326 0.75917 0.0
C546 C 0.29923 0.78557 0.72175 0.0
C547 C 0.27841 0.83042 0.76239 0.0
C548 C 0.24289 0.74725 0.76036 0.0
C549 C 0.22231 0.75412 0.75434 0.0
C550 C 0.21918 0.764 0.73404 0.0
C551 C 0.20058 0.77263 0.72963 0.0
C552 C 0.18492 0.77143 0.74536 0.0
C553 C 0.18798 0.76176 0.76567 0.0
C554 C 0.20669 0.75323 0.77021 0.0
C555 C 0.30585 0.7985 0.80849 0.0
O556 O 0.33665 0.77536 0.76712 0.0
O557 O 0.30451 0.74709 0.76737 0.0
O558 O 0.35074 0.82789 0.74917 0.0
O559 O 0.34988 0.83275 0.78739 0.0
O560 O 0.30871 0.80845 0.72605 0.0
O561 O 0.303 0.77688 0.73978 0.0
O562 O 0.26817 0.80706 0.76101 0.0
O563 O 0.30043 0.83647 0.76468 0.0
O564 O 0.25319 0.75716 0.78163 0.0
O565 O 0.25616 0.74746 0.74415 0.0
O566 O 0.29666 0.7756 0.80534 0.0
O567 O 0.30128 0.80666 0.79048 0.0
H568 H 0.3725 0.80584 0.80007 0.0
H569 H 0.40824 0.79704 0.80827 0.0
H570 H 0.43273 0.83503 0.7544 0.0
H571 H 0.39673 0.844 0.74593 0.0
H572 H 0.23108 0.76523 0.7216 0.0
H573 H 0.19808 0.77955 0.71357 0.0
H574 H 0.17576 0.76055 0.77778 0.0
H575 H 0.20904 0.74609 0.78615 0.0
Ho576 Ho 0.5521 0.04368 0.03823 0.0
Ho577 Ho 0.54961 0.04174 0.98732 0.0
C578 C 0.50657 0.02241 1.00385 0.0
C579 C 0.54164 0.04576 0.07999 0.0
C580 C 0.5278 0.02672 0.0895 0.0
C581 C 0.50855 0.03061 0.09814 0.0
C582 C 0.49589 0.01336 0.10855 0.0
C583 C 0.50253 0.99213 0.11072 0.0
C584 C 0.52033 0.98705 0.09963 0.0
C585 C 0.53292 1.00426 0.08901 0.0
C586 C 0.55931 1.0022 0.01478 0.0
C587 C 0.59608 0.05862 0.02021 0.0
C588 C 0.55899 0.04478 0.94607 0.0
C589 C 0.57543 0.06512 0.94104 0.0
C590 C 0.598 0.06878 0.9493 0.0
C591 C 0.61358 0.08717 0.94325 0.0
C592 C 0.60681 0.10121 0.92788 0.0
C593 C 0.58427 0.10044 0.92324 0.0
C594 C 0.56859 0.08215 0.92944 0.0
C595 C 0.54285 0.08277 0.01197 0.0
O596 O 0.51676 0.03796 0.02301 0.0
O597 O 0.51757 0.01631 0.98661 0.0
O598 O 0.56081 0.0426 0.07494 0.0
O599 O 0.53113 0.0536 0.06365 0.0
O600 O 0.5681 0.01274 0.03603 0.0
O601 O 0.54532 0.01292 0.00783 0.0
O602 O 0.58476 0.0458 1.00024 0.0
O603 O 0.58609 0.06571 0.03814 0.0
O604 O 0.5412 0.05011 0.95313 0.0
O605 O 0.56664 0.03063 0.95829 0.0
O606 O 0.53185 0.07114 0.99194 0.0
O607 O 0.55748 0.07252 0.01819 0.0
H608 H 0.50388 0.04745 0.09785 0.0
H609 H 0.48233 0.01789 0.11715 0.0
H610 H 0.52573 0.97083 0.10121 0.0
H611 H 0.54722 1.00041 0.08149 0.0
H612 H 0.60382 0.05659 0.95914 0.0
H613 H 0.63094 0.08752 0.94706 0.0
H614 H 0.57875 0.11127 0.91148 0.0
H615 H 0.55123 0.08045 0.92391 0.0
Ho616 Ho 0.31053 0.32124 0.27585 0.0
Ho617 Ho 0.29307 0.26333 0.25376 0.0
C618 C 0.25842 0.29318 0.26893 0.0
C619 C 0.31913 0.36736 0.28225 0.0
C620 C 0.30427 0.38357 0.2843 0.0
C621 C 0.28953 0.38375 0.2646 0.0
C622 C 0.27337 0.39639 0.26724 0.0
C623 C 0.27159 0.40897 0.28958 0.0
C624 C 0.28678 0.40976 0.30915 0.0
C625 C 0.30306 0.39701 0.30653 0.0
C626 C 0.3078 0.29363 0.31024 0.0
C627 C 0.34491 0.29125 0.26024 0.0
C628 C 0.28684 0.21743 0.24622 0.0
C629 C 0.30256 0.20288 0.2406 0.0
C630 C 0.32299 0.20766 0.25503 0.0
C631 C 0.33729 0.19295 0.25043 0.0
C632 C 0.33142 0.17347 0.23134 0.0
C633 C 0.31178 0.16946 0.21605 0.0
C634 C 0.29741 0.18432 0.22058 0.0
C635 C 0.29559 0.28977 0.21892 0.0
O636 O 0.27341 0.31398 0.27096 0.0
O637 O 0.2626 0.2717 0.26435 0.0
O638 O 0.32029 0.35571 0.29962 0.0
O639 O 0.31773 0.35363 0.26145 0.0
O640 O 0.3149 0.31686 0.31451 0.0
O641 O 0.30372 0.28727 0.28803 0.0
O642 O 0.32977 0.27069 0.25749 0.0
O643 O 0.34147 0.31295 0.26561 0.0
O644 O 0.28131 0.2288 0.22985 0.0
O645 O 0.29091 0.23082 0.26733 0.0
O646 O 0.28845 0.26663 0.21575 0.0
O647 O 0.29971 0.29752 0.24105 0.0
H648 H 0.29002 0.37365 0.24722 0.0
H649 H 0.26214 0.39623 0.25176 0.0
H650 H 0.28571 0.4197 0.32643 0.0
H651 H 0.31427 0.39706 0.32198 0.0
H652 H 0.32763 0.22219 0.27036 0.0
H653 H 0.35226 0.19578 0.26267 0.0
H654 H 0.30708 0.15416 0.20146 0.0
H655 H 0.28197 0.1808 0.209 0.0
Ho656 Ho 0.55419 0.56452 0.02781 0.0
Ho657 Ho 0.56126 0.51927 1.00401 0.0
C658 C 0.54192 0.5482 0.96846 0.0
C659 C 0.55291 0.60891 0.03456 0.0
C660 C 0.54999 0.62385 0.01684 0.0
C661 C 0.56432 0.62663 0.99957 0.0
C662 C 0.56243 0.64239 0.98418 0.0
C663 C 0.54629 0.65558 0.98592 0.0
C664 C 0.53071 0.65107 1.00155 0.0
C665 C 0.53257 0.63532 0.01694 0.0
C666 C 0.51973 0.5263 0.02625 0.0
C667 C 0.57405 0.53597 0.06338 0.0
C668 C 0.56046 0.47423 0.99762 0.0
C669 C 0.5622 0.45884 0.01532 0.0
C670 C 0.54601 0.45451 0.03047 0.0
C671 C 0.54722 0.43894 0.04624 0.0
C672 C 0.56473 0.42753 0.04737 0.0
C673 C 0.58174 0.43335 0.03351 0.0
C674 C 0.58038 0.44869 0.01752 0.0
C675 C 0.59586 0.55716 0.00488 0.0
O676 O 0.54721 0.56553 0.98786 0.0
O677 O 0.54451 0.52643 0.97007 0.0
O678 O 0.53575 0.59165 0.03547 0.0
O679 O 0.57143 0.60211 0.036 0.0
O680 O 0.52683 0.54354 0.04467 0.0
O681 O 0.53095 0.53072 0.00978 0.0
O682 O 0.56923 0.51887 0.04382 0.0
O683 O 0.57074 0.55753 0.06203 0.0
O684 O 0.57827 0.49071 0.99674 0.0
O685 O 0.54257 0.48219 0.99603 0.0
O686 O 0.58889 0.53927 0.98697 0.0
O687 O 0.5847 0.55335 0.02162 0.0
H688 H 0.57755 0.61744 0.99856 0.0
H689 H 0.57479 0.64588 0.97244 0.0
H690 H 0.51828 0.66134 1.00325 0.0
H691 H 0.52104 0.63298 0.02969 0.0
H692 H 0.53201 0.46254 0.02971 0.0
H693 H 0.53375 0.43482 0.05651 0.0
H694 H 0.59571 0.42529 0.03435 0.0
H695 H 0.59334 0.4522 0.0065 0.0
Ho696 Ho 0.82457 0.31006 0.26168 0.0
Ho697 Ho 0.78321 0.27385 0.26813 0.0
C698 C 0.82859 0.25382 0.26849 0.0
C699 C 0.86437 0.33503 0.26936 0.0
C700 C 0.88458 0.32678 0.27332 0.0
C701 C 0.88787 0.3146 0.29194 0.0
C702 C 0.90793 0.30884 0.29685 0.0
C703 C 0.92489 0.31542 0.28338 0.0
C704 C 0.92078 0.32502 0.26321 0.0
C705 C 0.90067 0.33076 0.25823 0.0
C706 C 0.80103 0.28227 0.22223 0.0
C707 C 0.78058 0.33136 0.26193 0.0
C708 C 0.74357 0.24733 0.26135 0.0
C709 C 0.72252 0.25314 0.25446 0.0
C710 C 0.71639 0.25424 0.23075 0.0
C711 C 0.69813 0.26273 0.22453 0.0
C712 C 0.68548 0.27003 0.24178 0.0
C713 C 0.69088 0.26802 0.26529 0.0
C714 C 0.7094 0.25969 0.27163 0.0
C715 C 0.80834 0.29889 0.30746 0.0
O716 O 0.83833 0.277 0.26847 0.0
O717 O 0.80649 0.24741 0.26727 0.0
O718 O 0.85346 0.32777 0.24798 0.0
O719 O 0.85165 0.33368 0.28608 0.0
O720 O 0.81151 0.30447 0.22275 0.0
O721 O 0.80501 0.27643 0.24166 0.0
O722 O 0.76972 0.30829 0.26182 0.0
O723 O 0.80251 0.33645 0.2629 0.0
O724 O 0.75393 0.25785 0.2825 0.0
O725 O 0.75683 0.2476 0.24523 0.0
O726 O 0.79788 0.27645 0.30556 0.0
O727 O 0.80357 0.3068 0.28926 0.0
H728 H 0.87544 0.3106 0.30348 0.0
H729 H 0.91103 0.30177 0.3127 0.0
H730 H 0.93392 0.33043 0.25285 0.0
H731 H 0.89817 0.33952 0.24342 0.0
H732 H 0.72593 0.24907 0.21697 0.0
H733 H 0.69379 0.26342 0.20613 0.0
H734 H 0.68102 0.27325 0.27872 0.0
H735 H 0.71371 0.25888 0.28998 0.0
Ho736 Ho 0.05802 0.54008 0.53803 0.0
Ho737 Ho 0.047 0.54681 0.4883 0.0
C738 C 0.00861 0.52023 0.50931 0.0
C739 C 0.05522 0.53457 0.58048 0.0
C740 C 0.03764 0.51798 0.58843 0.0
C741 C 0.01543 0.51549 0.57959 0.0
C742 C 0.99879 0.49972 0.58728 0.0
C743 C 1.00418 0.48767 0.60519 0.0
C744 C 0.02634 0.488 0.612 0.0
C745 C 0.04306 0.50314 0.60357 0.0
C746 C 0.06327 0.5047 0.5046 0.0
C747 C 0.09706 0.56317 0.51657 0.0
C748 C 0.0504 0.55699 0.44751 0.0
C749 C 0.06958 0.57366 0.44179 0.0
C750 C 0.09105 0.57073 0.44707 0.0
C751 C 0.10906 0.58627 0.44103 0.0
C752 C 0.10557 0.60402 0.42845 0.0
C753 C 0.0848 0.60938 0.42664 0.0
C754 C 0.06677 0.594 0.43298 0.0
C755 C 0.04015 0.58011 0.52228 0.0
O756 O 0.02124 0.53034 0.52953 0.0
O757 O 0.01593 0.52013 0.48877 0.0
O758 O 0.06724 0.52395 0.56715 0.0
O759 O 0.04968 0.5525 0.57246 0.0
O760 O 0.07623 0.51266 0.52439 0.0
O761 O 0.04793 0.5152 0.50367 0.0
O762 O 0.08378 0.55514 0.49647 0.0
O763 O 0.08997 0.56437 0.53715 0.0
O764 O 0.03917 0.56725 0.46217 0.0
O765 O 0.05348 0.53666 0.45243 0.0
O766 O 0.02688 0.5713 0.50281 0.0
O767 O 0.05692 0.57171 0.52271 0.0
H768 H 0.01068 0.52671 0.56794 0.0
H769 H 0.98175 0.49973 0.58195 0.0
H770 H 0.03081 0.47888 0.62592 0.0
H771 H 0.06016 0.50427 0.60986 0.0
H772 H 0.09395 0.55569 0.45455 0.0
H773 H 0.12496 0.58181 0.44256 0.0
H774 H 0.08184 0.62303 0.4169 0.0
H775 H 0.05048 0.59721 0.42977 0.0
Ho776 Ho 0.77948 0.80303 0.26577 0.0
Ho777 Ho 0.8255 0.78739 0.26549 0.0
C778 C 0.80928 0.80401 0.31443 0.0
C779 C 0.74028 0.80804 0.27275 0.0
C780 C 0.72482 0.80625 0.29065 0.0
C781 C 0.72008 0.78639 0.30187 0.0
C782 C 0.70541 0.78564 0.31881 0.0
C783 C 0.69526 0.80479 0.32503 0.0
C784 C 0.70023 0.82468 0.31382 0.0
C785 C 0.71481 0.82537 0.29687 0.0
C786 C 0.81453 0.84259 0.26392 0.0
C787 C 0.79349 0.78294 0.21608 0.0
C788 C 0.86561 0.78812 0.2575 0.0
C789 C 0.87701 0.78114 0.23689 0.0
C790 C 0.88478 0.79787 0.22261 0.0
C791 C 0.89934 0.79322 0.20642 0.0
C792 C 0.90653 0.77183 0.20427 0.0
C793 C 0.89694 0.7541 0.21668 0.0
C794 C 0.88247 0.75875 0.23292 0.0
C795 C 0.79165 0.74705 0.26682 0.0
O796 O 0.7892 0.79852 0.30257 0.0
O797 O 0.82715 0.80374 0.30393 0.0
O798 O 0.75827 0.82529 0.27895 0.0
O799 O 0.74384 0.78827 0.2608 0.0
O800 O 0.79395 0.84289 0.26374 0.0
O801 O 0.81449 0.82072 0.26476 0.0
O802 O 0.81293 0.7828 0.22704 0.0
O803 O 0.77712 0.78836 0.22705 0.0
O804 O 0.8535 0.77101 0.2662 0.0
O805 O 0.85668 0.80631 0.25715 0.0
O806 O 0.8124 0.74758 0.26624 0.0
O807 O 0.79021 0.76883 0.26663 0.0
H808 H 0.72762 0.77144 0.29754 0.0
H809 H 0.70177 0.76982 0.32674 0.0
H810 H 0.69304 0.83988 0.3183 0.0
H811 H 0.71835 0.84099 0.2886 0.0
H812 H 0.88085 0.81529 0.22508 0.0
H813 H 0.90665 0.80734 0.19738 0.0
H814 H 0.9023 0.7375 0.21551 0.0
H815 H 0.87677 0.74541 0.24345 0.0
Ho816 Ho 0.80975 0.29205 0.74895 0.0
Ho817 Ho 0.78417 0.30108 0.78874 0.0
C818 C 0.81373 0.34599 0.77722 0.0
C819 C 0.82198 0.28769 0.70743 0.0
C820 C 0.83519 0.30491 0.6954 0.0
C821 C 0.8349 0.32928 0.70071 0.0
C822 C 0.84298 0.34454 0.68578 0.0
C823 C 0.8514 0.33565 0.66547 0.0
C824 C 0.85443 0.3122 0.66193 0.0
C825 C 0.84627 0.29677 0.67693 0.0
C826 C 0.83848 0.29631 0.78862 0.0
C827 C 0.79142 0.24821 0.77228 0.0
C828 C 0.76181 0.30017 0.82369 0.0
C829 C 0.75546 0.28194 0.83788 0.0
C830 C 0.77004 0.26814 0.84394 0.0
C831 C 0.76305 0.24948 0.85577 0.0
C832 C 0.74159 0.24473 0.86192 0.0
C833 C 0.72687 0.25811 0.85551 0.0
C834 C 0.73377 0.2766 0.8433 0.0
C835 C 0.76382 0.30347 0.74585 0.0
O836 O 0.81418 0.33236 0.7566 0.0
O837 O 0.80508 0.33715 0.79448 0.0
O838 O 0.83258 0.28233 0.72542 0.0
O839 O 0.80282 0.2916 0.71166 0.0
O840 O 0.84337 0.29376 0.76736 0.0
O841 O 0.81856 0.29807 0.78816 0.0
O842 O 0.78742 0.26412 0.78918 0.0
O843 O 0.79712 0.25385 0.75224 0.0
O844 O 0.75278 0.29347 0.80166 0.0
O845 O 0.78284 0.31099 0.82616 0.0
O846 O 0.76616 0.31946 0.76493 0.0
O847 O 0.77361 0.28737 0.7502 0.0
H848 H 0.82647 0.33595 0.71491 0.0
H849 H 0.83923 0.36205 0.6878 0.0
H850 H 0.86044 0.30497 0.64601 0.0
H851 H 0.84692 0.27805 0.6729 0.0
H852 H 0.78677 0.27178 0.83963 0.0
H853 H 0.77471 0.23951 0.86121 0.0
H854 H 0.71048 0.25488 0.86074 0.0
H855 H 0.7223 0.28691 0.83827 0.0
Ho856 Ho 0.81265 0.82007 0.7726 0.0
Ho857 Ho 0.79144 0.76208 0.75661 0.0
C858 C 0.75986 0.79571 0.77026 0.0
C859 C 0.81951 0.86519 0.7735 0.0
C860 C 0.80494 0.88085 0.78086 0.0
C861 C 0.78516 0.87917 0.76632 0.0
C862 C 0.77086 0.89311 0.77363 0.0
C863 C 0.77614 0.90905 0.79544 0.0
C864 C 0.7955 0.91056 0.81031 0.0
C865 C 0.80978 0.89632 0.80313 0.0
C866 C 0.80741 0.79765 0.81071 0.0
C867 C 0.84461 0.78614 0.76244 0.0
C868 C 0.7856 0.71692 0.7548 0.0
C869 C 0.8006 0.70182 0.74709 0.0
C870 C 0.8195 0.70205 0.7623 0.0
C871 C 0.83342 0.68744 0.75525 0.0
C872 C 0.82861 0.67218 0.73292 0.0
C873 C 0.81074 0.67332 0.71702 0.0
C874 C 0.79677 0.68796 0.72409 0.0
C875 C 0.79526 0.78415 0.71814 0.0
O876 O 0.776 0.81512 0.77089 0.0
O877 O 0.76192 0.77332 0.76675 0.0
O878 O 0.82873 0.85658 0.79032 0.0
O879 O 0.8119 0.84904 0.75409 0.0
O880 O 0.81545 0.82056 0.81215 0.0
O881 O 0.80323 0.78865 0.78893 0.0
O882 O 0.82785 0.76729 0.76125 0.0
O883 O 0.84281 0.80856 0.76413 0.0
O884 O 0.77611 0.72564 0.73828 0.0
O885 O 0.79274 0.73271 0.77454 0.0
O886 O 0.78701 0.76144 0.71736 0.0
O887 O 0.80099 0.79352 0.73983 0.0
H888 H 0.78075 0.86729 0.74915 0.0
H889 H 0.75617 0.89232 0.76174 0.0
H890 H 0.79981 0.92322 0.82703 0.0
H891 H 0.82472 0.89762 0.81482 0.0
H892 H 0.82325 0.71293 0.77998 0.0
H893 H 0.84692 0.68675 0.76804 0.0
H894 H 0.80681 0.66176 0.69967 0.0
H895 H 0.78263 0.6879 0.71178 0.0
Ho896 Ho 0.53271 0.53183 0.5012 0.0
Ho897 Ho 0.57579 0.55508 0.53296 0.0
C898 C 0.55214 0.59024 0.50915 0.0
C899 C 0.49126 0.52209 0.48625 0.0
C900 C 0.47715 0.5384 0.48245 0.0
C901 C 0.47998 0.56044 0.49821 0.0
C902 C 0.46412 0.57371 0.49672 0.0
C903 C 0.4454 0.56485 0.47963 0.0
C904 C 0.44437 0.54486 0.46186 0.0
C905 C 0.46019 0.53156 0.46336 0.0
C906 C 0.56512 0.53145 0.47152 0.0
C907 C 0.55627 0.49704 0.52558 0.0
C908 C 0.6176 0.56633 0.54675 0.0
C909 C 0.63334 0.55149 0.54989 0.0
C910 C 0.63454 0.53227 0.53206 0.0
C911 C 0.65078 0.51965 0.53513 0.0
C912 C 0.6658 0.52609 0.55605 0.0
C913 C 0.66322 0.54377 0.57455 0.0
C914 C 0.64718 0.55647 0.57143 0.0
C915 C 0.54323 0.55439 0.56301 0.0
O916 O 0.53611 0.57106 0.49964 0.0
O917 O 0.56959 0.589 0.52304 0.0
O918 O 0.50612 0.52139 0.47205 0.0
O919 O 0.49893 0.52286 0.50823 0.0
O920 O 0.54435 0.52095 0.46572 0.0
O921 O 0.56783 0.53966 0.49408 0.0
O922 O 0.57339 0.51571 0.53269 0.0
O923 O 0.53769 0.49876 0.51404 0.0
O924 O 0.60297 0.56532 0.56136 0.0
O925 O 0.60923 0.56589 0.52509 0.0
O926 O 0.56426 0.56326 0.56911 0.0
O927 O 0.54061 0.54651 0.54035 0.0
H928 H 0.49341 0.56644 0.51271 0.0
H929 H 0.46499 0.58899 0.51072 0.0
H930 H 0.42987 0.53777 0.4487 0.0
H931 H 0.45823 0.51498 0.45068 0.0
H932 H 0.62357 0.52764 0.51549 0.0
H933 H 0.65263 0.50617 0.52055 0.0
H934 H 0.67465 0.54889 0.59083 0.0
H935 H 0.64611 0.5708 0.58556 0.0
Ho936 Ho 0.07918 0.53966 0.0156 0.0
Ho937 Ho 0.03011 0.54254 0.01977 0.0
C938 C 0.03982 0.49085 0.01181 0.0
C939 C 0.11801 0.5314 0.01713 0.0
C940 C 0.12833 0.51143 0.00915 0.0
C941 C 0.12248 0.48936 0.01672 0.0
C942 C 0.13576 0.47301 0.01359 0.0
C943 C 0.15509 0.47849 1.00297 0.0
C944 C 0.15936 0.49908 0.99279 0.0
C945 C 0.14605 0.51549 0.99591 0.0
C946 C 0.05459 0.5401 0.97595 0.0
C947 C 0.06907 0.59137 0.02418 0.0
C948 C 0.99157 0.55173 0.01831 0.0
C949 C 0.98152 0.57249 0.02401 0.0
C950 C 0.97708 0.58549 0.00651 0.0
C951 C 0.96446 0.60239 0.01047 0.0
C952 C 0.95595 0.60667 0.03196 0.0
C953 C 0.96147 0.59488 0.05008 0.0
C954 C 0.97408 0.57782 0.0461 0.0
C955 C 0.0551 0.54277 0.05971 0.0
O956 O 0.06122 0.50151 0.01603 0.0
O957 O 0.02431 0.50263 0.00875 0.0
O958 O 0.10968 0.54092 1.00059 0.0
O959 O 0.10591 0.52941 0.03436 0.0
O960 O 0.07553 0.55013 0.98047 0.0
O961 O 0.04805 0.52925 0.9919 0.0
O962 O 0.04792 0.58053 0.01716 0.0
O963 O 0.08391 0.57908 0.0287 0.0
O964 O 1.0009 0.54473 0.03615 0.0
O965 O 1.00254 0.55069 1.00007 0.0
O966 O 0.03438 0.53182 0.05522 0.0
O967 O 0.06124 0.55322 0.04341 0.0
H968 H 0.10868 0.4855 0.0266 0.0
H969 H 0.13227 0.4573 0.02175 0.0
H970 H 0.17427 0.50381 0.98475 0.0
H971 H 0.15066 0.53223 0.98958 0.0
H972 H 0.98245 0.58184 0.98931 0.0
H973 H 0.96038 0.61129 0.99622 0.0
H974 H 0.95488 0.59769 0.0667 0.0
H975 H 0.9771 0.56801 0.05994 0.0
H976 H 0.02006 0.17932 0.92846 0.0
H977 H 0.03198 0.23449 0.99205 0.0
H978 H 0.04283 0.20616 0.01558 0.0
H979 H 0.99691 0.12883 0.95436 0.0
H980 H 0.0101 0.10848 0.93735 0.0
H981 H 1.00365 0.13327 0.92553 0.0
H982 H 0.04478 0.14799 0.91983 0.0
H983 H 0.05127 0.1233 0.93188 0.0
H984 H 0.06596 0.15385 0.94484 0.0
H985 H 0.05378 0.17181 0.03224 0.0
H986 H 0.06022 0.13322 0.04075 0.0
H987 H 0.03926 0.09996 0.9669 0.0
C988 C 0.02473 0.1854 0.94736 0.0
C989 C 0.02496 0.20921 0.95833 0.0
C990 C 0.0315 0.21639 0.98314 0.0
C991 C 0.03782 0.20042 0.9967 0.0
C992 C 0.03758 0.1772 0.9853 0.0
C993 C 0.03105 0.16964 0.96121 0.0
C994 C 0.03213 0.14367 0.95332 0.0
C995 C 0.00933 0.12762 0.94197 0.0
C996 C 0.04956 0.14212 0.93646 0.0
C997 C 0.03944 0.13755 0.97679 0.0
C998 C 0.04309 0.1573 0.99497 0.0
C999 C 0.05079 0.1562 0.01812 0.0
C1000 C 0.0545 0.13427 0.0228 0.0
C1001 C 0.05005 0.11361 1.00454 0.0
C1002 C 0.04253 0.11541 0.98126 0.0
H1003 H 0.18583 0.84442 0.15605 0.0
H1004 H 0.13408 0.78068 0.15582 0.0
H1005 H 0.15839 0.76752 0.18383 0.0
H1006 H 0.22971 0.8099 0.15659 0.0
H1007 H 0.25053 0.83483 0.17419 0.0
H1008 H 0.22889 0.84039 0.15467 0.0
H1009 H 0.21821 0.86734 0.18986 0.0
H1010 H 0.23984 0.86189 0.2094 0.0
H1011 H 0.21177 0.85526 0.21585 0.0
H1012 H 0.18721 0.76247 0.21458 0.0
H1013 H 0.21991 0.76355 0.2424 0.0
H1014 H 0.25637 0.82675 0.21984 0.0
C1015 C 0.17968 0.82767 0.16187 0.0
C1016 C 0.15734 0.81429 0.15446 0.0
C1017 C 0.15038 0.79214 0.1621 0.0
C1018 C 0.16433 0.78422 0.17784 0.0
C1019 C 0.1859 0.79798 0.18528 0.0
C1020 C 0.19386 0.8189 0.17709 0.0
C1021 C 0.21833 0.82926 0.187 0.0
C1022 C 0.23272 0.82857 0.16692 0.0
C1023 C 0.22226 0.85497 0.20139 0.0
C1024 C 0.22244 0.81162 0.20287 0.0
C1025 C 0.20338 0.7937 0.20146 0.0
C1026 C 0.20237 0.77606 0.21532 0.0
C1027 C 0.22114 0.77673 0.23104 0.0
C1028 C 0.2411 0.79458 0.23279 0.0
C1029 C 0.24172 0.81224 0.21829 0.0
H1030 H 0.5583 0.86114 0.46884 0.0
H1031 H 0.49079 0.84092 0.43375 0.0
H1032 H 0.48555 0.88062 0.45136 0.0
H1033 H 0.54524 0.89811 0.52433 0.0
H1034 H 0.57132 0.92006 0.52813 0.0
H1035 H 0.56933 0.88898 0.51529 0.0
H1036 H 0.58533 0.90237 0.47857 0.0
H1037 H 0.58721 0.93333 0.49134 0.0
H1038 H 0.57197 0.9204 0.46235 0.0
H1039 H 0.48853 0.92278 0.46831 0.0
H1040 H 0.49901 0.96593 0.48558 0.0
H1041 H 0.5645 0.95985 0.51149 0.0
C1042 C 0.54225 0.86492 0.46571 0.0
C1043 C 0.52467 0.848 0.45055 0.0
C1044 C 0.5041 0.85356 0.44596 0.0
C1045 C 0.50103 0.87603 0.45576 0.0
C1046 C 0.51862 0.89252 0.47046 0.0
C1047 C 0.53874 0.88725 0.47586 0.0
C1048 C 0.55503 0.90888 0.49152 0.0
C1049 C 0.56056 0.90369 0.51628 0.0
C1050 C 0.57612 0.9167 0.48024 0.0
C1051 C 0.54133 0.92739 0.49252 0.0
C1052 C 0.52028 0.91733 0.48064 0.0
C1053 C 0.5048 0.93082 0.47813 0.0
C1054 C 0.51096 0.95537 0.48805 0.0
C1055 C 0.53253 0.96627 0.50012 0.0
C1056 C 0.54782 0.95198 0.5026 0.0
H1057 H 0.50912 0.30901 0.63385 0.0
H1058 H 0.54017 0.26393 0.67182 0.0
H1059 H 0.50549 0.24811 0.686 0.0
H1060 H 0.47751 0.32693 0.67346 0.0
H1061 H 0.45191 0.32322 0.65462 0.0
H1062 H 0.47754 0.32778 0.64244 0.0
H1063 H 0.46239 0.28839 0.6114 0.0
H1064 H 0.43654 0.28379 0.62341 0.0
H1065 H 0.45156 0.26064 0.62105 0.0
H1066 H 0.47187 0.24349 0.70323 0.0
H1067 H 0.43848 0.24749 0.72034 0.0
H1068 H 0.42496 0.29252 0.67051 0.0
C1069 C 0.50829 0.29526 0.64451 0.0
C1070 C 0.52763 0.28812 0.65212 0.0
C1071 C 0.52585 0.27013 0.66614 0.0
C1072 C 0.50608 0.26076 0.67416 0.0
C1073 C 0.48771 0.26895 0.66763 0.0
C1074 C 0.48818 0.28523 0.6526 0.0
C1075 C 0.46583 0.29162 0.64992 0.0
C1076 C 0.46837 0.31902 0.65547 0.0
C1077 C 0.45335 0.28046 0.62496 0.0
C1078 C 0.45436 0.27912 0.66827 0.0
C1079 C 0.46707 0.26534 0.67735 0.0
C1080 C 0.46128 0.25348 0.69569 0.0
C1081 C 0.44205 0.25579 0.70527 0.0
C1082 C 0.42854 0.26993 0.69667 0.0
C1083 C 0.43473 0.28145 0.67754 0.0
H1084 H 0.02326 0.84212 0.63454 0.0
H1085 H 0.01366 0.7847 0.57295 0.0
H1086 H 0.035 0.81303 0.55161 0.0
H1087 H 0.01577 0.88725 0.60402 0.0
H1088 H 0.0368 0.91127 0.62268 0.0
H1089 H 0.02329 0.88595 0.63454 0.0
H1090 H 0.06138 0.87834 0.64756 0.0
H1091 H 0.07496 0.90357 0.63545 0.0
H1092 H 0.07982 0.87422 0.62597 0.0
H1093 H 0.05543 0.84623 0.53632 0.0
H1094 H 0.06824 0.88497 0.52444 0.0
H1095 H 0.06379 0.9226 0.59465 0.0
C1096 C 0.02562 0.83559 0.61654 0.0
C1097 C 0.01678 0.81125 0.60535 0.0
C1098 C 0.0202 0.80329 0.58182 0.0
C1099 C 0.03258 0.81914 0.56967 0.0
C1100 C 0.04143 0.84283 0.58129 0.0
C1101 C 0.0379 0.85126 0.60402 0.0
C1102 C 0.04757 0.87823 0.61133 0.0
C1103 C 0.02979 0.89145 0.61854 0.0
C1104 C 0.06708 0.88391 0.63126 0.0
C1105 C 0.05554 0.88371 0.58844 0.0
C1106 C 0.05276 0.86277 0.57188 0.0
C1107 C 0.05801 0.8628 0.54913 0.0
C1108 C 0.06546 0.88494 0.54263 0.0
C1109 C 0.06723 0.90673 0.55872 0.0
C1110 C 0.06278 0.90614 0.58214 0.0
H1111 H 0.53999 0.7982 0.82998 0.0
H1112 H 0.54998 0.86941 0.87307 0.0
H1113 H 0.51144 0.8696 0.86041 0.0
H1114 H 0.51047 0.80657 0.78245 0.0
H1115 H 0.49031 0.77799 0.77507 0.0
H1116 H 0.51692 0.78017 0.79104 0.0
H1117 H 0.49873 0.7631 0.825 0.0
H1118 H 0.47195 0.75991 0.80868 0.0
H1119 H 0.4787 0.77678 0.83861 0.0
H1120 H 0.4772 0.8668 0.83699 0.0
H1121 H 0.44252 0.85705 0.80983 0.0
H1122 H 0.45194 0.7861 0.78312 0.0
C1123 C 0.53353 0.81323 0.83738 0.0
C1124 C 0.54733 0.83378 0.8524 0.0
C1125 C 0.53915 0.85357 0.86163 0.0
C1126 C 0.51744 0.8538 0.85457 0.0
C1127 C 0.50437 0.83388 0.83869 0.0
C1128 C 0.51167 0.81354 0.83076 0.0
C1129 C 0.49447 0.79551 0.81236 0.0
C1130 C 0.5036 0.78974 0.78884 0.0
C1131 C 0.48543 0.77246 0.82173 0.0
C1132 C 0.4772 0.80976 0.8101 0.0
C1133 C 0.48344 0.8318 0.82553 0.0
C1134 C 0.47164 0.84932 0.8254 0.0
C1135 C 0.45226 0.8438 0.80975 0.0
C1136 C 0.44496 0.82096 0.79471 0.0
C1137 C 0.45745 0.80365 0.79465 0.0
H1138 H 0.51355 0.15785 0.12794 0.0
H1139 H 0.47665 0.18993 0.08023 0.0
H1140 H 0.48556 0.164 0.04621 0.0
H1141 H 0.55713 0.15607 0.09736 0.0
H1142 H 0.5608 0.12718 0.10206 0.0
H1143 H 0.5486 0.14487 0.12315 0.0
H1144 H 0.51354 0.10982 0.11849 0.0
H1145 H 0.52642 0.09174 0.09849 0.0
H1146 H 0.49939 0.09562 0.08929 0.0
H1147 H 0.50177 0.13945 0.01803 0.0
H1148 H 0.5203 0.11187 0.9955 0.0
H1149 H 0.54884 0.09679 0.06088 0.0
C1150 C 0.50673 0.15889 0.11036 0.0
C1151 C 0.49449 0.176 0.10669 0.0
C1152 C 0.48606 0.17697 0.08344 0.0
C1153 C 0.49109 0.16239 0.06401 0.0
C1154 C 0.50436 0.14687 0.06824 0.0
C1155 C 0.51167 0.14452 0.09074 0.0
C1156 C 0.52661 0.12723 0.09019 0.0
C1157 C 0.54965 0.1396 0.104 0.0
C1158 C 0.51584 0.10477 0.09966 0.0
C1159 C 0.52738 0.12122 0.0638 0.0
C1160 C 0.51414 0.13259 0.05164 0.0
C1161 C 0.51192 0.13011 0.02722 0.0
C1162 C 0.52264 0.1146 0.01463 0.0
C1163 C 0.53562 0.10202 0.02648 0.0
C1164 C 0.53872 0.10597 0.05144 0.0
H1165 H 0.18564 0.35624 0.34882 0.0
H1166 H 0.15794 0.28518 0.36261 0.0
H1167 H 0.17696 0.26707 0.33154 0.0
H1168 H 0.18226 0.33844 0.28699 0.0
H1169 H 0.20834 0.35638 0.28274 0.0
H1170 H 0.19412 0.36715 0.30645 0.0
H1171 H 0.22603 0.37109 0.33926 0.0
H1172 H 0.24235 0.3643 0.31626 0.0
H1173 H 0.23966 0.34684 0.33933 0.0
H1174 H 0.19706 0.25671 0.29894 0.0
H1175 H 0.22599 0.25475 0.27364 0.0
H1176 H 0.24263 0.33293 0.28212 0.0
C1177 C 0.18433 0.337 0.34573 0.0
C1178 C 0.17105 0.3219 0.35816 0.0
C1179 C 0.16876 0.29679 0.35346 0.0
C1180 C 0.17905 0.2864 0.33563 0.0
C1181 C 0.1915 0.30158 0.32301 0.0
C1182 C 0.19486 0.32637 0.32829 0.0
C1183 C 0.21018 0.33848 0.31285 0.0
C1184 C 0.19798 0.3509 0.29633 0.0
C1185 C 0.23078 0.3562 0.32781 0.0
C1186 C 0.2157 0.31665 0.29902 0.0
C1187 C 0.20391 0.29555 0.30442 0.0
C1188 C 0.20653 0.27305 0.29455 0.0
C1189 C 0.22297 0.2722 0.2801 0.0
C1190 C 0.23689 0.29382 0.2764 0.0
C1191 C 0.23231 0.31617 0.28476 0.0
H1192 H 0.99004 0.04141 0.18897 0.0
H1193 H 0.95331 0.09349 0.17454 0.0
H1194 H 0.96935 0.09563 0.13723 0.0
H1195 H 0.04002 0.06492 0.16348 0.0
H1196 H 0.04323 0.0358 0.14993 0.0
H1197 H 0.02966 0.03881 0.176 0.0
H1198 H 0.99547 1.00625 0.15385 0.0
H1199 H 0.00896 1.00331 0.12768 0.0
H1200 H 0.98226 0.01011 0.12623 0.0
H1201 H 0.98932 0.09143 0.0989 0.0
H1202 H 0.01127 0.08251 0.06646 0.0
H1203 H 0.03605 0.0331 0.10367 0.0
C1204 C 0.98542 0.05345 0.1781 0.0
C1205 C 0.97001 0.06746 0.18559 0.0
C1206 C 0.96466 0.08244 0.16994 0.0
C1207 C 0.97386 0.08379 0.14838 0.0
C1208 C 0.9885 0.06963 0.1414 0.0
C1209 C 0.99422 0.05461 0.15586 0.0
C1210 C 0.00966 0.04054 0.14353 0.0
C1211 C 0.03197 0.04531 0.15917 0.0
C1212 C 0.99843 0.01344 0.13748 0.0
C1213 C 0.01246 0.05063 0.12056 0.0
C1214 C 0.99972 0.06711 0.11952 0.0
C1215 C 0.99909 0.07834 0.09975 0.0
C1216 C 0.01155 0.07289 0.08095 0.0
C1217 C 0.02515 0.05634 0.08128 0.0
C1218 C 0.02554 0.04534 0.10193 0.0
H1219 H 0.28181 0.66833 0.44101 0.0
H1220 H 0.27579 0.72563 0.49689 0.0
H1221 H 0.24806 0.73581 0.47033 0.0
H1222 H 0.28345 0.6986 0.3975 0.0
H1223 H 0.26722 0.67469 0.37426 0.0
H1224 H 0.28143 0.66746 0.39928 0.0
H1225 H 0.24426 0.64124 0.40678 0.0
H1226 H 0.22994 0.6492 0.38192 0.0
H1227 H 0.22115 0.65453 0.41068 0.0
H1228 H 0.22705 0.74472 0.43799 0.0
H1229 H 0.22401 0.75947 0.40113 0.0
H1230 H 0.24176 0.69666 0.36416 0.0
C1231 C 0.27458 0.68299 0.44761 0.0
C1232 C 0.28112 0.69635 0.47091 0.0
C1233 C 0.27132 0.71537 0.47898 0.0
C1234 C 0.25503 0.72081 0.46423 0.0
C1235 C 0.24859 0.70702 0.4415 0.0
C1236 C 0.2583 0.6887 0.43304 0.0
C1237 C 0.2517 0.67995 0.40667 0.0
C1238 C 0.27216 0.68026 0.39368 0.0
C1239 C 0.23583 0.65473 0.40122 0.0
C1240 C 0.23957 0.69864 0.40126 0.0
C1241 C 0.2364 0.71275 0.42185 0.0
C1242 C 0.22888 0.73353 0.42172 0.0
C1243 C 0.227 0.74172 0.40051 0.0
C1244 C 0.23299 0.72925 0.37995 0.0
C1245 C 0.23708 0.70631 0.37979 0.0
H1246 H 0.65543 0.07089 0.6582 0.0
H1247 H 0.62966 0.99774 0.66794 0.0
H1248 H 0.59962 0.99173 0.63535 0.0
H1249 H 0.60245 0.08298 0.64716 0.0
H1250 H 0.60993 0.1013 0.62553 0.0
H1251 H 0.63063 0.09976 0.64858 0.0
H1252 H 0.65436 0.08623 0.61714 0.0
H1253 H 0.63379 0.08782 0.59397 0.0
H1254 H 0.64248 0.06024 0.59404 0.0
H1255 H 0.5718 0.994 0.60542 0.0
H1256 H 0.5471 1.00341 0.57475 0.0
H1257 H 0.59048 0.0749 0.58282 0.0
C1258 C 0.64389 0.05339 0.65266 0.0
C1259 C 0.64487 0.03435 0.66461 0.0
C1260 C 0.62913 0.01207 0.65821 0.0
C1261 C 0.61204 1.00863 0.64002 0.0
C1262 C 0.61107 0.02779 0.62883 0.0
C1263 C 0.62649 0.04973 0.63464 0.0
C1264 C 0.62062 0.06755 0.62035 0.0
C1265 C 0.61561 0.08916 0.63637 0.0
C1266 C 0.6389 0.07593 0.60548 0.0
C1267 C 0.59989 0.05168 0.60518 0.0
C1268 C 0.59459 0.02908 0.61089 0.0
C1269 C 0.57571 0.01149 0.60046 0.0
C1270 C 0.5618 0.017 0.58329 0.0
C1271 C 0.56721 0.0397 0.57675 0.0
C1272 C 0.58639 0.05733 0.58765 0.0
H1273 H 0.32275 0.33343 0.95912 0.0
H1274 H 0.28587 0.38663 0.9476 0.0
H1275 H 0.28242 0.37293 0.90503 0.0
H1276 H 0.35301 0.33517 0.91335 0.0
H1277 H 0.34956 0.30339 0.90251 0.0
H1278 H 0.34721 0.31412 0.93298 0.0
H1279 H 0.30806 0.28591 0.92849 0.0
H1280 H 0.3106 0.27446 0.89819 0.0
H1281 H 0.28744 0.28671 0.90496 0.0
H1282 H 0.28978 0.36158 0.86576 0.0
H1283 H 0.29658 0.34223 0.82714 0.0
H1284 H 0.32449 0.29159 0.85995 0.0
C1285 C 0.31342 0.3416 0.94757 0.0
C1286 C 0.30529 0.36176 0.9567 0.0
C1287 C 0.29292 0.37178 0.94108 0.0
C1288 C 0.29076 0.36409 0.91679 0.0
C1289 C 0.30037 0.34569 0.90823 0.0
C1290 C 0.31044 0.33354 0.9228 0.0
C1291 C 0.31871 0.31387 0.90792 0.0
C1292 C 0.34361 0.31684 0.9146 0.0
C1293 C 0.30542 0.28875 0.91003 0.0
C1294 C 0.31347 0.31872 0.8832 0.0
C1295 C 0.30286 0.33723 0.88419 0.0
C1296 C 0.29733 0.34646 0.86448 0.0
C1297 C 0.30146 0.33553 0.84271 0.0
C1298 C 0.31075 0.31536 0.8407 0.0
C1299 C 0.31738 0.30704 0.86119 0.0
H1300 H 0.01268 0.08054 0.33926 0.0
H1301 H 0.94381 0.04726 0.34097 0.0
H1302 H 0.95376 0.0383 0.38034 0.0
H1303 H 0.03776 0.04252 0.36892 0.0
H1304 H 0.05985 0.06578 0.38694 0.0
H1305 H 0.04787 0.07036 0.35906 0.0
H1306 H 0.03919 0.10948 0.38001 0.0
H1307 H 0.05143 0.10513 0.4079 0.0
H1308 H 0.02353 0.10858 0.40459 0.0
H1309 H 0.97199 0.02836 0.41825 0.0
H1310 H 0.99524 0.02539 0.4541 0.0
H1311 H 0.0522 0.06971 0.43227 0.0
C1312 C 0.99958 0.07181 0.34812 0.0
C1313 C 0.97715 0.06477 0.3365 0.0
C1314 C 0.96088 0.05325 0.3491 0.0
C1315 C 0.9665 0.04785 0.37159 0.0
C1316 C 0.98859 0.0546 0.38225 0.0
C1317 C 1.00484 0.06714 0.37128 0.0
C1318 C 0.02719 0.07331 0.38738 0.0
C1319 C 0.04417 0.06234 0.37481 0.0
C1320 C 0.03585 0.10075 0.39543 0.0
C1321 C 0.02113 0.06147 0.40852 0.0
C1322 C 0.99877 0.05053 0.40496 0.0
C1323 C 0.98939 0.03733 0.42126 0.0
C1324 C 1.00284 0.03562 0.44169 0.0
C1325 C 0.02566 0.04741 0.44656 0.0
C1326 C 0.03483 0.06059 0.42948 0.0
H1327 H 0.2568 0.687 0.60397 0.0
H1328 H 0.32535 0.684 0.60418 0.0
H1329 H 0.33583 0.71478 0.64078 0.0
H1330 H 0.26813 0.75041 0.62275 0.0
H1331 H 0.24656 0.75027 0.64129 0.0
H1332 H 0.24338 0.72626 0.61613 0.0
H1333 H 0.23686 0.69464 0.64306 0.0
H1334 H 0.23957 0.7185 0.66824 0.0
H1335 H 0.25681 0.6975 0.66857 0.0
H1336 H 0.33973 0.74711 0.67398 0.0
H1337 H 0.33638 0.77771 0.70752 0.0
H1338 H 0.26539 0.76047 0.68731 0.0
C1339 C 0.27385 0.6925 0.61224 0.0
C1340 C 0.29041 0.68331 0.60181 0.0
C1341 C 0.31264 0.69104 0.61232 0.0
C1342 C 0.3187 0.70845 0.63293 0.0
C1343 C 0.30226 0.71793 0.64243 0.0
C1344 C 0.28025 0.71016 0.6328 0.0
C1345 C 0.26626 0.72431 0.64637 0.0
C1346 C 0.25545 0.73866 0.63069 0.0
C1347 C 0.24885 0.70774 0.65722 0.0
C1348 C 0.28395 0.74096 0.66514 0.0
C1349 C 0.30457 0.73708 0.66214 0.0
C1350 C 0.32374 0.7504 0.67666 0.0
C1351 C 0.32173 0.76783 0.69536 0.0
C1352 C 0.30072 0.77141 0.69929 0.0
C1353 C 0.28158 0.75812 0.68406 0.0
H1354 H 0.63033 0.04579 0.80408 0.0
H1355 H 0.67679 0.11281 0.80221 0.0
H1356 H 0.67267 0.1289 0.84372 0.0
H1357 H 0.59365 0.06874 0.83228 0.0
H1358 H 0.58704 0.04629 0.85032 0.0
H1359 H 0.59684 0.03867 0.82257 0.0
H1360 H 0.6293 0.02518 0.84302 0.0
H1361 H 0.61908 0.0317 0.87086 0.0
H1362 H 0.64726 0.04531 0.86788 0.0
H1363 H 0.65869 0.13882 0.88384 0.0
H1364 H 0.63864 0.13983 0.91929 0.0
H1365 H 0.6022 0.06595 0.8919 0.0
C1366 C 0.63997 0.06362 0.8127 0.0
C1367 C 0.65353 0.07833 0.80045 0.0
C1368 C 0.66623 0.1015 0.81182 0.0
C1369 C 0.66402 0.11069 0.83523 0.0
C1370 C 0.64954 0.09603 0.84669 0.0
C1371 C 0.63822 0.07275 0.83587 0.0
C1372 C 0.62261 0.06093 0.85089 0.0
C1373 C 0.59863 0.05324 0.83826 0.0
C1374 C 0.63002 0.03952 0.85862 0.0
C1375 C 0.62585 0.08159 0.87129 0.0
C1376 C 0.64164 0.10166 0.86907 0.0
C1377 C 0.64653 0.12308 0.88594 0.0
C1378 C 0.6351 0.12363 0.90579 0.0
C1379 C 0.61907 0.10297 0.90785 0.0
C1380 C 0.61447 0.08194 0.89045 0.0
H1381 H 0.30557 0.37826 0.1234 0.0
H1382 H 0.31981 0.31826 0.07689 0.0
H1383 H 0.31745 0.29515 0.10883 0.0
H1384 H 0.33476 0.37258 0.17764 0.0
H1385 H 0.3142 0.37832 0.19615 0.0
H1386 H 0.31666 0.39105 0.16988 0.0
H1387 H 0.27538 0.37109 0.15456 0.0
H1388 H 0.27282 0.3586 0.18097 0.0
H1389 H 0.26519 0.33905 0.1523 0.0
H1390 H 0.31719 0.27981 0.14509 0.0
H1391 H 0.31217 0.26854 0.18329 0.0
H1392 H 0.29428 0.33567 0.20822 0.0
C1393 C 0.30822 0.36026 0.12005 0.0
C1394 C 0.31333 0.35022 0.09765 0.0
C1395 C 0.31614 0.32644 0.09381 0.0
C1396 C 0.31487 0.31317 0.1119 0.0
C1397 C 0.31036 0.32366 0.13377 0.0
C1398 C 0.30648 0.34635 0.13795 0.0
C1399 C 0.30093 0.35241 0.16313 0.0
C1400 C 0.31764 0.37494 0.17755 0.0
C1401 C 0.27717 0.35547 0.16271 0.0
C1402 C 0.30316 0.32987 0.17252 0.0
C1403 C 0.30878 0.31382 0.15503 0.0
C1404 C 0.31249 0.29203 0.15883 0.0
C1405 C 0.30966 0.28589 0.18076 0.0
C1406 C 0.30276 0.30112 0.19885 0.0
C1407 C 0.29983 0.32377 0.19489 0.0
H1408 H 0.27328 0.99893 0.01598 0.0
H1409 H 0.23826 0.92332 1.00104 0.0
H1410 H 0.20795 0.9336 0.02152 0.0
H1411 H 0.25472 0.0152 0.07449 0.0
H1412 H 0.25226 0.04417 0.0688 0.0
H1413 H 0.27281 0.03048 0.05638 0.0
H1414 H 0.25727 0.03385 0.0144 0.0
H1415 H 0.23686 0.04773 0.02653 0.0
H1416 H 0.22838 0.02097 1.00371 0.0
H1417 H 0.18 0.95196 0.03821 0.0
H1418 H 0.1543 0.97784 0.0469 0.0
H1419 H 0.20758 0.04142 0.05168 0.0
C1420 C 0.25927 0.98454 0.01718 0.0
C1421 C 0.25788 0.96043 0.00687 0.0
C1422 C 0.23938 0.942 0.00858 0.0
C1423 C 0.22234 0.94759 0.02056 0.0
C1424 C 0.22427 0.97157 0.03073 0.0
C1425 C 0.24219 0.98978 0.02904 0.0
C1426 C 0.239 0.01436 0.03875 0.0
C1427 C 0.25569 0.02677 0.06093 0.0
C1428 C 0.24044 0.03013 0.01971 0.0
C1429 C 0.21583 1.00716 0.04483 0.0
C1430 C 0.20792 0.98236 0.04073 0.0
C1431 C 0.18606 0.97137 0.0421 0.0
C1432 C 0.17161 0.98613 0.04689 0.0
C1433 C 0.17922 0.01144 0.05013 0.0
C1434 C 0.20168 0.02209 0.04995 0.0
H1435 H 0.70884 0.62819 0.96569 0.0
H1436 H 0.71909 0.67792 0.03283 0.0
H1437 H 0.68525 0.65382 0.04403 0.0
H1438 H 0.64963 0.61979 0.95654 0.0
H1439 H 0.64397 0.58841 0.94279 0.0
H1440 H 0.66977 0.60864 0.94058 0.0
H1441 H 0.69117 0.58094 0.95844 0.0
H1442 H 0.6654 0.56065 0.9607 0.0
H1443 H 0.68564 0.5732 0.98657 0.0
H1444 H 0.64959 0.62434 0.04787 0.0
H1445 H 0.6145 0.59315 0.04316 0.0
H1446 H 0.62579 0.56341 0.9728 0.0
C1447 C 0.70396 0.63392 0.98276 0.0
C1448 C 0.71665 0.65509 0.99831 0.0
C1449 C 0.70958 0.662 0.02045 0.0
C1450 C 0.6904 0.64831 0.02706 0.0
C1451 C 0.67807 0.62777 0.01124 0.0
C1452 C 0.68447 0.62068 0.98945 0.0
C1453 C 0.66758 0.59856 0.97528 0.0
C1454 C 0.65713 0.60419 0.95244 0.0
C1455 C 0.67808 0.57706 0.96994 0.0
C1456 C 0.65077 0.59429 0.99243 0.0
C1457 C 0.65724 0.61124 0.01317 0.0
C1458 C 0.64437 0.61106 0.03163 0.0
C1459 C 0.62438 0.59328 0.02878 0.0
C1460 C 0.61718 0.57588 0.00755 0.0
C1461 C 0.63071 0.57647 0.98921 0.0
H1462 H 0.68753 0.41709 0.25414 0.0
H1463 H 0.74458 0.47797 0.27526 0.0
H1464 H 0.76876 0.45007 0.27575 0.0
H1465 H 0.7069 0.37626 0.28869 0.0
H1466 H 0.69736 0.34921 0.26632 0.0
H1467 H 0.68357 0.37337 0.26676 0.0
H1468 H 0.6897 0.37481 0.22362 0.0
H1469 H 0.70358 0.35071 0.22314 0.0
H1470 H 0.71727 0.37879 0.21577 0.0
H1471 H 0.78833 0.4159 0.27503 0.0
H1472 H 0.80149 0.37921 0.27306 0.0
H1473 H 0.73411 0.33593 0.25229 0.0
C1474 C 0.70512 0.42469 0.25891 0.0
C1475 C 0.71355 0.45082 0.26491 0.0
C1476 C 0.73696 0.45883 0.27069 0.0
C1477 C 0.75112 0.4428 0.27102 0.0
C1478 C 0.74246 0.41773 0.26536 0.0
C1479 C 0.71994 0.40849 0.2592 0.0
C1480 C 0.71557 0.38038 0.25361 0.0
C1481 C 0.69991 0.36913 0.26981 0.0
C1482 C 0.70594 0.37059 0.22749 0.0
C1483 C 0.73887 0.37546 0.25857 0.0
C1484 C 0.75397 0.39762 0.26495 0.0
C1485 C 0.77645 0.39861 0.27005 0.0
C1486 C 0.78389 0.3771 0.26879 0.0
C1487 C 0.76947 0.35347 0.26254 0.0
C1488 C 0.74619 0.35306 0.25734 0.0
H1489 H 0.89041 0.50695 0.53172 0.0
H1490 H 0.88391 0.43079 0.50722 0.0
H1491 H 0.92298 0.43579 0.5208 0.0
H1492 H 0.92516 0.52495 0.50556 0.0
H1493 H 0.94392 0.55051 0.52486 0.0
H1494 H 0.91611 0.54147 0.53054 0.0
H1495 H 0.92873 0.53632 0.57273 0.0
H1496 H 0.95699 0.54666 0.5678 0.0
H1497 H 0.94822 0.51839 0.5773 0.0
H1498 H 0.95947 0.44993 0.51285 0.0
H1499 H 0.9928 0.47203 0.49892 0.0
H1500 H 0.97786 0.53972 0.5264 0.0
C1501 C 0.89728 0.49133 0.53037 0.0
C1502 C 0.88503 0.46899 0.51732 0.0
C1503 C 0.89357 0.4484 0.5164 0.0
C1504 C 0.91572 0.45103 0.52442 0.0
C1505 C 0.92873 0.47427 0.53306 0.0
C1506 C 0.91965 0.49415 0.53748 0.0
C1507 C 0.93694 0.51757 0.54001 0.0
C1508 C 0.93011 0.53454 0.52427 0.0
C1509 C 0.94308 0.53046 0.56602 0.0
C1510 C 0.9555 0.50762 0.53145 0.0
C1511 C 0.95096 0.48277 0.52855 0.0
C1512 C 0.96374 0.46943 0.5162 0.0
C1513 C 0.98204 0.4819 0.50757 0.0
C1514 C 0.98694 0.50719 0.51127 0.0
C1515 C 0.97377 0.52019 0.5233 0.0
H1516 H 0.36662 0.07703 0.2953 0.0
H1517 H 0.42989 0.09722 0.26987 0.0
H1518 H 0.41509 0.12231 0.24542 0.0
H1519 H 0.33108 0.07483 0.24318 0.0
H1520 H 0.31231 0.08952 0.25808 0.0
H1521 H 0.32744 0.07226 0.27327 0.0
H1522 H 0.34377 0.10931 0.30715 0.0
H1523 H 0.32807 0.12639 0.29246 0.0
H1524 H 0.35758 0.13747 0.29999 0.0
H1525 H 0.39427 0.14559 0.22462 0.0
H1526 H 0.36973 0.17121 0.21356 0.0
H1527 H 0.32025 0.13596 0.25213 0.0
C1528 C 0.37733 0.08713 0.28488 0.0
C1529 C 0.3993 0.08566 0.28458 0.0
C1530 C 0.41306 0.0988 0.2707 0.0
C1531 C 0.40475 0.11269 0.25643 0.0
C1532 C 0.38281 0.11341 0.25662 0.0
C1533 C 0.36946 0.10161 0.27095 0.0
C1534 C 0.34721 0.10738 0.26953 0.0
C1535 C 0.32841 0.08462 0.26046 0.0
C1536 C 0.34397 0.12095 0.2937 0.0
C1537 C 0.34998 0.12364 0.25164 0.0
C1538 C 0.37062 0.12681 0.24433 0.0
C1539 C 0.37786 0.14301 0.22976 0.0
C1540 C 0.3639 0.15725 0.22339 0.0
C1541 C 0.34312 0.15464 0.23143 0.0
C1542 C 0.33578 0.13724 0.24502 0.0
H1543 H 0.33984 0.13049 0.48993 0.0
H1544 H 0.35763 0.1998 0.53766 0.0
H1545 H 0.39386 0.1921 0.55111 0.0
H1546 H 0.36232 0.09832 0.52766 0.0
H1547 H 0.3715 0.07962 0.50446 0.0
H1548 H 0.34802 0.09162 0.49792 0.0
H1549 H 0.36675 0.11169 0.46559 0.0
H1550 H 0.38997 0.0991 0.47154 0.0
H1551 H 0.39423 0.13113 0.47311 0.0
H1552 H 0.42788 0.17405 0.56073 0.0
H1553 H 0.4566 0.15046 0.56136 0.0
H1554 H 0.41465 0.0941 0.50682 0.0
C1555 C 0.35151 0.1443 0.50289 0.0
C1556 C 0.34606 0.16577 0.51261 0.0
C1557 C 0.3617 0.18337 0.52967 0.0
C1558 C 0.38217 0.17899 0.53759 0.0
C1559 C 0.38667 0.15707 0.52808 0.0
C1560 C 0.37179 0.1403 0.51076 0.0
C1561 C 0.37996 0.11809 0.50314 0.0
C1562 C 0.36454 0.09559 0.50863 0.0
C1563 C 0.38291 0.11482 0.47679 0.0
C1564 C 0.40188 0.12474 0.51871 0.0
C1565 C 0.40562 0.14714 0.53326 0.0
C1566 C 0.42507 0.15662 0.54921 0.0
C1567 C 0.44122 0.14315 0.54957 0.0
C1568 C 0.43772 0.12071 0.53394 0.0
C1569 C 0.41768 0.11134 0.51879 0.0
H1570 H 0.71074 0.62806 0.30199 0.0
H1571 H 0.72143 0.58743 0.23606 0.0
H1572 H 0.74334 0.62508 0.22665 0.0
H1573 H 0.70678 0.68266 0.28348 0.0
H1574 H 0.72286 0.70301 0.30939 0.0
H1575 H 0.70829 0.67305 0.31154 0.0
H1576 H 0.74459 0.66463 0.32894 0.0
H1577 H 0.7592 0.69473 0.32726 0.0
H1578 H 0.76819 0.66913 0.31316 0.0
H1579 H 0.76339 0.66843 0.22335 0.0
H1580 H 0.78367 0.71091 0.22868 0.0
H1581 H 0.7628 0.7257 0.29765 0.0
C1582 C 0.71813 0.62694 0.28579 0.0
C1583 C 0.71438 0.60403 0.26999 0.0
C1584 C 0.72423 0.60407 0.24887 0.0
C1585 C 0.73661 0.62567 0.24323 0.0
C1586 C 0.73975 0.64777 0.25897 0.0
C1587 C 0.73131 0.64847 0.28021 0.0
C1588 C 0.7382 0.67456 0.2945 0.0
C1589 C 0.71781 0.68387 0.30006 0.0
C1590 C 0.75344 0.67584 0.31733 0.0
C1591 C 0.75096 0.68866 0.27765 0.0
C1592 C 0.75156 0.67265 0.25724 0.0
C1593 C 0.76272 0.68092 0.23924 0.0
C1594 C 0.77397 0.70555 0.24225 0.0
C1595 C 0.77416 0.72281 0.2629 0.0
C1596 C 0.76231 0.71381 0.28098 0.0
H1597 H 0.90854 0.44594 0.74982 0.0
H1598 H 0.9379 0.4518 0.82199 0.0
H1599 H 0.90598 0.42084 0.82808 0.0
H1600 H 0.85652 0.44324 0.76123 0.0
H1601 H 0.84189 0.42124 0.7357 0.0
H1602 H 0.86862 0.43998 0.73415 0.0
H1603 H 0.88442 0.40275 0.7218 0.0
H1604 H 0.85717 0.3845 0.72177 0.0
H1605 H 0.88037 0.37901 0.73878 0.0
H1606 H 0.86847 0.39863 0.82937 0.0
H1607 H 0.8326 0.36949 0.82117 0.0
H1608 H 0.82793 0.37592 0.74719 0.0
C1609 C 0.90884 0.43937 0.7663 0.0
C1610 C 0.92544 0.45052 0.78543 0.0
C1611 C 0.9253 0.44269 0.80716 0.0
C1612 C 0.90711 0.42564 0.81088 0.0
C1613 C 0.88976 0.41689 0.79249 0.0
C1614 C 0.89083 0.42241 0.77026 0.0
C1615 C 0.8695 0.411 0.75396 0.0
C1616 C 0.85851 0.43002 0.7458 0.0
C1617 C 0.87318 0.39323 0.73283 0.0
C1618 C 0.85637 0.39824 0.7706 0.0
C1619 C 0.86813 0.40284 0.79296 0.0
C1620 C 0.85929 0.39414 0.81177 0.0
C1621 C 0.83875 0.3779 0.80694 0.0
C1622 C 0.82817 0.36997 0.78331 0.0
C1623 C 0.8361 0.38151 0.76526 0.0
H1624 H 0.08267 0.90184 0.10391 0.0
H1625 H 0.08858 0.85552 0.03895 0.0
H1626 H 0.0795 0.88522 0.01607 0.0
H1627 H 0.03686 0.9231 0.07965 0.0
H1628 H 0.04672 0.9533 0.09669 0.0
H1629 H 0.05331 0.92832 0.10813 0.0
H1630 H 0.09512 0.94911 0.11291 0.0
H1631 H 0.08852 0.9742 0.10175 0.0
H1632 H 0.10706 0.95843 0.08776 0.0
H1633 H 0.06814 0.91956 0.99983 0.0
H1634 H 0.05965 0.95767 0.99238 0.0
H1635 H 0.06348 0.98284 0.06778 0.0
C1636 C 0.08216 0.89795 0.08488 0.0
C1637 C 0.08637 0.87616 0.07331 0.0
C1638 C 0.08546 0.87195 0.04833 0.0
C1639 C 0.08022 0.88872 0.03513 0.0
C1640 C 0.07594 0.90982 0.04705 0.0
C1641 C 0.07709 0.91462 0.07141 0.0
C1642 C 0.07215 0.93889 0.07992 0.0
C1643 C 0.05101 0.93571 0.0918 0.0
C1644 C 0.0919 0.95618 0.09657 0.0
C1645 C 0.06859 0.94722 0.05665 0.0
C1646 C 0.07033 0.92995 0.03782 0.0
C1647 C 0.06691 0.93324 0.0145 0.0
C1648 C 0.06198 0.95485 0.01039 0.0
C1649 C 0.061 0.97311 0.02948 0.0
C1650 C 0.06427 0.96916 0.05288 0.0
H1651 H 0.95677 0.31071 0.86105 0.0
H1652 H 0.93444 0.23823 0.87383 0.0
H1653 H 0.8965 0.23681 0.85539 0.0
H1654 H 0.90607 0.32991 0.87237 0.0
H1655 H 0.90852 0.34821 0.85001 0.0
H1656 H 0.93296 0.34354 0.86561 0.0
H1657 H 0.94509 0.32745 0.82576 0.0
H1658 H 0.92073 0.33199 0.81002 0.0
H1659 H 0.92656 0.30263 0.80527 0.0
H1660 H 0.86053 0.24357 0.83316 0.0
H1661 H 0.83223 0.25653 0.80899 0.0
H1662 H 0.87917 0.32405 0.81013 0.0
C1663 C 0.94392 0.2945 0.86023 0.0
C1664 C 0.9488 0.27454 0.86903 0.0
C1665 C 0.93127 0.25386 0.86755 0.0
C1666 C 0.90963 0.25293 0.85699 0.0
C1667 C 0.90557 0.27294 0.84827 0.0
C1668 C 0.92237 0.29339 0.84999 0.0
C1669 C 0.91428 0.3124 0.83891 0.0
C1670 C 0.91554 0.33485 0.85785 0.0
C1671 C 0.92744 0.31898 0.81879 0.0
C1672 C 0.89041 0.29927 0.82968 0.0
C1673 C 0.88545 0.27671 0.83567 0.0
C1674 C 0.86432 0.26134 0.8288 0.0
C1675 C 0.84817 0.26897 0.81528 0.0
C1676 C 0.85311 0.29168 0.80837 0.0
C1677 C 0.87458 0.30695 0.81581 0.0
H1678 H 0.58172 0.21743 0.60817 0.0
H1679 H 0.57275 0.25022 0.54694 0.0
H1680 H 0.56791 0.21047 0.52071 0.0
H1681 H 0.61401 0.18071 0.58597 0.0
H1682 H 0.60201 0.15544 0.5989 0.0
H1683 H 0.60184 0.18552 0.61285 0.0
H1684 H 0.55917 0.17325 0.61107 0.0
H1685 H 0.55927 0.14289 0.59781 0.0
H1686 H 0.54234 0.15892 0.58319 0.0
H1687 H 0.56537 0.16684 0.50138 0.0
H1688 H 0.56453 0.12332 0.49097 0.0
H1689 H 0.57837 0.12128 0.56517 0.0
C1690 C 0.57852 0.21636 0.58926 0.0
C1691 C 0.57785 0.23703 0.57962 0.0
C1692 C 0.57346 0.23465 0.55474 0.0
C1693 C 0.57068 0.21217 0.53973 0.0
C1694 C 0.5723 0.19236 0.54992 0.0
C1695 C 0.57586 0.19427 0.57415 0.0
C1696 C 0.57778 0.17069 0.58088 0.0
C1697 C 0.60025 0.17326 0.5955 0.0
C1698 C 0.55849 0.16086 0.59401 0.0
C1699 C 0.57582 0.15539 0.55665 0.0
C1700 C 0.57211 0.16795 0.53894 0.0
C1701 C 0.56855 0.15698 0.5151 0.0
C1702 C 0.56834 0.13244 0.50933 0.0
C1703 C 0.57228 0.11956 0.5273 0.0
C1704 C 0.57629 0.13119 0.55116 0.0
H1705 H 0.57749 0.80153 0.36848 0.0
H1706 H 0.59779 0.76483 0.42284 0.0
H1707 H 0.63572 0.77286 0.41223 0.0
H1708 H 0.60632 0.78355 0.32484 0.0
H1709 H 0.61548 0.81219 0.31609 0.0
H1710 H 0.5908 0.80618 0.32985 0.0
H1711 H 0.60687 0.84449 0.36214 0.0
H1712 H 0.63172 0.85062 0.34845 0.0
H1713 H 0.63339 0.84818 0.37915 0.0
H1714 H 0.6698 0.78033 0.39273 0.0
H1715 H 0.69794 0.78694 0.36595 0.0
H1716 H 0.65643 0.82019 0.32463 0.0
C1717 C 0.59004 0.79534 0.37814 0.0
C1718 C 0.58474 0.7821 0.39613 0.0
C1719 C 0.60156 0.77478 0.40887 0.0
C1720 C 0.62315 0.77942 0.40307 0.0
C1721 C 0.62787 0.79219 0.38504 0.0
C1722 C 0.61194 0.80055 0.37308 0.0
C1723 C 0.62148 0.81358 0.35425 0.0
C1724 C 0.6077 0.80323 0.32981 0.0
C1725 C 0.62348 0.84082 0.36142 0.0
C1726 C 0.64423 0.80838 0.35541 0.0
C1727 C 0.64787 0.79696 0.37401 0.0
C1728 C 0.66721 0.78942 0.37822 0.0
C1729 C 0.68302 0.793 0.36269 0.0
C1730 C 0.67936 0.8037 0.34285 0.0
C1731 C 0.65989 0.81209 0.33966 0.0
H1732 H 0.10127 0.2798 0.45149 0.0
H1733 H 0.07041 0.24979 0.3791 0.0
H1734 H 0.04996 0.21362 0.39184 0.0
H1735 H 0.10942 0.22559 0.46536 0.0
H1736 H 0.10394 0.23225 0.49547 0.0
H1737 H 0.11467 0.25643 0.48071 0.0
H1738 H 0.08164 0.27492 0.48961 0.0
H1739 H 0.07059 0.25063 0.50421 0.0
H1740 H 0.05381 0.25687 0.48011 0.0
H1741 H 0.03522 0.17968 0.41176 0.0
H1742 H 0.02836 0.14958 0.4378 0.0
H1743 H 0.06805 0.20244 0.4968 0.0
C1744 C 0.09011 0.26569 0.43836 0.0
C1745 C 0.08736 0.26749 0.4144 0.0
C1746 C 0.07275 0.24865 0.39762 0.0
C1747 C 0.06095 0.22815 0.40467 0.0
C1748 C 0.06395 0.22697 0.4285 0.0
C1749 C 0.07822 0.24518 0.44506 0.0
C1750 C 0.07956 0.2389 0.46928 0.0
C1751 C 0.1033 0.23824 0.47821 0.0
C1752 C 0.07087 0.25637 0.48684 0.0
C1753 C 0.06416 0.21406 0.46365 0.0
C1754 C 0.05514 0.20755 0.44007 0.0
C1755 C 0.04179 0.18465 0.43035 0.0
C1756 C 0.03794 0.16778 0.44512 0.0
C1757 C 0.04736 0.17424 0.4691 0.0
C1758 C 0.06025 0.19761 0.47857 0.0
H1759 H 0.5577 0.246 0.20383 0.0
H1760 H 0.57444 0.28986 0.15133 0.0
H1761 H 0.61339 0.30249 0.17024 0.0
H1762 H 0.59587 0.28309 0.25429 0.0
H1763 H 0.60309 0.25772 0.26439 0.0
H1764 H 0.57606 0.25429 0.24856 0.0
H1765 H 0.58175 0.21922 0.21752 0.0
H1766 H 0.60848 0.22206 0.23355 0.0
H1767 H 0.60594 0.22381 0.20265 0.0
H1768 H 0.64972 0.30976 0.19399 0.0
H1769 H 0.68351 0.3042 0.21542 0.0
H1770 H 0.6436 0.253 0.25047 0.0
C1771 C 0.56962 0.25855 0.19667 0.0
C1772 C 0.56345 0.26756 0.17668 0.0
C1773 C 0.57923 0.28315 0.16691 0.0
C1774 C 0.60117 0.29056 0.17763 0.0
C1775 C 0.6068 0.28176 0.19771 0.0
C1776 C 0.59166 0.26555 0.20672 0.0
C1777 C 0.60257 0.25621 0.22631 0.0
C1778 C 0.59388 0.26326 0.24978 0.0
C1779 C 0.59952 0.22871 0.2196 0.0
C1780 C 0.62628 0.26969 0.22687 0.0
C1781 C 0.62821 0.28479 0.21063 0.0
C1782 C 0.64851 0.2981 0.20683 0.0
C1783 C 0.66753 0.29487 0.21904 0.0
C1784 C 0.66592 0.27817 0.2344 0.0
C1785 C 0.64511 0.26621 0.23914 0.0
H1786 H 0.57817 0.90053 0.91277 0.0
H1787 H 0.64826 0.92855 0.93679 0.0
H1788 H 0.64023 0.96115 0.96562 0.0
H1789 H 0.56342 0.95873 0.9181 0.0
H1790 H 0.53753 0.94779 0.92857 0.0
H1791 H 0.54878 0.92747 0.90901 0.0
H1792 H 0.54695 0.89919 0.93927 0.0
H1793 H 0.53576 0.91942 0.95896 0.0
H1794 H 0.56044 0.911 0.96916 0.0
H1795 H 0.62482 0.98625 0.99451 0.0
H1796 H 0.60318 1.0072 0.01999 0.0
H1797 H 0.54256 0.96639 0.97522 0.0
C1798 C 0.59174 0.9139 0.92388 0.0
C1799 C 0.61382 0.91255 0.92274 0.0
C1800 C 0.63133 0.92974 0.93755 0.0
C1801 C 0.62689 0.94815 0.95387 0.0
C1802 C 0.60491 0.94892 0.95484 0.0
C1803 C 0.58758 0.93249 0.94012 0.0
C1804 C 0.56547 0.93704 0.94547 0.0
C1805 C 0.55308 0.94314 0.92401 0.0
C1806 C 0.55133 0.91537 0.9537 0.0
C1807 C 0.57315 0.95867 0.96559 0.0
C1808 C 0.59596 0.96478 0.97084 0.0
C1809 C 0.60704 0.98215 0.99024 0.0
C1810 C 0.59457 0.99385 0.00465 0.0
C1811 C 0.57133 0.98876 0.99916 0.0
C1812 C 0.5604 0.97101 0.97932 0.0
H1813 H 0.94104 0.78263 0.68545 0.0
H1814 H 0.92686 0.70657 0.68901 0.0
H1815 H 0.89974 0.71244 0.71611 0.0
H1816 H 0.93851 0.80398 0.7451 0.0
H1817 H 0.92516 0.82761 0.74055 0.0
H1818 H 0.94244 0.81784 0.71966 0.0
H1819 H 0.91034 0.80835 0.68518 0.0
H1820 H 0.89336 0.81923 0.70577 0.0
H1821 H 0.88397 0.78938 0.68783 0.0
H1822 H 0.88104 0.72724 0.74776 0.0
H1823 H 0.85687 0.74644 0.7709 0.0
H1824 H 0.87887 0.81207 0.74374 0.0
C1825 C 0.93155 0.7671 0.69123 0.0
C1826 C 0.93602 0.74423 0.68563 0.0
C1827 C 0.92365 0.72425 0.69354 0.0
C1828 C 0.90851 0.72745 0.70907 0.0
C1829 C 0.906 0.75064 0.71609 0.0
C1830 C 0.91624 0.76995 0.70671 0.0
C1831 C 0.91 0.79282 0.71717 0.0
C1832 C 0.93024 0.81167 0.73146 0.0
C1833 C 0.89872 0.80303 0.69784 0.0
C1834 C 0.89417 0.78295 0.73336 0.0
C1835 C 0.89322 0.7589 0.73323 0.0
C1836 C 0.88098 0.74584 0.74755 0.0
C1837 C 0.86747 0.75698 0.76071 0.0
C1838 C 0.86541 0.78024 0.75814 0.0
C1839 C 0.88001 0.79413 0.74572 0.0
H1840 H 0.10974 0.99566 0.84254 0.0
H1841 H 0.15689 0.06513 0.85937 0.0
H1842 H 0.1446 0.07293 0.8986 0.0
H1843 H 0.06584 0.01325 0.87129 0.0
H1844 H 0.0573 0.98639 0.88328 0.0
H1845 H 0.0705 0.98509 0.85691 0.0
H1846 H 0.10006 0.96744 0.87669 0.0
H1847 H 0.08686 0.96865 0.90311 0.0
H1848 H 0.11567 0.98334 0.90478 0.0
H1849 H 0.12637 0.07416 0.9379 0.0
H1850 H 0.10375 0.0687 0.97056 0.0
H1851 H 0.06666 0.99945 0.92975 0.0
C1852 C 0.1181 0.01217 0.85474 0.0
C1853 C 0.13548 0.02929 0.84742 0.0
C1854 C 0.14452 0.0511 0.86417 0.0
C1855 C 0.13736 0.05586 0.88675 0.0
C1856 C 0.12058 0.03883 0.89342 0.0
C1857 C 0.11106 0.01726 0.87786 0.0
C1858 C 0.09298 1.00227 0.88957 0.0
C1859 C 0.07031 0.99642 0.87435 0.0
C1860 C 0.09925 0.97904 0.89377 0.0
C1861 C 0.09332 0.01903 0.91349 0.0
C1862 C 0.10972 0.03987 0.91553 0.0
C1863 C 0.11361 0.05773 0.93627 0.0
C1864 C 0.10068 0.05441 0.95511 0.0
C1865 C 0.08332 0.03351 0.95365 0.0
C1866 C 0.0798 0.01568 0.9321 0.0
H1867 H 0.86319 0.42405 0.57247 0.0
H1868 H 0.79151 0.40706 0.56614 0.0
H1869 H 0.79228 0.38273 0.59669 0.0
H1870 H 0.87043 0.36909 0.57901 0.0
H1871 H 0.89386 0.37811 0.6019 0.0
H1872 H 0.8894 0.39822 0.58239 0.0
H1873 H 0.88935 0.43172 0.61788 0.0
H1874 H 0.89472 0.4121 0.63761 0.0
H1875 H 0.87135 0.42524 0.63976 0.0
H1876 H 0.79889 0.35206 0.61596 0.0
H1877 H 0.81177 0.32732 0.64183 0.0
H1878 H 0.87967 0.36717 0.64367 0.0
C1879 C 0.84787 0.41605 0.57848 0.0
C1880 C 0.82719 0.41685 0.56702 0.0
C1881 C 0.80735 0.40615 0.57472 0.0
C1882 C 0.80762 0.3923 0.59191 0.0
C1883 C 0.82794 0.38993 0.60144 0.0
C1884 C 0.84786 0.40236 0.59624 0.0
C1885 C 0.86706 0.39562 0.60938 0.0
C1886 C 0.881 0.38461 0.59213 0.0
C1887 C 0.88146 0.41747 0.62723 0.0
C1888 C 0.85438 0.37679 0.62172 0.0
C1889 C 0.83189 0.37348 0.61588 0.0
C1890 C 0.81636 0.35516 0.62184 0.0
C1891 C 0.82384 0.34099 0.6361 0.0
C1892 C 0.84648 0.34593 0.64495 0.0
C1893 C 0.86223 0.36348 0.63722 0.0
H1894 H 0.46514 1.00157 0.36542 0.0
H1895 H 0.48656 0.07419 0.3529 0.0
H1896 H 0.50541 0.08788 0.39369 0.0
H1897 H 0.46156 0.02209 0.43329 0.0
H1898 H 0.47121 0.99656 0.43978 0.0
H1899 H 0.4536 0.99383 0.41248 0.0
H1900 H 0.48263 0.97883 0.38904 0.0
H1901 H 0.50041 0.98179 0.41602 0.0
H1902 H 0.51053 0.99726 0.39318 0.0
H1903 H 0.5306 0.09055 0.42771 0.0
H1904 H 0.55732 0.08364 0.45822 0.0
H1905 H 0.51808 0.01059 0.45207 0.0
C1906 C 0.47298 0.02049 0.37193 0.0
C1907 C 0.47465 0.0371 0.35678 0.0
C1908 C 0.48525 0.06159 0.36488 0.0
C1909 C 0.49575 0.06948 0.38793 0.0
C1910 C 0.4949 0.05262 0.40248 0.0
C1911 C 0.48327 0.02872 0.39517 0.0
C1912 C 0.4878 0.01375 0.41318 0.0
C1913 C 0.46733 1.00612 0.42541 0.0
C1914 C 0.49584 0.99165 0.40218 0.0
C1915 C 0.50588 0.0323 0.42991 0.0
C1916 C 0.50926 0.05473 0.42372 0.0
C1917 C 0.52758 0.07352 0.43361 0.0
C1918 C 0.54284 0.06936 0.45046 0.0
C1919 C 0.53934 0.04673 0.4571 0.0
C1920 C 0.52055 0.02817 0.44724 0.0
H1921 H 0.79752 0.75556 0.07525 0.0
H1922 H 0.78809 0.68117 0.08476 0.0
H1923 H 0.7868 0.6937 0.12654 0.0
H1924 H 0.83404 0.77989 0.13475 0.0
H1925 H 0.82388 0.80669 0.14036 0.0
H1926 H 0.82528 0.79288 0.11042 0.0
H1927 H 0.78366 0.79035 0.09971 0.0
H1928 H 0.78209 0.8036 0.12977 0.0
H1929 H 0.76391 0.77481 0.11613 0.0
H1930 H 0.77963 0.71101 0.1645 0.0
H1931 H 0.77882 0.7359 0.20299 0.0
H1932 H 0.79873 0.80074 0.1745 0.0
C1933 C 0.79551 0.74206 0.08625 0.0
C1934 C 0.79205 0.71715 0.07622 0.0
C1935 C 0.79001 0.70019 0.09145 0.0
C1936 C 0.78927 0.70708 0.11543 0.0
C1937 C 0.79132 0.73119 0.12446 0.0
C1938 C 0.79544 0.74877 0.11091 0.0
C1939 C 0.7981 0.77358 0.12643 0.0
C1940 C 0.82173 0.78918 0.12808 0.0
C1941 C 0.78091 0.78633 0.11746 0.0
C1942 C 0.79367 0.76661 0.15014 0.0
C1943 C 0.78944 0.74193 0.14812 0.0
C1944 C 0.78345 0.73044 0.16661 0.0
C1945 C 0.7828 0.74463 0.18829 0.0
C1946 C 0.78863 0.76995 0.19153 0.0
C1947 C 0.79393 0.78129 0.17222 0.0
H1948 H 0.14434 0.99957 0.67233 0.0
H1949 H 0.11289 0.04049 0.72235 0.0
H1950 H 0.09211 0.05157 0.6892 0.0
H1951 H 0.14893 0.03777 0.62906 0.0
H1952 H 0.14153 0.01379 0.6034 0.0
H1953 H 0.15419 1.00876 0.63077 0.0
H1954 H 0.12129 0.97235 0.62999 0.0
H1955 H 0.10868 0.97729 0.60254 0.0
H1956 H 0.09357 0.97648 0.6275 0.0
H1957 H 0.07634 0.06135 0.64971 0.0
H1958 H 0.06406 0.06435 0.60869 0.0
H1959 H 0.10177 0.0139 0.58238 0.0
C1960 C 0.13303 0.0108 0.67638 0.0
C1961 C 0.13074 0.01926 0.70063 0.0
C1962 C 0.11532 0.03366 0.70446 0.0
C1963 C 0.10336 0.04017 0.68551 0.0
C1964 C 0.10618 0.03183 0.66209 0.0
C1965 C 0.12027 0.01692 0.65739 0.0
C1966 C 0.11943 1.00967 0.63038 0.0
C1967 C 0.14239 0.01799 0.62297 0.0
C1968 C 0.11021 0.98232 0.62212 0.0
C1969 C 0.10334 0.02334 0.62073 0.0
C1970 C 0.09602 0.03618 0.63942 0.0
C1971 C 0.08186 0.05101 0.63511 0.0
C1972 C 0.07493 0.05269 0.6115 0.0
C1973 C 0.08154 0.03929 0.59172 0.0
C1974 C 0.09599 0.02427 0.59674 0.0
H1975 H 0.81288 0.41242 0.40261 0.0
H1976 H 0.83781 0.37576 0.45464 0.0
H1977 H 0.84337 0.3446 0.4226 0.0
H1978 H 0.78117 0.35986 0.36684 0.0
H1979 H 0.78462 0.37025 0.33945 0.0
H1980 H 0.78641 0.39159 0.36632 0.0
H1981 H 0.82545 0.41445 0.35993 0.0
H1982 H 0.82369 0.39306 0.33297 0.0
H1983 H 0.84669 0.39829 0.35595 0.0
H1984 H 0.84055 0.31472 0.38572 0.0
H1985 H 0.82916 0.288 0.34621 0.0
H1986 H 0.80715 0.34516 0.31893 0.0
C1987 C 0.81998 0.3981 0.40714 0.0
C1988 C 0.82494 0.39622 0.43073 0.0
C1989 C 0.83373 0.37711 0.43639 0.0
C1990 C 0.83719 0.3596 0.41842 0.0
C1991 C 0.83166 0.36163 0.39514 0.0
C1992 C 0.82316 0.38036 0.38949 0.0
C1993 C 0.81555 0.37668 0.36344 0.0
C1994 C 0.79047 0.37445 0.35875 0.0
C1995 C 0.82865 0.39682 0.35243 0.0
C1996 C 0.8211 0.35297 0.35529 0.0
C1997 C 0.83036 0.3445 0.37376 0.0
C1998 C 0.83389 0.32136 0.37094 0.0
C1999 C 0.82733 0.30634 0.34865 0.0
C2000 C 0.81771 0.31488 0.32984 0.0
C2001 C 0.81514 0.33858 0.33301 0.0
H2002 H 0.43054 0.0122 0.20361 0.0
H2003 H 0.49412 0.04372 0.24704 0.0
H2004 H 0.51166 0.01965 0.21926 0.0
H2005 H 0.44148 0.95161 0.18034 0.0
H2006 H 0.42755 0.95035 0.15131 0.0
H2007 H 0.41846 0.96519 0.17717 0.0
H2008 H 0.42313 1.00456 0.16054 0.0
H2009 H 0.43119 0.98949 0.13442 0.0
H2010 H 0.44912 0.01726 0.15113 0.0
H2011 H 0.52288 0.99546 0.18731 0.0
H2012 H 0.53066 0.98807 0.14669 0.0
H2013 H 0.46101 0.97471 0.12103 0.0
C2014 C 0.44816 0.01394 0.20727 0.0
C2015 C 0.46094 0.02925 0.22772 0.0
C2016 C 0.48398 0.03165 0.23165 0.0
C2017 C 0.49398 0.01763 0.2163 0.0
C2018 C 0.48073 1.00158 0.19701 0.0
C2019 C 0.45849 1.00038 0.19189 0.0
C2020 C 0.44906 0.9857 0.16753 0.0
C2021 C 0.4332 0.9618 0.1692 0.0
C2022 C 0.4375 1.00014 0.15253 0.0
C2023 C 0.47011 0.98133 0.15878 0.0
C2024 C 0.4877 0.98875 0.17689 0.0
C2025 C 0.5093 0.98919 0.173 0.0
C2026 C 0.51353 0.98466 0.14974 0.0
C2027 C 0.49634 0.98108 0.1309 0.0
C2028 C 0.4742 0.97701 0.13533 0.0
H2029 H 0.79828 0.70912 0.90691 0.0
H2030 H 0.78323 0.76863 0.95341 0.0
H2031 H 0.78498 0.79162 0.92145 0.0
H2032 H 0.8373 0.74707 0.87696 0.0
H2033 H 0.82892 0.72776 0.84821 0.0
H2034 H 0.82644 0.71511 0.87453 0.0
H2035 H 0.78491 0.69627 0.86003 0.0
H2036 H 0.78727 0.70906 0.83377 0.0
H2037 H 0.76724 0.71537 0.85278 0.0
H2038 H 0.78748 0.80845 0.88583 0.0
H2039 H 0.79351 0.82038 0.84789 0.0
H2040 H 0.80806 0.75174 0.82177 0.0
C2041 C 0.79536 0.727 0.91031 0.0
C2042 C 0.79045 0.73694 0.9329 0.0
C2043 C 0.78692 0.76046 0.9365 0.0
C2044 C 0.78783 0.77372 0.91835 0.0
C2045 C 0.7924 0.76345 0.89643 0.0
C2046 C 0.79635 0.74077 0.89218 0.0
C2047 C 0.80143 0.73472 0.86676 0.0
C2048 C 0.82492 0.73094 0.86661 0.0
C2049 C 0.78418 0.71253 0.85249 0.0
C2050 C 0.79954 0.75755 0.85759 0.0
C2051 C 0.7942 0.77363 0.87524 0.0
C2052 C 0.79168 0.79606 0.87186 0.0
C2053 C 0.79512 0.80265 0.85013 0.0
C2054 C 0.80108 0.78706 0.83165 0.0
C2055 C 0.80306 0.76391 0.8353 0.0
H2056 H 0.84287 0.12018 0.9965 0.0
H2057 H 0.84213 0.09638 0.06372 0.0
H2058 H 0.87631 0.08302 0.05796 0.0
H2059 H 0.85931 0.06997 0.96627 0.0
H2060 H 0.87637 0.08671 0.94827 0.0
H2061 H 0.85312 0.09678 0.95847 0.0
H2062 H 0.87871 0.13852 0.97764 0.0
H2063 H 0.90206 0.12868 0.96738 0.0
H2064 H 0.90262 0.14035 0.99837 0.0
H2065 H 0.90855 0.0717 0.04535 0.0
H2066 H 0.93835 0.06002 0.02523 0.0
H2067 H 0.91791 0.08855 0.96437 0.0
C2068 C 0.85022 0.11247 0.0101 0.0
C2069 C 0.84037 0.10938 0.03069 0.0
C2070 C 0.84974 0.09877 0.04794 0.0
C2071 C 0.86907 0.09131 0.04484 0.0
C2072 C 0.87832 0.09433 0.02426 0.0
C2073 C 0.86923 0.10442 0.00702 0.0
C2074 C 0.88171 0.10375 0.98579 0.0
C2075 C 0.86673 0.08838 0.96338 0.0
C2076 C 0.89188 0.12935 0.98209 0.0
C2077 C 0.8993 0.09168 0.99397 0.0
C2078 C 0.89695 0.08675 0.01633 0.0
C2079 C 0.91075 0.07553 0.02794 0.0
C2080 C 0.92757 0.06905 0.01643 0.0
C2081 C 0.93033 0.07374 0.99357 0.0
C2082 C 0.91605 0.08508 0.98198 0.0
H2083 H 0.40851 0.44869 0.06253 0.0
H2084 H 0.38239 0.43323 0.98813 0.0
H2085 H 0.41869 0.45307 0.97866 0.0
H2086 H 0.44057 0.5055 0.06581 0.0
H2087 H 0.46436 0.50346 0.08469 0.0
H2088 H 0.43759 0.48458 0.08581 0.0
H2089 H 0.45267 0.44642 0.07689 0.0
H2090 H 0.47965 0.46527 0.07614 0.0
H2091 H 0.46655 0.44165 0.05124 0.0
H2092 H 0.45641 0.47823 0.97734 0.0
H2093 H 0.49354 0.50599 0.98428 0.0
H2094 H 0.49618 0.50681 0.05957 0.0
C2095 C 0.41079 0.44864 0.04421 0.0
C2096 C 0.39271 0.43893 0.02597 0.0
C2097 C 0.39611 0.44007 1.00228 0.0
C2098 C 0.41668 0.45142 0.99673 0.0
C2099 C 0.43401 0.4615 0.01504 0.0
C2100 C 0.4315 0.45988 0.03828 0.0
C2101 C 0.45274 0.47341 0.05455 0.0
C2102 C 0.44855 0.4929 0.07385 0.0
C2103 C 0.46353 0.45563 0.06536 0.0
C2104 C 0.46672 0.48441 0.03712 0.0
C2105 C 0.4558 0.47663 0.01433 0.0
C2106 C 0.46521 0.48421 0.99511 0.0
C2107 C 0.48634 0.50002 0.99923 0.0
C2108 C 0.49779 0.50863 0.02246 0.0
C2109 C 0.48779 0.50062 0.04163 0.0
H2110 H 0.4094 0.6581 0.7391 0.0
H2111 H 0.37885 0.61998 0.79049 0.0
H2112 H 0.35701 0.65028 0.79856 0.0
H2113 H 0.41115 0.72021 0.76844 0.0
H2114 H 0.40313 0.73013 0.74177 0.0
H2115 H 0.41735 0.70626 0.74044 0.0
H2116 H 0.38566 0.67844 0.70966 0.0
H2117 H 0.37136 0.70226 0.71092 0.0
H2118 H 0.35773 0.67331 0.71655 0.0
H2119 H 0.33637 0.68525 0.80079 0.0
H2120 H 0.3197 0.71925 0.79646 0.0
H2121 H 0.36164 0.73727 0.74343 0.0
C2122 C 0.39828 0.65612 0.75225 0.0
C2123 C 0.39654 0.6358 0.76424 0.0
C2124 C 0.38106 0.63462 0.78083 0.0
C2125 C 0.36838 0.65209 0.78563 0.0
C2126 C 0.37032 0.67142 0.77352 0.0
C2127 C 0.38482 0.67346 0.75694 0.0
C2128 C 0.38261 0.69545 0.74556 0.0
C2129 C 0.40489 0.71412 0.74927 0.0
C2130 C 0.37384 0.68687 0.71909 0.0
C2131 C 0.36539 0.70594 0.75881 0.0
C2132 C 0.3584 0.69141 0.77471 0.0
C2133 C 0.34201 0.69653 0.78836 0.0
C2134 C 0.33245 0.71625 0.78575 0.0
C2135 C 0.33898 0.73203 0.76987 0.0
C2136 C 0.3561 0.72644 0.75624 0.0
H2137 H 0.21298 0.653 0.52945 0.0
H2138 H 0.22775 0.60192 0.47303 0.0
H2139 H 0.19006 0.57633 0.46951 0.0
H2140 H 0.18666 0.61192 0.55812 0.0
H2141 H 0.16536 0.62647 0.567 0.0
H2142 H 0.19141 0.64425 0.56211 0.0
H2143 H 0.17207 0.66296 0.53096 0.0
H2144 H 0.14586 0.64641 0.53689 0.0
H2145 H 0.15243 0.64339 0.50703 0.0
H2146 H 0.15509 0.5534 0.47707 0.0
H2147 H 0.11881 0.53765 0.48873 0.0
H2148 H 0.12674 0.60324 0.54063 0.0
C2149 C 0.20792 0.63699 0.51566 0.0
C2150 C 0.22294 0.6291 0.50157 0.0
C2151 C 0.21619 0.60793 0.48398 0.0
C2152 C 0.19497 0.59335 0.48191 0.0
C2153 C 0.18112 0.60054 0.49751 0.0
C2154 C 0.18693 0.62214 0.51356 0.0
C2155 C 0.1696 0.62451 0.52961 0.0
C2156 C 0.17882 0.62692 0.55575 0.0
C2157 C 0.15938 0.64556 0.52588 0.0
C2158 C 0.15347 0.60056 0.52038 0.0
C2159 C 0.1606 0.58704 0.502 0.0
C2160 C 0.14896 0.56399 0.49097 0.0
C2161 C 0.12855 0.55521 0.49775 0.0
C2162 C 0.12023 0.56971 0.51503 0.0
C2163 C 0.13307 0.59207 0.52735 0.0
H2164 H 0.7417 0.0166 0.75413 0.0
H2165 H 0.67543 0.98451 0.7673 0.0
H2166 H 0.68993 0.9568 0.78851 0.0
H2167 H 0.75722 0.96222 0.74162 0.0
H2168 H 0.78553 0.97466 0.7549 0.0
H2169 H 0.77006 0.99362 0.74312 0.0
H2170 H 0.77888 0.02286 0.78386 0.0
H2171 H 0.79393 1.00356 0.79596 0.0
H2172 H 0.77142 0.01161 0.80997 0.0
H2173 H 0.71015 0.92976 0.80337 0.0
H2174 H 0.7351 0.9031 0.80852 0.0
H2175 H 0.78839 0.95392 0.78839 0.0
C2176 C 0.73032 1.00393 0.76172 0.0
C2177 C 0.70758 1.00274 0.75931 0.0
C2178 C 0.69302 0.98572 0.76909 0.0
C2179 C 0.70108 0.97009 0.78137 0.0
C2180 C 0.72367 0.97194 0.78378 0.0
C2181 C 0.73807 0.98824 0.77407 0.0
C2182 C 0.76119 0.98479 0.777 0.0
C2183 C 0.76893 0.97843 0.75273 0.0
C2184 C 0.7773 1.00704 0.79264 0.0
C2185 C 0.7574 0.96364 0.78941 0.0
C2186 C 0.73567 0.95665 0.79337 0.0
C2187 C 0.72741 0.93545 0.80128 0.0
C2188 C 0.74161 0.92051 0.80435 0.0
C2189 C 0.76363 0.92718 0.79983 0.0
C2190 C 0.77185 0.9493 0.79313 0.0
H2191 H 0.74815 0.90361 0.49601 0.0
H2192 H 0.77192 0.94083 0.56854 0.0
H2193 H 0.74264 0.96256 0.56727 0.0
H2194 H 0.73464 0.95629 0.47634 0.0
H2195 H 0.71023 0.93939 0.45646 0.0
H2196 H 0.73269 0.92558 0.46232 0.0
H2197 H 0.70592 0.8908 0.4753 0.0
H2198 H 0.68342 0.90449 0.46935 0.0
H2199 H 0.68932 0.89759 0.49814 0.0
H2200 H 0.71204 0.97965 0.55998 0.0
H2201 H 0.67969 0.99327 0.54622 0.0
H2202 H 0.67421 0.9479 0.47715 0.0
C2203 C 0.74692 0.91617 0.51162 0.0
C2204 C 0.7622 0.92042 0.53259 0.0
C2205 C 0.76043 0.9373 0.55245 0.0
C2206 C 0.74385 0.94973 0.55188 0.0
C2207 C 0.72923 0.94542 0.53117 0.0
C2208 C 0.73047 0.92926 0.51123 0.0
C2209 C 0.71266 0.92916 0.4912 0.0
C2210 C 0.72319 0.93814 0.47035 0.0
C2211 C 0.6969 0.90401 0.48303 0.0
C2212 C 0.70098 0.94719 0.50357 0.0
C2213 C 0.71116 0.95622 0.52656 0.0
C2214 C 0.70384 0.97278 0.54206 0.0
C2215 C 0.68541 0.98032 0.53413 0.0
C2216 C 0.67437 0.97142 0.51086 0.0
C2217 C 0.68235 0.95482 0.49511 0.0
H2218 H 0.38112 0.46354 0.72247 0.0
H2219 H 0.40475 0.49338 0.79645 0.0
H2220 H 0.38576 0.45491 0.80686 0.0
H2221 H 0.32581 0.42968 0.73233 0.0
H2222 H 0.32447 0.40472 0.70862 0.0
H2223 H 0.33989 0.43454 0.70712 0.0
H2224 H 0.37461 0.4182 0.70148 0.0
H2225 H 0.35931 0.38843 0.70329 0.0
H2226 H 0.3845 0.40262 0.72308 0.0
H2227 H 0.36572 0.40983 0.80884 0.0
H2228 H 0.34292 0.36781 0.80283 0.0
H2229 H 0.32825 0.36779 0.72825 0.0
C2230 C 0.38176 0.46232 0.74097 0.0
C2231 C 0.39417 0.48246 0.75865 0.0
C2232 C 0.39496 0.47909 0.78248 0.0
C2233 C 0.38433 0.45691 0.78857 0.0
C2234 C 0.37235 0.43756 0.77079 0.0
C2235 C 0.37058 0.44033 0.74745 0.0
C2236 C 0.35613 0.41696 0.73176 0.0
C2237 C 0.33534 0.42177 0.71921 0.0
C2238 C 0.36943 0.40591 0.71383 0.0
C2239 C 0.35003 0.40061 0.74969 0.0
C2240 C 0.35999 0.41264 0.77211 0.0
C2241 C 0.35767 0.40068 0.79131 0.0
C2242 C 0.34464 0.3765 0.7877 0.0
C2243 C 0.33329 0.36392 0.76511 0.0
C2244 C 0.33633 0.37654 0.74589 0.0
H2245 H 0.19585 0.65022 0.28025 0.0
H2246 H 0.19917 0.62006 0.20732 0.0
H2247 H 0.2375 0.64379 0.21092 0.0
H2248 H 0.22261 0.70911 0.27547 0.0
H2249 H 0.23574 0.71703 0.30574 0.0
H2250 H 0.21028 0.69437 0.29777 0.0
H2251 H 0.22986 0.66548 0.31643 0.0
H2252 H 0.25583 0.68783 0.32252 0.0
H2253 H 0.25398 0.65847 0.30508 0.0
H2254 H 0.27216 0.67252 0.21982 0.0
H2255 H 0.29516 0.71396 0.22861 0.0
H2256 H 0.27224 0.72526 0.29712 0.0
C2257 C 0.2046 0.64931 0.26496 0.0
C2258 C 0.19483 0.63396 0.24341 0.0
C2259 C 0.20646 0.63257 0.22371 0.0
C2260 C 0.22842 0.64516 0.22589 0.0
C2261 C 0.23817 0.65922 0.24778 0.0
C2262 C 0.22641 0.66218 0.26671 0.0
C2263 C 0.23915 0.68223 0.28643 0.0
C2264 C 0.22621 0.70184 0.29162 0.0
C2265 C 0.24505 0.6729 0.30893 0.0
C2266 C 0.25944 0.69075 0.27501 0.0
C2267 C 0.259 0.67648 0.25315 0.0
C2268 C 0.27307 0.68367 0.23702 0.0
C2269 C 0.286 0.70722 0.24207 0.0
C2270 C 0.28463 0.72268 0.26312 0.0
C2271 C 0.2733 0.71362 0.28079 0.0
H2272 H 0.52293 0.68078 0.42736 0.0
H2273 H 0.5276 0.73321 0.49172 0.0
H2274 H 0.53826 0.70485 0.51535 0.0
H2275 H 0.49983 0.62786 0.44948 0.0
H2276 H 0.51563 0.60951 0.43387 0.0
H2277 H 0.50896 0.63421 0.42204 0.0
H2278 H 0.55065 0.65203 0.42096 0.0
H2279 H 0.55734 0.62743 0.43303 0.0
H2280 H 0.56983 0.65809 0.44771 0.0
H2281 H 0.54965 0.67074 0.53224 0.0
H2282 H 0.55674 0.63236 0.5407 0.0
H2283 H 0.54259 0.60134 0.46585 0.0
C2284 C 0.52597 0.68624 0.44643 0.0
C2285 C 0.52415 0.70931 0.45758 0.0
C2286 C 0.52865 0.71569 0.48263 0.0
C2287 C 0.53488 0.69971 0.49627 0.0
C2288 C 0.53665 0.67725 0.48472 0.0
C2289 C 0.53219 0.67045 0.46036 0.0
C2290 C 0.53511 0.64515 0.45236 0.0
C2291 C 0.51359 0.62818 0.43863 0.0
C2292 C 0.55437 0.64572 0.43764 0.0
C2293 C 0.54087 0.63839 0.476 0.0
C2294 C 0.54237 0.65742 0.49445 0.0
C2295 C 0.54834 0.65572 0.51789 0.0
C2296 C 0.55243 0.63391 0.52255 0.0
C2297 C 0.55001 0.6139 0.50397 0.0
C2298 C 0.5443 0.61631 0.48042 0.0
H2299 H 0.67701 0.3505 0.66536 0.0
H2300 H 0.63881 0.27651 0.64415 0.0
H2301 H 0.6671 0.26318 0.66785 0.0
H2302 H 0.7313 0.33611 0.6638 0.0
H2303 H 0.74454 0.35953 0.68883 0.0
H2304 H 0.72155 0.36317 0.66985 0.0
H2305 H 0.70084 0.37041 0.70612 0.0
H2306 H 0.72382 0.36684 0.7251 0.0
H2307 H 0.6965 0.34829 0.72481 0.0
H2308 H 0.70043 0.25786 0.69428 0.0
H2309 H 0.7342 0.26159 0.72214 0.0
H2310 H 0.75052 0.33897 0.72683 0.0
C2311 C 0.67474 0.33149 0.66559 0.0
C2312 C 0.65576 0.31448 0.65263 0.0
C2313 C 0.65334 0.28979 0.6536 0.0
C2314 C 0.66934 0.28207 0.6671 0.0
C2315 C 0.68799 0.29919 0.67951 0.0
C2316 C 0.69078 0.32341 0.67882 0.0
C2317 C 0.71235 0.33812 0.69376 0.0
C2318 C 0.72838 0.34994 0.67813 0.0
C2319 C 0.70811 0.35703 0.71363 0.0
C2320 C 0.72085 0.31861 0.70359 0.0
C2321 C 0.7068 0.29618 0.69483 0.0
C2322 C 0.71153 0.27539 0.70111 0.0
C2323 C 0.73088 0.27762 0.71682 0.0
C2324 C 0.74521 0.30051 0.7265 0.0
C2325 C 0.74 0.32118 0.71962 0.0
H2326 H 0.0463 0.37009 0.93239 0.0
H2327 H 0.01199 0.33021 0.98073 0.0
H2328 H 0.01143 0.3689 0.00635 0.0
H2329 H 0.07973 0.42096 0.97593 0.0
H2330 H 0.07682 0.44179 0.95668 0.0
H2331 H 0.07628 0.41104 0.94427 0.0
H2332 H 0.03829 0.40697 0.91965 0.0
H2333 H 0.03846 0.43748 0.93251 0.0
H2334 H 0.01564 0.41308 0.93468 0.0
H2335 H 0.01229 0.41304 0.02476 0.0
H2336 H 0.01744 0.45761 0.03532 0.0
H2337 H 0.05032 0.46596 0.97363 0.0
C2338 C 0.0389 0.36929 0.94852 0.0
C2339 C 0.02906 0.34711 0.95447 0.0
C2340 C 0.01964 0.34705 0.97581 0.0
C2341 C 0.01918 0.3689 0.9904 0.0
C2342 C 0.02829 0.39046 0.98334 0.0
C2343 C 0.03822 0.39066 0.96301 0.0
C2344 C 0.04595 0.41577 0.95835 0.0
C2345 C 0.07119 0.42279 0.95885 0.0
C2346 C 0.03386 0.41847 0.93492 0.0
C2347 C 0.03888 0.42985 0.97923 0.0
C2348 C 0.02862 0.41516 0.99354 0.0
C2349 C 0.02038 0.42464 0.0137 0.0
C2350 C 0.02317 0.44978 0.01946 0.0
C2351 C 0.03413 0.46471 0.00508 0.0
C2352 C 0.04185 0.45465 0.98476 0.0
H2353 H 0.00918 0.79616 0.12684 0.0
H2354 H 0.04759 0.80212 0.19537 0.0
H2355 H 0.01433 0.78889 0.21193 0.0
H2356 H 0.96655 0.8217 0.15353 0.0
H2357 H 0.94329 0.80271 0.1332 0.0
H2358 H 0.97015 0.80986 0.12367 0.0
H2359 H 0.96775 0.76436 0.11111 0.0
H2360 H 0.94099 0.75719 0.12095 0.0
H2361 H 0.96288 0.74506 0.13245 0.0
H2362 H 0.97971 0.77286 0.22226 0.0
H2363 H 0.94166 0.76681 0.23052 0.0
H2364 H 0.92083 0.77705 0.15996 0.0
C2365 C 0.01046 0.79481 0.14533 0.0
C2366 C 0.03157 0.79941 0.15934 0.0
C2367 C 0.03216 0.79793 0.18364 0.0
C2368 C 0.01318 0.79024 0.19346 0.0
C2369 C 0.99305 0.7848 0.17934 0.0
C2370 C 0.99106 0.78788 0.15614 0.0
C2371 C 0.9664 0.78338 0.1468 0.0
C2372 C 0.96131 0.80576 0.13883 0.0
C2373 C 0.95909 0.76118 0.12662 0.0
C2374 C 0.95566 0.77837 0.16884 0.0
C2375 C 0.97167 0.7781 0.1867 0.0
C2376 C 0.96687 0.77324 0.20859 0.0
C2377 C 0.94511 0.76961 0.21305 0.0
C2378 C 0.92822 0.77136 0.19598 0.0
C2379 C 0.93345 0.77554 0.17332 0.0
H2380 H 0.51132 0.34212 0.13179 0.0
H2381 H 0.52423 0.28417 0.08135 0.0
H2382 H 0.54716 0.31379 0.06253 0.0
H2383 H 0.50386 0.37853 0.0909 0.0
H2384 H 0.51702 0.40696 0.11021 0.0
H2385 H 0.50451 0.38153 0.1225 0.0
H2386 H 0.54164 0.38594 0.14864 0.0
H2387 H 0.55428 0.4113 0.13615 0.0
H2388 H 0.56628 0.38575 0.13493 0.0
H2389 H 0.56623 0.34805 0.04732 0.0
H2390 H 0.57536 0.38523 0.03181 0.0
H2391 H 0.54972 0.42264 0.09034 0.0
C2392 C 0.51903 0.33578 0.1168 0.0
C2393 C 0.51579 0.31084 0.10787 0.0
C2394 C 0.52612 0.30316 0.08825 0.0
C2395 C 0.53953 0.31984 0.07768 0.0
C2396 C 0.54242 0.34422 0.0868 0.0
C2397 C 0.53225 0.35232 0.10566 0.0
C2398 C 0.53611 0.37959 0.10993 0.0
C2399 C 0.51406 0.38708 0.10826 0.0
C2400 C 0.55043 0.39133 0.13383 0.0
C2401 C 0.54874 0.38513 0.08954 0.0
C2402 C 0.55298 0.36451 0.07718 0.0
C2403 C 0.56332 0.36445 0.05696 0.0
C2404 C 0.56861 0.38582 0.04838 0.0
C2405 C 0.56337 0.40698 0.05985 0.0
C2406 C 0.55393 0.40676 0.08117 0.0
H2407 H 0.04257 0.29992 0.33308 0.0
H2408 H 0.05792 0.37693 0.36021 0.0
H2409 H 0.01909 0.37715 0.34942 0.0
H2410 H 0.00949 0.29908 0.28355 0.0
H2411 H 0.9885 0.272 0.28308 0.0
H2412 H 0.01596 0.2756 0.29772 0.0
H2413 H 1.0008 0.26895 0.33684 0.0
H2414 H 0.97316 0.26448 0.32204 0.0
H2415 H 0.98288 0.28688 0.34873 0.0
H2416 H 0.98325 0.37177 0.32875 0.0
H2417 H 0.94714 0.35946 0.30398 0.0
H2418 H 0.95233 0.28522 0.29034 0.0
C2419 C 0.03738 0.31656 0.33717 0.0
C2420 C 0.05281 0.33854 0.34697 0.0
C2421 C 0.04605 0.36014 0.35226 0.0
C2422 C 0.02411 0.36036 0.34644 0.0
C2423 C 0.00937 0.33876 0.33553 0.0
C2424 C 0.01536 0.31706 0.33137 0.0
C2425 C 0.9964 0.29709 0.31723 0.0
C2426 C 1.00299 0.28526 0.29402 0.0
C2427 C 0.98781 0.27824 0.33211 0.0
C2428 C 0.97965 0.31154 0.31266 0.0
C2429 C 0.98758 0.33543 0.32373 0.0
C2430 C 0.97646 0.35303 0.32057 0.0
C2431 C 0.95623 0.34597 0.30625 0.0
C2432 C 0.94738 0.32157 0.29543 0.0
C2433 C 0.95903 0.30398 0.29859 0.0
H2434 H 0.99154 0.6521 0.62331 0.0
H2435 H 1.00123 0.70984 0.58335 0.0
H2436 H 0.01788 0.68606 0.55427 0.0
H2437 H 0.03996 0.63455 0.61613 0.0
H2438 H 0.02846 0.60246 0.61139 0.0
H2439 H 0.01545 0.62277 0.62864 0.0
H2440 H 0.9782 0.60475 0.60105 0.0
H2441 H 0.99093 0.58368 0.58448 0.0
H2442 H 0.97767 0.60267 0.56956 0.0
H2443 H 0.03717 0.65913 0.53263 0.0
H2444 H 0.04946 0.62438 0.51237 0.0
H2445 H 0.02547 0.58311 0.56459 0.0
C2446 C 0.99648 0.65927 0.60797 0.0
C2447 C 0.99519 0.68265 0.60544 0.0
C2448 C 1.00185 0.69176 0.58534 0.0
C2449 C 0.01163 0.67859 0.56895 0.0
C2450 C 0.01396 0.65625 0.57272 0.0
C2451 C 0.00575 0.64611 0.59106 0.0
C2452 C 0.00983 0.62134 0.59042 0.0
C2453 C 0.02429 0.62024 0.61299 0.0
C2454 C 0.98785 0.60197 0.58611 0.0
C2455 C 0.02214 0.6196 0.56924 0.0
C2456 C 0.02464 0.64014 0.55961 0.0
C2457 C 0.03524 0.64284 0.53981 0.0
C2458 C 0.04234 0.62329 0.52864 0.0
C2459 C 0.03869 0.60175 0.5375 0.0
C2460 C 0.02901 0.5999 0.55822 0.0
H2461 H 0.69142 0.84706 0.86409 0.0
H2462 H 0.63349 0.79458 0.82453 0.0
H2463 H 0.65557 0.78258 0.79379 0.0
H2464 H 0.71404 0.86441 0.81147 0.0
H2465 H 0.74233 0.86832 0.8242 0.0
H2466 H 0.72192 0.87386 0.84301 0.0
H2467 H 0.73152 0.84318 0.86755 0.0
H2468 H 0.752 0.83771 0.84895 0.0
H2469 H 0.73033 0.8129 0.85276 0.0
H2470 H 0.68416 0.77291 0.77027 0.0
H2471 H 0.71818 0.76876 0.75311 0.0
H2472 H 0.75635 0.83005 0.80562 0.0
C2473 C 0.68354 0.83304 0.84895 0.0
C2474 C 0.66103 0.82147 0.84658 0.0
C2475 C 0.65089 0.80352 0.82648 0.0
C2476 C 0.66318 0.79663 0.80895 0.0
C2477 C 0.68539 0.80827 0.81172 0.0
C2478 C 0.69548 0.82628 0.83099 0.0
C2479 C 0.71966 0.83568 0.82957 0.0
C2480 C 0.72478 0.86216 0.82692 0.0
C2481 C 0.73422 0.83213 0.85097 0.0
C2482 C 0.7216 0.81951 0.80703 0.0
C2483 C 0.70167 0.8038 0.79701 0.0
C2484 C 0.6998 0.78557 0.7774 0.0
C2485 C 0.71903 0.78336 0.7678 0.0
C2486 C 0.7394 0.79966 0.77769 0.0
C2487 C 0.74067 0.81808 0.79724 0.0
H2488 H 0.49032 0.54048 0.68865 0.0
H2489 H 0.45384 0.59267 0.67384 0.0
H2490 H 0.47016 0.59481 0.63675 0.0
H2491 H 0.54067 0.56412 0.66351 0.0
H2492 H 0.54396 0.53503 0.64998 0.0
H2493 H 0.5302 0.53797 0.67592 0.0
H2494 H 0.49615 0.50542 0.65351 0.0
H2495 H 0.50981 0.50256 0.62746 0.0
H2496 H 0.4831 0.50932 0.62583 0.0
H2497 H 0.49017 0.59056 0.59856 0.0
H2498 H 0.51224 0.58176 0.56623 0.0
H2499 H 0.53715 0.5325 0.60357 0.0
C2500 C 0.48583 0.55256 0.67776 0.0
C2501 C 0.47036 0.56659 0.68512 0.0
C2502 C 0.46522 0.58161 0.66939 0.0
C2503 C 0.47458 0.58295 0.64793 0.0
C2504 C 0.48924 0.5688 0.64108 0.0
C2505 C 0.49485 0.55377 0.65559 0.0
C2506 C 0.51041 0.53976 0.64334 0.0
C2507 C 0.53263 0.54451 0.65914 0.0
C2508 C 0.49922 0.51265 0.63719 0.0
C2509 C 0.5134 0.54992 0.62038 0.0
C2510 C 0.50061 0.56634 0.61927 0.0
C2511 C 0.50002 0.57755 0.59948 0.0
C2512 C 0.51257 0.57218 0.58074 0.0
C2513 C 0.5263 0.55576 0.58113 0.0
C2514 C 0.52662 0.54473 0.60181 0.0
H2515 H 0.79709 0.21626 0.97204 0.0
H2516 H 0.76786 0.14036 0.9437 0.0
H2517 H 0.74422 0.15108 0.91275 0.0
H2518 H 0.74894 0.23747 0.96403 0.0
H2519 H 0.76299 0.26463 0.95515 0.0
H2520 H 0.77776 0.25079 0.97482 0.0
H2521 H 0.80716 0.24757 0.94631 0.0
H2522 H 0.7932 0.26266 0.92733 0.0
H2523 H 0.7981 0.2338 0.91564 0.0
H2524 H 0.72645 0.17047 0.88315 0.0
H2525 H 0.71981 0.19711 0.85528 0.0
H2526 H 0.75643 0.25942 0.90707 0.0
C2527 C 0.78601 0.2019 0.95907 0.0
C2528 C 0.78442 0.17767 0.96002 0.0
C2529 C 0.76966 0.15921 0.94287 0.0
C2530 C 0.75583 0.16506 0.92558 0.0
C2531 C 0.75704 0.18933 0.92592 0.0
C2532 C 0.77203 0.20736 0.94198 0.0
C2533 C 0.77136 0.23198 0.93784 0.0
C2534 C 0.76486 0.24709 0.95924 0.0
C2535 C 0.79376 0.24474 0.93138 0.0
C2536 C 0.75345 0.22513 0.91699 0.0
C2537 C 0.7454 0.20041 0.91014 0.0
C2538 C 0.73199 0.18986 0.88864 0.0
C2539 C 0.72808 0.20498 0.87306 0.0
C2540 C 0.7372 0.23005 0.87969 0.0
C2541 C 0.74859 0.24029 0.90236 0.0
H2542 H 0.14345 0.58354 0.17392 0.0
H2543 H 0.16423 0.51809 0.15082 0.0
H2544 H 0.13693 0.50819 0.11478 0.0
H2545 H 0.08772 0.55946 0.1572 0.0
H2546 H 0.08141 0.58516 0.14698 0.0
H2547 H 0.10457 0.58934 0.16941 0.0
H2548 H 0.13094 0.61151 0.14389 0.0
H2549 H 0.10778 0.60805 0.12161 0.0
H2550 H 0.13151 0.59731 0.11384 0.0
H2551 H 0.10389 0.50174 0.08642 0.0
H2552 H 0.07121 0.50359 0.0602 0.0
H2553 H 0.07355 0.57475 0.09956 0.0
C2554 C 0.14286 0.56781 0.16057 0.0
C2555 C 0.15596 0.55172 0.16426 0.0
C2556 C 0.15448 0.53071 0.14746 0.0
C2557 C 0.13896 0.52489 0.12726 0.0
C2558 C 0.1254 0.54046 0.12452 0.0
C2559 C 0.12754 0.56185 0.14027 0.0
C2560 C 0.11013 0.57472 0.13359 0.0
C2561 C 0.09508 0.5773 0.15295 0.0
C2562 C 0.12073 0.59935 0.12787 0.0
C2563 C 0.09783 0.55698 0.11178 0.0
C2564 C 0.10664 0.53714 0.10727 0.0
C2565 C 0.09709 0.51739 0.08929 0.0
C2566 C 0.07853 0.51847 0.0747 0.0
C2567 C 0.07042 0.53935 0.07808 0.0
C2568 C 0.07978 0.55866 0.09693 0.0
H2569 H 0.82222 0.83284 0.45732 0.0
H2570 H 0.78872 0.88909 0.44694 0.0
H2571 H 0.78519 0.87607 0.40427 0.0
H2572 H 0.8529 0.83399 0.41137 0.0
H2573 H 0.84818 0.8021 0.40013 0.0
H2574 H 0.84613 0.81281 0.4307 0.0
H2575 H 0.80628 0.78617 0.42595 0.0
H2576 H 0.80846 0.77482 0.39551 0.0
H2577 H 0.78606 0.78827 0.40264 0.0
H2578 H 0.7917 0.86432 0.36474 0.0
H2579 H 0.79789 0.84498 0.32583 0.0
H2580 H 0.82321 0.79199 0.35747 0.0
C2581 C 0.81366 0.8419 0.44598 0.0
C2582 C 0.80646 0.86261 0.45555 0.0
C2583 C 0.79507 0.87378 0.44015 0.0
C2584 C 0.79285 0.86647 0.41579 0.0
C2585 C 0.80148 0.84738 0.40684 0.0
C2586 C 0.81072 0.83434 0.42111 0.0
C2587 C 0.81811 0.8142 0.40583 0.0
C2588 C 0.84281 0.8159 0.41241 0.0
C2589 C 0.80389 0.78939 0.4076 0.0
C2590 C 0.81333 0.81968 0.38125 0.0
C2591 C 0.80367 0.83895 0.38266 0.0
C2592 C 0.79865 0.84875 0.36317 0.0
C2593 C 0.80248 0.83784 0.34122 0.0
C2594 C 0.81099 0.81714 0.33876 0.0
C2595 C 0.8169 0.80801 0.35903 0.0
H2596 H 0.4753 0.52631 0.83401 0.0
H2597 H 0.49154 0.60379 0.83952 0.0
H2598 H 0.51153 0.60855 0.8799 0.0
H2599 H 0.46617 0.52843 0.89675 0.0
H2600 H 0.47662 0.50226 0.89896 0.0
H2601 H 0.46364 0.50536 0.87089 0.0
H2602 H 0.49855 0.50035 0.85213 0.0
H2603 H 0.51173 0.49749 0.88016 0.0
H2604 H 0.52498 0.52025 0.86486 0.0
H2605 H 0.53159 0.60441 0.92051 0.0
H2606 H 0.54653 0.59269 0.9565 0.0
H2607 H 0.5166 0.51755 0.92622 0.0
C2608 C 0.48286 0.54439 0.84373 0.0
C2609 C 0.48148 0.56472 0.83301 0.0
C2610 C 0.49179 0.58787 0.84688 0.0
C2611 C 0.50343 0.5907 0.86998 0.0
C2612 C 0.50455 0.57028 0.87976 0.0
C2613 C 0.49413 0.54754 0.8671 0.0
C2614 C 0.49709 0.52849 0.88187 0.0
C2615 C 0.47455 0.51535 0.88744 0.0
C2616 C 0.50879 0.51058 0.86899 0.0
C2617 C 0.51158 0.5438 0.90453 0.0
C2618 C 0.51554 0.56792 0.90295 0.0
C2619 C 0.5283 0.58555 0.92168 0.0
C2620 C 0.53681 0.57864 0.94235 0.0
C2621 C 0.53304 0.55414 0.94492 0.0
C2622 C 0.5202 0.53648 0.92527 0.0
H2623 H 0.79183 0.2171 0.08979 0.0
H2624 H 0.76878 0.15107 0.11601 0.0
H2625 H 0.76425 0.17467 0.15348 0.0
H2626 H 0.82418 0.24994 0.14022 0.0
H2627 H 0.8176 0.27842 0.13893 0.0
H2628 H 0.81525 0.25675 0.11215 0.0
H2629 H 0.77426 0.2576 0.10195 0.0
H2630 H 0.77657 0.2794 0.12881 0.0
H2631 H 0.75535 0.25166 0.12311 0.0
H2632 H 0.76982 0.20287 0.18896 0.0
H2633 H 0.78386 0.23569 0.22229 0.0
H2634 H 0.79958 0.28617 0.17524 0.0
C2635 C 0.78561 0.20771 0.10339 0.0
C2636 C 0.78071 0.18231 0.10009 0.0
C2637 C 0.7726 0.17052 0.11815 0.0
C2638 C 0.76974 0.18374 0.13942 0.0
C2639 C 0.7748 0.20867 0.14222 0.0
C2640 C 0.78243 0.22071 0.12482 0.0
C2641 C 0.78867 0.24777 0.13369 0.0
C2642 C 0.81286 0.25885 0.1311 0.0
C2643 C 0.77276 0.25982 0.12113 0.0
C2644 C 0.78527 0.24872 0.15934 0.0
C2645 C 0.77666 0.22585 0.16345 0.0
C2646 C 0.77526 0.22105 0.18594 0.0
C2647 C 0.78303 0.24004 0.20487 0.0
C2648 C 0.79125 0.2638 0.20132 0.0
C2649 C 0.79225 0.26835 0.17826 0.0
H2650 H 0.11643 0.54818 0.2999 0.0
H2651 H 0.18302 0.59321 0.30844 0.0
H2652 H 0.18016 0.60931 0.35012 0.0
H2653 H 0.09279 0.58808 0.32853 0.0
H2654 H 0.07504 0.56788 0.34318 0.0
H2655 H 0.08381 0.55634 0.31587 0.0
H2656 H 0.1007 0.52604 0.33515 0.0
H2657 H 0.09096 0.53651 0.36235 0.0
H2658 H 0.11974 0.53677 0.36214 0.0
H2659 H 0.16801 0.62262 0.39033 0.0
H2660 H 0.14808 0.62957 0.42532 0.0
H2661 H 0.08948 0.578 0.38654 0.0
C2662 C 0.13054 0.56093 0.31079 0.0
C2663 C 0.14975 0.56958 0.30137 0.0
C2664 C 0.16814 0.58627 0.3158 0.0
C2665 C 0.16668 0.59556 0.33935 0.0
C2666 C 0.1469 0.5875 0.34791 0.0
C2667 C 0.12941 0.57014 0.33414 0.0
C2668 C 0.10951 0.56533 0.34664 0.0
C2669 C 0.08911 0.5697 0.33272 0.0
C2670 C 0.10497 0.53965 0.35189 0.0
C2671 C 0.11785 0.58396 0.36882 0.0
C2672 C 0.13964 0.59614 0.36987 0.0
C2673 C 0.15087 0.61332 0.38967 0.0
C2674 C 0.1395 0.61746 0.4092 0.0
C2675 C 0.11716 0.60505 0.40788 0.0
C2676 C 0.1063 0.58851 0.38739 0.0
H2677 H 0.82145 0.87742 0.62699 0.0
H2678 H 0.7944 0.81376 0.57203 0.0
H2679 H 0.78574 0.78954 0.60233 0.0
H2680 H 0.84704 0.84858 0.66807 0.0
H2681 H 0.83993 0.86493 0.69438 0.0
H2682 H 0.84309 0.87851 0.66869 0.0
H2683 H 0.80373 0.88536 0.66869 0.0
H2684 H 0.80047 0.87171 0.69437 0.0
H2685 H 0.7807 0.86014 0.66801 0.0
H2686 H 0.78037 0.77158 0.6367 0.0
H2687 H 0.77992 0.75905 0.67468 0.0
H2688 H 0.81142 0.83256 0.71071 0.0
C2689 C 0.81369 0.85838 0.6214 0.0
C2690 C 0.80874 0.84754 0.59688 0.0
C2691 C 0.7985 0.82259 0.59046 0.0
C2692 C 0.79339 0.80862 0.60761 0.0
C2693 C 0.79852 0.81967 0.63139 0.0
C2694 C 0.80844 0.84391 0.63854 0.0
C2695 C 0.81244 0.85056 0.66565 0.0
C2696 C 0.8371 0.86128 0.67473 0.0
C2697 C 0.79851 0.86798 0.67471 0.0
C2698 C 0.80418 0.82596 0.67233 0.0
C2699 C 0.79578 0.80878 0.65202 0.0
C2700 C 0.78693 0.78483 0.65275 0.0
C2701 C 0.78683 0.77792 0.67467 0.0
C2702 C 0.79571 0.79463 0.6961 0.0
C2703 C 0.80443 0.81923 0.6949 0.0
H2704 H 0.74304 0.4424 0.51259 0.0
H2705 H 0.79239 0.50971 0.51783 0.0
H2706 H 0.76932 0.53159 0.53999 0.0
H2707 H 0.69753 0.46313 0.50045 0.0
H2708 H 0.68001 0.44664 0.51829 0.0
H2709 H 0.70208 0.43515 0.50699 0.0
H2710 H 0.71805 0.43369 0.54944 0.0
H2711 H 0.69596 0.44525 0.56098 0.0
H2712 H 0.72431 0.46054 0.57208 0.0
H2713 H 0.74117 0.54684 0.55769 0.0
H2714 H 0.70595 0.55638 0.56467 0.0
H2715 H 0.67268 0.4803 0.54641 0.0
C2716 C 0.74892 0.46173 0.5185 0.0
C2717 C 0.76943 0.4744 0.51359 0.0
C2718 C 0.77671 0.49965 0.5215 0.0
C2719 C 0.76391 0.51222 0.53441 0.0
C2720 C 0.74393 0.49926 0.53926 0.0
C2721 C 0.73623 0.47467 0.53139 0.0
C2722 C 0.71295 0.46582 0.53674 0.0
C2723 C 0.69722 0.4519 0.51427 0.0
C2724 C 0.71281 0.45041 0.55595 0.0
C2725 C 0.70802 0.48975 0.54628 0.0
C2726 C 0.72668 0.50847 0.54892 0.0
C2727 C 0.72647 0.53242 0.55622 0.0
C2728 C 0.70642 0.53763 0.56019 0.0
C2729 C 0.68682 0.51901 0.55637 0.0
C2730 C 0.68761 0.4947 0.54978 0.0
H2731 H 0.2026 0.17 0.51798 0.0
H2732 H 0.22419 0.12457 0.46191 0.0
H2733 H 0.19122 0.09218 0.46099 0.0
H2734 H 0.1794 0.12049 0.54785 0.0
H2735 H 0.15618 0.13208 0.55587 0.0
H2736 H 0.18164 0.15249 0.55287 0.0
H2737 H 0.16059 0.17028 0.52253 0.0
H2738 H 0.13505 0.14998 0.52547 0.0
H2739 H 0.1438 0.15044 0.49672 0.0
H2740 H 0.15654 0.06507 0.46439 0.0
H2741 H 0.12042 0.04348 0.47161 0.0
H2742 H 0.11852 0.10375 0.52654 0.0
C2743 C 0.20021 0.15329 0.50539 0.0
C2744 C 0.2161 0.15003 0.4898 0.0
C2745 C 0.21244 0.1277 0.47394 0.0
C2746 C 0.1937 0.10907 0.47331 0.0
C2747 C 0.17853 0.11268 0.48879 0.0
C2748 C 0.18138 0.1341 0.50462 0.0
C2749 C 0.16208 0.13254 0.51923 0.0
C2750 C 0.17032 0.13452 0.54552 0.0
C2751 C 0.14964 0.15197 0.51577 0.0
C2752 C 0.14776 0.10724 0.50845 0.0
C2753 C 0.15797 0.09631 0.4911 0.0
C2754 C 0.14838 0.07338 0.47796 0.0
C2755 C 0.12765 0.06124 0.48223 0.0
C2756 C 0.11631 0.07173 0.49963 0.0
C2757 C 0.12672 0.09509 0.51322 0.0
H2758 H 0.21456 0.94135 0.79698 0.0
H2759 H 0.20812 0.94559 0.72279 0.0
H2760 H 0.22621 0.91185 0.71438 0.0
H2761 H 0.26915 0.92754 0.79962 0.0
H2762 H 0.26356 0.90702 0.81975 0.0
H2763 H 0.24954 0.93099 0.82004 0.0
H2764 H 0.21181 0.89991 0.81342 0.0
H2765 H 0.22577 0.87589 0.81319 0.0
H2766 H 0.20563 0.8751 0.78853 0.0
H2767 H 0.24631 0.87586 0.71369 0.0
H2768 H 0.26564 0.84438 0.72101 0.0
H2769 H 0.26107 0.86222 0.79574 0.0
C2770 C 0.21684 0.93522 0.77888 0.0
C2771 C 0.20936 0.94694 0.76056 0.0
C2772 C 0.21328 0.93767 0.73736 0.0
C2773 C 0.22372 0.91818 0.73236 0.0
C2774 C 0.2309 0.90727 0.75063 0.0
C2775 C 0.22765 0.91562 0.77355 0.0
C2776 C 0.23736 0.90089 0.79 0.0
C2777 C 0.25601 0.9176 0.80847 0.0
C2778 C 0.21906 0.88714 0.80202 0.0
C2779 C 0.24657 0.88307 0.77302 0.0
C2780 C 0.24251 0.88706 0.75028 0.0
C2781 C 0.24938 0.8729 0.73154 0.0
C2782 C 0.26048 0.85472 0.73589 0.0
C2783 C 0.26516 0.84988 0.75889 0.0
C2784 C 0.25789 0.86472 0.77774 0.0
H2785 H 0.39193 1.00021 0.0419 0.0
H2786 H 0.38332 0.92647 0.00577 0.0
H2787 H 0.42328 0.93156 0.01041 0.0
H2788 H 0.4227 0.02501 0.01434 0.0
H2789 H 0.44319 0.04782 0.03496 0.0
H2790 H 0.41677 0.03649 0.0434 0.0
H2791 H 0.43444 0.02386 0.07986 0.0
H2792 H 0.46139 0.03606 0.07226 0.0
H2793 H 0.45388 1.00532 0.07642 0.0
H2794 H 0.45817 0.94871 0.99916 0.0
H2795 H 0.49002 0.97449 0.98616 0.0
H2796 H 0.47657 0.03768 0.02777 0.0
C2797 C 0.39865 0.98489 0.03626 0.0
C2798 C 0.38506 0.96352 0.02259 0.0
C2799 C 0.39376 0.94337 0.01572 0.0
C2800 C 0.41647 0.94599 0.01856 0.0
C2801 C 0.4299 0.96867 0.02856 0.0
C2802 C 0.4214 0.98757 0.03874 0.0
C2803 C 0.43843 0.01138 0.04307 0.0
C2804 C 0.42973 0.03127 0.03331 0.0
C2805 C 0.44758 0.01963 0.06947 0.0
C2806 C 0.45553 1.00356 0.02927 0.0
C2807 C 0.451 0.97883 0.02205 0.0
C2808 C 0.46259 0.96797 0.00575 0.0
C2809 C 0.48007 0.9827 0.99779 0.0
C2810 C 0.4853 1.00783 0.00603 0.0
C2811 C 0.47269 0.01835 0.02147 0.0
H2812 H 0.91263 0.60693 0.78224 0.0
H2813 H 0.85663 0.54467 0.77131 0.0
H2814 H 0.83521 0.56469 0.74682 0.0
H2815 H 0.88348 0.6511 0.78942 0.0
H2816 H 0.90048 0.67094 0.77379 0.0
H2817 H 0.91195 0.65039 0.78802 0.0
H2818 H 0.92352 0.63308 0.7482 0.0
H2819 H 0.91144 0.65323 0.73372 0.0
H2820 H 0.90294 0.62118 0.72255 0.0
H2821 H 0.81966 0.59078 0.72525 0.0
H2822 H 0.8067 0.62568 0.71712 0.0
H2823 H 0.87231 0.67194 0.74217 0.0
C2824 C 0.89578 0.59757 0.77486 0.0
C2825 C 0.88623 0.57426 0.77861 0.0
C2826 C 0.8642 0.56259 0.76871 0.0
C2827 C 0.85209 0.57358 0.75438 0.0
C2828 C 0.86236 0.59605 0.7501 0.0
C2829 C 0.8835 0.60821 0.76047 0.0
C2830 C 0.88976 0.63328 0.75505 0.0
C2831 C 0.89679 0.65256 0.77793 0.0
C2832 C 0.90799 0.6353 0.73892 0.0
C2833 C 0.868 0.63401 0.74184 0.0
C2834 C 0.85296 0.61182 0.738 0.0
C2835 C 0.83126 0.60819 0.72778 0.0
C2836 C 0.82412 0.62815 0.723 0.0
C2837 C 0.83856 0.65145 0.72903 0.0
C2838 C 0.86108 0.65422 0.73722 0.0
H2839 H 0.84285 0.63222 0.98535 0.0
H2840 H 0.856 0.69645 0.03985 0.0
H2841 H 0.89187 0.68856 0.0543 0.0
H2842 H 0.86354 0.59589 0.01922 0.0
H2843 H 0.87504 0.58063 0.99553 0.0
H2844 H 0.85156 0.59259 0.98894 0.0
H2845 H 0.87272 0.61807 0.9615 0.0
H2846 H 0.89603 0.60561 0.96746 0.0
H2847 H 0.89955 0.63784 0.97284 0.0
H2848 H 0.92568 0.67016 0.06426 0.0
H2849 H 0.95468 0.64693 0.06483 0.0
H2850 H 0.91784 0.59632 1.0028 0.0
C2851 C 0.85352 0.64496 0.99997 0.0
C2852 C 0.84687 0.66503 0.01129 0.0
C2853 C 0.86109 0.68119 0.03061 0.0
C2854 C 0.88134 0.67667 0.03908 0.0
C2855 C 0.88709 0.65611 0.02781 0.0
C2856 C 0.87365 0.64089 0.00835 0.0
C2857 C 0.88297 0.61994 0.99914 0.0
C2858 C 0.86735 0.59585 1.00082 0.0
C2859 C 0.88813 0.6204 0.97373 0.0
C2860 C 0.9038 0.62545 0.01635 0.0
C2861 C 0.90605 0.64619 0.03304 0.0
C2862 C 0.92411 0.65412 0.051 0.0
C2863 C 0.94044 0.64085 0.05128 0.0
C2864 C 0.93858 0.62021 0.03353 0.0
C2865 C 0.91984 0.61234 0.01626 0.0
H2866 H 0.20736 0.12828 0.79824 0.0
H2867 H 0.22577 0.08472 0.73865 0.0
H2868 H 0.24965 0.12157 0.72978 0.0
H2869 H 0.20668 0.18117 0.77448 0.0
H2870 H 0.21979 0.20271 0.80096 0.0
H2871 H 0.20426 0.17313 0.80307 0.0
H2872 H 0.23819 0.16607 0.8271 0.0
H2873 H 0.25375 0.19578 0.82538 0.0
H2874 H 0.26408 0.16982 0.81527 0.0
H2875 H 0.27151 0.16427 0.72652 0.0
H2876 H 0.2919 0.20673 0.73141 0.0
H2877 H 0.2615 0.22496 0.79393 0.0
C2878 C 0.21674 0.12637 0.78354 0.0
C2879 C 0.21461 0.10287 0.76939 0.0
C2880 C 0.22719 0.10186 0.75023 0.0
C2881 C 0.24074 0.12299 0.74489 0.0
C2882 C 0.24233 0.14566 0.75902 0.0
C2883 C 0.23104 0.14743 0.77836 0.0
C2884 C 0.23659 0.17399 0.79135 0.0
C2885 C 0.21557 0.1833 0.79253 0.0
C2886 C 0.24887 0.17657 0.81626 0.0
C2887 C 0.25198 0.1871 0.7758 0.0
C2888 C 0.25505 0.17019 0.7573 0.0
C2889 C 0.26901 0.17744 0.74095 0.0
C2890 C 0.28048 0.20198 0.74375 0.0
C2891 C 0.27813 0.22011 0.76249 0.0
C2892 C 0.26336 0.21221 0.77877 0.0
H2893 H 0.40052 0.94392 0.23741 0.0
H2894 H 0.43539 0.95219 0.30765 0.0
H2895 H 0.40455 0.92248 0.31746 0.0
H2896 H 0.35058 0.94153 0.25034 0.0
H2897 H 0.33453 0.9175 0.22717 0.0
H2898 H 0.36082 0.93489 0.22246 0.0
H2899 H 0.37587 0.89667 0.21287 0.0
H2900 H 0.34888 0.87935 0.21562 0.0
H2901 H 0.37292 0.87548 0.23262 0.0
H2902 H 0.36728 0.90192 0.32282 0.0
H2903 H 0.33079 0.87414 0.31852 0.0
H2904 H 0.32086 0.87657 0.24373 0.0
C2905 C 0.40219 0.93807 0.25417 0.0
C2906 C 0.42 0.94978 0.27182 0.0
C2907 C 0.42179 0.94272 0.29394 0.0
C2908 C 0.40427 0.92629 0.29977 0.0
C2909 C 0.38579 0.91685 0.28283 0.0
C2910 C 0.38513 0.92113 0.26 0.0
C2911 C 0.363 0.90883 0.24548 0.0
C2912 C 0.35159 0.92679 0.23581 0.0
C2913 C 0.36536 0.88889 0.22547 0.0
C2914 C 0.35105 0.89842 0.26419 0.0
C2915 C 0.36439 0.90372 0.28569 0.0
C2916 C 0.35685 0.89686 0.3059 0.0
C2917 C 0.33586 0.88156 0.30335 0.0
C2918 C 0.32351 0.87277 0.28055 0.0
C2919 C 0.33022 0.88295 0.26124 0.0
H2920 H 0.58885 0.37514 0.55028 0.0
H2921 H 0.57136 0.39552 0.62047 0.0
H2922 H 0.55947 0.42957 0.60852 0.0
H2923 H 0.61071 0.4363 0.54204 0.0
H2924 H 0.59991 0.43068 0.51111 0.0
H2925 H 0.60641 0.4066 0.5242 0.0
H2926 H 0.56652 0.38086 0.50973 0.0
H2927 H 0.55989 0.40504 0.49684 0.0
H2928 H 0.54352 0.39277 0.51795 0.0
H2929 H 0.54897 0.46093 0.59051 0.0
H2930 H 0.54424 0.49203 0.56763 0.0
H2931 H 0.56969 0.45519 0.50885 0.0
C2932 C 0.58253 0.38681 0.56307 0.0
C2933 C 0.58104 0.38238 0.58644 0.0
C2934 C 0.57274 0.39825 0.60257 0.0
C2935 C 0.56578 0.41771 0.59591 0.0
C2936 C 0.56723 0.42148 0.57298 0.0
C2937 C 0.57562 0.40683 0.55674 0.0
C2938 C 0.57601 0.41615 0.53352 0.0
C2939 C 0.59967 0.42283 0.52737 0.0
C2940 C 0.56057 0.39759 0.51331 0.0
C2941 C 0.56705 0.43849 0.53974 0.0
C2942 C 0.56167 0.44066 0.56248 0.0
C2943 C 0.55307 0.45948 0.57265 0.0
C2944 C 0.55033 0.47699 0.55951 0.0
C2945 C 0.55633 0.47581 0.53652 0.0
C2946 C 0.56467 0.45623 0.52632 0.0
H2947 H 0.43409 0.7475 0.35859 0.0
H2948 H 0.46765 0.82314 0.3808 0.0
H2949 H 0.43481 0.83457 0.3644 0.0
H2950 H 0.40707 0.75048 0.30453 0.0
H2951 H 0.38087 0.73037 0.30575 0.0
H2952 H 0.40563 0.72738 0.32209 0.0
H2953 H 0.38793 0.73171 0.3608 0.0
H2954 H 0.36304 0.73453 0.34439 0.0
H2955 H 0.37695 0.75754 0.36947 0.0
H2956 H 0.39958 0.83857 0.34253 0.0
H2957 H 0.36453 0.83409 0.31661 0.0
H2958 H 0.35302 0.75641 0.30698 0.0
C2959 C 0.4342 0.76642 0.36069 0.0
C2960 C 0.45361 0.78443 0.37134 0.0
C2961 C 0.45308 0.80898 0.37299 0.0
C2962 C 0.43443 0.81572 0.36368 0.0
C2963 C 0.41588 0.79779 0.35272 0.0
C2964 C 0.41537 0.77359 0.35142 0.0
C2965 C 0.39339 0.75816 0.33766 0.0
C2966 C 0.39697 0.74057 0.31623 0.0
C2967 C 0.37952 0.74467 0.35405 0.0
C2968 C 0.38263 0.77735 0.33006 0.0
C2969 C 0.39558 0.80013 0.33963 0.0
C2970 C 0.38918 0.82078 0.33521 0.0
C2971 C 0.36914 0.81811 0.32056 0.0
C2972 C 0.35583 0.79496 0.30998 0.0
C2973 C 0.36273 0.77437 0.31499 0.0
H2974 H 0.07661 0.7349 0.05222 0.0
H2975 H 0.08621 0.72547 0.12542 0.0
H2976 H 0.08344 0.6833 0.11228 0.0
H2977 H 0.03505 0.67415 0.03308 0.0
H2978 H 0.04403 0.66767 1.00455 0.0
H2979 H 0.04602 0.69844 0.01841 0.0
H2980 H 0.08775 0.70902 0.01454 0.0
H2981 H 0.08583 0.67817 1.00104 0.0
H2982 H 0.10542 0.69237 0.02709 0.0
H2983 H 0.08617 0.64522 0.09429 0.0
H2984 H 0.08292 0.60572 0.06981 0.0
H2985 H 0.06545 0.63279 0.00684 0.0
C2986 C 0.0779 0.72383 0.06535 0.0
C2987 C 0.08251 0.73414 0.08999 0.0
C2988 C 0.08352 0.71874 0.10651 0.0
C2989 C 0.0819 0.69445 0.09929 0.0
C2990 C 0.07859 0.68513 0.07536 0.0
C2991 C 0.07563 0.69866 0.05837 0.0
C2992 C 0.07103 0.68237 0.03381 0.0
C2993 C 0.04764 0.68056 0.02176 0.0
C2994 C 0.08856 0.69102 0.0182 0.0
C2995 C 0.07289 0.65834 0.04026 0.0
C2996 C 0.07771 0.66096 0.06442 0.0
C2997 C 0.08187 0.64257 0.07533 0.0
C2998 C 0.08024 0.62029 0.06127 0.0
C2999 C 0.07398 0.61639 0.03663 0.0
C3000 C 0.07027 0.63556 0.02575 0.0
H3001 H 0.10368 0.2803 0.91019 0.0
H3002 H 0.05723 0.28789 0.8531 0.0
H3003 H 0.08793 0.30226 0.83165 0.0
H3004 H 0.14954 0.33297 0.90435 0.0
H3005 H 0.17093 0.31773 0.91025 0.0
H3006 H 0.14586 0.31124 0.92347 0.0
H3007 H 0.13957 0.26593 0.90556 0.0
H3008 H 0.16456 0.27231 0.89227 0.0
H3009 H 0.13879 0.25658 0.87409 0.0
H3010 H 0.12201 0.3134 0.81489 0.0
H3011 H 0.15853 0.31801 0.80164 0.0
H3012 H 0.18489 0.30115 0.86711 0.0
C3013 C 0.10011 0.2853 0.89331 0.0
C3014 C 0.07793 0.2829 0.88331 0.0
C3015 C 0.07393 0.28937 0.86109 0.0
C3016 C 0.09132 0.29779 0.84881 0.0
C3017 C 0.11282 0.29954 0.85877 0.0
C3018 C 0.11747 0.29344 0.88043 0.0
C3019 C 0.14221 0.29529 0.88579 0.0
C3020 C 0.15275 0.31551 0.90724 0.0
C3021 C 0.14653 0.27108 0.88964 0.0
C3022 C 0.15026 0.30194 0.8631 0.0
C3023 C 0.13299 0.3051 0.84831 0.0
C3024 C 0.13574 0.31113 0.82633 0.0
C3025 C 0.1566 0.31374 0.81897 0.0
C3026 C 0.17462 0.31002 0.83327 0.0
C3027 C 0.17141 0.30408 0.85577 0.0
H3028 H 0.5828 0.7471 0.89978 0.0
H3029 H 0.60834 0.79974 0.96485 0.0
H3030 H 0.59137 0.77037 0.9878 0.0
H3031 H 0.53071 0.71808 0.91914 0.0
H3032 H 0.53118 0.68809 0.90507 0.0
H3033 H 0.5435 0.71363 0.89266 0.0
H3034 H 0.58061 0.70109 0.89449 0.0
H3035 H 0.56826 0.67539 0.90654 0.0
H3036 H 0.59308 0.6965 0.92218 0.0
H3037 H 0.57152 0.73778 1.00378 0.0
H3038 H 0.55661 0.69864 0.01416 0.0
H3039 H 0.54657 0.66409 0.94008 0.0
C3040 C 0.58478 0.75233 0.91887 0.0
C3041 C 0.59668 0.77574 0.93063 0.0
C3042 C 0.59925 0.78195 0.95555 0.0
C3043 C 0.58946 0.76551 0.96871 0.0
C3044 C 0.57737 0.74291 0.95669 0.0
C3045 C 0.57538 0.7359 0.93244 0.0
C3046 C 0.56298 0.70958 0.92453 0.0
C3047 C 0.54078 0.70722 0.90946 0.0
C3048 C 0.5771 0.69477 0.91117 0.0
C3049 C 0.55943 0.70286 0.9484 0.0
C3050 C 0.56698 0.72284 0.96639 0.0
C3051 C 0.56551 0.72191 0.98998 0.0
C3052 C 0.55686 0.69967 0.99566 0.0
C3053 C 0.5503 0.67863 0.97789 0.0
C3054 C 0.55127 0.68013 0.95386 0.0
H3055 H 0.0611 0.73351 0.68653 0.0
H3056 H 0.06786 0.80709 0.6768 0.0
H3057 H 0.10597 0.81853 0.69833 0.0
H3058 H 0.09004 0.74752 0.74519 0.0
H3059 H 0.10311 0.72274 0.74077 0.0
H3060 H 0.07666 0.72029 0.72418 0.0
H3061 H 0.09227 0.71056 0.68472 0.0
H3062 H 0.11862 0.71239 0.70112 0.0
H3063 H 0.1168 0.73074 0.67913 0.0
H3064 H 0.14332 0.82112 0.7192 0.0
H3065 H 0.17821 0.8145 0.7377 0.0
H3066 H 0.14547 0.73988 0.73579 0.0
C3067 C 0.07076 0.75196 0.68899 0.0
C3068 C 0.06213 0.7696 0.68034 0.0
C3069 C 0.0747 0.79359 0.68358 0.0
C3070 C 0.09614 0.80017 0.69575 0.0
C3071 C 0.10426 0.78244 0.70453 0.0
C3072 C 0.092 0.75883 0.70124 0.0
C3073 C 0.10457 0.74319 0.71216 0.0
C3074 C 0.0929 0.73284 0.73175 0.0
C3075 C 0.10829 0.72304 0.69315 0.0
C3076 C 0.12582 0.76172 0.72217 0.0
C3077 C 0.1254 0.78422 0.71749 0.0
C3078 C 0.14381 0.80374 0.72338 0.0
C3079 C 0.16339 0.79991 0.73389 0.0
C3080 C 0.16398 0.77691 0.73851 0.0
C3081 C 0.14497 0.75779 0.73306 0.0
H3082 H 0.09645 0.38951 0.44234 0.0
H3083 H 0.13682 0.4371 0.40392 0.0
H3084 H 0.12163 0.47051 0.4216 0.0
H3085 H 0.04881 0.41435 0.43626 0.0
H3086 H 0.04188 0.41133 0.46531 0.0
H3087 H 0.05551 0.39053 0.44968 0.0
H3088 H 0.0872 0.40107 0.48487 0.0
H3089 H 0.07323 0.42127 0.50071 0.0
H3090 H 0.10146 0.4322 0.49598 0.0
H3091 H 0.10132 0.49748 0.44089 0.0
H3092 H 0.08312 0.52012 0.46873 0.0
H3093 H 0.05713 0.45633 0.49646 0.0
C3094 C 0.1025 0.40708 0.43805 0.0
C3095 C 0.11781 0.41085 0.4218 0.0
C3096 C 0.12509 0.43396 0.41636 0.0
C3097 C 0.11637 0.45289 0.42602 0.0
C3098 C 0.10046 0.44821 0.44093 0.0
C3099 C 0.09391 0.42614 0.44742 0.0
C3100 C 0.07707 0.42634 0.46451 0.0
C3101 C 0.05449 0.40964 0.45326 0.0
C3102 C 0.08525 0.41986 0.48791 0.0
C3103 C 0.07623 0.45242 0.46755 0.0
C3104 C 0.08912 0.46429 0.45295 0.0
C3105 C 0.09119 0.48845 0.45245 0.0
C3106 C 0.0807 0.50121 0.46828 0.0
C3107 C 0.06891 0.48993 0.48456 0.0
C3108 C 0.06603 0.46514 0.48387 0.0
H3109 H 0.4251 0.25779 0.17061 0.0
H3110 H 0.45435 0.22869 0.22689 0.0
H3111 H 0.42982 0.24278 0.25329 0.0
H3112 H 0.41734 0.30969 0.20366 0.0
H3113 H 0.39004 0.30822 0.18958 0.0
H3114 H 0.40853 0.29436 0.17335 0.0
H3115 H 0.37978 0.25305 0.16416 0.0
H3116 H 0.36087 0.26714 0.17944 0.0
H3117 H 0.3678 0.24101 0.18809 0.0
H3118 H 0.40618 0.26321 0.27507 0.0
H3119 H 0.37573 0.2802 0.28868 0.0
H3120 H 0.36011 0.29486 0.2189 0.0
C3121 C 0.42596 0.25398 0.18832 0.0
C3122 C 0.4419 0.24258 0.19683 0.0
C3123 C 0.44239 0.23754 0.21998 0.0
C3124 C 0.42866 0.24562 0.23526 0.0
C3125 C 0.41415 0.25809 0.22689 0.0
C3126 C 0.41186 0.26135 0.20375 0.0
C3127 C 0.39398 0.27443 0.19937 0.0
C3128 C 0.40303 0.29809 0.191 0.0
C3129 C 0.37446 0.25793 0.18173 0.0
C3130 C 0.38769 0.27907 0.22405 0.0
C3131 C 0.39968 0.26953 0.23958 0.0
C3132 C 0.39654 0.27074 0.26319 0.0
C3133 C 0.37956 0.28064 0.27085 0.0
C3134 C 0.36636 0.28913 0.25486 0.0
C3135 C 0.37075 0.28912 0.23146 0.0
H3136 H 0.61004 0.49495 0.34301 0.0
H3137 H 0.65484 0.5659 0.35874 0.0
H3138 H 0.64206 0.5738 0.39769 0.0
H3139 H 0.56493 0.51076 0.37058 0.0
H3140 H 0.55737 0.48421 0.38326 0.0
H3141 H 0.57087 0.48297 0.35708 0.0
H3142 H 0.60142 0.46749 0.37802 0.0
H3143 H 0.58793 0.46865 0.40426 0.0
H3144 H 0.61642 0.48454 0.406 0.0
H3145 H 0.62363 0.57496 0.43677 0.0
H3146 H 0.60086 0.56934 0.46926 0.0
H3147 H 0.56594 0.49874 0.42959 0.0
C3148 C 0.61779 0.51185 0.35493 0.0
C3149 C 0.63463 0.52937 0.34738 0.0
C3150 C 0.64288 0.55161 0.36373 0.0
C3151 C 0.63544 0.55642 0.38615 0.0
C3152 C 0.61917 0.53901 0.39303 0.0
C3153 C 0.61043 0.51703 0.37787 0.0
C3154 C 0.59274 0.50169 0.38975 0.0
C3155 C 0.57013 0.49449 0.37423 0.0
C3156 C 0.60005 0.47925 0.39479 0.0
C3157 C 0.5923 0.51874 0.41324 0.0
C3158 C 0.60811 0.54002 0.41499 0.0
C3159 C 0.61133 0.5582 0.43536 0.0
C3160 C 0.59833 0.5548 0.45411 0.0
C3161 C 0.58152 0.53347 0.4529 0.0
C3162 C 0.57866 0.51529 0.43173 0.0
H3163 H 0.33279 0.93308 0.08698 0.0
H3164 H 0.3151 0.86811 0.03245 0.0
H3165 H 0.33348 0.84717 0.05838 0.0
H3166 H 0.38642 0.92316 0.11413 0.0
H3167 H 0.38153 0.93361 0.1438 0.0
H3168 H 0.37136 0.94611 0.11973 0.0
H3169 H 0.33153 0.93462 0.13057 0.0
H3170 H 0.3419 0.92283 0.15489 0.0
H3171 H 0.31977 0.90391 0.13306 0.0
H3172 H 0.35139 0.8324 0.08876 0.0
H3173 H 0.35745 0.81989 0.12677 0.0
H3174 H 0.36017 0.892 0.16404 0.0
C3175 C 0.33291 0.91447 0.08062 0.0
C3176 C 0.32269 0.90218 0.05777 0.0
C3177 C 0.32277 0.87779 0.04998 0.0
C3178 C 0.33363 0.86591 0.06433 0.0
C3179 C 0.34412 0.8786 0.08646 0.0
C3180 C 0.34329 0.90205 0.09501 0.0
C3181 C 0.35242 0.90979 0.12102 0.0
C3182 C 0.37422 0.92933 0.12488 0.0
C3183 C 0.33538 0.91825 0.13574 0.0
C3184 C 0.35658 0.88625 0.12593 0.0
C3185 C 0.35317 0.86918 0.10531 0.0
C3186 C 0.3545 0.84558 0.10506 0.0
C3187 C 0.35805 0.83869 0.12664 0.0
C3188 C 0.35949 0.85522 0.1479 0.0
C3189 C 0.35962 0.87946 0.14775 0.0
H3190 H 0.96149 0.51319 0.87017 0.0
H3191 H 0.99641 0.58097 0.85461 0.0
H3192 H 0.01633 0.59269 0.89493 0.0
H3193 H 0.96308 0.53789 0.93839 0.0
H3194 H 0.96739 0.50994 0.94514 0.0
H3195 H 0.9501 0.50985 0.91839 0.0
H3196 H 0.97388 0.48677 0.8939 0.0
H3197 H 0.99132 0.48699 0.92034 0.0
H3198 H 1.00327 0.49934 0.89654 0.0
H3199 H 0.03928 0.59204 0.92877 0.0
H3200 H 0.06309 0.5809 0.9588 0.0
H3201 H 0.01393 0.5141 0.95545 0.0
C3202 C 0.97253 0.53094 0.876 0.0
C3203 C 0.97752 0.54661 0.86011 0.0
C3204 C 0.99249 0.56923 0.86716 0.0
C3205 C 1.00363 0.57603 0.88996 0.0
C3206 C 0.99935 0.55993 0.90521 0.0
C3207 C 0.9839 0.53794 0.89886 0.0
C3208 C 0.98555 0.52239 0.91722 0.0
C3209 C 0.96533 0.51988 0.93057 0.0
C3210 C 0.98872 0.49743 0.90633 0.0
C3211 C 0.006 0.53796 0.93304 0.0
C3212 C 0.01312 0.55981 0.92614 0.0
C3213 C 0.03348 0.57559 0.9352 0.0
C3214 C 0.04701 0.56897 0.95187 0.0
C3215 C 0.03996 0.54687 0.95919 0.0
C3216 C 0.01914 0.53136 0.9502 0.0
H3217 H 0.29124 0.25703 0.57653 0.0
H3218 H 0.30088 0.18676 0.58494 0.0
H3219 H 0.30279 0.1982 0.62759 0.0
H3220 H 0.33026 0.28917 0.63417 0.0
H3221 H 0.31414 0.31092 0.64084 0.0
H3222 H 0.31591 0.29878 0.61049 0.0
H3223 H 0.27318 0.2855 0.60237 0.0
H3224 H 0.27131 0.29696 0.63282 0.0
H3225 H 0.25837 0.2659 0.6198 0.0
H3226 H 0.29667 0.21248 0.66697 0.0
H3227 H 0.29323 0.23475 0.7059 0.0
H3228 H 0.29165 0.29817 0.67608 0.0
C3229 C 0.2943 0.24439 0.58747 0.0
C3230 C 0.2951 0.22065 0.57724 0.0
C3231 C 0.29944 0.20473 0.59217 0.0
C3232 C 0.30067 0.21104 0.61653 0.0
C3233 C 0.29827 0.2337 0.62599 0.0
C3234 C 0.2962 0.25068 0.61235 0.0
C3235 C 0.29441 0.27389 0.62801 0.0
C3236 C 0.3149 0.2944 0.62839 0.0
C3237 C 0.27303 0.28096 0.62027 0.0
C3238 C 0.29399 0.26625 0.65193 0.0
C3239 C 0.29628 0.24292 0.65003 0.0
C3240 C 0.29535 0.23096 0.66893 0.0
C3241 C 0.29305 0.24355 0.69083 0.0
C3242 C 0.29183 0.26779 0.69368 0.0
C3243 C 0.29212 0.2794 0.67404 0.0
H3244 H 0.62438 0.54841 0.20444 0.0
H3245 H 0.64304 0.48166 0.18116 0.0
H3246 H 0.62563 0.4797 0.14058 0.0
H3247 H 0.57119 0.53404 0.16426 0.0
H3248 H 0.57471 0.56401 0.15811 0.0
H3249 H 0.58701 0.55963 0.18596 0.0
H3250 H 0.62522 0.58254 0.17829 0.0
H3251 H 0.61302 0.58688 0.15039 0.0
H3252 H 0.63572 0.57258 0.1514 0.0
H3253 H 0.60606 0.48415 0.10191 0.0
H3254 H 0.58852 0.49579 0.06759 0.0
H3255 H 0.58353 0.562 0.11207 0.0
C3256 C 0.62448 0.53315 0.19088 0.0
C3257 C 0.63498 0.51478 0.19666 0.0
C3258 C 0.6351 0.49575 0.1778 0.0
C3259 C 0.62517 0.49451 0.15447 0.0
C3260 C 0.61522 0.51273 0.14936 0.0
C3261 C 0.61491 0.5319 0.16694 0.0
C3262 C 0.60406 0.54967 0.15587 0.0
C3263 C 0.58299 0.55198 0.1667 0.0
C3264 C 0.62048 0.57439 0.15919 0.0
C3265 C 0.59841 0.5375 0.12945 0.0
C3266 C 0.60483 0.51602 0.12645 0.0
C3267 C 0.60116 0.50103 0.10419 0.0
C3268 C 0.59098 0.50792 0.08452 0.0
C3269 C 0.58435 0.52999 0.0863 0.0
C3270 C 0.58827 0.54502 0.10952 0.0
H3271 H 0.31474 0.91535 0.90339 0.0
H3272 H 0.34232 0.88012 0.95504 0.0
H3273 H 0.34488 0.84719 0.92313 0.0
H3274 H 0.28003 0.86272 0.87092 0.0
H3275 H 0.28189 0.87123 0.84249 0.0
H3276 H 0.28602 0.89409 0.86871 0.0
H3277 H 0.32449 0.9144 0.85878 0.0
H3278 H 0.32031 0.89167 0.83233 0.0
H3279 H 0.34454 0.89681 0.85373 0.0
H3280 H 0.33888 0.81541 0.88685 0.0
H3281 H 0.32636 0.78791 0.8478 0.0
H3282 H 0.30309 0.84435 0.82043 0.0
C3283 C 0.32205 0.90112 0.90774 0.0
C3284 C 0.32859 0.90013 0.9313 0.0
C3285 C 0.33734 0.88096 0.93682 0.0
C3286 C 0.33892 0.8623 0.9189 0.0
C3287 C 0.33153 0.86321 0.89575 0.0
C3288 C 0.32335 0.88216 0.89011 0.0
C3289 C 0.31393 0.87739 0.86437 0.0
C3290 C 0.289 0.87629 0.86147 0.0
C3291 C 0.32659 0.89618 0.85155 0.0
C3292 C 0.31811 0.85287 0.85649 0.0
C3293 C 0.32818 0.84488 0.87479 0.0
C3294 C 0.33146 0.82162 0.87219 0.0
C3295 C 0.32422 0.80613 0.85017 0.0
C3296 C 0.31414 0.81429 0.83136 0.0
C3297 C 0.31129 0.83794 0.8345 0.0
H3298 H 0.95683 0.54676 0.71276 0.0
H3299 H 0.94397 0.47834 0.73592 0.0
H3300 H 0.9583 0.45975 0.70093 0.0
H3301 H 0.9361 0.5205 0.65327 0.0
H3302 H 0.9553 0.54202 0.64135 0.0
H3303 H 0.94714 0.55073 0.66991 0.0
H3304 H 0.98811 0.56369 0.68947 0.0
H3305 H 0.9965 0.55595 0.66088 0.0
H3306 H 0.00533 0.54272 0.68501 0.0
H3307 H 0.97506 0.44964 0.66376 0.0
H3308 H 0.99149 0.44848 0.62623 0.0
H3309 H 0.98634 0.52174 0.62581 0.0
C3310 C 0.95739 0.52799 0.71047 0.0
C3311 C 0.94996 0.51391 0.72673 0.0
C3312 C 0.95018 0.48928 0.72346 0.0
C3313 C 0.95814 0.47862 0.70373 0.0
C3314 C 0.96494 0.49286 0.68745 0.0
C3315 C 0.96438 0.51691 0.69053 0.0
C3316 C 0.97055 0.52775 0.66963 0.0
C3317 C 0.95111 0.53571 0.65785 0.0
C3318 C 0.99136 0.54874 0.67666 0.0
C3319 C 0.97496 0.50612 0.65442 0.0
C3320 C 0.97196 0.48622 0.66499 0.0
C3321 C 0.97698 0.46486 0.65491 0.0
C3322 C 0.986 0.4642 0.63363 0.0
C3323 C 0.98925 0.48462 0.62287 0.0
C3324 C 0.98302 0.50544 0.63308 0.0
H3325 H 0.3053 0.26624 0.44266 0.0
H3326 H 0.28036 0.19086 0.40922 0.0
H3327 H 0.28273 0.20162 0.37009 0.0
H3328 H 0.27842 0.29132 0.39876 0.0
H3329 H 0.30142 0.31657 0.39939 0.0
H3330 H 0.29787 0.30348 0.42533 0.0
H3331 H 0.33735 0.29673 0.42649 0.0
H3332 H 0.34102 0.30989 0.4006 0.0
H3333 H 0.34498 0.28008 0.40069 0.0
H3334 H 0.2827 0.22044 0.33469 0.0
H3335 H 0.28658 0.24601 0.30485 0.0
H3336 H 0.31798 0.30838 0.35874 0.0
C3337 C 0.30036 0.25207 0.42707 0.0
C3338 C 0.29238 0.22765 0.42912 0.0
C3339 C 0.28642 0.20964 0.40825 0.0
C3340 C 0.28766 0.21557 0.38585 0.0
C3341 C 0.29535 0.23962 0.38437 0.0
C3342 C 0.30208 0.25762 0.40432 0.0
C3343 C 0.31032 0.28195 0.39728 0.0
C3344 C 0.29616 0.29936 0.40569 0.0
C3345 C 0.33488 0.29279 0.40684 0.0
C3346 C 0.30682 0.27466 0.37037 0.0
C3347 C 0.2978 0.25019 0.36347 0.0
C3348 C 0.29084 0.23942 0.33981 0.0
C3349 C 0.29364 0.25391 0.32268 0.0
C3350 C 0.3043 0.27863 0.32883 0.0
C3351 C 0.31064 0.28923 0.35321 0.0
H3352 H 0.35153 0.63345 0.50655 0.0
H3353 H 0.32733 0.57824 0.54676 0.0
H3354 H 0.35672 0.55841 0.5357 0.0
H3355 H 0.36458 0.59353 0.45891 0.0
H3356 H 0.38891 0.61485 0.45454 0.0
H3357 H 0.36632 0.6254 0.46596 0.0
H3358 H 0.39273 0.65169 0.50268 0.0
H3359 H 0.41547 0.64157 0.49122 0.0
H3360 H 0.40946 0.6379 0.52045 0.0
H3361 H 0.38628 0.54363 0.51928 0.0
H3362 H 0.4193 0.53669 0.50224 0.0
H3363 H 0.42564 0.60191 0.47337 0.0
C3364 C 0.35259 0.61738 0.51334 0.0
C3365 C 0.33718 0.60724 0.52745 0.0
C3366 C 0.33898 0.58618 0.53588 0.0
C3367 C 0.35548 0.57476 0.5296 0.0
C3368 C 0.36987 0.58474 0.51499 0.0
C3369 C 0.36888 0.60571 0.50721 0.0
C3370 C 0.38646 0.6125 0.49163 0.0
C3371 C 0.37594 0.61151 0.46626 0.0
C3372 C 0.40195 0.63738 0.50214 0.0
C3373 C 0.398 0.59238 0.49262 0.0
C3374 C 0.38764 0.57634 0.50573 0.0
C3375 C 0.39466 0.556 0.50907 0.0
C3376 C 0.41325 0.55219 0.49928 0.0
C3377 C 0.4246 0.56876 0.48659 0.0
C3378 C 0.41695 0.58904 0.48295 0.0
H3379 H 0.89959 0.96866 0.56165 0.0
H3380 H 0.89344 0.91026 0.50225 0.0
H3381 H 0.93128 0.9286 0.49471 0.0
H3382 H 0.92807 0.01516 0.53721 0.0
H3383 H 0.94619 0.03126 0.5638 0.0
H3384 H 0.91955 0.01257 0.56578 0.0
H3385 H 0.93791 0.98823 0.59189 0.0
H3386 H 0.9646 1.00721 0.59043 0.0
H3387 H 0.9595 0.97496 0.58152 0.0
H3388 H 0.96824 0.95687 0.49081 0.0
H3389 H 1.0027 0.98862 0.49431 0.0
H3390 H 0.98626 0.02687 0.55851 0.0
C3391 C 0.90657 0.95927 0.54763 0.0
C3392 C 0.89379 0.93768 0.53291 0.0
C3393 C 0.90319 0.92636 0.5142 0.0
C3394 C 0.92459 0.93685 0.50963 0.0
C3395 C 0.93659 0.95848 0.5242 0.0
C3396 C 0.9281 0.9692 0.54322 0.0
C3397 C 0.94418 0.9925 0.55607 0.0
C3398 C 0.93388 0.01414 0.55568 0.0
C3399 C 0.95201 0.99061 0.58149 0.0
C3400 C 0.9629 0.99364 0.54111 0.0
C3401 C 0.95813 0.97397 0.52264 0.0
C3402 C 0.97231 0.97193 0.50561 0.0
C3403 C 0.99196 0.99008 0.50779 0.0
C3404 C 0.99762 0.00994 0.52709 0.0
C3405 C 0.98272 0.01167 0.54386 0.0
H3406 H 0.8657 0.12216 0.26139 0.0
H3407 H 0.93324 0.16389 0.26667 0.0
H3408 H 0.92009 0.20114 0.26958 0.0
H3409 H 0.83854 0.1574 0.22736 0.0
H3410 H 0.81515 0.15643 0.24343 0.0
H3411 H 0.82939 0.13258 0.24205 0.0
H3412 H 0.83568 0.13972 0.28767 0.0
H3413 H 0.82141 0.16356 0.28907 0.0
H3414 H 0.84906 0.16945 0.30426 0.0
H3415 H 0.89924 0.23581 0.2708 0.0
H3416 H 0.87399 0.26268 0.27112 0.0
H3417 H 0.81832 0.20149 0.26648 0.0
C3418 C 0.87785 0.13907 0.26311 0.0
C3419 C 0.90106 0.13904 0.26346 0.0
C3420 C 0.91566 0.16235 0.26615 0.0
C3421 C 0.90819 0.18403 0.26784 0.0
C3422 C 0.88558 0.18336 0.26725 0.0
C3423 C 0.87055 0.16142 0.26524 0.0
C3424 C 0.84715 0.16623 0.26583 0.0
C3425 C 0.83163 0.15232 0.24332 0.0
C3426 C 0.83776 0.1593 0.28801 0.0
C3427 C 0.85117 0.19387 0.26721 0.0
C3428 C 0.87365 0.20331 0.26836 0.0
C3429 C 0.88169 0.22823 0.26992 0.0
C3430 C 0.86689 0.24369 0.27014 0.0
C3431 C 0.84351 0.23519 0.26889 0.0
C3432 C 0.83582 0.2094 0.26749 0.0
H3433 H 0.71138 0.1517 0.03301 0.0
H3434 H 0.72489 0.10137 0.97512 0.0
H3435 H 0.68667 0.07725 0.97045 0.0
H3436 H 0.68451 0.11284 0.06051 0.0
H3437 H 0.6626 0.12649 0.06918 0.0
H3438 H 0.68819 0.14504 0.06414 0.0
H3439 H 0.66809 0.16251 0.03264 0.0
H3440 H 0.64219 0.14527 0.03867 0.0
H3441 H 0.64879 0.14227 0.00883 0.0
H3442 H 0.65433 0.05307 0.98034 0.0
H3443 H 0.6201 0.03487 0.99381 0.0
H3444 H 0.62462 0.10088 0.04424 0.0
C3445 C 0.70583 0.1363 0.0186 0.0
C3446 C 0.72077 0.12792 0.00459 0.0
C3447 C 0.71347 0.10762 0.98613 0.0
C3448 C 0.69187 0.09394 0.98331 0.0
C3449 C 0.67808 0.10121 0.99896 0.0
C3450 C 0.68421 0.12242 0.01557 0.0
C3451 C 0.66673 0.12435 0.03175 0.0
C3452 C 0.67609 0.12735 0.05793 0.0
C3453 C 0.6558 0.14481 0.02772 0.0
C3454 C 0.65094 0.10001 0.02283 0.0
C3455 C 0.65805 0.08713 1.00401 0.0
C3456 C 0.64796 0.06329 0.9943 0.0
C3457 C 0.6288 0.05295 1.00255 0.0
C3458 C 0.6196 0.06673 0.01972 0.0
C3459 C 0.6313 0.09013 0.03095 0.0
H3460 H 0.23598 0.52408 0.27374 0.0
H3461 H 0.17837 0.47477 0.23009 0.0
H3462 H 0.18616 0.44151 0.24779 0.0
H3463 H 0.27117 0.48746 0.26816 0.0
H3464 H 0.28481 0.49603 0.29826 0.0
H3465 H 0.27219 0.51664 0.28553 0.0
H3466 H 0.24904 0.5195 0.32026 0.0
H3467 H 0.26119 0.49815 0.33272 0.0
H3468 H 0.2316 0.4925 0.3262 0.0
H3469 H 0.20155 0.41358 0.2649 0.0
H3470 H 0.22843 0.39051 0.2739 0.0
H3471 H 0.27652 0.45637 0.30745 0.0
C3472 C 0.22513 0.50621 0.268 0.0
C3473 C 0.2066 0.50174 0.25077 0.0
C3474 C 0.19259 0.47836 0.2435 0.0
C3475 C 0.19662 0.45952 0.25373 0.0
C3476 C 0.21457 0.46452 0.27132 0.0
C3477 C 0.22887 0.48713 0.27817 0.0
C3478 C 0.24859 0.4867 0.29502 0.0
C3479 C 0.27046 0.49729 0.28617 0.0
C3480 C 0.24753 0.5 0.32003 0.0
C3481 C 0.24442 0.45981 0.29405 0.0
C3482 C 0.22394 0.44768 0.28153 0.0
C3483 C 0.21731 0.42271 0.27537 0.0
C3484 C 0.23259 0.40972 0.28061 0.0
C3485 C 0.25414 0.42179 0.29164 0.0
C3486 C 0.2598 0.44693 0.29967 0.0
H3487 H 0.25176 0.40644 0.99484 0.0
H3488 H 0.26776 0.43405 0.07047 0.0
H3489 H 0.23698 0.45378 0.06934 0.0
H3490 H 0.23835 0.46103 0.9813 0.0
H3491 H 0.216 0.44584 0.95806 0.0
H3492 H 0.2385 0.43216 0.9641 0.0
H3493 H 0.21087 0.39382 0.96978 0.0
H3494 H 0.18832 0.40738 0.9636 0.0
H3495 H 0.19154 0.39636 0.99072 0.0
H3496 H 0.20604 0.47018 0.06157 0.0
H3497 H 0.17473 0.48492 0.04688 0.0
H3498 H 0.17772 0.45006 0.97518 0.0
C3499 C 0.24843 0.41639 0.01112 0.0
C3500 C 0.26188 0.41856 0.03294 0.0
C3501 C 0.25757 0.43215 0.05375 0.0
C3502 C 0.24014 0.44338 0.05326 0.0
C3503 C 0.22735 0.44122 0.0317 0.0
C3504 C 0.23117 0.42831 0.01086 0.0
C3505 C 0.21518 0.43035 0.9901 0.0
C3506 C 0.22776 0.44311 0.97235 0.0
C3507 C 0.20061 0.40549 0.97784 0.0
C3508 C 0.20165 0.44597 1.00292 0.0
C3509 C 0.20922 0.45181 0.02688 0.0
C3510 C 0.19982 0.46573 0.0429 0.0
C3511 C 0.18198 0.47389 0.03441 0.0
C3512 C 0.17364 0.46825 0.01009 0.0
C3513 C 0.18373 0.45435 0.99393 0.0
H3514 H 0.8718 0.98704 0.27071 0.0
H3515 H 0.92433 0.96403 0.23663 0.0
H3516 H 0.90635 0.92182 0.23652 0.0
H3517 H 0.86494 0.94096 0.30809 0.0
H3518 H 0.83533 0.93579 0.30606 0.0
H3519 H 0.85185 0.96479 0.3035 0.0
H3520 H 0.8291 0.96184 0.26306 0.0
H3521 H 0.81244 0.93295 0.26565 0.0
H3522 H 0.82639 0.93584 0.24003 0.0
H3523 H 0.88252 0.88015 0.24005 0.0
H3524 H 0.85447 0.84459 0.24529 0.0
H3525 H 0.81634 0.89184 0.27724 0.0
C3526 C 0.87941 0.97317 0.2629 0.0
C3527 C 0.89987 0.97978 0.25344 0.0
C3528 C 0.90894 0.96033 0.24399 0.0
C3529 C 0.89874 0.93589 0.24386 0.0
C3530 C 0.87901 0.93005 0.25341 0.0
C3531 C 0.86931 0.94813 0.26274 0.0
C3532 C 0.84808 0.93646 0.27214 0.0
C3533 C 0.85017 0.94502 0.29905 0.0
C3534 C 0.8278 0.94212 0.25946 0.0
C3535 C 0.84712 0.90929 0.26603 0.0
C3536 C 0.86538 0.90607 0.25553 0.0
C3537 C 0.86828 0.88271 0.24843 0.0
C3538 C 0.85224 0.86229 0.2518 0.0
C3539 C 0.83304 0.86467 0.26222 0.0
C3540 C 0.83074 0.88888 0.26936 0.0
H3541 H 0.7134 0.1303 0.71295 0.0
H3542 H 0.67861 0.14249 0.7733 0.0
H3543 H 0.71191 0.17295 0.79487 0.0
H3544 H 0.76654 0.13693 0.75107 0.0
H3545 H 0.78249 0.14923 0.7297 0.0
H3546 H 0.75639 0.12739 0.72001 0.0
H3547 H 0.74179 0.15687 0.6971 0.0
H3548 H 0.76811 0.178 0.70583 0.0
H3549 H 0.74323 0.18706 0.71238 0.0
H3550 H 0.74987 0.19811 0.81061 0.0
H3551 H 0.78108 0.23252 0.81238 0.0
H3552 H 0.78783 0.20698 0.73936 0.0
C3553 C 0.71257 0.14026 0.7303 0.0
C3554 C 0.69374 0.13464 0.74153 0.0
C3555 C 0.69302 0.14717 0.76445 0.0
C3556 C 0.71202 0.16363 0.77706 0.0
C3557 C 0.73123 0.16667 0.76635 0.0
C3558 C 0.73135 0.1561 0.74318 0.0
C3559 C 0.75353 0.16368 0.73509 0.0
C3560 C 0.76543 0.14309 0.73388 0.0
C3561 C 0.75153 0.17196 0.71122 0.0
C3562 C 0.76449 0.18374 0.75565 0.0
C3563 C 0.75245 0.1829 0.77457 0.0
C3564 C 0.75907 0.19928 0.79574 0.0
C3565 C 0.77668 0.21889 0.79642 0.0
C3566 C 0.78519 0.22316 0.77527 0.0
C3567 C 0.78097 0.20433 0.75548 0.0
loop_
_geom_bond_atom_site_label_1
_geom_bond_atom_site_label_2
_geom_bond_distance
_geom_bond_site_symmetry_2
_ccdc_geom_bond_type
C0 O1 1.306 . S
C0 O3 1.160 . S
O1 C0 1.306 . S
O1 Cd2 2.228 . S
Cd2 O1 2.228 . S
Cd2 O6 2.273 . S
Cd2 O10 2.277 . S
O3 C0 1.160 . S
O3 Cd4 2.203 . S
Cd4 O3 2.203 . S
Cd4 O6 2.411 . S
Cd4 O7 2.333 . S
Cd4 O8 2.352 . S
Cd4 O12 2.277 . S
Cd4 O13 2.356 . S
C5 O10 1.209 . S
C5 O12 1.226 . S
O6 Cd2 2.273 . S
O6 Cd4 2.411 . S
O6 C9 1.320 . S
O7 Cd4 2.333 . S
O7 C9 1.214 . S
O8 Cd4 2.352 . S
O8 C11 1.258 . S
C9 O6 1.320 . S
C9 O7 1.214 . S
O10 Cd2 2.277 . S
O10 C5 1.209 . S
C11 O8 1.258 . S
C11 O13 1.282 . S
O12 Cd4 2.277 . S
O12 C5 1.226 . S
O13 Cd4 2.356 . S
O13 C11 1.282 . S
C14 O15 1.306 . S
C14 O17 1.160 . S
O15 C14 1.306 . S
O15 Cd16 2.228 1_655 S
Cd16 O15 2.228 1_455 S
Cd16 O20 2.273 . S
Cd16 O24 2.277 1_455 S
O17 C14 1.160 . S
O17 Cd18 2.150 1_655 S
Cd18 O17 2.150 1_455 S
Cd18 O20 2.437 . S
Cd18 O21 2.387 . S
Cd18 O22 2.343 . S
Cd18 O26 2.281 1_455 S
Cd18 O27 2.360 . S
C19 O24 1.209 . S
C19 O26 1.226 . S
O20 Cd16 2.273 . S
O20 Cd18 2.437 . S
O20 C23 1.320 . S
O21 Cd18 2.387 . S
O21 C23 1.214 . S
O22 Cd18 2.343 . S
O22 C25 1.258 . S
C23 O20 1.320 . S
C23 O21 1.214 . S
O24 Cd16 2.277 1_655 S
O24 C19 1.209 . S
C25 O22 1.258 . S
C25 O27 1.282 . S
O26 Cd18 2.281 1_655 S
O26 C19 1.226 . S
O27 Cd18 2.360 . S
O27 C25 1.282 . S
C28 O29 1.306 . S
C28 O31 1.160 . S
O29 C28 1.306 . S
O29 Cd30 2.228 . S
Cd30 O29 2.228 . S
Cd30 O34 2.273 . S
Cd30 O38 2.277 . S
O31 C28 1.160 . S
O31 Cd32 2.203 . S
Cd32 O31 2.203 . S
Cd32 O34 2.411 . S
Cd32 O35 2.333 . S
Cd32 O36 2.352 . S
Cd32 O40 2.277 . S
Cd32 O41 2.356 . S
C33 O38 1.209 . S
C33 O40 1.226 . S
O34 Cd30 2.273 . S
O34 Cd32 2.411 . S
O34 C37 1.320 . S
O35 Cd32 2.333 . S
O35 C37 1.214 . S
O36 Cd32 2.352 . S
O36 C39 1.258 . S
C37 O34 1.320 . S
C37 O35 1.214 . S
O38 Cd30 2.277 . S
O38 C33 1.209 . S
C39 O36 1.258 . S
C39 O41 1.282 . S
O40 Cd32 2.277 . S
O40 C33 1.226 . S
O41 Cd32 2.356 . S
O41 C39 1.282 . S
C42 O43 1.306 . S
C42 O45 1.160 . S
O43 C42 1.306 . S
O43 Cd44 2.228 . S
Cd44 O43 2.228 . S
Cd44 O48 2.273 . S
Cd44 O52 2.277 . S
O45 C42 1.160 . S
O45 Cd46 2.203 . S
Cd46 O45 2.203 . S
Cd46 O48 2.411 . S
Cd46 O49 2.333 . S
Cd46 O50 2.352 . S
Cd46 O54 2.277 . S
Cd46 O55 2.356 . S
C47 O52 1.209 . S
C47 O54 1.226 . S
O48 Cd44 2.273 . S
O48 Cd46 2.411 . S
O48 C51 1.320 . S
O49 Cd46 2.333 . S
O49 C51 1.214 . S
O50 Cd46 2.352 . S
O50 C53 1.258 . S
C51 O48 1.320 . S
C51 O49 1.214 . S
O52 Cd44 2.277 . S
O52 C47 1.209 . S
C53 O50 1.258 . S
C53 O55 1.282 . S
O54 Cd46 2.277 . S
O54 C47 1.226 . S
O55 Cd46 2.356 . S
O55 C53 1.282 . S
C56 O57 1.306 . S
C56 O59 1.160 . S
O57 C56 1.306 . S
O57 Cd58 2.228 . S
Cd58 O57 2.228 . S
Cd58 O62 2.273 . S
Cd58 O66 2.277 . S
O59 C56 1.160 . S
O59 Cd60 2.203 . S
Cd60 O59 2.203 . S
Cd60 O62 2.411 . S
Cd60 O63 2.333 . S
Cd60 O64 2.352 . S
Cd60 O68 2.277 . S
Cd60 O69 2.356 . S
C61 O66 1.209 . S
C61 O68 1.226 . S
O62 Cd58 2.273 . S
O62 Cd60 2.411 . S
O62 C65 1.320 . S
O63 Cd60 2.333 . S
O63 C65 1.214 . S
O64 Cd60 2.352 . S
O64 C67 1.258 . S
C65 O62 1.320 . S
C65 O63 1.214 . S
O66 Cd58 2.277 . S
O66 C61 1.209 . S
C67 O64 1.258 . S
C67 O69 1.282 . S
O68 Cd60 2.277 . S
O68 C61 1.226 . S
O69 Cd60 2.356 . S
O69 C67 1.282 . S
C70 O71 1.306 . S
C70 O73 1.160 . S
O71 C70 1.306 . S
O71 Cd72 2.228 . S
Cd72 O71 2.228 . S
Cd72 O76 2.273 . S
Cd72 O80 2.277 . S
O73 C70 1.160 . S
O73 Cd74 2.203 . S
Cd74 O73 2.203 . S
Cd74 O76 2.411 . S
Cd74 O77 2.333 . S
Cd74 O78 2.352 . S
Cd74 O82 2.277 . S
Cd74 O83 2.356 . S
C75 O80 1.209 . S
C75 O82 1.226 . S
O76 Cd72 2.273 . S
O76 Cd74 2.411 . S
O76 C79 1.320 . S
O77 Cd74 2.333 . S
O77 C79 1.214 . S
O78 Cd74 2.352 . S
O78 C81 1.258 . S
C79 O76 1.320 . S
C79 O77 1.214 . S
O80 Cd72 2.277 . S
O80 C75 1.209 . S
C81 O78 1.258 . S
C81 O83 1.282 . S
O82 Cd74 2.277 . S
O82 C75 1.226 . S
O83 Cd74 2.356 . S
O83 C81 1.282 . S
C84 O85 1.306 . S
C84 O87 1.160 . S
O85 C84 1.306 . S
O85 Cd86 2.228 . S
Cd86 O85 2.228 . S
Cd86 O90 2.273 . S
Cd86 O94 2.277 . S
O87 C84 1.160 . S
O87 Cd88 2.203 . S
Cd88 O87 2.203 . S
Cd88 O90 2.411 . S
Cd88 O91 2.333 . S
Cd88 O92 2.352 . S
Cd88 O96 2.277 . S
Cd88 O97 2.356 . S
C89 O94 1.209 . S
C89 O96 1.226 . S
O90 Cd86 2.273 . S
O90 Cd88 2.411 . S
O90 C93 1.320 . S
O91 Cd88 2.333 . S
O91 C93 1.214 . S
O92 Cd88 2.352 . S
O92 C95 1.258 . S
C93 O90 1.320 . S
C93 O91 1.214 . S
O94 Cd86 2.277 . S
O94 C89 1.209 . S
C95 O92 1.258 . S
C95 O97 1.282 . S
O96 Cd88 2.277 . S
O96 C89 1.226 . S
O97 Cd88 2.356 . S
O97 C95 1.282 . S
C98 O99 1.306 . S
C98 O101 1.160 . S
O99 C98 1.306 . S
O99 Cd100 2.228 1_655 S
Cd100 O99 2.228 1_455 S
Cd100 O104 2.273 . S
Cd100 O108 2.277 . S
O101 C98 1.160 . S
O101 Cd102 2.203 1_655 S
Cd102 O101 2.203 1_455 S
Cd102 O104 2.411 . S
Cd102 O105 2.333 . S
Cd102 O106 2.352 . S
Cd102 O110 2.277 . S
Cd102 O111 2.356 . S
C103 O108 1.209 . S
C103 O110 1.226 . S
O104 Cd100 2.273 . S
O104 Cd102 2.411 . S
O104 C107 1.320 . S
O105 Cd102 2.333 . S
O105 C107 1.214 . S
O106 Cd102 2.352 . S
O106 C109 1.258 . S
C107 O104 1.320 . S
C107 O105 1.214 . S
O108 Cd100 2.277 . S
O108 C103 1.209 . S
C109 O106 1.258 . S
C109 O111 1.282 . S
O110 Cd102 2.277 . S
O110 C103 1.226 . S
O111 Cd102 2.356 . S
O111 C109 1.282 . S
C112 O113 1.306 1_545 S
C112 O115 1.160 . S
O113 C112 1.306 1_565 S
O113 Cd114 2.228 . S
Cd114 O113 2.228 . S
Cd114 O118 2.273 1_565 S
Cd114 O122 2.277 . S
O115 C112 1.160 . S
O115 Cd116 2.203 . S
Cd116 O115 2.203 . S
Cd116 O118 2.411 . S
Cd116 O119 2.332 . S
Cd116 O120 2.352 . S
Cd116 O124 2.277 1_545 S
Cd116 O125 2.356 . S
C117 O122 1.209 . S
C117 O124 1.226 . S
O118 Cd114 2.273 1_545 S
O118 Cd116 2.411 . S
O118 C121 1.313 . S
O119 Cd116 2.332 . S
O119 C121 1.219 . S
O120 Cd116 2.352 . S
O120 C123 1.258 . S
C121 O118 1.313 . S
C121 O119 1.219 . S
O122 Cd114 2.277 . S
O122 C117 1.209 . S
C123 O120 1.258 . S
C123 O125 1.282 . S
O124 Cd116 2.277 1_565 S
O124 C117 1.226 . S
O125 Cd116 2.356 . S
O125 C123 1.282 . S
C126 O127 1.306 . S
C126 O129 1.160 . S
O127 C126 1.306 . S
O127 Cd128 2.228 . S
Cd128 O127 2.228 . S
Cd128 O132 2.273 . S
Cd128 O136 2.277 . S
O129 C126 1.160 . S
O129 Cd130 2.203 . S
Cd130 O129 2.203 . S
Cd130 O132 2.411 . S
Cd130 O133 2.333 . S
Cd130 O134 2.352 . S
Cd130 O138 2.277 . S
Cd130 O139 2.356 . S
C131 O136 1.209 . S
C131 O138 1.226 . S
O132 Cd128 2.273 . S
O132 Cd130 2.411 . S
O132 C135 1.320 . S
O133 Cd130 2.333 . S
O133 C135 1.214 . S
O134 Cd130 2.352 . S
O134 C137 1.258 . S
C135 O132 1.320 . S
C135 O133 1.214 . S
O136 Cd128 2.277 . S
O136 C131 1.209 . S
C137 O134 1.258 . S
C137 O139 1.282 . S
O138 Cd130 2.277 . S
O138 C131 1.226 . S
O139 Cd130 2.356 . S
O139 C137 1.282 . S
C140 O141 1.306 . S
C140 O143 1.160 . S
O141 C140 1.306 . S
O141 Cd142 2.228 . S
Cd142 O141 2.228 . S
Cd142 O146 2.289 . S
Cd142 O150 2.277 . S
O143 C140 1.160 . S
O143 Cd144 2.203 . S
Cd144 O143 2.203 . S
Cd144 O146 2.406 . S
Cd144 O147 2.333 1_545 S
Cd144 O148 2.352 1_545 S
Cd144 O152 2.277 . S
Cd144 O153 2.356 1_545 S
C145 O150 1.209 . S
C145 O152 1.226 . S
O146 Cd142 2.289 . S
O146 Cd144 2.406 . S
O146 C149 1.319 1_545 S
O147 Cd144 2.333 1_565 S
O147 C149 1.214 . S
O148 Cd144 2.352 1_565 S
O148 C151 1.258 . S
C149 O146 1.319 1_565 S
C149 O147 1.214 . S
O150 Cd142 2.277 . S
O150 C145 1.209 . S
C151 O148 1.258 . S
C151 O153 1.282 . S
O152 Cd144 2.277 . S
O152 C145 1.226 . S
O153 Cd144 2.356 1_565 S
O153 C151 1.282 . S
C154 O155 1.288 1_554 S
C154 O157 1.160 . S
O155 C154 1.288 1_556 S
O155 Cd156 2.250 . S
Cd156 O155 2.250 . S
Cd156 O160 2.273 1_556 S
Cd156 O164 2.277 . S
O157 C154 1.160 . S
O157 Cd158 2.203 . S
Cd158 O157 2.203 . S
Cd158 O160 2.411 . S
Cd158 O161 2.333 . S
Cd158 O162 2.352 . S
Cd158 O166 2.277 1_554 S
Cd158 O167 2.356 . S
C159 O164 1.209 . S
C159 O166 1.226 . S
O160 Cd156 2.273 1_554 S
O160 Cd158 2.411 . S
O160 C163 1.320 . S
O161 Cd158 2.333 . S
O161 C163 1.214 . S
O162 Cd158 2.352 . S
O162 C165 1.258 . S
C163 O160 1.320 . S
C163 O161 1.214 . S
O164 Cd156 2.277 . S
O164 C159 1.209 . S
C165 O162 1.258 . S
C165 O167 1.282 . S
O166 Cd158 2.277 1_556 S
O166 C159 1.226 . S
O167 Cd158 2.356 . S
O167 C165 1.282 . S
C168 O169 1.306 . S
C168 O171 1.160 . S
O169 C168 1.306 . S
O169 Cd170 2.228 1_554 S
Cd170 O169 2.228 1_556 S
Cd170 O174 2.273 1_556 S
Cd170 O178 2.277 . S
O171 C168 1.160 . S
O171 Cd172 2.203 . S
Cd172 O171 2.203 . S
Cd172 O174 2.411 . S
Cd172 O175 2.333 . S
Cd172 O176 2.352 . S
Cd172 O180 2.277 1_554 S
Cd172 O181 2.356 . S
C173 O178 1.209 . S
C173 O180 1.226 . S
O174 Cd170 2.273 1_554 S
O174 Cd172 2.411 . S
O174 C177 1.320 . S
O175 Cd172 2.333 . S
O175 C177 1.214 . S
O176 Cd172 2.352 . S
O176 C179 1.258 . S
C177 O174 1.320 . S
C177 O175 1.214 . S
O178 Cd170 2.277 . S
O178 C173 1.209 . S
C179 O176 1.258 . S
C179 O181 1.282 . S
O180 Cd172 2.277 1_556 S
O180 C173 1.226 . S
O181 Cd172 2.356 . S
O181 C179 1.282 . S
C182 O183 1.306 . S
C182 O185 1.160 . S
O183 C182 1.306 . S
O183 Cd184 2.228 . S
Cd184 O183 2.228 . S
Cd184 O188 2.273 . S
Cd184 O192 2.277 . S
O185 C182 1.160 . S
O185 Cd186 2.203 . S
Cd186 O185 2.203 . S
Cd186 O188 2.411 . S
Cd186 O189 2.333 . S
Cd186 O190 2.352 1_554 S
Cd186 O194 2.277 . S
Cd186 O195 2.356 1_554 S
C187 O192 1.209 . S
C187 O194 1.226 . S
O188 Cd184 2.273 . S
O188 Cd186 2.411 . S
O188 C191 1.320 . S
O189 Cd186 2.333 . S
O189 C191 1.214 . S
O190 Cd186 2.352 1_556 S
O190 C193 1.258 . S
C191 O188 1.320 . S
C191 O189 1.214 . S
O192 Cd184 2.277 . S
O192 C187 1.209 . S
C193 O190 1.258 . S
C193 O195 1.282 . S
O194 Cd186 2.277 . S
O194 C187 1.226 . S
O195 Cd186 2.356 1_556 S
O195 C193 1.282 . S
C196 O197 1.306 . S
C196 O199 1.160 . S
O197 C196 1.306 . S
O197 Cd198 2.228 . S
Cd198 O197 2.228 . S
Cd198 O202 2.273 . S
Cd198 O206 2.277 . S
O199 C196 1.160 . S
O199 Cd200 2.203 . S
Cd200 O199 2.203 . S
Cd200 O202 2.411 . S
Cd200 O203 2.333 . S
Cd200 O204 2.352 . S
Cd200 O208 2.277 . S
Cd200 O209 2.356 . S
C201 O206 1.209 . S
C201 O208 1.226 . S
O202 Cd198 2.273 . S
O202 Cd200 2.411 . S
O202 C205 1.320 . S
O203 Cd200 2.333 . S
O203 C205 1.214 . S
O204 Cd200 2.352 . S
O204 C207 1.258 . S
C205 O202 1.320 . S
C205 O203 1.214 . S
O206 Cd198 2.277 . S
O206 C201 1.209 . S
C207 O204 1.258 . S
C207 O209 1.282 . S
O208 Cd200 2.277 . S
O208 C201 1.226 . S
O209 Cd200 2.356 . S
O209 C207 1.282 . S
C210 O211 1.306 . S
C210 O213 1.160 . S
O211 C210 1.306 . S
O211 Cd212 2.228 . S
Cd212 O211 2.228 . S
Cd212 O216 2.273 . S
Cd212 O220 2.277 . S
O213 C210 1.160 . S
O213 Cd214 2.203 . S
Cd214 O213 2.203 . S
Cd214 O216 2.411 . S
Cd214 O217 2.333 . S
Cd214 O218 2.352 . S
Cd214 O222 2.277 . S
Cd214 O223 2.356 . S
C215 O220 1.209 . S
C215 O222 1.226 . S
O216 Cd212 2.273 . S
O216 Cd214 2.411 . S
O216 C219 1.320 . S
O217 Cd214 2.333 . S
O217 C219 1.214 . S
O218 Cd214 2.352 . S
O218 C221 1.258 . S
C219 O216 1.320 . S
C219 O217 1.214 . S
O220 Cd212 2.277 . S
O220 C215 1.209 . S
C221 O218 1.258 . S
C221 O223 1.282 . S
O222 Cd214 2.277 . S
O222 C215 1.226 . S
O223 Cd214 2.356 . S
O223 C221 1.282 . S
C224 O225 1.306 . S
C224 O227 1.160 . S
O225 C224 1.306 . S
O225 Cd226 2.228 . S
Cd226 O225 2.228 . S
Cd226 O230 2.273 . S
Cd226 O234 2.277 . S
O227 C224 1.160 . S
O227 Cd228 2.203 . S
Cd228 O227 2.203 . S
Cd228 O230 2.411 . S
Cd228 O231 2.333 . S
Cd228 O232 2.352 . S
Cd228 O236 2.277 . S
Cd228 O237 2.356 . S
C229 O234 1.209 . S
C229 O236 1.226 . S
O230 Cd226 2.273 . S
O230 Cd228 2.411 . S
O230 C233 1.320 . S
O231 Cd228 2.333 . S
O231 C233 1.214 . S
O232 Cd228 2.352 . S
O232 C235 1.258 . S
C233 O230 1.320 . S
C233 O231 1.214 . S
O234 Cd226 2.277 . S
O234 C229 1.209 . S
C235 O232 1.258 . S
C235 O237 1.282 . S
O236 Cd228 2.277 . S
O236 C229 1.226 . S
O237 Cd228 2.356 . S
O237 C235 1.282 . S
C238 O239 1.306 . S
C238 O241 1.160 . S
O239 C238 1.306 . S
O239 Cd240 2.228 . S
Cd240 O239 2.228 . S
Cd240 O244 2.273 . S
Cd240 O248 2.277 . S
O241 C238 1.160 . S
O241 Cd242 2.203 . S
Cd242 O241 2.203 . S
Cd242 O244 2.411 . S
Cd242 O245 2.333 . S
Cd242 O246 2.352 . S
Cd242 O250 2.277 . S
Cd242 O251 2.356 . S
C243 O248 1.209 . S
C243 O250 1.226 . S
O244 Cd240 2.273 . S
O244 Cd242 2.411 . S
O244 C247 1.320 . S
O245 Cd242 2.333 . S
O245 C247 1.214 . S
O246 Cd242 2.352 . S
O246 C249 1.258 . S
C247 O244 1.320 . S
C247 O245 1.214 . S
O248 Cd240 2.277 . S
O248 C243 1.209 . S
C249 O246 1.258 . S
C249 O251 1.282 . S
O250 Cd242 2.277 . S
O250 C243 1.226 . S
O251 Cd242 2.356 . S
O251 C249 1.282 . S
C252 O253 1.306 . S
C252 O255 1.160 . S
O253 C252 1.306 . S
O253 Cd254 2.228 . S
Cd254 O253 2.228 . S
Cd254 O258 2.273 . S
Cd254 O262 2.277 . S
O255 C252 1.160 . S
O255 Cd256 2.203 . S
Cd256 O255 2.203 . S
Cd256 O258 2.411 . S
Cd256 O259 2.333 . S
Cd256 O260 2.352 . S
Cd256 O264 2.277 . S
Cd256 O265 2.356 . S
C257 O262 1.209 . S
C257 O264 1.226 . S
O258 Cd254 2.273 . S
O258 Cd256 2.411 . S
O258 C261 1.320 . S
O259 Cd256 2.333 . S
O259 C261 1.214 . S
O260 Cd256 2.352 . S
O260 C263 1.258 . S
C261 O258 1.320 . S
C261 O259 1.214 . S
O262 Cd254 2.277 . S
O262 C257 1.209 . S
C263 O260 1.258 . S
C263 O265 1.282 . S
O264 Cd256 2.277 . S
O264 C257 1.226 . S
O265 Cd256 2.356 . S
O265 C263 1.282 . S
C266 O267 1.306 . S
C266 O269 1.160 . S
O267 C266 1.306 . S
O267 Cd268 2.228 . S
Cd268 O267 2.228 . S
Cd268 O272 2.273 . S
Cd268 O276 2.277 . S
O269 C266 1.160 . S
O269 Cd270 2.203 . S
Cd270 O269 2.203 . S
Cd270 O272 2.411 . S
Cd270 O273 2.333 . S
Cd270 O274 2.352 . S
Cd270 O278 2.277 . S
Cd270 O279 2.356 . S
C271 O276 1.209 . S
C271 O278 1.226 . S
O272 Cd268 2.273 . S
O272 Cd270 2.411 . S
O272 C275 1.320 . S
O273 Cd270 2.333 . S
O273 C275 1.214 . S
O274 Cd270 2.352 . S
O274 C277 1.258 . S
C275 O272 1.320 . S
C275 O273 1.214 . S
O276 Cd268 2.277 . S
O276 C271 1.209 . S
C277 O274 1.258 . S
C277 O279 1.282 . S
O278 Cd270 2.277 . S
O278 C271 1.226 . S
O279 Cd270 2.356 . S
O279 C277 1.282 . S
C280 O281 1.306 . S
C280 O283 1.160 . S
O281 C280 1.306 . S
O281 Cd282 2.228 . S
Cd282 O281 2.228 . S
Cd282 O286 2.273 . S
Cd282 O290 2.277 . S
O283 C280 1.160 . S
O283 Cd284 2.203 . S
Cd284 O283 2.203 . S
Cd284 O286 2.411 . S
Cd284 O287 2.335 1_554 S
Cd284 O288 2.352 1_554 S
Cd284 O292 2.277 . S
Cd284 O293 2.356 1_554 S
C285 O290 1.209 . S
C285 O292 1.226 . S
O286 Cd282 2.273 . S
O286 Cd284 2.411 . S
O286 C289 1.318 1_554 S
O287 Cd284 2.335 1_556 S
O287 C289 1.210 . S
O288 Cd284 2.352 1_556 S
O288 C291 1.258 . S
C289 O286 1.318 1_556 S
C289 O287 1.210 . S
O290 Cd282 2.277 . S
O290 C285 1.209 . S
C291 O288 1.258 . S
C291 O293 1.282 . S
O292 Cd284 2.277 . S
O292 C285 1.226 . S
O293 Cd284 2.356 1_556 S
O293 C291 1.282 . S
C294 O295 1.306 . S
C294 O297 1.160 . S
O295 C294 1.306 . S
O295 Cd296 2.228 . S
Cd296 O295 2.228 . S
Cd296 O300 2.273 . S
Cd296 O304 2.277 . S
O297 C294 1.160 . S
O297 Cd298 2.203 . S
Cd298 O297 2.203 . S
Cd298 O300 2.411 . S
Cd298 O301 2.333 . S
Cd298 O302 2.352 . S
Cd298 O306 2.277 . S
Cd298 O307 2.356 . S
C299 O304 1.209 . S
C299 O306 1.226 . S
O300 Cd296 2.273 . S
O300 Cd298 2.411 . S
O300 C303 1.320 . S
O301 Cd298 2.333 . S
O301 C303 1.214 . S
O302 Cd298 2.352 . S
O302 C305 1.258 . S
C303 O300 1.320 . S
C303 O301 1.214 . S
O304 Cd296 2.277 . S
O304 C299 1.209 . S
C305 O302 1.258 . S
C305 O307 1.282 . S
O306 Cd298 2.277 . S
O306 C299 1.226 . S
O307 Cd298 2.356 . S
O307 C305 1.282 . S
C308 O309 1.306 . S
C308 O311 1.160 . S
O309 C308 1.306 . S
O309 Cd310 2.228 . S
Cd310 O309 2.228 . S
Cd310 O314 2.273 . S
Cd310 O318 2.277 . S
O311 C308 1.160 . S
O311 Cd312 2.203 . S
Cd312 O311 2.203 . S
Cd312 O314 2.411 . S
Cd312 O315 2.333 . S
Cd312 O316 2.352 . S
Cd312 O320 2.277 . S
Cd312 O321 2.356 . S
C313 O318 1.209 . S
C313 O320 1.226 . S
O314 Cd310 2.273 . S
O314 Cd312 2.411 . S
O314 C317 1.320 . S
O315 Cd312 2.333 . S
O315 C317 1.214 . S
O316 Cd312 2.352 . S
O316 C319 1.258 . S
C317 O314 1.320 . S
C317 O315 1.214 . S
O318 Cd310 2.277 . S
O318 C313 1.209 . S
C319 O316 1.258 . S
C319 O321 1.282 . S
O320 Cd312 2.277 . S
O320 C313 1.226 . S
O321 Cd312 2.356 . S
O321 C319 1.282 . S
C322 O323 1.306 . S
C322 O325 1.160 . S
O323 C322 1.306 . S
O323 Cd324 2.228 . S
Cd324 O323 2.228 . S
Cd324 O328 2.273 . S
Cd324 O332 2.277 . S
O325 C322 1.160 . S
O325 Cd326 2.203 . S
Cd326 O325 2.203 . S
Cd326 O328 2.411 . S
Cd326 O329 2.333 . S
Cd326 O330 2.352 . S
Cd326 O334 2.277 . S
Cd326 O335 2.356 . S
C327 O332 1.209 . S
C327 O334 1.226 . S
O328 Cd324 2.273 . S
O328 Cd326 2.411 . S
O328 C331 1.320 . S
O329 Cd326 2.333 . S
O329 C331 1.214 . S
O330 Cd326 2.352 . S
O330 C333 1.258 . S
C331 O328 1.320 . S
C331 O329 1.214 . S
O332 Cd324 2.277 . S
O332 C327 1.209 . S
C333 O330 1.258 . S
C333 O335 1.282 . S
O334 Cd326 2.277 . S
O334 C327 1.226 . S
O335 Cd326 2.356 . S
O335 C333 1.282 . S
Ho336 C339 2.814 1_455 S
Ho336 O356 2.330 . S
Ho336 O358 2.390 1_455 S
Ho336 O359 2.518 1_456 S
Ho336 O360 2.401 . S
Ho336 O361 2.676 . S
Ho336 O363 2.338 1_546 S
Ho336 O367 2.288 1_556 S
Ho337 C348 2.811 . S
Ho337 O357 2.346 . S
Ho337 O361 2.305 1_554 S
Ho337 O362 2.322 . S
Ho337 O364 2.378 . S
Ho337 O365 2.524 . S
Ho337 O366 2.381 . S
Ho337 O367 2.669 . S
C338 O356 1.259 1_554 S
C338 O357 1.268 . S
C339 Ho336 2.814 1_655 S
C339 C340 1.488 . S
C339 O358 1.215 . S
C339 O359 1.289 1_556 S
C340 C339 1.488 . S
C340 C341 1.348 1_556 S
C340 C345 1.413 . S
C341 C340 1.348 1_554 S
C341 C342 1.442 1_554 S
C341 H368 0.930 . S
C342 C341 1.442 1_556 S
C342 C343 1.381 . S
C342 H369 0.931 1_556 S
C343 C342 1.381 . S
C343 C344 1.321 . S
C344 C343 1.321 . S
C344 C345 1.403 . S
C344 H370 0.934 . S
C345 C340 1.413 . S
C345 C344 1.403 . S
C345 H371 0.930 . S
C346 O360 1.275 . S
C346 O361 1.256 . S
C347 O362 1.259 1_565 S
C347 O363 1.268 . S
C348 Ho337 2.811 . S
C348 C349 1.488 . S
C348 O364 1.215 . S
C348 O365 1.289 . S
C349 C348 1.488 . S
C349 C350 1.348 . S
C349 C354 1.413 . S
C350 C349 1.348 . S
C350 C351 1.442 1_545 S
C350 H372 0.931 1_545 S
C351 C350 1.442 1_565 S
C351 C352 1.381 1_565 S
C351 H373 0.931 . S
C352 C351 1.381 1_545 S
C352 C353 1.321 . S
C353 C352 1.321 . S
C353 C354 1.403 . S
C353 H374 0.934 . S
C354 C349 1.413 . S
C354 C353 1.403 . S
C354 H375 0.930 . S
C355 O366 1.275 . S
C355 O367 1.256 . S
O356 Ho336 2.330 . S
O356 C338 1.259 1_556 S
O357 Ho337 2.346 . S
O357 C338 1.268 . S
O358 Ho336 2.390 1_655 S
O358 C339 1.215 . S
O359 Ho336 2.518 1_654 S
O359 C339 1.289 1_554 S
O360 Ho336 2.401 . S
O360 C346 1.275 . S
O361 Ho336 2.676 . S
O361 Ho337 2.305 1_556 S
O361 C346 1.256 . S
O362 Ho337 2.322 . S
O362 C347 1.259 1_545 S
O363 Ho336 2.338 1_564 S
O363 C347 1.268 . S
O364 Ho337 2.378 . S
O364 C348 1.215 . S
O365 Ho337 2.524 . S
O365 C348 1.289 . S
O366 Ho337 2.381 . S
O366 C355 1.275 . S
O367 Ho336 2.288 1_554 S
O367 Ho337 2.669 . S
O367 C355 1.256 . S
H368 C341 0.930 . S
H369 C342 0.931 1_554 S
H370 C344 0.934 . S
H371 C345 0.930 . S
H372 C350 0.931 1_565 S
H373 C351 0.931 . S
H374 C353 0.934 . S
H375 C354 0.930 . S
Ho376 C379 2.811 . S
Ho376 O396 2.322 . S
Ho376 O398 2.378 . S
Ho376 O399 2.524 . S
Ho376 O400 2.381 . S
Ho376 O401 2.669 . S
Ho376 O403 2.346 . S
Ho376 O407 2.305 . S
Ho377 C388 2.811 . S
Ho377 O397 2.346 . S
Ho377 O401 2.305 . S
Ho377 O402 2.322 . S
Ho377 O404 2.378 . S
Ho377 O405 2.524 . S
Ho377 O406 2.381 . S
Ho377 O407 2.669 . S
C378 O396 1.259 . S
C378 O397 1.268 . S
C379 Ho376 2.811 . S
C379 C380 1.488 . S
C379 O398 1.215 . S
C379 O399 1.289 . S
C380 C379 1.488 . S
C380 C381 1.348 . S
C380 C385 1.413 . S
C381 C380 1.348 . S
C381 C382 1.442 . S
C381 H408 0.930 . S
C382 C381 1.442 . S
C382 C383 1.381 . S
C382 H409 0.931 . S
C383 C382 1.381 . S
C383 C384 1.321 . S
C384 C383 1.321 . S
C384 C385 1.403 . S
C384 H410 0.934 . S
C385 C380 1.413 . S
C385 C384 1.403 . S
C385 H411 0.930 . S
C386 O400 1.275 . S
C386 O401 1.256 . S
C387 O402 1.259 . S
C387 O403 1.268 . S
C388 Ho377 2.811 . S
C388 C389 1.488 . S
C388 O404 1.215 . S
C388 O405 1.289 . S
C389 C388 1.488 . S
C389 C390 1.348 . S
C389 C394 1.413 . S
C390 C389 1.348 . S
C390 C391 1.442 . S
C390 H412 0.930 . S
C391 C390 1.442 . S
C391 C392 1.381 . S
C391 H413 0.931 . S
C392 C391 1.381 . S
C392 C393 1.321 . S
C393 C392 1.321 . S
C393 C394 1.403 . S
C393 H414 0.934 . S
C394 C389 1.413 . S
C394 C393 1.403 . S
C394 H415 0.930 . S
C395 O406 1.275 . S
C395 O407 1.256 . S
O396 Ho376 2.322 . S
O396 C378 1.259 . S
O397 Ho377 2.346 . S
O397 C378 1.268 . S
O398 Ho376 2.378 . S
O398 C379 1.215 . S
O399 Ho376 2.524 . S
O399 C379 1.289 . S
O400 Ho376 2.381 . S
O400 C386 1.275 . S
O401 Ho376 2.669 . S
O401 Ho377 2.305 . S
O401 C386 1.256 . S
O402 Ho377 2.322 . S
O402 C387 1.259 . S
O403 Ho376 2.346 . S
O403 C387 1.268 . S
O404 Ho377 2.378 . S
O404 C388 1.215 . S
O405 Ho377 2.524 . S
O405 C388 1.289 . S
O406 Ho377 2.381 . S
O406 C395 1.275 . S
O407 Ho376 2.305 . S
O407 Ho377 2.669 . S
O407 C395 1.256 . S
H408 C381 0.930 . S
H409 C382 0.931 . S
H410 C384 0.934 . S
H411 C385 0.930 . S
H412 C390 0.930 . S
H413 C391 0.931 . S
H414 C393 0.934 . S
H415 C394 0.930 . S
Ho416 C419 2.811 . S
Ho416 O436 2.322 1_545 S
Ho416 O438 2.378 . S
Ho416 O439 2.524 . S
Ho416 O440 2.381 . S
Ho416 O441 2.669 . S
Ho416 O443 2.346 . S
Ho416 O447 2.305 . S
Ho417 C428 2.811 . S
Ho417 O437 2.346 1_545 S
Ho417 O441 2.305 . S
Ho417 O442 2.322 . S
Ho417 O444 2.378 . S
Ho417 O445 2.524 . S
Ho417 O446 2.381 . S
Ho417 O447 2.669 . S
C418 O436 1.259 . S
C418 O437 1.268 . S
C419 Ho416 2.811 . S
C419 C420 1.488 1_545 S
C419 O438 1.215 . S
C419 O439 1.289 . S
C420 C419 1.488 1_565 S
C420 C421 1.348 . S
C420 C425 1.413 . S
C421 C420 1.348 . S
C421 C422 1.442 . S
C421 H448 0.930 . S
C422 C421 1.442 . S
C422 C423 1.381 . S
C422 H449 0.931 . S
C423 C422 1.381 . S
C423 C424 1.321 . S
C424 C423 1.321 . S
C424 C425 1.403 . S
C424 H450 0.934 . S
C425 C420 1.413 . S
C425 C424 1.403 . S
C425 H451 0.930 . S
C426 O440 1.275 . S
C426 O441 1.256 . S
C427 O442 1.259 . S
C427 O443 1.268 . S
C428 Ho417 2.811 . S
C428 C429 1.488 . S
C428 O444 1.215 . S
C428 O445 1.289 . S
C429 C428 1.488 . S
C429 C430 1.348 . S
C429 C434 1.413 . S
C430 C429 1.348 . S
C430 C431 1.442 . S
C430 H452 0.930 . S
C431 C430 1.442 . S
C431 C432 1.381 . S
C431 H453 0.931 . S
C432 C431 1.381 . S
C432 C433 1.321 . S
C433 C432 1.321 . S
C433 C434 1.403 . S
C433 H454 0.934 . S
C434 C429 1.413 . S
C434 C433 1.403 . S
C434 H455 0.930 . S
C435 O446 1.275 . S
C435 O447 1.256 . S
O436 Ho416 2.322 1_565 S
O436 C418 1.259 . S
O437 Ho417 2.346 1_565 S
O437 C418 1.268 . S
O438 Ho416 2.378 . S
O438 C419 1.215 . S
O439 Ho416 2.524 . S
O439 C419 1.289 . S
O440 Ho416 2.381 . S
O440 C426 1.275 . S
O441 Ho416 2.669 . S
O441 Ho417 2.305 . S
O441 C426 1.256 . S
O442 Ho417 2.322 . S
O442 C427 1.259 . S
O443 Ho416 2.346 . S
O443 C427 1.268 . S
O444 Ho417 2.378 . S
O444 C428 1.215 . S
O445 Ho417 2.524 . S
O445 C428 1.289 . S
O446 Ho417 2.381 . S
O446 C435 1.275 . S
O447 Ho416 2.305 . S
O447 Ho417 2.669 . S
O447 C435 1.256 . S
H448 C421 0.930 . S
H449 C422 0.931 . S
H450 C424 0.934 . S
H451 C425 0.930 . S
H452 C430 0.930 . S
H453 C431 0.931 . S
H454 C433 0.934 . S
H455 C434 0.930 . S
Ho456 C459 2.811 . S
Ho456 O476 2.322 . S
Ho456 O478 2.378 . S
Ho456 O479 2.524 . S
Ho456 O480 2.381 . S
Ho456 O481 2.669 . S
Ho456 O483 2.346 . S
Ho456 O487 2.305 . S
Ho457 C468 2.811 . S
Ho457 O477 2.346 . S
Ho457 O481 2.305 . S
Ho457 O482 2.322 . S
Ho457 O484 2.378 . S
Ho457 O485 2.524 . S
Ho457 O486 2.381 . S
Ho457 O487 2.669 . S
C458 O476 1.259 . S
C458 O477 1.268 . S
C459 Ho456 2.811 . S
C459 C460 1.488 . S
C459 O478 1.215 . S
C459 O479 1.289 . S
C460 C459 1.488 . S
C460 C461 1.348 . S
C460 C465 1.413 . S
C461 C460 1.348 . S
C461 C462 1.442 . S
C461 H488 0.930 . S
C462 C461 1.442 . S
C462 C463 1.381 . S
C462 H489 0.931 . S
C463 C462 1.381 . S
C463 C464 1.321 . S
C464 C463 1.321 . S
C464 C465 1.403 . S
C464 H490 0.934 . S
C465 C460 1.413 . S
C465 C464 1.403 . S
C465 H491 0.930 . S
C466 O480 1.275 . S
C466 O481 1.256 . S
C467 O482 1.259 . S
C467 O483 1.268 . S
C468 Ho457 2.811 . S
C468 C469 1.488 . S
C468 O484 1.215 . S
C468 O485 1.289 . S
C469 C468 1.488 . S
C469 C470 1.348 . S
C469 C474 1.413 . S
C470 C469 1.348 . S
C470 C471 1.442 . S
C470 H492 0.930 . S
C471 C470 1.442 . S
C471 C472 1.381 . S
C471 H493 0.931 . S
C472 C471 1.381 . S
C472 C473 1.321 . S
C473 C472 1.321 . S
C473 C474 1.403 . S
C473 H494 0.934 . S
C474 C469 1.413 . S
C474 C473 1.403 . S
C474 H495 0.930 . S
C475 O486 1.275 . S
C475 O487 1.256 . S
O476 Ho456 2.322 . S
O476 C458 1.259 . S
O477 Ho457 2.346 . S
O477 C458 1.268 . S
O478 Ho456 2.378 . S
O478 C459 1.215 . S
O479 Ho456 2.524 . S
O479 C459 1.289 . S
O480 Ho456 2.381 . S
O480 C466 1.275 . S
O481 Ho456 2.669 . S
O481 Ho457 2.305 . S
O481 C466 1.256 . S
O482 Ho457 2.322 . S
O482 C467 1.259 . S
O483 Ho456 2.346 . S
O483 C467 1.268 . S
O484 Ho457 2.378 . S
O484 C468 1.215 . S
O485 Ho457 2.524 . S
O485 C468 1.289 . S
O486 Ho457 2.381 . S
O486 C475 1.275 . S
O487 Ho456 2.305 . S
O487 Ho457 2.669 . S
O487 C475 1.256 . S
H488 C461 0.930 . S
H489 C462 0.931 . S
H490 C464 0.934 . S
H491 C465 0.930 . S
H492 C470 0.930 . S
H493 C471 0.931 . S
H494 C473 0.934 . S
H495 C474 0.930 . S
Ho496 C499 2.811 . S
Ho496 O516 2.322 . S
Ho496 O518 2.378 . S
Ho496 O519 2.524 . S
Ho496 O520 2.381 . S
Ho496 O521 2.669 . S
Ho496 O523 2.346 . S
Ho496 O527 2.305 . S
Ho497 C508 2.768 1_545 S
Ho497 O517 2.375 . S
Ho497 O521 2.330 . S
Ho497 O522 2.328 . S
Ho497 O524 2.336 1_545 S
Ho497 O525 2.489 1_545 S
Ho497 O526 2.394 . S
Ho497 O527 2.712 . S
C498 O516 1.259 . S
C498 O517 1.268 . S
C499 Ho496 2.811 . S
C499 C500 1.488 . S
C499 O518 1.215 . S
C499 O519 1.289 . S
C500 C499 1.488 . S
C500 C501 1.348 . S
C500 C505 1.413 . S
C501 C500 1.348 . S
C501 C502 1.442 . S
C501 H528 0.930 . S
C502 C501 1.442 . S
C502 C503 1.381 . S
C502 H529 0.931 . S
C503 C502 1.381 . S
C503 C504 1.321 . S
C504 C503 1.321 . S
C504 C505 1.403 . S
C504 H530 0.934 . S
C505 C500 1.413 . S
C505 C504 1.403 . S
C505 H531 0.930 . S
C506 O520 1.275 . S
C506 O521 1.256 . S
C507 O522 1.259 . S
C507 O523 1.268 . S
C508 Ho497 2.768 1_565 S
C508 C509 1.488 . S
C508 O524 1.215 . S
C508 O525 1.289 . S
C509 C508 1.488 . S
C509 C510 1.348 . S
C509 C514 1.413 . S
C510 C509 1.348 . S
C510 C511 1.442 . S
C510 H532 0.930 . S
C511 C510 1.442 . S
C511 C512 1.381 . S
C511 H533 0.931 . S
C512 C511 1.381 . S
C512 C513 1.321 . S
C513 C512 1.321 . S
C513 C514 1.403 . S
C513 H534 0.934 . S
C514 C509 1.413 . S
C514 C513 1.403 . S
C514 H535 0.930 . S
C515 O526 1.275 . S
C515 O527 1.256 . S
O516 Ho496 2.322 . S
O516 C498 1.259 . S
O517 Ho497 2.375 . S
O517 C498 1.268 . S
O518 Ho496 2.378 . S
O518 C499 1.215 . S
O519 Ho496 2.524 . S
O519 C499 1.289 . S
O520 Ho496 2.381 . S
O520 C506 1.275 . S
O521 Ho496 2.669 . S
O521 Ho497 2.330 . S
O521 C506 1.256 . S
O522 Ho497 2.328 . S
O522 C507 1.259 . S
O523 Ho496 2.346 . S
O523 C507 1.268 . S
O524 Ho497 2.336 1_565 S
O524 C508 1.215 . S
O525 Ho497 2.489 1_565 S
O525 C508 1.289 . S
O526 Ho497 2.394 . S
O526 C515 1.275 . S
O527 Ho496 2.305 . S
O527 Ho497 2.712 . S
O527 C515 1.256 . S
H528 C501 0.930 . S
H529 C502 0.931 . S
H530 C504 0.934 . S
H531 C505 0.930 . S
H532 C510 0.930 . S
H533 C511 0.931 . S
H534 C513 0.934 . S
H535 C514 0.930 . S
Ho536 C539 2.811 . S
Ho536 O556 2.322 . S
Ho536 O558 2.378 . S
Ho536 O559 2.524 . S
Ho536 O560 2.381 . S
Ho536 O561 2.669 . S
Ho536 O563 2.346 . S
Ho536 O567 2.305 . S
Ho537 C548 2.811 . S
Ho537 O557 2.346 . S
Ho537 O561 2.305 . S
Ho537 O562 2.322 . S
Ho537 O564 2.378 . S
Ho537 O565 2.524 . S
Ho537 O566 2.381 . S
Ho537 O567 2.669 . S
C538 O556 1.259 . S
C538 O557 1.268 . S
C539 Ho536 2.811 . S
C539 C540 1.488 . S
C539 O558 1.215 . S
C539 O559 1.289 . S
C540 C539 1.488 . S
C540 C541 1.348 . S
C540 C545 1.413 . S
C541 C540 1.348 . S
C541 C542 1.442 . S
C541 H568 0.930 . S
C542 C541 1.442 . S
C542 C543 1.381 . S
C542 H569 0.931 . S
C543 C542 1.381 . S
C543 C544 1.321 . S
C544 C543 1.321 . S
C544 C545 1.403 . S
C544 H570 0.934 . S
C545 C540 1.413 . S
C545 C544 1.403 . S
C545 H571 0.930 . S
C546 O560 1.275 . S
C546 O561 1.256 . S
C547 O562 1.259 . S
C547 O563 1.268 . S
C548 Ho537 2.811 . S
C548 C549 1.488 . S
C548 O564 1.215 . S
C548 O565 1.289 . S
C549 C548 1.488 . S
C549 C550 1.348 . S
C549 C554 1.413 . S
C550 C549 1.348 . S
C550 C551 1.442 . S
C550 H572 0.930 . S
C551 C550 1.442 . S
C551 C552 1.381 . S
C551 H573 0.931 . S
C552 C551 1.381 . S
C552 C553 1.321 . S
C553 C552 1.321 . S
C553 C554 1.403 . S
C553 H574 0.934 . S
C554 C549 1.413 . S
C554 C553 1.403 . S
C554 H575 0.930 . S
C555 O566 1.275 . S
C555 O567 1.256 . S
O556 Ho536 2.322 . S
O556 C538 1.259 . S
O557 Ho537 2.346 . S
O557 C538 1.268 . S
O558 Ho536 2.378 . S
O558 C539 1.215 . S
O559 Ho536 2.524 . S
O559 C539 1.289 . S
O560 Ho536 2.381 . S
O560 C546 1.275 . S
O561 Ho536 2.669 . S
O561 Ho537 2.305 . S
O561 C546 1.256 . S
O562 Ho537 2.322 . S
O562 C547 1.259 . S
O563 Ho536 2.346 . S
O563 C547 1.268 . S
O564 Ho537 2.378 . S
O564 C548 1.215 . S
O565 Ho537 2.524 . S
O565 C548 1.289 . S
O566 Ho537 2.381 . S
O566 C555 1.275 . S
O567 Ho536 2.305 . S
O567 Ho537 2.669 . S
O567 C555 1.256 . S
H568 C541 0.930 . S
H569 C542 0.931 . S
H570 C544 0.934 . S
H571 C545 0.930 . S
H572 C550 0.930 . S
H573 C551 0.931 . S
H574 C553 0.934 . S
H575 C554 0.930 . S
Ho576 C579 2.811 . S
Ho576 O596 2.322 . S
Ho576 O598 2.378 . S
Ho576 O599 2.524 . S
Ho576 O600 2.381 1_545 S
Ho576 O601 2.669 1_554 S
Ho576 O603 2.346 . S
Ho576 O607 2.305 . S
Ho577 C588 2.811 . S
Ho577 O597 2.346 . S
Ho577 O601 2.305 . S
Ho577 O602 2.322 . S
Ho577 O604 2.378 . S
Ho577 O605 2.524 . S
Ho577 O606 2.381 1_556 S
Ho577 O607 2.669 1_556 S
C578 O596 1.259 . S
C578 O597 1.268 1_554 S
C579 Ho576 2.811 . S
C579 C580 1.488 . S
C579 O598 1.215 . S
C579 O599 1.289 . S
C580 C579 1.488 . S
C580 C581 1.348 . S
C580 C585 1.413 1_545 S
C581 C580 1.348 . S
C581 C582 1.442 . S
C581 H608 0.930 . S
C582 C581 1.442 . S
C582 C583 1.381 1_545 S
C582 H609 0.931 . S
C583 C582 1.381 1_565 S
C583 C584 1.321 . S
C584 C583 1.321 . S
C584 C585 1.403 . S
C584 H610 0.934 . S
C585 C580 1.413 1_565 S
C585 C584 1.403 . S
C585 H611 0.930 . S
C586 O600 1.242 1_556 S
C586 O601 1.267 1_565 S
C587 O602 1.259 1_554 S
C587 O603 1.268 . S
C588 Ho577 2.811 . S
C588 C589 1.488 . S
C588 O604 1.215 . S
C588 O605 1.289 . S
C589 C588 1.488 . S
C589 C590 1.348 . S
C589 C594 1.413 . S
C590 C589 1.348 . S
C590 C591 1.442 . S
C590 H612 0.930 . S
C591 C590 1.442 . S
C591 C592 1.381 . S
C591 H613 0.931 . S
C592 C591 1.381 . S
C592 C593 1.321 . S
C593 C592 1.321 . S
C593 C594 1.403 . S
C593 H614 0.934 . S
C594 C589 1.413 . S
C594 C593 1.403 . S
C594 H615 0.930 . S
C595 O606 1.275 . S
C595 O607 1.256 . S
O596 Ho576 2.322 . S
O596 C578 1.259 . S
O597 Ho577 2.346 . S
O597 C578 1.268 1_556 S
O598 Ho576 2.378 . S
O598 C579 1.215 . S
O599 Ho576 2.524 . S
O599 C579 1.289 . S
O600 Ho576 2.381 1_565 S
O600 C586 1.242 1_554 S
O601 Ho576 2.669 1_556 S
O601 Ho577 2.305 . S
O601 C586 1.267 1_545 S
O602 Ho577 2.322 . S
O602 C587 1.259 1_556 S
O603 Ho576 2.346 . S
O603 C587 1.268 . S
O604 Ho577 2.378 . S
O604 C588 1.215 . S
O605 Ho577 2.524 . S
O605 C588 1.289 . S
O606 Ho577 2.381 1_554 S
O606 C595 1.275 . S
O607 Ho576 2.305 . S
O607 Ho577 2.669 1_554 S
O607 C595 1.256 . S
H608 C581 0.930 . S
H609 C582 0.931 . S
H610 C584 0.934 . S
H611 C585 0.930 . S
H612 C590 0.930 . S
H613 C591 0.931 . S
H614 C593 0.934 . S
H615 C594 0.930 . S
Ho616 C619 2.811 . S
Ho616 O636 2.322 . S
Ho616 O638 2.378 . S
Ho616 O639 2.524 . S
Ho616 O640 2.381 . S
Ho616 O641 2.669 . S
Ho616 O643 2.346 . S
Ho616 O647 2.305 . S
Ho617 C628 2.811 . S
Ho617 O637 2.346 . S
Ho617 O641 2.305 . S
Ho617 O642 2.322 . S
Ho617 O644 2.378 . S
Ho617 O645 2.524 . S
Ho617 O646 2.381 . S
Ho617 O647 2.669 . S
C618 O636 1.259 . S
C618 O637 1.268 . S
C619 Ho616 2.811 . S
C619 C620 1.488 . S
C619 O638 1.215 . S
C619 O639 1.289 . S
C620 C619 1.488 . S
C620 C621 1.348 . S
C620 C625 1.413 . S
C621 C620 1.348 . S
C621 C622 1.442 . S
C621 H648 0.930 . S
C622 C621 1.442 . S
C622 C623 1.381 . S
C622 H649 0.931 . S
C623 C622 1.381 . S
C623 C624 1.321 . S
C624 C623 1.321 . S
C624 C625 1.403 . S
C624 H650 0.934 . S
C625 C620 1.413 . S
C625 C624 1.403 . S
C625 H651 0.930 . S
C626 O640 1.275 . S
C626 O641 1.256 . S
C627 O642 1.259 . S
C627 O643 1.268 . S
C628 Ho617 2.811 . S
C628 C629 1.488 . S
C628 O644 1.215 . S
C628 O645 1.289 . S
C629 C628 1.488 . S
C629 C630 1.348 . S
C629 C634 1.413 . S
C630 C629 1.348 . S
C630 C631 1.442 . S
C630 H652 0.930 . S
C631 C630 1.442 . S
C631 C632 1.381 . S
C631 H653 0.931 . S
C632 C631 1.381 . S
C632 C633 1.321 . S
C633 C632 1.321 . S
C633 C634 1.403 . S
C633 H654 0.934 . S
C634 C629 1.413 . S
C634 C633 1.403 . S
C634 H655 0.930 . S
C635 O646 1.275 . S
C635 O647 1.256 . S
O636 Ho616 2.322 . S
O636 C618 1.259 . S
O637 Ho617 2.346 . S
O637 C618 1.268 . S
O638 Ho616 2.378 . S
O638 C619 1.215 . S
O639 Ho616 2.524 . S
O639 C619 1.289 . S
O640 Ho616 2.381 . S
O640 C626 1.275 . S
O641 Ho616 2.669 . S
O641 Ho617 2.305 . S
O641 C626 1.256 . S
O642 Ho617 2.322 . S
O642 C627 1.259 . S
O643 Ho616 2.346 . S
O643 C627 1.268 . S
O644 Ho617 2.378 . S
O644 C628 1.215 . S
O645 Ho617 2.524 . S
O645 C628 1.289 . S
O646 Ho617 2.381 . S
O646 C635 1.275 . S
O647 Ho616 2.305 . S
O647 Ho617 2.669 . S
O647 C635 1.256 . S
H648 C621 0.930 . S
H649 C622 0.931 . S
H650 C624 0.934 . S
H651 C625 0.930 . S
H652 C630 0.930 . S
H653 C631 0.931 . S
H654 C633 0.934 . S
H655 C634 0.930 . S
Ho656 C659 2.834 . S
Ho656 O676 2.322 1_554 S
Ho656 O678 2.378 . S
Ho656 O679 2.524 1_554 S
Ho656 O680 2.381 . S
Ho656 O681 2.669 . S
Ho656 O683 2.346 . S
Ho656 O687 2.305 . S
Ho657 C668 2.814 . S
Ho657 O677 2.341 1_554 S
Ho657 O681 2.307 . S
Ho657 O682 2.327 . S
Ho657 O684 2.380 . S
Ho657 O685 2.528 . S
Ho657 O686 2.379 1_554 S
Ho657 O687 2.669 . S
C658 O676 1.259 . S
C658 O677 1.268 . S
C659 Ho656 2.834 . S
C659 C660 1.465 1_554 S
C659 O678 1.243 . S
C659 O679 1.284 1_554 S
C660 C659 1.465 1_556 S
C660 C661 1.348 . S
C660 C665 1.413 . S
C661 C660 1.348 . S
C661 C662 1.442 . S
C661 H688 0.930 . S
C662 C661 1.442 . S
C662 C663 1.381 . S
C662 H689 0.931 . S
C663 C662 1.381 . S
C663 C664 1.321 . S
C664 C663 1.321 . S
C664 C665 1.403 . S
C664 H690 0.934 . S
C665 C660 1.413 . S
C665 C664 1.403 . S
C665 H691 0.930 . S
C666 O680 1.275 . S
C666 O681 1.256 . S
C667 O682 1.259 . S
C667 O683 1.268 . S
C668 Ho657 2.814 . S
C668 C669 1.488 . S
C668 O684 1.215 . S
C668 O685 1.289 . S
C669 C668 1.488 . S
C669 C670 1.348 . S
C669 C674 1.413 . S
C670 C669 1.348 . S
C670 C671 1.442 . S
C670 H692 0.930 . S
C671 C670 1.442 . S
C671 C672 1.381 . S
C671 H693 0.931 . S
C672 C671 1.381 . S
C672 C673 1.321 . S
C673 C672 1.321 . S
C673 C674 1.403 . S
C673 H694 0.934 . S
C674 C669 1.413 . S
C674 C673 1.403 . S
C674 H695 0.930 . S
C675 O686 1.275 1_554 S
C675 O687 1.256 . S
O676 Ho656 2.322 1_556 S
O676 C658 1.259 . S
O677 Ho657 2.341 1_556 S
O677 C658 1.268 . S
O678 Ho656 2.378 . S
O678 C659 1.243 . S
O679 Ho656 2.524 1_556 S
O679 C659 1.284 1_556 S
O680 Ho656 2.381 . S
O680 C666 1.275 . S
O681 Ho656 2.669 . S
O681 Ho657 2.307 . S
O681 C666 1.256 . S
O682 Ho657 2.327 . S
O682 C667 1.259 . S
O683 Ho656 2.346 . S
O683 C667 1.268 . S
O684 Ho657 2.380 . S
O684 C668 1.215 . S
O685 Ho657 2.528 . S
O685 C668 1.289 . S
O686 Ho657 2.379 1_556 S
O686 C675 1.275 1_556 S
O687 Ho656 2.305 . S
O687 Ho657 2.669 . S
O687 C675 1.256 . S
H688 C661 0.930 . S
H689 C662 0.931 . S
H690 C664 0.934 . S
H691 C665 0.930 . S
H692 C670 0.930 . S
H693 C671 0.931 . S
H694 C673 0.934 . S
H695 C674 0.930 . S
Ho696 C699 2.811 . S
Ho696 O716 2.322 . S
Ho696 O718 2.378 . S
Ho696 O719 2.524 . S
Ho696 O720 2.381 . S
Ho696 O721 2.669 . S
Ho696 O723 2.346 . S
Ho696 O727 2.305 . S
Ho697 C708 2.811 . S
Ho697 O717 2.346 . S
Ho697 O721 2.305 . S
Ho697 O722 2.322 . S
Ho697 O724 2.378 . S
Ho697 O725 2.524 . S
Ho697 O726 2.381 . S
Ho697 O727 2.669 . S
C698 O716 1.259 . S
C698 O717 1.268 . S
C699 Ho696 2.811 . S
C699 C700 1.488 . S
C699 O718 1.215 . S
C699 O719 1.289 . S
C700 C699 1.488 . S
C700 C701 1.348 . S
C700 C705 1.413 . S
C701 C700 1.348 . S
C701 C702 1.442 . S
C701 H728 0.930 . S
C702 C701 1.442 . S
C702 C703 1.381 . S
C702 H729 0.931 . S
C703 C702 1.381 . S
C703 C704 1.321 . S
C704 C703 1.321 . S
C704 C705 1.403 . S
C704 H730 0.934 . S
C705 C700 1.413 . S
C705 C704 1.403 . S
C705 H731 0.930 . S
C706 O720 1.275 . S
C706 O721 1.256 . S
C707 O722 1.259 . S
C707 O723 1.268 . S
C708 Ho697 2.811 . S
C708 C709 1.488 . S
C708 O724 1.215 . S
C708 O725 1.289 . S
C709 C708 1.488 . S
C709 C710 1.348 . S
C709 C714 1.413 . S
C710 C709 1.348 . S
C710 C711 1.442 . S
C710 H732 0.930 . S
C711 C710 1.442 . S
C711 C712 1.381 . S
C711 H733 0.931 . S
C712 C711 1.381 . S
C712 C713 1.321 . S
C713 C712 1.321 . S
C713 C714 1.403 . S
C713 H734 0.934 . S
C714 C709 1.413 . S
C714 C713 1.403 . S
C714 H735 0.930 . S
C715 O726 1.275 . S
C715 O727 1.256 . S
O716 Ho696 2.322 . S
O716 C698 1.259 . S
O717 Ho697 2.346 . S
O717 C698 1.268 . S
O718 Ho696 2.378 . S
O718 C699 1.215 . S
O719 Ho696 2.524 . S
O719 C699 1.289 . S
O720 Ho696 2.381 . S
O720 C706 1.275 . S
O721 Ho696 2.669 . S
O721 Ho697 2.305 . S
O721 C706 1.256 . S
O722 Ho697 2.322 . S
O722 C707 1.259 . S
O723 Ho696 2.346 . S
O723 C707 1.268 . S
O724 Ho697 2.378 . S
O724 C708 1.215 . S
O725 Ho697 2.524 . S
O725 C708 1.289 . S
O726 Ho697 2.381 . S
O726 C715 1.275 . S
O727 Ho696 2.305 . S
O727 Ho697 2.669 . S
O727 C715 1.256 . S
H728 C701 0.930 . S
H729 C702 0.931 . S
H730 C704 0.934 . S
H731 C705 0.930 . S
H732 C710 0.930 . S
H733 C711 0.931 . S
H734 C713 0.934 . S
H735 C714 0.930 . S
Ho736 C739 2.811 . S
Ho736 O756 2.322 . S
Ho736 O758 2.378 . S
Ho736 O759 2.524 . S
Ho736 O760 2.381 . S
Ho736 O761 2.669 . S
Ho736 O763 2.346 . S
Ho736 O767 2.305 . S
Ho737 C748 2.811 . S
Ho737 O757 2.346 . S
Ho737 O761 2.305 . S
Ho737 O762 2.322 . S
Ho737 O764 2.378 . S
Ho737 O765 2.524 . S
Ho737 O766 2.381 . S
Ho737 O767 2.669 . S
C738 O756 1.259 . S
C738 O757 1.268 . S
C739 Ho736 2.811 . S
C739 C740 1.488 . S
C739 O758 1.215 . S
C739 O759 1.289 . S
C740 C739 1.488 . S
C740 C741 1.376 . S
C740 C745 1.413 . S
C741 C740 1.376 . S
C741 C742 1.424 1_455 S
C741 H768 0.921 1_455 S
C742 C741 1.424 1_655 S
C742 C743 1.381 . S
C742 H769 0.931 . S
C743 C742 1.381 . S
C743 C744 1.321 1_655 S
C744 C743 1.321 1_455 S
C744 C745 1.403 . S
C744 H770 0.934 . S
C745 C740 1.413 . S
C745 C744 1.403 . S
C745 H771 0.930 . S
C746 O760 1.275 . S
C746 O761 1.256 . S
C747 O762 1.259 . S
C747 O763 1.268 . S
C748 Ho737 2.811 . S
C748 C749 1.488 . S
C748 O764 1.215 . S
C748 O765 1.289 . S
C749 C748 1.488 . S
C749 C750 1.348 . S
C749 C754 1.413 . S
C750 C749 1.348 . S
C750 C751 1.442 . S
C750 H772 0.930 . S
C751 C750 1.442 . S
C751 C752 1.381 . S
C751 H773 0.931 . S
C752 C751 1.381 . S
C752 C753 1.321 . S
C753 C752 1.321 . S
C753 C754 1.403 . S
C753 H774 0.934 . S
C754 C749 1.413 . S
C754 C753 1.403 . S
C754 H775 0.930 . S
C755 O766 1.275 . S
C755 O767 1.256 . S
O756 Ho736 2.322 . S
O756 C738 1.259 . S
O757 Ho737 2.346 . S
O757 C738 1.268 . S
O758 Ho736 2.378 . S
O758 C739 1.215 . S
O759 Ho736 2.524 . S
O759 C739 1.289 . S
O760 Ho736 2.381 . S
O760 C746 1.275 . S
O761 Ho736 2.669 . S
O761 Ho737 2.305 . S
O761 C746 1.256 . S
O762 Ho737 2.322 . S
O762 C747 1.259 . S
O763 Ho736 2.346 . S
O763 C747 1.268 . S
O764 Ho737 2.378 . S
O764 C748 1.215 . S
O765 Ho737 2.524 . S
O765 C748 1.289 . S
O766 Ho737 2.381 . S
O766 C755 1.275 . S
O767 Ho736 2.305 . S
O767 Ho737 2.669 . S
O767 C755 1.256 . S
H768 C741 0.921 1_655 S
H769 C742 0.931 . S
H770 C744 0.934 . S
H771 C745 0.930 . S
H772 C750 0.930 . S
H773 C751 0.931 . S
H774 C753 0.934 . S
H775 C754 0.930 . S
Ho776 C779 2.811 . S
Ho776 O796 2.322 . S
Ho776 O798 2.378 . S
Ho776 O799 2.524 . S
Ho776 O800 2.381 . S
Ho776 O801 2.669 . S
Ho776 O803 2.346 . S
Ho776 O807 2.305 . S
Ho777 C788 2.811 . S
Ho777 O797 2.346 . S
Ho777 O801 2.305 . S
Ho777 O802 2.322 . S
Ho777 O804 2.378 . S
Ho777 O805 2.524 . S
Ho777 O806 2.381 . S
Ho777 O807 2.669 . S
C778 O796 1.259 . S
C778 O797 1.268 . S
C779 Ho776 2.811 . S
C779 C780 1.488 . S
C779 O798 1.215 . S
C779 O799 1.289 . S
C780 C779 1.488 . S
C780 C781 1.348 . S
C780 C785 1.413 . S
C781 C780 1.348 . S
C781 C782 1.442 . S
C781 H808 0.930 . S
C782 C781 1.442 . S
C782 C783 1.381 . S
C782 H809 0.931 . S
C783 C782 1.381 . S
C783 C784 1.321 . S
C784 C783 1.321 . S
C784 C785 1.403 . S
C784 H810 0.934 . S
C785 C780 1.413 . S
C785 C784 1.403 . S
C785 H811 0.930 . S
C786 O800 1.275 . S
C786 O801 1.256 . S
C787 O802 1.259 . S
C787 O803 1.268 . S
C788 Ho777 2.811 . S
C788 C789 1.488 . S
C788 O804 1.215 . S
C788 O805 1.289 . S
C789 C788 1.488 . S
C789 C790 1.348 . S
C789 C794 1.413 . S
C790 C789 1.348 . S
C790 C791 1.442 . S
C790 H812 0.930 . S
C791 C790 1.442 . S
C791 C792 1.381 . S
C791 H813 0.931 . S
C792 C791 1.381 . S
C792 C793 1.321 . S
C793 C792 1.321 . S
C793 C794 1.403 . S
C793 H814 0.934 . S
C794 C789 1.413 . S
C794 C793 1.403 . S
C794 H815 0.930 . S
C795 O806 1.275 . S
C795 O807 1.256 . S
O796 Ho776 2.322 . S
O796 C778 1.259 . S
O797 Ho777 2.346 . S
O797 C778 1.268 . S
O798 Ho776 2.378 . S
O798 C779 1.215 . S
O799 Ho776 2.524 . S
O799 C779 1.289 . S
O800 Ho776 2.381 . S
O800 C786 1.275 . S
O801 Ho776 2.669 . S
O801 Ho777 2.305 . S
O801 C786 1.256 . S
O802 Ho777 2.322 . S
O802 C787 1.259 . S
O803 Ho776 2.346 . S
O803 C787 1.268 . S
O804 Ho777 2.378 . S
O804 C788 1.215 . S
O805 Ho777 2.524 . S
O805 C788 1.289 . S
O806 Ho777 2.381 . S
O806 C795 1.275 . S
O807 Ho776 2.305 . S
O807 Ho777 2.669 . S
O807 C795 1.256 . S
H808 C781 0.930 . S
H809 C782 0.931 . S
H810 C784 0.934 . S
H811 C785 0.930 . S
H812 C790 0.930 . S
H813 C791 0.931 . S
H814 C793 0.934 . S
H815 C794 0.930 . S
Ho816 C819 2.811 . S
Ho816 O836 2.322 . S
Ho816 O838 2.378 . S
Ho816 O839 2.524 . S
Ho816 O840 2.381 . S
Ho816 O841 2.669 . S
Ho816 O843 2.346 . S
Ho816 O847 2.305 . S
Ho817 C828 2.811 . S
Ho817 O837 2.346 . S
Ho817 O841 2.305 . S
Ho817 O842 2.322 . S
Ho817 O844 2.378 . S
Ho817 O845 2.524 . S
Ho817 O846 2.381 . S
Ho817 O847 2.669 . S
C818 O836 1.259 . S
C818 O837 1.268 . S
C819 Ho816 2.811 . S
C819 C820 1.488 . S
C819 O838 1.215 . S
C819 O839 1.289 . S
C820 C819 1.488 . S
C820 C821 1.348 . S
C820 C825 1.413 . S
C821 C820 1.348 . S
C821 C822 1.442 . S
C821 H848 0.930 . S
C822 C821 1.442 . S
C822 C823 1.381 . S
C822 H849 0.931 . S
C823 C822 1.381 . S
C823 C824 1.321 . S
C824 C823 1.321 . S
C824 C825 1.403 . S
C824 H850 0.934 . S
C825 C820 1.413 . S
C825 C824 1.403 . S
C825 H851 0.930 . S
C826 O840 1.275 . S
C826 O841 1.256 . S
C827 O842 1.259 . S
C827 O843 1.268 . S
C828 Ho817 2.811 . S
C828 C829 1.488 . S
C828 O844 1.215 . S
C828 O845 1.289 . S
C829 C828 1.488 . S
C829 C830 1.348 . S
C829 C834 1.413 . S
C830 C829 1.348 . S
C830 C831 1.442 . S
C830 H852 0.930 . S
C831 C830 1.442 . S
C831 C832 1.381 . S
C831 H853 0.931 . S
C832 C831 1.381 . S
C832 C833 1.321 . S
C833 C832 1.321 . S
C833 C834 1.403 . S
C833 H854 0.934 . S
C834 C829 1.413 . S
C834 C833 1.403 . S
C834 H855 0.930 . S
C835 O846 1.275 . S
C835 O847 1.256 . S
O836 Ho816 2.322 . S
O836 C818 1.259 . S
O837 Ho817 2.346 . S
O837 C818 1.268 . S
O838 Ho816 2.378 . S
O838 C819 1.215 . S
O839 Ho816 2.524 . S
O839 C819 1.289 . S
O840 Ho816 2.381 . S
O840 C826 1.275 . S
O841 Ho816 2.669 . S
O841 Ho817 2.305 . S
O841 C826 1.256 . S
O842 Ho817 2.322 . S
O842 C827 1.259 . S
O843 Ho816 2.346 . S
O843 C827 1.268 . S
O844 Ho817 2.378 . S
O844 C828 1.215 . S
O845 Ho817 2.524 . S
O845 C828 1.289 . S
O846 Ho817 2.381 . S
O846 C835 1.275 . S
O847 Ho816 2.305 . S
O847 Ho817 2.669 . S
O847 C835 1.256 . S
H848 C821 0.930 . S
H849 C822 0.931 . S
H850 C824 0.934 . S
H851 C825 0.930 . S
H852 C830 0.930 . S
H853 C831 0.931 . S
H854 C833 0.934 . S
H855 C834 0.930 . S
Ho856 C859 2.811 . S
Ho856 O876 2.322 . S
Ho856 O878 2.378 . S
Ho856 O879 2.524 . S
Ho856 O880 2.381 . S
Ho856 O881 2.669 . S
Ho856 O883 2.346 . S
Ho856 O887 2.305 . S
Ho857 C868 2.811 . S
Ho857 O877 2.346 . S
Ho857 O881 2.305 . S
Ho857 O882 2.322 . S
Ho857 O884 2.378 . S
Ho857 O885 2.524 . S
Ho857 O886 2.381 . S
Ho857 O887 2.669 . S
C858 O876 1.259 . S
C858 O877 1.268 . S
C859 Ho856 2.811 . S
C859 C860 1.488 . S
C859 O878 1.215 . S
C859 O879 1.289 . S
C860 C859 1.488 . S
C860 C861 1.348 . S
C860 C865 1.413 . S
C861 C860 1.348 . S
C861 C862 1.442 . S
C861 H888 0.930 . S
C862 C861 1.442 . S
C862 C863 1.381 . S
C862 H889 0.931 . S
C863 C862 1.381 . S
C863 C864 1.321 . S
C864 C863 1.321 . S
C864 C865 1.403 . S
C864 H890 0.934 . S
C865 C860 1.413 . S
C865 C864 1.403 . S
C865 H891 0.930 . S
C866 O880 1.275 . S
C866 O881 1.256 . S
C867 O882 1.259 . S
C867 O883 1.268 . S
C868 Ho857 2.811 . S
C868 C869 1.488 . S
C868 O884 1.215 . S
C868 O885 1.289 . S
C869 C868 1.488 . S
C869 C870 1.348 . S
C869 C874 1.413 . S
C870 C869 1.348 . S
C870 C871 1.442 . S
C870 H892 0.930 . S
C871 C870 1.442 . S
C871 C872 1.381 . S
C871 H893 0.931 . S
C872 C871 1.381 . S
C872 C873 1.321 . S
C873 C872 1.321 . S
C873 C874 1.403 . S
C873 H894 0.934 . S
C874 C869 1.413 . S
C874 C873 1.403 . S
C874 H895 0.930 . S
C875 O886 1.275 . S
C875 O887 1.256 . S
O876 Ho856 2.322 . S
O876 C858 1.259 . S
O877 Ho857 2.346 . S
O877 C858 1.268 . S
O878 Ho856 2.378 . S
O878 C859 1.215 . S
O879 Ho856 2.524 . S
O879 C859 1.289 . S
O880 Ho856 2.381 . S
O880 C866 1.275 . S
O881 Ho856 2.669 . S
O881 Ho857 2.305 . S
O881 C866 1.256 . S
O882 Ho857 2.322 . S
O882 C867 1.259 . S
O883 Ho856 2.346 . S
O883 C867 1.268 . S
O884 Ho857 2.378 . S
O884 C868 1.215 . S
O885 Ho857 2.524 . S
O885 C868 1.289 . S
O886 Ho857 2.381 . S
O886 C875 1.275 . S
O887 Ho856 2.305 . S
O887 Ho857 2.669 . S
O887 C875 1.256 . S
H888 C861 0.930 . S
H889 C862 0.931 . S
H890 C864 0.934 . S
H891 C865 0.930 . S
H892 C870 0.930 . S
H893 C871 0.931 . S
H894 C873 0.934 . S
H895 C874 0.930 . S
Ho896 C899 2.811 . S
Ho896 O916 2.322 . S
Ho896 O918 2.378 . S
Ho896 O919 2.524 . S
Ho896 O920 2.381 . S
Ho896 O921 2.669 . S
Ho896 O923 2.346 . S
Ho896 O927 2.305 . S
Ho897 C908 2.811 . S
Ho897 O917 2.346 . S
Ho897 O921 2.305 . S
Ho897 O922 2.322 . S
Ho897 O924 2.378 . S
Ho897 O925 2.524 . S
Ho897 O926 2.381 . S
Ho897 O927 2.669 . S
C898 O916 1.259 . S
C898 O917 1.268 . S
C899 Ho896 2.811 . S
C899 C900 1.488 . S
C899 O918 1.215 . S
C899 O919 1.289 . S
C900 C899 1.488 . S
C900 C901 1.348 . S
C900 C905 1.413 . S
C901 C900 1.348 . S
C901 C902 1.442 . S
C901 H928 0.930 . S
C902 C901 1.442 . S
C902 C903 1.381 . S
C902 H929 0.931 . S
C903 C902 1.381 . S
C903 C904 1.321 . S
C904 C903 1.321 . S
C904 C905 1.403 . S
C904 H930 0.934 . S
C905 C900 1.413 . S
C905 C904 1.403 . S
C905 H931 0.930 . S
C906 O920 1.275 . S
C906 O921 1.256 . S
C907 O922 1.259 . S
C907 O923 1.268 . S
C908 Ho897 2.811 . S
C908 C909 1.488 . S
C908 O924 1.215 . S
C908 O925 1.289 . S
C909 C908 1.488 . S
C909 C910 1.348 . S
C909 C914 1.413 . S
C910 C909 1.348 . S
C910 C911 1.442 . S
C910 H932 0.930 . S
C911 C910 1.442 . S
C911 C912 1.381 . S
C911 H933 0.931 . S
C912 C911 1.381 . S
C912 C913 1.321 . S
C913 C912 1.321 . S
C913 C914 1.403 . S
C913 H934 0.934 . S
C914 C909 1.413 . S
C914 C913 1.403 . S
C914 H935 0.930 . S
C915 O926 1.275 . S
C915 O927 1.256 . S
O916 Ho896 2.322 . S
O916 C898 1.259 . S
O917 Ho897 2.346 . S
O917 C898 1.268 . S
O918 Ho896 2.378 . S
O918 C899 1.215 . S
O919 Ho896 2.524 . S
O919 C899 1.289 . S
O920 Ho896 2.381 . S
O920 C906 1.275 . S
O921 Ho896 2.669 . S
O921 Ho897 2.305 . S
O921 C906 1.256 . S
O922 Ho897 2.322 . S
O922 C907 1.259 . S
O923 Ho896 2.346 . S
O923 C907 1.268 . S
O924 Ho897 2.378 . S
O924 C908 1.215 . S
O925 Ho897 2.524 . S
O925 C908 1.289 . S
O926 Ho897 2.381 . S
O926 C915 1.275 . S
O927 Ho896 2.305 . S
O927 Ho897 2.669 . S
O927 C915 1.256 . S
H928 C901 0.930 . S
H929 C902 0.931 . S
H930 C904 0.934 . S
H931 C905 0.930 . S
H932 C910 0.930 . S
H933 C911 0.931 . S
H934 C913 0.934 . S
H935 C914 0.930 . S
Ho936 C939 2.811 1_554 S
Ho936 O956 2.322 1_554 S
Ho936 O958 2.378 1_554 S
Ho936 O959 2.524 . S
Ho936 O960 2.381 1_554 S
Ho936 O961 2.669 1_554 S
Ho936 O963 2.346 . S
Ho936 O967 2.305 . S
Ho937 C948 2.811 1_455 S
Ho937 O957 2.346 . S
Ho937 O961 2.305 1_554 S
Ho937 O962 2.322 . S
Ho937 O964 2.378 1_455 S
Ho937 O965 2.524 1_455 S
Ho937 O966 2.381 . S
Ho937 O967 2.669 . S
C938 O956 1.259 1_554 S
C938 O957 1.268 . S
C939 Ho936 2.811 1_556 S
C939 C940 1.488 . S
C939 O958 1.215 . S
C939 O959 1.289 1_556 S
C940 C939 1.488 . S
C940 C941 1.348 1_556 S
C940 C945 1.413 . S
C941 C940 1.348 1_554 S
C941 C942 1.442 . S
C941 H968 0.930 . S
C942 C941 1.442 . S
C942 C943 1.381 1_554 S
C942 H969 0.931 . S
C943 C942 1.381 1_556 S
C943 C944 1.321 . S
C944 C943 1.321 . S
C944 C945 1.403 . S
C944 H970 0.934 . S
C945 C940 1.413 . S
C945 C944 1.403 . S
C945 H971 0.930 . S
C946 O960 1.275 . S
C946 O961 1.256 . S
C947 O962 1.259 . S
C947 O963 1.268 . S
C948 Ho937 2.811 1_655 S
C948 C949 1.488 . S
C948 O964 1.215 . S
C948 O965 1.289 . S
C949 C948 1.488 . S
C949 C950 1.348 . S
C949 C954 1.413 . S
C950 C949 1.348 . S
C950 C951 1.442 . S
C950 H972 0.930 . S
C951 C950 1.442 . S
C951 C952 1.381 . S
C951 H973 0.931 . S
C952 C951 1.381 . S
C952 C953 1.321 . S
C953 C952 1.321 . S
C953 C954 1.403 . S
C953 H974 0.934 . S
C954 C949 1.413 . S
C954 C953 1.403 . S
C954 H975 0.930 . S
C955 O966 1.275 . S
C955 O967 1.256 . S
O956 Ho936 2.322 1_556 S
O956 C938 1.259 1_556 S
O957 Ho937 2.346 . S
O957 C938 1.268 . S
O958 Ho936 2.378 1_556 S
O958 C939 1.215 . S
O959 Ho936 2.524 . S
O959 C939 1.289 1_554 S
O960 Ho936 2.381 1_556 S
O960 C946 1.275 . S
O961 Ho936 2.669 1_556 S
O961 Ho937 2.305 1_556 S
O961 C946 1.256 . S
O962 Ho937 2.322 . S
O962 C947 1.259 . S
O963 Ho936 2.346 . S
O963 C947 1.268 . S
O964 Ho937 2.378 1_655 S
O964 C948 1.215 . S
O965 Ho937 2.524 1_655 S
O965 C948 1.289 . S
O966 Ho937 2.381 . S
O966 C955 1.275 . S
O967 Ho936 2.305 . S
O967 Ho937 2.669 . S
O967 C955 1.256 . S
H968 C941 0.930 . S
H969 C942 0.931 . S
H970 C944 0.934 . S
H971 C945 0.930 . S
H972 C950 0.930 . S
H973 C951 0.931 . S
H974 C953 0.934 . S
H975 C954 0.930 . S
H976 C988 0.930 . S
H977 C990 0.930 . S
H978 C991 0.930 1_554 S
H979 C995 0.959 1_655 S
H980 C995 0.959 . S
H981 C995 0.961 . S
H982 C996 0.960 . S
H983 C996 0.961 . S
H984 C996 0.959 . S
H985 C999 0.929 . S
H986 C1000 0.931 . S
H987 C1002 0.930 . S
C988 H976 0.930 . S
C988 C989 1.399 . S
C988 C993 1.399 . S
C989 C988 1.399 . S
C989 C990 1.376 . S
C990 H977 0.930 . S
C990 C989 1.376 . S
C990 C991 1.388 . S
C991 H978 0.930 1_556 S
C991 C990 1.388 . S
C991 C992 1.390 . S
C992 C991 1.390 . S
C992 C993 1.394 . S
C992 C998 1.465 . S
C993 C988 1.399 . S
C993 C992 1.394 . S
C993 C994 1.516 . S
C994 C993 1.516 . S
C994 C995 1.502 . S
C994 C996 1.561 . S
C994 C997 1.526 . S
C995 H979 0.959 1_455 S
C995 H980 0.959 . S
C995 H981 0.961 . S
C995 C994 1.502 . S
C996 H982 0.960 . S
C996 H983 0.961 . S
C996 H984 0.959 . S
C996 C994 1.561 . S
C997 C994 1.526 . S
C997 C998 1.396 . S
C997 C1002 1.390 . S
C998 C992 1.465 . S
C998 C997 1.396 . S
C998 C999 1.399 1_556 S
C999 H985 0.929 . S
C999 C998 1.399 1_554 S
C999 C1000 1.385 . S
C1000 H986 0.931 . S
C1000 C999 1.385 . S
C1000 C1001 1.390 . S
C1001 C1000 1.390 . S
C1001 C1002 1.385 1_554 S
C1002 H987 0.930 . S
C1002 C997 1.390 . S
C1002 C1001 1.385 1_556 S
H1003 C1015 0.930 . S
H1004 C1017 0.930 . S
H1005 C1018 0.930 . S
H1006 C1022 0.959 . S
H1007 C1022 0.959 . S
H1008 C1022 0.961 . S
H1009 C1023 0.960 . S
H1010 C1023 0.961 . S
H1011 C1023 0.959 . S
H1012 C1026 0.929 . S
H1013 C1027 0.931 . S
H1014 C1029 0.930 . S
C1015 H1003 0.930 . S
C1015 C1016 1.399 . S
C1015 C1020 1.399 . S
C1016 C1015 1.399 . S
C1016 C1017 1.376 . S
C1017 H1004 0.930 . S
C1017 C1016 1.376 . S
C1017 C1018 1.388 . S
C1018 H1005 0.930 . S
C1018 C1017 1.388 . S
C1018 C1019 1.390 . S
C1019 C1018 1.390 . S
C1019 C1020 1.394 . S
C1019 C1025 1.465 . S
C1020 C1015 1.399 . S
C1020 C1019 1.394 . S
C1020 C1021 1.516 . S
C1021 C1020 1.516 . S
C1021 C1022 1.502 . S
C1021 C1023 1.561 . S
C1021 C1024 1.526 . S
C1022 H1006 0.959 . S
C1022 H1007 0.959 . S
C1022 H1008 0.961 . S
C1022 C1021 1.502 . S
C1023 H1009 0.960 . S
C1023 H1010 0.961 . S
C1023 H1011 0.959 . S
C1023 C1021 1.561 . S
C1024 C1021 1.526 . S
C1024 C1025 1.396 . S
C1024 C1029 1.390 . S
C1025 C1019 1.465 . S
C1025 C1024 1.396 . S
C1025 C1026 1.399 . S
C1026 H1012 0.929 . S
C1026 C1025 1.399 . S
C1026 C1027 1.385 . S
C1027 H1013 0.931 . S
C1027 C1026 1.385 . S
C1027 C1028 1.389 . S
C1028 C1027 1.389 . S
C1028 C1029 1.387 . S
C1029 H1014 0.930 . S
C1029 C1024 1.390 . S
C1029 C1028 1.387 . S
H1030 C1042 0.930 . S
H1031 C1044 0.930 . S
H1032 C1045 0.930 . S
H1033 C1049 0.959 . S
H1034 C1049 0.959 . S
H1035 C1049 0.961 . S
H1036 C1050 0.960 . S
H1037 C1050 0.961 . S
H1038 C1050 0.959 . S
H1039 C1053 0.929 . S
H1040 C1054 0.931 . S
H1041 C1056 0.930 . S
C1042 H1030 0.930 . S
C1042 C1043 1.399 . S
C1042 C1047 1.399 . S
C1043 C1042 1.399 . S
C1043 C1044 1.376 . S
C1044 H1031 0.930 . S
C1044 C1043 1.376 . S
C1044 C1045 1.388 . S
C1045 H1032 0.930 . S
C1045 C1044 1.388 . S
C1045 C1046 1.390 . S
C1046 C1045 1.390 . S
C1046 C1047 1.394 . S
C1046 C1052 1.465 . S
C1047 C1042 1.399 . S
C1047 C1046 1.394 . S
C1047 C1048 1.516 . S
C1048 C1047 1.516 . S
C1048 C1049 1.502 . S
C1048 C1050 1.561 . S
C1048 C1051 1.526 . S
C1049 H1033 0.959 . S
C1049 H1034 0.959 . S
C1049 H1035 0.961 . S
C1049 C1048 1.502 . S
C1050 H1036 0.960 . S
C1050 H1037 0.961 . S
C1050 H1038 0.959 . S
C1050 C1048 1.561 . S
C1051 C1048 1.526 . S
C1051 C1052 1.396 . S
C1051 C1056 1.390 . S
C1052 C1046 1.465 . S
C1052 C1051 1.396 . S
C1052 C1053 1.399 . S
C1053 H1039 0.929 . S
C1053 C1052 1.399 . S
C1053 C1054 1.385 . S
C1054 H1040 0.931 . S
C1054 C1053 1.385 . S
C1054 C1055 1.389 . S
C1055 C1054 1.389 . S
C1055 C1056 1.387 . S
C1056 H1041 0.930 . S
C1056 C1051 1.390 . S
C1056 C1055 1.387 . S
H1057 C1069 0.930 . S
H1058 C1071 0.930 . S
H1059 C1072 0.930 . S
H1060 C1076 0.959 . S
H1061 C1076 0.959 . S
H1062 C1076 0.961 . S
H1063 C1077 0.960 . S
H1064 C1077 0.961 . S
H1065 C1077 0.959 . S
H1066 C1080 0.929 . S
H1067 C1081 0.931 . S
H1068 C1083 0.930 . S
C1069 H1057 0.930 . S
C1069 C1070 1.399 . S
C1069 C1074 1.399 . S
C1070 C1069 1.399 . S
C1070 C1071 1.376 . S
C1071 H1058 0.930 . S
C1071 C1070 1.376 . S
C1071 C1072 1.388 . S
C1072 H1059 0.930 . S
C1072 C1071 1.388 . S
C1072 C1073 1.390 . S
C1073 C1072 1.390 . S
C1073 C1074 1.394 . S
C1073 C1079 1.465 . S
C1074 C1069 1.399 . S
C1074 C1073 1.394 . S
C1074 C1075 1.516 . S
C1075 C1074 1.516 . S
C1075 C1076 1.502 . S
C1075 C1077 1.561 . S
C1075 C1078 1.526 . S
C1076 H1060 0.959 . S
C1076 H1061 0.959 . S
C1076 H1062 0.961 . S
C1076 C1075 1.502 . S
C1077 H1063 0.960 . S
C1077 H1064 0.961 . S
C1077 H1065 0.959 . S
C1077 C1075 1.561 . S
C1078 C1075 1.526 . S
C1078 C1079 1.396 . S
C1078 C1083 1.390 . S
C1079 C1073 1.465 . S
C1079 C1078 1.396 . S
C1079 C1080 1.399 . S
C1080 H1066 0.929 . S
C1080 C1079 1.399 . S
C1080 C1081 1.385 . S
C1081 H1067 0.931 . S
C1081 C1080 1.385 . S
C1081 C1082 1.389 . S
C1082 C1081 1.389 . S
C1082 C1083 1.387 . S
C1083 H1068 0.930 . S
C1083 C1078 1.390 . S
C1083 C1082 1.387 . S
H1084 C1096 0.930 . S
H1085 C1098 0.930 . S
H1086 C1099 0.930 . S
H1087 C1103 0.959 . S
H1088 C1103 0.959 . S
H1089 C1103 0.961 . S
H1090 C1104 0.960 . S
H1091 C1104 0.961 . S
H1092 C1104 0.959 . S
H1093 C1107 0.929 . S
H1094 C1108 0.931 . S
H1095 C1110 0.930 . S
C1096 H1084 0.930 . S
C1096 C1097 1.399 . S
C1096 C1101 1.399 . S
C1097 C1096 1.399 . S
C1097 C1098 1.376 . S
C1098 H1085 0.930 . S
C1098 C1097 1.376 . S
C1098 C1099 1.388 . S
C1099 H1086 0.930 . S
C1099 C1098 1.388 . S
C1099 C1100 1.390 . S
C1100 C1099 1.390 . S
C1100 C1101 1.394 . S
C1100 C1106 1.465 . S
C1101 C1096 1.399 . S
C1101 C1100 1.394 . S
C1101 C1102 1.516 . S
C1102 C1101 1.516 . S
C1102 C1103 1.502 . S
C1102 C1104 1.561 . S
C1102 C1105 1.526 . S
C1103 H1087 0.959 . S
C1103 H1088 0.959 . S
C1103 H1089 0.961 . S
C1103 C1102 1.502 . S
C1104 H1090 0.960 . S
C1104 H1091 0.961 . S
C1104 H1092 0.959 . S
C1104 C1102 1.561 . S
C1105 C1102 1.526 . S
C1105 C1106 1.396 . S
C1105 C1110 1.390 . S
C1106 C1100 1.465 . S
C1106 C1105 1.396 . S
C1106 C1107 1.399 . S
C1107 H1093 0.929 . S
C1107 C1106 1.399 . S
C1107 C1108 1.385 . S
C1108 H1094 0.931 . S
C1108 C1107 1.385 . S
C1108 C1109 1.389 . S
C1109 C1108 1.389 . S
C1109 C1110 1.387 . S
C1110 H1095 0.930 . S
C1110 C1105 1.390 . S
C1110 C1109 1.387 . S
H1111 C1123 0.930 . S
H1112 C1125 0.930 . S
H1113 C1126 0.930 . S
H1114 C1130 0.959 . S
H1115 C1130 0.959 . S
H1116 C1130 0.961 . S
H1117 C1131 0.960 . S
H1118 C1131 0.961 . S
H1119 C1131 0.959 . S
H1120 C1134 0.929 . S
H1121 C1135 0.931 . S
H1122 C1137 0.930 . S
C1123 H1111 0.930 . S
C1123 C1124 1.399 . S
C1123 C1128 1.399 . S
C1124 C1123 1.399 . S
C1124 C1125 1.376 . S
C1125 H1112 0.930 . S
C1125 C1124 1.376 . S
C1125 C1126 1.388 . S
C1126 H1113 0.930 . S
C1126 C1125 1.388 . S
C1126 C1127 1.390 . S
C1127 C1126 1.390 . S
C1127 C1128 1.394 . S
C1127 C1133 1.465 . S
C1128 C1123 1.399 . S
C1128 C1127 1.394 . S
C1128 C1129 1.516 . S
C1129 C1128 1.516 . S
C1129 C1130 1.502 . S
C1129 C1131 1.561 . S
C1129 C1132 1.526 . S
C1130 H1114 0.959 . S
C1130 H1115 0.959 . S
C1130 H1116 0.961 . S
C1130 C1129 1.502 . S
C1131 H1117 0.960 . S
C1131 H1118 0.961 . S
C1131 H1119 0.959 . S
C1131 C1129 1.561 . S
C1132 C1129 1.526 . S
C1132 C1133 1.396 . S
C1132 C1137 1.390 . S
C1133 C1127 1.465 . S
C1133 C1132 1.396 . S
C1133 C1134 1.399 . S
C1134 H1120 0.929 . S
C1134 C1133 1.399 . S
C1134 C1135 1.385 . S
C1135 H1121 0.931 . S
C1135 C1134 1.385 . S
C1135 C1136 1.389 . S
C1136 C1135 1.389 . S
C1136 C1137 1.387 . S
C1137 H1122 0.930 . S
C1137 C1132 1.390 . S
C1137 C1136 1.387 . S
H1138 C1150 0.930 . S
H1139 C1152 0.930 . S
H1140 C1153 0.930 . S
H1141 C1157 0.959 . S
H1142 C1157 0.959 . S
H1143 C1157 0.961 . S
H1144 C1158 0.960 . S
H1145 C1158 0.961 . S
H1146 C1158 0.959 . S
H1147 C1161 0.929 . S
H1148 C1162 0.931 . S
H1149 C1164 0.930 . S
C1150 H1138 0.930 . S
C1150 C1151 1.399 . S
C1150 C1155 1.399 . S
C1151 C1150 1.399 . S
C1151 C1152 1.376 . S
C1152 H1139 0.930 . S
C1152 C1151 1.376 . S
C1152 C1153 1.388 . S
C1153 H1140 0.930 . S
C1153 C1152 1.388 . S
C1153 C1154 1.390 . S
C1154 C1153 1.390 . S
C1154 C1155 1.394 . S
C1154 C1160 1.465 . S
C1155 C1150 1.399 . S
C1155 C1154 1.394 . S
C1155 C1156 1.516 . S
C1156 C1155 1.516 . S
C1156 C1157 1.502 . S
C1156 C1158 1.561 . S
C1156 C1159 1.526 . S
C1157 H1141 0.959 . S
C1157 H1142 0.959 . S
C1157 H1143 0.961 . S
C1157 C1156 1.502 . S
C1158 H1144 0.960 . S
C1158 H1145 0.961 . S
C1158 H1146 0.959 . S
C1158 C1156 1.561 . S
C1159 C1156 1.526 . S
C1159 C1160 1.396 . S
C1159 C1164 1.390 . S
C1160 C1154 1.465 . S
C1160 C1159 1.396 . S
C1160 C1161 1.399 . S
C1161 H1147 0.929 . S
C1161 C1160 1.399 . S
C1161 C1162 1.385 . S
C1162 H1148 0.931 . S
C1162 C1161 1.385 . S
C1162 C1163 1.389 . S
C1163 C1162 1.389 . S
C1163 C1164 1.387 . S
C1164 H1149 0.930 . S
C1164 C1159 1.390 . S
C1164 C1163 1.387 . S
H1165 C1177 0.930 . S
H1166 C1179 0.930 . S
H1167 C1180 0.930 . S
H1168 C1184 0.959 . S
H1169 C1184 0.959 . S
H1170 C1184 0.961 . S
H1171 C1185 0.960 . S
H1172 C1185 0.961 . S
H1173 C1185 0.959 . S
H1174 C1188 0.929 . S
H1175 C1189 0.931 . S
H1176 C1191 0.930 . S
C1177 H1165 0.930 . S
C1177 C1178 1.399 . S
C1177 C1182 1.399 . S
C1178 C1177 1.399 . S
C1178 C1179 1.376 . S
C1179 H1166 0.930 . S
C1179 C1178 1.376 . S
C1179 C1180 1.388 . S
C1180 H1167 0.930 . S
C1180 C1179 1.388 . S
C1180 C1181 1.390 . S
C1181 C1180 1.390 . S
C1181 C1182 1.394 . S
C1181 C1187 1.465 . S
C1182 C1177 1.399 . S
C1182 C1181 1.394 . S
C1182 C1183 1.516 . S
C1183 C1182 1.516 . S
C1183 C1184 1.502 . S
C1183 C1185 1.561 . S
C1183 C1186 1.526 . S
C1184 H1168 0.959 . S
C1184 H1169 0.959 . S
C1184 H1170 0.961 . S
C1184 C1183 1.502 . S
C1185 H1171 0.960 . S
C1185 H1172 0.961 . S
C1185 H1173 0.959 . S
C1185 C1183 1.561 . S
C1186 C1183 1.526 . S
C1186 C1187 1.396 . S
C1186 C1191 1.390 . S
C1187 C1181 1.465 . S
C1187 C1186 1.396 . S
C1187 C1188 1.399 . S
C1188 H1174 0.929 . S
C1188 C1187 1.399 . S
C1188 C1189 1.385 . S
C1189 H1175 0.931 . S
C1189 C1188 1.385 . S
C1189 C1190 1.389 . S
C1190 C1189 1.389 . S
C1190 C1191 1.387 . S
C1191 H1176 0.930 . S
C1191 C1186 1.390 . S
C1191 C1190 1.387 . S
H1192 C1204 0.930 . S
H1193 C1206 0.930 . S
H1194 C1207 0.930 . S
H1195 C1211 0.959 . S
H1196 C1211 0.959 . S
H1197 C1211 0.961 . S
H1198 C1212 0.960 1_565 S
H1199 C1212 0.961 1_565 S
H1200 C1212 0.959 . S
H1201 C1215 0.929 1_655 S
H1202 C1216 0.931 . S
H1203 C1218 0.930 . S
C1204 H1192 0.930 . S
C1204 C1205 1.399 . S
C1204 C1209 1.399 . S
C1205 C1204 1.399 . S
C1205 C1206 1.376 . S
C1206 H1193 0.930 . S
C1206 C1205 1.376 . S
C1206 C1207 1.388 . S
C1207 H1194 0.930 . S
C1207 C1206 1.388 . S
C1207 C1208 1.390 . S
C1208 C1207 1.390 . S
C1208 C1209 1.394 . S
C1208 C1214 1.440 1_655 S
C1209 C1204 1.399 . S
C1209 C1208 1.394 . S
C1209 C1210 1.516 1_655 S
C1210 C1209 1.516 1_455 S
C1210 C1211 1.502 . S
C1210 C1212 1.561 1_455 S
C1210 C1213 1.526 . S
C1211 H1195 0.959 . S
C1211 H1196 0.959 . S
C1211 H1197 0.961 . S
C1211 C1210 1.502 . S
C1212 H1198 0.960 1_545 S
C1212 H1199 0.961 1_545 S
C1212 H1200 0.959 . S
C1212 C1210 1.561 1_655 S
C1213 C1210 1.526 . S
C1213 C1214 1.426 . S
C1213 C1218 1.390 . S
C1214 C1208 1.440 1_455 S
C1214 C1213 1.426 . S
C1214 C1215 1.400 . S
C1215 H1201 0.929 1_455 S
C1215 C1214 1.400 . S
C1215 C1216 1.385 . S
C1216 H1202 0.931 . S
C1216 C1215 1.385 . S
C1216 C1217 1.389 . S
C1217 C1216 1.389 . S
C1217 C1218 1.387 . S
C1218 H1203 0.930 . S
C1218 C1213 1.390 . S
C1218 C1217 1.387 . S
H1219 C1231 0.930 . S
H1220 C1233 0.930 . S
H1221 C1234 0.930 . S
H1222 C1238 0.959 . S
H1223 C1238 0.959 . S
H1224 C1238 0.961 . S
H1225 C1239 0.960 . S
H1226 C1239 0.961 . S
H1227 C1239 0.959 . S
H1228 C1242 0.929 . S
H1229 C1243 0.931 . S
H1230 C1245 0.930 . S
C1231 H1219 0.930 . S
C1231 C1232 1.399 . S
C1231 C1236 1.399 . S
C1232 C1231 1.399 . S
C1232 C1233 1.376 . S
C1233 H1220 0.930 . S
C1233 C1232 1.376 . S
C1233 C1234 1.388 . S
C1234 H1221 0.930 . S
C1234 C1233 1.388 . S
C1234 C1235 1.390 . S
C1235 C1234 1.390 . S
C1235 C1236 1.394 . S
C1235 C1241 1.465 . S
C1236 C1231 1.399 . S
C1236 C1235 1.394 . S
C1236 C1237 1.516 . S
C1237 C1236 1.516 . S
C1237 C1238 1.502 . S
C1237 C1239 1.561 . S
C1237 C1240 1.526 . S
C1238 H1222 0.959 . S
C1238 H1223 0.959 . S
C1238 H1224 0.961 . S
C1238 C1237 1.502 . S
C1239 H1225 0.960 . S
C1239 H1226 0.961 . S
C1239 H1227 0.959 . S
C1239 C1237 1.561 . S
C1240 C1237 1.526 . S
C1240 C1241 1.396 . S
C1240 C1245 1.390 . S
C1241 C1235 1.465 . S
C1241 C1240 1.396 . S
C1241 C1242 1.399 . S
C1242 H1228 0.929 . S
C1242 C1241 1.399 . S
C1242 C1243 1.385 . S
C1243 H1229 0.931 . S
C1243 C1242 1.385 . S
C1243 C1244 1.389 . S
C1244 C1243 1.389 . S
C1244 C1245 1.387 . S
C1245 H1230 0.930 . S
C1245 C1240 1.390 . S
C1245 C1244 1.387 . S
H1246 C1258 0.930 . S
H1247 C1260 0.930 . S
H1248 C1261 0.930 . S
H1249 C1265 0.959 . S
H1250 C1265 0.959 . S
H1251 C1265 0.961 . S
H1252 C1266 0.960 . S
H1253 C1266 0.961 . S
H1254 C1266 0.959 . S
H1255 C1269 0.929 1_565 S
H1256 C1270 0.931 1_565 S
H1257 C1272 0.930 . S
C1258 H1246 0.930 . S
C1258 C1259 1.399 . S
C1258 C1263 1.399 . S
C1259 C1258 1.399 . S
C1259 C1260 1.376 . S
C1260 H1247 0.930 . S
C1260 C1259 1.376 . S
C1260 C1261 1.388 . S
C1261 H1248 0.930 . S
C1261 C1260 1.388 . S
C1261 C1262 1.390 . S
C1262 C1261 1.390 . S
C1262 C1263 1.394 . S
C1262 C1268 1.465 . S
C1263 C1258 1.399 . S
C1263 C1262 1.394 . S
C1263 C1264 1.516 . S
C1264 C1263 1.516 . S
C1264 C1265 1.502 . S
C1264 C1266 1.561 . S
C1264 C1267 1.526 . S
C1265 H1249 0.959 . S
C1265 H1250 0.959 . S
C1265 H1251 0.961 . S
C1265 C1264 1.502 . S
C1266 H1252 0.960 . S
C1266 H1253 0.961 . S
C1266 H1254 0.959 . S
C1266 C1264 1.561 . S
C1267 C1264 1.526 . S
C1267 C1268 1.396 . S
C1267 C1272 1.390 . S
C1268 C1262 1.465 . S
C1268 C1267 1.396 . S
C1268 C1269 1.399 . S
C1269 H1255 0.929 1_545 S
C1269 C1268 1.399 . S
C1269 C1270 1.385 . S
C1270 H1256 0.931 1_545 S
C1270 C1269 1.385 . S
C1270 C1271 1.389 . S
C1271 C1270 1.389 . S
C1271 C1272 1.387 . S
C1272 H1257 0.930 . S
C1272 C1267 1.390 . S
C1272 C1271 1.387 . S
H1273 C1285 0.930 . S
H1274 C1287 0.930 . S
H1275 C1288 0.930 . S
H1276 C1292 0.959 . S
H1277 C1292 0.959 . S
H1278 C1292 0.961 . S
H1279 C1293 0.960 . S
H1280 C1293 0.961 . S
H1281 C1293 0.959 . S
H1282 C1296 0.929 . S
H1283 C1297 0.931 . S
H1284 C1299 0.930 . S
C1285 H1273 0.930 . S
C1285 C1286 1.399 . S
C1285 C1290 1.399 . S
C1286 C1285 1.399 . S
C1286 C1287 1.376 . S
C1287 H1274 0.930 . S
C1287 C1286 1.376 . S
C1287 C1288 1.388 . S
C1288 H1275 0.930 . S
C1288 C1287 1.388 . S
C1288 C1289 1.390 . S
C1289 C1288 1.390 . S
C1289 C1290 1.394 . S
C1289 C1295 1.465 . S
C1290 C1285 1.399 . S
C1290 C1289 1.394 . S
C1290 C1291 1.516 . S
C1291 C1290 1.516 . S
C1291 C1292 1.502 . S
C1291 C1293 1.561 . S
C1291 C1294 1.526 . S
C1292 H1276 0.959 . S
C1292 H1277 0.959 . S
C1292 H1278 0.961 . S
C1292 C1291 1.502 . S
C1293 H1279 0.960 . S
C1293 H1280 0.961 . S
C1293 H1281 0.959 . S
C1293 C1291 1.561 . S
C1294 C1291 1.526 . S
C1294 C1295 1.396 . S
C1294 C1299 1.390 . S
C1295 C1289 1.465 . S
C1295 C1294 1.396 . S
C1295 C1296 1.399 . S
C1296 H1282 0.929 . S
C1296 C1295 1.399 . S
C1296 C1297 1.385 . S
C1297 H1283 0.931 . S
C1297 C1296 1.385 . S
C1297 C1298 1.389 . S
C1298 C1297 1.389 . S
C1298 C1299 1.387 . S
C1299 H1284 0.930 . S
C1299 C1294 1.390 . S
C1299 C1298 1.387 . S
H1300 C1312 0.930 1_455 S
H1301 C1314 0.930 . S
H1302 C1315 0.930 . S
H1303 C1319 0.959 . S
H1304 C1319 0.959 . S
H1305 C1319 0.961 . S
H1306 C1320 0.960 . S
H1307 C1320 0.961 . S
H1308 C1320 0.959 . S
H1309 C1323 0.929 . S
H1310 C1324 0.931 1_655 S
H1311 C1326 0.930 . S
C1312 H1300 0.930 1_655 S
C1312 C1313 1.399 . S
C1312 C1317 1.399 1_655 S
C1313 C1312 1.399 . S
C1313 C1314 1.376 . S
C1314 H1301 0.930 . S
C1314 C1313 1.376 . S
C1314 C1315 1.388 . S
C1315 H1302 0.930 . S
C1315 C1314 1.388 . S
C1315 C1316 1.390 . S
C1316 C1315 1.390 . S
C1316 C1317 1.394 1_655 S
C1316 C1322 1.465 . S
C1317 C1312 1.399 1_455 S
C1317 C1316 1.394 1_455 S
C1317 C1318 1.516 . S
C1318 C1317 1.516 . S
C1318 C1319 1.502 . S
C1318 C1320 1.561 . S
C1318 C1321 1.526 . S
C1319 H1303 0.959 . S
C1319 H1304 0.959 . S
C1319 H1305 0.961 . S
C1319 C1318 1.502 . S
C1320 H1306 0.960 . S
C1320 H1307 0.961 . S
C1320 H1308 0.959 . S
C1320 C1318 1.561 . S
C1321 C1318 1.526 . S
C1321 C1322 1.396 1_455 S
C1321 C1326 1.390 . S
C1322 C1316 1.465 . S
C1322 C1321 1.396 1_655 S
C1322 C1323 1.399 . S
C1323 H1309 0.929 . S
C1323 C1322 1.399 . S
C1323 C1324 1.385 1_655 S
C1324 H1310 0.931 1_455 S
C1324 C1323 1.385 1_455 S
C1324 C1325 1.389 . S
C1325 C1324 1.389 . S
C1325 C1326 1.387 . S
C1326 H1311 0.930 . S
C1326 C1321 1.390 . S
C1326 C1325 1.387 . S
H1327 C1339 0.930 . S
H1328 C1341 0.930 . S
H1329 C1342 0.930 . S
H1330 C1346 0.959 . S
H1331 C1346 0.959 . S
H1332 C1346 0.961 . S
H1333 C1347 0.960 . S
H1334 C1347 0.961 . S
H1335 C1347 0.959 . S
H1336 C1350 0.929 . S
H1337 C1351 0.931 . S
H1338 C1353 0.930 . S
C1339 H1327 0.930 . S
C1339 C1340 1.399 . S
C1339 C1344 1.399 . S
C1340 C1339 1.399 . S
C1340 C1341 1.376 . S
C1341 H1328 0.930 . S
C1341 C1340 1.376 . S
C1341 C1342 1.388 . S
C1342 H1329 0.930 . S
C1342 C1341 1.388 . S
C1342 C1343 1.390 . S
C1343 C1342 1.390 . S
C1343 C1344 1.394 . S
C1343 C1349 1.465 . S
C1344 C1339 1.399 . S
C1344 C1343 1.394 . S
C1344 C1345 1.516 . S
C1345 C1344 1.516 . S
C1345 C1346 1.502 . S
C1345 C1347 1.561 . S
C1345 C1348 1.526 . S
C1346 H1330 0.959 . S
C1346 H1331 0.959 . S
C1346 H1332 0.961 . S
C1346 C1345 1.502 . S
C1347 H1333 0.960 . S
C1347 H1334 0.961 . S
C1347 H1335 0.959 . S
C1347 C1345 1.561 . S
C1348 C1345 1.526 . S
C1348 C1349 1.396 . S
C1348 C1353 1.390 . S
C1349 C1343 1.465 . S
C1349 C1348 1.396 . S
C1349 C1350 1.399 . S
C1350 H1336 0.929 . S
C1350 C1349 1.399 . S
C1350 C1351 1.385 . S
C1351 H1337 0.931 . S
C1351 C1350 1.385 . S
C1351 C1352 1.389 . S
C1352 C1351 1.389 . S
C1352 C1353 1.387 . S
C1353 H1338 0.930 . S
C1353 C1348 1.390 . S
C1353 C1352 1.387 . S
H1354 C1366 0.930 . S
H1355 C1368 0.930 . S
H1356 C1369 0.930 . S
H1357 C1373 0.959 . S
H1358 C1373 0.959 . S
H1359 C1373 0.961 . S
H1360 C1374 0.960 . S
H1361 C1374 0.961 . S
H1362 C1374 0.959 . S
H1363 C1377 0.929 . S
H1364 C1378 0.931 . S
H1365 C1380 0.930 . S
C1366 H1354 0.930 . S
C1366 C1367 1.399 . S
C1366 C1371 1.399 . S
C1367 C1366 1.399 . S
C1367 C1368 1.376 . S
C1368 H1355 0.930 . S
C1368 C1367 1.376 . S
C1368 C1369 1.388 . S
C1369 H1356 0.930 . S
C1369 C1368 1.388 . S
C1369 C1370 1.390 . S
C1370 C1369 1.390 . S
C1370 C1371 1.394 . S
C1370 C1376 1.465 . S
C1371 C1366 1.399 . S
C1371 C1370 1.394 . S
C1371 C1372 1.516 . S
C1372 C1371 1.516 . S
C1372 C1373 1.502 . S
C1372 C1374 1.561 . S
C1372 C1375 1.526 . S
C1373 H1357 0.959 . S
C1373 H1358 0.959 . S
C1373 H1359 0.961 . S
C1373 C1372 1.502 . S
C1374 H1360 0.960 . S
C1374 H1361 0.961 . S
C1374 H1362 0.959 . S
C1374 C1372 1.561 . S
C1375 C1372 1.526 . S
C1375 C1376 1.396 . S
C1375 C1380 1.390 . S
C1376 C1370 1.465 . S
C1376 C1375 1.396 . S
C1376 C1377 1.399 . S
C1377 H1363 0.929 . S
C1377 C1376 1.399 . S
C1377 C1378 1.385 . S
C1378 H1364 0.931 . S
C1378 C1377 1.385 . S
C1378 C1379 1.389 . S
C1379 C1378 1.389 . S
C1379 C1380 1.387 . S
C1380 H1365 0.930 . S
C1380 C1375 1.390 . S
C1380 C1379 1.387 . S
H1381 C1393 0.930 . S
H1382 C1395 0.930 . S
H1383 C1396 0.930 . S
H1384 C1400 0.959 . S
H1385 C1400 0.959 . S
H1386 C1400 0.961 . S
H1387 C1401 0.960 . S
H1388 C1401 0.961 . S
H1389 C1401 0.959 . S
H1390 C1404 0.929 . S
H1391 C1405 0.931 . S
H1392 C1407 0.930 . S
C1393 H1381 0.930 . S
C1393 C1394 1.399 . S
C1393 C1398 1.399 . S
C1394 C1393 1.399 . S
C1394 C1395 1.376 . S
C1395 H1382 0.930 . S
C1395 C1394 1.376 . S
C1395 C1396 1.388 . S
C1396 H1383 0.930 . S
C1396 C1395 1.388 . S
C1396 C1397 1.390 . S
C1397 C1396 1.390 . S
C1397 C1398 1.394 . S
C1397 C1403 1.465 . S
C1398 C1393 1.399 . S
C1398 C1397 1.394 . S
C1398 C1399 1.516 . S
C1399 C1398 1.516 . S
C1399 C1400 1.502 . S
C1399 C1401 1.561 . S
C1399 C1402 1.526 . S
C1400 H1384 0.959 . S
C1400 H1385 0.959 . S
C1400 H1386 0.961 . S
C1400 C1399 1.502 . S
C1401 H1387 0.960 . S
C1401 H1388 0.961 . S
C1401 H1389 0.959 . S
C1401 C1399 1.561 . S
C1402 C1399 1.526 . S
C1402 C1403 1.396 . S
C1402 C1407 1.390 . S
C1403 C1397 1.465 . S
C1403 C1402 1.396 . S
C1403 C1404 1.399 . S
C1404 H1390 0.929 . S
C1404 C1403 1.399 . S
C1404 C1405 1.385 . S
C1405 H1391 0.931 . S
C1405 C1404 1.385 . S
C1405 C1406 1.389 . S
C1406 C1405 1.389 . S
C1406 C1407 1.387 . S
C1407 H1392 0.930 . S
C1407 C1402 1.390 . S
C1407 C1406 1.387 . S
H1408 C1420 0.930 . S
H1409 C1422 0.931 1_556 S
H1410 C1423 0.930 . S
H1411 C1427 0.959 . S
H1412 C1427 0.959 . S
H1413 C1427 0.961 . S
H1414 C1428 0.960 . S
H1415 C1428 0.961 . S
H1416 C1428 0.959 1_556 S
H1417 C1431 0.929 . S
H1418 C1432 0.931 . S
H1419 C1434 0.930 . S
C1420 H1408 0.930 . S
C1420 C1421 1.399 . S
C1420 C1425 1.399 . S
C1421 C1420 1.399 . S
C1421 C1422 1.376 . S
C1422 H1409 0.931 1_554 S
C1422 C1421 1.376 . S
C1422 C1423 1.388 . S
C1423 H1410 0.930 . S
C1423 C1422 1.388 . S
C1423 C1424 1.390 . S
C1424 C1423 1.390 . S
C1424 C1425 1.394 . S
C1424 C1430 1.465 . S
C1425 C1420 1.399 . S
C1425 C1424 1.394 . S
C1425 C1426 1.471 1_565 S
C1426 C1425 1.471 1_545 S
C1426 C1427 1.520 . S
C1426 C1428 1.594 . S
C1426 C1429 1.519 1_545 S
C1427 H1411 0.959 . S
C1427 H1412 0.959 . S
C1427 H1413 0.961 . S
C1427 C1426 1.520 . S
C1428 H1414 0.960 . S
C1428 H1415 0.961 . S
C1428 H1416 0.959 1_554 S
C1428 C1426 1.594 . S
C1429 C1426 1.519 1_565 S
C1429 C1430 1.396 . S
C1429 C1434 1.390 1_565 S
C1430 C1424 1.465 . S
C1430 C1429 1.396 . S
C1430 C1431 1.399 . S
C1431 H1417 0.929 . S
C1431 C1430 1.399 . S
C1431 C1432 1.385 . S
C1432 H1418 0.931 . S
C1432 C1431 1.385 . S
C1432 C1433 1.389 . S
C1433 C1432 1.389 . S
C1433 C1434 1.387 1_565 S
C1434 H1419 0.930 . S
C1434 C1429 1.390 1_545 S
C1434 C1433 1.387 1_545 S
H1435 C1447 0.930 . S
H1436 C1449 0.930 . S
H1437 C1450 0.930 . S
H1438 C1454 0.959 . S
H1439 C1454 0.959 . S
H1440 C1454 0.961 . S
H1441 C1455 0.960 . S
H1442 C1455 0.961 . S
H1443 C1455 0.959 . S
H1444 C1458 0.929 . S
H1445 C1459 0.931 . S
H1446 C1461 0.930 . S
C1447 H1435 0.930 . S
C1447 C1448 1.399 1_556 S
C1447 C1452 1.399 . S
C1448 C1447 1.399 1_554 S
C1448 C1449 1.376 . S
C1449 H1436 0.930 . S
C1449 C1448 1.376 . S
C1449 C1450 1.388 . S
C1450 H1437 0.930 . S
C1450 C1449 1.388 . S
C1450 C1451 1.390 . S
C1451 C1450 1.390 . S
C1451 C1452 1.394 1_554 S
C1451 C1457 1.465 . S
C1452 C1447 1.399 . S
C1452 C1451 1.394 1_556 S
C1452 C1453 1.516 . S
C1453 C1452 1.516 . S
C1453 C1454 1.502 . S
C1453 C1455 1.561 . S
C1453 C1456 1.526 . S
C1454 H1438 0.959 . S
C1454 H1439 0.959 . S
C1454 H1440 0.961 . S
C1454 C1453 1.502 . S
C1455 H1441 0.960 . S
C1455 H1442 0.961 . S
C1455 H1443 0.959 . S
C1455 C1453 1.561 . S
C1456 C1453 1.526 . S
C1456 C1457 1.396 1_556 S
C1456 C1461 1.390 . S
C1457 C1451 1.465 . S
C1457 C1456 1.396 1_554 S
C1457 C1458 1.399 . S
C1458 H1444 0.929 . S
C1458 C1457 1.399 . S
C1458 C1459 1.385 . S
C1459 H1445 0.931 . S
C1459 C1458 1.385 . S
C1459 C1460 1.389 . S
C1460 C1459 1.389 . S
C1460 C1461 1.387 1_554 S
C1461 H1446 0.930 . S
C1461 C1456 1.390 . S
C1461 C1460 1.387 1_556 S
H1462 C1474 0.930 . S
H1463 C1476 0.930 . S
H1464 C1477 0.930 . S
H1465 C1481 0.959 . S
H1466 C1481 0.959 . S
H1467 C1481 0.961 . S
H1468 C1482 0.960 . S
H1469 C1482 0.961 . S
H1470 C1482 0.959 . S
H1471 C1485 0.929 . S
H1472 C1486 0.931 . S
H1473 C1488 0.930 . S
C1474 H1462 0.930 . S
C1474 C1475 1.399 . S
C1474 C1479 1.399 . S
C1475 C1474 1.399 . S
C1475 C1476 1.376 . S
C1476 H1463 0.930 . S
C1476 C1475 1.376 . S
C1476 C1477 1.388 . S
C1477 H1464 0.930 . S
C1477 C1476 1.388 . S
C1477 C1478 1.390 . S
C1478 C1477 1.390 . S
C1478 C1479 1.394 . S
C1478 C1484 1.465 . S
C1479 C1474 1.399 . S
C1479 C1478 1.394 . S
C1479 C1480 1.516 . S
C1480 C1479 1.516 . S
C1480 C1481 1.502 . S
C1480 C1482 1.561 . S
C1480 C1483 1.526 . S
C1481 H1465 0.959 . S
C1481 H1466 0.959 . S
C1481 H1467 0.961 . S
C1481 C1480 1.502 . S
C1482 H1468 0.960 . S
C1482 H1469 0.961 . S
C1482 H1470 0.959 . S
C1482 C1480 1.561 . S
C1483 C1480 1.526 . S
C1483 C1484 1.396 . S
C1483 C1488 1.390 . S
C1484 C1478 1.465 . S
C1484 C1483 1.396 . S
C1484 C1485 1.399 . S
C1485 H1471 0.929 . S
C1485 C1484 1.399 . S
C1485 C1486 1.385 . S
C1486 H1472 0.931 . S
C1486 C1485 1.385 . S
C1486 C1487 1.389 . S
C1487 C1486 1.389 . S
C1487 C1488 1.387 . S
C1488 H1473 0.930 . S
C1488 C1483 1.390 . S
C1488 C1487 1.387 . S
H1489 C1501 0.930 . S
H1490 C1503 0.930 . S
H1491 C1504 0.930 . S
H1492 C1508 0.959 . S
H1493 C1508 0.959 . S
H1494 C1508 0.961 . S
H1495 C1509 0.960 . S
H1496 C1509 0.961 . S
H1497 C1509 0.959 . S
H1498 C1512 0.929 . S
H1499 C1513 0.931 1_455 S
H1500 C1515 0.930 . S
C1501 H1489 0.930 . S
C1501 C1502 1.399 . S
C1501 C1506 1.399 . S
C1502 C1501 1.399 . S
C1502 C1503 1.376 . S
C1503 H1490 0.930 . S
C1503 C1502 1.376 . S
C1503 C1504 1.388 . S
C1504 H1491 0.930 . S
C1504 C1503 1.388 . S
C1504 C1505 1.390 . S
C1505 C1504 1.390 . S
C1505 C1506 1.394 . S
C1505 C1511 1.465 . S
C1506 C1501 1.399 . S
C1506 C1505 1.394 . S
C1506 C1507 1.516 . S
C1507 C1506 1.516 . S
C1507 C1508 1.502 . S
C1507 C1509 1.561 . S
C1507 C1510 1.526 . S
C1508 H1492 0.959 . S
C1508 H1493 0.959 . S
C1508 H1494 0.961 . S
C1508 C1507 1.502 . S
C1509 H1495 0.960 . S
C1509 H1496 0.961 . S
C1509 H1497 0.959 . S
C1509 C1507 1.561 . S
C1510 C1507 1.526 . S
C1510 C1511 1.396 . S
C1510 C1515 1.390 . S
C1511 C1505 1.465 . S
C1511 C1510 1.396 . S
C1511 C1512 1.399 . S
C1512 H1498 0.929 . S
C1512 C1511 1.399 . S
C1512 C1513 1.385 . S
C1513 H1499 0.931 1_655 S
C1513 C1512 1.385 . S
C1513 C1514 1.389 . S
C1514 C1513 1.389 . S
C1514 C1515 1.387 . S
C1515 H1500 0.930 . S
C1515 C1510 1.390 . S
C1515 C1514 1.387 . S
H1516 C1528 0.930 . S
H1517 C1530 0.930 . S
H1518 C1531 0.930 . S
H1519 C1535 0.959 . S
H1520 C1535 0.959 . S
H1521 C1535 0.961 . S
H1522 C1536 0.960 . S
H1523 C1536 0.961 . S
H1524 C1536 0.959 . S
H1525 C1539 0.929 . S
H1526 C1540 0.931 . S
H1527 C1542 0.930 . S
C1528 H1516 0.930 . S
C1528 C1529 1.399 . S
C1528 C1533 1.399 . S
C1529 C1528 1.399 . S
C1529 C1530 1.376 . S
C1530 H1517 0.930 . S
C1530 C1529 1.376 . S
C1530 C1531 1.388 . S
C1531 H1518 0.930 . S
C1531 C1530 1.388 . S
C1531 C1532 1.390 . S
C1532 C1531 1.390 . S
C1532 C1533 1.394 . S
C1532 C1538 1.465 . S
C1533 C1528 1.399 . S
C1533 C1532 1.394 . S
C1533 C1534 1.516 . S
C1534 C1533 1.516 . S
C1534 C1535 1.502 . S
C1534 C1536 1.561 . S
C1534 C1537 1.526 . S
C1535 H1519 0.959 . S
C1535 H1520 0.959 . S
C1535 H1521 0.961 . S
C1535 C1534 1.502 . S
C1536 H1522 0.960 . S
C1536 H1523 0.961 . S
C1536 H1524 0.959 . S
C1536 C1534 1.561 . S
C1537 C1534 1.526 . S
C1537 C1538 1.396 . S
C1537 C1542 1.390 . S
C1538 C1532 1.465 . S
C1538 C1537 1.396 . S
C1538 C1539 1.399 . S
C1539 H1525 0.929 . S
C1539 C1538 1.399 . S
C1539 C1540 1.385 . S
C1540 H1526 0.931 . S
C1540 C1539 1.385 . S
C1540 C1541 1.389 . S
C1541 C1540 1.389 . S
C1541 C1542 1.387 . S
C1542 H1527 0.930 . S
C1542 C1537 1.390 . S
C1542 C1541 1.387 . S
H1543 C1555 0.930 . S
H1544 C1557 0.930 . S
H1545 C1558 0.930 . S
H1546 C1562 0.959 . S
H1547 C1562 0.959 . S
H1548 C1562 0.961 . S
H1549 C1563 0.960 . S
H1550 C1563 0.961 . S
H1551 C1563 0.959 . S
H1552 C1566 0.929 . S
H1553 C1567 0.931 . S
H1554 C1569 0.930 . S
C1555 H1543 0.930 . S
C1555 C1556 1.399 . S
C1555 C1560 1.399 . S
C1556 C1555 1.399 . S
C1556 C1557 1.376 . S
C1557 H1544 0.930 . S
C1557 C1556 1.376 . S
C1557 C1558 1.388 . S
C1558 H1545 0.930 . S
C1558 C1557 1.388 . S
C1558 C1559 1.390 . S
C1559 C1558 1.390 . S
C1559 C1560 1.394 . S
C1559 C1565 1.465 . S
C1560 C1555 1.399 . S
C1560 C1559 1.394 . S
C1560 C1561 1.516 . S
C1561 C1560 1.516 . S
C1561 C1562 1.502 . S
C1561 C1563 1.561 . S
C1561 C1564 1.526 . S
C1562 H1546 0.959 . S
C1562 H1547 0.959 . S
C1562 H1548 0.961 . S
C1562 C1561 1.502 . S
C1563 H1549 0.960 . S
C1563 H1550 0.961 . S
C1563 H1551 0.959 . S
C1563 C1561 1.561 . S
C1564 C1561 1.526 . S
C1564 C1565 1.396 . S
C1564 C1569 1.390 . S
C1565 C1559 1.465 . S
C1565 C1564 1.396 . S
C1565 C1566 1.399 . S
C1566 H1552 0.929 . S
C1566 C1565 1.399 . S
C1566 C1567 1.385 . S
C1567 H1553 0.931 . S
C1567 C1566 1.385 . S
C1567 C1568 1.389 . S
C1568 C1567 1.389 . S
C1568 C1569 1.387 . S
C1569 H1554 0.930 . S
C1569 C1564 1.390 . S
C1569 C1568 1.387 . S
H1570 C1582 0.930 . S
H1571 C1584 0.930 . S
H1572 C1585 0.930 . S
H1573 C1589 0.959 . S
H1574 C1589 0.959 . S
H1575 C1589 0.961 . S
H1576 C1590 0.960 . S
H1577 C1590 0.961 . S
H1578 C1590 0.959 . S
H1579 C1593 0.929 . S
H1580 C1594 0.931 . S
H1581 C1596 0.930 . S
C1582 H1570 0.930 . S
C1582 C1583 1.399 . S
C1582 C1587 1.399 . S
C1583 C1582 1.399 . S
C1583 C1584 1.376 . S
C1584 H1571 0.930 . S
C1584 C1583 1.376 . S
C1584 C1585 1.388 . S
C1585 H1572 0.930 . S
C1585 C1584 1.388 . S
C1585 C1586 1.390 . S
C1586 C1585 1.390 . S
C1586 C1587 1.394 . S
C1586 C1592 1.465 . S
C1587 C1582 1.399 . S
C1587 C1586 1.394 . S
C1587 C1588 1.516 . S
C1588 C1587 1.516 . S
C1588 C1589 1.502 . S
C1588 C1590 1.561 . S
C1588 C1591 1.526 . S
C1589 H1573 0.959 . S
C1589 H1574 0.959 . S
C1589 H1575 0.961 . S
C1589 C1588 1.502 . S
C1590 H1576 0.960 . S
C1590 H1577 0.961 . S
C1590 H1578 0.959 . S
C1590 C1588 1.561 . S
C1591 C1588 1.526 . S
C1591 C1592 1.396 . S
C1591 C1596 1.390 . S
C1592 C1586 1.465 . S
C1592 C1591 1.396 . S
C1592 C1593 1.399 . S
C1593 H1579 0.929 . S
C1593 C1592 1.399 . S
C1593 C1594 1.385 . S
C1594 H1580 0.931 . S
C1594 C1593 1.385 . S
C1594 C1595 1.389 . S
C1595 C1594 1.389 . S
C1595 C1596 1.387 . S
C1596 H1581 0.930 . S
C1596 C1591 1.390 . S
C1596 C1595 1.387 . S
H1597 C1609 0.930 . S
H1598 C1611 0.930 . S
H1599 C1612 0.930 . S
H1600 C1616 0.959 . S
H1601 C1616 0.959 . S
H1602 C1616 0.961 . S
H1603 C1617 0.960 . S
H1604 C1617 0.961 . S
H1605 C1617 0.959 . S
H1606 C1620 0.929 . S
H1607 C1621 0.931 . S
H1608 C1623 0.930 . S
C1609 H1597 0.930 . S
C1609 C1610 1.399 . S
C1609 C1614 1.399 . S
C1610 C1609 1.399 . S
C1610 C1611 1.376 . S
C1611 H1598 0.930 . S
C1611 C1610 1.376 . S
C1611 C1612 1.388 . S
C1612 H1599 0.930 . S
C1612 C1611 1.388 . S
C1612 C1613 1.390 . S
C1613 C1612 1.390 . S
C1613 C1614 1.394 . S
C1613 C1619 1.465 . S
C1614 C1609 1.399 . S
C1614 C1613 1.394 . S
C1614 C1615 1.516 . S
C1615 C1614 1.516 . S
C1615 C1616 1.502 . S
C1615 C1617 1.561 . S
C1615 C1618 1.526 . S
C1616 H1600 0.959 . S
C1616 H1601 0.959 . S
C1616 H1602 0.961 . S
C1616 C1615 1.502 . S
C1617 H1603 0.960 . S
C1617 H1604 0.961 . S
C1617 H1605 0.959 . S
C1617 C1615 1.561 . S
C1618 C1615 1.526 . S
C1618 C1619 1.396 . S
C1618 C1623 1.390 . S
C1619 C1613 1.465 . S
C1619 C1618 1.396 . S
C1619 C1620 1.399 . S
C1620 H1606 0.929 . S
C1620 C1619 1.399 . S
C1620 C1621 1.385 . S
C1621 H1607 0.931 . S
C1621 C1620 1.385 . S
C1621 C1622 1.389 . S
C1622 C1621 1.389 . S
C1622 C1623 1.387 . S
C1623 H1608 0.930 . S
C1623 C1618 1.390 . S
C1623 C1622 1.387 . S
H1624 C1636 0.930 . S
H1625 C1638 0.930 . S
H1626 C1639 0.930 . S
H1627 C1643 0.959 . S
H1628 C1643 0.959 . S
H1629 C1643 0.961 . S
H1630 C1644 0.960 . S
H1631 C1644 0.961 . S
H1632 C1644 0.959 . S
H1633 C1647 0.928 1_556 S
H1634 C1648 0.931 1_556 S
H1635 C1650 0.930 . S
C1636 H1624 0.930 . S
C1636 C1637 1.399 . S
C1636 C1641 1.399 . S
C1637 C1636 1.399 . S
C1637 C1638 1.376 . S
C1638 H1625 0.930 . S
C1638 C1637 1.376 . S
C1638 C1639 1.388 . S
C1639 H1626 0.930 . S
C1639 C1638 1.388 . S
C1639 C1640 1.390 . S
C1640 C1639 1.390 . S
C1640 C1641 1.394 . S
C1640 C1646 1.465 . S
C1641 C1636 1.399 . S
C1641 C1640 1.394 . S
C1641 C1642 1.516 . S
C1642 C1641 1.516 . S
C1642 C1643 1.502 . S
C1642 C1644 1.561 . S
C1642 C1645 1.526 . S
C1643 H1627 0.959 . S
C1643 H1628 0.959 . S
C1643 H1629 0.961 . S
C1643 C1642 1.502 . S
C1644 H1630 0.960 . S
C1644 H1631 0.961 . S
C1644 H1632 0.959 . S
C1644 C1642 1.561 . S
C1645 C1642 1.526 . S
C1645 C1646 1.396 . S
C1645 C1650 1.390 . S
C1646 C1640 1.465 . S
C1646 C1645 1.396 . S
C1646 C1647 1.399 . S
C1647 H1633 0.928 1_554 S
C1647 C1646 1.399 . S
C1647 C1648 1.385 . S
C1648 H1634 0.931 1_554 S
C1648 C1647 1.385 . S
C1648 C1649 1.389 . S
C1649 C1648 1.389 . S
C1649 C1650 1.387 . S
C1650 H1635 0.930 . S
C1650 C1645 1.390 . S
C1650 C1649 1.387 . S
H1651 C1663 0.930 . S
H1652 C1665 0.930 . S
H1653 C1666 0.930 . S
H1654 C1670 0.959 . S
H1655 C1670 0.959 . S
H1656 C1670 0.961 . S
H1657 C1671 0.960 . S
H1658 C1671 0.961 . S
H1659 C1671 0.959 . S
H1660 C1674 0.929 . S
H1661 C1675 0.931 . S
H1662 C1677 0.930 . S
C1663 H1651 0.930 . S
C1663 C1664 1.399 . S
C1663 C1668 1.399 . S
C1664 C1663 1.399 . S
C1664 C1665 1.376 . S
C1665 H1652 0.930 . S
C1665 C1664 1.376 . S
C1665 C1666 1.388 . S
C1666 H1653 0.930 . S
C1666 C1665 1.388 . S
C1666 C1667 1.390 . S
C1667 C1666 1.390 . S
C1667 C1668 1.394 . S
C1667 C1673 1.465 . S
C1668 C1663 1.399 . S
C1668 C1667 1.394 . S
C1668 C1669 1.516 . S
C1669 C1668 1.516 . S
C1669 C1670 1.502 . S
C1669 C1671 1.561 . S
C1669 C1672 1.526 . S
C1670 H1654 0.959 . S
C1670 H1655 0.959 . S
C1670 H1656 0.961 . S
C1670 C1669 1.502 . S
C1671 H1657 0.960 . S
C1671 H1658 0.961 . S
C1671 H1659 0.959 . S
C1671 C1669 1.561 . S
C1672 C1669 1.526 . S
C1672 C1673 1.396 . S
C1672 C1677 1.390 . S
C1673 C1667 1.465 . S
C1673 C1672 1.396 . S
C1673 C1674 1.399 . S
C1674 H1660 0.929 . S
C1674 C1673 1.399 . S
C1674 C1675 1.385 . S
C1675 H1661 0.931 . S
C1675 C1674 1.385 . S
C1675 C1676 1.389 . S
C1676 C1675 1.389 . S
C1676 C1677 1.387 . S
C1677 H1662 0.930 . S
C1677 C1672 1.390 . S
C1677 C1676 1.387 . S
H1678 C1690 0.930 . S
H1679 C1692 0.930 . S
H1680 C1693 0.930 . S
H1681 C1697 0.959 . S
H1682 C1697 0.959 . S
H1683 C1697 0.961 . S
H1684 C1698 0.960 . S
H1685 C1698 0.961 . S
H1686 C1698 0.959 . S
H1687 C1701 0.929 . S
H1688 C1702 0.931 . S
H1689 C1704 0.930 . S
C1690 H1678 0.930 . S
C1690 C1691 1.399 . S
C1690 C1695 1.399 . S
C1691 C1690 1.399 . S
C1691 C1692 1.376 . S
C1692 H1679 0.930 . S
C1692 C1691 1.376 . S
C1692 C1693 1.388 . S
C1693 H1680 0.930 . S
C1693 C1692 1.388 . S
C1693 C1694 1.390 . S
C1694 C1693 1.390 . S
C1694 C1695 1.394 . S
C1694 C1700 1.465 . S
C1695 C1690 1.399 . S
C1695 C1694 1.394 . S
C1695 C1696 1.516 . S
C1696 C1695 1.516 . S
C1696 C1697 1.502 . S
C1696 C1698 1.561 . S
C1696 C1699 1.526 . S
C1697 H1681 0.959 . S
C1697 H1682 0.959 . S
C1697 H1683 0.961 . S
C1697 C1696 1.502 . S
C1698 H1684 0.960 . S
C1698 H1685 0.961 . S
C1698 H1686 0.959 . S
C1698 C1696 1.561 . S
C1699 C1696 1.526 . S
C1699 C1700 1.396 . S
C1699 C1704 1.390 . S
C1700 C1694 1.465 . S
C1700 C1699 1.396 . S
C1700 C1701 1.399 . S
C1701 H1687 0.929 . S
C1701 C1700 1.399 . S
C1701 C1702 1.385 . S
C1702 H1688 0.931 . S
C1702 C1701 1.385 . S
C1702 C1703 1.389 . S
C1703 C1702 1.389 . S
C1703 C1704 1.387 . S
C1704 H1689 0.930 . S
C1704 C1699 1.390 . S
C1704 C1703 1.387 . S
H1705 C1717 0.930 . S
H1706 C1719 0.930 . S
H1707 C1720 0.930 . S
H1708 C1724 0.959 . S
H1709 C1724 0.959 . S
H1710 C1724 0.961 . S
H1711 C1725 0.960 . S
H1712 C1725 0.961 . S
H1713 C1725 0.959 . S
H1714 C1728 0.929 . S
H1715 C1729 0.931 . S
H1716 C1731 0.930 . S
C1717 H1705 0.930 . S
C1717 C1718 1.399 . S
C1717 C1722 1.399 . S
C1718 C1717 1.399 . S
C1718 C1719 1.376 . S
C1719 H1706 0.930 . S
C1719 C1718 1.376 . S
C1719 C1720 1.388 . S
C1720 H1707 0.930 . S
C1720 C1719 1.388 . S
C1720 C1721 1.390 . S
C1721 C1720 1.390 . S
C1721 C1722 1.394 . S
C1721 C1727 1.465 . S
C1722 C1717 1.399 . S
C1722 C1721 1.394 . S
C1722 C1723 1.516 . S
C1723 C1722 1.516 . S
C1723 C1724 1.502 . S
C1723 C1725 1.561 . S
C1723 C1726 1.526 . S
C1724 H1708 0.959 . S
C1724 H1709 0.959 . S
C1724 H1710 0.961 . S
C1724 C1723 1.502 . S
C1725 H1711 0.960 . S
C1725 H1712 0.961 . S
C1725 H1713 0.959 . S
C1725 C1723 1.561 . S
C1726 C1723 1.526 . S
C1726 C1727 1.396 . S
C1726 C1731 1.390 . S
C1727 C1721 1.465 . S
C1727 C1726 1.396 . S
C1727 C1728 1.399 . S
C1728 H1714 0.929 . S
C1728 C1727 1.399 . S
C1728 C1729 1.385 . S
C1729 H1715 0.931 . S
C1729 C1728 1.385 . S
C1729 C1730 1.389 . S
C1730 C1729 1.389 . S
C1730 C1731 1.387 . S
C1731 H1716 0.930 . S
C1731 C1726 1.390 . S
C1731 C1730 1.387 . S
H1732 C1744 0.930 . S
H1733 C1746 0.930 . S
H1734 C1747 0.930 . S
H1735 C1751 0.959 . S
H1736 C1751 0.959 . S
H1737 C1751 0.961 . S
H1738 C1752 0.960 . S
H1739 C1752 0.961 . S
H1740 C1752 0.959 . S
H1741 C1755 0.929 . S
H1742 C1756 0.931 . S
H1743 C1758 0.930 . S
C1744 H1732 0.930 . S
C1744 C1745 1.399 . S
C1744 C1749 1.399 . S
C1745 C1744 1.399 . S
C1745 C1746 1.376 . S
C1746 H1733 0.930 . S
C1746 C1745 1.376 . S
C1746 C1747 1.388 . S
C1747 H1734 0.930 . S
C1747 C1746 1.388 . S
C1747 C1748 1.390 . S
C1748 C1747 1.390 . S
C1748 C1749 1.394 . S
C1748 C1754 1.465 . S
C1749 C1744 1.399 . S
C1749 C1748 1.394 . S
C1749 C1750 1.516 . S
C1750 C1749 1.516 . S
C1750 C1751 1.502 . S
C1750 C1752 1.561 . S
C1750 C1753 1.526 . S
C1751 H1735 0.959 . S
C1751 H1736 0.959 . S
C1751 H1737 0.961 . S
C1751 C1750 1.502 . S
C1752 H1738 0.960 . S
C1752 H1739 0.961 . S
C1752 H1740 0.959 . S
C1752 C1750 1.561 . S
C1753 C1750 1.526 . S
C1753 C1754 1.396 . S
C1753 C1758 1.390 . S
C1754 C1748 1.465 . S
C1754 C1753 1.396 . S
C1754 C1755 1.399 . S
C1755 H1741 0.929 . S
C1755 C1754 1.399 . S
C1755 C1756 1.385 . S
C1756 H1742 0.931 . S
C1756 C1755 1.385 . S
C1756 C1757 1.389 . S
C1757 C1756 1.389 . S
C1757 C1758 1.387 . S
C1758 H1743 0.930 . S
C1758 C1753 1.390 . S
C1758 C1757 1.387 . S
H1759 C1771 0.930 . S
H1760 C1773 0.930 . S
H1761 C1774 0.930 . S
H1762 C1778 0.959 . S
H1763 C1778 0.959 . S
H1764 C1778 0.961 . S
H1765 C1779 0.960 . S
H1766 C1779 0.961 . S
H1767 C1779 0.959 . S
H1768 C1782 0.929 . S
H1769 C1783 0.931 . S
H1770 C1785 0.930 . S
C1771 H1759 0.930 . S
C1771 C1772 1.399 . S
C1771 C1776 1.399 . S
C1772 C1771 1.399 . S
C1772 C1773 1.376 . S
C1773 H1760 0.930 . S
C1773 C1772 1.376 . S
C1773 C1774 1.388 . S
C1774 H1761 0.930 . S
C1774 C1773 1.388 . S
C1774 C1775 1.390 . S
C1775 C1774 1.390 . S
C1775 C1776 1.394 . S
C1775 C1781 1.465 . S
C1776 C1771 1.399 . S
C1776 C1775 1.394 . S
C1776 C1777 1.516 . S
C1777 C1776 1.516 . S
C1777 C1778 1.502 . S
C1777 C1779 1.561 . S
C1777 C1780 1.526 . S
C1778 H1762 0.959 . S
C1778 H1763 0.959 . S
C1778 H1764 0.961 . S
C1778 C1777 1.502 . S
C1779 H1765 0.960 . S
C1779 H1766 0.961 . S
C1779 H1767 0.959 . S
C1779 C1777 1.561 . S
C1780 C1777 1.526 . S
C1780 C1781 1.396 . S
C1780 C1785 1.390 . S
C1781 C1775 1.465 . S
C1781 C1780 1.396 . S
C1781 C1782 1.399 . S
C1782 H1768 0.929 . S
C1782 C1781 1.399 . S
C1782 C1783 1.385 . S
C1783 H1769 0.931 . S
C1783 C1782 1.385 . S
C1783 C1784 1.389 . S
C1784 C1783 1.389 . S
C1784 C1785 1.387 . S
C1785 H1770 0.930 . S
C1785 C1780 1.390 . S
C1785 C1784 1.387 . S
H1786 C1798 0.930 . S
H1787 C1800 0.930 . S
H1788 C1801 0.930 . S
H1789 C1805 0.959 . S
H1790 C1805 0.959 . S
H1791 C1805 0.961 . S
H1792 C1806 0.960 . S
H1793 C1806 0.961 . S
H1794 C1806 0.959 . S
H1795 C1809 0.929 . S
H1796 C1810 0.928 . S
H1797 C1812 0.930 . S
C1798 H1786 0.930 . S
C1798 C1799 1.399 . S
C1798 C1803 1.399 . S
C1799 C1798 1.399 . S
C1799 C1800 1.376 . S
C1800 H1787 0.930 . S
C1800 C1799 1.376 . S
C1800 C1801 1.388 . S
C1801 H1788 0.930 . S
C1801 C1800 1.388 . S
C1801 C1802 1.390 . S
C1802 C1801 1.390 . S
C1802 C1803 1.394 . S
C1802 C1808 1.465 . S
C1803 C1798 1.399 . S
C1803 C1802 1.394 . S
C1803 C1804 1.516 . S
C1804 C1803 1.516 . S
C1804 C1805 1.502 . S
C1804 C1806 1.561 . S
C1804 C1807 1.526 . S
C1805 H1789 0.959 . S
C1805 H1790 0.959 . S
C1805 H1791 0.961 . S
C1805 C1804 1.502 . S
C1806 H1792 0.960 . S
C1806 H1793 0.961 . S
C1806 H1794 0.959 . S
C1806 C1804 1.561 . S
C1807 C1804 1.526 . S
C1807 C1808 1.396 . S
C1807 C1812 1.390 . S
C1808 C1802 1.465 . S
C1808 C1807 1.396 . S
C1808 C1809 1.399 . S
C1809 H1795 0.929 . S
C1809 C1808 1.399 . S
C1809 C1810 1.385 . S
C1810 H1796 0.928 . S
C1810 C1809 1.385 . S
C1810 C1811 1.389 . S
C1811 C1810 1.389 . S
C1811 C1812 1.387 . S
C1812 H1797 0.930 . S
C1812 C1807 1.390 . S
C1812 C1811 1.387 . S
H1813 C1825 0.930 . S
H1814 C1827 0.930 . S
H1815 C1828 0.930 . S
H1816 C1832 0.959 . S
H1817 C1832 0.959 . S
H1818 C1832 0.961 . S
H1819 C1833 0.960 . S
H1820 C1833 0.961 . S
H1821 C1833 0.959 . S
H1822 C1836 0.929 . S
H1823 C1837 0.931 . S
H1824 C1839 0.930 . S
C1825 H1813 0.930 . S
C1825 C1826 1.399 . S
C1825 C1830 1.399 . S
C1826 C1825 1.399 . S
C1826 C1827 1.376 . S
C1827 H1814 0.930 . S
C1827 C1826 1.376 . S
C1827 C1828 1.388 . S
C1828 H1815 0.930 . S
C1828 C1827 1.388 . S
C1828 C1829 1.390 . S
C1829 C1828 1.390 . S
C1829 C1830 1.394 . S
C1829 C1835 1.465 . S
C1830 C1825 1.399 . S
C1830 C1829 1.394 . S
C1830 C1831 1.516 . S
C1831 C1830 1.516 . S
C1831 C1832 1.502 . S
C1831 C1833 1.561 . S
C1831 C1834 1.526 . S
C1832 H1816 0.959 . S
C1832 H1817 0.959 . S
C1832 H1818 0.961 . S
C1832 C1831 1.502 . S
C1833 H1819 0.960 . S
C1833 H1820 0.961 . S
C1833 H1821 0.959 . S
C1833 C1831 1.561 . S
C1834 C1831 1.526 . S
C1834 C1835 1.396 . S
C1834 C1839 1.390 . S
C1835 C1829 1.465 . S
C1835 C1834 1.396 . S
C1835 C1836 1.399 . S
C1836 H1822 0.929 . S
C1836 C1835 1.399 . S
C1836 C1837 1.385 . S
C1837 H1823 0.931 . S
C1837 C1836 1.385 . S
C1837 C1838 1.389 . S
C1838 C1837 1.389 . S
C1838 C1839 1.387 . S
C1839 H1824 0.930 . S
C1839 C1834 1.390 . S
C1839 C1838 1.387 . S
H1840 C1852 0.930 . S
H1841 C1854 0.930 . S
H1842 C1855 0.930 . S
H1843 C1859 0.959 . S
H1844 C1859 0.959 . S
H1845 C1859 0.961 . S
H1846 C1860 0.960 . S
H1847 C1860 0.961 . S
H1848 C1860 0.959 . S
H1849 C1863 0.929 . S
H1850 C1864 0.931 . S
H1851 C1866 0.930 1_565 S
C1852 H1840 0.930 . S
C1852 C1853 1.399 1_565 S
C1852 C1857 1.399 1_565 S
C1853 C1852 1.399 1_545 S
C1853 C1854 1.376 . S
C1854 H1841 0.930 . S
C1854 C1853 1.376 . S
C1854 C1855 1.388 . S
C1855 H1842 0.930 . S
C1855 C1854 1.388 . S
C1855 C1856 1.390 . S
C1856 C1855 1.390 . S
C1856 C1857 1.394 . S
C1856 C1862 1.465 . S
C1857 C1852 1.399 1_545 S
C1857 C1856 1.394 . S
C1857 C1858 1.516 1_545 S
C1858 C1857 1.516 1_565 S
C1858 C1859 1.502 . S
C1858 C1860 1.561 . S
C1858 C1861 1.526 1_565 S
C1859 H1843 0.959 . S
C1859 H1844 0.959 . S
C1859 H1845 0.961 . S
C1859 C1858 1.502 . S
C1860 H1846 0.960 . S
C1860 H1847 0.961 . S
C1860 H1848 0.959 . S
C1860 C1858 1.561 . S
C1861 C1858 1.526 1_545 S
C1861 C1862 1.396 . S
C1861 C1866 1.390 . S
C1862 C1856 1.465 . S
C1862 C1861 1.396 . S
C1862 C1863 1.399 . S
C1863 H1849 0.929 . S
C1863 C1862 1.399 . S
C1863 C1864 1.385 . S
C1864 H1850 0.931 . S
C1864 C1863 1.385 . S
C1864 C1865 1.389 . S
C1865 C1864 1.389 . S
C1865 C1866 1.387 . S
C1866 H1851 0.930 1_545 S
C1866 C1861 1.390 . S
C1866 C1865 1.387 . S
H1867 C1879 0.930 . S
H1868 C1881 0.930 . S
H1869 C1882 0.930 . S
H1870 C1886 0.959 . S
H1871 C1886 0.959 . S
H1872 C1886 0.961 . S
H1873 C1887 0.960 . S
H1874 C1887 0.961 . S
H1875 C1887 0.959 . S
H1876 C1890 0.929 . S
H1877 C1891 0.931 . S
H1878 C1893 0.930 . S
C1879 H1867 0.930 . S
C1879 C1880 1.399 . S
C1879 C1884 1.399 . S
C1880 C1879 1.399 . S
C1880 C1881 1.376 . S
C1881 H1868 0.930 . S
C1881 C1880 1.376 . S
C1881 C1882 1.388 . S
C1882 H1869 0.930 . S
C1882 C1881 1.388 . S
C1882 C1883 1.390 . S
C1883 C1882 1.390 . S
C1883 C1884 1.394 . S
C1883 C1889 1.465 . S
C1884 C1879 1.399 . S
C1884 C1883 1.394 . S
C1884 C1885 1.516 . S
C1885 C1884 1.516 . S
C1885 C1886 1.502 . S
C1885 C1887 1.561 . S
C1885 C1888 1.526 . S
C1886 H1870 0.959 . S
C1886 H1871 0.959 . S
C1886 H1872 0.961 . S
C1886 C1885 1.502 . S
C1887 H1873 0.960 . S
C1887 H1874 0.961 . S
C1887 H1875 0.959 . S
C1887 C1885 1.561 . S
C1888 C1885 1.526 . S
C1888 C1889 1.396 . S
C1888 C1893 1.390 . S
C1889 C1883 1.465 . S
C1889 C1888 1.396 . S
C1889 C1890 1.399 . S
C1890 H1876 0.929 . S
C1890 C1889 1.399 . S
C1890 C1891 1.385 . S
C1891 H1877 0.931 . S
C1891 C1890 1.385 . S
C1891 C1892 1.389 . S
C1892 C1891 1.389 . S
C1892 C1893 1.387 . S
C1893 H1878 0.930 . S
C1893 C1888 1.390 . S
C1893 C1892 1.387 . S
H1894 C1906 0.958 . S
H1895 C1908 0.930 . S
H1896 C1909 0.930 . S
H1897 C1913 0.959 1_545 S
H1898 C1913 0.959 . S
H1899 C1913 0.961 . S
H1900 C1914 0.960 . S
H1901 C1914 0.961 . S
H1902 C1914 0.959 . S
H1903 C1917 0.929 . S
H1904 C1918 0.931 . S
H1905 C1920 0.943 . S
C1906 H1894 0.958 . S
C1906 C1907 1.370 1_565 S
C1906 C1911 1.401 1_565 S
C1907 C1906 1.370 1_545 S
C1907 C1908 1.376 . S
C1908 H1895 0.930 . S
C1908 C1907 1.376 . S
C1908 C1909 1.388 . S
C1909 H1896 0.930 . S
C1909 C1908 1.388 . S
C1909 C1910 1.390 . S
C1910 C1909 1.390 . S
C1910 C1911 1.394 . S
C1910 C1916 1.465 . S
C1911 C1906 1.401 1_545 S
C1911 C1910 1.394 . S
C1911 C1912 1.516 1_545 S
C1912 C1911 1.516 1_565 S
C1912 C1913 1.502 . S
C1912 C1914 1.561 . S
C1912 C1915 1.526 1_565 S
C1913 H1897 0.959 1_565 S
C1913 H1898 0.959 . S
C1913 H1899 0.961 . S
C1913 C1912 1.502 . S
C1914 H1900 0.960 . S
C1914 H1901 0.961 . S
C1914 H1902 0.959 . S
C1914 C1912 1.561 . S
C1915 C1912 1.526 1_545 S
C1915 C1916 1.396 . S
C1915 C1920 1.390 . S
C1916 C1910 1.465 . S
C1916 C1915 1.396 . S
C1916 C1917 1.399 . S
C1917 H1903 0.929 . S
C1917 C1916 1.399 . S
C1917 C1918 1.385 . S
C1918 H1904 0.931 . S
C1918 C1917 1.385 . S
C1918 C1919 1.389 . S
C1919 C1918 1.389 . S
C1919 C1920 1.387 . S
C1920 H1905 0.943 . S
C1920 C1915 1.390 . S
C1920 C1919 1.387 . S
H1921 C1933 0.930 . S
H1922 C1935 0.930 . S
H1923 C1936 0.930 . S
H1924 C1940 0.959 . S
H1925 C1940 0.959 . S
H1926 C1940 0.961 . S
H1927 C1941 0.960 . S
H1928 C1941 0.961 . S
H1929 C1941 0.959 . S
H1930 C1944 0.929 . S
H1931 C1945 0.931 . S
H1932 C1947 0.930 . S
C1933 H1921 0.930 . S
C1933 C1934 1.399 . S
C1933 C1938 1.399 . S
C1934 C1933 1.399 . S
C1934 C1935 1.376 . S
C1935 H1922 0.930 . S
C1935 C1934 1.376 . S
C1935 C1936 1.388 . S
C1936 H1923 0.930 . S
C1936 C1935 1.388 . S
C1936 C1937 1.390 . S
C1937 C1936 1.390 . S
C1937 C1938 1.394 . S
C1937 C1943 1.465 . S
C1938 C1933 1.399 . S
C1938 C1937 1.394 . S
C1938 C1939 1.516 . S
C1939 C1938 1.516 . S
C1939 C1940 1.502 . S
C1939 C1941 1.561 . S
C1939 C1942 1.526 . S
C1940 H1924 0.959 . S
C1940 H1925 0.959 . S
C1940 H1926 0.961 . S
C1940 C1939 1.502 . S
C1941 H1927 0.960 . S
C1941 H1928 0.961 . S
C1941 H1929 0.959 . S
C1941 C1939 1.561 . S
C1942 C1939 1.526 . S
C1942 C1943 1.396 . S
C1942 C1947 1.390 . S
C1943 C1937 1.465 . S
C1943 C1942 1.396 . S
C1943 C1944 1.399 . S
C1944 H1930 0.929 . S
C1944 C1943 1.399 . S
C1944 C1945 1.385 . S
C1945 H1931 0.931 . S
C1945 C1944 1.385 . S
C1945 C1946 1.389 . S
C1946 C1945 1.389 . S
C1946 C1947 1.387 . S
C1947 H1932 0.930 . S
C1947 C1942 1.390 . S
C1947 C1946 1.387 . S
H1948 C1960 0.930 . S
H1949 C1962 0.930 . S
H1950 C1963 0.930 . S
H1951 C1967 0.959 . S
H1952 C1967 0.959 1_565 S
H1953 C1967 0.961 1_565 S
H1954 C1968 0.960 . S
H1955 C1968 0.961 . S
H1956 C1968 0.959 . S
H1957 C1971 0.929 . S
H1958 C1972 0.931 . S
H1959 C1974 0.930 . S
C1960 H1948 0.930 . S
C1960 C1961 1.399 1_565 S
C1960 C1965 1.399 1_565 S
C1961 C1960 1.399 1_545 S
C1961 C1962 1.376 . S
C1962 H1949 0.930 . S
C1962 C1961 1.376 . S
C1962 C1963 1.388 . S
C1963 H1950 0.930 . S
C1963 C1962 1.388 . S
C1963 C1964 1.390 . S
C1964 C1963 1.390 . S
C1964 C1965 1.394 . S
C1964 C1970 1.465 . S
C1965 C1960 1.399 1_545 S
C1965 C1964 1.394 . S
C1965 C1966 1.516 1_545 S
C1966 C1965 1.516 1_565 S
C1966 C1967 1.502 1_565 S
C1966 C1968 1.561 . S
C1966 C1969 1.526 1_565 S
C1967 H1951 0.959 . S
C1967 H1952 0.959 1_545 S
C1967 H1953 0.961 1_545 S
C1967 C1966 1.502 1_545 S
C1968 H1954 0.960 . S
C1968 H1955 0.961 . S
C1968 H1956 0.959 . S
C1968 C1966 1.561 . S
C1969 C1966 1.526 1_545 S
C1969 C1970 1.396 . S
C1969 C1974 1.390 . S
C1970 C1964 1.465 . S
C1970 C1969 1.396 . S
C1970 C1971 1.399 . S
C1971 H1957 0.929 . S
C1971 C1970 1.399 . S
C1971 C1972 1.385 . S
C1972 H1958 0.931 . S
C1972 C1971 1.385 . S
C1972 C1973 1.389 . S
C1973 C1972 1.389 . S
C1973 C1974 1.387 . S
C1974 H1959 0.930 . S
C1974 C1969 1.390 . S
C1974 C1973 1.387 . S
H1975 C1987 0.930 . S
H1976 C1989 0.930 . S
H1977 C1990 0.930 . S
H1978 C1994 0.959 . S
H1979 C1994 0.959 . S
H1980 C1994 0.961 . S
H1981 C1995 0.960 . S
H1982 C1995 0.961 . S
H1983 C1995 0.959 . S
H1984 C1998 0.929 . S
H1985 C1999 0.931 . S
H1986 C2001 0.930 . S
C1987 H1975 0.930 . S
C1987 C1988 1.399 . S
C1987 C1992 1.399 . S
C1988 C1987 1.399 . S
C1988 C1989 1.376 . S
C1989 H1976 0.930 . S
C1989 C1988 1.376 . S
C1989 C1990 1.388 . S
C1990 H1977 0.930 . S
C1990 C1989 1.388 . S
C1990 C1991 1.390 . S
C1991 C1990 1.390 . S
C1991 C1992 1.394 . S
C1991 C1997 1.465 . S
C1992 C1987 1.399 . S
C1992 C1991 1.394 . S
C1992 C1993 1.516 . S
C1993 C1992 1.516 . S
C1993 C1994 1.502 . S
C1993 C1995 1.561 . S
C1993 C1996 1.526 . S
C1994 H1978 0.959 . S
C1994 H1979 0.959 . S
C1994 H1980 0.961 . S
C1994 C1993 1.502 . S
C1995 H1981 0.960 . S
C1995 H1982 0.961 . S
C1995 H1983 0.959 . S
C1995 C1993 1.561 . S
C1996 C1993 1.526 . S
C1996 C1997 1.396 . S
C1996 C2001 1.390 . S
C1997 C1991 1.465 . S
C1997 C1996 1.396 . S
C1997 C1998 1.399 . S
C1998 H1984 0.929 . S
C1998 C1997 1.399 . S
C1998 C1999 1.385 . S
C1999 H1985 0.931 . S
C1999 C1998 1.385 . S
C1999 C2000 1.389 . S
C2000 C1999 1.389 . S
C2000 C2001 1.387 . S
C2001 H1986 0.930 . S
C2001 C1996 1.390 . S
C2001 C2000 1.387 . S
H2002 C2014 0.930 . S
H2003 C2016 0.930 . S
H2004 C2017 0.930 . S
H2005 C2021 0.959 . S
H2006 C2021 0.959 . S
H2007 C2021 0.961 . S
H2008 C2022 0.960 . S
H2009 C2022 0.961 . S
H2010 C2022 0.959 1_545 S
H2011 C2025 0.929 . S
H2012 C2026 0.930 1_545 S
H2013 C2028 0.930 . S
C2014 H2002 0.930 . S
C2014 C2015 1.399 1_565 S
C2014 C2019 1.399 . S
C2015 C2014 1.399 1_545 S
C2015 C2016 1.376 . S
C2016 H2003 0.930 . S
C2016 C2015 1.376 . S
C2016 C2017 1.388 . S
C2017 H2004 0.930 . S
C2017 C2016 1.388 . S
C2017 C2018 1.390 . S
C2018 C2017 1.390 . S
C2018 C2019 1.394 1_545 S
C2018 C2024 1.462 1_545 S
C2019 C2014 1.399 . S
C2019 C2018 1.394 1_565 S
C2019 C2020 1.516 . S
C2020 C2019 1.516 . S
C2020 C2021 1.502 . S
C2020 C2022 1.561 . S
C2020 C2023 1.526 . S
C2021 H2005 0.959 . S
C2021 H2006 0.959 . S
C2021 H2007 0.961 . S
C2021 C2020 1.502 . S
C2022 H2008 0.960 . S
C2022 H2009 0.961 . S
C2022 H2010 0.959 1_565 S
C2022 C2020 1.561 . S
C2023 C2020 1.526 . S
C2023 C2024 1.409 . S
C2023 C2028 1.390 . S
C2024 C2018 1.462 1_565 S
C2024 C2023 1.409 . S
C2024 C2025 1.394 1_565 S
C2025 H2011 0.929 . S
C2025 C2024 1.394 1_545 S
C2025 C2026 1.383 1_545 S
C2026 H2012 0.930 1_565 S
C2026 C2025 1.383 1_565 S
C2026 C2027 1.392 . S
C2027 C2026 1.392 . S
C2027 C2028 1.387 . S
C2028 H2013 0.930 . S
C2028 C2023 1.390 . S
C2028 C2027 1.387 . S
H2029 C2041 0.930 . S
H2030 C2043 0.930 . S
H2031 C2044 0.930 . S
H2032 C2048 0.959 . S
H2033 C2048 0.959 . S
H2034 C2048 0.961 . S
H2035 C2049 0.960 . S
H2036 C2049 0.961 . S
H2037 C2049 0.959 . S
H2038 C2052 0.929 . S
H2039 C2053 0.931 . S
H2040 C2055 0.930 . S
C2041 H2029 0.930 . S
C2041 C2042 1.399 . S
C2041 C2046 1.399 . S
C2042 C2041 1.399 . S
C2042 C2043 1.376 . S
C2043 H2030 0.930 . S
C2043 C2042 1.376 . S
C2043 C2044 1.388 . S
C2044 H2031 0.930 . S
C2044 C2043 1.388 . S
C2044 C2045 1.390 . S
C2045 C2044 1.390 . S
C2045 C2046 1.394 . S
C2045 C2051 1.465 . S
C2046 C2041 1.399 . S
C2046 C2045 1.394 . S
C2046 C2047 1.516 . S
C2047 C2046 1.516 . S
C2047 C2048 1.502 . S
C2047 C2049 1.561 . S
C2047 C2050 1.526 . S
C2048 H2032 0.959 . S
C2048 H2033 0.959 . S
C2048 H2034 0.961 . S
C2048 C2047 1.502 . S
C2049 H2035 0.960 . S
C2049 H2036 0.961 . S
C2049 H2037 0.959 . S
C2049 C2047 1.561 . S
C2050 C2047 1.526 . S
C2050 C2051 1.396 . S
C2050 C2055 1.390 . S
C2051 C2045 1.465 . S
C2051 C2050 1.396 . S
C2051 C2052 1.399 . S
C2052 H2038 0.929 . S
C2052 C2051 1.399 . S
C2052 C2053 1.385 . S
C2053 H2039 0.931 . S
C2053 C2052 1.385 . S
C2053 C2054 1.389 . S
C2054 C2053 1.389 . S
C2054 C2055 1.387 . S
C2055 H2040 0.930 . S
C2055 C2050 1.390 . S
C2055 C2054 1.387 . S
H2056 C2068 0.930 . S
H2057 C2070 0.930 . S
H2058 C2071 0.930 . S
H2059 C2075 0.959 . S
H2060 C2075 0.959 . S
H2061 C2075 0.961 . S
H2062 C2076 0.960 . S
H2063 C2076 0.961 . S
H2064 C2076 0.959 . S
H2065 C2079 0.929 . S
H2066 C2080 0.931 . S
H2067 C2082 0.930 . S
C2068 H2056 0.930 . S
C2068 C2069 1.399 1_556 S
C2068 C2073 1.399 . S
C2069 C2068 1.399 1_554 S
C2069 C2070 1.376 . S
C2070 H2057 0.930 . S
C2070 C2069 1.376 . S
C2070 C2071 1.388 . S
C2071 H2058 0.930 . S
C2071 C2070 1.388 . S
C2071 C2072 1.390 . S
C2072 C2071 1.390 . S
C2072 C2073 1.394 1_554 S
C2072 C2078 1.465 . S
C2073 C2068 1.399 . S
C2073 C2072 1.394 1_556 S
C2073 C2074 1.516 . S
C2074 C2073 1.516 . S
C2074 C2075 1.502 . S
C2074 C2076 1.561 . S
C2074 C2077 1.526 . S
C2075 H2059 0.959 . S
C2075 H2060 0.959 . S
C2075 H2061 0.961 . S
C2075 C2074 1.502 . S
C2076 H2062 0.960 . S
C2076 H2063 0.961 . S
C2076 H2064 0.959 . S
C2076 C2074 1.561 . S
C2077 C2074 1.526 . S
C2077 C2078 1.396 1_556 S
C2077 C2082 1.390 . S
C2078 C2072 1.465 . S
C2078 C2077 1.396 1_554 S
C2078 C2079 1.399 . S
C2079 H2065 0.929 . S
C2079 C2078 1.399 . S
C2079 C2080 1.385 . S
C2080 H2066 0.931 . S
C2080 C2079 1.385 . S
C2080 C2081 1.389 1_554 S
C2081 C2080 1.389 1_556 S
C2081 C2082 1.387 . S
C2082 H2067 0.930 . S
C2082 C2077 1.390 . S
C2082 C2081 1.387 . S
H2083 C2095 0.930 . S
H2084 C2097 0.930 . S
H2085 C2098 0.930 . S
H2086 C2102 0.959 . S
H2087 C2102 0.959 . S
H2088 C2102 0.961 . S
H2089 C2103 0.960 . S
H2090 C2103 0.961 . S
H2091 C2103 0.959 . S
H2092 C2106 0.929 . S
H2093 C2107 0.931 . S
H2094 C2109 0.930 . S
C2095 H2083 0.930 . S
C2095 C2096 1.399 . S
C2095 C2100 1.399 . S
C2096 C2095 1.399 . S
C2096 C2097 1.376 1_554 S
C2097 H2084 0.930 . S
C2097 C2096 1.376 1_556 S
C2097 C2098 1.388 . S
C2098 H2085 0.930 . S
C2098 C2097 1.388 . S
C2098 C2099 1.390 1_556 S
C2099 C2098 1.390 1_554 S
C2099 C2100 1.394 . S
C2099 C2105 1.465 . S
C2100 C2095 1.399 . S
C2100 C2099 1.394 . S
C2100 C2101 1.516 . S
C2101 C2100 1.516 . S
C2101 C2102 1.502 . S
C2101 C2103 1.561 . S
C2101 C2104 1.526 . S
C2102 H2086 0.959 . S
C2102 H2087 0.959 . S
C2102 H2088 0.961 . S
C2102 C2101 1.502 . S
C2103 H2089 0.960 . S
C2103 H2090 0.961 . S
C2103 H2091 0.959 . S
C2103 C2101 1.561 . S
C2104 C2101 1.526 . S
C2104 C2105 1.396 . S
C2104 C2109 1.390 . S
C2105 C2099 1.465 . S
C2105 C2104 1.396 . S
C2105 C2106 1.399 1_554 S
C2106 H2092 0.929 . S
C2106 C2105 1.399 1_556 S
C2106 C2107 1.385 . S
C2107 H2093 0.931 . S
C2107 C2106 1.385 . S
C2107 C2108 1.389 1_556 S
C2108 C2107 1.389 1_554 S
C2108 C2109 1.387 . S
C2109 H2094 0.930 . S
C2109 C2104 1.390 . S
C2109 C2108 1.387 . S
H2110 C2122 0.930 . S
H2111 C2124 0.930 . S
H2112 C2125 0.930 . S
H2113 C2129 0.959 . S
H2114 C2129 0.959 . S
H2115 C2129 0.961 . S
H2116 C2130 0.960 . S
H2117 C2130 0.961 . S
H2118 C2130 0.959 . S
H2119 C2133 0.929 . S
H2120 C2134 0.931 . S
H2121 C2136 0.930 . S
C2122 H2110 0.930 . S
C2122 C2123 1.399 . S
C2122 C2127 1.399 . S
C2123 C2122 1.399 . S
C2123 C2124 1.376 . S
C2124 H2111 0.930 . S
C2124 C2123 1.376 . S
C2124 C2125 1.388 . S
C2125 H2112 0.930 . S
C2125 C2124 1.388 . S
C2125 C2126 1.390 . S
C2126 C2125 1.390 . S
C2126 C2127 1.394 . S
C2126 C2132 1.465 . S
C2127 C2122 1.399 . S
C2127 C2126 1.394 . S
C2127 C2128 1.516 . S
C2128 C2127 1.516 . S
C2128 C2129 1.502 . S
C2128 C2130 1.561 . S
C2128 C2131 1.526 . S
C2129 H2113 0.959 . S
C2129 H2114 0.959 . S
C2129 H2115 0.961 . S
C2129 C2128 1.502 . S
C2130 H2116 0.960 . S
C2130 H2117 0.961 . S
C2130 H2118 0.959 . S
C2130 C2128 1.561 . S
C2131 C2128 1.526 . S
C2131 C2132 1.396 . S
C2131 C2136 1.390 . S
C2132 C2126 1.465 . S
C2132 C2131 1.396 . S
C2132 C2133 1.399 . S
C2133 H2119 0.929 . S
C2133 C2132 1.399 . S
C2133 C2134 1.385 . S
C2134 H2120 0.931 . S
C2134 C2133 1.385 . S
C2134 C2135 1.389 . S
C2135 C2134 1.389 . S
C2135 C2136 1.387 . S
C2136 H2121 0.930 . S
C2136 C2131 1.390 . S
C2136 C2135 1.387 . S
H2137 C2149 0.930 . S
H2138 C2151 0.930 . S
H2139 C2152 0.930 . S
H2140 C2156 0.959 . S
H2141 C2156 0.959 . S
H2142 C2156 0.961 . S
H2143 C2157 0.960 . S
H2144 C2157 0.961 . S
H2145 C2157 0.959 . S
H2146 C2160 0.929 . S
H2147 C2161 0.931 . S
H2148 C2163 0.930 . S
C2149 H2137 0.930 . S
C2149 C2150 1.399 . S
C2149 C2154 1.399 . S
C2150 C2149 1.399 . S
C2150 C2151 1.376 . S
C2151 H2138 0.930 . S
C2151 C2150 1.376 . S
C2151 C2152 1.388 . S
C2152 H2139 0.930 . S
C2152 C2151 1.388 . S
C2152 C2153 1.390 . S
C2153 C2152 1.390 . S
C2153 C2154 1.394 . S
C2153 C2159 1.465 . S
C2154 C2149 1.399 . S
C2154 C2153 1.394 . S
C2154 C2155 1.516 . S
C2155 C2154 1.516 . S
C2155 C2156 1.502 . S
C2155 C2157 1.561 . S
C2155 C2158 1.526 . S
C2156 H2140 0.959 . S
C2156 H2141 0.959 . S
C2156 H2142 0.961 . S
C2156 C2155 1.502 . S
C2157 H2143 0.960 . S
C2157 H2144 0.961 . S
C2157 H2145 0.959 . S
C2157 C2155 1.561 . S
C2158 C2155 1.526 . S
C2158 C2159 1.396 . S
C2158 C2163 1.390 . S
C2159 C2153 1.465 . S
C2159 C2158 1.396 . S
C2159 C2160 1.399 . S
C2160 H2146 0.929 . S
C2160 C2159 1.399 . S
C2160 C2161 1.385 . S
C2161 H2147 0.931 . S
C2161 C2160 1.385 . S
C2161 C2162 1.389 . S
C2162 C2161 1.389 . S
C2162 C2163 1.387 . S
C2163 H2148 0.930 . S
C2163 C2158 1.390 . S
C2163 C2162 1.387 . S
H2164 C2176 0.930 . S
H2165 C2178 0.930 . S
H2166 C2179 0.930 . S
H2167 C2183 0.959 . S
H2168 C2183 0.959 . S
H2169 C2183 0.961 . S
H2170 C2184 0.960 . S
H2171 C2184 0.961 . S
H2172 C2184 0.959 . S
H2173 C2187 0.929 . S
H2174 C2188 0.931 . S
H2175 C2190 0.930 . S
C2176 H2164 0.930 . S
C2176 C2177 1.399 . S
C2176 C2181 1.399 1_545 S
C2177 C2176 1.399 . S
C2177 C2178 1.376 1_545 S
C2178 H2165 0.930 . S
C2178 C2177 1.376 1_565 S
C2178 C2179 1.388 . S
C2179 H2166 0.930 . S
C2179 C2178 1.388 . S
C2179 C2180 1.390 . S
C2180 C2179 1.390 . S
C2180 C2181 1.394 . S
C2180 C2186 1.465 . S
C2181 C2176 1.399 1_565 S
C2181 C2180 1.394 . S
C2181 C2182 1.516 . S
C2182 C2181 1.516 . S
C2182 C2183 1.502 . S
C2182 C2184 1.561 1_565 S
C2182 C2185 1.526 . S
C2183 H2167 0.959 . S
C2183 H2168 0.959 . S
C2183 H2169 0.961 . S
C2183 C2182 1.502 . S
C2184 H2170 0.960 . S
C2184 H2171 0.961 . S
C2184 H2172 0.959 . S
C2184 C2182 1.561 1_545 S
C2185 C2182 1.526 . S
C2185 C2186 1.396 . S
C2185 C2190 1.390 . S
C2186 C2180 1.465 . S
C2186 C2185 1.396 . S
C2186 C2187 1.399 . S
C2187 H2173 0.929 . S
C2187 C2186 1.399 . S
C2187 C2188 1.385 . S
C2188 H2174 0.931 . S
C2188 C2187 1.385 . S
C2188 C2189 1.389 . S
C2189 C2188 1.389 . S
C2189 C2190 1.387 . S
C2190 H2175 0.930 . S
C2190 C2185 1.390 . S
C2190 C2189 1.387 . S
H2191 C2203 0.930 . S
H2192 C2205 0.930 . S
H2193 C2206 0.930 . S
H2194 C2210 0.959 . S
H2195 C2210 0.959 . S
H2196 C2210 0.961 . S
H2197 C2211 0.960 . S
H2198 C2211 0.961 . S
H2199 C2211 0.959 . S
H2200 C2214 0.929 . S
H2201 C2215 0.931 . S
H2202 C2217 0.930 . S
C2203 H2191 0.930 . S
C2203 C2204 1.399 . S
C2203 C2208 1.399 . S
C2204 C2203 1.399 . S
C2204 C2205 1.376 . S
C2205 H2192 0.930 . S
C2205 C2204 1.376 . S
C2205 C2206 1.388 . S
C2206 H2193 0.930 . S
C2206 C2205 1.388 . S
C2206 C2207 1.390 . S
C2207 C2206 1.390 . S
C2207 C2208 1.394 . S
C2207 C2213 1.465 . S
C2208 C2203 1.399 . S
C2208 C2207 1.394 . S
C2208 C2209 1.516 . S
C2209 C2208 1.516 . S
C2209 C2210 1.502 . S
C2209 C2211 1.561 . S
C2209 C2212 1.526 . S
C2210 H2194 0.959 . S
C2210 H2195 0.959 . S
C2210 H2196 0.961 . S
C2210 C2209 1.502 . S
C2211 H2197 0.960 . S
C2211 H2198 0.961 . S
C2211 H2199 0.959 . S
C2211 C2209 1.561 . S
C2212 C2209 1.526 . S
C2212 C2213 1.396 . S
C2212 C2217 1.390 . S
C2213 C2207 1.465 . S
C2213 C2212 1.396 . S
C2213 C2214 1.399 . S
C2214 H2200 0.929 . S
C2214 C2213 1.399 . S
C2214 C2215 1.385 . S
C2215 H2201 0.931 . S
C2215 C2214 1.385 . S
C2215 C2216 1.389 . S
C2216 C2215 1.389 . S
C2216 C2217 1.387 . S
C2217 H2202 0.930 . S
C2217 C2212 1.390 . S
C2217 C2216 1.387 . S
H2218 C2230 0.930 . S
H2219 C2232 0.930 . S
H2220 C2233 0.930 . S
H2221 C2237 0.959 . S
H2222 C2237 0.959 . S
H2223 C2237 0.961 . S
H2224 C2238 0.960 . S
H2225 C2238 0.961 . S
H2226 C2238 0.959 . S
H2227 C2241 0.929 . S
H2228 C2242 0.931 . S
H2229 C2244 0.930 . S
C2230 H2218 0.930 . S
C2230 C2231 1.399 . S
C2230 C2235 1.399 . S
C2231 C2230 1.399 . S
C2231 C2232 1.376 . S
C2232 H2219 0.930 . S
C2232 C2231 1.376 . S
C2232 C2233 1.388 . S
C2233 H2220 0.930 . S
C2233 C2232 1.388 . S
C2233 C2234 1.390 . S
C2234 C2233 1.390 . S
C2234 C2235 1.394 . S
C2234 C2240 1.465 . S
C2235 C2230 1.399 . S
C2235 C2234 1.394 . S
C2235 C2236 1.516 . S
C2236 C2235 1.516 . S
C2236 C2237 1.502 . S
C2236 C2238 1.561 . S
C2236 C2239 1.526 . S
C2237 H2221 0.959 . S
C2237 H2222 0.959 . S
C2237 H2223 0.961 . S
C2237 C2236 1.502 . S
C2238 H2224 0.960 . S
C2238 H2225 0.961 . S
C2238 H2226 0.959 . S
C2238 C2236 1.561 . S
C2239 C2236 1.526 . S
C2239 C2240 1.396 . S
C2239 C2244 1.390 . S
C2240 C2234 1.465 . S
C2240 C2239 1.396 . S
C2240 C2241 1.399 . S
C2241 H2227 0.929 . S
C2241 C2240 1.399 . S
C2241 C2242 1.385 . S
C2242 H2228 0.931 . S
C2242 C2241 1.385 . S
C2242 C2243 1.389 . S
C2243 C2242 1.389 . S
C2243 C2244 1.387 . S
C2244 H2229 0.930 . S
C2244 C2239 1.390 . S
C2244 C2243 1.387 . S
H2245 C2257 0.930 . S
H2246 C2259 0.930 . S
H2247 C2260 0.930 . S
H2248 C2264 0.959 . S
H2249 C2264 0.959 . S
H2250 C2264 0.961 . S
H2251 C2265 0.960 . S
H2252 C2265 0.961 . S
H2253 C2265 0.959 . S
H2254 C2268 0.929 . S
H2255 C2269 0.931 . S
H2256 C2271 0.930 . S
C2257 H2245 0.930 . S
C2257 C2258 1.399 . S
C2257 C2262 1.399 . S
C2258 C2257 1.399 . S
C2258 C2259 1.376 . S
C2259 H2246 0.930 . S
C2259 C2258 1.376 . S
C2259 C2260 1.388 . S
C2260 H2247 0.930 . S
C2260 C2259 1.388 . S
C2260 C2261 1.390 . S
C2261 C2260 1.390 . S
C2261 C2262 1.394 . S
C2261 C2267 1.465 . S
C2262 C2257 1.399 . S
C2262 C2261 1.394 . S
C2262 C2263 1.516 . S
C2263 C2262 1.516 . S
C2263 C2264 1.502 . S
C2263 C2265 1.561 . S
C2263 C2266 1.526 . S
C2264 H2248 0.959 . S
C2264 H2249 0.959 . S
C2264 H2250 0.961 . S
C2264 C2263 1.502 . S
C2265 H2251 0.960 . S
C2265 H2252 0.961 . S
C2265 H2253 0.959 . S
C2265 C2263 1.561 . S
C2266 C2263 1.526 . S
C2266 C2267 1.396 . S
C2266 C2271 1.390 . S
C2267 C2261 1.465 . S
C2267 C2266 1.396 . S
C2267 C2268 1.399 . S
C2268 H2254 0.929 . S
C2268 C2267 1.399 . S
C2268 C2269 1.385 . S
C2269 H2255 0.931 . S
C2269 C2268 1.385 . S
C2269 C2270 1.389 . S
C2270 C2269 1.389 . S
C2270 C2271 1.387 . S
C2271 H2256 0.930 . S
C2271 C2266 1.390 . S
C2271 C2270 1.387 . S
H2272 C2284 0.930 . S
H2273 C2286 0.930 . S
H2274 C2287 0.930 . S
H2275 C2291 0.959 . S
H2276 C2291 0.959 . S
H2277 C2291 0.961 . S
H2278 C2292 0.960 . S
H2279 C2292 0.961 . S
H2280 C2292 0.959 . S
H2281 C2295 0.929 . S
H2282 C2296 0.931 . S
H2283 C2298 0.930 . S
C2284 H2272 0.930 . S
C2284 C2285 1.399 . S
C2284 C2289 1.399 . S
C2285 C2284 1.399 . S
C2285 C2286 1.376 . S
C2286 H2273 0.930 . S
C2286 C2285 1.376 . S
C2286 C2287 1.388 . S
C2287 H2274 0.930 . S
C2287 C2286 1.388 . S
C2287 C2288 1.390 . S
C2288 C2287 1.390 . S
C2288 C2289 1.394 . S
C2288 C2294 1.465 . S
C2289 C2284 1.399 . S
C2289 C2288 1.394 . S
C2289 C2290 1.516 . S
C2290 C2289 1.516 . S
C2290 C2291 1.502 . S
C2290 C2292 1.561 . S
C2290 C2293 1.526 . S
C2291 H2275 0.959 . S
C2291 H2276 0.959 . S
C2291 H2277 0.961 . S
C2291 C2290 1.502 . S
C2292 H2278 0.960 . S
C2292 H2279 0.961 . S
C2292 H2280 0.959 . S
C2292 C2290 1.561 . S
C2293 C2290 1.526 . S
C2293 C2294 1.396 . S
C2293 C2298 1.390 . S
C2294 C2288 1.465 . S
C2294 C2293 1.396 . S
C2294 C2295 1.399 . S
C2295 H2281 0.929 . S
C2295 C2294 1.399 . S
C2295 C2296 1.385 . S
C2296 H2282 0.931 . S
C2296 C2295 1.385 . S
C2296 C2297 1.389 . S
C2297 C2296 1.389 . S
C2297 C2298 1.387 . S
C2298 H2283 0.930 . S
C2298 C2293 1.390 . S
C2298 C2297 1.387 . S
H2299 C2311 0.930 . S
H2300 C2313 0.930 . S
H2301 C2314 0.930 . S
H2302 C2318 0.959 . S
H2303 C2318 0.959 . S
H2304 C2318 0.961 . S
H2305 C2319 0.960 . S
H2306 C2319 0.961 . S
H2307 C2319 0.959 . S
H2308 C2322 0.929 . S
H2309 C2323 0.931 . S
H2310 C2325 0.930 . S
C2311 H2299 0.930 . S
C2311 C2312 1.399 . S
C2311 C2316 1.399 . S
C2312 C2311 1.399 . S
C2312 C2313 1.376 . S
C2313 H2300 0.930 . S
C2313 C2312 1.376 . S
C2313 C2314 1.388 . S
C2314 H2301 0.930 . S
C2314 C2313 1.388 . S
C2314 C2315 1.390 . S
C2315 C2314 1.390 . S
C2315 C2316 1.394 . S
C2315 C2321 1.465 . S
C2316 C2311 1.399 . S
C2316 C2315 1.394 . S
C2316 C2317 1.516 . S
C2317 C2316 1.516 . S
C2317 C2318 1.502 . S
C2317 C2319 1.561 . S
C2317 C2320 1.526 . S
C2318 H2302 0.959 . S
C2318 H2303 0.959 . S
C2318 H2304 0.961 . S
C2318 C2317 1.502 . S
C2319 H2305 0.960 . S
C2319 H2306 0.961 . S
C2319 H2307 0.959 . S
C2319 C2317 1.561 . S
C2320 C2317 1.526 . S
C2320 C2321 1.396 . S
C2320 C2325 1.390 . S
C2321 C2315 1.465 . S
C2321 C2320 1.396 . S
C2321 C2322 1.399 . S
C2322 H2308 0.929 . S
C2322 C2321 1.399 . S
C2322 C2323 1.385 . S
C2323 H2309 0.931 . S
C2323 C2322 1.385 . S
C2323 C2324 1.389 . S
C2324 C2323 1.389 . S
C2324 C2325 1.387 . S
C2325 H2310 0.930 . S
C2325 C2320 1.390 . S
C2325 C2324 1.387 . S
H2326 C2338 0.930 . S
H2327 C2340 0.930 . S
H2328 C2341 0.894 1_554 S
H2329 C2345 0.959 . S
H2330 C2345 0.959 . S
H2331 C2345 0.961 . S
H2332 C2346 0.960 . S
H2333 C2346 0.961 . S
H2334 C2346 0.959 . S
H2335 C2349 0.929 . S
H2336 C2350 0.931 . S
H2337 C2352 0.930 . S
C2338 H2326 0.930 . S
C2338 C2339 1.399 . S
C2338 C2343 1.399 . S
C2339 C2338 1.399 . S
C2339 C2340 1.376 . S
C2340 H2327 0.930 . S
C2340 C2339 1.376 . S
C2340 C2341 1.388 . S
C2341 H2328 0.894 1_556 S
C2341 C2340 1.388 . S
C2341 C2342 1.390 . S
C2342 C2341 1.390 . S
C2342 C2343 1.394 . S
C2342 C2348 1.465 . S
C2343 C2338 1.399 . S
C2343 C2342 1.394 . S
C2343 C2344 1.516 . S
C2344 C2343 1.516 . S
C2344 C2345 1.502 . S
C2344 C2346 1.561 . S
C2344 C2347 1.526 . S
C2345 H2329 0.959 . S
C2345 H2330 0.959 . S
C2345 H2331 0.961 . S
C2345 C2344 1.502 . S
C2346 H2332 0.960 . S
C2346 H2333 0.961 . S
C2346 H2334 0.959 . S
C2346 C2344 1.561 . S
C2347 C2344 1.526 . S
C2347 C2348 1.396 . S
C2347 C2352 1.390 . S
C2348 C2342 1.465 . S
C2348 C2347 1.396 . S
C2348 C2349 1.399 1_556 S
C2349 H2335 0.929 . S
C2349 C2348 1.399 1_554 S
C2349 C2350 1.385 . S
C2350 H2336 0.931 . S
C2350 C2349 1.385 . S
C2350 C2351 1.389 . S
C2351 C2350 1.389 . S
C2351 C2352 1.387 1_554 S
C2352 H2337 0.930 . S
C2352 C2347 1.390 . S
C2352 C2351 1.387 1_556 S
H2353 C2365 0.925 1_655 S
H2354 C2367 0.930 . S
H2355 C2368 0.930 . S
H2356 C2372 0.959 . S
H2357 C2372 0.959 . S
H2358 C2372 0.961 . S
H2359 C2373 0.960 . S
H2360 C2373 0.961 . S
H2361 C2373 0.959 . S
H2362 C2376 0.929 . S
H2363 C2377 0.931 . S
H2364 C2379 0.930 . S
C2365 H2353 0.925 1_455 S
C2365 C2366 1.423 . S
C2365 C2370 1.381 1_455 S
C2366 C2365 1.423 . S
C2366 C2367 1.376 . S
C2367 H2354 0.930 . S
C2367 C2366 1.376 . S
C2367 C2368 1.388 . S
C2368 H2355 0.930 . S
C2368 C2367 1.388 . S
C2368 C2369 1.390 1_455 S
C2369 C2368 1.390 1_655 S
C2369 C2370 1.394 . S
C2369 C2375 1.465 . S
C2370 C2365 1.381 1_655 S
C2370 C2369 1.394 . S
C2370 C2371 1.516 . S
C2371 C2370 1.516 . S
C2371 C2372 1.502 . S
C2371 C2373 1.561 . S
C2371 C2374 1.526 . S
C2372 H2356 0.959 . S
C2372 H2357 0.959 . S
C2372 H2358 0.961 . S
C2372 C2371 1.502 . S
C2373 H2359 0.960 . S
C2373 H2360 0.961 . S
C2373 H2361 0.959 . S
C2373 C2371 1.561 . S
C2374 C2371 1.526 . S
C2374 C2375 1.396 . S
C2374 C2379 1.390 . S
C2375 C2369 1.465 . S
C2375 C2374 1.396 . S
C2375 C2376 1.399 . S
C2376 H2362 0.929 . S
C2376 C2375 1.399 . S
C2376 C2377 1.385 . S
C2377 H2363 0.931 . S
C2377 C2376 1.385 . S
C2377 C2378 1.389 . S
C2378 C2377 1.389 . S
C2378 C2379 1.387 . S
C2379 H2364 0.930 . S
C2379 C2374 1.390 . S
C2379 C2378 1.387 . S
H2380 C2392 0.930 . S
H2381 C2394 0.930 . S
H2382 C2395 0.930 . S
H2383 C2399 0.959 . S
H2384 C2399 0.959 . S
H2385 C2399 0.961 . S
H2386 C2400 0.960 . S
H2387 C2400 0.961 . S
H2388 C2400 0.959 . S
H2389 C2403 0.929 . S
H2390 C2404 0.931 . S
H2391 C2406 0.930 . S
C2392 H2380 0.930 . S
C2392 C2393 1.399 . S
C2392 C2397 1.399 . S
C2393 C2392 1.399 . S
C2393 C2394 1.376 . S
C2394 H2381 0.930 . S
C2394 C2393 1.376 . S
C2394 C2395 1.388 . S
C2395 H2382 0.930 . S
C2395 C2394 1.388 . S
C2395 C2396 1.390 . S
C2396 C2395 1.390 . S
C2396 C2397 1.394 . S
C2396 C2402 1.465 . S
C2397 C2392 1.399 . S
C2397 C2396 1.394 . S
C2397 C2398 1.516 . S
C2398 C2397 1.516 . S
C2398 C2399 1.502 . S
C2398 C2400 1.561 . S
C2398 C2401 1.526 . S
C2399 H2383 0.959 . S
C2399 H2384 0.959 . S
C2399 H2385 0.961 . S
C2399 C2398 1.502 . S
C2400 H2386 0.960 . S
C2400 H2387 0.961 . S
C2400 H2388 0.959 . S
C2400 C2398 1.561 . S
C2401 C2398 1.526 . S
C2401 C2402 1.396 . S
C2401 C2406 1.390 . S
C2402 C2396 1.465 . S
C2402 C2401 1.396 . S
C2402 C2403 1.399 . S
C2403 H2389 0.929 . S
C2403 C2402 1.399 . S
C2403 C2404 1.385 . S
C2404 H2390 0.931 . S
C2404 C2403 1.385 . S
C2404 C2405 1.389 . S
C2405 C2404 1.389 . S
C2405 C2406 1.387 . S
C2406 H2391 0.930 . S
C2406 C2401 1.390 . S
C2406 C2405 1.387 . S
H2407 C2419 0.930 . S
H2408 C2421 0.930 . S
H2409 C2422 0.930 . S
H2410 C2426 0.959 . S
H2411 C2426 0.959 1_655 S
H2412 C2426 0.961 . S
H2413 C2427 0.960 . S
H2414 C2427 0.961 . S
H2415 C2427 0.959 . S
H2416 C2430 0.929 . S
H2417 C2431 0.931 . S
H2418 C2433 0.930 . S
C2419 H2407 0.930 . S
C2419 C2420 1.399 . S
C2419 C2424 1.399 . S
C2420 C2419 1.399 . S
C2420 C2421 1.376 . S
C2421 H2408 0.930 . S
C2421 C2420 1.376 . S
C2421 C2422 1.388 . S
C2422 H2409 0.930 . S
C2422 C2421 1.388 . S
C2422 C2423 1.390 . S
C2423 C2422 1.390 . S
C2423 C2424 1.394 . S
C2423 C2429 1.465 1_455 S
C2424 C2419 1.399 . S
C2424 C2423 1.394 . S
C2424 C2425 1.516 1_455 S
C2425 C2424 1.516 1_655 S
C2425 C2426 1.502 1_655 S
C2425 C2427 1.561 . S
C2425 C2428 1.526 . S
C2426 H2410 0.959 . S
C2426 H2411 0.959 1_455 S
C2426 H2412 0.961 . S
C2426 C2425 1.502 1_455 S
C2427 H2413 0.960 . S
C2427 H2414 0.961 . S
C2427 H2415 0.959 . S
C2427 C2425 1.561 . S
C2428 C2425 1.526 . S
C2428 C2429 1.396 . S
C2428 C2433 1.390 . S
C2429 C2423 1.465 1_655 S
C2429 C2428 1.396 . S
C2429 C2430 1.399 . S
C2430 H2416 0.929 . S
C2430 C2429 1.399 . S
C2430 C2431 1.385 . S
C2431 H2417 0.931 . S
C2431 C2430 1.385 . S
C2431 C2432 1.389 . S
C2432 C2431 1.389 . S
C2432 C2433 1.387 . S
C2433 H2418 0.930 . S
C2433 C2428 1.390 . S
C2433 C2432 1.387 . S
H2434 C2446 0.930 . S
H2435 C2448 0.912 1_655 S
H2436 C2449 0.930 . S
H2437 C2453 0.959 . S
H2438 C2453 0.959 . S
H2439 C2453 0.961 . S
H2440 C2454 0.960 . S
H2441 C2454 0.961 . S
H2442 C2454 0.959 . S
H2443 C2457 0.929 . S
H2444 C2458 0.931 . S
H2445 C2460 0.930 . S
C2446 H2434 0.930 . S
C2446 C2447 1.399 . S
C2446 C2451 1.399 1_655 S
C2447 C2446 1.399 . S
C2447 C2448 1.363 1_655 S
C2448 H2435 0.912 1_455 S
C2448 C2447 1.363 1_455 S
C2448 C2449 1.419 . S
C2449 H2436 0.930 . S
C2449 C2448 1.419 . S
C2449 C2450 1.390 . S
C2450 C2449 1.390 . S
C2450 C2451 1.394 . S
C2450 C2456 1.465 . S
C2451 C2446 1.399 1_455 S
C2451 C2450 1.394 . S
C2451 C2452 1.516 . S
C2452 C2451 1.516 . S
C2452 C2453 1.502 . S
C2452 C2454 1.561 1_455 S
C2452 C2455 1.526 . S
C2453 H2437 0.959 . S
C2453 H2438 0.959 . S
C2453 H2439 0.961 . S
C2453 C2452 1.502 . S
C2454 H2440 0.960 . S
C2454 H2441 0.961 . S
C2454 H2442 0.959 . S
C2454 C2452 1.561 1_655 S
C2455 C2452 1.526 . S
C2455 C2456 1.396 . S
C2455 C2460 1.390 . S
C2456 C2450 1.465 . S
C2456 C2455 1.396 . S
C2456 C2457 1.399 . S
C2457 H2443 0.929 . S
C2457 C2456 1.399 . S
C2457 C2458 1.385 . S
C2458 H2444 0.931 . S
C2458 C2457 1.385 . S
C2458 C2459 1.389 . S
C2459 C2458 1.389 . S
C2459 C2460 1.387 . S
C2460 H2445 0.930 . S
C2460 C2455 1.390 . S
C2460 C2459 1.387 . S
H2461 C2473 0.930 . S
H2462 C2475 0.930 . S
H2463 C2476 0.930 . S
H2464 C2480 0.959 . S
H2465 C2480 0.959 . S
H2466 C2480 0.961 . S
H2467 C2481 0.960 . S
H2468 C2481 0.961 . S
H2469 C2481 0.959 . S
H2470 C2484 0.929 . S
H2471 C2485 0.931 . S
H2472 C2487 0.930 . S
C2473 H2461 0.930 . S
C2473 C2474 1.399 . S
C2473 C2478 1.399 . S
C2474 C2473 1.399 . S
C2474 C2475 1.376 . S
C2475 H2462 0.930 . S
C2475 C2474 1.376 . S
C2475 C2476 1.388 . S
C2476 H2463 0.930 . S
C2476 C2475 1.388 . S
C2476 C2477 1.390 . S
C2477 C2476 1.390 . S
C2477 C2478 1.394 . S
C2477 C2483 1.465 . S
C2478 C2473 1.399 . S
C2478 C2477 1.394 . S
C2478 C2479 1.516 . S
C2479 C2478 1.516 . S
C2479 C2480 1.502 . S
C2479 C2481 1.561 . S
C2479 C2482 1.526 . S
C2480 H2464 0.959 . S
C2480 H2465 0.959 . S
C2480 H2466 0.961 . S
C2480 C2479 1.502 . S
C2481 H2467 0.960 . S
C2481 H2468 0.961 . S
C2481 H2469 0.959 . S
C2481 C2479 1.561 . S
C2482 C2479 1.526 . S
C2482 C2483 1.396 . S
C2482 C2487 1.390 . S
C2483 C2477 1.465 . S
C2483 C2482 1.396 . S
C2483 C2484 1.399 . S
C2484 H2470 0.929 . S
C2484 C2483 1.399 . S
C2484 C2485 1.385 . S
C2485 H2471 0.931 . S
C2485 C2484 1.385 . S
C2485 C2486 1.389 . S
C2486 C2485 1.389 . S
C2486 C2487 1.387 . S
C2487 H2472 0.930 . S
C2487 C2482 1.390 . S
C2487 C2486 1.387 . S
H2488 C2500 0.930 . S
H2489 C2502 0.930 . S
H2490 C2503 0.930 . S
H2491 C2507 0.959 . S
H2492 C2507 0.959 . S
H2493 C2507 0.961 . S
H2494 C2508 0.960 . S
H2495 C2508 0.961 . S
H2496 C2508 0.959 . S
H2497 C2511 0.929 . S
H2498 C2512 0.931 . S
H2499 C2514 0.930 . S
C2500 H2488 0.930 . S
C2500 C2501 1.399 . S
C2500 C2505 1.399 . S
C2501 C2500 1.399 . S
C2501 C2502 1.376 . S
C2502 H2489 0.930 . S
C2502 C2501 1.376 . S
C2502 C2503 1.388 . S
C2503 H2490 0.930 . S
C2503 C2502 1.388 . S
C2503 C2504 1.390 . S
C2504 C2503 1.390 . S
C2504 C2505 1.394 . S
C2504 C2510 1.465 . S
C2505 C2500 1.399 . S
C2505 C2504 1.394 . S
C2505 C2506 1.516 . S
C2506 C2505 1.516 . S
C2506 C2507 1.502 . S
C2506 C2508 1.561 . S
C2506 C2509 1.526 . S
C2507 H2491 0.959 . S
C2507 H2492 0.959 . S
C2507 H2493 0.961 . S
C2507 C2506 1.502 . S
C2508 H2494 0.960 . S
C2508 H2495 0.961 . S
C2508 H2496 0.959 . S
C2508 C2506 1.561 . S
C2509 C2506 1.526 . S
C2509 C2510 1.396 . S
C2509 C2514 1.390 . S
C2510 C2504 1.465 . S
C2510 C2509 1.396 . S
C2510 C2511 1.399 . S
C2511 H2497 0.929 . S
C2511 C2510 1.399 . S
C2511 C2512 1.385 . S
C2512 H2498 0.931 . S
C2512 C2511 1.385 . S
C2512 C2513 1.389 . S
C2513 C2512 1.389 . S
C2513 C2514 1.387 . S
C2514 H2499 0.930 . S
C2514 C2509 1.390 . S
C2514 C2513 1.387 . S
H2515 C2527 0.930 . S
H2516 C2529 0.930 . S
H2517 C2530 0.930 . S
H2518 C2534 0.959 . S
H2519 C2534 0.959 . S
H2520 C2534 0.961 . S
H2521 C2535 0.960 . S
H2522 C2535 0.961 . S
H2523 C2535 0.959 . S
H2524 C2538 0.929 . S
H2525 C2539 0.931 . S
H2526 C2541 0.930 . S
C2527 H2515 0.930 . S
C2527 C2528 1.399 . S
C2527 C2532 1.399 . S
C2528 C2527 1.399 . S
C2528 C2529 1.376 . S
C2529 H2516 0.930 . S
C2529 C2528 1.376 . S
C2529 C2530 1.388 . S
C2530 H2517 0.930 . S
C2530 C2529 1.388 . S
C2530 C2531 1.390 . S
C2531 C2530 1.390 . S
C2531 C2532 1.394 . S
C2531 C2537 1.465 . S
C2532 C2527 1.399 . S
C2532 C2531 1.394 . S
C2532 C2533 1.516 . S
C2533 C2532 1.516 . S
C2533 C2534 1.502 . S
C2533 C2535 1.561 . S
C2533 C2536 1.526 . S
C2534 H2518 0.959 . S
C2534 H2519 0.959 . S
C2534 H2520 0.961 . S
C2534 C2533 1.502 . S
C2535 H2521 0.960 . S
C2535 H2522 0.961 . S
C2535 H2523 0.959 . S
C2535 C2533 1.561 . S
C2536 C2533 1.526 . S
C2536 C2537 1.396 . S
C2536 C2541 1.390 . S
C2537 C2531 1.465 . S
C2537 C2536 1.396 . S
C2537 C2538 1.399 . S
C2538 H2524 0.929 . S
C2538 C2537 1.399 . S
C2538 C2539 1.385 . S
C2539 H2525 0.931 . S
C2539 C2538 1.385 . S
C2539 C2540 1.389 . S
C2540 C2539 1.389 . S
C2540 C2541 1.387 . S
C2541 H2526 0.930 . S
C2541 C2536 1.390 . S
C2541 C2540 1.387 . S
H2542 C2554 0.930 . S
H2543 C2556 0.930 . S
H2544 C2557 0.930 . S
H2545 C2561 0.959 . S
H2546 C2561 0.959 . S
H2547 C2561 0.961 . S
H2548 C2562 0.960 . S
H2549 C2562 0.961 . S
H2550 C2562 0.959 . S
H2551 C2565 0.929 . S
H2552 C2566 0.931 . S
H2553 C2568 0.930 . S
C2554 H2542 0.930 . S
C2554 C2555 1.399 . S
C2554 C2559 1.399 . S
C2555 C2554 1.399 . S
C2555 C2556 1.376 . S
C2556 H2543 0.930 . S
C2556 C2555 1.376 . S
C2556 C2557 1.388 . S
C2557 H2544 0.930 . S
C2557 C2556 1.388 . S
C2557 C2558 1.390 . S
C2558 C2557 1.390 . S
C2558 C2559 1.394 . S
C2558 C2564 1.465 . S
C2559 C2554 1.399 . S
C2559 C2558 1.394 . S
C2559 C2560 1.516 . S
C2560 C2559 1.516 . S
C2560 C2561 1.502 . S
C2560 C2562 1.561 . S
C2560 C2563 1.526 . S
C2561 H2545 0.959 . S
C2561 H2546 0.959 . S
C2561 H2547 0.961 . S
C2561 C2560 1.502 . S
C2562 H2548 0.960 . S
C2562 H2549 0.961 . S
C2562 H2550 0.959 . S
C2562 C2560 1.561 . S
C2563 C2560 1.526 . S
C2563 C2564 1.396 . S
C2563 C2568 1.390 . S
C2564 C2558 1.465 . S
C2564 C2563 1.396 . S
C2564 C2565 1.399 . S
C2565 H2551 0.929 . S
C2565 C2564 1.399 . S
C2565 C2566 1.385 . S
C2566 H2552 0.931 . S
C2566 C2565 1.385 . S
C2566 C2567 1.389 . S
C2567 C2566 1.389 . S
C2567 C2568 1.387 . S
C2568 H2553 0.930 . S
C2568 C2563 1.390 . S
C2568 C2567 1.387 . S
H2569 C2581 0.930 . S
H2570 C2583 0.930 . S
H2571 C2584 0.930 . S
H2572 C2588 0.959 . S
H2573 C2588 0.959 . S
H2574 C2588 0.961 . S
H2575 C2589 0.960 . S
H2576 C2589 0.961 . S
H2577 C2589 0.959 . S
H2578 C2592 0.929 . S
H2579 C2593 0.931 . S
H2580 C2595 0.930 . S
C2581 H2569 0.930 . S
C2581 C2582 1.399 . S
C2581 C2586 1.399 . S
C2582 C2581 1.399 . S
C2582 C2583 1.376 . S
C2583 H2570 0.930 . S
C2583 C2582 1.376 . S
C2583 C2584 1.388 . S
C2584 H2571 0.930 . S
C2584 C2583 1.388 . S
C2584 C2585 1.390 . S
C2585 C2584 1.390 . S
C2585 C2586 1.394 . S
C2585 C2591 1.465 . S
C2586 C2581 1.399 . S
C2586 C2585 1.394 . S
C2586 C2587 1.516 . S
C2587 C2586 1.516 . S
C2587 C2588 1.502 . S
C2587 C2589 1.561 . S
C2587 C2590 1.526 . S
C2588 H2572 0.959 . S
C2588 H2573 0.959 . S
C2588 H2574 0.961 . S
C2588 C2587 1.502 . S
C2589 H2575 0.960 . S
C2589 H2576 0.961 . S
C2589 H2577 0.959 . S
C2589 C2587 1.561 . S
C2590 C2587 1.526 . S
C2590 C2591 1.396 . S
C2590 C2595 1.390 . S
C2591 C2585 1.465 . S
C2591 C2590 1.396 . S
C2591 C2592 1.399 . S
C2592 H2578 0.929 . S
C2592 C2591 1.399 . S
C2592 C2593 1.385 . S
C2593 H2579 0.931 . S
C2593 C2592 1.385 . S
C2593 C2594 1.389 . S
C2594 C2593 1.389 . S
C2594 C2595 1.387 . S
C2595 H2580 0.930 . S
C2595 C2590 1.390 . S
C2595 C2594 1.387 . S
H2596 C2608 0.930 . S
H2597 C2610 0.930 . S
H2598 C2611 0.930 . S
H2599 C2615 0.959 . S
H2600 C2615 0.959 . S
H2601 C2615 0.961 . S
H2602 C2616 0.960 . S
H2603 C2616 0.961 . S
H2604 C2616 0.959 . S
H2605 C2619 0.929 . S
H2606 C2620 0.931 . S
H2607 C2622 0.930 . S
C2608 H2596 0.930 . S
C2608 C2609 1.399 . S
C2608 C2613 1.399 . S
C2609 C2608 1.399 . S
C2609 C2610 1.376 . S
C2610 H2597 0.930 . S
C2610 C2609 1.376 . S
C2610 C2611 1.388 . S
C2611 H2598 0.930 . S
C2611 C2610 1.388 . S
C2611 C2612 1.390 . S
C2612 C2611 1.390 . S
C2612 C2613 1.394 . S
C2612 C2618 1.465 . S
C2613 C2608 1.399 . S
C2613 C2612 1.394 . S
C2613 C2614 1.516 . S
C2614 C2613 1.516 . S
C2614 C2615 1.502 . S
C2614 C2616 1.561 . S
C2614 C2617 1.526 . S
C2615 H2599 0.959 . S
C2615 H2600 0.959 . S
C2615 H2601 0.961 . S
C2615 C2614 1.502 . S
C2616 H2602 0.960 . S
C2616 H2603 0.961 . S
C2616 H2604 0.959 . S
C2616 C2614 1.561 . S
C2617 C2614 1.526 . S
C2617 C2618 1.396 . S
C2617 C2622 1.390 . S
C2618 C2612 1.465 . S
C2618 C2617 1.396 . S
C2618 C2619 1.399 . S
C2619 H2605 0.929 . S
C2619 C2618 1.399 . S
C2619 C2620 1.385 . S
C2620 H2606 0.931 . S
C2620 C2619 1.385 . S
C2620 C2621 1.389 . S
C2621 C2620 1.389 . S
C2621 C2622 1.387 . S
C2622 H2607 0.930 . S
C2622 C2617 1.390 . S
C2622 C2621 1.387 . S
H2623 C2635 0.930 . S
H2624 C2637 0.930 . S
H2625 C2638 0.930 . S
H2626 C2642 0.959 . S
H2627 C2642 0.959 . S
H2628 C2642 0.961 . S
H2629 C2643 0.960 . S
H2630 C2643 0.961 . S
H2631 C2643 0.959 . S
H2632 C2646 0.929 . S
H2633 C2647 0.931 . S
H2634 C2649 0.930 . S
C2635 H2623 0.930 . S
C2635 C2636 1.399 . S
C2635 C2640 1.399 . S
C2636 C2635 1.399 . S
C2636 C2637 1.376 . S
C2637 H2624 0.930 . S
C2637 C2636 1.376 . S
C2637 C2638 1.388 . S
C2638 H2625 0.930 . S
C2638 C2637 1.388 . S
C2638 C2639 1.390 . S
C2639 C2638 1.390 . S
C2639 C2640 1.394 . S
C2639 C2645 1.465 . S
C2640 C2635 1.399 . S
C2640 C2639 1.394 . S
C2640 C2641 1.516 . S
C2641 C2640 1.516 . S
C2641 C2642 1.502 . S
C2641 C2643 1.561 . S
C2641 C2644 1.526 . S
C2642 H2626 0.959 . S
C2642 H2627 0.959 . S
C2642 H2628 0.961 . S
C2642 C2641 1.502 . S
C2643 H2629 0.960 . S
C2643 H2630 0.961 . S
C2643 H2631 0.959 . S
C2643 C2641 1.561 . S
C2644 C2641 1.526 . S
C2644 C2645 1.396 . S
C2644 C2649 1.390 . S
C2645 C2639 1.465 . S
C2645 C2644 1.396 . S
C2645 C2646 1.399 . S
C2646 H2632 0.929 . S
C2646 C2645 1.399 . S
C2646 C2647 1.385 . S
C2647 H2633 0.931 . S
C2647 C2646 1.385 . S
C2647 C2648 1.389 . S
C2648 C2647 1.389 . S
C2648 C2649 1.387 . S
C2649 H2634 0.930 . S
C2649 C2644 1.390 . S
C2649 C2648 1.387 . S
H2650 C2662 0.930 . S
H2651 C2664 0.930 . S
H2652 C2665 0.930 . S
H2653 C2669 0.959 . S
H2654 C2669 0.959 . S
H2655 C2669 0.961 . S
H2656 C2670 0.960 . S
H2657 C2670 0.961 . S
H2658 C2670 0.959 . S
H2659 C2673 0.929 . S
H2660 C2674 0.931 . S
H2661 C2676 0.930 . S
C2662 H2650 0.930 . S
C2662 C2663 1.399 . S
C2662 C2667 1.399 . S
C2663 C2662 1.399 . S
C2663 C2664 1.376 . S
C2664 H2651 0.930 . S
C2664 C2663 1.376 . S
C2664 C2665 1.388 . S
C2665 H2652 0.930 . S
C2665 C2664 1.388 . S
C2665 C2666 1.390 . S
C2666 C2665 1.390 . S
C2666 C2667 1.394 . S
C2666 C2672 1.465 . S
C2667 C2662 1.399 . S
C2667 C2666 1.394 . S
C2667 C2668 1.516 . S
C2668 C2667 1.516 . S
C2668 C2669 1.502 . S
C2668 C2670 1.561 . S
C2668 C2671 1.526 . S
C2669 H2653 0.959 . S
C2669 H2654 0.959 . S
C2669 H2655 0.961 . S
C2669 C2668 1.502 . S
C2670 H2656 0.960 . S
C2670 H2657 0.961 . S
C2670 H2658 0.959 . S
C2670 C2668 1.561 . S
C2671 C2668 1.526 . S
C2671 C2672 1.396 . S
C2671 C2676 1.390 . S
C2672 C2666 1.465 . S
C2672 C2671 1.396 . S
C2672 C2673 1.399 . S
C2673 H2659 0.929 . S
C2673 C2672 1.399 . S
C2673 C2674 1.385 . S
C2674 H2660 0.931 . S
C2674 C2673 1.385 . S
C2674 C2675 1.389 . S
C2675 C2674 1.389 . S
C2675 C2676 1.387 . S
C2676 H2661 0.930 . S
C2676 C2671 1.390 . S
C2676 C2675 1.387 . S
H2677 C2689 0.930 . S
H2678 C2691 0.930 . S
H2679 C2692 0.930 . S
H2680 C2696 0.959 . S
H2681 C2696 0.959 . S
H2682 C2696 0.961 . S
H2683 C2697 0.960 . S
H2684 C2697 0.961 . S
H2685 C2697 0.959 . S
H2686 C2700 0.929 . S
H2687 C2701 0.931 . S
H2688 C2703 0.930 . S
C2689 H2677 0.930 . S
C2689 C2690 1.399 . S
C2689 C2694 1.399 . S
C2690 C2689 1.399 . S
C2690 C2691 1.376 . S
C2691 H2678 0.930 . S
C2691 C2690 1.376 . S
C2691 C2692 1.388 . S
C2692 H2679 0.930 . S
C2692 C2691 1.388 . S
C2692 C2693 1.390 . S
C2693 C2692 1.390 . S
C2693 C2694 1.394 . S
C2693 C2699 1.465 . S
C2694 C2689 1.399 . S
C2694 C2693 1.394 . S
C2694 C2695 1.516 . S
C2695 C2694 1.516 . S
C2695 C2696 1.502 . S
C2695 C2697 1.561 . S
C2695 C2698 1.526 . S
C2696 H2680 0.959 . S
C2696 H2681 0.959 . S
C2696 H2682 0.961 . S
C2696 C2695 1.502 . S
C2697 H2683 0.960 . S
C2697 H2684 0.961 . S
C2697 H2685 0.959 . S
C2697 C2695 1.561 . S
C2698 C2695 1.526 . S
C2698 C2699 1.396 . S
C2698 C2703 1.390 . S
C2699 C2693 1.465 . S
C2699 C2698 1.396 . S
C2699 C2700 1.399 . S
C2700 H2686 0.929 . S
C2700 C2699 1.399 . S
C2700 C2701 1.385 . S
C2701 H2687 0.931 . S
C2701 C2700 1.385 . S
C2701 C2702 1.389 . S
C2702 C2701 1.389 . S
C2702 C2703 1.387 . S
C2703 H2688 0.930 . S
C2703 C2698 1.390 . S
C2703 C2702 1.387 . S
H2704 C2716 0.930 . S
H2705 C2718 0.930 . S
H2706 C2719 0.930 . S
H2707 C2723 0.959 . S
H2708 C2723 0.959 . S
H2709 C2723 0.961 . S
H2710 C2724 0.960 . S
H2711 C2724 0.961 . S
H2712 C2724 0.959 . S
H2713 C2727 0.929 . S
H2714 C2728 0.931 . S
H2715 C2730 0.930 . S
C2716 H2704 0.930 . S
C2716 C2717 1.399 . S
C2716 C2721 1.399 . S
C2717 C2716 1.399 . S
C2717 C2718 1.376 . S
C2718 H2705 0.930 . S
C2718 C2717 1.376 . S
C2718 C2719 1.388 . S
C2719 H2706 0.930 . S
C2719 C2718 1.388 . S
C2719 C2720 1.390 . S
C2720 C2719 1.390 . S
C2720 C2721 1.394 . S
C2720 C2726 1.465 . S
C2721 C2716 1.399 . S
C2721 C2720 1.394 . S
C2721 C2722 1.516 . S
C2722 C2721 1.516 . S
C2722 C2723 1.502 . S
C2722 C2724 1.561 . S
C2722 C2725 1.526 . S
C2723 H2707 0.959 . S
C2723 H2708 0.959 . S
C2723 H2709 0.961 . S
C2723 C2722 1.502 . S
C2724 H2710 0.960 . S
C2724 H2711 0.961 . S
C2724 H2712 0.959 . S
C2724 C2722 1.561 . S
C2725 C2722 1.526 . S
C2725 C2726 1.396 . S
C2725 C2730 1.390 . S
C2726 C2720 1.465 . S
C2726 C2725 1.396 . S
C2726 C2727 1.399 . S
C2727 H2713 0.929 . S
C2727 C2726 1.399 . S
C2727 C2728 1.385 . S
C2728 H2714 0.931 . S
C2728 C2727 1.385 . S
C2728 C2729 1.389 . S
C2729 C2728 1.389 . S
C2729 C2730 1.387 . S
C2730 H2715 0.930 . S
C2730 C2725 1.390 . S
C2730 C2729 1.387 . S
H2731 C2743 0.930 . S
H2732 C2745 0.930 . S
H2733 C2746 0.930 . S
H2734 C2750 0.959 . S
H2735 C2750 0.959 . S
H2736 C2750 0.961 . S
H2737 C2751 0.960 . S
H2738 C2751 0.961 . S
H2739 C2751 0.959 . S
H2740 C2754 0.929 . S
H2741 C2755 0.931 . S
H2742 C2757 0.930 . S
C2743 H2731 0.930 . S
C2743 C2744 1.399 . S
C2743 C2748 1.399 . S
C2744 C2743 1.399 . S
C2744 C2745 1.376 . S
C2745 H2732 0.930 . S
C2745 C2744 1.376 . S
C2745 C2746 1.388 . S
C2746 H2733 0.930 . S
C2746 C2745 1.388 . S
C2746 C2747 1.390 . S
C2747 C2746 1.390 . S
C2747 C2748 1.394 . S
C2747 C2753 1.465 . S
C2748 C2743 1.399 . S
C2748 C2747 1.394 . S
C2748 C2749 1.516 . S
C2749 C2748 1.516 . S
C2749 C2750 1.502 . S
C2749 C2751 1.561 . S
C2749 C2752 1.526 . S
C2750 H2734 0.959 . S
C2750 H2735 0.959 . S
C2750 H2736 0.961 . S
C2750 C2749 1.502 . S
C2751 H2737 0.960 . S
C2751 H2738 0.961 . S
C2751 H2739 0.959 . S
C2751 C2749 1.561 . S
C2752 C2749 1.526 . S
C2752 C2753 1.396 . S
C2752 C2757 1.390 . S
C2753 C2747 1.465 . S
C2753 C2752 1.396 . S
C2753 C2754 1.399 . S
C2754 H2740 0.929 . S
C2754 C2753 1.399 . S
C2754 C2755 1.385 . S
C2755 H2741 0.931 . S
C2755 C2754 1.385 . S
C2755 C2756 1.389 . S
C2756 C2755 1.389 . S
C2756 C2757 1.387 . S
C2757 H2742 0.930 . S
C2757 C2752 1.390 . S
C2757 C2756 1.387 . S
H2758 C2770 0.930 . S
H2759 C2772 0.930 . S
H2760 C2773 0.930 . S
H2761 C2777 0.959 . S
H2762 C2777 0.959 . S
H2763 C2777 0.961 . S
H2764 C2778 0.960 . S
H2765 C2778 0.961 . S
H2766 C2778 0.959 . S
H2767 C2781 0.929 . S
H2768 C2782 0.931 . S
H2769 C2784 0.930 . S
C2770 H2758 0.930 . S
C2770 C2771 1.399 . S
C2770 C2775 1.399 . S
C2771 C2770 1.399 . S
C2771 C2772 1.376 . S
C2772 H2759 0.930 . S
C2772 C2771 1.376 . S
C2772 C2773 1.388 . S
C2773 H2760 0.930 . S
C2773 C2772 1.388 . S
C2773 C2774 1.390 . S
C2774 C2773 1.390 . S
C2774 C2775 1.394 . S
C2774 C2780 1.465 . S
C2775 C2770 1.399 . S
C2775 C2774 1.394 . S
C2775 C2776 1.516 . S
C2776 C2775 1.516 . S
C2776 C2777 1.502 . S
C2776 C2778 1.561 . S
C2776 C2779 1.526 . S
C2777 H2761 0.959 . S
C2777 H2762 0.959 . S
C2777 H2763 0.961 . S
C2777 C2776 1.502 . S
C2778 H2764 0.960 . S
C2778 H2765 0.961 . S
C2778 H2766 0.959 . S
C2778 C2776 1.561 . S
C2779 C2776 1.526 . S
C2779 C2780 1.396 . S
C2779 C2784 1.390 . S
C2780 C2774 1.465 . S
C2780 C2779 1.396 . S
C2780 C2781 1.399 . S
C2781 H2767 0.929 . S
C2781 C2780 1.399 . S
C2781 C2782 1.385 . S
C2782 H2768 0.931 . S
C2782 C2781 1.385 . S
C2782 C2783 1.389 . S
C2783 C2782 1.389 . S
C2783 C2784 1.387 . S
C2784 H2769 0.930 . S
C2784 C2779 1.390 . S
C2784 C2783 1.387 . S
H2785 C2797 0.930 . S
H2786 C2799 0.936 . S
H2787 C2800 0.930 . S
H2788 C2804 0.959 . S
H2789 C2804 0.959 . S
H2790 C2804 0.961 . S
H2791 C2805 0.960 . S
H2792 C2805 0.961 . S
H2793 C2805 0.917 1_565 S
H2794 C2808 0.929 . S
H2795 C2809 0.940 . S
H2796 C2811 0.930 . S
C2797 H2785 0.930 . S
C2797 C2798 1.399 . S
C2797 C2802 1.399 . S
C2798 C2797 1.399 . S
C2798 C2799 1.365 1_554 S
C2799 H2786 0.936 . S
C2799 C2798 1.365 1_556 S
C2799 C2800 1.396 . S
C2800 H2787 0.930 . S
C2800 C2799 1.396 . S
C2800 C2801 1.390 1_556 S
C2801 C2800 1.390 1_554 S
C2801 C2802 1.394 . S
C2801 C2807 1.465 . S
C2802 C2797 1.399 . S
C2802 C2801 1.394 . S
C2802 C2803 1.516 1_565 S
C2803 C2802 1.516 1_545 S
C2803 C2804 1.502 . S
C2803 C2805 1.561 . S
C2803 C2806 1.526 . S
C2804 H2788 0.959 . S
C2804 H2789 0.959 . S
C2804 H2790 0.961 . S
C2804 C2803 1.502 . S
C2805 H2791 0.960 . S
C2805 H2792 0.961 . S
C2805 H2793 0.917 1_545 S
C2805 C2803 1.561 . S
C2806 C2803 1.526 . S
C2806 C2807 1.396 1_545 S
C2806 C2811 1.390 . S
C2807 C2801 1.465 . S
C2807 C2806 1.396 1_565 S
C2807 C2808 1.399 1_554 S
C2808 H2794 0.929 . S
C2808 C2807 1.399 1_556 S
C2808 C2809 1.383 . S
C2809 H2795 0.940 . S
C2809 C2808 1.383 . S
C2809 C2810 1.383 1_566 S
C2810 C2809 1.383 1_544 S
C2810 C2811 1.387 . S
C2811 H2796 0.930 . S
C2811 C2806 1.390 . S
C2811 C2810 1.387 . S
H2812 C2824 0.930 . S
H2813 C2826 0.930 . S
H2814 C2827 0.930 . S
H2815 C2831 0.959 . S
H2816 C2831 0.959 . S
H2817 C2831 0.961 . S
H2818 C2832 0.960 . S
H2819 C2832 0.961 . S
H2820 C2832 0.959 . S
H2821 C2835 0.929 . S
H2822 C2836 0.931 . S
H2823 C2838 0.930 . S
C2824 H2812 0.930 . S
C2824 C2825 1.399 . S
C2824 C2829 1.399 . S
C2825 C2824 1.399 . S
C2825 C2826 1.376 . S
C2826 H2813 0.930 . S
C2826 C2825 1.376 . S
C2826 C2827 1.388 . S
C2827 H2814 0.930 . S
C2827 C2826 1.388 . S
C2827 C2828 1.390 . S
C2828 C2827 1.390 . S
C2828 C2829 1.394 . S
C2828 C2834 1.465 . S
C2829 C2824 1.399 . S
C2829 C2828 1.394 . S
C2829 C2830 1.516 . S
C2830 C2829 1.516 . S
C2830 C2831 1.502 . S
C2830 C2832 1.561 . S
C2830 C2833 1.526 . S
C2831 H2815 0.959 . S
C2831 H2816 0.959 . S
C2831 H2817 0.961 . S
C2831 C2830 1.502 . S
C2832 H2818 0.960 . S
C2832 H2819 0.961 . S
C2832 H2820 0.959 . S
C2832 C2830 1.561 . S
C2833 C2830 1.526 . S
C2833 C2834 1.396 . S
C2833 C2838 1.390 . S
C2834 C2828 1.465 . S
C2834 C2833 1.396 . S
C2834 C2835 1.399 . S
C2835 H2821 0.929 . S
C2835 C2834 1.399 . S
C2835 C2836 1.385 . S
C2836 H2822 0.931 . S
C2836 C2835 1.385 . S
C2836 C2837 1.389 . S
C2837 C2836 1.389 . S
C2837 C2838 1.387 . S
C2838 H2823 0.930 . S
C2838 C2833 1.390 . S
C2838 C2837 1.387 . S
H2839 C2851 0.930 1_556 S
H2840 C2853 0.930 . S
H2841 C2854 0.930 . S
H2842 C2858 0.956 . S
H2843 C2858 0.960 1_556 S
H2844 C2858 0.963 1_556 S
H2845 C2859 0.960 . S
H2846 C2859 0.961 . S
H2847 C2859 0.959 . S
H2848 C2862 0.929 . S
H2849 C2863 0.931 . S
H2850 C2865 0.930 . S
C2851 H2839 0.930 1_554 S
C2851 C2852 1.399 . S
C2851 C2856 1.399 . S
C2852 C2851 1.399 . S
C2852 C2853 1.376 . S
C2853 H2840 0.930 . S
C2853 C2852 1.376 . S
C2853 C2854 1.388 . S
C2854 H2841 0.930 . S
C2854 C2853 1.388 . S
C2854 C2855 1.390 . S
C2855 C2854 1.390 . S
C2855 C2856 1.394 . S
C2855 C2861 1.465 . S
C2856 C2851 1.399 . S
C2856 C2855 1.394 . S
C2856 C2857 1.516 . S
C2857 C2856 1.516 . S
C2857 C2858 1.502 . S
C2857 C2859 1.561 1_554 S
C2857 C2860 1.526 . S
C2858 H2842 0.956 . S
C2858 H2843 0.960 1_554 S
C2858 H2844 0.963 1_554 S
C2858 C2857 1.502 . S
C2859 H2845 0.960 . S
C2859 H2846 0.961 . S
C2859 H2847 0.959 . S
C2859 C2857 1.561 1_556 S
C2860 C2857 1.526 . S
C2860 C2861 1.396 . S
C2860 C2865 1.390 . S
C2861 C2855 1.465 . S
C2861 C2860 1.396 . S
C2861 C2862 1.399 . S
C2862 H2848 0.929 . S
C2862 C2861 1.399 . S
C2862 C2863 1.385 . S
C2863 H2849 0.931 . S
C2863 C2862 1.385 . S
C2863 C2864 1.389 . S
C2864 C2863 1.389 . S
C2864 C2865 1.387 . S
C2865 H2850 0.930 . S
C2865 C2860 1.390 . S
C2865 C2864 1.387 . S
H2866 C2878 0.930 . S
H2867 C2880 0.930 . S
H2868 C2881 0.930 . S
H2869 C2885 0.959 . S
H2870 C2885 0.959 . S
H2871 C2885 0.961 . S
H2872 C2886 0.960 . S
H2873 C2886 0.961 . S
H2874 C2886 0.959 . S
H2875 C2889 0.929 . S
H2876 C2890 0.931 . S
H2877 C2892 0.930 . S
C2878 H2866 0.930 . S
C2878 C2879 1.399 . S
C2878 C2883 1.399 . S
C2879 C2878 1.399 . S
C2879 C2880 1.376 . S
C2880 H2867 0.930 . S
C2880 C2879 1.376 . S
C2880 C2881 1.388 . S
C2881 H2868 0.930 . S
C2881 C2880 1.388 . S
C2881 C2882 1.390 . S
C2882 C2881 1.390 . S
C2882 C2883 1.394 . S
C2882 C2888 1.465 . S
C2883 C2878 1.399 . S
C2883 C2882 1.394 . S
C2883 C2884 1.516 . S
C2884 C2883 1.516 . S
C2884 C2885 1.502 . S
C2884 C2886 1.561 . S
C2884 C2887 1.526 . S
C2885 H2869 0.959 . S
C2885 H2870 0.959 . S
C2885 H2871 0.961 . S
C2885 C2884 1.502 . S
C2886 H2872 0.960 . S
C2886 H2873 0.961 . S
C2886 H2874 0.959 . S
C2886 C2884 1.561 . S
C2887 C2884 1.526 . S
C2887 C2888 1.396 . S
C2887 C2892 1.390 . S
C2888 C2882 1.465 . S
C2888 C2887 1.396 . S
C2888 C2889 1.399 . S
C2889 H2875 0.929 . S
C2889 C2888 1.399 . S
C2889 C2890 1.385 . S
C2890 H2876 0.931 . S
C2890 C2889 1.385 . S
C2890 C2891 1.389 . S
C2891 C2890 1.389 . S
C2891 C2892 1.387 . S
C2892 H2877 0.930 . S
C2892 C2887 1.390 . S
C2892 C2891 1.387 . S
H2893 C2905 0.930 . S
H2894 C2907 0.930 . S
H2895 C2908 0.930 . S
H2896 C2912 0.959 . S
H2897 C2912 0.959 . S
H2898 C2912 0.961 . S
H2899 C2913 0.960 . S
H2900 C2913 0.961 . S
H2901 C2913 0.959 . S
H2902 C2916 0.929 . S
H2903 C2917 0.931 . S
H2904 C2919 0.930 . S
C2905 H2893 0.930 . S
C2905 C2906 1.399 . S
C2905 C2910 1.399 . S
C2906 C2905 1.399 . S
C2906 C2907 1.376 . S
C2907 H2894 0.930 . S
C2907 C2906 1.376 . S
C2907 C2908 1.388 . S
C2908 H2895 0.930 . S
C2908 C2907 1.388 . S
C2908 C2909 1.390 . S
C2909 C2908 1.390 . S
C2909 C2910 1.394 . S
C2909 C2915 1.465 . S
C2910 C2905 1.399 . S
C2910 C2909 1.394 . S
C2910 C2911 1.516 . S
C2911 C2910 1.516 . S
C2911 C2912 1.502 . S
C2911 C2913 1.561 . S
C2911 C2914 1.526 . S
C2912 H2896 0.959 . S
C2912 H2897 0.959 . S
C2912 H2898 0.961 . S
C2912 C2911 1.502 . S
C2913 H2899 0.960 . S
C2913 H2900 0.961 . S
C2913 H2901 0.959 . S
C2913 C2911 1.561 . S
C2914 C2911 1.526 . S
C2914 C2915 1.396 . S
C2914 C2919 1.390 . S
C2915 C2909 1.465 . S
C2915 C2914 1.396 . S
C2915 C2916 1.399 . S
C2916 H2902 0.929 . S
C2916 C2915 1.399 . S
C2916 C2917 1.385 . S
C2917 H2903 0.931 . S
C2917 C2916 1.385 . S
C2917 C2918 1.389 . S
C2918 C2917 1.389 . S
C2918 C2919 1.387 . S
C2919 H2904 0.930 . S
C2919 C2914 1.390 . S
C2919 C2918 1.387 . S
H2920 C2932 0.930 . S
H2921 C2934 0.930 . S
H2922 C2935 0.930 . S
H2923 C2939 0.959 . S
H2924 C2939 0.959 . S
H2925 C2939 0.961 . S
H2926 C2940 0.960 . S
H2927 C2940 0.961 . S
H2928 C2940 0.959 . S
H2929 C2943 0.929 . S
H2930 C2944 0.931 . S
H2931 C2946 0.930 . S
C2932 H2920 0.930 . S
C2932 C2933 1.399 . S
C2932 C2937 1.399 . S
C2933 C2932 1.399 . S
C2933 C2934 1.376 . S
C2934 H2921 0.930 . S
C2934 C2933 1.376 . S
C2934 C2935 1.388 . S
C2935 H2922 0.930 . S
C2935 C2934 1.388 . S
C2935 C2936 1.390 . S
C2936 C2935 1.390 . S
C2936 C2937 1.394 . S
C2936 C2942 1.465 . S
C2937 C2932 1.399 . S
C2937 C2936 1.394 . S
C2937 C2938 1.516 . S
C2938 C2937 1.516 . S
C2938 C2939 1.502 . S
C2938 C2940 1.561 . S
C2938 C2941 1.526 . S
C2939 H2923 0.959 . S
C2939 H2924 0.959 . S
C2939 H2925 0.961 . S
C2939 C2938 1.502 . S
C2940 H2926 0.960 . S
C2940 H2927 0.961 . S
C2940 H2928 0.959 . S
C2940 C2938 1.561 . S
C2941 C2938 1.526 . S
C2941 C2942 1.396 . S
C2941 C2946 1.390 . S
C2942 C2936 1.465 . S
C2942 C2941 1.396 . S
C2942 C2943 1.399 . S
C2943 H2929 0.929 . S
C2943 C2942 1.399 . S
C2943 C2944 1.385 . S
C2944 H2930 0.931 . S
C2944 C2943 1.385 . S
C2944 C2945 1.389 . S
C2945 C2944 1.389 . S
C2945 C2946 1.387 . S
C2946 H2931 0.930 . S
C2946 C2941 1.390 . S
C2946 C2945 1.387 . S
H2947 C2959 0.930 . S
H2948 C2961 0.930 . S
H2949 C2962 0.930 . S
H2950 C2966 0.959 . S
H2951 C2966 0.959 . S
H2952 C2966 0.961 . S
H2953 C2967 0.960 . S
H2954 C2967 0.961 . S
H2955 C2967 0.959 . S
H2956 C2970 0.929 . S
H2957 C2971 0.931 . S
H2958 C2973 0.930 . S
C2959 H2947 0.930 . S
C2959 C2960 1.399 . S
C2959 C2964 1.399 . S
C2960 C2959 1.399 . S
C2960 C2961 1.376 . S
C2961 H2948 0.930 . S
C2961 C2960 1.376 . S
C2961 C2962 1.388 . S
C2962 H2949 0.930 . S
C2962 C2961 1.388 . S
C2962 C2963 1.390 . S
C2963 C2962 1.390 . S
C2963 C2964 1.394 . S
C2963 C2969 1.465 . S
C2964 C2959 1.399 . S
C2964 C2963 1.394 . S
C2964 C2965 1.516 . S
C2965 C2964 1.516 . S
C2965 C2966 1.502 . S
C2965 C2967 1.561 . S
C2965 C2968 1.526 . S
C2966 H2950 0.959 . S
C2966 H2951 0.959 . S
C2966 H2952 0.961 . S
C2966 C2965 1.502 . S
C2967 H2953 0.960 . S
C2967 H2954 0.961 . S
C2967 H2955 0.959 . S
C2967 C2965 1.561 . S
C2968 C2965 1.526 . S
C2968 C2969 1.396 . S
C2968 C2973 1.390 . S
C2969 C2963 1.465 . S
C2969 C2968 1.396 . S
C2969 C2970 1.399 . S
C2970 H2956 0.929 . S
C2970 C2969 1.399 . S
C2970 C2971 1.385 . S
C2971 H2957 0.931 . S
C2971 C2970 1.385 . S
C2971 C2972 1.389 . S
C2972 C2971 1.389 . S
C2972 C2973 1.387 . S
C2973 H2958 0.930 . S
C2973 C2968 1.390 . S
C2973 C2972 1.387 . S
H2974 C2986 0.930 . S
H2975 C2988 0.930 . S
H2976 C2989 0.930 . S
H2977 C2993 0.959 . S
H2978 C2993 0.959 1_556 S
H2979 C2993 0.961 . S
H2980 C2994 0.960 . S
H2981 C2994 0.961 1_556 S
H2982 C2994 0.959 . S
H2983 C2997 0.929 . S
H2984 C2998 0.931 . S
H2985 C3000 0.930 . S
C2986 H2974 0.930 . S
C2986 C2987 1.399 . S
C2986 C2991 1.399 . S
C2987 C2986 1.399 . S
C2987 C2988 1.376 . S
C2988 H2975 0.930 . S
C2988 C2987 1.376 . S
C2988 C2989 1.388 . S
C2989 H2976 0.930 . S
C2989 C2988 1.388 . S
C2989 C2990 1.390 . S
C2990 C2989 1.390 . S
C2990 C2991 1.394 . S
C2990 C2996 1.465 . S
C2991 C2986 1.399 . S
C2991 C2990 1.394 . S
C2991 C2992 1.516 . S
C2992 C2991 1.516 . S
C2992 C2993 1.502 . S
C2992 C2994 1.561 . S
C2992 C2995 1.526 . S
C2993 H2977 0.959 . S
C2993 H2978 0.959 1_554 S
C2993 H2979 0.961 . S
C2993 C2992 1.502 . S
C2994 H2980 0.960 . S
C2994 H2981 0.961 1_554 S
C2994 H2982 0.959 . S
C2994 C2992 1.561 . S
C2995 C2992 1.526 . S
C2995 C2996 1.396 . S
C2995 C3000 1.390 . S
C2996 C2990 1.465 . S
C2996 C2995 1.396 . S
C2996 C2997 1.399 . S
C2997 H2983 0.929 . S
C2997 C2996 1.399 . S
C2997 C2998 1.385 . S
C2998 H2984 0.931 . S
C2998 C2997 1.385 . S
C2998 C2999 1.389 . S
C2999 C2998 1.389 . S
C2999 C3000 1.387 . S
C3000 H2985 0.930 . S
C3000 C2995 1.390 . S
C3000 C2999 1.387 . S
H3001 C3013 0.930 . S
H3002 C3015 0.930 . S
H3003 C3016 0.930 . S
H3004 C3020 0.959 . S
H3005 C3020 0.959 . S
H3006 C3020 0.961 . S
H3007 C3021 0.960 . S
H3008 C3021 0.961 . S
H3009 C3021 0.959 . S
H3010 C3024 0.929 . S
H3011 C3025 0.931 . S
H3012 C3027 0.930 . S
C3013 H3001 0.930 . S
C3013 C3014 1.399 . S
C3013 C3018 1.399 . S
C3014 C3013 1.399 . S
C3014 C3015 1.376 . S
C3015 H3002 0.930 . S
C3015 C3014 1.376 . S
C3015 C3016 1.388 . S
C3016 H3003 0.930 . S
C3016 C3015 1.388 . S
C3016 C3017 1.390 . S
C3017 C3016 1.390 . S
C3017 C3018 1.394 . S
C3017 C3023 1.465 . S
C3018 C3013 1.399 . S
C3018 C3017 1.394 . S
C3018 C3019 1.516 . S
C3019 C3018 1.516 . S
C3019 C3020 1.502 . S
C3019 C3021 1.561 . S
C3019 C3022 1.526 . S
C3020 H3004 0.959 . S
C3020 H3005 0.959 . S
C3020 H3006 0.961 . S
C3020 C3019 1.502 . S
C3021 H3007 0.960 . S
C3021 H3008 0.961 . S
C3021 H3009 0.959 . S
C3021 C3019 1.561 . S
C3022 C3019 1.526 . S
C3022 C3023 1.396 . S
C3022 C3027 1.390 . S
C3023 C3017 1.465 . S
C3023 C3022 1.396 . S
C3023 C3024 1.399 . S
C3024 H3010 0.929 . S
C3024 C3023 1.399 . S
C3024 C3025 1.385 . S
C3025 H3011 0.931 . S
C3025 C3024 1.385 . S
C3025 C3026 1.389 . S
C3026 C3025 1.389 . S
C3026 C3027 1.387 . S
C3027 H3012 0.930 . S
C3027 C3022 1.390 . S
C3027 C3026 1.387 . S
H3028 C3040 0.930 . S
H3029 C3042 0.930 . S
H3030 C3043 0.930 . S
H3031 C3047 0.959 . S
H3032 C3047 0.959 . S
H3033 C3047 0.961 . S
H3034 C3048 0.960 . S
H3035 C3048 0.961 . S
H3036 C3048 0.959 . S
H3037 C3051 0.929 . S
H3038 C3052 0.931 . S
H3039 C3054 0.930 . S
C3040 H3028 0.930 . S
C3040 C3041 1.399 . S
C3040 C3045 1.399 . S
C3041 C3040 1.399 . S
C3041 C3042 1.376 . S
C3042 H3029 0.930 . S
C3042 C3041 1.376 . S
C3042 C3043 1.388 . S
C3043 H3030 0.930 . S
C3043 C3042 1.388 . S
C3043 C3044 1.390 . S
C3044 C3043 1.390 . S
C3044 C3045 1.394 . S
C3044 C3050 1.465 . S
C3045 C3040 1.399 . S
C3045 C3044 1.394 . S
C3045 C3046 1.516 . S
C3046 C3045 1.516 . S
C3046 C3047 1.502 . S
C3046 C3048 1.561 . S
C3046 C3049 1.526 . S
C3047 H3031 0.959 . S
C3047 H3032 0.959 . S
C3047 H3033 0.961 . S
C3047 C3046 1.502 . S
C3048 H3034 0.960 . S
C3048 H3035 0.961 . S
C3048 H3036 0.959 . S
C3048 C3046 1.561 . S
C3049 C3046 1.526 . S
C3049 C3050 1.396 . S
C3049 C3054 1.390 . S
C3050 C3044 1.465 . S
C3050 C3049 1.396 . S
C3050 C3051 1.399 . S
C3051 H3037 0.929 . S
C3051 C3050 1.399 . S
C3051 C3052 1.385 . S
C3052 H3038 0.931 . S
C3052 C3051 1.385 . S
C3052 C3053 1.389 . S
C3053 C3052 1.389 . S
C3053 C3054 1.387 . S
C3054 H3039 0.930 . S
C3054 C3049 1.390 . S
C3054 C3053 1.387 . S
H3055 C3067 0.930 . S
H3056 C3069 0.930 . S
H3057 C3070 0.930 . S
H3058 C3074 0.959 . S
H3059 C3074 0.959 . S
H3060 C3074 0.961 . S
H3061 C3075 0.960 . S
H3062 C3075 0.961 . S
H3063 C3075 0.959 . S
H3064 C3078 0.929 . S
H3065 C3079 0.931 . S
H3066 C3081 0.930 . S
C3067 H3055 0.930 . S
C3067 C3068 1.399 . S
C3067 C3072 1.399 . S
C3068 C3067 1.399 . S
C3068 C3069 1.376 . S
C3069 H3056 0.930 . S
C3069 C3068 1.376 . S
C3069 C3070 1.388 . S
C3070 H3057 0.930 . S
C3070 C3069 1.388 . S
C3070 C3071 1.390 . S
C3071 C3070 1.390 . S
C3071 C3072 1.394 . S
C3071 C3077 1.465 . S
C3072 C3067 1.399 . S
C3072 C3071 1.394 . S
C3072 C3073 1.516 . S
C3073 C3072 1.516 . S
C3073 C3074 1.502 . S
C3073 C3075 1.561 . S
C3073 C3076 1.526 . S
C3074 H3058 0.959 . S
C3074 H3059 0.959 . S
C3074 H3060 0.961 . S
C3074 C3073 1.502 . S
C3075 H3061 0.960 . S
C3075 H3062 0.961 . S
C3075 H3063 0.959 . S
C3075 C3073 1.561 . S
C3076 C3073 1.526 . S
C3076 C3077 1.396 . S
C3076 C3081 1.390 . S
C3077 C3071 1.465 . S
C3077 C3076 1.396 . S
C3077 C3078 1.399 . S
C3078 H3064 0.929 . S
C3078 C3077 1.399 . S
C3078 C3079 1.385 . S
C3079 H3065 0.931 . S
C3079 C3078 1.385 . S
C3079 C3080 1.389 . S
C3080 C3079 1.389 . S
C3080 C3081 1.387 . S
C3081 H3066 0.930 . S
C3081 C3076 1.390 . S
C3081 C3080 1.387 . S
H3082 C3094 0.930 . S
H3083 C3096 0.930 . S
H3084 C3097 0.930 . S
H3085 C3101 0.959 . S
H3086 C3101 0.959 . S
H3087 C3101 0.961 . S
H3088 C3102 0.960 . S
H3089 C3102 0.961 . S
H3090 C3102 0.959 . S
H3091 C3105 0.929 . S
H3092 C3106 0.931 . S
H3093 C3108 0.930 . S
C3094 H3082 0.930 . S
C3094 C3095 1.399 . S
C3094 C3099 1.399 . S
C3095 C3094 1.399 . S
C3095 C3096 1.376 . S
C3096 H3083 0.930 . S
C3096 C3095 1.376 . S
C3096 C3097 1.388 . S
C3097 H3084 0.930 . S
C3097 C3096 1.388 . S
C3097 C3098 1.390 . S
C3098 C3097 1.390 . S
C3098 C3099 1.394 . S
C3098 C3104 1.465 . S
C3099 C3094 1.399 . S
C3099 C3098 1.394 . S
C3099 C3100 1.516 . S
C3100 C3099 1.516 . S
C3100 C3101 1.502 . S
C3100 C3102 1.561 . S
C3100 C3103 1.526 . S
C3101 H3085 0.959 . S
C3101 H3086 0.959 . S
C3101 H3087 0.961 . S
C3101 C3100 1.502 . S
C3102 H3088 0.960 . S
C3102 H3089 0.961 . S
C3102 H3090 0.959 . S
C3102 C3100 1.561 . S
C3103 C3100 1.526 . S
C3103 C3104 1.396 . S
C3103 C3108 1.390 . S
C3104 C3098 1.465 . S
C3104 C3103 1.396 . S
C3104 C3105 1.399 . S
C3105 H3091 0.929 . S
C3105 C3104 1.399 . S
C3105 C3106 1.385 . S
C3106 H3092 0.931 . S
C3106 C3105 1.385 . S
C3106 C3107 1.389 . S
C3107 C3106 1.389 . S
C3107 C3108 1.387 . S
C3108 H3093 0.930 . S
C3108 C3103 1.390 . S
C3108 C3107 1.387 . S
H3109 C3121 0.930 . S
H3110 C3123 0.930 . S
H3111 C3124 0.930 . S
H3112 C3128 0.959 . S
H3113 C3128 0.959 . S
H3114 C3128 0.961 . S
H3115 C3129 0.960 . S
H3116 C3129 0.961 . S
H3117 C3129 0.959 . S
H3118 C3132 0.929 . S
H3119 C3133 0.931 . S
H3120 C3135 0.930 . S
C3121 H3109 0.930 . S
C3121 C3122 1.399 . S
C3121 C3126 1.399 . S
C3122 C3121 1.399 . S
C3122 C3123 1.376 . S
C3123 H3110 0.930 . S
C3123 C3122 1.376 . S
C3123 C3124 1.388 . S
C3124 H3111 0.930 . S
C3124 C3123 1.388 . S
C3124 C3125 1.390 . S
C3125 C3124 1.390 . S
C3125 C3126 1.394 . S
C3125 C3131 1.465 . S
C3126 C3121 1.399 . S
C3126 C3125 1.394 . S
C3126 C3127 1.516 . S
C3127 C3126 1.516 . S
C3127 C3128 1.502 . S
C3127 C3129 1.561 . S
C3127 C3130 1.526 . S
C3128 H3112 0.959 . S
C3128 H3113 0.959 . S
C3128 H3114 0.961 . S
C3128 C3127 1.502 . S
C3129 H3115 0.960 . S
C3129 H3116 0.961 . S
C3129 H3117 0.959 . S
C3129 C3127 1.561 . S
C3130 C3127 1.526 . S
C3130 C3131 1.396 . S
C3130 C3135 1.390 . S
C3131 C3125 1.465 . S
C3131 C3130 1.396 . S
C3131 C3132 1.399 . S
C3132 H3118 0.929 . S
C3132 C3131 1.399 . S
C3132 C3133 1.385 . S
C3133 H3119 0.931 . S
C3133 C3132 1.385 . S
C3133 C3134 1.389 . S
C3134 C3133 1.389 . S
C3134 C3135 1.387 . S
C3135 H3120 0.930 . S
C3135 C3130 1.390 . S
C3135 C3134 1.387 . S
H3136 C3148 0.930 . S
H3137 C3150 0.930 . S
H3138 C3151 0.930 . S
H3139 C3155 0.959 . S
H3140 C3155 0.959 . S
H3141 C3155 0.961 . S
H3142 C3156 0.960 . S
H3143 C3156 0.961 . S
H3144 C3156 0.959 . S
H3145 C3159 0.929 . S
H3146 C3160 0.931 . S
H3147 C3162 0.930 . S
C3148 H3136 0.930 . S
C3148 C3149 1.399 . S
C3148 C3153 1.399 . S
C3149 C3148 1.399 . S
C3149 C3150 1.376 . S
C3150 H3137 0.930 . S
C3150 C3149 1.376 . S
C3150 C3151 1.388 . S
C3151 H3138 0.930 . S
C3151 C3150 1.388 . S
C3151 C3152 1.390 . S
C3152 C3151 1.390 . S
C3152 C3153 1.394 . S
C3152 C3158 1.465 . S
C3153 C3148 1.399 . S
C3153 C3152 1.394 . S
C3153 C3154 1.516 . S
C3154 C3153 1.516 . S
C3154 C3155 1.502 . S
C3154 C3156 1.561 . S
C3154 C3157 1.526 . S
C3155 H3139 0.959 . S
C3155 H3140 0.959 . S
C3155 H3141 0.961 . S
C3155 C3154 1.502 . S
C3156 H3142 0.960 . S
C3156 H3143 0.961 . S
C3156 H3144 0.959 . S
C3156 C3154 1.561 . S
C3157 C3154 1.526 . S
C3157 C3158 1.396 . S
C3157 C3162 1.390 . S
C3158 C3152 1.465 . S
C3158 C3157 1.396 . S
C3158 C3159 1.399 . S
C3159 H3145 0.929 . S
C3159 C3158 1.399 . S
C3159 C3160 1.385 . S
C3160 H3146 0.931 . S
C3160 C3159 1.385 . S
C3160 C3161 1.389 . S
C3161 C3160 1.389 . S
C3161 C3162 1.387 . S
C3162 H3147 0.930 . S
C3162 C3157 1.390 . S
C3162 C3161 1.387 . S
H3163 C3175 0.930 . S
H3164 C3177 0.930 . S
H3165 C3178 0.930 . S
H3166 C3182 0.959 . S
H3167 C3182 0.959 . S
H3168 C3182 0.961 . S
H3169 C3183 0.960 . S
H3170 C3183 0.961 . S
H3171 C3183 0.959 . S
H3172 C3186 0.929 . S
H3173 C3187 0.931 . S
H3174 C3189 0.930 . S
C3175 H3163 0.930 . S
C3175 C3176 1.399 . S
C3175 C3180 1.399 . S
C3176 C3175 1.399 . S
C3176 C3177 1.376 . S
C3177 H3164 0.930 . S
C3177 C3176 1.376 . S
C3177 C3178 1.388 . S
C3178 H3165 0.930 . S
C3178 C3177 1.388 . S
C3178 C3179 1.390 . S
C3179 C3178 1.390 . S
C3179 C3180 1.394 . S
C3179 C3185 1.465 . S
C3180 C3175 1.399 . S
C3180 C3179 1.394 . S
C3180 C3181 1.516 . S
C3181 C3180 1.516 . S
C3181 C3182 1.502 . S
C3181 C3183 1.561 . S
C3181 C3184 1.526 . S
C3182 H3166 0.959 . S
C3182 H3167 0.959 . S
C3182 H3168 0.961 . S
C3182 C3181 1.502 . S
C3183 H3169 0.960 . S
C3183 H3170 0.961 . S
C3183 H3171 0.959 . S
C3183 C3181 1.561 . S
C3184 C3181 1.526 . S
C3184 C3185 1.396 . S
C3184 C3189 1.390 . S
C3185 C3179 1.465 . S
C3185 C3184 1.396 . S
C3185 C3186 1.399 . S
C3186 H3172 0.929 . S
C3186 C3185 1.399 . S
C3186 C3187 1.385 . S
C3187 H3173 0.931 . S
C3187 C3186 1.385 . S
C3187 C3188 1.389 . S
C3188 C3187 1.389 . S
C3188 C3189 1.387 . S
C3189 H3174 0.930 . S
C3189 C3184 1.390 . S
C3189 C3188 1.387 . S
H3190 C3202 0.930 . S
H3191 C3204 0.930 . S
H3192 C3205 0.895 1_455 S
H3193 C3209 0.959 . S
H3194 C3209 0.959 . S
H3195 C3209 0.961 . S
H3196 C3210 0.960 . S
H3197 C3210 0.961 . S
H3198 C3210 0.959 . S
H3199 C3213 0.929 . S
H3200 C3214 0.931 . S
H3201 C3216 0.930 1_655 S
C3202 H3190 0.930 . S
C3202 C3203 1.399 . S
C3202 C3207 1.399 . S
C3203 C3202 1.399 . S
C3203 C3204 1.376 . S
C3204 H3191 0.930 . S
C3204 C3203 1.376 . S
C3204 C3205 1.417 . S
C3205 H3192 0.895 1_655 S
C3205 C3204 1.417 . S
C3205 C3206 1.398 . S
C3206 C3205 1.398 . S
C3206 C3207 1.394 . S
C3206 C3212 1.465 1_655 S
C3207 C3202 1.399 . S
C3207 C3206 1.394 . S
C3207 C3208 1.516 . S
C3208 C3207 1.516 . S
C3208 C3209 1.502 . S
C3208 C3210 1.561 . S
C3208 C3211 1.526 . S
C3209 H3193 0.959 . S
C3209 H3194 0.959 . S
C3209 H3195 0.961 . S
C3209 C3208 1.502 . S
C3210 H3196 0.960 . S
C3210 H3197 0.961 . S
C3210 H3198 0.959 . S
C3210 C3208 1.561 . S
C3211 C3208 1.526 . S
C3211 C3212 1.396 1_655 S
C3211 C3216 1.390 1_655 S
C3212 C3206 1.465 1_455 S
C3212 C3211 1.396 1_455 S
C3212 C3213 1.399 . S
C3213 H3199 0.929 . S
C3213 C3212 1.399 . S
C3213 C3214 1.385 . S
C3214 H3200 0.931 . S
C3214 C3213 1.385 . S
C3214 C3215 1.389 . S
C3215 C3214 1.389 . S
C3215 C3216 1.387 . S
C3216 H3201 0.930 1_455 S
C3216 C3211 1.390 1_455 S
C3216 C3215 1.387 . S
H3217 C3229 0.930 . S
H3218 C3231 0.930 . S
H3219 C3232 0.930 . S
H3220 C3236 0.959 . S
H3221 C3236 0.959 . S
H3222 C3236 0.961 . S
H3223 C3237 0.960 . S
H3224 C3237 0.961 . S
H3225 C3237 0.959 . S
H3226 C3240 0.929 . S
H3227 C3241 0.931 . S
H3228 C3243 0.930 . S
C3229 H3217 0.930 . S
C3229 C3230 1.399 . S
C3229 C3234 1.399 . S
C3230 C3229 1.399 . S
C3230 C3231 1.376 . S
C3231 H3218 0.930 . S
C3231 C3230 1.376 . S
C3231 C3232 1.388 . S
C3232 H3219 0.930 . S
C3232 C3231 1.388 . S
C3232 C3233 1.390 . S
C3233 C3232 1.390 . S
C3233 C3234 1.394 . S
C3233 C3239 1.465 . S
C3234 C3229 1.399 . S
C3234 C3233 1.394 . S
C3234 C3235 1.516 . S
C3235 C3234 1.516 . S
C3235 C3236 1.502 . S
C3235 C3237 1.561 . S
C3235 C3238 1.526 . S
C3236 H3220 0.959 . S
C3236 H3221 0.959 . S
C3236 H3222 0.961 . S
C3236 C3235 1.502 . S
C3237 H3223 0.960 . S
C3237 H3224 0.961 . S
C3237 H3225 0.959 . S
C3237 C3235 1.561 . S
C3238 C3235 1.526 . S
C3238 C3239 1.396 . S
C3238 C3243 1.390 . S
C3239 C3233 1.465 . S
C3239 C3238 1.396 . S
C3239 C3240 1.399 . S
C3240 H3226 0.929 . S
C3240 C3239 1.399 . S
C3240 C3241 1.385 . S
C3241 H3227 0.931 . S
C3241 C3240 1.385 . S
C3241 C3242 1.389 . S
C3242 C3241 1.389 . S
C3242 C3243 1.387 . S
C3243 H3228 0.930 . S
C3243 C3238 1.390 . S
C3243 C3242 1.387 . S
H3244 C3256 0.930 . S
H3245 C3258 0.930 . S
H3246 C3259 0.930 . S
H3247 C3263 0.959 . S
H3248 C3263 0.959 . S
H3249 C3263 0.961 . S
H3250 C3264 0.960 . S
H3251 C3264 0.961 . S
H3252 C3264 0.959 . S
H3253 C3267 0.929 . S
H3254 C3268 0.931 . S
H3255 C3270 0.930 . S
C3256 H3244 0.930 . S
C3256 C3257 1.399 . S
C3256 C3261 1.399 . S
C3257 C3256 1.399 . S
C3257 C3258 1.376 . S
C3258 H3245 0.930 . S
C3258 C3257 1.376 . S
C3258 C3259 1.388 . S
C3259 H3246 0.930 . S
C3259 C3258 1.388 . S
C3259 C3260 1.390 . S
C3260 C3259 1.390 . S
C3260 C3261 1.394 . S
C3260 C3266 1.465 . S
C3261 C3256 1.399 . S
C3261 C3260 1.394 . S
C3261 C3262 1.516 . S
C3262 C3261 1.516 . S
C3262 C3263 1.502 . S
C3262 C3264 1.561 . S
C3262 C3265 1.526 . S
C3263 H3247 0.959 . S
C3263 H3248 0.959 . S
C3263 H3249 0.961 . S
C3263 C3262 1.502 . S
C3264 H3250 0.960 . S
C3264 H3251 0.961 . S
C3264 H3252 0.959 . S
C3264 C3262 1.561 . S
C3265 C3262 1.526 . S
C3265 C3266 1.396 . S
C3265 C3270 1.390 . S
C3266 C3260 1.465 . S
C3266 C3265 1.396 . S
C3266 C3267 1.399 . S
C3267 H3253 0.929 . S
C3267 C3266 1.399 . S
C3267 C3268 1.385 . S
C3268 H3254 0.931 . S
C3268 C3267 1.385 . S
C3268 C3269 1.389 . S
C3269 C3268 1.389 . S
C3269 C3270 1.387 . S
C3270 H3255 0.930 . S
C3270 C3265 1.390 . S
C3270 C3269 1.387 . S
H3271 C3283 0.930 . S
H3272 C3285 0.930 . S
H3273 C3286 0.930 . S
H3274 C3290 0.959 . S
H3275 C3290 0.959 . S
H3276 C3290 0.961 . S
H3277 C3291 0.960 . S
H3278 C3291 0.961 . S
H3279 C3291 0.959 . S
H3280 C3294 0.929 . S
H3281 C3295 0.931 . S
H3282 C3297 0.930 . S
C3283 H3271 0.930 . S
C3283 C3284 1.399 . S
C3283 C3288 1.399 . S
C3284 C3283 1.399 . S
C3284 C3285 1.376 . S
C3285 H3272 0.930 . S
C3285 C3284 1.376 . S
C3285 C3286 1.388 . S
C3286 H3273 0.930 . S
C3286 C3285 1.388 . S
C3286 C3287 1.390 . S
C3287 C3286 1.390 . S
C3287 C3288 1.394 . S
C3287 C3293 1.465 . S
C3288 C3283 1.399 . S
C3288 C3287 1.394 . S
C3288 C3289 1.516 . S
C3289 C3288 1.516 . S
C3289 C3290 1.502 . S
C3289 C3291 1.561 . S
C3289 C3292 1.526 . S
C3290 H3274 0.959 . S
C3290 H3275 0.959 . S
C3290 H3276 0.961 . S
C3290 C3289 1.502 . S
C3291 H3277 0.960 . S
C3291 H3278 0.961 . S
C3291 H3279 0.959 . S
C3291 C3289 1.561 . S
C3292 C3289 1.526 . S
C3292 C3293 1.396 . S
C3292 C3297 1.390 . S
C3293 C3287 1.465 . S
C3293 C3292 1.396 . S
C3293 C3294 1.399 . S
C3294 H3280 0.929 . S
C3294 C3293 1.399 . S
C3294 C3295 1.385 . S
C3295 H3281 0.931 . S
C3295 C3294 1.385 . S
C3295 C3296 1.389 . S
C3296 C3295 1.389 . S
C3296 C3297 1.387 . S
C3297 H3282 0.930 . S
C3297 C3292 1.390 . S
C3297 C3296 1.387 . S
H3298 C3310 0.930 . S
H3299 C3312 0.930 . S
H3300 C3313 0.930 . S
H3301 C3317 0.959 . S
H3302 C3317 0.959 . S
H3303 C3317 0.961 . S
H3304 C3318 0.960 . S
H3305 C3318 0.961 . S
H3306 C3318 0.959 . S
H3307 C3321 0.929 . S
H3308 C3322 0.931 . S
H3309 C3324 0.930 . S
C3310 H3298 0.930 . S
C3310 C3311 1.399 . S
C3310 C3315 1.399 . S
C3311 C3310 1.399 . S
C3311 C3312 1.376 . S
C3312 H3299 0.930 . S
C3312 C3311 1.376 . S
C3312 C3313 1.388 . S
C3313 H3300 0.930 . S
C3313 C3312 1.388 . S
C3313 C3314 1.390 . S
C3314 C3313 1.390 . S
C3314 C3315 1.394 . S
C3314 C3320 1.465 . S
C3315 C3310 1.399 . S
C3315 C3314 1.394 . S
C3315 C3316 1.516 . S
C3316 C3315 1.516 . S
C3316 C3317 1.502 . S
C3316 C3318 1.561 . S
C3316 C3319 1.526 . S
C3317 H3301 0.959 . S
C3317 H3302 0.959 . S
C3317 H3303 0.961 . S
C3317 C3316 1.502 . S
C3318 H3304 0.960 . S
C3318 H3305 0.961 . S
C3318 H3306 0.959 . S
C3318 C3316 1.561 . S
C3319 C3316 1.526 . S
C3319 C3320 1.396 . S
C3319 C3324 1.390 . S
C3320 C3314 1.465 . S
C3320 C3319 1.396 . S
C3320 C3321 1.399 . S
C3321 H3307 0.929 . S
C3321 C3320 1.399 . S
C3321 C3322 1.385 . S
C3322 H3308 0.931 . S
C3322 C3321 1.385 . S
C3322 C3323 1.389 . S
C3323 C3322 1.389 . S
C3323 C3324 1.387 . S
C3324 H3309 0.930 . S
C3324 C3319 1.390 . S
C3324 C3323 1.387 . S
H3325 C3337 0.930 . S
H3326 C3339 0.930 . S
H3327 C3340 0.930 . S
H3328 C3344 0.959 . S
H3329 C3344 0.959 . S
H3330 C3344 0.961 . S
H3331 C3345 0.960 . S
H3332 C3345 0.961 . S
H3333 C3345 0.959 . S
H3334 C3348 0.929 . S
H3335 C3349 0.931 . S
H3336 C3351 0.930 . S
C3337 H3325 0.930 . S
C3337 C3338 1.399 . S
C3337 C3342 1.399 . S
C3338 C3337 1.399 . S
C3338 C3339 1.376 . S
C3339 H3326 0.930 . S
C3339 C3338 1.376 . S
C3339 C3340 1.388 . S
C3340 H3327 0.930 . S
C3340 C3339 1.388 . S
C3340 C3341 1.390 . S
C3341 C3340 1.390 . S
C3341 C3342 1.394 . S
C3341 C3347 1.465 . S
C3342 C3337 1.399 . S
C3342 C3341 1.394 . S
C3342 C3343 1.516 . S
C3343 C3342 1.516 . S
C3343 C3344 1.502 . S
C3343 C3345 1.561 . S
C3343 C3346 1.526 . S
C3344 H3328 0.959 . S
C3344 H3329 0.959 . S
C3344 H3330 0.961 . S
C3344 C3343 1.502 . S
C3345 H3331 0.960 . S
C3345 H3332 0.961 . S
C3345 H3333 0.959 . S
C3345 C3343 1.561 . S
C3346 C3343 1.526 . S
C3346 C3347 1.396 . S
C3346 C3351 1.390 . S
C3347 C3341 1.465 . S
C3347 C3346 1.396 . S
C3347 C3348 1.399 . S
C3348 H3334 0.929 . S
C3348 C3347 1.399 . S
C3348 C3349 1.385 . S
C3349 H3335 0.931 . S
C3349 C3348 1.385 . S
C3349 C3350 1.389 . S
C3350 C3349 1.389 . S
C3350 C3351 1.387 . S
C3351 H3336 0.930 . S
C3351 C3346 1.390 . S
C3351 C3350 1.387 . S
H3352 C3364 0.930 . S
H3353 C3366 0.930 . S
H3354 C3367 0.930 . S
H3355 C3371 0.959 . S
H3356 C3371 0.959 . S
H3357 C3371 0.961 . S
H3358 C3372 0.960 . S
H3359 C3372 0.961 . S
H3360 C3372 0.959 . S
H3361 C3375 0.929 . S
H3362 C3376 0.931 . S
H3363 C3378 0.930 . S
C3364 H3352 0.930 . S
C3364 C3365 1.399 . S
C3364 C3369 1.399 . S
C3365 C3364 1.399 . S
C3365 C3366 1.376 . S
C3366 H3353 0.930 . S
C3366 C3365 1.376 . S
C3366 C3367 1.388 . S
C3367 H3354 0.930 . S
C3367 C3366 1.388 . S
C3367 C3368 1.390 . S
C3368 C3367 1.390 . S
C3368 C3369 1.394 . S
C3368 C3374 1.465 . S
C3369 C3364 1.399 . S
C3369 C3368 1.394 . S
C3369 C3370 1.516 . S
C3370 C3369 1.516 . S
C3370 C3371 1.502 . S
C3370 C3372 1.561 . S
C3370 C3373 1.526 . S
C3371 H3355 0.959 . S
C3371 H3356 0.959 . S
C3371 H3357 0.961 . S
C3371 C3370 1.502 . S
C3372 H3358 0.960 . S
C3372 H3359 0.961 . S
C3372 H3360 0.959 . S
C3372 C3370 1.561 . S
C3373 C3370 1.526 . S
C3373 C3374 1.396 . S
C3373 C3378 1.390 . S
C3374 C3368 1.465 . S
C3374 C3373 1.396 . S
C3374 C3375 1.399 . S
C3375 H3361 0.929 . S
C3375 C3374 1.399 . S
C3375 C3376 1.385 . S
C3376 H3362 0.931 . S
C3376 C3375 1.385 . S
C3376 C3377 1.389 . S
C3377 C3376 1.389 . S
C3377 C3378 1.387 . S
C3378 H3363 0.930 . S
C3378 C3373 1.390 . S
C3378 C3377 1.387 . S
H3379 C3391 0.930 . S
H3380 C3393 0.930 . S
H3381 C3394 0.930 . S
H3382 C3398 0.977 . S
H3383 C3398 0.959 1_545 S
H3384 C3398 0.961 . S
H3385 C3399 0.960 . S
H3386 C3399 0.961 . S
H3387 C3399 0.959 . S
H3388 C3402 0.929 . S
H3389 C3403 0.931 . S
H3390 C3405 0.930 1_545 S
C3391 H3379 0.930 . S
C3391 C3392 1.399 . S
C3391 C3396 1.399 . S
C3392 C3391 1.399 . S
C3392 C3393 1.376 . S
C3393 H3380 0.930 . S
C3393 C3392 1.376 . S
C3393 C3394 1.388 . S
C3394 H3381 0.930 . S
C3394 C3393 1.388 . S
C3394 C3395 1.390 . S
C3395 C3394 1.390 . S
C3395 C3396 1.394 . S
C3395 C3401 1.465 . S
C3396 C3391 1.399 . S
C3396 C3395 1.394 . S
C3396 C3397 1.516 . S
C3397 C3396 1.516 . S
C3397 C3398 1.502 . S
C3397 C3399 1.561 . S
C3397 C3400 1.526 . S
C3398 H3382 0.977 . S
C3398 H3383 0.959 1_565 S
C3398 H3384 0.961 . S
C3398 C3397 1.502 . S
C3399 H3385 0.960 . S
C3399 H3386 0.961 . S
C3399 H3387 0.959 . S
C3399 C3397 1.561 . S
C3400 C3397 1.526 . S
C3400 C3401 1.396 . S
C3400 C3405 1.390 . S
C3401 C3395 1.465 . S
C3401 C3400 1.396 . S
C3401 C3402 1.399 . S
C3402 H3388 0.929 . S
C3402 C3401 1.399 . S
C3402 C3403 1.385 . S
C3403 H3389 0.931 . S
C3403 C3402 1.385 . S
C3403 C3404 1.389 . S
C3404 C3403 1.389 . S
C3404 C3405 1.387 . S
C3405 H3390 0.930 1_565 S
C3405 C3400 1.390 . S
C3405 C3404 1.387 . S
H3406 C3418 0.930 . S
H3407 C3420 0.930 . S
H3408 C3421 0.930 . S
H3409 C3425 0.959 . S
H3410 C3425 0.959 . S
H3411 C3425 0.961 . S
H3412 C3426 0.960 . S
H3413 C3426 0.961 . S
H3414 C3426 0.959 . S
H3415 C3429 0.929 . S
H3416 C3430 0.931 . S
H3417 C3432 0.930 . S
C3418 H3406 0.930 . S
C3418 C3419 1.399 . S
C3418 C3423 1.399 . S
C3419 C3418 1.399 . S
C3419 C3420 1.376 . S
C3420 H3407 0.930 . S
C3420 C3419 1.376 . S
C3420 C3421 1.388 . S
C3421 H3408 0.930 . S
C3421 C3420 1.388 . S
C3421 C3422 1.390 . S
C3422 C3421 1.390 . S
C3422 C3423 1.394 . S
C3422 C3428 1.465 . S
C3423 C3418 1.399 . S
C3423 C3422 1.394 . S
C3423 C3424 1.516 . S
C3424 C3423 1.516 . S
C3424 C3425 1.502 . S
C3424 C3426 1.561 . S
C3424 C3427 1.526 . S
C3425 H3409 0.959 . S
C3425 H3410 0.959 . S
C3425 H3411 0.961 . S
C3425 C3424 1.502 . S
C3426 H3412 0.960 . S
C3426 H3413 0.961 . S
C3426 H3414 0.959 . S
C3426 C3424 1.561 . S
C3427 C3424 1.526 . S
C3427 C3428 1.396 . S
C3427 C3432 1.390 . S
C3428 C3422 1.465 . S
C3428 C3427 1.396 . S
C3428 C3429 1.399 . S
C3429 H3415 0.929 . S
C3429 C3428 1.399 . S
C3429 C3430 1.385 . S
C3430 H3416 0.931 . S
C3430 C3429 1.385 . S
C3430 C3431 1.389 . S
C3431 C3430 1.389 . S
C3431 C3432 1.387 . S
C3432 H3417 0.930 . S
C3432 C3427 1.390 . S
C3432 C3431 1.387 . S
H3433 C3445 0.930 . S
H3434 C3447 0.930 . S
H3435 C3448 0.930 . S
H3436 C3452 0.959 . S
H3437 C3452 0.959 . S
H3438 C3452 0.961 . S
H3439 C3453 0.960 . S
H3440 C3453 0.961 . S
H3441 C3453 0.959 . S
H3442 C3456 0.929 . S
H3443 C3457 0.931 . S
H3444 C3459 0.930 . S
C3445 H3433 0.930 . S
C3445 C3446 1.399 . S
C3445 C3450 1.399 . S
C3446 C3445 1.399 . S
C3446 C3447 1.376 1_554 S
C3447 H3434 0.930 . S
C3447 C3446 1.376 1_556 S
C3447 C3448 1.388 . S
C3448 H3435 0.930 . S
C3448 C3447 1.388 . S
C3448 C3449 1.383 1_556 S
C3449 C3448 1.383 1_554 S
C3449 C3450 1.400 . S
C3449 C3455 1.467 . S
C3450 C3445 1.399 . S
C3450 C3449 1.400 . S
C3450 C3451 1.516 . S
C3451 C3450 1.516 . S
C3451 C3452 1.502 . S
C3451 C3453 1.561 . S
C3451 C3454 1.526 . S
C3452 H3436 0.959 . S
C3452 H3437 0.959 . S
C3452 H3438 0.961 . S
C3452 C3451 1.502 . S
C3453 H3439 0.960 . S
C3453 H3440 0.961 . S
C3453 H3441 0.959 . S
C3453 C3451 1.561 . S
C3454 C3451 1.526 . S
C3454 C3455 1.398 . S
C3454 C3459 1.390 . S
C3455 C3449 1.467 . S
C3455 C3454 1.398 . S
C3455 C3456 1.397 1_554 S
C3456 H3442 0.929 . S
C3456 C3455 1.397 1_556 S
C3456 C3457 1.385 . S
C3457 H3443 0.931 . S
C3457 C3456 1.385 . S
C3457 C3458 1.389 1_556 S
C3458 C3457 1.389 1_554 S
C3458 C3459 1.387 . S
C3459 H3444 0.930 . S
C3459 C3454 1.390 . S
C3459 C3458 1.387 . S
H3460 C3472 0.930 . S
H3461 C3474 0.930 . S
H3462 C3475 0.930 . S
H3463 C3479 0.959 . S
H3464 C3479 0.959 . S
H3465 C3479 0.961 . S
H3466 C3480 0.960 . S
H3467 C3480 0.961 . S
H3468 C3480 0.959 . S
H3469 C3483 0.929 . S
H3470 C3484 0.931 . S
H3471 C3486 0.930 . S
C3472 H3460 0.930 . S
C3472 C3473 1.399 . S
C3472 C3477 1.399 . S
C3473 C3472 1.399 . S
C3473 C3474 1.376 . S
C3474 H3461 0.930 . S
C3474 C3473 1.376 . S
C3474 C3475 1.388 . S
C3475 H3462 0.930 . S
C3475 C3474 1.388 . S
C3475 C3476 1.390 . S
C3476 C3475 1.390 . S
C3476 C3477 1.394 . S
C3476 C3482 1.465 . S
C3477 C3472 1.399 . S
C3477 C3476 1.394 . S
C3477 C3478 1.516 . S
C3478 C3477 1.516 . S
C3478 C3479 1.502 . S
C3478 C3480 1.561 . S
C3478 C3481 1.526 . S
C3479 H3463 0.959 . S
C3479 H3464 0.959 . S
C3479 H3465 0.961 . S
C3479 C3478 1.502 . S
C3480 H3466 0.960 . S
C3480 H3467 0.961 . S
C3480 H3468 0.959 . S
C3480 C3478 1.561 . S
C3481 C3478 1.526 . S
C3481 C3482 1.396 . S
C3481 C3486 1.390 . S
C3482 C3476 1.465 . S
C3482 C3481 1.396 . S
C3482 C3483 1.399 . S
C3483 H3469 0.929 . S
C3483 C3482 1.399 . S
C3483 C3484 1.385 . S
C3484 H3470 0.931 . S
C3484 C3483 1.385 . S
C3484 C3485 1.389 . S
C3485 C3484 1.389 . S
C3485 C3486 1.387 . S
C3486 H3471 0.930 . S
C3486 C3481 1.390 . S
C3486 C3485 1.387 . S
H3487 C3499 0.930 . S
H3488 C3501 0.930 . S
H3489 C3502 0.930 . S
H3490 C3506 0.959 . S
H3491 C3506 0.959 . S
H3492 C3506 0.961 . S
H3493 C3507 0.960 . S
H3494 C3507 0.961 . S
H3495 C3507 0.959 . S
H3496 C3510 0.929 . S
H3497 C3511 0.931 . S
H3498 C3513 0.930 . S
C3499 H3487 0.930 . S
C3499 C3500 1.399 1_556 S
C3499 C3504 1.399 . S
C3500 C3499 1.399 1_554 S
C3500 C3501 1.376 . S
C3501 H3488 0.930 . S
C3501 C3500 1.376 . S
C3501 C3502 1.388 . S
C3502 H3489 0.930 . S
C3502 C3501 1.388 . S
C3502 C3503 1.390 . S
C3503 C3502 1.390 . S
C3503 C3504 1.394 1_554 S
C3503 C3509 1.465 . S
C3504 C3499 1.399 . S
C3504 C3503 1.394 1_556 S
C3504 C3505 1.516 . S
C3505 C3504 1.516 . S
C3505 C3506 1.502 . S
C3505 C3507 1.561 . S
C3505 C3508 1.526 . S
C3506 H3490 0.959 . S
C3506 H3491 0.959 . S
C3506 H3492 0.961 . S
C3506 C3505 1.502 . S
C3507 H3493 0.960 . S
C3507 H3494 0.961 . S
C3507 H3495 0.959 . S
C3507 C3505 1.561 . S
C3508 C3505 1.526 . S
C3508 C3509 1.396 1_556 S
C3508 C3513 1.390 . S
C3509 C3503 1.465 . S
C3509 C3508 1.396 1_554 S
C3509 C3510 1.399 . S
C3510 H3496 0.929 . S
C3510 C3509 1.399 . S
C3510 C3511 1.385 . S
C3511 H3497 0.931 . S
C3511 C3510 1.385 . S
C3511 C3512 1.389 1_554 S
C3512 C3511 1.389 1_556 S
C3512 C3513 1.387 . S
C3513 H3498 0.930 . S
C3513 C3508 1.390 . S
C3513 C3512 1.387 . S
H3514 C3526 0.930 . S
H3515 C3528 0.930 . S
H3516 C3529 0.930 . S
H3517 C3533 0.959 . S
H3518 C3533 0.959 . S
H3519 C3533 0.961 . S
H3520 C3534 0.960 . S
H3521 C3534 0.961 . S
H3522 C3534 0.959 . S
H3523 C3537 0.929 . S
H3524 C3538 0.931 . S
H3525 C3540 0.930 . S
C3526 H3514 0.930 . S
C3526 C3527 1.399 . S
C3526 C3531 1.399 . S
C3527 C3526 1.399 . S
C3527 C3528 1.376 . S
C3528 H3515 0.930 . S
C3528 C3527 1.376 . S
C3528 C3529 1.388 . S
C3529 H3516 0.930 . S
C3529 C3528 1.388 . S
C3529 C3530 1.390 . S
C3530 C3529 1.390 . S
C3530 C3531 1.394 . S
C3530 C3536 1.465 . S
C3531 C3526 1.399 . S
C3531 C3530 1.394 . S
C3531 C3532 1.516 . S
C3532 C3531 1.516 . S
C3532 C3533 1.502 . S
C3532 C3534 1.561 . S
C3532 C3535 1.526 . S
C3533 H3517 0.959 . S
C3533 H3518 0.959 . S
C3533 H3519 0.961 . S
C3533 C3532 1.502 . S
C3534 H3520 0.960 . S
C3534 H3521 0.961 . S
C3534 H3522 0.959 . S
C3534 C3532 1.561 . S
C3535 C3532 1.526 . S
C3535 C3536 1.396 . S
C3535 C3540 1.390 . S
C3536 C3530 1.465 . S
C3536 C3535 1.396 . S
C3536 C3537 1.399 . S
C3537 H3523 0.929 . S
C3537 C3536 1.399 . S
C3537 C3538 1.385 . S
C3538 H3524 0.931 . S
C3538 C3537 1.385 . S
C3538 C3539 1.389 . S
C3539 C3538 1.389 . S
C3539 C3540 1.387 . S
C3540 H3525 0.930 . S
C3540 C3535 1.390 . S
C3540 C3539 1.387 . S
H3541 C3553 0.930 . S
H3542 C3555 0.930 . S
H3543 C3556 0.930 . S
H3544 C3560 0.959 . S
H3545 C3560 0.959 . S
H3546 C3560 0.961 . S
H3547 C3561 0.960 . S
H3548 C3561 0.961 . S
H3549 C3561 0.959 . S
H3550 C3564 0.929 . S
H3551 C3565 0.931 . S
H3552 C3567 0.930 . S
C3553 H3541 0.930 . S
C3553 C3554 1.399 . S
C3553 C3558 1.399 . S
C3554 C3553 1.399 . S
C3554 C3555 1.376 . S
C3555 H3542 0.930 . S
C3555 C3554 1.376 . S
C3555 C3556 1.388 . S
C3556 H3543 0.930 . S
C3556 C3555 1.388 . S
C3556 C3557 1.390 . S
C3557 C3556 1.390 . S
C3557 C3558 1.394 . S
C3557 C3563 1.465 . S
C3558 C3553 1.399 . S
C3558 C3557 1.394 . S
C3558 C3559 1.516 . S
C3559 C3558 1.516 . S
C3559 C3560 1.502 . S
C3559 C3561 1.561 . S
C3559 C3562 1.526 . S
C3560 H3544 0.959 . S
C3560 H3545 0.959 . S
C3560 H3546 0.961 . S
C3560 C3559 1.502 . S
C3561 H3547 0.960 . S
C3561 H3548 0.961 . S
C3561 H3549 0.959 . S
C3561 C3559 1.561 . S
C3562 C3559 1.526 . S
C3562 C3563 1.396 . S
C3562 C3567 1.390 . S
C3563 C3557 1.465 . S
C3563 C3562 1.396 . S
C3563 C3564 1.399 . S
C3564 H3550 0.929 . S
C3564 C3563 1.399 . S
C3564 C3565 1.385 . S
C3565 H3551 0.931 . S
C3565 C3564 1.385 . S
C3565 C3566 1.389 . S
C3566 C3565 1.389 . S
C3566 C3567 1.387 . S
C3567 H3552 0.930 . S
C3567 C3562 1.390 . S
C3567 C3566 1.387 . S
C989 C109 2.213 . S
C1001 C338 2.217 . S
C1016 C65 2.122 . S
C1028 C395 2.129 . S
C1043 C75 1.215 . S
C1055 C418 1.160 . S
C1082 C472 1.411 . S
C1070 C84 1.376 . S
C1097 C25 1.311 . S
C1109 C512 1.351 . S
C1136 C543 0.468 . S
C1124 C28 0.505 . S
C1163 C595 1.336 . S
C1151 C47 1.328 . S
C1178 C9 1.822 . S
C1190 C618 1.774 . S
C1217 C355 2.540 . S
C1205 C233 2.539 . S
C1232 C249 0.444 . S
C1244 C392 0.628 . S
C1271 C435 1.335 . S
C1259 C275 1.331 . S
C1298 C458 1.316 . S
C1286 C173 1.343 . S
C1313 C224 1.939 . S
C1325 C498 1.919 . S
C1352 C546 1.417 . S
C1340 C243 1.466 . S
C1379 C592 0.497 . S
C1367 C266 0.319 . S
C1406 C635 1.998 . S
C1394 C179 2.013 . S
C1433 C352 1.518 1_565 S
C1421 C163 1.549 . S
C1448 C289 1.947 1_554 S
C1460 C675 1.961 . S
C1487 C707 2.574 . S
C1475 C333 2.599 . S
C1514 C738 0.551 1_655 S
C1502 C308 0.607 . S
C1529 C123 1.511 . S
C1541 C632 1.491 . S
C1556 C126 1.584 . S
C1568 C432 1.592 . S
C1583 C327 2.283 . S
C1595 C795 2.275 . S
C1622 C818 0.590 . S
C1610 C299 0.672 . S
C1649 C347 2.228 . S
C1637 C67 2.248 . S
C1676 C826 2.164 . S
C1664 C98 2.124 . S
C1691 C89 1.267 . S
C1703 C427 1.268 . S
C1718 C79 1.452 . S
C1730 C783 1.426 . S
C1757 C503 1.338 . S
C1745 C11 1.342 . S
C1772 C51 0.490 . S
C1784 C712 0.468 . S
C1811 C586 1.418 . S
C1799 C33 1.407 . S
C1838 C867 1.759 . S
C1826 C14 1.854 . S
C1865 C346 2.520 . S
C1853 C140 2.514 . S
C1892 C823 0.439 . S
C1880 C319 0.576 . S
C1907 C112 1.339 . S
C1919 C426 1.345 . S
C1934 C285 1.352 . S
C1946 C787 1.325 . S
C1961 C149 1.990 1_545 S
C1973 C507 1.982 . S
C2000 C715 1.489 . S
C1988 C313 1.484 . S
C2015 C121 0.390 . S
C2027 C583 0.352 . S
C2042 C291 2.051 . S
C2054 C866 2.021 . S
C2069 C182 1.579 . S
C2081 C343 1.477 . S
C2096 C168 1.930 . S
C2108 C666 1.977 . S
C2123 C263 2.648 . S
C2135 C538 2.635 . S
C2150 C247 0.667 . S
C2162 C747 0.697 . S
C2189 C863 1.467 . S
C2177 C277 1.481 . S
C2204 C219 1.633 . S
C2216 C423 1.561 . S
C2243 C466 2.326 . S
C2231 C257 2.330 . S
C2270 C387 0.686 . S
C2258 C201 0.593 . S
C2285 C81 2.215 . S
C2297 C898 2.218 . S
C2324 C835 2.131 . S
C2312 C93 2.122 . S
C2339 C103 1.230 . S
C2351 C938 1.217 . S
C2366 C56 1.378 . S
C2378 C792 1.402 . S
C2393 C53 1.305 . S
C2405 C672 1.369 . S
C2432 C703 0.482 . S
C2420 C0 0.494 . S
C2459 C755 1.349 . S
C2447 C19 1.295 . S
C2486 C858 1.803 . S
C2474 C37 1.818 . S
C2513 C915 2.540 . S
C2501 C261 2.539 . S
C2528 C193 0.597 . S
C2540 C832 0.583 . S
C2567 C955 1.346 . S
C2555 C205 1.333 . S
C2594 C778 1.315 . S
C2582 C215 1.343 . S
C2621 C658 1.953 . S
C2609 C252 1.944 . S
C2636 C187 1.470 . S
C2648 C706 1.444 . S
C2675 C752 0.468 . S
C2663 C196 0.363 . S
C2690 C221 2.010 . S
C2702 C875 2.004 . S
C2729 C912 1.532 . S
C2717 C317 1.544 . S
C2744 C135 1.960 . S
C2756 C515 1.953 . S
C2783 C547 2.596 . S
C2771 C151 2.617 . S
C2810 C578 0.543 . S
C2798 C154 0.595 . S
C2837 C872 1.507 . S
C2825 C305 1.461 . S
C2852 C280 1.579 . S
C2864 C952 1.596 . S
C2891 C475 2.274 . S
C2879 C145 2.283 . S
C2918 C378 0.594 . S
C2906 C117 0.670 . S
C2933 C95 2.239 . S
C2945 C907 2.186 . S
C2972 C386 2.162 . S
C2960 C70 2.099 . S
C2987 C61 1.245 . S
C2999 C947 1.195 . S
C3014 C107 1.462 . S
C3026 C463 1.437 . S
C3041 C39 1.360 . S
C3053 C663 1.312 . S
C3080 C552 0.506 . S
C3068 C23 0.483 . S
C3095 C5 1.424 . S
C3107 C746 1.412 . S
C3122 C42 1.831 . S
C3134 C627 1.797 . S
C3161 C906 2.519 . S
C3149 C322 2.513 . S
C3176 C165 0.491 . S
C3188 C383 0.542 . S
C3215 C946 1.340 . S
C3203 C294 1.334 . S
C3230 C131 1.352 . S
C3242 C467 1.327 . S
C3257 C331 1.992 . S
C3269 C667 1.952 . S
C3296 C555 1.489 . S
C3284 C159 1.484 . S
C3311 C303 0.384 . S
C3323 C743 0.492 . S
C3350 C626 2.048 . S
C3338 C137 2.056 . S
C3377 C903 1.485 . S
C3365 C238 1.577 . S
C3404 C506 1.982 1_665 S
C3392 C210 1.949 . S
C3419 C235 2.670 . S
C3431 C698 2.625 . S
C3458 C587 0.696 . S
C3446 C191 0.667 . S
C3473 C207 1.516 . S
C3485 C623 1.422 . S
C3500 C177 1.632 . S
C3512 C943 1.560 . S
C3539 C786 2.330 . S
C3527 C229 2.340 1_565 S
C3566 C827 0.597 . S
C3554 C271 0.677 . S
