# Generated by pormake.
# Topology pth, (4,4)-cn, num edge types: 1
# Building blocks:
#     Node 0, Type 0, BuildingBlock: NAHDIM_clean_sbu_0, # of connection points: 4
#     Node 1, Type 0, BuildingBlock: NAHDIM_clean_sbu_0, # of connection points: 4
#     Node 2, Type 0, BuildingBlock: NAHDIM_clean_sbu_0, # of connection points: 4
#     Node 3, Type 1, BuildingBlock: KOZSID_clean_sbu_0, # of connection points: 4
#     Node 4, Type 1, BuildingBlock: KOZSID_clean_sbu_0, # of connection points: 4
#     Node 5, Type 1, BuildingBlock: KOZSID_clean_sbu_0, # of connection points: 4
#     Edge 6, Type (0, 1), BuildingBlock: AJUNOK_clean_linker_0, # of connection points: 2
#     Edge 7, Type (0, 1), BuildingBlock: AJUNOK_clean_linker_0, # of connection points: 2
#     Edge 8, Type (0, 1), BuildingBlock: AJUNOK_clean_linker_0, # of connection points: 2
#     Edge 9, Type (0, 1), BuildingBlock: AJUNOK_clean_linker_0, # of connection points: 2
#     Edge 10, Type (0, 1), BuildingBlock: AJUNOK_clean_linker_0, # of connection points: 2
#     Edge 11, Type (0, 1), BuildingBlock: AJUNOK_clean_linker_0, # of connection points: 2
#     Edge 12, Type (0, 1), BuildingBlock: AJUNOK_clean_linker_0, # of connection points: 2
#     Edge 13, Type (0, 1), BuildingBlock: AJUNOK_clean_linker_0, # of connection points: 2
#     Edge 14, Type (0, 1), BuildingBlock: AJUNOK_clean_linker_0, # of connection points: 2
#     Edge 15, Type (0, 1), BuildingBlock: AJUNOK_clean_linker_0, # of connection points: 2
#     Edge 16, Type (0, 1), BuildingBlock: AJUNOK_clean_linker_0, # of connection points: 2
#     Edge 17, Type (0, 1), BuildingBlock: AJUNOK_clean_linker_0, # of connection points: 2
# Relax obj value: 0.042
# Max RMSD: 0.173
# Mean RMSD: 0.086
data_MOF--net-pth--node1-NAHDIM_clean_sbu_0--node2-KOZSID_clean_sbu_0--edge1-AJUNOK_clean_linker_0
_symmetry_space_group_name_H-M    P1
_symmetry_Int_Tables_number       1
_symmetry_cell_setting            triclinic
loop_
_symmetry_equiv_pos_as_xyz
'x, y, z'
_cell_length_a     20.294778
_cell_length_b     20.433406
_cell_length_c     45.421959
_cell_angle_alpha  88.681926
_cell_angle_beta   86.509774
_cell_angle_gamma 120.74872
loop_
_atom_site_label
_atom_site_type_symbol
_atom_site_fract_x
_atom_site_fract_y
_atom_site_fract_z
_atom_type_partial_charge
C0 C 0.05261 0.97325 0.08858 0.0
O1 O 0.00246 0.99203 0.09815 0.0
O2 O 0.05023 0.14026 0.06866 0.0
Zn3 Zn 0.06979 0.07469 0.04122 0.0
O4 O 0.97578 0.00264 0.02106 0.0
C5 C 0.20892 0.21039 0.01782 0.0
O6 O 0.2091 0.2278 0.04549 0.0
O7 O 0.09395 0.00549 0.06456 0.0
C8 C 0.96697 0.01002 0.99398 0.0
O9 O 0.01815 0.07224 0.9782 0.0
C10 C 0.03442 0.1887 0.05856 0.0
O11 O 0.0257 0.19166 0.03023 0.0
O12 O 0.15637 0.14532 0.01079 0.0
C13 C 0.05486 0.21793 0.32284 0.0
O14 O 0.00543 0.14782 0.31651 0.0
O15 O 0.06293 0.05247 0.34102 0.0
Zn16 Zn 0.07382 0.13377 0.36821 0.0
O17 O 0.97527 0.10268 0.3931 0.0
C18 C 0.14326 0.10427 0.41559 0.0
O19 O 0.07126 0.05004 0.42186 0.0
O20 O 0.09652 0.22828 0.3441 0.0
C21 C 0.9791 0.14177 0.41502 0.0
O22 O 0.04689 0.19598 0.42186 0.0
C23 C 0.02571 0.98215 0.34959 0.0
O24 O 0.98797 0.96165 0.37586 0.0
O25 O 0.15941 0.15173 0.39378 0.0
C26 C 0.17216 0.07105 0.65508 0.0
O27 O 0.15173 0.11927 0.64618 0.0
O28 O 0.99902 0.06601 0.67408 0.0
Zn29 Zn 0.06084 0.04541 0.70195 0.0
O30 O 0.1236 0.1351 0.72612 0.0
C31 C 0.95434 0.96022 0.75232 0.0
O32 O 0.97699 0.02923 0.76061 0.0
O33 O 0.13797 0.02855 0.67849 0.0
C34 C 0.16461 0.12686 0.74422 0.0
O35 O 0.15984 0.06039 0.74715 0.0
C36 C 0.95885 0.09467 0.6825 0.0
O37 O 0.96108 0.11535 0.70976 0.0
O38 O 0.98451 0.95253 0.72825 0.0
C39 C 0.12388 0.72964 0.15935 0.0
C40 C 0.19494 0.78748 0.14672 0.0
C41 C 0.24926 0.77789 0.15899 0.0
C42 C 0.20864 0.71533 0.17842 0.0
N43 N 0.13147 0.68379 0.17917 0.0
Co44 Co 0.05129 0.59341 0.20502 0.0
N45 N 0.13202 0.58523 0.22548 0.0
C46 C 0.20915 0.63236 0.22096 0.0
C47 C 0.25023 0.61156 0.23764 0.0
C48 C 0.19628 0.5469 0.25368 0.0
C49 C 0.12494 0.53212 0.24593 0.0
N50 N 0.97123 0.50129 0.23013 0.0
C51 C 0.97938 0.45523 0.24969 0.0
C52 C 0.90862 0.39543 0.26155 0.0
C53 C 0.85376 0.40297 0.24858 0.0
C54 C 0.89392 0.46674 0.22967 0.0
N55 N 0.97069 0.60347 0.18533 0.0
C56 C 0.89343 0.5589 0.19089 0.0
C57 C 0.85287 0.58177 0.17485 0.0
C58 C 0.90741 0.64559 0.15841 0.0
C59 C 0.97837 0.65805 0.16547 0.0
N60 N 0.05077 0.52434 0.1748 0.0
C61 C 0.04689 0.4194 0.13475 0.0
C62 C 0.97989 0.41831 0.14446 0.0
C63 C 0.98309 0.47077 0.16427 0.0
C64 C 0.11623 0.47444 0.14505 0.0
C65 C 0.117 0.5265 0.16473 0.0
N66 N 0.05101 0.66213 0.23522 0.0
C67 C 0.97986 0.69689 0.26954 0.0
C68 C 0.04676 0.76434 0.27479 0.0
C69 C 0.11628 0.77952 0.26027 0.0
C70 C 0.11721 0.72763 0.24088 0.0
C71 C 0.98328 0.64701 0.24998 0.0
H72 H 0.17191 0.74206 0.23048 0.0
H73 H 0.92993 0.59724 0.24683 0.0
H74 H 0.92966 0.46584 0.17101 0.0
H75 H 0.17165 0.56745 0.17169 0.0
C76 C 0.24143 0.69044 0.19858 0.0
C77 C 0.05129 0.72346 0.15318 0.0
C78 C 0.05254 0.46468 0.25726 0.0
C79 C 0.86082 0.49597 0.21136 0.0
H80 H 0.20672 0.83344 0.13097 0.0
H81 H 0.31112 0.81421 0.15517 0.0
H82 H 0.31214 0.63838 0.23724 0.0
H83 H 0.20849 0.51332 0.26868 0.0
H84 H 0.89784 0.35054 0.2777 0.0
H85 H 0.79196 0.36599 0.25231 0.0
H86 H 0.79103 0.55564 0.17529 0.0
H87 H 0.8963 0.67968 0.14319 0.0
H88 H 0.9247 0.37589 0.13735 0.0
H89 H 0.16966 0.4774 0.1379 0.0
H90 H 0.9245 0.68333 0.27997 0.0
H91 H 0.16967 0.83111 0.26388 0.0
C92 C 0.4318 0.01494 0.58071 0.0
C93 C 0.37357 0.94211 0.59093 0.0
C94 C 0.38659 0.89218 0.57601 0.0
C95 C 0.45139 0.93704 0.55749 0.0
N96 N 0.48141 0.01279 0.55992 0.0
Co97 Co 0.57223 0.09821 0.53562 0.0
N98 N 0.58647 0.02434 0.51159 0.0
C99 C 0.54287 0.94725 0.51427 0.0
C100 C 0.56929 0.91163 0.49606 0.0
C101 C 0.63433 0.96923 0.48109 0.0
C102 C 0.64355 0.03708 0.49092 0.0
N103 N 0.66314 0.18349 0.51141 0.0
C104 C 0.71226 0.18105 0.49046 0.0
C105 C 0.76901 0.25366 0.47943 0.0
C106 C 0.75654 0.30389 0.49448 0.0
C107 C 0.69294 0.2593 0.51365 0.0
N108 N 0.55785 0.17198 0.55957 0.0
C109 C 0.60143 0.24909 0.55701 0.0
C110 C 0.57608 0.28428 0.57599 0.0
C111 C 0.51167 0.2263 0.59126 0.0
C112 C 0.5013 0.15886 0.58056 0.0
N113 N 0.64253 0.0975 0.56407 0.0
C114 C 0.74464 0.09792 0.60352 0.0
C115 C 0.75061 0.16586 0.59346 0.0
C116 C 0.69945 0.16435 0.57395 0.0
C117 C 0.68702 0.02966 0.59344 0.0
C118 C 0.63669 0.03069 0.57398 0.0
N119 N 0.50171 0.09943 0.50738 0.0
C120 C 0.4524 0.16869 0.4819 0.0
C121 C 0.38862 0.10073 0.47477 0.0
C122 C 0.38491 0.03226 0.4825 0.0
C123 C 0.44185 0.03293 0.49857 0.0
C124 C 0.50791 0.16676 0.49798 0.0
H125 H 0.43526 0.97891 0.5042 0.0
H126 H 0.55406 0.22051 0.50324 0.0
H127 H 0.70766 0.21819 0.56701 0.0
H128 H 0.59377 0.97682 0.56719 0.0
C129 C 0.48155 0.90982 0.53592 0.0
C130 C 0.4349 0.08417 0.59005 0.0
C131 C 0.70967 0.11187 0.48126 0.0
C132 C 0.66282 0.2868 0.53526 0.0
H133 H 0.32524 0.92642 0.60686 0.0
H134 H 0.35131 0.83053 0.57764 0.0
H135 H 0.54584 0.85093 0.49473 0.0
H136 H 0.67186 0.9617 0.46541 0.0
H137 H 0.81569 0.26871 0.46272 0.0
H138 H 0.79103 0.36556 0.49231 0.0
H139 H 0.60023 0.34491 0.57789 0.0
H140 H 0.47529 0.23286 0.6079 0.0
H141 H 0.79542 0.22025 0.60025 0.0
H142 H 0.68038 0.9756 0.60074 0.0
H143 H 0.45814 0.22318 0.47605 0.0
H144 H 0.33769 0.97825 0.47654 0.0
C145 C 0.70064 0.63133 0.82654 0.0
C146 C 0.76157 0.62208 0.81706 0.0
C147 C 0.75283 0.56082 0.8333 0.0
C148 C 0.68765 0.53651 0.85178 0.0
N149 N 0.65309 0.57747 0.84794 0.0
Co150 Co 0.56081 0.56599 0.87186 0.0
N151 N 0.55371 0.48194 0.89815 0.0
C152 C 0.59986 0.45214 0.89621 0.0
C153 C 0.57948 0.39346 0.91679 0.0
C154 C 0.51577 0.38433 0.9326 0.0
C155 C 0.50091 0.43817 0.92063 0.0
N156 N 0.46949 0.55551 0.89615 0.0
C157 C 0.42526 0.50526 0.91909 0.0
C158 C 0.36616 0.51649 0.92933 0.0
C159 C 0.37286 0.57555 0.9121 0.0
C160 C 0.43537 0.59696 0.89239 0.0
N161 N 0.56742 0.64921 0.84526 0.0
C162 C 0.51876 0.67613 0.84604 0.0
C163 C 0.54 0.73532 0.82556 0.0
C164 C 0.6069 0.74784 0.81119 0.0
C165 C 0.62273 0.69552 0.8239 0.0
N166 N 0.49072 0.48842 0.84547 0.0
C167 C 0.38646 0.37437 0.81052 0.0
C168 C 0.37417 0.43193 0.82007 0.0
C169 C 0.42673 0.48807 0.83715 0.0
C170 C 0.45212 0.37503 0.8186 0.0
C171 C 0.50311 0.43214 0.8359 0.0
N172 N 0.63047 0.64367 0.89815 0.0
C173 C 0.67432 0.76341 0.92093 0.0
C174 C 0.73475 0.7597 0.93219 0.0
C175 C 0.7417 0.69649 0.92654 0.0
C176 C 0.68931 0.63951 0.90956 0.0
C177 C 0.6229 0.70498 0.90434 0.0
H178 H 0.69817 0.59327 0.90558 0.0
H179 H 0.57803 0.71125 0.89648 0.0
H180 H 0.41346 0.52985 0.84364 0.0
H181 H 0.55169 0.42908 0.84145 0.0
C182 C 0.66089 0.47934 0.87442 0.0
C183 C 0.69335 0.69519 0.81622 0.0
C184 C 0.43454 0.44365 0.9308 0.0
C185 C 0.45945 0.65116 0.86861 0.0
H186 H 0.80897 0.65738 0.80081 0.0
H187 H 0.79119 0.53861 0.83257 0.0
H188 H 0.60696 0.36045 0.91963 0.0
H189 H 0.48316 0.34202 0.95062 0.0
H190 H 0.32164 0.48408 0.94695 0.0
H191 H 0.33515 0.5985 0.9132 0.0
H192 H 0.51219 0.7679 0.82241 0.0
H193 H 0.64166 0.79214 0.79404 0.0
H194 H 0.32325 0.43296 0.81496 0.0
H195 H 0.46421 0.33163 0.8116 0.0
H196 H 0.66664 0.81125 0.92497 0.0
H197 H 0.7884 0.69185 0.9346 0.0
C198 C 0.0701 0.26 0.10459 0.0
C199 C 0.03469 0.24643 0.07786 0.0
C200 C 0.07493 0.31689 0.12258 0.0
C201 C 0.04367 0.36169 0.11474 0.0
H202 H 0.09538 0.22722 0.11155 0.0
H203 H 0.10248 0.32521 0.143 0.0
S204 S 0.94461 0.34929 0.04732 0.0
N205 N 0.96765 0.28285 0.04457 0.0
N206 N 0.97647 0.38937 0.07856 0.0
C207 C 0.00771 0.34859 0.08824 0.0
C208 C 0.00336 0.29114 0.06975 0.0
C209 C 0.91117 0.15016 0.4612 0.0
C210 C 0.90859 0.13029 0.43164 0.0
C211 C 0.84639 0.14347 0.47711 0.0
C212 C 0.7772 0.11775 0.46389 0.0
H213 H 0.96359 0.17085 0.47218 0.0
H214 H 0.8504 0.15879 0.49989 0.0
S215 S 0.74124 0.06296 0.38677 0.0
N216 N 0.83113 0.08551 0.38963 0.0
N217 N 0.71023 0.07536 0.41944 0.0
C218 C 0.77394 0.09876 0.43432 0.0
C219 C 0.83939 0.10423 0.41823 0.0
C220 C 0.84722 0.82356 0.75565 0.0
C221 C 0.88974 0.89265 0.76939 0.0
C222 C 0.78328 0.76005 0.77077 0.0
C223 C 0.76037 0.7631 0.80024 0.0
H224 H 0.86249 0.8188 0.73286 0.0
H225 H 0.75154 0.70815 0.75939 0.0
S226 S 0.85278 0.928 0.84681 0.0
N227 N 0.90436 0.95901 0.81461 0.0
N228 N 0.78488 0.83882 0.84295 0.0
C229 C 0.80236 0.83102 0.81437 0.0
C230 C 0.86699 0.89597 0.79898 0.0
C231 C 0.03347 0.89573 0.13508 0.0
C232 C 0.05577 0.91107 0.10456 0.0
C233 C 0.03212 0.8349 0.15061 0.0
C234 C 0.05193 0.78671 0.13608 0.0
H235 H 0.01724 0.93122 0.14712 0.0
H236 H 0.01551 0.82541 0.17415 0.0
S237 S 0.10947 0.79859 0.0563 0.0
N238 N 0.09587 0.87112 0.0603 0.0
N239 N 0.09124 0.75559 0.08955 0.0
C240 C 0.07302 0.80032 0.10559 0.0
C241 C 0.07566 0.86295 0.08982 0.0
C242 C 0.28284 0.15247 0.4212 0.0
C243 C 0.20509 0.10529 0.43191 0.0
C244 C 0.34185 0.1507 0.43511 0.0
C245 C 0.32542 0.10151 0.46021 0.0
H246 H 0.29838 0.19028 0.40161 0.0
H247 H 0.40073 0.18731 0.42589 0.0
S248 S 0.13265 0.97151 0.49877 0.0
N249 N 0.11571 0.01102 0.47036 0.0
N250 N 0.2267 0.00841 0.49644 0.0
C251 C 0.24833 0.05542 0.47158 0.0
C252 C 0.18822 0.05719 0.45749 0.0
C253 C 0.2509 0.1766 0.78531 0.0
C254 C 0.21933 0.19122 0.76102 0.0
C255 C 0.3049 0.23606 0.80106 0.0
C256 C 0.32987 0.31265 0.7931 0.0
H257 H 0.23361 0.11862 0.79236 0.0
H258 H 0.32667 0.22181 0.81984 0.0
S259 S 0.26856 0.38231 0.73027 0.0
N260 N 0.21873 0.2885 0.7293 0.0
N261 N 0.32134 0.40028 0.75859 0.0
C262 C 0.29929 0.32828 0.76875 0.0
C263 C 0.24382 0.26764 0.7528 0.0
C264 C 0.89137 0.06074 0.63596 0.0
C265 C 0.90574 0.09874 0.66243 0.0
C266 C 0.83883 0.06029 0.61719 0.0
C267 C 0.79919 0.09848 0.62396 0.0
H268 H 0.92017 0.03014 0.62976 0.0
H269 H 0.82969 0.03036 0.59707 0.0
S270 S 0.8154 0.20661 0.6903 0.0
N271 N 0.8756 0.17587 0.69426 0.0
N272 N 0.77695 0.1748 0.6589 0.0
C273 C 0.81319 0.13715 0.65016 0.0
C274 C 0.86635 0.13728 0.6694 0.0
C275 C 0.88454 0.95864 0.95175 0.0
C276 C 0.90414 0.94583 0.97961 0.0
C277 C 0.82871 0.89829 0.93684 0.0
C278 C 0.79133 0.82269 0.94898 0.0
H279 H 0.91279 0.01571 0.94125 0.0
H280 H 0.8158 0.9107 0.91536 0.0
S281 S 0.81935 0.75812 0.02159 0.0
N282 N 0.87961 0.8513 0.0191 0.0
N283 N 0.77536 0.73824 0.99079 0.0
C284 C 0.80944 0.80898 0.97692 0.0
C285 C 0.86555 0.87045 0.99232 0.0
C286 C 0.06921 0.94806 0.30256 0.0
C287 C 0.02963 0.92514 0.33094 0.0
C288 C 0.07588 0.89614 0.28479 0.0
C289 C 0.04301 0.81923 0.29465 0.0
H290 H 0.09526 0.00662 0.29387 0.0
H291 H 0.10578 0.91607 0.26295 0.0
S292 S 0.93728 0.7303 0.36758 0.0
N293 N 0.95936 0.81998 0.36834 0.0
N294 N 0.97246 0.72303 0.33491 0.0
C295 C 0.00417 0.79557 0.32303 0.0
C296 C 0.99733 0.84831 0.34116 0.0
C297 C 0.25738 0.097 0.60891 0.0
C298 C 0.23739 0.07042 0.63886 0.0
C299 C 0.32107 0.10079 0.59328 0.0
C300 C 0.36744 0.07898 0.60714 0.0
H301 H 0.22349 0.11493 0.59739 0.0
H302 H 0.33438 0.12113 0.57021 0.0
S303 S 0.34298 0.00902 0.68525 0.0
N304 N 0.27064 0.02334 0.68185 0.0
N305 N 0.39145 0.03237 0.65242 0.0
C306 C 0.34892 0.05307 0.63703 0.0
C307 C 0.28346 0.04813 0.6529 0.0
C308 C 0.31995 0.34187 0.00332 0.0
C309 C 0.26616 0.26829 0.99503 0.0
C310 C 0.37342 0.39872 0.98239 0.0
C311 C 0.37496 0.38414 0.95243 0.0
H312 H 0.3209 0.35602 0.02618 0.0
H313 H 0.41421 0.45432 0.98966 0.0
S314 S 0.24819 0.2028 0.91868 0.0
N315 N 0.21875 0.18494 0.95422 0.0
N316 N 0.3197 0.29245 0.91512 0.0
C317 C 0.3221 0.31152 0.94367 0.0
C318 C 0.26755 0.25342 0.9649 0.0
C319 C 0.03393 0.27434 0.27754 0.0
C320 C 0.05763 0.2829 0.30642 0.0
C321 C 0.03247 0.33339 0.26184 0.0
C322 C 0.05355 0.40262 0.27462 0.0
H323 H 0.01671 0.22169 0.26689 0.0
H324 H 0.01473 0.32497 0.23954 0.0
S325 S 0.11546 0.45283 0.34997 0.0
N326 N 0.10075 0.36591 0.34736 0.0
N327 N 0.09581 0.47597 0.31795 0.0
C328 C 0.07614 0.41174 0.30354 0.0
C329 C 0.07891 0.35217 0.3194 0.0
loop_
_geom_bond_atom_site_label_1
_geom_bond_atom_site_label_2
_geom_bond_distance
_geom_bond_site_symmetry_2
_ccdc_geom_bond_type
C0 O1 1.160 . S
C0 O7 1.185 1_565 S
O1 C0 1.160 . S
O2 Zn3 1.899 . S
O2 C10 1.284 . S
Zn3 O2 1.899 . S
Zn3 O4 2.032 1_545 S
Zn3 O7 2.086 . S
Zn3 O12 1.977 . S
O4 Zn3 2.032 1_565 S
O4 C8 1.278 1_465 S
C5 O6 1.205 . S
C5 O12 1.274 . S
O6 C5 1.205 . S
O7 C0 1.185 1_545 S
O7 Zn3 2.086 . S
C8 O4 1.278 1_645 S
C8 O9 1.211 1_654 S
O9 C8 1.211 1_456 S
C10 O2 1.284 . S
C10 O11 1.273 . S
O11 C10 1.273 . S
O12 Zn3 1.977 . S
O12 C5 1.274 . S
C13 O14 1.160 . S
C13 O20 1.185 . S
O14 C13 1.160 . S
O15 Zn16 1.899 . S
O15 C23 1.273 1_545 S
Zn16 O15 1.899 . S
Zn16 O17 2.032 1_455 S
Zn16 O20 2.086 . S
Zn16 O25 1.977 . S
O17 Zn16 2.032 1_655 S
O17 C21 1.278 . S
C18 O19 1.203 . S
C18 O25 1.267 . S
O19 C18 1.203 . S
O20 C13 1.185 . S
O20 Zn16 2.086 . S
C21 O17 1.278 . S
C21 O22 1.211 . S
O22 C21 1.211 . S
C23 O15 1.273 1_565 S
C23 O24 1.273 1_455 S
O24 C23 1.273 1_655 S
O25 Zn16 1.977 . S
O25 C18 1.267 . S
C26 O27 1.160 . S
C26 O33 1.185 1_545 S
O27 C26 1.160 . S
O28 Zn29 1.899 . S
O28 C36 1.284 1_455 S
Zn29 O28 1.899 . S
Zn29 O30 2.032 . S
Zn29 O33 2.086 1_545 S
Zn29 O38 1.977 1_545 S
O30 Zn29 2.032 . S
O30 C34 1.278 . S
C31 O32 1.203 . S
C31 O38 1.267 1_655 S
O32 C31 1.203 . S
O33 C26 1.185 1_565 S
O33 Zn29 2.086 1_565 S
C34 O30 1.278 . S
C34 O35 1.211 . S
O35 C34 1.211 . S
C36 O28 1.284 1_655 S
C36 O37 1.273 1_655 S
O37 C36 1.273 1_455 S
O38 Zn29 1.977 1_565 S
O38 C31 1.267 1_455 S
C39 C40 1.443 . S
C39 N43 1.376 . S
C39 C77 1.389 . S
C40 C39 1.443 . S
C40 C41 1.340 . S
C40 H80 0.951 . S
C41 C40 1.340 . S
C41 C42 1.439 . S
C41 H81 0.950 . S
C42 C41 1.439 . S
C42 N43 1.374 . S
C42 C76 1.395 . S
N43 C39 1.376 . S
N43 C42 1.374 . S
N43 Co44 2.008 . S
Co44 N43 2.008 . S
Co44 N45 1.995 . S
Co44 N50 2.008 1_455 S
Co44 N55 1.995 1_455 S
Co44 N60 2.282 . S
Co44 N66 2.282 . S
N45 Co44 1.995 . S
N45 C46 1.376 . S
N45 C49 1.383 . S
C46 N45 1.376 . S
C46 C47 1.446 . S
C46 C76 1.391 . S
C47 C46 1.446 . S
C47 C48 1.339 . S
C47 H82 0.949 . S
C48 C47 1.339 . S
C48 C49 1.439 . S
C48 H83 0.950 . S
C49 N45 1.383 . S
C49 C48 1.439 . S
C49 C78 1.392 . S
N50 Co44 2.008 1_655 S
N50 C51 1.376 . S
N50 C54 1.374 . S
C51 N50 1.376 . S
C51 C52 1.443 . S
C51 C78 1.389 1_655 S
C52 C51 1.443 . S
C52 C53 1.340 . S
C52 H84 0.951 . S
C53 C52 1.340 . S
C53 C54 1.439 . S
C53 H85 0.950 . S
C54 N50 1.374 . S
C54 C53 1.439 . S
C54 C79 1.395 . S
N55 Co44 1.995 1_655 S
N55 C56 1.376 . S
N55 C59 1.383 . S
C56 N55 1.376 . S
C56 C57 1.446 . S
C56 C79 1.391 . S
C57 C56 1.446 . S
C57 C58 1.339 . S
C57 H86 0.949 . S
C58 C57 1.339 . S
C58 C59 1.439 . S
C58 H87 0.950 . S
C59 N55 1.383 . S
C59 C58 1.439 . S
C59 C77 1.392 1_655 S
N60 Co44 2.282 . S
N60 C63 1.332 1_455 S
N60 C65 1.332 . S
C61 C62 1.386 1_455 S
C61 C64 1.388 . S
C62 C61 1.386 1_655 S
C62 C63 1.382 . S
C62 H88 0.950 . S
C63 N60 1.332 1_655 S
C63 C62 1.382 . S
C63 H74 0.952 . S
C64 C61 1.388 . S
C64 C65 1.382 . S
C64 H89 0.950 . S
C65 N60 1.332 . S
C65 C64 1.382 . S
C65 H75 0.948 . S
N66 Co44 2.282 . S
N66 C70 1.332 . S
N66 C71 1.332 1_455 S
C67 C68 1.388 1_655 S
C67 C71 1.382 . S
C67 H90 0.950 . S
C68 C67 1.388 1_455 S
C68 C69 1.386 . S
C69 C68 1.386 . S
C69 C70 1.382 . S
C69 H91 0.950 . S
C70 N66 1.332 . S
C70 C69 1.382 . S
C70 H72 0.952 . S
C71 N66 1.332 1_655 S
C71 C67 1.382 . S
C71 H73 0.948 . S
H72 C70 0.952 . S
H73 C71 0.948 . S
H74 C63 0.952 . S
H75 C65 0.948 . S
C76 C42 1.395 . S
C76 C46 1.391 . S
C77 C39 1.389 . S
C77 C59 1.392 1_455 S
C78 C49 1.392 . S
C78 C51 1.389 1_455 S
C79 C54 1.395 . S
C79 C56 1.391 . S
H80 C40 0.951 . S
H81 C41 0.950 . S
H82 C47 0.949 . S
H83 C48 0.950 . S
H84 C52 0.951 . S
H85 C53 0.950 . S
H86 C57 0.949 . S
H87 C58 0.950 . S
H88 C62 0.950 . S
H89 C64 0.950 . S
H90 C67 0.950 . S
H91 C69 0.950 . S
C92 C93 1.443 1_545 S
C92 N96 1.376 . S
C92 C130 1.389 . S
C93 C92 1.443 1_565 S
C93 C94 1.340 . S
C93 H133 0.951 . S
C94 C93 1.340 . S
C94 C95 1.439 . S
C94 H134 0.950 . S
C95 C94 1.439 . S
C95 N96 1.374 1_565 S
C95 C129 1.395 . S
N96 C92 1.376 . S
N96 C95 1.374 1_545 S
N96 Co97 2.008 . S
Co97 N96 2.008 . S
Co97 N98 1.995 . S
Co97 N103 2.008 . S
Co97 N108 1.995 . S
Co97 N113 2.282 . S
Co97 N119 2.282 . S
N98 Co97 1.995 . S
N98 C99 1.376 1_545 S
N98 C102 1.383 . S
C99 N98 1.376 1_565 S
C99 C100 1.446 . S
C99 C129 1.391 . S
C100 C99 1.446 . S
C100 C101 1.339 . S
C100 H135 0.949 . S
C101 C100 1.339 . S
C101 C102 1.439 1_565 S
C101 H136 0.950 . S
C102 N98 1.383 . S
C102 C101 1.439 1_545 S
C102 C131 1.392 . S
N103 Co97 2.008 . S
N103 C104 1.376 . S
N103 C107 1.374 . S
C104 N103 1.376 . S
C104 C105 1.443 . S
C104 C131 1.389 . S
C105 C104 1.443 . S
C105 C106 1.340 . S
C105 H137 0.951 . S
C106 C105 1.340 . S
C106 C107 1.439 . S
C106 H138 0.950 . S
C107 N103 1.374 . S
C107 C106 1.439 . S
C107 C132 1.395 . S
N108 Co97 1.995 . S
N108 C109 1.376 . S
N108 C112 1.383 . S
C109 N108 1.376 . S
C109 C110 1.446 . S
C109 C132 1.391 . S
C110 C109 1.446 . S
C110 C111 1.339 . S
C110 H139 0.949 . S
C111 C110 1.339 . S
C111 C112 1.439 . S
C111 H140 0.950 . S
C112 N108 1.383 . S
C112 C111 1.439 . S
C112 C130 1.392 . S
N113 Co97 2.282 . S
N113 C116 1.332 . S
N113 C118 1.332 . S
C114 C115 1.386 . S
C114 C117 1.388 . S
C115 C114 1.386 . S
C115 C116 1.382 . S
C115 H141 0.950 . S
C116 N113 1.332 . S
C116 C115 1.382 . S
C116 H127 0.952 . S
C117 C114 1.388 . S
C117 C118 1.382 . S
C117 H142 0.950 1_545 S
C118 N113 1.332 . S
C118 C117 1.382 . S
C118 H128 0.948 1_545 S
N119 Co97 2.282 . S
N119 C123 1.332 . S
N119 C124 1.332 . S
C120 C121 1.388 . S
C120 C124 1.382 . S
C120 H143 0.950 . S
C121 C120 1.388 . S
C121 C122 1.386 . S
C122 C121 1.386 . S
C122 C123 1.382 . S
C122 H144 0.950 . S
C123 N119 1.332 . S
C123 C122 1.382 . S
C123 H125 0.952 . S
C124 N119 1.332 . S
C124 C120 1.382 . S
C124 H126 0.948 . S
H125 C123 0.952 . S
H126 C124 0.948 . S
H127 C116 0.952 . S
H128 C118 0.948 1_565 S
C129 C95 1.395 . S
C129 C99 1.391 . S
C130 C92 1.389 . S
C130 C112 1.392 . S
C131 C102 1.392 . S
C131 C104 1.389 . S
C132 C107 1.395 . S
C132 C109 1.391 . S
H133 C93 0.951 . S
H134 C94 0.950 . S
H135 C100 0.949 . S
H136 C101 0.950 . S
H137 C105 0.951 . S
H138 C106 0.950 . S
H139 C110 0.949 . S
H140 C111 0.950 . S
H141 C115 0.950 . S
H142 C117 0.950 1_565 S
H143 C120 0.950 . S
H144 C122 0.950 . S
C145 C146 1.443 . S
C145 N149 1.376 . S
C145 C183 1.389 . S
C146 C145 1.443 . S
C146 C147 1.340 . S
C146 H186 0.951 . S
C147 C146 1.340 . S
C147 C148 1.439 . S
C147 H187 0.950 . S
C148 C147 1.439 . S
C148 N149 1.374 . S
C148 C182 1.395 . S
N149 C145 1.376 . S
N149 C148 1.374 . S
N149 Co150 2.008 . S
Co150 N149 2.008 . S
Co150 N151 1.995 . S
Co150 N156 2.008 . S
Co150 N161 1.995 . S
Co150 N166 2.282 . S
Co150 N172 2.282 . S
N151 Co150 1.995 . S
N151 C152 1.376 . S
N151 C155 1.383 . S
C152 N151 1.376 . S
C152 C153 1.446 . S
C152 C182 1.391 . S
C153 C152 1.446 . S
C153 C154 1.339 . S
C153 H188 0.949 . S
C154 C153 1.339 . S
C154 C155 1.439 . S
C154 H189 0.950 . S
C155 N151 1.383 . S
C155 C154 1.439 . S
C155 C184 1.392 . S
N156 Co150 2.008 . S
N156 C157 1.376 . S
N156 C160 1.374 . S
C157 N156 1.376 . S
C157 C158 1.443 . S
C157 C184 1.389 . S
C158 C157 1.443 . S
C158 C159 1.340 . S
C158 H190 0.951 . S
C159 C158 1.340 . S
C159 C160 1.439 . S
C159 H191 0.950 . S
C160 N156 1.374 . S
C160 C159 1.439 . S
C160 C185 1.395 . S
N161 Co150 1.995 . S
N161 C162 1.376 . S
N161 C165 1.383 . S
C162 N161 1.376 . S
C162 C163 1.446 . S
C162 C185 1.391 . S
C163 C162 1.446 . S
C163 C164 1.339 . S
C163 H192 0.949 . S
C164 C163 1.339 . S
C164 C165 1.439 . S
C164 H193 0.950 . S
C165 N161 1.383 . S
C165 C164 1.439 . S
C165 C183 1.392 . S
N166 Co150 2.282 . S
N166 C169 1.332 . S
N166 C171 1.332 . S
C167 C168 1.386 . S
C167 C170 1.388 . S
C168 C167 1.386 . S
C168 C169 1.382 . S
C168 H194 0.950 . S
C169 N166 1.332 . S
C169 C168 1.382 . S
C169 H180 0.952 . S
C170 C167 1.388 . S
C170 C171 1.382 . S
C170 H195 0.950 . S
C171 N166 1.332 . S
C171 C170 1.382 . S
C171 H181 0.948 . S
N172 Co150 2.282 . S
N172 C176 1.332 . S
N172 C177 1.332 . S
C173 C174 1.388 . S
C173 C177 1.382 . S
C173 H196 0.950 . S
C174 C173 1.388 . S
C174 C175 1.386 . S
C175 C174 1.386 . S
C175 C176 1.382 . S
C175 H197 0.950 . S
C176 N172 1.332 . S
C176 C175 1.382 . S
C176 H178 0.952 . S
C177 N172 1.332 . S
C177 C173 1.382 . S
C177 H179 0.948 . S
H178 C176 0.952 . S
H179 C177 0.948 . S
H180 C169 0.952 . S
H181 C171 0.948 . S
C182 C148 1.395 . S
C182 C152 1.391 . S
C183 C145 1.389 . S
C183 C165 1.392 . S
C184 C155 1.392 . S
C184 C157 1.389 . S
C185 C160 1.395 . S
C185 C162 1.391 . S
H186 C146 0.951 . S
H187 C147 0.950 . S
H188 C153 0.949 . S
H189 C154 0.950 . S
H190 C158 0.951 . S
H191 C159 0.950 . S
H192 C163 0.949 . S
H193 C164 0.950 . S
H194 C168 0.950 . S
H195 C170 0.950 . S
H196 C173 0.950 . S
H197 C175 0.950 . S
C198 C199 1.369 . S
C198 C200 1.419 . S
C198 H202 0.930 . S
C199 C198 1.369 . S
C199 C208 1.429 1_455 S
C200 C198 1.419 . S
C200 C201 1.363 . S
C200 H203 0.929 . S
C201 C200 1.363 . S
C201 C207 1.428 1_455 S
H202 C198 0.930 . S
H203 C200 0.929 . S
S204 N205 1.613 . S
S204 N206 1.610 . S
N205 S204 1.613 . S
N205 C208 1.350 . S
N206 S204 1.610 . S
N206 C207 1.351 . S
C207 C201 1.428 1_655 S
C207 N206 1.351 . S
C207 C208 1.434 . S
C208 C199 1.429 1_655 S
C208 N205 1.350 . S
C208 C207 1.434 . S
C209 C210 1.369 . S
C209 C211 1.419 . S
C209 H213 0.930 . S
C210 C209 1.369 . S
C210 C219 1.429 . S
C211 C209 1.419 . S
C211 C212 1.363 . S
C211 H214 0.929 . S
C212 C211 1.363 . S
C212 C218 1.428 . S
H213 C209 0.930 . S
H214 C211 0.929 . S
S215 N216 1.613 1_565 S
S215 N217 1.610 1_565 S
N216 S215 1.613 1_545 S
N216 C219 1.350 . S
N217 S215 1.610 1_545 S
N217 C218 1.351 . S
C218 C212 1.428 . S
C218 N217 1.351 . S
C218 C219 1.434 . S
C219 C210 1.429 . S
C219 N216 1.350 . S
C219 C218 1.434 . S
C220 C221 1.369 . S
C220 C222 1.419 . S
C220 H224 0.930 . S
C221 C220 1.369 . S
C221 C230 1.429 . S
C222 C220 1.419 . S
C222 C223 1.363 . S
C222 H225 0.929 . S
C223 C222 1.363 . S
C223 C229 1.428 . S
H224 C220 0.930 . S
H225 C222 0.929 . S
S226 N227 1.613 . S
S226 N228 1.610 . S
N227 S226 1.613 . S
N227 C230 1.350 . S
N228 S226 1.610 . S
N228 C229 1.351 . S
C229 C223 1.428 . S
C229 N228 1.351 . S
C229 C230 1.434 . S
C230 C221 1.429 . S
C230 N227 1.350 . S
C230 C229 1.434 . S
C231 C232 1.369 . S
C231 C233 1.419 . S
C231 H235 0.930 . S
C232 C231 1.369 . S
C232 C241 1.429 . S
C233 C231 1.419 . S
C233 C234 1.363 . S
C233 H236 0.929 . S
C234 C233 1.363 . S
C234 C240 1.428 1_455 S
H235 C231 0.930 . S
H236 C233 0.929 . S
S237 N238 1.613 . S
S237 N239 1.610 . S
N238 S237 1.613 . S
N238 C241 1.350 1_655 S
N239 S237 1.610 . S
N239 C240 1.351 . S
C240 C234 1.428 1_655 S
C240 N239 1.351 . S
C240 C241 1.434 1_655 S
C241 C232 1.429 . S
C241 N238 1.350 1_455 S
C241 C240 1.434 1_455 S
C242 C243 1.369 . S
C242 C244 1.419 . S
C242 H246 0.930 . S
C243 C242 1.369 . S
C243 C252 1.429 . S
C244 C242 1.419 . S
C244 C245 1.363 . S
C244 H247 0.929 . S
C245 C244 1.363 . S
C245 C251 1.428 . S
H246 C242 0.930 . S
H247 C244 0.929 . S
S248 N249 1.613 1_565 S
S248 N250 1.610 . S
N249 S248 1.613 1_545 S
N249 C252 1.350 . S
N250 S248 1.610 . S
N250 C251 1.351 1_565 S
C251 C245 1.428 . S
C251 N250 1.351 1_545 S
C251 C252 1.434 . S
C252 C243 1.429 . S
C252 N249 1.350 . S
C252 C251 1.434 . S
C253 C254 1.369 . S
C253 C255 1.419 . S
C253 H257 0.930 . S
C254 C253 1.369 . S
C254 C263 1.429 . S
C255 C253 1.419 . S
C255 C256 1.363 . S
C255 H258 0.929 . S
C256 C255 1.363 . S
C256 C262 1.428 . S
H257 C253 0.930 . S
H258 C255 0.929 . S
S259 N260 1.613 . S
S259 N261 1.610 . S
N260 S259 1.613 . S
N260 C263 1.350 . S
N261 S259 1.610 . S
N261 C262 1.351 . S
C262 C256 1.428 . S
C262 N261 1.351 . S
C262 C263 1.434 . S
C263 C254 1.429 . S
C263 N260 1.350 . S
C263 C262 1.434 . S
C264 C265 1.369 . S
C264 C266 1.419 . S
C264 H268 0.930 . S
C265 C264 1.369 . S
C265 C274 1.429 . S
C266 C264 1.419 . S
C266 C267 1.363 . S
C266 H269 0.929 . S
C267 C266 1.363 . S
C267 C273 1.428 . S
H268 C264 0.930 . S
H269 C266 0.929 . S
S270 N271 1.613 . S
S270 N272 1.610 . S
N271 S270 1.613 . S
N271 C274 1.350 . S
N272 S270 1.610 . S
N272 C273 1.351 . S
C273 C267 1.428 . S
C273 N272 1.351 . S
C273 C274 1.434 . S
C274 C265 1.429 . S
C274 N271 1.350 . S
C274 C273 1.434 . S
C275 C276 1.369 . S
C275 C277 1.419 . S
C275 H279 0.930 1_565 S
C276 C275 1.369 . S
C276 C285 1.429 1_556 S
C277 C275 1.419 . S
C277 C278 1.363 . S
C277 H280 0.929 . S
C278 C277 1.363 . S
C278 C284 1.428 . S
H279 C275 0.930 1_545 S
H280 C277 0.929 . S
S281 N282 1.613 . S
S281 N283 1.582 1_554 S
N282 S281 1.613 . S
N282 C285 1.350 . S
N283 S281 1.582 1_556 S
N283 C284 1.364 . S
C284 C278 1.428 . S
C284 N283 1.364 . S
C284 C285 1.434 1_556 S
C285 C276 1.429 1_554 S
C285 N282 1.350 . S
C285 C284 1.434 1_554 S
C286 C287 1.369 . S
C286 C288 1.419 . S
C286 H290 0.930 1_455 S
C287 C286 1.369 . S
C287 C296 1.429 . S
C288 C286 1.419 . S
C288 C289 1.363 . S
C288 H291 0.929 1_455 S
C289 C288 1.363 . S
C289 C295 1.428 . S
H290 C286 0.930 1_655 S
H291 C288 0.929 1_655 S
S292 N293 1.613 . S
S292 N294 1.610 . S
N293 S292 1.613 . S
N293 C296 1.350 . S
N294 S292 1.610 . S
N294 C295 1.351 . S
C295 C289 1.428 . S
C295 N294 1.351 . S
C295 C296 1.434 . S
C296 C287 1.429 . S
C296 N293 1.350 . S
C296 C295 1.434 . S
C297 C298 1.369 1_565 S
C297 C299 1.419 1_565 S
C297 H301 0.930 . S
C298 C297 1.369 1_545 S
C298 C307 1.429 . S
C299 C297 1.419 1_545 S
C299 C300 1.363 . S
C299 H302 0.929 1_545 S
C300 C299 1.363 . S
C300 C306 1.428 . S
H301 C297 0.930 . S
H302 C299 0.929 1_565 S
S303 N304 1.613 . S
S303 N305 1.610 . S
N304 S303 1.613 . S
N304 C307 1.350 . S
N305 S303 1.610 . S
N305 C306 1.351 . S
C306 C300 1.428 . S
C306 N305 1.351 . S
C306 C307 1.434 . S
C307 C298 1.429 . S
C307 N304 1.350 . S
C307 C306 1.434 . S
C308 C309 1.369 . S
C308 C310 1.419 . S
C308 H312 0.930 . S
C309 C308 1.369 . S
C309 C318 1.429 . S
C310 C308 1.419 . S
C310 C311 1.363 . S
C310 H313 0.929 . S
C311 C310 1.363 . S
C311 C317 1.428 . S
H312 C308 0.930 . S
H313 C310 0.929 . S
S314 N315 1.613 . S
S314 N316 1.610 . S
N315 S314 1.613 . S
N315 C318 1.350 . S
N316 S314 1.610 . S
N316 C317 1.351 . S
C317 C311 1.428 . S
C317 N316 1.351 . S
C317 C318 1.434 . S
C318 C309 1.429 . S
C318 N315 1.350 . S
C318 C317 1.434 . S
C319 C320 1.369 . S
C319 C321 1.419 . S
C319 H323 0.930 . S
C320 C319 1.369 . S
C320 C329 1.429 . S
C321 C319 1.419 . S
C321 C322 1.363 . S
C321 H324 0.929 1_455 S
C322 C321 1.363 . S
C322 C328 1.428 . S
H323 C319 0.930 . S
H324 C321 0.929 1_655 S
S325 N326 1.613 . S
S325 N327 1.610 . S
N326 S325 1.613 . S
N326 C329 1.350 . S
N327 S325 1.610 . S
N327 C328 1.351 . S
C328 C322 1.428 . S
C328 N327 1.351 . S
C328 C329 1.434 . S
C329 C320 1.429 . S
C329 N326 1.350 . S
C329 C328 1.434 . S
C201 C61 1.446 . S
C199 C10 1.444 . S
C210 C21 1.463 . S
C212 C131 1.495 . S
C221 C31 1.403 . S
C223 C183 1.495 . S
C232 C0 1.429 . S
C234 C77 1.491 . S
C245 C121 1.468 . S
C243 C18 1.393 . S
C254 C34 1.430 . S
C256 C167 1.454 . S
C267 C114 1.433 . S
C265 C36 1.434 . S
C276 C8 1.429 1_566 S
C278 C174 1.455 . S
C289 C68 1.449 . S
C287 C23 1.462 . S
C300 C130 1.434 . S
C298 C26 1.371 . S
C311 C184 1.499 . S
C309 C5 1.397 1_556 S
C320 C13 1.436 . S
C322 C78 1.488 . S
