# Generated by pormake.
# Topology pth, (4,4)-cn, num edge types: 1
# Building blocks:
#     Node 0, Type 0, BuildingBlock: CEKHIL_clean_sbu_0, # of connection points: 4
#     Node 1, Type 0, BuildingBlock: CEKHIL_clean_sbu_0, # of connection points: 4
#     Node 2, Type 0, BuildingBlock: CEKHIL_clean_sbu_0, # of connection points: 4
#     Node 3, Type 1, BuildingBlock: MUDLON_clean_sbu_0, # of connection points: 4
#     Node 4, Type 1, BuildingBlock: MUDLON_clean_sbu_0, # of connection points: 4
#     Node 5, Type 1, BuildingBlock: MUDLON_clean_sbu_0, # of connection points: 4
#     Edge 6, Type (0, 1), BuildingBlock: EZIPEK_clean_linker_0, # of connection points: 2
#     Edge 7, Type (0, 1), BuildingBlock: EZIPEK_clean_linker_0, # of connection points: 2
#     Edge 8, Type (0, 1), BuildingBlock: EZIPEK_clean_linker_0, # of connection points: 2
#     Edge 9, Type (0, 1), BuildingBlock: EZIPEK_clean_linker_0, # of connection points: 2
#     Edge 10, Type (0, 1), BuildingBlock: EZIPEK_clean_linker_0, # of connection points: 2
#     Edge 11, Type (0, 1), BuildingBlock: EZIPEK_clean_linker_0, # of connection points: 2
#     Edge 12, Type (0, 1), BuildingBlock: EZIPEK_clean_linker_0, # of connection points: 2
#     Edge 13, Type (0, 1), BuildingBlock: EZIPEK_clean_linker_0, # of connection points: 2
#     Edge 14, Type (0, 1), BuildingBlock: EZIPEK_clean_linker_0, # of connection points: 2
#     Edge 15, Type (0, 1), BuildingBlock: EZIPEK_clean_linker_0, # of connection points: 2
#     Edge 16, Type (0, 1), BuildingBlock: EZIPEK_clean_linker_0, # of connection points: 2
#     Edge 17, Type (0, 1), BuildingBlock: EZIPEK_clean_linker_0, # of connection points: 2
# Relax obj value: 0.014
# Max RMSD: 0.063
# Mean RMSD: 0.051
data_MOF--net-pth--node1-CEKHIL_clean_sbu_0--node2-MUDLON_clean_sbu_0--edge1-EZIPEK_clean_linker_0
_symmetry_space_group_name_H-M    P1
_symmetry_Int_Tables_number       1
_symmetry_cell_setting            triclinic
loop_
_symmetry_equiv_pos_as_xyz
'x, y, z'
_cell_length_a     16.53537
_cell_length_b     16.609622
_cell_length_c     44.718034
_cell_angle_alpha  91.427194
_cell_angle_beta   89.905967
_cell_angle_gamma 120.11824
loop_
_atom_site_label
_atom_site_type_symbol
_atom_site_fract_x
_atom_site_fract_y
_atom_site_fract_z
_atom_type_partial_charge
Co0 Co 0.07638 0.07327 0.11403 0.0
O1 O 0.99811 0.99178 0.14514 0.0
O2 O 0.10208 0.97234 0.11983 0.0
C3 C 0.11932 0.2077 0.14135 0.0
O4 O 0.17424 0.14319 0.08167 0.0
Co5 Co 0.03276 0.20954 0.08368 0.0
O6 O 0.14895 0.2503 0.06072 0.0
C7 C 0.92208 0.01197 0.06607 0.0
C8 C 0.04018 0.94442 0.14088 0.0
C9 C 0.19616 0.20957 0.06329 0.0
O10 O 0.97647 0.99599 0.08245 0.0
O11 O 0.928 0.09166 0.0653 0.0
O12 O 0.16267 0.16135 0.14436 0.0
O13 O 0.04865 0.17001 0.12288 0.0
Co14 Co 0.04573 0.08193 0.42627 0.0
O15 O 0.9856 0.11067 0.39473 0.0
O16 O 0.10181 0.21685 0.42268 0.0
C17 C 0.06332 0.9756 0.39824 0.0
O18 O 0.12468 0.07388 0.46058 0.0
Co19 Co 0.94668 0.88494 0.45064 0.0
O20 O 0.07282 0.92185 0.46633 0.0
C21 C 0.89006 0.01785 0.47262 0.0
C22 C 0.0431 0.19777 0.40053 0.0
C23 C 0.13205 0.00703 0.47213 0.0
O24 O 0.95341 0.08069 0.45636 0.0
O25 O 0.87218 0.93338 0.47243 0.0
O26 O 0.12339 0.06372 0.39707 0.0
O27 O 0.99011 0.95448 0.41423 0.0
Co28 Co 0.03719 0.06728 0.76233 0.0
O29 O 0.12264 0.1479 0.73251 0.0
O30 O 0.13307 0.03471 0.75368 0.0
C31 C 0.90514 0.03692 0.73671 0.0
O32 O 0.95872 0.96608 0.79271 0.0
Co33 Co 0.91041 0.12347 0.79596 0.0
O34 O 0.85692 1.00071 0.81461 0.0
C35 C 0.10796 0.21434 0.81362 0.0
C36 C 0.16496 0.10034 0.73419 0.0
C37 C 0.89063 0.94712 0.8108 0.0
O38 O 0.11813 0.15842 0.79553 0.0
O39 O 0.0319 0.21639 0.8157 0.0
O40 O 0.94761 0.99073 0.7308 0.0
O41 O 0.94727 0.10465 0.75627 0.0
Mg42 Mg 0.07928 0.58318 0.2692 0.0
C43 C 0.01306 0.40316 0.30357 0.0
O44 O 0.04035 0.37835 0.27929 0.0
C45 C 0.97458 0.66048 0.22715 0.0
O46 O 0.90557 0.63445 0.24604 0.0
C47 C 0.11327 0.4784 0.22233 0.0
O48 O 0.02748 0.46168 0.21826 0.0
O49 O 0.16205 0.53406 0.2438 0.0
O50 O 1.00515 0.47566 0.30318 0.0
O51 O 0.1344 0.70571 0.29992 0.0
C52 C 0.06723 0.70471 0.31447 0.0
O53 O 0.98224 0.63421 0.30987 0.0
O54 O 0.03785 0.6397 0.23166 0.0
Mg55 Mg 0.54739 0.07601 0.60845 0.0
C56 C 0.43401 0.05906 0.55292 0.0
O57 O 0.51951 0.11342 0.5437 0.0
C58 C 0.59345 0.99993 0.66511 0.0
O59 O 0.54074 0.02656 0.67905 0.0
C60 C 0.42899 0.09929 0.65093 0.0
O61 O 0.38603 0.01193 0.64145 0.0
O62 O 0.50996 0.15491 0.64061 0.0
O63 O 0.42311 0.0226 0.57856 0.0
O64 O 0.66217 0.12799 0.57589 0.0
C65 C 0.66655 0.05956 0.56386 0.0
O66 O 0.60897 0.9753 0.57309 0.0
O67 O 0.59465 0.99894 0.63658 0.0
Mg68 Mg 0.56221 0.57495 0.93875 0.0
C69 C 0.41731 0.44562 0.89435 0.0
O70 O 0.45881 0.39961 0.9023 0.0
C71 C 0.67147 0.70899 0.98582 0.0
O72 O 0.69856 0.64696 0.98478 0.0
C73 C 0.48657 0.38561 0.9763 0.0
O74 O 0.52083 0.3497 0.95711 0.0
O75 O 0.50178 0.468 0.97313 0.0
O76 O 0.44507 0.5264 0.9061 0.0
O77 O 0.69364 0.63533 0.9131 0.0
C78 C 0.69572 0.62125 0.88505 0.0
O79 O 0.62695 0.54524 0.87267 0.0
O80 O 0.60549 0.69792 0.96825 0.0
C81 C 0.13917 0.27813 0.19394 0.0
C82 C 0.13661 0.28697 0.16235 0.0
C83 C 0.14367 0.43745 0.17075 0.0
C84 C 0.14672 0.42834 0.20214 0.0
N85 N 0.18225 0.35763 0.24251 0.0
N86 N 0.16535 0.38871 0.1213 0.0
C87 C 0.15669 0.35479 0.21334 0.0
C88 C 0.14765 0.37094 0.15093 0.0
N89 N 0.1178 0.1947 0.20576 0.0
N90 N 0.13546 0.50921 0.15987 0.0
H91 H 0.17348 0.34357 0.10676 0.0
H92 H 0.18223 0.45199 0.11195 0.0
H93 H 0.13991 0.563 0.17365 0.0
H94 H 0.1206 0.5133 0.13752 0.0
H95 H 0.10921 0.18246 0.2286 0.0
H96 H 0.09845 0.13455 0.19288 0.0
H97 H 0.19765 0.30932 0.25134 0.0
H98 H 0.19933 0.41464 0.25677 0.0
C99 C 0.88008 0.09438 0.52087 0.0
C100 C 0.83734 0.04495 0.49368 0.0
C101 C 0.68577 0.02114 0.51046 0.0
C102 C 0.72781 0.06941 0.53796 0.0
N103 N 0.86737 0.16817 0.56695 0.0
N104 N 0.70696 0.98262 0.45933 0.0
C105 C 0.82605 0.11213 0.54223 0.0
C106 C 0.74241 0.01516 0.48747 0.0
N107 N 0.97097 0.11974 0.52699 0.0
N108 N 0.59091 0.97812 0.50667 0.0
H109 H 0.74694 0.97757 0.44208 0.0
H110 H 0.64112 0.96867 0.45225 0.0
H111 H 0.54723 0.98481 0.52208 0.0
H112 H 0.55463 0.93172 0.48903 0.0
H113 H 1.00343 0.14588 0.54771 0.0
H114 H 0.013 0.10934 0.51179 0.0
H115 H 0.93941 0.20877 0.57006 0.0
H116 H 0.82963 0.17999 0.58344 0.0
C117 C 0.74528 0.80516 0.8276 0.0
C118 C 0.84458 0.85792 0.82752 0.0
C119 C 0.84789 0.74843 0.86329 0.0
C120 C 0.74917 0.70372 0.8658 0.0
N121 N 0.60851 0.7098 0.85664 0.0
N122 N 0.99092 0.88786 0.8495 0.0
C123 C 0.69913 0.73758 0.84965 0.0
C124 C 0.89639 0.83142 0.84634 0.0
N125 N 0.69425 0.8183 0.80627 0.0
N126 N 0.89519 0.71137 0.87688 0.0
H127 H 0.0287 0.94991 0.83822 0.0
H128 H 0.0308 0.87731 0.86523 0.0
H129 H 0.8618 0.65235 0.88991 0.0
H130 H 0.96581 0.73485 0.87341 0.0
H131 H 0.62225 0.77482 0.80357 0.0
H132 H 0.72469 0.86614 0.78936 0.0
H133 H 0.57176 0.73929 0.84748 0.0
H134 H 0.5738 0.66567 0.87416 0.0
C135 C 0.09218 0.88802 0.18444 0.0
C136 C 0.02521 0.86879 0.16148 0.0
C137 C 0.92781 0.70971 0.17998 0.0
C138 C 0.99128 0.73159 0.20432 0.0
N139 N 0.12594 0.84729 0.23261 0.0
N140 N 0.87576 0.76497 0.13836 0.0
C141 C 0.07166 0.82213 0.20721 0.0
C142 C 0.94183 0.7806 0.15959 0.0
N143 N 0.17601 0.96958 0.1845 0.0
N144 N 0.85615 0.62022 0.17574 0.0
H145 H 0.88635 0.81313 0.12209 0.0
H146 H 0.80893 0.70678 0.13771 0.0
H147 H 0.844 0.56713 0.19024 0.0
H148 H 0.81292 0.59673 0.15685 0.0
H149 H 0.23233 0.98282 0.19827 0.0
H150 H 0.19236 0.02183 0.16923 0.0
H151 H 0.17783 0.91536 0.23786 0.0
H152 H 0.11429 0.80215 0.24995 0.0
C153 C 0.30014 0.10297 0.49192 0.0
C154 C 0.20793 0.02664 0.49451 0.0
C155 C 0.26412 0.96628 0.53429 0.0
C156 C 0.35339 0.04831 0.5342 0.0
N157 N 0.43806 0.2105 0.52016 0.0
N158 N 0.09899 0.90701 0.52731 0.0
C159 C 0.36623 0.12162 0.51519 0.0
C160 C 0.18873 0.96471 0.51851 0.0
N161 N 0.32701 0.15589 0.46704 0.0
N162 N 0.2508 0.88812 0.54801 0.0
H163 H 0.04216 0.91009 0.5186 0.0
H164 H 0.08314 0.86573 0.54604 0.0
H165 H 0.30483 0.88228 0.55764 0.0
H166 H 0.18769 0.82521 0.54641 0.0
H167 H 0.3962 0.20757 0.46369 0.0
H168 H 0.28383 0.14135 0.44837 0.0
H169 H 0.44551 0.26629 0.50783 0.0
H170 H 0.48112 0.23071 0.53912 0.0
C171 C 0.26776 0.35473 0.82285 0.0
C172 C 0.18654 0.2772 0.83421 0.0
C173 C 0.24905 0.32622 0.88547 0.0
C174 C 0.33422 0.39782 0.87393 0.0
N175 N 0.42818 0.47767 0.83165 0.0
N176 N 0.10375 0.18151 0.87581 0.0
C177 C 0.3443 0.41176 0.8426 0.0
C178 C 0.17792 0.26124 0.86544 0.0
N179 N 0.27062 0.37528 0.7933 0.0
N180 N 0.23588 0.32133 0.91572 0.0
H181 H 0.05076 0.13183 0.86185 0.0
H182 H 0.09843 0.16043 0.8978 0.0
H183 H 0.28658 0.36806 0.93092 0.0
H184 H 0.17236 0.27672 0.92565 0.0
H185 H 0.32311 0.43623 0.78415 0.0
H186 H 0.21662 0.33433 0.77815 0.0
H187 H 0.44483 0.48381 0.80905 0.0
H188 H 0.48323 0.52394 0.84553 0.0
C189 C 0.83358 0.10372 0.70264 0.0
C190 C 0.82577 0.02551 0.71749 0.0
C191 C 0.67111 0.92637 0.69339 0.0
C192 C 0.67461 0.00678 0.68188 0.0
N193 N 0.75498 0.17407 0.67801 0.0
N194 N 0.73542 0.86183 0.728 0.0
C195 C 0.75458 0.09599 0.68729 0.0
C196 C 0.74427 0.93637 0.71293 0.0
N197 N 0.91835 0.18389 0.70134 0.0
N198 N 0.59835 0.84045 0.68527 0.0
H199 H 0.78771 0.86563 0.74194 0.0
H200 H 0.67403 0.79762 0.72842 0.0
H201 H 0.54333 0.8315 0.67153 0.0
H202 H 0.59562 0.77824 0.6902 0.0
H203 H 0.93056 0.23959 0.68813 0.0
H204 H 0.97956 0.19125 0.7106 0.0
H205 H 0.80572 0.24126 0.68477 0.0
H206 H 0.70126 0.17203 0.66522 0.0
C207 C 0.85969 0.94781 0.01416 0.0
C208 C 0.85221 0.93633 0.04568 0.0
C209 C 0.71687 0.77879 0.03789 0.0
C210 C 0.72258 0.79156 1.00647 0.0
N211 N 0.78813 0.89349 0.96491 0.0
N212 N 0.76292 0.84921 0.08778 0.0
C213 C 0.78997 0.87815 0.99473 0.0
C214 C 0.77766 0.85404 0.05762 0.0
N215 N 0.93657 0.02273 1.00263 0.0
N216 N 0.65415 0.69385 0.04882 0.0
H217 H 0.80547 0.90318 0.1028 0.0
H218 H 0.70455 0.79529 0.09775 0.0
H219 H 0.6041 0.63951 0.03531 0.0
H220 H 0.65437 0.67569 0.07092 0.0
H221 H 0.95201 0.02976 0.97994 0.0
H222 H 0.98988 0.0747 0.01589 0.0
H223 H 0.82857 0.95829 0.95546 0.0
H224 H 0.74037 0.84323 0.94985 0.0
C225 C 0.00925 0.87811 0.35079 0.0
C226 C 0.06802 0.90839 0.3766 0.0
C227 C 0.13532 0.8116 0.36044 0.0
C228 C 0.07881 0.78407 0.33411 0.0
N229 N 0.98147 0.8111 0.30059 0.0
N230 N 0.20112 0.92036 0.40283 0.0
C231 C 0.02135 0.82316 0.3283 0.0
C232 C 0.13581 0.88053 0.38037 0.0
N233 N 0.94157 0.90173 0.34761 0.0
N234 N 0.1848 0.76869 0.36725 0.0
H235 H 0.20238 0.96931 0.41816 0.0
H236 H 0.25828 0.91051 0.40485 0.0
H237 H 0.1868 0.71873 0.35319 0.0
H238 H 0.21851 0.77772 0.38775 0.0
H239 H 0.88888 0.8717 0.33135 0.0
H240 H 0.9338 0.94686 0.36236 0.0
H241 H 0.94701 0.84562 0.29375 0.0
H242 H 0.99172 0.77433 0.28326 0.0
C243 C 0.21817 0.09947 0.68142 0.0
C244 C 0.23976 0.11469 0.71257 0.0
C245 C 0.39971 0.14702 0.7022 0.0
C246 C 0.37656 0.12895 0.67128 0.0
N247 N 0.27592 0.11631 0.63064 0.0
N248 N 0.35579 0.17276 0.75205 0.0
C249 C 0.28962 0.1148 0.66072 0.0
C250 C 0.3322 0.14458 0.72282 0.0
N251 N 0.12802 0.06456 0.67165 0.0
N252 N 0.48509 0.16357 0.71189 0.0
H253 H 0.30809 0.17199 0.76751 0.0
H254 H 0.4237 0.20335 0.76054 0.0
H255 H 0.5381 0.17395 0.69712 0.0
H256 H 0.50285 0.16519 0.7343 0.0
H257 H 0.10607 0.04188 0.64969 0.0
H258 H 0.0728 0.05051 0.68587 0.0
H259 H 0.21771 0.11532 0.62136 0.0
H260 H 0.32784 0.12838 0.61512 0.0
C261 C 0.36459 0.32221 0.05155 0.0
C262 C 0.27897 0.24087 0.04362 0.0
C263 C 0.33379 0.2465 0.99218 0.0
C264 C 0.4201 0.32799 1.00004 0.0
N265 N 0.52586 0.43029 0.03859 0.0
N266 N 0.19117 0.11227 1.00916 0.0
C267 C 0.43799 0.36161 0.03024 0.0
C268 C 0.26703 0.19842 0.01485 0.0
N269 N 0.37449 0.3634 0.07918 0.0
N270 N 0.31213 0.21874 0.96283 0.0
H271 H 0.14122 0.07583 0.02533 0.0
H272 H 0.18254 0.07334 0.98959 0.0
H273 H 0.35731 0.25219 0.94531 0.0
H274 H 0.24603 0.16718 0.95546 0.0
H275 H 0.43002 0.42893 0.08522 0.0
H276 H 0.32426 0.3335 0.09578 0.0
H277 H 0.54621 0.45268 0.06067 0.0
H278 H 0.58119 0.45929 0.02362 0.0
C279 C 0.95715 0.26871 0.37641 0.0
C280 C 0.04256 0.26917 0.38096 0.0
C281 C 0.11315 0.38096 0.34071 0.0
C282 C 0.02369 0.36673 0.33266 0.0
N283 N 0.85967 0.29803 0.34278 0.0
N284 N 0.20094 0.32084 0.36561 0.0
C285 C 0.94554 0.31195 0.35078 0.0
C286 C 0.12092 0.32527 0.36297 0.0
N287 N 0.88765 0.22766 0.39692 0.0
N288 N 0.19118 0.44907 0.32732 0.0
H289 H 0.21045 0.28172 0.38161 0.0
H290 H 0.25555 0.35058 0.35047 0.0
H291 H 0.18832 0.49248 0.31139 0.0
H292 H 0.25898 0.46901 0.3342 0.0
H293 H 0.82666 0.23135 0.39653 0.0
H294 H 0.89514 0.19715 0.41607 0.0
H295 H 0.79777 0.25055 0.35297 0.0
H296 H 0.84981 0.33076 0.32468 0.0
loop_
_geom_bond_atom_site_label_1
_geom_bond_atom_site_label_2
_geom_bond_distance
_geom_bond_site_symmetry_2
_ccdc_geom_bond_type
Co0 O1 2.216 1_445 S
Co0 O2 2.091 1_545 S
Co0 O4 2.004 . S
Co0 O10 2.021 1_445 S
Co0 O12 2.137 . S
Co0 O13 2.244 1_455 S
O1 Co0 2.216 1_665 S
O1 C8 1.247 1_655 S
O2 Co0 2.091 1_565 S
O2 C8 1.261 . S
C3 O12 1.247 . S
C3 O13 1.272 1_455 S
O4 Co0 2.004 . S
O4 C9 1.259 . S
Co5 O6 2.061 1_655 S
Co5 O11 2.052 . S
Co5 O13 2.135 . S
O6 Co5 2.061 1_455 S
O6 C9 1.235 . S
C7 O10 1.238 . S
C7 O11 1.241 1_565 S
C8 O1 1.247 1_455 S
C8 O2 1.261 . S
C9 O4 1.259 . S
C9 O6 1.235 . S
O10 Co0 2.021 1_665 S
O10 C7 1.238 . S
O11 Co5 2.052 . S
O11 C7 1.241 1_545 S
O12 Co0 2.137 . S
O12 C3 1.247 . S
O13 Co0 2.244 1_655 S
O13 C3 1.272 1_655 S
O13 Co5 2.135 . S
Co14 O15 2.216 1_455 S
Co14 O16 2.091 . S
Co14 O18 2.004 . S
Co14 O24 2.027 . S
Co14 O26 2.137 . S
Co14 O27 2.244 1_545 S
O15 Co14 2.216 1_655 S
O15 C22 1.247 1_655 S
O16 Co14 2.091 . S
O16 C22 1.261 . S
C17 O26 1.247 1_565 S
C17 O27 1.279 . S
O18 Co14 2.004 . S
O18 C23 1.259 . S
Co19 O20 2.061 1_655 S
Co19 O25 2.052 . S
Co19 O27 2.135 1_655 S
O20 Co19 2.061 1_455 S
O20 C23 1.235 1_565 S
C21 O24 1.233 1_655 S
C21 O25 1.241 1_545 S
C22 O15 1.247 1_455 S
C22 O16 1.261 . S
C23 O18 1.259 . S
C23 O20 1.235 1_545 S
O24 Co14 2.027 . S
O24 C21 1.233 1_455 S
O25 Co19 2.052 . S
O25 C21 1.241 1_565 S
O26 Co14 2.137 . S
O26 C17 1.247 1_545 S
O27 Co14 2.244 1_565 S
O27 C17 1.279 . S
O27 Co19 2.135 1_455 S
Co28 O29 2.216 . S
Co28 O30 2.091 1_545 S
Co28 O32 2.004 1_445 S
Co28 O38 2.021 . S
Co28 O40 2.137 1_445 S
Co28 O41 2.244 1_455 S
O29 Co28 2.216 . S
O29 C36 1.247 . S
O30 Co28 2.091 1_565 S
O30 C36 1.261 1_565 S
C31 O40 1.247 1_545 S
C31 O41 1.272 . S
O32 Co28 2.004 1_665 S
O32 C37 1.259 . S
Co33 O34 2.061 . S
Co33 O39 2.052 1_655 S
Co33 O41 2.135 . S
O34 Co33 2.061 . S
O34 C37 1.235 1_545 S
C35 O38 1.238 . S
C35 O39 1.241 . S
C36 O29 1.247 . S
C36 O30 1.261 1_545 S
C37 O32 1.259 . S
C37 O34 1.235 1_565 S
O38 Co28 2.021 . S
O38 C35 1.238 . S
O39 Co33 2.052 1_455 S
O39 C35 1.241 . S
O40 Co28 2.137 1_665 S
O40 C31 1.247 1_565 S
O41 Co28 2.244 1_655 S
O41 C31 1.272 . S
O41 Co33 2.135 . S
Mg42 O49 2.141 . S
Mg42 O50 2.048 . S
Mg42 O51 2.048 . S
Mg42 O54 2.141 . S
C43 O44 1.313 1_455 S
C43 O50 1.195 . S
O44 C43 1.313 1_655 S
C45 O46 1.245 1_455 S
C45 O54 1.289 . S
O46 C45 1.245 1_655 S
C47 O48 1.245 1_455 S
C47 O49 1.289 . S
O48 C47 1.245 1_655 S
O49 Mg42 2.141 . S
O49 C47 1.289 . S
O50 Mg42 2.048 . S
O50 C43 1.195 . S
O51 Mg42 2.048 . S
O51 C52 1.195 . S
C52 O51 1.195 . S
C52 O53 1.313 1_455 S
O53 C52 1.313 1_655 S
O54 Mg42 2.141 . S
O54 C45 1.289 . S
Mg55 O62 2.141 . S
Mg55 O63 2.048 . S
Mg55 O64 2.048 . S
Mg55 O67 2.141 . S
C56 O57 1.313 1_545 S
C56 O63 1.195 . S
O57 C56 1.313 1_565 S
C58 O59 1.245 1_545 S
C58 O67 1.289 . S
O59 C58 1.245 1_565 S
C60 O61 1.245 1_545 S
C60 O62 1.289 . S
O61 C60 1.245 1_565 S
O62 Mg55 2.141 . S
O62 C60 1.289 . S
O63 Mg55 2.048 . S
O63 C56 1.195 . S
O64 Mg55 2.048 . S
O64 C65 1.195 . S
C65 O64 1.195 . S
C65 O66 1.313 1_545 S
O66 C65 1.313 1_565 S
O67 Mg55 2.141 . S
O67 C58 1.289 . S
Mg68 O75 2.141 . S
Mg68 O76 2.048 . S
Mg68 O77 2.048 . S
Mg68 O80 2.141 . S
C69 O70 1.313 . S
C69 O76 1.195 . S
O70 C69 1.313 . S
C71 O72 1.245 . S
C71 O80 1.289 . S
O72 C71 1.245 . S
C73 O74 1.245 . S
C73 O75 1.289 . S
O74 C73 1.245 . S
O75 Mg68 2.141 . S
O75 C73 1.289 . S
O76 Mg68 2.048 . S
O76 C69 1.195 . S
O77 Mg68 2.048 . S
O77 C78 1.195 . S
C78 O77 1.195 . S
C78 O79 1.313 . S
O79 C78 1.313 . S
O80 Mg68 2.141 . S
O80 C71 1.289 . S
C81 C82 1.363 1_655 S
C81 C87 1.379 . S
C81 N89 1.356 . S
C82 C81 1.363 1_455 S
C82 C88 1.363 . S
C83 C84 1.363 . S
C83 C88 1.379 . S
C83 N90 1.356 . S
C84 C83 1.363 . S
C84 C87 1.363 1_455 S
N85 C87 1.356 . S
N85 H97 0.984 . S
N85 H98 0.985 . S
N86 C88 1.356 . S
N86 H91 0.984 . S
N86 H92 0.985 . S
C87 C81 1.379 . S
C87 C84 1.363 1_655 S
C87 N85 1.356 . S
C88 C82 1.363 . S
C88 C83 1.379 . S
C88 N86 1.356 . S
N89 C81 1.356 . S
N89 H95 0.984 . S
N89 H96 0.984 . S
N90 C83 1.356 . S
N90 H93 0.984 . S
N90 H94 0.985 . S
H91 N86 0.984 . S
H92 N86 0.985 . S
H93 N90 0.984 . S
H94 N90 0.985 . S
H95 N89 0.984 . S
H96 N89 0.984 . S
H97 N85 0.984 . S
H98 N85 0.985 . S
C99 C100 1.363 . S
C99 C105 1.379 . S
C99 N107 1.356 . S
C100 C99 1.363 . S
C100 C106 1.363 1_545 S
C101 C102 1.363 1_565 S
C101 C106 1.379 . S
C101 N108 1.356 . S
C102 C101 1.363 1_545 S
C102 C105 1.363 . S
N103 C105 1.356 . S
N103 H115 0.984 . S
N103 H116 0.985 . S
N104 C106 1.356 . S
N104 H109 0.984 . S
N104 H110 0.985 . S
C105 C99 1.379 . S
C105 C102 1.363 . S
C105 N103 1.356 . S
C106 C100 1.363 1_565 S
C106 C101 1.379 . S
C106 N104 1.356 . S
N107 C99 1.356 . S
N107 H113 0.984 1_655 S
N107 H114 0.984 1_655 S
N108 C101 1.356 . S
N108 H111 0.984 . S
N108 H112 0.985 . S
H109 N104 0.984 . S
H110 N104 0.985 . S
H111 N108 0.984 . S
H112 N108 0.985 . S
H113 N107 0.984 1_455 S
H114 N107 0.984 1_455 S
H115 N103 0.984 . S
H116 N103 0.985 . S
C117 C118 1.363 . S
C117 C123 1.379 . S
C117 N125 1.356 . S
C118 C117 1.363 . S
C118 C124 1.363 . S
C119 C120 1.363 . S
C119 C124 1.379 . S
C119 N126 1.356 . S
C120 C119 1.363 . S
C120 C123 1.363 . S
N121 C123 1.356 . S
N121 H133 0.984 . S
N121 H134 0.985 . S
N122 C124 1.356 . S
N122 H127 0.984 . S
N122 H128 0.985 . S
C123 C117 1.379 . S
C123 C120 1.363 . S
C123 N121 1.356 . S
C124 C118 1.363 . S
C124 C119 1.379 . S
C124 N122 1.356 . S
N125 C117 1.356 . S
N125 H131 0.984 . S
N125 H132 0.984 . S
N126 C119 1.356 . S
N126 H129 0.984 . S
N126 H130 0.985 . S
H127 N122 0.984 . S
H128 N122 0.985 . S
H129 N126 0.984 . S
H130 N126 0.985 . S
H131 N125 0.984 . S
H132 N125 0.984 . S
H133 N121 0.984 . S
H134 N121 0.985 . S
C135 C136 1.363 . S
C135 C141 1.379 . S
C135 N143 1.356 . S
C136 C135 1.363 . S
C136 C142 1.363 1_455 S
C137 C138 1.363 1_655 S
C137 C142 1.379 . S
C137 N144 1.356 . S
C138 C137 1.363 1_455 S
C138 C141 1.363 . S
N139 C141 1.356 . S
N139 H151 0.984 . S
N139 H152 0.985 . S
N140 C142 1.356 . S
N140 H145 0.984 . S
N140 H146 0.985 . S
C141 C135 1.379 . S
C141 C138 1.363 . S
C141 N139 1.356 . S
C142 C136 1.363 1_655 S
C142 C137 1.379 . S
C142 N140 1.356 . S
N143 C135 1.356 . S
N143 H149 0.984 1_565 S
N143 H150 0.984 1_565 S
N144 C137 1.356 . S
N144 H147 0.984 . S
N144 H148 0.985 . S
H145 N140 0.984 . S
H146 N140 0.985 . S
H147 N144 0.984 . S
H148 N144 0.985 . S
H149 N143 0.984 1_545 S
H150 N143 0.984 1_545 S
H151 N139 0.984 . S
H152 N139 0.985 . S
C153 C154 1.363 . S
C153 C159 1.379 . S
C153 N161 1.356 . S
C154 C153 1.363 . S
C154 C160 1.363 . S
C155 C156 1.363 . S
C155 C160 1.379 . S
C155 N162 1.356 1_545 S
C156 C155 1.363 . S
C156 C159 1.363 . S
N157 C159 1.356 . S
N157 H169 0.984 . S
N157 H170 0.985 . S
N158 C160 1.356 1_565 S
N158 H163 0.984 . S
N158 H164 0.985 . S
C159 C153 1.379 . S
C159 C156 1.363 . S
C159 N157 1.356 . S
C160 C154 1.363 . S
C160 C155 1.379 . S
C160 N158 1.356 1_545 S
N161 C153 1.356 . S
N161 H167 0.984 . S
N161 H168 0.984 . S
N162 C155 1.356 1_565 S
N162 H165 0.984 . S
N162 H166 0.985 . S
H163 N158 0.984 . S
H164 N158 0.985 . S
H165 N162 0.984 . S
H166 N162 0.985 . S
H167 N161 0.984 . S
H168 N161 0.984 . S
H169 N157 0.984 . S
H170 N157 0.985 . S
C171 C172 1.363 . S
C171 C177 1.379 . S
C171 N179 1.356 . S
C172 C171 1.363 . S
C172 C178 1.363 . S
C173 C174 1.363 . S
C173 C178 1.379 . S
C173 N180 1.356 . S
C174 C173 1.363 . S
C174 C177 1.363 . S
N175 C177 1.356 . S
N175 H187 0.984 . S
N175 H188 0.985 . S
N176 C178 1.356 . S
N176 H181 0.984 . S
N176 H182 0.985 . S
C177 C171 1.379 . S
C177 C174 1.363 . S
C177 N175 1.356 . S
C178 C172 1.363 . S
C178 C173 1.379 . S
C178 N176 1.356 . S
N179 C171 1.356 . S
N179 H185 0.984 . S
N179 H186 0.984 . S
N180 C173 1.356 . S
N180 H183 0.984 . S
N180 H184 0.985 . S
H181 N176 0.984 . S
H182 N176 0.985 . S
H183 N180 0.984 . S
H184 N180 0.985 . S
H185 N179 0.984 . S
H186 N179 0.984 . S
H187 N175 0.984 . S
H188 N175 0.985 . S
C189 C190 1.363 . S
C189 C195 1.379 . S
C189 N197 1.356 . S
C190 C189 1.363 . S
C190 C196 1.363 1_545 S
C191 C192 1.363 1_565 S
C191 C196 1.379 . S
C191 N198 1.356 . S
C192 C191 1.363 1_545 S
C192 C195 1.363 . S
N193 C195 1.356 . S
N193 H205 0.984 . S
N193 H206 0.985 . S
N194 C196 1.356 . S
N194 H199 0.984 . S
N194 H200 0.985 . S
C195 C189 1.379 . S
C195 C192 1.363 . S
C195 N193 1.356 . S
C196 C190 1.363 1_565 S
C196 C191 1.379 . S
C196 N194 1.356 . S
N197 C189 1.356 . S
N197 H203 0.984 . S
N197 H204 0.984 . S
N198 C191 1.356 . S
N198 H201 0.984 . S
N198 H202 0.985 . S
H199 N194 0.984 . S
H200 N194 0.985 . S
H201 N198 0.984 . S
H202 N198 0.985 . S
H203 N197 0.984 . S
H204 N197 0.984 . S
H205 N193 0.984 . S
H206 N193 0.985 . S
C207 C208 1.363 . S
C207 C213 1.379 1_554 S
C207 N215 1.356 1_565 S
C208 C207 1.363 . S
C208 C214 1.363 . S
C209 C210 1.363 1_554 S
C209 C214 1.379 . S
C209 N216 1.356 . S
C210 C209 1.363 1_556 S
C210 C213 1.363 . S
N211 C213 1.356 . S
N211 H223 0.984 . S
N211 H224 0.985 . S
N212 C214 1.356 . S
N212 H217 0.984 . S
N212 H218 0.985 . S
C213 C207 1.379 1_556 S
C213 C210 1.363 . S
C213 N211 1.356 . S
C214 C208 1.363 . S
C214 C209 1.379 . S
C214 N212 1.356 . S
N215 C207 1.356 1_545 S
N215 H221 0.984 . S
N215 H222 0.984 . S
N216 C209 1.356 . S
N216 H219 0.984 1_554 S
N216 H220 0.985 . S
H217 N212 0.984 . S
H218 N212 0.985 . S
H219 N216 0.984 1_556 S
H220 N216 0.985 . S
H221 N215 0.984 . S
H222 N215 0.984 . S
H223 N211 0.984 . S
H224 N211 0.985 . S
C225 C226 1.363 . S
C225 C231 1.379 . S
C225 N233 1.356 1_455 S
C226 C225 1.363 . S
C226 C232 1.363 . S
C227 C228 1.363 . S
C227 C232 1.379 . S
C227 N234 1.356 . S
C228 C227 1.363 . S
C228 C231 1.363 . S
N229 C231 1.356 1_655 S
N229 H241 0.984 . S
N229 H242 0.985 . S
N230 C232 1.356 . S
N230 H235 0.984 . S
N230 H236 0.985 . S
C231 C225 1.379 . S
C231 C228 1.363 . S
C231 N229 1.356 1_455 S
C232 C226 1.363 . S
C232 C227 1.379 . S
C232 N230 1.356 . S
N233 C225 1.356 1_655 S
N233 H239 0.984 . S
N233 H240 0.984 . S
N234 C227 1.356 . S
N234 H237 0.984 . S
N234 H238 0.985 . S
H235 N230 0.984 . S
H236 N230 0.985 . S
H237 N234 0.984 . S
H238 N234 0.985 . S
H239 N233 0.984 . S
H240 N233 0.984 . S
H241 N229 0.984 . S
H242 N229 0.985 . S
C243 C244 1.363 . S
C243 C249 1.379 . S
C243 N251 1.356 . S
C244 C243 1.363 . S
C244 C250 1.363 1_545 S
C245 C246 1.363 1_565 S
C245 C250 1.379 . S
C245 N252 1.356 . S
C246 C245 1.363 1_545 S
C246 C249 1.363 . S
N247 C249 1.356 . S
N247 H259 0.984 . S
N247 H260 0.985 . S
N248 C250 1.356 . S
N248 H253 0.984 . S
N248 H254 0.985 . S
C249 C243 1.379 . S
C249 C246 1.363 . S
C249 N247 1.356 . S
C250 C244 1.363 1_565 S
C250 C245 1.379 . S
C250 N248 1.356 . S
N251 C243 1.356 . S
N251 H257 0.984 . S
N251 H258 0.984 . S
N252 C245 1.356 . S
N252 H255 0.984 . S
N252 H256 0.985 . S
H253 N248 0.984 . S
H254 N248 0.985 . S
H255 N252 0.984 . S
H256 N252 0.985 . S
H257 N251 0.984 . S
H258 N251 0.984 . S
H259 N247 0.984 . S
H260 N247 0.985 . S
C261 C262 1.363 . S
C261 C267 1.379 . S
C261 N269 1.356 . S
C262 C261 1.363 . S
C262 C268 1.363 . S
C263 C264 1.363 . S
C263 C268 1.379 1_556 S
C263 N270 1.356 . S
C264 C263 1.363 . S
C264 C267 1.363 1_556 S
N265 C267 1.356 . S
N265 H277 0.984 . S
N265 H278 0.985 . S
N266 C268 1.356 . S
N266 H271 0.984 . S
N266 H272 0.985 1_554 S
C267 C261 1.379 . S
C267 C264 1.363 1_554 S
C267 N265 1.356 . S
C268 C262 1.363 . S
C268 C263 1.379 1_554 S
C268 N266 1.356 . S
N269 C261 1.356 . S
N269 H275 0.984 . S
N269 H276 0.984 . S
N270 C263 1.356 . S
N270 H273 0.984 . S
N270 H274 0.985 . S
H271 N266 0.984 . S
H272 N266 0.985 1_556 S
H273 N270 0.984 . S
H274 N270 0.985 . S
H275 N269 0.984 . S
H276 N269 0.984 . S
H277 N265 0.984 . S
H278 N265 0.985 . S
C279 C280 1.363 . S
C279 C285 1.379 . S
C279 N287 1.356 1_455 S
C280 C279 1.363 . S
C280 C286 1.363 . S
C281 C282 1.363 . S
C281 C286 1.379 . S
C281 N288 1.356 . S
C282 C281 1.363 . S
C282 C285 1.363 . S
N283 C285 1.356 1_655 S
N283 H295 0.984 . S
N283 H296 0.985 . S
N284 C286 1.356 . S
N284 H289 0.984 . S
N284 H290 0.985 . S
C285 C279 1.379 . S
C285 C282 1.363 . S
C285 N283 1.356 1_455 S
C286 C280 1.363 . S
C286 C281 1.379 . S
C286 N284 1.356 . S
N287 C279 1.356 1_655 S
N287 H293 0.984 . S
N287 H294 0.984 1_655 S
N288 C281 1.356 . S
N288 H291 0.984 . S
N288 H292 0.985 . S
H289 N284 0.984 . S
H290 N284 0.985 . S
H291 N288 0.984 . S
H292 N288 0.985 . S
H293 N287 0.984 . S
H294 N287 0.984 1_455 S
H295 N283 0.984 . S
H296 N283 0.985 . S
C84 C47 1.435 . S
C82 C3 1.438 . S
C100 C21 1.505 . S
C102 C65 1.524 . S
C118 C37 1.485 . S
C120 C78 1.498 . S
C136 C8 1.444 . S
C138 C45 1.441 . S
C156 C56 1.497 . S
C154 C23 1.475 . S
C172 C35 1.480 . S
C174 C69 1.498 . S
C192 C58 1.443 . S
C190 C31 1.441 . S
C208 C7 1.422 . S
C210 C71 1.437 . S
C228 C52 1.496 . S
C226 C17 1.495 . S
C246 C60 1.403 . S
C244 C36 1.411 . S
C264 C73 1.437 . S
C262 C9 1.430 . S
C280 C22 1.499 . S
C282 C43 1.498 . S
