# Generated by pormake.
# Topology fgl, (4,4)-cn, num edge types: 1
# Building blocks:
#     Node 0, Type 0, BuildingBlock: ESEHIV_clean_sbu_0, # of connection points: 4
#     Node 1, Type 0, BuildingBlock: ESEHIV_clean_sbu_0, # of connection points: 4
#     Node 2, Type 0, BuildingBlock: ESEHIV_clean_sbu_0, # of connection points: 4
#     Node 3, Type 0, BuildingBlock: ESEHIV_clean_sbu_0, # of connection points: 4
#     Node 4, Type 0, BuildingBlock: ESEHIV_clean_sbu_0, # of connection points: 4
#     Node 5, Type 0, BuildingBlock: ESEHIV_clean_sbu_0, # of connection points: 4
#     Node 6, Type 0, BuildingBlock: ESEHIV_clean_sbu_0, # of connection points: 4
#     Node 7, Type 0, BuildingBlock: ESEHIV_clean_sbu_0, # of connection points: 4
#     Node 8, Type 0, BuildingBlock: ESEHIV_clean_sbu_0, # of connection points: 4
#     Node 9, Type 0, BuildingBlock: ESEHIV_clean_sbu_0, # of connection points: 4
#     Node 10, Type 0, BuildingBlock: ESEHIV_clean_sbu_0, # of connection points: 4
#     Node 11, Type 0, BuildingBlock: ESEHIV_clean_sbu_0, # of connection points: 4
#     Node 12, Type 0, BuildingBlock: ESEHIV_clean_sbu_0, # of connection points: 4
#     Node 13, Type 0, BuildingBlock: ESEHIV_clean_sbu_0, # of connection points: 4
#     Node 14, Type 0, BuildingBlock: ESEHIV_clean_sbu_0, # of connection points: 4
#     Node 15, Type 0, BuildingBlock: ESEHIV_clean_sbu_0, # of connection points: 4
#     Node 16, Type 0, BuildingBlock: ESEHIV_clean_sbu_0, # of connection points: 4
#     Node 17, Type 0, BuildingBlock: ESEHIV_clean_sbu_0, # of connection points: 4
#     Node 18, Type 1, BuildingBlock: TATPOV_clean_sbu_0, # of connection points: 4
#     Node 19, Type 1, BuildingBlock: TATPOV_clean_sbu_0, # of connection points: 4
#     Node 20, Type 1, BuildingBlock: TATPOV_clean_sbu_0, # of connection points: 4
#     Node 21, Type 1, BuildingBlock: TATPOV_clean_sbu_0, # of connection points: 4
#     Node 22, Type 1, BuildingBlock: TATPOV_clean_sbu_0, # of connection points: 4
#     Node 23, Type 1, BuildingBlock: TATPOV_clean_sbu_0, # of connection points: 4
#     Node 24, Type 1, BuildingBlock: TATPOV_clean_sbu_0, # of connection points: 4
#     Node 25, Type 1, BuildingBlock: TATPOV_clean_sbu_0, # of connection points: 4
#     Node 26, Type 1, BuildingBlock: TATPOV_clean_sbu_0, # of connection points: 4
#     Node 27, Type 1, BuildingBlock: TATPOV_clean_sbu_0, # of connection points: 4
#     Node 28, Type 1, BuildingBlock: TATPOV_clean_sbu_0, # of connection points: 4
#     Node 29, Type 1, BuildingBlock: TATPOV_clean_sbu_0, # of connection points: 4
#     Node 30, Type 1, BuildingBlock: TATPOV_clean_sbu_0, # of connection points: 4
#     Node 31, Type 1, BuildingBlock: TATPOV_clean_sbu_0, # of connection points: 4
#     Node 32, Type 1, BuildingBlock: TATPOV_clean_sbu_0, # of connection points: 4
#     Node 33, Type 1, BuildingBlock: TATPOV_clean_sbu_0, # of connection points: 4
#     Node 34, Type 1, BuildingBlock: TATPOV_clean_sbu_0, # of connection points: 4
#     Node 35, Type 1, BuildingBlock: TATPOV_clean_sbu_0, # of connection points: 4
#     Edge 36, Type (0, 1), BuildingBlock: ZUJKAS_clean_linker_0, # of connection points: 2
#     Edge 37, Type (0, 1), BuildingBlock: ZUJKAS_clean_linker_0, # of connection points: 2
#     Edge 38, Type (0, 1), BuildingBlock: ZUJKAS_clean_linker_0, # of connection points: 2
#     Edge 39, Type (0, 1), BuildingBlock: ZUJKAS_clean_linker_0, # of connection points: 2
#     Edge 40, Type (0, 1), BuildingBlock: ZUJKAS_clean_linker_0, # of connection points: 2
#     Edge 41, Type (0, 1), BuildingBlock: ZUJKAS_clean_linker_0, # of connection points: 2
#     Edge 42, Type (0, 1), BuildingBlock: ZUJKAS_clean_linker_0, # of connection points: 2
#     Edge 43, Type (0, 1), BuildingBlock: ZUJKAS_clean_linker_0, # of connection points: 2
#     Edge 44, Type (0, 1), BuildingBlock: ZUJKAS_clean_linker_0, # of connection points: 2
#     Edge 45, Type (0, 1), BuildingBlock: ZUJKAS_clean_linker_0, # of connection points: 2
#     Edge 46, Type (0, 1), BuildingBlock: ZUJKAS_clean_linker_0, # of connection points: 2
#     Edge 47, Type (0, 1), BuildingBlock: ZUJKAS_clean_linker_0, # of connection points: 2
#     Edge 48, Type (0, 1), BuildingBlock: ZUJKAS_clean_linker_0, # of connection points: 2
#     Edge 49, Type (0, 1), BuildingBlock: ZUJKAS_clean_linker_0, # of connection points: 2
#     Edge 50, Type (0, 1), BuildingBlock: ZUJKAS_clean_linker_0, # of connection points: 2
#     Edge 51, Type (0, 1), BuildingBlock: ZUJKAS_clean_linker_0, # of connection points: 2
#     Edge 52, Type (0, 1), BuildingBlock: ZUJKAS_clean_linker_0, # of connection points: 2
#     Edge 53, Type (0, 1), BuildingBlock: ZUJKAS_clean_linker_0, # of connection points: 2
#     Edge 54, Type (0, 1), BuildingBlock: ZUJKAS_clean_linker_0, # of connection points: 2
#     Edge 55, Type (0, 1), BuildingBlock: ZUJKAS_clean_linker_0, # of connection points: 2
#     Edge 56, Type (0, 1), BuildingBlock: ZUJKAS_clean_linker_0, # of connection points: 2
#     Edge 57, Type (0, 1), BuildingBlock: ZUJKAS_clean_linker_0, # of connection points: 2
#     Edge 58, Type (0, 1), BuildingBlock: ZUJKAS_clean_linker_0, # of connection points: 2
#     Edge 59, Type (0, 1), BuildingBlock: ZUJKAS_clean_linker_0, # of connection points: 2
#     Edge 60, Type (0, 1), BuildingBlock: ZUJKAS_clean_linker_0, # of connection points: 2
#     Edge 61, Type (0, 1), BuildingBlock: ZUJKAS_clean_linker_0, # of connection points: 2
#     Edge 62, Type (0, 1), BuildingBlock: ZUJKAS_clean_linker_0, # of connection points: 2
#     Edge 63, Type (0, 1), BuildingBlock: ZUJKAS_clean_linker_0, # of connection points: 2
#     Edge 64, Type (0, 1), BuildingBlock: ZUJKAS_clean_linker_0, # of connection points: 2
#     Edge 65, Type (0, 1), BuildingBlock: ZUJKAS_clean_linker_0, # of connection points: 2
#     Edge 66, Type (0, 1), BuildingBlock: ZUJKAS_clean_linker_0, # of connection points: 2
#     Edge 67, Type (0, 1), BuildingBlock: ZUJKAS_clean_linker_0, # of connection points: 2
#     Edge 68, Type (0, 1), BuildingBlock: ZUJKAS_clean_linker_0, # of connection points: 2
#     Edge 69, Type (0, 1), BuildingBlock: ZUJKAS_clean_linker_0, # of connection points: 2
#     Edge 70, Type (0, 1), BuildingBlock: ZUJKAS_clean_linker_0, # of connection points: 2
#     Edge 71, Type (0, 1), BuildingBlock: ZUJKAS_clean_linker_0, # of connection points: 2
#     Edge 72, Type (0, 1), BuildingBlock: ZUJKAS_clean_linker_0, # of connection points: 2
#     Edge 73, Type (0, 1), BuildingBlock: ZUJKAS_clean_linker_0, # of connection points: 2
#     Edge 74, Type (0, 1), BuildingBlock: ZUJKAS_clean_linker_0, # of connection points: 2
#     Edge 75, Type (0, 1), BuildingBlock: ZUJKAS_clean_linker_0, # of connection points: 2
#     Edge 76, Type (0, 1), BuildingBlock: ZUJKAS_clean_linker_0, # of connection points: 2
#     Edge 77, Type (0, 1), BuildingBlock: ZUJKAS_clean_linker_0, # of connection points: 2
#     Edge 78, Type (0, 1), BuildingBlock: ZUJKAS_clean_linker_0, # of connection points: 2
#     Edge 79, Type (0, 1), BuildingBlock: ZUJKAS_clean_linker_0, # of connection points: 2
#     Edge 80, Type (0, 1), BuildingBlock: ZUJKAS_clean_linker_0, # of connection points: 2
#     Edge 81, Type (0, 1), BuildingBlock: ZUJKAS_clean_linker_0, # of connection points: 2
#     Edge 82, Type (0, 1), BuildingBlock: ZUJKAS_clean_linker_0, # of connection points: 2
#     Edge 83, Type (0, 1), BuildingBlock: ZUJKAS_clean_linker_0, # of connection points: 2
#     Edge 84, Type (0, 1), BuildingBlock: ZUJKAS_clean_linker_0, # of connection points: 2
#     Edge 85, Type (0, 1), BuildingBlock: ZUJKAS_clean_linker_0, # of connection points: 2
#     Edge 86, Type (0, 1), BuildingBlock: ZUJKAS_clean_linker_0, # of connection points: 2
#     Edge 87, Type (0, 1), BuildingBlock: ZUJKAS_clean_linker_0, # of connection points: 2
#     Edge 88, Type (0, 1), BuildingBlock: ZUJKAS_clean_linker_0, # of connection points: 2
#     Edge 89, Type (0, 1), BuildingBlock: ZUJKAS_clean_linker_0, # of connection points: 2
#     Edge 90, Type (0, 1), BuildingBlock: ZUJKAS_clean_linker_0, # of connection points: 2
#     Edge 91, Type (0, 1), BuildingBlock: ZUJKAS_clean_linker_0, # of connection points: 2
#     Edge 92, Type (0, 1), BuildingBlock: ZUJKAS_clean_linker_0, # of connection points: 2
#     Edge 93, Type (0, 1), BuildingBlock: ZUJKAS_clean_linker_0, # of connection points: 2
#     Edge 94, Type (0, 1), BuildingBlock: ZUJKAS_clean_linker_0, # of connection points: 2
#     Edge 95, Type (0, 1), BuildingBlock: ZUJKAS_clean_linker_0, # of connection points: 2
#     Edge 96, Type (0, 1), BuildingBlock: ZUJKAS_clean_linker_0, # of connection points: 2
#     Edge 97, Type (0, 1), BuildingBlock: ZUJKAS_clean_linker_0, # of connection points: 2
#     Edge 98, Type (0, 1), BuildingBlock: ZUJKAS_clean_linker_0, # of connection points: 2
#     Edge 99, Type (0, 1), BuildingBlock: ZUJKAS_clean_linker_0, # of connection points: 2
#     Edge 100, Type (0, 1), BuildingBlock: ZUJKAS_clean_linker_0, # of connection points: 2
#     Edge 101, Type (0, 1), BuildingBlock: ZUJKAS_clean_linker_0, # of connection points: 2
#     Edge 102, Type (0, 1), BuildingBlock: ZUJKAS_clean_linker_0, # of connection points: 2
#     Edge 103, Type (0, 1), BuildingBlock: ZUJKAS_clean_linker_0, # of connection points: 2
#     Edge 104, Type (0, 1), BuildingBlock: ZUJKAS_clean_linker_0, # of connection points: 2
#     Edge 105, Type (0, 1), BuildingBlock: ZUJKAS_clean_linker_0, # of connection points: 2
#     Edge 106, Type (0, 1), BuildingBlock: ZUJKAS_clean_linker_0, # of connection points: 2
#     Edge 107, Type (0, 1), BuildingBlock: ZUJKAS_clean_linker_0, # of connection points: 2
# Relax obj value: 0.028
# Max RMSD: 0.130
# Mean RMSD: 0.102
data_MOF--net-fgl--node1-ESEHIV_clean_sbu_0--node2-TATPOV_clean_sbu_0--edge1-ZUJKAS_clean_linker_0
_symmetry_space_group_name_H-M    P1
_symmetry_Int_Tables_number       1
_symmetry_cell_setting            triclinic
loop_
_symmetry_equiv_pos_as_xyz
'x, y, z'
_cell_length_a     95.176602
_cell_length_b     98.522612
_cell_length_c     66.343845
_cell_angle_alpha  90.289579
_cell_angle_beta   90.486118
_cell_angle_gamma 120.0173
loop_
_atom_site_label
_atom_site_type_symbol
_atom_site_fract_x
_atom_site_fract_y
_atom_site_fract_z
_atom_type_partial_charge
Cu0 Cu 0.01687 0.53363 0.01105 0.0
N1 N 0.00939 0.53142 0.0376 0.0
N2 N 0.00597 0.53855 0.06841 0.0
C3 C 0.01394 0.54336 0.05085 0.0
C4 C 0.99591 0.52298 0.06616 0.0
C5 C 0.99813 0.51858 0.04715 0.0
O6 O 0.01787 0.55228 1.0003 0.0
C7 C 0.04697 0.53701 0.02532 0.0
O8 O 0.04442 0.54258 0.04205 0.0
H9 H 0.02268 0.55543 0.04747 0.0
H10 H 0.99185 0.50689 0.04072 0.0
N11 N 1.00311 0.51687 0.99409 0.0
N12 N 0.99564 0.50093 0.96709 0.0
C13 C 0.00792 0.51334 0.97678 0.0
C14 C 0.98717 0.50639 0.99543 0.0
C15 C 0.98254 0.49648 0.97883 0.0
C16 C 0.00467 0.55257 1.0011 0.0
O17 O 0.99187 0.54055 0.0089 0.0
H18 H 0.02028 0.51973 0.97151 0.0
H19 H 0.97941 0.50609 0.00744 0.0
O20 O 0.03744 0.53407 0.01033 0.0
H21 H 0.98761 0.51534 0.07745 0.0
H22 H 0.97042 0.48696 0.97549 0.0
Cu23 Cu 0.53691 0.54747 0.01568 0.0
N24 N 0.55261 0.54966 0.99697 0.0
N25 N 0.56827 0.55854 0.96969 0.0
C26 C 0.55596 0.55821 0.98006 0.0
C27 C 0.57284 0.5498 0.98053 0.0
C28 C 0.56313 0.5443 0.99731 0.0
O29 O 0.54087 0.56888 0.01991 0.0
C30 C 0.51502 0.51808 1.00244 0.0
O31 O 0.52836 0.51746 1.00528 0.0
H32 H 0.54973 0.56444 0.97578 0.0
H33 H 0.56376 0.53694 0.00889 0.0
N34 N 0.53891 0.53996 0.04085 0.0
N35 N 0.53105 0.52889 0.07117 0.0
C36 C 0.52671 0.53339 0.05413 0.0
C37 C 0.5515 0.53965 0.04975 0.0
C38 C 0.5467 0.53285 0.06845 0.0
C39 C 0.55511 0.57804 0.02701 0.0
O40 O 0.56447 0.57209 0.03089 0.0
H41 H 0.51492 0.53218 0.05134 0.0
H42 H 0.56337 0.54415 0.04325 0.0
O43 O 0.51559 0.53117 1.0055 0.0
H44 H 0.58244 0.54745 0.97657 0.0
H45 H 0.55416 0.53086 0.07907 0.0
Cu46 Cu 0.52619 0.06365 0.03808 0.0
N47 N 0.52471 0.0762 0.01828 0.0
N48 N 0.52035 0.08338 0.98813 0.0
C49 C 0.52083 0.07203 0.99883 0.0
C50 C 0.52418 0.09522 1.00136 0.0
C51 C 0.52699 0.09079 0.01997 0.0
O52 O 0.50545 0.04436 0.04114 0.0
C53 C 0.55771 0.07248 0.029 0.0
O54 O 0.55939 0.086 0.03477 0.0
H55 H 0.51784 0.06063 0.99286 0.0
H56 H 0.53028 0.09764 0.03376 0.0
N57 N 0.53094 0.07381 0.06301 0.0
N58 N 0.54007 0.08016 0.09467 0.0
C59 C 0.54118 0.07384 0.0771 0.0
C60 C 0.52302 0.08028 0.07195 0.0
C61 C 0.52865 0.08424 0.09154 0.0
C62 C 0.49234 0.04452 0.03771 0.0
O63 O 0.49315 0.05728 0.03054 0.0
H64 H 0.54857 0.06846 0.07486 0.0
H65 H 0.51333 0.08138 0.06499 0.0
O66 O 0.54374 0.06026 0.02992 0.0
H67 H 0.52479 0.10622 0.99787 0.0
H68 H 0.52437 0.08931 0.10273 0.0
Cu69 Cu 0.53308 0.06202 0.52414 0.0
N70 N 0.55125 0.0762 0.50984 0.0
N71 N 0.56974 0.08473 0.4855 0.0
C72 C 0.55739 0.07213 0.49429 0.0
C73 C 0.5715 0.09724 0.49608 0.0
C74 C 0.55998 0.09194 0.51104 0.0
O75 O 0.53512 0.0431 0.52562 0.0
C76 C 0.49948 0.05242 0.51315 0.0
O77 O 0.49483 0.04115 0.52638 0.0
H78 H 0.55266 0.06011 0.4894 0.0
H79 H 0.55783 0.09906 0.52163 0.0
N80 N 0.53377 0.06976 0.55016 0.0
N81 N 0.52565 0.07135 0.58115 0.0
C82 C 0.52112 0.06461 0.56273 0.0
C83 C 0.54676 0.08029 0.56097 0.0
C84 C 0.54176 0.08137 0.5801 0.0
C85 C 0.53385 0.03574 0.54191 0.0
O86 O 0.52746 0.03854 0.55773 0.0
H87 H 0.50891 0.05568 0.55868 0.0
H88 H 0.55908 0.08632 0.55557 0.0
O89 O 0.51454 0.06103 0.50955 0.0
H90 H 0.58004 0.10938 0.49278 0.0
H91 H 0.54948 0.0884 0.59251 0.0
Cu92 Cu 0.02312 0.54348 0.51306 0.0
N93 N 0.03672 0.53852 0.52815 0.0
N94 N 0.04352 0.52635 0.55157 0.0
C95 C 0.03134 0.52744 0.54251 0.0
C96 C 0.05715 0.53724 0.54244 0.0
C97 C 0.05292 0.5447 0.52798 0.0
O98 O 1.00268 0.52364 0.51209 0.0
C99 C 0.03009 0.56831 0.54101 0.0
O100 O 0.03808 0.56291 0.55125 0.0
H101 H 0.01869 0.52057 0.54653 0.0
H102 H 0.06108 0.55404 0.51821 0.0
N103 N 0.03069 0.5505 0.48694 0.0
N104 N 0.03293 0.56186 0.45693 0.0
C105 C 0.02569 0.55843 0.47514 0.0
C106 C 0.04157 0.54888 0.47595 0.0
C107 C 0.04297 0.55585 0.45746 0.0
C108 C 0.99711 0.51553 0.49597 0.0
O109 O 1.00269 0.52228 0.47855 0.0
H110 H 0.01659 0.56128 0.47978 0.0
H111 H 0.04796 0.54299 0.48095 0.0
O112 O 0.02174 0.56073 0.52557 0.0
H113 H 0.06932 0.53964 0.54583 0.0
H114 H 0.05088 0.55648 0.44546 0.0
Cu115 Cu 0.53314 0.53406 0.52488 0.0
N116 N 0.55127 0.5338 0.51508 0.0
N117 N 0.57565 0.54332 0.50125 0.0
C118 C 0.56625 0.54631 0.51346 0.0
C119 C 0.56631 0.52833 0.49502 0.0
C120 C 0.55128 0.52243 0.50372 0.0
O121 O 0.53963 0.55097 0.54424 0.0
C122 C 0.51196 0.52218 0.49219 0.0
O123 O 0.51084 0.50919 0.499 0.0
H124 H 0.56972 0.5578 0.51948 0.0
H125 H 0.54073 0.51109 0.50071 0.0
N126 N 0.52019 0.51608 0.53951 0.0
N127 N 0.49867 0.49844 0.55637 0.0
C128 C 0.50447 0.51058 0.54356 0.0
C129 C 0.5246 0.50721 0.55021 0.0
C130 C 0.51128 0.49626 0.56069 0.0
C131 C 0.5475 0.56569 0.5416 0.0
O132 O 0.55172 0.57128 0.52334 0.0
H133 H 0.49757 0.51575 0.53775 0.0
H134 H 0.53673 0.50888 0.55077 0.0
O135 O 0.52101 0.53501 0.5016 0.0
H136 H 0.56977 0.52244 0.484 0.0
H137 H 0.5109 0.48746 0.57073 0.0
Cu138 Cu 0.71065 0.89059 0.3389 0.0
N139 N 0.718 0.91073 0.32955 0.0
N140 N 0.71749 0.93264 0.32295 0.0
C141 C 0.70934 0.91807 0.33051 0.0
C142 C 0.73191 0.93458 0.31701 0.0
C143 C 0.73216 0.92096 0.32105 0.0
O144 O 0.69784 0.88907 0.36282 0.0
C145 C 0.70848 0.87657 0.30196 0.0
O146 O 0.72411 0.88662 0.30346 0.0
H147 H 0.69733 0.91282 0.33689 0.0
H148 H 0.74193 0.91869 0.31794 0.0
N149 N 0.72827 0.8882 0.34616 0.0
N150 N 0.74277 0.87632 0.35108 0.0
C151 C 0.72816 0.87452 0.34596 0.0
C152 C 0.74341 0.89913 0.35173 0.0
C153 C 0.75241 0.89183 0.35478 0.0
C154 C 0.70129 0.88646 0.38051 0.0
O155 O 0.71183 0.88166 0.38262 0.0
H156 H 0.71742 0.86347 0.34231 0.0
H157 H 0.74764 0.91151 0.35337 0.0
O158 O 0.69931 0.87604 0.31626 0.0
H159 H 0.74144 0.94494 0.30993 0.0
H160 H 0.76508 0.89759 0.3592 0.0
Cu161 Cu 0.18136 0.88985 0.35338 0.0
N162 N 0.16165 0.87617 0.34035 0.0
N163 N 0.14137 0.85327 0.3287 0.0
C164 C 0.15581 0.86064 0.33856 0.0
C165 C 0.13804 0.86472 0.32407 0.0
C166 C 0.15056 0.87883 0.33131 0.0
O167 O 0.18025 0.87951 0.37899 0.0
C168 C 0.1972 0.89774 0.31743 0.0
O169 O 0.18414 0.89861 0.31347 0.0
H170 H 0.16222 0.85493 0.3442 0.0
H171 H 0.15152 0.89018 0.32991 0.0
N172 N 0.18415 0.90977 0.35878 0.0
N173 N 0.19734 0.93551 0.3659 0.0
C174 C 0.19869 0.92276 0.36185 0.0
C175 C 0.17314 0.91443 0.36088 0.0
C176 C 0.18123 0.93029 0.36532 0.0
C177 C 0.16829 0.87741 0.38979 0.0
O178 O 0.15926 0.88318 0.38339 0.0
H179 H 0.21003 0.92271 0.36161 0.0
H180 H 0.16015 0.90684 0.35961 0.0
O181 O 0.19892 0.89352 0.33502 0.0
H182 H 0.12728 0.86305 0.31619 0.0
H183 H 0.17566 0.93738 0.36791 0.0
Cu184 Cu 0.20142 0.40528 0.35173 0.0
N185 N 0.20231 0.41945 0.33266 0.0
N186 N 0.19785 0.42785 0.30347 0.0
C187 C 0.19449 0.41529 0.3148 0.0
C188 C 0.20824 0.44046 0.31466 0.0
C189 C 0.2111 0.43521 0.33265 0.0
O190 O 0.17919 0.38794 0.35381 0.0
C191 C 0.23215 0.41008 0.34596 0.0
O192 O 0.23542 0.42325 0.355 0.0
H193 H 0.18631 0.40323 0.31038 0.0
H194 H 0.21918 0.44237 0.3447 0.0
N195 N 0.20674 0.4141 0.37746 0.0
N196 N 0.21182 0.41522 0.41048 0.0
C197 C 0.20988 0.40736 0.39304 0.0
C198 C 0.2066 0.42668 0.38522 0.0
C199 C 0.20991 0.4275 0.40565 0.0
C200 C 0.16832 0.39185 0.35507 0.0
O201 O 0.17267 0.40672 0.35339 0.0
H202 H 0.21061 0.39679 0.39154 0.0
H203 H 0.2038 0.43442 0.3768 0.0
O204 O 0.21734 0.39952 0.34336 0.0
H205 H 0.21357 0.45255 0.31007 0.0
H206 H 0.21039 0.43615 0.41619 0.0
Cu207 Cu 0.17286 0.35327 0.85521 0.0
N208 N 0.17167 0.343 0.83105 0.0
N209 N 0.18035 0.33821 0.80217 0.0
C210 C 0.18459 0.34489 0.82066 0.0
C211 C 0.16407 0.33177 0.80093 0.0
C212 C 0.15875 0.33476 0.8188 0.0
O213 O 0.19307 0.35785 0.86903 0.0
C214 C 0.1717 0.37705 0.8318 0.0
O215 O 0.17972 0.37389 0.81834 0.0
H216 H 0.19697 0.35206 0.82602 0.0
H217 H 0.14648 0.3319 0.82219 0.0
N218 N 0.15592 0.34043 0.87211 0.0
N219 N 0.13949 0.33411 0.89849 0.0
C220 C 0.15308 0.34531 0.88975 0.0
C221 C 0.14377 0.32556 0.86953 0.0
C222 C 0.13353 0.32164 0.8858 0.0
C223 C 0.19409 0.34565 0.87271 0.0
O224 O 0.18189 0.33193 0.86719 0.0
H225 H 0.16054 0.35709 0.89564 0.0
H226 H 0.14229 0.31821 0.85662 0.0
O227 O 0.16948 0.37088 0.84919 0.0
H228 H 0.15663 0.32585 0.78781 0.0
H229 H 0.12253 0.31055 0.88805 0.0
Cu230 Cu 0.67142 0.87483 0.84109 0.0
N231 N 0.65341 0.85523 0.83534 0.0
N232 N 0.63971 0.82928 0.83043 0.0
C233 C 0.65348 0.84171 0.83753 0.0
C234 C 0.63056 0.83522 0.82344 0.0
C235 C 0.63902 0.85127 0.8266 0.0
O236 O 0.68469 0.87035 0.86015 0.0
C237 C 0.67279 0.89099 0.80624 0.0
O238 O 0.65925 0.88874 0.81432 0.0
H239 H 0.66385 0.84111 0.8432 0.0
H240 H 0.63518 0.85948 0.82221 0.0
N241 N 0.66583 0.88806 0.85471 0.0
N242 N 0.66917 0.91045 0.86772 0.0
C243 C 0.67636 0.90325 0.85869 0.0
C244 C 0.6514 0.88543 0.86146 0.0
C245 C 0.65344 0.89925 0.8696 0.0
C246 C 0.67835 0.86605 0.87759 0.0
O247 O 0.66459 0.86565 0.88107 0.0
H248 H 0.68909 0.90887 0.85492 0.0
H249 H 0.64019 0.87435 0.86028 0.0
O250 O 0.68079 0.88544 0.8152 0.0
H251 H 0.6188 0.82851 0.81615 0.0
H252 H 0.64401 0.90099 0.87593 0.0
Cu253 Cu 0.19208 0.89192 0.84609 0.0
N254 N 0.18184 0.89257 0.82216 0.0
N255 N 0.16917 0.88419 0.79227 0.0
C256 C 0.17393 0.88027 0.80945 0.0
C257 C 0.17393 0.89952 0.79449 0.0
C258 C 0.18177 0.90467 0.81293 0.0
O259 O 0.17717 0.87278 0.85981 0.0
C260 C 0.21659 0.88954 0.82357 0.0
O261 O 0.20536 0.88187 0.80976 0.0
H262 H 0.17216 0.86875 0.81256 0.0
H263 H 0.18744 0.91652 0.81877 0.0
N264 N 0.19715 0.90861 0.86383 0.0
N265 N 0.20508 0.92195 0.8931 0.0
C266 C 0.19826 0.90772 0.88398 0.0
C267 C 0.20354 0.92395 0.85994 0.0
C268 C 0.2083 0.93219 0.87795 0.0
C269 C 0.16479 0.87258 0.8673 0.0
O270 O 0.16306 0.88491 0.86506 0.0
H271 H 0.19481 0.89684 0.89159 0.0
H272 H 0.2057 0.92896 0.84507 0.0
O273 O 0.21281 0.8935 0.84005 0.0
H274 H 0.17253 0.90669 0.78323 0.0
H275 H 0.2147 0.94483 0.87952 0.0
Cu276 Cu 0.38506 0.23253 0.70392 0.0
N277 N 0.39241 0.25289 0.69505 0.0
N278 N 0.38943 0.27275 0.68428 0.0
C279 C 0.38222 0.2585 0.69283 0.0
C280 C 0.40488 0.27631 0.68103 0.0
C281 C 0.4067 0.26402 0.68772 0.0
O282 O 0.37354 0.23091 0.72908 0.0
C283 C 0.38115 0.22128 0.6652 0.0
O284 O 0.39611 0.23311 0.6655 0.0
H285 H 0.36946 0.25174 0.69638 0.0
H286 H 0.41744 0.26303 0.68629 0.0
N287 N 0.40144 0.22803 0.71003 0.0
N288 N 0.41138 0.21252 0.71825 0.0
C289 C 0.39794 0.21357 0.7154 0.0
C290 C 0.41777 0.23656 0.70954 0.0
C291 C 0.42396 0.22693 0.7145 0.0
C292 C 0.38291 0.23927 0.74353 0.0
O293 O 0.3986 0.2472 0.74029 0.0
H294 H 0.38566 0.20386 0.71662 0.0
H295 H 0.42474 0.24882 0.70585 0.0
O296 O 0.37286 0.21834 0.68131 0.0
H297 H 0.41408 0.2868 0.6738 0.0
H298 H 0.43665 0.23027 0.71539 0.0
Cu299 Cu 0.85394 0.20078 0.67161 0.0
N300 N 0.87115 0.20409 0.65502 0.0
N301 N 0.88987 0.21563 0.63113 0.0
C302 C 0.87811 0.216 0.64193 0.0
C303 C 0.89032 0.2029 0.63774 0.0
C304 C 0.87878 0.19582 0.65254 0.0
O305 O 0.85672 0.22183 0.67445 0.0
C306 C 0.83184 0.17749 0.64338 0.0
O307 O 0.84428 0.18321 0.63121 0.0
H308 H 0.87422 0.22453 0.63999 0.0
H309 H 0.876 0.18531 0.66071 0.0
N310 N 0.85524 0.19316 0.69691 0.0
N311 N 0.84706 0.18249 0.72734 0.0
C312 C 0.84279 0.18644 0.70982 0.0
C313 C 0.86787 0.19334 0.70644 0.0
C314 C 0.86284 0.18673 0.72523 0.0
C315 C 0.85954 0.2291 0.6913 0.0
O316 O 0.85701 0.22125 0.70808 0.0
H317 H 0.83083 0.18465 0.7064 0.0
H318 H 0.87992 0.19818 0.70032 0.0
O319 O 0.83317 0.18444 0.66017 0.0
H320 H 0.89841 0.19898 0.63233 0.0
H321 H 0.87035 0.18555 0.73664 0.0
Cu322 Cu 0.86998 0.73474 0.68283 0.0
N323 N 0.8686 0.74767 0.6634 0.0
N324 N 0.86045 0.75373 0.63488 0.0
C325 C 0.85778 0.74234 0.64807 0.0
C326 C 0.87356 0.76678 0.64216 0.0
C327 C 0.87859 0.763 0.65976 0.0
O328 O 0.84815 0.71742 0.68756 0.0
C329 C 0.90004 0.74003 0.67234 0.0
O330 O 0.9034 0.75378 0.67953 0.0
H331 H 0.84856 0.73014 0.64621 0.0
H332 H 0.88912 0.77076 0.6688 0.0
N333 N 0.87769 0.74474 0.70771 0.0
N334 N 0.8867 0.74763 0.73945 0.0
C335 C 0.87976 0.73765 0.72377 0.0
C336 C 0.88333 0.75974 0.71348 0.0
C337 C 0.8891 0.7616 0.73308 0.0
C338 C 0.83795 0.72179 0.6917 0.0
O339 O 0.84293 0.73687 0.69204 0.0
H340 H 0.87695 0.72556 0.72359 0.0
H341 H 0.88366 0.76878 0.70402 0.0
O342 O 0.88537 0.72885 0.67263 0.0
H343 H 0.87925 0.77817 0.63514 0.0
H344 H 0.89486 0.77238 0.74181 0.0
Cu345 Cu 0.8402 0.70133 0.15417 0.0
N346 N 0.8411 0.69227 0.12977 0.0
N347 N 0.85201 0.68846 0.10211 0.0
C348 C 0.8549 0.69573 0.12024 0.0
C349 C 0.83567 0.68002 0.10027 0.0
C350 C 0.82897 0.6824 0.11736 0.0
O351 O 0.85935 0.70512 0.17003 0.0
C352 C 0.83728 0.72469 0.13164 0.0
O353 O 0.8426 0.7201 0.11635 0.0
H354 H 0.86682 0.70401 0.12618 0.0
H355 H 0.8162 0.67764 0.12029 0.0
N356 N 0.82219 0.68772 0.16924 0.0
N357 N 0.80541 0.67997 0.19541 0.0
C358 C 0.81795 0.69214 0.18627 0.0
C359 C 0.81192 0.67219 0.16739 0.0
C360 C 0.80156 0.66735 0.18362 0.0
C361 C 0.85922 0.69258 0.17517 0.0
O362 O 0.8469 0.67906 0.16929 0.0
H363 H 0.82445 0.70399 0.19225 0.0
H364 H 0.81227 0.66482 0.15549 0.0
O365 O 0.83721 0.71935 0.14915 0.0
H366 H 0.829 0.67277 0.08742 0.0
H367 H 0.79208 0.65547 0.18661 0.0
Cu368 Cu 0.37792 0.22333 0.1984 0.0
N369 N 0.38284 0.20853 0.18792 0.0
N370 N 0.37978 0.18505 0.18026 0.0
C371 C 0.3726 0.19294 0.18727 0.0
C372 C 0.39515 0.19617 0.17607 0.0
C373 C 0.39701 0.21064 0.18086 0.0
O374 O 0.37005 0.21625 0.22592 0.0
C375 C 0.37173 0.23127 0.16098 0.0
O376 O 0.38537 0.23121 0.15847 0.0
H377 H 0.36008 0.18749 0.19176 0.0
H378 H 0.40797 0.22186 0.17949 0.0
N379 N 0.39664 0.24277 0.20204 0.0
N380 N 0.41136 0.26873 0.20657 0.0
C381 C 0.39679 0.25646 0.20122 0.0
C382 C 0.41166 0.2464 0.20813 0.0
C383 C 0.42082 0.26247 0.2108 0.0
C384 C 0.35753 0.20361 0.23139 0.0
O385 O 0.34624 0.19514 0.21795 0.0
H386 H 0.38619 0.2573 0.19727 0.0
H387 H 0.41547 0.23796 0.21124 0.0
O388 O 0.36495 0.22732 0.17823 0.0
H389 H 0.4045 0.19401 0.17044 0.0
H390 H 0.4332 0.26891 0.21644 0.0
Cu391 Cu 0.85538 0.24678 0.1716 0.0
N392 N 0.84365 0.247 0.14902 0.0
N393 N 0.83055 0.23831 0.11951 0.0
C394 C 0.8356 0.23458 0.13657 0.0
C395 C 0.83553 0.25372 0.12133 0.0
C396 C 0.84359 0.25906 0.1396 0.0
O397 O 0.84219 0.22698 0.18498 0.0
C398 C 0.88448 0.26178 0.1526 0.0
O399 O 0.87913 0.27164 0.15011 0.0
H400 H 0.8345 0.22327 0.13936 0.0
H401 H 0.84981 0.27106 0.14497 0.0
N402 N 0.86041 0.26288 0.19028 0.0
N403 N 0.86989 0.27633 0.21921 0.0
C404 C 0.86895 0.26473 0.20734 0.0
C405 C 0.85576 0.27371 0.19126 0.0
C406 C 0.86167 0.28209 0.20908 0.0
C407 C 0.83108 0.22604 0.19642 0.0
O408 O 0.82935 0.23837 0.19875 0.0
H409 H 0.87422 0.25752 0.21098 0.0
H410 H 0.84816 0.27507 0.18023 0.0
O411 O 0.87574 0.24922 0.16223 0.0
H412 H 0.83399 0.26073 0.10997 0.0
H413 H 0.8596 0.29133 0.21443 0.0
Zn414 Zn 0.02271 0.68012 0.22644 0.0
Zn415 Zn 0.0138 0.66315 0.25866 0.0
O416 O 0.0155 0.64881 0.23619 0.0
O417 O 0.02089 0.66289 0.20871 0.0
O418 O 0.01112 0.651 0.28488 0.0
O419 O 0.04401 0.69691 0.23758 0.0
O420 O 0.0344 0.68464 0.2661 0.0
C421 C 0.01777 0.65023 0.21716 0.0
C422 C 0.99225 0.6754 0.24213 0.0
O423 O 0.99357 0.66615 0.25452 0.0
O424 O 0.00335 0.6829 0.2295 0.0
C425 C 0.0059 0.63631 0.28574 0.0
O426 O 1.00043 0.62781 0.26917 0.0
C427 C 0.04517 0.69646 0.25653 0.0
Zn428 Zn 0.40835 0.41866 0.30883 0.0
Zn429 Zn 0.41618 0.43657 0.27669 0.0
O430 O 0.43052 0.45189 0.29974 0.0
O431 O 0.42518 0.43631 0.32569 0.0
O432 O 0.4249 0.44984 0.25151 0.0
O433 O 0.41346 0.40325 0.29611 0.0
O434 O 0.42025 0.41823 0.2694 0.0
C435 C 0.43291 0.44984 0.31815 0.0
C436 C 0.38151 0.42147 0.29255 0.0
O437 O 0.39171 0.42996 0.27919 0.0
O438 O 0.38586 0.41556 0.30648 0.0
C439 C 0.44014 0.45589 0.24915 0.0
O440 O 0.4486 0.45361 0.26311 0.0
C441 C 0.41864 0.40607 0.27827 0.0
Zn442 Zn 0.66111 0.05429 0.23735 0.0
Zn443 Zn 0.65775 0.0654 0.27302 0.0
O444 O 0.63868 0.063 0.25533 0.0
O445 O 0.64094 0.05336 0.22633 0.0
O446 O 0.65318 0.07226 0.29968 0.0
O447 O 0.65987 0.0356 0.25093 0.0
O448 O 0.6588 0.04559 0.28026 0.0
C449 C 0.63353 0.05814 0.23747 0.0
C450 C 0.68823 0.08491 0.24878 0.0
O451 O 0.67979 0.08337 0.26432 0.0
O452 O 0.68294 0.07423 0.23534 0.0
C453 C 0.63956 0.06297 0.3075 0.0
O454 O 0.6298 0.04969 0.29813 0.0
C455 C 0.65946 0.03496 0.26998 0.0
Zn456 Zn 0.00799 0.38949 0.78587 0.0
Zn457 Zn 0.01733 0.40959 0.75654 0.0
O458 O 0.99656 0.38924 0.74506 0.0
O459 O 0.98882 0.37312 0.77069 0.0
O460 O 0.02346 0.42536 0.7334 0.0
O461 O 0.00501 0.40367 0.80476 0.0
O462 O 0.01291 0.42102 0.7805 0.0
C463 C 0.98662 0.37599 0.75276 0.0
C464 C 0.04026 0.39849 0.77398 0.0
O465 O 0.03797 0.40729 0.76183 0.0
O466 O 0.029 0.38946 0.78559 0.0
C467 C 0.0225 0.42144 0.71486 0.0
O468 O 0.01796 0.40681 0.71028 0.0
C469 C 0.00805 0.41697 0.79856 0.0
Zn470 Zn 0.66195 0.68816 0.72858 0.0
Zn471 Zn 0.64748 0.66642 0.75597 0.0
O472 O 0.64658 0.68595 0.767 0.0
O473 O 0.65804 0.70356 0.7433 0.0
O474 O 0.63626 0.65052 0.77832 0.0
O475 O 0.64592 0.67416 0.70757 0.0
O476 O 0.63311 0.65603 0.73038 0.0
C477 C 0.65105 0.69959 0.76012 0.0
C478 C 0.68316 0.67817 0.7442 0.0
O479 O 0.67048 0.66862 0.75382 0.0
O480 O 0.68281 0.68825 0.73279 0.0
C481 C 0.64407 0.65032 0.7939 0.0
O482 O 0.65974 0.66026 0.7952 0.0
C483 C 0.63437 0.66078 0.71224 0.0
Zn484 Zn 0.38748 0.04586 0.81011 0.0
Zn485 Zn 0.40211 0.04053 0.77918 0.0
O486 O 0.39913 0.05902 0.77096 0.0
O487 O 0.38528 0.06235 0.79489 0.0
O488 O 0.41359 0.03911 0.75461 0.0
O489 O 0.40774 0.05245 0.82675 0.0
O490 O 0.4188 0.04608 0.80212 0.0
C491 C 0.39229 0.06626 0.77806 0.0
C492 C 0.36995 0.01394 0.79484 0.0
O493 O 0.38124 0.0189 0.78186 0.0
O494 O 0.37014 0.02312 0.80842 0.0
C495 C 0.4234 0.03391 0.75397 0.0
O496 O 0.42581 0.0277 0.77017 0.0
C497 C 0.41941 0.05111 0.82001 0.0
Zn498 Zn 0.68989 0.00453 0.55424 0.0
Zn499 Zn 0.6825 0.98689 0.58524 0.0
O500 O 0.68525 0.97407 0.56094 0.0
O501 O 0.69142 0.98982 0.53508 0.0
O502 O 0.67973 0.97277 0.6098 0.0
O503 O 0.71001 0.0223 0.56595 0.0
O504 O 0.70288 0.00879 0.59399 0.0
C505 C 0.6887 0.97687 0.54223 0.0
C506 C 0.65861 0.99707 0.56968 0.0
O507 O 0.66129 0.98874 0.58223 0.0
O508 O 0.66911 0.00489 0.55655 0.0
C509 C 0.68102 0.97726 0.62815 0.0
O510 O 0.68328 0.99132 0.63198 0.0
C511 C 0.71242 0.02133 0.58451 0.0
Zn512 Zn 0.06926 0.73982 0.62355 0.0
Zn513 Zn 0.07797 0.75757 0.59225 0.0
O514 O 0.09193 0.77173 0.61656 0.0
O515 O 0.08384 0.75652 0.64305 0.0
O516 O 0.0892 0.77223 0.56868 0.0
O517 O 0.07519 0.72458 0.61256 0.0
O518 O 0.07846 0.73714 0.58413 0.0
C519 C 0.0927 0.76988 0.63551 0.0
C520 C 0.04322 0.74331 0.60545 0.0
O521 O 0.05424 0.75313 0.59385 0.0
O522 O 0.04663 0.73599 0.61845 0.0
C523 C 0.08431 0.7704 0.55042 0.0
O524 O 0.07021 0.75822 0.54546 0.0
C525 C 0.07764 0.72558 0.5938 0.0
Zn526 Zn 0.31204 0.36857 0.56628 0.0
Zn527 Zn 0.30152 0.37355 0.60122 0.0
O528 O 0.28568 0.37282 0.57927 0.0
O529 O 0.29264 0.36615 0.551 0.0
O530 O 0.29043 0.37439 0.62646 0.0
O531 O 0.3128 0.34995 0.57742 0.0
O532 O 0.30415 0.35437 0.60597 0.0
C533 C 0.28332 0.36954 0.5605 0.0
C534 C 0.33405 0.39846 0.58668 0.0
O535 O 0.32369 0.39353 0.60078 0.0
O536 O 0.33149 0.39036 0.57073 0.0
C537 C 0.29432 0.37202 0.64392 0.0
O538 O 0.3069 0.37003 0.64603 0.0
C539 C 0.30891 0.34652 0.59566 0.0
Zn540 Zn 0.67935 0.75061 0.11675 0.0
Zn541 Zn 0.68602 0.76901 0.08684 0.0
O542 O 0.66531 0.74755 0.07753 0.0
O543 O 0.65987 0.73262 0.10414 0.0
O544 O 0.68941 0.78347 0.06259 0.0
O545 O 0.67681 0.76438 0.13641 0.0
O546 O 0.68315 0.78124 0.11182 0.0
C547 C 0.65647 0.73442 0.08626 0.0
C548 C 0.7111 0.7601 0.10243 0.0
O549 O 0.70745 0.76753 0.08955 0.0
O550 O 0.70089 0.75184 0.1156 0.0
C551 C 0.69341 0.78133 0.04504 0.0
O552 O 0.69613 0.76964 0.0422 0.0
C553 C 0.67959 0.77762 0.13037 0.0
Zn554 Zn 0.32559 0.01389 0.08744 0.0
Zn555 Zn 0.31069 0.99393 0.11563 0.0
O556 O 0.31423 0.01547 0.12664 0.0
O557 O 0.32367 0.03102 0.1005 0.0
O558 O 0.29814 0.97904 0.13841 0.0
O559 O 0.30945 1.00059 0.06645 0.0
O560 O 0.29518 0.98426 0.0904 0.0
C561 C 0.31892 0.02878 0.11853 0.0
C562 C 0.345 1.00194 0.10378 0.0
O563 O 0.33207 0.99301 0.11339 0.0
O564 O 0.34554 0.01242 0.09235 0.0
C565 C 0.30449 0.98027 0.15579 0.0
O566 O 0.31971 0.99111 0.15889 0.0
C567 C 0.29683 0.98828 0.07188 0.0
Zn568 Zn 0.05994 0.40112 0.12861 0.0
Zn569 Zn 0.07311 0.39109 0.10099 0.0
O570 O 0.0715 0.40878 0.08652 0.0
O571 O 0.05925 0.41599 0.10856 0.0
O572 O 0.08224 0.38321 0.07957 0.0
O573 O 0.07987 0.40805 0.14601 0.0
O574 O 0.09027 0.399 0.12374 0.0
C575 C 0.06553 0.41737 0.09141 0.0
C576 C 0.04027 0.36837 0.12055 0.0
O577 O 0.05157 0.37121 0.10819 0.0
O578 O 0.04096 0.37934 0.13132 0.0
C579 C 0.07295 0.37414 0.06568 0.0
O580 O 0.05753 0.3701 0.0656 0.0
C581 C 0.09118 0.40564 0.14064 0.0
Zn582 Zn 0.36508 0.34412 0.92041 0.0
Zn583 Zn 0.35797 0.32887 0.95312 0.0
O584 O 0.36089 0.31459 0.93076 0.0
O585 O 0.36985 0.33 0.90445 0.0
O586 O 0.35409 0.31645 0.9798 0.0
O587 O 0.38326 0.36381 0.93158 0.0
O588 O 0.37815 0.35143 0.96043 0.0
C589 C 0.36603 0.31706 0.91257 0.0
C590 C 0.33305 0.33571 0.93245 0.0
O591 O 0.33683 0.33036 0.94786 0.0
O592 O 0.34301 0.34173 0.91822 0.0
C593 C 0.36242 0.30992 0.9841 0.0
O594 O 0.37336 0.31109 0.97119 0.0
C595 C 0.38648 0.36386 0.95009 0.0
Zn596 Zn 0.73522 0.08547 0.97351 0.0
Zn597 Zn 0.73751 0.09864 0.938 0.0
O598 O 0.75479 0.11591 0.95703 0.0
O599 O 0.75476 0.10432 0.98527 0.0
O600 O 0.74393 0.10829 0.9101 0.0
O601 O 0.73641 0.06713 0.96231 0.0
O602 O 0.73716 0.07769 0.93298 0.0
C603 C 0.76043 0.11658 0.97476 0.0
C604 C 0.70691 0.08844 0.96103 0.0
O605 O 0.71454 0.09437 0.94473 0.0
O606 O 0.71331 0.08426 0.97472 0.0
C607 C 0.7523 0.12294 0.90683 0.0
O608 O 0.75566 0.13283 0.92191 0.0
C609 C 0.73665 0.06656 0.94328 0.0
Zn610 Zn 0.99949 0.70349 0.88859 0.0
Zn611 Zn 0.98762 0.70862 0.92256 0.0
O612 O 0.97295 0.70919 0.89987 0.0
O613 O 0.98301 0.70569 0.87187 0.0
O614 O 0.97648 0.70976 0.94788 0.0
O615 O 0.99538 0.68252 0.89809 0.0
O616 O 0.98756 0.68785 0.9267 0.0
C617 C 0.97275 0.70816 0.88071 0.0
C618 C 0.02248 0.73148 0.91109 0.0
O619 O 0.01065 0.72802 0.92288 0.0
O620 O 0.02069 0.72274 0.89607 0.0
C621 C 0.96918 0.71758 0.94906 0.0
O622 O 0.96981 0.7263 0.93378 0.0
C623 C 0.99064 0.67887 0.91602 0.0
Zn624 Zn 0.34806 0.0915 0.48176 0.0
Zn625 Zn 0.35898 0.11028 0.45173 0.0
O626 O 0.33724 0.0902 0.44182 0.0
O627 O 0.32777 0.07531 0.46847 0.0
O628 O 0.36433 0.12464 0.42667 0.0
O629 O 0.34721 0.10678 0.50055 0.0
O630 O 0.35743 0.12385 0.47602 0.0
C631 C 0.32633 0.07765 0.45007 0.0
C632 C 0.37895 0.09594 0.46884 0.0
O633 O 0.37804 0.10513 0.45593 0.0
O634 O 0.36762 0.08894 0.48135 0.0
C635 C 0.35259 0.12536 0.41822 0.0
O636 O 0.33814 0.11749 0.42625 0.0
C637 C 0.35236 0.12052 0.49418 0.0
Zn638 Zn 0.99874 0.36612 0.41216 0.0
Zn639 Zn 0.98357 0.34333 0.43768 0.0
O640 O 0.98368 0.36267 0.45143 0.0
O641 O 0.9964 0.38142 0.42938 0.0
O642 O 0.97198 0.32593 0.45815 0.0
O643 O 0.98221 0.35396 0.39057 0.0
O644 O 0.96875 0.33493 0.41206 0.0
C645 C 0.98926 0.37688 0.44604 0.0
C646 C 0.01887 0.35412 0.42447 0.0
O647 O 0.00613 0.34458 0.43404 0.0
O648 O 0.01899 0.36497 0.41425 0.0
C649 C 0.97704 0.32769 0.47633 0.0
O650 O 0.99003 0.34091 0.48168 0.0
C651 C 0.97017 0.34066 0.39447 0.0
Zn652 Zn 0.72565 0.71715 0.44838 0.0
Zn653 Zn 0.74242 0.71066 0.42177 0.0
O654 O 0.74174 0.72984 0.41023 0.0
O655 O 0.7273 0.7347 0.43172 0.0
O656 O 0.75277 0.70515 0.39908 0.0
O657 O 0.74361 0.7213 0.46843 0.0
O658 O 0.75779 0.71659 0.44623 0.0
C659 C 0.73537 0.73797 0.41567 0.0
C660 C 0.70769 0.68579 0.43475 0.0
O661 O 0.72089 0.68977 0.42558 0.0
O662 O 0.70616 0.69572 0.44523 0.0
C663 C 0.74533 0.70225 0.38219 0.0
O664 O 0.73195 0.70302 0.38098 0.0
C665 C 0.75614 0.72053 0.464 0.0
H666 H 0.06304 0.53377 0.05761 0.0
H667 H 0.07374 0.51598 0.05977 0.0
H668 H 0.06589 0.5067 0.99583 0.0
H669 H 0.05477 0.52425 0.99361 0.0
H670 H 0.04956 0.48073 0.01644 0.0
H671 H 0.11212 0.51132 0.04657 0.0
H672 H 0.09966 0.51618 0.06155 0.0
H673 H 0.10292 0.52175 0.03541 0.0
C674 C 0.06412 0.52841 0.04385 0.0
C675 C 0.05776 0.53021 0.02551 0.0
C676 C 0.07039 0.51829 0.04508 0.0
C677 C 0.07067 0.50999 0.02795 0.0
C678 C 0.0658 0.51297 0.00925 0.0
H679 H 0.08587 0.43079 0.05935 0.0
H680 H 0.08879 0.45282 0.0389 0.0
C681 C 0.05943 0.52301 0.00802 0.0
C682 C 0.07282 0.49618 0.03044 0.0
H683 H 0.0953 0.48369 0.05638 0.0
C684 C 0.05983 0.48145 0.02461 0.0
C685 C 0.08625 0.49701 0.0409 0.0
C686 C 0.10109 0.51246 0.04625 0.0
C687 C 0.05923 0.46756 0.03061 0.0
C688 C 0.07184 0.46843 0.0429 0.0
C689 C 0.08554 0.48308 0.04715 0.0
C690 C 0.06974 0.4546 0.05403 0.0
C691 C 0.04465 0.45205 0.02477 0.0
C692 C 0.05807 0.4484 0.06917 0.0
C693 C 0.05646 0.43603 0.08088 0.0
C694 C 0.06646 0.42953 0.07763 0.0
C695 C 0.07792 0.4355 0.06209 0.0
C696 C 0.07966 0.44808 0.05048 0.0
H697 H 0.03862 0.45305 0.0109 0.0
H698 H 0.04812 0.44296 0.02227 0.0
H699 H 0.03572 0.44809 0.03715 0.0
H700 H 0.05042 0.45341 0.07226 0.0
H701 H 0.04751 0.43169 0.0927 0.0
H702 H 0.54342 0.59734 0.01364 0.0
H703 H 0.55711 0.62618 0.01713 0.0
H704 H 0.59586 0.62603 0.05103 0.0
H705 H 0.58256 0.59775 0.04768 0.0
H706 H 0.56783 0.64635 0.0525 0.0
H707 H 0.61976 0.6569 1.00527 0.0
H708 H 0.60082 0.6385 1.00485 0.0
H709 H 0.61584 0.64252 0.02419 0.0
C710 C 0.5548 0.60349 0.02194 0.0
C711 C 0.56195 0.5952 0.03018 0.0
C712 C 0.56264 0.61996 0.02386 0.0
C713 C 0.57775 0.62831 0.0339 0.0
C714 C 0.58447 0.61993 0.04274 0.0
H715 H 0.63273 0.70805 0.10356 0.0
H716 H 0.61192 0.68426 0.08728 0.0
C717 C 0.57674 0.60367 0.04087 0.0
C718 C 0.58676 0.64575 0.0357 0.0
H719 H 0.62487 0.67715 0.02989 0.0
C720 C 0.58017 0.65318 0.04715 0.0
C721 C 0.60276 0.65481 0.02837 0.0
C722 C 0.61015 0.6478 0.0148 0.0
C723 C 0.58961 0.66908 0.05288 0.0
C724 C 0.60617 0.67768 0.04736 0.0
C725 C 0.61228 0.67059 0.03443 0.0
C726 C 0.61783 0.6931 0.05691 0.0
C727 C 0.58184 0.67635 0.06528 0.0
C728 C 0.62844 0.70616 0.04535 0.0
C729 C 0.64063 0.71996 0.05473 0.0
C730 C 0.64258 0.72084 0.07584 0.0
C731 C 0.63166 0.70787 0.08728 0.0
C732 C 0.61955 0.69422 0.07797 0.0
H733 H 0.56872 0.67096 0.06149 0.0
H734 H 0.58285 0.67419 0.08149 0.0
H735 H 0.58778 0.6892 0.06294 0.0
H736 H 0.6275 0.70555 0.02905 0.0
H737 H 0.64887 0.72967 0.04546 0.0
H738 H 0.48628 0.02232 0.0665 0.0
H739 H 0.46002 0.00492 0.08214 0.0
H740 H 0.43663 0.02109 0.04052 0.0
H741 H 0.46256 0.03824 0.02489 0.0
H742 H 0.44294 0.01614 0.10138 0.0
H743 H 0.40351 0.97504 0.04229 0.0
H744 H 0.42538 0.98553 0.04048 0.0
H745 H 0.41379 0.99452 0.03246 0.0
C746 C 0.47543 0.02174 0.06029 0.0
C747 C 0.47647 0.03169 0.04451 0.0
C748 C 0.46045 0.01183 0.06927 0.0
C749 C 0.44628 0.01152 0.06236 0.0
C750 C 0.44726 0.02079 0.04584 0.0
H751 H 0.37612 0.02528 0.10352 0.0
H752 H 0.40024 0.02313 0.09887 0.0
C753 C 0.46216 0.03073 0.03701 0.0
C754 C 0.431 0.00366 0.07398 0.0
H755 H 0.38998 0.98381 0.06643 0.0
C756 C 0.43136 0.00861 0.09397 0.0
C757 C 0.41584 0.99355 0.0646 0.0
C758 C 0.41463 0.98673 0.04384 0.0
C759 C 0.41701 0.00526 0.10386 0.0
C760 C 0.402 0.99696 0.0934 0.0
C761 C 0.4015 0.99041 0.07437 0.0
C762 C 0.38756 0.99777 0.0999 0.0
C763 C 0.41815 0.01152 0.12496 0.0
C764 C 0.37232 0.98421 0.10222 0.0
C765 C 0.35839 0.98545 0.10508 0.0
C766 C 0.35954 1.00025 0.1051 0.0
C767 C 0.37488 0.01374 0.10359 0.0
C768 C 0.38872 0.01252 0.10108 0.0
H769 H 0.42853 0.012 0.13338 0.0
H770 H 0.42024 0.02364 0.1242 0.0
H771 H 0.40682 0.00421 0.13343 0.0
H772 H 0.37114 0.97272 0.1011 0.0
H773 H 0.34666 0.97488 0.10598 0.0
H774 H 0.50487 0.07517 0.48543 0.0
H775 H 0.48614 0.08409 0.47467 0.0
H776 H 0.44857 0.0485 0.51096 0.0
H777 H 0.46716 0.0395 0.52182 0.0
H778 H 0.45374 0.06769 0.45569 0.0
H779 H 0.45385 0.09071 0.5322 0.0
H780 H 0.46898 0.08593 0.5243 0.0
H781 H 0.44921 0.07065 0.53158 0.0
C782 C 0.49257 0.06909 0.49096 0.0
C783 C 0.4876 0.05664 0.50463 0.0
C784 C 0.48186 0.07423 0.48477 0.0
C785 C 0.46601 0.06714 0.49223 0.0
C786 C 0.46082 0.05432 0.50522 0.0
H787 H 0.381 0.07422 0.49175 0.0
H788 H 0.40317 0.06898 0.49519 0.0
C789 C 0.47146 0.04912 0.51134 0.0
C790 C 0.45507 0.07347 0.48722 0.0
H791 H 0.43405 0.08934 0.50898 0.0
C792 C 0.44955 0.07258 0.46727 0.0
C793 C 0.44974 0.08003 0.50228 0.0
C794 C 0.45584 0.08206 0.52377 0.0
C795 C 0.43816 0.07728 0.46222 0.0
C796 C 0.43236 0.08327 0.47748 0.0
C797 C 0.43843 0.08473 0.49725 0.0
C798 C 0.41878 0.08653 0.47397 0.0
C799 C 0.43186 0.07511 0.44084 0.0
C800 C 0.41998 0.09819 0.46069 0.0
C801 C 0.40707 0.10129 0.45858 0.0
C802 C 0.39281 0.09284 0.46982 0.0
C803 C 0.39175 0.08111 0.48287 0.0
C804 C 0.40448 0.07804 0.48491 0.0
H805 H 0.43543 0.06788 0.43167 0.0
H806 H 0.41842 0.06946 0.44058 0.0
H807 H 0.43685 0.08674 0.43366 0.0
H808 H 0.43098 0.10509 0.45227 0.0
H809 H 0.40836 0.11041 0.44844 0.0
H810 H 0.9896 0.49704 0.52962 0.0
H811 H 0.98181 0.4693 0.53028 0.0
H812 H 0.9781 0.46715 0.46539 0.0
H813 H 0.98537 0.49461 0.46459 0.0
H814 H 0.9555 0.43943 0.48269 0.0
H815 H 0.0173 0.45995 0.51487 0.0
H816 H 0.00403 0.46403 0.52951 0.0
H817 H 0.01121 0.47344 0.50566 0.0
C818 C 0.98665 0.49055 0.51551 0.0
C819 C 0.98842 0.49816 0.497 0.0
C820 C 0.98233 0.47471 0.51593 0.0
C821 C 0.97984 0.46627 0.49785 0.0
C822 C 0.98009 0.47345 0.47953 0.0
H823 H 0.00636 0.40851 0.44321 0.0
H824 H 1.00201 0.42773 0.46079 0.0
C825 C 0.9843 0.48921 0.4791 0.0
C826 C 0.97891 0.45074 0.49745 0.0
H827 H 1.00275 0.43413 0.50318 0.0
C828 C 0.96564 0.4381 0.48762 0.0
C829 C 0.99221 0.44907 0.50381 0.0
C830 C 0.00706 0.46233 0.51394 0.0
C831 C 0.96579 0.42425 0.4828 0.0
C832 C 0.9795 0.42298 0.48814 0.0
C833 C 0.99223 0.43514 0.49923 0.0
C834 C 0.98235 0.4108 0.47899 0.0
C835 C 0.95189 0.41158 0.47067 0.0
C836 C 0.97292 0.39481 0.48366 0.0
C837 C 0.97544 0.38363 0.47356 0.0
C838 C 0.98732 0.38834 0.45857 0.0
C839 C 0.997 0.40442 0.45451 0.0
C840 C 0.99458 0.41547 0.46462 0.0
H841 H 0.94264 0.41485 0.46656 0.0
H842 H 0.95649 0.40907 0.45664 0.0
H843 H 0.94592 0.40063 0.47954 0.0
H844 H 0.96352 0.39099 0.49488 0.0
H845 H 0.96779 0.37134 0.47702 0.0
H846 H 0.6017 0.56531 0.52166 0.0
H847 H 0.6257 0.58769 0.50721 0.0
H848 H 0.6067 0.57066 0.44734 0.0
H849 H 0.5832 0.54785 0.46188 0.0
H850 H 0.63858 0.58392 0.4473 0.0
H851 H 0.62211 0.62365 0.48644 0.0
H852 H 0.62608 0.61214 0.50394 0.0
H853 H 0.60919 0.60267 0.4865 0.0
C854 C 0.60292 0.56626 0.50543 0.0
C855 C 0.5907 0.555 0.49284 0.0
C856 C 0.61649 0.57907 0.49718 0.0
C857 C 0.61774 0.58113 0.47619 0.0
C858 C 0.60596 0.56939 0.46357 0.0
H859 H 0.6755 0.67513 0.43068 0.0
H860 H 0.65332 0.64856 0.43683 0.0
C861 C 0.59257 0.55636 0.47185 0.0
C862 C 0.63071 0.59594 0.46748 0.0
H863 H 0.64777 0.63564 0.47067 0.0
C864 C 0.64055 0.59525 0.45229 0.0
C865 C 0.633 0.61071 0.47358 0.0
C866 C 0.62191 0.61235 0.48833 0.0
C867 C 0.65282 0.60894 0.44335 0.0
C868 C 0.65569 0.62374 0.45032 0.0
C869 C 0.64569 0.62435 0.46533 0.0
C870 C 0.66898 0.63887 0.44264 0.0
C871 C 0.66225 0.60733 0.42625 0.0
C872 C 0.68518 0.64219 0.44298 0.0
C873 C 0.69783 0.65728 0.43874 0.0
C874 C 0.6945 0.66937 0.43479 0.0
C875 C 0.67833 0.66595 0.43369 0.0
C876 C 0.66569 0.6508 0.43729 0.0
H877 H 0.65502 0.59593 0.41821 0.0
H878 H 0.66594 0.61691 0.4152 0.0
H879 H 0.67332 0.60772 0.43242 0.0
H880 H 0.68814 0.63339 0.44761 0.0
H881 H 0.71025 0.65975 0.43999 0.0
H882 H 0.02786 0.57867 0.9817 0.0
H883 H 0.02495 0.60022 0.96801 0.0
H884 H 0.97578 0.57821 0.98938 0.0
H885 H 0.97846 0.55663 1.0028 0.0
H886 H 0.97863 0.58739 0.9496 0.0
H887 H 0.02349 0.63576 0.99883 0.0
H888 H 0.03129 0.62488 0.98595 0.0
H889 H 0.01581 0.61536 1.00452 0.0
C890 C 0.01647 0.57849 0.98357 0.0
C891 C 0.0034 0.56595 0.99332 0.0
C892 C 0.01486 0.59083 0.97585 0.0
C893 C 1.0002 0.59087 0.9779 0.0
C894 C 0.9872 0.57841 0.98769 0.0
H895 H 0.98371 0.66873 0.955 0.0
H896 H 0.98492 0.64671 0.97015 0.0
C897 C 0.98878 0.56609 0.99535 0.0
C898 C 0.99808 0.60353 0.9692 0.0
H899 H 0.01229 0.64291 0.97155 0.0
C900 C 0.98595 0.59953 0.95442 0.0
C901 C 0.0075 0.6193 0.97576 0.0
C902 C 0.02016 0.62412 0.99227 0.0
C903 C 0.98316 0.61093 0.94576 0.0
C904 C 0.99293 0.62677 0.95184 0.0
C905 C 0.00487 0.63075 0.96687 0.0
C906 C 0.99122 0.63945 0.94246 0.0
C907 C 0.96966 0.6059 0.93035 0.0
C908 C 0.99429 0.64257 0.92188 0.0
C909 C 0.99357 0.65507 0.91317 0.0
C910 C 0.98987 0.66478 0.92493 0.0
C911 C 0.98653 0.66145 0.94551 0.0
C912 C 0.98727 0.64893 0.9542 0.0
H913 H 0.96064 0.5932 0.93144 0.0
H914 H 0.96329 0.61267 0.93219 0.0
H915 H 0.97487 0.60808 0.91501 0.0
H916 H 0.99763 0.63556 0.91263 0.0
H917 H 0.99628 0.65733 0.89731 0.0
H918 H 0.51272 0.49199 0.98558 0.0
H919 H 0.48869 0.4664 0.98059 0.0
H920 H 0.45874 0.48429 1.00337 0.0
H921 H 0.48304 0.51034 0.00821 0.0
H922 H 0.46777 0.44743 0.00969 0.0
H923 H 0.43486 0.46162 0.95137 0.0
H924 H 0.45594 0.47478 0.95764 0.0
H925 H 0.44036 0.4731 0.97424 0.0
C926 C 0.50102 0.49062 0.98935 0.0
C927 C 0.49983 0.50327 0.99728 0.0
C928 C 0.48727 0.47589 0.98655 0.0
C929 C 0.47186 0.47332 0.99161 0.0
C930 C 0.47047 0.486 0.99912 0.0
H931 H 0.39127 0.37376 0.99004 0.0
H932 H 0.41077 0.40015 1.00309 0.0
C933 C 0.48435 0.5009 1.00184 0.0
C934 C 0.45758 0.45719 0.98922 0.0
H935 H 0.42311 0.43531 0.96107 0.0
C936 C 0.45788 0.44478 0.99925 0.0
C937 C 0.4447 0.45372 0.97556 0.0
C938 C 0.4439 0.46644 0.96393 0.0
C939 C 0.44609 0.42902 0.99536 0.0
C940 C 0.43346 0.42553 0.98128 0.0
C941 C 0.43277 0.43797 0.97191 0.0
C942 C 0.42196 0.40918 0.97424 0.0
C943 C 0.44776 0.41623 1.00553 0.0
C944 C 0.42179 0.4054 0.95381 0.0
C945 C 0.41073 0.39049 0.9464 0.0
C946 C 0.39944 0.37883 0.95919 0.0
C947 C 0.3999 0.3824 0.97984 0.0
C948 C 0.41102 0.39749 0.98729 0.0
H949 H 0.45976 0.42082 0.01314 0.0
H950 H 0.43821 0.41061 0.01707 0.0
H951 H 0.44613 0.40707 0.99443 0.0
H952 H 0.43016 0.41411 0.94345 0.0
H953 H 0.41083 0.38819 0.93043 0.0
H954 H 0.58955 0.09468 0.03255 0.0
H955 H 0.61264 0.09527 0.01612 0.0
H956 H 0.5808 0.05031 0.98828 0.0
H957 H 0.55753 0.04942 1.00528 0.0
H958 H 0.60775 0.05159 1.00183 0.0
H959 H 0.62535 0.10519 0.95834 0.0
H960 H 0.62445 0.10882 0.98465 0.0
H961 H 0.60626 0.09491 0.97126 0.0
C962 C 0.58743 0.08488 0.02296 0.0
C963 C 0.5717 0.07204 0.02011 0.0
C964 C 0.60064 0.08532 0.01338 0.0
C965 C 0.59841 0.07309 1.00041 0.0
C966 C 0.58278 0.05999 0.998 0.0
H967 H 0.68555 0.08946 0.93346 0.0
H968 H 0.65779 0.08407 0.93988 0.0
C969 C 0.56952 0.05946 0.00779 0.0
C970 C 0.6126 0.07386 0.99011 0.0
H971 H 0.64646 0.0986 0.96371 0.0
C972 C 0.61606 0.06175 0.9932 0.0
C973 C 0.62327 0.08688 0.97832 0.0
C974 C 0.61953 0.09958 0.97275 0.0
C975 C 0.63043 0.06283 0.98606 0.0
C976 C 0.64187 0.0766 0.97607 0.0
C977 C 0.63787 0.08819 0.97171 0.0
C978 C 0.65853 0.07977 0.97174 0.0
C979 C 0.63329 0.04928 0.98958 0.0
C980 C 0.66829 0.0796 0.98757 0.0
C981 C 0.68397 0.08258 0.98396 0.0
C982 C 0.69045 0.08607 0.96445 0.0
C983 C 0.68089 0.08677 0.94864 0.0
C984 C 0.66504 0.08364 0.95227 0.0
H985 H 0.62163 0.03802 0.99027 0.0
H986 H 0.64081 0.04835 0.97753 0.0
H987 H 0.63967 0.051 1.00426 0.0
H988 H 0.6638 0.07723 1.00283 0.0
H989 H 0.69104 0.08216 0.99658 0.0
H990 H 0.53409 0.01931 0.57493 0.0
H991 H 0.55202 0.00874 0.58173 0.0
H992 H 0.57176 0.02159 0.52213 0.0
H993 H 0.55379 0.0322 0.51511 0.0
H994 H 0.5665 0.99109 0.53646 0.0
H995 H 0.60134 0.04018 0.59082 0.0
H996 H 0.57985 0.02868 0.59482 0.0
H997 H 0.58727 0.04042 0.57262 0.0
C998 C 0.54202 0.01967 0.56308 0.0
C999 C 0.54254 0.02677 0.5445 0.0
C1000 C 0.55233 0.01365 0.56706 0.0
C1001 C 0.56345 0.01459 0.55258 0.0
C1002 C 0.56333 0.02077 0.53357 0.0
H1003 H 0.65477 0.02018 0.5534 0.0
H1004 H 0.6305 0.02238 0.55137 0.0
C1005 C 0.55301 0.02683 0.52956 0.0
C1006 C 0.57599 0.01027 0.55777 0.0
H1007 H 0.61033 0.02208 0.5864 0.0
C1008 C 0.57597 0.99773 0.54755 0.0
C1009 C 0.58842 0.01901 0.57217 0.0
C1010 C 0.58939 0.0329 0.58318 0.0
C1011 C 0.58818 0.99387 0.55117 0.0
C1012 C 0.60072 1.00277 0.56534 0.0
C1013 C 0.60056 0.01511 0.57578 0.0
C1014 C 0.61531 1.00098 0.56738 0.0
C1015 C 0.58804 0.98073 0.53926 0.0
C1016 C 0.61498 0.98825 0.57741 0.0
C1017 C 0.62907 0.98697 0.5788 0.0
C1018 C 0.64362 0.99833 0.56997 0.0
C1019 C 0.64381 0.01111 0.56025 0.0
C1020 C 0.62991 0.01243 0.55907 0.0
H1021 H 0.57785 0.97536 0.52815 0.0
H1022 H 0.59966 0.98519 0.53112 0.0
H1023 H 0.58698 0.97151 0.5497 0.0
H1024 H 0.60384 0.97932 0.58408 0.0
H1025 H 0.62849 0.97699 0.58636 0.0
H1026 H 0.04613 0.5871 0.57342 0.0
H1027 H 0.05465 0.61477 0.57812 0.0
H1028 H 0.0306 0.61405 0.52242 0.0
H1029 H 0.02176 0.58624 0.51774 0.0
H1030 H 0.07445 0.63868 0.55248 0.0
H1031 H 0.01508 0.63609 0.56074 0.0
H1032 H 0.01721 0.61896 0.5629 0.0
H1033 H 0.01694 0.62666 0.5385 0.0
C1034 C 0.04238 0.59272 0.56233 0.0
C1035 C 0.03322 0.58441 0.54523 0.0
C1036 C 0.04734 0.60858 0.565 0.0
C1037 C 0.04322 0.61649 0.55068 0.0
C1038 C 0.0337 0.60814 0.53385 0.0
H1039 H 0.06767 0.71531 0.55499 0.0
H1040 H 0.06094 0.68962 0.54084 0.0
C1041 C 0.02866 0.59223 0.5312 0.0
C1042 C 0.04966 0.63363 0.55299 0.0
H1043 H 0.03842 0.66122 0.56026 0.0
C1044 C 0.06656 0.64361 0.55409 0.0
C1045 C 0.03938 0.64009 0.55486 0.0
C1046 C 0.02114 0.62992 0.55436 0.0
C1047 C 0.07344 0.6598 0.55747 0.0
C1048 C 0.06316 0.66617 0.56004 0.0
C1049 C 0.04629 0.65631 0.55818 0.0
C1050 C 0.0695 0.68261 0.56691 0.0
C1051 C 0.09167 0.66994 0.55849 0.0
C1052 C 0.07686 0.6873 0.58602 0.0
C1053 C 0.08063 0.70185 0.59411 0.0
C1054 C 0.07715 0.71207 0.58326 0.0
C1055 C 0.07067 0.70777 0.56361 0.0
C1056 C 0.06671 0.69307 0.55558 0.0
H1057 H 0.09772 0.66445 0.55027 0.0
H1058 H 0.0957 0.6817 0.55208 0.0
H1059 H 0.09574 0.67151 0.57448 0.0
H1060 H 0.0789 0.67935 0.59516 0.0
H1061 H 0.08557 0.7048 0.60931 0.0
H1062 H 0.48955 0.48626 0.59366 0.0
H1063 H 0.46183 0.47249 0.60674 0.0
H1064 H 0.44354 0.47768 0.54928 0.0
H1065 H 0.47115 0.49173 0.53643 0.0
H1066 H 0.42954 0.48429 0.58024 0.0
H1067 H 0.42801 0.42782 0.59374 0.0
H1068 H 0.44377 0.44454 0.60694 0.0
H1069 H 0.44406 0.44356 0.57989 0.0
C1070 C 0.47956 0.48433 0.58385 0.0
C1071 C 0.48245 0.48998 0.56403 0.0
C1072 C 0.46376 0.47648 0.59131 0.0
C1073 C 0.45059 0.4739 0.57891 0.0
C1074 C 0.45351 0.4796 0.55914 0.0
H1075 H 0.35257 0.41817 0.55734 0.0
H1076 H 0.38078 0.43918 0.56033 0.0
C1077 C 0.46928 0.4876 0.5518 0.0
C1078 C 0.43365 0.46503 0.58607 0.0
H1079 H 0.4041 0.42844 0.59966 0.0
C1080 C 0.42403 0.47214 0.58477 0.0
C1081 C 0.4265 0.4492 0.5921 0.0
C1082 C 0.43604 0.44075 0.59313 0.0
C1083 C 0.4073 0.46359 0.5883 0.0
C1084 C 0.40007 0.44761 0.59331 0.0
C1085 C 0.4098 0.44077 0.59593 0.0
C1086 C 0.3823 0.43714 0.59262 0.0
C1087 C 0.39732 0.4715 0.58585 0.0
C1088 C 0.37376 0.4293 0.6099 0.0
C1089 C 0.35751 0.41739 0.60826 0.0
C1090 C 0.34982 0.41296 0.58925 0.0
C1091 C 0.35823 0.42135 0.57216 0.0
C1092 C 0.3743 0.43339 0.57386 0.0
H1093 H 0.40494 0.48445 0.58715 0.0
H1094 H 0.39144 0.46859 0.5707 0.0
H1095 H 0.38761 0.46729 0.59729 0.0
H1096 H 0.37984 0.43196 0.62446 0.0
H1097 H 0.35132 0.411 0.62163 0.0
H1098 H 0.76857 0.87772 0.37123 0.0
H1099 H 0.77377 0.85619 0.3769 0.0
H1100 H 0.73088 0.82525 0.34208 0.0
H1101 H 0.72624 0.84681 0.33516 0.0
H1102 H 0.75583 0.83181 0.39755 0.0
H1103 H 0.75998 0.81036 0.32238 0.0
H1104 H 0.76114 0.82907 0.32601 0.0
H1105 H 0.74172 0.81133 0.32352 0.0
C1106 C 0.76049 0.86648 0.36426 0.0
C1107 C 0.74682 0.86406 0.35295 0.0
C1108 C 0.76347 0.85413 0.36758 0.0
C1109 C 0.75284 0.8391 0.35973 0.0
C1110 C 0.73953 0.83679 0.34789 0.0
H1111 H 0.71787 0.75282 0.41726 0.0
H1112 H 0.72445 0.7778 0.40227 0.0
C1113 C 0.73668 0.84914 0.34431 0.0
C1114 C 0.75425 0.8254 0.36612 0.0
H1115 H 0.74976 0.79064 0.34908 0.0
C1116 C 0.75489 0.82301 0.38687 0.0
C1117 C 0.75335 0.81397 0.35229 0.0
C1118 C 0.75421 0.81644 0.32982 0.0
C1119 C 0.75345 0.80907 0.39417 0.0
C1120 C 0.75077 0.79698 0.3804 0.0
C1121 C 0.75139 0.79978 0.35963 0.0
C1122 C 0.74609 0.78106 0.38747 0.0
C1123 C 0.75443 0.8073 0.41665 0.0
C1124 C 0.75553 0.77415 0.38308 0.0
C1125 C 0.75163 0.75965 0.39142 0.0
C1126 C 0.73827 0.75197 0.40429 0.0
C1127 C 0.72838 0.75856 0.40767 0.0
C1128 C 0.73217 0.77289 0.39921 0.0
H1129 H 0.7618 0.81888 0.42424 0.0
H1130 H 0.74203 0.80175 0.42296 0.0
H1131 H 0.7598 0.79985 0.42028 0.0
H1132 H 0.76621 0.78021 0.37384 0.0
H1133 H 0.75946 0.75483 0.38853 0.0
H1134 H 0.22885 0.94901 0.35457 0.0
H1135 H 0.25117 0.97477 0.36483 0.0
H1136 H 0.21789 0.9835 0.39844 0.0
H1137 H 0.19549 0.95773 0.38835 0.0
H1138 H 0.24105 0.00987 0.37624 0.0
H1139 H 0.27 0.98344 0.4225 0.0
H1140 H 0.26631 0.97726 0.39653 0.0
H1141 H 0.24948 0.97215 0.41291 0.0
C1142 C 0.22625 0.95636 0.3642 0.0
C1143 C 0.21035 0.95115 0.37083 0.0
C1144 C 0.23904 0.97112 0.37 0.0
C1145 C 0.23625 0.98098 0.38264 0.0
C1146 C 0.22033 0.97609 0.38868 0.0
H1147 H 0.29945 0.05255 0.46503 0.0
H1148 H 0.27795 0.03035 0.44665 0.0
C1149 C 0.20751 0.96134 0.38286 0.0
C1150 C 0.24998 0.99601 0.39042 0.0
H1151 H 0.28373 0.01096 0.42076 0.0
C1152 C 0.25045 0.01015 0.38587 0.0
C1153 C 0.26217 0.99633 0.40312 0.0
C1154 C 0.26197 0.9815 0.40924 0.0
C1155 C 0.26272 0.02458 0.39384 0.0
C1156 C 0.27485 0.02486 0.40658 0.0
C1157 C 0.27448 0.01074 0.41087 0.0
C1158 C 0.28727 0.03935 0.41711 0.0
C1159 C 0.26233 0.03936 0.38919 0.0
C1160 C 0.29958 0.05203 0.40659 0.0
C1161 C 0.31202 0.06492 0.41715 0.0
C1162 C 0.31238 0.06522 0.43837 0.0
C1163 C 0.29968 0.05271 0.44871 0.0
C1164 C 0.28733 0.03996 0.43822 0.0
H1165 H 0.25075 0.03684 0.38178 0.0
H1166 H 0.26404 0.04625 0.40321 0.0
H1167 H 0.27244 0.04672 0.37895 0.0
H1168 H 0.29987 0.05173 0.39029 0.0
H1169 H 0.32164 0.07432 0.40874 0.0
H1170 H 0.14163 0.394 0.34691 0.0
H1171 H 0.11483 0.37891 0.36168 0.0
H1172 H 0.12989 0.34956 0.3919 0.0
H1173 H 0.15701 0.36476 0.377 0.0
H1174 H 0.09066 0.34556 0.36236 0.0
H1175 H 0.11758 0.37125 0.43769 0.0
H1176 H 0.1286 0.37941 0.41475 0.0
H1177 H 0.12569 0.36105 0.42371 0.0
C1178 C 0.13917 0.38414 0.35637 0.0
C1179 C 0.15145 0.38063 0.36091 0.0
C1180 C 0.12382 0.3755 0.36477 0.0
C1181 C 0.12042 0.36324 0.37808 0.0
C1182 C 0.13233 0.35907 0.38179 0.0
H1183 H 0.0208 0.32713 0.42526 0.0
H1184 H 0.04492 0.32499 0.41738 0.0
C1185 C 0.14775 0.36767 0.37316 0.0
C1186 C 0.1049 0.35613 0.38921 0.0
H1187 H 0.08943 0.35977 0.43388 0.0
C1188 C 0.09029 0.34819 0.37817 0.0
C1189 C 0.10451 0.35969 0.40982 0.0
C1190 C 0.11988 0.36836 0.4223 0.0
C1191 C 0.07543 0.34471 0.3868 0.0
C1192 C 0.07521 0.34928 0.407 0.0
C1193 C 0.08964 0.35619 0.41845 0.0
C1194 C 0.06106 0.35002 0.41492 0.0
C1195 C 0.06028 0.3374 0.37379 0.0
C1196 C 0.06232 0.36476 0.41692 0.0
C1197 C 0.0487 0.36598 0.42128 0.0
C1198 C 0.0335 0.35249 0.42398 0.0
C1199 C 0.0324 0.33771 0.42337 0.0
C1200 C 0.04611 0.33648 0.41873 0.0
H1201 H 0.0627 0.33533 0.35804 0.0
H1202 H 0.0512 0.32599 0.38023 0.0
H1203 H 0.05485 0.34508 0.37352 0.0
H1204 H 0.07372 0.37535 0.41407 0.0
H1205 H 0.04994 0.37753 0.42175 0.0
H1206 H 0.17218 0.38992 0.79513 0.0
H1207 H 0.15358 0.39835 0.78258 0.0
H1208 H 0.13096 0.38949 0.84075 0.0
H1209 H 0.14963 0.3812 0.85352 0.0
H1210 H 0.12099 0.37935 0.77974 0.0
H1211 H 0.13441 0.43111 0.82671 0.0
H1212 H 0.14815 0.42351 0.82508 0.0
H1213 H 0.13097 0.41456 0.84152 0.0
C1214 C 0.16352 0.39011 0.80544 0.0
C1215 C 0.16243 0.38483 0.82537 0.0
C1216 C 0.15284 0.39491 0.7982 0.0
C1217 C 0.1409 0.39469 0.81071 0.0
C1218 C 0.14025 0.39009 0.83087 0.0
H1219 H 0.04525 0.37554 0.78848 0.0
H1220 H 0.07088 0.37629 0.79456 0.0
C1221 C 0.15093 0.38528 0.83815 0.0
C1222 C 0.12809 0.39759 0.80217 0.0
H1223 H 0.10843 0.41827 0.8096 0.0
C1224 C 0.11844 0.38805 0.78608 0.0
C1225 C 0.1248 0.40905 0.81022 0.0
C1226 C 0.13524 0.42025 0.8267 0.0
C1227 C 0.10515 0.38908 0.77858 0.0
C1228 C 0.10125 0.39984 0.78747 0.0
C1229 C 0.11137 0.40996 0.80284 0.0
C1230 C 0.08579 0.3995 0.78251 0.0
C1231 C 0.09513 0.37836 0.76147 0.0
C1232 C 0.08558 0.41234 0.77364 0.0
C1233 C 0.07078 0.41191 0.76993 0.0
C1234 C 0.056 0.39874 0.77543 0.0
C1235 C 0.05637 0.38589 0.78406 0.0
C1236 C 0.07104 0.38626 0.78751 0.0
H1237 H 0.1021 0.37412 0.7527 0.0
H1238 H 0.08433 0.36799 0.7677 0.0
H1239 H 0.09084 0.38439 0.75111 0.0
H1240 H 0.09686 0.42271 0.76974 0.0
H1241 H 0.07092 0.42204 0.76343 0.0
H1242 H 0.64919 0.81419 0.8562 0.0
H1243 H 0.64812 0.78913 0.85019 0.0
H1244 H 0.62316 0.78388 0.79361 0.0
H1245 H 0.62395 0.80879 0.79976 0.0
H1246 H 0.61189 0.75545 0.81374 0.0
H1247 H 0.67925 0.78826 0.80926 0.0
H1248 H 0.67127 0.79043 0.83272 0.0
H1249 H 0.66748 0.79798 0.80997 0.0
C1250 C 0.6433 0.80757 0.84261 0.0
C1251 C 0.63685 0.81353 0.82831 0.0
C1252 C 0.64271 0.79328 0.83918 0.0
C1253 C 0.63589 0.78482 0.82124 0.0
C1254 C 0.62853 0.79025 0.80753 0.0
H1255 H 0.65891 0.72891 0.74835 0.0
H1256 H 0.65421 0.74793 0.76583 0.0
C1257 C 0.62895 0.80447 0.81107 0.0
C1258 C 0.6377 0.77113 0.81585 0.0
H1259 H 0.66616 0.76106 0.80402 0.0
C1260 C 0.62374 0.75659 0.81181 0.0
C1261 C 0.6532 0.77272 0.81319 0.0
C1262 C 0.66867 0.7882 0.81633 0.0
C1263 C 0.62489 0.7437 0.8047 0.0
C1264 C 0.64039 0.7454 0.80179 0.0
C1265 C 0.6543 0.75978 0.80644 0.0
C1266 C 0.64261 0.73321 0.79149 0.0
C1267 C 0.60958 0.72862 0.79942 0.0
C1268 C 0.63765 0.71853 0.80015 0.0
C1269 C 0.64033 0.70746 0.79009 0.0
C1270 C 0.64805 0.71098 0.77128 0.0
C1271 C 0.65296 0.72574 0.7628 0.0
C1272 C 0.65028 0.73668 0.77278 0.0
H1273 H 0.59865 0.72992 0.7999 0.0
H1274 H 0.61046 0.72448 0.78413 0.0
H1275 H 0.60796 0.71944 0.81031 0.0
H1276 H 0.6319 0.71571 0.81473 0.0
H1277 H 0.63643 0.69622 0.79704 0.0
H1278 H 0.22963 0.88801 0.7875 0.0
H1279 H 0.25812 0.90323 0.77776 0.0
H1280 H 0.27116 0.92202 0.83823 0.0
H1281 H 0.24291 0.90672 0.84815 0.0
H1282 H 0.27453 0.93469 0.7782 0.0
H1283 H 0.30795 0.91441 0.82586 0.0
H1284 H 0.28622 0.90299 0.82217 0.0
H1285 H 0.29489 0.91839 0.84099 0.0
C1286 C 0.23863 0.89503 0.79888 0.0
C1287 C 0.23396 0.89622 0.81859 0.0
C1288 C 0.25491 0.90374 0.79326 0.0
C1289 C 0.26683 0.91365 0.8073 0.0
C1290 C 0.26228 0.91418 0.82724 0.0
H1291 H 0.34845 0.99878 0.82464 0.0
H1292 H 0.32504 0.97244 0.8239 0.0
C1293 C 0.24605 0.9055 0.83286 0.0
C1294 C 0.28348 0.92512 0.80072 0.0
H1295 H 0.32316 0.94189 0.81563 0.0
C1296 C 0.28524 0.93599 0.78592 0.0
C1297 C 0.29746 0.92678 0.8107 0.0
C1298 C 0.29653 0.91489 0.82565 0.0
C1299 C 0.30039 0.94924 0.78217 0.0
C1300 C 0.31411 0.95157 0.79342 0.0
C1301 C 0.31258 0.94009 0.80709 0.0
C1302 C 0.32928 0.96694 0.79378 0.0
C1303 C 0.30143 0.96129 0.76739 0.0
C1304 C 0.3396 0.9725 0.77711 0.0
C1305 C 0.35315 0.98769 0.77747 0.0
C1306 C 0.35642 0.9975 0.79444 0.0
C1307 C 0.34623 0.99163 0.81123 0.0
C1308 C 0.33287 0.97652 0.81091 0.0
H1309 H 0.2894 0.95816 0.7608 0.0
H1310 H 0.30661 0.97293 0.77496 0.0
H1311 H 0.30964 0.96241 0.75495 0.0
H1312 H 0.33703 0.96521 0.76378 0.0
H1313 H 0.36079 0.99186 0.76434 0.0
H1314 H 0.73542 0.96437 0.32383 0.0
H1315 H 0.72534 0.98279 0.32037 0.0
H1316 H 0.67641 0.94396 0.31428 0.0
H1317 H 0.68636 0.92561 0.31789 0.0
H1318 H 0.70992 0.98598 0.28855 0.0
H1319 H 0.67018 0.97111 0.35479 0.0
H1320 H 0.68486 0.96473 0.35209 0.0
H1321 H 0.6653 0.95409 0.33978 0.0
C1322 C 0.72252 0.9598 0.32183 0.0
C1323 C 0.71168 0.94355 0.32123 0.0
C1324 C 0.71676 0.97031 0.32 0.0
C1325 C 0.70008 0.96474 0.31754 0.0
C1326 C 0.68926 0.94853 0.31686 0.0
H1327 H 0.65499 0.00767 0.25367 0.0
H1328 H 0.66427 0.99059 0.26759 0.0
C1329 C 0.69498 0.93805 0.31882 0.0
C1330 C 0.69406 0.97576 0.31381 0.0
H1331 H 0.66527 0.98482 0.32803 0.0
C1332 C 0.70032 0.98587 0.29737 0.0
C1333 C 0.68168 0.97577 0.32549 0.0
C1334 C 0.67524 0.96596 0.34415 0.0
C1335 C 0.69404 0.99548 0.29172 0.0
C1336 C 0.68089 0.99467 0.30252 0.0
C1337 C 0.67514 0.98516 0.31956 0.0
C1338 C 0.67283 0.00338 0.2958 0.0
C1339 C 0.70145 0.00632 0.27409 0.0
C1340 C 0.67364 0.01559 0.30764 0.0
C1341 C 0.66815 0.02531 0.29981 0.0
C1342 C 0.66188 0.02293 0.28001 0.0
C1343 C 0.65997 0.00993 0.26886 0.0
C1344 C 0.66532 1.0002 0.27674 0.0
H1345 H 0.71397 0.00874 0.27114 0.0
H1346 H 0.69399 1.00074 0.26034 0.0
H1347 H 0.70184 0.01764 0.27673 0.0
H1348 H 0.67928 0.01812 0.32247 0.0
H1349 H 0.66976 0.03522 0.30876 0.0
H1350 H 0.11904 0.83952 0.29847 0.0
H1351 H 0.10336 0.81159 0.29004 0.0
H1352 H 0.12631 0.80137 0.3393 0.0
H1353 H 0.14189 0.82923 0.34803 0.0
H1354 H 0.12609 0.78659 0.30288 0.0
H1355 H 0.06486 0.77676 0.32053 0.0
H1356 H 0.07609 0.79283 0.30381 0.0
H1357 H 0.08326 0.79387 0.32924 0.0
C1358 C 0.12061 0.83135 0.30772 0.0
C1359 C 0.13178 0.83672 0.32395 0.0
C1360 C 0.11163 0.81536 0.30286 0.0
C1361 C 0.11353 0.80437 0.31418 0.0
C1362 C 0.12464 0.80964 0.33037 0.0
H1363 H 0.04676 0.70354 0.29688 0.0
H1364 H 0.06464 0.72892 0.31325 0.0
C1365 C 0.13361 0.82562 0.33527 0.0
C1366 C 0.10431 0.78745 0.3087 0.0
H1367 H 0.0659 0.7566 0.30165 0.0
C1368 C 0.11293 0.77998 0.30279 0.0
C1369 C 0.08716 0.77876 0.30891 0.0
C1370 C 0.07727 0.78589 0.31615 0.0
C1371 C 0.10482 0.76425 0.29628 0.0
C1372 C 0.08766 0.75581 0.29546 0.0
C1373 C 0.07906 0.76309 0.30217 0.0
C1374 C 0.07836 0.73983 0.28643 0.0
C1375 C 0.11471 0.75682 0.29023 0.0
C1376 C 0.08033 0.73744 0.26603 0.0
C1377 C 0.07017 0.723 0.25665 0.0
C1378 C 0.05773 0.71061 0.26745 0.0
C1379 C 0.05627 0.71278 0.28815 0.0
C1380 C 0.06642 0.72731 0.29751 0.0
H1381 H 0.12696 0.76292 0.29742 0.0
H1382 H 0.10853 0.74424 0.29436 0.0
H1383 H 0.11632 0.75764 0.27365 0.0
H1384 H 0.08925 0.74699 0.25708 0.0
H1385 H 0.07163 0.72176 0.24069 0.0
H1386 H 0.26377 0.4263 0.35757 0.0
H1387 H 0.28681 0.42625 0.34198 0.0
H1388 H 0.2546 0.39097 0.29925 0.0
H1389 H 0.23123 0.39064 0.31533 0.0
H1390 H 0.27772 0.38504 0.31195 0.0
H1391 H 0.30727 0.44708 0.29002 0.0
H1392 H 0.30345 0.44536 0.31655 0.0
H1393 H 0.28666 0.4366 0.29886 0.0
C1394 C 0.26154 0.41846 0.34491 0.0
C1395 C 0.24568 0.40856 0.33757 0.0
C1396 C 0.27476 0.41857 0.33586 0.0
C1397 C 0.27254 0.40903 0.31897 0.0
C1398 C 0.25665 0.39862 0.31208 0.0
H1399 H 0.36594 0.43039 0.26462 0.0
H1400 H 0.33809 0.42583 0.26635 0.0
C1401 C 0.2433 0.39837 0.32133 0.0
C1402 C 0.28691 0.40983 0.30907 0.0
H1403 H 0.32501 0.43608 0.29311 0.0
C1404 C 0.28794 0.39615 0.30747 0.0
C1405 C 0.30011 0.42423 0.30254 0.0
C1406 C 0.29923 0.43909 0.30185 0.0
C1407 C 0.30227 0.3967 0.30109 0.0
C1408 C 0.31608 0.41138 0.29678 0.0
C1409 C 0.31459 0.42485 0.29679 0.0
C1410 C 0.33252 0.41327 0.29453 0.0
C1411 C 0.30249 0.38154 0.29941 0.0
C1412 C 0.33874 0.40794 0.30985 0.0
C1413 C 0.35447 0.41043 0.30884 0.0
C1414 C 0.36461 0.41858 0.29264 0.0
C1415 C 0.35845 0.42403 0.27727 0.0
C1416 C 0.34254 0.42141 0.27824 0.0
H1417 H 0.29029 0.37167 0.29518 0.0
H1418 H 0.31136 0.38227 0.28807 0.0
H1419 H 0.30583 0.37877 0.31427 0.0
H1420 H 0.33155 0.40215 0.32294 0.0
H1421 H 0.35876 0.40618 0.3211 0.0
H1422 H 0.20056 0.32188 0.87621 0.0
H1423 H 0.22382 0.3222 0.89194 0.0
H1424 H 0.24386 0.37101 0.90771 0.0
H1425 H 0.2205 0.3709 0.89127 0.0
H1426 H 0.26669 0.36603 0.89309 0.0
H1427 H 0.23411 0.32071 0.94997 0.0
H1428 H 0.2257 0.31319 0.92545 0.0
H1429 H 0.22444 0.32949 0.93589 0.0
C1430 C 0.20981 0.33272 0.88313 0.0
C1431 C 0.20856 0.34636 0.88256 0.0
C1432 C 0.22309 0.33282 0.89235 0.0
C1433 C 0.23543 0.34648 0.90162 0.0
C1434 C 0.23439 0.36024 0.90092 0.0
H1435 H 0.3139 0.33726 0.96256 0.0
H1436 H 0.29043 0.3412 0.95792 0.0
C1437 C 0.22106 0.36019 0.89148 0.0
C1438 C 0.2498 0.34639 0.91071 0.0
H1439 H 0.2604 0.32441 0.94015 0.0
C1440 C 0.26532 0.35711 0.90367 0.0
C1441 C 0.24822 0.33502 0.92495 0.0
C1442 C 0.23222 0.32409 0.93466 0.0
C1443 C 0.27901 0.35605 0.90932 0.0
C1444 C 0.27713 0.34367 0.92192 0.0
C1445 C 0.26184 0.33368 0.93014 0.0
C1446 C 0.29058 0.34027 0.9253 0.0
C1447 C 0.29536 0.36814 0.90145 0.0
C1448 C 0.29796 0.3377 0.90865 0.0
C1449 C 0.31126 0.33554 0.91126 0.0
C1450 C 0.31741 0.33558 0.93063 0.0
C1451 C 0.30942 0.33714 0.94746 0.0
C1452 C 0.29609 0.33949 0.9448 0.0
H1453 H 0.29577 0.37943 0.89851 0.0
H1454 H 0.30529 0.37032 0.91222 0.0
H1455 H 0.29758 0.3639 0.88696 0.0
H1456 H 0.29359 0.33764 0.8935 0.0
H1457 H 0.31697 0.33413 0.89796 0.0
H1458 H 0.65982 0.92321 0.89739 0.0
H1459 H 0.6732 0.95082 0.90772 0.0
H1460 H 0.7092 0.9623 0.86192 0.0
H1461 H 0.69586 0.93482 0.85137 0.0
H1462 H 0.72242 0.97529 0.89983 0.0
H1463 H 0.67335 0.98725 0.87755 0.0
H1464 H 0.66681 0.97057 0.89359 0.0
H1465 H 0.67401 0.97021 0.86874 0.0
C1466 C 0.67046 0.93163 0.88935 0.0
C1467 C 0.67677 0.92676 0.87358 0.0
C1468 C 0.6781 0.9474 0.89527 0.0
C1469 C 0.6921 0.95862 0.88544 0.0
C1470 C 0.69842 0.95382 0.8697 0.0
H1471 H 0.73178 0.0592 0.90298 0.0
H1472 H 0.72307 0.03362 0.8873 0.0
C1473 C 0.6908 0.93808 0.86378 0.0
C1474 C 0.70043 0.97529 0.89191 0.0
H1475 H 0.69482 0.00668 0.89785 0.0
C1476 C 0.71645 0.98221 0.89928 0.0
C1477 C 0.6927 0.98435 0.89085 0.0
C1478 C 0.67582 0.97779 0.88208 0.0
C1479 C 0.72475 0.99781 0.90625 0.0
C1480 C 0.71675 0.00663 0.90605 0.0
C1481 C 0.70092 0.99987 0.89808 0.0
C1482 C 0.72417 0.02261 0.91494 0.0
C1483 C 0.74202 0.00471 0.91374 0.0
C1484 C 0.72799 0.02498 0.93559 0.0
C1485 C 0.73299 0.03957 0.94459 0.0
C1486 C 0.73416 0.05207 0.93313 0.0
C1487 C 0.73105 0.04986 0.91225 0.0
C1488 C 0.72601 0.03523 0.90327 0.0
H1489 H 0.74787 0.9983 0.90745 0.0
H1490 H 0.7494 0.01727 0.90973 0.0
H1491 H 0.74208 0.00381 0.9304 0.0
H1492 H 0.72639 0.01535 0.94496 0.0
H1493 H 0.73526 0.04083 0.96071 0.0
H1494 H 0.14181 0.8715 0.89228 0.0
H1495 H 0.11937 0.84847 0.90755 0.0
H1496 H 0.13629 0.81925 0.881 0.0
H1497 H 0.15913 0.84241 0.86612 0.0
H1498 H 0.09587 0.82482 0.88714 0.0
H1499 H 0.12558 0.8015 0.93691 0.0
H1500 H 0.13639 0.82098 0.92657 0.0
H1501 H 0.13304 0.80427 0.91166 0.0
C1502 C 0.14091 0.8602 0.88993 0.0
C1503 C 0.15219 0.85874 0.87792 0.0
C1504 C 0.12809 0.84706 0.89873 0.0
C1505 C 0.12622 0.83214 0.89563 0.0
C1506 C 0.1377 0.83068 0.88404 0.0
H1507 H 0.05129 0.7382 0.89477 0.0
H1508 H 0.07658 0.7632 0.89533 0.0
C1509 C 0.15068 0.8439 0.8754 0.0
C1510 C 0.11135 0.81805 0.90269 0.0
H1511 H 0.09766 0.78356 0.92771 0.0
C1512 C 0.09626 0.81594 0.89635 0.0
C1513 C 0.11185 0.80649 0.91474 0.0
C1514 C 0.12759 0.80849 0.92304 0.0
C1515 C 0.08173 0.80226 0.90084 0.0
C1516 C 0.08229 0.79041 0.91215 0.0
C1517 C 0.0973 0.79271 0.9191 0.0
C1518 C 0.06762 0.77488 0.91463 0.0
C1519 C 0.06595 0.8002 0.89254 0.0
C1520 C 0.05434 0.77303 0.92585 0.0
C1521 C 0.03975 0.75866 0.92559 0.0
C1522 C 0.03829 0.74603 0.91397 0.0
C1523 C 0.05194 0.74776 0.90367 0.0
C1524 C 0.06646 0.76201 0.90406 0.0
H1525 H 0.06788 0.80954 0.88174 0.0
H1526 H 0.05889 0.78865 0.88479 0.0
H1527 H 0.05853 0.80053 0.90513 0.0
H1528 H 0.05509 0.78283 0.93426 0.0
H1529 H 0.02946 0.75766 0.93372 0.0
H1530 H 0.39062 0.18952 0.74248 0.0
H1531 H 0.38936 0.16457 0.74889 0.0
H1532 H 0.43139 0.17864 0.71186 0.0
H1533 H 0.43278 0.20384 0.70555 0.0
H1534 H 0.38487 0.14245 0.71988 0.0
H1535 H 0.4426 0.16253 0.76276 0.0
H1536 H 0.43399 0.175 0.75875 0.0
H1537 H 0.44437 0.1715 0.73869 0.0
C1538 C 0.39964 0.18733 0.7358 0.0
C1539 C 0.41175 0.19855 0.72345 0.0
C1540 C 0.39893 0.1731 0.73949 0.0
C1541 C 0.41029 0.16978 0.7309 0.0
C1542 C 0.42265 0.18108 0.71889 0.0
H1543 H 0.41228 0.08227 0.74686 0.0
H1544 H 0.41678 0.1069 0.73223 0.0
C1545 C 0.42344 0.19544 0.71531 0.0
C1546 C 0.40856 0.15415 0.73401 0.0
H1547 H 0.42623 0.13536 0.75684 0.0
C1548 C 0.39397 0.1409 0.72782 0.0
C1549 C 0.42051 0.15219 0.74424 0.0
C1550 C 0.43621 0.16602 0.75166 0.0
C1551 C 0.39078 0.12572 0.73216 0.0
C1552 C 0.40245 0.12379 0.74305 0.0
C1553 C 0.41734 0.13697 0.74847 0.0
C1554 C 0.39885 0.1083 0.75053 0.0
C1555 C 0.37485 0.11186 0.7254 0.0
C1556 C 0.38721 0.10096 0.76553 0.0
C1557 C 0.38467 0.08699 0.77399 0.0
C1558 C 0.39372 0.08009 0.76756 0.0
C1559 C 0.40505 0.08724 0.75206 0.0
C1560 C 0.40769 0.10132 0.74374 0.0
H1561 H 0.36907 0.11501 0.71306 0.0
H1562 H 0.37657 0.10207 0.72017 0.0
H1563 H 0.36642 0.10764 0.73831 0.0
H1564 H 0.38041 0.1063 0.77111 0.0
H1565 H 0.37587 0.08179 0.78589 0.0
H1566 H 0.86547 0.24796 0.72421 0.0
H1567 H 0.88511 0.27583 0.72747 0.0
H1568 H 0.8953 0.27779 0.66401 0.0
H1569 H 0.87572 0.24968 0.66066 0.0
H1570 H 0.92283 0.29028 0.68692 0.0
H1571 H 0.88581 0.31569 0.71236 0.0
H1572 H 0.88211 0.29922 0.72748 0.0
H1573 H 0.87689 0.29639 0.70102 0.0
C1574 C 0.87157 0.25436 0.7108 0.0
C1575 C 0.86896 0.24653 0.69217 0.0
C1576 C 0.88278 0.27037 0.71268 0.0
C1577 C 0.8916 0.27904 0.69595 0.0
C1578 C 0.88857 0.27141 0.67712 0.0
H1579 H 0.98046 0.3732 0.71156 0.0
H1580 H 0.95729 0.35135 0.69363 0.0
C1581 C 0.87728 0.25534 0.6752 0.0
C1582 C 0.90507 0.29551 0.69883 0.0
H1583 H 0.91434 0.33007 0.72215 0.0
C1584 C 0.92095 0.29914 0.69413 0.0
C1585 C 0.90266 0.30714 0.70814 0.0
C1586 C 0.88591 0.30446 0.71234 0.0
C1587 C 0.93449 0.31357 0.69992 0.0
C1588 C 0.93209 0.32473 0.71053 0.0
C1589 C 0.91619 0.3215 0.71408 0.0
C1590 C 0.94577 0.3386 0.72071 0.0
C1591 C 0.95131 0.31639 0.6959 0.0
C1592 C 0.94681 0.33882 0.74179 0.0
C1593 C 0.95992 0.35111 0.75195 0.0
C1594 C 0.97236 0.36365 0.74133 0.0
C1595 C 0.97111 0.36372 0.72017 0.0
C1596 C 0.95793 0.35123 0.70992 0.0
H1597 H 0.95112 0.30599 0.68902 0.0
H1598 H 0.95761 0.3264 0.68549 0.0
H1599 H 0.95851 0.31951 0.71016 0.0
H1600 H 0.93759 0.32924 0.75043 0.0
H1601 H 0.96034 0.35068 0.76824 0.0
H1602 H 0.81226 0.72594 0.68613 0.0
H1603 H 0.78476 0.70981 0.6985 0.0
H1604 H 0.79739 0.67652 0.72192 0.0
H1605 H 0.82524 0.6927 0.70921 0.0
H1606 H 0.76087 0.67344 0.69234 0.0
H1607 H 0.78155 0.69633 0.77047 0.0
H1608 H 0.79315 0.70759 0.74919 0.0
H1609 H 0.79253 0.68959 0.75523 0.0
C1610 C 0.80917 0.71507 0.69364 0.0
C1611 C 0.8209 0.71061 0.69681 0.0
C1612 C 0.79343 0.70584 0.70064 0.0
C1613 C 0.7891 0.69204 0.71118 0.0
C1614 C 0.80055 0.68715 0.71378 0.0
H1615 H 0.68671 0.65234 0.74973 0.0
H1616 H 0.71179 0.65118 0.74517 0.0
C1617 C 0.81638 0.69635 0.70647 0.0
C1618 C 0.77289 0.68378 0.72053 0.0
H1619 H 0.75381 0.68608 0.76267 0.0
C1620 C 0.7592 0.67561 0.70794 0.0
C1621 C 0.77084 0.68679 0.74083 0.0
C1622 C 0.78523 0.69553 0.75486 0.0
C1623 C 0.74362 0.67145 0.71472 0.0
C1624 C 0.74177 0.67569 0.7345 0.0
C1625 C 0.75528 0.68275 0.74756 0.0
C1626 C 0.72694 0.67607 0.74015 0.0
C1627 C 0.72943 0.66386 0.70017 0.0
C1628 C 0.72732 0.69045 0.73939 0.0
C1629 C 0.71315 0.69111 0.74177 0.0
C1630 C 0.69828 0.67742 0.74521 0.0
C1631 C 0.69803 0.66308 0.74721 0.0
C1632 C 0.71229 0.66239 0.74452 0.0
H1633 H 0.73284 0.66107 0.68539 0.0
H1634 H 0.71962 0.65286 0.70669 0.0
H1635 H 0.72447 0.67181 0.69763 0.0
H1636 H 0.73851 0.70112 0.73602 0.0
H1637 H 0.71375 0.70234 0.74026 0.0
H1638 H 0.81869 0.73062 0.1578 0.0
H1639 H 0.8008 0.74104 0.14957 0.0
H1640 H 0.81793 0.74892 0.08845 0.0
H1641 H 0.83563 0.73826 0.09642 0.0
H1642 H 0.80544 0.76925 0.13443 0.0
H1643 H 0.7693 0.72051 0.08022 0.0
H1644 H 0.78397 0.72026 0.09738 0.0
H1645 H 0.79057 0.73188 0.07495 0.0
C1646 C 0.81886 0.73478 0.14267 0.0
C1647 C 0.82852 0.73344 0.12774 0.0
C1648 C 0.80857 0.74071 0.13797 0.0
C1649 C 0.8077 0.74543 0.11825 0.0
C1650 C 0.81804 0.74498 0.10363 0.0
H1651 H 0.73352 0.7676 0.07188 0.0
H1652 H 0.75892 0.76658 0.07357 0.0
C1653 C 0.82828 0.73899 0.10828 0.0
C1654 C 0.79549 0.75017 0.11293 0.0
H1655 H 0.76117 0.73927 0.0846 0.0
C1656 C 0.79585 0.76277 0.1234 0.0
C1657 C 0.78298 0.74178 0.09844 0.0
C1658 C 0.78152 0.72777 0.08719 0.0
C1659 C 0.78389 0.76696 0.12014 0.0
C1660 C 0.77107 0.75822 0.10622 0.0
C1661 C 0.77106 0.74604 0.09515 0.0
C1662 C 0.75649 0.7601 0.10502 0.0
C1663 C 0.78493 0.78058 0.1319 0.0
C1664 C 0.74671 0.75676 0.12202 0.0
C1665 C 0.7323 0.7572 0.12104 0.0
C1666 C 0.72719 0.761 0.10301 0.0
C1667 C 0.73715 0.76471 0.086 0.0
C1668 C 0.75162 0.76409 0.08695 0.0
H1669 H 0.79761 0.78894 0.13675 0.0
H1670 H 0.78026 0.78698 0.12286 0.0
H1671 H 0.77748 0.77612 0.14564 0.0
H1672 H 0.75 0.75337 0.13601 0.0
H1673 H 0.72502 0.75433 0.13449 0.0
H1674 H 0.35466 0.16273 0.20158 0.0
H1675 H 0.34195 0.13432 0.19749 0.0
H1676 H 0.37573 0.1407 0.15057 0.0
H1677 H 0.38845 0.16913 0.15445 0.0
H1678 H 0.3269 0.11651 0.16374 0.0
H1679 H 0.37842 0.10873 0.18682 0.0
H1680 H 0.37791 0.12649 0.19209 0.0
H1681 H 0.38388 0.12326 0.16767 0.0
C1682 C 0.35937 0.15812 0.19033 0.0
C1683 C 0.37257 0.16826 0.17828 0.0
C1684 C 0.35215 0.14186 0.18812 0.0
C1685 C 0.35804 0.13538 0.17396 0.0
C1686 C 0.37123 0.14544 0.16196 0.0
H1687 H 0.31829 0.05396 0.10346 0.0
H1688 H 0.32518 0.07833 0.12088 0.0
C1689 C 0.37848 0.1617 0.16415 0.0
C1690 C 0.34984 0.11815 0.17084 0.0
H1691 H 0.35712 0.08763 0.16742 0.0
C1692 C 0.33343 0.11013 0.16487 0.0
C1693 C 0.35824 0.10975 0.17274 0.0
C1694 C 0.37554 0.11747 0.18039 0.0
C1695 C 0.32553 0.09418 0.15946 0.0
C1696 C 0.33433 0.08611 0.15979 0.0
C1697 C 0.35041 0.09385 0.16703 0.0
C1698 C 0.32786 0.07042 0.15027 0.0
C1699 C 0.30794 0.08622 0.15296 0.0
C1700 C 0.32696 0.05775 0.16103 0.0
C1701 C 0.32294 0.04366 0.15103 0.0
C1702 C 0.32012 0.04221 0.13008 0.0
C1703 C 0.32042 0.05472 0.1196 0.0
C1704 C 0.32425 0.06865 0.12957 0.0
H1705 H 0.30163 0.09194 0.15996 0.0
H1706 H 0.30721 0.08712 0.13636 0.0
H1707 H 0.30146 0.07361 0.15697 0.0
H1708 H 0.32984 0.05894 0.177 0.0
H1709 H 0.32294 0.03426 0.15945 0.0
H1710 H 0.90343 0.28586 0.12812 0.0
H1711 H 0.9313 0.29513 0.11888 0.0
H1712 H 0.93059 0.25665 0.15058 0.0
H1713 H 0.90239 0.24737 0.16041 0.0
H1714 H 0.95587 0.28354 0.162 0.0
H1715 H 0.95486 0.28344 0.0794 0.0
H1716 H 0.94361 0.29244 0.08786 0.0
H1717 H 0.9366 0.27218 0.09376 0.0
C1718 C 0.90903 0.27916 0.1329 0.0
C1719 C 0.90072 0.26594 0.14514 0.0
C1720 C 0.92497 0.28437 0.12732 0.0
C1721 C 0.93299 0.27641 0.13361 0.0
C1722 C 0.92457 0.26286 0.14531 0.0
H1723 H 0.03389 0.34154 0.0998 0.0
H1724 H 0.01 0.31528 0.10304 0.0
C1725 C 0.90849 0.25759 0.15094 0.0
C1726 C 0.95071 0.28383 0.13033 0.0
H1727 H 0.97882 0.30635 0.09556 0.0
C1728 C 0.96097 0.28808 0.14734 0.0
C1729 C 0.95756 0.28941 0.11118 0.0
C1730 C 0.94753 0.28393 0.09203 0.0
C1731 C 0.97747 0.29933 0.14606 0.0
C1732 C 0.9837 0.30677 0.12743 0.0
C1733 C 0.97397 0.301 0.10999 0.0
C1734 C 0.99895 0.32207 0.12642 0.0
C1735 C 0.98785 0.3038 0.16493 0.0
C1736 C 1.00053 0.33462 0.13824 0.0
C1737 C 0.01402 0.34952 0.13643 0.0
C1738 C 0.02623 0.35232 0.12255 0.0
C1739 C 0.0247 0.33975 0.11068 0.0
C1740 C 0.01111 0.32475 0.11254 0.0
H1741 H 0.9839 0.29348 0.17482 0.0
H1742 H 1.00088 0.3087 0.1614 0.0
H1743 H 0.98642 0.31272 0.17352 0.0
H1744 H 0.99106 0.33301 0.14855 0.0
H1745 H 0.01472 0.3589 0.14575 0.0
H1746 H 0.3628 0.27146 0.70053 0.0
H1747 H 0.34717 0.2829 0.68686 0.0
H1748 H 0.38213 0.30456 0.63964 0.0
H1749 H 0.3977 0.29288 0.65294 0.0
H1750 H 0.37105 0.32424 0.66053 0.0
H1751 H 0.32113 0.26692 0.63177 0.0
H1752 H 0.3273 0.26757 0.65764 0.0
H1753 H 0.34112 0.27014 0.63784 0.0
C1754 C 0.36717 0.27862 0.68721 0.0
C1755 C 0.38139 0.28107 0.67766 0.0
C1756 C 0.35824 0.28516 0.67947 0.0
C1757 C 0.36339 0.29431 0.66209 0.0
C1758 C 0.37795 0.29743 0.65304 0.0
H1759 H 0.31854 0.32731 0.57832 0.0
H1760 H 0.33007 0.3132 0.59562 0.0
C1761 C 0.38688 0.29083 0.66073 0.0
C1762 C 0.35338 0.30035 0.65309 0.0
H1763 H 0.31764 0.2889 0.62799 0.0
C1764 C 0.35935 0.31654 0.65349 0.0
C1765 C 0.33819 0.29021 0.64381 0.0
C1766 C 0.33153 0.27274 0.64254 0.0
C1767 C 0.35046 0.32291 0.64484 0.0
C1768 C 0.3352 0.31277 0.63571 0.0
C1769 C 0.32926 0.29657 0.63523 0.0
C1770 C 0.32579 0.319 0.62556 0.0
C1771 C 0.35758 0.34047 0.6451 0.0
C1772 C 0.31891 0.32626 0.63676 0.0
C1773 C 0.31223 0.33427 0.62695 0.0
C1774 C 0.31244 0.3352 0.60579 0.0
C1775 C 0.31829 0.32691 0.59463 0.0
C1776 C 0.32488 0.31885 0.60447 0.0
H1777 H 0.37056 0.34677 0.64982 0.0
H1778 H 0.35649 0.34463 0.62996 0.0
H1779 H 0.35075 0.3436 0.65583 0.0
H1780 H 0.31936 0.32631 0.65309 0.0
H1781 H 0.30777 0.34046 0.636 0.0
H1782 H 0.82493 0.16015 0.60867 0.0
H1783 H 0.80388 0.1329 0.60302 0.0
H1784 H 0.78584 0.13126 0.66287 0.0
H1785 H 0.80681 0.15869 0.66859 0.0
H1786 H 0.80049 0.1076 0.62491 0.0
H1787 H 0.74412 0.1112 0.62892 0.0
H1788 H 0.76387 0.1283 0.62569 0.0
H1789 H 0.75783 0.11951 0.65006 0.0
C1790 C 0.81633 0.15413 0.62055 0.0
C1791 C 0.81759 0.16169 0.63909 0.0
C1792 C 0.80431 0.13849 0.61731 0.0
C1793 C 0.79319 0.12999 0.63246 0.0
C1794 C 0.79408 0.13761 0.6508 0.0
H1795 H 0.71486 0.03042 0.62444 0.0
H1796 H 0.73488 0.05598 0.63926 0.0
C1797 C 0.80611 0.15332 0.65406 0.0
C1798 C 0.78138 0.11296 0.62927 0.0
H1799 H 0.74093 0.08602 0.62459 0.0
C1800 C 0.78747 0.10289 0.62496 0.0
C1801 C 0.76436 0.10671 0.62956 0.0
C1802 C 0.75708 0.11697 0.63365 0.0
C1803 C 0.77708 0.08692 0.62044 0.0
C1804 C 0.76009 0.08081 0.61993 0.0
C1805 C 0.75395 0.09069 0.62504 0.0
C1806 C 0.74872 0.06476 0.61194 0.0
C1807 C 0.7844 0.07675 0.61601 0.0
C1808 C 0.74993 0.06114 0.59179 0.0
C1809 C 0.73858 0.04669 0.58336 0.0
C1810 C 0.72568 0.03542 0.59484 0.0
C1811 C 0.72476 0.03878 0.61527 0.0
C1812 C 0.7361 0.05341 0.6237 0.0
H1813 H 0.79666 0.08165 0.62299 0.0
H1814 H 0.77657 0.06464 0.62156 0.0
H1815 H 0.78566 0.07613 0.59947 0.0
H1816 H 0.75936 0.06974 0.58231 0.0
H1817 H 0.73964 0.04453 0.56757 0.0
H1818 H 0.93227 0.76113 0.67394 0.0
H1819 H 0.95435 0.75938 0.6584 0.0
H1820 H 0.92038 0.71343 0.63485 0.0
H1821 H 0.89789 0.71511 0.65041 0.0
H1822 H 0.96292 0.73617 0.66579 0.0
H1823 H 0.9479 0.73844 0.58504 0.0
H1824 H 0.93964 0.74461 0.60521 0.0
H1825 H 0.93197 0.72413 0.6005 0.0
C1826 C 0.92938 0.75061 0.66545 0.0
C1827 C 0.91327 0.73825 0.6634 0.0
C1828 C 0.94207 0.74966 0.65655 0.0
C1829 C 0.939 0.73638 0.64526 0.0
C1830 C 0.92296 0.7239 0.64325 0.0
H1831 H 0.01577 0.71707 0.61639 0.0
H1832 H 0.98935 0.71438 0.62319 0.0
C1833 C 0.91017 0.72481 0.65228 0.0
C1834 C 0.95287 0.73565 0.63644 0.0
H1835 H 0.97133 0.73665 0.592 0.0
C1836 C 0.9647 0.73615 0.64966 0.0
C1837 C 0.95525 0.73586 0.61539 0.0
C1838 C 0.94311 0.73584 0.60061 0.0
C1839 C 0.97889 0.73696 0.64245 0.0
C1840 C 0.98125 0.73705 0.62141 0.0
C1841 C 0.96943 0.73651 0.60811 0.0
C1842 C 0.99603 0.73769 0.6133 0.0
C1843 C 0.99145 0.73804 0.65744 0.0
C1844 C 0.00827 0.75142 0.60443 0.0
C1845 C 0.02346 0.75298 0.60034 0.0
C1846 C 0.02654 0.74084 0.60524 0.0
C1847 C 0.01382 0.72671 0.61269 0.0
C1848 C 0.9987 0.72513 0.61658 0.0
H1849 H 0.98941 0.7412 0.67281 0.0
H1850 H 0.99084 0.72651 0.65826 0.0
H1851 H 0.00386 0.74687 0.65268 0.0
H1852 H 0.00639 0.76124 0.60177 0.0
H1853 H 0.03304 0.76399 0.59463 0.0
H1854 H 0.85715 0.66877 0.19753 0.0
H1855 H 0.87893 0.66677 0.2141 0.0
H1856 H 0.91334 0.71377 0.19574 0.0
H1857 H 0.89128 0.716 0.1794 0.0
H1858 H 0.904 0.66751 0.19573 0.0
H1859 H 0.92723 0.71468 0.25377 0.0
H1860 H 0.9081 0.70794 0.24075 0.0
H1861 H 0.92683 0.72142 0.2288 0.0
C1862 C 0.86931 0.67882 0.19723 0.0
C1863 C 0.87249 0.69255 0.18707 0.0
C1864 C 0.88178 0.67763 0.20675 0.0
C1865 C 0.89781 0.69011 0.20633 0.0
C1866 C 0.90102 0.70407 0.19667 0.0
H1867 H 0.99123 0.70061 0.22792 0.0
H1868 H 0.96759 0.70349 0.22209 0.0
C1869 C 0.88843 0.70533 0.18725 0.0
C1870 C 0.91112 0.68784 0.21458 0.0
H1871 H 0.94344 0.70288 0.24743 0.0
C1872 C 0.9125 0.67515 0.20721 0.0
C1873 C 0.92223 0.69778 0.22959 0.0
C1874 C 0.92097 0.71113 0.23885 0.0
C1875 C 0.92488 0.67239 0.21394 0.0
C1876 C 0.93616 0.68248 0.22868 0.0
C1877 C 0.9347 0.69507 0.23627 0.0
C1878 C 0.95049 0.6811 0.23474 0.0
C1879 C 0.92619 0.65907 0.20462 0.0
C1880 C 0.94886 0.6677 0.24444 0.0
C1881 C 0.9625 0.666 0.24791 0.0
C1882 C 0.97792 0.67763 0.24157 0.0
C1883 C 0.97951 0.69132 0.23279 0.0
C1884 C 0.966 0.69304 0.2295 0.0
H1885 H 0.91832 0.65413 0.191 0.0
H1886 H 0.93892 0.66303 0.20038 0.0
H1887 H 0.92245 0.64955 0.21577 0.0
H1888 H 0.937 0.65841 0.24886 0.0
H1889 H 0.96088 0.65535 0.25472 0.0
H1890 H 0.39053 0.27892 0.21593 0.0
H1891 H 0.397 0.30578 0.22201 0.0
H1892 H 0.44747 0.32212 0.21037 0.0
H1893 H 0.44103 0.29498 0.20428 0.0
H1894 H 0.44389 0.33496 0.24421 0.0
H1895 H 0.4072 0.34118 0.18418 0.0
H1896 H 0.39489 0.32387 0.19844 0.0
H1897 H 0.41166 0.32539 0.18419 0.0
C1898 C 0.40297 0.28819 0.2142 0.0
C1899 C 0.41524 0.28477 0.20941 0.0
C1900 C 0.40665 0.30361 0.21763 0.0
C1901 C 0.42266 0.31603 0.21615 0.0
C1902 C 0.435 0.31272 0.21138 0.0
H1903 H 0.4295 0.40748 0.23956 0.0
H1904 H 0.43425 0.38803 0.22232 0.0
C1905 C 0.43132 0.29722 0.20801 0.0
C1906 C 0.42644 0.33221 0.22129 0.0
H1907 H 0.41253 0.35774 0.21397 0.0
C1908 C 0.43731 0.34012 0.23729 0.0
C1909 C 0.4182 0.33918 0.21198 0.0
C1910 C 0.40749 0.33202 0.19359 0.0
C1911 C 0.4391 0.35412 0.24529 0.0
C1912 C 0.42948 0.36015 0.23739 0.0
C1913 C 0.41968 0.35297 0.2203 0.0
C1914 C 0.42798 0.37266 0.24798 0.0
C1915 C 0.45096 0.36207 0.2625 0.0
C1916 C 0.42275 0.37042 0.26801 0.0
C1917 C 0.42007 0.38143 0.27784 0.0
C1918 C 0.42235 0.39492 0.2678 0.0
C1919 C 0.42767 0.39724 0.24773 0.0
C1920 C 0.4304 0.38615 0.23787 0.0
H1921 H 0.46126 0.3598 0.26164 0.0
H1922 H 0.45584 0.37494 0.2626 0.0
H1923 H 0.44472 0.35726 0.27697 0.0
H1924 H 0.42032 0.35989 0.27594 0.0
H1925 H 0.4159 0.37918 0.29325 0.0
H1926 H 0.81195 0.22223 0.22842 0.0
H1927 H 0.78989 0.19773 0.24132 0.0
H1928 H 0.80085 0.1717 0.1979 0.0
H1929 H 0.82333 0.19625 0.18526 0.0
H1930 H 0.76385 0.17833 0.21909 0.0
H1931 H 0.79325 0.14578 0.24795 0.0
H1932 H 0.80455 0.16647 0.24255 0.0
H1933 H 0.79859 0.15222 0.22248 0.0
C1934 C 0.80987 0.21127 0.22186 0.0
C1935 C 0.8193 0.21113 0.20577 0.0
C1936 C 0.79727 0.19728 0.22928 0.0
C1937 C 0.79378 0.18288 0.22068 0.0
C1938 C 0.80355 0.18265 0.20507 0.0
H1939 H 0.71049 0.09032 0.21969 0.0
H1940 H 0.73653 0.11412 0.21459 0.0
C1941 C 0.81633 0.19668 0.19778 0.0
C1942 C 0.77887 0.16839 0.2266 0.0
H1943 H 0.76439 0.13106 0.24341 0.0
C1944 C 0.764 0.16806 0.22464 0.0
C1945 C 0.7791 0.15499 0.23374 0.0
C1946 C 0.79474 0.15489 0.237 0.0
C1947 C 0.74931 0.15461 0.22922 0.0
C1948 C 0.74952 0.14117 0.23608 0.0
C1949 C 0.76435 0.14146 0.23818 0.0
C1950 C 0.73431 0.1265 0.24024 0.0
C1951 C 0.73362 0.1547 0.22617 0.0
C1952 C 0.7246 0.12559 0.25654 0.0
C1953 C 0.70967 0.11199 0.25954 0.0
C1954 C 0.70425 0.09914 0.24621 0.0
C1955 C 0.71424 0.10004 0.23015 0.0
C1956 C 0.72916 0.11358 0.22725 0.0
H1957 H 0.73537 0.16508 0.2176 0.0
H1958 H 0.72457 0.14392 0.218 0.0
H1959 H 0.72852 0.15489 0.24107 0.0
H1960 H 0.72848 0.13546 0.26679 0.0
H1961 H 0.70231 0.11165 0.27209 0.0
H1962 H 0.01626 0.51548 0.93626 0.0
H1963 H 0.01801 0.50364 0.90458 0.0
H1964 H 0.97889 0.45882 0.92333 0.0
H1965 H 0.97696 0.47064 0.95493 0.0
H1966 H 0.02515 0.48099 0.89799 0.0
H1967 H 0.96357 0.46123 0.86756 0.0
H1968 H 0.97195 0.47459 0.88874 0.0
H1969 H 0.96298 0.45378 0.89232 0.0
C1970 C 0.00802 0.5031 0.93365 0.0
C1971 C 0.99643 0.49402 0.94816 0.0
C1972 C 0.00899 0.49636 0.91546 0.0
C1973 C 0.99839 0.48039 0.91133 0.0
C1974 C 0.98689 0.47127 0.92585 0.0
H1975 H 0.99079 0.40887 0.83317 0.0
H1976 H 0.98889 0.42598 0.85829 0.0
C1977 C 0.98583 0.47803 0.94398 0.0
C1978 C 0.99989 0.47309 0.89232 0.0
H1979 H 0.97799 0.44958 0.85252 0.0
C1980 C 0.01491 0.47435 0.88787 0.0
C1981 C 0.98656 0.4645 0.87898 0.0
C1982 C 0.97041 0.46358 0.88202 0.0
C1983 C 0.01673 0.46662 0.87107 0.0
C1984 C 0.00321 0.45746 0.85832 0.0
C1985 C 0.98834 0.45661 0.86234 0.0
C1986 C 0.00383 0.44736 0.84207 0.0
C1987 C 0.03288 0.46769 0.86754 0.0
C1988 C 0.01266 0.45369 0.82435 0.0
C1989 C 0.0137 0.44386 0.80973 0.0
C1990 C 0.00606 0.42758 0.81278 0.0
C1991 C 0.99695 0.42135 0.83037 0.0
C1992 C 0.99579 0.43111 0.84476 0.0
H1993 H 0.04176 0.47408 0.87991 0.0
H1994 H 0.03128 0.45576 0.86607 0.0
H1995 H 0.03802 0.4739 0.85321 0.0
H1996 H 0.01887 0.46623 0.82195 0.0
H1997 H 0.02082 0.44903 0.79638 0.0
H1998 H 0.59943 0.57074 0.95756 0.0
H1999 H 0.61147 0.58557 0.92685 0.0
H2000 H 0.56509 0.57982 0.90907 0.0
H2001 H 0.55308 0.56522 0.93988 0.0
H2002 H 0.60514 0.57779 0.88748 0.0
H2003 H 0.59357 0.6265 0.90426 0.0
H2004 H 0.59107 0.61218 0.92284 0.0
H2005 H 0.57548 0.60764 0.90413 0.0
C2006 C 0.59178 0.57258 0.94708 0.0
C2007 C 0.57531 0.5669 0.95129 0.0
C2008 C 0.59869 0.58111 0.92954 0.0
C2009 C 0.58929 0.58412 0.91579 0.0
C2010 C 0.57274 0.57809 0.9197 0.0
H2011 H 0.61125 0.63201 0.79978 0.0
H2012 H 0.59758 0.61524 0.82868 0.0
C2013 C 0.56586 0.5697 0.93732 0.0
C2014 C 0.59678 0.59339 0.89729 0.0
H2015 H 0.60319 0.62596 0.87151 0.0
C2016 C 0.60475 0.58835 0.88405 0.0
C2017 C 0.59631 0.6072 0.89275 0.0
C2018 C 0.58879 0.61381 0.90683 0.0
C2019 C 0.61209 0.59663 0.8664 0.0
C2020 C 0.61154 0.61036 0.86187 0.0
C2021 C 0.60349 0.61536 0.87497 0.0
C2022 C 0.61977 0.62004 0.84401 0.0
C2023 C 0.62029 0.59058 0.85259 0.0
C2024 C 0.63677 0.62834 0.84309 0.0
C2025 C 0.64461 0.638 0.82671 0.0
C2026 C 0.63561 0.63953 0.81082 0.0
C2027 C 0.61855 0.63105 0.81168 0.0
C2028 C 0.61072 0.62149 0.8282 0.0
H2029 H 0.61677 0.57825 0.85591 0.0
H2030 H 0.61726 0.59133 0.83659 0.0
H2031 H 0.63364 0.59793 0.85455 0.0
H2032 H 0.64399 0.62754 0.85524 0.0
H2033 H 0.65775 0.64435 0.82657 0.0
H2034 H 0.50385 0.09645 0.97183 0.0
H2035 H 0.49219 0.09194 0.93785 0.0
H2036 H 0.51342 0.06337 0.92354 0.0
H2037 H 0.52491 0.06765 0.95774 0.0
H2038 H 0.50474 0.09717 0.89951 0.0
H2039 H 0.46547 0.03326 0.91348 0.0
H2040 H 0.47678 0.04706 0.93342 0.0
H2041 H 0.48693 0.04086 0.91608 0.0
C2042 C 0.50625 0.08942 0.96136 0.0
C2043 C 0.51511 0.08223 0.96749 0.0
C2044 C 0.49956 0.08682 0.94196 0.0
C2045 C 0.50168 0.07707 0.92832 0.0
C2046 C 0.5113 0.07061 0.93401 0.0
H2047 H 0.44322 0.04332 0.81578 0.0
H2048 H 0.46621 0.05016 0.83891 0.0
C2049 C 0.51786 0.07307 0.9535 0.0
C2050 C 0.49293 0.07304 0.9087 0.0
H2051 H 0.46152 0.04283 0.88299 0.0
C2052 C 0.49547 0.08526 0.89573 0.0
C2053 C 0.48087 0.05745 0.90377 0.0
C2054 C 0.4772 0.04389 0.91744 0.0
C2055 C 0.48574 0.08241 0.87848 0.0
C2056 C 0.47317 0.06698 0.87418 0.0
C2057 C 0.47127 0.05462 0.88637 0.0
C2058 C 0.46032 0.0638 0.85919 0.0
C2059 C 0.48853 0.09597 0.86537 0.0
C2060 C 0.44943 0.06911 0.86314 0.0
C2061 C 0.43627 0.06506 0.85026 0.0
C2062 C 0.43376 0.05567 0.83308 0.0
C2063 C 0.44488 0.0506 0.82889 0.0
C2064 C 0.45799 0.0545 0.84202 0.0
H2065 H 0.50104 0.10607 0.86733 0.0
H2066 H 0.48642 0.09242 0.84922 0.0
H2067 H 0.47988 0.09992 0.86962 0.0
H2068 H 0.45091 0.07609 0.87651 0.0
H2069 H 0.42799 0.06924 0.85387 0.0
H2070 H 0.50055 0.04287 0.59047 0.0
H2071 H 0.48323 0.03609 0.61996 0.0
H2072 H 0.51052 0.084 0.64118 0.0
H2073 H 0.52817 0.09077 0.61174 0.0
H2074 H 0.50439 0.06369 0.67135 0.0
H2075 H 0.44747 0.04587 0.62855 0.0
H2076 H 0.4572 0.03513 0.62091 0.0
H2077 H 0.46714 0.05596 0.61697 0.0
C2078 C 0.50276 0.052 0.6013 0.0
C2079 C 0.51557 0.06741 0.59867 0.0
C2080 C 0.49283 0.04811 0.61814 0.0
C2081 C 0.49532 0.05961 0.63254 0.0
C2082 C 0.50831 0.07496 0.63018 0.0
H2083 H 0.42541 0.05126 0.72106 0.0
H2084 H 0.44309 0.05724 0.69214 0.0
C2085 C 0.51838 0.07882 0.61341 0.0
C2086 C 0.48447 0.05553 0.65017 0.0
H2087 H 0.44472 0.03939 0.66335 0.0
C2088 C 0.49135 0.05844 0.66962 0.0
C2089 C 0.46747 0.04887 0.64789 0.0
C2090 C 0.45939 0.04642 0.62746 0.0
C2091 C 0.48168 0.05472 0.68687 0.0
C2092 C 0.46462 0.04749 0.68457 0.0
C2093 C 0.45777 0.04473 0.66511 0.0
C2094 C 0.45367 0.04338 0.70211 0.0
C2095 C 0.48991 0.05896 0.70732 0.0
C2096 C 0.45345 0.03333 0.7172 0.0
C2097 C 0.44343 0.02999 0.73395 0.0
C2098 C 0.43324 0.03645 0.73571 0.0
C2099 C 0.43309 0.04607 0.72021 0.0
C2100 C 0.44322 0.04952 0.70363 0.0
H2101 H 0.50289 0.06817 0.70628 0.0
H2102 H 0.48378 0.06319 0.71766 0.0
H2103 H 0.4894 0.04843 0.71401 0.0
H2104 H 0.46108 0.0281 0.71608 0.0
H2105 H 0.44373 0.02245 0.74554 0.0
H2106 H 0.06672 0.53061 0.57927 0.0
H2107 H 0.06409 0.51337 0.60716 0.0
H2108 H 0.01458 0.48135 0.58917 0.0
H2109 H 0.01712 0.49843 0.56119 0.0
H2110 H 0.0179 0.48751 0.63028 0.0
H2111 H 0.0631 0.47148 0.60469 0.0
H2112 H 0.07078 0.49221 0.60666 0.0
H2113 H 0.05517 0.48073 0.58837 0.0
C2114 C 0.05532 0.51981 0.58104 0.0
C2115 C 0.04214 0.51599 0.56786 0.0
C2116 C 0.05384 0.50994 0.59706 0.0
C2117 C 0.03918 0.49593 0.60021 0.0
C2118 C 0.02601 0.49208 0.58711 0.0
H2119 H 0.0213 0.41649 0.67408 0.0
H2120 H 0.02559 0.43491 0.64711 0.0
C2121 C 0.02748 0.50194 0.57111 0.0
C2122 C 0.03742 0.48543 0.61737 0.0
H2123 H 0.05234 0.46313 0.63731 0.0
C2124 C 0.02544 0.48219 0.63181 0.0
C2125 C 0.04713 0.47833 0.61933 0.0
C2126 C 0.05967 0.48071 0.60386 0.0
C2127 C 0.02299 0.47218 0.64814 0.0
C2128 C 0.03292 0.46533 0.65032 0.0
C2129 C 0.04482 0.46848 0.6358 0.0
C2130 C 0.0307 0.45433 0.66704 0.0
C2131 C 0.00947 0.46869 0.6626 0.0
C2132 C 0.03238 0.4591 0.68736 0.0
C2133 C 0.02991 0.44854 0.70292 0.0
C2134 C 0.02577 0.43297 0.6985 0.0
C2135 C 0.02442 0.42834 0.67813 0.0
C2136 C 0.0269 0.43889 0.66262 0.0
H2137 H 1.00054 0.47166 0.65613 0.0
H2138 H 1.00297 0.45613 0.6668 0.0
H2139 H 0.01468 0.4758 0.67655 0.0
H2140 H 0.03564 0.47103 0.69122 0.0
H2141 H 0.03114 0.45256 0.7184 0.0
H2142 H 0.56997 0.59718 0.54347 0.0
H2143 H 0.58194 0.61324 0.574 0.0
H2144 H 0.55033 0.5739 0.61079 0.0
H2145 H 0.5384 0.5578 0.58059 0.0
H2146 H 0.56721 0.62019 0.60847 0.0
H2147 H 0.59705 0.58592 0.6292 0.0
H2148 H 0.589 0.58521 0.60423 0.0
H2149 H 0.57556 0.57463 0.62442 0.0
C2150 C 0.56542 0.59202 0.55804 0.0
C2151 C 0.55338 0.57616 0.55958 0.0
C2152 C 0.57227 0.6012 0.57546 0.0
C2153 C 0.5672 0.59464 0.59462 0.0
C2154 C 0.55461 0.57908 0.59614 0.0
H2155 H 0.60897 0.63039 0.71484 0.0
H2156 H 0.5908 0.61402 0.68737 0.0
C2157 C 0.54779 0.56992 0.57883 0.0
C2158 C 0.57556 0.60377 0.61305 0.0
H2159 H 0.5999 0.60545 0.65223 0.0
C2160 C 0.57434 0.61699 0.61807 0.0
C2161 C 0.58475 0.59946 0.62561 0.0
C2162 C 0.58683 0.58561 0.62059 0.0
C2163 C 0.58212 0.62604 0.63537 0.0
C2164 C 0.59161 0.62193 0.64769 0.0
C2165 C 0.59256 0.60853 0.64284 0.0
C2166 C 0.6017 0.63201 0.66473 0.0
C2167 C 0.58 0.63987 0.64035 0.0
C2168 C 0.61388 0.64745 0.66107 0.0
C2169 C 0.62421 0.65676 0.67661 0.0
C2170 C 0.62272 0.65082 0.69622 0.0
C2171 C 0.61042 0.63535 0.69994 0.0
C2172 C 0.60004 0.62599 0.68428 0.0
H2173 H 0.56859 0.63844 0.63366 0.0
H2174 H 0.57987 0.64154 0.6569 0.0
H2175 H 0.59025 0.65064 0.634 0.0
H2176 H 0.61568 0.65222 0.64602 0.0
H2177 H 0.63356 0.6686 0.67312 0.0
H2178 H 0.98189 0.53671 0.09168 0.0
H2179 H 0.98454 0.55464 0.11918 0.0
H2180 H 0.03654 0.57963 0.11223 0.0
H2181 H 0.03374 0.56225 0.08406 0.0
H2182 H 0.99833 0.56233 0.15478 0.0
H2183 H 0.02856 0.61516 0.10727 0.0
H2184 H 0.02002 0.59567 0.09686 0.0
H2185 H 0.03988 0.60513 0.10858 0.0
C2186 C 0.99386 0.54603 0.09611 0.0
C2187 C 0.00759 0.54827 0.0856 0.0
C2188 C 0.99539 0.55627 0.11183 0.0
C2189 C 0.01072 0.56881 0.11752 0.0
C2190 C 0.02452 0.57047 0.1077 0.0
H2191 H 0.0241 0.62656 0.22686 0.0
H2192 H 0.02287 0.60625 0.20398 0.0
C2193 C 0.02295 0.56048 0.09169 0.0
C2194 C 0.01218 0.58035 0.13328 0.0
H2195 H 0.02773 0.61949 0.14221 0.0
C2196 C 0.00471 0.57484 0.15201 0.0
C2197 C 0.02032 0.59669 0.12966 0.0
C2198 C 0.02749 0.6035 0.10944 0.0
C2199 C 0.00504 0.58514 0.16707 0.0
C2200 C 0.01358 0.6015 0.16362 0.0
C2201 C 0.02125 0.60698 0.14501 0.0
C2202 C 0.01384 0.61322 0.17825 0.0
C2203 C 0.9957 0.57829 0.18616 0.0
C2204 C 0.00952 0.62413 0.17147 0.0
C2205 C 0.01072 0.63595 0.18426 0.0
C2206 C 0.01599 0.63706 0.20437 0.0
C2207 C 0.01989 0.62591 0.21148 0.0
C2208 C 0.01907 0.61423 0.19843 0.0
H2209 H 0.98625 0.56578 0.18405 0.0
H2210 H 0.00419 0.57891 0.19817 0.0
H2211 H 0.98974 0.58488 0.19136 0.0
H2212 H 0.00535 0.62364 0.15609 0.0
H2213 H 0.00746 0.64425 0.17836 0.0
H2214 H 0.54122 0.52857 0.10956 0.0
H2215 H 0.5243 0.51627 0.13887 0.0
H2216 H 0.48128 0.50088 0.10216 0.0
H2217 H 0.49803 0.51256 0.07263 0.0
H2218 H 0.50205 0.52232 0.15677 0.0
H2219 H 0.47173 0.46056 0.12962 0.0
H2220 H 0.48934 0.47604 0.11753 0.0
H2221 H 0.46959 0.47367 0.11284 0.0
C2222 C 0.52817 0.52238 0.10758 0.0
C2223 C 0.52107 0.52156 0.08858 0.0
C2224 C 0.5185 0.51544 0.12444 0.0
C2225 C 0.5015 0.50745 0.1227 0.0
C2226 C 0.49435 0.50671 0.10384 0.0
H2227 H 0.42631 0.4585 0.21379 0.0
H2228 H 0.44038 0.47178 0.18283 0.0
C2229 C 0.50401 0.5136 0.08696 0.0
C2230 C 0.49131 0.50024 0.14075 0.0
H2231 H 0.46225 0.46541 0.16019 0.0
C2232 C 0.49336 0.50987 0.1575 0.0
C2233 C 0.47988 0.48401 0.14169 0.0
C2234 C 0.47757 0.47292 0.12455 0.0
C2235 C 0.48435 0.50372 0.17514 0.0
C2236 C 0.47312 0.48747 0.17618 0.0
C2237 C 0.47081 0.47788 0.15932 0.0
C2238 C 0.46449 0.48005 0.19509 0.0
C2239 C 0.48689 0.51469 0.19252 0.0
C2240 C 0.47335 0.48024 0.21218 0.0
C2241 C 0.46539 0.47266 0.22977 0.0
C2242 C 0.44834 0.46467 0.2307 0.0
C2243 C 0.43944 0.46462 0.21362 0.0
C2244 C 0.44746 0.47216 0.19591 0.0
H2245 H 0.49236 0.52703 0.18751 0.0
H2246 H 0.47525 0.5113 0.20012 0.0
H2247 H 0.49527 0.51408 0.20373 0.0
H2248 H 0.48647 0.48602 0.2118 0.0
H2249 H 0.47265 0.47292 0.24259 0.0
H2250 H 0.52799 0.07671 0.13235 0.0
H2251 H 0.54085 0.07506 0.16375 0.0
H2252 H 0.58285 0.08258 0.1305 0.0
H2253 H 0.57015 0.08436 0.09921 0.0
H2254 H 0.55069 0.05236 0.17024 0.0
H2255 H 0.60217 0.11293 0.17936 0.0
H2256 H 0.58451 0.10817 0.16394 0.0
H2257 H 0.60042 0.10525 0.15428 0.0
C2258 C 0.54011 0.07835 0.13184 0.0
C2259 C 0.5481 0.08065 0.11335 0.0
C2260 C 0.54739 0.07734 0.14974 0.0
C2261 C 0.56286 0.07889 0.14944 0.0
C2262 C 0.57102 0.08162 0.13109 0.0
H2263 H 0.61588 0.04362 0.20364 0.0
H2264 H 0.59578 0.04816 0.1868 0.0
C2265 C 0.5637 0.08248 0.11321 0.0
C2266 C 0.57005 0.07629 0.16781 0.0
H2267 H 0.60509 0.0926 0.19564 0.0
C2268 C 0.56241 0.06125 0.17616 0.0
C2269 C 0.5852 0.08797 0.17567 0.0
C2270 C 0.59349 0.10454 0.16799 0.0
C2271 C 0.57017 0.05723 0.19109 0.0
C2272 C 0.58596 0.06853 0.19763 0.0
C2273 C 0.59302 0.08391 0.19047 0.0
C2274 C 0.59624 0.06416 0.20962 0.0
C2275 C 0.56168 0.04077 0.19915 0.0
C2276 C 0.60312 0.07161 0.22812 0.0
C2277 C 0.61465 0.069 0.23785 0.0
C2278 C 0.61968 0.05915 0.22899 0.0
C2279 C 0.61231 0.0513 0.21083 0.0
C2280 C 0.60071 0.05379 0.20126 0.0
H2281 H 0.54828 0.03534 0.19787 0.0
H2282 H 0.5653 0.03349 0.19021 0.0
H2283 H 0.56505 0.04059 0.21518 0.0
H2284 H 0.59992 0.07977 0.23469 0.0
H2285 H 0.62017 0.07526 0.2518 0.0
H2286 H 0.60042 0.10644 0.47494 0.0
H2287 H 0.61476 0.10622 0.44445 0.0
H2288 H 0.57302 0.06264 0.42556 0.0
H2289 H 0.55856 0.06295 0.45546 0.0
H2290 H 0.622 0.08282 0.43129 0.0
H2291 H 0.58273 0.0907 0.37611 0.0
H2292 H 0.58292 0.09486 0.40269 0.0
H2293 H 0.57146 0.07503 0.39333 0.0
C2294 C 0.59426 0.09691 0.46418 0.0
C2295 C 0.57833 0.08472 0.46768 0.0
C2296 C 0.60249 0.09676 0.44684 0.0
C2297 C 0.59485 0.08453 0.43262 0.0
C2298 C 0.57904 0.07232 0.43616 0.0
H2299 H 0.61072 0.04602 0.32663 0.0
H2300 H 0.60166 0.05304 0.35722 0.0
C2301 C 0.57085 0.07243 0.45344 0.0
C2302 C 0.60338 0.08414 0.41424 0.0
H2303 H 0.59935 0.08086 0.363 0.0
C2304 C 0.61725 0.08266 0.41632 0.0
C2305 C 0.59717 0.08399 0.39475 0.0
C2306 C 0.58285 0.08639 0.39153 0.0
C2307 C 0.62453 0.08016 0.39944 0.0
C2308 C 0.61783 0.0793 0.38004 0.0
C2309 C 0.60438 0.08142 0.37792 0.0
C2310 C 0.62385 0.07514 0.36185 0.0
C2311 C 0.63883 0.07771 0.4025 0.0
C2312 C 0.63936 0.08528 0.3543 0.0
C2313 C 0.64461 0.08131 0.33673 0.0
C2314 C 0.6344 0.06714 0.32643 0.0
C2315 C 0.61891 0.05701 0.33417 0.0
C2316 C 0.61369 0.061 0.35165 0.0
H2317 H 0.6409 0.07624 0.41865 0.0
H2318 H 0.63699 0.06722 0.39393 0.0
H2319 H 0.64993 0.08802 0.39674 0.0
H2320 H 0.6473 0.09635 0.36183 0.0
H2321 H 0.65658 0.08939 0.33113 0.0
H2322 H 0.01969 0.58086 0.45856 0.0
H2323 H 0.01458 0.59382 0.4305 0.0
H2324 H 0.03507 0.57462 0.38936 0.0
H2325 H 0.04 0.56138 0.41722 0.0
H2326 H 0.04636 0.60704 0.3838 0.0
H2327 H 0.97907 0.5724 0.38641 0.0
H2328 H 0.989 0.5814 0.4099 0.0
H2329 H 0.99186 0.56627 0.39892 0.0
C2330 C 0.02297 0.57918 0.44357 0.0
C2331 C 0.03019 0.56988 0.44033 0.0
C2332 C 0.02004 0.58666 0.42748 0.0
C2333 C 0.02423 0.58505 0.40773 0.0
C2334 C 0.03168 0.57603 0.40445 0.0
H2335 H 0.99465 0.60521 0.29293 0.0
H2336 H 0.99905 0.59341 0.32292 0.0
C2337 C 0.03457 0.56849 0.4205 0.0
C2338 C 0.02099 0.59285 0.39051 0.0
H2339 H 0.99051 0.59363 0.36374 0.0
C2340 C 0.03415 0.60413 0.37944 0.0
C2341 C 0.00505 0.58896 0.38467 0.0
C2342 C 0.99039 0.57651 0.39545 0.0
C2343 C 0.03182 0.61169 0.36285 0.0
C2344 C 0.01589 0.60797 0.3572 0.0
C2345 C 1.00272 0.5966 0.36817 0.0
C2346 C 0.01262 0.61527 0.33942 0.0
C2347 C 0.04641 0.62331 0.35117 0.0
C2348 C 0.01846 0.63149 0.33881 0.0
C2349 C 0.0159 0.63831 0.32165 0.0
C2350 C 0.00745 0.62904 0.3047 0.0
C2351 C 1.00125 0.61274 0.30562 0.0
C2352 C 0.00374 0.60595 0.3228 0.0
H2353 H 0.05731 0.62234 0.35465 0.0
H2354 H 0.04392 0.62161 0.3347 0.0
H2355 H 0.04923 0.63538 0.35518 0.0
H2356 H 0.0251 0.63891 0.35157 0.0
H2357 H 0.02083 0.65088 0.32154 0.0
H2358 H 0.48477 0.4975 0.47677 0.0
H2359 H 0.47374 0.49435 0.4427 0.0
H2360 H 0.50982 0.54203 0.42936 0.0
H2361 H 0.52099 0.54532 0.46385 0.0
H2362 H 0.46256 0.51252 0.41843 0.0
H2363 H 0.51752 0.51262 0.38961 0.0
H2364 H 0.51251 0.50974 0.416 0.0
H2365 H 0.51983 0.52869 0.40512 0.0
C2366 C 0.49019 0.50744 0.46674 0.0
C2367 C 0.50382 0.52161 0.47289 0.0
C2368 C 0.48383 0.50564 0.4473 0.0
C2369 C 0.49105 0.5179 0.43347 0.0
C2370 C 0.50414 0.53241 0.43982 0.0
H2371 H 0.44397 0.48138 0.31348 0.0
H2372 H 0.46018 0.50255 0.33801 0.0
C2373 C 0.51044 0.53429 0.4595 0.0
C2374 C 0.48565 0.51453 0.41211 0.0
H2375 H 0.49431 0.50138 0.36887 0.0
C2376 C 0.46967 0.51063 0.40726 0.0
C2377 C 0.49496 0.51198 0.39766 0.0
C2378 C 0.51216 0.51591 0.40221 0.0
C2379 C 0.46235 0.50309 0.38894 0.0
C2380 C 0.47123 0.49933 0.37527 0.0
C2381 C 0.4876 0.50438 0.37939 0.0
C2382 C 0.46283 0.48737 0.35924 0.0
C2383 C 0.44472 0.49788 0.38506 0.0
C2384 C 0.4593 0.472 0.36296 0.0
C2385 C 0.45004 0.46 0.34922 0.0
C2386 C 0.4442 0.46311 0.33132 0.0
C2387 C 0.44834 0.47866 0.32713 0.0
C2388 C 0.45753 0.49073 0.34111 0.0
H2389 H 0.43965 0.50218 0.39688 0.0
H2390 H 0.44332 0.50225 0.37021 0.0
H2391 H 0.43751 0.48488 0.38449 0.0
H2392 H 0.46329 0.4692 0.37688 0.0
H2393 H 0.44718 0.44819 0.35285 0.0
H2394 H 0.72511 0.86649 0.27953 0.0
H2395 H 0.71676 0.8512 0.24839 0.0
H2396 H 0.66999 0.84813 0.25139 0.0
H2397 H 0.67819 0.86305 0.28343 0.0
H2398 H 0.66608 0.82133 0.23876 0.0
H2399 H 0.71544 0.86642 0.1937 0.0
H2400 H 0.724 0.86181 0.21489 0.0
H2401 H 0.71135 0.87041 0.21888 0.0
C2402 C 0.71301 0.86257 0.27362 0.0
C2403 C 0.70237 0.86613 0.28387 0.0
C2404 C 0.7083 0.85395 0.25561 0.0
C2405 C 0.69296 0.84898 0.24695 0.0
C2406 C 0.68201 0.85203 0.25752 0.0
H2407 H 0.68255 0.80695 0.12491 0.0
H2408 H 0.68319 0.82494 0.15135 0.0
C2409 C 0.68666 0.86049 0.27588 0.0
C2410 C 0.68841 0.84018 0.22728 0.0
H2411 H 0.70362 0.83969 0.18089 0.0
C2412 C 0.67417 0.8255 0.226 0.0
C2413 C 0.69857 0.84571 0.21018 0.0
C2414 C 0.71307 0.86204 0.20941 0.0
C2415 C 0.67048 0.81579 0.20882 0.0
C2416 C 0.68163 0.82058 0.19269 0.0
C2417 C 0.69521 0.83575 0.19333 0.0
C2418 C 0.68026 0.80955 0.17616 0.0
C2419 C 0.65469 0.80041 0.2083 0.0
C2420 C 0.67865 0.79503 0.18115 0.0
C2421 C 0.6781 0.78478 0.16619 0.0
C2422 C 0.67951 0.78878 0.14565 0.0
C2423 C 0.68133 0.80342 0.14052 0.0
C2424 C 0.6817 0.81371 0.15565 0.0
H2425 H 0.64516 0.80136 0.21669 0.0
H2426 H 0.65028 0.7965 0.19263 0.0
H2427 H 0.65644 0.79131 0.2158 0.0
H2428 H 0.67819 0.7917 0.19676 0.0
H2429 H 0.67693 0.77375 0.17092 0.0
H2430 H 0.19238 0.89636 0.27716 0.0
H2431 H 0.21259 0.90887 0.25104 0.0
H2432 H 0.25084 0.92423 0.29575 0.0
H2433 H 0.23043 0.91135 0.32217 0.0
H2434 H 0.23345 0.94067 0.25071 0.0
H2435 H 0.26803 0.90892 0.24941 0.0
H2436 H 0.24839 0.9009 0.26101 0.0
H2437 H 0.26613 0.91603 0.27367 0.0
C2438 C 0.2051 0.9021 0.28143 0.0
C2439 C 0.20982 0.9029 0.30174 0.0
C2440 C 0.21666 0.90928 0.26645 0.0
C2441 C 0.23326 0.91751 0.27135 0.0
C2442 C 0.23811 0.91775 0.29152 0.0
H2443 H 0.31453 0.97961 0.19444 0.0
H2444 H 0.29793 0.96435 0.22281 0.0
C2445 C 0.22646 0.91039 0.30662 0.0
C2446 C 0.24507 0.92696 0.25549 0.0
H2447 H 0.27715 0.93087 0.22807 0.0
C2448 C 0.24301 0.9385 0.24579 0.0
C2449 C 0.25763 0.92425 0.24915 0.0
C2450 C 0.26018 0.91178 0.2587 0.0
C2451 C 0.25297 0.94726 0.22985 0.0
C2452 C 0.26525 0.94428 0.22313 0.0
C2453 C 0.26765 0.93305 0.23314 0.0
C2454 C 0.27551 0.95267 0.20558 0.0
C2455 C 0.25034 0.95973 0.2204 0.0
C2456 C 0.26849 0.95092 0.18633 0.0
C2457 C 0.27794 0.95961 0.17007 0.0
C2458 C 0.29463 0.97024 0.17269 0.0
C2459 C 0.30171 0.9716 0.19187 0.0
C2460 C 0.29225 0.96286 0.20812 0.0
H2461 H 0.24335 0.96323 0.23037 0.0
H2462 H 0.2621 0.97031 0.21689 0.0
H2463 H 0.24338 0.95511 0.20609 0.0
H2464 H 0.25563 0.94295 0.18395 0.0
H2465 H 0.27208 0.95819 0.15552 0.0
H2466 H 0.19211 0.44995 0.2876 0.0
H2467 H 0.17729 0.44769 0.2562 0.0
H2468 H 0.17321 0.40285 0.24382 0.0
H2469 H 0.18814 0.40509 0.27497 0.0
H2470 H 0.18174 0.44032 0.21283 0.0
H2471 H 0.12565 0.39545 0.25056 0.0
H2472 H 0.1438 0.40884 0.26449 0.0
H2473 H 0.14277 0.39241 0.25132 0.0
C2474 C 0.18838 0.43979 0.27797 0.0
C2475 C 0.19103 0.42757 0.28392 0.0
C2476 C 0.17992 0.43851 0.26007 0.0
C2477 C 0.17405 0.42503 0.24791 0.0
C2478 C 0.17753 0.41326 0.25317 0.0
H2479 H 0.11702 0.40079 0.13587 0.0
H2480 H 0.13867 0.40643 0.16056 0.0
C2481 C 0.18594 0.41451 0.27103 0.0
C2482 C 0.16292 0.42251 0.23088 0.0
H2483 H 0.12311 0.40091 0.21669 0.0
C2484 C 0.16893 0.43168 0.21355 0.0
C2485 C 0.14623 0.41129 0.23208 0.0
C2486 C 0.13912 0.40148 0.25063 0.0
C2487 C 0.15856 0.42987 0.19728 0.0
C2488 C 0.14189 0.41864 0.19853 0.0
C2489 C 0.13595 0.40945 0.21582 0.0
C2490 C 0.13008 0.41673 0.18264 0.0
C2491 C 0.16533 0.44018 0.1791 0.0
C2492 C 0.11822 0.42072 0.18696 0.0
C2493 C 0.10588 0.41749 0.17303 0.0
C2494 C 0.10509 0.41009 0.15453 0.0
C2495 C 0.11729 0.40649 0.14999 0.0
C2496 C 0.12969 0.40977 0.164 0.0
H2497 H 0.17808 0.44969 0.1816 0.0
H2498 H 0.16497 0.43295 0.16601 0.0
H2499 H 0.15779 0.44551 0.17517 0.0
H2500 H 0.11832 0.42604 0.20133 0.0
H2501 H 0.09675 0.42049 0.17701 0.0
H2502 H 0.10749 0.32024 0.90733 0.0
H2503 H 0.09562 0.32551 0.93694 0.0
H2504 H 0.14361 0.35709 0.96051 0.0
H2505 H 0.15549 0.35194 0.931 0.0
H2506 H 0.0989 0.32257 0.97869 0.0
H2507 H 0.12282 0.38466 0.95749 0.0
H2508 H 0.1226 0.3703 0.94032 0.0
H2509 H 0.13816 0.37921 0.95948 0.0
C2510 C 0.11549 0.32813 0.91896 0.0
C2511 C 0.13242 0.33585 0.91672 0.0
C2512 C 0.1087 0.33117 0.93581 0.0
C2513 C 0.11875 0.34196 0.95066 0.0
C2514 C 0.13564 0.34904 0.94895 0.0
H2515 H 0.10458 0.38224 0.05941 0.0
H2516 H 0.11527 0.37345 0.032 0.0
C2517 C 0.14241 0.34609 0.9321 0.0
C2518 C 0.11165 0.3462 0.96766 0.0
H2519 H 0.11113 0.37728 0.98988 0.0
C2520 C 0.10149 0.3345 0.98111 0.0
C2521 C 0.11501 0.36178 0.97069 0.0
C2522 C 0.12511 0.37469 0.95614 0.0
C2523 C 0.0949 0.33806 0.99783 0.0
C2524 C 0.09848 0.35368 1.00099 0.0
C2525 C 0.10853 0.36534 0.98747 0.0
C2526 C 0.09181 0.35824 0.01814 0.0
C2527 C 0.08446 0.32519 0.01222 0.0
C2528 C 0.0751 0.35263 0.01932 0.0
C2529 C 0.06895 0.35768 0.0349 0.0
C2530 C 0.07943 0.36845 0.04955 0.0
C2531 C 0.09617 0.37393 0.04839 0.0
C2532 C 0.10231 0.36892 0.03276 0.0
H2533 H 0.0858 0.3147 0.0102 0.0
H2534 H 0.08754 0.32937 0.02809 0.0
H2535 H 0.07154 0.3216 0.00948 0.0
H2536 H 0.06684 0.34459 0.00797 0.0
H2537 H 0.056 0.35325 0.03533 0.0
H2538 H 0.69385 0.84863 0.87441 0.0
H2539 H 0.69893 0.83492 0.90211 0.0
H2540 H 0.68243 0.85675 0.94498 0.0
H2541 H 0.67713 0.87009 0.91764 0.0
H2542 H 0.71728 0.84426 0.93958 0.0
H2543 H 0.65121 0.80993 0.95339 0.0
H2544 H 0.65947 0.82127 0.93088 0.0
H2545 H 0.65905 0.83071 0.95398 0.0
C2546 C 0.69172 0.85078 0.8898 0.0
C2547 C 0.68503 0.86041 0.89382 0.0
C2548 C 0.69451 0.84285 0.90562 0.0
C2549 C 0.69066 0.84446 0.92565 0.0
C2550 C 0.6851 0.85496 0.92968 0.0
H2551 H 0.68548 0.80467 0.04402 0.0
H2552 H 0.68583 0.82011 0.01494 0.0
C2553 C 0.6822 0.8627 0.914 0.0
C2554 C 0.69154 0.83472 0.94235 0.0
H2555 H 0.66841 0.80866 0.97864 0.0
C2556 C 0.70658 0.83636 0.948 0.0
C2557 C 0.67758 0.82435 0.9534 0.0
C2558 C 0.66089 0.82131 0.94751 0.0
C2559 C 0.7081 0.82837 0.96476 0.0
C2560 C 0.69418 0.81829 0.97607 0.0
C2561 C 0.67913 0.81647 0.97017 0.0
C2562 C 0.69485 0.80943 0.994 0.0
C2563 C 0.72469 0.83114 0.97059 0.0
C2564 C 0.69972 0.79818 0.99204 0.0
C2565 C 0.69947 0.78929 0.00864 0.0
C2566 C 0.69432 0.79137 0.02769 0.0
C2567 C 0.68958 0.80275 0.02966 0.0
C2568 C 0.68975 0.81159 0.01301 0.0
H2569 H 0.73452 0.84198 0.96374 0.0
H2570 H 0.7264 0.83205 0.98722 0.0
H2571 H 0.72593 0.82112 0.96522 0.0
H2572 H 0.70338 0.79601 0.97753 0.0
H2573 H 0.70315 0.78062 0.00645 0.0
H2574 H 0.20953 0.90373 0.92036 0.0
H2575 H 0.22018 0.9109 0.95457 0.0
H2576 H 0.22386 0.95605 0.94771 0.0
H2577 H 0.21249 0.94874 0.91367 0.0
H2578 H 0.24977 0.93397 0.96424 0.0
H2579 H 0.20512 0.94461 1.0035 0.0
H2580 H 0.20069 0.93436 0.97958 0.0
H2581 H 0.21181 0.95546 0.98056 0.0
C2582 C 0.21214 0.91504 0.92616 0.0
C2583 C 0.21014 0.92566 0.91401 0.0
C2584 C 0.21835 0.91915 0.94581 0.0
C2585 C 0.22266 0.93394 0.95386 0.0
C2586 C 0.2203 0.94443 0.94203 0.0
H2587 H 0.29815 0.99422 0.03179 0.0
H2588 H 0.27864 0.97888 1.0055 0.0
C2589 C 0.21401 0.94031 0.92239 0.0
C2590 C 0.23123 0.93901 0.97369 0.0
H2591 H 0.23198 0.95653 0.01862 0.0
C2592 C 0.24568 0.93862 0.97626 0.0
C2593 C 0.22585 0.94491 0.98953 0.0
C2594 C 0.20992 0.94471 0.98826 0.0
C2595 C 0.25534 0.94477 0.99369 0.0
C2596 C 0.25055 0.9517 0.00886 0.0
C2597 C 0.23567 0.95131 0.00689 0.0
C2598 C 0.26182 0.96097 0.02551 0.0
C2599 C 0.27089 0.94427 0.99546 0.0
C2600 C 0.25866 0.95616 0.04567 0.0
C2601 C 0.26993 0.96497 0.06098 0.0
C2602 C 0.28441 0.97878 0.05628 0.0
C2603 C 0.28722 0.98363 0.03606 0.0
C2604 C 0.27608 0.97485 0.02092 0.0
H2605 H 0.27061 0.93496 0.98566 0.0
H2606 H 0.28118 0.95569 0.9907 0.0
H2607 H 0.27319 0.94221 0.01128 0.0
H2608 H 0.24764 0.94549 0.04948 0.0
H2609 H 0.26736 0.96095 0.07638 0.0
H2610 H 0.68523 0.90322 0.38245 0.0
H2611 H 0.68108 0.91538 0.41246 0.0
H2612 H 0.70161 0.8939 0.44986 0.0
H2613 H 0.7059 0.88181 0.42006 0.0
H2614 H 0.66475 0.9036 0.45064 0.0
H2615 H 0.73156 0.94152 0.45985 0.0
H2616 H 0.72227 0.93052 0.437 0.0
H2617 H 0.72425 0.92081 0.45877 0.0
C2618 C 0.68858 0.90082 0.39709 0.0
C2619 C 0.69605 0.89162 0.39875 0.0
C2620 C 0.68622 0.90782 0.41426 0.0
C2621 C 0.6913 0.9058 0.43341 0.0
C2622 C 0.69785 0.89587 0.43523 0.0
H2623 H 0.67696 0.94505 0.54752 0.0
H2624 H 0.677 0.92635 0.52268 0.0
C2625 C 0.70022 0.88889 0.41813 0.0
C2626 C 0.69081 0.91488 0.45121 0.0
H2627 H 0.71531 0.94411 0.48439 0.0
C2628 C 0.67579 0.91237 0.45813 0.0
C2629 C 0.70523 0.92644 0.4609 0.0
C2630 C 0.72177 0.93013 0.45372 0.0
C2631 C 0.67482 0.92117 0.47437 0.0
C2632 C 0.68925 0.93274 0.48401 0.0
C2633 C 0.70424 0.93511 0.47719 0.0
C2634 C 0.68926 0.94371 0.49962 0.0
C2635 C 0.65843 0.91846 0.48064 0.0
C2636 C 0.69643 0.95968 0.49514 0.0
C2637 C 0.69643 0.97028 0.50918 0.0
C2638 C 0.68937 0.96528 0.52826 0.0
C2639 C 0.68251 0.94931 0.53301 0.0
C2640 C 0.68241 0.9386 0.51876 0.0
H2641 H 0.64866 0.9107 0.46984 0.0
H2642 H 0.65547 0.91289 0.49568 0.0
H2643 H 0.65861 0.92979 0.48191 0.0
H2644 H 0.70186 0.96395 0.48056 0.0
H2645 H 0.70193 0.98248 0.50494 0.0
H2646 H 0.17984 0.85868 0.40529 0.0
H2647 H 0.16901 0.84087 0.43417 0.0
H2648 H 0.13403 0.8558 0.44401 0.0
H2649 H 0.14492 0.87368 0.41596 0.0
H2650 H 0.14678 0.85364 0.47897 0.0
H2651 H 0.12678 0.79929 0.4336 0.0
H2652 H 0.14809 0.81336 0.43266 0.0
H2653 H 0.13362 0.81811 0.42217 0.0
C2654 C 0.16997 0.85826 0.41379 0.0
C2655 C 0.16321 0.86756 0.40818 0.0
C2656 C 0.16367 0.84796 0.43017 0.0
C2657 C 0.15046 0.84675 0.4411 0.0
C2658 C 0.14415 0.85643 0.43585 0.0
H2659 H 0.07624 0.77247 0.51122 0.0
H2660 H 0.09341 0.79104 0.48561 0.0
C2661 C 0.15042 0.86667 0.41968 0.0
C2662 C 0.1428 0.83537 0.45784 0.0
H2663 H 0.12105 0.79622 0.46827 0.0
C2664 C 0.14128 0.84108 0.47667 0.0
C2665 C 0.13539 0.81895 0.4548 0.0
C2666 C 0.13588 0.81199 0.4347 0.0
C2667 C 0.13227 0.83092 0.4923 0.0
C2668 C 0.12491 0.8145 0.48931 0.0
C2669 C 0.12672 0.80878 0.47063 0.0
C2670 C 0.11464 0.80307 0.50499 0.0
C2671 C 0.13013 0.83793 0.51152 0.0
C2672 C 0.12084 0.80348 0.52443 0.0
C2673 C 0.11096 0.793 0.5392 0.0
C2674 C 0.09472 0.78167 0.53479 0.0
C2675 C 0.08865 0.78106 0.51519 0.0
C2676 C 0.09849 0.79165 0.50049 0.0
H2677 H 0.13262 0.8501 0.5093 0.0
H2678 H 0.11762 0.83079 0.51734 0.0
H2679 H 0.13877 0.83831 0.52315 0.0
H2680 H 0.13335 0.81187 0.52819 0.0
H2681 H 0.11612 0.79369 0.55404 0.0
H2682 H 0.22858 0.43495 0.4415 0.0
H2683 H 0.23711 0.42798 0.47294 0.0
H2684 H 0.21153 0.37931 0.45471 0.0
H2685 H 0.2026 0.38609 0.42374 0.0
H2686 H 0.20944 0.38424 0.49667 0.0
H2687 H 0.27274 0.41599 0.46813 0.0
H2688 H 0.2627 0.42725 0.4705 0.0
H2689 H 0.25545 0.41157 0.45228 0.0
C2690 C 0.2245 0.42275 0.44443 0.0
C2691 C 0.21523 0.41111 0.42997 0.0
C2692 C 0.22943 0.41879 0.46232 0.0
C2693 C 0.22515 0.40317 0.46593 0.0
C2694 C 0.21502 0.39144 0.45214 0.0
H2695 H 0.27343 0.36105 0.52152 0.0
H2696 H 0.25731 0.3688 0.50095 0.0
C2697 C 0.2101 0.39537 0.43433 0.0
C2698 C 0.23251 0.39905 0.48281 0.0
H2699 H 0.26829 0.40213 0.49814 0.0
C2700 C 0.22234 0.38831 0.49723 0.0
C2701 C 0.24932 0.40425 0.48325 0.0
C2702 C 0.26073 0.41531 0.46767 0.0
C2703 C 0.22852 0.38232 0.51183 0.0
C2704 C 0.24523 0.38727 0.51192 0.0
C2705 C 0.25546 0.39838 0.49794 0.0
C2706 C 0.2524 0.38039 0.52537 0.0
C2707 C 0.21712 0.37025 0.52647 0.0
C2708 C 0.2545 0.38394 0.54605 0.0
C2709 C 0.26371 0.37949 0.55792 0.0
C2710 C 0.27105 0.37157 0.54918 0.0
C2711 C 0.26806 0.36724 0.5287 0.0
C2712 C 0.25885 0.37165 0.51691 0.0
H2713 H 0.2042 0.36629 0.52289 0.0
H2714 H 0.21885 0.35991 0.52641 0.0
H2715 H 0.2199 0.37533 0.54194 0.0
H2716 H 0.24973 0.39083 0.55277 0.0
H2717 H 0.26582 0.38302 0.57365 0.0
H2718 H 0.20984 0.34069 0.80631 0.0
H2719 H 0.22971 0.34641 0.77972 0.0
H2720 H 0.19573 0.34541 0.73552 0.0
H2721 H 0.17589 0.33991 0.76203 0.0
H2722 H 0.22629 0.32903 0.74196 0.0
H2723 H 0.23767 0.38958 0.7305 0.0
H2724 H 0.22826 0.37852 0.75291 0.0
H2725 H 0.21675 0.37428 0.72985 0.0
C2726 C 0.2066 0.34166 0.79091 0.0
C2727 C 0.19134 0.33995 0.78629 0.0
C2728 C 0.21792 0.34486 0.77577 0.0
C2729 C 0.21423 0.34655 0.75577 0.0
C2730 C 0.19884 0.34433 0.75095 0.0
H2731 H 0.2657 0.37221 0.64358 0.0
H2732 H 0.24688 0.36615 0.67134 0.0
C2733 C 0.18747 0.34103 0.76607 0.0
C2734 C 0.22663 0.35098 0.74 0.0
H2735 H 0.25029 0.38047 0.7079 0.0
C2736 C 0.23162 0.34029 0.73453 0.0
C2737 C 0.23351 0.36569 0.73044 0.0
C2738 C 0.22892 0.37777 0.73626 0.0
C2739 C 0.24305 0.34376 0.7193 0.0
C2740 C 0.24993 0.35849 0.70968 0.0
C2741 C 0.24502 0.36922 0.71532 0.0
C2742 C 0.26182 0.36278 0.69322 0.0
C2743 C 0.24726 0.33145 0.71322 0.0
C2744 C 0.27668 0.36329 0.69644 0.0
C2745 C 0.28747 0.36669 0.68054 0.0
C2746 C 0.28365 0.36979 0.66121 0.0
C2747 C 0.26902 0.36984 0.65826 0.0
C2748 C 0.25823 0.36637 0.67411 0.0
H2749 H 0.23798 0.31959 0.71828 0.0
H2750 H 0.24843 0.33112 0.69661 0.0
H2751 H 0.25904 0.3343 0.72028 0.0
H2752 H 0.27988 0.36095 0.7112 0.0
H2753 H 0.29868 0.36666 0.68335 0.0
H2754 H 0.6864 0.88658 0.77172 0.0
H2755 H 0.69076 0.90054 0.73945 0.0
H2756 H 0.67535 0.93068 0.76667 0.0
H2757 H 0.67081 0.91678 0.79843 0.0
H2758 H 0.66417 0.90413 0.71805 0.0
H2759 H 0.71911 0.96085 0.73716 0.0
H2760 H 0.71401 0.94288 0.75007 0.0
H2761 H 0.70367 0.9534 0.75606 0.0
C2762 C 0.68433 0.89641 0.77087 0.0
C2763 C 0.67835 0.90063 0.78766 0.0
C2764 C 0.68668 0.9043 0.75241 0.0
C2765 C 0.68345 0.91674 0.75062 0.0
C2766 C 0.67808 0.92126 0.76764 0.0
H2767 H 0.67993 0.98215 0.66862 0.0
H2768 H 0.68083 0.96664 0.69664 0.0
C2769 C 0.67549 0.91328 0.78582 0.0
C2770 C 0.68465 0.9246 0.73094 0.0
H2771 H 0.70372 0.96052 0.70852 0.0
C2772 C 0.67299 0.91638 0.71576 0.0
C2773 C 0.69601 0.94064 0.72804 0.0
C2774 C 0.70902 0.94999 0.7436 0.0
C2775 C 0.67192 0.92394 0.69825 0.0
C2776 C 0.68309 0.94013 0.69552 0.0
C2777 C 0.69509 0.94817 0.71047 0.0
C2778 C 0.68208 0.94921 0.67796 0.0
C2779 C 0.65827 0.91466 0.68339 0.0
C2780 C 0.68247 0.94473 0.65786 0.0
C2781 C 0.68176 0.95356 0.64166 0.0
C2782 C 0.68089 0.96724 0.64514 0.0
C2783 C 0.68057 0.97171 0.66526 0.0
C2784 C 0.68114 0.96283 0.68138 0.0
H2785 H 0.64838 0.90384 0.6902 0.0
H2786 H 0.65305 0.92177 0.67762 0.0
H2787 H 0.66302 0.91109 0.67041 0.0
H2788 H 0.68361 0.93455 0.65465 0.0
H2789 H 0.68222 0.94983 0.62642 0.0
H2790 H 0.17298 0.85993 0.78008 0.0
H2791 H 0.16111 0.84336 0.75024 0.0
H2792 H 0.13798 0.86985 0.73376 0.0
H2793 H 0.14962 0.88639 0.764 0.0
H2794 H 0.11718 0.83721 0.73226 0.0
H2795 H 0.17389 0.85419 0.69102 0.0
H2796 H 0.17451 0.8486 0.71658 0.0
H2797 H 0.17291 0.86572 0.71164 0.0
C2798 C 0.16529 0.86221 0.77023 0.0
C2799 C 0.16218 0.87447 0.77452 0.0
C2800 C 0.1587 0.85285 0.75299 0.0
C2801 C 0.1489 0.85554 0.73958 0.0
C2802 C 0.14567 0.86769 0.74381 0.0
H2803 H 0.11076 0.80123 0.62615 0.0
H2804 H 0.12476 0.82341 0.64989 0.0
C2805 C 0.15235 0.87714 0.76105 0.0
C2806 C 0.14138 0.84506 0.72179 0.0
H2807 H 0.15031 0.83023 0.68026 0.0
C2808 C 0.12442 0.83585 0.72073 0.0
C2809 C 0.15082 0.84343 0.7066 0.0
C2810 C 0.16904 0.85362 0.70635 0.0
C2811 C 0.11668 0.82447 0.70549 0.0
C2812 C 0.12616 0.82215 0.69106 0.0
C2813 C 0.14308 0.83192 0.69147 0.0
C2814 C 0.11872 0.80892 0.67638 0.0
C2815 C 0.09839 0.8148 0.70515 0.0
C2816 C 0.11119 0.79349 0.68338 0.0
C2817 C 0.10331 0.78088 0.66995 0.0
C2818 C 0.10278 0.78339 0.64916 0.0
C2819 C 0.11091 0.79888 0.64205 0.0
C2820 C 0.11888 0.81156 0.65558 0.0
H2821 H 0.09284 0.82068 0.71359 0.0
H2822 H 0.09358 0.81251 0.68944 0.0
H2823 H 0.09457 0.80335 0.71235 0.0
H2824 H 0.1112 0.79121 0.69934 0.0
H2825 H 0.0973 0.76913 0.676 0.0
H2826 H 0.35595 0.19064 0.6603 0.0
H2827 H 0.34918 0.17427 0.62953 0.0
H2828 H 0.38592 0.21377 0.59717 0.0
H2829 H 0.39282 0.22994 0.62752 0.0
H2830 H 0.33974 0.17721 0.58925 0.0
H2831 H 0.39985 0.18095 0.59026 0.0
H2832 H 0.39224 0.1866 0.61163 0.0
H2833 H 0.40101 0.1997 0.59078 0.0
C2834 C 0.36241 0.19585 0.64655 0.0
C2835 C 0.37507 0.21155 0.64647 0.0
C2836 C 0.35858 0.18649 0.62899 0.0
C2837 C 0.36733 0.19269 0.61113 0.0
C2838 C 0.37929 0.20858 0.61084 0.0
H2839 H 0.37178 0.15285 0.49385 0.0
H2840 H 0.37463 0.17135 0.52089 0.0
C2841 C 0.38316 0.21784 0.62826 0.0
C2842 C 0.3645 0.18264 0.59289 0.0
H2843 H 0.38357 0.1698 0.56094 0.0
C2844 C 0.34929 0.17553 0.58312 0.0
C2845 C 0.377 0.1805 0.58474 0.0
C2846 C 0.3934 0.18721 0.59497 0.0
C2847 C 0.34632 0.16655 0.56533 0.0
C2848 C 0.35882 0.1644 0.55722 0.0
C2849 C 0.37404 0.17158 0.56696 0.0
C2850 C 0.35603 0.15372 0.5397 0.0
C2851 C 0.32987 0.1596 0.55523 0.0
C2852 C 0.3446 0.13772 0.54114 0.0
C2853 C 0.34301 0.12723 0.52585 0.0
C2854 C 0.35285 0.13239 0.50863 0.0
C2855 C 0.36394 0.14851 0.50679 0.0
C2856 C 0.36561 0.15906 0.52229 0.0
H2857 H 0.32359 0.16614 0.55936 0.0
H2858 H 0.33087 0.15955 0.53857 0.0
H2859 H 0.32221 0.14731 0.56021 0.0
H2860 H 0.33728 0.1332 0.5545 0.0
H2861 H 0.33433 0.11491 0.52782 0.0
H2862 H 0.89764 0.24601 0.6274 0.0
H2863 H 0.91242 0.26378 0.60002 0.0
H2864 H 0.91879 0.22777 0.57174 0.0
H2865 H 0.90391 0.20982 0.59916 0.0
H2866 H 0.94689 0.25695 0.57186 0.0
H2867 H 0.89466 0.26167 0.5432 0.0
H2868 H 0.89881 0.2664 0.56953 0.0
H2869 H 0.89236 0.2468 0.5608 0.0
C2870 C 0.90203 0.24177 0.6153 0.0
C2871 C 0.89938 0.22637 0.61541 0.0
C2872 C 0.91049 0.25198 0.59961 0.0
C2873 C 0.91642 0.24702 0.58357 0.0
C2874 C 0.91423 0.23182 0.58389 0.0
H2875 H 0.94973 0.29885 0.47067 0.0
H2876 H 0.93534 0.27856 0.49589 0.0
C2877 C 0.90578 0.22159 0.59963 0.0
C2878 C 0.92498 0.25778 0.5666 0.0
H2879 H 0.92065 0.2801 0.53049 0.0
C2880 C 0.94112 0.26193 0.56272 0.0
C2881 C 0.91739 0.2641 0.55444 0.0
C2882 C 0.8998 0.25941 0.55703 0.0
C2883 C 0.95002 0.2726 0.54747 0.0
C2884 C 0.94266 0.27949 0.53596 0.0
C2885 C 0.92636 0.27496 0.53943 0.0
C2886 C 0.95171 0.29164 0.52051 0.0
C2887 C 0.96717 0.27627 0.54371 0.0
C2888 C 0.96561 0.30583 0.52595 0.0
C2889 C 0.97387 0.31743 0.51158 0.0
C2890 C 0.96834 0.31518 0.49143 0.0
C2891 C 0.95436 0.30098 0.48602 0.0
C2892 C 0.94611 0.28936 0.50043 0.0
H2893 H 0.9693 0.26684 0.54937 0.0
H2894 H 0.97 0.27789 0.5274 0.0
H2895 H 0.97573 0.28729 0.55178 0.0
H2896 H 0.96996 0.30804 0.54142 0.0
H2897 H 0.98452 0.32824 0.51635 0.0
H2898 H 0.87204 0.77033 0.60048 0.0
H2899 H 0.85719 0.76611 0.56855 0.0
H2900 H 0.81426 0.72854 0.59525 0.0
H2901 H 0.82894 0.7327 0.62711 0.0
H2902 H 0.82171 0.72089 0.55739 0.0
H2903 H 0.82185 0.77745 0.55627 0.0
H2904 H 0.84131 0.7788 0.5591 0.0
H2905 H 0.82663 0.77022 0.57873 0.0
C2906 C 0.85938 0.76132 0.59961 0.0
C2907 C 0.85166 0.75184 0.61632 0.0
C2908 C 0.85094 0.7589 0.58135 0.0
C2909 C 0.83462 0.74707 0.5796 0.0
C2910 C 0.82688 0.73768 0.59628 0.0
H2911 H 0.75564 0.72876 0.50313 0.0
H2912 H 0.77637 0.73561 0.52912 0.0
C2913 C 0.83529 0.74006 0.61446 0.0
C2914 C 0.82545 0.74424 0.56043 0.0
H2915 H 0.80893 0.76002 0.52907 0.0
C2916 C 0.81903 0.72949 0.55103 0.0
C2917 C 0.82197 0.75549 0.5523 0.0
C2918 C 0.82817 0.77135 0.56214 0.0
C2919 C 0.80879 0.72548 0.53404 0.0
C2920 C 0.80508 0.73663 0.52612 0.0
C2921 C 0.81191 0.75156 0.53515 0.0
C2922 C 0.79281 0.73253 0.50988 0.0
C2923 C 0.8014 0.70913 0.52527 0.0
C2924 C 0.79522 0.72854 0.49037 0.0
C2925 C 0.78329 0.72453 0.47537 0.0
C2926 C 0.76883 0.72451 0.47967 0.0
C2927 C 0.76659 0.72861 0.49924 0.0
C2928 C 0.77846 0.73259 0.51414 0.0
H2929 H 0.80332 0.70116 0.53524 0.0
H2930 H 0.78817 0.70408 0.52264 0.0
H2931 H 0.80705 0.70962 0.51054 0.0
H2932 H 0.80633 0.72863 0.48673 0.0
H2933 H 0.78543 0.72152 0.46043 0.0
H2934 H 0.80291 0.70412 0.21071 0.0
H2935 H 0.79295 0.70581 0.24389 0.0
H2936 H 0.78247 0.6588 0.25677 0.0
H2937 H 0.79231 0.657 0.22337 0.0
H2938 H 0.75812 0.66378 0.26862 0.0
H2939 H 0.8169 0.71218 0.29689 0.0
H2940 H 0.81071 0.71707 0.27373 0.0
H2941 H 0.81515 0.70132 0.27412 0.0
C2942 C 0.79856 0.69417 0.22064 0.0
C2943 C 0.79856 0.68049 0.2145 0.0
C2944 C 0.79293 0.69517 0.23964 0.0
C2945 C 0.78736 0.68259 0.25303 0.0
C2946 C 0.78685 0.66871 0.24674 0.0
H2947 H 0.77105 0.69704 0.37953 0.0
H2948 H 0.78109 0.69053 0.34917 0.0
C2949 C 0.7924 0.66766 0.22763 0.0
C2950 C 0.78185 0.68393 0.27343 0.0
H2951 H 0.79337 0.7073 0.31553 0.0
C2952 C 0.76588 0.67319 0.27898 0.0
C2953 C 0.79208 0.69599 0.28715 0.0
C2954 C 0.80972 0.70719 0.28278 0.0
C2955 C 0.75963 0.67464 0.29746 0.0
C2956 C 0.76951 0.68737 0.31054 0.0
C2957 C 0.78571 0.69766 0.3054 0.0
C2958 C 0.7631 0.69067 0.32912 0.0
C2959 C 0.7425 0.66248 0.30278 0.0
C2960 C 0.7498 0.69312 0.32791 0.0
C2961 C 0.74401 0.69674 0.34518 0.0
C2962 C 0.75153 0.69823 0.36405 0.0
C2963 C 0.76497 0.69595 0.36524 0.0
C2964 C 0.77071 0.69222 0.34791 0.0
H2965 H 0.7387 0.65114 0.29496 0.0
H2966 H 0.74122 0.66044 0.31927 0.0
H2967 H 0.7341 0.6666 0.29787 0.0
H2968 H 0.74403 0.69246 0.31351 0.0
H2969 H 0.73373 0.69856 0.34367 0.0
H2970 H 0.38186 0.21442 0.26014 0.0
H2971 H 0.38221 0.20193 0.2918 0.0
H2972 H 0.33253 0.16587 0.28123 0.0
H2973 H 0.33227 0.178 0.24925 0.0
H2974 H 0.36613 0.19521 0.32618 0.0
H2975 H 0.35255 0.13914 0.29009 0.0
H2976 H 0.35735 0.15635 0.27564 0.0
H2977 H 0.33709 0.14399 0.28479 0.0
C2978 C 0.37094 0.20389 0.26459 0.0
C2979 C 0.35706 0.19719 0.25194 0.0
C2980 C 0.37118 0.19671 0.28275 0.0
C2981 C 0.35756 0.18265 0.28882 0.0
C2982 C 0.34342 0.17639 0.2767 0.0
H2983 H 0.32871 0.12433 0.39414 0.0
H2984 H 0.33129 0.1387 0.36326 0.0
C2985 C 0.34322 0.18346 0.25844 0.0
C2986 C 0.35816 0.17455 0.30768 0.0
H2987 H 0.35072 0.1391 0.32598 0.0
C2988 C 0.36291 0.18298 0.32604 0.0
C2989 C 0.35415 0.15859 0.30768 0.0
C2990 C 0.35017 0.14904 0.28846 0.0
C2991 C 0.3632 0.17581 0.3443 0.0
C2992 C 0.35864 0.15976 0.34433 0.0
C2993 C 0.35417 0.15139 0.326 0.0
C2994 C 0.35749 0.15122 0.36338 0.0
C2995 C 0.36793 0.18527 0.36361 0.0
C2996 C 0.37141 0.15334 0.37379 0.0
C2997 C 0.37 0.14495 0.39155 0.0
C2998 C 0.35462 0.13439 0.39932 0.0
C2999 C 0.34077 0.13238 0.38877 0.0
C3000 C 0.3422 0.14059 0.37102 0.0
H3001 H 0.36984 0.19725 0.36139 0.0
H3002 H 0.35838 0.1792 0.37507 0.0
H3003 H 0.37932 0.1863 0.3697 0.0
H3004 H 0.38337 0.1614 0.36812 0.0
H3005 H 0.38092 0.1468 0.39922 0.0
H3006 H 0.87528 0.25854 0.24584 0.0
H3007 H 0.88956 0.26692 0.27822 0.0
H3008 H 0.89624 0.31315 0.26985 0.0
H3009 H 0.88206 0.30489 0.23727 0.0
H3010 H 0.92124 0.29046 0.28418 0.0
H3011 H 0.87938 0.3029 0.32764 0.0
H3012 H 0.87333 0.29151 0.30453 0.0
H3013 H 0.88487 0.31256 0.30374 0.0
C3014 C 0.8798 0.27051 0.25081 0.0
C3015 C 0.8776 0.28108 0.23883 0.0
C3016 C 0.88785 0.27524 0.26942 0.0
C3017 C 0.89379 0.29059 0.27658 0.0
C3018 C 0.89144 0.30113 0.26484 0.0
H3019 H 0.97217 0.34853 0.35492 0.0
H3020 H 0.95265 0.33468 0.32786 0.0
C3021 C 0.88337 0.29641 0.24618 0.0
C3022 C 0.90346 0.29588 0.29558 0.0
H3023 H 0.90616 0.31295 0.3415 0.0
C3024 C 0.91783 0.29519 0.2968 0.0
C3025 C 0.89891 0.30188 0.31215 0.0
C3026 C 0.8832 0.30213 0.3121 0.0
C3027 C 0.92811 0.30098 0.31377 0.0
C3028 C 0.924 0.30774 0.32986 0.0
C3029 C 0.9093 0.30782 0.32907 0.0
C3030 C 0.93552 0.31597 0.34672 0.0
C3031 C 0.94349 0.3001 0.31424 0.0
C3032 C 0.93222 0.31014 0.36643 0.0
C3033 C 0.94346 0.31804 0.38209 0.0
C3034 C 0.95804 0.33199 0.37825 0.0
C3035 C 0.9611 0.33782 0.35848 0.0
C3036 C 0.94997 0.3299 0.34293 0.0
H3037 H 0.94292 0.29123 0.30333 0.0
H3038 H 0.95388 0.31168 0.31017 0.0
H3039 H 0.94586 0.29716 0.32957 0.0
H3040 H 0.92105 0.29941 0.36962 0.0
H3041 H 0.94071 0.31328 0.39715 0.0
H3042 H 0.40035 0.25043 0.77822 0.0
H3043 H 0.39251 0.25762 0.80945 0.0
H3044 H 0.34419 0.24045 0.78555 0.0
H3045 H 0.35215 0.23335 0.75368 0.0
H3046 H 0.35666 0.26961 0.80113 0.0
H3047 H 0.36638 0.23404 0.85733 0.0
H3048 H 0.38401 0.24444 0.84206 0.0
H3049 H 0.36513 0.22987 0.83062 0.0
C3050 C 0.38793 0.24789 0.77962 0.0
C3051 C 0.37688 0.24131 0.76335 0.0
C3052 C 0.38341 0.25189 0.79768 0.0
C3053 C 0.36766 0.24936 0.80016 0.0
C3054 C 0.35638 0.24238 0.78414 0.0
H3055 H 0.34706 0.28466 0.91406 0.0
H3056 H 0.34513 0.26584 0.88791 0.0
C3057 C 0.36091 0.23827 0.76594 0.0
C3058 C 0.36382 0.25565 0.81859 0.0
H3059 H 0.36883 0.25846 0.86995 0.0
C3060 C 0.35897 0.26688 0.81618 0.0
C3061 C 0.3666 0.25204 0.83839 0.0
C3062 C 0.37064 0.2393 0.84226 0.0
C3063 C 0.35797 0.27531 0.83275 0.0
C3064 C 0.36217 0.27268 0.85231 0.0
C3065 C 0.36587 0.26069 0.85496 0.0
C3066 C 0.36426 0.28334 0.86957 0.0
C3067 C 0.35289 0.28735 0.82907 0.0
C3068 C 0.37613 0.29923 0.86848 0.0
C3069 C 0.37728 0.30986 0.88328 0.0
C3070 C 0.36666 0.30493 0.89974 0.0
C3071 C 0.35547 0.28882 0.90165 0.0
C3072 C 0.35428 0.27809 0.88664 0.0
H3073 H 0.34553 0.28473 0.815 0.0
H3074 H 0.34575 0.28794 0.84186 0.0
H3075 H 0.36388 0.29906 0.82745 0.0
H3076 H 0.38422 0.30352 0.85575 0.0
H3077 H 0.38616 0.32215 0.88141 0.0
H3078 H 0.84971 0.16423 0.75595 0.0
H3079 H 0.83261 0.15311 0.78559 0.0
H3080 H 0.80486 0.17499 0.76843 0.0
H3081 H 0.82176 0.186 0.73882 0.0
H3082 H 0.82764 0.16739 0.81736 0.0
H3083 H 0.76915 0.13046 0.77737 0.0
H3084 H 0.78837 0.1393 0.76465 0.0
H3085 H 0.77875 0.15063 0.77011 0.0
C3086 C 0.83997 0.16667 0.75849 0.0
C3087 C 0.83703 0.17589 0.74486 0.0
C3088 C 0.83016 0.16026 0.77541 0.0
C3089 C 0.81721 0.16293 0.77906 0.0
C3090 C 0.81443 0.17234 0.76565 0.0
H3091 H 0.77089 0.15337 0.89476 0.0
H3092 H 0.78612 0.16285 0.86356 0.0
C3093 C 0.82415 0.17867 0.7487 0.0
C3094 C 0.80697 0.15637 0.79725 0.0
H3095 H 0.76772 0.13424 0.81271 0.0
C3096 C 0.81455 0.16008 0.81632 0.0
C3097 C 0.78989 0.14662 0.79593 0.0
C3098 C 0.78106 0.14137 0.77591 0.0
C3099 C 0.80553 0.15462 0.83408 0.0
C3100 C 0.78839 0.14547 0.8328 0.0
C3101 C 0.78083 0.14145 0.81372 0.0
C3102 C 0.77815 0.13974 0.8511 0.0
C3103 C 0.8145 0.1585 0.85405 0.0
C3104 C 0.76795 0.1236 0.85411 0.0
C3105 C 0.75904 0.11813 0.87186 0.0
C3106 C 0.76014 0.12871 0.88699 0.0
C3107 C 0.76984 0.14488 0.88354 0.0
C3108 C 0.77868 0.15033 0.86575 0.0
H3109 H 0.82737 0.16167 0.85218 0.0
H3110 H 0.81437 0.16868 0.86105 0.0
H3111 H 0.80866 0.14847 0.86454 0.0
H3112 H 0.76723 0.1152 0.84295 0.0
H3113 H 0.75168 0.1056 0.87397 0.0
H3114 H 0.91526 0.76598 0.75869 0.0
H3115 H 0.92662 0.75822 0.78668 0.0
H3116 H 0.88197 0.71392 0.79004 0.0
H3117 H 0.8709 0.72146 0.7615 0.0
H3118 H 0.91921 0.74931 0.82517 0.0
H3119 H 0.9139 0.69956 0.77943 0.0
H3120 H 0.91013 0.71429 0.76897 0.0
H3121 H 0.89485 0.69862 0.78366 0.0
C3122 C 0.90781 0.75472 0.76567 0.0
C3123 C 0.89232 0.74421 0.75786 0.0
C3124 C 0.91429 0.75027 0.78161 0.0
C3125 C 0.9053 0.73532 0.7901 0.0
C3126 C 0.88932 0.72531 0.78331 0.0
H3127 H 0.94642 0.71006 0.89367 0.0
H3128 H 0.92831 0.7156 0.87323 0.0
C3129 C 0.88298 0.72964 0.76713 0.0
C3130 C 0.91307 0.72989 0.80502 0.0
H3131 H 0.92398 0.70213 0.81255 0.0
C3132 C 0.9202 0.73896 0.82249 0.0
C3133 C 0.91452 0.71646 0.80135 0.0
C3134 C 0.90809 0.70675 0.78226 0.0
C3135 C 0.92903 0.73517 0.83619 0.0
C3136 C 0.93036 0.72168 0.83256 0.0
C3137 C 0.92285 0.7124 0.81537 0.0
C3138 C 0.94074 0.71774 0.84521 0.0
C3139 C 0.93746 0.74604 0.85386 0.0
C3140 C 0.95332 0.7165 0.83615 0.0
C3141 C 0.96342 0.71303 0.84765 0.0
C3142 C 0.96124 0.71081 0.86855 0.0
C3143 C 0.94847 0.7118 0.87762 0.0
C3144 C 0.9382 0.7151 0.86599 0.0
H3145 H 0.93844 0.75767 0.85178 0.0
H3146 H 0.93041 0.7408 0.86771 0.0
H3147 H 0.94985 0.74783 0.85621 0.0
H3148 H 0.95551 0.71846 0.82014 0.0
H3149 H 0.97315 0.71241 0.84017 0.0
H3150 H 0.84785 0.68464 0.06146 0.0
H3151 H 0.86849 0.68916 0.03656 0.0
H3152 H 0.90406 0.70145 0.08417 0.0
H3153 H 0.88347 0.69679 0.1092 0.0
H3154 H 0.91456 0.72308 0.05268 0.0
H3155 H 0.88919 0.66222 0.02366 0.0
H3156 H 0.87506 0.66928 0.02341 0.0
H3157 H 0.88276 0.66673 0.04705 0.0
C3158 C 0.85997 0.68804 0.0667 0.0
C3159 C 0.86395 0.69035 0.08739 0.0
C3160 C 0.87178 0.69064 0.05242 0.0
C3161 C 0.88778 0.6955 0.05852 0.0
C3162 C 0.89178 0.69771 0.07913 0.0
H3163 H 0.96319 0.69865 0.98176 0.0
H3164 H 0.94431 0.69394 0.00919 0.0
C3165 C 0.88 0.6951 0.09342 0.0
C3166 C 0.90049 0.69887 0.0434 0.0
H3167 H 0.91089 0.68231 1.00523 0.0
C3168 C 0.91381 0.71416 0.04235 0.0
C3169 C 0.89958 0.68717 0.03011 0.0
C3170 C 0.88597 0.67039 0.03117 0.0
C3171 C 0.92606 0.71814 0.02808 0.0
C3172 C 0.92485 0.70657 0.01434 0.0
C3173 C 0.91172 0.6912 0.01568 0.0
C3174 C 0.93699 0.71017 0.99833 0.0
C3175 C 0.94027 0.73466 0.02797 0.0
C3176 C 0.93919 0.7209 0.98314 0.0
C3177 C 0.94999 0.72364 0.96744 0.0
C3178 C 0.95875 0.71564 0.96656 0.0
C3179 C 0.95669 0.70506 0.98198 0.0
C3180 C 0.94586 0.70231 0.99765 0.0
H3181 H 0.94157 0.74085 0.04252 0.0
H3182 H 0.95176 0.73473 0.02492 0.0
H3183 H 0.93836 0.74134 0.01588 0.0
H3184 H 0.93226 0.72689 0.98316 0.0
H3185 H 0.9512 0.7318 0.95577 0.0
H3186 H 0.37929 0.23247 0.12153 0.0
H3187 H 0.3732 0.24489 0.09392 0.0
H3188 H 0.34467 0.25602 0.13361 0.0
H3189 H 0.35103 0.24364 0.16181 0.0
H3190 H 0.34496 0.23915 0.07575 0.0
H3191 H 0.37601 0.29892 0.11016 0.0
H3192 H 0.37834 0.28316 0.12021 0.0
H3193 H 0.36005 0.28372 0.12461 0.0
C3194 C 0.37161 0.23744 0.1245 0.0
C3195 C 0.36573 0.23708 0.14403 0.0
C3196 C 0.36811 0.24457 0.10858 0.0
C3197 C 0.3587 0.2517 0.11158 0.0
C3198 C 0.35224 0.2509 0.1309 0.0
H3199 H 0.34383 0.30765 0.01725 0.0
H3200 H 0.34088 0.29331 0.0487 0.0
C3201 C 0.35571 0.24364 0.14699 0.0
C3202 C 0.35609 0.26002 0.09428 0.0
H3203 H 0.36582 0.29645 0.07712 0.0
C3204 C 0.34936 0.25165 0.07619 0.0
C3205 C 0.36179 0.27637 0.09467 0.0
C3206 C 0.36957 0.28616 0.11336 0.0
C3207 C 0.34861 0.25915 0.05851 0.0
C3208 C 0.35494 0.27558 0.05865 0.0
C3209 C 0.361 0.28388 0.07693 0.0
C3210 C 0.35656 0.2844 0.03963 0.0
C3211 C 0.34121 0.2494 0.03968 0.0
C3212 C 0.3665 0.28439 0.02411 0.0
C3213 C 0.36826 0.29261 1.00625 0.0
C3214 C 0.36013 0.30111 1.00329 0.0
C3215 C 0.35021 0.30119 0.0189 0.0
C3216 C 0.34854 0.29301 0.03693 0.0
H3217 H 0.33282 0.23689 0.04329 0.0
H3218 H 0.33446 0.25386 0.03078 0.0
H3219 H 0.35101 0.24998 0.03015 0.0
H3220 H 0.37305 0.2781 0.02587 0.0
H3221 H 0.37606 0.29226 0.9947 0.0
H3222 H 0.83587 0.24667 0.08022 0.0
H3223 H 0.82552 0.22901 0.05075 0.0
H3224 H 0.79907 0.18966 0.08994 0.0
H3225 H 0.8094 0.2072 0.11939 0.0
H3226 H 0.82965 0.19989 0.04653 0.0
H3227 H 0.76614 0.18826 0.04398 0.0
H3228 H 0.78265 0.20587 0.05515 0.0
H3229 H 0.77415 0.18769 0.06845 0.0
C3230 C 0.82764 0.23429 0.0825 0.0
C3231 C 0.82342 0.22829 0.1021 0.0
C3232 C 0.82183 0.22424 0.06569 0.0
C3233 C 0.81151 0.20808 0.06823 0.0
C3234 C 0.80696 0.20212 0.08771 0.0
H3235 H 0.77943 0.12182 0.00817 0.0
H3236 H 0.79409 0.14616 0.02768 0.0
C3237 C 0.8129 0.21212 0.10449 0.0
C3238 C 0.80599 0.19722 0.0507 0.0
H3239 H 0.77191 0.17139 0.02443 0.0
C3240 C 0.81709 0.19381 0.04144 0.0
C3241 C 0.78964 0.18942 0.04409 0.0
C3242 C 0.77741 0.19302 0.05328 0.0
C3243 C 0.81204 0.1822 0.02633 0.0
C3244 C 0.7955 0.17384 0.02043 0.0
C3245 C 0.78459 0.17782 0.029 0.0
C3246 C 0.78892 0.15996 0.00685 0.0
C3247 C 0.82432 0.17871 0.01709 0.0
C3248 C 0.7814 0.15972 0.98846 0.0
C3249 C 0.77309 0.14582 0.97714 0.0
C3250 C 0.77192 0.13186 0.98428 0.0
C3251 C 0.78011 0.13236 1.00225 0.0
C3252 C 0.78855 0.14628 0.0134 0.0
H3253 H 0.8369 0.18864 0.01925 0.0
H3254 H 0.82351 0.16824 0.0244 0.0
H3255 H 0.82187 0.17612 1.00071 0.0
H3256 H 0.78147 0.17016 0.98323 0.0
H3257 H 0.76681 0.1458 0.96345 0.0
loop_
_geom_bond_atom_site_label_1
_geom_bond_atom_site_label_2
_geom_bond_distance
_geom_bond_site_symmetry_2
_ccdc_geom_bond_type
Cu0 N1 1.999 . S
Cu0 O6 1.974 1_554 S
Cu0 N11 1.985 1_554 S
Cu0 O20 1.959 . S
N1 Cu0 1.999 . S
N1 C3 1.263 . S
N1 C5 1.389 . S
N2 C3 1.358 . S
N2 C4 1.400 . S
C3 N1 1.263 . S
C3 N2 1.358 . S
C3 H9 0.930 . S
C4 N2 1.400 . S
C4 C5 1.351 . S
C4 H21 0.930 . S
C5 N1 1.389 . S
C5 C4 1.351 . S
C5 H10 0.930 . S
O6 Cu0 1.974 1_556 S
O6 C16 1.282 . S
C7 O8 1.261 . S
C7 O20 1.251 . S
O8 C7 1.261 . S
H9 C3 0.930 . S
H10 C5 0.930 . S
N11 Cu0 1.985 1_556 S
N11 C13 1.335 . S
N11 C14 1.390 . S
N12 C13 1.345 . S
N12 C15 1.336 . S
C13 N11 1.335 . S
C13 N12 1.345 . S
C13 H18 0.930 . S
C14 N11 1.390 . S
C14 C15 1.346 . S
C14 H19 0.930 . S
C15 N12 1.336 . S
C15 C14 1.346 . S
C15 H22 0.929 . S
C16 O6 1.282 . S
C16 O17 1.216 . S
O17 C16 1.216 . S
H18 C13 0.930 . S
H19 C14 0.930 . S
O20 Cu0 1.959 . S
O20 C7 1.251 . S
H21 C4 0.930 . S
H22 C15 0.929 . S
Cu23 N24 1.999 1_554 S
Cu23 O29 1.974 . S
Cu23 N34 1.985 . S
Cu23 O43 1.959 1_554 S
N24 Cu23 1.999 1_556 S
N24 C26 1.263 . S
N24 C28 1.389 . S
N25 C26 1.358 . S
N25 C27 1.400 . S
C26 N24 1.263 . S
C26 N25 1.358 . S
C26 H32 0.930 . S
C27 N25 1.400 . S
C27 C28 1.351 . S
C27 H44 0.930 . S
C28 N24 1.389 . S
C28 C27 1.351 . S
C28 H33 0.930 . S
O29 Cu23 1.974 . S
O29 C39 1.282 . S
C30 O31 1.264 . S
C30 O43 1.251 . S
O31 C30 1.264 . S
H32 C26 0.930 . S
H33 C28 0.930 . S
N34 Cu23 1.985 . S
N34 C36 1.335 . S
N34 C37 1.390 . S
N35 C36 1.345 . S
N35 C38 1.336 . S
C36 N34 1.335 . S
C36 N35 1.345 . S
C36 H41 0.930 . S
C37 N34 1.390 . S
C37 C38 1.346 . S
C37 H42 0.930 . S
C38 N35 1.336 . S
C38 C37 1.346 . S
C38 H45 0.929 . S
C39 O29 1.282 . S
C39 O40 1.216 . S
O40 C39 1.216 . S
H41 C36 0.930 . S
H42 C37 0.930 . S
O43 Cu23 1.959 1_556 S
O43 C30 1.251 . S
H44 C27 0.930 . S
H45 C38 0.929 . S
Cu46 N47 1.999 1_554 S
Cu46 O52 1.974 . S
Cu46 N57 1.985 . S
Cu46 O66 1.959 . S
N47 Cu46 1.999 1_556 S
N47 C49 1.263 . S
N47 C51 1.389 . S
N48 C49 1.358 . S
N48 C50 1.400 . S
C49 N47 1.263 . S
C49 N48 1.358 . S
C49 H55 0.930 . S
C50 N48 1.400 . S
C50 C51 1.351 . S
C50 H67 0.930 . S
C51 N47 1.389 . S
C51 C50 1.351 . S
C51 H56 0.930 . S
O52 Cu46 1.974 . S
O52 C62 1.282 . S
C53 O54 1.261 . S
C53 O66 1.251 . S
O54 C53 1.261 . S
H55 C49 0.930 . S
H56 C51 0.930 . S
N57 Cu46 1.985 . S
N57 C59 1.335 . S
N57 C60 1.390 . S
N58 C59 1.345 . S
N58 C61 1.336 . S
C59 N57 1.335 . S
C59 N58 1.345 . S
C59 H64 0.930 . S
C60 N57 1.390 . S
C60 C61 1.346 . S
C60 H65 0.930 . S
C61 N58 1.336 . S
C61 C60 1.346 . S
C61 H68 0.929 . S
C62 O52 1.282 . S
C62 O63 1.216 . S
O63 C62 1.216 . S
H64 C59 0.930 . S
H65 C60 0.930 . S
O66 Cu46 1.959 . S
O66 C53 1.251 . S
H67 C50 0.930 . S
H68 C61 0.929 . S
Cu69 N70 1.999 . S
Cu69 O75 1.974 . S
Cu69 N80 1.985 . S
Cu69 O89 1.959 . S
N70 Cu69 1.999 . S
N70 C72 1.263 . S
N70 C74 1.389 . S
N71 C72 1.358 . S
N71 C73 1.400 . S
C72 N70 1.263 . S
C72 N71 1.358 . S
C72 H78 0.930 . S
C73 N71 1.400 . S
C73 C74 1.351 . S
C73 H90 0.930 . S
C74 N70 1.389 . S
C74 C73 1.351 . S
C74 H79 0.930 . S
O75 Cu69 1.974 . S
O75 C85 1.282 . S
C76 O77 1.261 . S
C76 O89 1.251 . S
O77 C76 1.261 . S
H78 C72 0.930 . S
H79 C74 0.930 . S
N80 Cu69 1.985 . S
N80 C82 1.335 . S
N80 C83 1.390 . S
N81 C82 1.345 . S
N81 C84 1.336 . S
C82 N80 1.335 . S
C82 N81 1.345 . S
C82 H87 0.930 . S
C83 N80 1.390 . S
C83 C84 1.346 . S
C83 H88 0.930 . S
C84 N81 1.336 . S
C84 C83 1.346 . S
C84 H91 0.929 . S
C85 O75 1.282 . S
C85 O86 1.216 1_545 S
O86 C85 1.216 1_565 S
H87 C82 0.930 . S
H88 C83 0.930 . S
O89 Cu69 1.959 . S
O89 C76 1.251 . S
H90 C73 0.930 . S
H91 C84 0.929 . S
Cu92 N93 1.999 . S
Cu92 O98 1.974 . S
Cu92 N103 1.985 . S
Cu92 O112 1.959 . S
N93 Cu92 1.999 . S
N93 C95 1.263 . S
N93 C97 1.389 . S
N94 C95 1.358 . S
N94 C96 1.400 . S
C95 N93 1.263 . S
C95 N94 1.358 . S
C95 H101 0.930 . S
C96 N94 1.400 . S
C96 C97 1.351 . S
C96 H113 0.930 . S
C97 N93 1.389 . S
C97 C96 1.351 . S
C97 H102 0.930 . S
O98 Cu92 1.974 . S
O98 C108 1.282 . S
C99 O100 1.261 . S
C99 O112 1.251 . S
O100 C99 1.261 . S
H101 C95 0.930 . S
H102 C97 0.930 . S
N103 Cu92 1.985 . S
N103 C105 1.335 . S
N103 C106 1.390 . S
N104 C105 1.345 . S
N104 C107 1.336 . S
C105 N103 1.335 . S
C105 N104 1.345 . S
C105 H110 0.930 . S
C106 N103 1.390 . S
C106 C107 1.346 . S
C106 H111 0.930 . S
C107 N104 1.336 . S
C107 C106 1.346 . S
C107 H114 0.929 . S
C108 O98 1.282 . S
C108 O109 1.216 . S
O109 C108 1.216 . S
H110 C105 0.930 . S
H111 C106 0.930 . S
O112 Cu92 1.959 . S
O112 C99 1.251 . S
H113 C96 0.930 . S
H114 C107 0.929 . S
Cu115 N116 1.999 . S
Cu115 O121 1.974 . S
Cu115 N126 1.985 . S
Cu115 O135 1.959 . S
N116 Cu115 1.999 . S
N116 C118 1.263 . S
N116 C120 1.389 . S
N117 C118 1.358 . S
N117 C119 1.400 . S
C118 N116 1.263 . S
C118 N117 1.358 . S
C118 H124 0.930 . S
C119 N117 1.400 . S
C119 C120 1.351 . S
C119 H136 0.930 . S
C120 N116 1.389 . S
C120 C119 1.351 . S
C120 H125 0.930 . S
O121 Cu115 1.974 . S
O121 C131 1.282 . S
C122 O123 1.261 . S
C122 O135 1.251 . S
O123 C122 1.261 . S
H124 C118 0.930 . S
H125 C120 0.930 . S
N126 Cu115 1.985 . S
N126 C128 1.335 . S
N126 C129 1.390 . S
N127 C128 1.345 . S
N127 C130 1.336 . S
C128 N126 1.335 . S
C128 N127 1.345 . S
C128 H133 0.930 . S
C129 N126 1.390 . S
C129 C130 1.346 . S
C129 H134 0.930 . S
C130 N127 1.336 . S
C130 C129 1.346 . S
C130 H137 0.929 . S
C131 O121 1.282 . S
C131 O132 1.216 . S
O132 C131 1.216 . S
H133 C128 0.930 . S
H134 C129 0.930 . S
O135 Cu115 1.959 . S
O135 C122 1.251 . S
H136 C119 0.930 . S
H137 C130 0.929 . S
Cu138 N139 1.999 . S
Cu138 O144 1.974 . S
Cu138 N149 1.985 . S
Cu138 O158 1.959 . S
N139 Cu138 1.999 . S
N139 C141 1.263 . S
N139 C143 1.389 . S
N140 C141 1.358 . S
N140 C142 1.400 . S
C141 N139 1.263 . S
C141 N140 1.358 . S
C141 H147 0.930 . S
C142 N140 1.400 . S
C142 C143 1.351 . S
C142 H159 0.930 . S
C143 N139 1.389 . S
C143 C142 1.351 . S
C143 H148 0.930 . S
O144 Cu138 1.974 . S
O144 C154 1.282 . S
C145 O146 1.261 . S
C145 O158 1.251 . S
O146 C145 1.261 . S
H147 C141 0.930 . S
H148 C143 0.930 . S
N149 Cu138 1.985 . S
N149 C151 1.335 . S
N149 C152 1.390 . S
N150 C151 1.345 . S
N150 C153 1.336 . S
C151 N149 1.335 . S
C151 N150 1.345 . S
C151 H156 0.930 . S
C152 N149 1.390 . S
C152 C153 1.346 . S
C152 H157 0.930 . S
C153 N150 1.336 . S
C153 C152 1.346 . S
C153 H160 0.929 . S
C154 O144 1.282 . S
C154 O155 1.216 . S
O155 C154 1.216 . S
H156 C151 0.930 . S
H157 C152 0.930 . S
O158 Cu138 1.959 . S
O158 C145 1.251 . S
H159 C142 0.930 . S
H160 C153 0.929 . S
Cu161 N162 1.999 . S
Cu161 O167 1.974 . S
Cu161 N172 1.985 . S
Cu161 O181 1.959 . S
N162 Cu161 1.999 . S
N162 C164 1.263 . S
N162 C166 1.389 . S
N163 C164 1.358 . S
N163 C165 1.400 . S
C164 N162 1.263 . S
C164 N163 1.358 . S
C164 H170 0.930 . S
C165 N163 1.400 . S
C165 C166 1.351 . S
C165 H182 0.930 . S
C166 N162 1.389 . S
C166 C165 1.351 . S
C166 H171 0.930 . S
O167 Cu161 1.974 . S
O167 C177 1.282 . S
C168 O169 1.261 . S
C168 O181 1.251 . S
O169 C168 1.261 . S
H170 C164 0.930 . S
H171 C166 0.930 . S
N172 Cu161 1.985 . S
N172 C174 1.335 . S
N172 C175 1.390 . S
N173 C174 1.345 . S
N173 C176 1.336 . S
C174 N172 1.335 . S
C174 N173 1.345 . S
C174 H179 0.930 . S
C175 N172 1.390 . S
C175 C176 1.346 . S
C175 H180 0.930 . S
C176 N173 1.336 . S
C176 C175 1.346 . S
C176 H183 0.929 . S
C177 O167 1.282 . S
C177 O178 1.216 . S
O178 C177 1.216 . S
H179 C174 0.930 . S
H180 C175 0.930 . S
O181 Cu161 1.959 . S
O181 C168 1.251 . S
H182 C165 0.930 . S
H183 C176 0.929 . S
Cu184 N185 1.999 . S
Cu184 O190 1.974 . S
Cu184 N195 1.985 . S
Cu184 O204 1.959 . S
N185 Cu184 1.999 . S
N185 C187 1.263 . S
N185 C189 1.389 . S
N186 C187 1.358 . S
N186 C188 1.400 . S
C187 N185 1.263 . S
C187 N186 1.358 . S
C187 H193 0.930 . S
C188 N186 1.400 . S
C188 C189 1.351 . S
C188 H205 0.930 . S
C189 N185 1.389 . S
C189 C188 1.351 . S
C189 H194 0.930 . S
O190 Cu184 1.974 . S
O190 C200 1.282 . S
C191 O192 1.261 . S
C191 O204 1.251 . S
O192 C191 1.261 . S
H193 C187 0.930 . S
H194 C189 0.930 . S
N195 Cu184 1.985 . S
N195 C197 1.335 . S
N195 C198 1.390 . S
N196 C197 1.345 . S
N196 C199 1.336 . S
C197 N195 1.335 . S
C197 N196 1.345 . S
C197 H202 0.930 . S
C198 N195 1.390 . S
C198 C199 1.346 . S
C198 H203 0.930 . S
C199 N196 1.336 . S
C199 C198 1.346 . S
C199 H206 0.929 . S
C200 O190 1.282 . S
C200 O201 1.216 . S
O201 C200 1.216 . S
H202 C197 0.930 . S
H203 C198 0.930 . S
O204 Cu184 1.959 . S
O204 C191 1.251 . S
H205 C188 0.930 . S
H206 C199 0.929 . S
Cu207 N208 1.999 . S
Cu207 O213 1.974 . S
Cu207 N218 1.985 . S
Cu207 O227 1.959 . S
N208 Cu207 1.999 . S
N208 C210 1.263 . S
N208 C212 1.389 . S
N209 C210 1.358 . S
N209 C211 1.400 . S
C210 N208 1.263 . S
C210 N209 1.358 . S
C210 H216 0.930 . S
C211 N209 1.400 . S
C211 C212 1.351 . S
C211 H228 0.930 . S
C212 N208 1.389 . S
C212 C211 1.351 . S
C212 H217 0.930 . S
O213 Cu207 1.974 . S
O213 C223 1.282 . S
C214 O215 1.261 . S
C214 O227 1.251 . S
O215 C214 1.261 . S
H216 C210 0.930 . S
H217 C212 0.930 . S
N218 Cu207 1.985 . S
N218 C220 1.335 . S
N218 C221 1.390 . S
N219 C220 1.345 . S
N219 C222 1.336 . S
C220 N218 1.335 . S
C220 N219 1.345 . S
C220 H225 0.930 . S
C221 N218 1.390 . S
C221 C222 1.346 . S
C221 H226 0.930 . S
C222 N219 1.336 . S
C222 C221 1.346 . S
C222 H229 0.929 . S
C223 O213 1.282 . S
C223 O224 1.216 . S
O224 C223 1.216 . S
H225 C220 0.930 . S
H226 C221 0.930 . S
O227 Cu207 1.959 . S
O227 C214 1.251 . S
H228 C211 0.930 . S
H229 C222 0.929 . S
Cu230 N231 1.999 . S
Cu230 O236 1.974 . S
Cu230 N241 1.985 . S
Cu230 O250 1.959 . S
N231 Cu230 1.999 . S
N231 C233 1.263 . S
N231 C235 1.389 . S
N232 C233 1.358 . S
N232 C234 1.400 . S
C233 N231 1.263 . S
C233 N232 1.358 . S
C233 H239 0.930 . S
C234 N232 1.400 . S
C234 C235 1.351 . S
C234 H251 0.930 . S
C235 N231 1.389 . S
C235 C234 1.351 . S
C235 H240 0.930 . S
O236 Cu230 1.974 . S
O236 C246 1.282 . S
C237 O238 1.261 . S
C237 O250 1.251 . S
O238 C237 1.261 . S
H239 C233 0.930 . S
H240 C235 0.930 . S
N241 Cu230 1.985 . S
N241 C243 1.335 . S
N241 C244 1.390 . S
N242 C243 1.345 . S
N242 C245 1.336 . S
C243 N241 1.335 . S
C243 N242 1.345 . S
C243 H248 0.930 . S
C244 N241 1.390 . S
C244 C245 1.346 . S
C244 H249 0.930 . S
C245 N242 1.336 . S
C245 C244 1.346 . S
C245 H252 0.929 . S
C246 O236 1.282 . S
C246 O247 1.216 . S
O247 C246 1.216 . S
H248 C243 0.930 . S
H249 C244 0.930 . S
O250 Cu230 1.959 . S
O250 C237 1.251 . S
H251 C234 0.930 . S
H252 C245 0.929 . S
Cu253 N254 1.999 . S
Cu253 O259 1.974 . S
Cu253 N264 1.985 . S
Cu253 O273 1.959 . S
N254 Cu253 1.999 . S
N254 C256 1.263 . S
N254 C258 1.389 . S
N255 C256 1.358 . S
N255 C257 1.400 . S
C256 N254 1.263 . S
C256 N255 1.358 . S
C256 H262 0.930 . S
C257 N255 1.400 . S
C257 C258 1.351 . S
C257 H274 0.930 . S
C258 N254 1.389 . S
C258 C257 1.351 . S
C258 H263 0.930 . S
O259 Cu253 1.974 . S
O259 C269 1.282 . S
C260 O261 1.261 . S
C260 O273 1.251 . S
O261 C260 1.261 . S
H262 C256 0.930 . S
H263 C258 0.930 . S
N264 Cu253 1.985 . S
N264 C266 1.335 . S
N264 C267 1.390 . S
N265 C266 1.345 . S
N265 C268 1.336 . S
C266 N264 1.335 . S
C266 N265 1.345 . S
C266 H271 0.930 . S
C267 N264 1.390 . S
C267 C268 1.346 . S
C267 H272 0.930 . S
C268 N265 1.336 . S
C268 C267 1.346 . S
C268 H275 0.929 . S
C269 O259 1.282 . S
C269 O270 1.216 . S
O270 C269 1.216 . S
H271 C266 0.930 . S
H272 C267 0.930 . S
O273 Cu253 1.959 . S
O273 C260 1.251 . S
H274 C257 0.930 . S
H275 C268 0.929 . S
Cu276 N277 1.999 . S
Cu276 O282 1.974 . S
Cu276 N287 1.985 . S
Cu276 O296 1.959 . S
N277 Cu276 1.999 . S
N277 C279 1.263 . S
N277 C281 1.389 . S
N278 C279 1.358 . S
N278 C280 1.400 . S
C279 N277 1.263 . S
C279 N278 1.358 . S
C279 H285 0.930 . S
C280 N278 1.400 . S
C280 C281 1.351 . S
C280 H297 0.930 . S
C281 N277 1.389 . S
C281 C280 1.351 . S
C281 H286 0.930 . S
O282 Cu276 1.974 . S
O282 C292 1.282 . S
C283 O284 1.261 . S
C283 O296 1.251 . S
O284 C283 1.261 . S
H285 C279 0.930 . S
H286 C281 0.930 . S
N287 Cu276 1.985 . S
N287 C289 1.335 . S
N287 C290 1.390 . S
N288 C289 1.345 . S
N288 C291 1.336 . S
C289 N287 1.335 . S
C289 N288 1.345 . S
C289 H294 0.930 . S
C290 N287 1.390 . S
C290 C291 1.346 . S
C290 H295 0.930 . S
C291 N288 1.336 . S
C291 C290 1.346 . S
C291 H298 0.929 . S
C292 O282 1.282 . S
C292 O293 1.216 . S
O293 C292 1.216 . S
H294 C289 0.930 . S
H295 C290 0.930 . S
O296 Cu276 1.959 . S
O296 C283 1.251 . S
H297 C280 0.930 . S
H298 C291 0.929 . S
Cu299 N300 1.999 . S
Cu299 O305 1.974 . S
Cu299 N310 1.985 . S
Cu299 O319 1.959 . S
N300 Cu299 1.999 . S
N300 C302 1.263 . S
N300 C304 1.389 . S
N301 C302 1.358 . S
N301 C303 1.400 . S
C302 N300 1.263 . S
C302 N301 1.358 . S
C302 H308 0.930 . S
C303 N301 1.400 . S
C303 C304 1.351 . S
C303 H320 0.930 . S
C304 N300 1.389 . S
C304 C303 1.351 . S
C304 H309 0.930 . S
O305 Cu299 1.974 . S
O305 C315 1.282 . S
C306 O307 1.261 . S
C306 O319 1.251 . S
O307 C306 1.261 . S
H308 C302 0.930 . S
H309 C304 0.930 . S
N310 Cu299 1.985 . S
N310 C312 1.335 . S
N310 C313 1.390 . S
N311 C312 1.345 . S
N311 C314 1.336 . S
C312 N310 1.335 . S
C312 N311 1.345 . S
C312 H317 0.930 . S
C313 N310 1.390 . S
C313 C314 1.346 . S
C313 H318 0.930 . S
C314 N311 1.336 . S
C314 C313 1.346 . S
C314 H321 0.929 . S
C315 O305 1.282 . S
C315 O316 1.216 . S
O316 C315 1.216 . S
H317 C312 0.930 . S
H318 C313 0.930 . S
O319 Cu299 1.959 . S
O319 C306 1.251 . S
H320 C303 0.930 . S
H321 C314 0.929 . S
Cu322 N323 1.999 . S
Cu322 O328 1.974 . S
Cu322 N333 1.985 . S
Cu322 O342 1.959 . S
N323 Cu322 1.999 . S
N323 C325 1.263 . S
N323 C327 1.389 . S
N324 C325 1.358 . S
N324 C326 1.400 . S
C325 N323 1.263 . S
C325 N324 1.358 . S
C325 H331 0.930 . S
C326 N324 1.400 . S
C326 C327 1.351 . S
C326 H343 0.930 . S
C327 N323 1.389 . S
C327 C326 1.351 . S
C327 H332 0.930 . S
O328 Cu322 1.974 . S
O328 C338 1.282 . S
C329 O330 1.261 . S
C329 O342 1.251 . S
O330 C329 1.261 . S
H331 C325 0.930 . S
H332 C327 0.930 . S
N333 Cu322 1.985 . S
N333 C335 1.335 . S
N333 C336 1.390 . S
N334 C335 1.345 . S
N334 C337 1.336 . S
C335 N333 1.335 . S
C335 N334 1.345 . S
C335 H340 0.930 . S
C336 N333 1.390 . S
C336 C337 1.346 . S
C336 H341 0.930 . S
C337 N334 1.336 . S
C337 C336 1.346 . S
C337 H344 0.929 . S
C338 O328 1.282 . S
C338 O339 1.216 . S
O339 C338 1.216 . S
H340 C335 0.930 . S
H341 C336 0.930 . S
O342 Cu322 1.959 . S
O342 C329 1.251 . S
H343 C326 0.930 . S
H344 C337 0.929 . S
Cu345 N346 1.999 . S
Cu345 O351 1.974 . S
Cu345 N356 1.985 . S
Cu345 O365 1.959 . S
N346 Cu345 1.999 . S
N346 C348 1.263 . S
N346 C350 1.389 . S
N347 C348 1.358 . S
N347 C349 1.400 . S
C348 N346 1.263 . S
C348 N347 1.358 . S
C348 H354 0.930 . S
C349 N347 1.400 . S
C349 C350 1.351 . S
C349 H366 0.930 . S
C350 N346 1.389 . S
C350 C349 1.351 . S
C350 H355 0.930 . S
O351 Cu345 1.974 . S
O351 C361 1.282 . S
C352 O353 1.261 . S
C352 O365 1.251 . S
O353 C352 1.261 . S
H354 C348 0.930 . S
H355 C350 0.930 . S
N356 Cu345 1.985 . S
N356 C358 1.335 . S
N356 C359 1.390 . S
N357 C358 1.345 . S
N357 C360 1.336 . S
C358 N356 1.335 . S
C358 N357 1.345 . S
C358 H363 0.930 . S
C359 N356 1.390 . S
C359 C360 1.346 . S
C359 H364 0.930 . S
C360 N357 1.336 . S
C360 C359 1.346 . S
C360 H367 0.929 . S
C361 O351 1.282 . S
C361 O362 1.216 . S
O362 C361 1.216 . S
H363 C358 0.930 . S
H364 C359 0.930 . S
O365 Cu345 1.959 . S
O365 C352 1.251 . S
H366 C349 0.930 . S
H367 C360 0.929 . S
Cu368 N369 1.999 . S
Cu368 O374 1.974 . S
Cu368 N379 1.985 . S
Cu368 O388 1.959 . S
N369 Cu368 1.999 . S
N369 C371 1.263 . S
N369 C373 1.389 . S
N370 C371 1.358 . S
N370 C372 1.400 . S
C371 N369 1.263 . S
C371 N370 1.358 . S
C371 H377 0.930 . S
C372 N370 1.400 . S
C372 C373 1.351 . S
C372 H389 0.930 . S
C373 N369 1.389 . S
C373 C372 1.351 . S
C373 H378 0.930 . S
O374 Cu368 1.974 . S
O374 C384 1.282 . S
C375 O376 1.261 . S
C375 O388 1.251 . S
O376 C375 1.261 . S
H377 C371 0.930 . S
H378 C373 0.930 . S
N379 Cu368 1.985 . S
N379 C381 1.335 . S
N379 C382 1.390 . S
N380 C381 1.345 . S
N380 C383 1.336 . S
C381 N379 1.335 . S
C381 N380 1.345 . S
C381 H386 0.930 . S
C382 N379 1.390 . S
C382 C383 1.346 . S
C382 H387 0.930 . S
C383 N380 1.336 . S
C383 C382 1.346 . S
C383 H390 0.929 . S
C384 O374 1.282 . S
C384 O385 1.216 . S
O385 C384 1.216 . S
H386 C381 0.930 . S
H387 C382 0.930 . S
O388 Cu368 1.959 . S
O388 C375 1.251 . S
H389 C372 0.930 . S
H390 C383 0.929 . S
Cu391 N392 1.999 . S
Cu391 O397 1.974 . S
Cu391 N402 1.985 . S
Cu391 O411 1.959 . S
N392 Cu391 1.999 . S
N392 C394 1.263 . S
N392 C396 1.389 . S
N393 C394 1.358 . S
N393 C395 1.400 . S
C394 N392 1.263 . S
C394 N393 1.358 . S
C394 H400 0.930 . S
C395 N393 1.400 . S
C395 C396 1.351 . S
C395 H412 0.930 . S
C396 N392 1.389 . S
C396 C395 1.351 . S
C396 H401 0.930 . S
O397 Cu391 1.974 . S
O397 C407 1.282 . S
C398 O399 1.261 . S
C398 O411 1.251 . S
O399 C398 1.261 . S
H400 C394 0.930 . S
H401 C396 0.930 . S
N402 Cu391 1.985 . S
N402 C404 1.335 . S
N402 C405 1.390 . S
N403 C404 1.345 . S
N403 C406 1.336 . S
C404 N402 1.335 . S
C404 N403 1.345 . S
C404 H409 0.930 . S
C405 N402 1.390 . S
C405 C406 1.346 . S
C405 H410 0.930 . S
C406 N403 1.336 . S
C406 C405 1.346 . S
C406 H413 0.929 . S
C407 O397 1.282 . S
C407 O408 1.216 . S
O408 C407 1.216 . S
H409 C404 0.930 . S
H410 C405 0.930 . S
O411 Cu391 1.959 . S
O411 C398 1.251 . S
H412 C395 0.930 . S
H413 C406 0.929 . S
Zn414 O417 2.031 . S
Zn414 O419 2.049 . S
Zn414 O424 2.067 . S
Zn415 O416 1.962 . S
Zn415 O418 1.986 . S
Zn415 O420 1.996 . S
Zn415 O423 1.943 . S
O416 Zn415 1.962 . S
O416 C421 1.254 . S
O417 Zn414 2.031 . S
O417 C421 1.269 . S
O418 Zn415 1.986 . S
O418 C425 1.262 . S
O419 Zn414 2.049 . S
O419 C427 1.260 . S
O420 Zn415 1.996 . S
O420 C427 1.257 . S
C421 O416 1.254 . S
C421 O417 1.269 . S
C422 O423 1.249 1_655 S
C422 O424 1.270 1_655 S
O423 Zn415 1.943 . S
O423 C422 1.249 1_455 S
O424 Zn414 2.067 . S
O424 C422 1.270 1_455 S
C425 O418 1.262 . S
C425 O426 1.232 . S
O426 C425 1.232 . S
C427 O419 1.260 . S
C427 O420 1.257 . S
Zn428 O431 2.031 . S
Zn428 O433 2.049 . S
Zn428 O438 2.067 . S
Zn429 O430 1.962 . S
Zn429 O432 1.986 . S
Zn429 O434 1.996 . S
Zn429 O437 1.943 . S
O430 Zn429 1.962 . S
O430 C435 1.254 . S
O431 Zn428 2.031 . S
O431 C435 1.269 . S
O432 Zn429 1.986 . S
O432 C439 1.262 . S
O433 Zn428 2.049 . S
O433 C441 1.260 . S
O434 Zn429 1.996 . S
O434 C441 1.257 . S
C435 O430 1.254 . S
C435 O431 1.269 . S
C436 O437 1.249 . S
C436 O438 1.270 . S
O437 Zn429 1.943 . S
O437 C436 1.249 . S
O438 Zn428 2.067 . S
O438 C436 1.270 . S
C439 O432 1.262 . S
C439 O440 1.232 . S
O440 C439 1.232 . S
C441 O433 1.260 . S
C441 O434 1.257 . S
Zn442 O445 2.031 . S
Zn442 O447 2.049 . S
Zn442 O452 2.067 . S
Zn443 O444 1.962 . S
Zn443 O446 1.986 . S
Zn443 O448 1.996 . S
Zn443 O451 1.943 . S
O444 Zn443 1.962 . S
O444 C449 1.254 . S
O445 Zn442 2.031 . S
O445 C449 1.269 . S
O446 Zn443 1.986 . S
O446 C453 1.262 . S
O447 Zn442 2.049 . S
O447 C455 1.260 . S
O448 Zn443 1.996 . S
O448 C455 1.257 . S
C449 O444 1.254 . S
C449 O445 1.269 . S
C450 O451 1.249 . S
C450 O452 1.270 . S
O451 Zn443 1.943 . S
O451 C450 1.249 . S
O452 Zn442 2.067 . S
O452 C450 1.270 . S
C453 O446 1.262 . S
C453 O454 1.232 . S
O454 C453 1.232 . S
C455 O447 1.260 . S
C455 O448 1.257 . S
Zn456 O459 2.031 . S
Zn456 O461 2.049 . S
Zn456 O466 2.067 . S
Zn457 O458 1.962 . S
Zn457 O460 1.986 . S
Zn457 O462 1.996 . S
Zn457 O465 1.943 . S
O458 Zn457 1.962 . S
O458 C463 1.255 . S
O459 Zn456 2.031 . S
O459 C463 1.268 . S
O460 Zn457 1.986 . S
O460 C467 1.262 . S
O461 Zn456 2.049 . S
O461 C469 1.260 . S
O462 Zn457 1.996 . S
O462 C469 1.257 . S
C463 O458 1.255 . S
C463 O459 1.268 . S
C464 O465 1.249 . S
C464 O466 1.270 . S
O465 Zn457 1.943 . S
O465 C464 1.249 . S
O466 Zn456 2.067 . S
O466 C464 1.270 . S
C467 O460 1.262 . S
C467 O468 1.232 . S
O468 C467 1.232 . S
C469 O461 1.260 . S
C469 O462 1.257 . S
Zn470 O473 2.031 . S
Zn470 O475 2.049 . S
Zn470 O480 2.067 . S
Zn471 O472 1.962 . S
Zn471 O474 1.986 . S
Zn471 O476 1.996 . S
Zn471 O479 1.943 . S
O472 Zn471 1.962 . S
O472 C477 1.254 . S
O473 Zn470 2.031 . S
O473 C477 1.269 . S
O474 Zn471 1.986 . S
O474 C481 1.262 . S
O475 Zn470 2.049 . S
O475 C483 1.260 . S
O476 Zn471 1.996 . S
O476 C483 1.257 . S
C477 O472 1.254 . S
C477 O473 1.269 . S
C478 O479 1.249 . S
C478 O480 1.270 . S
O479 Zn471 1.943 . S
O479 C478 1.249 . S
O480 Zn470 2.067 . S
O480 C478 1.270 . S
C481 O474 1.262 . S
C481 O482 1.232 . S
O482 C481 1.232 . S
C483 O475 1.260 . S
C483 O476 1.257 . S
Zn484 O487 2.031 . S
Zn484 O489 2.049 . S
Zn484 O494 2.067 . S
Zn485 O486 1.962 . S
Zn485 O488 1.986 . S
Zn485 O490 1.996 . S
Zn485 O493 1.943 . S
O486 Zn485 1.962 . S
O486 C491 1.254 . S
O487 Zn484 2.031 . S
O487 C491 1.269 . S
O488 Zn485 1.986 . S
O488 C495 1.262 . S
O489 Zn484 2.049 . S
O489 C497 1.260 . S
O490 Zn485 1.996 . S
O490 C497 1.257 . S
C491 O486 1.254 . S
C491 O487 1.269 . S
C492 O493 1.249 . S
C492 O494 1.270 . S
O493 Zn485 1.943 . S
O493 C492 1.249 . S
O494 Zn484 2.067 . S
O494 C492 1.270 . S
C495 O488 1.262 . S
C495 O496 1.232 . S
O496 C495 1.232 . S
C497 O489 1.260 . S
C497 O490 1.257 . S
Zn498 O501 2.031 1_545 S
Zn498 O503 2.049 . S
Zn498 O508 2.067 . S
Zn499 O500 1.962 . S
Zn499 O502 1.986 . S
Zn499 O504 1.996 1_565 S
Zn499 O507 1.943 . S
O500 Zn499 1.962 . S
O500 C505 1.254 . S
O501 Zn498 2.031 1_565 S
O501 C505 1.269 . S
O502 Zn499 1.986 . S
O502 C509 1.262 . S
O503 Zn498 2.049 . S
O503 C511 1.260 . S
O504 Zn499 1.996 1_545 S
O504 C511 1.257 . S
C505 O500 1.254 . S
C505 O501 1.269 . S
C506 O507 1.238 1_545 S
C506 O508 1.280 . S
O507 Zn499 1.943 . S
O507 C506 1.238 1_565 S
O508 Zn498 2.067 . S
O508 C506 1.280 . S
C509 O502 1.262 . S
C509 O510 1.232 . S
O510 C509 1.232 . S
C511 O503 1.260 . S
C511 O504 1.257 . S
Zn512 O515 2.031 . S
Zn512 O517 2.049 . S
Zn512 O522 2.067 . S
Zn513 O514 1.962 . S
Zn513 O516 1.986 . S
Zn513 O518 1.996 . S
Zn513 O521 1.943 . S
O514 Zn513 1.962 . S
O514 C519 1.254 . S
O515 Zn512 2.031 . S
O515 C519 1.269 . S
O516 Zn513 1.986 . S
O516 C523 1.262 . S
O517 Zn512 2.049 . S
O517 C525 1.260 . S
O518 Zn513 1.996 . S
O518 C525 1.257 . S
C519 O514 1.254 . S
C519 O515 1.269 . S
C520 O521 1.249 . S
C520 O522 1.270 . S
O521 Zn513 1.943 . S
O521 C520 1.249 . S
O522 Zn512 2.067 . S
O522 C520 1.270 . S
C523 O516 1.262 . S
C523 O524 1.232 . S
O524 C523 1.232 . S
C525 O517 1.260 . S
C525 O518 1.257 . S
Zn526 O529 2.031 . S
Zn526 O531 2.049 . S
Zn526 O536 2.067 . S
Zn527 O528 1.962 . S
Zn527 O530 1.986 . S
Zn527 O532 1.996 . S
Zn527 O535 1.943 . S
O528 Zn527 1.962 . S
O528 C533 1.254 . S
O529 Zn526 2.031 . S
O529 C533 1.269 . S
O530 Zn527 1.986 . S
O530 C537 1.262 . S
O531 Zn526 2.049 . S
O531 C539 1.260 . S
O532 Zn527 1.996 . S
O532 C539 1.257 . S
C533 O528 1.254 . S
C533 O529 1.269 . S
C534 O535 1.249 . S
C534 O536 1.270 . S
O535 Zn527 1.943 . S
O535 C534 1.249 . S
O536 Zn526 2.067 . S
O536 C534 1.270 . S
C537 O530 1.262 . S
C537 O538 1.232 . S
O538 C537 1.232 . S
C539 O531 1.260 . S
C539 O532 1.257 . S
Zn540 O543 2.031 . S
Zn540 O545 2.049 . S
Zn540 O550 2.067 . S
Zn541 O542 1.962 . S
Zn541 O544 1.986 . S
Zn541 O546 1.996 . S
Zn541 O549 1.943 . S
O542 Zn541 1.962 . S
O542 C547 1.254 . S
O543 Zn540 2.031 . S
O543 C547 1.269 . S
O544 Zn541 1.986 . S
O544 C551 1.262 . S
O545 Zn540 2.049 . S
O545 C553 1.260 . S
O546 Zn541 1.996 . S
O546 C553 1.257 . S
C547 O542 1.254 . S
C547 O543 1.269 . S
C548 O549 1.249 . S
C548 O550 1.270 . S
O549 Zn541 1.943 . S
O549 C548 1.249 . S
O550 Zn540 2.067 . S
O550 C548 1.270 . S
C551 O544 1.262 . S
C551 O552 1.232 . S
O552 C551 1.232 . S
C553 O545 1.260 . S
C553 O546 1.257 . S
Zn554 O557 2.031 . S
Zn554 O559 2.049 1_545 S
Zn554 O564 2.067 . S
Zn555 O556 1.962 1_565 S
Zn555 O558 1.986 . S
Zn555 O560 1.996 . S
Zn555 O563 1.943 . S
O556 Zn555 1.962 1_545 S
O556 C561 1.254 . S
O557 Zn554 2.031 . S
O557 C561 1.269 . S
O558 Zn555 1.986 . S
O558 C565 1.262 . S
O559 Zn554 2.049 1_565 S
O559 C567 1.260 . S
O560 Zn555 1.996 . S
O560 C567 1.257 . S
C561 O556 1.254 . S
C561 O557 1.269 . S
C562 O563 1.248 1_545 S
C562 O564 1.278 . S
O563 Zn555 1.943 . S
O563 C562 1.248 1_565 S
O564 Zn554 2.067 . S
O564 C562 1.278 . S
C565 O558 1.262 . S
C565 O566 1.232 . S
O566 C565 1.232 . S
C567 O559 1.260 . S
C567 O560 1.257 . S
Zn568 O571 2.031 . S
Zn568 O573 2.049 . S
Zn568 O578 2.067 . S
Zn569 O570 1.962 . S
Zn569 O572 1.986 . S
Zn569 O574 1.996 . S
Zn569 O577 1.943 . S
O570 Zn569 1.962 . S
O570 C575 1.254 . S
O571 Zn568 2.031 . S
O571 C575 1.269 . S
O572 Zn569 1.986 . S
O572 C579 1.262 . S
O573 Zn568 2.049 . S
O573 C581 1.260 . S
O574 Zn569 1.996 . S
O574 C581 1.257 . S
C575 O570 1.254 . S
C575 O571 1.269 . S
C576 O577 1.249 . S
C576 O578 1.270 . S
O577 Zn569 1.943 . S
O577 C576 1.249 . S
O578 Zn568 2.067 . S
O578 C576 1.270 . S
C579 O572 1.262 . S
C579 O580 1.232 . S
O580 C579 1.232 . S
C581 O573 1.260 . S
C581 O574 1.257 . S
Zn582 O585 2.031 . S
Zn582 O587 2.049 . S
Zn582 O592 2.067 . S
Zn583 O584 1.962 . S
Zn583 O586 1.986 . S
Zn583 O588 1.996 . S
Zn583 O591 1.943 . S
O584 Zn583 1.962 . S
O584 C589 1.254 . S
O585 Zn582 2.031 . S
O585 C589 1.269 . S
O586 Zn583 1.986 . S
O586 C593 1.262 . S
O587 Zn582 2.049 . S
O587 C595 1.260 . S
O588 Zn583 1.996 . S
O588 C595 1.257 . S
C589 O584 1.254 . S
C589 O585 1.269 . S
C590 O591 1.249 . S
C590 O592 1.270 . S
O591 Zn583 1.943 . S
O591 C590 1.249 . S
O592 Zn582 2.067 . S
O592 C590 1.270 . S
C593 O586 1.262 . S
C593 O594 1.232 . S
O594 C593 1.232 . S
C595 O587 1.260 . S
C595 O588 1.257 . S
Zn596 O599 2.031 . S
Zn596 O601 2.049 . S
Zn596 O606 2.067 . S
Zn597 O598 1.962 . S
Zn597 O600 1.986 . S
Zn597 O602 1.996 . S
Zn597 O605 1.943 . S
O598 Zn597 1.962 . S
O598 C603 1.254 . S
O599 Zn596 2.031 . S
O599 C603 1.269 . S
O600 Zn597 1.986 . S
O600 C607 1.262 . S
O601 Zn596 2.049 . S
O601 C609 1.260 . S
O602 Zn597 1.996 . S
O602 C609 1.257 . S
C603 O598 1.254 . S
C603 O599 1.269 . S
C604 O605 1.249 . S
C604 O606 1.270 . S
O605 Zn597 1.943 . S
O605 C604 1.249 . S
O606 Zn596 2.067 . S
O606 C604 1.270 . S
C607 O600 1.262 . S
C607 O608 1.232 . S
O608 C607 1.232 . S
C609 O601 1.260 . S
C609 O602 1.257 . S
Zn610 O613 2.031 . S
Zn610 O615 2.049 . S
Zn610 O620 2.067 1_655 S
Zn611 O612 1.962 . S
Zn611 O614 1.986 . S
Zn611 O616 1.996 . S
Zn611 O619 1.943 . S
O612 Zn611 1.962 . S
O612 C617 1.254 . S
O613 Zn610 2.031 . S
O613 C617 1.269 . S
O614 Zn611 1.986 . S
O614 C621 1.262 . S
O615 Zn610 2.049 . S
O615 C623 1.260 . S
O616 Zn611 1.996 . S
O616 C623 1.257 . S
C617 O612 1.254 . S
C617 O613 1.269 . S
C618 O619 1.249 1_455 S
C618 O620 1.270 . S
O619 Zn611 1.943 . S
O619 C618 1.249 1_655 S
O620 Zn610 2.067 1_455 S
O620 C618 1.270 . S
C621 O614 1.262 . S
C621 O622 1.232 . S
O622 C621 1.232 . S
C623 O615 1.260 . S
C623 O616 1.257 . S
Zn624 O627 2.031 . S
Zn624 O629 2.049 . S
Zn624 O634 2.067 . S
Zn625 O626 1.962 . S
Zn625 O628 1.986 . S
Zn625 O630 1.996 . S
Zn625 O633 1.943 . S
O626 Zn625 1.962 . S
O626 C631 1.254 . S
O627 Zn624 2.031 . S
O627 C631 1.269 . S
O628 Zn625 1.986 . S
O628 C635 1.262 . S
O629 Zn624 2.049 . S
O629 C637 1.260 . S
O630 Zn625 1.996 . S
O630 C637 1.257 . S
C631 O626 1.254 . S
C631 O627 1.269 . S
C632 O633 1.249 . S
C632 O634 1.270 . S
O633 Zn625 1.943 . S
O633 C632 1.249 . S
O634 Zn624 2.067 . S
O634 C632 1.270 . S
C635 O628 1.262 . S
C635 O636 1.232 . S
O636 C635 1.232 . S
C637 O629 1.260 . S
C637 O630 1.257 . S
Zn638 O641 2.031 . S
Zn638 O643 2.049 . S
Zn638 O648 2.015 1_655 S
Zn639 O640 1.962 . S
Zn639 O642 1.986 . S
Zn639 O644 1.996 . S
Zn639 O647 1.943 . S
O640 Zn639 1.962 . S
O640 C645 1.254 . S
O641 Zn638 2.031 . S
O641 C645 1.269 . S
O642 Zn639 1.986 . S
O642 C649 1.262 . S
O643 Zn638 2.049 . S
O643 C651 1.260 . S
O644 Zn639 1.996 . S
O644 C651 1.257 . S
C645 O640 1.254 . S
C645 O641 1.269 . S
C646 O647 1.249 1_455 S
C646 O648 1.290 . S
O647 Zn639 1.943 . S
O647 C646 1.249 1_655 S
O648 Zn638 2.015 1_455 S
O648 C646 1.290 . S
C649 O642 1.262 . S
C649 O650 1.232 . S
O650 C649 1.232 . S
C651 O643 1.260 . S
C651 O644 1.257 . S
Zn652 O655 2.031 . S
Zn652 O657 2.049 . S
Zn652 O662 2.067 . S
Zn653 O654 1.962 . S
Zn653 O656 1.986 . S
Zn653 O658 1.996 . S
Zn653 O661 1.943 . S
O654 Zn653 1.962 . S
O654 C659 1.254 . S
O655 Zn652 2.031 . S
O655 C659 1.269 . S
O656 Zn653 1.986 . S
O656 C663 1.262 . S
O657 Zn652 2.049 . S
O657 C665 1.260 . S
O658 Zn653 1.996 . S
O658 C665 1.257 . S
C659 O654 1.254 . S
C659 O655 1.269 . S
C660 O661 1.249 . S
C660 O662 1.270 . S
O661 Zn653 1.943 . S
O661 C660 1.249 . S
O662 Zn652 2.067 . S
O662 C660 1.270 . S
C663 O656 1.262 . S
C663 O664 1.232 . S
O664 C663 1.232 . S
C665 O657 1.260 . S
C665 O658 1.257 . S
H666 C674 0.929 . S
H667 C676 0.930 . S
H668 C678 0.930 . S
H669 C681 0.929 . S
H670 C684 0.930 . S
H671 C686 0.960 . S
H672 C686 0.960 . S
H673 C686 0.960 . S
C674 H666 0.929 . S
C674 C675 1.377 . S
C674 C676 1.384 . S
C675 C674 1.377 . S
C675 C681 1.390 . S
C676 H667 0.930 . S
C676 C674 1.384 . S
C676 C677 1.372 . S
C677 C676 1.372 . S
C677 C678 1.400 . S
C677 C682 1.490 . S
C678 H668 0.930 . S
C678 C677 1.400 . S
C678 C681 1.386 . S
H679 C695 0.930 . S
H680 C696 0.931 . S
C681 H669 0.929 . S
C681 C675 1.390 . S
C681 C678 1.386 . S
C682 C677 1.490 . S
C682 C684 1.395 . S
C682 C685 1.403 . S
H683 C689 0.930 . S
C684 H670 0.930 . S
C684 C682 1.395 . S
C684 C687 1.403 . S
C685 C682 1.403 . S
C685 C686 1.524 . S
C685 C689 1.400 . S
C686 H671 0.960 . S
C686 H672 0.960 . S
C686 H673 0.960 . S
C686 C685 1.524 . S
C687 C684 1.403 . S
C687 C688 1.392 . S
C687 C691 1.495 . S
C688 C687 1.392 . S
C688 C689 1.385 . S
C688 C690 1.478 . S
C689 H683 0.930 . S
C689 C685 1.400 . S
C689 C688 1.385 . S
C690 C688 1.478 . S
C690 C692 1.381 . S
C690 C696 1.383 . S
C691 C687 1.495 . S
C691 H697 0.959 . S
C691 H698 0.961 . S
C691 H699 0.960 . S
C692 C690 1.381 . S
C692 C693 1.394 . S
C692 H700 0.930 . S
C693 C692 1.394 . S
C693 C694 1.383 . S
C693 H701 0.929 . S
C694 C693 1.383 . S
C694 C695 1.377 . S
C695 H679 0.930 . S
C695 C694 1.377 . S
C695 C696 1.379 . S
C696 H680 0.931 . S
C696 C690 1.383 . S
C696 C695 1.379 . S
H697 C691 0.959 . S
H698 C691 0.961 . S
H699 C691 0.960 . S
H700 C692 0.930 . S
H701 C693 0.929 . S
H702 C710 0.929 . S
H703 C712 0.930 . S
H704 C714 0.930 . S
H705 C717 0.929 . S
H706 C720 0.930 . S
H707 C722 0.960 . S
H708 C722 0.960 . S
H709 C722 0.960 . S
C710 H702 0.929 . S
C710 C711 1.377 . S
C710 C712 1.384 . S
C711 C710 1.377 . S
C711 C717 1.390 . S
C712 H703 0.930 . S
C712 C710 1.384 . S
C712 C713 1.372 . S
C713 C712 1.372 . S
C713 C714 1.400 . S
C713 C718 1.490 . S
C714 H704 0.930 . S
C714 C713 1.400 . S
C714 C717 1.386 . S
H715 C731 0.930 . S
H716 C732 0.931 . S
C717 H705 0.929 . S
C717 C711 1.390 . S
C717 C714 1.386 . S
C718 C713 1.490 . S
C718 C720 1.395 . S
C718 C721 1.403 . S
H719 C725 0.930 . S
C720 H706 0.930 . S
C720 C718 1.395 . S
C720 C723 1.403 . S
C721 C718 1.403 . S
C721 C722 1.524 . S
C721 C725 1.400 . S
C722 H707 0.960 . S
C722 H708 0.960 . S
C722 H709 0.960 . S
C722 C721 1.524 . S
C723 C720 1.403 . S
C723 C724 1.392 . S
C723 C727 1.495 . S
C724 C723 1.392 . S
C724 C725 1.385 . S
C724 C726 1.478 . S
C725 H719 0.930 . S
C725 C721 1.400 . S
C725 C724 1.385 . S
C726 C724 1.478 . S
C726 C728 1.381 . S
C726 C732 1.383 . S
C727 C723 1.495 . S
C727 H733 0.959 . S
C727 H734 0.961 . S
C727 H735 0.960 . S
C728 C726 1.381 . S
C728 C729 1.394 . S
C728 H736 0.930 . S
C729 C728 1.394 . S
C729 C730 1.383 . S
C729 H737 0.929 . S
C730 C729 1.383 . S
C730 C731 1.377 . S
C731 H715 0.930 . S
C731 C730 1.377 . S
C731 C732 1.379 . S
C732 H716 0.931 . S
C732 C726 1.383 . S
C732 C731 1.379 . S
H733 C727 0.959 . S
H734 C727 0.961 . S
H735 C727 0.960 . S
H736 C728 0.930 . S
H737 C729 0.929 . S
H738 C746 0.929 . S
H739 C748 0.930 . S
H740 C750 0.930 . S
H741 C753 0.929 . S
H742 C756 0.930 . S
H743 C758 0.960 . S
H744 C758 0.960 . S
H745 C758 0.960 . S
C746 H738 0.929 . S
C746 C747 1.377 . S
C746 C748 1.384 . S
C747 C746 1.377 . S
C747 C753 1.390 . S
C748 H739 0.930 . S
C748 C746 1.384 . S
C748 C749 1.372 . S
C749 C748 1.372 . S
C749 C750 1.400 . S
C749 C754 1.490 . S
C750 H740 0.930 . S
C750 C749 1.400 . S
C750 C753 1.386 . S
H751 C767 0.930 . S
H752 C768 0.931 . S
C753 H741 0.929 . S
C753 C747 1.390 . S
C753 C750 1.386 . S
C754 C749 1.490 . S
C754 C756 1.395 . S
C754 C757 1.403 . S
H755 C761 0.930 . S
C756 H742 0.930 . S
C756 C754 1.395 . S
C756 C759 1.403 . S
C757 C754 1.403 . S
C757 C758 1.524 . S
C757 C761 1.400 . S
C758 H743 0.960 . S
C758 H744 0.960 . S
C758 H745 0.960 . S
C758 C757 1.524 . S
C759 C756 1.403 . S
C759 C760 1.392 . S
C759 C763 1.495 . S
C760 C759 1.392 . S
C760 C761 1.385 . S
C760 C762 1.478 . S
C761 H755 0.930 . S
C761 C757 1.400 . S
C761 C760 1.385 . S
C762 C760 1.478 . S
C762 C764 1.381 1_545 S
C762 C768 1.383 . S
C763 C759 1.495 . S
C763 H769 0.959 . S
C763 H770 0.961 . S
C763 H771 0.960 . S
C764 C762 1.381 1_565 S
C764 C765 1.394 . S
C764 H772 0.930 . S
C765 C764 1.394 . S
C765 C766 1.383 1_565 S
C765 H773 0.929 . S
C766 C765 1.383 1_545 S
C766 C767 1.377 . S
C767 H751 0.930 . S
C767 C766 1.377 . S
C767 C768 1.379 . S
C768 H752 0.931 . S
C768 C762 1.383 . S
C768 C767 1.379 . S
H769 C763 0.959 . S
H770 C763 0.961 . S
H771 C763 0.960 . S
H772 C764 0.930 . S
H773 C765 0.929 . S
H774 C782 0.929 . S
H775 C784 0.930 . S
H776 C786 0.930 . S
H777 C789 0.929 . S
H778 C792 0.930 . S
H779 C794 0.960 . S
H780 C794 0.960 . S
H781 C794 0.960 . S
C782 H774 0.929 . S
C782 C783 1.377 . S
C782 C784 1.384 . S
C783 C782 1.377 . S
C783 C789 1.390 . S
C784 H775 0.930 . S
C784 C782 1.384 . S
C784 C785 1.372 . S
C785 C784 1.372 . S
C785 C786 1.400 . S
C785 C790 1.490 . S
C786 H776 0.930 . S
C786 C785 1.400 . S
C786 C789 1.386 . S
H787 C803 0.930 . S
H788 C804 0.931 . S
C789 H777 0.929 . S
C789 C783 1.390 . S
C789 C786 1.386 . S
C790 C785 1.490 . S
C790 C792 1.395 . S
C790 C793 1.403 . S
H791 C797 0.930 . S
C792 H778 0.930 . S
C792 C790 1.395 . S
C792 C795 1.403 . S
C793 C790 1.403 . S
C793 C794 1.524 . S
C793 C797 1.400 . S
C794 H779 0.960 . S
C794 H780 0.960 . S
C794 H781 0.960 . S
C794 C793 1.524 . S
C795 C792 1.403 . S
C795 C796 1.392 . S
C795 C799 1.495 . S
C796 C795 1.392 . S
C796 C797 1.385 . S
C796 C798 1.478 . S
C797 H791 0.930 . S
C797 C793 1.400 . S
C797 C796 1.385 . S
C798 C796 1.478 . S
C798 C800 1.381 . S
C798 C804 1.383 . S
C799 C795 1.495 . S
C799 H805 0.959 . S
C799 H806 0.961 . S
C799 H807 0.960 . S
C800 C798 1.381 . S
C800 C801 1.394 . S
C800 H808 0.930 . S
C801 C800 1.394 . S
C801 C802 1.383 . S
C801 H809 0.929 . S
C802 C801 1.383 . S
C802 C803 1.377 . S
C803 H787 0.930 . S
C803 C802 1.377 . S
C803 C804 1.379 . S
C804 H788 0.931 . S
C804 C798 1.383 . S
C804 C803 1.379 . S
H805 C799 0.959 . S
H806 C799 0.961 . S
H807 C799 0.960 . S
H808 C800 0.930 . S
H809 C801 0.929 . S
H810 C818 0.929 . S
H811 C820 0.930 . S
H812 C822 0.930 . S
H813 C825 0.929 . S
H814 C828 0.930 . S
H815 C830 0.960 . S
H816 C830 0.960 . S
H817 C830 0.960 . S
C818 H810 0.929 . S
C818 C819 1.377 . S
C818 C820 1.384 . S
C819 C818 1.377 . S
C819 C825 1.390 . S
C820 H811 0.930 . S
C820 C818 1.384 . S
C820 C821 1.372 . S
C821 C820 1.372 . S
C821 C822 1.400 . S
C821 C826 1.490 . S
C822 H812 0.930 . S
C822 C821 1.400 . S
C822 C825 1.386 . S
H823 C839 0.930 . S
H824 C840 0.929 . S
C825 H813 0.929 . S
C825 C819 1.390 . S
C825 C822 1.386 . S
C826 C821 1.490 . S
C826 C828 1.395 . S
C826 C829 1.403 . S
H827 C833 0.930 . S
C828 H814 0.930 . S
C828 C826 1.395 . S
C828 C831 1.403 . S
C829 C826 1.403 . S
C829 C830 1.524 . S
C829 C833 1.400 . S
C830 H815 0.960 . S
C830 H816 0.960 . S
C830 H817 0.960 . S
C830 C829 1.524 . S
C831 C828 1.403 . S
C831 C832 1.392 . S
C831 C835 1.495 1_455 S
C832 C831 1.392 . S
C832 C833 1.385 . S
C832 C834 1.478 . S
C833 H827 0.930 . S
C833 C829 1.400 . S
C833 C832 1.385 . S
C834 C832 1.478 . S
C834 C836 1.381 . S
C834 C840 1.383 1_455 S
C835 C831 1.495 1_655 S
C835 H841 0.959 . S
C835 H842 0.961 . S
C835 H843 0.960 . S
C836 C834 1.381 . S
C836 C837 1.394 1_455 S
C836 H844 0.930 . S
C837 C836 1.394 1_655 S
C837 C838 1.383 . S
C837 H845 0.929 . S
C838 C837 1.383 . S
C838 C839 1.377 . S
C839 H823 0.930 . S
C839 C838 1.377 . S
C839 C840 1.379 . S
C840 H824 0.929 . S
C840 C834 1.383 1_655 S
C840 C839 1.379 . S
H841 C835 0.959 . S
H842 C835 0.961 . S
H843 C835 0.960 . S
H844 C836 0.930 . S
H845 C837 0.929 . S
H846 C854 0.929 . S
H847 C856 0.930 . S
H848 C858 0.930 . S
H849 C861 0.929 . S
H850 C864 0.930 . S
H851 C866 0.960 . S
H852 C866 0.960 . S
H853 C866 0.960 . S
C854 H846 0.929 . S
C854 C855 1.377 . S
C854 C856 1.384 . S
C855 C854 1.377 . S
C855 C861 1.390 . S
C856 H847 0.930 . S
C856 C854 1.384 . S
C856 C857 1.372 . S
C857 C856 1.372 . S
C857 C858 1.400 . S
C857 C862 1.490 . S
C858 H848 0.930 . S
C858 C857 1.400 . S
C858 C861 1.386 . S
H859 C875 0.930 . S
H860 C876 0.931 . S
C861 H849 0.929 . S
C861 C855 1.390 . S
C861 C858 1.386 . S
C862 C857 1.490 . S
C862 C864 1.395 . S
C862 C865 1.403 . S
H863 C869 0.930 . S
C864 H850 0.930 . S
C864 C862 1.395 . S
C864 C867 1.403 . S
C865 C862 1.403 . S
C865 C866 1.524 . S
C865 C869 1.400 . S
C866 H851 0.960 . S
C866 H852 0.960 . S
C866 H853 0.960 . S
C866 C865 1.524 . S
C867 C864 1.403 . S
C867 C868 1.392 . S
C867 C871 1.495 . S
C868 C867 1.392 . S
C868 C869 1.385 . S
C868 C870 1.478 . S
C869 H863 0.930 . S
C869 C865 1.400 . S
C869 C868 1.385 . S
C870 C868 1.478 . S
C870 C872 1.381 . S
C870 C876 1.383 . S
C871 C867 1.495 . S
C871 H877 0.959 . S
C871 H878 0.961 . S
C871 H879 0.960 . S
C872 C870 1.381 . S
C872 C873 1.394 . S
C872 H880 0.930 . S
C873 C872 1.394 . S
C873 C874 1.383 . S
C873 H881 0.929 . S
C874 C873 1.383 . S
C874 C875 1.377 . S
C875 H859 0.930 . S
C875 C874 1.377 . S
C875 C876 1.379 . S
C876 H860 0.931 . S
C876 C870 1.383 . S
C876 C875 1.379 . S
H877 C871 0.959 . S
H878 C871 0.961 . S
H879 C871 0.960 . S
H880 C872 0.930 . S
H881 C873 0.929 . S
H882 C890 0.929 . S
H883 C892 0.930 . S
H884 C894 0.930 1_554 S
H885 C897 0.911 1_554 S
H886 C900 0.930 . S
H887 C902 0.960 . S
H888 C902 0.960 . S
H889 C902 0.960 . S
C890 H882 0.929 . S
C890 C891 1.377 . S
C890 C892 1.384 . S
C891 C890 1.377 . S
C891 C897 1.402 . S
C892 H883 0.930 . S
C892 C890 1.384 . S
C892 C893 1.372 . S
C893 C892 1.372 . S
C893 C894 1.400 . S
C893 C898 1.490 . S
C894 H884 0.930 1_556 S
C894 C893 1.400 . S
C894 C897 1.392 . S
H895 C911 0.930 . S
H896 C912 0.931 . S
C897 H885 0.911 1_556 S
C897 C891 1.402 . S
C897 C894 1.392 . S
C898 C893 1.490 . S
C898 C900 1.395 1_455 S
C898 C901 1.403 . S
H899 C905 0.930 . S
C900 H886 0.930 . S
C900 C898 1.395 1_655 S
C900 C903 1.403 . S
C901 C898 1.403 . S
C901 C902 1.524 . S
C901 C905 1.400 . S
C902 H887 0.960 . S
C902 H888 0.960 . S
C902 H889 0.960 . S
C902 C901 1.524 . S
C903 C900 1.403 . S
C903 C904 1.393 . S
C903 C907 1.495 . S
C904 C903 1.393 . S
C904 C905 1.349 1_655 S
C904 C906 1.513 . S
C905 H899 0.930 . S
C905 C901 1.400 . S
C905 C904 1.349 1_455 S
C906 C904 1.513 . S
C906 C908 1.381 . S
C906 C912 1.383 . S
C907 C903 1.495 . S
C907 H913 0.959 . S
C907 H914 0.961 . S
C907 H915 0.960 . S
C908 C906 1.381 . S
C908 C909 1.394 . S
C908 H916 0.930 1_655 S
C909 C908 1.394 . S
C909 C910 1.383 . S
C909 H917 0.929 . S
C910 C909 1.383 . S
C910 C911 1.377 . S
C911 H895 0.930 . S
C911 C910 1.377 . S
C911 C912 1.379 . S
C912 H896 0.931 . S
C912 C906 1.383 . S
C912 C911 1.379 . S
H913 C907 0.959 . S
H914 C907 0.961 . S
H915 C907 0.960 . S
H916 C908 0.930 1_455 S
H917 C909 0.929 . S
H918 C926 0.929 . S
H919 C928 0.930 . S
H920 C930 0.930 . S
H921 C933 0.929 1_554 S
H922 C936 0.930 . S
H923 C938 0.960 . S
H924 C938 0.960 . S
H925 C938 0.960 . S
C926 H918 0.929 . S
C926 C927 1.377 . S
C926 C928 1.384 . S
C927 C926 1.377 . S
C927 C933 1.390 . S
C928 H919 0.930 . S
C928 C926 1.384 . S
C928 C929 1.372 . S
C929 C928 1.372 . S
C929 C930 1.400 . S
C929 C934 1.490 . S
C930 H920 0.930 . S
C930 C929 1.400 . S
C930 C933 1.386 . S
H931 C947 0.930 . S
H932 C948 0.931 . S
C933 H921 0.929 1_556 S
C933 C927 1.390 . S
C933 C930 1.386 . S
C934 C929 1.490 . S
C934 C936 1.395 . S
C934 C937 1.403 . S
H935 C941 0.930 . S
C936 H922 0.930 . S
C936 C934 1.395 . S
C936 C939 1.403 . S
C937 C934 1.403 . S
C937 C938 1.524 . S
C937 C941 1.400 . S
C938 H923 0.960 . S
C938 H924 0.960 . S
C938 H925 0.960 . S
C938 C937 1.524 . S
C939 C936 1.403 . S
C939 C940 1.392 . S
C939 C943 1.495 . S
C940 C939 1.392 . S
C940 C941 1.385 . S
C940 C942 1.478 . S
C941 H935 0.930 . S
C941 C937 1.400 . S
C941 C940 1.385 . S
C942 C940 1.478 . S
C942 C944 1.381 . S
C942 C948 1.383 . S
C943 C939 1.495 . S
C943 H949 0.959 . S
C943 H950 0.961 . S
C943 H951 0.960 . S
C944 C942 1.381 . S
C944 C945 1.394 . S
C944 H952 0.930 . S
C945 C944 1.394 . S
C945 C946 1.383 . S
C945 H953 0.929 . S
C946 C945 1.383 . S
C946 C947 1.377 . S
C947 H931 0.930 . S
C947 C946 1.377 . S
C947 C948 1.379 . S
C948 H932 0.931 . S
C948 C942 1.383 . S
C948 C947 1.379 . S
H949 C943 0.959 . S
H950 C943 0.961 . S
H951 C943 0.960 . S
H952 C944 0.930 . S
H953 C945 0.929 . S
H954 C962 0.929 . S
H955 C964 0.930 . S
H956 C966 0.930 . S
H957 C969 0.929 . S
H958 C972 0.930 . S
H959 C974 0.960 . S
H960 C974 0.960 . S
H961 C974 0.960 . S
C962 H954 0.929 . S
C962 C963 1.377 1_554 S
C962 C964 1.384 . S
C963 C962 1.377 1_556 S
C963 C969 1.390 . S
C964 H955 0.930 . S
C964 C962 1.384 . S
C964 C965 1.372 1_554 S
C965 C964 1.372 1_556 S
C965 C966 1.400 . S
C965 C970 1.490 . S
C966 H956 0.930 . S
C966 C965 1.400 . S
C966 C969 1.386 . S
H967 C983 0.930 . S
H968 C984 0.931 . S
C969 H957 0.929 . S
C969 C963 1.390 . S
C969 C966 1.386 . S
C970 C965 1.490 . S
C970 C972 1.395 . S
C970 C973 1.403 . S
H971 C977 0.930 . S
C972 H958 0.930 . S
C972 C970 1.395 . S
C972 C975 1.403 . S
C973 C970 1.403 . S
C973 C974 1.524 . S
C973 C977 1.400 . S
C974 H959 0.960 . S
C974 H960 0.960 . S
C974 H961 0.960 . S
C974 C973 1.524 . S
C975 C972 1.403 . S
C975 C976 1.392 . S
C975 C979 1.495 . S
C976 C975 1.392 . S
C976 C977 1.385 . S
C976 C978 1.478 . S
C977 H971 0.930 . S
C977 C973 1.400 . S
C977 C976 1.385 . S
C978 C976 1.478 . S
C978 C980 1.381 . S
C978 C984 1.383 . S
C979 C975 1.495 . S
C979 H985 0.959 . S
C979 H986 0.961 . S
C979 H987 0.960 . S
C980 C978 1.381 . S
C980 C981 1.394 . S
C980 H988 0.930 . S
C981 C980 1.394 . S
C981 C982 1.383 . S
C981 H989 0.929 . S
C982 C981 1.383 . S
C982 C983 1.377 . S
C983 H967 0.930 . S
C983 C982 1.377 . S
C983 C984 1.379 . S
C984 H968 0.931 . S
C984 C978 1.383 . S
C984 C983 1.379 . S
H985 C979 0.959 . S
H986 C979 0.961 . S
H987 C979 0.960 . S
H988 C980 0.930 . S
H989 C981 0.929 . S
H990 C998 0.929 . S
H991 C1000 0.930 . S
H992 C1002 0.930 . S
H993 C1005 0.929 . S
H994 C1008 0.930 . S
H995 C1010 0.960 . S
H996 C1010 0.960 . S
H997 C1010 0.960 . S
C998 H990 0.929 . S
C998 C999 1.377 1_565 S
C998 C1000 1.384 . S
C999 C998 1.377 1_545 S
C999 C1005 1.390 . S
C1000 H991 0.930 . S
C1000 C998 1.384 . S
C1000 C1001 1.372 1_565 S
C1001 C1000 1.372 1_545 S
C1001 C1002 1.400 . S
C1001 C1006 1.490 . S
C1002 H992 0.930 . S
C1002 C1001 1.400 . S
C1002 C1005 1.386 . S
H1003 C1019 0.930 . S
H1004 C1020 0.931 . S
C1005 H993 0.929 . S
C1005 C999 1.390 . S
C1005 C1002 1.386 . S
C1006 C1001 1.490 . S
C1006 C1008 1.395 1_545 S
C1006 C1009 1.403 . S
H1007 C1013 0.930 . S
C1008 H994 0.930 . S
C1008 C1006 1.395 1_565 S
C1008 C1011 1.403 . S
C1009 C1006 1.403 . S
C1009 C1010 1.524 . S
C1009 C1013 1.400 . S
C1010 H995 0.960 . S
C1010 H996 0.960 . S
C1010 H997 0.960 . S
C1010 C1009 1.524 . S
C1011 C1008 1.403 . S
C1011 C1012 1.392 . S
C1011 C1015 1.495 . S
C1012 C1011 1.392 . S
C1012 C1013 1.385 1_565 S
C1012 C1014 1.478 . S
C1013 H1007 0.930 . S
C1013 C1009 1.400 . S
C1013 C1012 1.385 1_545 S
C1014 C1012 1.478 . S
C1014 C1016 1.381 . S
C1014 C1020 1.383 1_565 S
C1015 C1011 1.495 . S
C1015 H1021 0.959 . S
C1015 H1022 0.961 . S
C1015 H1023 0.960 . S
C1016 C1014 1.381 . S
C1016 C1017 1.394 . S
C1016 H1024 0.930 . S
C1017 C1016 1.394 . S
C1017 C1018 1.383 . S
C1017 H1025 0.929 . S
C1018 C1017 1.383 . S
C1018 C1019 1.377 1_565 S
C1019 H1003 0.930 . S
C1019 C1018 1.377 1_545 S
C1019 C1020 1.379 . S
C1020 H1004 0.931 . S
C1020 C1014 1.383 1_545 S
C1020 C1019 1.379 . S
H1021 C1015 0.959 . S
H1022 C1015 0.961 . S
H1023 C1015 0.960 . S
H1024 C1016 0.930 . S
H1025 C1017 0.929 . S
H1026 C1034 0.929 . S
H1027 C1036 0.930 . S
H1028 C1038 0.930 . S
H1029 C1041 0.929 . S
H1030 C1044 0.930 . S
H1031 C1046 0.960 . S
H1032 C1046 0.960 . S
H1033 C1046 0.960 . S
C1034 H1026 0.929 . S
C1034 C1035 1.377 . S
C1034 C1036 1.384 . S
C1035 C1034 1.377 . S
C1035 C1041 1.390 . S
C1036 H1027 0.930 . S
C1036 C1034 1.384 . S
C1036 C1037 1.372 . S
C1037 C1036 1.372 . S
C1037 C1038 1.400 . S
C1037 C1042 1.490 . S
C1038 H1028 0.930 . S
C1038 C1037 1.400 . S
C1038 C1041 1.386 . S
H1039 C1055 0.930 . S
H1040 C1056 0.931 . S
C1041 H1029 0.929 . S
C1041 C1035 1.390 . S
C1041 C1038 1.386 . S
C1042 C1037 1.490 . S
C1042 C1044 1.395 . S
C1042 C1045 1.403 . S
H1043 C1049 0.930 . S
C1044 H1030 0.930 . S
C1044 C1042 1.395 . S
C1044 C1047 1.403 . S
C1045 C1042 1.403 . S
C1045 C1046 1.524 . S
C1045 C1049 1.400 . S
C1046 H1031 0.960 . S
C1046 H1032 0.960 . S
C1046 H1033 0.960 . S
C1046 C1045 1.524 . S
C1047 C1044 1.403 . S
C1047 C1048 1.392 . S
C1047 C1051 1.495 . S
C1048 C1047 1.392 . S
C1048 C1049 1.385 . S
C1048 C1050 1.478 . S
C1049 H1043 0.930 . S
C1049 C1045 1.400 . S
C1049 C1048 1.385 . S
C1050 C1048 1.478 . S
C1050 C1052 1.381 . S
C1050 C1056 1.383 . S
C1051 C1047 1.495 . S
C1051 H1057 0.959 . S
C1051 H1058 0.961 . S
C1051 H1059 0.960 . S
C1052 C1050 1.381 . S
C1052 C1053 1.394 . S
C1052 H1060 0.930 . S
C1053 C1052 1.394 . S
C1053 C1054 1.383 . S
C1053 H1061 0.929 . S
C1054 C1053 1.383 . S
C1054 C1055 1.377 . S
C1055 H1039 0.930 . S
C1055 C1054 1.377 . S
C1055 C1056 1.379 . S
C1056 H1040 0.931 . S
C1056 C1050 1.383 . S
C1056 C1055 1.379 . S
H1057 C1051 0.959 . S
H1058 C1051 0.961 . S
H1059 C1051 0.960 . S
H1060 C1052 0.930 . S
H1061 C1053 0.929 . S
H1062 C1070 0.929 . S
H1063 C1072 0.930 . S
H1064 C1074 0.930 . S
H1065 C1077 0.929 . S
H1066 C1080 0.930 . S
H1067 C1082 0.960 . S
H1068 C1082 0.960 . S
H1069 C1082 0.960 . S
C1070 H1062 0.929 . S
C1070 C1071 1.377 . S
C1070 C1072 1.384 . S
C1071 C1070 1.377 . S
C1071 C1077 1.390 . S
C1072 H1063 0.930 . S
C1072 C1070 1.384 . S
C1072 C1073 1.372 . S
C1073 C1072 1.372 . S
C1073 C1074 1.400 . S
C1073 C1078 1.490 . S
C1074 H1064 0.930 . S
C1074 C1073 1.400 . S
C1074 C1077 1.386 . S
H1075 C1091 0.930 . S
H1076 C1092 0.931 . S
C1077 H1065 0.929 . S
C1077 C1071 1.390 . S
C1077 C1074 1.386 . S
C1078 C1073 1.490 . S
C1078 C1080 1.395 . S
C1078 C1081 1.403 . S
H1079 C1085 0.930 . S
C1080 H1066 0.930 . S
C1080 C1078 1.395 . S
C1080 C1083 1.403 . S
C1081 C1078 1.403 . S
C1081 C1082 1.524 . S
C1081 C1085 1.400 . S
C1082 H1067 0.960 . S
C1082 H1068 0.960 . S
C1082 H1069 0.960 . S
C1082 C1081 1.524 . S
C1083 C1080 1.403 . S
C1083 C1084 1.392 . S
C1083 C1087 1.495 . S
C1084 C1083 1.392 . S
C1084 C1085 1.385 . S
C1084 C1086 1.478 . S
C1085 H1079 0.930 . S
C1085 C1081 1.400 . S
C1085 C1084 1.385 . S
C1086 C1084 1.478 . S
C1086 C1088 1.381 . S
C1086 C1092 1.383 . S
C1087 C1083 1.495 . S
C1087 H1093 0.959 . S
C1087 H1094 0.961 . S
C1087 H1095 0.960 . S
C1088 C1086 1.381 . S
C1088 C1089 1.394 . S
C1088 H1096 0.930 . S
C1089 C1088 1.394 . S
C1089 C1090 1.383 . S
C1089 H1097 0.929 . S
C1090 C1089 1.383 . S
C1090 C1091 1.377 . S
C1091 H1075 0.930 . S
C1091 C1090 1.377 . S
C1091 C1092 1.379 . S
C1092 H1076 0.931 . S
C1092 C1086 1.383 . S
C1092 C1091 1.379 . S
H1093 C1087 0.959 . S
H1094 C1087 0.961 . S
H1095 C1087 0.960 . S
H1096 C1088 0.930 . S
H1097 C1089 0.929 . S
H1098 C1106 0.929 . S
H1099 C1108 0.930 . S
H1100 C1110 0.930 . S
H1101 C1113 0.929 . S
H1102 C1116 0.930 . S
H1103 C1118 0.960 . S
H1104 C1118 0.960 . S
H1105 C1118 0.960 . S
C1106 H1098 0.929 . S
C1106 C1107 1.377 . S
C1106 C1108 1.384 . S
C1107 C1106 1.377 . S
C1107 C1113 1.390 . S
C1108 H1099 0.930 . S
C1108 C1106 1.384 . S
C1108 C1109 1.372 . S
C1109 C1108 1.372 . S
C1109 C1110 1.400 . S
C1109 C1114 1.490 . S
C1110 H1100 0.930 . S
C1110 C1109 1.400 . S
C1110 C1113 1.386 . S
H1111 C1127 0.930 . S
H1112 C1128 0.931 . S
C1113 H1101 0.929 . S
C1113 C1107 1.390 . S
C1113 C1110 1.386 . S
C1114 C1109 1.490 . S
C1114 C1116 1.395 . S
C1114 C1117 1.403 . S
H1115 C1121 0.930 . S
C1116 H1102 0.930 . S
C1116 C1114 1.395 . S
C1116 C1119 1.403 . S
C1117 C1114 1.403 . S
C1117 C1118 1.524 . S
C1117 C1121 1.400 . S
C1118 H1103 0.960 . S
C1118 H1104 0.960 . S
C1118 H1105 0.960 . S
C1118 C1117 1.524 . S
C1119 C1116 1.403 . S
C1119 C1120 1.392 . S
C1119 C1123 1.495 . S
C1120 C1119 1.392 . S
C1120 C1121 1.385 . S
C1120 C1122 1.478 . S
C1121 H1115 0.930 . S
C1121 C1117 1.400 . S
C1121 C1120 1.385 . S
C1122 C1120 1.478 . S
C1122 C1124 1.381 . S
C1122 C1128 1.383 . S
C1123 C1119 1.495 . S
C1123 H1129 0.959 . S
C1123 H1130 0.961 . S
C1123 H1131 0.960 . S
C1124 C1122 1.381 . S
C1124 C1125 1.394 . S
C1124 H1132 0.930 . S
C1125 C1124 1.394 . S
C1125 C1126 1.383 . S
C1125 H1133 0.929 . S
C1126 C1125 1.383 . S
C1126 C1127 1.377 . S
C1127 H1111 0.930 . S
C1127 C1126 1.377 . S
C1127 C1128 1.379 . S
C1128 H1112 0.931 . S
C1128 C1122 1.383 . S
C1128 C1127 1.379 . S
H1129 C1123 0.959 . S
H1130 C1123 0.961 . S
H1131 C1123 0.960 . S
H1132 C1124 0.930 . S
H1133 C1125 0.929 . S
H1134 C1142 0.929 . S
H1135 C1144 0.930 . S
H1136 C1146 0.930 . S
H1137 C1149 0.929 . S
H1138 C1152 0.930 . S
H1139 C1154 0.960 . S
H1140 C1154 0.960 . S
H1141 C1154 0.960 . S
C1142 H1134 0.929 . S
C1142 C1143 1.377 . S
C1142 C1144 1.384 . S
C1143 C1142 1.377 . S
C1143 C1149 1.390 . S
C1144 H1135 0.930 . S
C1144 C1142 1.384 . S
C1144 C1145 1.372 . S
C1145 C1144 1.372 . S
C1145 C1146 1.400 . S
C1145 C1150 1.490 . S
C1146 H1136 0.930 . S
C1146 C1145 1.400 . S
C1146 C1149 1.386 . S
H1147 C1163 0.930 . S
H1148 C1164 0.931 . S
C1149 H1137 0.929 . S
C1149 C1143 1.390 . S
C1149 C1146 1.386 . S
C1150 C1145 1.490 . S
C1150 C1152 1.395 1_565 S
C1150 C1153 1.403 . S
H1151 C1157 0.930 . S
C1152 H1138 0.930 . S
C1152 C1150 1.395 1_545 S
C1152 C1155 1.403 . S
C1153 C1150 1.403 . S
C1153 C1154 1.524 . S
C1153 C1157 1.400 1_565 S
C1154 H1139 0.960 . S
C1154 H1140 0.960 . S
C1154 H1141 0.960 . S
C1154 C1153 1.524 . S
C1155 C1152 1.403 . S
C1155 C1156 1.392 . S
C1155 C1159 1.495 . S
C1156 C1155 1.392 . S
C1156 C1157 1.385 . S
C1156 C1158 1.478 . S
C1157 H1151 0.930 . S
C1157 C1153 1.400 1_545 S
C1157 C1156 1.385 . S
C1158 C1156 1.478 . S
C1158 C1160 1.381 . S
C1158 C1164 1.383 . S
C1159 C1155 1.495 . S
C1159 H1165 0.959 . S
C1159 H1166 0.961 . S
C1159 H1167 0.960 . S
C1160 C1158 1.381 . S
C1160 C1161 1.394 . S
C1160 H1168 0.930 . S
C1161 C1160 1.394 . S
C1161 C1162 1.383 . S
C1161 H1169 0.929 . S
C1162 C1161 1.383 . S
C1162 C1163 1.377 . S
C1163 H1147 0.930 . S
C1163 C1162 1.377 . S
C1163 C1164 1.379 . S
C1164 H1148 0.931 . S
C1164 C1158 1.383 . S
C1164 C1163 1.379 . S
H1165 C1159 0.959 . S
H1166 C1159 0.961 . S
H1167 C1159 0.960 . S
H1168 C1160 0.930 . S
H1169 C1161 0.929 . S
H1170 C1178 0.929 . S
H1171 C1180 0.930 . S
H1172 C1182 0.930 . S
H1173 C1185 0.929 . S
H1174 C1188 0.930 . S
H1175 C1190 0.960 . S
H1176 C1190 0.960 . S
H1177 C1190 0.960 . S
C1178 H1170 0.929 . S
C1178 C1179 1.377 . S
C1178 C1180 1.384 . S
C1179 C1178 1.377 . S
C1179 C1185 1.390 . S
C1180 H1171 0.930 . S
C1180 C1178 1.384 . S
C1180 C1181 1.372 . S
C1181 C1180 1.372 . S
C1181 C1182 1.400 . S
C1181 C1186 1.490 . S
C1182 H1172 0.930 . S
C1182 C1181 1.400 . S
C1182 C1185 1.386 . S
H1183 C1199 0.930 . S
H1184 C1200 0.931 . S
C1185 H1173 0.929 . S
C1185 C1179 1.390 . S
C1185 C1182 1.386 . S
C1186 C1181 1.490 . S
C1186 C1188 1.395 . S
C1186 C1189 1.403 . S
H1187 C1193 0.930 . S
C1188 H1174 0.930 . S
C1188 C1186 1.395 . S
C1188 C1191 1.403 . S
C1189 C1186 1.403 . S
C1189 C1190 1.524 . S
C1189 C1193 1.400 . S
C1190 H1175 0.960 . S
C1190 H1176 0.960 . S
C1190 H1177 0.960 . S
C1190 C1189 1.524 . S
C1191 C1188 1.403 . S
C1191 C1192 1.392 . S
C1191 C1195 1.495 . S
C1192 C1191 1.392 . S
C1192 C1193 1.385 . S
C1192 C1194 1.478 . S
C1193 H1187 0.930 . S
C1193 C1189 1.400 . S
C1193 C1192 1.385 . S
C1194 C1192 1.478 . S
C1194 C1196 1.381 . S
C1194 C1200 1.383 . S
C1195 C1191 1.495 . S
C1195 H1201 0.959 . S
C1195 H1202 0.961 . S
C1195 H1203 0.960 . S
C1196 C1194 1.381 . S
C1196 C1197 1.394 . S
C1196 H1204 0.930 . S
C1197 C1196 1.394 . S
C1197 C1198 1.383 . S
C1197 H1205 0.929 . S
C1198 C1197 1.383 . S
C1198 C1199 1.377 . S
C1199 H1183 0.930 . S
C1199 C1198 1.377 . S
C1199 C1200 1.379 . S
C1200 H1184 0.931 . S
C1200 C1194 1.383 . S
C1200 C1199 1.379 . S
H1201 C1195 0.959 . S
H1202 C1195 0.961 . S
H1203 C1195 0.960 . S
H1204 C1196 0.930 . S
H1205 C1197 0.929 . S
H1206 C1214 0.929 . S
H1207 C1216 0.930 . S
H1208 C1218 0.930 . S
H1209 C1221 0.929 . S
H1210 C1224 0.930 . S
H1211 C1226 0.960 . S
H1212 C1226 0.960 . S
H1213 C1226 0.960 . S
C1214 H1206 0.929 . S
C1214 C1215 1.377 . S
C1214 C1216 1.384 . S
C1215 C1214 1.377 . S
C1215 C1221 1.390 . S
C1216 H1207 0.930 . S
C1216 C1214 1.384 . S
C1216 C1217 1.372 . S
C1217 C1216 1.372 . S
C1217 C1218 1.400 . S
C1217 C1222 1.490 . S
C1218 H1208 0.930 . S
C1218 C1217 1.400 . S
C1218 C1221 1.386 . S
H1219 C1235 0.930 . S
H1220 C1236 0.931 . S
C1221 H1209 0.929 . S
C1221 C1215 1.390 . S
C1221 C1218 1.386 . S
C1222 C1217 1.490 . S
C1222 C1224 1.395 . S
C1222 C1225 1.403 . S
H1223 C1229 0.930 . S
C1224 H1210 0.930 . S
C1224 C1222 1.395 . S
C1224 C1227 1.403 . S
C1225 C1222 1.403 . S
C1225 C1226 1.524 . S
C1225 C1229 1.400 . S
C1226 H1211 0.960 . S
C1226 H1212 0.960 . S
C1226 H1213 0.960 . S
C1226 C1225 1.524 . S
C1227 C1224 1.403 . S
C1227 C1228 1.392 . S
C1227 C1231 1.495 . S
C1228 C1227 1.392 . S
C1228 C1229 1.385 . S
C1228 C1230 1.478 . S
C1229 H1223 0.930 . S
C1229 C1225 1.400 . S
C1229 C1228 1.385 . S
C1230 C1228 1.478 . S
C1230 C1232 1.381 . S
C1230 C1236 1.383 . S
C1231 C1227 1.495 . S
C1231 H1237 0.959 . S
C1231 H1238 0.961 . S
C1231 H1239 0.960 . S
C1232 C1230 1.381 . S
C1232 C1233 1.394 . S
C1232 H1240 0.930 . S
C1233 C1232 1.394 . S
C1233 C1234 1.383 . S
C1233 H1241 0.929 . S
C1234 C1233 1.383 . S
C1234 C1235 1.377 . S
C1235 H1219 0.930 . S
C1235 C1234 1.377 . S
C1235 C1236 1.379 . S
C1236 H1220 0.931 . S
C1236 C1230 1.383 . S
C1236 C1235 1.379 . S
H1237 C1231 0.959 . S
H1238 C1231 0.961 . S
H1239 C1231 0.960 . S
H1240 C1232 0.930 . S
H1241 C1233 0.929 . S
H1242 C1250 0.929 . S
H1243 C1252 0.930 . S
H1244 C1254 0.930 . S
H1245 C1257 0.929 . S
H1246 C1260 0.930 . S
H1247 C1262 0.960 . S
H1248 C1262 0.960 . S
H1249 C1262 0.960 . S
C1250 H1242 0.929 . S
C1250 C1251 1.377 . S
C1250 C1252 1.384 . S
C1251 C1250 1.377 . S
C1251 C1257 1.390 . S
C1252 H1243 0.930 . S
C1252 C1250 1.384 . S
C1252 C1253 1.372 . S
C1253 C1252 1.372 . S
C1253 C1254 1.400 . S
C1253 C1258 1.490 . S
C1254 H1244 0.930 . S
C1254 C1253 1.400 . S
C1254 C1257 1.386 . S
H1255 C1271 0.930 . S
H1256 C1272 0.931 . S
C1257 H1245 0.929 . S
C1257 C1251 1.390 . S
C1257 C1254 1.386 . S
C1258 C1253 1.490 . S
C1258 C1260 1.395 . S
C1258 C1261 1.403 . S
H1259 C1265 0.930 . S
C1260 H1246 0.930 . S
C1260 C1258 1.395 . S
C1260 C1263 1.403 . S
C1261 C1258 1.403 . S
C1261 C1262 1.524 . S
C1261 C1265 1.400 . S
C1262 H1247 0.960 . S
C1262 H1248 0.960 . S
C1262 H1249 0.960 . S
C1262 C1261 1.524 . S
C1263 C1260 1.403 . S
C1263 C1264 1.392 . S
C1263 C1267 1.495 . S
C1264 C1263 1.392 . S
C1264 C1265 1.385 . S
C1264 C1266 1.478 . S
C1265 H1259 0.930 . S
C1265 C1261 1.400 . S
C1265 C1264 1.385 . S
C1266 C1264 1.478 . S
C1266 C1268 1.381 . S
C1266 C1272 1.383 . S
C1267 C1263 1.495 . S
C1267 H1273 0.959 . S
C1267 H1274 0.961 . S
C1267 H1275 0.960 . S
C1268 C1266 1.381 . S
C1268 C1269 1.394 . S
C1268 H1276 0.930 . S
C1269 C1268 1.394 . S
C1269 C1270 1.383 . S
C1269 H1277 0.929 . S
C1270 C1269 1.383 . S
C1270 C1271 1.377 . S
C1271 H1255 0.930 . S
C1271 C1270 1.377 . S
C1271 C1272 1.379 . S
C1272 H1256 0.931 . S
C1272 C1266 1.383 . S
C1272 C1271 1.379 . S
H1273 C1267 0.959 . S
H1274 C1267 0.961 . S
H1275 C1267 0.960 . S
H1276 C1268 0.930 . S
H1277 C1269 0.929 . S
H1278 C1286 0.929 . S
H1279 C1288 0.930 . S
H1280 C1290 0.930 . S
H1281 C1293 0.929 . S
H1282 C1296 0.930 . S
H1283 C1298 0.960 . S
H1284 C1298 0.960 . S
H1285 C1298 0.960 . S
C1286 H1278 0.929 . S
C1286 C1287 1.377 . S
C1286 C1288 1.384 . S
C1287 C1286 1.377 . S
C1287 C1293 1.390 . S
C1288 H1279 0.930 . S
C1288 C1286 1.384 . S
C1288 C1289 1.372 . S
C1289 C1288 1.372 . S
C1289 C1290 1.400 . S
C1289 C1294 1.490 . S
C1290 H1280 0.930 . S
C1290 C1289 1.400 . S
C1290 C1293 1.386 . S
H1291 C1307 0.930 . S
H1292 C1308 0.931 . S
C1293 H1281 0.929 . S
C1293 C1287 1.390 . S
C1293 C1290 1.386 . S
C1294 C1289 1.490 . S
C1294 C1296 1.395 . S
C1294 C1297 1.403 . S
H1295 C1301 0.930 . S
C1296 H1282 0.930 . S
C1296 C1294 1.395 . S
C1296 C1299 1.403 . S
C1297 C1294 1.403 . S
C1297 C1298 1.524 . S
C1297 C1301 1.400 . S
C1298 H1283 0.960 . S
C1298 H1284 0.960 . S
C1298 H1285 0.960 . S
C1298 C1297 1.524 . S
C1299 C1296 1.403 . S
C1299 C1300 1.392 . S
C1299 C1303 1.495 . S
C1300 C1299 1.392 . S
C1300 C1301 1.385 . S
C1300 C1302 1.478 . S
C1301 H1295 0.930 . S
C1301 C1297 1.400 . S
C1301 C1300 1.385 . S
C1302 C1300 1.478 . S
C1302 C1304 1.381 . S
C1302 C1308 1.383 . S
C1303 C1299 1.495 . S
C1303 H1309 0.959 . S
C1303 H1310 0.961 . S
C1303 H1311 0.960 1_565 S
C1304 C1302 1.381 . S
C1304 C1305 1.394 1_565 S
C1304 H1312 0.934 . S
C1305 C1304 1.394 1_545 S
C1305 C1306 1.383 . S
C1305 H1313 0.929 . S
C1306 C1305 1.383 . S
C1306 C1307 1.377 1_545 S
C1307 H1291 0.930 . S
C1307 C1306 1.377 1_565 S
C1307 C1308 1.379 . S
C1308 H1292 0.931 . S
C1308 C1302 1.383 . S
C1308 C1307 1.379 . S
H1309 C1303 0.959 . S
H1310 C1303 0.961 . S
H1311 C1303 0.960 1_545 S
H1312 C1304 0.934 . S
H1313 C1305 0.929 . S
H1314 C1322 0.929 . S
H1315 C1324 0.930 . S
H1316 C1326 0.930 . S
H1317 C1329 0.929 . S
H1318 C1332 0.930 . S
H1319 C1334 0.960 . S
H1320 C1334 0.960 . S
H1321 C1334 0.960 . S
C1322 H1314 0.929 . S
C1322 C1323 1.377 . S
C1322 C1324 1.384 . S
C1323 C1322 1.377 . S
C1323 C1329 1.390 . S
C1324 H1315 0.930 . S
C1324 C1322 1.384 . S
C1324 C1325 1.372 . S
C1325 C1324 1.372 . S
C1325 C1326 1.400 . S
C1325 C1330 1.490 . S
C1326 H1316 0.930 . S
C1326 C1325 1.400 . S
C1326 C1329 1.386 . S
H1327 C1343 0.930 . S
H1328 C1344 0.931 . S
C1329 H1317 0.929 . S
C1329 C1323 1.390 . S
C1329 C1326 1.386 . S
C1330 C1325 1.490 . S
C1330 C1332 1.395 . S
C1330 C1333 1.403 . S
H1331 C1337 0.930 . S
C1332 H1318 0.930 . S
C1332 C1330 1.395 . S
C1332 C1335 1.403 . S
C1333 C1330 1.403 . S
C1333 C1334 1.524 . S
C1333 C1337 1.400 . S
C1334 H1319 0.960 . S
C1334 H1320 0.960 . S
C1334 H1321 0.960 . S
C1334 C1333 1.524 . S
C1335 C1332 1.403 . S
C1335 C1336 1.392 . S
C1335 C1339 1.495 . S
C1336 C1335 1.392 . S
C1336 C1337 1.385 . S
C1336 C1338 1.478 1_565 S
C1337 H1331 0.930 . S
C1337 C1333 1.400 . S
C1337 C1336 1.385 . S
C1338 C1336 1.478 1_545 S
C1338 C1340 1.381 . S
C1338 C1344 1.383 1_545 S
C1339 C1335 1.495 . S
C1339 H1345 0.959 . S
C1339 H1346 0.961 . S
C1339 H1347 0.960 1_565 S
C1340 C1338 1.381 . S
C1340 C1341 1.394 . S
C1340 H1348 0.930 . S
C1341 C1340 1.394 . S
C1341 C1342 1.383 . S
C1341 H1349 0.929 . S
C1342 C1341 1.383 . S
C1342 C1343 1.377 . S
C1343 H1327 0.930 . S
C1343 C1342 1.377 . S
C1343 C1344 1.379 1_545 S
C1344 H1328 0.931 . S
C1344 C1338 1.383 1_565 S
C1344 C1343 1.379 1_565 S
H1345 C1339 0.959 . S
H1346 C1339 0.961 . S
H1347 C1339 0.960 1_545 S
H1348 C1340 0.930 . S
H1349 C1341 0.929 . S
H1350 C1358 0.929 . S
H1351 C1360 0.930 . S
H1352 C1362 0.930 . S
H1353 C1365 0.929 . S
H1354 C1368 0.930 . S
H1355 C1370 0.960 . S
H1356 C1370 0.960 . S
H1357 C1370 0.960 . S
C1358 H1350 0.929 . S
C1358 C1359 1.377 . S
C1358 C1360 1.384 . S
C1359 C1358 1.377 . S
C1359 C1365 1.390 . S
C1360 H1351 0.930 . S
C1360 C1358 1.384 . S
C1360 C1361 1.372 . S
C1361 C1360 1.372 . S
C1361 C1362 1.400 . S
C1361 C1366 1.490 . S
C1362 H1352 0.930 . S
C1362 C1361 1.400 . S
C1362 C1365 1.386 . S
H1363 C1379 0.930 . S
H1364 C1380 0.931 . S
C1365 H1353 0.929 . S
C1365 C1359 1.390 . S
C1365 C1362 1.386 . S
C1366 C1361 1.490 . S
C1366 C1368 1.395 . S
C1366 C1369 1.403 . S
H1367 C1373 0.930 . S
C1368 H1354 0.930 . S
C1368 C1366 1.395 . S
C1368 C1371 1.403 . S
C1369 C1366 1.403 . S
C1369 C1370 1.524 . S
C1369 C1373 1.400 . S
C1370 H1355 0.960 . S
C1370 H1356 0.960 . S
C1370 H1357 0.960 . S
C1370 C1369 1.524 . S
C1371 C1368 1.403 . S
C1371 C1372 1.392 . S
C1371 C1375 1.495 . S
C1372 C1371 1.392 . S
C1372 C1373 1.385 . S
C1372 C1374 1.478 . S
C1373 H1367 0.930 . S
C1373 C1369 1.400 . S
C1373 C1372 1.385 . S
C1374 C1372 1.478 . S
C1374 C1376 1.381 . S
C1374 C1380 1.383 . S
C1375 C1371 1.495 . S
C1375 H1381 0.959 . S
C1375 H1382 0.961 . S
C1375 H1383 0.960 . S
C1376 C1374 1.381 . S
C1376 C1377 1.394 . S
C1376 H1384 0.930 . S
C1377 C1376 1.394 . S
C1377 C1378 1.383 . S
C1377 H1385 0.929 . S
C1378 C1377 1.383 . S
C1378 C1379 1.377 . S
C1379 H1363 0.930 . S
C1379 C1378 1.377 . S
C1379 C1380 1.379 . S
C1380 H1364 0.931 . S
C1380 C1374 1.383 . S
C1380 C1379 1.379 . S
H1381 C1375 0.959 . S
H1382 C1375 0.961 . S
H1383 C1375 0.960 . S
H1384 C1376 0.930 . S
H1385 C1377 0.929 . S
H1386 C1394 0.929 . S
H1387 C1396 0.930 . S
H1388 C1398 0.930 . S
H1389 C1401 0.929 . S
H1390 C1404 0.930 . S
H1391 C1406 0.960 . S
H1392 C1406 0.960 . S
H1393 C1406 0.960 . S
C1394 H1386 0.929 . S
C1394 C1395 1.377 . S
C1394 C1396 1.384 . S
C1395 C1394 1.377 . S
C1395 C1401 1.390 . S
C1396 H1387 0.930 . S
C1396 C1394 1.384 . S
C1396 C1397 1.372 . S
C1397 C1396 1.372 . S
C1397 C1398 1.400 . S
C1397 C1402 1.490 . S
C1398 H1388 0.930 . S
C1398 C1397 1.400 . S
C1398 C1401 1.386 . S
H1399 C1415 0.930 . S
H1400 C1416 0.931 . S
C1401 H1389 0.929 . S
C1401 C1395 1.390 . S
C1401 C1398 1.386 . S
C1402 C1397 1.490 . S
C1402 C1404 1.395 . S
C1402 C1405 1.403 . S
H1403 C1409 0.930 . S
C1404 H1390 0.930 . S
C1404 C1402 1.395 . S
C1404 C1407 1.403 . S
C1405 C1402 1.403 . S
C1405 C1406 1.524 . S
C1405 C1409 1.400 . S
C1406 H1391 0.960 . S
C1406 H1392 0.960 . S
C1406 H1393 0.960 . S
C1406 C1405 1.524 . S
C1407 C1404 1.403 . S
C1407 C1408 1.392 . S
C1407 C1411 1.495 . S
C1408 C1407 1.392 . S
C1408 C1409 1.385 . S
C1408 C1410 1.478 . S
C1409 H1403 0.930 . S
C1409 C1405 1.400 . S
C1409 C1408 1.385 . S
C1410 C1408 1.478 . S
C1410 C1412 1.381 . S
C1410 C1416 1.383 . S
C1411 C1407 1.495 . S
C1411 H1417 0.959 . S
C1411 H1418 0.961 . S
C1411 H1419 0.960 . S
C1412 C1410 1.381 . S
C1412 C1413 1.394 . S
C1412 H1420 0.930 . S
C1413 C1412 1.394 . S
C1413 C1414 1.383 . S
C1413 H1421 0.929 . S
C1414 C1413 1.383 . S
C1414 C1415 1.377 . S
C1415 H1399 0.930 . S
C1415 C1414 1.377 . S
C1415 C1416 1.379 . S
C1416 H1400 0.931 . S
C1416 C1410 1.383 . S
C1416 C1415 1.379 . S
H1417 C1411 0.959 . S
H1418 C1411 0.961 . S
H1419 C1411 0.960 . S
H1420 C1412 0.930 . S
H1421 C1413 0.929 . S
H1422 C1430 0.929 . S
H1423 C1432 0.930 . S
H1424 C1434 0.930 . S
H1425 C1437 0.929 . S
H1426 C1440 0.930 . S
H1427 C1442 0.960 . S
H1428 C1442 0.960 . S
H1429 C1442 0.960 . S
C1430 H1422 0.929 . S
C1430 C1431 1.377 . S
C1430 C1432 1.384 . S
C1431 C1430 1.377 . S
C1431 C1437 1.390 . S
C1432 H1423 0.930 . S
C1432 C1430 1.384 . S
C1432 C1433 1.372 . S
C1433 C1432 1.372 . S
C1433 C1434 1.400 . S
C1433 C1438 1.490 . S
C1434 H1424 0.930 . S
C1434 C1433 1.400 . S
C1434 C1437 1.386 . S
H1435 C1451 0.930 . S
H1436 C1452 0.931 . S
C1437 H1425 0.929 . S
C1437 C1431 1.390 . S
C1437 C1434 1.386 . S
C1438 C1433 1.490 . S
C1438 C1440 1.395 . S
C1438 C1441 1.403 . S
H1439 C1445 0.930 . S
C1440 H1426 0.930 . S
C1440 C1438 1.395 . S
C1440 C1443 1.403 . S
C1441 C1438 1.403 . S
C1441 C1442 1.524 . S
C1441 C1445 1.400 . S
C1442 H1427 0.960 . S
C1442 H1428 0.960 . S
C1442 H1429 0.960 . S
C1442 C1441 1.524 . S
C1443 C1440 1.403 . S
C1443 C1444 1.392 . S
C1443 C1447 1.495 . S
C1444 C1443 1.392 . S
C1444 C1445 1.385 . S
C1444 C1446 1.478 . S
C1445 H1439 0.930 . S
C1445 C1441 1.400 . S
C1445 C1444 1.385 . S
C1446 C1444 1.478 . S
C1446 C1448 1.381 . S
C1446 C1452 1.383 . S
C1447 C1443 1.495 . S
C1447 H1453 0.959 . S
C1447 H1454 0.961 . S
C1447 H1455 0.960 . S
C1448 C1446 1.381 . S
C1448 C1449 1.394 . S
C1448 H1456 0.930 . S
C1449 C1448 1.394 . S
C1449 C1450 1.383 . S
C1449 H1457 0.929 . S
C1450 C1449 1.383 . S
C1450 C1451 1.377 . S
C1451 H1435 0.930 . S
C1451 C1450 1.377 . S
C1451 C1452 1.379 . S
C1452 H1436 0.931 . S
C1452 C1446 1.383 . S
C1452 C1451 1.379 . S
H1453 C1447 0.959 . S
H1454 C1447 0.961 . S
H1455 C1447 0.960 . S
H1456 C1448 0.930 . S
H1457 C1449 0.929 . S
H1458 C1466 0.929 . S
H1459 C1468 0.930 . S
H1460 C1470 0.930 . S
H1461 C1473 0.929 . S
H1462 C1476 0.930 . S
H1463 C1478 0.960 . S
H1464 C1478 0.960 . S
H1465 C1478 0.960 . S
C1466 H1458 0.929 . S
C1466 C1467 1.377 . S
C1466 C1468 1.384 . S
C1467 C1466 1.377 . S
C1467 C1473 1.390 . S
C1468 H1459 0.930 . S
C1468 C1466 1.384 . S
C1468 C1469 1.372 . S
C1469 C1468 1.372 . S
C1469 C1470 1.400 . S
C1469 C1474 1.490 . S
C1470 H1460 0.930 . S
C1470 C1469 1.400 . S
C1470 C1473 1.386 . S
H1471 C1487 0.930 . S
H1472 C1488 0.931 . S
C1473 H1461 0.929 . S
C1473 C1467 1.390 . S
C1473 C1470 1.386 . S
C1474 C1469 1.490 . S
C1474 C1476 1.395 1_565 S
C1474 C1477 1.403 . S
H1475 C1481 0.930 . S
C1476 H1462 0.930 . S
C1476 C1474 1.395 1_545 S
C1476 C1479 1.403 . S
C1477 C1474 1.403 . S
C1477 C1478 1.524 . S
C1477 C1481 1.400 1_565 S
C1478 H1463 0.960 . S
C1478 H1464 0.960 . S
C1478 H1465 0.960 . S
C1478 C1477 1.524 . S
C1479 C1476 1.403 . S
C1479 C1480 1.392 . S
C1479 C1483 1.495 . S
C1480 C1479 1.392 . S
C1480 C1481 1.385 . S
C1480 C1482 1.478 . S
C1481 H1475 0.930 . S
C1481 C1477 1.400 1_545 S
C1481 C1480 1.385 . S
C1482 C1480 1.478 . S
C1482 C1484 1.381 . S
C1482 C1488 1.383 . S
C1483 C1479 1.495 . S
C1483 H1489 0.959 . S
C1483 H1490 0.961 . S
C1483 H1491 0.960 . S
C1484 C1482 1.381 . S
C1484 C1485 1.394 . S
C1484 H1492 0.930 . S
C1485 C1484 1.394 . S
C1485 C1486 1.383 . S
C1485 H1493 0.929 . S
C1486 C1485 1.383 . S
C1486 C1487 1.377 . S
C1487 H1471 0.930 . S
C1487 C1486 1.377 . S
C1487 C1488 1.379 . S
C1488 H1472 0.931 . S
C1488 C1482 1.383 . S
C1488 C1487 1.379 . S
H1489 C1483 0.959 . S
H1490 C1483 0.961 . S
H1491 C1483 0.960 . S
H1492 C1484 0.930 . S
H1493 C1485 0.929 . S
H1494 C1502 0.929 . S
H1495 C1504 0.930 . S
H1496 C1506 0.930 . S
H1497 C1509 0.929 . S
H1498 C1512 0.930 . S
H1499 C1514 0.960 . S
H1500 C1514 0.960 . S
H1501 C1514 0.960 . S
C1502 H1494 0.929 . S
C1502 C1503 1.377 . S
C1502 C1504 1.384 . S
C1503 C1502 1.377 . S
C1503 C1509 1.390 . S
C1504 H1495 0.930 . S
C1504 C1502 1.384 . S
C1504 C1505 1.372 . S
C1505 C1504 1.372 . S
C1505 C1506 1.400 . S
C1505 C1510 1.490 . S
C1506 H1496 0.930 . S
C1506 C1505 1.400 . S
C1506 C1509 1.386 . S
H1507 C1523 0.930 . S
H1508 C1524 0.931 . S
C1509 H1497 0.929 . S
C1509 C1503 1.390 . S
C1509 C1506 1.386 . S
C1510 C1505 1.490 . S
C1510 C1512 1.395 . S
C1510 C1513 1.403 . S
H1511 C1517 0.930 . S
C1512 H1498 0.930 . S
C1512 C1510 1.395 . S
C1512 C1515 1.403 . S
C1513 C1510 1.403 . S
C1513 C1514 1.524 . S
C1513 C1517 1.400 . S
C1514 H1499 0.960 . S
C1514 H1500 0.960 . S
C1514 H1501 0.960 . S
C1514 C1513 1.524 . S
C1515 C1512 1.403 . S
C1515 C1516 1.392 . S
C1515 C1519 1.495 . S
C1516 C1515 1.392 . S
C1516 C1517 1.385 . S
C1516 C1518 1.478 . S
C1517 H1511 0.930 . S
C1517 C1513 1.400 . S
C1517 C1516 1.385 . S
C1518 C1516 1.478 . S
C1518 C1520 1.381 . S
C1518 C1524 1.383 . S
C1519 C1515 1.495 . S
C1519 H1525 0.959 . S
C1519 H1526 0.961 . S
C1519 H1527 0.960 . S
C1520 C1518 1.381 . S
C1520 C1521 1.394 . S
C1520 H1528 0.930 . S
C1521 C1520 1.394 . S
C1521 C1522 1.383 . S
C1521 H1529 0.929 . S
C1522 C1521 1.383 . S
C1522 C1523 1.377 . S
C1523 H1507 0.930 . S
C1523 C1522 1.377 . S
C1523 C1524 1.379 . S
C1524 H1508 0.931 . S
C1524 C1518 1.383 . S
C1524 C1523 1.379 . S
H1525 C1519 0.959 . S
H1526 C1519 0.961 . S
H1527 C1519 0.960 . S
H1528 C1520 0.930 . S
H1529 C1521 0.929 . S
H1530 C1538 0.929 . S
H1531 C1540 0.930 . S
H1532 C1542 0.930 . S
H1533 C1545 0.929 . S
H1534 C1548 0.930 . S
H1535 C1550 0.960 . S
H1536 C1550 0.960 . S
H1537 C1550 0.960 . S
C1538 H1530 0.929 . S
C1538 C1539 1.377 . S
C1538 C1540 1.384 . S
C1539 C1538 1.377 . S
C1539 C1545 1.390 . S
C1540 H1531 0.930 . S
C1540 C1538 1.384 . S
C1540 C1541 1.372 . S
C1541 C1540 1.372 . S
C1541 C1542 1.400 . S
C1541 C1546 1.490 . S
C1542 H1532 0.930 . S
C1542 C1541 1.400 . S
C1542 C1545 1.386 . S
H1543 C1559 0.930 . S
H1544 C1560 0.931 . S
C1545 H1533 0.929 . S
C1545 C1539 1.390 . S
C1545 C1542 1.386 . S
C1546 C1541 1.490 . S
C1546 C1548 1.395 . S
C1546 C1549 1.403 . S
H1547 C1553 0.930 . S
C1548 H1534 0.930 . S
C1548 C1546 1.395 . S
C1548 C1551 1.403 . S
C1549 C1546 1.403 . S
C1549 C1550 1.524 . S
C1549 C1553 1.400 . S
C1550 H1535 0.960 . S
C1550 H1536 0.960 . S
C1550 H1537 0.960 . S
C1550 C1549 1.524 . S
C1551 C1548 1.403 . S
C1551 C1552 1.392 . S
C1551 C1555 1.495 . S
C1552 C1551 1.392 . S
C1552 C1553 1.385 . S
C1552 C1554 1.478 . S
C1553 H1547 0.930 . S
C1553 C1549 1.400 . S
C1553 C1552 1.385 . S
C1554 C1552 1.478 . S
C1554 C1556 1.381 . S
C1554 C1560 1.383 . S
C1555 C1551 1.495 . S
C1555 H1561 0.959 . S
C1555 H1562 0.961 . S
C1555 H1563 0.960 . S
C1556 C1554 1.381 . S
C1556 C1557 1.394 . S
C1556 H1564 0.930 . S
C1557 C1556 1.394 . S
C1557 C1558 1.383 . S
C1557 H1565 0.929 . S
C1558 C1557 1.383 . S
C1558 C1559 1.377 . S
C1559 H1543 0.930 . S
C1559 C1558 1.377 . S
C1559 C1560 1.379 . S
C1560 H1544 0.931 . S
C1560 C1554 1.383 . S
C1560 C1559 1.379 . S
H1561 C1555 0.959 . S
H1562 C1555 0.961 . S
H1563 C1555 0.960 . S
H1564 C1556 0.930 . S
H1565 C1557 0.929 . S
H1566 C1574 0.929 . S
H1567 C1576 0.930 . S
H1568 C1578 0.930 . S
H1569 C1581 0.929 . S
H1570 C1584 0.930 . S
H1571 C1586 0.960 . S
H1572 C1586 0.960 . S
H1573 C1586 0.960 . S
C1574 H1566 0.929 . S
C1574 C1575 1.377 . S
C1574 C1576 1.384 . S
C1575 C1574 1.377 . S
C1575 C1581 1.390 . S
C1576 H1567 0.930 . S
C1576 C1574 1.384 . S
C1576 C1577 1.372 . S
C1577 C1576 1.372 . S
C1577 C1578 1.400 . S
C1577 C1582 1.490 . S
C1578 H1568 0.930 . S
C1578 C1577 1.400 . S
C1578 C1581 1.386 . S
H1579 C1595 0.930 . S
H1580 C1596 0.931 . S
C1581 H1569 0.929 . S
C1581 C1575 1.390 . S
C1581 C1578 1.386 . S
C1582 C1577 1.490 . S
C1582 C1584 1.395 . S
C1582 C1585 1.403 . S
H1583 C1589 0.930 . S
C1584 H1570 0.930 . S
C1584 C1582 1.395 . S
C1584 C1587 1.403 . S
C1585 C1582 1.403 . S
C1585 C1586 1.524 . S
C1585 C1589 1.400 . S
C1586 H1571 0.960 . S
C1586 H1572 0.960 . S
C1586 H1573 0.960 . S
C1586 C1585 1.524 . S
C1587 C1584 1.403 . S
C1587 C1588 1.392 . S
C1587 C1591 1.495 . S
C1588 C1587 1.392 . S
C1588 C1589 1.385 . S
C1588 C1590 1.478 . S
C1589 H1583 0.930 . S
C1589 C1585 1.400 . S
C1589 C1588 1.385 . S
C1590 C1588 1.478 . S
C1590 C1592 1.381 . S
C1590 C1596 1.383 . S
C1591 C1587 1.495 . S
C1591 H1597 0.959 . S
C1591 H1598 0.961 . S
C1591 H1599 0.960 . S
C1592 C1590 1.381 . S
C1592 C1593 1.394 . S
C1592 H1600 0.930 . S
C1593 C1592 1.394 . S
C1593 C1594 1.383 . S
C1593 H1601 0.929 . S
C1594 C1593 1.383 . S
C1594 C1595 1.377 . S
C1595 H1579 0.930 . S
C1595 C1594 1.377 . S
C1595 C1596 1.379 . S
C1596 H1580 0.931 . S
C1596 C1590 1.383 . S
C1596 C1595 1.379 . S
H1597 C1591 0.959 . S
H1598 C1591 0.961 . S
H1599 C1591 0.960 . S
H1600 C1592 0.930 . S
H1601 C1593 0.929 . S
H1602 C1610 0.929 . S
H1603 C1612 0.930 . S
H1604 C1614 0.930 . S
H1605 C1617 0.929 . S
H1606 C1620 0.930 . S
H1607 C1622 0.960 . S
H1608 C1622 0.960 . S
H1609 C1622 0.960 . S
C1610 H1602 0.929 . S
C1610 C1611 1.377 . S
C1610 C1612 1.384 . S
C1611 C1610 1.377 . S
C1611 C1617 1.390 . S
C1612 H1603 0.930 . S
C1612 C1610 1.384 . S
C1612 C1613 1.372 . S
C1613 C1612 1.372 . S
C1613 C1614 1.400 . S
C1613 C1618 1.490 . S
C1614 H1604 0.930 . S
C1614 C1613 1.400 . S
C1614 C1617 1.386 . S
H1615 C1631 0.930 . S
H1616 C1632 0.931 . S
C1617 H1605 0.929 . S
C1617 C1611 1.390 . S
C1617 C1614 1.386 . S
C1618 C1613 1.490 . S
C1618 C1620 1.395 . S
C1618 C1621 1.403 . S
H1619 C1625 0.930 . S
C1620 H1606 0.930 . S
C1620 C1618 1.395 . S
C1620 C1623 1.403 . S
C1621 C1618 1.403 . S
C1621 C1622 1.524 . S
C1621 C1625 1.400 . S
C1622 H1607 0.960 . S
C1622 H1608 0.960 . S
C1622 H1609 0.960 . S
C1622 C1621 1.524 . S
C1623 C1620 1.403 . S
C1623 C1624 1.392 . S
C1623 C1627 1.495 . S
C1624 C1623 1.392 . S
C1624 C1625 1.385 . S
C1624 C1626 1.478 . S
C1625 H1619 0.930 . S
C1625 C1621 1.400 . S
C1625 C1624 1.385 . S
C1626 C1624 1.478 . S
C1626 C1628 1.381 . S
C1626 C1632 1.383 . S
C1627 C1623 1.495 . S
C1627 H1633 0.959 . S
C1627 H1634 0.961 . S
C1627 H1635 0.960 . S
C1628 C1626 1.381 . S
C1628 C1629 1.394 . S
C1628 H1636 0.930 . S
C1629 C1628 1.394 . S
C1629 C1630 1.383 . S
C1629 H1637 0.929 . S
C1630 C1629 1.383 . S
C1630 C1631 1.377 . S
C1631 H1615 0.930 . S
C1631 C1630 1.377 . S
C1631 C1632 1.379 . S
C1632 H1616 0.931 . S
C1632 C1626 1.383 . S
C1632 C1631 1.379 . S
H1633 C1627 0.959 . S
H1634 C1627 0.961 . S
H1635 C1627 0.960 . S
H1636 C1628 0.930 . S
H1637 C1629 0.929 . S
H1638 C1646 0.929 . S
H1639 C1648 0.930 . S
H1640 C1650 0.930 . S
H1641 C1653 0.929 . S
H1642 C1656 0.930 . S
H1643 C1658 0.960 . S
H1644 C1658 0.960 . S
H1645 C1658 0.960 . S
C1646 H1638 0.929 . S
C1646 C1647 1.377 . S
C1646 C1648 1.384 . S
C1647 C1646 1.377 . S
C1647 C1653 1.390 . S
C1648 H1639 0.930 . S
C1648 C1646 1.384 . S
C1648 C1649 1.372 . S
C1649 C1648 1.372 . S
C1649 C1650 1.400 . S
C1649 C1654 1.490 . S
C1650 H1640 0.930 . S
C1650 C1649 1.400 . S
C1650 C1653 1.386 . S
H1651 C1667 0.930 . S
H1652 C1668 0.931 . S
C1653 H1641 0.929 . S
C1653 C1647 1.390 . S
C1653 C1650 1.386 . S
C1654 C1649 1.490 . S
C1654 C1656 1.395 . S
C1654 C1657 1.403 . S
H1655 C1661 0.930 . S
C1656 H1642 0.930 . S
C1656 C1654 1.395 . S
C1656 C1659 1.403 . S
C1657 C1654 1.403 . S
C1657 C1658 1.524 . S
C1657 C1661 1.400 . S
C1658 H1643 0.960 . S
C1658 H1644 0.960 . S
C1658 H1645 0.960 . S
C1658 C1657 1.524 . S
C1659 C1656 1.403 . S
C1659 C1660 1.392 . S
C1659 C1663 1.495 . S
C1660 C1659 1.392 . S
C1660 C1661 1.385 . S
C1660 C1662 1.478 . S
C1661 H1655 0.930 . S
C1661 C1657 1.400 . S
C1661 C1660 1.385 . S
C1662 C1660 1.478 . S
C1662 C1664 1.381 . S
C1662 C1668 1.383 . S
C1663 C1659 1.495 . S
C1663 H1669 0.959 . S
C1663 H1670 0.961 . S
C1663 H1671 0.960 . S
C1664 C1662 1.381 . S
C1664 C1665 1.394 . S
C1664 H1672 0.930 . S
C1665 C1664 1.394 . S
C1665 C1666 1.383 . S
C1665 H1673 0.929 . S
C1666 C1665 1.383 . S
C1666 C1667 1.377 . S
C1667 H1651 0.930 . S
C1667 C1666 1.377 . S
C1667 C1668 1.379 . S
C1668 H1652 0.931 . S
C1668 C1662 1.383 . S
C1668 C1667 1.379 . S
H1669 C1663 0.959 . S
H1670 C1663 0.961 . S
H1671 C1663 0.960 . S
H1672 C1664 0.930 . S
H1673 C1665 0.929 . S
H1674 C1682 0.929 . S
H1675 C1684 0.930 . S
H1676 C1686 0.930 . S
H1677 C1689 0.929 . S
H1678 C1692 0.930 . S
H1679 C1694 0.960 . S
H1680 C1694 0.960 . S
H1681 C1694 0.960 . S
C1682 H1674 0.929 . S
C1682 C1683 1.377 . S
C1682 C1684 1.384 . S
C1683 C1682 1.377 . S
C1683 C1689 1.390 . S
C1684 H1675 0.930 . S
C1684 C1682 1.384 . S
C1684 C1685 1.372 . S
C1685 C1684 1.372 . S
C1685 C1686 1.400 . S
C1685 C1690 1.490 . S
C1686 H1676 0.930 . S
C1686 C1685 1.400 . S
C1686 C1689 1.386 . S
H1687 C1703 0.930 . S
H1688 C1704 0.931 . S
C1689 H1677 0.929 . S
C1689 C1683 1.390 . S
C1689 C1686 1.386 . S
C1690 C1685 1.490 . S
C1690 C1692 1.395 . S
C1690 C1693 1.403 . S
H1691 C1697 0.930 . S
C1692 H1678 0.930 . S
C1692 C1690 1.395 . S
C1692 C1695 1.403 . S
C1693 C1690 1.403 . S
C1693 C1694 1.524 . S
C1693 C1697 1.400 . S
C1694 H1679 0.960 . S
C1694 H1680 0.960 . S
C1694 H1681 0.960 . S
C1694 C1693 1.524 . S
C1695 C1692 1.403 . S
C1695 C1696 1.392 . S
C1695 C1699 1.495 . S
C1696 C1695 1.392 . S
C1696 C1697 1.385 . S
C1696 C1698 1.478 . S
C1697 H1691 0.930 . S
C1697 C1693 1.400 . S
C1697 C1696 1.385 . S
C1698 C1696 1.478 . S
C1698 C1700 1.381 . S
C1698 C1704 1.383 . S
C1699 C1695 1.495 . S
C1699 H1705 0.959 . S
C1699 H1706 0.961 . S
C1699 H1707 0.960 . S
C1700 C1698 1.381 . S
C1700 C1701 1.394 . S
C1700 H1708 0.930 . S
C1701 C1700 1.394 . S
C1701 C1702 1.383 . S
C1701 H1709 0.929 . S
C1702 C1701 1.383 . S
C1702 C1703 1.377 . S
C1703 H1687 0.930 . S
C1703 C1702 1.377 . S
C1703 C1704 1.379 . S
C1704 H1688 0.931 . S
C1704 C1698 1.383 . S
C1704 C1703 1.379 . S
H1705 C1699 0.959 . S
H1706 C1699 0.961 . S
H1707 C1699 0.960 . S
H1708 C1700 0.930 . S
H1709 C1701 0.929 . S
H1710 C1718 0.929 . S
H1711 C1720 0.930 . S
H1712 C1722 0.930 . S
H1713 C1725 0.929 . S
H1714 C1728 0.930 . S
H1715 C1730 0.960 . S
H1716 C1730 0.960 . S
H1717 C1730 0.960 . S
C1718 H1710 0.929 . S
C1718 C1719 1.377 . S
C1718 C1720 1.384 . S
C1719 C1718 1.377 . S
C1719 C1725 1.390 . S
C1720 H1711 0.930 . S
C1720 C1718 1.384 . S
C1720 C1721 1.372 . S
C1721 C1720 1.372 . S
C1721 C1722 1.400 . S
C1721 C1726 1.490 . S
C1722 H1712 0.930 . S
C1722 C1721 1.400 . S
C1722 C1725 1.386 . S
H1723 C1739 0.930 . S
H1724 C1740 0.931 . S
C1725 H1713 0.929 . S
C1725 C1719 1.390 . S
C1725 C1722 1.386 . S
C1726 C1721 1.490 . S
C1726 C1728 1.395 . S
C1726 C1729 1.403 . S
H1727 C1733 0.930 . S
C1728 H1714 0.930 . S
C1728 C1726 1.395 . S
C1728 C1731 1.403 . S
C1729 C1726 1.403 . S
C1729 C1730 1.524 . S
C1729 C1733 1.400 . S
C1730 H1715 0.960 . S
C1730 H1716 0.960 . S
C1730 H1717 0.960 . S
C1730 C1729 1.524 . S
C1731 C1728 1.403 . S
C1731 C1732 1.392 . S
C1731 C1735 1.495 . S
C1732 C1731 1.392 . S
C1732 C1733 1.385 . S
C1732 C1734 1.478 . S
C1733 H1727 0.930 . S
C1733 C1729 1.400 . S
C1733 C1732 1.385 . S
C1734 C1732 1.478 . S
C1734 C1736 1.381 . S
C1734 C1740 1.383 . S
C1735 C1731 1.495 . S
C1735 H1741 0.959 . S
C1735 H1742 0.961 . S
C1735 H1743 0.960 . S
C1736 C1734 1.381 . S
C1736 C1737 1.394 1_655 S
C1736 H1744 0.930 . S
C1737 C1736 1.394 1_455 S
C1737 C1738 1.383 . S
C1737 H1745 0.929 . S
C1738 C1737 1.383 . S
C1738 C1739 1.377 . S
C1739 H1723 0.930 . S
C1739 C1738 1.377 . S
C1739 C1740 1.379 1_455 S
C1740 H1724 0.931 . S
C1740 C1734 1.383 . S
C1740 C1739 1.379 1_655 S
H1741 C1735 0.959 . S
H1742 C1735 0.961 . S
H1743 C1735 0.960 . S
H1744 C1736 0.930 . S
H1745 C1737 0.929 . S
H1746 C1754 0.929 . S
H1747 C1756 0.930 . S
H1748 C1758 0.930 . S
H1749 C1761 0.929 . S
H1750 C1764 0.930 . S
H1751 C1766 0.960 . S
H1752 C1766 0.960 . S
H1753 C1766 0.960 . S
C1754 H1746 0.929 . S
C1754 C1755 1.377 . S
C1754 C1756 1.384 . S
C1755 C1754 1.377 . S
C1755 C1761 1.390 . S
C1756 H1747 0.930 . S
C1756 C1754 1.384 . S
C1756 C1757 1.372 . S
C1757 C1756 1.372 . S
C1757 C1758 1.400 . S
C1757 C1762 1.490 . S
C1758 H1748 0.930 . S
C1758 C1757 1.400 . S
C1758 C1761 1.386 . S
H1759 C1775 0.930 . S
H1760 C1776 0.931 . S
C1761 H1749 0.929 . S
C1761 C1755 1.390 . S
C1761 C1758 1.386 . S
C1762 C1757 1.490 . S
C1762 C1764 1.395 . S
C1762 C1765 1.403 . S
H1763 C1769 0.930 . S
C1764 H1750 0.930 . S
C1764 C1762 1.395 . S
C1764 C1767 1.403 . S
C1765 C1762 1.403 . S
C1765 C1766 1.524 . S
C1765 C1769 1.400 . S
C1766 H1751 0.960 . S
C1766 H1752 0.960 . S
C1766 H1753 0.960 . S
C1766 C1765 1.524 . S
C1767 C1764 1.403 . S
C1767 C1768 1.392 . S
C1767 C1771 1.495 . S
C1768 C1767 1.392 . S
C1768 C1769 1.385 . S
C1768 C1770 1.478 . S
C1769 H1763 0.930 . S
C1769 C1765 1.400 . S
C1769 C1768 1.385 . S
C1770 C1768 1.478 . S
C1770 C1772 1.381 . S
C1770 C1776 1.383 . S
C1771 C1767 1.495 . S
C1771 H1777 0.959 . S
C1771 H1778 0.961 . S
C1771 H1779 0.960 . S
C1772 C1770 1.381 . S
C1772 C1773 1.394 . S
C1772 H1780 0.930 . S
C1773 C1772 1.394 . S
C1773 C1774 1.383 . S
C1773 H1781 0.929 . S
C1774 C1773 1.383 . S
C1774 C1775 1.377 . S
C1775 H1759 0.930 . S
C1775 C1774 1.377 . S
C1775 C1776 1.379 . S
C1776 H1760 0.931 . S
C1776 C1770 1.383 . S
C1776 C1775 1.379 . S
H1777 C1771 0.959 . S
H1778 C1771 0.961 . S
H1779 C1771 0.960 . S
H1780 C1772 0.930 . S
H1781 C1773 0.929 . S
H1782 C1790 0.929 . S
H1783 C1792 0.930 . S
H1784 C1794 0.930 . S
H1785 C1797 0.929 . S
H1786 C1800 0.930 . S
H1787 C1802 0.960 . S
H1788 C1802 0.960 . S
H1789 C1802 0.960 . S
C1790 H1782 0.929 . S
C1790 C1791 1.377 . S
C1790 C1792 1.384 . S
C1791 C1790 1.377 . S
C1791 C1797 1.390 . S
C1792 H1783 0.930 . S
C1792 C1790 1.384 . S
C1792 C1793 1.372 . S
C1793 C1792 1.372 . S
C1793 C1794 1.400 . S
C1793 C1798 1.490 . S
C1794 H1784 0.930 . S
C1794 C1793 1.400 . S
C1794 C1797 1.386 . S
H1795 C1811 0.930 . S
H1796 C1812 0.931 . S
C1797 H1785 0.929 . S
C1797 C1791 1.390 . S
C1797 C1794 1.386 . S
C1798 C1793 1.490 . S
C1798 C1800 1.395 . S
C1798 C1801 1.403 . S
H1799 C1805 0.930 . S
C1800 H1786 0.930 . S
C1800 C1798 1.395 . S
C1800 C1803 1.403 . S
C1801 C1798 1.403 . S
C1801 C1802 1.524 . S
C1801 C1805 1.400 . S
C1802 H1787 0.960 . S
C1802 H1788 0.960 . S
C1802 H1789 0.960 . S
C1802 C1801 1.524 . S
C1803 C1800 1.403 . S
C1803 C1804 1.392 . S
C1803 C1807 1.495 . S
C1804 C1803 1.392 . S
C1804 C1805 1.385 . S
C1804 C1806 1.478 . S
C1805 H1799 0.930 . S
C1805 C1801 1.400 . S
C1805 C1804 1.385 . S
C1806 C1804 1.478 . S
C1806 C1808 1.381 . S
C1806 C1812 1.383 . S
C1807 C1803 1.495 . S
C1807 H1813 0.959 . S
C1807 H1814 0.961 . S
C1807 H1815 0.960 . S
C1808 C1806 1.381 . S
C1808 C1809 1.394 . S
C1808 H1816 0.930 . S
C1809 C1808 1.394 . S
C1809 C1810 1.383 . S
C1809 H1817 0.929 . S
C1810 C1809 1.383 . S
C1810 C1811 1.377 . S
C1811 H1795 0.930 . S
C1811 C1810 1.377 . S
C1811 C1812 1.379 . S
C1812 H1796 0.931 . S
C1812 C1806 1.383 . S
C1812 C1811 1.379 . S
H1813 C1807 0.959 . S
H1814 C1807 0.961 . S
H1815 C1807 0.960 . S
H1816 C1808 0.930 . S
H1817 C1809 0.929 . S
H1818 C1826 0.929 . S
H1819 C1828 0.930 . S
H1820 C1830 0.930 . S
H1821 C1833 0.929 . S
H1822 C1836 0.930 . S
H1823 C1838 0.960 . S
H1824 C1838 0.960 . S
H1825 C1838 0.960 . S
C1826 H1818 0.929 . S
C1826 C1827 1.377 . S
C1826 C1828 1.384 . S
C1827 C1826 1.377 . S
C1827 C1833 1.390 . S
C1828 H1819 0.930 . S
C1828 C1826 1.384 . S
C1828 C1829 1.372 . S
C1829 C1828 1.372 . S
C1829 C1830 1.400 . S
C1829 C1834 1.490 . S
C1830 H1820 0.930 . S
C1830 C1829 1.400 . S
C1830 C1833 1.386 . S
H1831 C1847 0.930 . S
H1832 C1848 0.931 1_655 S
C1833 H1821 0.929 . S
C1833 C1827 1.390 . S
C1833 C1830 1.386 . S
C1834 C1829 1.490 . S
C1834 C1836 1.395 . S
C1834 C1837 1.403 . S
H1835 C1841 0.930 . S
C1836 H1822 0.930 . S
C1836 C1834 1.395 . S
C1836 C1839 1.403 . S
C1837 C1834 1.403 . S
C1837 C1838 1.524 . S
C1837 C1841 1.400 . S
C1838 H1823 0.960 . S
C1838 H1824 0.960 . S
C1838 H1825 0.960 . S
C1838 C1837 1.524 . S
C1839 C1836 1.403 . S
C1839 C1840 1.392 . S
C1839 C1843 1.495 . S
C1840 C1839 1.392 . S
C1840 C1841 1.385 . S
C1840 C1842 1.546 . S
C1841 H1835 0.930 . S
C1841 C1837 1.400 . S
C1841 C1840 1.385 . S
C1842 C1840 1.546 . S
C1842 C1844 1.357 1_655 S
C1842 C1848 1.342 1_655 S
C1843 C1839 1.495 . S
C1843 H1849 0.959 . S
C1843 H1850 0.961 . S
C1843 H1851 0.964 . S
C1844 C1842 1.357 1_455 S
C1844 C1845 1.394 . S
C1844 H1852 0.930 . S
C1845 C1844 1.394 . S
C1845 C1846 1.383 . S
C1845 H1853 0.929 . S
C1846 C1845 1.383 . S
C1846 C1847 1.377 . S
C1847 H1831 0.930 . S
C1847 C1846 1.377 . S
C1847 C1848 1.379 . S
C1848 H1832 0.931 1_455 S
C1848 C1842 1.342 1_455 S
C1848 C1847 1.379 . S
H1849 C1843 0.959 . S
H1850 C1843 0.961 . S
H1851 C1843 0.964 . S
H1852 C1844 0.930 . S
H1853 C1845 0.929 . S
H1854 C1862 0.929 . S
H1855 C1864 0.930 . S
H1856 C1866 0.930 . S
H1857 C1869 0.929 . S
H1858 C1872 0.930 . S
H1859 C1874 0.960 . S
H1860 C1874 0.960 . S
H1861 C1874 0.960 . S
C1862 H1854 0.929 . S
C1862 C1863 1.377 . S
C1862 C1864 1.384 . S
C1863 C1862 1.377 . S
C1863 C1869 1.390 . S
C1864 H1855 0.930 . S
C1864 C1862 1.384 . S
C1864 C1865 1.372 . S
C1865 C1864 1.372 . S
C1865 C1866 1.400 . S
C1865 C1870 1.490 . S
C1866 H1856 0.930 . S
C1866 C1865 1.400 . S
C1866 C1869 1.386 . S
H1867 C1883 0.930 . S
H1868 C1884 0.931 . S
C1869 H1857 0.929 . S
C1869 C1863 1.390 . S
C1869 C1866 1.386 . S
C1870 C1865 1.490 . S
C1870 C1872 1.395 . S
C1870 C1873 1.403 . S
H1871 C1877 0.930 . S
C1872 H1858 0.930 . S
C1872 C1870 1.395 . S
C1872 C1875 1.403 . S
C1873 C1870 1.403 . S
C1873 C1874 1.524 . S
C1873 C1877 1.400 . S
C1874 H1859 0.960 . S
C1874 H1860 0.960 . S
C1874 H1861 0.960 . S
C1874 C1873 1.524 . S
C1875 C1872 1.403 . S
C1875 C1876 1.392 . S
C1875 C1879 1.495 . S
C1876 C1875 1.392 . S
C1876 C1877 1.385 . S
C1876 C1878 1.478 . S
C1877 H1871 0.930 . S
C1877 C1873 1.400 . S
C1877 C1876 1.385 . S
C1878 C1876 1.478 . S
C1878 C1880 1.381 . S
C1878 C1884 1.383 . S
C1879 C1875 1.495 . S
C1879 H1885 0.959 . S
C1879 H1886 0.961 . S
C1879 H1887 0.960 . S
C1880 C1878 1.381 . S
C1880 C1881 1.394 . S
C1880 H1888 0.930 . S
C1881 C1880 1.394 . S
C1881 C1882 1.383 . S
C1881 H1889 0.929 . S
C1882 C1881 1.383 . S
C1882 C1883 1.377 . S
C1883 H1867 0.930 . S
C1883 C1882 1.377 . S
C1883 C1884 1.379 . S
C1884 H1868 0.931 . S
C1884 C1878 1.383 . S
C1884 C1883 1.379 . S
H1885 C1879 0.959 . S
H1886 C1879 0.961 . S
H1887 C1879 0.960 . S
H1888 C1880 0.930 . S
H1889 C1881 0.929 . S
H1890 C1898 0.929 . S
H1891 C1900 0.930 . S
H1892 C1902 0.930 . S
H1893 C1905 0.929 . S
H1894 C1908 0.930 . S
H1895 C1910 0.960 . S
H1896 C1910 0.960 . S
H1897 C1910 0.960 . S
C1898 H1890 0.929 . S
C1898 C1899 1.377 . S
C1898 C1900 1.384 . S
C1899 C1898 1.377 . S
C1899 C1905 1.390 . S
C1900 H1891 0.930 . S
C1900 C1898 1.384 . S
C1900 C1901 1.372 . S
C1901 C1900 1.372 . S
C1901 C1902 1.400 . S
C1901 C1906 1.490 . S
C1902 H1892 0.930 . S
C1902 C1901 1.400 . S
C1902 C1905 1.386 . S
H1903 C1919 0.930 . S
H1904 C1920 0.931 . S
C1905 H1893 0.929 . S
C1905 C1899 1.390 . S
C1905 C1902 1.386 . S
C1906 C1901 1.490 . S
C1906 C1908 1.395 . S
C1906 C1909 1.403 . S
H1907 C1913 0.930 . S
C1908 H1894 0.930 . S
C1908 C1906 1.395 . S
C1908 C1911 1.403 . S
C1909 C1906 1.403 . S
C1909 C1910 1.524 . S
C1909 C1913 1.400 . S
C1910 H1895 0.960 . S
C1910 H1896 0.960 . S
C1910 H1897 0.960 . S
C1910 C1909 1.524 . S
C1911 C1908 1.403 . S
C1911 C1912 1.392 . S
C1911 C1915 1.495 . S
C1912 C1911 1.392 . S
C1912 C1913 1.385 . S
C1912 C1914 1.478 . S
C1913 H1907 0.930 . S
C1913 C1909 1.400 . S
C1913 C1912 1.385 . S
C1914 C1912 1.478 . S
C1914 C1916 1.381 . S
C1914 C1920 1.383 . S
C1915 C1911 1.495 . S
C1915 H1921 0.959 . S
C1915 H1922 0.961 . S
C1915 H1923 0.960 . S
C1916 C1914 1.381 . S
C1916 C1917 1.394 . S
C1916 H1924 0.930 . S
C1917 C1916 1.394 . S
C1917 C1918 1.383 . S
C1917 H1925 0.929 . S
C1918 C1917 1.383 . S
C1918 C1919 1.377 . S
C1919 H1903 0.930 . S
C1919 C1918 1.377 . S
C1919 C1920 1.379 . S
C1920 H1904 0.931 . S
C1920 C1914 1.383 . S
C1920 C1919 1.379 . S
H1921 C1915 0.959 . S
H1922 C1915 0.961 . S
H1923 C1915 0.960 . S
H1924 C1916 0.930 . S
H1925 C1917 0.929 . S
H1926 C1934 0.929 . S
H1927 C1936 0.930 . S
H1928 C1938 0.930 . S
H1929 C1941 0.929 . S
H1930 C1944 0.930 . S
H1931 C1946 0.960 . S
H1932 C1946 0.960 . S
H1933 C1946 0.960 . S
C1934 H1926 0.929 . S
C1934 C1935 1.377 . S
C1934 C1936 1.384 . S
C1935 C1934 1.377 . S
C1935 C1941 1.390 . S
C1936 H1927 0.930 . S
C1936 C1934 1.384 . S
C1936 C1937 1.372 . S
C1937 C1936 1.372 . S
C1937 C1938 1.400 . S
C1937 C1942 1.490 . S
C1938 H1928 0.930 . S
C1938 C1937 1.400 . S
C1938 C1941 1.386 . S
H1939 C1955 0.930 . S
H1940 C1956 0.931 . S
C1941 H1929 0.929 . S
C1941 C1935 1.390 . S
C1941 C1938 1.386 . S
C1942 C1937 1.490 . S
C1942 C1944 1.395 . S
C1942 C1945 1.403 . S
H1943 C1949 0.930 . S
C1944 H1930 0.930 . S
C1944 C1942 1.395 . S
C1944 C1947 1.403 . S
C1945 C1942 1.403 . S
C1945 C1946 1.524 . S
C1945 C1949 1.400 . S
C1946 H1931 0.960 . S
C1946 H1932 0.960 . S
C1946 H1933 0.960 . S
C1946 C1945 1.524 . S
C1947 C1944 1.403 . S
C1947 C1948 1.392 . S
C1947 C1951 1.495 . S
C1948 C1947 1.392 . S
C1948 C1949 1.385 . S
C1948 C1950 1.478 . S
C1949 H1943 0.930 . S
C1949 C1945 1.400 . S
C1949 C1948 1.385 . S
C1950 C1948 1.478 . S
C1950 C1952 1.381 . S
C1950 C1956 1.383 . S
C1951 C1947 1.495 . S
C1951 H1957 0.959 . S
C1951 H1958 0.961 . S
C1951 H1959 0.960 . S
C1952 C1950 1.381 . S
C1952 C1953 1.394 . S
C1952 H1960 0.930 . S
C1953 C1952 1.394 . S
C1953 C1954 1.383 . S
C1953 H1961 0.929 . S
C1954 C1953 1.383 . S
C1954 C1955 1.377 . S
C1955 H1939 0.930 . S
C1955 C1954 1.377 . S
C1955 C1956 1.379 . S
C1956 H1940 0.931 . S
C1956 C1950 1.383 . S
C1956 C1955 1.379 . S
H1957 C1951 0.959 . S
H1958 C1951 0.961 . S
H1959 C1951 0.960 . S
H1960 C1952 0.930 . S
H1961 C1953 0.929 . S
H1962 C1970 0.929 . S
H1963 C1972 0.930 . S
H1964 C1974 0.930 . S
H1965 C1977 0.929 . S
H1966 C1980 0.930 . S
H1967 C1982 0.960 . S
H1968 C1982 0.960 . S
H1969 C1982 0.960 . S
C1970 H1962 0.929 . S
C1970 C1971 1.377 . S
C1970 C1972 1.384 . S
C1971 C1970 1.377 . S
C1971 C1977 1.390 . S
C1972 H1963 0.930 . S
C1972 C1970 1.384 . S
C1972 C1973 1.372 . S
C1973 C1972 1.372 . S
C1973 C1974 1.400 . S
C1973 C1978 1.490 . S
C1974 H1964 0.930 . S
C1974 C1973 1.400 . S
C1974 C1977 1.386 . S
H1975 C1991 0.980 . S
H1976 C1992 0.931 . S
C1977 H1965 0.929 . S
C1977 C1971 1.390 . S
C1977 C1974 1.386 . S
C1978 C1973 1.490 . S
C1978 C1980 1.395 . S
C1978 C1981 1.403 . S
H1979 C1985 0.930 . S
C1980 H1966 0.930 . S
C1980 C1978 1.395 . S
C1980 C1983 1.403 . S
C1981 C1978 1.403 . S
C1981 C1982 1.524 . S
C1981 C1985 1.400 . S
C1982 H1967 0.960 . S
C1982 H1968 0.960 . S
C1982 H1969 0.960 . S
C1982 C1981 1.524 . S
C1983 C1980 1.403 . S
C1983 C1984 1.392 . S
C1983 C1987 1.495 . S
C1984 C1983 1.392 . S
C1984 C1985 1.385 . S
C1984 C1986 1.478 . S
C1985 H1979 0.930 . S
C1985 C1981 1.400 . S
C1985 C1984 1.385 . S
C1986 C1984 1.478 . S
C1986 C1988 1.381 . S
C1986 C1992 1.383 . S
C1987 C1983 1.495 . S
C1987 H1993 0.959 . S
C1987 H1994 0.961 . S
C1987 H1995 0.960 . S
C1988 C1986 1.381 . S
C1988 C1989 1.394 . S
C1988 H1996 0.930 . S
C1989 C1988 1.394 . S
C1989 C1990 1.383 . S
C1989 H1997 0.929 . S
C1990 C1989 1.383 . S
C1990 C1991 1.377 . S
C1991 H1975 0.980 . S
C1991 C1990 1.377 . S
C1991 C1992 1.379 . S
C1992 H1976 0.931 . S
C1992 C1986 1.383 . S
C1992 C1991 1.379 . S
H1993 C1987 0.959 . S
H1994 C1987 0.961 . S
H1995 C1987 0.960 . S
H1996 C1988 0.930 . S
H1997 C1989 0.929 . S
H1998 C2006 0.929 . S
H1999 C2008 0.930 . S
H2000 C2010 0.930 . S
H2001 C2013 0.929 . S
H2002 C2016 0.930 . S
H2003 C2018 0.960 . S
H2004 C2018 0.960 . S
H2005 C2018 0.960 . S
C2006 H1998 0.929 . S
C2006 C2007 1.377 . S
C2006 C2008 1.384 . S
C2007 C2006 1.377 . S
C2007 C2013 1.390 . S
C2008 H1999 0.930 . S
C2008 C2006 1.384 . S
C2008 C2009 1.372 . S
C2009 C2008 1.372 . S
C2009 C2010 1.400 . S
C2009 C2014 1.490 . S
C2010 H2000 0.930 . S
C2010 C2009 1.400 . S
C2010 C2013 1.386 . S
H2011 C2027 0.930 . S
H2012 C2028 0.931 . S
C2013 H2001 0.929 . S
C2013 C2007 1.390 . S
C2013 C2010 1.386 . S
C2014 C2009 1.490 . S
C2014 C2016 1.395 . S
C2014 C2017 1.403 . S
H2015 C2021 0.930 . S
C2016 H2002 0.930 . S
C2016 C2014 1.395 . S
C2016 C2019 1.403 . S
C2017 C2014 1.403 . S
C2017 C2018 1.524 . S
C2017 C2021 1.400 . S
C2018 H2003 0.960 . S
C2018 H2004 0.960 . S
C2018 H2005 0.960 . S
C2018 C2017 1.524 . S
C2019 C2016 1.403 . S
C2019 C2020 1.392 . S
C2019 C2023 1.495 . S
C2020 C2019 1.392 . S
C2020 C2021 1.385 . S
C2020 C2022 1.478 . S
C2021 H2015 0.930 . S
C2021 C2017 1.400 . S
C2021 C2020 1.385 . S
C2022 C2020 1.478 . S
C2022 C2024 1.381 . S
C2022 C2028 1.383 . S
C2023 C2019 1.495 . S
C2023 H2029 0.959 . S
C2023 H2030 0.961 . S
C2023 H2031 0.960 . S
C2024 C2022 1.381 . S
C2024 C2025 1.394 . S
C2024 H2032 0.930 . S
C2025 C2024 1.394 . S
C2025 C2026 1.383 . S
C2025 H2033 0.929 . S
C2026 C2025 1.383 . S
C2026 C2027 1.377 . S
C2027 H2011 0.930 . S
C2027 C2026 1.377 . S
C2027 C2028 1.379 . S
C2028 H2012 0.931 . S
C2028 C2022 1.383 . S
C2028 C2027 1.379 . S
H2029 C2023 0.959 . S
H2030 C2023 0.961 . S
H2031 C2023 0.960 . S
H2032 C2024 0.930 . S
H2033 C2025 0.929 . S
H2034 C2042 0.929 . S
H2035 C2044 0.930 . S
H2036 C2046 0.930 . S
H2037 C2049 0.929 . S
H2038 C2052 0.930 . S
H2039 C2054 0.960 . S
H2040 C2054 0.960 . S
H2041 C2054 0.960 . S
C2042 H2034 0.929 . S
C2042 C2043 1.377 . S
C2042 C2044 1.384 . S
C2043 C2042 1.377 . S
C2043 C2049 1.390 . S
C2044 H2035 0.930 . S
C2044 C2042 1.384 . S
C2044 C2045 1.372 . S
C2045 C2044 1.372 . S
C2045 C2046 1.400 . S
C2045 C2050 1.490 . S
C2046 H2036 0.930 . S
C2046 C2045 1.400 . S
C2046 C2049 1.386 . S
H2047 C2063 0.930 . S
H2048 C2064 0.931 . S
C2049 H2037 0.929 . S
C2049 C2043 1.390 . S
C2049 C2046 1.386 . S
C2050 C2045 1.490 . S
C2050 C2052 1.395 . S
C2050 C2053 1.403 . S
H2051 C2057 0.930 . S
C2052 H2038 0.930 . S
C2052 C2050 1.395 . S
C2052 C2055 1.403 . S
C2053 C2050 1.403 . S
C2053 C2054 1.524 . S
C2053 C2057 1.400 . S
C2054 H2039 0.960 . S
C2054 H2040 0.960 . S
C2054 H2041 0.960 . S
C2054 C2053 1.524 . S
C2055 C2052 1.403 . S
C2055 C2056 1.392 . S
C2055 C2059 1.495 . S
C2056 C2055 1.392 . S
C2056 C2057 1.385 . S
C2056 C2058 1.478 . S
C2057 H2051 0.930 . S
C2057 C2053 1.400 . S
C2057 C2056 1.385 . S
C2058 C2056 1.478 . S
C2058 C2060 1.381 . S
C2058 C2064 1.383 . S
C2059 C2055 1.495 . S
C2059 H2065 0.959 . S
C2059 H2066 0.961 . S
C2059 H2067 0.960 . S
C2060 C2058 1.381 . S
C2060 C2061 1.394 . S
C2060 H2068 0.930 . S
C2061 C2060 1.394 . S
C2061 C2062 1.383 . S
C2061 H2069 0.929 . S
C2062 C2061 1.383 . S
C2062 C2063 1.377 . S
C2063 H2047 0.930 . S
C2063 C2062 1.377 . S
C2063 C2064 1.379 . S
C2064 H2048 0.931 . S
C2064 C2058 1.383 . S
C2064 C2063 1.379 . S
H2065 C2059 0.959 . S
H2066 C2059 0.961 . S
H2067 C2059 0.960 . S
H2068 C2060 0.930 . S
H2069 C2061 0.929 . S
H2070 C2078 0.969 . S
H2071 C2080 0.925 . S
H2072 C2082 0.930 . S
H2073 C2085 0.929 . S
H2074 C2088 0.930 . S
H2075 C2090 0.960 . S
H2076 C2090 0.960 . S
H2077 C2090 0.960 . S
C2078 H2070 0.969 . S
C2078 C2079 1.377 . S
C2078 C2080 1.384 . S
C2079 C2078 1.377 . S
C2079 C2085 1.390 . S
C2080 H2071 0.925 . S
C2080 C2078 1.384 . S
C2080 C2081 1.372 . S
C2081 C2080 1.372 . S
C2081 C2082 1.400 . S
C2081 C2086 1.490 . S
C2082 H2072 0.930 . S
C2082 C2081 1.400 . S
C2082 C2085 1.386 . S
H2083 C2099 0.930 . S
H2084 C2100 0.931 . S
C2085 H2073 0.929 . S
C2085 C2079 1.390 . S
C2085 C2082 1.386 . S
C2086 C2081 1.490 . S
C2086 C2088 1.395 . S
C2086 C2089 1.403 . S
H2087 C2093 0.930 . S
C2088 H2074 0.930 . S
C2088 C2086 1.395 . S
C2088 C2091 1.403 . S
C2089 C2086 1.403 . S
C2089 C2090 1.524 . S
C2089 C2093 1.400 . S
C2090 H2075 0.960 . S
C2090 H2076 0.960 . S
C2090 H2077 0.960 . S
C2090 C2089 1.524 . S
C2091 C2088 1.403 . S
C2091 C2092 1.392 . S
C2091 C2095 1.495 . S
C2092 C2091 1.392 . S
C2092 C2093 1.385 . S
C2092 C2094 1.478 . S
C2093 H2087 0.930 . S
C2093 C2089 1.400 . S
C2093 C2092 1.385 . S
C2094 C2092 1.478 . S
C2094 C2096 1.381 . S
C2094 C2100 1.383 . S
C2095 C2091 1.495 . S
C2095 H2101 0.959 . S
C2095 H2102 0.961 . S
C2095 H2103 0.960 . S
C2096 C2094 1.381 . S
C2096 C2097 1.394 . S
C2096 H2104 0.879 1_545 S
C2097 C2096 1.394 . S
C2097 C2098 1.383 . S
C2097 H2105 0.924 . S
C2098 C2097 1.383 . S
C2098 C2099 1.377 . S
C2099 H2083 0.930 . S
C2099 C2098 1.377 . S
C2099 C2100 1.379 . S
C2100 H2084 0.931 . S
C2100 C2094 1.383 . S
C2100 C2099 1.379 . S
H2101 C2095 0.959 . S
H2102 C2095 0.961 . S
H2103 C2095 0.960 . S
H2104 C2096 0.879 1_565 S
H2105 C2097 0.924 . S
H2106 C2114 0.929 . S
H2107 C2116 0.930 . S
H2108 C2118 0.930 . S
H2109 C2121 0.929 . S
H2110 C2124 0.930 . S
H2111 C2126 0.960 . S
H2112 C2126 0.960 . S
H2113 C2126 0.960 . S
C2114 H2106 0.929 . S
C2114 C2115 1.377 . S
C2114 C2116 1.384 . S
C2115 C2114 1.377 . S
C2115 C2121 1.390 . S
C2116 H2107 0.930 . S
C2116 C2114 1.384 . S
C2116 C2117 1.372 . S
C2117 C2116 1.372 . S
C2117 C2118 1.400 . S
C2117 C2122 1.490 . S
C2118 H2108 0.930 . S
C2118 C2117 1.400 . S
C2118 C2121 1.386 . S
H2119 C2135 0.930 . S
H2120 C2136 0.931 . S
C2121 H2109 0.929 . S
C2121 C2115 1.390 . S
C2121 C2118 1.386 . S
C2122 C2117 1.490 . S
C2122 C2124 1.395 . S
C2122 C2125 1.403 . S
H2123 C2129 0.930 . S
C2124 H2110 0.930 . S
C2124 C2122 1.395 . S
C2124 C2127 1.403 . S
C2125 C2122 1.403 . S
C2125 C2126 1.524 . S
C2125 C2129 1.400 . S
C2126 H2111 0.960 . S
C2126 H2112 0.960 . S
C2126 H2113 0.960 . S
C2126 C2125 1.524 . S
C2127 C2124 1.403 . S
C2127 C2128 1.392 . S
C2127 C2131 1.495 . S
C2128 C2127 1.392 . S
C2128 C2129 1.385 . S
C2128 C2130 1.478 . S
C2129 H2123 0.930 . S
C2129 C2125 1.400 . S
C2129 C2128 1.385 . S
C2130 C2128 1.478 . S
C2130 C2132 1.381 . S
C2130 C2136 1.383 . S
C2131 C2127 1.495 . S
C2131 H2137 0.959 . S
C2131 H2138 0.961 . S
C2131 H2139 0.960 . S
C2132 C2130 1.381 . S
C2132 C2133 1.394 . S
C2132 H2140 0.930 . S
C2133 C2132 1.394 . S
C2133 C2134 1.383 . S
C2133 H2141 0.929 . S
C2134 C2133 1.383 . S
C2134 C2135 1.377 . S
C2135 H2119 0.930 . S
C2135 C2134 1.377 . S
C2135 C2136 1.379 . S
C2136 H2120 0.931 . S
C2136 C2130 1.383 . S
C2136 C2135 1.379 . S
H2137 C2131 0.959 . S
H2138 C2131 0.961 . S
H2139 C2131 0.960 . S
H2140 C2132 0.930 . S
H2141 C2133 0.929 . S
H2142 C2150 0.929 . S
H2143 C2152 0.930 . S
H2144 C2154 0.930 . S
H2145 C2157 0.929 . S
H2146 C2160 0.930 . S
H2147 C2162 0.960 . S
H2148 C2162 0.960 . S
H2149 C2162 0.960 . S
C2150 H2142 0.929 . S
C2150 C2151 1.377 . S
C2150 C2152 1.384 . S
C2151 C2150 1.377 . S
C2151 C2157 1.390 . S
C2152 H2143 0.930 . S
C2152 C2150 1.384 . S
C2152 C2153 1.372 . S
C2153 C2152 1.372 . S
C2153 C2154 1.400 . S
C2153 C2158 1.490 . S
C2154 H2144 0.930 . S
C2154 C2153 1.400 . S
C2154 C2157 1.386 . S
H2155 C2171 0.930 . S
H2156 C2172 0.931 . S
C2157 H2145 0.929 . S
C2157 C2151 1.390 . S
C2157 C2154 1.386 . S
C2158 C2153 1.490 . S
C2158 C2160 1.395 . S
C2158 C2161 1.403 . S
H2159 C2165 0.930 . S
C2160 H2146 0.930 . S
C2160 C2158 1.395 . S
C2160 C2163 1.403 . S
C2161 C2158 1.403 . S
C2161 C2162 1.524 . S
C2161 C2165 1.400 . S
C2162 H2147 0.960 . S
C2162 H2148 0.960 . S
C2162 H2149 0.960 . S
C2162 C2161 1.524 . S
C2163 C2160 1.403 . S
C2163 C2164 1.392 . S
C2163 C2167 1.495 . S
C2164 C2163 1.392 . S
C2164 C2165 1.385 . S
C2164 C2166 1.478 . S
C2165 H2159 0.930 . S
C2165 C2161 1.400 . S
C2165 C2164 1.385 . S
C2166 C2164 1.478 . S
C2166 C2168 1.381 . S
C2166 C2172 1.383 . S
C2167 C2163 1.495 . S
C2167 H2173 0.959 . S
C2167 H2174 0.961 . S
C2167 H2175 0.960 . S
C2168 C2166 1.381 . S
C2168 C2169 1.394 . S
C2168 H2176 0.930 . S
C2169 C2168 1.394 . S
C2169 C2170 1.383 . S
C2169 H2177 0.929 . S
C2170 C2169 1.383 . S
C2170 C2171 1.377 . S
C2171 H2155 0.930 . S
C2171 C2170 1.377 . S
C2171 C2172 1.379 . S
C2172 H2156 0.931 . S
C2172 C2166 1.383 . S
C2172 C2171 1.379 . S
H2173 C2167 0.959 . S
H2174 C2167 0.961 . S
H2175 C2167 0.960 . S
H2176 C2168 0.930 . S
H2177 C2169 0.929 . S
H2178 C2186 0.929 . S
H2179 C2188 0.930 . S
H2180 C2190 0.930 . S
H2181 C2193 0.929 . S
H2182 C2196 0.930 . S
H2183 C2198 0.960 . S
H2184 C2198 0.960 . S
H2185 C2198 0.960 . S
C2186 H2178 0.929 . S
C2186 C2187 1.377 . S
C2186 C2188 1.384 . S
C2187 C2186 1.377 . S
C2187 C2193 1.390 . S
C2188 H2179 0.930 . S
C2188 C2186 1.384 . S
C2188 C2189 1.372 . S
C2189 C2188 1.372 . S
C2189 C2190 1.400 . S
C2189 C2194 1.490 . S
C2190 H2180 0.930 . S
C2190 C2189 1.400 . S
C2190 C2193 1.386 . S
H2191 C2207 0.930 . S
H2192 C2208 0.931 . S
C2193 H2181 0.929 . S
C2193 C2187 1.390 . S
C2193 C2190 1.386 . S
C2194 C2189 1.490 . S
C2194 C2196 1.395 . S
C2194 C2197 1.403 . S
H2195 C2201 0.930 . S
C2196 H2182 0.930 . S
C2196 C2194 1.395 . S
C2196 C2199 1.403 . S
C2197 C2194 1.403 . S
C2197 C2198 1.524 . S
C2197 C2201 1.400 . S
C2198 H2183 0.960 . S
C2198 H2184 0.960 . S
C2198 H2185 0.960 . S
C2198 C2197 1.524 . S
C2199 C2196 1.403 . S
C2199 C2200 1.392 . S
C2199 C2203 1.495 1_455 S
C2200 C2199 1.392 . S
C2200 C2201 1.385 . S
C2200 C2202 1.478 . S
C2201 H2195 0.930 . S
C2201 C2197 1.400 . S
C2201 C2200 1.385 . S
C2202 C2200 1.478 . S
C2202 C2204 1.381 . S
C2202 C2208 1.383 . S
C2203 C2199 1.495 1_655 S
C2203 H2209 0.959 . S
C2203 H2210 0.950 1_655 S
C2203 H2211 0.960 . S
C2204 C2202 1.381 . S
C2204 C2205 1.394 . S
C2204 H2212 0.930 . S
C2205 C2204 1.394 . S
C2205 C2206 1.383 . S
C2205 H2213 0.929 . S
C2206 C2205 1.383 . S
C2206 C2207 1.377 . S
C2207 H2191 0.930 . S
C2207 C2206 1.377 . S
C2207 C2208 1.379 . S
C2208 H2192 0.931 . S
C2208 C2202 1.383 . S
C2208 C2207 1.379 . S
H2209 C2203 0.959 . S
H2210 C2203 0.950 1_455 S
H2211 C2203 0.960 . S
H2212 C2204 0.930 . S
H2213 C2205 0.929 . S
H2214 C2222 0.929 . S
H2215 C2224 0.930 . S
H2216 C2226 0.930 . S
H2217 C2229 0.929 . S
H2218 C2232 0.930 . S
H2219 C2234 0.960 . S
H2220 C2234 0.960 . S
H2221 C2234 0.960 . S
C2222 H2214 0.929 . S
C2222 C2223 1.377 . S
C2222 C2224 1.384 . S
C2223 C2222 1.377 . S
C2223 C2229 1.390 . S
C2224 H2215 0.930 . S
C2224 C2222 1.384 . S
C2224 C2225 1.372 . S
C2225 C2224 1.372 . S
C2225 C2226 1.400 . S
C2225 C2230 1.490 . S
C2226 H2216 0.930 . S
C2226 C2225 1.400 . S
C2226 C2229 1.386 . S
H2227 C2243 0.930 . S
H2228 C2244 0.931 . S
C2229 H2217 0.929 . S
C2229 C2223 1.390 . S
C2229 C2226 1.386 . S
C2230 C2225 1.490 . S
C2230 C2232 1.395 . S
C2230 C2233 1.403 . S
H2231 C2237 0.930 . S
C2232 H2218 0.930 . S
C2232 C2230 1.395 . S
C2232 C2235 1.403 . S
C2233 C2230 1.403 . S
C2233 C2234 1.524 . S
C2233 C2237 1.400 . S
C2234 H2219 0.960 . S
C2234 H2220 0.960 . S
C2234 H2221 0.960 . S
C2234 C2233 1.524 . S
C2235 C2232 1.403 . S
C2235 C2236 1.392 . S
C2235 C2239 1.495 . S
C2236 C2235 1.392 . S
C2236 C2237 1.385 . S
C2236 C2238 1.478 . S
C2237 H2231 0.930 . S
C2237 C2233 1.400 . S
C2237 C2236 1.385 . S
C2238 C2236 1.478 . S
C2238 C2240 1.381 . S
C2238 C2244 1.383 . S
C2239 C2235 1.495 . S
C2239 H2245 0.959 . S
C2239 H2246 0.961 . S
C2239 H2247 0.960 . S
C2240 C2238 1.381 . S
C2240 C2241 1.394 . S
C2240 H2248 0.930 . S
C2241 C2240 1.394 . S
C2241 C2242 1.383 . S
C2241 H2249 0.929 . S
C2242 C2241 1.383 . S
C2242 C2243 1.377 . S
C2243 H2227 0.930 . S
C2243 C2242 1.377 . S
C2243 C2244 1.379 . S
C2244 H2228 0.931 . S
C2244 C2238 1.383 . S
C2244 C2243 1.379 . S
H2245 C2239 0.959 . S
H2246 C2239 0.961 . S
H2247 C2239 0.960 . S
H2248 C2240 0.930 . S
H2249 C2241 0.929 . S
H2250 C2258 0.929 . S
H2251 C2260 0.930 . S
H2252 C2262 0.930 . S
H2253 C2265 0.929 . S
H2254 C2268 0.930 . S
H2255 C2270 0.960 . S
H2256 C2270 0.960 . S
H2257 C2270 0.960 . S
C2258 H2250 0.929 . S
C2258 C2259 1.377 . S
C2258 C2260 1.384 . S
C2259 C2258 1.377 . S
C2259 C2265 1.390 . S
C2260 H2251 0.930 . S
C2260 C2258 1.384 . S
C2260 C2261 1.372 . S
C2261 C2260 1.372 . S
C2261 C2262 1.400 . S
C2261 C2266 1.490 . S
C2262 H2252 0.930 . S
C2262 C2261 1.400 . S
C2262 C2265 1.386 . S
H2263 C2279 0.930 . S
H2264 C2280 0.931 . S
C2265 H2253 0.929 . S
C2265 C2259 1.390 . S
C2265 C2262 1.386 . S
C2266 C2261 1.490 . S
C2266 C2268 1.395 . S
C2266 C2269 1.403 . S
H2267 C2273 0.930 . S
C2268 H2254 0.930 . S
C2268 C2266 1.395 . S
C2268 C2271 1.403 . S
C2269 C2266 1.403 . S
C2269 C2270 1.524 . S
C2269 C2273 1.400 . S
C2270 H2255 0.960 . S
C2270 H2256 0.960 . S
C2270 H2257 0.960 . S
C2270 C2269 1.524 . S
C2271 C2268 1.403 . S
C2271 C2272 1.392 . S
C2271 C2275 1.495 . S
C2272 C2271 1.392 . S
C2272 C2273 1.385 . S
C2272 C2274 1.478 . S
C2273 H2267 0.930 . S
C2273 C2269 1.400 . S
C2273 C2272 1.385 . S
C2274 C2272 1.478 . S
C2274 C2276 1.381 . S
C2274 C2280 1.383 . S
C2275 C2271 1.495 . S
C2275 H2281 0.959 . S
C2275 H2282 0.961 . S
C2275 H2283 0.960 . S
C2276 C2274 1.381 . S
C2276 C2277 1.394 . S
C2276 H2284 0.930 . S
C2277 C2276 1.394 . S
C2277 C2278 1.383 . S
C2277 H2285 0.929 . S
C2278 C2277 1.383 . S
C2278 C2279 1.377 . S
C2279 H2263 0.930 . S
C2279 C2278 1.377 . S
C2279 C2280 1.379 . S
C2280 H2264 0.931 . S
C2280 C2274 1.383 . S
C2280 C2279 1.379 . S
H2281 C2275 0.959 . S
H2282 C2275 0.961 . S
H2283 C2275 0.960 . S
H2284 C2276 0.930 . S
H2285 C2277 0.929 . S
H2286 C2294 0.929 . S
H2287 C2296 0.930 . S
H2288 C2298 0.930 . S
H2289 C2301 0.929 . S
H2290 C2304 0.930 . S
H2291 C2306 0.960 . S
H2292 C2306 0.960 . S
H2293 C2306 0.960 . S
C2294 H2286 0.929 . S
C2294 C2295 1.377 . S
C2294 C2296 1.384 . S
C2295 C2294 1.377 . S
C2295 C2301 1.390 . S
C2296 H2287 0.930 . S
C2296 C2294 1.384 . S
C2296 C2297 1.372 . S
C2297 C2296 1.372 . S
C2297 C2298 1.400 . S
C2297 C2302 1.490 . S
C2298 H2288 0.930 . S
C2298 C2297 1.400 . S
C2298 C2301 1.386 . S
H2299 C2315 0.930 . S
H2300 C2316 0.931 . S
C2301 H2289 0.929 . S
C2301 C2295 1.390 . S
C2301 C2298 1.386 . S
C2302 C2297 1.490 . S
C2302 C2304 1.395 . S
C2302 C2305 1.403 . S
H2303 C2309 0.930 . S
C2304 H2290 0.930 . S
C2304 C2302 1.395 . S
C2304 C2307 1.403 . S
C2305 C2302 1.403 . S
C2305 C2306 1.524 . S
C2305 C2309 1.400 . S
C2306 H2291 0.960 . S
C2306 H2292 0.960 . S
C2306 H2293 0.960 . S
C2306 C2305 1.524 . S
C2307 C2304 1.403 . S
C2307 C2308 1.392 . S
C2307 C2311 1.495 . S
C2308 C2307 1.392 . S
C2308 C2309 1.385 . S
C2308 C2310 1.478 . S
C2309 H2303 0.930 . S
C2309 C2305 1.400 . S
C2309 C2308 1.385 . S
C2310 C2308 1.478 . S
C2310 C2312 1.381 . S
C2310 C2316 1.383 . S
C2311 C2307 1.495 . S
C2311 H2317 0.959 . S
C2311 H2318 0.961 . S
C2311 H2319 0.960 . S
C2312 C2310 1.381 . S
C2312 C2313 1.394 . S
C2312 H2320 0.930 . S
C2313 C2312 1.394 . S
C2313 C2314 1.383 . S
C2313 H2321 0.929 . S
C2314 C2313 1.383 . S
C2314 C2315 1.377 . S
C2315 H2299 0.930 . S
C2315 C2314 1.377 . S
C2315 C2316 1.379 . S
C2316 H2300 0.931 . S
C2316 C2310 1.383 . S
C2316 C2315 1.379 . S
H2317 C2311 0.959 . S
H2318 C2311 0.961 . S
H2319 C2311 0.960 . S
H2320 C2312 0.930 . S
H2321 C2313 0.929 . S
H2322 C2330 0.929 . S
H2323 C2332 0.930 . S
H2324 C2334 0.930 . S
H2325 C2337 0.929 . S
H2326 C2340 0.930 . S
H2327 C2342 0.960 1_655 S
H2328 C2342 0.960 . S
H2329 C2342 0.960 . S
C2330 H2322 0.929 . S
C2330 C2331 1.377 . S
C2330 C2332 1.384 . S
C2331 C2330 1.377 . S
C2331 C2337 1.390 . S
C2332 H2323 0.930 . S
C2332 C2330 1.384 . S
C2332 C2333 1.372 . S
C2333 C2332 1.372 . S
C2333 C2334 1.400 . S
C2333 C2338 1.490 . S
C2334 H2324 0.930 . S
C2334 C2333 1.400 . S
C2334 C2337 1.386 . S
H2335 C2351 0.930 . S
H2336 C2352 0.931 . S
C2337 H2325 0.929 . S
C2337 C2331 1.390 . S
C2337 C2334 1.386 . S
C2338 C2333 1.490 . S
C2338 C2340 1.395 . S
C2338 C2341 1.403 . S
H2339 C2345 0.930 . S
C2340 H2326 0.930 . S
C2340 C2338 1.395 . S
C2340 C2343 1.403 . S
C2341 C2338 1.403 . S
C2341 C2342 1.524 . S
C2341 C2345 1.400 . S
C2342 H2327 0.960 1_455 S
C2342 H2328 0.960 . S
C2342 H2329 0.960 . S
C2342 C2341 1.524 . S
C2343 C2340 1.403 . S
C2343 C2344 1.392 . S
C2343 C2347 1.495 . S
C2344 C2343 1.392 . S
C2344 C2345 1.385 . S
C2344 C2346 1.478 . S
C2345 H2339 0.930 . S
C2345 C2341 1.400 . S
C2345 C2344 1.385 . S
C2346 C2344 1.478 . S
C2346 C2348 1.381 . S
C2346 C2352 1.383 . S
C2347 C2343 1.495 . S
C2347 H2353 0.959 . S
C2347 H2354 0.961 . S
C2347 H2355 0.960 . S
C2348 C2346 1.381 . S
C2348 C2349 1.394 . S
C2348 H2356 0.930 . S
C2349 C2348 1.394 . S
C2349 C2350 1.383 . S
C2349 H2357 0.929 . S
C2350 C2349 1.383 . S
C2350 C2351 1.377 . S
C2351 H2335 0.930 . S
C2351 C2350 1.377 . S
C2351 C2352 1.379 . S
C2352 H2336 0.931 . S
C2352 C2346 1.383 . S
C2352 C2351 1.379 . S
H2353 C2347 0.959 . S
H2354 C2347 0.961 . S
H2355 C2347 0.960 . S
H2356 C2348 0.930 . S
H2357 C2349 0.929 . S
H2358 C2366 0.929 . S
H2359 C2368 0.930 . S
H2360 C2370 0.930 . S
H2361 C2373 0.929 . S
H2362 C2376 0.930 . S
H2363 C2378 0.960 . S
H2364 C2378 0.960 . S
H2365 C2378 0.960 . S
C2366 H2358 0.929 . S
C2366 C2367 1.377 . S
C2366 C2368 1.384 . S
C2367 C2366 1.377 . S
C2367 C2373 1.390 . S
C2368 H2359 0.930 . S
C2368 C2366 1.384 . S
C2368 C2369 1.372 . S
C2369 C2368 1.372 . S
C2369 C2370 1.400 . S
C2369 C2374 1.490 . S
C2370 H2360 0.930 . S
C2370 C2369 1.400 . S
C2370 C2373 1.386 . S
H2371 C2387 0.930 . S
H2372 C2388 0.931 . S
C2373 H2361 0.929 . S
C2373 C2367 1.390 . S
C2373 C2370 1.386 . S
C2374 C2369 1.490 . S
C2374 C2376 1.395 . S
C2374 C2377 1.403 . S
H2375 C2381 0.930 . S
C2376 H2362 0.930 . S
C2376 C2374 1.395 . S
C2376 C2379 1.403 . S
C2377 C2374 1.403 . S
C2377 C2378 1.524 . S
C2377 C2381 1.400 . S
C2378 H2363 0.960 . S
C2378 H2364 0.960 . S
C2378 H2365 0.960 . S
C2378 C2377 1.524 . S
C2379 C2376 1.403 . S
C2379 C2380 1.392 . S
C2379 C2383 1.495 . S
C2380 C2379 1.392 . S
C2380 C2381 1.385 . S
C2380 C2382 1.478 . S
C2381 H2375 0.930 . S
C2381 C2377 1.400 . S
C2381 C2380 1.385 . S
C2382 C2380 1.478 . S
C2382 C2384 1.381 . S
C2382 C2388 1.383 . S
C2383 C2379 1.495 . S
C2383 H2389 0.959 . S
C2383 H2390 0.961 . S
C2383 H2391 0.960 . S
C2384 C2382 1.381 . S
C2384 C2385 1.394 . S
C2384 H2392 0.930 . S
C2385 C2384 1.394 . S
C2385 C2386 1.383 . S
C2385 H2393 0.929 . S
C2386 C2385 1.383 . S
C2386 C2387 1.377 . S
C2387 H2371 0.930 . S
C2387 C2386 1.377 . S
C2387 C2388 1.379 . S
C2388 H2372 0.931 . S
C2388 C2382 1.383 . S
C2388 C2387 1.379 . S
H2389 C2383 0.959 . S
H2390 C2383 0.961 . S
H2391 C2383 0.960 . S
H2392 C2384 0.930 . S
H2393 C2385 0.929 . S
H2394 C2402 0.929 . S
H2395 C2404 0.930 . S
H2396 C2406 0.930 . S
H2397 C2409 0.929 . S
H2398 C2412 0.930 . S
H2399 C2414 0.960 . S
H2400 C2414 0.960 . S
H2401 C2414 0.960 . S
C2402 H2394 0.929 . S
C2402 C2403 1.377 . S
C2402 C2404 1.384 . S
C2403 C2402 1.377 . S
C2403 C2409 1.390 . S
C2404 H2395 0.930 . S
C2404 C2402 1.384 . S
C2404 C2405 1.372 . S
C2405 C2404 1.372 . S
C2405 C2406 1.400 . S
C2405 C2410 1.490 . S
C2406 H2396 0.930 . S
C2406 C2405 1.400 . S
C2406 C2409 1.386 . S
H2407 C2423 0.930 . S
H2408 C2424 0.931 . S
C2409 H2397 0.929 . S
C2409 C2403 1.390 . S
C2409 C2406 1.386 . S
C2410 C2405 1.490 . S
C2410 C2412 1.395 . S
C2410 C2413 1.403 . S
H2411 C2417 0.930 . S
C2412 H2398 0.930 . S
C2412 C2410 1.395 . S
C2412 C2415 1.403 . S
C2413 C2410 1.403 . S
C2413 C2414 1.524 . S
C2413 C2417 1.400 . S
C2414 H2399 0.960 . S
C2414 H2400 0.960 . S
C2414 H2401 0.960 . S
C2414 C2413 1.524 . S
C2415 C2412 1.403 . S
C2415 C2416 1.392 . S
C2415 C2419 1.495 . S
C2416 C2415 1.392 . S
C2416 C2417 1.385 . S
C2416 C2418 1.478 . S
C2417 H2411 0.930 . S
C2417 C2413 1.400 . S
C2417 C2416 1.385 . S
C2418 C2416 1.478 . S
C2418 C2420 1.381 . S
C2418 C2424 1.383 . S
C2419 C2415 1.495 . S
C2419 H2425 0.959 . S
C2419 H2426 0.961 . S
C2419 H2427 0.960 . S
C2420 C2418 1.381 . S
C2420 C2421 1.394 . S
C2420 H2428 0.930 . S
C2421 C2420 1.394 . S
C2421 C2422 1.383 . S
C2421 H2429 0.929 . S
C2422 C2421 1.383 . S
C2422 C2423 1.377 . S
C2423 H2407 0.930 . S
C2423 C2422 1.377 . S
C2423 C2424 1.379 . S
C2424 H2408 0.931 . S
C2424 C2418 1.383 . S
C2424 C2423 1.379 . S
H2425 C2419 0.959 . S
H2426 C2419 0.961 . S
H2427 C2419 0.960 . S
H2428 C2420 0.930 . S
H2429 C2421 0.929 . S
H2430 C2438 0.929 . S
H2431 C2440 0.930 . S
H2432 C2442 0.930 . S
H2433 C2445 0.929 . S
H2434 C2448 0.930 . S
H2435 C2450 0.960 . S
H2436 C2450 0.960 . S
H2437 C2450 0.960 . S
C2438 H2430 0.929 . S
C2438 C2439 1.377 . S
C2438 C2440 1.384 . S
C2439 C2438 1.377 . S
C2439 C2445 1.390 . S
C2440 H2431 0.930 . S
C2440 C2438 1.384 . S
C2440 C2441 1.372 . S
C2441 C2440 1.372 . S
C2441 C2442 1.400 . S
C2441 C2446 1.490 . S
C2442 H2432 0.930 . S
C2442 C2441 1.400 . S
C2442 C2445 1.386 . S
H2443 C2459 0.930 . S
H2444 C2460 0.931 . S
C2445 H2433 0.929 . S
C2445 C2439 1.390 . S
C2445 C2442 1.386 . S
C2446 C2441 1.490 . S
C2446 C2448 1.395 . S
C2446 C2449 1.403 . S
H2447 C2453 0.930 . S
C2448 H2434 0.930 . S
C2448 C2446 1.395 . S
C2448 C2451 1.403 . S
C2449 C2446 1.403 . S
C2449 C2450 1.524 . S
C2449 C2453 1.400 . S
C2450 H2435 0.960 . S
C2450 H2436 0.960 . S
C2450 H2437 0.960 . S
C2450 C2449 1.524 . S
C2451 C2448 1.403 . S
C2451 C2452 1.392 . S
C2451 C2455 1.495 . S
C2452 C2451 1.392 . S
C2452 C2453 1.385 . S
C2452 C2454 1.478 . S
C2453 H2447 0.930 . S
C2453 C2449 1.400 . S
C2453 C2452 1.385 . S
C2454 C2452 1.478 . S
C2454 C2456 1.381 . S
C2454 C2460 1.383 . S
C2455 C2451 1.495 . S
C2455 H2461 0.959 . S
C2455 H2462 0.961 . S
C2455 H2463 0.960 . S
C2456 C2454 1.381 . S
C2456 C2457 1.394 . S
C2456 H2464 0.930 . S
C2457 C2456 1.394 . S
C2457 C2458 1.383 . S
C2457 H2465 0.929 . S
C2458 C2457 1.383 . S
C2458 C2459 1.377 . S
C2459 H2443 0.930 . S
C2459 C2458 1.377 . S
C2459 C2460 1.379 . S
C2460 H2444 0.931 . S
C2460 C2454 1.383 . S
C2460 C2459 1.379 . S
H2461 C2455 0.959 . S
H2462 C2455 0.961 . S
H2463 C2455 0.960 . S
H2464 C2456 0.930 . S
H2465 C2457 0.929 . S
H2466 C2474 0.929 . S
H2467 C2476 0.930 . S
H2468 C2478 0.930 . S
H2469 C2481 0.929 . S
H2470 C2484 0.930 . S
H2471 C2486 0.960 . S
H2472 C2486 0.960 . S
H2473 C2486 0.960 . S
C2474 H2466 0.929 . S
C2474 C2475 1.377 . S
C2474 C2476 1.384 . S
C2475 C2474 1.377 . S
C2475 C2481 1.390 . S
C2476 H2467 0.930 . S
C2476 C2474 1.384 . S
C2476 C2477 1.372 . S
C2477 C2476 1.372 . S
C2477 C2478 1.400 . S
C2477 C2482 1.490 . S
C2478 H2468 0.930 . S
C2478 C2477 1.400 . S
C2478 C2481 1.386 . S
H2479 C2495 0.930 . S
H2480 C2496 0.931 . S
C2481 H2469 0.929 . S
C2481 C2475 1.390 . S
C2481 C2478 1.386 . S
C2482 C2477 1.490 . S
C2482 C2484 1.395 . S
C2482 C2485 1.403 . S
H2483 C2489 0.930 . S
C2484 H2470 0.930 . S
C2484 C2482 1.395 . S
C2484 C2487 1.403 . S
C2485 C2482 1.403 . S
C2485 C2486 1.524 . S
C2485 C2489 1.400 . S
C2486 H2471 0.960 . S
C2486 H2472 0.960 . S
C2486 H2473 0.960 . S
C2486 C2485 1.524 . S
C2487 C2484 1.403 . S
C2487 C2488 1.392 . S
C2487 C2491 1.495 . S
C2488 C2487 1.392 . S
C2488 C2489 1.385 . S
C2488 C2490 1.478 . S
C2489 H2483 0.930 . S
C2489 C2485 1.400 . S
C2489 C2488 1.385 . S
C2490 C2488 1.478 . S
C2490 C2492 1.381 . S
C2490 C2496 1.383 . S
C2491 C2487 1.495 . S
C2491 H2497 0.959 . S
C2491 H2498 0.961 . S
C2491 H2499 0.960 . S
C2492 C2490 1.381 . S
C2492 C2493 1.394 . S
C2492 H2500 0.930 . S
C2493 C2492 1.394 . S
C2493 C2494 1.383 . S
C2493 H2501 0.929 . S
C2494 C2493 1.383 . S
C2494 C2495 1.377 . S
C2495 H2479 0.930 . S
C2495 C2494 1.377 . S
C2495 C2496 1.379 . S
C2496 H2480 0.931 . S
C2496 C2490 1.383 . S
C2496 C2495 1.379 . S
H2497 C2491 0.959 . S
H2498 C2491 0.961 . S
H2499 C2491 0.960 . S
H2500 C2492 0.930 . S
H2501 C2493 0.929 . S
H2502 C2510 0.929 . S
H2503 C2512 0.930 . S
H2504 C2514 0.930 . S
H2505 C2517 0.929 . S
H2506 C2520 0.930 . S
H2507 C2522 0.960 . S
H2508 C2522 0.960 . S
H2509 C2522 0.960 . S
C2510 H2502 0.929 . S
C2510 C2511 1.377 . S
C2510 C2512 1.384 . S
C2511 C2510 1.377 . S
C2511 C2517 1.390 . S
C2512 H2503 0.930 . S
C2512 C2510 1.384 . S
C2512 C2513 1.372 . S
C2513 C2512 1.372 . S
C2513 C2514 1.400 . S
C2513 C2518 1.490 . S
C2514 H2504 0.930 . S
C2514 C2513 1.400 . S
C2514 C2517 1.386 . S
H2515 C2531 0.930 . S
H2516 C2532 0.931 . S
C2517 H2505 0.929 . S
C2517 C2511 1.390 . S
C2517 C2514 1.386 . S
C2518 C2513 1.490 . S
C2518 C2520 1.395 . S
C2518 C2521 1.403 . S
H2519 C2525 0.930 . S
C2520 H2506 0.930 . S
C2520 C2518 1.395 . S
C2520 C2523 1.403 . S
C2521 C2518 1.403 . S
C2521 C2522 1.524 . S
C2521 C2525 1.400 . S
C2522 H2507 0.960 . S
C2522 H2508 0.960 . S
C2522 H2509 0.960 . S
C2522 C2521 1.524 . S
C2523 C2520 1.403 . S
C2523 C2524 1.392 . S
C2523 C2527 1.495 1_556 S
C2524 C2523 1.392 . S
C2524 C2525 1.385 . S
C2524 C2526 1.478 1_556 S
C2525 H2519 0.930 . S
C2525 C2521 1.400 . S
C2525 C2524 1.385 . S
C2526 C2524 1.478 1_554 S
C2526 C2528 1.381 . S
C2526 C2532 1.383 . S
C2527 C2523 1.495 1_554 S
C2527 H2533 0.959 . S
C2527 H2534 0.961 . S
C2527 H2535 0.960 . S
C2528 C2526 1.381 . S
C2528 C2529 1.394 . S
C2528 H2536 0.930 . S
C2529 C2528 1.394 . S
C2529 C2530 1.383 . S
C2529 H2537 0.929 . S
C2530 C2529 1.383 . S
C2530 C2531 1.377 . S
C2531 H2515 0.930 . S
C2531 C2530 1.377 . S
C2531 C2532 1.379 . S
C2532 H2516 0.931 . S
C2532 C2526 1.383 . S
C2532 C2531 1.379 . S
H2533 C2527 0.959 . S
H2534 C2527 0.961 . S
H2535 C2527 0.960 . S
H2536 C2528 0.930 . S
H2537 C2529 0.929 . S
H2538 C2546 0.929 . S
H2539 C2548 0.930 . S
H2540 C2550 0.930 . S
H2541 C2553 0.929 . S
H2542 C2556 0.930 . S
H2543 C2558 0.960 . S
H2544 C2558 0.960 . S
H2545 C2558 0.960 . S
C2546 H2538 0.929 . S
C2546 C2547 1.377 . S
C2546 C2548 1.384 . S
C2547 C2546 1.377 . S
C2547 C2553 1.390 . S
C2548 H2539 0.930 . S
C2548 C2546 1.384 . S
C2548 C2549 1.372 . S
C2549 C2548 1.372 . S
C2549 C2550 1.400 . S
C2549 C2554 1.490 . S
C2550 H2540 0.930 . S
C2550 C2549 1.400 . S
C2550 C2553 1.386 . S
H2551 C2567 0.930 . S
H2552 C2568 0.931 . S
C2553 H2541 0.929 . S
C2553 C2547 1.390 . S
C2553 C2550 1.386 . S
C2554 C2549 1.490 . S
C2554 C2556 1.395 . S
C2554 C2557 1.403 . S
H2555 C2561 0.930 . S
C2556 H2542 0.930 . S
C2556 C2554 1.395 . S
C2556 C2559 1.403 . S
C2557 C2554 1.403 . S
C2557 C2558 1.524 . S
C2557 C2561 1.400 . S
C2558 H2543 0.960 . S
C2558 H2544 0.960 . S
C2558 H2545 0.960 . S
C2558 C2557 1.524 . S
C2559 C2556 1.403 . S
C2559 C2560 1.392 . S
C2559 C2563 1.495 . S
C2560 C2559 1.392 . S
C2560 C2561 1.385 . S
C2560 C2562 1.478 . S
C2561 H2555 0.930 . S
C2561 C2557 1.400 . S
C2561 C2560 1.385 . S
C2562 C2560 1.478 . S
C2562 C2564 1.381 . S
C2562 C2568 1.383 1_556 S
C2563 C2559 1.495 . S
C2563 H2569 0.959 . S
C2563 H2570 0.961 . S
C2563 H2571 0.960 . S
C2564 C2562 1.381 . S
C2564 C2565 1.394 1_556 S
C2564 H2572 0.930 . S
C2565 C2564 1.394 1_554 S
C2565 C2566 1.383 . S
C2565 H2573 0.929 . S
C2566 C2565 1.383 . S
C2566 C2567 1.377 . S
C2567 H2551 0.930 . S
C2567 C2566 1.377 . S
C2567 C2568 1.379 . S
C2568 H2552 0.931 . S
C2568 C2562 1.383 1_554 S
C2568 C2567 1.379 . S
H2569 C2563 0.959 . S
H2570 C2563 0.961 . S
H2571 C2563 0.960 . S
H2572 C2564 0.930 . S
H2573 C2565 0.929 . S
H2574 C2582 0.929 . S
H2575 C2584 0.930 . S
H2576 C2586 0.930 . S
H2577 C2589 0.929 . S
H2578 C2592 0.930 . S
H2579 C2594 0.960 1_554 S
H2580 C2594 0.960 . S
H2581 C2594 0.960 . S
C2582 H2574 0.929 . S
C2582 C2583 1.377 . S
C2582 C2584 1.384 . S
C2583 C2582 1.377 . S
C2583 C2589 1.390 . S
C2584 H2575 0.930 . S
C2584 C2582 1.384 . S
C2584 C2585 1.372 . S
C2585 C2584 1.372 . S
C2585 C2586 1.400 . S
C2585 C2590 1.490 . S
C2586 H2576 0.930 . S
C2586 C2585 1.400 . S
C2586 C2589 1.386 . S
H2587 C2603 0.930 . S
H2588 C2604 0.931 . S
C2589 H2577 0.929 . S
C2589 C2583 1.390 . S
C2589 C2586 1.386 . S
C2590 C2585 1.490 . S
C2590 C2592 1.395 . S
C2590 C2593 1.403 . S
H2591 C2597 0.930 . S
C2592 H2578 0.930 . S
C2592 C2590 1.395 . S
C2592 C2595 1.403 . S
C2593 C2590 1.403 . S
C2593 C2594 1.524 . S
C2593 C2597 1.400 1_556 S
C2594 H2579 0.960 1_556 S
C2594 H2580 0.960 . S
C2594 H2581 0.960 . S
C2594 C2593 1.524 . S
C2595 C2592 1.403 . S
C2595 C2596 1.422 . S
C2595 C2599 1.495 . S
C2596 C2595 1.422 . S
C2596 C2597 1.382 1_556 S
C2596 C2598 1.451 1_556 S
C2597 H2591 0.930 . S
C2597 C2593 1.400 1_554 S
C2597 C2596 1.382 1_554 S
C2598 C2596 1.451 1_554 S
C2598 C2600 1.381 . S
C2598 C2604 1.383 . S
C2599 C2595 1.495 . S
C2599 H2605 0.959 . S
C2599 H2606 0.961 . S
C2599 H2607 0.960 . S
C2600 C2598 1.381 . S
C2600 C2601 1.394 . S
C2600 H2608 0.930 . S
C2601 C2600 1.394 . S
C2601 C2602 1.383 . S
C2601 H2609 0.929 . S
C2602 C2601 1.383 . S
C2602 C2603 1.377 . S
C2603 H2587 0.930 . S
C2603 C2602 1.377 . S
C2603 C2604 1.379 . S
C2604 H2588 0.931 . S
C2604 C2598 1.383 . S
C2604 C2603 1.379 . S
H2605 C2599 0.959 . S
H2606 C2599 0.961 . S
H2607 C2599 0.960 . S
H2608 C2600 0.930 . S
H2609 C2601 0.929 . S
H2610 C2618 0.929 . S
H2611 C2620 0.930 . S
H2612 C2622 0.930 . S
H2613 C2625 0.929 . S
H2614 C2628 0.930 . S
H2615 C2630 0.960 . S
H2616 C2630 0.960 . S
H2617 C2630 0.960 . S
C2618 H2610 0.929 . S
C2618 C2619 1.377 . S
C2618 C2620 1.384 . S
C2619 C2618 1.377 . S
C2619 C2625 1.390 . S
C2620 H2611 0.930 . S
C2620 C2618 1.384 . S
C2620 C2621 1.372 . S
C2621 C2620 1.372 . S
C2621 C2622 1.400 . S
C2621 C2626 1.490 . S
C2622 H2612 0.930 . S
C2622 C2621 1.400 . S
C2622 C2625 1.386 . S
H2623 C2639 0.930 . S
H2624 C2640 0.931 . S
C2625 H2613 0.929 . S
C2625 C2619 1.390 . S
C2625 C2622 1.386 . S
C2626 C2621 1.490 . S
C2626 C2628 1.395 . S
C2626 C2629 1.403 . S
H2627 C2633 0.930 . S
C2628 H2614 0.930 . S
C2628 C2626 1.395 . S
C2628 C2631 1.403 . S
C2629 C2626 1.403 . S
C2629 C2630 1.524 . S
C2629 C2633 1.400 . S
C2630 H2615 0.960 . S
C2630 H2616 0.960 . S
C2630 H2617 0.960 . S
C2630 C2629 1.524 . S
C2631 C2628 1.403 . S
C2631 C2632 1.392 . S
C2631 C2635 1.495 . S
C2632 C2631 1.392 . S
C2632 C2633 1.385 . S
C2632 C2634 1.478 . S
C2633 H2627 0.930 . S
C2633 C2629 1.400 . S
C2633 C2632 1.385 . S
C2634 C2632 1.478 . S
C2634 C2636 1.381 . S
C2634 C2640 1.383 . S
C2635 C2631 1.495 . S
C2635 H2641 0.959 . S
C2635 H2642 0.961 . S
C2635 H2643 0.960 . S
C2636 C2634 1.381 . S
C2636 C2637 1.394 . S
C2636 H2644 0.930 . S
C2637 C2636 1.394 . S
C2637 C2638 1.383 . S
C2637 H2645 0.929 . S
C2638 C2637 1.383 . S
C2638 C2639 1.377 . S
C2639 H2623 0.930 . S
C2639 C2638 1.377 . S
C2639 C2640 1.379 . S
C2640 H2624 0.931 . S
C2640 C2634 1.383 . S
C2640 C2639 1.379 . S
H2641 C2635 0.959 . S
H2642 C2635 0.961 . S
H2643 C2635 0.960 . S
H2644 C2636 0.930 . S
H2645 C2637 0.929 . S
H2646 C2654 0.929 . S
H2647 C2656 0.930 . S
H2648 C2658 0.930 . S
H2649 C2661 0.929 . S
H2650 C2664 0.930 . S
H2651 C2666 0.960 . S
H2652 C2666 0.960 . S
H2653 C2666 0.960 . S
C2654 H2646 0.929 . S
C2654 C2655 1.377 . S
C2654 C2656 1.384 . S
C2655 C2654 1.377 . S
C2655 C2661 1.390 . S
C2656 H2647 0.930 . S
C2656 C2654 1.384 . S
C2656 C2657 1.372 . S
C2657 C2656 1.372 . S
C2657 C2658 1.400 . S
C2657 C2662 1.490 . S
C2658 H2648 0.930 . S
C2658 C2657 1.400 . S
C2658 C2661 1.386 . S
H2659 C2675 0.930 . S
H2660 C2676 0.931 . S
C2661 H2649 0.929 . S
C2661 C2655 1.390 . S
C2661 C2658 1.386 . S
C2662 C2657 1.490 . S
C2662 C2664 1.395 . S
C2662 C2665 1.403 . S
H2663 C2669 0.930 . S
C2664 H2650 0.930 . S
C2664 C2662 1.395 . S
C2664 C2667 1.403 . S
C2665 C2662 1.403 . S
C2665 C2666 1.524 . S
C2665 C2669 1.400 . S
C2666 H2651 0.960 . S
C2666 H2652 0.960 . S
C2666 H2653 0.960 . S
C2666 C2665 1.524 . S
C2667 C2664 1.403 . S
C2667 C2668 1.392 . S
C2667 C2671 1.495 . S
C2668 C2667 1.392 . S
C2668 C2669 1.385 . S
C2668 C2670 1.478 . S
C2669 H2663 0.930 . S
C2669 C2665 1.400 . S
C2669 C2668 1.385 . S
C2670 C2668 1.478 . S
C2670 C2672 1.381 . S
C2670 C2676 1.383 . S
C2671 C2667 1.495 . S
C2671 H2677 0.959 . S
C2671 H2678 0.961 . S
C2671 H2679 0.960 . S
C2672 C2670 1.381 . S
C2672 C2673 1.394 . S
C2672 H2680 0.930 . S
C2673 C2672 1.394 . S
C2673 C2674 1.383 . S
C2673 H2681 0.929 . S
C2674 C2673 1.383 . S
C2674 C2675 1.377 . S
C2675 H2659 0.930 . S
C2675 C2674 1.377 . S
C2675 C2676 1.379 . S
C2676 H2660 0.931 . S
C2676 C2670 1.383 . S
C2676 C2675 1.379 . S
H2677 C2671 0.959 . S
H2678 C2671 0.961 . S
H2679 C2671 0.960 . S
H2680 C2672 0.930 . S
H2681 C2673 0.929 . S
H2682 C2690 0.929 . S
H2683 C2692 0.930 . S
H2684 C2694 0.930 . S
H2685 C2697 0.929 . S
H2686 C2700 0.930 . S
H2687 C2702 0.960 . S
H2688 C2702 0.960 . S
H2689 C2702 0.960 . S
C2690 H2682 0.929 . S
C2690 C2691 1.377 . S
C2690 C2692 1.384 . S
C2691 C2690 1.377 . S
C2691 C2697 1.390 . S
C2692 H2683 0.930 . S
C2692 C2690 1.384 . S
C2692 C2693 1.372 . S
C2693 C2692 1.372 . S
C2693 C2694 1.400 . S
C2693 C2698 1.490 . S
C2694 H2684 0.930 . S
C2694 C2693 1.400 . S
C2694 C2697 1.386 . S
H2695 C2711 0.930 . S
H2696 C2712 0.931 . S
C2697 H2685 0.929 . S
C2697 C2691 1.390 . S
C2697 C2694 1.386 . S
C2698 C2693 1.490 . S
C2698 C2700 1.395 . S
C2698 C2701 1.403 . S
H2699 C2705 0.930 . S
C2700 H2686 0.930 . S
C2700 C2698 1.395 . S
C2700 C2703 1.403 . S
C2701 C2698 1.403 . S
C2701 C2702 1.524 . S
C2701 C2705 1.400 . S
C2702 H2687 0.960 . S
C2702 H2688 0.960 . S
C2702 H2689 0.960 . S
C2702 C2701 1.524 . S
C2703 C2700 1.403 . S
C2703 C2704 1.392 . S
C2703 C2707 1.495 . S
C2704 C2703 1.392 . S
C2704 C2705 1.385 . S
C2704 C2706 1.478 . S
C2705 H2699 0.930 . S
C2705 C2701 1.400 . S
C2705 C2704 1.385 . S
C2706 C2704 1.478 . S
C2706 C2708 1.381 . S
C2706 C2712 1.383 . S
C2707 C2703 1.495 . S
C2707 H2713 0.959 . S
C2707 H2714 0.961 . S
C2707 H2715 0.960 . S
C2708 C2706 1.381 . S
C2708 C2709 1.394 . S
C2708 H2716 0.930 . S
C2709 C2708 1.394 . S
C2709 C2710 1.383 . S
C2709 H2717 0.929 . S
C2710 C2709 1.383 . S
C2710 C2711 1.377 . S
C2711 H2695 0.930 . S
C2711 C2710 1.377 . S
C2711 C2712 1.379 . S
C2712 H2696 0.931 . S
C2712 C2706 1.383 . S
C2712 C2711 1.379 . S
H2713 C2707 0.959 . S
H2714 C2707 0.961 . S
H2715 C2707 0.960 . S
H2716 C2708 0.930 . S
H2717 C2709 0.929 . S
H2718 C2726 0.929 . S
H2719 C2728 0.930 . S
H2720 C2730 0.930 . S
H2721 C2733 0.929 . S
H2722 C2736 0.930 . S
H2723 C2738 0.960 . S
H2724 C2738 0.960 . S
H2725 C2738 0.960 . S
C2726 H2718 0.929 . S
C2726 C2727 1.377 . S
C2726 C2728 1.384 . S
C2727 C2726 1.377 . S
C2727 C2733 1.390 . S
C2728 H2719 0.930 . S
C2728 C2726 1.384 . S
C2728 C2729 1.372 . S
C2729 C2728 1.372 . S
C2729 C2730 1.400 . S
C2729 C2734 1.490 . S
C2730 H2720 0.930 . S
C2730 C2729 1.400 . S
C2730 C2733 1.386 . S
H2731 C2747 0.930 . S
H2732 C2748 0.931 . S
C2733 H2721 0.929 . S
C2733 C2727 1.390 . S
C2733 C2730 1.386 . S
C2734 C2729 1.490 . S
C2734 C2736 1.395 . S
C2734 C2737 1.403 . S
H2735 C2741 0.930 . S
C2736 H2722 0.930 . S
C2736 C2734 1.395 . S
C2736 C2739 1.403 . S
C2737 C2734 1.403 . S
C2737 C2738 1.524 . S
C2737 C2741 1.400 . S
C2738 H2723 0.960 . S
C2738 H2724 0.960 . S
C2738 H2725 0.960 . S
C2738 C2737 1.524 . S
C2739 C2736 1.403 . S
C2739 C2740 1.392 . S
C2739 C2743 1.495 . S
C2740 C2739 1.392 . S
C2740 C2741 1.385 . S
C2740 C2742 1.478 . S
C2741 H2735 0.930 . S
C2741 C2737 1.400 . S
C2741 C2740 1.385 . S
C2742 C2740 1.478 . S
C2742 C2744 1.381 . S
C2742 C2748 1.383 . S
C2743 C2739 1.495 . S
C2743 H2749 0.959 . S
C2743 H2750 0.961 . S
C2743 H2751 0.960 . S
C2744 C2742 1.381 . S
C2744 C2745 1.394 . S
C2744 H2752 0.930 . S
C2745 C2744 1.394 . S
C2745 C2746 1.383 . S
C2745 H2753 0.929 . S
C2746 C2745 1.383 . S
C2746 C2747 1.377 . S
C2747 H2731 0.930 . S
C2747 C2746 1.377 . S
C2747 C2748 1.379 . S
C2748 H2732 0.931 . S
C2748 C2742 1.383 . S
C2748 C2747 1.379 . S
H2749 C2743 0.959 . S
H2750 C2743 0.961 . S
H2751 C2743 0.960 . S
H2752 C2744 0.930 . S
H2753 C2745 0.929 . S
H2754 C2762 0.929 . S
H2755 C2764 0.930 . S
H2756 C2766 0.930 . S
H2757 C2769 0.929 . S
H2758 C2772 0.930 . S
H2759 C2774 0.960 . S
H2760 C2774 0.960 . S
H2761 C2774 0.960 . S
C2762 H2754 0.929 . S
C2762 C2763 1.377 . S
C2762 C2764 1.384 . S
C2763 C2762 1.377 . S
C2763 C2769 1.390 . S
C2764 H2755 0.930 . S
C2764 C2762 1.384 . S
C2764 C2765 1.372 . S
C2765 C2764 1.372 . S
C2765 C2766 1.400 . S
C2765 C2770 1.490 . S
C2766 H2756 0.930 . S
C2766 C2765 1.400 . S
C2766 C2769 1.386 . S
H2767 C2783 0.930 . S
H2768 C2784 0.931 . S
C2769 H2757 0.929 . S
C2769 C2763 1.390 . S
C2769 C2766 1.386 . S
C2770 C2765 1.490 . S
C2770 C2772 1.395 . S
C2770 C2773 1.403 . S
H2771 C2777 0.930 . S
C2772 H2758 0.930 . S
C2772 C2770 1.395 . S
C2772 C2775 1.403 . S
C2773 C2770 1.403 . S
C2773 C2774 1.524 . S
C2773 C2777 1.400 . S
C2774 H2759 0.960 . S
C2774 H2760 0.960 . S
C2774 H2761 0.960 . S
C2774 C2773 1.524 . S
C2775 C2772 1.403 . S
C2775 C2776 1.392 . S
C2775 C2779 1.495 . S
C2776 C2775 1.392 . S
C2776 C2777 1.385 . S
C2776 C2778 1.478 . S
C2777 H2771 0.930 . S
C2777 C2773 1.400 . S
C2777 C2776 1.385 . S
C2778 C2776 1.478 . S
C2778 C2780 1.381 . S
C2778 C2784 1.383 . S
C2779 C2775 1.495 . S
C2779 H2785 0.959 . S
C2779 H2786 0.961 . S
C2779 H2787 0.960 . S
C2780 C2778 1.381 . S
C2780 C2781 1.394 . S
C2780 H2788 0.930 . S
C2781 C2780 1.394 . S
C2781 C2782 1.383 . S
C2781 H2789 0.929 . S
C2782 C2781 1.383 . S
C2782 C2783 1.377 . S
C2783 H2767 0.930 . S
C2783 C2782 1.377 . S
C2783 C2784 1.379 . S
C2784 H2768 0.931 . S
C2784 C2778 1.383 . S
C2784 C2783 1.379 . S
H2785 C2779 0.959 . S
H2786 C2779 0.961 . S
H2787 C2779 0.960 . S
H2788 C2780 0.930 . S
H2789 C2781 0.929 . S
H2790 C2798 0.929 . S
H2791 C2800 0.930 . S
H2792 C2802 0.930 . S
H2793 C2805 0.929 . S
H2794 C2808 0.930 . S
H2795 C2810 0.960 . S
H2796 C2810 0.960 . S
H2797 C2810 0.960 . S
C2798 H2790 0.929 . S
C2798 C2799 1.377 . S
C2798 C2800 1.384 . S
C2799 C2798 1.377 . S
C2799 C2805 1.390 . S
C2800 H2791 0.930 . S
C2800 C2798 1.384 . S
C2800 C2801 1.372 . S
C2801 C2800 1.372 . S
C2801 C2802 1.400 . S
C2801 C2806 1.490 . S
C2802 H2792 0.930 . S
C2802 C2801 1.400 . S
C2802 C2805 1.386 . S
H2803 C2819 0.930 . S
H2804 C2820 0.931 . S
C2805 H2793 0.929 . S
C2805 C2799 1.390 . S
C2805 C2802 1.386 . S
C2806 C2801 1.490 . S
C2806 C2808 1.395 . S
C2806 C2809 1.403 . S
H2807 C2813 0.930 . S
C2808 H2794 0.930 . S
C2808 C2806 1.395 . S
C2808 C2811 1.403 . S
C2809 C2806 1.403 . S
C2809 C2810 1.524 . S
C2809 C2813 1.400 . S
C2810 H2795 0.960 . S
C2810 H2796 0.960 . S
C2810 H2797 0.960 . S
C2810 C2809 1.524 . S
C2811 C2808 1.403 . S
C2811 C2812 1.392 . S
C2811 C2815 1.495 . S
C2812 C2811 1.392 . S
C2812 C2813 1.385 . S
C2812 C2814 1.478 . S
C2813 H2807 0.930 . S
C2813 C2809 1.400 . S
C2813 C2812 1.385 . S
C2814 C2812 1.478 . S
C2814 C2816 1.381 . S
C2814 C2820 1.383 . S
C2815 C2811 1.495 . S
C2815 H2821 0.959 . S
C2815 H2822 0.961 . S
C2815 H2823 0.960 . S
C2816 C2814 1.381 . S
C2816 C2817 1.394 . S
C2816 H2824 0.930 . S
C2817 C2816 1.394 . S
C2817 C2818 1.383 . S
C2817 H2825 0.929 . S
C2818 C2817 1.383 . S
C2818 C2819 1.377 . S
C2819 H2803 0.930 . S
C2819 C2818 1.377 . S
C2819 C2820 1.379 . S
C2820 H2804 0.931 . S
C2820 C2814 1.383 . S
C2820 C2819 1.379 . S
H2821 C2815 0.959 . S
H2822 C2815 0.961 . S
H2823 C2815 0.960 . S
H2824 C2816 0.930 . S
H2825 C2817 0.929 . S
H2826 C2834 0.929 . S
H2827 C2836 0.930 . S
H2828 C2838 0.930 . S
H2829 C2841 0.929 . S
H2830 C2844 0.930 . S
H2831 C2846 0.960 . S
H2832 C2846 0.960 . S
H2833 C2846 0.960 . S
C2834 H2826 0.929 . S
C2834 C2835 1.377 . S
C2834 C2836 1.384 . S
C2835 C2834 1.377 . S
C2835 C2841 1.390 . S
C2836 H2827 0.930 . S
C2836 C2834 1.384 . S
C2836 C2837 1.372 . S
C2837 C2836 1.372 . S
C2837 C2838 1.400 . S
C2837 C2842 1.490 . S
C2838 H2828 0.930 . S
C2838 C2837 1.400 . S
C2838 C2841 1.386 . S
H2839 C2855 0.930 . S
H2840 C2856 0.931 . S
C2841 H2829 0.929 . S
C2841 C2835 1.390 . S
C2841 C2838 1.386 . S
C2842 C2837 1.490 . S
C2842 C2844 1.395 . S
C2842 C2845 1.403 . S
H2843 C2849 0.930 . S
C2844 H2830 0.930 . S
C2844 C2842 1.395 . S
C2844 C2847 1.403 . S
C2845 C2842 1.403 . S
C2845 C2846 1.524 . S
C2845 C2849 1.400 . S
C2846 H2831 0.960 . S
C2846 H2832 0.960 . S
C2846 H2833 0.960 . S
C2846 C2845 1.524 . S
C2847 C2844 1.403 . S
C2847 C2848 1.392 . S
C2847 C2851 1.495 . S
C2848 C2847 1.392 . S
C2848 C2849 1.385 . S
C2848 C2850 1.478 . S
C2849 H2843 0.930 . S
C2849 C2845 1.400 . S
C2849 C2848 1.385 . S
C2850 C2848 1.478 . S
C2850 C2852 1.381 . S
C2850 C2856 1.383 . S
C2851 C2847 1.495 . S
C2851 H2857 0.959 . S
C2851 H2858 0.961 . S
C2851 H2859 0.960 . S
C2852 C2850 1.381 . S
C2852 C2853 1.394 . S
C2852 H2860 0.930 . S
C2853 C2852 1.394 . S
C2853 C2854 1.383 . S
C2853 H2861 0.929 . S
C2854 C2853 1.383 . S
C2854 C2855 1.377 . S
C2855 H2839 0.930 . S
C2855 C2854 1.377 . S
C2855 C2856 1.379 . S
C2856 H2840 0.931 . S
C2856 C2850 1.383 . S
C2856 C2855 1.379 . S
H2857 C2851 0.959 . S
H2858 C2851 0.961 . S
H2859 C2851 0.960 . S
H2860 C2852 0.930 . S
H2861 C2853 0.929 . S
H2862 C2870 0.929 . S
H2863 C2872 0.930 . S
H2864 C2874 0.930 . S
H2865 C2877 0.929 . S
H2866 C2880 0.930 . S
H2867 C2882 0.960 . S
H2868 C2882 0.960 . S
H2869 C2882 0.960 . S
C2870 H2862 0.929 . S
C2870 C2871 1.377 . S
C2870 C2872 1.384 . S
C2871 C2870 1.377 . S
C2871 C2877 1.390 . S
C2872 H2863 0.930 . S
C2872 C2870 1.384 . S
C2872 C2873 1.372 . S
C2873 C2872 1.372 . S
C2873 C2874 1.400 . S
C2873 C2878 1.490 . S
C2874 H2864 0.930 . S
C2874 C2873 1.400 . S
C2874 C2877 1.386 . S
H2875 C2891 0.930 . S
H2876 C2892 0.931 . S
C2877 H2865 0.929 . S
C2877 C2871 1.390 . S
C2877 C2874 1.386 . S
C2878 C2873 1.490 . S
C2878 C2880 1.395 . S
C2878 C2881 1.403 . S
H2879 C2885 0.930 . S
C2880 H2866 0.930 . S
C2880 C2878 1.395 . S
C2880 C2883 1.403 . S
C2881 C2878 1.403 . S
C2881 C2882 1.524 . S
C2881 C2885 1.400 . S
C2882 H2867 0.960 . S
C2882 H2868 0.960 . S
C2882 H2869 0.960 . S
C2882 C2881 1.524 . S
C2883 C2880 1.403 . S
C2883 C2884 1.392 . S
C2883 C2887 1.495 . S
C2884 C2883 1.392 . S
C2884 C2885 1.385 . S
C2884 C2886 1.478 . S
C2885 H2879 0.930 . S
C2885 C2881 1.400 . S
C2885 C2884 1.385 . S
C2886 C2884 1.478 . S
C2886 C2888 1.381 . S
C2886 C2892 1.383 . S
C2887 C2883 1.495 . S
C2887 H2893 0.959 . S
C2887 H2894 0.961 . S
C2887 H2895 0.960 . S
C2888 C2886 1.381 . S
C2888 C2889 1.394 . S
C2888 H2896 0.930 . S
C2889 C2888 1.394 . S
C2889 C2890 1.383 . S
C2889 H2897 0.929 . S
C2890 C2889 1.383 . S
C2890 C2891 1.377 . S
C2891 H2875 0.930 . S
C2891 C2890 1.377 . S
C2891 C2892 1.379 . S
C2892 H2876 0.931 . S
C2892 C2886 1.383 . S
C2892 C2891 1.379 . S
H2893 C2887 0.959 . S
H2894 C2887 0.961 . S
H2895 C2887 0.960 . S
H2896 C2888 0.930 . S
H2897 C2889 0.929 . S
H2898 C2906 0.929 . S
H2899 C2908 0.930 . S
H2900 C2910 0.930 . S
H2901 C2913 0.929 . S
H2902 C2916 0.930 . S
H2903 C2918 0.960 . S
H2904 C2918 0.960 . S
H2905 C2918 0.960 . S
C2906 H2898 0.929 . S
C2906 C2907 1.377 . S
C2906 C2908 1.384 . S
C2907 C2906 1.377 . S
C2907 C2913 1.390 . S
C2908 H2899 0.930 . S
C2908 C2906 1.384 . S
C2908 C2909 1.372 . S
C2909 C2908 1.372 . S
C2909 C2910 1.400 . S
C2909 C2914 1.490 . S
C2910 H2900 0.930 . S
C2910 C2909 1.400 . S
C2910 C2913 1.386 . S
H2911 C2927 0.930 . S
H2912 C2928 0.931 . S
C2913 H2901 0.929 . S
C2913 C2907 1.390 . S
C2913 C2910 1.386 . S
C2914 C2909 1.490 . S
C2914 C2916 1.395 . S
C2914 C2917 1.403 . S
H2915 C2921 0.930 . S
C2916 H2902 0.930 . S
C2916 C2914 1.395 . S
C2916 C2919 1.403 . S
C2917 C2914 1.403 . S
C2917 C2918 1.524 . S
C2917 C2921 1.400 . S
C2918 H2903 0.960 . S
C2918 H2904 0.960 . S
C2918 H2905 0.960 . S
C2918 C2917 1.524 . S
C2919 C2916 1.403 . S
C2919 C2920 1.392 . S
C2919 C2923 1.495 . S
C2920 C2919 1.392 . S
C2920 C2921 1.385 . S
C2920 C2922 1.478 . S
C2921 H2915 0.930 . S
C2921 C2917 1.400 . S
C2921 C2920 1.385 . S
C2922 C2920 1.478 . S
C2922 C2924 1.381 . S
C2922 C2928 1.383 . S
C2923 C2919 1.495 . S
C2923 H2929 0.959 . S
C2923 H2930 0.961 . S
C2923 H2931 0.960 . S
C2924 C2922 1.381 . S
C2924 C2925 1.394 . S
C2924 H2932 0.930 . S
C2925 C2924 1.394 . S
C2925 C2926 1.383 . S
C2925 H2933 0.929 . S
C2926 C2925 1.383 . S
C2926 C2927 1.377 . S
C2927 H2911 0.930 . S
C2927 C2926 1.377 . S
C2927 C2928 1.379 . S
C2928 H2912 0.931 . S
C2928 C2922 1.383 . S
C2928 C2927 1.379 . S
H2929 C2923 0.959 . S
H2930 C2923 0.961 . S
H2931 C2923 0.960 . S
H2932 C2924 0.930 . S
H2933 C2925 0.929 . S
H2934 C2942 0.929 . S
H2935 C2944 0.930 . S
H2936 C2946 0.930 . S
H2937 C2949 0.929 . S
H2938 C2952 0.930 . S
H2939 C2954 0.960 . S
H2940 C2954 0.960 . S
H2941 C2954 0.960 . S
C2942 H2934 0.929 . S
C2942 C2943 1.377 . S
C2942 C2944 1.384 . S
C2943 C2942 1.377 . S
C2943 C2949 1.390 . S
C2944 H2935 0.930 . S
C2944 C2942 1.384 . S
C2944 C2945 1.372 . S
C2945 C2944 1.372 . S
C2945 C2946 1.400 . S
C2945 C2950 1.490 . S
C2946 H2936 0.930 . S
C2946 C2945 1.400 . S
C2946 C2949 1.386 . S
H2947 C2963 0.930 . S
H2948 C2964 0.931 . S
C2949 H2937 0.929 . S
C2949 C2943 1.390 . S
C2949 C2946 1.386 . S
C2950 C2945 1.490 . S
C2950 C2952 1.395 . S
C2950 C2953 1.403 . S
H2951 C2957 0.930 . S
C2952 H2938 0.930 . S
C2952 C2950 1.395 . S
C2952 C2955 1.403 . S
C2953 C2950 1.403 . S
C2953 C2954 1.524 . S
C2953 C2957 1.400 . S
C2954 H2939 0.960 . S
C2954 H2940 0.960 . S
C2954 H2941 0.960 . S
C2954 C2953 1.524 . S
C2955 C2952 1.403 . S
C2955 C2956 1.392 . S
C2955 C2959 1.495 . S
C2956 C2955 1.392 . S
C2956 C2957 1.385 . S
C2956 C2958 1.478 . S
C2957 H2951 0.930 . S
C2957 C2953 1.400 . S
C2957 C2956 1.385 . S
C2958 C2956 1.478 . S
C2958 C2960 1.381 . S
C2958 C2964 1.383 . S
C2959 C2955 1.495 . S
C2959 H2965 0.959 . S
C2959 H2966 0.961 . S
C2959 H2967 0.960 . S
C2960 C2958 1.381 . S
C2960 C2961 1.394 . S
C2960 H2968 0.930 . S
C2961 C2960 1.394 . S
C2961 C2962 1.383 . S
C2961 H2969 0.929 . S
C2962 C2961 1.383 . S
C2962 C2963 1.377 . S
C2963 H2947 0.930 . S
C2963 C2962 1.377 . S
C2963 C2964 1.379 . S
C2964 H2948 0.931 . S
C2964 C2958 1.383 . S
C2964 C2963 1.379 . S
H2965 C2959 0.959 . S
H2966 C2959 0.961 . S
H2967 C2959 0.960 . S
H2968 C2960 0.930 . S
H2969 C2961 0.929 . S
H2970 C2978 0.929 . S
H2971 C2980 0.930 . S
H2972 C2982 0.930 . S
H2973 C2985 0.929 . S
H2974 C2988 0.930 . S
H2975 C2990 0.960 . S
H2976 C2990 0.960 . S
H2977 C2990 0.960 . S
C2978 H2970 0.929 . S
C2978 C2979 1.377 . S
C2978 C2980 1.384 . S
C2979 C2978 1.377 . S
C2979 C2985 1.390 . S
C2980 H2971 0.930 . S
C2980 C2978 1.384 . S
C2980 C2981 1.372 . S
C2981 C2980 1.372 . S
C2981 C2982 1.400 . S
C2981 C2986 1.490 . S
C2982 H2972 0.930 . S
C2982 C2981 1.400 . S
C2982 C2985 1.386 . S
H2983 C2999 0.930 . S
H2984 C3000 0.931 . S
C2985 H2973 0.929 . S
C2985 C2979 1.390 . S
C2985 C2982 1.386 . S
C2986 C2981 1.490 . S
C2986 C2988 1.395 . S
C2986 C2989 1.403 . S
H2987 C2993 0.930 . S
C2988 H2974 0.930 . S
C2988 C2986 1.395 . S
C2988 C2991 1.403 . S
C2989 C2986 1.403 . S
C2989 C2990 1.524 . S
C2989 C2993 1.400 . S
C2990 H2975 0.960 . S
C2990 H2976 0.960 . S
C2990 H2977 0.960 . S
C2990 C2989 1.524 . S
C2991 C2988 1.403 . S
C2991 C2992 1.392 . S
C2991 C2995 1.495 . S
C2992 C2991 1.392 . S
C2992 C2993 1.385 . S
C2992 C2994 1.478 . S
C2993 H2987 0.930 . S
C2993 C2989 1.400 . S
C2993 C2992 1.385 . S
C2994 C2992 1.478 . S
C2994 C2996 1.381 . S
C2994 C3000 1.383 . S
C2995 C2991 1.495 . S
C2995 H3001 0.959 . S
C2995 H3002 0.961 . S
C2995 H3003 0.960 . S
C2996 C2994 1.381 . S
C2996 C2997 1.394 . S
C2996 H3004 0.930 . S
C2997 C2996 1.394 . S
C2997 C2998 1.383 . S
C2997 H3005 0.929 . S
C2998 C2997 1.383 . S
C2998 C2999 1.377 . S
C2999 H2983 0.930 . S
C2999 C2998 1.377 . S
C2999 C3000 1.379 . S
C3000 H2984 0.931 . S
C3000 C2994 1.383 . S
C3000 C2999 1.379 . S
H3001 C2995 0.959 . S
H3002 C2995 0.961 . S
H3003 C2995 0.960 . S
H3004 C2996 0.930 . S
H3005 C2997 0.929 . S
H3006 C3014 0.929 . S
H3007 C3016 0.930 . S
H3008 C3018 0.930 . S
H3009 C3021 0.929 . S
H3010 C3024 0.930 . S
H3011 C3026 0.960 . S
H3012 C3026 0.960 . S
H3013 C3026 0.960 . S
C3014 H3006 0.929 . S
C3014 C3015 1.377 . S
C3014 C3016 1.384 . S
C3015 C3014 1.377 . S
C3015 C3021 1.390 . S
C3016 H3007 0.930 . S
C3016 C3014 1.384 . S
C3016 C3017 1.372 . S
C3017 C3016 1.372 . S
C3017 C3018 1.400 . S
C3017 C3022 1.490 . S
C3018 H3008 0.930 . S
C3018 C3017 1.400 . S
C3018 C3021 1.386 . S
H3019 C3035 0.930 . S
H3020 C3036 0.931 . S
C3021 H3009 0.929 . S
C3021 C3015 1.390 . S
C3021 C3018 1.386 . S
C3022 C3017 1.490 . S
C3022 C3024 1.395 . S
C3022 C3025 1.403 . S
H3023 C3029 0.930 . S
C3024 H3010 0.930 . S
C3024 C3022 1.395 . S
C3024 C3027 1.403 . S
C3025 C3022 1.403 . S
C3025 C3026 1.524 . S
C3025 C3029 1.400 . S
C3026 H3011 0.960 . S
C3026 H3012 0.960 . S
C3026 H3013 0.960 . S
C3026 C3025 1.524 . S
C3027 C3024 1.403 . S
C3027 C3028 1.392 . S
C3027 C3031 1.495 . S
C3028 C3027 1.392 . S
C3028 C3029 1.385 . S
C3028 C3030 1.478 . S
C3029 H3023 0.930 . S
C3029 C3025 1.400 . S
C3029 C3028 1.385 . S
C3030 C3028 1.478 . S
C3030 C3032 1.381 . S
C3030 C3036 1.383 . S
C3031 C3027 1.495 . S
C3031 H3037 0.959 . S
C3031 H3038 0.961 . S
C3031 H3039 0.960 . S
C3032 C3030 1.381 . S
C3032 C3033 1.394 . S
C3032 H3040 0.930 . S
C3033 C3032 1.394 . S
C3033 C3034 1.383 . S
C3033 H3041 0.929 . S
C3034 C3033 1.383 . S
C3034 C3035 1.377 . S
C3035 H3019 0.930 . S
C3035 C3034 1.377 . S
C3035 C3036 1.379 . S
C3036 H3020 0.931 . S
C3036 C3030 1.383 . S
C3036 C3035 1.379 . S
H3037 C3031 0.959 . S
H3038 C3031 0.961 . S
H3039 C3031 0.960 . S
H3040 C3032 0.930 . S
H3041 C3033 0.929 . S
H3042 C3050 0.929 . S
H3043 C3052 0.930 . S
H3044 C3054 0.930 . S
H3045 C3057 0.929 . S
H3046 C3060 0.930 . S
H3047 C3062 0.960 . S
H3048 C3062 0.960 . S
H3049 C3062 0.960 . S
C3050 H3042 0.929 . S
C3050 C3051 1.377 . S
C3050 C3052 1.384 . S
C3051 C3050 1.377 . S
C3051 C3057 1.390 . S
C3052 H3043 0.930 . S
C3052 C3050 1.384 . S
C3052 C3053 1.372 . S
C3053 C3052 1.372 . S
C3053 C3054 1.400 . S
C3053 C3058 1.490 . S
C3054 H3044 0.930 . S
C3054 C3053 1.400 . S
C3054 C3057 1.386 . S
H3055 C3071 0.930 . S
H3056 C3072 0.931 . S
C3057 H3045 0.929 . S
C3057 C3051 1.390 . S
C3057 C3054 1.386 . S
C3058 C3053 1.490 . S
C3058 C3060 1.395 . S
C3058 C3061 1.403 . S
H3059 C3065 0.930 . S
C3060 H3046 0.930 . S
C3060 C3058 1.395 . S
C3060 C3063 1.403 . S
C3061 C3058 1.403 . S
C3061 C3062 1.524 . S
C3061 C3065 1.400 . S
C3062 H3047 0.960 . S
C3062 H3048 0.960 . S
C3062 H3049 0.960 . S
C3062 C3061 1.524 . S
C3063 C3060 1.403 . S
C3063 C3064 1.392 . S
C3063 C3067 1.495 . S
C3064 C3063 1.392 . S
C3064 C3065 1.385 . S
C3064 C3066 1.478 . S
C3065 H3059 0.930 . S
C3065 C3061 1.400 . S
C3065 C3064 1.385 . S
C3066 C3064 1.478 . S
C3066 C3068 1.381 . S
C3066 C3072 1.383 . S
C3067 C3063 1.495 . S
C3067 H3073 0.959 . S
C3067 H3074 0.961 . S
C3067 H3075 0.960 . S
C3068 C3066 1.381 . S
C3068 C3069 1.394 . S
C3068 H3076 0.930 . S
C3069 C3068 1.394 . S
C3069 C3070 1.383 . S
C3069 H3077 0.929 . S
C3070 C3069 1.383 . S
C3070 C3071 1.377 . S
C3071 H3055 0.930 . S
C3071 C3070 1.377 . S
C3071 C3072 1.379 . S
C3072 H3056 0.931 . S
C3072 C3066 1.383 . S
C3072 C3071 1.379 . S
H3073 C3067 0.959 . S
H3074 C3067 0.961 . S
H3075 C3067 0.960 . S
H3076 C3068 0.930 . S
H3077 C3069 0.929 . S
H3078 C3086 0.929 . S
H3079 C3088 0.930 . S
H3080 C3090 0.930 . S
H3081 C3093 0.929 . S
H3082 C3096 0.930 . S
H3083 C3098 0.960 . S
H3084 C3098 0.960 . S
H3085 C3098 0.960 . S
C3086 H3078 0.929 . S
C3086 C3087 1.377 . S
C3086 C3088 1.384 . S
C3087 C3086 1.377 . S
C3087 C3093 1.390 . S
C3088 H3079 0.930 . S
C3088 C3086 1.384 . S
C3088 C3089 1.372 . S
C3089 C3088 1.372 . S
C3089 C3090 1.400 . S
C3089 C3094 1.490 . S
C3090 H3080 0.930 . S
C3090 C3089 1.400 . S
C3090 C3093 1.386 . S
H3091 C3107 0.930 . S
H3092 C3108 0.931 . S
C3093 H3081 0.929 . S
C3093 C3087 1.390 . S
C3093 C3090 1.386 . S
C3094 C3089 1.490 . S
C3094 C3096 1.395 . S
C3094 C3097 1.403 . S
H3095 C3101 0.930 . S
C3096 H3082 0.930 . S
C3096 C3094 1.395 . S
C3096 C3099 1.403 . S
C3097 C3094 1.403 . S
C3097 C3098 1.524 . S
C3097 C3101 1.400 . S
C3098 H3083 0.960 . S
C3098 H3084 0.960 . S
C3098 H3085 0.960 . S
C3098 C3097 1.524 . S
C3099 C3096 1.403 . S
C3099 C3100 1.392 . S
C3099 C3103 1.495 . S
C3100 C3099 1.392 . S
C3100 C3101 1.385 . S
C3100 C3102 1.478 . S
C3101 H3095 0.930 . S
C3101 C3097 1.400 . S
C3101 C3100 1.385 . S
C3102 C3100 1.478 . S
C3102 C3104 1.381 . S
C3102 C3108 1.383 . S
C3103 C3099 1.495 . S
C3103 H3109 0.959 . S
C3103 H3110 0.961 . S
C3103 H3111 0.960 . S
C3104 C3102 1.381 . S
C3104 C3105 1.394 . S
C3104 H3112 0.930 . S
C3105 C3104 1.394 . S
C3105 C3106 1.383 . S
C3105 H3113 0.929 . S
C3106 C3105 1.383 . S
C3106 C3107 1.377 . S
C3107 H3091 0.930 . S
C3107 C3106 1.377 . S
C3107 C3108 1.379 . S
C3108 H3092 0.931 . S
C3108 C3102 1.383 . S
C3108 C3107 1.379 . S
H3109 C3103 0.959 . S
H3110 C3103 0.961 . S
H3111 C3103 0.960 . S
H3112 C3104 0.930 . S
H3113 C3105 0.929 . S
H3114 C3122 0.929 . S
H3115 C3124 0.930 . S
H3116 C3126 0.930 . S
H3117 C3129 0.929 . S
H3118 C3132 0.930 . S
H3119 C3134 0.960 . S
H3120 C3134 0.960 . S
H3121 C3134 0.960 . S
C3122 H3114 0.929 . S
C3122 C3123 1.377 . S
C3122 C3124 1.384 . S
C3123 C3122 1.377 . S
C3123 C3129 1.390 . S
C3124 H3115 0.930 . S
C3124 C3122 1.384 . S
C3124 C3125 1.372 . S
C3125 C3124 1.372 . S
C3125 C3126 1.400 . S
C3125 C3130 1.490 . S
C3126 H3116 0.930 . S
C3126 C3125 1.400 . S
C3126 C3129 1.386 . S
H3127 C3143 0.930 . S
H3128 C3144 0.931 . S
C3129 H3117 0.929 . S
C3129 C3123 1.390 . S
C3129 C3126 1.386 . S
C3130 C3125 1.490 . S
C3130 C3132 1.395 . S
C3130 C3133 1.403 . S
H3131 C3137 0.930 . S
C3132 H3118 0.930 . S
C3132 C3130 1.395 . S
C3132 C3135 1.403 . S
C3133 C3130 1.403 . S
C3133 C3134 1.524 . S
C3133 C3137 1.400 . S
C3134 H3119 0.960 . S
C3134 H3120 0.960 . S
C3134 H3121 0.960 . S
C3134 C3133 1.524 . S
C3135 C3132 1.403 . S
C3135 C3136 1.392 . S
C3135 C3139 1.495 . S
C3136 C3135 1.392 . S
C3136 C3137 1.385 . S
C3136 C3138 1.478 . S
C3137 H3131 0.930 . S
C3137 C3133 1.400 . S
C3137 C3136 1.385 . S
C3138 C3136 1.478 . S
C3138 C3140 1.381 . S
C3138 C3144 1.383 . S
C3139 C3135 1.495 . S
C3139 H3145 0.959 . S
C3139 H3146 0.961 . S
C3139 H3147 0.960 . S
C3140 C3138 1.381 . S
C3140 C3141 1.394 . S
C3140 H3148 0.930 . S
C3141 C3140 1.394 . S
C3141 C3142 1.383 . S
C3141 H3149 0.929 . S
C3142 C3141 1.383 . S
C3142 C3143 1.377 . S
C3143 H3127 0.930 . S
C3143 C3142 1.377 . S
C3143 C3144 1.379 . S
C3144 H3128 0.931 . S
C3144 C3138 1.383 . S
C3144 C3143 1.379 . S
H3145 C3139 0.959 . S
H3146 C3139 0.961 . S
H3147 C3139 0.960 . S
H3148 C3140 0.930 . S
H3149 C3141 0.929 . S
H3150 C3158 0.929 . S
H3151 C3160 0.930 . S
H3152 C3162 0.930 . S
H3153 C3165 0.929 . S
H3154 C3168 0.930 . S
H3155 C3170 0.960 . S
H3156 C3170 0.960 . S
H3157 C3170 0.960 . S
C3158 H3150 0.929 . S
C3158 C3159 1.377 . S
C3158 C3160 1.384 . S
C3159 C3158 1.377 . S
C3159 C3165 1.390 . S
C3160 H3151 0.930 . S
C3160 C3158 1.384 . S
C3160 C3161 1.372 . S
C3161 C3160 1.372 . S
C3161 C3162 1.400 . S
C3161 C3166 1.490 . S
C3162 H3152 0.930 . S
C3162 C3161 1.400 . S
C3162 C3165 1.386 . S
H3163 C3179 0.930 . S
H3164 C3180 0.931 . S
C3165 H3153 0.929 . S
C3165 C3159 1.390 . S
C3165 C3162 1.386 . S
C3166 C3161 1.490 . S
C3166 C3168 1.395 . S
C3166 C3169 1.403 . S
H3167 C3173 0.930 . S
C3168 H3154 0.930 . S
C3168 C3166 1.395 . S
C3168 C3171 1.403 . S
C3169 C3166 1.403 . S
C3169 C3170 1.524 . S
C3169 C3173 1.400 . S
C3170 H3155 0.960 . S
C3170 H3156 0.960 . S
C3170 H3157 0.960 . S
C3170 C3169 1.524 . S
C3171 C3168 1.403 . S
C3171 C3172 1.392 . S
C3171 C3175 1.495 . S
C3172 C3171 1.392 . S
C3172 C3173 1.385 . S
C3172 C3174 1.478 . S
C3173 H3167 0.930 . S
C3173 C3169 1.400 . S
C3173 C3172 1.385 . S
C3174 C3172 1.478 . S
C3174 C3176 1.381 1_554 S
C3174 C3180 1.383 . S
C3175 C3171 1.495 . S
C3175 H3181 0.959 . S
C3175 H3182 0.961 . S
C3175 H3183 0.960 1_554 S
C3176 C3174 1.381 1_556 S
C3176 C3177 1.394 . S
C3176 H3184 0.930 . S
C3177 C3176 1.394 . S
C3177 C3178 1.383 . S
C3177 H3185 0.929 . S
C3178 C3177 1.383 . S
C3178 C3179 1.377 . S
C3179 H3163 0.930 . S
C3179 C3178 1.377 . S
C3179 C3180 1.379 1_556 S
C3180 H3164 0.931 . S
C3180 C3174 1.383 . S
C3180 C3179 1.379 1_554 S
H3181 C3175 0.959 . S
H3182 C3175 0.961 . S
H3183 C3175 0.960 1_556 S
H3184 C3176 0.930 . S
H3185 C3177 0.929 . S
H3186 C3194 0.929 . S
H3187 C3196 0.930 . S
H3188 C3198 0.930 . S
H3189 C3201 0.929 . S
H3190 C3204 0.930 . S
H3191 C3206 0.960 . S
H3192 C3206 0.960 . S
H3193 C3206 0.960 . S
C3194 H3186 0.929 . S
C3194 C3195 1.377 . S
C3194 C3196 1.384 . S
C3195 C3194 1.377 . S
C3195 C3201 1.390 . S
C3196 H3187 0.930 . S
C3196 C3194 1.384 . S
C3196 C3197 1.372 . S
C3197 C3196 1.372 . S
C3197 C3198 1.400 . S
C3197 C3202 1.490 . S
C3198 H3188 0.930 . S
C3198 C3197 1.400 . S
C3198 C3201 1.386 . S
H3199 C3215 0.930 . S
H3200 C3216 0.931 . S
C3201 H3189 0.929 . S
C3201 C3195 1.390 . S
C3201 C3198 1.386 . S
C3202 C3197 1.490 . S
C3202 C3204 1.395 . S
C3202 C3205 1.403 . S
H3203 C3209 0.930 . S
C3204 H3190 0.930 . S
C3204 C3202 1.395 . S
C3204 C3207 1.403 . S
C3205 C3202 1.403 . S
C3205 C3206 1.524 . S
C3205 C3209 1.400 . S
C3206 H3191 0.960 . S
C3206 H3192 0.960 . S
C3206 H3193 0.960 . S
C3206 C3205 1.524 . S
C3207 C3204 1.403 . S
C3207 C3208 1.392 . S
C3207 C3211 1.495 . S
C3208 C3207 1.392 . S
C3208 C3209 1.385 . S
C3208 C3210 1.478 . S
C3209 H3203 0.930 . S
C3209 C3205 1.400 . S
C3209 C3208 1.385 . S
C3210 C3208 1.478 . S
C3210 C3212 1.381 . S
C3210 C3216 1.383 . S
C3211 C3207 1.495 . S
C3211 H3217 0.959 . S
C3211 H3218 0.961 . S
C3211 H3219 0.960 . S
C3212 C3210 1.381 . S
C3212 C3213 1.394 1_554 S
C3212 H3220 0.930 . S
C3213 C3212 1.394 1_556 S
C3213 C3214 1.383 . S
C3213 H3221 0.929 . S
C3214 C3213 1.383 . S
C3214 C3215 1.377 1_556 S
C3215 H3199 0.930 . S
C3215 C3214 1.377 1_554 S
C3215 C3216 1.379 . S
C3216 H3200 0.931 . S
C3216 C3210 1.383 . S
C3216 C3215 1.379 . S
H3217 C3211 0.959 . S
H3218 C3211 0.961 . S
H3219 C3211 0.960 . S
H3220 C3212 0.930 . S
H3221 C3213 0.929 . S
H3222 C3230 0.929 . S
H3223 C3232 0.930 . S
H3224 C3234 0.930 . S
H3225 C3237 0.929 . S
H3226 C3240 0.930 . S
H3227 C3242 0.960 . S
H3228 C3242 0.960 . S
H3229 C3242 0.960 . S
C3230 H3222 0.929 . S
C3230 C3231 1.377 . S
C3230 C3232 1.384 . S
C3231 C3230 1.377 . S
C3231 C3237 1.390 . S
C3232 H3223 0.930 . S
C3232 C3230 1.384 . S
C3232 C3233 1.372 . S
C3233 C3232 1.372 . S
C3233 C3234 1.400 . S
C3233 C3238 1.490 . S
C3234 H3224 0.930 . S
C3234 C3233 1.400 . S
C3234 C3237 1.386 . S
H3235 C3251 0.930 . S
H3236 C3252 0.931 . S
C3237 H3225 0.929 . S
C3237 C3231 1.390 . S
C3237 C3234 1.386 . S
C3238 C3233 1.490 . S
C3238 C3240 1.395 . S
C3238 C3241 1.403 . S
H3239 C3245 0.930 . S
C3240 H3226 0.930 . S
C3240 C3238 1.395 . S
C3240 C3243 1.403 . S
C3241 C3238 1.403 . S
C3241 C3242 1.524 . S
C3241 C3245 1.400 . S
C3242 H3227 0.960 . S
C3242 H3228 0.960 . S
C3242 H3229 0.960 . S
C3242 C3241 1.524 . S
C3243 C3240 1.403 . S
C3243 C3244 1.392 . S
C3243 C3247 1.495 . S
C3244 C3243 1.392 . S
C3244 C3245 1.385 . S
C3244 C3246 1.478 . S
C3245 H3239 0.930 . S
C3245 C3241 1.400 . S
C3245 C3244 1.385 . S
C3246 C3244 1.478 . S
C3246 C3248 1.381 1_554 S
C3246 C3252 1.383 . S
C3247 C3243 1.495 . S
C3247 H3253 0.959 . S
C3247 H3254 0.961 . S
C3247 H3255 0.960 1_554 S
C3248 C3246 1.381 1_556 S
C3248 C3249 1.394 . S
C3248 H3256 0.930 . S
C3249 C3248 1.394 . S
C3249 C3250 1.383 . S
C3249 H3257 0.929 . S
C3250 C3249 1.383 . S
C3250 C3251 1.377 . S
C3251 H3235 0.930 . S
C3251 C3250 1.377 . S
C3251 C3252 1.379 1_556 S
C3252 H3236 0.931 . S
C3252 C3246 1.383 . S
C3252 C3251 1.379 1_554 S
H3253 C3247 0.959 . S
H3254 C3247 0.961 . S
H3255 C3247 0.960 1_556 S
H3256 C3248 0.930 . S
H3257 C3249 0.929 . S
C675 C7 1.417 . S
C694 C575 1.418 . S
C730 C547 1.698 . S
C711 C39 1.692 . S
C766 C562 1.515 . S
C747 C62 1.555 . S
C783 C76 1.850 . S
C802 C632 1.820 . S
C819 C108 1.398 . S
C838 C645 1.400 . S
C855 N117 1.354 . S
C874 C660 1.348 . S
C910 C623 1.189 . S
C891 C16 1.244 . S
C927 C30 1.684 . S
C946 C595 1.620 . S
C982 C604 1.357 . S
C963 C53 1.435 1_556 S
C999 C85 1.827 . S
C1018 C506 1.783 1_565 S
C1054 C525 1.497 . S
C1035 C99 1.570 . S
C1071 N127 1.278 . S
C1090 C534 1.303 . S
C1107 N150 1.100 . S
C1126 C659 1.115 . S
C1162 C631 1.474 . S
C1143 N173 1.447 . S
C1198 C646 1.320 . S
C1179 C200 1.388 . S
C1215 C214 1.662 . S
C1234 C464 1.598 . S
C1251 N232 1.448 . S
C1270 C477 1.468 . S
C1287 C260 1.530 . S
C1306 C492 1.460 . S
C1342 C455 1.016 . S
C1323 N140 1.074 . S
C1359 N163 1.159 . S
C1378 C427 1.112 . S
C1414 C436 1.436 . S
C1395 C191 1.509 . S
C1450 C590 1.821 . S
C1431 C223 1.898 . S
C1486 C609 1.308 . S
C1467 N242 1.304 . S
C1522 C618 1.492 . S
C1503 C269 1.514 . S
C1539 N288 1.216 . S
C1558 C491 1.245 . S
C1575 C315 1.421 . S
C1594 C463 1.434 1_655 S
C1611 C338 1.623 . S
C1630 C478 1.552 . S
C1647 C352 1.884 . S
C1666 C548 1.843 . S
C1702 C561 1.512 . S
C1683 N370 1.493 . S
C1738 C576 1.525 . S
C1719 C398 1.587 . S
C1774 C539 0.983 . S
C1755 N278 1.020 . S
C1791 C306 1.593 . S
C1810 C511 1.528 . S
C1827 C329 1.546 . S
C1846 C520 1.486 . S
C1882 C422 1.512 . S
C1863 C361 1.570 . S
C1899 N380 1.357 . S
C1918 C441 1.316 . S
C1954 C450 1.436 . S
C1935 C407 1.460 . S
C1990 C469 1.212 . S
C1971 N12 1.280 . S
C2007 N25 1.417 . S
C2026 C481 1.424 . S
C2062 C497 1.152 . S
C2043 N48 1.172 . S
C2098 C495 1.239 . S
C2079 N81 1.226 . S
C2134 C467 1.398 . S
C2115 N94 1.389 . S
C2170 C483 1.374 . S
C2151 C131 1.478 . S
C2206 C421 1.311 . S
C2187 N2 1.290 . S
C2223 N35 1.309 . S
C2242 C439 1.337 . S
C2259 N58 1.110 . S
C2278 C449 1.136 . S
C2314 C453 1.178 . S
C2295 N71 1.138 . S
C2350 C425 1.272 . S
C2331 N104 1.276 . S
C2386 C435 1.504 . S
C2367 C122 1.512 . S
C2403 C145 1.910 . S
C2422 C553 1.780 . S
C2439 C168 1.547 . S
C2458 C565 1.505 . S
C2475 N186 1.302 . S
C2494 C581 1.283 . S
C2530 C579 1.249 . S
C2511 N219 1.234 . S
C2566 C551 1.686 . S
C2547 C246 1.688 . S
C2602 C567 1.294 . S
C2583 N265 1.394 . S
C2638 C505 1.810 . S
C2619 C154 1.814 . S
C2655 C177 1.620 . S
C2674 C523 1.601 . S
C2691 N196 1.138 . S
C2710 C533 1.167 . S
C2727 N209 1.035 . S
C2746 C537 1.083 . S
C2763 C237 1.744 . S
C2782 C509 1.729 . S
C2818 C519 1.384 . S
C2799 N255 1.341 . S
C2835 C283 1.697 . S
C2854 C637 1.564 . S
C2871 N301 1.299 . S
C2890 C649 1.308 . S
C2907 N324 1.145 . S
C2926 C665 1.110 . S
C2962 C663 1.065 . S
C2943 N357 1.057 . S
C2998 C635 1.645 . S
C2979 C384 1.656 . S
C3015 N403 1.230 . S
C3034 C651 1.171 . S
C3051 C292 1.801 . S
C3070 C589 1.791 . S
C3106 C607 1.183 . S
C3087 N311 1.185 . S
C3123 N334 1.220 . S
C3142 C617 1.246 . S
C3159 N347 1.193 . S
C3178 C621 1.224 . S
C3214 C593 1.791 . S
C3195 C375 1.793 . S
C3231 N393 1.273 . S
C3250 C603 1.317 . S
