# Generated by pormake.
# Topology pts, (4,4)-cn, num edge types: 1
# Building blocks:
#     Node 0, Type 0, BuildingBlock: MUDLON_clean_sbu_0, # of connection points: 4
#     Node 1, Type 0, BuildingBlock: MUDLON_clean_sbu_0, # of connection points: 4
#     Node 2, Type 1, BuildingBlock: AZAVOO_clean_sbu_0, # of connection points: 4
#     Node 3, Type 1, BuildingBlock: AZAVOO_clean_sbu_0, # of connection points: 4
#     Edge 4, Type (0, 1), BuildingBlock: FUNLAD_clean_linker_1, # of connection points: 2
#     Edge 5, Type (0, 1), BuildingBlock: FUNLAD_clean_linker_1, # of connection points: 2
#     Edge 6, Type (0, 1), BuildingBlock: FUNLAD_clean_linker_1, # of connection points: 2
#     Edge 7, Type (0, 1), BuildingBlock: FUNLAD_clean_linker_1, # of connection points: 2
#     Edge 8, Type (0, 1), BuildingBlock: FUNLAD_clean_linker_1, # of connection points: 2
#     Edge 9, Type (0, 1), BuildingBlock: FUNLAD_clean_linker_1, # of connection points: 2
#     Edge 10, Type (0, 1), BuildingBlock: FUNLAD_clean_linker_1, # of connection points: 2
#     Edge 11, Type (0, 1), BuildingBlock: FUNLAD_clean_linker_1, # of connection points: 2
# Relax obj value: 0.032
# Max RMSD: 0.087
# Mean RMSD: 0.074
data_MOF--net-pts--node1-MUDLON_clean_sbu_0--node2-AZAVOO_clean_sbu_0--edge1-FUNLAD_clean_linker_1
_symmetry_space_group_name_H-M    P1
_symmetry_Int_Tables_number       1
_symmetry_cell_setting            triclinic
loop_
_symmetry_equiv_pos_as_xyz
'x, y, z'
_cell_length_a     23.302391
_cell_length_b     24.292332
_cell_length_c     40.688089
_cell_angle_alpha  90.356229
_cell_angle_beta   95.624435
_cell_angle_gamma 89.890547
loop_
_atom_site_label
_atom_site_type_symbol
_atom_site_fract_x
_atom_site_fract_y
_atom_site_fract_z
_atom_type_partial_charge
Mg0 Mg 0.56716 0.03579 0.02522 0.0
C1 C 0.48842 0.05673 0.96581 0.0
O2 O 0.51458 0.01062 0.95912 0.0
C3 C 0.66668 0.05035 0.0725 0.0
O4 O 0.66736 0.99862 0.06287 0.0
C5 C 0.46472 0.97523 0.04949 0.0
O6 O 0.44325 0.98069 0.01866 0.0
O7 O 0.51675 0.98918 0.05786 0.0
O8 O 0.50394 0.0815 0.99287 0.0
O9 O 0.62156 0.99078 0.99345 0.0
C10 C 0.65744 0.02146 0.98062 0.0
O11 O 0.65881 0.07419 0.9881 0.0
O12 O 0.62688 0.08162 0.05961 0.0
Mg13 Mg 0.08046 0.51996 0.52673 0.0
C14 C 0.17329 0.58117 0.57585 0.0
O15 O 0.21369 0.56459 0.55774 0.0
C16 C 0.14237 0.46619 0.47236 0.0
O17 O 0.12628 0.51169 0.45681 0.0
C18 C 0.08543 0.61735 0.48618 0.0
O19 O 0.13655 0.61345 0.50264 0.0
O20 O 0.04744 0.58142 0.49083 0.0
O21 O 0.1212 0.56707 0.56814 0.0
O22 O 0.01747 0.47041 0.5492 0.0
C23 C 0.04195 0.44386 0.57354 0.0
O24 O 0.09769 0.45045 0.58107 0.0
O25 O 0.13308 0.46071 0.50246 0.0
Mg26 Mg 0.13281 1.00027 0.29462 0.0
O27 O 0.05139 0.01762 0.25933 0.0
O28 O 0.98036 0.03919 0.29045 0.0
Mg29 Mg 1.01372 0.03022 0.34504 0.0
C30 C 0.9995 0.03243 0.26232 0.0
C31 C 0.24434 0.00938 0.25903 0.0
O32 O 0.26517 0.01457 0.29005 0.0
O33 O 0.14286 0.09248 0.30679 0.0
O34 O 0.07382 0.10402 0.34084 0.0
O35 O 0.11058 0.91052 0.29781 0.0
O36 O 0.08127 0.97508 0.33069 0.0
C37 C 0.11654 0.12212 0.32664 0.0
C38 C 0.08085 0.92429 0.32184 0.0
O39 O 0.19015 0.00472 0.25206 0.0
Mg40 Mg 0.03413 0.99185 0.7475 0.0
O41 O 0.12021 0.01283 0.77814 0.0
O42 O 0.18942 0.00891 0.7437 0.0
Mg43 Mg 0.14936 0.9859 0.69199 0.0
C44 C 0.17295 0.01723 0.7723 0.0
C45 C 0.94706 0.98627 0.80001 0.0
O46 O 0.94145 0.93739 0.78607 0.0
O47 O 0.03151 0.07764 0.72382 0.0
O48 O 0.10007 0.06771 0.68927 0.0
O49 O 0.04818 0.9012 0.75593 0.0
O50 O 0.07798 0.94638 0.71398 0.0
C51 C 0.06067 0.09594 0.70118 0.0
C52 C 0.07533 0.90085 0.72969 0.0
O53 O 0.98274 0.02021 0.7898 0.0
H54 H 0.38055 0.95392 0.06651 0.0
C55 C 0.42507 0.96392 0.07487 0.0
H56 H 0.48342 0.98691 0.11554 0.0
H57 H 0.29305 0.09651 0.19416 0.0
H58 H 0.34405 0.1764 0.1768 0.0
H59 H 0.41905 0.16684 0.13838 0.0
H60 H 0.44323 0.07742 0.11694 0.0
C61 C 0.43986 0.97372 0.10717 0.0
C62 C 0.39529 0.97837 0.13099 0.0
C63 C 0.38242 0.03094 0.14387 0.0
C64 C 0.33974 0.0364 0.16643 0.0
C65 C 0.32624 0.0897 0.17778 0.0
C66 C 0.35489 0.13603 0.1678 0.0
C67 C 0.39706 0.13066 0.14615 0.0
C68 C 0.41066 0.07894 0.13412 0.0
H69 H 0.32989 0.01527 0.24052 0.0
C70 C 0.28454 0.0073 0.23313 0.0
H71 H 0.2232 0.98347 0.19396 0.0
H72 H 0.41107 0.8715 0.11223 0.0
H73 H 0.35945 0.79159 0.12928 0.0
H74 H 0.28499 0.80109 0.16806 0.0
H75 H 0.2618 0.89052 0.19015 0.0
C76 C 0.26784 0.99414 0.20149 0.0
C77 C 0.3107 0.98914 0.17665 0.0
C78 C 0.32302 0.9367 0.16345 0.0
C79 C 0.36559 0.93124 0.14078 0.0
C80 C 0.37832 0.87814 0.12892 0.0
C81 C 0.34923 0.83187 0.13865 0.0
C82 C 0.30734 0.83722 0.16052 0.0
C83 C 0.29436 0.88884 0.17296 0.0
H84 H 0.96399 0.39817 0.58532 0.0
C85 C 1.00992 0.4038 0.59195 0.0
H86 H 0.08363 0.37957 0.62269 0.0
H87 H 1.00453 0.25467 0.7385 0.0
H88 H 0.02728 0.34308 0.76508 0.0
H89 H 0.04113 0.42579 0.73183 0.0
H90 H 0.03268 0.42063 0.6718 0.0
C91 C 0.03804 0.37252 0.61554 0.0
C92 C 1.01084 0.32842 0.63396 0.0
C93 C 1.0136 0.33252 0.66889 0.0
C94 C 1.00501 0.28506 0.68808 0.0
C95 C 1.0106 0.2897 0.72291 0.0
C96 C 0.02346 0.34012 0.7384 0.0
C97 C 0.0313 0.3867 0.71967 0.0
C98 C 0.02658 0.38317 0.68531 0.0
H99 H 0.07792 0.16453 0.66903 0.0
C100 C 0.04867 0.15055 0.68652 0.0
H101 H 0.97247 0.1699 0.70879 0.0
H102 H 0.99607 0.30611 0.56712 0.0
H103 H 0.96466 0.21999 0.54132 0.0
H104 H 0.94327 0.13985 0.575 0.0
H105 H 0.95454 0.1455 0.63502 0.0
C106 C 1.00261 0.18182 0.69138 0.0
C107 C 0.9934 0.23379 0.67227 0.0
C108 C 0.98279 0.23131 0.63738 0.0
C109 C 0.99284 0.27828 0.61806 0.0
C110 C 0.98714 0.27274 0.58321 0.0
C111 C 0.96932 0.22326 0.568 0.0
C112 C 0.95743 0.17808 0.58694 0.0
C113 C 0.96427 0.18176 0.62126 0.0
H114 H 0.70293 0.11029 0.11045 0.0
C115 C 0.70827 0.06959 0.09994 0.0
H116 H 0.75409 0.99447 0.10332 0.0
H117 H 0.94692 0.13571 0.19692 0.0
H118 H 0.96167 0.18801 0.1478 0.0
H119 H 0.89684 0.17615 0.09657 0.0
H120 H 0.81631 0.11253 0.09427 0.0
C121 C 0.74993 0.03574 0.11328 0.0
C122 C 0.78578 0.04826 0.1447 0.0
C123 C 0.83307 0.08498 0.14542 0.0
C124 C 0.87159 0.09051 0.17468 0.0
C125 C 0.9175 0.12864 0.17506 0.0
C126 C 0.92624 0.15914 0.1471 0.0
C127 C 0.88965 0.15255 0.11826 0.0
C128 C 0.84355 0.11594 0.11728 0.0
H129 H 0.97425 0.02603 0.20863 0.0
C130 C 0.95978 0.03947 0.232 0.0
H131 H 0.8908 0.07224 0.25594 0.0
H132 H 0.69613 0.97846 0.1525 0.0
H133 H 0.68131 0.92606 0.20149 0.0
H134 H 0.74973 0.93315 0.25157 0.0
H135 H 0.83313 0.99277 0.25305 0.0
C136 C 0.90606 0.05963 0.23264 0.0
C137 C 0.86352 0.05817 0.2028 0.0
C138 C 0.81481 0.02318 0.20246 0.0
C139 C 0.77587 0.01837 0.17342 0.0
C140 C 0.7276 0.98303 0.17373 0.0
C141 C 0.71843 0.95284 0.20172 0.0
C142 C 0.75689 0.95691 0.22993 0.0
C143 C 0.8046 0.99147 0.23043 0.0
H144 H 0.22719 0.6452 0.60284 0.0
C145 C 0.18579 0.62433 0.60132 0.0
H146 H 0.10226 0.62268 0.61724 0.0
H147 H 0.20004 0.7945 0.73318 0.0
H148 H 0.2517 0.71614 0.75839 0.0
H149 H 0.25577 0.62792 0.7283 0.0
H150 H 0.20881 0.61775 0.67254 0.0
C151 C 0.1442 0.6426 0.61938 0.0
C152 C 0.14789 0.6967 0.63662 0.0
C153 C 0.17481 0.70172 0.66922 0.0
C154 C 0.17107 0.75218 0.6869 0.0
C155 C 0.19989 0.75661 0.71907 0.0
C156 C 0.23002 0.71207 0.73372 0.0
C157 C 0.23241 0.66241 0.71675 0.0
C158 C 0.20524 0.65707 0.68483 0.0
H159 H 0.08526 0.81059 0.72729 0.0
C160 C 0.09859 0.84916 0.717 0.0
H161 H 0.14256 0.887 0.68038 0.0
H162 H 0.09667 0.70216 0.57319 0.0
H163 H 0.04566 0.78024 0.54761 0.0
H164 H 0.03604 0.86675 0.57866 0.0
H165 H 0.07742 0.87575 0.63531 0.0
C166 C 0.13008 0.84851 0.691 0.0
C167 C 0.13914 0.79696 0.67211 0.0
C168 C 0.1144 0.79257 0.63888 0.0
C169 C 0.11904 0.74247 0.62112 0.0
C170 C 0.09387 0.73906 0.58799 0.0
C171 C 0.06455 0.78363 0.57293 0.0
C172 C 0.05921 0.83232 0.5904 0.0
C173 C 0.0835 0.83694 0.62297 0.0
H174 H 0.41075 0.10831 0.95276 0.0
C175 C 0.43599 0.07385 0.94489 0.0
H176 H 0.44088 0.00819 0.9111 0.0
H177 H 0.18486 0.9626 0.86848 0.0
H178 H 0.20346 0.89271 0.91049 0.0
H179 H 0.29236 0.89498 0.94877 0.0
H180 H 0.36337 0.9671 0.94514 0.0
C181 C 0.41664 0.04391 0.91815 0.0
C182 C 0.35823 0.0509 0.90036 0.0
C183 C 0.31629 0.00949 0.90341 0.0
C184 C 0.26469 0.00861 0.88164 0.0
C185 C 0.22458 0.96558 0.88454 0.0
C186 C 0.2347 0.92516 0.90856 0.0
C187 C 0.28478 0.9264 0.93008 0.0
C188 C 0.32527 0.9679 0.92764 0.0
H189 H 0.26245 0.03015 0.79347 0.0
C190 C 0.21786 0.03085 0.79927 0.0
H191 H 0.16266 0.04181 0.83704 0.0
H192 H 0.42711 0.13896 0.88996 0.0
H193 H 0.40538 0.21257 0.85056 0.0
H194 H 0.31379 0.21333 0.81454 0.0
H195 H 0.24366 0.13997 0.81739 0.0
C196 C 0.20667 0.04232 0.83037 0.0
C197 C 0.25509 0.04928 0.8569 0.0
C198 C 0.29452 0.09358 0.85591 0.0
C199 C 0.34658 0.09402 0.87738 0.0
C200 C 0.3865 0.13717 0.87467 0.0
C201 C 0.37456 0.17964 0.85214 0.0
C202 C 0.32303 0.18001 0.83181 0.0
C203 C 0.28334 0.13756 0.83354 0.0
H204 H 0.15831 0.37759 0.46575 0.0
C205 C 0.15798 0.41723 0.45346 0.0
H206 H 0.16122 0.45865 0.40833 0.0
H207 H 0.21922 0.18825 0.38683 0.0
H208 H 0.30661 0.20356 0.42328 0.0
H209 H 0.32792 0.29488 0.44842 0.0
H210 H 0.26133 0.37128 0.43764 0.0
C211 C 0.16272 0.41918 0.42078 0.0
C212 C 0.15748 0.36808 0.40017 0.0
C213 C 0.198 0.32463 0.4055 0.0
C214 C 0.18657 0.27245 0.39013 0.0
C215 C 0.22621 0.22895 0.39734 0.0
C216 C 0.27656 0.2372 0.41823 0.0
C217 C 0.28851 0.28859 0.43244 0.0
C218 C 0.24983 0.33195 0.42624 0.0
H219 H 0.17222 0.19538 0.32194 0.0
C220 C 0.13753 0.17855 0.33479 0.0
H221 H 0.0807 0.1917 0.3715 0.0
H222 H 0.07387 0.4447 0.38099 0.0
H223 H 0.99053 0.43095 0.34149 0.0
H224 H 0.97292 0.34136 0.31347 0.0
H225 H 0.03883 0.26479 0.32504 0.0
C226 C 0.11588 0.20803 0.35885 0.0
C227 C 0.13547 0.26447 0.36872 0.0
C228 C 0.09787 0.30938 0.36096 0.0
C229 C 0.10865 0.36123 0.37674 0.0
C230 C 0.06867 0.40459 0.36946 0.0
C231 C 0.0204 0.39725 0.34683 0.0
C232 C 1.01043 0.34681 0.33109 0.0
C233 C 0.04846 0.30319 0.33804 0.0
H234 H 0.68976 0.95654 0.94852 0.0
C235 C 0.69497 0.99921 0.95641 0.0
H236 H 0.73795 0.07443 0.9506 0.0
H237 H 0.91803 0.90502 0.88409 0.0
H238 H 0.93493 0.86364 0.93828 0.0
H239 H 0.87676 0.89082 0.98322 0.0
H240 H 0.80107 0.95914 0.9742 0.0
C241 C 0.73387 0.03136 0.94337 0.0
C242 C 0.7679 0.0125 0.91623 0.0
C243 C 0.81232 0.97269 0.92204 0.0
C244 C 0.84653 0.95764 0.89624 0.0
C245 C 0.89068 0.9179 0.90273 0.0
C246 C 0.90098 0.89393 0.93376 0.0
C247 C 0.86819 0.90919 0.95906 0.0
C248 C 0.82456 0.94827 0.95347 0.0
H249 H 0.91606 0.04348 0.83699 0.0
C250 C 0.91148 0.00214 0.82671 0.0
H251 H 0.86965 0.92527 0.82873 0.0
H252 H 0.68552 0.08922 0.89655 0.0
H253 H 0.66833 0.1301 0.8423 0.0
H254 H 0.7269 0.10326 0.79749 0.0
H255 H 0.80324 0.03569 0.80672 0.0
C256 C 0.87335 0.96722 0.83811 0.0
C257 C 0.8371 0.98315 0.86489 0.0
C258 C 0.79215 0.02237 0.85895 0.0
C259 C 0.75787 0.03733 0.8847 0.0
C260 C 0.71322 0.07658 0.87803 0.0
C261 C 0.70266 0.10023 0.84693 0.0
C262 C 0.73566 0.08515 0.82171 0.0
C263 C 0.77969 0.04652 0.82744 0.0
H264 H 0.1126 0.68804 0.4588 0.0
C265 C 0.07594 0.66142 0.46165 0.0
H266 H 0.98962 0.64312 0.44406 0.0
H267 H 0.09226 0.89036 0.40025 0.0
H268 H 0.09204 0.91454 0.45782 0.0
H269 H 0.05659 0.84928 0.49739 0.0
H270 H 0.02317 0.75824 0.47934 0.0
C271 C 0.02639 0.67009 0.4426 0.0
C272 C 0.02406 0.71476 0.41743 0.0
C273 C 0.03773 0.76954 0.42751 0.0
C274 C 0.05355 0.80861 0.40414 0.0
C275 C 0.07513 0.86031 0.41605 0.0
C276 C 0.07607 0.87458 0.44932 0.0
C277 C 0.05644 0.83777 0.47163 0.0
C278 C 0.03773 0.78568 0.46102 0.0
H279 H 1.01513 0.89792 0.35386 0.0
C280 C 0.05009 0.88353 0.34017 0.0
H281 H 0.10677 0.81834 0.33202 0.0
H282 H 0.99072 0.61584 0.3894 0.0
H283 H 0.98056 0.59361 0.33088 0.0
H284 H 0.99998 0.66338 0.28959 0.0
H285 H 0.03052 0.75561 0.30658 0.0
C286 C 0.07119 0.8325 0.34531 0.0
C287 C 0.04971 0.79433 0.36999 0.0
C288 C 0.02972 0.74123 0.35961 0.0
C289 C 0.0174 0.70125 0.38337 0.0
C290 C 1.00018 0.64785 0.37238 0.0
C291 C 0.99407 0.63458 0.33886 0.0
C292 C 1.00505 0.67385 0.31561 0.0
C293 C 0.02272 0.72658 0.32571 0.0
loop_
_geom_bond_atom_site_label_1
_geom_bond_atom_site_label_2
_geom_bond_distance
_geom_bond_site_symmetry_2
_ccdc_geom_bond_type
Mg0 O7 2.141 . S
Mg0 O8 2.048 1_554 S
Mg0 O9 2.048 1_554 S
Mg0 O12 2.141 . S
C1 O2 1.313 1_545 S
C1 O8 1.195 . S
O2 C1 1.313 1_565 S
C3 O4 1.245 1_545 S
C3 O12 1.289 . S
O4 C3 1.245 1_565 S
C5 O6 1.245 1_545 S
C5 O7 1.289 . S
O6 C5 1.245 1_565 S
O7 Mg0 2.141 . S
O7 C5 1.289 . S
O8 Mg0 2.048 1_556 S
O8 C1 1.195 . S
O9 Mg0 2.048 1_556 S
O9 C10 1.195 . S
C10 O9 1.195 . S
C10 O11 1.313 1_545 S
O11 C10 1.313 1_565 S
O12 Mg0 2.141 . S
O12 C3 1.289 . S
Mg13 O20 2.141 . S
Mg13 O21 2.048 . S
Mg13 O22 2.048 . S
Mg13 O25 2.141 . S
C14 O15 1.313 . S
C14 O21 1.195 . S
O15 C14 1.313 . S
C16 O17 1.245 . S
C16 O25 1.289 . S
O17 C16 1.245 . S
C18 O19 1.245 . S
C18 O20 1.289 . S
O19 C18 1.245 . S
O20 Mg13 2.141 . S
O20 C18 1.289 . S
O21 Mg13 2.048 . S
O21 C14 1.195 . S
O22 Mg13 2.048 . S
O22 C23 1.195 . S
C23 O22 1.195 . S
C23 O24 1.313 . S
O24 C23 1.313 . S
O25 Mg13 2.141 . S
O25 C16 1.289 . S
Mg26 O27 2.028 . S
Mg26 O33 1.986 . S
Mg26 O35 2.114 1_545 S
Mg26 O36 2.251 1_545 S
Mg26 O39 2.010 . S
O27 Mg26 2.028 . S
O27 C30 1.250 . S
O28 Mg29 2.028 . S
O28 C30 1.248 1_655 S
Mg29 O28 2.028 . S
Mg29 O34 2.032 1_655 S
Mg29 O36 2.079 1_645 S
C30 O27 1.250 . S
C30 O28 1.248 1_455 S
C31 O32 1.264 . S
C31 O39 1.249 . S
O32 C31 1.264 . S
O33 Mg26 1.986 . S
O33 C37 1.246 . S
O34 Mg29 2.032 1_455 S
O34 C37 1.259 . S
O35 Mg26 2.114 1_565 S
O35 C38 1.252 . S
O36 Mg26 2.251 1_565 S
O36 Mg29 2.079 1_465 S
O36 C38 1.273 . S
C37 O33 1.246 . S
C37 O34 1.259 . S
C38 O35 1.252 . S
C38 O36 1.273 . S
O39 Mg26 2.010 . S
O39 C31 1.249 . S
Mg40 O41 2.028 . S
Mg40 O47 1.986 . S
Mg40 O49 2.114 1_545 S
Mg40 O50 2.251 1_545 S
Mg40 O53 2.010 1_455 S
O41 Mg40 2.028 . S
O41 C44 1.250 . S
O42 Mg43 2.028 . S
O42 C44 1.248 . S
Mg43 O42 2.028 . S
Mg43 O48 2.032 . S
Mg43 O50 2.079 1_545 S
C44 O41 1.250 . S
C44 O42 1.248 . S
C45 O46 1.264 . S
C45 O53 1.249 . S
O46 C45 1.264 . S
O47 Mg40 1.986 . S
O47 C51 1.246 . S
O48 Mg43 2.032 . S
O48 C51 1.259 . S
O49 Mg40 2.114 1_565 S
O49 C52 1.252 . S
O50 Mg40 2.251 1_565 S
O50 Mg43 2.079 1_565 S
O50 C52 1.273 . S
C51 O47 1.246 . S
C51 O48 1.259 . S
C52 O49 1.252 . S
C52 O50 1.273 . S
O53 Mg40 2.010 1_655 S
O53 C45 1.249 . S
H54 C55 0.951 1_565 S
C55 H54 0.951 1_545 S
C55 C61 1.265 . S
H56 C61 0.950 . S
H57 C65 0.949 . S
H58 C66 0.950 . S
H59 C67 0.951 . S
H60 C68 0.951 . S
C61 C55 1.265 . S
C61 H56 0.950 . S
C61 C62 1.478 . S
C62 C61 1.478 . S
C62 C63 1.397 . S
C62 C79 1.394 1_545 S
C63 C62 1.397 . S
C63 C64 1.438 . S
C63 C68 1.429 . S
C64 C63 1.438 . S
C64 C65 1.428 . S
C64 C77 1.394 . S
C65 H57 0.949 . S
C65 C64 1.428 . S
C65 C66 1.345 . S
C66 H58 0.950 . S
C66 C65 1.345 . S
C66 C67 1.424 . S
C67 H59 0.951 . S
C67 C66 1.424 . S
C67 C68 1.347 . S
C68 H60 0.951 . S
C68 C63 1.429 . S
C68 C67 1.347 . S
H69 C70 0.951 . S
C70 H69 0.951 . S
C70 C76 1.265 . S
H71 C76 0.950 1_565 S
H72 C80 0.949 . S
H73 C81 0.950 . S
H74 C82 0.951 . S
H75 C83 0.951 . S
C76 C70 1.265 . S
C76 H71 0.950 1_545 S
C76 C77 1.478 . S
C77 C64 1.394 . S
C77 C76 1.478 . S
C77 C78 1.397 1_545 S
C78 C77 1.397 1_565 S
C78 C79 1.438 . S
C78 C83 1.429 . S
C79 C62 1.394 1_565 S
C79 C78 1.438 . S
C79 C80 1.428 . S
C80 H72 0.949 . S
C80 C79 1.428 . S
C80 C81 1.345 . S
C81 H73 0.950 . S
C81 C80 1.345 . S
C81 C82 1.424 . S
C82 H74 0.951 . S
C82 C81 1.424 . S
C82 C83 1.347 . S
C83 H75 0.951 . S
C83 C78 1.429 . S
C83 C82 1.347 . S
H84 C85 0.951 . S
C85 H84 0.951 . S
C85 C91 1.265 . S
H86 C91 0.950 . S
H87 C95 0.949 . S
H88 C96 0.950 . S
H89 C97 0.951 . S
H90 C98 0.951 . S
C91 C85 1.265 . S
C91 H86 0.950 . S
C91 C92 1.478 . S
C92 C91 1.478 . S
C92 C93 1.397 . S
C92 C109 1.394 . S
C93 C92 1.397 . S
C93 C94 1.438 . S
C93 C98 1.429 . S
C94 C93 1.438 . S
C94 C95 1.428 . S
C94 C107 1.394 . S
C95 H87 0.949 . S
C95 C94 1.428 . S
C95 C96 1.345 . S
C96 H88 0.950 . S
C96 C95 1.345 . S
C96 C97 1.424 . S
C97 H89 0.951 . S
C97 C96 1.424 . S
C97 C98 1.347 . S
C98 H90 0.951 . S
C98 C93 1.429 . S
C98 C97 1.347 . S
H99 C100 0.951 . S
C100 H99 0.951 . S
C100 C106 1.265 . S
H101 C106 0.950 1_655 S
H102 C110 0.949 . S
H103 C111 0.950 . S
H104 C112 0.951 . S
H105 C113 0.951 . S
C106 C100 1.265 . S
C106 H101 0.950 1_455 S
C106 C107 1.478 . S
C107 C94 1.394 . S
C107 C106 1.478 . S
C107 C108 1.397 . S
C108 C107 1.397 . S
C108 C109 1.438 . S
C108 C113 1.429 1_455 S
C109 C92 1.394 . S
C109 C108 1.438 . S
C109 C110 1.428 . S
C110 H102 0.949 . S
C110 C109 1.428 . S
C110 C111 1.345 1_455 S
C111 H103 0.950 . S
C111 C110 1.345 1_655 S
C111 C112 1.424 . S
C112 H104 0.951 . S
C112 C111 1.424 . S
C112 C113 1.347 . S
C113 H105 0.951 . S
C113 C108 1.429 1_655 S
C113 C112 1.347 . S
H114 C115 0.951 . S
C115 H114 0.951 . S
C115 C121 1.265 . S
H116 C121 0.950 . S
H117 C125 0.949 . S
H118 C126 0.950 . S
H119 C127 0.951 . S
H120 C128 0.951 . S
C121 C115 1.265 . S
C121 H116 0.950 . S
C121 C122 1.478 . S
C122 C121 1.478 . S
C122 C123 1.397 . S
C122 C139 1.394 1_545 S
C123 C122 1.397 . S
C123 C124 1.438 . S
C123 C128 1.429 . S
C124 C123 1.438 . S
C124 C125 1.428 . S
C124 C137 1.394 . S
C125 H117 0.949 . S
C125 C124 1.428 . S
C125 C126 1.345 . S
C126 H118 0.950 . S
C126 C125 1.345 . S
C126 C127 1.424 . S
C127 H119 0.951 . S
C127 C126 1.424 . S
C127 C128 1.347 . S
C128 H120 0.951 . S
C128 C123 1.429 . S
C128 C127 1.347 . S
H129 C130 0.951 . S
C130 H129 0.951 . S
C130 C136 1.265 . S
H131 C136 0.950 . S
H132 C140 0.949 . S
H133 C141 0.950 . S
H134 C142 0.951 . S
H135 C143 0.951 . S
C136 C130 1.265 . S
C136 H131 0.950 . S
C136 C137 1.478 . S
C137 C124 1.394 . S
C137 C136 1.478 . S
C137 C138 1.397 1_545 S
C138 C137 1.397 1_565 S
C138 C139 1.438 . S
C138 C143 1.429 . S
C139 C122 1.394 1_565 S
C139 C138 1.438 . S
C139 C140 1.428 . S
C140 H132 0.949 . S
C140 C139 1.428 . S
C140 C141 1.345 . S
C141 H133 0.950 . S
C141 C140 1.345 . S
C141 C142 1.424 . S
C142 H134 0.951 . S
C142 C141 1.424 . S
C142 C143 1.347 . S
C143 H135 0.951 . S
C143 C138 1.429 . S
C143 C142 1.347 . S
H144 C145 0.951 . S
C145 H144 0.951 . S
C145 C151 1.265 . S
H146 C151 0.950 1_655 S
H147 C155 0.949 . S
H148 C156 0.950 . S
H149 C157 0.951 1_655 S
H150 C158 0.951 . S
C151 C145 1.265 . S
C151 H146 0.950 1_455 S
C151 C152 1.478 . S
C152 C151 1.478 . S
C152 C153 1.397 . S
C152 C169 1.394 . S
C153 C152 1.397 . S
C153 C154 1.438 . S
C153 C158 1.429 . S
C154 C153 1.438 . S
C154 C155 1.428 . S
C154 C167 1.394 . S
C155 H147 0.949 . S
C155 C154 1.428 . S
C155 C156 1.345 . S
C156 H148 0.950 . S
C156 C155 1.345 . S
C156 C157 1.424 . S
C157 H149 0.951 1_455 S
C157 C156 1.424 . S
C157 C158 1.347 . S
C158 H150 0.951 . S
C158 C153 1.429 . S
C158 C157 1.347 . S
H159 C160 0.951 1_655 S
C160 H159 0.951 1_455 S
C160 C166 1.265 . S
H161 C166 0.950 . S
H162 C170 0.949 . S
H163 C171 0.950 . S
H164 C172 0.951 . S
H165 C173 0.951 . S
C166 C160 1.265 . S
C166 H161 0.950 . S
C166 C167 1.478 . S
C167 C154 1.394 . S
C167 C166 1.478 . S
C167 C168 1.397 . S
C168 C167 1.397 . S
C168 C169 1.438 . S
C168 C173 1.429 . S
C169 C152 1.394 . S
C169 C168 1.438 . S
C169 C170 1.428 . S
C170 H162 0.949 . S
C170 C169 1.428 . S
C170 C171 1.345 . S
C171 H163 0.950 . S
C171 C170 1.345 . S
C171 C172 1.424 . S
C172 H164 0.951 . S
C172 C171 1.424 . S
C172 C173 1.347 . S
C173 H165 0.951 . S
C173 C168 1.429 . S
C173 C172 1.347 . S
H174 C175 0.951 . S
C175 H174 0.951 . S
C175 C181 1.265 . S
H176 C181 0.950 . S
H177 C185 0.949 . S
H178 C186 0.950 . S
H179 C187 0.951 . S
H180 C188 0.951 . S
C181 C175 1.265 . S
C181 H176 0.950 . S
C181 C182 1.478 . S
C182 C181 1.478 . S
C182 C183 1.397 1_545 S
C182 C199 1.394 . S
C183 C182 1.397 1_565 S
C183 C184 1.438 . S
C183 C188 1.429 . S
C184 C183 1.438 . S
C184 C185 1.428 . S
C184 C197 1.394 1_565 S
C185 H177 0.949 . S
C185 C184 1.428 . S
C185 C186 1.345 . S
C186 H178 0.950 . S
C186 C185 1.345 . S
C186 C187 1.424 . S
C187 H179 0.951 . S
C187 C186 1.424 . S
C187 C188 1.347 . S
C188 H180 0.951 . S
C188 C183 1.429 . S
C188 C187 1.347 . S
H189 C190 0.951 . S
C190 H189 0.951 . S
C190 C196 1.265 . S
H191 C196 0.950 . S
H192 C200 0.949 . S
H193 C201 0.950 . S
H194 C202 0.951 . S
H195 C203 0.951 . S
C196 C190 1.265 . S
C196 H191 0.950 . S
C196 C197 1.478 . S
C197 C184 1.394 1_545 S
C197 C196 1.478 . S
C197 C198 1.397 . S
C198 C197 1.397 . S
C198 C199 1.438 . S
C198 C203 1.429 . S
C199 C182 1.394 . S
C199 C198 1.438 . S
C199 C200 1.428 . S
C200 H192 0.949 . S
C200 C199 1.428 . S
C200 C201 1.345 . S
C201 H193 0.950 . S
C201 C200 1.345 . S
C201 C202 1.424 . S
C202 H194 0.951 . S
C202 C201 1.424 . S
C202 C203 1.347 . S
C203 H195 0.951 . S
C203 C198 1.429 . S
C203 C202 1.347 . S
H204 C205 0.951 . S
C205 H204 0.951 . S
C205 C211 1.265 . S
H206 C211 0.950 . S
H207 C215 0.949 . S
H208 C216 0.950 . S
H209 C217 0.951 . S
H210 C218 0.951 . S
C211 C205 1.265 . S
C211 H206 0.950 . S
C211 C212 1.478 . S
C212 C211 1.478 . S
C212 C213 1.397 . S
C212 C229 1.394 . S
C213 C212 1.397 . S
C213 C214 1.438 . S
C213 C218 1.429 . S
C214 C213 1.438 . S
C214 C215 1.428 . S
C214 C227 1.394 . S
C215 H207 0.949 . S
C215 C214 1.428 . S
C215 C216 1.345 . S
C216 H208 0.950 . S
C216 C215 1.345 . S
C216 C217 1.424 . S
C217 H209 0.951 . S
C217 C216 1.424 . S
C217 C218 1.347 . S
C218 H210 0.951 . S
C218 C213 1.429 . S
C218 C217 1.347 . S
H219 C220 0.951 . S
C220 H219 0.951 . S
C220 C226 1.265 . S
H221 C226 0.950 . S
H222 C230 0.949 . S
H223 C231 0.950 . S
H224 C232 0.951 . S
H225 C233 0.951 . S
C226 C220 1.265 . S
C226 H221 0.950 . S
C226 C227 1.478 . S
C227 C214 1.394 . S
C227 C226 1.478 . S
C227 C228 1.397 . S
C228 C227 1.397 . S
C228 C229 1.438 . S
C228 C233 1.429 1_455 S
C229 C212 1.394 . S
C229 C228 1.438 . S
C229 C230 1.428 1_455 S
C230 H222 0.949 . S
C230 C229 1.428 1_655 S
C230 C231 1.345 . S
C231 H223 0.950 . S
C231 C230 1.345 . S
C231 C232 1.424 . S
C232 H224 0.951 . S
C232 C231 1.424 . S
C232 C233 1.347 . S
C233 H225 0.951 . S
C233 C228 1.429 1_655 S
C233 C232 1.347 . S
H234 C235 0.951 . S
C235 H234 0.951 . S
C235 C241 1.265 1_545 S
H236 C241 0.950 . S
H237 C245 0.949 . S
H238 C246 0.950 . S
H239 C247 0.951 . S
H240 C248 0.951 . S
C241 C235 1.265 1_565 S
C241 H236 0.950 . S
C241 C242 1.478 1_565 S
C242 C241 1.478 1_545 S
C242 C243 1.397 1_545 S
C242 C259 1.394 . S
C243 C242 1.397 1_565 S
C243 C244 1.438 . S
C243 C248 1.429 . S
C244 C243 1.438 . S
C244 C245 1.428 . S
C244 C257 1.394 1_565 S
C245 H237 0.949 . S
C245 C244 1.428 . S
C245 C246 1.345 . S
C246 H238 0.950 . S
C246 C245 1.345 . S
C246 C247 1.424 . S
C247 H239 0.951 . S
C247 C246 1.424 . S
C247 C248 1.347 . S
C248 H240 0.951 . S
C248 C243 1.429 . S
C248 C247 1.347 . S
H249 C250 0.947 1_565 S
C250 H249 0.947 1_545 S
C250 C256 1.265 . S
H251 C256 0.950 . S
H252 C260 0.949 . S
H253 C261 0.950 . S
H254 C262 0.951 . S
H255 C263 0.951 . S
C256 C250 1.265 . S
C256 H251 0.950 . S
C256 C257 1.478 . S
C257 C244 1.394 1_545 S
C257 C256 1.478 . S
C257 C258 1.397 . S
C258 C257 1.397 . S
C258 C259 1.438 . S
C258 C263 1.429 . S
C259 C242 1.394 . S
C259 C258 1.438 . S
C259 C260 1.428 . S
C260 H252 0.949 . S
C260 C259 1.428 . S
C260 C261 1.345 . S
C261 H253 0.950 . S
C261 C260 1.345 . S
C261 C262 1.424 . S
C262 H254 0.951 . S
C262 C261 1.424 . S
C262 C263 1.347 . S
C263 H255 0.951 . S
C263 C258 1.429 . S
C263 C262 1.347 . S
H264 C265 0.951 . S
C265 H264 0.951 . S
C265 C271 1.265 . S
H266 C271 0.950 . S
H267 C275 0.949 . S
H268 C276 0.950 . S
H269 C277 0.951 . S
H270 C278 0.951 . S
C271 C265 1.265 . S
C271 H266 0.950 . S
C271 C272 1.478 . S
C272 C271 1.478 . S
C272 C273 1.397 . S
C272 C289 1.394 . S
C273 C272 1.397 . S
C273 C274 1.438 . S
C273 C278 1.429 . S
C274 C273 1.438 . S
C274 C275 1.428 . S
C274 C287 1.394 . S
C275 H267 0.949 . S
C275 C274 1.428 . S
C275 C276 1.345 . S
C276 H268 0.950 . S
C276 C275 1.345 . S
C276 C277 1.424 . S
C277 H269 0.951 . S
C277 C276 1.424 . S
C277 C278 1.347 . S
C278 H270 0.951 . S
C278 C273 1.429 . S
C278 C277 1.347 . S
H279 C280 0.951 . S
C280 H279 0.951 . S
C280 C286 1.265 . S
H281 C286 0.950 . S
H282 C290 0.949 . S
H283 C291 0.950 . S
H284 C292 0.951 . S
H285 C293 0.951 . S
C286 C280 1.265 . S
C286 H281 0.950 . S
C286 C287 1.478 . S
C287 C274 1.394 . S
C287 C286 1.478 . S
C287 C288 1.397 . S
C288 C287 1.397 . S
C288 C289 1.438 . S
C288 C293 1.429 . S
C289 C272 1.394 . S
C289 C288 1.438 . S
C289 C290 1.428 . S
C290 H282 0.949 . S
C290 C289 1.428 . S
C290 C291 1.345 . S
C291 H283 0.950 . S
C291 C290 1.345 . S
C291 C292 1.424 . S
C292 H284 0.951 . S
C292 C291 1.424 . S
C292 C293 1.347 . S
C293 H285 0.951 . S
C293 C288 1.429 . S
C293 C292 1.347 . S
C70 C31 1.129 . S
C55 C5 1.383 . S
C100 C51 1.399 . S
C85 C23 1.476 . S
C130 C30 1.427 1_655 S
C115 C3 1.411 . S
C160 C52 1.485 . S
C145 C14 1.465 . S
C190 C44 1.422 . S
C175 C1 1.481 . S
C220 C37 1.405 . S
C205 C16 1.400 . S
C250 C45 1.343 . S
C235 C10 1.463 . S
C265 C18 1.388 . S
C280 C38 1.417 . S
