# Generated by pormake.
# Topology pto, (3,4)-cn, num edge types: 1
# Building blocks:
#     Node 0, Type 0, BuildingBlock: WUSLED_clean_sbu_0, # of connection points: 3
#     Node 1, Type 0, BuildingBlock: WUSLED_clean_sbu_0, # of connection points: 3
#     Node 2, Type 0, BuildingBlock: WUSLED_clean_sbu_0, # of connection points: 3
#     Node 3, Type 0, BuildingBlock: WUSLED_clean_sbu_0, # of connection points: 3
#     Node 4, Type 0, BuildingBlock: WUSLED_clean_sbu_0, # of connection points: 3
#     Node 5, Type 0, BuildingBlock: WUSLED_clean_sbu_0, # of connection points: 3
#     Node 6, Type 0, BuildingBlock: WUSLED_clean_sbu_0, # of connection points: 3
#     Node 7, Type 0, BuildingBlock: WUSLED_clean_sbu_0, # of connection points: 3
#     Node 8, Type 1, BuildingBlock: KOZSID_clean_sbu_0, # of connection points: 4
#     Node 9, Type 1, BuildingBlock: KOZSID_clean_sbu_0, # of connection points: 4
#     Node 10, Type 1, BuildingBlock: KOZSID_clean_sbu_0, # of connection points: 4
#     Node 11, Type 1, BuildingBlock: KOZSID_clean_sbu_0, # of connection points: 4
#     Node 12, Type 1, BuildingBlock: KOZSID_clean_sbu_0, # of connection points: 4
#     Node 13, Type 1, BuildingBlock: KOZSID_clean_sbu_0, # of connection points: 4
#     Edge 14, Type (0, 1), BuildingBlock: TEMPAE_clean_linker_10, # of connection points: 2
#     Edge 15, Type (0, 1), BuildingBlock: TEMPAE_clean_linker_10, # of connection points: 2
#     Edge 16, Type (0, 1), BuildingBlock: TEMPAE_clean_linker_10, # of connection points: 2
#     Edge 17, Type (0, 1), BuildingBlock: TEMPAE_clean_linker_10, # of connection points: 2
#     Edge 18, Type (0, 1), BuildingBlock: TEMPAE_clean_linker_10, # of connection points: 2
#     Edge 19, Type (0, 1), BuildingBlock: TEMPAE_clean_linker_10, # of connection points: 2
#     Edge 20, Type (0, 1), BuildingBlock: TEMPAE_clean_linker_10, # of connection points: 2
#     Edge 21, Type (0, 1), BuildingBlock: TEMPAE_clean_linker_10, # of connection points: 2
#     Edge 22, Type (0, 1), BuildingBlock: TEMPAE_clean_linker_10, # of connection points: 2
#     Edge 23, Type (0, 1), BuildingBlock: TEMPAE_clean_linker_10, # of connection points: 2
#     Edge 24, Type (0, 1), BuildingBlock: TEMPAE_clean_linker_10, # of connection points: 2
#     Edge 25, Type (0, 1), BuildingBlock: TEMPAE_clean_linker_10, # of connection points: 2
#     Edge 26, Type (0, 1), BuildingBlock: TEMPAE_clean_linker_10, # of connection points: 2
#     Edge 27, Type (0, 1), BuildingBlock: TEMPAE_clean_linker_10, # of connection points: 2
#     Edge 28, Type (0, 1), BuildingBlock: TEMPAE_clean_linker_10, # of connection points: 2
#     Edge 29, Type (0, 1), BuildingBlock: TEMPAE_clean_linker_10, # of connection points: 2
#     Edge 30, Type (0, 1), BuildingBlock: TEMPAE_clean_linker_10, # of connection points: 2
#     Edge 31, Type (0, 1), BuildingBlock: TEMPAE_clean_linker_10, # of connection points: 2
#     Edge 32, Type (0, 1), BuildingBlock: TEMPAE_clean_linker_10, # of connection points: 2
#     Edge 33, Type (0, 1), BuildingBlock: TEMPAE_clean_linker_10, # of connection points: 2
#     Edge 34, Type (0, 1), BuildingBlock: TEMPAE_clean_linker_10, # of connection points: 2
#     Edge 35, Type (0, 1), BuildingBlock: TEMPAE_clean_linker_10, # of connection points: 2
#     Edge 36, Type (0, 1), BuildingBlock: TEMPAE_clean_linker_10, # of connection points: 2
#     Edge 37, Type (0, 1), BuildingBlock: TEMPAE_clean_linker_10, # of connection points: 2
# Relax obj value: 0.000
# Max RMSD: 0.023
# Mean RMSD: 0.010
data_MOF--net-pto--node1-WUSLED_clean_sbu_0--node2-KOZSID_clean_sbu_0--edge1-TEMPAE_clean_linker_10
_symmetry_space_group_name_H-M    P1
_symmetry_Int_Tables_number       1
_symmetry_cell_setting            triclinic
loop_
_symmetry_equiv_pos_as_xyz
'x, y, z'
_cell_length_a     49.851411
_cell_length_b     66.437054
_cell_length_c     58.219947
_cell_angle_alpha  87.502608
_cell_angle_beta   88.257281
_cell_angle_gamma 92.830086
loop_
_atom_site_label
_atom_site_type_symbol
_atom_site_fract_x
_atom_site_fract_y
_atom_site_fract_z
_atom_type_partial_charge
C0 C 0.25399 0.22948 0.35909 0.0
C1 C 0.24595 0.21099 0.34984 0.0
C2 C 0.25758 0.19269 0.38512 0.0
C3 C 0.24767 0.19282 0.36274 0.0
C4 C 0.26591 0.21116 0.39421 0.0
C5 C 0.26402 0.22933 0.38139 0.0
U6 U 0.27055 0.2675 0.30811 0.0
O7 O 0.2443 0.28707 0.28854 0.0
O8 O 0.27724 0.3006 0.30784 0.0
C9 C 0.25594 0.30377 0.29567 0.0
C10 C 0.25109 0.24905 0.34633 0.0
C11 C 0.23809 0.31943 0.30365 0.0
C12 C 0.19355 0.33113 0.31268 0.0
C13 C 0.21028 0.31549 0.30748 0.0
C14 C 0.23215 0.35477 0.31108 0.0
C15 C 0.20424 0.35101 0.31426 0.0
C16 C 0.24883 0.33917 0.30576 0.0
C17 C 0.32064 0.25312 0.26027 0.0
C18 C 0.35039 0.27444 0.23447 0.0
C19 C 0.3387 0.24007 0.22493 0.0
C20 C 0.32278 0.2374 0.24513 0.0
C21 C 0.35303 0.25853 0.21946 0.0
C22 C 0.33432 0.27177 0.25466 0.0
C23 C 0.30498 0.24927 0.28213 0.0
O24 O 0.27223 0.26174 0.3456 0.0
O25 O 0.2388 0.24855 0.32667 0.0
O26 O 0.27881 0.24679 0.28046 0.0
O27 O 0.31208 0.26016 0.29949 0.0
H28 H 0.23812 0.21052 0.33272 0.0
H29 H 0.24134 0.17884 0.35514 0.0
H30 H 0.27333 0.21163 0.41149 0.0
H31 H 0.27012 0.24334 0.38904 0.0
H32 H 0.17218 0.32768 0.31529 0.0
H33 H 0.20134 0.30043 0.30602 0.0
H34 H 0.24103 0.36992 0.3119 0.0
H35 H 0.27014 0.34265 0.3027 0.0
H36 H 0.36127 0.2888 0.23093 0.0
H37 H 0.33979 0.22761 0.2136 0.0
H38 H 0.31233 0.22291 0.24906 0.0
H39 H 0.33296 0.28419 0.26603 0.0
C40 C 0.23853 0.81979 0.69679 0.0
C41 C 0.2617 0.83246 0.69854 0.0
C42 C 0.24437 0.85684 0.67084 0.0
C43 C 0.26464 0.85079 0.68562 0.0
C44 C 0.22115 0.84408 0.66932 0.0
C45 C 0.21831 0.82575 0.68215 0.0
U46 U 0.25594 0.78324 0.74642 0.0
O47 O 0.22915 0.76328 0.76916 0.0
O48 O 0.25983 0.75039 0.74715 0.0
C49 C 0.23907 0.74678 0.76149 0.0
C50 C 0.23501 0.80033 0.71001 0.0
C51 C 0.21935 0.73039 0.75607 0.0
C52 C 0.20229 0.70463 0.73092 0.0
C53 C 0.21961 0.72137 0.73465 0.0
C54 C 0.1837 0.706 0.76967 0.0
C55 C 0.18438 0.69654 0.74851 0.0
C56 C 0.20103 0.72265 0.7734 0.0
C57 C 0.30989 0.79926 0.78859 0.0
C58 C 0.32465 0.77725 0.81972 0.0
C59 C 0.34217 0.81193 0.81556 0.0
C60 C 0.32653 0.81499 0.79631 0.0
C61 C 0.34152 0.79301 0.82751 0.0
C62 C 0.30896 0.78036 0.80042 0.0
C63 C 0.29365 0.80294 0.76826 0.0
O64 O 0.25527 0.78843 0.70886 0.0
O65 O 0.22455 0.80115 0.73092 0.0
O66 O 0.26785 0.80472 0.77246 0.0
O67 O 0.29865 0.79186 0.75062 0.0
H68 H 0.2775 0.82817 0.70988 0.0
H69 H 0.28263 0.86034 0.68739 0.0
H70 H 0.20532 0.84811 0.65791 0.0
H71 H 0.20029 0.81617 0.68055 0.0
H72 H 0.20353 0.69765 0.71447 0.0
H73 H 0.23355 0.72694 0.72093 0.0
H74 H 0.16986 0.70045 0.78347 0.0
H75 H 0.20046 0.72928 0.79008 0.0
H76 H 0.32382 0.76246 0.82836 0.0
H77 H 0.35453 0.82449 0.82127 0.0
H78 H 0.32739 0.82971 0.78746 0.0
H79 H 0.29617 0.76802 0.79469 0.0
C80 C 0.73311 0.8001 0.26648 0.0
C81 C 0.72812 0.78068 0.25846 0.0
C82 C 0.70245 0.79454 0.22699 0.0
C83 C 0.71282 0.77791 0.23894 0.0
C84 C 0.7078 0.81397 0.235 0.0
C85 C 0.72295 0.81669 0.25456 0.0
U86 U 0.78429 0.78373 0.31046 0.0
O87 O 0.81612 0.80161 0.32677 0.0
O88 O 0.78357 0.78629 0.34812 0.0
C89 C 0.80454 0.79913 0.34738 0.0
C90 C 0.74867 0.80338 0.28724 0.0
C91 C 0.80154 0.81758 0.36034 0.0
C92 C 0.7953 0.85365 0.36184 0.0
C93 C 0.79722 0.83628 0.34918 0.0
C94 C 0.80135 0.83381 0.39701 0.0
C95 C 0.79742 0.85264 0.38592 0.0
C96 C 0.80345 0.8165 0.38434 0.0
C97 C 0.81714 0.73265 0.30141 0.0
C98 C 0.84215 0.71253 0.32851 0.0
C99 C 0.84138 0.70418 0.28845 0.0
C100 C 0.8252 0.72034 0.28381 0.0
C101 C 0.84986 0.6999 0.31089 0.0
C102 C 0.82588 0.72878 0.32381 0.0
C103 C 0.79904 0.74893 0.2958 0.0
O104 O 0.74235 0.79106 0.30508 0.0
O105 O 0.77473 0.80658 0.28376 0.0
O106 O 0.81062 0.76635 0.28857 0.0
O107 O 0.77837 0.75072 0.31001 0.0
H108 H 0.73597 0.76767 0.26734 0.0
H109 H 0.70931 0.76279 0.23308 0.0
H110 H 0.69986 0.82706 0.22638 0.0
H111 H 0.72658 0.83179 0.26049 0.0
H112 H 0.79196 0.86785 0.3528 0.0
H113 H 0.79545 0.83748 0.33067 0.0
H114 H 0.80334 0.83253 0.41549 0.0
H115 H 0.8068 0.80225 0.39329 0.0
H116 H 0.84821 0.70961 0.34599 0.0
H117 H 0.84735 0.69506 0.27438 0.0
H118 H 0.81876 0.72314 0.26639 0.0
H119 H 0.81989 0.73815 0.33766 0.0
C120 C 0.76818 0.2271 0.73157 0.0
C121 C 0.79358 0.22445 0.72134 0.0
C122 C 0.77498 0.19666 0.69959 0.0
C123 C 0.79695 0.20936 0.70552 0.0
C124 C 0.74951 0.19975 0.70957 0.0
C125 C 0.7462 0.21475 0.72539 0.0
U126 U 0.78279 0.27816 0.75942 0.0
O127 O 0.75431 0.29822 0.77515 0.0
O128 O 0.78505 0.28459 0.79611 0.0
C129 C 0.76394 0.29567 0.79578 0.0
C130 C 0.76406 0.24204 0.74926 0.0
C131 C 0.74394 0.29165 0.81476 0.0
C132 C 0.70938 0.27024 0.8354 0.0
C133 C 0.72834 0.27346 0.81714 0.0
C134 C 0.72155 0.30331 0.84897 0.0
C135 C 0.70568 0.28519 0.8515 0.0
C136 C 0.74044 0.30648 0.83079 0.0
C137 C 0.83498 0.31746 0.7339 0.0
C138 C 0.84618 0.34844 0.75308 0.0
C139 C 0.86559 0.34322 0.71529 0.0
C140 C 0.8517 0.32439 0.71513 0.0
C141 C 0.86304 0.35549 0.73428 0.0
C142 C 0.83223 0.32962 0.75286 0.0
C143 C 0.82044 0.29764 0.7334 0.0
O144 O 0.78383 0.24513 0.76335 0.0
O145 O 0.75301 0.25873 0.74239 0.0
O146 O 0.7947 0.29813 0.72928 0.0
O147 O 0.82557 0.28459 0.75012 0.0
H148 H 0.81086 0.23383 0.72581 0.0
H149 H 0.81688 0.20735 0.69834 0.0
H150 H 0.73203 0.19057 0.70511 0.0
H151 H 0.7264 0.21659 0.73299 0.0
H152 H 0.69736 0.25618 0.83674 0.0
H153 H 0.73078 0.26184 0.80486 0.0
H154 H 0.71961 0.31499 0.86123 0.0
H155 H 0.75239 0.32058 0.82927 0.0
H156 H 0.84349 0.35759 0.76784 0.0
H157 H 0.87864 0.34804 0.70066 0.0
H158 H 0.85408 0.3152 0.70035 0.0
H159 H 0.81927 0.32456 0.76747 0.0
C160 C 0.80538 0.73482 0.76143 0.0
C161 C 0.83322 0.73829 0.75744 0.0
C162 C 0.83823 0.70248 0.75145 0.0
C163 C 0.84947 0.72228 0.75251 0.0
C164 C 0.81024 0.69924 0.75478 0.0
C165 C 0.79407 0.7152 0.75979 0.0
U166 U 0.77512 0.78746 0.75567 0.0
O167 O 0.73347 0.7955 0.76285 0.0
O168 O 0.7662 0.80846 0.78276 0.0
C169 C 0.74012 0.80657 0.78015 0.0
C170 C 0.78793 0.75092 0.76887 0.0
C171 C 0.72361 0.80293 0.80145 0.0
C172 C 0.70784 0.78165 0.83469 0.0
C173 C 0.72362 0.78458 0.81434 0.0
C174 C 0.69195 0.81536 0.82934 0.0
C175 C 0.69188 0.79706 0.84248 0.0
C176 C 0.70766 0.81824 0.80907 0.0
C177 C 0.79508 0.82515 0.70517 0.0
C178 C 0.77071 0.84868 0.6813 0.0
C179 C 0.817 0.85681 0.69009 0.0
C180 C 0.81779 0.83855 0.70294 0.0
C181 C 0.79351 0.86207 0.67894 0.0
C182 C 0.77146 0.83046 0.69426 0.0
C183 C 0.79684 0.80548 0.71803 0.0
O184 O 0.79989 0.76742 0.77618 0.0
O185 O 0.76727 0.75448 0.75605 0.0
O186 O 0.7756 0.79291 0.71812 0.0
O187 O 0.80813 0.80604 0.73813 0.0
H188 H 0.84258 0.75326 0.75861 0.0
H189 H 0.87094 0.72534 0.75025 0.0
H190 H 0.8008 0.68429 0.7537 0.0
H191 H 0.77267 0.71212 0.76281 0.0
H192 H 0.70843 0.76745 0.84447 0.0
H193 H 0.73589 0.77259 0.80872 0.0
H194 H 0.67959 0.82742 0.83459 0.0
H195 H 0.70734 0.83248 0.79929 0.0
H196 H 0.75238 0.85205 0.67272 0.0
H197 H 0.83484 0.86684 0.68897 0.0
H198 H 0.8363 0.83484 0.71105 0.0
H199 H 0.7536 0.82047 0.69546 0.0
C200 C 0.73812 0.25503 0.27289 0.0
C201 C 0.73149 0.27454 0.26558 0.0
C202 C 0.70799 0.261 0.23302 0.0
C203 C 0.71645 0.27749 0.24587 0.0
C204 C 0.71499 0.24154 0.24032 0.0
C205 C 0.72986 0.2386 0.26006 0.0
U206 U 0.78931 0.27138 0.31729 0.0
O207 O 0.78814 0.26602 0.35493 0.0
O208 O 0.82038 0.25399 0.33391 0.0
C209 C 0.80895 0.25463 0.3545 0.0
C210 C 0.75339 0.25138 0.29385 0.0
C211 C 0.80566 0.23524 0.36782 0.0
C212 C 0.7896 0.20003 0.37199 0.0
C213 C 0.79195 0.21841 0.3591 0.0
C214 C 0.81439 0.21523 0.40249 0.0
C215 C 0.80094 0.19818 0.39382 0.0
C216 C 0.81673 0.23353 0.38961 0.0
C217 C 0.82494 0.32474 0.30976 0.0
C218 C 0.86943 0.34184 0.30673 0.0
C219 C 0.83263 0.35802 0.32519 0.0
C220 C 0.81541 0.34134 0.32116 0.0
C221 C 0.85976 0.35861 0.31772 0.0
C222 C 0.85224 0.32514 0.30275 0.0
C223 C 0.80589 0.30819 0.30321 0.0
O224 O 0.77941 0.24991 0.29062 0.0
O225 O 0.74719 0.2621 0.31154 0.0
O226 O 0.78452 0.30419 0.31676 0.0
O227 O 0.81636 0.29187 0.29557 0.0
H228 H 0.73785 0.28747 0.27514 0.0
H229 H 0.71164 0.29268 0.24058 0.0
H230 H 0.70853 0.22849 0.23099 0.0
H231 H 0.73476 0.22343 0.26543 0.0
H232 H 0.77932 0.18719 0.36469 0.0
H233 H 0.78324 0.21945 0.34229 0.0
H234 H 0.82295 0.2145 0.41936 0.0
H235 H 0.82726 0.24639 0.39667 0.0
H236 H 0.89028 0.34171 0.30097 0.0
H237 H 0.82443 0.37077 0.33344 0.0
H238 H 0.79441 0.3417 0.32643 0.0
H239 H 0.86028 0.31275 0.29371 0.0
C240 C 0.24693 0.2378 0.70106 0.0
C241 C 0.24907 0.21883 0.71234 0.0
C242 C 0.25157 0.20276 0.67544 0.0
C243 C 0.25128 0.2015 0.69967 0.0
C244 C 0.24999 0.22188 0.66427 0.0
C245 C 0.24762 0.23916 0.67695 0.0
U246 U 0.26229 0.27229 0.75094 0.0
O247 O 0.26683 0.30539 0.75113 0.0
O248 O 0.23485 0.28919 0.77236 0.0
C249 C 0.24561 0.3068 0.76485 0.0
C250 C 0.24324 0.25623 0.71394 0.0
C251 C 0.22661 0.32234 0.75852 0.0
C252 C 0.20608 0.3446 0.7305 0.0
C253 C 0.2232 0.32897 0.73559 0.0
C254 C 0.19523 0.34682 0.7711 0.0
C255 C 0.19198 0.35378 0.74823 0.0
C256 C 0.21235 0.33131 0.77615 0.0
C257 C 0.31336 0.25692 0.79577 0.0
C258 C 0.33673 0.2791 0.82164 0.0
C259 C 0.3351 0.24293 0.82928 0.0
C260 C 0.32012 0.24025 0.80962 0.0
C261 C 0.34373 0.26238 0.83547 0.0
C262 C 0.32157 0.27641 0.80202 0.0
C263 C 0.29817 0.25352 0.7748 0.0
O264 O 0.23137 0.2537 0.73442 0.0
O265 O 0.26381 0.26943 0.71331 0.0
O266 O 0.30441 0.26587 0.75696 0.0
O267 O 0.27215 0.24982 0.77796 0.0
H268 H 0.24869 0.21735 0.73096 0.0
H269 H 0.25219 0.18705 0.70889 0.0
H270 H 0.25066 0.22355 0.64567 0.0
H271 H 0.24614 0.25363 0.66788 0.0
H272 H 0.20384 0.34947 0.7127 0.0
H273 H 0.23392 0.32224 0.72165 0.0
H274 H 0.18504 0.35371 0.78521 0.0
H275 H 0.21479 0.32651 0.79396 0.0
H276 H 0.34282 0.29428 0.82607 0.0
H277 H 0.3404 0.22972 0.83938 0.0
H278 H 0.31401 0.22509 0.80509 0.0
H279 H 0.31641 0.28952 0.79169 0.0
C280 C 0.20993 0.7378 0.32745 0.0
C281 C 0.21982 0.72225 0.31454 0.0
C282 C 0.18104 0.70009 0.32686 0.0
C283 C 0.20555 0.70356 0.31429 0.0
C284 C 0.17114 0.71586 0.33956 0.0
C285 C 0.18547 0.7345 0.33985 0.0
U286 U 0.26351 0.77664 0.30304 0.0
O287 O 0.26336 0.80973 0.29955 0.0
O288 O 0.29338 0.79542 0.32077 0.0
C289 C 0.28275 0.81234 0.31412 0.0
C290 C 0.2249 0.75744 0.32823 0.0
C291 C 0.27853 0.82699 0.33217 0.0
C292 C 0.24954 0.84701 0.35556 0.0
C293 C 0.2527 0.83224 0.33934 0.0
C294 C 0.29786 0.85114 0.35809 0.0
C295 C 0.2721 0.85672 0.36505 0.0
C296 C 0.30101 0.83649 0.3418 0.0
C297 C 0.30305 0.7633 0.24804 0.0
C298 C 0.33645 0.78533 0.22681 0.0
C299 C 0.327 0.75133 0.21477 0.0
C300 C 0.30801 0.74804 0.23285 0.0
C301 C 0.34151 0.77 0.21149 0.0
C302 C 0.31738 0.782 0.24497 0.0
C303 C 0.28265 0.75927 0.2667 0.0
O304 O 0.25049 0.75665 0.33282 0.0
O305 O 0.22037 0.77065 0.31151 0.0
O306 O 0.26182 0.77064 0.26623 0.0
O307 O 0.29181 0.75634 0.28745 0.0
H308 H 0.23867 0.72452 0.30478 0.0
H309 H 0.21396 0.69174 0.30453 0.0
H310 H 0.15215 0.71388 0.34912 0.0
H311 H 0.17743 0.74636 0.34981 0.0
H312 H 0.22942 0.85079 0.36074 0.0
H313 H 0.23498 0.82508 0.33228 0.0
H314 H 0.31567 0.85846 0.36482 0.0
H315 H 0.32111 0.83276 0.33647 0.0
H316 H 0.34741 0.79982 0.22489 0.0
H317 H 0.33002 0.73931 0.20312 0.0
H318 H 0.29704 0.73355 0.2349 0.0
H319 H 0.31381 0.79395 0.25659 0.0
C320 C 0.06722 0.5552 0.3491 0.0
C321 C 0.07605 0.56112 0.37028 0.0
C322 C 0.06206 0.54915 0.3866 0.0
C323 C 0.04552 0.53668 0.37453 0.0
N324 N 0.04836 0.53974 0.35144 0.0
Co325 Co 0.02731 0.52559 0.32748 0.0
N326 N 1.00466 0.50956 0.35157 0.0
C327 C 0.00595 0.51081 0.37465 0.0
C328 C 0.98811 0.49776 0.38683 0.0
C329 C 0.9748 0.48736 0.37059 0.0
C330 C 0.98547 0.49463 0.34936 0.0
N331 N 0.00645 0.5113 0.3035 0.0
C332 C 0.98728 0.49604 0.30584 0.0
C333 C 0.97913 0.4897 0.2846 0.0
C334 C 0.99368 0.50128 0.26829 0.0
C335 C 0.00994 0.5139 0.28039 0.0
N336 N 0.04977 0.5418 0.30339 0.0
C337 C 0.04834 0.54075 0.2803 0.0
C338 C 0.06551 0.55433 0.26816 0.0
C339 C 0.07839 0.56496 0.28444 0.0
C340 C 0.06822 0.55723 0.30565 0.0
N341 N 0.0535 0.50384 0.32743 0.0
C342 C 0.08801 0.47125 0.3271 0.0
C343 C 0.08074 0.48101 0.30664 0.0
C344 C 0.06374 0.49712 0.30719 0.0
C345 C 0.07807 0.47839 0.34778 0.0
C346 C 0.06108 0.49456 0.34755 0.0
N347 N 1.00119 0.54733 0.32752 0.0
C348 C 0.9758 0.57189 0.30667 0.0
C349 C 0.96756 0.58042 0.32709 0.0
C350 C 0.97584 0.57164 0.3478 0.0
C351 C 0.99243 0.55524 0.34762 0.0
C352 C 0.99237 0.55553 0.30727 0.0
H353 H 0.99826 0.54941 0.36396 0.0
H354 H 0.99803 0.54992 0.29108 0.0
H355 H 0.05892 0.50369 0.29097 0.0
H356 H 0.05416 0.49917 0.36388 0.0
C357 C 0.0254 0.52336 0.38436 0.0
C358 C 0.07603 0.56556 0.32736 0.0
C359 C 0.97723 0.48641 0.32767 0.0
C360 C 0.02955 0.52766 0.27055 0.0
H361 H 0.09048 0.57325 0.37363 0.0
H362 H 0.06304 0.55 0.40508 0.0
H363 H 0.98556 0.49569 0.40533 0.0
H364 H 0.95935 0.47548 0.374 0.0
H365 H 0.96464 0.47763 0.28117 0.0
H366 H 0.99301 0.50024 0.24982 0.0
H367 H 0.06784 0.55661 0.24967 0.0
H368 H 0.09319 0.57731 0.28112 0.0
H369 H 0.08761 0.476 0.29011 0.0
H370 H 0.08344 0.4716 0.36415 0.0
H371 H 0.96945 0.57778 0.29018 0.0
H372 H 0.9701 0.57768 0.36411 0.0
C373 C 0.05788 0.55915 0.75546 0.0
C374 C 0.06725 0.56483 0.77656 0.0
C375 C 0.05327 0.55297 0.79298 0.0
C376 C 0.03633 0.54071 0.78104 0.0
N377 N 0.03891 0.54379 0.75792 0.0
Co378 Co 0.01765 0.52963 0.73411 0.0
N379 N 0.99559 0.51327 0.75837 0.0
C380 C 0.9975 0.51418 0.78144 0.0
C381 C 0.9806 0.50051 0.79372 0.0
C382 C 0.96734 0.49 0.77756 0.0
C383 C 0.9769 0.49795 0.75625 0.0
N384 N 0.99638 0.51548 0.71032 0.0
C385 C 0.97768 0.49993 0.71278 0.0
C386 C 0.96835 0.49419 0.6917 0.0
C387 C 0.98204 0.50625 0.67529 0.0
C388 C 0.99881 0.51865 0.68723 0.0
N389 N 0.03976 0.54597 0.70987 0.0
C390 C 0.03777 0.54508 0.6868 0.0
C391 C 0.05475 0.55867 0.67451 0.0
C392 C 0.0682 0.56909 0.69065 0.0
C393 C 0.05866 0.56115 0.71197 0.0
N394 N 0.04397 0.50802 0.73347 0.0
C395 C 0.07866 0.47559 0.73286 0.0
C396 C 0.07014 0.48469 0.71241 0.0
C397 C 0.05305 0.50078 0.7131 0.0
C398 C 0.06984 0.4833 0.75357 0.0
C399 C 0.05275 0.49935 0.75348 0.0
N400 N 0.99135 0.55127 0.73478 0.0
C401 C 0.96593 0.5766 0.7151 0.0
C402 C 0.95743 0.58414 0.73601 0.0
C403 C 0.96558 0.57452 0.75626 0.0
C404 C 0.98225 0.55826 0.75526 0.0
C405 C 0.98272 0.56031 0.71488 0.0
H406 H 0.98773 0.55174 0.77133 0.0
H407 H 0.98877 0.5555 0.6984 0.0
H408 H 0.04727 0.507 0.69693 0.0
H409 H 0.04662 0.50426 0.76987 0.0
C410 C 0.01678 0.52699 0.79103 0.0
C411 C 0.06703 0.56928 0.73367 0.0
C412 C 0.96886 0.48965 0.73455 0.0
C413 C 0.01839 0.53234 0.67725 0.0
H414 H 0.08228 0.5766 0.77977 0.0
H415 H 0.0548 0.55356 0.81145 0.0
H416 H 0.97883 0.498 0.81221 0.0
H417 H 0.95285 0.4775 0.7811 0.0
H418 H 0.95359 0.48221 0.68853 0.0
H419 H 0.98056 0.50562 0.65682 0.0
H420 H 0.0565 0.56118 0.65601 0.0
H421 H 0.08283 0.58149 0.68708 0.0
H422 H 0.07671 0.47949 0.69588 0.0
H423 H 0.07558 0.47669 0.76992 0.0
H424 H 0.96022 0.58354 0.69891 0.0
H425 H 0.95907 0.57947 0.77292 0.0
C426 C 0.28413 0.99495 0.56184 0.0
C427 C 0.30869 0.98868 0.56929 0.0
C428 C 0.32807 1.00037 0.55732 0.0
C429 C 0.31433 0.013 0.54322 0.0
N430 N 0.2873 1.01028 0.54562 0.0
Co431 Co 0.25982 0.02469 0.52747 0.0
N432 N 0.28844 0.04109 0.50891 0.0
C433 C 0.31535 0.04026 0.5109 0.0
C434 C 0.32998 0.05399 0.49674 0.0
C435 C 0.31135 0.06442 0.48514 0.0
C436 C 0.28629 0.05633 0.49284 0.0
N437 N 0.23234 0.03893 0.5092 0.0
C438 C 0.23548 0.05412 0.49284 0.0
C439 C 0.21097 0.05963 0.4845 0.0
C440 C 0.19161 0.04783 0.49635 0.0
C441 C 0.20532 0.03576 0.51109 0.0
N442 N 0.23119 1.00847 0.54616 0.0
C443 C 0.20428 1.00968 0.54462 0.0
C444 C 0.18965 0.99655 0.55952 0.0
C445 C 0.20829 0.98615 0.57114 0.0
C446 C 0.23332 0.99349 0.56251 0.0
N447 N 0.25927 0.04622 0.55027 0.0
C448 C 0.2587 0.07871 0.58008 0.0
C449 C 0.2348 0.06976 0.57246 0.0
C450 C 0.23554 0.0537 0.55771 0.0
C451 C 0.28284 0.07074 0.57296 0.0
C452 C 0.28267 0.05459 0.5583 0.0
N453 N 0.26038 1.00319 0.50463 0.0
C454 C 0.23703 0.9781 0.48252 0.0
C455 C 0.2613 0.97154 0.47366 0.0
C456 C 0.28508 0.9813 0.48039 0.0
C457 C 0.28417 0.99691 0.49573 0.0
C458 C 0.23702 0.99383 0.49774 0.0
H459 H 0.30303 1.0035 0.5003 0.0
H460 H 0.21785 0.99807 0.50379 0.0
H461 H 0.21664 0.04781 0.5523 0.0
H462 H 0.30175 0.04929 0.55354 0.0
C463 C 0.32624 0.02703 0.52698 0.0
C464 C 0.25842 0.9853 0.56995 0.0
C465 C 0.26107 0.06421 0.48513 0.0
C466 C 0.19337 0.0223 0.52792 0.0
H467 H 0.31228 0.97664 0.58175 0.0
H468 H 0.34962 0.99946 0.55839 0.0
H469 H 0.3516 0.05647 0.49543 0.0
H470 H 0.31579 0.07686 0.47279 0.0
H471 H 0.20742 0.07123 0.47147 0.0
H472 H 0.17007 0.04835 0.49482 0.0
H473 H 0.16801 0.99445 0.56131 0.0
H474 H 0.20395 0.97424 0.5842 0.0
H475 H 0.21555 0.07545 0.57736 0.0
H476 H 0.30189 0.07689 0.57871 0.0
H477 H 0.21801 0.97125 0.47759 0.0
H478 H 0.30445 0.97668 0.4742 0.0
C479 C 0.4791 0.80209 0.06167 0.0
C480 C 0.46961 0.8205 0.06773 0.0
C481 C 0.484 0.83502 0.05465 0.0
C482 C 0.50125 0.82471 0.04129 0.0
N483 N 0.49865 0.80444 0.0449 0.0
Co484 Co 0.51962 0.78378 0.02893 0.0
N485 N 0.54228 0.80526 0.01108 0.0
C486 C 0.5413 0.82545 0.01286 0.0
C487 C 0.55944 0.83642 0.99858 0.0
C488 C 0.5727 0.82243 0.9868 0.0
C489 C 0.56168 0.80365 0.9945 0.0
N490 N 0.54017 0.76313 0.01251 0.0
C491 C 0.55923 0.7655 0.99532 0.0
C492 C 0.56706 0.74704 0.98784 0.0
C493 C 0.55246 0.73251 1.00071 0.0
C494 C 0.53649 0.74284 0.01516 0.0
N495 N 0.49742 0.76232 0.04725 0.0
C496 C 0.49953 0.74214 0.04647 0.0
C497 C 0.48276 0.73116 0.06191 0.0
C498 C 0.46929 0.74515 0.07348 0.0
C499 C 0.47852 0.76395 0.06427 0.0
N500 N 0.49309 0.78348 1.00403 0.0
C501 C 0.45714 0.78314 0.96734 0.0
C502 C 0.46342 0.76524 0.97907 0.0
C503 C 0.48127 0.76575 0.99718 0.0
C504 C 0.46898 0.80121 0.97456 0.0
C505 C 0.48659 0.80104 0.99278 0.0
N506 N 0.54614 0.7841 0.05385 0.0
C507 C 0.57414 0.76652 0.08063 0.0
C508 C 0.58153 0.78452 0.09087 0.0
C509 C 0.57135 0.80233 0.08191 0.0
C510 C 0.55398 0.8018 0.06355 0.0
C511 C 0.55654 0.76665 0.06233 0.0
H512 H 0.54702 0.81592 0.05762 0.0
H513 H 0.55141 0.7524 0.0555 0.0
H514 H 0.48529 0.75159 1.00528 0.0
H515 H 0.49491 0.81534 0.99725 0.0
C516 C 0.52161 0.83367 0.02668 0.0
C517 C 0.46936 0.78289 0.07279 0.0
C518 C 0.56979 0.78482 0.985 0.0
C519 C 0.51767 0.73394 0.0312 0.0
H520 H 0.4542 0.82316 0.08059 0.0
H521 H 0.48256 0.85119 0.05525 0.0
H522 H 0.56221 0.85267 0.99653 0.0
H523 H 0.58837 0.82569 0.9737 0.0
H524 H 0.58153 0.74432 0.97424 0.0
H525 H 0.55311 0.71633 0.99945 0.0
H526 H 0.48087 0.71493 0.06467 0.0
H527 H 0.45463 0.74183 0.08739 0.0
H528 H 0.45452 0.75085 0.97442 0.0
H529 H 0.46515 0.8155 0.96592 0.0
H530 H 0.5814 0.7523 0.08701 0.0
H531 H 0.57687 0.81673 0.08897 0.0
C532 C 0.81657 1.0004 0.57011 0.0
C533 C 0.84137 0.99447 0.57738 0.0
C534 C 0.8604 1.00641 0.56534 0.0
C535 C 0.84626 0.01883 0.55135 0.0
N536 N 0.81928 0.01573 0.55386 0.0
Co537 Co 0.79133 0.0297 0.53581 0.0
N538 N 0.81951 0.04628 0.51695 0.0
C539 C 0.84647 0.04572 0.5187 0.0
C540 C 0.86073 0.05934 0.50415 0.0
C541 C 0.84179 0.0694 0.49252 0.0
C542 C 0.81693 0.06123 0.50063 0.0
N543 N 0.76339 0.04359 0.51771 0.0
C544 C 0.76612 0.05875 0.50127 0.0
C545 C 0.7414 0.06417 0.49331 0.0
C546 C 0.72233 0.05228 0.50541 0.0
C547 C 0.73641 0.04027 0.51994 0.0
N548 N 0.76316 0.01319 0.55471 0.0
C549 C 0.73618 0.01404 0.55329 0.0
C550 C 0.72193 1.00077 0.56828 0.0
C551 C 0.74089 0.99064 0.57982 0.0
C552 C 0.76573 0.99827 0.57105 0.0
N553 N 0.79055 0.05128 0.55855 0.0
C554 C 0.78931 0.0832 0.58921 0.0
C555 C 0.76561 0.07392 0.58163 0.0
C556 C 0.76667 0.05818 0.56649 0.0
C557 C 0.81367 0.07594 0.58142 0.0
C558 C 0.81383 0.06011 0.5663 0.0
N559 N 0.7921 1.0081 0.51309 0.0
C560 C 0.76891 0.98261 0.49145 0.0
C561 C 0.79324 0.97568 0.48313 0.0
C562 C 0.81698 0.98565 0.4897 0.0
C563 C 0.81596 1.00165 0.50451 0.0
C564 C 0.76881 0.9987 0.50618 0.0
H565 H 0.83477 1.00845 0.50892 0.0
H566 H 0.7496 1.00305 0.51199 0.0
H567 H 0.74786 0.05192 0.56136 0.0
H568 H 0.83305 0.05542 0.56095 0.0
C569 C 0.85776 0.03281 0.53487 0.0
C570 C 0.7911 0.99043 0.57839 0.0
C571 C 0.79151 0.06879 0.49303 0.0
C572 C 0.72487 0.02662 0.53677 0.0
H573 H 0.84541 0.98245 0.58974 0.0
H574 H 0.882 1.00574 0.56622 0.0
H575 H 0.88232 0.06197 0.50256 0.0
H576 H 0.84586 0.08165 0.47985 0.0
H577 H 0.73756 0.07575 0.48033 0.0
H578 H 0.70075 0.05267 0.50413 0.0
H579 H 0.70033 0.99843 0.57023 0.0
H580 H 0.73689 0.97873 0.59294 0.0
H581 H 0.74616 0.07865 0.58746 0.0
H582 H 0.83266 0.08266 0.58659 0.0
H583 H 0.74992 0.97536 0.48708 0.0
H584 H 0.83637 0.98119 0.48342 0.0
C585 C 0.48672 0.28883 0.06711 0.0
C586 C 0.47774 0.3072 0.07384 0.0
C587 C 0.49226 0.32183 0.06104 0.0
C588 C 0.5091 0.31162 0.0472 0.0
N589 N 0.50609 0.29132 0.05019 0.0
Co590 Co 0.5267 0.2708 0.03365 0.0
N591 N 0.54921 0.2924 0.01582 0.0
C592 C 0.54777 0.31259 0.01741 0.0
C593 C 0.56515 0.32369 1.00258 0.0
C594 C 0.57839 0.3098 0.99063 0.0
C595 C 0.56835 0.29093 0.99897 0.0
N596 N 0.54719 0.25026 0.01698 0.0
C597 C 0.56638 0.25276 0.99991 0.0
C598 C 0.57503 0.2344 0.99288 0.0
C599 C 0.56051 0.21975 1.00566 0.0
C600 C 0.54395 0.22995 0.01976 0.0
N601 N 0.50431 0.24918 0.05159 0.0
C602 C 0.50601 0.22899 0.05025 0.0
C603 C 0.48889 0.2179 0.0653 0.0
C604 C 0.47556 0.23179 0.07716 0.0
C605 C 0.48526 0.25067 0.06853 0.0
N606 N 0.50004 0.27081 1.00884 0.0
C607 C 0.46446 0.27059 0.97193 0.0
C608 C 0.47221 0.2526 0.98251 0.0
C609 C 0.48977 0.25305 1.00076 0.0
C610 C 0.47439 0.28871 0.98053 0.0
C611 C 0.49198 0.28848 0.99883 0.0
N612 N 0.55335 0.27077 0.05848 0.0
C613 C 0.57948 0.25253 0.0861 0.0
C614 C 0.58867 0.27046 0.09558 0.0
C615 C 0.58037 0.2886 0.08575 0.0
C616 C 0.56289 0.28841 0.06738 0.0
C617 C 0.56209 0.25303 0.06773 0.0
H618 H 0.55711 0.30272 0.06086 0.0
H619 H 0.55585 0.23882 0.06146 0.0
H620 H 0.49487 0.2388 1.00793 0.0
H621 H 0.49902 0.30279 1.00437 0.0
C622 C 0.52878 0.32067 0.03201 0.0
C623 C 0.47653 0.26951 0.07763 0.0
C624 C 0.5768 0.27211 0.98962 0.0
C625 C 0.52465 0.22089 0.03531 0.0
H626 H 0.46248 0.30976 0.08687 0.0
H627 H 0.49101 0.338 0.06198 0.0
H628 H 0.56741 0.33994 1.00029 0.0
H629 H 0.59332 0.31325 0.97696 0.0
H630 H 0.59012 0.23185 0.9797 0.0
H631 H 0.56162 0.20359 1.00457 0.0
H632 H 0.48678 0.20164 0.06772 0.0
H633 H 0.46075 0.22835 0.09092 0.0
H634 H 0.46467 0.23814 0.97682 0.0
H635 H 0.46912 0.30307 0.97287 0.0
H636 H 0.58574 0.23809 0.09277 0.0
H637 H 0.58682 0.30292 0.09251 0.0
C638 C 0.19356 0.3832 0.33307 0.0
C639 C 0.18633 0.36797 0.31813 0.0
C640 C 0.17756 0.39984 0.33583 0.0
C641 C 0.15381 0.4014 0.32325 0.0
C642 C 0.14616 0.38589 0.30845 0.0
C643 C 0.16245 0.36937 0.30611 0.0
C644 C 0.1863 0.41593 0.35196 0.0
C645 C 0.1211 0.387 0.29462 0.0
C646 C 0.10016 0.4368 0.34197 0.0
C647 C 0.10548 0.45362 0.32676 0.0
C648 C 0.1159 0.41982 0.34125 0.0
C649 C 0.13747 0.41957 0.32488 0.0
C650 C 0.14315 0.43657 0.30967 0.0
C651 C 0.12718 0.45337 0.31083 0.0
C652 C 0.1092 0.40203 0.35779 0.0
C653 C 0.16598 0.43695 0.29197 0.0
H654 H 0.21179 0.38212 0.34262 0.0
H655 H 0.15688 0.35782 0.29431 0.0
H656 H 0.19039 0.4305 0.34214 0.0
H657 H 0.16995 0.41818 0.36481 0.0
H658 H 0.20466 0.41209 0.36121 0.0
H659 H 0.11739 0.37336 0.28457 0.0
H660 H 0.10335 0.38879 0.30618 0.0
H661 H 0.12291 0.40042 0.28254 0.0
H662 H 0.08326 0.43669 0.35414 0.0
H663 H 0.13177 0.46638 0.29927 0.0
H664 H 0.12711 0.39835 0.36771 0.0
H665 H 0.10345 0.38856 0.34809 0.0
H666 H 0.09247 0.40488 0.37007 0.0
H667 H 0.1852 0.43463 0.30057 0.0
H668 H 0.16794 0.45139 0.28156 0.0
H669 H 0.16278 0.42442 0.2802 0.0
C670 C 0.16329 0.66306 0.76301 0.0
C671 C 0.16705 0.67797 0.74519 0.0
C672 C 0.14699 0.64552 0.76035 0.0
C673 C 0.13416 0.64265 0.73929 0.0
C674 C 0.138 0.65752 0.72114 0.0
C675 C 0.15436 0.67499 0.7243 0.0
C676 C 0.14349 0.63003 0.78012 0.0
C677 C 0.12468 0.65502 0.69843 0.0
C678 C 0.11128 0.58867 0.72728 0.0
C679 C 0.084 0.58835 0.7338 0.0
C680 C 0.12773 0.60639 0.72841 0.0
C681 C 0.1166 0.62412 0.73645 0.0
C682 C 0.08889 0.62385 0.74277 0.0
C683 C 0.07293 0.60595 0.74137 0.0
C684 C 0.15711 0.60602 0.72146 0.0
C685 C 0.07624 0.64236 0.75149 0.0
H686 H 0.17339 0.66498 0.77905 0.0
H687 H 0.1569 0.68648 0.71051 0.0
H688 H 0.12189 0.6277 0.78521 0.0
H689 H 0.15051 0.61532 0.77472 0.0
H690 H 0.15474 0.63455 0.79541 0.0
H691 H 0.13005 0.66777 0.68589 0.0
H692 H 0.13059 0.6408 0.69083 0.0
H693 H 0.10252 0.65389 0.70116 0.0
H694 H 0.11976 0.57495 0.72156 0.0
H695 H 0.0518 0.60557 0.74646 0.0
H696 H 0.16959 0.6089 0.73655 0.0
H697 H 0.16249 0.61819 0.70823 0.0
H698 H 0.16233 0.59135 0.71452 0.0
H699 H 0.08561 0.64668 0.76772 0.0
H700 H 0.05422 0.6399 0.75477 0.0
H701 H 0.0799 0.65525 0.73884 0.0
C702 C 0.86068 0.66389 0.30521 0.0
C703 C 0.86649 0.68219 0.31566 0.0
C704 C 0.87691 0.64737 0.30836 0.0
C705 C 0.89953 0.64906 0.3224 0.0
C706 C 0.90513 0.66729 0.33353 0.0
C707 C 0.88855 0.68363 0.33002 0.0
C708 C 0.87013 0.62822 0.29624 0.0
C709 C 0.929 0.66968 0.34868 0.0
C710 C 0.9295 0.59994 0.34278 0.0
C711 C 0.95072 0.59839 0.32663 0.0
C712 C 0.91305 0.61656 0.34197 0.0
C713 C 0.91786 0.63201 0.32457 0.0
C714 C 0.93955 0.63073 0.30852 0.0
C715 C 0.95571 0.614 0.30977 0.0
C716 C 0.89017 0.61737 0.35944 0.0
C717 C 0.94544 0.64687 0.28972 0.0
H718 H 0.84338 0.66248 0.29446 0.0
H719 H 0.89333 0.69773 0.33804 0.0
H720 H 0.8868 0.62512 0.28404 0.0
H721 H 0.86783 0.61523 0.3089 0.0
H722 H 0.85134 0.62909 0.28655 0.0
H723 H 0.92975 0.68436 0.35713 0.0
H724 H 0.92841 0.65733 0.36217 0.0
H725 H 0.94784 0.6686 0.33827 0.0
H726 H 0.92532 0.58791 0.35575 0.0
H727 H 0.97236 0.61318 0.2975 0.0
H728 H 0.87074 0.61666 0.35063 0.0
H729 H 0.89151 0.63186 0.36821 0.0
H730 H 0.89001 0.60477 0.37264 0.0
H731 H 0.92805 0.64772 0.27833 0.0
H732 H 0.96359 0.64398 0.27906 0.0
H733 H 0.94843 0.66182 0.29731 0.0
C734 C 0.87991 0.38837 0.71463 0.0
C735 C 0.878 0.3755 0.73446 0.0
C736 C 0.8943 0.40713 0.71444 0.0
C737 C 0.90716 0.41321 0.73454 0.0
C738 C 0.9052 0.40036 0.75464 0.0
C739 C 0.89064 0.3817 0.75437 0.0
C740 C 0.89577 0.42043 0.69268 0.0
C741 C 0.91871 0.40624 0.7764 0.0
C742 C 0.96532 0.45266 0.72819 0.0
C743 C 0.95291 0.47011 0.73452 0.0
C744 C 0.95067 0.43404 0.7281 0.0
C745 C 0.92294 0.43292 0.73446 0.0
C746 C 0.91033 0.45064 0.74074 0.0
C747 C 0.9255 0.46906 0.74066 0.0
C748 C 0.96489 0.41556 0.72126 0.0
C749 C 0.88085 0.45012 0.74758 0.0
H750 H 0.86991 0.38386 0.69927 0.0
H751 H 0.88957 0.37177 0.76968 0.0
H752 H 0.88753 0.43525 0.69611 0.0
H753 H 0.91704 0.42332 0.68678 0.0
H754 H 0.88447 0.41359 0.67857 0.0
H755 H 0.9149 0.39472 0.79069 0.0
H756 H 0.94073 0.40837 0.77309 0.0
H757 H 0.91147 0.42083 0.78198 0.0
H758 H 0.98655 0.45362 0.72339 0.0
H759 H 0.916 0.48267 0.74543 0.0
H760 H 0.95517 0.40896 0.70624 0.0
H761 H 0.96324 0.40392 0.73555 0.0
H762 H 0.98651 0.41899 0.71679 0.0
H763 H 0.86868 0.44445 0.73335 0.0
H764 H 0.87407 0.46522 0.75192 0.0
H765 H 0.87673 0.43955 0.76269 0.0
C766 C 0.23698 0.15914 0.39993 0.0
C767 C 0.25872 0.17344 0.39913 0.0
C768 C 0.23741 0.1412 0.41361 0.0
C769 C 0.26022 0.13733 0.42673 0.0
C770 C 0.28238 0.15158 0.42578 0.0
C771 C 0.28132 0.16947 0.41208 0.0
C772 C 0.21329 0.1265 0.41428 0.0
C773 C 0.30717 0.14796 0.43932 0.0
C774 C 0.25169 0.10068 0.47889 0.0
C775 C 0.26125 0.08299 0.47014 0.0
C776 C 0.25124 0.11846 0.46496 0.0
C777 C 0.26071 0.11855 0.44174 0.0
C778 C 0.27046 0.10066 0.43289 0.0
C779 C 0.27047 0.08304 0.44718 0.0
C780 C 0.24052 0.13713 0.47506 0.0
C781 C 0.28084 0.10013 0.40831 0.0
H782 H 0.21931 0.1622 0.39021 0.0
H783 H 0.29832 0.18032 0.41135 0.0
H784 H 0.21938 0.1115 0.409 0.0
H785 H 0.2048 0.1245 0.43212 0.0
H786 H 0.19727 0.13159 0.40285 0.0
H787 H 0.32293 0.16028 0.43632 0.0
H788 H 0.30179 0.1466 0.45798 0.0
H789 H 0.31569 0.13352 0.4346 0.0
H790 H 0.2445 0.10052 0.49667 0.0
H791 H 0.27767 0.06927 0.44046 0.0
H792 H 0.22329 0.14221 0.46509 0.0
H793 H 0.25625 0.14957 0.47384 0.0
H794 H 0.23383 0.13453 0.49337 0.0
H795 H 0.2647 0.10389 0.39638 0.0
H796 H 0.28815 0.08513 0.40419 0.0
H797 H 0.29755 0.11166 0.40504 0.0
C798 C 0.34801 0.77882 0.86769 0.0
C799 C 0.35835 0.78989 0.84801 0.0
C800 C 0.36338 0.77651 0.88742 0.0
C801 C 0.38972 0.78553 0.88754 0.0
C802 C 0.40043 0.79643 0.86762 0.0
C803 C 0.38468 0.79842 0.84813 0.0
C804 C 0.35126 0.76473 0.90828 0.0
C805 C 0.42844 0.80625 0.86699 0.0
C806 C 0.42068 0.79841 0.94436 0.0
C807 C 0.43879 0.78307 0.94752 0.0
C808 C 0.40433 0.79919 0.92514 0.0
C809 C 0.40587 0.78417 0.90869 0.0
C810 C 0.42357 0.76835 0.91204 0.0
C811 C 0.43986 0.76802 0.93134 0.0
C812 C 0.38574 0.81633 0.92222 0.0
C813 C 0.42572 0.752 0.89497 0.0
H814 H 0.32762 0.77234 0.86788 0.0
H815 H 0.39305 0.80669 0.8329 0.0
H816 H 0.36454 0.75257 0.9136 0.0
H817 H 0.34951 0.7748 0.92289 0.0
H818 H 0.33102 0.75786 0.90507 0.0
H819 H 0.43402 0.81383 0.85002 0.0
H820 H 0.42993 0.81761 0.88038 0.0
H821 H 0.4433 0.7948 0.87092 0.0
H822 H 0.41928 0.8099 0.95693 0.0
H823 H 0.45396 0.75623 0.93343 0.0
H824 H 0.36477 0.8103 0.92058 0.0
H825 H 0.39138 0.82535 0.90616 0.0
H826 H 0.38636 0.8265 0.93687 0.0
H827 H 0.40558 0.74482 0.89219 0.0
H828 H 0.43928 0.74012 0.90071 0.0
H829 H 0.43348 0.75867 0.87812 0.0
C830 C 0.80991 0.88916 0.39179 0.0
C831 C 0.79594 0.87114 0.39945 0.0
C832 C 0.80946 0.9065 0.40479 0.0
C833 C 0.79453 0.9059 0.42593 0.0
C834 C 0.78006 0.88784 0.43359 0.0
C835 C 0.78101 0.87069 0.42032 0.0
C836 C 0.82533 0.92539 0.39609 0.0
C837 C 0.76368 0.88659 0.4559 0.0
C838 C 0.81332 0.94361 0.47098 0.0
C839 C 0.79386 0.95802 0.46809 0.0
C840 C 0.81389 0.92672 0.45727 0.0
C841 C 0.79445 0.92402 0.44028 0.0
C842 C 0.77481 0.93851 0.4372 0.0
C843 C 0.77479 0.95532 0.45108 0.0
C844 C 0.83519 0.91165 0.46112 0.0
C845 C 0.75373 0.93621 0.41929 0.0
H846 H 0.82175 0.88957 0.37583 0.0
H847 H 0.76987 0.85691 0.42622 0.0
H848 H 0.81191 0.93818 0.39455 0.0
H849 H 0.84084 0.9295 0.40857 0.0
H850 H 0.83542 0.92355 0.37908 0.0
H851 H 0.75308 0.87159 0.45919 0.0
H852 H 0.77693 0.8896 0.47046 0.0
H853 H 0.74856 0.89831 0.45562 0.0
H854 H 0.82789 0.94533 0.48428 0.0
H855 H 0.7599 0.96647 0.44845 0.0
H856 H 0.84693 0.90991 0.4449 0.0
H857 H 0.82557 0.89665 0.46629 0.0
H858 H 0.84926 0.91617 0.47463 0.0
H859 H 0.7635 0.93557 0.40198 0.0
H860 H 0.73986 0.94879 0.41902 0.0
H861 H 0.74174 0.92181 0.42268 0.0
C862 C 0.66968 0.2979 0.87744 0.0
C863 C 0.68551 0.28206 0.87096 0.0
C864 C 0.65157 0.29563 0.89644 0.0
C865 C 0.64909 0.27702 0.90933 0.0
C866 C 0.66456 0.26081 0.90262 0.0
C867 C 0.68258 0.26352 0.88353 0.0
C868 C 0.63536 0.31326 0.90292 0.0
C869 C 0.66246 0.24074 0.9159 0.0
C870 C 0.62266 0.27868 0.97123 0.0
C871 C 0.59558 0.27266 0.9692 0.0
C872 C 0.6404 0.27987 0.95193 0.0
C873 C 0.63078 0.27479 0.93015 0.0
C874 C 0.60346 0.2683 0.92819 0.0
C875 C 0.58616 0.26733 0.94777 0.0
C876 C 0.66932 0.2869 0.95478 0.0
C877 C 0.59242 0.26268 0.90535 0.0
H878 H 0.67143 0.31216 0.8676 0.0
H879 H 0.69488 0.25125 0.87881 0.0
H880 H 0.61359 0.30887 0.90313 0.0
H881 H 0.64025 0.31771 0.92052 0.0
H882 H 0.63923 0.32658 0.89086 0.0
H883 H 0.67498 0.22938 0.90791 0.0
H884 H 0.66896 0.2427 0.93375 0.0
H885 H 0.64126 0.23476 0.917 0.0
H886 H 0.62984 0.28269 0.9879 0.0
H887 H 0.56516 0.26262 0.94635 0.0
H888 H 0.67394 0.30105 0.94428 0.0
H889 H 0.68291 0.27547 0.94847 0.0
H890 H 0.6738 0.28969 0.97298 0.0
H891 H 0.59412 0.27598 0.8931 0.0
H892 H 0.57101 0.25716 0.9069 0.0
H893 H 0.60435 0.25078 0.89783 0.0
C894 C 0.27188 0.88224 0.64548 0.0
C895 C 0.24738 0.87626 0.6569 0.0
C896 C 0.27463 0.90014 0.63161 0.0
C897 C 0.25239 0.91244 0.62912 0.0
C898 C 0.22774 0.90665 0.64087 0.0
C899 C 0.22553 0.88866 0.65457 0.0
C900 C 0.30123 0.90573 0.61931 0.0
C901 C 0.20359 0.91939 0.63882 0.0
C902 C 0.26411 0.96746 0.60824 0.0
C903 C 0.25766 0.96659 0.58506 0.0
C904 C 0.26276 0.94993 0.62275 0.0
C905 C 0.25467 0.93114 0.61382 0.0
C906 C 0.24825 0.93027 0.59032 0.0
C907 C 0.2498 0.94803 0.57623 0.0
C908 C 0.26974 0.95153 0.64767 0.0
C909 C 0.23952 0.91059 0.5801 0.0
H910 H 0.28878 0.87266 0.64697 0.0
H911 H 0.20664 0.88433 0.66359 0.0
H912 H 0.29862 0.90621 0.60044 0.0
H913 H 0.3086 0.92102 0.6239 0.0
H914 H 0.3168 0.89489 0.62355 0.0
H915 H 0.18603 0.91301 0.64942 0.0
H916 H 0.20866 0.93488 0.64425 0.0
H917 H 0.19772 0.92068 0.6206 0.0
H918 H 0.27004 0.98191 0.61499 0.0
H919 H 0.24476 0.94748 0.55827 0.0
H920 H 0.28615 0.94144 0.65187 0.0
H921 H 0.25209 0.94651 0.65891 0.0
H922 H 0.27616 0.96717 0.65181 0.0
H923 H 0.25516 0.89945 0.58257 0.0
H924 H 0.23575 0.91242 0.56143 0.0
H925 H 0.22086 0.90422 0.58909 0.0
C926 C 0.68963 0.80482 0.18693 0.0
C927 C 0.68578 0.79171 0.20644 0.0
C928 C 0.6733 0.80292 0.16781 0.0
C929 C 0.65248 0.7876 0.1682 0.0
C930 C 0.64878 0.7741 0.18768 0.0
C931 C 0.6655 0.77628 0.20652 0.0
C932 C 0.67807 0.81753 0.14732 0.0
C933 C 0.62673 0.75764 0.18883 0.0
C934 C 0.59361 0.79664 0.12963 0.0
C935 C 0.59945 0.78482 0.11089 0.0
C936 C 0.6105 0.79746 0.14847 0.0
C937 C 0.63394 0.78626 0.14861 0.0
C938 C 0.63985 0.77413 0.12986 0.0
C939 C 0.62249 0.77351 0.11126 0.0
C940 C 0.60333 0.81044 0.16819 0.0
C941 C 0.6647 0.76205 0.12929 0.0
H942 H 0.7055 0.81659 0.18659 0.0
H943 H 0.66222 0.76622 0.22162 0.0
H944 H 0.6812 0.80915 0.13146 0.0
H945 H 0.66012 0.82652 0.14487 0.0
H946 H 0.69578 0.82806 0.14931 0.0
H947 H 0.62719 0.74786 0.20478 0.0
H948 H 0.60687 0.76444 0.18817 0.0
H949 H 0.62853 0.74807 0.17377 0.0
H950 H 0.57562 0.80516 0.12965 0.0
H951 H 0.62727 0.76448 0.09676 0.0
H952 H 0.61948 0.82228 0.17011 0.0
H953 H 0.60168 0.80114 0.18452 0.0
H954 H 0.58408 0.81786 0.16569 0.0
H955 H 0.68289 0.77234 0.12968 0.0
H956 H 0.66613 0.75303 0.11371 0.0
H957 H 0.66479 0.75168 0.14474 0.0
C958 C 0.76468 0.16127 0.68755 0.0
C959 C 0.7785 0.18008 0.68338 0.0
C960 C 0.76715 0.14563 0.67225 0.0
C961 C 0.784 0.14873 0.65226 0.0
C962 C 0.79833 0.16755 0.64807 0.0
C963 C 0.79539 0.18299 0.66363 0.0
C964 C 0.75153 0.12581 0.67741 0.0
C965 C 0.81655 0.17145 0.627 0.0
C966 C 0.80663 0.1019 0.62297 0.0
C967 C 0.78854 0.10032 0.60503 0.0
C968 C 0.8057 0.11774 0.63821 0.0
C969 C 0.78614 0.13236 0.63557 0.0
C970 C 0.76804 0.13099 0.61736 0.0
C971 C 0.7695 0.11507 0.60231 0.0
C972 C 0.8254 0.11866 0.65737 0.0
C973 C 0.74688 0.14625 0.6139 0.0
H974 H 0.75199 0.15868 0.70294 0.0
H975 H 0.80595 0.19749 0.66009 0.0
H976 H 0.73775 0.12265 0.66325 0.0
H977 H 0.76548 0.11332 0.67847 0.0
H978 H 0.7395 0.12572 0.69379 0.0
H979 H 0.82695 0.18665 0.62657 0.0
H980 H 0.83191 0.15994 0.62642 0.0
H981 H 0.8047 0.17015 0.61126 0.0
H982 H 0.82122 0.09051 0.62543 0.0
H983 H 0.75575 0.11424 0.58828 0.0
H984 H 0.81441 0.11706 0.67426 0.0
H985 H 0.8366 0.13354 0.65661 0.0
H986 H 0.84008 0.10664 0.65654 0.0
H987 H 0.73325 0.146 0.62934 0.0
H988 H 0.73466 0.1433 0.59865 0.0
H989 H 0.75649 0.16166 0.61173 0.0
C990 C 0.37257 0.27895 0.18485 0.0
C991 C 0.37107 0.26092 0.19846 0.0
C992 C 0.38951 0.28125 0.16503 0.0
C993 C 0.40529 0.26514 0.15858 0.0
C994 C 0.40392 0.24694 0.17225 0.0
C995 C 0.38696 0.24509 0.19201 0.0
C996 C 0.39045 0.30091 0.15094 0.0
C997 C 0.42042 0.22939 0.16601 0.0
C998 C 0.431 0.26246 0.09658 0.0
C999 C 0.45796 0.26904 0.09819 0.0
C1000 C 0.41351 0.26139 0.11604 0.0
C1001 C 0.42324 0.26719 0.13753 0.0
C1002 C 0.45039 0.27426 0.13905 0.0
C1003 C 0.46745 0.27506 0.11933 0.0
C1004 C 0.38477 0.25371 0.11368 0.0
C1005 C 0.46153 0.2807 0.16156 0.0
H1006 H 0.36019 0.29119 0.1895 0.0
H1007 H 0.38639 0.23124 0.20261 0.0
H1008 H 0.41135 0.30752 0.14959 0.0
H1009 H 0.38409 0.29817 0.1332 0.0
H1010 H 0.37728 0.3121 0.15846 0.0
H1011 H 0.41686 0.2162 0.17829 0.0
H1012 H 0.41557 0.22465 0.14851 0.0
H1013 H 0.44212 0.23404 0.16567 0.0
H1014 H 0.42375 0.25793 0.08012 0.0
H1015 H 0.48834 0.28021 0.12043 0.0
H1016 H 0.37083 0.265 0.11976 0.0
H1017 H 0.38076 0.23974 0.12465 0.0
H1018 H 0.38015 0.25037 0.09565 0.0
H1019 H 0.44927 0.29256 0.16877 0.0
H1020 H 0.48276 0.2866 0.15964 0.0
H1021 H 0.46041 0.2677 0.17424 0.0
C1022 C 0.87772 0.68699 0.73212 0.0
C1023 C 0.85565 0.68516 0.74777 0.0
C1024 C 0.89457 0.67088 0.72904 0.0
C1025 C 0.88925 0.65243 0.74189 0.0
C1026 C 0.86687 0.65041 0.75753 0.0
C1027 C 0.85044 0.66677 0.76032 0.0
C1028 C 0.91822 0.67364 0.71218 0.0
C1029 C 0.86049 0.63104 0.7716 0.0
C1030 C 0.91887 0.60402 0.7221 0.0
C1031 C 0.94045 0.60198 0.73684 0.0
C1032 C 0.9023 0.62051 0.72328 0.0
C1033 C 0.90745 0.63538 0.73953 0.0
C1034 C 0.92949 0.6336 0.75414 0.0
C1035 C 0.94567 0.61695 0.75263 0.0
C1036 C 0.87896 0.62181 0.70745 0.0
C1037 C 0.93581 0.64918 0.77158 0.0
H1038 H 0.88175 0.70102 0.72213 0.0
H1039 H 0.83376 0.66525 0.77275 0.0
H1040 H 0.93718 0.6716 0.7213 0.0
H1041 H 0.91686 0.662 0.69911 0.0
H1042 H 0.91936 0.68878 0.70322 0.0
H1043 H 0.84185 0.63166 0.78244 0.0
H1044 H 0.85812 0.61823 0.76011 0.0
H1045 H 0.87738 0.62785 0.78297 0.0
H1046 H 0.91455 0.59245 0.70999 0.0
H1047 H 0.96257 0.61571 0.76379 0.0
H1048 H 0.88019 0.6365 0.69757 0.0
H1049 H 0.85981 0.621 0.71775 0.0
H1050 H 0.87832 0.60949 0.69515 0.0
H1051 H 0.9387 0.66436 0.7629 0.0
H1052 H 0.95415 0.64593 0.78117 0.0
H1053 H 0.91867 0.64972 0.78412 0.0
C1054 C 0.89485 0.38449 0.30218 0.0
C1055 C 0.87758 0.37701 0.32041 0.0
C1056 C 0.91113 0.40218 0.30406 0.0
C1057 C 0.91024 0.41268 0.32469 0.0
C1058 C 0.89308 0.40512 0.34326 0.0
C1059 C 0.87691 0.38741 0.34088 0.0
C1060 C 0.92902 0.40979 0.28381 0.0
C1061 C 0.8917 0.41579 0.3656 0.0
C1062 C 0.96963 0.44913 0.33489 0.0
C1063 C 0.95961 0.46764 0.32784 0.0
C1064 C 0.95361 0.43115 0.33442 0.0
C1065 C 0.92699 0.43176 0.32662 0.0
C1066 C 0.91668 0.45055 0.31988 0.0
C1067 C 0.93312 0.4683 0.32067 0.0
C1068 C 0.96531 0.41148 0.34189 0.0
C1069 C 0.88848 0.45187 0.31141 0.0
H1070 H 0.89522 0.37674 0.28618 0.0
H1071 H 0.86384 0.38163 0.35512 0.0
H1072 H 0.92338 0.42507 0.27794 0.0
H1073 H 0.95024 0.41111 0.289 0.0
H1074 H 0.92768 0.39972 0.26909 0.0
H1075 H 0.87776 0.40774 0.37857 0.0
H1076 H 0.91198 0.41721 0.3729 0.0
H1077 H 0.88491 0.43129 0.36244 0.0
H1078 H 0.99015 0.44874 0.3405 0.0
H1079 H 0.92544 0.48271 0.31537 0.0
H1080 H 0.96616 0.40145 0.32716 0.0
H1081 H 0.95225 0.40358 0.35555 0.0
H1082 H 0.98589 0.4137 0.34847 0.0
H1083 H 0.88627 0.44319 0.29566 0.0
H1084 H 0.88327 0.46768 0.30741 0.0
H1085 H 0.87379 0.44503 0.32455 0.0
C1086 C 0.18306 0.38664 0.72736 0.0
C1087 C 0.17451 0.37093 0.7432 0.0
C1088 C 0.16768 0.40365 0.72386 0.0
C1089 C 0.14314 0.40499 0.73649 0.0
C1090 C 0.13401 0.3889 0.75197 0.0
C1091 C 0.14976 0.3721 0.75512 0.0
C1092 C 0.17811 0.42045 0.70717 0.0
C1093 C 0.10789 0.38964 0.76567 0.0
C1094 C 0.11695 0.45648 0.74839 0.0
C1095 C 0.09618 0.45801 0.73276 0.0
C1096 C 0.13267 0.43951 0.74944 0.0
C1097 C 0.12762 0.42362 0.73447 0.0
C1098 C 0.10711 0.42525 0.71827 0.0
C1099 C 0.09164 0.4424 0.71762 0.0
C1100 C 0.1544 0.43843 0.76691 0.0
C1101 C 0.10108 0.40865 0.70201 0.0
H1102 H 0.20225 0.38597 0.71823 0.0
H1103 H 0.14277 0.35988 0.76711 0.0
H1104 H 0.16256 0.4241 0.69462 0.0
H1105 H 0.18268 0.43429 0.71663 0.0
H1106 H 0.1966 0.41654 0.69758 0.0
H1107 H 0.103 0.3755 0.77617 0.0
H1108 H 0.10911 0.4024 0.77734 0.0
H1109 H 0.09115 0.39232 0.75398 0.0
H1110 H 0.12093 0.4686 0.75989 0.0
H1111 H 0.07546 0.44332 0.70566 0.0
H1112 H 0.17402 0.43603 0.7582 0.0
H1113 H 0.14988 0.42538 0.77919 0.0
H1114 H 0.1564 0.45233 0.77679 0.0
H1115 H 0.11961 0.40518 0.69223 0.0
H1116 H 0.0855 0.41269 0.6896 0.0
H1117 H 0.09397 0.39468 0.71195 0.0
C1118 C 0.16407 0.66946 0.30658 0.0
C1119 C 0.1659 0.68011 0.32684 0.0
C1120 C 0.14978 0.65069 0.30635 0.0
C1121 C 0.13685 0.64234 0.32684 0.0
C1122 C 0.13863 0.65297 0.34734 0.0
C1123 C 0.15316 0.67165 0.34711 0.0
C1124 C 0.14838 0.63983 0.28414 0.0
C1125 C 0.12514 0.64459 0.36955 0.0
C1126 C 0.07913 0.60313 0.32224 0.0
C1127 C 0.09173 0.58518 0.32726 0.0
C1128 C 0.09358 0.62185 0.322 0.0
C1129 C 0.12131 0.62255 0.32682 0.0
C1130 C 0.1341 0.60433 0.33176 0.0
C1131 C 0.11912 0.58584 0.33191 0.0
C1132 C 0.07915 0.64087 0.31669 0.0
C1133 C 0.1636 0.6044 0.33691 0.0
H1134 H 0.1735 0.67594 0.29076 0.0
H1135 H 0.15478 0.67956 0.36294 0.0
H1136 H 0.15642 0.62462 0.28647 0.0
H1137 H 0.12715 0.63767 0.27921 0.0
H1138 H 0.15989 0.64818 0.26978 0.0
H1139 H 0.12837 0.65473 0.384 0.0
H1140 H 0.10321 0.64223 0.36728 0.0
H1141 H 0.13296 0.62968 0.3743 0.0
H1142 H 0.05791 0.60248 0.31858 0.0
H1143 H 0.12876 0.57184 0.33566 0.0
H1144 H 0.08887 0.64918 0.30146 0.0
H1145 H 0.08057 0.65095 0.33135 0.0
H1146 H 0.05759 0.63772 0.31323 0.0
H1147 H 0.17569 0.61167 0.32223 0.0
H1148 H 0.17055 0.58895 0.34027 0.0
H1149 H 0.16762 0.61339 0.35217 0.0
C1150 C 0.77002 0.89274 0.66466 0.0
C1151 C 0.79295 0.88126 0.66459 0.0
C1152 C 0.76913 0.91063 0.65093 0.0
C1153 C 0.79176 0.91736 0.63686 0.0
C1154 C 0.81502 0.90596 0.63681 0.0
C1155 C 0.8153 0.88805 0.65056 0.0
C1156 C 0.74391 0.92232 0.65144 0.0
C1157 C 0.83959 0.91262 0.62209 0.0
C1158 C 0.78248 0.95317 0.58514 0.0
C1159 C 0.79093 0.97177 0.59357 0.0
C1160 C 0.78237 0.93537 0.59911 0.0
C1161 C 0.79107 0.93623 0.62202 0.0
C1162 C 0.79944 0.95508 0.63063 0.0
C1163 C 0.79913 0.97266 0.61631 0.0
C1164 C 0.7731 0.91564 0.58932 0.0
C1165 C 0.80898 0.95665 0.65487 0.0
H1166 H 0.75279 0.88783 0.67564 0.0
H1167 H 0.83295 0.87918 0.65003 0.0
H1168 H 0.74859 0.93781 0.65706 0.0
H1169 H 0.73592 0.92376 0.6339 0.0
H1170 H 0.72798 0.91502 0.6632 0.0
H1171 H 0.85631 0.90233 0.62441 0.0
H1172 H 0.83443 0.91323 0.60368 0.0
H1173 H 0.84673 0.92805 0.62637 0.0
H1174 H 0.77607 0.95259 0.56754 0.0
H1175 H 0.80548 0.98713 0.62278 0.0
H1176 H 0.75621 0.90848 0.60009 0.0
H1177 H 0.78965 0.90508 0.58957 0.0
H1178 H 0.76642 0.91762 0.57136 0.0
H1179 H 0.79299 0.95063 0.66734 0.0
H1180 H 0.81464 0.97245 0.65898 0.0
H1181 H 0.82665 0.94737 0.65732 0.0
C1182 C 0.66991 0.27666 0.2126 0.0
C1183 C 0.69155 0.26393 0.21228 0.0
C1184 C 0.65341 0.27872 0.19356 0.0
C1185 C 0.65872 0.26786 0.17365 0.0
C1186 C 0.68091 0.25535 0.17303 0.0
C1187 C 0.69699 0.25351 0.19234 0.0
C1188 C 0.62989 0.29213 0.19496 0.0
C1189 C 0.6874 0.24364 0.15209 0.0
C1190 C 0.60153 0.25569 0.13389 0.0
C1191 C 0.60645 0.27013 0.11573 0.0
C1192 C 0.61823 0.25492 0.15287 0.0
C1193 C 0.64048 0.26892 0.15381 0.0
C1194 C 0.64546 0.28366 0.13566 0.0
C1195 C 0.62838 0.28411 0.11686 0.0
C1196 C 0.6121 0.23904 0.17191 0.0
C1197 C 0.66902 0.29881 0.13597 0.0
H1198 H 0.66541 0.2846 0.22801 0.0
H1199 H 0.7139 0.24387 0.19183 0.0
H1200 H 0.63098 0.30343 0.18031 0.0
H1201 H 0.61084 0.28294 0.19369 0.0
H1202 H 0.62915 0.30021 0.21126 0.0
H1203 H 0.70599 0.23524 0.15398 0.0
H1204 H 0.67049 0.23272 0.14897 0.0
H1205 H 0.68994 0.25402 0.13664 0.0
H1206 H 0.58438 0.24505 0.13337 0.0
H1207 H 0.6325 0.29519 0.10282 0.0
H1208 H 0.6092 0.24631 0.18854 0.0
H1209 H 0.62932 0.22919 0.17369 0.0
H1210 H 0.59381 0.22944 0.16875 0.0
H1211 H 0.66786 0.30751 0.15178 0.0
H1212 H 0.66983 0.30956 0.12077 0.0
H1213 H 0.68806 0.29085 0.13631 0.0
C1214 C 0.26941 0.16856 0.66862 0.0
C1215 C 0.25305 0.18424 0.66184 0.0
C1216 C 0.27082 0.15105 0.65597 0.0
C1217 C 0.25566 0.14917 0.63591 0.0
C1218 C 0.23916 0.16492 0.62894 0.0
C1219 C 0.23797 0.18217 0.642 0.0
C1220 C 0.28862 0.13459 0.66401 0.0
C1221 C 0.2227 0.16355 0.60766 0.0
C1222 C 0.27694 0.11293 0.59059 0.0
C1223 C 0.25845 0.09647 0.59491 0.0
C1224 C 0.27645 0.13005 0.60393 0.0
C1225 C 0.25705 0.13076 0.62214 0.0
C1226 C 0.23856 0.11409 0.62679 0.0
C1227 C 0.23943 0.0972 0.6131 0.0
C1228 C 0.29639 0.14754 0.59828 0.0
C1229 C 0.21771 0.11417 0.64614 0.0
H1230 H 0.28142 0.17006 0.68371 0.0
H1231 H 0.22489 0.19398 0.63678 0.0
H1232 H 0.27655 0.12017 0.66694 0.0
H1233 H 0.30418 0.13217 0.65053 0.0
H1234 H 0.29878 0.13819 0.68016 0.0
H1235 H 0.21114 0.1772 0.60439 0.0
H1236 H 0.23604 0.1615 0.59242 0.0
H1237 H 0.20841 0.15019 0.60943 0.0
H1238 H 0.29147 0.11262 0.5764 0.0
H1239 H 0.22529 0.08446 0.61674 0.0
H1240 H 0.30806 0.15108 0.61365 0.0
H1241 H 0.28556 0.16119 0.59335 0.0
H1242 H 0.31065 0.14442 0.58399 0.0
H1243 H 0.22764 0.11668 0.66265 0.0
H1244 H 0.20525 0.09983 0.64791 0.0
H1245 H 0.20427 0.12677 0.64311 0.0
C1246 C 0.37869 0.75802 0.18625 0.0
C1247 C 0.36158 0.77333 0.19199 0.0
C1248 C 0.39663 0.76038 0.16714 0.0
C1249 C 0.39765 0.77854 0.15341 0.0
C1250 C 0.38093 0.79426 0.15939 0.0
C1251 C 0.3631 0.79147 0.17859 0.0
C1252 C 0.4142 0.74328 0.16144 0.0
C1253 C 0.38147 0.81386 0.14522 0.0
C1254 C 0.45977 0.78923 0.11424 0.0
C1255 C 0.45062 0.78263 0.09321 0.0
C1256 C 0.4426 0.78842 0.13389 0.0
C1257 C 0.41569 0.78075 0.13242 0.0
C1258 C 0.4063 0.77442 0.11102 0.0
C1259 C 0.42388 0.77552 0.09164 0.0
C1260 C 0.45336 0.79542 0.15631 0.0
C1261 C 0.37782 0.7661 0.10871 0.0
H1262 H 0.37802 0.7441 0.19672 0.0
H1263 H 0.3498 0.80331 0.18275 0.0
H1264 H 0.40954 0.73793 0.14414 0.0
H1265 H 0.43566 0.74861 0.16087 0.0
H1266 H 0.41141 0.73031 0.17413 0.0
H1267 H 0.3682 0.82495 0.15278 0.0
H1268 H 0.40227 0.82065 0.14363 0.0
H1269 H 0.37492 0.81095 0.12757 0.0
H1270 H 0.4805 0.79478 0.11531 0.0
H1271 H 0.41689 0.77054 0.07526 0.0
H1272 H 0.45284 0.78256 0.16916 0.0
H1273 H 0.44051 0.807 0.16334 0.0
H1274 H 0.47434 0.80186 0.15431 0.0
H1275 H 0.3743 0.75219 0.11987 0.0
H1276 H 0.37342 0.76244 0.09073 0.0
H1277 H 0.36342 0.77715 0.11457 0.0
C1278 C 0.77504 0.16648 0.40869 0.0
C1279 C 0.79898 0.17861 0.40754 0.0
C1280 C 0.77285 0.14826 0.42203 0.0
C1281 C 0.79511 0.14197 0.43457 0.0
C1282 C 0.81939 0.15402 0.4333 0.0
C1283 C 0.82104 0.17213 0.41981 0.0
C1284 C 0.74662 0.13585 0.42293 0.0
C1285 C 0.84363 0.14785 0.44632 0.0
C1286 C 0.784 0.10554 0.48671 0.0
C1287 C 0.79145 0.08735 0.47775 0.0
C1288 C 0.78468 0.12337 0.47276 0.0
C1289 C 0.793 0.12294 0.44929 0.0
C1290 C 0.80012 0.10444 0.44012 0.0
C1291 C 0.79922 0.08684 0.45449 0.0
C1292 C 0.77692 0.14273 0.48323 0.0
C1293 C 0.80907 0.10331 0.41523 0.0
H1294 H 0.7578 0.17143 0.39949 0.0
H1295 H 0.83976 0.18117 0.41874 0.0
H1296 H 0.75 0.12037 0.41745 0.0
H1297 H 0.73834 0.13447 0.44087 0.0
H1298 H 0.7314 0.14257 0.41177 0.0
H1299 H 0.86111 0.15878 0.44335 0.0
H1300 H 0.83858 0.14655 0.46504 0.0
H1301 H 0.8496 0.1328 0.4411 0.0
H1302 H 0.77797 0.10581 0.50475 0.0
H1303 H 0.80487 0.07267 0.44765 0.0
H1304 H 0.7606 0.14947 0.47342 0.0
H1305 H 0.79435 0.15382 0.4822 0.0
H1306 H 0.77006 0.14038 0.50153 0.0
H1307 H 0.79347 0.10913 0.40387 0.0
H1308 H 0.81311 0.08768 0.4106 0.0
H1309 H 0.82764 0.113 0.41172 0.0
C1310 C 0.35405 0.25385 0.87662 0.0
C1311 C 0.36043 0.26506 0.85602 0.0
C1312 C 0.37033 0.25547 0.8958 0.0
C1313 C 0.39369 0.26855 0.89437 0.0
C1314 C 0.39998 0.28019 0.87377 0.0
C1315 C 0.38325 0.27835 0.85488 0.0
C1316 C 0.36278 0.24291 0.91749 0.0
C1317 C 0.42476 0.29424 0.87149 0.0
C1318 C 0.42573 0.28383 0.95005 0.0
C1319 C 0.44646 0.27035 0.95193 0.0
C1320 C 0.40849 0.28351 0.93137 0.0
C1321 C 0.41208 0.26942 0.9141 0.0
C1322 C 0.4331 0.2559 0.91581 0.0
C1323 C 0.44999 0.25653 0.93466 0.0
C1324 C 0.38628 0.29812 0.93022 0.0
C1325 C 0.43772 0.24071 0.89772 0.0
H1326 H 0.33624 0.24376 0.87774 0.0
H1327 H 0.38847 0.28691 0.83896 0.0
H1328 H 0.3787 0.23225 0.92121 0.0
H1329 H 0.36123 0.25276 0.93233 0.0
H1330 H 0.34339 0.23412 0.91616 0.0
H1331 H 0.42623 0.30287 0.85469 0.0
H1332 H 0.42473 0.30507 0.88547 0.0
H1333 H 0.44299 0.28544 0.87328 0.0
H1334 H 0.42268 0.29441 0.96341 0.0
H1335 H 0.46622 0.24629 0.93575 0.0
H1336 H 0.36649 0.28969 0.93038 0.0
H1337 H 0.38821 0.30739 0.91388 0.0
H1338 H 0.38644 0.30837 0.9448 0.0
H1339 H 0.41955 0.23051 0.89659 0.0
H1340 H 0.45513 0.23142 0.90143 0.0
H1341 H 0.44129 0.24858 0.88062 0.0
C1342 C 0.25064 0.88801 0.37784 0.0
C1343 C 0.26895 0.87294 0.38171 0.0
C1344 C 0.24844 0.90395 0.39281 0.0
C1345 C 0.26486 0.90483 0.41222 0.0
C1346 C 0.28301 0.88945 0.41646 0.0
C1347 C 0.28488 0.87375 0.40116 0.0
C1348 C 0.22893 0.92008 0.3876 0.0
C1349 C 0.3007 0.8897 0.43706 0.0
C1350 C 0.27969 0.95555 0.43851 0.0
C1351 C 0.26185 0.95457 0.4577 0.0
C1352 C 0.28071 0.93956 0.42351 0.0
C1353 C 0.26355 0.92208 0.42779 0.0
C1354 C 0.24541 0.92102 0.44706 0.0
C1355 C 0.24475 0.93726 0.46174 0.0
C1356 C 0.30022 0.94138 0.40309 0.0
C1357 C 0.22689 0.90262 0.45232 0.0
H1358 H 0.23848 0.88764 0.36273 0.0
H1359 H 0.29883 0.86203 0.40445 0.0
H1360 H 0.21486 0.92142 0.40252 0.0
H1361 H 0.24003 0.9349 0.38462 0.0
H1362 H 0.21705 0.91692 0.3722 0.0
H1363 H 0.31316 0.87631 0.43832 0.0
H1364 H 0.31425 0.90349 0.43601 0.0
H1365 H 0.28819 0.89017 0.4531 0.0
H1366 H 0.29272 0.96896 0.43506 0.0
H1367 H 0.23115 0.93625 0.47667 0.0
H1368 H 0.28921 0.9397 0.38695 0.0
H1369 H 0.31446 0.92907 0.40419 0.0
H1370 H 0.31194 0.95607 0.40199 0.0
H1371 H 0.21407 0.89974 0.43745 0.0
H1372 H 0.2137 0.90425 0.46778 0.0
H1373 H 0.23888 0.88915 0.45518 0.0
C1374 C 0.67341 0.80995 0.87937 0.0
C1375 C 0.6751 0.79421 0.86415 0.0
C1376 C 0.65679 0.8079 0.89934 0.0
C1377 C 0.64146 0.78964 0.90432 0.0
C1378 C 0.64344 0.77354 0.88929 0.0
C1379 C 0.66022 0.77601 0.86939 0.0
C1380 C 0.65537 0.82541 0.91496 0.0
C1381 C 0.62743 0.75383 0.894 0.0
C1382 C 0.61452 0.77957 0.9659 0.0
C1383 C 0.58803 0.78543 0.96424 0.0
C1384 C 0.63204 0.78053 0.94646 0.0
C1385 C 0.62283 0.78767 0.92494 0.0
C1386 C 0.59597 0.7935 0.92325 0.0
C1387 C 0.57888 0.79229 0.94295 0.0
C1388 C 0.66047 0.77412 0.94898 0.0
C1389 C 0.58537 0.80126 0.9007 0.0
H1390 H 0.68518 0.82394 0.87569 0.0
H1391 H 0.66118 0.76384 0.85764 0.0
H1392 H 0.63451 0.83048 0.91599 0.0
H1393 H 0.66079 0.82061 0.93264 0.0
H1394 H 0.66898 0.83844 0.90891 0.0
H1395 H 0.63203 0.7425 0.88116 0.0
H1396 H 0.63161 0.74747 0.91138 0.0
H1397 H 0.60563 0.75646 0.89376 0.0
H1398 H 0.62151 0.77436 0.98247 0.0
H1399 H 0.55835 0.79683 0.9418 0.0
H1400 H 0.67484 0.78711 0.94459 0.0
H1401 H 0.66476 0.76221 0.93681 0.0
H1402 H 0.66422 0.7683 0.96672 0.0
H1403 H 0.59715 0.81516 0.89454 0.0
H1404 H 0.56383 0.80473 0.90218 0.0
H1405 H 0.58776 0.78993 0.88743 0.0
loop_
_geom_bond_atom_site_label_1
_geom_bond_atom_site_label_2
_geom_bond_distance
_geom_bond_site_symmetry_2
_ccdc_geom_bond_type
C0 C1 1.264 . S
C0 C5 1.479 . S
C0 C10 1.465 . S
C1 C0 1.264 . S
C1 C3 1.339 . S
C1 H28 0.931 . S
C2 C3 1.395 . S
C2 C4 1.320 . S
C3 C1 1.339 . S
C3 C2 1.395 . S
C3 H29 0.929 . S
C4 C2 1.320 . S
C4 C5 1.405 . S
C4 H30 0.930 . S
C5 C0 1.479 . S
C5 C4 1.405 . S
C5 H31 0.931 . S
U6 O7 2.454 . S
U6 O8 2.458 . S
U6 C9 2.984 . S
U6 C10 2.847 . S
U6 C23 2.882 . S
U6 O24 2.441 . S
U6 O25 2.420 . S
U6 O26 2.455 . S
U6 O27 2.449 . S
O7 U6 2.454 . S
O7 C9 1.353 . S
O8 U6 2.458 . S
O8 C9 1.286 . S
C9 U6 2.984 . S
C9 O7 1.353 . S
C9 O8 1.286 . S
C9 C11 1.363 . S
C10 C0 1.465 . S
C10 U6 2.847 . S
C10 O24 1.249 . S
C10 O25 1.202 . S
C11 C9 1.363 . S
C11 C13 1.408 . S
C11 C16 1.342 . S
C12 C13 1.310 . S
C12 C15 1.461 . S
C12 H32 0.932 . S
C13 C11 1.408 . S
C13 C12 1.310 . S
C13 H33 0.930 . S
C14 C15 1.474 . S
C14 C16 1.285 . S
C14 H34 0.929 . S
C15 C12 1.461 . S
C15 C14 1.474 . S
C16 C11 1.342 . S
C16 C14 1.285 . S
C16 H35 0.930 . S
C17 C20 1.424 . S
C17 C22 1.245 . S
C17 C23 1.428 . S
C18 C21 1.260 . S
C18 C22 1.477 . S
C18 H36 0.932 . S
C19 C20 1.384 . S
C19 C21 1.479 . S
C19 H37 0.929 . S
C20 C17 1.424 . S
C20 C19 1.384 . S
C20 H38 0.928 . S
C21 C18 1.260 . S
C21 C19 1.479 . S
C22 C17 1.245 . S
C22 C18 1.477 . S
C22 H39 0.932 . S
C23 U6 2.882 . S
C23 C17 1.428 . S
C23 O26 1.301 . S
C23 O27 1.282 . S
O24 U6 2.441 . S
O24 C10 1.249 . S
O25 U6 2.420 . S
O25 C10 1.202 . S
O26 U6 2.455 . S
O26 C23 1.301 . S
O27 U6 2.449 . S
O27 C23 1.282 . S
H28 C1 0.931 . S
H29 C3 0.929 . S
H30 C4 0.930 . S
H31 C5 0.931 . S
H32 C12 0.932 . S
H33 C13 0.930 . S
H34 C14 0.929 . S
H35 C16 0.930 . S
H36 C18 0.932 . S
H37 C19 0.929 . S
H38 C20 0.928 . S
H39 C22 0.932 . S
C40 C41 1.264 . S
C40 C45 1.479 . S
C40 C50 1.465 . S
C41 C40 1.264 . S
C41 C43 1.339 . S
C41 H68 0.931 . S
C42 C43 1.395 . S
C42 C44 1.320 . S
C43 C41 1.339 . S
C43 C42 1.395 . S
C43 H69 0.929 . S
C44 C42 1.320 . S
C44 C45 1.405 . S
C44 H70 0.930 . S
C45 C40 1.479 . S
C45 C44 1.405 . S
C45 H71 0.931 . S
U46 O47 2.454 . S
U46 O48 2.458 . S
U46 C49 2.984 . S
U46 C50 2.847 . S
U46 C63 2.882 . S
U46 O64 2.441 . S
U46 O65 2.420 . S
U46 O66 2.455 . S
U46 O67 2.449 . S
O47 U46 2.454 . S
O47 C49 1.353 . S
O48 U46 2.458 . S
O48 C49 1.286 . S
C49 U46 2.984 . S
C49 O47 1.353 . S
C49 O48 1.286 . S
C49 C51 1.363 . S
C50 C40 1.465 . S
C50 U46 2.847 . S
C50 O64 1.249 . S
C50 O65 1.202 . S
C51 C49 1.363 . S
C51 C53 1.408 . S
C51 C56 1.342 . S
C52 C53 1.310 . S
C52 C55 1.461 . S
C52 H72 0.932 . S
C53 C51 1.408 . S
C53 C52 1.310 . S
C53 H73 0.930 . S
C54 C55 1.474 . S
C54 C56 1.285 . S
C54 H74 0.929 . S
C55 C52 1.461 . S
C55 C54 1.474 . S
C56 C51 1.342 . S
C56 C54 1.285 . S
C56 H75 0.930 . S
C57 C60 1.424 . S
C57 C62 1.245 . S
C57 C63 1.428 . S
C58 C61 1.260 . S
C58 C62 1.477 . S
C58 H76 0.932 . S
C59 C60 1.384 . S
C59 C61 1.479 . S
C59 H77 0.929 . S
C60 C57 1.424 . S
C60 C59 1.384 . S
C60 H78 0.928 . S
C61 C58 1.260 . S
C61 C59 1.479 . S
C62 C57 1.245 . S
C62 C58 1.477 . S
C62 H79 0.932 . S
C63 U46 2.882 . S
C63 C57 1.428 . S
C63 O66 1.301 . S
C63 O67 1.282 . S
O64 U46 2.441 . S
O64 C50 1.249 . S
O65 U46 2.420 . S
O65 C50 1.202 . S
O66 U46 2.455 . S
O66 C63 1.301 . S
O67 U46 2.449 . S
O67 C63 1.282 . S
H68 C41 0.931 . S
H69 C43 0.929 . S
H70 C44 0.930 . S
H71 C45 0.931 . S
H72 C52 0.932 . S
H73 C53 0.930 . S
H74 C54 0.929 . S
H75 C56 0.930 . S
H76 C58 0.932 . S
H77 C59 0.929 . S
H78 C60 0.928 . S
H79 C62 0.932 . S
C80 C81 1.264 . S
C80 C85 1.479 . S
C80 C90 1.465 . S
C81 C80 1.264 . S
C81 C83 1.339 . S
C81 H108 0.931 . S
C82 C83 1.395 . S
C82 C84 1.320 . S
C83 C81 1.339 . S
C83 C82 1.395 . S
C83 H109 0.929 . S
C84 C82 1.320 . S
C84 C85 1.405 . S
C84 H110 0.930 . S
C85 C80 1.479 . S
C85 C84 1.405 . S
C85 H111 0.931 . S
U86 O87 2.454 . S
U86 O88 2.458 . S
U86 C89 2.984 . S
U86 C90 2.847 . S
U86 C103 2.882 . S
U86 O104 2.441 . S
U86 O105 2.420 . S
U86 O106 2.455 . S
U86 O107 2.449 . S
O87 U86 2.454 . S
O87 C89 1.353 . S
O88 U86 2.458 . S
O88 C89 1.286 . S
C89 U86 2.984 . S
C89 O87 1.353 . S
C89 O88 1.286 . S
C89 C91 1.363 . S
C90 C80 1.465 . S
C90 U86 2.847 . S
C90 O104 1.249 . S
C90 O105 1.202 . S
C91 C89 1.363 . S
C91 C93 1.408 . S
C91 C96 1.342 . S
C92 C93 1.310 . S
C92 C95 1.461 . S
C92 H112 0.932 . S
C93 C91 1.408 . S
C93 C92 1.310 . S
C93 H113 0.930 . S
C94 C95 1.474 . S
C94 C96 1.285 . S
C94 H114 0.929 . S
C95 C92 1.461 . S
C95 C94 1.474 . S
C96 C91 1.342 . S
C96 C94 1.285 . S
C96 H115 0.930 . S
C97 C100 1.424 . S
C97 C102 1.245 . S
C97 C103 1.428 . S
C98 C101 1.260 . S
C98 C102 1.477 . S
C98 H116 0.932 . S
C99 C100 1.384 . S
C99 C101 1.479 . S
C99 H117 0.929 . S
C100 C97 1.424 . S
C100 C99 1.384 . S
C100 H118 0.928 . S
C101 C98 1.260 . S
C101 C99 1.479 . S
C102 C97 1.245 . S
C102 C98 1.477 . S
C102 H119 0.932 . S
C103 U86 2.882 . S
C103 C97 1.428 . S
C103 O106 1.301 . S
C103 O107 1.282 . S
O104 U86 2.441 . S
O104 C90 1.249 . S
O105 U86 2.420 . S
O105 C90 1.202 . S
O106 U86 2.455 . S
O106 C103 1.301 . S
O107 U86 2.449 . S
O107 C103 1.282 . S
H108 C81 0.931 . S
H109 C83 0.929 . S
H110 C84 0.930 . S
H111 C85 0.931 . S
H112 C92 0.932 . S
H113 C93 0.930 . S
H114 C94 0.929 . S
H115 C96 0.930 . S
H116 C98 0.932 . S
H117 C99 0.929 . S
H118 C100 0.928 . S
H119 C102 0.932 . S
C120 C121 1.264 . S
C120 C125 1.479 . S
C120 C130 1.465 . S
C121 C120 1.264 . S
C121 C123 1.339 . S
C121 H148 0.931 . S
C122 C123 1.395 . S
C122 C124 1.320 . S
C123 C121 1.339 . S
C123 C122 1.395 . S
C123 H149 0.929 . S
C124 C122 1.320 . S
C124 C125 1.405 . S
C124 H150 0.930 . S
C125 C120 1.479 . S
C125 C124 1.405 . S
C125 H151 0.931 . S
U126 O127 2.454 . S
U126 O128 2.458 . S
U126 C129 2.984 . S
U126 C130 2.847 . S
U126 C143 2.882 . S
U126 O144 2.441 . S
U126 O145 2.420 . S
U126 O146 2.455 . S
U126 O147 2.449 . S
O127 U126 2.454 . S
O127 C129 1.353 . S
O128 U126 2.458 . S
O128 C129 1.286 . S
C129 U126 2.984 . S
C129 O127 1.353 . S
C129 O128 1.286 . S
C129 C131 1.363 . S
C130 C120 1.465 . S
C130 U126 2.847 . S
C130 O144 1.249 . S
C130 O145 1.202 . S
C131 C129 1.363 . S
C131 C133 1.408 . S
C131 C136 1.342 . S
C132 C133 1.310 . S
C132 C135 1.461 . S
C132 H152 0.932 . S
C133 C131 1.408 . S
C133 C132 1.310 . S
C133 H153 0.930 . S
C134 C135 1.474 . S
C134 C136 1.285 . S
C134 H154 0.929 . S
C135 C132 1.461 . S
C135 C134 1.474 . S
C136 C131 1.342 . S
C136 C134 1.285 . S
C136 H155 0.930 . S
C137 C140 1.424 . S
C137 C142 1.245 . S
C137 C143 1.428 . S
C138 C141 1.260 . S
C138 C142 1.477 . S
C138 H156 0.932 . S
C139 C140 1.384 . S
C139 C141 1.479 . S
C139 H157 0.929 . S
C140 C137 1.424 . S
C140 C139 1.384 . S
C140 H158 0.928 . S
C141 C138 1.260 . S
C141 C139 1.479 . S
C142 C137 1.245 . S
C142 C138 1.477 . S
C142 H159 0.932 . S
C143 U126 2.882 . S
C143 C137 1.428 . S
C143 O146 1.301 . S
C143 O147 1.282 . S
O144 U126 2.441 . S
O144 C130 1.249 . S
O145 U126 2.420 . S
O145 C130 1.202 . S
O146 U126 2.455 . S
O146 C143 1.301 . S
O147 U126 2.449 . S
O147 C143 1.282 . S
H148 C121 0.931 . S
H149 C123 0.929 . S
H150 C124 0.930 . S
H151 C125 0.931 . S
H152 C132 0.932 . S
H153 C133 0.930 . S
H154 C134 0.929 . S
H155 C136 0.930 . S
H156 C138 0.932 . S
H157 C139 0.929 . S
H158 C140 0.928 . S
H159 C142 0.932 . S
C160 C161 1.264 . S
C160 C165 1.479 . S
C160 C170 1.465 . S
C161 C160 1.264 . S
C161 C163 1.339 . S
C161 H188 0.931 . S
C162 C163 1.395 . S
C162 C164 1.320 . S
C163 C161 1.339 . S
C163 C162 1.395 . S
C163 H189 0.929 . S
C164 C162 1.320 . S
C164 C165 1.405 . S
C164 H190 0.930 . S
C165 C160 1.479 . S
C165 C164 1.405 . S
C165 H191 0.931 . S
U166 O167 2.454 . S
U166 O168 2.458 . S
U166 C169 2.984 . S
U166 C170 2.847 . S
U166 C183 2.882 . S
U166 O184 2.441 . S
U166 O185 2.420 . S
U166 O186 2.455 . S
U166 O187 2.449 . S
O167 U166 2.454 . S
O167 C169 1.353 . S
O168 U166 2.458 . S
O168 C169 1.286 . S
C169 U166 2.984 . S
C169 O167 1.353 . S
C169 O168 1.286 . S
C169 C171 1.363 . S
C170 C160 1.465 . S
C170 U166 2.847 . S
C170 O184 1.249 . S
C170 O185 1.202 . S
C171 C169 1.363 . S
C171 C173 1.408 . S
C171 C176 1.342 . S
C172 C173 1.310 . S
C172 C175 1.461 . S
C172 H192 0.932 . S
C173 C171 1.408 . S
C173 C172 1.310 . S
C173 H193 0.930 . S
C174 C175 1.474 . S
C174 C176 1.285 . S
C174 H194 0.929 . S
C175 C172 1.461 . S
C175 C174 1.474 . S
C176 C171 1.342 . S
C176 C174 1.285 . S
C176 H195 0.930 . S
C177 C180 1.424 . S
C177 C182 1.245 . S
C177 C183 1.428 . S
C178 C181 1.260 . S
C178 C182 1.477 . S
C178 H196 0.932 . S
C179 C180 1.384 . S
C179 C181 1.479 . S
C179 H197 0.929 . S
C180 C177 1.424 . S
C180 C179 1.384 . S
C180 H198 0.928 . S
C181 C178 1.260 . S
C181 C179 1.479 . S
C182 C177 1.245 . S
C182 C178 1.477 . S
C182 H199 0.932 . S
C183 U166 2.882 . S
C183 C177 1.428 . S
C183 O186 1.301 . S
C183 O187 1.282 . S
O184 U166 2.441 . S
O184 C170 1.249 . S
O185 U166 2.420 . S
O185 C170 1.202 . S
O186 U166 2.455 . S
O186 C183 1.301 . S
O187 U166 2.449 . S
O187 C183 1.282 . S
H188 C161 0.931 . S
H189 C163 0.929 . S
H190 C164 0.930 . S
H191 C165 0.931 . S
H192 C172 0.932 . S
H193 C173 0.930 . S
H194 C174 0.929 . S
H195 C176 0.930 . S
H196 C178 0.932 . S
H197 C179 0.929 . S
H198 C180 0.928 . S
H199 C182 0.932 . S
C200 C201 1.264 . S
C200 C205 1.479 . S
C200 C210 1.465 . S
C201 C200 1.264 . S
C201 C203 1.339 . S
C201 H228 0.931 . S
C202 C203 1.395 . S
C202 C204 1.320 . S
C203 C201 1.339 . S
C203 C202 1.395 . S
C203 H229 0.929 . S
C204 C202 1.320 . S
C204 C205 1.405 . S
C204 H230 0.930 . S
C205 C200 1.479 . S
C205 C204 1.405 . S
C205 H231 0.931 . S
U206 O207 2.454 . S
U206 O208 2.458 . S
U206 C209 2.984 . S
U206 C210 2.847 . S
U206 C223 2.882 . S
U206 O224 2.441 . S
U206 O225 2.420 . S
U206 O226 2.455 . S
U206 O227 2.449 . S
O207 U206 2.454 . S
O207 C209 1.353 . S
O208 U206 2.458 . S
O208 C209 1.286 . S
C209 U206 2.984 . S
C209 O207 1.353 . S
C209 O208 1.286 . S
C209 C211 1.363 . S
C210 C200 1.465 . S
C210 U206 2.847 . S
C210 O224 1.249 . S
C210 O225 1.202 . S
C211 C209 1.363 . S
C211 C213 1.408 . S
C211 C216 1.342 . S
C212 C213 1.310 . S
C212 C215 1.461 . S
C212 H232 0.932 . S
C213 C211 1.408 . S
C213 C212 1.310 . S
C213 H233 0.930 . S
C214 C215 1.474 . S
C214 C216 1.285 . S
C214 H234 0.929 . S
C215 C212 1.461 . S
C215 C214 1.474 . S
C216 C211 1.342 . S
C216 C214 1.285 . S
C216 H235 0.930 . S
C217 C220 1.424 . S
C217 C222 1.245 . S
C217 C223 1.428 . S
C218 C221 1.260 . S
C218 C222 1.477 . S
C218 H236 0.932 . S
C219 C220 1.384 . S
C219 C221 1.479 . S
C219 H237 0.929 . S
C220 C217 1.424 . S
C220 C219 1.384 . S
C220 H238 0.928 . S
C221 C218 1.260 . S
C221 C219 1.479 . S
C222 C217 1.245 . S
C222 C218 1.477 . S
C222 H239 0.932 . S
C223 U206 2.882 . S
C223 C217 1.428 . S
C223 O226 1.301 . S
C223 O227 1.282 . S
O224 U206 2.441 . S
O224 C210 1.249 . S
O225 U206 2.420 . S
O225 C210 1.202 . S
O226 U206 2.455 . S
O226 C223 1.301 . S
O227 U206 2.449 . S
O227 C223 1.282 . S
H228 C201 0.931 . S
H229 C203 0.929 . S
H230 C204 0.930 . S
H231 C205 0.931 . S
H232 C212 0.932 . S
H233 C213 0.930 . S
H234 C214 0.929 . S
H235 C216 0.930 . S
H236 C218 0.932 . S
H237 C219 0.929 . S
H238 C220 0.928 . S
H239 C222 0.932 . S
C240 C241 1.264 . S
C240 C245 1.479 . S
C240 C250 1.465 . S
C241 C240 1.264 . S
C241 C243 1.339 . S
C241 H268 0.931 . S
C242 C243 1.395 . S
C242 C244 1.320 . S
C243 C241 1.339 . S
C243 C242 1.395 . S
C243 H269 0.929 . S
C244 C242 1.320 . S
C244 C245 1.405 . S
C244 H270 0.930 . S
C245 C240 1.479 . S
C245 C244 1.405 . S
C245 H271 0.931 . S
U246 O247 2.454 . S
U246 O248 2.458 . S
U246 C249 2.984 . S
U246 C250 2.847 . S
U246 C263 2.882 . S
U246 O264 2.441 . S
U246 O265 2.420 . S
U246 O266 2.455 . S
U246 O267 2.449 . S
O247 U246 2.454 . S
O247 C249 1.353 . S
O248 U246 2.458 . S
O248 C249 1.286 . S
C249 U246 2.984 . S
C249 O247 1.353 . S
C249 O248 1.286 . S
C249 C251 1.363 . S
C250 C240 1.465 . S
C250 U246 2.847 . S
C250 O264 1.249 . S
C250 O265 1.202 . S
C251 C249 1.363 . S
C251 C253 1.408 . S
C251 C256 1.342 . S
C252 C253 1.310 . S
C252 C255 1.461 . S
C252 H272 0.932 . S
C253 C251 1.408 . S
C253 C252 1.310 . S
C253 H273 0.930 . S
C254 C255 1.474 . S
C254 C256 1.285 . S
C254 H274 0.929 . S
C255 C252 1.461 . S
C255 C254 1.474 . S
C256 C251 1.342 . S
C256 C254 1.285 . S
C256 H275 0.930 . S
C257 C260 1.424 . S
C257 C262 1.245 . S
C257 C263 1.428 . S
C258 C261 1.260 . S
C258 C262 1.477 . S
C258 H276 0.932 . S
C259 C260 1.384 . S
C259 C261 1.479 . S
C259 H277 0.929 . S
C260 C257 1.424 . S
C260 C259 1.384 . S
C260 H278 0.928 . S
C261 C258 1.260 . S
C261 C259 1.479 . S
C262 C257 1.245 . S
C262 C258 1.477 . S
C262 H279 0.932 . S
C263 U246 2.882 . S
C263 C257 1.428 . S
C263 O266 1.301 . S
C263 O267 1.282 . S
O264 U246 2.441 . S
O264 C250 1.249 . S
O265 U246 2.420 . S
O265 C250 1.202 . S
O266 U246 2.455 . S
O266 C263 1.301 . S
O267 U246 2.449 . S
O267 C263 1.282 . S
H268 C241 0.931 . S
H269 C243 0.929 . S
H270 C244 0.930 . S
H271 C245 0.931 . S
H272 C252 0.932 . S
H273 C253 0.930 . S
H274 C254 0.929 . S
H275 C256 0.930 . S
H276 C258 0.932 . S
H277 C259 0.929 . S
H278 C260 0.928 . S
H279 C262 0.932 . S
C280 C281 1.264 . S
C280 C285 1.479 . S
C280 C290 1.465 . S
C281 C280 1.264 . S
C281 C283 1.339 . S
C281 H308 0.931 . S
C282 C283 1.395 . S
C282 C284 1.320 . S
C283 C281 1.339 . S
C283 C282 1.395 . S
C283 H309 0.929 . S
C284 C282 1.320 . S
C284 C285 1.405 . S
C284 H310 0.930 . S
C285 C280 1.479 . S
C285 C284 1.405 . S
C285 H311 0.931 . S
U286 O287 2.454 . S
U286 O288 2.458 . S
U286 C289 2.984 . S
U286 C290 2.847 . S
U286 C303 2.882 . S
U286 O304 2.441 . S
U286 O305 2.420 . S
U286 O306 2.455 . S
U286 O307 2.449 . S
O287 U286 2.454 . S
O287 C289 1.353 . S
O288 U286 2.458 . S
O288 C289 1.286 . S
C289 U286 2.984 . S
C289 O287 1.353 . S
C289 O288 1.286 . S
C289 C291 1.363 . S
C290 C280 1.465 . S
C290 U286 2.847 . S
C290 O304 1.249 . S
C290 O305 1.202 . S
C291 C289 1.363 . S
C291 C293 1.408 . S
C291 C296 1.342 . S
C292 C293 1.310 . S
C292 C295 1.461 . S
C292 H312 0.932 . S
C293 C291 1.408 . S
C293 C292 1.310 . S
C293 H313 0.930 . S
C294 C295 1.474 . S
C294 C296 1.285 . S
C294 H314 0.929 . S
C295 C292 1.461 . S
C295 C294 1.474 . S
C296 C291 1.342 . S
C296 C294 1.285 . S
C296 H315 0.930 . S
C297 C300 1.424 . S
C297 C302 1.245 . S
C297 C303 1.428 . S
C298 C301 1.260 . S
C298 C302 1.477 . S
C298 H316 0.932 . S
C299 C300 1.384 . S
C299 C301 1.479 . S
C299 H317 0.929 . S
C300 C297 1.424 . S
C300 C299 1.384 . S
C300 H318 0.928 . S
C301 C298 1.260 . S
C301 C299 1.479 . S
C302 C297 1.245 . S
C302 C298 1.477 . S
C302 H319 0.932 . S
C303 U286 2.882 . S
C303 C297 1.428 . S
C303 O306 1.301 . S
C303 O307 1.282 . S
O304 U286 2.441 . S
O304 C290 1.249 . S
O305 U286 2.420 . S
O305 C290 1.202 . S
O306 U286 2.455 . S
O306 C303 1.301 . S
O307 U286 2.449 . S
O307 C303 1.282 . S
H308 C281 0.931 . S
H309 C283 0.929 . S
H310 C284 0.930 . S
H311 C285 0.931 . S
H312 C292 0.932 . S
H313 C293 0.930 . S
H314 C294 0.929 . S
H315 C296 0.930 . S
H316 C298 0.932 . S
H317 C299 0.929 . S
H318 C300 0.928 . S
H319 C302 0.932 . S
C320 C321 1.443 . S
C320 N324 1.376 . S
C320 C358 1.389 . S
C321 C320 1.443 . S
C321 C322 1.340 . S
C321 H361 0.951 . S
C322 C321 1.340 . S
C322 C323 1.439 . S
C322 H362 0.950 . S
C323 C322 1.439 . S
C323 N324 1.374 . S
C323 C357 1.395 . S
N324 C320 1.376 . S
N324 C323 1.374 . S
N324 Co325 2.008 . S
Co325 N324 2.008 . S
Co325 N326 1.982 1_455 S
Co325 N331 2.008 . S
Co325 N336 1.995 . S
Co325 N341 2.282 . S
Co325 N347 2.282 1_455 S
N326 Co325 1.982 1_655 S
N326 C327 1.375 . S
N326 C330 1.398 . S
C327 N326 1.375 . S
C327 C328 1.446 . S
C327 C357 1.391 1_655 S
C328 C327 1.446 . S
C328 C329 1.339 . S
C328 H363 0.949 . S
C329 C328 1.339 . S
C329 C330 1.439 . S
C329 H364 0.950 . S
C330 N326 1.398 . S
C330 C329 1.439 . S
C330 C359 1.392 . S
N331 Co325 2.008 . S
N331 C332 1.376 1_455 S
N331 C335 1.374 . S
C332 N331 1.376 1_655 S
C332 C333 1.443 . S
C332 C359 1.389 . S
C333 C332 1.443 . S
C333 C334 1.340 . S
C333 H365 0.951 . S
C334 C333 1.340 . S
C334 C335 1.439 1_655 S
C334 H366 0.950 . S
C335 N331 1.374 . S
C335 C334 1.439 1_455 S
C335 C360 1.395 . S
N336 Co325 1.995 . S
N336 C337 1.376 . S
N336 C340 1.383 . S
C337 N336 1.376 . S
C337 C338 1.446 . S
C337 C360 1.391 . S
C338 C337 1.446 . S
C338 C339 1.339 . S
C338 H367 0.949 . S
C339 C338 1.339 . S
C339 C340 1.439 . S
C339 H368 0.950 . S
C340 N336 1.383 . S
C340 C339 1.439 . S
C340 C358 1.392 . S
N341 Co325 2.282 . S
N341 C344 1.332 . S
N341 C346 1.332 . S
C342 C343 1.386 . S
C342 C345 1.388 . S
C343 C342 1.386 . S
C343 C344 1.382 . S
C343 H369 0.950 . S
C344 N341 1.332 . S
C344 C343 1.382 . S
C344 H355 0.952 . S
C345 C342 1.388 . S
C345 C346 1.382 . S
C345 H370 0.950 . S
C346 N341 1.332 . S
C346 C345 1.382 . S
C346 H356 0.948 . S
N347 Co325 2.282 1_655 S
N347 C351 1.332 . S
N347 C352 1.332 . S
C348 C349 1.388 . S
C348 C352 1.382 . S
C348 H371 0.950 . S
C349 C348 1.388 . S
C349 C350 1.386 . S
C350 C349 1.386 . S
C350 C351 1.382 . S
C350 H372 0.950 . S
C351 N347 1.332 . S
C351 C350 1.382 . S
C351 H353 0.952 . S
C352 N347 1.332 . S
C352 C348 1.382 . S
C352 H354 0.948 . S
H353 C351 0.952 . S
H354 C352 0.948 . S
H355 C344 0.952 . S
H356 C346 0.948 . S
C357 C323 1.395 . S
C357 C327 1.391 1_455 S
C358 C320 1.389 . S
C358 C340 1.392 . S
C359 C330 1.392 . S
C359 C332 1.389 . S
C360 C335 1.395 . S
C360 C337 1.391 . S
H361 C321 0.951 . S
H362 C322 0.950 . S
H363 C328 0.949 . S
H364 C329 0.950 . S
H365 C333 0.951 . S
H366 C334 0.950 . S
H367 C338 0.949 . S
H368 C339 0.950 . S
H369 C343 0.950 . S
H370 C345 0.950 . S
H371 C348 0.950 . S
H372 C350 0.950 . S
C373 C374 1.443 . S
C373 N377 1.376 . S
C373 C411 1.389 . S
C374 C373 1.443 . S
C374 C375 1.340 . S
C374 H414 0.951 . S
C375 C374 1.340 . S
C375 C376 1.439 . S
C375 H415 0.950 . S
C376 C375 1.439 . S
C376 N377 1.374 . S
C376 C410 1.395 . S
N377 C373 1.376 . S
N377 C376 1.374 . S
N377 Co378 2.008 . S
Co378 N377 2.008 . S
Co378 N379 1.995 1_455 S
Co378 N384 2.008 1_455 S
Co378 N389 1.995 . S
Co378 N394 2.282 . S
Co378 N400 2.282 1_455 S
N379 Co378 1.995 1_655 S
N379 C380 1.376 . S
N379 C383 1.383 . S
C380 N379 1.376 . S
C380 C381 1.446 . S
C380 C410 1.391 1_655 S
C381 C380 1.446 . S
C381 C382 1.339 . S
C381 H416 0.949 . S
C382 C381 1.339 . S
C382 C383 1.439 . S
C382 H417 0.950 . S
C383 N379 1.383 . S
C383 C382 1.439 . S
C383 C412 1.392 . S
N384 Co378 2.008 1_655 S
N384 C385 1.376 . S
N384 C388 1.374 . S
C385 N384 1.376 . S
C385 C386 1.443 . S
C385 C412 1.389 . S
C386 C385 1.443 . S
C386 C387 1.340 . S
C386 H418 0.951 . S
C387 C386 1.340 . S
C387 C388 1.439 . S
C387 H419 0.950 . S
C388 N384 1.374 . S
C388 C387 1.439 . S
C388 C413 1.395 1_655 S
N389 Co378 1.995 . S
N389 C390 1.376 . S
N389 C393 1.383 . S
C390 N389 1.376 . S
C390 C391 1.446 . S
C390 C413 1.391 . S
C391 C390 1.446 . S
C391 C392 1.339 . S
C391 H420 0.949 . S
C392 C391 1.339 . S
C392 C393 1.439 . S
C392 H421 0.950 . S
C393 N389 1.383 . S
C393 C392 1.439 . S
C393 C411 1.392 . S
N394 Co378 2.282 . S
N394 C397 1.332 . S
N394 C399 1.332 . S
C395 C396 1.386 . S
C395 C398 1.388 . S
C396 C395 1.386 . S
C396 C397 1.382 . S
C396 H422 0.950 . S
C397 N394 1.332 . S
C397 C396 1.382 . S
C397 H408 0.952 . S
C398 C395 1.388 . S
C398 C399 1.382 . S
C398 H423 0.950 . S
C399 N394 1.332 . S
C399 C398 1.382 . S
C399 H409 0.948 . S
N400 Co378 2.282 1_655 S
N400 C404 1.332 . S
N400 C405 1.332 . S
C401 C402 1.388 . S
C401 C405 1.382 . S
C401 H424 0.950 . S
C402 C401 1.388 . S
C402 C403 1.386 . S
C403 C402 1.386 . S
C403 C404 1.382 . S
C403 H425 0.950 . S
C404 N400 1.332 . S
C404 C403 1.382 . S
C404 H406 0.952 . S
C405 N400 1.332 . S
C405 C401 1.382 . S
C405 H407 0.948 . S
H406 C404 0.952 . S
H407 C405 0.948 . S
H408 C397 0.952 . S
H409 C399 0.948 . S
C410 C376 1.395 . S
C410 C380 1.391 1_455 S
C411 C373 1.389 . S
C411 C393 1.392 . S
C412 C383 1.392 . S
C412 C385 1.389 . S
C413 C388 1.395 1_455 S
C413 C390 1.391 . S
H414 C374 0.951 . S
H415 C375 0.950 . S
H416 C381 0.949 . S
H417 C382 0.950 . S
H418 C386 0.951 . S
H419 C387 0.950 . S
H420 C391 0.949 . S
H421 C392 0.950 . S
H422 C396 0.950 . S
H423 C398 0.950 . S
H424 C401 0.950 . S
H425 C403 0.950 . S
C426 C427 1.443 . S
C426 N430 1.376 . S
C426 C464 1.389 . S
C427 C426 1.443 . S
C427 C428 1.340 . S
C427 H467 0.951 . S
C428 C427 1.340 . S
C428 C429 1.439 . S
C428 H468 0.950 . S
C429 C428 1.439 . S
C429 N430 1.374 . S
C429 C463 1.395 1_565 S
N430 C426 1.376 . S
N430 C429 1.374 . S
N430 Co431 2.008 1_565 S
Co431 N430 2.008 1_545 S
Co431 N432 1.995 . S
Co431 N437 2.008 . S
Co431 N442 1.995 1_545 S
Co431 N447 2.282 . S
Co431 N453 2.282 1_545 S
N432 Co431 1.995 . S
N432 C433 1.376 . S
N432 C436 1.383 . S
C433 N432 1.376 . S
C433 C434 1.446 . S
C433 C463 1.391 . S
C434 C433 1.446 . S
C434 C435 1.339 . S
C434 H469 0.949 . S
C435 C434 1.339 . S
C435 C436 1.439 . S
C435 H470 0.950 . S
C436 N432 1.383 . S
C436 C435 1.439 . S
C436 C465 1.392 . S
N437 Co431 2.008 . S
N437 C438 1.376 . S
N437 C441 1.374 . S
C438 N437 1.376 . S
C438 C439 1.443 . S
C438 C465 1.389 . S
C439 C438 1.443 . S
C439 C440 1.340 . S
C439 H471 0.951 . S
C440 C439 1.340 . S
C440 C441 1.439 . S
C440 H472 0.950 . S
C441 N437 1.374 . S
C441 C440 1.439 . S
C441 C466 1.395 . S
N442 Co431 1.995 1_565 S
N442 C443 1.376 . S
N442 C446 1.383 . S
C443 N442 1.376 . S
C443 C444 1.446 . S
C443 C466 1.391 1_565 S
C444 C443 1.446 . S
C444 C445 1.339 . S
C444 H473 0.949 . S
C445 C444 1.339 . S
C445 C446 1.439 . S
C445 H474 0.950 . S
C446 N442 1.383 . S
C446 C445 1.439 . S
C446 C464 1.392 . S
N447 Co431 2.282 . S
N447 C450 1.332 . S
N447 C452 1.332 . S
C448 C449 1.386 . S
C448 C451 1.388 . S
C449 C448 1.386 . S
C449 C450 1.382 . S
C449 H475 0.950 . S
C450 N447 1.332 . S
C450 C449 1.382 . S
C450 H461 0.952 . S
C451 C448 1.388 . S
C451 C452 1.382 . S
C451 H476 0.950 . S
C452 N447 1.332 . S
C452 C451 1.382 . S
C452 H462 0.948 . S
N453 Co431 2.282 1_565 S
N453 C457 1.332 . S
N453 C458 1.332 . S
C454 C455 1.388 . S
C454 C458 1.382 . S
C454 H477 0.950 . S
C455 C454 1.388 . S
C455 C456 1.386 . S
C456 C455 1.386 . S
C456 C457 1.382 . S
C456 H478 0.950 . S
C457 N453 1.332 . S
C457 C456 1.382 . S
C457 H459 0.952 . S
C458 N453 1.332 . S
C458 C454 1.382 . S
C458 H460 0.948 . S
H459 C457 0.952 . S
H460 C458 0.948 . S
H461 C450 0.952 . S
H462 C452 0.948 . S
C463 C429 1.395 1_545 S
C463 C433 1.391 . S
C464 C426 1.389 . S
C464 C446 1.392 . S
C465 C436 1.392 . S
C465 C438 1.389 . S
C466 C441 1.395 . S
C466 C443 1.391 1_545 S
H467 C427 0.951 . S
H468 C428 0.950 . S
H469 C434 0.949 . S
H470 C435 0.950 . S
H471 C439 0.951 . S
H472 C440 0.950 . S
H473 C444 0.949 . S
H474 C445 0.950 . S
H475 C449 0.950 . S
H476 C451 0.950 . S
H477 C454 0.950 . S
H478 C456 0.950 . S
C479 C480 1.443 . S
C479 N483 1.376 . S
C479 C517 1.389 . S
C480 C479 1.443 . S
C480 C481 1.340 . S
C480 H520 0.951 . S
C481 C480 1.340 . S
C481 C482 1.439 . S
C481 H521 0.950 . S
C482 C481 1.439 . S
C482 N483 1.374 . S
C482 C516 1.395 . S
N483 C479 1.376 . S
N483 C482 1.374 . S
N483 Co484 2.008 . S
Co484 N483 2.008 . S
Co484 N485 1.999 . S
Co484 N490 1.985 1_554 S
Co484 N495 1.995 . S
Co484 N500 2.282 1_554 S
Co484 N506 2.282 . S
N485 Co484 1.999 . S
N485 C486 1.377 . S
N485 C489 1.377 1_554 S
C486 N485 1.377 . S
C486 C487 1.446 1_554 S
C486 C516 1.391 . S
C487 C486 1.446 1_556 S
C487 C488 1.339 . S
C487 H522 0.949 . S
C488 C487 1.339 . S
C488 C489 1.439 . S
C488 H523 0.950 . S
C489 N485 1.377 1_556 S
C489 C488 1.439 . S
C489 C518 1.392 . S
N490 Co484 1.985 1_556 S
N490 C491 1.410 . S
N490 C494 1.375 1_556 S
C491 N490 1.410 . S
C491 C492 1.443 . S
C491 C518 1.389 . S
C492 C491 1.443 . S
C492 C493 1.340 . S
C492 H524 0.951 . S
C493 C492 1.340 . S
C493 C494 1.422 1_556 S
C493 H525 0.950 . S
C494 N490 1.375 1_554 S
C494 C493 1.422 1_554 S
C494 C519 1.409 . S
N495 Co484 1.995 . S
N495 C496 1.376 . S
N495 C499 1.383 . S
C496 N495 1.376 . S
C496 C497 1.446 . S
C496 C519 1.391 . S
C497 C496 1.446 . S
C497 C498 1.339 . S
C497 H526 0.949 . S
C498 C497 1.339 . S
C498 C499 1.439 . S
C498 H527 0.950 . S
C499 N495 1.383 . S
C499 C498 1.439 . S
C499 C517 1.392 . S
N500 Co484 2.282 1_556 S
N500 C503 1.332 . S
N500 C505 1.332 . S
C501 C502 1.386 . S
C501 C504 1.388 . S
C502 C501 1.386 . S
C502 C503 1.382 . S
C502 H528 0.950 . S
C503 N500 1.332 . S
C503 C502 1.382 . S
C503 H514 0.952 . S
C504 C501 1.388 . S
C504 C505 1.382 . S
C504 H529 0.950 . S
C505 N500 1.332 . S
C505 C504 1.382 . S
C505 H515 0.948 . S
N506 Co484 2.282 . S
N506 C510 1.332 . S
N506 C511 1.332 . S
C507 C508 1.388 . S
C507 C511 1.382 . S
C507 H530 0.950 . S
C508 C507 1.388 . S
C508 C509 1.386 . S
C509 C508 1.386 . S
C509 C510 1.382 . S
C509 H531 0.950 . S
C510 N506 1.332 . S
C510 C509 1.382 . S
C510 H512 0.952 . S
C511 N506 1.332 . S
C511 C507 1.382 . S
C511 H513 0.948 . S
H512 C510 0.952 . S
H513 C511 0.948 . S
H514 C503 0.952 . S
H515 C505 0.948 . S
C516 C482 1.395 . S
C516 C486 1.391 . S
C517 C479 1.389 . S
C517 C499 1.392 . S
C518 C489 1.392 . S
C518 C491 1.389 . S
C519 C494 1.409 . S
C519 C496 1.391 . S
H520 C480 0.951 . S
H521 C481 0.950 . S
H522 C487 0.949 . S
H523 C488 0.950 . S
H524 C492 0.951 . S
H525 C493 0.950 . S
H526 C497 0.949 . S
H527 C498 0.950 . S
H528 C502 0.950 . S
H529 C504 0.950 . S
H530 C507 0.950 . S
H531 C509 0.950 . S
C532 C533 1.443 . S
C532 N536 1.376 1_565 S
C532 C570 1.389 . S
C533 C532 1.443 . S
C533 C534 1.340 . S
C533 H573 0.951 . S
C534 C533 1.340 . S
C534 C535 1.439 1_565 S
C534 H574 0.950 . S
C535 C534 1.439 1_545 S
C535 N536 1.374 . S
C535 C569 1.395 . S
N536 C532 1.376 1_545 S
N536 C535 1.374 . S
N536 Co537 2.008 . S
Co537 N536 2.008 . S
Co537 N538 1.995 . S
Co537 N543 2.008 . S
Co537 N548 1.995 . S
Co537 N553 2.282 . S
Co537 N559 2.282 1_545 S
N538 Co537 1.995 . S
N538 C539 1.376 . S
N538 C542 1.383 . S
C539 N538 1.376 . S
C539 C540 1.446 . S
C539 C569 1.391 . S
C540 C539 1.446 . S
C540 C541 1.339 . S
C540 H575 0.949 . S
C541 C540 1.339 . S
C541 C542 1.439 . S
C541 H576 0.950 . S
C542 N538 1.383 . S
C542 C541 1.439 . S
C542 C571 1.392 . S
N543 Co537 2.008 . S
N543 C544 1.376 . S
N543 C547 1.374 . S
C544 N543 1.376 . S
C544 C545 1.443 . S
C544 C571 1.389 . S
C545 C544 1.443 . S
C545 C546 1.340 . S
C545 H577 0.951 . S
C546 C545 1.340 . S
C546 C547 1.439 . S
C546 H578 0.950 . S
C547 N543 1.374 . S
C547 C546 1.439 . S
C547 C572 1.395 . S
N548 Co537 1.995 . S
N548 C549 1.376 . S
N548 C552 1.383 1_545 S
C549 N548 1.376 . S
C549 C550 1.446 1_545 S
C549 C572 1.391 . S
C550 C549 1.446 1_565 S
C550 C551 1.339 . S
C550 H579 0.949 . S
C551 C550 1.339 . S
C551 C552 1.439 . S
C551 H580 0.950 . S
C552 N548 1.383 1_565 S
C552 C551 1.439 . S
C552 C570 1.392 . S
N553 Co537 2.282 . S
N553 C556 1.332 . S
N553 C558 1.332 . S
C554 C555 1.386 . S
C554 C557 1.388 . S
C555 C554 1.386 . S
C555 C556 1.382 . S
C555 H581 0.950 . S
C556 N553 1.332 . S
C556 C555 1.382 . S
C556 H567 0.952 . S
C557 C554 1.388 . S
C557 C558 1.382 . S
C557 H582 0.950 . S
C558 N553 1.332 . S
C558 C557 1.382 . S
C558 H568 0.948 . S
N559 Co537 2.282 1_565 S
N559 C563 1.332 . S
N559 C564 1.332 . S
C560 C561 1.388 . S
C560 C564 1.382 . S
C560 H583 0.950 . S
C561 C560 1.388 . S
C561 C562 1.386 . S
C562 C561 1.386 . S
C562 C563 1.382 . S
C562 H584 0.950 . S
C563 N559 1.332 . S
C563 C562 1.382 . S
C563 H565 0.952 . S
C564 N559 1.332 . S
C564 C560 1.382 . S
C564 H566 0.948 . S
H565 C563 0.952 . S
H566 C564 0.948 . S
H567 C556 0.952 . S
H568 C558 0.948 . S
C569 C535 1.395 . S
C569 C539 1.391 . S
C570 C532 1.389 . S
C570 C552 1.392 . S
C571 C542 1.392 . S
C571 C544 1.389 . S
C572 C547 1.395 . S
C572 C549 1.391 . S
H573 C533 0.951 . S
H574 C534 0.950 . S
H575 C540 0.949 . S
H576 C541 0.950 . S
H577 C545 0.951 . S
H578 C546 0.950 . S
H579 C550 0.949 . S
H580 C551 0.950 . S
H581 C555 0.950 . S
H582 C557 0.950 . S
H583 C560 0.950 . S
H584 C562 0.950 . S
C585 C586 1.443 . S
C585 N589 1.376 . S
C585 C623 1.389 . S
C586 C585 1.443 . S
C586 C587 1.340 . S
C586 H626 0.951 . S
C587 C586 1.340 . S
C587 C588 1.439 . S
C587 H627 0.950 . S
C588 C587 1.439 . S
C588 N589 1.374 . S
C588 C622 1.395 . S
N589 C585 1.376 . S
N589 C588 1.374 . S
N589 Co590 2.008 . S
Co590 N589 2.008 . S
Co590 N591 1.995 . S
Co590 N596 2.008 . S
Co590 N601 1.995 . S
Co590 N606 2.292 . S
Co590 N612 2.282 . S
N591 Co590 1.995 . S
N591 C592 1.376 . S
N591 C595 1.383 1_554 S
C592 N591 1.376 . S
C592 C593 1.446 1_554 S
C592 C622 1.391 . S
C593 C592 1.446 1_556 S
C593 C594 1.339 . S
C593 H628 0.949 . S
C594 C593 1.339 . S
C594 C595 1.439 . S
C594 H629 0.950 . S
C595 N591 1.383 1_556 S
C595 C594 1.439 . S
C595 C624 1.392 . S
N596 Co590 2.008 . S
N596 C597 1.376 1_554 S
N596 C600 1.374 . S
C597 N596 1.376 1_556 S
C597 C598 1.443 . S
C597 C624 1.389 . S
C598 C597 1.443 . S
C598 C599 1.340 . S
C598 H630 0.951 . S
C599 C598 1.340 . S
C599 C600 1.439 1_556 S
C599 H631 0.950 . S
C600 N596 1.374 . S
C600 C599 1.439 1_554 S
C600 C625 1.395 . S
N601 Co590 1.995 . S
N601 C602 1.376 . S
N601 C605 1.383 . S
C602 N601 1.376 . S
C602 C603 1.446 . S
C602 C625 1.391 . S
C603 C602 1.446 . S
C603 C604 1.339 . S
C603 H632 0.949 . S
C604 C603 1.339 . S
C604 C605 1.439 . S
C604 H633 0.950 . S
C605 N601 1.383 . S
C605 C604 1.439 . S
C605 C623 1.392 . S
N606 Co590 2.292 . S
N606 C609 1.328 1_554 S
N606 C611 1.325 1_554 S
C607 C608 1.386 . S
C607 C610 1.388 . S
C608 C607 1.386 . S
C608 C609 1.382 . S
C608 H634 0.950 . S
C609 N606 1.328 1_556 S
C609 C608 1.382 . S
C609 H620 0.952 1_556 S
C610 C607 1.388 . S
C610 C611 1.382 . S
C610 H635 0.950 . S
C611 N606 1.325 1_556 S
C611 C610 1.382 . S
C611 H621 0.948 . S
N612 Co590 2.282 . S
N612 C616 1.332 . S
N612 C617 1.332 . S
C613 C614 1.388 . S
C613 C617 1.382 . S
C613 H636 0.950 . S
C614 C613 1.388 . S
C614 C615 1.386 . S
C615 C614 1.386 . S
C615 C616 1.382 . S
C615 H637 0.950 . S
C616 N612 1.332 . S
C616 C615 1.382 . S
C616 H618 0.952 . S
C617 N612 1.332 . S
C617 C613 1.382 . S
C617 H619 0.948 . S
H618 C616 0.952 . S
H619 C617 0.948 . S
H620 C609 0.952 1_554 S
H621 C611 0.948 . S
C622 C588 1.395 . S
C622 C592 1.391 . S
C623 C585 1.389 . S
C623 C605 1.392 . S
C624 C595 1.392 . S
C624 C597 1.389 . S
C625 C600 1.395 . S
C625 C602 1.391 . S
H626 C586 0.951 . S
H627 C587 0.950 . S
H628 C593 0.949 . S
H629 C594 0.950 . S
H630 C598 0.951 . S
H631 C599 0.950 . S
H632 C603 0.949 . S
H633 C604 0.950 . S
H634 C608 0.950 . S
H635 C610 0.950 . S
H636 C613 0.950 . S
H637 C615 0.950 . S
C638 C639 1.391 . S
C638 C640 1.394 . S
C638 H654 0.931 . S
C639 C638 1.391 . S
C639 C643 1.376 . S
C640 C638 1.394 . S
C640 C641 1.369 . S
C640 C644 1.531 . S
C641 C640 1.369 . S
C641 C642 1.410 . S
C641 C649 1.503 . S
C642 C641 1.410 . S
C642 C643 1.392 . S
C642 C645 1.511 . S
C643 C639 1.376 . S
C643 C642 1.392 . S
C643 H655 0.929 . S
C644 C640 1.531 . S
C644 H656 0.960 . S
C644 H657 0.962 . S
C644 H658 0.960 . S
C645 C642 1.511 . S
C645 H659 0.961 . S
C645 H660 0.961 . S
C645 H661 0.961 . S
C646 C647 1.370 . S
C646 C648 1.363 . S
C646 H662 0.931 . S
C647 C646 1.370 . S
C647 C651 1.408 . S
C648 C646 1.363 . S
C648 C649 1.370 . S
C648 C652 1.524 . S
C649 C641 1.503 . S
C649 C648 1.370 . S
C649 C650 1.403 . S
C650 C649 1.403 . S
C650 C651 1.404 . S
C650 C653 1.539 . S
C651 C647 1.408 . S
C651 C650 1.404 . S
C651 H663 0.930 . S
C652 C648 1.524 . S
C652 H664 0.956 . S
C652 H665 0.961 . S
C652 H666 0.961 . S
C653 C650 1.539 . S
C653 H667 0.958 . S
C653 H668 0.961 . S
C653 H669 0.960 . S
H654 C638 0.931 . S
H655 C643 0.929 . S
H656 C644 0.960 . S
H657 C644 0.962 . S
H658 C644 0.960 . S
H659 C645 0.961 . S
H660 C645 0.961 . S
H661 C645 0.961 . S
H662 C646 0.931 . S
H663 C651 0.930 . S
H664 C652 0.956 . S
H665 C652 0.961 . S
H666 C652 0.961 . S
H667 C653 0.958 . S
H668 C653 0.961 . S
H669 C653 0.960 . S
C670 C671 1.391 . S
C670 C672 1.394 . S
C670 H686 0.931 . S
C671 C670 1.391 . S
C671 C675 1.376 . S
C672 C670 1.394 . S
C672 C673 1.369 . S
C672 C676 1.531 . S
C673 C672 1.369 . S
C673 C674 1.410 . S
C673 C681 1.503 . S
C674 C673 1.410 . S
C674 C675 1.392 . S
C674 C677 1.511 . S
C675 C671 1.376 . S
C675 C674 1.392 . S
C675 H687 0.929 . S
C676 C672 1.531 . S
C676 H688 0.960 . S
C676 H689 0.962 . S
C676 H690 0.960 . S
C677 C674 1.511 . S
C677 H691 0.961 . S
C677 H692 0.961 . S
C677 H693 0.961 . S
C678 C679 1.370 . S
C678 C680 1.363 . S
C678 H694 0.931 . S
C679 C678 1.370 . S
C679 C683 1.408 . S
C680 C678 1.363 . S
C680 C681 1.370 . S
C680 C684 1.524 . S
C681 C673 1.503 . S
C681 C680 1.370 . S
C681 C682 1.403 . S
C682 C681 1.403 . S
C682 C683 1.404 . S
C682 C685 1.539 . S
C683 C679 1.408 . S
C683 C682 1.404 . S
C683 H695 0.930 . S
C684 C680 1.524 . S
C684 H696 0.956 . S
C684 H697 0.961 . S
C684 H698 0.961 . S
C685 C682 1.539 . S
C685 H699 0.958 . S
C685 H700 0.961 . S
C685 H701 0.960 . S
H686 C670 0.931 . S
H687 C675 0.929 . S
H688 C676 0.960 . S
H689 C676 0.962 . S
H690 C676 0.960 . S
H691 C677 0.961 . S
H692 C677 0.961 . S
H693 C677 0.961 . S
H694 C678 0.931 . S
H695 C683 0.930 . S
H696 C684 0.956 . S
H697 C684 0.961 . S
H698 C684 0.961 . S
H699 C685 0.958 . S
H700 C685 0.961 . S
H701 C685 0.960 . S
C702 C703 1.391 . S
C702 C704 1.394 . S
C702 H718 0.931 . S
C703 C702 1.391 . S
C703 C707 1.376 . S
C704 C702 1.394 . S
C704 C705 1.369 . S
C704 C708 1.531 . S
C705 C704 1.369 . S
C705 C706 1.410 . S
C705 C713 1.503 . S
C706 C705 1.410 . S
C706 C707 1.392 . S
C706 C709 1.511 . S
C707 C703 1.376 . S
C707 C706 1.392 . S
C707 H719 0.929 . S
C708 C704 1.531 . S
C708 H720 0.960 . S
C708 H721 0.962 . S
C708 H722 0.960 . S
C709 C706 1.511 . S
C709 H723 0.961 . S
C709 H724 0.961 . S
C709 H725 0.961 . S
C710 C711 1.370 . S
C710 C712 1.363 . S
C710 H726 0.931 . S
C711 C710 1.370 . S
C711 C715 1.408 . S
C712 C710 1.363 . S
C712 C713 1.370 . S
C712 C716 1.524 . S
C713 C705 1.503 . S
C713 C712 1.370 . S
C713 C714 1.403 . S
C714 C713 1.403 . S
C714 C715 1.404 . S
C714 C717 1.539 . S
C715 C711 1.408 . S
C715 C714 1.404 . S
C715 H727 0.930 . S
C716 C712 1.524 . S
C716 H728 0.956 . S
C716 H729 0.961 . S
C716 H730 0.961 . S
C717 C714 1.539 . S
C717 H731 0.958 . S
C717 H732 0.961 . S
C717 H733 0.960 . S
H718 C702 0.931 . S
H719 C707 0.929 . S
H720 C708 0.960 . S
H721 C708 0.962 . S
H722 C708 0.960 . S
H723 C709 0.961 . S
H724 C709 0.961 . S
H725 C709 0.961 . S
H726 C710 0.931 . S
H727 C715 0.930 . S
H728 C716 0.956 . S
H729 C716 0.961 . S
H730 C716 0.961 . S
H731 C717 0.958 . S
H732 C717 0.961 . S
H733 C717 0.960 . S
C734 C735 1.391 . S
C734 C736 1.394 . S
C734 H750 0.931 . S
C735 C734 1.391 . S
C735 C739 1.376 . S
C736 C734 1.394 . S
C736 C737 1.369 . S
C736 C740 1.531 . S
C737 C736 1.369 . S
C737 C738 1.410 . S
C737 C745 1.503 . S
C738 C737 1.410 . S
C738 C739 1.392 . S
C738 C741 1.511 . S
C739 C735 1.376 . S
C739 C738 1.392 . S
C739 H751 0.929 . S
C740 C736 1.531 . S
C740 H752 0.960 . S
C740 H753 0.962 . S
C740 H754 0.960 . S
C741 C738 1.511 . S
C741 H755 0.961 . S
C741 H756 0.961 . S
C741 H757 0.961 . S
C742 C743 1.370 . S
C742 C744 1.363 . S
C742 H758 0.931 . S
C743 C742 1.370 . S
C743 C747 1.408 . S
C744 C742 1.363 . S
C744 C745 1.370 . S
C744 C748 1.524 . S
C745 C737 1.503 . S
C745 C744 1.370 . S
C745 C746 1.403 . S
C746 C745 1.403 . S
C746 C747 1.404 . S
C746 C749 1.539 . S
C747 C743 1.408 . S
C747 C746 1.404 . S
C747 H759 0.930 . S
C748 C744 1.524 . S
C748 H760 0.956 . S
C748 H761 0.961 . S
C748 H762 0.961 . S
C749 C746 1.539 . S
C749 H763 0.958 . S
C749 H764 0.961 . S
C749 H765 0.960 . S
H750 C734 0.931 . S
H751 C739 0.929 . S
H752 C740 0.960 . S
H753 C740 0.962 . S
H754 C740 0.960 . S
H755 C741 0.961 . S
H756 C741 0.961 . S
H757 C741 0.961 . S
H758 C742 0.931 . S
H759 C747 0.930 . S
H760 C748 0.956 . S
H761 C748 0.961 . S
H762 C748 0.961 . S
H763 C749 0.958 . S
H764 C749 0.961 . S
H765 C749 0.960 . S
C766 C767 1.391 . S
C766 C768 1.394 . S
C766 H782 0.931 . S
C767 C766 1.391 . S
C767 C771 1.376 . S
C768 C766 1.394 . S
C768 C769 1.369 . S
C768 C772 1.531 . S
C769 C768 1.369 . S
C769 C770 1.410 . S
C769 C777 1.503 . S
C770 C769 1.410 . S
C770 C771 1.392 . S
C770 C773 1.511 . S
C771 C767 1.376 . S
C771 C770 1.392 . S
C771 H783 0.929 . S
C772 C768 1.531 . S
C772 H784 0.960 . S
C772 H785 0.962 . S
C772 H786 0.960 . S
C773 C770 1.511 . S
C773 H787 0.961 . S
C773 H788 0.961 . S
C773 H789 0.961 . S
C774 C775 1.370 . S
C774 C776 1.363 . S
C774 H790 0.931 . S
C775 C774 1.370 . S
C775 C779 1.408 . S
C776 C774 1.363 . S
C776 C777 1.370 . S
C776 C780 1.524 . S
C777 C769 1.503 . S
C777 C776 1.370 . S
C777 C778 1.403 . S
C778 C777 1.403 . S
C778 C779 1.404 . S
C778 C781 1.539 . S
C779 C775 1.408 . S
C779 C778 1.404 . S
C779 H791 0.930 . S
C780 C776 1.524 . S
C780 H792 0.956 . S
C780 H793 0.961 . S
C780 H794 0.961 . S
C781 C778 1.539 . S
C781 H795 0.958 . S
C781 H796 0.961 . S
C781 H797 0.960 . S
H782 C766 0.931 . S
H783 C771 0.929 . S
H784 C772 0.960 . S
H785 C772 0.962 . S
H786 C772 0.960 . S
H787 C773 0.961 . S
H788 C773 0.961 . S
H789 C773 0.961 . S
H790 C774 0.931 . S
H791 C779 0.930 . S
H792 C780 0.956 . S
H793 C780 0.961 . S
H794 C780 0.961 . S
H795 C781 0.958 . S
H796 C781 0.961 . S
H797 C781 0.960 . S
C798 C799 1.391 . S
C798 C800 1.394 . S
C798 H814 0.931 . S
C799 C798 1.391 . S
C799 C803 1.376 . S
C800 C798 1.394 . S
C800 C801 1.369 . S
C800 C804 1.531 . S
C801 C800 1.369 . S
C801 C802 1.410 . S
C801 C809 1.503 . S
C802 C801 1.410 . S
C802 C803 1.392 . S
C802 C805 1.511 . S
C803 C799 1.376 . S
C803 C802 1.392 . S
C803 H815 0.929 . S
C804 C800 1.531 . S
C804 H816 0.960 . S
C804 H817 0.962 . S
C804 H818 0.960 . S
C805 C802 1.511 . S
C805 H819 0.961 . S
C805 H820 0.961 . S
C805 H821 0.961 . S
C806 C807 1.370 . S
C806 C808 1.363 . S
C806 H822 0.931 . S
C807 C806 1.370 . S
C807 C811 1.408 . S
C808 C806 1.363 . S
C808 C809 1.370 . S
C808 C812 1.524 . S
C809 C801 1.503 . S
C809 C808 1.370 . S
C809 C810 1.403 . S
C810 C809 1.403 . S
C810 C811 1.404 . S
C810 C813 1.539 . S
C811 C807 1.408 . S
C811 C810 1.404 . S
C811 H823 0.930 . S
C812 C808 1.524 . S
C812 H824 0.956 . S
C812 H825 0.961 . S
C812 H826 0.961 . S
C813 C810 1.539 . S
C813 H827 0.958 . S
C813 H828 0.961 . S
C813 H829 0.960 . S
H814 C798 0.931 . S
H815 C803 0.929 . S
H816 C804 0.960 . S
H817 C804 0.962 . S
H818 C804 0.960 . S
H819 C805 0.961 . S
H820 C805 0.961 . S
H821 C805 0.961 . S
H822 C806 0.931 . S
H823 C811 0.930 . S
H824 C812 0.956 . S
H825 C812 0.961 . S
H826 C812 0.961 . S
H827 C813 0.958 . S
H828 C813 0.961 . S
H829 C813 0.960 . S
C830 C831 1.391 . S
C830 C832 1.394 . S
C830 H846 0.931 . S
C831 C830 1.391 . S
C831 C835 1.376 . S
C832 C830 1.394 . S
C832 C833 1.369 . S
C832 C836 1.531 . S
C833 C832 1.369 . S
C833 C834 1.410 . S
C833 C841 1.503 . S
C834 C833 1.410 . S
C834 C835 1.392 . S
C834 C837 1.511 . S
C835 C831 1.376 . S
C835 C834 1.392 . S
C835 H847 0.929 . S
C836 C832 1.531 . S
C836 H848 0.960 . S
C836 H849 0.962 . S
C836 H850 0.960 . S
C837 C834 1.511 . S
C837 H851 0.961 . S
C837 H852 0.961 . S
C837 H853 0.961 . S
C838 C839 1.370 . S
C838 C840 1.363 . S
C838 H854 0.931 . S
C839 C838 1.370 . S
C839 C843 1.408 . S
C840 C838 1.363 . S
C840 C841 1.370 . S
C840 C844 1.524 . S
C841 C833 1.503 . S
C841 C840 1.370 . S
C841 C842 1.403 . S
C842 C841 1.403 . S
C842 C843 1.404 . S
C842 C845 1.539 . S
C843 C839 1.408 . S
C843 C842 1.404 . S
C843 H855 0.930 . S
C844 C840 1.524 . S
C844 H856 0.956 . S
C844 H857 0.961 . S
C844 H858 0.961 . S
C845 C842 1.539 . S
C845 H859 0.958 . S
C845 H860 0.961 . S
C845 H861 0.960 . S
H846 C830 0.931 . S
H847 C835 0.929 . S
H848 C836 0.960 . S
H849 C836 0.962 . S
H850 C836 0.960 . S
H851 C837 0.961 . S
H852 C837 0.961 . S
H853 C837 0.961 . S
H854 C838 0.931 . S
H855 C843 0.930 . S
H856 C844 0.956 . S
H857 C844 0.961 . S
H858 C844 0.961 . S
H859 C845 0.958 . S
H860 C845 0.961 . S
H861 C845 0.960 . S
C862 C863 1.391 . S
C862 C864 1.394 . S
C862 H878 0.931 . S
C863 C862 1.391 . S
C863 C867 1.376 . S
C864 C862 1.394 . S
C864 C865 1.369 . S
C864 C868 1.531 . S
C865 C864 1.369 . S
C865 C866 1.410 . S
C865 C873 1.503 . S
C866 C865 1.410 . S
C866 C867 1.392 . S
C866 C869 1.511 . S
C867 C863 1.376 . S
C867 C866 1.392 . S
C867 H879 0.929 . S
C868 C864 1.531 . S
C868 H880 0.960 . S
C868 H881 0.962 . S
C868 H882 0.960 . S
C869 C866 1.511 . S
C869 H883 0.961 . S
C869 H884 0.961 . S
C869 H885 0.961 . S
C870 C871 1.370 . S
C870 C872 1.363 . S
C870 H886 0.931 . S
C871 C870 1.370 . S
C871 C875 1.408 . S
C872 C870 1.363 . S
C872 C873 1.370 . S
C872 C876 1.524 . S
C873 C865 1.503 . S
C873 C872 1.370 . S
C873 C874 1.403 . S
C874 C873 1.403 . S
C874 C875 1.404 . S
C874 C877 1.539 . S
C875 C871 1.408 . S
C875 C874 1.404 . S
C875 H887 0.930 . S
C876 C872 1.524 . S
C876 H888 0.956 . S
C876 H889 0.961 . S
C876 H890 0.961 . S
C877 C874 1.539 . S
C877 H891 0.958 . S
C877 H892 0.961 . S
C877 H893 0.960 . S
H878 C862 0.931 . S
H879 C867 0.929 . S
H880 C868 0.960 . S
H881 C868 0.962 . S
H882 C868 0.960 . S
H883 C869 0.961 . S
H884 C869 0.961 . S
H885 C869 0.961 . S
H886 C870 0.931 . S
H887 C875 0.930 . S
H888 C876 0.956 . S
H889 C876 0.961 . S
H890 C876 0.961 . S
H891 C877 0.958 . S
H892 C877 0.961 . S
H893 C877 0.960 . S
C894 C895 1.391 . S
C894 C896 1.394 . S
C894 H910 0.931 . S
C895 C894 1.391 . S
C895 C899 1.376 . S
C896 C894 1.394 . S
C896 C897 1.369 . S
C896 C900 1.531 . S
C897 C896 1.369 . S
C897 C898 1.410 . S
C897 C905 1.503 . S
C898 C897 1.410 . S
C898 C899 1.392 . S
C898 C901 1.511 . S
C899 C895 1.376 . S
C899 C898 1.392 . S
C899 H911 0.929 . S
C900 C896 1.531 . S
C900 H912 0.960 . S
C900 H913 0.962 . S
C900 H914 0.960 . S
C901 C898 1.511 . S
C901 H915 0.961 . S
C901 H916 0.961 . S
C901 H917 0.961 . S
C902 C903 1.370 . S
C902 C904 1.363 . S
C902 H918 0.931 . S
C903 C902 1.370 . S
C903 C907 1.408 . S
C904 C902 1.363 . S
C904 C905 1.370 . S
C904 C908 1.524 . S
C905 C897 1.503 . S
C905 C904 1.370 . S
C905 C906 1.403 . S
C906 C905 1.403 . S
C906 C907 1.404 . S
C906 C909 1.539 . S
C907 C903 1.408 . S
C907 C906 1.404 . S
C907 H919 0.930 . S
C908 C904 1.524 . S
C908 H920 0.956 . S
C908 H921 0.961 . S
C908 H922 0.961 . S
C909 C906 1.539 . S
C909 H923 0.958 . S
C909 H924 0.961 . S
C909 H925 0.960 . S
H910 C894 0.931 . S
H911 C899 0.929 . S
H912 C900 0.960 . S
H913 C900 0.962 . S
H914 C900 0.960 . S
H915 C901 0.961 . S
H916 C901 0.961 . S
H917 C901 0.961 . S
H918 C902 0.931 . S
H919 C907 0.930 . S
H920 C908 0.956 . S
H921 C908 0.961 . S
H922 C908 0.961 . S
H923 C909 0.958 . S
H924 C909 0.961 . S
H925 C909 0.960 . S
C926 C927 1.391 . S
C926 C928 1.394 . S
C926 H942 0.931 . S
C927 C926 1.391 . S
C927 C931 1.376 . S
C928 C926 1.394 . S
C928 C929 1.369 . S
C928 C932 1.531 . S
C929 C928 1.369 . S
C929 C930 1.410 . S
C929 C937 1.503 . S
C930 C929 1.410 . S
C930 C931 1.392 . S
C930 C933 1.511 . S
C931 C927 1.376 . S
C931 C930 1.392 . S
C931 H943 0.929 . S
C932 C928 1.531 . S
C932 H944 0.960 . S
C932 H945 0.962 . S
C932 H946 0.960 . S
C933 C930 1.511 . S
C933 H947 0.961 . S
C933 H948 0.961 . S
C933 H949 0.961 . S
C934 C935 1.370 . S
C934 C936 1.363 . S
C934 H950 0.931 . S
C935 C934 1.370 . S
C935 C939 1.408 . S
C936 C934 1.363 . S
C936 C937 1.370 . S
C936 C940 1.524 . S
C937 C929 1.503 . S
C937 C936 1.370 . S
C937 C938 1.403 . S
C938 C937 1.403 . S
C938 C939 1.404 . S
C938 C941 1.539 . S
C939 C935 1.408 . S
C939 C938 1.404 . S
C939 H951 0.930 . S
C940 C936 1.524 . S
C940 H952 0.956 . S
C940 H953 0.961 . S
C940 H954 0.961 . S
C941 C938 1.539 . S
C941 H955 0.958 . S
C941 H956 0.961 . S
C941 H957 0.960 . S
H942 C926 0.931 . S
H943 C931 0.929 . S
H944 C932 0.960 . S
H945 C932 0.962 . S
H946 C932 0.960 . S
H947 C933 0.961 . S
H948 C933 0.961 . S
H949 C933 0.961 . S
H950 C934 0.931 . S
H951 C939 0.930 . S
H952 C940 0.956 . S
H953 C940 0.961 . S
H954 C940 0.961 . S
H955 C941 0.958 . S
H956 C941 0.961 . S
H957 C941 0.960 . S
C958 C959 1.391 . S
C958 C960 1.394 . S
C958 H974 0.931 . S
C959 C958 1.391 . S
C959 C963 1.376 . S
C960 C958 1.394 . S
C960 C961 1.369 . S
C960 C964 1.531 . S
C961 C960 1.369 . S
C961 C962 1.410 . S
C961 C969 1.503 . S
C962 C961 1.410 . S
C962 C963 1.392 . S
C962 C965 1.511 . S
C963 C959 1.376 . S
C963 C962 1.392 . S
C963 H975 0.929 . S
C964 C960 1.531 . S
C964 H976 0.960 . S
C964 H977 0.962 . S
C964 H978 0.960 . S
C965 C962 1.511 . S
C965 H979 0.961 . S
C965 H980 0.961 . S
C965 H981 0.961 . S
C966 C967 1.370 . S
C966 C968 1.363 . S
C966 H982 0.931 . S
C967 C966 1.370 . S
C967 C971 1.408 . S
C968 C966 1.363 . S
C968 C969 1.370 . S
C968 C972 1.524 . S
C969 C961 1.503 . S
C969 C968 1.370 . S
C969 C970 1.403 . S
C970 C969 1.403 . S
C970 C971 1.404 . S
C970 C973 1.539 . S
C971 C967 1.408 . S
C971 C970 1.404 . S
C971 H983 0.930 . S
C972 C968 1.524 . S
C972 H984 0.956 . S
C972 H985 0.961 . S
C972 H986 0.961 . S
C973 C970 1.539 . S
C973 H987 0.958 . S
C973 H988 0.961 . S
C973 H989 0.960 . S
H974 C958 0.931 . S
H975 C963 0.929 . S
H976 C964 0.960 . S
H977 C964 0.962 . S
H978 C964 0.960 . S
H979 C965 0.961 . S
H980 C965 0.961 . S
H981 C965 0.961 . S
H982 C966 0.931 . S
H983 C971 0.930 . S
H984 C972 0.956 . S
H985 C972 0.961 . S
H986 C972 0.961 . S
H987 C973 0.958 . S
H988 C973 0.961 . S
H989 C973 0.960 . S
C990 C991 1.391 . S
C990 C992 1.394 . S
C990 H1006 0.931 . S
C991 C990 1.391 . S
C991 C995 1.376 . S
C992 C990 1.394 . S
C992 C993 1.369 . S
C992 C996 1.531 . S
C993 C992 1.369 . S
C993 C994 1.410 . S
C993 C1001 1.503 . S
C994 C993 1.410 . S
C994 C995 1.392 . S
C994 C997 1.511 . S
C995 C991 1.376 . S
C995 C994 1.392 . S
C995 H1007 0.929 . S
C996 C992 1.531 . S
C996 H1008 0.960 . S
C996 H1009 0.962 . S
C996 H1010 0.960 . S
C997 C994 1.511 . S
C997 H1011 0.961 . S
C997 H1012 0.961 . S
C997 H1013 0.961 . S
C998 C999 1.370 . S
C998 C1000 1.363 . S
C998 H1014 0.931 . S
C999 C998 1.370 . S
C999 C1003 1.408 . S
C1000 C998 1.363 . S
C1000 C1001 1.370 . S
C1000 C1004 1.524 . S
C1001 C993 1.503 . S
C1001 C1000 1.370 . S
C1001 C1002 1.403 . S
C1002 C1001 1.403 . S
C1002 C1003 1.404 . S
C1002 C1005 1.539 . S
C1003 C999 1.408 . S
C1003 C1002 1.404 . S
C1003 H1015 0.930 . S
C1004 C1000 1.524 . S
C1004 H1016 0.956 . S
C1004 H1017 0.961 . S
C1004 H1018 0.961 . S
C1005 C1002 1.539 . S
C1005 H1019 0.958 . S
C1005 H1020 0.961 . S
C1005 H1021 0.960 . S
H1006 C990 0.931 . S
H1007 C995 0.929 . S
H1008 C996 0.960 . S
H1009 C996 0.962 . S
H1010 C996 0.960 . S
H1011 C997 0.961 . S
H1012 C997 0.961 . S
H1013 C997 0.961 . S
H1014 C998 0.931 . S
H1015 C1003 0.930 . S
H1016 C1004 0.956 . S
H1017 C1004 0.961 . S
H1018 C1004 0.961 . S
H1019 C1005 0.958 . S
H1020 C1005 0.961 . S
H1021 C1005 0.960 . S
C1022 C1023 1.391 . S
C1022 C1024 1.394 . S
C1022 H1038 0.931 . S
C1023 C1022 1.391 . S
C1023 C1027 1.376 . S
C1024 C1022 1.394 . S
C1024 C1025 1.369 . S
C1024 C1028 1.531 . S
C1025 C1024 1.369 . S
C1025 C1026 1.410 . S
C1025 C1033 1.503 . S
C1026 C1025 1.410 . S
C1026 C1027 1.392 . S
C1026 C1029 1.511 . S
C1027 C1023 1.376 . S
C1027 C1026 1.392 . S
C1027 H1039 0.929 . S
C1028 C1024 1.531 . S
C1028 H1040 0.960 . S
C1028 H1041 0.962 . S
C1028 H1042 0.960 . S
C1029 C1026 1.511 . S
C1029 H1043 0.961 . S
C1029 H1044 0.961 . S
C1029 H1045 0.961 . S
C1030 C1031 1.370 . S
C1030 C1032 1.363 . S
C1030 H1046 0.931 . S
C1031 C1030 1.370 . S
C1031 C1035 1.408 . S
C1032 C1030 1.363 . S
C1032 C1033 1.370 . S
C1032 C1036 1.524 . S
C1033 C1025 1.503 . S
C1033 C1032 1.370 . S
C1033 C1034 1.403 . S
C1034 C1033 1.403 . S
C1034 C1035 1.404 . S
C1034 C1037 1.539 . S
C1035 C1031 1.408 . S
C1035 C1034 1.404 . S
C1035 H1047 0.930 . S
C1036 C1032 1.524 . S
C1036 H1048 0.956 . S
C1036 H1049 0.961 . S
C1036 H1050 0.961 . S
C1037 C1034 1.539 . S
C1037 H1051 0.958 . S
C1037 H1052 0.961 . S
C1037 H1053 0.960 . S
H1038 C1022 0.931 . S
H1039 C1027 0.929 . S
H1040 C1028 0.960 . S
H1041 C1028 0.962 . S
H1042 C1028 0.960 . S
H1043 C1029 0.961 . S
H1044 C1029 0.961 . S
H1045 C1029 0.961 . S
H1046 C1030 0.931 . S
H1047 C1035 0.930 . S
H1048 C1036 0.956 . S
H1049 C1036 0.961 . S
H1050 C1036 0.961 . S
H1051 C1037 0.958 . S
H1052 C1037 0.961 . S
H1053 C1037 0.960 . S
C1054 C1055 1.391 . S
C1054 C1056 1.394 . S
C1054 H1070 0.931 . S
C1055 C1054 1.391 . S
C1055 C1059 1.376 . S
C1056 C1054 1.394 . S
C1056 C1057 1.369 . S
C1056 C1060 1.531 . S
C1057 C1056 1.369 . S
C1057 C1058 1.410 . S
C1057 C1065 1.503 . S
C1058 C1057 1.410 . S
C1058 C1059 1.392 . S
C1058 C1061 1.511 . S
C1059 C1055 1.376 . S
C1059 C1058 1.392 . S
C1059 H1071 0.929 . S
C1060 C1056 1.531 . S
C1060 H1072 0.960 . S
C1060 H1073 0.962 . S
C1060 H1074 0.960 . S
C1061 C1058 1.511 . S
C1061 H1075 0.961 . S
C1061 H1076 0.961 . S
C1061 H1077 0.961 . S
C1062 C1063 1.370 . S
C1062 C1064 1.363 . S
C1062 H1078 0.931 . S
C1063 C1062 1.370 . S
C1063 C1067 1.408 . S
C1064 C1062 1.363 . S
C1064 C1065 1.370 . S
C1064 C1068 1.524 . S
C1065 C1057 1.503 . S
C1065 C1064 1.370 . S
C1065 C1066 1.403 . S
C1066 C1065 1.403 . S
C1066 C1067 1.404 . S
C1066 C1069 1.539 . S
C1067 C1063 1.408 . S
C1067 C1066 1.404 . S
C1067 H1079 0.930 . S
C1068 C1064 1.524 . S
C1068 H1080 0.956 . S
C1068 H1081 0.961 . S
C1068 H1082 0.961 . S
C1069 C1066 1.539 . S
C1069 H1083 0.958 . S
C1069 H1084 0.961 . S
C1069 H1085 0.960 . S
H1070 C1054 0.931 . S
H1071 C1059 0.929 . S
H1072 C1060 0.960 . S
H1073 C1060 0.962 . S
H1074 C1060 0.960 . S
H1075 C1061 0.961 . S
H1076 C1061 0.961 . S
H1077 C1061 0.961 . S
H1078 C1062 0.931 . S
H1079 C1067 0.930 . S
H1080 C1068 0.956 . S
H1081 C1068 0.961 . S
H1082 C1068 0.961 . S
H1083 C1069 0.958 . S
H1084 C1069 0.961 . S
H1085 C1069 0.960 . S
C1086 C1087 1.391 . S
C1086 C1088 1.394 . S
C1086 H1102 0.931 . S
C1087 C1086 1.391 . S
C1087 C1091 1.376 . S
C1088 C1086 1.394 . S
C1088 C1089 1.369 . S
C1088 C1092 1.531 . S
C1089 C1088 1.369 . S
C1089 C1090 1.410 . S
C1089 C1097 1.503 . S
C1090 C1089 1.410 . S
C1090 C1091 1.392 . S
C1090 C1093 1.511 . S
C1091 C1087 1.376 . S
C1091 C1090 1.392 . S
C1091 H1103 0.929 . S
C1092 C1088 1.531 . S
C1092 H1104 0.960 . S
C1092 H1105 0.962 . S
C1092 H1106 0.960 . S
C1093 C1090 1.511 . S
C1093 H1107 0.961 . S
C1093 H1108 0.961 . S
C1093 H1109 0.961 . S
C1094 C1095 1.370 . S
C1094 C1096 1.363 . S
C1094 H1110 0.931 . S
C1095 C1094 1.370 . S
C1095 C1099 1.408 . S
C1096 C1094 1.363 . S
C1096 C1097 1.370 . S
C1096 C1100 1.524 . S
C1097 C1089 1.503 . S
C1097 C1096 1.370 . S
C1097 C1098 1.403 . S
C1098 C1097 1.403 . S
C1098 C1099 1.404 . S
C1098 C1101 1.539 . S
C1099 C1095 1.408 . S
C1099 C1098 1.404 . S
C1099 H1111 0.930 . S
C1100 C1096 1.524 . S
C1100 H1112 0.956 . S
C1100 H1113 0.961 . S
C1100 H1114 0.961 . S
C1101 C1098 1.539 . S
C1101 H1115 0.958 . S
C1101 H1116 0.961 . S
C1101 H1117 0.960 . S
H1102 C1086 0.931 . S
H1103 C1091 0.929 . S
H1104 C1092 0.960 . S
H1105 C1092 0.962 . S
H1106 C1092 0.960 . S
H1107 C1093 0.961 . S
H1108 C1093 0.961 . S
H1109 C1093 0.961 . S
H1110 C1094 0.931 . S
H1111 C1099 0.930 . S
H1112 C1100 0.956 . S
H1113 C1100 0.961 . S
H1114 C1100 0.961 . S
H1115 C1101 0.958 . S
H1116 C1101 0.961 . S
H1117 C1101 0.960 . S
C1118 C1119 1.391 . S
C1118 C1120 1.394 . S
C1118 H1134 0.931 . S
C1119 C1118 1.391 . S
C1119 C1123 1.376 . S
C1120 C1118 1.394 . S
C1120 C1121 1.369 . S
C1120 C1124 1.531 . S
C1121 C1120 1.369 . S
C1121 C1122 1.410 . S
C1121 C1129 1.503 . S
C1122 C1121 1.410 . S
C1122 C1123 1.392 . S
C1122 C1125 1.511 . S
C1123 C1119 1.376 . S
C1123 C1122 1.392 . S
C1123 H1135 0.929 . S
C1124 C1120 1.531 . S
C1124 H1136 0.960 . S
C1124 H1137 0.962 . S
C1124 H1138 0.960 . S
C1125 C1122 1.511 . S
C1125 H1139 0.961 . S
C1125 H1140 0.961 . S
C1125 H1141 0.961 . S
C1126 C1127 1.370 . S
C1126 C1128 1.363 . S
C1126 H1142 0.931 . S
C1127 C1126 1.370 . S
C1127 C1131 1.408 . S
C1128 C1126 1.363 . S
C1128 C1129 1.370 . S
C1128 C1132 1.524 . S
C1129 C1121 1.503 . S
C1129 C1128 1.370 . S
C1129 C1130 1.403 . S
C1130 C1129 1.403 . S
C1130 C1131 1.404 . S
C1130 C1133 1.539 . S
C1131 C1127 1.408 . S
C1131 C1130 1.404 . S
C1131 H1143 0.930 . S
C1132 C1128 1.524 . S
C1132 H1144 0.956 . S
C1132 H1145 0.961 . S
C1132 H1146 0.961 . S
C1133 C1130 1.539 . S
C1133 H1147 0.958 . S
C1133 H1148 0.961 . S
C1133 H1149 0.960 . S
H1134 C1118 0.931 . S
H1135 C1123 0.929 . S
H1136 C1124 0.960 . S
H1137 C1124 0.962 . S
H1138 C1124 0.960 . S
H1139 C1125 0.961 . S
H1140 C1125 0.961 . S
H1141 C1125 0.961 . S
H1142 C1126 0.931 . S
H1143 C1131 0.930 . S
H1144 C1132 0.956 . S
H1145 C1132 0.961 . S
H1146 C1132 0.961 . S
H1147 C1133 0.958 . S
H1148 C1133 0.961 . S
H1149 C1133 0.960 . S
C1150 C1151 1.391 . S
C1150 C1152 1.394 . S
C1150 H1166 0.931 . S
C1151 C1150 1.391 . S
C1151 C1155 1.376 . S
C1152 C1150 1.394 . S
C1152 C1153 1.369 . S
C1152 C1156 1.531 . S
C1153 C1152 1.369 . S
C1153 C1154 1.410 . S
C1153 C1161 1.503 . S
C1154 C1153 1.410 . S
C1154 C1155 1.392 . S
C1154 C1157 1.511 . S
C1155 C1151 1.376 . S
C1155 C1154 1.392 . S
C1155 H1167 0.929 . S
C1156 C1152 1.531 . S
C1156 H1168 0.960 . S
C1156 H1169 0.962 . S
C1156 H1170 0.960 . S
C1157 C1154 1.511 . S
C1157 H1171 0.961 . S
C1157 H1172 0.961 . S
C1157 H1173 0.961 . S
C1158 C1159 1.370 . S
C1158 C1160 1.363 . S
C1158 H1174 0.931 . S
C1159 C1158 1.370 . S
C1159 C1163 1.408 . S
C1160 C1158 1.363 . S
C1160 C1161 1.370 . S
C1160 C1164 1.524 . S
C1161 C1153 1.503 . S
C1161 C1160 1.370 . S
C1161 C1162 1.403 . S
C1162 C1161 1.403 . S
C1162 C1163 1.404 . S
C1162 C1165 1.539 . S
C1163 C1159 1.408 . S
C1163 C1162 1.404 . S
C1163 H1175 0.930 . S
C1164 C1160 1.524 . S
C1164 H1176 0.956 . S
C1164 H1177 0.961 . S
C1164 H1178 0.961 . S
C1165 C1162 1.539 . S
C1165 H1179 0.958 . S
C1165 H1180 0.961 . S
C1165 H1181 0.960 . S
H1166 C1150 0.931 . S
H1167 C1155 0.929 . S
H1168 C1156 0.960 . S
H1169 C1156 0.962 . S
H1170 C1156 0.960 . S
H1171 C1157 0.961 . S
H1172 C1157 0.961 . S
H1173 C1157 0.961 . S
H1174 C1158 0.931 . S
H1175 C1163 0.930 . S
H1176 C1164 0.956 . S
H1177 C1164 0.961 . S
H1178 C1164 0.961 . S
H1179 C1165 0.958 . S
H1180 C1165 0.961 . S
H1181 C1165 0.960 . S
C1182 C1183 1.391 . S
C1182 C1184 1.394 . S
C1182 H1198 0.931 . S
C1183 C1182 1.391 . S
C1183 C1187 1.376 . S
C1184 C1182 1.394 . S
C1184 C1185 1.369 . S
C1184 C1188 1.531 . S
C1185 C1184 1.369 . S
C1185 C1186 1.410 . S
C1185 C1193 1.503 . S
C1186 C1185 1.410 . S
C1186 C1187 1.392 . S
C1186 C1189 1.511 . S
C1187 C1183 1.376 . S
C1187 C1186 1.392 . S
C1187 H1199 0.929 . S
C1188 C1184 1.531 . S
C1188 H1200 0.960 . S
C1188 H1201 0.962 . S
C1188 H1202 0.960 . S
C1189 C1186 1.511 . S
C1189 H1203 0.961 . S
C1189 H1204 0.961 . S
C1189 H1205 0.961 . S
C1190 C1191 1.370 . S
C1190 C1192 1.363 . S
C1190 H1206 0.931 . S
C1191 C1190 1.370 . S
C1191 C1195 1.408 . S
C1192 C1190 1.363 . S
C1192 C1193 1.370 . S
C1192 C1196 1.524 . S
C1193 C1185 1.503 . S
C1193 C1192 1.370 . S
C1193 C1194 1.403 . S
C1194 C1193 1.403 . S
C1194 C1195 1.404 . S
C1194 C1197 1.539 . S
C1195 C1191 1.408 . S
C1195 C1194 1.404 . S
C1195 H1207 0.930 . S
C1196 C1192 1.524 . S
C1196 H1208 0.956 . S
C1196 H1209 0.961 . S
C1196 H1210 0.961 . S
C1197 C1194 1.539 . S
C1197 H1211 0.958 . S
C1197 H1212 0.961 . S
C1197 H1213 0.960 . S
H1198 C1182 0.931 . S
H1199 C1187 0.929 . S
H1200 C1188 0.960 . S
H1201 C1188 0.962 . S
H1202 C1188 0.960 . S
H1203 C1189 0.961 . S
H1204 C1189 0.961 . S
H1205 C1189 0.961 . S
H1206 C1190 0.931 . S
H1207 C1195 0.930 . S
H1208 C1196 0.956 . S
H1209 C1196 0.961 . S
H1210 C1196 0.961 . S
H1211 C1197 0.958 . S
H1212 C1197 0.961 . S
H1213 C1197 0.960 . S
C1214 C1215 1.391 . S
C1214 C1216 1.394 . S
C1214 H1230 0.931 . S
C1215 C1214 1.391 . S
C1215 C1219 1.376 . S
C1216 C1214 1.394 . S
C1216 C1217 1.369 . S
C1216 C1220 1.531 . S
C1217 C1216 1.369 . S
C1217 C1218 1.410 . S
C1217 C1225 1.503 . S
C1218 C1217 1.410 . S
C1218 C1219 1.392 . S
C1218 C1221 1.511 . S
C1219 C1215 1.376 . S
C1219 C1218 1.392 . S
C1219 H1231 0.929 . S
C1220 C1216 1.531 . S
C1220 H1232 0.960 . S
C1220 H1233 0.962 . S
C1220 H1234 0.960 . S
C1221 C1218 1.511 . S
C1221 H1235 0.961 . S
C1221 H1236 0.961 . S
C1221 H1237 0.961 . S
C1222 C1223 1.370 . S
C1222 C1224 1.363 . S
C1222 H1238 0.931 . S
C1223 C1222 1.370 . S
C1223 C1227 1.408 . S
C1224 C1222 1.363 . S
C1224 C1225 1.370 . S
C1224 C1228 1.524 . S
C1225 C1217 1.503 . S
C1225 C1224 1.370 . S
C1225 C1226 1.403 . S
C1226 C1225 1.403 . S
C1226 C1227 1.404 . S
C1226 C1229 1.539 . S
C1227 C1223 1.408 . S
C1227 C1226 1.404 . S
C1227 H1239 0.930 . S
C1228 C1224 1.524 . S
C1228 H1240 0.956 . S
C1228 H1241 0.961 . S
C1228 H1242 0.961 . S
C1229 C1226 1.539 . S
C1229 H1243 0.958 . S
C1229 H1244 0.961 . S
C1229 H1245 0.960 . S
H1230 C1214 0.931 . S
H1231 C1219 0.929 . S
H1232 C1220 0.960 . S
H1233 C1220 0.962 . S
H1234 C1220 0.960 . S
H1235 C1221 0.961 . S
H1236 C1221 0.961 . S
H1237 C1221 0.961 . S
H1238 C1222 0.931 . S
H1239 C1227 0.930 . S
H1240 C1228 0.956 . S
H1241 C1228 0.961 . S
H1242 C1228 0.961 . S
H1243 C1229 0.958 . S
H1244 C1229 0.961 . S
H1245 C1229 0.960 . S
C1246 C1247 1.391 . S
C1246 C1248 1.394 . S
C1246 H1262 0.931 . S
C1247 C1246 1.391 . S
C1247 C1251 1.376 . S
C1248 C1246 1.394 . S
C1248 C1249 1.369 . S
C1248 C1252 1.531 . S
C1249 C1248 1.369 . S
C1249 C1250 1.410 . S
C1249 C1257 1.503 . S
C1250 C1249 1.410 . S
C1250 C1251 1.392 . S
C1250 C1253 1.511 . S
C1251 C1247 1.376 . S
C1251 C1250 1.392 . S
C1251 H1263 0.929 . S
C1252 C1248 1.531 . S
C1252 H1264 0.960 . S
C1252 H1265 0.962 . S
C1252 H1266 0.960 . S
C1253 C1250 1.511 . S
C1253 H1267 0.961 . S
C1253 H1268 0.961 . S
C1253 H1269 0.961 . S
C1254 C1255 1.370 . S
C1254 C1256 1.363 . S
C1254 H1270 0.931 . S
C1255 C1254 1.370 . S
C1255 C1259 1.408 . S
C1256 C1254 1.363 . S
C1256 C1257 1.370 . S
C1256 C1260 1.524 . S
C1257 C1249 1.503 . S
C1257 C1256 1.370 . S
C1257 C1258 1.403 . S
C1258 C1257 1.403 . S
C1258 C1259 1.404 . S
C1258 C1261 1.539 . S
C1259 C1255 1.408 . S
C1259 C1258 1.404 . S
C1259 H1271 0.930 . S
C1260 C1256 1.524 . S
C1260 H1272 0.956 . S
C1260 H1273 0.961 . S
C1260 H1274 0.961 . S
C1261 C1258 1.539 . S
C1261 H1275 0.958 . S
C1261 H1276 0.961 . S
C1261 H1277 0.960 . S
H1262 C1246 0.931 . S
H1263 C1251 0.929 . S
H1264 C1252 0.960 . S
H1265 C1252 0.962 . S
H1266 C1252 0.960 . S
H1267 C1253 0.961 . S
H1268 C1253 0.961 . S
H1269 C1253 0.961 . S
H1270 C1254 0.931 . S
H1271 C1259 0.930 . S
H1272 C1260 0.956 . S
H1273 C1260 0.961 . S
H1274 C1260 0.961 . S
H1275 C1261 0.958 . S
H1276 C1261 0.961 . S
H1277 C1261 0.960 . S
C1278 C1279 1.391 . S
C1278 C1280 1.394 . S
C1278 H1294 0.931 . S
C1279 C1278 1.391 . S
C1279 C1283 1.376 . S
C1280 C1278 1.394 . S
C1280 C1281 1.369 . S
C1280 C1284 1.531 . S
C1281 C1280 1.369 . S
C1281 C1282 1.410 . S
C1281 C1289 1.503 . S
C1282 C1281 1.410 . S
C1282 C1283 1.392 . S
C1282 C1285 1.511 . S
C1283 C1279 1.376 . S
C1283 C1282 1.392 . S
C1283 H1295 0.929 . S
C1284 C1280 1.531 . S
C1284 H1296 0.960 . S
C1284 H1297 0.962 . S
C1284 H1298 0.960 . S
C1285 C1282 1.511 . S
C1285 H1299 0.961 . S
C1285 H1300 0.961 . S
C1285 H1301 0.961 . S
C1286 C1287 1.370 . S
C1286 C1288 1.363 . S
C1286 H1302 0.931 . S
C1287 C1286 1.370 . S
C1287 C1291 1.408 . S
C1288 C1286 1.363 . S
C1288 C1289 1.370 . S
C1288 C1292 1.524 . S
C1289 C1281 1.503 . S
C1289 C1288 1.370 . S
C1289 C1290 1.403 . S
C1290 C1289 1.403 . S
C1290 C1291 1.404 . S
C1290 C1293 1.539 . S
C1291 C1287 1.408 . S
C1291 C1290 1.404 . S
C1291 H1303 0.930 . S
C1292 C1288 1.524 . S
C1292 H1304 0.956 . S
C1292 H1305 0.961 . S
C1292 H1306 0.961 . S
C1293 C1290 1.539 . S
C1293 H1307 0.958 . S
C1293 H1308 0.961 . S
C1293 H1309 0.960 . S
H1294 C1278 0.931 . S
H1295 C1283 0.929 . S
H1296 C1284 0.960 . S
H1297 C1284 0.962 . S
H1298 C1284 0.960 . S
H1299 C1285 0.961 . S
H1300 C1285 0.961 . S
H1301 C1285 0.961 . S
H1302 C1286 0.931 . S
H1303 C1291 0.930 . S
H1304 C1292 0.956 . S
H1305 C1292 0.961 . S
H1306 C1292 0.961 . S
H1307 C1293 0.958 . S
H1308 C1293 0.961 . S
H1309 C1293 0.960 . S
C1310 C1311 1.391 . S
C1310 C1312 1.394 . S
C1310 H1326 0.931 . S
C1311 C1310 1.391 . S
C1311 C1315 1.376 . S
C1312 C1310 1.394 . S
C1312 C1313 1.369 . S
C1312 C1316 1.531 . S
C1313 C1312 1.369 . S
C1313 C1314 1.410 . S
C1313 C1321 1.503 . S
C1314 C1313 1.410 . S
C1314 C1315 1.392 . S
C1314 C1317 1.511 . S
C1315 C1311 1.376 . S
C1315 C1314 1.392 . S
C1315 H1327 0.929 . S
C1316 C1312 1.531 . S
C1316 H1328 0.960 . S
C1316 H1329 0.962 . S
C1316 H1330 0.960 . S
C1317 C1314 1.511 . S
C1317 H1331 0.961 . S
C1317 H1332 0.961 . S
C1317 H1333 0.961 . S
C1318 C1319 1.370 . S
C1318 C1320 1.363 . S
C1318 H1334 0.931 . S
C1319 C1318 1.370 . S
C1319 C1323 1.408 . S
C1320 C1318 1.363 . S
C1320 C1321 1.370 . S
C1320 C1324 1.524 . S
C1321 C1313 1.503 . S
C1321 C1320 1.370 . S
C1321 C1322 1.403 . S
C1322 C1321 1.403 . S
C1322 C1323 1.404 . S
C1322 C1325 1.539 . S
C1323 C1319 1.408 . S
C1323 C1322 1.404 . S
C1323 H1335 0.930 . S
C1324 C1320 1.524 . S
C1324 H1336 0.956 . S
C1324 H1337 0.961 . S
C1324 H1338 0.961 . S
C1325 C1322 1.539 . S
C1325 H1339 0.958 . S
C1325 H1340 0.961 . S
C1325 H1341 0.960 . S
H1326 C1310 0.931 . S
H1327 C1315 0.929 . S
H1328 C1316 0.960 . S
H1329 C1316 0.962 . S
H1330 C1316 0.960 . S
H1331 C1317 0.961 . S
H1332 C1317 0.961 . S
H1333 C1317 0.961 . S
H1334 C1318 0.931 . S
H1335 C1323 0.930 . S
H1336 C1324 0.956 . S
H1337 C1324 0.961 . S
H1338 C1324 0.961 . S
H1339 C1325 0.958 . S
H1340 C1325 0.961 . S
H1341 C1325 0.960 . S
C1342 C1343 1.391 . S
C1342 C1344 1.394 . S
C1342 H1358 0.931 . S
C1343 C1342 1.391 . S
C1343 C1347 1.376 . S
C1344 C1342 1.394 . S
C1344 C1345 1.369 . S
C1344 C1348 1.531 . S
C1345 C1344 1.369 . S
C1345 C1346 1.410 . S
C1345 C1353 1.503 . S
C1346 C1345 1.410 . S
C1346 C1347 1.392 . S
C1346 C1349 1.511 . S
C1347 C1343 1.376 . S
C1347 C1346 1.392 . S
C1347 H1359 0.929 . S
C1348 C1344 1.531 . S
C1348 H1360 0.960 . S
C1348 H1361 0.962 . S
C1348 H1362 0.960 . S
C1349 C1346 1.511 . S
C1349 H1363 0.961 . S
C1349 H1364 0.961 . S
C1349 H1365 0.961 . S
C1350 C1351 1.370 . S
C1350 C1352 1.363 . S
C1350 H1366 0.931 . S
C1351 C1350 1.370 . S
C1351 C1355 1.408 . S
C1352 C1350 1.363 . S
C1352 C1353 1.370 . S
C1352 C1356 1.524 . S
C1353 C1345 1.503 . S
C1353 C1352 1.370 . S
C1353 C1354 1.403 . S
C1354 C1353 1.403 . S
C1354 C1355 1.404 . S
C1354 C1357 1.539 . S
C1355 C1351 1.408 . S
C1355 C1354 1.404 . S
C1355 H1367 0.930 . S
C1356 C1352 1.524 . S
C1356 H1368 0.956 . S
C1356 H1369 0.961 . S
C1356 H1370 0.961 . S
C1357 C1354 1.539 . S
C1357 H1371 0.958 . S
C1357 H1372 0.961 . S
C1357 H1373 0.960 . S
H1358 C1342 0.931 . S
H1359 C1347 0.929 . S
H1360 C1348 0.960 . S
H1361 C1348 0.962 . S
H1362 C1348 0.960 . S
H1363 C1349 0.961 . S
H1364 C1349 0.961 . S
H1365 C1349 0.961 . S
H1366 C1350 0.931 . S
H1367 C1355 0.930 . S
H1368 C1356 0.956 . S
H1369 C1356 0.961 . S
H1370 C1356 0.961 . S
H1371 C1357 0.958 . S
H1372 C1357 0.961 . S
H1373 C1357 0.960 . S
C1374 C1375 1.391 . S
C1374 C1376 1.394 . S
C1374 H1390 0.931 . S
C1375 C1374 1.391 . S
C1375 C1379 1.376 . S
C1376 C1374 1.394 . S
C1376 C1377 1.369 . S
C1376 C1380 1.531 . S
C1377 C1376 1.369 . S
C1377 C1378 1.410 . S
C1377 C1385 1.503 . S
C1378 C1377 1.410 . S
C1378 C1379 1.392 . S
C1378 C1381 1.511 . S
C1379 C1375 1.376 . S
C1379 C1378 1.392 . S
C1379 H1391 0.929 . S
C1380 C1376 1.531 . S
C1380 H1392 0.960 . S
C1380 H1393 0.962 . S
C1380 H1394 0.960 . S
C1381 C1378 1.511 . S
C1381 H1395 0.961 . S
C1381 H1396 0.961 . S
C1381 H1397 0.961 . S
C1382 C1383 1.370 . S
C1382 C1384 1.363 . S
C1382 H1398 0.931 . S
C1383 C1382 1.370 . S
C1383 C1387 1.408 . S
C1384 C1382 1.363 . S
C1384 C1385 1.370 . S
C1384 C1388 1.524 . S
C1385 C1377 1.503 . S
C1385 C1384 1.370 . S
C1385 C1386 1.403 . S
C1386 C1385 1.403 . S
C1386 C1387 1.404 . S
C1386 C1389 1.539 . S
C1387 C1383 1.408 . S
C1387 C1386 1.404 . S
C1387 H1399 0.930 . S
C1388 C1384 1.524 . S
C1388 H1400 0.956 . S
C1388 H1401 0.961 . S
C1388 H1402 0.961 . S
C1389 C1386 1.539 . S
C1389 H1403 0.958 . S
C1389 H1404 0.961 . S
C1389 H1405 0.960 . S
H1390 C1374 0.931 . S
H1391 C1379 0.929 . S
H1392 C1380 0.960 . S
H1393 C1380 0.962 . S
H1394 C1380 0.960 . S
H1395 C1381 0.961 . S
H1396 C1381 0.961 . S
H1397 C1381 0.961 . S
H1398 C1382 0.931 . S
H1399 C1387 0.930 . S
H1400 C1388 0.956 . S
H1401 C1388 0.961 . S
H1402 C1388 0.961 . S
H1403 C1389 0.958 . S
H1404 C1389 0.961 . S
H1405 C1389 0.960 . S
C647 C342 1.532 . S
C639 C15 1.537 . S
C679 C411 1.531 . S
C671 C55 1.534 . S
C711 C349 1.566 . S
C703 C101 1.533 . S
C743 C412 1.576 . S
C735 C141 1.568 . S
C775 C465 1.516 . S
C767 C2 1.499 . S
C807 C501 1.517 . S
C799 C61 1.509 . S
C831 C95 1.601 . S
C839 C561 1.594 . S
C871 C624 1.517 . S
C863 C135 1.512 . S
C903 C464 1.505 . S
C895 C42 1.476 . S
C927 C82 1.494 . S
C935 C508 1.535 . S
C967 C554 1.588 . S
C959 C122 1.589 . S
C999 C623 1.531 . S
C991 C21 1.527 . S
C1023 C162 1.582 . S
C1031 C402 1.576 . S
C1063 C359 1.555 . S
C1055 C221 1.559 . S
C1087 C255 1.540 . S
C1095 C395 1.543 . S
C1119 C282 1.524 . S
C1127 C358 1.525 . S
C1159 C570 1.605 . S
C1151 C181 1.607 . S
C1191 C614 1.524 . S
C1183 C202 1.525 . S
C1223 C448 1.513 . S
C1215 C242 1.511 . S
C1247 C301 1.497 . S
C1255 C517 1.524 . S
C1287 C571 1.590 . S
C1279 C215 1.584 . S
C1319 C607 1.524 . S
C1311 C261 1.511 . S
C1351 C455 1.511 . S
C1343 C295 1.505 . S
C1375 C175 1.520 . S
C1383 C518 1.523 . S
