# Generated by pormake.
# Topology ssb, (4,4)-cn, num edge types: 1
# Building blocks:
#     Node 0, Type 0, BuildingBlock: NAWXER_clean_sbu_0, # of connection points: 4
#     Node 1, Type 0, BuildingBlock: NAWXER_clean_sbu_0, # of connection points: 4
#     Node 2, Type 0, BuildingBlock: NAWXER_clean_sbu_0, # of connection points: 4
#     Node 3, Type 0, BuildingBlock: NAWXER_clean_sbu_0, # of connection points: 4
#     Node 4, Type 0, BuildingBlock: NAWXER_clean_sbu_0, # of connection points: 4
#     Node 5, Type 0, BuildingBlock: NAWXER_clean_sbu_0, # of connection points: 4
#     Node 6, Type 0, BuildingBlock: NAWXER_clean_sbu_0, # of connection points: 4
#     Node 7, Type 0, BuildingBlock: NAWXER_clean_sbu_0, # of connection points: 4
#     Node 8, Type 1, BuildingBlock: KOZSID_clean_sbu_0, # of connection points: 4
#     Node 9, Type 1, BuildingBlock: KOZSID_clean_sbu_0, # of connection points: 4
#     Node 10, Type 1, BuildingBlock: KOZSID_clean_sbu_0, # of connection points: 4
#     Node 11, Type 1, BuildingBlock: KOZSID_clean_sbu_0, # of connection points: 4
#     Node 12, Type 1, BuildingBlock: KOZSID_clean_sbu_0, # of connection points: 4
#     Node 13, Type 1, BuildingBlock: KOZSID_clean_sbu_0, # of connection points: 4
#     Node 14, Type 1, BuildingBlock: KOZSID_clean_sbu_0, # of connection points: 4
#     Node 15, Type 1, BuildingBlock: KOZSID_clean_sbu_0, # of connection points: 4
#     Edge 16, Type (0, 1), BuildingBlock: XUDNAN_clean_linker_2, # of connection points: 2
#     Edge 17, Type (0, 1), BuildingBlock: XUDNAN_clean_linker_2, # of connection points: 2
#     Edge 18, Type (0, 1), BuildingBlock: XUDNAN_clean_linker_2, # of connection points: 2
#     Edge 19, Type (0, 1), BuildingBlock: XUDNAN_clean_linker_2, # of connection points: 2
#     Edge 20, Type (0, 1), BuildingBlock: XUDNAN_clean_linker_2, # of connection points: 2
#     Edge 21, Type (0, 1), BuildingBlock: XUDNAN_clean_linker_2, # of connection points: 2
#     Edge 22, Type (0, 1), BuildingBlock: XUDNAN_clean_linker_2, # of connection points: 2
#     Edge 23, Type (0, 1), BuildingBlock: XUDNAN_clean_linker_2, # of connection points: 2
#     Edge 24, Type (0, 1), BuildingBlock: XUDNAN_clean_linker_2, # of connection points: 2
#     Edge 25, Type (0, 1), BuildingBlock: XUDNAN_clean_linker_2, # of connection points: 2
#     Edge 26, Type (0, 1), BuildingBlock: XUDNAN_clean_linker_2, # of connection points: 2
#     Edge 27, Type (0, 1), BuildingBlock: XUDNAN_clean_linker_2, # of connection points: 2
#     Edge 28, Type (0, 1), BuildingBlock: XUDNAN_clean_linker_2, # of connection points: 2
#     Edge 29, Type (0, 1), BuildingBlock: XUDNAN_clean_linker_2, # of connection points: 2
#     Edge 30, Type (0, 1), BuildingBlock: XUDNAN_clean_linker_2, # of connection points: 2
#     Edge 31, Type (0, 1), BuildingBlock: XUDNAN_clean_linker_2, # of connection points: 2
#     Edge 32, Type (0, 1), BuildingBlock: XUDNAN_clean_linker_2, # of connection points: 2
#     Edge 33, Type (0, 1), BuildingBlock: XUDNAN_clean_linker_2, # of connection points: 2
#     Edge 34, Type (0, 1), BuildingBlock: XUDNAN_clean_linker_2, # of connection points: 2
#     Edge 35, Type (0, 1), BuildingBlock: XUDNAN_clean_linker_2, # of connection points: 2
#     Edge 36, Type (0, 1), BuildingBlock: XUDNAN_clean_linker_2, # of connection points: 2
#     Edge 37, Type (0, 1), BuildingBlock: XUDNAN_clean_linker_2, # of connection points: 2
#     Edge 38, Type (0, 1), BuildingBlock: XUDNAN_clean_linker_2, # of connection points: 2
#     Edge 39, Type (0, 1), BuildingBlock: XUDNAN_clean_linker_2, # of connection points: 2
#     Edge 40, Type (0, 1), BuildingBlock: XUDNAN_clean_linker_2, # of connection points: 2
#     Edge 41, Type (0, 1), BuildingBlock: XUDNAN_clean_linker_2, # of connection points: 2
#     Edge 42, Type (0, 1), BuildingBlock: XUDNAN_clean_linker_2, # of connection points: 2
#     Edge 43, Type (0, 1), BuildingBlock: XUDNAN_clean_linker_2, # of connection points: 2
#     Edge 44, Type (0, 1), BuildingBlock: XUDNAN_clean_linker_2, # of connection points: 2
#     Edge 45, Type (0, 1), BuildingBlock: XUDNAN_clean_linker_2, # of connection points: 2
#     Edge 46, Type (0, 1), BuildingBlock: XUDNAN_clean_linker_2, # of connection points: 2
#     Edge 47, Type (0, 1), BuildingBlock: XUDNAN_clean_linker_2, # of connection points: 2
# Relax obj value: 0.005
# Max RMSD: 0.029
# Mean RMSD: 0.017
data_MOF--net-ssb--node1-NAWXER_clean_sbu_0--node2-KOZSID_clean_sbu_0--edge1-XUDNAN_clean_linker_2
_symmetry_space_group_name_H-M    P1
_symmetry_Int_Tables_number       1
_symmetry_cell_setting            triclinic
loop_
_symmetry_equiv_pos_as_xyz
'x, y, z'
_cell_length_a     52.901687
_cell_length_b     52.708772
_cell_length_c     38.635308
_cell_angle_alpha  92.487782
_cell_angle_beta   94.877878
_cell_angle_gamma 90.006737
loop_
_atom_site_label
_atom_site_type_symbol
_atom_site_fract_x
_atom_site_fract_y
_atom_site_fract_z
_atom_type_partial_charge
C0 C 0.22011 0.27349 0.32083 0.0
C1 C 0.30623 0.2666 0.27815 0.0
O2 O 0.22213 0.25856 0.29415 0.0
Zn3 Zn 0.2495 0.24453 0.26083 0.0
O4 O 0.23959 0.28595 0.33375 0.0
Zn5 Zn 0.26392 0.27204 0.30115 0.0
O6 O 0.2523 0.28914 0.25255 0.0
O7 O 0.23729 0.25897 0.21535 0.0
O8 O 0.3005 0.28035 0.30433 0.0
O9 O 0.28897 0.25286 0.26128 0.0
O10 O 0.24983 0.20752 0.27291 0.0
O11 O 0.26469 0.23322 0.31615 0.0
C12 C 0.24281 0.28239 0.22187 0.0
C13 C 0.25891 0.21061 0.30453 0.0
C14 C 0.7403 0.24738 0.2282 0.0
C15 C 0.82054 0.2543 0.30357 0.0
O16 O 0.7387 0.26137 0.25591 0.0
Zn17 Zn 0.76271 0.27472 0.30076 0.0
O18 O 0.76143 0.23708 0.22272 0.0
Zn19 Zn 0.78083 0.25028 0.26505 0.0
O20 O 0.76323 0.23172 0.30486 0.0
O21 O 0.74575 0.26077 0.33805 0.0
O22 O 0.81642 0.24184 0.27467 0.0
O23 O 0.80233 0.26702 0.3158 0.0
O24 O 0.76198 0.31112 0.29494 0.0
O25 O 0.78284 0.28972 0.25603 0.0
C26 C 0.75048 0.23758 0.33081 0.0
C27 C 0.77493 0.31083 0.26868 0.0
C28 C 0.74539 0.72498 0.23924 0.0
C29 C 0.73442 0.80561 0.30951 0.0
O30 O 0.73513 0.7282 0.26776 0.0
Zn31 Zn 0.73865 0.76515 0.27304 0.0
O32 O 0.75418 0.74454 0.2254 0.0
Zn33 Zn 0.7569 0.78572 0.23773 0.0
O34 O 0.79314 0.79053 0.24153 0.0
O35 O 0.77956 0.76876 0.28378 0.0
O36 O 0.74597 0.80943 0.28222 0.0
O37 O 0.72625 0.78334 0.31357 0.0
O38 O 0.714 0.77648 0.22829 0.0
O39 O 0.73821 0.79899 0.19757 0.0
C40 C 0.7979 0.77889 0.26944 0.0
C41 C 0.71674 0.78917 0.20119 0.0
C42 C 0.27073 0.68953 0.24692 0.0
C43 C 0.2863 0.77262 0.30533 0.0
O44 O 0.26234 0.70824 0.22918 0.0
Zn45 Zn 0.26042 0.74885 0.23329 0.0
O46 O 0.28207 0.69372 0.27705 0.0
Zn47 Zn 0.27899 0.73042 0.27771 0.0
O48 O 0.23923 0.73426 0.27846 0.0
O49 O 0.22336 0.75484 0.2331 0.0
O50 O 0.29165 0.7513 0.3182 0.0
O51 O 0.2752 0.77367 0.2747 0.0
O52 O 0.28115 0.75842 0.1956 0.0
O53 O 0.30319 0.74008 0.2386 0.0
C54 C 0.22016 0.74371 0.26103 0.0
C55 C 0.30233 0.75033 0.20902 0.0
C56 C 0.29831 0.765 0.76448 0.0
C57 C 0.22192 0.74292 0.68639 0.0
O58 O 0.2774 0.7741 0.77394 0.0
Zn59 Zn 0.23799 0.7746 0.75758 0.0
O60 O 0.29817 0.75198 0.73589 0.0
Zn61 Zn 0.26111 0.75363 0.72419 0.0
O62 O 0.25582 0.79346 0.71088 0.0
O63 O 0.23214 0.81086 0.74942 0.0
O64 O 0.2446 0.73605 0.68241 0.0
O65 O 0.21753 0.75687 0.71317 0.0
O66 O 0.22451 0.75736 0.79637 0.0
O67 O 0.24819 0.73174 0.76655 0.0
C68 C 0.24431 0.8131 0.72262 0.0
C69 C 0.23462 0.73558 0.79235 0.0
C70 C 0.28558 0.23994 0.72018 0.0
C71 C 0.26526 0.30646 0.80562 0.0
O72 O 0.27818 0.23182 0.74844 0.0
Zn73 Zn 0.26603 0.24584 0.79675 0.0
O74 O 0.28811 0.26371 0.71668 0.0
Zn75 Zn 0.27737 0.27427 0.76209 0.0
O76 O 0.30739 0.26081 0.79716 0.0
O77 O 0.29203 0.23315 0.83122 0.0
O78 O 0.27439 0.31005 0.77678 0.0
O79 O 0.26176 0.28378 0.81478 0.0
O80 O 0.23042 0.23416 0.7918 0.0
O81 O 0.23865 0.26263 0.75407 0.0
C82 C 0.31084 0.24561 0.82215 0.0
C83 C 0.22298 0.2475 0.76611 0.0
C84 C 0.74056 0.2283 0.73465 0.0
C85 C 0.75458 0.30855 0.80803 0.0
O86 O 0.73197 0.25042 0.72881 0.0
Zn87 Zn 0.74706 0.26844 0.7712 0.0
O88 O 0.75383 0.22498 0.76352 0.0
Zn89 Zn 0.76785 0.24845 0.80932 0.0
O90 O 0.75134 0.23334 0.84623 0.0
O91 O 0.72473 0.25452 0.81146 0.0
O92 O 0.76458 0.28911 0.82274 0.0
O93 O 0.74328 0.30533 0.77773 0.0
O94 O 0.78717 0.26415 0.7634 0.0
O95 O 0.80405 0.24361 0.808 0.0
C96 C 0.72899 0.24133 0.83854 0.0
C97 C 0.80662 0.25396 0.77939 0.0
C98 C 0.79813 0.75184 0.70589 0.0
C99 C 0.71371 0.75578 0.75324 0.0
O100 O 0.77721 0.74502 0.6893 0.0
Zn101 Zn 0.75496 0.75196 0.7274 0.0
O102 O 0.79822 0.75915 0.73796 0.0
Zn103 Zn 0.77298 0.7654 0.77751 0.0
O104 O 0.7828 0.74024 0.81172 0.0
O105 O 0.76426 0.72333 0.76283 0.0
O106 O 0.73253 0.76249 0.77474 0.0
O107 O 0.71775 0.74814 0.7224 0.0
O108 O 0.75852 0.79196 0.73566 0.0
O109 O 0.77781 0.80177 0.78759 0.0
C110 C 0.77423 0.72078 0.79383 0.0
C111 C 0.7672 0.80868 0.75869 0.0
C112 C 0.05425 0.27619 0.60199 0.0
C113 C 0.06128 0.29847 0.62089 0.0
C114 C 0.04369 0.31642 0.6111 0.0
C115 C 0.02692 0.30419 0.58692 0.0
N116 N 0.03295 0.27971 0.58052 0.0
Co117 Co 0.01297 0.25524 0.54819 0.0
N118 N 0.99327 0.28293 0.52502 0.0
C119 C 0.9919 0.30713 0.53735 0.0
C120 C 0.97689 0.3221 0.51593 0.0
C121 C 0.968 0.30631 0.48849 0.0
C122 C 0.97798 0.28244 0.49487 0.0
N123 N 0.99283 0.2307 0.51618 0.0
C124 C 0.97747 0.2346 0.48695 0.0
C125 C 0.96618 0.21202 0.47362 0.0
C126 C 0.97473 0.19344 0.49524 0.0
C127 C 0.99061 0.20561 0.52055 0.0
N128 N 0.03255 0.22744 0.57124 0.0
C129 C 0.02643 0.20258 0.56865 0.0
C130 C 0.0436 0.18762 0.58681 0.0
C131 C 0.06155 0.20408 0.60226 0.0
C132 C 0.05412 0.22831 0.59295 0.0
N133 N 0.98729 0.25313 0.58216 0.0
C134 C 0.95097 0.25054 0.6315 0.0
C135 C 0.97711 0.25043 0.64161 0.0
C136 C 0.99477 0.25151 0.61676 0.0
C137 C 0.94353 0.25222 0.59589 0.0
C138 C 0.96188 0.25358 0.57179 0.0
N139 N 0.03877 0.25753 0.5145 0.0
C140 C 0.06518 0.23741 0.47339 0.0
C141 C 0.07621 0.26079 0.4671 0.0
C142 C 0.06819 0.28248 0.48524 0.0
C143 C 0.04929 0.2805 0.5084 0.0
C144 C 0.04679 0.23615 0.49735 0.0
H145 H 0.04314 0.29767 0.52123 0.0
H146 H 0.039 0.21782 0.50191 0.0
H147 H 0.01457 0.25111 0.62578 0.0
H148 H 0.95541 0.2549 0.54473 0.0
C149 C 0.00738 0.31571 0.56665 0.0
C150 C 0.06663 0.25163 0.60803 0.0
C151 C 0.97114 0.25949 0.47305 0.0
C152 C 0.0063 0.19369 0.54569 0.0
H153 H 0.07716 0.30133 0.64024 0.0
H154 H 0.04346 0.33616 0.62006 0.0
H155 H 0.97336 0.34225 0.51934 0.0
H156 H 0.95544 0.31173 0.46649 0.0
H157 H 0.95278 0.20929 0.451 0.0
H158 H 0.97034 0.17336 0.49238 0.0
H159 H 0.04344 0.16714 0.588 0.0
H160 H 0.07801 0.19882 0.61896 0.0
H161 H 0.9841 0.24975 0.6687 0.0
H162 H 0.92367 0.25209 0.58645 0.0
H163 H 0.07081 0.22014 0.45992 0.0
H164 H 0.07593 0.30098 0.48081 0.0
C165 C 0.71141 0.05484 0.57616 0.0
C166 C 0.68873 0.06158 0.58964 0.0
C167 C 0.67088 0.04456 0.57558 0.0
C168 C 0.6836 0.02829 0.55459 0.0
N169 N 0.7086 0.03368 0.55464 0.0
Co170 Co 0.73387 0.01443 0.52764 0.0
N171 N 0.70709 0.99086 0.5043 0.0
C172 C 0.68192 0.99206 0.50807 0.0
C173 C 0.66789 0.97411 0.48817 0.0
C174 C 0.68508 0.96045 0.47075 0.0
C175 C 0.70883 0.97066 0.48132 0.0
N176 N 0.75921 0.99468 0.50116 0.0
C177 C 0.75637 0.97347 0.47951 0.0
C178 C 0.7795 0.96534 0.46873 0.0
C179 C 0.79749 0.98186 0.48378 0.0
C180 C 0.7845 0.99903 0.50311 0.0
N181 N 0.76055 0.03852 0.55028 0.0
C182 C 0.7855 0.0382 0.54504 0.0
C183 C 0.79908 0.05778 0.56216 0.0
C184 C 0.78174 0.07171 0.57902 0.0
C185 C 0.75846 0.05971 0.57141 0.0
N186 N 0.73986 0.99119 0.56655 0.0
C187 C 0.74814 0.95953 0.62335 0.0
C188 C 0.76844 0.97103 0.60918 0.0
C189 C 0.7639 0.98662 0.58101 0.0
C190 C 0.72364 0.96417 0.60859 0.0
C191 C 0.71997 0.9798 0.58039 0.0
N192 N 0.72795 0.03812 0.48937 0.0
C193 C 0.7453 0.06883 0.45326 0.0
C194 C 0.72177 0.08077 0.44844 0.0
C195 C 0.70091 0.06951 0.46153 0.0
C196 C 0.70436 0.04808 0.48137 0.0
C197 C 0.7479 0.04754 0.47344 0.0
H198 H 0.68783 0.04059 0.49116 0.0
H199 H 0.76646 0.03978 0.47711 0.0
H200 H 0.7802 0.99462 0.57134 0.0
H201 H 0.70087 0.98235 0.57026 0.0
C202 C 0.67224 0.00929 0.53209 0.0
C203 C 0.73479 0.06977 0.58375 0.0
C204 C 0.73239 0.95995 0.46928 0.0
C205 C 0.79547 0.01949 0.52334 0.0
H206 H 0.68534 0.0775 0.60727 0.0
H207 H 0.65084 0.04452 0.57937 0.0
H208 H 0.64759 0.97105 0.48692 0.0
H209 H 0.68064 0.94454 0.4526 0.0
H210 H 0.78315 0.94898 0.45205 0.0
H211 H 0.8177 0.98126 0.48123 0.0
H212 H 0.81913 0.06174 0.56188 0.0
H213 H 0.78576 0.08898 0.59467 0.0
H214 H 0.78782 0.96761 0.61922 0.0
H215 H 0.70724 0.95583 0.61877 0.0
H216 H 0.76201 0.07666 0.44322 0.0
H217 H 0.68214 0.0776 0.45735 0.0
C218 C 0.05267 0.76329 0.53169 0.0
C219 C 0.06529 0.78471 0.54664 0.0
C220 C 0.0526 0.80525 0.53386 0.0
C221 C 0.03313 0.79534 0.51178 0.0
N222 N 0.03231 0.76966 0.50999 0.0
Co223 Co 0.00794 0.74762 0.47917 0.0
N224 N 0.99195 0.77783 0.45635 0.0
C225 C 0.99847 0.80246 0.46317 0.0
C226 C 0.98403 0.8191 0.44374 0.0
C227 C 0.96728 0.80424 0.42315 0.0
C228 C 0.97256 0.77924 0.43112 0.0
N229 N 0.98324 0.72555 0.44898 0.0
C230 C 0.96444 0.73184 0.42477 0.0
C231 C 0.95162 0.71048 0.41006 0.0
C232 C 0.96241 0.69001 0.42586 0.0
C233 C 0.9812 0.69995 0.4491 0.0
N234 N 0.0245 0.7174 0.50134 0.0
C235 C 0.01792 0.69274 0.49489 0.0
C236 C 0.03353 0.67612 0.51269 0.0
C237 C 0.0515 0.69098 0.53113 0.0
C238 C 0.04584 0.71591 0.52338 0.0
N239 N 0.98285 0.7498 0.51519 0.0
C240 C 0.94478 0.75334 0.5626 0.0
C241 C 0.95127 0.72997 0.54752 0.0
C242 C 0.97039 0.7286 0.52451 0.0
C243 C 0.9579 0.77487 0.5539 0.0
C244 C 0.97654 0.77272 0.53026 0.0
N245 N 0.03278 0.74538 0.44311 0.0
C246 C 0.05352 0.72052 0.39973 0.0
C247 C 0.07049 0.7403 0.39521 0.0
C248 C 0.06727 0.7632 0.41415 0.0
C249 C 0.04825 0.76541 0.43737 0.0
C250 C 0.03541 0.72327 0.42385 0.0
H251 H 0.04671 0.78339 0.45084 0.0
H252 H 0.02396 0.70702 0.42675 0.0
H253 H 0.97469 0.71012 0.51463 0.0
H254 H 0.98544 0.78994 0.52446 0.0
C255 C 0.0174 0.80948 0.48914 0.0
C256 C 0.06173 0.73741 0.53691 0.0
C257 C 0.95818 0.75763 0.41463 0.0
C258 C 0.99784 0.68573 0.47053 0.0
H259 H 0.08247 0.78559 0.56393 0.0
H260 H 0.05776 0.82504 0.53869 0.0
H261 H 0.98526 0.83962 0.44484 0.0
H262 H 0.9526 0.81111 0.40469 0.0
H263 H 0.93612 0.7097 0.38988 0.0
H264 H 0.95731 0.67023 0.42079 0.0
H265 H 0.03238 0.6556 0.51165 0.0
H266 H 0.0673 0.68423 0.54788 0.0
H267 H 0.94201 0.71268 0.55401 0.0
H268 H 0.95358 0.79344 0.56496 0.0
H269 H 0.0542 0.70264 0.38497 0.0
H270 H 0.0797 0.77924 0.41191 0.0
C271 C 0.28192 0.97065 0.56381 0.0
C272 C 0.30448 0.9625 0.58066 0.0
C273 C 0.32351 0.97621 0.56846 0.0
C274 C 0.31162 0.99191 0.54487 0.0
N275 N 0.28609 0.98937 0.54156 0.0
Co276 Co 0.26212 0.00756 0.50774 0.0
N277 N 0.29009 0.0278 0.48985 0.0
C278 C 0.31475 0.02765 0.50231 0.0
C279 C 0.32949 0.04472 0.48724 0.0
C280 C 0.31316 0.05701 0.46438 0.0
C281 C 0.28924 0.04678 0.46683 0.0
N282 N 0.23836 0.02413 0.47197 0.0
C283 C 0.24237 0.04249 0.44917 0.0
C284 C 0.22005 0.04853 0.42977 0.0
C285 C 0.20138 0.03375 0.44079 0.0
C286 C 0.2132 0.01954 0.46622 0.0
N287 N 0.23388 0.98881 0.52739 0.0
C288 C 0.2089 0.99131 0.51779 0.0
C289 C 0.19365 0.97625 0.5353 0.0
C290 C 0.20985 0.9633 0.5575 0.0
C291 C 0.23423 0.97123 0.55234 0.0
N292 N 0.2581 0.03628 0.54181 0.0
C293 C 0.25999 0.08425 0.57674 0.0
C294 C 0.2389 0.07694 0.55428 0.0
C295 C 0.23807 0.05274 0.53777 0.0
C296 C 0.2788 0.06625 0.58405 0.0
C297 C 0.2774 0.04252 0.56668 0.0
N298 N 0.26671 0.97916 0.47355 0.0
C299 C 0.25082 0.94198 0.43959 0.0
C300 C 0.27513 0.93646 0.42986 0.0
C301 C 0.29493 0.95291 0.44166 0.0
C302 C 0.29036 0.9739 0.46322 0.0
C303 C 0.24698 0.9635 0.46105 0.0
H304 H 0.30647 0.9853 0.47164 0.0
H305 H 0.22799 0.96696 0.46743 0.0
H306 H 0.22146 0.04813 0.52092 0.0
H307 H 0.29284 0.0301 0.57286 0.0
C308 C 0.32356 0.01043 0.52707 0.0
C309 C 0.25702 0.96054 0.57068 0.0
C310 C 0.26632 0.05623 0.44722 0.0
C311 C 0.20072 1.00511 0.48897 0.0
H312 H 0.30693 0.94827 0.60001 0.0
H313 H 0.34362 0.97507 0.57619 0.0
H314 H 0.3497 0.04791 0.49234 0.0
H315 H 0.31822 0.07202 0.44797 0.0
H316 H 0.21716 0.0629 0.41072 0.0
H317 H 0.18131 0.0344 0.43265 0.0
H318 H 0.17325 0.97409 0.5313 0.0
H319 H 0.20434 0.94904 0.57474 0.0
H320 H 0.22333 0.08995 0.54901 0.0
H321 H 0.29531 0.07083 0.60177 0.0
H322 H 0.23485 0.92988 0.43053 0.0
H323 H 0.31412 0.94929 0.43499 0.0
C324 C 0.55075 0.79773 0.02728 0.0
C325 C 0.5583 0.82145 0.04155 0.0
C326 C 0.54042 0.83839 0.02943 0.0
C327 C 0.52296 0.82413 0.0087 0.0
N328 N 0.52868 0.79925 0.00696 0.0
Co329 Co 0.50799 0.77199 0.98092 0.0
N330 N 0.48859 0.79702 0.95221 0.0
C331 C 0.48852 0.82239 0.95835 0.0
C332 C 0.47429 0.83508 0.93336 0.0
C333 C 0.46433 0.81655 0.91032 0.0
C334 C 0.4728 0.79345 0.92286 0.0
N335 N 0.48701 0.74467 0.95514 0.0
C336 C 0.47016 0.74563 0.92661 0.0
C337 C 0.45877 0.72211 0.91867 0.0
C338 C 0.46847 0.70605 0.9433 0.0
C339 C 0.48516 0.72054 0.96492 0.0
N340 N 0.52773 0.74713 0.00969 0.0
C341 C 0.52128 0.72278 0.01343 0.0
C342 C 0.53892 0.71001 0.03417 0.0
C343 C 0.55762 0.72746 0.04427 0.0
C344 C 0.55021 0.75003 0.02928 0.0
N345 N 0.48288 0.77462 0.01578 0.0
C346 C 0.447 0.77225 0.06555 0.0
C347 C 0.47308 0.7749 0.07563 0.0
C348 C 0.4906 0.77591 0.0505 0.0
C349 C 0.43934 0.77224 0.02991 0.0
C350 C 0.45746 0.77363 1.00566 0.0
N351 N 0.53297 0.76903 0.94608 0.0
C352 C 0.55682 0.74276 0.90794 0.0
C353 C 0.56751 0.76424 0.89474 0.0
C354 C 0.56083 0.78821 0.9082 0.0
C355 C 0.54339 0.7902 0.93358 0.0
C356 C 0.53988 0.74555 0.93372 0.0
H357 H 0.53825 0.80889 0.94289 0.0
H358 H 0.53234 0.72859 0.94354 0.0
H359 H 0.51048 0.77707 0.05926 0.0
H360 H 0.45081 0.77299 0.97864 0.0
C361 C 0.50393 0.8338 0.9858 0.0
C362 C 0.5642 0.77412 0.03526 0.0
C363 C 0.46158 0.76898 0.90978 0.0
C364 C 0.501 0.71167 0.99262 0.0
H365 H 0.57497 0.82602 0.05893 0.0
H366 H 0.54072 0.8588 0.03401 0.0
H367 H 0.47161 0.85538 0.93191 0.0
H368 H 0.4513 0.81958 0.88773 0.0
H369 H 0.44431 0.71725 0.89794 0.0
H370 H 0.46391 0.68616 0.94516 0.0
H371 H 0.53878 0.69012 0.04002 0.0
H372 H 0.57475 0.72385 0.06063 0.0
H373 H 0.4801 0.77577 0.1028 0.0
H374 H 0.41956 0.77013 0.0205 0.0
H375 H 0.56174 0.72386 0.89869 0.0
H376 H 0.56862 0.80532 0.89869 0.0
C377 C 0.21987 0.53499 0.07149 0.0
C378 C 0.19672 0.544 0.08124 0.0
C379 C 0.17957 0.54056 0.05277 0.0
C380 C 0.19305 0.5295 0.02735 0.0
N381 N 0.21755 0.52548 0.03824 0.0
Co382 Co 0.24349 0.51012 0.0098 0.0
N383 N 0.2172 0.49596 0.9748 0.0
C384 C 0.19297 0.50359 0.96992 0.0
C385 C 0.17936 0.48976 0.94366 0.0
C386 C 0.19619 0.47241 0.93138 0.0
C387 C 0.21908 0.47669 0.95101 0.0
N388 N 0.26934 0.4948 0.98121 0.0
C389 C 0.26677 0.47555 0.95691 0.0
C390 C 0.28982 0.46989 0.94373 0.0
C391 C 0.30728 0.48657 0.96018 0.0
C392 C 0.294 0.50126 0.98256 0.0
N393 N 0.26998 0.52447 0.04451 0.0
C394 C 0.29463 0.52777 0.03935 0.0
C395 C 0.30848 0.53873 0.06769 0.0
C396 C 0.29146 0.54288 0.09207 0.0
C397 C 0.26801 0.53415 0.07718 0.0
N398 N 0.24244 0.4785 0.03607 0.0
C399 C 0.23998 0.43262 0.07194 0.0
C400 C 0.26332 0.44452 0.06805 0.0
C401 C 0.26416 0.46718 0.04981 0.0
C402 C 0.21798 0.44462 0.0578 0.0
C403 C 0.21958 0.46742 0.04049 0.0
N404 N 0.24415 0.54173 0.98341 0.0
C405 C 0.2422 0.58764 0.98227 0.0
C406 C 0.2407 0.58702 0.94568 0.0
C407 C 0.24198 0.56298 0.92862 0.0
C408 C 0.24365 0.54074 0.94781 0.0
C409 C 0.24393 0.56506 1.00043 0.0
H410 H 0.24396 0.52265 0.93365 0.0
H411 H 0.24462 0.56658 0.0284 0.0
H412 H 0.28245 0.4754 0.04658 0.0
H413 H 0.20214 0.47598 0.03041 0.0
C414 C 0.18276 0.51976 0.99482 0.0
C415 C 0.24401 0.53853 0.09306 0.0
C416 C 0.24257 0.46311 0.94559 0.0
C417 C 0.30468 0.5173 0.00962 0.0
H418 H 0.19277 0.5527 0.10609 0.0
H419 H 0.15956 0.54508 0.05109 0.0
H420 H 0.15934 0.4912 0.93558 0.0
H421 H 0.19214 0.45819 0.91058 0.0
H422 H 0.29384 0.45518 0.92464 0.0
H423 H 0.32748 0.48696 0.95752 0.0
H424 H 0.32863 0.54278 0.07057 0.0
H425 H 0.29579 0.55195 0.11754 0.0
H426 H 0.2809 0.43602 0.07819 0.0
H427 H 0.19945 0.43649 0.06028 0.0
H428 H 0.24191 0.60554 0.99706 0.0
H429 H 0.24083 0.56121 0.90051 0.0
C430 C 0.4771 0.26644 0.99426 0.0
C431 C 0.46707 0.28954 0.98392 0.0
C432 C 0.47778 0.30787 0.00684 0.0
C433 C 0.49366 0.29505 0.02992 0.0
N434 N 0.49389 0.26982 0.02266 0.0
Co435 Co 0.51302 0.24452 0.05103 0.0
N436 N 0.53543 0.27105 0.07526 0.0
C437 C 0.53076 0.29612 0.07703 0.0
C438 C 0.55044 0.30982 0.09424 0.0
C439 C 0.56856 0.29222 0.10384 0.0
C440 C 0.5588 0.26866 0.09209 0.0
N441 N 0.53212 0.21942 0.07959 0.0
C442 C 0.55568 0.22132 0.09614 0.0
C443 C 0.56226 0.1992 0.11282 0.0
C444 C 0.54205 0.18285 0.10608 0.0
C445 C 0.5243 0.19592 0.08584 0.0
N446 N 0.49061 0.21774 0.02711 0.0
C447 C 0.48757 0.19414 0.03825 0.0
C448 C 0.47056 0.17978 0.01689 0.0
C449 C 0.46204 0.19542 0.99101 0.0
C450 C 0.4742 0.21865 0.99821 0.0
N451 N 0.53732 0.24005 0.01546 0.0
C452 C 0.57859 0.23401 0.97434 0.0
C453 C 0.56621 0.2129 0.98622 0.0
C454 C 0.54563 0.2163 0.00646 0.0
C455 C 0.56869 0.25815 0.98173 0.0
C456 C 0.5481 0.26075 1.00223 0.0
N457 N 0.48891 0.24909 0.08704 0.0
C458 C 0.44593 0.25359 0.10303 0.0
C459 C 0.45437 0.2561 0.13845 0.0
C460 C 0.48064 0.25498 0.14743 0.0
C461 C 0.49749 0.25146 0.12148 0.0
C462 C 0.46337 0.25011 0.07794 0.0
H463 H 0.51754 0.25064 0.12932 0.0
H464 H 0.45603 0.24838 0.05109 0.0
H465 H 0.53712 0.19971 0.01607 0.0
H466 H 0.54167 0.27963 0.00868 0.0
C467 C 0.51063 0.30617 0.05609 0.0
C468 C 0.46793 0.24168 0.97912 0.0
C469 C 0.57154 0.24422 0.09783 0.0
C470 C 0.50308 0.18528 0.06639 0.0
H471 H 0.45295 0.29278 0.96263 0.0
H472 H 0.47456 0.32814 0.00645 0.0
H473 H 0.55211 0.33026 0.09759 0.0
H474 H 0.58692 0.2964 0.11739 0.0
H475 H 0.57987 0.19526 0.12799 0.0
H476 H 0.54103 0.16333 0.11346 0.0
H477 H 0.46533 0.16014 0.01942 0.0
H478 H 0.44811 0.19039 0.96968 0.0
H479 H 0.57271 0.19381 0.98056 0.0
H480 H 0.57753 0.27506 0.97322 0.0
H481 H 0.42594 0.25471 0.09451 0.0
H482 H 0.48819 0.25649 0.17437 0.0
C483 C 0.73404 0.55537 0.07364 0.0
C484 C 0.71021 0.5626 0.08291 0.0
C485 C 0.69319 0.54593 0.066 0.0
C486 C 0.70745 0.52956 0.04726 0.0
N487 N 0.73257 0.53481 0.05091 0.0
Co488 Co 0.75974 0.51528 0.0281 0.0
N489 N 0.73435 0.49173 1.00146 0.0
C490 C 0.70886 0.49266 1.00229 0.0
C491 C 0.69607 0.47449 0.98122 0.0
C492 C 0.71443 0.4612 0.96566 0.0
C493 C 0.73751 0.47208 0.97816 0.0
N494 N 0.78695 0.49501 1.00627 0.0
C495 C 0.78536 0.47446 0.9834 0.0
C496 C 0.80922 0.46598 0.97607 0.0
C497 C 0.82644 0.48155 0.99491 0.0
C498 C 0.81225 0.49864 0.0127 0.0
N499 N 0.78503 0.53969 0.05341 0.0
C500 C 0.81045 0.53937 0.05143 0.0
C501 C 0.82304 0.55855 0.07088 0.0
C502 C 0.80458 0.57205 0.0861 0.0
C503 C 0.78165 0.56031 0.07508 0.0
N504 N 0.7627 0.49228 0.06771 0.0
C505 C 0.76987 0.45552 0.11842 0.0
C506 C 0.78921 0.47236 0.11266 0.0
C507 C 0.78532 0.49025 0.08744 0.0
C508 C 0.74616 0.45858 0.10019 0.0
C509 C 0.74294 0.47716 0.07529 0.0
N510 N 0.75715 0.53826 0.98876 0.0
C511 C 0.77803 0.56491 0.9506 0.0
C512 C 0.75485 0.57448 0.93751 0.0
C513 C 0.73262 0.56502 0.9493 0.0
C514 C 0.7342 0.54708 0.97509 0.0
C515 C 0.77872 0.54666 0.97557 0.0
H516 H 0.71675 0.54082 0.98388 0.0
H517 H 0.797 0.53986 0.98402 0.0
H518 H 0.80128 0.50176 0.08409 0.0
H519 H 0.7245 0.47852 0.06203 0.0
C520 C 0.69765 0.51012 0.02437 0.0
C521 C 0.75734 0.56887 0.08706 0.0
C522 C 0.76182 0.4627 0.96729 0.0
C523 C 0.82197 0.51956 0.03321 0.0
H524 H 0.70554 0.57844 0.09993 0.0
H525 H 0.67279 0.54599 0.0668 0.0
H526 H 0.6758 0.47115 0.97784 0.0
H527 H 0.71121 0.44514 0.94738 0.0
H528 H 0.8137 0.45033 0.9586 0.0
H529 H 0.8469 0.48084 0.99502 0.0
H530 H 0.84329 0.56198 0.07422 0.0
H531 H 0.80772 0.58845 0.10379 0.0
H532 H 0.80767 0.4714 0.12704 0.0
H533 H 0.73045 0.44614 0.1041 0.0
H534 H 0.79562 0.57139 0.9414 0.0
H535 H 0.71424 0.57186 0.93928 0.0
H536 H 0.20914 0.29051 0.38771 0.0
H537 H 0.17471 0.25685 0.29035 0.0
H538 H 0.13462 0.25152 0.31677 0.0
H539 H 0.17938 0.25023 0.44322 0.0
H540 H 0.17402 0.27433 0.47631 0.0
H541 H 0.20002 0.27756 0.4496 0.0
H542 H 0.18321 0.32146 0.43099 0.0
H543 H 0.15725 0.31846 0.45791 0.0
H544 H 0.15097 0.32427 0.41235 0.0
H545 H 0.09946 0.24564 0.35415 0.0
H546 H 0.0697 0.24324 0.3998 0.0
H547 H 0.12447 0.28223 0.47348 0.0
C548 C 0.19299 0.28256 0.37179 0.0
C549 C 0.1953 0.27411 0.33679 0.0
C550 C 0.17369 0.26344 0.31714 0.0
C551 C 0.15069 0.26029 0.33193 0.0
C552 C 0.14921 0.26807 0.36655 0.0
C553 C 0.16957 0.27933 0.38624 0.0
C554 C 0.16267 0.28532 0.42323 0.0
C555 C 0.18006 0.271 0.44964 0.0
C556 C 0.16358 0.3141 0.43161 0.0
C557 C 0.13553 0.27525 0.42119 0.0
C558 C 0.12831 0.2653 0.38817 0.0
C559 C 0.10475 0.25367 0.38 0.0
C560 C 0.08801 0.25226 0.40614 0.0
C561 C 0.09466 0.26262 0.44011 0.0
C562 C 0.11875 0.27442 0.44762 0.0
H563 H 0.76134 0.18717 0.32422 0.0
H564 H 0.7194 0.24152 0.38451 0.0
H565 H 0.70477 0.20655 0.41879 0.0
H566 H 0.71607 0.13547 0.3215 0.0
H567 H 0.74041 0.11159 0.32554 0.0
H568 H 0.74636 0.14072 0.30483 0.0
H569 H 0.7861 0.14915 0.34789 0.0
H570 H 0.78033 0.12004 0.36863 0.0
H571 H 0.78295 0.14958 0.39401 0.0
H572 H 0.6961 0.16553 0.4476 0.0
H573 H 0.69588 0.1225 0.47056 0.0
H574 H 0.74347 0.09565 0.39059 0.0
C575 C 0.74893 0.19182 0.34445 0.0
C576 C 0.74144 0.21709 0.35164 0.0
C577 C 0.72536 0.22228 0.37856 0.0
C578 C 0.71689 0.20255 0.39803 0.0
C579 C 0.72467 0.17783 0.39016 0.0
C580 C 0.7404 0.17248 0.36406 0.0
C581 C 0.74701 0.14459 0.3616 0.0
C582 C 0.73685 0.13238 0.32627 0.0
C583 C 0.7758 0.14062 0.36846 0.0
C584 C 0.73282 0.13503 0.39076 0.0
C585 C 0.71983 0.15439 0.40674 0.0
C586 C 0.70601 0.15019 0.43508 0.0
C587 C 0.70585 0.12566 0.44776 0.0
C588 C 0.71956 0.10572 0.43222 0.0
C589 C 0.73286 0.11051 0.40304 0.0
H590 H 0.81395 0.76202 0.33399 0.0
H591 H 0.84171 0.79184 0.24124 0.0
H592 H 0.88569 0.78902 0.26788 0.0
H593 H 0.85842 0.79526 0.3951 0.0
H594 H 0.86191 0.76948 0.42428 0.0
H595 H 0.83266 0.77319 0.39757 0.0
H596 H 0.83653 0.72716 0.37222 0.0
H597 H 0.86581 0.72333 0.39883 0.0
H598 H 0.86492 0.71777 0.35239 0.0
H599 H 0.92681 0.7827 0.30455 0.0
H600 H 0.96183 0.77463 0.34957 0.0
H601 H 0.90729 0.75028 0.41889 0.0
C602 C 0.82927 0.76786 0.31918 0.0
C603 C 0.82434 0.77708 0.28542 0.0
C604 C 0.84496 0.78473 0.26712 0.0
C605 C 0.87003 0.78315 0.28201 0.0
C606 C 0.87421 0.77401 0.31532 0.0
C607 C 0.85439 0.76659 0.33376 0.0
C608 C 0.86399 0.75798 0.36944 0.0
C609 C 0.85363 0.775 0.3983 0.0
C610 C 0.85742 0.72989 0.37344 0.0
C611 C 0.89229 0.76172 0.36821 0.0
C612 C 0.89781 0.77085 0.33668 0.0
C613 C 0.9227 0.77562 0.32934 0.0
C614 C 0.94242 0.77102 0.35495 0.0
C615 C 0.9371 0.76194 0.38747 0.0
C616 C 0.91174 0.75722 0.39413 0.0
H617 H 0.26917 0.78977 0.36681 0.0
H618 H 0.31545 0.80999 0.28486 0.0
H619 H 0.31933 0.8539 0.30984 0.0
H620 H 0.23366 0.8451 0.36599 0.0
H621 H 0.23101 0.84832 0.41218 0.0
H622 H 0.23516 0.8174 0.39186 0.0
H623 H 0.2751 0.80988 0.43373 0.0
H624 H 0.27078 0.8406 0.4547 0.0
H625 H 0.30054 0.83285 0.43739 0.0
H626 H 0.31468 0.89596 0.33946 0.0
H627 H 0.30339 0.93408 0.37404 0.0
H628 H 0.25873 0.8875 0.43616 0.0
C629 C 0.28093 0.80329 0.35514 0.0
C630 C 0.29264 0.79662 0.3246 0.0
C631 C 0.30688 0.81486 0.30876 0.0
C632 C 0.30908 0.83977 0.32266 0.0
C633 C 0.29664 0.84611 0.35216 0.0
C634 C 0.28298 0.82844 0.36844 0.0
C635 C 0.26962 0.84088 0.39794 0.0
C636 C 0.24065 0.83773 0.39159 0.0
C637 C 0.27962 0.83043 0.43302 0.0
C638 C 0.27756 0.8683 0.3952 0.0
C639 C 0.2933 0.87079 0.36878 0.0
C640 C 0.30264 0.89426 0.36053 0.0
C641 C 0.2961 0.91577 0.38026 0.0
C642 C 0.28029 0.91369 0.40781 0.0
C643 C 0.27072 0.88964 0.4151 0.0
H644 H 0.17135 0.75162 0.69156 0.0
H645 H 0.22392 0.72002 0.621 0.0
H646 H 0.1882 0.71276 0.57582 0.0
H647 H 0.11817 0.70907 0.66404 0.0
H648 H 0.09496 0.73372 0.66884 0.0
H649 H 0.12442 0.73477 0.69596 0.0
H650 H 0.13336 0.77988 0.67563 0.0
H651 H 0.10402 0.77893 0.64836 0.0
H652 H 0.13344 0.78495 0.62978 0.0
H653 H 0.1466 0.7121 0.5368 0.0
H654 H 0.10311 0.71717 0.50839 0.0
H655 H 0.07811 0.74797 0.60538 0.0
C656 C 0.17543 0.74286 0.66678 0.0
C657 C 0.20054 0.73635 0.65991 0.0
C658 C 0.20488 0.72504 0.627 0.0
C659 C 0.18469 0.72089 0.60116 0.0
C660 C 0.16023 0.72794 0.6087 0.0
C661 C 0.15556 0.73851 0.64088 0.0
C662 C 0.12779 0.74524 0.64228 0.0
C663 C 0.11562 0.72977 0.66939 0.0
C664 C 0.12448 0.77395 0.64943 0.0
C665 C 0.11751 0.7372 0.60569 0.0
C666 C 0.13647 0.72723 0.58665 0.0
C667 C 0.13163 0.71964 0.55164 0.0
C668 C 0.10694 0.72255 0.53572 0.0
C669 C 0.08743 0.73297 0.55475 0.0
C670 C 0.09275 0.73993 0.59031 0.0
H671 H 0.29631 0.19001 0.72506 0.0
H672 H 0.27745 0.24733 0.65004 0.0
H673 H 0.27031 0.21348 0.60357 0.0
H674 H 0.32722 0.14443 0.66592 0.0
H675 H 0.31427 0.11766 0.68603 0.0
H676 H 0.32161 0.14666 0.71133 0.0
H677 H 0.27542 0.14807 0.72896 0.0
H678 H 0.26772 0.1195 0.70308 0.0
H679 H 0.24945 0.1479 0.69555 0.0
H680 H 0.25966 0.17253 0.56733 0.0
H681 H 0.25122 0.1287 0.54332 0.0
H682 H 0.27627 0.09925 0.64356 0.0
C683 C 0.29147 0.19553 0.69864 0.0
C684 C 0.28759 0.22124 0.69101 0.0
C685 C 0.28095 0.22773 0.65626 0.0
C686 C 0.27664 0.20862 0.62982 0.0
C687 C 0.27937 0.18329 0.63867 0.0
C688 C 0.28714 0.17682 0.67219 0.0
C689 C 0.28715 0.14839 0.67583 0.0
C690 C 0.31417 0.13872 0.68532 0.0
C691 C 0.26884 0.14053 0.70242 0.0
C692 C 0.27757 0.13974 0.63933 0.0
C693 C 0.27321 0.16004 0.61814 0.0
C694 C 0.26331 0.15653 0.58363 0.0
C695 C 0.25828 0.13162 0.57035 0.0
C696 C 0.26313 0.1106 0.59159 0.0
C697 C 0.27269 0.11489 0.62656 0.0
H698 H 0.81918 0.27453 0.71833 0.0
H699 H 0.8499 0.22957 0.80352 0.0
H700 H 0.88965 0.22406 0.7751 0.0
H701 H 0.84599 0.23848 0.65027 0.0
H702 H 0.85297 0.26553 0.62568 0.0
H703 H 0.82704 0.2668 0.65303 0.0
H704 H 0.84635 0.30718 0.68562 0.0
H705 H 0.87224 0.30615 0.65817 0.0
H706 H 0.87862 0.30658 0.70477 0.0
H707 H 0.92519 0.22123 0.73604 0.0
H708 H 0.95525 0.22361 0.69119 0.0
H709 H 0.90294 0.27227 0.63205 0.0
C710 C 0.83435 0.26374 0.73121 0.0
C711 C 0.83129 0.25251 0.76333 0.0
C712 C 0.85167 0.23845 0.77909 0.0
C713 C 0.87437 0.23513 0.76306 0.0
C714 C 0.87661 0.24611 0.73127 0.0
C715 C 0.85728 0.26035 0.71564 0.0
C716 C 0.86467 0.27003 0.68136 0.0
C717 C 0.84659 0.25958 0.65078 0.0
C718 C 0.86552 0.29922 0.68257 0.0
C719 C 0.89107 0.25883 0.68007 0.0
C720 C 0.89747 0.24503 0.70909 0.0
C721 C 0.92052 0.23233 0.71347 0.0
C722 C 0.93763 0.23399 0.68781 0.0
C723 C 0.93192 0.24849 0.65801 0.0
C724 C 0.90808 0.26093 0.65423 0.0
H725 H 0.7337 0.82816 0.71045 0.0
H726 H 0.79618 0.84965 0.78605 0.0
H727 H 0.79573 0.893 0.76314 0.0
H728 H 0.75579 0.85763 0.64173 0.0
H729 H 0.72509 0.86708 0.62283 0.0
H730 H 0.72787 0.83959 0.64878 0.0
H731 H 0.69543 0.85871 0.68925 0.0
H732 H 0.69233 0.88625 0.66317 0.0
H733 H 0.70087 0.88998 0.70928 0.0
H734 H 0.79143 0.93226 0.72613 0.0
H735 H 0.78275 0.96378 0.68093 0.0
H736 H 0.72394 0.91454 0.62985 0.0
C737 C 0.747 0.84209 0.72278 0.0
C738 C 0.76501 0.83561 0.74997 0.0
C739 C 0.78208 0.85436 0.76536 0.0
C740 C 0.78198 0.87895 0.75243 0.0
C741 C 0.76449 0.88436 0.72455 0.0
C742 C 0.74712 0.86643 0.7103 0.0
C743 C 0.73157 0.87589 0.67891 0.0
C744 C 0.73533 0.85905 0.64615 0.0
C745 C 0.70338 0.87783 0.68557 0.0
C746 C 0.7433 0.90178 0.67691 0.0
C747 C 0.76209 0.90656 0.70354 0.0
C748 C 0.77652 0.9288 0.7055 0.0
C749 C 0.7716 0.94648 0.67957 0.0
C750 C 0.75252 0.94171 0.65197 0.0
C751 C 0.73818 0.91911 0.65102 0.0
H752 H 0.80981 0.73219 0.64063 0.0
H753 H 0.84156 0.7754 0.7325 0.0
H754 H 0.8816 0.78008 0.70585 0.0
H755 H 0.86833 0.69846 0.6248 0.0
H756 H 0.86329 0.69926 0.57813 0.0
H757 H 0.83651 0.6991 0.60401 0.0
H758 H 0.81977 0.74027 0.57604 0.0
H759 H 0.84651 0.74057 0.55012 0.0
H760 H 0.8401 0.76783 0.57777 0.0
H761 H 0.91781 0.78191 0.66948 0.0
H762 H 0.94932 0.77837 0.62598 0.0
H763 H 0.89638 0.73259 0.55761 0.0
C764 C 0.82522 0.74255 0.65511 0.0
C765 C 0.82233 0.75338 0.68881 0.0
C766 C 0.8431 0.76676 0.70682 0.0
C767 C 0.86604 0.76964 0.69185 0.0
C768 C 0.86829 0.75888 0.65879 0.0
C769 C 0.84863 0.7454 0.64062 0.0
C770 C 0.85657 0.73554 0.60554 0.0
C771 C 0.85615 0.70635 0.60298 0.0
C772 C 0.83973 0.74673 0.5756 0.0
C773 C 0.88359 0.74577 0.60697 0.0
C774 C 0.88978 0.75932 0.63791 0.0
C775 C 0.91327 0.77124 0.64519 0.0
C776 C 0.93101 0.76923 0.62026 0.0
C777 C 0.92537 0.75522 0.58844 0.0
C778 C 0.90132 0.74324 0.58185 0.0
H779 H 0.26354 0.82375 0.65966 0.0
H780 H 0.22638 0.85935 0.74504 0.0
H781 H 0.2267 0.90035 0.71652 0.0
H782 H 0.30399 0.87739 0.64441 0.0
H783 H 0.30086 0.87252 0.59778 0.0
H784 H 0.29835 0.84593 0.62509 0.0
H785 H 0.25431 0.83469 0.5938 0.0
H786 H 0.25673 0.86122 0.56637 0.0
H787 H 0.22982 0.85849 0.59163 0.0
H788 H 0.23075 0.93804 0.67845 0.0
H789 H 0.23716 0.96873 0.63318 0.0
H790 H 0.27098 0.90949 0.57125 0.0
C791 C 0.25556 0.84018 0.67249 0.0
C792 C 0.24498 0.83805 0.70494 0.0
C793 C 0.23462 0.86019 0.72039 0.0
C794 C 0.23474 0.8837 0.70433 0.0
C795 C 0.24522 0.88511 0.67248 0.0
C796 C 0.25539 0.86391 0.65662 0.0
C797 C 0.26499 0.8706 0.62196 0.0
C798 C 0.29376 0.86635 0.62234 0.0
C799 C 0.2506 0.85534 0.59165 0.0
C800 C 0.25859 0.89879 0.62078 0.0
C801 C 0.24729 0.90676 0.65033 0.0
C802 C 0.23958 0.93192 0.65526 0.0
C803 C 0.2433 0.94927 0.6294 0.0
C804 C 0.25453 0.94163 0.59863 0.0
C805 C 0.26241 0.91598 0.59451 0.0
H806 H 0.20696 0.26344 0.70173 0.0
H807 H 0.18 0.22684 0.79018 0.0
H808 H 0.13665 0.22483 0.75995 0.0
H809 H 0.15204 0.30143 0.68079 0.0
H810 H 0.15377 0.29737 0.63449 0.0
H811 H 0.18227 0.29623 0.6634 0.0
H812 H 0.19266 0.2518 0.63696 0.0
H813 H 0.16425 0.25285 0.60787 0.0
H814 H 0.16947 0.22667 0.6361 0.0
H815 H 0.09586 0.22804 0.71986 0.0
H816 H 0.06207 0.23323 0.67217 0.0
H817 H 0.1166 0.26609 0.60945 0.0
C818 C 0.19197 0.25508 0.71497 0.0
C819 C 0.19687 0.24547 0.74856 0.0
C820 C 0.17672 0.23435 0.76454 0.0
C821 C 0.15205 0.23321 0.74757 0.0
C822 C 0.14793 0.24305 0.71453 0.0
C823 C 0.16745 0.25356 0.69833 0.0
C824 C 0.15841 0.26217 0.66243 0.0
C825 C 0.16183 0.29101 0.66016 0.0
C826 C 0.172 0.24749 0.63418 0.0
C827 C 0.13063 0.25497 0.6608 0.0
C828 C 0.12487 0.24414 0.69121 0.0
C829 C 0.10027 0.2363 0.69592 0.0
C830 C 0.08123 0.23929 0.66876 0.0
C831 C 0.08693 0.24969 0.63711 0.0
C832 C 0.11187 0.25789 0.63331 0.0
H833 H 0.75848 0.17873 0.73714 0.0
H834 H 0.71338 0.229 0.67079 0.0
H835 H 0.70757 0.19448 0.62549 0.0
H836 H 0.79032 0.14657 0.66891 0.0
H837 H 0.78992 0.11591 0.68776 0.0
H838 H 0.79038 0.14438 0.71536 0.0
H839 H 0.74971 0.12958 0.74157 0.0
H840 H 0.74921 0.101 0.71418 0.0
H841 H 0.72187 0.12145 0.71304 0.0
H842 H 0.70695 0.1543 0.58651 0.0
H843 H 0.7108 0.1116 0.55804 0.0
H844 H 0.75596 0.08678 0.64906 0.0
C845 C 0.74725 0.18249 0.71317 0.0
C846 C 0.73633 0.20682 0.70782 0.0
C847 C 0.72192 0.21071 0.67583 0.0
C848 C 0.71854 0.19115 0.6498 0.0
C849 C 0.72966 0.16754 0.65583 0.0
C850 C 0.74367 0.16309 0.68679 0.0
C851 C 0.75363 0.13595 0.68661 0.0
C852 C 0.7828 0.1357 0.68985 0.0
C853 C 0.74297 0.12112 0.71557 0.0
C854 C 0.743 0.12582 0.6508 0.0
C855 C 0.72928 0.14442 0.63344 0.0
C856 C 0.71765 0.13966 0.59996 0.0
C857 C 0.71994 0.11535 0.58393 0.0
C858 C 0.73374 0.09589 0.60118 0.0
C859 C 0.74544 0.10132 0.63511 0.0
H860 H 0.8333 0.27004 0.37171 0.0
H861 H 0.86569 0.23848 0.27982 0.0
H862 H 0.90813 0.23887 0.31209 0.0
H863 H 0.88602 0.31107 0.40317 0.0
H864 H 0.88319 0.30508 0.44826 0.0
H865 H 0.85553 0.30334 0.41761 0.0
H866 H 0.84671 0.25745 0.43501 0.0
H867 H 0.87419 0.25914 0.4659 0.0
H868 H 0.87128 0.23387 0.43283 0.0
H869 H 0.94727 0.24228 0.35498 0.0
H870 H 0.97913 0.24589 0.40595 0.0
H871 H 0.92103 0.27378 0.47019 0.0
C872 C 0.84933 0.26335 0.35826 0.0
C873 C 0.8461 0.25436 0.32306 0.0
C874 C 0.8676 0.24547 0.30669 0.0
C875 C 0.89183 0.24571 0.3248 0.0
C876 C 0.89433 0.25475 0.35942 0.0
C877 C 0.8736 0.26321 0.37606 0.0
C878 C 0.8812 0.2709 0.41384 0.0
C879 C 0.87618 0.29928 0.42114 0.0
C880 C 0.86753 0.25435 0.43833 0.0
C881 C 0.90942 0.2654 0.41593 0.0
C882 C 0.91669 0.25632 0.38417 0.0
C883 C 0.94178 0.24952 0.37987 0.0
C884 C 0.95976 0.25173 0.40883 0.0
C885 C 0.95261 0.26059 0.44168 0.0
C886 C 0.92711 0.26756 0.44514 0.0
H887 H 0.74692 0.85728 0.30903 0.0
H888 H 0.71619 0.80124 0.37325 0.0
H889 H 0.71321 0.83396 0.42021 0.0
H890 H 0.78423 0.89207 0.37836 0.0
H891 H 0.77767 0.92288 0.36127 0.0
H892 H 0.77758 0.8952 0.3322 0.0
H893 H 0.7319 0.90554 0.30756 0.0
H894 H 0.73192 0.93334 0.33641 0.0
H895 H 0.70733 0.90972 0.33688 0.0
H896 H 0.7145 0.87252 0.46159 0.0
H897 H 0.71765 0.9146 0.49263 0.0
H898 H 0.74581 0.94711 0.40217 0.0
C899 C 0.73946 0.85189 0.33291 0.0
C900 C 0.73178 0.82638 0.3371 0.0
C901 C 0.72215 0.82043 0.36898 0.0
C902 C 0.72045 0.83896 0.39603 0.0
C903 C 0.72827 0.86374 0.39117 0.0
C904 C 0.73741 0.87035 0.36031 0.0
C905 C 0.74416 0.89858 0.3619 0.0
C906 C 0.7726 0.9024 0.35821 0.0
C907 C 0.72786 0.91262 0.33403 0.0
C908 C 0.73744 0.90672 0.39838 0.0
C909 C 0.72848 0.88619 0.41484 0.0
C910 C 0.72137 0.8887 0.44881 0.0
C911 C 0.72323 0.91272 0.46631 0.0
C912 C 0.73193 0.93425 0.45002 0.0
C913 C 0.73918 0.93105 0.41548 0.0
H914 H 0.18217 0.77799 0.27614 0.0
H915 H 0.20222 0.69822 0.27505 0.0
H916 H 0.16474 0.68874 0.3059 0.0
H917 H 0.16289 0.78138 0.36035 0.0
H918 H 0.13639 0.80241 0.3522 0.0
H919 H 0.1627 0.80315 0.3256 0.0
H920 H 0.13228 0.7949 0.27015 0.0
H921 H 0.10578 0.79454 0.29654 0.0
H922 H 0.11118 0.76789 0.26729 0.0
H923 H 0.12983 0.68832 0.34363 0.0
H924 H 0.09585 0.69593 0.38178 0.0
H925 H 0.09491 0.77577 0.35727 0.0
C926 C 0.178 0.75847 0.28129 0.0
C927 C 0.19481 0.7387 0.27272 0.0
C928 C 0.18938 0.71351 0.28103 0.0
C929 C 0.16818 0.70795 0.29864 0.0
C930 C 0.15245 0.72781 0.30787 0.0
C931 C 0.15672 0.75253 0.29915 0.0
C932 C 0.13742 0.7703 0.3144 0.0
C933 C 0.15065 0.7905 0.33963 0.0
C934 C 0.12067 0.78264 0.28536 0.0
C935 C 0.12223 0.75174 0.33365 0.0
C936 C 0.13136 0.72739 0.32937 0.0
C937 C 0.12192 0.70717 0.34634 0.0
C938 C 0.10231 0.71174 0.36787 0.0
C939 C 0.09176 0.73635 0.3721 0.0
C940 C 0.10215 0.75665 0.35469 0.0
H941 H 0.25065 0.15756 0.29319 0.0
H942 H 0.27398 0.21509 0.37356 0.0
H943 H 0.2782 0.1825 0.41686 0.0
H944 H 0.21441 0.11905 0.34726 0.0
H945 H 0.22421 0.08898 0.3289 0.0
H946 H 0.22286 0.11666 0.303 0.0
H947 H 0.2699 0.11029 0.29113 0.0
H948 H 0.27134 0.08254 0.31689 0.0
H949 H 0.29362 0.10818 0.32725 0.0
H950 H 0.27892 0.14441 0.45309 0.0
H951 H 0.27766 0.1024 0.47895 0.0
H952 H 0.25595 0.06751 0.37708 0.0
C953 C 0.25675 0.16327 0.31985 0.0
C954 C 0.26195 0.18928 0.32949 0.0
C955 C 0.26986 0.1956 0.36492 0.0
C956 C 0.27231 0.17711 0.39004 0.0
C957 C 0.267 0.15191 0.37987 0.0
C958 C 0.25954 0.14478 0.34565 0.0
C959 C 0.25527 0.11605 0.34223 0.0
C960 C 0.22754 0.10982 0.32959 0.0
C961 C 0.27363 0.10353 0.31792 0.0
C962 C 0.26141 0.1084 0.37975 0.0
C963 C 0.26799 0.12953 0.40094 0.0
C964 C 0.27396 0.1277 0.43666 0.0
C965 C 0.27325 0.10372 0.45118 0.0
C966 C 0.26679 0.08158 0.43024 0.0
C967 C 0.26089 0.08406 0.39388 0.0
H968 H 0.69876 0.78177 0.81058 0.0
H969 H 0.67043 0.73054 0.72514 0.0
H970 H 0.62904 0.72838 0.75072 0.0
H971 H 0.67004 0.75205 0.87683 0.0
H972 H 0.663 0.78112 0.90034 0.0
H973 H 0.68952 0.77984 0.87408 0.0
H974 H 0.67142 0.81789 0.83977 0.0
H975 H 0.64488 0.81941 0.86609 0.0
H976 H 0.63948 0.81627 0.8194 0.0
H977 H 0.59195 0.72908 0.78918 0.0
H978 H 0.56164 0.73489 0.83429 0.0
H979 H 0.61419 0.78687 0.89315 0.0
C980 C 0.68379 0.7703 0.79691 0.0
C981 C 0.68788 0.75627 0.76579 0.0
C982 C 0.66772 0.74156 0.74883 0.0
C983 C 0.64419 0.74017 0.76328 0.0
C984 C 0.64103 0.75386 0.79443 0.0
C985 C 0.66024 0.76891 0.81074 0.0
C986 C 0.65242 0.7814 0.84427 0.0
C987 C 0.66978 0.7731 0.87573 0.0
C988 C 0.65202 0.81047 0.84224 0.0
C989 C 0.62588 0.77074 0.84474 0.0
C990 C 0.61964 0.75482 0.81585 0.0
C991 C 0.59658 0.74176 0.81161 0.0
C992 C 0.57953 0.74508 0.83745 0.0
C993 C 0.58547 0.76148 0.86709 0.0
C994 C 0.60892 0.77456 0.8705 0.0
H995 H 0.25633 0.68728 0.7946 0.0
H996 H 0.20656 0.73755 0.84905 0.0
H997 H 0.20263 0.70534 0.89277 0.0
H998 H 0.22382 0.62823 0.80988 0.0
H999 H 0.25263 0.61011 0.81603 0.0
H1000 H 0.25135 0.63687 0.78845 0.0
H1001 H 0.29023 0.65686 0.8248 0.0
H1002 H 0.29162 0.63019 0.85251 0.0
H1003 H 0.28933 0.66197 0.87112 0.0
H1004 H 0.20449 0.66787 0.93169 0.0
H1005 H 0.21139 0.62812 0.9622 0.0
H1006 H 0.26026 0.60106 0.88379 0.0
C1007 C 0.24445 0.69149 0.81558 0.0
C1008 C 0.23167 0.71522 0.81802 0.0
C1009 C 0.21652 0.71973 0.84623 0.0
C1010 C 0.21417 0.70146 0.87135 0.0
C1011 C 0.22707 0.67846 0.86828 0.0
C1012 C 0.24188 0.67334 0.84106 0.0
C1013 C 0.2539 0.6471 0.84421 0.0
C1014 C 0.24488 0.62954 0.81277 0.0
C1015 C 0.283 0.64916 0.84841 0.0
C1016 C 0.24357 0.6383 0.87742 0.0
C1017 C 0.22816 0.65679 0.89082 0.0
C1018 C 0.21659 0.65334 0.9214 0.0
C1019 C 0.22083 0.63061 0.93879 0.0
C1020 C 0.23661 0.61116 0.92596 0.0
C1021 C 0.24797 0.61524 0.8945 0.0
H1022 H 0.32515 0.23187 0.8896 0.0
H1023 H 0.35537 0.2547 0.79469 0.0
H1024 H 0.39868 0.25411 0.82362 0.0
H1025 H 0.36694 0.27044 0.94688 0.0
H1026 H 0.37062 0.24786 0.98066 0.0
H1027 H 0.34198 0.24794 0.95193 0.0
H1028 H 0.34855 0.20044 0.93509 0.0
H1029 H 0.37722 0.20022 0.96384 0.0
H1030 H 0.37801 0.19043 0.91866 0.0
H1031 H 0.43874 0.25296 0.86314 0.0
H1032 H 0.47269 0.25173 0.91143 0.0
H1033 H 0.41713 0.23121 0.98156 0.0
C1034 C 0.34094 0.2363 0.87481 0.0
C1035 C 0.33681 0.24316 0.83974 0.0
C1036 C 0.35799 0.24937 0.82152 0.0
C1037 C 0.38272 0.24904 0.83771 0.0
C1038 C 0.38616 0.24262 0.87236 0.0
C1039 C 0.3659 0.23639 0.8908 0.0
C1040 C 0.37487 0.23156 0.92835 0.0
C1041 C 0.36289 0.25059 0.95343 0.0
C1042 C 0.36933 0.20402 0.93698 0.0
C1043 C 0.40321 0.23621 0.92807 0.0
C1044 C 0.40932 0.24237 0.89541 0.0
C1045 C 0.43421 0.24795 0.88877 0.0
C1046 C 0.45336 0.24721 0.91623 0.0
C1047 C 0.44754 0.24098 0.94987 0.0
C1048 C 0.4221 0.23554 0.95584 0.0
H1049 H 0.77005 0.32168 0.87731 0.0
H1050 H 0.74128 0.35429 0.78057 0.0
H1051 H 0.74191 0.3968 0.81002 0.0
H1052 H 0.73381 0.36132 0.93287 0.0
H1053 H 0.75854 0.36426 0.96791 0.0
H1054 H 0.75691 0.33642 0.93905 0.0
H1055 H 0.80317 0.34425 0.92495 0.0
H1056 H 0.8049 0.37217 0.95371 0.0
H1057 H 0.81171 0.37446 0.90902 0.0
H1058 H 0.74473 0.43616 0.85025 0.0
H1059 H 0.74835 0.46879 0.89857 0.0
H1060 H 0.77474 0.41158 0.9701 0.0
C1061 C 0.76408 0.33778 0.86221 0.0
C1062 C 0.75572 0.33439 0.82631 0.0
C1063 C 0.7478 0.35612 0.8079 0.0
C1064 C 0.74813 0.38048 0.82447 0.0
C1065 C 0.75635 0.38312 0.85974 0.0
C1066 C 0.76412 0.36235 0.87849 0.0
C1067 C 0.77131 0.37043 0.91645 0.0
C1068 C 0.75412 0.35733 0.94049 0.0
C1069 C 0.79945 0.365 0.92663 0.0
C1070 C 0.76631 0.3989 0.91613 0.0
C1071 C 0.7578 0.4058 0.88304 0.0
C1072 C 0.75149 0.43093 0.87618 0.0
C1073 C 0.75366 0.44938 0.90375 0.0
C1074 C 0.76206 0.44284 0.93797 0.0
C1075 C 0.7686 0.41721 0.94411 0.0
H1076 H 0.69181 0.26352 0.23628 0.0
H1077 H 0.73694 0.22309 0.16321 0.0
H1078 H 0.69884 0.21816 0.1215 0.0
H1079 H 0.63527 0.22561 0.21829 0.0
H1080 H 0.61422 0.25216 0.22318 0.0
H1081 H 0.64505 0.25242 0.24686 0.0
H1082 H 0.65537 0.29523 0.22051 0.0
H1083 H 0.62462 0.29503 0.19659 0.0
H1084 H 0.65286 0.29761 0.17394 0.0
H1085 H 0.65518 0.21814 0.08739 0.0
H1086 H 0.61003 0.2223 0.06491 0.0
H1087 H 0.59391 0.26185 0.16108 0.0
C1088 C 0.69379 0.2536 0.21153 0.0
C1089 C 0.7175 0.24374 0.20306 0.0
C1090 C 0.71905 0.23081 0.17037 0.0
C1091 C 0.69749 0.22795 0.14648 0.0
C1092 C 0.67446 0.23804 0.15568 0.0
C1093 C 0.67251 0.2505 0.18754 0.0
C1094 C 0.64562 0.25944 0.19143 0.0
C1095 C 0.63438 0.24664 0.22173 0.0
C1096 C 0.64457 0.28855 0.19588 0.0
C1097 C 0.63267 0.25018 0.15673 0.0
C1098 C 0.64958 0.23792 0.13636 0.0
C1099 C 0.64186 0.22777 0.10315 0.0
C1100 C 0.61627 0.23022 0.09056 0.0
C1101 C 0.59877 0.24281 0.11103 0.0
C1102 C 0.60708 0.25266 0.14463 0.0
H1103 H 0.75915 0.71161 0.17298 0.0
H1104 H 0.7349 0.67917 0.2661 0.0
H1105 H 0.73678 0.63626 0.23818 0.0
H1106 H 0.72324 0.66894 0.11207 0.0
H1107 H 0.74719 0.66689 0.08155 0.0
H1108 H 0.74485 0.69507 0.10916 0.0
H1109 H 0.79197 0.69037 0.13206 0.0
H1110 H 0.79442 0.66212 0.10457 0.0
H1111 H 0.8026 0.66106 0.15073 0.0
H1112 H 0.74095 0.59646 0.19997 0.0
H1113 H 0.74559 0.56323 0.15364 0.0
H1114 H 0.7662 0.62072 0.08427 0.0
C1115 C 0.75438 0.69548 0.18761 0.0
C1116 C 0.74696 0.69898 0.22202 0.0
C1117 C 0.74065 0.67721 0.23989 0.0
C1118 C 0.74171 0.65266 0.2242 0.0
C1119 C 0.74902 0.6499 0.19037 0.0
C1120 C 0.75516 0.67073 0.17219 0.0
C1121 C 0.76173 0.66247 0.13573 0.0
C1122 C 0.74314 0.67403 0.10799 0.0
C1123 C 0.78932 0.66942 0.13047 0.0
C1124 C 0.75827 0.6338 0.13624 0.0
C1125 C 0.75107 0.62698 0.16814 0.0
C1126 C 0.7466 0.60164 0.17495 0.0
C1127 C 0.7493 0.58286 0.14851 0.0
C1128 C 0.75631 0.58932 0.11543 0.0
C1129 C 0.76099 0.61519 0.10938 0.0
H1130 H 0.31131 0.77393 0.14765 0.0
H1131 H 0.348 0.73033 0.23058 0.0
H1132 H 0.38813 0.73208 0.20349 0.0
H1133 H 0.34493 0.7451 0.07832 0.0
H1134 H 0.34805 0.7741 0.05596 0.0
H1135 H 0.32163 0.76985 0.08169 0.0
H1136 H 0.33379 0.81142 0.11739 0.0
H1137 H 0.36025 0.8158 0.09175 0.0
H1138 H 0.36541 0.81513 0.13842 0.0
H1139 H 0.42418 0.7372 0.1678 0.0
H1140 H 0.45453 0.74584 0.12514 0.0
H1141 H 0.39649 0.78777 0.06522 0.0
C1142 C 0.32779 0.76478 0.16006 0.0
C1143 C 0.32628 0.75199 0.1914 0.0
C1144 C 0.34842 0.74031 0.20672 0.0
C1145 C 0.37145 0.74116 0.19151 0.0
C1146 C 0.37235 0.75385 0.16086 0.0
C1147 C 0.35123 0.76553 0.1452 0.0
C1148 C 0.35781 0.77785 0.11218 0.0
C1149 C 0.34217 0.76601 0.08014 0.0
C1150 C 0.35409 0.80677 0.11512 0.0
C1151 C 0.38578 0.77108 0.11184 0.0
C1152 C 0.39364 0.75723 0.14026 0.0
C1153 C 0.41836 0.74829 0.1456 0.0
C1154 C 0.4356 0.75356 0.12125 0.0
C1155 C 0.42828 0.76786 0.09178 0.0
C1156 C 0.40288 0.77673 0.08724 0.0
H1157 H 0.26379 0.33068 0.2226 0.0
H1158 H 0.21434 0.27866 0.15846 0.0
H1159 H 0.20865 0.31089 0.11365 0.0
H1160 H 0.23065 0.38854 0.20162 0.0
H1161 H 0.25909 0.40725 0.20078 0.0
H1162 H 0.25902 0.38029 0.22788 0.0
H1163 H 0.29715 0.36124 0.19811 0.0
H1164 H 0.29733 0.38814 0.17088 0.0
H1165 H 0.29489 0.35642 0.15146 0.0
H1166 H 0.20727 0.3499 0.07613 0.0
H1167 H 0.21182 0.39079 0.04829 0.0
H1168 H 0.26392 0.41728 0.13502 0.0
C1169 C 0.25166 0.32603 0.19918 0.0
C1170 C 0.23933 0.30193 0.19442 0.0
C1171 C 0.22395 0.29679 0.16302 0.0
C1172 C 0.2206 0.31508 0.13735 0.0
C1173 C 0.23298 0.33856 0.14294 0.0
C1174 C 0.2484 0.34398 0.17301 0.0
C1175 C 0.25999 0.37046 0.17232 0.0
C1176 C 0.25169 0.38765 0.20244 0.0
C1177 C 0.28907 0.36897 0.17325 0.0
C1178 C 0.24853 0.37927 0.13733 0.0
C1179 C 0.23288 0.36059 0.12091 0.0
C1180 C 0.21959 0.36451 0.08881 0.0
C1181 C 0.22223 0.38795 0.07318 0.0
C1182 C 0.23824 0.4075 0.0892 0.0
C1183 C 0.25172 0.4028 0.12174 0.0
H1184 H 0.32189 0.24063 0.22099 0.0
H1185 H 0.34875 0.29422 0.30448 0.0
H1186 H 0.39023 0.29653 0.27917 0.0
H1187 H 0.38106 0.20703 0.21342 0.0
H1188 H 0.37599 0.20318 0.16676 0.0
H1189 H 0.34925 0.20501 0.19266 0.0
H1190 H 0.33122 0.24249 0.15708 0.0
H1191 H 0.35795 0.24088 0.1312 0.0
H1192 H 0.35063 0.27025 0.15379 0.0
H1193 H 0.42866 0.2938 0.2424 0.0
H1194 H 0.45966 0.28663 0.19859 0.0
H1195 H 0.40685 0.23464 0.13989 0.0
C1196 C 0.3365 0.2527 0.23435 0.0
C1197 C 0.33197 0.26717 0.26499 0.0
C1198 C 0.35171 0.28285 0.28117 0.0
C1199 C 0.37534 0.28429 0.26691 0.0
C1200 C 0.37897 0.26995 0.23642 0.0
C1201 C 0.36001 0.25442 0.22045 0.0
C1202 C 0.36815 0.24146 0.18741 0.0
C1203 C 0.36865 0.21245 0.19025 0.0
C1204 C 0.35097 0.24924 0.1555 0.0
C1205 C 0.39467 0.25219 0.18696 0.0
C1206 C 0.40068 0.26851 0.21546 0.0
C1207 C 0.42411 0.28091 0.22017 0.0
C1208 C 0.44171 0.27659 0.19516 0.0
C1209 C 0.43588 0.26003 0.16557 0.0
C1210 C 0.41197 0.24765 0.16182 0.0
H1211 H 0.74399 0.35218 0.25789 0.0
H1212 H 0.81764 0.32111 0.23837 0.0
H1213 H 0.82502 0.35644 0.20075 0.0
H1214 H 0.72758 0.36936 0.17285 0.0
H1215 H 0.71152 0.39843 0.18365 0.0
H1216 H 0.71306 0.37297 0.21333 0.0
H1217 H 0.73364 0.40317 0.26247 0.0
H1218 H 0.73181 0.42887 0.23307 0.0
H1219 H 0.76185 0.42071 0.25532 0.0
H1220 H 0.82283 0.39138 0.1609 0.0
H1221 H 0.81224 0.42625 0.12221 0.0
H1222 H 0.73976 0.43583 0.16621 0.0
C1223 C 0.76197 0.35339 0.24656 0.0
C1224 C 0.78042 0.33419 0.25124 0.0
C1225 C 0.80338 0.33578 0.23517 0.0
C1226 C 0.80774 0.35575 0.21381 0.0
C1227 C 0.78889 0.37391 0.20868 0.0
C1228 C 0.76652 0.37314 0.22468 0.0
C1229 C 0.74869 0.3941 0.21236 0.0
C1230 C 0.72374 0.38304 0.19449 0.0
C1231 C 0.74371 0.41283 0.24261 0.0
C1232 C 0.76438 0.40631 0.18645 0.0
C1233 C 0.78755 0.39438 0.18508 0.0
C1234 C 0.80498 0.40127 0.16221 0.0
C1235 C 0.7988 0.42118 0.14041 0.0
C1236 C 0.77537 0.43413 0.14161 0.0
C1237 C 0.75785 0.4264 0.16481 0.0
H1238 H 0.66704 0.77246 0.20067 0.0
H1239 H 0.71956 0.80767 0.13658 0.0
H1240 H 0.68688 0.80604 0.08715 0.0
H1241 H 0.63731 0.73011 0.13452 0.0
H1242 H 0.60585 0.73366 0.14865 0.0
H1243 H 0.63315 0.73774 0.17962 0.0
H1244 H 0.61772 0.78264 0.19776 0.0
H1245 H 0.5902 0.77854 0.16722 0.0
H1246 H 0.61081 0.80554 0.16496 0.0
H1247 H 0.64913 0.79927 0.04372 0.0
H1248 H 0.60736 0.79132 0.01098 0.0
H1249 H 0.57844 0.76223 0.10313 0.0
C1250 C 0.6716 0.78004 0.17634 0.0
C1251 C 0.69599 0.79021 0.17267 0.0
C1252 C 0.70108 0.79988 0.14027 0.0
C1253 C 0.68265 0.79892 0.11188 0.0
C1254 C 0.65902 0.78841 0.11619 0.0
C1255 C 0.65328 0.77946 0.14771 0.0
C1256 C 0.62619 0.76955 0.14542 0.0
C1257 C 0.62561 0.74107 0.15248 0.0
C1258 C 0.61029 0.78499 0.17031 0.0
C1259 C 0.6177 0.77421 0.10769 0.0
C1260 C 0.63704 0.78491 0.09124 0.0
C1261 C 0.63385 0.7909 0.05633 0.0
C1262 C 0.61017 0.78621 0.03789 0.0
C1263 C 0.58995 0.77569 0.05431 0.0
C1264 C 0.59381 0.76965 0.0897 0.0
H1265 H 0.25091 0.67623 0.18146 0.0
H1266 H 0.28178 0.64386 0.27742 0.0
H1267 H 0.27485 0.60064 0.25017 0.0
H1268 H 0.20257 0.62875 0.15748 0.0
H1269 H 0.207 0.62962 0.1118 0.0
H1270 H 0.21311 0.65761 0.13971 0.0
H1271 H 0.2588 0.66028 0.12041 0.0
H1272 H 0.25273 0.6325 0.09224 0.0
H1273 H 0.27935 0.6331 0.12465 0.0
H1274 H 0.26601 0.56076 0.21033 0.0
H1275 H 0.25814 0.5288 0.16127 0.0
H1276 H 0.23371 0.58866 0.09297 0.0
C1277 C 0.25607 0.66013 0.19703 0.0
C1278 C 0.26681 0.66344 0.23166 0.0
C1279 C 0.2735 0.64177 0.25084 0.0
C1280 C 0.26953 0.61718 0.23562 0.0
C1281 C 0.25885 0.61469 0.20131 0.0
C1282 C 0.25233 0.63569 0.18234 0.0
C1283 C 0.24238 0.62833 0.14548 0.0
C1284 C 0.21462 0.63657 0.13821 0.0
C1285 C 0.25933 0.63919 0.11916 0.0
C1286 C 0.24454 0.59984 0.14636 0.0
C1287 C 0.25383 0.59215 0.17878 0.0
C1288 C 0.25842 0.56659 0.18502 0.0
C1289 C 0.25381 0.54859 0.15722 0.0
C1290 C 0.24481 0.5564 0.12386 0.0
C1291 C 0.23991 0.58225 0.11858 0.0
H1292 H 0.34796 0.74819 0.75737 0.0
H1293 H 0.30122 0.78997 0.82749 0.0
H1294 H 0.33743 0.79429 0.87096 0.0
H1295 H 0.38472 0.71424 0.82317 0.0
H1296 H 0.41439 0.71663 0.80379 0.0
H1297 H 0.38489 0.71654 0.77677 0.0
H1298 H 0.39708 0.75921 0.75171 0.0
H1299 H 0.42671 0.75931 0.77845 0.0
H1300 H 0.40555 0.786 0.78101 0.0
H1301 H 0.37682 0.79276 0.90839 0.0
H1302 H 0.42 0.78897 0.93655 0.0
H1303 H 0.44399 0.75023 0.84357 0.0
C1304 C 0.34546 0.7584 0.78175 0.0
C1305 C 0.32153 0.76864 0.78881 0.0
C1306 C 0.31915 0.78187 0.82116 0.0
C1307 C 0.33966 0.78442 0.84627 0.0
C1308 C 0.36273 0.77387 0.83883 0.0
C1309 C 0.36603 0.7614 0.80735 0.0
C1310 C 0.39332 0.7523 0.80653 0.0
C1311 C 0.39438 0.7232 0.80231 0.0
C1312 C 0.40644 0.76497 0.77771 0.0
C1313 C 0.40454 0.76158 0.84247 0.0
C1314 C 0.38629 0.77374 0.86056 0.0
C1315 C 0.3914 0.78351 0.89445 0.0
C1316 C 0.41597 0.78121 0.91026 0.0
C1317 C 0.43534 0.76955 0.89214 0.0
C1318 C 0.42952 0.75937 0.85785 0.0
H1319 H 0.27207 0.35815 0.79913 0.0
H1320 H 0.24268 0.3028 0.86583 0.0
H1321 H 0.23171 0.33708 0.90672 0.0
H1322 H 0.30016 0.39908 0.86746 0.0
H1323 H 0.29209 0.42812 0.84624 0.0
H1324 H 0.29661 0.39937 0.82064 0.0
H1325 H 0.25174 0.40414 0.78907 0.0
H1326 H 0.24711 0.43295 0.81456 0.0
H1327 H 0.22466 0.4072 0.81429 0.0
H1328 H 0.22574 0.37649 0.94218 0.0
H1329 H 0.22554 0.41967 0.97015 0.0
H1330 H 0.25727 0.45007 0.88076 0.0
C1331 C 0.26315 0.3533 0.82218 0.0
C1332 C 0.2583 0.32774 0.82917 0.0
C1333 C 0.24669 0.32219 0.85978 0.0
C1334 C 0.24027 0.34154 0.88324 0.0
C1335 C 0.24544 0.36645 0.87579 0.0
C1336 C 0.25654 0.37249 0.84605 0.0
C1337 C 0.2607 0.40089 0.84509 0.0
C1338 C 0.28908 0.40723 0.84485 0.0
C1339 C 0.24512 0.41194 0.8139 0.0
C1340 C 0.25058 0.40965 0.87915 0.0
C1341 C 0.24178 0.38944 0.89635 0.0
C1342 C 0.23241 0.39253 0.92891 0.0
C1343 C 0.23234 0.41699 0.94457 0.0
C1344 C 0.24167 0.4378 0.92764 0.0
C1345 C 0.25037 0.43422 0.89426 0.0
H1346 H 0.6814 0.26326 0.83856 0.0
H1347 H 0.72976 0.2074 0.89026 0.0
H1348 H 0.69637 0.19898 0.92914 0.0
H1349 H 0.65547 0.2887 0.91567 0.0
H1350 H 0.62415 0.29356 0.89483 0.0
H1351 H 0.65139 0.2946 0.86992 0.0
H1352 H 0.63128 0.25978 0.82682 0.0
H1353 H 0.60396 0.25866 0.85157 0.0
H1354 H 0.62153 0.23008 0.84308 0.0
H1355 H 0.65809 0.19687 0.96314 0.0
H1356 H 0.61799 0.20187 0.9908 0.0
H1357 H 0.59396 0.25945 0.91809 0.0
C1358 C 0.68489 0.2491 0.85786 0.0
C1359 C 0.70829 0.23591 0.86114 0.0
C1360 C 0.7121 0.21777 0.8871 0.0
C1361 C 0.69319 0.21281 0.90934 0.0
C1362 C 0.67048 0.22621 0.90557 0.0
C1363 C 0.66623 0.24405 0.88057 0.0
C1364 C 0.64034 0.25629 0.8828 0.0
C1365 C 0.64301 0.28499 0.89132 0.0
C1366 C 0.62327 0.25087 0.84906 0.0
C1367 C 0.63075 0.24257 0.91296 0.0
C1368 C 0.64843 0.22521 0.92554 0.0
C1369 C 0.64405 0.2103 0.95335 0.0
C1370 C 0.62106 0.21316 0.96876 0.0
C1371 C 0.60255 0.23087 0.95653 0.0
C1372 C 0.60765 0.24579 0.92821 0.0
H1373 H 0.78932 0.7072 0.8609 0.0
H1374 H 0.75437 0.67748 0.76149 0.0
H1375 H 0.74519 0.63733 0.78778 0.0
H1376 H 0.81821 0.64656 0.88724 0.0
H1377 H 0.8128 0.65241 0.93232 0.0
H1378 H 0.81777 0.67866 0.9053 0.0
H1379 H 0.7752 0.69826 0.92153 0.0
H1380 H 0.7699 0.67186 0.94813 0.0
H1381 H 0.74644 0.67978 0.91372 0.0
H1382 H 0.73599 0.60191 0.82537 0.0
H1383 H 0.73312 0.57072 0.87111 0.0
H1384 H 0.7759 0.62175 0.94524 0.0
C1385 C 0.78017 0.69209 0.84455 0.0
C1386 C 0.77249 0.69564 0.80915 0.0
C1387 C 0.76044 0.67536 0.78869 0.0
C1388 C 0.75501 0.65242 0.80337 0.0
C1389 C 0.76204 0.64982 0.83849 0.0
C1390 C 0.77483 0.66882 0.85872 0.0
C1391 C 0.78024 0.66091 0.89586 0.0
C1392 C 0.80897 0.65955 0.90575 0.0
C1393 C 0.76716 0.67877 0.9213 0.0
C1394 C 0.76819 0.63473 0.89326 0.0
C1395 C 0.75755 0.62884 0.86 0.0
C1396 C 0.74449 0.60613 0.85145 0.0
C1397 C 0.74276 0.58866 0.87751 0.0
C1398 C 0.7543 0.59399 0.91135 0.0
C1399 C 0.76702 0.61734 0.91937 0.0
loop_
_geom_bond_atom_site_label_1
_geom_bond_atom_site_label_2
_geom_bond_distance
_geom_bond_site_symmetry_2
_ccdc_geom_bond_type
C0 O2 1.247 . S
C0 O4 1.258 . S
C1 O8 1.247 . S
C1 O9 1.258 . S
O2 C0 1.247 . S
O2 Zn3 2.028 . S
Zn3 O2 2.028 . S
Zn3 O7 2.035 . S
Zn3 O9 2.035 . S
Zn3 O10 2.028 . S
O4 C0 1.258 . S
O4 Zn5 2.035 . S
Zn5 O4 2.035 . S
Zn5 O6 2.028 . S
Zn5 O8 2.028 . S
Zn5 O11 2.035 . S
O6 Zn5 2.028 . S
O6 C12 1.247 . S
O7 Zn3 2.035 . S
O7 C12 1.258 . S
O8 C1 1.247 . S
O8 Zn5 2.028 . S
O9 C1 1.258 . S
O9 Zn3 2.035 . S
O10 Zn3 2.028 . S
O10 C13 1.247 . S
O11 Zn5 2.035 . S
O11 C13 1.258 . S
C12 O6 1.247 . S
C12 O7 1.258 . S
C13 O10 1.247 . S
C13 O11 1.258 . S
C14 O16 1.247 . S
C14 O18 1.258 . S
C15 O22 1.247 . S
C15 O23 1.258 . S
O16 C14 1.247 . S
O16 Zn17 2.028 . S
Zn17 O16 2.028 . S
Zn17 O21 2.035 . S
Zn17 O23 2.035 . S
Zn17 O24 2.028 . S
O18 C14 1.258 . S
O18 Zn19 2.035 . S
Zn19 O18 2.035 . S
Zn19 O20 2.028 . S
Zn19 O22 2.028 . S
Zn19 O25 2.035 . S
O20 Zn19 2.028 . S
O20 C26 1.247 . S
O21 Zn17 2.035 . S
O21 C26 1.258 . S
O22 C15 1.247 . S
O22 Zn19 2.028 . S
O23 C15 1.258 . S
O23 Zn17 2.035 . S
O24 Zn17 2.028 . S
O24 C27 1.247 . S
O25 Zn19 2.035 . S
O25 C27 1.258 . S
C26 O20 1.247 . S
C26 O21 1.258 . S
C27 O24 1.247 . S
C27 O25 1.258 . S
C28 O30 1.247 . S
C28 O32 1.258 . S
C29 O36 1.247 . S
C29 O37 1.258 . S
O30 C28 1.247 . S
O30 Zn31 2.028 . S
Zn31 O30 2.028 . S
Zn31 O35 2.035 . S
Zn31 O37 2.035 . S
Zn31 O38 2.028 . S
O32 C28 1.258 . S
O32 Zn33 2.035 . S
Zn33 O32 2.035 . S
Zn33 O34 2.028 . S
Zn33 O36 2.028 . S
Zn33 O39 2.035 . S
O34 Zn33 2.028 . S
O34 C40 1.247 . S
O35 Zn31 2.035 . S
O35 C40 1.258 . S
O36 C29 1.247 . S
O36 Zn33 2.028 . S
O37 C29 1.258 . S
O37 Zn31 2.035 . S
O38 Zn31 2.028 . S
O38 C41 1.247 . S
O39 Zn33 2.035 . S
O39 C41 1.258 . S
C40 O34 1.247 . S
C40 O35 1.258 . S
C41 O38 1.247 . S
C41 O39 1.258 . S
C42 O44 1.247 . S
C42 O46 1.258 . S
C43 O50 1.247 . S
C43 O51 1.258 . S
O44 C42 1.247 . S
O44 Zn45 2.028 . S
Zn45 O44 2.028 . S
Zn45 O49 2.035 . S
Zn45 O51 2.035 . S
Zn45 O52 2.028 . S
O46 C42 1.258 . S
O46 Zn47 2.035 . S
Zn47 O46 2.035 . S
Zn47 O48 2.028 . S
Zn47 O50 2.028 . S
Zn47 O53 2.035 . S
O48 Zn47 2.028 . S
O48 C54 1.247 . S
O49 Zn45 2.035 . S
O49 C54 1.258 . S
O50 C43 1.247 . S
O50 Zn47 2.028 . S
O51 C43 1.258 . S
O51 Zn45 2.035 . S
O52 Zn45 2.028 . S
O52 C55 1.247 . S
O53 Zn47 2.035 . S
O53 C55 1.258 . S
C54 O48 1.247 . S
C54 O49 1.258 . S
C55 O52 1.247 . S
C55 O53 1.258 . S
C56 O58 1.247 . S
C56 O60 1.258 . S
C57 O64 1.247 . S
C57 O65 1.258 . S
O58 C56 1.247 . S
O58 Zn59 2.028 . S
Zn59 O58 2.028 . S
Zn59 O63 2.035 . S
Zn59 O65 2.035 . S
Zn59 O66 2.028 . S
O60 C56 1.258 . S
O60 Zn61 2.035 . S
Zn61 O60 2.035 . S
Zn61 O62 2.028 . S
Zn61 O64 2.028 . S
Zn61 O67 2.035 . S
O62 Zn61 2.028 . S
O62 C68 1.247 . S
O63 Zn59 2.035 . S
O63 C68 1.258 . S
O64 C57 1.247 . S
O64 Zn61 2.028 . S
O65 C57 1.258 . S
O65 Zn59 2.035 . S
O66 Zn59 2.028 . S
O66 C69 1.247 . S
O67 Zn61 2.035 . S
O67 C69 1.258 . S
C68 O62 1.247 . S
C68 O63 1.258 . S
C69 O66 1.247 . S
C69 O67 1.258 . S
C70 O72 1.247 . S
C70 O74 1.258 . S
C71 O78 1.247 . S
C71 O79 1.258 . S
O72 C70 1.247 . S
O72 Zn73 2.028 . S
Zn73 O72 2.028 . S
Zn73 O77 2.035 . S
Zn73 O79 2.035 . S
Zn73 O80 2.028 . S
O74 C70 1.258 . S
O74 Zn75 2.035 . S
Zn75 O74 2.035 . S
Zn75 O76 2.028 . S
Zn75 O78 2.028 . S
Zn75 O81 2.035 . S
O76 Zn75 2.028 . S
O76 C82 1.247 . S
O77 Zn73 2.035 . S
O77 C82 1.258 . S
O78 C71 1.247 . S
O78 Zn75 2.028 . S
O79 C71 1.258 . S
O79 Zn73 2.035 . S
O80 Zn73 2.028 . S
O80 C83 1.247 . S
O81 Zn75 2.035 . S
O81 C83 1.258 . S
C82 O76 1.247 . S
C82 O77 1.258 . S
C83 O80 1.247 . S
C83 O81 1.258 . S
C84 O86 1.247 . S
C84 O88 1.258 . S
C85 O92 1.247 . S
C85 O93 1.258 . S
O86 C84 1.247 . S
O86 Zn87 2.028 . S
Zn87 O86 2.028 . S
Zn87 O91 2.035 . S
Zn87 O93 2.035 . S
Zn87 O94 2.028 . S
O88 C84 1.258 . S
O88 Zn89 2.035 . S
Zn89 O88 2.035 . S
Zn89 O90 2.028 . S
Zn89 O92 2.028 . S
Zn89 O95 2.035 . S
O90 Zn89 2.028 . S
O90 C96 1.247 . S
O91 Zn87 2.035 . S
O91 C96 1.258 . S
O92 C85 1.247 . S
O92 Zn89 2.028 . S
O93 C85 1.258 . S
O93 Zn87 2.035 . S
O94 Zn87 2.028 . S
O94 C97 1.247 . S
O95 Zn89 2.035 . S
O95 C97 1.258 . S
C96 O90 1.247 . S
C96 O91 1.258 . S
C97 O94 1.247 . S
C97 O95 1.258 . S
C98 O100 1.247 . S
C98 O102 1.258 . S
C99 O106 1.247 . S
C99 O107 1.258 . S
O100 C98 1.247 . S
O100 Zn101 2.028 . S
Zn101 O100 2.028 . S
Zn101 O105 2.035 . S
Zn101 O107 2.035 . S
Zn101 O108 2.028 . S
O102 C98 1.258 . S
O102 Zn103 2.035 . S
Zn103 O102 2.035 . S
Zn103 O104 2.028 . S
Zn103 O106 2.028 . S
Zn103 O109 2.035 . S
O104 Zn103 2.028 . S
O104 C110 1.247 . S
O105 Zn101 2.035 . S
O105 C110 1.258 . S
O106 C99 1.247 . S
O106 Zn103 2.028 . S
O107 C99 1.258 . S
O107 Zn101 2.035 . S
O108 Zn101 2.028 . S
O108 C111 1.247 . S
O109 Zn103 2.035 . S
O109 C111 1.258 . S
C110 O104 1.247 . S
C110 O105 1.258 . S
C111 O108 1.247 . S
C111 O109 1.258 . S
C112 C113 1.443 . S
C112 N116 1.376 . S
C112 C150 1.389 . S
C113 C112 1.443 . S
C113 C114 1.340 . S
C113 H153 0.951 . S
C114 C113 1.340 . S
C114 C115 1.439 . S
C114 H154 0.950 . S
C115 C114 1.439 . S
C115 N116 1.374 . S
C115 C149 1.395 . S
N116 C112 1.376 . S
N116 C115 1.374 . S
N116 Co117 2.008 . S
Co117 N116 2.008 . S
Co117 N118 1.995 1_455 S
Co117 N123 2.008 1_455 S
Co117 N128 1.995 . S
Co117 N133 2.282 1_455 S
Co117 N139 2.282 . S
N118 Co117 1.995 1_655 S
N118 C119 1.376 . S
N118 C122 1.383 . S
C119 N118 1.376 . S
C119 C120 1.446 . S
C119 C149 1.391 1_655 S
C120 C119 1.446 . S
C120 C121 1.339 . S
C120 H155 0.949 . S
C121 C120 1.339 . S
C121 C122 1.439 . S
C121 H156 0.950 . S
C122 N118 1.383 . S
C122 C121 1.439 . S
C122 C151 1.392 . S
N123 Co117 2.008 1_655 S
N123 C124 1.376 . S
N123 C127 1.374 . S
C124 N123 1.376 . S
C124 C125 1.443 . S
C124 C151 1.389 . S
C125 C124 1.443 . S
C125 C126 1.340 . S
C125 H157 0.951 . S
C126 C125 1.340 . S
C126 C127 1.439 . S
C126 H158 0.950 . S
C127 N123 1.374 . S
C127 C126 1.439 . S
C127 C152 1.396 . S
N128 Co117 1.995 . S
N128 C129 1.376 . S
N128 C132 1.383 . S
C129 N128 1.376 . S
C129 C130 1.446 . S
C129 C152 1.390 1_455 S
C130 C129 1.446 . S
C130 C131 1.339 . S
C130 H159 0.949 . S
C131 C130 1.339 . S
C131 C132 1.439 . S
C131 H160 0.950 . S
C132 N128 1.383 . S
C132 C131 1.439 . S
C132 C150 1.392 . S
N133 Co117 2.282 1_655 S
N133 C136 1.332 . S
N133 C138 1.332 . S
C134 C135 1.386 . S
C134 C137 1.388 . S
C135 C134 1.386 . S
C135 C136 1.382 . S
C135 H161 0.950 . S
C136 N133 1.332 . S
C136 C135 1.382 . S
C136 H147 0.952 . S
C137 C134 1.388 . S
C137 C138 1.382 . S
C137 H162 0.950 . S
C138 N133 1.332 . S
C138 C137 1.382 . S
C138 H148 0.948 . S
N139 Co117 2.282 . S
N139 C143 1.332 . S
N139 C144 1.332 . S
C140 C141 1.388 . S
C140 C144 1.382 . S
C140 H163 0.950 . S
C141 C140 1.388 . S
C141 C142 1.386 . S
C142 C141 1.386 . S
C142 C143 1.382 . S
C142 H164 0.950 . S
C143 N139 1.332 . S
C143 C142 1.382 . S
C143 H145 0.952 . S
C144 N139 1.332 . S
C144 C140 1.382 . S
C144 H146 0.948 . S
H145 C143 0.952 . S
H146 C144 0.948 . S
H147 C136 0.952 . S
H148 C138 0.948 . S
C149 C115 1.395 . S
C149 C119 1.391 1_455 S
C150 C112 1.389 . S
C150 C132 1.392 . S
C151 C122 1.392 . S
C151 C124 1.389 . S
C152 C127 1.396 . S
C152 C129 1.390 1_655 S
H153 C113 0.951 . S
H154 C114 0.950 . S
H155 C120 0.949 . S
H156 C121 0.950 . S
H157 C125 0.951 . S
H158 C126 0.950 . S
H159 C130 0.949 . S
H160 C131 0.950 . S
H161 C135 0.950 . S
H162 C137 0.950 . S
H163 C140 0.950 . S
H164 C142 0.950 . S
C165 C166 1.443 . S
C165 N169 1.376 . S
C165 C203 1.389 . S
C166 C165 1.443 . S
C166 C167 1.340 . S
C166 H206 0.951 . S
C167 C166 1.340 . S
C167 C168 1.439 . S
C167 H207 0.950 . S
C168 C167 1.439 . S
C168 N169 1.374 . S
C168 C202 1.395 . S
N169 C165 1.376 . S
N169 C168 1.374 . S
N169 Co170 2.008 . S
Co170 N169 2.008 . S
Co170 N171 1.995 1_545 S
Co170 N176 2.008 1_545 S
Co170 N181 1.995 . S
Co170 N186 2.282 1_545 S
Co170 N192 2.282 . S
N171 Co170 1.995 1_565 S
N171 C172 1.376 . S
N171 C175 1.383 . S
C172 N171 1.376 . S
C172 C173 1.446 . S
C172 C202 1.391 1_565 S
C173 C172 1.446 . S
C173 C174 1.339 . S
C173 H208 0.949 . S
C174 C173 1.339 . S
C174 C175 1.439 . S
C174 H209 0.950 . S
C175 N171 1.383 . S
C175 C174 1.439 . S
C175 C204 1.392 . S
N176 Co170 2.008 1_565 S
N176 C177 1.376 . S
N176 C180 1.374 . S
C177 N176 1.376 . S
C177 C178 1.443 . S
C177 C204 1.389 . S
C178 C177 1.443 . S
C178 C179 1.340 . S
C178 H210 0.951 . S
C179 C178 1.340 . S
C179 C180 1.439 . S
C179 H211 0.950 . S
C180 N176 1.374 . S
C180 C179 1.439 . S
C180 C205 1.395 . S
N181 Co170 1.995 . S
N181 C182 1.376 . S
N181 C185 1.383 . S
C182 N181 1.376 . S
C182 C183 1.446 . S
C182 C205 1.391 1_545 S
C183 C182 1.446 . S
C183 C184 1.339 . S
C183 H212 0.949 . S
C184 C183 1.339 . S
C184 C185 1.439 . S
C184 H213 0.950 . S
C185 N181 1.383 . S
C185 C184 1.439 . S
C185 C203 1.392 . S
N186 Co170 2.282 1_565 S
N186 C189 1.332 . S
N186 C191 1.332 . S
C187 C188 1.386 . S
C187 C190 1.388 . S
C188 C187 1.386 . S
C188 C189 1.382 . S
C188 H214 0.950 . S
C189 N186 1.332 . S
C189 C188 1.382 . S
C189 H200 0.952 . S
C190 C187 1.388 . S
C190 C191 1.382 . S
C190 H215 0.950 . S
C191 N186 1.332 . S
C191 C190 1.382 . S
C191 H201 0.948 . S
N192 Co170 2.282 . S
N192 C196 1.332 . S
N192 C197 1.332 . S
C193 C194 1.388 . S
C193 C197 1.382 . S
C193 H216 0.950 . S
C194 C193 1.388 . S
C194 C195 1.386 . S
C195 C194 1.386 . S
C195 C196 1.382 . S
C195 H217 0.950 . S
C196 N192 1.332 . S
C196 C195 1.382 . S
C196 H198 0.952 . S
C197 N192 1.332 . S
C197 C193 1.382 . S
C197 H199 0.948 . S
H198 C196 0.952 . S
H199 C197 0.948 . S
H200 C189 0.952 . S
H201 C191 0.948 . S
C202 C168 1.395 . S
C202 C172 1.391 1_545 S
C203 C165 1.389 . S
C203 C185 1.392 . S
C204 C175 1.392 . S
C204 C177 1.389 . S
C205 C180 1.395 . S
C205 C182 1.391 1_565 S
H206 C166 0.951 . S
H207 C167 0.950 . S
H208 C173 0.949 . S
H209 C174 0.950 . S
H210 C178 0.951 . S
H211 C179 0.950 . S
H212 C183 0.949 . S
H213 C184 0.950 . S
H214 C188 0.950 . S
H215 C190 0.950 . S
H216 C193 0.950 . S
H217 C195 0.950 . S
C218 C219 1.443 . S
C218 N222 1.376 . S
C218 C256 1.389 . S
C219 C218 1.443 . S
C219 C220 1.340 . S
C219 H259 0.951 . S
C220 C219 1.340 . S
C220 C221 1.439 . S
C220 H260 0.950 . S
C221 C220 1.439 . S
C221 N222 1.374 . S
C221 C255 1.395 . S
N222 C218 1.376 . S
N222 C221 1.374 . S
N222 Co223 2.008 . S
Co223 N222 2.008 . S
Co223 N224 1.995 1_455 S
Co223 N229 2.008 1_455 S
Co223 N234 1.995 . S
Co223 N239 2.282 1_455 S
Co223 N245 2.282 . S
N224 Co223 1.995 1_655 S
N224 C225 1.376 . S
N224 C228 1.383 . S
C225 N224 1.376 . S
C225 C226 1.446 . S
C225 C255 1.391 1_655 S
C226 C225 1.446 . S
C226 C227 1.339 . S
C226 H261 0.949 . S
C227 C226 1.339 . S
C227 C228 1.439 . S
C227 H262 0.950 . S
C228 N224 1.383 . S
C228 C227 1.439 . S
C228 C257 1.392 . S
N229 Co223 2.008 1_655 S
N229 C230 1.376 . S
N229 C233 1.374 . S
C230 N229 1.376 . S
C230 C231 1.443 . S
C230 C257 1.389 . S
C231 C230 1.443 . S
C231 C232 1.340 . S
C231 H263 0.951 . S
C232 C231 1.340 . S
C232 C233 1.439 . S
C232 H264 0.950 . S
C233 N229 1.374 . S
C233 C232 1.439 . S
C233 C258 1.395 . S
N234 Co223 1.995 . S
N234 C235 1.376 . S
N234 C238 1.383 . S
C235 N234 1.376 . S
C235 C236 1.446 . S
C235 C258 1.391 1_455 S
C236 C235 1.446 . S
C236 C237 1.339 . S
C236 H265 0.949 . S
C237 C236 1.339 . S
C237 C238 1.439 . S
C237 H266 0.950 . S
C238 N234 1.383 . S
C238 C237 1.439 . S
C238 C256 1.392 . S
N239 Co223 2.282 1_655 S
N239 C242 1.332 . S
N239 C244 1.332 . S
C240 C241 1.386 . S
C240 C243 1.388 . S
C241 C240 1.386 . S
C241 C242 1.382 . S
C241 H267 0.950 . S
C242 N239 1.332 . S
C242 C241 1.382 . S
C242 H253 0.952 . S
C243 C240 1.388 . S
C243 C244 1.382 . S
C243 H268 0.950 . S
C244 N239 1.332 . S
C244 C243 1.382 . S
C244 H254 0.948 . S
N245 Co223 2.282 . S
N245 C249 1.332 . S
N245 C250 1.332 . S
C246 C247 1.388 . S
C246 C250 1.382 . S
C246 H269 0.950 . S
C247 C246 1.388 . S
C247 C248 1.386 . S
C248 C247 1.386 . S
C248 C249 1.382 . S
C248 H270 0.950 . S
C249 N245 1.332 . S
C249 C248 1.382 . S
C249 H251 0.952 . S
C250 N245 1.332 . S
C250 C246 1.382 . S
C250 H252 0.948 . S
H251 C249 0.952 . S
H252 C250 0.948 . S
H253 C242 0.952 . S
H254 C244 0.948 . S
C255 C221 1.395 . S
C255 C225 1.391 1_455 S
C256 C218 1.389 . S
C256 C238 1.392 . S
C257 C228 1.392 . S
C257 C230 1.389 . S
C258 C233 1.395 . S
C258 C235 1.391 1_655 S
H259 C219 0.951 . S
H260 C220 0.950 . S
H261 C226 0.949 . S
H262 C227 0.950 . S
H263 C231 0.951 . S
H264 C232 0.950 . S
H265 C236 0.949 . S
H266 C237 0.950 . S
H267 C241 0.950 . S
H268 C243 0.950 . S
H269 C246 0.950 . S
H270 C248 0.950 . S
C271 C272 1.443 . S
C271 N275 1.376 . S
C271 C309 1.389 . S
C272 C271 1.443 . S
C272 C273 1.340 . S
C272 H312 0.951 . S
C273 C272 1.340 . S
C273 C274 1.439 . S
C273 H313 0.950 . S
C274 C273 1.439 . S
C274 N275 1.374 . S
C274 C308 1.395 . S
N275 C271 1.376 . S
N275 C274 1.374 . S
N275 Co276 2.008 1_565 S
Co276 N275 2.008 1_545 S
Co276 N277 1.995 . S
Co276 N282 2.008 . S
Co276 N287 1.995 1_545 S
Co276 N292 2.282 . S
Co276 N298 2.282 1_545 S
N277 Co276 1.995 . S
N277 C278 1.376 . S
N277 C281 1.383 . S
C278 N277 1.376 . S
C278 C279 1.446 . S
C278 C308 1.391 1_545 S
C279 C278 1.446 . S
C279 C280 1.339 . S
C279 H314 0.949 . S
C280 C279 1.339 . S
C280 C281 1.439 . S
C280 H315 0.950 . S
C281 N277 1.383 . S
C281 C280 1.439 . S
C281 C310 1.392 . S
N282 Co276 2.008 . S
N282 C283 1.376 . S
N282 C286 1.374 . S
C283 N282 1.376 . S
C283 C284 1.443 . S
C283 C310 1.389 . S
C284 C283 1.443 . S
C284 C285 1.340 . S
C284 H316 0.951 . S
C285 C284 1.340 . S
C285 C286 1.439 . S
C285 H317 0.950 . S
C286 N282 1.374 . S
C286 C285 1.439 . S
C286 C311 1.395 . S
N287 Co276 1.995 1_565 S
N287 C288 1.376 . S
N287 C291 1.383 . S
C288 N287 1.376 . S
C288 C289 1.446 . S
C288 C311 1.391 1_565 S
C289 C288 1.446 . S
C289 C290 1.339 . S
C289 H318 0.949 . S
C290 C289 1.339 . S
C290 C291 1.439 . S
C290 H319 0.950 . S
C291 N287 1.383 . S
C291 C290 1.439 . S
C291 C309 1.392 . S
N292 Co276 2.282 . S
N292 C295 1.332 . S
N292 C297 1.332 . S
C293 C294 1.386 . S
C293 C296 1.388 . S
C294 C293 1.386 . S
C294 C295 1.382 . S
C294 H320 0.950 . S
C295 N292 1.332 . S
C295 C294 1.382 . S
C295 H306 0.952 . S
C296 C293 1.388 . S
C296 C297 1.382 . S
C296 H321 0.950 . S
C297 N292 1.332 . S
C297 C296 1.382 . S
C297 H307 0.948 . S
N298 Co276 2.282 1_565 S
N298 C302 1.332 . S
N298 C303 1.332 . S
C299 C300 1.388 . S
C299 C303 1.382 . S
C299 H322 0.950 . S
C300 C299 1.388 . S
C300 C301 1.386 . S
C301 C300 1.386 . S
C301 C302 1.382 . S
C301 H323 0.950 . S
C302 N298 1.332 . S
C302 C301 1.382 . S
C302 H304 0.952 . S
C303 N298 1.332 . S
C303 C299 1.382 . S
C303 H305 0.948 . S
H304 C302 0.952 . S
H305 C303 0.948 . S
H306 C295 0.952 . S
H307 C297 0.948 . S
C308 C274 1.395 . S
C308 C278 1.391 1_565 S
C309 C271 1.389 . S
C309 C291 1.392 . S
C310 C281 1.392 . S
C310 C283 1.389 . S
C311 C286 1.395 . S
C311 C288 1.391 1_545 S
H312 C272 0.951 . S
H313 C273 0.950 . S
H314 C279 0.949 . S
H315 C280 0.950 . S
H316 C284 0.951 . S
H317 C285 0.950 . S
H318 C289 0.949 . S
H319 C290 0.950 . S
H320 C294 0.950 . S
H321 C296 0.950 . S
H322 C299 0.950 . S
H323 C301 0.950 . S
C324 C325 1.443 . S
C324 N328 1.376 . S
C324 C362 1.389 . S
C325 C324 1.443 . S
C325 C326 1.340 . S
C325 H365 0.951 . S
C326 C325 1.340 . S
C326 C327 1.439 . S
C326 H366 0.950 . S
C327 C326 1.439 . S
C327 N328 1.374 . S
C327 C361 1.384 1_554 S
N328 C324 1.376 . S
N328 C327 1.374 . S
N328 Co329 2.010 . S
Co329 N328 2.010 . S
Co329 N330 1.993 1_554 S
Co329 N335 2.007 1_554 S
Co329 N340 1.996 . S
Co329 N345 2.285 . S
Co329 N351 2.280 1_554 S
N330 Co329 1.993 1_556 S
N330 C331 1.376 . S
N330 C334 1.383 . S
C331 N330 1.376 . S
C331 C332 1.446 . S
C331 C361 1.401 . S
C332 C331 1.446 . S
C332 C333 1.339 . S
C332 H367 0.949 . S
C333 C332 1.339 . S
C333 C334 1.439 . S
C333 H368 0.950 . S
C334 N330 1.383 . S
C334 C333 1.439 . S
C334 C363 1.392 . S
N335 Co329 2.007 1_556 S
N335 C336 1.376 . S
N335 C339 1.374 . S
C336 N335 1.376 . S
C336 C337 1.443 . S
C336 C363 1.389 . S
C337 C336 1.443 . S
C337 C338 1.340 . S
C337 H369 0.951 . S
C338 C337 1.340 . S
C338 C339 1.439 . S
C338 H370 0.950 . S
C339 N335 1.374 . S
C339 C338 1.439 . S
C339 C364 1.395 1_556 S
N340 Co329 1.996 . S
N340 C341 1.376 . S
N340 C344 1.383 . S
C341 N340 1.376 . S
C341 C342 1.446 . S
C341 C364 1.391 . S
C342 C341 1.446 . S
C342 C343 1.339 . S
C342 H371 0.949 . S
C343 C342 1.339 . S
C343 C344 1.439 . S
C343 H372 0.950 . S
C344 N340 1.383 . S
C344 C343 1.439 . S
C344 C362 1.392 . S
N345 Co329 2.285 . S
N345 C348 1.332 . S
N345 C350 1.332 . S
C346 C347 1.386 . S
C346 C349 1.388 . S
C347 C346 1.386 . S
C347 C348 1.382 . S
C347 H373 0.950 . S
C348 N345 1.332 . S
C348 C347 1.382 . S
C348 H359 0.952 . S
C349 C346 1.388 . S
C349 C350 1.382 . S
C349 H374 0.950 . S
C350 N345 1.332 . S
C350 C349 1.382 . S
C350 H360 0.948 . S
N351 Co329 2.280 1_556 S
N351 C355 1.332 . S
N351 C356 1.332 . S
C352 C353 1.388 . S
C352 C356 1.382 . S
C352 H375 0.950 . S
C353 C352 1.388 . S
C353 C354 1.386 . S
C354 C353 1.386 . S
C354 C355 1.382 . S
C354 H376 0.950 . S
C355 N351 1.332 . S
C355 C354 1.382 . S
C355 H357 0.952 . S
C356 N351 1.332 . S
C356 C352 1.382 . S
C356 H358 0.948 . S
H357 C355 0.952 . S
H358 C356 0.948 . S
H359 C348 0.952 . S
H360 C350 0.948 . S
C361 C327 1.384 1_556 S
C361 C331 1.401 . S
C362 C324 1.389 . S
C362 C344 1.392 . S
C363 C334 1.392 . S
C363 C336 1.389 . S
C364 C339 1.395 1_554 S
C364 C341 1.391 . S
H365 C325 0.951 . S
H366 C326 0.950 . S
H367 C332 0.949 . S
H368 C333 0.950 . S
H369 C337 0.951 . S
H370 C338 0.950 . S
H371 C342 0.949 . S
H372 C343 0.950 . S
H373 C347 0.950 . S
H374 C349 0.950 . S
H375 C352 0.950 . S
H376 C354 0.950 . S
C377 C378 1.443 . S
C377 N381 1.376 . S
C377 C415 1.389 . S
C378 C377 1.443 . S
C378 C379 1.340 . S
C378 H418 0.951 . S
C379 C378 1.340 . S
C379 C380 1.439 . S
C379 H419 0.950 . S
C380 C379 1.439 . S
C380 N381 1.374 . S
C380 C414 1.395 1_554 S
N381 C377 1.376 . S
N381 C380 1.374 . S
N381 Co382 2.008 . S
Co382 N381 2.008 . S
Co382 N383 1.995 1_554 S
Co382 N388 2.008 1_554 S
Co382 N393 1.995 . S
Co382 N398 2.282 . S
Co382 N404 2.282 1_554 S
N383 Co382 1.995 1_556 S
N383 C384 1.376 . S
N383 C387 1.383 . S
C384 N383 1.376 . S
C384 C385 1.446 . S
C384 C414 1.391 . S
C385 C384 1.446 . S
C385 C386 1.339 . S
C385 H420 0.949 . S
C386 C385 1.339 . S
C386 C387 1.439 . S
C386 H421 0.950 . S
C387 N383 1.383 . S
C387 C386 1.439 . S
C387 C416 1.392 . S
N388 Co382 2.008 1_556 S
N388 C389 1.376 . S
N388 C392 1.374 1_556 S
C389 N388 1.376 . S
C389 C390 1.443 . S
C389 C416 1.389 . S
C390 C389 1.443 . S
C390 C391 1.340 . S
C390 H422 0.951 . S
C391 C390 1.340 . S
C391 C392 1.439 1_556 S
C391 H423 0.950 . S
C392 N388 1.374 1_554 S
C392 C391 1.439 1_554 S
C392 C417 1.395 . S
N393 Co382 1.995 . S
N393 C394 1.376 . S
N393 C397 1.383 . S
C394 N393 1.376 . S
C394 C395 1.446 . S
C394 C417 1.391 . S
C395 C394 1.446 . S
C395 C396 1.339 . S
C395 H424 0.949 . S
C396 C395 1.339 . S
C396 C397 1.439 . S
C396 H425 0.950 . S
C397 N393 1.383 . S
C397 C396 1.439 . S
C397 C415 1.392 . S
N398 Co382 2.282 . S
N398 C401 1.332 . S
N398 C403 1.332 . S
C399 C400 1.386 . S
C399 C402 1.388 . S
C400 C399 1.386 . S
C400 C401 1.382 . S
C400 H426 0.950 . S
C401 N398 1.332 . S
C401 C400 1.382 . S
C401 H412 0.952 . S
C402 C399 1.388 . S
C402 C403 1.382 . S
C402 H427 0.950 . S
C403 N398 1.332 . S
C403 C402 1.382 . S
C403 H413 0.948 . S
N404 Co382 2.282 1_556 S
N404 C408 1.332 . S
N404 C409 1.332 . S
C405 C406 1.388 . S
C405 C409 1.382 . S
C405 H428 0.950 . S
C406 C405 1.388 . S
C406 C407 1.386 . S
C407 C406 1.386 . S
C407 C408 1.382 . S
C407 H429 0.950 . S
C408 N404 1.332 . S
C408 C407 1.382 . S
C408 H410 0.952 . S
C409 N404 1.332 . S
C409 C405 1.382 . S
C409 H411 0.948 . S
H410 C408 0.952 . S
H411 C409 0.948 . S
H412 C401 0.952 . S
H413 C403 0.948 . S
C414 C380 1.395 1_556 S
C414 C384 1.391 . S
C415 C377 1.389 . S
C415 C397 1.392 . S
C416 C387 1.392 . S
C416 C389 1.389 . S
C417 C392 1.395 . S
C417 C394 1.391 . S
H418 C378 0.951 . S
H419 C379 0.950 . S
H420 C385 0.949 . S
H421 C386 0.950 . S
H422 C390 0.951 . S
H423 C391 0.950 . S
H424 C395 0.949 . S
H425 C396 0.950 . S
H426 C400 0.950 . S
H427 C402 0.950 . S
H428 C405 0.950 . S
H429 C407 0.950 . S
C430 C431 1.443 . S
C430 N434 1.360 1_556 S
C430 C468 1.389 . S
C431 C430 1.443 . S
C431 C432 1.340 . S
C431 H471 0.951 . S
C432 C431 1.340 . S
C432 C433 1.439 1_556 S
C432 H472 0.950 . S
C433 C432 1.439 1_554 S
C433 N434 1.380 . S
C433 C467 1.395 . S
N434 C430 1.360 1_554 S
N434 C433 1.380 . S
N434 Co435 2.020 . S
Co435 N434 2.020 . S
Co435 N436 1.995 . S
Co435 N441 2.008 . S
Co435 N446 1.995 1_554 S
Co435 N451 2.282 1_554 S
Co435 N457 2.282 . S
N436 Co435 1.995 . S
N436 C437 1.376 . S
N436 C440 1.383 . S
C437 N436 1.376 . S
C437 C438 1.446 . S
C437 C467 1.391 . S
C438 C437 1.446 . S
C438 C439 1.339 . S
C438 H473 0.949 . S
C439 C438 1.339 . S
C439 C440 1.439 . S
C439 H474 0.950 . S
C440 N436 1.383 . S
C440 C439 1.439 . S
C440 C469 1.392 . S
N441 Co435 2.008 . S
N441 C442 1.376 . S
N441 C445 1.374 . S
C442 N441 1.376 . S
C442 C443 1.443 . S
C442 C469 1.389 . S
C443 C442 1.443 . S
C443 C444 1.340 . S
C443 H475 0.951 . S
C444 C443 1.340 . S
C444 C445 1.439 . S
C444 H476 0.950 . S
C445 N441 1.374 . S
C445 C444 1.439 . S
C445 C470 1.395 . S
N446 Co435 1.995 1_556 S
N446 C447 1.376 . S
N446 C450 1.383 . S
C447 N446 1.376 . S
C447 C448 1.446 . S
C447 C470 1.391 1_556 S
C448 C447 1.446 . S
C448 C449 1.339 . S
C448 H477 0.949 . S
C449 C448 1.339 . S
C449 C450 1.439 . S
C449 H478 0.950 . S
C450 N446 1.383 . S
C450 C449 1.439 . S
C450 C468 1.392 . S
N451 Co435 2.282 1_556 S
N451 C454 1.332 . S
N451 C456 1.332 . S
C452 C453 1.386 . S
C452 C455 1.388 . S
C453 C452 1.386 . S
C453 C454 1.382 . S
C453 H479 0.950 . S
C454 N451 1.332 . S
C454 C453 1.382 . S
C454 H465 0.952 . S
C455 C452 1.388 . S
C455 C456 1.382 . S
C455 H480 0.950 . S
C456 N451 1.332 . S
C456 C455 1.382 . S
C456 H466 0.948 . S
N457 Co435 2.282 . S
N457 C461 1.332 . S
N457 C462 1.332 . S
C458 C459 1.388 . S
C458 C462 1.382 . S
C458 H481 0.950 . S
C459 C458 1.388 . S
C459 C460 1.386 . S
C460 C459 1.386 . S
C460 C461 1.382 . S
C460 H482 0.950 . S
C461 N457 1.332 . S
C461 C460 1.382 . S
C461 H463 0.952 . S
C462 N457 1.332 . S
C462 C458 1.382 . S
C462 H464 0.948 . S
H463 C461 0.952 . S
H464 C462 0.948 . S
H465 C454 0.952 . S
H466 C456 0.948 . S
C467 C433 1.395 . S
C467 C437 1.391 . S
C468 C430 1.389 . S
C468 C450 1.392 . S
C469 C440 1.392 . S
C469 C442 1.389 . S
C470 C445 1.395 . S
C470 C447 1.391 1_554 S
H471 C431 0.951 . S
H472 C432 0.950 . S
H473 C438 0.949 . S
H474 C439 0.950 . S
H475 C443 0.951 . S
H476 C444 0.950 . S
H477 C448 0.949 . S
H478 C449 0.950 . S
H479 C453 0.950 . S
H480 C455 0.950 . S
H481 C458 0.950 . S
H482 C460 0.950 . S
C483 C484 1.443 . S
C483 N487 1.376 . S
C483 C521 1.389 . S
C484 C483 1.443 . S
C484 C485 1.340 . S
C484 H524 0.951 . S
C485 C484 1.340 . S
C485 C486 1.439 . S
C485 H525 0.950 . S
C486 C485 1.439 . S
C486 N487 1.374 . S
C486 C520 1.395 1_554 S
N487 C483 1.376 . S
N487 C486 1.374 . S
N487 Co488 2.008 . S
Co488 N487 2.008 . S
Co488 N489 1.995 1_554 S
Co488 N494 2.008 1_554 S
Co488 N499 1.995 . S
Co488 N504 2.282 . S
Co488 N510 2.282 1_554 S
N489 Co488 1.995 1_556 S
N489 C490 1.376 . S
N489 C493 1.383 . S
C490 N489 1.376 . S
C490 C491 1.446 . S
C490 C520 1.391 . S
C491 C490 1.446 . S
C491 C492 1.339 . S
C491 H526 0.949 . S
C492 C491 1.339 . S
C492 C493 1.439 . S
C492 H527 0.950 . S
C493 N489 1.383 . S
C493 C492 1.439 . S
C493 C522 1.392 . S
N494 Co488 2.008 1_556 S
N494 C495 1.376 . S
N494 C498 1.374 1_556 S
C495 N494 1.376 . S
C495 C496 1.443 . S
C495 C522 1.389 . S
C496 C495 1.443 . S
C496 C497 1.340 . S
C496 H528 0.951 . S
C497 C496 1.340 . S
C497 C498 1.439 1_556 S
C497 H529 0.950 . S
C498 N494 1.374 1_554 S
C498 C497 1.439 1_554 S
C498 C523 1.395 . S
N499 Co488 1.995 . S
N499 C500 1.376 . S
N499 C503 1.383 . S
C500 N499 1.376 . S
C500 C501 1.446 . S
C500 C523 1.391 . S
C501 C500 1.446 . S
C501 C502 1.339 . S
C501 H530 0.949 . S
C502 C501 1.339 . S
C502 C503 1.439 . S
C502 H531 0.950 . S
C503 N499 1.383 . S
C503 C502 1.439 . S
C503 C521 1.392 . S
N504 Co488 2.282 . S
N504 C507 1.332 . S
N504 C509 1.332 . S
C505 C506 1.386 . S
C505 C508 1.388 . S
C506 C505 1.386 . S
C506 C507 1.382 . S
C506 H532 0.950 . S
C507 N504 1.332 . S
C507 C506 1.382 . S
C507 H518 0.952 . S
C508 C505 1.388 . S
C508 C509 1.382 . S
C508 H533 0.950 . S
C509 N504 1.332 . S
C509 C508 1.382 . S
C509 H519 0.948 . S
N510 Co488 2.282 1_556 S
N510 C514 1.332 . S
N510 C515 1.332 . S
C511 C512 1.388 . S
C511 C515 1.382 . S
C511 H534 0.950 . S
C512 C511 1.388 . S
C512 C513 1.386 . S
C513 C512 1.386 . S
C513 C514 1.382 . S
C513 H535 0.950 . S
C514 N510 1.332 . S
C514 C513 1.382 . S
C514 H516 0.952 . S
C515 N510 1.332 . S
C515 C511 1.382 . S
C515 H517 0.948 . S
H516 C514 0.952 . S
H517 C515 0.948 . S
H518 C507 0.952 . S
H519 C509 0.948 . S
C520 C486 1.395 1_556 S
C520 C490 1.391 . S
C521 C483 1.389 . S
C521 C503 1.392 . S
C522 C493 1.392 . S
C522 C495 1.389 . S
C523 C498 1.395 . S
C523 C500 1.391 . S
H524 C484 0.951 . S
H525 C485 0.950 . S
H526 C491 0.949 . S
H527 C492 0.950 . S
H528 C496 0.951 . S
H529 C497 0.950 . S
H530 C501 0.949 . S
H531 C502 0.950 . S
H532 C506 0.950 . S
H533 C508 0.950 . S
H534 C511 0.950 . S
H535 C513 0.950 . S
H536 C548 0.930 . S
H537 C550 0.930 . S
H538 C551 0.930 . S
H539 C555 0.959 . S
H540 C555 0.959 . S
H541 C555 0.961 . S
H542 C556 0.960 . S
H543 C556 0.961 . S
H544 C556 0.959 . S
H545 C559 0.929 . S
H546 C560 0.931 . S
H547 C562 0.930 . S
C548 H536 0.930 . S
C548 C549 1.399 . S
C548 C553 1.399 . S
C549 C548 1.399 . S
C549 C550 1.376 . S
C550 H537 0.930 . S
C550 C549 1.376 . S
C550 C551 1.388 . S
C551 H538 0.930 . S
C551 C550 1.388 . S
C551 C552 1.390 . S
C552 C551 1.390 . S
C552 C553 1.394 . S
C552 C558 1.465 . S
C553 C548 1.399 . S
C553 C552 1.394 . S
C553 C554 1.516 . S
C554 C553 1.516 . S
C554 C555 1.502 . S
C554 C556 1.561 . S
C554 C557 1.526 . S
C555 H539 0.959 . S
C555 H540 0.959 . S
C555 H541 0.961 . S
C555 C554 1.502 . S
C556 H542 0.960 . S
C556 H543 0.961 . S
C556 H544 0.959 . S
C556 C554 1.561 . S
C557 C554 1.526 . S
C557 C558 1.396 . S
C557 C562 1.390 . S
C558 C552 1.465 . S
C558 C557 1.396 . S
C558 C559 1.399 . S
C559 H545 0.929 . S
C559 C558 1.399 . S
C559 C560 1.385 . S
C560 H546 0.931 . S
C560 C559 1.385 . S
C560 C561 1.389 . S
C561 C560 1.389 . S
C561 C562 1.387 . S
C562 H547 0.930 . S
C562 C557 1.390 . S
C562 C561 1.387 . S
H563 C575 0.930 . S
H564 C577 0.930 . S
H565 C578 0.930 . S
H566 C582 0.959 . S
H567 C582 0.959 . S
H568 C582 0.961 . S
H569 C583 0.960 . S
H570 C583 0.961 . S
H571 C583 0.959 . S
H572 C586 0.929 . S
H573 C587 0.931 . S
H574 C589 0.930 . S
C575 H563 0.930 . S
C575 C576 1.399 . S
C575 C580 1.399 . S
C576 C575 1.399 . S
C576 C577 1.376 . S
C577 H564 0.930 . S
C577 C576 1.376 . S
C577 C578 1.388 . S
C578 H565 0.930 . S
C578 C577 1.388 . S
C578 C579 1.390 . S
C579 C578 1.390 . S
C579 C580 1.394 . S
C579 C585 1.465 . S
C580 C575 1.399 . S
C580 C579 1.394 . S
C580 C581 1.516 . S
C581 C580 1.516 . S
C581 C582 1.502 . S
C581 C583 1.561 . S
C581 C584 1.526 . S
C582 H566 0.959 . S
C582 H567 0.959 . S
C582 H568 0.961 . S
C582 C581 1.502 . S
C583 H569 0.960 . S
C583 H570 0.961 . S
C583 H571 0.959 . S
C583 C581 1.561 . S
C584 C581 1.526 . S
C584 C585 1.396 . S
C584 C589 1.390 . S
C585 C579 1.465 . S
C585 C584 1.396 . S
C585 C586 1.399 . S
C586 H572 0.929 . S
C586 C585 1.399 . S
C586 C587 1.385 . S
C587 H573 0.931 . S
C587 C586 1.385 . S
C587 C588 1.389 . S
C588 C587 1.389 . S
C588 C589 1.387 . S
C589 H574 0.930 . S
C589 C584 1.390 . S
C589 C588 1.387 . S
H590 C602 0.930 . S
H591 C604 0.930 . S
H592 C605 0.930 . S
H593 C609 0.959 . S
H594 C609 0.959 . S
H595 C609 0.961 . S
H596 C610 0.960 . S
H597 C610 0.961 . S
H598 C610 0.959 . S
H599 C613 0.929 . S
H600 C614 0.931 . S
H601 C616 0.930 . S
C602 H590 0.930 . S
C602 C603 1.399 . S
C602 C607 1.399 . S
C603 C602 1.399 . S
C603 C604 1.376 . S
C604 H591 0.930 . S
C604 C603 1.376 . S
C604 C605 1.388 . S
C605 H592 0.930 . S
C605 C604 1.388 . S
C605 C606 1.390 . S
C606 C605 1.390 . S
C606 C607 1.394 . S
C606 C612 1.465 . S
C607 C602 1.399 . S
C607 C606 1.394 . S
C607 C608 1.516 . S
C608 C607 1.516 . S
C608 C609 1.502 . S
C608 C610 1.561 . S
C608 C611 1.526 . S
C609 H593 0.959 . S
C609 H594 0.959 . S
C609 H595 0.961 . S
C609 C608 1.502 . S
C610 H596 0.960 . S
C610 H597 0.961 . S
C610 H598 0.959 . S
C610 C608 1.561 . S
C611 C608 1.526 . S
C611 C612 1.396 . S
C611 C616 1.390 . S
C612 C606 1.465 . S
C612 C611 1.396 . S
C612 C613 1.399 . S
C613 H599 0.929 . S
C613 C612 1.399 . S
C613 C614 1.385 . S
C614 H600 0.931 . S
C614 C613 1.385 . S
C614 C615 1.389 . S
C615 C614 1.389 . S
C615 C616 1.387 . S
C616 H601 0.930 . S
C616 C611 1.390 . S
C616 C615 1.387 . S
H617 C629 0.930 . S
H618 C631 0.930 . S
H619 C632 0.930 . S
H620 C636 0.959 . S
H621 C636 0.959 . S
H622 C636 0.961 . S
H623 C637 0.960 . S
H624 C637 0.961 . S
H625 C637 0.959 . S
H626 C640 0.929 . S
H627 C641 0.931 . S
H628 C643 0.930 . S
C629 H617 0.930 . S
C629 C630 1.399 . S
C629 C634 1.399 . S
C630 C629 1.399 . S
C630 C631 1.376 . S
C631 H618 0.930 . S
C631 C630 1.376 . S
C631 C632 1.388 . S
C632 H619 0.930 . S
C632 C631 1.388 . S
C632 C633 1.390 . S
C633 C632 1.390 . S
C633 C634 1.394 . S
C633 C639 1.465 . S
C634 C629 1.399 . S
C634 C633 1.394 . S
C634 C635 1.516 . S
C635 C634 1.516 . S
C635 C636 1.502 . S
C635 C637 1.561 . S
C635 C638 1.526 . S
C636 H620 0.959 . S
C636 H621 0.959 . S
C636 H622 0.961 . S
C636 C635 1.502 . S
C637 H623 0.960 . S
C637 H624 0.961 . S
C637 H625 0.959 . S
C637 C635 1.561 . S
C638 C635 1.526 . S
C638 C639 1.396 . S
C638 C643 1.390 . S
C639 C633 1.465 . S
C639 C638 1.396 . S
C639 C640 1.399 . S
C640 H626 0.929 . S
C640 C639 1.399 . S
C640 C641 1.385 . S
C641 H627 0.931 . S
C641 C640 1.385 . S
C641 C642 1.389 . S
C642 C641 1.389 . S
C642 C643 1.387 . S
C643 H628 0.930 . S
C643 C638 1.390 . S
C643 C642 1.387 . S
H644 C656 0.930 . S
H645 C658 0.930 . S
H646 C659 0.930 . S
H647 C663 0.959 . S
H648 C663 0.959 . S
H649 C663 0.961 . S
H650 C664 0.960 . S
H651 C664 0.961 . S
H652 C664 0.959 . S
H653 C667 0.929 . S
H654 C668 0.931 . S
H655 C670 0.930 . S
C656 H644 0.930 . S
C656 C657 1.399 . S
C656 C661 1.399 . S
C657 C656 1.399 . S
C657 C658 1.376 . S
C658 H645 0.930 . S
C658 C657 1.376 . S
C658 C659 1.388 . S
C659 H646 0.930 . S
C659 C658 1.388 . S
C659 C660 1.390 . S
C660 C659 1.390 . S
C660 C661 1.394 . S
C660 C666 1.465 . S
C661 C656 1.399 . S
C661 C660 1.394 . S
C661 C662 1.516 . S
C662 C661 1.516 . S
C662 C663 1.502 . S
C662 C664 1.561 . S
C662 C665 1.526 . S
C663 H647 0.959 . S
C663 H648 0.959 . S
C663 H649 0.961 . S
C663 C662 1.502 . S
C664 H650 0.960 . S
C664 H651 0.961 . S
C664 H652 0.959 . S
C664 C662 1.561 . S
C665 C662 1.526 . S
C665 C666 1.396 . S
C665 C670 1.390 . S
C666 C660 1.465 . S
C666 C665 1.396 . S
C666 C667 1.399 . S
C667 H653 0.929 . S
C667 C666 1.399 . S
C667 C668 1.385 . S
C668 H654 0.931 . S
C668 C667 1.385 . S
C668 C669 1.389 . S
C669 C668 1.389 . S
C669 C670 1.387 . S
C670 H655 0.930 . S
C670 C665 1.390 . S
C670 C669 1.387 . S
H671 C683 0.930 . S
H672 C685 0.930 . S
H673 C686 0.930 . S
H674 C690 0.959 . S
H675 C690 0.959 . S
H676 C690 0.961 . S
H677 C691 0.960 . S
H678 C691 0.961 . S
H679 C691 0.959 . S
H680 C694 0.929 . S
H681 C695 0.931 . S
H682 C697 0.930 . S
C683 H671 0.930 . S
C683 C684 1.399 . S
C683 C688 1.399 . S
C684 C683 1.399 . S
C684 C685 1.376 . S
C685 H672 0.930 . S
C685 C684 1.376 . S
C685 C686 1.388 . S
C686 H673 0.930 . S
C686 C685 1.388 . S
C686 C687 1.390 . S
C687 C686 1.390 . S
C687 C688 1.394 . S
C687 C693 1.465 . S
C688 C683 1.399 . S
C688 C687 1.394 . S
C688 C689 1.516 . S
C689 C688 1.516 . S
C689 C690 1.502 . S
C689 C691 1.561 . S
C689 C692 1.526 . S
C690 H674 0.959 . S
C690 H675 0.959 . S
C690 H676 0.961 . S
C690 C689 1.502 . S
C691 H677 0.960 . S
C691 H678 0.961 . S
C691 H679 0.959 . S
C691 C689 1.561 . S
C692 C689 1.526 . S
C692 C693 1.396 . S
C692 C697 1.390 . S
C693 C687 1.465 . S
C693 C692 1.396 . S
C693 C694 1.399 . S
C694 H680 0.929 . S
C694 C693 1.399 . S
C694 C695 1.385 . S
C695 H681 0.931 . S
C695 C694 1.385 . S
C695 C696 1.389 . S
C696 C695 1.389 . S
C696 C697 1.387 . S
C697 H682 0.930 . S
C697 C692 1.390 . S
C697 C696 1.387 . S
H698 C710 0.930 . S
H699 C712 0.930 . S
H700 C713 0.930 . S
H701 C717 0.959 . S
H702 C717 0.959 . S
H703 C717 0.961 . S
H704 C718 0.960 . S
H705 C718 0.961 . S
H706 C718 0.959 . S
H707 C721 0.929 . S
H708 C722 0.931 . S
H709 C724 0.930 . S
C710 H698 0.930 . S
C710 C711 1.399 . S
C710 C715 1.399 . S
C711 C710 1.399 . S
C711 C712 1.376 . S
C712 H699 0.930 . S
C712 C711 1.376 . S
C712 C713 1.388 . S
C713 H700 0.930 . S
C713 C712 1.388 . S
C713 C714 1.390 . S
C714 C713 1.390 . S
C714 C715 1.394 . S
C714 C720 1.465 . S
C715 C710 1.399 . S
C715 C714 1.394 . S
C715 C716 1.516 . S
C716 C715 1.516 . S
C716 C717 1.502 . S
C716 C718 1.561 . S
C716 C719 1.526 . S
C717 H701 0.959 . S
C717 H702 0.959 . S
C717 H703 0.961 . S
C717 C716 1.502 . S
C718 H704 0.960 . S
C718 H705 0.961 . S
C718 H706 0.959 . S
C718 C716 1.561 . S
C719 C716 1.526 . S
C719 C720 1.396 . S
C719 C724 1.390 . S
C720 C714 1.465 . S
C720 C719 1.396 . S
C720 C721 1.399 . S
C721 H707 0.929 . S
C721 C720 1.399 . S
C721 C722 1.385 . S
C722 H708 0.931 . S
C722 C721 1.385 . S
C722 C723 1.389 . S
C723 C722 1.389 . S
C723 C724 1.387 . S
C724 H709 0.930 . S
C724 C719 1.390 . S
C724 C723 1.387 . S
H725 C737 0.930 . S
H726 C739 0.930 . S
H727 C740 0.930 . S
H728 C744 0.959 . S
H729 C744 0.959 . S
H730 C744 0.961 . S
H731 C745 0.960 . S
H732 C745 0.961 . S
H733 C745 0.959 . S
H734 C748 0.929 . S
H735 C749 0.931 . S
H736 C751 0.930 . S
C737 H725 0.930 . S
C737 C738 1.399 . S
C737 C742 1.399 . S
C738 C737 1.399 . S
C738 C739 1.376 . S
C739 H726 0.930 . S
C739 C738 1.376 . S
C739 C740 1.388 . S
C740 H727 0.930 . S
C740 C739 1.388 . S
C740 C741 1.390 . S
C741 C740 1.390 . S
C741 C742 1.394 . S
C741 C747 1.465 . S
C742 C737 1.399 . S
C742 C741 1.394 . S
C742 C743 1.516 . S
C743 C742 1.516 . S
C743 C744 1.502 . S
C743 C745 1.561 . S
C743 C746 1.526 . S
C744 H728 0.959 . S
C744 H729 0.959 . S
C744 H730 0.961 . S
C744 C743 1.502 . S
C745 H731 0.960 . S
C745 H732 0.961 . S
C745 H733 0.959 . S
C745 C743 1.561 . S
C746 C743 1.526 . S
C746 C747 1.396 . S
C746 C751 1.390 . S
C747 C741 1.465 . S
C747 C746 1.396 . S
C747 C748 1.399 . S
C748 H734 0.929 . S
C748 C747 1.399 . S
C748 C749 1.385 . S
C749 H735 0.931 . S
C749 C748 1.385 . S
C749 C750 1.389 . S
C750 C749 1.389 . S
C750 C751 1.387 . S
C751 H736 0.930 . S
C751 C746 1.390 . S
C751 C750 1.387 . S
H752 C764 0.930 . S
H753 C766 0.930 . S
H754 C767 0.930 . S
H755 C771 0.959 . S
H756 C771 0.959 . S
H757 C771 0.961 . S
H758 C772 0.960 . S
H759 C772 0.961 . S
H760 C772 0.959 . S
H761 C775 0.929 . S
H762 C776 0.931 . S
H763 C778 0.930 . S
C764 H752 0.930 . S
C764 C765 1.399 . S
C764 C769 1.399 . S
C765 C764 1.399 . S
C765 C766 1.376 . S
C766 H753 0.930 . S
C766 C765 1.376 . S
C766 C767 1.388 . S
C767 H754 0.930 . S
C767 C766 1.388 . S
C767 C768 1.390 . S
C768 C767 1.390 . S
C768 C769 1.394 . S
C768 C774 1.465 . S
C769 C764 1.399 . S
C769 C768 1.394 . S
C769 C770 1.516 . S
C770 C769 1.516 . S
C770 C771 1.502 . S
C770 C772 1.561 . S
C770 C773 1.526 . S
C771 H755 0.959 . S
C771 H756 0.959 . S
C771 H757 0.961 . S
C771 C770 1.502 . S
C772 H758 0.960 . S
C772 H759 0.961 . S
C772 H760 0.959 . S
C772 C770 1.561 . S
C773 C770 1.526 . S
C773 C774 1.396 . S
C773 C778 1.390 . S
C774 C768 1.465 . S
C774 C773 1.396 . S
C774 C775 1.399 . S
C775 H761 0.929 . S
C775 C774 1.399 . S
C775 C776 1.385 . S
C776 H762 0.931 . S
C776 C775 1.385 . S
C776 C777 1.389 . S
C777 C776 1.389 . S
C777 C778 1.387 . S
C778 H763 0.930 . S
C778 C773 1.390 . S
C778 C777 1.387 . S
H779 C791 0.930 . S
H780 C793 0.930 . S
H781 C794 0.930 . S
H782 C798 0.959 . S
H783 C798 0.959 . S
H784 C798 0.961 . S
H785 C799 0.960 . S
H786 C799 0.961 . S
H787 C799 0.959 . S
H788 C802 0.929 . S
H789 C803 0.931 . S
H790 C805 0.930 . S
C791 H779 0.930 . S
C791 C792 1.399 . S
C791 C796 1.399 . S
C792 C791 1.399 . S
C792 C793 1.376 . S
C793 H780 0.930 . S
C793 C792 1.376 . S
C793 C794 1.388 . S
C794 H781 0.930 . S
C794 C793 1.388 . S
C794 C795 1.390 . S
C795 C794 1.390 . S
C795 C796 1.394 . S
C795 C801 1.465 . S
C796 C791 1.399 . S
C796 C795 1.394 . S
C796 C797 1.516 . S
C797 C796 1.516 . S
C797 C798 1.502 . S
C797 C799 1.561 . S
C797 C800 1.526 . S
C798 H782 0.959 . S
C798 H783 0.959 . S
C798 H784 0.961 . S
C798 C797 1.502 . S
C799 H785 0.960 . S
C799 H786 0.961 . S
C799 H787 0.959 . S
C799 C797 1.561 . S
C800 C797 1.526 . S
C800 C801 1.396 . S
C800 C805 1.390 . S
C801 C795 1.465 . S
C801 C800 1.396 . S
C801 C802 1.399 . S
C802 H788 0.929 . S
C802 C801 1.399 . S
C802 C803 1.385 . S
C803 H789 0.931 . S
C803 C802 1.385 . S
C803 C804 1.389 . S
C804 C803 1.389 . S
C804 C805 1.387 . S
C805 H790 0.930 . S
C805 C800 1.390 . S
C805 C804 1.387 . S
H806 C818 0.930 . S
H807 C820 0.930 . S
H808 C821 0.930 . S
H809 C825 0.959 . S
H810 C825 0.959 . S
H811 C825 0.961 . S
H812 C826 0.960 . S
H813 C826 0.961 . S
H814 C826 0.959 . S
H815 C829 0.929 . S
H816 C830 0.931 . S
H817 C832 0.930 . S
C818 H806 0.930 . S
C818 C819 1.399 . S
C818 C823 1.399 . S
C819 C818 1.399 . S
C819 C820 1.376 . S
C820 H807 0.930 . S
C820 C819 1.376 . S
C820 C821 1.388 . S
C821 H808 0.930 . S
C821 C820 1.388 . S
C821 C822 1.390 . S
C822 C821 1.390 . S
C822 C823 1.394 . S
C822 C828 1.465 . S
C823 C818 1.399 . S
C823 C822 1.394 . S
C823 C824 1.516 . S
C824 C823 1.516 . S
C824 C825 1.502 . S
C824 C826 1.561 . S
C824 C827 1.526 . S
C825 H809 0.959 . S
C825 H810 0.959 . S
C825 H811 0.961 . S
C825 C824 1.502 . S
C826 H812 0.960 . S
C826 H813 0.961 . S
C826 H814 0.959 . S
C826 C824 1.561 . S
C827 C824 1.526 . S
C827 C828 1.396 . S
C827 C832 1.390 . S
C828 C822 1.465 . S
C828 C827 1.396 . S
C828 C829 1.399 . S
C829 H815 0.929 . S
C829 C828 1.399 . S
C829 C830 1.385 . S
C830 H816 0.931 . S
C830 C829 1.385 . S
C830 C831 1.389 . S
C831 C830 1.389 . S
C831 C832 1.387 . S
C832 H817 0.930 . S
C832 C827 1.390 . S
C832 C831 1.387 . S
H833 C845 0.930 . S
H834 C847 0.930 . S
H835 C848 0.930 . S
H836 C852 0.959 . S
H837 C852 0.959 . S
H838 C852 0.961 . S
H839 C853 0.960 . S
H840 C853 0.961 . S
H841 C853 0.959 . S
H842 C856 0.929 . S
H843 C857 0.931 . S
H844 C859 0.930 . S
C845 H833 0.930 . S
C845 C846 1.399 . S
C845 C850 1.399 . S
C846 C845 1.399 . S
C846 C847 1.376 . S
C847 H834 0.930 . S
C847 C846 1.376 . S
C847 C848 1.388 . S
C848 H835 0.930 . S
C848 C847 1.388 . S
C848 C849 1.390 . S
C849 C848 1.390 . S
C849 C850 1.394 . S
C849 C855 1.465 . S
C850 C845 1.399 . S
C850 C849 1.394 . S
C850 C851 1.516 . S
C851 C850 1.516 . S
C851 C852 1.502 . S
C851 C853 1.561 . S
C851 C854 1.526 . S
C852 H836 0.959 . S
C852 H837 0.959 . S
C852 H838 0.961 . S
C852 C851 1.502 . S
C853 H839 0.960 . S
C853 H840 0.961 . S
C853 H841 0.959 . S
C853 C851 1.561 . S
C854 C851 1.526 . S
C854 C855 1.396 . S
C854 C859 1.390 . S
C855 C849 1.465 . S
C855 C854 1.396 . S
C855 C856 1.399 . S
C856 H842 0.929 . S
C856 C855 1.399 . S
C856 C857 1.385 . S
C857 H843 0.931 . S
C857 C856 1.385 . S
C857 C858 1.389 . S
C858 C857 1.389 . S
C858 C859 1.387 . S
C859 H844 0.930 . S
C859 C854 1.390 . S
C859 C858 1.387 . S
H860 C872 0.930 . S
H861 C874 0.930 . S
H862 C875 0.930 . S
H863 C879 0.959 . S
H864 C879 0.959 . S
H865 C879 0.961 . S
H866 C880 0.960 . S
H867 C880 0.961 . S
H868 C880 0.959 . S
H869 C883 0.929 . S
H870 C884 0.931 . S
H871 C886 0.930 . S
C872 H860 0.930 . S
C872 C873 1.399 . S
C872 C877 1.399 . S
C873 C872 1.399 . S
C873 C874 1.376 . S
C874 H861 0.930 . S
C874 C873 1.376 . S
C874 C875 1.388 . S
C875 H862 0.930 . S
C875 C874 1.388 . S
C875 C876 1.390 . S
C876 C875 1.390 . S
C876 C877 1.394 . S
C876 C882 1.465 . S
C877 C872 1.399 . S
C877 C876 1.394 . S
C877 C878 1.516 . S
C878 C877 1.516 . S
C878 C879 1.502 . S
C878 C880 1.561 . S
C878 C881 1.526 . S
C879 H863 0.959 . S
C879 H864 0.959 . S
C879 H865 0.961 . S
C879 C878 1.502 . S
C880 H866 0.960 . S
C880 H867 0.961 . S
C880 H868 0.959 . S
C880 C878 1.561 . S
C881 C878 1.526 . S
C881 C882 1.396 . S
C881 C886 1.390 . S
C882 C876 1.465 . S
C882 C881 1.396 . S
C882 C883 1.399 . S
C883 H869 0.929 . S
C883 C882 1.399 . S
C883 C884 1.385 . S
C884 H870 0.931 . S
C884 C883 1.385 . S
C884 C885 1.389 . S
C885 C884 1.389 . S
C885 C886 1.387 . S
C886 H871 0.930 . S
C886 C881 1.390 . S
C886 C885 1.387 . S
H887 C899 0.930 . S
H888 C901 0.930 . S
H889 C902 0.930 . S
H890 C906 0.959 . S
H891 C906 0.959 . S
H892 C906 0.961 . S
H893 C907 0.960 . S
H894 C907 0.961 . S
H895 C907 0.959 . S
H896 C910 0.929 . S
H897 C911 0.931 . S
H898 C913 0.930 . S
C899 H887 0.930 . S
C899 C900 1.399 . S
C899 C904 1.399 . S
C900 C899 1.399 . S
C900 C901 1.376 . S
C901 H888 0.930 . S
C901 C900 1.376 . S
C901 C902 1.388 . S
C902 H889 0.930 . S
C902 C901 1.388 . S
C902 C903 1.390 . S
C903 C902 1.390 . S
C903 C904 1.394 . S
C903 C909 1.465 . S
C904 C899 1.399 . S
C904 C903 1.394 . S
C904 C905 1.516 . S
C905 C904 1.516 . S
C905 C906 1.502 . S
C905 C907 1.561 . S
C905 C908 1.526 . S
C906 H890 0.959 . S
C906 H891 0.959 . S
C906 H892 0.961 . S
C906 C905 1.502 . S
C907 H893 0.960 . S
C907 H894 0.961 . S
C907 H895 0.959 . S
C907 C905 1.561 . S
C908 C905 1.526 . S
C908 C909 1.396 . S
C908 C913 1.390 . S
C909 C903 1.465 . S
C909 C908 1.396 . S
C909 C910 1.399 . S
C910 H896 0.929 . S
C910 C909 1.399 . S
C910 C911 1.385 . S
C911 H897 0.931 . S
C911 C910 1.385 . S
C911 C912 1.389 . S
C912 C911 1.389 . S
C912 C913 1.387 . S
C913 H898 0.930 . S
C913 C908 1.390 . S
C913 C912 1.387 . S
H914 C926 0.930 . S
H915 C928 0.930 . S
H916 C929 0.930 . S
H917 C933 0.959 . S
H918 C933 0.959 . S
H919 C933 0.961 . S
H920 C934 0.960 . S
H921 C934 0.961 . S
H922 C934 0.959 . S
H923 C937 0.929 . S
H924 C938 0.931 . S
H925 C940 0.930 . S
C926 H914 0.930 . S
C926 C927 1.399 . S
C926 C931 1.399 . S
C927 C926 1.399 . S
C927 C928 1.376 . S
C928 H915 0.930 . S
C928 C927 1.376 . S
C928 C929 1.388 . S
C929 H916 0.930 . S
C929 C928 1.388 . S
C929 C930 1.390 . S
C930 C929 1.390 . S
C930 C931 1.394 . S
C930 C936 1.465 . S
C931 C926 1.399 . S
C931 C930 1.394 . S
C931 C932 1.516 . S
C932 C931 1.516 . S
C932 C933 1.502 . S
C932 C934 1.561 . S
C932 C935 1.526 . S
C933 H917 0.959 . S
C933 H918 0.959 . S
C933 H919 0.961 . S
C933 C932 1.502 . S
C934 H920 0.960 . S
C934 H921 0.961 . S
C934 H922 0.959 . S
C934 C932 1.561 . S
C935 C932 1.526 . S
C935 C936 1.396 . S
C935 C940 1.390 . S
C936 C930 1.465 . S
C936 C935 1.396 . S
C936 C937 1.399 . S
C937 H923 0.929 . S
C937 C936 1.399 . S
C937 C938 1.385 . S
C938 H924 0.931 . S
C938 C937 1.385 . S
C938 C939 1.389 . S
C939 C938 1.389 . S
C939 C940 1.387 . S
C940 H925 0.930 . S
C940 C935 1.390 . S
C940 C939 1.387 . S
H941 C953 0.930 . S
H942 C955 0.930 . S
H943 C956 0.930 . S
H944 C960 0.959 . S
H945 C960 0.959 . S
H946 C960 0.961 . S
H947 C961 0.960 . S
H948 C961 0.961 . S
H949 C961 0.959 . S
H950 C964 0.929 . S
H951 C965 0.931 . S
H952 C967 0.930 . S
C953 H941 0.930 . S
C953 C954 1.399 . S
C953 C958 1.399 . S
C954 C953 1.399 . S
C954 C955 1.376 . S
C955 H942 0.930 . S
C955 C954 1.376 . S
C955 C956 1.388 . S
C956 H943 0.930 . S
C956 C955 1.388 . S
C956 C957 1.390 . S
C957 C956 1.390 . S
C957 C958 1.394 . S
C957 C963 1.465 . S
C958 C953 1.399 . S
C958 C957 1.394 . S
C958 C959 1.516 . S
C959 C958 1.516 . S
C959 C960 1.502 . S
C959 C961 1.561 . S
C959 C962 1.526 . S
C960 H944 0.959 . S
C960 H945 0.959 . S
C960 H946 0.961 . S
C960 C959 1.502 . S
C961 H947 0.960 . S
C961 H948 0.961 . S
C961 H949 0.959 . S
C961 C959 1.561 . S
C962 C959 1.526 . S
C962 C963 1.396 . S
C962 C967 1.390 . S
C963 C957 1.465 . S
C963 C962 1.396 . S
C963 C964 1.399 . S
C964 H950 0.929 . S
C964 C963 1.399 . S
C964 C965 1.385 . S
C965 H951 0.931 . S
C965 C964 1.385 . S
C965 C966 1.389 . S
C966 C965 1.389 . S
C966 C967 1.387 . S
C967 H952 0.930 . S
C967 C962 1.390 . S
C967 C966 1.387 . S
H968 C980 0.930 . S
H969 C982 0.930 . S
H970 C983 0.930 . S
H971 C987 0.959 . S
H972 C987 0.959 . S
H973 C987 0.961 . S
H974 C988 0.960 . S
H975 C988 0.961 . S
H976 C988 0.959 . S
H977 C991 0.929 . S
H978 C992 0.931 . S
H979 C994 0.930 . S
C980 H968 0.930 . S
C980 C981 1.399 . S
C980 C985 1.399 . S
C981 C980 1.399 . S
C981 C982 1.376 . S
C982 H969 0.930 . S
C982 C981 1.376 . S
C982 C983 1.388 . S
C983 H970 0.930 . S
C983 C982 1.388 . S
C983 C984 1.390 . S
C984 C983 1.390 . S
C984 C985 1.394 . S
C984 C990 1.465 . S
C985 C980 1.399 . S
C985 C984 1.394 . S
C985 C986 1.516 . S
C986 C985 1.516 . S
C986 C987 1.502 . S
C986 C988 1.561 . S
C986 C989 1.526 . S
C987 H971 0.959 . S
C987 H972 0.959 . S
C987 H973 0.961 . S
C987 C986 1.502 . S
C988 H974 0.960 . S
C988 H975 0.961 . S
C988 H976 0.959 . S
C988 C986 1.561 . S
C989 C986 1.526 . S
C989 C990 1.396 . S
C989 C994 1.390 . S
C990 C984 1.465 . S
C990 C989 1.396 . S
C990 C991 1.399 . S
C991 H977 0.929 . S
C991 C990 1.399 . S
C991 C992 1.385 . S
C992 H978 0.931 . S
C992 C991 1.385 . S
C992 C993 1.389 . S
C993 C992 1.389 . S
C993 C994 1.387 . S
C994 H979 0.930 . S
C994 C989 1.390 . S
C994 C993 1.387 . S
H995 C1007 0.930 . S
H996 C1009 0.930 . S
H997 C1010 0.930 . S
H998 C1014 0.959 . S
H999 C1014 0.959 . S
H1000 C1014 0.961 . S
H1001 C1015 0.960 . S
H1002 C1015 0.961 . S
H1003 C1015 0.959 . S
H1004 C1018 0.929 . S
H1005 C1019 0.931 . S
H1006 C1021 0.930 . S
C1007 H995 0.930 . S
C1007 C1008 1.399 . S
C1007 C1012 1.399 . S
C1008 C1007 1.399 . S
C1008 C1009 1.376 . S
C1009 H996 0.930 . S
C1009 C1008 1.376 . S
C1009 C1010 1.388 . S
C1010 H997 0.930 . S
C1010 C1009 1.388 . S
C1010 C1011 1.390 . S
C1011 C1010 1.390 . S
C1011 C1012 1.394 . S
C1011 C1017 1.465 . S
C1012 C1007 1.399 . S
C1012 C1011 1.394 . S
C1012 C1013 1.516 . S
C1013 C1012 1.516 . S
C1013 C1014 1.502 . S
C1013 C1015 1.561 . S
C1013 C1016 1.526 . S
C1014 H998 0.959 . S
C1014 H999 0.959 . S
C1014 H1000 0.961 . S
C1014 C1013 1.502 . S
C1015 H1001 0.960 . S
C1015 H1002 0.961 . S
C1015 H1003 0.959 . S
C1015 C1013 1.561 . S
C1016 C1013 1.526 . S
C1016 C1017 1.396 . S
C1016 C1021 1.390 . S
C1017 C1011 1.465 . S
C1017 C1016 1.396 . S
C1017 C1018 1.399 . S
C1018 H1004 0.929 . S
C1018 C1017 1.399 . S
C1018 C1019 1.385 . S
C1019 H1005 0.931 . S
C1019 C1018 1.385 . S
C1019 C1020 1.389 . S
C1020 C1019 1.389 . S
C1020 C1021 1.387 . S
C1021 H1006 0.930 . S
C1021 C1016 1.390 . S
C1021 C1020 1.387 . S
H1022 C1034 0.930 . S
H1023 C1036 0.930 . S
H1024 C1037 0.930 . S
H1025 C1041 0.959 . S
H1026 C1041 0.959 . S
H1027 C1041 0.961 . S
H1028 C1042 0.960 . S
H1029 C1042 0.961 . S
H1030 C1042 0.959 . S
H1031 C1045 0.929 . S
H1032 C1046 0.931 . S
H1033 C1048 0.930 . S
C1034 H1022 0.930 . S
C1034 C1035 1.399 . S
C1034 C1039 1.399 . S
C1035 C1034 1.399 . S
C1035 C1036 1.376 . S
C1036 H1023 0.930 . S
C1036 C1035 1.376 . S
C1036 C1037 1.388 . S
C1037 H1024 0.930 . S
C1037 C1036 1.388 . S
C1037 C1038 1.390 . S
C1038 C1037 1.390 . S
C1038 C1039 1.394 . S
C1038 C1044 1.465 . S
C1039 C1034 1.399 . S
C1039 C1038 1.394 . S
C1039 C1040 1.516 . S
C1040 C1039 1.516 . S
C1040 C1041 1.502 . S
C1040 C1042 1.561 . S
C1040 C1043 1.526 . S
C1041 H1025 0.959 . S
C1041 H1026 0.959 . S
C1041 H1027 0.961 . S
C1041 C1040 1.502 . S
C1042 H1028 0.960 . S
C1042 H1029 0.961 . S
C1042 H1030 0.959 . S
C1042 C1040 1.561 . S
C1043 C1040 1.526 . S
C1043 C1044 1.396 . S
C1043 C1048 1.390 . S
C1044 C1038 1.465 . S
C1044 C1043 1.396 . S
C1044 C1045 1.399 . S
C1045 H1031 0.929 . S
C1045 C1044 1.399 . S
C1045 C1046 1.385 . S
C1046 H1032 0.931 . S
C1046 C1045 1.385 . S
C1046 C1047 1.389 . S
C1047 C1046 1.389 . S
C1047 C1048 1.387 . S
C1048 H1033 0.930 . S
C1048 C1043 1.390 . S
C1048 C1047 1.387 . S
H1049 C1061 0.930 . S
H1050 C1063 0.930 . S
H1051 C1064 0.930 . S
H1052 C1068 0.959 . S
H1053 C1068 0.959 . S
H1054 C1068 0.961 . S
H1055 C1069 0.960 . S
H1056 C1069 0.961 . S
H1057 C1069 0.959 . S
H1058 C1072 0.929 . S
H1059 C1073 0.931 . S
H1060 C1075 0.930 . S
C1061 H1049 0.930 . S
C1061 C1062 1.399 . S
C1061 C1066 1.399 . S
C1062 C1061 1.399 . S
C1062 C1063 1.376 . S
C1063 H1050 0.930 . S
C1063 C1062 1.376 . S
C1063 C1064 1.388 . S
C1064 H1051 0.930 . S
C1064 C1063 1.388 . S
C1064 C1065 1.390 . S
C1065 C1064 1.390 . S
C1065 C1066 1.394 . S
C1065 C1071 1.465 . S
C1066 C1061 1.399 . S
C1066 C1065 1.394 . S
C1066 C1067 1.516 . S
C1067 C1066 1.516 . S
C1067 C1068 1.502 . S
C1067 C1069 1.561 . S
C1067 C1070 1.526 . S
C1068 H1052 0.959 . S
C1068 H1053 0.959 . S
C1068 H1054 0.961 . S
C1068 C1067 1.502 . S
C1069 H1055 0.960 . S
C1069 H1056 0.961 . S
C1069 H1057 0.959 . S
C1069 C1067 1.561 . S
C1070 C1067 1.526 . S
C1070 C1071 1.396 . S
C1070 C1075 1.390 . S
C1071 C1065 1.465 . S
C1071 C1070 1.396 . S
C1071 C1072 1.399 . S
C1072 H1058 0.929 . S
C1072 C1071 1.399 . S
C1072 C1073 1.385 . S
C1073 H1059 0.931 . S
C1073 C1072 1.385 . S
C1073 C1074 1.389 . S
C1074 C1073 1.389 . S
C1074 C1075 1.387 . S
C1075 H1060 0.930 . S
C1075 C1070 1.390 . S
C1075 C1074 1.387 . S
H1076 C1088 0.930 . S
H1077 C1090 0.930 . S
H1078 C1091 0.930 . S
H1079 C1095 0.959 . S
H1080 C1095 0.959 . S
H1081 C1095 0.961 . S
H1082 C1096 0.960 . S
H1083 C1096 0.961 . S
H1084 C1096 0.959 . S
H1085 C1099 0.929 . S
H1086 C1100 0.931 . S
H1087 C1102 0.930 . S
C1088 H1076 0.930 . S
C1088 C1089 1.399 . S
C1088 C1093 1.399 . S
C1089 C1088 1.399 . S
C1089 C1090 1.376 . S
C1090 H1077 0.930 . S
C1090 C1089 1.376 . S
C1090 C1091 1.388 . S
C1091 H1078 0.930 . S
C1091 C1090 1.388 . S
C1091 C1092 1.390 . S
C1092 C1091 1.390 . S
C1092 C1093 1.394 . S
C1092 C1098 1.465 . S
C1093 C1088 1.399 . S
C1093 C1092 1.394 . S
C1093 C1094 1.516 . S
C1094 C1093 1.516 . S
C1094 C1095 1.502 . S
C1094 C1096 1.561 . S
C1094 C1097 1.526 . S
C1095 H1079 0.959 . S
C1095 H1080 0.959 . S
C1095 H1081 0.961 . S
C1095 C1094 1.502 . S
C1096 H1082 0.960 . S
C1096 H1083 0.961 . S
C1096 H1084 0.959 . S
C1096 C1094 1.561 . S
C1097 C1094 1.526 . S
C1097 C1098 1.396 . S
C1097 C1102 1.390 . S
C1098 C1092 1.465 . S
C1098 C1097 1.396 . S
C1098 C1099 1.399 . S
C1099 H1085 0.929 . S
C1099 C1098 1.399 . S
C1099 C1100 1.385 . S
C1100 H1086 0.931 . S
C1100 C1099 1.385 . S
C1100 C1101 1.389 . S
C1101 C1100 1.389 . S
C1101 C1102 1.387 . S
C1102 H1087 0.930 . S
C1102 C1097 1.390 . S
C1102 C1101 1.387 . S
H1103 C1115 0.930 . S
H1104 C1117 0.930 . S
H1105 C1118 0.930 . S
H1106 C1122 0.959 . S
H1107 C1122 0.959 . S
H1108 C1122 0.961 . S
H1109 C1123 0.960 . S
H1110 C1123 0.961 . S
H1111 C1123 0.959 . S
H1112 C1126 0.929 . S
H1113 C1127 0.931 . S
H1114 C1129 0.930 . S
C1115 H1103 0.930 . S
C1115 C1116 1.399 . S
C1115 C1120 1.399 . S
C1116 C1115 1.399 . S
C1116 C1117 1.376 . S
C1117 H1104 0.930 . S
C1117 C1116 1.376 . S
C1117 C1118 1.388 . S
C1118 H1105 0.930 . S
C1118 C1117 1.388 . S
C1118 C1119 1.390 . S
C1119 C1118 1.390 . S
C1119 C1120 1.394 . S
C1119 C1125 1.465 . S
C1120 C1115 1.399 . S
C1120 C1119 1.394 . S
C1120 C1121 1.516 . S
C1121 C1120 1.516 . S
C1121 C1122 1.502 . S
C1121 C1123 1.561 . S
C1121 C1124 1.526 . S
C1122 H1106 0.959 . S
C1122 H1107 0.959 . S
C1122 H1108 0.961 . S
C1122 C1121 1.502 . S
C1123 H1109 0.960 . S
C1123 H1110 0.961 . S
C1123 H1111 0.959 . S
C1123 C1121 1.561 . S
C1124 C1121 1.526 . S
C1124 C1125 1.396 . S
C1124 C1129 1.390 . S
C1125 C1119 1.465 . S
C1125 C1124 1.396 . S
C1125 C1126 1.399 . S
C1126 H1112 0.929 . S
C1126 C1125 1.399 . S
C1126 C1127 1.385 . S
C1127 H1113 0.931 . S
C1127 C1126 1.385 . S
C1127 C1128 1.389 . S
C1128 C1127 1.389 . S
C1128 C1129 1.387 . S
C1129 H1114 0.930 . S
C1129 C1124 1.390 . S
C1129 C1128 1.387 . S
H1130 C1142 0.930 . S
H1131 C1144 0.930 . S
H1132 C1145 0.930 . S
H1133 C1149 0.959 . S
H1134 C1149 0.959 . S
H1135 C1149 0.961 . S
H1136 C1150 0.960 . S
H1137 C1150 0.961 . S
H1138 C1150 0.959 . S
H1139 C1153 0.929 . S
H1140 C1154 0.931 . S
H1141 C1156 0.930 . S
C1142 H1130 0.930 . S
C1142 C1143 1.399 . S
C1142 C1147 1.399 . S
C1143 C1142 1.399 . S
C1143 C1144 1.376 . S
C1144 H1131 0.930 . S
C1144 C1143 1.376 . S
C1144 C1145 1.388 . S
C1145 H1132 0.930 . S
C1145 C1144 1.388 . S
C1145 C1146 1.390 . S
C1146 C1145 1.390 . S
C1146 C1147 1.394 . S
C1146 C1152 1.465 . S
C1147 C1142 1.399 . S
C1147 C1146 1.394 . S
C1147 C1148 1.516 . S
C1148 C1147 1.516 . S
C1148 C1149 1.502 . S
C1148 C1150 1.561 . S
C1148 C1151 1.526 . S
C1149 H1133 0.959 . S
C1149 H1134 0.959 . S
C1149 H1135 0.961 . S
C1149 C1148 1.502 . S
C1150 H1136 0.960 . S
C1150 H1137 0.961 . S
C1150 H1138 0.959 . S
C1150 C1148 1.561 . S
C1151 C1148 1.526 . S
C1151 C1152 1.396 . S
C1151 C1156 1.390 . S
C1152 C1146 1.465 . S
C1152 C1151 1.396 . S
C1152 C1153 1.399 . S
C1153 H1139 0.929 . S
C1153 C1152 1.399 . S
C1153 C1154 1.385 . S
C1154 H1140 0.931 . S
C1154 C1153 1.385 . S
C1154 C1155 1.389 . S
C1155 C1154 1.389 . S
C1155 C1156 1.387 . S
C1156 H1141 0.930 . S
C1156 C1151 1.390 . S
C1156 C1155 1.387 . S
H1157 C1169 0.930 . S
H1158 C1171 0.930 . S
H1159 C1172 0.930 . S
H1160 C1176 0.959 . S
H1161 C1176 0.959 . S
H1162 C1176 0.961 . S
H1163 C1177 0.960 . S
H1164 C1177 0.961 . S
H1165 C1177 0.959 . S
H1166 C1180 0.929 . S
H1167 C1181 0.931 . S
H1168 C1183 0.930 . S
C1169 H1157 0.930 . S
C1169 C1170 1.399 . S
C1169 C1174 1.399 . S
C1170 C1169 1.399 . S
C1170 C1171 1.376 . S
C1171 H1158 0.930 . S
C1171 C1170 1.376 . S
C1171 C1172 1.388 . S
C1172 H1159 0.930 . S
C1172 C1171 1.388 . S
C1172 C1173 1.390 . S
C1173 C1172 1.390 . S
C1173 C1174 1.394 . S
C1173 C1179 1.465 . S
C1174 C1169 1.399 . S
C1174 C1173 1.394 . S
C1174 C1175 1.516 . S
C1175 C1174 1.516 . S
C1175 C1176 1.502 . S
C1175 C1177 1.561 . S
C1175 C1178 1.526 . S
C1176 H1160 0.959 . S
C1176 H1161 0.959 . S
C1176 H1162 0.961 . S
C1176 C1175 1.502 . S
C1177 H1163 0.960 . S
C1177 H1164 0.961 . S
C1177 H1165 0.959 . S
C1177 C1175 1.561 . S
C1178 C1175 1.526 . S
C1178 C1179 1.396 . S
C1178 C1183 1.390 . S
C1179 C1173 1.465 . S
C1179 C1178 1.396 . S
C1179 C1180 1.399 . S
C1180 H1166 0.929 . S
C1180 C1179 1.399 . S
C1180 C1181 1.385 . S
C1181 H1167 0.931 . S
C1181 C1180 1.385 . S
C1181 C1182 1.389 . S
C1182 C1181 1.389 . S
C1182 C1183 1.387 . S
C1183 H1168 0.930 . S
C1183 C1178 1.390 . S
C1183 C1182 1.387 . S
H1184 C1196 0.930 . S
H1185 C1198 0.930 . S
H1186 C1199 0.930 . S
H1187 C1203 0.959 . S
H1188 C1203 0.959 . S
H1189 C1203 0.961 . S
H1190 C1204 0.960 . S
H1191 C1204 0.961 . S
H1192 C1204 0.959 . S
H1193 C1207 0.929 . S
H1194 C1208 0.931 . S
H1195 C1210 0.930 . S
C1196 H1184 0.930 . S
C1196 C1197 1.399 . S
C1196 C1201 1.399 . S
C1197 C1196 1.399 . S
C1197 C1198 1.376 . S
C1198 H1185 0.930 . S
C1198 C1197 1.376 . S
C1198 C1199 1.388 . S
C1199 H1186 0.930 . S
C1199 C1198 1.388 . S
C1199 C1200 1.390 . S
C1200 C1199 1.390 . S
C1200 C1201 1.394 . S
C1200 C1206 1.465 . S
C1201 C1196 1.399 . S
C1201 C1200 1.394 . S
C1201 C1202 1.516 . S
C1202 C1201 1.516 . S
C1202 C1203 1.502 . S
C1202 C1204 1.561 . S
C1202 C1205 1.526 . S
C1203 H1187 0.959 . S
C1203 H1188 0.959 . S
C1203 H1189 0.961 . S
C1203 C1202 1.502 . S
C1204 H1190 0.960 . S
C1204 H1191 0.961 . S
C1204 H1192 0.959 . S
C1204 C1202 1.561 . S
C1205 C1202 1.526 . S
C1205 C1206 1.396 . S
C1205 C1210 1.390 . S
C1206 C1200 1.465 . S
C1206 C1205 1.396 . S
C1206 C1207 1.399 . S
C1207 H1193 0.929 . S
C1207 C1206 1.399 . S
C1207 C1208 1.385 . S
C1208 H1194 0.931 . S
C1208 C1207 1.385 . S
C1208 C1209 1.389 . S
C1209 C1208 1.389 . S
C1209 C1210 1.387 . S
C1210 H1195 0.930 . S
C1210 C1205 1.390 . S
C1210 C1209 1.387 . S
H1211 C1223 0.930 . S
H1212 C1225 0.930 . S
H1213 C1226 0.930 . S
H1214 C1230 0.959 . S
H1215 C1230 0.959 . S
H1216 C1230 0.961 . S
H1217 C1231 0.960 . S
H1218 C1231 0.961 . S
H1219 C1231 0.959 . S
H1220 C1234 0.929 . S
H1221 C1235 0.931 . S
H1222 C1237 0.930 . S
C1223 H1211 0.930 . S
C1223 C1224 1.399 . S
C1223 C1228 1.399 . S
C1224 C1223 1.399 . S
C1224 C1225 1.376 . S
C1225 H1212 0.930 . S
C1225 C1224 1.376 . S
C1225 C1226 1.388 . S
C1226 H1213 0.930 . S
C1226 C1225 1.388 . S
C1226 C1227 1.390 . S
C1227 C1226 1.390 . S
C1227 C1228 1.394 . S
C1227 C1233 1.465 . S
C1228 C1223 1.399 . S
C1228 C1227 1.394 . S
C1228 C1229 1.516 . S
C1229 C1228 1.516 . S
C1229 C1230 1.502 . S
C1229 C1231 1.561 . S
C1229 C1232 1.526 . S
C1230 H1214 0.959 . S
C1230 H1215 0.959 . S
C1230 H1216 0.961 . S
C1230 C1229 1.502 . S
C1231 H1217 0.960 . S
C1231 H1218 0.961 . S
C1231 H1219 0.959 . S
C1231 C1229 1.561 . S
C1232 C1229 1.526 . S
C1232 C1233 1.396 . S
C1232 C1237 1.390 . S
C1233 C1227 1.465 . S
C1233 C1232 1.396 . S
C1233 C1234 1.399 . S
C1234 H1220 0.929 . S
C1234 C1233 1.399 . S
C1234 C1235 1.385 . S
C1235 H1221 0.931 . S
C1235 C1234 1.385 . S
C1235 C1236 1.389 . S
C1236 C1235 1.389 . S
C1236 C1237 1.387 . S
C1237 H1222 0.930 . S
C1237 C1232 1.390 . S
C1237 C1236 1.387 . S
H1238 C1250 0.930 . S
H1239 C1252 0.930 . S
H1240 C1253 0.930 . S
H1241 C1257 0.959 . S
H1242 C1257 0.959 . S
H1243 C1257 0.961 . S
H1244 C1258 0.960 . S
H1245 C1258 0.961 . S
H1246 C1258 0.959 . S
H1247 C1261 0.929 . S
H1248 C1262 0.931 . S
H1249 C1264 0.930 . S
C1250 H1238 0.930 . S
C1250 C1251 1.399 . S
C1250 C1255 1.399 . S
C1251 C1250 1.399 . S
C1251 C1252 1.376 . S
C1252 H1239 0.930 . S
C1252 C1251 1.376 . S
C1252 C1253 1.388 . S
C1253 H1240 0.930 . S
C1253 C1252 1.388 . S
C1253 C1254 1.390 . S
C1254 C1253 1.390 . S
C1254 C1255 1.394 . S
C1254 C1260 1.465 . S
C1255 C1250 1.399 . S
C1255 C1254 1.394 . S
C1255 C1256 1.516 . S
C1256 C1255 1.516 . S
C1256 C1257 1.502 . S
C1256 C1258 1.561 . S
C1256 C1259 1.526 . S
C1257 H1241 0.959 . S
C1257 H1242 0.959 . S
C1257 H1243 0.961 . S
C1257 C1256 1.502 . S
C1258 H1244 0.960 . S
C1258 H1245 0.961 . S
C1258 H1246 0.959 . S
C1258 C1256 1.561 . S
C1259 C1256 1.526 . S
C1259 C1260 1.396 . S
C1259 C1264 1.390 . S
C1260 C1254 1.465 . S
C1260 C1259 1.396 . S
C1260 C1261 1.399 . S
C1261 H1247 0.929 . S
C1261 C1260 1.399 . S
C1261 C1262 1.385 . S
C1262 H1248 0.931 . S
C1262 C1261 1.385 . S
C1262 C1263 1.389 . S
C1263 C1262 1.389 . S
C1263 C1264 1.387 . S
C1264 H1249 0.930 . S
C1264 C1259 1.390 . S
C1264 C1263 1.387 . S
H1265 C1277 0.930 . S
H1266 C1279 0.930 . S
H1267 C1280 0.930 . S
H1268 C1284 0.959 . S
H1269 C1284 0.959 . S
H1270 C1284 0.961 . S
H1271 C1285 0.960 . S
H1272 C1285 0.961 . S
H1273 C1285 0.959 . S
H1274 C1288 0.929 . S
H1275 C1289 0.931 . S
H1276 C1291 0.930 . S
C1277 H1265 0.930 . S
C1277 C1278 1.399 . S
C1277 C1282 1.399 . S
C1278 C1277 1.399 . S
C1278 C1279 1.376 . S
C1279 H1266 0.930 . S
C1279 C1278 1.376 . S
C1279 C1280 1.388 . S
C1280 H1267 0.930 . S
C1280 C1279 1.388 . S
C1280 C1281 1.390 . S
C1281 C1280 1.390 . S
C1281 C1282 1.394 . S
C1281 C1287 1.465 . S
C1282 C1277 1.399 . S
C1282 C1281 1.394 . S
C1282 C1283 1.516 . S
C1283 C1282 1.516 . S
C1283 C1284 1.502 . S
C1283 C1285 1.561 . S
C1283 C1286 1.526 . S
C1284 H1268 0.959 . S
C1284 H1269 0.959 . S
C1284 H1270 0.961 . S
C1284 C1283 1.502 . S
C1285 H1271 0.960 . S
C1285 H1272 0.961 . S
C1285 H1273 0.959 . S
C1285 C1283 1.561 . S
C1286 C1283 1.526 . S
C1286 C1287 1.396 . S
C1286 C1291 1.390 . S
C1287 C1281 1.465 . S
C1287 C1286 1.396 . S
C1287 C1288 1.399 . S
C1288 H1274 0.929 . S
C1288 C1287 1.399 . S
C1288 C1289 1.385 . S
C1289 H1275 0.931 . S
C1289 C1288 1.385 . S
C1289 C1290 1.389 . S
C1290 C1289 1.389 . S
C1290 C1291 1.387 . S
C1291 H1276 0.930 . S
C1291 C1286 1.390 . S
C1291 C1290 1.387 . S
H1292 C1304 0.930 . S
H1293 C1306 0.930 . S
H1294 C1307 0.930 . S
H1295 C1311 0.959 . S
H1296 C1311 0.959 . S
H1297 C1311 0.961 . S
H1298 C1312 0.960 . S
H1299 C1312 0.961 . S
H1300 C1312 0.959 . S
H1301 C1315 0.929 . S
H1302 C1316 0.931 . S
H1303 C1318 0.930 . S
C1304 H1292 0.930 . S
C1304 C1305 1.399 . S
C1304 C1309 1.399 . S
C1305 C1304 1.399 . S
C1305 C1306 1.376 . S
C1306 H1293 0.930 . S
C1306 C1305 1.376 . S
C1306 C1307 1.388 . S
C1307 H1294 0.930 . S
C1307 C1306 1.388 . S
C1307 C1308 1.390 . S
C1308 C1307 1.390 . S
C1308 C1309 1.394 . S
C1308 C1314 1.465 . S
C1309 C1304 1.399 . S
C1309 C1308 1.394 . S
C1309 C1310 1.516 . S
C1310 C1309 1.516 . S
C1310 C1311 1.502 . S
C1310 C1312 1.561 . S
C1310 C1313 1.526 . S
C1311 H1295 0.959 . S
C1311 H1296 0.959 . S
C1311 H1297 0.961 . S
C1311 C1310 1.502 . S
C1312 H1298 0.960 . S
C1312 H1299 0.961 . S
C1312 H1300 0.959 . S
C1312 C1310 1.561 . S
C1313 C1310 1.526 . S
C1313 C1314 1.396 . S
C1313 C1318 1.390 . S
C1314 C1308 1.465 . S
C1314 C1313 1.396 . S
C1314 C1315 1.399 . S
C1315 H1301 0.929 . S
C1315 C1314 1.399 . S
C1315 C1316 1.385 . S
C1316 H1302 0.931 . S
C1316 C1315 1.385 . S
C1316 C1317 1.389 . S
C1317 C1316 1.389 . S
C1317 C1318 1.387 . S
C1318 H1303 0.930 . S
C1318 C1313 1.390 . S
C1318 C1317 1.387 . S
H1319 C1331 0.930 . S
H1320 C1333 0.930 . S
H1321 C1334 0.930 . S
H1322 C1338 0.959 . S
H1323 C1338 0.959 . S
H1324 C1338 0.961 . S
H1325 C1339 0.960 . S
H1326 C1339 0.961 . S
H1327 C1339 0.959 . S
H1328 C1342 0.929 . S
H1329 C1343 0.931 . S
H1330 C1345 0.930 . S
C1331 H1319 0.930 . S
C1331 C1332 1.399 . S
C1331 C1336 1.399 . S
C1332 C1331 1.399 . S
C1332 C1333 1.376 . S
C1333 H1320 0.930 . S
C1333 C1332 1.376 . S
C1333 C1334 1.388 . S
C1334 H1321 0.930 . S
C1334 C1333 1.388 . S
C1334 C1335 1.390 . S
C1335 C1334 1.390 . S
C1335 C1336 1.394 . S
C1335 C1341 1.465 . S
C1336 C1331 1.399 . S
C1336 C1335 1.394 . S
C1336 C1337 1.516 . S
C1337 C1336 1.516 . S
C1337 C1338 1.502 . S
C1337 C1339 1.561 . S
C1337 C1340 1.526 . S
C1338 H1322 0.959 . S
C1338 H1323 0.959 . S
C1338 H1324 0.961 . S
C1338 C1337 1.502 . S
C1339 H1325 0.960 . S
C1339 H1326 0.961 . S
C1339 H1327 0.959 . S
C1339 C1337 1.561 . S
C1340 C1337 1.526 . S
C1340 C1341 1.396 . S
C1340 C1345 1.390 . S
C1341 C1335 1.465 . S
C1341 C1340 1.396 . S
C1341 C1342 1.399 . S
C1342 H1328 0.929 . S
C1342 C1341 1.399 . S
C1342 C1343 1.385 . S
C1343 H1329 0.931 . S
C1343 C1342 1.385 . S
C1343 C1344 1.389 . S
C1344 C1343 1.389 . S
C1344 C1345 1.387 . S
C1345 H1330 0.930 . S
C1345 C1340 1.390 . S
C1345 C1344 1.387 . S
H1346 C1358 0.930 . S
H1347 C1360 0.930 . S
H1348 C1361 0.930 . S
H1349 C1365 0.959 . S
H1350 C1365 0.959 . S
H1351 C1365 0.961 . S
H1352 C1366 0.960 . S
H1353 C1366 0.961 . S
H1354 C1366 0.959 . S
H1355 C1369 0.929 . S
H1356 C1370 0.931 . S
H1357 C1372 0.930 . S
C1358 H1346 0.930 . S
C1358 C1359 1.399 . S
C1358 C1363 1.399 . S
C1359 C1358 1.399 . S
C1359 C1360 1.376 . S
C1360 H1347 0.930 . S
C1360 C1359 1.376 . S
C1360 C1361 1.388 . S
C1361 H1348 0.930 . S
C1361 C1360 1.388 . S
C1361 C1362 1.390 . S
C1362 C1361 1.390 . S
C1362 C1363 1.394 . S
C1362 C1368 1.465 . S
C1363 C1358 1.399 . S
C1363 C1362 1.394 . S
C1363 C1364 1.516 . S
C1364 C1363 1.516 . S
C1364 C1365 1.502 . S
C1364 C1366 1.561 . S
C1364 C1367 1.526 . S
C1365 H1349 0.959 . S
C1365 H1350 0.959 . S
C1365 H1351 0.961 . S
C1365 C1364 1.502 . S
C1366 H1352 0.960 . S
C1366 H1353 0.961 . S
C1366 H1354 0.959 . S
C1366 C1364 1.561 . S
C1367 C1364 1.526 . S
C1367 C1368 1.396 . S
C1367 C1372 1.390 . S
C1368 C1362 1.465 . S
C1368 C1367 1.396 . S
C1368 C1369 1.399 . S
C1369 H1355 0.929 . S
C1369 C1368 1.399 . S
C1369 C1370 1.385 . S
C1370 H1356 0.931 . S
C1370 C1369 1.385 . S
C1370 C1371 1.389 . S
C1371 C1370 1.389 . S
C1371 C1372 1.387 . S
C1372 H1357 0.930 . S
C1372 C1367 1.390 . S
C1372 C1371 1.387 . S
H1373 C1385 0.930 . S
H1374 C1387 0.930 . S
H1375 C1388 0.930 . S
H1376 C1392 0.959 . S
H1377 C1392 0.959 . S
H1378 C1392 0.961 . S
H1379 C1393 0.960 . S
H1380 C1393 0.961 . S
H1381 C1393 0.959 . S
H1382 C1396 0.929 . S
H1383 C1397 0.931 . S
H1384 C1399 0.930 . S
C1385 H1373 0.930 . S
C1385 C1386 1.399 . S
C1385 C1390 1.399 . S
C1386 C1385 1.399 . S
C1386 C1387 1.376 . S
C1387 H1374 0.930 . S
C1387 C1386 1.376 . S
C1387 C1388 1.388 . S
C1388 H1375 0.930 . S
C1388 C1387 1.388 . S
C1388 C1389 1.390 . S
C1389 C1388 1.390 . S
C1389 C1390 1.394 . S
C1389 C1395 1.465 . S
C1390 C1385 1.399 . S
C1390 C1389 1.394 . S
C1390 C1391 1.516 . S
C1391 C1390 1.516 . S
C1391 C1392 1.502 . S
C1391 C1393 1.561 . S
C1391 C1394 1.526 . S
C1392 H1376 0.959 . S
C1392 H1377 0.959 . S
C1392 H1378 0.961 . S
C1392 C1391 1.502 . S
C1393 H1379 0.960 . S
C1393 H1380 0.961 . S
C1393 H1381 0.959 . S
C1393 C1391 1.561 . S
C1394 C1391 1.526 . S
C1394 C1395 1.396 . S
C1394 C1399 1.390 . S
C1395 C1389 1.465 . S
C1395 C1394 1.396 . S
C1395 C1396 1.399 . S
C1396 H1382 0.929 . S
C1396 C1395 1.399 . S
C1396 C1397 1.385 . S
C1397 H1383 0.931 . S
C1397 C1396 1.385 . S
C1397 C1398 1.389 . S
C1398 C1397 1.389 . S
C1398 C1399 1.387 . S
C1399 H1384 0.930 . S
C1399 C1394 1.390 . S
C1399 C1398 1.387 . S
C561 C141 1.487 . S
C549 C0 1.522 . S
C588 C194 1.326 . S
C576 C26 1.359 . S
C615 C257 1.583 . S
C603 C40 1.598 . S
C642 C300 1.289 . S
C630 C43 1.276 . S
C657 C57 1.582 . S
C669 C256 1.606 . S
C696 C293 1.358 . S
C684 C70 1.388 . S
C723 C134 1.496 . S
C711 C97 1.526 . S
C750 C187 1.259 . S
C738 C111 1.245 . S
C777 C240 1.465 . S
C765 C98 1.489 . S
C804 C309 1.836 . S
C792 C68 1.821 . S
C831 C150 1.579 . S
C819 C83 1.580 . S
C858 C203 1.752 . S
C846 C84 1.740 . S
C885 C151 1.573 . S
C873 C15 1.558 . S
C912 C204 1.841 . S
C900 C29 1.833 . S
C939 C247 1.503 . S
C927 C54 1.488 . S
C966 C310 1.743 . S
C954 C13 1.730 . S
C993 C353 1.448 . S
C981 C99 1.482 . S
C1008 C69 1.717 . S
C1020 C406 1.693 . S
C1035 C82 1.630 . S
C1047 C468 1.630 . S
C1062 C85 1.692 . S
C1074 C522 1.704 . S
C1089 C14 1.564 . S
C1101 C469 1.545 . S
C1116 C28 1.781 . S
C1128 C521 1.796 . S
C1143 C55 1.563 . S
C1155 C346 1.535 . S
C1182 C399 1.622 . S
C1170 C12 1.633 . S
C1209 C459 1.443 . S
C1197 C1 1.456 . S
C1224 C27 1.382 . S
C1236 C505 1.393 . S
C1251 C41 1.613 . S
C1263 C362 1.624 . S
C1278 C42 1.346 . S
C1290 C415 1.331 . S
C1317 C363 1.539 . S
C1305 C56 1.524 . S
C1344 C416 1.446 . S
C1332 C71 1.441 . S
C1359 C96 1.531 . S
C1371 C452 1.518 . S
C1398 C512 1.284 . S
C1386 C110 1.311 . S
