# Generated by pormake.
# Topology scu, (8,4)-cn, num edge types: 1
# Building blocks:
#     Node 0, Type 0, BuildingBlock: GIZVER_clean_sbu_0, # of connection points: 8
#     Node 1, Type 1, BuildingBlock: KOZSID_clean_sbu_0, # of connection points: 4
#     Node 2, Type 1, BuildingBlock: KOZSID_clean_sbu_0, # of connection points: 4
#     Edge 3, Type (0, 1), BuildingBlock: MIFKUJ_clean_linker_0, # of connection points: 2
#     Edge 4, Type (0, 1), BuildingBlock: MIFKUJ_clean_linker_0, # of connection points: 2
#     Edge 5, Type (0, 1), BuildingBlock: MIFKUJ_clean_linker_0, # of connection points: 2
#     Edge 6, Type (0, 1), BuildingBlock: MIFKUJ_clean_linker_0, # of connection points: 2
#     Edge 7, Type (0, 1), BuildingBlock: MIFKUJ_clean_linker_0, # of connection points: 2
#     Edge 8, Type (0, 1), BuildingBlock: MIFKUJ_clean_linker_0, # of connection points: 2
#     Edge 9, Type (0, 1), BuildingBlock: MIFKUJ_clean_linker_0, # of connection points: 2
#     Edge 10, Type (0, 1), BuildingBlock: MIFKUJ_clean_linker_0, # of connection points: 2
# Relax obj value: 0.045
# Max RMSD: 0.114
# Mean RMSD: 0.104
data_MOF--net-scu--node1-GIZVER_clean_sbu_0--node2-KOZSID_clean_sbu_0--edge1-MIFKUJ_clean_linker_0
_symmetry_space_group_name_H-M    P1
_symmetry_Int_Tables_number       1
_symmetry_cell_setting            triclinic
loop_
_symmetry_equiv_pos_as_xyz
'x, y, z'
_cell_length_a     33.240008
_cell_length_b     34.001008
_cell_length_c     30.203831
_cell_angle_alpha  94.661309
_cell_angle_beta   80.982825
_cell_angle_gamma 111.69127
loop_
_atom_site_label
_atom_site_type_symbol
_atom_site_fract_x
_atom_site_fract_y
_atom_site_fract_z
_atom_type_partial_charge
Co0 Co 0.0133 0.95537 0.10137 0.0
Co1 Co 0.08284 0.01457 0.06463 0.0
Co2 Co 0.00659 1.00925 0.01035 0.0
O3 O 0.0341 0.97732 0.04125 0.0
H4 H 0.04252 0.95732 0.02103 0.0
O5 O 0.97906 0.04115 0.97935 0.0
Co6 Co 1.00167 0.06508 0.92026 0.0
Co7 Co 0.93168 1.00511 0.95339 0.0
H8 H 0.96989 0.06054 0.99988 0.0
O9 O 0.12746 0.99738 0.07133 0.0
O10 O 0.06878 0.9945 0.1222 0.0
O11 O 0.0909 0.07358 0.07045 0.0
O12 O 0.02708 0.06319 0.04818 0.0
O13 O 0.06107 0.0285 0.96527 0.0
O14 O 0.02124 0.09123 0.8676 0.0
O15 O 0.98033 0.10839 0.92686 0.0
O16 O 0.02877 0.02417 0.90491 0.0
O17 O 0.98605 0.95525 0.97242 0.0
O18 O 0.9244 0.94647 0.94602 0.0
O19 O 0.94718 0.02707 0.89652 0.0
O20 O 0.88736 0.02277 0.94638 0.0
C21 C 0.01564 0.90621 0.13761 0.0
C22 C 0.95328 0.996 0.09822 0.0
C23 C 0.06009 0.08616 0.06718 0.0
C24 C 0.10687 0.99065 0.11189 0.0
C25 C 1.00111 0.11604 0.88605 0.0
C26 C 0.06069 0.02318 0.92282 0.0
C27 C 0.9542 0.93314 0.95133 0.0
C28 C 0.90889 0.03052 0.90629 0.0
O29 O 0.99588 0.93155 0.15533 0.0
O30 O 0.03462 0.91194 0.09596 0.0
O31 O 0.95236 0.99019 0.05582 0.0
O32 O 0.98603 0.99627 0.11564 0.0
C33 C 0.05021 0.58364 0.44551 0.0
C34 C 0.09104 0.61298 0.43021 0.0
C35 C 0.12086 0.60372 0.44946 0.0
C36 C 0.09675 0.56966 0.47569 0.0
N37 N 0.05324 0.55636 0.47437 0.0
Co38 Co 0.00663 0.50912 0.51002 0.0
N39 N 0.05073 0.49552 0.53831 0.0
C40 C 0.09468 0.51443 0.5296 0.0
C41 C 0.11703 0.49714 0.55149 0.0
C42 C 0.08558 0.46519 0.57573 0.0
C43 C 0.04549 0.46505 0.56773 0.0
N44 N 0.95995 0.46261 0.5465 0.0
C45 C 0.96283 0.43666 0.57701 0.0
C46 C 0.92167 0.4108 0.59637 0.0
C47 C 0.89192 0.41986 0.57681 0.0
C48 C 0.91631 0.45101 0.54712 0.0
N49 N 0.96257 0.52205 0.48094 0.0
C50 C 0.9188 0.50117 0.48716 0.0
C51 C 0.89671 0.51575 0.46185 0.0
C52 C 0.92817 0.54798 0.43794 0.0
C53 C 0.96789 0.55155 0.45037 0.0
N54 N 0.01018 0.46766 0.46028 0.0
C55 C 0.01567 0.40827 0.39047 0.0
C56 C 0.9754 0.40581 0.41471 0.0
C57 C 0.9734 0.43565 0.44899 0.0
C58 C 0.05307 0.44109 0.40176 0.0
C59 C 0.04964 0.47003 0.43644 0.0
N60 N 1.00312 0.55056 0.55973 0.0
C61 C 0.96051 0.58192 0.61323 0.0
C62 C 0.99815 0.61006 0.6295 0.0
C63 C 0.03832 0.60775 0.61029 0.0
C64 C 0.04002 0.57788 0.57599 0.0
C65 C 0.96372 0.55288 0.57855 0.0
H66 H 0.0716 0.57751 0.5632 0.0
H67 H 0.93384 0.5328 0.56739 0.0
H68 H 0.94168 0.4321 0.46585 0.0
H69 H 0.07951 0.4939 0.44343 0.0
C70 C 0.11401 0.54876 0.50111 0.0
C71 C 0.00962 0.58347 0.43197 0.0
C72 C 1.00349 0.43512 0.58869 0.0
C73 C 0.89927 0.46923 0.51851 0.0
H74 H 0.09862 0.63861 0.40759 0.0
H75 H 0.15598 0.61994 0.44489 0.0
H76 H 0.15209 0.50654 0.54986 0.0
H77 H 0.09169 0.44424 0.59668 0.0
H78 H 0.91377 0.38769 0.62203 0.0
H79 H 0.85667 0.40537 0.58339 0.0
H80 H 0.8618 0.50449 0.46112 0.0
H81 H 0.92244 0.56677 0.4141 0.0
H82 H 0.94538 0.38126 0.40697 0.0
H83 H 0.08514 0.44411 0.38444 0.0
H84 H 0.92863 0.58277 0.62663 0.0
H85 H 0.0684 0.62856 0.62205 0.0
C86 C 0.43021 0.96603 0.58196 0.0
C87 C 0.40412 0.92608 0.59764 0.0
C88 C 0.41863 0.89786 0.57191 0.0
C89 C 0.45268 0.92202 0.54213 0.0
N90 N 0.46118 0.96409 0.54752 0.0
Co91 Co 0.5068 0.01024 0.50999 0.0
N92 N 0.52754 0.96846 0.47149 0.0
C93 C 0.51193 0.92593 0.47577 0.0
C94 C 0.53335 0.90558 0.44553 0.0
C95 C 0.56496 0.93698 0.42067 0.0
C96 C 0.56094 0.97484 0.43727 0.0
N97 N 0.55176 0.0563 0.47183 0.0
C98 C 0.58234 0.05432 0.43699 0.0
C99 C 0.60716 0.09406 0.42001 0.0
C100 C 0.59199 0.12219 0.44511 0.0
C101 C 0.55887 0.09817 0.47584 0.0
N102 N 0.48678 0.05211 0.5492 0.0
C103 C 0.5033 0.09475 0.54567 0.0
C104 C 0.48283 0.11527 0.57679 0.0
C105 C 0.45117 0.08394 0.60168 0.0
C106 C 0.45418 0.04589 0.58425 0.0
N107 N 0.55033 0.01573 0.5505 0.0
C108 C 0.61472 0.0237 0.60472 0.0
C109 C 0.60939 0.05944 0.59093 0.0
C110 C 0.57744 0.05478 0.56384 0.0
C111 C 0.58696 0.98389 0.59151 0.0
C112 C 0.55497 0.98065 0.56497 0.0
N113 N 0.46322 1.00476 0.4694 0.0
C114 C 0.42177 0.03554 0.43387 0.0
C115 C 0.3988 0.99633 0.41511 0.0
C116 C 0.40888 0.9615 0.42327 0.0
C117 C 0.44065 0.96628 0.45066 0.0
C118 C 0.454 0.03913 0.46021 0.0
H119 H 0.446 0.9383 0.45643 0.0
H120 H 0.47082 0.07005 0.47286 0.0
H121 H 0.57559 0.08326 0.5538 0.0
H122 H 0.53451 0.94943 0.55645 0.0
C123 C 0.47713 0.90612 0.50869 0.0
C124 C 0.42406 1.00469 0.60093 0.0
C125 C 0.59004 0.01595 0.41971 0.0
C126 C 0.53601 0.11427 0.51078 0.0
H127 H 0.37722 0.91816 0.62477 0.0
H128 H 0.40572 0.86375 0.57441 0.0
H129 H 0.52699 0.87196 0.4422 0.0
H130 H 0.58853 0.93256 0.39357 0.0
H131 H 0.63394 0.10194 0.39277 0.0
H132 H 0.60434 0.15624 0.44201 0.0
H133 H 0.4894 0.14894 0.58024 0.0
H134 H 0.4279 0.08858 0.62895 0.0
H135 H 0.63036 0.09095 0.60028 0.0
H136 H 0.58954 0.95531 0.60205 0.0
H137 H 0.41526 0.06345 0.42781 0.0
H138 H 0.39164 0.93046 0.40936 0.0
H139 H 0.99303 0.11625 0.08119 0.0
H140 H 0.98679 0.17396 0.13161 0.0
H141 H 0.11738 0.20223 0.1617 0.0
H142 H 0.12373 0.14401 0.11171 0.0
H143 H 0.06523 0.19886 0.23635 0.0
H144 H 0.08937 0.26816 0.09612 0.0
H145 H 0.07461 0.27424 0.0199 0.0
H146 H 0.94408 0.26592 0.07252 0.0
H147 H 0.95788 0.25924 0.14899 0.0
H148 H 0.06659 0.42297 0.30844 0.0
H149 H 0.07453 0.37095 0.25017 0.0
H150 H 0.97956 0.27036 0.33105 0.0
H151 H 0.97199 0.32216 0.38988 0.0
H152 H 0.01628 0.31227 0.19998 0.0
H153 H 0.01322 0.18485 0.31595 0.0
H154 H 0.02876 0.17921 0.39193 0.0
H155 H 0.12233 0.3065 0.38599 0.0
H156 H 0.10774 0.3127 0.30978 0.0
C157 C 0.02082 0.13517 0.09783 0.0
C158 C 0.05895 0.12535 0.09222 0.0
C159 C 0.01712 0.16826 0.12686 0.0
C160 C 0.05156 0.19263 0.15068 0.0
C161 C 0.09021 0.18382 0.14395 0.0
C162 C 0.09391 0.15063 0.11506 0.0
C163 C 0.04656 0.22574 0.18433 0.0
C164 C 0.05471 0.22372 0.22821 0.0
C165 C 0.03266 0.25823 0.17406 0.0
C166 C 0.02459 0.26295 0.12821 0.0
C167 C 0.05746 0.26745 0.09139 0.0
C168 C 0.04927 0.27101 0.04816 0.0
C169 C 0.0084 0.27037 0.04138 0.0
C170 C 0.97571 0.26638 0.07783 0.0
C171 C 0.98372 0.26278 0.12113 0.0
C172 C 0.04748 0.38977 0.31394 0.0
C173 C 0.01887 0.37675 0.35403 0.0
C174 C 0.05179 0.3601 0.2804 0.0
C175 C 0.02793 0.31672 0.28634 0.0
C176 C 0.9986 0.30364 0.32587 0.0
C177 C 0.9941 0.33333 0.35936 0.0
C178 C 0.03484 0.28517 0.25179 0.0
C179 C 0.02694 0.28743 0.20791 0.0
C180 C 0.04917 0.25299 0.26195 0.0
C181 C 0.05898 0.24936 0.30737 0.0
C182 C 0.0372 0.21157 0.33081 0.0
C183 C 0.04584 0.20829 0.37393 0.0
C184 C 0.07639 0.24253 0.39385 0.0
C185 C 0.09855 0.28006 0.3706 0.0
C186 C 0.09007 0.28349 0.32746 0.0
H187 H 0.08297 0.23995 0.42726 0.0
H188 H 1.00206 0.27297 1.0079 0.0
H189 H 0.87617 0.99718 0.0761 0.0
H190 H 0.81503 1.00675 0.12698 0.0
H191 H 0.8851 0.01958 0.23924 0.0
H192 H 0.94612 0.01077 0.18898 0.0
H193 H 0.76193 0.96069 0.19321 0.0
H194 H 0.86039 0.08054 0.32098 0.0
H195 H 0.92791 0.14358 0.32238 0.0
H196 H 0.92458 0.16865 0.18626 0.0
H197 H 0.85741 0.1055 0.18382 0.0
H198 H 0.67065 0.01936 0.43212 0.0
H199 H 0.73217 0.02039 0.37457 0.0
H200 H 0.65569 0.01928 0.27116 0.0
H201 H 0.59416 0.01798 0.3289 0.0
H202 H 0.78063 0.07597 0.30887 0.0
H203 H 0.68268 0.96076 0.18013 0.0
H204 H 0.61183 0.902 0.17805 0.0
H205 H 0.61158 0.87204 0.31353 0.0
H206 H 0.68274 0.9301 0.31613 0.0
C207 C 0.8787 1.00238 0.11158 0.0
C208 C 0.91625 1.00316 0.12825 0.0
C209 C 0.84363 1.0078 0.1407 0.0
C210 C 0.84543 0.01446 0.18709 0.0
C211 C 0.88302 0.01545 0.20363 0.0
C212 C 0.91794 0.01006 0.17468 0.0
C213 C 0.80746 0.01826 0.21868 0.0
C214 C 0.76597 0.98638 0.21792 0.0
C215 C 0.81249 0.05126 0.25168 0.0
C216 C 0.85407 0.08808 0.25214 0.0
C217 C 0.87425 0.09936 0.29126 0.0
C218 C 0.91253 0.13503 0.29217 0.0
C219 C 0.93071 0.15991 0.2543 0.0
C220 C 0.91082 0.14902 0.21534 0.0
C221 C 0.87274 0.11318 0.21411 0.0
C222 C 0.66727 0.01957 0.39705 0.0
C223 C 0.62793 0.01859 0.38471 0.0
C224 C 0.70235 0.02024 0.36421 0.0
C225 C 0.69858 0.01953 0.31839 0.0
C226 C 0.65933 0.01931 0.30617 0.0
C227 C 0.62428 0.01874 0.33906 0.0
C228 C 0.73543 0.01826 0.28358 0.0
C229 C 0.77666 0.0505 0.2839 0.0
C230 C 0.73006 0.98583 0.24994 0.0
C231 C 0.68781 0.95009 0.24844 0.0
C232 C 0.6676 0.94149 0.20938 0.0
C233 C 0.62738 0.90831 0.20812 0.0
C234 C 0.60715 0.88339 0.24568 0.0
C235 C 0.62721 0.89145 0.2845 0.0
C236 C 0.66748 0.9245 0.28589 0.0
H237 H 0.57598 0.85779 0.24467 0.0
H238 H 0.95995 0.18781 0.25528 0.0
H239 H 0.97761 0.88748 0.22415 0.0
H240 H 0.9789 0.83334 0.27126 0.0
H241 H 0.05854 0.79378 0.16381 0.0
H242 H 0.05672 0.84801 0.11571 0.0
H243 H 0.99649 0.72568 0.20365 0.0
H244 H 0.10267 0.85287 0.26135 0.0
H245 H 0.12951 0.92548 0.2934 0.0
H246 H 0.02447 0.89094 0.40217 0.0
H247 H 0.99702 0.8179 0.3712 0.0
H248 H 0.04596 0.59378 0.34347 0.0
H249 H 0.04892 0.64745 0.29208 0.0
H250 H 0.97737 0.69922 0.39697 0.0
H251 H 0.97589 0.64642 0.44862 0.0
H252 H 0.03825 0.7614 0.35657 0.0
H253 H 0.93127 0.6368 0.30374 0.0
H254 H 0.90067 0.56297 0.27597 0.0
H255 H 0.99938 0.59122 0.16073 0.0
H256 H 0.03099 0.66513 0.18816 0.0
C257 C 0.99558 0.86745 0.21027 0.0
C258 C 0.01711 0.87245 0.16582 0.0
C259 C 0.99655 0.83646 0.23761 0.0
C260 C 0.01948 0.80956 0.22179 0.0
C261 C 0.04073 0.81409 0.17721 0.0
C262 C 0.03972 0.84522 0.14963 0.0
C263 C 0.02021 0.77635 0.25157 0.0
C264 C 0.00642 0.73368 0.23677 0.0
C265 C 0.03154 0.78601 0.29565 0.0
C266 C 0.04758 0.83007 0.31373 0.0
C267 C 0.0851 0.86083 0.29191 0.0
C268 C 0.10049 0.90203 0.30992 0.0
C269 C 0.07862 0.91293 0.34949 0.0
C270 C 0.04135 0.88252 0.37143 0.0
C271 C 0.02595 0.84117 0.35379 0.0
C272 C 0.03093 0.6167 0.35545 0.0
C273 C 0.01069 0.61586 0.4001 0.0
C274 C 0.03229 0.64726 0.32593 0.0
C275 C 0.01285 0.67748 0.34006 0.0
C276 C 0.99266 0.67654 0.38483 0.0
C277 C 0.99161 0.64619 0.4144 0.0
C278 C 0.01439 0.71062 0.30882 0.0
C279 C 0.02856 0.7533 0.32336 0.0
C280 C 1.00265 0.7008 0.26487 0.0
C281 C 0.9838 0.65639 0.24827 0.0
C282 C 0.94669 0.62719 0.27267 0.0
C283 C 0.92912 0.58534 0.25696 0.0
C284 C 0.94814 0.57238 0.21668 0.0
C285 C 0.98473 0.60128 0.19197 0.0
C286 C 1.00248 0.64317 0.20757 0.0
H287 H 0.93448 0.53996 0.20456 0.0
H288 H 0.09068 0.94491 0.36324 0.0
H289 H 0.08695 0.99679 0.20314 0.0
H290 H 0.1302 0.9922 0.25985 0.0
H291 H 0.2197 0.96119 0.15629 0.0
H292 H 0.17702 0.96599 0.0996 0.0
H293 H 0.20097 0.91343 0.23178 0.0
H294 H 0.24356 0.06152 0.19549 0.0
H295 H 0.22838 0.12629 0.1883 0.0
H296 H 0.17798 0.12381 0.32836 0.0
H297 H 0.19234 0.05866 0.33622 0.0
H298 H 0.39253 0.96281 0.33044 0.0
H299 H 0.33679 0.95683 0.28351 0.0
H300 H 0.27106 0.01207 0.39099 0.0
H301 H 0.32825 0.02004 0.43701 0.0
H302 H 0.27102 0.04472 0.31898 0.0
H303 H 0.23125 0.90166 0.3596 0.0
H304 H 0.24149 0.83494 0.37003 0.0
H305 H 0.27929 0.82425 0.22829 0.0
H306 H 0.26982 0.8912 0.21706 0.0
C307 C 0.11551 0.98845 0.19256 0.0
C308 C 0.12898 0.98238 0.14689 0.0
C309 C 0.14025 0.98598 0.22494 0.0
C310 C 0.17849 0.97695 0.21212 0.0
C311 C 0.19044 0.96842 0.16684 0.0
C312 C 0.16608 0.97133 0.13449 0.0
C313 C 0.20755 0.97847 0.24524 0.0
C314 C 0.21668 0.94218 0.25062 0.0
C315 C 0.22662 0.01555 0.27096 0.0
C316 C 0.21865 0.05505 0.26634 0.0
C317 C 0.22901 0.07466 0.22468 0.0
C318 C 0.22058 0.11145 0.2205 0.0
C319 C 0.20213 0.1291 0.25783 0.0
C320 C 0.19221 0.11008 0.29946 0.0
C321 C 0.20052 0.07325 0.30381 0.0
C322 C 0.36602 0.97346 0.34396 0.0
C323 C 0.36448 0.99179 0.38722 0.0
C324 C 0.33398 0.96978 0.31732 0.0
C325 C 0.29905 0.98317 0.33395 0.0
C326 C 0.29755 1.00142 0.37735 0.0
C327 C 0.33014 1.00595 0.40363 0.0
C328 C 0.26514 0.97966 0.30541 0.0
C329 C 0.25514 0.01567 0.30067 0.0
C330 C 0.24452 0.94199 0.281 0.0
C331 C 0.25018 0.90165 0.28756 0.0
C332 C 0.24205 0.88524 0.3307 0.0
C333 C 0.24766 0.84735 0.33674 0.0
C334 C 0.26113 0.82543 0.29986 0.0
C335 C 0.2689 0.84129 0.25683 0.0
C336 C 0.26335 0.87917 0.2506 0.0
H337 H 0.26547 0.7961 0.30462 0.0
H338 H 0.19559 0.15756 0.25451 0.0
H339 H 0.89325 0.87778 0.90218 0.0
H340 H 0.90098 0.82026 0.85196 0.0
H341 H 0.02707 0.84334 0.89141 0.0
H342 H 0.01963 0.9008 0.94198 0.0
H343 H 0.96057 0.82611 0.77993 0.0
H344 H 0.04916 0.75343 0.87777 0.0
H345 H 0.05506 0.74312 0.95612 0.0
H346 H 0.92454 0.7407 0.9974 0.0
H347 H 0.91772 0.75051 0.91924 0.0
H348 H 0.05017 0.69398 0.63459 0.0
H349 H 0.04379 0.74649 0.69316 0.0
H350 H 0.93366 0.65051 0.76499 0.0
H351 H 0.94001 0.5978 0.70675 0.0
H352 H 0.99234 0.70339 0.8214 0.0
H353 H 0.91575 0.71531 0.70269 0.0
H354 H 0.90903 0.72569 0.62471 0.0
H355 H 0.01085 0.84838 0.62627 0.0
H356 H 0.01854 0.83848 0.70411 0.0
C357 C 0.92235 0.87024 0.90086 0.0
C358 C 0.95577 0.89405 0.92632 0.0
C359 C 0.92683 0.83745 0.87183 0.0
C360 C 0.96466 0.82746 0.86771 0.0
C361 C 0.99744 0.85017 0.89418 0.0
C362 C 0.99302 0.88301 0.92326 0.0
C363 C 0.97051 0.79471 0.83413 0.0
C364 C 0.96748 0.79928 0.7891 0.0
C365 C 0.97975 0.75975 0.84583 0.0
C366 C 0.98306 0.75292 0.89275 0.0
C367 C 0.02165 0.75043 0.90356 0.0
C368 C 0.02518 0.74475 0.94792 0.0
C369 C 0.99023 0.74134 0.98173 0.0
C370 C 0.95162 0.74345 0.97121 0.0
C371 C 0.94792 0.74911 0.92689 0.0
C372 C 0.02489 0.68395 0.66311 0.0
C373 C 0.99544 0.64172 0.66588 0.0
C374 C 0.02117 0.71404 0.69644 0.0
C375 C 0.98809 0.70248 0.73334 0.0
C376 C 0.95942 0.66014 0.73683 0.0
C377 C 0.96286 0.63013 0.70333 0.0
C378 C 0.98215 0.73477 0.76738 0.0
C379 C 0.98545 0.73026 0.81234 0.0
C380 C 0.97302 0.76978 0.75567 0.0
C381 C 0.96814 0.77591 0.70901 0.0
C382 C 0.93698 0.74434 0.68627 0.0
C383 C 0.93293 0.75017 0.64212 0.0
C384 C 0.95961 0.78761 0.62049 0.0
C385 C 0.99028 0.81935 0.64302 0.0
C386 C 0.9945 0.81365 0.68716 0.0
H387 H 0.95642 0.79207 0.58631 0.0
H388 H 0.99305 0.73701 0.01607 0.0
H389 H 0.0635 0.99605 0.83503 0.0
H390 H 0.1251 0.9879 0.78479 0.0
H391 H 0.20406 0.02583 0.89232 0.0
H392 H 0.14222 0.03412 0.94314 0.0
H393 H 0.24717 0.06791 0.81559 0.0
H394 H 0.16902 0.92358 0.85521 0.0
H395 H 0.10602 0.85648 0.8663 0.0
H396 H 0.09291 0.84974 0.72646 0.0
H397 H 0.15573 0.91703 0.71453 0.0
H398 H 0.42598 0.02355 0.69039 0.0
H399 H 0.36462 0.02187 0.74833 0.0
H400 H 0.2765 0.97899 0.64885 0.0
H401 H 0.33792 0.98003 0.59119 0.0
H402 H 0.23911 0.93747 0.72497 0.0
H403 H 0.3152 0.08293 0.68587 0.0
H404 H 0.37949 0.14895 0.67403 0.0
H405 H 0.3957 0.1537 0.81289 0.0
H406 H 0.33194 0.08723 0.82538 0.0
C407 C 0.09384 1.00247 0.84825 0.0
C408 C 0.09783 0.01594 0.89325 0.0
C409 C 0.12906 0.99752 0.81941 0.0
C410 C 0.16929 1.00596 0.83469 0.0
C411 C 0.17336 0.01906 0.8797 0.0
C412 C 0.13791 0.02366 0.90878 0.0
C413 C 0.20743 1.00292 0.803 0.0
C414 C 0.24566 0.03912 0.7964 0.0
C415 C 0.2052 0.96574 0.77695 0.0
C416 C 0.16688 0.92561 0.78407 0.0
C417 C 0.15243 0.90806 0.82689 0.0
C418 C 0.11677 0.86994 0.83332 0.0
C419 C 0.09528 0.84901 0.79717 0.0
C420 C 0.10947 0.8661 0.75447 0.0
C421 C 0.14518 0.90418 0.74783 0.0
C422 C 0.39341 0.0136 0.68115 0.0
C423 C 0.38652 1.00215 0.63647 0.0
C424 C 0.35838 0.01277 0.71414 0.0
C425 C 0.31582 1.00086 0.70301 0.0
C426 C 0.30889 0.98835 0.65841 0.0
C427 C 0.34393 0.98906 0.62546 0.0
C428 C 0.2788 1.00251 0.73745 0.0
C429 C 0.24072 0.96614 0.74441 0.0
C430 C 0.28105 0.03958 0.76375 0.0
C431 C 0.31905 0.07986 0.75645 0.0
C432 C 0.33265 0.09789 0.71381 0.0
C433 C 0.36899 0.1354 0.70699 0.0
C434 C 0.39172 0.15546 0.74266 0.0
C435 C 0.37809 0.13809 0.78527 0.0
C436 C 0.34186 0.1005 0.79224 0.0
H437 H 0.41984 0.18451 0.73732 0.0
H438 H 0.06785 0.81941 0.80216 0.0
H439 H 0.06317 0.15787 0.81861 0.0
H440 H 0.06418 0.21392 0.77251 0.0
H441 H 0.93955 0.20894 0.84436 0.0
H442 H 0.93978 0.1541 0.89237 0.0
H443 H 0.0222 0.21824 0.71461 0.0
H444 H 0.92138 0.29906 0.83749 0.0
H445 H 0.90939 0.31517 0.91857 0.0
H446 H 0.03453 0.31168 0.93292 0.0
H447 H 0.04735 0.29586 0.85198 0.0
H448 H 0.96705 0.34832 0.58207 0.0
H449 H 0.96409 0.29609 0.63491 0.0
H450 H 0.03656 0.39693 0.72038 0.0
H451 H 0.03628 0.44916 0.66912 0.0
H452 H 0.98348 0.34214 0.77227 0.0
H453 H 0.08191 0.32903 0.64254 0.0
H454 H 0.10531 0.3181 0.56235 0.0
H455 H 1.00388 0.195 0.56344 0.0
H456 H 0.97945 0.2055 0.64347 0.0
C457 C 0.03616 0.16905 0.82505 0.0
C458 C 1.0016 0.15165 0.85962 0.0
C459 C 0.03667 0.20118 0.79838 0.0
C460 C 1.00225 0.21664 0.80475 0.0
C461 C 0.96732 0.19892 0.83915 0.0
C462 C 0.96729 0.16726 0.86662 0.0
C463 C 1.00245 0.24978 0.77412 0.0
C464 C 0.01338 0.24509 0.72752 0.0
C465 C 0.99243 0.28599 0.79014 0.0
C466 C 0.98508 0.29583 0.83878 0.0
C467 C 0.94635 0.30183 0.85796 0.0
C468 C 0.93939 0.31085 0.90391 0.0
C469 C 0.97108 0.31425 0.93094 0.0
C470 C 0.00988 0.3088 0.91204 0.0
C471 C 0.01698 0.29974 0.86615 0.0
C472 C 0.98201 0.3593 0.61236 0.0
C473 C 1.00215 0.40296 0.62117 0.0
C474 C 0.98079 0.32933 0.64249 0.0
C475 C 1.00107 0.34201 0.68163 0.0
C476 C 0.0207 0.38579 0.69066 0.0
C477 C 0.02093 0.41578 0.66106 0.0
C478 C 1.00219 0.30992 0.71279 0.0
C479 C 0.99174 0.31495 0.75946 0.0
C480 C 0.01392 0.27458 0.69697 0.0
C481 C 0.02864 0.26821 0.64888 0.0
C482 C 0.06445 0.29975 0.62559 0.0
C483 C 0.07789 0.29362 0.58017 0.0
C484 C 0.05603 0.25592 0.55778 0.0
C485 C 0.02074 0.22421 0.5808 0.0
C486 C 0.0071 0.23022 0.62619 0.0
H487 H 0.06649 0.25125 0.52262 0.0
H488 H 0.96562 0.3212 0.96649 0.0
H489 H 0.91854 0.01012 0.81686 0.0
H490 H 0.87332 0.01379 0.76179 0.0
H491 H 0.80625 0.07499 0.86131 0.0
H492 H 0.84989 0.06946 0.91676 0.0
H493 H 0.74929 0.01421 0.82446 0.0
H494 H 0.88112 0.12479 0.76844 0.0
H495 H 0.95933 0.15703 0.74063 0.0
H496 H 0.94307 0.07211 0.62613 0.0
H497 H 0.86474 0.03778 0.65427 0.0
H498 H 0.63267 0.07298 0.68028 0.0
H499 H 0.6879 0.07853 0.72797 0.0
H500 H 0.72918 0.98993 0.64026 0.0
H501 H 0.67373 0.984 0.59253 0.0
H502 H 0.79961 0.06459 0.66865 0.0
H503 H 0.66843 0.95214 0.729 0.0
H504 H 0.59004 0.92046 0.758 0.0
H505 H 0.60659 0.01447 0.86444 0.0
H506 H 0.68501 0.04711 0.83564 0.0
C507 C 0.89465 0.02501 0.82663 0.0
C508 C 0.88737 0.03918 0.87108 0.0
C509 C 0.86885 0.02719 0.79514 0.0
C510 C 0.83625 0.04468 0.80731 0.0
C511 C 0.83081 0.06096 0.85115 0.0
C512 C 0.85587 0.05795 0.88279 0.0
C513 C 0.80561 0.04336 0.7757 0.0
C514 C 0.76053 0.02593 0.79066 0.0
C515 C 0.81999 0.05753 0.73106 0.0
C516 C 0.86703 0.07836 0.71377 0.0
C517 C 0.89419 0.11262 0.73755 0.0
C518 C 0.93862 0.13135 0.72168 0.0
C519 C 0.95626 0.11684 0.68156 0.0
C520 C 0.92941 0.08334 0.65725 0.0
C521 C 0.88498 0.0641 0.67323 0.0
C522 C 0.65376 0.05496 0.67102 0.0
C523 C 0.64886 0.02792 0.63288 0.0
C524 C 0.68516 0.05808 0.69826 0.0
C525 C 0.71246 0.03457 0.68758 0.0
C526 C 0.70842 1.00835 0.64893 0.0
C527 C 0.67658 1.00475 0.62199 0.0
C528 C 0.74392 0.03604 0.71791 0.0
C529 C 0.78884 0.0532 0.70261 0.0
C530 C 0.72958 0.02203 0.76239 0.0
C531 C 0.68248 1.00233 0.77988 0.0
C532 C 0.65528 0.96629 0.75835 0.0
C533 C 0.61086 0.94811 0.7748 0.0
C534 C 0.59332 0.96551 0.81297 0.0
C535 C 0.62021 1.00106 0.83484 0.0
C536 C 0.66464 0.0194 0.81848 0.0
H537 H 0.55893 0.95139 0.82566 0.0
H538 H 0.99069 0.1316 0.6693 0.0
loop_
_geom_bond_atom_site_label_1
_geom_bond_atom_site_label_2
_geom_bond_distance
_geom_bond_site_symmetry_2
_ccdc_geom_bond_type
Co0 O3 2.046 . S
Co0 O10 2.277 . S
Co0 O29 2.287 1_455 S
Co0 O30 2.084 . S
Co0 O32 1.997 1_455 S
Co1 O3 2.122 1_545 S
Co1 O9 2.073 . S
Co1 O10 2.327 1_545 S
Co1 O11 1.976 . S
Co2 O3 2.093 1_545 S
Co2 O5 2.081 1_454 S
Co2 O12 2.143 . S
Co2 O13 2.129 1_554 S
Co2 O17 2.080 1_444 S
Co2 O31 2.158 1_445 S
O3 Co0 2.046 . S
O3 Co1 2.122 1_565 S
O3 Co2 2.093 1_565 S
O3 H4 0.980 . S
H4 O3 0.980 . S
O5 Co2 2.081 1_656 S
O5 Co6 2.042 1_655 S
O5 Co7 2.122 1_545 S
O5 H8 0.980 . S
Co6 O5 2.042 1_455 S
Co6 O14 2.286 . S
Co6 O15 2.069 1_455 S
Co6 O16 2.015 . S
Co6 O19 2.264 1_455 S
Co7 O5 2.122 1_565 S
Co7 O18 1.976 . S
Co7 O19 2.327 1_565 S
Co7 O20 2.073 . S
H8 O5 0.980 . S
O9 Co1 2.073 . S
O9 C24 1.245 1_545 S
O10 Co0 2.277 . S
O10 Co1 2.327 1_565 S
O10 C24 1.257 . S
O11 Co1 1.976 . S
O11 C23 1.251 . S
O12 Co2 2.143 . S
O12 C23 1.274 . S
O13 Co2 2.129 1_556 S
O13 C26 1.246 . S
O14 Co6 2.286 . S
O14 C25 1.259 1_455 S
O15 Co6 2.069 1_655 S
O15 C25 1.289 . S
O16 Co6 2.015 . S
O16 C26 1.257 . S
O17 Co2 2.080 1_666 S
O17 C27 1.274 . S
O18 Co7 1.976 . S
O18 C27 1.251 . S
O19 Co6 2.264 1_655 S
O19 Co7 2.327 1_545 S
O19 C28 1.257 . S
O20 Co7 2.073 . S
O20 C28 1.245 1_565 S
C21 O29 1.259 1_455 S
C21 O30 1.289 . S
C22 O31 1.246 . S
C22 O32 1.257 . S
C23 O11 1.251 . S
C23 O12 1.274 . S
C24 O9 1.245 1_565 S
C24 O10 1.257 . S
C25 O14 1.259 1_655 S
C25 O15 1.289 . S
C26 O13 1.246 . S
C26 O16 1.257 . S
C27 O17 1.274 . S
C27 O18 1.251 . S
C28 O19 1.257 . S
C28 O20 1.245 1_545 S
O29 Co0 2.287 1_655 S
O29 C21 1.259 1_655 S
O30 Co0 2.084 . S
O30 C21 1.289 . S
O31 Co2 2.158 1_665 S
O31 C22 1.246 . S
O32 Co0 1.997 1_655 S
O32 C22 1.257 . S
C33 C34 1.443 . S
C33 N37 1.376 . S
C33 C71 1.389 . S
C34 C33 1.443 . S
C34 C35 1.340 . S
C34 H74 0.951 . S
C35 C34 1.340 . S
C35 C36 1.439 . S
C35 H75 0.950 . S
C36 C35 1.439 . S
C36 N37 1.374 . S
C36 C70 1.395 . S
N37 C33 1.376 . S
N37 C36 1.374 . S
N37 Co38 2.008 . S
Co38 N37 2.008 . S
Co38 N39 1.995 . S
Co38 N44 2.008 1_455 S
Co38 N49 1.995 1_455 S
Co38 N54 2.282 . S
Co38 N60 2.282 1_455 S
N39 Co38 1.995 . S
N39 C40 1.376 . S
N39 C43 1.383 . S
C40 N39 1.376 . S
C40 C41 1.446 . S
C40 C70 1.391 . S
C41 C40 1.446 . S
C41 C42 1.339 . S
C41 H76 0.949 . S
C42 C41 1.339 . S
C42 C43 1.439 . S
C42 H77 0.950 . S
C43 N39 1.383 . S
C43 C42 1.439 . S
C43 C72 1.404 . S
N44 Co38 2.008 1_655 S
N44 C45 1.376 . S
N44 C48 1.374 . S
C45 N44 1.376 . S
C45 C46 1.443 . S
C45 C72 1.369 1_655 S
C46 C45 1.443 . S
C46 C47 1.340 . S
C46 H78 0.951 . S
C47 C46 1.340 . S
C47 C48 1.439 . S
C47 H79 0.950 . S
C48 N44 1.374 . S
C48 C47 1.439 . S
C48 C73 1.395 . S
N49 Co38 1.995 1_655 S
N49 C50 1.376 . S
N49 C53 1.383 . S
C50 N49 1.376 . S
C50 C51 1.446 . S
C50 C73 1.391 . S
C51 C50 1.446 . S
C51 C52 1.339 . S
C51 H80 0.949 . S
C52 C51 1.339 . S
C52 C53 1.439 . S
C52 H81 0.950 . S
C53 N49 1.383 . S
C53 C52 1.439 . S
C53 C71 1.392 1_655 S
N54 Co38 2.282 . S
N54 C57 1.332 1_455 S
N54 C59 1.332 . S
C55 C56 1.386 1_455 S
C55 C58 1.388 . S
C56 C55 1.386 1_655 S
C56 C57 1.382 . S
C56 H82 0.950 . S
C57 N54 1.332 1_655 S
C57 C56 1.382 . S
C57 H68 0.952 . S
C58 C55 1.388 . S
C58 C59 1.382 . S
C58 H83 0.950 . S
C59 N54 1.332 . S
C59 C58 1.382 . S
C59 H69 0.948 . S
N60 Co38 2.282 1_655 S
N60 C64 1.332 1_655 S
N60 C65 1.332 . S
C61 C62 1.372 1_655 S
C61 C65 1.382 . S
C61 H84 0.950 . S
C62 C61 1.372 1_455 S
C62 C63 1.408 . S
C63 C62 1.408 . S
C63 C64 1.382 . S
C63 H85 0.950 . S
C64 N60 1.332 1_455 S
C64 C63 1.382 . S
C64 H66 0.952 . S
C65 N60 1.332 . S
C65 C61 1.382 . S
C65 H67 0.948 . S
H66 C64 0.952 . S
H67 C65 0.948 . S
H68 C57 0.952 . S
H69 C59 0.948 . S
C70 C36 1.395 . S
C70 C40 1.391 . S
C71 C33 1.389 . S
C71 C53 1.392 1_455 S
C72 C43 1.404 . S
C72 C45 1.369 1_455 S
C73 C48 1.395 . S
C73 C50 1.391 . S
H74 C34 0.951 . S
H75 C35 0.950 . S
H76 C41 0.949 . S
H77 C42 0.950 . S
H78 C46 0.951 . S
H79 C47 0.950 . S
H80 C51 0.949 . S
H81 C52 0.950 . S
H82 C56 0.950 . S
H83 C58 0.950 . S
H84 C61 0.950 . S
H85 C63 0.950 . S
C86 C87 1.443 . S
C86 N90 1.376 . S
C86 C124 1.381 1_565 S
C87 C86 1.443 . S
C87 C88 1.340 . S
C87 H127 0.951 . S
C88 C87 1.340 . S
C88 C89 1.439 . S
C88 H128 0.950 . S
C89 C88 1.439 . S
C89 N90 1.374 . S
C89 C123 1.395 . S
N90 C86 1.376 . S
N90 C89 1.374 . S
N90 Co91 1.996 1_565 S
Co91 N90 1.996 1_545 S
Co91 N92 1.974 1_545 S
Co91 N97 2.021 . S
Co91 N102 2.016 . S
Co91 N107 2.273 1_545 S
Co91 N113 2.293 . S
N92 Co91 1.974 1_565 S
N92 C93 1.376 . S
N92 C96 1.383 . S
C93 N92 1.376 . S
C93 C94 1.446 . S
C93 C123 1.391 . S
C94 C93 1.446 . S
C94 C95 1.339 . S
C94 H129 0.949 . S
C95 C94 1.339 . S
C95 C96 1.439 . S
C95 H130 0.950 . S
C96 N92 1.383 . S
C96 C95 1.439 . S
C96 C125 1.392 1_565 S
N97 Co91 2.021 . S
N97 C98 1.376 . S
N97 C101 1.374 . S
C98 N97 1.376 . S
C98 C99 1.443 . S
C98 C125 1.389 . S
C99 C98 1.443 . S
C99 C100 1.340 . S
C99 H131 0.951 . S
C100 C99 1.340 . S
C100 C101 1.439 . S
C100 H132 0.950 . S
C101 N97 1.374 . S
C101 C100 1.439 . S
C101 C126 1.395 . S
N102 Co91 2.016 . S
N102 C103 1.376 . S
N102 C106 1.383 . S
C103 N102 1.376 . S
C103 C104 1.446 . S
C103 C126 1.391 . S
C104 C103 1.446 . S
C104 C105 1.339 . S
C104 H133 0.949 . S
C105 C104 1.339 . S
C105 C106 1.439 . S
C105 H134 0.950 . S
C106 N102 1.383 . S
C106 C105 1.439 . S
C106 C124 1.398 . S
N107 Co91 2.273 1_565 S
N107 C110 1.332 1_565 S
N107 C112 1.332 . S
C108 C109 1.397 . S
C108 C111 1.381 1_545 S
C109 C108 1.397 . S
C109 C110 1.382 . S
C109 H135 0.950 . S
C110 N107 1.332 1_545 S
C110 C109 1.382 . S
C110 H121 0.952 . S
C111 C108 1.381 1_565 S
C111 C112 1.382 . S
C111 H136 0.950 . S
C112 N107 1.332 . S
C112 C111 1.382 . S
C112 H122 0.948 . S
N113 Co91 2.293 . S
N113 C117 1.332 1_545 S
N113 C118 1.332 . S
C114 C115 1.388 . S
C114 C118 1.382 . S
C114 H137 0.950 . S
C115 C114 1.388 . S
C115 C116 1.386 1_545 S
C116 C115 1.386 1_565 S
C116 C117 1.382 . S
C116 H138 0.950 . S
C117 N113 1.332 1_565 S
C117 C116 1.382 . S
C117 H119 0.952 . S
C118 N113 1.332 . S
C118 C114 1.382 . S
C118 H120 0.948 . S
H119 C117 0.952 . S
H120 C118 0.948 . S
H121 C110 0.952 . S
H122 C112 0.948 . S
C123 C89 1.395 . S
C123 C93 1.391 . S
C124 C86 1.381 1_545 S
C124 C106 1.398 . S
C125 C96 1.392 1_545 S
C125 C98 1.389 . S
C126 C101 1.395 . S
C126 C103 1.391 . S
H127 C87 0.951 . S
H128 C88 0.950 . S
H129 C94 0.949 . S
H130 C95 0.950 . S
H131 C99 0.951 . S
H132 C100 0.950 . S
H133 C104 0.949 . S
H134 C105 0.950 . S
H135 C109 0.950 . S
H136 C111 0.950 . S
H137 C114 0.950 . S
H138 C116 0.950 . S
H139 C157 0.951 . S
H140 C159 0.951 . S
H141 C161 0.950 . S
H142 C162 0.950 . S
H143 C164 0.950 . S
H144 C167 0.950 1_455 S
H145 C168 0.950 . S
H146 C170 0.950 . S
H147 C171 0.950 . S
H148 C172 0.951 . S
H149 C174 0.951 . S
H150 C176 0.950 . S
H151 C177 0.950 . S
H152 C179 0.950 . S
H153 C182 0.950 1_655 S
H154 C183 0.950 . S
H155 C185 0.950 . S
H156 C186 0.950 . S
C157 H139 0.951 . S
C157 C158 1.366 1_655 S
C157 C159 1.388 . S
C158 C157 1.366 1_455 S
C158 C162 1.385 . S
C159 H140 0.951 . S
C159 C157 1.388 . S
C159 C160 1.366 1_655 S
C160 C159 1.366 1_455 S
C160 C161 1.414 . S
C160 C163 1.499 . S
C161 H141 0.950 . S
C161 C160 1.414 . S
C161 C162 1.374 . S
C162 H142 0.950 . S
C162 C158 1.385 . S
C162 C161 1.374 . S
C163 C160 1.499 . S
C163 C164 1.373 . S
C163 C165 1.389 1_455 S
C164 H143 0.950 . S
C164 C163 1.373 . S
C164 C180 1.377 . S
C165 C163 1.389 1_655 S
C165 C166 1.524 . S
C165 C179 1.377 . S
C166 C165 1.524 . S
C166 C167 1.397 . S
C166 C171 1.363 . S
C167 H144 0.950 1_655 S
C167 C166 1.397 . S
C167 C168 1.334 . S
C168 H145 0.950 . S
C168 C167 1.334 . S
C168 C169 1.287 . S
C169 C168 1.287 . S
C169 C170 1.524 . S
C169 H188 0.913 . S
C170 H146 0.950 . S
C170 C169 1.524 . S
C170 C171 1.415 . S
C171 H147 0.950 . S
C171 C166 1.363 . S
C171 C170 1.415 . S
C172 H148 0.951 . S
C172 C173 1.366 . S
C172 C174 1.388 . S
C173 C172 1.366 . S
C173 C177 1.385 1_455 S
C174 H149 0.951 . S
C174 C172 1.388 . S
C174 C175 1.366 . S
C175 C174 1.366 . S
C175 C176 1.414 1_455 S
C175 C178 1.499 . S
C176 H150 0.950 . S
C176 C175 1.414 1_655 S
C176 C177 1.374 . S
C177 H151 0.950 . S
C177 C173 1.385 1_655 S
C177 C176 1.374 . S
C178 C175 1.499 . S
C178 C179 1.374 1_455 S
C178 C180 1.388 . S
C179 H152 0.950 . S
C179 C165 1.377 . S
C179 C178 1.374 1_655 S
C180 C164 1.377 . S
C180 C178 1.388 . S
C180 C181 1.524 . S
C181 C180 1.524 . S
C181 C182 1.397 . S
C181 C186 1.363 . S
C182 H153 0.950 1_455 S
C182 C181 1.397 . S
C182 C183 1.334 . S
C183 H154 0.950 . S
C183 C182 1.334 . S
C183 C184 1.287 . S
C184 C183 1.287 . S
C184 C185 1.524 . S
C184 H187 0.999 . S
C185 H155 0.950 . S
C185 C184 1.524 . S
C185 C186 1.415 . S
C186 H156 0.950 . S
C186 C181 1.363 . S
C186 C185 1.415 . S
H187 C184 0.999 . S
H188 C169 0.913 . S
H189 C207 0.951 . S
H190 C209 0.951 . S
H191 C211 0.950 . S
H192 C212 0.950 . S
H193 C214 0.950 . S
H194 C217 0.950 1_565 S
H195 C218 0.950 . S
H196 C220 0.950 . S
H197 C221 0.950 . S
H198 C222 0.951 . S
H199 C224 0.951 . S
H200 C226 0.950 . S
H201 C227 0.950 . S
H202 C229 0.950 . S
H203 C232 0.950 1_545 S
H204 C233 0.950 . S
H205 C235 0.950 . S
H206 C236 0.950 . S
C207 H189 0.951 . S
C207 C208 1.366 1_545 S
C207 C209 1.388 . S
C208 C207 1.366 1_565 S
C208 C212 1.385 . S
C209 H190 0.951 . S
C209 C207 1.388 . S
C209 C210 1.366 1_545 S
C210 C209 1.366 1_565 S
C210 C211 1.414 . S
C210 C213 1.499 . S
C211 H191 0.950 . S
C211 C210 1.414 . S
C211 C212 1.374 . S
C212 H192 0.950 . S
C212 C208 1.385 . S
C212 C211 1.374 . S
C213 C210 1.499 . S
C213 C214 1.373 . S
C213 C215 1.389 1_565 S
C214 H193 0.950 . S
C214 C213 1.373 . S
C214 C230 1.377 . S
C215 C213 1.389 1_545 S
C215 C216 1.524 . S
C215 C229 1.377 . S
C216 C215 1.524 . S
C216 C217 1.397 . S
C216 C221 1.363 . S
C217 H194 0.950 1_545 S
C217 C216 1.397 . S
C217 C218 1.334 . S
C218 H195 0.950 . S
C218 C217 1.334 . S
C218 C219 1.287 . S
C219 C218 1.287 . S
C219 C220 1.524 . S
C219 H238 0.913 . S
C220 H196 0.950 . S
C220 C219 1.524 . S
C220 C221 1.415 . S
C221 H197 0.950 . S
C221 C216 1.363 . S
C221 C220 1.415 . S
C222 H198 0.951 . S
C222 C223 1.359 1_565 S
C222 C224 1.388 . S
C223 C222 1.359 1_545 S
C223 C227 1.390 . S
C224 H199 0.951 . S
C224 C222 1.388 . S
C224 C225 1.366 . S
C225 C224 1.366 . S
C225 C226 1.414 1_565 S
C225 C228 1.499 . S
C226 H200 0.950 . S
C226 C225 1.414 1_545 S
C226 C227 1.374 . S
C227 H201 0.950 . S
C227 C223 1.390 . S
C227 C226 1.374 . S
C228 C225 1.499 . S
C228 C229 1.373 1_565 S
C228 C230 1.389 . S
C229 H202 0.950 . S
C229 C215 1.377 . S
C229 C228 1.373 1_545 S
C230 C214 1.377 . S
C230 C228 1.389 . S
C230 C231 1.524 . S
C231 C230 1.524 . S
C231 C232 1.397 . S
C231 C236 1.363 . S
C232 H203 0.950 1_565 S
C232 C231 1.397 . S
C232 C233 1.334 . S
C233 H204 0.950 . S
C233 C232 1.334 . S
C233 C234 1.287 . S
C234 C233 1.287 . S
C234 C235 1.524 . S
C234 H237 0.999 . S
C235 H205 0.950 . S
C235 C234 1.524 . S
C235 C236 1.415 . S
C236 H206 0.950 . S
C236 C231 1.363 . S
C236 C235 1.415 . S
H237 C234 0.999 . S
H238 C219 0.913 . S
H239 C257 0.951 . S
H240 C259 0.951 . S
H241 C261 0.950 . S
H242 C262 0.950 . S
H243 C264 0.950 . S
H244 C267 0.950 . S
H245 C268 0.950 . S
H246 C270 0.950 . S
H247 C271 0.950 . S
H248 C272 0.959 1_655 S
H249 C274 0.948 1_655 S
H250 C276 0.950 . S
H251 C277 0.950 . S
H252 C279 0.950 . S
H253 C282 0.950 . S
H254 C283 0.950 . S
H255 C285 0.950 . S
H256 C286 0.950 . S
C257 H239 0.951 . S
C257 C258 1.366 . S
C257 C259 1.388 . S
C258 C257 1.366 . S
C258 C262 1.385 . S
C259 H240 0.951 . S
C259 C257 1.388 . S
C259 C260 1.366 . S
C260 C259 1.366 . S
C260 C261 1.414 . S
C260 C263 1.499 . S
C261 H241 0.950 . S
C261 C260 1.414 . S
C261 C262 1.374 . S
C262 H242 0.950 . S
C262 C258 1.385 . S
C262 C261 1.374 . S
C263 C260 1.499 . S
C263 C264 1.373 1_455 S
C263 C265 1.389 . S
C264 H243 0.950 . S
C264 C263 1.373 1_655 S
C264 C280 1.377 . S
C265 C263 1.389 . S
C265 C266 1.524 . S
C265 C279 1.377 . S
C266 C265 1.524 . S
C266 C267 1.397 . S
C266 C271 1.363 . S
C267 H244 0.950 . S
C267 C266 1.397 . S
C267 C268 1.334 . S
C268 H245 0.950 . S
C268 C267 1.334 . S
C268 C269 1.287 . S
C269 C268 1.287 . S
C269 C270 1.524 . S
C269 H288 0.913 . S
C270 H246 0.950 . S
C270 C269 1.524 . S
C270 C271 1.415 . S
C271 H247 0.950 . S
C271 C266 1.363 . S
C271 C270 1.415 . S
C272 H248 0.959 1_455 S
C272 C273 1.367 . S
C272 C274 1.385 . S
C273 C272 1.367 . S
C273 C277 1.385 . S
C274 H249 0.948 1_455 S
C274 C272 1.385 . S
C274 C275 1.366 . S
C275 C274 1.366 . S
C275 C276 1.414 . S
C275 C278 1.499 . S
C276 H250 0.950 . S
C276 C275 1.414 . S
C276 C277 1.374 . S
C277 H251 0.950 . S
C277 C273 1.385 . S
C277 C276 1.374 . S
C278 C275 1.499 . S
C278 C279 1.373 . S
C278 C280 1.389 1_455 S
C279 H252 0.950 . S
C279 C265 1.377 . S
C279 C278 1.373 . S
C280 C264 1.377 . S
C280 C278 1.389 1_655 S
C280 C281 1.524 . S
C281 C280 1.524 . S
C281 C282 1.397 . S
C281 C286 1.363 . S
C282 H253 0.950 . S
C282 C281 1.397 . S
C282 C283 1.334 . S
C283 H254 0.950 . S
C283 C282 1.334 . S
C283 C284 1.287 . S
C284 C283 1.287 . S
C284 C285 1.524 . S
C284 H287 0.999 . S
C285 H255 0.950 . S
C285 C284 1.524 . S
C285 C286 1.415 . S
C286 H256 0.950 . S
C286 C281 1.363 . S
C286 C285 1.415 . S
H287 C284 0.999 . S
H288 C269 0.913 . S
H289 C307 0.951 1_545 S
H290 C309 0.951 1_545 S
H291 C311 0.950 . S
H292 C312 0.950 . S
H293 C314 0.950 . S
H294 C317 0.950 . S
H295 C318 0.950 . S
H296 C320 0.950 . S
H297 C321 0.950 . S
H298 C322 0.951 . S
H299 C324 0.951 . S
H300 C326 0.950 . S
H301 C327 0.950 . S
H302 C329 0.950 . S
H303 C332 0.950 . S
H304 C333 0.950 . S
H305 C335 0.950 . S
H306 C336 0.950 . S
C307 H289 0.951 1_565 S
C307 C308 1.366 . S
C307 C309 1.388 . S
C308 C307 1.366 . S
C308 C312 1.385 . S
C309 H290 0.951 1_565 S
C309 C307 1.388 . S
C309 C310 1.366 . S
C310 C309 1.366 . S
C310 C311 1.414 . S
C310 C313 1.499 . S
C311 H291 0.950 . S
C311 C310 1.414 . S
C311 C312 1.374 . S
C312 H292 0.950 . S
C312 C308 1.385 . S
C312 C311 1.374 . S
C313 C310 1.499 . S
C313 C314 1.373 . S
C313 C315 1.389 1_565 S
C314 H293 0.950 . S
C314 C313 1.373 . S
C314 C330 1.377 . S
C315 C313 1.389 1_545 S
C315 C316 1.524 . S
C315 C329 1.377 . S
C316 C315 1.524 . S
C316 C317 1.397 . S
C316 C321 1.363 . S
C317 H294 0.950 . S
C317 C316 1.397 . S
C317 C318 1.334 . S
C318 H295 0.950 . S
C318 C317 1.334 . S
C318 C319 1.287 . S
C319 C318 1.287 . S
C319 C320 1.524 . S
C319 H338 0.913 . S
C320 H296 0.950 . S
C320 C319 1.524 . S
C320 C321 1.415 . S
C321 H297 0.950 . S
C321 C316 1.363 . S
C321 C320 1.415 . S
C322 H298 0.951 . S
C322 C323 1.369 . S
C322 C324 1.388 . S
C323 C322 1.369 . S
C323 C327 1.378 1_565 S
C324 H299 0.951 . S
C324 C322 1.388 . S
C324 C325 1.366 . S
C325 C324 1.366 . S
C325 C326 1.414 1_565 S
C325 C328 1.499 . S
C326 H300 0.950 . S
C326 C325 1.414 1_545 S
C326 C327 1.374 . S
C327 H301 0.950 . S
C327 C323 1.378 1_545 S
C327 C326 1.374 . S
C328 C325 1.499 . S
C328 C329 1.373 1_565 S
C328 C330 1.389 . S
C329 H302 0.950 . S
C329 C315 1.377 . S
C329 C328 1.373 1_545 S
C330 C314 1.377 . S
C330 C328 1.389 . S
C330 C331 1.524 . S
C331 C330 1.524 . S
C331 C332 1.397 . S
C331 C336 1.363 . S
C332 H303 0.950 . S
C332 C331 1.397 . S
C332 C333 1.334 . S
C333 H304 0.950 . S
C333 C332 1.334 . S
C333 C334 1.287 . S
C334 C333 1.287 . S
C334 C335 1.524 . S
C334 H337 0.999 . S
C335 H305 0.950 . S
C335 C334 1.524 . S
C335 C336 1.415 . S
C336 H306 0.950 . S
C336 C331 1.363 . S
C336 C335 1.415 . S
H337 C334 0.999 . S
H338 C319 0.913 . S
H339 C357 0.951 . S
H340 C359 0.951 . S
H341 C361 0.950 . S
H342 C362 0.950 . S
H343 C364 0.950 . S
H344 C367 0.950 . S
H345 C368 0.950 . S
H346 C370 0.950 . S
H347 C371 0.950 1_655 S
H348 C372 0.951 . S
H349 C374 0.951 . S
H350 C376 0.950 . S
H351 C377 0.950 . S
H352 C379 0.950 . S
H353 C382 0.950 . S
H354 C383 0.950 . S
H355 C385 0.950 . S
H356 C386 0.950 1_455 S
C357 H339 0.951 . S
C357 C358 1.365 1_655 S
C357 C359 1.388 . S
C358 C357 1.365 1_455 S
C358 C362 1.387 . S
C359 H340 0.951 . S
C359 C357 1.388 . S
C359 C360 1.366 1_655 S
C360 C359 1.366 1_455 S
C360 C361 1.414 . S
C360 C363 1.499 . S
C361 H341 0.950 . S
C361 C360 1.414 . S
C361 C362 1.374 . S
C362 H342 0.950 . S
C362 C358 1.387 . S
C362 C361 1.374 . S
C363 C360 1.499 . S
C363 C364 1.373 1_455 S
C363 C365 1.389 . S
C364 H343 0.950 . S
C364 C363 1.373 1_655 S
C364 C380 1.377 . S
C365 C363 1.389 . S
C365 C366 1.524 . S
C365 C379 1.377 . S
C366 C365 1.524 . S
C366 C367 1.397 . S
C366 C371 1.363 . S
C367 H344 0.950 . S
C367 C366 1.397 . S
C367 C368 1.334 . S
C368 H345 0.950 . S
C368 C367 1.334 . S
C368 C369 1.287 . S
C369 C368 1.287 . S
C369 C370 1.524 . S
C369 H388 0.913 . S
C370 H346 0.950 . S
C370 C369 1.524 . S
C370 C371 1.415 . S
C371 H347 0.950 1_455 S
C371 C366 1.363 . S
C371 C370 1.415 . S
C372 H348 0.951 . S
C372 C373 1.366 . S
C372 C374 1.388 . S
C373 C372 1.366 . S
C373 C377 1.385 1_455 S
C374 H349 0.951 . S
C374 C372 1.388 . S
C374 C375 1.356 1_455 S
C375 C374 1.356 1_655 S
C375 C376 1.417 . S
C375 C378 1.504 . S
C376 H350 0.950 . S
C376 C375 1.417 . S
C376 C377 1.374 . S
C377 H351 0.950 . S
C377 C373 1.385 1_655 S
C377 C376 1.374 . S
C378 C375 1.504 . S
C378 C379 1.373 1_655 S
C378 C380 1.389 . S
C379 H352 0.950 . S
C379 C365 1.377 . S
C379 C378 1.373 1_455 S
C380 C364 1.377 . S
C380 C378 1.389 . S
C380 C381 1.524 . S
C381 C380 1.524 . S
C381 C382 1.397 . S
C381 C386 1.363 . S
C382 H353 0.950 . S
C382 C381 1.397 . S
C382 C383 1.334 . S
C383 H354 0.950 . S
C383 C382 1.334 . S
C383 C384 1.287 . S
C384 C383 1.287 . S
C384 C385 1.524 . S
C384 H387 0.999 . S
C385 H355 0.950 . S
C385 C384 1.524 . S
C385 C386 1.415 . S
C386 H356 0.950 1_655 S
C386 C381 1.363 . S
C386 C385 1.415 . S
H387 C384 0.999 . S
H388 C369 0.913 . S
H389 C407 0.951 . S
H390 C409 0.951 . S
H391 C411 0.950 . S
H392 C412 0.950 . S
H393 C414 0.950 . S
H394 C417 0.950 . S
H395 C418 0.950 . S
H396 C420 0.950 . S
H397 C421 0.950 . S
H398 C422 0.951 . S
H399 C424 0.951 . S
H400 C426 0.950 . S
H401 C427 0.950 . S
H402 C429 0.950 . S
H403 C432 0.950 . S
H404 C433 0.950 . S
H405 C435 0.950 . S
H406 C436 0.950 . S
C407 H389 0.951 . S
C407 C408 1.366 1_565 S
C407 C409 1.388 . S
C408 C407 1.366 1_545 S
C408 C412 1.385 . S
C409 H390 0.951 . S
C409 C407 1.388 . S
C409 C410 1.366 1_565 S
C410 C409 1.366 1_545 S
C410 C411 1.414 . S
C410 C413 1.499 . S
C411 H391 0.950 . S
C411 C410 1.414 . S
C411 C412 1.374 . S
C412 H392 0.950 . S
C412 C408 1.385 . S
C412 C411 1.374 . S
C413 C410 1.499 . S
C413 C414 1.373 . S
C413 C415 1.389 1_545 S
C414 H393 0.950 . S
C414 C413 1.373 . S
C414 C430 1.377 . S
C415 C413 1.389 1_565 S
C415 C416 1.524 . S
C415 C429 1.377 . S
C416 C415 1.524 . S
C416 C417 1.397 . S
C416 C421 1.363 . S
C417 H394 0.950 . S
C417 C416 1.397 . S
C417 C418 1.334 . S
C418 H395 0.950 . S
C418 C417 1.334 . S
C418 C419 1.287 . S
C419 C418 1.287 . S
C419 C420 1.524 . S
C419 H438 0.913 . S
C420 H396 0.950 . S
C420 C419 1.524 . S
C420 C421 1.415 . S
C421 H397 0.950 . S
C421 C416 1.363 . S
C421 C420 1.415 . S
C422 H398 0.951 . S
C422 C423 1.366 . S
C422 C424 1.388 . S
C423 C422 1.366 . S
C423 C427 1.385 1_545 S
C424 H399 0.951 . S
C424 C422 1.388 . S
C424 C425 1.366 . S
C425 C424 1.366 . S
C425 C426 1.414 1_545 S
C425 C428 1.499 . S
C426 H400 0.950 . S
C426 C425 1.414 1_565 S
C426 C427 1.374 . S
C427 H401 0.950 . S
C427 C423 1.385 1_565 S
C427 C426 1.374 . S
C428 C425 1.499 . S
C428 C429 1.373 1_545 S
C428 C430 1.389 . S
C429 H402 0.950 . S
C429 C415 1.377 . S
C429 C428 1.373 1_565 S
C430 C414 1.377 . S
C430 C428 1.389 . S
C430 C431 1.524 . S
C431 C430 1.524 . S
C431 C432 1.397 . S
C431 C436 1.363 . S
C432 H403 0.950 . S
C432 C431 1.397 . S
C432 C433 1.334 . S
C433 H404 0.950 . S
C433 C432 1.334 . S
C433 C434 1.287 . S
C434 C433 1.287 . S
C434 C435 1.524 . S
C434 H437 0.999 . S
C435 H405 0.950 . S
C435 C434 1.524 . S
C435 C436 1.415 . S
C436 H406 0.950 . S
C436 C431 1.363 . S
C436 C435 1.415 . S
H437 C434 0.999 . S
H438 C419 0.913 . S
H439 C457 0.951 . S
H440 C459 0.951 . S
H441 C461 0.950 . S
H442 C462 0.950 . S
H443 C464 0.950 . S
H444 C467 0.950 . S
H445 C468 0.950 . S
H446 C470 0.950 . S
H447 C471 0.950 . S
H448 C472 0.951 . S
H449 C474 0.951 . S
H450 C476 0.950 . S
H451 C477 0.950 . S
H452 C479 0.950 . S
H453 C482 0.950 . S
H454 C483 0.950 . S
H455 C485 0.950 . S
H456 C486 0.950 . S
C457 H439 0.951 . S
C457 C458 1.366 1_455 S
C457 C459 1.388 . S
C458 C457 1.366 1_655 S
C458 C462 1.385 . S
C459 H440 0.951 . S
C459 C457 1.388 . S
C459 C460 1.366 1_455 S
C460 C459 1.366 1_655 S
C460 C461 1.414 . S
C460 C463 1.499 . S
C461 H441 0.950 . S
C461 C460 1.414 . S
C461 C462 1.374 . S
C462 H442 0.950 . S
C462 C458 1.385 . S
C462 C461 1.374 . S
C463 C460 1.499 . S
C463 C464 1.373 . S
C463 C465 1.389 1_655 S
C464 H443 0.950 . S
C464 C463 1.373 . S
C464 C480 1.377 . S
C465 C463 1.389 1_455 S
C465 C466 1.524 . S
C465 C479 1.377 . S
C466 C465 1.524 . S
C466 C467 1.397 1_455 S
C466 C471 1.363 . S
C467 H444 0.950 . S
C467 C466 1.397 1_655 S
C467 C468 1.334 . S
C468 H445 0.950 . S
C468 C467 1.334 . S
C468 C469 1.287 1_655 S
C469 C468 1.287 1_455 S
C469 C470 1.524 . S
C469 H488 0.913 . S
C470 H446 0.950 . S
C470 C469 1.524 . S
C470 C471 1.415 . S
C471 H447 0.950 . S
C471 C466 1.363 . S
C471 C470 1.415 . S
C472 H448 0.951 . S
C472 C473 1.360 1_655 S
C472 C474 1.388 . S
C473 C472 1.360 1_455 S
C473 C477 1.395 . S
C474 H449 0.951 . S
C474 C472 1.388 . S
C474 C475 1.366 1_655 S
C475 C474 1.366 1_455 S
C475 C476 1.414 . S
C475 C478 1.494 . S
C476 H450 0.950 . S
C476 C475 1.414 . S
C476 C477 1.374 . S
C477 H451 0.950 . S
C477 C473 1.395 . S
C477 C476 1.374 . S
C478 C475 1.494 . S
C478 C479 1.376 . S
C478 C480 1.391 1_455 S
C479 H452 0.950 . S
C479 C465 1.377 . S
C479 C478 1.376 . S
C480 C464 1.377 . S
C480 C478 1.391 1_655 S
C480 C481 1.524 . S
C481 C480 1.524 . S
C481 C482 1.397 1_655 S
C481 C486 1.363 . S
C482 H453 0.950 . S
C482 C481 1.397 1_455 S
C482 C483 1.334 . S
C483 H454 0.950 . S
C483 C482 1.334 . S
C483 C484 1.287 1_455 S
C484 C483 1.287 1_655 S
C484 C485 1.524 . S
C484 H487 0.999 . S
C485 H455 0.950 . S
C485 C484 1.524 . S
C485 C486 1.415 . S
C486 H456 0.950 . S
C486 C481 1.363 . S
C486 C485 1.415 . S
H487 C484 0.999 . S
H488 C469 0.913 . S
H489 C507 0.936 1_565 S
H490 C509 0.961 . S
H491 C511 0.950 . S
H492 C512 0.950 . S
H493 C514 0.950 1_565 S
H494 C517 0.950 . S
H495 C518 0.950 . S
H496 C520 0.950 . S
H497 C521 0.950 . S
H498 C522 0.951 . S
H499 C524 0.951 . S
H500 C526 0.950 . S
H501 C527 0.950 . S
H502 C529 0.950 . S
H503 C532 0.950 . S
H504 C533 0.950 . S
H505 C535 0.950 . S
H506 C536 0.950 1_545 S
C507 H489 0.936 1_545 S
C507 C508 1.374 . S
C507 C509 1.402 1_545 S
C508 C507 1.374 . S
C508 C512 1.385 . S
C509 H490 0.961 . S
C509 C507 1.402 1_565 S
C509 C510 1.348 1_565 S
C510 C509 1.348 1_545 S
C510 C511 1.414 . S
C510 C513 1.499 . S
C511 H491 0.950 . S
C511 C510 1.414 . S
C511 C512 1.374 . S
C512 H492 0.950 . S
C512 C508 1.385 . S
C512 C511 1.374 . S
C513 C510 1.499 . S
C513 C514 1.373 . S
C513 C515 1.389 . S
C514 H493 0.950 1_545 S
C514 C513 1.373 . S
C514 C530 1.377 1_545 S
C515 C513 1.389 . S
C515 C516 1.524 . S
C515 C529 1.377 . S
C516 C515 1.524 . S
C516 C517 1.397 . S
C516 C521 1.363 . S
C517 H494 0.950 . S
C517 C516 1.397 . S
C517 C518 1.334 . S
C518 H495 0.950 . S
C518 C517 1.334 . S
C518 C519 1.287 . S
C519 C518 1.287 . S
C519 C520 1.524 . S
C519 H538 0.913 . S
C520 H496 0.950 . S
C520 C519 1.524 . S
C520 C521 1.415 . S
C521 H497 0.950 . S
C521 C516 1.363 . S
C521 C520 1.415 . S
C522 H498 0.951 . S
C522 C523 1.366 . S
C522 C524 1.388 . S
C523 C522 1.366 . S
C523 C527 1.385 1_545 S
C524 H499 0.951 . S
C524 C522 1.388 . S
C524 C525 1.366 . S
C525 C524 1.366 . S
C525 C526 1.414 1_545 S
C525 C528 1.499 . S
C526 H500 0.950 . S
C526 C525 1.414 1_565 S
C526 C527 1.374 . S
C527 H501 0.950 . S
C527 C523 1.385 1_565 S
C527 C526 1.374 . S
C528 C525 1.499 . S
C528 C529 1.373 . S
C528 C530 1.389 1_545 S
C529 H502 0.950 . S
C529 C515 1.377 . S
C529 C528 1.373 . S
C530 C514 1.377 1_565 S
C530 C528 1.389 1_565 S
C530 C531 1.524 . S
C531 C530 1.524 . S
C531 C532 1.397 . S
C531 C536 1.363 . S
C532 H503 0.950 . S
C532 C531 1.397 . S
C532 C533 1.334 . S
C533 H504 0.950 . S
C533 C532 1.334 . S
C533 C534 1.287 . S
C534 C533 1.287 . S
C534 C535 1.524 . S
C534 H537 0.999 . S
C535 H505 0.950 . S
C535 C534 1.524 . S
C535 C536 1.415 . S
C536 H506 0.950 1_565 S
C536 C531 1.363 . S
C536 C535 1.415 . S
H537 C534 0.999 . S
H538 C519 0.913 . S
C158 C23 1.261 . S
C173 C55 1.342 . S
C208 C22 1.532 . S
C223 C125 1.574 . S
C258 C21 1.994 . S
C273 C71 2.003 . S
C308 C24 1.468 . S
C323 C115 1.541 1_565 S
C358 C27 1.257 1_455 S
C373 C62 1.337 . S
C408 C26 1.531 . S
C423 C124 1.573 . S
C473 C72 2.006 . S
C458 C25 1.994 . S
C508 C28 1.467 . S
C523 C108 1.534 . S
