# Generated by pormake.
# Topology pto, (3,4)-cn, num edge types: 1
# Building blocks:
#     Node 0, Type 0, BuildingBlock: WUSLED_clean_sbu_0, # of connection points: 3
#     Node 1, Type 0, BuildingBlock: WUSLED_clean_sbu_0, # of connection points: 3
#     Node 2, Type 0, BuildingBlock: WUSLED_clean_sbu_0, # of connection points: 3
#     Node 3, Type 0, BuildingBlock: WUSLED_clean_sbu_0, # of connection points: 3
#     Node 4, Type 0, BuildingBlock: WUSLED_clean_sbu_0, # of connection points: 3
#     Node 5, Type 0, BuildingBlock: WUSLED_clean_sbu_0, # of connection points: 3
#     Node 6, Type 0, BuildingBlock: WUSLED_clean_sbu_0, # of connection points: 3
#     Node 7, Type 0, BuildingBlock: WUSLED_clean_sbu_0, # of connection points: 3
#     Node 8, Type 1, BuildingBlock: NAWXER_clean_sbu_0, # of connection points: 4
#     Node 9, Type 1, BuildingBlock: NAWXER_clean_sbu_0, # of connection points: 4
#     Node 10, Type 1, BuildingBlock: NAWXER_clean_sbu_0, # of connection points: 4
#     Node 11, Type 1, BuildingBlock: NAWXER_clean_sbu_0, # of connection points: 4
#     Node 12, Type 1, BuildingBlock: NAWXER_clean_sbu_0, # of connection points: 4
#     Node 13, Type 1, BuildingBlock: NAWXER_clean_sbu_0, # of connection points: 4
#     Edge 14, Type (0, 1), BuildingBlock: KIFKEQ_clean_linker_1, # of connection points: 2
#     Edge 15, Type (0, 1), BuildingBlock: KIFKEQ_clean_linker_1, # of connection points: 2
#     Edge 16, Type (0, 1), BuildingBlock: KIFKEQ_clean_linker_1, # of connection points: 2
#     Edge 17, Type (0, 1), BuildingBlock: KIFKEQ_clean_linker_1, # of connection points: 2
#     Edge 18, Type (0, 1), BuildingBlock: KIFKEQ_clean_linker_1, # of connection points: 2
#     Edge 19, Type (0, 1), BuildingBlock: KIFKEQ_clean_linker_1, # of connection points: 2
#     Edge 20, Type (0, 1), BuildingBlock: KIFKEQ_clean_linker_1, # of connection points: 2
#     Edge 21, Type (0, 1), BuildingBlock: KIFKEQ_clean_linker_1, # of connection points: 2
#     Edge 22, Type (0, 1), BuildingBlock: KIFKEQ_clean_linker_1, # of connection points: 2
#     Edge 23, Type (0, 1), BuildingBlock: KIFKEQ_clean_linker_1, # of connection points: 2
#     Edge 24, Type (0, 1), BuildingBlock: KIFKEQ_clean_linker_1, # of connection points: 2
#     Edge 25, Type (0, 1), BuildingBlock: KIFKEQ_clean_linker_1, # of connection points: 2
#     Edge 26, Type (0, 1), BuildingBlock: KIFKEQ_clean_linker_1, # of connection points: 2
#     Edge 27, Type (0, 1), BuildingBlock: KIFKEQ_clean_linker_1, # of connection points: 2
#     Edge 28, Type (0, 1), BuildingBlock: KIFKEQ_clean_linker_1, # of connection points: 2
#     Edge 29, Type (0, 1), BuildingBlock: KIFKEQ_clean_linker_1, # of connection points: 2
#     Edge 30, Type (0, 1), BuildingBlock: KIFKEQ_clean_linker_1, # of connection points: 2
#     Edge 31, Type (0, 1), BuildingBlock: KIFKEQ_clean_linker_1, # of connection points: 2
#     Edge 32, Type (0, 1), BuildingBlock: KIFKEQ_clean_linker_1, # of connection points: 2
#     Edge 33, Type (0, 1), BuildingBlock: KIFKEQ_clean_linker_1, # of connection points: 2
#     Edge 34, Type (0, 1), BuildingBlock: KIFKEQ_clean_linker_1, # of connection points: 2
#     Edge 35, Type (0, 1), BuildingBlock: KIFKEQ_clean_linker_1, # of connection points: 2
#     Edge 36, Type (0, 1), BuildingBlock: KIFKEQ_clean_linker_1, # of connection points: 2
#     Edge 37, Type (0, 1), BuildingBlock: KIFKEQ_clean_linker_1, # of connection points: 2
# Relax obj value: 0.000
# Max RMSD: 0.007
# Mean RMSD: 0.004
data_MOF--net-pto--node1-WUSLED_clean_sbu_0--node2-NAWXER_clean_sbu_0--edge1-KIFKEQ_clean_linker_1
_symmetry_space_group_name_H-M    P1
_symmetry_Int_Tables_number       1
_symmetry_cell_setting            triclinic
loop_
_symmetry_equiv_pos_as_xyz
'x, y, z'
_cell_length_a     56.461806
_cell_length_b     53.288194
_cell_length_c     49.726075
_cell_angle_alpha  89.205527
_cell_angle_beta   90.517523
_cell_angle_gamma 90.661684
loop_
_atom_site_label
_atom_site_type_symbol
_atom_site_fract_x
_atom_site_fract_y
_atom_site_fract_z
_atom_type_partial_charge
C0 C 0.28479 0.25782 0.35414 0.0
C1 C 0.30001 0.23964 0.34396 0.0
C2 C 0.29383 0.21338 0.38392 0.0
C3 C 0.3045 0.21758 0.35874 0.0
C4 C 0.27932 0.23216 0.39435 0.0
C5 C 0.27483 0.2541 0.37957 0.0
U6 U 0.29542 0.30605 0.29734 0.0
O7 O 0.27016 0.32234 0.26832 0.0
O8 O 0.28913 0.34682 0.29663 0.0
C9 C 0.27236 0.34501 0.27823 0.0
C10 C 0.27827 0.28024 0.33824 0.0
C11 C 0.25013 0.35813 0.28396 0.0
C12 C 0.20825 0.35783 0.29517 0.0
C13 C 0.22942 0.34497 0.29132 0.0
C14 C 0.2284 0.39721 0.28528 0.0
C15 C 0.20747 0.3841 0.292 0.0
C16 C 0.24949 0.38433 0.28124 0.0
C17 C 0.35021 0.30147 0.25277 0.0
C18 C 0.35448 0.31872 0.2075 0.0
C19 C 0.3891 0.30485 0.23243 0.0
C20 C 0.37478 0.29817 0.25423 0.0
C21 C 0.37908 0.31486 0.20866 0.0
C22 C 0.34017 0.31219 0.22942 0.0
C23 C 0.3354 0.29281 0.2754 0.0
O24 O 0.29213 0.30003 0.3411 0.0
O25 O 0.272 0.27624 0.31313 0.0
O26 O 0.31474 0.28288 0.2689 0.0
O27 O 0.33442 0.30796 0.29598 0.0
H28 H 0.30796 0.24224 0.32435 0.0
H29 H 0.31562 0.20346 0.35005 0.0
H30 H 0.27118 0.22977 0.41387 0.0
H31 H 0.26318 0.26801 0.38783 0.0
H32 H 0.19248 0.34723 0.30061 0.0
H33 H 0.22951 0.32474 0.29377 0.0
H34 H 0.22835 0.41739 0.28236 0.0
H35 H 0.26525 0.39483 0.27555 0.0
H36 H 0.34628 0.32662 0.18958 0.0
H37 H 0.40794 0.30136 0.23387 0.0
H38 H 0.38284 0.28994 0.27208 0.0
H39 H 0.32124 0.31513 0.22795 0.0
C40 C 0.26823 0.79562 0.72298 0.0
C41 C 0.29167 0.80341 0.71803 0.0
C42 C 0.27754 0.83749 0.68906 0.0
C43 C 0.29629 0.82411 0.70109 0.0
C44 C 0.25413 0.82947 0.69407 0.0
C45 C 0.24955 0.80874 0.71085 0.0
U46 U 0.28657 0.75029 0.77907 0.0
O47 O 0.26715 0.73682 0.81465 0.0
O48 O 0.27931 0.70985 0.78492 0.0
C49 C 0.26682 0.71339 0.8067 0.0
C50 C 0.26293 0.77434 0.74124 0.0
C51 C 0.24382 0.69998 0.808 0.0
C52 C 0.20071 0.69945 0.80833 0.0
C53 C 0.2222 0.7127 0.80613 0.0
C54 C 0.22217 0.66062 0.8139 0.0
C55 C 0.20041 0.67321 0.81229 0.0
C56 C 0.24359 0.67388 0.81185 0.0
C57 C 0.34919 0.75694 0.80881 0.0
C58 C 0.3666 0.72789 0.84138 0.0
C59 C 0.38522 0.76837 0.83276 0.0
C60 C 0.36758 0.77409 0.81392 0.0
C61 C 0.38484 0.74533 0.84691 0.0
C62 C 0.34879 0.73372 0.82255 0.0
C63 C 0.33039 0.7641 0.78968 0.0
O64 O 0.27467 0.75362 0.73693 0.0
O65 O 0.26176 0.77997 0.76683 0.0
O66 O 0.31191 0.77477 0.80034 0.0
O67 O 0.32474 0.74749 0.77132 0.0
H68 H 0.30635 0.79361 0.72741 0.0
H69 H 0.31449 0.82992 0.69782 0.0
H70 H 0.23929 0.8391 0.68482 0.0
H71 H 0.23136 0.80302 0.71445 0.0
H72 H 0.18435 0.70983 0.80724 0.0
H73 H 0.22188 0.73287 0.80314 0.0
H74 H 0.22269 0.64041 0.81637 0.0
H75 H 0.26007 0.66369 0.81329 0.0
H76 H 0.36578 0.71006 0.85208 0.0
H77 H 0.39922 0.78204 0.83627 0.0
H78 H 0.36817 0.79207 0.80347 0.0
H79 H 0.33461 0.72028 0.81893 0.0
C80 C 0.71682 0.75741 0.25616 0.0
C81 C 0.72084 0.73543 0.24173 0.0
C82 C 0.68403 0.74157 0.21655 0.0
C83 C 0.70457 0.72758 0.22201 0.0
C84 C 0.68026 0.76361 0.23114 0.0
C85 C 0.69648 0.7714 0.25075 0.0
U86 U 0.77399 0.75111 0.29763 0.0
O87 O 0.79972 0.7801 0.30995 0.0
O88 O 0.78014 0.75855 0.34064 0.0
C89 C 0.79428 0.77777 0.33554 0.0
C90 C 0.73358 0.76617 0.27686 0.0
C91 C 0.78859 0.80118 0.34949 0.0
C92 C 0.77352 0.84381 0.34928 0.0
C93 C 0.77832 0.82161 0.33573 0.0
C94 C 0.7885 0.82523 0.39069 0.0
C95 C 0.77862 0.8459 0.37691 0.0
C96 C 0.79349 0.80314 0.37708 0.0
C97 C 0.81457 0.69478 0.28509 0.0
C98 C 0.85627 0.69107 0.2971 0.0
C99 C 0.83431 0.65478 0.28123 0.0
C100 C 0.81392 0.66925 0.27879 0.0
C101 C 0.85586 0.66559 0.28994 0.0
C102 C 0.83578 0.70556 0.29469 0.0
C103 C 0.7932 0.70981 0.28024 0.0
O104 O 0.73507 0.75199 0.29863 0.0
O105 O 0.75429 0.774 0.26806 0.0
O106 O 0.79656 0.73195 0.26882 0.0
O107 O 0.77774 0.71 0.29983 0.0
H108 H 0.73651 0.72439 0.24572 0.0
H109 H 0.70795 0.71047 0.21126 0.0
H110 H 0.66492 0.77513 0.2271 0.0
H111 H 0.69318 0.78848 0.26162 0.0
H112 H 0.76569 0.8593 0.33818 0.0
H113 H 0.7741 0.82047 0.31448 0.0
H114 H 0.79287 0.82634 0.4119 0.0
H115 H 0.80136 0.7876 0.38808 0.0
H116 H 0.87259 0.70001 0.30372 0.0
H117 H 0.83323 0.63512 0.27605 0.0
H118 H 0.79769 0.66057 0.2715 0.0
H119 H 0.83661 0.72527 0.29974 0.0
C120 C 0.75109 0.23698 0.73923 0.0
C121 C 0.77322 0.23081 0.72875 0.0
C122 C 0.7545 0.19955 0.69983 0.0
C123 C 0.77493 0.21221 0.70926 0.0
C124 C 0.73237 0.20596 0.71037 0.0
C125 C 0.73071 0.22449 0.7299 0.0
U126 U 0.77575 0.2922 0.77995 0.0
O127 O 0.75804 0.32701 0.79144 0.0
O128 O 0.77135 0.30112 0.82261 0.0
C129 C 0.75904 0.3214 0.81723 0.0
C130 C 0.74884 0.25643 0.75975 0.0
C131 C 0.73662 0.32347 0.83179 0.0
C132 C 0.69935 0.30547 0.84722 0.0
C133 C 0.72029 0.30344 0.83264 0.0
C134 C 0.71061 0.34777 0.85975 0.0
C135 C 0.69429 0.32763 0.86109 0.0
C136 C 0.73158 0.34567 0.84525 0.0
C137 C 0.83832 0.31754 0.7693 0.0
C138 C 0.85657 0.3484 0.79883 0.0
C139 C 0.87402 0.33987 0.75562 0.0
C140 C 0.85618 0.32213 0.75047 0.0
C141 C 0.87434 0.35335 0.77977 0.0
C142 C 0.83861 0.33073 0.79357 0.0
C143 C 0.81916 0.29956 0.76293 0.0
O144 O 0.76192 0.25344 0.78155 0.0
O145 O 0.74885 0.27968 0.75059 0.0
O146 O 0.80052 0.3093 0.7509 0.0
O147 O 0.81367 0.28337 0.78214 0.0
H148 H 0.78914 0.2404 0.7356 0.0
H149 H 0.7922 0.20796 0.70133 0.0
H150 H 0.71635 0.19641 0.7038 0.0
H151 H 0.71347 0.22902 0.73779 0.0
H152 H 0.68738 0.28946 0.84809 0.0
H153 H 0.72388 0.28615 0.82229 0.0
H154 H 0.70714 0.36522 0.86982 0.0
H155 H 0.74395 0.36137 0.84465 0.0
H156 H 0.85622 0.35863 0.81749 0.0
H157 H 0.88761 0.34301 0.74067 0.0
H158 H 0.85623 0.31214 0.73164 0.0
H159 H 0.82483 0.32756 0.80829 0.0
C160 C 0.82395 0.70334 0.78309 0.0
C161 C 0.83703 0.70658 0.75939 0.0
C162 C 0.85902 0.66845 0.76952 0.0
C163 C 0.85438 0.68927 0.75263 0.0
C164 C 0.84573 0.66533 0.79321 0.0
C165 C 0.82836 0.68261 0.7999 0.0
U166 U 0.7962 0.76683 0.77211 0.0
O167 O 0.75908 0.77882 0.77192 0.0
O168 O 0.78437 0.79521 0.8007 0.0
C169 C 0.76216 0.79351 0.79273 0.0
C170 C 0.80621 0.72188 0.79072 0.0
C171 C 0.74451 0.79077 0.8142 0.0
C172 C 0.72128 0.76501 0.84515 0.0
C173 C 0.73872 0.76719 0.82536 0.0
C174 C 0.71558 0.80999 0.84311 0.0
C175 C 0.70942 0.78639 0.85418 0.0
C176 C 0.73294 0.81212 0.8233 0.0
C177 C 0.8214 0.80804 0.71503 0.0
C178 C 0.81766 0.85324 0.7095 0.0
C179 C 0.82612 0.82758 0.67097 0.0
C180 C 0.82593 0.80616 0.68747 0.0
C181 C 0.82193 0.85134 0.68178 0.0
C182 C 0.81726 0.83174 0.72598 0.0
C183 C 0.8209 0.78501 0.7317 0.0
O184 O 0.81494 0.74254 0.80122 0.0
O185 O 0.78947 0.72609 0.77272 0.0
O186 O 0.80209 0.77057 0.72853 0.0
O187 O 0.82747 0.78731 0.75699 0.0
H188 H 0.83389 0.72257 0.74619 0.0
H189 H 0.86409 0.69215 0.73414 0.0
H190 H 0.84909 0.64981 0.80695 0.0
H191 H 0.81855 0.67993 0.81836 0.0
H192 H 0.71718 0.7466 0.85348 0.0
H193 H 0.74757 0.75049 0.81867 0.0
H194 H 0.70664 0.82678 0.84935 0.0
H195 H 0.73716 0.83047 0.81485 0.0
H196 H 0.81409 0.87127 0.7183 0.0
H197 H 0.82966 0.82557 0.64974 0.0
H198 H 0.8292 0.78805 0.67867 0.0
H199 H 0.81355 0.83362 0.74719 0.0
C200 C 0.7324 0.25736 0.21809 0.0
C201 C 0.7261 0.28075 0.20703 0.0
C202 C 0.69317 0.26123 0.1827 0.0
C203 C 0.70659 0.28268 0.18957 0.0
C204 C 0.69977 0.23782 0.19364 0.0
C205 C 0.71917 0.23595 0.21121 0.0
U206 U 0.79241 0.27897 0.24703 0.0
O207 O 0.80479 0.28003 0.28902 0.0
O208 O 0.82283 0.25623 0.26016 0.0
C209 C 0.82073 0.26264 0.28545 0.0
C210 C 0.75254 0.25486 0.23692 0.0
C211 C 0.82025 0.24175 0.30504 0.0
C212 C 0.79895 0.2087 0.3291 0.0
C213 C 0.79926 0.22821 0.31 0.0
C214 C 0.84071 0.21582 0.33818 0.0
C215 C 0.81967 0.20229 0.34349 0.0
C216 C 0.84097 0.23539 0.31914 0.0
C217 C 0.82485 0.33684 0.21972 0.0
C218 C 0.86696 0.34534 0.22599 0.0
C219 C 0.84024 0.37953 0.21596 0.0
C220 C 0.8212 0.36251 0.21502 0.0
C221 C 0.86333 0.37113 0.22146 0.0
C222 C 0.84788 0.32837 0.2253 0.0
C223 C 0.80444 0.31931 0.21931 0.0
O224 O 0.77283 0.24895 0.22605 0.0
O225 O 0.75465 0.27232 0.25525 0.0
O226 O 0.79073 0.3199 0.24051 0.0
O227 O 0.80878 0.2964 0.21133 0.0
H228 H 0.73621 0.2975 0.21192 0.0
H229 H 0.70216 0.30092 0.18121 0.0
H230 H 0.68969 0.221 0.18897 0.0
H231 H 0.72377 0.21774 0.21956 0.0
H232 H 0.78237 0.19894 0.33291 0.0
H233 H 0.78308 0.23289 0.29927 0.0
H234 H 0.85705 0.21118 0.34857 0.0
H235 H 0.85735 0.24559 0.31544 0.0
H236 H 0.88449 0.33836 0.23064 0.0
H237 H 0.83691 0.39925 0.2122 0.0
H238 H 0.80357 0.36942 0.21074 0.0
H239 H 0.85112 0.30866 0.22932 0.0
C240 C 0.24637 0.23958 0.70749 0.0
C241 C 0.26589 0.22355 0.7082 0.0
C242 C 0.24617 0.19586 0.6762 0.0
C243 C 0.26581 0.20189 0.69263 0.0
C244 C 0.22655 0.21188 0.67588 0.0
C245 C 0.22668 0.23358 0.69138 0.0
U246 U 0.2727 0.28217 0.76162 0.0
O247 O 0.27606 0.32331 0.76203 0.0
O248 O 0.25443 0.3038 0.79245 0.0
C249 C 0.26062 0.32545 0.78148 0.0
C250 C 0.24626 0.26257 0.72341 0.0
C251 C 0.24099 0.34289 0.77629 0.0
C252 C 0.21175 0.36181 0.74621 0.0
C253 C 0.23101 0.34586 0.75044 0.0
C254 C 0.21213 0.37182 0.7936 0.0
C255 C 0.20195 0.37474 0.76783 0.0
C256 C 0.23149 0.35609 0.79775 0.0
C257 C 0.32864 0.26227 0.80069 0.0
C258 C 0.34103 0.27491 0.84556 0.0
C259 C 0.36955 0.25723 0.8153 0.0
C260 C 0.35187 0.25478 0.79559 0.0
C261 C 0.36434 0.2671 0.84066 0.0
C262 C 0.32338 0.2726 0.82575 0.0
C263 C 0.31015 0.25841 0.77993 0.0
O264 O 0.24194 0.2593 0.74915 0.0
O265 O 0.26374 0.27851 0.71872 0.0
O266 O 0.3108 0.27386 0.7591 0.0
O267 O 0.28858 0.25401 0.78872 0.0
H268 H 0.28118 0.22784 0.72071 0.0
H269 H 0.28107 0.18977 0.6936 0.0
H270 H 0.21127 0.20792 0.66324 0.0
H271 H 0.21146 0.24577 0.69066 0.0
H272 H 0.20416 0.36354 0.7262 0.0
H273 H 0.23791 0.33563 0.7336 0.0
H274 H 0.20514 0.38177 0.81058 0.0
H275 H 0.2389 0.35402 0.81783 0.0
H276 H 0.33625 0.28234 0.86489 0.0
H277 H 0.38735 0.25147 0.81057 0.0
H278 H 0.35632 0.24687 0.77635 0.0
H279 H 0.30558 0.27859 0.83016 0.0
C280 C 0.21361 0.74035 0.24847 0.0
C281 C 0.22267 0.71723 0.24042 0.0
C282 C 0.18278 0.69927 0.23902 0.0
C283 C 0.20739 0.69682 0.23586 0.0
C284 C 0.17378 0.72269 0.24636 0.0
C285 C 0.18908 0.743 0.2511 0.0
U286 U 0.27091 0.77868 0.23941 0.0
O287 O 0.27664 0.81958 0.2394 0.0
O288 O 0.29415 0.79589 0.2699 0.0
C289 C 0.28966 0.81883 0.26144 0.0
C290 C 0.22938 0.76167 0.25501 0.0
C291 C 0.28331 0.83656 0.28247 0.0
C292 C 0.25513 0.85355 0.31391 0.0
C293 C 0.26057 0.83658 0.29364 0.0
C294 C 0.29515 0.87036 0.31201 0.0
C295 C 0.27237 0.87071 0.32328 0.0
C296 C 0.30052 0.85348 0.2918 0.0
C297 C 0.31752 0.75921 0.1889 0.0
C298 C 0.34909 0.78636 0.17181 0.0
C299 C 0.35203 0.74123 0.16804 0.0
C300 C 0.33011 0.73823 0.1806 0.0
C301 C 0.36175 0.76532 0.16343 0.0
C302 C 0.32722 0.78333 0.1846 0.0
C303 C 0.29446 0.75549 0.20211 0.0
O304 O 0.24935 0.75598 0.26733 0.0
O305 O 0.23196 0.77882 0.23598 0.0
O306 O 0.27833 0.77248 0.19672 0.0
O307 O 0.29548 0.74902 0.22769 0.0
H308 H 0.24156 0.71484 0.23803 0.0
H309 H 0.21482 0.6791 0.22995 0.0
H310 H 0.15496 0.72511 0.24926 0.0
H311 H 0.18176 0.7607 0.25729 0.0
H312 H 0.2374 0.8534 0.32203 0.0
H313 H 0.24708 0.82351 0.2867 0.0
H314 H 0.30902 0.88289 0.3191 0.0
H315 H 0.31822 0.85355 0.28354 0.0
H316 H 0.35622 0.80513 0.16877 0.0
H317 H 0.3612 0.72467 0.16154 0.0
H318 H 0.32294 0.71949 0.18377 0.0
H319 H 0.3179 0.79981 0.19109 0.0
C320 C 1.00083 0.4928 0.24178 0.0
C321 C 0.06269 0.55786 0.24318 0.0
O322 O 1.00694 0.49915 0.26569 0.0
Zn323 Zn 0.03164 0.52449 0.28469 0.0
O324 O 1.01123 0.50296 0.22177 0.0
Zn325 Zn 0.03206 0.52505 0.24191 0.0
O326 O 0.05636 0.49939 0.26073 0.0
O327 O 0.05259 0.50229 0.30468 0.0
O328 O 0.05297 0.54799 0.22267 0.0
O329 O 0.05626 0.55071 0.26678 0.0
O330 O 1.01047 0.54624 0.30399 0.0
O331 O 1.00749 0.55021 0.25988 0.0
C332 C 0.06256 0.49254 0.28459 0.0
C333 C 1.00089 0.55651 0.28343 0.0
C334 C 1.00241 0.486 0.79788 0.0
C335 C 0.05858 0.55699 0.80313 0.0
O336 O 1.00996 0.49614 0.81942 0.0
Zn337 Zn 0.02997 0.52171 0.80214 0.0
O338 O 1.00928 0.49468 0.77504 0.0
Zn339 Zn 0.03151 0.5237 0.75871 0.0
O340 O 0.05519 0.50408 0.73999 0.0
O341 O 0.05666 0.49966 0.78418 0.0
O342 O 0.05321 0.55043 0.77913 0.0
O343 O 0.04899 0.54554 0.82294 0.0
O344 O 1.00396 0.54467 0.78335 0.0
O345 O 1.00877 0.54493 0.73936 0.0
C346 C 0.0647 0.49436 0.76094 0.0
C347 C 0.99741 0.55204 0.75985 0.0
C348 C 0.29061 0.98139 0.55532 0.0
C349 C 0.297 0.05094 0.48958 0.0
O350 O 0.27071 0.98895 0.54585 0.0
Zn351 Zn 0.2572 1.01601 0.51791 0.0
O352 O 0.30969 0.99182 0.54716 0.0
Zn353 Zn 0.29517 1.01613 0.5224 0.0
O354 O 0.27679 0.04007 0.54899 0.0
O355 O 0.23841 0.03757 0.54051 0.0
O356 O 0.3142 0.04082 0.50224 0.0
O357 O 0.27581 0.0431 0.49385 0.0
O358 O 0.24218 0.99515 0.49078 0.0
O359 O 0.28121 0.99298 0.49101 0.0
C360 C 0.25559 0.04685 0.55396 0.0
C361 C 0.2611 0.98652 0.48092 0.0
C362 C 0.57116 0.72921 0.0606 0.0
C363 C 0.51668 0.73006 0.98323 0.0
O364 O 0.56359 0.71011 0.04792 0.0
Zn365 Zn 0.54445 0.72832 1.02138 0.0
O366 O 0.56517 0.75123 0.05265 0.0
Zn367 Zn 0.54436 0.76868 0.02187 0.0
O368 O 0.5208 0.78607 0.0428 0.0
O369 O 0.51775 0.7448 0.04574 0.0
O370 O 0.52286 0.75185 0.9915 0.0
O371 O 0.52486 0.71058 0.99497 0.0
O372 O 0.57087 0.74632 0.99694 0.0
O373 O 0.56765 0.78732 1.00081 0.0
C374 C 0.51041 0.76657 0.05222 0.0
C375 C 0.57797 0.76859 0.99074 0.0
C376 C 0.80868 1.00244 0.55832 0.0
C377 C 0.80786 0.06756 0.4881 0.0
O378 O 0.78776 1.00852 0.55064 0.0
Zn379 Zn 0.77113 0.03411 0.52299 0.0
O380 O 0.82648 1.01379 0.54819 0.0
Zn381 Zn 0.80888 0.03558 0.52383 0.0
O382 O 0.79207 0.06069 0.55077 0.0
O383 O 0.75343 0.05574 0.54653 0.0
O384 O 0.82583 0.05829 0.50001 0.0
O385 O 0.78703 0.06009 0.49485 0.0
O386 O 0.75446 1.01079 0.4996 0.0
O387 O 0.79338 1.00907 0.49635 0.0
C388 C 0.77105 0.06664 0.55761 0.0
C389 C 0.77273 1.00128 0.48914 0.0
C390 C 0.55481 0.28003 0.05322 0.0
C391 C 0.49224 0.28202 0.9843 0.0
O392 O 0.5443 0.26141 0.04248 0.0
Zn393 Zn 0.52311 0.28042 1.01913 0.0
O394 O 0.54867 0.30235 0.04644 0.0
Zn395 Zn 0.52382 0.32035 1.0198 0.0
O396 O 0.50359 0.33798 0.0445 0.0
O397 O 0.49925 0.29683 0.04691 0.0
O398 O 0.49895 0.304 0.99166 0.0
O399 O 0.50165 0.26281 0.99523 0.0
O400 O 0.54726 0.29831 0.99155 0.0
O401 O 0.5449 0.33932 0.99637 0.0
C402 C 0.49347 0.31873 0.05476 0.0
C403 C 0.55399 0.32059 0.98488 0.0
H404 H 0.19968 0.42846 0.31753 0.0
H405 H 0.16397 0.37077 0.27183 0.0
H406 H 0.16321 0.45271 0.318 0.0
H407 H 0.12741 0.39478 0.27274 0.0
H408 H 0.08129 0.46252 0.24653 0.0
H409 H 0.11492 0.43461 0.251 0.0
H410 H 0.12158 0.45289 0.33508 0.0
H411 H 0.08775 0.48108 0.33061 0.0
C412 C 0.18399 0.42087 0.30778 0.0
C413 C 0.18477 0.39777 0.29449 0.0
C414 C 0.16304 0.43464 0.30828 0.0
C415 C 0.14245 0.42571 0.29531 0.0
C416 C 0.14305 0.40227 0.2827 0.0
C417 C 0.16393 0.38841 0.28238 0.0
C418 C 0.08976 0.46048 0.26606 0.0
C419 C 0.08187 0.47412 0.2882 0.0
C420 C 0.10897 0.44432 0.26865 0.0
C421 C 0.12093 0.44153 0.29338 0.0
C422 C 0.11281 0.4548 0.3157 0.0
C423 C 0.09337 0.47082 0.31318 0.0
H424 H 0.18973 0.63268 0.84494 0.0
H425 H 0.15926 0.68118 0.78379 0.0
H426 H 0.15383 0.60688 0.84473 0.0
H427 H 0.12292 0.65624 0.78471 0.0
H428 H 0.07917 0.58612 0.76441 0.0
H429 H 0.11157 0.61587 0.76903 0.0
H430 H 0.11205 0.60352 0.85511 0.0
H431 H 0.07965 0.57285 0.85034 0.0
C432 C 0.17533 0.63798 0.83158 0.0
C433 C 0.1776 0.65887 0.8141 0.0
C434 C 0.15456 0.62337 0.83178 0.0
C435 C 0.13548 0.62933 0.81457 0.0
C436 C 0.13739 0.65083 0.79793 0.0
C437 C 0.15818 0.66535 0.79763 0.0
C438 C 0.08597 0.5898 0.78442 0.0
C439 C 0.07683 0.57693 0.807 0.0
C440 C 0.10452 0.60711 0.78709 0.0
C441 C 0.11448 0.6122 0.81245 0.0
C442 C 0.10496 0.59985 0.83522 0.0
C443 C 0.08629 0.58242 0.83253 0.0
H444 H 0.8701 0.63226 0.2524 0.0
H445 H 0.89168 0.66489 0.32793 0.0
H446 H 0.90571 0.60719 0.25244 0.0
H447 H 0.92804 0.64027 0.32746 0.0
H448 H 0.97635 0.56901 0.32886 0.0
H449 H 0.94197 0.59647 0.33147 0.0
H450 H 0.94773 0.61319 0.24652 0.0
H451 H 0.9815 0.58559 0.24379 0.0
C452 C 0.88242 0.63403 0.2691 0.0
C453 C 0.87792 0.65051 0.29024 0.0
C454 C 0.90304 0.61987 0.26895 0.0
C455 C 0.91986 0.62184 0.28986 0.0
C456 C 0.91539 0.63822 0.31112 0.0
C457 C 0.89467 0.65249 0.31126 0.0
C458 C 0.97036 0.57873 0.31083 0.0
C459 C 0.98151 0.57486 0.28607 0.0
C460 C 0.95072 0.59453 0.31234 0.0
C461 C 0.94189 0.60676 0.28912 0.0
C462 C 0.9537 0.60362 0.26467 0.0
C463 C 0.97318 0.58786 0.26314 0.0
H464 H 0.90019 0.3621 0.8259 0.0
H465 H 0.89003 0.38914 0.74442 0.0
H466 H 0.93186 0.39331 0.83246 0.0
H467 H 0.92118 0.42034 0.75098 0.0
H468 H 0.99381 0.45311 0.75787 0.0
H469 H 0.96337 0.42079 0.75545 0.0
H470 H 0.94096 0.43849 0.83578 0.0
H471 H 0.97223 0.47078 0.83847 0.0
C472 C 0.90457 0.37485 0.8095 0.0
C473 C 0.89284 0.37293 0.78451 0.0
C474 C 0.92267 0.39275 0.81327 0.0
C475 C 0.92933 0.4091 0.79213 0.0
C476 C 0.91701 0.40761 0.76748 0.0
C477 C 0.89909 0.38973 0.7637 0.0
C478 C 0.98252 0.45007 0.77515 0.0
C479 C 0.98528 0.46473 0.79826 0.0
C480 C 0.96492 0.4316 0.77368 0.0
C481 C 0.94934 0.42737 0.79518 0.0
C482 C 0.95267 0.44127 0.81885 0.0
C483 C 0.97055 0.45977 0.8204 0.0
H484 H 0.33404 0.18501 0.39101 0.0
H485 H 0.25953 0.18638 0.40986 0.0
H486 H 0.33744 0.14432 0.41439 0.0
H487 H 0.26308 0.14658 0.4337 0.0
H488 H 0.26774 0.06489 0.44886 0.0
H489 H 0.2692 0.10313 0.42186 0.0
H490 H 0.33496 0.12457 0.46071 0.0
H491 H 0.33372 0.08556 0.48767 0.0
C492 C 0.31843 0.17668 0.40014 0.0
C493 C 0.29651 0.189 0.3986 0.0
C494 C 0.32043 0.1535 0.4137 0.0
C495 C 0.3005 0.1421 0.42571 0.0
C496 C 0.27872 0.1546 0.42431 0.0
C497 C 0.27674 0.17764 0.41092 0.0
C498 C 0.2827 0.07757 0.45149 0.0
C499 C 0.30045 0.07238 0.47069 0.0
C500 C 0.28346 0.09959 0.43608 0.0
C501 C 0.30189 0.1172 0.43957 0.0
C502 C 0.32049 0.11137 0.45759 0.0
C503 C 0.3198 0.08907 0.47302 0.0
H504 H 0.40077 0.77679 0.88575 0.0
H505 H 0.41017 0.70206 0.85541 0.0
H506 H 0.43299 0.77028 0.91771 0.0
H507 H 0.44286 0.69552 0.8876 0.0
H508 H 0.48623 0.69104 0.97032 0.0
H509 H 0.45363 0.69234 0.9372 0.0
H510 H 0.47583 0.76699 0.91273 0.0
H511 H 0.5077 0.76588 0.94567 0.0
C512 C 0.40981 0.75897 0.88587 0.0
C513 C 0.40322 0.74011 0.86775 0.0
C514 C 0.42831 0.75523 0.90417 0.0
C515 C 0.44081 0.73256 0.90481 0.0
C516 C 0.43357 0.71319 0.88755 0.0
C517 C 0.4149 0.71694 0.86916 0.0
C518 C 0.48427 0.70751 0.95752 0.0
C519 C 0.49929 0.7285 0.96086 0.0
C520 C 0.46564 0.70827 0.93862 0.0
C521 C 0.46184 0.73001 0.92281 0.0
C522 C 0.47783 0.75026 0.92513 0.0
C523 C 0.49621 0.74955 0.94394 0.0
H524 H 0.75864 0.85207 0.42634 0.0
H525 H 0.78926 0.89365 0.35983 0.0
H526 H 0.75462 0.89105 0.4512 0.0
H527 H 0.78497 0.93262 0.38454 0.0
H528 H 0.80639 0.98575 0.45455 0.0
H529 H 0.80513 0.94931 0.4256 0.0
H530 H 0.73359 0.93286 0.45088 0.0
H531 H 0.73481 0.96961 0.48004 0.0
C532 C 0.76435 0.86956 0.41697 0.0
C533 C 0.77441 0.86976 0.39119 0.0
C534 C 0.76183 0.8919 0.43109 0.0
C535 C 0.76953 0.9149 0.41985 0.0
C536 C 0.77902 0.91517 0.3938 0.0
C537 C 0.78132 0.89288 0.37958 0.0
C538 C 0.79027 0.97455 0.45376 0.0
C539 C 0.77072 0.98053 0.46968 0.0
C540 C 0.78951 0.95374 0.43703 0.0
C541 C 0.76928 0.93818 0.43598 0.0
C542 C 0.74949 0.94442 0.45143 0.0
C543 C 0.75013 0.96553 0.46797 0.0
H544 H 0.64975 0.30983 0.84891 0.0
H545 H 0.68916 0.34949 0.91029 0.0
H546 H 0.61458 0.31031 0.877 0.0
H547 H 0.65386 0.35027 0.93813 0.0
H548 H 0.57993 0.36318 0.97272 0.0
H549 H 0.61276 0.36719 0.94099 0.0
H550 H 0.60339 0.28938 0.91974 0.0
H551 H 0.57074 0.28539 0.95107 0.0
C552 C 0.65094 0.31865 0.86837 0.0
C553 C 0.67239 0.32943 0.87739 0.0
C554 C 0.63076 0.319 0.88442 0.0
C555 C 0.63147 0.33025 0.90982 0.0
C556 C 0.65266 0.34174 0.91851 0.0
C557 C 0.6729 0.34127 0.90252 0.0
C558 C 0.58475 0.34703 0.96106 0.0
C559 C 0.57278 0.32395 0.96449 0.0
C560 C 0.60362 0.34929 0.94302 0.0
C561 C 0.61066 0.32859 0.92787 0.0
C562 C 0.59825 0.30575 0.93086 0.0
C563 C 0.57961 0.30344 0.94898 0.0
H564 H 0.31117 0.84338 0.64975 0.0
H565 H 0.25445 0.8822 0.68861 0.0
H566 H 0.31633 0.87895 0.61857 0.0
H567 H 0.25965 0.91762 0.65773 0.0
H568 H 0.25232 0.95781 0.57719 0.0
H569 H 0.25131 0.92415 0.61032 0.0
H570 H 0.32777 0.92416 0.6136 0.0
H571 H 0.32886 0.95808 0.57968 0.0
C572 C 0.30005 0.85964 0.65189 0.0
C573 C 0.28215 0.85979 0.67141 0.0
C574 C 0.30304 0.88003 0.63406 0.0
C575 C 0.2882 0.901 0.63541 0.0
C576 C 0.27102 0.90153 0.6557 0.0
C577 C 0.26801 0.8812 0.67341 0.0
C578 C 0.26901 0.95078 0.58489 0.0
C579 C 0.2907 0.96077 0.57574 0.0
C580 C 0.2684 0.93152 0.60412 0.0
C581 C 0.28944 0.9216 0.61487 0.0
C582 C 0.31123 0.93135 0.60563 0.0
C583 C 0.31186 0.95083 0.58631 0.0
H584 H 0.6931 0.72273 0.16652 0.0
H585 H 0.63571 0.74281 0.21864 0.0
H586 H 0.66463 0.7152 0.13001 0.0
H587 H 0.60748 0.7357 0.1821 0.0
H588 H 0.57617 0.76283 0.10051 0.0
H589 H 0.60257 0.76119 0.13925 0.0
H590 H 0.62768 0.68892 0.11457 0.0
H591 H 0.60076 0.69044 0.07535 0.0
C592 C 0.67441 0.72505 0.17038 0.0
C593 C 0.66673 0.73382 0.19537 0.0
C594 C 0.65813 0.72071 0.14947 0.0
C595 C 0.6339 0.72515 0.15315 0.0
C596 C 0.62611 0.73251 0.17857 0.0
C597 C 0.6423 0.73671 0.19944 0.0
C598 C 0.58717 0.74646 0.10333 0.0
C599 C 0.58644 0.72678 0.08481 0.0
C600 C 0.60219 0.74546 0.12568 0.0
C601 C 0.6171 0.72488 0.13001 0.0
C602 C 0.61636 0.70501 0.11166 0.0
C603 C 0.60092 0.70582 0.08935 0.0
H604 H 0.7255 0.19158 0.65615 0.0
H605 H 0.78742 0.16241 0.69687 0.0
H606 H 0.72874 0.1593 0.62208 0.0
H607 H 0.79057 0.13005 0.663 0.0
H608 H 0.80537 0.09444 0.58253 0.0
H609 H 0.80076 0.12617 0.61657 0.0
H610 H 0.72492 0.11448 0.6145 0.0
H611 H 0.72951 0.0829 0.57973 0.0
C612 C 0.73967 0.17813 0.65798 0.0
C613 C 0.75628 0.17968 0.67919 0.0
C614 C 0.74151 0.15958 0.63846 0.0
C615 C 0.75997 0.14209 0.63969 0.0
C616 C 0.77639 0.14348 0.6611 0.0
C617 C 0.77459 0.16205 0.68055 0.0
C618 C 0.78767 0.09857 0.58927 0.0
C619 C 0.7678 0.08604 0.57837 0.0
C620 C 0.78505 0.1167 0.60898 0.0
C621 C 0.76249 0.12281 0.61847 0.0
C622 C 0.74255 0.11041 0.60748 0.0
C623 C 0.74518 0.09222 0.58764 0.0
H624 H 0.36941 0.30283 0.15648 0.0
H625 H 0.4229 0.33756 0.20674 0.0
H626 H 0.39557 0.30689 0.11784 0.0
H627 H 0.44926 0.34124 0.16807 0.0
H628 H 0.48358 0.35959 0.0858 0.0
H629 H 0.45441 0.36184 0.12197 0.0
H630 H 0.43316 0.28516 0.10707 0.0
H631 H 0.46204 0.28286 0.07128 0.0
C632 C 0.3866 0.31171 0.15919 0.0
C633 C 0.39413 0.31974 0.18471 0.0
C634 C 0.40166 0.31385 0.13711 0.0
C635 C 0.42453 0.32422 0.13997 0.0
C636 C 0.43169 0.33329 0.16521 0.0
C637 C 0.41669 0.33096 0.18738 0.0
C638 C 0.47253 0.34332 0.09016 0.0
C639 C 0.47518 0.32103 0.07574 0.0
C640 C 0.45593 0.34457 0.11091 0.0
C641 C 0.44145 0.3237 0.11728 0.0
C642 C 0.44382 0.30166 0.10243 0.0
C643 C 0.46053 0.3003 0.08203 0.0
H644 H 0.85823 0.61732 0.77592 0.0
H645 H 0.90293 0.67862 0.74825 0.0
H646 H 0.8907 0.58827 0.76974 0.0
H647 H 0.93529 0.64934 0.74165 0.0
H648 H 0.98363 0.58292 0.71757 0.0
H649 H 0.94891 0.61044 0.71585 0.0
H650 H 0.92893 0.58436 0.79514 0.0
H651 H 0.96313 0.55731 0.79693 0.0
C652 C 0.87493 0.62461 0.76842 0.0
C653 C 0.87803 0.6504 0.76299 0.0
C654 C 0.89349 0.60793 0.76474 0.0
C655 C 0.91559 0.61657 0.75541 0.0
C656 C 0.91839 0.64211 0.74865 0.0
C657 C 0.89983 0.65887 0.75247 0.0
C658 C 0.97167 0.58302 0.73448 0.0
C659 C 0.97619 0.56804 0.75742 0.0
C660 C 0.95191 0.5988 0.73355 0.0
C661 C 0.93614 0.59942 0.75531 0.0
C662 C 0.94053 0.58406 0.77791 0.0
C663 C 0.96029 0.56869 0.77899 0.0
H664 H 0.86473 0.41608 0.24715 0.0
H665 H 0.90746 0.36709 0.1996 0.0
H666 H 0.89806 0.44547 0.25095 0.0
H667 H 0.94095 0.39644 0.20365 0.0
H668 H 0.98628 0.47002 0.19509 0.0
H669 H 0.95299 0.44065 0.18921 0.0
H670 H 0.93768 0.445 0.27391 0.0
H671 H 0.97073 0.47416 0.27985 0.0
C672 C 0.8812 0.41169 0.23735 0.0
C673 C 0.88348 0.38926 0.2231 0.0
C674 C 0.90034 0.4284 0.23971 0.0
C675 C 0.92214 0.42321 0.22768 0.0
C676 C 0.92433 0.40101 0.21301 0.0
C677 C 0.90523 0.38413 0.21089 0.0
C678 C 0.97584 0.46464 0.21245 0.0
C679 C 0.98118 0.47446 0.23793 0.0
C680 C 0.95684 0.44777 0.20909 0.0
C681 C 0.94265 0.44064 0.23108 0.0
C682 C 0.94809 0.45038 0.25652 0.0
C683 C 0.96716 0.46698 0.25993 0.0
H684 H 0.16237 0.37559 0.79853 0.0
H685 H 0.19376 0.40995 0.72805 0.0
H686 H 0.12879 0.40359 0.79434 0.0
H687 H 0.16013 0.4385 0.72405 0.0
H688 H 0.08426 0.47269 0.71615 0.0
H689 H 0.11686 0.44254 0.71549 0.0
H690 H 0.12363 0.4476 0.80185 0.0
H691 H 0.09129 0.47684 0.80261 0.0
C692 C 0.16211 0.38923 0.78218 0.0
C693 C 0.18087 0.39083 0.76388 0.0
C694 C 0.14287 0.40531 0.77976 0.0
C695 C 0.14195 0.4236 0.75911 0.0
C696 C 0.16025 0.42457 0.74011 0.0
C697 C 0.17952 0.40829 0.74244 0.0
C698 C 0.09278 0.46731 0.73492 0.0
C699 C 0.08497 0.47699 0.75943 0.0
C700 C 0.11147 0.45013 0.73455 0.0
C701 C 0.1226 0.44235 0.75868 0.0
C702 C 0.11509 0.45261 0.78297 0.0
C703 C 0.09655 0.46957 0.78335 0.0
H704 H 0.1892 0.65162 0.25843 0.0
H705 H 0.13966 0.69721 0.21329 0.0
H706 H 0.16134 0.6163 0.25693 0.0
H707 H 0.1116 0.66191 0.21219 0.0
H708 H 0.07532 0.58479 0.19785 0.0
H709 H 0.10559 0.618 0.19427 0.0
H710 H 0.12233 0.60832 0.27865 0.0
H711 H 0.09235 0.57536 0.28226 0.0
C712 C 0.1725 0.65399 0.24786 0.0
C713 C 0.1666 0.67725 0.23608 0.0
C714 C 0.15646 0.63383 0.24721 0.0
C715 C 0.13422 0.63638 0.23459 0.0
C716 C 0.12865 0.65933 0.22192 0.0
C717 C 0.14462 0.67959 0.22277 0.0
C718 C 0.08557 0.58969 0.21557 0.0
C719 C 0.08137 0.57747 0.24035 0.0
C720 C 0.1028 0.60876 0.21354 0.0
C721 C 0.11639 0.6157 0.23616 0.0
C722 C 0.11239 0.60319 0.26078 0.0
C723 C 0.09505 0.58441 0.26288 0.0
H724 H 0.79943 0.85618 0.63337 0.0
H725 H 0.84274 0.89736 0.69001 0.0
H726 H 0.79748 0.89324 0.60416 0.0
H727 H 0.84058 0.93471 0.66073 0.0
H728 H 0.8496 0.98581 0.58294 0.0
H729 H 0.85379 0.94952 0.61346 0.0
H730 H 0.77846 0.93547 0.60806 0.0
H731 H 0.77419 0.97137 0.57787 0.0
C732 C 0.80867 0.87312 0.63947 0.0
C733 C 0.82122 0.87389 0.66397 0.0
C734 C 0.8074 0.89439 0.62286 0.0
C735 C 0.8188 0.91687 0.63025 0.0
C736 C 0.83173 0.91758 0.65451 0.0
C737 C 0.83279 0.89631 0.67132 0.0
C738 C 0.83395 0.97503 0.58841 0.0
C739 C 0.81159 0.98144 0.57787 0.0
C740 C 0.83634 0.95435 0.60593 0.0
C741 C 0.81647 0.93959 0.61291 0.0
C742 C 0.79413 0.94629 0.60272 0.0
C743 C 0.79171 0.96699 0.58552 0.0
H744 H 0.65845 0.29656 0.18284 0.0
H745 H 0.68061 0.2304 0.14116 0.0
H746 H 0.62438 0.30017 0.15268 0.0
H747 H 0.64672 0.23419 0.11063 0.0
H748 H 0.57152 0.23588 0.07513 0.0
H749 H 0.60419 0.23069 0.10727 0.0
H750 H 0.61554 0.31103 0.10712 0.0
H751 H 0.5827 0.31623 0.07583 0.0
C752 C 0.65614 0.2829 0.16707 0.0
C753 C 0.6723 0.26327 0.16434 0.0
C754 C 0.63661 0.28496 0.14974 0.0
C755 C 0.6328 0.26754 0.12908 0.0
C756 C 0.64887 0.24774 0.12652 0.0
C757 C 0.66835 0.24561 0.14397 0.0
C758 C 0.58095 0.25241 0.08208 0.0
C759 C 0.57441 0.27646 0.07294 0.0
C760 C 0.59978 0.24944 0.10038 0.0
C761 C 0.61252 0.27045 0.1099 0.0
C762 C 0.60591 0.29445 0.10068 0.0
C763 C 0.5871 0.29741 0.08254 0.0
H764 H 0.2826 0.17896 0.64595 0.0
H765 H 0.21017 0.16182 0.66733 0.0
H766 H 0.28331 0.14204 0.61779 0.0
H767 H 0.2109 0.12458 0.63915 0.0
H768 H 0.21627 0.07588 0.56173 0.0
H769 H 0.21296 0.11149 0.59207 0.0
H770 H 0.28343 0.09708 0.62268 0.0
H771 H 0.28691 0.06219 0.59221 0.0
C772 C 0.2669 0.16713 0.64488 0.0
C773 C 0.2464 0.17324 0.65904 0.0
C774 C 0.26729 0.14593 0.62873 0.0
C775 C 0.24722 0.13019 0.62639 0.0
C776 C 0.22659 0.13641 0.64033 0.0
C777 C 0.22619 0.15772 0.65648 0.0
C778 C 0.2309 0.08019 0.57519 0.0
C779 C 0.25194 0.0664 0.57434 0.0
C780 C 0.22901 0.10056 0.59259 0.0
C781 C 0.2481 0.10739 0.60949 0.0
C782 C 0.26863 0.09277 0.60945 0.0
C783 C 0.27056 0.07263 0.59207 0.0
H784 H 0.37371 0.79868 0.12318 0.0
H785 H 0.40212 0.7387 0.17254 0.0
H786 H 0.41067 0.8009 0.09798 0.0
H787 H 0.43909 0.74112 0.14773 0.0
H788 H 0.48569 0.72796 0.07528 0.0
H789 H 0.45105 0.72977 0.10345 0.0
H790 H 0.45318 0.81079 0.09884 0.0
H791 H 0.48798 0.80897 0.06982 0.0
C792 C 0.388 0.78626 0.12893 0.0
C793 C 0.38489 0.76829 0.14962 0.0
C794 C 0.4092 0.78757 0.11453 0.0
C795 C 0.42777 0.77099 0.1206 0.0
C796 C 0.42497 0.75379 0.14209 0.0
C797 C 0.40378 0.7524 0.15634 0.0
C798 C 0.47893 0.74624 0.08027 0.0
C799 C 0.48968 0.76834 0.07022 0.0
C800 C 0.45909 0.74727 0.09667 0.0
C801 C 0.44938 0.77042 0.10364 0.0
C802 C 0.46013 0.79263 0.09371 0.0
C803 C 0.48012 0.7916 0.0772 0.0
H804 H 0.79616 0.15707 0.34115 0.0
H805 H 0.84223 0.20093 0.39261 0.0
H806 H 0.79426 0.12413 0.37558 0.0
H807 H 0.84054 0.16776 0.42688 0.0
H808 H 0.84858 0.09159 0.47141 0.0
H809 H 0.85247 0.12353 0.43583 0.0
H810 H 0.77711 0.11904 0.42071 0.0
H811 H 0.77321 0.08715 0.45588 0.0
C812 C 0.8058 0.15976 0.35983 0.0
C813 C 0.81924 0.18175 0.36412 0.0
C814 C 0.80476 0.14084 0.37954 0.0
C815 C 0.81719 0.14337 0.40399 0.0
C816 C 0.83099 0.16512 0.40812 0.0
C817 C 0.83196 0.18411 0.38845 0.0
C818 C 0.83287 0.09739 0.46043 0.0
C819 C 0.81059 0.0868 0.4665 0.0
C820 C 0.83508 0.11576 0.44016 0.0
C821 C 0.8151 0.12375 0.42541 0.0
C822 C 0.79289 0.11306 0.43144 0.0
C823 C 0.79065 0.09487 0.45175 0.0
H824 H 0.39992 0.23389 0.85244 0.0
H825 H 0.37126 0.30466 0.87729 0.0
H826 H 0.43096 0.23745 0.88649 0.0
H827 H 0.40144 0.30748 0.91237 0.0
H828 H 0.47306 0.31904 0.95284 0.0
H829 H 0.44261 0.31519 0.91825 0.0
H830 H 0.43816 0.23528 0.93383 0.0
H831 H 0.4693 0.23907 0.96795 0.0
C832 C 0.40021 0.25024 0.86513 0.0
C833 C 0.38307 0.26905 0.86194 0.0
C834 C 0.41785 0.2521 0.88498 0.0
C835 C 0.41878 0.27275 0.90228 0.0
C836 C 0.40153 0.29146 0.89921 0.0
C837 C 0.38397 0.28967 0.87928 0.0
C838 C 0.46562 0.30063 0.94891 0.0
C839 C 0.47364 0.27937 0.96322 0.0
C840 C 0.448 0.29843 0.92915 0.0
C841 C 0.43775 0.27493 0.92325 0.0
C842 C 0.44582 0.25363 0.93754 0.0
C843 C 0.4636 0.25582 0.95723 0.0
H844 H 0.24618 0.86253 0.36904 0.0
H845 H 0.28636 0.91984 0.32657 0.0
H846 H 0.24088 0.89126 0.40645 0.0
H847 H 0.28142 0.94816 0.36406 0.0
H848 H 0.29822 0.97351 0.44994 0.0
H849 H 0.29814 0.94636 0.41117 0.0
H850 H 0.22285 0.93397 0.41943 0.0
H851 H 0.22281 0.96151 0.45866 0.0
C852 C 0.25356 0.88134 0.36747 0.0
C853 C 0.26702 0.88874 0.34495 0.0
C854 C 0.25052 0.89776 0.38891 0.0
C855 C 0.26099 0.92181 0.38828 0.0
C856 C 0.27352 0.92956 0.3653 0.0
C857 C 0.27642 0.91328 0.34387 0.0
C858 C 0.28158 0.96505 0.44361 0.0
C859 C 0.26049 0.96971 0.45742 0.0
C860 C 0.28154 0.94961 0.42123 0.0
C861 C 0.26047 0.93821 0.41214 0.0
C862 C 0.23935 0.94252 0.42606 0.0
C863 C 0.23932 0.95833 0.44841 0.0
H864 H 0.67417 0.75085 0.85746 0.0
H865 H 0.70146 0.81688 0.89711 0.0
H866 H 0.64271 0.74729 0.89051 0.0
H867 H 0.67003 0.81323 0.93038 0.0
H868 H 0.59578 0.81252 0.9688 0.0
H869 H 0.62753 0.81721 0.9359 0.0
H870 H 0.63702 0.73686 0.93707 0.0
H871 H 0.60515 0.73215 0.96924 0.0
C872 C 0.67362 0.76445 0.87342 0.0
C873 C 0.69041 0.78409 0.87467 0.0
C874 C 0.65555 0.76243 0.8924 0.0
C875 C 0.65384 0.77993 0.91322 0.0
C876 C 0.6706 0.79962 0.91443 0.0
C877 C 0.68865 0.80168 0.89538 0.0
C878 C 0.6047 0.7959 0.96205 0.0
C879 C 0.59781 0.77197 0.97159 0.0
C880 C 0.62297 0.79857 0.94328 0.0
C881 C 0.63476 0.77739 0.93366 0.0
C882 C 0.62806 0.75355 0.94358 0.0
C883 C 0.60983 0.75088 0.96222 0.0
loop_
_geom_bond_atom_site_label_1
_geom_bond_atom_site_label_2
_geom_bond_distance
_geom_bond_site_symmetry_2
_ccdc_geom_bond_type
C0 C1 1.264 . S
C0 C5 1.479 . S
C0 C10 1.465 . S
C1 C0 1.264 . S
C1 C3 1.339 . S
C1 H28 0.931 . S
C2 C3 1.395 . S
C2 C4 1.320 . S
C3 C1 1.339 . S
C3 C2 1.395 . S
C3 H29 0.929 . S
C4 C2 1.320 . S
C4 C5 1.405 . S
C4 H30 0.930 . S
C5 C0 1.479 . S
C5 C4 1.405 . S
C5 H31 0.931 . S
U6 O7 2.454 . S
U6 O8 2.458 . S
U6 C9 2.984 . S
U6 C10 2.847 . S
U6 C23 2.882 . S
U6 O24 2.441 . S
U6 O25 2.420 . S
U6 O26 2.455 . S
U6 O27 2.449 . S
O7 U6 2.454 . S
O7 C9 1.353 . S
O8 U6 2.458 . S
O8 C9 1.286 . S
C9 U6 2.984 . S
C9 O7 1.353 . S
C9 O8 1.286 . S
C9 C11 1.363 . S
C10 C0 1.465 . S
C10 U6 2.847 . S
C10 O24 1.249 . S
C10 O25 1.202 . S
C11 C9 1.363 . S
C11 C13 1.408 . S
C11 C16 1.342 . S
C12 C13 1.310 . S
C12 C15 1.461 . S
C12 H32 0.932 . S
C13 C11 1.408 . S
C13 C12 1.310 . S
C13 H33 0.930 . S
C14 C15 1.474 . S
C14 C16 1.285 . S
C14 H34 0.929 . S
C15 C12 1.461 . S
C15 C14 1.474 . S
C16 C11 1.342 . S
C16 C14 1.285 . S
C16 H35 0.930 . S
C17 C20 1.424 . S
C17 C22 1.245 . S
C17 C23 1.428 . S
C18 C21 1.260 . S
C18 C22 1.477 . S
C18 H36 0.932 . S
C19 C20 1.384 . S
C19 C21 1.479 . S
C19 H37 0.929 . S
C20 C17 1.424 . S
C20 C19 1.384 . S
C20 H38 0.928 . S
C21 C18 1.260 . S
C21 C19 1.479 . S
C22 C17 1.245 . S
C22 C18 1.477 . S
C22 H39 0.932 . S
C23 U6 2.882 . S
C23 C17 1.428 . S
C23 O26 1.301 . S
C23 O27 1.282 . S
O24 U6 2.441 . S
O24 C10 1.249 . S
O25 U6 2.420 . S
O25 C10 1.202 . S
O26 U6 2.455 . S
O26 C23 1.301 . S
O27 U6 2.449 . S
O27 C23 1.282 . S
H28 C1 0.931 . S
H29 C3 0.929 . S
H30 C4 0.930 . S
H31 C5 0.931 . S
H32 C12 0.932 . S
H33 C13 0.930 . S
H34 C14 0.929 . S
H35 C16 0.930 . S
H36 C18 0.932 . S
H37 C19 0.929 . S
H38 C20 0.928 . S
H39 C22 0.932 . S
C40 C41 1.264 . S
C40 C45 1.479 . S
C40 C50 1.465 . S
C41 C40 1.264 . S
C41 C43 1.339 . S
C41 H68 0.931 . S
C42 C43 1.395 . S
C42 C44 1.320 . S
C43 C41 1.339 . S
C43 C42 1.395 . S
C43 H69 0.929 . S
C44 C42 1.320 . S
C44 C45 1.405 . S
C44 H70 0.930 . S
C45 C40 1.479 . S
C45 C44 1.405 . S
C45 H71 0.931 . S
U46 O47 2.454 . S
U46 O48 2.458 . S
U46 C49 2.984 . S
U46 C50 2.847 . S
U46 C63 2.882 . S
U46 O64 2.441 . S
U46 O65 2.420 . S
U46 O66 2.455 . S
U46 O67 2.449 . S
O47 U46 2.454 . S
O47 C49 1.353 . S
O48 U46 2.458 . S
O48 C49 1.286 . S
C49 U46 2.984 . S
C49 O47 1.353 . S
C49 O48 1.286 . S
C49 C51 1.363 . S
C50 C40 1.465 . S
C50 U46 2.847 . S
C50 O64 1.249 . S
C50 O65 1.202 . S
C51 C49 1.363 . S
C51 C53 1.408 . S
C51 C56 1.342 . S
C52 C53 1.310 . S
C52 C55 1.461 . S
C52 H72 0.932 . S
C53 C51 1.408 . S
C53 C52 1.310 . S
C53 H73 0.930 . S
C54 C55 1.474 . S
C54 C56 1.285 . S
C54 H74 0.929 . S
C55 C52 1.461 . S
C55 C54 1.474 . S
C56 C51 1.342 . S
C56 C54 1.285 . S
C56 H75 0.930 . S
C57 C60 1.424 . S
C57 C62 1.245 . S
C57 C63 1.428 . S
C58 C61 1.260 . S
C58 C62 1.477 . S
C58 H76 0.932 . S
C59 C60 1.384 . S
C59 C61 1.479 . S
C59 H77 0.929 . S
C60 C57 1.424 . S
C60 C59 1.384 . S
C60 H78 0.928 . S
C61 C58 1.260 . S
C61 C59 1.479 . S
C62 C57 1.245 . S
C62 C58 1.477 . S
C62 H79 0.932 . S
C63 U46 2.882 . S
C63 C57 1.428 . S
C63 O66 1.301 . S
C63 O67 1.282 . S
O64 U46 2.441 . S
O64 C50 1.249 . S
O65 U46 2.420 . S
O65 C50 1.202 . S
O66 U46 2.455 . S
O66 C63 1.301 . S
O67 U46 2.449 . S
O67 C63 1.282 . S
H68 C41 0.931 . S
H69 C43 0.929 . S
H70 C44 0.930 . S
H71 C45 0.931 . S
H72 C52 0.932 . S
H73 C53 0.930 . S
H74 C54 0.929 . S
H75 C56 0.930 . S
H76 C58 0.932 . S
H77 C59 0.929 . S
H78 C60 0.928 . S
H79 C62 0.932 . S
C80 C81 1.264 . S
C80 C85 1.479 . S
C80 C90 1.465 . S
C81 C80 1.264 . S
C81 C83 1.339 . S
C81 H108 0.931 . S
C82 C83 1.395 . S
C82 C84 1.320 . S
C83 C81 1.339 . S
C83 C82 1.395 . S
C83 H109 0.929 . S
C84 C82 1.320 . S
C84 C85 1.405 . S
C84 H110 0.930 . S
C85 C80 1.479 . S
C85 C84 1.405 . S
C85 H111 0.931 . S
U86 O87 2.454 . S
U86 O88 2.458 . S
U86 C89 2.984 . S
U86 C90 2.847 . S
U86 C103 2.882 . S
U86 O104 2.441 . S
U86 O105 2.420 . S
U86 O106 2.455 . S
U86 O107 2.449 . S
O87 U86 2.454 . S
O87 C89 1.353 . S
O88 U86 2.458 . S
O88 C89 1.286 . S
C89 U86 2.984 . S
C89 O87 1.353 . S
C89 O88 1.286 . S
C89 C91 1.363 . S
C90 C80 1.465 . S
C90 U86 2.847 . S
C90 O104 1.249 . S
C90 O105 1.202 . S
C91 C89 1.363 . S
C91 C93 1.408 . S
C91 C96 1.342 . S
C92 C93 1.310 . S
C92 C95 1.461 . S
C92 H112 0.932 . S
C93 C91 1.408 . S
C93 C92 1.310 . S
C93 H113 0.930 . S
C94 C95 1.474 . S
C94 C96 1.285 . S
C94 H114 0.929 . S
C95 C92 1.461 . S
C95 C94 1.474 . S
C96 C91 1.342 . S
C96 C94 1.285 . S
C96 H115 0.930 . S
C97 C100 1.424 . S
C97 C102 1.245 . S
C97 C103 1.428 . S
C98 C101 1.260 . S
C98 C102 1.477 . S
C98 H116 0.932 . S
C99 C100 1.384 . S
C99 C101 1.479 . S
C99 H117 0.929 . S
C100 C97 1.424 . S
C100 C99 1.384 . S
C100 H118 0.928 . S
C101 C98 1.260 . S
C101 C99 1.479 . S
C102 C97 1.245 . S
C102 C98 1.477 . S
C102 H119 0.932 . S
C103 U86 2.882 . S
C103 C97 1.428 . S
C103 O106 1.301 . S
C103 O107 1.282 . S
O104 U86 2.441 . S
O104 C90 1.249 . S
O105 U86 2.420 . S
O105 C90 1.202 . S
O106 U86 2.455 . S
O106 C103 1.301 . S
O107 U86 2.449 . S
O107 C103 1.282 . S
H108 C81 0.931 . S
H109 C83 0.929 . S
H110 C84 0.930 . S
H111 C85 0.931 . S
H112 C92 0.932 . S
H113 C93 0.930 . S
H114 C94 0.929 . S
H115 C96 0.930 . S
H116 C98 0.932 . S
H117 C99 0.929 . S
H118 C100 0.928 . S
H119 C102 0.932 . S
C120 C121 1.264 . S
C120 C125 1.479 . S
C120 C130 1.465 . S
C121 C120 1.264 . S
C121 C123 1.339 . S
C121 H148 0.931 . S
C122 C123 1.395 . S
C122 C124 1.320 . S
C123 C121 1.339 . S
C123 C122 1.395 . S
C123 H149 0.929 . S
C124 C122 1.320 . S
C124 C125 1.405 . S
C124 H150 0.930 . S
C125 C120 1.479 . S
C125 C124 1.405 . S
C125 H151 0.931 . S
U126 O127 2.454 . S
U126 O128 2.458 . S
U126 C129 2.984 . S
U126 C130 2.847 . S
U126 C143 2.882 . S
U126 O144 2.441 . S
U126 O145 2.420 . S
U126 O146 2.455 . S
U126 O147 2.449 . S
O127 U126 2.454 . S
O127 C129 1.353 . S
O128 U126 2.458 . S
O128 C129 1.286 . S
C129 U126 2.984 . S
C129 O127 1.353 . S
C129 O128 1.286 . S
C129 C131 1.363 . S
C130 C120 1.465 . S
C130 U126 2.847 . S
C130 O144 1.249 . S
C130 O145 1.202 . S
C131 C129 1.363 . S
C131 C133 1.408 . S
C131 C136 1.342 . S
C132 C133 1.310 . S
C132 C135 1.461 . S
C132 H152 0.932 . S
C133 C131 1.408 . S
C133 C132 1.310 . S
C133 H153 0.930 . S
C134 C135 1.474 . S
C134 C136 1.285 . S
C134 H154 0.929 . S
C135 C132 1.461 . S
C135 C134 1.474 . S
C136 C131 1.342 . S
C136 C134 1.285 . S
C136 H155 0.930 . S
C137 C140 1.424 . S
C137 C142 1.245 . S
C137 C143 1.428 . S
C138 C141 1.260 . S
C138 C142 1.477 . S
C138 H156 0.932 . S
C139 C140 1.384 . S
C139 C141 1.479 . S
C139 H157 0.929 . S
C140 C137 1.424 . S
C140 C139 1.384 . S
C140 H158 0.928 . S
C141 C138 1.260 . S
C141 C139 1.479 . S
C142 C137 1.245 . S
C142 C138 1.477 . S
C142 H159 0.932 . S
C143 U126 2.882 . S
C143 C137 1.428 . S
C143 O146 1.301 . S
C143 O147 1.282 . S
O144 U126 2.441 . S
O144 C130 1.249 . S
O145 U126 2.420 . S
O145 C130 1.202 . S
O146 U126 2.455 . S
O146 C143 1.301 . S
O147 U126 2.449 . S
O147 C143 1.282 . S
H148 C121 0.931 . S
H149 C123 0.929 . S
H150 C124 0.930 . S
H151 C125 0.931 . S
H152 C132 0.932 . S
H153 C133 0.930 . S
H154 C134 0.929 . S
H155 C136 0.930 . S
H156 C138 0.932 . S
H157 C139 0.929 . S
H158 C140 0.928 . S
H159 C142 0.932 . S
C160 C161 1.264 . S
C160 C165 1.479 . S
C160 C170 1.465 . S
C161 C160 1.264 . S
C161 C163 1.339 . S
C161 H188 0.931 . S
C162 C163 1.395 . S
C162 C164 1.320 . S
C163 C161 1.339 . S
C163 C162 1.395 . S
C163 H189 0.929 . S
C164 C162 1.320 . S
C164 C165 1.405 . S
C164 H190 0.930 . S
C165 C160 1.479 . S
C165 C164 1.405 . S
C165 H191 0.931 . S
U166 O167 2.454 . S
U166 O168 2.458 . S
U166 C169 2.984 . S
U166 C170 2.847 . S
U166 C183 2.882 . S
U166 O184 2.441 . S
U166 O185 2.420 . S
U166 O186 2.455 . S
U166 O187 2.449 . S
O167 U166 2.454 . S
O167 C169 1.353 . S
O168 U166 2.458 . S
O168 C169 1.286 . S
C169 U166 2.984 . S
C169 O167 1.353 . S
C169 O168 1.286 . S
C169 C171 1.363 . S
C170 C160 1.465 . S
C170 U166 2.847 . S
C170 O184 1.249 . S
C170 O185 1.202 . S
C171 C169 1.363 . S
C171 C173 1.408 . S
C171 C176 1.342 . S
C172 C173 1.310 . S
C172 C175 1.461 . S
C172 H192 0.932 . S
C173 C171 1.408 . S
C173 C172 1.310 . S
C173 H193 0.930 . S
C174 C175 1.474 . S
C174 C176 1.285 . S
C174 H194 0.929 . S
C175 C172 1.461 . S
C175 C174 1.474 . S
C176 C171 1.342 . S
C176 C174 1.285 . S
C176 H195 0.930 . S
C177 C180 1.424 . S
C177 C182 1.245 . S
C177 C183 1.428 . S
C178 C181 1.260 . S
C178 C182 1.477 . S
C178 H196 0.932 . S
C179 C180 1.384 . S
C179 C181 1.479 . S
C179 H197 0.929 . S
C180 C177 1.424 . S
C180 C179 1.384 . S
C180 H198 0.928 . S
C181 C178 1.260 . S
C181 C179 1.479 . S
C182 C177 1.245 . S
C182 C178 1.477 . S
C182 H199 0.932 . S
C183 U166 2.882 . S
C183 C177 1.428 . S
C183 O186 1.301 . S
C183 O187 1.282 . S
O184 U166 2.441 . S
O184 C170 1.249 . S
O185 U166 2.420 . S
O185 C170 1.202 . S
O186 U166 2.455 . S
O186 C183 1.301 . S
O187 U166 2.449 . S
O187 C183 1.282 . S
H188 C161 0.931 . S
H189 C163 0.929 . S
H190 C164 0.930 . S
H191 C165 0.931 . S
H192 C172 0.932 . S
H193 C173 0.930 . S
H194 C174 0.929 . S
H195 C176 0.930 . S
H196 C178 0.932 . S
H197 C179 0.929 . S
H198 C180 0.928 . S
H199 C182 0.932 . S
C200 C201 1.264 . S
C200 C205 1.479 . S
C200 C210 1.465 . S
C201 C200 1.264 . S
C201 C203 1.339 . S
C201 H228 0.931 . S
C202 C203 1.395 . S
C202 C204 1.320 . S
C203 C201 1.339 . S
C203 C202 1.395 . S
C203 H229 0.929 . S
C204 C202 1.320 . S
C204 C205 1.405 . S
C204 H230 0.930 . S
C205 C200 1.479 . S
C205 C204 1.405 . S
C205 H231 0.931 . S
U206 O207 2.454 . S
U206 O208 2.458 . S
U206 C209 2.984 . S
U206 C210 2.847 . S
U206 C223 2.882 . S
U206 O224 2.441 . S
U206 O225 2.420 . S
U206 O226 2.455 . S
U206 O227 2.449 . S
O207 U206 2.454 . S
O207 C209 1.353 . S
O208 U206 2.458 . S
O208 C209 1.286 . S
C209 U206 2.984 . S
C209 O207 1.353 . S
C209 O208 1.286 . S
C209 C211 1.363 . S
C210 C200 1.465 . S
C210 U206 2.847 . S
C210 O224 1.249 . S
C210 O225 1.202 . S
C211 C209 1.363 . S
C211 C213 1.408 . S
C211 C216 1.342 . S
C212 C213 1.310 . S
C212 C215 1.461 . S
C212 H232 0.932 . S
C213 C211 1.408 . S
C213 C212 1.310 . S
C213 H233 0.930 . S
C214 C215 1.474 . S
C214 C216 1.285 . S
C214 H234 0.929 . S
C215 C212 1.461 . S
C215 C214 1.474 . S
C216 C211 1.342 . S
C216 C214 1.285 . S
C216 H235 0.930 . S
C217 C220 1.424 . S
C217 C222 1.245 . S
C217 C223 1.428 . S
C218 C221 1.260 . S
C218 C222 1.477 . S
C218 H236 0.932 . S
C219 C220 1.384 . S
C219 C221 1.479 . S
C219 H237 0.929 . S
C220 C217 1.424 . S
C220 C219 1.384 . S
C220 H238 0.928 . S
C221 C218 1.260 . S
C221 C219 1.479 . S
C222 C217 1.245 . S
C222 C218 1.477 . S
C222 H239 0.932 . S
C223 U206 2.882 . S
C223 C217 1.428 . S
C223 O226 1.301 . S
C223 O227 1.282 . S
O224 U206 2.441 . S
O224 C210 1.249 . S
O225 U206 2.420 . S
O225 C210 1.202 . S
O226 U206 2.455 . S
O226 C223 1.301 . S
O227 U206 2.449 . S
O227 C223 1.282 . S
H228 C201 0.931 . S
H229 C203 0.929 . S
H230 C204 0.930 . S
H231 C205 0.931 . S
H232 C212 0.932 . S
H233 C213 0.930 . S
H234 C214 0.929 . S
H235 C216 0.930 . S
H236 C218 0.932 . S
H237 C219 0.929 . S
H238 C220 0.928 . S
H239 C222 0.932 . S
C240 C241 1.264 . S
C240 C245 1.479 . S
C240 C250 1.465 . S
C241 C240 1.264 . S
C241 C243 1.339 . S
C241 H268 0.931 . S
C242 C243 1.395 . S
C242 C244 1.320 . S
C243 C241 1.339 . S
C243 C242 1.395 . S
C243 H269 0.929 . S
C244 C242 1.320 . S
C244 C245 1.405 . S
C244 H270 0.930 . S
C245 C240 1.479 . S
C245 C244 1.405 . S
C245 H271 0.931 . S
U246 O247 2.454 . S
U246 O248 2.458 . S
U246 C249 2.984 . S
U246 C250 2.847 . S
U246 C263 2.882 . S
U246 O264 2.441 . S
U246 O265 2.420 . S
U246 O266 2.455 . S
U246 O267 2.449 . S
O247 U246 2.454 . S
O247 C249 1.353 . S
O248 U246 2.458 . S
O248 C249 1.286 . S
C249 U246 2.984 . S
C249 O247 1.353 . S
C249 O248 1.286 . S
C249 C251 1.363 . S
C250 C240 1.465 . S
C250 U246 2.847 . S
C250 O264 1.249 . S
C250 O265 1.202 . S
C251 C249 1.363 . S
C251 C253 1.408 . S
C251 C256 1.342 . S
C252 C253 1.310 . S
C252 C255 1.461 . S
C252 H272 0.932 . S
C253 C251 1.408 . S
C253 C252 1.310 . S
C253 H273 0.930 . S
C254 C255 1.474 . S
C254 C256 1.285 . S
C254 H274 0.929 . S
C255 C252 1.461 . S
C255 C254 1.474 . S
C256 C251 1.342 . S
C256 C254 1.285 . S
C256 H275 0.930 . S
C257 C260 1.424 . S
C257 C262 1.245 . S
C257 C263 1.428 . S
C258 C261 1.260 . S
C258 C262 1.477 . S
C258 H276 0.932 . S
C259 C260 1.384 . S
C259 C261 1.479 . S
C259 H277 0.929 . S
C260 C257 1.424 . S
C260 C259 1.384 . S
C260 H278 0.928 . S
C261 C258 1.260 . S
C261 C259 1.479 . S
C262 C257 1.245 . S
C262 C258 1.477 . S
C262 H279 0.932 . S
C263 U246 2.882 . S
C263 C257 1.428 . S
C263 O266 1.301 . S
C263 O267 1.282 . S
O264 U246 2.441 . S
O264 C250 1.249 . S
O265 U246 2.420 . S
O265 C250 1.202 . S
O266 U246 2.455 . S
O266 C263 1.301 . S
O267 U246 2.449 . S
O267 C263 1.282 . S
H268 C241 0.931 . S
H269 C243 0.929 . S
H270 C244 0.930 . S
H271 C245 0.931 . S
H272 C252 0.932 . S
H273 C253 0.930 . S
H274 C254 0.929 . S
H275 C256 0.930 . S
H276 C258 0.932 . S
H277 C259 0.929 . S
H278 C260 0.928 . S
H279 C262 0.932 . S
C280 C281 1.264 . S
C280 C285 1.479 . S
C280 C290 1.465 . S
C281 C280 1.264 . S
C281 C283 1.339 . S
C281 H308 0.931 . S
C282 C283 1.395 . S
C282 C284 1.320 . S
C283 C281 1.339 . S
C283 C282 1.395 . S
C283 H309 0.929 . S
C284 C282 1.320 . S
C284 C285 1.405 . S
C284 H310 0.930 . S
C285 C280 1.479 . S
C285 C284 1.405 . S
C285 H311 0.931 . S
U286 O287 2.454 . S
U286 O288 2.458 . S
U286 C289 2.984 . S
U286 C290 2.847 . S
U286 C303 2.882 . S
U286 O304 2.441 . S
U286 O305 2.420 . S
U286 O306 2.455 . S
U286 O307 2.449 . S
O287 U286 2.454 . S
O287 C289 1.353 . S
O288 U286 2.458 . S
O288 C289 1.286 . S
C289 U286 2.984 . S
C289 O287 1.353 . S
C289 O288 1.286 . S
C289 C291 1.363 . S
C290 C280 1.465 . S
C290 U286 2.847 . S
C290 O304 1.249 . S
C290 O305 1.202 . S
C291 C289 1.363 . S
C291 C293 1.408 . S
C291 C296 1.342 . S
C292 C293 1.310 . S
C292 C295 1.461 . S
C292 H312 0.932 . S
C293 C291 1.408 . S
C293 C292 1.310 . S
C293 H313 0.930 . S
C294 C295 1.474 . S
C294 C296 1.285 . S
C294 H314 0.929 . S
C295 C292 1.461 . S
C295 C294 1.474 . S
C296 C291 1.342 . S
C296 C294 1.285 . S
C296 H315 0.930 . S
C297 C300 1.424 . S
C297 C302 1.245 . S
C297 C303 1.428 . S
C298 C301 1.260 . S
C298 C302 1.477 . S
C298 H316 0.932 . S
C299 C300 1.384 . S
C299 C301 1.479 . S
C299 H317 0.929 . S
C300 C297 1.424 . S
C300 C299 1.384 . S
C300 H318 0.928 . S
C301 C298 1.260 . S
C301 C299 1.479 . S
C302 C297 1.245 . S
C302 C298 1.477 . S
C302 H319 0.932 . S
C303 U286 2.882 . S
C303 C297 1.428 . S
C303 O306 1.301 . S
C303 O307 1.282 . S
O304 U286 2.441 . S
O304 C290 1.249 . S
O305 U286 2.420 . S
O305 C290 1.202 . S
O306 U286 2.455 . S
O306 C303 1.301 . S
O307 U286 2.449 . S
O307 C303 1.282 . S
H308 C281 0.931 . S
H309 C283 0.929 . S
H310 C284 0.930 . S
H311 C285 0.931 . S
H312 C292 0.932 . S
H313 C293 0.930 . S
H314 C294 0.929 . S
H315 C296 0.930 . S
H316 C298 0.932 . S
H317 C299 0.929 . S
H318 C300 0.928 . S
H319 C302 0.932 . S
C320 O322 1.247 . S
C320 O324 1.258 . S
C321 O328 1.247 . S
C321 O329 1.258 . S
O322 C320 1.247 . S
O322 Zn323 2.028 1_655 S
Zn323 O322 2.028 1_455 S
Zn323 O327 2.035 . S
Zn323 O329 2.035 . S
Zn323 O330 2.028 1_455 S
O324 C320 1.258 . S
O324 Zn325 2.035 1_655 S
Zn325 O324 2.035 1_455 S
Zn325 O326 2.028 . S
Zn325 O328 2.028 . S
Zn325 O331 2.035 1_455 S
O326 Zn325 2.028 . S
O326 C332 1.247 . S
O327 Zn323 2.035 . S
O327 C332 1.258 . S
O328 C321 1.247 . S
O328 Zn325 2.028 . S
O329 C321 1.258 . S
O329 Zn323 2.035 . S
O330 Zn323 2.028 1_655 S
O330 C333 1.247 . S
O331 Zn325 2.035 1_655 S
O331 C333 1.258 . S
C332 O326 1.247 . S
C332 O327 1.258 . S
C333 O330 1.247 . S
C333 O331 1.258 . S
C334 O336 1.247 . S
C334 O338 1.258 . S
C335 O342 1.247 . S
C335 O343 1.258 . S
O336 C334 1.247 . S
O336 Zn337 2.028 1_655 S
Zn337 O336 2.028 1_455 S
Zn337 O341 2.035 . S
Zn337 O343 2.035 . S
Zn337 O344 2.028 1_455 S
O338 C334 1.258 . S
O338 Zn339 2.035 1_655 S
Zn339 O338 2.035 1_455 S
Zn339 O340 2.028 . S
Zn339 O342 2.028 . S
Zn339 O345 2.035 1_455 S
O340 Zn339 2.028 . S
O340 C346 1.247 . S
O341 Zn337 2.035 . S
O341 C346 1.258 . S
O342 C335 1.247 . S
O342 Zn339 2.028 . S
O343 C335 1.258 . S
O343 Zn337 2.035 . S
O344 Zn337 2.028 1_655 S
O344 C347 1.247 . S
O345 Zn339 2.035 1_655 S
O345 C347 1.258 . S
C346 O340 1.247 . S
C346 O341 1.258 . S
C347 O344 1.247 . S
C347 O345 1.258 . S
C348 O350 1.247 . S
C348 O352 1.258 . S
C349 O356 1.247 . S
C349 O357 1.258 . S
O350 C348 1.247 . S
O350 Zn351 2.028 1_565 S
Zn351 O350 2.028 1_545 S
Zn351 O355 2.035 . S
Zn351 O357 2.035 . S
Zn351 O358 2.028 1_545 S
O352 C348 1.258 . S
O352 Zn353 2.035 1_565 S
Zn353 O352 2.035 1_545 S
Zn353 O354 2.028 . S
Zn353 O356 2.028 . S
Zn353 O359 2.035 1_545 S
O354 Zn353 2.028 . S
O354 C360 1.247 . S
O355 Zn351 2.035 . S
O355 C360 1.258 . S
O356 C349 1.247 . S
O356 Zn353 2.028 . S
O357 C349 1.258 . S
O357 Zn351 2.035 . S
O358 Zn351 2.028 1_565 S
O358 C361 1.247 . S
O359 Zn353 2.035 1_565 S
O359 C361 1.258 . S
C360 O354 1.247 . S
C360 O355 1.258 . S
C361 O358 1.247 . S
C361 O359 1.258 . S
C362 O364 1.247 . S
C362 O366 1.258 . S
C363 O370 1.247 . S
C363 O371 1.258 . S
O364 C362 1.247 . S
O364 Zn365 2.028 . S
Zn365 O364 2.028 . S
Zn365 O369 2.035 . S
Zn365 O371 2.035 1_554 S
Zn365 O372 2.028 1_554 S
O366 C362 1.258 . S
O366 Zn367 2.035 . S
Zn367 O366 2.035 . S
Zn367 O368 2.028 . S
Zn367 O370 2.028 1_554 S
Zn367 O373 2.035 1_554 S
O368 Zn367 2.028 . S
O368 C374 1.247 . S
O369 Zn365 2.035 . S
O369 C374 1.258 . S
O370 C363 1.247 . S
O370 Zn367 2.028 1_556 S
O371 C363 1.258 . S
O371 Zn365 2.035 1_556 S
O372 Zn365 2.028 1_556 S
O372 C375 1.247 . S
O373 Zn367 2.035 1_556 S
O373 C375 1.258 . S
C374 O368 1.247 . S
C374 O369 1.258 . S
C375 O372 1.247 . S
C375 O373 1.258 . S
C376 O378 1.247 . S
C376 O380 1.258 . S
C377 O384 1.247 . S
C377 O385 1.258 . S
O378 C376 1.247 . S
O378 Zn379 2.026 . S
Zn379 O378 2.026 . S
Zn379 O383 2.037 1_565 S
Zn379 O385 2.037 1_565 S
Zn379 O386 2.026 . S
O380 C376 1.258 . S
O380 Zn381 2.010 1_565 S
Zn381 O380 2.010 1_545 S
Zn381 O382 2.053 . S
Zn381 O384 2.053 . S
Zn381 O387 2.010 1_545 S
O382 Zn381 2.053 . S
O382 C388 1.247 . S
O383 Zn379 2.037 1_545 S
O383 C388 1.258 . S
O384 C377 1.247 . S
O384 Zn381 2.053 . S
O385 C377 1.258 . S
O385 Zn379 2.037 1_545 S
O386 Zn379 2.026 . S
O386 C389 1.247 . S
O387 Zn381 2.010 1_565 S
O387 C389 1.258 . S
C388 O382 1.247 . S
C388 O383 1.258 . S
C389 O386 1.247 . S
C389 O387 1.258 . S
C390 O392 1.247 . S
C390 O394 1.258 . S
C391 O398 1.247 . S
C391 O399 1.258 . S
O392 C390 1.247 . S
O392 Zn393 2.028 . S
Zn393 O392 2.028 . S
Zn393 O397 2.035 . S
Zn393 O399 2.035 1_554 S
Zn393 O400 2.028 1_554 S
O394 C390 1.258 . S
O394 Zn395 2.055 . S
Zn395 O394 2.055 . S
Zn395 O396 2.048 . S
Zn395 O398 2.008 1_554 S
Zn395 O401 2.015 1_554 S
O396 Zn395 2.048 . S
O396 C402 1.247 . S
O397 Zn393 2.035 . S
O397 C402 1.258 . S
O398 C391 1.247 . S
O398 Zn395 2.008 1_556 S
O399 C391 1.258 . S
O399 Zn393 2.035 1_556 S
O400 Zn393 2.028 1_556 S
O400 C403 1.247 . S
O401 Zn395 2.015 1_556 S
O401 C403 1.258 . S
C402 O396 1.247 . S
C402 O397 1.258 . S
C403 O400 1.247 . S
C403 O401 1.258 . S
H404 C412 0.950 . S
H405 C417 0.950 . S
H406 C414 0.950 . S
H407 C416 0.950 . S
H408 C418 0.950 . S
H409 C420 0.950 . S
H410 C422 0.950 . S
H411 C423 0.950 . S
C412 H404 0.950 . S
C412 C413 1.386 . S
C412 C414 1.391 . S
C413 C412 1.386 . S
C413 C417 1.393 . S
C414 H406 0.950 . S
C414 C412 1.391 . S
C414 C415 1.400 . S
C415 C414 1.400 . S
C415 C416 1.398 . S
C415 C421 1.491 . S
C416 H407 0.950 . S
C416 C415 1.398 . S
C416 C417 1.391 . S
C417 H405 0.950 . S
C417 C413 1.393 . S
C417 C416 1.391 . S
C418 H408 0.950 . S
C418 C419 1.386 . S
C418 C420 1.391 . S
C419 C418 1.386 . S
C419 C423 1.393 . S
C420 H409 0.950 . S
C420 C418 1.391 . S
C420 C421 1.400 . S
C421 C415 1.491 . S
C421 C420 1.400 . S
C421 C422 1.398 . S
C422 H410 0.950 . S
C422 C421 1.398 . S
C422 C423 1.391 . S
C423 H411 0.950 . S
C423 C419 1.393 . S
C423 C422 1.391 . S
H424 C432 0.950 . S
H425 C437 0.950 . S
H426 C434 0.950 . S
H427 C436 0.950 . S
H428 C438 0.950 . S
H429 C440 0.950 . S
H430 C442 0.950 . S
H431 C443 0.950 . S
C432 H424 0.950 . S
C432 C433 1.386 . S
C432 C434 1.391 . S
C433 C432 1.386 . S
C433 C437 1.393 . S
C434 H426 0.950 . S
C434 C432 1.391 . S
C434 C435 1.400 . S
C435 C434 1.400 . S
C435 C436 1.398 . S
C435 C441 1.491 . S
C436 H427 0.950 . S
C436 C435 1.398 . S
C436 C437 1.391 . S
C437 H425 0.950 . S
C437 C433 1.393 . S
C437 C436 1.391 . S
C438 H428 0.950 . S
C438 C439 1.386 . S
C438 C440 1.391 . S
C439 C438 1.386 . S
C439 C443 1.393 . S
C440 H429 0.950 . S
C440 C438 1.391 . S
C440 C441 1.400 . S
C441 C435 1.491 . S
C441 C440 1.400 . S
C441 C442 1.398 . S
C442 H430 0.950 . S
C442 C441 1.398 . S
C442 C443 1.391 . S
C443 H431 0.950 . S
C443 C439 1.393 . S
C443 C442 1.391 . S
H444 C452 0.950 . S
H445 C457 0.950 . S
H446 C454 0.950 . S
H447 C456 0.950 . S
H448 C458 0.950 . S
H449 C460 0.950 . S
H450 C462 0.950 . S
H451 C463 0.950 . S
C452 H444 0.950 . S
C452 C453 1.386 . S
C452 C454 1.391 . S
C453 C452 1.386 . S
C453 C457 1.393 . S
C454 H446 0.950 . S
C454 C452 1.391 . S
C454 C455 1.400 . S
C455 C454 1.400 . S
C455 C456 1.398 . S
C455 C461 1.491 . S
C456 H447 0.950 . S
C456 C455 1.398 . S
C456 C457 1.391 . S
C457 H445 0.950 . S
C457 C453 1.393 . S
C457 C456 1.391 . S
C458 H448 0.950 . S
C458 C459 1.386 . S
C458 C460 1.391 . S
C459 C458 1.386 . S
C459 C463 1.393 . S
C460 H449 0.950 . S
C460 C458 1.391 . S
C460 C461 1.400 . S
C461 C455 1.491 . S
C461 C460 1.400 . S
C461 C462 1.398 . S
C462 H450 0.950 . S
C462 C461 1.398 . S
C462 C463 1.391 . S
C463 H451 0.950 . S
C463 C459 1.393 . S
C463 C462 1.391 . S
H464 C472 0.950 . S
H465 C477 0.950 . S
H466 C474 0.950 . S
H467 C476 0.950 . S
H468 C478 0.950 . S
H469 C480 0.950 . S
H470 C482 0.950 . S
H471 C483 0.950 . S
C472 H464 0.950 . S
C472 C473 1.386 . S
C472 C474 1.391 . S
C473 C472 1.386 . S
C473 C477 1.393 . S
C474 H466 0.950 . S
C474 C472 1.391 . S
C474 C475 1.400 . S
C475 C474 1.400 . S
C475 C476 1.398 . S
C475 C481 1.491 . S
C476 H467 0.950 . S
C476 C475 1.398 . S
C476 C477 1.391 . S
C477 H465 0.950 . S
C477 C473 1.393 . S
C477 C476 1.391 . S
C478 H468 0.950 . S
C478 C479 1.386 . S
C478 C480 1.391 . S
C479 C478 1.386 . S
C479 C483 1.393 . S
C480 H469 0.950 . S
C480 C478 1.391 . S
C480 C481 1.400 . S
C481 C475 1.491 . S
C481 C480 1.400 . S
C481 C482 1.398 . S
C482 H470 0.950 . S
C482 C481 1.398 . S
C482 C483 1.391 . S
C483 H471 0.950 . S
C483 C479 1.393 . S
C483 C482 1.391 . S
H484 C492 0.950 . S
H485 C497 0.950 . S
H486 C494 0.950 . S
H487 C496 0.950 . S
H488 C498 0.950 . S
H489 C500 0.950 . S
H490 C502 0.950 . S
H491 C503 0.950 . S
C492 H484 0.950 . S
C492 C493 1.386 . S
C492 C494 1.391 . S
C493 C492 1.386 . S
C493 C497 1.393 . S
C494 H486 0.950 . S
C494 C492 1.391 . S
C494 C495 1.400 . S
C495 C494 1.400 . S
C495 C496 1.398 . S
C495 C501 1.491 . S
C496 H487 0.950 . S
C496 C495 1.398 . S
C496 C497 1.391 . S
C497 H485 0.950 . S
C497 C493 1.393 . S
C497 C496 1.391 . S
C498 H488 0.950 . S
C498 C499 1.386 . S
C498 C500 1.391 . S
C499 C498 1.386 . S
C499 C503 1.393 . S
C500 H489 0.950 . S
C500 C498 1.391 . S
C500 C501 1.400 . S
C501 C495 1.491 . S
C501 C500 1.400 . S
C501 C502 1.398 . S
C502 H490 0.950 . S
C502 C501 1.398 . S
C502 C503 1.391 . S
C503 H491 0.950 . S
C503 C499 1.393 . S
C503 C502 1.391 . S
H504 C512 0.950 . S
H505 C517 0.950 . S
H506 C514 0.950 . S
H507 C516 0.950 . S
H508 C518 0.950 . S
H509 C520 0.950 . S
H510 C522 0.950 . S
H511 C523 0.950 . S
C512 H504 0.950 . S
C512 C513 1.386 . S
C512 C514 1.391 . S
C513 C512 1.386 . S
C513 C517 1.393 . S
C514 H506 0.950 . S
C514 C512 1.391 . S
C514 C515 1.400 . S
C515 C514 1.400 . S
C515 C516 1.398 . S
C515 C521 1.491 . S
C516 H507 0.950 . S
C516 C515 1.398 . S
C516 C517 1.391 . S
C517 H505 0.950 . S
C517 C513 1.393 . S
C517 C516 1.391 . S
C518 H508 0.950 . S
C518 C519 1.386 . S
C518 C520 1.391 . S
C519 C518 1.386 . S
C519 C523 1.393 . S
C520 H509 0.950 . S
C520 C518 1.391 . S
C520 C521 1.400 . S
C521 C515 1.491 . S
C521 C520 1.400 . S
C521 C522 1.398 . S
C522 H510 0.950 . S
C522 C521 1.398 . S
C522 C523 1.391 . S
C523 H511 0.950 . S
C523 C519 1.393 . S
C523 C522 1.391 . S
H524 C532 0.950 . S
H525 C537 0.950 . S
H526 C534 0.950 . S
H527 C536 0.950 . S
H528 C538 0.950 . S
H529 C540 0.950 . S
H530 C542 0.950 . S
H531 C543 0.950 . S
C532 H524 0.950 . S
C532 C533 1.386 . S
C532 C534 1.391 . S
C533 C532 1.386 . S
C533 C537 1.393 . S
C534 H526 0.950 . S
C534 C532 1.391 . S
C534 C535 1.400 . S
C535 C534 1.400 . S
C535 C536 1.398 . S
C535 C541 1.491 . S
C536 H527 0.950 . S
C536 C535 1.398 . S
C536 C537 1.391 . S
C537 H525 0.950 . S
C537 C533 1.393 . S
C537 C536 1.391 . S
C538 H528 0.950 . S
C538 C539 1.386 . S
C538 C540 1.391 . S
C539 C538 1.386 . S
C539 C543 1.393 . S
C540 H529 0.950 . S
C540 C538 1.391 . S
C540 C541 1.400 . S
C541 C535 1.491 . S
C541 C540 1.400 . S
C541 C542 1.398 . S
C542 H530 0.950 . S
C542 C541 1.398 . S
C542 C543 1.391 . S
C543 H531 0.950 . S
C543 C539 1.393 . S
C543 C542 1.391 . S
H544 C552 0.950 . S
H545 C557 0.950 . S
H546 C554 0.950 . S
H547 C556 0.950 . S
H548 C558 0.950 . S
H549 C560 0.950 . S
H550 C562 0.950 . S
H551 C563 0.950 . S
C552 H544 0.950 . S
C552 C553 1.386 . S
C552 C554 1.391 . S
C553 C552 1.386 . S
C553 C557 1.393 . S
C554 H546 0.950 . S
C554 C552 1.391 . S
C554 C555 1.400 . S
C555 C554 1.400 . S
C555 C556 1.398 . S
C555 C561 1.491 . S
C556 H547 0.950 . S
C556 C555 1.398 . S
C556 C557 1.391 . S
C557 H545 0.950 . S
C557 C553 1.393 . S
C557 C556 1.391 . S
C558 H548 0.950 . S
C558 C559 1.386 . S
C558 C560 1.391 . S
C559 C558 1.386 . S
C559 C563 1.393 . S
C560 H549 0.950 . S
C560 C558 1.391 . S
C560 C561 1.400 . S
C561 C555 1.491 . S
C561 C560 1.400 . S
C561 C562 1.398 . S
C562 H550 0.950 . S
C562 C561 1.398 . S
C562 C563 1.391 . S
C563 H551 0.950 . S
C563 C559 1.393 . S
C563 C562 1.391 . S
H564 C572 0.950 . S
H565 C577 0.950 . S
H566 C574 0.950 . S
H567 C576 0.950 . S
H568 C578 0.950 . S
H569 C580 0.950 . S
H570 C582 0.950 . S
H571 C583 0.950 . S
C572 H564 0.950 . S
C572 C573 1.386 . S
C572 C574 1.391 . S
C573 C572 1.386 . S
C573 C577 1.393 . S
C574 H566 0.950 . S
C574 C572 1.391 . S
C574 C575 1.400 . S
C575 C574 1.400 . S
C575 C576 1.398 . S
C575 C581 1.491 . S
C576 H567 0.950 . S
C576 C575 1.398 . S
C576 C577 1.391 . S
C577 H565 0.950 . S
C577 C573 1.393 . S
C577 C576 1.391 . S
C578 H568 0.950 . S
C578 C579 1.386 . S
C578 C580 1.391 . S
C579 C578 1.386 . S
C579 C583 1.393 . S
C580 H569 0.950 . S
C580 C578 1.391 . S
C580 C581 1.400 . S
C581 C575 1.491 . S
C581 C580 1.400 . S
C581 C582 1.398 . S
C582 H570 0.950 . S
C582 C581 1.398 . S
C582 C583 1.391 . S
C583 H571 0.950 . S
C583 C579 1.393 . S
C583 C582 1.391 . S
H584 C592 0.950 . S
H585 C597 0.950 . S
H586 C594 0.950 . S
H587 C596 0.950 . S
H588 C598 0.950 . S
H589 C600 0.950 . S
H590 C602 0.950 . S
H591 C603 0.950 . S
C592 H584 0.950 . S
C592 C593 1.386 . S
C592 C594 1.391 . S
C593 C592 1.386 . S
C593 C597 1.393 . S
C594 H586 0.950 . S
C594 C592 1.391 . S
C594 C595 1.400 . S
C595 C594 1.400 . S
C595 C596 1.398 . S
C595 C601 1.491 . S
C596 H587 0.950 . S
C596 C595 1.398 . S
C596 C597 1.391 . S
C597 H585 0.950 . S
C597 C593 1.393 . S
C597 C596 1.391 . S
C598 H588 0.950 . S
C598 C599 1.386 . S
C598 C600 1.391 . S
C599 C598 1.386 . S
C599 C603 1.393 . S
C600 H589 0.950 . S
C600 C598 1.391 . S
C600 C601 1.400 . S
C601 C595 1.491 . S
C601 C600 1.400 . S
C601 C602 1.398 . S
C602 H590 0.950 . S
C602 C601 1.398 . S
C602 C603 1.391 . S
C603 H591 0.950 . S
C603 C599 1.393 . S
C603 C602 1.391 . S
H604 C612 0.950 . S
H605 C617 0.950 . S
H606 C614 0.950 . S
H607 C616 0.950 . S
H608 C618 0.950 . S
H609 C620 0.950 . S
H610 C622 0.950 . S
H611 C623 0.950 . S
C612 H604 0.950 . S
C612 C613 1.386 . S
C612 C614 1.391 . S
C613 C612 1.386 . S
C613 C617 1.393 . S
C614 H606 0.950 . S
C614 C612 1.391 . S
C614 C615 1.400 . S
C615 C614 1.400 . S
C615 C616 1.398 . S
C615 C621 1.491 . S
C616 H607 0.950 . S
C616 C615 1.398 . S
C616 C617 1.391 . S
C617 H605 0.950 . S
C617 C613 1.393 . S
C617 C616 1.391 . S
C618 H608 0.950 . S
C618 C619 1.386 . S
C618 C620 1.391 . S
C619 C618 1.386 . S
C619 C623 1.393 . S
C620 H609 0.950 . S
C620 C618 1.391 . S
C620 C621 1.400 . S
C621 C615 1.491 . S
C621 C620 1.400 . S
C621 C622 1.398 . S
C622 H610 0.950 . S
C622 C621 1.398 . S
C622 C623 1.391 . S
C623 H611 0.950 . S
C623 C619 1.393 . S
C623 C622 1.391 . S
H624 C632 0.950 . S
H625 C637 0.950 . S
H626 C634 0.950 . S
H627 C636 0.950 . S
H628 C638 0.950 . S
H629 C640 0.950 . S
H630 C642 0.950 . S
H631 C643 0.950 . S
C632 H624 0.950 . S
C632 C633 1.386 . S
C632 C634 1.391 . S
C633 C632 1.386 . S
C633 C637 1.393 . S
C634 H626 0.950 . S
C634 C632 1.391 . S
C634 C635 1.400 . S
C635 C634 1.400 . S
C635 C636 1.398 . S
C635 C641 1.491 . S
C636 H627 0.950 . S
C636 C635 1.398 . S
C636 C637 1.391 . S
C637 H625 0.950 . S
C637 C633 1.393 . S
C637 C636 1.391 . S
C638 H628 0.950 . S
C638 C639 1.386 . S
C638 C640 1.391 . S
C639 C638 1.386 . S
C639 C643 1.393 . S
C640 H629 0.950 . S
C640 C638 1.391 . S
C640 C641 1.400 . S
C641 C635 1.491 . S
C641 C640 1.400 . S
C641 C642 1.398 . S
C642 H630 0.950 . S
C642 C641 1.398 . S
C642 C643 1.391 . S
C643 H631 0.950 . S
C643 C639 1.393 . S
C643 C642 1.391 . S
H644 C652 0.950 . S
H645 C657 0.950 . S
H646 C654 0.950 . S
H647 C656 0.950 . S
H648 C658 0.950 . S
H649 C660 0.950 . S
H650 C662 0.950 . S
H651 C663 0.950 . S
C652 H644 0.950 . S
C652 C653 1.386 . S
C652 C654 1.391 . S
C653 C652 1.386 . S
C653 C657 1.393 . S
C654 H646 0.950 . S
C654 C652 1.391 . S
C654 C655 1.400 . S
C655 C654 1.400 . S
C655 C656 1.398 . S
C655 C661 1.491 . S
C656 H647 0.950 . S
C656 C655 1.398 . S
C656 C657 1.391 . S
C657 H645 0.950 . S
C657 C653 1.393 . S
C657 C656 1.391 . S
C658 H648 0.950 . S
C658 C659 1.386 . S
C658 C660 1.391 . S
C659 C658 1.386 . S
C659 C663 1.393 . S
C660 H649 0.950 . S
C660 C658 1.391 . S
C660 C661 1.400 . S
C661 C655 1.491 . S
C661 C660 1.400 . S
C661 C662 1.398 . S
C662 H650 0.950 . S
C662 C661 1.398 . S
C662 C663 1.391 . S
C663 H651 0.950 . S
C663 C659 1.393 . S
C663 C662 1.391 . S
H664 C672 0.950 . S
H665 C677 0.950 . S
H666 C674 0.950 . S
H667 C676 0.950 . S
H668 C678 0.950 . S
H669 C680 0.950 . S
H670 C682 0.950 . S
H671 C683 0.950 . S
C672 H664 0.950 . S
C672 C673 1.386 . S
C672 C674 1.391 . S
C673 C672 1.386 . S
C673 C677 1.393 . S
C674 H666 0.950 . S
C674 C672 1.391 . S
C674 C675 1.400 . S
C675 C674 1.400 . S
C675 C676 1.398 . S
C675 C681 1.491 . S
C676 H667 0.950 . S
C676 C675 1.398 . S
C676 C677 1.391 . S
C677 H665 0.950 . S
C677 C673 1.393 . S
C677 C676 1.391 . S
C678 H668 0.950 . S
C678 C679 1.386 . S
C678 C680 1.391 . S
C679 C678 1.386 . S
C679 C683 1.393 . S
C680 H669 0.950 . S
C680 C678 1.391 . S
C680 C681 1.400 . S
C681 C675 1.491 . S
C681 C680 1.400 . S
C681 C682 1.398 . S
C682 H670 0.950 . S
C682 C681 1.398 . S
C682 C683 1.391 . S
C683 H671 0.950 . S
C683 C679 1.393 . S
C683 C682 1.391 . S
H684 C692 0.950 . S
H685 C697 0.950 . S
H686 C694 0.950 . S
H687 C696 0.950 . S
H688 C698 0.950 . S
H689 C700 0.950 . S
H690 C702 0.950 . S
H691 C703 0.950 . S
C692 H684 0.950 . S
C692 C693 1.386 . S
C692 C694 1.391 . S
C693 C692 1.386 . S
C693 C697 1.393 . S
C694 H686 0.950 . S
C694 C692 1.391 . S
C694 C695 1.400 . S
C695 C694 1.400 . S
C695 C696 1.398 . S
C695 C701 1.491 . S
C696 H687 0.950 . S
C696 C695 1.398 . S
C696 C697 1.391 . S
C697 H685 0.950 . S
C697 C693 1.393 . S
C697 C696 1.391 . S
C698 H688 0.950 . S
C698 C699 1.386 . S
C698 C700 1.391 . S
C699 C698 1.386 . S
C699 C703 1.393 . S
C700 H689 0.950 . S
C700 C698 1.391 . S
C700 C701 1.400 . S
C701 C695 1.491 . S
C701 C700 1.400 . S
C701 C702 1.398 . S
C702 H690 0.950 . S
C702 C701 1.398 . S
C702 C703 1.391 . S
C703 H691 0.950 . S
C703 C699 1.393 . S
C703 C702 1.391 . S
H704 C712 0.950 . S
H705 C717 0.950 . S
H706 C714 0.950 . S
H707 C716 0.950 . S
H708 C718 0.950 . S
H709 C720 0.950 . S
H710 C722 0.950 . S
H711 C723 0.950 . S
C712 H704 0.950 . S
C712 C713 1.386 . S
C712 C714 1.391 . S
C713 C712 1.386 . S
C713 C717 1.393 . S
C714 H706 0.950 . S
C714 C712 1.391 . S
C714 C715 1.400 . S
C715 C714 1.400 . S
C715 C716 1.398 . S
C715 C721 1.491 . S
C716 H707 0.950 . S
C716 C715 1.398 . S
C716 C717 1.391 . S
C717 H705 0.950 . S
C717 C713 1.393 . S
C717 C716 1.391 . S
C718 H708 0.950 . S
C718 C719 1.386 . S
C718 C720 1.391 . S
C719 C718 1.386 . S
C719 C723 1.393 . S
C720 H709 0.950 . S
C720 C718 1.391 . S
C720 C721 1.400 . S
C721 C715 1.491 . S
C721 C720 1.400 . S
C721 C722 1.398 . S
C722 H710 0.950 . S
C722 C721 1.398 . S
C722 C723 1.391 . S
C723 H711 0.950 . S
C723 C719 1.393 . S
C723 C722 1.391 . S
H724 C732 0.950 . S
H725 C737 0.950 . S
H726 C734 0.950 . S
H727 C736 0.950 . S
H728 C738 0.950 . S
H729 C740 0.950 . S
H730 C742 0.950 . S
H731 C743 0.950 . S
C732 H724 0.950 . S
C732 C733 1.386 . S
C732 C734 1.391 . S
C733 C732 1.386 . S
C733 C737 1.393 . S
C734 H726 0.950 . S
C734 C732 1.391 . S
C734 C735 1.400 . S
C735 C734 1.400 . S
C735 C736 1.398 . S
C735 C741 1.491 . S
C736 H727 0.950 . S
C736 C735 1.398 . S
C736 C737 1.391 . S
C737 H725 0.950 . S
C737 C733 1.393 . S
C737 C736 1.391 . S
C738 H728 0.950 . S
C738 C739 1.386 . S
C738 C740 1.391 . S
C739 C738 1.386 . S
C739 C743 1.393 . S
C740 H729 0.950 . S
C740 C738 1.391 . S
C740 C741 1.400 . S
C741 C735 1.491 . S
C741 C740 1.400 . S
C741 C742 1.398 . S
C742 H730 0.950 . S
C742 C741 1.398 . S
C742 C743 1.391 . S
C743 H731 0.950 . S
C743 C739 1.393 . S
C743 C742 1.391 . S
H744 C752 0.950 . S
H745 C757 0.950 . S
H746 C754 0.950 . S
H747 C756 0.950 . S
H748 C758 0.950 . S
H749 C760 0.950 . S
H750 C762 0.950 . S
H751 C763 0.950 . S
C752 H744 0.950 . S
C752 C753 1.386 . S
C752 C754 1.391 . S
C753 C752 1.386 . S
C753 C757 1.393 . S
C754 H746 0.950 . S
C754 C752 1.391 . S
C754 C755 1.400 . S
C755 C754 1.400 . S
C755 C756 1.398 . S
C755 C761 1.491 . S
C756 H747 0.950 . S
C756 C755 1.398 . S
C756 C757 1.391 . S
C757 H745 0.950 . S
C757 C753 1.393 . S
C757 C756 1.391 . S
C758 H748 0.950 . S
C758 C759 1.386 . S
C758 C760 1.391 . S
C759 C758 1.386 . S
C759 C763 1.393 . S
C760 H749 0.950 . S
C760 C758 1.391 . S
C760 C761 1.400 . S
C761 C755 1.491 . S
C761 C760 1.400 . S
C761 C762 1.398 . S
C762 H750 0.950 . S
C762 C761 1.398 . S
C762 C763 1.391 . S
C763 H751 0.950 . S
C763 C759 1.393 . S
C763 C762 1.391 . S
H764 C772 0.950 . S
H765 C777 0.950 . S
H766 C774 0.950 . S
H767 C776 0.950 . S
H768 C778 0.950 . S
H769 C780 0.950 . S
H770 C782 0.950 . S
H771 C783 0.950 . S
C772 H764 0.950 . S
C772 C773 1.386 . S
C772 C774 1.391 . S
C773 C772 1.386 . S
C773 C777 1.393 . S
C774 H766 0.950 . S
C774 C772 1.391 . S
C774 C775 1.400 . S
C775 C774 1.400 . S
C775 C776 1.398 . S
C775 C781 1.491 . S
C776 H767 0.950 . S
C776 C775 1.398 . S
C776 C777 1.391 . S
C777 H765 0.950 . S
C777 C773 1.393 . S
C777 C776 1.391 . S
C778 H768 0.950 . S
C778 C779 1.386 . S
C778 C780 1.391 . S
C779 C778 1.386 . S
C779 C783 1.393 . S
C780 H769 0.950 . S
C780 C778 1.391 . S
C780 C781 1.400 . S
C781 C775 1.491 . S
C781 C780 1.400 . S
C781 C782 1.398 . S
C782 H770 0.950 . S
C782 C781 1.398 . S
C782 C783 1.391 . S
C783 H771 0.950 . S
C783 C779 1.393 . S
C783 C782 1.391 . S
H784 C792 0.950 . S
H785 C797 0.950 . S
H786 C794 0.950 . S
H787 C796 0.950 . S
H788 C798 0.950 . S
H789 C800 0.950 . S
H790 C802 0.950 . S
H791 C803 0.950 . S
C792 H784 0.950 . S
C792 C793 1.386 . S
C792 C794 1.391 . S
C793 C792 1.386 . S
C793 C797 1.393 . S
C794 H786 0.950 . S
C794 C792 1.391 . S
C794 C795 1.400 . S
C795 C794 1.400 . S
C795 C796 1.398 . S
C795 C801 1.491 . S
C796 H787 0.950 . S
C796 C795 1.398 . S
C796 C797 1.391 . S
C797 H785 0.950 . S
C797 C793 1.393 . S
C797 C796 1.391 . S
C798 H788 0.950 . S
C798 C799 1.386 . S
C798 C800 1.391 . S
C799 C798 1.386 . S
C799 C803 1.393 . S
C800 H789 0.950 . S
C800 C798 1.391 . S
C800 C801 1.400 . S
C801 C795 1.491 . S
C801 C800 1.400 . S
C801 C802 1.398 . S
C802 H790 0.950 . S
C802 C801 1.398 . S
C802 C803 1.391 . S
C803 H791 0.950 . S
C803 C799 1.393 . S
C803 C802 1.391 . S
H804 C812 0.950 . S
H805 C817 0.950 . S
H806 C814 0.950 . S
H807 C816 0.950 . S
H808 C818 0.950 . S
H809 C820 0.950 . S
H810 C822 0.950 . S
H811 C823 0.950 . S
C812 H804 0.950 . S
C812 C813 1.386 . S
C812 C814 1.391 . S
C813 C812 1.386 . S
C813 C817 1.393 . S
C814 H806 0.950 . S
C814 C812 1.391 . S
C814 C815 1.400 . S
C815 C814 1.400 . S
C815 C816 1.398 . S
C815 C821 1.491 . S
C816 H807 0.950 . S
C816 C815 1.398 . S
C816 C817 1.391 . S
C817 H805 0.950 . S
C817 C813 1.393 . S
C817 C816 1.391 . S
C818 H808 0.950 . S
C818 C819 1.386 . S
C818 C820 1.391 . S
C819 C818 1.386 . S
C819 C823 1.393 . S
C820 H809 0.950 . S
C820 C818 1.391 . S
C820 C821 1.400 . S
C821 C815 1.491 . S
C821 C820 1.400 . S
C821 C822 1.398 . S
C822 H810 0.950 . S
C822 C821 1.398 . S
C822 C823 1.391 . S
C823 H811 0.950 . S
C823 C819 1.393 . S
C823 C822 1.391 . S
H824 C832 0.950 . S
H825 C837 0.950 . S
H826 C834 0.950 . S
H827 C836 0.950 . S
H828 C838 0.950 . S
H829 C840 0.950 . S
H830 C842 0.950 . S
H831 C843 0.950 . S
C832 H824 0.950 . S
C832 C833 1.386 . S
C832 C834 1.391 . S
C833 C832 1.386 . S
C833 C837 1.393 . S
C834 H826 0.950 . S
C834 C832 1.391 . S
C834 C835 1.400 . S
C835 C834 1.400 . S
C835 C836 1.398 . S
C835 C841 1.491 . S
C836 H827 0.950 . S
C836 C835 1.398 . S
C836 C837 1.391 . S
C837 H825 0.950 . S
C837 C833 1.393 . S
C837 C836 1.391 . S
C838 H828 0.950 . S
C838 C839 1.386 . S
C838 C840 1.391 . S
C839 C838 1.386 . S
C839 C843 1.393 . S
C840 H829 0.950 . S
C840 C838 1.391 . S
C840 C841 1.400 . S
C841 C835 1.491 . S
C841 C840 1.400 . S
C841 C842 1.398 . S
C842 H830 0.950 . S
C842 C841 1.398 . S
C842 C843 1.391 . S
C843 H831 0.950 . S
C843 C839 1.393 . S
C843 C842 1.391 . S
H844 C852 0.950 . S
H845 C857 0.950 . S
H846 C854 0.950 . S
H847 C856 0.950 . S
H848 C858 0.950 . S
H849 C860 0.950 . S
H850 C862 0.950 . S
H851 C863 0.950 . S
C852 H844 0.950 . S
C852 C853 1.386 . S
C852 C854 1.391 . S
C853 C852 1.386 . S
C853 C857 1.393 . S
C854 H846 0.950 . S
C854 C852 1.391 . S
C854 C855 1.400 . S
C855 C854 1.400 . S
C855 C856 1.398 . S
C855 C861 1.491 . S
C856 H847 0.950 . S
C856 C855 1.398 . S
C856 C857 1.391 . S
C857 H845 0.950 . S
C857 C853 1.393 . S
C857 C856 1.391 . S
C858 H848 0.950 . S
C858 C859 1.386 . S
C858 C860 1.391 . S
C859 C858 1.386 . S
C859 C863 1.393 . S
C860 H849 0.950 . S
C860 C858 1.391 . S
C860 C861 1.400 . S
C861 C855 1.491 . S
C861 C860 1.400 . S
C861 C862 1.398 . S
C862 H850 0.950 . S
C862 C861 1.398 . S
C862 C863 1.391 . S
C863 H851 0.950 . S
C863 C859 1.393 . S
C863 C862 1.391 . S
H864 C872 0.950 . S
H865 C877 0.950 . S
H866 C874 0.950 . S
H867 C876 0.950 . S
H868 C878 0.950 . S
H869 C880 0.950 . S
H870 C882 0.950 . S
H871 C883 0.950 . S
C872 H864 0.950 . S
C872 C873 1.386 . S
C872 C874 1.391 . S
C873 C872 1.386 . S
C873 C877 1.393 . S
C874 H866 0.950 . S
C874 C872 1.391 . S
C874 C875 1.400 . S
C875 C874 1.400 . S
C875 C876 1.398 . S
C875 C881 1.491 . S
C876 H867 0.950 . S
C876 C875 1.398 . S
C876 C877 1.391 . S
C877 H865 0.950 . S
C877 C873 1.393 . S
C877 C876 1.391 . S
C878 H868 0.950 . S
C878 C879 1.386 . S
C878 C880 1.391 . S
C879 C878 1.386 . S
C879 C883 1.393 . S
C880 H869 0.950 . S
C880 C878 1.391 . S
C880 C881 1.400 . S
C881 C875 1.491 . S
C881 C880 1.400 . S
C881 C882 1.398 . S
C882 H870 0.950 . S
C882 C881 1.398 . S
C882 C883 1.391 . S
C883 H871 0.950 . S
C883 C879 1.393 . S
C883 C882 1.391 . S
C419 C332 1.515 . S
C413 C15 1.518 . S
C439 C335 1.476 . S
C433 C55 1.475 . S
C459 C333 1.539 . S
C453 C101 1.519 . S
C479 C334 1.500 . S
C473 C141 1.496 . S
C499 C349 1.499 . S
C493 C2 1.488 . S
C519 C363 1.497 . S
C513 C61 1.483 . S
C533 C95 1.516 . S
C539 C389 1.514 . S
C559 C403 1.498 . S
C553 C135 1.500 . S
C579 C348 1.487 . S
C573 C42 1.481 . S
C593 C82 1.513 . S
C599 C362 1.521 . S
C619 C388 1.505 . S
C613 C122 1.501 . S
C639 C402 1.522 . S
C633 C21 1.517 . S
C653 C162 1.485 . S
C659 C347 1.495 . S
C679 C320 1.535 . S
C673 C221 1.532 . S
C693 C255 1.480 . S
C699 C346 1.476 . S
C713 C282 1.501 . S
C719 C321 1.521 . S
C739 C376 1.520 . S
C733 C181 1.514 . S
C759 C390 1.512 . S
C753 C202 1.514 . S
C779 C360 1.495 . S
C773 C242 1.488 . S
C793 C301 1.516 . S
C799 C374 1.526 . S
C819 C377 1.517 . S
C813 C215 1.518 . S
C839 C391 1.510 . S
C833 C261 1.497 . S
C859 C361 1.498 . S
C853 C295 1.501 . S
C873 C175 1.497 . S
C879 C375 1.493 . S
