# Generated by pormake.
# Topology eea, (3,6)-cn, num edge types: 1
# Building blocks:
#     Node 0, Type 0, BuildingBlock: WUSLED_clean_sbu_0, # of connection points: 3
#     Node 1, Type 0, BuildingBlock: WUSLED_clean_sbu_0, # of connection points: 3
#     Node 2, Type 0, BuildingBlock: WUSLED_clean_sbu_0, # of connection points: 3
#     Node 3, Type 0, BuildingBlock: WUSLED_clean_sbu_0, # of connection points: 3
#     Node 4, Type 0, BuildingBlock: WUSLED_clean_sbu_0, # of connection points: 3
#     Node 5, Type 0, BuildingBlock: WUSLED_clean_sbu_0, # of connection points: 3
#     Node 6, Type 0, BuildingBlock: WUSLED_clean_sbu_0, # of connection points: 3
#     Node 7, Type 0, BuildingBlock: WUSLED_clean_sbu_0, # of connection points: 3
#     Node 8, Type 0, BuildingBlock: WUSLED_clean_sbu_0, # of connection points: 3
#     Node 9, Type 0, BuildingBlock: WUSLED_clean_sbu_0, # of connection points: 3
#     Node 10, Type 0, BuildingBlock: WUSLED_clean_sbu_0, # of connection points: 3
#     Node 11, Type 0, BuildingBlock: WUSLED_clean_sbu_0, # of connection points: 3
#     Node 12, Type 0, BuildingBlock: WUSLED_clean_sbu_0, # of connection points: 3
#     Node 13, Type 0, BuildingBlock: WUSLED_clean_sbu_0, # of connection points: 3
#     Node 14, Type 0, BuildingBlock: WUSLED_clean_sbu_0, # of connection points: 3
#     Node 15, Type 0, BuildingBlock: WUSLED_clean_sbu_0, # of connection points: 3
#     Node 16, Type 0, BuildingBlock: WUSLED_clean_sbu_0, # of connection points: 3
#     Node 17, Type 0, BuildingBlock: WUSLED_clean_sbu_0, # of connection points: 3
#     Node 18, Type 1, BuildingBlock: CUWYAW_clean_sbu_0, # of connection points: 6
#     Node 19, Type 1, BuildingBlock: CUWYAW_clean_sbu_0, # of connection points: 6
#     Node 20, Type 1, BuildingBlock: CUWYAW_clean_sbu_0, # of connection points: 6
#     Node 21, Type 1, BuildingBlock: CUWYAW_clean_sbu_0, # of connection points: 6
#     Node 22, Type 1, BuildingBlock: CUWYAW_clean_sbu_0, # of connection points: 6
#     Node 23, Type 1, BuildingBlock: CUWYAW_clean_sbu_0, # of connection points: 6
#     Node 24, Type 1, BuildingBlock: CUWYAW_clean_sbu_0, # of connection points: 6
#     Node 25, Type 1, BuildingBlock: CUWYAW_clean_sbu_0, # of connection points: 6
#     Node 26, Type 1, BuildingBlock: CUWYAW_clean_sbu_0, # of connection points: 6
#     Edge 27, Type (0, 1), BuildingBlock: UVAHIK_clean_linker_0, # of connection points: 2
#     Edge 28, Type (0, 1), BuildingBlock: UVAHIK_clean_linker_0, # of connection points: 2
#     Edge 29, Type (0, 1), BuildingBlock: UVAHIK_clean_linker_0, # of connection points: 2
#     Edge 30, Type (0, 1), BuildingBlock: UVAHIK_clean_linker_0, # of connection points: 2
#     Edge 31, Type (0, 1), BuildingBlock: UVAHIK_clean_linker_0, # of connection points: 2
#     Edge 32, Type (0, 1), BuildingBlock: UVAHIK_clean_linker_0, # of connection points: 2
#     Edge 33, Type (0, 1), BuildingBlock: UVAHIK_clean_linker_0, # of connection points: 2
#     Edge 34, Type (0, 1), BuildingBlock: UVAHIK_clean_linker_0, # of connection points: 2
#     Edge 35, Type (0, 1), BuildingBlock: UVAHIK_clean_linker_0, # of connection points: 2
#     Edge 36, Type (0, 1), BuildingBlock: UVAHIK_clean_linker_0, # of connection points: 2
#     Edge 37, Type (0, 1), BuildingBlock: UVAHIK_clean_linker_0, # of connection points: 2
#     Edge 38, Type (0, 1), BuildingBlock: UVAHIK_clean_linker_0, # of connection points: 2
#     Edge 39, Type (0, 1), BuildingBlock: UVAHIK_clean_linker_0, # of connection points: 2
#     Edge 40, Type (0, 1), BuildingBlock: UVAHIK_clean_linker_0, # of connection points: 2
#     Edge 41, Type (0, 1), BuildingBlock: UVAHIK_clean_linker_0, # of connection points: 2
#     Edge 42, Type (0, 1), BuildingBlock: UVAHIK_clean_linker_0, # of connection points: 2
#     Edge 43, Type (0, 1), BuildingBlock: UVAHIK_clean_linker_0, # of connection points: 2
#     Edge 44, Type (0, 1), BuildingBlock: UVAHIK_clean_linker_0, # of connection points: 2
#     Edge 45, Type (0, 1), BuildingBlock: UVAHIK_clean_linker_0, # of connection points: 2
#     Edge 46, Type (0, 1), BuildingBlock: UVAHIK_clean_linker_0, # of connection points: 2
#     Edge 47, Type (0, 1), BuildingBlock: UVAHIK_clean_linker_0, # of connection points: 2
#     Edge 48, Type (0, 1), BuildingBlock: UVAHIK_clean_linker_0, # of connection points: 2
#     Edge 49, Type (0, 1), BuildingBlock: UVAHIK_clean_linker_0, # of connection points: 2
#     Edge 50, Type (0, 1), BuildingBlock: UVAHIK_clean_linker_0, # of connection points: 2
#     Edge 51, Type (0, 1), BuildingBlock: UVAHIK_clean_linker_0, # of connection points: 2
#     Edge 52, Type (0, 1), BuildingBlock: UVAHIK_clean_linker_0, # of connection points: 2
#     Edge 53, Type (0, 1), BuildingBlock: UVAHIK_clean_linker_0, # of connection points: 2
#     Edge 54, Type (0, 1), BuildingBlock: UVAHIK_clean_linker_0, # of connection points: 2
#     Edge 55, Type (0, 1), BuildingBlock: UVAHIK_clean_linker_0, # of connection points: 2
#     Edge 56, Type (0, 1), BuildingBlock: UVAHIK_clean_linker_0, # of connection points: 2
#     Edge 57, Type (0, 1), BuildingBlock: UVAHIK_clean_linker_0, # of connection points: 2
#     Edge 58, Type (0, 1), BuildingBlock: UVAHIK_clean_linker_0, # of connection points: 2
#     Edge 59, Type (0, 1), BuildingBlock: UVAHIK_clean_linker_0, # of connection points: 2
#     Edge 60, Type (0, 1), BuildingBlock: UVAHIK_clean_linker_0, # of connection points: 2
#     Edge 61, Type (0, 1), BuildingBlock: UVAHIK_clean_linker_0, # of connection points: 2
#     Edge 62, Type (0, 1), BuildingBlock: UVAHIK_clean_linker_0, # of connection points: 2
#     Edge 63, Type (0, 1), BuildingBlock: UVAHIK_clean_linker_0, # of connection points: 2
#     Edge 64, Type (0, 1), BuildingBlock: UVAHIK_clean_linker_0, # of connection points: 2
#     Edge 65, Type (0, 1), BuildingBlock: UVAHIK_clean_linker_0, # of connection points: 2
#     Edge 66, Type (0, 1), BuildingBlock: UVAHIK_clean_linker_0, # of connection points: 2
#     Edge 67, Type (0, 1), BuildingBlock: UVAHIK_clean_linker_0, # of connection points: 2
#     Edge 68, Type (0, 1), BuildingBlock: UVAHIK_clean_linker_0, # of connection points: 2
#     Edge 69, Type (0, 1), BuildingBlock: UVAHIK_clean_linker_0, # of connection points: 2
#     Edge 70, Type (0, 1), BuildingBlock: UVAHIK_clean_linker_0, # of connection points: 2
#     Edge 71, Type (0, 1), BuildingBlock: UVAHIK_clean_linker_0, # of connection points: 2
#     Edge 72, Type (0, 1), BuildingBlock: UVAHIK_clean_linker_0, # of connection points: 2
#     Edge 73, Type (0, 1), BuildingBlock: UVAHIK_clean_linker_0, # of connection points: 2
#     Edge 74, Type (0, 1), BuildingBlock: UVAHIK_clean_linker_0, # of connection points: 2
#     Edge 75, Type (0, 1), BuildingBlock: UVAHIK_clean_linker_0, # of connection points: 2
#     Edge 76, Type (0, 1), BuildingBlock: UVAHIK_clean_linker_0, # of connection points: 2
#     Edge 77, Type (0, 1), BuildingBlock: UVAHIK_clean_linker_0, # of connection points: 2
#     Edge 78, Type (0, 1), BuildingBlock: UVAHIK_clean_linker_0, # of connection points: 2
#     Edge 79, Type (0, 1), BuildingBlock: UVAHIK_clean_linker_0, # of connection points: 2
#     Edge 80, Type (0, 1), BuildingBlock: UVAHIK_clean_linker_0, # of connection points: 2
# Relax obj value: 0.035
# Max RMSD: 0.130
# Mean RMSD: 0.068
data_MOF--net-eea--node1-WUSLED_clean_sbu_0--node2-CUWYAW_clean_sbu_0--edge1-UVAHIK_clean_linker_0
_symmetry_space_group_name_H-M    P1
_symmetry_Int_Tables_number       1
_symmetry_cell_setting            triclinic
loop_
_symmetry_equiv_pos_as_xyz
'x, y, z'
_cell_length_a     82.289072
_cell_length_b     81.735341
_cell_length_c     110.06236
_cell_angle_alpha  93.019701
_cell_angle_beta   93.677317
_cell_angle_gamma 119.95304
loop_
_atom_site_label
_atom_site_type_symbol
_atom_site_fract_x
_atom_site_fract_y
_atom_site_fract_z
_atom_type_partial_charge
C0 C 0.2483 0.1634 0.39886 0.0
C1 C 0.25238 0.17982 0.4062 0.0
C2 C 0.23924 0.18968 0.38959 0.0
C3 C 0.24791 0.19288 0.4016 0.0
C4 C 0.23548 0.17332 0.38223 0.0
C5 C 0.23997 0.16029 0.38684 0.0
U6 U 0.26508 0.14558 0.42526 0.0
O7 O 0.25267 0.11708 0.4315 0.0
O8 O 0.28114 0.13064 0.42561 0.0
C9 C 0.26704 0.11513 0.42898 0.0
C10 C 0.25199 0.14911 0.4038 0.0
C11 C 0.26204 0.09744 0.42164 0.0
C12 C 0.24755 0.07605 0.40305 0.0
C13 C 0.25304 0.09338 0.40971 0.0
C14 C 0.26033 0.06689 0.42012 0.0
C15 C 0.251 0.06254 0.40822 0.0
C16 C 0.26578 0.08419 0.42677 0.0
C17 C 0.28243 0.17358 0.45632 0.0
C18 C 0.28715 0.15902 0.47384 0.0
C19 C 0.29597 0.19219 0.47599 0.0
C20 C 0.28995 0.19084 0.46361 0.0
C21 C 0.29452 0.17625 0.48128 0.0
C22 C 0.28122 0.15773 0.46147 0.0
C23 C 0.27554 0.172 0.44344 0.0
O24 O 0.26985 0.1546 0.4067 0.0
O25 O 0.24111 0.13974 0.41214 0.0
O26 O 0.25792 0.15859 0.4404 0.0
O27 O 0.28695 0.1724 0.43548 0.0
H28 H 0.25874 0.18236 0.41554 0.0
H29 H 0.25081 0.20521 0.40755 0.0
H30 H 0.22906 0.17058 0.37289 0.0
H31 H 0.23675 0.14768 0.38105 0.0
H32 H 0.24061 0.07324 0.39386 0.0
H33 H 0.2501 0.10352 0.40562 0.0
H34 H 0.26298 0.05672 0.42442 0.0
H35 H 0.27266 0.08711 0.43599 0.0
H36 H 0.28555 0.1464 0.47762 0.0
H37 H 0.30183 0.20572 0.4814 0.0
H38 H 0.29105 0.20323 0.45974 0.0
H39 H 0.27544 0.14428 0.45596 0.0
C40 C 0.92973 0.16264 0.4104 0.0
C41 C 0.94234 0.17861 0.41842 0.0
C42 C 0.96397 0.19063 0.40273 0.0
C43 C 0.95934 0.19249 0.41462 0.0
C44 C 0.95115 0.17463 0.39472 0.0
C45 C 0.93419 0.16077 0.39854 0.0
U46 U 0.89547 0.14225 0.43454 0.0
O47 O 0.86443 0.1266 0.43269 0.0
O48 O 0.87995 0.11311 0.43974 0.0
C49 C 0.86341 0.11097 0.43611 0.0
C50 C 0.91211 0.14767 0.41437 0.0
C51 C 0.85067 0.09356 0.42813 0.0
C52 C 0.84313 0.07327 0.40925 0.0
C53 C 0.85524 0.09021 0.41656 0.0
C54 C 0.82172 0.06305 0.42498 0.0
C55 C 0.82624 0.05945 0.4134 0.0
C56 C 0.83384 0.07995 0.43227 0.0
C57 C 0.90528 0.1685 0.46591 0.0
C58 C 0.88603 0.15282 0.4821 0.0
C59 C 0.90945 0.18631 0.48536 0.0
C60 C 0.91443 0.18559 0.4735 0.0
C61 C 0.89528 0.1699 0.48981 0.0
C62 C 0.89095 0.15215 0.47024 0.0
C63 C 0.91077 0.16771 0.45355 0.0
O64 O 0.91422 0.13816 0.423 0.0
O65 O 0.8993 0.15239 0.41623 0.0
O66 O 0.89966 0.16827 0.44466 0.0
O67 O 0.91543 0.15475 0.45115 0.0
H68 H 0.93907 0.18027 0.42763 0.0
H69 H 0.96878 0.20473 0.42096 0.0
H70 H 0.95438 0.17261 0.38557 0.0
H71 H 0.92463 0.14848 0.39226 0.0
H72 H 0.84692 0.07104 0.40032 0.0
H73 H 0.8682 0.10064 0.41322 0.0
H74 H 0.80899 0.05262 0.42854 0.0
H75 H 0.83015 0.08231 0.44121 0.0
H76 H 0.87489 0.14001 0.4852 0.0
H77 H 0.91692 0.19963 0.49111 0.0
H78 H 0.92551 0.19834 0.47029 0.0
H79 H 0.88364 0.13884 0.46445 0.0
C80 C 0.87525 0.78776 0.41288 0.0
C81 C 0.86022 0.78263 0.42004 0.0
C82 C 0.8456 0.7942 0.40556 0.0
C83 C 0.84551 0.78578 0.4164 0.0
C84 C 0.86071 0.79928 0.39841 0.0
C85 C 0.87541 0.79607 0.40205 0.0
U86 U 0.89929 0.77373 0.43704 0.0
O87 O 0.91351 0.75706 0.43576 0.0
O88 O 0.92913 0.78653 0.44407 0.0
C89 C 0.92999 0.77152 0.4402 0.0
C90 C 0.89094 0.78488 0.41686 0.0
C91 C 0.94578 0.77535 0.43305 0.0
C92 C 0.96226 0.78631 0.41501 0.0
C93 C 0.94681 0.7822 0.42153 0.0
C94 C 0.97563 0.7766 0.43142 0.0
C95 C 0.97693 0.78369 0.41993 0.0
C96 C 0.96019 0.77248 0.43792 0.0
C97 C 0.87552 0.75943 0.46664 0.0
C98 C 0.88748 0.74949 0.48377 0.0
C99 C 0.86068 0.75392 0.4855 0.0
C100 C 0.86162 0.75897 0.47354 0.0
C101 C 0.87367 0.74926 0.4908 0.0
C102 C 0.88844 0.75461 0.47178 0.0
C103 C 0.87648 0.76543 0.45425 0.0
O104 O 0.90245 0.79672 0.42611 0.0
O105 O 0.88626 0.76717 0.41802 0.0
O106 O 0.87441 0.75297 0.44534 0.0
O107 O 0.89011 0.78273 0.45312 0.0
H108 H 0.85996 0.77631 0.42849 0.0
H109 H 0.83423 0.78193 0.4222 0.0
H110 H 0.86109 0.80558 0.38994 0.0
H111 H 0.88693 0.80013 0.39642 0.0
H112 H 0.96291 0.79192 0.40624 0.0
H113 H 0.93578 0.78453 0.41766 0.0
H114 H 0.98652 0.77413 0.43539 0.0
H115 H 0.95957 0.76714 0.44679 0.0
H116 H 0.89776 0.74609 0.48763 0.0
H117 H 0.84968 0.75357 0.49058 0.0
H118 H 0.85152 0.76262 0.46969 0.0
H119 H 0.89932 0.75498 0.46655 0.0
C120 C 0.08758 0.23615 0.61627 0.0
C121 C 0.07504 0.23946 0.60903 0.0
C122 C 0.0536 0.22995 0.62491 0.0
C123 C 0.05818 0.23637 0.61331 0.0
C124 C 0.06631 0.22672 0.63212 0.0
C125 C 0.08314 0.2298 0.62782 0.0
U126 U 0.12191 0.25116 0.59199 0.0
O127 O 0.15294 0.26726 0.59388 0.0
O128 O 0.13767 0.23816 0.58493 0.0
C129 C 0.15412 0.25284 0.58914 0.0
C130 C 0.10522 0.23912 0.61184 0.0
C131 C 0.16694 0.24836 0.59616 0.0
C132 C 0.17528 0.23687 0.61407 0.0
C133 C 0.16311 0.2415 0.60767 0.0
C134 C 0.19524 0.24601 0.59752 0.0
C135 C 0.19144 0.23896 0.60902 0.0
C136 C 0.18309 0.25066 0.59116 0.0
C137 C 0.11162 0.26809 0.56263 0.0
C138 C 0.13455 0.27982 0.54779 0.0
C139 C 0.10303 0.27431 0.5426 0.0
C140 C 0.0983 0.26841 0.55421 0.0
C141 C 0.12119 0.28003 0.53925 0.0
C142 C 0.12978 0.27384 0.55936 0.0
C143 C 0.10633 0.26124 0.57463 0.0
O144 O 0.10317 0.22769 0.60226 0.0
O145 O 0.11806 0.25689 0.61103 0.0
O146 O 0.11731 0.27287 0.58412 0.0
O147 O 0.10205 0.24359 0.57551 0.0
H148 H 0.07831 0.24443 0.60008 0.0
H149 H 0.04882 0.23919 0.6076 0.0
H150 H 0.06311 0.22153 0.64101 0.0
H151 H 0.09265 0.22712 0.6335 0.0
H152 H 0.17186 0.23131 0.62285 0.0
H153 H 0.15063 0.23959 0.61164 0.0
H154 H 0.2077 0.24807 0.59346 0.0
H155 H 0.18627 0.25598 0.58229 0.0
H156 H 0.14857 0.2839 0.54543 0.0
H157 H 0.09249 0.2745 0.53628 0.0
H158 H 0.08421 0.26399 0.55658 0.0
H159 H 0.1402 0.27352 0.56574 0.0
C160 C 0.77209 0.85812 0.63136 0.0
C161 C 0.76733 0.84158 0.62391 0.0
C162 C 0.7802 0.83098 0.64024 0.0
C163 C 0.77133 0.8281 0.62832 0.0
C164 C 0.78471 0.84752 0.64769 0.0
C165 C 0.78069 0.86098 0.64327 0.0
U166 U 0.75651 0.87722 0.60516 0.0
O167 O 0.74065 0.89237 0.60483 0.0
O168 O 0.76938 0.90602 0.59936 0.0
C169 C 0.75497 0.90799 0.60175 0.0
C170 C 0.7688 0.87278 0.62661 0.0
C171 C 0.75984 0.92548 0.60928 0.0
C172 C 0.77386 0.94632 0.62813 0.0
C173 C 0.76855 0.92919 0.62127 0.0
C174 C 0.76149 0.956 0.61113 0.0
C175 C 0.77051 0.95998 0.62311 0.0
C176 C 0.75623 0.93889 0.60429 0.0
C177 C 0.73994 0.85004 0.57376 0.0
C178 C 0.73562 0.86495 0.55632 0.0
C179 C 0.72752 0.832 0.55385 0.0
C180 C 0.73304 0.83304 0.56629 0.0
C181 C 0.72894 0.84802 0.54871 0.0
C182 C 0.74102 0.86593 0.56875 0.0
C183 C 0.74642 0.85131 0.5867 0.0
O184 O 0.78003 0.88241 0.61848 0.0
O185 O 0.75106 0.86758 0.62353 0.0
O186 O 0.73477 0.85075 0.59452 0.0
O187 O 0.76401 0.86461 0.58998 0.0
H188 H 0.76069 0.83918 0.61466 0.0
H189 H 0.76746 0.81542 0.6224 0.0
H190 H 0.79176 0.85031 0.65685 0.0
H191 H 0.78455 0.87375 0.6491 0.0
H192 H 0.78056 0.94886 0.63737 0.0
H193 H 0.77139 0.91892 0.62526 0.0
H194 H 0.75893 0.9663 0.60694 0.0
H195 H 0.74957 0.93625 0.59502 0.0
H196 H 0.73662 0.87743 0.55266 0.0
H197 H 0.72257 0.81882 0.54819 0.0
H198 H 0.73213 0.82065 0.57003 0.0
H199 H 0.74623 0.87915 0.57443 0.0
C200 C 0.08952 0.85856 0.62041 0.0
C201 C 0.07681 0.84258 0.61243 0.0
C202 C 0.05537 0.83067 0.62823 0.0
C203 C 0.05986 0.82875 0.6163 0.0
C204 C 0.06828 0.84668 0.63619 0.0
C205 C 0.0852 0.86049 0.6323 0.0
U206 U 0.1239 0.87867 0.59627 0.0
O207 O 0.13945 0.90774 0.59097 0.0
O208 O 0.15493 0.89435 0.59822 0.0
C209 C 0.15597 0.90993 0.59469 0.0
C210 C 0.10713 0.87347 0.61638 0.0
C211 C 0.16864 0.9274 0.60263 0.0
C212 C 0.17623 0.94761 0.62155 0.0
C213 C 0.16419 0.93062 0.61427 0.0
C214 C 0.19731 0.95816 0.60564 0.0
C215 C 0.19291 0.96162 0.6173 0.0
C216 C 0.18527 0.9412 0.59838 0.0
C217 C 0.11461 0.8523 0.56507 0.0
C218 C 0.13468 0.86794 0.54923 0.0
C219 C 0.1108 0.83464 0.54564 0.0
C220 C 0.10542 0.83532 0.55738 0.0
C221 C 0.12547 0.85096 0.5414 0.0
C222 C 0.12933 0.86858 0.56096 0.0
C223 C 0.10883 0.85306 0.57734 0.0
O224 O 0.11998 0.86875 0.61464 0.0
O225 O 0.10501 0.88282 0.60765 0.0
O226 O 0.1041 0.86601 0.5796 0.0
O227 O 0.11981 0.85257 0.58635 0.0
H228 H 0.07998 0.84087 0.6032 0.0
H229 H 0.05034 0.8165 0.60999 0.0
H230 H 0.06516 0.84874 0.64537 0.0
H231 H 0.09484 0.87279 0.63856 0.0
H232 H 0.17254 0.94974 0.63053 0.0
H233 H 0.15139 0.92005 0.61769 0.0
H234 H 0.20987 0.96873 0.602 0.0
H235 H 0.18885 0.93894 0.58938 0.0
H236 H 0.14583 0.88084 0.54623 0.0
H237 H 0.10358 0.82127 0.53993 0.0
H238 H 0.09409 0.8226 0.56045 0.0
H239 H 0.1366 0.88183 0.5668 0.0
C240 C 0.9149 0.49738 0.73239 0.0
C241 C 0.91901 0.51386 0.73968 0.0
C242 C 0.90582 0.52358 0.72301 0.0
C243 C 0.91453 0.52688 0.73501 0.0
C244 C 0.90202 0.50715 0.71571 0.0
C245 C 0.90652 0.49417 0.72038 0.0
U246 U 0.93143 0.47956 0.75893 0.0
O247 O 0.91902 0.45102 0.76511 0.0
O248 O 0.94761 0.46476 0.75941 0.0
C249 C 0.93349 0.44917 0.76269 0.0
C250 C 0.91861 0.48313 0.73739 0.0
C251 C 0.92867 0.43157 0.75532 0.0
C252 C 0.91463 0.41039 0.73661 0.0
C253 C 0.91999 0.42766 0.7433 0.0
C254 C 0.92688 0.40098 0.75381 0.0
C255 C 0.91787 0.39678 0.74182 0.0
C256 C 0.9322 0.41822 0.7605 0.0
C257 C 0.94821 0.50741 0.79006 0.0
C258 C 0.95293 0.49289 0.80759 0.0
C259 C 0.96124 0.5259 0.8098 0.0
C260 C 0.95538 0.52458 0.79739 0.0
C261 C 0.95997 0.51002 0.81507 0.0
C262 C 0.94717 0.49162 0.7952 0.0
C263 C 0.94149 0.50585 0.77714 0.0
O264 O 0.93646 0.4887 0.74041 0.0
O265 O 0.90761 0.47368 0.74566 0.0
O266 O 0.92393 0.49238 0.77399 0.0
O267 O 0.95307 0.50638 0.76927 0.0
H268 H 0.9254 0.51648 0.74902 0.0
H269 H 0.91746 0.53928 0.74091 0.0
H270 H 0.89556 0.50433 0.70638 0.0
H271 H 0.90328 0.48151 0.71464 0.0
H272 H 0.90793 0.40769 0.72735 0.0
H273 H 0.9172 0.43787 0.73917 0.0
H274 H 0.92936 0.39073 0.75815 0.0
H275 H 0.93883 0.42102 0.76978 0.0
H276 H 0.95148 0.4803 0.81136 0.0
H277 H 0.96683 0.53937 0.81524 0.0
H278 H 0.95634 0.53692 0.79353 0.0
H279 H 0.94166 0.47823 0.78964 0.0
C280 C 0.59747 0.49589 0.74294 0.0
C281 C 0.61035 0.51179 0.75091 0.0
C282 C 0.63154 0.52369 0.73497 0.0
C283 C 0.62726 0.52558 0.74697 0.0
C284 C 0.61845 0.50775 0.72702 0.0
C285 C 0.60158 0.49398 0.73098 0.0
U286 U 0.56334 0.47571 0.76722 0.0
O287 O 0.53231 0.46011 0.7654 0.0
O288 O 0.5478 0.44659 0.77244 0.0
C289 C 0.53127 0.44448 0.76882 0.0
C290 C 0.5799 0.48101 0.74702 0.0
C291 C 0.51852 0.42708 0.76083 0.0
C292 C 0.51087 0.40692 0.74188 0.0
C293 C 0.52301 0.42382 0.74921 0.0
C294 C 0.48959 0.39655 0.75768 0.0
C295 C 0.49403 0.39305 0.74605 0.0
C296 C 0.50174 0.41341 0.765 0.0
C297 C 0.57313 0.50198 0.79856 0.0
C298 C 0.55371 0.48629 0.81467 0.0
C299 C 0.57723 0.51974 0.81801 0.0
C300 C 0.58229 0.51904 0.80618 0.0
C301 C 0.56296 0.50333 0.82242 0.0
C302 C 0.55871 0.48564 0.80283 0.0
C303 C 0.57867 0.50121 0.78621 0.0
O304 O 0.58206 0.47157 0.75568 0.0
O305 O 0.56712 0.48579 0.74889 0.0
O306 O 0.56758 0.50178 0.77731 0.0
O307 O 0.58332 0.48824 0.78383 0.0
H308 H 0.60735 0.51347 0.76019 0.0
H309 H 0.63693 0.53778 0.75327 0.0
H310 H 0.6214 0.50571 0.71779 0.0
H311 H 0.59181 0.48174 0.72473 0.0
H312 H 0.5146 0.40476 0.73291 0.0
H313 H 0.53593 0.43429 0.74586 0.0
H314 H 0.4769 0.38608 0.76125 0.0
H315 H 0.49811 0.41571 0.77397 0.0
H316 H 0.54248 0.47349 0.81772 0.0
H317 H 0.58471 0.53303 0.82379 0.0
H318 H 0.59344 0.53179 0.80301 0.0
H319 H 0.55138 0.47236 0.79702 0.0
C320 C 0.54208 0.12239 0.7472 0.0
C321 C 0.52381 0.10711 0.74345 0.0
C322 C 0.51272 0.12902 0.73914 0.0
C323 C 0.50932 0.11041 0.73944 0.0
C324 C 0.53097 0.14428 0.74287 0.0
C325 C 0.54551 0.14099 0.74679 0.0
U326 U 0.565 0.10545 0.77074 0.0
O327 O 0.57977 0.08947 0.76849 0.0
O328 O 0.5946 0.11797 0.77833 0.0
C329 C 0.59596 0.10365 0.77361 0.0
C330 C 0.55763 0.11924 0.75153 0.0
C331 C 0.61215 0.1088 0.76658 0.0
C332 C 0.62844 0.12079 0.74861 0.0
C333 C 0.61284 0.11581 0.75515 0.0
C334 C 0.64275 0.11178 0.76488 0.0
C335 C 0.64362 0.1189 0.75342 0.0
C336 C 0.62715 0.10678 0.77139 0.0
C337 C 0.53905 0.08559 0.79891 0.0
C338 C 0.55202 0.07692 0.81622 0.0
C339 C 0.52052 0.07233 0.8158 0.0
C340 C 0.52239 0.07957 0.80444 0.0
C341 C 0.53532 0.07096 0.82186 0.0
C342 C 0.55386 0.08416 0.80482 0.0
C343 C 0.54079 0.0937 0.78716 0.0
O344 O 0.56827 0.12995 0.76142 0.0
O345 O 0.55356 0.10149 0.75152 0.0
O346 O 0.53955 0.08278 0.77752 0.0
O347 O 0.55435 0.11141 0.7872 0.0
H348 H 0.52064 0.09258 0.74363 0.0
H349 H 0.49537 0.09836 0.73671 0.0
H350 H 0.53408 0.15878 0.74259 0.0
H351 H 0.55946 0.15303 0.74953 0.0
H352 H 0.62875 0.12642 0.73988 0.0
H353 H 0.60136 0.1175 0.75132 0.0
H354 H 0.65407 0.1099 0.76878 0.0
H355 H 0.6268 0.10133 0.7802 0.0
H356 H 0.56361 0.0759 0.82059 0.0
H357 H 0.50759 0.06818 0.81995 0.0
H358 H 0.51086 0.08066 0.80002 0.0
H359 H 0.56684 0.08874 0.80064 0.0
C360 C 0.75348 0.56937 0.94833 0.0
C361 C 0.75323 0.58309 0.95645 0.0
C362 C 0.71928 0.56317 0.95683 0.0
C363 C 0.73633 0.58006 0.96062 0.0
C364 C 0.71954 0.54941 0.94876 0.0
C365 C 0.73643 0.55245 0.94458 0.0
U366 U 0.78944 0.58432 0.92472 0.0
O367 O 0.82047 0.60023 0.9272 0.0
O368 O 0.80534 0.57112 0.91826 0.0
C369 C 0.82173 0.58577 0.92262 0.0
C370 C 0.77152 0.57248 0.94416 0.0
C371 C 0.83436 0.58128 0.92985 0.0
C372 C 0.84211 0.5694 0.94778 0.0
C373 C 0.83005 0.57404 0.94122 0.0
C374 C 0.86287 0.57935 0.93167 0.0
C375 C 0.8586 0.57187 0.94302 0.0
C376 C 0.85085 0.58399 0.92516 0.0
C377 C 0.78079 0.60102 0.89483 0.0
C378 C 0.80031 0.60477 0.87836 0.0
C379 C 0.77743 0.61519 0.87669 0.0
C380 C 0.77209 0.60926 0.8882 0.0
C381 C 0.7915 0.61287 0.8716 0.0
C382 C 0.79504 0.59896 0.88989 0.0
C383 C 0.77486 0.59447 0.9068 0.0
O384 O 0.77023 0.56096 0.93486 0.0
O385 O 0.78468 0.59021 0.94351 0.0
O386 O 0.78561 0.6062 0.91632 0.0
O387 O 0.77018 0.57676 0.90796 0.0
H388 H 0.76614 0.59619 0.95963 0.0
H389 H 0.73661 0.59102 0.96676 0.0
H390 H 0.70673 0.5361 0.94582 0.0
H391 H 0.7361 0.54142 0.93848 0.0
H392 H 0.83834 0.56352 0.95644 0.0
H393 H 0.81731 0.57182 0.94495 0.0
H394 H 0.87559 0.58173 0.92785 0.0
H395 H 0.85439 0.58964 0.9164 0.0
H396 H 0.81137 0.60304 0.87477 0.0
H397 H 0.77029 0.62123 0.87166 0.0
H398 H 0.76108 0.61097 0.8919 0.0
H399 H 0.80202 0.59276 0.89494 0.0
C400 C 0.43734 0.19072 0.96378 0.0
C401 C 0.43282 0.17428 0.95629 0.0
C402 C 0.44544 0.1636 0.97271 0.0
C403 C 0.43682 0.16082 0.96073 0.0
C404 C 0.44969 0.18003 0.9802 0.0
C405 C 0.44568 0.19347 0.97576 0.0
U406 U 0.42193 0.20986 0.93752 0.0
O407 O 0.40611 0.22504 0.93714 0.0
O408 O 0.43488 0.23866 0.93173 0.0
C409 C 0.42048 0.24066 0.93409 0.0
C410 C 0.43409 0.20539 0.959 0.0
C411 C 0.42536 0.25814 0.94164 0.0
C412 C 0.43937 0.27889 0.96052 0.0
C413 C 0.43401 0.26177 0.95364 0.0
C414 C 0.42717 0.28872 0.94352 0.0
C415 C 0.43613 0.29263 0.9555 0.0
C416 C 0.42186 0.27162 0.93665 0.0
C417 C 0.40555 0.18278 0.90611 0.0
C418 C 0.40105 0.19774 0.88874 0.0
C419 C 0.39372 0.16504 0.88608 0.0
C420 C 0.39909 0.16596 0.89853 0.0
C421 C 0.39483 0.18099 0.88103 0.0
C422 C 0.40632 0.19861 0.90118 0.0
C423 C 0.41194 0.18398 0.91905 0.0
O424 O 0.44537 0.21502 0.95091 0.0
O425 O 0.41635 0.20018 0.95587 0.0
O426 O 0.40024 0.18342 0.92683 0.0
O427 O 0.42952 0.19725 0.92238 0.0
H428 H 0.42638 0.17197 0.947 0.0
H429 H 0.43315 0.14823 0.95478 0.0
H430 H 0.45655 0.18274 0.98941 0.0
H431 H 0.44935 0.20616 0.98162 0.0
H432 H 0.44603 0.28138 0.96977 0.0
H433 H 0.43677 0.25144 0.95763 0.0
H434 H 0.42469 0.29908 0.93933 0.0
H435 H 0.41525 0.26904 0.92738 0.0
H436 H 0.40181 0.21016 0.88516 0.0
H437 H 0.38912 0.152 0.88035 0.0
H438 H 0.39844 0.15363 0.90221 0.0
H439 H 0.41119 0.21169 0.90695 0.0
C440 C 0.7558 0.19249 0.95411 0.0
C441 C 0.74288 0.17659 0.94614 0.0
C442 C 0.72163 0.16484 0.96206 0.0
C443 C 0.72592 0.16288 0.95008 0.0
C444 C 0.73475 0.18078 0.97 0.0
C445 C 0.75166 0.19448 0.96605 0.0
U446 U 0.79009 0.21209 0.92989 0.0
O447 O 0.80587 0.24108 0.92448 0.0
O448 O 0.82112 0.22746 0.93176 0.0
C449 C 0.82233 0.24307 0.92816 0.0
C450 C 0.77345 0.20724 0.95003 0.0
C451 C 0.83524 0.26059 0.93598 0.0
C452 C 0.84334 0.28112 0.95482 0.0
C453 C 0.83107 0.26407 0.94766 0.0
C454 C 0.8641 0.2912 0.93872 0.0
C455 C 0.85997 0.29492 0.95041 0.0
C456 C 0.85183 0.27419 0.93158 0.0
C457 C 0.78049 0.18551 0.89877 0.0
C458 C 0.80076 0.20096 0.88298 0.0
C459 C 0.77643 0.16782 0.87929 0.0
C460 C 0.77107 0.16858 0.89103 0.0
C461 C 0.79132 0.18403 0.87511 0.0
C462 C 0.79543 0.20167 0.8947 0.0
C463 C 0.77473 0.18637 0.91103 0.0
O464 O 0.78617 0.20234 0.9483 0.0
O465 O 0.77143 0.2166 0.94127 0.0
O466 O 0.77018 0.19945 0.91326 0.0
O467 O 0.78566 0.18579 0.92005 0.0
H468 H 0.7459 0.17484 0.93688 0.0
H469 H 0.71624 0.15068 0.94378 0.0
H470 H 0.73179 0.18288 0.97922 0.0
H471 H 0.76147 0.20671 0.97229 0.0
H472 H 0.83985 0.28345 0.96383 0.0
H473 H 0.81829 0.25366 0.95119 0.0
H474 H 0.87663 0.30162 0.93497 0.0
H475 H 0.85521 0.27173 0.92256 0.0
H476 H 0.81209 0.21378 0.88002 0.0
H477 H 0.76903 0.1545 0.87355 0.0
H478 H 0.75956 0.15595 0.89406 0.0
H479 H 0.80287 0.21487 0.90058 0.0
C480 C 0.58148 0.83111 0.06709 0.0
C481 C 0.56932 0.83569 0.07288 0.0
C482 C 0.57359 0.85855 0.05827 0.0
C483 C 0.56536 0.84917 0.06848 0.0
C484 C 0.58591 0.85407 0.05257 0.0
C485 C 0.58974 0.84043 0.05692 0.0
U486 U 0.59858 0.8118 0.09254 0.0
O487 O 0.58673 0.78292 0.09805 0.0
O488 O 0.61525 0.7975 0.09223 0.0
C489 C 0.60136 0.78156 0.09532 0.0
C490 C 0.58559 0.81665 0.0715 0.0
C491 C 0.59674 0.76433 0.08758 0.0
C492 C 0.58261 0.74377 0.06863 0.0
C493 C 0.58802 0.76084 0.07561 0.0
C494 C 0.59493 0.73375 0.08545 0.0
C495 C 0.58583 0.72995 0.07352 0.0
C496 C 0.60031 0.7508 0.09242 0.0
C497 C 0.61488 0.83833 0.12419 0.0
C498 C 0.61929 0.82341 0.1416 0.0
C499 C 0.62851 0.85667 0.14392 0.0
C500 C 0.62256 0.85553 0.13156 0.0
C501 C 0.62681 0.84058 0.14912 0.0
C502 C 0.61344 0.82232 0.12925 0.0
C503 C 0.60811 0.83706 0.11132 0.0
O504 O 0.60351 0.82233 0.07432 0.0
O505 O 0.57465 0.80592 0.07941 0.0
O506 O 0.59067 0.82339 0.10804 0.0
O507 O 0.61985 0.83829 0.10338 0.0
H508 H 0.56273 0.82879 0.08077 0.0
H509 H 0.55556 0.85198 0.07298 0.0
H510 H 0.59273 0.86119 0.0448 0.0
H511 H 0.5992 0.83719 0.05233 0.0
H512 H 0.57584 0.74138 0.05942 0.0
H513 H 0.58518 0.77119 0.07175 0.0
H514 H 0.5974 0.72333 0.08955 0.0
H515 H 0.60695 0.75326 0.10168 0.0
H516 H 0.61752 0.81068 0.14532 0.0
H517 H 0.6345 0.87018 0.14939 0.0
H518 H 0.62385 0.86804 0.12776 0.0
H519 H 0.60755 0.80891 0.12366 0.0
C520 C 0.26385 0.83022 0.07695 0.0
C521 C 0.27671 0.84608 0.08495 0.0
C522 C 0.29788 0.85815 0.06901 0.0
C523 C 0.29361 0.85994 0.08102 0.0
C524 C 0.2848 0.84225 0.06102 0.0
C525 C 0.26795 0.82842 0.06497 0.0
U526 U 0.22982 0.80993 0.10125 0.0
O527 O 0.19879 0.79424 0.09949 0.0
O528 O 0.21438 0.78081 0.10649 0.0
C529 C 0.19782 0.77864 0.10291 0.0
C530 C 0.2463 0.81528 0.08102 0.0
C531 C 0.18504 0.76121 0.09497 0.0
C532 C 0.17724 0.74103 0.076 0.0
C533 C 0.18939 0.75797 0.0833 0.0
C534 C 0.15625 0.73055 0.09196 0.0
C535 C 0.16055 0.72708 0.08027 0.0
C536 C 0.1684 0.74746 0.09923 0.0
C537 C 0.2397 0.83618 0.1326 0.0
C538 C 0.2204 0.82044 0.14874 0.0
C539 C 0.24383 0.85392 0.15207 0.0
C540 C 0.24885 0.85325 0.14022 0.0
C541 C 0.22964 0.83748 0.15649 0.0
C542 C 0.22535 0.81981 0.13689 0.0
C543 C 0.24518 0.83544 0.12023 0.0
O544 O 0.24852 0.80584 0.08965 0.0
O545 O 0.23349 0.81999 0.08292 0.0
O546 O 0.23403 0.83596 0.11136 0.0
O547 O 0.24987 0.8225 0.11782 0.0
H548 H 0.27372 0.84769 0.09424 0.0
H549 H 0.30326 0.8721 0.08736 0.0
H550 H 0.28775 0.84029 0.05178 0.0
H551 H 0.25819 0.81621 0.05869 0.0
H552 H 0.18086 0.7389 0.067 0.0
H553 H 0.20221 0.76851 0.07986 0.0
H554 H 0.14367 0.72002 0.09561 0.0
H555 H 0.16489 0.74973 0.10825 0.0
H556 H 0.20923 0.80761 0.15181 0.0
H557 H 0.2513 0.86721 0.15785 0.0
H558 H 0.25994 0.86601 0.13703 0.0
H559 H 0.21803 0.80653 0.13108 0.0
C560 C 0.20796 0.45285 0.08076 0.0
C561 C 0.20365 0.46455 0.08804 0.0
C562 C 0.17844 0.45921 0.07262 0.0
C563 C 0.18913 0.46777 0.08398 0.0
C564 C 0.18265 0.44729 0.06544 0.0
C565 C 0.1973 0.44423 0.06945 0.0
U566 U 0.23292 0.43911 0.10494 0.0
O567 O 0.2465 0.42184 0.10326 0.0
O568 O 0.263 0.45152 0.11111 0.0
C569 C 0.26332 0.43625 0.10712 0.0
C570 C 0.22338 0.44942 0.08481 0.0
C571 C 0.27827 0.43963 0.09927 0.0
C572 C 0.29408 0.45191 0.08118 0.0
C573 C 0.27926 0.44791 0.08829 0.0
C574 C 0.30683 0.43905 0.09584 0.0
C575 C 0.30812 0.44765 0.08492 0.0
C576 C 0.29204 0.4351 0.10296 0.0
C577 C 0.21138 0.42698 0.13549 0.0
C578 C 0.22226 0.41506 0.15202 0.0
C579 C 0.19892 0.42429 0.15512 0.0
C580 C 0.19945 0.42909 0.14312 0.0
C581 C 0.21035 0.41728 0.15974 0.0
C582 C 0.22282 0.41995 0.13998 0.0
C583 C 0.21167 0.43236 0.12296 0.0
O584 O 0.23591 0.46156 0.09358 0.0
O585 O 0.21827 0.43169 0.08628 0.0
O586 O 0.20869 0.41934 0.11417 0.0
O587 O 0.22536 0.44938 0.1213 0.0
H588 H 0.21156 0.47133 0.09685 0.0
H589 H 0.18652 0.47724 0.08969 0.0
H590 H 0.17453 0.44019 0.05674 0.0
H591 H 0.20028 0.43505 0.06372 0.0
H592 H 0.29453 0.45832 0.07275 0.0
H593 H 0.26868 0.45144 0.0853 0.0
H594 H 0.31752 0.4358 0.09906 0.0
H595 H 0.2915 0.42876 0.11143 0.0
H596 H 0.23132 0.40983 0.15534 0.0
H597 H 0.18937 0.42586 0.16075 0.0
H598 H 0.1905 0.43445 0.13978 0.0
H599 H 0.23218 0.41832 0.13419 0.0
C600 C 0.4206 0.9023 0.28207 0.0
C601 C 0.40843 0.90604 0.27478 0.0
C602 C 0.38668 0.89673 0.29048 0.0
C603 C 0.3916 0.90326 0.27894 0.0
C604 C 0.39902 0.89309 0.29774 0.0
C605 C 0.41582 0.89585 0.29356 0.0
U606 U 0.45526 0.91647 0.25799 0.0
O607 O 0.48629 0.93202 0.26005 0.0
O608 O 0.47064 0.90287 0.25119 0.0
C609 C 0.4872 0.91739 0.25541 0.0
C610 C 0.43817 0.90487 0.27775 0.0
C611 C 0.49979 0.91271 0.26252 0.0
C612 C 0.50783 0.90119 0.28053 0.0
C613 C 0.49578 0.90588 0.27403 0.0
C614 C 0.528 0.91022 0.2641 0.0
C615 C 0.52404 0.90321 0.2756 0.0
C616 C 0.51598 0.91491 0.25763 0.0
C617 C 0.44634 0.93374 0.22844 0.0
C618 C 0.46731 0.93992 0.21256 0.0
C619 C 0.44155 0.94622 0.20986 0.0
C620 C 0.4362 0.94003 0.22133 0.0
C621 C 0.45716 0.94619 0.20532 0.0
C622 C 0.46197 0.93378 0.22402 0.0
C623 C 0.44053 0.92703 0.2404 0.0
O624 O 0.43599 0.89328 0.26823 0.0
O625 O 0.45129 0.92253 0.27693 0.0
O626 O 0.45152 0.93859 0.24991 0.0
O627 O 0.43573 0.90926 0.24139 0.0
H628 H 0.41196 0.91108 0.26587 0.0
H629 H 0.38253 0.90641 0.27318 0.0
H630 H 0.39556 0.88779 0.30659 0.0
H631 H 0.42504 0.89283 0.29928 0.0
H632 H 0.50429 0.89568 0.28931 0.0
H633 H 0.48328 0.90407 0.27792 0.0
H634 H 0.54051 0.91223 0.26012 0.0
H635 H 0.5193 0.92022 0.24877 0.0
H636 H 0.47923 0.93946 0.2093 0.0
H637 H 0.43357 0.95119 0.20461 0.0
H638 H 0.42413 0.94015 0.22464 0.0
H639 H 0.46994 0.92893 0.22941 0.0
C640 C 0.10655 0.52397 0.2975 0.0
C641 C 0.10432 0.50878 0.28962 0.0
C642 C 0.11488 0.49703 0.30648 0.0
C643 C 0.10847 0.49542 0.29407 0.0
C644 C 0.11677 0.51215 0.31437 0.0
C645 C 0.11266 0.52552 0.3099 0.0
U646 U 0.09089 0.54311 0.27135 0.0
O647 O 0.10363 0.57195 0.26564 0.0
O648 O 0.07487 0.5581 0.27107 0.0
C649 C 0.08915 0.57379 0.26804 0.0
C650 C 0.10313 0.53857 0.29279 0.0
C651 C 0.09391 0.59122 0.2756 0.0
C652 C 0.10807 0.61212 0.29442 0.0
C653 C 0.10279 0.59501 0.28755 0.0
C654 C 0.09531 0.62162 0.27753 0.0
C655 C 0.10451 0.62569 0.28945 0.0
C656 C 0.09007 0.60453 0.27067 0.0
C657 C 0.07459 0.51613 0.23987 0.0
C658 C 0.0702 0.53103 0.22244 0.0
C659 C 0.06223 0.49813 0.21994 0.0
C660 C 0.06775 0.49916 0.23238 0.0
C661 C 0.06358 0.51412 0.21481 0.0
C662 C 0.07562 0.53201 0.23487 0.0
C663 C 0.08104 0.51737 0.25281 0.0
O664 O 0.11437 0.54837 0.28472 0.0
O665 O 0.08536 0.53323 0.28967 0.0
O666 O 0.06931 0.51666 0.26061 0.0
O667 O 0.09859 0.53074 0.25614 0.0
H668 H 0.09957 0.50737 0.28001 0.0
H669 H 0.10664 0.48383 0.2878 0.0
H670 H 0.12188 0.51392 0.32394 0.0
H671 H 0.1145 0.53721 0.31608 0.0
H672 H 0.11493 0.61473 0.30362 0.0
H673 H 0.10581 0.58482 0.29149 0.0
H674 H 0.09258 0.63184 0.27337 0.0
H675 H 0.08328 0.60182 0.26144 0.0
H676 H 0.07115 0.5435 0.2188 0.0
H677 H 0.05732 0.48495 0.21428 0.0
H678 H 0.06688 0.48677 0.23611 0.0
H679 H 0.08077 0.54521 0.24056 0.0
C680 C 0.4214 0.52418 0.28662 0.0
C681 C 0.40388 0.52072 0.2812 0.0
C682 C 0.38738 0.49669 0.29505 0.0
C683 C 0.38709 0.50717 0.28538 0.0
C684 C 0.40491 0.50003 0.30036 0.0
C685 C 0.42171 0.51367 0.29623 0.0
U686 U 0.45682 0.54498 0.26287 0.0
O687 O 0.47304 0.57425 0.25801 0.0
O688 O 0.48786 0.56013 0.26516 0.0
C689 C 0.48934 0.57598 0.26182 0.0
C690 C 0.43939 0.53905 0.28272 0.0
C691 C 0.5021 0.59319 0.26995 0.0
C692 C 0.50947 0.61322 0.28893 0.0
C693 C 0.49742 0.59636 0.28152 0.0
C694 C 0.53104 0.6237 0.27329 0.0
C695 C 0.52638 0.62714 0.28486 0.0
C696 C 0.51899 0.60687 0.26591 0.0
C697 C 0.44751 0.5195 0.23129 0.0
C698 C 0.46755 0.53534 0.21549 0.0
C699 C 0.4438 0.502 0.21182 0.0
C700 C 0.4384 0.50257 0.22356 0.0
C701 C 0.4584 0.51841 0.20761 0.0
C702 C 0.46218 0.53586 0.22723 0.0
C703 C 0.44168 0.52008 0.24357 0.0
O704 O 0.45214 0.53417 0.28101 0.0
O705 O 0.43816 0.54936 0.27432 0.0
O706 O 0.43731 0.53325 0.24603 0.0
O707 O 0.45237 0.51902 0.25253 0.0
H708 H 0.40309 0.52862 0.27381 0.0
H709 H 0.3739 0.50523 0.28118 0.0
H710 H 0.40569 0.49205 0.3077 0.0
H711 H 0.43501 0.51608 0.3006 0.0
H712 H 0.50557 0.61534 0.29784 0.0
H713 H 0.48441 0.58588 0.28478 0.0
H714 H 0.54379 0.63421 0.2698 0.0
H715 H 0.52276 0.60465 0.25697 0.0
H716 H 0.47865 0.5483 0.21251 0.0
H717 H 0.43665 0.48866 0.20608 0.0
H718 H 0.42711 0.48978 0.2266 0.0
H719 H 0.4694 0.54907 0.23311 0.0
C720 C 0.53351 0.02038 0.05105 0.0
Eu721 Eu 0.51997 0.01804 0.02855 0.0
C722 C 0.52649 0.0143 0.06293 0.0
C723 C 0.53607 0.02649 0.07358 0.0
C724 C 0.52989 0.02101 0.085 0.0
C725 C 0.51399 1.00317 0.08599 0.0
C726 C 0.50427 0.99105 0.07525 0.0
C727 C 0.51046 0.99657 0.06382 0.0
C728 C 0.5082 0.04077 0.01928 0.0
C729 C 0.47447 0.98772 0.02445 0.0
C730 C 0.48615 1.00219 0.98021 0.0
Eu731 Eu 0.49968 1.00498 1.00277 0.0
C732 C 0.49277 1.00712 0.96806 0.0
C733 C 0.4851 0.99292 0.95823 0.0
C734 C 0.49025 0.99728 0.94647 0.0
C735 C 0.50309 0.01603 0.94425 0.0
C736 C 0.51113 0.03019 0.95419 0.0
C737 C 0.50605 0.02578 0.96599 0.0
C738 C 0.51151 0.98234 1.01216 0.0
C739 C 0.54513 0.03556 1.00685 0.0
O740 O 0.53068 1.00707 0.04261 0.0
O741 O 0.53068 0.03345 0.04672 0.0
O742 O 0.52395 0.04712 0.02616 0.0
O743 O 0.49903 0.02291 0.01814 0.0
O744 O 0.49052 0.99443 0.03156 0.0
O745 O 0.47417 0.99216 0.01311 0.0
O746 O 0.48979 0.01615 0.98838 0.0
O747 O 0.48812 0.98882 0.98487 0.0
O748 O 0.49564 0.97591 1.0054 0.0
O749 O 0.52065 1.00019 0.01315 0.0
O750 O 0.52909 0.02851 0.99968 0.0
O751 O 0.54549 0.03141 0.01826 0.0
H752 H 0.54839 0.04028 0.07307 0.0
H753 H 0.53751 0.03083 0.09304 0.0
H754 H 0.49209 0.97714 0.07569 0.0
H755 H 0.50283 0.98692 0.05571 0.0
H756 H 0.4749 0.97842 0.95963 0.0
H757 H 0.48407 0.98595 0.9391 0.0
H758 H 0.52093 0.0448 0.95281 0.0
H759 H 0.51227 0.03703 0.97342 0.0
C760 C 1.00455 0.52495 0.04976 0.0
Eu761 Eu 1.00561 0.51436 0.02722 0.0
C762 C 1.00892 0.52183 0.06233 0.0
C763 C 0.9952 0.51678 0.07053 0.0
C764 C 0.99909 0.51441 0.08264 0.0
C765 C 0.01688 0.5172 0.08685 0.0
C766 C 0.03055 0.52198 0.07854 0.0
C767 C 0.02659 0.52423 0.06639 0.0
C768 C 0.98278 0.47951 0.01529 0.0
C769 C 0.03624 0.5 0.02531 0.0
C770 C 0.01803 0.49781 0.97983 0.0
Eu771 Eu 0.0168 0.50806 1.00242 0.0
C772 C 0.01288 0.5006 0.96737 0.0
C773 C 0.02601 0.50543 0.95876 0.0
C774 C 0.02146 0.50785 0.94681 0.0
C775 C 1.00362 0.50539 0.9432 0.0
C776 C 0.99049 0.50068 0.95186 0.0
C777 C 0.9951 0.49837 0.96386 0.0
C778 C 0.03952 0.54291 0.01447 0.0
C779 C 0.98625 0.52237 1.00418 0.0
O780 O 0.01875 0.53457 0.04342 0.0
O781 O 0.99022 0.51054 0.04323 0.0
O782 O 0.97677 0.48853 0.02195 0.0
O783 O 1.0005 0.48868 0.01579 0.0
O784 O 0.02951 0.50854 0.03222 0.0
O785 O 0.03102 0.49564 0.01345 0.0
O786 O 1.00425 0.48757 0.98632 0.0
O787 O 0.032 0.51269 0.98625 0.0
O788 O 0.04566 0.5339 1.00791 0.0
O789 O 0.0218 0.53368 0.01382 0.0
O790 O 0.99271 0.51342 0.99743 0.0
O791 O 0.99159 0.52701 0.01603 0.0
H792 H 0.98145 0.51478 0.06758 0.0
H793 H 0.9881 0.51037 0.08869 0.0
H794 H 0.04446 0.52442 0.08148 0.0
H795 H 0.03744 0.52807 0.06023 0.0
H796 H 0.03978 0.50719 0.96128 0.0
H797 H 0.03178 0.51125 0.94031 0.0
H798 H 0.9767 0.49887 0.94938 0.0
H799 H 0.98475 0.49475 0.97036 0.0
C800 C 0.48605 0.49544 0.97947 0.0
Eu801 Eu 0.49993 0.50703 1.00226 0.0
C802 C 0.49313 0.49703 0.96737 0.0
C803 C 0.48446 0.50131 0.95766 0.0
C804 C 0.49082 0.50282 0.94607 0.0
C805 C 0.50597 0.5 0.94394 0.0
C806 C 0.51472 0.49583 0.95374 0.0
C807 C 0.50838 0.49438 0.96534 0.0
C808 C 0.51319 0.54229 0.01332 0.0
C809 C 0.54523 0.52142 1.00533 0.0
C810 C 0.53476 0.52625 0.05044 0.0
Eu811 Eu 0.52087 0.5148 0.02766 0.0
C812 C 0.52762 0.525 0.0625 0.0
C813 C 0.53594 0.52054 0.07231 0.0
C814 C 0.52941 0.5192 0.08384 0.0
C815 C 0.51445 0.52239 0.08578 0.0
C816 C 0.50609 0.52683 0.07591 0.0
C817 C 0.51259 0.52809 0.06437 0.0
C818 C 0.50757 0.47956 0.01649 0.0
C819 C 0.47564 0.50044 0.02466 0.0
O820 O 0.48945 0.48524 0.98689 0.0
O821 O 0.48823 0.51103 0.98506 0.0
O822 O 0.49722 0.53291 1.00651 0.0
O823 O 0.52179 0.53315 0.01346 0.0
O824 O 0.52898 0.51233 0.99827 0.0
O825 O 0.54606 0.52643 0.01705 0.0
O826 O 0.53193 0.53673 0.04297 0.0
O827 O 0.53201 0.51038 0.04492 0.0
O828 O 0.52358 0.48892 0.02325 0.0
O829 O 0.49902 0.48873 0.01647 0.0
O830 O 0.49195 0.50974 0.03163 0.0
O831 O 0.47473 0.49526 0.01294 0.0
H832 H 0.47274 0.5035 0.95905 0.0
H833 H 0.48395 0.50638 0.93881 0.0
H834 H 0.52627 0.49336 0.95241 0.0
H835 H 0.51534 0.49109 0.97269 0.0
H836 H 0.54757 0.51813 0.07106 0.0
H837 H 0.53629 0.51598 0.09128 0.0
H838 H 0.4944 0.52915 0.07708 0.0
H839 H 0.50586 0.53147 0.05692 0.0
C840 C 0.19991 0.35 0.38523 0.0
Eu841 Eu 0.18675 0.34979 0.36301 0.0
C842 C 0.19235 0.34411 0.39697 0.0
C843 C 0.17444 0.34103 0.3991 0.0
C844 C 0.16748 0.33542 0.41034 0.0
C845 C 0.17827 0.33266 0.41958 0.0
C846 C 0.19614 0.33565 0.41733 0.0
C847 C 0.20311 0.34134 0.40612 0.0
C848 C 0.17496 0.37312 0.35486 0.0
C849 C 0.14105 0.31975 0.35862 0.0
C850 C 0.15317 0.33818 0.31491 0.0
Eu851 Eu 0.16633 0.33838 0.33711 0.0
C852 C 0.16049 0.3453 0.30328 0.0
C853 C 0.17609 0.34474 0.29926 0.0
C854 C 0.18259 0.35145 0.28809 0.0
C855 C 0.17374 0.35905 0.28086 0.0
C856 C 0.15828 0.35977 0.28501 0.0
C857 C 0.15171 0.35292 0.2961 0.0
C858 C 0.17798 0.31499 0.34536 0.0
C859 C 0.21196 0.36843 0.34151 0.0
O860 O 0.19524 0.33631 0.37662 0.0
O861 O 0.19912 0.36438 0.38119 0.0
O862 O 0.19061 0.37911 0.36179 0.0
O863 O 0.1659 0.35528 0.35318 0.0
O864 O 0.15706 0.32649 0.36578 0.0
O865 O 0.14074 0.32434 0.34732 0.0
O866 O 0.15635 0.35105 0.32377 0.0
O867 O 0.15533 0.32438 0.31866 0.0
O868 O 0.1623 0.30904 0.33846 0.0
O869 O 0.18714 0.33284 0.34694 0.0
O870 O 0.19593 0.36193 0.33441 0.0
O871 O 0.21229 0.36356 0.35274 0.0
H872 H 0.16586 0.34296 0.39208 0.0
H873 H 0.15358 0.33301 0.41175 0.0
H874 H 0.20487 0.33385 0.4243 0.0
H875 H 0.21695 0.34362 0.4046 0.0
H876 H 0.18324 0.33911 0.30473 0.0
H877 H 0.19464 0.3509 0.28518 0.0
H878 H 0.15105 0.36535 0.27958 0.0
H879 H 0.13969 0.35351 0.29906 0.0
C880 C 0.66987 0.8585 0.38358 0.0
Eu881 Eu 0.67086 0.84715 0.36121 0.0
C882 C 0.67435 0.85574 0.39622 0.0
C883 C 0.6607 0.85089 0.40445 0.0
C884 C 0.66464 0.84868 0.41658 0.0
C885 C 0.68242 0.85141 0.42078 0.0
C886 C 0.69603 0.85605 0.41245 0.0
C887 C 0.69203 0.85815 0.40027 0.0
C888 C 0.64784 0.81195 0.34976 0.0
C889 C 0.70101 0.83213 0.35994 0.0
C890 C 0.6831 0.82851 0.31428 0.0
Eu891 Eu 0.68193 0.83968 0.33665 0.0
C892 C 0.67838 0.83125 0.3017 0.0
C893 C 0.69159 0.83544 0.29321 0.0
C894 C 0.68741 0.83778 0.28115 0.0
C895 C 0.66987 0.83586 0.27734 0.0
C896 C 0.65667 0.83181 0.28589 0.0
C897 C 0.66091 0.82958 0.29798 0.0
C898 C 0.70487 0.87487 0.3482 0.0
C899 C 0.65169 0.85452 0.33779 0.0
O900 O 0.68401 0.86791 0.37715 0.0
O901 O 0.65553 0.84391 0.37719 0.0
O902 O 0.6419 0.82132 0.35614 0.0
O903 O 0.66556 0.821 0.35028 0.0
O904 O 0.69482 0.84154 0.36653 0.0
O905 O 0.69544 0.82702 0.34816 0.0
O906 O 0.66905 0.81888 0.32073 0.0
O907 O 0.69732 0.84322 0.32066 0.0
O908 O 0.71091 0.8655 0.34192 0.0
O909 O 0.68715 0.86578 0.34755 0.0
O910 O 0.65804 0.84522 0.33128 0.0
O911 O 0.65704 0.85956 0.34961 0.0
H912 H 0.64695 0.84889 0.4015 0.0
H913 H 0.6537 0.84475 0.42266 0.0
H914 H 0.70993 0.85845 0.41538 0.0
H915 H 0.70282 0.86184 0.3941 0.0
H916 H 0.70513 0.83675 0.29589 0.0
H917 H 0.69777 0.84067 0.27474 0.0
H918 H 0.64311 0.83044 0.28323 0.0
H919 H 0.6505 0.82646 0.30438 0.0
C920 C 0.15331 0.82905 0.31374 0.0
Eu921 Eu 0.16747 0.84029 0.3365 0.0
C922 C 0.16028 0.83057 0.3016 0.0
C923 C 0.15153 0.83481 0.29192 0.0
C924 C 0.15784 0.83634 0.28032 0.0
C925 C 0.17302 0.83358 0.27815 0.0
C926 C 0.18184 0.82944 0.28792 0.0
C927 C 0.17555 0.82798 0.29954 0.0
C928 C 0.18048 0.87528 0.34792 0.0
C929 C 0.21285 0.85495 0.33919 0.0
C930 C 0.20281 0.85872 0.38451 0.0
Eu931 Eu 0.18878 0.84773 0.36171 0.0
C932 C 0.19562 0.85755 0.39655 0.0
C933 C 0.20372 0.85288 0.40637 0.0
C934 C 0.19708 0.85154 0.41786 0.0
C935 C 0.18221 0.8549 0.41975 0.0
C936 C 0.17408 0.85955 0.40987 0.0
C937 C 0.18069 0.86082 0.39837 0.0
C938 C 0.17566 0.81274 0.35019 0.0
C939 C 0.14353 0.83328 0.3591 0.0
O940 O 0.15645 0.81858 0.32106 0.0
O941 O 0.15591 0.84476 0.31941 0.0
O942 O 0.16445 0.86586 0.34118 0.0
O943 O 0.18927 0.86633 0.34781 0.0
O944 O 0.19652 0.84594 0.33222 0.0
O945 O 0.21383 0.85967 0.35098 0.0
O946 O 0.20042 0.86955 0.37711 0.0
O947 O 0.1996 0.84273 0.3789 0.0
O948 O 0.19178 0.82214 0.35684 0.0
O949 O 0.16694 0.82175 0.35043 0.0
O950 O 0.15993 0.84246 0.36597 0.0
O951 O 0.14242 0.82834 0.34732 0.0
H952 H 0.13981 0.83698 0.29334 0.0
H953 H 0.15092 0.83987 0.27308 0.0
H954 H 0.19342 0.82702 0.28657 0.0
H955 H 0.18257 0.82472 0.30688 0.0
H956 H 0.21525 0.85031 0.40516 0.0
H957 H 0.20378 0.84815 0.42532 0.0
H958 H 0.16247 0.86201 0.411 0.0
H959 H 0.17413 0.86435 0.39091 0.0
C960 C 0.8669 0.68522 0.71708 0.0
Eu961 Eu 0.85365 0.68376 0.69465 0.0
C962 C 0.85951 0.67911 0.72888 0.0
C963 C 0.86831 0.69159 0.73952 0.0
C964 C 0.86169 0.68613 0.75084 0.0
C965 C 0.84616 0.66801 0.75174 0.0
C966 C 0.83728 0.65555 0.74104 0.0
C967 C 0.84386 0.66107 0.7297 0.0
C968 C 0.84194 0.70687 0.68597 0.0
C969 C 0.80809 0.6533 0.69034 0.0
C970 C 0.81988 0.6705 0.64647 0.0
Eu971 Eu 0.8333 0.67165 0.66879 0.0
C972 C 0.82694 0.67793 0.63486 0.0
C973 C 0.84378 0.67968 0.63127 0.0
C974 C 0.84997 0.68656 0.62008 0.0
C975 C 0.83955 0.69201 0.61239 0.0
C976 C 0.82284 0.69044 0.61612 0.0
C977 C 0.81659 0.68343 0.62724 0.0
C978 C 0.84481 0.64843 0.67754 0.0
C979 C 0.8788 0.7019 0.67306 0.0
O980 O 0.86362 0.67188 0.70852 0.0
O981 O 0.8649 0.69885 0.71287 0.0
O982 O 0.8577 0.713 0.6928 0.0
O983 O 0.83279 0.68902 0.68457 0.0
O984 O 0.82411 0.66019 0.69751 0.0
O985 O 0.80774 0.65773 0.679 0.0
O986 O 0.82207 0.68303 0.65528 0.0
O987 O 0.82329 0.65752 0.65031 0.0
O988 O 0.82909 0.64236 0.67067 0.0
O989 O 0.85406 0.66629 0.67889 0.0
O990 O 0.86274 0.69538 0.66601 0.0
O991 O 0.87917 0.69717 0.68433 0.0
H992 H 0.8804 0.70557 0.73908 0.0
H993 H 0.86896 0.69596 0.75894 0.0
H994 H 0.82516 0.64158 0.74142 0.0
H995 H 0.83674 0.65121 0.7216 0.0
H996 H 0.8521 0.6757 0.6371 0.0
H997 H 0.863 0.6878 0.6175 0.0
H998 H 0.8144 0.69432 0.61034 0.0
H999 H 0.80359 0.68222 0.62987 0.0
C1000 C 0.33762 0.19308 0.71586 0.0
Eu1001 Eu 0.33824 0.18161 0.69345 0.0
C1002 C 0.34199 0.19016 0.72849 0.0
C1003 C 0.32812 0.18481 0.73661 0.0
C1004 C 0.33195 0.18247 0.74873 0.0
C1005 C 0.34984 0.1856 0.75305 0.0
C1006 C 0.36368 0.19076 0.74484 0.0
C1007 C 0.35979 0.19297 0.73267 0.0
C1008 C 0.31505 0.14632 0.68217 0.0
C1009 C 0.36826 0.16651 0.69192 0.0
C1010 C 0.34953 0.16258 0.64633 0.0
Eu1011 Eu 0.34882 0.17391 0.66876 0.0
C1012 C 0.34493 0.16558 0.63379 0.0
C1013 C 0.35821 0.16994 0.62533 0.0
C1014 C 0.35414 0.1725 0.6133 0.0
C1015 C 0.33661 0.17064 0.60949 0.0
C1016 C 0.32335 0.16642 0.618 0.0
C1017 C 0.32748 0.16397 0.63006 0.0
C1018 C 0.37195 0.20918 0.68015 0.0
C1019 C 0.31877 0.18895 0.67017 0.0
O1020 O 0.35178 0.20228 0.70941 0.0
O1021 O 0.32308 0.17869 0.70948 0.0
O1022 O 0.30923 0.15573 0.68862 0.0
O1023 O 0.33275 0.15537 0.68254 0.0
O1024 O 0.36237 0.17617 0.69854 0.0
O1025 O 0.36231 0.16113 0.6802 0.0
O1026 O 0.33544 0.15322 0.65281 0.0
O1027 O 0.36402 0.17704 0.65271 0.0
O1028 O 0.37787 0.19976 0.67379 0.0
O1029 O 0.35425 0.2001 0.67964 0.0
O1030 O 0.32492 0.17952 0.66359 0.0
O1031 O 0.32437 0.19409 0.68196 0.0
H1032 H 0.31428 0.1825 0.73357 0.0
H1033 H 0.32084 0.17814 0.75471 0.0
H1034 H 0.37767 0.19348 0.74787 0.0
H1035 H 0.37076 0.19707 0.7266 0.0
H1036 H 0.37173 0.1712 0.62801 0.0
H1037 H 0.36455 0.17552 0.60692 0.0
H1038 H 0.3098 0.16509 0.61535 0.0
H1039 H 0.31701 0.16072 0.63643 0.0
C1040 C 0.82016 0.16304 0.64734 0.0
Eu1041 Eu 0.83418 0.1745 0.67011 0.0
C1042 C 0.8271 0.16449 0.6352 0.0
C1043 C 0.8183 0.16861 0.62549 0.0
C1044 C 0.82452 0.16999 0.61387 0.0
C1045 C 0.83968 0.1672 0.6117 0.0
C1046 C 0.84857 0.16319 0.6215 0.0
C1047 C 0.84237 0.16187 0.63314 0.0
C1048 C 0.84749 0.2097 0.68128 0.0
C1049 C 0.87945 0.18874 0.67312 0.0
C1050 C 0.86898 0.19313 0.71827 0.0
Eu1051 Eu 0.85513 0.18203 0.69546 0.0
C1052 C 0.86172 0.19181 0.7303 0.0
C1053 C 0.86965 0.18684 0.74006 0.0
C1054 C 0.86295 0.18536 0.75153 0.0
C1055 C 0.8482 0.18888 0.75348 0.0
C1056 C 0.84025 0.19385 0.74367 0.0
C1057 C 0.84692 0.19526 0.73217 0.0
C1058 C 0.84168 0.14683 0.68416 0.0
C1059 C 0.81003 0.16815 0.69256 0.0
O1060 O 0.82339 0.15271 0.65473 0.0
O1061 O 0.82263 0.17875 0.65293 0.0
O1062 O 0.83153 0.20038 0.67446 0.0
O1063 O 0.85608 0.20055 0.68137 0.0
O1064 O 0.8632 0.17975 0.66606 0.0
O1065 O 0.8803 0.1937 0.68485 0.0
O1066 O 0.86641 0.20383 0.71085 0.0
O1067 O 0.86606 0.17725 0.71267 0.0
O1068 O 0.85775 0.15614 0.69088 0.0
O1069 O 0.83317 0.15604 0.68423 0.0
O1070 O 0.82636 0.17723 0.6995 0.0
O1071 O 0.80899 0.16299 0.68083 0.0
H1072 H 0.80657 0.17079 0.6269 0.0
H1073 H 0.81755 0.17343 0.60661 0.0
H1074 H 0.86014 0.16075 0.62015 0.0
H1075 H 0.84943 0.1587 0.6405 0.0
H1076 H 0.88109 0.18414 0.7388 0.0
H1077 H 0.86952 0.18173 0.75894 0.0
H1078 H 0.82873 0.19644 0.74484 0.0
H1079 H 0.84049 0.19903 0.72477 0.0
C1080 C 0.33297 0.88035 0.07254 0.0
C1081 C 0.31599 0.87261 0.06484 0.0
C1082 C 0.35009 0.89336 0.06843 0.0
C1083 C 0.37242 0.90909 0.03998 0.0
H1084 H 0.41057 0.95276 0.06119 0.0
C1085 C 0.43919 0.96783 0.02198 0.0
C1086 C 0.45638 0.97514 0.02937 0.0
C1087 C 0.42212 0.95572 0.0265 0.0
C1088 C 0.40014 0.94052 0.0552 0.0
H1089 H 0.30367 0.87303 0.04693 0.0
H1090 H 0.33349 0.89571 0.03976 0.0
H1091 H 0.38064 0.93107 0.06875 0.0
H1092 H 0.46904 0.9755 0.04737 0.0
H1093 H 0.43927 0.95421 0.0552 0.0
H1094 H 0.39189 0.91845 0.02644 0.0
C1095 C 0.33362 0.89145 0.0489 0.0
C1096 C 0.38298 0.92809 0.05953 0.0
C1097 C 0.31652 0.87844 0.05301 0.0
C1098 C 0.45608 0.97015 0.04142 0.0
C1099 C 0.43899 0.95803 0.04595 0.0
C1100 C 0.38955 0.92149 0.03566 0.0
C1101 C 0.35064 0.89895 0.05652 0.0
C1102 C 0.3689 0.91225 0.05196 0.0
C1103 C 0.42181 0.95059 0.03851 0.0
C1104 C 0.40362 0.93738 0.0432 0.0
H1105 H 0.3331 0.87597 0.08165 0.0
H1106 H 0.36295 0.89868 0.07448 0.0
H1107 H 0.36203 0.89684 0.03398 0.0
H1108 H 0.43885 0.97142 0.01267 0.0
H1109 H 0.40914 0.95049 0.02059 0.0
C1110 C 0.15174 0.46501 0.07638 0.0
C1111 C 0.16321 0.46296 0.06819 0.0
C1112 C 0.13783 0.46909 0.07225 0.0
C1113 C 0.12378 0.48794 0.04608 0.0
H1114 H 0.0757 0.46573 0.05964 0.0
C1115 C 0.05994 0.48967 0.02333 0.0
C1116 C 0.05008 0.49529 0.03087 0.0
C1117 C 0.07358 0.48593 0.0284 0.0
C1118 C 0.08914 0.47216 0.05586 0.0
H1119 H 0.16888 0.4636 0.04918 0.0
H1120 H 0.14421 0.46986 0.04193 0.0
H1121 H 0.09967 0.45845 0.06735 0.0
H1122 H 0.04662 0.50105 0.04971 0.0
H1123 H 0.07041 0.4942 0.05859 0.0
H1124 H 0.11302 0.50123 0.03439 0.0
C1125 C 0.14621 0.46875 0.05161 0.0
C1126 C 0.10291 0.46805 0.06029 0.0
C1127 C 0.16021 0.46484 0.05575 0.0
C1128 C 0.05398 0.49677 0.04364 0.0
C1129 C 0.06753 0.49279 0.04873 0.0
C1130 C 0.10997 0.49187 0.04159 0.0
C1131 C 0.13494 0.4711 0.05981 0.0
C1132 C 0.12037 0.47578 0.05538 0.0
C1133 C 0.0776 0.48753 0.04114 0.0
C1134 C 0.09246 0.48392 0.04636 0.0
H1135 H 0.15343 0.46339 0.086 0.0
H1136 H 0.12956 0.47095 0.07886 0.0
H1137 H 0.13719 0.49454 0.04228 0.0
H1138 H 0.05734 0.4884 0.01346 0.0
H1139 H 0.08097 0.48169 0.02233 0.0
C1140 C 0.56121 0.70174 0.05971 0.0
C1141 C 0.5791 0.71132 0.06643 0.0
C1142 C 0.5544 0.68376 0.05359 0.0
C1143 C 0.56928 0.6507 0.04157 0.0
H1144 H 0.51721 0.61251 0.04393 0.0
C1145 C 0.53909 0.57141 0.02556 0.0
C1146 C 0.52088 0.56163 0.01931 0.0
C1147 C 0.54637 0.58979 0.03118 0.0
C1148 C 0.53172 0.62306 0.04306 0.0
H1149 H 0.60409 0.70973 0.07169 0.0
H1150 H 0.59209 0.67822 0.06117 0.0
H1151 H 0.52969 0.64452 0.05369 0.0
H1152 H 0.49599 0.56332 0.01399 0.0
H1153 H 0.50873 0.59548 0.02368 0.0
H1154 H 0.57129 0.62919 0.03095 0.0
C1155 C 0.58337 0.68467 0.06056 0.0
C1156 C 0.53887 0.64142 0.04865 0.0
C1157 C 0.59017 0.70265 0.0667 0.0
C1158 C 0.51007 0.57053 0.01878 0.0
C1159 C 0.51733 0.5889 0.02439 0.0
C1160 C 0.56211 0.63233 0.03597 0.0
C1161 C 0.56532 0.67493 0.05404 0.0
C1162 C 0.55773 0.65547 0.04797 0.0
C1163 C 0.53556 0.59875 0.03066 0.0
C1164 C 0.54324 0.61829 0.03665 0.0
H1165 H 0.55224 0.70793 0.05941 0.0
H1166 H 0.54053 0.67674 0.04852 0.0
H1167 H 0.5838 0.66125 0.04075 0.0
H1168 H 0.54774 0.56487 0.02609 0.0
H1169 H 0.56037 0.59689 0.03606 0.0
C1170 C 0.89248 0.32165 0.95812 0.0
C1171 C 0.87279 0.31334 0.95779 0.0
C1172 C 0.90452 0.33937 0.96459 0.0
C1173 C 0.90539 0.38281 0.97672 0.0
H1174 H 0.95156 0.39322 0.99557 0.0
C1175 C 0.95087 0.45172 1.0086 0.0
C1176 C 0.97053 0.46051 1.00871 0.0
C1177 C 0.93913 0.43373 1.00242 0.0
C1178 C 0.93883 0.3906 0.99023 0.0
H1179 H 0.85035 0.31713 0.96412 0.0
H1180 H 0.87134 0.34785 0.9756 0.0
H1181 H 0.93063 0.36168 0.98501 0.0
H1182 H 0.9934 0.45746 1.00246 0.0
H1183 H 0.97287 0.42604 0.99151 0.0
H1184 H 0.91357 0.41169 0.98193 0.0
C1185 C 0.87748 0.34076 0.97072 0.0
C1186 C 0.92682 0.37252 0.98419 0.0
C1187 C 0.86544 0.32303 0.96426 0.0
C1188 C 0.97827 0.45099 1.00252 0.0
C1189 C 0.96652 0.43296 0.99633 0.0
C1190 C 0.91738 0.40086 0.98276 0.0
C1191 C 0.89716 0.34922 0.97088 0.0
C1192 C 0.90993 0.3684 0.97738 0.0
C1193 C 0.9468 0.42413 0.99619 0.0
C1194 C 0.93422 0.40497 0.98962 0.0
H1195 H 0.89861 0.31446 0.95335 0.0
H1196 H 0.91959 0.34552 0.96444 0.0
H1197 H 0.89268 0.38023 0.97137 0.0
H1198 H 0.94452 0.45874 0.01333 0.0
H1199 H 0.92403 0.42724 1.00264 0.0
C1200 C 0.70086 0.56496 0.97371 0.0
C1201 C 0.70131 0.55976 0.96141 0.0
C1202 C 0.68392 0.56139 0.97808 0.0
C1203 C 0.63229 0.53096 0.97141 0.0
H1204 H 0.63121 0.56814 0.99421 0.0
C1205 C 0.56273 0.52152 0.98742 0.0
C1206 C 0.56297 0.52635 0.99991 0.0
C1207 C 0.57949 0.52602 0.98239 0.0
C1208 C 0.6313 0.55753 0.98793 0.0
H1209 H 0.68431 0.5471 0.94399 0.0
H1210 H 0.65475 0.54083 0.95163 0.0
H1211 H 0.66067 0.57528 0.98605 0.0
H1212 H 0.5811 0.53977 0.01689 0.0
H1213 H 0.61021 0.54742 1.00815 0.0
H1214 H 0.60295 0.51316 0.97335 0.0
C1215 C 0.66747 0.54742 0.95794 0.0
C1216 C 0.6482 0.56162 0.98326 0.0
C1217 C 0.68442 0.55102 0.95356 0.0
C1218 C 0.58037 0.53587 1.00723 0.0
C1219 C 0.59711 0.54037 1.0022 0.0
C1220 C 0.6154 0.52686 0.97608 0.0
C1221 C 0.667 0.55251 0.97026 0.0
C1222 C 0.64892 0.54835 0.97499 0.0
C1223 C 0.59688 0.53548 0.98972 0.0
C1224 C 0.61472 0.54005 0.98446 0.0
H1225 H 0.71355 0.57145 0.98006 0.0
H1226 H 0.68402 0.56523 0.98767 0.0
H1227 H 0.63241 0.52031 0.96519 0.0
H1228 H 0.54961 0.51426 0.9815 0.0
H1229 H 0.57884 0.52224 0.97271 0.0
C1230 C 0.44801 0.14486 0.98937 0.0
C1231 C 0.45045 0.14972 0.97729 0.0
C1232 C 0.45343 0.1324 0.99381 0.0
C1233 C 0.46463 0.09548 0.98397 0.0
H1234 H 0.49132 0.10814 0.01649 0.0
C1235 C 0.51257 0.07265 0.016 0.0
C1236 C 0.50128 0.05282 0.01426 0.0
C1237 C 0.50597 0.08412 1.0114 0.0
C1238 C 0.48398 0.10446 1.00736 0.0
H1239 H 0.46052 0.14523 0.9604 0.0
H1240 H 0.46991 0.12346 0.96813 0.0
H1241 H 0.48041 0.12867 1.00857 0.0
H1242 H 0.47427 0.02935 1.00635 0.0
H1243 H 0.46268 0.04937 0.99832 0.0
H1244 H 0.46854 0.07146 0.98269 0.0
C1245 C 0.46358 0.1291 0.97412 0.0
C1246 C 0.47753 0.1161 1.00288 0.0
C1247 C 0.45818 0.14158 0.96969 0.0
C1248 C 0.4833 0.04462 1.00777 0.0
C1249 C 0.47671 0.05608 1.00314 0.0
C1250 C 0.47104 0.0838 0.98847 0.0
C1251 C 0.4614 0.12448 0.98626 0.0
C1252 C 0.46783 0.11179 0.99111 0.0
C1253 C 0.48794 0.07597 1.00495 0.0
C1254 C 0.48087 0.0882 1.0002 0.0
H1255 H 0.44182 0.15064 0.9954 0.0
H1256 H 0.45128 0.12888 1.00314 0.0
H1257 H 0.45705 0.09167 0.97491 0.0
H1258 H 0.52653 0.07933 0.02093 0.0
H1259 H 0.51508 0.09938 0.01281 0.0
C1260 C 0.68652 0.14276 0.95853 0.0
C1261 C 0.70348 0.15051 0.96625 0.0
C1262 C 0.66937 0.12984 0.96266 0.0
C1263 C 0.64698 0.11438 0.99112 0.0
H1264 H 0.60883 0.07057 0.97001 0.0
C1265 C 0.58039 0.05564 1.00927 0.0
C1266 C 0.56316 0.04823 1.00191 0.0
C1267 C 0.59741 0.06779 1.00472 0.0
C1268 C 0.61926 0.08285 0.97598 0.0
H1269 H 0.71574 0.1502 0.98421 0.0
H1270 H 0.68588 0.12768 0.9914 0.0
H1271 H 0.63876 0.09219 0.96241 0.0
H1272 H 0.55037 0.04774 0.98391 0.0
H1273 H 0.58009 0.06908 0.97602 0.0
H1274 H 0.62752 0.10511 1.00467 0.0
C1275 C 0.68578 0.13187 0.98223 0.0
C1276 C 0.63641 0.09524 0.97162 0.0
C1277 C 0.70291 0.14478 0.97811 0.0
C1278 C 0.56338 0.05316 0.98984 0.0
C1279 C 0.58043 0.06532 0.98528 0.0
C1280 C 0.62985 0.10201 0.99547 0.0
C1281 C 0.66878 0.12435 0.97459 0.0
C1282 C 0.6505 0.11113 0.97916 0.0
C1283 C 0.59764 0.07285 0.99269 0.0
C1284 C 0.61579 0.08606 0.98797 0.0
H1285 H 0.68643 0.14705 0.9494 0.0
H1286 H 0.65652 0.1245 0.95659 0.0
H1287 H 0.65737 0.12667 0.99709 0.0
H1288 H 0.58079 0.0521 0.01859 0.0
H1289 H 0.61042 0.0731 1.01061 0.0
C1290 C 0.87919 0.55733 0.94338 0.0
C1291 C 0.87126 0.56653 0.94974 0.0
C1292 C 0.89151 0.55273 0.94956 0.0
C1293 C 0.9065 0.54542 0.9802 0.0
H1294 H 0.9507 0.55316 0.96495 0.0
C1295 C 0.96574 0.53699 1.0051 0.0
C1296 C 0.97315 0.52774 0.99821 0.0
C1297 C 0.95334 0.54198 0.99943 0.0
C1298 C 0.93833 0.55073 0.96928 0.0
H1299 H 0.87 0.57803 0.96764 0.0
H1300 H 0.89157 0.57001 0.97846 0.0
H1301 H 0.92895 0.5613 0.95469 0.0
H1302 H 0.97325 0.51644 0.97994 0.0
H1303 H 0.95158 0.52501 0.97011 0.0
H1304 H 0.91593 0.53482 0.99479 0.0
C1305 C 0.88808 0.56618 0.96868 0.0
C1306 C 0.92585 0.55539 0.9634 0.0
C1307 C 0.87573 0.57078 0.96249 0.0
C1308 C 0.96787 0.5236 0.98553 0.0
C1309 C 0.95552 0.52862 0.97987 0.0
C1310 C 0.91902 0.54076 0.98609 0.0
C1311 C 0.89623 0.55722 0.96227 0.0
C1312 C 0.90971 0.55267 0.96874 0.0
C1313 C 0.94812 0.53789 0.98675 0.0
C1314 C 0.93502 0.54325 0.98066 0.0
H1315 H 0.87576 0.55351 0.9336 0.0
H1316 H 0.89721 0.54548 0.94438 0.0
H1317 H 0.8941 0.54294 0.9845 0.0
H1318 H 0.96951 0.54042 0.01489 0.0
H1319 H 0.94805 0.54929 1.00497 0.0
C1320 C 0.43124 0.31961 0.96219 0.0
C1321 C 0.44255 0.3112 0.96257 0.0
C1322 C 0.43766 0.33746 0.9684 0.0
C1323 C 0.47281 0.37191 0.99305 0.0
H1324 H 0.46455 0.40832 0.97657 0.0
C1325 C 0.51052 0.45124 1.01088 0.0
C1326 C 0.49979 0.46023 1.01043 0.0
C1327 C 0.50314 0.43287 1.00523 0.0
C1328 C 0.46678 0.39825 0.98136 0.0
H1329 H 0.46949 0.31499 0.96978 0.0
H1330 H 0.48069 0.34611 0.98061 0.0
H1331 H 0.4522 0.37645 0.96655 0.0
H1332 H 0.47294 0.45715 1.0038 0.0
H1333 H 0.45999 0.42502 0.99393 0.0
H1334 H 0.48751 0.39377 1.00782 0.0
C1335 C 0.46673 0.33879 0.97565 0.0
C1336 C 0.45969 0.37998 0.97562 0.0
C1337 C 0.46031 0.32094 0.96945 0.0
C1338 C 0.48156 0.45057 1.00422 0.0
C1339 C 0.47418 0.43221 0.99853 0.0
C1340 C 0.47992 0.39019 0.99878 0.0
C1341 C 0.45554 0.34733 0.97513 0.0
C1342 C 0.46268 0.36661 0.98138 0.0
C1343 C 0.48488 0.42313 0.999 0.0
C1344 C 0.47705 0.4036 0.99298 0.0
H1345 H 0.41737 0.31236 0.95712 0.0
H1346 H 0.42856 0.34349 0.96797 0.0
H1347 H 0.47512 0.36187 0.99782 0.0
H1348 H 0.52465 0.45841 0.01558 0.0
H1349 H 0.51184 0.42638 1.00561 0.0
C1350 C 0.12812 0.70049 0.0723 0.0
C1351 C 0.14781 0.70881 0.07272 0.0
C1352 C 0.11614 0.68292 0.06564 0.0
C1353 C 0.11469 0.64948 0.04098 0.0
H1354 H 0.0712 0.61236 0.05568 0.0
C1355 C 0.07125 0.571 0.02121 0.0
C1356 C 0.05156 0.56196 0.02102 0.0
C1357 C 0.08274 0.58909 0.02734 0.0
C1358 C 0.08315 0.62263 0.05137 0.0
H1359 H 0.17034 0.70514 0.06643 0.0
H1360 H 0.14946 0.67451 0.0548 0.0
H1361 H 0.09168 0.64374 0.06651 0.0
H1362 H 0.02839 0.56467 0.02705 0.0
H1363 H 0.04845 0.59637 0.03771 0.0
H1364 H 0.10619 0.62834 0.02587 0.0
C1365 C 0.14326 0.68169 0.0595 0.0
C1366 C 0.09489 0.64063 0.05758 0.0
C1367 C 0.15524 0.69927 0.06616 0.0
C1368 C 0.04355 0.5713 0.0271 0.0
C1369 C 0.05505 0.58941 0.03324 0.0
C1370 C 0.10294 0.63148 0.03477 0.0
C1371 C 0.12357 0.67324 0.05923 0.0
C1372 C 0.11084 0.65425 0.05248 0.0
C1373 C 0.07479 0.59854 0.03341 0.0
C1374 C 0.08707 0.61781 0.03992 0.0
H1375 H 0.12193 0.70761 0.07708 0.0
H1376 H 0.10104 0.67697 0.06545 0.0
H1377 H 0.12669 0.65972 0.03671 0.0
H1378 H 0.0778 0.56406 0.01665 0.0
H1379 H 0.09789 0.59558 0.02744 0.0
C1380 C 0.33126 0.44015 0.07591 0.0
C1381 C 0.32436 0.45266 0.07768 0.0
C1382 C 0.347 0.44521 0.06952 0.0
C1383 C 0.38909 0.48713 0.06083 0.0
H1384 H 0.39153 0.45052 0.03827 0.0
C1385 C 0.45862 0.50076 0.04269 0.0
C1386 C 0.45799 0.4952 0.03028 0.0
C1387 C 0.44202 0.49569 0.04806 0.0
C1388 C 0.39102 0.46095 0.04447 0.0
H1389 H 0.32858 0.48027 0.07405 0.0
H1390 H 0.35587 0.48898 0.06276 0.0
H1391 H 0.36279 0.44135 0.04807 0.0
H1392 H 0.43928 0.47996 0.01377 0.0
H1393 H 0.41031 0.4712 0.02314 0.0
H1394 H 0.41725 0.50678 0.05717 0.0
C1395 C 0.34919 0.47532 0.06641 0.0
C1396 C 0.37462 0.45564 0.05018 0.0
C1397 C 0.33342 0.47023 0.07276 0.0
C1398 C 0.44032 0.48447 0.02336 0.0
C1399 C 0.42368 0.47934 0.02874 0.0
C1400 C 0.4055 0.49242 0.05516 0.0
C1401 C 0.35626 0.46293 0.06479 0.0
C1402 C 0.37349 0.46865 0.05846 0.0
C1403 C 0.42434 0.4849 0.04116 0.0
C1404 C 0.4067 0.47938 0.04695 0.0
H1405 H 0.32449 0.42643 0.07948 0.0
H1406 H 0.35216 0.4354 0.06852 0.0
H1407 H 0.38877 0.49745 0.06725 0.0
H1408 H 0.47195 0.50897 0.04832 0.0
H1409 H 0.44302 0.49999 0.05769 0.0
C1410 C 0.56639 0.88489 0.06153 0.0
C1411 C 0.56902 0.87266 0.05348 0.0
C1412 C 0.56115 0.89745 0.05704 0.0
C1413 C 0.53929 0.90509 0.02903 0.0
H1414 H 0.55703 0.95451 0.04637 0.0
C1415 C 0.50646 0.95068 0.01673 0.0
C1416 C 0.51849 0.97037 0.01718 0.0
C1417 C 0.51309 0.93921 0.02127 0.0
C1418 C 0.55208 0.94085 0.04133 0.0
H1419 H 0.56847 0.86437 0.03433 0.0
H1420 H 0.56012 0.88678 0.02653 0.0
H1421 H 0.56869 0.93431 0.05369 0.0
H1422 H 0.54683 0.99361 0.02275 0.0
H1423 H 0.55862 0.97358 0.03041 0.0
H1424 H 0.52317 0.91185 0.01644 0.0
C1425 C 0.56167 0.88635 0.03633 0.0
C1426 C 0.55859 0.92913 0.04563 0.0
C1427 C 0.56674 0.87367 0.04082 0.0
C1428 C 0.53725 0.97845 0.02233 0.0
C1429 C 0.54395 0.96696 0.02678 0.0
C1430 C 0.53292 0.91686 0.02467 0.0
C1431 C 0.55857 0.89825 0.04438 0.0
C1432 C 0.55219 0.91105 0.03958 0.0
C1433 C 0.53197 0.94717 0.02626 0.0
C1434 C 0.53911 0.93484 0.03081 0.0
H1435 H 0.56832 0.88476 0.07135 0.0
H1436 H 0.55872 0.90623 0.06353 0.0
H1437 H 0.53384 0.89118 0.02422 0.0
H1438 H 0.49189 0.94413 0.01289 0.0
H1439 H 0.50335 0.9241 0.02095 0.0
C1440 C 0.98309 0.21087 0.38686 0.0
C1441 C 0.98222 0.2051 0.39873 0.0
C1442 C 1.00033 0.22399 0.38295 0.0
C1443 C 0.05163 0.24376 0.38951 0.0
H1444 H 0.05501 0.28265 0.36936 0.0
C1445 C 0.12276 0.30249 0.37569 0.0
C1446 C 0.12299 0.30716 0.36356 0.0
C1447 C 0.1057 0.29057 0.38031 0.0
C1448 C 0.05426 0.27176 0.37488 0.0
H1449 H 0.99885 0.20871 0.41581 0.0
H1450 H 0.02888 0.23186 0.40907 0.0
H1451 H 0.02505 0.26108 0.37688 0.0
H1452 H 0.1054 0.30292 0.34679 0.0
H1453 H 0.07574 0.28202 0.35481 0.0
H1454 H 0.08081 0.25436 0.38745 0.0
C1455 C 0.01623 0.22607 0.40274 0.0
C1456 C 0.03709 0.25939 0.3792 0.0
C1457 C 0.99899 0.21296 0.40665 0.0
C1458 C 0.10576 0.29967 0.35618 0.0
C1459 C 0.08872 0.28777 0.36081 0.0
C1460 C 0.06881 0.25613 0.38519 0.0
C1461 C 0.01713 0.23167 0.39082 0.0
C1462 C 0.03553 0.24518 0.38651 0.0
C1463 C 0.08847 0.28306 0.37292 0.0
C1464 C 0.07031 0.27021 0.37777 0.0
H1465 H 0.97042 0.20526 0.38057 0.0
H1466 H 1.00052 0.22785 0.37368 0.0
H1467 H 0.05086 0.2328 0.39497 0.0
H1468 H 0.13574 0.30804 0.38165 0.0
H1469 H 0.106 0.28742 0.38973 0.0
C1470 C 0.83393 0.81484 0.39704 0.0
C1471 C 0.83004 0.79776 0.40178 0.0
C1472 C 0.81931 0.8182 0.3935 0.0
C1473 C 0.7683 0.79334 0.38382 0.0
H1474 H 0.7743 0.84325 0.39047 0.0
C1475 C 0.71994 0.81592 0.35906 0.0
C1476 C 0.71443 0.82709 0.36581 0.0
C1477 C 0.73317 0.81173 0.36431 0.0
C1478 C 0.77232 0.82918 0.38866 0.0
H1479 H 0.80769 0.77075 0.40644 0.0
H1480 H 0.78221 0.7767 0.40039 0.0
H1481 H 0.79916 0.83728 0.39819 0.0
H1482 H 0.71834 0.84241 0.38346 0.0
H1483 H 0.74147 0.83502 0.39266 0.0
H1484 H 0.74146 0.78522 0.37431 0.0
C1485 C 0.79657 0.78746 0.39935 0.0
C1486 C 0.78666 0.82582 0.39295 0.0
C1487 C 0.81119 0.78413 0.40292 0.0
C1488 C 0.72229 0.83378 0.378 0.0
C1489 C 0.73562 0.82964 0.38325 0.0
C1490 C 0.754 0.79672 0.37949 0.0
C1491 C 0.80045 0.80453 0.39457 0.0
C1492 C 0.78489 0.80791 0.39048 0.0
C1493 C 0.74126 0.81863 0.37644 0.0
C1494 C 0.75592 0.81473 0.38175 0.0
H1495 H 0.84831 0.82572 0.39616 0.0
H1496 H 0.82278 0.8314 0.38973 0.0
H1497 H 0.76653 0.77943 0.38167 0.0
H1498 H 0.71421 0.81053 0.34964 0.0
H1499 H 0.73739 0.80343 0.35876 0.0
C1500 C 0.25573 0.03537 0.40177 0.0
C1501 C 0.24439 0.04375 0.40141 0.0
C1502 C 0.24915 0.01733 0.39579 0.0
C1503 C 0.20504 0.9735 0.38409 0.0
H1504 H 0.23779 0.96214 0.3661 0.0
C1505 C 0.17693 0.90311 0.35384 0.0
C1506 C 0.18799 0.89447 0.35411 0.0
C1507 C 0.18399 0.92134 0.35963 0.0
C1508 C 0.22853 0.96502 0.37121 0.0
H1509 H 0.21727 0.03976 0.39442 0.0
H1510 H 0.20593 1.00845 0.38382 0.0
H1511 H 0.24988 0.99408 0.37597 0.0
H1512 H 0.2151 0.89804 0.3606 0.0
H1513 H 0.22739 0.92982 0.37088 0.0
H1514 H 0.18371 0.94447 0.37939 0.0
C1515 C 0.21984 0.01574 0.38883 0.0
C1516 C 0.23546 0.98334 0.37686 0.0
C1517 C 0.22643 0.03379 0.39479 0.0
C1518 C 0.20626 0.90437 0.36028 0.0
C1519 C 0.21334 0.92262 0.36608 0.0
C1520 C 0.19813 0.95521 0.37847 0.0
C1521 C 0.23106 1.00724 0.38934 0.0
C1522 C 0.22377 0.9878 0.38333 0.0
C1523 C 0.20228 0.93133 0.36581 0.0
C1524 C 0.20977 0.95075 0.37193 0.0
H1525 H 0.26971 0.04275 0.40669 0.0
H1526 H 0.25809 0.01113 0.39642 0.0
H1527 H 0.19577 0.97638 0.3892 0.0
H1528 H 0.1628 0.8958 0.34913 0.0
H1529 H 0.1752 0.92772 0.3591 0.0
C1530 C 0.53126 0.65499 0.29874 0.0
C1531 C 0.53891 0.64542 0.29246 0.0
C1532 C 0.54304 0.67266 0.30534 0.0
C1533 C 0.59201 0.70449 0.31949 0.0
H1534 H 0.57882 0.74361 0.31662 0.0
C1535 C 0.64331 0.78308 0.33746 0.0
C1536 C 0.63556 0.79281 0.34338 0.0
C1537 C 0.63157 0.76494 0.33141 0.0
C1538 C 0.5826 0.73279 0.31764 0.0
H1539 H 0.56499 0.64669 0.28853 0.0
H1540 H 0.58554 0.67764 0.29987 0.0
H1541 H 0.55818 0.71211 0.30605 0.0
H1542 H 0.60954 0.7913 0.34769 0.0
H1543 H 0.58905 0.75959 0.33725 0.0
H1544 H 0.6165 0.72524 0.33105 0.0
C1545 C 0.57042 0.67143 0.29976 0.0
C1546 C 0.57075 0.71471 0.31158 0.0
C1547 C 0.55863 0.65378 0.29315 0.0
C1548 C 0.61589 0.78411 0.34317 0.0
C1549 C 0.60416 0.76601 0.33712 0.0
C1550 C 0.60388 0.72259 0.32555 0.0
C1551 C 0.56277 0.68117 0.30584 0.0
C1552 C 0.5753 0.70033 0.31244 0.0
C1553 C 0.61185 0.7562 0.33116 0.0
C1554 C 0.59931 0.73695 0.3247 0.0
H1555 H 0.51614 0.64905 0.29832 0.0
H1556 H 0.53669 0.67966 0.31006 0.0
H1557 H 0.59581 0.69367 0.32047 0.0
H1558 H 0.65845 0.78947 0.33748 0.0
H1559 H 0.63795 0.75787 0.32679 0.0
C1560 C 0.36812 0.8987 0.30719 0.0
C1561 C 0.36871 0.89355 0.29491 0.0
C1562 C 0.35116 0.89527 0.31145 0.0
C1563 C 0.29954 0.86523 0.30448 0.0
H1564 H 0.29864 0.90211 0.32765 0.0
C1565 C 0.23014 0.85552 0.32105 0.0
C1566 C 0.23052 0.86008 0.33361 0.0
C1567 C 0.24683 0.86015 0.31588 0.0
C1568 C 0.29868 0.89159 0.32127 0.0
H1569 H 0.35186 0.88078 0.27745 0.0
H1570 H 0.32231 0.8751 0.28483 0.0
H1571 H 0.32806 0.9093 0.31943 0.0
H1572 H 0.24885 0.87316 0.35055 0.0
H1573 H 0.27783 0.88106 0.34156 0.0
H1574 H 0.27018 0.84745 0.3064 0.0
C1575 C 0.33496 0.88162 0.29121 0.0
C1576 C 0.31555 0.89571 0.31655 0.0
C1577 C 0.35194 0.88507 0.28694 0.0
C1578 C 0.24799 0.86948 0.34084 0.0
C1579 C 0.26466 0.87412 0.33567 0.0
C1580 C 0.28266 0.8611 0.3092 0.0
C1581 C 0.33435 0.88661 0.30353 0.0
C1582 C 0.31623 0.88252 0.30817 0.0
C1583 C 0.26429 0.86949 0.32313 0.0
C1584 C 0.28206 0.87417 0.31773 0.0
H1585 H 0.38081 0.90545 0.31354 0.0
H1586 H 0.35117 0.89913 0.32102 0.0
H1587 H 0.29962 0.85464 0.29818 0.0
H1588 H 0.21695 0.84835 0.31519 0.0
H1589 H 0.24607 0.85657 0.30616 0.0
C1590 C 0.11518 0.47642 0.32256 0.0
C1591 C 0.12007 0.48332 0.31113 0.0
C1592 C 0.12059 0.46398 0.32708 0.0
C1593 C 0.1557 0.44896 0.32407 0.0
H1594 H 0.12145 0.40619 0.34075 0.0
C1595 C 0.18028 0.40524 0.35119 0.0
C1596 C 0.1684 0.38546 0.34987 0.0
C1597 C 0.17415 0.41694 0.34634 0.0
C1598 C 0.13114 0.418 0.33604 0.0
H1599 H 0.13452 0.48257 0.29549 0.0
H1600 H 0.14372 0.46067 0.30329 0.0
H1601 H 0.11086 0.42668 0.33224 0.0
H1602 H 0.14079 0.36235 0.34257 0.0
H1603 H 0.13012 0.38277 0.33399 0.0
H1604 H 0.17591 0.44017 0.32774 0.0
C1605 C 0.13582 0.46499 0.3088 0.0
C1606 C 0.12513 0.42985 0.33128 0.0
C1607 C 0.13036 0.47737 0.30427 0.0
C1608 C 0.15025 0.37757 0.34368 0.0
C1609 C 0.1441 0.38927 0.33885 0.0
C1610 C 0.16172 0.43716 0.32887 0.0
C1611 C 0.13109 0.45823 0.32029 0.0
C1612 C 0.13735 0.44548 0.32524 0.0
C1613 C 0.156 0.40909 0.3401 0.0
C1614 C 0.14952 0.42155 0.33493 0.0
H1615 H 0.10711 0.48059 0.32802 0.0
H1616 H 0.11685 0.45915 0.336 0.0
H1617 H 0.16553 0.46099 0.31958 0.0
H1618 H 0.19433 0.41168 0.35594 0.0
H1619 H 0.18357 0.43216 0.34759 0.0
C1620 C 0.36855 0.48084 0.31234 0.0
C1621 C 0.36948 0.48267 0.29973 0.0
C1622 C 0.35165 0.46807 0.31678 0.0
C1623 C 0.30443 0.42584 0.30714 0.0
H1624 H 0.29169 0.441 0.33741 0.0
C1625 C 0.23049 0.38412 0.32415 0.0
C1626 C 0.23 0.38117 0.33663 0.0
C1627 C 0.24754 0.39618 0.31958 0.0
C1628 C 0.29513 0.4365 0.329 0.0
H1629 H 0.35331 0.47209 0.2819 0.0
H1630 H 0.32373 0.45033 0.28966 0.0
H1631 H 0.3213 0.46257 0.32955 0.0
H1632 H 0.24709 0.38863 0.35408 0.0
H1633 H 0.27678 0.40973 0.34609 0.0
H1634 H 0.27802 0.39987 0.30654 0.0
C1635 C 0.33615 0.45857 0.29613 0.0
C1636 C 0.31214 0.44883 0.3245 0.0
C1637 C 0.35308 0.47127 0.29168 0.0
C1638 C 0.24694 0.39057 0.34442 0.0
C1639 C 0.26395 0.40275 0.33986 0.0
C1640 C 0.28734 0.41356 0.3116 0.0
C1641 C 0.33518 0.45687 0.30875 0.0
C1642 C 0.31705 0.44366 0.31353 0.0
C1643 C 0.26445 0.40569 0.3274 0.0
C1644 C 0.28253 0.41874 0.3226 0.0
H1645 H 0.38081 0.48953 0.31884 0.0
H1646 H 0.35153 0.46696 0.32654 0.0
H1647 H 0.30785 0.42124 0.29877 0.0
H1648 H 0.21771 0.37708 0.31789 0.0
H1649 H 0.24746 0.3983 0.30994 0.0
C1650 C 0.54439 0.88836 0.27603 0.0
C1651 C 0.53676 0.89794 0.28233 0.0
C1652 C 0.55671 0.88379 0.28223 0.0
C1653 C 0.57214 0.87731 0.31301 0.0
H1654 H 0.61582 0.88386 0.29759 0.0
C1655 C 0.63141 0.86942 0.33827 0.0
C1656 C 0.63866 0.8598 0.3316 0.0
C1657 C 0.61903 0.87428 0.33243 0.0
C1658 C 0.60359 0.88176 0.30197 0.0
H1659 H 0.53612 0.91019 0.30013 0.0
H1660 H 0.55767 0.9022 0.31098 0.0
H1661 H 0.59406 0.89186 0.28717 0.0
H1662 H 0.6385 0.84771 0.31352 0.0
H1663 H 0.61684 0.85604 0.30338 0.0
H1664 H 0.5817 0.86719 0.32782 0.0
C1665 C 0.55393 0.89804 0.30124 0.0
C1666 C 0.5911 0.88634 0.296 0.0
C1667 C 0.54158 0.90262 0.29503 0.0
C1668 C 0.63325 0.85516 0.31895 0.0
C1669 C 0.6209 0.86004 0.31311 0.0
C1670 C 0.58464 0.87273 0.319 0.0
C1671 C 0.56174 0.88867 0.2949 0.0
C1672 C 0.57517 0.88409 0.30141 0.0
C1673 C 0.61363 0.86966 0.31977 0.0
C1674 C 0.60048 0.87482 0.31352 0.0
H1675 H 0.5407 0.88423 0.26629 0.0
H1676 H 0.56216 0.87624 0.27711 0.0
H1677 H 0.55989 0.87518 0.31737 0.0
H1678 H 0.63529 0.87324 0.34803 0.0
H1679 H 0.61386 0.88187 0.3378 0.0
C1680 C 0.12876 0.65421 0.30321 0.0
C1681 C 0.11089 0.64428 0.29648 0.0
C1682 C 0.13514 0.67208 0.30938 0.0
C1683 C 0.12755 0.71294 0.30948 0.0
H1684 H 0.15617 0.72723 0.34143 0.0
C1685 C 0.14956 0.78366 0.33804 0.0
C1686 C 0.16791 0.79345 0.34408 0.0
C1687 C 0.14219 0.76529 0.33237 0.0
C1688 C 0.14836 0.72352 0.33245 0.0
H1689 H 0.08546 0.6451 0.29127 0.0
H1690 H 0.09656 0.67626 0.30206 0.0
H1691 H 0.14382 0.6953 0.3315 0.0
H1692 H 0.193 0.79187 0.3489 0.0
H1693 H 0.1802 0.75984 0.33894 0.0
H1694 H 0.13213 0.74119 0.31042 0.0
C1695 C 0.10579 0.67037 0.30239 0.0
C1696 C 0.14127 0.70521 0.32677 0.0
C1697 C 0.09942 0.65251 0.29622 0.0
C1698 C 0.17878 0.7846 0.34434 0.0
C1699 C 0.17141 0.76623 0.3387 0.0
C1700 C 0.13461 0.73124 0.31517 0.0
C1701 C 0.12378 0.68044 0.30897 0.0
C1702 C 0.13086 0.69973 0.31519 0.0
C1703 C 0.15301 0.75634 0.33266 0.0
C1704 C 0.14518 0.73677 0.3267 0.0
H1705 H 0.13807 0.64841 0.30345 0.0
H1706 H 0.14918 0.67955 0.31421 0.0
H1707 H 0.11983 0.70928 0.30048 0.0
H1708 H 0.14084 0.79013 0.33777 0.0
H1709 H 0.12791 0.75799 0.32791 0.0
C1710 C 0.79385 0.03303 0.40521 0.0
C1711 C 0.81354 0.04118 0.40585 0.0
C1712 C 0.78189 0.01543 0.39857 0.0
C1713 C 0.78062 0.98151 0.37434 0.0
H1714 H 0.73658 0.94494 0.38883 0.0
C1715 C 0.73671 0.90283 0.35494 0.0
C1716 C 0.71702 0.89402 0.3546 0.0
C1717 C 0.74829 0.92099 0.36097 0.0
C1718 C 0.74868 0.95506 0.38458 0.0
H1719 H 0.83609 0.0372 0.39994 0.0
H1720 H 0.81523 1.00652 0.38835 0.0
H1721 H 0.75711 0.97637 0.39957 0.0
H1722 H 0.69393 0.89721 0.36025 0.0
H1723 H 0.71413 0.92899 0.37074 0.0
H1724 H 0.77223 0.96016 0.35938 0.0
C1725 C 0.80903 0.01386 0.39286 0.0
C1726 C 0.76046 0.97309 0.39074 0.0
C1727 C 0.82099 0.03145 0.39951 0.0
C1728 C 0.70909 0.90366 0.36042 0.0
C1729 C 0.72066 0.92182 0.36647 0.0
C1730 C 0.76884 0.96348 0.36818 0.0
C1731 C 0.78933 1.00556 0.3924 0.0
C1732 C 0.7766 0.98652 0.38571 0.0
C1733 C 0.74041 0.93071 0.3668 0.0
C1734 C 0.75276 0.95001 0.37325 0.0
H1735 H 0.78765 0.04029 0.40981 0.0
H1736 H 0.76679 1.00961 0.39822 0.0
H1737 H 0.79278 0.99161 0.37012 0.0
H1738 H 0.7432 0.89567 0.35057 0.0
H1739 H 0.76344 0.9273 0.3612 0.0
C1740 C 0.99171 0.78414 0.40051 0.0
C1741 C 0.99369 0.7886 0.41323 0.0
C1742 C 1.00752 0.7886 0.3943 0.0
C1743 C 0.05701 0.79966 0.39954 0.0
H1744 H 0.06188 0.82007 0.3681 0.0
C1745 C 0.12686 0.83217 0.37758 0.0
C1746 C 0.12602 0.82797 0.36492 0.0
C1747 C 0.11041 0.82701 0.38316 0.0
C1748 C 0.06063 0.81417 0.37681 0.0
H1749 H 0.01393 0.80174 0.42934 0.0
H1750 H 0.04143 0.80951 0.41855 0.0
H1751 H 0.0337 0.81171 0.37839 0.0
H1752 H 0.10713 0.81512 0.34819 0.0
H1753 H 0.07838 0.80601 0.35797 0.0
H1754 H 0.08394 0.80219 0.39801 0.0
C1755 C 0.02764 0.80222 0.41339 0.0
C1756 C 0.04447 0.80938 0.3827 0.0
C1757 C 0.01186 0.79777 0.41958 0.0
C1758 C 0.10831 0.81858 0.35796 0.0
C1759 C 0.09183 0.81345 0.36355 0.0
C1760 C 0.07314 0.80446 0.39366 0.0
C1761 C 0.02567 0.79761 0.40069 0.0
C1762 C 0.04254 0.80219 0.39419 0.0
C1763 C 0.09269 0.81753 0.37623 0.0
C1764 C 0.07522 0.81191 0.38227 0.0
H1765 H 0.97789 0.77689 0.39537 0.0
H1766 H 1.00549 0.78466 0.38454 0.0
H1767 H 0.05582 0.79381 0.40826 0.0
H1768 H 0.14023 0.8394 0.38324 0.0
H1769 H 0.11161 0.83063 0.39291 0.0
C1770 C 0.24562 0.2228 0.38737 0.0
C1771 C 0.23367 0.20308 0.38486 0.0
C1772 C 0.24019 0.23533 0.38302 0.0
C1773 C 0.20734 0.23801 0.3597 0.0
H1774 H 0.21674 0.28206 0.38074 0.0
C1775 C 0.17334 0.28281 0.34782 0.0
C1776 C 0.18476 0.3026 0.34995 0.0
C1777 C 0.17976 0.27101 0.35207 0.0
C1778 C 0.2142 0.26994 0.3747 0.0
H1779 H 0.20651 0.18107 0.37601 0.0
H1780 H 0.19704 0.20285 0.36846 0.0
H1781 H 0.22724 0.26088 0.38812 0.0
H1782 H 0.21184 0.32565 0.35814 0.0
H1783 H 0.2231 0.30502 0.36556 0.0
H1784 H 0.19419 0.24698 0.34632 0.0
C1785 C 0.21076 0.20868 0.37358 0.0
C1786 C 0.22023 0.25781 0.37892 0.0
C1787 C 0.21619 0.19618 0.37792 0.0
C1788 C 0.2027 0.31041 0.35644 0.0
C1789 C 0.20911 0.29861 0.36072 0.0
C1790 C 0.20129 0.25011 0.35549 0.0
C1791 C 0.22269 0.2284 0.37607 0.0
C1792 C 0.21677 0.24163 0.37149 0.0
C1793 C 0.19773 0.27876 0.35855 0.0
C1794 C 0.20455 0.26616 0.36296 0.0
H1795 H 0.25928 0.22858 0.39257 0.0
H1796 H 0.24982 0.25044 0.38496 0.0
H1797 H 0.20475 0.22587 0.35365 0.0
H1798 H 0.15942 0.27643 0.34289 0.0
H1799 H 0.17054 0.25579 0.35039 0.0
C1800 C 0.65021 0.54382 0.71892 0.0
C1801 C 0.64967 0.53808 0.73078 0.0
C1802 C 0.66733 0.55676 0.7148 0.0
C1803 C 0.71667 0.59344 0.72539 0.0
H1804 H 0.72562 0.58357 0.69236 0.0
C1805 C 0.78975 0.63558 0.70729 0.0
C1806 C 0.79002 0.64053 0.69522 0.0
C1807 C 0.77268 0.62339 0.71181 0.0
C1808 C 0.72328 0.58667 0.70156 0.0
H1809 H 0.66676 0.54155 0.74762 0.0
H1810 H 0.69663 0.56415 0.74042 0.0
H1811 H 0.69576 0.562 0.69992 0.0
H1812 H 0.77247 0.63661 0.6785 0.0
H1813 H 0.74279 0.61555 0.68641 0.0
H1814 H 0.74424 0.61813 0.72701 0.0
C1815 C 0.68377 0.55881 0.73436 0.0
C1816 C 0.70614 0.5743 0.7059 0.0
C1817 C 0.66664 0.54585 0.73849 0.0
C1818 C 0.77283 0.63307 0.68782 0.0
C1819 C 0.75578 0.62088 0.69233 0.0
C1820 C 0.73383 0.60584 0.72105 0.0
C1821 C 0.68433 0.56429 0.72243 0.0
C1822 C 0.7026 0.57754 0.71786 0.0
C1823 C 0.75549 0.61583 0.70436 0.0
C1824 C 0.73732 0.60262 0.70906 0.0
H1825 H 0.63737 0.53838 0.71282 0.0
H1826 H 0.66721 0.56095 0.70563 0.0
H1827 H 0.71432 0.59649 0.7346 0.0
H1828 H 0.80271 0.64105 0.71325 0.0
H1829 H 0.77298 0.61963 0.72108 0.0
C1830 C 0.4948 0.14632 0.74117 0.0
C1831 C 0.49733 0.1325 0.73483 0.0
C1832 C 0.4804 0.14969 0.73702 0.0
C1833 C 0.45062 0.14482 0.70919 0.0
H1834 H 0.41868 0.15028 0.73154 0.0
C1835 C 0.38569 0.14875 0.69131 0.0
C1836 C 0.38185 0.16161 0.69765 0.0
C1837 C 0.39927 0.14484 0.6963 0.0
C1838 C 0.42762 0.14903 0.7252 0.0
H1839 H 0.48681 0.11145 0.71914 0.0
H1840 H 0.46168 0.1173 0.7119 0.0
H1841 H 0.44356 0.14438 0.73938 0.0
H1842 H 0.38905 0.18022 0.71434 0.0
H1843 H 0.4131 0.1737 0.72296 0.0
H1844 H 0.43503 0.14976 0.69504 0.0
C1845 C 0.47085 0.12556 0.72007 0.0
C1846 C 0.44184 0.14561 0.72969 0.0
C1847 C 0.48513 0.12209 0.72427 0.0
C1848 C 0.39164 0.1702 0.70923 0.0
C1849 C 0.40538 0.16639 0.7142 0.0
C1850 C 0.43652 0.14837 0.70472 0.0
C1851 C 0.46835 0.13943 0.72638 0.0
C1852 C 0.45341 0.14335 0.72172 0.0
C1853 C 0.40952 0.15383 0.70772 0.0
C1854 C 0.42473 0.15038 0.71263 0.0
H1855 H 0.50388 0.15446 0.74939 0.0
H1856 H 0.4789 0.16055 0.74202 0.0
H1857 H 0.45952 0.14348 0.70285 0.0
H1858 H 0.37827 0.14171 0.68243 0.0
H1859 H 0.40174 0.13475 0.69118 0.0
C1860 C 0.89353 0.3682 0.72816 0.0
C1861 C 0.91135 0.37803 0.73498 0.0
C1862 C 0.88699 0.35019 0.72218 0.0
C1863 C 0.90266 0.31765 0.71051 0.0
H1864 H 0.85064 0.27898 0.71249 0.0
C1865 C 0.87321 0.23866 0.69379 0.0
C1866 C 0.85506 0.22892 0.68745 0.0
C1867 C 0.88032 0.25691 0.6996 0.0
C1868 C 0.86514 0.28966 0.71173 0.0
H1869 H 0.93647 0.37685 0.74056 0.0
H1870 H 0.92494 0.34528 0.73025 0.0
H1871 H 0.86268 0.31085 0.72236 0.0
H1872 H 0.83013 0.23054 0.68215 0.0
H1873 H 0.84257 0.26245 0.69215 0.0
H1874 H 0.90509 0.29643 0.69985 0.0
C1875 C 0.91607 0.35155 0.72948 0.0
C1876 C 0.87204 0.30794 0.71738 0.0
C1877 C 0.9226 0.36956 0.73549 0.0
C1878 C 0.84416 0.23772 0.68701 0.0
C1879 C 0.85125 0.25595 0.69281 0.0
C1880 C 0.89574 0.29936 0.70483 0.0
C1881 C 0.89812 0.34159 0.72284 0.0
C1882 C 0.89086 0.32216 0.71681 0.0
C1883 C 0.86941 0.26576 0.69918 0.0
C1884 C 0.87689 0.28516 0.70535 0.0
H1885 H 0.88444 0.37423 0.72767 0.0
H1886 H 0.8732 0.34299 0.71701 0.0
H1887 H 0.91716 0.32835 0.70978 0.0
H1888 H 0.88193 0.2322 0.69425 0.0
H1889 H 0.89427 0.26398 0.70455 0.0
C1890 C 0.19791 0.98943 0.63127 0.0
C1891 C 0.2055 0.97995 0.62481 0.0
C1892 C 0.20975 1.00709 0.63787 0.0
C1893 C 0.25888 0.03896 0.6517 0.0
H1894 H 0.2455 0.07802 0.64937 0.0
C1895 C 0.31032 0.11747 0.66972 0.0
C1896 C 0.30267 0.12718 0.67581 0.0
C1897 C 0.2985 0.09935 0.66368 0.0
C1898 C 0.24934 0.06722 0.65023 0.0
H1899 H 0.23153 0.98139 0.62055 0.0
H1900 H 0.25216 0.01233 0.63187 0.0
H1901 H 0.22475 0.04656 0.63875 0.0
H1902 H 0.27676 0.12562 0.68042 0.0
H1903 H 0.25612 0.09394 0.66999 0.0
H1904 H 0.28352 0.05967 0.66316 0.0
C1905 C 0.23705 1.00606 0.63191 0.0
C1906 C 0.23743 0.04917 0.64415 0.0
C1907 C 0.22522 0.98841 0.6253 0.0
C1908 C 0.28303 0.11846 0.67577 0.0
C1909 C 0.27121 0.10036 0.66973 0.0
C1910 C 0.2708 0.05702 0.65778 0.0
C1911 C 0.22947 0.01569 0.63818 0.0
C1912 C 0.24205 0.03481 0.64481 0.0
C1913 C 0.2788 0.09059 0.6636 0.0
C1914 C 0.26617 0.07137 0.65712 0.0
H1915 H 0.1828 0.9834 0.63101 0.0
H1916 H 0.20345 0.01402 0.64273 0.0
H1917 H 0.26274 0.02815 0.65253 0.0
H1918 H 0.32543 0.12388 0.66961 0.0
H1919 H 0.30479 0.09231 0.65893 0.0
C1920 C 0.0187 0.21763 0.62166 0.0
C1921 C 0.03562 0.22648 0.62948 0.0
C1922 C 1.00172 0.21386 0.62607 0.0
C1923 C 0.97928 0.20758 0.65481 0.0
H1924 H 0.9427 0.21505 0.63565 0.0
C1925 C 0.91454 0.20296 0.6751 0.0
C1926 C 0.89719 0.19353 0.66774 0.0
C1927 C 0.93126 0.20713 0.67018 0.0
C1928 C 0.95268 0.21269 0.64105 0.0
H1929 H 0.04802 0.23887 0.648 0.0
H1930 H 0.01845 0.23233 0.65569 0.0
H1931 H 0.97224 0.2222 0.62753 0.0
H1932 H 0.8839 0.18128 0.64933 0.0
H1933 H 0.91311 0.18842 0.64077 0.0
H1934 H 0.95978 0.19805 0.66832 0.0
C1935 C 0.01824 0.22796 0.64619 0.0
C1936 C 0.96961 0.21679 0.6364 0.0
C1937 C 0.0352 0.23172 0.64178 0.0
C1938 C 0.897 0.18855 0.65528 0.0
C1939 C 0.91377 0.19274 0.65034 0.0
C1940 C 0.96238 0.20348 0.65945 0.0
C1941 C 1.00126 0.21886 0.63842 0.0
C1942 C 0.98315 0.21436 0.64325 0.0
C1943 C 0.93108 0.20197 0.65776 0.0
C1944 C 0.94891 0.20606 0.65266 0.0
H1945 H 0.01849 0.21319 0.61217 0.0
H1946 H 0.98887 0.20663 0.61988 0.0
H1947 H 0.98923 0.20518 0.66022 0.0
H1948 H 0.91526 0.2071 0.68472 0.0
H1949 H 0.94438 0.21453 0.6761 0.0
C1950 C 0.79259 0.80867 0.63711 0.0
C1951 C 0.78518 0.81706 0.64479 0.0
C1952 C 0.79792 0.79612 0.64149 0.0
C1953 C 0.81229 0.78321 0.67014 0.0
H1954 H 0.80219 0.73809 0.65002 0.0
C1955 C 0.81698 0.7111 0.67493 0.0
C1956 C 0.8351 0.7191 0.68117 0.0
C1957 C 0.8105 0.72272 0.67041 0.0
C1958 C 0.805 0.75056 0.65579 0.0
H1959 H 0.77707 0.81835 0.66302 0.0
H1960 H 0.78643 0.79648 0.67069 0.0
H1961 H 0.79095 0.75855 0.64235 0.0
H1962 H 0.8607 0.74545 0.68758 0.0
H1963 H 0.84945 0.76579 0.67968 0.0
H1964 H 0.82616 0.77513 0.68363 0.0
C1965 C 0.78837 0.79985 0.66132 0.0
C1966 C 0.79873 0.76238 0.65134 0.0
C1967 C 0.78301 0.81239 0.65692 0.0
C1968 C 0.84664 0.73892 0.68284 0.0
C1969 C 0.84015 0.75055 0.67836 0.0
C1970 C 0.81861 0.77142 0.67457 0.0
C1971 C 0.79601 0.79167 0.65368 0.0
C1972 C 0.80233 0.77886 0.65846 0.0
C1973 C 0.822 0.74259 0.67211 0.0
C1974 C 0.81509 0.75499 0.66743 0.0
H1975 H 0.79472 0.81217 0.62777 0.0
H1976 H 0.804 0.79027 0.63542 0.0
H1977 H 0.81547 0.7959 0.67581 0.0
H1978 H 0.80773 0.69585 0.6736 0.0
H1979 H 0.79637 0.71616 0.66577 0.0
C1980 C 0.02033 0.80839 0.62448 0.0
C1981 C 0.03717 0.81624 0.63232 0.0
C1982 C 1.00314 0.79533 0.62849 0.0
C1983 C 0.98254 0.7621 0.6521 0.0
H1984 H 0.93883 0.76728 0.64414 0.0
C1985 C 0.9141 0.72191 0.6754 0.0
C1986 C 0.89683 0.71447 0.66808 0.0
C1987 C 0.9311 0.7338 0.67072 0.0
C1988 C 0.95083 0.76548 0.64632 0.0
H1989 H 0.04918 0.8161 0.65042 0.0
H1990 H 0.01918 0.79359 0.65746 0.0
H1991 H 0.96868 0.78876 0.63649 0.0
H1992 H 0.88394 0.71364 0.65004 0.0
H1993 H 0.91361 0.73426 0.64188 0.0
H1994 H 0.9647 0.73888 0.66199 0.0
C1995 C 0.01927 0.79743 0.64819 0.0
C1996 C 0.96795 0.7778 0.64192 0.0
C1997 C 0.03644 0.8105 0.64419 0.0
C1998 C 0.89697 0.71918 0.65596 0.0
C1999 C 0.91398 0.73108 0.65129 0.0
C2000 C 0.96541 0.74978 0.6565 0.0
C2001 C 1.00238 0.78977 0.64041 0.0
C2002 C 0.98404 0.77632 0.64481 0.0
C2003 C 0.93126 0.73855 0.65862 0.0
C2004 C 0.94937 0.75138 0.65371 0.0
H2005 H 0.02036 0.81262 0.61532 0.0
H2006 H 0.99042 0.78956 0.62222 0.0
H2007 H 0.99457 0.76038 0.65434 0.0
H2008 H 0.91453 0.71864 0.68478 0.0
H2009 H 0.94413 0.73951 0.67667 0.0
C2010 C 0.20917 0.23825 0.62831 0.0
C2011 C 0.20423 0.23365 0.61562 0.0
C2012 C 0.22151 0.23355 0.63441 0.0
C2013 C 0.25836 0.22149 0.62886 0.0
H2014 H 0.24907 0.2022 0.66065 0.0
C2015 C 0.30018 0.18968 0.65144 0.0
C2016 C 0.30575 0.19431 0.66408 0.0
C2017 C 0.28786 0.19469 0.64569 0.0
C2018 C 0.25198 0.20777 0.65184 0.0
H2019 H 0.20795 0.21999 0.59947 0.0
H2020 H 0.22939 0.21178 0.61008 0.0
H2021 H 0.22736 0.21048 0.65037 0.0
H2022 H 0.30269 0.20787 0.68057 0.0
H2023 H 0.28132 0.21671 0.6705 0.0
H2024 H 0.28292 0.21873 0.6303 0.0
C2025 C 0.22405 0.21936 0.6153 0.0
C2026 C 0.23954 0.21252 0.64595 0.0
C2027 C 0.21174 0.22406 0.6092 0.0
C2028 C 0.29868 0.20405 0.67083 0.0
C2029 C 0.28633 0.20903 0.66507 0.0
C2030 C 0.27077 0.21673 0.63474 0.0
C2031 C 0.22917 0.22413 0.62796 0.0
C2032 C 0.24254 0.21936 0.63436 0.0
C2033 C 0.28079 0.20442 0.65243 0.0
C2034 C 0.2677 0.20974 0.64628 0.0
H2035 H 0.2038 0.24583 0.6335 0.0
H2036 H 0.22534 0.23764 0.64415 0.0
H2037 H 0.26129 0.22704 0.62005 0.0
H2038 H 0.30529 0.18215 0.64596 0.0
H2039 H 0.28369 0.1907 0.63597 0.0
C2040 C 0.79463 0.98837 0.63702 0.0
C2041 C 0.77686 0.97855 0.63015 0.0
C2042 C 0.80098 1.00621 0.64322 0.0
C2043 C 0.79366 0.04724 0.64325 0.0
H2044 H 0.8216 0.06109 0.67541 0.0
C2045 C 0.8156 0.11787 0.67189 0.0
C2046 C 0.83386 0.12752 0.67807 0.0
C2047 C 0.80819 0.09951 0.6662 0.0
C2048 C 0.81397 0.0575 0.66638 0.0
H2049 H 0.75159 0.97956 0.62472 0.0
H2050 H 0.76265 1.01067 0.63557 0.0
H2051 H 0.80928 0.02922 0.6654 0.0
H2052 H 0.85874 0.12568 0.68313 0.0
H2053 H 0.84588 0.09367 0.67313 0.0
H2054 H 0.79842 0.07555 0.64422 0.0
C2055 C 0.77181 1.00471 0.63598 0.0
C2056 C 0.80691 0.03923 0.66064 0.0
C2057 C 0.76547 0.98688 0.62977 0.0
C2058 C 0.84459 0.11852 0.67846 0.0
C2059 C 0.83718 0.10016 0.67279 0.0
C2060 C 0.80071 0.0655 0.64899 0.0
C2061 C 0.7897 0.01465 0.64271 0.0
C2062 C 0.79674 0.03391 0.64898 0.0
C2063 C 0.81888 0.09042 0.66661 0.0
C2064 C 0.81104 0.07088 0.6606 0.0
H2065 H 0.80387 0.9825 0.63735 0.0
H2066 H 0.81494 0.01359 0.64817 0.0
H2067 H 0.78614 0.0437 0.63418 0.0
H2068 H 0.80699 0.12445 0.67152 0.0
H2069 H 0.79398 0.09232 0.66163 0.0
C2070 C 0.48868 0.36517 0.73198 0.0
C2071 C 0.48129 0.37483 0.73845 0.0
C2072 C 0.47667 0.34764 0.72528 0.0
C2073 C 0.42808 0.3069 0.72313 0.0
H2074 H 0.4396 0.29435 0.69157 0.0
C2075 C 0.37638 0.23791 0.69255 0.0
C2076 C 0.38421 0.22828 0.68659 0.0
C2077 C 0.38805 0.25599 0.69867 0.0
C2078 C 0.43628 0.29756 0.70043 0.0
H2079 H 0.45544 0.37392 0.74257 0.0
H2080 H 0.4345 0.34335 0.73088 0.0
H2081 H 0.46027 0.32567 0.70246 0.0
H2082 H 0.41028 0.22988 0.68235 0.0
H2083 H 0.43069 0.26139 0.69311 0.0
H2084 H 0.40416 0.27878 0.72113 0.0
C2085 C 0.44959 0.34917 0.73118 0.0
C2086 C 0.44813 0.31552 0.70667 0.0
C2087 C 0.4616 0.36669 0.73787 0.0
C2088 C 0.40388 0.23704 0.68684 0.0
C2089 C 0.41555 0.25512 0.69294 0.0
C2090 C 0.41624 0.28895 0.71689 0.0
C2091 C 0.45698 0.33935 0.72487 0.0
C2092 C 0.4442 0.32039 0.71811 0.0
C2093 C 0.40778 0.26483 0.69894 0.0
C2094 C 0.42023 0.28404 0.70548 0.0
H2095 H 0.50377 0.37091 0.73236 0.0
H2096 H 0.48283 0.34034 0.72066 0.0
H2097 H 0.4248 0.31007 0.73201 0.0
H2098 H 0.36123 0.2315 0.69246 0.0
H2099 H 0.38159 0.26316 0.70307 0.0
C2100 C 0.67864 0.13424 0.75282 0.0
C2101 C 0.66038 0.12445 0.74661 0.0
C2102 C 0.69442 0.13933 0.74648 0.0
C2103 C 0.7091 0.12721 0.71801 0.0
H2104 H 0.75421 0.17628 0.72653 0.0
C2105 C 0.77485 0.15401 0.69124 0.0
C2106 C 0.79251 0.16334 0.69825 0.0
C2107 C 0.75839 0.14953 0.6967 0.0
C2108 C 0.74179 0.16245 0.72411 0.0
H2109 H 0.6444 0.11227 0.72884 0.0
H2110 H 0.672 0.12139 0.71774 0.0
H2111 H 0.72614 0.16807 0.73681 0.0
H2112 H 0.80665 0.17513 0.71655 0.0
H2113 H 0.77807 0.1672 0.72603 0.0
H2114 H 0.72483 0.12155 0.70536 0.0
C2115 C 0.67408 0.12499 0.72754 0.0
C2116 C 0.72569 0.15774 0.73001 0.0
C2117 C 0.65828 0.11994 0.73388 0.0
C2118 C 0.79333 0.16805 0.71084 0.0
C2119 C 0.77692 0.16359 0.71628 0.0
C2120 C 0.72522 0.13192 0.7121 0.0
C2121 C 0.69234 0.13474 0.73377 0.0
C2122 C 0.7092 0.14 0.72711 0.0
C2123 C 0.75924 0.1543 0.70928 0.0
C2124 C 0.74182 0.14954 0.71517 0.0
H2125 H 0.68078 0.13812 0.76259 0.0
H2126 H 0.70826 0.14664 0.75159 0.0
H2127 H 0.69671 0.11334 0.71566 0.0
H2128 H 0.7737 0.1502 0.68152 0.0
H2129 H 0.74503 0.14253 0.69102 0.0
C2130 C 0.88273 0.52999 0.7113 0.0
C2131 C 0.90025 0.53694 0.71821 0.0
C2132 C 0.87732 0.54245 0.70688 0.0
C2133 C 0.88698 0.59171 0.71185 0.0
H2134 H 0.86069 0.58034 0.67928 0.0
C2135 C 0.86953 0.64399 0.68877 0.0
C2136 C 0.85154 0.63612 0.68234 0.0
C2137 C 0.8759 0.63224 0.69321 0.0
C2138 C 0.86786 0.58362 0.68844 0.0
H2139 H 0.92592 0.56248 0.72578 0.0
H2140 H 0.91649 0.58428 0.71802 0.0
H2141 H 0.87121 0.55931 0.68681 0.0
H2142 H 0.82607 0.60988 0.67556 0.0
H2143 H 0.83713 0.58933 0.68332 0.0
H2144 H 0.88361 0.61605 0.71345 0.0
C2145 C 0.90682 0.56916 0.71617 0.0
C2146 C 0.87388 0.57156 0.69276 0.0
C2147 C 0.91223 0.55667 0.72061 0.0
C2148 C 0.84003 0.61631 0.68044 0.0
C2149 C 0.84641 0.60456 0.68484 0.0
C2150 C 0.88098 0.6038 0.70751 0.0
C2151 C 0.88929 0.56219 0.70925 0.0
C2152 C 0.88341 0.57538 0.70455 0.0
C2153 C 0.86444 0.61238 0.69125 0.0
C2154 C 0.87123 0.59982 0.69579 0.0
H2155 H 0.87302 0.51487 0.70948 0.0
H2156 H 0.86357 0.53659 0.70177 0.0
H2157 H 0.89406 0.59493 0.72103 0.0
H2158 H 0.87874 0.65923 0.6903 0.0
H2159 H 0.88993 0.63869 0.698 0.0
C2160 C 0.48189 0.9633 0.19116 0.0
C2161 C 0.46275 0.95251 0.19306 0.0
C2162 C 0.48717 0.96882 0.17957 0.0
C2163 C 0.46958 0.97593 0.14975 0.0
H2164 H 0.51097 0.97179 0.13807 0.0
C2165 C 0.48851 0.98719 0.09993 0.0
C2166 C 0.50777 0.99719 0.09821 0.0
C2167 C 0.48276 0.98164 0.11145 0.0
C2168 C 0.49953 0.97325 0.14124 0.0
H2169 H 0.43414 0.93904 0.1842 0.0
H2170 H 0.44337 0.94879 0.16401 0.0
H2171 H 0.50152 0.96261 0.15829 0.0
H2172 H 0.53608 1.00894 0.10726 0.0
H2173 H 0.52611 0.9997 0.12734 0.0
H2174 H 0.46766 0.98668 0.13272 0.0
C2175 C 0.45429 0.95314 0.17153 0.0
C2176 C 0.49411 0.96798 0.15284 0.0
C2177 C 0.44901 0.94757 0.18311 0.0
C2178 C 0.52114 1.00147 0.10828 0.0
C2179 C 0.5154 0.99595 0.11977 0.0
C2180 C 0.47504 0.98127 0.13816 0.0
C2181 C 0.47344 0.96373 0.16961 0.0
C2182 C 0.4791 0.96929 0.15724 0.0
C2183 C 0.49615 0.98595 0.12151 0.0
C2184 C 0.49012 0.98004 0.13377 0.0
H2185 H 0.49284 0.96765 0.19865 0.0
H2186 H 0.50203 0.97725 0.17845 0.0
H2187 H 0.45811 0.97733 0.15294 0.0
H2188 H 0.47784 0.98382 0.09241 0.0
H2189 H 0.46781 0.97379 0.11242 0.0
C2190 C 0.04205 0.49766 0.19546 0.0
C2191 C 0.05847 0.51333 0.20152 0.0
C2192 C 0.03728 0.49704 0.18295 0.0
C2193 C 0.05764 0.51702 0.15474 0.0
H2194 H 1.0062 0.50187 0.14288 0.0
C2195 C 0.03231 0.50747 0.1032 0.0
C2196 C 0.02125 0.51556 0.09991 0.0
C2197 C 0.03656 0.50621 0.11551 0.0
C2198 C 0.02063 0.50617 0.14607 0.0
H2199 H 0.08291 0.54045 0.19917 0.0
H2200 H 0.07451 0.53942 0.17737 0.0
H2201 H 0.01432 0.50169 0.1646 0.0
H2202 H 1.00628 0.52894 0.10707 0.0
H2203 H 0.01347 0.52647 0.12846 0.0
H2204 H 0.06401 0.52178 0.13625 0.0
C2205 C 0.06537 0.5276 0.18228 0.0
C2206 C 0.02524 0.50589 0.15847 0.0
C2207 C 0.07007 0.52828 0.19479 0.0
C2208 C 0.0145 0.52227 0.10923 0.0
C2209 C 0.01865 0.52089 0.12151 0.0
C2210 C 0.053 0.51716 0.14232 0.0
C2211 C 0.04891 0.51199 0.17622 0.0
C2212 C 0.04383 0.51149 0.16296 0.0
C2213 C 0.02976 0.5129 0.12479 0.0
C2214 C 0.03449 0.5119 0.13787 0.0
H2215 H 0.03277 0.48599 0.20043 0.0
H2216 H 0.02457 0.48477 0.17852 0.0
H2217 H 0.07205 0.52123 0.15791 0.0
H2218 H 0.03751 0.5019 0.09627 0.0
H2219 H 0.045 0.49979 0.11775 0.0
C2220 C 0.48303 0.5282 0.19285 0.0
C2221 C 0.46396 0.51797 0.19505 0.0
C2222 C 0.48821 0.52826 0.181 0.0
C2223 C 0.47184 0.50173 0.15041 0.0
H2224 H 0.509 0.54945 0.13954 0.0
C2225 C 0.50555 0.50663 0.10519 0.0
C2226 C 0.50777 0.52129 0.09809 0.0
C2227 C 0.49973 0.50587 0.11691 0.0
C2228 C 0.49852 0.53603 0.14242 0.0
H2229 H 0.43541 0.49979 0.18642 0.0
H2230 H 0.44451 0.49973 0.16577 0.0
H2231 H 0.49976 0.54872 0.16023 0.0
H2232 H 0.50561 0.54664 0.09774 0.0
H2233 H 0.49532 0.54524 0.11817 0.0
H2234 H 0.47051 0.48907 0.13255 0.0
C2235 C 0.45544 0.50758 0.17326 0.0
C2236 C 0.49338 0.53558 0.15431 0.0
C2237 C 0.45024 0.50759 0.1851 0.0
C2238 C 0.50389 0.53509 0.10294 0.0
C2239 C 0.49819 0.53439 0.11469 0.0
C2240 C 0.47708 0.50216 0.13854 0.0
C2241 C 0.47448 0.51802 0.17106 0.0
C2242 C 0.47998 0.51843 0.15844 0.0
C2243 C 0.49611 0.51982 0.12182 0.0
C2244 C 0.49045 0.51933 0.13441 0.0
H2245 H 0.49401 0.53607 0.20031 0.0
H2246 H 0.50303 0.5362 0.17963 0.0
H2247 H 0.46159 0.48827 0.15336 0.0
H2248 H 0.50826 0.49569 0.10166 0.0
H2249 H 0.4984 0.49455 0.12221 0.0
C2250 C 0.97471 0.50153 0.83251 0.0
C2251 C 0.96552 0.51111 0.82835 0.0
C2252 C 0.97904 0.50171 0.84501 0.0
C2253 C 0.9861 0.52772 0.87503 0.0
H2254 H 0.97475 0.48 0.88747 0.0
C2255 C 0.01156 0.5221 0.9241 0.0
C2256 C 0.99861 0.50721 0.93035 0.0
C2257 C 1.00723 0.52324 0.9118 0.0
C2258 C 0.97788 0.49341 0.88415 0.0
H2259 H 0.95385 0.52855 0.83416 0.0
H2260 H 0.96169 0.52907 0.85598 0.0
H2261 H 0.96812 0.48089 0.86567 0.0
H2262 H 0.97091 0.48194 0.92863 0.0
H2263 H 0.96331 0.48397 0.90714 0.0
H2264 H 0.99581 0.54021 0.89355 0.0
C2265 C 0.96561 0.52151 0.84953 0.0
C2266 C 0.97428 0.49396 0.87165 0.0
C2267 C 0.96117 0.52124 0.83701 0.0
C2268 C 0.98112 0.49365 0.92408 0.0
C2269 C 0.97684 0.49471 0.91176 0.0
C2270 C 0.98985 0.5272 0.88753 0.0
C2271 C 0.9744 0.51157 0.85366 0.0
C2272 C 0.97835 0.51111 0.86695 0.0
C2273 C 0.98992 0.50942 0.90546 0.0
C2274 C 0.98574 0.51003 0.89222 0.0
H2275 H 0.97861 0.4939 0.8261 0.0
H2276 H 0.98611 0.49418 0.84792 0.0
H2277 H 0.98949 0.54116 0.87165 0.0
H2278 H 0.02509 0.53285 0.92872 0.0
H2279 H 0.01764 0.53467 0.90717 0.0
C2280 C 0.55586 0.51899 0.83992 0.0
C2281 C 0.55783 0.50389 0.83507 0.0
C2282 C 0.55082 0.51933 0.85179 0.0
C2283 C 0.55043 0.49991 0.88135 0.0
H2284 H 0.51223 0.51307 0.88734 0.0
C2285 C 0.53176 0.50956 0.93003 0.0
C2286 C 0.51245 0.50123 0.93152 0.0
C2287 C 0.53778 0.51057 0.91835 0.0
C2288 C 0.52288 0.50931 0.8858 0.0
H2289 H 0.5564 0.47749 0.83897 0.0
H2290 H 0.54748 0.47802 0.85963 0.0
H2291 H 0.52183 0.51342 0.86677 0.0
H2292 H 0.48434 0.48716 0.92182 0.0
H2293 H 0.49486 0.48912 0.90148 0.0
H2294 H 0.55128 0.49553 0.90034 0.0
C2295 C 0.5499 0.48963 0.85428 0.0
C2296 C 0.5285 0.50969 0.87405 0.0
C2297 C 0.55481 0.48923 0.84239 0.0
C2298 C 0.49933 0.49399 0.92102 0.0
C2299 C 0.50535 0.49508 0.90935 0.0
C2300 C 0.54489 0.49965 0.89312 0.0
C2301 C 0.54779 0.50465 0.8591 0.0
C2302 C 0.54225 0.50486 0.87167 0.0
C2303 C 0.52464 0.50335 0.90788 0.0
C2304 C 0.53096 0.50422 0.89546 0.0
H2305 H 0.55796 0.53042 0.83447 0.0
H2306 H 0.54944 0.53117 0.85528 0.0
H2307 H 0.56119 0.4963 0.87984 0.0
H2308 H 0.54228 0.51555 0.93789 0.0
H2309 H 0.55275 0.51723 0.9175 0.0
C2310 C 0.5483 0.07266 0.84353 0.0
C2311 C 0.53333 0.06375 0.83413 0.0
C2312 C 0.54585 0.06677 0.85532 0.0
C2313 C 0.50843 0.04309 0.87542 0.0
H2314 H 0.54615 0.03854 0.89553 0.0
C2315 C 0.49309 0.01221 0.92176 0.0
C2316 C 0.50743 0.02087 0.93155 0.0
C2317 C 0.49686 0.01702 0.90987 0.0
C2318 C 0.53557 0.03996 0.89008 0.0
H2319 H 0.5044 0.04098 0.82961 0.0
H2320 H 0.50012 0.03082 0.85015 0.0
H2321 H 0.55178 0.0475 0.8747 0.0
H2322 H 0.53715 0.04119 0.9364 0.0
H2323 H 0.54361 0.05001 0.91566 0.0
H2324 H 0.49231 0.03587 0.89074 0.0
C2325 C 0.51363 0.04259 0.84847 0.0
C2326 C 0.53879 0.04505 0.87814 0.0
C2327 C 0.51609 0.04842 0.8367 0.0
C2328 C 0.52571 0.03439 0.9291 0.0
C2329 C 0.52947 0.03928 0.91718 0.0
C2330 C 0.50526 0.03811 0.88733 0.0
C2331 C 0.52837 0.0519 0.85797 0.0
C2332 C 0.52519 0.04656 0.87066 0.0
C2333 C 0.51504 0.03075 0.90743 0.0
C2334 C 0.51872 0.03635 0.8948 0.0
H2335 H 0.56171 0.08462 0.84189 0.0
H2336 H 0.55744 0.07432 0.86247 0.0
H2337 H 0.49784 0.04452 0.86998 0.0
H2338 H 0.47878 1.00192 0.92329 0.0
H2339 H 0.48546 1.00994 0.90256 0.0
C2340 C 0.14366 0.30162 0.52521 0.0
C2341 C 0.1261 0.28586 0.52682 0.0
C2342 C 0.14844 0.30682 0.51349 0.0
C2343 C 0.13726 0.28732 0.4812 0.0
H2344 H 0.16302 0.34021 0.47478 0.0
C2345 C 0.17324 0.31289 0.43718 0.0
C2346 C 0.17103 0.32681 0.43157 0.0
C2347 C 0.1669 0.30772 0.44861 0.0
C2348 C 0.1557 0.32537 0.47641 0.0
H2349 H 0.09982 0.26317 0.51737 0.0
H2350 H 0.10809 0.27234 0.49691 0.0
H2351 H 0.15338 0.33173 0.49513 0.0
H2352 H 0.16042 0.34623 0.43357 0.0
H2353 H 0.14923 0.3371 0.45352 0.0
H2354 H 0.13953 0.28095 0.46248 0.0
C2355 C 0.1182 0.28062 0.50472 0.0
C2356 C 0.15036 0.32053 0.48809 0.0
C2357 C 0.11338 0.27549 0.51644 0.0
C2358 C 0.1622 0.33535 0.43761 0.0
C2359 C 0.15596 0.33026 0.44909 0.0
C2360 C 0.1427 0.29217 0.46955 0.0
C2361 C 0.13581 0.2963 0.50311 0.0
C2362 C 0.14113 0.30145 0.49063 0.0
C2363 C 0.15829 0.31642 0.45473 0.0
C2364 C 0.15204 0.31125 0.46702 0.0
H2365 H 0.1537 0.31 0.53302 0.0
H2366 H 0.16217 0.31887 0.51255 0.0
H2367 H 0.13033 0.27251 0.48289 0.0
H2368 H 0.17983 0.30592 0.43271 0.0
H2369 H 0.16906 0.29713 0.45275 0.0
C2370 C 0.70741 0.83161 0.52935 0.0
C2371 C 0.72386 0.84723 0.53541 0.0
C2372 C 0.70265 0.83101 0.51684 0.0
C2373 C 0.72308 0.85092 0.48864 0.0
H2374 H 0.67174 0.83618 0.47681 0.0
C2375 C 0.69775 0.84157 0.43712 0.0
C2376 C 0.68681 0.84979 0.43384 0.0
C2377 C 0.70198 0.84027 0.44942 0.0
C2378 C 0.68614 0.84036 0.47998 0.0
H2379 H 0.74841 0.87427 0.53306 0.0
H2380 H 0.74005 0.87328 0.51126 0.0
H2381 H 0.67982 0.83589 0.49851 0.0
H2382 H 0.67202 0.86336 0.44102 0.0
H2383 H 0.67919 0.86084 0.4624 0.0
H2384 H 0.72946 0.85568 0.47014 0.0
C2385 C 0.73086 0.86148 0.51617 0.0
C2386 C 0.69072 0.84002 0.49238 0.0
C2387 C 0.73553 0.86214 0.52868 0.0
C2388 C 0.68016 0.8566 0.44317 0.0
C2389 C 0.68429 0.85519 0.45544 0.0
C2390 C 0.71846 0.85112 0.47622 0.0
C2391 C 0.71435 0.84594 0.51012 0.0
C2392 C 0.70928 0.84548 0.49686 0.0
C2393 C 0.69528 0.84706 0.45871 0.0
C2394 C 0.69998 0.84601 0.47178 0.0
H2395 H 0.69808 0.81997 0.53432 0.0
H2396 H 0.6899 0.81879 0.51241 0.0
H2397 H 0.73746 0.85503 0.4918 0.0
H2398 H 0.70287 0.83592 0.43018 0.0
H2399 H 0.71033 0.83375 0.45166 0.0
C2400 C 0.15012 0.86054 0.52667 0.0
C2401 C 0.13104 0.85041 0.52885 0.0
C2402 C 0.15532 0.86056 0.51483 0.0
C2403 C 0.13894 0.83413 0.4842 0.0
H2404 H 0.17642 0.8818 0.47347 0.0
C2405 C 0.17295 0.83901 0.4391 0.0
C2406 C 0.1754 0.85377 0.43203 0.0
C2407 C 0.16701 0.83821 0.45078 0.0
C2408 C 0.16584 0.8684 0.4763 0.0
H2409 H 0.10248 0.83234 0.5202 0.0
H2410 H 0.11161 0.83221 0.49956 0.0
H2411 H 0.16707 0.88106 0.49412 0.0
H2412 H 0.17351 0.87927 0.43171 0.0
H2413 H 0.163 0.87782 0.45208 0.0
H2414 H 0.13762 0.82151 0.46633 0.0
C2415 C 0.12254 0.84002 0.50705 0.0
C2416 C 0.16064 0.86793 0.48817 0.0
C2417 C 0.11732 0.84007 0.5189 0.0
C2418 C 0.17162 0.86764 0.43688 0.0
C2419 C 0.16579 0.86691 0.44859 0.0
C2420 C 0.14423 0.83457 0.47234 0.0
C2421 C 0.14159 0.85038 0.50488 0.0
C2422 C 0.14713 0.8508 0.49226 0.0
C2423 C 0.16349 0.85223 0.45569 0.0
C2424 C 0.15773 0.85172 0.46826 0.0
H2425 H 0.16109 0.86836 0.53414 0.0
H2426 H 0.17014 0.86842 0.51348 0.0
H2427 H 0.12859 0.82068 0.48711 0.0
H2428 H 0.17557 0.82801 0.43557 0.0
H2429 H 0.1655 0.82681 0.45606 0.0
C2430 C 0.64121 0.83151 0.16644 0.0
C2431 C 0.63243 0.84152 0.16237 0.0
C2432 C 0.64567 0.83166 0.17892 0.0
C2433 C 0.65389 0.85816 0.20892 0.0
H2434 H 0.64121 0.81019 0.2215 0.0
C2435 C 0.67856 0.85213 0.25811 0.0
C2436 C 0.66522 0.8376 0.26439 0.0
C2437 C 0.67449 0.85324 0.24576 0.0
C2438 C 0.64472 0.82367 0.21814 0.0
H2439 H 0.62158 0.85964 0.16831 0.0
H2440 H 0.62962 0.86009 0.19009 0.0
H2441 H 0.63459 0.81109 0.19969 0.0
H2442 H 0.63712 0.8129 0.26268 0.0
H2443 H 0.62997 0.81488 0.24112 0.0
H2444 H 0.66394 0.87071 0.22741 0.0
C2445 C 0.63315 0.85223 0.18358 0.0
C2446 C 0.64113 0.82422 0.20564 0.0
C2447 C 0.62858 0.852 0.1711 0.0
C2448 C 0.64763 0.82435 0.25811 0.0
C2449 C 0.64361 0.82536 0.24574 0.0
C2450 C 0.65763 0.85764 0.22143 0.0
C2451 C 0.64156 0.84191 0.18763 0.0
C2452 C 0.64564 0.84146 0.2009 0.0
C2453 C 0.65704 0.83974 0.23941 0.0
C2454 C 0.65303 0.84037 0.22616 0.0
H2455 H 0.64471 0.82359 0.15997 0.0
H2456 H 0.65242 0.82381 0.18177 0.0
H2457 H 0.65763 0.87166 0.20552 0.0
H2458 H 0.69218 0.86264 0.26275 0.0
H2459 H 0.68516 0.8644 0.24111 0.0
C2460 C 0.22255 0.85305 0.17405 0.0
C2461 C 0.22458 0.838 0.16917 0.0
C2462 C 0.21756 0.85336 0.18593 0.0
C2463 C 0.21741 0.83395 0.21547 0.0
H2464 H 0.17905 0.84682 0.22157 0.0
C2465 C 0.19878 0.8433 0.26421 0.0
C2466 C 0.17948 0.83486 0.26572 0.0
C2467 C 0.20477 0.84437 0.25252 0.0
C2468 C 0.18974 0.84313 0.22 0.0
H2469 H 0.22331 0.81167 0.17302 0.0
H2470 H 0.21448 0.81213 0.19372 0.0
H2471 H 0.18859 0.84727 0.20098 0.0
H2472 H 0.15134 0.8207 0.25605 0.0
H2473 H 0.16182 0.82278 0.23569 0.0
H2474 H 0.21835 0.82953 0.23445 0.0
C2475 C 0.21681 0.82373 0.18838 0.0
C2476 C 0.19534 0.84358 0.20824 0.0
C2477 C 0.22167 0.82336 0.17647 0.0
C2478 C 0.16633 0.8276 0.25524 0.0
C2479 C 0.17233 0.82876 0.24356 0.0
C2480 C 0.2119 0.83362 0.22725 0.0
C2481 C 0.21464 0.8387 0.19323 0.0
C2482 C 0.20914 0.83885 0.20582 0.0
C2483 C 0.19161 0.83713 0.24206 0.0
C2484 C 0.1979 0.83808 0.22963 0.0
H2485 H 0.22456 0.86447 0.16861 0.0
H2486 H 0.21613 0.86516 0.18945 0.0
H2487 H 0.22821 0.83041 0.21392 0.0
H2488 H 0.20932 0.84931 0.27205 0.0
H2489 H 0.21975 0.85112 0.25165 0.0
C2490 C 0.20914 0.39549 0.17546 0.0
C2491 C 0.20964 0.41228 0.17257 0.0
C2492 C 0.20701 0.3902 0.18741 0.0
C2493 C 0.18822 0.39759 0.21531 0.0
H2494 H 0.21548 0.3759 0.23123 0.0
C2495 C 0.18205 0.38319 0.26574 0.0
C2496 C 0.18036 0.36604 0.26894 0.0
C2497 C 0.18706 0.38925 0.25423 0.0
C2498 C 0.20762 0.38177 0.22687 0.0
H2499 H 0.20943 0.43723 0.1801 0.0
H2500 H 0.20572 0.42803 0.20088 0.0
H2501 H 0.22169 0.38564 0.2106 0.0
H2502 H 0.18297 0.34195 0.26267 0.0
H2503 H 0.19149 0.3524 0.24245 0.0
H2504 H 0.17395 0.39353 0.23139 0.0
C2505 C 0.20654 0.41872 0.19388 0.0
C2506 C 0.2112 0.38736 0.21506 0.0
C2507 C 0.20866 0.42399 0.18197 0.0
C2508 C 0.1843 0.35531 0.26049 0.0
C2509 C 0.18921 0.36132 0.24892 0.0
C2510 C 0.18461 0.39196 0.22706 0.0
C2511 C 0.20535 0.40161 0.1967 0.0
C2512 C 0.20161 0.39545 0.20919 0.0
C2513 C 0.19037 0.37823 0.24558 0.0
C2514 C 0.19433 0.38409 0.23303 0.0
H2515 H 0.20972 0.3861 0.16841 0.0
H2516 H 0.20602 0.37688 0.18929 0.0
H2517 H 0.18029 0.40338 0.21095 0.0
H2518 H 0.17943 0.39193 0.27214 0.0
H2519 H 0.18825 0.40256 0.25209 0.0
C2520 C 0.79927 0.63591 0.85567 0.0
C2521 C 0.7968 0.61861 0.85922 0.0
C2522 C 0.80435 0.64129 0.84402 0.0
C2523 C 0.82538 0.63126 0.81786 0.0
H2524 H 0.80355 0.65659 0.80007 0.0
C2525 C 0.835 0.64396 0.76708 0.0
C2526 C 0.83952 0.66206 0.76385 0.0
C2527 C 0.82944 0.63861 0.77864 0.0
C2528 C 0.80988 0.64967 0.80497 0.0
H2529 H 0.79731 0.59319 0.85322 0.0
H2530 H 0.80593 0.60242 0.83288 0.0
H2531 H 0.79457 0.64738 0.82041 0.0
H2532 H 0.84129 0.68855 0.77012 0.0
H2533 H 0.83164 0.67922 0.79034 0.0
H2534 H 0.84055 0.6334 0.80237 0.0
C2535 C 0.80438 0.61207 0.83918 0.0
C2536 C 0.80478 0.64442 0.81664 0.0
C2537 C 0.79941 0.60675 0.85084 0.0
C2538 C 0.83807 0.67458 0.77238 0.0
C2539 C 0.83238 0.66917 0.78391 0.0
C2540 C 0.8304 0.6364 0.80618 0.0
C2541 C 0.80698 0.62944 0.83563 0.0
C2542 C 0.81246 0.63514 0.82323 0.0
C2543 C 0.82815 0.65119 0.78721 0.0
C2544 C 0.8227 0.64566 0.7996 0.0
H2545 H 0.79758 0.64545 0.86198 0.0
H2546 H 0.80651 0.65489 0.84168 0.0
H2547 H 0.83186 0.62446 0.82275 0.0
H2548 H 0.83613 0.63406 0.76075 0.0
H2549 H 0.8261 0.62458 0.78086 0.0
C2550 C 0.37376 0.16459 0.86151 0.0
C2551 C 0.38993 0.18035 0.86773 0.0
C2552 C 0.36918 0.16412 0.84899 0.0
C2553 C 0.38987 0.18496 0.82105 0.0
H2554 H 0.33838 0.16909 0.80884 0.0
C2555 C 0.36538 0.17603 0.76942 0.0
C2556 C 0.3541 0.18386 0.76611 0.0
C2557 C 0.36949 0.17463 0.78172 0.0
C2558 C 0.35283 0.17359 0.81212 0.0
H2559 H 0.41413 0.20779 0.86565 0.0
H2560 H 0.40606 0.20703 0.84384 0.0
H2561 H 0.34619 0.16861 0.83056 0.0
H2562 H 0.33856 0.19663 0.77323 0.0
H2563 H 0.3455 0.19392 0.79461 0.0
H2564 H 0.39656 0.19023 0.80265 0.0
C2565 C 0.39697 0.19502 0.84863 0.0
C2566 C 0.35726 0.17315 0.82453 0.0
C2567 C 0.40148 0.19554 0.86114 0.0
C2568 C 0.34697 0.19018 0.7754 0.0
C2569 C 0.35098 0.18866 0.78767 0.0
C2570 C 0.38541 0.18527 0.80863 0.0
C2571 C 0.38075 0.17933 0.84241 0.0
C2572 C 0.37587 0.179 0.82915 0.0
C2573 C 0.36231 0.18092 0.79097 0.0
C2574 C 0.36688 0.17976 0.80405 0.0
H2575 H 0.36453 0.15273 0.86636 0.0
H2576 H 0.35665 0.15179 0.84443 0.0
H2577 H 0.4043 0.18938 0.82432 0.0
H2578 H 0.37087 0.17076 0.7625 0.0
H2579 H 0.3781 0.16842 0.78398 0.0
C2580 C 0.78314 0.17338 0.85258 0.0
C2581 C 0.79688 0.18344 0.86256 0.0
C2582 C 0.78837 0.17336 0.84073 0.0
C2583 C 0.82671 0.20115 0.822 0.0
H2584 H 0.80315 0.15505 0.79983 0.0
C2585 C 0.83777 0.20156 0.77072 0.0
C2586 C 0.84134 0.18761 0.76575 0.0
C2587 C 0.8319 0.2007 0.78243 0.0
C2588 C 0.80991 0.16802 0.80593 0.0
H2589 H 0.82697 0.20088 0.86791 0.0
H2590 H 0.83604 0.20101 0.84725 0.0
H2591 H 0.79409 0.15401 0.82061 0.0
H2592 H 0.8411 0.16157 0.76903 0.0
H2593 H 0.83097 0.16014 0.78952 0.0
H2594 H 0.84265 0.21513 0.80738 0.0
C2595 C 0.8212 0.19334 0.84858 0.0
C2596 C 0.8046 0.16746 0.81779 0.0
C2597 C 0.81599 0.19328 0.86042 0.0
C2598 C 0.83864 0.17263 0.77267 0.0
C2599 C 0.83266 0.17171 0.78435 0.0
C2600 C 0.83192 0.20173 0.81013 0.0
C2601 C 0.80744 0.18348 0.83859 0.0
C2602 C 0.81299 0.18401 0.82597 0.0
C2603 C 0.82936 0.18581 0.7894 0.0
C2604 C 0.8236 0.18517 0.80196 0.0
H2605 H 0.76829 0.16586 0.85386 0.0
H2606 H 0.77743 0.1658 0.83321 0.0
H2607 H 0.83329 0.21418 0.82804 0.0
H2608 H 0.83985 0.21335 0.76566 0.0
H2609 H 0.82929 0.21168 0.78603 0.0
C2610 C 0.30915 0.16752 0.49865 0.0
C2611 C 0.30021 0.17736 0.49454 0.0
C2612 C 0.31353 0.16767 0.51114 0.0
C2613 C 0.32118 0.19381 0.5412 0.0
H2614 H 0.30855 0.14573 0.55358 0.0
C2615 C 0.34545 0.18725 0.59039 0.0
C2616 C 0.33206 0.17259 0.59657 0.0
C2617 C 0.34147 0.18853 0.57805 0.0
C2618 C 0.31205 0.15924 0.55027 0.0
H2619 H 0.2891 0.19527 0.50041 0.0
H2620 H 0.29703 0.19574 0.52222 0.0
H2621 H 0.30219 0.14685 0.53177 0.0
H2622 H 0.30398 0.14785 0.59469 0.0
H2623 H 0.297 0.15012 0.57315 0.0
H2624 H 0.33097 0.20617 0.55974 0.0
C2625 C 0.30071 0.18799 0.51573 0.0
C2626 C 0.3086 0.15991 0.53777 0.0
C2627 C 0.29621 0.18775 0.50323 0.0
C2628 C 0.31452 0.15939 0.5902 0.0
C2629 C 0.3106 0.16058 0.57784 0.0
C2630 C 0.32478 0.19316 0.5537 0.0
C2631 C 0.30921 0.17776 0.51982 0.0
C2632 C 0.31311 0.17719 0.5331 0.0
C2633 C 0.32408 0.17508 0.57162 0.0
C2634 C 0.3202 0.17585 0.55837 0.0
H2635 H 0.31279 0.15968 0.49221 0.0
H2636 H 0.32037 0.15991 0.51402 0.0
H2637 H 0.3249 0.20735 0.53784 0.0
H2638 H 0.35903 0.19772 0.59509 0.0
H2639 H 0.35217 0.19979 0.57347 0.0
C2640 C 0.88826 0.18555 0.50736 0.0
C2641 C 0.89026 0.17048 0.5025 0.0
C2642 C 0.88334 0.18594 0.51926 0.0
C2643 C 0.88344 0.16676 0.54885 0.0
H2644 H 0.84517 0.17973 0.55503 0.0
C2645 C 0.8653 0.17666 0.59766 0.0
C2646 C 0.84602 0.16829 0.59924 0.0
C2647 C 0.87117 0.17758 0.58594 0.0
C2648 C 0.85584 0.17602 0.55344 0.0
H2649 H 0.88903 0.14418 0.50641 0.0
H2650 H 0.88033 0.14478 0.52713 0.0
H2651 H 0.85452 0.17998 0.5344 0.0
H2652 H 0.81781 0.15403 0.58967 0.0
H2653 H 0.82808 0.15584 0.56927 0.0
H2654 H 0.88456 0.16252 0.56786 0.0
C2655 C 0.88262 0.15633 0.52176 0.0
C2656 C 0.86132 0.17634 0.54165 0.0
C2657 C 0.8874 0.15589 0.50984 0.0
C2658 C 0.83278 0.1609 0.58881 0.0
C2659 C 0.83866 0.16191 0.5771 0.0
C2660 C 0.87805 0.16655 0.56066 0.0
C2661 C 0.88048 0.17133 0.5266 0.0
C2662 C 0.87509 0.17159 0.53921 0.0
C2663 C 0.85792 0.17024 0.57553 0.0
C2664 C 0.86409 0.17105 0.56307 0.0
H2665 H 0.89023 0.19693 0.5019 0.0
H2666 H 0.88194 0.19776 0.52276 0.0
H2667 H 0.89422 0.1632 0.54728 0.0
H2668 H 0.8759 0.18276 0.60547 0.0
H2669 H 0.88612 0.18429 0.58502 0.0
C2670 C 0.87478 0.72903 0.50696 0.0
C2671 C 0.87275 0.74435 0.50365 0.0
C2672 C 0.87273 0.72383 0.51894 0.0
C2673 C 0.85027 0.72754 0.54601 0.0
H2674 H 0.88268 0.71275 0.56337 0.0
C2675 C 0.84503 0.7149 0.59672 0.0
C2676 C 0.84581 0.69911 0.60043 0.0
C2677 C 0.84964 0.72086 0.58514 0.0
C2678 C 0.8734 0.71667 0.55859 0.0
H2679 H 0.86802 0.76684 0.51047 0.0
H2680 H 0.86445 0.75781 0.53128 0.0
H2681 H 0.88832 0.72223 0.54263 0.0
H2682 H 0.85245 0.67741 0.595 0.0
H2683 H 0.86034 0.6877 0.57467 0.0
H2684 H 0.8352 0.72185 0.5618 0.0
C2685 C 0.86719 0.74953 0.52458 0.0
C2686 C 0.87663 0.7221 0.54672 0.0
C2687 C 0.86923 0.75471 0.51265 0.0
C2688 C 0.85185 0.68972 0.59243 0.0
C2689 C 0.85639 0.69564 0.58079 0.0
C2690 C 0.84701 0.72208 0.55782 0.0
C2691 C 0.86862 0.73386 0.52783 0.0
C2692 C 0.86518 0.72773 0.54034 0.0
C2693 C 0.85505 0.71111 0.57694 0.0
C2694 C 0.8586 0.71671 0.56431 0.0
H2695 H 0.87736 0.72069 0.50021 0.0
H2696 H 0.87378 0.71161 0.52113 0.0
H2697 H 0.84092 0.7314 0.54125 0.0
H2698 H 0.84076 0.72263 0.60278 0.0
H2699 H 0.84889 0.7331 0.5826 0.0
loop_
_geom_bond_atom_site_label_1
_geom_bond_atom_site_label_2
_geom_bond_distance
_geom_bond_site_symmetry_2
_ccdc_geom_bond_type
C0 C1 1.264 . S
C0 C5 1.479 . S
C0 C10 1.465 . S
C1 C0 1.264 . S
C1 C3 1.339 . S
C1 H28 0.931 . S
C2 C3 1.395 . S
C2 C4 1.320 . S
C3 C1 1.339 . S
C3 C2 1.395 . S
C3 H29 0.929 . S
C4 C2 1.320 . S
C4 C5 1.405 . S
C4 H30 0.930 . S
C5 C0 1.479 . S
C5 C4 1.405 . S
C5 H31 0.931 . S
U6 O7 2.454 . S
U6 O8 2.458 . S
U6 C9 2.984 . S
U6 C10 2.847 . S
U6 C23 2.882 . S
U6 O24 2.441 . S
U6 O25 2.420 . S
U6 O26 2.455 . S
U6 O27 2.449 . S
O7 U6 2.454 . S
O7 C9 1.353 . S
O8 U6 2.458 . S
O8 C9 1.286 . S
C9 U6 2.984 . S
C9 O7 1.353 . S
C9 O8 1.286 . S
C9 C11 1.363 . S
C10 C0 1.465 . S
C10 U6 2.847 . S
C10 O24 1.249 . S
C10 O25 1.202 . S
C11 C9 1.363 . S
C11 C13 1.408 . S
C11 C16 1.342 . S
C12 C13 1.310 . S
C12 C15 1.461 . S
C12 H32 0.932 . S
C13 C11 1.408 . S
C13 C12 1.310 . S
C13 H33 0.930 . S
C14 C15 1.474 . S
C14 C16 1.285 . S
C14 H34 0.929 . S
C15 C12 1.461 . S
C15 C14 1.474 . S
C16 C11 1.342 . S
C16 C14 1.285 . S
C16 H35 0.930 . S
C17 C20 1.424 . S
C17 C22 1.245 . S
C17 C23 1.428 . S
C18 C21 1.260 . S
C18 C22 1.477 . S
C18 H36 0.932 . S
C19 C20 1.384 . S
C19 C21 1.479 . S
C19 H37 0.929 . S
C20 C17 1.424 . S
C20 C19 1.384 . S
C20 H38 0.928 . S
C21 C18 1.260 . S
C21 C19 1.479 . S
C22 C17 1.245 . S
C22 C18 1.477 . S
C22 H39 0.932 . S
C23 U6 2.882 . S
C23 C17 1.428 . S
C23 O26 1.301 . S
C23 O27 1.282 . S
O24 U6 2.441 . S
O24 C10 1.249 . S
O25 U6 2.420 . S
O25 C10 1.202 . S
O26 U6 2.455 . S
O26 C23 1.301 . S
O27 U6 2.449 . S
O27 C23 1.282 . S
H28 C1 0.931 . S
H29 C3 0.929 . S
H30 C4 0.930 . S
H31 C5 0.931 . S
H32 C12 0.932 . S
H33 C13 0.930 . S
H34 C14 0.929 . S
H35 C16 0.930 . S
H36 C18 0.932 . S
H37 C19 0.929 . S
H38 C20 0.928 . S
H39 C22 0.932 . S
C40 C41 1.264 . S
C40 C45 1.479 . S
C40 C50 1.465 . S
C41 C40 1.264 . S
C41 C43 1.339 . S
C41 H68 0.931 . S
C42 C43 1.395 . S
C42 C44 1.320 . S
C43 C41 1.339 . S
C43 C42 1.395 . S
C43 H69 0.929 . S
C44 C42 1.320 . S
C44 C45 1.405 . S
C44 H70 0.930 . S
C45 C40 1.479 . S
C45 C44 1.405 . S
C45 H71 0.931 . S
U46 O47 2.454 . S
U46 O48 2.458 . S
U46 C49 2.984 . S
U46 C50 2.847 . S
U46 C63 2.882 . S
U46 O64 2.441 . S
U46 O65 2.420 . S
U46 O66 2.455 . S
U46 O67 2.449 . S
O47 U46 2.454 . S
O47 C49 1.353 . S
O48 U46 2.458 . S
O48 C49 1.286 . S
C49 U46 2.984 . S
C49 O47 1.353 . S
C49 O48 1.286 . S
C49 C51 1.363 . S
C50 C40 1.465 . S
C50 U46 2.847 . S
C50 O64 1.249 . S
C50 O65 1.202 . S
C51 C49 1.363 . S
C51 C53 1.408 . S
C51 C56 1.342 . S
C52 C53 1.310 . S
C52 C55 1.461 . S
C52 H72 0.932 . S
C53 C51 1.408 . S
C53 C52 1.310 . S
C53 H73 0.930 . S
C54 C55 1.474 . S
C54 C56 1.285 . S
C54 H74 0.929 . S
C55 C52 1.461 . S
C55 C54 1.474 . S
C56 C51 1.342 . S
C56 C54 1.285 . S
C56 H75 0.930 . S
C57 C60 1.424 . S
C57 C62 1.245 . S
C57 C63 1.428 . S
C58 C61 1.260 . S
C58 C62 1.477 . S
C58 H76 0.932 . S
C59 C60 1.384 . S
C59 C61 1.479 . S
C59 H77 0.929 . S
C60 C57 1.424 . S
C60 C59 1.384 . S
C60 H78 0.928 . S
C61 C58 1.260 . S
C61 C59 1.479 . S
C62 C57 1.245 . S
C62 C58 1.477 . S
C62 H79 0.932 . S
C63 U46 2.882 . S
C63 C57 1.428 . S
C63 O66 1.301 . S
C63 O67 1.282 . S
O64 U46 2.441 . S
O64 C50 1.249 . S
O65 U46 2.420 . S
O65 C50 1.202 . S
O66 U46 2.455 . S
O66 C63 1.301 . S
O67 U46 2.449 . S
O67 C63 1.282 . S
H68 C41 0.931 . S
H69 C43 0.929 . S
H70 C44 0.930 . S
H71 C45 0.931 . S
H72 C52 0.932 . S
H73 C53 0.930 . S
H74 C54 0.929 . S
H75 C56 0.930 . S
H76 C58 0.932 . S
H77 C59 0.929 . S
H78 C60 0.928 . S
H79 C62 0.932 . S
C80 C81 1.264 . S
C80 C85 1.479 . S
C80 C90 1.465 . S
C81 C80 1.264 . S
C81 C83 1.339 . S
C81 H108 0.931 . S
C82 C83 1.395 . S
C82 C84 1.320 . S
C83 C81 1.339 . S
C83 C82 1.395 . S
C83 H109 0.929 . S
C84 C82 1.320 . S
C84 C85 1.405 . S
C84 H110 0.930 . S
C85 C80 1.479 . S
C85 C84 1.405 . S
C85 H111 0.931 . S
U86 O87 2.454 . S
U86 O88 2.458 . S
U86 C89 2.984 . S
U86 C90 2.847 . S
U86 C103 2.882 . S
U86 O104 2.441 . S
U86 O105 2.420 . S
U86 O106 2.455 . S
U86 O107 2.449 . S
O87 U86 2.454 . S
O87 C89 1.353 . S
O88 U86 2.458 . S
O88 C89 1.286 . S
C89 U86 2.984 . S
C89 O87 1.353 . S
C89 O88 1.286 . S
C89 C91 1.363 . S
C90 C80 1.465 . S
C90 U86 2.847 . S
C90 O104 1.249 . S
C90 O105 1.202 . S
C91 C89 1.363 . S
C91 C93 1.408 . S
C91 C96 1.342 . S
C92 C93 1.310 . S
C92 C95 1.461 . S
C92 H112 0.932 . S
C93 C91 1.408 . S
C93 C92 1.310 . S
C93 H113 0.930 . S
C94 C95 1.474 . S
C94 C96 1.285 . S
C94 H114 0.929 . S
C95 C92 1.461 . S
C95 C94 1.474 . S
C96 C91 1.342 . S
C96 C94 1.285 . S
C96 H115 0.930 . S
C97 C100 1.424 . S
C97 C102 1.245 . S
C97 C103 1.428 . S
C98 C101 1.260 . S
C98 C102 1.477 . S
C98 H116 0.932 . S
C99 C100 1.384 . S
C99 C101 1.479 . S
C99 H117 0.929 . S
C100 C97 1.424 . S
C100 C99 1.384 . S
C100 H118 0.928 . S
C101 C98 1.260 . S
C101 C99 1.479 . S
C102 C97 1.245 . S
C102 C98 1.477 . S
C102 H119 0.932 . S
C103 U86 2.882 . S
C103 C97 1.428 . S
C103 O106 1.301 . S
C103 O107 1.282 . S
O104 U86 2.441 . S
O104 C90 1.249 . S
O105 U86 2.420 . S
O105 C90 1.202 . S
O106 U86 2.455 . S
O106 C103 1.301 . S
O107 U86 2.449 . S
O107 C103 1.282 . S
H108 C81 0.931 . S
H109 C83 0.929 . S
H110 C84 0.930 . S
H111 C85 0.931 . S
H112 C92 0.932 . S
H113 C93 0.930 . S
H114 C94 0.929 . S
H115 C96 0.930 . S
H116 C98 0.932 . S
H117 C99 0.929 . S
H118 C100 0.928 . S
H119 C102 0.932 . S
C120 C121 1.264 . S
C120 C125 1.479 . S
C120 C130 1.465 . S
C121 C120 1.264 . S
C121 C123 1.339 . S
C121 H148 0.931 . S
C122 C123 1.395 . S
C122 C124 1.320 . S
C123 C121 1.339 . S
C123 C122 1.395 . S
C123 H149 0.929 . S
C124 C122 1.320 . S
C124 C125 1.405 . S
C124 H150 0.930 . S
C125 C120 1.479 . S
C125 C124 1.405 . S
C125 H151 0.931 . S
U126 O127 2.454 . S
U126 O128 2.458 . S
U126 C129 2.984 . S
U126 C130 2.847 . S
U126 C143 2.882 . S
U126 O144 2.441 . S
U126 O145 2.420 . S
U126 O146 2.455 . S
U126 O147 2.449 . S
O127 U126 2.454 . S
O127 C129 1.353 . S
O128 U126 2.458 . S
O128 C129 1.286 . S
C129 U126 2.984 . S
C129 O127 1.353 . S
C129 O128 1.286 . S
C129 C131 1.363 . S
C130 C120 1.465 . S
C130 U126 2.847 . S
C130 O144 1.249 . S
C130 O145 1.202 . S
C131 C129 1.363 . S
C131 C133 1.408 . S
C131 C136 1.342 . S
C132 C133 1.310 . S
C132 C135 1.461 . S
C132 H152 0.932 . S
C133 C131 1.408 . S
C133 C132 1.310 . S
C133 H153 0.930 . S
C134 C135 1.474 . S
C134 C136 1.285 . S
C134 H154 0.929 . S
C135 C132 1.461 . S
C135 C134 1.474 . S
C136 C131 1.342 . S
C136 C134 1.285 . S
C136 H155 0.930 . S
C137 C140 1.424 . S
C137 C142 1.245 . S
C137 C143 1.428 . S
C138 C141 1.260 . S
C138 C142 1.477 . S
C138 H156 0.932 . S
C139 C140 1.384 . S
C139 C141 1.479 . S
C139 H157 0.929 . S
C140 C137 1.424 . S
C140 C139 1.384 . S
C140 H158 0.928 . S
C141 C138 1.260 . S
C141 C139 1.479 . S
C142 C137 1.245 . S
C142 C138 1.477 . S
C142 H159 0.932 . S
C143 U126 2.882 . S
C143 C137 1.428 . S
C143 O146 1.301 . S
C143 O147 1.282 . S
O144 U126 2.441 . S
O144 C130 1.249 . S
O145 U126 2.420 . S
O145 C130 1.202 . S
O146 U126 2.455 . S
O146 C143 1.301 . S
O147 U126 2.449 . S
O147 C143 1.282 . S
H148 C121 0.931 . S
H149 C123 0.929 . S
H150 C124 0.930 . S
H151 C125 0.931 . S
H152 C132 0.932 . S
H153 C133 0.930 . S
H154 C134 0.929 . S
H155 C136 0.930 . S
H156 C138 0.932 . S
H157 C139 0.929 . S
H158 C140 0.928 . S
H159 C142 0.932 . S
C160 C161 1.264 . S
C160 C165 1.479 . S
C160 C170 1.465 . S
C161 C160 1.264 . S
C161 C163 1.339 . S
C161 H188 0.931 . S
C162 C163 1.395 . S
C162 C164 1.320 . S
C163 C161 1.339 . S
C163 C162 1.395 . S
C163 H189 0.929 . S
C164 C162 1.320 . S
C164 C165 1.405 . S
C164 H190 0.930 . S
C165 C160 1.479 . S
C165 C164 1.405 . S
C165 H191 0.931 . S
U166 O167 2.454 . S
U166 O168 2.458 . S
U166 C169 2.984 . S
U166 C170 2.847 . S
U166 C183 2.882 . S
U166 O184 2.441 . S
U166 O185 2.420 . S
U166 O186 2.455 . S
U166 O187 2.449 . S
O167 U166 2.454 . S
O167 C169 1.353 . S
O168 U166 2.458 . S
O168 C169 1.286 . S
C169 U166 2.984 . S
C169 O167 1.353 . S
C169 O168 1.286 . S
C169 C171 1.363 . S
C170 C160 1.465 . S
C170 U166 2.847 . S
C170 O184 1.249 . S
C170 O185 1.202 . S
C171 C169 1.363 . S
C171 C173 1.408 . S
C171 C176 1.342 . S
C172 C173 1.310 . S
C172 C175 1.461 . S
C172 H192 0.932 . S
C173 C171 1.408 . S
C173 C172 1.310 . S
C173 H193 0.930 . S
C174 C175 1.474 . S
C174 C176 1.285 . S
C174 H194 0.929 . S
C175 C172 1.461 . S
C175 C174 1.474 . S
C176 C171 1.342 . S
C176 C174 1.285 . S
C176 H195 0.930 . S
C177 C180 1.424 . S
C177 C182 1.245 . S
C177 C183 1.428 . S
C178 C181 1.260 . S
C178 C182 1.477 . S
C178 H196 0.932 . S
C179 C180 1.384 . S
C179 C181 1.479 . S
C179 H197 0.929 . S
C180 C177 1.424 . S
C180 C179 1.384 . S
C180 H198 0.928 . S
C181 C178 1.260 . S
C181 C179 1.479 . S
C182 C177 1.245 . S
C182 C178 1.477 . S
C182 H199 0.932 . S
C183 U166 2.882 . S
C183 C177 1.428 . S
C183 O186 1.301 . S
C183 O187 1.282 . S
O184 U166 2.441 . S
O184 C170 1.249 . S
O185 U166 2.420 . S
O185 C170 1.202 . S
O186 U166 2.455 . S
O186 C183 1.301 . S
O187 U166 2.449 . S
O187 C183 1.282 . S
H188 C161 0.931 . S
H189 C163 0.929 . S
H190 C164 0.930 . S
H191 C165 0.931 . S
H192 C172 0.932 . S
H193 C173 0.930 . S
H194 C174 0.929 . S
H195 C176 0.930 . S
H196 C178 0.932 . S
H197 C179 0.929 . S
H198 C180 0.928 . S
H199 C182 0.932 . S
C200 C201 1.264 . S
C200 C205 1.479 . S
C200 C210 1.465 . S
C201 C200 1.264 . S
C201 C203 1.339 . S
C201 H228 0.931 . S
C202 C203 1.395 . S
C202 C204 1.320 . S
C203 C201 1.339 . S
C203 C202 1.395 . S
C203 H229 0.929 . S
C204 C202 1.320 . S
C204 C205 1.405 . S
C204 H230 0.930 . S
C205 C200 1.479 . S
C205 C204 1.405 . S
C205 H231 0.931 . S
U206 O207 2.454 . S
U206 O208 2.458 . S
U206 C209 2.984 . S
U206 C210 2.847 . S
U206 C223 2.882 . S
U206 O224 2.441 . S
U206 O225 2.420 . S
U206 O226 2.455 . S
U206 O227 2.449 . S
O207 U206 2.454 . S
O207 C209 1.353 . S
O208 U206 2.458 . S
O208 C209 1.286 . S
C209 U206 2.984 . S
C209 O207 1.353 . S
C209 O208 1.286 . S
C209 C211 1.363 . S
C210 C200 1.465 . S
C210 U206 2.847 . S
C210 O224 1.249 . S
C210 O225 1.202 . S
C211 C209 1.363 . S
C211 C213 1.408 . S
C211 C216 1.342 . S
C212 C213 1.310 . S
C212 C215 1.461 . S
C212 H232 0.932 . S
C213 C211 1.408 . S
C213 C212 1.310 . S
C213 H233 0.930 . S
C214 C215 1.474 . S
C214 C216 1.285 . S
C214 H234 0.929 . S
C215 C212 1.461 . S
C215 C214 1.474 . S
C216 C211 1.342 . S
C216 C214 1.285 . S
C216 H235 0.930 . S
C217 C220 1.424 . S
C217 C222 1.245 . S
C217 C223 1.428 . S
C218 C221 1.260 . S
C218 C222 1.477 . S
C218 H236 0.932 . S
C219 C220 1.384 . S
C219 C221 1.479 . S
C219 H237 0.929 . S
C220 C217 1.424 . S
C220 C219 1.384 . S
C220 H238 0.928 . S
C221 C218 1.260 . S
C221 C219 1.479 . S
C222 C217 1.245 . S
C222 C218 1.477 . S
C222 H239 0.932 . S
C223 U206 2.882 . S
C223 C217 1.428 . S
C223 O226 1.301 . S
C223 O227 1.282 . S
O224 U206 2.441 . S
O224 C210 1.249 . S
O225 U206 2.420 . S
O225 C210 1.202 . S
O226 U206 2.455 . S
O226 C223 1.301 . S
O227 U206 2.449 . S
O227 C223 1.282 . S
H228 C201 0.931 . S
H229 C203 0.929 . S
H230 C204 0.930 . S
H231 C205 0.931 . S
H232 C212 0.932 . S
H233 C213 0.930 . S
H234 C214 0.929 . S
H235 C216 0.930 . S
H236 C218 0.932 . S
H237 C219 0.929 . S
H238 C220 0.928 . S
H239 C222 0.932 . S
C240 C241 1.264 . S
C240 C245 1.479 . S
C240 C250 1.465 . S
C241 C240 1.264 . S
C241 C243 1.339 . S
C241 H268 0.931 . S
C242 C243 1.395 . S
C242 C244 1.320 . S
C243 C241 1.339 . S
C243 C242 1.395 . S
C243 H269 0.929 . S
C244 C242 1.320 . S
C244 C245 1.405 . S
C244 H270 0.930 . S
C245 C240 1.479 . S
C245 C244 1.405 . S
C245 H271 0.931 . S
U246 O247 2.454 . S
U246 O248 2.458 . S
U246 C249 2.984 . S
U246 C250 2.847 . S
U246 C263 2.882 . S
U246 O264 2.441 . S
U246 O265 2.420 . S
U246 O266 2.455 . S
U246 O267 2.449 . S
O247 U246 2.454 . S
O247 C249 1.353 . S
O248 U246 2.458 . S
O248 C249 1.286 . S
C249 U246 2.984 . S
C249 O247 1.353 . S
C249 O248 1.286 . S
C249 C251 1.363 . S
C250 C240 1.465 . S
C250 U246 2.847 . S
C250 O264 1.249 . S
C250 O265 1.202 . S
C251 C249 1.363 . S
C251 C253 1.408 . S
C251 C256 1.342 . S
C252 C253 1.310 . S
C252 C255 1.461 . S
C252 H272 0.932 . S
C253 C251 1.408 . S
C253 C252 1.310 . S
C253 H273 0.930 . S
C254 C255 1.474 . S
C254 C256 1.285 . S
C254 H274 0.929 . S
C255 C252 1.461 . S
C255 C254 1.474 . S
C256 C251 1.342 . S
C256 C254 1.285 . S
C256 H275 0.930 . S
C257 C260 1.424 . S
C257 C262 1.245 . S
C257 C263 1.428 . S
C258 C261 1.260 . S
C258 C262 1.477 . S
C258 H276 0.932 . S
C259 C260 1.384 . S
C259 C261 1.479 . S
C259 H277 0.929 . S
C260 C257 1.424 . S
C260 C259 1.384 . S
C260 H278 0.928 . S
C261 C258 1.260 . S
C261 C259 1.479 . S
C262 C257 1.245 . S
C262 C258 1.477 . S
C262 H279 0.932 . S
C263 U246 2.882 . S
C263 C257 1.428 . S
C263 O266 1.301 . S
C263 O267 1.282 . S
O264 U246 2.441 . S
O264 C250 1.249 . S
O265 U246 2.420 . S
O265 C250 1.202 . S
O266 U246 2.455 . S
O266 C263 1.301 . S
O267 U246 2.449 . S
O267 C263 1.282 . S
H268 C241 0.931 . S
H269 C243 0.929 . S
H270 C244 0.930 . S
H271 C245 0.931 . S
H272 C252 0.932 . S
H273 C253 0.930 . S
H274 C254 0.929 . S
H275 C256 0.930 . S
H276 C258 0.932 . S
H277 C259 0.929 . S
H278 C260 0.928 . S
H279 C262 0.932 . S
C280 C281 1.264 . S
C280 C285 1.479 . S
C280 C290 1.465 . S
C281 C280 1.264 . S
C281 C283 1.339 . S
C281 H308 0.931 . S
C282 C283 1.395 . S
C282 C284 1.320 . S
C283 C281 1.339 . S
C283 C282 1.395 . S
C283 H309 0.929 . S
C284 C282 1.320 . S
C284 C285 1.405 . S
C284 H310 0.930 . S
C285 C280 1.479 . S
C285 C284 1.405 . S
C285 H311 0.931 . S
U286 O287 2.454 . S
U286 O288 2.458 . S
U286 C289 2.984 . S
U286 C290 2.847 . S
U286 C303 2.882 . S
U286 O304 2.441 . S
U286 O305 2.420 . S
U286 O306 2.455 . S
U286 O307 2.449 . S
O287 U286 2.454 . S
O287 C289 1.353 . S
O288 U286 2.458 . S
O288 C289 1.286 . S
C289 U286 2.984 . S
C289 O287 1.353 . S
C289 O288 1.286 . S
C289 C291 1.363 . S
C290 C280 1.465 . S
C290 U286 2.847 . S
C290 O304 1.249 . S
C290 O305 1.202 . S
C291 C289 1.363 . S
C291 C293 1.408 . S
C291 C296 1.342 . S
C292 C293 1.310 . S
C292 C295 1.461 . S
C292 H312 0.932 . S
C293 C291 1.408 . S
C293 C292 1.310 . S
C293 H313 0.930 . S
C294 C295 1.474 . S
C294 C296 1.285 . S
C294 H314 0.929 . S
C295 C292 1.461 . S
C295 C294 1.474 . S
C296 C291 1.342 . S
C296 C294 1.285 . S
C296 H315 0.930 . S
C297 C300 1.424 . S
C297 C302 1.245 . S
C297 C303 1.428 . S
C298 C301 1.260 . S
C298 C302 1.477 . S
C298 H316 0.932 . S
C299 C300 1.384 . S
C299 C301 1.479 . S
C299 H317 0.929 . S
C300 C297 1.424 . S
C300 C299 1.384 . S
C300 H318 0.928 . S
C301 C298 1.260 . S
C301 C299 1.479 . S
C302 C297 1.245 . S
C302 C298 1.477 . S
C302 H319 0.932 . S
C303 U286 2.882 . S
C303 C297 1.428 . S
C303 O306 1.301 . S
C303 O307 1.282 . S
O304 U286 2.441 . S
O304 C290 1.249 . S
O305 U286 2.420 . S
O305 C290 1.202 . S
O306 U286 2.455 . S
O306 C303 1.301 . S
O307 U286 2.449 . S
O307 C303 1.282 . S
H308 C281 0.931 . S
H309 C283 0.929 . S
H310 C284 0.930 . S
H311 C285 0.931 . S
H312 C292 0.932 . S
H313 C293 0.930 . S
H314 C294 0.929 . S
H315 C296 0.930 . S
H316 C298 0.932 . S
H317 C299 0.929 . S
H318 C300 0.928 . S
H319 C302 0.932 . S
C320 C321 1.264 . S
C320 C325 1.479 . S
C320 C330 1.465 . S
C321 C320 1.264 . S
C321 C323 1.339 . S
C321 H348 0.931 . S
C322 C323 1.395 . S
C322 C324 1.320 . S
C323 C321 1.339 . S
C323 C322 1.395 . S
C323 H349 0.929 . S
C324 C322 1.320 . S
C324 C325 1.405 . S
C324 H350 0.930 . S
C325 C320 1.479 . S
C325 C324 1.405 . S
C325 H351 0.931 . S
U326 O327 2.454 . S
U326 O328 2.458 . S
U326 C329 2.984 . S
U326 C330 2.847 . S
U326 C343 2.882 . S
U326 O344 2.441 . S
U326 O345 2.420 . S
U326 O346 2.455 . S
U326 O347 2.449 . S
O327 U326 2.454 . S
O327 C329 1.353 . S
O328 U326 2.458 . S
O328 C329 1.286 . S
C329 U326 2.984 . S
C329 O327 1.353 . S
C329 O328 1.286 . S
C329 C331 1.363 . S
C330 C320 1.465 . S
C330 U326 2.847 . S
C330 O344 1.249 . S
C330 O345 1.202 . S
C331 C329 1.363 . S
C331 C333 1.408 . S
C331 C336 1.342 . S
C332 C333 1.310 . S
C332 C335 1.461 . S
C332 H352 0.932 . S
C333 C331 1.408 . S
C333 C332 1.310 . S
C333 H353 0.930 . S
C334 C335 1.474 . S
C334 C336 1.285 . S
C334 H354 0.929 . S
C335 C332 1.461 . S
C335 C334 1.474 . S
C336 C331 1.342 . S
C336 C334 1.285 . S
C336 H355 0.930 . S
C337 C340 1.424 . S
C337 C342 1.245 . S
C337 C343 1.428 . S
C338 C341 1.260 . S
C338 C342 1.477 . S
C338 H356 0.932 . S
C339 C340 1.384 . S
C339 C341 1.479 . S
C339 H357 0.929 . S
C340 C337 1.424 . S
C340 C339 1.384 . S
C340 H358 0.928 . S
C341 C338 1.260 . S
C341 C339 1.479 . S
C342 C337 1.245 . S
C342 C338 1.477 . S
C342 H359 0.932 . S
C343 U326 2.882 . S
C343 C337 1.428 . S
C343 O346 1.301 . S
C343 O347 1.282 . S
O344 U326 2.441 . S
O344 C330 1.249 . S
O345 U326 2.420 . S
O345 C330 1.202 . S
O346 U326 2.455 . S
O346 C343 1.301 . S
O347 U326 2.449 . S
O347 C343 1.282 . S
H348 C321 0.931 . S
H349 C323 0.929 . S
H350 C324 0.930 . S
H351 C325 0.931 . S
H352 C332 0.932 . S
H353 C333 0.930 . S
H354 C334 0.929 . S
H355 C336 0.930 . S
H356 C338 0.932 . S
H357 C339 0.929 . S
H358 C340 0.928 . S
H359 C342 0.932 . S
C360 C361 1.264 . S
C360 C365 1.479 . S
C360 C370 1.465 . S
C361 C360 1.264 . S
C361 C363 1.339 . S
C361 H388 0.931 . S
C362 C363 1.395 . S
C362 C364 1.320 . S
C363 C361 1.339 . S
C363 C362 1.395 . S
C363 H389 0.929 . S
C364 C362 1.320 . S
C364 C365 1.405 . S
C364 H390 0.930 . S
C365 C360 1.479 . S
C365 C364 1.405 . S
C365 H391 0.931 . S
U366 O367 2.454 . S
U366 O368 2.458 . S
U366 C369 2.984 . S
U366 C370 2.847 . S
U366 C383 2.882 . S
U366 O384 2.441 . S
U366 O385 2.420 . S
U366 O386 2.455 . S
U366 O387 2.449 . S
O367 U366 2.454 . S
O367 C369 1.353 . S
O368 U366 2.458 . S
O368 C369 1.286 . S
C369 U366 2.984 . S
C369 O367 1.353 . S
C369 O368 1.286 . S
C369 C371 1.363 . S
C370 C360 1.465 . S
C370 U366 2.847 . S
C370 O384 1.249 . S
C370 O385 1.202 . S
C371 C369 1.363 . S
C371 C373 1.408 . S
C371 C376 1.342 . S
C372 C373 1.310 . S
C372 C375 1.461 . S
C372 H392 0.932 . S
C373 C371 1.408 . S
C373 C372 1.310 . S
C373 H393 0.930 . S
C374 C375 1.474 . S
C374 C376 1.285 . S
C374 H394 0.929 . S
C375 C372 1.461 . S
C375 C374 1.474 . S
C376 C371 1.342 . S
C376 C374 1.285 . S
C376 H395 0.930 . S
C377 C380 1.424 . S
C377 C382 1.245 . S
C377 C383 1.428 . S
C378 C381 1.260 . S
C378 C382 1.477 . S
C378 H396 0.932 . S
C379 C380 1.384 . S
C379 C381 1.479 . S
C379 H397 0.929 . S
C380 C377 1.424 . S
C380 C379 1.384 . S
C380 H398 0.928 . S
C381 C378 1.260 . S
C381 C379 1.479 . S
C382 C377 1.245 . S
C382 C378 1.477 . S
C382 H399 0.932 . S
C383 U366 2.882 . S
C383 C377 1.428 . S
C383 O386 1.301 . S
C383 O387 1.282 . S
O384 U366 2.441 . S
O384 C370 1.249 . S
O385 U366 2.420 . S
O385 C370 1.202 . S
O386 U366 2.455 . S
O386 C383 1.301 . S
O387 U366 2.449 . S
O387 C383 1.282 . S
H388 C361 0.931 . S
H389 C363 0.929 . S
H390 C364 0.930 . S
H391 C365 0.931 . S
H392 C372 0.932 . S
H393 C373 0.930 . S
H394 C374 0.929 . S
H395 C376 0.930 . S
H396 C378 0.932 . S
H397 C379 0.929 . S
H398 C380 0.928 . S
H399 C382 0.932 . S
C400 C401 1.264 . S
C400 C405 1.479 . S
C400 C410 1.465 . S
C401 C400 1.264 . S
C401 C403 1.339 . S
C401 H428 0.931 . S
C402 C403 1.395 . S
C402 C404 1.320 . S
C403 C401 1.339 . S
C403 C402 1.395 . S
C403 H429 0.929 . S
C404 C402 1.320 . S
C404 C405 1.405 . S
C404 H430 0.930 . S
C405 C400 1.479 . S
C405 C404 1.405 . S
C405 H431 0.931 . S
U406 O407 2.454 . S
U406 O408 2.458 . S
U406 C409 2.984 . S
U406 C410 2.847 . S
U406 C423 2.882 . S
U406 O424 2.441 . S
U406 O425 2.420 . S
U406 O426 2.455 . S
U406 O427 2.449 . S
O407 U406 2.454 . S
O407 C409 1.353 . S
O408 U406 2.458 . S
O408 C409 1.286 . S
C409 U406 2.984 . S
C409 O407 1.353 . S
C409 O408 1.286 . S
C409 C411 1.363 . S
C410 C400 1.465 . S
C410 U406 2.847 . S
C410 O424 1.249 . S
C410 O425 1.202 . S
C411 C409 1.363 . S
C411 C413 1.408 . S
C411 C416 1.342 . S
C412 C413 1.310 . S
C412 C415 1.461 . S
C412 H432 0.932 . S
C413 C411 1.408 . S
C413 C412 1.310 . S
C413 H433 0.930 . S
C414 C415 1.474 . S
C414 C416 1.285 . S
C414 H434 0.929 . S
C415 C412 1.461 . S
C415 C414 1.474 . S
C416 C411 1.342 . S
C416 C414 1.285 . S
C416 H435 0.930 . S
C417 C420 1.424 . S
C417 C422 1.245 . S
C417 C423 1.428 . S
C418 C421 1.260 . S
C418 C422 1.477 . S
C418 H436 0.932 . S
C419 C420 1.384 . S
C419 C421 1.479 . S
C419 H437 0.929 . S
C420 C417 1.424 . S
C420 C419 1.384 . S
C420 H438 0.928 . S
C421 C418 1.260 . S
C421 C419 1.479 . S
C422 C417 1.245 . S
C422 C418 1.477 . S
C422 H439 0.932 . S
C423 U406 2.882 . S
C423 C417 1.428 . S
C423 O426 1.301 . S
C423 O427 1.282 . S
O424 U406 2.441 . S
O424 C410 1.249 . S
O425 U406 2.420 . S
O425 C410 1.202 . S
O426 U406 2.455 . S
O426 C423 1.301 . S
O427 U406 2.449 . S
O427 C423 1.282 . S
H428 C401 0.931 . S
H429 C403 0.929 . S
H430 C404 0.930 . S
H431 C405 0.931 . S
H432 C412 0.932 . S
H433 C413 0.930 . S
H434 C414 0.929 . S
H435 C416 0.930 . S
H436 C418 0.932 . S
H437 C419 0.929 . S
H438 C420 0.928 . S
H439 C422 0.932 . S
C440 C441 1.264 . S
C440 C445 1.479 . S
C440 C450 1.465 . S
C441 C440 1.264 . S
C441 C443 1.339 . S
C441 H468 0.931 . S
C442 C443 1.395 . S
C442 C444 1.320 . S
C443 C441 1.339 . S
C443 C442 1.395 . S
C443 H469 0.929 . S
C444 C442 1.320 . S
C444 C445 1.405 . S
C444 H470 0.930 . S
C445 C440 1.479 . S
C445 C444 1.405 . S
C445 H471 0.931 . S
U446 O447 2.454 . S
U446 O448 2.458 . S
U446 C449 2.984 . S
U446 C450 2.847 . S
U446 C463 2.882 . S
U446 O464 2.441 . S
U446 O465 2.420 . S
U446 O466 2.455 . S
U446 O467 2.449 . S
O447 U446 2.454 . S
O447 C449 1.353 . S
O448 U446 2.458 . S
O448 C449 1.286 . S
C449 U446 2.984 . S
C449 O447 1.353 . S
C449 O448 1.286 . S
C449 C451 1.363 . S
C450 C440 1.465 . S
C450 U446 2.847 . S
C450 O464 1.249 . S
C450 O465 1.202 . S
C451 C449 1.363 . S
C451 C453 1.408 . S
C451 C456 1.342 . S
C452 C453 1.310 . S
C452 C455 1.461 . S
C452 H472 0.932 . S
C453 C451 1.408 . S
C453 C452 1.310 . S
C453 H473 0.930 . S
C454 C455 1.474 . S
C454 C456 1.285 . S
C454 H474 0.929 . S
C455 C452 1.461 . S
C455 C454 1.474 . S
C456 C451 1.342 . S
C456 C454 1.285 . S
C456 H475 0.930 . S
C457 C460 1.424 . S
C457 C462 1.245 . S
C457 C463 1.428 . S
C458 C461 1.260 . S
C458 C462 1.477 . S
C458 H476 0.932 . S
C459 C460 1.384 . S
C459 C461 1.479 . S
C459 H477 0.929 . S
C460 C457 1.424 . S
C460 C459 1.384 . S
C460 H478 0.928 . S
C461 C458 1.260 . S
C461 C459 1.479 . S
C462 C457 1.245 . S
C462 C458 1.477 . S
C462 H479 0.932 . S
C463 U446 2.882 . S
C463 C457 1.428 . S
C463 O466 1.301 . S
C463 O467 1.282 . S
O464 U446 2.441 . S
O464 C450 1.249 . S
O465 U446 2.420 . S
O465 C450 1.202 . S
O466 U446 2.455 . S
O466 C463 1.301 . S
O467 U446 2.449 . S
O467 C463 1.282 . S
H468 C441 0.931 . S
H469 C443 0.929 . S
H470 C444 0.930 . S
H471 C445 0.931 . S
H472 C452 0.932 . S
H473 C453 0.930 . S
H474 C454 0.929 . S
H475 C456 0.930 . S
H476 C458 0.932 . S
H477 C459 0.929 . S
H478 C460 0.928 . S
H479 C462 0.932 . S
C480 C481 1.264 . S
C480 C485 1.479 . S
C480 C490 1.465 . S
C481 C480 1.264 . S
C481 C483 1.339 . S
C481 H508 0.931 . S
C482 C483 1.395 . S
C482 C484 1.320 . S
C483 C481 1.339 . S
C483 C482 1.395 . S
C483 H509 0.929 . S
C484 C482 1.320 . S
C484 C485 1.405 . S
C484 H510 0.930 . S
C485 C480 1.479 . S
C485 C484 1.405 . S
C485 H511 0.931 . S
U486 O487 2.454 . S
U486 O488 2.458 . S
U486 C489 2.984 . S
U486 C490 2.847 . S
U486 C503 2.882 . S
U486 O504 2.441 . S
U486 O505 2.420 . S
U486 O506 2.455 . S
U486 O507 2.449 . S
O487 U486 2.454 . S
O487 C489 1.353 . S
O488 U486 2.458 . S
O488 C489 1.286 . S
C489 U486 2.984 . S
C489 O487 1.353 . S
C489 O488 1.286 . S
C489 C491 1.363 . S
C490 C480 1.465 . S
C490 U486 2.847 . S
C490 O504 1.249 . S
C490 O505 1.202 . S
C491 C489 1.363 . S
C491 C493 1.408 . S
C491 C496 1.342 . S
C492 C493 1.310 . S
C492 C495 1.461 . S
C492 H512 0.932 . S
C493 C491 1.408 . S
C493 C492 1.310 . S
C493 H513 0.930 . S
C494 C495 1.474 . S
C494 C496 1.285 . S
C494 H514 0.929 . S
C495 C492 1.461 . S
C495 C494 1.474 . S
C496 C491 1.342 . S
C496 C494 1.285 . S
C496 H515 0.930 . S
C497 C500 1.424 . S
C497 C502 1.245 . S
C497 C503 1.428 . S
C498 C501 1.260 . S
C498 C502 1.477 . S
C498 H516 0.932 . S
C499 C500 1.384 . S
C499 C501 1.479 . S
C499 H517 0.929 . S
C500 C497 1.424 . S
C500 C499 1.384 . S
C500 H518 0.928 . S
C501 C498 1.260 . S
C501 C499 1.479 . S
C502 C497 1.245 . S
C502 C498 1.477 . S
C502 H519 0.932 . S
C503 U486 2.882 . S
C503 C497 1.428 . S
C503 O506 1.301 . S
C503 O507 1.282 . S
O504 U486 2.441 . S
O504 C490 1.249 . S
O505 U486 2.420 . S
O505 C490 1.202 . S
O506 U486 2.455 . S
O506 C503 1.301 . S
O507 U486 2.449 . S
O507 C503 1.282 . S
H508 C481 0.931 . S
H509 C483 0.929 . S
H510 C484 0.930 . S
H511 C485 0.931 . S
H512 C492 0.932 . S
H513 C493 0.930 . S
H514 C494 0.929 . S
H515 C496 0.930 . S
H516 C498 0.932 . S
H517 C499 0.929 . S
H518 C500 0.928 . S
H519 C502 0.932 . S
C520 C521 1.264 . S
C520 C525 1.479 . S
C520 C530 1.465 . S
C521 C520 1.264 . S
C521 C523 1.339 . S
C521 H548 0.931 . S
C522 C523 1.395 . S
C522 C524 1.320 . S
C523 C521 1.339 . S
C523 C522 1.395 . S
C523 H549 0.929 . S
C524 C522 1.320 . S
C524 C525 1.405 . S
C524 H550 0.930 . S
C525 C520 1.479 . S
C525 C524 1.405 . S
C525 H551 0.931 . S
U526 O527 2.454 . S
U526 O528 2.458 . S
U526 C529 2.984 . S
U526 C530 2.847 . S
U526 C543 2.882 . S
U526 O544 2.441 . S
U526 O545 2.420 . S
U526 O546 2.455 . S
U526 O547 2.449 . S
O527 U526 2.454 . S
O527 C529 1.353 . S
O528 U526 2.458 . S
O528 C529 1.286 . S
C529 U526 2.984 . S
C529 O527 1.353 . S
C529 O528 1.286 . S
C529 C531 1.363 . S
C530 C520 1.465 . S
C530 U526 2.847 . S
C530 O544 1.249 . S
C530 O545 1.202 . S
C531 C529 1.363 . S
C531 C533 1.408 . S
C531 C536 1.342 . S
C532 C533 1.310 . S
C532 C535 1.461 . S
C532 H552 0.932 . S
C533 C531 1.408 . S
C533 C532 1.310 . S
C533 H553 0.930 . S
C534 C535 1.474 . S
C534 C536 1.285 . S
C534 H554 0.929 . S
C535 C532 1.461 . S
C535 C534 1.474 . S
C536 C531 1.342 . S
C536 C534 1.285 . S
C536 H555 0.930 . S
C537 C540 1.424 . S
C537 C542 1.245 . S
C537 C543 1.428 . S
C538 C541 1.260 . S
C538 C542 1.477 . S
C538 H556 0.932 . S
C539 C540 1.384 . S
C539 C541 1.479 . S
C539 H557 0.929 . S
C540 C537 1.424 . S
C540 C539 1.384 . S
C540 H558 0.928 . S
C541 C538 1.260 . S
C541 C539 1.479 . S
C542 C537 1.245 . S
C542 C538 1.477 . S
C542 H559 0.932 . S
C543 U526 2.882 . S
C543 C537 1.428 . S
C543 O546 1.301 . S
C543 O547 1.282 . S
O544 U526 2.441 . S
O544 C530 1.249 . S
O545 U526 2.420 . S
O545 C530 1.202 . S
O546 U526 2.455 . S
O546 C543 1.301 . S
O547 U526 2.449 . S
O547 C543 1.282 . S
H548 C521 0.931 . S
H549 C523 0.929 . S
H550 C524 0.930 . S
H551 C525 0.931 . S
H552 C532 0.932 . S
H553 C533 0.930 . S
H554 C534 0.929 . S
H555 C536 0.930 . S
H556 C538 0.932 . S
H557 C539 0.929 . S
H558 C540 0.928 . S
H559 C542 0.932 . S
C560 C561 1.264 . S
C560 C565 1.479 . S
C560 C570 1.465 . S
C561 C560 1.264 . S
C561 C563 1.339 . S
C561 H588 0.931 . S
C562 C563 1.395 . S
C562 C564 1.320 . S
C563 C561 1.339 . S
C563 C562 1.395 . S
C563 H589 0.929 . S
C564 C562 1.320 . S
C564 C565 1.405 . S
C564 H590 0.930 . S
C565 C560 1.479 . S
C565 C564 1.405 . S
C565 H591 0.931 . S
U566 O567 2.454 . S
U566 O568 2.458 . S
U566 C569 2.984 . S
U566 C570 2.847 . S
U566 C583 2.882 . S
U566 O584 2.441 . S
U566 O585 2.420 . S
U566 O586 2.455 . S
U566 O587 2.449 . S
O567 U566 2.454 . S
O567 C569 1.353 . S
O568 U566 2.458 . S
O568 C569 1.286 . S
C569 U566 2.984 . S
C569 O567 1.353 . S
C569 O568 1.286 . S
C569 C571 1.363 . S
C570 C560 1.465 . S
C570 U566 2.847 . S
C570 O584 1.249 . S
C570 O585 1.202 . S
C571 C569 1.363 . S
C571 C573 1.408 . S
C571 C576 1.342 . S
C572 C573 1.310 . S
C572 C575 1.461 . S
C572 H592 0.932 . S
C573 C571 1.408 . S
C573 C572 1.310 . S
C573 H593 0.930 . S
C574 C575 1.474 . S
C574 C576 1.285 . S
C574 H594 0.929 . S
C575 C572 1.461 . S
C575 C574 1.474 . S
C576 C571 1.342 . S
C576 C574 1.285 . S
C576 H595 0.930 . S
C577 C580 1.424 . S
C577 C582 1.245 . S
C577 C583 1.428 . S
C578 C581 1.260 . S
C578 C582 1.477 . S
C578 H596 0.932 . S
C579 C580 1.384 . S
C579 C581 1.479 . S
C579 H597 0.929 . S
C580 C577 1.424 . S
C580 C579 1.384 . S
C580 H598 0.928 . S
C581 C578 1.260 . S
C581 C579 1.479 . S
C582 C577 1.245 . S
C582 C578 1.477 . S
C582 H599 0.932 . S
C583 U566 2.882 . S
C583 C577 1.428 . S
C583 O586 1.301 . S
C583 O587 1.282 . S
O584 U566 2.441 . S
O584 C570 1.249 . S
O585 U566 2.420 . S
O585 C570 1.202 . S
O586 U566 2.455 . S
O586 C583 1.301 . S
O587 U566 2.449 . S
O587 C583 1.282 . S
H588 C561 0.931 . S
H589 C563 0.929 . S
H590 C564 0.930 . S
H591 C565 0.931 . S
H592 C572 0.932 . S
H593 C573 0.930 . S
H594 C574 0.929 . S
H595 C576 0.930 . S
H596 C578 0.932 . S
H597 C579 0.929 . S
H598 C580 0.928 . S
H599 C582 0.932 . S
C600 C601 1.264 . S
C600 C605 1.479 . S
C600 C610 1.465 . S
C601 C600 1.264 . S
C601 C603 1.339 . S
C601 H628 0.931 . S
C602 C603 1.395 . S
C602 C604 1.320 . S
C603 C601 1.339 . S
C603 C602 1.395 . S
C603 H629 0.929 . S
C604 C602 1.320 . S
C604 C605 1.405 . S
C604 H630 0.930 . S
C605 C600 1.479 . S
C605 C604 1.405 . S
C605 H631 0.931 . S
U606 O607 2.454 . S
U606 O608 2.458 . S
U606 C609 2.984 . S
U606 C610 2.847 . S
U606 C623 2.882 . S
U606 O624 2.441 . S
U606 O625 2.420 . S
U606 O626 2.455 . S
U606 O627 2.449 . S
O607 U606 2.454 . S
O607 C609 1.353 . S
O608 U606 2.458 . S
O608 C609 1.286 . S
C609 U606 2.984 . S
C609 O607 1.353 . S
C609 O608 1.286 . S
C609 C611 1.363 . S
C610 C600 1.465 . S
C610 U606 2.847 . S
C610 O624 1.249 . S
C610 O625 1.202 . S
C611 C609 1.363 . S
C611 C613 1.408 . S
C611 C616 1.342 . S
C612 C613 1.310 . S
C612 C615 1.461 . S
C612 H632 0.932 . S
C613 C611 1.408 . S
C613 C612 1.310 . S
C613 H633 0.930 . S
C614 C615 1.474 . S
C614 C616 1.285 . S
C614 H634 0.929 . S
C615 C612 1.461 . S
C615 C614 1.474 . S
C616 C611 1.342 . S
C616 C614 1.285 . S
C616 H635 0.930 . S
C617 C620 1.424 . S
C617 C622 1.245 . S
C617 C623 1.428 . S
C618 C621 1.260 . S
C618 C622 1.477 . S
C618 H636 0.932 . S
C619 C620 1.384 . S
C619 C621 1.479 . S
C619 H637 0.929 . S
C620 C617 1.424 . S
C620 C619 1.384 . S
C620 H638 0.928 . S
C621 C618 1.260 . S
C621 C619 1.479 . S
C622 C617 1.245 . S
C622 C618 1.477 . S
C622 H639 0.932 . S
C623 U606 2.882 . S
C623 C617 1.428 . S
C623 O626 1.301 . S
C623 O627 1.282 . S
O624 U606 2.441 . S
O624 C610 1.249 . S
O625 U606 2.420 . S
O625 C610 1.202 . S
O626 U606 2.455 . S
O626 C623 1.301 . S
O627 U606 2.449 . S
O627 C623 1.282 . S
H628 C601 0.931 . S
H629 C603 0.929 . S
H630 C604 0.930 . S
H631 C605 0.931 . S
H632 C612 0.932 . S
H633 C613 0.930 . S
H634 C614 0.929 . S
H635 C616 0.930 . S
H636 C618 0.932 . S
H637 C619 0.929 . S
H638 C620 0.928 . S
H639 C622 0.932 . S
C640 C641 1.264 . S
C640 C645 1.479 . S
C640 C650 1.465 . S
C641 C640 1.264 . S
C641 C643 1.339 . S
C641 H668 0.931 . S
C642 C643 1.395 . S
C642 C644 1.320 . S
C643 C641 1.339 . S
C643 C642 1.395 . S
C643 H669 0.929 . S
C644 C642 1.320 . S
C644 C645 1.405 . S
C644 H670 0.930 . S
C645 C640 1.479 . S
C645 C644 1.405 . S
C645 H671 0.931 . S
U646 O647 2.454 . S
U646 O648 2.458 . S
U646 C649 2.984 . S
U646 C650 2.847 . S
U646 C663 2.882 . S
U646 O664 2.441 . S
U646 O665 2.420 . S
U646 O666 2.455 . S
U646 O667 2.449 . S
O647 U646 2.454 . S
O647 C649 1.353 . S
O648 U646 2.458 . S
O648 C649 1.286 . S
C649 U646 2.984 . S
C649 O647 1.353 . S
C649 O648 1.286 . S
C649 C651 1.363 . S
C650 C640 1.465 . S
C650 U646 2.847 . S
C650 O664 1.249 . S
C650 O665 1.202 . S
C651 C649 1.363 . S
C651 C653 1.408 . S
C651 C656 1.342 . S
C652 C653 1.310 . S
C652 C655 1.461 . S
C652 H672 0.932 . S
C653 C651 1.408 . S
C653 C652 1.310 . S
C653 H673 0.930 . S
C654 C655 1.474 . S
C654 C656 1.285 . S
C654 H674 0.929 . S
C655 C652 1.461 . S
C655 C654 1.474 . S
C656 C651 1.342 . S
C656 C654 1.285 . S
C656 H675 0.930 . S
C657 C660 1.424 . S
C657 C662 1.245 . S
C657 C663 1.428 . S
C658 C661 1.260 . S
C658 C662 1.477 . S
C658 H676 0.932 . S
C659 C660 1.384 . S
C659 C661 1.479 . S
C659 H677 0.929 . S
C660 C657 1.424 . S
C660 C659 1.384 . S
C660 H678 0.928 . S
C661 C658 1.260 . S
C661 C659 1.479 . S
C662 C657 1.245 . S
C662 C658 1.477 . S
C662 H679 0.932 . S
C663 U646 2.882 . S
C663 C657 1.428 . S
C663 O666 1.301 . S
C663 O667 1.282 . S
O664 U646 2.441 . S
O664 C650 1.249 . S
O665 U646 2.420 . S
O665 C650 1.202 . S
O666 U646 2.455 . S
O666 C663 1.301 . S
O667 U646 2.449 . S
O667 C663 1.282 . S
H668 C641 0.931 . S
H669 C643 0.929 . S
H670 C644 0.930 . S
H671 C645 0.931 . S
H672 C652 0.932 . S
H673 C653 0.930 . S
H674 C654 0.929 . S
H675 C656 0.930 . S
H676 C658 0.932 . S
H677 C659 0.929 . S
H678 C660 0.928 . S
H679 C662 0.932 . S
C680 C681 1.264 . S
C680 C685 1.479 . S
C680 C690 1.465 . S
C681 C680 1.264 . S
C681 C683 1.339 . S
C681 H708 0.931 . S
C682 C683 1.395 . S
C682 C684 1.320 . S
C683 C681 1.339 . S
C683 C682 1.395 . S
C683 H709 0.929 . S
C684 C682 1.320 . S
C684 C685 1.405 . S
C684 H710 0.930 . S
C685 C680 1.479 . S
C685 C684 1.405 . S
C685 H711 0.931 . S
U686 O687 2.454 . S
U686 O688 2.458 . S
U686 C689 2.984 . S
U686 C690 2.847 . S
U686 C703 2.882 . S
U686 O704 2.441 . S
U686 O705 2.420 . S
U686 O706 2.455 . S
U686 O707 2.449 . S
O687 U686 2.454 . S
O687 C689 1.353 . S
O688 U686 2.458 . S
O688 C689 1.286 . S
C689 U686 2.984 . S
C689 O687 1.353 . S
C689 O688 1.286 . S
C689 C691 1.363 . S
C690 C680 1.465 . S
C690 U686 2.847 . S
C690 O704 1.249 . S
C690 O705 1.202 . S
C691 C689 1.363 . S
C691 C693 1.408 . S
C691 C696 1.342 . S
C692 C693 1.310 . S
C692 C695 1.461 . S
C692 H712 0.932 . S
C693 C691 1.408 . S
C693 C692 1.310 . S
C693 H713 0.930 . S
C694 C695 1.474 . S
C694 C696 1.285 . S
C694 H714 0.929 . S
C695 C692 1.461 . S
C695 C694 1.474 . S
C696 C691 1.342 . S
C696 C694 1.285 . S
C696 H715 0.930 . S
C697 C700 1.424 . S
C697 C702 1.245 . S
C697 C703 1.428 . S
C698 C701 1.260 . S
C698 C702 1.477 . S
C698 H716 0.932 . S
C699 C700 1.384 . S
C699 C701 1.479 . S
C699 H717 0.929 . S
C700 C697 1.424 . S
C700 C699 1.384 . S
C700 H718 0.928 . S
C701 C698 1.260 . S
C701 C699 1.479 . S
C702 C697 1.245 . S
C702 C698 1.477 . S
C702 H719 0.932 . S
C703 U686 2.882 . S
C703 C697 1.428 . S
C703 O706 1.301 . S
C703 O707 1.282 . S
O704 U686 2.441 . S
O704 C690 1.249 . S
O705 U686 2.420 . S
O705 C690 1.202 . S
O706 U686 2.455 . S
O706 C703 1.301 . S
O707 U686 2.449 . S
O707 C703 1.282 . S
H708 C681 0.931 . S
H709 C683 0.929 . S
H710 C684 0.930 . S
H711 C685 0.931 . S
H712 C692 0.932 . S
H713 C693 0.930 . S
H714 C694 0.929 . S
H715 C696 0.930 . S
H716 C698 0.932 . S
H717 C699 0.929 . S
H718 C700 0.928 . S
H719 C702 0.932 . S
C720 Eu721 2.835 . S
C720 C722 1.501 . S
C720 O740 1.257 1_545 S
C720 O741 1.260 . S
Eu721 C720 2.835 . S
Eu721 O740 2.473 1_545 S
Eu721 O741 2.480 . S
Eu721 O742 2.430 . S
Eu721 O743 2.670 1_554 S
Eu721 O744 2.394 1_545 S
Eu721 O749 2.355 1_545 S
Eu721 O751 2.374 . S
C722 C720 1.501 . S
C722 C723 1.383 . S
C722 C727 1.370 1_545 S
C723 C722 1.383 . S
C723 C724 1.395 . S
C723 H752 0.931 . S
C724 C723 1.395 . S
C724 C725 1.383 1_545 S
C724 H753 0.931 . S
C725 C724 1.383 1_565 S
C725 C726 1.394 . S
C726 C725 1.394 . S
C726 C727 1.378 . S
C726 H754 0.931 . S
C727 C722 1.370 1_565 S
C727 C726 1.378 . S
C727 H755 0.931 . S
C728 O742 1.259 . S
C728 O743 1.270 1_554 S
C729 O744 1.251 . S
C729 O745 1.211 1_554 S
C730 Eu731 2.835 . S
C730 C732 1.494 1_565 S
C730 O746 1.257 1_565 S
C730 O747 1.260 . S
Eu731 C730 2.835 . S
Eu731 O743 2.355 1_565 S
Eu731 O745 2.403 . S
Eu731 O746 2.473 1_565 S
Eu731 O747 2.480 . S
Eu731 O748 2.430 . S
Eu731 O749 2.670 1_556 S
Eu731 O750 2.394 1_565 S
C732 C730 1.494 1_545 S
C732 C733 1.333 1_545 S
C732 C737 1.429 . S
C733 C732 1.333 1_565 S
C733 C734 1.395 . S
C733 H756 0.931 . S
C734 C733 1.395 . S
C734 C735 1.383 1_565 S
C734 H757 0.931 . S
C735 C734 1.383 1_545 S
C735 C736 1.394 . S
C736 C735 1.394 . S
C736 C737 1.378 . S
C736 H758 0.931 . S
C737 C732 1.429 . S
C737 C736 1.378 . S
C737 H759 0.931 . S
C738 O748 1.259 1_554 S
C738 O749 1.270 . S
C739 O750 1.251 . S
C739 O751 1.251 1_556 S
O740 C720 1.257 1_565 S
O740 Eu721 2.473 1_565 S
O741 C720 1.260 . S
O741 Eu721 2.480 . S
O742 Eu721 2.430 . S
O742 C728 1.259 . S
O743 Eu721 2.670 1_556 S
O743 C728 1.270 1_556 S
O743 Eu731 2.355 1_545 S
O744 Eu721 2.394 1_565 S
O744 C729 1.251 . S
O745 C729 1.211 1_556 S
O745 Eu731 2.403 . S
O746 C730 1.257 1_545 S
O746 Eu731 2.473 1_545 S
O747 C730 1.260 . S
O747 Eu731 2.480 . S
O748 Eu731 2.430 . S
O748 C738 1.259 1_556 S
O749 Eu721 2.355 1_565 S
O749 Eu731 2.670 1_554 S
O749 C738 1.270 . S
O750 Eu731 2.394 1_545 S
O750 C739 1.251 . S
O751 Eu721 2.374 . S
O751 C739 1.251 1_554 S
H752 C723 0.931 . S
H753 C724 0.931 . S
H754 C726 0.931 . S
H755 C727 0.931 . S
H756 C733 0.931 . S
H757 C734 0.931 . S
H758 C736 0.931 . S
H759 C737 0.931 . S
C760 Eu761 2.835 . S
C760 C762 1.500 1_655 S
C760 O780 1.257 1_655 S
C760 O781 1.260 . S
Eu761 C760 2.835 . S
Eu761 O780 2.473 1_655 S
Eu761 O781 2.480 . S
Eu761 O782 2.430 . S
Eu761 O783 2.670 1_554 S
Eu761 O784 2.394 1_655 S
Eu761 O789 2.355 1_655 S
Eu761 O791 2.374 . S
C762 C760 1.500 1_455 S
C762 C763 1.377 1_455 S
C762 C767 1.377 . S
C763 C762 1.377 1_655 S
C763 C764 1.395 . S
C763 H792 0.931 . S
C764 C763 1.395 . S
C764 C765 1.383 1_655 S
C764 H793 0.931 . S
C765 C764 1.383 1_455 S
C765 C766 1.394 . S
C766 C765 1.394 . S
C766 C767 1.378 . S
C766 H794 0.931 . S
C767 C762 1.377 . S
C767 C766 1.378 . S
C767 H795 0.931 . S
C768 O782 1.199 1_556 S
C768 O783 1.296 . S
C769 O784 1.251 . S
C769 O785 1.251 . S
C770 Eu771 2.835 . S
C770 C772 1.500 1_455 S
C770 O786 1.257 1_455 S
C770 O787 1.260 . S
Eu771 C770 2.835 . S
Eu771 O783 2.355 1_455 S
Eu771 O785 2.374 1_556 S
Eu771 O786 2.473 1_455 S
Eu771 O787 2.480 . S
Eu771 O788 2.430 . S
Eu771 O789 2.670 1_556 S
Eu771 O790 2.394 1_455 S
C772 C770 1.500 1_655 S
C772 C773 1.377 1_655 S
C772 C777 1.377 . S
C773 C772 1.377 1_455 S
C773 C774 1.395 . S
C773 H796 0.931 . S
C774 C773 1.395 . S
C774 C775 1.383 1_455 S
C774 H797 0.931 . S
C775 C774 1.383 1_655 S
C775 C776 1.394 . S
C776 C775 1.394 . S
C776 C777 1.378 . S
C776 H798 0.931 . S
C777 C772 1.377 . S
C777 C776 1.378 . S
C777 H799 0.931 . S
C778 O788 1.259 1_554 S
C778 O789 1.270 . S
C779 O790 1.251 . S
C779 O791 1.251 1_556 S
O780 C760 1.257 1_455 S
O780 Eu761 2.473 1_455 S
O781 C760 1.260 . S
O781 Eu761 2.480 . S
O782 Eu761 2.430 . S
O782 C768 1.199 1_554 S
O783 Eu761 2.670 1_556 S
O783 C768 1.296 . S
O783 Eu771 2.355 1_655 S
O784 Eu761 2.394 1_455 S
O784 C769 1.251 . S
O785 C769 1.251 . S
O785 Eu771 2.374 1_554 S
O786 C770 1.257 1_655 S
O786 Eu771 2.473 1_655 S
O787 C770 1.260 . S
O787 Eu771 2.480 . S
O788 Eu771 2.430 . S
O788 C778 1.259 1_556 S
O789 Eu761 2.355 1_455 S
O789 Eu771 2.670 1_554 S
O789 C778 1.270 . S
O790 Eu771 2.394 1_655 S
O790 C779 1.251 . S
O791 Eu761 2.374 . S
O791 C779 1.251 1_554 S
H792 C763 0.931 . S
H793 C764 0.931 . S
H794 C766 0.931 . S
H795 C767 0.931 . S
H796 C773 0.931 . S
H797 C774 0.931 . S
H798 C776 0.931 . S
H799 C777 0.931 . S
C800 Eu801 2.835 . S
C800 C802 1.500 . S
C800 O820 1.257 . S
C800 O821 1.260 . S
Eu801 C800 2.835 . S
Eu801 O820 2.473 . S
Eu801 O821 2.480 . S
Eu801 O822 2.430 . S
Eu801 O823 2.670 1_556 S
Eu801 O824 2.394 . S
Eu801 O829 2.355 . S
Eu801 O831 2.374 1_556 S
C802 C800 1.500 . S
C802 C803 1.377 . S
C802 C807 1.377 . S
C803 C802 1.377 . S
C803 C804 1.395 . S
C803 H832 0.931 . S
C804 C803 1.395 . S
C804 C805 1.383 . S
C804 H833 0.931 . S
C805 C804 1.383 . S
C805 C806 1.394 . S
C806 C805 1.394 . S
C806 C807 1.378 . S
C806 H834 0.931 . S
C807 C802 1.377 . S
C807 C806 1.378 . S
C807 H835 0.931 . S
C808 O822 1.259 1_554 S
C808 O823 1.270 . S
C809 O824 1.251 . S
C809 O825 1.251 1_556 S
C810 Eu811 2.835 . S
C810 C812 1.500 . S
C810 O826 1.257 . S
C810 O827 1.260 . S
Eu811 C810 2.835 . S
Eu811 O823 2.355 . S
Eu811 O825 2.374 . S
Eu811 O826 2.473 . S
Eu811 O827 2.480 . S
Eu811 O828 2.430 . S
Eu811 O829 2.670 1_554 S
Eu811 O830 2.394 . S
C812 C810 1.500 . S
C812 C813 1.377 . S
C812 C817 1.377 . S
C813 C812 1.377 . S
C813 C814 1.395 . S
C813 H836 0.931 . S
C814 C813 1.395 . S
C814 C815 1.383 . S
C814 H837 0.931 . S
C815 C814 1.383 . S
C815 C816 1.394 . S
C816 C815 1.394 . S
C816 C817 1.378 . S
C816 H838 0.931 . S
C817 C812 1.377 . S
C817 C816 1.378 . S
C817 H839 0.931 . S
C818 O828 1.257 1_556 S
C818 O829 1.271 . S
C819 O830 1.251 . S
C819 O831 1.251 . S
O820 C800 1.257 . S
O820 Eu801 2.473 . S
O821 C800 1.260 . S
O821 Eu801 2.480 . S
O822 Eu801 2.430 . S
O822 C808 1.259 1_556 S
O823 Eu801 2.670 1_554 S
O823 C808 1.270 . S
O823 Eu811 2.355 . S
O824 Eu801 2.394 . S
O824 C809 1.251 . S
O825 C809 1.251 1_554 S
O825 Eu811 2.374 . S
O826 C810 1.257 . S
O826 Eu811 2.473 . S
O827 C810 1.260 . S
O827 Eu811 2.480 . S
O828 Eu811 2.430 . S
O828 C818 1.257 1_554 S
O829 Eu801 2.355 . S
O829 Eu811 2.670 1_556 S
O829 C818 1.271 . S
O830 Eu811 2.394 . S
O830 C819 1.251 . S
O831 Eu801 2.374 1_554 S
O831 C819 1.251 . S
H832 C803 0.931 . S
H833 C804 0.931 . S
H834 C806 0.931 . S
H835 C807 0.931 . S
H836 C813 0.931 . S
H837 C814 0.931 . S
H838 C816 0.931 . S
H839 C817 0.931 . S
C840 Eu841 2.835 . S
C840 C842 1.500 . S
C840 O860 1.257 . S
C840 O861 1.260 . S
Eu841 C840 2.835 . S
Eu841 O860 2.473 . S
Eu841 O861 2.480 . S
Eu841 O862 2.430 . S
Eu841 O863 2.670 . S
Eu841 O864 2.394 . S
Eu841 O869 2.355 . S
Eu841 O871 2.374 . S
C842 C840 1.500 . S
C842 C843 1.377 . S
C842 C847 1.377 . S
C843 C842 1.377 . S
C843 C844 1.395 . S
C843 H872 0.931 . S
C844 C843 1.395 . S
C844 C845 1.383 . S
C844 H873 0.931 . S
C845 C844 1.383 . S
C845 C846 1.394 . S
C846 C845 1.394 . S
C846 C847 1.378 . S
C846 H874 0.931 . S
C847 C842 1.377 . S
C847 C846 1.378 . S
C847 H875 0.931 . S
C848 O862 1.259 . S
C848 O863 1.270 . S
C849 O864 1.251 . S
C849 O865 1.251 . S
C850 Eu851 2.835 . S
C850 C852 1.500 . S
C850 O866 1.257 . S
C850 O867 1.260 . S
Eu851 C850 2.835 . S
Eu851 O863 2.355 . S
Eu851 O865 2.374 . S
Eu851 O866 2.473 . S
Eu851 O867 2.480 . S
Eu851 O868 2.430 . S
Eu851 O869 2.670 . S
Eu851 O870 2.394 . S
C852 C850 1.500 . S
C852 C853 1.377 . S
C852 C857 1.377 . S
C853 C852 1.377 . S
C853 C854 1.395 . S
C853 H876 0.931 . S
C854 C853 1.395 . S
C854 C855 1.383 . S
C854 H877 0.931 . S
C855 C854 1.383 . S
C855 C856 1.394 . S
C856 C855 1.394 . S
C856 C857 1.378 . S
C856 H878 0.931 . S
C857 C852 1.377 . S
C857 C856 1.378 . S
C857 H879 0.931 . S
C858 O868 1.259 . S
C858 O869 1.270 . S
C859 O870 1.251 . S
C859 O871 1.251 . S
O860 C840 1.257 . S
O860 Eu841 2.473 . S
O861 C840 1.260 . S
O861 Eu841 2.480 . S
O862 Eu841 2.430 . S
O862 C848 1.259 . S
O863 Eu841 2.670 . S
O863 C848 1.270 . S
O863 Eu851 2.355 . S
O864 Eu841 2.394 . S
O864 C849 1.251 . S
O865 C849 1.251 . S
O865 Eu851 2.374 . S
O866 C850 1.257 . S
O866 Eu851 2.473 . S
O867 C850 1.260 . S
O867 Eu851 2.480 . S
O868 Eu851 2.430 . S
O868 C858 1.259 . S
O869 Eu841 2.355 . S
O869 Eu851 2.670 . S
O869 C858 1.270 . S
O870 Eu851 2.394 . S
O870 C859 1.251 . S
O871 Eu841 2.374 . S
O871 C859 1.251 . S
H872 C843 0.931 . S
H873 C844 0.931 . S
H874 C846 0.931 . S
H875 C847 0.931 . S
H876 C853 0.931 . S
H877 C854 0.931 . S
H878 C856 0.931 . S
H879 C857 0.931 . S
C880 Eu881 2.835 . S
C880 C882 1.500 . S
C880 O900 1.257 . S
C880 O901 1.260 . S
Eu881 C880 2.835 . S
Eu881 O900 2.473 . S
Eu881 O901 2.480 . S
Eu881 O902 2.430 . S
Eu881 O903 2.670 . S
Eu881 O904 2.394 . S
Eu881 O909 2.355 . S
Eu881 O911 2.374 . S
C882 C880 1.500 . S
C882 C883 1.377 . S
C882 C887 1.377 . S
C883 C882 1.377 . S
C883 C884 1.395 . S
C883 H912 0.931 . S
C884 C883 1.395 . S
C884 C885 1.383 . S
C884 H913 0.931 . S
C885 C884 1.383 . S
C885 C886 1.394 . S
C886 C885 1.394 . S
C886 C887 1.378 . S
C886 H914 0.931 . S
C887 C882 1.377 . S
C887 C886 1.378 . S
C887 H915 0.931 . S
C888 O902 1.259 . S
C888 O903 1.270 . S
C889 O904 1.251 . S
C889 O905 1.251 . S
C890 Eu891 2.835 . S
C890 C892 1.500 . S
C890 O906 1.257 . S
C890 O907 1.260 . S
Eu891 C890 2.835 . S
Eu891 O903 2.355 . S
Eu891 O905 2.374 . S
Eu891 O906 2.473 . S
Eu891 O907 2.480 . S
Eu891 O908 2.430 . S
Eu891 O909 2.670 . S
Eu891 O910 2.394 . S
C892 C890 1.500 . S
C892 C893 1.377 . S
C892 C897 1.377 . S
C893 C892 1.377 . S
C893 C894 1.395 . S
C893 H916 0.931 . S
C894 C893 1.395 . S
C894 C895 1.383 . S
C894 H917 0.931 . S
C895 C894 1.383 . S
C895 C896 1.394 . S
C896 C895 1.394 . S
C896 C897 1.378 . S
C896 H918 0.931 . S
C897 C892 1.377 . S
C897 C896 1.378 . S
C897 H919 0.931 . S
C898 O908 1.259 . S
C898 O909 1.270 . S
C899 O910 1.251 . S
C899 O911 1.251 . S
O900 C880 1.257 . S
O900 Eu881 2.473 . S
O901 C880 1.260 . S
O901 Eu881 2.480 . S
O902 Eu881 2.430 . S
O902 C888 1.259 . S
O903 Eu881 2.670 . S
O903 C888 1.270 . S
O903 Eu891 2.355 . S
O904 Eu881 2.394 . S
O904 C889 1.251 . S
O905 C889 1.251 . S
O905 Eu891 2.374 . S
O906 C890 1.257 . S
O906 Eu891 2.473 . S
O907 C890 1.260 . S
O907 Eu891 2.480 . S
O908 Eu891 2.430 . S
O908 C898 1.259 . S
O909 Eu881 2.355 . S
O909 Eu891 2.670 . S
O909 C898 1.270 . S
O910 Eu891 2.394 . S
O910 C899 1.251 . S
O911 Eu881 2.374 . S
O911 C899 1.251 . S
H912 C883 0.931 . S
H913 C884 0.931 . S
H914 C886 0.931 . S
H915 C887 0.931 . S
H916 C893 0.931 . S
H917 C894 0.931 . S
H918 C896 0.931 . S
H919 C897 0.931 . S
C920 Eu921 2.835 . S
C920 C922 1.500 . S
C920 O940 1.257 . S
C920 O941 1.260 . S
Eu921 C920 2.835 . S
Eu921 O940 2.473 . S
Eu921 O941 2.480 . S
Eu921 O942 2.430 . S
Eu921 O943 2.670 . S
Eu921 O944 2.394 . S
Eu921 O949 2.355 . S
Eu921 O951 2.374 . S
C922 C920 1.500 . S
C922 C923 1.377 . S
C922 C927 1.377 . S
C923 C922 1.377 . S
C923 C924 1.395 . S
C923 H952 0.931 . S
C924 C923 1.395 . S
C924 C925 1.383 . S
C924 H953 0.931 . S
C925 C924 1.383 . S
C925 C926 1.394 . S
C926 C925 1.394 . S
C926 C927 1.378 . S
C926 H954 0.931 . S
C927 C922 1.377 . S
C927 C926 1.378 . S
C927 H955 0.931 . S
C928 O942 1.259 . S
C928 O943 1.270 . S
C929 O944 1.251 . S
C929 O945 1.251 . S
C930 Eu931 2.835 . S
C930 C932 1.500 . S
C930 O946 1.257 . S
C930 O947 1.260 . S
Eu931 C930 2.835 . S
Eu931 O943 2.355 . S
Eu931 O945 2.374 . S
Eu931 O946 2.473 . S
Eu931 O947 2.480 . S
Eu931 O948 2.430 . S
Eu931 O949 2.670 . S
Eu931 O950 2.394 . S
C932 C930 1.500 . S
C932 C933 1.377 . S
C932 C937 1.377 . S
C933 C932 1.377 . S
C933 C934 1.395 . S
C933 H956 0.931 . S
C934 C933 1.395 . S
C934 C935 1.383 . S
C934 H957 0.931 . S
C935 C934 1.383 . S
C935 C936 1.394 . S
C936 C935 1.394 . S
C936 C937 1.378 . S
C936 H958 0.931 . S
C937 C932 1.377 . S
C937 C936 1.378 . S
C937 H959 0.931 . S
C938 O948 1.259 . S
C938 O949 1.270 . S
C939 O950 1.251 . S
C939 O951 1.251 . S
O940 C920 1.257 . S
O940 Eu921 2.473 . S
O941 C920 1.260 . S
O941 Eu921 2.480 . S
O942 Eu921 2.430 . S
O942 C928 1.259 . S
O943 Eu921 2.670 . S
O943 C928 1.270 . S
O943 Eu931 2.355 . S
O944 Eu921 2.394 . S
O944 C929 1.251 . S
O945 C929 1.251 . S
O945 Eu931 2.374 . S
O946 C930 1.257 . S
O946 Eu931 2.473 . S
O947 C930 1.260 . S
O947 Eu931 2.480 . S
O948 Eu931 2.430 . S
O948 C938 1.259 . S
O949 Eu921 2.355 . S
O949 Eu931 2.670 . S
O949 C938 1.270 . S
O950 Eu931 2.394 . S
O950 C939 1.251 . S
O951 Eu921 2.374 . S
O951 C939 1.251 . S
H952 C923 0.931 . S
H953 C924 0.931 . S
H954 C926 0.931 . S
H955 C927 0.931 . S
H956 C933 0.931 . S
H957 C934 0.931 . S
H958 C936 0.931 . S
H959 C937 0.931 . S
C960 Eu961 2.835 . S
C960 C962 1.500 . S
C960 O980 1.257 . S
C960 O981 1.260 . S
Eu961 C960 2.835 . S
Eu961 O980 2.473 . S
Eu961 O981 2.480 . S
Eu961 O982 2.430 . S
Eu961 O983 2.670 . S
Eu961 O984 2.394 . S
Eu961 O989 2.355 . S
Eu961 O991 2.374 . S
C962 C960 1.500 . S
C962 C963 1.377 . S
C962 C967 1.377 . S
C963 C962 1.377 . S
C963 C964 1.395 . S
C963 H992 0.931 . S
C964 C963 1.395 . S
C964 C965 1.383 . S
C964 H993 0.931 . S
C965 C964 1.383 . S
C965 C966 1.394 . S
C966 C965 1.394 . S
C966 C967 1.378 . S
C966 H994 0.931 . S
C967 C962 1.377 . S
C967 C966 1.378 . S
C967 H995 0.931 . S
C968 O982 1.259 . S
C968 O983 1.270 . S
C969 O984 1.251 . S
C969 O985 1.251 . S
C970 Eu971 2.835 . S
C970 C972 1.500 . S
C970 O986 1.257 . S
C970 O987 1.260 . S
Eu971 C970 2.835 . S
Eu971 O983 2.355 . S
Eu971 O985 2.374 . S
Eu971 O986 2.473 . S
Eu971 O987 2.480 . S
Eu971 O988 2.430 . S
Eu971 O989 2.670 . S
Eu971 O990 2.394 . S
C972 C970 1.500 . S
C972 C973 1.377 . S
C972 C977 1.377 . S
C973 C972 1.377 . S
C973 C974 1.395 . S
C973 H996 0.931 . S
C974 C973 1.395 . S
C974 C975 1.383 . S
C974 H997 0.931 . S
C975 C974 1.383 . S
C975 C976 1.394 . S
C976 C975 1.394 . S
C976 C977 1.378 . S
C976 H998 0.931 . S
C977 C972 1.377 . S
C977 C976 1.378 . S
C977 H999 0.931 . S
C978 O988 1.259 . S
C978 O989 1.270 . S
C979 O990 1.251 . S
C979 O991 1.251 . S
O980 C960 1.257 . S
O980 Eu961 2.473 . S
O981 C960 1.260 . S
O981 Eu961 2.480 . S
O982 Eu961 2.430 . S
O982 C968 1.259 . S
O983 Eu961 2.670 . S
O983 C968 1.270 . S
O983 Eu971 2.355 . S
O984 Eu961 2.394 . S
O984 C969 1.251 . S
O985 C969 1.251 . S
O985 Eu971 2.374 . S
O986 C970 1.257 . S
O986 Eu971 2.473 . S
O987 C970 1.260 . S
O987 Eu971 2.480 . S
O988 Eu971 2.430 . S
O988 C978 1.259 . S
O989 Eu961 2.355 . S
O989 Eu971 2.670 . S
O989 C978 1.270 . S
O990 Eu971 2.394 . S
O990 C979 1.251 . S
O991 Eu961 2.374 . S
O991 C979 1.251 . S
H992 C963 0.931 . S
H993 C964 0.931 . S
H994 C966 0.931 . S
H995 C967 0.931 . S
H996 C973 0.931 . S
H997 C974 0.931 . S
H998 C976 0.931 . S
H999 C977 0.931 . S
C1000 Eu1001 2.835 . S
C1000 C1002 1.500 . S
C1000 O1020 1.257 . S
C1000 O1021 1.260 . S
Eu1001 C1000 2.835 . S
Eu1001 O1020 2.473 . S
Eu1001 O1021 2.480 . S
Eu1001 O1022 2.430 . S
Eu1001 O1023 2.670 . S
Eu1001 O1024 2.394 . S
Eu1001 O1029 2.355 . S
Eu1001 O1031 2.374 . S
C1002 C1000 1.500 . S
C1002 C1003 1.377 . S
C1002 C1007 1.377 . S
C1003 C1002 1.377 . S
C1003 C1004 1.395 . S
C1003 H1032 0.931 . S
C1004 C1003 1.395 . S
C1004 C1005 1.383 . S
C1004 H1033 0.931 . S
C1005 C1004 1.383 . S
C1005 C1006 1.394 . S
C1006 C1005 1.394 . S
C1006 C1007 1.378 . S
C1006 H1034 0.931 . S
C1007 C1002 1.377 . S
C1007 C1006 1.378 . S
C1007 H1035 0.931 . S
C1008 O1022 1.259 . S
C1008 O1023 1.270 . S
C1009 O1024 1.251 . S
C1009 O1025 1.251 . S
C1010 Eu1011 2.835 . S
C1010 C1012 1.500 . S
C1010 O1026 1.257 . S
C1010 O1027 1.260 . S
Eu1011 C1010 2.835 . S
Eu1011 O1023 2.355 . S
Eu1011 O1025 2.374 . S
Eu1011 O1026 2.473 . S
Eu1011 O1027 2.480 . S
Eu1011 O1028 2.430 . S
Eu1011 O1029 2.670 . S
Eu1011 O1030 2.394 . S
C1012 C1010 1.500 . S
C1012 C1013 1.377 . S
C1012 C1017 1.377 . S
C1013 C1012 1.377 . S
C1013 C1014 1.395 . S
C1013 H1036 0.931 . S
C1014 C1013 1.395 . S
C1014 C1015 1.383 . S
C1014 H1037 0.931 . S
C1015 C1014 1.383 . S
C1015 C1016 1.394 . S
C1016 C1015 1.394 . S
C1016 C1017 1.378 . S
C1016 H1038 0.931 . S
C1017 C1012 1.377 . S
C1017 C1016 1.378 . S
C1017 H1039 0.931 . S
C1018 O1028 1.259 . S
C1018 O1029 1.270 . S
C1019 O1030 1.251 . S
C1019 O1031 1.251 . S
O1020 C1000 1.257 . S
O1020 Eu1001 2.473 . S
O1021 C1000 1.260 . S
O1021 Eu1001 2.480 . S
O1022 Eu1001 2.430 . S
O1022 C1008 1.259 . S
O1023 Eu1001 2.670 . S
O1023 C1008 1.270 . S
O1023 Eu1011 2.355 . S
O1024 Eu1001 2.394 . S
O1024 C1009 1.251 . S
O1025 C1009 1.251 . S
O1025 Eu1011 2.374 . S
O1026 C1010 1.257 . S
O1026 Eu1011 2.473 . S
O1027 C1010 1.260 . S
O1027 Eu1011 2.480 . S
O1028 Eu1011 2.430 . S
O1028 C1018 1.259 . S
O1029 Eu1001 2.355 . S
O1029 Eu1011 2.670 . S
O1029 C1018 1.270 . S
O1030 Eu1011 2.394 . S
O1030 C1019 1.251 . S
O1031 Eu1001 2.374 . S
O1031 C1019 1.251 . S
H1032 C1003 0.931 . S
H1033 C1004 0.931 . S
H1034 C1006 0.931 . S
H1035 C1007 0.931 . S
H1036 C1013 0.931 . S
H1037 C1014 0.931 . S
H1038 C1016 0.931 . S
H1039 C1017 0.931 . S
C1040 Eu1041 2.835 . S
C1040 C1042 1.500 . S
C1040 O1060 1.257 . S
C1040 O1061 1.260 . S
Eu1041 C1040 2.835 . S
Eu1041 O1060 2.473 . S
Eu1041 O1061 2.480 . S
Eu1041 O1062 2.430 . S
Eu1041 O1063 2.670 . S
Eu1041 O1064 2.394 . S
Eu1041 O1069 2.355 . S
Eu1041 O1071 2.374 . S
C1042 C1040 1.500 . S
C1042 C1043 1.377 . S
C1042 C1047 1.377 . S
C1043 C1042 1.377 . S
C1043 C1044 1.395 . S
C1043 H1072 0.931 . S
C1044 C1043 1.395 . S
C1044 C1045 1.383 . S
C1044 H1073 0.931 . S
C1045 C1044 1.383 . S
C1045 C1046 1.394 . S
C1046 C1045 1.394 . S
C1046 C1047 1.378 . S
C1046 H1074 0.931 . S
C1047 C1042 1.377 . S
C1047 C1046 1.378 . S
C1047 H1075 0.931 . S
C1048 O1062 1.259 . S
C1048 O1063 1.270 . S
C1049 O1064 1.251 . S
C1049 O1065 1.251 . S
C1050 Eu1051 2.835 . S
C1050 C1052 1.500 . S
C1050 O1066 1.257 . S
C1050 O1067 1.260 . S
Eu1051 C1050 2.835 . S
Eu1051 O1063 2.355 . S
Eu1051 O1065 2.374 . S
Eu1051 O1066 2.473 . S
Eu1051 O1067 2.480 . S
Eu1051 O1068 2.430 . S
Eu1051 O1069 2.670 . S
Eu1051 O1070 2.394 . S
C1052 C1050 1.500 . S
C1052 C1053 1.377 . S
C1052 C1057 1.377 . S
C1053 C1052 1.377 . S
C1053 C1054 1.395 . S
C1053 H1076 0.931 . S
C1054 C1053 1.395 . S
C1054 C1055 1.383 . S
C1054 H1077 0.931 . S
C1055 C1054 1.383 . S
C1055 C1056 1.394 . S
C1056 C1055 1.394 . S
C1056 C1057 1.378 . S
C1056 H1078 0.931 . S
C1057 C1052 1.377 . S
C1057 C1056 1.378 . S
C1057 H1079 0.931 . S
C1058 O1068 1.259 . S
C1058 O1069 1.270 . S
C1059 O1070 1.251 . S
C1059 O1071 1.251 . S
O1060 C1040 1.257 . S
O1060 Eu1041 2.473 . S
O1061 C1040 1.260 . S
O1061 Eu1041 2.480 . S
O1062 Eu1041 2.430 . S
O1062 C1048 1.259 . S
O1063 Eu1041 2.670 . S
O1063 C1048 1.270 . S
O1063 Eu1051 2.355 . S
O1064 Eu1041 2.394 . S
O1064 C1049 1.251 . S
O1065 C1049 1.251 . S
O1065 Eu1051 2.374 . S
O1066 C1050 1.257 . S
O1066 Eu1051 2.473 . S
O1067 C1050 1.260 . S
O1067 Eu1051 2.480 . S
O1068 Eu1051 2.430 . S
O1068 C1058 1.259 . S
O1069 Eu1041 2.355 . S
O1069 Eu1051 2.670 . S
O1069 C1058 1.270 . S
O1070 Eu1051 2.394 . S
O1070 C1059 1.251 . S
O1071 Eu1041 2.374 . S
O1071 C1059 1.251 . S
H1072 C1043 0.931 . S
H1073 C1044 0.931 . S
H1074 C1046 0.931 . S
H1075 C1047 0.931 . S
H1076 C1053 0.931 . S
H1077 C1054 0.931 . S
H1078 C1056 0.931 . S
H1079 C1057 0.931 . S
C1080 C1081 1.349 . S
C1080 C1082 1.327 . S
C1080 H1105 0.950 . S
C1081 C1080 1.349 . S
C1081 C1097 1.349 . S
C1082 C1080 1.327 . S
C1082 C1101 1.429 . S
C1082 H1106 0.950 . S
C1083 C1100 1.574 . S
C1083 C1102 1.368 . S
C1083 H1107 0.949 . S
H1084 C1088 0.949 . S
C1085 C1086 1.349 . S
C1085 C1087 1.327 . S
C1085 H1108 0.881 1_554 S
C1086 C1085 1.349 . S
C1086 C1098 1.349 . S
C1087 C1085 1.327 . S
C1087 C1103 1.429 . S
C1087 H1109 0.950 . S
C1088 H1084 0.949 . S
C1088 C1096 1.574 . S
C1088 C1104 1.368 . S
H1089 C1097 0.950 . S
H1090 C1095 0.950 . S
H1091 C1096 0.949 . S
H1092 C1098 0.950 . S
H1093 C1099 0.950 . S
H1094 C1100 0.949 . S
C1095 H1090 0.950 . S
C1095 C1097 1.327 . S
C1095 C1101 1.429 . S
C1096 C1088 1.574 . S
C1096 H1091 0.949 . S
C1096 C1102 1.368 . S
C1097 C1081 1.349 . S
C1097 H1089 0.950 . S
C1097 C1095 1.327 . S
C1098 C1086 1.349 . S
C1098 H1092 0.950 . S
C1098 C1099 1.327 . S
C1099 H1093 0.950 . S
C1099 C1098 1.327 . S
C1099 C1103 1.429 . S
C1100 C1083 1.574 . S
C1100 H1094 0.949 . S
C1100 C1104 1.368 . S
C1101 C1082 1.429 . S
C1101 C1095 1.429 . S
C1101 C1102 1.523 . S
C1102 C1083 1.368 . S
C1102 C1096 1.368 . S
C1102 C1101 1.523 . S
C1103 C1087 1.429 . S
C1103 C1099 1.429 . S
C1103 C1104 1.523 . S
C1104 C1088 1.368 . S
C1104 C1100 1.368 . S
C1104 C1103 1.523 . S
H1105 C1080 0.950 . S
H1106 C1082 0.950 . S
H1107 C1083 0.949 . S
H1108 C1085 0.881 1_556 S
H1109 C1087 0.950 . S
C1110 C1111 1.349 . S
C1110 C1112 1.327 . S
C1110 H1135 0.950 . S
C1111 C1110 1.349 . S
C1111 C1127 1.349 . S
C1112 C1110 1.327 . S
C1112 C1131 1.429 . S
C1112 H1136 0.950 . S
C1113 C1130 1.574 . S
C1113 C1132 1.368 . S
C1113 H1137 0.949 . S
H1114 C1118 0.949 . S
C1115 C1116 1.349 . S
C1115 C1117 1.327 . S
C1115 H1138 0.950 . S
C1116 C1115 1.349 . S
C1116 C1128 1.349 . S
C1117 C1115 1.327 . S
C1117 C1133 1.429 . S
C1117 H1139 0.950 . S
C1118 H1114 0.949 . S
C1118 C1126 1.574 . S
C1118 C1134 1.368 . S
H1119 C1127 0.950 . S
H1120 C1125 0.950 . S
H1121 C1126 0.949 . S
H1122 C1128 0.950 . S
H1123 C1129 0.950 . S
H1124 C1130 0.949 . S
C1125 H1120 0.950 . S
C1125 C1127 1.327 . S
C1125 C1131 1.429 . S
C1126 C1118 1.574 . S
C1126 H1121 0.949 . S
C1126 C1132 1.368 . S
C1127 C1111 1.349 . S
C1127 H1119 0.950 . S
C1127 C1125 1.327 . S
C1128 C1116 1.349 . S
C1128 H1122 0.950 . S
C1128 C1129 1.327 . S
C1129 H1123 0.950 . S
C1129 C1128 1.327 . S
C1129 C1133 1.429 . S
C1130 C1113 1.574 . S
C1130 H1124 0.949 . S
C1130 C1134 1.368 . S
C1131 C1112 1.429 . S
C1131 C1125 1.429 . S
C1131 C1132 1.523 . S
C1132 C1113 1.368 . S
C1132 C1126 1.368 . S
C1132 C1131 1.523 . S
C1133 C1117 1.429 . S
C1133 C1129 1.429 . S
C1133 C1134 1.523 . S
C1134 C1118 1.368 . S
C1134 C1130 1.368 . S
C1134 C1133 1.523 . S
H1135 C1110 0.950 . S
H1136 C1112 0.950 . S
H1137 C1113 0.949 . S
H1138 C1115 0.950 . S
H1139 C1117 0.950 . S
C1140 C1141 1.349 . S
C1140 C1142 1.327 . S
C1140 H1165 0.950 . S
C1141 C1140 1.349 . S
C1141 C1157 1.349 . S
C1142 C1140 1.327 . S
C1142 C1161 1.429 . S
C1142 H1166 0.950 . S
C1143 C1160 1.574 . S
C1143 C1162 1.368 . S
C1143 H1167 0.949 . S
H1144 C1148 0.949 . S
C1145 C1146 1.349 . S
C1145 C1147 1.327 . S
C1145 H1168 0.950 1_554 S
C1146 C1145 1.349 . S
C1146 C1158 1.349 . S
C1147 C1145 1.327 . S
C1147 C1163 1.429 . S
C1147 H1169 0.985 . S
C1148 H1144 0.949 . S
C1148 C1156 1.574 . S
C1148 C1164 1.368 . S
H1149 C1157 0.950 . S
H1150 C1155 0.950 . S
H1151 C1156 0.949 . S
H1152 C1158 0.950 . S
H1153 C1159 0.950 . S
H1154 C1160 0.949 . S
C1155 H1150 0.950 . S
C1155 C1157 1.327 . S
C1155 C1161 1.429 . S
C1156 C1148 1.574 . S
C1156 H1151 0.949 . S
C1156 C1162 1.368 . S
C1157 C1141 1.349 . S
C1157 H1149 0.950 . S
C1157 C1155 1.327 . S
C1158 C1146 1.349 . S
C1158 H1152 0.950 . S
C1158 C1159 1.327 . S
C1159 H1153 0.950 . S
C1159 C1158 1.327 . S
C1159 C1163 1.429 . S
C1160 C1143 1.574 . S
C1160 H1154 0.949 . S
C1160 C1164 1.368 . S
C1161 C1142 1.429 . S
C1161 C1155 1.429 . S
C1161 C1162 1.523 . S
C1162 C1143 1.368 . S
C1162 C1156 1.368 . S
C1162 C1161 1.523 . S
C1163 C1147 1.429 . S
C1163 C1159 1.429 . S
C1163 C1164 1.523 . S
C1164 C1148 1.368 . S
C1164 C1160 1.368 . S
C1164 C1163 1.523 . S
H1165 C1140 0.950 . S
H1166 C1142 0.950 . S
H1167 C1143 0.949 . S
H1168 C1145 0.950 1_556 S
H1169 C1147 0.985 . S
C1170 C1171 1.349 . S
C1170 C1172 1.327 . S
C1170 H1195 0.950 . S
C1171 C1170 1.349 . S
C1171 C1187 1.349 . S
C1172 C1170 1.327 . S
C1172 C1191 1.429 . S
C1172 H1196 0.950 . S
C1173 C1190 1.574 . S
C1173 C1192 1.368 . S
C1173 H1197 0.949 . S
H1174 C1178 0.960 . S
C1175 C1176 1.349 . S
C1175 C1177 1.327 . S
C1175 H1198 0.950 . S
C1176 C1175 1.349 . S
C1176 C1188 1.288 1_556 S
C1177 C1175 1.327 . S
C1177 C1193 1.429 . S
C1177 H1199 0.950 . S
C1178 H1174 0.960 . S
C1178 C1186 1.574 . S
C1178 C1194 1.368 . S
H1179 C1187 0.950 . S
H1180 C1185 0.950 . S
H1181 C1186 0.949 . S
H1182 C1188 1.027 . S
H1183 C1189 0.950 1_554 S
H1184 C1190 0.949 . S
C1185 H1180 0.950 . S
C1185 C1187 1.327 . S
C1185 C1191 1.429 . S
C1186 C1178 1.574 . S
C1186 H1181 0.949 . S
C1186 C1192 1.368 . S
C1187 C1171 1.349 . S
C1187 H1179 0.950 . S
C1187 C1185 1.327 . S
C1188 C1176 1.288 1_554 S
C1188 H1182 1.027 . S
C1188 C1189 1.318 1_554 S
C1189 H1183 0.950 1_556 S
C1189 C1188 1.318 1_556 S
C1189 C1193 1.429 . S
C1190 C1173 1.574 . S
C1190 H1184 0.949 . S
C1190 C1194 1.368 . S
C1191 C1172 1.429 . S
C1191 C1185 1.429 . S
C1191 C1192 1.523 . S
C1192 C1173 1.368 . S
C1192 C1186 1.368 . S
C1192 C1191 1.523 . S
C1193 C1177 1.429 . S
C1193 C1189 1.429 . S
C1193 C1194 1.523 . S
C1194 C1178 1.368 . S
C1194 C1190 1.368 . S
C1194 C1193 1.523 . S
H1195 C1170 0.950 . S
H1196 C1172 0.950 . S
H1197 C1173 0.949 . S
H1198 C1175 0.950 . S
H1199 C1177 0.950 . S
C1200 C1201 1.349 . S
C1200 C1202 1.327 . S
C1200 H1225 0.950 . S
C1201 C1200 1.349 . S
C1201 C1217 1.349 . S
C1202 C1200 1.327 . S
C1202 C1221 1.429 . S
C1202 H1226 0.950 . S
C1203 C1220 1.574 . S
C1203 C1222 1.368 . S
C1203 H1227 0.949 . S
H1204 C1208 0.949 . S
C1205 C1206 1.349 . S
C1205 C1207 1.327 . S
C1205 H1228 0.950 . S
C1206 C1205 1.349 . S
C1206 C1218 1.349 . S
C1207 C1205 1.327 . S
C1207 C1223 1.429 . S
C1207 H1229 0.950 . S
C1208 H1204 0.949 . S
C1208 C1216 1.574 . S
C1208 C1224 1.368 . S
H1209 C1217 0.950 . S
H1210 C1215 0.950 . S
H1211 C1216 0.949 . S
H1212 C1218 0.950 . S
H1213 C1219 0.950 . S
H1214 C1220 0.949 . S
C1215 H1210 0.950 . S
C1215 C1217 1.327 . S
C1215 C1221 1.429 . S
C1216 C1208 1.574 . S
C1216 H1211 0.949 . S
C1216 C1222 1.368 . S
C1217 C1201 1.349 . S
C1217 H1209 0.950 . S
C1217 C1215 1.327 . S
C1218 C1206 1.349 . S
C1218 H1212 0.950 . S
C1218 C1219 1.327 . S
C1219 H1213 0.950 . S
C1219 C1218 1.327 . S
C1219 C1223 1.429 . S
C1220 C1203 1.574 . S
C1220 H1214 0.949 . S
C1220 C1224 1.368 . S
C1221 C1202 1.429 . S
C1221 C1215 1.429 . S
C1221 C1222 1.523 . S
C1222 C1203 1.368 . S
C1222 C1216 1.368 . S
C1222 C1221 1.523 . S
C1223 C1207 1.429 . S
C1223 C1219 1.429 . S
C1223 C1224 1.523 . S
C1224 C1208 1.368 . S
C1224 C1220 1.368 . S
C1224 C1223 1.523 . S
H1225 C1200 0.950 . S
H1226 C1202 0.950 . S
H1227 C1203 0.949 . S
H1228 C1205 0.950 . S
H1229 C1207 0.950 . S
C1230 C1231 1.349 . S
C1230 C1232 1.327 . S
C1230 H1255 0.950 . S
C1231 C1230 1.349 . S
C1231 C1247 1.349 . S
C1232 C1230 1.327 . S
C1232 C1251 1.429 . S
C1232 H1256 0.950 . S
C1233 C1250 1.574 . S
C1233 C1252 1.368 . S
C1233 H1257 0.949 . S
H1234 C1238 0.949 1_554 S
C1235 C1236 1.349 . S
C1235 C1237 1.327 . S
C1235 H1258 0.950 . S
C1236 C1235 1.349 . S
C1236 C1248 1.349 1_556 S
C1237 C1235 1.327 . S
C1237 C1253 1.429 . S
C1237 H1259 0.950 . S
C1238 H1234 0.949 1_556 S
C1238 C1246 1.574 . S
C1238 C1254 1.368 . S
H1239 C1247 0.950 . S
H1240 C1245 0.950 . S
H1241 C1246 0.949 . S
H1242 C1248 0.950 . S
H1243 C1249 0.950 . S
H1244 C1250 0.949 . S
C1245 H1240 0.950 . S
C1245 C1247 1.327 . S
C1245 C1251 1.429 . S
C1246 C1238 1.574 . S
C1246 H1241 0.949 . S
C1246 C1252 1.368 . S
C1247 C1231 1.349 . S
C1247 H1239 0.950 . S
C1247 C1245 1.327 . S
C1248 C1236 1.349 1_554 S
C1248 H1242 0.950 . S
C1248 C1249 1.327 . S
C1249 H1243 0.950 . S
C1249 C1248 1.327 . S
C1249 C1253 1.429 1_554 S
C1250 C1233 1.574 . S
C1250 H1244 0.949 . S
C1250 C1254 1.368 . S
C1251 C1232 1.429 . S
C1251 C1245 1.429 . S
C1251 C1252 1.523 . S
C1252 C1233 1.368 . S
C1252 C1246 1.368 . S
C1252 C1251 1.523 . S
C1253 C1237 1.429 . S
C1253 C1249 1.429 1_556 S
C1253 C1254 1.523 . S
C1254 C1238 1.368 . S
C1254 C1250 1.368 . S
C1254 C1253 1.523 . S
H1255 C1230 0.950 . S
H1256 C1232 0.950 . S
H1257 C1233 0.949 . S
H1258 C1235 0.950 . S
H1259 C1237 0.950 . S
C1260 C1261 1.349 . S
C1260 C1262 1.327 . S
C1260 H1285 0.950 . S
C1261 C1260 1.349 . S
C1261 C1277 1.349 . S
C1262 C1260 1.327 . S
C1262 C1281 1.429 . S
C1262 H1286 0.950 . S
C1263 C1280 1.574 . S
C1263 C1282 1.368 . S
C1263 H1287 0.949 . S
H1264 C1268 0.949 . S
C1265 C1266 1.349 . S
C1265 C1267 1.327 . S
C1265 H1288 0.950 1_556 S
C1266 C1265 1.349 . S
C1266 C1278 1.349 . S
C1267 C1265 1.327 . S
C1267 C1283 1.429 . S
C1267 H1289 0.950 1_556 S
C1268 H1264 0.949 . S
C1268 C1276 1.574 . S
C1268 C1284 1.368 . S
H1269 C1277 0.950 . S
H1270 C1275 0.950 . S
H1271 C1276 0.949 . S
H1272 C1278 0.950 . S
H1273 C1279 0.950 . S
H1274 C1280 0.949 . S
C1275 H1270 0.950 . S
C1275 C1277 1.327 . S
C1275 C1281 1.429 . S
C1276 C1268 1.574 . S
C1276 H1271 0.949 . S
C1276 C1282 1.368 . S
C1277 C1261 1.349 . S
C1277 H1269 0.950 . S
C1277 C1275 1.327 . S
C1278 C1266 1.349 . S
C1278 H1272 0.950 . S
C1278 C1279 1.327 . S
C1279 H1273 0.950 . S
C1279 C1278 1.327 . S
C1279 C1283 1.429 . S
C1280 C1263 1.574 . S
C1280 H1274 0.949 . S
C1280 C1284 1.368 . S
C1281 C1262 1.429 . S
C1281 C1275 1.429 . S
C1281 C1282 1.523 . S
C1282 C1263 1.368 . S
C1282 C1276 1.368 . S
C1282 C1281 1.523 . S
C1283 C1267 1.429 . S
C1283 C1279 1.429 . S
C1283 C1284 1.523 . S
C1284 C1268 1.368 . S
C1284 C1280 1.368 . S
C1284 C1283 1.523 . S
H1285 C1260 0.950 . S
H1286 C1262 0.950 . S
H1287 C1263 0.949 . S
H1288 C1265 0.950 1_554 S
H1289 C1267 0.950 1_554 S
C1290 C1291 1.349 . S
C1290 C1292 1.327 . S
C1290 H1315 0.950 . S
C1291 C1290 1.349 . S
C1291 C1307 1.349 . S
C1292 C1290 1.327 . S
C1292 C1311 1.429 . S
C1292 H1316 0.950 . S
C1293 C1310 1.574 . S
C1293 C1312 1.368 . S
C1293 H1317 0.949 . S
H1294 C1298 0.949 . S
C1295 C1296 1.349 . S
C1295 C1297 1.327 . S
C1295 H1318 0.950 1_556 S
C1296 C1295 1.349 . S
C1296 C1308 1.349 . S
C1297 C1295 1.327 . S
C1297 C1313 1.429 . S
C1297 H1319 0.950 . S
C1298 H1294 0.949 . S
C1298 C1306 1.574 . S
C1298 C1314 1.368 . S
H1299 C1307 0.950 . S
H1300 C1305 0.950 . S
H1301 C1306 0.949 . S
H1302 C1308 0.950 . S
H1303 C1309 0.950 . S
H1304 C1310 0.949 . S
C1305 H1300 0.950 . S
C1305 C1307 1.327 . S
C1305 C1311 1.429 . S
C1306 C1298 1.574 . S
C1306 H1301 0.949 . S
C1306 C1312 1.368 . S
C1307 C1291 1.349 . S
C1307 H1299 0.950 . S
C1307 C1305 1.327 . S
C1308 C1296 1.349 . S
C1308 H1302 0.950 . S
C1308 C1309 1.327 . S
C1309 H1303 0.950 . S
C1309 C1308 1.327 . S
C1309 C1313 1.429 . S
C1310 C1293 1.574 . S
C1310 H1304 0.949 . S
C1310 C1314 1.368 . S
C1311 C1292 1.429 . S
C1311 C1305 1.429 . S
C1311 C1312 1.523 . S
C1312 C1293 1.368 . S
C1312 C1306 1.368 . S
C1312 C1311 1.523 . S
C1313 C1297 1.429 . S
C1313 C1309 1.429 . S
C1313 C1314 1.523 . S
C1314 C1298 1.368 . S
C1314 C1310 1.368 . S
C1314 C1313 1.523 . S
H1315 C1290 0.950 . S
H1316 C1292 0.950 . S
H1317 C1293 0.949 . S
H1318 C1295 0.950 1_554 S
H1319 C1297 0.950 . S
C1320 C1321 1.349 . S
C1320 C1322 1.327 . S
C1320 H1345 0.950 . S
C1321 C1320 1.349 . S
C1321 C1337 1.349 . S
C1322 C1320 1.327 . S
C1322 C1341 1.429 . S
C1322 H1346 0.950 . S
C1323 C1340 1.574 . S
C1323 C1342 1.368 . S
C1323 H1347 0.949 . S
H1324 C1328 0.949 . S
C1325 C1326 1.349 1_554 S
C1325 C1327 1.328 1_554 S
C1325 H1348 0.950 . S
C1326 C1325 1.349 1_556 S
C1326 C1338 1.349 . S
C1327 C1325 1.328 1_556 S
C1327 C1343 1.422 . S
C1327 H1349 0.956 1_556 S
C1328 H1324 0.949 . S
C1328 C1336 1.574 . S
C1328 C1344 1.368 . S
H1329 C1337 0.950 . S
H1330 C1335 0.950 . S
H1331 C1336 0.949 . S
H1332 C1338 0.950 . S
H1333 C1339 0.950 . S
H1334 C1340 0.949 1_554 S
C1335 H1330 0.950 . S
C1335 C1337 1.327 . S
C1335 C1341 1.429 . S
C1336 C1328 1.574 . S
C1336 H1331 0.949 . S
C1336 C1342 1.368 . S
C1337 C1321 1.349 . S
C1337 H1329 0.950 . S
C1337 C1335 1.327 . S
C1338 C1326 1.349 . S
C1338 H1332 0.950 . S
C1338 C1339 1.327 . S
C1339 H1333 0.950 . S
C1339 C1338 1.327 . S
C1339 C1343 1.429 . S
C1340 C1323 1.574 . S
C1340 H1334 0.949 1_556 S
C1340 C1344 1.368 . S
C1341 C1322 1.429 . S
C1341 C1335 1.429 . S
C1341 C1342 1.523 . S
C1342 C1323 1.368 . S
C1342 C1336 1.368 . S
C1342 C1341 1.523 . S
C1343 C1327 1.422 . S
C1343 C1339 1.429 . S
C1343 C1344 1.523 . S
C1344 C1328 1.368 . S
C1344 C1340 1.368 . S
C1344 C1343 1.523 . S
H1345 C1320 0.950 . S
H1346 C1322 0.950 . S
H1347 C1323 0.949 . S
H1348 C1325 0.950 . S
H1349 C1327 0.956 1_554 S
C1350 C1351 1.349 . S
C1350 C1352 1.327 . S
C1350 H1375 0.950 . S
C1351 C1350 1.349 . S
C1351 C1367 1.349 . S
C1352 C1350 1.327 . S
C1352 C1371 1.429 . S
C1352 H1376 0.950 . S
C1353 C1370 1.574 . S
C1353 C1372 1.368 . S
C1353 H1377 0.949 . S
H1354 C1358 0.949 . S
C1355 C1356 1.349 . S
C1355 C1357 1.327 . S
C1355 H1378 0.999 . S
C1356 C1355 1.349 . S
C1356 C1368 1.349 . S
C1357 C1355 1.327 . S
C1357 C1373 1.429 . S
C1357 H1379 0.950 . S
C1358 H1354 0.949 . S
C1358 C1366 1.574 . S
C1358 C1374 1.368 . S
H1359 C1367 0.950 . S
H1360 C1365 0.950 . S
H1361 C1366 0.949 . S
H1362 C1368 0.950 . S
H1363 C1369 0.950 . S
H1364 C1370 0.949 . S
C1365 H1360 0.950 . S
C1365 C1367 1.327 . S
C1365 C1371 1.429 . S
C1366 C1358 1.574 . S
C1366 H1361 0.949 . S
C1366 C1372 1.368 . S
C1367 C1351 1.349 . S
C1367 H1359 0.950 . S
C1367 C1365 1.327 . S
C1368 C1356 1.349 . S
C1368 H1362 0.950 . S
C1368 C1369 1.327 . S
C1369 H1363 0.950 . S
C1369 C1368 1.327 . S
C1369 C1373 1.429 . S
C1370 C1353 1.574 . S
C1370 H1364 0.949 . S
C1370 C1374 1.368 . S
C1371 C1352 1.429 . S
C1371 C1365 1.429 . S
C1371 C1372 1.523 . S
C1372 C1353 1.368 . S
C1372 C1366 1.368 . S
C1372 C1371 1.523 . S
C1373 C1357 1.429 . S
C1373 C1369 1.429 . S
C1373 C1374 1.523 . S
C1374 C1358 1.368 . S
C1374 C1370 1.368 . S
C1374 C1373 1.523 . S
H1375 C1350 0.950 . S
H1376 C1352 0.950 . S
H1377 C1353 0.949 . S
H1378 C1355 0.999 . S
H1379 C1357 0.950 . S
C1380 C1381 1.349 . S
C1380 C1382 1.327 . S
C1380 H1405 0.950 . S
C1381 C1380 1.349 . S
C1381 C1397 1.349 . S
C1382 C1380 1.327 . S
C1382 C1401 1.429 . S
C1382 H1406 0.950 . S
C1383 C1400 1.574 . S
C1383 C1402 1.368 . S
C1383 H1407 0.949 . S
H1384 C1388 0.949 . S
C1385 C1386 1.349 . S
C1385 C1387 1.327 . S
C1385 H1408 0.950 . S
C1386 C1385 1.349 . S
C1386 C1398 1.349 . S
C1387 C1385 1.327 . S
C1387 C1403 1.429 . S
C1387 H1409 0.950 . S
C1388 H1384 0.949 . S
C1388 C1396 1.574 . S
C1388 C1404 1.368 . S
H1389 C1397 0.950 . S
H1390 C1395 0.950 . S
H1391 C1396 0.949 . S
H1392 C1398 0.950 . S
H1393 C1399 0.950 . S
H1394 C1400 0.949 . S
C1395 H1390 0.950 . S
C1395 C1397 1.327 . S
C1395 C1401 1.429 . S
C1396 C1388 1.574 . S
C1396 H1391 0.949 . S
C1396 C1402 1.368 . S
C1397 C1381 1.349 . S
C1397 H1389 0.950 . S
C1397 C1395 1.327 . S
C1398 C1386 1.349 . S
C1398 H1392 0.950 . S
C1398 C1399 1.327 . S
C1399 H1393 0.950 . S
C1399 C1398 1.327 . S
C1399 C1403 1.429 . S
C1400 C1383 1.574 . S
C1400 H1394 0.949 . S
C1400 C1404 1.368 . S
C1401 C1382 1.429 . S
C1401 C1395 1.429 . S
C1401 C1402 1.523 . S
C1402 C1383 1.368 . S
C1402 C1396 1.368 . S
C1402 C1401 1.523 . S
C1403 C1387 1.429 . S
C1403 C1399 1.429 . S
C1403 C1404 1.523 . S
C1404 C1388 1.368 . S
C1404 C1400 1.368 . S
C1404 C1403 1.523 . S
H1405 C1380 0.950 . S
H1406 C1382 0.950 . S
H1407 C1383 0.949 . S
H1408 C1385 0.950 . S
H1409 C1387 0.950 . S
C1410 C1411 1.349 . S
C1410 C1412 1.327 . S
C1410 H1435 0.950 . S
C1411 C1410 1.349 . S
C1411 C1427 1.349 . S
C1412 C1410 1.327 . S
C1412 C1431 1.429 . S
C1412 H1436 0.950 . S
C1413 C1430 1.574 . S
C1413 C1432 1.368 . S
C1413 H1437 0.949 . S
H1414 C1418 0.949 . S
C1415 C1416 1.349 . S
C1415 C1417 1.327 . S
C1415 H1438 0.949 . S
C1416 C1415 1.349 . S
C1416 C1428 1.349 . S
C1417 C1415 1.327 . S
C1417 C1433 1.429 . S
C1417 H1439 0.950 . S
C1418 H1414 0.949 . S
C1418 C1426 1.574 . S
C1418 C1434 1.368 . S
H1419 C1427 0.950 . S
H1420 C1425 0.950 . S
H1421 C1426 0.949 . S
H1422 C1428 0.950 . S
H1423 C1429 0.950 . S
H1424 C1430 0.949 . S
C1425 H1420 0.950 . S
C1425 C1427 1.327 . S
C1425 C1431 1.429 . S
C1426 C1418 1.574 . S
C1426 H1421 0.949 . S
C1426 C1432 1.368 . S
C1427 C1411 1.349 . S
C1427 H1419 0.950 . S
C1427 C1425 1.327 . S
C1428 C1416 1.349 . S
C1428 H1422 0.950 . S
C1428 C1429 1.327 . S
C1429 H1423 0.950 . S
C1429 C1428 1.327 . S
C1429 C1433 1.429 . S
C1430 C1413 1.574 . S
C1430 H1424 0.949 . S
C1430 C1434 1.368 . S
C1431 C1412 1.429 . S
C1431 C1425 1.429 . S
C1431 C1432 1.523 . S
C1432 C1413 1.368 . S
C1432 C1426 1.368 . S
C1432 C1431 1.523 . S
C1433 C1417 1.429 . S
C1433 C1429 1.429 . S
C1433 C1434 1.523 . S
C1434 C1418 1.368 . S
C1434 C1430 1.368 . S
C1434 C1433 1.523 . S
H1435 C1410 0.950 . S
H1436 C1412 0.950 . S
H1437 C1413 0.949 . S
H1438 C1415 0.949 . S
H1439 C1417 0.950 . S
C1440 C1441 1.349 . S
C1440 C1442 1.327 . S
C1440 H1465 0.950 . S
C1441 C1440 1.349 . S
C1441 C1457 1.349 . S
C1442 C1440 1.327 . S
C1442 C1461 1.429 1_655 S
C1442 H1466 0.950 . S
C1443 C1460 1.574 . S
C1443 C1462 1.368 . S
C1443 H1467 0.949 . S
H1444 C1448 0.949 . S
C1445 C1446 1.349 . S
C1445 C1447 1.327 . S
C1445 H1468 0.950 . S
C1446 C1445 1.349 . S
C1446 C1458 1.349 . S
C1447 C1445 1.327 . S
C1447 C1463 1.429 . S
C1447 H1469 0.950 . S
C1448 H1444 0.949 . S
C1448 C1456 1.574 . S
C1448 C1464 1.368 . S
H1449 C1457 0.950 . S
H1450 C1455 0.902 1_455 S
H1451 C1456 0.949 . S
H1452 C1458 0.950 . S
H1453 C1459 0.950 . S
H1454 C1460 0.949 . S
C1455 H1450 0.902 1_655 S
C1455 C1457 1.386 . S
C1455 C1461 1.419 1_655 S
C1456 C1448 1.574 . S
C1456 H1451 0.949 . S
C1456 C1462 1.368 . S
C1457 C1441 1.349 . S
C1457 H1449 0.950 . S
C1457 C1455 1.386 . S
C1458 C1446 1.349 . S
C1458 H1452 0.950 . S
C1458 C1459 1.327 . S
C1459 H1453 0.950 . S
C1459 C1458 1.327 . S
C1459 C1463 1.429 . S
C1460 C1443 1.574 . S
C1460 H1454 0.949 . S
C1460 C1464 1.368 . S
C1461 C1442 1.429 1_455 S
C1461 C1455 1.419 1_455 S
C1461 C1462 1.523 . S
C1462 C1443 1.368 . S
C1462 C1456 1.368 . S
C1462 C1461 1.523 . S
C1463 C1447 1.429 . S
C1463 C1459 1.429 . S
C1463 C1464 1.523 . S
C1464 C1448 1.368 . S
C1464 C1460 1.368 . S
C1464 C1463 1.523 . S
H1465 C1440 0.950 . S
H1466 C1442 0.950 . S
H1467 C1443 0.949 . S
H1468 C1445 0.950 . S
H1469 C1447 0.950 . S
C1470 C1471 1.349 . S
C1470 C1472 1.327 . S
C1470 H1495 0.950 . S
C1471 C1470 1.349 . S
C1471 C1487 1.349 . S
C1472 C1470 1.327 . S
C1472 C1491 1.429 . S
C1472 H1496 0.950 . S
C1473 C1490 1.574 . S
C1473 C1492 1.368 . S
C1473 H1497 0.949 . S
H1474 C1478 0.949 . S
C1475 C1476 1.349 . S
C1475 C1477 1.327 . S
C1475 H1498 0.950 . S
C1476 C1475 1.349 . S
C1476 C1488 1.349 . S
C1477 C1475 1.327 . S
C1477 C1493 1.429 . S
C1477 H1499 0.950 . S
C1478 H1474 0.949 . S
C1478 C1486 1.574 . S
C1478 C1494 1.368 . S
H1479 C1487 0.950 . S
H1480 C1485 0.950 . S
H1481 C1486 0.949 . S
H1482 C1488 0.950 . S
H1483 C1489 0.950 . S
H1484 C1490 0.949 . S
C1485 H1480 0.950 . S
C1485 C1487 1.327 . S
C1485 C1491 1.429 . S
C1486 C1478 1.574 . S
C1486 H1481 0.949 . S
C1486 C1492 1.368 . S
C1487 C1471 1.349 . S
C1487 H1479 0.950 . S
C1487 C1485 1.327 . S
C1488 C1476 1.349 . S
C1488 H1482 0.950 . S
C1488 C1489 1.327 . S
C1489 H1483 0.950 . S
C1489 C1488 1.327 . S
C1489 C1493 1.429 . S
C1490 C1473 1.574 . S
C1490 H1484 0.949 . S
C1490 C1494 1.368 . S
C1491 C1472 1.429 . S
C1491 C1485 1.429 . S
C1491 C1492 1.523 . S
C1492 C1473 1.368 . S
C1492 C1486 1.368 . S
C1492 C1491 1.523 . S
C1493 C1477 1.429 . S
C1493 C1489 1.429 . S
C1493 C1494 1.523 . S
C1494 C1478 1.368 . S
C1494 C1490 1.368 . S
C1494 C1493 1.523 . S
H1495 C1470 0.950 . S
H1496 C1472 0.950 . S
H1497 C1473 0.949 . S
H1498 C1475 0.950 . S
H1499 C1477 0.950 . S
C1500 C1501 1.349 . S
C1500 C1502 1.327 . S
C1500 H1525 0.950 . S
C1501 C1500 1.349 . S
C1501 C1517 1.349 . S
C1502 C1500 1.327 . S
C1502 C1521 1.429 . S
C1502 H1526 0.950 . S
C1503 C1520 1.574 . S
C1503 C1522 1.368 . S
C1503 H1527 0.949 . S
H1504 C1508 0.949 . S
C1505 C1506 1.349 . S
C1505 C1507 1.327 . S
C1505 H1528 0.950 . S
C1506 C1505 1.349 . S
C1506 C1518 1.349 . S
C1507 C1505 1.327 . S
C1507 C1523 1.429 . S
C1507 H1529 0.950 . S
C1508 H1504 0.949 . S
C1508 C1516 1.574 . S
C1508 C1524 1.368 . S
H1509 C1517 0.950 . S
H1510 C1515 0.950 . S
H1511 C1516 0.949 . S
H1512 C1518 0.950 . S
H1513 C1519 0.950 . S
H1514 C1520 0.949 . S
C1515 H1510 0.950 . S
C1515 C1517 1.327 . S
C1515 C1521 1.429 . S
C1516 C1508 1.574 . S
C1516 H1511 0.949 . S
C1516 C1522 1.368 . S
C1517 C1501 1.349 . S
C1517 H1509 0.950 . S
C1517 C1515 1.327 . S
C1518 C1506 1.349 . S
C1518 H1512 0.950 . S
C1518 C1519 1.327 . S
C1519 H1513 0.950 . S
C1519 C1518 1.327 . S
C1519 C1523 1.429 . S
C1520 C1503 1.574 . S
C1520 H1514 0.949 . S
C1520 C1524 1.368 . S
C1521 C1502 1.429 . S
C1521 C1515 1.429 . S
C1521 C1522 1.523 1_545 S
C1522 C1503 1.368 . S
C1522 C1516 1.368 . S
C1522 C1521 1.523 1_565 S
C1523 C1507 1.429 . S
C1523 C1519 1.429 . S
C1523 C1524 1.523 . S
C1524 C1508 1.368 . S
C1524 C1520 1.368 . S
C1524 C1523 1.523 . S
H1525 C1500 0.950 . S
H1526 C1502 0.950 . S
H1527 C1503 0.949 . S
H1528 C1505 0.950 . S
H1529 C1507 0.950 . S
C1530 C1531 1.349 . S
C1530 C1532 1.327 . S
C1530 H1555 0.950 . S
C1531 C1530 1.349 . S
C1531 C1547 1.349 . S
C1532 C1530 1.327 . S
C1532 C1551 1.429 . S
C1532 H1556 0.950 . S
C1533 C1550 1.574 . S
C1533 C1552 1.368 . S
C1533 H1557 0.949 . S
H1534 C1538 0.949 . S
C1535 C1536 1.349 . S
C1535 C1537 1.327 . S
C1535 H1558 0.950 . S
C1536 C1535 1.349 . S
C1536 C1548 1.349 . S
C1537 C1535 1.327 . S
C1537 C1553 1.429 . S
C1537 H1559 0.950 . S
C1538 H1534 0.949 . S
C1538 C1546 1.574 . S
C1538 C1554 1.368 . S
H1539 C1547 0.950 . S
H1540 C1545 0.950 . S
H1541 C1546 0.949 . S
H1542 C1548 0.950 . S
H1543 C1549 0.950 . S
H1544 C1550 0.949 . S
C1545 H1540 0.950 . S
C1545 C1547 1.327 . S
C1545 C1551 1.429 . S
C1546 C1538 1.574 . S
C1546 H1541 0.949 . S
C1546 C1552 1.368 . S
C1547 C1531 1.349 . S
C1547 H1539 0.950 . S
C1547 C1545 1.327 . S
C1548 C1536 1.349 . S
C1548 H1542 0.950 . S
C1548 C1549 1.327 . S
C1549 H1543 0.950 . S
C1549 C1548 1.327 . S
C1549 C1553 1.429 . S
C1550 C1533 1.574 . S
C1550 H1544 0.949 . S
C1550 C1554 1.368 . S
C1551 C1532 1.429 . S
C1551 C1545 1.429 . S
C1551 C1552 1.523 . S
C1552 C1533 1.368 . S
C1552 C1546 1.368 . S
C1552 C1551 1.523 . S
C1553 C1537 1.429 . S
C1553 C1549 1.429 . S
C1553 C1554 1.523 . S
C1554 C1538 1.368 . S
C1554 C1550 1.368 . S
C1554 C1553 1.523 . S
H1555 C1530 0.950 . S
H1556 C1532 0.950 . S
H1557 C1533 0.949 . S
H1558 C1535 0.950 . S
H1559 C1537 0.950 . S
C1560 C1561 1.349 . S
C1560 C1562 1.327 . S
C1560 H1585 0.950 . S
C1561 C1560 1.349 . S
C1561 C1577 1.349 . S
C1562 C1560 1.327 . S
C1562 C1581 1.429 . S
C1562 H1586 0.950 . S
C1563 C1580 1.574 . S
C1563 C1582 1.368 . S
C1563 H1587 0.949 . S
H1564 C1568 0.949 . S
C1565 C1566 1.349 . S
C1565 C1567 1.327 . S
C1565 H1588 0.950 . S
C1566 C1565 1.349 . S
C1566 C1578 1.349 . S
C1567 C1565 1.327 . S
C1567 C1583 1.429 . S
C1567 H1589 0.950 . S
C1568 H1564 0.949 . S
C1568 C1576 1.574 . S
C1568 C1584 1.368 . S
H1569 C1577 0.950 . S
H1570 C1575 0.950 . S
H1571 C1576 0.949 . S
H1572 C1578 0.950 . S
H1573 C1579 0.950 . S
H1574 C1580 0.949 . S
C1575 H1570 0.950 . S
C1575 C1577 1.327 . S
C1575 C1581 1.429 . S
C1576 C1568 1.574 . S
C1576 H1571 0.949 . S
C1576 C1582 1.368 . S
C1577 C1561 1.349 . S
C1577 H1569 0.950 . S
C1577 C1575 1.327 . S
C1578 C1566 1.349 . S
C1578 H1572 0.950 . S
C1578 C1579 1.327 . S
C1579 H1573 0.950 . S
C1579 C1578 1.327 . S
C1579 C1583 1.429 . S
C1580 C1563 1.574 . S
C1580 H1574 0.949 . S
C1580 C1584 1.368 . S
C1581 C1562 1.429 . S
C1581 C1575 1.429 . S
C1581 C1582 1.523 . S
C1582 C1563 1.368 . S
C1582 C1576 1.368 . S
C1582 C1581 1.523 . S
C1583 C1567 1.429 . S
C1583 C1579 1.429 . S
C1583 C1584 1.523 . S
C1584 C1568 1.368 . S
C1584 C1580 1.368 . S
C1584 C1583 1.523 . S
H1585 C1560 0.950 . S
H1586 C1562 0.950 . S
H1587 C1563 0.949 . S
H1588 C1565 0.950 . S
H1589 C1567 0.950 . S
C1590 C1591 1.349 . S
C1590 C1592 1.327 . S
C1590 H1615 0.950 . S
C1591 C1590 1.349 . S
C1591 C1607 1.349 . S
C1592 C1590 1.327 . S
C1592 C1611 1.429 . S
C1592 H1616 0.950 . S
C1593 C1610 1.574 . S
C1593 C1612 1.368 . S
C1593 H1617 0.949 . S
H1594 C1598 0.949 . S
C1595 C1596 1.349 . S
C1595 C1597 1.327 . S
C1595 H1618 0.950 . S
C1596 C1595 1.349 . S
C1596 C1608 1.349 . S
C1597 C1595 1.327 . S
C1597 C1613 1.429 . S
C1597 H1619 0.950 . S
C1598 H1594 0.949 . S
C1598 C1606 1.574 . S
C1598 C1614 1.368 . S
H1599 C1607 0.950 . S
H1600 C1605 0.950 . S
H1601 C1606 0.949 . S
H1602 C1608 0.950 . S
H1603 C1609 0.950 . S
H1604 C1610 0.949 . S
C1605 H1600 0.950 . S
C1605 C1607 1.327 . S
C1605 C1611 1.429 . S
C1606 C1598 1.574 . S
C1606 H1601 0.949 . S
C1606 C1612 1.368 . S
C1607 C1591 1.349 . S
C1607 H1599 0.950 . S
C1607 C1605 1.327 . S
C1608 C1596 1.349 . S
C1608 H1602 0.950 . S
C1608 C1609 1.327 . S
C1609 H1603 0.950 . S
C1609 C1608 1.327 . S
C1609 C1613 1.429 . S
C1610 C1593 1.574 . S
C1610 H1604 0.949 . S
C1610 C1614 1.368 . S
C1611 C1592 1.429 . S
C1611 C1605 1.429 . S
C1611 C1612 1.523 . S
C1612 C1593 1.368 . S
C1612 C1606 1.368 . S
C1612 C1611 1.523 . S
C1613 C1597 1.429 . S
C1613 C1609 1.429 . S
C1613 C1614 1.523 . S
C1614 C1598 1.368 . S
C1614 C1610 1.368 . S
C1614 C1613 1.523 . S
H1615 C1590 0.950 . S
H1616 C1592 0.950 . S
H1617 C1593 0.949 . S
H1618 C1595 0.950 . S
H1619 C1597 0.950 . S
C1620 C1621 1.349 . S
C1620 C1622 1.327 . S
C1620 H1645 0.950 . S
C1621 C1620 1.349 . S
C1621 C1637 1.349 . S
C1622 C1620 1.327 . S
C1622 C1641 1.429 . S
C1622 H1646 0.950 . S
C1623 C1640 1.574 . S
C1623 C1642 1.368 . S
C1623 H1647 0.949 . S
H1624 C1628 0.949 . S
C1625 C1626 1.349 . S
C1625 C1627 1.327 . S
C1625 H1648 0.950 . S
C1626 C1625 1.349 . S
C1626 C1638 1.349 . S
C1627 C1625 1.327 . S
C1627 C1643 1.429 . S
C1627 H1649 0.950 . S
C1628 H1624 0.949 . S
C1628 C1636 1.574 . S
C1628 C1644 1.368 . S
H1629 C1637 0.950 . S
H1630 C1635 0.950 . S
H1631 C1636 0.949 . S
H1632 C1638 0.950 . S
H1633 C1639 0.950 . S
H1634 C1640 0.949 . S
C1635 H1630 0.950 . S
C1635 C1637 1.327 . S
C1635 C1641 1.429 . S
C1636 C1628 1.574 . S
C1636 H1631 0.949 . S
C1636 C1642 1.368 . S
C1637 C1621 1.349 . S
C1637 H1629 0.950 . S
C1637 C1635 1.327 . S
C1638 C1626 1.349 . S
C1638 H1632 0.950 . S
C1638 C1639 1.327 . S
C1639 H1633 0.950 . S
C1639 C1638 1.327 . S
C1639 C1643 1.429 . S
C1640 C1623 1.574 . S
C1640 H1634 0.949 . S
C1640 C1644 1.368 . S
C1641 C1622 1.429 . S
C1641 C1635 1.429 . S
C1641 C1642 1.523 . S
C1642 C1623 1.368 . S
C1642 C1636 1.368 . S
C1642 C1641 1.523 . S
C1643 C1627 1.429 . S
C1643 C1639 1.429 . S
C1643 C1644 1.523 . S
C1644 C1628 1.368 . S
C1644 C1640 1.368 . S
C1644 C1643 1.523 . S
H1645 C1620 0.950 . S
H1646 C1622 0.950 . S
H1647 C1623 0.949 . S
H1648 C1625 0.950 . S
H1649 C1627 0.950 . S
C1650 C1651 1.349 . S
C1650 C1652 1.327 . S
C1650 H1675 0.950 . S
C1651 C1650 1.349 . S
C1651 C1667 1.349 . S
C1652 C1650 1.327 . S
C1652 C1671 1.429 . S
C1652 H1676 0.950 . S
C1653 C1670 1.574 . S
C1653 C1672 1.368 . S
C1653 H1677 0.949 . S
H1654 C1658 0.949 . S
C1655 C1656 1.349 . S
C1655 C1657 1.327 . S
C1655 H1678 0.950 . S
C1656 C1655 1.349 . S
C1656 C1668 1.349 . S
C1657 C1655 1.327 . S
C1657 C1673 1.429 . S
C1657 H1679 0.950 . S
C1658 H1654 0.949 . S
C1658 C1666 1.574 . S
C1658 C1674 1.368 . S
H1659 C1667 0.950 . S
H1660 C1665 0.950 . S
H1661 C1666 0.949 . S
H1662 C1668 0.950 . S
H1663 C1669 0.950 . S
H1664 C1670 0.949 . S
C1665 H1660 0.950 . S
C1665 C1667 1.327 . S
C1665 C1671 1.429 . S
C1666 C1658 1.574 . S
C1666 H1661 0.949 . S
C1666 C1672 1.368 . S
C1667 C1651 1.349 . S
C1667 H1659 0.950 . S
C1667 C1665 1.327 . S
C1668 C1656 1.349 . S
C1668 H1662 0.950 . S
C1668 C1669 1.327 . S
C1669 H1663 0.950 . S
C1669 C1668 1.327 . S
C1669 C1673 1.429 . S
C1670 C1653 1.574 . S
C1670 H1664 0.949 . S
C1670 C1674 1.368 . S
C1671 C1652 1.429 . S
C1671 C1665 1.429 . S
C1671 C1672 1.523 . S
C1672 C1653 1.368 . S
C1672 C1666 1.368 . S
C1672 C1671 1.523 . S
C1673 C1657 1.429 . S
C1673 C1669 1.429 . S
C1673 C1674 1.523 . S
C1674 C1658 1.368 . S
C1674 C1670 1.368 . S
C1674 C1673 1.523 . S
H1675 C1650 0.950 . S
H1676 C1652 0.950 . S
H1677 C1653 0.949 . S
H1678 C1655 0.950 . S
H1679 C1657 0.950 . S
C1680 C1681 1.349 . S
C1680 C1682 1.327 . S
C1680 H1705 0.950 . S
C1681 C1680 1.349 . S
C1681 C1697 1.349 . S
C1682 C1680 1.327 . S
C1682 C1701 1.429 . S
C1682 H1706 0.950 . S
C1683 C1700 1.574 . S
C1683 C1702 1.368 . S
C1683 H1707 0.949 . S
H1684 C1688 0.949 . S
C1685 C1686 1.349 . S
C1685 C1687 1.327 . S
C1685 H1708 0.950 . S
C1686 C1685 1.349 . S
C1686 C1698 1.349 . S
C1687 C1685 1.327 . S
C1687 C1703 1.429 . S
C1687 H1709 0.950 . S
C1688 H1684 0.949 . S
C1688 C1696 1.574 . S
C1688 C1704 1.368 . S
H1689 C1697 0.950 . S
H1690 C1695 0.950 . S
H1691 C1696 0.949 . S
H1692 C1698 0.950 . S
H1693 C1699 0.950 . S
H1694 C1700 0.949 . S
C1695 H1690 0.950 . S
C1695 C1697 1.327 . S
C1695 C1701 1.429 . S
C1696 C1688 1.574 . S
C1696 H1691 0.949 . S
C1696 C1702 1.368 . S
C1697 C1681 1.349 . S
C1697 H1689 0.950 . S
C1697 C1695 1.327 . S
C1698 C1686 1.349 . S
C1698 H1692 0.950 . S
C1698 C1699 1.327 . S
C1699 H1693 0.950 . S
C1699 C1698 1.327 . S
C1699 C1703 1.429 . S
C1700 C1683 1.574 . S
C1700 H1694 0.949 . S
C1700 C1704 1.368 . S
C1701 C1682 1.429 . S
C1701 C1695 1.429 . S
C1701 C1702 1.523 . S
C1702 C1683 1.368 . S
C1702 C1696 1.368 . S
C1702 C1701 1.523 . S
C1703 C1687 1.429 . S
C1703 C1699 1.429 . S
C1703 C1704 1.523 . S
C1704 C1688 1.368 . S
C1704 C1700 1.368 . S
C1704 C1703 1.523 . S
H1705 C1680 0.950 . S
H1706 C1682 0.950 . S
H1707 C1683 0.949 . S
H1708 C1685 0.950 . S
H1709 C1687 0.950 . S
C1710 C1711 1.349 . S
C1710 C1712 1.327 . S
C1710 H1735 0.950 . S
C1711 C1710 1.349 . S
C1711 C1727 1.349 . S
C1712 C1710 1.327 . S
C1712 C1731 1.429 . S
C1712 H1736 0.950 . S
C1713 C1730 1.574 . S
C1713 C1732 1.368 . S
C1713 H1737 0.949 . S
H1714 C1718 0.949 . S
C1715 C1716 1.349 . S
C1715 C1717 1.327 . S
C1715 H1738 0.950 . S
C1716 C1715 1.349 . S
C1716 C1728 1.349 . S
C1717 C1715 1.327 . S
C1717 C1733 1.429 . S
C1717 H1739 0.950 . S
C1718 H1714 0.949 . S
C1718 C1726 1.574 . S
C1718 C1734 1.368 . S
H1719 C1727 0.950 . S
H1720 C1725 0.950 . S
H1721 C1726 0.949 . S
H1722 C1728 0.950 . S
H1723 C1729 0.950 . S
H1724 C1730 0.949 . S
C1725 H1720 0.950 . S
C1725 C1727 1.327 . S
C1725 C1731 1.429 . S
C1726 C1718 1.574 . S
C1726 H1721 0.949 . S
C1726 C1732 1.368 . S
C1727 C1711 1.349 . S
C1727 H1719 0.950 . S
C1727 C1725 1.327 . S
C1728 C1716 1.349 . S
C1728 H1722 0.950 . S
C1728 C1729 1.327 . S
C1729 H1723 0.950 . S
C1729 C1728 1.327 . S
C1729 C1733 1.429 . S
C1730 C1713 1.574 . S
C1730 H1724 0.949 . S
C1730 C1734 1.368 . S
C1731 C1712 1.429 . S
C1731 C1725 1.429 . S
C1731 C1732 1.523 1_545 S
C1732 C1713 1.368 . S
C1732 C1726 1.368 . S
C1732 C1731 1.523 1_565 S
C1733 C1717 1.429 . S
C1733 C1729 1.429 . S
C1733 C1734 1.523 . S
C1734 C1718 1.368 . S
C1734 C1730 1.368 . S
C1734 C1733 1.523 . S
H1735 C1710 0.950 . S
H1736 C1712 0.950 . S
H1737 C1713 0.949 . S
H1738 C1715 0.950 . S
H1739 C1717 0.950 . S
C1740 C1741 1.349 . S
C1740 C1742 1.327 . S
C1740 H1765 0.950 . S
C1741 C1740 1.349 . S
C1741 C1757 1.349 . S
C1742 C1740 1.327 . S
C1742 C1761 1.429 1_655 S
C1742 H1766 0.950 . S
C1743 C1760 1.574 . S
C1743 C1762 1.368 . S
C1743 H1767 0.949 . S
H1744 C1748 0.949 . S
C1745 C1746 1.349 . S
C1745 C1747 1.327 . S
C1745 H1768 0.950 . S
C1746 C1745 1.349 . S
C1746 C1758 1.349 . S
C1747 C1745 1.327 . S
C1747 C1763 1.429 . S
C1747 H1769 0.950 . S
C1748 H1744 0.949 . S
C1748 C1756 1.574 . S
C1748 C1764 1.368 . S
H1749 C1757 0.950 . S
H1750 C1755 0.950 . S
H1751 C1756 0.949 . S
H1752 C1758 0.950 . S
H1753 C1759 0.950 . S
H1754 C1760 0.949 . S
C1755 H1750 0.950 . S
C1755 C1757 1.327 1_455 S
C1755 C1761 1.429 . S
C1756 C1748 1.574 . S
C1756 H1751 0.949 . S
C1756 C1762 1.368 . S
C1757 C1741 1.349 . S
C1757 H1749 0.950 . S
C1757 C1755 1.327 1_655 S
C1758 C1746 1.349 . S
C1758 H1752 0.950 . S
C1758 C1759 1.327 . S
C1759 H1753 0.950 . S
C1759 C1758 1.327 . S
C1759 C1763 1.429 . S
C1760 C1743 1.574 . S
C1760 H1754 0.949 . S
C1760 C1764 1.368 . S
C1761 C1742 1.429 1_455 S
C1761 C1755 1.429 . S
C1761 C1762 1.523 . S
C1762 C1743 1.368 . S
C1762 C1756 1.368 . S
C1762 C1761 1.523 . S
C1763 C1747 1.429 . S
C1763 C1759 1.429 . S
C1763 C1764 1.523 . S
C1764 C1748 1.368 . S
C1764 C1760 1.368 . S
C1764 C1763 1.523 . S
H1765 C1740 0.950 . S
H1766 C1742 0.950 . S
H1767 C1743 0.949 . S
H1768 C1745 0.950 . S
H1769 C1747 0.950 . S
C1770 C1771 1.349 . S
C1770 C1772 1.327 . S
C1770 H1795 0.950 . S
C1771 C1770 1.349 . S
C1771 C1787 1.349 . S
C1772 C1770 1.327 . S
C1772 C1791 1.429 . S
C1772 H1796 0.950 . S
C1773 C1790 1.574 . S
C1773 C1792 1.368 . S
C1773 H1797 0.949 . S
H1774 C1778 0.949 . S
C1775 C1776 1.349 . S
C1775 C1777 1.327 . S
C1775 H1798 0.950 . S
C1776 C1775 1.349 . S
C1776 C1788 1.349 . S
C1777 C1775 1.327 . S
C1777 C1793 1.429 . S
C1777 H1799 0.950 . S
C1778 H1774 0.949 . S
C1778 C1786 1.574 . S
C1778 C1794 1.368 . S
H1779 C1787 0.950 . S
H1780 C1785 0.950 . S
H1781 C1786 0.949 . S
H1782 C1788 0.950 . S
H1783 C1789 0.950 . S
H1784 C1790 0.949 . S
C1785 H1780 0.950 . S
C1785 C1787 1.327 . S
C1785 C1791 1.429 . S
C1786 C1778 1.574 . S
C1786 H1781 0.949 . S
C1786 C1792 1.368 . S
C1787 C1771 1.349 . S
C1787 H1779 0.950 . S
C1787 C1785 1.327 . S
C1788 C1776 1.349 . S
C1788 H1782 0.950 . S
C1788 C1789 1.327 . S
C1789 H1783 0.950 . S
C1789 C1788 1.327 . S
C1789 C1793 1.429 . S
C1790 C1773 1.574 . S
C1790 H1784 0.949 . S
C1790 C1794 1.368 . S
C1791 C1772 1.429 . S
C1791 C1785 1.429 . S
C1791 C1792 1.523 . S
C1792 C1773 1.368 . S
C1792 C1786 1.368 . S
C1792 C1791 1.523 . S
C1793 C1777 1.429 . S
C1793 C1789 1.429 . S
C1793 C1794 1.523 . S
C1794 C1778 1.368 . S
C1794 C1790 1.368 . S
C1794 C1793 1.523 . S
H1795 C1770 0.950 . S
H1796 C1772 0.950 . S
H1797 C1773 0.949 . S
H1798 C1775 0.950 . S
H1799 C1777 0.950 . S
C1800 C1801 1.349 . S
C1800 C1802 1.327 . S
C1800 H1825 0.950 . S
C1801 C1800 1.349 . S
C1801 C1817 1.349 . S
C1802 C1800 1.327 . S
C1802 C1821 1.429 . S
C1802 H1826 0.950 . S
C1803 C1820 1.574 . S
C1803 C1822 1.368 . S
C1803 H1827 0.949 . S
H1804 C1808 0.949 . S
C1805 C1806 1.349 . S
C1805 C1807 1.327 . S
C1805 H1828 0.950 . S
C1806 C1805 1.349 . S
C1806 C1818 1.349 . S
C1807 C1805 1.327 . S
C1807 C1823 1.429 . S
C1807 H1829 0.950 . S
C1808 H1804 0.949 . S
C1808 C1816 1.574 . S
C1808 C1824 1.368 . S
H1809 C1817 0.950 . S
H1810 C1815 0.950 . S
H1811 C1816 0.949 . S
H1812 C1818 0.950 . S
H1813 C1819 0.950 . S
H1814 C1820 0.949 . S
C1815 H1810 0.950 . S
C1815 C1817 1.327 . S
C1815 C1821 1.429 . S
C1816 C1808 1.574 . S
C1816 H1811 0.949 . S
C1816 C1822 1.368 . S
C1817 C1801 1.349 . S
C1817 H1809 0.950 . S
C1817 C1815 1.327 . S
C1818 C1806 1.349 . S
C1818 H1812 0.950 . S
C1818 C1819 1.327 . S
C1819 H1813 0.950 . S
C1819 C1818 1.327 . S
C1819 C1823 1.429 . S
C1820 C1803 1.574 . S
C1820 H1814 0.949 . S
C1820 C1824 1.368 . S
C1821 C1802 1.429 . S
C1821 C1815 1.429 . S
C1821 C1822 1.523 . S
C1822 C1803 1.368 . S
C1822 C1816 1.368 . S
C1822 C1821 1.523 . S
C1823 C1807 1.429 . S
C1823 C1819 1.429 . S
C1823 C1824 1.523 . S
C1824 C1808 1.368 . S
C1824 C1820 1.368 . S
C1824 C1823 1.523 . S
H1825 C1800 0.950 . S
H1826 C1802 0.950 . S
H1827 C1803 0.949 . S
H1828 C1805 0.950 . S
H1829 C1807 0.950 . S
C1830 C1831 1.349 . S
C1830 C1832 1.327 . S
C1830 H1855 0.950 . S
C1831 C1830 1.349 . S
C1831 C1847 1.349 . S
C1832 C1830 1.327 . S
C1832 C1851 1.429 . S
C1832 H1856 0.950 . S
C1833 C1850 1.574 . S
C1833 C1852 1.368 . S
C1833 H1857 0.949 . S
H1834 C1838 0.949 . S
C1835 C1836 1.349 . S
C1835 C1837 1.327 . S
C1835 H1858 0.950 . S
C1836 C1835 1.349 . S
C1836 C1848 1.349 . S
C1837 C1835 1.327 . S
C1837 C1853 1.429 . S
C1837 H1859 0.950 . S
C1838 H1834 0.949 . S
C1838 C1846 1.574 . S
C1838 C1854 1.368 . S
H1839 C1847 0.950 . S
H1840 C1845 0.950 . S
H1841 C1846 0.949 . S
H1842 C1848 0.950 . S
H1843 C1849 0.950 . S
H1844 C1850 0.949 . S
C1845 H1840 0.950 . S
C1845 C1847 1.327 . S
C1845 C1851 1.429 . S
C1846 C1838 1.574 . S
C1846 H1841 0.949 . S
C1846 C1852 1.368 . S
C1847 C1831 1.349 . S
C1847 H1839 0.950 . S
C1847 C1845 1.327 . S
C1848 C1836 1.349 . S
C1848 H1842 0.950 . S
C1848 C1849 1.327 . S
C1849 H1843 0.950 . S
C1849 C1848 1.327 . S
C1849 C1853 1.429 . S
C1850 C1833 1.574 . S
C1850 H1844 0.949 . S
C1850 C1854 1.368 . S
C1851 C1832 1.429 . S
C1851 C1845 1.429 . S
C1851 C1852 1.523 . S
C1852 C1833 1.368 . S
C1852 C1846 1.368 . S
C1852 C1851 1.523 . S
C1853 C1837 1.429 . S
C1853 C1849 1.429 . S
C1853 C1854 1.523 . S
C1854 C1838 1.368 . S
C1854 C1850 1.368 . S
C1854 C1853 1.523 . S
H1855 C1830 0.950 . S
H1856 C1832 0.950 . S
H1857 C1833 0.949 . S
H1858 C1835 0.950 . S
H1859 C1837 0.950 . S
C1860 C1861 1.349 . S
C1860 C1862 1.327 . S
C1860 H1885 0.950 . S
C1861 C1860 1.349 . S
C1861 C1877 1.349 . S
C1862 C1860 1.327 . S
C1862 C1881 1.429 . S
C1862 H1886 0.950 . S
C1863 C1880 1.574 . S
C1863 C1882 1.368 . S
C1863 H1887 0.949 . S
H1864 C1868 0.949 . S
C1865 C1866 1.349 . S
C1865 C1867 1.327 . S
C1865 H1888 0.950 . S
C1866 C1865 1.349 . S
C1866 C1878 1.349 . S
C1867 C1865 1.327 . S
C1867 C1883 1.429 . S
C1867 H1889 0.950 . S
C1868 H1864 0.949 . S
C1868 C1876 1.574 . S
C1868 C1884 1.368 . S
H1869 C1877 0.950 . S
H1870 C1875 0.950 . S
H1871 C1876 0.949 . S
H1872 C1878 0.950 . S
H1873 C1879 0.950 . S
H1874 C1880 0.949 . S
C1875 H1870 0.950 . S
C1875 C1877 1.327 . S
C1875 C1881 1.429 . S
C1876 C1868 1.574 . S
C1876 H1871 0.949 . S
C1876 C1882 1.368 . S
C1877 C1861 1.349 . S
C1877 H1869 0.950 . S
C1877 C1875 1.327 . S
C1878 C1866 1.349 . S
C1878 H1872 0.950 . S
C1878 C1879 1.327 . S
C1879 H1873 0.950 . S
C1879 C1878 1.327 . S
C1879 C1883 1.429 . S
C1880 C1863 1.574 . S
C1880 H1874 0.949 . S
C1880 C1884 1.368 . S
C1881 C1862 1.429 . S
C1881 C1875 1.429 . S
C1881 C1882 1.523 . S
C1882 C1863 1.368 . S
C1882 C1876 1.368 . S
C1882 C1881 1.523 . S
C1883 C1867 1.429 . S
C1883 C1879 1.429 . S
C1883 C1884 1.523 . S
C1884 C1868 1.368 . S
C1884 C1880 1.368 . S
C1884 C1883 1.523 . S
H1885 C1860 0.950 . S
H1886 C1862 0.950 . S
H1887 C1863 0.949 . S
H1888 C1865 0.950 . S
H1889 C1867 0.950 . S
C1890 C1891 1.349 . S
C1890 C1892 1.327 . S
C1890 H1915 0.950 . S
C1891 C1890 1.349 . S
C1891 C1907 1.349 . S
C1892 C1890 1.327 . S
C1892 C1911 1.429 . S
C1892 H1916 0.950 . S
C1893 C1910 1.574 . S
C1893 C1912 1.368 . S
C1893 H1917 0.949 . S
H1894 C1898 0.949 . S
C1895 C1896 1.349 . S
C1895 C1897 1.327 . S
C1895 H1918 0.950 . S
C1896 C1895 1.349 . S
C1896 C1908 1.349 . S
C1897 C1895 1.327 . S
C1897 C1913 1.429 . S
C1897 H1919 0.950 . S
C1898 H1894 0.949 . S
C1898 C1906 1.574 . S
C1898 C1914 1.368 . S
H1899 C1907 0.950 . S
H1900 C1905 0.950 . S
H1901 C1906 0.949 . S
H1902 C1908 0.950 . S
H1903 C1909 0.950 . S
H1904 C1910 0.949 . S
C1905 H1900 0.950 . S
C1905 C1907 1.327 . S
C1905 C1911 1.429 . S
C1906 C1898 1.574 . S
C1906 H1901 0.949 . S
C1906 C1912 1.368 . S
C1907 C1891 1.349 . S
C1907 H1899 0.950 . S
C1907 C1905 1.327 . S
C1908 C1896 1.349 . S
C1908 H1902 0.950 . S
C1908 C1909 1.327 . S
C1909 H1903 0.950 . S
C1909 C1908 1.327 . S
C1909 C1913 1.429 . S
C1910 C1893 1.574 . S
C1910 H1904 0.949 . S
C1910 C1914 1.368 . S
C1911 C1892 1.429 . S
C1911 C1905 1.429 . S
C1911 C1912 1.523 1_565 S
C1912 C1893 1.368 . S
C1912 C1906 1.368 . S
C1912 C1911 1.523 1_545 S
C1913 C1897 1.429 . S
C1913 C1909 1.429 . S
C1913 C1914 1.523 . S
C1914 C1898 1.368 . S
C1914 C1910 1.368 . S
C1914 C1913 1.523 . S
H1915 C1890 0.950 . S
H1916 C1892 0.950 . S
H1917 C1893 0.949 . S
H1918 C1895 0.950 . S
H1919 C1897 0.950 . S
C1920 C1921 1.349 . S
C1920 C1922 1.327 1_455 S
C1920 H1945 0.950 . S
C1921 C1920 1.349 . S
C1921 C1937 1.349 . S
C1922 C1920 1.327 1_655 S
C1922 C1941 1.429 . S
C1922 H1946 0.950 . S
C1923 C1940 1.574 . S
C1923 C1942 1.368 . S
C1923 H1947 0.949 . S
H1924 C1928 0.949 . S
C1925 C1926 1.349 . S
C1925 C1927 1.327 . S
C1925 H1948 0.950 . S
C1926 C1925 1.349 . S
C1926 C1938 1.349 . S
C1927 C1925 1.327 . S
C1927 C1943 1.429 . S
C1927 H1949 0.950 . S
C1928 H1924 0.949 . S
C1928 C1936 1.574 . S
C1928 C1944 1.368 . S
H1929 C1937 0.950 . S
H1930 C1935 0.950 . S
H1931 C1936 0.949 . S
H1932 C1938 0.950 . S
H1933 C1939 0.950 . S
H1934 C1940 0.949 . S
C1935 H1930 0.950 . S
C1935 C1937 1.327 . S
C1935 C1941 1.429 1_455 S
C1936 C1928 1.574 . S
C1936 H1931 0.949 . S
C1936 C1942 1.368 . S
C1937 C1921 1.349 . S
C1937 H1929 0.950 . S
C1937 C1935 1.327 . S
C1938 C1926 1.349 . S
C1938 H1932 0.950 . S
C1938 C1939 1.327 . S
C1939 H1933 0.950 . S
C1939 C1938 1.327 . S
C1939 C1943 1.429 . S
C1940 C1923 1.574 . S
C1940 H1934 0.949 . S
C1940 C1944 1.368 . S
C1941 C1922 1.429 . S
C1941 C1935 1.429 1_655 S
C1941 C1942 1.523 . S
C1942 C1923 1.368 . S
C1942 C1936 1.368 . S
C1942 C1941 1.523 . S
C1943 C1927 1.429 . S
C1943 C1939 1.429 . S
C1943 C1944 1.523 . S
C1944 C1928 1.368 . S
C1944 C1940 1.368 . S
C1944 C1943 1.523 . S
H1945 C1920 0.950 . S
H1946 C1922 0.950 . S
H1947 C1923 0.949 . S
H1948 C1925 0.950 . S
H1949 C1927 0.950 . S
C1950 C1951 1.349 . S
C1950 C1952 1.327 . S
C1950 H1975 0.950 . S
C1951 C1950 1.349 . S
C1951 C1967 1.349 . S
C1952 C1950 1.327 . S
C1952 C1971 1.429 . S
C1952 H1976 0.950 . S
C1953 C1970 1.574 . S
C1953 C1972 1.368 . S
C1953 H1977 0.949 . S
H1954 C1958 0.949 . S
C1955 C1956 1.349 . S
C1955 C1957 1.327 . S
C1955 H1978 0.950 . S
C1956 C1955 1.349 . S
C1956 C1968 1.349 . S
C1957 C1955 1.327 . S
C1957 C1973 1.429 . S
C1957 H1979 0.950 . S
C1958 H1954 0.949 . S
C1958 C1966 1.574 . S
C1958 C1974 1.368 . S
H1959 C1967 0.950 . S
H1960 C1965 0.950 . S
H1961 C1966 0.949 . S
H1962 C1968 0.950 . S
H1963 C1969 0.950 . S
H1964 C1970 0.949 . S
C1965 H1960 0.950 . S
C1965 C1967 1.327 . S
C1965 C1971 1.429 . S
C1966 C1958 1.574 . S
C1966 H1961 0.949 . S
C1966 C1972 1.368 . S
C1967 C1951 1.349 . S
C1967 H1959 0.950 . S
C1967 C1965 1.327 . S
C1968 C1956 1.349 . S
C1968 H1962 0.950 . S
C1968 C1969 1.327 . S
C1969 H1963 0.950 . S
C1969 C1968 1.327 . S
C1969 C1973 1.429 . S
C1970 C1953 1.574 . S
C1970 H1964 0.949 . S
C1970 C1974 1.368 . S
C1971 C1952 1.429 . S
C1971 C1965 1.429 . S
C1971 C1972 1.523 . S
C1972 C1953 1.368 . S
C1972 C1966 1.368 . S
C1972 C1971 1.523 . S
C1973 C1957 1.429 . S
C1973 C1969 1.429 . S
C1973 C1974 1.523 . S
C1974 C1958 1.368 . S
C1974 C1970 1.368 . S
C1974 C1973 1.523 . S
H1975 C1950 0.950 . S
H1976 C1952 0.950 . S
H1977 C1953 0.949 . S
H1978 C1955 0.950 . S
H1979 C1957 0.950 . S
C1980 C1981 1.349 . S
C1980 C1982 1.327 . S
C1980 H2005 0.950 . S
C1981 C1980 1.349 . S
C1981 C1997 1.349 . S
C1982 C1980 1.327 . S
C1982 C2001 1.429 1_455 S
C1982 H2006 0.950 1_455 S
C1983 C2000 1.574 . S
C1983 C2002 1.368 . S
C1983 H2007 0.949 . S
H1984 C1988 0.949 . S
C1985 C1986 1.349 . S
C1985 C1987 1.327 . S
C1985 H2008 0.950 . S
C1986 C1985 1.349 . S
C1986 C1998 1.349 . S
C1987 C1985 1.327 . S
C1987 C2003 1.429 . S
C1987 H2009 0.950 . S
C1988 H1984 0.949 . S
C1988 C1996 1.574 . S
C1988 C2004 1.368 . S
H1989 C1997 0.950 . S
H1990 C1995 0.950 . S
H1991 C1996 0.949 . S
H1992 C1998 0.950 . S
H1993 C1999 0.950 . S
H1994 C2000 0.949 . S
C1995 H1990 0.950 . S
C1995 C1997 1.327 . S
C1995 C2001 1.429 1_455 S
C1996 C1988 1.574 . S
C1996 H1991 0.949 . S
C1996 C2002 1.368 . S
C1997 C1981 1.349 . S
C1997 H1989 0.950 . S
C1997 C1995 1.327 . S
C1998 C1986 1.349 . S
C1998 H1992 0.950 . S
C1998 C1999 1.327 . S
C1999 H1993 0.950 . S
C1999 C1998 1.327 . S
C1999 C2003 1.429 . S
C2000 C1983 1.574 . S
C2000 H1994 0.949 . S
C2000 C2004 1.368 . S
C2001 C1982 1.429 1_655 S
C2001 C1995 1.429 1_655 S
C2001 C2002 1.523 . S
C2002 C1983 1.368 . S
C2002 C1996 1.368 . S
C2002 C2001 1.523 . S
C2003 C1987 1.429 . S
C2003 C1999 1.429 . S
C2003 C2004 1.523 . S
C2004 C1988 1.368 . S
C2004 C2000 1.368 . S
C2004 C2003 1.523 . S
H2005 C1980 0.950 . S
H2006 C1982 0.950 1_655 S
H2007 C1983 0.949 . S
H2008 C1985 0.950 . S
H2009 C1987 0.950 . S
C2010 C2011 1.349 . S
C2010 C2012 1.327 . S
C2010 H2035 0.950 . S
C2011 C2010 1.349 . S
C2011 C2027 1.349 . S
C2012 C2010 1.327 . S
C2012 C2031 1.429 . S
C2012 H2036 0.950 . S
C2013 C2030 1.574 . S
C2013 C2032 1.368 . S
C2013 H2037 0.949 . S
H2014 C2018 0.949 . S
C2015 C2016 1.349 . S
C2015 C2017 1.327 . S
C2015 H2038 0.950 . S
C2016 C2015 1.349 . S
C2016 C2028 1.349 . S
C2017 C2015 1.327 . S
C2017 C2033 1.429 . S
C2017 H2039 0.950 . S
C2018 H2014 0.949 . S
C2018 C2026 1.574 . S
C2018 C2034 1.368 . S
H2019 C2027 0.950 . S
H2020 C2025 0.950 . S
H2021 C2026 0.949 . S
H2022 C2028 0.950 . S
H2023 C2029 0.950 . S
H2024 C2030 0.949 . S
C2025 H2020 0.950 . S
C2025 C2027 1.327 . S
C2025 C2031 1.429 . S
C2026 C2018 1.574 . S
C2026 H2021 0.949 . S
C2026 C2032 1.368 . S
C2027 C2011 1.349 . S
C2027 H2019 0.950 . S
C2027 C2025 1.327 . S
C2028 C2016 1.349 . S
C2028 H2022 0.950 . S
C2028 C2029 1.327 . S
C2029 H2023 0.950 . S
C2029 C2028 1.327 . S
C2029 C2033 1.429 . S
C2030 C2013 1.574 . S
C2030 H2024 0.949 . S
C2030 C2034 1.368 . S
C2031 C2012 1.429 . S
C2031 C2025 1.429 . S
C2031 C2032 1.523 . S
C2032 C2013 1.368 . S
C2032 C2026 1.368 . S
C2032 C2031 1.523 . S
C2033 C2017 1.429 . S
C2033 C2029 1.429 . S
C2033 C2034 1.523 . S
C2034 C2018 1.368 . S
C2034 C2030 1.368 . S
C2034 C2033 1.523 . S
H2035 C2010 0.950 . S
H2036 C2012 0.950 . S
H2037 C2013 0.949 . S
H2038 C2015 0.950 . S
H2039 C2017 0.950 . S
C2040 C2041 1.349 . S
C2040 C2042 1.327 . S
C2040 H2065 0.950 . S
C2041 C2040 1.349 . S
C2041 C2057 1.349 . S
C2042 C2040 1.327 . S
C2042 C2061 1.429 . S
C2042 H2066 0.950 . S
C2043 C2060 1.574 . S
C2043 C2062 1.368 . S
C2043 H2067 0.949 . S
H2044 C2048 0.949 . S
C2045 C2046 1.349 . S
C2045 C2047 1.327 . S
C2045 H2068 0.950 . S
C2046 C2045 1.349 . S
C2046 C2058 1.349 . S
C2047 C2045 1.327 . S
C2047 C2063 1.429 . S
C2047 H2069 0.950 . S
C2048 H2044 0.949 . S
C2048 C2056 1.574 . S
C2048 C2064 1.368 . S
H2049 C2057 0.950 . S
H2050 C2055 0.950 . S
H2051 C2056 0.949 . S
H2052 C2058 0.950 . S
H2053 C2059 0.950 . S
H2054 C2060 0.949 . S
C2055 H2050 0.950 . S
C2055 C2057 1.327 . S
C2055 C2061 1.429 . S
C2056 C2048 1.574 . S
C2056 H2051 0.949 . S
C2056 C2062 1.368 . S
C2057 C2041 1.349 . S
C2057 H2049 0.950 . S
C2057 C2055 1.327 . S
C2058 C2046 1.349 . S
C2058 H2052 0.950 . S
C2058 C2059 1.327 . S
C2059 H2053 0.950 . S
C2059 C2058 1.327 . S
C2059 C2063 1.429 . S
C2060 C2043 1.574 . S
C2060 H2054 0.949 . S
C2060 C2064 1.368 . S
C2061 C2042 1.429 . S
C2061 C2055 1.429 . S
C2061 C2062 1.523 1_565 S
C2062 C2043 1.368 . S
C2062 C2056 1.368 . S
C2062 C2061 1.523 1_545 S
C2063 C2047 1.429 . S
C2063 C2059 1.429 . S
C2063 C2064 1.523 . S
C2064 C2048 1.368 . S
C2064 C2060 1.368 . S
C2064 C2063 1.523 . S
H2065 C2040 0.950 . S
H2066 C2042 0.950 . S
H2067 C2043 0.949 . S
H2068 C2045 0.950 . S
H2069 C2047 0.950 . S
C2070 C2071 1.349 . S
C2070 C2072 1.327 . S
C2070 H2095 0.950 . S
C2071 C2070 1.349 . S
C2071 C2087 1.349 . S
C2072 C2070 1.327 . S
C2072 C2091 1.429 . S
C2072 H2096 0.950 . S
C2073 C2090 1.574 . S
C2073 C2092 1.368 . S
C2073 H2097 0.949 . S
H2074 C2078 0.949 . S
C2075 C2076 1.349 . S
C2075 C2077 1.327 . S
C2075 H2098 0.950 . S
C2076 C2075 1.349 . S
C2076 C2088 1.349 . S
C2077 C2075 1.327 . S
C2077 C2093 1.429 . S
C2077 H2099 0.950 . S
C2078 H2074 0.949 . S
C2078 C2086 1.574 . S
C2078 C2094 1.368 . S
H2079 C2087 0.950 . S
H2080 C2085 0.950 . S
H2081 C2086 0.949 . S
H2082 C2088 0.950 . S
H2083 C2089 0.950 . S
H2084 C2090 0.949 . S
C2085 H2080 0.950 . S
C2085 C2087 1.327 . S
C2085 C2091 1.429 . S
C2086 C2078 1.574 . S
C2086 H2081 0.949 . S
C2086 C2092 1.368 . S
C2087 C2071 1.349 . S
C2087 H2079 0.950 . S
C2087 C2085 1.327 . S
C2088 C2076 1.349 . S
C2088 H2082 0.950 . S
C2088 C2089 1.327 . S
C2089 H2083 0.950 . S
C2089 C2088 1.327 . S
C2089 C2093 1.429 . S
C2090 C2073 1.574 . S
C2090 H2084 0.949 . S
C2090 C2094 1.368 . S
C2091 C2072 1.429 . S
C2091 C2085 1.429 . S
C2091 C2092 1.523 . S
C2092 C2073 1.368 . S
C2092 C2086 1.368 . S
C2092 C2091 1.523 . S
C2093 C2077 1.429 . S
C2093 C2089 1.429 . S
C2093 C2094 1.523 . S
C2094 C2078 1.368 . S
C2094 C2090 1.368 . S
C2094 C2093 1.523 . S
H2095 C2070 0.950 . S
H2096 C2072 0.950 . S
H2097 C2073 0.949 . S
H2098 C2075 0.950 . S
H2099 C2077 0.950 . S
C2100 C2101 1.349 . S
C2100 C2102 1.327 . S
C2100 H2125 0.950 . S
C2101 C2100 1.349 . S
C2101 C2117 1.349 . S
C2102 C2100 1.327 . S
C2102 C2121 1.429 . S
C2102 H2126 0.950 . S
C2103 C2120 1.574 . S
C2103 C2122 1.368 . S
C2103 H2127 0.949 . S
H2104 C2108 0.949 . S
C2105 C2106 1.349 . S
C2105 C2107 1.327 . S
C2105 H2128 0.950 . S
C2106 C2105 1.349 . S
C2106 C2118 1.349 . S
C2107 C2105 1.327 . S
C2107 C2123 1.429 . S
C2107 H2129 0.950 . S
C2108 H2104 0.949 . S
C2108 C2116 1.574 . S
C2108 C2124 1.368 . S
H2109 C2117 0.950 . S
H2110 C2115 0.950 . S
H2111 C2116 0.949 . S
H2112 C2118 0.950 . S
H2113 C2119 0.950 . S
H2114 C2120 0.949 . S
C2115 H2110 0.950 . S
C2115 C2117 1.327 . S
C2115 C2121 1.429 . S
C2116 C2108 1.574 . S
C2116 H2111 0.949 . S
C2116 C2122 1.368 . S
C2117 C2101 1.349 . S
C2117 H2109 0.950 . S
C2117 C2115 1.327 . S
C2118 C2106 1.349 . S
C2118 H2112 0.950 . S
C2118 C2119 1.327 . S
C2119 H2113 0.950 . S
C2119 C2118 1.327 . S
C2119 C2123 1.429 . S
C2120 C2103 1.574 . S
C2120 H2114 0.949 . S
C2120 C2124 1.368 . S
C2121 C2102 1.429 . S
C2121 C2115 1.429 . S
C2121 C2122 1.523 . S
C2122 C2103 1.368 . S
C2122 C2116 1.368 . S
C2122 C2121 1.523 . S
C2123 C2107 1.429 . S
C2123 C2119 1.429 . S
C2123 C2124 1.523 . S
C2124 C2108 1.368 . S
C2124 C2120 1.368 . S
C2124 C2123 1.523 . S
H2125 C2100 0.950 . S
H2126 C2102 0.950 . S
H2127 C2103 0.949 . S
H2128 C2105 0.950 . S
H2129 C2107 0.950 . S
C2130 C2131 1.349 . S
C2130 C2132 1.327 . S
C2130 H2155 0.950 . S
C2131 C2130 1.349 . S
C2131 C2147 1.349 . S
C2132 C2130 1.327 . S
C2132 C2151 1.429 . S
C2132 H2156 0.950 . S
C2133 C2150 1.574 . S
C2133 C2152 1.368 . S
C2133 H2157 0.949 . S
H2134 C2138 0.949 . S
C2135 C2136 1.349 . S
C2135 C2137 1.327 . S
C2135 H2158 0.950 . S
C2136 C2135 1.349 . S
C2136 C2148 1.349 . S
C2137 C2135 1.327 . S
C2137 C2153 1.429 . S
C2137 H2159 0.950 . S
C2138 H2134 0.949 . S
C2138 C2146 1.574 . S
C2138 C2154 1.368 . S
H2139 C2147 0.950 . S
H2140 C2145 0.950 . S
H2141 C2146 0.949 . S
H2142 C2148 0.950 . S
H2143 C2149 0.950 . S
H2144 C2150 0.949 . S
C2145 H2140 0.950 . S
C2145 C2147 1.327 . S
C2145 C2151 1.429 . S
C2146 C2138 1.574 . S
C2146 H2141 0.949 . S
C2146 C2152 1.368 . S
C2147 C2131 1.349 . S
C2147 H2139 0.950 . S
C2147 C2145 1.327 . S
C2148 C2136 1.349 . S
C2148 H2142 0.950 . S
C2148 C2149 1.327 . S
C2149 H2143 0.950 . S
C2149 C2148 1.327 . S
C2149 C2153 1.429 . S
C2150 C2133 1.574 . S
C2150 H2144 0.949 . S
C2150 C2154 1.368 . S
C2151 C2132 1.429 . S
C2151 C2145 1.429 . S
C2151 C2152 1.523 . S
C2152 C2133 1.368 . S
C2152 C2146 1.368 . S
C2152 C2151 1.523 . S
C2153 C2137 1.429 . S
C2153 C2149 1.429 . S
C2153 C2154 1.523 . S
C2154 C2138 1.368 . S
C2154 C2150 1.368 . S
C2154 C2153 1.523 . S
H2155 C2130 0.950 . S
H2156 C2132 0.950 . S
H2157 C2133 0.949 . S
H2158 C2135 0.950 . S
H2159 C2137 0.950 . S
C2160 C2161 1.349 . S
C2160 C2162 1.327 . S
C2160 H2185 0.950 . S
C2161 C2160 1.349 . S
C2161 C2177 1.349 . S
C2162 C2160 1.327 . S
C2162 C2181 1.429 . S
C2162 H2186 0.950 . S
C2163 C2180 1.574 . S
C2163 C2182 1.368 . S
C2163 H2187 0.949 . S
H2164 C2168 0.949 1_545 S
C2165 C2166 1.349 . S
C2165 C2167 1.327 . S
C2165 H2188 0.950 . S
C2166 C2165 1.349 . S
C2166 C2178 1.349 1_565 S
C2167 C2165 1.327 . S
C2167 C2183 1.429 . S
C2167 H2189 0.950 . S
C2168 H2164 0.949 1_565 S
C2168 C2176 1.574 . S
C2168 C2184 1.368 . S
H2169 C2177 0.950 . S
H2170 C2175 0.950 . S
H2171 C2176 0.949 . S
H2172 C2178 0.950 . S
H2173 C2179 0.938 1_545 S
H2174 C2180 0.949 . S
C2175 H2170 0.950 . S
C2175 C2177 1.327 . S
C2175 C2181 1.429 . S
C2176 C2168 1.574 . S
C2176 H2171 0.949 . S
C2176 C2182 1.368 . S
C2177 C2161 1.349 . S
C2177 H2169 0.950 . S
C2177 C2175 1.327 . S
C2178 C2166 1.349 1_545 S
C2178 H2172 0.950 . S
C2178 C2179 1.316 1_545 S
C2179 H2173 0.938 1_565 S
C2179 C2178 1.316 1_565 S
C2179 C2183 1.454 . S
C2180 C2163 1.574 . S
C2180 H2174 0.949 . S
C2180 C2184 1.368 . S
C2181 C2162 1.429 . S
C2181 C2175 1.429 . S
C2181 C2182 1.523 . S
C2182 C2163 1.368 . S
C2182 C2176 1.368 . S
C2182 C2181 1.523 . S
C2183 C2167 1.429 . S
C2183 C2179 1.454 . S
C2183 C2184 1.523 . S
C2184 C2168 1.368 . S
C2184 C2180 1.368 . S
C2184 C2183 1.523 . S
H2185 C2160 0.950 . S
H2186 C2162 0.950 . S
H2187 C2163 0.949 . S
H2188 C2165 0.950 . S
H2189 C2167 0.950 . S
C2190 C2191 1.349 1_655 S
C2190 C2192 1.327 . S
C2190 H2215 0.950 . S
C2191 C2190 1.349 1_455 S
C2191 C2207 1.349 . S
C2192 C2190 1.327 . S
C2192 C2211 1.429 1_655 S
C2192 H2216 0.950 . S
C2193 C2210 1.574 . S
C2193 C2212 1.368 . S
C2193 H2217 0.949 . S
H2194 C2198 0.949 . S
C2195 C2196 1.349 . S
C2195 C2197 1.327 . S
C2195 H2218 0.950 . S
C2196 C2195 1.349 . S
C2196 C2208 1.349 1_455 S
C2197 C2195 1.327 . S
C2197 C2213 1.429 . S
C2197 H2219 0.950 . S
C2198 H2194 0.949 . S
C2198 C2206 1.574 . S
C2198 C2214 1.368 1_655 S
H2199 C2207 0.950 . S
H2200 C2205 0.950 . S
H2201 C2206 0.949 . S
H2202 C2208 0.950 . S
H2203 C2209 0.950 . S
H2204 C2210 0.949 . S
C2205 H2200 0.950 . S
C2205 C2207 1.327 . S
C2205 C2211 1.429 . S
C2206 C2198 1.574 . S
C2206 H2201 0.949 . S
C2206 C2212 1.368 1_655 S
C2207 C2191 1.349 . S
C2207 H2199 0.950 . S
C2207 C2205 1.327 . S
C2208 C2196 1.349 1_655 S
C2208 H2202 0.950 . S
C2208 C2209 1.327 . S
C2209 H2203 0.950 . S
C2209 C2208 1.327 . S
C2209 C2213 1.429 1_655 S
C2210 C2193 1.574 . S
C2210 H2204 0.949 . S
C2210 C2214 1.368 . S
C2211 C2192 1.429 1_455 S
C2211 C2205 1.429 . S
C2211 C2212 1.523 . S
C2212 C2193 1.368 . S
C2212 C2206 1.368 1_455 S
C2212 C2211 1.523 . S
C2213 C2197 1.429 . S
C2213 C2209 1.429 1_455 S
C2213 C2214 1.523 . S
C2214 C2198 1.368 1_455 S
C2214 C2210 1.368 . S
C2214 C2213 1.523 . S
H2215 C2190 0.950 . S
H2216 C2192 0.950 . S
H2217 C2193 0.949 . S
H2218 C2195 0.950 . S
H2219 C2197 0.950 . S
C2220 C2221 1.349 . S
C2220 C2222 1.327 . S
C2220 H2245 0.950 . S
C2221 C2220 1.349 . S
C2221 C2237 1.349 . S
C2222 C2220 1.327 . S
C2222 C2241 1.429 . S
C2222 H2246 0.950 . S
C2223 C2240 1.574 . S
C2223 C2242 1.368 . S
C2223 H2247 0.949 . S
H2224 C2228 0.949 . S
C2225 C2226 1.349 . S
C2225 C2227 1.327 . S
C2225 H2248 0.950 . S
C2226 C2225 1.349 . S
C2226 C2238 1.349 . S
C2227 C2225 1.327 . S
C2227 C2243 1.429 . S
C2227 H2249 0.950 . S
C2228 H2224 0.949 . S
C2228 C2236 1.574 . S
C2228 C2244 1.368 . S
H2229 C2237 0.950 . S
H2230 C2235 0.950 . S
H2231 C2236 0.949 . S
H2232 C2238 0.950 . S
H2233 C2239 0.950 . S
H2234 C2240 0.949 . S
C2235 H2230 0.950 . S
C2235 C2237 1.327 . S
C2235 C2241 1.429 . S
C2236 C2228 1.574 . S
C2236 H2231 0.949 . S
C2236 C2242 1.368 . S
C2237 C2221 1.349 . S
C2237 H2229 0.950 . S
C2237 C2235 1.327 . S
C2238 C2226 1.349 . S
C2238 H2232 0.950 . S
C2238 C2239 1.327 . S
C2239 H2233 0.950 . S
C2239 C2238 1.327 . S
C2239 C2243 1.429 . S
C2240 C2223 1.574 . S
C2240 H2234 0.949 . S
C2240 C2244 1.368 . S
C2241 C2222 1.429 . S
C2241 C2235 1.429 . S
C2241 C2242 1.523 . S
C2242 C2223 1.368 . S
C2242 C2236 1.368 . S
C2242 C2241 1.523 . S
C2243 C2227 1.429 . S
C2243 C2239 1.429 . S
C2243 C2244 1.523 . S
C2244 C2228 1.368 . S
C2244 C2240 1.368 . S
C2244 C2243 1.523 . S
H2245 C2220 0.950 . S
H2246 C2222 0.950 . S
H2247 C2223 0.949 . S
H2248 C2225 0.950 . S
H2249 C2227 0.950 . S
C2250 C2251 1.349 . S
C2250 C2252 1.327 . S
C2250 H2275 0.950 . S
C2251 C2250 1.349 . S
C2251 C2267 1.349 . S
C2252 C2250 1.327 . S
C2252 C2271 1.429 . S
C2252 H2276 0.950 . S
C2253 C2270 1.574 . S
C2253 C2272 1.368 . S
C2253 H2277 0.949 . S
H2254 C2258 0.949 . S
C2255 C2256 1.349 . S
C2255 C2257 1.327 . S
C2255 H2278 0.950 . S
C2256 C2255 1.349 . S
C2256 C2268 1.349 . S
C2257 C2255 1.327 . S
C2257 C2273 1.429 . S
C2257 H2279 0.950 . S
C2258 H2254 0.949 . S
C2258 C2266 1.574 . S
C2258 C2274 1.368 . S
H2259 C2267 0.950 . S
H2260 C2265 0.950 . S
H2261 C2266 0.949 . S
H2262 C2268 0.950 . S
H2263 C2269 0.950 . S
H2264 C2270 0.949 . S
C2265 H2260 0.950 . S
C2265 C2267 1.327 . S
C2265 C2271 1.429 . S
C2266 C2258 1.574 . S
C2266 H2261 0.949 . S
C2266 C2272 1.368 . S
C2267 C2251 1.349 . S
C2267 H2259 0.950 . S
C2267 C2265 1.327 . S
C2268 C2256 1.349 . S
C2268 H2262 0.950 . S
C2268 C2269 1.327 . S
C2269 H2263 0.950 . S
C2269 C2268 1.327 . S
C2269 C2273 1.429 . S
C2270 C2253 1.574 . S
C2270 H2264 0.949 . S
C2270 C2274 1.368 . S
C2271 C2252 1.429 . S
C2271 C2265 1.429 . S
C2271 C2272 1.523 . S
C2272 C2253 1.368 . S
C2272 C2266 1.368 . S
C2272 C2271 1.523 . S
C2273 C2257 1.429 . S
C2273 C2269 1.429 . S
C2273 C2274 1.523 . S
C2274 C2258 1.368 . S
C2274 C2270 1.368 . S
C2274 C2273 1.523 . S
H2275 C2250 0.950 . S
H2276 C2252 0.950 . S
H2277 C2253 0.949 . S
H2278 C2255 0.950 . S
H2279 C2257 0.950 . S
C2280 C2281 1.349 . S
C2280 C2282 1.327 . S
C2280 H2305 0.950 . S
C2281 C2280 1.349 . S
C2281 C2297 1.349 . S
C2282 C2280 1.327 . S
C2282 C2301 1.429 . S
C2282 H2306 0.950 . S
C2283 C2300 1.574 . S
C2283 C2302 1.368 . S
C2283 H2307 0.949 . S
H2284 C2288 0.949 . S
C2285 C2286 1.349 . S
C2285 C2287 1.327 . S
C2285 H2308 0.950 . S
C2286 C2285 1.349 . S
C2286 C2298 1.349 . S
C2287 C2285 1.327 . S
C2287 C2303 1.429 . S
C2287 H2309 0.950 . S
C2288 H2284 0.949 . S
C2288 C2296 1.574 . S
C2288 C2304 1.368 . S
H2289 C2297 0.950 . S
H2290 C2295 0.950 . S
H2291 C2296 0.949 . S
H2292 C2298 0.950 . S
H2293 C2299 0.950 . S
H2294 C2300 0.949 . S
C2295 H2290 0.950 . S
C2295 C2297 1.327 . S
C2295 C2301 1.429 . S
C2296 C2288 1.574 . S
C2296 H2291 0.949 . S
C2296 C2302 1.368 . S
C2297 C2281 1.349 . S
C2297 H2289 0.950 . S
C2297 C2295 1.327 . S
C2298 C2286 1.349 . S
C2298 H2292 0.950 . S
C2298 C2299 1.327 . S
C2299 H2293 0.950 . S
C2299 C2298 1.327 . S
C2299 C2303 1.429 . S
C2300 C2283 1.574 . S
C2300 H2294 0.949 . S
C2300 C2304 1.368 . S
C2301 C2282 1.429 . S
C2301 C2295 1.429 . S
C2301 C2302 1.523 . S
C2302 C2283 1.368 . S
C2302 C2296 1.368 . S
C2302 C2301 1.523 . S
C2303 C2287 1.429 . S
C2303 C2299 1.429 . S
C2303 C2304 1.523 . S
C2304 C2288 1.368 . S
C2304 C2300 1.368 . S
C2304 C2303 1.523 . S
H2305 C2280 0.950 . S
H2306 C2282 0.950 . S
H2307 C2283 0.949 . S
H2308 C2285 0.950 . S
H2309 C2287 0.950 . S
C2310 C2311 1.349 . S
C2310 C2312 1.327 . S
C2310 H2335 0.950 . S
C2311 C2310 1.349 . S
C2311 C2327 1.349 . S
C2312 C2310 1.327 . S
C2312 C2331 1.429 . S
C2312 H2336 0.950 . S
C2313 C2330 1.574 . S
C2313 C2332 1.368 . S
C2313 H2337 0.949 . S
H2314 C2318 0.949 . S
C2315 C2316 1.349 . S
C2315 C2317 1.327 . S
C2315 H2338 0.950 1_545 S
C2316 C2315 1.349 . S
C2316 C2328 1.349 . S
C2317 C2315 1.327 . S
C2317 C2333 1.429 . S
C2317 H2339 0.950 . S
C2318 H2314 0.949 . S
C2318 C2326 1.574 . S
C2318 C2334 1.368 . S
H2319 C2327 0.950 . S
H2320 C2325 0.950 . S
H2321 C2326 0.949 . S
H2322 C2328 0.950 . S
H2323 C2329 0.950 . S
H2324 C2330 0.949 . S
C2325 H2320 0.950 . S
C2325 C2327 1.327 . S
C2325 C2331 1.429 . S
C2326 C2318 1.574 . S
C2326 H2321 0.949 . S
C2326 C2332 1.368 . S
C2327 C2311 1.349 . S
C2327 H2319 0.950 . S
C2327 C2325 1.327 . S
C2328 C2316 1.349 . S
C2328 H2322 0.950 . S
C2328 C2329 1.327 . S
C2329 H2323 0.950 . S
C2329 C2328 1.327 . S
C2329 C2333 1.429 . S
C2330 C2313 1.574 . S
C2330 H2324 0.949 . S
C2330 C2334 1.368 . S
C2331 C2312 1.429 . S
C2331 C2325 1.429 . S
C2331 C2332 1.523 . S
C2332 C2313 1.368 . S
C2332 C2326 1.368 . S
C2332 C2331 1.523 . S
C2333 C2317 1.429 . S
C2333 C2329 1.429 . S
C2333 C2334 1.523 . S
C2334 C2318 1.368 . S
C2334 C2330 1.368 . S
C2334 C2333 1.523 . S
H2335 C2310 0.950 . S
H2336 C2312 0.950 . S
H2337 C2313 0.949 . S
H2338 C2315 0.950 1_565 S
H2339 C2317 0.950 . S
C2340 C2341 1.349 . S
C2340 C2342 1.327 . S
C2340 H2365 0.950 . S
C2341 C2340 1.349 . S
C2341 C2357 1.349 . S
C2342 C2340 1.327 . S
C2342 C2361 1.429 . S
C2342 H2366 0.950 . S
C2343 C2360 1.574 . S
C2343 C2362 1.368 . S
C2343 H2367 0.949 . S
H2344 C2348 0.949 . S
C2345 C2346 1.349 . S
C2345 C2347 1.327 . S
C2345 H2368 0.950 . S
C2346 C2345 1.349 . S
C2346 C2358 1.349 . S
C2347 C2345 1.327 . S
C2347 C2363 1.429 . S
C2347 H2369 0.950 . S
C2348 H2344 0.949 . S
C2348 C2356 1.574 . S
C2348 C2364 1.368 . S
H2349 C2357 0.950 . S
H2350 C2355 0.950 . S
H2351 C2356 0.949 . S
H2352 C2358 0.950 . S
H2353 C2359 0.950 . S
H2354 C2360 0.949 . S
C2355 H2350 0.950 . S
C2355 C2357 1.327 . S
C2355 C2361 1.429 . S
C2356 C2348 1.574 . S
C2356 H2351 0.949 . S
C2356 C2362 1.368 . S
C2357 C2341 1.349 . S
C2357 H2349 0.950 . S
C2357 C2355 1.327 . S
C2358 C2346 1.349 . S
C2358 H2352 0.950 . S
C2358 C2359 1.327 . S
C2359 H2353 0.950 . S
C2359 C2358 1.327 . S
C2359 C2363 1.429 . S
C2360 C2343 1.574 . S
C2360 H2354 0.949 . S
C2360 C2364 1.368 . S
C2361 C2342 1.429 . S
C2361 C2355 1.429 . S
C2361 C2362 1.523 . S
C2362 C2343 1.368 . S
C2362 C2356 1.368 . S
C2362 C2361 1.523 . S
C2363 C2347 1.429 . S
C2363 C2359 1.429 . S
C2363 C2364 1.523 . S
C2364 C2348 1.368 . S
C2364 C2360 1.368 . S
C2364 C2363 1.523 . S
H2365 C2340 0.950 . S
H2366 C2342 0.950 . S
H2367 C2343 0.949 . S
H2368 C2345 0.950 . S
H2369 C2347 0.950 . S
C2370 C2371 1.349 . S
C2370 C2372 1.327 . S
C2370 H2395 0.950 . S
C2371 C2370 1.349 . S
C2371 C2387 1.349 . S
C2372 C2370 1.327 . S
C2372 C2391 1.429 . S
C2372 H2396 0.950 . S
C2373 C2390 1.574 . S
C2373 C2392 1.368 . S
C2373 H2397 0.949 . S
H2374 C2378 0.949 . S
C2375 C2376 1.349 . S
C2375 C2377 1.327 . S
C2375 H2398 0.950 . S
C2376 C2375 1.349 . S
C2376 C2388 1.349 . S
C2377 C2375 1.327 . S
C2377 C2393 1.429 . S
C2377 H2399 0.950 . S
C2378 H2374 0.949 . S
C2378 C2386 1.574 . S
C2378 C2394 1.368 . S
H2379 C2387 0.950 . S
H2380 C2385 0.950 . S
H2381 C2386 0.949 . S
H2382 C2388 0.950 . S
H2383 C2389 0.950 . S
H2384 C2390 0.949 . S
C2385 H2380 0.950 . S
C2385 C2387 1.327 . S
C2385 C2391 1.429 . S
C2386 C2378 1.574 . S
C2386 H2381 0.949 . S
C2386 C2392 1.368 . S
C2387 C2371 1.349 . S
C2387 H2379 0.950 . S
C2387 C2385 1.327 . S
C2388 C2376 1.349 . S
C2388 H2382 0.950 . S
C2388 C2389 1.327 . S
C2389 H2383 0.950 . S
C2389 C2388 1.327 . S
C2389 C2393 1.429 . S
C2390 C2373 1.574 . S
C2390 H2384 0.949 . S
C2390 C2394 1.368 . S
C2391 C2372 1.429 . S
C2391 C2385 1.429 . S
C2391 C2392 1.523 . S
C2392 C2373 1.368 . S
C2392 C2386 1.368 . S
C2392 C2391 1.523 . S
C2393 C2377 1.429 . S
C2393 C2389 1.429 . S
C2393 C2394 1.523 . S
C2394 C2378 1.368 . S
C2394 C2390 1.368 . S
C2394 C2393 1.523 . S
H2395 C2370 0.950 . S
H2396 C2372 0.950 . S
H2397 C2373 0.949 . S
H2398 C2375 0.950 . S
H2399 C2377 0.950 . S
C2400 C2401 1.349 . S
C2400 C2402 1.327 . S
C2400 H2425 0.950 . S
C2401 C2400 1.349 . S
C2401 C2417 1.349 . S
C2402 C2400 1.327 . S
C2402 C2421 1.429 . S
C2402 H2426 0.950 . S
C2403 C2420 1.574 . S
C2403 C2422 1.368 . S
C2403 H2427 0.949 . S
H2404 C2408 0.949 . S
C2405 C2406 1.349 . S
C2405 C2407 1.327 . S
C2405 H2428 0.950 . S
C2406 C2405 1.349 . S
C2406 C2418 1.349 . S
C2407 C2405 1.327 . S
C2407 C2423 1.429 . S
C2407 H2429 0.950 . S
C2408 H2404 0.949 . S
C2408 C2416 1.574 . S
C2408 C2424 1.368 . S
H2409 C2417 0.950 . S
H2410 C2415 0.950 . S
H2411 C2416 0.949 . S
H2412 C2418 0.950 . S
H2413 C2419 0.950 . S
H2414 C2420 0.949 . S
C2415 H2410 0.950 . S
C2415 C2417 1.327 . S
C2415 C2421 1.429 . S
C2416 C2408 1.574 . S
C2416 H2411 0.949 . S
C2416 C2422 1.368 . S
C2417 C2401 1.349 . S
C2417 H2409 0.950 . S
C2417 C2415 1.327 . S
C2418 C2406 1.349 . S
C2418 H2412 0.950 . S
C2418 C2419 1.327 . S
C2419 H2413 0.950 . S
C2419 C2418 1.327 . S
C2419 C2423 1.429 . S
C2420 C2403 1.574 . S
C2420 H2414 0.949 . S
C2420 C2424 1.368 . S
C2421 C2402 1.429 . S
C2421 C2415 1.429 . S
C2421 C2422 1.523 . S
C2422 C2403 1.368 . S
C2422 C2416 1.368 . S
C2422 C2421 1.523 . S
C2423 C2407 1.429 . S
C2423 C2419 1.429 . S
C2423 C2424 1.523 . S
C2424 C2408 1.368 . S
C2424 C2420 1.368 . S
C2424 C2423 1.523 . S
H2425 C2400 0.950 . S
H2426 C2402 0.950 . S
H2427 C2403 0.949 . S
H2428 C2405 0.950 . S
H2429 C2407 0.950 . S
C2430 C2431 1.349 . S
C2430 C2432 1.327 . S
C2430 H2455 0.950 . S
C2431 C2430 1.349 . S
C2431 C2447 1.349 . S
C2432 C2430 1.327 . S
C2432 C2451 1.429 . S
C2432 H2456 0.950 . S
C2433 C2450 1.574 . S
C2433 C2452 1.368 . S
C2433 H2457 0.949 . S
H2434 C2438 0.949 . S
C2435 C2436 1.349 . S
C2435 C2437 1.327 . S
C2435 H2458 0.950 . S
C2436 C2435 1.349 . S
C2436 C2448 1.349 . S
C2437 C2435 1.327 . S
C2437 C2453 1.429 . S
C2437 H2459 0.950 . S
C2438 H2434 0.949 . S
C2438 C2446 1.574 . S
C2438 C2454 1.368 . S
H2439 C2447 0.950 . S
H2440 C2445 0.950 . S
H2441 C2446 0.949 . S
H2442 C2448 0.950 . S
H2443 C2449 0.950 . S
H2444 C2450 0.949 . S
C2445 H2440 0.950 . S
C2445 C2447 1.327 . S
C2445 C2451 1.429 . S
C2446 C2438 1.574 . S
C2446 H2441 0.949 . S
C2446 C2452 1.368 . S
C2447 C2431 1.349 . S
C2447 H2439 0.950 . S
C2447 C2445 1.327 . S
C2448 C2436 1.349 . S
C2448 H2442 0.950 . S
C2448 C2449 1.327 . S
C2449 H2443 0.950 . S
C2449 C2448 1.327 . S
C2449 C2453 1.429 . S
C2450 C2433 1.574 . S
C2450 H2444 0.949 . S
C2450 C2454 1.368 . S
C2451 C2432 1.429 . S
C2451 C2445 1.429 . S
C2451 C2452 1.523 . S
C2452 C2433 1.368 . S
C2452 C2446 1.368 . S
C2452 C2451 1.523 . S
C2453 C2437 1.429 . S
C2453 C2449 1.429 . S
C2453 C2454 1.523 . S
C2454 C2438 1.368 . S
C2454 C2450 1.368 . S
C2454 C2453 1.523 . S
H2455 C2430 0.950 . S
H2456 C2432 0.950 . S
H2457 C2433 0.949 . S
H2458 C2435 0.950 . S
H2459 C2437 0.950 . S
C2460 C2461 1.349 . S
C2460 C2462 1.327 . S
C2460 H2485 0.950 . S
C2461 C2460 1.349 . S
C2461 C2477 1.349 . S
C2462 C2460 1.327 . S
C2462 C2481 1.429 . S
C2462 H2486 0.950 . S
C2463 C2480 1.574 . S
C2463 C2482 1.368 . S
C2463 H2487 0.949 . S
H2464 C2468 0.949 . S
C2465 C2466 1.349 . S
C2465 C2467 1.327 . S
C2465 H2488 0.950 . S
C2466 C2465 1.349 . S
C2466 C2478 1.349 . S
C2467 C2465 1.327 . S
C2467 C2483 1.429 . S
C2467 H2489 0.950 . S
C2468 H2464 0.949 . S
C2468 C2476 1.574 . S
C2468 C2484 1.368 . S
H2469 C2477 0.950 . S
H2470 C2475 0.950 . S
H2471 C2476 0.949 . S
H2472 C2478 0.950 . S
H2473 C2479 0.950 . S
H2474 C2480 0.949 . S
C2475 H2470 0.950 . S
C2475 C2477 1.327 . S
C2475 C2481 1.429 . S
C2476 C2468 1.574 . S
C2476 H2471 0.949 . S
C2476 C2482 1.368 . S
C2477 C2461 1.349 . S
C2477 H2469 0.950 . S
C2477 C2475 1.327 . S
C2478 C2466 1.349 . S
C2478 H2472 0.950 . S
C2478 C2479 1.327 . S
C2479 H2473 0.950 . S
C2479 C2478 1.327 . S
C2479 C2483 1.429 . S
C2480 C2463 1.574 . S
C2480 H2474 0.949 . S
C2480 C2484 1.368 . S
C2481 C2462 1.429 . S
C2481 C2475 1.429 . S
C2481 C2482 1.523 . S
C2482 C2463 1.368 . S
C2482 C2476 1.368 . S
C2482 C2481 1.523 . S
C2483 C2467 1.429 . S
C2483 C2479 1.429 . S
C2483 C2484 1.523 . S
C2484 C2468 1.368 . S
C2484 C2480 1.368 . S
C2484 C2483 1.523 . S
H2485 C2460 0.950 . S
H2486 C2462 0.950 . S
H2487 C2463 0.949 . S
H2488 C2465 0.950 . S
H2489 C2467 0.950 . S
C2490 C2491 1.349 . S
C2490 C2492 1.327 . S
C2490 H2515 0.950 . S
C2491 C2490 1.349 . S
C2491 C2507 1.349 . S
C2492 C2490 1.327 . S
C2492 C2511 1.429 . S
C2492 H2516 0.950 . S
C2493 C2510 1.574 . S
C2493 C2512 1.368 . S
C2493 H2517 0.949 . S
H2494 C2498 0.949 . S
C2495 C2496 1.349 . S
C2495 C2497 1.327 . S
C2495 H2518 0.950 . S
C2496 C2495 1.349 . S
C2496 C2508 1.349 . S
C2497 C2495 1.327 . S
C2497 C2513 1.429 . S
C2497 H2519 0.950 . S
C2498 H2494 0.949 . S
C2498 C2506 1.574 . S
C2498 C2514 1.368 . S
H2499 C2507 0.950 . S
H2500 C2505 0.950 . S
H2501 C2506 0.949 . S
H2502 C2508 0.950 . S
H2503 C2509 0.950 . S
H2504 C2510 0.949 . S
C2505 H2500 0.950 . S
C2505 C2507 1.327 . S
C2505 C2511 1.429 . S
C2506 C2498 1.574 . S
C2506 H2501 0.949 . S
C2506 C2512 1.368 . S
C2507 C2491 1.349 . S
C2507 H2499 0.950 . S
C2507 C2505 1.327 . S
C2508 C2496 1.349 . S
C2508 H2502 0.950 . S
C2508 C2509 1.327 . S
C2509 H2503 0.950 . S
C2509 C2508 1.327 . S
C2509 C2513 1.429 . S
C2510 C2493 1.574 . S
C2510 H2504 0.949 . S
C2510 C2514 1.368 . S
C2511 C2492 1.429 . S
C2511 C2505 1.429 . S
C2511 C2512 1.523 . S
C2512 C2493 1.368 . S
C2512 C2506 1.368 . S
C2512 C2511 1.523 . S
C2513 C2497 1.429 . S
C2513 C2509 1.429 . S
C2513 C2514 1.523 . S
C2514 C2498 1.368 . S
C2514 C2510 1.368 . S
C2514 C2513 1.523 . S
H2515 C2490 0.950 . S
H2516 C2492 0.950 . S
H2517 C2493 0.949 . S
H2518 C2495 0.950 . S
H2519 C2497 0.950 . S
C2520 C2521 1.349 . S
C2520 C2522 1.327 . S
C2520 H2545 0.950 . S
C2521 C2520 1.349 . S
C2521 C2537 1.349 . S
C2522 C2520 1.327 . S
C2522 C2541 1.429 . S
C2522 H2546 0.950 . S
C2523 C2540 1.574 . S
C2523 C2542 1.368 . S
C2523 H2547 0.949 . S
H2524 C2528 0.949 . S
C2525 C2526 1.349 . S
C2525 C2527 1.327 . S
C2525 H2548 0.950 . S
C2526 C2525 1.349 . S
C2526 C2538 1.349 . S
C2527 C2525 1.327 . S
C2527 C2543 1.429 . S
C2527 H2549 0.950 . S
C2528 H2524 0.949 . S
C2528 C2536 1.574 . S
C2528 C2544 1.368 . S
H2529 C2537 0.950 . S
H2530 C2535 0.950 . S
H2531 C2536 0.949 . S
H2532 C2538 0.950 . S
H2533 C2539 0.950 . S
H2534 C2540 0.949 . S
C2535 H2530 0.950 . S
C2535 C2537 1.327 . S
C2535 C2541 1.429 . S
C2536 C2528 1.574 . S
C2536 H2531 0.949 . S
C2536 C2542 1.368 . S
C2537 C2521 1.349 . S
C2537 H2529 0.950 . S
C2537 C2535 1.327 . S
C2538 C2526 1.349 . S
C2538 H2532 0.950 . S
C2538 C2539 1.327 . S
C2539 H2533 0.950 . S
C2539 C2538 1.327 . S
C2539 C2543 1.429 . S
C2540 C2523 1.574 . S
C2540 H2534 0.949 . S
C2540 C2544 1.368 . S
C2541 C2522 1.429 . S
C2541 C2535 1.429 . S
C2541 C2542 1.523 . S
C2542 C2523 1.368 . S
C2542 C2536 1.368 . S
C2542 C2541 1.523 . S
C2543 C2527 1.429 . S
C2543 C2539 1.429 . S
C2543 C2544 1.523 . S
C2544 C2528 1.368 . S
C2544 C2540 1.368 . S
C2544 C2543 1.523 . S
H2545 C2520 0.950 . S
H2546 C2522 0.950 . S
H2547 C2523 0.949 . S
H2548 C2525 0.950 . S
H2549 C2527 0.950 . S
C2550 C2551 1.349 . S
C2550 C2552 1.327 . S
C2550 H2575 0.950 . S
C2551 C2550 1.349 . S
C2551 C2567 1.349 . S
C2552 C2550 1.327 . S
C2552 C2571 1.429 . S
C2552 H2576 0.950 . S
C2553 C2570 1.574 . S
C2553 C2572 1.368 . S
C2553 H2577 0.949 . S
H2554 C2558 0.949 . S
C2555 C2556 1.349 . S
C2555 C2557 1.327 . S
C2555 H2578 0.950 . S
C2556 C2555 1.349 . S
C2556 C2568 1.349 . S
C2557 C2555 1.327 . S
C2557 C2573 1.429 . S
C2557 H2579 0.950 . S
C2558 H2554 0.949 . S
C2558 C2566 1.574 . S
C2558 C2574 1.368 . S
H2559 C2567 0.950 . S
H2560 C2565 0.950 . S
H2561 C2566 0.949 . S
H2562 C2568 0.950 . S
H2563 C2569 0.950 . S
H2564 C2570 0.949 . S
C2565 H2560 0.950 . S
C2565 C2567 1.327 . S
C2565 C2571 1.429 . S
C2566 C2558 1.574 . S
C2566 H2561 0.949 . S
C2566 C2572 1.368 . S
C2567 C2551 1.349 . S
C2567 H2559 0.950 . S
C2567 C2565 1.327 . S
C2568 C2556 1.349 . S
C2568 H2562 0.950 . S
C2568 C2569 1.327 . S
C2569 H2563 0.950 . S
C2569 C2568 1.327 . S
C2569 C2573 1.429 . S
C2570 C2553 1.574 . S
C2570 H2564 0.949 . S
C2570 C2574 1.368 . S
C2571 C2552 1.429 . S
C2571 C2565 1.429 . S
C2571 C2572 1.523 . S
C2572 C2553 1.368 . S
C2572 C2566 1.368 . S
C2572 C2571 1.523 . S
C2573 C2557 1.429 . S
C2573 C2569 1.429 . S
C2573 C2574 1.523 . S
C2574 C2558 1.368 . S
C2574 C2570 1.368 . S
C2574 C2573 1.523 . S
H2575 C2550 0.950 . S
H2576 C2552 0.950 . S
H2577 C2553 0.949 . S
H2578 C2555 0.950 . S
H2579 C2557 0.950 . S
C2580 C2581 1.349 . S
C2580 C2582 1.327 . S
C2580 H2605 0.950 . S
C2581 C2580 1.349 . S
C2581 C2597 1.349 . S
C2582 C2580 1.327 . S
C2582 C2601 1.429 . S
C2582 H2606 0.950 . S
C2583 C2600 1.574 . S
C2583 C2602 1.368 . S
C2583 H2607 0.949 . S
H2584 C2588 0.949 . S
C2585 C2586 1.349 . S
C2585 C2587 1.327 . S
C2585 H2608 0.950 . S
C2586 C2585 1.349 . S
C2586 C2598 1.349 . S
C2587 C2585 1.327 . S
C2587 C2603 1.429 . S
C2587 H2609 0.950 . S
C2588 H2584 0.949 . S
C2588 C2596 1.574 . S
C2588 C2604 1.368 . S
H2589 C2597 0.950 . S
H2590 C2595 0.950 . S
H2591 C2596 0.949 . S
H2592 C2598 0.950 . S
H2593 C2599 0.950 . S
H2594 C2600 0.949 . S
C2595 H2590 0.950 . S
C2595 C2597 1.327 . S
C2595 C2601 1.429 . S
C2596 C2588 1.574 . S
C2596 H2591 0.949 . S
C2596 C2602 1.368 . S
C2597 C2581 1.349 . S
C2597 H2589 0.950 . S
C2597 C2595 1.327 . S
C2598 C2586 1.349 . S
C2598 H2592 0.950 . S
C2598 C2599 1.327 . S
C2599 H2593 0.950 . S
C2599 C2598 1.327 . S
C2599 C2603 1.429 . S
C2600 C2583 1.574 . S
C2600 H2594 0.949 . S
C2600 C2604 1.368 . S
C2601 C2582 1.429 . S
C2601 C2595 1.429 . S
C2601 C2602 1.523 . S
C2602 C2583 1.368 . S
C2602 C2596 1.368 . S
C2602 C2601 1.523 . S
C2603 C2587 1.429 . S
C2603 C2599 1.429 . S
C2603 C2604 1.523 . S
C2604 C2588 1.368 . S
C2604 C2600 1.368 . S
C2604 C2603 1.523 . S
H2605 C2580 0.950 . S
H2606 C2582 0.950 . S
H2607 C2583 0.949 . S
H2608 C2585 0.950 . S
H2609 C2587 0.950 . S
C2610 C2611 1.349 . S
C2610 C2612 1.327 . S
C2610 H2635 0.950 . S
C2611 C2610 1.349 . S
C2611 C2627 1.349 . S
C2612 C2610 1.327 . S
C2612 C2631 1.429 . S
C2612 H2636 0.950 . S
C2613 C2630 1.574 . S
C2613 C2632 1.368 . S
C2613 H2637 0.949 . S
H2614 C2618 0.949 . S
C2615 C2616 1.349 . S
C2615 C2617 1.327 . S
C2615 H2638 0.950 . S
C2616 C2615 1.349 . S
C2616 C2628 1.349 . S
C2617 C2615 1.327 . S
C2617 C2633 1.429 . S
C2617 H2639 0.950 . S
C2618 H2614 0.949 . S
C2618 C2626 1.574 . S
C2618 C2634 1.368 . S
H2619 C2627 0.950 . S
H2620 C2625 0.950 . S
H2621 C2626 0.949 . S
H2622 C2628 0.950 . S
H2623 C2629 0.950 . S
H2624 C2630 0.949 . S
C2625 H2620 0.950 . S
C2625 C2627 1.327 . S
C2625 C2631 1.429 . S
C2626 C2618 1.574 . S
C2626 H2621 0.949 . S
C2626 C2632 1.368 . S
C2627 C2611 1.349 . S
C2627 H2619 0.950 . S
C2627 C2625 1.327 . S
C2628 C2616 1.349 . S
C2628 H2622 0.950 . S
C2628 C2629 1.327 . S
C2629 H2623 0.950 . S
C2629 C2628 1.327 . S
C2629 C2633 1.429 . S
C2630 C2613 1.574 . S
C2630 H2624 0.949 . S
C2630 C2634 1.368 . S
C2631 C2612 1.429 . S
C2631 C2625 1.429 . S
C2631 C2632 1.523 . S
C2632 C2613 1.368 . S
C2632 C2626 1.368 . S
C2632 C2631 1.523 . S
C2633 C2617 1.429 . S
C2633 C2629 1.429 . S
C2633 C2634 1.523 . S
C2634 C2618 1.368 . S
C2634 C2630 1.368 . S
C2634 C2633 1.523 . S
H2635 C2610 0.950 . S
H2636 C2612 0.950 . S
H2637 C2613 0.949 . S
H2638 C2615 0.950 . S
H2639 C2617 0.950 . S
C2640 C2641 1.349 . S
C2640 C2642 1.327 . S
C2640 H2665 0.950 . S
C2641 C2640 1.349 . S
C2641 C2657 1.349 . S
C2642 C2640 1.327 . S
C2642 C2661 1.429 . S
C2642 H2666 0.950 . S
C2643 C2660 1.574 . S
C2643 C2662 1.368 . S
C2643 H2667 0.949 . S
H2644 C2648 0.949 . S
C2645 C2646 1.349 . S
C2645 C2647 1.327 . S
C2645 H2668 0.950 . S
C2646 C2645 1.349 . S
C2646 C2658 1.349 . S
C2647 C2645 1.327 . S
C2647 C2663 1.429 . S
C2647 H2669 0.950 . S
C2648 H2644 0.949 . S
C2648 C2656 1.574 . S
C2648 C2664 1.368 . S
H2649 C2657 0.950 . S
H2650 C2655 0.950 . S
H2651 C2656 0.949 . S
H2652 C2658 0.950 . S
H2653 C2659 0.950 . S
H2654 C2660 0.949 . S
C2655 H2650 0.950 . S
C2655 C2657 1.327 . S
C2655 C2661 1.429 . S
C2656 C2648 1.574 . S
C2656 H2651 0.949 . S
C2656 C2662 1.368 . S
C2657 C2641 1.349 . S
C2657 H2649 0.950 . S
C2657 C2655 1.327 . S
C2658 C2646 1.349 . S
C2658 H2652 0.950 . S
C2658 C2659 1.327 . S
C2659 H2653 0.950 . S
C2659 C2658 1.327 . S
C2659 C2663 1.429 . S
C2660 C2643 1.574 . S
C2660 H2654 0.949 . S
C2660 C2664 1.368 . S
C2661 C2642 1.429 . S
C2661 C2655 1.429 . S
C2661 C2662 1.523 . S
C2662 C2643 1.368 . S
C2662 C2656 1.368 . S
C2662 C2661 1.523 . S
C2663 C2647 1.429 . S
C2663 C2659 1.429 . S
C2663 C2664 1.523 . S
C2664 C2648 1.368 . S
C2664 C2660 1.368 . S
C2664 C2663 1.523 . S
H2665 C2640 0.950 . S
H2666 C2642 0.950 . S
H2667 C2643 0.949 . S
H2668 C2645 0.950 . S
H2669 C2647 0.950 . S
C2670 C2671 1.349 . S
C2670 C2672 1.327 . S
C2670 H2695 0.950 . S
C2671 C2670 1.349 . S
C2671 C2687 1.349 . S
C2672 C2670 1.327 . S
C2672 C2691 1.429 . S
C2672 H2696 0.950 . S
C2673 C2690 1.574 . S
C2673 C2692 1.368 . S
C2673 H2697 0.949 . S
H2674 C2678 0.949 . S
C2675 C2676 1.349 . S
C2675 C2677 1.327 . S
C2675 H2698 0.950 . S
C2676 C2675 1.349 . S
C2676 C2688 1.349 . S
C2677 C2675 1.327 . S
C2677 C2693 1.429 . S
C2677 H2699 0.950 . S
C2678 H2674 0.949 . S
C2678 C2686 1.574 . S
C2678 C2694 1.368 . S
H2679 C2687 0.950 . S
H2680 C2685 0.950 . S
H2681 C2686 0.949 . S
H2682 C2688 0.950 . S
H2683 C2689 0.950 . S
H2684 C2690 0.949 . S
C2685 H2680 0.950 . S
C2685 C2687 1.327 . S
C2685 C2691 1.429 . S
C2686 C2678 1.574 . S
C2686 H2681 0.949 . S
C2686 C2692 1.368 . S
C2687 C2671 1.349 . S
C2687 H2679 0.950 . S
C2687 C2685 1.327 . S
C2688 C2676 1.349 . S
C2688 H2682 0.950 . S
C2688 C2689 1.327 . S
C2689 H2683 0.950 . S
C2689 C2688 1.327 . S
C2689 C2693 1.429 . S
C2690 C2673 1.574 . S
C2690 H2684 0.949 . S
C2690 C2694 1.368 . S
C2691 C2672 1.429 . S
C2691 C2685 1.429 . S
C2691 C2692 1.523 . S
C2692 C2673 1.368 . S
C2692 C2686 1.368 . S
C2692 C2691 1.523 . S
C2693 C2677 1.429 . S
C2693 C2689 1.429 . S
C2693 C2694 1.523 . S
C2694 C2678 1.368 . S
C2694 C2690 1.368 . S
C2694 C2693 1.523 . S
H2695 C2670 0.950 . S
H2696 C2672 0.950 . S
H2697 C2673 0.949 . S
H2698 C2675 0.950 . S
H2699 C2677 0.950 . S
C1081 C522 1.707 . S
C1086 C729 1.668 . S
C1111 C562 1.840 . S
C1116 C769 1.806 . S
C1141 C495 1.775 . S
C1146 C808 1.780 . S
C1171 C455 1.571 . S
C1176 C768 1.585 . S
C1206 C809 1.425 . S
C1201 C362 1.443 . S
C1231 C402 1.414 . S
C1236 C728 1.399 1_556 S
C1266 C739 1.696 . S
C1261 C442 1.662 . S
C1296 C779 1.776 . S
C1291 C375 1.801 . S
C1321 C415 1.785 . S
C1326 C818 1.782 . S
C1351 C535 1.577 . S
C1356 C778 1.561 . S
C1381 C575 1.410 . S
C1386 C819 1.393 . S
C1416 C738 1.430 . S
C1411 C482 1.369 . S
C1446 C849 1.667 . S
C1441 C42 1.706 . S
C1471 C82 1.841 . S
C1476 C889 1.807 . S
C1501 C15 1.774 . S
C1506 C928 1.779 . S
C1531 C695 1.571 . S
C1536 C888 1.561 . S
C1561 C602 1.443 . S
C1566 C929 1.425 . S
C1591 C642 1.414 . S
C1596 C848 1.399 . S
C1621 C682 1.662 . S
C1626 C859 1.696 . S
C1651 C615 1.801 . S
C1656 C899 1.776 . S
C1686 C938 1.782 . S
C1681 C655 1.785 . S
C1711 C55 1.577 . S
C1716 C898 1.561 . S
C1746 C939 1.393 . S
C1741 C95 1.410 . S
C1771 C2 1.369 . S
C1776 C858 1.430 . S
C1806 C969 1.668 . S
C1801 C282 1.707 . S
C1831 C322 1.841 . S
C1836 C1009 1.807 . S
C1866 C1048 1.780 . S
C1861 C255 1.775 . S
C1896 C1008 1.560 . S
C1891 C215 1.570 . S
C1926 C1049 1.425 . S
C1921 C122 1.443 . S
C1951 C162 1.414 . S
C1956 C968 1.399 . S
C1981 C202 1.662 . S
C1986 C979 1.696 . S
C2011 C135 1.801 . S
C2016 C1019 1.776 . S
C2046 C1058 1.781 . S
C2041 C175 1.785 . S
C2071 C295 1.577 . S
C2076 C1018 1.561 . S
C2101 C335 1.410 . S
C2106 C1059 1.393 . S
C2131 C242 1.369 . S
C2136 C978 1.430 . S
C2161 C621 1.225 . S
C2166 C725 1.225 . S
C2196 C765 1.950 . S
C2191 C661 1.956 . S
C2221 C701 1.580 . S
C2226 C815 1.629 . S
C2251 C261 1.903 . S
C2256 C775 1.973 . S
C2281 C301 1.603 . S
C2286 C805 1.604 . S
C2316 C735 1.219 . S
C2311 C341 1.219 . S
C2341 C141 1.225 . S
C2346 C845 1.225 . S
C2371 C181 1.957 . S
C2376 C885 1.951 . S
C2401 C221 1.580 . S
C2406 C935 1.629 . S
C2431 C501 1.902 . S
C2436 C895 1.973 . S
C2466 C925 1.604 . S
C2461 C541 1.603 . S
C2491 C581 1.219 . S
C2496 C855 1.219 . S
C2521 C381 1.225 . S
C2526 C965 1.225 . S
C2551 C421 1.957 . S
C2556 C1005 1.951 . S
C2586 C1055 1.629 . S
C2581 C461 1.580 . S
C2611 C21 1.902 . S
C2616 C1015 1.973 . S
C2641 C61 1.603 . S
C2646 C1045 1.604 . S
C2671 C101 1.219 . S
C2676 C975 1.219 . S
