# Generated by pormake.
# Topology nia, (6,6)-cn, num edge types: 1
# Building blocks:
#     Node 0, Type 0, BuildingBlock: KUMBOL_clean_sbu_1, # of connection points: 6
#     Node 1, Type 0, BuildingBlock: KUMBOL_clean_sbu_1, # of connection points: 6
#     Node 2, Type 1, BuildingBlock: MIDCAF_clean_sbu_0, # of connection points: 6
#     Node 3, Type 1, BuildingBlock: MIDCAF_clean_sbu_0, # of connection points: 6
#     Edge 4, Type (0, 1), BuildingBlock: ZUJKAS_clean_linker_0, # of connection points: 2
#     Edge 5, Type (0, 1), BuildingBlock: ZUJKAS_clean_linker_0, # of connection points: 2
#     Edge 6, Type (0, 1), BuildingBlock: ZUJKAS_clean_linker_0, # of connection points: 2
#     Edge 7, Type (0, 1), BuildingBlock: ZUJKAS_clean_linker_0, # of connection points: 2
#     Edge 8, Type (0, 1), BuildingBlock: ZUJKAS_clean_linker_0, # of connection points: 2
#     Edge 9, Type (0, 1), BuildingBlock: ZUJKAS_clean_linker_0, # of connection points: 2
#     Edge 10, Type (0, 1), BuildingBlock: ZUJKAS_clean_linker_0, # of connection points: 2
#     Edge 11, Type (0, 1), BuildingBlock: ZUJKAS_clean_linker_0, # of connection points: 2
#     Edge 12, Type (0, 1), BuildingBlock: ZUJKAS_clean_linker_0, # of connection points: 2
#     Edge 13, Type (0, 1), BuildingBlock: ZUJKAS_clean_linker_0, # of connection points: 2
#     Edge 14, Type (0, 1), BuildingBlock: ZUJKAS_clean_linker_0, # of connection points: 2
#     Edge 15, Type (0, 1), BuildingBlock: ZUJKAS_clean_linker_0, # of connection points: 2
# Relax obj value: 0.166
# Max RMSD: 0.273
# Mean RMSD: 0.198
data_MOF--net-nia--node1-KUMBOL_clean_sbu_1--node2-MIDCAF_clean_sbu_0--edge1-ZUJKAS_clean_linker_0
_symmetry_space_group_name_H-M    P1
_symmetry_Int_Tables_number       1
_symmetry_cell_setting            triclinic
loop_
_symmetry_equiv_pos_as_xyz
'x, y, z'
_cell_length_a     35.287208
_cell_length_b     35.261302
_cell_length_c     40.477103
_cell_angle_alpha  90.139613
_cell_angle_beta   90.136059
_cell_angle_gamma 133.98492
loop_
_atom_site_label
_atom_site_type_symbol
_atom_site_fract_x
_atom_site_fract_y
_atom_site_fract_z
_atom_type_partial_charge
C0 C 0.91477 0.93577 0.91265 0.0
C1 C 0.82289 0.87315 0.92839 0.0
C2 C 0.87594 0.91973 0.93463 0.0
C3 C 0.81003 0.84203 0.90062 0.0
C4 C 0.90183 0.906 0.88395 0.0
C5 C 0.84935 0.85859 0.87833 0.0
N6 N 0.96522 0.98142 0.91894 0.0
C7 C 0.00403 0.00193 0.89641 0.0
C8 C 0.94192 0.92543 0.86144 0.0
C9 C 0.99315 0.97387 0.86756 0.0
Gd10 Gd 0.03393 0.99185 0.03911 0.0
Gd11 Gd 0.98065 0.02613 0.96783 0.0
N12 N 0.88957 0.95134 0.96088 0.0
C13 C 0.78409 0.86033 0.9495 0.0
C14 C 0.85129 0.94146 0.97954 0.0
C15 C 0.79829 0.8952 0.9748 0.0
H16 H 0.86109 0.96942 0.99789 0.0
H17 H 0.76835 0.88696 0.99029 0.0
H18 H 0.16361 0.09165 0.03513 0.0
H19 H 0.04352 0.03946 0.9012 0.0
H20 H 0.23706 0.16574 0.07051 0.0
H21 H 0.74292 0.82487 0.9456 0.0
H22 H 0.76954 0.80595 0.89558 0.0
H23 H 0.93263 0.90742 0.09112 0.0
H24 H 0.93357 0.90396 0.83896 0.0
H25 H 0.02418 0.98963 0.85003 0.0
H26 H 0.1529 0.14341 0.17174 0.0
H27 H 0.83851 0.83503 0.85647 0.0
H28 H 0.96958 0.98736 0.18295 0.0
H29 H 0.90638 0.90887 0.14719 0.0
N30 N 0.00649 0.98713 0.09316 0.0
C31 C 0.04306 0.02909 0.11313 0.0
C32 C 0.95915 0.9431 0.1057 0.0
C33 C 0.98045 0.9877 0.15786 0.0
C34 C 0.94466 0.94333 0.13776 0.0
C35 C 0.03104 0.03052 0.14606 0.0
H36 H 0.06205 0.07495 0.19196 0.0
N37 N 0.10481 0.06415 0.07038 0.0
C38 C 0.09407 0.06828 0.10161 0.0
C39 C 0.18639 0.14548 0.11107 0.0
C40 C 0.13455 0.10944 0.12274 0.0
C41 C 0.15551 0.09718 0.05947 0.0
C42 C 0.19699 0.13887 0.07945 0.0
O43 O 0.9932 0.97186 0.96058 0.0
O44 O 0.96388 0.92548 0.00829 0.0
O45 O 0.06833 0.96288 0.02217 0.0
O46 O 0.04341 0.95118 0.0729 0.0
O47 O 0.94383 0.00534 0.01851 0.0
O48 O 0.94681 0.94582 0.03725 0.0
O49 O 0.07008 0.07555 0.03316 0.0
O50 O 0.00251 0.06769 0.01692 0.0
O51 O 0.94347 0.04867 0.94401 0.0
O52 O 0.02773 0.09991 0.9414 0.0
O53 O 0.08293 0.02812 0.99245 0.0
O54 O 0.06822 0.07623 0.96705 0.0
C55 C 0.96612 0.92707 0.976 0.0
C56 C 0.92678 0.96627 0.03793 0.0
C57 C 0.04079 0.88824 0.04984 0.0
C58 C 0.04508 0.82641 0.07053 0.0
C59 C 0.97937 0.79831 0.0293 0.0
C60 C -0.00177 0.84866 0.02936 0.0
C61 C 0.00271 0.78718 0.04964 0.0
C62 C 0.06378 0.8769 0.07043 0.0
C63 C 0.06219 0.94172 0.05045 0.0
C64 C 0.12234 0.11211 0.15512 0.0
C65 C 0.07059 0.07305 0.16665 0.0
H66 H 0.21858 0.17765 0.12657 0.0
C67 C 0.04472 0.09034 0.03498 0.0
C68 C 0.09546 0.06366 0.97111 0.0
C69 C 0.99519 0.13978 0.94133 0.0
C70 C 0.98239 0.19635 0.9238 0.0
C71 C 0.02668 0.2132 0.9759 0.0
C72 C 0.02022 0.1699 0.97029 0.0
C73 C 0.00795 0.22646 0.95286 0.0
C74 C 0.97646 0.15309 0.91823 0.0
C75 C 0.98794 0.09417 0.93471 0.0
H76 H 0.94661 0.76785 0.01341 0.0
H77 H 0.9798 0.85668 0.01347 0.0
H78 H 0.98737 0.74786 0.04928 0.0
H79 H 0.097 0.90784 0.08596 0.0
H80 H 0.0459 0.23632 0.9983 0.0
H81 H 0.03471 0.15999 0.98848 0.0
H82 H 0.01244 0.25953 0.95813 0.0
H83 H 0.95742 0.12977 0.89582 0.0
C84 C 0.07241 0.10831 0.59206 0.0
C85 C 0.12805 0.19774 0.57227 0.0
C86 C 0.0844 0.14309 0.56804 0.0
C87 C 0.161 0.21634 0.60001 0.0
C88 C 0.10358 0.1269 0.62085 0.0
C89 C 0.14867 0.181 0.62432 0.0
N90 N 0.02851 0.05636 0.58801 0.0
C91 C 0.01072 0.02134 0.61289 0.0
C92 C 0.08746 0.09073 0.64569 0.0
C93 C 0.04039 0.03784 0.6419 0.0
Gd94 Gd 0.0236 0.97924 0.47085 0.0
Gd95 Gd 0.98247 0.03115 0.53802 0.0
N96 N 0.05091 0.12385 0.54198 0.0
C97 C 0.13582 0.23219 0.54931 0.0
C98 C 0.05546 0.1576 0.52151 0.0
C99 C 0.0987 0.21205 0.52423 0.0
H100 H 0.02579 0.14278 0.50297 0.0
H101 H 0.10297 0.23847 0.50725 0.0
H102 H 0.92861 0.84857 0.47434 0.0
H103 H 0.97445 0.98043 0.60977 0.0
H104 H 0.85182 0.77422 0.44071 0.0
H105 H 0.1689 0.27443 0.55163 0.0
H106 H 0.195 0.25814 0.60351 0.0
H107 H 0.10336 0.0799 0.41692 0.0
H108 H 0.11031 0.10344 0.6682 0.0
H109 H 0.02703 0.0098 0.66124 0.0
H110 H 0.85856 0.85797 0.34418 0.0
H111 H 0.17334 0.19613 0.64617 0.0
H112 H 0.01347 0.04127 0.32967 0.0
H113 H 0.09591 0.10484 0.36214 0.0
N114 N 0.02383 0.00541 0.4172 0.0
C115 C 0.98018 0.96833 0.39855 0.0
C116 C 0.06644 0.05259 0.40357 0.0
C117 C 0.01609 0.03059 0.35405 0.0
C118 C 0.0627 0.06656 0.37228 0.0
C119 C 0.97475 0.98007 0.36663 0.0
H120 H 0.92431 0.94887 0.32336 0.0
N121 N 0.95099 0.90686 0.44035 0.0
C122 C 0.94313 0.91719 0.41019 0.0
C123 C 0.86614 0.82449 0.4018 0.0
C124 C 0.8998 0.8764 0.39035 0.0
C125 C 0.92026 0.8562 0.45089 0.0
C126 C 0.87696 0.81428 0.43197 0.0
O127 O 0.04031 0.02456 0.55006 0.0
O128 O 0.08743 0.04964 0.50265 0.0
O129 O 0.05589 0.94759 0.48662 0.0
O130 O 0.06516 0.97209 0.43612 0.0
O131 O 0.00391 0.06383 0.48606 0.0
O132 O 0.06861 0.06612 0.47225 0.0
O133 O 0.93869 0.93788 0.47951 0.0
O134 O 0.9436 0.00509 0.48796 0.0
O135 O 0.95369 0.06302 0.56076 0.0
O136 O 0.9039 0.97885 0.55862 0.0
O137 O 0.99114 0.93306 0.51858 0.0
O138 O 0.94289 0.94671 0.54589 0.0
C139 C 0.08472 0.04829 0.535 0.0
C140 C 0.04706 0.08493 0.47004 0.0
C141 C 0.1313 0.97893 0.45796 0.0
C142 C 0.19597 0.97933 0.43625 0.0
C143 C 0.22202 0.04514 0.47675 0.0
C144 C 0.17045 0.02311 0.47759 0.0
C145 C 0.23481 0.02338 0.45629 0.0
C146 C 0.14422 0.9574 0.43733 0.0
C147 C 0.07679 0.95473 0.45806 0.0
C148 C 0.89225 0.88857 0.35951 0.0
C149 C 0.92961 0.94038 0.34771 0.0
H150 H 0.83244 0.79201 0.38727 0.0
C151 C 0.92073 0.95973 0.47431 0.0
C152 C 0.95754 0.92122 0.54141 0.0
C153 C 0.8627 0.01019 0.55487 0.0
C154 C 0.80959 0.0302 0.56314 0.0
C155 C 0.79178 0.97573 0.51661 0.0
C156 C 0.83304 0.98076 0.52649 0.0
C157 C 0.78002 0.00022 0.53477 0.0
C158 C 0.85089 0.03478 0.57301 0.0
C159 C 0.90686 0.01686 0.56567 0.0
H160 H 0.25216 0.07918 0.49198 0.0
H161 H 0.16114 0.04041 0.49347 0.0
H162 H 0.27507 0.04124 0.45589 0.0
H163 H 0.11358 0.92291 0.42248 0.0
H164 H 0.76889 0.95285 0.49478 0.0
H165 H 0.84175 0.96178 0.51195 0.0
H166 H 0.74758 0.99538 0.52671 0.0
H167 H 0.87472 0.05844 0.59447 0.0
Zn168 Zn 0.33854 0.647 0.19002 0.0
Zn169 Zn 0.36395 0.67382 0.31895 0.0
Zn170 Zn 0.35318 0.65863 0.25463 0.0
C171 C 0.4637 0.72723 0.29392 0.0
C172 C 0.29657 0.56521 0.30818 0.0
O173 O 0.31825 0.68895 0.23727 0.0
O174 O 0.30594 0.67442 0.18327 0.0
C175 C 0.44601 0.70982 0.20163 0.0
O176 O 0.43805 0.70867 0.26634 0.0
O177 O 0.4403 0.7177 0.32069 0.0
O178 O 0.31569 0.59861 0.33115 0.0
O179 O 0.30651 0.58014 0.27776 0.0
O180 O 0.41291 0.68995 0.1784 0.0
O181 O 0.43134 0.70302 0.23194 0.0
O182 O 0.29941 0.57312 0.24307 0.0
O183 O 0.29179 0.57033 0.18851 0.0
C184 C 0.28048 0.54709 0.21561 0.0
O185 O 0.32617 0.69719 0.27121 0.0
O186 O 0.3413 0.7108 0.32509 0.0
C187 C 0.30217 0.6912 0.20934 0.0
C188 C 0.32534 0.71504 0.2988 0.0
Zn189 Zn 0.65901 0.33985 0.8189 0.0
Zn190 Zn 0.65999 0.35875 0.68892 0.0
Zn191 Zn 0.65902 0.3526 0.7543 0.0
C192 C 0.71398 0.45909 0.71486 0.0
C193 C 0.55499 0.28923 0.70899 0.0
O194 O 0.69402 0.32041 0.76585 0.0
O195 O 0.68403 0.30466 0.81959 0.0
C196 C 0.72536 0.44864 0.8062 0.0
O197 O 0.70655 0.43634 0.74228 0.0
O198 O 0.6961 0.43346 0.68805 0.0
O199 O 0.58238 0.30521 0.68322 0.0
O200 O 0.57677 0.30411 0.7378 0.0
O201 O 0.71085 0.41675 0.82914 0.0
O202 O 0.7089 0.43194 0.77638 0.0
O203 O 0.57739 0.30279 0.77236 0.0
O204 O 0.58311 0.29581 0.8261 0.0
C205 C 0.55581 0.2852 0.80101 0.0
O206 O 0.68915 0.32054 0.73125 0.0
O207 O 0.6987 0.3385 0.67784 0.0
C208 C 0.69953 0.30357 0.7919 0.0
C209 C 0.7029 0.31917 0.70209 0.0
H210 H 0.0742 0.85363 0.13545 0.0
H211 H 0.12196 0.84051 0.16943 0.0
H212 H 0.12203 0.76189 0.08772 0.0
H213 H 0.07472 0.77517 0.05355 0.0
H214 H 0.09159 0.74018 0.18425 0.0
H215 H 0.28064 0.88494 0.11713 0.0
H216 H 0.22971 0.88532 0.11537 0.0
H217 H 0.22396 0.8389 0.09093 0.0
C218 C 0.0845 0.83362 0.12475 0.0
C219 C 0.07096 0.81561 0.09179 0.0
C220 C 0.11157 0.82604 0.1442 0.0
C221 C 0.12607 0.80094 0.13087 0.0
C222 C 0.11169 0.78197 0.09826 0.0
H223 H 0.20558 0.63737 0.18475 0.0
H224 H 0.16419 0.67 0.1743 0.0
C225 C 0.08428 0.78914 0.07888 0.0
C226 C 0.15609 0.79414 0.15088 0.0
H227 H 0.27076 0.82346 0.15147 0.0
C228 C 0.13111 0.75903 0.17752 0.0
C229 C 0.208 0.81964 0.14244 0.0
C230 C 0.23749 0.85973 0.1151 0.0
C231 C 0.15544 0.74588 0.19442 0.0
C232 C 0.20569 0.76824 0.18422 0.0
C233 C 0.23213 0.80622 0.15917 0.0
C234 C 0.22799 0.74722 0.19551 0.0
C235 C 0.12654 0.70685 0.22232 0.0
C236 C 0.27765 0.77989 0.21095 0.0
C237 C 0.30131 0.76109 0.21706 0.0
C238 C 0.2757 0.70975 0.20739 0.0
C239 C 0.22571 0.67696 0.19263 0.0
C240 C 0.20194 0.69542 0.1869 0.0
H241 H 0.09744 0.70613 0.23374 0.0
H242 H 0.10484 0.66679 0.21255 0.0
H243 H 0.15439 0.71626 0.24167 0.0
H244 H 0.29858 0.82019 0.21744 0.0
H245 H 0.34022 0.78711 0.22814 0.0
H246 H 0.08382 0.00971 0.59316 0.0
H247 H 0.15893 0.04562 0.62829 0.0
H248 H 0.26423 0.16915 0.5575 0.0
H249 H 0.18876 0.13263 0.52192 0.0
H250 H 0.30009 0.12669 0.57913 0.0
H251 H 0.24221 0.17446 0.68663 0.0
H252 H 0.19247 0.10645 0.6744 0.0
H253 H 0.21088 0.15671 0.6467 0.0
C254 C 0.12299 0.04478 0.58523 0.0
C255 C 0.13062 0.0689 0.55508 0.0
C256 C 0.16584 0.06536 0.60538 0.0
C257 C 0.2171 0.11082 0.59594 0.0
C258 C 0.22492 0.13427 0.56539 0.0
H259 H 0.50559 0.32245 0.70671 0.0
H260 H 0.41811 0.2736 0.68303 0.0
C261 C 0.18196 0.11339 0.54506 0.0
C262 C 0.26267 0.13309 0.61751 0.0
H263 H 0.31402 0.18197 0.69494 0.0
C264 C 0.30315 0.13879 0.60444 0.0
C265 C 0.26676 0.14925 0.65048 0.0
C266 C 0.22603 0.14693 0.66534 0.0
C267 C 0.34768 0.16028 0.62335 0.0
C268 C 0.35116 0.17518 0.65659 0.0
C269 C 0.31075 0.16959 0.66968 0.0
C270 C 0.39861 0.20065 0.67705 0.0
C271 C 0.39139 0.16845 0.60715 0.0
C272 C 0.41529 0.17493 0.68329 0.0
C273 C 0.46523 0.20287 0.69677 0.0
C274 C 0.49841 0.25638 0.70482 0.0
C275 C 0.48004 0.28087 0.70117 0.0
C276 C 0.4303 0.25309 0.68751 0.0
H277 H 0.38808 0.16657 0.57977 0.0
H278 H 0.43056 0.20715 0.61431 0.0
H279 H 0.38938 0.13706 0.61526 0.0
H280 H 0.39098 0.13419 0.67596 0.0
H281 H 0.47918 0.18364 0.69899 0.0
H282 H 0.14401 0.17031 0.05958 0.0
H283 H 0.17239 0.23673 0.10076 0.0
H284 H 0.01547 0.17436 0.10279 0.0
H285 H 0.98678 0.10726 0.06205 0.0
H286 H 0.09501 0.2837 0.09587 0.0
H287 H 0.13962 0.21821 0.20029 0.0
H288 H 0.1686 0.22433 0.16176 0.0
H289 H 0.09803 0.17589 0.16584 0.0
C290 C 0.11531 0.16993 0.06943 0.0
C291 C 0.0628 0.13241 0.05846 0.0
C292 C 0.13155 0.20797 0.09288 0.0
C293 C 0.09564 0.20951 0.10554 0.0
C294 C 0.04357 0.17325 0.09378 0.0
H295 H 0.17444 0.46718 0.22293 0.0
H296 H 0.12025 0.37635 0.20268 0.0
C297 C 0.02729 0.13503 0.07045 0.0
C298 C 0.11345 0.25117 0.12943 0.0
H299 H 0.17453 0.3053 0.20418 0.0
C300 C 0.11153 0.28798 0.11981 0.0
C301 C 0.13471 0.25639 0.1607 0.0
C302 C 0.13501 0.21634 0.173 0.0
C303 C 0.13319 0.3317 0.13979 0.0
C304 C 0.1565 0.33812 0.17049 0.0
C305 C 0.15645 0.30012 0.18072 0.0
C306 C 0.18693 0.38738 0.18997 0.0
C307 C 0.13367 0.37224 0.12704 0.0
C308 C 0.24192 0.42219 0.19147 0.0
C309 C 0.27256 0.47351 0.20317 0.0
C310 C 0.24858 0.49041 0.21402 0.0
C311 C 0.19349 0.45442 0.21517 0.0
C312 C 0.16271 0.40292 0.20333 0.0
H313 H 0.12156 0.3655 0.10067 0.0
H314 H 0.10596 0.37045 0.14173 0.0
H315 H 0.17358 0.41255 0.12971 0.0
H316 H 0.26133 0.41095 0.18127 0.0
H317 H 0.31507 0.50111 0.20159 0.0
H318 H 0.78488 0.0831 0.53865 0.0
H319 H 0.7683 0.12989 0.56965 0.0
H320 H 0.79307 0.0873 0.6612 0.0
H321 H 0.80893 0.03958 0.63041 0.0
H322 H 0.69002 0.08825 0.61927 0.0
H323 H 0.89435 0.25036 0.66686 0.0
H324 H 0.87924 0.2085 0.63273 0.0
H325 H 0.86432 0.18411 0.67424 0.0
C326 C 0.78627 0.08315 0.56538 0.0
C327 C 0.79833 0.05765 0.58203 0.0
C328 C 0.77711 0.11018 0.58304 0.0
C329 C 0.78013 0.11256 0.61765 0.0
C330 C 0.79152 0.08671 0.63445 0.0
H331 H 0.66591 0.22901 0.73085 0.0
H332 H 0.68739 0.17827 0.71593 0.0
C333 C 0.8006 0.05952 0.61681 0.0
C334 C 0.77055 0.14161 0.63592 0.0
H335 H 0.83149 0.25264 0.6819 0.0
C336 C 0.72071 0.12387 0.6333 0.0
C337 C 0.81088 0.18814 0.65405 0.0
C338 C 0.86539 0.20935 0.65708 0.0
C339 C 0.71033 0.15202 0.64777 0.0
C340 C 0.75083 0.19893 0.66551 0.0
C341 C 0.80045 0.21628 0.66862 0.0
C342 C 0.74346 0.23276 0.67825 0.0
C343 C 0.65678 0.13259 0.64285 0.0
C344 C 0.76937 0.28101 0.66284 0.0
C345 C 0.75759 0.31019 0.67154 0.0
C346 C 0.72019 0.29188 0.69608 0.0
C347 C 0.69574 0.24454 0.71237 0.0
C348 C 0.70757 0.21533 0.70367 0.0
H349 H 0.63271 0.10038 0.6242 0.0
H350 H 0.63521 0.11739 0.66662 0.0
H351 H 0.66079 0.16535 0.63489 0.0
H352 H 0.79709 0.29498 0.6431 0.0
H353 H 0.77676 0.34645 0.65851 0.0
H354 H 0.8498 0.86463 0.05931 0.0
H355 H 0.77531 0.82836 0.09528 0.0
H356 H 0.83002 0.98191 0.10265 0.0
H357 H 0.90403 0.0181 0.0666 0.0
H358 H 0.77082 0.85795 0.16117 0.0
H359 H 0.67944 0.88554 0.06445 0.0
H360 H 0.732 0.88922 0.05552 0.0
H361 H 0.74619 0.94352 0.07545 0.0
C362 C 0.84617 0.89067 0.06894 0.0
C363 C 0.88268 0.94419 0.0603 0.0
C364 C 0.80377 0.86999 0.08948 0.0
C365 C 0.79715 0.90247 0.10144 0.0
C366 C 0.83423 0.95614 0.09341 0.0
H367 H 0.53796 0.79811 0.2312 0.0
H368 H 0.6283 0.84877 0.21186 0.0
C369 C 0.87641 0.97673 0.07281 0.0
C370 C 0.74961 0.87948 0.12048 0.0
H371 H 0.63528 0.85048 0.11519 0.0
C372 C 0.74136 0.85673 0.15137 0.0
C373 C 0.71126 0.87778 0.10739 0.0
C374 C 0.71721 0.89989 0.07378 0.0
C375 C 0.69505 0.83145 0.16929 0.0
C376 C 0.65649 0.82907 0.15588 0.0
C377 C 0.66537 0.85294 0.12544 0.0
C378 C 0.60377 0.79648 0.17069 0.0
C379 C 0.68627 0.80527 0.20162 0.0
C380 C 0.56067 0.75037 0.15417 0.0
C381 C 0.50972 0.72167 0.16516 0.0
C382 C 0.50076 0.73842 0.19295 0.0
C383 C 0.54398 0.78377 0.21021 0.0
C384 C 0.59539 0.81279 0.19909 0.0
H385 H 0.72042 0.81115 0.20893 0.0
H386 H 0.67896 0.82137 0.22137 0.0
H387 H 0.65068 0.76234 0.19969 0.0
H388 H 0.56644 0.7373 0.13219 0.0
H389 H 0.47711 0.6867 0.15147 0.0
H390 H 0.87521 0.87076 0.58453 0.0
H391 H 0.8443 0.80227 0.62418 0.0
H392 H 0.96594 0.80951 0.59274 0.0
H393 H -0.00388 0.8768 0.55238 0.0
H394 H 0.87455 0.71175 0.5947 0.0
H395 H 0.90095 0.80818 0.71228 0.0
H396 H 0.86167 0.8071 0.68333 0.0
H397 H 0.92948 0.84398 0.67398 0.0
C398 C 0.8955 0.85789 0.5861 0.0
C399 C 0.93792 0.87903 0.5651 0.0
C400 C 0.8782 0.81919 0.60912 0.0
C401 C 0.90356 0.80158 0.61202 0.0
C402 C 0.94602 0.82279 0.59115 0.0
H403 H 0.81437 0.54482 0.73559 0.0
H404 H 0.86723 0.63612 0.71703 0.0
C405 C 0.96298 0.86103 0.5679 0.0
C406 C 0.88288 0.75771 0.63459 0.0
H407 H 0.84255 0.71336 0.71383 0.0
C408 C 0.86858 0.71266 0.62086 0.0
C409 C 0.87536 0.75889 0.66884 0.0
C410 C 0.89322 0.8074 0.68554 0.0
C411 C 0.84479 0.66799 0.63999 0.0
C412 C 0.83432 0.66801 0.67365 0.0
C413 C 0.85046 0.71358 0.68792 0.0
C414 C 0.80186 0.61873 0.69277 0.0
C415 C 0.82906 0.62011 0.62379 0.0
C416 C 0.74758 0.57995 0.68653 0.0
C417 C 0.71791 0.5283 0.69662 0.0
C418 C 0.74192 0.51488 0.71355 0.0
C419 C 0.79516 0.55463 0.72278 0.0
C420 C 0.82522 0.60655 0.71221 0.0
H421 H 0.84787 0.62939 0.59929 0.0
H422 H 0.83994 0.60331 0.63978 0.0
H423 H 0.78569 0.58943 0.62025 0.0
H424 H 0.72904 0.58872 0.67149 0.0
H425 H 0.67688 0.49808 0.68923 0.0
H426 H 0.25493 0.95813 0.45213 0.0
H427 H 0.27063 0.91263 0.41821 0.0
H428 H 0.18005 0.89876 0.33869 0.0
H429 H 0.16475 0.94498 0.3723 0.0
H430 H 0.18435 0.80624 0.38961 0.0
H431 H 0.32298 0.9609 0.29632 0.0
H432 H 0.31406 0.97671 0.33625 0.0
H433 H 0.26387 0.94612 0.30517 0.0
C434 C 0.23912 0.94622 0.42723 0.0
C435 C 0.20859 0.95509 0.41489 0.0
C436 C 0.24782 0.91996 0.40798 0.0
C437 C 0.22663 0.90259 0.37597 0.0
C438 C 0.19703 0.91225 0.36326 0.0
H439 H 0.23064 0.67962 0.2801 0.0
H440 H 0.19977 0.72311 0.29178 0.0
C441 C 0.18806 0.93829 0.38257 0.0
C442 C 0.23376 0.87228 0.35669 0.0
H443 H 0.30328 0.88208 0.29293 0.0
C444 C 0.20969 0.82235 0.36816 0.0
C445 C 0.26672 0.8936 0.32871 0.0
C446 C 0.29375 0.94738 0.31578 0.0
C447 C 0.21946 0.79395 0.3532 0.0
C448 C 0.25395 0.81605 0.32593 0.0
C449 C 0.27642 0.86512 0.31363 0.0
C450 C 0.27351 0.79276 0.31361 0.0
C451 C 0.19527 0.74191 0.36783 0.0
C452 C 0.32541 0.81829 0.32114 0.0
C453 C 0.3427 0.79354 0.31479 0.0
C454 C 0.30869 0.74326 0.30027 0.0
C455 C 0.25754 0.71866 0.29106 0.0
C456 C 0.23997 0.74334 0.29775 0.0
H457 H 0.17414 0.7332 0.39123 0.0
H458 H 0.16678 0.70972 0.34993 0.0
H459 H 0.22616 0.74179 0.37276 0.0
H460 H 0.35175 0.85627 0.33353 0.0
H461 H 0.38223 0.81298 0.3222 0.0
H462 H 0.16197 0.04876 0.97024 0.0
H463 H 0.23305 0.08547 0.9314 0.0
H464 H 0.202 0.17009 0.88242 0.0
H465 H 0.13157 0.13461 0.92152 0.0
H466 H 0.22535 0.07389 0.86231 0.0
H467 H 0.36055 0.28474 0.89993 0.0
H468 H 0.30573 0.232 0.92505 0.0
H469 H 0.29467 0.25288 0.889 0.0
C470 C 0.1705 0.07561 0.95147 0.0
C471 C 0.141 0.08875 0.94911 0.0
C472 C 0.21101 0.09634 0.92917 0.0
C473 C 0.22293 0.13069 0.90417 0.0
C474 C 0.19394 0.14426 0.90184 0.0
H475 H 0.49625 0.29956 0.7725 0.0
H476 H 0.40717 0.25722 0.78912 0.0
C477 C 0.15357 0.12378 0.92422 0.0
C478 C 0.26539 0.15155 0.88041 0.0
H479 H 0.38869 0.26428 0.85703 0.0
C480 C 0.26086 0.11558 0.86088 0.0
C481 C 0.31135 0.20601 0.87833 0.0
C482 C 0.31882 0.24626 0.89932 0.0
C483 C 0.30202 0.13246 0.84028 0.0
C484 C 0.34895 0.18654 0.83948 0.0
C485 C 0.3524 0.22284 0.85759 0.0
C486 C 0.39765 0.20527 0.82456 0.0
C487 C 0.29562 0.09219 0.82022 0.0
C488 C 0.42107 0.18932 0.83854 0.0
C489 C 0.47155 0.21345 0.82926 0.0
C490 C 0.49942 0.25374 0.80565 0.0
C491 C 0.47499 0.26781 0.79024 0.0
C492 C 0.42444 0.24398 0.79988 0.0
H493 H 0.25342 0.05656 0.8153 0.0
H494 H 0.31663 0.1089 0.7963 0.0
H495 H 0.31249 0.07975 0.83424 0.0
H496 H 0.40152 0.16029 0.85807 0.0
H497 H 0.48972 0.20212 0.84157 0.0
H498 H 0.9948 0.08968 0.42405 0.0
H499 H 0.03119 0.16143 0.38575 0.0
H500 H 0.18555 0.25161 0.42868 0.0
H501 H 0.14942 0.17766 0.46503 0.0
H502 H 0.06891 0.25104 0.39526 0.0
H503 H 0.22785 0.28071 0.33595 0.0
H504 H 0.17944 0.22437 0.36164 0.0
H505 H 0.23759 0.28604 0.37974 0.0
C506 C 0.03655 0.12469 0.42493 0.0
C507 C 0.06948 0.12844 0.44722 0.0
C508 C 0.05744 0.16566 0.40303 0.0
C509 C 0.11147 0.21187 0.40371 0.0
C510 C 0.14421 0.21577 0.42656 0.0
H511 H 0.24264 0.51839 0.36517 0.0
H512 H 0.19391 0.42919 0.38324 0.0
C513 C 0.12355 0.17389 0.44765 0.0
C514 C 0.13256 0.25744 0.38257 0.0
H515 H 0.23876 0.35694 0.33639 0.0
C516 C 0.10556 0.27345 0.38188 0.0
C517 C 0.17948 0.28617 0.36407 0.0
C518 C 0.20726 0.26792 0.36007 0.0
C519 C 0.12561 0.31879 0.36494 0.0
C520 C 0.17561 0.35089 0.34981 0.0
C521 C 0.20105 0.33321 0.34866 0.0
C522 C 0.20395 0.40466 0.33768 0.0
C523 C 0.09274 0.33159 0.36358 0.0
C524 C 0.2283 0.42188 0.30656 0.0
C525 C 0.25812 0.47396 0.29663 0.0
C526 C 0.26317 0.50931 0.31728 0.0
C527 C 0.23881 0.49192 0.34836 0.0
C528 C 0.21019 0.44052 0.35858 0.0
H529 H 0.05005 0.29496 0.36328 0.0
H530 H 0.10044 0.35422 0.38605 0.0
H531 H 0.1017 0.3551 0.34142 0.0
H532 H 0.22513 0.39539 0.29022 0.0
H533 H 0.27897 0.4871 0.27352 0.0
H534 H 0.02694 0.29347 0.90209 0.0
H535 H 0.986 0.31367 0.86728 0.0
H536 H 0.84712 0.14774 0.85682 0.0
H537 H 0.88729 0.12712 0.89183 0.0
H538 H 0.88156 0.21368 0.79625 0.0
H539 H 0.86112 0.28679 0.91043 0.0
H540 H 0.92624 0.31531 0.90103 0.0
H541 H 0.87571 0.24689 0.91177 0.0
C542 C 0.98781 0.26128 0.89221 0.0
C543 C 0.96013 0.20873 0.90004 0.0
C544 C 0.96472 0.27287 0.87212 0.0
C545 C 0.91356 0.23216 0.85964 0.0
C546 C 0.88684 0.17964 0.86602 0.0
H547 H 0.66965 0.21884 0.82291 0.0
H548 H 0.72287 0.19905 0.83198 0.0
C549 C 0.90987 0.16798 0.88608 0.0
C550 C 0.88525 0.24417 0.84362 0.0
H551 H 0.82729 0.28865 0.86131 0.0
C552 C 0.87003 0.23054 0.81026 0.0
C553 C 0.86997 0.26566 0.8622 0.0
C554 C 0.88365 0.27925 0.8984 0.0
C555 C 0.83929 0.23753 0.79511 0.0
C556 C 0.82351 0.25825 0.81396 0.0
C557 C 0.83965 0.27277 0.84702 0.0
C558 C 0.78723 0.26229 0.80117 0.0
C559 C 0.82252 0.22152 0.75952 0.0
C560 C 0.80514 0.30319 0.7798 0.0
C561 C 0.77458 0.31448 0.7745 0.0
C562 C 0.72614 0.28508 0.7907 0.0
C563 C 0.70692 0.24201 0.81019 0.0
C564 C 0.73713 0.23059 0.81528 0.0
H565 H 0.83495 0.20253 0.74885 0.0
H566 H 0.77904 0.19389 0.75734 0.0
H567 H 0.8401 0.25691 0.74472 0.0
H568 H 0.84404 0.32847 0.76906 0.0
H569 H 0.79032 0.34824 0.75964 0.0
H570 H 0.90676 0.00915 0.43234 0.0
H571 H 0.83471 0.96861 0.39275 0.0
H572 H 0.76297 0.81433 0.42465 0.0
H573 H 0.8351 0.85492 0.46447 0.0
H574 H 0.79341 0.88671 0.33942 0.0
H575 H 0.6527 0.82587 0.43964 0.0
H576 H 0.72316 0.87619 0.44574 0.0
H577 H 0.68943 0.80807 0.44425 0.0
C578 C 0.87575 0.96664 0.43079 0.0
C579 C 0.87665 0.93507 0.4511 0.0
C580 C 0.83491 0.94357 0.40803 0.0
C581 C 0.79388 0.88859 0.40568 0.0
C582 C 0.79451 0.85689 0.42605 0.0
H583 H 0.51748 0.70084 0.27562 0.0
H584 H 0.60484 0.74326 0.29701 0.0
C585 C 0.8356 0.88001 0.44869 0.0
C586 C 0.7485 0.86474 0.38369 0.0
H587 H 0.62032 0.80414 0.38524 0.0
C588 C 0.75539 0.86836 0.34928 0.0
C589 C 0.69928 0.84119 0.39682 0.0
C590 C 0.6904 0.83771 0.43361 0.0
C591 C 0.71403 0.8493 0.32759 0.0
C592 C 0.665 0.8263 0.34081 0.0
C593 C 0.65811 0.82198 0.3752 0.0
C594 C 0.6204 0.80844 0.32006 0.0
C595 C 0.72315 0.85486 0.29086 0.0
C596 C 0.60154 0.83233 0.32465 0.0
C597 C 0.55196 0.80809 0.31278 0.0
C598 C 0.52064 0.75985 0.29582 0.0
C599 C 0.54144 0.73845 0.28829 0.0
C600 C 0.59119 0.76259 0.30053 0.0
H601 H 0.76553 0.88117 0.28474 0.0
H602 H 0.7014 0.81541 0.27996 0.0
H603 H 0.70786 0.87055 0.27922 0.0
H604 H 0.62347 0.86767 0.33964 0.0
H605 H 0.53642 0.825 0.31903 0.0
H606 H 0.01195 0.91972 0.92627 0.0
H607 H 0.97372 0.84164 0.89346 0.0
H608 H 0.82877 0.75102 0.94815 0.0
H609 H 0.86873 0.8285 0.98256 0.0
H610 H 0.84864 0.69554 0.94137 0.0
H611 H 0.87692 0.77789 0.8179 0.0
H612 H 0.9391 0.815 0.83834 0.0
H613 H 0.89094 0.81351 0.85531 0.0
C614 C 0.972 0.8829 0.93128 0.0
C615 C 0.94318 0.87965 0.95691 0.0
C616 C 0.94987 0.83849 0.91221 0.0
C617 C 0.89773 0.79049 0.91758 0.0
C618 C 0.86899 0.78749 0.94335 0.0
H619 H 0.71506 0.51526 0.78674 0.0
H620 H 0.7592 0.60101 0.8119 0.0
C621 C 0.89175 0.83157 0.96309 0.0
C622 C 0.87408 0.7427 0.8977 0.0
H623 H 0.85596 0.69682 0.81896 0.0
C624 C 0.84985 0.69589 0.91459 0.0
C625 C 0.87493 0.74254 0.86263 0.0
C626 C 0.8964 0.78984 0.84251 0.0
C627 C 0.82712 0.64942 0.89765 0.0
C628 C 0.83077 0.65015 0.86276 0.0
C629 C 0.85407 0.69653 0.84572 0.0
C630 C 0.80985 0.60276 0.84375 0.0
C631 C 0.79833 0.59975 0.91746 0.0
C632 C 0.8258 0.57689 0.85183 0.0
C633 C 0.80007 0.52781 0.838 0.0
C634 C 0.75924 0.50458 0.81495 0.0
C635 C 0.74662 0.53261 0.8044 0.0
C636 C 0.77164 0.58139 0.81886 0.0
H637 H 0.78473 0.60184 0.94152 0.0
H638 H 0.76357 0.56447 0.90378 0.0
H639 H 0.82541 0.59464 0.9228 0.0
H640 H 0.85656 0.59355 0.87 0.0
H641 H 0.8108 0.50706 0.84622 0.0
loop_
_geom_bond_atom_site_label_1
_geom_bond_atom_site_label_2
_geom_bond_distance
_geom_bond_site_symmetry_2
_ccdc_geom_bond_type
C0 C2 1.422 . S
C0 C4 1.415 . S
C0 N6 1.369 1_565 S
C1 C2 1.421 . S
C1 C3 1.417 . S
C1 C13 1.422 . S
C2 C0 1.422 . S
C2 C1 1.421 . S
C2 N12 1.359 . S
C3 C1 1.417 . S
C3 C5 1.329 . S
C3 H22 0.930 . S
C4 C0 1.415 . S
C4 C5 1.437 . S
C4 C8 1.413 1_665 S
C5 C3 1.329 . S
C5 C4 1.437 . S
C5 H27 0.929 . S
N6 C0 1.369 1_545 S
N6 C7 1.338 1_655 S
N6 Gd11 2.621 . S
C7 N6 1.338 1_455 S
C7 C9 1.378 . S
C7 H19 0.929 . S
C8 C4 1.413 1_445 S
C8 C9 1.348 . S
C8 H24 0.931 1_545 S
C9 C7 1.378 . S
C9 C8 1.348 . S
C9 H25 0.930 . S
Gd10 N30 2.622 . S
Gd10 N37 2.570 1_565 S
Gd10 O44 2.351 1_454 S
Gd10 O45 2.468 . S
Gd10 O46 2.427 . S
Gd10 O48 2.388 1_455 S
Gd10 O49 2.386 1_565 S
Gd10 O53 2.284 1_564 S
Gd10 C63 2.805 . S
Gd11 N6 2.621 . S
Gd11 N12 2.570 1_545 S
Gd11 O43 2.386 1_545 S
Gd11 O47 2.307 1_546 S
Gd11 O50 2.353 1_656 S
Gd11 O51 2.468 . S
Gd11 O52 2.427 1_655 S
Gd11 O54 2.388 1_655 S
Gd11 C75 2.805 . S
N12 C2 1.359 . S
N12 Gd11 2.570 1_565 S
N12 C14 1.343 . S
C13 C1 1.422 . S
C13 C15 1.321 . S
C13 H21 0.931 . S
C14 N12 1.343 . S
C14 C15 1.390 . S
C14 H16 0.931 . S
C15 C13 1.321 . S
C15 C14 1.390 . S
C15 H17 0.930 . S
H16 C14 0.931 . S
H17 C15 0.930 . S
H18 C41 0.931 . S
H19 C7 0.929 . S
H20 C42 0.930 . S
H21 C13 0.931 . S
H22 C3 0.930 . S
H23 C32 0.929 . S
H24 C8 0.931 1_565 S
H25 C9 0.930 . S
H26 C64 0.930 . S
H27 C5 0.929 . S
H28 C33 0.931 . S
H29 C34 0.930 . S
N30 Gd10 2.622 . S
N30 C31 1.369 1_565 S
N30 C32 1.338 1_455 S
C31 N30 1.369 1_545 S
C31 C35 1.415 . S
C31 C38 1.422 . S
C32 H23 0.929 . S
C32 N30 1.338 1_655 S
C32 C34 1.378 . S
C33 H28 0.931 . S
C33 C34 1.348 1_545 S
C33 C35 1.413 1_655 S
C34 H29 0.930 . S
C34 C32 1.378 . S
C34 C33 1.348 1_565 S
C35 C31 1.415 . S
C35 C33 1.413 1_455 S
C35 C65 1.437 . S
H36 C65 0.929 . S
N37 Gd10 2.570 1_545 S
N37 C38 1.359 . S
N37 C41 1.343 . S
C38 C31 1.422 . S
C38 N37 1.359 . S
C38 C40 1.421 . S
C39 C40 1.422 . S
C39 C42 1.321 . S
C39 H66 0.931 . S
C40 C38 1.421 . S
C40 C39 1.422 . S
C40 C64 1.417 . S
C41 H18 0.931 . S
C41 N37 1.343 . S
C41 C42 1.390 . S
C42 H20 0.930 . S
C42 C39 1.321 . S
C42 C41 1.390 . S
O43 Gd11 2.386 1_565 S
O43 C55 1.265 . S
O44 Gd10 2.351 1_656 S
O44 C55 1.244 . S
O45 Gd10 2.468 . S
O45 C63 1.263 . S
O46 Gd10 2.427 . S
O46 C63 1.252 . S
O47 Gd11 2.307 1_564 S
O47 C56 1.261 . S
O48 Gd10 2.388 1_655 S
O48 C56 1.252 . S
O49 Gd10 2.386 1_545 S
O49 C67 1.265 . S
O50 Gd11 2.353 1_454 S
O50 C67 1.242 . S
O51 Gd11 2.468 . S
O51 C75 1.263 . S
O52 Gd11 2.427 1_455 S
O52 C75 1.252 1_455 S
O53 Gd10 2.284 1_546 S
O53 C68 1.287 . S
O54 Gd11 2.388 1_455 S
O54 C68 1.252 . S
C55 O43 1.265 . S
C55 O44 1.244 . S
C56 O47 1.261 . S
C56 O48 1.252 . S
C57 C60 1.394 . S
C57 C62 1.370 . S
C57 C63 1.500 . S
C58 C61 1.383 . S
C58 C62 1.395 . S
C59 C60 1.396 . S
C59 C61 1.365 . S
C59 H76 0.929 . S
C60 C57 1.394 . S
C60 C59 1.396 . S
C60 H77 0.930 1_455 S
C61 C58 1.383 . S
C61 C59 1.365 . S
C61 H78 0.931 . S
C62 C57 1.370 . S
C62 C58 1.395 . S
C62 H79 0.930 . S
C63 Gd10 2.805 . S
C63 O45 1.263 . S
C63 O46 1.252 . S
C63 C57 1.500 . S
C64 H26 0.930 . S
C64 C40 1.417 . S
C64 C65 1.329 . S
C65 C35 1.437 . S
C65 H36 0.929 . S
C65 C64 1.329 . S
H66 C39 0.931 . S
C67 O49 1.265 . S
C67 O50 1.242 . S
C68 O53 1.287 . S
C68 O54 1.252 . S
C69 C72 1.394 . S
C69 C74 1.370 . S
C69 C75 1.500 . S
C70 C73 1.383 . S
C70 C74 1.395 . S
C71 C72 1.396 . S
C71 C73 1.365 . S
C71 H80 0.929 . S
C72 C69 1.394 . S
C72 C71 1.396 . S
C72 H81 0.930 1_655 S
C73 C70 1.383 . S
C73 C71 1.365 . S
C73 H82 0.931 . S
C74 C69 1.370 . S
C74 C70 1.395 . S
C74 H83 0.930 . S
C75 Gd11 2.805 . S
C75 O51 1.263 . S
C75 O52 1.252 1_655 S
C75 C69 1.500 . S
H76 C59 0.929 . S
H77 C60 0.930 1_655 S
H78 C61 0.931 . S
H79 C62 0.930 . S
H80 C71 0.929 . S
H81 C72 0.930 1_455 S
H82 C73 0.931 . S
H83 C74 0.930 . S
C84 C86 1.422 . S
C84 C88 1.415 . S
C84 N90 1.369 1_455 S
C85 C86 1.421 . S
C85 C87 1.417 . S
C85 C97 1.422 . S
C86 C84 1.422 . S
C86 C85 1.421 . S
C86 N96 1.359 . S
C87 C85 1.417 . S
C87 C89 1.329 . S
C87 H106 0.930 . S
C88 C84 1.415 . S
C88 C89 1.437 . S
C88 C92 1.413 . S
C89 C87 1.329 . S
C89 C88 1.437 . S
C89 H111 0.929 . S
N90 C84 1.369 1_655 S
N90 C91 1.338 1_545 S
N90 Gd95 2.622 . S
C91 N90 1.338 1_565 S
C91 C93 1.378 . S
C91 H103 0.929 . S
C92 C88 1.413 . S
C92 C93 1.348 1_445 S
C92 H108 0.924 1_545 S
C93 C91 1.378 . S
C93 C92 1.348 1_665 S
C93 H109 0.930 . S
Gd94 N114 2.622 1_565 S
Gd94 N121 2.570 1_455 S
Gd94 O128 2.353 1_565 S
Gd94 O129 2.468 . S
Gd94 O130 2.427 1_565 S
Gd94 O132 2.388 1_565 S
Gd94 O133 2.386 1_455 S
Gd94 O137 2.307 1_455 S
Gd94 C147 2.805 . S
Gd95 N90 2.622 . S
Gd95 N96 2.570 1_655 S
Gd95 O127 2.386 1_655 S
Gd95 O131 2.307 1_655 S
Gd95 O134 2.353 1_545 S
Gd95 O135 2.468 . S
Gd95 O136 2.427 . S
Gd95 O138 2.388 1_545 S
Gd95 C159 2.805 . S
N96 C86 1.359 . S
N96 Gd95 2.570 1_455 S
N96 C98 1.343 . S
C97 C85 1.422 . S
C97 C99 1.321 . S
C97 H105 0.931 . S
C98 N96 1.343 . S
C98 C99 1.390 . S
C98 H100 0.931 . S
C99 C97 1.321 . S
C99 C98 1.390 . S
C99 H101 0.930 . S
H100 C98 0.931 . S
H101 C99 0.930 . S
H102 C125 0.931 . S
H103 C91 0.929 . S
H104 C126 0.930 . S
H105 C97 0.931 . S
H106 C87 0.930 . S
H107 C116 0.929 . S
H108 C92 0.924 1_565 S
H109 C93 0.930 . S
H110 C148 0.930 . S
H111 C89 0.929 . S
H112 C117 0.931 . S
H113 C118 0.930 . S
N114 Gd94 2.622 1_545 S
N114 C115 1.369 1_445 S
N114 C116 1.338 . S
C115 N114 1.369 1_665 S
C115 C119 1.415 . S
C115 C122 1.422 . S
C116 H107 0.929 . S
C116 N114 1.338 . S
C116 C118 1.378 . S
C117 H112 0.931 . S
C117 C118 1.348 . S
C117 C119 1.413 1_445 S
C118 H113 0.930 . S
C118 C116 1.378 . S
C118 C117 1.348 . S
C119 C115 1.415 . S
C119 C117 1.413 1_665 S
C119 C149 1.437 . S
H120 C149 0.929 . S
N121 Gd94 2.570 1_655 S
N121 C122 1.359 . S
N121 C125 1.343 . S
C122 C115 1.422 . S
C122 N121 1.359 . S
C122 C124 1.421 . S
C123 C124 1.422 . S
C123 C126 1.321 . S
C123 H150 0.931 . S
C124 C122 1.421 . S
C124 C123 1.422 . S
C124 C148 1.417 . S
C125 H102 0.931 . S
C125 N121 1.343 . S
C125 C126 1.390 . S
C126 H104 0.930 . S
C126 C123 1.321 . S
C126 C125 1.390 . S
O127 Gd95 2.386 1_455 S
O127 C139 1.265 . S
O128 Gd94 2.353 1_545 S
O128 C139 1.242 . S
O129 Gd94 2.468 . S
O129 C147 1.263 . S
O130 Gd94 2.427 1_545 S
O130 C147 1.252 1_545 S
O131 Gd95 2.307 1_455 S
O131 C140 1.261 . S
O132 Gd94 2.388 1_545 S
O132 C140 1.252 . S
O133 Gd94 2.386 1_655 S
O133 C151 1.265 . S
O134 Gd95 2.353 1_565 S
O134 C151 1.242 . S
O135 Gd95 2.468 . S
O135 C159 1.263 . S
O136 Gd95 2.427 . S
O136 C159 1.252 . S
O137 Gd94 2.307 1_655 S
O137 C152 1.261 . S
O138 Gd95 2.388 1_565 S
O138 C152 1.252 . S
C139 O127 1.265 . S
C139 O128 1.242 . S
C140 O131 1.261 . S
C140 O132 1.252 . S
C141 C144 1.394 . S
C141 C146 1.370 . S
C141 C147 1.500 . S
C142 C145 1.383 . S
C142 C146 1.395 . S
C143 C144 1.396 . S
C143 C145 1.365 . S
C143 H160 0.929 1_565 S
C144 C141 1.394 . S
C144 C143 1.396 . S
C144 H161 0.930 1_565 S
C145 C142 1.383 . S
C145 C143 1.365 . S
C145 H162 0.931 . S
C146 C141 1.370 . S
C146 C142 1.395 . S
C146 H163 0.930 . S
C147 Gd94 2.805 . S
C147 O129 1.263 . S
C147 O130 1.252 1_565 S
C147 C141 1.500 . S
C148 H110 0.930 . S
C148 C124 1.417 . S
C148 C149 1.329 . S
C149 C119 1.437 . S
C149 H120 0.929 . S
C149 C148 1.329 . S
H150 C123 0.931 . S
C151 O133 1.265 . S
C151 O134 1.242 . S
C152 O137 1.261 . S
C152 O138 1.252 . S
C153 C156 1.394 . S
C153 C158 1.370 . S
C153 C159 1.500 . S
C154 C157 1.383 . S
C154 C158 1.395 . S
C155 C156 1.396 . S
C155 C157 1.365 . S
C155 H164 0.929 . S
C156 C153 1.394 . S
C156 C155 1.396 . S
C156 H165 0.930 . S
C157 C154 1.383 . S
C157 C155 1.365 . S
C157 H166 0.931 . S
C158 C153 1.370 . S
C158 C154 1.395 . S
C158 H167 0.930 . S
C159 Gd95 2.805 . S
C159 O135 1.263 . S
C159 O136 1.252 . S
C159 C153 1.500 . S
H160 C143 0.929 1_545 S
H161 C144 0.930 1_545 S
H162 C145 0.931 . S
H163 C146 0.930 . S
H164 C155 0.929 . S
H165 C156 0.930 . S
H166 C157 0.931 . S
H167 C158 0.930 . S
Zn168 O174 1.920 . S
Zn168 O180 1.898 . S
Zn168 O183 1.905 . S
Zn169 O177 1.905 . S
Zn169 O178 1.898 . S
Zn169 O186 1.920 . S
Zn170 O173 2.080 . S
Zn170 O176 2.114 . S
Zn170 O179 2.120 . S
Zn170 O181 2.120 . S
Zn170 O182 2.114 . S
Zn170 O185 2.080 . S
C171 O176 1.166 . S
C171 O177 1.182 . S
C172 O178 1.167 . S
C172 O179 1.299 . S
O173 Zn170 2.080 . S
O173 C187 1.305 . S
O174 Zn168 1.920 . S
O174 C187 1.234 . S
C175 O180 1.167 . S
C175 O181 1.299 . S
O176 Zn170 2.114 . S
O176 C171 1.166 . S
O177 Zn169 1.905 . S
O177 C171 1.182 . S
O178 Zn169 1.898 . S
O178 C172 1.167 . S
O179 Zn170 2.120 . S
O179 C172 1.299 . S
O180 Zn168 1.898 . S
O180 C175 1.167 . S
O181 Zn170 2.120 . S
O181 C175 1.299 . S
O182 Zn170 2.114 . S
O182 C184 1.166 . S
O183 Zn168 1.905 . S
O183 C184 1.182 . S
C184 O182 1.166 . S
C184 O183 1.182 . S
O185 Zn170 2.080 . S
O185 C188 1.305 . S
O186 Zn169 1.920 . S
O186 C188 1.234 . S
C187 O173 1.305 . S
C187 O174 1.234 . S
C188 O185 1.305 . S
C188 O186 1.234 . S
Zn189 O195 1.920 . S
Zn189 O201 1.898 . S
Zn189 O204 1.905 . S
Zn190 O198 1.905 . S
Zn190 O199 1.898 . S
Zn190 O207 1.920 . S
Zn191 O194 2.080 . S
Zn191 O197 2.114 . S
Zn191 O200 2.120 . S
Zn191 O202 2.120 . S
Zn191 O203 2.114 . S
Zn191 O206 2.080 . S
C192 O197 1.166 . S
C192 O198 1.182 . S
C193 O199 1.167 . S
C193 O200 1.299 . S
O194 Zn191 2.080 . S
O194 C208 1.305 . S
O195 Zn189 1.920 . S
O195 C208 1.234 . S
C196 O201 1.167 . S
C196 O202 1.299 . S
O197 Zn191 2.114 . S
O197 C192 1.166 . S
O198 Zn190 1.905 . S
O198 C192 1.182 . S
O199 Zn190 1.898 . S
O199 C193 1.167 . S
O200 Zn191 2.120 . S
O200 C193 1.299 . S
O201 Zn189 1.898 . S
O201 C196 1.167 . S
O202 Zn191 2.120 . S
O202 C196 1.299 . S
O203 Zn191 2.114 . S
O203 C205 1.166 . S
O204 Zn189 1.905 . S
O204 C205 1.182 . S
C205 O203 1.166 . S
C205 O204 1.182 . S
O206 Zn191 2.080 . S
O206 C209 1.305 . S
O207 Zn190 1.920 . S
O207 C209 1.234 . S
C208 O194 1.305 . S
C208 O195 1.234 . S
C209 O206 1.305 . S
C209 O207 1.234 . S
H210 C218 0.929 . S
H211 C220 0.930 . S
H212 C222 0.930 . S
H213 C225 0.929 . S
H214 C228 0.930 . S
H215 C230 0.960 . S
H216 C230 0.960 . S
H217 C230 0.960 . S
C218 H210 0.929 . S
C218 C219 1.377 . S
C218 C220 1.384 . S
C219 C218 1.377 . S
C219 C225 1.390 . S
C220 H211 0.930 . S
C220 C218 1.384 . S
C220 C221 1.372 . S
C221 C220 1.372 . S
C221 C222 1.400 . S
C221 C226 1.490 . S
C222 H212 0.930 . S
C222 C221 1.400 . S
C222 C225 1.386 . S
H223 C239 0.930 . S
H224 C240 0.931 . S
C225 H213 0.929 . S
C225 C219 1.390 . S
C225 C222 1.386 . S
C226 C221 1.490 . S
C226 C228 1.395 . S
C226 C229 1.403 . S
H227 C233 0.930 . S
C228 H214 0.930 . S
C228 C226 1.395 . S
C228 C231 1.403 . S
C229 C226 1.403 . S
C229 C230 1.524 . S
C229 C233 1.400 . S
C230 H215 0.960 . S
C230 H216 0.960 . S
C230 H217 0.960 . S
C230 C229 1.524 . S
C231 C228 1.403 . S
C231 C232 1.392 . S
C231 C235 1.495 . S
C232 C231 1.392 . S
C232 C233 1.385 . S
C232 C234 1.478 . S
C233 H227 0.930 . S
C233 C229 1.400 . S
C233 C232 1.385 . S
C234 C232 1.478 . S
C234 C236 1.381 . S
C234 C240 1.383 . S
C235 C231 1.495 . S
C235 H241 0.959 . S
C235 H242 0.961 . S
C235 H243 0.960 . S
C236 C234 1.381 . S
C236 C237 1.394 . S
C236 H244 0.930 . S
C237 C236 1.394 . S
C237 C238 1.383 . S
C237 H245 0.929 . S
C238 C237 1.383 . S
C238 C239 1.377 . S
C239 H223 0.930 . S
C239 C238 1.377 . S
C239 C240 1.379 . S
C240 H224 0.931 . S
C240 C234 1.383 . S
C240 C239 1.379 . S
H241 C235 0.959 . S
H242 C235 0.961 . S
H243 C235 0.960 . S
H244 C236 0.930 . S
H245 C237 0.929 . S
H246 C254 0.929 . S
H247 C256 0.930 . S
H248 C258 0.930 . S
H249 C261 0.929 . S
H250 C264 0.930 . S
H251 C266 0.960 . S
H252 C266 0.960 . S
H253 C266 0.960 . S
C254 H246 0.929 . S
C254 C255 1.377 . S
C254 C256 1.384 . S
C255 C254 1.377 . S
C255 C261 1.390 . S
C256 H247 0.930 . S
C256 C254 1.384 . S
C256 C257 1.372 . S
C257 C256 1.372 . S
C257 C258 1.400 . S
C257 C262 1.490 . S
C258 H248 0.930 . S
C258 C257 1.400 . S
C258 C261 1.386 . S
H259 C275 0.930 . S
H260 C276 0.931 . S
C261 H249 0.929 . S
C261 C255 1.390 . S
C261 C258 1.386 . S
C262 C257 1.490 . S
C262 C264 1.395 . S
C262 C265 1.403 . S
H263 C269 0.930 . S
C264 H250 0.930 . S
C264 C262 1.395 . S
C264 C267 1.403 . S
C265 C262 1.403 . S
C265 C266 1.524 . S
C265 C269 1.400 . S
C266 H251 0.960 . S
C266 H252 0.960 . S
C266 H253 0.960 . S
C266 C265 1.524 . S
C267 C264 1.403 . S
C267 C268 1.392 . S
C267 C271 1.495 . S
C268 C267 1.392 . S
C268 C269 1.385 . S
C268 C270 1.478 . S
C269 H263 0.930 . S
C269 C265 1.400 . S
C269 C268 1.385 . S
C270 C268 1.478 . S
C270 C272 1.381 . S
C270 C276 1.383 . S
C271 C267 1.495 . S
C271 H277 0.959 . S
C271 H278 0.961 . S
C271 H279 0.960 . S
C272 C270 1.381 . S
C272 C273 1.394 . S
C272 H280 0.930 . S
C273 C272 1.394 . S
C273 C274 1.383 . S
C273 H281 0.929 . S
C274 C273 1.383 . S
C274 C275 1.377 . S
C275 H259 0.930 . S
C275 C274 1.377 . S
C275 C276 1.379 . S
C276 H260 0.931 . S
C276 C270 1.383 . S
C276 C275 1.379 . S
H277 C271 0.959 . S
H278 C271 0.961 . S
H279 C271 0.960 . S
H280 C272 0.930 . S
H281 C273 0.929 . S
H282 C290 0.929 . S
H283 C292 0.930 . S
H284 C294 0.930 . S
H285 C297 0.929 . S
H286 C300 0.930 . S
H287 C302 0.960 . S
H288 C302 0.960 . S
H289 C302 0.960 . S
C290 H282 0.929 . S
C290 C291 1.377 . S
C290 C292 1.384 . S
C291 C290 1.377 . S
C291 C297 1.390 . S
C292 H283 0.930 . S
C292 C290 1.384 . S
C292 C293 1.372 . S
C293 C292 1.372 . S
C293 C294 1.400 . S
C293 C298 1.490 . S
C294 H284 0.930 . S
C294 C293 1.400 . S
C294 C297 1.386 . S
H295 C311 0.930 . S
H296 C312 0.931 . S
C297 H285 0.929 . S
C297 C291 1.390 . S
C297 C294 1.386 . S
C298 C293 1.490 . S
C298 C300 1.395 . S
C298 C301 1.403 . S
H299 C305 0.930 . S
C300 H286 0.930 . S
C300 C298 1.395 . S
C300 C303 1.403 . S
C301 C298 1.403 . S
C301 C302 1.524 . S
C301 C305 1.400 . S
C302 H287 0.960 . S
C302 H288 0.960 . S
C302 H289 0.960 . S
C302 C301 1.524 . S
C303 C300 1.403 . S
C303 C304 1.392 . S
C303 C307 1.495 . S
C304 C303 1.392 . S
C304 C305 1.385 . S
C304 C306 1.478 . S
C305 H299 0.930 . S
C305 C301 1.400 . S
C305 C304 1.385 . S
C306 C304 1.478 . S
C306 C308 1.381 . S
C306 C312 1.383 . S
C307 C303 1.495 . S
C307 H313 0.959 . S
C307 H314 0.961 . S
C307 H315 0.960 . S
C308 C306 1.381 . S
C308 C309 1.394 . S
C308 H316 0.930 . S
C309 C308 1.394 . S
C309 C310 1.383 . S
C309 H317 0.929 . S
C310 C309 1.383 . S
C310 C311 1.377 . S
C311 H295 0.930 . S
C311 C310 1.377 . S
C311 C312 1.379 . S
C312 H296 0.931 . S
C312 C306 1.383 . S
C312 C311 1.379 . S
H313 C307 0.959 . S
H314 C307 0.961 . S
H315 C307 0.960 . S
H316 C308 0.930 . S
H317 C309 0.929 . S
H318 C326 0.929 . S
H319 C328 0.930 . S
H320 C330 0.930 . S
H321 C333 0.929 . S
H322 C336 0.930 . S
H323 C338 0.960 . S
H324 C338 0.960 . S
H325 C338 0.960 . S
C326 H318 0.929 . S
C326 C327 1.377 . S
C326 C328 1.384 . S
C327 C326 1.377 . S
C327 C333 1.390 . S
C328 H319 0.930 . S
C328 C326 1.384 . S
C328 C329 1.372 . S
C329 C328 1.372 . S
C329 C330 1.400 . S
C329 C334 1.490 . S
C330 H320 0.930 . S
C330 C329 1.400 . S
C330 C333 1.386 . S
H331 C347 0.930 . S
H332 C348 0.931 . S
C333 H321 0.929 . S
C333 C327 1.390 . S
C333 C330 1.386 . S
C334 C329 1.490 . S
C334 C336 1.395 . S
C334 C337 1.403 . S
H335 C341 0.930 . S
C336 H322 0.930 . S
C336 C334 1.395 . S
C336 C339 1.403 . S
C337 C334 1.403 . S
C337 C338 1.524 . S
C337 C341 1.400 . S
C338 H323 0.960 . S
C338 H324 0.960 . S
C338 H325 0.960 . S
C338 C337 1.524 . S
C339 C336 1.403 . S
C339 C340 1.392 . S
C339 C343 1.495 . S
C340 C339 1.392 . S
C340 C341 1.385 . S
C340 C342 1.478 . S
C341 H335 0.930 . S
C341 C337 1.400 . S
C341 C340 1.385 . S
C342 C340 1.478 . S
C342 C344 1.381 . S
C342 C348 1.383 . S
C343 C339 1.495 . S
C343 H349 0.959 . S
C343 H350 0.961 . S
C343 H351 0.960 . S
C344 C342 1.381 . S
C344 C345 1.394 . S
C344 H352 0.930 . S
C345 C344 1.394 . S
C345 C346 1.383 . S
C345 H353 0.929 . S
C346 C345 1.383 . S
C346 C347 1.377 . S
C347 H331 0.930 . S
C347 C346 1.377 . S
C347 C348 1.379 . S
C348 H332 0.931 . S
C348 C342 1.383 . S
C348 C347 1.379 . S
H349 C343 0.959 . S
H350 C343 0.961 . S
H351 C343 0.960 . S
H352 C344 0.930 . S
H353 C345 0.929 . S
H354 C362 0.929 . S
H355 C364 0.930 . S
H356 C366 0.930 . S
H357 C369 0.929 . S
H358 C372 0.930 . S
H359 C374 0.960 . S
H360 C374 0.960 . S
H361 C374 0.960 . S
C362 H354 0.929 . S
C362 C363 1.377 . S
C362 C364 1.384 . S
C363 C362 1.377 . S
C363 C369 1.390 . S
C364 H355 0.930 . S
C364 C362 1.384 . S
C364 C365 1.372 . S
C365 C364 1.372 . S
C365 C366 1.400 . S
C365 C370 1.490 . S
C366 H356 0.930 . S
C366 C365 1.400 . S
C366 C369 1.386 . S
H367 C383 0.930 . S
H368 C384 0.931 . S
C369 H357 0.929 . S
C369 C363 1.390 . S
C369 C366 1.386 . S
C370 C365 1.490 . S
C370 C372 1.395 . S
C370 C373 1.403 . S
H371 C377 0.930 . S
C372 H358 0.930 . S
C372 C370 1.395 . S
C372 C375 1.403 . S
C373 C370 1.403 . S
C373 C374 1.524 . S
C373 C377 1.400 . S
C374 H359 0.960 . S
C374 H360 0.960 . S
C374 H361 0.960 . S
C374 C373 1.524 . S
C375 C372 1.403 . S
C375 C376 1.392 . S
C375 C379 1.495 . S
C376 C375 1.392 . S
C376 C377 1.385 . S
C376 C378 1.478 . S
C377 H371 0.930 . S
C377 C373 1.400 . S
C377 C376 1.385 . S
C378 C376 1.478 . S
C378 C380 1.381 . S
C378 C384 1.383 . S
C379 C375 1.495 . S
C379 H385 0.959 . S
C379 H386 0.961 . S
C379 H387 0.960 . S
C380 C378 1.381 . S
C380 C381 1.394 . S
C380 H388 0.930 . S
C381 C380 1.394 . S
C381 C382 1.383 . S
C381 H389 0.929 . S
C382 C381 1.383 . S
C382 C383 1.377 . S
C383 H367 0.930 . S
C383 C382 1.377 . S
C383 C384 1.379 . S
C384 H368 0.931 . S
C384 C378 1.383 . S
C384 C383 1.379 . S
H385 C379 0.959 . S
H386 C379 0.961 . S
H387 C379 0.960 . S
H388 C380 0.930 . S
H389 C381 0.929 . S
H390 C398 0.929 . S
H391 C400 0.930 . S
H392 C402 0.930 . S
H393 C405 0.929 . S
H394 C408 0.930 . S
H395 C410 0.960 . S
H396 C410 0.960 . S
H397 C410 0.960 . S
C398 H390 0.929 . S
C398 C399 1.377 . S
C398 C400 1.384 . S
C399 C398 1.377 . S
C399 C405 1.390 . S
C400 H391 0.930 . S
C400 C398 1.384 . S
C400 C401 1.372 . S
C401 C400 1.372 . S
C401 C402 1.400 . S
C401 C406 1.490 . S
C402 H392 0.930 . S
C402 C401 1.400 . S
C402 C405 1.386 . S
H403 C419 0.930 . S
H404 C420 0.931 . S
C405 H393 0.929 . S
C405 C399 1.390 . S
C405 C402 1.386 . S
C406 C401 1.490 . S
C406 C408 1.395 . S
C406 C409 1.403 . S
H407 C413 0.930 . S
C408 H394 0.930 . S
C408 C406 1.395 . S
C408 C411 1.403 . S
C409 C406 1.403 . S
C409 C410 1.524 . S
C409 C413 1.400 . S
C410 H395 0.960 . S
C410 H396 0.960 . S
C410 H397 0.960 . S
C410 C409 1.524 . S
C411 C408 1.403 . S
C411 C412 1.392 . S
C411 C415 1.495 . S
C412 C411 1.392 . S
C412 C413 1.385 . S
C412 C414 1.478 . S
C413 H407 0.930 . S
C413 C409 1.400 . S
C413 C412 1.385 . S
C414 C412 1.478 . S
C414 C416 1.381 . S
C414 C420 1.383 . S
C415 C411 1.495 . S
C415 H421 0.959 . S
C415 H422 0.961 . S
C415 H423 0.960 . S
C416 C414 1.381 . S
C416 C417 1.394 . S
C416 H424 0.930 . S
C417 C416 1.394 . S
C417 C418 1.383 . S
C417 H425 0.929 . S
C418 C417 1.383 . S
C418 C419 1.377 . S
C419 H403 0.930 . S
C419 C418 1.377 . S
C419 C420 1.379 . S
C420 H404 0.931 . S
C420 C414 1.383 . S
C420 C419 1.379 . S
H421 C415 0.959 . S
H422 C415 0.961 . S
H423 C415 0.960 . S
H424 C416 0.930 . S
H425 C417 0.929 . S
H426 C434 0.929 . S
H427 C436 0.930 . S
H428 C438 0.930 . S
H429 C441 0.929 . S
H430 C444 0.930 . S
H431 C446 0.960 . S
H432 C446 0.960 . S
H433 C446 0.960 . S
C434 H426 0.929 . S
C434 C435 1.377 . S
C434 C436 1.384 . S
C435 C434 1.377 . S
C435 C441 1.390 . S
C436 H427 0.930 . S
C436 C434 1.384 . S
C436 C437 1.372 . S
C437 C436 1.372 . S
C437 C438 1.400 . S
C437 C442 1.490 . S
C438 H428 0.930 . S
C438 C437 1.400 . S
C438 C441 1.386 . S
H439 C455 0.930 . S
H440 C456 0.931 . S
C441 H429 0.929 . S
C441 C435 1.390 . S
C441 C438 1.386 . S
C442 C437 1.490 . S
C442 C444 1.395 . S
C442 C445 1.403 . S
H443 C449 0.930 . S
C444 H430 0.930 . S
C444 C442 1.395 . S
C444 C447 1.403 . S
C445 C442 1.403 . S
C445 C446 1.524 . S
C445 C449 1.400 . S
C446 H431 0.960 . S
C446 H432 0.960 . S
C446 H433 0.960 . S
C446 C445 1.524 . S
C447 C444 1.403 . S
C447 C448 1.392 . S
C447 C451 1.495 . S
C448 C447 1.392 . S
C448 C449 1.385 . S
C448 C450 1.478 . S
C449 H443 0.930 . S
C449 C445 1.400 . S
C449 C448 1.385 . S
C450 C448 1.478 . S
C450 C452 1.381 . S
C450 C456 1.383 . S
C451 C447 1.495 . S
C451 H457 0.959 . S
C451 H458 0.961 . S
C451 H459 0.960 . S
C452 C450 1.381 . S
C452 C453 1.394 . S
C452 H460 0.930 . S
C453 C452 1.394 . S
C453 C454 1.383 . S
C453 H461 0.929 . S
C454 C453 1.383 . S
C454 C455 1.377 . S
C455 H439 0.930 . S
C455 C454 1.377 . S
C455 C456 1.379 . S
C456 H440 0.931 . S
C456 C450 1.383 . S
C456 C455 1.379 . S
H457 C451 0.959 . S
H458 C451 0.961 . S
H459 C451 0.960 . S
H460 C452 0.930 . S
H461 C453 0.929 . S
H462 C470 0.929 . S
H463 C472 0.930 . S
H464 C474 0.930 . S
H465 C477 0.929 . S
H466 C480 0.930 . S
H467 C482 0.960 . S
H468 C482 0.960 . S
H469 C482 0.960 . S
C470 H462 0.929 . S
C470 C471 1.377 . S
C470 C472 1.384 . S
C471 C470 1.377 . S
C471 C477 1.390 . S
C472 H463 0.930 . S
C472 C470 1.384 . S
C472 C473 1.372 . S
C473 C472 1.372 . S
C473 C474 1.400 . S
C473 C478 1.490 . S
C474 H464 0.930 . S
C474 C473 1.400 . S
C474 C477 1.386 . S
H475 C491 0.930 . S
H476 C492 0.931 . S
C477 H465 0.929 . S
C477 C471 1.390 . S
C477 C474 1.386 . S
C478 C473 1.490 . S
C478 C480 1.395 . S
C478 C481 1.403 . S
H479 C485 0.930 . S
C480 H466 0.930 . S
C480 C478 1.395 . S
C480 C483 1.403 . S
C481 C478 1.403 . S
C481 C482 1.524 . S
C481 C485 1.400 . S
C482 H467 0.960 . S
C482 H468 0.960 . S
C482 H469 0.960 . S
C482 C481 1.524 . S
C483 C480 1.403 . S
C483 C484 1.392 . S
C483 C487 1.495 . S
C484 C483 1.392 . S
C484 C485 1.385 . S
C484 C486 1.478 . S
C485 H479 0.930 . S
C485 C481 1.400 . S
C485 C484 1.385 . S
C486 C484 1.478 . S
C486 C488 1.381 . S
C486 C492 1.383 . S
C487 C483 1.495 . S
C487 H493 0.959 . S
C487 H494 0.961 . S
C487 H495 0.960 . S
C488 C486 1.381 . S
C488 C489 1.394 . S
C488 H496 0.930 . S
C489 C488 1.394 . S
C489 C490 1.383 . S
C489 H497 0.929 . S
C490 C489 1.383 . S
C490 C491 1.377 . S
C491 H475 0.930 . S
C491 C490 1.377 . S
C491 C492 1.379 . S
C492 H476 0.931 . S
C492 C486 1.383 . S
C492 C491 1.379 . S
H493 C487 0.959 . S
H494 C487 0.961 . S
H495 C487 0.960 . S
H496 C488 0.930 . S
H497 C489 0.929 . S
H498 C506 0.929 . S
H499 C508 0.930 . S
H500 C510 0.930 . S
H501 C513 0.929 . S
H502 C516 0.930 . S
H503 C518 0.960 . S
H504 C518 0.960 . S
H505 C518 0.960 . S
C506 H498 0.929 . S
C506 C507 1.377 . S
C506 C508 1.384 . S
C507 C506 1.377 . S
C507 C513 1.390 . S
C508 H499 0.930 . S
C508 C506 1.384 . S
C508 C509 1.372 . S
C509 C508 1.372 . S
C509 C510 1.400 . S
C509 C514 1.490 . S
C510 H500 0.930 . S
C510 C509 1.400 . S
C510 C513 1.386 . S
H511 C527 0.930 . S
H512 C528 0.931 . S
C513 H501 0.929 . S
C513 C507 1.390 . S
C513 C510 1.386 . S
C514 C509 1.490 . S
C514 C516 1.395 . S
C514 C517 1.403 . S
H515 C521 0.930 . S
C516 H502 0.930 . S
C516 C514 1.395 . S
C516 C519 1.403 . S
C517 C514 1.403 . S
C517 C518 1.524 . S
C517 C521 1.400 . S
C518 H503 0.960 . S
C518 H504 0.960 . S
C518 H505 0.960 . S
C518 C517 1.524 . S
C519 C516 1.403 . S
C519 C520 1.392 . S
C519 C523 1.495 . S
C520 C519 1.392 . S
C520 C521 1.385 . S
C520 C522 1.478 . S
C521 H515 0.930 . S
C521 C517 1.400 . S
C521 C520 1.385 . S
C522 C520 1.478 . S
C522 C524 1.381 . S
C522 C528 1.383 . S
C523 C519 1.495 . S
C523 H529 0.959 . S
C523 H530 0.961 . S
C523 H531 0.960 . S
C524 C522 1.381 . S
C524 C525 1.394 . S
C524 H532 0.930 . S
C525 C524 1.394 . S
C525 C526 1.383 . S
C525 H533 0.929 . S
C526 C525 1.383 . S
C526 C527 1.377 . S
C527 H511 0.930 . S
C527 C526 1.377 . S
C527 C528 1.379 . S
C528 H512 0.931 . S
C528 C522 1.383 . S
C528 C527 1.379 . S
H529 C523 0.959 . S
H530 C523 0.961 . S
H531 C523 0.960 . S
H532 C524 0.930 . S
H533 C525 0.929 . S
H534 C542 0.929 . S
H535 C544 0.930 . S
H536 C546 0.930 . S
H537 C549 0.929 . S
H538 C552 0.930 . S
H539 C554 0.960 . S
H540 C554 0.960 . S
H541 C554 0.960 . S
C542 H534 0.929 . S
C542 C543 1.377 . S
C542 C544 1.384 . S
C543 C542 1.377 . S
C543 C549 1.390 . S
C544 H535 0.930 . S
C544 C542 1.384 . S
C544 C545 1.372 . S
C545 C544 1.372 . S
C545 C546 1.400 . S
C545 C550 1.490 . S
C546 H536 0.930 . S
C546 C545 1.400 . S
C546 C549 1.386 . S
H547 C563 0.930 . S
H548 C564 0.931 . S
C549 H537 0.929 . S
C549 C543 1.390 . S
C549 C546 1.386 . S
C550 C545 1.490 . S
C550 C552 1.395 . S
C550 C553 1.403 . S
H551 C557 0.930 . S
C552 H538 0.930 . S
C552 C550 1.395 . S
C552 C555 1.403 . S
C553 C550 1.403 . S
C553 C554 1.524 . S
C553 C557 1.400 . S
C554 H539 0.960 . S
C554 H540 0.960 . S
C554 H541 0.960 . S
C554 C553 1.524 . S
C555 C552 1.403 . S
C555 C556 1.392 . S
C555 C559 1.495 . S
C556 C555 1.392 . S
C556 C557 1.385 . S
C556 C558 1.478 . S
C557 H551 0.930 . S
C557 C553 1.400 . S
C557 C556 1.385 . S
C558 C556 1.478 . S
C558 C560 1.381 . S
C558 C564 1.383 . S
C559 C555 1.495 . S
C559 H565 0.959 . S
C559 H566 0.961 . S
C559 H567 0.960 . S
C560 C558 1.381 . S
C560 C561 1.394 . S
C560 H568 0.930 . S
C561 C560 1.394 . S
C561 C562 1.383 . S
C561 H569 0.929 . S
C562 C561 1.383 . S
C562 C563 1.377 . S
C563 H547 0.930 . S
C563 C562 1.377 . S
C563 C564 1.379 . S
C564 H548 0.931 . S
C564 C558 1.383 . S
C564 C563 1.379 . S
H565 C559 0.959 . S
H566 C559 0.961 . S
H567 C559 0.960 . S
H568 C560 0.930 . S
H569 C561 0.929 . S
H570 C578 0.929 . S
H571 C580 0.930 . S
H572 C582 0.930 . S
H573 C585 0.929 . S
H574 C588 0.930 . S
H575 C590 0.960 . S
H576 C590 0.960 . S
H577 C590 0.960 . S
C578 H570 0.929 . S
C578 C579 1.377 . S
C578 C580 1.384 . S
C579 C578 1.377 . S
C579 C585 1.390 . S
C580 H571 0.930 . S
C580 C578 1.384 . S
C580 C581 1.372 . S
C581 C580 1.372 . S
C581 C582 1.400 . S
C581 C586 1.490 . S
C582 H572 0.930 . S
C582 C581 1.400 . S
C582 C585 1.386 . S
H583 C599 0.930 . S
H584 C600 0.931 . S
C585 H573 0.929 . S
C585 C579 1.390 . S
C585 C582 1.386 . S
C586 C581 1.490 . S
C586 C588 1.395 . S
C586 C589 1.403 . S
H587 C593 0.930 . S
C588 H574 0.930 . S
C588 C586 1.395 . S
C588 C591 1.403 . S
C589 C586 1.403 . S
C589 C590 1.524 . S
C589 C593 1.400 . S
C590 H575 0.960 . S
C590 H576 0.960 . S
C590 H577 0.960 . S
C590 C589 1.524 . S
C591 C588 1.403 . S
C591 C592 1.392 . S
C591 C595 1.495 . S
C592 C591 1.392 . S
C592 C593 1.385 . S
C592 C594 1.478 . S
C593 H587 0.930 . S
C593 C589 1.400 . S
C593 C592 1.385 . S
C594 C592 1.478 . S
C594 C596 1.381 . S
C594 C600 1.383 . S
C595 C591 1.495 . S
C595 H601 0.959 . S
C595 H602 0.961 . S
C595 H603 0.960 . S
C596 C594 1.381 . S
C596 C597 1.394 . S
C596 H604 0.930 . S
C597 C596 1.394 . S
C597 C598 1.383 . S
C597 H605 0.929 . S
C598 C597 1.383 . S
C598 C599 1.377 . S
C599 H583 0.930 . S
C599 C598 1.377 . S
C599 C600 1.379 . S
C600 H584 0.931 . S
C600 C594 1.383 . S
C600 C599 1.379 . S
H601 C595 0.959 . S
H602 C595 0.961 . S
H603 C595 0.960 . S
H604 C596 0.930 . S
H605 C597 0.929 . S
H606 C614 0.929 1_455 S
H607 C616 0.930 . S
H608 C618 0.930 . S
H609 C621 0.929 . S
H610 C624 0.930 . S
H611 C626 0.960 . S
H612 C626 0.960 . S
H613 C626 0.960 . S
C614 H606 0.929 1_655 S
C614 C615 1.377 . S
C614 C616 1.384 . S
C615 C614 1.377 . S
C615 C621 1.390 . S
C616 H607 0.930 . S
C616 C614 1.384 . S
C616 C617 1.372 . S
C617 C616 1.372 . S
C617 C618 1.400 . S
C617 C622 1.490 . S
C618 H608 0.930 . S
C618 C617 1.400 . S
C618 C621 1.386 . S
H619 C635 0.930 . S
H620 C636 0.931 . S
C621 H609 0.929 . S
C621 C615 1.390 . S
C621 C618 1.386 . S
C622 C617 1.490 . S
C622 C624 1.395 . S
C622 C625 1.403 . S
H623 C629 0.930 . S
C624 H610 0.930 . S
C624 C622 1.395 . S
C624 C627 1.403 . S
C625 C622 1.403 . S
C625 C626 1.524 . S
C625 C629 1.400 . S
C626 H611 0.960 . S
C626 H612 0.960 . S
C626 H613 0.960 . S
C626 C625 1.524 . S
C627 C624 1.403 . S
C627 C628 1.392 . S
C627 C631 1.495 . S
C628 C627 1.392 . S
C628 C629 1.385 . S
C628 C630 1.478 . S
C629 H623 0.930 . S
C629 C625 1.400 . S
C629 C628 1.385 . S
C630 C628 1.478 . S
C630 C632 1.381 . S
C630 C636 1.383 . S
C631 C627 1.495 . S
C631 H637 0.959 . S
C631 H638 0.961 . S
C631 H639 0.960 . S
C632 C630 1.381 . S
C632 C633 1.394 . S
C632 H640 0.930 . S
C633 C632 1.394 . S
C633 C634 1.383 . S
C633 H641 0.929 . S
C634 C633 1.383 . S
C634 C635 1.377 . S
C635 H619 0.930 . S
C635 C634 1.377 . S
C635 C636 1.379 . S
C636 H620 0.931 . S
C636 C630 1.383 . S
C636 C635 1.379 . S
H637 C631 0.959 . S
H638 C631 0.961 . S
H639 C631 0.960 . S
H640 C632 0.930 . S
H641 C633 0.929 . S
C219 C58 1.173 . S
C238 C187 1.287 . S
C255 C139 1.512 . S
C274 C193 1.344 . S
C291 C67 1.584 . S
C310 C184 1.423 . S
C327 C154 1.201 . S
C346 C209 1.212 . S
C363 C56 1.569 . S
C382 C175 1.429 . S
C418 C192 1.497 . S
C399 C152 1.605 . S
C435 C142 1.154 . S
C454 C188 1.200 . S
C490 C205 1.502 . S
C471 C68 1.607 . S
C526 C172 1.451 . S
C507 C140 1.564 . S
C562 C208 1.292 . S
C543 C70 1.186 . S
C598 C171 1.478 . S
C579 C151 1.586 . S
C634 C196 1.366 . S
C615 C55 1.513 . S
