# Generated by pormake.
# Topology gar, (4,6)-cn, num edge types: 1
# Building blocks:
#     Node 0, Type 0, BuildingBlock: AZAVOO_clean_sbu_0, # of connection points: 4
#     Node 1, Type 0, BuildingBlock: AZAVOO_clean_sbu_0, # of connection points: 4
#     Node 2, Type 0, BuildingBlock: AZAVOO_clean_sbu_0, # of connection points: 4
#     Node 3, Type 0, BuildingBlock: AZAVOO_clean_sbu_0, # of connection points: 4
#     Node 4, Type 0, BuildingBlock: AZAVOO_clean_sbu_0, # of connection points: 4
#     Node 5, Type 0, BuildingBlock: AZAVOO_clean_sbu_0, # of connection points: 4
#     Node 6, Type 0, BuildingBlock: AZAVOO_clean_sbu_0, # of connection points: 4
#     Node 7, Type 0, BuildingBlock: AZAVOO_clean_sbu_0, # of connection points: 4
#     Node 8, Type 0, BuildingBlock: AZAVOO_clean_sbu_0, # of connection points: 4
#     Node 9, Type 0, BuildingBlock: AZAVOO_clean_sbu_0, # of connection points: 4
#     Node 10, Type 0, BuildingBlock: AZAVOO_clean_sbu_0, # of connection points: 4
#     Node 11, Type 0, BuildingBlock: AZAVOO_clean_sbu_0, # of connection points: 4
#     Node 12, Type 0, BuildingBlock: AZAVOO_clean_sbu_0, # of connection points: 4
#     Node 13, Type 0, BuildingBlock: AZAVOO_clean_sbu_0, # of connection points: 4
#     Node 14, Type 0, BuildingBlock: AZAVOO_clean_sbu_0, # of connection points: 4
#     Node 15, Type 0, BuildingBlock: AZAVOO_clean_sbu_0, # of connection points: 4
#     Node 16, Type 0, BuildingBlock: AZAVOO_clean_sbu_0, # of connection points: 4
#     Node 17, Type 0, BuildingBlock: AZAVOO_clean_sbu_0, # of connection points: 4
#     Node 18, Type 0, BuildingBlock: AZAVOO_clean_sbu_0, # of connection points: 4
#     Node 19, Type 0, BuildingBlock: AZAVOO_clean_sbu_0, # of connection points: 4
#     Node 20, Type 0, BuildingBlock: AZAVOO_clean_sbu_0, # of connection points: 4
#     Node 21, Type 0, BuildingBlock: AZAVOO_clean_sbu_0, # of connection points: 4
#     Node 22, Type 0, BuildingBlock: AZAVOO_clean_sbu_0, # of connection points: 4
#     Node 23, Type 0, BuildingBlock: AZAVOO_clean_sbu_0, # of connection points: 4
#     Node 24, Type 1, BuildingBlock: MIFKUJ_clean_sbu_0, # of connection points: 6
#     Node 25, Type 1, BuildingBlock: MIFKUJ_clean_sbu_0, # of connection points: 6
#     Node 26, Type 1, BuildingBlock: MIFKUJ_clean_sbu_0, # of connection points: 6
#     Node 27, Type 1, BuildingBlock: MIFKUJ_clean_sbu_0, # of connection points: 6
#     Node 28, Type 1, BuildingBlock: MIFKUJ_clean_sbu_0, # of connection points: 6
#     Node 29, Type 1, BuildingBlock: MIFKUJ_clean_sbu_0, # of connection points: 6
#     Node 30, Type 1, BuildingBlock: MIFKUJ_clean_sbu_0, # of connection points: 6
#     Node 31, Type 1, BuildingBlock: MIFKUJ_clean_sbu_0, # of connection points: 6
#     Node 32, Type 1, BuildingBlock: MIFKUJ_clean_sbu_0, # of connection points: 6
#     Node 33, Type 1, BuildingBlock: MIFKUJ_clean_sbu_0, # of connection points: 6
#     Node 34, Type 1, BuildingBlock: MIFKUJ_clean_sbu_0, # of connection points: 6
#     Node 35, Type 1, BuildingBlock: MIFKUJ_clean_sbu_0, # of connection points: 6
#     Node 36, Type 1, BuildingBlock: MIFKUJ_clean_sbu_0, # of connection points: 6
#     Node 37, Type 1, BuildingBlock: MIFKUJ_clean_sbu_0, # of connection points: 6
#     Node 38, Type 1, BuildingBlock: MIFKUJ_clean_sbu_0, # of connection points: 6
#     Node 39, Type 1, BuildingBlock: MIFKUJ_clean_sbu_0, # of connection points: 6
#     Edge 40, Type (0, 1), BuildingBlock: AJUNOK_clean_linker_0, # of connection points: 2
#     Edge 41, Type (0, 1), BuildingBlock: AJUNOK_clean_linker_0, # of connection points: 2
#     Edge 42, Type (0, 1), BuildingBlock: AJUNOK_clean_linker_0, # of connection points: 2
#     Edge 43, Type (0, 1), BuildingBlock: AJUNOK_clean_linker_0, # of connection points: 2
#     Edge 44, Type (0, 1), BuildingBlock: AJUNOK_clean_linker_0, # of connection points: 2
#     Edge 45, Type (0, 1), BuildingBlock: AJUNOK_clean_linker_0, # of connection points: 2
#     Edge 46, Type (0, 1), BuildingBlock: AJUNOK_clean_linker_0, # of connection points: 2
#     Edge 47, Type (0, 1), BuildingBlock: AJUNOK_clean_linker_0, # of connection points: 2
#     Edge 48, Type (0, 1), BuildingBlock: AJUNOK_clean_linker_0, # of connection points: 2
#     Edge 49, Type (0, 1), BuildingBlock: AJUNOK_clean_linker_0, # of connection points: 2
#     Edge 50, Type (0, 1), BuildingBlock: AJUNOK_clean_linker_0, # of connection points: 2
#     Edge 51, Type (0, 1), BuildingBlock: AJUNOK_clean_linker_0, # of connection points: 2
#     Edge 52, Type (0, 1), BuildingBlock: AJUNOK_clean_linker_0, # of connection points: 2
#     Edge 53, Type (0, 1), BuildingBlock: AJUNOK_clean_linker_0, # of connection points: 2
#     Edge 54, Type (0, 1), BuildingBlock: AJUNOK_clean_linker_0, # of connection points: 2
#     Edge 55, Type (0, 1), BuildingBlock: AJUNOK_clean_linker_0, # of connection points: 2
#     Edge 56, Type (0, 1), BuildingBlock: AJUNOK_clean_linker_0, # of connection points: 2
#     Edge 57, Type (0, 1), BuildingBlock: AJUNOK_clean_linker_0, # of connection points: 2
#     Edge 58, Type (0, 1), BuildingBlock: AJUNOK_clean_linker_0, # of connection points: 2
#     Edge 59, Type (0, 1), BuildingBlock: AJUNOK_clean_linker_0, # of connection points: 2
#     Edge 60, Type (0, 1), BuildingBlock: AJUNOK_clean_linker_0, # of connection points: 2
#     Edge 61, Type (0, 1), BuildingBlock: AJUNOK_clean_linker_0, # of connection points: 2
#     Edge 62, Type (0, 1), BuildingBlock: AJUNOK_clean_linker_0, # of connection points: 2
#     Edge 63, Type (0, 1), BuildingBlock: AJUNOK_clean_linker_0, # of connection points: 2
#     Edge 64, Type (0, 1), BuildingBlock: AJUNOK_clean_linker_0, # of connection points: 2
#     Edge 65, Type (0, 1), BuildingBlock: AJUNOK_clean_linker_0, # of connection points: 2
#     Edge 66, Type (0, 1), BuildingBlock: AJUNOK_clean_linker_0, # of connection points: 2
#     Edge 67, Type (0, 1), BuildingBlock: AJUNOK_clean_linker_0, # of connection points: 2
#     Edge 68, Type (0, 1), BuildingBlock: AJUNOK_clean_linker_0, # of connection points: 2
#     Edge 69, Type (0, 1), BuildingBlock: AJUNOK_clean_linker_0, # of connection points: 2
#     Edge 70, Type (0, 1), BuildingBlock: AJUNOK_clean_linker_0, # of connection points: 2
#     Edge 71, Type (0, 1), BuildingBlock: AJUNOK_clean_linker_0, # of connection points: 2
#     Edge 72, Type (0, 1), BuildingBlock: AJUNOK_clean_linker_0, # of connection points: 2
#     Edge 73, Type (0, 1), BuildingBlock: AJUNOK_clean_linker_0, # of connection points: 2
#     Edge 74, Type (0, 1), BuildingBlock: AJUNOK_clean_linker_0, # of connection points: 2
#     Edge 75, Type (0, 1), BuildingBlock: AJUNOK_clean_linker_0, # of connection points: 2
#     Edge 76, Type (0, 1), BuildingBlock: AJUNOK_clean_linker_0, # of connection points: 2
#     Edge 77, Type (0, 1), BuildingBlock: AJUNOK_clean_linker_0, # of connection points: 2
#     Edge 78, Type (0, 1), BuildingBlock: AJUNOK_clean_linker_0, # of connection points: 2
#     Edge 79, Type (0, 1), BuildingBlock: AJUNOK_clean_linker_0, # of connection points: 2
#     Edge 80, Type (0, 1), BuildingBlock: AJUNOK_clean_linker_0, # of connection points: 2
#     Edge 81, Type (0, 1), BuildingBlock: AJUNOK_clean_linker_0, # of connection points: 2
#     Edge 82, Type (0, 1), BuildingBlock: AJUNOK_clean_linker_0, # of connection points: 2
#     Edge 83, Type (0, 1), BuildingBlock: AJUNOK_clean_linker_0, # of connection points: 2
#     Edge 84, Type (0, 1), BuildingBlock: AJUNOK_clean_linker_0, # of connection points: 2
#     Edge 85, Type (0, 1), BuildingBlock: AJUNOK_clean_linker_0, # of connection points: 2
#     Edge 86, Type (0, 1), BuildingBlock: AJUNOK_clean_linker_0, # of connection points: 2
#     Edge 87, Type (0, 1), BuildingBlock: AJUNOK_clean_linker_0, # of connection points: 2
#     Edge 88, Type (0, 1), BuildingBlock: AJUNOK_clean_linker_0, # of connection points: 2
#     Edge 89, Type (0, 1), BuildingBlock: AJUNOK_clean_linker_0, # of connection points: 2
#     Edge 90, Type (0, 1), BuildingBlock: AJUNOK_clean_linker_0, # of connection points: 2
#     Edge 91, Type (0, 1), BuildingBlock: AJUNOK_clean_linker_0, # of connection points: 2
#     Edge 92, Type (0, 1), BuildingBlock: AJUNOK_clean_linker_0, # of connection points: 2
#     Edge 93, Type (0, 1), BuildingBlock: AJUNOK_clean_linker_0, # of connection points: 2
#     Edge 94, Type (0, 1), BuildingBlock: AJUNOK_clean_linker_0, # of connection points: 2
#     Edge 95, Type (0, 1), BuildingBlock: AJUNOK_clean_linker_0, # of connection points: 2
#     Edge 96, Type (0, 1), BuildingBlock: AJUNOK_clean_linker_0, # of connection points: 2
#     Edge 97, Type (0, 1), BuildingBlock: AJUNOK_clean_linker_0, # of connection points: 2
#     Edge 98, Type (0, 1), BuildingBlock: AJUNOK_clean_linker_0, # of connection points: 2
#     Edge 99, Type (0, 1), BuildingBlock: AJUNOK_clean_linker_0, # of connection points: 2
#     Edge 100, Type (0, 1), BuildingBlock: AJUNOK_clean_linker_0, # of connection points: 2
#     Edge 101, Type (0, 1), BuildingBlock: AJUNOK_clean_linker_0, # of connection points: 2
#     Edge 102, Type (0, 1), BuildingBlock: AJUNOK_clean_linker_0, # of connection points: 2
#     Edge 103, Type (0, 1), BuildingBlock: AJUNOK_clean_linker_0, # of connection points: 2
#     Edge 104, Type (0, 1), BuildingBlock: AJUNOK_clean_linker_0, # of connection points: 2
#     Edge 105, Type (0, 1), BuildingBlock: AJUNOK_clean_linker_0, # of connection points: 2
#     Edge 106, Type (0, 1), BuildingBlock: AJUNOK_clean_linker_0, # of connection points: 2
#     Edge 107, Type (0, 1), BuildingBlock: AJUNOK_clean_linker_0, # of connection points: 2
#     Edge 108, Type (0, 1), BuildingBlock: AJUNOK_clean_linker_0, # of connection points: 2
#     Edge 109, Type (0, 1), BuildingBlock: AJUNOK_clean_linker_0, # of connection points: 2
#     Edge 110, Type (0, 1), BuildingBlock: AJUNOK_clean_linker_0, # of connection points: 2
#     Edge 111, Type (0, 1), BuildingBlock: AJUNOK_clean_linker_0, # of connection points: 2
#     Edge 112, Type (0, 1), BuildingBlock: AJUNOK_clean_linker_0, # of connection points: 2
#     Edge 113, Type (0, 1), BuildingBlock: AJUNOK_clean_linker_0, # of connection points: 2
#     Edge 114, Type (0, 1), BuildingBlock: AJUNOK_clean_linker_0, # of connection points: 2
#     Edge 115, Type (0, 1), BuildingBlock: AJUNOK_clean_linker_0, # of connection points: 2
#     Edge 116, Type (0, 1), BuildingBlock: AJUNOK_clean_linker_0, # of connection points: 2
#     Edge 117, Type (0, 1), BuildingBlock: AJUNOK_clean_linker_0, # of connection points: 2
#     Edge 118, Type (0, 1), BuildingBlock: AJUNOK_clean_linker_0, # of connection points: 2
#     Edge 119, Type (0, 1), BuildingBlock: AJUNOK_clean_linker_0, # of connection points: 2
#     Edge 120, Type (0, 1), BuildingBlock: AJUNOK_clean_linker_0, # of connection points: 2
#     Edge 121, Type (0, 1), BuildingBlock: AJUNOK_clean_linker_0, # of connection points: 2
#     Edge 122, Type (0, 1), BuildingBlock: AJUNOK_clean_linker_0, # of connection points: 2
#     Edge 123, Type (0, 1), BuildingBlock: AJUNOK_clean_linker_0, # of connection points: 2
#     Edge 124, Type (0, 1), BuildingBlock: AJUNOK_clean_linker_0, # of connection points: 2
#     Edge 125, Type (0, 1), BuildingBlock: AJUNOK_clean_linker_0, # of connection points: 2
#     Edge 126, Type (0, 1), BuildingBlock: AJUNOK_clean_linker_0, # of connection points: 2
#     Edge 127, Type (0, 1), BuildingBlock: AJUNOK_clean_linker_0, # of connection points: 2
#     Edge 128, Type (0, 1), BuildingBlock: AJUNOK_clean_linker_0, # of connection points: 2
#     Edge 129, Type (0, 1), BuildingBlock: AJUNOK_clean_linker_0, # of connection points: 2
#     Edge 130, Type (0, 1), BuildingBlock: AJUNOK_clean_linker_0, # of connection points: 2
#     Edge 131, Type (0, 1), BuildingBlock: AJUNOK_clean_linker_0, # of connection points: 2
#     Edge 132, Type (0, 1), BuildingBlock: AJUNOK_clean_linker_0, # of connection points: 2
#     Edge 133, Type (0, 1), BuildingBlock: AJUNOK_clean_linker_0, # of connection points: 2
#     Edge 134, Type (0, 1), BuildingBlock: AJUNOK_clean_linker_0, # of connection points: 2
#     Edge 135, Type (0, 1), BuildingBlock: AJUNOK_clean_linker_0, # of connection points: 2
# Relax obj value: 0.137
# Max RMSD: 0.326
# Mean RMSD: 0.181
data_MOF--net-gar--node1-AZAVOO_clean_sbu_0--node2-MIFKUJ_clean_sbu_0--edge1-AJUNOK_clean_linker_0
_symmetry_space_group_name_H-M    P1
_symmetry_Int_Tables_number       1
_symmetry_cell_setting            triclinic
loop_
_symmetry_equiv_pos_as_xyz
'x, y, z'
_cell_length_a     43.216034
_cell_length_b     41.115435
_cell_length_c     40.348857
_cell_angle_alpha  98.007503
_cell_angle_beta   94.889651
_cell_angle_gamma 101.18471
loop_
_atom_site_label
_atom_site_type_symbol
_atom_site_fract_x
_atom_site_fract_y
_atom_site_fract_z
_atom_type_partial_charge
Mg0 Mg 0.01895 0.25746 0.38439 0.0
O1 O 0.02503 0.30587 0.42374 0.0
O2 O 0.98318 0.29746 0.45318 0.0
Mg3 Mg 0.94892 0.24818 0.43071 0.0
C4 C 0.00935 0.31522 0.44761 0.0
C5 C 0.07452 0.27065 0.34167 0.0
O6 O 0.04922 0.26777 0.32011 0.0
O7 O 0.03034 0.22686 0.42584 0.0
O8 O 0.98499 0.21907 0.44914 0.0
O9 O 0.99257 0.27993 0.346 0.0
O10 O 0.9699 0.25186 0.38333 0.0
C11 C 0.01291 0.21387 0.44671 0.0
C12 C 0.96715 0.26894 0.35922 0.0
O13 O 0.07086 0.26866 0.3724 0.0
Mg14 Mg 0.99506 0.75492 0.66657 0.0
O15 O 0.98593 0.70336 0.63366 0.0
O16 O 0.94062 0.69576 0.60008 0.0
Mg17 Mg 0.9193 0.74219 0.61433 0.0
C18 C 0.96537 0.68567 0.61024 0.0
C19 C 0.05906 0.73555 0.69661 0.0
O20 O 0.04066 0.71634 0.71358 0.0
O21 O 0.00675 0.7806 0.6219 0.0
O22 O 0.95943 0.77529 0.59226 0.0
O23 O 0.96864 0.73366 0.70672 0.0
O24 O 0.94699 0.75446 0.66496 0.0
C25 C 0.98949 0.7864 0.59707 0.0
C26 C 0.94376 0.74103 0.69172 0.0
O27 O 0.04687 0.75259 0.67713 0.0
Mg28 Mg 0.51317 0.76744 0.88779 0.0
O29 O 0.52008 0.81701 0.92488 0.0
O30 O 0.47892 0.81177 0.95515 0.0
Mg31 Mg 0.44329 0.76283 0.93251 0.0
C32 C 0.50533 0.82823 0.94863 0.0
C33 C 0.5732 0.76723 0.85151 0.0
O34 O 0.55064 0.75052 0.82794 0.0
O35 O 0.52233 0.73749 0.93001 0.0
O36 O 0.47644 0.73016 0.95217 0.0
O37 O 0.48959 0.78903 0.8474 0.0
O38 O 0.46381 0.76219 0.88382 0.0
C39 C 0.50417 0.72411 0.95 0.0
C40 C 0.46287 0.77811 0.85846 0.0
O41 O 0.56552 0.77817 0.88005 0.0
Mg42 Mg 0.50568 0.26938 0.17718 0.0
O43 O 0.50015 0.21676 0.14742 0.0
O44 O 0.45283 0.2024 0.11664 0.0
Mg45 Mg 0.42615 0.24463 0.13102 0.0
C46 C 0.47981 0.19617 0.1258 0.0
C47 C 0.57342 0.25464 0.19983 0.0
O48 O 0.5569 0.23022 0.21283 0.0
O49 O 0.51026 0.29201 0.12888 0.0
O50 O 0.46019 0.27992 0.10449 0.0
O51 O 0.48463 0.24957 0.22173 0.0
O52 O 0.45737 0.26292 0.17887 0.0
C53 C 0.48934 0.29429 0.10544 0.0
C54 C 0.45755 0.25265 0.20749 0.0
O55 O 0.55902 0.27368 0.185 0.0
Mg56 Mg 0.02472 0.79862 0.17305 0.0
O57 O 0.02865 0.74831 0.14404 0.0
O58 O 0.98782 0.73134 0.10375 0.0
Mg59 Mg 0.95536 0.76926 0.11023 0.0
C60 C 0.01348 0.72718 0.11911 0.0
C61 C 0.08485 0.81061 0.22529 0.0
O62 O 0.06451 0.81708 0.24642 0.0
O63 O 0.0369 0.82556 0.1288 0.0
O64 O 0.99158 0.81105 0.09423 0.0
O65 O 0.99776 0.77238 0.20961 0.0
O66 O 0.97591 0.7862 0.16344 0.0
C67 C 0.01975 0.82844 0.10235 0.0
C68 C 0.97244 0.77202 0.1898 0.0
O69 O 0.076 0.805 0.19383 0.0
Mg70 Mg 0.48156 0.72566 0.36675 0.0
O71 O 0.49442 0.77685 0.4005 0.0
O72 O 0.45586 0.7816 0.43317 0.0
Mg73 Mg 0.41762 0.73352 0.41891 0.0
C74 C 0.48261 0.79338 0.42359 0.0
C75 C 0.54564 0.75497 0.34114 0.0
O76 O 0.52974 0.77787 0.33433 0.0
O77 O 0.49288 0.70107 0.41153 0.0
O78 O 0.45216 0.70333 0.44151 0.0
O79 O 0.45778 0.74686 0.3268 0.0
O80 O 0.43399 0.72655 0.36839 0.0
C81 C 0.47842 0.69441 0.43675 0.0
C82 C 0.43278 0.74164 0.34245 0.0
O83 O 0.53218 0.73061 0.35457 0.0
Mg84 Mg 0.52727 0.28926 0.66445 0.0
O85 O 0.53067 0.23814 0.63616 0.0
O86 O 0.49034 0.22239 0.59519 0.0
Mg87 Mg 0.45826 0.26048 0.60099 0.0
C88 C 0.51545 0.21742 0.6109 0.0
C89 C 0.58788 0.30338 0.71721 0.0
O90 O 0.56639 0.30677 0.73785 0.0
O91 O 0.54001 0.31603 0.61993 0.0
O92 O 0.49465 0.30217 0.58543 0.0
O93 O 0.49872 0.26464 0.7015 0.0
O94 O 0.47802 0.2778 0.65463 0.0
C95 C 0.52291 0.31929 0.59361 0.0
C96 C 0.47363 0.26509 0.68169 0.0
O97 O 0.57918 0.29679 0.68567 0.0
Mg98 Mg 0.98416 0.23265 0.87628 0.0
O99 O 0.99255 0.28377 0.91019 0.0
O100 O 0.95142 0.2848 0.93992 0.0
Mg101 Mg 0.91614 0.23476 0.92347 0.0
C102 C 0.97827 0.29873 0.93214 0.0
C103 C 0.04673 0.2495 0.84174 0.0
O104 O 0.02694 0.25617 0.81832 0.0
O105 O 0.99423 0.20803 0.92127 0.0
O106 O 0.95108 0.20618 0.94807 0.0
O107 O 0.96096 0.25279 0.83526 0.0
O108 O 0.93529 0.22937 0.87394 0.0
C109 C 0.97846 0.19938 0.94501 0.0
C110 C 0.93463 0.2448 0.84816 0.0
O111 O 0.03628 0.24055 0.86827 0.0
Mg112 Mg 0.41795 0.05769 0.31592 0.0
O113 O 0.3883 0.00441 0.31194 0.0
O114 O 0.36315 1.00102 0.35781 0.0
Mg115 Mg 0.37894 0.05188 0.39226 0.0
C116 C 0.36914 0.98796 0.32909 0.0
C117 C 0.4519 0.04579 0.25395 0.0
O118 O 0.47509 0.05358 0.27871 0.0
O119 O 0.37243 0.07584 0.30489 0.0
O120 O 0.3507 0.07438 0.35298 0.0
O121 O 0.45991 0.04321 0.3398 0.0
O122 O 0.42348 0.06142 0.36843 0.0
C123 C 0.35034 0.08073 0.32282 0.0
C124 C 0.44897 0.04933 0.36825 0.0
O125 O 0.42387 0.04709 0.26047 0.0
Mg126 Mg 0.27848 0.11189 0.48146 0.0
O127 O 0.28219 0.1425 0.53457 0.0
O128 O 0.33089 0.17465 0.54572 0.0
Mg129 Mg 0.35762 0.16578 0.49943 0.0
C130 C 0.30343 0.16407 0.55434 0.0
C131 C 0.21162 0.06564 0.47605 0.0
O132 O 0.22834 0.04369 0.46514 0.0
O133 O 0.27403 0.15735 0.45516 0.0
O134 O 0.32396 0.18679 0.46431 0.0
O135 O 0.29898 0.07221 0.50351 0.0
O136 O 0.32753 0.11502 0.4851 0.0
C137 C 0.29533 0.18219 0.4506 0.0
C138 C 0.32666 0.08858 0.49903 0.0
O139 O 0.22522 0.09647 0.48332 0.0
Mg140 Mg 0.12408 0.99663 0.79919 0.0
O141 O 0.15661 0.0482 0.80236 0.0
O142 O 0.18927 0.05955 0.85006 0.0
Mg143 Mg 0.17371 0.01599 0.87957 0.0
C144 C 0.17958 0.06735 0.82203 0.0
C145 C 0.09732 0.01309 0.72851 0.0
O146 O 0.08541 0.03524 0.74729 0.0
O147 O 0.16524 0.97064 0.7902 0.0
O148 O 0.19244 0.97931 0.84126 0.0
O149 O 0.08698 0.01893 0.82434 0.0
O150 O 0.12514 1.00074 0.85157 0.0
C151 C 0.18784 0.96584 0.81021 0.0
C152 C 0.10043 0.01386 0.85254 0.0
O153 O 0.11338 0.99494 0.74264 0.0
Mg154 Mg 0.2747 0.9011 0.01738 0.0
O155 O 0.26464 0.85957 0.97053 0.0
O156 O 0.30272 0.82988 0.97557 0.0
Mg157 Mg 0.33791 0.85325 0.02185 0.0
C158 C 0.2776 0.83512 0.96003 0.0
C159 C 0.22341 0.93944 0.03242 0.0
O160 O 0.24659 0.95199 0.05679 0.0
O161 O 0.25799 0.8626 0.05099 0.0
O162 O 0.29963 0.83812 0.05547 0.0
O163 O 0.30515 0.93681 0.99038 0.0
O164 O 0.32187 0.90001 0.01874 0.0
C165 C 0.27249 0.84204 0.06347 0.0
C166 C 0.32804 0.92298 0.00027 0.0
O167 O 0.22649 0.91504 0.01068 0.0
Mg168 Mg 0.29152 0.39546 0.06405 0.0
O169 O 0.28364 0.36346 0.01111 0.0
O170 O 0.32217 0.33444 0.00777 0.0
Mg171 Mg 0.35656 0.35052 0.05671 0.0
C172 C 0.29715 0.34225 0.9948 0.0
C173 C 0.23491 0.42655 0.03933 0.0
O174 O 0.25721 0.44003 0.02225 0.0
O175 O 0.27591 0.3491 0.08991 0.0
O176 O 0.31982 0.32795 0.09037 0.0
O177 O 0.32115 0.43882 0.04549 0.0
O178 O 0.34078 0.39863 0.06487 0.0
C179 C 0.29212 0.32833 0.09916 0.0
C180 C 0.3455 0.4258 0.05184 0.0
O181 O 0.24107 0.40565 0.05819 0.0
Mg182 Mg 0.78899 0.13986 0.0009 0.0
O183 O 0.79891 0.17086 0.05299 0.0
O184 O 0.84858 0.20002 0.06398 0.0
Mg185 Mg 0.87174 0.18411 0.01651 0.0
C186 C 0.8207 0.19181 0.07245 0.0
C187 C 0.72677 0.1161 0.03027 0.0
O188 O 0.74709 0.10394 0.04848 0.0
O189 O 0.7891 0.1879 0.9794 0.0
O190 O 0.84051 0.21275 0.98719 0.0
O191 O 0.80342 0.09641 0.01971 0.0
O192 O 0.83639 0.13593 0.00045 0.0
C193 C 0.81167 0.21202 0.97629 0.0
C194 C 0.83178 0.10855 0.01323 0.0
O195 O 0.73658 0.13263 0.00746 0.0
Mg196 Mg 0.14265 0.49789 0.28894 0.0
O197 O 0.16895 0.55244 0.29168 0.0
O198 O 0.19654 0.56771 0.34283 0.0
Mg199 Mg 0.18517 0.52535 0.37363 0.0
C200 C 0.18825 0.5739 0.31363 0.0
C201 C 0.10056 0.48015 0.22409 0.0
O202 O 0.0836 0.46796 0.24676 0.0
O203 O 0.18865 0.47838 0.28603 0.0
O204 O 0.20996 0.49185 0.33982 0.0
O205 O 0.10121 0.51584 0.30739 0.0
O206 O 0.14067 0.50564 0.34019 0.0
C207 C 0.20992 0.47728 0.30975 0.0
C208 C 0.11435 0.51585 0.33739 0.0
O209 O 0.12991 0.49293 0.23272 0.0
Mg210 Mg 0.79202 0.89373 0.56605 0.0
O211 O 0.78361 0.86391 0.51251 0.0
O212 O 0.81914 0.8316 0.50597 0.0
Mg213 Mg 0.85232 0.84298 0.55596 0.0
C214 C 0.79529 0.8424 0.49437 0.0
C215 C 0.7372 0.93258 0.57549 0.0
O216 O 0.75884 0.94967 0.59977 0.0
O217 O 0.77317 0.84657 0.58953 0.0
O218 O 0.81298 0.81929 0.5864 0.0
O219 O 0.82409 0.93613 0.54914 0.0
O220 O 0.84075 0.89347 0.56729 0.0
C221 C 0.78616 0.82237 0.59619 0.0
C222 C 0.84709 0.92093 0.55474 0.0
O223 O 0.74293 0.9069 0.55758 0.0
Mg224 Mg 0.9024 0.02062 0.26328 0.0
O225 O 0.86835 0.96767 0.25748 0.0
O226 O 0.83767 0.972 0.29928 0.0
Mg227 Mg 0.85319 0.02276 0.3333 0.0
C228 C 0.84564 0.95521 0.27353 0.0
C229 C 0.94918 0.0277 0.21148 0.0
O230 O 0.96377 0.04562 0.24001 0.0
O231 O 0.86212 0.04636 0.24547 0.0
O232 O 0.83714 0.05023 0.29171 0.0
O233 O 0.93861 0.0046 0.29743 0.0
O234 O 0.8997 0.02755 0.31468 0.0
C235 C 0.84095 0.05673 0.26212 0.0
C236 C 0.92409 0.01534 0.32214 0.0
O237 O 0.9205 0.01212 0.21116 0.0
Mg238 Mg 0.27313 0.61756 0.51256 0.0
O239 O 0.2818 0.64742 0.56577 0.0
O240 O 0.33046 0.67968 0.57488 0.0
Mg241 Mg 0.35499 0.6661 0.52816 0.0
C242 C 0.30323 0.66984 0.58434 0.0
C243 C 0.20813 0.59129 0.53886 0.0
O244 O 0.2268 0.57981 0.55972 0.0
O245 O 0.27074 0.66598 0.49255 0.0
O246 O 0.3217 0.69234 0.49899 0.0
O247 O 0.29077 0.57328 0.52776 0.0
O248 O 0.32099 0.61763 0.51315 0.0
C249 C 0.29248 0.69059 0.48879 0.0
C250 C 0.31864 0.58885 0.52285 0.0
O251 O 0.22013 0.60724 0.51662 0.0
Mg252 Mg 0.40126 0.50794 0.76103 0.0
O253 O 0.36651 0.45559 0.75505 0.0
O254 O 0.33821 0.45976 0.79899 0.0
Mg255 Mg 0.35586 0.50919 0.83425 0.0
C256 C 0.34435 0.44346 0.77192 0.0
C257 C 0.4453 0.51468 0.7064 0.0
O258 O 0.46217 0.53066 0.73465 0.0
O259 O 0.36047 0.5342 0.74648 0.0
O260 O 0.33817 0.5371 0.79444 0.0
O261 O 0.43867 0.49027 0.79187 0.0
O262 O 0.40094 0.51288 0.81279 0.0
C263 C 0.34028 0.54419 0.76484 0.0
C264 C 0.42525 0.49979 0.81794 0.0
O265 O 0.41639 0.50069 0.70751 0.0
Mg266 Mg 0.64647 0.0082 0.78315 0.0
O267 O 0.6747 0.05998 0.77842 0.0
O268 O 0.70868 0.07763 0.82523 0.0
Mg269 Mg 0.69984 0.03871 0.8605 0.0
C270 C 0.6968 0.08196 0.79652 0.0
C271 C 0.59962 0.98684 0.72065 0.0
O272 O 0.58286 0.97751 0.74466 0.0
O273 O 0.68862 0.98362 0.77544 0.0
O274 O 0.71733 0.99884 0.82572 0.0
O275 O 0.60984 0.03216 0.80449 0.0
O276 O 0.6506 0.02143 0.83518 0.0
C277 C 0.71201 0.98175 0.79616 0.0
C278 C 0.62562 0.03436 0.83372 0.0
O279 O 0.62915 0.99915 0.72796 0.0
Mg280 Mg 0.77757 0.61674 0.98103 0.0
O281 O 0.77529 0.64728 0.03234 0.0
O282 O 0.81939 0.68665 0.04658 0.0
Mg283 Mg 0.85129 0.67867 0.00412 0.0
C284 C 0.79223 0.67184 0.05292 0.0
C285 C 0.71195 0.5671 0.97894 0.0
O286 O 0.7301 0.54493 0.97557 0.0
O287 O 0.77085 0.65985 0.95173 0.0
O288 O 0.81818 0.69469 0.96369 0.0
O289 O 0.79971 0.58081 0.00726 0.0
O290 O 0.8274 0.6247 0.9897 0.0
C291 C 0.79033 0.68628 0.94748 0.0
C292 C 0.82719 0.59908 0.00498 0.0
O293 O 0.7242 0.59794 0.97964 0.0
Mg294 Mg 0.92546 0.56876 0.82215 0.0
O295 O 0.90353 0.51298 0.81775 0.0
O296 O 0.87736 0.50353 0.86192 0.0
Mg297 Mg 0.88523 0.55423 0.89636 0.0
C298 C 0.88629 0.49318 0.83371 0.0
C299 C 0.95028 0.53717 0.76101 0.0
O300 O 0.96184 0.52358 0.78557 0.0
O301 O 0.87632 0.57741 0.80894 0.0
O302 O 0.85352 0.57154 0.85596 0.0
O303 O 0.97023 0.56276 0.84764 0.0
O304 O 0.92933 0.57262 0.87424 0.0
C305 C 0.85268 0.57776 0.82572 0.0
C306 C 0.95723 0.56551 0.87528 0.0
O307 O 0.9335 0.55891 0.76777 0.0
Mg308 Mg 0.75005 0.37216 0.52067 0.0
O309 O 0.75616 0.34871 0.46633 0.0
O310 O 0.79553 0.3199 0.4702 0.0
Mg311 Mg 0.80498 0.3134 0.52495 0.0
C312 C 0.77535 0.33185 0.45307 0.0
C313 C 0.70937 0.42083 0.52949 0.0
O314 O 0.72973 0.42548 0.55669 0.0
O315 O 0.71645 0.32383 0.52659 0.0
O316 O 0.75158 0.29427 0.51769 0.0
O317 O 0.79105 0.41262 0.51948 0.0
O318 O 0.79595 0.3648 0.53652 0.0
C319 C 0.73397 0.30561 0.53804 0.0
C320 C 0.80925 0.39317 0.52857 0.0
O321 O 0.70988 0.39701 0.50584 0.0
Mg322 Mg 0.62883 0.50084 0.2979 0.0
O323 O 0.657 0.55495 0.30043 0.0
O324 O 0.69029 0.56776 0.34785 0.0
Mg325 Mg 0.67861 0.52395 0.37793 0.0
C326 C 0.67938 0.57519 0.32008 0.0
C327 C 0.60098 0.51665 0.2288 0.0
O328 O 0.59041 0.53908 0.24873 0.0
O329 O 0.67311 0.47996 0.28883 0.0
O330 O 0.70083 0.49012 0.33964 0.0
O331 O 0.58842 0.51754 0.32142 0.0
O332 O 0.62983 0.50656 0.35041 0.0
C333 C 0.69681 0.47706 0.30846 0.0
C334 C 0.60287 0.51577 0.35036 0.0
O335 O 0.61701 0.49776 0.24168 0.0
Zn336 Zn 0.05848 0.01962 0.04373 0.0
Zn337 Zn 0.99226 0.02414 0.01762 0.0
C338 C 0.05193 0.95836 0.06291 0.0
O339 O 0.07016 0.97984 0.08734 0.0
C340 C 0.0027 0.08464 0.99612 0.0
O341 O 0.99028 0.06243 0.96936 0.0
O342 O 0.10564 0.01861 0.05091 0.0
O343 O 0.05507 0.03949 0.0005 0.0
O344 O 0.01216 0.00255 0.9784 0.0
C345 C 0.11193 0.9995 0.02572 0.0
O346 O 0.08957 0.9879 0.00043 0.0
O347 O 0.04012 0.96952 0.03787 0.0
C348 C 0.934 0.03806 0.02979 0.0
O349 O 0.95081 0.04661 0.05948 0.0
O350 O 0.94595 0.02386 0.00535 0.0
O351 O 0.99426 0.00563 0.06124 0.0
O352 O 0.03901 0.03891 0.08493 0.0
O353 O 0.0086 0.07457 0.02396 0.0
C354 C 0.03874 0.02061 0.97489 0.0
C355 C 0.01124 0.0225 0.08757 0.0
Zn356 Zn 0.2562 0.78223 0.32422 0.0
Zn357 Zn 0.26651 0.78768 0.25427 0.0
C358 C 0.2181 0.71533 0.30731 0.0
O359 O 0.19561 0.73048 0.31724 0.0
C360 C 0.30624 0.8518 0.26721 0.0
O361 O 0.32088 0.83564 0.24517 0.0
O362 O 0.25365 0.78144 0.37369 0.0
O363 O 0.30297 0.79866 0.31969 0.0
O364 O 0.29927 0.76443 0.27202 0.0
C365 C 0.27415 0.76584 0.38437 0.0
O366 O 0.29242 0.75416 0.36341 0.0
O367 O 0.24554 0.73266 0.30592 0.0
C368 C 0.24752 0.80145 0.19088 0.0
O369 O 0.22918 0.81606 0.20967 0.0
O370 O 0.26708 0.78661 0.20479 0.0
O371 O 0.22142 0.76929 0.25904 0.0
O372 O 0.22236 0.80478 0.30479 0.0
O373 O 0.28014 0.83647 0.27523 0.0
C374 C 0.31546 0.77983 0.29942 0.0
C375 C 0.20771 0.78867 0.27688 0.0
Zn376 Zn 0.49561 0.01515 0.54425 0.0
Zn377 Zn 0.56252 0.99152 0.52303 0.0
C378 C 0.52498 0.07933 0.5813 0.0
O379 O 0.51585 0.06346 0.60602 0.0
C380 C 0.54659 0.92935 0.48399 0.0
O381 O 0.56749 0.947 0.46812 0.0
O382 O 0.44992 0.02182 0.54337 0.0
O383 O 0.49987 0.98999 0.49952 0.0
O384 O 0.54552 0.01575 0.4871 0.0
C385 C 0.44533 0.04409 0.52551 0.0
O386 O 0.46891 0.05793 0.51022 0.0
O387 O 0.52149 0.06286 0.55165 0.0
C388 C 0.61678 0.97239 0.54805 0.0
O389 O 0.59515 0.96173 0.56722 0.0
O390 O 0.60914 0.98773 0.52419 0.0
O391 O 0.55841 0.01215 0.57035 0.0
O392 O 0.51007 0.9922 0.58161 0.0
O393 O 0.53881 0.94356 0.51117 0.0
C394 C 0.51548 0.00671 0.48009 0.0
C395 C 0.53995 0.99858 0.58974 0.0
Zn396 Zn 0.2957 0.23441 0.75827 0.0
Zn397 Zn 0.23362 0.25852 0.7865 0.0
C398 C 0.28392 0.19225 0.69562 0.0
O399 O 0.29787 0.17516 0.7153 0.0
C400 C 0.25181 0.2968 0.85169 0.0
O401 O 0.23467 0.31498 0.83691 0.0
O402 O 0.3413 0.23041 0.75343 0.0
O403 O 0.30089 0.28504 0.77192 0.0
O404 O 0.25271 0.2932 0.75934 0.0
C405 C 0.35031 0.24762 0.73076 0.0
O406 O 0.3312 0.26543 0.71862 0.0
O407 O 0.27582 0.21882 0.70907 0.0
C408 C 0.17632 0.24671 0.81394 0.0
O409 O 0.19276 0.22799 0.82882 0.0
O410 O 0.18887 0.26328 0.79238 0.0
O411 O 0.22864 0.2096 0.76732 0.0
O412 O 0.27479 0.20213 0.78804 0.0
O413 O 0.25662 0.2702 0.8344 0.0
C414 C 0.28259 0.30394 0.76331 0.0
C415 C 0.24489 0.19168 0.78141 0.0
Zn416 Zn 0.03478 0.96496 0.51785 0.0
Zn417 Zn 0.02201 0.03271 0.51572 0.0
C418 C 0.07186 0.98271 0.58217 0.0
O419 O 0.08972 0.96526 0.56559 0.0
C420 C 0.97848 0.02332 0.46056 0.0
O421 O 0.96523 0.03641 0.48586 0.0
O422 O 0.03738 0.91663 0.51854 0.0
O423 O 0.98842 0.96302 0.5051 0.0
O424 O 0.98912 0.0077 0.54195 0.0
C425 C 0.02104 0.90495 0.54056 0.0
O426 O 0.00573 0.92433 0.55852 0.0
O427 O 0.0467 0.98737 0.56653 0.0
C428 C 0.03813 0.09676 0.49957 0.0
O429 O 0.05547 0.07956 0.48191 0.0
O430 O 0.02086 0.08208 0.51943 0.0
O431 O 0.06879 0.03286 0.52445 0.0
O432 O 0.06715 0.98635 0.48998 0.0
O433 O 0.00566 0.01649 0.46668 0.0
C434 C 0.97453 0.97891 0.52645 0.0
C435 C 0.08209 0.01547 0.5038 0.0
Zn436 Zn 0.25735 0.78938 0.75523 0.0
Zn437 Zn 0.2716 0.72164 0.77356 0.0
C438 C 0.1969 0.76588 0.7171 0.0
O439 O 0.21216 0.7826 0.69585 0.0
C440 C 0.34195 0.75411 0.77573 0.0
O441 O 0.34141 0.74538 0.74308 0.0
O442 O 0.25511 0.83793 0.7531 0.0
O443 O 0.27058 0.78978 0.80441 0.0
O444 O 0.24734 0.73839 0.81036 0.0
C445 C 0.23495 0.84699 0.77167 0.0
O446 O 0.21839 0.82498 0.78741 0.0
O447 O 0.21199 0.7638 0.74486 0.0
C448 C 0.28828 0.66081 0.74872 0.0
O449 O 0.29842 0.68004 0.72689 0.0
O450 O 0.2745 0.67301 0.7728 0.0
O451 O 0.25426 0.72294 0.72617 0.0
O452 O 0.28313 0.77096 0.71985 0.0
O453 O 0.31656 0.74722 0.78933 0.0
C454 C 0.25711 0.76939 0.82239 0.0
C455 C 0.27096 0.7404 0.70813 0.0
Zn456 Zn 0.5347 0.03698 0.00702 0.0
Zn457 Zn 0.51512 0.00977 0.06381 0.0
C458 C 0.59084 0.08361 0.0333 0.0
O459 O 0.57357 0.10269 0.02019 0.0
C460 C 0.45998 0.96917 0.02755 0.0
O461 O 0.47212 0.94765 0.04299 0.0
O462 O 0.54349 0.05031 0.9625 0.0
O463 O 0.52438 0.98599 0.99649 0.0
O464 O 0.54166 0.97706 0.04639 0.0
C465 C 0.5682 0.0402 0.95446 0.0
O466 O 0.58097 0.02149 0.97322 0.0
O467 O 0.57798 0.0532 0.03408 0.0
C468 C 0.47878 0.01408 0.11651 0.0
O469 O 0.46463 0.02881 0.09456 0.0
O470 O 0.50168 1.0006 0.1082 0.0
O471 O 0.53184 0.05962 0.07427 0.0
O472 O 0.5047 0.06423 0.0278 0.0
O473 O 0.47472 0.99954 0.03214 0.0
C474 C 0.53465 0.96678 0.01493 0.0
C475 C 0.51503 0.07583 0.05843 0.0
Zn476 Zn 0.27143 0.22384 0.2627 0.0
Zn477 Zn 0.2666 0.29662 0.29513 0.0
C478 C 0.34052 0.22913 0.27071 0.0
O479 O 0.33423 0.2022 0.28508 0.0
C480 C 0.19796 0.29339 0.29053 0.0
O481 O 0.2045 0.31885 0.27411 0.0
O482 O 0.27156 0.17434 0.25249 0.0
O483 O 0.25687 0.23034 0.30962 0.0
O484 O 0.29045 0.27731 0.33045 0.0
C485 C 0.25992 0.15468 0.27209 0.0
O486 O 0.23825 0.16328 0.29041 0.0
O487 O 0.31819 0.24401 0.2635 0.0
C488 C 0.27188 0.36576 0.28535 0.0
O489 O 0.27345 0.35266 0.25416 0.0
O490 O 0.27123 0.34712 0.30816 0.0
O491 O 0.27899 0.29052 0.24786 0.0
O492 O 0.25101 0.24149 0.22289 0.0
O493 O 0.21993 0.27843 0.29868 0.0
C494 C 0.27523 0.24863 0.33438 0.0
C495 C 0.26581 0.27105 0.22103 0.0
Zn496 Zn 0.53329 0.4707 0.02082 0.0
Zn497 Zn 0.52107 0.53972 0.015 0.0
C498 C 0.57053 0.48917 0.08325 0.0
O499 O 0.58811 0.47247 0.06536 0.0
C500 C 0.47993 0.52196 0.9566 0.0
O501 O 0.46375 0.53652 0.97821 0.0
O502 O 0.53543 0.42228 0.02318 0.0
O503 O 0.48718 0.46897 0.00659 0.0
O504 O 0.48767 0.51537 0.04097 0.0
C505 C 0.51527 0.41006 0.04171 0.0
O506 O 0.49776 0.42923 0.05634 0.0
O507 O 0.54459 0.4934 0.06897 0.0
C508 C 0.53344 0.60511 0.99761 0.0
O509 O 0.55362 0.59101 0.98114 0.0
O510 O 0.51659 0.58817 0.01622 0.0
O511 O 0.56789 0.54069 0.0252 0.0
O512 O 0.56658 0.49209 0.99391 0.0
O513 O 0.50795 0.51958 0.96652 0.0
C514 C 0.47296 0.48637 0.02621 0.0
C515 C 0.58141 0.52177 0.00622 0.0
Zn516 Zn 0.77345 0.31004 0.24529 0.0
Zn517 Zn 0.7822 0.23955 0.25999 0.0
C518 C 0.71142 0.28874 0.21252 0.0
O519 O 0.7251 0.30771 0.19201 0.0
C520 C 0.83808 0.25635 0.30259 0.0
O521 O 0.81722 0.24119 0.32028 0.0
O522 O 0.76683 0.3579 0.24438 0.0
O523 O 0.79092 0.30895 0.29262 0.0
O524 O 0.75977 0.26095 0.29676 0.0
C525 C 0.77543 0.38081 0.27007 0.0
O526 O 0.79506 0.37582 0.29462 0.0
O527 O 0.72823 0.28398 0.23807 0.0
C528 C 0.79642 0.17642 0.23926 0.0
O529 O 0.81083 0.19502 0.21889 0.0
O530 O 0.78033 0.1898 0.26035 0.0
O531 O 0.76751 0.24269 0.21244 0.0
O532 O 0.79704 0.2912 0.20774 0.0
O533 O 0.82901 0.2596 0.27261 0.0
C534 C 0.7743 0.29049 0.31008 0.0
C535 C 0.78523 0.2606 0.1955 0.0
Zn536 Zn 0.01331 0.51597 0.50498 0.0
Zn537 Zn 0.00033 0.49282 0.56562 0.0
C538 C 0.07061 0.56224 0.53074 0.0
O539 O 0.05501 0.58106 0.51491 0.0
C540 C 0.94511 0.44317 0.54753 0.0
O541 O 0.96299 0.42838 0.56589 0.0
O542 O 0.02386 0.52703 0.46017 0.0
O543 O 0.00262 0.46556 0.49727 0.0
O544 O 0.02852 0.46281 0.54565 0.0
C545 C 0.04825 0.51547 0.4537 0.0
O546 O 0.05952 0.49727 0.47419 0.0
O547 O 0.05624 0.53278 0.53332 0.0
C548 C 0.97309 0.50278 0.62244 0.0
O549 O 0.95683 0.51464 0.59964 0.0
O550 O 0.9955 0.48865 0.61368 0.0
O551 O 0.00978 0.54377 0.5694 0.0
O552 O 0.98174 0.54268 0.52165 0.0
O553 O 0.95652 0.47258 0.54203 0.0
C554 C 0.01844 0.44997 0.51516 0.0
C555 C 0.99199 0.55731 0.55141 0.0
Zn556 Zn 0.79187 0.74364 0.25665 0.0
Zn557 Zn 0.73279 0.76895 0.28482 0.0
C558 C 0.76783 0.7028 0.19191 0.0
O559 O 0.77225 0.67885 0.20907 0.0
C560 C 0.75022 0.8048 0.35051 0.0
O561 O 0.73496 0.82436 0.33542 0.0
O562 O 0.8352 0.73438 0.25115 0.0
O563 O 0.80168 0.79422 0.27197 0.0
O564 O 0.75446 0.80487 0.25967 0.0
C565 C 0.8463 0.74949 0.22797 0.0
O566 O 0.82951 0.76818 0.21357 0.0
O567 O 0.77083 0.73248 0.20776 0.0
C568 C 0.6745 0.75643 0.30901 0.0
O569 O 0.68947 0.73508 0.32141 0.0
O570 O 0.68866 0.77578 0.29054 0.0
O571 O 0.72476 0.71935 0.26526 0.0
O572 O 0.77059 0.71181 0.28622 0.0
O573 O 0.75471 0.77815 0.33308 0.0
C574 C 0.78455 0.81439 0.26388 0.0
C575 C 0.74081 0.70124 0.27933 0.0
Zn576 Zn 0.76401 0.28821 0.81232 0.0
Zn577 Zn 0.78139 0.30024 0.74246 0.0
C578 C 0.72488 0.22234 0.78658 0.0
O579 O 0.70132 0.23735 0.79285 0.0
C580 C 0.82724 0.35972 0.76256 0.0
O581 O 0.84226 0.34181 0.74253 0.0
O582 O 0.76079 0.28515 0.86109 0.0
O583 O 0.81039 0.30357 0.80952 0.0
O584 O 0.80898 0.27128 0.76098 0.0
C585 C 0.78349 0.30006 0.88347 0.0
O586 O 0.80529 0.32395 0.87579 0.0
O587 O 0.75309 0.23953 0.79123 0.0
C588 C 0.7712 0.32236 0.68213 0.0
O589 O 0.75892 0.34201 0.70347 0.0
O590 O 0.78528 0.30108 0.69346 0.0
O591 O 0.73414 0.28758 0.74301 0.0
O592 O 0.73179 0.31275 0.79413 0.0
O593 O 0.79876 0.34732 0.76664 0.0
C594 C 0.82262 0.28361 0.79043 0.0
C595 C 0.71901 0.30215 0.76404 0.0
Zn596 Zn 0.76119 0.71582 0.75961 0.0
Zn597 Zn 0.75739 0.79294 0.78504 0.0
C598 C 0.82019 0.71545 0.73823 0.0
O599 O 0.80169 0.6894 0.71898 0.0
C600 C 0.70428 0.79163 0.8201 0.0
O601 O 0.72748 0.81012 0.84192 0.0
O602 O 0.75831 0.66551 0.75774 0.0
O603 O 0.74454 0.72926 0.80456 0.0
O604 O 0.78124 0.77445 0.82147 0.0
C605 C 0.77395 0.66156 0.78458 0.0
O606 O 0.78775 0.68816 0.80639 0.0
O607 O 0.80841 0.73348 0.76002 0.0
C608 C 0.75026 0.8553 0.77249 0.0
O609 O 0.73223 0.83412 0.74776 0.0
O610 O 0.76603 0.84357 0.79437 0.0
O611 O 0.76392 0.78286 0.73569 0.0
O612 O 0.7434 0.72919 0.71619 0.0
O613 O 0.71085 0.77992 0.79124 0.0
C614 C 0.76432 0.74773 0.8281 0.0
C615 C 0.75355 0.75917 0.71113 0.0
Zn616 Zn 0.55562 0.51311 0.54177 0.0
Zn617 Zn 0.4897 0.52076 0.51245 0.0
C618 C 0.55125 0.45068 0.55826 0.0
O619 O 0.56844 0.47164 0.58374 0.0
C620 C 0.49976 0.58105 0.49185 0.0
O621 O 0.48557 0.5588 0.46578 0.0
O622 O 0.60275 0.51372 0.54996 0.0
O623 O 0.55334 0.53525 0.50013 0.0
O624 O 0.51059 0.50222 0.47205 0.0
C625 C 0.61019 0.49648 0.52416 0.0
O626 O 0.58854 0.4851 0.49815 0.0
O627 O 0.53865 0.46252 0.53412 0.0
C628 C 0.43488 0.5387 0.5285 0.0
O629 O 0.45649 0.55193 0.5542 0.0
O630 O 0.44249 0.52017 0.50369 0.0
O631 O 0.49179 0.49942 0.55456 0.0
O632 O 0.53535 0.53116 0.58248 0.0
O633 O 0.50674 0.5712 0.51955 0.0
C634 C 0.53863 0.5193 0.47226 0.0
C635 C 0.507 0.51496 0.58235 0.0
Zn636 Zn 0.99704 0.52695 0.0536 0.0
Zn637 Zn 0.06101 0.49828 0.02989 0.0
C638 C 0.02874 0.59075 0.09041 0.0
O639 O 0.02188 0.57484 0.11576 0.0
C640 C 0.03752 0.43731 0.98896 0.0
O641 O 0.05747 0.4539 0.97131 0.0
O642 O 0.95153 0.53524 0.05447 0.0
O643 O 0.99861 0.5038 0.00699 0.0
O644 O 0.04655 0.52631 0.99737 0.0
C645 C 0.94673 0.55751 0.03658 0.0
O646 O 0.96995 0.57077 0.02051 0.0
O647 O 0.02358 0.57416 0.06075 0.0
C648 C 0.11357 0.46925 0.04195 0.0
O649 O 0.09325 0.45525 0.06089 0.0
O650 O 0.1056 0.4909 0.02506 0.0
O651 O 0.06159 0.51784 0.07811 0.0
O652 O 0.01255 0.50225 0.08986 0.0
O653 O 0.03331 0.45184 0.01768 0.0
C654 C 0.01672 0.52003 0.98908 0.0
C655 C 0.04238 0.50564 0.09747 0.0
C656 C 0.01535 0.16125 0.95574 0.0
C657 C 0.9904 0.17644 0.96604 0.0
C658 C 0.02195 0.13331 0.96887 0.0
C659 C 0.00462 0.12014 0.9935 0.0
H660 H 0.02822 0.16906 0.93533 0.0
H661 H 0.03903 0.12033 0.95774 0.0
S662 S 0.94184 0.15455 0.03454 0.0
N663 N 0.95162 0.17909 0.0063 0.0
N664 N 0.96491 0.12684 0.03148 0.0
C665 C 0.98227 0.13723 0.00694 0.0
C666 C 0.97497 0.1654 0.99311 0.0
C667 C 0.13082 0.82068 0.27037 0.0
C668 C 0.11635 0.80538 0.23792 0.0
C669 C 0.16028 0.81506 0.283 0.0
C670 C 0.17603 0.79347 0.26384 0.0
H671 H 0.11943 0.83736 0.28601 0.0
H672 H 0.17076 0.82775 0.30793 0.0
S673 S 0.14685 0.74549 0.17801 0.0
N674 N 0.11934 0.76687 0.18731 0.0
N675 N 0.174 0.75559 0.21106 0.0
C676 C 0.16134 0.77746 0.23154 0.0
C677 C 0.13172 0.78363 0.21856 0.0
C678 C 0.48753 0.84601 0.46517 0.0
C679 C 0.50017 0.8275 0.4395 0.0
C680 C 0.503 0.87863 0.47993 0.0
C681 C 0.53163 0.89418 0.46949 0.0
H682 H 0.46529 0.83542 0.47383 0.0
H683 H 0.49205 0.89199 0.49919 0.0
S684 S 0.57603 0.85616 0.40483 0.0
N685 N 0.5441 0.82691 0.40546 0.0
N686 N 0.57297 0.88814 0.4331 0.0
C687 C 0.54496 0.87582 0.44439 0.0
C688 C 0.52931 0.84254 0.42945 0.0
C689 C 0.437 0.24523 0.72332 0.0
C690 C 0.4412 0.25523 0.69164 0.0
C691 C 0.40718 0.24118 0.73555 0.0
C692 C 0.38068 0.24722 0.71657 0.0
H693 H 0.45711 0.24182 0.73942 0.0
H694 H 0.40524 0.23481 0.76055 0.0
S695 S 0.37769 0.26922 0.6303 0.0
N696 N 0.41511 0.2679 0.64049 0.0
N697 N 0.35958 0.25988 0.6631 0.0
C698 C 0.38411 0.25513 0.6841 0.0
C699 C 0.41424 0.25922 0.67172 0.0
C700 C 0.02796 0.83889 0.59361 0.0
C701 C 0.00366 0.81202 0.57735 0.0
C702 C 0.03589 0.86824 0.5796 0.0
C703 C 0.02051 0.87124 0.54851 0.0
H704 H 0.03894 0.83859 0.6187 0.0
H705 H 0.05248 0.8896 0.59431 0.0
S706 S 0.96036 0.80578 0.49258 0.0
N707 N 0.96764 0.78856 0.52628 0.0
N708 N 0.98351 0.84367 0.49953 0.0
C709 C 0.99875 0.84343 0.53032 0.0
C710 C 0.99012 0.81372 0.54485 0.0
C711 C 0.43073 0.77545 0.80347 0.0
C712 C 0.43238 0.77848 0.8388 0.0
C713 C 0.40149 0.76934 0.78328 0.0
C714 C 0.37272 0.76639 0.79763 0.0
H715 H 0.45205 0.77582 0.7911 0.0
H716 H 0.40147 0.76546 0.75617 0.0
S717 S 0.36475 0.77914 0.8894 0.0
N718 N 0.40325 0.7827 0.8875 0.0
N719 N 0.34828 0.77185 0.84992 0.0
C720 C 0.37431 0.77219 0.83315 0.0
C721 C 0.40412 0.778 0.85363 0.0
C722 C 0.47282 0.14812 0.07812 0.0
C723 C 0.48851 0.16492 0.10968 0.0
C724 C 0.48178 0.11963 0.06154 0.0
C725 C 0.50657 0.10656 0.076 0.0
H726 H 0.45376 0.15733 0.06578 0.0
H727 H 0.46899 0.10766 0.03729 0.0
S728 S 0.55464 0.14049 0.15879 0.0
N729 N 0.52969 0.16583 0.15508 0.0
N730 N 0.54638 0.11239 0.12413 0.0
C731 C 0.5222 0.12286 0.10776 0.0
C732 C 0.51324 0.15198 0.12451 0.0
C733 C 0.11087 0.29056 0.30035 0.0
C734 C 0.10637 0.27585 0.32955 0.0
C735 C 0.14035 0.29552 0.28765 0.0
C736 C 0.16647 0.28534 0.30316 0.0
H737 H 0.09152 0.29881 0.28736 0.0
H738 H 0.14266 0.30754 0.26548 0.0
S739 S 0.16701 0.24437 0.37965 0.0
N740 N 0.13046 0.25056 0.37336 0.0
N741 N 0.18574 0.2592 0.34917 0.0
C742 C 0.16219 0.26996 0.33206 0.0
C743 C 0.13224 0.26547 0.34537 0.0
C744 C 0.9508 0.00649 0.15022 0.0
C745 C 0.96606 0.02621 0.18061 0.0
C746 C 0.96595 0.00509 0.12079 0.0
C747 C 0.99709 0.02347 0.12017 0.0
H748 H 0.92681 0.99207 0.14898 0.0
H749 H 0.95276 0.98961 0.09815 0.0
S750 S 0.04807 0.07847 0.19321 0.0
N751 N 0.01471 0.06414 0.20843 0.0
N752 N 0.04286 0.06154 0.15304 0.0
C753 C 0.01285 0.04298 0.15046 0.0
C754 C 0.99744 0.04436 0.18059 0.0
C755 C 0.30918 0.7414 0.4621 0.0
C756 C 0.28453 0.71595 0.46849 0.0
C757 C 0.30455 0.76052 0.4368 0.0
C758 C 0.27496 0.75551 0.41759 0.0
H759 H 0.33296 0.74502 0.47491 0.0
H760 H 0.32487 0.77758 0.43054 0.0
S761 S 0.2013 0.69638 0.4274 0.0
N762 N 0.22817 0.68994 0.45602 0.0
N763 N 0.21977 0.72645 0.40855 0.0
C764 C 0.24927 0.73281 0.4258 0.0
C765 C 0.25397 0.7129 0.45135 0.0
C766 C 0.60007 0.00781 0.66587 0.0
C767 C 0.58378 0.98786 0.68702 0.0
C768 C 0.58542 0.01127 0.63481 0.0
C769 C 0.55379 0.9949 0.62344 0.0
H770 H 0.62428 0.02145 0.67351 0.0
H771 H 0.59916 0.02714 0.61968 0.0
S772 S 0.50082 0.93879 0.66881 0.0
N773 N 0.53435 0.95088 0.69429 0.0
N774 N 0.50672 0.95736 0.63546 0.0
C775 C 0.53713 0.97469 0.64419 0.0
C776 C 0.55214 0.97115 0.67604 0.0
C777 C 0.26297 0.34339 0.94166 0.0
C778 C 0.28486 0.32846 0.95881 0.0
C779 C 0.25266 0.3329 0.90725 0.0
C780 C 0.26348 0.30676 0.88827 0.0
H781 H 0.25409 0.36393 0.95469 0.0
H782 H 0.236 0.3456 0.89548 0.0
S783 S 0.3198 0.25805 0.92115 0.0
N784 N 0.31635 0.28522 0.95414 0.0
N785 N 0.29668 0.26542 0.88953 0.0
C786 C 0.28485 0.29104 0.90513 0.0
C787 C 0.29559 0.30189 0.94028 0.0
C788 C 0.95954 0.99754 0.36563 0.0
C789 C 0.93595 0.01541 0.3577 0.0
C790 C 0.97293 0.99969 0.39903 0.0
C791 C 0.96309 0.01969 0.42567 0.0
H792 H 0.96809 0.98214 0.34586 0.0
H793 H 0.99127 0.98581 0.40395 0.0
S794 S 0.90306 0.07268 0.41825 0.0
N795 N 0.90415 0.05468 0.37935 0.0
N796 N 0.92868 0.05818 0.44177 0.0
C797 C 0.93929 0.0374 0.4181 0.0
C798 C 0.92588 0.0354 0.38421 0.0
C799 C 0.31422 0.71796 0.63263 0.0
C800 C 0.29506 0.68713 0.61635 0.0
C801 C 0.30578 0.73587 0.66157 0.0
C802 C 0.27799 0.7235 0.67551 0.0
H803 H 0.33581 0.72862 0.6228 0.0
H804 H 0.3215 0.75916 0.67349 0.0
S805 S 0.21925 0.64431 0.64251 0.0
N806 N 0.24678 0.64527 0.61657 0.0
N807 N 0.23086 0.67887 0.67042 0.0
C808 C 0.25848 0.69288 0.65935 0.0
C809 C 0.26704 0.67469 0.63 0.0
C810 C 0.57875 0.04112 0.86347 0.0
C811 C 0.61203 0.0456 0.86445 0.0
C812 C 0.56426 0.04245 0.89321 0.0
C813 C 0.58275 0.04826 0.92451 0.0
H814 H 0.56364 0.0338 0.83969 0.0
H815 H 0.53858 0.03614 0.89159 0.0
S816 S 0.67046 0.07106 0.94094 0.0
N817 N 0.66281 0.06349 0.89948 0.0
N818 N 0.63552 0.06492 0.95535 0.0
C819 C 0.6159 0.05656 0.92593 0.0
C820 C 0.63061 0.05553 0.89579 0.0
C821 C 0.30175 0.32547 0.15958 0.0
C822 C 0.2836 0.31196 0.12856 0.0
C823 C 0.29548 0.31181 0.1887 0.0
C824 C 0.27107 0.2834 0.18834 0.0
H825 H 0.32101 0.34715 0.16146 0.0
H826 H 0.3104 0.32373 0.2118 0.0
S827 S 0.21635 0.23843 0.11292 0.0
N828 N 0.23978 0.2689 0.09862 0.0
N829 N 0.22831 0.24229 0.15359 0.0
C830 C 0.25268 0.26935 0.15724 0.0
C831 C 0.25882 0.28387 0.12735 0.0
C832 C 0.18934 0.97709 0.05741 0.0
C833 C 0.19513 0.95484 0.02985 0.0
C834 C 0.16295 0.99228 0.0557 0.0
C835 C 0.14144 0.98603 0.02625 0.0
H836 H 0.20509 0.98253 0.08075 0.0
H837 H 0.15912 0.00854 0.07783 0.0
S838 S 0.14714 0.93162 0.94606 0.0
N839 N 0.17788 0.9285 0.97172 0.0
N840 N 0.12875 0.95726 0.96812 0.0
C841 C 0.14747 0.9645 0.99816 0.0
C842 C 0.17413 0.94882 6e-05 0.0
C843 C 0.66251 0.52276 0.97563 0.0
C844 C 0.6783 0.55656 0.98487 0.0
C845 C 0.63118 0.51182 0.98235 0.0
C846 C 0.61447 0.53414 0.99903 0.0
H847 H 0.67444 0.50452 0.96306 0.0
H848 H 0.62014 0.48553 0.97469 0.0
S849 S 0.64541 0.62532 0.02921 0.0
N850 N 0.67494 0.61233 0.01178 0.0
N851 N 0.6164 0.59184 0.02481 0.0
C852 C 0.63006 0.56807 0.00847 0.0
C853 C 0.66183 0.57926 0.00127 0.0
C854 C 0.74636 0.45415 0.31631 0.0
C855 C 0.71902 0.45582 0.29552 0.0
C856 C 0.76553 0.43133 0.3068 0.0
C857 C 0.75824 0.40891 0.27608 0.0
H858 H 0.75259 0.46987 0.34077 0.0
H859 H 0.78554 0.43038 0.32448 0.0
S860 S 0.69118 0.40519 0.21065 0.0
N861 N 0.68717 0.43471 0.24121 0.0
N862 N 0.72306 0.39181 0.22354 0.0
C863 C 0.73203 0.41158 0.2541 0.0
C864 C 0.71249 0.43496 0.26375 0.0
C865 C 0.86417 0.38805 0.54822 0.0
C866 C 0.84403 0.40332 0.52923 0.0
C867 C 0.89708 0.40014 0.55265 0.0
C868 C 0.91103 0.42793 0.53822 0.0
H869 H 0.8544 0.36752 0.56096 0.0
H870 H 0.91149 0.38841 0.56867 0.0
S871 S 0.86904 0.47308 0.48145 0.0
N872 N 0.84061 0.44496 0.49238 0.0
N873 N 0.90245 0.46772 0.50082 0.0
C874 C 0.89132 0.44197 0.51732 0.0
C875 C 0.85781 0.42966 0.51281 0.0
C876 C 0.32557 0.10585 0.27674 0.0
C877 C 0.32415 0.09525 0.30842 0.0
C878 C 0.30316 0.12275 0.26395 0.0
C879 C 0.27829 0.12986 0.28224 0.0
H880 H 0.34484 0.10225 0.26208 0.0
H881 H 0.30633 0.13174 0.24022 0.0
S882 S 0.26109 0.10332 0.36434 0.0
N883 N 0.29366 0.08995 0.35616 0.0
N884 N 0.25161 0.12167 0.33218 0.0
C885 C 0.27522 0.11731 0.31286 0.0
C886 C 0.29815 0.10014 0.32597 0.0
C887 C 0.38511 0.09408 0.49911 0.0
C888 C 0.35643 0.07729 0.50847 0.0
C889 C 0.41343 0.08321 0.50525 0.0
C890 C 0.41459 0.05499 0.52113 0.0
H891 H 0.38578 0.11557 0.48623 0.0
H892 H 0.43461 0.09712 0.4971 0.0
S893 S 0.34636 0.0023 0.55147 0.0
N894 N 0.33098 0.03111 0.5351 0.0
N895 N 0.38454 0.01066 0.54672 0.0
C896 C 0.38627 0.03814 0.53123 0.0
C897 C 0.35716 0.04925 0.52485 0.0
C898 C 0.72543 0.62389 0.32287 0.0
C899 C 0.69416 0.60759 0.30964 0.0
C900 C 0.74042 0.65373 0.31255 0.0
C901 C 0.72466 0.66892 0.28891 0.0
H902 H 0.73873 0.61328 0.34105 0.0
H903 H 0.7645 0.66514 0.32354 0.0
S904 S 0.6422 0.63691 0.24707 0.0
N905 N 0.64781 0.60922 0.27171 0.0
N906 N 0.67567 0.66535 0.25275 0.0
C907 C 0.69325 0.65306 0.27568 0.0
C908 C 0.67812 0.62244 0.28589 0.0
C909 C 0.84555 0.43968 0.82665 0.0
C910 C 0.87352 0.45802 0.81716 0.0
C911 C 0.83081 0.40793 0.80889 0.0
C912 C 0.84362 0.39308 0.78114 0.0
H913 H 0.83431 0.4503 0.84734 0.0
H914 H 0.8091 0.39503 0.81694 0.0
S915 S 0.91757 0.42963 0.74723 0.0
N916 N 0.91426 0.45819 0.77903 0.0
N917 N 0.88664 0.39857 0.74576 0.0
C918 C 0.8721 0.41064 0.77198 0.0
C919 C 0.88701 0.44307 0.78994 0.0
C920 C 0.05997 0.87896 0.09621 0.0
C921 C 0.03052 0.85724 0.0846 0.0
C922 C 0.06732 0.9109 0.08719 0.0
C923 C 0.0457 0.92238 0.06593 0.0
H924 H 0.07678 0.87225 0.11419 0.0
H925 H 0.08962 0.92731 0.09829 0.0
S926 S 0.96829 0.87312 0.02289 0.0
N927 N 0.98163 0.84771 0.04626 0.0
N928 N 0.99582 0.90805 0.0294 0.0
C929 C 0.01768 0.89986 0.05124 0.0
C930 C 0.01002 0.86718 0.06052 0.0
C931 C 0.90701 0.27342 0.80757 0.0
C932 C 0.90536 0.25396 0.8338 0.0
C933 C 0.87991 0.28228 0.79291 0.0
C934 C 0.85035 0.27225 0.80422 0.0
H935 H 0.92944 0.28205 0.79824 0.0
H936 H 0.88219 0.29759 0.7731 0.0
S937 S 0.83208 0.21927 0.86994 0.0
N938 N 0.87072 0.22328 0.86874 0.0
N939 N 0.8201 0.24107 0.84178 0.0
C940 C 0.84804 0.25264 0.83001 0.0
C941 C 0.87549 0.24317 0.84467 0.0
C942 C 0.51463 0.16603 0.56931 0.0
C943 C 0.52482 0.18477 0.60167 0.0
C944 C 0.51764 0.13254 0.56179 0.0
C945 C 0.53036 0.11637 0.58659 0.0
H946 H 0.5029 0.1768 0.55003 0.0
H947 H 0.50778 0.11863 0.53715 0.0
S948 S 0.5649 0.15546 0.67359 0.0
N949 N 0.5519 0.18573 0.65741 0.0
N950 N 0.55669 0.1225 0.64339 0.0
C951 C 0.54283 0.13547 0.61819 0.0
C952 C 0.54031 0.16976 0.6257 0.0
C953 C 0.59374 0.73013 0.33793 0.0
C954 C 0.57857 0.75665 0.33272 0.0
C955 C 0.62463 0.73044 0.33006 0.0
C956 C 0.64174 0.75722 0.31656 0.0
H957 H 0.58168 0.70873 0.3481 0.0
H958 H 0.63504 0.70925 0.33445 0.0
S959 S 0.61353 0.83351 0.2991 0.0
N960 N 0.5834 0.81099 0.31387 0.0
N961 N 0.64165 0.81145 0.29899 0.0
C962 C 0.62706 0.78406 0.3113 0.0
C963 C 0.59547 0.78381 0.31943 0.0
C964 C 0.04779 0.17296 0.45526 0.0
C965 C 0.02333 0.18863 0.46574 0.0
C966 C 0.05363 0.14445 0.46801 0.0
C967 C 0.03527 0.13039 0.49178 0.0
H968 H 0.06141 0.18154 0.43565 0.0
H969 H 0.07177 0.13247 0.45786 0.0
S970 S 0.97238 0.1656 0.53218 0.0
N971 N 0.98364 0.1908 0.50502 0.0
N972 N 0.99449 0.13704 0.52862 0.0
C973 C 0.01256 0.14744 0.50459 0.0
C974 C 0.00662 0.17656 0.49165 0.0
C975 C 0.62477 0.28317 0.18316 0.0
C976 C 0.60859 0.26068 0.20232 0.0
C977 C 0.65792 0.29106 0.18589 0.0
C978 C 0.67644 0.27705 0.20811 0.0
H979 H 0.61178 0.2952 0.16605 0.0
H980 H 0.66902 0.30909 0.17105 0.0
S981 S 0.64598 0.2151 0.26249 0.0
N982 N 0.61371 0.2231 0.24312 0.0
N983 N 0.67623 0.23822 0.24846 0.0
C984 C 0.66069 0.25377 0.22679 0.0
C985 C 0.62675 0.2455 0.22381 0.0
C986 C 0.52768 0.88916 0.94941 0.0
C987 C 0.51753 0.86273 0.96721 0.0
C988 C 0.53471 0.92272 0.96552 0.0
C989 C 0.53275 0.9311 0.00024 0.0
H990 H 0.52851 0.88404 0.92246 0.0
H991 H 0.54079 0.94234 0.9504 0.0
S992 S 0.51126 0.87058 0.05893 0.0
N993 N 0.50807 0.84678 0.02177 0.0
N994 N 0.5229 0.90966 0.05247 0.0
C995 C 0.52485 0.90466 0.01877 0.0
C996 C 0.51673 0.87054 0.00213 0.0
C997 C 0.90321 0.70795 0.72155 0.0
C998 C 0.91294 0.73581 0.7055 0.0
C999 C 0.87342 0.70221 0.73357 0.0
C1000 C 0.85315 0.72492 0.7312 0.0
H1001 H 0.91818 0.68987 0.72371 0.0
H1002 H 0.8659 0.67957 0.74422 0.0
S1003 S 0.86812 0.80251 0.69316 0.0
N1004 N 0.90014 0.78671 0.68857 0.0
N1005 N 0.8449 0.77655 0.71276 0.0
C1006 C 0.86306 0.75348 0.71649 0.0
C1007 C 0.89283 0.75878 0.70322 0.0
C1008 C 0.08229 0.04671 0.90169 0.0
C1009 C 0.08408 0.01572 0.88319 0.0
C1010 C 0.06706 0.0481 0.93118 0.0
C1011 C 0.05214 0.01858 0.9423 0.0
H1012 H 0.09329 0.06991 0.89375 0.0
H1013 H 0.067 0.07243 0.94545 0.0
S1014 S 0.05017 0.93134 0.90232 0.0
N1015 N 0.07015 0.95497 0.87807 0.0
N1016 N 0.04031 0.95762 0.93246 0.0
C1017 C 0.05324 0.98753 0.9235 0.0
C1018 C 0.06954 0.98611 0.89419 0.0
C1019 C 0.76679 0.29488 0.58781 0.0
C1020 C 0.74605 0.31353 0.57444 0.0
C1021 C 0.77593 0.29892 0.62253 0.0
C1022 C 0.7647 0.32179 0.64535 0.0
H1023 H 0.77521 0.27609 0.57142 0.0
H1024 H 0.79113 0.28318 0.63158 0.0
S1025 S 0.71184 0.37883 0.62328 0.0
N1026 N 0.71588 0.35721 0.58687 0.0
N1027 N 0.73338 0.36509 0.65188 0.0
C1028 C 0.74508 0.34174 0.63225 0.0
C1029 C 0.73561 0.33748 0.59691 0.0
C1030 C 0.49806 0.04938 0.40494 0.0
C1031 C 0.46477 0.04042 0.39839 0.0
C1032 C 0.51439 0.03849 0.43139 0.0
C1033 C 0.498 0.01752 0.45171 0.0
H1034 H 0.51162 0.0649 0.38937 0.0
H1035 H 0.54 0.04638 0.43574 0.0
S1036 S 0.41051 0.98491 0.44274 0.0
N1037 N 0.41599 0.00881 0.41325 0.0
N1038 N 0.44623 0.98686 0.46201 0.0
C1039 C 0.46454 0.00783 0.44478 0.0
C1040 C 0.44801 0.01974 0.41842 0.0
C1041 C 0.79395 0.71306 0.1058 0.0
C1042 C 0.78145 0.6812 0.08647 0.0
C1043 C 0.78717 0.72091 0.1391 0.0
C1044 C 0.76836 0.6969 0.15478 0.0
H1045 H 0.80979 0.73184 0.09544 0.0
H1046 H 0.7983 0.74533 0.15321 0.0
S1047 S 0.72723 0.61102 0.11451 0.0
N1048 N 0.74671 0.62654 0.08483 0.0
N1049 N 0.73522 0.64101 0.14768 0.0
C1050 C 0.75449 0.66559 0.13532 0.0
C1051 C 0.7607 0.65782 0.10115 0.0
C1052 C 0.10857 0.98786 0.67198 0.0
C1053 C 0.09156 0.00807 0.69113 0.0
C1054 C 0.10264 0.98077 0.63682 0.0
C1055 C 0.07927 0.99335 0.61916 0.0
H1056 H 0.12647 0.97698 0.68422 0.0
H1057 H 0.11606 0.96453 0.62351 0.0
S1058 S 0.02924 0.04923 0.65699 0.0
N1059 N 0.05127 0.04197 0.68955 0.0
N1060 N 0.03997 0.02843 0.62336 0.0
C1061 C 0.06262 0.01439 0.63781 0.0
C1062 C 0.06882 0.02182 0.67377 0.0
C1063 C 0.74787 0.30151 0.39756 0.0
C1064 C 0.77384 0.32452 0.41631 0.0
C1065 C 0.74818 0.29044 0.3631 0.0
C1066 C 0.77426 0.30253 0.34634 0.0
H1067 H 0.72771 0.29118 0.40985 0.0
H1068 H 0.72792 0.27231 0.34953 0.0
S1069 S 0.84766 0.36398 0.38477 0.0
N1070 N 0.826 0.35924 0.41623 0.0
N1071 N 0.82645 0.33949 0.35132 0.0
C1072 C 0.80003 0.32627 0.3649 0.0
C1073 C 0.79988 0.33696 0.39999 0.0
C1074 C 0.43624 0.03604 0.19185 0.0
C1075 C 0.45837 0.03526 0.21918 0.0
C1076 C 0.44258 0.0278 0.15866 0.0
C1077 C 0.47109 0.01807 0.15156 0.0
H1078 H 0.4142 0.04395 0.19605 0.0
H1079 H 0.42521 0.02974 0.13841 0.0
S1080 S 0.53575 0.00928 0.21422 0.0
N1081 N 0.50916 0.02204 0.23704 0.0
N1082 N 0.52094 0.00638 0.17459 0.0
C1083 C 0.49286 0.0158 0.17864 0.0
C1084 C 0.48656 0.02452 0.21247 0.0
C1085 C 0.75515 0.69171 0.8962 0.0
C1086 C 0.78189 0.7054 0.92007 0.0
C1087 C 0.74911 0.70638 0.86749 0.0
C1088 C 0.76947 0.73553 0.86111 0.0
H1089 H 0.73927 0.66862 0.8989 0.0
H1090 H 0.72874 0.69399 0.84956 0.0
S1091 S 0.84086 0.78376 0.91739 0.0
N1092 N 0.82752 0.75179 0.93659 0.0
N1093 N 0.81616 0.77912 0.88272 0.0
C1094 C 0.79535 0.75057 0.8856 0.0
C1095 C 0.80157 0.73559 0.91493 0.0
C1096 C 0.87794 0.08702 0.99293 0.0
C1097 C 0.85735 0.09001 0.01783 0.0
C1098 C 0.90143 0.06802 0.99576 0.0
C1099 C 0.90555 0.05215 0.02402 0.0
H1100 H 0.87578 0.09929 0.97101 0.0
H1101 H 0.91741 0.06711 0.97651 0.0
S1102 S 0.85765 0.05224 0.09601 0.0
N1103 N 0.84192 0.07484 0.07104 0.0
N1104 N 0.88704 0.04038 0.07717 0.0
C1105 C 0.88498 0.05481 0.04895 0.0
C1106 C 0.86059 0.07343 0.04565 0.0
C1107 C 0.39814 0.42202 0.03195 0.0
C1108 C 0.37741 0.44179 0.04458 0.0
C1109 C 0.42859 0.43683 0.02534 0.0
C1110 C 0.44001 0.47192 0.03231 0.0
H1111 H 0.39064 0.39493 0.02663 0.0
H1112 H 0.44344 0.42052 0.01503 0.0
S1113 S 0.39457 0.5348 0.06522 0.0
N1114 N 0.3698 0.49828 0.0629 0.0
N1115 N 0.42757 0.52602 0.05191 0.0
C1116 C 0.4194 0.49197 0.04491 0.0
C1117 C 0.38801 0.47692 0.05069 0.0
C1118 C 0.3001 0.57932 0.77607 0.0
C1119 C 0.32175 0.56887 0.75468 0.0
C1120 C 0.28798 0.60801 0.77279 0.0
C1121 C 0.29667 0.62737 0.74774 0.0
H1122 H 0.29372 0.56638 0.79691 0.0
H1123 H 0.27288 0.61588 0.7911 0.0
S1124 S 0.34686 0.60691 0.68053 0.0
N1125 N 0.34742 0.57739 0.7043 0.0
N1126 N 0.32409 0.631 0.69756 0.0
C1127 C 0.31565 0.61536 0.72397 0.0
C1128 C 0.32826 0.58616 0.72752 0.0
C1129 C 0.15518 0.6041 0.52335 0.0
C1130 C 0.17337 0.58538 0.54047 0.0
C1131 C 0.12208 0.59765 0.52209 0.0
C1132 C 0.10568 0.57191 0.53757 0.0
H1133 H 0.1665 0.62359 0.5102 0.0
H1134 H 0.10927 0.61214 0.5076 0.0
S1135 S 0.14223 0.51741 0.5881 0.0
N1136 N 0.17266 0.54152 0.57536 0.0
N1137 N 0.11026 0.52909 0.57257 0.0
C1138 C 0.1236 0.55389 0.556 0.0
C1139 C 0.15746 0.56071 0.55757 0.0
C1140 C 0.72164 0.93339 0.75652 0.0
C1141 C 0.72949 0.95443 0.78795 0.0
C1142 C 0.73061 0.90237 0.75106 0.0
C1143 C 0.74784 0.89106 0.77675 0.0
H1144 H 0.70667 0.93982 0.73656 0.0
H1145 H 0.72236 0.88636 0.72701 0.0
S1146 S 0.78056 0.93971 0.86105 0.0
N1147 N 0.76035 0.96418 0.84325 0.0
N1148 N 0.77695 0.90562 0.83286 0.0
C1149 C 0.75884 0.91328 0.80702 0.0
C1150 C 0.74976 0.94506 0.81262 0.0
C1151 C 0.69221 0.93992 0.5353 0.0
C1152 C 0.70702 0.94384 0.56855 0.0
C1153 C 0.66379 0.95096 0.52838 0.0
C1154 C 0.64891 0.96548 0.55457 0.0
H1155 H 0.70271 0.92839 0.51448 0.0
H1156 H 0.65281 0.94695 0.50257 0.0
S1157 S 0.67787 0.98136 0.64578 0.0
N1158 N 0.70483 0.96393 0.62769 0.0
N1159 N 0.65113 0.98346 0.61482 0.0
C1160 C 0.66356 0.96963 0.58779 0.0
C1161 C 0.69271 0.95915 0.59475 0.0
C1162 C 0.34354 0.38231 0.75591 0.0
C1163 C 0.32688 0.40816 0.76263 0.0
C1164 C 0.32873 0.34858 0.75518 0.0
C1165 C 0.29654 0.33937 0.76047 0.0
H1166 H 0.36868 0.38831 0.75336 0.0
H1167 H 0.34295 0.32969 0.75143 0.0
S1168 S 0.24177 0.39775 0.77559 0.0
N1169 N 0.27607 0.42238 0.77239 0.0
N1170 N 0.248 0.35909 0.77013 0.0
C1171 C 0.27917 0.36494 0.7651 0.0
C1172 C 0.2944 0.39928 0.76642 0.0
C1173 C 0.17641 0.62393 0.29068 0.0
C1174 C 0.19843 0.60849 0.30688 0.0
C1175 C 0.18342 0.65851 0.28967 0.0
C1176 C 0.21298 0.67849 0.30389 0.0
H1177 H 0.15293 0.60963 0.28053 0.0
H1178 H 0.16527 0.66985 0.27854 0.0
S1179 S 0.27971 0.64958 0.34666 0.0
N1180 N 0.2515 0.61537 0.33588 0.0
N1181 N 0.26508 0.68011 0.33288 0.0
C1182 C 0.23588 0.66298 0.31833 0.0
C1183 C 0.22848 0.628 0.32012 0.0
C1184 C 0.47201 0.65979 0.48325 0.0
C1185 C 0.49028 0.67195 0.45851 0.0
C1186 C 0.47807 0.63241 0.49805 0.0
C1187 C 0.50268 0.61651 0.4888 0.0
H1188 H 0.45134 0.66966 0.48935 0.0
H1189 H 0.46155 0.62166 0.51431 0.0
S1190 S 0.56132 0.64209 0.43079 0.0
N1191 N 0.53749 0.66895 0.42989 0.0
N1192 N 0.54791 0.61699 0.45729 0.0
C1193 C 0.52307 0.63037 0.46696 0.0
C1194 C 0.51718 0.65834 0.45199 0.0
C1195 C 0.64336 0.29881 0.70747 0.0
C1196 C 0.62152 0.30523 0.73024 0.0
C1197 C 0.6748 0.29848 0.71876 0.0
C1198 C 0.68594 0.30468 0.75334 0.0
H1199 H 0.63609 0.29347 0.68057 0.0
H1200 H 0.69043 0.29306 0.70005 0.0
S1201 S 0.6389 0.3242 0.82353 0.0
N1202 N 0.61364 0.31901 0.7892 0.0
N1203 N 0.67285 0.31841 0.81036 0.0
C1204 C 0.66466 0.31195 0.77646 0.0
C1205 C 0.63247 0.31218 0.76494 0.0
C1206 C 0.01883 0.35158 0.93447 0.0
C1207 C 0.99298 0.33379 0.94801 0.0
C1208 C 0.03279 0.38491 0.94793 0.0
C1209 C 0.02177 0.40198 0.97573 0.0
H1210 H 0.02828 0.33986 0.91295 0.0
H1211 H 0.05258 0.39731 0.93637 0.0
S1212 S 0.95505 0.36694 0.02115 0.0
N1213 N 0.95702 0.33583 0.99127 0.0
N1214 N 0.98354 0.3986 0.01665 0.0
C1215 C 0.99613 0.38456 0.98985 0.0
C1216 C 0.98168 0.3505 0.97597 0.0
C1217 C 0.91395 0.75945 0.17552 0.0
C1218 C 0.94027 0.75886 0.19826 0.0
C1219 C 0.88336 0.75413 0.18493 0.0
C1220 C 0.87776 0.74792 0.21744 0.0
H1221 H 0.91694 0.76588 0.15074 0.0
H1222 H 0.86408 0.7564 0.16694 0.0
S1223 S 0.93759 0.73883 0.28506 0.0
N1224 N 0.95825 0.74774 0.25369 0.0
N1225 N 0.90021 0.73772 0.27137 0.0
C1226 C 0.90329 0.74443 0.23965 0.0
C1227 C 0.93473 0.74994 0.23005 0.0
C1228 C 0.5289 0.33881 0.08588 0.0
C1229 C 0.49813 0.31828 0.08168 0.0
C1230 C 0.53559 0.36709 0.06974 0.0
C1231 C 0.51178 0.37561 0.04886 0.0
H1232 H 0.5474 0.3345 0.10356 0.0
H1233 H 0.55869 0.38382 0.07583 0.0
S1234 S 0.42943 0.32737 0.02414 0.0
N1235 N 0.44513 0.30614 0.05057 0.0
N1236 N 0.45791 0.35959 0.02109 0.0
C1237 C 0.48199 0.35382 0.04191 0.0
C1238 C 0.47513 0.32495 0.05801 0.0
C1239 C 0.92756 0.26742 0.31008 0.0
C1240 C 0.93572 0.27305 0.34523 0.0
C1241 C 0.89601 0.26417 0.29607 0.0
C1242 C 0.87175 0.26633 0.31687 0.0
H1243 H 0.94525 0.2634 0.29334 0.0
H1244 H 0.89034 0.25785 0.26897 0.0
S1245 S 0.88224 0.28886 0.41001 0.0
N1246 N 0.91819 0.28696 0.40003 0.0
N1247 N 0.85882 0.27968 0.374 0.0
C1248 C 0.88015 0.27479 0.35189 0.0
C1249 C 0.91221 0.27844 0.36602 0.0
C1250 C 0.99401 0.6383 0.61046 0.0
C1251 C 0.97091 0.65262 0.59449 0.0
C1252 C 0.00045 0.60762 0.5963 0.0
C1253 C 0.98432 0.58987 0.56531 0.0
H1254 H 0.00729 0.65081 0.63432 0.0
H1255 H 0.01846 0.59787 0.60983 0.0
S1256 S 0.92149 0.6161 0.51299 0.0
N1257 N 0.93164 0.64642 0.54578 0.0
N1258 N 0.94393 0.58874 0.51908 0.0
C1259 C 0.9611 0.60375 0.54895 0.0
C1260 C 0.95434 0.63504 0.56355 0.0
C1261 C 0.61445 0.76298 0.81196 0.0
C1262 C 0.60689 0.77335 0.84452 0.0
C1263 C 0.64593 0.76871 0.80436 0.0
C1264 C 0.67122 0.7851 0.82899 0.0
H1265 H 0.5959 0.75045 0.79196 0.0
H1266 H 0.65037 0.76044 0.77885 0.0
S1267 S 0.66449 0.81619 0.91861 0.0
N1268 N 0.62757 0.8001 0.90188 0.0
N1269 N 0.68659 0.81084 0.88772 0.0
C1270 C 0.66407 0.79528 0.8618 0.0
C1271 C 0.63199 0.78943 0.86953 0.0
C1272 C 0.49267 0.52886 0.67492 0.0
C1273 C 0.46031 0.51371 0.67435 0.0
C1274 C 0.50765 0.52899 0.64533 0.0
C1275 C 0.49102 0.51387 0.61376 0.0
H1276 H 0.50672 0.54095 0.69849 0.0
H1277 H 0.53247 0.54115 0.64728 0.0
S1278 S 0.40568 0.47083 0.59816 0.0
N1279 N 0.41211 0.4833 0.63928 0.0
N1280 N 0.43996 0.48314 0.58385 0.0
C1281 C 0.45861 0.4984 0.61283 0.0
C1282 C 0.44337 0.49843 0.64299 0.0
C1283 C 0.77306 0.23634 0.94266 0.0
C1284 C 0.80427 0.23882 0.95759 0.0
C1285 C 0.76606 0.25818 0.92079 0.0
C1286 C 0.78991 0.28353 0.91298 0.0
H1287 H 0.75398 0.2164 0.94656 0.0
H1288 H 0.742 0.25397 0.90855 0.0
S1289 S 0.87473 0.30386 0.94896 0.0
N1290 N 0.8587 0.27117 0.96582 0.0
N1291 N 0.84547 0.3122 0.92474 0.0
C1292 C 0.82074 0.2881 0.92982 0.0
C1293 C 0.82795 0.26571 0.95204 0.0
C1294 C 0.10331 0.49785 0.16763 0.0
C1295 C 0.08486 0.48362 0.19101 0.0
C1296 C 0.08918 0.50463 0.13764 0.0
C1297 C 0.05589 0.49758 0.12963 0.0
H1298 H 0.12897 0.5044 0.17268 0.0
H1299 H 0.10473 0.51588 0.12078 0.0
S1300 S 0.99672 0.45831 0.18139 0.0
N1301 N 0.03137 0.4612 0.2035 0.0
N1302 N 0.00486 0.47409 0.14693 0.0
C1303 C 0.03708 0.48254 0.15234 0.0
C1304 C 0.05153 0.47548 0.18301 0.0
C1305 C 0.79556 0.80897 0.43695 0.0
C1306 C 0.78206 0.83134 0.45818 0.0
C1307 C 0.78489 0.79999 0.40232 0.0
C1308 C 0.76051 0.8133 0.38739 0.0
H1309 H 0.81489 0.79858 0.44699 0.0
H1310 H 0.79631 0.78307 0.38704 0.0
S1311 S 0.71529 0.87072 0.43184 0.0
N1312 N 0.74143 0.86495 0.46154 0.0
N1313 N 0.72177 0.84836 0.39686 0.0
C1314 C 0.74625 0.83499 0.40838 0.0
C1315 C 0.75688 0.84391 0.4436 0.0
C1316 C 0.42036 0.50479 0.87932 0.0
C1317 C 0.43847 0.49861 0.85271 0.0
C1318 C 0.43375 0.51066 0.9128 0.0
C1319 C 0.46592 0.51061 0.92122 0.0
H1320 H 0.39586 0.50648 0.87454 0.0
H1321 H 0.41886 0.51646 0.93215 0.0
S1322 S 0.52286 0.49096 0.86138 0.0
N1323 N 0.48959 0.48917 0.83715 0.0
N1324 N 0.51496 0.50019 0.9005 0.0
C1325 C 0.4839 0.50197 0.89512 0.0
C1326 C 0.47012 0.49593 0.86076 0.0
C1327 C 0.83071 0.23968 0.12114 0.0
C1328 C 0.81212 0.20876 0.10441 0.0
C1329 C 0.82143 0.25712 0.14993 0.0
C1330 C 0.79334 0.24418 0.16315 0.0
H1331 H 0.85239 0.25074 0.11172 0.0
H1332 H 0.83669 0.28054 0.16224 0.0
S1333 S 0.73612 0.16421 0.12881 0.0
N1334 N 0.7643 0.16598 0.10364 0.0
N1335 N 0.74672 0.19873 0.15687 0.0
C1336 C 0.77449 0.21338 0.14652 0.0
C1337 C 0.78393 0.19568 0.11746 0.0
C1338 C 0.11415 0.52401 0.39929 0.0
C1339 C 0.09837 0.52381 0.36736 0.0
C1340 C 0.09784 0.52351 0.42751 0.0
C1341 C 0.06516 0.52287 0.42487 0.0
H1342 H 0.1389 0.52257 0.40248 0.0
H1343 H 0.11073 0.52209 0.45135 0.0
S1344 S 0.01369 0.52786 0.34837 0.0
N1345 N 0.0489 0.52741 0.33549 0.0
N1346 N 0.01815 0.52641 0.38916 0.0
C1347 C 0.04953 0.52587 0.39391 0.0
C1348 C 0.06621 0.52633 0.36492 0.0
C1349 C 0.75011 0.81067 0.64084 0.0
C1350 C 0.77235 0.80038 0.62027 0.0
C1351 C 0.74193 0.79502 0.66862 0.0
C1352 C 0.75503 0.76796 0.67673 0.0
H1353 H 0.74046 0.83245 0.63694 0.0
H1354 H 0.72636 0.80531 0.68488 0.0
S1355 S 0.81064 0.72782 0.62858 0.0
N1356 N 0.80475 0.7587 0.60824 0.0
N1357 N 0.78868 0.72921 0.6601 0.0
C1358 C 0.77509 0.75548 0.65489 0.0
C1359 C 0.78391 0.7717 0.62679 0.0
C1360 C 0.67737 0.45885 0.55721 0.0
C1361 C 0.68621 0.44276 0.52739 0.0
C1362 C 0.65422 0.47841 0.55617 0.0
C1363 C 0.63925 0.48264 0.52526 0.0
H1364 H 0.68752 0.45528 0.5816 0.0
H1365 H 0.64686 0.48872 0.5797 0.0
S1366 S 0.65782 0.45059 0.44011 0.0
N1367 N 0.68088 0.43555 0.46622 0.0
N1368 N 0.63767 0.47263 0.46415 0.0
C1369 C 0.64942 0.46853 0.4953 0.0
C1370 C 0.67276 0.4484 0.49637 0.0
C1371 C 0.16218 0.02077 0.46991 0.0
C1372 C 0.17815 0.05409 0.48221 0.0
C1373 C 0.13114 0.00858 0.47677 0.0
C1374 C 0.11484 0.0291 0.4965 0.0
H1375 H 0.17377 0.00381 0.45492 0.0
H1376 H 0.12001 0.98273 0.46677 0.0
S1377 S 0.14593 0.11851 0.53465 0.0
N1378 N 0.17509 0.10759 0.51482 0.0
N1379 N 0.1171 0.08473 0.52806 0.0
C1380 C 0.13049 0.06259 0.50883 0.0
C1381 C 0.16198 0.07507 0.50157 0.0
C1382 C 0.19843 0.92194 0.76515 0.0
C1383 C 0.20634 0.94036 0.79808 0.0
C1384 C 0.21032 0.89306 0.75533 0.0
C1385 C 0.23077 0.88183 0.77793 0.0
H1386 H 0.18135 0.92855 0.74741 0.0
H1387 H 0.20173 0.87817 0.73077 0.0
S1388 S 0.26287 0.92297 0.86488 0.0
N1389 N 0.23927 0.94688 0.85178 0.0
N1390 N 0.26118 0.89253 0.83301 0.0
C1391 C 0.2409 0.90121 0.80979 0.0
C1392 C 0.22892 0.9306 0.81991 0.0
C1393 C 0.38169 0.91291 0.99293 0.0
C1394 C 0.36107 0.93543 0.99477 0.0
C1395 C 0.41443 0.92444 0.0005 0.0
C1396 C 0.42752 0.95887 0.01004 0.0
H1397 H 0.37236 0.88608 0.98808 0.0
H1398 H 0.4293 0.90608 0.00126 0.0
S1399 S 0.38399 0.02833 0.01091 0.0
N1400 N 0.35609 0.99378 0.00089 0.0
N1401 N 0.41796 0.01572 0.0149 0.0
C1402 C 0.40752 0.98187 0.00756 0.0
C1403 C 0.37407 0.97002 -0.00012 0.0
C1404 C 0.80463 0.60207 0.83295 0.0
C1405 C 0.82511 0.58989 0.81129 0.0
C1406 C 0.78411 0.62194 0.82227 0.0
C1407 C 0.78295 0.62983 0.78948 0.0
H1408 H 0.80642 0.59893 0.85921 0.0
H1409 H 0.77133 0.63387 0.84077 0.0
S1410 S 0.82573 0.59755 0.72064 0.0
N1411 N 0.83851 0.58204 0.7536 0.0
N1412 N 0.79959 0.61941 0.73376 0.0
C1413 C 0.80001 0.61425 0.76631 0.0
C1414 C 0.82128 0.59427 0.77721 0.0
C1415 C 0.88648 0.60796 0.01033 0.0
C1416 C 0.85735 0.58966 0.01715 0.0
C1417 C 0.91503 0.59772 0.01773 0.0
C1418 C 0.91598 0.56869 0.03244 0.0
H1419 H 0.88729 0.62997 0.9982 0.0
H1420 H 0.93656 0.61255 0.0112 0.0
S1421 S 0.84673 0.51305 0.05781 0.0
N1422 N 0.83145 0.54189 0.04139 0.0
N1423 N 0.8853 0.52277 0.05534 0.0
C1424 C 0.88727 0.55084 0.04076 0.0
C1425 C 0.85797 0.56125 0.03308 0.0
C1426 C 0.22688 0.11516 0.82592 0.0
C1427 C 0.19586 0.09908 0.81147 0.0
C1428 C 0.24291 0.1446 0.8156 0.0
C1429 C 0.22843 0.15943 0.79071 0.0
H1430 H 0.23906 0.10479 0.84519 0.0
H1431 H 0.26663 0.15608 0.82762 0.0
S1432 S 0.14743 0.12746 0.74492 0.0
N1433 N 0.15136 0.10044 0.77081 0.0
N1434 N 0.18117 0.1555 0.75169 0.0
C1435 C 0.19741 0.14361 0.77608 0.0
C1436 C 0.18124 0.11355 0.78635 0.0
C1437 C 0.36214 0.93712 0.28491 0.0
C1438 C 0.3527 0.95302 0.31445 0.0
C1439 C 0.34678 0.9046 0.26986 0.0
C1440 C 0.32114 0.88656 0.28347 0.0
H1441 H 0.38167 0.9498 0.2732 0.0
H1442 H 0.35512 0.8936 0.24721 0.0
S1443 S 0.287 0.91633 0.3606 0.0
N1444 N 0.31592 0.9479 0.35691 0.0
N1445 N 0.28705 0.88678 0.32843 0.0
C1446 C 0.31132 0.90202 0.31296 0.0
C1447 C 0.32712 0.93517 0.3285 0.0
C1448 C 0.51023 0.36071 0.55725 0.0
C1449 C 0.53321 0.34854 0.57635 0.0
C1450 C 0.51684 0.39314 0.54885 0.0
C1451 C 0.5466 0.41438 0.55925 0.0
H1452 H 0.48618 0.34621 0.55093 0.0
H1453 H 0.49785 0.40245 0.53648 0.0
S1454 S 0.61737 0.39176 0.60144 0.0
N1455 N 0.58873 0.35824 0.59937 0.0
N1456 N 0.60101 0.4191 0.58364 0.0
C1457 C 0.57076 0.40128 0.57489 0.0
C1458 C 0.56412 0.36832 0.58336 0.0
C1459 C 0.38731 0.76891 0.35436 0.0
C1460 C 0.40413 0.75313 0.33099 0.0
C1461 C 0.3596 0.77929 0.34371 0.0
C1462 C 0.34703 0.77293 0.30947 0.0
H1463 H 0.39575 0.7735 0.38099 0.0
H1464 H 0.34755 0.79155 0.36266 0.0
S1465 S 0.38379 0.73434 0.23827 0.0
N1466 N 0.40791 0.73375 0.2721 0.0
N1467 N 0.355 0.75178 0.25209 0.0
C1468 C 0.36427 0.75799 0.28582 0.0
C1469 C 0.39299 0.74837 0.2966 0.0
C1470 C 0.01363 0.67577 0.07794 0.0
C1471 C 0.0239 0.6951 0.10998 0.0
C1472 C 0.01821 0.64283 0.07062 0.0
C1473 C 0.0325 0.62769 0.09535 0.0
H1474 H 0.00077 0.68564 0.05876 0.0
H1475 H 0.00843 0.62849 0.04615 0.0
S1476 S 0.06815 0.66907 0.18136 0.0
N1477 N 0.05297 0.69807 0.16519 0.0
N1478 N 0.06051 0.63574 0.1516 0.0
C1479 C 0.04505 0.64751 0.12657 0.0
C1480 C 0.04102 0.68133 0.13384 0.0
C1481 C 0.09222 0.26188 0.80768 0.0
C1482 C 0.08037 0.25012 0.83624 0.0
C1483 C 0.12339 0.26117 0.80092 0.0
C1484 C 0.14387 0.24839 0.82227 0.0
H1485 H 0.07726 0.27149 0.79016 0.0
H1486 H 0.13127 0.27018 0.77843 0.0
S1487 S 0.12515 0.21599 0.9013 0.0
N1488 N 0.09219 0.22643 0.88677 0.0
N1489 N 0.15055 0.22496 0.87395 0.0
C1490 C 0.13257 0.2371 0.85124 0.0
C1491 C 0.10091 0.23803 0.85827 0.0
C1492 C 0.54123 0.68547 0.95979 0.0
C1493 C 0.51388 0.69741 0.96764 0.0
C1494 C 0.54807 0.65661 0.97104 0.0
C1495 C 0.52798 0.63836 0.99079 0.0
H1496 H 0.55688 0.69755 0.94349 0.0
H1497 H 0.56878 0.6479 0.96309 0.0
S1498 S 0.45576 0.66148 0.02262 0.0
N1499 N 0.46835 0.69055 -0.00034 0.0
N1500 N 0.48127 0.63633 0.0207 0.0
C1501 C 0.50174 0.65124 0.00084 0.0
C1502 C 0.49469 0.6807 0.98931 0.0
C1503 C 0.11209 0.75513 0.67797 0.0
C1504 C 0.09406 0.73924 0.70088 0.0
C1505 C 0.14527 0.76221 0.68271 0.0
C1506 C 0.16196 0.75391 0.7107 0.0
H1507 H 0.10052 0.76291 0.65641 0.0
H1508 H 0.15783 0.77532 0.66474 0.0
S1509 S 0.12616 0.70914 0.77657 0.0
N1510 N 0.09542 0.71316 0.7514 0.0
N1511 N 0.15796 0.72658 0.76045 0.0
C1512 C 0.14432 0.73657 0.73305 0.0
C1513 C 0.11036 0.72919 0.72809 0.0
C1514 C 0.0247 0.37702 0.44944 0.0
C1515 C 0.01897 0.34957 0.46686 0.0
C1516 C 0.02611 0.40976 0.46584 0.0
C1517 C 0.02276 0.41633 0.50042 0.0
H1518 H 0.0258 0.37295 0.42249 0.0
H1519 H 0.02861 0.42994 0.45099 0.0
S1520 S 0.01139 0.3534 0.5581 0.0
N1521 N 0.01228 0.33113 0.52093 0.0
N1522 N 0.01658 0.39295 0.55213 0.0
C1523 C 0.01956 0.38939 0.51865 0.0
C1524 C 0.01719 0.35591 0.50174 0.0
C1525 C 0.42438 0.22661 0.24918 0.0
C1526 C 0.42813 0.2473 0.22422 0.0
C1527 C 0.39638 0.22169 0.26493 0.0
C1528 C 0.37137 0.23779 0.25679 0.0
H1529 H 0.4429 0.21363 0.25611 0.0
H1530 H 0.39418 0.20473 0.28328 0.0
S1531 S 0.37101 0.29698 0.19507 0.0
N1532 N 0.40539 0.28552 0.19348 0.0
N1533 N 0.35332 0.27681 0.22317 0.0
C1534 C 0.37549 0.25953 0.2327 0.0
C1535 C 0.40368 0.26409 0.21639 0.0
C1536 C 0.55391 0.50648 0.37983 0.0
C1537 C 0.58676 0.5196 0.38133 0.0
C1538 C 0.53837 0.50671 0.40912 0.0
C1539 C 0.55492 0.52077 0.44104 0.0
H1540 H 0.54026 0.49484 0.3559 0.0
H1541 H 0.51329 0.49549 0.4067 0.0
S1542 S 0.6408 0.56172 0.45787 0.0
N1543 N 0.63492 0.54864 0.41684 0.0
N1544 N 0.606 0.5507 0.47164 0.0
C1545 C 0.58761 0.53541 0.44252 0.0
C1546 C 0.60346 0.53435 0.41279 0.0
C1547 C 0.27782 0.80464 0.10623 0.0
C1548 C 0.26035 0.82572 0.09168 0.0
C1549 C 0.27216 0.7952 0.13743 0.0
C1550 C 0.24867 0.80628 0.15533 0.0
H1551 H 0.29736 0.79682 0.09445 0.0
H1552 H 0.28751 0.78055 0.1483 0.0
S1553 S 0.19129 0.85515 0.12485 0.0
N1554 N 0.215 0.85268 0.09503 0.0
N1555 N 0.20407 0.83451 0.15368 0.0
C1556 C 0.22877 0.82438 0.13957 0.0
C1557 C 0.23464 0.83415 0.1077 0.0
C1558 C 0.95452 0.5384 0.92654 0.0
C1559 C 0.97273 0.55657 0.9055 0.0
C1560 C 0.9691 0.52638 0.95317 0.0
C1561 C 0.00245 0.53269 0.96018 0.0
H1562 H 0.92889 0.53228 0.92174 0.0
H1563 H 0.95394 0.51196 0.96834 0.0
S1564 S 0.06062 0.58038 0.91279 0.0
N1565 N 0.0256 0.58094 0.89329 0.0
N1566 N 0.05319 0.55905 0.944 0.0
C1567 C 0.02092 0.55139 0.93955 0.0
C1568 C 0.006 0.5632 0.91208 0.0
C1569 C 0.32255 0.17755 0.61571 0.0
C1570 C 0.29761 0.1738 0.58979 0.0
C1571 C 0.31752 0.18331 0.64966 0.0
C1572 C 0.28763 0.18678 0.65924 0.0
H1573 H 0.34601 0.17484 0.60978 0.0
H1574 H 0.33735 0.18519 0.66866 0.0
S1575 S 0.21469 0.18063 0.60144 0.0
N1576 N 0.24178 0.17425 0.57609 0.0
N1577 N 0.23289 0.18702 0.64024 0.0
C1578 C 0.26266 0.18421 0.63375 0.0
C1579 C 0.2675 0.1772 0.59897 0.0
C1580 C 0.61051 0.49289 0.17122 0.0
C1581 C 0.59395 0.51245 0.19168 0.0
C1582 C 0.6034 0.48655 0.13619 0.0
C1583 C 0.57922 0.49923 0.12007 0.0
H1584 H 0.62898 0.48196 0.18232 0.0
H1585 H 0.61652 0.47076 0.1218 0.0
S1586 S 0.52998 0.55368 0.16179 0.0
N1587 N 0.55327 0.54596 0.19308 0.0
N1588 N 0.5397 0.53376 0.12706 0.0
C1589 C 0.56303 0.51967 0.14005 0.0
C1590 C 0.57046 0.52638 0.17587 0.0
C1591 C 0.25378 0.82994 0.90068 0.0
C1592 C 0.26604 0.81475 0.9265 0.0
C1593 C 0.24932 0.81406 0.86713 0.0
C1594 C 0.25611 0.78211 0.85821 0.0
H1595 H 0.24967 0.85522 0.90602 0.0
H1596 H 0.24168 0.82755 0.84789 0.0
S1597 S 0.28488 0.7298 0.91678 0.0
N1598 N 0.28232 0.76464 0.94131 0.0
N1599 N 0.27304 0.73455 0.87806 0.0
C1600 C 0.26605 0.76552 0.88397 0.0
C1601 C 0.27125 0.78194 0.91818 0.0
C1602 C 0.94174 0.54028 0.70002 0.0
C1603 C 0.95617 0.52694 0.726 0.0
C1604 C 0.94698 0.53162 0.66666 0.0
C1605 C 0.96697 0.50935 0.65785 0.0
H1606 H 0.92633 0.55777 0.70538 0.0
H1607 H 0.93555 0.54307 0.64775 0.0
S1608 S 0.00942 0.46613 0.71614 0.0
N1609 N 0.99061 0.48936 0.74063 0.0
N1610 N 0.00045 0.47312 0.67753 0.0
C1611 C 0.9812 0.4953 0.6834 0.0
C1612 C 0.97579 0.50408 0.71757 0.0
C1613 C 0.26085 0.19211 0.40114 0.0
C1614 C 0.28812 0.20329 0.42474 0.0
C1615 C 0.25644 0.20773 0.37279 0.0
C1616 C 0.27889 0.23549 0.36684 0.0
H1617 H 0.24337 0.17009 0.40361 0.0
H1618 H 0.2355 0.19734 0.35495 0.0
S1619 S 0.35229 0.27765 0.42316 0.0
N1620 N 0.33644 0.24621 0.44185 0.0
N1621 N 0.32796 0.27548 0.38871 0.0
C1622 C 0.3052 0.24837 0.39133 0.0
C1623 C 0.30985 0.23232 0.42017 0.0
C1624 C 0.3754 0.59399 0.54334 0.0
C1625 C 0.34682 0.57397 0.52672 0.0
C1626 C 0.40345 0.58183 0.54419 0.0
C1627 C 0.40421 0.54955 0.52754 0.0
H1628 H 0.37613 0.61933 0.55564 0.0
H1629 H 0.42494 0.59832 0.55729 0.0
S1630 S 0.33547 0.4872 0.48056 0.0
N1631 N 0.32047 0.52007 0.49388 0.0
N1632 N 0.37372 0.49754 0.49448 0.0
C1633 C 0.37572 0.52914 0.51097 0.0
C1634 C 0.34686 0.54127 0.51087 0.0
C1635 C 0.89307 0.96913 0.55822 0.0
C1636 C 0.87937 0.935 0.54703 0.0
C1637 C 0.92387 0.98313 0.55171 0.0
C1638 C 0.94187 0.96367 0.53307 0.0
H1639 H 0.88005 0.98503 0.57261 0.0
H1640 H 0.93353 0.00944 0.56118 0.0
S1641 S 0.91509 0.8735 0.49557 0.0
N1642 N 0.88509 0.88255 0.51511 0.0
N1643 N 0.9426 0.90845 0.50219 0.0
C1644 C 0.92792 0.92956 0.52106 0.0
C1645 C 0.89679 0.91533 0.52822 0.0
C1646 C 0.83748 0.10244 0.22762 0.0
C1647 C 0.82408 0.08202 0.25013 0.0
C1648 C 0.82707 0.13193 0.22286 0.0
C1649 C 0.8029 0.1423 0.24047 0.0
H1650 H 0.85757 0.0969 0.21526 0.0
H1651 H 0.83936 0.14761 0.20659 0.0
S1652 S 0.75551 0.09406 0.29676 0.0
N1653 N 0.78184 0.07149 0.28601 0.0
N1654 N 0.76265 0.12703 0.2773 0.0
C1655 C 0.78741 0.12059 0.26068 0.0
C1656 C 0.79787 0.09045 0.2654 0.0
C1657 C 0.67303 0.1295 0.02242 0.0
C1658 C 0.69275 0.10969 0.03535 0.0
C1659 C 0.64027 0.12223 0.02408 0.0
C1660 C 0.62585 0.09452 0.03829 0.0
H1661 H 0.68283 0.15035 0.01011 0.0
H1662 H 0.62605 0.1375 0.01249 0.0
S1663 S 0.66735 0.03694 0.07908 0.0
N1664 N 0.6959 0.06298 0.06565 0.0
N1665 N 0.63415 0.04901 0.06829 0.0
C1666 C 0.64548 0.07559 0.05298 0.0
C1667 C 0.67897 0.08324 0.05162 0.0
C1668 C 0.23288 0.43796 0.27073 0.0
C1669 C 0.23212 0.45422 0.3036 0.0
C1670 C 0.248 0.41087 0.26493 0.0
C1671 C 0.26264 0.39868 0.2918 0.0
H1672 H 0.22031 0.44501 0.24935 0.0
H1673 H 0.24634 0.39812 0.23927 0.0
S1674 S 0.2728 0.43615 0.38204 0.0
N1675 N 0.25175 0.45916 0.36309 0.0
N1676 N 0.27946 0.40771 0.35189 0.0
C1677 C 0.26446 0.41636 0.32447 0.0
C1678 C 0.24943 0.4443 0.33043 0.0
C1679 C 0.18094 0.42414 0.05853 0.0
C1680 C 0.20384 0.43724 0.03843 0.0
C1681 C 0.15204 0.43472 0.05939 0.0
C1682 C 0.14463 0.4589 0.04019 0.0
H1683 H 0.18538 0.40567 0.07404 0.0
H1684 H 0.13542 0.4238 0.07546 0.0
S1685 S 0.19606 0.50078 0.98274 0.0
N1686 N 0.21685 0.47555 0.99832 0.0
N1687 N 0.16254 0.49534 1e-05 0.0
C1688 C 0.16715 0.47206 0.01971 0.0
C1689 C 0.19668 0.46126 0.01881 0.0
C1690 C 0.79724 0.90945 0.2694 0.0
C1691 C 0.82953 0.91919 0.26491 0.0
C1692 C 0.78255 0.8755 0.26754 0.0
C1693 C 0.79974 0.84985 0.26198 0.0
H1694 H 0.78338 0.92836 0.27538 0.0
H1695 H 0.75787 0.8695 0.27201 0.0
S1696 S 0.88465 0.86186 0.24704 0.0
N1697 N 0.87783 0.90029 0.25286 0.0
N1698 N 0.85069 0.83667 0.25036 0.0
C1699 C 0.83185 0.85921 0.2564 0.0
C1700 C 0.84659 0.89378 0.25755 0.0
C1701 C 0.73581 0.13582 0.79894 0.0
C1702 C 0.7058 0.11557 0.78668 0.0
C1703 C 0.74267 0.17001 0.79633 0.0
C1704 C 0.71949 0.18534 0.78205 0.0
H1705 H 0.75368 0.12552 0.81204 0.0
H1706 H 0.76557 0.18491 0.80768 0.0
S1707 S 0.63864 0.1427 0.74231 0.0
N1708 N 0.65387 0.11264 0.75632 0.0
N1709 N 0.66663 0.17719 0.75228 0.0
C1710 C 0.69016 0.16501 0.76768 0.0
C1711 C 0.68336 0.13001 0.76972 0.0
loop_
_geom_bond_atom_site_label_1
_geom_bond_atom_site_label_2
_geom_bond_distance
_geom_bond_site_symmetry_2
_ccdc_geom_bond_type
Mg0 O1 2.028 . S
Mg0 O7 1.986 . S
Mg0 O9 2.134 . S
Mg0 O10 2.251 1_455 S
Mg0 O13 2.010 . S
O1 Mg0 2.028 . S
O1 C4 1.250 . S
O2 Mg3 2.028 1_455 S
O2 C4 1.248 . S
Mg3 O2 2.028 1_655 S
Mg3 O8 2.032 . S
Mg3 O10 2.079 . S
C4 O1 1.250 . S
C4 O2 1.248 . S
C5 O6 1.264 . S
C5 O13 1.249 . S
O6 C5 1.264 . S
O7 Mg0 1.986 . S
O7 C11 1.246 . S
O8 Mg3 2.032 . S
O8 C11 1.259 1_655 S
O9 Mg0 2.134 . S
O9 C12 1.223 1_455 S
O10 Mg0 2.251 1_655 S
O10 Mg3 2.079 . S
O10 C12 1.273 . S
C11 O7 1.246 . S
C11 O8 1.259 1_455 S
C12 O9 1.223 1_655 S
C12 O10 1.273 . S
O13 Mg0 2.010 . S
O13 C5 1.249 . S
Mg14 O15 2.028 . S
Mg14 O21 1.986 . S
Mg14 O23 2.114 1_455 S
Mg14 O24 2.251 1_455 S
Mg14 O27 2.010 . S
O15 Mg14 2.028 . S
O15 C18 1.250 1_455 S
O16 Mg17 2.028 . S
O16 C18 1.248 . S
Mg17 O16 2.028 . S
Mg17 O22 2.032 . S
Mg17 O24 2.079 . S
C18 O15 1.250 1_655 S
C18 O16 1.248 . S
C19 O20 1.264 . S
C19 O27 1.249 . S
O20 C19 1.264 . S
O21 Mg14 1.986 . S
O21 C25 1.246 . S
O22 Mg17 2.032 . S
O22 C25 1.259 1_655 S
O23 Mg14 2.114 1_655 S
O23 C26 1.252 . S
O24 Mg14 2.251 1_655 S
O24 Mg17 2.079 . S
O24 C26 1.273 . S
C25 O21 1.246 . S
C25 O22 1.259 1_455 S
C26 O23 1.252 . S
C26 O24 1.273 . S
O27 Mg14 2.010 . S
O27 C19 1.249 . S
Mg28 O29 2.028 . S
Mg28 O35 1.986 . S
Mg28 O37 2.114 . S
Mg28 O38 2.251 . S
Mg28 O41 2.010 . S
O29 Mg28 2.028 . S
O29 C32 1.250 . S
O30 Mg31 2.028 . S
O30 C32 1.248 . S
Mg31 O30 2.028 . S
Mg31 O36 2.032 . S
Mg31 O38 2.079 . S
C32 O29 1.250 . S
C32 O30 1.248 . S
C33 O34 1.264 . S
C33 O41 1.249 . S
O34 C33 1.264 . S
O35 Mg28 1.986 . S
O35 C39 1.246 . S
O36 Mg31 2.032 . S
O36 C39 1.259 . S
O37 Mg28 2.114 . S
O37 C40 1.252 . S
O38 Mg28 2.251 . S
O38 Mg31 2.079 . S
O38 C40 1.273 . S
C39 O35 1.246 . S
C39 O36 1.259 . S
C40 O37 1.252 . S
C40 O38 1.273 . S
O41 Mg28 2.010 . S
O41 C33 1.249 . S
Mg42 O43 2.028 . S
Mg42 O49 1.986 . S
Mg42 O51 2.114 . S
Mg42 O52 2.251 . S
Mg42 O55 2.010 . S
O43 Mg42 2.028 . S
O43 C46 1.250 . S
O44 Mg45 2.028 . S
O44 C46 1.248 . S
Mg45 O44 2.028 . S
Mg45 O50 2.032 . S
Mg45 O52 2.079 . S
C46 O43 1.250 . S
C46 O44 1.248 . S
C47 O48 1.264 . S
C47 O55 1.249 . S
O48 C47 1.264 . S
O49 Mg42 1.986 . S
O49 C53 1.246 . S
O50 Mg45 2.032 . S
O50 C53 1.259 . S
O51 Mg42 2.114 . S
O51 C54 1.252 . S
O52 Mg42 2.251 . S
O52 Mg45 2.079 . S
O52 C54 1.273 . S
C53 O49 1.246 . S
C53 O50 1.259 . S
C54 O51 1.252 . S
C54 O52 1.273 . S
O55 Mg42 2.010 . S
O55 C47 1.249 . S
Mg56 O57 2.028 . S
Mg56 O63 1.986 . S
Mg56 O65 2.114 . S
Mg56 O66 2.251 1_455 S
Mg56 O69 2.010 . S
O57 Mg56 2.028 . S
O57 C60 1.250 . S
O58 Mg59 2.028 1_455 S
O58 C60 1.248 . S
Mg59 O58 2.028 1_655 S
Mg59 O64 2.032 1_655 S
Mg59 O66 2.079 . S
C60 O57 1.250 . S
C60 O58 1.248 . S
C61 O62 1.264 . S
C61 O69 1.249 . S
O62 C61 1.264 . S
O63 Mg56 1.986 . S
O63 C67 1.246 . S
O64 Mg59 2.032 1_455 S
O64 C67 1.259 . S
O65 Mg56 2.114 . S
O65 C68 1.252 1_455 S
O66 Mg56 2.251 1_655 S
O66 Mg59 2.079 . S
O66 C68 1.273 . S
C67 O63 1.246 . S
C67 O64 1.259 . S
C68 O65 1.252 1_655 S
C68 O66 1.273 . S
O69 Mg56 2.010 . S
O69 C61 1.249 . S
Mg70 O71 2.028 . S
Mg70 O77 1.986 . S
Mg70 O79 2.114 . S
Mg70 O80 2.251 . S
Mg70 O83 2.010 . S
O71 Mg70 2.028 . S
O71 C74 1.250 . S
O72 Mg73 2.028 . S
O72 C74 1.248 . S
Mg73 O72 2.028 . S
Mg73 O78 2.032 . S
Mg73 O80 2.079 . S
C74 O71 1.250 . S
C74 O72 1.248 . S
C75 O76 1.264 . S
C75 O83 1.249 . S
O76 C75 1.264 . S
O77 Mg70 1.986 . S
O77 C81 1.246 . S
O78 Mg73 2.032 . S
O78 C81 1.259 . S
O79 Mg70 2.114 . S
O79 C82 1.252 . S
O80 Mg70 2.251 . S
O80 Mg73 2.079 . S
O80 C82 1.273 . S
C81 O77 1.246 . S
C81 O78 1.259 . S
C82 O79 1.252 . S
C82 O80 1.273 . S
O83 Mg70 2.010 . S
O83 C75 1.249 . S
Mg84 O85 2.028 . S
Mg84 O91 1.986 . S
Mg84 O93 2.114 . S
Mg84 O94 2.251 . S
Mg84 O97 2.010 . S
O85 Mg84 2.028 . S
O85 C88 1.250 . S
O86 Mg87 2.028 . S
O86 C88 1.248 . S
Mg87 O86 2.028 . S
Mg87 O92 2.032 . S
Mg87 O94 2.079 . S
C88 O85 1.250 . S
C88 O86 1.248 . S
C89 O90 1.264 . S
C89 O97 1.249 . S
O90 C89 1.264 . S
O91 Mg84 1.986 . S
O91 C95 1.246 . S
O92 Mg87 2.032 . S
O92 C95 1.259 . S
O93 Mg84 2.114 . S
O93 C96 1.252 . S
O94 Mg84 2.251 . S
O94 Mg87 2.079 . S
O94 C96 1.273 . S
C95 O91 1.246 . S
C95 O92 1.259 . S
C96 O93 1.252 . S
C96 O94 1.273 . S
O97 Mg84 2.010 . S
O97 C89 1.249 . S
Mg98 O99 2.028 1_655 S
Mg98 O105 1.986 1_655 S
Mg98 O107 2.114 . S
Mg98 O108 2.251 . S
Mg98 O111 2.010 1_655 S
O99 Mg98 2.028 1_455 S
O99 C102 1.250 1_455 S
O100 Mg101 2.028 . S
O100 C102 1.248 . S
Mg101 O100 2.028 . S
Mg101 O106 2.032 . S
Mg101 O108 2.079 . S
C102 O99 1.250 1_655 S
C102 O100 1.248 . S
C103 O104 1.264 . S
C103 O111 1.249 . S
O104 C103 1.264 . S
O105 Mg98 1.986 1_455 S
O105 C109 1.246 1_455 S
O106 Mg101 2.032 . S
O106 C109 1.259 . S
O107 Mg98 2.114 . S
O107 C110 1.252 . S
O108 Mg98 2.251 . S
O108 Mg101 2.079 . S
O108 C110 1.273 . S
C109 O105 1.246 1_655 S
C109 O106 1.259 . S
C110 O107 1.252 . S
C110 O108 1.273 . S
O111 Mg98 2.010 1_455 S
O111 C103 1.249 . S
Mg112 O113 2.028 1_545 S
Mg112 O119 1.986 . S
Mg112 O121 2.114 . S
Mg112 O122 2.251 . S
Mg112 O125 2.010 . S
O113 Mg112 2.028 1_565 S
O113 C116 1.250 . S
O114 Mg115 2.028 1_565 S
O114 C116 1.248 . S
Mg115 O114 2.028 1_545 S
Mg115 O120 2.032 . S
Mg115 O122 2.079 . S
C116 O113 1.250 . S
C116 O114 1.248 . S
C117 O118 1.264 . S
C117 O125 1.249 . S
O118 C117 1.264 . S
O119 Mg112 1.986 . S
O119 C123 1.246 . S
O120 Mg115 2.032 . S
O120 C123 1.259 . S
O121 Mg112 2.114 . S
O121 C124 1.252 . S
O122 Mg112 2.251 . S
O122 Mg115 2.079 . S
O122 C124 1.273 . S
C123 O119 1.246 . S
C123 O120 1.259 . S
C124 O121 1.252 . S
C124 O122 1.273 . S
O125 Mg112 2.010 . S
O125 C117 1.249 . S
Mg126 O127 2.028 . S
Mg126 O133 1.986 . S
Mg126 O135 2.114 . S
Mg126 O136 2.251 . S
Mg126 O139 2.010 . S
O127 Mg126 2.028 . S
O127 C130 1.250 . S
O128 Mg129 2.028 . S
O128 C130 1.248 . S
Mg129 O128 2.028 . S
Mg129 O134 2.032 . S
Mg129 O136 2.079 . S
C130 O127 1.250 . S
C130 O128 1.248 . S
C131 O132 1.264 . S
C131 O139 1.249 . S
O132 C131 1.264 . S
O133 Mg126 1.986 . S
O133 C137 1.246 . S
O134 Mg129 2.032 . S
O134 C137 1.259 . S
O135 Mg126 2.114 . S
O135 C138 1.252 . S
O136 Mg126 2.251 . S
O136 Mg129 2.079 . S
O136 C138 1.273 . S
C137 O133 1.246 . S
C137 O134 1.259 . S
C138 O135 1.252 . S
C138 O136 1.273 . S
O139 Mg126 2.010 . S
O139 C131 1.249 . S
Mg140 O141 2.028 . S
Mg140 O147 1.986 1_545 S
Mg140 O149 2.114 . S
Mg140 O150 2.251 . S
Mg140 O153 2.010 1_545 S
O141 Mg140 2.028 . S
O141 C144 1.250 . S
O142 Mg143 2.028 . S
O142 C144 1.248 . S
Mg143 O142 2.028 . S
Mg143 O148 2.032 1_545 S
Mg143 O150 2.079 . S
C144 O141 1.250 . S
C144 O142 1.248 . S
C145 O146 1.271 . S
C145 O153 1.254 . S
O146 C145 1.271 . S
O147 Mg140 1.986 1_565 S
O147 C151 1.246 . S
O148 Mg143 2.032 1_565 S
O148 C151 1.259 . S
O149 Mg140 2.114 . S
O149 C152 1.252 . S
O150 Mg140 2.251 . S
O150 Mg143 2.079 . S
O150 C152 1.273 . S
C151 O147 1.246 . S
C151 O148 1.259 . S
C152 O149 1.252 . S
C152 O150 1.273 . S
O153 Mg140 2.010 1_565 S
O153 C145 1.254 . S
Mg154 O155 2.028 1_554 S
Mg154 O161 1.986 . S
Mg154 O163 2.114 . S
Mg154 O164 2.251 . S
Mg154 O167 2.010 . S
O155 Mg154 2.028 1_556 S
O155 C158 1.250 . S
O156 Mg157 2.028 1_556 S
O156 C158 1.248 . S
Mg157 O156 2.028 1_554 S
Mg157 O162 2.032 . S
Mg157 O164 2.079 . S
C158 O155 1.250 . S
C158 O156 1.248 . S
C159 O160 1.264 . S
C159 O167 1.249 . S
O160 C159 1.264 . S
O161 Mg154 1.986 . S
O161 C165 1.246 . S
O162 Mg157 2.032 . S
O162 C165 1.259 . S
O163 Mg154 2.114 . S
O163 C166 1.252 . S
O164 Mg154 2.251 . S
O164 Mg157 2.079 . S
O164 C166 1.273 . S
C165 O161 1.246 . S
C165 O162 1.259 . S
C166 O163 1.252 . S
C166 O164 1.273 . S
O167 Mg154 2.010 . S
O167 C159 1.249 . S
Mg168 O169 2.028 . S
Mg168 O175 1.986 . S
Mg168 O177 2.114 . S
Mg168 O178 2.251 . S
Mg168 O181 2.010 . S
O169 Mg168 2.028 . S
O169 C172 1.250 . S
O170 Mg171 2.028 . S
O170 C172 1.248 . S
Mg171 O170 2.028 . S
Mg171 O176 2.032 . S
Mg171 O178 2.079 . S
C172 O169 1.250 . S
C172 O170 1.248 . S
C173 O174 1.264 . S
C173 O181 1.249 . S
O174 C173 1.264 . S
O175 Mg168 1.986 . S
O175 C179 1.246 . S
O176 Mg171 2.032 . S
O176 C179 1.259 . S
O177 Mg168 2.114 . S
O177 C180 1.252 . S
O178 Mg168 2.251 . S
O178 Mg171 2.079 . S
O178 C180 1.273 . S
C179 O175 1.246 . S
C179 O176 1.259 . S
C180 O177 1.252 . S
C180 O178 1.273 . S
O181 Mg168 2.010 . S
O181 C173 1.249 . S
Mg182 O183 2.028 . S
Mg182 O189 1.991 . S
Mg182 O191 2.114 . S
Mg182 O192 2.251 . S
Mg182 O195 2.010 . S
O183 Mg182 2.028 . S
O183 C186 1.250 . S
O184 Mg185 2.028 . S
O184 C186 1.248 . S
Mg185 O184 2.028 . S
Mg185 O190 2.032 . S
Mg185 O192 2.079 . S
C186 O183 1.250 . S
C186 O184 1.248 . S
C187 O188 1.264 . S
C187 O195 1.249 . S
O188 C187 1.264 . S
O189 Mg182 1.991 . S
O189 C193 1.243 1_554 S
O190 Mg185 2.032 . S
O190 C193 1.259 1_554 S
O191 Mg182 2.114 . S
O191 C194 1.252 . S
O192 Mg182 2.251 . S
O192 Mg185 2.079 . S
O192 C194 1.273 . S
C193 O189 1.243 1_556 S
C193 O190 1.259 1_556 S
C194 O191 1.252 . S
C194 O192 1.273 . S
O195 Mg182 2.010 . S
O195 C187 1.249 . S
Mg196 O197 2.028 . S
Mg196 O203 1.986 . S
Mg196 O205 2.114 . S
Mg196 O206 2.251 . S
Mg196 O209 2.010 . S
O197 Mg196 2.028 . S
O197 C200 1.250 . S
O198 Mg199 2.028 . S
O198 C200 1.248 . S
Mg199 O198 2.028 . S
Mg199 O204 2.032 . S
Mg199 O206 2.079 . S
C200 O197 1.250 . S
C200 O198 1.248 . S
C201 O202 1.264 . S
C201 O209 1.249 . S
O202 C201 1.264 . S
O203 Mg196 1.986 . S
O203 C207 1.246 . S
O204 Mg199 2.032 . S
O204 C207 1.259 . S
O205 Mg196 2.114 . S
O205 C208 1.252 . S
O206 Mg196 2.251 . S
O206 Mg199 2.079 . S
O206 C208 1.273 . S
C207 O203 1.246 . S
C207 O204 1.259 . S
C208 O205 1.252 . S
C208 O206 1.273 . S
O209 Mg196 2.010 . S
O209 C201 1.249 . S
Mg210 O211 2.028 . S
Mg210 O217 1.986 . S
Mg210 O219 2.114 . S
Mg210 O220 2.251 . S
Mg210 O223 2.010 . S
O211 Mg210 2.028 . S
O211 C214 1.250 . S
O212 Mg213 2.028 . S
O212 C214 1.248 . S
Mg213 O212 2.028 . S
Mg213 O218 2.032 . S
Mg213 O220 2.079 . S
C214 O211 1.250 . S
C214 O212 1.248 . S
C215 O216 1.264 . S
C215 O223 1.249 . S
O216 C215 1.264 . S
O217 Mg210 1.986 . S
O217 C221 1.246 . S
O218 Mg213 2.032 . S
O218 C221 1.259 . S
O219 Mg210 2.114 . S
O219 C222 1.252 . S
O220 Mg210 2.251 . S
O220 Mg213 2.079 . S
O220 C222 1.273 . S
C221 O217 1.246 . S
C221 O218 1.259 . S
C222 O219 1.252 . S
C222 O220 1.273 . S
O223 Mg210 2.010 . S
O223 C215 1.249 . S
Mg224 O225 2.028 1_545 S
Mg224 O231 1.986 . S
Mg224 O233 2.113 . S
Mg224 O234 2.251 . S
Mg224 O237 2.010 . S
O225 Mg224 2.028 1_565 S
O225 C228 1.250 . S
O226 Mg227 2.028 1_565 S
O226 C228 1.248 . S
Mg227 O226 2.028 1_545 S
Mg227 O232 2.032 . S
Mg227 O234 2.079 . S
C228 O225 1.250 . S
C228 O226 1.248 . S
C229 O230 1.264 . S
C229 O237 1.249 . S
O230 C229 1.264 . S
O231 Mg224 1.986 . S
O231 C235 1.246 . S
O232 Mg227 2.032 . S
O232 C235 1.259 . S
O233 Mg224 2.113 . S
O233 C236 1.252 . S
O234 Mg224 2.251 . S
O234 Mg227 2.079 . S
O234 C236 1.273 . S
C235 O231 1.246 . S
C235 O232 1.259 . S
C236 O233 1.252 . S
C236 O234 1.273 . S
O237 Mg224 2.010 . S
O237 C229 1.249 . S
Mg238 O239 2.028 . S
Mg238 O245 1.986 . S
Mg238 O247 2.114 . S
Mg238 O248 2.251 . S
Mg238 O251 2.010 . S
O239 Mg238 2.028 . S
O239 C242 1.250 . S
O240 Mg241 2.028 . S
O240 C242 1.248 . S
Mg241 O240 2.028 . S
Mg241 O246 2.032 . S
Mg241 O248 2.079 . S
C242 O239 1.250 . S
C242 O240 1.248 . S
C243 O244 1.264 . S
C243 O251 1.249 . S
O244 C243 1.264 . S
O245 Mg238 1.986 . S
O245 C249 1.246 . S
O246 Mg241 2.032 . S
O246 C249 1.259 . S
O247 Mg238 2.114 . S
O247 C250 1.252 . S
O248 Mg238 2.251 . S
O248 Mg241 2.079 . S
O248 C250 1.273 . S
C249 O245 1.246 . S
C249 O246 1.259 . S
C250 O247 1.252 . S
C250 O248 1.273 . S
O251 Mg238 2.010 . S
O251 C243 1.249 . S
Mg252 O253 2.028 . S
Mg252 O259 1.986 . S
Mg252 O261 2.114 . S
Mg252 O262 2.251 . S
Mg252 O265 2.010 . S
O253 Mg252 2.028 . S
O253 C256 1.250 . S
O254 Mg255 2.028 . S
O254 C256 1.248 . S
Mg255 O254 2.028 . S
Mg255 O260 2.032 . S
Mg255 O262 2.079 . S
C256 O253 1.250 . S
C256 O254 1.248 . S
C257 O258 1.264 . S
C257 O265 1.249 . S
O258 C257 1.264 . S
O259 Mg252 1.986 . S
O259 C263 1.246 . S
O260 Mg255 2.032 . S
O260 C263 1.259 . S
O261 Mg252 2.114 . S
O261 C264 1.252 . S
O262 Mg252 2.251 . S
O262 Mg255 2.079 . S
O262 C264 1.273 . S
C263 O259 1.246 . S
C263 O260 1.259 . S
C264 O261 1.252 . S
C264 O262 1.273 . S
O265 Mg252 2.010 . S
O265 C257 1.249 . S
Mg266 O267 2.028 1_565 S
Mg266 O273 1.986 . S
Mg266 O275 2.114 1_565 S
Mg266 O276 2.251 . S
Mg266 O279 2.010 . S
O267 Mg266 2.028 1_545 S
O267 C270 1.250 . S
O268 Mg269 2.028 . S
O268 C270 1.248 . S
Mg269 O268 2.028 . S
Mg269 O274 2.032 1_545 S
Mg269 O276 2.079 1_545 S
C270 O267 1.250 . S
C270 O268 1.248 . S
C271 O272 1.264 . S
C271 O279 1.249 . S
O272 C271 1.264 . S
O273 Mg266 1.986 . S
O273 C277 1.246 . S
O274 Mg269 2.032 1_565 S
O274 C277 1.259 . S
O275 Mg266 2.114 1_545 S
O275 C278 1.252 . S
O276 Mg266 2.251 . S
O276 Mg269 2.079 1_565 S
O276 C278 1.273 1_565 S
C277 O273 1.246 . S
C277 O274 1.259 . S
C278 O275 1.252 . S
C278 O276 1.273 1_545 S
O279 Mg266 2.010 . S
O279 C271 1.249 . S
Mg280 O281 2.028 1_556 S
Mg280 O287 1.986 . S
Mg280 O289 2.114 1_556 S
Mg280 O290 2.251 . S
Mg280 O293 2.010 . S
O281 Mg280 2.028 1_554 S
O281 C284 1.250 . S
O282 Mg283 2.028 . S
O282 C284 1.248 . S
Mg283 O282 2.028 . S
Mg283 O288 2.032 1_554 S
Mg283 O290 2.079 1_554 S
C284 O281 1.250 . S
C284 O282 1.248 . S
C285 O286 1.264 . S
C285 O293 1.249 . S
O286 C285 1.264 . S
O287 Mg280 1.986 . S
O287 C291 1.246 . S
O288 Mg283 2.032 1_556 S
O288 C291 1.259 . S
O289 Mg280 2.114 1_554 S
O289 C292 1.252 . S
O290 Mg280 2.251 . S
O290 Mg283 2.079 1_556 S
O290 C292 1.273 1_556 S
C291 O287 1.246 . S
C291 O288 1.259 . S
C292 O289 1.252 . S
C292 O290 1.273 1_554 S
O293 Mg280 2.010 . S
O293 C285 1.249 . S
Mg294 O295 2.028 . S
Mg294 O301 1.986 . S
Mg294 O303 2.114 . S
Mg294 O304 2.251 . S
Mg294 O307 2.010 . S
O295 Mg294 2.028 . S
O295 C298 1.250 . S
O296 Mg297 2.028 . S
O296 C298 1.248 . S
Mg297 O296 2.028 . S
Mg297 O302 2.032 . S
Mg297 O304 2.079 . S
C298 O295 1.250 . S
C298 O296 1.248 . S
C299 O300 1.264 . S
C299 O307 1.249 . S
O300 C299 1.264 . S
O301 Mg294 1.986 . S
O301 C305 1.246 . S
O302 Mg297 2.032 . S
O302 C305 1.259 . S
O303 Mg294 2.114 . S
O303 C306 1.252 . S
O304 Mg294 2.251 . S
O304 Mg297 2.079 . S
O304 C306 1.273 . S
C305 O301 1.246 . S
C305 O302 1.259 . S
C306 O303 1.252 . S
C306 O304 1.273 . S
O307 Mg294 2.010 . S
O307 C299 1.249 . S
Mg308 O309 2.028 . S
Mg308 O315 1.986 . S
Mg308 O317 2.114 . S
Mg308 O318 2.251 . S
Mg308 O321 2.010 . S
O309 Mg308 2.028 . S
O309 C312 1.250 . S
O310 Mg311 2.028 . S
O310 C312 1.248 . S
Mg311 O310 2.028 . S
Mg311 O316 2.032 . S
Mg311 O318 2.079 . S
C312 O309 1.250 . S
C312 O310 1.248 . S
C313 O314 1.264 . S
C313 O321 1.249 . S
O314 C313 1.264 . S
O315 Mg308 1.986 . S
O315 C319 1.246 . S
O316 Mg311 2.032 . S
O316 C319 1.259 . S
O317 Mg308 2.114 . S
O317 C320 1.252 . S
O318 Mg308 2.251 . S
O318 Mg311 2.079 . S
O318 C320 1.273 . S
C319 O315 1.246 . S
C319 O316 1.259 . S
C320 O317 1.252 . S
C320 O318 1.273 . S
O321 Mg308 2.010 . S
O321 C313 1.249 . S
Mg322 O323 2.028 . S
Mg322 O329 1.986 . S
Mg322 O331 2.114 . S
Mg322 O332 2.251 . S
Mg322 O335 2.010 . S
O323 Mg322 2.028 . S
O323 C326 1.250 . S
O324 Mg325 2.028 . S
O324 C326 1.248 . S
Mg325 O324 2.028 . S
Mg325 O330 2.032 . S
Mg325 O332 2.079 . S
C326 O323 1.250 . S
C326 O324 1.248 . S
C327 O328 1.264 . S
C327 O335 1.249 . S
O328 C327 1.264 . S
O329 Mg322 1.986 . S
O329 C333 1.246 . S
O330 Mg325 2.032 . S
O330 C333 1.259 . S
O331 Mg322 2.114 . S
O331 C334 1.252 . S
O332 Mg322 2.251 . S
O332 Mg325 2.079 . S
O332 C334 1.273 . S
C333 O329 1.246 . S
C333 O330 1.259 . S
C334 O331 1.252 . S
C334 O332 1.273 . S
O335 Mg322 2.010 . S
O335 C327 1.249 . S
Zn336 O342 1.969 . S
Zn336 O343 1.965 1_565 S
Zn336 O347 2.024 . S
Zn336 O352 1.969 . S
Zn337 O344 1.969 1_654 S
Zn337 O350 1.969 1_554 S
Zn337 O351 1.965 . S
Zn337 O353 2.024 1_655 S
C338 O339 1.229 . S
C338 O347 1.058 . S
O339 C338 1.229 . S
C340 O341 1.229 1_454 S
C340 O353 1.058 . S
O341 C340 1.229 1_656 S
O342 Zn336 1.969 . S
O342 C345 1.267 . S
O343 Zn336 1.965 1_545 S
O343 C354 1.260 1_554 S
O344 Zn337 1.969 1_456 S
O344 C354 1.258 . S
C345 O342 1.267 . S
C345 O346 1.228 . S
O346 C345 1.228 . S
O347 Zn336 2.024 . S
O347 C338 1.058 . S
C348 O349 1.211 1_556 S
C348 O350 1.279 . S
O349 C348 1.211 1_554 S
O350 Zn337 1.969 1_556 S
O350 C348 1.279 . S
O351 Zn337 1.965 . S
O351 C355 1.260 1_655 S
O352 Zn336 1.969 . S
O352 C355 1.258 1_565 S
O353 Zn337 2.024 1_455 S
O353 C340 1.058 . S
C354 O343 1.260 1_556 S
C354 O344 1.258 . S
C355 O351 1.260 1_455 S
C355 O352 1.258 1_545 S
Zn356 O362 1.969 . S
Zn356 O363 1.965 . S
Zn356 O367 2.024 . S
Zn356 O372 1.969 . S
Zn357 O364 1.969 . S
Zn357 O370 1.969 . S
Zn357 O371 1.965 . S
Zn357 O373 2.024 . S
C358 O359 1.229 . S
C358 O367 1.058 . S
O359 C358 1.229 . S
C360 O361 1.229 . S
C360 O373 1.058 . S
O361 C360 1.229 . S
O362 Zn356 1.969 . S
O362 C365 1.267 . S
O363 Zn356 1.965 . S
O363 C374 1.260 . S
O364 Zn357 1.969 . S
O364 C374 1.258 . S
C365 O362 1.267 . S
C365 O366 1.228 . S
O366 C365 1.228 . S
O367 Zn356 2.024 . S
O367 C358 1.058 . S
C368 O369 1.228 . S
C368 O370 1.267 . S
O369 C368 1.228 . S
O370 Zn357 1.969 . S
O370 C368 1.267 . S
O371 Zn357 1.965 . S
O371 C375 1.260 . S
O372 Zn356 1.969 . S
O372 C375 1.258 . S
O373 Zn357 2.024 . S
O373 C360 1.058 . S
C374 O363 1.260 . S
C374 O364 1.258 . S
C375 O371 1.260 . S
C375 O372 1.258 . S
Zn376 O382 1.969 . S
Zn376 O383 1.965 . S
Zn376 O387 2.024 . S
Zn376 O392 1.969 . S
Zn377 O384 1.969 . S
Zn377 O390 1.969 . S
Zn377 O391 1.965 1_565 S
Zn377 O393 2.024 . S
C378 O379 1.229 . S
C378 O387 1.058 . S
O379 C378 1.229 . S
C380 O381 1.229 . S
C380 O393 1.058 . S
O381 C380 1.229 . S
O382 Zn376 1.969 . S
O382 C385 1.267 . S
O383 Zn376 1.965 . S
O383 C394 1.260 . S
O384 Zn377 1.969 . S
O384 C394 1.258 1_565 S
C385 O382 1.267 . S
C385 O386 1.228 . S
O386 C385 1.228 . S
O387 Zn376 2.024 . S
O387 C378 1.058 . S
C388 O389 1.228 . S
C388 O390 1.267 . S
O389 C388 1.228 . S
O390 Zn377 1.969 . S
O390 C388 1.267 . S
O391 Zn377 1.965 1_545 S
O391 C395 1.260 . S
O392 Zn376 1.969 . S
O392 C395 1.258 . S
O393 Zn377 2.024 . S
O393 C380 1.058 . S
C394 O383 1.260 . S
C394 O384 1.258 1_545 S
C395 O391 1.260 . S
C395 O392 1.258 . S
Zn396 O402 1.969 . S
Zn396 O403 1.965 . S
Zn396 O407 2.024 . S
Zn396 O412 1.969 . S
Zn397 O404 1.969 . S
Zn397 O410 1.969 . S
Zn397 O411 1.965 . S
Zn397 O413 2.024 . S
C398 O399 1.229 . S
C398 O407 1.058 . S
O399 C398 1.229 . S
C400 O401 1.229 . S
C400 O413 1.058 . S
O401 C400 1.229 . S
O402 Zn396 1.969 . S
O402 C405 1.267 . S
O403 Zn396 1.965 . S
O403 C414 1.260 . S
O404 Zn397 1.969 . S
O404 C414 1.258 . S
C405 O402 1.267 . S
C405 O406 1.228 . S
O406 C405 1.228 . S
O407 Zn396 2.024 . S
O407 C398 1.058 . S
C408 O409 1.228 . S
C408 O410 1.267 . S
O409 C408 1.228 . S
O410 Zn397 1.969 . S
O410 C408 1.267 . S
O411 Zn397 1.965 . S
O411 C415 1.260 . S
O412 Zn396 1.969 . S
O412 C415 1.258 . S
O413 Zn397 2.024 . S
O413 C400 1.058 . S
C414 O403 1.260 . S
C414 O404 1.258 . S
C415 O411 1.260 . S
C415 O412 1.258 . S
Zn416 O422 1.969 . S
Zn416 O423 1.965 1_455 S
Zn416 O427 2.024 1_565 S
Zn416 O432 1.969 1_565 S
Zn417 O424 1.995 . S
Zn417 O430 1.984 . S
Zn417 O431 1.935 1_655 S
Zn417 O433 2.009 1_655 S
C418 O419 1.229 1_545 S
C418 O427 1.058 . S
O419 C418 1.229 1_565 S
C420 O421 1.229 . S
C420 O433 1.034 1_655 S
O421 C420 1.229 . S
O422 Zn416 1.969 . S
O422 C425 1.267 . S
O423 Zn416 1.965 1_655 S
O423 C434 1.260 . S
O424 Zn417 1.995 . S
O424 C434 1.258 1_545 S
C425 O422 1.267 . S
C425 O426 1.228 . S
O426 C425 1.228 . S
O427 Zn416 2.024 1_545 S
O427 C418 1.058 . S
C428 O429 1.228 . S
C428 O430 1.267 1_455 S
O429 C428 1.228 . S
O430 Zn417 1.984 . S
O430 C428 1.267 1_655 S
O431 Zn417 1.935 1_455 S
O431 C435 1.260 . S
O432 Zn416 1.969 1_545 S
O432 C435 1.258 . S
O433 Zn417 2.009 1_455 S
O433 C420 1.034 1_455 S
C434 O423 1.260 . S
C434 O424 1.258 1_565 S
C435 O431 1.260 . S
C435 O432 1.258 . S
Zn436 O442 1.969 . S
Zn436 O443 1.965 . S
Zn436 O447 2.024 . S
Zn436 O452 1.969 . S
Zn437 O444 1.969 . S
Zn437 O450 1.969 . S
Zn437 O451 1.965 . S
Zn437 O453 2.024 . S
C438 O439 1.229 . S
C438 O447 1.058 . S
O439 C438 1.229 . S
C440 O441 1.229 . S
C440 O453 1.058 . S
O441 C440 1.229 . S
O442 Zn436 1.969 . S
O442 C445 1.267 . S
O443 Zn436 1.965 . S
O443 C454 1.260 . S
O444 Zn437 1.969 . S
O444 C454 1.258 . S
C445 O442 1.267 . S
C445 O446 1.228 . S
O446 C445 1.228 . S
O447 Zn436 2.024 . S
O447 C438 1.058 . S
C448 O449 1.228 . S
C448 O450 1.267 . S
O449 C448 1.228 . S
O450 Zn437 1.969 . S
O450 C448 1.267 . S
O451 Zn437 1.965 . S
O451 C455 1.260 . S
O452 Zn436 1.969 . S
O452 C455 1.258 . S
O453 Zn437 2.024 . S
O453 C440 1.058 . S
C454 O443 1.260 . S
C454 O444 1.258 . S
C455 O451 1.260 . S
C455 O452 1.258 . S
Zn456 O462 1.969 . S
Zn456 O463 1.965 1_545 S
Zn456 O467 2.024 1_556 S
Zn456 O472 1.969 1_556 S
Zn457 O464 1.969 . S
Zn457 O470 1.969 . S
Zn457 O471 1.965 1_565 S
Zn457 O473 2.024 . S
C458 O459 1.229 . S
C458 O467 1.058 . S
O459 C458 1.229 . S
C460 O461 1.229 . S
C460 O473 1.058 . S
O461 C460 1.229 . S
O462 Zn456 1.969 . S
O462 C465 1.267 . S
O463 Zn456 1.965 1_565 S
O463 C474 1.260 1_556 S
O464 Zn457 1.969 . S
O464 C474 1.258 . S
C465 O462 1.267 . S
C465 O466 1.228 . S
O466 C465 1.228 . S
O467 Zn456 2.024 1_554 S
O467 C458 1.058 . S
C468 O469 1.228 1_565 S
C468 O470 1.267 . S
O469 C468 1.228 1_545 S
O470 Zn457 1.969 . S
O470 C468 1.267 . S
O471 Zn457 1.965 1_545 S
O471 C475 1.260 . S
O472 Zn456 1.969 1_554 S
O472 C475 1.258 . S
O473 Zn457 2.024 . S
O473 C460 1.058 . S
C474 O463 1.260 1_554 S
C474 O464 1.258 . S
C475 O471 1.260 . S
C475 O472 1.258 . S
Zn476 O482 1.969 . S
Zn476 O483 1.965 . S
Zn476 O487 2.024 . S
Zn476 O492 1.969 . S
Zn477 O484 1.969 . S
Zn477 O490 1.969 . S
Zn477 O491 1.965 . S
Zn477 O493 2.024 . S
C478 O479 1.229 . S
C478 O487 1.058 . S
O479 C478 1.229 . S
C480 O481 1.229 . S
C480 O493 1.058 . S
O481 C480 1.229 . S
O482 Zn476 1.969 . S
O482 C485 1.267 . S
O483 Zn476 1.965 . S
O483 C494 1.260 . S
O484 Zn477 1.969 . S
O484 C494 1.258 . S
C485 O482 1.267 . S
C485 O486 1.228 . S
O486 C485 1.228 . S
O487 Zn476 2.024 . S
O487 C478 1.058 . S
C488 O489 1.228 . S
C488 O490 1.267 . S
O489 C488 1.228 . S
O490 Zn477 1.969 . S
O490 C488 1.267 . S
O491 Zn477 1.965 . S
O491 C495 1.260 . S
O492 Zn476 1.969 . S
O492 C495 1.258 . S
O493 Zn477 2.024 . S
O493 C480 1.058 . S
C494 O483 1.260 . S
C494 O484 1.258 . S
C495 O491 1.260 . S
C495 O492 1.258 . S
Zn496 O502 1.969 . S
Zn496 O503 1.965 . S
Zn496 O507 2.024 . S
Zn496 O512 1.969 . S
Zn497 O504 1.969 1_556 S
Zn497 O510 1.969 1_556 S
Zn497 O511 1.965 1_556 S
Zn497 O513 2.024 . S
C498 O499 1.229 . S
C498 O507 1.058 . S
O499 C498 1.229 . S
C500 O501 1.229 . S
C500 O513 1.058 . S
O501 C500 1.229 . S
O502 Zn496 1.969 . S
O502 C505 1.267 . S
O503 Zn496 1.965 . S
O503 C514 1.260 . S
O504 Zn497 1.969 1_554 S
O504 C514 1.258 . S
C505 O502 1.267 . S
C505 O506 1.228 . S
O506 C505 1.228 . S
O507 Zn496 2.024 . S
O507 C498 1.058 . S
C508 O509 1.228 . S
C508 O510 1.267 1_556 S
O509 C508 1.228 . S
O510 Zn497 1.969 1_554 S
O510 C508 1.267 1_554 S
O511 Zn497 1.965 1_554 S
O511 C515 1.260 . S
O512 Zn496 1.969 . S
O512 C515 1.258 . S
O513 Zn497 2.024 . S
O513 C500 1.058 . S
C514 O503 1.260 . S
C514 O504 1.258 . S
C515 O511 1.260 . S
C515 O512 1.258 . S
Zn516 O522 1.969 . S
Zn516 O523 1.965 . S
Zn516 O527 2.024 . S
Zn516 O532 1.969 . S
Zn517 O524 1.969 . S
Zn517 O530 1.969 . S
Zn517 O531 1.965 . S
Zn517 O533 2.024 . S
C518 O519 1.229 . S
C518 O527 1.058 . S
O519 C518 1.229 . S
C520 O521 1.229 . S
C520 O533 1.058 . S
O521 C520 1.229 . S
O522 Zn516 1.969 . S
O522 C525 1.267 . S
O523 Zn516 1.965 . S
O523 C534 1.260 . S
O524 Zn517 1.969 . S
O524 C534 1.258 . S
C525 O522 1.267 . S
C525 O526 1.228 . S
O526 C525 1.228 . S
O527 Zn516 2.024 . S
O527 C518 1.058 . S
C528 O529 1.228 . S
C528 O530 1.267 . S
O529 C528 1.228 . S
O530 Zn517 1.969 . S
O530 C528 1.267 . S
O531 Zn517 1.965 . S
O531 C535 1.260 . S
O532 Zn516 1.969 . S
O532 C535 1.258 . S
O533 Zn517 2.024 . S
O533 C520 1.058 . S
C534 O523 1.260 . S
C534 O524 1.258 . S
C535 O531 1.260 . S
C535 O532 1.258 . S
Zn536 O542 1.969 . S
Zn536 O543 1.965 . S
Zn536 O547 2.024 . S
Zn536 O552 1.969 . S
Zn537 O544 1.969 1_655 S
Zn537 O550 1.969 . S
Zn537 O551 1.965 1_655 S
Zn537 O553 2.024 . S
C538 O539 1.229 . S
C538 O547 1.058 . S
O539 C538 1.229 . S
C540 O541 1.229 . S
C540 O553 1.058 . S
O541 C540 1.229 . S
O542 Zn536 1.969 . S
O542 C545 1.267 . S
O543 Zn536 1.965 . S
O543 C554 1.260 . S
O544 Zn537 1.969 1_455 S
O544 C554 1.258 . S
C545 O542 1.267 . S
C545 O546 1.228 . S
O546 C545 1.228 . S
O547 Zn536 2.024 . S
O547 C538 1.058 . S
C548 O549 1.228 . S
C548 O550 1.267 . S
O549 C548 1.228 . S
O550 Zn537 1.969 . S
O550 C548 1.267 . S
O551 Zn537 1.965 1_455 S
O551 C555 1.260 . S
O552 Zn536 1.969 . S
O552 C555 1.258 . S
O553 Zn537 2.024 . S
O553 C540 1.058 . S
C554 O543 1.260 . S
C554 O544 1.258 . S
C555 O551 1.260 . S
C555 O552 1.258 . S
Zn556 O562 1.969 . S
Zn556 O563 1.965 . S
Zn556 O567 2.024 . S
Zn556 O572 1.969 . S
Zn557 O564 1.969 . S
Zn557 O570 1.969 . S
Zn557 O571 1.965 . S
Zn557 O573 2.024 . S
C558 O559 1.229 . S
C558 O567 1.058 . S
O559 C558 1.229 . S
C560 O561 1.229 . S
C560 O573 1.058 . S
O561 C560 1.229 . S
O562 Zn556 1.969 . S
O562 C565 1.267 . S
O563 Zn556 1.965 . S
O563 C574 1.260 . S
O564 Zn557 1.969 . S
O564 C574 1.258 . S
C565 O562 1.267 . S
C565 O566 1.228 . S
O566 C565 1.228 . S
O567 Zn556 2.024 . S
O567 C558 1.058 . S
C568 O569 1.228 . S
C568 O570 1.267 . S
O569 C568 1.228 . S
O570 Zn557 1.969 . S
O570 C568 1.267 . S
O571 Zn557 1.965 . S
O571 C575 1.260 . S
O572 Zn556 1.969 . S
O572 C575 1.258 . S
O573 Zn557 2.024 . S
O573 C560 1.058 . S
C574 O563 1.260 . S
C574 O564 1.258 . S
C575 O571 1.260 . S
C575 O572 1.258 . S
Zn576 O582 1.969 . S
Zn576 O583 1.965 . S
Zn576 O587 2.024 . S
Zn576 O592 1.969 . S
Zn577 O584 1.969 . S
Zn577 O590 1.969 . S
Zn577 O591 1.965 . S
Zn577 O593 2.024 . S
C578 O579 1.229 . S
C578 O587 1.058 . S
O579 C578 1.229 . S
C580 O581 1.229 . S
C580 O593 1.058 . S
O581 C580 1.229 . S
O582 Zn576 1.969 . S
O582 C585 1.267 . S
O583 Zn576 1.965 . S
O583 C594 1.260 . S
O584 Zn577 1.969 . S
O584 C594 1.258 . S
C585 O582 1.267 . S
C585 O586 1.228 . S
O586 C585 1.228 . S
O587 Zn576 2.024 . S
O587 C578 1.058 . S
C588 O589 1.228 . S
C588 O590 1.267 . S
O589 C588 1.228 . S
O590 Zn577 1.969 . S
O590 C588 1.267 . S
O591 Zn577 1.965 . S
O591 C595 1.260 . S
O592 Zn576 1.969 . S
O592 C595 1.258 . S
O593 Zn577 2.024 . S
O593 C580 1.058 . S
C594 O583 1.260 . S
C594 O584 1.258 . S
C595 O591 1.260 . S
C595 O592 1.258 . S
Zn596 O602 1.969 . S
Zn596 O603 1.965 . S
Zn596 O607 2.024 . S
Zn596 O612 1.969 . S
Zn597 O604 1.969 . S
Zn597 O610 1.969 . S
Zn597 O611 1.965 . S
Zn597 O613 2.024 . S
C598 O599 1.229 . S
C598 O607 1.058 . S
O599 C598 1.229 . S
C600 O601 1.229 . S
C600 O613 1.058 . S
O601 C600 1.229 . S
O602 Zn596 1.969 . S
O602 C605 1.267 . S
O603 Zn596 1.965 . S
O603 C614 1.260 . S
O604 Zn597 1.969 . S
O604 C614 1.258 . S
C605 O602 1.267 . S
C605 O606 1.228 . S
O606 C605 1.228 . S
O607 Zn596 2.024 . S
O607 C598 1.058 . S
C608 O609 1.228 . S
C608 O610 1.267 . S
O609 C608 1.228 . S
O610 Zn597 1.969 . S
O610 C608 1.267 . S
O611 Zn597 1.965 . S
O611 C615 1.260 . S
O612 Zn596 1.969 . S
O612 C615 1.258 . S
O613 Zn597 2.024 . S
O613 C600 1.058 . S
C614 O603 1.260 . S
C614 O604 1.258 . S
C615 O611 1.260 . S
C615 O612 1.258 . S
Zn616 O622 1.969 . S
Zn616 O623 1.965 . S
Zn616 O627 2.024 . S
Zn616 O632 1.969 . S
Zn617 O624 1.969 . S
Zn617 O630 1.969 . S
Zn617 O631 1.965 . S
Zn617 O633 2.024 . S
C618 O619 1.229 . S
C618 O627 1.058 . S
O619 C618 1.229 . S
C620 O621 1.229 . S
C620 O633 1.058 . S
O621 C620 1.229 . S
O622 Zn616 1.969 . S
O622 C625 1.267 . S
O623 Zn616 1.965 . S
O623 C634 1.260 . S
O624 Zn617 1.969 . S
O624 C634 1.258 . S
C625 O622 1.267 . S
C625 O626 1.228 . S
O626 C625 1.228 . S
O627 Zn616 2.024 . S
O627 C618 1.058 . S
C628 O629 1.228 . S
C628 O630 1.267 . S
O629 C628 1.228 . S
O630 Zn617 1.969 . S
O630 C628 1.267 . S
O631 Zn617 1.965 . S
O631 C635 1.260 . S
O632 Zn616 1.969 . S
O632 C635 1.258 . S
O633 Zn617 2.024 . S
O633 C620 1.058 . S
C634 O623 1.260 . S
C634 O624 1.258 . S
C635 O631 1.260 . S
C635 O632 1.258 . S
Zn636 O642 1.969 . S
Zn636 O643 1.965 . S
Zn636 O647 2.024 1_655 S
Zn636 O652 1.969 1_655 S
Zn637 O644 1.969 1_554 S
Zn637 O650 1.969 1_554 S
Zn637 O651 1.965 . S
Zn637 O653 2.024 . S
C638 O639 1.229 1_455 S
C638 O647 1.058 . S
O639 C638 1.229 1_655 S
C640 O641 1.229 . S
C640 O653 1.058 1_556 S
O641 C640 1.229 . S
O642 Zn636 1.969 . S
O642 C645 1.267 . S
O643 Zn636 1.965 . S
O643 C654 1.260 1_654 S
O644 Zn637 1.969 1_556 S
O644 C654 1.258 . S
C645 O642 1.267 . S
C645 O646 1.228 . S
O646 C645 1.228 . S
O647 Zn636 2.024 1_455 S
O647 C638 1.058 . S
C648 O649 1.228 . S
C648 O650 1.267 1_554 S
O649 C648 1.228 . S
O650 Zn637 1.969 1_556 S
O650 C648 1.267 1_556 S
O651 Zn637 1.965 . S
O651 C655 1.260 . S
O652 Zn636 1.969 1_455 S
O652 C655 1.258 . S
O653 Zn637 2.024 . S
O653 C640 1.058 1_554 S
C654 O643 1.260 1_456 S
C654 O644 1.258 . S
C655 O651 1.260 . S
C655 O652 1.258 . S
C656 C657 1.369 1_455 S
C656 C658 1.419 . S
C656 H660 0.930 . S
C657 C656 1.369 1_655 S
C657 C666 1.429 . S
C658 C656 1.419 . S
C658 C659 1.363 . S
C658 H661 0.929 1_556 S
C659 C658 1.363 . S
C659 C665 1.428 1_455 S
H660 C656 0.930 . S
H661 C658 0.929 1_554 S
S662 N663 1.613 . S
S662 N664 1.610 . S
N663 S662 1.613 . S
N663 C666 1.350 . S
N664 S662 1.610 . S
N664 C665 1.351 . S
C665 C659 1.428 1_655 S
C665 N664 1.351 . S
C665 C666 1.434 . S
C666 C657 1.429 . S
C666 N663 1.350 . S
C666 C665 1.434 . S
C667 C668 1.369 . S
C667 C669 1.419 . S
C667 H671 0.930 . S
C668 C667 1.369 . S
C668 C677 1.429 . S
C669 C667 1.419 . S
C669 C670 1.363 . S
C669 H672 0.929 . S
C670 C669 1.363 . S
C670 C676 1.428 . S
H671 C667 0.930 . S
H672 C669 0.929 . S
S673 N674 1.613 . S
S673 N675 1.610 . S
N674 S673 1.613 . S
N674 C677 1.350 . S
N675 S673 1.610 . S
N675 C676 1.351 . S
C676 C670 1.428 . S
C676 N675 1.351 . S
C676 C677 1.434 . S
C677 C668 1.429 . S
C677 N674 1.350 . S
C677 C676 1.434 . S
C678 C679 1.369 . S
C678 C680 1.419 . S
C678 H682 0.930 . S
C679 C678 1.369 . S
C679 C688 1.429 . S
C680 C678 1.419 . S
C680 C681 1.363 . S
C680 H683 0.929 . S
C681 C680 1.363 . S
C681 C687 1.428 . S
H682 C678 0.930 . S
H683 C680 0.929 . S
S684 N685 1.613 . S
S684 N686 1.610 . S
N685 S684 1.613 . S
N685 C688 1.350 . S
N686 S684 1.610 . S
N686 C687 1.351 . S
C687 C681 1.428 . S
C687 N686 1.351 . S
C687 C688 1.434 . S
C688 C679 1.429 . S
C688 N685 1.350 . S
C688 C687 1.434 . S
C689 C690 1.369 . S
C689 C691 1.419 . S
C689 H693 0.930 . S
C690 C689 1.369 . S
C690 C699 1.429 . S
C691 C689 1.419 . S
C691 C692 1.363 . S
C691 H694 0.929 . S
C692 C691 1.363 . S
C692 C698 1.428 . S
H693 C689 0.930 . S
H694 C691 0.929 . S
S695 N696 1.613 . S
S695 N697 1.610 . S
N696 S695 1.613 . S
N696 C699 1.350 . S
N697 S695 1.610 . S
N697 C698 1.351 . S
C698 C692 1.428 . S
C698 N697 1.351 . S
C698 C699 1.434 . S
C699 C690 1.429 . S
C699 N696 1.350 . S
C699 C698 1.434 . S
C700 C701 1.369 . S
C700 C702 1.419 . S
C700 H704 0.930 1_455 S
C701 C700 1.369 . S
C701 C710 1.429 . S
C702 C700 1.419 . S
C702 C703 1.363 . S
C702 H705 0.931 1_455 S
C703 C702 1.363 . S
C703 C709 1.428 . S
H704 C700 0.930 1_655 S
H705 C702 0.931 1_655 S
S706 N707 1.613 . S
S706 N708 1.610 . S
N707 S706 1.613 . S
N707 C710 1.350 . S
N708 S706 1.610 . S
N708 C709 1.351 . S
C709 C703 1.428 . S
C709 N708 1.351 . S
C709 C710 1.434 . S
C710 C701 1.429 . S
C710 N707 1.350 . S
C710 C709 1.434 . S
C711 C712 1.369 . S
C711 C713 1.419 . S
C711 H715 0.930 . S
C712 C711 1.369 . S
C712 C721 1.429 . S
C713 C711 1.419 . S
C713 C714 1.363 . S
C713 H716 0.929 . S
C714 C713 1.363 . S
C714 C720 1.428 . S
H715 C711 0.930 . S
H716 C713 0.929 . S
S717 N718 1.613 . S
S717 N719 1.610 . S
N718 S717 1.613 . S
N718 C721 1.350 . S
N719 S717 1.610 . S
N719 C720 1.351 . S
C720 C714 1.428 . S
C720 N719 1.351 . S
C720 C721 1.434 . S
C721 C712 1.429 . S
C721 N718 1.350 . S
C721 C720 1.434 . S
C722 C723 1.369 . S
C722 C724 1.419 . S
C722 H726 0.930 . S
C723 C722 1.369 . S
C723 C732 1.429 . S
C724 C722 1.419 . S
C724 C725 1.363 . S
C724 H727 0.929 . S
C725 C724 1.363 . S
C725 C731 1.428 . S
H726 C722 0.930 . S
H727 C724 0.929 . S
S728 N729 1.613 . S
S728 N730 1.610 . S
N729 S728 1.613 . S
N729 C732 1.350 . S
N730 S728 1.610 . S
N730 C731 1.351 . S
C731 C725 1.428 . S
C731 N730 1.351 . S
C731 C732 1.434 . S
C732 C723 1.429 . S
C732 N729 1.350 . S
C732 C731 1.434 . S
C733 C734 1.369 . S
C733 C735 1.419 . S
C733 H737 0.930 . S
C734 C733 1.369 . S
C734 C743 1.429 . S
C735 C733 1.419 . S
C735 C736 1.363 . S
C735 H738 0.929 . S
C736 C735 1.363 . S
C736 C742 1.428 . S
H737 C733 0.930 . S
H738 C735 0.929 . S
S739 N740 1.613 . S
S739 N741 1.610 . S
N740 S739 1.613 . S
N740 C743 1.350 . S
N741 S739 1.610 . S
N741 C742 1.351 . S
C742 C736 1.428 . S
C742 N741 1.351 . S
C742 C743 1.434 . S
C743 C734 1.429 . S
C743 N740 1.350 . S
C743 C742 1.434 . S
C744 C745 1.369 . S
C744 C746 1.419 . S
C744 H748 0.930 . S
C745 C744 1.369 . S
C745 C754 1.429 . S
C746 C744 1.419 . S
C746 C747 1.363 . S
C746 H749 0.929 . S
C747 C746 1.363 . S
C747 C753 1.428 1_655 S
H748 C744 0.930 . S
H749 C746 0.929 . S
S750 N751 1.613 . S
S750 N752 1.610 . S
N751 S750 1.613 . S
N751 C754 1.350 1_455 S
N752 S750 1.610 . S
N752 C753 1.351 . S
C753 C747 1.428 1_455 S
C753 N752 1.351 . S
C753 C754 1.434 1_455 S
C754 C745 1.429 . S
C754 N751 1.350 1_655 S
C754 C753 1.434 1_655 S
C755 C756 1.369 . S
C755 C757 1.419 . S
C755 H759 0.930 . S
C756 C755 1.369 . S
C756 C765 1.429 . S
C757 C755 1.419 . S
C757 C758 1.363 . S
C757 H760 0.929 . S
C758 C757 1.363 . S
C758 C764 1.428 . S
H759 C755 0.930 . S
H760 C757 0.929 . S
S761 N762 1.613 . S
S761 N763 1.610 . S
N762 S761 1.613 . S
N762 C765 1.350 . S
N763 S761 1.610 . S
N763 C764 1.351 . S
C764 C758 1.428 . S
C764 N763 1.351 . S
C764 C765 1.434 . S
C765 C756 1.429 . S
C765 N762 1.350 . S
C765 C764 1.434 . S
C766 C767 1.369 1_545 S
C766 C768 1.419 . S
C766 H770 0.930 . S
C767 C766 1.369 1_565 S
C767 C776 1.429 . S
C768 C766 1.419 . S
C768 C769 1.367 . S
C768 H771 0.929 . S
C769 C768 1.367 . S
C769 C775 1.418 1_545 S
H770 C766 0.930 . S
H771 C768 0.929 . S
S772 N773 1.613 . S
S772 N774 1.610 . S
N773 S772 1.613 . S
N773 C776 1.350 . S
N774 S772 1.610 . S
N774 C775 1.351 . S
C775 C769 1.418 1_565 S
C775 N774 1.351 . S
C775 C776 1.434 . S
C776 C767 1.429 . S
C776 N773 1.350 . S
C776 C775 1.434 . S
C777 C778 1.369 . S
C777 C779 1.419 . S
C777 H781 0.930 . S
C778 C777 1.369 . S
C778 C787 1.429 . S
C779 C777 1.419 . S
C779 C780 1.363 . S
C779 H782 0.929 . S
C780 C779 1.363 . S
C780 C786 1.428 . S
H781 C777 0.930 . S
H782 C779 0.929 . S
S783 N784 1.613 . S
S783 N785 1.610 . S
N784 S783 1.613 . S
N784 C787 1.350 . S
N785 S783 1.610 . S
N785 C786 1.351 . S
C786 C780 1.428 . S
C786 N785 1.351 . S
C786 C787 1.434 . S
C787 C778 1.429 . S
C787 N784 1.350 . S
C787 C786 1.434 . S
C788 C789 1.369 1_565 S
C788 C790 1.419 . S
C788 H792 0.930 . S
C789 C788 1.369 1_545 S
C789 C798 1.429 . S
C790 C788 1.419 . S
C790 C791 1.363 1_565 S
C790 H793 0.929 . S
C791 C790 1.363 1_545 S
C791 C797 1.428 . S
H792 C788 0.930 . S
H793 C790 0.929 . S
S794 N795 1.613 . S
S794 N796 1.610 . S
N795 S794 1.613 . S
N795 C798 1.350 . S
N796 S794 1.610 . S
N796 C797 1.351 . S
C797 C791 1.428 . S
C797 N796 1.351 . S
C797 C798 1.434 . S
C798 C789 1.429 . S
C798 N795 1.350 . S
C798 C797 1.434 . S
C799 C800 1.369 . S
C799 C801 1.419 . S
C799 H803 0.930 . S
C800 C799 1.369 . S
C800 C809 1.429 . S
C801 C799 1.419 . S
C801 C802 1.363 . S
C801 H804 0.929 . S
C802 C801 1.363 . S
C802 C808 1.428 . S
H803 C799 0.930 . S
H804 C801 0.929 . S
S805 N806 1.613 . S
S805 N807 1.610 . S
N806 S805 1.613 . S
N806 C809 1.350 . S
N807 S805 1.610 . S
N807 C808 1.351 . S
C808 C802 1.428 . S
C808 N807 1.351 . S
C808 C809 1.434 . S
C809 C800 1.429 . S
C809 N806 1.350 . S
C809 C808 1.434 . S
C810 C811 1.369 . S
C810 C812 1.419 . S
C810 H814 0.930 1_545 S
C811 C810 1.369 . S
C811 C820 1.429 . S
C812 C810 1.419 . S
C812 C813 1.363 . S
C812 H815 0.929 . S
C813 C812 1.363 . S
C813 C819 1.428 . S
H814 C810 0.930 1_565 S
H815 C812 0.929 . S
S816 N817 1.613 . S
S816 N818 1.610 . S
N817 S816 1.613 . S
N817 C820 1.350 . S
N818 S816 1.610 . S
N818 C819 1.351 . S
C819 C813 1.428 . S
C819 N818 1.351 . S
C819 C820 1.434 . S
C820 C811 1.429 . S
C820 N817 1.350 . S
C820 C819 1.434 . S
C821 C822 1.369 . S
C821 C823 1.419 . S
C821 H825 0.930 . S
C822 C821 1.369 . S
C822 C831 1.429 . S
C823 C821 1.419 . S
C823 C824 1.363 . S
C823 H826 0.929 . S
C824 C823 1.363 . S
C824 C830 1.428 . S
H825 C821 0.930 . S
H826 C823 0.929 . S
S827 N828 1.613 . S
S827 N829 1.610 . S
N828 S827 1.613 . S
N828 C831 1.350 . S
N829 S827 1.610 . S
N829 C830 1.351 . S
C830 C824 1.428 . S
C830 N829 1.351 . S
C830 C831 1.434 . S
C831 C822 1.429 . S
C831 N828 1.350 . S
C831 C830 1.434 . S
C832 C833 1.369 . S
C832 C834 1.419 . S
C832 H836 0.930 . S
C833 C832 1.369 . S
C833 C842 1.429 . S
C834 C832 1.419 . S
C834 C835 1.363 . S
C834 H837 0.929 1_565 S
C835 C834 1.363 . S
C835 C841 1.428 . S
H836 C832 0.930 . S
H837 C834 0.929 1_545 S
S838 N839 1.613 . S
S838 N840 1.610 . S
N839 S838 1.613 . S
N839 C842 1.350 . S
N840 S838 1.610 . S
N840 C841 1.351 . S
C841 C835 1.428 . S
C841 N840 1.351 . S
C841 C842 1.434 . S
C842 C833 1.429 . S
C842 N839 1.350 . S
C842 C841 1.434 . S
C843 C844 1.369 1_556 S
C843 C845 1.410 1_556 S
C843 H847 0.930 . S
C844 C843 1.369 1_554 S
C844 C853 1.430 . S
C845 C843 1.410 1_554 S
C845 C846 1.371 . S
C845 H848 0.930 1_554 S
C846 C845 1.371 . S
C846 C852 1.428 . S
H847 C843 0.930 . S
H848 C845 0.930 1_556 S
S849 N850 1.613 . S
S849 N851 1.610 . S
N850 S849 1.613 . S
N850 C853 1.350 . S
N851 S849 1.610 . S
N851 C852 1.351 . S
C852 C846 1.428 . S
C852 N851 1.351 . S
C852 C853 1.434 . S
C853 C844 1.430 . S
C853 N850 1.350 . S
C853 C852 1.434 . S
C854 C855 1.369 . S
C854 C856 1.419 . S
C854 H858 0.930 . S
C855 C854 1.369 . S
C855 C864 1.429 . S
C856 C854 1.419 . S
C856 C857 1.363 . S
C856 H859 0.929 . S
C857 C856 1.363 . S
C857 C863 1.428 . S
H858 C854 0.930 . S
H859 C856 0.929 . S
S860 N861 1.613 . S
S860 N862 1.610 . S
N861 S860 1.613 . S
N861 C864 1.350 . S
N862 S860 1.610 . S
N862 C863 1.351 . S
C863 C857 1.428 . S
C863 N862 1.351 . S
C863 C864 1.434 . S
C864 C855 1.429 . S
C864 N861 1.350 . S
C864 C863 1.434 . S
C865 C866 1.369 . S
C865 C867 1.419 . S
C865 H869 0.930 . S
C866 C865 1.369 . S
C866 C875 1.429 . S
C867 C865 1.419 . S
C867 C868 1.363 . S
C867 H870 0.929 . S
C868 C867 1.363 . S
C868 C874 1.428 . S
H869 C865 0.930 . S
H870 C867 0.929 . S
S871 N872 1.613 . S
S871 N873 1.610 . S
N872 S871 1.613 . S
N872 C875 1.350 . S
N873 S871 1.610 . S
N873 C874 1.351 . S
C874 C868 1.428 . S
C874 N873 1.351 . S
C874 C875 1.434 . S
C875 C866 1.429 . S
C875 N872 1.350 . S
C875 C874 1.434 . S
C876 C877 1.369 . S
C876 C878 1.419 . S
C876 H880 0.930 . S
C877 C876 1.369 . S
C877 C886 1.429 . S
C878 C876 1.419 . S
C878 C879 1.363 . S
C878 H881 0.929 . S
C879 C878 1.363 . S
C879 C885 1.428 . S
H880 C876 0.930 . S
H881 C878 0.929 . S
S882 N883 1.613 . S
S882 N884 1.610 . S
N883 S882 1.613 . S
N883 C886 1.350 . S
N884 S882 1.610 . S
N884 C885 1.351 . S
C885 C879 1.428 . S
C885 N884 1.351 . S
C885 C886 1.434 . S
C886 C877 1.429 . S
C886 N883 1.350 . S
C886 C885 1.434 . S
C887 C888 1.369 . S
C887 C889 1.419 . S
C887 H891 0.930 . S
C888 C887 1.369 . S
C888 C897 1.429 . S
C889 C887 1.419 . S
C889 C890 1.363 . S
C889 H892 0.929 . S
C890 C889 1.363 . S
C890 C896 1.428 . S
H891 C887 0.930 . S
H892 C889 0.929 . S
S893 N894 1.613 . S
S893 N895 1.610 . S
N894 S893 1.613 . S
N894 C897 1.350 . S
N895 S893 1.610 . S
N895 C896 1.351 . S
C896 C890 1.428 . S
C896 N895 1.351 . S
C896 C897 1.434 . S
C897 C888 1.429 . S
C897 N894 1.350 . S
C897 C896 1.434 . S
C898 C899 1.369 . S
C898 C900 1.419 . S
C898 H902 0.930 . S
C899 C898 1.369 . S
C899 C908 1.429 . S
C900 C898 1.419 . S
C900 C901 1.363 . S
C900 H903 0.929 . S
C901 C900 1.363 . S
C901 C907 1.428 . S
H902 C898 0.930 . S
H903 C900 0.929 . S
S904 N905 1.613 . S
S904 N906 1.610 . S
N905 S904 1.613 . S
N905 C908 1.350 . S
N906 S904 1.610 . S
N906 C907 1.351 . S
C907 C901 1.428 . S
C907 N906 1.351 . S
C907 C908 1.434 . S
C908 C899 1.429 . S
C908 N905 1.350 . S
C908 C907 1.434 . S
C909 C910 1.369 . S
C909 C911 1.419 . S
C909 H913 0.930 . S
C910 C909 1.369 . S
C910 C919 1.429 . S
C911 C909 1.419 . S
C911 C912 1.363 . S
C911 H914 0.929 . S
C912 C911 1.363 . S
C912 C918 1.428 . S
H913 C909 0.930 . S
H914 C911 0.929 . S
S915 N916 1.613 . S
S915 N917 1.610 . S
N916 S915 1.613 . S
N916 C919 1.350 . S
N917 S915 1.610 . S
N917 C918 1.351 . S
C918 C912 1.428 . S
C918 N917 1.351 . S
C918 C919 1.434 . S
C919 C910 1.429 . S
C919 N916 1.350 . S
C919 C918 1.434 . S
C920 C921 1.369 . S
C920 C922 1.419 . S
C920 H924 0.930 . S
C921 C920 1.369 . S
C921 C930 1.429 . S
C922 C920 1.419 . S
C922 C923 1.363 . S
C922 H925 0.929 1_455 S
C923 C922 1.363 . S
C923 C929 1.428 . S
H924 C920 0.930 . S
H925 C922 0.929 1_655 S
S926 N927 1.613 . S
S926 N928 1.610 . S
N927 S926 1.613 . S
N927 C930 1.350 . S
N928 S926 1.610 . S
N928 C929 1.351 . S
C929 C923 1.428 . S
C929 N928 1.351 . S
C929 C930 1.434 . S
C930 C921 1.429 . S
C930 N927 1.350 . S
C930 C929 1.434 . S
C931 C932 1.369 . S
C931 C933 1.419 . S
C931 H935 0.930 . S
C932 C931 1.369 . S
C932 C941 1.429 . S
C933 C931 1.419 . S
C933 C934 1.363 . S
C933 H936 0.929 . S
C934 C933 1.363 . S
C934 C940 1.428 . S
H935 C931 0.930 . S
H936 C933 0.929 . S
S937 N938 1.613 . S
S937 N939 1.610 . S
N938 S937 1.613 . S
N938 C941 1.350 . S
N939 S937 1.610 . S
N939 C940 1.351 . S
C940 C934 1.428 . S
C940 N939 1.351 . S
C940 C941 1.434 . S
C941 C932 1.429 . S
C941 N938 1.350 . S
C941 C940 1.434 . S
C942 C943 1.369 . S
C942 C944 1.419 . S
C942 H946 0.930 . S
C943 C942 1.369 . S
C943 C952 1.429 . S
C944 C942 1.419 . S
C944 C945 1.363 . S
C944 H947 0.929 . S
C945 C944 1.363 . S
C945 C951 1.428 . S
H946 C942 0.930 . S
H947 C944 0.929 . S
S948 N949 1.613 . S
S948 N950 1.610 . S
N949 S948 1.613 . S
N949 C952 1.350 . S
N950 S948 1.610 . S
N950 C951 1.351 . S
C951 C945 1.428 . S
C951 N950 1.351 . S
C951 C952 1.434 . S
C952 C943 1.429 . S
C952 N949 1.350 . S
C952 C951 1.434 . S
C953 C954 1.369 . S
C953 C955 1.419 . S
C953 H957 0.930 . S
C954 C953 1.369 . S
C954 C963 1.429 . S
C955 C953 1.419 . S
C955 C956 1.363 . S
C955 H958 0.929 . S
C956 C955 1.363 . S
C956 C962 1.428 . S
H957 C953 0.930 . S
H958 C955 0.929 . S
S959 N960 1.613 . S
S959 N961 1.610 . S
N960 S959 1.613 . S
N960 C963 1.350 . S
N961 S959 1.610 . S
N961 C962 1.351 . S
C962 C956 1.428 . S
C962 N961 1.351 . S
C962 C963 1.434 . S
C963 C954 1.429 . S
C963 N960 1.350 . S
C963 C962 1.434 . S
C964 C965 1.368 . S
C964 C966 1.419 1_455 S
C964 H968 0.931 1_455 S
C965 C964 1.368 . S
C965 C974 1.429 . S
C966 C964 1.419 1_655 S
C966 C967 1.363 1_655 S
C966 H969 0.929 . S
C967 C966 1.363 1_455 S
C967 C973 1.428 . S
H968 C964 0.931 1_655 S
H969 C966 0.929 . S
S970 N971 1.613 . S
S970 N972 1.610 . S
N971 S970 1.613 . S
N971 C974 1.350 . S
N972 S970 1.610 . S
N972 C973 1.351 . S
C973 C967 1.428 . S
C973 N972 1.351 . S
C973 C974 1.434 . S
C974 C965 1.429 . S
C974 N971 1.350 . S
C974 C973 1.434 . S
C975 C976 1.369 . S
C975 C977 1.419 . S
C975 H979 0.930 . S
C976 C975 1.369 . S
C976 C985 1.429 . S
C977 C975 1.419 . S
C977 C978 1.363 . S
C977 H980 0.929 . S
C978 C977 1.363 . S
C978 C984 1.428 . S
H979 C975 0.930 . S
H980 C977 0.929 . S
S981 N982 1.613 . S
S981 N983 1.610 . S
N982 S981 1.613 . S
N982 C985 1.350 . S
N983 S981 1.610 . S
N983 C984 1.351 . S
C984 C978 1.428 . S
C984 N983 1.351 . S
C984 C985 1.434 . S
C985 C976 1.429 . S
C985 N982 1.350 . S
C985 C984 1.434 . S
C986 C987 1.369 . S
C986 C988 1.419 . S
C986 H990 0.930 . S
C987 C986 1.369 . S
C987 C996 1.429 . S
C988 C986 1.419 . S
C988 C989 1.363 . S
C988 H991 0.929 . S
C989 C988 1.363 . S
C989 C995 1.428 1_556 S
H990 C986 0.930 . S
H991 C988 0.929 . S
S992 N993 1.613 . S
S992 N994 1.610 . S
N993 S992 1.613 . S
N993 C996 1.350 1_554 S
N994 S992 1.610 . S
N994 C995 1.351 . S
C995 C989 1.428 1_554 S
C995 N994 1.351 . S
C995 C996 1.434 1_554 S
C996 C987 1.429 . S
C996 N993 1.350 1_556 S
C996 C995 1.434 1_556 S
C997 C998 1.369 . S
C997 C999 1.419 . S
C997 H1001 0.930 . S
C998 C997 1.369 . S
C998 C1007 1.429 . S
C999 C997 1.419 . S
C999 C1000 1.363 . S
C999 H1002 0.929 . S
C1000 C999 1.363 . S
C1000 C1006 1.428 . S
H1001 C997 0.930 . S
H1002 C999 0.929 . S
S1003 N1004 1.613 . S
S1003 N1005 1.610 . S
N1004 S1003 1.613 . S
N1004 C1007 1.350 . S
N1005 S1003 1.610 . S
N1005 C1006 1.351 . S
C1006 C1000 1.428 . S
C1006 N1005 1.351 . S
C1006 C1007 1.434 . S
C1007 C998 1.429 . S
C1007 N1004 1.350 . S
C1007 C1006 1.434 . S
C1008 C1009 1.369 . S
C1008 C1010 1.419 . S
C1008 H1012 0.930 . S
C1009 C1008 1.369 . S
C1009 C1018 1.429 1_545 S
C1010 C1008 1.419 . S
C1010 C1011 1.363 1_545 S
C1010 H1013 0.929 . S
C1011 C1010 1.363 1_565 S
C1011 C1017 1.428 . S
H1012 C1008 0.930 . S
H1013 C1010 0.929 . S
S1014 N1015 1.613 . S
S1014 N1016 1.610 . S
N1015 S1014 1.613 . S
N1015 C1018 1.350 . S
N1016 S1014 1.610 . S
N1016 C1017 1.351 . S
C1017 C1011 1.428 . S
C1017 N1016 1.351 . S
C1017 C1018 1.434 . S
C1018 C1009 1.429 1_565 S
C1018 N1015 1.350 . S
C1018 C1017 1.434 . S
C1019 C1020 1.369 . S
C1019 C1021 1.419 . S
C1019 H1023 0.930 . S
C1020 C1019 1.369 . S
C1020 C1029 1.429 . S
C1021 C1019 1.419 . S
C1021 C1022 1.363 . S
C1021 H1024 0.929 . S
C1022 C1021 1.363 . S
C1022 C1028 1.428 . S
H1023 C1019 0.930 . S
H1024 C1021 0.929 . S
S1025 N1026 1.613 . S
S1025 N1027 1.610 . S
N1026 S1025 1.613 . S
N1026 C1029 1.350 . S
N1027 S1025 1.610 . S
N1027 C1028 1.351 . S
C1028 C1022 1.428 . S
C1028 N1027 1.351 . S
C1028 C1029 1.434 . S
C1029 C1020 1.429 . S
C1029 N1026 1.350 . S
C1029 C1028 1.434 . S
C1030 C1031 1.369 . S
C1030 C1032 1.419 . S
C1030 H1034 0.930 . S
C1031 C1030 1.369 . S
C1031 C1040 1.437 . S
C1032 C1030 1.419 . S
C1032 C1033 1.363 . S
C1032 H1035 0.929 . S
C1033 C1032 1.363 . S
C1033 C1039 1.428 1_545 S
H1034 C1030 0.930 . S
H1035 C1032 0.929 . S
S1036 N1037 1.613 . S
S1036 N1038 1.610 . S
N1037 S1036 1.613 . S
N1037 C1040 1.343 1_565 S
N1038 S1036 1.610 . S
N1038 C1039 1.351 . S
C1039 C1033 1.428 1_565 S
C1039 N1038 1.351 . S
C1039 C1040 1.431 1_565 S
C1040 C1031 1.437 . S
C1040 N1037 1.343 1_545 S
C1040 C1039 1.431 1_545 S
C1041 C1042 1.369 . S
C1041 C1043 1.419 . S
C1041 H1045 0.930 . S
C1042 C1041 1.369 . S
C1042 C1051 1.429 . S
C1043 C1041 1.419 . S
C1043 C1044 1.363 . S
C1043 H1046 0.929 . S
C1044 C1043 1.363 . S
C1044 C1050 1.428 . S
H1045 C1041 0.930 . S
H1046 C1043 0.929 . S
S1047 N1048 1.613 . S
S1047 N1049 1.610 . S
N1048 S1047 1.613 . S
N1048 C1051 1.350 . S
N1049 S1047 1.610 . S
N1049 C1050 1.351 . S
C1050 C1044 1.428 . S
C1050 N1049 1.351 . S
C1050 C1051 1.434 . S
C1051 C1042 1.429 . S
C1051 N1048 1.350 . S
C1051 C1050 1.434 . S
C1052 C1053 1.369 . S
C1052 C1054 1.419 . S
C1052 H1056 0.930 . S
C1053 C1052 1.369 . S
C1053 C1062 1.423 1_545 S
C1054 C1052 1.419 . S
C1054 C1055 1.363 . S
C1054 H1057 0.929 . S
C1055 C1054 1.363 . S
C1055 C1061 1.428 . S
H1056 C1052 0.930 . S
H1057 C1054 0.929 . S
S1058 N1059 1.613 . S
S1058 N1060 1.610 . S
N1059 S1058 1.613 . S
N1059 C1062 1.364 . S
N1060 S1058 1.610 . S
N1060 C1061 1.351 1_565 S
C1061 C1055 1.428 . S
C1061 N1060 1.351 1_545 S
C1061 C1062 1.427 1_545 S
C1062 C1053 1.423 1_565 S
C1062 N1059 1.364 . S
C1062 C1061 1.427 1_565 S
C1063 C1064 1.369 . S
C1063 C1065 1.419 . S
C1063 H1067 0.930 . S
C1064 C1063 1.369 . S
C1064 C1073 1.429 . S
C1065 C1063 1.419 . S
C1065 C1066 1.363 . S
C1065 H1068 0.929 . S
C1066 C1065 1.363 . S
C1066 C1072 1.428 . S
H1067 C1063 0.930 . S
H1068 C1065 0.929 . S
S1069 N1070 1.613 . S
S1069 N1071 1.610 . S
N1070 S1069 1.613 . S
N1070 C1073 1.350 . S
N1071 S1069 1.610 . S
N1071 C1072 1.351 . S
C1072 C1066 1.428 . S
C1072 N1071 1.351 . S
C1072 C1073 1.434 . S
C1073 C1064 1.429 . S
C1073 N1070 1.350 . S
C1073 C1072 1.434 . S
C1074 C1075 1.369 1_565 S
C1074 C1076 1.419 . S
C1074 H1078 0.930 . S
C1075 C1074 1.369 1_545 S
C1075 C1084 1.429 . S
C1076 C1074 1.419 . S
C1076 C1077 1.363 . S
C1076 H1079 0.929 . S
C1077 C1076 1.363 . S
C1077 C1083 1.428 1_565 S
H1078 C1074 0.930 . S
H1079 C1076 0.929 . S
S1080 N1081 1.613 . S
S1080 N1082 1.610 . S
N1081 S1080 1.613 . S
N1081 C1084 1.350 . S
N1082 S1080 1.610 . S
N1082 C1083 1.351 . S
C1083 C1077 1.428 1_545 S
C1083 N1082 1.351 . S
C1083 C1084 1.434 . S
C1084 C1075 1.429 . S
C1084 N1081 1.350 . S
C1084 C1083 1.434 . S
C1085 C1086 1.369 . S
C1085 C1087 1.419 . S
C1085 H1089 0.930 . S
C1086 C1085 1.369 . S
C1086 C1095 1.429 . S
C1087 C1085 1.419 . S
C1087 C1088 1.363 . S
C1087 H1090 0.929 . S
C1088 C1087 1.363 . S
C1088 C1094 1.428 . S
H1089 C1085 0.930 . S
H1090 C1087 0.929 . S
S1091 N1092 1.613 . S
S1091 N1093 1.610 . S
N1092 S1091 1.613 . S
N1092 C1095 1.350 . S
N1093 S1091 1.610 . S
N1093 C1094 1.351 . S
C1094 C1088 1.428 . S
C1094 N1093 1.351 . S
C1094 C1095 1.434 . S
C1095 C1086 1.429 . S
C1095 N1092 1.350 . S
C1095 C1094 1.434 . S
C1096 C1097 1.369 . S
C1096 C1098 1.419 1_554 S
C1096 H1100 0.930 1_554 S
C1097 C1096 1.369 . S
C1097 C1106 1.429 . S
C1098 C1096 1.419 1_556 S
C1098 C1099 1.363 1_556 S
C1098 H1101 0.929 . S
C1099 C1098 1.363 1_554 S
C1099 C1105 1.428 . S
H1100 C1096 0.930 1_556 S
H1101 C1098 0.929 . S
S1102 N1103 1.613 . S
S1102 N1104 1.610 . S
N1103 S1102 1.613 . S
N1103 C1106 1.350 . S
N1104 S1102 1.610 . S
N1104 C1105 1.351 . S
C1105 C1099 1.428 . S
C1105 N1104 1.351 . S
C1105 C1106 1.434 . S
C1106 C1097 1.429 . S
C1106 N1103 1.350 . S
C1106 C1105 1.434 . S
C1107 C1108 1.369 . S
C1107 C1109 1.419 . S
C1107 H1111 0.930 . S
C1108 C1107 1.369 . S
C1108 C1117 1.429 . S
C1109 C1107 1.419 . S
C1109 C1110 1.363 . S
C1109 H1112 0.929 . S
C1110 C1109 1.363 . S
C1110 C1116 1.428 . S
H1111 C1107 0.930 . S
H1112 C1109 0.929 . S
S1113 N1114 1.613 . S
S1113 N1115 1.610 . S
N1114 S1113 1.613 . S
N1114 C1117 1.350 . S
N1115 S1113 1.610 . S
N1115 C1116 1.351 . S
C1116 C1110 1.428 . S
C1116 N1115 1.351 . S
C1116 C1117 1.434 . S
C1117 C1108 1.429 . S
C1117 N1114 1.350 . S
C1117 C1116 1.434 . S
C1118 C1119 1.369 . S
C1118 C1120 1.419 . S
C1118 H1122 0.930 . S
C1119 C1118 1.369 . S
C1119 C1128 1.429 . S
C1120 C1118 1.419 . S
C1120 C1121 1.363 . S
C1120 H1123 0.929 . S
C1121 C1120 1.363 . S
C1121 C1127 1.428 . S
H1122 C1118 0.930 . S
H1123 C1120 0.929 . S
S1124 N1125 1.613 . S
S1124 N1126 1.610 . S
N1125 S1124 1.613 . S
N1125 C1128 1.350 . S
N1126 S1124 1.610 . S
N1126 C1127 1.351 . S
C1127 C1121 1.428 . S
C1127 N1126 1.351 . S
C1127 C1128 1.434 . S
C1128 C1119 1.429 . S
C1128 N1125 1.350 . S
C1128 C1127 1.434 . S
C1129 C1130 1.369 . S
C1129 C1131 1.419 . S
C1129 H1133 0.930 . S
C1130 C1129 1.369 . S
C1130 C1139 1.429 . S
C1131 C1129 1.419 . S
C1131 C1132 1.363 . S
C1131 H1134 0.929 . S
C1132 C1131 1.363 . S
C1132 C1138 1.428 . S
H1133 C1129 0.930 . S
H1134 C1131 0.929 . S
S1135 N1136 1.613 . S
S1135 N1137 1.610 . S
N1136 S1135 1.613 . S
N1136 C1139 1.350 . S
N1137 S1135 1.610 . S
N1137 C1138 1.351 . S
C1138 C1132 1.428 . S
C1138 N1137 1.351 . S
C1138 C1139 1.434 . S
C1139 C1130 1.429 . S
C1139 N1136 1.350 . S
C1139 C1138 1.434 . S
C1140 C1141 1.369 . S
C1140 C1142 1.419 . S
C1140 H1144 0.930 . S
C1141 C1140 1.369 . S
C1141 C1150 1.429 . S
C1142 C1140 1.419 . S
C1142 C1143 1.363 . S
C1142 H1145 0.929 . S
C1143 C1142 1.363 . S
C1143 C1149 1.428 . S
H1144 C1140 0.930 . S
H1145 C1142 0.929 . S
S1146 N1147 1.613 . S
S1146 N1148 1.610 . S
N1147 S1146 1.613 . S
N1147 C1150 1.350 . S
N1148 S1146 1.610 . S
N1148 C1149 1.351 . S
C1149 C1143 1.428 . S
C1149 N1148 1.351 . S
C1149 C1150 1.434 . S
C1150 C1141 1.429 . S
C1150 N1147 1.350 . S
C1150 C1149 1.434 . S
C1151 C1152 1.369 . S
C1151 C1153 1.419 . S
C1151 H1155 0.930 . S
C1152 C1151 1.369 . S
C1152 C1161 1.429 . S
C1153 C1151 1.419 . S
C1153 C1154 1.363 . S
C1153 H1156 0.929 . S
C1154 C1153 1.363 . S
C1154 C1160 1.428 . S
H1155 C1151 0.930 . S
H1156 C1153 0.929 . S
S1157 N1158 1.613 . S
S1157 N1159 1.610 . S
N1158 S1157 1.613 . S
N1158 C1161 1.350 . S
N1159 S1157 1.610 . S
N1159 C1160 1.351 . S
C1160 C1154 1.428 . S
C1160 N1159 1.351 . S
C1160 C1161 1.434 . S
C1161 C1152 1.429 . S
C1161 N1158 1.350 . S
C1161 C1160 1.434 . S
C1162 C1163 1.369 . S
C1162 C1164 1.419 . S
C1162 H1166 0.930 . S
C1163 C1162 1.369 . S
C1163 C1172 1.429 . S
C1164 C1162 1.419 . S
C1164 C1165 1.363 . S
C1164 H1167 0.929 . S
C1165 C1164 1.363 . S
C1165 C1171 1.428 . S
H1166 C1162 0.930 . S
H1167 C1164 0.929 . S
S1168 N1169 1.613 . S
S1168 N1170 1.610 . S
N1169 S1168 1.613 . S
N1169 C1172 1.350 . S
N1170 S1168 1.610 . S
N1170 C1171 1.351 . S
C1171 C1165 1.428 . S
C1171 N1170 1.351 . S
C1171 C1172 1.434 . S
C1172 C1163 1.429 . S
C1172 N1169 1.350 . S
C1172 C1171 1.434 . S
C1173 C1174 1.369 . S
C1173 C1175 1.419 . S
C1173 H1177 0.930 . S
C1174 C1173 1.369 . S
C1174 C1183 1.429 . S
C1175 C1173 1.419 . S
C1175 C1176 1.363 . S
C1175 H1178 0.929 . S
C1176 C1175 1.363 . S
C1176 C1182 1.428 . S
H1177 C1173 0.930 . S
H1178 C1175 0.929 . S
S1179 N1180 1.613 . S
S1179 N1181 1.610 . S
N1180 S1179 1.613 . S
N1180 C1183 1.350 . S
N1181 S1179 1.610 . S
N1181 C1182 1.351 . S
C1182 C1176 1.428 . S
C1182 N1181 1.351 . S
C1182 C1183 1.434 . S
C1183 C1174 1.429 . S
C1183 N1180 1.350 . S
C1183 C1182 1.434 . S
C1184 C1185 1.369 . S
C1184 C1186 1.419 . S
C1184 H1188 0.930 . S
C1185 C1184 1.369 . S
C1185 C1194 1.429 . S
C1186 C1184 1.419 . S
C1186 C1187 1.363 . S
C1186 H1189 0.929 . S
C1187 C1186 1.363 . S
C1187 C1193 1.428 . S
H1188 C1184 0.930 . S
H1189 C1186 0.929 . S
S1190 N1191 1.613 . S
S1190 N1192 1.610 . S
N1191 S1190 1.613 . S
N1191 C1194 1.350 . S
N1192 S1190 1.610 . S
N1192 C1193 1.351 . S
C1193 C1187 1.428 . S
C1193 N1192 1.351 . S
C1193 C1194 1.434 . S
C1194 C1185 1.429 . S
C1194 N1191 1.350 . S
C1194 C1193 1.434 . S
C1195 C1196 1.369 . S
C1195 C1197 1.419 . S
C1195 H1199 0.930 . S
C1196 C1195 1.369 . S
C1196 C1205 1.429 . S
C1197 C1195 1.419 . S
C1197 C1198 1.363 . S
C1197 H1200 0.929 . S
C1198 C1197 1.363 . S
C1198 C1204 1.428 . S
H1199 C1195 0.930 . S
H1200 C1197 0.929 . S
S1201 N1202 1.613 . S
S1201 N1203 1.610 . S
N1202 S1201 1.613 . S
N1202 C1205 1.350 . S
N1203 S1201 1.610 . S
N1203 C1204 1.351 . S
C1204 C1198 1.428 . S
C1204 N1203 1.351 . S
C1204 C1205 1.434 . S
C1205 C1196 1.429 . S
C1205 N1202 1.350 . S
C1205 C1204 1.434 . S
C1206 C1207 1.369 . S
C1206 C1208 1.419 . S
C1206 H1210 0.930 . S
C1207 C1206 1.369 . S
C1207 C1216 1.429 1_455 S
C1208 C1206 1.419 . S
C1208 C1209 1.363 . S
C1208 H1211 0.929 . S
C1209 C1208 1.363 . S
C1209 C1215 1.428 1_455 S
H1210 C1206 0.930 . S
H1211 C1208 0.929 . S
S1212 N1213 1.613 1_554 S
S1212 N1214 1.610 . S
N1213 S1212 1.613 1_556 S
N1213 C1216 1.350 . S
N1214 S1212 1.610 . S
N1214 C1215 1.351 1_554 S
C1215 C1209 1.428 1_655 S
C1215 N1214 1.351 1_556 S
C1215 C1216 1.434 . S
C1216 C1207 1.429 1_655 S
C1216 N1213 1.350 . S
C1216 C1215 1.434 . S
C1217 C1218 1.369 . S
C1217 C1219 1.419 . S
C1217 H1221 0.930 . S
C1218 C1217 1.369 . S
C1218 C1227 1.429 . S
C1219 C1217 1.419 . S
C1219 C1220 1.363 . S
C1219 H1222 0.929 . S
C1220 C1219 1.363 . S
C1220 C1226 1.428 . S
H1221 C1217 0.930 . S
H1222 C1219 0.929 . S
S1223 N1224 1.613 . S
S1223 N1225 1.610 . S
N1224 S1223 1.613 . S
N1224 C1227 1.350 . S
N1225 S1223 1.610 . S
N1225 C1226 1.351 . S
C1226 C1220 1.428 . S
C1226 N1225 1.351 . S
C1226 C1227 1.434 . S
C1227 C1218 1.429 . S
C1227 N1224 1.350 . S
C1227 C1226 1.434 . S
C1228 C1229 1.369 . S
C1228 C1230 1.419 . S
C1228 H1232 0.930 . S
C1229 C1228 1.369 . S
C1229 C1238 1.429 . S
C1230 C1228 1.419 . S
C1230 C1231 1.363 . S
C1230 H1233 0.929 . S
C1231 C1230 1.363 . S
C1231 C1237 1.428 . S
H1232 C1228 0.930 . S
H1233 C1230 0.929 . S
S1234 N1235 1.613 . S
S1234 N1236 1.610 . S
N1235 S1234 1.613 . S
N1235 C1238 1.350 . S
N1236 S1234 1.610 . S
N1236 C1237 1.351 . S
C1237 C1231 1.428 . S
C1237 N1236 1.351 . S
C1237 C1238 1.434 . S
C1238 C1229 1.429 . S
C1238 N1235 1.350 . S
C1238 C1237 1.434 . S
C1239 C1240 1.369 . S
C1239 C1241 1.419 . S
C1239 H1243 0.930 . S
C1240 C1239 1.369 . S
C1240 C1249 1.429 . S
C1241 C1239 1.419 . S
C1241 C1242 1.363 . S
C1241 H1244 0.929 . S
C1242 C1241 1.363 . S
C1242 C1248 1.428 . S
H1243 C1239 0.930 . S
H1244 C1241 0.929 . S
S1245 N1246 1.613 . S
S1245 N1247 1.610 . S
N1246 S1245 1.613 . S
N1246 C1249 1.350 . S
N1247 S1245 1.610 . S
N1247 C1248 1.351 . S
C1248 C1242 1.428 . S
C1248 N1247 1.351 . S
C1248 C1249 1.434 . S
C1249 C1240 1.429 . S
C1249 N1246 1.350 . S
C1249 C1248 1.434 . S
C1250 C1251 1.371 1_655 S
C1250 C1252 1.409 1_655 S
C1250 H1254 0.939 . S
C1251 C1250 1.371 1_455 S
C1251 C1260 1.429 . S
C1252 C1250 1.409 1_455 S
C1252 C1253 1.363 . S
C1252 H1255 0.929 . S
C1253 C1252 1.363 . S
C1253 C1259 1.428 . S
H1254 C1250 0.939 . S
H1255 C1252 0.929 . S
S1256 N1257 1.613 . S
S1256 N1258 1.610 . S
N1257 S1256 1.613 . S
N1257 C1260 1.350 . S
N1258 S1256 1.610 . S
N1258 C1259 1.351 . S
C1259 C1253 1.428 . S
C1259 N1258 1.351 . S
C1259 C1260 1.434 . S
C1260 C1251 1.429 . S
C1260 N1257 1.350 . S
C1260 C1259 1.434 . S
C1261 C1262 1.369 . S
C1261 C1263 1.419 . S
C1261 H1265 0.930 . S
C1262 C1261 1.369 . S
C1262 C1271 1.429 . S
C1263 C1261 1.419 . S
C1263 C1264 1.363 . S
C1263 H1266 0.929 . S
C1264 C1263 1.363 . S
C1264 C1270 1.428 . S
H1265 C1261 0.930 . S
H1266 C1263 0.929 . S
S1267 N1268 1.613 . S
S1267 N1269 1.610 . S
N1268 S1267 1.613 . S
N1268 C1271 1.350 . S
N1269 S1267 1.610 . S
N1269 C1270 1.351 . S
C1270 C1264 1.428 . S
C1270 N1269 1.351 . S
C1270 C1271 1.434 . S
C1271 C1262 1.429 . S
C1271 N1268 1.350 . S
C1271 C1270 1.434 . S
C1272 C1273 1.369 . S
C1272 C1274 1.419 . S
C1272 H1276 0.930 . S
C1273 C1272 1.369 . S
C1273 C1282 1.429 . S
C1274 C1272 1.419 . S
C1274 C1275 1.363 . S
C1274 H1277 0.929 . S
C1275 C1274 1.363 . S
C1275 C1281 1.428 . S
H1276 C1272 0.930 . S
H1277 C1274 0.929 . S
S1278 N1279 1.613 . S
S1278 N1280 1.610 . S
N1279 S1278 1.613 . S
N1279 C1282 1.350 . S
N1280 S1278 1.610 . S
N1280 C1281 1.351 . S
C1281 C1275 1.428 . S
C1281 N1280 1.351 . S
C1281 C1282 1.434 . S
C1282 C1273 1.429 . S
C1282 N1279 1.350 . S
C1282 C1281 1.434 . S
C1283 C1284 1.369 . S
C1283 C1285 1.419 . S
C1283 H1287 0.930 . S
C1284 C1283 1.369 . S
C1284 C1293 1.429 . S
C1285 C1283 1.419 . S
C1285 C1286 1.363 . S
C1285 H1288 0.929 . S
C1286 C1285 1.363 . S
C1286 C1292 1.428 . S
H1287 C1283 0.930 . S
H1288 C1285 0.929 . S
S1289 N1290 1.613 . S
S1289 N1291 1.610 . S
N1290 S1289 1.613 . S
N1290 C1293 1.350 . S
N1291 S1289 1.610 . S
N1291 C1292 1.351 . S
C1292 C1286 1.428 . S
C1292 N1291 1.351 . S
C1292 C1293 1.434 . S
C1293 C1284 1.429 . S
C1293 N1290 1.350 . S
C1293 C1292 1.434 . S
C1294 C1295 1.369 . S
C1294 C1296 1.419 . S
C1294 H1298 0.930 . S
C1295 C1294 1.369 . S
C1295 C1304 1.429 . S
C1296 C1294 1.419 . S
C1296 C1297 1.363 . S
C1296 H1299 0.929 . S
C1297 C1296 1.363 . S
C1297 C1303 1.428 . S
H1298 C1294 0.930 . S
H1299 C1296 0.929 . S
S1300 N1301 1.613 1_655 S
S1300 N1302 1.610 . S
N1301 S1300 1.613 1_455 S
N1301 C1304 1.350 . S
N1302 S1300 1.610 . S
N1302 C1303 1.351 1_655 S
C1303 C1297 1.428 . S
C1303 N1302 1.351 1_455 S
C1303 C1304 1.434 . S
C1304 C1295 1.429 . S
C1304 N1301 1.350 . S
C1304 C1303 1.434 . S
C1305 C1306 1.369 . S
C1305 C1307 1.419 . S
C1305 H1309 0.930 . S
C1306 C1305 1.369 . S
C1306 C1315 1.429 . S
C1307 C1305 1.419 . S
C1307 C1308 1.363 . S
C1307 H1310 0.929 . S
C1308 C1307 1.363 . S
C1308 C1314 1.428 . S
H1309 C1305 0.930 . S
H1310 C1307 0.929 . S
S1311 N1312 1.613 . S
S1311 N1313 1.610 . S
N1312 S1311 1.613 . S
N1312 C1315 1.350 . S
N1313 S1311 1.610 . S
N1313 C1314 1.351 . S
C1314 C1308 1.428 . S
C1314 N1313 1.351 . S
C1314 C1315 1.434 . S
C1315 C1306 1.429 . S
C1315 N1312 1.350 . S
C1315 C1314 1.434 . S
C1316 C1317 1.369 . S
C1316 C1318 1.419 . S
C1316 H1320 0.930 . S
C1317 C1316 1.369 . S
C1317 C1326 1.429 . S
C1318 C1316 1.419 . S
C1318 C1319 1.363 . S
C1318 H1321 0.929 . S
C1319 C1318 1.363 . S
C1319 C1325 1.428 . S
H1320 C1316 0.930 . S
H1321 C1318 0.929 . S
S1322 N1323 1.613 . S
S1322 N1324 1.610 . S
N1323 S1322 1.613 . S
N1323 C1326 1.350 . S
N1324 S1322 1.610 . S
N1324 C1325 1.351 . S
C1325 C1319 1.428 . S
C1325 N1324 1.351 . S
C1325 C1326 1.434 . S
C1326 C1317 1.429 . S
C1326 N1323 1.350 . S
C1326 C1325 1.434 . S
C1327 C1328 1.369 . S
C1327 C1329 1.419 . S
C1327 H1331 0.930 . S
C1328 C1327 1.369 . S
C1328 C1337 1.429 . S
C1329 C1327 1.419 . S
C1329 C1330 1.363 . S
C1329 H1332 0.929 . S
C1330 C1329 1.363 . S
C1330 C1336 1.428 . S
H1331 C1327 0.930 . S
H1332 C1329 0.929 . S
S1333 N1334 1.613 . S
S1333 N1335 1.610 . S
N1334 S1333 1.613 . S
N1334 C1337 1.350 . S
N1335 S1333 1.610 . S
N1335 C1336 1.351 . S
C1336 C1330 1.428 . S
C1336 N1335 1.351 . S
C1336 C1337 1.434 . S
C1337 C1328 1.429 . S
C1337 N1334 1.350 . S
C1337 C1336 1.434 . S
C1338 C1339 1.369 . S
C1338 C1340 1.419 . S
C1338 H1342 0.930 . S
C1339 C1338 1.369 . S
C1339 C1348 1.429 . S
C1340 C1338 1.419 . S
C1340 C1341 1.363 . S
C1340 H1343 0.929 . S
C1341 C1340 1.363 . S
C1341 C1347 1.428 . S
H1342 C1338 0.930 . S
H1343 C1340 0.929 . S
S1344 N1345 1.613 . S
S1344 N1346 1.610 . S
N1345 S1344 1.613 . S
N1345 C1348 1.350 . S
N1346 S1344 1.610 . S
N1346 C1347 1.351 . S
C1347 C1341 1.428 . S
C1347 N1346 1.351 . S
C1347 C1348 1.434 . S
C1348 C1339 1.429 . S
C1348 N1345 1.350 . S
C1348 C1347 1.434 . S
C1349 C1350 1.369 . S
C1349 C1351 1.419 . S
C1349 H1353 0.930 . S
C1350 C1349 1.369 . S
C1350 C1359 1.429 . S
C1351 C1349 1.419 . S
C1351 C1352 1.363 . S
C1351 H1354 0.929 . S
C1352 C1351 1.363 . S
C1352 C1358 1.428 . S
H1353 C1349 0.930 . S
H1354 C1351 0.929 . S
S1355 N1356 1.613 . S
S1355 N1357 1.610 . S
N1356 S1355 1.613 . S
N1356 C1359 1.350 . S
N1357 S1355 1.610 . S
N1357 C1358 1.351 . S
C1358 C1352 1.428 . S
C1358 N1357 1.351 . S
C1358 C1359 1.434 . S
C1359 C1350 1.429 . S
C1359 N1356 1.350 . S
C1359 C1358 1.434 . S
C1360 C1361 1.369 . S
C1360 C1362 1.419 . S
C1360 H1364 0.930 . S
C1361 C1360 1.369 . S
C1361 C1370 1.429 . S
C1362 C1360 1.419 . S
C1362 C1363 1.363 . S
C1362 H1365 0.929 . S
C1363 C1362 1.363 . S
C1363 C1369 1.428 . S
H1364 C1360 0.930 . S
H1365 C1362 0.929 . S
S1366 N1367 1.613 . S
S1366 N1368 1.610 . S
N1367 S1366 1.613 . S
N1367 C1370 1.350 . S
N1368 S1366 1.610 . S
N1368 C1369 1.351 . S
C1369 C1363 1.428 . S
C1369 N1368 1.351 . S
C1369 C1370 1.434 . S
C1370 C1361 1.429 . S
C1370 N1367 1.350 . S
C1370 C1369 1.434 . S
C1371 C1372 1.369 . S
C1371 C1373 1.419 . S
C1371 H1375 0.930 . S
C1372 C1371 1.369 . S
C1372 C1381 1.429 . S
C1373 C1371 1.419 . S
C1373 C1374 1.363 . S
C1373 H1376 0.929 . S
C1374 C1373 1.363 . S
C1374 C1380 1.428 . S
H1375 C1371 0.930 . S
H1376 C1373 0.929 . S
S1377 N1378 1.613 . S
S1377 N1379 1.610 . S
N1378 S1377 1.613 . S
N1378 C1381 1.350 . S
N1379 S1377 1.610 . S
N1379 C1380 1.351 . S
C1380 C1374 1.428 . S
C1380 N1379 1.351 . S
C1380 C1381 1.434 . S
C1381 C1372 1.429 . S
C1381 N1378 1.350 . S
C1381 C1380 1.434 . S
C1382 C1383 1.369 . S
C1382 C1384 1.419 . S
C1382 H1386 0.930 . S
C1383 C1382 1.369 . S
C1383 C1392 1.429 . S
C1384 C1382 1.419 . S
C1384 C1385 1.363 . S
C1384 H1387 0.929 . S
C1385 C1384 1.363 . S
C1385 C1391 1.428 . S
H1386 C1382 0.930 . S
H1387 C1384 0.929 . S
S1388 N1389 1.613 . S
S1388 N1390 1.610 . S
N1389 S1388 1.613 . S
N1389 C1392 1.350 . S
N1390 S1388 1.610 . S
N1390 C1391 1.351 . S
C1391 C1385 1.428 . S
C1391 N1390 1.351 . S
C1391 C1392 1.434 . S
C1392 C1383 1.429 . S
C1392 N1389 1.350 . S
C1392 C1391 1.434 . S
C1393 C1394 1.369 . S
C1393 C1395 1.419 . S
C1393 H1397 0.930 . S
C1394 C1393 1.369 . S
C1394 C1403 1.429 . S
C1395 C1393 1.419 . S
C1395 C1396 1.363 . S
C1395 H1398 0.929 . S
C1396 C1395 1.363 . S
C1396 C1402 1.428 . S
H1397 C1393 0.930 . S
H1398 C1395 0.929 . S
S1399 N1400 1.613 1_545 S
S1399 N1401 1.610 . S
N1400 S1399 1.613 1_565 S
N1400 C1403 1.350 . S
N1401 S1399 1.610 . S
N1401 C1402 1.351 1_545 S
C1402 C1396 1.428 . S
C1402 N1401 1.351 1_565 S
C1402 C1403 1.434 . S
C1403 C1394 1.429 . S
C1403 N1400 1.350 . S
C1403 C1402 1.434 . S
C1404 C1405 1.369 . S
C1404 C1406 1.419 . S
C1404 H1408 0.930 . S
C1405 C1404 1.369 . S
C1405 C1414 1.429 . S
C1406 C1404 1.419 . S
C1406 C1407 1.363 . S
C1406 H1409 0.929 . S
C1407 C1406 1.363 . S
C1407 C1413 1.428 . S
H1408 C1404 0.930 . S
H1409 C1406 0.929 . S
S1410 N1411 1.613 . S
S1410 N1412 1.610 . S
N1411 S1410 1.613 . S
N1411 C1414 1.350 . S
N1412 S1410 1.610 . S
N1412 C1413 1.351 . S
C1413 C1407 1.428 . S
C1413 N1412 1.351 . S
C1413 C1414 1.434 . S
C1414 C1405 1.429 . S
C1414 N1411 1.350 . S
C1414 C1413 1.434 . S
C1415 C1416 1.369 1_556 S
C1415 C1417 1.419 1_556 S
C1415 H1419 0.930 . S
C1416 C1415 1.369 1_554 S
C1416 C1425 1.429 . S
C1417 C1415 1.419 1_554 S
C1417 C1418 1.363 . S
C1417 H1420 0.929 . S
C1418 C1417 1.363 . S
C1418 C1424 1.428 . S
H1419 C1415 0.930 . S
H1420 C1417 0.929 . S
S1421 N1422 1.613 . S
S1421 N1423 1.610 . S
N1422 S1421 1.613 . S
N1422 C1425 1.350 . S
N1423 S1421 1.610 . S
N1423 C1424 1.351 . S
C1424 C1418 1.428 . S
C1424 N1423 1.351 . S
C1424 C1425 1.434 . S
C1425 C1416 1.429 . S
C1425 N1422 1.350 . S
C1425 C1424 1.434 . S
C1426 C1427 1.369 . S
C1426 C1428 1.419 . S
C1426 H1430 0.930 . S
C1427 C1426 1.369 . S
C1427 C1436 1.429 . S
C1428 C1426 1.419 . S
C1428 C1429 1.363 . S
C1428 H1431 0.929 . S
C1429 C1428 1.363 . S
C1429 C1435 1.428 . S
H1430 C1426 0.930 . S
H1431 C1428 0.929 . S
S1432 N1433 1.613 . S
S1432 N1434 1.610 . S
N1433 S1432 1.613 . S
N1433 C1436 1.350 . S
N1434 S1432 1.610 . S
N1434 C1435 1.351 . S
C1435 C1429 1.428 . S
C1435 N1434 1.351 . S
C1435 C1436 1.434 . S
C1436 C1427 1.429 . S
C1436 N1433 1.350 . S
C1436 C1435 1.434 . S
C1437 C1438 1.369 . S
C1437 C1439 1.419 . S
C1437 H1441 0.930 . S
C1438 C1437 1.369 . S
C1438 C1447 1.429 . S
C1439 C1437 1.419 . S
C1439 C1440 1.363 . S
C1439 H1442 0.929 . S
C1440 C1439 1.363 . S
C1440 C1446 1.428 . S
H1441 C1437 0.930 . S
H1442 C1439 0.929 . S
S1443 N1444 1.613 . S
S1443 N1445 1.610 . S
N1444 S1443 1.613 . S
N1444 C1447 1.350 . S
N1445 S1443 1.610 . S
N1445 C1446 1.351 . S
C1446 C1440 1.428 . S
C1446 N1445 1.351 . S
C1446 C1447 1.434 . S
C1447 C1438 1.429 . S
C1447 N1444 1.350 . S
C1447 C1446 1.434 . S
C1448 C1449 1.369 . S
C1448 C1450 1.419 . S
C1448 H1452 0.930 . S
C1449 C1448 1.369 . S
C1449 C1458 1.429 . S
C1450 C1448 1.419 . S
C1450 C1451 1.363 . S
C1450 H1453 0.929 . S
C1451 C1450 1.363 . S
C1451 C1457 1.428 . S
H1452 C1448 0.930 . S
H1453 C1450 0.929 . S
S1454 N1455 1.613 . S
S1454 N1456 1.610 . S
N1455 S1454 1.613 . S
N1455 C1458 1.350 . S
N1456 S1454 1.610 . S
N1456 C1457 1.351 . S
C1457 C1451 1.428 . S
C1457 N1456 1.351 . S
C1457 C1458 1.434 . S
C1458 C1449 1.429 . S
C1458 N1455 1.350 . S
C1458 C1457 1.434 . S
C1459 C1460 1.369 . S
C1459 C1461 1.419 . S
C1459 H1463 0.930 . S
C1460 C1459 1.369 . S
C1460 C1469 1.429 . S
C1461 C1459 1.419 . S
C1461 C1462 1.363 . S
C1461 H1464 0.929 . S
C1462 C1461 1.363 . S
C1462 C1468 1.428 . S
H1463 C1459 0.930 . S
H1464 C1461 0.929 . S
S1465 N1466 1.613 . S
S1465 N1467 1.610 . S
N1466 S1465 1.613 . S
N1466 C1469 1.350 . S
N1467 S1465 1.610 . S
N1467 C1468 1.351 . S
C1468 C1462 1.428 . S
C1468 N1467 1.351 . S
C1468 C1469 1.434 . S
C1469 C1460 1.429 . S
C1469 N1466 1.350 . S
C1469 C1468 1.434 . S
C1470 C1471 1.369 . S
C1470 C1472 1.419 . S
C1470 H1474 0.930 . S
C1471 C1470 1.369 . S
C1471 C1480 1.429 . S
C1472 C1470 1.419 . S
C1472 C1473 1.363 . S
C1472 H1475 0.929 . S
C1473 C1472 1.363 . S
C1473 C1479 1.428 . S
H1474 C1470 0.930 . S
H1475 C1472 0.929 . S
S1476 N1477 1.613 . S
S1476 N1478 1.610 . S
N1477 S1476 1.613 . S
N1477 C1480 1.350 . S
N1478 S1476 1.610 . S
N1478 C1479 1.351 . S
C1479 C1473 1.428 . S
C1479 N1478 1.351 . S
C1479 C1480 1.434 . S
C1480 C1471 1.429 . S
C1480 N1477 1.350 . S
C1480 C1479 1.434 . S
C1481 C1482 1.369 . S
C1481 C1483 1.419 . S
C1481 H1485 0.930 . S
C1482 C1481 1.369 . S
C1482 C1491 1.429 . S
C1483 C1481 1.419 . S
C1483 C1484 1.363 . S
C1483 H1486 0.929 . S
C1484 C1483 1.363 . S
C1484 C1490 1.428 . S
H1485 C1481 0.930 . S
H1486 C1483 0.929 . S
S1487 N1488 1.613 . S
S1487 N1489 1.610 . S
N1488 S1487 1.613 . S
N1488 C1491 1.350 . S
N1489 S1487 1.610 . S
N1489 C1490 1.351 . S
C1490 C1484 1.428 . S
C1490 N1489 1.351 . S
C1490 C1491 1.434 . S
C1491 C1482 1.429 . S
C1491 N1488 1.350 . S
C1491 C1490 1.434 . S
C1492 C1493 1.369 . S
C1492 C1494 1.419 . S
C1492 H1496 0.930 . S
C1493 C1492 1.369 . S
C1493 C1502 1.429 . S
C1494 C1492 1.419 . S
C1494 C1495 1.363 . S
C1494 H1497 0.929 . S
C1495 C1494 1.363 . S
C1495 C1501 1.428 . S
H1496 C1492 0.930 . S
H1497 C1494 0.929 . S
S1498 N1499 1.613 . S
S1498 N1500 1.610 . S
N1499 S1498 1.613 . S
N1499 C1502 1.350 . S
N1500 S1498 1.610 . S
N1500 C1501 1.351 . S
C1501 C1495 1.428 . S
C1501 N1500 1.351 . S
C1501 C1502 1.434 . S
C1502 C1493 1.429 . S
C1502 N1499 1.350 . S
C1502 C1501 1.434 . S
C1503 C1504 1.369 . S
C1503 C1505 1.419 . S
C1503 H1507 0.930 . S
C1504 C1503 1.369 . S
C1504 C1513 1.429 . S
C1505 C1503 1.419 . S
C1505 C1506 1.363 . S
C1505 H1508 0.929 . S
C1506 C1505 1.363 . S
C1506 C1512 1.428 . S
H1507 C1503 0.930 . S
H1508 C1505 0.929 . S
S1509 N1510 1.613 . S
S1509 N1511 1.610 . S
N1510 S1509 1.613 . S
N1510 C1513 1.350 . S
N1511 S1509 1.610 . S
N1511 C1512 1.351 . S
C1512 C1506 1.428 . S
C1512 N1511 1.351 . S
C1512 C1513 1.434 . S
C1513 C1504 1.429 . S
C1513 N1510 1.350 . S
C1513 C1512 1.434 . S
C1514 C1515 1.369 . S
C1514 C1516 1.419 . S
C1514 H1518 0.930 . S
C1515 C1514 1.369 . S
C1515 C1524 1.429 . S
C1516 C1514 1.419 . S
C1516 C1517 1.363 . S
C1516 H1519 0.929 . S
C1517 C1516 1.363 . S
C1517 C1523 1.428 . S
H1518 C1514 0.930 . S
H1519 C1516 0.929 . S
S1520 N1521 1.613 . S
S1520 N1522 1.610 . S
N1521 S1520 1.613 . S
N1521 C1524 1.350 . S
N1522 S1520 1.610 . S
N1522 C1523 1.351 . S
C1523 C1517 1.428 . S
C1523 N1522 1.351 . S
C1523 C1524 1.434 . S
C1524 C1515 1.429 . S
C1524 N1521 1.350 . S
C1524 C1523 1.434 . S
C1525 C1526 1.369 . S
C1525 C1527 1.419 . S
C1525 H1529 0.930 . S
C1526 C1525 1.369 . S
C1526 C1535 1.429 . S
C1527 C1525 1.419 . S
C1527 C1528 1.363 . S
C1527 H1530 0.929 . S
C1528 C1527 1.363 . S
C1528 C1534 1.428 . S
H1529 C1525 0.930 . S
H1530 C1527 0.929 . S
S1531 N1532 1.613 . S
S1531 N1533 1.610 . S
N1532 S1531 1.613 . S
N1532 C1535 1.350 . S
N1533 S1531 1.610 . S
N1533 C1534 1.351 . S
C1534 C1528 1.428 . S
C1534 N1533 1.351 . S
C1534 C1535 1.434 . S
C1535 C1526 1.429 . S
C1535 N1532 1.350 . S
C1535 C1534 1.434 . S
C1536 C1537 1.369 . S
C1536 C1538 1.419 . S
C1536 H1540 0.930 . S
C1537 C1536 1.369 . S
C1537 C1546 1.429 . S
C1538 C1536 1.419 . S
C1538 C1539 1.363 . S
C1538 H1541 0.929 . S
C1539 C1538 1.363 . S
C1539 C1545 1.428 . S
H1540 C1536 0.930 . S
H1541 C1538 0.929 . S
S1542 N1543 1.613 . S
S1542 N1544 1.610 . S
N1543 S1542 1.613 . S
N1543 C1546 1.350 . S
N1544 S1542 1.610 . S
N1544 C1545 1.351 . S
C1545 C1539 1.428 . S
C1545 N1544 1.351 . S
C1545 C1546 1.434 . S
C1546 C1537 1.429 . S
C1546 N1543 1.350 . S
C1546 C1545 1.434 . S
C1547 C1548 1.369 . S
C1547 C1549 1.419 . S
C1547 H1551 0.930 . S
C1548 C1547 1.369 . S
C1548 C1557 1.429 . S
C1549 C1547 1.419 . S
C1549 C1550 1.363 . S
C1549 H1552 0.929 . S
C1550 C1549 1.363 . S
C1550 C1556 1.428 . S
H1551 C1547 0.930 . S
H1552 C1549 0.929 . S
S1553 N1554 1.613 . S
S1553 N1555 1.610 . S
N1554 S1553 1.613 . S
N1554 C1557 1.350 . S
N1555 S1553 1.610 . S
N1555 C1556 1.351 . S
C1556 C1550 1.428 . S
C1556 N1555 1.351 . S
C1556 C1557 1.434 . S
C1557 C1548 1.429 . S
C1557 N1554 1.350 . S
C1557 C1556 1.434 . S
C1558 C1559 1.369 . S
C1558 C1560 1.419 . S
C1558 H1562 0.930 . S
C1559 C1558 1.369 . S
C1559 C1568 1.429 . S
C1560 C1558 1.419 . S
C1560 C1561 1.363 . S
C1560 H1563 0.929 . S
C1561 C1560 1.363 . S
C1561 C1567 1.428 1_655 S
H1562 C1558 0.930 . S
H1563 C1560 0.929 . S
S1564 N1565 1.613 . S
S1564 N1566 1.610 . S
N1565 S1564 1.613 . S
N1565 C1568 1.350 1_455 S
N1566 S1564 1.610 . S
N1566 C1567 1.351 . S
C1567 C1561 1.428 1_455 S
C1567 N1566 1.351 . S
C1567 C1568 1.434 1_455 S
C1568 C1559 1.429 . S
C1568 N1565 1.350 1_655 S
C1568 C1567 1.434 1_655 S
C1569 C1570 1.369 . S
C1569 C1571 1.419 . S
C1569 H1573 0.930 . S
C1570 C1569 1.369 . S
C1570 C1579 1.429 . S
C1571 C1569 1.419 . S
C1571 C1572 1.363 . S
C1571 H1574 0.929 . S
C1572 C1571 1.363 . S
C1572 C1578 1.428 . S
H1573 C1569 0.930 . S
H1574 C1571 0.929 . S
S1575 N1576 1.613 . S
S1575 N1577 1.610 . S
N1576 S1575 1.613 . S
N1576 C1579 1.350 . S
N1577 S1575 1.610 . S
N1577 C1578 1.351 . S
C1578 C1572 1.428 . S
C1578 N1577 1.351 . S
C1578 C1579 1.434 . S
C1579 C1570 1.429 . S
C1579 N1576 1.350 . S
C1579 C1578 1.434 . S
C1580 C1581 1.369 . S
C1580 C1582 1.419 . S
C1580 H1584 0.930 . S
C1581 C1580 1.369 . S
C1581 C1590 1.429 . S
C1582 C1580 1.419 . S
C1582 C1583 1.363 . S
C1582 H1585 0.929 . S
C1583 C1582 1.363 . S
C1583 C1589 1.428 . S
H1584 C1580 0.930 . S
H1585 C1582 0.929 . S
S1586 N1587 1.613 . S
S1586 N1588 1.610 . S
N1587 S1586 1.613 . S
N1587 C1590 1.350 . S
N1588 S1586 1.610 . S
N1588 C1589 1.351 . S
C1589 C1583 1.428 . S
C1589 N1588 1.351 . S
C1589 C1590 1.434 . S
C1590 C1581 1.429 . S
C1590 N1587 1.350 . S
C1590 C1589 1.434 . S
C1591 C1592 1.369 . S
C1591 C1593 1.419 . S
C1591 H1595 0.930 . S
C1592 C1591 1.369 . S
C1592 C1601 1.429 . S
C1593 C1591 1.419 . S
C1593 C1594 1.363 . S
C1593 H1596 0.929 . S
C1594 C1593 1.363 . S
C1594 C1600 1.428 . S
H1595 C1591 0.930 . S
H1596 C1593 0.929 . S
S1597 N1598 1.613 . S
S1597 N1599 1.610 . S
N1598 S1597 1.613 . S
N1598 C1601 1.350 . S
N1599 S1597 1.610 . S
N1599 C1600 1.351 . S
C1600 C1594 1.428 . S
C1600 N1599 1.351 . S
C1600 C1601 1.434 . S
C1601 C1592 1.429 . S
C1601 N1598 1.350 . S
C1601 C1600 1.434 . S
C1602 C1603 1.369 . S
C1602 C1604 1.419 . S
C1602 H1606 0.930 . S
C1603 C1602 1.369 . S
C1603 C1612 1.429 . S
C1604 C1602 1.419 . S
C1604 C1605 1.363 . S
C1604 H1607 0.929 . S
C1605 C1604 1.363 . S
C1605 C1611 1.428 . S
H1606 C1602 0.930 . S
H1607 C1604 0.929 . S
S1608 N1609 1.613 . S
S1608 N1610 1.610 . S
N1609 S1608 1.613 . S
N1609 C1612 1.350 1_455 S
N1610 S1608 1.610 . S
N1610 C1611 1.351 1_455 S
C1611 C1605 1.428 . S
C1611 N1610 1.351 1_655 S
C1611 C1612 1.434 . S
C1612 C1603 1.429 . S
C1612 N1609 1.350 1_655 S
C1612 C1611 1.434 . S
C1613 C1614 1.369 . S
C1613 C1615 1.419 . S
C1613 H1617 0.930 . S
C1614 C1613 1.369 . S
C1614 C1623 1.429 . S
C1615 C1613 1.419 . S
C1615 C1616 1.363 . S
C1615 H1618 0.929 . S
C1616 C1615 1.363 . S
C1616 C1622 1.428 . S
H1617 C1613 0.930 . S
H1618 C1615 0.929 . S
S1619 N1620 1.613 . S
S1619 N1621 1.610 . S
N1620 S1619 1.613 . S
N1620 C1623 1.350 . S
N1621 S1619 1.610 . S
N1621 C1622 1.351 . S
C1622 C1616 1.428 . S
C1622 N1621 1.351 . S
C1622 C1623 1.434 . S
C1623 C1614 1.429 . S
C1623 N1620 1.350 . S
C1623 C1622 1.434 . S
C1624 C1625 1.369 . S
C1624 C1626 1.419 . S
C1624 H1628 0.930 . S
C1625 C1624 1.369 . S
C1625 C1634 1.429 . S
C1626 C1624 1.419 . S
C1626 C1627 1.363 . S
C1626 H1629 0.929 . S
C1627 C1626 1.363 . S
C1627 C1633 1.428 . S
H1628 C1624 0.930 . S
H1629 C1626 0.929 . S
S1630 N1631 1.613 . S
S1630 N1632 1.610 . S
N1631 S1630 1.613 . S
N1631 C1634 1.350 . S
N1632 S1630 1.610 . S
N1632 C1633 1.351 . S
C1633 C1627 1.428 . S
C1633 N1632 1.351 . S
C1633 C1634 1.434 . S
C1634 C1625 1.429 . S
C1634 N1631 1.350 . S
C1634 C1633 1.434 . S
C1635 C1636 1.369 . S
C1635 C1637 1.419 . S
C1635 H1639 0.930 . S
C1636 C1635 1.369 . S
C1636 C1645 1.429 . S
C1637 C1635 1.419 . S
C1637 C1638 1.363 . S
C1637 H1640 0.929 1_565 S
C1638 C1637 1.363 . S
C1638 C1644 1.428 . S
H1639 C1635 0.930 . S
H1640 C1637 0.929 1_545 S
S1641 N1642 1.613 . S
S1641 N1643 1.610 . S
N1642 S1641 1.613 . S
N1642 C1645 1.350 . S
N1643 S1641 1.610 . S
N1643 C1644 1.351 . S
C1644 C1638 1.428 . S
C1644 N1643 1.351 . S
C1644 C1645 1.434 . S
C1645 C1636 1.429 . S
C1645 N1642 1.350 . S
C1645 C1644 1.434 . S
C1646 C1647 1.369 . S
C1646 C1648 1.419 . S
C1646 H1650 0.930 . S
C1647 C1646 1.369 . S
C1647 C1656 1.429 . S
C1648 C1646 1.419 . S
C1648 C1649 1.363 . S
C1648 H1651 0.929 . S
C1649 C1648 1.363 . S
C1649 C1655 1.428 . S
H1650 C1646 0.930 . S
H1651 C1648 0.929 . S
S1652 N1653 1.613 . S
S1652 N1654 1.610 . S
N1653 S1652 1.613 . S
N1653 C1656 1.350 . S
N1654 S1652 1.610 . S
N1654 C1655 1.351 . S
C1655 C1649 1.428 . S
C1655 N1654 1.351 . S
C1655 C1656 1.434 . S
C1656 C1647 1.429 . S
C1656 N1653 1.350 . S
C1656 C1655 1.434 . S
C1657 C1658 1.369 . S
C1657 C1659 1.419 . S
C1657 H1661 0.930 . S
C1658 C1657 1.369 . S
C1658 C1667 1.429 . S
C1659 C1657 1.419 . S
C1659 C1660 1.363 . S
C1659 H1662 0.929 . S
C1660 C1659 1.363 . S
C1660 C1666 1.428 . S
H1661 C1657 0.930 . S
H1662 C1659 0.929 . S
S1663 N1664 1.613 1_556 S
S1663 N1665 1.610 1_556 S
N1664 S1663 1.613 1_554 S
N1664 C1667 1.350 . S
N1665 S1663 1.610 1_554 S
N1665 C1666 1.351 . S
C1666 C1660 1.428 . S
C1666 N1665 1.351 . S
C1666 C1667 1.434 . S
C1667 C1658 1.429 . S
C1667 N1664 1.350 . S
C1667 C1666 1.434 . S
C1668 C1669 1.369 . S
C1668 C1670 1.419 . S
C1668 H1672 0.930 . S
C1669 C1668 1.369 . S
C1669 C1678 1.429 . S
C1670 C1668 1.419 . S
C1670 C1671 1.363 . S
C1670 H1673 0.929 . S
C1671 C1670 1.363 . S
C1671 C1677 1.428 . S
H1672 C1668 0.930 . S
H1673 C1670 0.929 . S
S1674 N1675 1.613 . S
S1674 N1676 1.610 . S
N1675 S1674 1.613 . S
N1675 C1678 1.350 . S
N1676 S1674 1.610 . S
N1676 C1677 1.351 . S
C1677 C1671 1.428 . S
C1677 N1676 1.351 . S
C1677 C1678 1.434 . S
C1678 C1669 1.429 . S
C1678 N1675 1.350 . S
C1678 C1677 1.434 . S
C1679 C1680 1.369 . S
C1679 C1681 1.419 1_554 S
C1679 H1683 0.930 1_554 S
C1680 C1679 1.369 . S
C1680 C1689 1.429 . S
C1681 C1679 1.419 1_556 S
C1681 C1682 1.363 1_556 S
C1681 H1684 0.929 . S
C1682 C1681 1.363 1_554 S
C1682 C1688 1.428 . S
H1683 C1679 0.930 1_556 S
H1684 C1681 0.929 . S
S1685 N1686 1.613 . S
S1685 N1687 1.610 . S
N1686 S1685 1.613 . S
N1686 C1689 1.350 . S
N1687 S1685 1.610 . S
N1687 C1688 1.351 . S
C1688 C1682 1.428 . S
C1688 N1687 1.351 . S
C1688 C1689 1.434 . S
C1689 C1680 1.429 . S
C1689 N1686 1.350 . S
C1689 C1688 1.434 . S
C1690 C1691 1.369 . S
C1690 C1692 1.419 . S
C1690 H1694 0.930 . S
C1691 C1690 1.369 . S
C1691 C1700 1.429 . S
C1692 C1690 1.419 . S
C1692 C1693 1.363 . S
C1692 H1695 0.929 . S
C1693 C1692 1.363 . S
C1693 C1699 1.428 . S
H1694 C1690 0.930 . S
H1695 C1692 0.929 . S
S1696 N1697 1.613 . S
S1696 N1698 1.610 . S
N1697 S1696 1.613 . S
N1697 C1700 1.350 . S
N1698 S1696 1.610 . S
N1698 C1699 1.351 . S
C1699 C1693 1.428 . S
C1699 N1698 1.351 . S
C1699 C1700 1.434 . S
C1700 C1691 1.429 . S
C1700 N1697 1.350 . S
C1700 C1699 1.434 . S
C1701 C1702 1.369 . S
C1701 C1703 1.419 . S
C1701 H1705 0.930 . S
C1702 C1701 1.369 . S
C1702 C1711 1.429 . S
C1703 C1701 1.419 . S
C1703 C1704 1.363 . S
C1703 H1706 0.929 . S
C1704 C1703 1.363 . S
C1704 C1710 1.428 . S
H1705 C1701 0.930 . S
H1706 C1703 0.929 . S
S1707 N1708 1.613 . S
S1707 N1709 1.610 . S
N1708 S1707 1.613 . S
N1708 C1711 1.350 . S
N1709 S1707 1.610 . S
N1709 C1710 1.351 . S
C1710 C1704 1.428 . S
C1710 N1709 1.351 . S
C1710 C1711 1.434 . S
C1711 C1702 1.429 . S
C1711 N1708 1.350 . S
C1711 C1710 1.434 . S
C657 C109 1.459 . S
C659 C340 1.217 1_556 S
C668 C61 1.361 . S
C670 C375 1.478 . S
C679 C74 1.189 . S
C681 C380 1.106 . S
C692 C405 1.419 . S
C690 C96 1.483 . S
C701 C25 1.418 . S
C703 C425 1.370 . S
C714 C440 1.059 . S
C712 C40 1.157 . S
C725 C475 1.555 . S
C723 C46 1.578 . S
C734 C5 1.085 . S
C736 C480 1.222 . S
C747 C355 1.489 1_655 S
C745 C229 1.221 . S
C756 C249 1.170 . S
C758 C365 1.113 . S
C769 C395 1.343 . S
C767 C271 1.200 . S
C780 C400 1.282 . S
C778 C172 1.326 1_556 S
C789 C236 1.257 . S
C791 C420 1.153 . S
C802 C455 1.577 . S
C800 C242 1.604 . S
C813 C465 1.019 . S
C811 C278 1.078 . S
C824 C495 1.623 . S
C822 C179 1.692 . S
C835 C345 1.338 . S
C833 C159 1.112 . S
C844 C285 1.559 1_554 S
C846 C515 1.686 . S
C857 C525 1.406 . S
C855 C333 1.522 . S
C868 C540 1.047 . S
C866 C320 1.120 . S
C877 C123 1.489 . S
C879 C485 1.307 . S
C888 C138 1.615 . S
C890 C385 1.503 . S
C899 C326 1.865 . S
C901 C575 1.845 . S
C912 C580 1.093 . S
C910 C298 1.153 . S
C923 C338 1.225 . S
C921 C67 1.442 . S
C934 C594 1.440 . S
C932 C110 1.462 . S
C943 C88 1.215 . S
C945 C378 1.131 . S
C954 C75 1.246 . S
C956 C568 1.376 . S
C967 C428 1.334 . S
C965 C11 1.370 . S
C976 C47 1.023 . S
C978 C518 1.073 . S
C989 C474 1.478 1_556 S
C987 C32 1.432 . S
C1000 C598 1.280 . S
C998 C26 1.561 . S
C1011 C354 1.597 1_565 S
C1009 C152 1.714 . S
C1022 C588 1.113 . S
C1020 C319 1.110 . S
C1031 C124 1.350 . S
C1033 C394 1.326 . S
C1042 C284 1.387 . S
C1044 C558 1.298 . S
C1053 C145 1.073 1_545 S
C1055 C418 1.128 . S
C1066 C534 1.488 . S
C1064 C312 1.447 . S
C1075 C117 0.913 . S
C1077 C468 0.937 . S
C1086 C291 1.627 . S
C1088 C614 1.562 . S
C1097 C194 1.630 . S
C1099 C348 1.388 1_554 S
C1108 C180 1.673 . S
C1110 C514 1.656 . S
C1119 C263 1.387 . S
C1121 C448 1.343 . S
C1130 C243 0.926 . S
C1132 C538 1.015 . S
C1143 C608 1.317 . S
C1141 C277 1.446 . S
C1152 C215 1.431 . S
C1154 C388 1.464 . S
C1165 C414 1.766 . S
C1163 C256 1.679 . S
C1176 C358 1.149 . S
C1174 C200 1.231 . S
C1185 C81 1.460 . S
C1187 C620 1.226 . S
C1198 C595 1.482 . S
C1196 C89 1.350 . S
C1207 C102 1.178 1_455 S
C1209 C640 1.120 . S
C1218 C68 1.482 . S
C1220 C565 1.425 . S
C1229 C53 1.415 . S
C1231 C505 1.365 . S
C1242 C520 1.060 . S
C1240 C12 1.157 . S
C1253 C555 1.556 . S
C1251 C18 1.577 1_455 S
C1264 C600 1.222 . S
C1262 C33 1.084 . S
C1275 C635 1.483 . S
C1273 C257 1.238 . S
C1284 C193 1.173 . S
C1286 C585 1.117 . S
C1297 C655 1.332 . S
C1295 C201 1.202 . S
C1308 C560 1.276 . S
C1306 C214 1.330 . S
C1319 C500 1.165 . S
C1317 C264 1.256 . S
C1328 C186 1.603 . S
C1330 C535 1.578 . S
C1341 C545 1.031 . S
C1339 C208 1.077 . S
C1350 C221 1.692 . S
C1352 C615 1.623 . S
C1363 C625 1.342 . S
C1361 C313 1.110 . S
C1372 C131 1.560 . S
C1374 C435 1.687 . S
C1385 C445 1.415 . S
C1383 C151 1.521 . S
C1396 C460 1.047 . S
C1394 C166 1.120 . S
C1407 C605 1.308 . S
C1405 C305 1.489 . S
C1416 C292 1.612 . S
C1418 C645 1.506 . S
C1429 C415 1.845 . S
C1427 C144 1.865 . S
C1440 C360 1.100 . S
C1438 C116 1.147 . S
C1449 C95 1.438 . S
C1451 C618 1.226 . S
C1462 C374 1.437 . S
C1460 C82 1.462 . S
C1471 C60 1.214 . S
C1473 C638 1.121 . S
C1482 C103 1.258 . S
C1484 C408 1.371 . S
C1493 C39 1.363 . S
C1495 C508 1.337 . S
C1506 C438 1.071 . S
C1504 C19 1.019 . S
C1515 C4 1.435 . S
C1517 C554 1.480 . S
C1526 C54 1.565 . S
C1528 C478 1.273 . S
C1539 C634 1.589 . S
C1537 C334 1.718 . S
C1548 C165 1.124 . S
C1550 C368 1.105 . S
C1561 C654 1.330 1_655 S
C1559 C306 1.352 . S
C1570 C130 1.387 . S
C1572 C398 1.303 . S
C1581 C327 1.083 . S
C1583 C498 1.127 . S
C1594 C454 1.492 . S
C1592 C158 1.454 . S
C1603 C299 0.911 . S
C1605 C548 0.941 . S
C1616 C494 1.557 . S
C1614 C137 1.627 . S
C1627 C628 1.403 . S
C1625 C250 1.624 . S
C1638 C434 1.658 . S
C1636 C222 1.673 . S
C1647 C235 1.386 . S
C1649 C528 1.351 . S
C1660 C458 1.009 . S
C1658 C187 0.917 . S
C1669 C207 1.447 . S
C1671 C488 1.310 . S
C1680 C173 1.430 . S
C1682 C648 1.464 . S
C1693 C574 1.768 . S
C1691 C228 1.686 . S
C1704 C578 1.148 . S
C1702 C270 1.233 . S
