# Generated by pormake.
# Topology zzz, (3,6)-cn, num edge types: 1
# Building blocks:
#     Node 0, Type 0, BuildingBlock: OLANEW_clean_sbu_2, # of connection points: 3
#     Node 1, Type 0, BuildingBlock: OLANEW_clean_sbu_2, # of connection points: 3
#     Node 2, Type 0, BuildingBlock: OLANEW_clean_sbu_2, # of connection points: 3
#     Node 3, Type 0, BuildingBlock: OLANEW_clean_sbu_2, # of connection points: 3
#     Node 4, Type 0, BuildingBlock: OLANEW_clean_sbu_2, # of connection points: 3
#     Node 5, Type 0, BuildingBlock: OLANEW_clean_sbu_2, # of connection points: 3
#     Node 6, Type 0, BuildingBlock: OLANEW_clean_sbu_2, # of connection points: 3
#     Node 7, Type 0, BuildingBlock: OLANEW_clean_sbu_2, # of connection points: 3
#     Node 8, Type 1, BuildingBlock: KUMBOL_clean_sbu_0, # of connection points: 6
#     Node 9, Type 1, BuildingBlock: KUMBOL_clean_sbu_0, # of connection points: 6
#     Node 10, Type 1, BuildingBlock: KUMBOL_clean_sbu_0, # of connection points: 6
#     Node 11, Type 1, BuildingBlock: KUMBOL_clean_sbu_0, # of connection points: 6
#     Edge 12, Type (0, 1), BuildingBlock: KIFKEQ_clean_linker_1, # of connection points: 2
#     Edge 13, Type (0, 1), BuildingBlock: KIFKEQ_clean_linker_1, # of connection points: 2
#     Edge 14, Type (0, 1), BuildingBlock: KIFKEQ_clean_linker_1, # of connection points: 2
#     Edge 15, Type (0, 1), BuildingBlock: KIFKEQ_clean_linker_1, # of connection points: 2
#     Edge 16, Type (0, 1), BuildingBlock: KIFKEQ_clean_linker_1, # of connection points: 2
#     Edge 17, Type (0, 1), BuildingBlock: KIFKEQ_clean_linker_1, # of connection points: 2
#     Edge 18, Type (0, 1), BuildingBlock: KIFKEQ_clean_linker_1, # of connection points: 2
#     Edge 19, Type (0, 1), BuildingBlock: KIFKEQ_clean_linker_1, # of connection points: 2
#     Edge 20, Type (0, 1), BuildingBlock: KIFKEQ_clean_linker_1, # of connection points: 2
#     Edge 21, Type (0, 1), BuildingBlock: KIFKEQ_clean_linker_1, # of connection points: 2
#     Edge 22, Type (0, 1), BuildingBlock: KIFKEQ_clean_linker_1, # of connection points: 2
#     Edge 23, Type (0, 1), BuildingBlock: KIFKEQ_clean_linker_1, # of connection points: 2
#     Edge 24, Type (0, 1), BuildingBlock: KIFKEQ_clean_linker_1, # of connection points: 2
#     Edge 25, Type (0, 1), BuildingBlock: KIFKEQ_clean_linker_1, # of connection points: 2
#     Edge 26, Type (0, 1), BuildingBlock: KIFKEQ_clean_linker_1, # of connection points: 2
#     Edge 27, Type (0, 1), BuildingBlock: KIFKEQ_clean_linker_1, # of connection points: 2
#     Edge 28, Type (0, 1), BuildingBlock: KIFKEQ_clean_linker_1, # of connection points: 2
#     Edge 29, Type (0, 1), BuildingBlock: KIFKEQ_clean_linker_1, # of connection points: 2
#     Edge 30, Type (0, 1), BuildingBlock: KIFKEQ_clean_linker_1, # of connection points: 2
#     Edge 31, Type (0, 1), BuildingBlock: KIFKEQ_clean_linker_1, # of connection points: 2
#     Edge 32, Type (0, 1), BuildingBlock: KIFKEQ_clean_linker_1, # of connection points: 2
#     Edge 33, Type (0, 1), BuildingBlock: KIFKEQ_clean_linker_1, # of connection points: 2
#     Edge 34, Type (0, 1), BuildingBlock: KIFKEQ_clean_linker_1, # of connection points: 2
#     Edge 35, Type (0, 1), BuildingBlock: KIFKEQ_clean_linker_1, # of connection points: 2
# Relax obj value: 0.151
# Max RMSD: 0.164
# Mean RMSD: 0.123
data_MOF--net-zzz--node1-OLANEW_clean_sbu_2--node2-KUMBOL_clean_sbu_0--edge1-KIFKEQ_clean_linker_1
_symmetry_space_group_name_H-M    P1
_symmetry_Int_Tables_number       1
_symmetry_cell_setting            triclinic
loop_
_symmetry_equiv_pos_as_xyz
'x, y, z'
_cell_length_a     55.387636
_cell_length_b     55.172014
_cell_length_c     16.901892
_cell_angle_alpha  90.515094
_cell_angle_beta   89.972536
_cell_angle_gamma 90.055636
loop_
_atom_site_label
_atom_site_type_symbol
_atom_site_fract_x
_atom_site_fract_y
_atom_site_fract_z
_atom_type_partial_charge
O0 O 0.73841 0.59764 0.02149 0.0
Cd1 Cd 0.69982 0.61571 0.05501 0.0
O2 O 0.73741 0.5847 0.14316 0.0
Cd3 Cd 0.7538 0.56878 0.24685 0.0
O4 O 0.78447 0.56291 0.32326 0.0
C5 C 0.8038 0.57337 0.30183 0.0
O6 O 0.80357 0.58661 0.23757 0.0
C7 C 0.74794 0.58536 0.07632 0.0
C8 C 0.66465 0.58894 0.97681 0.0
O9 O 0.67306 0.60855 0.94736 0.0
O10 O 0.67246 0.58229 0.04459 0.0
O11 O 0.94633 0.75967 0.08337 0.0
Cd12 Cd 0.93174 0.71922 0.11512 0.0
O13 O 0.94902 0.76553 0.21093 0.0
Cd14 Cd 0.95461 0.78409 0.324 0.0
O15 O 0.95079 0.78265 0.45846 0.0
C16 C 0.94989 0.79986 0.50986 0.0
O17 O 0.95074 0.78191 0.45942 0.0
C18 C 0.95191 0.77343 0.14118 0.0
C19 C 0.95215 0.68373 0.0179 0.0
O20 O 0.93176 0.69334 1.00091 0.0
O21 O 0.96296 0.691 0.08081 0.0
O22 O 0.76042 0.92247 0.03564 0.0
Cd23 Cd 0.79556 0.90012 0.08015 0.0
O24 O 0.75549 0.93164 0.16088 0.0
Cd25 Cd 0.73645 0.95101 0.25448 0.0
O26 O 0.70516 0.9667 0.31256 0.0
C27 C 0.68715 0.95277 0.32217 0.0
O28 O 0.68908 0.9298 0.30198 0.0
C29 C 0.74867 0.93347 0.08936 0.0
C30 C 0.83499 0.91864 1.00018 0.0
O31 O 0.82447 0.89926 0.97586 0.0
O32 O 0.82729 0.92882 0.06378 0.0
O33 O 0.58249 0.75418 0.07467 0.0
Cd34 Cd 0.60638 0.79013 0.10576 0.0
O35 O 0.57794 0.74924 0.2018 0.0
Cd36 Cd 0.56254 0.73654 0.31273 0.0
O37 O 0.55441 0.74678 0.4411 0.0
C38 C 0.55515 0.73326 0.50227 0.0
O39 O 0.55418 0.74763 0.44165 0.0
C40 C 0.57303 0.74262 0.13145 0.0
C41 C 0.58797 0.82881 0.02014 0.0
O42 O 0.60655 0.81713 0.9956 0.0
O43 O 0.57842 0.82254 0.08591 0.0
O44 O 0.26651 0.448 0.13138 0.0
Cd45 Cd 0.30351 0.42504 0.11798 0.0
O46 O 0.2458 0.41446 0.11646 0.0
Cd47 Cd 0.21185 0.39608 0.09325 0.0
O48 O 0.17993 0.4046 0.02539 0.0
C49 C 0.18353 0.42049 0.97273 0.0
O50 O 0.20545 0.42912 0.96316 0.0
C51 C 0.2463 0.43724 0.12882 0.0
C52 C 0.33847 0.45152 0.19737 0.0
O53 O 0.33627 0.45314 0.12212 0.0
O54 O 0.32468 0.43678 0.23428 0.0
O55 O 0.06304 0.26561 0.15821 0.0
Cd56 Cd 0.08726 0.30234 0.15705 0.0
O57 O 0.09201 0.24423 0.10251 0.0
Cd58 Cd 0.10286 0.2099 0.04799 0.0
O59 O 0.09139 0.17623 0.99098 0.0
C60 C 0.07001 0.17672 0.96379 0.0
O61 O 0.05757 0.19691 0.9702 0.0
C62 C 0.07098 0.24546 0.13255 0.0
C63 C 0.06178 0.3388 0.23491 0.0
O64 O 0.06122 0.33694 0.15928 0.0
O65 O 0.07473 0.32369 0.27335 0.0
O66 O 0.252 0.10553 0.19389 0.0
Cd67 Cd 0.21709 0.12883 0.15078 0.0
O68 O 0.24965 0.08723 0.07881 0.0
Cd69 Cd 0.26509 0.06416 0.98711 0.0
O70 O 0.29701 0.04656 0.94006 0.0
C71 C 0.317 0.05609 0.96022 0.0
O72 O 0.31684 0.07569 0.00497 0.0
C73 C 0.25987 0.08957 0.14588 0.0
C74 C 0.17578 0.10776 0.21334 0.0
O75 O 0.18406 0.10084 0.14601 0.0
O76 O 0.18675 0.12501 0.2498 0.0
O77 O 0.44882 0.24051 0.09973 0.0
Cd78 Cd 0.42769 0.20443 0.0539 0.0
O79 O 0.41665 0.2615 0.07067 0.0
Cd80 Cd 0.39904 0.29512 0.03901 0.0
O81 O 0.40558 0.32478 0.95892 0.0
C82 C 0.4274 0.32596 0.93613 0.0
O83 O 0.44297 0.31003 0.96252 0.0
C84 C 0.43818 0.26081 0.09667 0.0
C85 C 0.43652 0.16892 0.16441 0.0
O86 O 0.45106 0.17239 0.10658 0.0
O87 O 0.41725 0.18173 0.16823 0.0
Gd88 Gd 0.98523 0.01616 0.50858 0.0
Gd89 Gd 0.02716 0.99082 0.65906 0.0
C90 C 0.06705 0.03586 0.84558 0.0
C91 C 0.10862 0.03302 0.80039 0.0
C92 C 0.07658 0.01247 0.7278 0.0
C93 C 0.05969 0.02141 0.78063 0.0
C94 C 0.1013 0.01777 0.73785 0.0
C95 C 0.09152 0.04204 0.8542 0.0
C96 C 0.04967 0.04318 0.90091 0.0
C97 C 0.02582 0.03548 0.89189 0.0
N98 N 0.0362 0.01512 0.77042 0.0
C99 C 0.01941 0.02114 0.82649 0.0
H100 H 0.00089 0.01542 0.82048 0.0
C101 C 0.08518 0.98611 0.62036 0.0
N102 N 0.06894 0.99759 0.66868 0.0
C103 C 0.10988 0.99094 0.62751 0.0
C104 C 0.11796 0.00706 0.68598 0.0
H105 H 0.07894 0.97372 0.57488 0.0
H106 H 0.09746 0.05334 0.90321 0.0
H107 H 0.01037 0.9836 0.36169 0.0
H108 H 0.05456 0.05434 0.95149 0.0
H109 H 0.01231 0.04068 0.93508 0.0
H110 H 0.12751 0.03748 0.80873 0.0
H111 H 0.93451 0.04152 0.57588 0.0
H112 H 0.95472 0.94378 0.24247 0.0
H113 H -0.00213 0.95438 0.2584 0.0
H114 H 0.88227 0.97335 0.36511 0.0
H115 H 0.12264 0.98224 0.58799 0.0
H116 H 0.13712 0.01069 0.69166 0.0
H117 H 0.91157 0.95084 0.28317 0.0
H118 H 0.89041 0.03676 0.56 0.0
N119 N 0.97479 0.98886 0.40622 0.0
C120 C 0.96012 0.95655 0.28824 0.0
C121 C 0.98448 0.96252 0.29694 0.0
C122 C 0.94295 0.96772 0.33709 0.0
C123 C 0.95097 0.98413 0.3959 0.0
C124 C 0.99149 0.97911 0.35569 0.0
N125 N 0.94309 0.01297 0.49536 0.0
C126 C 0.93456 0.99662 0.44202 0.0
C127 C 0.90262 0.02525 0.52674 0.0
C128 C 0.89354 0.00765 0.47479 0.0
C129 C 0.9276 0.0279 0.53556 0.0
C130 C 0.90956 0.9933 0.43068 0.0
H131 H 0.87419 0.00569 0.4678 0.0
O132 O 0.9778 0.05403 0.48614 0.0
O133 O 0.00913 0.02299 0.61069 0.0
O134 O 0.98857 0.99301 0.70444 0.0
O135 O 0.96195 0.9967 0.59672 0.0
O136 O 0.97905 0.04475 0.60409 0.0
O137 O 0.99652 0.03234 0.39784 0.0
O138 O 0.04238 0.95551 0.6857 0.0
O139 O 0.00241 0.98342 0.55925 0.0
O140 O 0.02404 0.01207 0.46547 0.0
O141 O 0.04774 0.01549 0.57845 0.0
O142 O 0.03334 0.96324 0.56092 0.0
O143 O 0.01302 0.97026 0.75673 0.0
C144 C -0.00179 0.04016 0.64444 0.0
C145 C 0.90141 0.97632 0.37429 0.0
C146 C 0.91809 0.96351 0.32763 0.0
C147 C 0.98727 0.05339 0.41563 0.0
C148 C 0.97391 0.06578 0.35311 0.0
C149 C 0.94984 0.05998 0.33538 0.0
C150 C 0.98534 0.08471 0.31319 0.0
C151 C 0.97274 0.09842 0.25719 0.0
C152 C 0.93725 0.07344 0.27907 0.0
C153 C 0.94853 0.09277 0.24066 0.0
C154 C 0.96686 0.99147 0.6714 0.0
C155 C 0.01306 0.96618 0.52482 0.0
C156 C 0.02863 0.95279 0.74783 0.0
C157 C 0.03997 0.94449 0.82111 0.0
C158 C 0.06191 0.95412 0.84831 0.0
C159 C 0.02765 0.92743 0.86681 0.0
C160 C 0.03692 0.91989 0.94001 0.0
C161 C 0.0714 0.9466 0.92068 0.0
C162 C 0.05902 0.92959 0.96641 0.0
C163 C 0.04439 0.01829 0.50162 0.0
H164 H 0.94076 0.04537 0.36561 0.0
H165 H 0.00387 0.08935 0.32777 0.0
H166 H 0.91862 0.06907 0.2659 0.0
H167 H 0.93843 0.10324 0.19807 0.0
H168 H 0.07158 0.96746 0.81407 0.0
H169 H 0.01081 0.91994 0.84476 0.0
H170 H 0.08831 0.95409 0.94166 0.0
H171 H 0.06659 0.92427 0.0227 0.0
Gd172 Gd 0.48805 0.98559 0.55179 0.0
Gd173 Gd 0.5133 0.02477 0.71437 0.0
C174 C 0.4669 0.05717 0.91263 0.0
C175 C 0.4699 0.10034 0.8869 0.0
C176 C 0.49128 0.07131 0.8036 0.0
C177 C 0.48205 0.05246 0.84716 0.0
C178 C 0.48583 0.09553 0.82399 0.0
C179 C 0.46041 0.08118 0.9311 0.0
C180 C 0.45925 0.03767 0.95868 0.0
C181 C 0.46745 0.01436 0.94062 0.0
N182 N 0.48879 0.02955 0.82766 0.0
C183 C 0.48258 0.01065 0.87528 0.0
H184 H 0.4886 0.99249 0.86199 0.0
C185 C 0.51884 0.08401 0.70569 0.0
N186 N 0.50669 0.06597 0.74376 0.0
C187 C 0.51393 0.10834 0.72324 0.0
C188 C 0.4971 0.11414 0.78198 0.0
H189 H 0.53187 0.07958 0.66027 0.0
H190 H 0.44858 0.08514 0.98061 0.0
H191 H 0.51297 0.01856 0.40563 0.0
H192 H 0.44752 0.04049 0.00923 0.0
H193 H 0.46204 -0.00081 0.97675 0.0
H194 H 0.46527 0.11882 0.90303 0.0
H195 H 0.46931 0.93049 0.60126 0.0
H196 H 0.55574 0.97154 0.26043 0.0
H197 H 0.54034 0.01253 0.29277 0.0
H198 H 0.53804 0.89268 0.36248 0.0
H199 H 0.52315 0.12258 0.69155 0.0
H200 H 0.4934 0.13299 0.79577 0.0
H201 H 0.55505 0.92679 0.28765 0.0
H202 H 0.47848 0.88766 0.56862 0.0
N203 N 0.5131 0.98141 0.43929 0.0
C204 C 0.54363 0.97406 0.3102 0.0
C205 C 0.53493 0.9972 0.32815 0.0
C206 C 0.53592 0.95434 0.35509 0.0
C207 C 0.52025 0.95866 0.41949 0.0
C208 C 0.51933 0.00051 0.39249 0.0
N209 N 0.49487 0.94459 0.51994 0.0
C210 C 0.51082 0.93958 0.46138 0.0
C211 C 0.48781 0.90209 0.53822 0.0
C212 C 0.50515 0.89663 0.48071 0.0
C213 C 0.48262 0.92632 0.55641 0.0
C214 C 0.51663 0.91549 0.4405 0.0
H215 H 0.50909 0.87786 0.46648 0.0
O216 O 0.45157 0.97306 0.52728 0.0
O217 O 0.4815 0.00649 0.66153 0.0
O218 O 0.5131 0.98485 0.7462 0.0
O219 O 0.51045 0.96144 0.62963 0.0
O220 O 0.46197 0.97488 0.64848 0.0
O221 O 0.46713 0.00231 0.45889 0.0
O222 O 0.55023 0.03675 0.73247 0.0
O223 O 0.51992 0.00339 0.6056 0.0
O224 O 0.48887 0.02551 0.52134 0.0
O225 O 0.4902 0.0487 0.63838 0.0
O226 O 0.53911 0.03523 0.61657 0.0
O227 O 0.5342 0.0104 0.81155 0.0
C228 C 0.46552 0.99359 0.69322 0.0
C229 C 0.53313 0.91105 0.3789 0.0
C230 C 0.5428 0.93047 0.3363 0.0
C231 C 0.44842 0.98849 0.47022 0.0
C232 C 0.43551 0.9802 0.39932 0.0
C233 C 0.44172 0.95879 0.35916 0.0
C234 C 0.41635 0.99438 0.37184 0.0
C235 C 0.40266 0.98711 0.30561 0.0
C236 C 0.42853 0.95154 0.29249 0.0
C237 C 0.40906 0.96548 0.26598 0.0
C238 C 0.51585 0.96434 0.70552 0.0
C239 C 0.53584 0.01618 0.57319 0.0
C240 C 0.55322 0.02325 0.79455 0.0
C241 C 0.56653 0.03383 0.86115 0.0
C242 C 0.5584 0.05452 0.90169 0.0
C243 C 0.58805 0.02266 0.88404 0.0
C244 C 0.60191 0.03207 0.94682 0.0
C245 C 0.57192 0.06393 0.96477 0.0
C246 C 0.59355 0.05282 0.98736 0.0
C247 C 0.48533 0.04581 0.56222 0.0
H248 H 0.45662 0.94775 0.3794 0.0
H249 H 0.41224 0.01124 0.40241 0.0
H250 H 0.43324 0.93493 0.26166 0.0
H251 H 0.39882 0.95908 0.21541 0.0
H252 H 0.54173 0.0633 0.88463 0.0
H253 H 0.59386 0.00637 0.85308 0.0
H254 H 0.56568 0.07994 0.99606 0.0
H255 H 0.60386 0.06063 0.0357 0.0
Gd256 Gd 0.48254 0.52894 0.6632 0.0
Gd257 Gd 0.52349 0.49843 0.51902 0.0
C258 C 0.6033 0.48454 0.5725 0.0
C259 C 0.62327 0.50766 0.46968 0.0
C260 C 0.57944 0.50645 0.4771 0.0
C261 C 0.58069 0.49177 0.54248 0.0
C262 C 0.60067 0.51419 0.43879 0.0
C263 C 0.62458 0.49289 0.53655 0.0
C264 C 0.60384 0.46875 0.63673 0.0
C265 C 0.5822 0.46006 0.66783 0.0
N266 N 0.55976 0.48399 0.57529 0.0
C267 C 0.56025 0.46762 0.63555 0.0
H268 H 0.54381 0.46069 0.66079 0.0
C269 C 0.55512 0.52454 0.37934 0.0
N270 N 0.55736 0.51228 0.4488 0.0
C271 C 0.57562 0.53273 0.33926 0.0
C272 C 0.59852 0.52776 0.36959 0.0
H273 H 0.53742 0.52848 0.35586 0.0
H274 H 0.64211 0.48765 0.55906 0.0
H275 H 0.45926 0.56713 0.52969 0.0
H276 H 0.62083 0.46281 0.66169 0.0
H277 H 0.5824 0.44753 0.71672 0.0
H278 H 0.6398 0.51358 0.44148 0.0
H279 H 0.47166 0.49761 0.82754 0.0
H280 H 0.38254 0.55822 0.5276 0.0
H281 H 0.41942 0.57773 0.47533 0.0
H282 H 0.36828 0.50403 0.74291 0.0
H283 H 0.57375 0.54286 0.28508 0.0
H284 H 0.61439 0.53405 0.33835 0.0
H285 H 0.36361 0.53045 0.62726 0.0
H286 H 0.43673 0.48012 0.89827 0.0
N287 N 0.44528 0.54124 0.61035 0.0
C288 C 0.40002 0.55344 0.55163 0.0
C289 C 0.42078 0.56454 0.52214 0.0
C290 C 0.40199 0.53692 0.61362 0.0
C291 C 0.42518 0.53126 0.64243 0.0
C292 C 0.44336 0.55848 0.55322 0.0
N293 N 0.45033 0.51219 0.7349 0.0
C294 C 0.42778 0.51632 0.70702 0.0
C295 C 0.43397 0.49016 0.84432 0.0
C296 C 0.4107 0.4932 0.81411 0.0
C297 C 0.45369 0.50011 0.80426 0.0
C298 C 0.40732 0.50671 0.74527 0.0
H299 H 0.39545 0.48551 0.84529 0.0
O300 O 0.49198 0.54347 0.77885 0.0
O301 O 0.5197 0.51707 0.63474 0.0
O302 O 0.50615 0.47228 0.60659 0.0
O303 O 0.47084 0.49039 0.65419 0.0
O304 O 0.50839 0.51138 0.74872 0.0
O305 O 0.47795 0.56727 0.68832 0.0
O306 O 0.51683 0.48388 0.40114 0.0
O307 O 0.48689 0.51156 0.54603 0.0
O308 O 0.49934 0.55559 0.57779 0.0
O309 O 0.53399 0.53812 0.52115 0.0
O310 O 0.49826 0.51626 0.43174 0.0
O311 O 0.52099 0.45958 0.50023 0.0
C312 C 0.52662 0.50987 0.70143 0.0
C313 C 0.38422 0.51145 0.71487 0.0
C314 C 0.38156 0.52649 0.64903 0.0
C315 C 0.48506 0.56533 0.76154 0.0
C316 C 0.47072 0.57799 0.82189 0.0
C317 C 0.44595 0.57358 0.83104 0.0
C318 C 0.48226 0.59491 0.87121 0.0
C319 C 0.46919 0.6078 0.9291 0.0
C320 C 0.43285 0.58621 0.88884 0.0
C321 C 0.44433 0.60335 0.93741 0.0
C322 C 0.48444 0.47121 0.63994 0.0
C323 C 0.48021 0.51885 0.47925 0.0
C324 C 0.51766 0.46143 0.42424 0.0
C325 C 0.53101 0.4443 0.37393 0.0
C326 C 0.55592 0.4467 0.36178 0.0
C327 C 0.51851 0.42483 0.33911 0.0
C328 C 0.53074 0.40753 0.2925 0.0
C329 C 0.5682 0.42968 0.3152 0.0
C330 C 0.55577 0.41015 0.28092 0.0
C331 C 0.52055 0.55709 0.54153 0.0
H332 H 0.43678 0.56056 0.79346 0.0
H333 H 0.50136 0.59848 0.86309 0.0
H334 H 0.41371 0.58282 0.89569 0.0
H335 H 0.43384 0.61307 0.9815 0.0
H336 H 0.56581 0.46159 0.38849 0.0
H337 H 0.4993 0.42288 0.34987 0.0
H338 H 0.58745 0.43156 0.30585 0.0
H339 H 0.56567 0.39722 0.24493 0.0
Gd340 Gd 0.98343 0.48944 0.68742 0.0
Gd341 Gd 0.01892 0.52935 0.55491 0.0
C342 C 0.0306 0.60979 0.60865 0.0
C343 C 0.00868 0.6289 0.50142 0.0
C344 C 0.01072 0.58498 0.50943 0.0
C345 C 0.02426 0.58683 0.57772 0.0
C346 C 0.00319 0.60597 0.46942 0.0
C347 C 0.02234 0.63081 0.571 0.0
C348 C 0.04547 0.61092 0.67547 0.0
C349 C 0.05423 0.58951 0.7081 0.0
N350 N 0.032 0.56615 0.61225 0.0
C351 C 0.04756 0.56717 0.67489 0.0
H352 H 0.0544 0.55081 0.70105 0.0
C353 C 0.99502 0.55979 0.40793 0.0
N354 N 0.00587 0.56257 0.48008 0.0
C355 C 0.98708 0.58005 0.36615 0.0
C356 C 0.99092 0.60325 0.39749 0.0
H357 H 0.9919 0.54187 0.38373 0.0
H358 H 0.02686 0.64861 0.59424 0.0
H359 H 0.94872 0.46591 0.54266 0.0
H360 H 0.05069 0.62819 0.70124 0.0
H361 H 0.06608 0.59017 0.75898 0.0
H362 H 0.00289 0.64526 0.47196 0.0
H363 H 0.01048 0.4788 0.86063 0.0
H364 H 0.95548 0.38875 0.54641 0.0
H365 H 0.93868 0.42585 0.48653 0.0
H366 H 0.00337 0.37469 0.77777 0.0
H367 H 0.97798 0.57775 0.30992 0.0
H368 H 0.98482 0.61892 0.36493 0.0
H369 H 0.97986 0.36981 0.65503 0.0
H370 H 0.02567 0.44388 0.93624 0.0
N371 N 0.97147 0.45189 0.63279 0.0
C372 C 0.95993 0.40634 0.57148 0.0
C373 C 0.95037 0.42722 0.53767 0.0
C374 C 0.97458 0.40837 0.63864 0.0
C375 C 0.9799 0.43171 0.66864 0.0
C376 C 0.95609 0.44996 0.56988 0.0
N377 N 0.99704 0.45714 0.76563 0.0
C378 C 0.99307 0.43441 0.73744 0.0
C379 C 0.01659 0.44096 0.88027 0.0
C380 C 0.01357 0.41748 0.85029 0.0
C381 C 0.0079 0.46069 0.83741 0.0
C382 C 0.0014 0.41393 0.77853 0.0
H383 H 0.02029 0.40222 0.88362 0.0
O384 O 0.96564 0.50005 0.79644 0.0
O385 O -0.00245 0.52623 0.66468 0.0
O386 O 0.04206 0.5115 0.65037 0.0
O387 O 0.02154 0.47652 0.6894 0.0
O388 O -0.00082 0.51479 0.77987 0.0
O389 O 0.94432 0.48747 0.69639 0.0
O390 O 0.03591 0.52013 0.44303 0.0
O391 O 0.0046 0.49276 0.57728 0.0
O392 O 0.96079 0.50591 0.58989 0.0
O393 O 0.98013 0.54142 0.54973 0.0
O394 O 0.00343 0.50395 0.46187 0.0
O395 O 0.05797 0.53015 0.54426 0.0
C396 C 0.0032 0.53281 0.7337 0.0
C397 C 0.99695 0.39066 0.74746 0.0
C398 C 0.98357 0.38788 0.67757 0.0
C399 C 0.94415 0.49509 0.76966 0.0
C400 C 0.92773 0.48298 0.82456 0.0
C401 C 0.93219 0.45951 0.85199 0.0
C402 C 0.9077 0.49589 0.85265 0.0
C403 C 0.89196 0.48567 0.90844 0.0
C404 C 0.91666 0.44918 0.90762 0.0
C405 C 0.8967 0.46217 0.93605 0.0
C406 C 0.0414 0.48963 0.6828 0.0
C407 C -0.00084 0.48602 0.50822 0.0
C408 C 0.05763 0.52427 0.46934 0.0
C409 C 0.07362 0.53786 0.41677 0.0
C410 C 0.07139 0.56299 0.40782 0.0
C411 C 0.09129 0.52518 0.37396 0.0
C412 C 0.10693 0.53739 0.32225 0.0
C413 C 0.08684 0.57529 0.35653 0.0
C414 C 0.10457 0.56263 0.31406 0.0
C415 C 0.96068 0.5276 0.55667 0.0
H416 H 0.94769 0.44937 0.83103 0.0
H417 H 0.90467 0.51421 0.83209 0.0
H418 H 0.92013 0.43107 0.92894 0.0
H419 H 0.88483 0.45376 0.97874 0.0
H420 H 0.05778 0.57302 0.44032 0.0
H421 H 0.09307 0.50579 0.38206 0.0
H422 H 0.08508 0.5947 0.34966 0.0
H423 H 0.11627 0.57253 0.2744 0.0
H424 H 0.15105 0.06815 0.15756 0.0
H425 H 0.15342 0.11948 0.35214 0.0
H426 H 0.11896 0.04587 0.22441 0.0
H427 H 0.12112 0.09755 0.41787 0.0
H428 H 0.0459 0.02616 0.34156 0.0
H429 H 0.07662 0.04841 0.26813 0.0
H430 H 0.11741 0.05879 0.48364 0.0
H431 H 0.08658 0.03743 0.55723 0.0
C432 C 0.14454 0.07484 0.2141 0.0
C433 C 0.15491 0.09546 0.24991 0.0
C434 C 0.1261 0.06212 0.25222 0.0
C435 C 0.11772 0.06978 0.32683 0.0
C436 C 0.12755 0.09088 0.36119 0.0
C437 C 0.14595 0.10355 0.32325 0.0
C438 C 0.06148 0.0331 0.37319 0.0
C439 C 0.06377 0.02995 0.45532 0.0
C440 C 0.07911 0.04577 0.33101 0.0
C441 C 0.09933 0.05554 0.37021 0.0
C442 C 0.10183 0.05188 0.45193 0.0
C443 C 0.08425 0.03932 0.494 0.0
H444 H 0.48004 0.1479 0.1927 0.0
H445 H 0.40648 0.15085 0.27786 0.0
H446 H 0.49044 0.12025 0.29915 0.0
H447 H 0.41696 0.12288 0.38408 0.0
H448 H 0.44428 0.04655 0.47716 0.0
H449 H 0.43112 0.07795 0.38566 0.0
H450 H 0.49244 0.12197 0.45287 0.0
H451 H 0.50556 0.0904 0.54443 0.0
C452 C 0.46608 0.14257 0.23396 0.0
C453 C 0.44243 0.15147 0.22693 0.0
C454 C 0.47211 0.12697 0.29527 0.0
C455 C 0.45453 0.1197 0.34999 0.0
C456 C 0.43081 0.12832 0.34256 0.0
C457 C 0.42485 0.14426 0.28187 0.0
C458 C 0.45464 0.06316 0.47327 0.0
C459 C 0.47579 0.06629 0.51777 0.0
C460 C 0.44708 0.08111 0.42136 0.0
C461 C 0.46085 0.10226 0.41226 0.0
C462 C 0.4816 0.10573 0.45887 0.0
C463 C 0.48895 0.08788 0.51176 0.0
H464 H 0.33831 0.46325 0.35403 0.0
H465 H 0.37869 0.47334 0.13815 0.0
H466 H 0.36876 0.48606 0.42735 0.0
H467 H 0.40982 0.49502 0.21176 0.0
H468 H 0.4605 0.54038 0.35107 0.0
H469 H 0.42258 0.52944 0.28548 0.0
H470 H 0.40805 0.47759 0.47005 0.0
H471 H 0.44507 0.48898 0.53514 0.0
C472 C 0.35377 0.47031 0.32236 0.0
C473 C 0.35637 0.46626 0.2407 0.0
C474 C 0.37122 0.48336 0.36431 0.0
C475 C 0.39189 0.4922 0.32572 0.0
C476 C 0.394 0.48883 0.24336 0.0
C477 C 0.3763 0.47616 0.20118 0.0
C478 C 0.44874 0.52714 0.37827 0.0
C479 C 0.45556 0.51574 0.44858 0.0
C480 C 0.42717 0.52073 0.34061 0.0
C481 C 0.41233 0.50245 0.37199 0.0
C482 C 0.41871 0.49201 0.44459 0.0
C483 C 0.44009 0.49855 0.48226 0.0
H484 H 0.04349 0.38045 0.17346 0.0
H485 H 0.04903 0.34023 0.39068 0.0
H486 H 0.02358 0.41337 0.24429 0.0
H487 H 0.02793 0.37257 0.46122 0.0
H488 H 0.02593 0.44941 0.57079 0.0
H489 H 0.03685 0.41161 0.50704 0.0
H490 H 0.98952 0.42835 0.31145 0.0
H491 H 0.97934 0.46695 0.37521 0.0
C492 C 0.04005 0.37849 0.23618 0.0
C493 C 0.0481 0.35794 0.27677 0.0
C494 C 0.02838 0.39727 0.27682 0.0
C495 C 0.02415 0.39574 0.3588 0.0
C496 C 0.0313 0.37463 0.39852 0.0
C497 C 0.04334 0.35605 0.3581 0.0
C498 C 0.01729 0.44475 0.51548 0.0
C499 C 0.00166 0.46103 0.47818 0.0
C500 C 0.02356 0.42295 0.47857 0.0
C501 C 0.01431 0.41693 0.40339 0.0
C502 C -0.00256 0.43262 0.36846 0.0
C503 C 0.9914 0.4546 0.40513 0.0
H504 H 0.85095 0.96538 0.00619 0.0
H505 H 0.8635 0.89641 0.89009 0.0
H506 H 0.88266 0.98377 0.92544 0.0
H507 H 0.89546 0.91478 0.8107 0.0
H508 H 0.96947 0.95252 0.76648 0.0
H509 H 0.93751 0.93516 0.84757 0.0
H510 H 0.88838 0.99058 0.76845 0.0
H511 H 0.92055 0.00803 0.68669 0.0
C512 C 0.86061 0.95414 0.96393 0.0
C513 C 0.85484 0.92947 0.95439 0.0
C514 C 0.87856 0.9647 0.9175 0.0
C515 C 0.89132 0.95064 0.86205 0.0
C516 C 0.88584 0.92592 0.85335 0.0
C517 C 0.86758 0.91546 0.89861 0.0
C518 C 0.95193 0.96115 0.76696 0.0
C519 C 0.94741 0.98165 0.72069 0.0
C520 C 0.93364 0.95108 0.81274 0.0
C521 C 0.9106 0.96158 0.81395 0.0
C522 C 0.90609 0.98228 0.76846 0.0
C523 C 0.92435 0.99211 0.72138 0.0
H524 H 0.54189 0.84608 0.02568 0.0
H525 H 0.6104 0.85603 0.90793 0.0
H526 H 0.52428 0.87825 0.94525 0.0
H527 H 0.59285 0.88861 0.82907 0.0
H528 H 0.5558 0.96536 0.79679 0.0
H529 H 0.57356 0.93198 0.87118 0.0
H530 H 0.51738 0.88411 0.78638 0.0
H531 H 0.49976 0.91755 0.71091 0.0
C532 C 0.5532 0.85522 0.98296 0.0
C533 C 0.57752 0.8486 0.97303 0.0
C534 C 0.54308 0.87346 0.93673 0.0
C535 C 0.55725 0.88573 0.88109 0.0
C536 C 0.58162 0.87935 0.87174 0.0
C537 C 0.5916 0.86074 0.91669 0.0
C538 C 0.5473 0.94768 0.79401 0.0
C539 C 0.5265 0.94389 0.74812 0.0
C540 C 0.55752 0.92863 0.83606 0.0
C541 C 0.54679 0.90559 0.83425 0.0
C542 C 0.52591 0.90178 0.78858 0.0
C543 C 0.51598 0.92077 0.74503 0.0
H544 H 0.65132 0.54194 0.00331 0.0
H545 H 0.6375 0.60294 0.85149 0.0
H546 H 0.62183 0.51784 0.92936 0.0
H547 H 0.6074 0.57949 0.78028 0.0
H548 H 0.54377 0.49801 0.84627 0.0
H549 H 0.57968 0.51439 0.91059 0.0
H550 H 0.60096 0.54772 0.69064 0.0
H551 H 0.56421 0.53317 0.62934 0.0
C552 C 0.64187 0.55022 0.95441 0.0
C553 C 0.64666 0.57432 0.93317 0.0
C554 C 0.62496 0.53644 0.9121 0.0
C555 C 0.61232 0.5466 0.84832 0.0
C556 C 0.61721 0.57076 0.82749 0.0
C557 C 0.6343 0.58436 0.86896 0.0
C558 C 0.55641 0.50847 0.8115 0.0
C559 C 0.55111 0.51432 0.73273 0.0
C560 C 0.57709 0.51777 0.84818 0.0
C561 C 0.593 0.53287 0.80632 0.0
C562 C 0.58874 0.5368 0.72547 0.0
C563 C 0.5678 0.52805 0.68962 0.0
H564 H -0.00221 0.6649 0.02322 0.0
H565 H 0.92987 0.65851 0.89929 0.0
H566 H 0.01403 0.63132 0.94491 0.0
H567 H 0.9456 0.62441 0.82366 0.0
H568 H 0.98062 0.5714 0.66492 0.0
H569 H 0.97219 0.61068 0.72467 0.0
H570 H 0.00965 0.58875 0.93676 0.0
H571 H 0.01944 0.55004 0.87412 0.0
C572 C 0.98634 0.65633 0.97919 0.0
C573 C 0.96251 0.66427 0.96768 0.0
C574 C 0.99561 0.63701 0.93451 0.0
C575 C 0.98115 0.62503 0.87798 0.0
C576 C 0.95748 0.63341 0.86545 0.0
C577 C 0.94833 0.65288 0.9094 0.0
C578 C 0.98777 0.57528 0.72312 0.0
C579 C 0.00103 0.55781 0.76441 0.0
C580 C 0.9826 0.5977 0.75806 0.0
C581 C 0.98993 0.60286 0.83611 0.0
C582 C 0.00395 0.58563 0.87627 0.0
C583 C 0.00943 0.56335 0.84071 0.0
H584 H 0.02283 0.24124 0.10252 0.0
H585 H 0.08497 0.2008 0.17985 0.0
H586 H -0.00236 0.20507 0.11653 0.0
H587 H 0.05998 0.16494 0.19617 0.0
H588 H 0.01515 0.09872 0.17601 0.0
H589 H 0.03786 0.13404 0.13166 0.0
H590 H 0.98072 0.18082 0.21725 0.0
H591 H 0.95766 0.14531 0.25765 0.0
C592 C 0.03105 0.22454 0.12228 0.0
C593 C 0.05586 0.22359 0.13871 0.0
C594 C 0.01666 0.20386 0.13059 0.0
C595 C 0.02675 0.18196 0.15701 0.0
C596 C 0.05164 0.18121 0.17363 0.0
C597 C 0.06601 0.20178 0.16452 0.0
C598 C 0.00734 0.11658 0.18374 0.0
C599 C 0.98477 0.11941 0.22036 0.0
C600 C 0.02039 0.13683 0.15907 0.0
C601 C 0.01135 0.16036 0.17211 0.0
C602 C 0.98818 0.16302 0.20545 0.0
C603 C 0.97496 0.14271 0.22887 0.0
H604 H 0.29802 0.10257 0.23876 0.0
H605 H 0.26884 0.04226 0.10518 0.0
H606 H 0.33294 0.07781 0.27485 0.0
H607 H 0.30435 0.01806 0.13761 0.0
H608 H 0.38656 0.99546 0.15367 0.0
H609 H 0.35211 0.02015 0.11292 0.0
H610 H 0.33718 0.03777 0.35721 0.0
H611 H 0.37061 0.01235 0.39866 0.0
C612 C 0.2992 0.08415 0.21633 0.0
C613 C 0.28106 0.07463 0.16697 0.0
C614 C 0.31917 0.07004 0.23682 0.0
C615 C 0.32145 0.04618 0.20803 0.0
C616 C 0.30327 0.03658 0.15913 0.0
C617 C 0.28309 0.05055 0.13985 0.0
C618 C 0.37576 0.00429 0.19889 0.0
C619 C 0.3816 0.00195 0.2796 0.0
C620 C 0.35614 0.01852 0.17539 0.0
C621 C 0.34218 0.03098 0.23201 0.0
C622 C 0.34792 0.02866 0.31236 0.0
C623 C 0.3672 0.01416 0.33593 0.0
H624 H 0.48623 0.26954 0.08106 0.0
H625 H 0.42014 0.30214 0.1652 0.0
H626 H 0.50865 0.30557 0.12171 0.0
H627 H 0.44254 0.3381 0.20743 0.0
H628 H 0.48697 0.40759 0.21716 0.0
H629 H 0.46462 0.37289 0.16436 0.0
H630 H 0.52196 0.32523 0.23933 0.0
H631 H 0.54441 0.35996 0.29037 0.0
C632 C 0.4765 0.28447 0.10825 0.0
C633 C 0.45139 0.28315 0.11909 0.0
C634 C 0.48935 0.30509 0.13192 0.0
C635 C 0.47747 0.32479 0.16819 0.0
C636 C 0.45226 0.3235 0.17845 0.0
C637 C 0.43938 0.3029 0.15417 0.0
C638 C 0.49476 0.38967 0.22228 0.0
C639 C 0.51747 0.38652 0.25791 0.0
C640 C 0.48193 0.36976 0.19222 0.0
C641 C 0.49142 0.34619 0.19757 0.0
C642 C 0.51424 0.34312 0.23275 0.0
C643 C 0.52713 0.36304 0.26224 0.0
H644 H 0.23769 0.48395 0.08685 0.0
H645 H 0.20506 0.42283 0.20344 0.0
H646 H 0.20258 0.50878 0.1205 0.0
H647 H 0.16999 0.44743 0.23657 0.0
H648 H 0.10294 0.49353 0.24637 0.0
H649 H 0.13516 0.46939 0.18659 0.0
H650 H 0.18639 0.52616 0.24201 0.0
H651 H 0.15417 0.55029 0.30128 0.0
C652 C 0.22282 0.47573 0.1185 0.0
C653 C 0.22391 0.45132 0.14115 0.0
C654 C 0.20278 0.48996 0.13807 0.0
C655 C 0.18347 0.48011 0.18126 0.0
C656 C 0.1843 0.45548 0.2019 0.0
C657 C 0.20436 0.44128 0.1824 0.0
C658 C 0.12108 0.50087 0.24549 0.0
C659 C 0.12605 0.52374 0.27917 0.0
C660 C 0.13953 0.48705 0.21124 0.0
C661 C 0.16338 0.49576 0.20993 0.0
C662 C 0.16817 0.51902 0.24103 0.0
C663 C 0.14971 0.53286 0.27515 0.0
H664 H 0.94227 0.80214 0.01599 0.0
H665 H 0.98461 0.79919 0.23014 0.0
H666 H 0.9617 0.84023 0.98134 0.0
H667 H 0.00394 0.83763 0.19581 0.0
H668 H 0.05546 0.88148 0.02193 0.0
H669 H 0.03311 0.8487 0.08481 0.0
H670 H 0.96591 0.88374 0.02588 0.0
H671 H 0.98816 0.91678 0.96446 0.0
C672 C 0.95544 0.80988 0.05634 0.0
C673 C 0.96179 0.7978 0.12603 0.0
C674 C 0.96645 0.83176 0.03678 0.0
C675 C 0.9843 0.8419 0.08598 0.0
C676 C 0.99025 0.83017 0.15681 0.0
C677 C 0.97899 0.80834 0.1769 0.0
C678 C 0.03595 0.88252 0.02412 0.0
C679 C 0.0236 0.90156 0.98704 0.0
C680 C 0.02315 0.86374 0.06018 0.0
C681 C -0.00222 0.86359 0.05951 0.0
C682 C 0.98546 0.88324 0.02619 0.0
C683 C -0.00178 0.90207 0.9907 0.0
H684 H 0.74537 0.96597 0.96998 0.0
H685 H 0.70483 0.9344 0.16043 0.0
H686 H 0.71112 0.99204 0.93821 0.0
H687 H 0.67033 0.96017 0.12926 0.0
H688 H 0.61945 0.02348 0.09593 0.0
H689 H 0.65584 0.00116 0.13156 0.0
H690 H 0.67178 0.9898 0.88358 0.0
H691 H 0.63631 0.01313 0.84832 0.0
C692 C 0.72903 0.96464 0.00495 0.0
C693 C 0.72775 0.94863 0.06875 0.0
C694 C 0.7094 0.9795 0.98682 0.0
C695 C 0.68795 0.97837 0.03151 0.0
C696 C 0.6867 0.96202 0.09479 0.0
C697 C 0.7064 0.94728 0.11295 0.0
C698 C 0.63098 0.0166 0.04913 0.0
C699 C 0.62484 0.01994 0.96928 0.0
C700 C 0.65168 0.00352 0.0695 0.0
C701 C 0.66669 0.99349 0.01045 0.0
C702 C 0.66083 0.99742 0.9307 0.0
C703 C 0.64026 0.01055 0.91043 0.0
H704 H 0.54345 0.73916 0.00474 0.0
H705 H 0.56348 0.70179 0.21833 0.0
H706 H 0.5158 0.70642 0.97041 0.0
H707 H 0.53555 0.66879 0.18373 0.0
H708 H 0.51216 0.6043 0.00749 0.0
H709 H 0.53516 0.63721 0.06966 0.0
H710 H 0.47708 0.68694 0.02014 0.0
H711 H 0.45414 0.65409 0.95761 0.0
C712 C 0.54178 0.724 0.0447 0.0
C713 C 0.55554 0.72306 0.11434 0.0
C714 C 0.52578 0.70537 0.02539 0.0
C715 C 0.5234 0.68517 0.0747 0.0
C716 C 0.53702 0.68422 0.14484 0.0
C717 C 0.55283 0.70315 0.16488 0.0
C718 C 0.5042 0.62221 0.01103 0.0
C719 C 0.48148 0.62673 0.97715 0.0
C720 C 0.51726 0.64096 0.04714 0.0
C721 C 0.50794 0.66462 0.04918 0.0
C722 C 0.48472 0.66887 0.01882 0.0
C723 C 0.47155 0.65007 0.98352 0.0
H724 H 0.78441 0.59798 0.97719 0.0
H725 H 0.76206 0.54193 0.13806 0.0
H726 H 0.82001 0.57425 0.94179 0.0
H727 H 0.79766 0.51818 0.10302 0.0
H728 H 0.87545 0.4907 0.06091 0.0
H729 H 0.84183 0.51575 0.10791 0.0
H730 H 0.8272 0.53731 0.86754 0.0
H731 H 0.8607 0.51254 0.82103 0.0
C732 C 0.78728 0.58072 0.00574 0.0
C733 C 0.77066 0.57203 0.0614 0.0
C734 C 0.80759 0.56705 0.98518 0.0
C735 C 0.81161 0.54422 0.0192 0.0
C736 C 0.7953 0.53583 0.07656 0.0
C737 C 0.77497 0.54954 0.09715 0.0
C738 C 0.86488 0.50064 0.0182 0.0
C739 C 0.87082 0.49977 0.93732 0.0
C740 C 0.84567 0.51502 0.04509 0.0
C741 C 0.832 0.52877 0.99159 0.0
C742 C 0.83771 0.52746 0.91062 0.0
C743 C 0.85687 0.51317 0.88388 0.0
H744 H 0.02462 0.17246 0.90355 0.0
H745 H 0.09092 0.13245 0.93524 0.0
H746 H 0.00732 0.13827 0.83181 0.0
H747 H 0.0733 0.09787 0.86472 0.0
H748 H 0.04453 0.05679 0.64455 0.0
H749 H 0.06175 0.08845 0.72841 0.0
H750 H 0.99291 0.09712 0.84592 0.0
H751 H 0.9757 0.06541 0.76072 0.0
C752 C 0.03546 0.15628 0.89574 0.0
C753 C 0.05925 0.15528 0.92428 0.0
C754 C 0.02544 0.13658 0.85516 0.0
C755 C 0.03895 0.11538 0.84232 0.0
C756 C 0.06256 0.1141 0.87269 0.0
C757 C 0.07261 0.13386 0.91334 0.0
C758 C 0.03326 0.06509 0.68938 0.0
C759 C 0.00903 0.05817 0.69819 0.0
C760 C 0.04309 0.08329 0.73736 0.0
C761 C 0.02877 0.09517 0.79434 0.0
C762 C 0.00439 0.08839 0.80234 0.0
C763 C 0.99456 0.07021 0.75406 0.0
H764 H 0.36223 0.07498 0.9791 0.0
H765 H 0.32388 0.01373 0.87867 0.0
H766 H 0.40005 0.05912 0.92539 0.0
H767 H 0.36168 0.99801 0.82504 0.0
H768 H 0.43733 0.96734 0.79108 0.0
H769 H 0.40235 0.98161 0.86721 0.0
H770 H 0.41483 0.05433 0.78378 0.0
H771 H 0.44934 0.04 0.70726 0.0
C772 C 0.36188 0.05807 0.94607 0.0
C773 C 0.34005 0.04574 0.93224 0.0
C774 C 0.38351 0.04905 0.91534 0.0
C775 C 0.3837 0.02742 0.87097 0.0
C776 C 0.36204 0.01462 0.85968 0.0
C777 C 0.34039 0.02373 0.88982 0.0
C778 C 0.43269 0.98641 0.79018 0.0
C779 C 0.4463 0.00271 0.74519 0.0
C780 C 0.41274 0.99453 0.83335 0.0
C781 C 0.40605 0.01907 0.83165 0.0
C782 C 0.41986 0.0354 0.78723 0.0
C783 C 0.43964 0.02723 0.74359 0.0
H784 H 0.47301 0.34296 0.91775 0.0
H785 H 0.40004 0.35198 0.83323 0.0
H786 H 0.48636 0.37607 0.83465 0.0
H787 H 0.41353 0.38429 0.74625 0.0
H788 H 0.43919 0.46092 0.69292 0.0
H789 H 0.42554 0.42448 0.75687 0.0
H790 H 0.49429 0.3904 0.70703 0.0
H791 H 0.50869 0.42793 0.64826 0.0
C792 C 0.45991 0.35181 0.88024 0.0
C793 C 0.43547 0.34515 0.8824 0.0
C794 C 0.46759 0.37065 0.83192 0.0
C795 C 0.45105 0.38296 0.78364 0.0
C796 C 0.4267 0.37559 0.78385 0.0
C797 C 0.41894 0.35705 0.83342 0.0
C798 C 0.45155 0.44579 0.69624 0.0
C799 C 0.47534 0.44766 0.66806 0.0
C800 C 0.44352 0.42461 0.73171 0.0
C801 C 0.45887 0.40447 0.73804 0.0
C802 C 0.48218 0.40578 0.70504 0.0
C803 C 0.49039 0.42722 0.6707 0.0
H804 H 0.13559 0.40998 0.98765 0.0
H805 H 0.18586 0.45255 0.85089 0.0
H806 H 0.10219 0.42681 0.91264 0.0
H807 H 0.15242 0.46894 0.77442 0.0
H808 H 0.08305 0.51339 0.72446 0.0
H809 H 0.11817 0.49623 0.79108 0.0
H810 H 0.08501 0.42531 0.78164 0.0
H811 H 0.04997 0.44239 0.71673 0.0
C812 C 0.13953 0.42275 0.94106 0.0
C813 C 0.16335 0.42993 0.92517 0.0
C814 C 0.1204 0.43231 0.89779 0.0
C815 C 0.12468 0.44917 0.83743 0.0
C816 C 0.14853 0.45621 0.82116 0.0
C817 C 0.16768 0.4467 0.86467 0.0
C818 C 0.0834 0.49412 0.73613 0.0
C819 C 0.06361 0.47933 0.71657 0.0
C820 C 0.10352 0.48428 0.77401 0.0
C821 C 0.10421 0.45946 0.79248 0.0
C822 C 0.08479 0.44458 0.76995 0.0
C823 C 0.06472 0.4544 0.73253 0.0
H824 H 0.97455 0.81854 0.37951 0.0
H825 H 0.93832 0.83827 0.59676 0.0
H826 H 0.9859 0.86089 0.35976 0.0
H827 H 0.95027 0.88021 0.57908 0.0
H828 H 0.96483 0.95536 0.53276 0.0
H829 H 0.94593 0.91657 0.50513 0.0
H830 H 0.01437 0.88831 0.42347 0.0
H831 H 0.03296 0.92786 0.44703 0.0
C832 C 0.96843 0.83197 0.42186 0.0
C833 C 0.95517 0.82522 0.48921 0.0
C834 C 0.9752 0.85622 0.41109 0.0
C835 C 0.9689 0.87404 0.46755 0.0
C836 C 0.95501 0.86718 0.53336 0.0
C837 C 0.94831 0.84308 0.54399 0.0
C838 C 0.97566 0.94126 0.50596 0.0
C839 C 0.00041 0.94473 0.49194 0.0
C840 C 0.96487 0.91884 0.49095 0.0
C841 C 0.97873 0.89912 0.46375 0.0
C842 C 0.00309 0.90309 0.44411 0.0
C843 C 0.01381 0.9257 0.45807 0.0
H844 H 0.67847 0.99743 0.38715 0.0
H845 H 0.6435 0.92999 0.32305 0.0
H846 H 0.64035 0.01286 0.43884 0.0
H847 H 0.60522 0.94572 0.37221 0.0
H848 H 0.55238 0.96982 0.56785 0.0
H849 H 0.58797 0.95482 0.4994 0.0
H850 H 0.60032 0.02612 0.40308 0.0
H851 H 0.56465 0.04118 0.47354 0.0
C852 C 0.6626 0.98599 0.38354 0.0
C853 C 0.66403 0.9624 0.352 0.0
C854 C 0.6407 0.99491 0.41243 0.0
C855 C 0.61977 0.98048 0.40974 0.0
C856 C 0.62112 0.95711 0.37634 0.0
C857 C 0.64304 0.94812 0.3481 0.0
C858 C 0.56238 0.98214 0.53071 0.0
C859 C 0.55558 0.00651 0.52448 0.0
C860 C 0.5828 0.97356 0.49141 0.0
C861 C 0.59697 0.98927 0.44569 0.0
C862 C 0.58991 0.01364 0.43856 0.0
C863 C 0.56949 0.02223 0.47828 0.0
H864 H 0.57003 0.70364 0.61509 0.0
H865 H 0.54242 0.70293 0.37627 0.0
H866 H 0.56691 0.65957 0.61907 0.0
H867 H 0.53921 0.65871 0.3803 0.0
H868 H 0.54767 0.57477 0.41739 0.0
H869 H 0.56122 0.61694 0.39966 0.0
H870 H 0.52802 0.6366 0.62241 0.0
H871 H 0.5148 0.5952 0.63981 0.0
C872 C 0.56385 0.69397 0.56278 0.0
C873 C 0.55666 0.70666 0.49546 0.0
C874 C 0.56202 0.66879 0.56506 0.0
C875 C 0.55264 0.65576 0.50022 0.0
C876 C 0.54677 0.66829 0.43076 0.0
C877 C 0.54866 0.69362 0.42842 0.0
C878 C 0.54354 0.58814 0.46255 0.0
C879 C 0.52998 0.58179 0.52954 0.0
C880 C 0.55116 0.61221 0.4523 0.0
C881 C 0.5458 0.62998 0.50995 0.0
C882 C 0.53272 0.6233 0.57744 0.0
C883 C 0.52487 0.59958 0.58694 0.0
H884 H 0.84903 0.58848 0.26106 0.0
H885 H 0.80981 0.54999 0.44206 0.0
H886 H 0.8869 0.5794 0.32777 0.0
H887 H 0.84762 0.54145 0.50975 0.0
H888 H 0.91924 0.50166 0.53709 0.0
H889 H 0.88139 0.51508 0.48115 0.0
H890 H 0.91138 0.58655 0.44647 0.0
H891 H 0.94974 0.57298 0.50198 0.0
C892 C 0.84846 0.57836 0.31564 0.0
C893 C 0.82648 0.56968 0.34581 0.0
C894 C 0.87015 0.57331 0.35412 0.0
C895 C 0.87025 0.55953 0.42359 0.0
C896 C 0.84815 0.55172 0.45546 0.0
C897 C 0.82649 0.55668 0.41684 0.0
C898 C 0.91787 0.52028 0.51785 0.0
C899 C 0.93763 0.53619 0.52337 0.0
C900 C 0.89604 0.52802 0.48628 0.0
C901 C 0.89334 0.55191 0.45979 0.0
C902 C 0.91301 0.56795 0.46575 0.0
C903 C 0.93497 0.56017 0.49742 0.0
loop_
_geom_bond_atom_site_label_1
_geom_bond_atom_site_label_2
_geom_bond_distance
_geom_bond_site_symmetry_2
_ccdc_geom_bond_type
O0 Cd1 2.300 . S
O0 C7 1.275 . S
Cd1 O0 2.300 . S
Cd1 O9 2.381 . S
Cd1 O10 2.378 . S
O2 Cd3 2.385 . S
O2 C7 1.255 . S
Cd3 O2 2.385 . S
Cd3 O4 2.317 . S
O4 Cd3 2.317 . S
O4 C5 1.232 . S
C5 O4 1.232 . S
C5 O6 1.218 . S
O6 C5 1.218 . S
C7 O0 1.275 . S
C7 O2 1.255 . S
C8 O9 1.258 . S
C8 O10 1.256 . S
O9 Cd1 2.381 . S
O9 C8 1.258 . S
O10 Cd1 2.378 . S
O10 C8 1.256 . S
O11 Cd12 2.300 . S
O11 C18 1.275 . S
Cd12 O11 2.300 . S
Cd12 O20 2.381 . S
Cd12 O21 2.378 . S
O13 Cd14 2.385 . S
O13 C18 1.255 . S
Cd14 O13 2.385 . S
Cd14 O15 2.317 . S
O15 Cd14 2.317 . S
O15 C16 1.232 . S
C16 O15 1.232 . S
C16 O17 1.218 . S
O17 C16 1.218 . S
C18 O11 1.275 . S
C18 O13 1.255 . S
C19 O20 1.258 . S
C19 O21 1.256 . S
O20 Cd12 2.381 . S
O20 C19 1.258 . S
O21 Cd12 2.378 . S
O21 C19 1.256 . S
O22 Cd23 2.300 . S
O22 C29 1.275 . S
Cd23 O22 2.300 . S
Cd23 O31 2.381 . S
Cd23 O32 2.378 . S
O24 Cd25 2.385 1_565 S
O24 C29 1.255 . S
Cd25 O24 2.385 1_545 S
Cd25 O26 2.317 1_545 S
O26 Cd25 2.317 1_565 S
O26 C27 1.232 . S
C27 O26 1.232 . S
C27 O28 1.218 . S
O28 C27 1.218 . S
C29 O22 1.275 . S
C29 O24 1.255 . S
C30 O31 1.258 . S
C30 O32 1.256 . S
O31 Cd23 2.381 . S
O31 C30 1.258 . S
O32 Cd23 2.378 . S
O32 C30 1.256 . S
O33 Cd34 2.300 . S
O33 C40 1.275 . S
Cd34 O33 2.300 . S
Cd34 O42 2.381 . S
Cd34 O43 2.378 . S
O35 Cd36 2.385 . S
O35 C40 1.255 . S
Cd36 O35 2.385 . S
Cd36 O37 2.317 . S
O37 Cd36 2.317 . S
O37 C38 1.232 . S
C38 O37 1.232 . S
C38 O39 1.218 . S
O39 C38 1.218 . S
C40 O33 1.275 . S
C40 O35 1.255 . S
C41 O42 1.258 . S
C41 O43 1.256 . S
O42 Cd34 2.381 . S
O42 C41 1.258 . S
O43 Cd34 2.378 . S
O43 C41 1.256 . S
O44 Cd45 2.300 . S
O44 C51 1.275 . S
Cd45 O44 2.300 . S
Cd45 O53 2.381 . S
Cd45 O54 2.378 . S
O46 Cd47 2.385 1_554 S
O46 C51 1.255 . S
Cd47 O46 2.385 1_556 S
Cd47 O48 2.317 . S
O48 Cd47 2.317 . S
O48 C49 1.232 . S
C49 O48 1.232 . S
C49 O50 1.218 . S
O50 C49 1.218 . S
C51 O44 1.275 . S
C51 O46 1.255 . S
C52 O53 1.258 . S
C52 O54 1.256 . S
O53 Cd45 2.381 . S
O53 C52 1.258 . S
O54 Cd45 2.378 . S
O54 C52 1.256 . S
O55 Cd56 2.300 . S
O55 C62 1.275 . S
Cd56 O55 2.300 . S
Cd56 O64 2.381 . S
Cd56 O65 2.378 . S
O57 Cd58 2.385 1_554 S
O57 C62 1.255 . S
Cd58 O57 2.385 1_556 S
Cd58 O59 2.317 . S
O59 Cd58 2.317 . S
O59 C60 1.232 . S
C60 O59 1.232 . S
C60 O61 1.218 . S
O61 C60 1.218 . S
C62 O55 1.275 . S
C62 O57 1.255 . S
C63 O64 1.258 . S
C63 O65 1.256 . S
O64 Cd56 2.381 . S
O64 C63 1.258 . S
O65 Cd56 2.378 . S
O65 C63 1.256 . S
O66 Cd67 2.300 . S
O66 C73 1.275 . S
Cd67 O66 2.300 . S
Cd67 O75 2.381 . S
Cd67 O76 2.378 . S
O68 Cd69 2.385 1_554 S
O68 C73 1.255 . S
Cd69 O68 2.385 1_556 S
Cd69 O70 2.317 . S
O70 Cd69 2.317 . S
O70 C71 1.232 . S
C71 O70 1.232 . S
C71 O72 1.218 . S
O72 C71 1.218 . S
C73 O66 1.275 . S
C73 O68 1.255 . S
C74 O75 1.258 . S
C74 O76 1.256 . S
O75 Cd67 2.381 . S
O75 C74 1.258 . S
O76 Cd67 2.378 . S
O76 C74 1.256 . S
O77 Cd78 2.300 . S
O77 C84 1.275 . S
Cd78 O77 2.300 . S
Cd78 O86 2.381 . S
Cd78 O87 2.378 . S
O79 Cd80 2.385 1_554 S
O79 C84 1.255 . S
Cd80 O79 2.385 1_556 S
Cd80 O81 2.317 . S
O81 Cd80 2.317 . S
O81 C82 1.232 . S
C82 O81 1.232 . S
C82 O83 1.218 . S
O83 C82 1.218 . S
C84 O77 1.275 . S
C84 O79 1.255 . S
C85 O86 1.258 . S
C85 O87 1.256 . S
O86 Cd78 2.381 . S
O86 C85 1.258 . S
O87 Cd78 2.378 . S
O87 C85 1.256 . S
Gd88 N119 2.661 . S
Gd88 N125 2.601 . S
Gd88 O132 2.545 . S
Gd88 O133 2.606 1_655 S
Gd88 O135 2.429 . S
Gd88 O136 2.545 1_655 S
Gd88 O137 2.412 . S
Gd88 O139 2.362 1_545 S
Gd88 O140 2.324 1_655 S
Gd88 C147 2.828 . S
Gd89 N98 2.661 1_565 S
Gd89 N102 2.607 . S
Gd89 O133 2.362 1_565 S
Gd89 O134 2.324 1_455 S
Gd89 O138 2.545 . S
Gd89 O139 2.606 1_455 S
Gd89 O141 2.429 . S
Gd89 O142 2.545 . S
Gd89 O143 2.412 . S
Gd89 C156 2.828 . S
C90 C93 1.417 . S
C90 C95 1.431 . S
C90 C96 1.412 . S
C91 C94 1.437 . S
C91 C95 1.317 . S
C91 H110 0.929 . S
C92 C93 1.426 . S
C92 C94 1.413 . S
C92 N102 1.347 1_545 S
C93 C90 1.417 . S
C93 C92 1.426 . S
C93 N98 1.350 . S
C94 C91 1.437 . S
C94 C92 1.413 . S
C94 C104 1.391 . S
C95 C90 1.431 . S
C95 C91 1.317 . S
C95 H106 0.930 1_556 S
C96 C90 1.412 . S
C96 C97 1.355 . S
C96 H108 0.930 1_556 S
C97 C96 1.355 . S
C97 C99 1.402 . S
C97 H109 0.930 1_455 S
N98 Gd89 2.661 1_545 S
N98 C93 1.350 . S
N98 C99 1.307 . S
C99 C97 1.402 . S
C99 N98 1.307 . S
C99 H100 0.930 1_455 S
H100 C99 0.930 1_655 S
C101 N102 1.345 . S
C101 C103 1.394 . S
C101 H105 0.930 . S
N102 Gd89 2.607 . S
N102 C92 1.347 1_565 S
N102 C101 1.345 . S
C103 C101 1.394 . S
C103 C104 1.359 1_565 S
C103 H115 0.930 . S
C104 C94 1.391 . S
C104 C103 1.359 1_545 S
C104 H116 0.929 . S
H105 C101 0.930 . S
H106 C95 0.930 1_554 S
H107 C124 0.930 . S
H108 C96 0.930 1_554 S
H109 C97 0.930 1_655 S
H110 C91 0.929 . S
H111 C129 0.930 . S
H112 C120 0.930 . S
H113 C121 0.930 . S
H114 C145 0.929 . S
H115 C103 0.930 . S
H116 C104 0.929 . S
H117 C146 0.930 . S
H118 C127 0.930 . S
N119 Gd88 2.661 . S
N119 C123 1.350 1_545 S
N119 C124 1.307 1_645 S
C120 H112 0.930 . S
C120 C121 1.355 1_655 S
C120 C122 1.412 . S
C121 H113 0.930 . S
C121 C120 1.355 1_455 S
C121 C124 1.402 . S
C122 C120 1.412 . S
C122 C123 1.417 . S
C122 C146 1.431 . S
C123 N119 1.350 1_565 S
C123 C122 1.417 . S
C123 C126 1.426 1_565 S
C124 H107 0.930 . S
C124 N119 1.307 1_465 S
C124 C121 1.402 . S
N125 Gd88 2.601 . S
N125 C126 1.359 . S
N125 C129 1.334 . S
C126 C123 1.426 1_545 S
C126 N125 1.359 . S
C126 C130 1.413 . S
C127 H118 0.930 . S
C127 C128 1.359 . S
C127 C129 1.394 . S
C128 C127 1.359 . S
C128 C130 1.391 . S
C128 H131 0.929 . S
C129 H111 0.930 . S
C129 N125 1.334 . S
C129 C127 1.394 . S
C130 C126 1.413 . S
C130 C128 1.391 . S
C130 C145 1.437 1_545 S
H131 C128 0.929 . S
O132 Gd88 2.545 . S
O132 C147 1.258 . S
O133 Gd88 2.606 1_455 S
O133 Gd89 2.362 1_545 S
O133 C144 1.284 . S
O134 Gd89 2.324 1_655 S
O134 C154 1.254 1_565 S
O135 Gd88 2.429 . S
O135 C154 1.268 . S
O136 Gd88 2.545 1_455 S
O136 C144 1.250 . S
O137 Gd88 2.412 . S
O137 C147 1.252 . S
O138 Gd89 2.545 . S
O138 C156 1.258 . S
O139 Gd88 2.362 1_565 S
O139 Gd89 2.606 1_655 S
O139 C155 1.284 . S
O140 Gd88 2.324 1_455 S
O140 C163 1.254 . S
O141 Gd89 2.429 . S
O141 C163 1.268 1_565 S
O142 Gd89 2.545 . S
O142 C155 1.250 1_455 S
O143 Gd89 2.412 . S
O143 C156 1.252 . S
C144 O133 1.284 . S
C144 O136 1.250 . S
C145 H114 0.929 . S
C145 C130 1.437 1_565 S
C145 C146 1.317 . S
C146 H117 0.930 . S
C146 C122 1.431 . S
C146 C145 1.317 . S
C147 Gd88 2.828 . S
C147 O132 1.258 . S
C147 O137 1.252 . S
C147 C148 1.497 . S
C148 C147 1.497 . S
C148 C149 1.395 . S
C148 C150 1.380 . S
C149 C148 1.395 . S
C149 C152 1.398 . S
C149 H164 0.930 . S
C150 C148 1.380 . S
C150 C151 1.391 . S
C150 H165 0.930 1_655 S
C151 C150 1.391 . S
C151 C153 1.387 . S
C152 C149 1.398 . S
C152 C153 1.380 . S
C152 H166 0.930 . S
C153 C151 1.387 . S
C153 C152 1.380 . S
C153 H167 0.930 . S
C154 O134 1.254 1_545 S
C154 O135 1.268 . S
C155 O139 1.284 . S
C155 O142 1.250 1_655 S
C156 Gd89 2.828 . S
C156 O138 1.258 . S
C156 O143 1.252 . S
C156 C157 1.497 . S
C157 C156 1.497 . S
C157 C158 1.395 . S
C157 C159 1.380 . S
C158 C157 1.395 . S
C158 C161 1.398 . S
C158 H168 0.930 . S
C159 C157 1.380 . S
C159 C160 1.391 . S
C159 H169 0.930 1_455 S
C160 C159 1.391 . S
C160 C162 1.387 . S
C161 C158 1.398 . S
C161 C162 1.380 . S
C161 H170 0.930 . S
C162 C160 1.387 . S
C162 C161 1.380 . S
C162 H171 0.930 . S
C163 O140 1.254 . S
C163 O141 1.268 1_545 S
H164 C149 0.930 . S
H165 C150 0.930 1_455 S
H166 C152 0.930 . S
H167 C153 0.930 . S
H168 C158 0.930 . S
H169 C159 0.930 1_655 S
H170 C161 0.930 . S
H171 C162 0.930 . S
Gd172 N203 2.661 . S
Gd172 N209 2.601 . S
Gd172 O216 2.545 . S
Gd172 O217 2.606 1_565 S
Gd172 O219 2.429 . S
Gd172 O220 2.545 1_565 S
Gd172 O221 2.409 1_565 S
Gd172 O223 2.362 . S
Gd172 O224 2.324 1_565 S
Gd172 C231 2.828 . S
Gd173 N182 2.661 . S
Gd173 N186 2.601 . S
Gd173 O217 2.362 . S
Gd173 O218 2.324 1_545 S
Gd173 O222 2.545 . S
Gd173 O223 2.606 1_545 S
Gd173 O225 2.429 . S
Gd173 O226 2.545 . S
Gd173 O227 2.412 . S
Gd173 C240 2.828 . S
C174 C177 1.417 . S
C174 C179 1.431 . S
C174 C180 1.412 . S
C175 C178 1.437 . S
C175 C179 1.317 . S
C175 H194 0.929 . S
C176 C177 1.426 . S
C176 C178 1.413 . S
C176 N186 1.359 . S
C177 C174 1.417 . S
C177 C176 1.426 . S
C177 N182 1.350 . S
C178 C175 1.437 . S
C178 C176 1.413 . S
C178 C188 1.391 . S
C179 C174 1.431 . S
C179 C175 1.317 . S
C179 H190 0.930 1_556 S
C180 C174 1.412 . S
C180 C181 1.355 . S
C180 H192 0.930 1_556 S
C181 C180 1.355 . S
C181 C183 1.402 . S
C181 H193 0.930 1_545 S
N182 Gd173 2.661 . S
N182 C177 1.350 . S
N182 C183 1.307 . S
C183 C181 1.402 . S
C183 N182 1.307 . S
C183 H184 0.930 1_545 S
H184 C183 0.930 1_565 S
C185 N186 1.334 . S
C185 C187 1.394 . S
C185 H189 0.930 . S
N186 Gd173 2.601 . S
N186 C176 1.359 . S
N186 C185 1.334 . S
C187 C185 1.394 . S
C187 C188 1.359 . S
C187 H199 0.930 . S
C188 C178 1.391 . S
C188 C187 1.359 . S
C188 H200 0.929 . S
H189 C185 0.930 . S
H190 C179 0.930 1_554 S
H191 C208 0.930 . S
H192 C180 0.930 1_554 S
H193 C181 0.930 1_565 S
H194 C175 0.929 . S
H195 C213 0.930 . S
H196 C204 0.930 . S
H197 C205 0.930 . S
H198 C229 0.929 . S
H199 C187 0.930 . S
H200 C188 0.929 . S
H201 C230 0.930 . S
H202 C211 0.930 . S
N203 Gd172 2.661 . S
N203 C207 1.350 . S
N203 C208 1.307 1_565 S
C204 H196 0.930 . S
C204 C205 1.355 1_565 S
C204 C206 1.412 . S
C205 H197 0.930 . S
C205 C204 1.355 1_545 S
C205 C208 1.402 . S
C206 C204 1.412 . S
C206 C207 1.417 . S
C206 C230 1.431 . S
C207 N203 1.350 . S
C207 C206 1.417 . S
C207 C210 1.426 . S
C208 H191 0.930 . S
C208 N203 1.307 1_545 S
C208 C205 1.402 . S
N209 Gd172 2.601 . S
N209 C210 1.359 . S
N209 C213 1.334 . S
C210 C207 1.426 . S
C210 N209 1.359 . S
C210 C214 1.413 . S
C211 H202 0.930 . S
C211 C212 1.359 . S
C211 C213 1.394 . S
C212 C211 1.359 . S
C212 C214 1.391 . S
C212 H215 0.929 . S
C213 H195 0.930 . S
C213 N209 1.334 . S
C213 C211 1.394 . S
C214 C210 1.413 . S
C214 C212 1.391 . S
C214 C229 1.437 . S
H215 C212 0.929 . S
O216 Gd172 2.545 . S
O216 C231 1.258 . S
O217 Gd172 2.606 1_545 S
O217 Gd173 2.362 . S
O217 C228 1.284 . S
O218 Gd173 2.324 1_565 S
O218 C238 1.254 . S
O219 Gd172 2.429 . S
O219 C238 1.268 . S
O220 Gd172 2.545 1_545 S
O220 C228 1.250 . S
O221 Gd172 2.409 1_545 S
O221 C231 1.237 1_545 S
O222 Gd173 2.545 . S
O222 C240 1.258 . S
O223 Gd172 2.362 . S
O223 Gd173 2.606 1_565 S
O223 C239 1.284 . S
O224 Gd172 2.324 1_545 S
O224 C247 1.254 . S
O225 Gd173 2.429 . S
O225 C247 1.268 . S
O226 Gd173 2.545 . S
O226 C239 1.250 1_545 S
O227 Gd173 2.412 . S
O227 C240 1.252 . S
C228 O217 1.284 . S
C228 O220 1.250 . S
C229 H198 0.929 . S
C229 C214 1.437 . S
C229 C230 1.317 . S
C230 H201 0.930 . S
C230 C206 1.431 . S
C230 C229 1.317 . S
C231 Gd172 2.828 . S
C231 O216 1.258 . S
C231 O221 1.237 1_565 S
C231 C232 1.497 . S
C232 C231 1.497 . S
C232 C233 1.395 . S
C232 C234 1.376 1_565 S
C233 C232 1.395 . S
C233 C236 1.398 . S
C233 H248 0.930 . S
C234 C232 1.376 1_545 S
C234 C235 1.391 1_545 S
C234 H249 0.935 . S
C235 C234 1.391 1_565 S
C235 C237 1.387 . S
C236 C233 1.398 . S
C236 C237 1.380 . S
C236 H250 0.930 . S
C237 C235 1.387 . S
C237 C236 1.380 . S
C237 H251 0.930 . S
C238 O218 1.254 . S
C238 O219 1.268 . S
C239 O223 1.284 . S
C239 O226 1.250 1_565 S
C240 Gd173 2.828 . S
C240 O222 1.258 . S
C240 O227 1.252 . S
C240 C241 1.497 . S
C241 C240 1.497 . S
C241 C242 1.395 . S
C241 C243 1.380 . S
C242 C241 1.395 . S
C242 C245 1.398 . S
C242 H252 0.930 . S
C243 C241 1.380 . S
C243 C244 1.391 . S
C243 H253 0.930 . S
C244 C243 1.391 . S
C244 C246 1.387 . S
C245 C242 1.398 . S
C245 C246 1.380 . S
C245 H254 0.930 . S
C246 C244 1.387 . S
C246 C245 1.380 . S
C246 H255 0.930 . S
C247 O224 1.254 . S
C247 O225 1.268 . S
H248 C233 0.930 . S
H249 C234 0.935 . S
H250 C236 0.930 . S
H251 C237 0.930 . S
H252 C242 0.930 . S
H253 C243 0.930 . S
H254 C245 0.930 . S
H255 C246 0.930 . S
Gd256 N287 2.661 . S
Gd256 N293 2.601 . S
Gd256 O300 2.545 . S
Gd256 O301 2.606 . S
Gd256 O303 2.429 . S
Gd256 O304 2.545 . S
Gd256 O305 2.412 . S
Gd256 O307 2.362 . S
Gd256 O308 2.324 . S
Gd256 C315 2.828 . S
Gd257 N266 2.661 . S
Gd257 N270 2.601 . S
Gd257 O301 2.362 . S
Gd257 O302 2.324 . S
Gd257 O306 2.545 . S
Gd257 O307 2.606 . S
Gd257 O309 2.429 . S
Gd257 O310 2.545 . S
Gd257 O311 2.412 . S
Gd257 C324 2.828 . S
C258 C261 1.417 . S
C258 C263 1.431 . S
C258 C264 1.412 . S
C259 C262 1.437 . S
C259 C263 1.317 . S
C259 H278 0.929 . S
C260 C261 1.426 . S
C260 C262 1.413 . S
C260 N270 1.359 . S
C261 C258 1.417 . S
C261 C260 1.426 . S
C261 N266 1.350 . S
C262 C259 1.437 . S
C262 C260 1.413 . S
C262 C272 1.391 . S
C263 C258 1.431 . S
C263 C259 1.317 . S
C263 H274 0.930 . S
C264 C258 1.412 . S
C264 C265 1.355 . S
C264 H276 0.930 . S
C265 C264 1.355 . S
C265 C267 1.402 . S
C265 H277 0.930 . S
N266 Gd257 2.661 . S
N266 C261 1.350 . S
N266 C267 1.307 . S
C267 C265 1.402 . S
C267 N266 1.307 . S
C267 H268 0.930 . S
H268 C267 0.930 . S
C269 N270 1.334 . S
C269 C271 1.394 . S
C269 H273 0.930 . S
N270 Gd257 2.601 . S
N270 C260 1.359 . S
N270 C269 1.334 . S
C271 C269 1.394 . S
C271 C272 1.359 . S
C271 H283 0.930 . S
C272 C262 1.391 . S
C272 C271 1.359 . S
C272 H284 0.929 . S
H273 C269 0.930 . S
H274 C263 0.930 . S
H275 C292 0.930 . S
H276 C264 0.930 . S
H277 C265 0.930 . S
H278 C259 0.929 . S
H279 C297 0.930 . S
H280 C288 0.930 . S
H281 C289 0.930 . S
H282 C313 0.929 . S
H283 C271 0.930 . S
H284 C272 0.929 . S
H285 C314 0.930 . S
H286 C295 0.930 . S
N287 Gd256 2.661 . S
N287 C291 1.350 . S
N287 C292 1.307 . S
C288 H280 0.930 . S
C288 C289 1.355 . S
C288 C290 1.412 . S
C289 H281 0.930 . S
C289 C288 1.355 . S
C289 C292 1.402 . S
C290 C288 1.412 . S
C290 C291 1.417 . S
C290 C314 1.431 . S
C291 N287 1.350 . S
C291 C290 1.417 . S
C291 C294 1.426 . S
C292 H275 0.930 . S
C292 N287 1.307 . S
C292 C289 1.402 . S
N293 Gd256 2.601 . S
N293 C294 1.359 . S
N293 C297 1.334 . S
C294 C291 1.426 . S
C294 N293 1.359 . S
C294 C298 1.413 . S
C295 H286 0.930 . S
C295 C296 1.359 . S
C295 C297 1.394 . S
C296 C295 1.359 . S
C296 C298 1.391 . S
C296 H299 0.929 . S
C297 H279 0.930 . S
C297 N293 1.334 . S
C297 C295 1.394 . S
C298 C294 1.413 . S
C298 C296 1.391 . S
C298 C313 1.437 . S
H299 C296 0.929 . S
O300 Gd256 2.545 . S
O300 C315 1.258 . S
O301 Gd256 2.606 . S
O301 Gd257 2.362 . S
O301 C312 1.284 . S
O302 Gd257 2.324 . S
O302 C322 1.254 . S
O303 Gd256 2.429 . S
O303 C322 1.268 . S
O304 Gd256 2.545 . S
O304 C312 1.250 . S
O305 Gd256 2.412 . S
O305 C315 1.252 . S
O306 Gd257 2.545 . S
O306 C324 1.258 . S
O307 Gd256 2.362 . S
O307 Gd257 2.606 . S
O307 C323 1.284 . S
O308 Gd256 2.324 . S
O308 C331 1.254 . S
O309 Gd257 2.429 . S
O309 C331 1.268 . S
O310 Gd257 2.545 . S
O310 C323 1.250 . S
O311 Gd257 2.412 . S
O311 C324 1.252 . S
C312 O301 1.284 . S
C312 O304 1.250 . S
C313 H282 0.929 . S
C313 C298 1.437 . S
C313 C314 1.317 . S
C314 H285 0.930 . S
C314 C290 1.431 . S
C314 C313 1.317 . S
C315 Gd256 2.828 . S
C315 O300 1.258 . S
C315 O305 1.252 . S
C315 C316 1.497 . S
C316 C315 1.497 . S
C316 C317 1.395 . S
C316 C318 1.380 . S
C317 C316 1.395 . S
C317 C320 1.398 1_556 S
C317 H332 0.930 . S
C318 C316 1.380 . S
C318 C319 1.391 . S
C318 H333 0.930 . S
C319 C318 1.391 . S
C319 C321 1.387 . S
C320 C317 1.398 1_554 S
C320 C321 1.380 1_554 S
C320 H334 0.930 . S
C321 C319 1.387 . S
C321 C320 1.380 1_556 S
C321 H335 0.930 1_556 S
C322 O302 1.254 . S
C322 O303 1.268 . S
C323 O307 1.284 . S
C323 O310 1.250 . S
C324 Gd257 2.828 . S
C324 O306 1.258 . S
C324 O311 1.252 . S
C324 C325 1.497 . S
C325 C324 1.497 . S
C325 C326 1.395 . S
C325 C327 1.380 . S
C326 C325 1.395 . S
C326 C329 1.398 . S
C326 H336 0.930 . S
C327 C325 1.380 . S
C327 C328 1.391 . S
C327 H337 0.930 . S
C328 C327 1.391 . S
C328 C330 1.387 . S
C329 C326 1.398 . S
C329 C330 1.380 . S
C329 H338 0.930 . S
C330 C328 1.387 . S
C330 C329 1.380 . S
C330 H339 0.930 . S
C331 O308 1.254 . S
C331 O309 1.268 . S
H332 C317 0.930 . S
H333 C318 0.930 . S
H334 C320 0.930 . S
H335 C321 0.930 1_554 S
H336 C326 0.930 . S
H337 C327 0.930 . S
H338 C329 0.930 . S
H339 C330 0.930 . S
Gd340 N371 2.661 . S
Gd340 N377 2.601 . S
Gd340 O384 2.545 . S
Gd340 O385 2.606 1_655 S
Gd340 O387 2.429 1_655 S
Gd340 O388 2.545 . S
Gd340 O389 2.412 . S
Gd340 O391 2.362 1_655 S
Gd340 O392 2.324 . S
Gd340 C399 2.828 . S
Gd341 N350 2.661 . S
Gd341 N354 2.601 . S
Gd341 O385 2.362 . S
Gd341 O386 2.324 . S
Gd341 O390 2.545 . S
Gd341 O391 2.606 . S
Gd341 O393 2.429 1_455 S
Gd341 O394 2.545 . S
Gd341 O395 2.412 . S
Gd341 C408 2.828 . S
C342 C345 1.417 . S
C342 C347 1.431 . S
C342 C348 1.412 . S
C343 C346 1.437 . S
C343 C347 1.317 . S
C343 H362 0.929 . S
C344 C345 1.426 . S
C344 C346 1.413 . S
C344 N354 1.359 . S
C345 C342 1.417 . S
C345 C344 1.426 . S
C345 N350 1.350 . S
C346 C343 1.437 . S
C346 C344 1.413 . S
C346 C356 1.391 . S
C347 C342 1.431 . S
C347 C343 1.317 . S
C347 H358 0.930 . S
C348 C342 1.412 . S
C348 C349 1.355 . S
C348 H360 0.930 . S
C349 C348 1.355 . S
C349 C351 1.402 . S
C349 H361 0.930 . S
N350 Gd341 2.661 . S
N350 C345 1.350 . S
N350 C351 1.307 . S
C351 C349 1.402 . S
C351 N350 1.307 . S
C351 H352 0.930 . S
H352 C351 0.930 . S
C353 N354 1.334 . S
C353 C355 1.399 . S
C353 H357 0.930 1_455 S
N354 Gd341 2.601 . S
N354 C344 1.359 . S
N354 C353 1.334 . S
C355 C353 1.399 . S
C355 C356 1.377 . S
C355 H367 0.909 1_455 S
C356 C346 1.391 . S
C356 C355 1.377 . S
C356 H368 0.929 . S
H357 C353 0.930 1_655 S
H358 C347 0.930 . S
H359 C376 0.930 . S
H360 C348 0.930 . S
H361 C349 0.930 . S
H362 C343 0.929 . S
H363 C381 0.930 . S
H364 C372 0.930 . S
H365 C373 0.930 . S
H366 C397 0.929 . S
H367 C355 0.909 1_655 S
H368 C356 0.929 . S
H369 C398 0.930 . S
H370 C379 0.930 . S
N371 Gd340 2.661 . S
N371 C375 1.350 . S
N371 C376 1.307 . S
C372 H364 0.930 . S
C372 C373 1.355 . S
C372 C374 1.412 . S
C373 H365 0.930 . S
C373 C372 1.355 . S
C373 C376 1.402 . S
C374 C372 1.412 . S
C374 C375 1.417 . S
C374 C398 1.431 . S
C375 N371 1.350 . S
C375 C374 1.417 . S
C375 C378 1.426 . S
C376 H359 0.930 . S
C376 N371 1.307 . S
C376 C373 1.402 . S
N377 Gd340 2.601 . S
N377 C378 1.359 . S
N377 C381 1.334 1_655 S
C378 C375 1.426 . S
C378 N377 1.359 . S
C378 C382 1.413 . S
C379 H370 0.930 . S
C379 C380 1.356 1_455 S
C379 C381 1.394 . S
C380 C379 1.356 1_655 S
C380 C382 1.395 . S
C380 H383 0.928 1_655 S
C381 H363 0.930 . S
C381 N377 1.334 1_455 S
C381 C379 1.394 . S
C382 C378 1.413 . S
C382 C380 1.395 . S
C382 C397 1.437 . S
H383 C380 0.928 1_455 S
O384 Gd340 2.545 . S
O384 C399 1.258 . S
O385 Gd340 2.606 1_455 S
O385 Gd341 2.362 . S
O385 C396 1.284 1_455 S
O386 Gd341 2.324 . S
O386 C406 1.254 . S
O387 Gd340 2.429 1_455 S
O387 C406 1.268 . S
O388 Gd340 2.545 . S
O388 C396 1.250 . S
O389 Gd340 2.412 . S
O389 C399 1.252 . S
O390 Gd341 2.545 . S
O390 C408 1.258 . S
O391 Gd340 2.362 1_455 S
O391 Gd341 2.606 . S
O391 C407 1.284 . S
O392 Gd340 2.324 . S
O392 C415 1.254 . S
O393 Gd341 2.429 1_655 S
O393 C415 1.268 . S
O394 Gd341 2.545 . S
O394 C407 1.250 . S
O395 Gd341 2.412 . S
O395 C408 1.252 . S
C396 O385 1.284 1_655 S
C396 O388 1.250 . S
C397 H366 0.929 . S
C397 C382 1.437 . S
C397 C398 1.317 . S
C398 H369 0.930 . S
C398 C374 1.431 . S
C398 C397 1.317 . S
C399 Gd340 2.828 . S
C399 O384 1.258 . S
C399 O389 1.252 . S
C399 C400 1.497 . S
C400 C399 1.497 . S
C400 C401 1.395 . S
C400 C402 1.380 . S
C401 C400 1.395 . S
C401 C404 1.398 1_556 S
C401 H416 0.930 . S
C402 C400 1.380 . S
C402 C403 1.391 . S
C402 H417 0.930 . S
C403 C402 1.391 . S
C403 C405 1.387 . S
C404 C401 1.398 1_554 S
C404 C405 1.380 1_554 S
C404 H418 0.930 . S
C405 C403 1.387 . S
C405 C404 1.380 1_556 S
C405 H419 0.930 1_556 S
C406 O386 1.254 . S
C406 O387 1.268 . S
C407 O391 1.284 . S
C407 O394 1.250 . S
C408 Gd341 2.828 . S
C408 O390 1.258 . S
C408 O395 1.252 . S
C408 C409 1.497 . S
C409 C408 1.497 . S
C409 C410 1.395 . S
C409 C411 1.380 . S
C410 C409 1.395 . S
C410 C413 1.398 . S
C410 H420 0.930 . S
C411 C409 1.380 . S
C411 C412 1.391 . S
C411 H421 0.930 . S
C412 C411 1.391 . S
C412 C414 1.387 . S
C413 C410 1.398 . S
C413 C414 1.380 . S
C413 H422 0.930 . S
C414 C412 1.387 . S
C414 C413 1.380 . S
C414 H423 0.930 . S
C415 O392 1.254 . S
C415 O393 1.268 . S
H416 C401 0.930 . S
H417 C402 0.930 . S
H418 C404 0.930 . S
H419 C405 0.930 1_554 S
H420 C410 0.930 . S
H421 C411 0.930 . S
H422 C413 0.930 . S
H423 C414 0.930 . S
H424 C432 0.950 . S
H425 C437 0.950 . S
H426 C434 0.950 . S
H427 C436 0.950 . S
H428 C438 0.950 . S
H429 C440 0.950 . S
H430 C442 0.950 . S
H431 C443 0.950 . S
C432 H424 0.950 . S
C432 C433 1.386 . S
C432 C434 1.391 . S
C433 C432 1.386 . S
C433 C437 1.393 . S
C434 H426 0.950 . S
C434 C432 1.391 . S
C434 C435 1.400 . S
C435 C434 1.400 . S
C435 C436 1.398 . S
C435 C441 1.491 . S
C436 H427 0.950 . S
C436 C435 1.398 . S
C436 C437 1.391 . S
C437 H425 0.950 . S
C437 C433 1.393 . S
C437 C436 1.391 . S
C438 H428 0.950 . S
C438 C439 1.386 . S
C438 C440 1.391 . S
C439 C438 1.386 . S
C439 C443 1.393 . S
C440 H429 0.950 . S
C440 C438 1.391 . S
C440 C441 1.400 . S
C441 C435 1.491 . S
C441 C440 1.400 . S
C441 C442 1.398 . S
C442 H430 0.950 . S
C442 C441 1.398 . S
C442 C443 1.391 . S
C443 H431 0.950 . S
C443 C439 1.393 . S
C443 C442 1.391 . S
H444 C452 0.950 . S
H445 C457 0.950 . S
H446 C454 0.950 . S
H447 C456 0.950 . S
H448 C458 0.950 . S
H449 C460 0.950 . S
H450 C462 0.950 . S
H451 C463 0.950 . S
C452 H444 0.950 . S
C452 C453 1.386 . S
C452 C454 1.391 . S
C453 C452 1.386 . S
C453 C457 1.393 . S
C454 H446 0.950 . S
C454 C452 1.391 . S
C454 C455 1.400 . S
C455 C454 1.400 . S
C455 C456 1.398 . S
C455 C461 1.491 . S
C456 H447 0.950 . S
C456 C455 1.398 . S
C456 C457 1.391 . S
C457 H445 0.950 . S
C457 C453 1.393 . S
C457 C456 1.391 . S
C458 H448 0.950 . S
C458 C459 1.386 . S
C458 C460 1.391 . S
C459 C458 1.386 . S
C459 C463 1.393 . S
C460 H449 0.950 . S
C460 C458 1.391 . S
C460 C461 1.400 . S
C461 C455 1.491 . S
C461 C460 1.400 . S
C461 C462 1.398 . S
C462 H450 0.950 . S
C462 C461 1.398 . S
C462 C463 1.391 . S
C463 H451 0.950 . S
C463 C459 1.393 . S
C463 C462 1.391 . S
H464 C472 0.950 . S
H465 C477 0.950 . S
H466 C474 0.950 . S
H467 C476 0.950 . S
H468 C478 0.950 . S
H469 C480 0.950 . S
H470 C482 0.950 . S
H471 C483 0.950 . S
C472 H464 0.950 . S
C472 C473 1.386 . S
C472 C474 1.391 . S
C473 C472 1.386 . S
C473 C477 1.393 . S
C474 H466 0.950 . S
C474 C472 1.391 . S
C474 C475 1.400 . S
C475 C474 1.400 . S
C475 C476 1.398 . S
C475 C481 1.491 . S
C476 H467 0.950 . S
C476 C475 1.398 . S
C476 C477 1.391 . S
C477 H465 0.950 . S
C477 C473 1.393 . S
C477 C476 1.391 . S
C478 H468 0.950 . S
C478 C479 1.386 . S
C478 C480 1.391 . S
C479 C478 1.386 . S
C479 C483 1.393 . S
C480 H469 0.950 . S
C480 C478 1.391 . S
C480 C481 1.400 . S
C481 C475 1.491 . S
C481 C480 1.400 . S
C481 C482 1.398 . S
C482 H470 0.950 . S
C482 C481 1.398 . S
C482 C483 1.391 . S
C483 H471 0.950 . S
C483 C479 1.393 . S
C483 C482 1.391 . S
H484 C492 0.950 . S
H485 C497 0.950 . S
H486 C494 0.950 . S
H487 C496 0.950 . S
H488 C498 0.950 . S
H489 C500 0.950 . S
H490 C502 0.950 . S
H491 C503 0.950 . S
C492 H484 0.950 . S
C492 C493 1.386 . S
C492 C494 1.391 . S
C493 C492 1.386 . S
C493 C497 1.393 . S
C494 H486 0.950 . S
C494 C492 1.391 . S
C494 C495 1.400 . S
C495 C494 1.400 . S
C495 C496 1.398 . S
C495 C501 1.491 . S
C496 H487 0.950 . S
C496 C495 1.398 . S
C496 C497 1.391 . S
C497 H485 0.950 . S
C497 C493 1.393 . S
C497 C496 1.391 . S
C498 H488 0.950 . S
C498 C499 1.386 . S
C498 C500 1.391 . S
C499 C498 1.386 . S
C499 C503 1.393 . S
C500 H489 0.950 . S
C500 C498 1.391 . S
C500 C501 1.400 . S
C501 C495 1.491 . S
C501 C500 1.400 . S
C501 C502 1.398 . S
C502 H490 0.950 . S
C502 C501 1.398 . S
C502 C503 1.391 . S
C503 H491 0.950 . S
C503 C499 1.393 . S
C503 C502 1.391 . S
H504 C512 0.950 . S
H505 C517 0.950 . S
H506 C514 0.917 1_545 S
H507 C516 0.950 1_556 S
H508 C518 0.950 . S
H509 C520 0.950 . S
H510 C522 0.929 1_545 S
H511 C523 0.950 . S
C512 H504 0.950 . S
C512 C513 1.386 . S
C512 C514 1.391 1_554 S
C513 C512 1.386 . S
C513 C517 1.393 . S
C514 H506 0.917 1_565 S
C514 C512 1.391 1_556 S
C514 C515 1.400 . S
C515 C514 1.400 . S
C515 C516 1.398 1_556 S
C515 C521 1.491 . S
C516 H507 0.950 1_554 S
C516 C515 1.398 1_554 S
C516 C517 1.391 . S
C517 H505 0.950 . S
C517 C513 1.393 . S
C517 C516 1.391 . S
C518 H508 0.950 . S
C518 C519 1.386 . S
C518 C520 1.391 . S
C519 C518 1.386 . S
C519 C523 1.393 1_565 S
C520 H509 0.950 . S
C520 C518 1.391 . S
C520 C521 1.400 . S
C521 C515 1.491 . S
C521 C520 1.400 . S
C521 C522 1.431 . S
C522 H510 0.929 1_565 S
C522 C521 1.431 . S
C522 C523 1.381 1_565 S
C523 H511 0.950 . S
C523 C519 1.393 1_545 S
C523 C522 1.381 1_545 S
H524 C532 0.950 . S
H525 C537 0.950 . S
H526 C534 0.950 . S
H527 C536 0.950 . S
H528 C538 0.950 . S
H529 C540 0.950 . S
H530 C542 0.950 . S
H531 C543 0.950 . S
C532 H524 0.950 . S
C532 C533 1.386 . S
C532 C534 1.391 1_554 S
C533 C532 1.386 . S
C533 C537 1.393 . S
C534 H526 0.950 . S
C534 C532 1.391 1_556 S
C534 C535 1.400 . S
C535 C534 1.400 . S
C535 C536 1.398 . S
C535 C541 1.491 . S
C536 H527 0.950 . S
C536 C535 1.398 . S
C536 C537 1.391 1_556 S
C537 H525 0.950 . S
C537 C533 1.393 . S
C537 C536 1.391 1_554 S
C538 H528 0.950 . S
C538 C539 1.386 . S
C538 C540 1.391 . S
C539 C538 1.386 . S
C539 C543 1.393 . S
C540 H529 0.950 . S
C540 C538 1.391 . S
C540 C541 1.400 . S
C541 C535 1.491 . S
C541 C540 1.400 . S
C541 C542 1.398 . S
C542 H530 0.950 . S
C542 C541 1.398 . S
C542 C543 1.391 . S
C543 H531 0.950 . S
C543 C539 1.393 . S
C543 C542 1.391 . S
H544 C552 0.950 . S
H545 C557 0.950 . S
H546 C554 0.950 . S
H547 C556 0.950 . S
H548 C558 0.950 . S
H549 C560 0.950 . S
H550 C562 0.950 . S
H551 C563 0.950 . S
C552 H544 0.950 . S
C552 C553 1.386 . S
C552 C554 1.391 1_554 S
C553 C552 1.386 . S
C553 C557 1.393 . S
C554 H546 0.950 . S
C554 C552 1.391 1_556 S
C554 C555 1.400 . S
C555 C554 1.400 . S
C555 C556 1.398 . S
C555 C561 1.491 . S
C556 H547 0.950 . S
C556 C555 1.398 . S
C556 C557 1.391 1_556 S
C557 H545 0.950 . S
C557 C553 1.393 . S
C557 C556 1.391 1_554 S
C558 H548 0.950 . S
C558 C559 1.386 . S
C558 C560 1.391 . S
C559 C558 1.386 . S
C559 C563 1.393 . S
C560 H549 0.950 . S
C560 C558 1.391 . S
C560 C561 1.400 . S
C561 C555 1.491 . S
C561 C560 1.400 . S
C561 C562 1.398 . S
C562 H550 0.950 . S
C562 C561 1.398 . S
C562 C563 1.391 . S
C563 H551 0.950 . S
C563 C559 1.393 . S
C563 C562 1.391 . S
H564 C572 0.950 . S
H565 C577 0.950 . S
H566 C574 0.950 . S
H567 C576 0.950 . S
H568 C578 0.950 . S
H569 C580 0.950 . S
H570 C582 0.950 1_455 S
H571 C583 0.950 . S
C572 H564 0.950 . S
C572 C573 1.386 . S
C572 C574 1.391 1_554 S
C573 C572 1.386 . S
C573 C577 1.393 . S
C574 H566 0.950 . S
C574 C572 1.391 1_556 S
C574 C575 1.400 . S
C575 C574 1.400 . S
C575 C576 1.398 . S
C575 C581 1.491 . S
C576 H567 0.950 . S
C576 C575 1.398 . S
C576 C577 1.391 1_556 S
C577 H565 0.950 . S
C577 C573 1.393 . S
C577 C576 1.391 1_554 S
C578 H568 0.950 . S
C578 C579 1.386 . S
C578 C580 1.391 . S
C579 C578 1.386 . S
C579 C583 1.393 1_655 S
C580 H569 0.950 . S
C580 C578 1.391 . S
C580 C581 1.400 . S
C581 C575 1.491 . S
C581 C580 1.400 . S
C581 C582 1.398 . S
C582 H570 0.950 1_655 S
C582 C581 1.398 . S
C582 C583 1.391 1_655 S
C583 H571 0.950 . S
C583 C579 1.393 1_455 S
C583 C582 1.391 1_455 S
H584 C592 0.950 . S
H585 C597 0.950 . S
H586 C594 0.950 . S
H587 C596 0.950 . S
H588 C598 0.950 . S
H589 C600 0.950 . S
H590 C602 0.950 . S
H591 C603 0.950 . S
C592 H584 0.950 . S
C592 C593 1.386 . S
C592 C594 1.391 . S
C593 C592 1.386 . S
C593 C597 1.393 . S
C594 H586 0.950 . S
C594 C592 1.391 . S
C594 C595 1.400 . S
C595 C594 1.400 . S
C595 C596 1.398 . S
C595 C601 1.491 . S
C596 H587 0.950 . S
C596 C595 1.398 . S
C596 C597 1.391 . S
C597 H585 0.950 . S
C597 C593 1.393 . S
C597 C596 1.391 . S
C598 H588 0.950 . S
C598 C599 1.386 . S
C598 C600 1.391 . S
C599 C598 1.386 . S
C599 C603 1.393 1_455 S
C600 H589 0.950 . S
C600 C598 1.391 . S
C600 C601 1.400 . S
C601 C595 1.491 . S
C601 C600 1.400 . S
C601 C602 1.398 . S
C602 H590 0.950 . S
C602 C601 1.398 . S
C602 C603 1.391 1_455 S
C603 H591 0.950 . S
C603 C599 1.393 1_655 S
C603 C602 1.391 1_655 S
H604 C612 0.950 . S
H605 C617 0.950 . S
H606 C614 0.950 . S
H607 C616 0.950 . S
H608 C618 0.950 1_565 S
H609 C620 0.950 . S
H610 C622 0.950 . S
H611 C623 0.950 . S
C612 H604 0.950 . S
C612 C613 1.386 . S
C612 C614 1.391 . S
C613 C612 1.386 . S
C613 C617 1.393 . S
C614 H606 0.950 . S
C614 C612 1.391 . S
C614 C615 1.400 . S
C615 C614 1.400 . S
C615 C616 1.398 . S
C615 C621 1.491 . S
C616 H607 0.950 . S
C616 C615 1.398 . S
C616 C617 1.391 . S
C617 H605 0.950 . S
C617 C613 1.393 . S
C617 C616 1.391 . S
C618 H608 0.950 1_545 S
C618 C619 1.386 . S
C618 C620 1.391 . S
C619 C618 1.386 . S
C619 C623 1.393 . S
C620 H609 0.950 . S
C620 C618 1.391 . S
C620 C621 1.400 . S
C621 C615 1.491 . S
C621 C620 1.400 . S
C621 C622 1.398 . S
C622 H610 0.950 . S
C622 C621 1.398 . S
C622 C623 1.391 . S
C623 H611 0.950 . S
C623 C619 1.393 . S
C623 C622 1.391 . S
H624 C632 0.950 . S
H625 C637 0.950 . S
H626 C634 0.950 . S
H627 C636 0.950 . S
H628 C638 0.950 . S
H629 C640 0.950 . S
H630 C642 0.950 . S
H631 C643 0.950 . S
C632 H624 0.950 . S
C632 C633 1.386 . S
C632 C634 1.391 . S
C633 C632 1.386 . S
C633 C637 1.393 . S
C634 H626 0.950 . S
C634 C632 1.391 . S
C634 C635 1.400 . S
C635 C634 1.400 . S
C635 C636 1.398 . S
C635 C641 1.491 . S
C636 H627 0.950 . S
C636 C635 1.398 . S
C636 C637 1.391 . S
C637 H625 0.950 . S
C637 C633 1.393 . S
C637 C636 1.391 . S
C638 H628 0.950 . S
C638 C639 1.386 . S
C638 C640 1.391 . S
C639 C638 1.386 . S
C639 C643 1.393 . S
C640 H629 0.950 . S
C640 C638 1.391 . S
C640 C641 1.400 . S
C641 C635 1.491 . S
C641 C640 1.400 . S
C641 C642 1.398 . S
C642 H630 0.950 . S
C642 C641 1.398 . S
C642 C643 1.391 . S
C643 H631 0.950 . S
C643 C639 1.393 . S
C643 C642 1.391 . S
H644 C652 0.950 . S
H645 C657 0.950 . S
H646 C654 0.950 . S
H647 C656 0.950 . S
H648 C658 0.950 . S
H649 C660 0.950 . S
H650 C662 0.950 . S
H651 C663 0.950 . S
C652 H644 0.950 . S
C652 C653 1.386 . S
C652 C654 1.391 . S
C653 C652 1.386 . S
C653 C657 1.393 . S
C654 H646 0.950 . S
C654 C652 1.391 . S
C654 C655 1.400 . S
C655 C654 1.400 . S
C655 C656 1.398 . S
C655 C661 1.491 . S
C656 H647 0.950 . S
C656 C655 1.398 . S
C656 C657 1.391 . S
C657 H645 0.950 . S
C657 C653 1.393 . S
C657 C656 1.391 . S
C658 H648 0.950 . S
C658 C659 1.386 . S
C658 C660 1.391 . S
C659 C658 1.386 . S
C659 C663 1.393 . S
C660 H649 0.950 . S
C660 C658 1.391 . S
C660 C661 1.400 . S
C661 C655 1.491 . S
C661 C660 1.400 . S
C661 C662 1.398 . S
C662 H650 0.950 . S
C662 C661 1.398 . S
C662 C663 1.391 . S
C663 H651 0.950 . S
C663 C659 1.393 . S
C663 C662 1.391 . S
H664 C672 0.950 . S
H665 C677 0.950 . S
H666 C674 0.950 . S
H667 C676 0.980 . S
H668 C678 0.950 . S
H669 C680 0.950 . S
H670 C682 0.950 . S
H671 C683 0.950 . S
C672 H664 0.950 . S
C672 C673 1.386 . S
C672 C674 1.391 . S
C673 C672 1.386 . S
C673 C677 1.393 . S
C674 H666 0.950 . S
C674 C672 1.391 . S
C674 C675 1.400 . S
C675 C674 1.400 . S
C675 C676 1.398 . S
C675 C681 1.491 1_554 S
C676 H667 0.980 . S
C676 C675 1.398 . S
C676 C677 1.391 . S
C677 H665 0.950 . S
C677 C673 1.393 . S
C677 C676 1.391 . S
C678 H668 0.950 . S
C678 C679 1.386 . S
C678 C680 1.391 . S
C679 C678 1.386 . S
C679 C683 1.393 1_455 S
C680 H669 0.950 . S
C680 C678 1.391 . S
C680 C681 1.400 1_455 S
C681 C675 1.491 1_556 S
C681 C680 1.400 1_655 S
C681 C682 1.398 . S
C682 H670 0.950 . S
C682 C681 1.398 . S
C682 C683 1.391 . S
C683 H671 0.950 . S
C683 C679 1.393 1_655 S
C683 C682 1.391 . S
H684 C692 0.950 . S
H685 C697 0.950 . S
H686 C694 0.950 1_556 S
H687 C696 0.950 . S
H688 C698 0.950 . S
H689 C700 0.950 . S
H690 C702 0.950 . S
H691 C703 0.950 . S
C692 H684 0.950 . S
C692 C693 1.386 . S
C692 C694 1.391 . S
C693 C692 1.386 . S
C693 C697 1.393 . S
C694 H686 0.950 1_554 S
C694 C692 1.391 . S
C694 C695 1.400 . S
C695 C694 1.400 . S
C695 C696 1.398 . S
C695 C701 1.491 1_554 S
C696 H687 0.950 . S
C696 C695 1.398 . S
C696 C697 1.391 . S
C697 H685 0.950 . S
C697 C693 1.393 . S
C697 C696 1.391 . S
C698 H688 0.950 . S
C698 C699 1.386 1_565 S
C698 C700 1.391 1_556 S
C699 C698 1.386 1_545 S
C699 C703 1.393 . S
C700 H689 0.950 . S
C700 C698 1.391 1_554 S
C700 C701 1.400 1_554 S
C701 C695 1.491 1_556 S
C701 C700 1.400 1_556 S
C701 C702 1.398 1_565 S
C702 H690 0.950 . S
C702 C701 1.398 1_545 S
C702 C703 1.391 . S
C703 H691 0.950 . S
C703 C699 1.393 . S
C703 C702 1.391 . S
H704 C712 0.950 . S
H705 C717 0.950 . S
H706 C714 0.950 1_556 S
H707 C716 0.950 . S
H708 C718 0.950 . S
H709 C720 0.950 . S
H710 C722 0.950 . S
H711 C723 0.950 . S
C712 H704 0.950 . S
C712 C713 1.386 . S
C712 C714 1.391 . S
C713 C712 1.386 . S
C713 C717 1.393 . S
C714 H706 0.950 1_554 S
C714 C712 1.391 . S
C714 C715 1.400 . S
C715 C714 1.400 . S
C715 C716 1.398 . S
C715 C721 1.491 1_554 S
C716 H707 0.950 . S
C716 C715 1.398 . S
C716 C717 1.391 . S
C717 H705 0.950 . S
C717 C713 1.393 . S
C717 C716 1.391 . S
C718 H708 0.950 . S
C718 C719 1.386 . S
C718 C720 1.391 1_556 S
C719 C718 1.386 . S
C719 C723 1.393 . S
C720 H709 0.950 . S
C720 C718 1.391 1_554 S
C720 C721 1.400 1_554 S
C721 C715 1.491 1_556 S
C721 C720 1.400 1_556 S
C721 C722 1.398 . S
C722 H710 0.950 . S
C722 C721 1.398 . S
C722 C723 1.391 . S
C723 H711 0.950 . S
C723 C719 1.393 . S
C723 C722 1.391 . S
H724 C732 0.950 1_556 S
H725 C737 0.950 . S
H726 C734 0.950 . S
H727 C736 0.950 . S
H728 C738 0.950 1_554 S
H729 C740 0.950 . S
H730 C742 0.950 . S
H731 C743 0.950 . S
C732 H724 0.950 1_554 S
C732 C733 1.386 . S
C732 C734 1.391 1_554 S
C733 C732 1.386 . S
C733 C737 1.393 . S
C734 H726 0.950 . S
C734 C732 1.391 1_556 S
C734 C735 1.400 1_556 S
C735 C734 1.400 1_554 S
C735 C736 1.398 . S
C735 C741 1.491 1_554 S
C736 H727 0.950 . S
C736 C735 1.398 . S
C736 C737 1.391 . S
C737 H725 0.950 . S
C737 C733 1.393 . S
C737 C736 1.391 . S
C738 H728 0.950 1_556 S
C738 C739 1.386 . S
C738 C740 1.391 1_556 S
C739 C738 1.386 . S
C739 C743 1.393 . S
C740 H729 0.950 . S
C740 C738 1.391 1_554 S
C740 C741 1.400 1_554 S
C741 C735 1.491 1_556 S
C741 C740 1.400 1_556 S
C741 C742 1.398 . S
C742 H730 0.950 . S
C742 C741 1.398 . S
C742 C743 1.391 . S
C743 H731 0.950 . S
C743 C739 1.393 . S
C743 C742 1.391 . S
H744 C752 0.950 . S
H745 C757 0.950 . S
H746 C754 0.950 . S
H747 C756 0.950 . S
H748 C758 0.950 . S
H749 C760 0.950 . S
H750 C762 0.950 . S
H751 C763 0.950 1_655 S
C752 H744 0.950 . S
C752 C753 1.386 . S
C752 C754 1.391 . S
C753 C752 1.386 . S
C753 C757 1.393 . S
C754 H746 0.950 . S
C754 C752 1.391 . S
C754 C755 1.400 . S
C755 C754 1.400 . S
C755 C756 1.398 . S
C755 C761 1.491 . S
C756 H747 0.950 . S
C756 C755 1.398 . S
C756 C757 1.391 . S
C757 H745 0.950 . S
C757 C753 1.393 . S
C757 C756 1.391 . S
C758 H748 0.950 . S
C758 C759 1.386 . S
C758 C760 1.391 . S
C759 C758 1.386 . S
C759 C763 1.393 . S
C760 H749 0.950 . S
C760 C758 1.391 . S
C760 C761 1.400 . S
C761 C755 1.491 . S
C761 C760 1.400 . S
C761 C762 1.398 . S
C762 H750 0.950 . S
C762 C761 1.398 . S
C762 C763 1.391 . S
C763 H751 0.950 1_455 S
C763 C759 1.393 . S
C763 C762 1.391 . S
H764 C772 0.950 . S
H765 C777 0.950 . S
H766 C774 0.950 . S
H767 C776 0.950 . S
H768 C778 0.950 . S
H769 C780 0.950 . S
H770 C782 0.950 . S
H771 C783 0.950 . S
C772 H764 0.950 . S
C772 C773 1.386 . S
C772 C774 1.391 . S
C773 C772 1.386 . S
C773 C777 1.393 . S
C774 H766 0.950 . S
C774 C772 1.391 . S
C774 C775 1.400 . S
C775 C774 1.400 . S
C775 C776 1.398 . S
C775 C781 1.491 . S
C776 H767 0.950 . S
C776 C775 1.398 . S
C776 C777 1.391 . S
C777 H765 0.950 . S
C777 C773 1.393 . S
C777 C776 1.391 . S
C778 H768 0.950 . S
C778 C779 1.386 . S
C778 C780 1.391 . S
C779 C778 1.386 . S
C779 C783 1.393 . S
C780 H769 0.950 . S
C780 C778 1.391 . S
C780 C781 1.400 . S
C781 C775 1.491 . S
C781 C780 1.400 . S
C781 C782 1.398 . S
C782 H770 0.950 . S
C782 C781 1.398 . S
C782 C783 1.391 . S
C783 H771 0.950 . S
C783 C779 1.393 . S
C783 C782 1.391 . S
H784 C792 0.950 . S
H785 C797 0.950 . S
H786 C794 0.950 . S
H787 C796 0.950 . S
H788 C798 0.950 . S
H789 C800 0.950 . S
H790 C802 0.950 . S
H791 C803 0.950 . S
C792 H784 0.950 . S
C792 C793 1.386 . S
C792 C794 1.391 . S
C793 C792 1.386 . S
C793 C797 1.393 . S
C794 H786 0.950 . S
C794 C792 1.391 . S
C794 C795 1.400 . S
C795 C794 1.400 . S
C795 C796 1.398 . S
C795 C801 1.491 . S
C796 H787 0.950 . S
C796 C795 1.398 . S
C796 C797 1.391 . S
C797 H785 0.950 . S
C797 C793 1.393 . S
C797 C796 1.391 . S
C798 H788 0.950 . S
C798 C799 1.386 . S
C798 C800 1.391 . S
C799 C798 1.386 . S
C799 C803 1.393 . S
C800 H789 0.950 . S
C800 C798 1.391 . S
C800 C801 1.400 . S
C801 C795 1.491 . S
C801 C800 1.400 . S
C801 C802 1.398 . S
C802 H790 0.950 . S
C802 C801 1.398 . S
C802 C803 1.391 . S
C803 H791 0.950 . S
C803 C799 1.393 . S
C803 C802 1.391 . S
H804 C812 0.950 . S
H805 C817 0.950 . S
H806 C814 0.950 . S
H807 C816 0.950 . S
H808 C818 0.950 . S
H809 C820 0.950 . S
H810 C822 0.950 . S
H811 C823 0.950 . S
C812 H804 0.950 . S
C812 C813 1.386 . S
C812 C814 1.391 . S
C813 C812 1.386 . S
C813 C817 1.393 . S
C814 H806 0.950 . S
C814 C812 1.391 . S
C814 C815 1.400 . S
C815 C814 1.400 . S
C815 C816 1.398 . S
C815 C821 1.491 . S
C816 H807 0.950 . S
C816 C815 1.398 . S
C816 C817 1.391 . S
C817 H805 0.950 . S
C817 C813 1.393 . S
C817 C816 1.391 . S
C818 H808 0.950 . S
C818 C819 1.386 . S
C818 C820 1.391 . S
C819 C818 1.386 . S
C819 C823 1.393 . S
C820 H809 0.950 . S
C820 C818 1.391 . S
C820 C821 1.400 . S
C821 C815 1.491 . S
C821 C820 1.400 . S
C821 C822 1.398 . S
C822 H810 0.950 . S
C822 C821 1.398 . S
C822 C823 1.391 . S
C823 H811 0.950 . S
C823 C819 1.393 . S
C823 C822 1.391 . S
H824 C832 0.950 . S
H825 C837 0.950 . S
H826 C834 0.950 . S
H827 C836 0.950 . S
H828 C838 0.950 . S
H829 C840 0.950 . S
H830 C842 0.950 . S
H831 C843 0.950 . S
C832 H824 0.950 . S
C832 C833 1.386 . S
C832 C834 1.391 . S
C833 C832 1.386 . S
C833 C837 1.393 . S
C834 H826 0.950 . S
C834 C832 1.391 . S
C834 C835 1.400 . S
C835 C834 1.400 . S
C835 C836 1.398 . S
C835 C841 1.491 . S
C836 H827 0.950 . S
C836 C835 1.398 . S
C836 C837 1.391 . S
C837 H825 0.950 . S
C837 C833 1.393 . S
C837 C836 1.391 . S
C838 H828 0.950 . S
C838 C839 1.386 . S
C838 C840 1.391 . S
C839 C838 1.386 . S
C839 C843 1.393 . S
C840 H829 0.950 . S
C840 C838 1.391 . S
C840 C841 1.400 . S
C841 C835 1.491 . S
C841 C840 1.400 . S
C841 C842 1.398 . S
C842 H830 0.950 . S
C842 C841 1.398 . S
C842 C843 1.391 . S
C843 H831 0.950 . S
C843 C839 1.393 . S
C843 C842 1.391 . S
H844 C852 0.950 . S
H845 C857 0.950 . S
H846 C854 0.969 . S
H847 C856 0.950 . S
H848 C858 0.950 . S
H849 C860 0.950 . S
H850 C862 0.950 1_545 S
H851 C863 0.950 . S
C852 H844 0.950 . S
C852 C853 1.386 . S
C852 C854 1.391 . S
C853 C852 1.386 . S
C853 C857 1.393 . S
C854 H846 0.969 . S
C854 C852 1.391 . S
C854 C855 1.400 . S
C855 C854 1.400 . S
C855 C856 1.398 . S
C855 C861 1.491 . S
C856 H847 0.950 . S
C856 C855 1.398 . S
C856 C857 1.391 . S
C857 H845 0.950 . S
C857 C853 1.393 . S
C857 C856 1.391 . S
C858 H848 0.950 . S
C858 C859 1.386 . S
C858 C860 1.391 . S
C859 C858 1.386 . S
C859 C863 1.393 1_565 S
C860 H849 0.950 . S
C860 C858 1.391 . S
C860 C861 1.400 . S
C861 C855 1.491 . S
C861 C860 1.400 . S
C861 C862 1.398 . S
C862 H850 0.950 1_565 S
C862 C861 1.398 . S
C862 C863 1.391 1_565 S
C863 H851 0.950 . S
C863 C859 1.393 1_545 S
C863 C862 1.391 1_545 S
H864 C872 0.950 . S
H865 C877 0.950 . S
H866 C874 0.950 . S
H867 C876 0.950 . S
H868 C878 0.950 . S
H869 C880 0.950 . S
H870 C882 0.950 . S
H871 C883 0.950 . S
C872 H864 0.950 . S
C872 C873 1.386 . S
C872 C874 1.391 . S
C873 C872 1.386 . S
C873 C877 1.393 . S
C874 H866 0.950 . S
C874 C872 1.391 . S
C874 C875 1.400 . S
C875 C874 1.400 . S
C875 C876 1.398 . S
C875 C881 1.491 . S
C876 H867 0.950 . S
C876 C875 1.398 . S
C876 C877 1.391 . S
C877 H865 0.950 . S
C877 C873 1.393 . S
C877 C876 1.391 . S
C878 H868 0.950 . S
C878 C879 1.386 . S
C878 C880 1.391 . S
C879 C878 1.386 . S
C879 C883 1.393 . S
C880 H869 0.950 . S
C880 C878 1.391 . S
C880 C881 1.400 . S
C881 C875 1.491 . S
C881 C880 1.400 . S
C881 C882 1.398 . S
C882 H870 0.950 . S
C882 C881 1.398 . S
C882 C883 1.391 . S
C883 H871 0.950 . S
C883 C879 1.393 . S
C883 C882 1.391 . S
H884 C892 0.950 . S
H885 C897 0.950 . S
H886 C894 0.950 . S
H887 C896 0.950 . S
H888 C898 0.950 . S
H889 C900 0.950 . S
H890 C902 0.950 . S
H891 C903 0.950 . S
C892 H884 0.950 . S
C892 C893 1.386 . S
C892 C894 1.391 . S
C893 C892 1.386 . S
C893 C897 1.393 . S
C894 H886 0.950 . S
C894 C892 1.391 . S
C894 C895 1.400 . S
C895 C894 1.400 . S
C895 C896 1.398 . S
C895 C901 1.491 . S
C896 H887 0.950 . S
C896 C895 1.398 . S
C896 C897 1.391 . S
C897 H885 0.950 . S
C897 C893 1.393 . S
C897 C896 1.391 . S
C898 H888 0.950 . S
C898 C899 1.386 . S
C898 C900 1.391 . S
C899 C898 1.386 . S
C899 C903 1.393 . S
C900 H889 0.950 . S
C900 C898 1.391 . S
C900 C901 1.400 . S
C901 C895 1.491 . S
C901 C900 1.400 . S
C901 C902 1.398 . S
C902 H890 0.950 . S
C902 C901 1.398 . S
C902 C903 1.391 . S
C903 H891 0.950 . S
C903 C899 1.393 . S
C903 C902 1.391 . S
C433 C74 1.855 . S
C439 C163 1.863 . S
C459 C247 1.893 . S
C453 C85 1.875 . S
C479 C323 1.867 . S
C473 C52 1.986 . S
C499 C407 1.835 . S
C493 C63 1.960 . S
C519 C154 1.884 1_565 S
C513 C30 1.816 . S
C533 C41 1.840 . S
C539 C238 1.907 . S
C553 C8 1.927 . S
C559 C312 1.872 . S
C573 C19 1.914 . S
C579 C396 1.855 . S
C599 C151 0.749 1_455 S
C593 C62 0.739 . S
C619 C235 0.722 1_545 S
C613 C73 0.683 . S
C639 C328 0.666 . S
C633 C84 0.654 . S
C653 C51 0.693 . S
C659 C412 0.719 . S
C673 C18 0.742 . S
C679 C160 0.743 . S
C699 C244 0.675 . S
C693 C29 0.737 . S
C719 C319 0.637 . S
C713 C40 0.707 . S
C733 C7 0.742 . S
C739 C403 0.680 . S
C753 C60 1.867 . S
C759 C144 2.078 . S
C773 C71 1.811 . S
C779 C228 2.032 . S
C799 C322 2.067 . S
C793 C82 1.758 . S
C819 C406 2.100 . S
C813 C49 1.783 . S
C833 C16 1.641 . S
C839 C155 2.056 . S
C859 C239 2.023 . S
C853 C27 1.611 . S
C879 C331 2.071 . S
C873 C38 1.501 . S
C893 C5 1.538 . S
C899 C415 2.095 . S
