# Generated by pormake.
# Topology pyr, (3,6)-cn, num edge types: 1
# Building blocks:
#     Node 0, Type 0, BuildingBlock: WUSLED_clean_sbu_0, # of connection points: 3
#     Node 1, Type 0, BuildingBlock: WUSLED_clean_sbu_0, # of connection points: 3
#     Node 2, Type 0, BuildingBlock: WUSLED_clean_sbu_0, # of connection points: 3
#     Node 3, Type 0, BuildingBlock: WUSLED_clean_sbu_0, # of connection points: 3
#     Node 4, Type 0, BuildingBlock: WUSLED_clean_sbu_0, # of connection points: 3
#     Node 5, Type 0, BuildingBlock: WUSLED_clean_sbu_0, # of connection points: 3
#     Node 6, Type 0, BuildingBlock: WUSLED_clean_sbu_0, # of connection points: 3
#     Node 7, Type 0, BuildingBlock: WUSLED_clean_sbu_0, # of connection points: 3
#     Node 8, Type 1, BuildingBlock: BETDAH_clean_sbu_0, # of connection points: 6
#     Node 9, Type 1, BuildingBlock: BETDAH_clean_sbu_0, # of connection points: 6
#     Node 10, Type 1, BuildingBlock: BETDAH_clean_sbu_0, # of connection points: 6
#     Node 11, Type 1, BuildingBlock: BETDAH_clean_sbu_0, # of connection points: 6
#     Edge 12, Type (0, 1), BuildingBlock: AJUNOK_clean_linker_0, # of connection points: 2
#     Edge 13, Type (0, 1), BuildingBlock: AJUNOK_clean_linker_0, # of connection points: 2
#     Edge 14, Type (0, 1), BuildingBlock: AJUNOK_clean_linker_0, # of connection points: 2
#     Edge 15, Type (0, 1), BuildingBlock: AJUNOK_clean_linker_0, # of connection points: 2
#     Edge 16, Type (0, 1), BuildingBlock: AJUNOK_clean_linker_0, # of connection points: 2
#     Edge 17, Type (0, 1), BuildingBlock: AJUNOK_clean_linker_0, # of connection points: 2
#     Edge 18, Type (0, 1), BuildingBlock: AJUNOK_clean_linker_0, # of connection points: 2
#     Edge 19, Type (0, 1), BuildingBlock: AJUNOK_clean_linker_0, # of connection points: 2
#     Edge 20, Type (0, 1), BuildingBlock: AJUNOK_clean_linker_0, # of connection points: 2
#     Edge 21, Type (0, 1), BuildingBlock: AJUNOK_clean_linker_0, # of connection points: 2
#     Edge 22, Type (0, 1), BuildingBlock: AJUNOK_clean_linker_0, # of connection points: 2
#     Edge 23, Type (0, 1), BuildingBlock: AJUNOK_clean_linker_0, # of connection points: 2
#     Edge 24, Type (0, 1), BuildingBlock: AJUNOK_clean_linker_0, # of connection points: 2
#     Edge 25, Type (0, 1), BuildingBlock: AJUNOK_clean_linker_0, # of connection points: 2
#     Edge 26, Type (0, 1), BuildingBlock: AJUNOK_clean_linker_0, # of connection points: 2
#     Edge 27, Type (0, 1), BuildingBlock: AJUNOK_clean_linker_0, # of connection points: 2
#     Edge 28, Type (0, 1), BuildingBlock: AJUNOK_clean_linker_0, # of connection points: 2
#     Edge 29, Type (0, 1), BuildingBlock: AJUNOK_clean_linker_0, # of connection points: 2
#     Edge 30, Type (0, 1), BuildingBlock: AJUNOK_clean_linker_0, # of connection points: 2
#     Edge 31, Type (0, 1), BuildingBlock: AJUNOK_clean_linker_0, # of connection points: 2
#     Edge 32, Type (0, 1), BuildingBlock: AJUNOK_clean_linker_0, # of connection points: 2
#     Edge 33, Type (0, 1), BuildingBlock: AJUNOK_clean_linker_0, # of connection points: 2
#     Edge 34, Type (0, 1), BuildingBlock: AJUNOK_clean_linker_0, # of connection points: 2
#     Edge 35, Type (0, 1), BuildingBlock: AJUNOK_clean_linker_0, # of connection points: 2
# Relax obj value: 0.114
# Max RMSD: 0.131
# Mean RMSD: 0.061
data_MOF--net-pyr--node1-WUSLED_clean_sbu_0--node2-BETDAH_clean_sbu_0--edge1-AJUNOK_clean_linker_0
_symmetry_space_group_name_H-M    P1
_symmetry_Int_Tables_number       1
_symmetry_cell_setting            triclinic
loop_
_symmetry_equiv_pos_as_xyz
'x, y, z'
_cell_length_a     39.294061
_cell_length_b     42.179191
_cell_length_c     38.329618
_cell_angle_alpha  91.194792
_cell_angle_beta   89.19513
_cell_angle_gamma 101.0813
loop_
_atom_site_label
_atom_site_type_symbol
_atom_site_fract_x
_atom_site_fract_y
_atom_site_fract_z
_atom_type_partial_charge
C0 C 0.32169 0.36591 0.19669 0.0
C1 C 0.29717 0.36826 0.22312 0.0
C2 C 0.27038 0.40334 0.18653 0.0
C3 C 0.27169 0.38699 0.2181 0.0
C4 C 0.29549 0.40104 0.16059 0.0
C5 C 0.32093 0.38279 0.16577 0.0
U6 U 0.36636 0.29622 0.23032 0.0
O7 O 0.37547 0.25891 0.1927 0.0
O8 O 0.4201 0.28924 0.21925 0.0
C9 C 0.40927 0.26667 0.1955 0.0
C10 C 0.34563 0.34316 0.19768 0.0
C11 C 0.42938 0.24167 0.18636 0.0
C12 C 0.45335 0.2135 0.13903 0.0
C13 C 0.43803 0.23881 0.15105 0.0
C14 C 0.45294 0.19368 0.19792 0.0
C15 C 0.46113 0.19059 0.16218 0.0
C16 C 0.43702 0.2191 0.20999 0.0
C17 C 0.32363 0.2632 0.32307 0.0
C18 C 0.29825 0.21621 0.35652 0.0
C19 C 0.28786 0.26911 0.37403 0.0
C20 C 0.30918 0.28293 0.34665 0.0
C21 C 0.2813 0.2355 0.37843 0.0
C22 C 0.31904 0.22995 0.32882 0.0
C23 C 0.3388 0.27645 0.29005 0.0
O24 O 0.37125 0.34839 0.22008 0.0
O25 O 0.33143 0.31256 0.19369 0.0
O26 O 0.32592 0.26442 0.26008 0.0
O27 O 0.36709 0.29889 0.28826 0.0
H28 H 0.29707 0.35494 0.24699 0.0
H29 H 0.25258 0.3881 0.23849 0.0
H30 H 0.29459 0.4121 0.13547 0.0
H31 H 0.33919 0.38067 0.14478 0.0
H32 H 0.45796 0.2113 0.11124 0.0
H33 H 0.43174 0.25568 0.13233 0.0
H34 H 0.45844 0.17624 0.21634 0.0
H35 H 0.43008 0.2207 0.23733 0.0
H36 H 0.29316 0.19018 0.359 0.0
H37 H 0.27484 0.28438 0.39046 0.0
H38 H 0.31233 0.30865 0.34241 0.0
H39 H 0.32994 0.21439 0.31077 0.0
C40 C 0.19073 0.88009 0.59872 0.0
C41 C 0.18881 0.90199 0.62652 0.0
C42 C 0.14888 0.92601 0.59395 0.0
C43 C 0.16813 0.92505 0.62404 0.0
C44 C 0.14936 0.90322 0.56681 0.0
C45 C 0.17052 0.88034 0.56908 0.0
U46 U 0.26827 0.87241 0.64391 0.0
O47 O 0.32152 0.87168 0.62671 0.0
O48 O 0.29339 0.83312 0.66017 0.0
C49 C 0.32131 0.84372 0.64121 0.0
C50 C 0.21843 0.86172 0.59906 0.0
C51 C 0.33295 0.81987 0.61849 0.0
C52 C 0.32107 0.77136 0.58235 0.0
C53 C 0.30922 0.79603 0.60075 0.0
C54 C 0.38036 0.79616 0.59673 0.0
C55 C 0.35662 0.77098 0.58112 0.0
C56 C 0.36853 0.82044 0.61552 0.0
C57 C 0.29416 0.92527 0.71923 0.0
C58 C 0.34577 0.91484 0.74705 0.0
C59 C 0.31753 0.95786 0.76884 0.0
C60 C 0.29272 0.95072 0.74275 0.0
C61 C 0.34376 0.93962 0.77123 0.0
C62 C 0.321 0.90767 0.72113 0.0
C63 C 0.26788 0.91608 0.69273 0.0
O64 O 0.24886 0.87964 0.59194 0.0
O65 O 0.21837 0.84371 0.62671 0.0
O66 O 0.25054 0.88629 0.69555 0.0
O67 O 0.27907 0.92336 0.6609 0.0
H68 H 0.20479 0.90239 0.64933 0.0
H69 H 0.16813 0.94279 0.64491 0.0
H70 H 0.13468 0.90419 0.54327 0.0
H71 H 0.17236 0.86403 0.54724 0.0
H72 H 0.30254 0.75171 0.57082 0.0
H73 H 0.2816 0.79569 0.6025 0.0
H74 H 0.40785 0.79569 0.59659 0.0
H75 H 0.38702 0.83888 0.62897 0.0
H76 H 0.36571 0.90044 0.74898 0.0
H77 H 0.31586 0.97705 0.78766 0.0
H78 H 0.27221 0.96452 0.74134 0.0
H79 H 0.32232 0.88793 0.70297 0.0
C80 C 0.63326 0.41313 0.77981 0.0
C81 C 0.65516 0.43983 0.76432 0.0
C82 C 0.60946 0.44816 0.72283 0.0
C83 C 0.64352 0.45691 0.7364 0.0
C84 C 0.58798 0.42121 0.73833 0.0
C85 C 0.59955 0.40429 0.76606 0.0
U86 U 0.67631 0.37045 0.86178 0.0
O87 O 0.64177 0.34004 0.89991 0.0
O88 O 0.67137 0.31657 0.86145 0.0
C89 C 0.64877 0.31272 0.88739 0.0
C90 C 0.64425 0.39324 0.8092 0.0
C91 C 0.63586 0.28051 0.90506 0.0
C92 C 0.59652 0.22721 0.9058 0.0
C93 C 0.60961 0.2571 0.88964 0.0
C94 C 0.63582 0.24251 0.95346 0.0
C95 C 0.60923 0.21902 0.93814 0.0
C96 C 0.64876 0.27262 0.93731 0.0
C97 C 0.76686 0.41757 0.9089 0.0
C98 C 0.81544 0.41013 0.94621 0.0
C99 C 0.81335 0.46318 0.92543 0.0
C100 C 0.78206 0.45062 0.90809 0.0
C101 C 0.83126 0.44325 0.94436 0.0
C102 C 0.78391 0.39744 0.92856 0.0
C103 C 0.73442 0.40566 0.88769 0.0
O104 O 0.66904 0.37653 0.80476 0.0
O105 O 0.63769 0.39861 0.84231 0.0
O106 O 0.70333 0.40758 0.89965 0.0
O107 O 0.73392 0.38379 0.86264 0.0
H108 H 0.68133 0.44759 0.77378 0.0
H109 H 0.66122 0.47734 0.72566 0.0
H110 H 0.56207 0.41258 0.72861 0.0
H111 H 0.58189 0.38374 0.77665 0.0
H112 H 0.57633 0.21029 0.89264 0.0
H113 H 0.59882 0.26204 0.86493 0.0
H114 H 0.64616 0.2381 0.97853 0.0
H115 H 0.66885 0.28987 0.95023 0.0
H116 H 0.8279 0.39379 0.96061 0.0
H117 H 0.82348 0.48887 0.92398 0.0
H118 H 0.7698 0.46698 0.89347 0.0
H119 H 0.77309 0.37187 0.93003 0.0
C120 C 0.78968 0.64819 0.41892 0.0
C121 C 0.77415 0.66938 0.44014 0.0
C122 C 0.72647 0.62493 0.45826 0.0
C123 C 0.74326 0.65787 0.45972 0.0
C124 C 0.74276 0.60395 0.43764 0.0
C125 C 0.77353 0.61531 0.41851 0.0
U126 U 0.87799 0.69692 0.37025 0.0
O127 O 0.9175 0.67145 0.34596 0.0
O128 O 0.88571 0.69488 0.31231 0.0
C129 C 0.91124 0.67888 0.31383 0.0
C130 C 0.82096 0.65875 0.39515 0.0
C131 C 0.92131 0.65938 0.28253 0.0
C132 C 0.91829 0.60941 0.24677 0.0
C133 C 0.90692 0.62656 0.27577 0.0
C134 C 0.95865 0.65714 0.2301 0.0
C135 C 0.9449 0.62411 0.22339 0.0
C136 C 0.94718 0.67424 0.2589 0.0
C137 C 0.91635 0.78669 0.41744 0.0
C138 C 0.96128 0.83619 0.42318 0.0
C139 C 0.90907 0.83126 0.45786 0.0
C140 C 0.89672 0.8003 0.44267 0.0
C141 C 0.94142 0.8503 0.44807 0.0
C142 C 0.94903 0.80507 0.40824 0.0
C143 C 0.90245 0.75407 0.40027 0.0
O144 O 0.82064 0.68114 0.37186 0.0
O145 O 0.85248 0.65768 0.40555 0.0
O146 O 0.91246 0.72732 0.40903 0.0
O147 O 0.87904 0.74995 0.37559 0.0
H148 H 0.78559 0.69486 0.44129 0.0
H149 H 0.73198 0.67499 0.4753 0.0
H150 H 0.73169 0.57839 0.43623 0.0
H151 H 0.78453 0.59815 0.40267 0.0
H152 H 0.90585 0.58444 0.24262 0.0
H153 H 0.88687 0.61405 0.29294 0.0
H154 H 0.97909 0.66981 0.21347 0.0
H155 H 0.95912 0.69938 0.263 0.0
H156 H 0.98624 0.84951 0.4146 0.0
H157 H 0.89317 0.84005 0.47771 0.0
H158 H 0.87164 0.78688 0.4508 0.0
H159 H 0.96502 0.79557 0.38896 0.0
C160 C 0.73199 0.71966 0.86918 0.0
C161 C 0.7544 0.70936 0.84452 0.0
C162 C 0.7792 0.68079 0.88973 0.0
C163 C 0.77774 0.68997 0.85468 0.0
C164 C 0.7557 0.69038 0.91395 0.0
C165 C 0.73229 0.70944 0.90372 0.0
U166 U 0.67967 0.78907 0.83937 0.0
O167 O 0.62653 0.78902 0.85986 0.0
O168 O 0.67162 0.82043 0.88369 0.0
C169 C 0.63787 0.81086 0.88417 0.0
C170 C 0.71154 0.74433 0.86104 0.0
C171 C 0.61775 0.83607 0.89328 0.0
C172 C 0.592 0.86331 0.94032 0.0
C173 C 0.60647 0.83748 0.92798 0.0
C174 C 0.59839 0.8866 0.88287 0.0
C175 C 0.58766 0.88828 0.91807 0.0
C176 C 0.61349 0.86071 0.87055 0.0
C177 C 0.71779 0.81989 0.7483 0.0
C178 C 0.73562 0.85074 0.69614 0.0
C179 C 0.77673 0.8249 0.72574 0.0
C180 C 0.75087 0.81193 0.74988 0.0
C181 C 0.76975 0.84608 0.70013 0.0
C182 C 0.70981 0.83765 0.72003 0.0
C183 C 0.69444 0.81722 0.77899 0.0
O184 O 0.72448 0.77526 0.86501 0.0
O185 O 0.68244 0.73729 0.84343 0.0
O186 O 0.67056 0.79093 0.7825 0.0
O187 O 0.70914 0.82825 0.80852 0.0
H188 H 0.75473 0.71727 0.81779 0.0
H189 H 0.79539 0.68298 0.83533 0.0
H190 H 0.7566 0.68469 0.94129 0.0
H191 H 0.7155 0.71754 0.92326 0.0
H192 H 0.58546 0.86424 0.9678 0.0
H193 H 0.61025 0.81913 0.94614 0.0
H194 H 0.59558 0.90552 0.86508 0.0
H195 H 0.62259 0.86037 0.84377 0.0
H196 H 0.72974 0.86711 0.67668 0.0
H197 H 0.80295 0.82113 0.72934 0.0
H198 H 0.75756 0.79825 0.7715 0.0
H199 H 0.68451 0.84413 0.71839 0.0
C200 C 0.71695 0.20268 0.3641 0.0
C201 C 0.7394 0.18314 0.35054 0.0
C202 C 0.69326 0.15479 0.31406 0.0
C203 C 0.72767 0.15949 0.32524 0.0
C204 C 0.67082 0.17405 0.32789 0.0
C205 C 0.68265 0.19797 0.35279 0.0
U206 U 0.77591 0.22409 0.43895 0.0
O207 O 0.79994 0.26934 0.4656 0.0
O208 O 0.76426 0.23192 0.49417 0.0
C209 C 0.78046 0.26219 0.49365 0.0
C210 C 0.72776 0.22489 0.39324 0.0
C211 C 0.7577 0.28474 0.50193 0.0
C212 C 0.70875 0.30774 0.48509 0.0
C213 C 0.73256 0.2882 0.47745 0.0
C214 C 0.73506 0.32095 0.54184 0.0
C215 C 0.70991 0.32417 0.51722 0.0
C216 C 0.75888 0.30095 0.53427 0.0
C217 C 0.83829 0.16982 0.45678 0.0
C218 C 0.89565 0.17593 0.48147 0.0
C219 C 0.8512 0.12936 0.49542 0.0
C220 C 0.82785 0.14098 0.47488 0.0
C221 C 0.88555 0.1459 0.49728 0.0
C222 C 0.87195 0.18801 0.46134 0.0
C223 C 0.81359 0.17998 0.43329 0.0
O224 O 0.72148 0.21119 0.42367 0.0
O225 O 0.75891 0.24304 0.39048 0.0
O226 O 0.82296 0.20855 0.41908 0.0
O227 O 0.78141 0.17405 0.44485 0.0
H228 H 0.76578 0.18598 0.35974 0.0
H229 H 0.74532 0.14497 0.31436 0.0
H230 H 0.64437 0.17102 0.31884 0.0
H231 H 0.66496 0.2125 0.36355 0.0
H232 H 0.68972 0.31047 0.46572 0.0
H233 H 0.73124 0.27557 0.45245 0.0
H234 H 0.73629 0.33393 0.5666 0.0
H235 H 0.77798 0.29809 0.55346 0.0
H236 H 0.92232 0.18873 0.48264 0.0
H237 H 0.84327 0.10586 0.50711 0.0
H238 H 0.802 0.12663 0.47199 0.0
H239 H 0.88045 0.21067 0.44816 0.0
C240 C 0.2786 0.67352 0.18584 0.0
C241 C 0.27381 0.68618 0.15281 0.0
C242 C 0.21712 0.64883 0.14505 0.0
C243 C 0.24354 0.67414 0.13283 0.0
C244 C 0.22215 0.63682 0.17834 0.0
C245 C 0.25203 0.64888 0.19816 0.0
U246 U 0.3703 0.7179 0.23218 0.0
O247 O 0.37923 0.71195 0.28889 0.0
O248 O 0.40902 0.68919 0.25048 0.0
C249 C 0.40351 0.69474 0.28377 0.0
C250 C 0.31103 0.68333 0.20773 0.0
C251 C 0.41475 0.67461 0.31292 0.0
C252 C 0.40357 0.63743 0.36302 0.0
C253 C 0.39147 0.65457 0.3354 0.0
C254 C 0.46246 0.65977 0.34694 0.0
C255 C 0.43946 0.63942 0.36936 0.0
C256 C 0.45043 0.67681 0.31954 0.0
C257 C 0.41097 0.80698 0.18721 0.0
C258 C 0.45725 0.85464 0.17734 0.0
C259 C 0.40451 0.84876 0.14466 0.0
C260 C 0.39129 0.81931 0.16203 0.0
C261 C 0.43801 0.86706 0.15172 0.0
C262 C 0.44405 0.8254 0.19463 0.0
C263 C 0.39838 0.77491 0.20524 0.0
O264 O 0.34178 0.68163 0.1947 0.0
O265 O 0.31245 0.70469 0.23343 0.0
O266 O 0.37583 0.77163 0.23124 0.0
O267 O 0.40508 0.74733 0.19321 0.0
H268 H 0.29364 0.70505 0.14218 0.0
H269 H 0.24145 0.68405 0.10731 0.0
H270 H 0.20279 0.61777 0.18935 0.0
H271 H 0.25461 0.63835 0.2233 0.0
H272 H 0.38465 0.62224 0.37927 0.0
H273 H 0.36381 0.65211 0.3317 0.0
H274 H 0.49015 0.66312 0.35091 0.0
H275 H 0.4694 0.6923 0.30357 0.0
H276 H 0.48288 0.86764 0.18415 0.0
H277 H 0.38875 0.85665 0.1249 0.0
H278 H 0.3658 0.80592 0.15533 0.0
H279 H 0.46007 0.81699 0.21383 0.0
C280 C 0.13308 0.2998 0.66848 0.0
C281 C 0.15546 0.28422 0.64827 0.0
C282 C 0.10895 0.23656 0.63626 0.0
C283 C 0.14368 0.25336 0.63247 0.0
C284 C 0.08669 0.25231 0.65675 0.0
C285 C 0.09844 0.28326 0.67231 0.0
U286 U 0.17403 0.38965 0.71438 0.0
O287 O 0.13675 0.41798 0.73804 0.0
O288 O 0.16705 0.39347 0.77239 0.0
C289 C 0.14279 0.4109 0.77034 0.0
C290 C 0.14559 0.33238 0.68653 0.0
C291 C 0.1317 0.42996 0.80151 0.0
C292 C 0.09389 0.43133 0.85373 0.0
C293 C 0.10606 0.41453 0.82506 0.0
C294 C 0.1326 0.47999 0.83673 0.0
C295 C 0.10654 0.46457 0.86015 0.0
C296 C 0.14493 0.46308 0.80807 0.0
C297 C 0.26468 0.43609 0.66636 0.0
C298 C 0.31233 0.48052 0.64911 0.0
C299 C 0.31414 0.42614 0.63008 0.0
C300 C 0.28202 0.41475 0.64751 0.0
C301 C 0.33051 0.45926 0.63119 0.0
C302 C 0.28026 0.46918 0.66627 0.0
C303 C 0.23229 0.42516 0.68858 0.0
O304 O 0.16975 0.33633 0.71046 0.0
O305 O 0.13744 0.35963 0.67659 0.0
O306 O 0.20116 0.42729 0.67782 0.0
O307 O 0.23157 0.40286 0.71219 0.0
H308 H 0.18231 0.29588 0.64476 0.0
H309 H 0.16229 0.24236 0.61788 0.0
H310 H 0.05984 0.2408 0.66057 0.0
H311 H 0.08033 0.29416 0.68781 0.0
H312 H 0.07373 0.41832 0.87045 0.0
H313 H 0.09488 0.38921 0.821 0.0
H314 H 0.14361 0.50537 0.84057 0.0
H315 H 0.16471 0.47605 0.79092 0.0
H316 H 0.32348 0.50604 0.65094 0.0
H317 H 0.32625 0.40879 0.61581 0.0
H318 H 0.27101 0.38916 0.64659 0.0
H319 H 0.26798 0.48645 0.68053 0.0
Ho320 Ho 0.04183 0.05334 0.50599 0.0
Ho321 Ho 1.00703 1.03174 0.57536 0.0
C322 C 0.05599 0.10455 0.57297 0.0
C323 C 0.06803 0.08233 0.45032 0.0
C324 C 0.09897 0.10755 0.44369 0.0
C325 C 0.09843 0.14045 0.44945 0.0
C326 C 0.12856 0.16373 0.44473 0.0
C327 C 0.15982 0.15453 0.43455 0.0
C328 C 0.16006 0.1217 0.42798 0.0
C329 C 0.12999 0.0985 0.43241 0.0
C330 C 0.07492 1.01725 0.54468 0.0
C331 C 0.99481 0.98229 0.50876 0.0
C332 C 0.98278 1.00875 0.63389 0.0
C333 C 0.95058 0.98475 0.64059 0.0
C334 C 0.9525 0.95342 0.65113 0.0
C335 C 0.92228 0.93016 0.65604 0.0
C336 C 0.88954 0.93786 0.65078 0.0
C337 C 0.88762 0.96882 0.63911 0.0
C338 C 0.91775 0.99202 0.63412 0.0
C339 C 0.96594 0.05226 0.52813 0.0
O340 O 0.06355 0.09786 0.53988 0.0
O341 O 0.03535 0.08249 0.5922 0.0
O342 O 0.07448 0.05476 0.46031 0.0
O343 O 0.04221 0.09071 0.46778 0.0
O344 O 0.07437 1.01574 0.51107 0.0
O345 O 0.06029 1.03914 0.55634 0.0
O346 O 0.99998 0.98484 0.54294 0.0
O347 O 1.00277 1.00833 0.48903 0.0
O348 O 0.97884 1.03716 0.62319 0.0
O349 O 1.0074 0.99776 0.61681 0.0
O350 O 0.95531 1.0292 0.54968 0.0
O351 O 0.99699 0.06342 0.53427 0.0
H352 H 0.07485 0.14823 0.45784 0.0
H353 H 0.12748 0.18895 0.44921 0.0
H354 H 0.18332 0.11394 0.41857 0.0
H355 H 0.1311 0.07339 0.42709 0.0
H356 H 0.97742 0.94695 0.65568 0.0
H357 H 0.92446 0.90648 0.66508 0.0
H358 H 0.8627 0.97523 0.63436 0.0
H359 H 0.91519 1.01564 0.62519 0.0
Ho360 Ho 0.55459 0.03931 0.05452 0.0
Ho361 Ho 0.49538 0.04091 1.02586 0.0
C362 C 0.50393 0.08046 0.09363 0.0
C363 C 0.61141 0.04985 0.08926 0.0
C364 C 0.61872 0.06194 0.12502 0.0
C365 C 0.61574 0.09361 0.13469 0.0
C366 C 0.62408 0.10512 0.1683 0.0
C367 C 0.63533 0.08515 0.19265 0.0
C368 C 0.63608 0.05292 0.18388 0.0
C369 C 0.62792 0.04138 0.1501 0.0
C370 C 0.50734 0.98496 0.07414 0.0
C371 C 0.54556 0.99927 0.98731 0.0
C372 C 0.44003 1.02875 0.98924 0.0
C373 C 0.43483 1.01147 0.95559 0.0
C374 C 0.43553 0.97827 0.95279 0.0
C375 C 0.43052 0.96232 0.92059 0.0
C376 C 0.42486 0.9794 0.89096 0.0
C377 C 0.42686 1.0129 0.89322 0.0
C378 C 0.43157 1.02881 0.9254 0.0
C379 C 0.5419 0.09618 1.00811 0.0
O380 O 0.53637 0.07839 0.08712 0.0
O381 O 0.4794 0.06253 0.07537 0.0
O382 O 0.59147 1.02156 0.08654 0.0
O383 O 0.60346 0.07022 0.06713 0.0
O384 O 0.53814 0.98556 0.06169 0.0
O385 O 0.5017 1.01382 0.07406 0.0
O386 O 0.51322 1.00048 0.99518 0.0
O387 O 0.57008 1.01872 1.00403 0.0
O388 O 0.46161 0.05625 0.98843 0.0
O389 O 0.44469 1.01178 1.01617 0.0
O390 O 0.51067 0.09481 1.01979 0.0
O391 O 0.54809 0.06743 1.00725 0.0
H392 H 0.60785 0.10981 0.11619 0.0
H393 H 0.62319 0.13006 0.17491 0.0
H394 H 0.64479 1.03729 0.2025 0.0
H395 H 0.62964 1.01667 0.1433 0.0
H396 H 0.43903 0.96441 0.97549 0.0
H397 H 0.42888 0.93639 0.91915 0.0
H398 H 0.42217 1.02635 0.87057 0.0
H399 H 0.43183 0.05454 0.92683 0.0
Ho400 Ho 0.5293 0.51751 0.52559 0.0
Ho401 Ho 0.52837 0.57153 0.56453 0.0
C402 C 0.55797 0.51691 0.60342 0.0
C403 C 0.54373 0.47146 0.4863 0.0
C404 C 0.56619 0.44895 0.4957 0.0
C405 C 0.59451 0.45975 0.51779 0.0
C406 C 0.61632 0.4391 0.52698 0.0
C407 C 0.61082 0.40743 0.51356 0.0
C408 C 0.58177 0.39609 0.49255 0.0
C409 C 0.55946 0.41679 0.48373 0.0
C410 C 0.47225 0.50738 0.56983 0.0
C411 C 0.49481 0.57141 0.48709 0.0
C412 C 0.51506 0.62217 0.59596 0.0
C413 C 0.48802 0.6403 0.58833 0.0
C414 C 0.45537 0.62413 0.57667 0.0
C415 C 0.43038 0.64168 0.56742 0.0
C416 C 0.43811 0.67546 0.56911 0.0
C417 C 0.47112 0.69162 0.57941 0.0
C418 C 0.49598 0.67408 0.58907 0.0
C419 C 0.59326 0.57406 0.53432 0.0
O420 O 0.56486 0.50973 0.57065 0.0
O421 O 0.53799 0.53847 0.60848 0.0
O422 O 0.51463 0.46885 0.50367 0.0
O423 O 0.55963 0.5014 0.48389 0.0
O424 O 0.49397 0.48825 0.56505 0.0
O425 O 0.48274 0.53246 0.5517 0.0
O426 O 0.50046 0.58696 0.51743 0.0
O427 O 0.50345 0.54259 0.48346 0.0
O428 O 0.53856 0.62335 0.5715 0.0
O429 O 0.50455 0.59305 0.60782 0.0
O430 O 0.58758 0.5806 0.56678 0.0
O431 O 0.564 0.56511 0.52012 0.0
H432 H 0.60041 0.48445 0.5274 0.0
H433 H 0.63812 0.44818 0.54378 0.0
H434 H 0.57706 0.37165 0.48196 0.0
H435 H 0.53748 0.40792 0.46711 0.0
H436 H 0.44912 0.59799 0.57487 0.0
H437 H 0.40484 0.62899 0.55979 0.0
H438 H 0.47716 0.71777 0.58131 0.0
H439 H 0.52133 0.68683 0.59718 0.0
Ho440 Ho 0.03384 0.51341 0.05935 0.0
Ho441 Ho 1.01796 0.57671 1.02312 0.0
C442 C 0.08904 0.5837 0.06891 0.0
C443 C 0.06714 0.46764 0.07141 0.0
C444 C 0.09706 0.46354 0.09307 0.0
C445 C 0.12901 0.46245 0.07658 0.0
C446 C 0.15741 0.45746 0.09578 0.0
C447 C 0.15466 0.45325 0.13203 0.0
C448 C 0.12286 0.45466 0.14876 0.0
C449 C 0.09435 0.4599 0.1295 0.0
C450 C 1.00385 0.55036 0.10766 0.0
C451 C 0.96315 0.50633 1.01349 0.0
C452 C 0.9839 0.62203 1.01124 0.0
C453 C 0.95349 0.62587 0.99015 0.0
C454 C 0.92397 0.63275 1.00753 0.0
C455 C 0.89485 0.63693 0.98892 0.0
C456 C 0.89441 0.63444 0.95231 0.0
C457 C 0.92386 0.62733 0.93475 0.0
C458 C 0.95307 0.62289 0.95348 0.0
C459 C 0.04734 0.53927 0.97466 0.0
O460 O 0.0815 0.55175 0.07253 0.0
O461 O 0.06802 0.59933 0.05176 0.0
O462 O 0.0377 0.46978 0.08704 0.0
O463 O 0.07462 0.48778 0.04568 0.0
O464 O 1.01214 0.52254 0.11339 0.0
O465 O 1.01165 0.55583 0.07556 0.0
O466 O 0.97079 0.53815 1.00906 0.0
O467 O 0.9836 0.49079 1.03143 0.0
O468 O 1.01313 0.61994 0.99514 0.0
O469 O 0.97694 0.60206 1.03719 0.0
O470 O 0.03949 0.56729 0.96895 0.0
O471 O 0.03992 0.53414 1.00689 0.0
H472 H 0.13192 0.46491 0.04856 0.0
H473 H 0.18125 0.45574 0.08197 0.0
H474 H 0.11998 0.4514 0.17667 0.0
H475 H 0.07015 0.46065 0.14307 0.0
H476 H 0.92354 0.63525 1.03572 0.0
H477 H 0.873 0.64311 1.00324 0.0
H478 H 0.92432 0.62531 0.90654 0.0
H479 H 0.97529 0.61739 0.93927 0.0
C480 C 0.2186 0.22571 0.39348 0.0
C481 C 0.25184 0.21976 0.40033 0.0
C482 C 0.18888 0.2057 0.40669 0.0
C483 C 0.19138 0.17913 0.42738 0.0
H484 H 0.21537 0.24446 0.37561 0.0
H485 H 0.1638 0.20978 0.39858 0.0
S486 S 0.2727 0.15768 0.4591 0.0
N487 N 0.28587 0.18854 0.43317 0.0
N488 N 0.22988 0.15129 0.45898 0.0
C489 C 0.22458 0.17484 0.43718 0.0
C490 C 0.25486 0.19506 0.42339 0.0
C491 C 0.40146 0.96024 0.79732 0.0
C492 C 0.36681 0.94444 0.80111 0.0
C493 C 0.42191 0.96932 0.82681 0.0
C494 C 0.40816 0.96214 0.8604 0.0
H495 H 0.41203 0.96718 0.77173 0.0
H496 H 0.44777 0.98356 0.82353 0.0
S497 S 0.31975 0.91852 0.88299 0.0
N498 N 0.32037 0.91994 0.83998 0.0
N499 N 0.35882 0.9366 0.8955 0.0
C500 C 0.37433 0.94429 0.86405 0.0
C501 C 0.35354 0.93555 0.83426 0.0
C502 C 0.6169 0.47606 0.66265 0.0
C503 C 0.59633 0.4665 0.69278 0.0
C504 C 0.60451 0.49178 0.63405 0.0
C505 C 0.57115 0.49991 0.63415 0.0
H506 H 0.64274 0.47072 0.66073 0.0
H507 H 0.62151 0.49795 0.61172 0.0
S508 S 0.50634 0.48091 0.70601 0.0
N509 N 0.54008 0.46687 0.71992 0.0
N510 N 0.51771 0.49654 0.66746 0.0
C511 C 0.55049 0.49088 0.66416 0.0
C512 C 0.56273 0.47427 0.69288 0.0
C513 C 0.96854 0.61889 0.15989 0.0
C514 C 0.95901 0.60519 0.19314 0.0
C515 C 0.98227 0.60161 0.13208 0.0
C516 C 0.9876 0.5696 0.13589 0.0
H517 H 0.9652 0.6433 0.15511 0.0
H518 H 0.98918 0.61368 0.10763 0.0
S519 S 0.9693 0.52271 0.21775 0.0
N520 N 0.95799 0.5575 0.22771 0.0
N521 N 0.98264 0.52556 0.17675 0.0
C522 C 0.97839 0.55587 0.16905 0.0
C523 C 0.96449 0.57332 0.19709 0.0
C524 C 0.46001 0.13083 0.15685 0.0
C525 C 0.4756 0.16267 0.14809 0.0
C526 C 0.46979 0.10402 0.13984 0.0
C527 C 0.49608 0.10818 0.11419 0.0
H528 H 0.43898 0.1266 0.17578 0.0
H529 H 0.45633 0.07994 0.14635 0.0
S530 S 0.54547 0.18608 0.08191 0.0
N531 N 0.51929 0.19647 0.11231 0.0
N532 N 0.53752 0.1462 0.08074 0.0
C533 C 0.51258 0.13972 0.10594 0.0
C534 C 0.50242 0.16693 0.12281 0.0
C535 C 0.09449 0.94676 0.59156 0.0
C536 C 0.13074 0.95253 0.58908 0.0
C537 C 0.07616 0.96963 0.57984 0.0
C538 C 0.09387 0.99847 0.5654 0.0
H539 H 0.08029 0.92378 0.6007 0.0
H540 H 0.04812 0.96367 0.57978 0.0
S541 S 0.18863 1.02579 0.55607 0.0
N542 N 0.18386 0.98982 0.57386 0.0
N543 N 0.14904 1.03283 0.5513 0.0
C544 C 0.13009 1.00535 0.56481 0.0
C545 C 0.14875 0.98226 0.57692 0.0
C546 C 0.87443 0.4494 0.9956 0.0
C547 C 0.86621 0.45732 0.96131 0.0
C548 C 0.906 0.46422 1.01215 0.0
C549 C 0.93089 0.48791 0.99537 0.0
H550 H 0.85588 0.43224 1.01022 0.0
H551 H 0.91038 0.45782 1.0387 0.0
S552 S 0.92532 0.51389 0.90398 0.0
N553 N 0.88863 0.48796 0.91014 0.0
N554 N 0.9463 0.516 0.9412 0.0
C555 C 0.9236 0.49502 0.96078 0.0
C556 C 0.8919 0.47977 0.94386 0.0
C557 C 0.68656 0.6204 0.51277 0.0
C558 C 0.69209 0.61227 0.47738 0.0
C559 C 0.65517 0.60771 0.531 0.0
C560 C 0.62716 0.58664 0.51476 0.0
H561 H 0.70694 0.63633 0.5268 0.0
H562 H 0.65278 0.61478 0.55811 0.0
S563 S 0.62682 0.55899 0.42207 0.0
N564 N 0.66549 0.58217 0.4268 0.0
N565 N 0.60725 0.55931 0.46043 0.0
C566 C 0.63213 0.57884 0.4793 0.0
C567 C 0.66418 0.5913 0.46091 0.0
C568 C 0.20672 0.40466 0.18524 0.0
C569 C 0.24124 0.42007 0.17866 0.0
C570 C 0.1787 0.41675 0.17193 0.0
C571 C 0.18412 0.44458 0.15138 0.0
H572 H 0.20128 0.38202 0.19894 0.0
H573 H 0.1527 0.40307 0.176 0.0
S574 S 0.26906 0.49726 0.13218 0.0
N575 N 0.27893 0.46734 0.15464 0.0
N576 N 0.22637 0.48959 0.12909 0.0
C577 C 0.21834 0.46152 0.14683 0.0
C578 C 0.24683 0.4494 0.16061 0.0
C579 C 0.55737 0.17478 0.95492 0.0
C580 C 0.59355 0.18687 0.95582 0.0
C581 C 0.54164 0.14554 0.9711 0.0
C582 C 0.56095 0.12579 0.98866 0.0
H583 H 0.54062 0.18847 0.94218 0.0
H584 H 0.51369 0.13835 0.96985 0.0
S585 S 0.65646 0.14538 0.99966 0.0
N586 N 0.64824 0.17581 0.97681 0.0
N587 N 0.6187 0.1211 1.00636 0.0
C588 C 0.59714 0.13719 0.98968 0.0
C589 C 0.61328 0.16746 0.97367 0.0
C590 C 0.98993 0.89538 0.47174 0.0
C591 C 0.95447 0.88439 0.46353 0.0
C592 C 1.00265 0.92676 0.48605 0.0
C593 C 0.98083 0.94926 0.49253 0.0
H594 H 1.00815 0.87937 0.46762 0.0
H595 H 0.02995 0.93347 0.49215 0.0
S596 S 0.88625 0.9341 0.47591 0.0
N597 N 0.89797 0.90007 0.46318 0.0
N598 N 0.92189 0.95817 0.48986 0.0
C599 C 0.94551 0.93888 0.48452 0.0
C600 C 0.93241 0.90687 0.47019 0.0
C601 C 0.39181 0.74113 0.54323 0.0
C602 C 0.36887 0.7414 0.57159 0.0
C603 C 0.41245 0.71757 0.54054 0.0
C604 C 0.41049 0.694 0.56621 0.0
H605 H 0.3956 0.76053 0.52463 0.0
H606 H 0.43161 0.71907 0.51974 0.0
S607 S 0.35448 0.68477 0.64517 0.0
N608 N 0.34475 0.71607 0.62509 0.0
N609 N 0.38361 0.67179 0.62004 0.0
C610 C 0.38618 0.69297 0.59343 0.0
C611 C 0.36525 0.71677 0.59611 0.0
C612 C 0.82228 0.86004 0.66063 0.0
C613 C 0.79867 0.86954 0.68473 0.0
C614 C 0.85128 0.88243 0.64877 0.0
C615 C 0.85752 0.91483 0.66084 0.0
H616 H 0.81851 0.83521 0.6513 0.0
H617 H 0.86913 0.87431 0.6304 0.0
S618 S 0.80434 0.95073 0.7257 0.0
N619 N 0.78391 0.91291 0.72093 0.0
N620 N 0.83826 0.95464 0.69915 0.0
C621 C 0.83389 0.92439 0.6848 0.0
C622 C 0.80454 0.90181 0.69665 0.0
C623 C 0.69513 0.14146 0.25151 0.0
C624 C 0.68164 0.1329 0.28474 0.0
C625 C 0.68015 0.12518 0.22192 0.0
C626 C 0.6515 0.0997 0.22479 0.0
H627 H 0.71626 0.16191 0.24829 0.0
H628 H 0.69052 0.13303 0.19651 0.0
S629 S 0.60916 0.06599 0.30638 0.0
N630 N 0.64 0.09611 0.31947 0.0
N631 N 0.61181 0.06489 0.2633 0.0
C632 C 0.63896 0.08966 0.25797 0.0
C633 C 0.65407 0.10652 0.28819 0.0
C634 C 0.43917 0.62045 0.43345 0.0
C635 C 0.45301 0.62088 0.399 0.0
C636 C 0.45256 0.60471 0.46143 0.0
C637 C 0.47985 0.58733 0.45658 0.0
H638 H 0.41822 0.63315 0.43916 0.0
H639 H 0.44118 0.60602 0.48719 0.0
S640 S 0.52576 0.58032 0.37215 0.0
N641 N 0.4965 0.60207 0.36257 0.0
N642 N 0.52033 0.57214 0.41404 0.0
C643 C 0.49357 0.58715 0.42229 0.0
C644 C 0.48061 0.60387 0.39404 0.0
C645 C 0.0872 0.47211 0.92468 0.0
C646 C 0.09153 0.48326 0.88981 0.0
C647 C 0.0732 0.48963 0.9521 0.0
C648 C 0.06235 0.51922 0.94623 0.0
H649 H 0.09509 0.44971 0.93101 0.0
H650 H 0.07086 0.47977 0.97801 0.0
S651 S 0.06399 0.55727 0.85903 0.0
N652 N 0.08096 0.52494 0.85122 0.0
N653 N 0.055 0.55713 0.90122 0.0
C654 C 0.06571 0.52994 0.91121 0.0
C655 C 0.0801 0.51234 0.88363 0.0
C656 C 0.59128 0.94846 0.92575 0.0
C657 C 0.57395 0.91665 0.9326 0.0
C658 C 0.58162 0.97533 0.94287 0.0
C659 C 0.55377 0.97143 0.96683 0.0
H660 H 0.61344 0.95257 0.90816 0.0
H661 H 0.59632 0.99927 0.93768 0.0
S662 S 0.4994 0.89369 0.99373 0.0
N663 N 0.52684 0.88323 0.96467 0.0
N664 N 0.509 0.93349 0.99663 0.0
C665 C 0.53562 0.93995 0.97319 0.0
C666 C 0.5456 0.91265 0.95614 0.0
C667 C 0.90972 0.11369 0.54014 0.0
C668 C 0.91121 0.12707 0.50685 0.0
C669 C 0.92629 0.08799 0.54645 0.0
C670 C 0.94425 0.07496 0.51949 0.0
H671 H 0.89461 0.12234 0.56086 0.0
H672 H 0.92537 0.07848 0.57258 0.0
S673 S 0.9564 0.10225 0.4284 0.0
N674 N 0.93261 0.12628 0.44706 0.0
N675 N 0.96399 0.07779 0.45923 0.0
C676 C 0.94686 0.08879 0.48657 0.0
C677 C 0.93028 0.11504 0.48017 0.0
C678 C 0.173 0.59976 0.12375 0.0
C679 C 0.18519 0.63356 0.1235 0.0
C680 C 0.1428 0.58447 0.10583 0.0
C681 C 0.12233 0.6018 0.08629 0.0
H682 H 0.18706 0.58459 0.138 0.0
H683 H 0.13535 0.55847 0.10774 0.0
S684 S 0.14239 0.69101 0.07585 0.0
N685 N 0.17386 0.68399 0.10099 0.0
N686 N 0.11761 0.65544 0.0674 0.0
C687 C 0.1344 0.63566 0.08517 0.0
C688 C 0.16549 0.65135 0.10351 0.0
C689 C 0.37502 0.50115 0.59714 0.0
C690 C 0.3667 0.47151 0.6152 0.0
C691 C 0.40875 0.51297 0.58284 0.0
C692 C 0.43624 0.49595 0.58599 0.0
H693 H 0.35512 0.5153 0.59359 0.0
H694 H 0.41318 0.53552 0.56897 0.0
S695 S 0.42991 0.41876 0.63328 0.0
N696 N 0.3905 0.42676 0.63682 0.0
N697 N 0.45264 0.44844 0.61048 0.0
C698 C 0.42841 0.4667 0.60454 0.0
C699 C 0.39421 0.45467 0.61887 0.0
C700 C 0.84198 0.67586 0.89105 0.0
C701 C 0.80744 0.66454 0.90196 0.0
C702 C 0.86978 0.66467 0.90608 0.0
C703 C 0.86427 0.64181 0.93281 0.0
H704 H 0.84784 0.69479 0.872 0.0
H705 H 0.89593 0.67531 0.89798 0.0
S706 S 0.77862 0.60019 0.96653 0.0
N707 N 0.76914 0.62586 0.93794 0.0
N708 N 0.82136 0.60523 0.96646 0.0
C709 C 0.82977 0.62874 0.94239 0.0
C710 C 0.80143 0.63999 0.92695 0.0
C711 C 0.48908 0.9027 0.12059 0.0
C712 C 0.45403 0.89776 0.13172 0.0
C713 C 0.50527 0.93056 0.10231 0.0
C714 C 0.48787 0.9559 0.09428 0.0
H715 H 0.50434 0.8845 0.12559 0.0
H716 H 0.53214 0.93222 0.09452 0.0
S717 S 0.39567 0.95607 0.11696 0.0
N718 N 0.40225 0.92154 0.13264 0.0
N719 N 0.4328 0.9737 0.09897 0.0
C720 C 0.45279 0.95156 0.10518 0.0
C721 C 0.43596 0.92274 0.1235 0.0
C722 C 0.07296 0.17849 0.63754 0.0
C723 C 0.09604 0.2029 0.61957 0.0
C724 C 0.06076 0.14718 0.62272 0.0
C725 C 0.07061 0.13813 0.58881 0.0
H726 H 0.0644 0.18344 0.66371 0.0
H727 H 0.04314 0.12991 0.63815 0.0
S728 S 0.12936 0.193 0.52946 0.0
N729 N 0.1271 0.21545 0.56484 0.0
N730 N 0.10493 0.15743 0.5375 0.0
C731 C 0.09352 0.16238 0.57041 0.0
C732 C 0.10598 0.19426 0.58555 0.0
C733 C 0.65151 0.33511 0.53154 0.0
C734 C 0.68643 0.34676 0.52291 0.0
C735 C 0.62713 0.35524 0.52971 0.0
C736 C 0.63711 0.38738 0.5189 0.0
H737 H 0.64285 0.31002 0.53833 0.0
H738 H 0.60022 0.34542 0.53587 0.0
S739 S 0.72567 0.42838 0.49253 0.0
N740 N 0.73002 0.39166 0.50321 0.0
N741 N 0.68433 0.42961 0.49912 0.0
C742 C 0.67226 0.39931 0.51095 0.0
C743 C 0.69693 0.3789 0.51307 0.0
loop_
_geom_bond_atom_site_label_1
_geom_bond_atom_site_label_2
_geom_bond_distance
_geom_bond_site_symmetry_2
_ccdc_geom_bond_type
C0 C1 1.264 . S
C0 C5 1.479 . S
C0 C10 1.465 . S
C1 C0 1.264 . S
C1 C3 1.339 . S
C1 H28 0.931 . S
C2 C3 1.395 . S
C2 C4 1.320 . S
C3 C1 1.339 . S
C3 C2 1.395 . S
C3 H29 0.929 . S
C4 C2 1.320 . S
C4 C5 1.405 . S
C4 H30 0.930 . S
C5 C0 1.479 . S
C5 C4 1.405 . S
C5 H31 0.931 . S
U6 O7 2.454 . S
U6 O8 2.458 . S
U6 C9 2.984 . S
U6 C10 2.847 . S
U6 C23 2.882 . S
U6 O24 2.441 . S
U6 O25 2.420 . S
U6 O26 2.455 . S
U6 O27 2.449 . S
O7 U6 2.454 . S
O7 C9 1.353 . S
O8 U6 2.458 . S
O8 C9 1.286 . S
C9 U6 2.984 . S
C9 O7 1.353 . S
C9 O8 1.286 . S
C9 C11 1.363 . S
C10 C0 1.465 . S
C10 U6 2.847 . S
C10 O24 1.249 . S
C10 O25 1.202 . S
C11 C9 1.363 . S
C11 C13 1.408 . S
C11 C16 1.342 . S
C12 C13 1.310 . S
C12 C15 1.461 . S
C12 H32 0.932 . S
C13 C11 1.408 . S
C13 C12 1.310 . S
C13 H33 0.930 . S
C14 C15 1.474 . S
C14 C16 1.285 . S
C14 H34 0.929 . S
C15 C12 1.461 . S
C15 C14 1.474 . S
C16 C11 1.342 . S
C16 C14 1.285 . S
C16 H35 0.930 . S
C17 C20 1.424 . S
C17 C22 1.245 . S
C17 C23 1.428 . S
C18 C21 1.260 . S
C18 C22 1.477 . S
C18 H36 0.932 . S
C19 C20 1.384 . S
C19 C21 1.479 . S
C19 H37 0.929 . S
C20 C17 1.424 . S
C20 C19 1.384 . S
C20 H38 0.928 . S
C21 C18 1.260 . S
C21 C19 1.479 . S
C22 C17 1.245 . S
C22 C18 1.477 . S
C22 H39 0.932 . S
C23 U6 2.882 . S
C23 C17 1.428 . S
C23 O26 1.301 . S
C23 O27 1.282 . S
O24 U6 2.441 . S
O24 C10 1.249 . S
O25 U6 2.420 . S
O25 C10 1.202 . S
O26 U6 2.455 . S
O26 C23 1.301 . S
O27 U6 2.449 . S
O27 C23 1.282 . S
H28 C1 0.931 . S
H29 C3 0.929 . S
H30 C4 0.930 . S
H31 C5 0.931 . S
H32 C12 0.932 . S
H33 C13 0.930 . S
H34 C14 0.929 . S
H35 C16 0.930 . S
H36 C18 0.932 . S
H37 C19 0.929 . S
H38 C20 0.928 . S
H39 C22 0.932 . S
C40 C41 1.264 . S
C40 C45 1.479 . S
C40 C50 1.465 . S
C41 C40 1.264 . S
C41 C43 1.339 . S
C41 H68 0.931 . S
C42 C43 1.395 . S
C42 C44 1.320 . S
C43 C41 1.339 . S
C43 C42 1.395 . S
C43 H69 0.929 . S
C44 C42 1.320 . S
C44 C45 1.405 . S
C44 H70 0.930 . S
C45 C40 1.479 . S
C45 C44 1.405 . S
C45 H71 0.931 . S
U46 O47 2.454 . S
U46 O48 2.458 . S
U46 C49 2.984 . S
U46 C50 2.847 . S
U46 C63 2.882 . S
U46 O64 2.441 . S
U46 O65 2.420 . S
U46 O66 2.455 . S
U46 O67 2.449 . S
O47 U46 2.454 . S
O47 C49 1.353 . S
O48 U46 2.458 . S
O48 C49 1.286 . S
C49 U46 2.984 . S
C49 O47 1.353 . S
C49 O48 1.286 . S
C49 C51 1.363 . S
C50 C40 1.465 . S
C50 U46 2.847 . S
C50 O64 1.249 . S
C50 O65 1.202 . S
C51 C49 1.363 . S
C51 C53 1.408 . S
C51 C56 1.342 . S
C52 C53 1.310 . S
C52 C55 1.461 . S
C52 H72 0.932 . S
C53 C51 1.408 . S
C53 C52 1.310 . S
C53 H73 0.930 . S
C54 C55 1.474 . S
C54 C56 1.285 . S
C54 H74 0.929 . S
C55 C52 1.461 . S
C55 C54 1.474 . S
C56 C51 1.342 . S
C56 C54 1.285 . S
C56 H75 0.930 . S
C57 C60 1.424 . S
C57 C62 1.245 . S
C57 C63 1.428 . S
C58 C61 1.260 . S
C58 C62 1.477 . S
C58 H76 0.932 . S
C59 C60 1.384 . S
C59 C61 1.479 . S
C59 H77 0.929 . S
C60 C57 1.424 . S
C60 C59 1.384 . S
C60 H78 0.928 . S
C61 C58 1.260 . S
C61 C59 1.479 . S
C62 C57 1.245 . S
C62 C58 1.477 . S
C62 H79 0.932 . S
C63 U46 2.882 . S
C63 C57 1.428 . S
C63 O66 1.301 . S
C63 O67 1.282 . S
O64 U46 2.441 . S
O64 C50 1.249 . S
O65 U46 2.420 . S
O65 C50 1.202 . S
O66 U46 2.455 . S
O66 C63 1.301 . S
O67 U46 2.449 . S
O67 C63 1.282 . S
H68 C41 0.931 . S
H69 C43 0.929 . S
H70 C44 0.930 . S
H71 C45 0.931 . S
H72 C52 0.932 . S
H73 C53 0.930 . S
H74 C54 0.929 . S
H75 C56 0.930 . S
H76 C58 0.932 . S
H77 C59 0.929 . S
H78 C60 0.928 . S
H79 C62 0.932 . S
C80 C81 1.264 . S
C80 C85 1.479 . S
C80 C90 1.465 . S
C81 C80 1.264 . S
C81 C83 1.339 . S
C81 H108 0.931 . S
C82 C83 1.395 . S
C82 C84 1.320 . S
C83 C81 1.339 . S
C83 C82 1.395 . S
C83 H109 0.929 . S
C84 C82 1.320 . S
C84 C85 1.405 . S
C84 H110 0.930 . S
C85 C80 1.479 . S
C85 C84 1.405 . S
C85 H111 0.931 . S
U86 O87 2.454 . S
U86 O88 2.458 . S
U86 C89 2.984 . S
U86 C90 2.847 . S
U86 C103 2.882 . S
U86 O104 2.441 . S
U86 O105 2.420 . S
U86 O106 2.455 . S
U86 O107 2.449 . S
O87 U86 2.454 . S
O87 C89 1.353 . S
O88 U86 2.458 . S
O88 C89 1.286 . S
C89 U86 2.984 . S
C89 O87 1.353 . S
C89 O88 1.286 . S
C89 C91 1.363 . S
C90 C80 1.465 . S
C90 U86 2.847 . S
C90 O104 1.249 . S
C90 O105 1.202 . S
C91 C89 1.363 . S
C91 C93 1.408 . S
C91 C96 1.342 . S
C92 C93 1.310 . S
C92 C95 1.461 . S
C92 H112 0.932 . S
C93 C91 1.408 . S
C93 C92 1.310 . S
C93 H113 0.930 . S
C94 C95 1.474 . S
C94 C96 1.285 . S
C94 H114 0.929 . S
C95 C92 1.461 . S
C95 C94 1.474 . S
C96 C91 1.342 . S
C96 C94 1.285 . S
C96 H115 0.930 . S
C97 C100 1.424 . S
C97 C102 1.245 . S
C97 C103 1.428 . S
C98 C101 1.260 . S
C98 C102 1.477 . S
C98 H116 0.932 . S
C99 C100 1.384 . S
C99 C101 1.479 . S
C99 H117 0.929 . S
C100 C97 1.424 . S
C100 C99 1.384 . S
C100 H118 0.928 . S
C101 C98 1.260 . S
C101 C99 1.479 . S
C102 C97 1.245 . S
C102 C98 1.477 . S
C102 H119 0.932 . S
C103 U86 2.882 . S
C103 C97 1.428 . S
C103 O106 1.301 . S
C103 O107 1.282 . S
O104 U86 2.441 . S
O104 C90 1.249 . S
O105 U86 2.420 . S
O105 C90 1.202 . S
O106 U86 2.455 . S
O106 C103 1.301 . S
O107 U86 2.449 . S
O107 C103 1.282 . S
H108 C81 0.931 . S
H109 C83 0.929 . S
H110 C84 0.930 . S
H111 C85 0.931 . S
H112 C92 0.932 . S
H113 C93 0.930 . S
H114 C94 0.929 . S
H115 C96 0.930 . S
H116 C98 0.932 . S
H117 C99 0.929 . S
H118 C100 0.928 . S
H119 C102 0.932 . S
C120 C121 1.264 . S
C120 C125 1.479 . S
C120 C130 1.465 . S
C121 C120 1.264 . S
C121 C123 1.339 . S
C121 H148 0.931 . S
C122 C123 1.395 . S
C122 C124 1.320 . S
C123 C121 1.339 . S
C123 C122 1.395 . S
C123 H149 0.929 . S
C124 C122 1.320 . S
C124 C125 1.405 . S
C124 H150 0.930 . S
C125 C120 1.479 . S
C125 C124 1.405 . S
C125 H151 0.931 . S
U126 O127 2.454 . S
U126 O128 2.458 . S
U126 C129 2.984 . S
U126 C130 2.847 . S
U126 C143 2.882 . S
U126 O144 2.441 . S
U126 O145 2.420 . S
U126 O146 2.455 . S
U126 O147 2.449 . S
O127 U126 2.454 . S
O127 C129 1.353 . S
O128 U126 2.458 . S
O128 C129 1.286 . S
C129 U126 2.984 . S
C129 O127 1.353 . S
C129 O128 1.286 . S
C129 C131 1.363 . S
C130 C120 1.465 . S
C130 U126 2.847 . S
C130 O144 1.249 . S
C130 O145 1.202 . S
C131 C129 1.363 . S
C131 C133 1.408 . S
C131 C136 1.342 . S
C132 C133 1.310 . S
C132 C135 1.461 . S
C132 H152 0.932 . S
C133 C131 1.408 . S
C133 C132 1.310 . S
C133 H153 0.930 . S
C134 C135 1.474 . S
C134 C136 1.285 . S
C134 H154 0.929 . S
C135 C132 1.461 . S
C135 C134 1.474 . S
C136 C131 1.342 . S
C136 C134 1.285 . S
C136 H155 0.930 . S
C137 C140 1.424 . S
C137 C142 1.245 . S
C137 C143 1.428 . S
C138 C141 1.260 . S
C138 C142 1.477 . S
C138 H156 0.932 . S
C139 C140 1.384 . S
C139 C141 1.479 . S
C139 H157 0.929 . S
C140 C137 1.424 . S
C140 C139 1.384 . S
C140 H158 0.928 . S
C141 C138 1.260 . S
C141 C139 1.479 . S
C142 C137 1.245 . S
C142 C138 1.477 . S
C142 H159 0.932 . S
C143 U126 2.882 . S
C143 C137 1.428 . S
C143 O146 1.301 . S
C143 O147 1.282 . S
O144 U126 2.441 . S
O144 C130 1.249 . S
O145 U126 2.420 . S
O145 C130 1.202 . S
O146 U126 2.455 . S
O146 C143 1.301 . S
O147 U126 2.449 . S
O147 C143 1.282 . S
H148 C121 0.931 . S
H149 C123 0.929 . S
H150 C124 0.930 . S
H151 C125 0.931 . S
H152 C132 0.932 . S
H153 C133 0.930 . S
H154 C134 0.929 . S
H155 C136 0.930 . S
H156 C138 0.932 . S
H157 C139 0.929 . S
H158 C140 0.928 . S
H159 C142 0.932 . S
C160 C161 1.264 . S
C160 C165 1.479 . S
C160 C170 1.465 . S
C161 C160 1.264 . S
C161 C163 1.339 . S
C161 H188 0.931 . S
C162 C163 1.395 . S
C162 C164 1.320 . S
C163 C161 1.339 . S
C163 C162 1.395 . S
C163 H189 0.929 . S
C164 C162 1.320 . S
C164 C165 1.405 . S
C164 H190 0.930 . S
C165 C160 1.479 . S
C165 C164 1.405 . S
C165 H191 0.931 . S
U166 O167 2.454 . S
U166 O168 2.458 . S
U166 C169 2.984 . S
U166 C170 2.847 . S
U166 C183 2.882 . S
U166 O184 2.441 . S
U166 O185 2.420 . S
U166 O186 2.455 . S
U166 O187 2.449 . S
O167 U166 2.454 . S
O167 C169 1.353 . S
O168 U166 2.458 . S
O168 C169 1.286 . S
C169 U166 2.984 . S
C169 O167 1.353 . S
C169 O168 1.286 . S
C169 C171 1.363 . S
C170 C160 1.465 . S
C170 U166 2.847 . S
C170 O184 1.249 . S
C170 O185 1.202 . S
C171 C169 1.363 . S
C171 C173 1.408 . S
C171 C176 1.342 . S
C172 C173 1.310 . S
C172 C175 1.461 . S
C172 H192 0.932 . S
C173 C171 1.408 . S
C173 C172 1.310 . S
C173 H193 0.930 . S
C174 C175 1.474 . S
C174 C176 1.285 . S
C174 H194 0.929 . S
C175 C172 1.461 . S
C175 C174 1.474 . S
C176 C171 1.342 . S
C176 C174 1.285 . S
C176 H195 0.930 . S
C177 C180 1.424 . S
C177 C182 1.245 . S
C177 C183 1.428 . S
C178 C181 1.260 . S
C178 C182 1.477 . S
C178 H196 0.932 . S
C179 C180 1.384 . S
C179 C181 1.479 . S
C179 H197 0.929 . S
C180 C177 1.424 . S
C180 C179 1.384 . S
C180 H198 0.928 . S
C181 C178 1.260 . S
C181 C179 1.479 . S
C182 C177 1.245 . S
C182 C178 1.477 . S
C182 H199 0.932 . S
C183 U166 2.882 . S
C183 C177 1.428 . S
C183 O186 1.301 . S
C183 O187 1.282 . S
O184 U166 2.441 . S
O184 C170 1.249 . S
O185 U166 2.420 . S
O185 C170 1.202 . S
O186 U166 2.455 . S
O186 C183 1.301 . S
O187 U166 2.449 . S
O187 C183 1.282 . S
H188 C161 0.931 . S
H189 C163 0.929 . S
H190 C164 0.930 . S
H191 C165 0.931 . S
H192 C172 0.932 . S
H193 C173 0.930 . S
H194 C174 0.929 . S
H195 C176 0.930 . S
H196 C178 0.932 . S
H197 C179 0.929 . S
H198 C180 0.928 . S
H199 C182 0.932 . S
C200 C201 1.264 . S
C200 C205 1.479 . S
C200 C210 1.465 . S
C201 C200 1.264 . S
C201 C203 1.339 . S
C201 H228 0.931 . S
C202 C203 1.395 . S
C202 C204 1.320 . S
C203 C201 1.339 . S
C203 C202 1.395 . S
C203 H229 0.929 . S
C204 C202 1.320 . S
C204 C205 1.405 . S
C204 H230 0.930 . S
C205 C200 1.479 . S
C205 C204 1.405 . S
C205 H231 0.931 . S
U206 O207 2.454 . S
U206 O208 2.458 . S
U206 C209 2.984 . S
U206 C210 2.847 . S
U206 C223 2.882 . S
U206 O224 2.441 . S
U206 O225 2.420 . S
U206 O226 2.455 . S
U206 O227 2.449 . S
O207 U206 2.454 . S
O207 C209 1.353 . S
O208 U206 2.458 . S
O208 C209 1.286 . S
C209 U206 2.984 . S
C209 O207 1.353 . S
C209 O208 1.286 . S
C209 C211 1.363 . S
C210 C200 1.465 . S
C210 U206 2.847 . S
C210 O224 1.249 . S
C210 O225 1.202 . S
C211 C209 1.363 . S
C211 C213 1.408 . S
C211 C216 1.342 . S
C212 C213 1.310 . S
C212 C215 1.461 . S
C212 H232 0.932 . S
C213 C211 1.408 . S
C213 C212 1.310 . S
C213 H233 0.930 . S
C214 C215 1.474 . S
C214 C216 1.285 . S
C214 H234 0.929 . S
C215 C212 1.461 . S
C215 C214 1.474 . S
C216 C211 1.342 . S
C216 C214 1.285 . S
C216 H235 0.930 . S
C217 C220 1.424 . S
C217 C222 1.245 . S
C217 C223 1.428 . S
C218 C221 1.260 . S
C218 C222 1.477 . S
C218 H236 0.932 . S
C219 C220 1.384 . S
C219 C221 1.479 . S
C219 H237 0.929 . S
C220 C217 1.424 . S
C220 C219 1.384 . S
C220 H238 0.928 . S
C221 C218 1.260 . S
C221 C219 1.479 . S
C222 C217 1.245 . S
C222 C218 1.477 . S
C222 H239 0.932 . S
C223 U206 2.882 . S
C223 C217 1.428 . S
C223 O226 1.301 . S
C223 O227 1.282 . S
O224 U206 2.441 . S
O224 C210 1.249 . S
O225 U206 2.420 . S
O225 C210 1.202 . S
O226 U206 2.455 . S
O226 C223 1.301 . S
O227 U206 2.449 . S
O227 C223 1.282 . S
H228 C201 0.931 . S
H229 C203 0.929 . S
H230 C204 0.930 . S
H231 C205 0.931 . S
H232 C212 0.932 . S
H233 C213 0.930 . S
H234 C214 0.929 . S
H235 C216 0.930 . S
H236 C218 0.932 . S
H237 C219 0.929 . S
H238 C220 0.928 . S
H239 C222 0.932 . S
C240 C241 1.264 . S
C240 C245 1.479 . S
C240 C250 1.465 . S
C241 C240 1.264 . S
C241 C243 1.339 . S
C241 H268 0.931 . S
C242 C243 1.395 . S
C242 C244 1.320 . S
C243 C241 1.339 . S
C243 C242 1.395 . S
C243 H269 0.929 . S
C244 C242 1.320 . S
C244 C245 1.405 . S
C244 H270 0.930 . S
C245 C240 1.479 . S
C245 C244 1.405 . S
C245 H271 0.931 . S
U246 O247 2.454 . S
U246 O248 2.458 . S
U246 C249 2.984 . S
U246 C250 2.847 . S
U246 C263 2.882 . S
U246 O264 2.441 . S
U246 O265 2.420 . S
U246 O266 2.455 . S
U246 O267 2.449 . S
O247 U246 2.454 . S
O247 C249 1.353 . S
O248 U246 2.458 . S
O248 C249 1.286 . S
C249 U246 2.984 . S
C249 O247 1.353 . S
C249 O248 1.286 . S
C249 C251 1.363 . S
C250 C240 1.465 . S
C250 U246 2.847 . S
C250 O264 1.249 . S
C250 O265 1.202 . S
C251 C249 1.363 . S
C251 C253 1.408 . S
C251 C256 1.342 . S
C252 C253 1.310 . S
C252 C255 1.461 . S
C252 H272 0.932 . S
C253 C251 1.408 . S
C253 C252 1.310 . S
C253 H273 0.930 . S
C254 C255 1.474 . S
C254 C256 1.285 . S
C254 H274 0.929 . S
C255 C252 1.461 . S
C255 C254 1.474 . S
C256 C251 1.342 . S
C256 C254 1.285 . S
C256 H275 0.930 . S
C257 C260 1.424 . S
C257 C262 1.245 . S
C257 C263 1.428 . S
C258 C261 1.260 . S
C258 C262 1.477 . S
C258 H276 0.932 . S
C259 C260 1.384 . S
C259 C261 1.479 . S
C259 H277 0.929 . S
C260 C257 1.424 . S
C260 C259 1.384 . S
C260 H278 0.928 . S
C261 C258 1.260 . S
C261 C259 1.479 . S
C262 C257 1.245 . S
C262 C258 1.477 . S
C262 H279 0.932 . S
C263 U246 2.882 . S
C263 C257 1.428 . S
C263 O266 1.301 . S
C263 O267 1.282 . S
O264 U246 2.441 . S
O264 C250 1.249 . S
O265 U246 2.420 . S
O265 C250 1.202 . S
O266 U246 2.455 . S
O266 C263 1.301 . S
O267 U246 2.449 . S
O267 C263 1.282 . S
H268 C241 0.931 . S
H269 C243 0.929 . S
H270 C244 0.930 . S
H271 C245 0.931 . S
H272 C252 0.932 . S
H273 C253 0.930 . S
H274 C254 0.929 . S
H275 C256 0.930 . S
H276 C258 0.932 . S
H277 C259 0.929 . S
H278 C260 0.928 . S
H279 C262 0.932 . S
C280 C281 1.264 . S
C280 C285 1.479 . S
C280 C290 1.465 . S
C281 C280 1.264 . S
C281 C283 1.339 . S
C281 H308 0.931 . S
C282 C283 1.395 . S
C282 C284 1.320 . S
C283 C281 1.339 . S
C283 C282 1.395 . S
C283 H309 0.929 . S
C284 C282 1.320 . S
C284 C285 1.405 . S
C284 H310 0.930 . S
C285 C280 1.479 . S
C285 C284 1.405 . S
C285 H311 0.931 . S
U286 O287 2.454 . S
U286 O288 2.458 . S
U286 C289 2.984 . S
U286 C290 2.847 . S
U286 C303 2.882 . S
U286 O304 2.441 . S
U286 O305 2.420 . S
U286 O306 2.455 . S
U286 O307 2.449 . S
O287 U286 2.454 . S
O287 C289 1.353 . S
O288 U286 2.458 . S
O288 C289 1.286 . S
C289 U286 2.984 . S
C289 O287 1.353 . S
C289 O288 1.286 . S
C289 C291 1.363 . S
C290 C280 1.465 . S
C290 U286 2.847 . S
C290 O304 1.249 . S
C290 O305 1.202 . S
C291 C289 1.363 . S
C291 C293 1.408 . S
C291 C296 1.342 . S
C292 C293 1.310 . S
C292 C295 1.461 . S
C292 H312 0.932 . S
C293 C291 1.408 . S
C293 C292 1.310 . S
C293 H313 0.930 . S
C294 C295 1.474 . S
C294 C296 1.285 . S
C294 H314 0.929 . S
C295 C292 1.461 . S
C295 C294 1.474 . S
C296 C291 1.342 . S
C296 C294 1.285 . S
C296 H315 0.930 . S
C297 C300 1.424 . S
C297 C302 1.245 . S
C297 C303 1.428 . S
C298 C301 1.260 . S
C298 C302 1.477 . S
C298 H316 0.932 . S
C299 C300 1.384 . S
C299 C301 1.479 . S
C299 H317 0.929 . S
C300 C297 1.424 . S
C300 C299 1.384 . S
C300 H318 0.928 . S
C301 C298 1.260 . S
C301 C299 1.479 . S
C302 C297 1.245 . S
C302 C298 1.477 . S
C302 H319 0.932 . S
C303 U286 2.882 . S
C303 C297 1.428 . S
C303 O306 1.301 . S
C303 O307 1.282 . S
O304 U286 2.441 . S
O304 C290 1.249 . S
O305 U286 2.420 . S
O305 C290 1.202 . S
O306 U286 2.455 . S
O306 C303 1.301 . S
O307 U286 2.449 . S
O307 C303 1.282 . S
H308 C281 0.931 . S
H309 C283 0.929 . S
H310 C284 0.930 . S
H311 C285 0.931 . S
H312 C292 0.932 . S
H313 C293 0.930 . S
H314 C294 0.929 . S
H315 C296 0.930 . S
H316 C298 0.932 . S
H317 C299 0.929 . S
H318 C300 0.928 . S
H319 C302 0.932 . S
Ho320 C323 2.811 . S
Ho320 O340 2.322 . S
Ho320 O342 2.378 . S
Ho320 O343 2.524 . S
Ho320 O344 2.381 1_545 S
Ho320 O345 2.669 1_545 S
Ho320 O347 2.346 1_445 S
Ho320 O351 2.305 1_455 S
Ho321 C332 2.818 . S
Ho321 O341 2.338 1_665 S
Ho321 O345 2.309 1_655 S
Ho321 O346 2.328 . S
Ho321 O348 2.382 . S
Ho321 O349 2.533 . S
Ho321 O350 2.375 1_565 S
Ho321 O351 2.665 1_565 S
C322 O340 1.259 . S
C322 O341 1.268 . S
C323 Ho320 2.811 . S
C323 C324 1.488 . S
C323 O342 1.215 . S
C323 O343 1.289 . S
C324 C323 1.488 . S
C324 C325 1.348 . S
C324 C329 1.413 . S
C325 C324 1.348 . S
C325 C326 1.442 . S
C325 H352 0.930 . S
C326 C325 1.442 . S
C326 C327 1.381 . S
C326 H353 0.931 . S
C327 C326 1.381 . S
C327 C328 1.321 . S
C328 C327 1.321 . S
C328 C329 1.403 . S
C328 H354 0.934 . S
C329 C324 1.413 . S
C329 C328 1.403 . S
C329 H355 0.930 . S
C330 O344 1.275 . S
C330 O345 1.256 . S
C331 O346 1.259 . S
C331 O347 1.268 . S
C332 Ho321 2.818 . S
C332 C333 1.488 . S
C332 O348 1.215 . S
C332 O349 1.289 . S
C333 C332 1.488 . S
C333 C334 1.348 . S
C333 C338 1.413 . S
C334 C333 1.348 . S
C334 C335 1.442 . S
C334 H356 0.930 . S
C335 C334 1.442 . S
C335 C336 1.381 . S
C335 H357 0.931 . S
C336 C335 1.381 . S
C336 C337 1.321 . S
C337 C336 1.321 . S
C337 C338 1.403 . S
C337 H358 0.934 . S
C338 C333 1.413 . S
C338 C337 1.403 . S
C338 H359 0.930 . S
C339 O350 1.275 . S
C339 O351 1.256 . S
O340 Ho320 2.322 . S
O340 C322 1.259 . S
O341 Ho321 2.338 1_445 S
O341 C322 1.268 . S
O342 Ho320 2.378 . S
O342 C323 1.215 . S
O343 Ho320 2.524 . S
O343 C323 1.289 . S
O344 Ho320 2.381 1_565 S
O344 C330 1.275 . S
O345 Ho320 2.669 1_565 S
O345 Ho321 2.309 1_455 S
O345 C330 1.256 . S
O346 Ho321 2.328 . S
O346 C331 1.259 . S
O347 Ho320 2.346 1_665 S
O347 C331 1.268 . S
O348 Ho321 2.382 . S
O348 C332 1.215 . S
O349 Ho321 2.533 . S
O349 C332 1.289 . S
O350 Ho321 2.375 1_545 S
O350 C339 1.275 . S
O351 Ho320 2.305 1_655 S
O351 Ho321 2.665 1_545 S
O351 C339 1.256 . S
H352 C325 0.930 . S
H353 C326 0.931 . S
H354 C328 0.934 . S
H355 C329 0.930 . S
H356 C334 0.930 . S
H357 C335 0.931 . S
H358 C337 0.934 . S
H359 C338 0.930 . S
Ho360 C363 2.816 . S
Ho360 O380 2.328 . S
Ho360 O382 2.379 . S
Ho360 O383 2.533 . S
Ho360 O384 2.373 1_545 S
Ho360 O385 2.665 1_545 S
Ho360 O387 2.339 1_544 S
Ho360 O391 2.312 1_554 S
Ho361 C372 2.811 1_545 S
Ho361 O381 2.346 1_556 S
Ho361 O385 2.305 1_546 S
Ho361 O386 2.322 1_545 S
Ho361 O388 2.378 1_545 S
Ho361 O389 2.524 1_545 S
Ho361 O390 2.381 . S
Ho361 O391 2.669 . S
C362 O380 1.259 . S
C362 O381 1.268 . S
C363 Ho360 2.816 . S
C363 C364 1.488 . S
C363 O382 1.215 . S
C363 O383 1.289 . S
C364 C363 1.488 . S
C364 C365 1.348 . S
C364 C369 1.413 . S
C365 C364 1.348 . S
C365 C366 1.442 . S
C365 H392 0.930 . S
C366 C365 1.442 . S
C366 C367 1.381 . S
C366 H393 0.931 . S
C367 C366 1.381 . S
C367 C368 1.321 . S
C368 C367 1.321 . S
C368 C369 1.403 . S
C368 H394 0.934 . S
C369 C364 1.413 . S
C369 C368 1.403 . S
C369 H395 0.930 . S
C370 O384 1.275 . S
C370 O385 1.256 . S
C371 O386 1.259 . S
C371 O387 1.268 . S
C372 Ho361 2.811 1_565 S
C372 C373 1.488 . S
C372 O388 1.215 . S
C372 O389 1.289 . S
C373 C372 1.488 . S
C373 C374 1.348 . S
C373 C378 1.413 . S
C374 C373 1.348 . S
C374 C375 1.442 . S
C374 H396 0.930 . S
C375 C374 1.442 . S
C375 C376 1.381 . S
C375 H397 0.931 . S
C376 C375 1.381 . S
C376 C377 1.321 . S
C377 C376 1.321 . S
C377 C378 1.403 . S
C377 H398 0.934 . S
C378 C373 1.413 . S
C378 C377 1.403 . S
C378 H399 0.930 . S
C379 O390 1.275 . S
C379 O391 1.256 . S
O380 Ho360 2.328 . S
O380 C362 1.259 . S
O381 Ho361 2.346 1_554 S
O381 C362 1.268 . S
O382 Ho360 2.379 . S
O382 C363 1.215 . S
O383 Ho360 2.533 . S
O383 C363 1.289 . S
O384 Ho360 2.373 1_565 S
O384 C370 1.275 . S
O385 Ho360 2.665 1_565 S
O385 Ho361 2.305 1_564 S
O385 C370 1.256 . S
O386 Ho361 2.322 1_565 S
O386 C371 1.259 . S
O387 Ho360 2.339 1_566 S
O387 C371 1.268 . S
O388 Ho361 2.378 1_565 S
O388 C372 1.215 . S
O389 Ho361 2.524 1_565 S
O389 C372 1.289 . S
O390 Ho361 2.381 . S
O390 C379 1.275 . S
O391 Ho360 2.312 1_556 S
O391 Ho361 2.669 . S
O391 C379 1.256 . S
H392 C365 0.930 . S
H393 C366 0.931 . S
H394 C368 0.934 . S
H395 C369 0.930 . S
H396 C374 0.930 . S
H397 C375 0.931 . S
H398 C377 0.934 . S
H399 C378 0.930 . S
Ho400 C403 2.811 . S
Ho400 O420 2.322 . S
Ho400 O422 2.378 . S
Ho400 O423 2.524 . S
Ho400 O424 2.381 . S
Ho400 O425 2.669 . S
Ho400 O427 2.346 . S
Ho400 O431 2.305 . S
Ho401 C412 2.811 . S
Ho401 O421 2.346 . S
Ho401 O425 2.305 . S
Ho401 O426 2.322 . S
Ho401 O428 2.378 . S
Ho401 O429 2.524 . S
Ho401 O430 2.381 . S
Ho401 O431 2.669 . S
C402 O420 1.259 . S
C402 O421 1.268 . S
C403 Ho400 2.811 . S
C403 C404 1.488 . S
C403 O422 1.215 . S
C403 O423 1.289 . S
C404 C403 1.488 . S
C404 C405 1.348 . S
C404 C409 1.413 . S
C405 C404 1.348 . S
C405 C406 1.442 . S
C405 H432 0.930 . S
C406 C405 1.442 . S
C406 C407 1.381 . S
C406 H433 0.931 . S
C407 C406 1.381 . S
C407 C408 1.321 . S
C408 C407 1.321 . S
C408 C409 1.403 . S
C408 H434 0.934 . S
C409 C404 1.413 . S
C409 C408 1.403 . S
C409 H435 0.930 . S
C410 O424 1.275 . S
C410 O425 1.256 . S
C411 O426 1.259 . S
C411 O427 1.268 . S
C412 Ho401 2.811 . S
C412 C413 1.488 . S
C412 O428 1.215 . S
C412 O429 1.289 . S
C413 C412 1.488 . S
C413 C414 1.348 . S
C413 C418 1.413 . S
C414 C413 1.348 . S
C414 C415 1.442 . S
C414 H436 0.930 . S
C415 C414 1.442 . S
C415 C416 1.381 . S
C415 H437 0.931 . S
C416 C415 1.381 . S
C416 C417 1.321 . S
C417 C416 1.321 . S
C417 C418 1.403 . S
C417 H438 0.934 . S
C418 C413 1.413 . S
C418 C417 1.403 . S
C418 H439 0.930 . S
C419 O430 1.275 . S
C419 O431 1.256 . S
O420 Ho400 2.322 . S
O420 C402 1.259 . S
O421 Ho401 2.346 . S
O421 C402 1.268 . S
O422 Ho400 2.378 . S
O422 C403 1.215 . S
O423 Ho400 2.524 . S
O423 C403 1.289 . S
O424 Ho400 2.381 . S
O424 C410 1.275 . S
O425 Ho400 2.669 . S
O425 Ho401 2.305 . S
O425 C410 1.256 . S
O426 Ho401 2.322 . S
O426 C411 1.259 . S
O427 Ho400 2.346 . S
O427 C411 1.268 . S
O428 Ho401 2.378 . S
O428 C412 1.215 . S
O429 Ho401 2.524 . S
O429 C412 1.289 . S
O430 Ho401 2.381 . S
O430 C419 1.275 . S
O431 Ho400 2.305 . S
O431 Ho401 2.669 . S
O431 C419 1.256 . S
H432 C405 0.930 . S
H433 C406 0.931 . S
H434 C408 0.934 . S
H435 C409 0.930 . S
H436 C414 0.930 . S
H437 C415 0.931 . S
H438 C417 0.934 . S
H439 C418 0.930 . S
Ho440 C443 2.811 . S
Ho440 O460 2.322 . S
Ho440 O462 2.378 . S
Ho440 O463 2.524 . S
Ho440 O464 2.381 1_455 S
Ho440 O465 2.669 1_455 S
Ho440 O467 2.346 1_454 S
Ho440 O471 2.305 1_554 S
Ho441 C452 2.813 . S
Ho441 O461 2.343 1_656 S
Ho441 O465 2.305 1_556 S
Ho441 O466 2.323 . S
Ho441 O468 2.379 . S
Ho441 O469 2.526 . S
Ho441 O470 2.379 1_655 S
Ho441 O471 2.668 1_655 S
C442 O460 1.259 . S
C442 O461 1.268 . S
C443 Ho440 2.811 . S
C443 C444 1.488 . S
C443 O462 1.215 . S
C443 O463 1.289 . S
C444 C443 1.488 . S
C444 C445 1.348 . S
C444 C449 1.413 . S
C445 C444 1.348 . S
C445 C446 1.442 . S
C445 H472 0.930 . S
C446 C445 1.442 . S
C446 C447 1.381 . S
C446 H473 0.931 . S
C447 C446 1.381 . S
C447 C448 1.321 . S
C448 C447 1.321 . S
C448 C449 1.403 . S
C448 H474 0.934 . S
C449 C444 1.413 . S
C449 C448 1.403 . S
C449 H475 0.930 . S
C450 O464 1.275 . S
C450 O465 1.256 . S
C451 O466 1.259 . S
C451 O467 1.268 . S
C452 Ho441 2.813 . S
C452 C453 1.488 . S
C452 O468 1.215 . S
C452 O469 1.289 . S
C453 C452 1.488 . S
C453 C454 1.348 . S
C453 C458 1.413 . S
C454 C453 1.348 . S
C454 C455 1.442 . S
C454 H476 0.930 . S
C455 C454 1.442 . S
C455 C456 1.381 . S
C455 H477 0.931 . S
C456 C455 1.381 . S
C456 C457 1.321 . S
C457 C456 1.321 . S
C457 C458 1.403 . S
C457 H478 0.934 . S
C458 C453 1.413 . S
C458 C457 1.403 . S
C458 H479 0.930 . S
C459 O470 1.275 . S
C459 O471 1.256 . S
O460 Ho440 2.322 . S
O460 C442 1.259 . S
O461 Ho441 2.343 1_454 S
O461 C442 1.268 . S
O462 Ho440 2.378 . S
O462 C443 1.215 . S
O463 Ho440 2.524 . S
O463 C443 1.289 . S
O464 Ho440 2.381 1_655 S
O464 C450 1.275 . S
O465 Ho440 2.669 1_655 S
O465 Ho441 2.305 1_554 S
O465 C450 1.256 . S
O466 Ho441 2.323 . S
O466 C451 1.259 . S
O467 Ho440 2.346 1_656 S
O467 C451 1.268 . S
O468 Ho441 2.379 . S
O468 C452 1.215 . S
O469 Ho441 2.526 . S
O469 C452 1.289 . S
O470 Ho441 2.379 1_455 S
O470 C459 1.275 . S
O471 Ho440 2.305 1_556 S
O471 Ho441 2.668 1_455 S
O471 C459 1.256 . S
H472 C445 0.930 . S
H473 C446 0.931 . S
H474 C448 0.934 . S
H475 C449 0.930 . S
H476 C454 0.930 . S
H477 C455 0.931 . S
H478 C457 0.934 . S
H479 C458 0.930 . S
C480 C481 1.369 . S
C480 C482 1.419 . S
C480 H484 0.930 . S
C481 C480 1.369 . S
C481 C490 1.429 . S
C482 C480 1.419 . S
C482 C483 1.363 . S
C482 H485 0.929 . S
C483 C482 1.363 . S
C483 C489 1.428 . S
H484 C480 0.930 . S
H485 C482 0.929 . S
S486 N487 1.613 . S
S486 N488 1.610 . S
N487 S486 1.613 . S
N487 C490 1.350 . S
N488 S486 1.610 . S
N488 C489 1.351 . S
C489 C483 1.428 . S
C489 N488 1.351 . S
C489 C490 1.434 . S
C490 C481 1.429 . S
C490 N487 1.350 . S
C490 C489 1.434 . S
C491 C492 1.369 . S
C491 C493 1.419 . S
C491 H495 0.930 . S
C492 C491 1.369 . S
C492 C501 1.429 . S
C493 C491 1.419 . S
C493 C494 1.363 . S
C493 H496 0.929 . S
C494 C493 1.363 . S
C494 C500 1.428 . S
H495 C491 0.930 . S
H496 C493 0.929 . S
S497 N498 1.613 . S
S497 N499 1.610 . S
N498 S497 1.613 . S
N498 C501 1.350 . S
N499 S497 1.610 . S
N499 C500 1.351 . S
C500 C494 1.428 . S
C500 N499 1.351 . S
C500 C501 1.434 . S
C501 C492 1.429 . S
C501 N498 1.350 . S
C501 C500 1.434 . S
C502 C503 1.369 . S
C502 C504 1.419 . S
C502 H506 0.930 . S
C503 C502 1.369 . S
C503 C512 1.429 . S
C504 C502 1.419 . S
C504 C505 1.363 . S
C504 H507 0.929 . S
C505 C504 1.363 . S
C505 C511 1.428 . S
H506 C502 0.930 . S
H507 C504 0.929 . S
S508 N509 1.613 . S
S508 N510 1.610 . S
N509 S508 1.613 . S
N509 C512 1.350 . S
N510 S508 1.610 . S
N510 C511 1.351 . S
C511 C505 1.428 . S
C511 N510 1.351 . S
C511 C512 1.434 . S
C512 C503 1.429 . S
C512 N509 1.350 . S
C512 C511 1.434 . S
C513 C514 1.369 . S
C513 C515 1.419 . S
C513 H517 0.930 . S
C514 C513 1.369 . S
C514 C523 1.429 . S
C515 C513 1.419 . S
C515 C516 1.363 . S
C515 H518 0.929 . S
C516 C515 1.363 . S
C516 C522 1.428 . S
H517 C513 0.930 . S
H518 C515 0.929 . S
S519 N520 1.613 . S
S519 N521 1.610 . S
N520 S519 1.613 . S
N520 C523 1.350 . S
N521 S519 1.610 . S
N521 C522 1.351 . S
C522 C516 1.428 . S
C522 N521 1.351 . S
C522 C523 1.434 . S
C523 C514 1.429 . S
C523 N520 1.350 . S
C523 C522 1.434 . S
C524 C525 1.369 . S
C524 C526 1.419 . S
C524 H528 0.930 . S
C525 C524 1.369 . S
C525 C534 1.429 . S
C526 C524 1.419 . S
C526 C527 1.363 . S
C526 H529 0.929 . S
C527 C526 1.363 . S
C527 C533 1.428 . S
H528 C524 0.930 . S
H529 C526 0.929 . S
S530 N531 1.613 . S
S530 N532 1.610 . S
N531 S530 1.613 . S
N531 C534 1.350 . S
N532 S530 1.610 . S
N532 C533 1.351 . S
C533 C527 1.428 . S
C533 N532 1.351 . S
C533 C534 1.434 . S
C534 C525 1.429 . S
C534 N531 1.350 . S
C534 C533 1.434 . S
C535 C536 1.369 . S
C535 C537 1.419 . S
C535 H539 0.930 . S
C536 C535 1.369 . S
C536 C545 1.429 . S
C537 C535 1.419 . S
C537 C538 1.363 . S
C537 H540 0.929 . S
C538 C537 1.363 . S
C538 C544 1.428 . S
H539 C535 0.930 . S
H540 C537 0.929 . S
S541 N542 1.613 . S
S541 N543 1.610 . S
N542 S541 1.613 . S
N542 C545 1.350 . S
N543 S541 1.610 . S
N543 C544 1.349 . S
C544 C538 1.428 . S
C544 N543 1.349 . S
C544 C545 1.434 . S
C545 C536 1.429 . S
C545 N542 1.350 . S
C545 C544 1.434 . S
C546 C547 1.369 . S
C546 C548 1.419 . S
C546 H550 0.930 . S
C547 C546 1.369 . S
C547 C556 1.429 . S
C548 C546 1.419 . S
C548 C549 1.363 . S
C548 H551 0.929 . S
C549 C548 1.363 . S
C549 C555 1.428 . S
H550 C546 0.930 . S
H551 C548 0.929 . S
S552 N553 1.613 . S
S552 N554 1.610 . S
N553 S552 1.613 . S
N553 C556 1.350 . S
N554 S552 1.610 . S
N554 C555 1.351 . S
C555 C549 1.428 . S
C555 N554 1.351 . S
C555 C556 1.434 . S
C556 C547 1.429 . S
C556 N553 1.350 . S
C556 C555 1.434 . S
C557 C558 1.369 . S
C557 C559 1.419 . S
C557 H561 0.930 . S
C558 C557 1.369 . S
C558 C567 1.429 . S
C559 C557 1.419 . S
C559 C560 1.363 . S
C559 H562 0.929 . S
C560 C559 1.363 . S
C560 C566 1.428 . S
H561 C557 0.930 . S
H562 C559 0.929 . S
S563 N564 1.613 . S
S563 N565 1.610 . S
N564 S563 1.613 . S
N564 C567 1.350 . S
N565 S563 1.610 . S
N565 C566 1.351 . S
C566 C560 1.428 . S
C566 N565 1.351 . S
C566 C567 1.434 . S
C567 C558 1.429 . S
C567 N564 1.350 . S
C567 C566 1.434 . S
C568 C569 1.369 . S
C568 C570 1.419 . S
C568 H572 0.930 . S
C569 C568 1.369 . S
C569 C578 1.429 . S
C570 C568 1.419 . S
C570 C571 1.363 . S
C570 H573 0.929 . S
C571 C570 1.363 . S
C571 C577 1.428 . S
H572 C568 0.930 . S
H573 C570 0.929 . S
S574 N575 1.613 . S
S574 N576 1.610 . S
N575 S574 1.613 . S
N575 C578 1.350 . S
N576 S574 1.610 . S
N576 C577 1.351 . S
C577 C571 1.428 . S
C577 N576 1.351 . S
C577 C578 1.434 . S
C578 C569 1.429 . S
C578 N575 1.350 . S
C578 C577 1.434 . S
C579 C580 1.369 . S
C579 C581 1.419 . S
C579 H583 0.930 . S
C580 C579 1.369 . S
C580 C589 1.429 . S
C581 C579 1.419 . S
C581 C582 1.363 . S
C581 H584 0.929 . S
C582 C581 1.363 . S
C582 C588 1.428 . S
H583 C579 0.930 . S
H584 C581 0.929 . S
S585 N586 1.613 . S
S585 N587 1.610 . S
N586 S585 1.613 . S
N586 C589 1.350 . S
N587 S585 1.610 . S
N587 C588 1.351 . S
C588 C582 1.428 . S
C588 N587 1.351 . S
C588 C589 1.434 . S
C589 C580 1.429 . S
C589 N586 1.350 . S
C589 C588 1.434 . S
C590 C591 1.369 . S
C590 C592 1.419 . S
C590 H594 0.930 . S
C591 C590 1.369 . S
C591 C600 1.429 . S
C592 C590 1.419 . S
C592 C593 1.363 . S
C592 H595 0.929 . S
C593 C592 1.363 . S
C593 C599 1.428 . S
H594 C590 0.930 . S
H595 C592 0.929 . S
S596 N597 1.613 . S
S596 N598 1.610 . S
N597 S596 1.613 . S
N597 C600 1.350 . S
N598 S596 1.610 . S
N598 C599 1.351 . S
C599 C593 1.428 . S
C599 N598 1.351 . S
C599 C600 1.434 . S
C600 C591 1.429 . S
C600 N597 1.350 . S
C600 C599 1.434 . S
C601 C602 1.369 . S
C601 C603 1.419 . S
C601 H605 0.930 . S
C602 C601 1.369 . S
C602 C611 1.429 . S
C603 C601 1.419 . S
C603 C604 1.363 . S
C603 H606 0.929 . S
C604 C603 1.363 . S
C604 C610 1.428 . S
H605 C601 0.930 . S
H606 C603 0.929 . S
S607 N608 1.613 . S
S607 N609 1.610 . S
N608 S607 1.613 . S
N608 C611 1.350 . S
N609 S607 1.610 . S
N609 C610 1.351 . S
C610 C604 1.428 . S
C610 N609 1.351 . S
C610 C611 1.434 . S
C611 C602 1.429 . S
C611 N608 1.350 . S
C611 C610 1.434 . S
C612 C613 1.369 . S
C612 C614 1.419 . S
C612 H616 0.930 . S
C613 C612 1.369 . S
C613 C622 1.429 . S
C614 C612 1.419 . S
C614 C615 1.363 . S
C614 H617 0.929 . S
C615 C614 1.363 . S
C615 C621 1.428 . S
H616 C612 0.930 . S
H617 C614 0.929 . S
S618 N619 1.613 . S
S618 N620 1.610 . S
N619 S618 1.613 . S
N619 C622 1.350 . S
N620 S618 1.610 . S
N620 C621 1.351 . S
C621 C615 1.428 . S
C621 N620 1.351 . S
C621 C622 1.434 . S
C622 C613 1.429 . S
C622 N619 1.350 . S
C622 C621 1.434 . S
C623 C624 1.369 . S
C623 C625 1.419 . S
C623 H627 0.930 . S
C624 C623 1.369 . S
C624 C633 1.429 . S
C625 C623 1.419 . S
C625 C626 1.363 . S
C625 H628 0.929 . S
C626 C625 1.363 . S
C626 C632 1.428 . S
H627 C623 0.930 . S
H628 C625 0.929 . S
S629 N630 1.613 . S
S629 N631 1.610 . S
N630 S629 1.613 . S
N630 C633 1.350 . S
N631 S629 1.610 . S
N631 C632 1.351 . S
C632 C626 1.428 . S
C632 N631 1.351 . S
C632 C633 1.434 . S
C633 C624 1.429 . S
C633 N630 1.350 . S
C633 C632 1.434 . S
C634 C635 1.369 . S
C634 C636 1.419 . S
C634 H638 0.930 . S
C635 C634 1.369 . S
C635 C644 1.429 . S
C636 C634 1.419 . S
C636 C637 1.363 . S
C636 H639 0.929 . S
C637 C636 1.363 . S
C637 C643 1.428 . S
H638 C634 0.930 . S
H639 C636 0.929 . S
S640 N641 1.613 . S
S640 N642 1.610 . S
N641 S640 1.613 . S
N641 C644 1.350 . S
N642 S640 1.610 . S
N642 C643 1.351 . S
C643 C637 1.428 . S
C643 N642 1.351 . S
C643 C644 1.434 . S
C644 C635 1.429 . S
C644 N641 1.350 . S
C644 C643 1.434 . S
C645 C646 1.369 . S
C645 C647 1.419 . S
C645 H649 0.930 . S
C646 C645 1.369 . S
C646 C655 1.429 . S
C647 C645 1.419 . S
C647 C648 1.363 . S
C647 H650 0.929 . S
C648 C647 1.363 . S
C648 C654 1.428 . S
H649 C645 0.930 . S
H650 C647 0.929 . S
S651 N652 1.613 . S
S651 N653 1.610 . S
N652 S651 1.613 . S
N652 C655 1.350 . S
N653 S651 1.610 . S
N653 C654 1.351 . S
C654 C648 1.428 . S
C654 N653 1.351 . S
C654 C655 1.434 . S
C655 C646 1.429 . S
C655 N652 1.350 . S
C655 C654 1.434 . S
C656 C657 1.369 . S
C656 C658 1.419 . S
C656 H660 0.930 . S
C657 C656 1.369 . S
C657 C666 1.429 . S
C658 C656 1.419 . S
C658 C659 1.363 . S
C658 H661 0.929 . S
C659 C658 1.363 . S
C659 C665 1.428 . S
H660 C656 0.930 . S
H661 C658 0.929 . S
S662 N663 1.613 . S
S662 N664 1.610 . S
N663 S662 1.613 . S
N663 C666 1.350 . S
N664 S662 1.610 . S
N664 C665 1.351 . S
C665 C659 1.428 . S
C665 N664 1.351 . S
C665 C666 1.434 . S
C666 C657 1.429 . S
C666 N663 1.350 . S
C666 C665 1.434 . S
C667 C668 1.369 . S
C667 C669 1.419 . S
C667 H671 0.930 . S
C668 C667 1.369 . S
C668 C677 1.429 . S
C669 C667 1.419 . S
C669 C670 1.363 . S
C669 H672 0.929 . S
C670 C669 1.363 . S
C670 C676 1.428 . S
H671 C667 0.930 . S
H672 C669 0.929 . S
S673 N674 1.613 . S
S673 N675 1.610 . S
N674 S673 1.613 . S
N674 C677 1.350 . S
N675 S673 1.610 . S
N675 C676 1.351 . S
C676 C670 1.428 . S
C676 N675 1.351 . S
C676 C677 1.434 . S
C677 C668 1.429 . S
C677 N674 1.350 . S
C677 C676 1.434 . S
C678 C679 1.369 . S
C678 C680 1.419 . S
C678 H682 0.930 . S
C679 C678 1.369 . S
C679 C688 1.429 . S
C680 C678 1.419 . S
C680 C681 1.363 . S
C680 H683 0.929 . S
C681 C680 1.363 . S
C681 C687 1.428 . S
H682 C678 0.930 . S
H683 C680 0.929 . S
S684 N685 1.613 . S
S684 N686 1.610 . S
N685 S684 1.613 . S
N685 C688 1.350 . S
N686 S684 1.610 . S
N686 C687 1.351 . S
C687 C681 1.428 . S
C687 N686 1.351 . S
C687 C688 1.434 . S
C688 C679 1.429 . S
C688 N685 1.350 . S
C688 C687 1.434 . S
C689 C690 1.369 . S
C689 C691 1.419 . S
C689 H693 0.930 . S
C690 C689 1.369 . S
C690 C699 1.429 . S
C691 C689 1.419 . S
C691 C692 1.363 . S
C691 H694 0.929 . S
C692 C691 1.363 . S
C692 C698 1.428 . S
H693 C689 0.930 . S
H694 C691 0.929 . S
S695 N696 1.613 . S
S695 N697 1.610 . S
N696 S695 1.613 . S
N696 C699 1.350 . S
N697 S695 1.610 . S
N697 C698 1.351 . S
C698 C692 1.428 . S
C698 N697 1.351 . S
C698 C699 1.434 . S
C699 C690 1.429 . S
C699 N696 1.350 . S
C699 C698 1.434 . S
C700 C701 1.369 . S
C700 C702 1.419 . S
C700 H704 0.930 . S
C701 C700 1.369 . S
C701 C710 1.429 . S
C702 C700 1.419 . S
C702 C703 1.363 . S
C702 H705 0.929 . S
C703 C702 1.363 . S
C703 C709 1.428 . S
H704 C700 0.930 . S
H705 C702 0.929 . S
S706 N707 1.613 . S
S706 N708 1.610 . S
N707 S706 1.613 . S
N707 C710 1.350 . S
N708 S706 1.610 . S
N708 C709 1.351 . S
C709 C703 1.428 . S
C709 N708 1.351 . S
C709 C710 1.434 . S
C710 C701 1.429 . S
C710 N707 1.350 . S
C710 C709 1.434 . S
C711 C712 1.369 . S
C711 C713 1.419 . S
C711 H715 0.930 . S
C712 C711 1.369 . S
C712 C721 1.429 . S
C713 C711 1.419 . S
C713 C714 1.363 . S
C713 H716 0.929 . S
C714 C713 1.363 . S
C714 C720 1.428 . S
H715 C711 0.930 . S
H716 C713 0.929 . S
S717 N718 1.613 . S
S717 N719 1.610 . S
N718 S717 1.613 . S
N718 C721 1.350 . S
N719 S717 1.610 . S
N719 C720 1.351 . S
C720 C714 1.428 . S
C720 N719 1.351 . S
C720 C721 1.434 . S
C721 C712 1.429 . S
C721 N718 1.350 . S
C721 C720 1.434 . S
C722 C723 1.369 . S
C722 C724 1.419 . S
C722 H726 0.930 . S
C723 C722 1.369 . S
C723 C732 1.429 . S
C724 C722 1.419 . S
C724 C725 1.363 . S
C724 H727 0.929 . S
C725 C724 1.363 . S
C725 C731 1.428 . S
H726 C722 0.930 . S
H727 C724 0.929 . S
S728 N729 1.613 . S
S728 N730 1.610 . S
N729 S728 1.613 . S
N729 C732 1.350 . S
N730 S728 1.610 . S
N730 C731 1.351 . S
C731 C725 1.428 . S
C731 N730 1.351 . S
C731 C732 1.434 . S
C732 C723 1.429 . S
C732 N729 1.350 . S
C732 C731 1.434 . S
C733 C734 1.369 . S
C733 C735 1.419 . S
C733 H737 0.930 . S
C734 C733 1.369 . S
C734 C743 1.429 . S
C735 C733 1.419 . S
C735 C736 1.363 . S
C735 H738 0.929 . S
C736 C735 1.363 . S
C736 C742 1.428 . S
H737 C733 0.930 . S
H738 C735 0.929 . S
S739 N740 1.613 . S
S739 N741 1.610 . S
N740 S739 1.613 . S
N740 C743 1.350 . S
N741 S739 1.610 . S
N741 C742 1.351 . S
C742 C736 1.428 . S
C742 N741 1.351 . S
C742 C743 1.434 . S
C743 C734 1.429 . S
C743 N740 1.350 . S
C743 C742 1.434 . S
C481 C21 1.356 . S
C483 C327 1.564 . S
C492 C61 1.150 . S
C494 C376 1.149 . S
C505 C402 2.422 . S
C503 C82 2.463 . S
C514 C135 2.439 . S
C516 C450 2.381 . S
C527 C362 2.840 . S
C525 C15 2.595 . S
C538 C330 0.919 . S
C536 C42 0.955 . S
C549 C451 1.923 . S
C547 C101 1.951 . S
C560 C419 1.640 . S
C558 C122 1.651 . S
C569 C2 1.774 . S
C571 C447 1.965 . S
C582 C379 2.277 . S
C580 C95 2.356 . S
C591 C141 2.389 . S
C593 C331 2.384 . S
C602 C55 1.110 . S
C604 C416 1.162 . S
C615 C336 1.569 . S
C613 C181 1.532 . S
C624 C202 1.105 . S
C626 C367 1.128 . S
C635 C255 2.497 . S
C637 C411 2.446 . S
C646 C295 2.416 . S
C648 C459 2.357 . S
C657 C175 2.593 . S
C659 C371 2.815 . S
C670 C339 0.947 . S
C668 C221 0.955 . S
C681 C442 1.861 . S
C679 C242 1.924 . S
C692 C410 1.697 . S
C690 C301 1.710 . S
C701 C162 1.918 . S
C703 C456 1.961 . S
C714 C370 2.318 . S
C712 C261 2.385 . S
C725 C322 2.357 . S
C723 C282 2.362 . S
C734 C215 1.134 . S
C736 C407 1.173 . S
