# Generated by pormake.
# Topology iac, (4,6)-cn, num edge types: 1
# Building blocks:
#     Node 0, Type 0, BuildingBlock: UXUYUI_clean_sbu_0, # of connection points: 4
#     Node 1, Type 0, BuildingBlock: UXUYUI_clean_sbu_0, # of connection points: 4
#     Node 2, Type 0, BuildingBlock: UXUYUI_clean_sbu_0, # of connection points: 4
#     Node 3, Type 0, BuildingBlock: UXUYUI_clean_sbu_0, # of connection points: 4
#     Node 4, Type 0, BuildingBlock: UXUYUI_clean_sbu_0, # of connection points: 4
#     Node 5, Type 0, BuildingBlock: UXUYUI_clean_sbu_0, # of connection points: 4
#     Node 6, Type 0, BuildingBlock: UXUYUI_clean_sbu_0, # of connection points: 4
#     Node 7, Type 0, BuildingBlock: UXUYUI_clean_sbu_0, # of connection points: 4
#     Node 8, Type 0, BuildingBlock: UXUYUI_clean_sbu_0, # of connection points: 4
#     Node 9, Type 0, BuildingBlock: UXUYUI_clean_sbu_0, # of connection points: 4
#     Node 10, Type 0, BuildingBlock: UXUYUI_clean_sbu_0, # of connection points: 4
#     Node 11, Type 0, BuildingBlock: UXUYUI_clean_sbu_0, # of connection points: 4
#     Node 12, Type 0, BuildingBlock: UXUYUI_clean_sbu_0, # of connection points: 4
#     Node 13, Type 0, BuildingBlock: UXUYUI_clean_sbu_0, # of connection points: 4
#     Node 14, Type 0, BuildingBlock: UXUYUI_clean_sbu_0, # of connection points: 4
#     Node 15, Type 0, BuildingBlock: UXUYUI_clean_sbu_0, # of connection points: 4
#     Node 16, Type 0, BuildingBlock: UXUYUI_clean_sbu_0, # of connection points: 4
#     Node 17, Type 0, BuildingBlock: UXUYUI_clean_sbu_0, # of connection points: 4
#     Node 18, Type 0, BuildingBlock: UXUYUI_clean_sbu_0, # of connection points: 4
#     Node 19, Type 0, BuildingBlock: UXUYUI_clean_sbu_0, # of connection points: 4
#     Node 20, Type 0, BuildingBlock: UXUYUI_clean_sbu_0, # of connection points: 4
#     Node 21, Type 0, BuildingBlock: UXUYUI_clean_sbu_0, # of connection points: 4
#     Node 22, Type 0, BuildingBlock: UXUYUI_clean_sbu_0, # of connection points: 4
#     Node 23, Type 0, BuildingBlock: UXUYUI_clean_sbu_0, # of connection points: 4
#     Node 24, Type 1, BuildingBlock: CIFDUS_clean_sbu_1, # of connection points: 6
#     Node 25, Type 1, BuildingBlock: CIFDUS_clean_sbu_1, # of connection points: 6
#     Node 26, Type 1, BuildingBlock: CIFDUS_clean_sbu_1, # of connection points: 6
#     Node 27, Type 1, BuildingBlock: CIFDUS_clean_sbu_1, # of connection points: 6
#     Node 28, Type 1, BuildingBlock: CIFDUS_clean_sbu_1, # of connection points: 6
#     Node 29, Type 1, BuildingBlock: CIFDUS_clean_sbu_1, # of connection points: 6
#     Node 30, Type 1, BuildingBlock: CIFDUS_clean_sbu_1, # of connection points: 6
#     Node 31, Type 1, BuildingBlock: CIFDUS_clean_sbu_1, # of connection points: 6
#     Node 32, Type 1, BuildingBlock: CIFDUS_clean_sbu_1, # of connection points: 6
#     Node 33, Type 1, BuildingBlock: CIFDUS_clean_sbu_1, # of connection points: 6
#     Node 34, Type 1, BuildingBlock: CIFDUS_clean_sbu_1, # of connection points: 6
#     Node 35, Type 1, BuildingBlock: CIFDUS_clean_sbu_1, # of connection points: 6
#     Node 36, Type 1, BuildingBlock: CIFDUS_clean_sbu_1, # of connection points: 6
#     Node 37, Type 1, BuildingBlock: CIFDUS_clean_sbu_1, # of connection points: 6
#     Node 38, Type 1, BuildingBlock: CIFDUS_clean_sbu_1, # of connection points: 6
#     Node 39, Type 1, BuildingBlock: CIFDUS_clean_sbu_1, # of connection points: 6
#     Edge 40, Type (0, 1), BuildingBlock: ZUJKAS_clean_linker_0, # of connection points: 2
#     Edge 41, Type (0, 1), BuildingBlock: ZUJKAS_clean_linker_0, # of connection points: 2
#     Edge 42, Type (0, 1), BuildingBlock: ZUJKAS_clean_linker_0, # of connection points: 2
#     Edge 43, Type (0, 1), BuildingBlock: ZUJKAS_clean_linker_0, # of connection points: 2
#     Edge 44, Type (0, 1), BuildingBlock: ZUJKAS_clean_linker_0, # of connection points: 2
#     Edge 45, Type (0, 1), BuildingBlock: ZUJKAS_clean_linker_0, # of connection points: 2
#     Edge 46, Type (0, 1), BuildingBlock: ZUJKAS_clean_linker_0, # of connection points: 2
#     Edge 47, Type (0, 1), BuildingBlock: ZUJKAS_clean_linker_0, # of connection points: 2
#     Edge 48, Type (0, 1), BuildingBlock: ZUJKAS_clean_linker_0, # of connection points: 2
#     Edge 49, Type (0, 1), BuildingBlock: ZUJKAS_clean_linker_0, # of connection points: 2
#     Edge 50, Type (0, 1), BuildingBlock: ZUJKAS_clean_linker_0, # of connection points: 2
#     Edge 51, Type (0, 1), BuildingBlock: ZUJKAS_clean_linker_0, # of connection points: 2
#     Edge 52, Type (0, 1), BuildingBlock: ZUJKAS_clean_linker_0, # of connection points: 2
#     Edge 53, Type (0, 1), BuildingBlock: ZUJKAS_clean_linker_0, # of connection points: 2
#     Edge 54, Type (0, 1), BuildingBlock: ZUJKAS_clean_linker_0, # of connection points: 2
#     Edge 55, Type (0, 1), BuildingBlock: ZUJKAS_clean_linker_0, # of connection points: 2
#     Edge 56, Type (0, 1), BuildingBlock: ZUJKAS_clean_linker_0, # of connection points: 2
#     Edge 57, Type (0, 1), BuildingBlock: ZUJKAS_clean_linker_0, # of connection points: 2
#     Edge 58, Type (0, 1), BuildingBlock: ZUJKAS_clean_linker_0, # of connection points: 2
#     Edge 59, Type (0, 1), BuildingBlock: ZUJKAS_clean_linker_0, # of connection points: 2
#     Edge 60, Type (0, 1), BuildingBlock: ZUJKAS_clean_linker_0, # of connection points: 2
#     Edge 61, Type (0, 1), BuildingBlock: ZUJKAS_clean_linker_0, # of connection points: 2
#     Edge 62, Type (0, 1), BuildingBlock: ZUJKAS_clean_linker_0, # of connection points: 2
#     Edge 63, Type (0, 1), BuildingBlock: ZUJKAS_clean_linker_0, # of connection points: 2
#     Edge 64, Type (0, 1), BuildingBlock: ZUJKAS_clean_linker_0, # of connection points: 2
#     Edge 65, Type (0, 1), BuildingBlock: ZUJKAS_clean_linker_0, # of connection points: 2
#     Edge 66, Type (0, 1), BuildingBlock: ZUJKAS_clean_linker_0, # of connection points: 2
#     Edge 67, Type (0, 1), BuildingBlock: ZUJKAS_clean_linker_0, # of connection points: 2
#     Edge 68, Type (0, 1), BuildingBlock: ZUJKAS_clean_linker_0, # of connection points: 2
#     Edge 69, Type (0, 1), BuildingBlock: ZUJKAS_clean_linker_0, # of connection points: 2
#     Edge 70, Type (0, 1), BuildingBlock: ZUJKAS_clean_linker_0, # of connection points: 2
#     Edge 71, Type (0, 1), BuildingBlock: ZUJKAS_clean_linker_0, # of connection points: 2
#     Edge 72, Type (0, 1), BuildingBlock: ZUJKAS_clean_linker_0, # of connection points: 2
#     Edge 73, Type (0, 1), BuildingBlock: ZUJKAS_clean_linker_0, # of connection points: 2
#     Edge 74, Type (0, 1), BuildingBlock: ZUJKAS_clean_linker_0, # of connection points: 2
#     Edge 75, Type (0, 1), BuildingBlock: ZUJKAS_clean_linker_0, # of connection points: 2
#     Edge 76, Type (0, 1), BuildingBlock: ZUJKAS_clean_linker_0, # of connection points: 2
#     Edge 77, Type (0, 1), BuildingBlock: ZUJKAS_clean_linker_0, # of connection points: 2
#     Edge 78, Type (0, 1), BuildingBlock: ZUJKAS_clean_linker_0, # of connection points: 2
#     Edge 79, Type (0, 1), BuildingBlock: ZUJKAS_clean_linker_0, # of connection points: 2
#     Edge 80, Type (0, 1), BuildingBlock: ZUJKAS_clean_linker_0, # of connection points: 2
#     Edge 81, Type (0, 1), BuildingBlock: ZUJKAS_clean_linker_0, # of connection points: 2
#     Edge 82, Type (0, 1), BuildingBlock: ZUJKAS_clean_linker_0, # of connection points: 2
#     Edge 83, Type (0, 1), BuildingBlock: ZUJKAS_clean_linker_0, # of connection points: 2
#     Edge 84, Type (0, 1), BuildingBlock: ZUJKAS_clean_linker_0, # of connection points: 2
#     Edge 85, Type (0, 1), BuildingBlock: ZUJKAS_clean_linker_0, # of connection points: 2
#     Edge 86, Type (0, 1), BuildingBlock: ZUJKAS_clean_linker_0, # of connection points: 2
#     Edge 87, Type (0, 1), BuildingBlock: ZUJKAS_clean_linker_0, # of connection points: 2
#     Edge 88, Type (0, 1), BuildingBlock: ZUJKAS_clean_linker_0, # of connection points: 2
#     Edge 89, Type (0, 1), BuildingBlock: ZUJKAS_clean_linker_0, # of connection points: 2
#     Edge 90, Type (0, 1), BuildingBlock: ZUJKAS_clean_linker_0, # of connection points: 2
#     Edge 91, Type (0, 1), BuildingBlock: ZUJKAS_clean_linker_0, # of connection points: 2
#     Edge 92, Type (0, 1), BuildingBlock: ZUJKAS_clean_linker_0, # of connection points: 2
#     Edge 93, Type (0, 1), BuildingBlock: ZUJKAS_clean_linker_0, # of connection points: 2
#     Edge 94, Type (0, 1), BuildingBlock: ZUJKAS_clean_linker_0, # of connection points: 2
#     Edge 95, Type (0, 1), BuildingBlock: ZUJKAS_clean_linker_0, # of connection points: 2
#     Edge 96, Type (0, 1), BuildingBlock: ZUJKAS_clean_linker_0, # of connection points: 2
#     Edge 97, Type (0, 1), BuildingBlock: ZUJKAS_clean_linker_0, # of connection points: 2
#     Edge 98, Type (0, 1), BuildingBlock: ZUJKAS_clean_linker_0, # of connection points: 2
#     Edge 99, Type (0, 1), BuildingBlock: ZUJKAS_clean_linker_0, # of connection points: 2
#     Edge 100, Type (0, 1), BuildingBlock: ZUJKAS_clean_linker_0, # of connection points: 2
#     Edge 101, Type (0, 1), BuildingBlock: ZUJKAS_clean_linker_0, # of connection points: 2
#     Edge 102, Type (0, 1), BuildingBlock: ZUJKAS_clean_linker_0, # of connection points: 2
#     Edge 103, Type (0, 1), BuildingBlock: ZUJKAS_clean_linker_0, # of connection points: 2
#     Edge 104, Type (0, 1), BuildingBlock: ZUJKAS_clean_linker_0, # of connection points: 2
#     Edge 105, Type (0, 1), BuildingBlock: ZUJKAS_clean_linker_0, # of connection points: 2
#     Edge 106, Type (0, 1), BuildingBlock: ZUJKAS_clean_linker_0, # of connection points: 2
#     Edge 107, Type (0, 1), BuildingBlock: ZUJKAS_clean_linker_0, # of connection points: 2
#     Edge 108, Type (0, 1), BuildingBlock: ZUJKAS_clean_linker_0, # of connection points: 2
#     Edge 109, Type (0, 1), BuildingBlock: ZUJKAS_clean_linker_0, # of connection points: 2
#     Edge 110, Type (0, 1), BuildingBlock: ZUJKAS_clean_linker_0, # of connection points: 2
#     Edge 111, Type (0, 1), BuildingBlock: ZUJKAS_clean_linker_0, # of connection points: 2
#     Edge 112, Type (0, 1), BuildingBlock: ZUJKAS_clean_linker_0, # of connection points: 2
#     Edge 113, Type (0, 1), BuildingBlock: ZUJKAS_clean_linker_0, # of connection points: 2
#     Edge 114, Type (0, 1), BuildingBlock: ZUJKAS_clean_linker_0, # of connection points: 2
#     Edge 115, Type (0, 1), BuildingBlock: ZUJKAS_clean_linker_0, # of connection points: 2
#     Edge 116, Type (0, 1), BuildingBlock: ZUJKAS_clean_linker_0, # of connection points: 2
#     Edge 117, Type (0, 1), BuildingBlock: ZUJKAS_clean_linker_0, # of connection points: 2
#     Edge 118, Type (0, 1), BuildingBlock: ZUJKAS_clean_linker_0, # of connection points: 2
#     Edge 119, Type (0, 1), BuildingBlock: ZUJKAS_clean_linker_0, # of connection points: 2
#     Edge 120, Type (0, 1), BuildingBlock: ZUJKAS_clean_linker_0, # of connection points: 2
#     Edge 121, Type (0, 1), BuildingBlock: ZUJKAS_clean_linker_0, # of connection points: 2
#     Edge 122, Type (0, 1), BuildingBlock: ZUJKAS_clean_linker_0, # of connection points: 2
#     Edge 123, Type (0, 1), BuildingBlock: ZUJKAS_clean_linker_0, # of connection points: 2
#     Edge 124, Type (0, 1), BuildingBlock: ZUJKAS_clean_linker_0, # of connection points: 2
#     Edge 125, Type (0, 1), BuildingBlock: ZUJKAS_clean_linker_0, # of connection points: 2
#     Edge 126, Type (0, 1), BuildingBlock: ZUJKAS_clean_linker_0, # of connection points: 2
#     Edge 127, Type (0, 1), BuildingBlock: ZUJKAS_clean_linker_0, # of connection points: 2
#     Edge 128, Type (0, 1), BuildingBlock: ZUJKAS_clean_linker_0, # of connection points: 2
#     Edge 129, Type (0, 1), BuildingBlock: ZUJKAS_clean_linker_0, # of connection points: 2
#     Edge 130, Type (0, 1), BuildingBlock: ZUJKAS_clean_linker_0, # of connection points: 2
#     Edge 131, Type (0, 1), BuildingBlock: ZUJKAS_clean_linker_0, # of connection points: 2
#     Edge 132, Type (0, 1), BuildingBlock: ZUJKAS_clean_linker_0, # of connection points: 2
#     Edge 133, Type (0, 1), BuildingBlock: ZUJKAS_clean_linker_0, # of connection points: 2
#     Edge 134, Type (0, 1), BuildingBlock: ZUJKAS_clean_linker_0, # of connection points: 2
#     Edge 135, Type (0, 1), BuildingBlock: ZUJKAS_clean_linker_0, # of connection points: 2
# Relax obj value: 0.128
# Max RMSD: 0.164
# Mean RMSD: 0.153
data_MOF--net-iac--node1-UXUYUI_clean_sbu_0--node2-CIFDUS_clean_sbu_1--edge1-ZUJKAS_clean_linker_0
_symmetry_space_group_name_H-M    P1
_symmetry_Int_Tables_number       1
_symmetry_cell_setting            triclinic
loop_
_symmetry_equiv_pos_as_xyz
'x, y, z'
_cell_length_a     82.462716
_cell_length_b     82.298829
_cell_length_c     82.461393
_cell_angle_alpha  90.002469
_cell_angle_beta   89.938485
_cell_angle_gamma 90.014704
loop_
_atom_site_label
_atom_site_type_symbol
_atom_site_fract_x
_atom_site_fract_y
_atom_site_fract_z
_atom_type_partial_charge
Li0 Li -0.0022 0.2679 0.10868 0.0
Li1 Li 0.01244 0.25332 0.13094 0.0
Li2 Li -0.0019 0.23786 0.10879 0.0
Li3 Li 0.98241 0.25229 0.13052 0.0
C4 C 0.02789 0.25436 0.09514 0.0
N5 N 0.05063 0.25631 0.0706 0.0
C6 C 0.04406 0.25786 0.09878 0.0
C7 C 0.02327 0.2518 0.07904 0.0
C8 C 0.05538 0.2588 0.0862 0.0
C9 C 0.03495 0.25286 0.0668 0.0
C10 C -0.00106 0.28263 0.14463 0.0
C11 C -0.00239 0.29 0.17289 0.0
N12 N 0.00327 0.30507 0.16915 0.0
C13 C 0.00465 0.29821 0.14103 0.0
C14 C 0.99529 0.27849 0.16065 0.0
C15 C 0.0068 0.30938 0.15361 0.0
C16 C 0.98218 0.29425 0.09473 0.0
N17 N -0.00308 0.28697 0.09581 0.0
C18 C 0.00903 0.30795 0.07981 0.0
C19 C 0.01026 0.29347 0.08859 0.0
C20 C 0.99397 0.31588 0.07869 0.0
C21 C 0.98042 0.30878 0.08621 0.0
H22 H 0.97182 0.28882 0.1007 0.0
H23 H 0.02191 0.2876 0.08986 0.0
C24 C 0.03775 0.23849 0.1481 0.0
N25 N 0.03128 0.25318 0.14425 0.0
C26 C 0.05184 0.23753 0.15742 0.0
C27 C 0.05252 0.26687 0.15848 0.0
C28 C 0.0384 0.26726 0.14912 0.0
C29 C 0.05945 0.25185 0.16273 0.0
H30 H 0.03202 0.22749 0.14379 0.0
H31 H 0.03331 0.27879 0.14553 0.0
C32 C 0.96833 0.24998 0.09442 0.0
N33 N 0.94603 0.24507 0.06993 0.0
C34 C 0.95307 0.24348 0.09798 0.0
C35 C 0.97221 0.2541 0.07845 0.0
C36 C 0.94197 0.24106 0.08542 0.0
C37 C 0.96078 0.25148 0.06622 0.0
C38 C -0.00317 0.22272 0.14454 0.0
C39 C 0.99351 0.20653 0.14065 0.0
C40 C -0.0007 0.22715 0.1607 0.0
C41 C 0.99267 0.195 0.15306 0.0
C42 C -0.00166 0.21526 0.17277 0.0
N43 N 0.99508 0.19957 0.16872 0.0
C44 C 0.01494 0.21298 0.09347 0.0
C45 C 0.98647 0.21047 0.09057 0.0
C46 C 0.01739 0.19839 0.08524 0.0
N47 N -0.0003 0.2187 0.096 0.0
C48 C 0.98836 0.19572 0.08233 0.0
C49 C 0.004 0.18938 0.07975 0.0
H50 H 0.02523 0.21963 0.09815 0.0
H51 H 0.97445 0.21509 0.09303 0.0
C52 C 0.95496 0.26725 0.14272 0.0
N53 N 0.96308 0.2529 0.1431 0.0
C54 C 0.9403 0.26901 0.151 0.0
C55 C 0.94273 0.24123 0.1602 0.0
C56 C 0.95732 0.23996 0.15161 0.0
C57 C 0.93394 0.25586 0.15982 0.0
H58 H 0.95985 0.27731 0.13582 0.0
H59 H 0.96388 0.22861 0.15156 0.0
O60 O 0.01676 0.25312 0.10737 0.0
O61 O -0.00337 0.27163 0.13243 0.0
O62 O 0.97916 0.25278 0.10664 0.0
O63 O -0.00197 0.23405 0.13248 0.0
H64 H 0.04783 0.25978 0.11121 0.0
H65 H 0.01085 0.24887 0.07606 0.0
H66 H 0.06795 0.26149 0.08883 0.0
H67 H 0.03157 0.25089 0.05428 0.0
H68 H 0.99486 0.28697 0.18536 0.0
H69 H 0.00743 0.30162 0.12865 0.0
H70 H 0.99063 0.26656 0.16359 0.0
H71 H 0.01125 0.32147 0.15103 0.0
H72 H 0.01982 0.31314 0.07439 0.0
H73 H 0.96857 0.31442 0.08552 0.0
H74 H 0.05668 0.22569 0.16047 0.0
H75 H 0.05815 0.27822 0.16202 0.0
H76 H 0.94985 0.24037 0.11033 0.0
H77 H 0.98385 0.25941 0.07554 0.0
H78 H 0.93012 0.23604 0.08799 0.0
H79 H 0.96361 0.25461 0.0538 0.0
H80 H 0.99167 0.2029 0.12816 0.0
H81 H 0.00205 0.2396 0.16388 0.0
H82 H 0.99013 0.18242 0.15023 0.0
H83 H 0.00025 0.2185 0.18533 0.0
H84 H 0.02967 0.19413 0.08336 0.0
H85 H 0.97767 0.18909 0.07854 0.0
H86 H 0.93401 0.28055 0.15052 0.0
H87 H 0.93815 0.23075 0.16671 0.0
Li88 Li 0.98621 0.74595 0.36083 0.0
Li89 Li -0.00099 0.76198 0.38322 0.0
Li90 Li 0.01535 0.74815 0.36206 0.0
Li91 Li 0.00074 0.73245 0.38337 0.0
C92 C 0.00252 0.77787 0.34846 0.0
N93 N 0.00815 0.8021 0.32594 0.0
C94 C 0.00114 0.79419 0.35292 0.0
C95 C 0.00678 0.77387 0.33254 0.0
C96 C 0.00401 0.80627 0.34136 0.0
C97 C 0.0096 0.7863 0.32134 0.0
C98 C 0.97051 0.74497 0.39707 0.0
C99 C 0.96541 0.74212 0.42572 0.0
N100 N 0.9492 0.74325 0.42288 0.0
C101 C 0.95381 0.74605 0.39441 0.0
C102 C 0.97638 0.74297 0.41283 0.0
C103 C 0.94323 0.74519 0.40763 0.0
C104 C 0.95775 0.73201 0.34974 0.0
N105 N 0.96825 0.74446 0.34726 0.0
C106 C 0.95109 0.75607 0.3272 0.0
C107 C 0.9654 0.75621 0.33609 0.0
C108 C 0.93957 0.74384 0.33007 0.0
C109 C 0.9432 0.73144 0.3412 0.0
H110 H 0.96042 0.72291 0.35883 0.0
H111 H 0.97394 0.766 0.33446 0.0
C112 C 0.01168 0.78944 0.39761 0.0
N113 N -0.00209 0.78053 0.39613 0.0
C114 C 0.01145 0.80403 0.40612 0.0
C115 C 0.98295 0.79969 0.41176 0.0
C116 C 0.98372 0.78523 0.40305 0.0
C117 C -0.00313 0.80943 0.41309 0.0
H118 H 0.0227 0.78541 0.39174 0.0
H119 H 0.97291 0.778 0.40146 0.0
C120 C 0.00043 0.71703 0.34771 0.0
N121 N -0.00219 0.69446 0.32305 0.0
C122 C 0.00132 0.70043 0.35118 0.0
C123 C -0.00185 0.72216 0.33173 0.0
C124 C 1e-05 0.68921 0.33853 0.0
C125 C -0.00317 0.71056 0.31942 0.0
C126 C 0.0304 0.74953 0.39717 0.0
C127 C 0.0465 0.74641 0.39285 0.0
C128 C 0.02664 0.75372 0.41316 0.0
C129 C 0.05859 0.74747 0.40466 0.0
C130 C 0.03908 0.75465 0.42461 0.0
N131 N 0.05466 0.75154 0.42016 0.0
C132 C 0.04228 0.76372 0.34876 0.0
C133 C 0.03928 0.73594 0.3416 0.0
C134 C 0.05612 0.765 0.33916 0.0
N135 N 0.03415 0.7494 0.34962 0.0
C136 C 0.05302 0.73667 0.33185 0.0
C137 C 0.06156 0.75135 0.33051 0.0
H138 H 0.03791 0.77415 0.35546 0.0
H139 H 0.03276 0.72463 0.34283 0.0
C140 C 0.98723 0.70462 0.39618 0.0
N141 N 0.00063 0.71419 0.39668 0.0
C142 C 0.98626 0.69086 0.40595 0.0
C143 C 0.01285 0.69728 0.41661 0.0
C144 C 0.01334 0.71083 0.40655 0.0
C145 C -0.00078 0.68705 0.41632 0.0
H146 H 0.97736 0.70769 0.38811 0.0
H147 H 0.02387 0.7186 0.40662 0.0
O148 O -0.00068 0.76594 0.35958 0.0
O149 O 0.98098 0.74594 0.38423 0.0
O150 O 0.00226 0.72813 0.35992 0.0
O151 O 0.01846 0.74857 0.3857 0.0
H152 H -0.00229 0.79752 0.36515 0.0
H153 H 0.00793 0.76132 0.32886 0.0
H154 H 0.0029 0.81895 0.34463 0.0
H155 H 0.01292 0.78337 0.30898 0.0
H156 H 0.96977 0.74057 0.43799 0.0
H157 H 0.94908 0.74764 0.38228 0.0
H158 H 0.98926 0.74202 0.41507 0.0
H159 H 0.93027 0.74606 0.40577 0.0
H160 H 0.94883 0.76572 0.31856 0.0
H161 H 0.93455 0.72191 0.34391 0.0
H162 H 0.02238 0.81132 0.40665 0.0
H163 H 0.97152 0.80338 0.41708 0.0
H164 H 0.00321 0.69627 0.36348 0.0
H165 H -0.00259 0.73494 0.32884 0.0
H166 H 0.00079 0.67633 0.34102 0.0
H167 H 0.99506 0.71435 0.30699 0.0
H168 H 0.04961 0.74315 0.38052 0.0
H169 H 0.01427 0.75629 0.41669 0.0
H170 H 0.0711 0.74507 0.4015 0.0
H171 H 0.03635 0.75788 0.43704 0.0
H172 H 0.06242 0.77653 0.3384 0.0
H173 H 0.05709 0.72579 0.32566 0.0
H174 H 0.97565 0.68315 0.40517 0.0
H175 H 0.02301 0.69488 0.42458 0.0
Li176 Li 0.51309 0.75192 0.63001 0.0
Li177 Li 0.49816 0.76634 0.60768 0.0
Li178 Li 0.48304 0.75132 0.62989 0.0
Li179 Li 0.49832 0.73628 0.60807 0.0
C180 C 0.49902 0.78166 0.6435 0.0
N181 N 0.50172 0.80449 0.66789 0.0
C182 C 0.50356 0.79759 0.63981 0.0
C183 C 0.49575 0.77734 0.65956 0.0
C184 C 0.50488 0.80896 0.65232 0.0
C185 C 0.49722 0.78906 0.67173 0.0
C186 C 0.52846 0.75144 0.59435 0.0
C187 C 0.53618 0.74757 0.56641 0.0
N188 N 0.55179 0.75125 0.57029 0.0
C189 C 0.54457 0.75513 0.59808 0.0
C190 C 0.52421 0.74757 0.57841 0.0
C191 C 0.55619 0.75499 0.58573 0.0
C192 C 0.53913 0.73733 0.64633 0.0
N193 N 0.53201 0.75188 0.64319 0.0
C194 C 0.55239 0.76578 0.65841 0.0
C195 C 0.5384 0.766 0.64889 0.0
C196 C 0.55998 0.75091 0.66195 0.0
C197 C 0.55319 0.73655 0.65573 0.0
H198 H 0.53388 0.7263 0.64148 0.0
H199 H 0.53275 0.77745 0.64591 0.0
C200 C 0.48319 0.79356 0.59444 0.0
N201 N 0.49744 0.7853 0.59458 0.0
C202 C 0.48183 0.80815 0.58591 0.0
C203 C 0.50981 0.80535 0.57762 0.0
C204 C 0.51064 0.79082 0.58638 0.0
C205 C 0.49529 0.81432 0.57743 0.0
H206 H 0.47295 0.78894 0.60124 0.0
H207 H 0.5219 0.78412 0.58682 0.0
C208 C 0.49723 0.72171 0.64412 0.0
N209 N 0.49516 0.69896 0.66866 0.0
C210 C 0.49313 0.70563 0.64054 0.0
C211 C 0.50035 0.72622 0.66015 0.0
C212 C 0.49213 0.6943 0.65313 0.0
C213 C 0.49921 0.71454 0.6724 0.0
C214 C 0.4683 0.75097 0.59387 0.0
C215 C 0.45203 0.74775 0.59736 0.0
C216 C 0.47303 0.7542 0.57792 0.0
C217 C 0.44072 0.74773 0.58475 0.0
C218 C 0.46135 0.75406 0.56565 0.0
N219 N 0.44558 0.75085 0.56929 0.0
C220 C 0.45654 0.76678 0.64407 0.0
C221 C 0.45749 0.7386 0.64985 0.0
C222 C 0.44206 0.76839 0.65271 0.0
N223 N 0.4639 0.75207 0.64278 0.0
C224 C 0.44301 0.73965 0.65865 0.0
C225 C 0.43502 0.7547 0.66008 0.0
H226 H 0.46183 0.77725 0.63815 0.0
H227 H 0.46347 0.727 0.64851 0.0
C228 C 0.51376 0.70892 0.59595 0.0
N229 N 0.49943 0.71704 0.5954 0.0
C230 C 0.51562 0.69422 0.58774 0.0
C231 C 0.48799 0.6966 0.57825 0.0
C232 C 0.48664 0.71126 0.58674 0.0
C233 C 0.50259 0.68778 0.57886 0.0
H234 H 0.5237 0.71382 0.60298 0.0
H235 H 0.47531 0.71784 0.58666 0.0
O236 O 0.49754 0.77045 0.63135 0.0
O237 O 0.51702 0.75139 0.60634 0.0
O238 O 0.49854 0.73284 0.63189 0.0
O239 O 0.47946 0.75118 0.60612 0.0
H240 H 0.50605 0.80113 0.62741 0.0
H241 H 0.49201 0.76511 0.66258 0.0
H242 H 0.50841 0.82134 0.64966 0.0
H243 H 0.49474 0.7859 0.68422 0.0
H244 H 0.53308 0.7446 0.55401 0.0
H245 H 0.54806 0.75807 0.61039 0.0
H246 H 0.51183 0.74451 0.57536 0.0
H247 H 0.56871 0.75785 0.58844 0.0
H248 H 0.55739 0.77717 0.66271 0.0
H249 H 0.55859 0.72482 0.65823 0.0
H250 H 0.47048 0.81474 0.58638 0.0
H251 H 0.52045 0.80952 0.57115 0.0
H252 H 0.49077 0.70193 0.62816 0.0
H253 H 0.50374 0.73857 0.66309 0.0
H254 H 0.48897 0.68181 0.65055 0.0
H255 H 0.50161 0.71785 0.68486 0.0
H256 H 0.44819 0.74531 0.60968 0.0
H257 H 0.48554 0.75689 0.57505 0.0
H258 H 0.42808 0.74525 0.58727 0.0
H259 H 0.46482 0.75654 0.55324 0.0
H260 H 0.43624 0.78017 0.65322 0.0
H261 H 0.43815 0.7288 0.66426 0.0
H262 H 0.52713 0.68792 0.58838 0.0
H263 H 0.47759 0.69197 0.57171 0.0
Li264 Li 0.48636 0.24815 0.8619 0.0
Li265 Li 0.5 0.26261 0.88433 0.0
Li266 Li 0.51589 0.24787 0.86288 0.0
Li267 Li 0.50088 0.23312 0.88401 0.0
C268 C 0.49888 0.2781 0.84877 0.0
N269 N 0.49413 0.30093 0.82467 0.0
C270 C 0.49418 0.29392 0.85278 0.0
C271 C 0.50127 0.27392 0.83252 0.0
C272 C 0.49182 0.30528 0.84041 0.0
C273 C 0.49876 0.28562 0.82051 0.0
C274 C 0.47035 0.24973 0.89733 0.0
C275 C 0.4628 0.24979 0.92559 0.0
N276 N 0.44744 0.25409 0.92141 0.0
C277 C 0.45449 0.25412 0.8933 0.0
C278 C 0.47455 0.2475 0.91359 0.0
C279 C 0.44308 0.25628 0.90566 0.0
C280 C 0.46181 0.23309 0.84447 0.0
N281 N 0.46805 0.24781 0.84853 0.0
C282 C 0.44627 0.26153 0.83543 0.0
C283 C 0.46068 0.2619 0.84419 0.0
C284 C 0.43931 0.24649 0.83142 0.0
C285 C 0.44734 0.23213 0.83582 0.0
H286 H 0.46784 0.2221 0.84838 0.0
H287 H 0.46564 0.27341 0.84805 0.0
C288 C 0.51311 0.28765 0.9032 0.0
N289 N 0.49916 0.28129 0.89717 0.0
C290 C 0.51294 0.30277 0.91082 0.0
C291 C 0.48398 0.30418 0.90619 0.0
C292 C 0.48471 0.28904 0.89873 0.0
C293 C 0.4983 0.31137 0.91193 0.0
H294 H 0.52447 0.28133 0.90143 0.0
H295 H 0.47391 0.28384 0.89346 0.0
C296 C 0.50403 0.21836 0.84822 0.0
N297 N 0.50959 0.19617 0.8237 0.0
C298 C 0.50943 0.2027 0.85193 0.0
C299 C 0.50134 0.22271 0.83207 0.0
C300 C 0.5122 0.19167 0.83935 0.0
C301 C 0.50427 0.21133 0.81984 0.0
C302 C 0.53021 0.2457 0.89868 0.0
C303 C 0.54603 0.241 0.8948 0.0
C304 C 0.52586 0.24799 0.9149 0.0
C305 C 0.55724 0.23856 0.90726 0.0
C306 C 0.53741 0.2454 0.92701 0.0
N307 N 0.55273 0.24079 0.92297 0.0
C308 C 0.54021 0.26261 0.84454 0.0
C309 C 0.54273 0.23403 0.84729 0.0
C310 C 0.55409 0.26322 0.83492 0.0
N311 N 0.53476 0.24815 0.85028 0.0
C312 C 0.55668 0.23406 0.83775 0.0
C313 C 0.56245 0.24879 0.83136 0.0
H314 H 0.53376 0.27368 0.84741 0.0
H315 H 0.53834 0.22278 0.85242 0.0
C316 C 0.48581 0.20879 0.90198 0.0
N317 N 0.50042 0.21452 0.89695 0.0
C318 C 0.485 0.19518 0.91197 0.0
C319 C 0.51429 0.19336 0.9109 0.0
C320 C 0.51452 0.20704 0.90097 0.0
C321 C 0.49939 0.18736 0.91658 0.0
H322 H 0.47478 0.2148 0.89821 0.0
H323 H 0.52592 0.21167 0.89646 0.0
O324 O 0.50142 0.26691 0.86077 0.0
O325 O 0.48154 0.24723 0.88533 0.0
O326 O 0.50089 0.22915 0.86045 0.0
O327 O 0.51925 0.24856 0.88657 0.0
H328 H 0.49241 0.29741 0.8653 0.0
H329 H 0.50515 0.26182 0.82923 0.0
H330 H 0.48818 0.31756 0.84334 0.0
H331 H 0.50056 0.28255 0.80788 0.0
H332 H 0.46588 0.24807 0.93823 0.0
H333 H 0.45102 0.25578 0.88075 0.0
H334 H 0.48669 0.24385 0.91689 0.0
H335 H 0.43075 0.25967 0.90272 0.0
H336 H 0.44023 0.27285 0.83255 0.0
H337 H 0.44229 0.22033 0.83295 0.0
H338 H 0.52423 0.30806 0.91495 0.0
H339 H 0.47247 0.31047 0.90692 0.0
H340 H 0.51143 0.19911 0.86439 0.0
H341 H 0.49687 0.23466 0.82902 0.0
H342 H 0.51639 0.1795 0.84204 0.0
H343 H 0.50222 0.21452 0.80728 0.0
H344 H 0.54964 0.23933 0.88229 0.0
H345 H 0.51377 0.25192 0.9181 0.0
H346 H 0.56953 0.23494 0.90443 0.0
H347 H 0.53422 0.24714 0.93962 0.0
H348 H 0.5581 0.27481 0.83016 0.0
H349 H 0.56299 0.22273 0.83559 0.0
H350 H 0.47328 0.19069 0.91586 0.0
H351 H 0.52565 0.18767 0.91423 0.0
Li352 Li 0.11837 -0.00272 0.26697 0.0
Li353 Li 0.14013 0.01251 0.2517 0.0
Li354 Li 0.11806 -0.00284 0.23681 0.0
Li355 Li 0.14039 0.98251 0.25134 0.0
C356 C 0.1043 0.02732 0.25137 0.0
N357 N 0.08013 0.0505 0.25004 0.0
C358 C 0.10798 0.04367 0.25408 0.0
C359 C 0.08835 0.02274 0.24794 0.0
C360 C 0.09558 0.05521 0.25338 0.0
C361 C 0.0763 0.03465 0.24733 0.0
C362 C 0.15451 -0.00088 0.28136 0.0
C363 C 0.18286 -0.00196 0.28841 0.0
N364 N 0.17908 0.00243 0.30386 0.0
C365 C 0.15089 0.0036 0.29731 0.0
C366 C 0.1706 -0.00372 0.27685 0.0
C367 C 0.16349 0.00523 0.30851 0.0
C368 C 0.10577 0.98231 0.29461 0.0
N369 N 0.10553 -0.00354 0.28614 0.0
C370 C 0.08803 0.00859 0.30585 0.0
C371 C 0.09688 0.00949 0.2914 0.0
C372 C 0.08817 0.99416 0.31503 0.0
C373 C 0.09715 0.98088 0.30913 0.0
H374 H 0.11286 0.97218 0.29017 0.0
H375 H 0.09697 0.02065 0.28449 0.0
C376 C 0.15158 0.0399 0.23615 0.0
N377 N 0.15264 0.03186 0.25049 0.0
C378 C 0.15949 0.05473 0.23401 0.0
C379 C 0.1698 0.05259 0.26136 0.0
C380 C 0.16155 0.03783 0.26302 0.0
C381 C 0.16865 0.06134 0.24676 0.0
H382 H 0.14434 0.03487 0.22643 0.0
H383 H 0.16203 0.03136 0.27439 0.0
C384 C 0.10455 0.96717 0.25166 0.0
N385 N 0.08004 0.9443 0.25092 0.0
C386 C 0.10801 0.95107 0.24754 0.0
C387 C 0.08866 0.97164 0.25549 0.0
C388 C 0.09545 0.93968 0.24722 0.0
C389 C 0.07643 0.9599 0.25502 0.0
C390 C 0.15387 -0.00384 0.22163 0.0
C391 C 0.1503 0.99105 0.20587 0.0
C392 C 0.16985 -6e-05 0.22582 0.0
C393 C 0.16285 0.98969 0.19455 0.0
C394 C 0.18205 -0.0016 0.21416 0.0
N395 N 0.17833 0.99336 0.1989 0.0
C396 C 0.10449 0.01174 0.20924 0.0
C397 C 0.09661 0.98429 0.2128 0.0
C398 C 0.09546 0.01279 0.19494 0.0
N399 N 0.10488 -0.00235 0.21784 0.0
C400 C 0.08735 0.98482 0.19864 0.0
C401 C 0.08672 -0.00081 0.18942 0.0
H402 H 0.11136 0.02212 0.21343 0.0
H403 H 0.09727 0.97315 0.21968 0.0
C404 C 0.15851 0.95756 0.2658 0.0
N405 N 0.15345 0.96353 0.2513 0.0
C406 C 0.16732 0.9431 0.2665 0.0
C407 C 0.16536 0.94106 0.23731 0.0
C408 C 0.15672 0.95567 0.23717 0.0
C409 C 0.17068 0.93456 0.25214 0.0
H410 H 0.15538 0.96384 0.27688 0.0
H411 H 0.1523 0.96054 0.22583 0.0
O412 O 0.11635 0.01593 0.25187 0.0
O413 O 0.14226 -0.00282 0.27037 0.0
O414 O 0.11674 0.97842 0.25204 0.0
O415 O 0.14167 -0.00211 0.23272 0.0
H416 H 0.12029 0.0474 0.25672 0.0
H417 H 0.08534 0.01016 0.24566 0.0
H418 H 0.09825 0.06791 0.25547 0.0
H419 H 0.0639 0.0313 0.24466 0.0
H420 H 0.19537 -0.00415 0.28511 0.0
H421 H 0.13847 0.00575 0.301 0.0
H422 H 0.17357 0.99262 0.26461 0.0
H423 H 0.16088 0.00867 0.3209 0.0
H424 H 0.08115 0.01908 0.30978 0.0
H425 H 0.09787 0.96961 0.31586 0.0
H426 H 0.15841 0.061 0.22251 0.0
H427 H 0.17658 0.05735 0.27155 0.0
H428 H 0.12028 0.94741 0.2446 0.0
H429 H 0.08581 0.98402 0.25884 0.0
H430 H 0.09794 0.92718 0.24403 0.0
H431 H 0.06406 0.96318 0.25794 0.0
H432 H 0.13796 0.98821 0.20243 0.0
H433 H 0.17276 0.00415 0.23789 0.0
H434 H 0.16027 0.98575 0.18231 0.0
H435 H 0.19448 0.00129 0.21721 0.0
H436 H 0.09558 0.02404 0.18814 0.0
H437 H 0.08069 0.97408 0.19502 0.0
H438 H 0.17096 0.93836 0.27819 0.0
H439 H 0.16773 0.93484 0.22598 0.0
Li440 Li 0.23596 0.88607 0.49974 0.0
Li441 Li 0.25071 0.86432 0.51391 0.0
Li442 Li 0.26549 0.88644 0.49905 0.0
Li443 Li 0.25115 0.86453 0.48437 0.0
C444 C 0.24744 0.89999 0.52906 0.0
N445 N 0.24026 0.92427 0.55107 0.0
C446 C 0.24173 0.89603 0.54453 0.0
C447 C 0.24962 0.91628 0.52482 0.0
C448 C 0.23814 0.90848 0.55548 0.0
C449 C 0.24588 0.92839 0.5361 0.0
C450 C 0.22118 0.85021 0.50106 0.0
C451 C 0.21388 0.82187 0.49974 0.0
N452 N 0.19864 0.82565 0.50482 0.0
C453 C 0.20543 0.85383 0.50621 0.0
C454 C 0.22543 0.83412 0.49771 0.0
C455 C 0.19422 0.84124 0.50806 0.0
C456 C 0.21185 0.90449 0.48503 0.0
N457 N 0.21714 0.89887 0.49957 0.0
C458 C 0.19485 0.91125 0.51323 0.0
C459 C 0.20891 0.90187 0.51353 0.0
C460 C 0.18918 0.91741 0.4984 0.0
C461 C 0.19784 0.9139 0.48416 0.0
H462 H 0.21847 0.90159 0.47409 0.0
H463 H 0.21313 0.89679 0.52484 0.0
C464 C 0.26497 0.84465 0.53772 0.0
N465 N 0.25077 0.85098 0.53225 0.0
C466 C 0.26511 0.83477 0.55144 0.0
C467 C 0.23609 0.83856 0.55381 0.0
C468 C 0.23649 0.84823 0.53998 0.0
C469 C 0.25053 0.83173 0.55966 0.0
H470 H 0.2762 0.84743 0.53154 0.0
H471 H 0.22547 0.85373 0.53551 0.0
C472 C 0.25344 0.90001 0.46937 0.0
N473 N 0.25924 0.92374 0.44639 0.0
C474 C 0.25841 0.89568 0.45374 0.0
C475 C 0.25134 0.9164 0.47329 0.0
C476 C 0.26129 0.90787 0.4423 0.0
C477 C 0.25437 0.92822 0.46151 0.0
C478 C 0.28088 0.85068 0.49699 0.0
C479 C 0.29686 0.85457 0.49284 0.0
C480 C 0.27643 0.83441 0.49892 0.0
C481 C 0.30812 0.84208 0.49063 0.0
C482 C 0.28804 0.82227 0.4966 0.0
N483 N 0.30351 0.82633 0.49254 0.0
C484 C 0.2898 0.90486 0.51375 0.0
C485 C 0.29203 0.90267 0.48515 0.0
C486 C 0.30423 0.91365 0.51449 0.0
N487 N 0.28408 0.89957 0.49924 0.0
C488 C 0.30645 0.91146 0.48531 0.0
C489 C 0.31282 0.91689 0.50014 0.0
H490 H 0.28333 0.90194 0.52478 0.0
H491 H 0.28743 0.89788 0.47385 0.0
C492 C 0.23603 0.84842 0.45898 0.0
N493 N 0.25074 0.85172 0.46562 0.0
C494 C 0.23503 0.83971 0.44453 0.0
C495 C 0.26432 0.83782 0.44423 0.0
C496 C 0.26476 0.84668 0.4586 0.0
C497 C 0.24932 0.83441 0.43696 0.0
H498 H 0.22512 0.85283 0.46478 0.0
H499 H 0.27629 0.8499 0.46389 0.0
O500 O 0.25128 0.88792 0.51833 0.0
O501 O 0.23214 0.86248 0.49879 0.0
O502 O 0.25018 0.8882 0.48057 0.0
O503 O 0.26981 0.86281 0.49943 0.0
H504 H 0.24011 0.88347 0.54805 0.0
H505 H 0.25427 0.91954 0.513 0.0
H506 H 0.2337 0.9056 0.56748 0.0
H507 H 0.24749 0.94105 0.53298 0.0
H508 H 0.217 0.80936 0.49718 0.0
H509 H 0.2019 0.86625 0.50869 0.0
H510 H 0.23745 0.83115 0.49341 0.0
H511 H 0.18199 0.84386 0.51203 0.0
H512 H 0.18832 0.91341 0.52443 0.0
H513 H 0.1939 0.91846 0.47249 0.0
H514 H 0.2765 0.82989 0.5558 0.0
H515 H 0.22462 0.83644 0.55987 0.0
H516 H 0.25997 0.88304 0.45048 0.0
H517 H 0.24726 0.91993 0.48524 0.0
H518 H 0.26512 0.90469 0.43015 0.0
H519 H 0.25279 0.94095 0.46437 0.0
H520 H 0.30053 0.86712 0.49138 0.0
H521 H 0.2642 0.8312 0.50236 0.0
H522 H 0.32053 0.84492 0.48743 0.0
H523 H 0.28477 0.80963 0.4981 0.0
H524 H 0.30874 0.91767 0.52616 0.0
H525 H 0.31289 0.9134 0.47401 0.0
H526 H 0.22325 0.83728 0.43925 0.0
H527 H 0.27561 0.83421 0.43855 0.0
Li528 Li 0.36561 0.98683 0.74749 0.0
Li529 Li 0.38738 0.00127 0.76247 0.0
Li530 Li 0.36584 0.01648 0.74715 0.0
Li531 Li 0.38773 0.00159 0.73291 0.0
C532 C 0.35156 0.00027 0.77725 0.0
N533 N 0.32718 -0.00269 0.80007 0.0
C534 C 0.35524 0.99541 0.79307 0.0
C535 C 0.33551 0.00373 0.77306 0.0
C536 C 0.34273 0.99396 0.80443 0.0
C537 C 0.32335 0.00212 0.78477 0.0
C538 C 0.40127 0.97127 0.74888 0.0
C539 C 0.42959 0.964 0.74825 0.0
N540 N 0.42554 0.94829 0.75142 0.0
C541 C 0.39738 0.95506 0.75211 0.0
C542 C 0.41748 0.9758 0.74691 0.0
C543 C 0.40984 0.94362 0.75336 0.0
C544 C 0.34894 0.96173 0.73226 0.0
N545 N 0.3525 0.96827 0.74695 0.0
C546 C 0.33874 0.94681 0.7606 0.0
C547 C 0.34761 0.9612 0.761 0.0
C548 C 0.33505 0.93962 0.74559 0.0
C549 C 0.34009 0.94735 0.73128 0.0
H550 H 0.35328 0.96752 0.72131 0.0
H551 H 0.351 0.96645 0.77251 0.0
C552 C 0.40116 0.01648 0.78892 0.0
N553 N 0.39994 0.00189 0.78133 0.0
C554 C 0.40929 0.01768 0.80368 0.0
C555 C 0.41508 0.98889 0.8022 0.0
C556 C 0.4067 0.98821 0.78757 0.0
C557 C 0.4162 0.00372 0.81053 0.0
H558 H 0.39548 0.02709 0.78367 0.0
H559 H 0.40519 0.9767 0.78148 0.0
C560 C 0.35201 0.00261 0.71738 0.0
N561 N 0.32744 0.00478 0.69474 0.0
C562 C 0.35565 0.00604 0.70118 0.0
C563 C 0.3359 0.00021 0.72206 0.0
C564 C 0.34305 0.00711 0.68992 0.0
C565 C 0.32364 0.00139 0.71044 0.0
C566 C 0.40153 0.03145 0.74642 0.0
C567 C 0.39783 0.0473 0.74161 0.0
C568 C 0.41755 0.02728 0.74999 0.0
C569 C 0.4103 0.05873 0.74033 0.0
C570 C 0.42968 0.03905 0.74854 0.0
N571 N 0.42583 0.0544 0.74379 0.0
C572 C 0.34978 0.04225 0.76181 0.0
C573 C 0.34746 0.04149 0.73314 0.0
C574 C 0.34024 0.0562 0.76252 0.0
N575 N 0.35303 0.03519 0.74728 0.0
C576 C 0.33779 0.05535 0.73328 0.0
C577 C 0.33407 0.06287 0.74812 0.0
H578 H 0.35466 0.03705 0.77282 0.0
H579 H 0.35054 0.0358 0.72175 0.0
C580 C 0.40674 0.9875 0.70844 0.0
N581 N 0.40088 0.0017 0.71447 0.0
C582 C 0.41622 0.98753 0.69444 0.0
C583 C 0.41299 0.01674 0.69299 0.0
C584 C 0.40371 0.01615 0.70707 0.0
C585 C 0.41932 0.00229 0.68653 0.0
H586 H 0.40386 0.97614 0.71436 0.0
H587 H 0.39854 0.02717 0.71197 0.0
O588 O 0.36372 0.00201 0.7661 0.0
O589 O 0.38917 0.98253 0.74742 0.0
O590 O 0.36426 0.00137 0.72848 0.0
O591 O 0.38939 0.02025 0.74806 0.0
H592 H 0.36763 0.99281 0.79653 0.0
H593 H 0.3325 0.00777 0.76097 0.0
H594 H 0.3454 0.9902 0.81671 0.0
H595 H 0.31088 0.00476 0.7817 0.0
H596 H 0.44219 0.96732 0.74673 0.0
H597 H 0.38487 0.95136 0.7536 0.0
H598 H 0.42067 0.98825 0.74423 0.0
H599 H 0.40701 0.93103 0.75585 0.0
H600 H 0.33539 0.94104 0.77192 0.0
H601 H 0.33744 0.94221 0.71948 0.0
H602 H 0.40994 0.02932 0.80979 0.0
H603 H 0.42 0.9778 0.80729 0.0
H604 H 0.36808 0.00784 0.69736 0.0
H605 H 0.3329 -0.00267 0.73449 0.0
H606 H 0.34568 0.00976 0.67734 0.0
H607 H 0.31111 -0.00046 0.71388 0.0
H608 H 0.38545 0.05074 0.73894 0.0
H609 H 0.42057 0.01515 0.754 0.0
H610 H 0.40762 0.07105 0.73662 0.0
H611 H 0.44214 0.03601 0.75127 0.0
H612 H 0.33789 0.0618 0.77418 0.0
H613 H 0.33318 0.06001 0.72191 0.0
H614 H 0.42069 0.97614 0.68961 0.0
H615 H 0.41518 0.02835 0.68718 0.0
Li616 Li 0.25033 0.13662 0.01213 0.0
Li617 Li 0.26544 0.11446 -0.00187 0.0
Li618 Li 0.25031 0.13613 0.98225 0.0
Li619 Li 0.23561 0.1143 -0.00243 0.0
C620 C 0.27997 0.15069 -0.00076 0.0
N621 N 0.3019 0.17568 0.00366 0.0
C622 C 0.29555 0.14739 0.00503 0.0
C623 C 0.27558 0.16667 0.99556 0.0
C624 C 0.30645 0.16021 0.00722 0.0
C625 C 0.28683 0.17915 -0.00208 0.0
C626 C 0.25092 0.10106 0.02788 0.0
C627 C 0.24885 0.07282 0.03532 0.0
N628 N 0.25195 0.07684 0.05102 0.0
C629 C 0.25405 0.10494 0.04407 0.0
C630 C 0.24824 0.08491 0.02344 0.0
C631 C 0.25453 0.09251 0.0556 0.0
C632 C 0.23477 0.15071 0.03863 0.0
N633 N 0.24939 0.14944 0.03112 0.0
C634 C 0.26238 0.16361 0.05275 0.0
C635 C 0.26307 0.15572 0.03781 0.0
C636 C 0.24752 0.16478 0.06099 0.0
C637 C 0.23353 0.1584 0.05367 0.0
H638 H 0.22414 0.14531 0.03314 0.0
H639 H 0.27463 0.1541 0.03189 0.0
C640 C 0.29022 0.0958 0.98438 0.0
N641 N 0.28434 0.10155 -0.00134 0.0
C642 C 0.30457 0.08686 0.98405 0.0
C643 C 0.30672 0.09023 0.01312 0.0
C644 C 0.29216 0.09891 0.01291 0.0
C645 C 0.31309 0.08417 -0.00148 0.0
H646 H 0.28395 0.09844 0.97319 0.0
H647 H 0.28727 0.10384 0.02405 0.0
C648 C 0.22013 0.14988 -0.00287 0.0
N649 N 0.19668 0.17384 -0.00243 0.0
C650 C 0.20384 0.14586 0.99475 0.0
C651 C 0.22451 0.16607 -0.00024 0.0
C652 C 0.19216 0.15815 0.99501 0.0
C653 C 0.21247 0.17801 -9e-05 0.0
C654 C 0.24857 0.09997 0.96797 0.0
C655 C 0.24292 0.10368 0.95243 0.0
C656 C 0.25189 0.08384 0.97209 0.0
C657 C 0.2406 0.09113 0.94126 0.0
C658 C 0.24941 0.07163 0.96058 0.0
N659 N 0.24386 0.0755 0.94554 0.0
C660 C 0.26532 0.15187 0.95632 0.0
C661 C 0.23671 0.15472 0.95662 0.0
C662 C 0.26639 0.16088 0.94203 0.0
N663 N 0.25065 0.14897 0.96325 0.0
C664 C 0.23721 0.1638 0.94231 0.0
C665 C 0.2522 0.16691 0.93477 0.0
H666 H 0.27618 0.14698 0.96182 0.0
H667 H 0.2252 0.15212 0.96235 0.0
C668 C 0.2077 0.10367 0.01271 0.0
N669 N 0.21643 0.10178 -0.00116 0.0
C670 C 0.19245 0.09648 0.01424 0.0
C671 C 0.19581 0.08492 0.98749 0.0
C672 C 0.21088 0.09253 0.98637 0.0
C673 C 0.18629 0.08714 0.00142 0.0
H674 H 0.2124 0.11123 0.02236 0.0
H675 H 0.2178 0.09147 0.97533 0.0
O676 O 0.2692 0.13827 -0.003 0.0
O677 O 0.25011 0.11314 0.01654 0.0
O678 O 0.23164 0.13793 -0.00282 0.0
O679 O 0.25107 0.11216 0.97896 0.0
H680 H 0.29916 0.13507 0.00785 0.0
H681 H 0.26366 0.1694 0.99085 0.0
H682 H 0.31854 0.15784 0.01174 0.0
H683 H 0.28359 0.19158 0.99515 0.0
H684 H 0.24681 0.06025 0.03208 0.0
H685 H 0.25604 0.11742 0.0477 0.0
H686 H 0.24559 0.08175 0.01099 0.0
H687 H 0.25693 0.09532 0.06819 0.0
H688 H 0.27349 0.1681 0.05813 0.0
H689 H 0.22184 0.1591 0.05962 0.0
H690 H 0.30927 0.08262 0.97253 0.0
H691 H 0.313 0.0884 0.0245 0.0
H692 H 0.20025 0.13338 0.99272 0.0
H693 H 0.23703 0.16935 0.00181 0.0
H694 H 0.1795 0.15522 0.9932 0.0
H695 H 0.21567 0.19059 0.00196 0.0
H696 H 0.24037 0.11613 0.94905 0.0
H697 H 0.2564 0.08078 0.98402 0.0
H698 H 0.23623 0.09381 0.92919 0.0
H699 H 0.25192 0.05909 0.96359 0.0
H700 H 0.27817 0.16273 0.93652 0.0
H701 H 0.22598 0.16832 0.93721 0.0
H702 H 0.18544 0.09842 0.02519 0.0
H703 H 0.19134 0.07798 0.97726 0.0
Li704 Li 0.73514 0.38627 -0.00194 0.0
Li705 Li 0.74969 0.36471 0.01281 0.0
Li706 Li 0.7646 0.38709 -0.00109 0.0
Li707 Li 0.75122 0.36502 0.98345 0.0
C708 C 0.74943 0.40015 0.02872 0.0
N709 N 0.74978 0.42428 0.05201 0.0
C710 C 0.74719 0.39622 0.04506 0.0
C711 C 0.75192 0.41633 0.02422 0.0
C712 C 0.74738 0.4086 0.05665 0.0
C713 C 0.75204 0.42836 0.03618 0.0
C714 C 0.72018 0.35069 -0.0011 0.0
C715 C 0.71191 0.32261 -0.0023 0.0
N716 N 0.69675 0.32696 0.00256 0.0
C717 C 0.7045 0.3549 0.00382 0.0
C718 C 0.72391 0.33444 -0.00427 0.0
C719 C 0.69283 0.34272 0.00562 0.0
C720 C 0.70934 0.40252 0.98346 0.0
N721 N 0.71651 0.3989 -0.00218 0.0
C722 C 0.69634 0.41339 0.01251 0.0
C723 C 0.71032 0.40398 0.0122 0.0
C724 C 0.68863 0.41739 -0.00212 0.0
C725 C 0.69528 0.41188 0.9832 0.0
H726 H 0.7145 0.39802 0.97226 0.0
H727 H 0.71617 0.40062 0.02342 0.0
C728 C 0.76459 0.34957 0.03852 0.0
N729 N 0.75 0.35154 0.03116 0.0
C730 C 0.76584 0.33998 0.05236 0.0
C731 C 0.73697 0.33479 0.05077 0.0
C732 C 0.73627 0.34459 0.03705 0.0
C733 C 0.7519 0.33244 0.05855 0.0
H734 H 0.77522 0.35553 0.03365 0.0
H735 H 0.72475 0.34679 0.03126 0.0
C736 C 0.75064 0.40082 0.96838 0.0
N737 N 0.75113 0.42515 0.9453 0.0
C738 C 0.75416 0.39713 0.9522 0.0
C739 C 0.74729 0.41686 0.9728 0.0
C740 C 0.75437 0.40961 0.94072 0.0
C741 C 0.74762 0.42899 0.96096 0.0
C742 C 0.78012 0.35115 -0.00151 0.0
C743 C 0.7966 0.35442 -0.00373 0.0
C744 C 0.7749 0.33511 0.0004 0.0
C745 C 0.80762 0.34154 -0.00407 0.0
C746 C 0.7863 0.32256 -1e-05 0.0
N747 N 0.80228 0.326 -0.00222 0.0
C748 C 0.79066 0.40168 0.01435 0.0
C749 C 0.78939 0.40632 0.98597 0.0
C750 C 0.80549 0.40972 0.01527 0.0
N751 N 0.78307 0.40007 -0.00017 0.0
C752 C 0.80413 0.41452 0.98633 0.0
C753 C 0.81248 0.41604 0.00108 0.0
H754 H 0.78541 0.39628 0.0251 0.0
H755 H 0.7833 0.40442 0.97454 0.0
C756 C 0.73892 0.34718 0.95764 0.0
N757 N 0.75274 0.35256 0.96478 0.0
C758 C 0.7397 0.33907 0.94286 0.0
C759 C 0.76892 0.34216 0.94324 0.0
C760 C 0.76757 0.35015 0.95805 0.0
C761 C 0.75483 0.33676 0.93539 0.0
H762 H 0.7273 0.34964 0.96319 0.0
H763 H 0.77828 0.35489 0.96393 0.0
O764 O 0.74929 0.38812 0.01728 0.0
O765 O 0.73165 0.36253 -0.00312 0.0
O766 O 0.75035 0.38869 0.97972 0.0
O767 O 0.76926 0.36368 -0.00089 0.0
H768 H 0.74528 0.38374 0.04873 0.0
H769 H 0.75388 0.41955 0.01168 0.0
H770 H 0.74562 0.40575 0.06934 0.0
H771 H 0.75397 0.44093 0.03288 0.0
H772 H 0.71463 0.30998 0.9953 0.0
H773 H 0.70138 0.36745 0.00622 0.0
H774 H 0.73589 0.33099 0.99167 0.0
H775 H 0.68066 0.3458 0.00943 0.0
H776 H 0.69164 0.41752 0.02407 0.0
H777 H 0.68953 0.41451 0.97169 0.0
H778 H 0.77754 0.33844 0.05811 0.0
H779 H 0.72593 0.32942 0.05547 0.0
H780 H 0.75672 0.38475 0.94856 0.0
H781 H 0.74433 0.41989 0.9852 0.0
H782 H 0.75709 0.40693 0.92816 0.0
H783 H 0.74504 0.44146 0.96421 0.0
H784 H 0.80082 0.3668 0.99486 0.0
H785 H 0.76222 0.33241 0.00235 0.0
H786 H 0.82042 0.34388 0.99423 0.0
H787 H 0.78244 0.31008 0.00148 0.0
H788 H 0.81158 0.41072 0.02687 0.0
H789 H 0.8093 0.41897 0.97509 0.0
H790 H 0.72856 0.33529 0.93701 0.0
H791 H 0.78078 0.34052 0.93783 0.0
Li792 Li 0.88656 0.50236 0.26306 0.0
Li793 Li 0.86497 0.48744 0.24816 0.0
Li794 Li 0.88668 0.50279 0.23338 0.0
Li795 Li 0.86454 0.51712 0.24812 0.0
C796 C 0.90095 0.47286 0.24923 0.0
N797 N 0.92575 0.45044 0.25154 0.0
C798 C 0.89755 0.45677 0.25348 0.0
C799 C 0.91693 0.47753 0.24606 0.0
C800 C 0.91027 0.44562 0.2546 0.0
C801 C 0.92931 0.46602 0.24733 0.0
C802 C 0.85029 0.50173 0.27774 0.0
C803 C 0.8218 0.50418 0.28383 0.0
N804 N 0.82493 0.50063 0.29963 0.0
C805 C 0.85326 0.49817 0.29404 0.0
C806 C 0.83446 0.50483 0.27258 0.0
C807 C 0.84027 0.49764 0.30492 0.0
C808 C 0.90435 0.51693 0.28805 0.0
N809 N 0.89946 0.50248 0.28179 0.0
C810 C 0.91151 0.48808 0.30377 0.0
C811 C 0.90289 0.48818 0.28924 0.0
C812 C 0.91662 0.50285 0.31066 0.0
C813 C 0.91315 0.5174 0.30246 0.0
H814 H 0.90112 0.52814 0.28203 0.0
H815 H 0.89851 0.47691 0.28415 0.0
C816 C 0.85179 0.46047 0.233 0.0
N817 N 0.85258 0.46839 0.24743 0.0
C818 C 0.84377 0.44561 0.23189 0.0
C819 C 0.83738 0.44752 0.26048 0.0
C820 C 0.84557 0.46231 0.26105 0.0
C821 C 0.83659 0.4389 0.2458 0.0
H822 H 0.85768 0.46557 0.22244 0.0
H823 H 0.84673 0.46868 0.27243 0.0
C824 C 0.89983 0.53313 0.2477 0.0
N825 N 0.92339 0.55695 0.2461 0.0
C826 C 0.89551 0.54923 0.24448 0.0
C827 C 0.91612 0.52914 0.25013 0.0
C828 C 0.9076 0.5611 0.24371 0.0
C829 C 0.92785 0.54136 0.24927 0.0
C830 C 0.85134 0.5016 0.21776 0.0
C831 C 0.85531 0.50468 0.20156 0.0
C832 C 0.83534 0.49785 0.22194 0.0
C833 C 0.84314 0.50408 0.1898 0.0
C834 C 0.82353 0.49735 0.20981 0.0
N835 N 0.82763 0.50046 0.19414 0.0
C836 C 0.90122 0.48833 0.20673 0.0
C837 C 0.90671 0.51651 0.20937 0.0
C838 C 0.91048 0.48755 0.1926 0.0
N839 N 0.89961 0.50265 0.21476 0.0
C840 C 0.91621 0.51626 0.19543 0.0
C841 C 0.91813 0.50167 0.18681 0.0
H842 H 0.89518 0.47758 0.21126 0.0
H843 H 0.90493 0.52779 0.21578 0.0
C844 C 0.84981 0.54391 0.26238 0.0
N845 N 0.85138 0.53559 0.24825 0.0
C846 C 0.84041 0.55797 0.26296 0.0
C847 C 0.83445 0.5545 0.23443 0.0
C848 C 0.84406 0.5406 0.23439 0.0
C849 C 0.83258 0.56342 0.24884 0.0
H850 H 0.85599 0.53966 0.27314 0.0
H851 H 0.84575 0.5339 0.22327 0.0
O852 O 0.88858 0.48381 0.24779 0.0
O853 O 0.86292 0.50235 0.267 0.0
O854 O 0.88809 0.52143 0.24861 0.0
O855 O 0.86315 0.50218 0.22937 0.0
H856 H 0.88521 0.45295 0.25586 0.0
H857 H 0.91972 0.48987 0.24252 0.0
H858 H 0.90783 0.43312 0.25788 0.0
H859 H 0.94174 0.46946 0.24491 0.0
H860 H 0.80947 0.50655 0.28001 0.0
H861 H 0.86547 0.49582 0.29823 0.0
H862 H 0.83199 0.50781 0.26006 0.0
H863 H 0.84237 0.49488 0.31757 0.0
H864 H 0.91356 0.47659 0.30983 0.0
H865 H 0.91694 0.52905 0.30724 0.0
H866 H 0.84334 0.43934 0.22034 0.0
H867 H 0.83225 0.4426 0.27154 0.0
H868 H 0.88294 0.55251 0.2426 0.0
H869 H 0.91965 0.51677 0.25279 0.0
H870 H 0.90444 0.5736 0.24122 0.0
H871 H 0.94051 0.53846 0.25115 0.0
H872 H 0.86765 0.50757 0.19813 0.0
H873 H 0.8321 0.49525 0.23437 0.0
H874 H 0.84602 0.50648 0.17723 0.0
H875 H 0.81109 0.49446 0.21287 0.0
H876 H 0.91141 0.47613 0.18616 0.0
H877 H 0.92202 0.52738 0.19147 0.0
H878 H 0.83951 0.56463 0.27425 0.0
H879 H 0.8285 0.55817 0.22332 0.0
Li880 Li 0.75143 0.63554 0.5128 0.0
Li881 Li 0.76574 0.6138 0.49739 0.0
Li882 Li 0.75031 0.63614 0.48311 0.0
Li883 Li 0.73588 0.61387 0.49755 0.0
C884 C 0.7807 0.64984 0.49887 0.0
N885 N 0.80308 0.67463 0.50196 0.0
C886 C 0.79697 0.64625 0.50195 0.0
C887 C 0.77581 0.66603 0.49731 0.0
C888 C 0.8081 0.65896 0.50349 0.0
C889 C 0.78731 0.67839 0.49892 0.0
C890 C 0.75289 0.59996 0.52774 0.0
C891 C 0.75121 0.57201 0.53635 0.0
N892 N 0.7561 0.57648 0.55145 0.0
C893 C 0.75788 0.60429 0.54335 0.0
C894 C 0.74946 0.58372 0.5242 0.0
C895 C 0.75943 0.59223 0.55517 0.0
C896 C 0.7379 0.65143 0.53974 0.0
N897 N 0.752 0.64814 0.53187 0.0
C898 C 0.76737 0.66103 0.5527 0.0
C899 C 0.76657 0.6528 0.53798 0.0
C900 C 0.75307 0.66414 0.56144 0.0
C901 C 0.73815 0.65947 0.55465 0.0
H902 H 0.72651 0.64734 0.53467 0.0
H903 H 0.77762 0.64971 0.53169 0.0
C904 C 0.79007 0.59686 0.48124 0.0
N905 N 0.78457 0.60077 0.49627 0.0
C906 C 0.80434 0.588 0.47939 0.0
C907 C 0.80719 0.58748 0.50857 0.0
C908 C 0.79273 0.59626 0.50985 0.0
C909 C 0.81325 0.58335 0.49315 0.0
H910 H 0.78348 0.60086 0.47065 0.0
H911 H 0.78822 0.59982 0.52165 0.0
C912 C 0.72058 0.64946 0.49731 0.0
N913 N 0.69695 0.67317 0.49533 0.0
C914 C 0.70471 0.6453 0.49301 0.0
C915 C 0.72441 0.66564 0.50068 0.0
C916 C 0.69294 0.65747 0.49208 0.0
C917 C 0.71231 0.67747 0.49956 0.0
C918 C 0.74882 0.60014 0.46776 0.0
C919 C 0.74483 0.60359 0.45166 0.0
C920 C 0.75097 0.58403 0.47263 0.0
C921 C 0.74295 0.5908 0.44068 0.0
C922 C 0.74899 0.57157 0.46129 0.0
N923 N 0.74504 0.57519 0.44568 0.0
C924 C 0.76448 0.65496 0.45876 0.0
C925 C 0.73589 0.65246 0.45671 0.0
C926 C 0.76505 0.66402 0.4445 0.0
N927 N 0.75006 0.64946 0.46455 0.0
C928 C 0.73592 0.66126 0.44224 0.0
C929 C 0.75067 0.66705 0.43597 0.0
H930 H 0.77561 0.65195 0.46497 0.0
H931 H 0.72465 0.64765 0.46147 0.0
C932 C 0.70963 0.59698 0.51156 0.0
N933 N 0.71687 0.60109 0.49733 0.0
C934 C 0.69468 0.589 0.51152 0.0
C935 C 0.69528 0.58918 0.4822 0.0
C936 C 0.71008 0.59731 0.48281 0.0
C937 C 0.68717 0.58526 0.49667 0.0
H938 H 0.71521 0.60041 0.52292 0.0
H939 H 0.71585 0.60107 0.47169 0.0
O940 O 0.76971 0.6375 0.4972 0.0
O941 O 0.75079 0.6117 0.51621 0.0
O942 O 0.73209 0.63759 0.4988 0.0
O943 O 0.75076 0.61256 0.47861 0.0
H944 H 0.80095 0.63377 0.50314 0.0
H945 H 0.76332 0.669 0.49472 0.0
H946 H 0.82073 0.65637 0.50589 0.0
H947 H 0.78371 0.69097 0.49771 0.0
H948 H 0.74859 0.55939 0.53379 0.0
H949 H 0.76043 0.61683 0.54633 0.0
H950 H 0.74531 0.58021 0.51227 0.0
H951 H 0.76324 0.59541 0.56732 0.0
H952 H 0.77912 0.6646 0.55735 0.0
H953 H 0.72684 0.66139 0.56105 0.0
H954 H 0.80839 0.58492 0.46728 0.0
H955 H 0.81377 0.58442 0.5195 0.0
H956 H 0.70151 0.6328 0.49053 0.0
H957 H 0.73654 0.66902 0.50432 0.0
H958 H 0.6806 0.65443 0.48881 0.0
H959 H 0.7151 0.69005 0.50214 0.0
H960 H 0.74319 0.61602 0.4477 0.0
H961 H 0.75425 0.58118 0.485 0.0
H962 H 0.73983 0.59328 0.42818 0.0
H963 H 0.75062 0.55904 0.46488 0.0
H964 H 0.77667 0.66802 0.43984 0.0
H965 H 0.72461 0.66334 0.4359 0.0
H966 H 0.68877 0.58642 0.52297 0.0
H967 H 0.69007 0.58635 0.47048 0.0
Li968 Li 0.64111 0.51378 0.75029 0.0
Li969 Li 0.61899 0.49916 0.76548 0.0
Li970 Li 0.64103 0.48371 0.75039 0.0
Li971 Li 0.61909 0.49842 0.73543 0.0
C972 C 0.65508 0.49937 0.78016 0.0
N973 N 0.67986 0.50014 0.80266 0.0
C974 C 0.65174 0.50308 0.79636 0.0
C975 C 0.67099 0.49596 0.7754 0.0
C976 C 0.66444 0.50343 0.80756 0.0
C977 C 0.68336 0.49644 0.78696 0.0
C978 C 0.60511 0.52873 0.75129 0.0
C979 C 0.57675 0.53572 0.74993 0.0
N980 N 0.58052 0.5514 0.75355 0.0
C981 C 0.60871 0.5449 0.75497 0.0
C982 C 0.58902 0.52407 0.74871 0.0
C983 C 0.5961 0.55618 0.75607 0.0
C984 C 0.65618 0.53997 0.73484 0.0
N985 N 0.65406 0.53285 0.74956 0.0
C986 C 0.66887 0.55418 0.76252 0.0
C987 C 0.66023 0.53958 0.76329 0.0
C988 C 0.67111 0.56194 0.74748 0.0
C989 C 0.66475 0.55453 0.7335 0.0
H990 H 0.65092 0.53445 0.72416 0.0
H991 H 0.6582 0.53378 0.77488 0.0
C992 C 0.60497 0.48395 0.79213 0.0
N993 N 0.60601 0.49857 0.78457 0.0
C994 C 0.59621 0.48235 0.80654 0.0
C995 C 0.58959 0.51091 0.80508 0.0
C996 C 0.59856 0.51197 0.79071 0.0
C997 C 0.58839 0.49596 0.81328 0.0
H998 H 0.61118 0.47354 0.78705 0.0
H999 H 0.59971 0.52352 0.78459 0.0
C1000 C 0.65486 0.49765 0.72022 0.0
N1001 N 0.67905 0.49608 0.69708 0.0
C1002 C 0.65113 0.49321 0.7043 0.0
C1003 C 0.67086 0.50135 0.72438 0.0
C1004 C 0.66354 0.49247 0.69277 0.0
C1005 C 0.68293 0.50046 0.7125 0.0
C1006 C 0.60524 0.46884 0.74907 0.0
C1007 C 0.60901 0.45313 0.74384 0.0
C1008 C 0.58917 0.47288 0.75263 0.0
C1009 C 0.59658 0.44174 0.74211 0.0
C1010 C 0.57708 0.46114 0.75074 0.0
N1011 N 0.581 0.44594 0.74556 0.0
C1012 C 0.65276 0.45611 0.76562 0.0
C1013 C 0.66216 0.45854 0.73855 0.0
C1014 C 0.66058 0.44118 0.76732 0.0
N1015 N 0.65359 0.46438 0.75139 0.0
C1016 C 0.67027 0.44365 0.73975 0.0
C1017 C 0.66936 0.43466 0.75423 0.0
H1018 H 0.64576 0.46103 0.77558 0.0
H1019 H 0.66243 0.46521 0.72728 0.0
C1020 C 0.60132 0.51281 0.71005 0.0
N1021 N 0.60593 0.49834 0.71652 0.0
C1022 C 0.59178 0.51326 0.69608 0.0
C1023 C 0.59214 0.48389 0.69551 0.0
C1024 C 0.60168 0.48402 0.70949 0.0
C1025 C 0.58702 0.49866 0.68862 0.0
H1026 H 0.60511 0.52402 0.71574 0.0
H1027 H 0.60586 0.4727 0.71461 0.0
O1028 O 0.64274 0.49879 0.76914 0.0
O1029 O 0.61735 0.51762 0.74991 0.0
O1030 O 0.64278 0.49869 0.73154 0.0
O1031 O 0.61731 0.48004 0.75106 0.0
H1032 H 0.63946 0.50565 0.80024 0.0
H1033 H 0.67373 0.49286 0.76296 0.0
H1034 H 0.66205 0.50629 0.82014 0.0
H1035 H 0.69573 0.49383 0.78346 0.0
H1036 H 0.56424 0.5323 0.74794 0.0
H1037 H 0.62113 0.5487 0.75692 0.0
H1038 H 0.58606 0.51165 0.74566 0.0
H1039 H 0.59871 0.56875 0.75891 0.0
H1040 H 0.67367 0.55937 0.77359 0.0
H1041 H 0.66593 0.56019 0.7217 0.0
H1042 H 0.59593 0.47065 0.81253 0.0
H1043 H 0.58366 0.5217 0.80969 0.0
H1044 H 0.63877 0.49041 0.70088 0.0
H1045 H 0.67391 0.50501 0.7366 0.0
H1046 H 0.66084 0.48906 0.6804 0.0
H1047 H 0.69537 0.50331 0.71554 0.0
H1048 H 0.62143 0.4498 0.74114 0.0
H1049 H 0.58609 0.4849 0.75693 0.0
H1050 H 0.59931 0.42954 0.73805 0.0
H1051 H 0.56458 0.46409 0.75344 0.0
H1052 H 0.65971 0.43476 0.77875 0.0
H1053 H 0.67673 0.439 0.7293 0.0
H1054 H 0.58805 0.52491 0.69125 0.0
H1055 H 0.58905 0.47236 0.68999 0.0
Li1056 Li 0.98698 0.75179 0.86173 0.0
Li1057 Li 0.00128 0.76642 0.88396 0.0
Li1058 Li 0.01722 0.75153 0.86207 0.0
Li1059 Li 0.00226 0.73653 0.88381 0.0
C1060 C 0.00171 0.78158 0.84805 0.0
N1061 N 0.00042 0.80428 0.82342 0.0
C1062 C -0.0026 0.79765 0.85145 0.0
C1063 C 0.00551 0.77707 0.83216 0.0
C1064 C -0.00321 0.80894 0.83882 0.0
C1065 C 0.00473 0.78872 0.81986 0.0
C1066 C 0.97187 0.75411 0.89737 0.0
C1067 C 0.96434 0.75507 0.92561 0.0
N1068 N 0.94937 0.76054 0.92136 0.0
C1069 C 0.9564 0.75967 0.89326 0.0
C1070 C 0.97587 0.75171 0.91365 0.0
C1071 C 0.9452 0.76289 0.90558 0.0
C1072 C 0.96001 0.73763 0.84604 0.0
N1073 N 0.96803 0.75187 0.8484 0.0
C1074 C 0.94826 0.76624 0.83277 0.0
C1075 C 0.96242 0.76604 0.84206 0.0
C1076 C 0.93963 0.75175 0.8302 0.0
C1077 C 0.9457 0.73729 0.83695 0.0
H1078 H 0.96465 0.72656 0.85136 0.0
H1079 H 0.96874 0.77727 0.84443 0.0
C1080 C 0.0137 0.79175 0.90409 0.0
N1081 N 0.00027 0.78565 0.8967 0.0
C1082 C 0.01292 0.80659 0.91235 0.0
C1083 C 0.98455 0.80847 0.90524 0.0
C1084 C 0.98587 0.79364 0.89718 0.0
C1085 C -0.00177 0.81525 0.91281 0.0
H1086 H 0.0251 0.78532 0.90323 0.0
H1087 H 0.97549 0.78871 0.89089 0.0
C1088 C 0.00222 0.72183 0.84768 0.0
N1089 N 0.00281 0.69934 0.82281 0.0
C1090 C 0.00596 0.70559 0.85093 0.0
C1091 C -0.00131 0.72662 0.83182 0.0
C1092 C 0.00623 0.69441 0.83818 0.0
C1093 C -0.00093 0.71507 0.81941 0.0
C1094 C 0.03157 0.74899 0.89792 0.0
C1095 C 0.04724 0.74393 0.89387 0.0
C1096 C 0.02735 0.75111 0.91419 0.0
C1097 C 0.05844 0.74099 0.90623 0.0
C1098 C 0.03889 0.74802 0.9262 0.0
N1099 N 0.05406 0.74308 0.92201 0.0
C1100 C 0.04587 0.76536 0.84942 0.0
C1101 C 0.0415 0.73801 0.84159 0.0
C1102 C 0.06082 0.76556 0.84139 0.0
N1103 N 0.03662 0.75168 0.84946 0.0
C1104 C 0.05623 0.73773 0.83326 0.0
C1105 C 0.06621 0.75156 0.83324 0.0
H1106 H 0.04176 0.77602 0.85592 0.0
H1107 H 0.03418 0.72715 0.84209 0.0
C1108 C 0.98877 0.71107 0.9027 0.0
N1109 N 0.00275 0.71722 0.89647 0.0
C1110 C 0.98889 0.69628 0.91105 0.0
C1111 C 0.0178 0.69454 0.9065 0.0
C1112 C 0.01711 0.70931 0.89821 0.0
C1113 C 0.00354 0.68773 0.91292 0.0
H1114 H 0.97747 0.71749 0.90092 0.0
H1115 H 0.02796 0.71425 0.89277 0.0
O1116 O 0.00233 0.7704 0.86029 0.0
O1117 O 0.98285 0.75062 0.88543 0.0
O1118 O 0.00197 0.73291 0.86003 0.0
O1119 O 0.02061 0.7523 0.88593 0.0
H1120 H 0.99453 0.80135 0.86371 0.0
H1121 H 0.00908 0.76474 0.82937 0.0
H1122 H 0.99343 0.82141 0.84127 0.0
H1123 H 0.0076 0.78541 0.80749 0.0
H1124 H 0.96726 0.75327 0.93827 0.0
H1125 H 0.95308 0.76148 0.88069 0.0
H1126 H 0.9877 0.74716 0.917 0.0
H1127 H 0.93318 0.76721 0.90259 0.0
H1128 H 0.94386 0.77769 0.82803 0.0
H1129 H 0.93946 0.72585 0.83521 0.0
H1130 H 0.0238 0.81148 0.91785 0.0
H1131 H 0.97296 0.81464 0.90543 0.0
H1132 H 0.00868 0.70167 0.86315 0.0
H1133 H 0.99561 0.7391 0.82913 0.0
H1134 H 0.00915 0.6818 0.8405 0.0
H1135 H -0.00363 0.71861 0.80707 0.0
H1136 H 0.05073 0.74234 0.88131 0.0
H1137 H 0.01536 0.75524 0.91751 0.0
H1138 H 0.07062 0.73709 0.90329 0.0
H1139 H 0.0358 0.74963 0.93885 0.0
H1140 H 0.06812 0.7765 0.84161 0.0
H1141 H 0.06004 0.7266 0.82736 0.0
H1142 H 0.97763 0.69153 0.91588 0.0
H1143 H 0.0293 0.68825 0.90736 0.0
Li1144 Li 1e-05 0.26526 0.61376 0.0
Li1145 Li 0.01401 0.25087 0.6357 0.0
Li1146 Li 0.00014 0.23565 0.61331 0.0
Li1147 Li 0.98485 0.24933 0.63485 0.0
C1148 C 0.03004 0.25173 0.60009 0.0
N1149 N 0.05277 0.25372 0.57552 0.0
C1150 C 0.04623 0.25519 0.60371 0.0
C1151 C 0.02543 0.24917 0.58399 0.0
C1152 C 0.05754 0.25617 0.59111 0.0
C1153 C 0.03709 0.25027 0.57174 0.0
C1154 C 0.00357 0.27988 0.64894 0.0
C1155 C 0.00773 0.28723 0.67694 0.0
N1156 N 0.01366 0.30189 0.67214 0.0
C1157 C 0.00965 0.29503 0.64427 0.0
C1158 C 0.00253 0.27595 0.6654 0.0
C1159 C 0.01471 0.30599 0.65619 0.0
C1160 C 0.98555 0.29025 0.59638 0.0
N1161 N 4e-05 0.28364 0.60053 0.0
C1162 C 0.01434 0.30319 0.58474 0.0
C1163 C 0.01431 0.2899 0.59516 0.0
C1164 C -0.00045 0.31018 0.58011 0.0
C1165 C 0.98501 0.30366 0.58611 0.0
H1166 H 0.97443 0.28503 0.60102 0.0
H1167 H 0.02566 0.28466 0.59904 0.0
C1168 C 0.0369 0.2364 0.65566 0.0
N1169 N 0.03246 0.2508 0.64897 0.0
C1170 C 0.05134 0.23519 0.66428 0.0
C1171 C 0.05624 0.26372 0.65915 0.0
C1172 C 0.04169 0.26437 0.65058 0.0
C1173 C 0.06134 0.24889 0.66584 0.0
H1174 H 0.02952 0.22572 0.65382 0.0
H1175 H 0.03811 0.27552 0.64467 0.0
C1176 C 0.97075 0.24804 0.59854 0.0
N1177 N 0.94917 0.24395 0.57324 0.0
C1178 C 0.95515 0.24209 0.60152 0.0
C1179 C 0.97532 0.25205 0.58271 0.0
C1180 C 0.94443 0.24007 0.58856 0.0
C1181 C 0.96426 0.24985 0.57008 0.0
C1182 C 0.99562 0.21997 0.64802 0.0
C1183 C 0.99061 0.20453 0.64302 0.0
C1184 C -0.00389 0.22369 0.66455 0.0
C1185 C 0.9861 0.19307 0.65468 0.0
C1186 C 0.99148 0.2119 0.67583 0.0
N1187 N 0.98663 0.19696 0.67071 0.0
C1188 C 0.01663 0.21082 0.59811 0.0
C1189 C 0.98813 0.20956 0.59441 0.0
C1190 C 0.01865 0.19619 0.58991 0.0
N1191 N 0.00156 0.2171 0.60026 0.0
C1192 C 0.98958 0.19487 0.58613 0.0
C1193 C 0.00498 0.18789 0.5841 0.0
H1194 H 0.02705 0.21696 0.60319 0.0
H1195 H 0.97626 0.21459 0.59671 0.0
C1196 C 0.96155 0.26174 0.65603 0.0
N1197 N 0.9661 0.2483 0.64764 0.0
C1198 C 0.94774 0.26137 0.66576 0.0
C1199 C 0.94353 0.23336 0.65787 0.0
C1200 C 0.95741 0.23429 0.64827 0.0
C1201 C 0.93855 0.24704 0.66676 0.0
H1202 H 0.96861 0.27276 0.65511 0.0
H1203 H 0.96118 0.22391 0.64118 0.0
O1204 O 0.01887 0.25064 0.61234 0.0
O1205 O -0.00182 0.26918 0.63745 0.0
O1206 O 0.98125 0.25038 0.61117 0.0
O1207 O 0.00055 0.23116 0.63679 0.0
H1208 H 0.05003 0.25711 0.61612 0.0
H1209 H 0.01303 0.24619 0.58101 0.0
H1210 H 0.07011 0.25886 0.59374 0.0
H1211 H 0.03369 0.24831 0.55922 0.0
H1212 H 0.007 0.28436 0.68972 0.0
H1213 H 0.01041 0.29831 0.63159 0.0
H1214 H -0.00233 0.26437 0.66922 0.0
H1215 H 0.01944 0.31776 0.65276 0.0
H1216 H 0.02579 0.30816 0.58063 0.0
H1217 H 0.97338 0.3088 0.58279 0.0
H1218 H 0.05485 0.22355 0.66931 0.0
H1219 H 0.06377 0.27448 0.65983 0.0
H1220 H 0.95135 0.23908 0.61371 0.0
H1221 H 0.9872 0.25699 0.58021 0.0
H1222 H 0.93233 0.23545 0.59069 0.0
H1223 H 0.96763 0.25291 0.55777 0.0
H1224 H 0.9903 0.20142 0.63028 0.0
H1225 H 0.00014 0.2355 0.66861 0.0
H1226 H 0.98223 0.18106 0.65099 0.0
H1227 H 0.99182 0.2146 0.68866 0.0
H1228 H 0.03074 0.19123 0.58847 0.0
H1229 H 0.97873 0.18868 0.58205 0.0
H1230 H 0.94435 0.27215 0.6725 0.0
H1231 H 0.9366 0.22218 0.65807 0.0
Li1232 Li 0.48688 0.25238 0.36293 0.0
Li1233 Li 0.5015 0.26681 0.38508 0.0
Li1234 Li 0.51688 0.25177 0.36309 0.0
Li1235 Li 0.50181 0.23662 0.38493 0.0
C1236 C 0.50093 0.28206 0.3493 0.0
N1237 N 0.49795 0.30479 0.32485 0.0
C1238 C 0.49635 0.29799 0.35297 0.0
C1239 C 0.50412 0.2777 0.33324 0.0
C1240 C 0.49489 0.3093 0.34042 0.0
C1241 C 0.5025 0.28936 0.32103 0.0
C1242 C 0.47184 0.25293 0.39889 0.0
C1243 C 0.46477 0.251 0.42719 0.0
N1244 N 0.44944 0.25595 0.42363 0.0
C1245 C 0.45601 0.2579 0.39547 0.0
C1246 C 0.47627 0.24936 0.41484 0.0
C1247 C 0.44486 0.25939 0.40816 0.0
C1248 C 0.46066 0.23814 0.34653 0.0
N1249 N 0.46802 0.25256 0.34972 0.0
C1250 C 0.44779 0.26691 0.33472 0.0
C1251 C 0.46185 0.26682 0.34413 0.0
C1252 C 0.43987 0.2522 0.33127 0.0
C1253 C 0.44648 0.23767 0.33729 0.0
H1254 H 0.46573 0.22701 0.3513 0.0
H1255 H 0.46766 0.27816 0.34719 0.0
C1256 C 0.51533 0.29351 0.40189 0.0
N1257 N 0.50117 0.28602 0.39794 0.0
C1258 C 0.51515 0.30837 0.41012 0.0
C1259 C 0.48586 0.30743 0.41013 0.0
C1260 C 0.4866 0.29266 0.40186 0.0
C1261 C 0.50025 0.31559 0.41423 0.0
H1262 H 0.52675 0.28812 0.39834 0.0
H1263 H 0.47553 0.28677 0.39811 0.0
C1264 C 0.50259 0.22221 0.34879 0.0
N1265 N 0.50482 0.19968 0.32407 0.0
C1266 C 0.50689 0.20615 0.35223 0.0
C1267 C 0.49934 0.22681 0.33281 0.0
C1268 C 0.50798 0.19494 0.33955 0.0
C1269 C 0.50055 0.21523 0.32047 0.0
C1270 C 0.53188 0.25185 0.39882 0.0
C1271 C 0.54805 0.24853 0.39494 0.0
C1272 C 0.52756 0.25506 0.41489 0.0
C1273 C 0.55965 0.24839 0.40727 0.0
C1274 C 0.53952 0.25481 0.42687 0.0
N1275 N 0.55518 0.2515 0.42285 0.0
C1276 C 0.54386 0.26587 0.3474 0.0
C1277 C 0.54207 0.23723 0.34495 0.0
C1278 C 0.55854 0.26596 0.33891 0.0
N1279 N 0.53602 0.25163 0.35029 0.0
C1280 C 0.55658 0.23677 0.33626 0.0
C1281 C 0.5651 0.25124 0.33329 0.0
H1282 H 0.53884 0.27713 0.35196 0.0
H1283 H 0.53586 0.22603 0.34777 0.0
C1284 C 0.48855 0.20717 0.39598 0.0
N1285 N 0.50165 0.21711 0.39735 0.0
C1286 C 0.48835 0.19208 0.40379 0.0
C1287 C 0.51494 0.19797 0.41462 0.0
C1288 C 0.5147 0.21282 0.40645 0.0
C1289 C 0.50173 0.1873 0.41319 0.0
H1290 H 0.47839 0.21083 0.38853 0.0
H1291 H 0.52512 0.2207 0.40709 0.0
O1292 O 0.50244 0.27087 0.36146 0.0
O1293 O 0.48284 0.25135 0.38658 0.0
O1294 O 0.50139 0.23328 0.3611 0.0
O1295 O 0.5204 0.25196 0.38687 0.0
H1296 H 0.49392 0.30156 0.36537 0.0
H1297 H 0.50789 0.26548 0.33024 0.0
H1298 H 0.49132 0.32167 0.34307 0.0
H1299 H 0.5049 0.28616 0.30854 0.0
H1300 H 0.46802 0.2483 0.43961 0.0
H1301 H 0.45239 0.26063 0.38315 0.0
H1302 H 0.48842 0.24529 0.41764 0.0
H1303 H 0.43257 0.26328 0.40571 0.0
H1304 H 0.44292 0.27839 0.33056 0.0
H1305 H 0.44076 0.22608 0.33486 0.0
H1306 H 0.52653 0.31421 0.41309 0.0
H1307 H 0.47411 0.3127 0.41274 0.0
H1308 H 0.50941 0.2024 0.36455 0.0
H1309 H 0.49581 0.23913 0.32998 0.0
H1310 H 0.51133 0.18248 0.34201 0.0
H1311 H 0.49807 0.2186 0.30804 0.0
H1312 H 0.55158 0.24603 0.38254 0.0
H1313 H 0.51512 0.25775 0.41806 0.0
H1314 H 0.5722 0.24581 0.40446 0.0
H1315 H 0.53636 0.25726 0.43937 0.0
H1316 H 0.56473 0.27738 0.33682 0.0
H1317 H 0.56137 0.22514 0.3324 0.0
H1318 H 0.47791 0.18422 0.40245 0.0
H1319 H 0.52559 0.19464 0.42153 0.0
Li1320 Li 0.50035 0.76488 0.1126 0.0
Li1321 Li 0.51453 0.74971 0.134 0.0
Li1322 Li 0.49883 0.73544 0.11199 0.0
Li1323 Li 0.48498 0.74991 0.13408 0.0
C1324 C 0.52976 0.75214 0.09873 0.0
N1325 N 0.55312 0.75755 0.07531 0.0
C1326 C 0.54543 0.75676 0.10323 0.0
C1327 C 0.52599 0.75017 0.08233 0.0
C1328 C 0.55707 0.75947 0.0912 0.0
C1329 C 0.53796 0.75301 0.07067 0.0
C1330 C 0.50166 0.77974 0.14853 0.0
C1331 C 0.50038 0.78686 0.17688 0.0
N1332 N 0.50448 0.80241 0.17309 0.0
C1333 C 0.50585 0.79579 0.14491 0.0
C1334 C 0.49888 0.77522 0.16463 0.0
C1335 C 0.50722 0.80708 0.1575 0.0
C1336 C 0.48679 0.78938 0.09393 0.0
N1337 N 0.50102 0.78347 0.09972 0.0
C1338 C 0.51593 0.80459 0.08676 0.0
C1339 C 0.51542 0.79081 0.09653 0.0
C1340 C 0.50143 0.81091 0.0805 0.0
C1341 C 0.48671 0.80317 0.08418 0.0
H1342 H 0.47551 0.7834 0.09696 0.0
H1343 H 0.52647 0.78608 0.10172 0.0
C1344 C 0.54088 0.73377 0.14649 0.0
N1345 N 0.53347 0.74849 0.14632 0.0
C1346 C 0.55602 0.73202 0.1537 0.0
C1347 C 0.55534 0.76055 0.16087 0.0
C1348 C 0.54025 0.76177 0.15338 0.0
C1349 C 0.56351 0.74559 0.16076 0.0
H1350 H 0.5352 0.72352 0.14056 0.0
H1351 H 0.53426 0.77341 0.1527 0.0
C1352 C 0.46986 0.74827 0.09839 0.0
N1353 N 0.44766 0.74287 0.07391 0.0
C1354 C 0.45403 0.74351 0.10215 0.0
C1355 C 0.47439 0.75038 0.08219 0.0
C1356 C 0.44299 0.74082 0.0896 0.0
C1357 C 0.463 0.74756 0.06998 0.0
C1358 C 0.4983 0.7199 0.1477 0.0
C1359 C 0.49383 0.70389 0.14422 0.0
C1360 C 0.5018 0.72435 0.16367 0.0
C1361 C 0.49279 0.69261 0.15684 0.0
C1362 C 0.50059 0.71272 0.17595 0.0
N1363 N 0.49615 0.69722 0.17231 0.0
C1364 C 0.51258 0.71068 0.09376 0.0
C1365 C 0.48396 0.70907 0.09625 0.0
C1366 C 0.51298 0.69598 0.08544 0.0
N1367 N 0.49824 0.71682 0.09902 0.0
C1368 C 0.48378 0.69433 0.08795 0.0
C1369 C 0.49847 0.68749 0.08269 0.0
H1370 H 0.52377 0.71693 0.09656 0.0
H1371 H 0.47279 0.71403 0.10098 0.0
C1372 C 0.46063 0.76339 0.1536 0.0
N1373 N 0.46655 0.74942 0.14712 0.0
C1374 C 0.44691 0.76295 0.16344 0.0
C1375 C 0.44537 0.73387 0.15916 0.0
C1376 C 0.45919 0.73486 0.14953 0.0
C1377 C 0.43917 0.74804 0.16629 0.0
H1378 H 0.46652 0.77484 0.15105 0.0
H1379 H 0.46401 0.72405 0.14386 0.0
O1380 O 0.51835 0.74908 0.11038 0.0
O1381 O 0.49991 0.76868 0.13626 0.0
O1382 O 0.4807 0.75127 0.11057 0.0
O1383 O 0.49965 0.73098 0.13541 0.0
H1384 H 0.54858 0.75822 0.11589 0.0
H1385 H 0.514 0.74634 0.07866 0.0
H1386 H 0.56925 0.76305 0.09451 0.0
H1387 H 0.53521 0.75153 0.05793 0.0
H1388 H 0.49821 0.78354 0.18939 0.0
H1389 H 0.50794 0.79951 0.13249 0.0
H1390 H 0.49538 0.76293 0.16763 0.0
H1391 H 0.51043 0.81955 0.15487 0.0
H1392 H 0.52746 0.81046 0.08445 0.0
H1393 H 0.47529 0.80771 0.07955 0.0
H1394 H 0.56193 0.72027 0.15354 0.0
H1395 H 0.56086 0.7713 0.16606 0.0
H1396 H 0.4503 0.74196 0.11464 0.0
H1397 H 0.48651 0.75429 0.07909 0.0
H1398 H 0.43069 0.73713 0.09233 0.0
H1399 H 0.46632 0.74915 0.05739 0.0
H1400 H 0.49122 0.70022 0.13189 0.0
H1401 H 0.50558 0.73659 0.16652 0.0
H1402 H 0.48934 0.68018 0.15432 0.0
H1403 H 0.50325 0.716 0.18837 0.0
H1404 H 0.5246 0.69095 0.0819 0.0
H1405 H 0.47234 0.68817 0.08601 0.0
H1406 H 0.44223 0.77415 0.16852 0.0
H1407 H 0.43966 0.72218 0.16111 0.0
Li1408 Li 0.88597 -0.00241 0.76152 0.0
Li1409 Li 0.86415 0.98257 0.74682 0.0
Li1410 Li 0.88601 -0.00229 0.73143 0.0
Li1411 Li 0.86377 0.01265 0.74602 0.0
C1412 C 0.89982 0.96746 0.74735 0.0
N1413 N 0.9239 0.94426 0.74967 0.0
C1414 C 0.89591 0.9515 0.75163 0.0
C1415 C 0.91594 0.97162 0.74415 0.0
C1416 C 0.90827 0.93994 0.75276 0.0
C1417 C 0.92794 0.95971 0.74542 0.0
C1418 C 0.85006 -0.00363 0.77636 0.0
C1419 C 0.82182 -0.00211 0.78379 0.0
N1420 N 0.82563 0.99284 0.79902 0.0
C1421 C 0.85373 0.9913 0.79211 0.0
C1422 C 0.83401 -0.00021 0.77216 0.0
C1423 C 0.84119 0.98955 0.80339 0.0
C1424 C 0.89988 0.01221 0.78903 0.0
N1425 N 0.89906 -0.00193 0.78053 0.0
C1426 C 0.91664 0.98499 0.7995 0.0
C1427 C 0.90706 0.98455 0.78557 0.0
C1428 C 0.91774 -0.00059 0.80852 0.0
C1429 C 0.90914 0.01314 0.80319 0.0
H1430 H 0.89327 0.02275 0.7848 0.0
H1431 H 0.90592 0.97333 0.77892 0.0
C1432 C 0.84719 0.95589 0.73318 0.0
N1433 N 0.85148 0.96327 0.74729 0.0
C1434 C 0.83894 0.94105 0.73344 0.0
C1435 C 0.83963 0.94176 0.76274 0.0
C1436 C 0.84791 0.95653 0.7619 0.0
C1437 C 0.83516 0.93373 0.74839 0.0
H1438 H 0.85046 0.96137 0.72171 0.0
H1439 H 0.85191 0.96235 0.77292 0.0
C1440 C 0.90001 0.02735 0.74536 0.0
N1441 N 0.92505 0.04953 0.74309 0.0
C1442 C 0.89684 0.04336 0.7407 0.0
C1443 C 0.91587 0.02262 0.74897 0.0
C1444 C 0.90968 0.05439 0.73959 0.0
C1445 C 0.92837 0.03402 0.74772 0.0
C1446 C 0.85023 -0.00281 0.7163 0.0
C1447 C 0.85402 -2e-05 0.70001 0.0
C1448 C 0.83413 0.99449 0.72086 0.0
C1449 C 0.84157 0.0001 0.68852 0.0
C1450 C 0.82203 0.9947 0.70901 0.0
N1451 N 0.82597 -0.00252 0.69323 0.0
C1452 C 0.90346 0.98375 0.70527 0.0
C1453 C 0.9025 0.01253 0.70543 0.0
C1454 C 0.91191 0.98384 0.69056 0.0
N1455 N 0.89892 -0.00203 0.71233 0.0
C1456 C 0.91094 0.01319 0.69077 0.0
C1457 C 0.91561 -0.00129 0.68302 0.0
H1458 H 0.90023 0.97233 0.7109 0.0
H1459 H 0.89838 0.02364 0.71106 0.0
C1460 C 0.85031 0.04092 0.75949 0.0
N1461 N 0.85097 0.03186 0.74573 0.0
C1462 C 0.84242 0.05595 0.75951 0.0
C1463 C 0.83559 0.05178 0.73132 0.0
C1464 C 0.84373 0.03691 0.73182 0.0
C1465 C 0.83513 0.0617 0.74519 0.0
H1466 H 0.85637 0.03667 0.77033 0.0
H1467 H 0.84461 0.02965 0.72096 0.0
O1468 O 0.88785 0.9789 0.74626 0.0
O1469 O 0.86222 -0.00173 0.76525 0.0
O1470 O 0.88754 0.01648 0.74665 0.0
O1471 O 0.8623 -0.00296 0.72765 0.0
H1472 H 0.88348 0.94808 0.7541 0.0
H1473 H 0.91913 0.98388 0.74068 0.0
H1474 H 0.90544 0.92755 0.75609 0.0
H1475 H 0.94048 0.96275 0.74301 0.0
H1476 H 0.80934 0.00047 0.78071 0.0
H1477 H 0.86613 0.98871 0.79556 0.0
H1478 H 0.83102 0.00397 0.76009 0.0
H1479 H 0.84384 0.98559 0.81561 0.0
H1480 H 0.92283 0.97406 0.80338 0.0
H1481 H 0.90969 0.02449 0.80981 0.0
H1482 H 0.83567 0.93531 0.72209 0.0
H1483 H 0.83729 0.93642 0.77451 0.0
H1484 H 0.88459 0.04721 0.73795 0.0
H1485 H 0.91847 0.01034 0.75281 0.0
H1486 H 0.90743 0.06682 0.73596 0.0
H1487 H 0.94072 0.03054 0.75048 0.0
H1488 H 0.86644 0.00205 0.69629 0.0
H1489 H 0.83103 0.99217 0.73339 0.0
H1490 H 0.84432 0.00226 0.67588 0.0
H1491 H 0.80951 0.99263 0.71236 0.0
H1492 H 0.91535 0.97239 0.68507 0.0
H1493 H 0.91324 0.02492 0.68527 0.0
H1494 H 0.84261 0.06324 0.77043 0.0
H1495 H 0.82997 0.05557 0.72008 0.0
Li1496 Li 0.75178 0.13479 0.51092 0.0
Li1497 Li 0.76702 0.1133 0.49683 0.0
Li1498 Li 0.7516 0.13462 0.48156 0.0
Li1499 Li 0.73737 0.11238 0.49571 0.0
C1500 C 0.78144 0.14912 0.49964 0.0
N1501 N 0.80371 0.17332 0.50628 0.0
C1502 C 0.79706 0.1451 0.50485 0.0
C1503 C 0.77717 0.16544 0.49774 0.0
C1504 C 0.80814 0.15751 0.50816 0.0
C1505 C 0.78859 0.1775 0.50119 0.0
C1506 C 0.75338 0.09917 0.52622 0.0
C1507 C 0.75213 0.07092 0.53383 0.0
N1508 N 0.75657 0.07497 0.54919 0.0
C1509 C 0.75786 0.10308 0.54209 0.0
C1510 C 0.75041 0.08299 0.52205 0.0
C1511 C 0.75944 0.09066 0.55353 0.0
C1512 C 0.73561 0.15091 0.53537 0.0
N1513 N 0.75068 0.14765 0.52957 0.0
C1514 C 0.76297 0.16114 0.55199 0.0
C1515 C 0.76427 0.15256 0.53748 0.0
C1516 C 0.74755 0.16436 0.55844 0.0
C1517 C 0.73375 0.15934 0.54987 0.0
H1518 H 0.72506 0.14656 0.52893 0.0
H1519 H 0.77609 0.14937 0.53284 0.0
C1520 C 0.79209 0.09463 0.48361 0.0
N1521 N 0.78579 0.10052 0.49765 0.0
C1522 C 0.806 0.08505 0.48392 0.0
C1523 C 0.80688 0.08817 0.51309 0.0
C1524 C 0.7929 0.09763 0.51221 0.0
C1525 C 0.81359 0.08173 0.4988 0.0
H1526 H 0.78632 0.09741 0.47218 0.0
H1527 H 0.78783 0.10286 0.52311 0.0
C1528 C 0.72187 0.14806 0.49349 0.0
N1529 N 0.69952 0.17247 0.48815 0.0
C1530 C 0.70625 0.14424 0.48814 0.0
C1531 C 0.72609 0.16427 0.49623 0.0
C1532 C 0.69513 0.15676 0.48548 0.0
C1533 C 0.71463 0.17645 0.49342 0.0
C1534 C 0.75149 0.09882 0.46625 0.0
C1535 C 0.74756 0.10257 0.45019 0.0
C1536 C 0.75411 0.08265 0.47071 0.0
C1537 C 0.74626 0.09002 0.43885 0.0
C1538 C 0.75268 0.07046 0.45901 0.0
N1539 N 0.74882 0.07436 0.44346 0.0
C1540 C 0.76482 0.15559 0.45851 0.0
C1541 C 0.73682 0.14983 0.45524 0.0
C1542 C 0.76456 0.16599 0.44521 0.0
N1543 N 0.75104 0.14795 0.4633 0.0
C1544 C 0.73599 0.16008 0.44185 0.0
C1545 C 0.74999 0.16833 0.43672 0.0
H1546 H 0.77602 0.15359 0.465 0.0
H1547 H 0.72617 0.14324 0.45914 0.0
C1548 C 0.71093 0.09806 0.51041 0.0
N1549 N 0.71882 0.09909 0.496 0.0
C1550 C 0.69631 0.08964 0.51152 0.0
C1551 C 0.6985 0.08311 0.483 0.0
C1552 C 0.713 0.0918 0.48241 0.0
C1553 C 0.68979 0.08221 0.49764 0.0
H1554 H 0.71578 0.10422 0.52093 0.0
H1555 H 0.71931 0.09308 0.47102 0.0
O1556 O 0.77059 0.13707 0.496 0.0
O1557 O 0.75146 0.11124 0.51499 0.0
O1558 O 0.73277 0.1359 0.49646 0.0
O1559 O 0.75299 0.11101 0.47742 0.0
H1560 H 0.80061 0.13253 0.50625 0.0
H1561 H 0.76524 0.16877 0.49347 0.0
H1562 H 0.82027 0.15458 0.51218 0.0
H1563 H 0.78545 0.19018 0.49974 0.0
H1564 H 0.74988 0.05834 0.53078 0.0
H1565 H 0.76007 0.11558 0.54553 0.0
H1566 H 0.74668 0.07981 0.50989 0.0
H1567 H 0.76291 0.0935 0.56585 0.0
H1568 H 0.77389 0.16458 0.55844 0.0
H1569 H 0.72167 0.16165 0.55449 0.0
H1570 H 0.81071 0.08024 0.47263 0.0
H1571 H 0.81254 0.08619 0.52476 0.0
H1572 H 0.70276 0.13172 0.48609 0.0
H1573 H 0.73801 0.1674 0.50066 0.0
H1574 H 0.683 0.15399 0.48134 0.0
H1575 H 0.71773 0.18905 0.49549 0.0
H1576 H 0.74557 0.11503 0.44653 0.0
H1577 H 0.75731 0.07957 0.48304 0.0
H1578 H 0.74324 0.09274 0.42638 0.0
H1579 H 0.75469 0.05789 0.46228 0.0
H1580 H 0.7756 0.17216 0.44164 0.0
H1581 H 0.72463 0.16125 0.43539 0.0
H1582 H 0.68989 0.08957 0.52298 0.0
H1583 H 0.69399 0.07744 0.47204 0.0
Li1584 Li 0.61461 0.00126 0.26285 0.0
Li1585 Li 0.63643 0.01569 0.24853 0.0
Li1586 Li 0.61445 0.00078 0.23323 0.0
Li1587 Li 0.63622 0.98629 0.2474 0.0
C1588 C 0.60084 0.03114 0.2499 0.0
N1589 N 0.57673 0.05411 0.25393 0.0
C1590 C 0.60483 0.04709 0.25416 0.0
C1591 C 0.58459 0.02691 0.24758 0.0
C1592 C 0.59247 0.05852 0.25617 0.0
C1593 C 0.57258 0.03868 0.24971 0.0
C1594 C 0.64994 0.0039 0.27797 0.0
C1595 C 0.67809 0.00569 0.28568 0.0
N1596 N 0.67355 0.01059 0.30077 0.0
C1597 C 0.64554 0.00892 0.29357 0.0
C1598 C 0.66633 0.00222 0.274 0.0
C1599 C 0.65766 0.01226 0.30492 0.0
C1600 C 0.59694 0.98683 0.28782 0.0
N1601 N 0.60142 0.00132 0.28133 0.0
C1602 C 0.5869 0.0158 0.30173 0.0
C1603 C 0.59681 0.01566 0.28805 0.0
C1604 C 0.58202 0.00103 0.30865 0.0
C1605 C 0.58716 0.98639 0.30158 0.0
H1606 H 0.60106 0.97563 0.28233 0.0
H1607 H 0.601 0.02699 0.28295 0.0
C1608 C 0.6557 0.03984 0.23474 0.0
N1609 N 0.64943 0.03436 0.24895 0.0
C1610 C 0.66437 0.05435 0.23432 0.0
C1611 C 0.66007 0.05719 0.26322 0.0
C1612 C 0.65148 0.04261 0.26307 0.0
C1613 C 0.66642 0.06333 0.24865 0.0
H1614 H 0.65354 0.03318 0.22365 0.0
H1615 H 0.64601 0.03814 0.27411 0.0
C1616 C 0.60038 0.9712 0.24657 0.0
N1617 N 0.5757 0.94864 0.24395 0.0
C1618 C 0.60389 0.95513 0.24239 0.0
C1619 C 0.58432 0.97579 0.2495 0.0
C1620 C 0.59124 0.9439 0.24111 0.0
C1621 C 0.57201 0.96421 0.24808 0.0
C1622 C 0.65001 -0.0022 0.2182 0.0
C1623 C 0.6459 0.99235 0.20268 0.0
C1624 C 0.66632 -0.00041 0.2224 0.0
C1625 C 0.65823 0.98861 0.19166 0.0
C1626 C 0.67829 0.99571 0.21104 0.0
N1627 N 0.67403 0.99035 0.19603 0.0
C1628 C 0.59577 0.01484 0.20872 0.0
C1629 C 0.59839 0.98616 0.20717 0.0
C1630 C 0.58686 0.01508 0.19439 0.0
N1631 N 0.60133 0.00053 0.21473 0.0
C1632 C 0.58962 0.98584 0.19274 0.0
C1633 C 0.58391 0.00047 0.18612 0.0
H1634 H 0.59864 0.0261 0.21482 0.0
H1635 H 0.60326 0.97502 0.2121 0.0
C1636 C 0.65608 0.96247 0.26079 0.0
N1637 N 0.64912 0.96762 0.2468 0.0
C1638 C 0.6655 0.94845 0.26089 0.0
C1639 C 0.66025 0.94526 0.23219 0.0
C1640 C 0.65089 0.95933 0.23267 0.0
C1641 C 0.66763 0.93965 0.24646 0.0
H1642 H 0.65415 0.96915 0.27191 0.0
H1643 H 0.64477 0.96347 0.22185 0.0
O1644 O 0.61285 0.01988 0.24772 0.0
O1645 O 0.63819 0.00013 0.26689 0.0
O1646 O 0.6127 0.9822 0.24831 0.0
O1647 O 0.63807 0.00183 0.229 0.0
H1648 H 0.61736 0.05061 0.25589 0.0
H1649 H 0.58131 0.01472 0.24401 0.0
H1650 H 0.59539 0.0709 0.25947 0.0
H1651 H 0.55996 0.03557 0.24796 0.0
H1652 H 0.69082 0.00442 0.28278 0.0
H1653 H 0.6329 0.01014 0.29688 0.0
H1654 H 0.66993 -0.00189 0.26208 0.0
H1655 H 0.65444 0.01613 0.31704 0.0
H1656 H 0.58347 0.02732 0.30708 0.0
H1657 H 0.58364 0.97476 0.30664 0.0
H1658 H 0.66879 0.05884 0.22278 0.0
H1659 H 0.66144 0.06375 0.27452 0.0
H1660 H 0.61627 0.95134 0.24023 0.0
H1661 H 0.58142 0.98808 0.25305 0.0
H1662 H 0.59379 0.93141 0.2379 0.0
H1663 H 0.55954 0.96758 0.25034 0.0
H1664 H 0.63332 0.99104 0.19918 0.0
H1665 H 0.66969 0.00405 0.23425 0.0
H1666 H 0.65523 0.98437 0.17961 0.0
H1667 H 0.69097 -0.00297 0.21413 0.0
H1668 H 0.58291 0.02663 0.18949 0.0
H1669 H 0.58757 0.97435 0.18668 0.0
H1670 H 0.67104 0.94453 0.27214 0.0
H1671 H 0.66135 0.93861 0.22091 0.0
Li1672 Li 0.73124 0.88614 0.00305 0.0
Li1673 Li 0.74568 0.86413 0.01832 0.0
Li1674 Li 0.76103 0.88581 0.0032 0.0
Li1675 Li 0.74659 0.86384 0.98857 0.0
C1676 C 0.74666 0.9002 0.033 0.0
N1677 N 0.74748 0.92503 0.05551 0.0
C1678 C 0.74347 0.89696 0.04933 0.0
C1679 C 0.75036 0.91603 0.02811 0.0
C1680 C 0.74392 0.90969 0.06053 0.0
C1681 C 0.7507 0.92843 0.03969 0.0
C1682 C 0.7164 0.85001 0.00423 0.0
C1683 C 0.7096 0.82158 0.00238 0.0
N1684 N 0.694 0.82515 0.0064 0.0
C1685 C 0.7003 0.85341 0.0083 0.0
C1686 C 0.72111 0.83399 0.00119 0.0
C1687 C 0.68916 0.84067 0.00936 0.0
C1688 C 0.70243 0.89741 0.98939 0.0
N1689 N 0.71225 0.89889 0.00253 0.0
C1690 C 0.69346 0.9168 0.01538 0.0
C1691 C 0.70811 0.90838 0.01537 0.0
C1692 C 0.68287 0.91518 0.00218 0.0
C1693 C 0.68754 0.90546 0.98898 0.0
H1694 H 0.70603 0.88966 0.97942 0.0
H1695 H 0.71593 0.9091 0.02582 0.0
C1696 C 0.75871 0.8454 0.04391 0.0
N1697 N 0.74488 0.85152 0.03735 0.0
C1698 C 0.75812 0.83689 0.05855 0.0
C1699 C 0.72913 0.84136 0.05939 0.0
C1700 C 0.73026 0.84964 0.0447 0.0
C1701 C 0.7432 0.83499 0.06654 0.0
H1702 H 0.77022 0.84743 0.03796 0.0
H1703 H 0.71953 0.85491 0.03931 0.0
C1704 C 0.74712 0.89963 0.97307 0.0
N1705 N 0.74862 0.92401 0.9501 0.0
C1706 C 0.75162 0.89601 0.95713 0.0
C1707 C 0.74328 0.9156 0.97733 0.0
C1708 C 0.75233 0.90852 0.94569 0.0
C1709 C 0.74415 0.92777 0.96554 0.0
C1710 C 0.77634 0.85024 0.00245 0.0
C1711 C 0.79222 0.85444 -0.00176 0.0
C1712 C 0.77237 0.83396 0.00514 0.0
C1713 C 0.80389 0.84222 -0.00327 0.0
C1714 C 0.78438 0.8221 0.0035 0.0
N1715 N 0.79976 0.82644 -0.00063 0.0
C1716 C 0.78811 0.89822 0.01819 0.0
C1717 C 0.78642 0.90558 0.99043 0.0
C1718 C 0.80334 0.9054 0.01945 0.0
N1719 N 0.78013 0.89826 0.00381 0.0
C1720 C 0.80162 0.91301 0.99116 0.0
C1721 C 0.8104 0.91262 0.00574 0.0
H1722 H 0.78282 0.89213 0.02856 0.0
H1723 H 0.77995 0.90514 0.97906 0.0
C1724 C 0.73189 0.8492 0.96222 0.0
N1725 N 0.74638 0.85078 0.96986 0.0
C1726 C 0.73085 0.84072 0.94763 0.0
C1727 C 0.75966 0.8354 0.94922 0.0
C1728 C 0.76015 0.84409 0.96373 0.0
C1729 C 0.7449 0.83384 0.94085 0.0
H1730 H 0.72121 0.8549 0.96729 0.0
H1731 H 0.77158 0.84579 0.96986 0.0
O1732 O 0.74605 0.88787 0.02189 0.0
O1733 O 0.72733 0.86241 0.00278 0.0
O1734 O 0.7462 0.88747 0.98432 0.0
O1735 O 0.76486 0.8621 0.00419 0.0
H1736 H 0.7406 0.88476 0.0533 0.0
H1737 H 0.75296 0.91871 0.01554 0.0
H1738 H 0.74142 0.90738 0.0732 0.0
H1739 H 0.75351 0.94075 0.03609 0.0
H1740 H 0.71305 0.80912 4e-05 0.0
H1741 H 0.69646 0.86578 0.01059 0.0
H1742 H 0.73346 0.83119 -0.00222 0.0
H1743 H 0.67665 0.84312 0.0125 0.0
H1744 H 0.69015 0.92399 0.02588 0.0
H1745 H 0.67969 0.90398 0.97856 0.0
H1746 H 0.76925 0.83233 0.06382 0.0
H1747 H 0.7174 0.84007 0.06519 0.0
H1748 H 0.75452 0.88366 0.95364 0.0
H1749 H 0.73958 0.91855 0.98956 0.0
H1750 H 0.75581 0.90591 0.93331 0.0
H1751 H 0.74123 0.9402 0.96865 0.0
H1752 H 0.79551 0.86701 -0.00383 0.0
H1753 H 0.76019 0.83053 0.00859 0.0
H1754 H 0.81623 0.84529 0.99349 0.0
H1755 H 0.78149 0.80944 0.00556 0.0
H1756 H 0.80968 0.90501 0.03094 0.0
H1757 H 0.80676 0.91833 0.9803 0.0
H1758 H 0.71929 0.84011 0.94145 0.0
H1759 H 0.77075 0.83018 0.9445 0.0
Li1760 Li 0.25079 0.63582 0.01139 0.0
Li1761 Li 0.26594 0.6143 -0.00275 0.0
Li1762 Li 0.25128 0.63609 0.98187 0.0
Li1763 Li 0.23656 0.61387 0.99561 0.0
C1764 C 0.28098 0.6502 -0.00153 0.0
N1765 N 0.30376 0.6747 0.00091 0.0
C1766 C 0.29691 0.64657 0.00298 0.0
C1767 C 0.27665 0.66627 0.99513 0.0
C1768 C 0.30825 0.65913 0.00417 0.0
C1769 C 0.28834 0.67849 -0.00354 0.0
C1770 C 0.25312 0.60035 0.02642 0.0
C1771 C 0.25366 0.57215 0.03432 0.0
N1772 N 0.25866 0.57658 0.0494 0.0
C1773 C 0.25819 0.60464 0.04201 0.0
C1774 C 0.25074 0.58399 0.02254 0.0
C1775 C 0.26096 0.59243 0.05345 0.0
C1776 C 0.23479 0.64935 0.03738 0.0
N1777 N 0.2496 0.64834 0.03026 0.0
C1778 C 0.26191 0.66262 0.05218 0.0
C1779 C 0.26305 0.65487 0.03719 0.0
C1780 C 0.24684 0.66338 0.06007 0.0
C1781 C 0.23311 0.65692 0.05237 0.0
H1782 H 0.22439 0.64383 0.03161 0.0
H1783 H 0.27473 0.65354 0.03142 0.0
C1784 C 0.29007 0.59512 0.98369 0.0
N1785 N 0.28442 0.6012 -0.00209 0.0
C1786 C 0.30372 0.5852 0.98354 0.0
C1787 C 0.30562 0.58824 0.01267 0.0
C1788 C 0.29191 0.59812 0.01225 0.0
C1789 C 0.31169 0.5817 -0.00184 0.0
H1790 H 0.28403 0.59806 0.97245 0.0
H1791 H 0.28738 0.60351 0.0233 0.0
C1792 C 0.22103 0.64962 -0.004 0.0
N1793 N 0.19825 0.67422 0.99548 0.0
C1794 C 0.20478 0.64607 0.99279 0.0
C1795 C 0.2257 0.66566 -0.00096 0.0
C1796 C 0.19344 0.65868 0.99256 0.0
C1797 C 0.214 0.67793 -0.00132 0.0
C1798 C 0.24976 0.60046 0.96641 0.0
C1799 C 0.24572 0.60448 0.95046 0.0
C1800 C 0.25139 0.58415 0.97083 0.0
C1801 C 0.2433 0.59206 0.93916 0.0
C1802 C 0.24886 0.57208 0.95918 0.0
N1803 N 0.2449 0.57626 0.94372 0.0
C1804 C 0.26572 0.65354 0.95678 0.0
C1805 C 0.23695 0.65449 0.9574 0.0
C1806 C 0.26604 0.66339 0.94305 0.0
N1807 N 0.25132 0.64942 0.96363 0.0
C1808 C 0.23669 0.66445 0.94377 0.0
C1809 C 0.25137 0.66895 0.93644 0.0
H1810 H 0.27692 0.64909 0.96195 0.0
H1811 H 0.22569 0.65063 0.96287 0.0
C1812 C 0.21155 0.59655 0.0096 0.0
N1813 N 0.21807 0.60075 0.99508 0.0
C1814 C 0.19714 0.58779 0.0102 0.0
C1815 C 0.19661 0.58763 0.98086 0.0
C1816 C 0.21099 0.59651 0.98083 0.0
C1817 C 0.18938 0.58338 -0.0043 0.0
H1818 H 0.21731 0.60044 0.02071 0.0
H1819 H 0.21623 0.60038 0.96947 0.0
O1820 O 0.26987 0.63795 -0.00304 0.0
O1821 O 0.25004 0.61218 0.0152 0.0
O1822 O 0.23222 0.63737 -0.00368 0.0
O1823 O 0.25244 0.6125 0.97752 0.0
H1824 H 0.30048 0.63417 0.0055 0.0
H1825 H 0.26447 0.66925 0.99136 0.0
H1826 H 0.32062 0.6565 0.00764 0.0
H1827 H 0.28517 0.69098 0.99388 0.0
H1828 H 0.25187 0.55944 0.03149 0.0
H1829 H 0.25995 0.61727 0.04524 0.0
H1830 H 0.24657 0.5805 0.01062 0.0
H1831 H 0.2649 0.59557 0.06556 0.0
H1832 H 0.27279 0.66729 0.05787 0.0
H1833 H 0.22127 0.65739 0.05806 0.0
H1834 H 0.30802 0.58035 0.9721 0.0
H1835 H 0.31164 0.5861 0.02414 0.0
H1836 H 0.20097 0.63369 0.99049 0.0
H1837 H 0.23817 0.66857 0.00177 0.0
H1838 H 0.18082 0.65612 0.99007 0.0
H1839 H 0.21744 0.6904 0.00101 0.0
H1840 H 0.2445 0.61706 0.94684 0.0
H1841 H 0.2547 0.58085 0.98307 0.0
H1842 H 0.24017 0.59499 0.92676 0.0
H1843 H 0.25009 0.55941 0.96241 0.0
H1844 H 0.27758 0.66663 0.93768 0.0
H1845 H 0.22515 0.66824 0.93878 0.0
H1846 H 0.1918 0.5851 0.02191 0.0
H1847 H 0.19104 0.58442 0.96941 0.0
Li1848 Li 0.13641 0.51352 0.7468 0.0
Li1849 Li 0.11501 0.49953 0.76262 0.0
Li1850 Li 0.13624 0.4839 0.7473 0.0
Li1851 Li 0.11387 0.49845 0.73309 0.0
C1852 C 0.15061 0.50089 0.77713 0.0
N1853 N 0.17448 0.50455 0.80032 0.0
C1854 C 0.14667 0.50673 0.79256 0.0
C1855 C 0.16665 0.49678 0.77353 0.0
C1856 C 0.15892 0.50853 0.80411 0.0
C1857 C 0.17856 0.49876 0.78541 0.0
C1858 C 0.10105 0.52926 0.74705 0.0
C1859 C 0.07292 0.53684 0.7446 0.0
N1860 N 0.07705 0.55267 0.74692 0.0
C1861 C 0.10504 0.54561 0.74934 0.0
C1862 C 0.08489 0.52482 0.74461 0.0
C1863 C 0.09273 0.55726 0.74926 0.0
C1864 C 0.15157 0.53909 0.73085 0.0
N1865 N 0.14922 0.53232 0.74568 0.0
C1866 C 0.16296 0.55428 0.7586 0.0
C1867 C 0.15474 0.53951 0.75944 0.0
C1868 C 0.16529 0.56174 0.74346 0.0
C1869 C 0.15971 0.55385 0.72944 0.0
H1870 H 0.14673 0.53324 0.72017 0.0
H1871 H 0.15227 0.53409 0.77111 0.0
C1872 C 0.09981 0.48619 0.78961 0.0
N1873 N 0.1024 0.50025 0.78141 0.0
C1874 C 0.09012 0.48614 0.80344 0.0
C1875 C 0.0862 0.51511 0.80018 0.0
C1876 C 0.09604 0.5146 0.78648 0.0
C1877 C 0.0831 0.50074 0.80882 0.0
H1878 H 0.10527 0.47502 0.78534 0.0
H1879 H 0.09858 0.52564 0.77989 0.0
C1880 C 0.14976 0.4985 0.71714 0.0
N1881 N 0.17476 0.49871 0.69482 0.0
C1882 C 0.14645 0.49662 0.70063 0.0
C1883 C 0.16576 0.50055 0.72231 0.0
C1884 C 0.15926 0.49674 0.68953 0.0
C1885 C 0.17824 0.50061 0.71083 0.0
C1886 C 0.10031 0.46897 0.74935 0.0
C1887 C 0.10364 0.45254 0.74666 0.0
C1888 C 0.08447 0.47386 0.75291 0.0
C1889 C 0.09101 0.44125 0.7475 0.0
C1890 C 0.07218 0.4622 0.75365 0.0
N1891 N 0.07568 0.44627 0.75095 0.0
C1892 C 0.15141 0.4578 0.76203 0.0
C1893 C 0.1562 0.45977 0.73371 0.0
C1894 C 0.1611 0.44398 0.763 0.0
N1895 N 0.14925 0.46535 0.74756 0.0
C1896 C 0.16615 0.44611 0.73414 0.0
C1897 C 0.16864 0.43807 0.74892 0.0
H1898 H 0.14559 0.46256 0.7728 0.0
H1899 H 0.15396 0.46582 0.72231 0.0
C1900 C 0.1 0.51269 0.70638 0.0
N1901 N 0.10018 0.49867 0.71503 0.0
C1902 C 0.09096 0.51374 0.69219 0.0
C1903 C 0.08217 0.48598 0.6963 0.0
C1904 C 0.09146 0.48545 0.71041 0.0
C1905 C 0.08206 0.5002 0.68687 0.0
H1906 H 0.10723 0.52291 0.71035 0.0
H1907 H 0.092 0.47439 0.71741 0.0
O1908 O 0.13868 0.49884 0.7658 0.0
O1909 O 0.11299 0.51774 0.74718 0.0
O1910 O 0.13731 0.4984 0.7281 0.0
O1911 O 0.11259 0.48012 0.74863 0.0
H1912 H 0.13427 0.50986 0.79556 0.0
H1913 H 0.16986 0.49198 0.76175 0.0
H1914 H 0.15606 0.51306 0.81609 0.0
H1915 H 0.19103 0.49564 0.7828 0.0
H1916 H 0.06035 0.53358 0.74274 0.0
H1917 H 0.11752 0.54924 0.75122 0.0
H1918 H 0.08162 0.51225 0.74266 0.0
H1919 H 0.09563 0.56996 0.75106 0.0
H1920 H 0.16681 0.56013 0.76971 0.0
H1921 H 0.16136 0.55918 0.71754 0.0
H1922 H 0.08832 0.47486 0.80995 0.0
H1923 H 0.08096 0.52659 0.80387 0.0
H1924 H 0.1341 0.49505 0.69644 0.0
H1925 H 0.16849 0.50218 0.73501 0.0
H1926 H 0.15689 0.49527 0.67671 0.0
H1927 H 0.19068 0.50219 0.71465 0.0
H1928 H 0.11586 0.44857 0.74394 0.0
H1929 H 0.08172 0.4865 0.7552 0.0
H1930 H 0.09341 0.42849 0.74543 0.0
H1931 H 0.05987 0.4658 0.75641 0.0
H1932 H 0.16279 0.43805 0.7746 0.0
H1933 H 0.17156 0.44168 0.72301 0.0
H1934 H 0.09149 0.52483 0.68513 0.0
H1935 H 0.0754 0.47531 0.69267 0.0
Li1936 Li 0.22978 0.38593 0.50353 0.0
Li1937 Li 0.24484 0.36379 0.51811 0.0
Li1938 Li 0.25971 0.38599 0.50315 0.0
Li1939 Li 0.24528 0.36409 0.48832 0.0
C1940 C 0.24576 0.40013 0.53288 0.0
N1941 N 0.24715 0.42557 0.55467 0.0
C1942 C 0.24384 0.39721 0.54946 0.0
C1943 C 0.24845 0.41595 0.52736 0.0
C1944 C 0.24454 0.41024 0.56029 0.0
C1945 C 0.24911 0.42866 0.53858 0.0
C1946 C 0.21547 0.34965 0.50467 0.0
C1947 C 0.2088 0.32118 0.50301 0.0
N1948 N 0.1934 0.3246 0.50787 0.0
C1949 C 0.19958 0.35291 0.50959 0.0
C1950 C 0.22013 0.33369 0.50128 0.0
C1951 C 0.1886 0.34007 0.51116 0.0
C1952 C 0.20156 0.39874 0.48975 0.0
N1953 N 0.21071 0.3987 0.50344 0.0
C1954 C 0.19157 0.41571 0.51702 0.0
C1955 C 0.20605 0.40696 0.51694 0.0
C1956 C 0.1817 0.41575 0.50316 0.0
C1957 C 0.18689 0.40721 0.48934 0.0
H1958 H 0.20556 0.39197 0.47923 0.0
H1959 H 0.21337 0.40647 0.52777 0.0
C1960 C 0.25868 0.34502 0.54327 0.0
N1961 N 0.24457 0.35083 0.53704 0.0
C1962 C 0.25864 0.33646 0.5579 0.0
C1963 C 0.22956 0.33998 0.55931 0.0
C1964 C 0.23017 0.34846 0.54468 0.0
C1965 C 0.24395 0.33399 0.56622 0.0
H1966 H 0.27 0.34734 0.53706 0.0
H1967 H 0.21921 0.35357 0.53964 0.0
C1968 C 0.24502 0.39938 0.47283 0.0
N1969 N 0.24592 0.4226 0.44867 0.0
C1970 C 0.2502 0.39521 0.45723 0.0
C1971 C 0.24022 0.41532 0.47614 0.0
C1972 C 0.25058 0.40713 0.44518 0.0
C1973 C 0.24079 0.42689 0.46376 0.0
C1974 C 0.27522 0.35046 0.50091 0.0
C1975 C 0.29083 0.35474 0.49584 0.0
C1976 C 0.27138 0.33413 0.5035 0.0
C1977 C 0.30235 0.34254 0.49335 0.0
C1978 C 0.28323 0.32229 0.50086 0.0
N1979 N 0.29834 0.32671 0.49589 0.0
C1980 C 0.2877 0.39803 0.51722 0.0
C1981 C 0.28319 0.40831 0.49075 0.0
C1982 C 0.30245 0.40625 0.51819 0.0
N1983 N 0.27852 0.39908 0.5036 0.0
C1984 C 0.29784 0.41679 0.49121 0.0
C1985 C 0.30779 0.41563 0.50498 0.0
H1986 H 0.28371 0.39043 0.52717 0.0
H1987 H 0.27579 0.40884 0.47999 0.0
C1988 C 0.23002 0.35052 0.46177 0.0
N1989 N 0.24473 0.35166 0.46908 0.0
C1990 C 0.22859 0.34305 0.44667 0.0
C1991 C 0.25741 0.33763 0.44711 0.0
C1992 C 0.25832 0.34536 0.46216 0.0
C1993 C 0.24244 0.33669 0.43907 0.0
H1994 H 0.21948 0.35584 0.4675 0.0
H1995 H 0.26993 0.34678 0.468 0.0
O1996 O 0.24491 0.3875 0.52215 0.0
O1997 O 0.22623 0.36214 0.50278 0.0
O1998 O 0.24445 0.38781 0.48471 0.0
O1999 O 0.26391 0.36229 0.50364 0.0
H2000 H 0.24174 0.38501 0.5539 0.0
H2001 H 0.25002 0.41839 0.51456 0.0
H2002 H 0.24302 0.40818 0.57316 0.0
H2003 H 0.25118 0.44098 0.5345 0.0
H2004 H 0.21222 0.30876 0.50042 0.0
H2005 H 0.19577 0.36524 0.51214 0.0
H2006 H 0.23231 0.33101 0.49722 0.0
H2007 H 0.17626 0.34241 0.51497 0.0
H2008 H 0.18787 0.42193 0.52799 0.0
H2009 H 0.17964 0.40701 0.4784 0.0
H2010 H 0.27 0.33198 0.56273 0.0
H2011 H 0.21802 0.33867 0.56544 0.0
H2012 H 0.2539 0.3829 0.45447 0.0
H2013 H 0.23607 0.41871 0.48812 0.0
H2014 H 0.25459 0.40409 0.43306 0.0
H2015 H 0.23713 0.43929 0.46614 0.0
H2016 H 0.29401 0.36735 0.49386 0.0
H2017 H 0.25942 0.33065 0.50761 0.0
H2018 H 0.31448 0.34566 0.48943 0.0
H2019 H 0.28044 0.3096 0.50282 0.0
H2020 H 0.30984 0.4048 0.52894 0.0
H2021 H 0.30144 0.42401 0.48083 0.0
H2022 H 0.21682 0.34246 0.44088 0.0
H2023 H 0.26839 0.33306 0.44152 0.0
Li2024 Li 0.38584 0.49715 0.26228 0.0
Li2025 Li 0.36368 0.48264 0.24746 0.0
Li2026 Li 0.38561 0.49811 0.23234 0.0
Li2027 Li 0.36371 0.51276 0.24769 0.0
C2028 C 0.39949 0.46757 0.24851 0.0
N2029 N 0.42369 0.44471 0.25237 0.0
C2030 C 0.39564 0.45185 0.25365 0.0
C2031 C 0.4156 0.47165 0.24522 0.0
C2032 C 0.40806 0.44047 0.25555 0.0
C2033 C 0.42768 0.45993 0.24729 0.0
C2034 C 0.35015 0.49815 0.27775 0.0
C2035 C 0.32224 0.50269 0.2852 0.0
N2036 N 0.32587 0.49889 0.30083 0.0
C2037 C 0.35364 0.49436 0.29389 0.0
C2038 C 0.33435 0.50242 0.27334 0.0
C2039 C 0.34118 0.49477 0.30538 0.0
C2040 C 0.40251 0.51161 0.28817 0.0
N2041 N 0.39908 0.49707 0.28114 0.0
C2042 C 0.41372 0.48297 0.30181 0.0
C2043 C 0.40439 0.48288 0.28769 0.0
C2044 C 0.4174 0.49781 0.3094 0.0
C2045 C 0.4117 0.51227 0.30237 0.0
H2046 H 0.39794 0.5227 0.28282 0.0
H2047 H 0.40115 0.47145 0.28214 0.0
C2048 C 0.35244 0.45323 0.23439 0.0
N2049 N 0.35076 0.46349 0.2472 0.0
C2050 C 0.34429 0.43833 0.23423 0.0
C2051 C 0.33243 0.44512 0.26017 0.0
C2052 C 0.34092 0.45978 0.25991 0.0
C2053 C 0.33425 0.43407 0.24734 0.0
H2054 H 0.36042 0.45648 0.22448 0.0
H2055 H 0.33996 0.46794 0.27008 0.0
C2056 C 0.39976 0.52745 0.24661 0.0
N2057 N 0.42453 0.5499 0.24399 0.0
C2058 C 0.39628 0.54362 0.24276 0.0
C2059 C 0.41581 0.52271 0.24921 0.0
C2060 C 0.40898 0.55478 0.24147 0.0
C2061 C 0.42817 0.53424 0.24781 0.0
C2062 C 0.34978 0.49711 0.21754 0.0
C2063 C 0.35332 0.5001 0.20123 0.0
C2064 C 0.33389 0.49349 0.22219 0.0
C2065 C 0.34083 0.49952 0.18981 0.0
C2066 C 0.32174 0.493 0.2104 0.0
N2067 N 0.32543 0.49602 0.19459 0.0
C2068 C 0.40327 0.48522 0.20568 0.0
C2069 C 0.40138 0.51393 0.20674 0.0
C2070 C 0.41176 0.48605 0.191 0.0
N2071 N 0.39827 0.49906 0.21316 0.0
C2072 C 0.40988 0.51534 0.19219 0.0
C2073 C 0.41502 0.50129 0.18398 0.0
H2074 H 0.40038 0.47353 0.21094 0.0
H2075 H 0.39698 0.52472 0.21275 0.0
C2076 C 0.35178 0.54172 0.2613 0.0
N2077 N 0.35104 0.53203 0.24798 0.0
C2078 C 0.34381 0.5567 0.26145 0.0
C2079 C 0.33411 0.5512 0.23435 0.0
C2080 C 0.34239 0.53642 0.23466 0.0
C2081 C 0.33494 0.56165 0.24777 0.0
H2082 H 0.35888 0.53794 0.27167 0.0
H2083 H 0.34225 0.52871 0.22409 0.0
O2084 O 0.38744 0.47878 0.24643 0.0
O2085 O 0.36219 0.49763 0.26636 0.0
O2086 O 0.38743 0.51644 0.24806 0.0
O2087 O 0.36186 0.49783 0.22885 0.0
H2088 H 0.3832 0.44849 0.25617 0.0
H2089 H 0.41874 0.48369 0.24102 0.0
H2090 H 0.40528 0.42826 0.25954 0.0
H2091 H 0.44021 0.46291 0.24481 0.0
H2092 H 0.30994 0.50593 0.28197 0.0
H2093 H 0.36582 0.49106 0.29748 0.0
H2094 H 0.33148 0.50544 0.26091 0.0
H2095 H 0.34368 0.49181 0.31792 0.0
H2096 H 0.41761 0.47153 0.307 0.0
H2097 H 0.41431 0.52397 0.30779 0.0
H2098 H 0.34594 0.43017 0.22405 0.0
H2099 H 0.325 0.4422 0.27061 0.0
H2100 H 0.38389 0.54749 0.24077 0.0
H2101 H 0.41868 0.5103 0.2524 0.0
H2102 H 0.40647 0.56733 0.23847 0.0
H2103 H 0.44066 0.53075 0.24979 0.0
H2104 H 0.36558 0.50292 0.19745 0.0
H2105 H 0.33097 0.49108 0.23475 0.0
H2106 H 0.34338 0.50186 0.17715 0.0
H2107 H 0.30937 0.49024 0.21381 0.0
H2108 H 0.41528 0.4749 0.18499 0.0
H2109 H 0.41228 0.52734 0.18737 0.0
H2110 H 0.34467 0.56439 0.27208 0.0
H2111 H 0.32762 0.55467 0.22347 0.0
O2112 O 0.02077 0.01246 0.99473 0.0
Mn2113 Mn -0.00105 0.00033 8e-05 0.0
O2114 O 0.04032 0.99338 0.99371 0.0
Mn2115 Mn 0.0285 0.9773 0.00399 0.0
O2116 O 0.97748 0.9871 0.00506 0.0
O2117 O 0.98903 0.02307 0.00496 0.0
Mn2118 Mn 0.96954 0.01991 -0.00362 0.0
O2119 O 0.99273 0.00112 0.97539 0.0
O2120 O 0.95812 0.00546 0.00852 0.0
O2121 O 0.0057 -0.00109 0.02464 0.0
O2122 O 0.02552 0.98006 0.02607 0.0
O2123 O 0.96823 0.04045 0.00265 0.0
O2124 O 0.96988 0.01561 0.9745 0.0
C2125 C 0.01078 0.96391 0.99059 0.0
C2126 C 0.03547 0.00797 0.99182 0.0
C2127 C 0.96284 0.99089 0.00873 0.0
C2128 C 0.98272 0.03747 0.00804 0.0
C2129 C 0.98065 0.00706 0.9676 0.0
C2130 C 0.01585 0.99017 0.03273 0.0
O2131 O 0.00903 0.97863 0.9956 0.0
O2132 O 0.02461 0.95747 0.99425 0.0
O2133 O 0.27508 0.74908 0.24277 0.0
Mn2134 Mn 0.25086 0.7473 0.24929 0.0
O2135 O 0.27608 0.76662 0.22169 0.0
Mn2136 Mn 0.25403 0.77029 0.21961 0.0
O2137 O 0.22655 0.74556 0.25552 0.0
O2138 O 0.25559 0.72564 0.25923 0.0
Mn2139 Mn 0.24625 0.72358 0.27826 0.0
O2140 O 0.25571 0.75912 0.27108 0.0
O2141 O 0.22427 0.72543 0.27393 0.0
O2142 O 0.24618 0.73526 0.22752 0.0
O2143 O 0.24355 0.75426 0.20807 0.0
O2144 O 0.25722 0.70434 0.27454 0.0
O2145 O 0.25533 0.73999 0.29066 0.0
C2146 C 0.24147 0.78379 0.23793 0.0
C2147 C 0.28278 0.75687 0.2317 0.0
C2148 C 0.21811 0.73604 0.26449 0.0
C2149 C 0.26127 0.7112 0.26103 0.0
C2150 C 0.25776 0.75452 0.28581 0.0
C2151 C 0.24297 0.73958 0.21292 0.0
O2152 O 0.24629 0.76899 0.2394 0.0
O2153 O 0.24472 0.79025 0.22401 0.0
O2154 O 0.48022 0.98709 0.49226 0.0
Mn2155 Mn 0.50015 0.00192 0.49749 0.0
O2156 O 0.45942 0.00367 0.48605 0.0
Mn2157 Mn 0.4682 0.02183 0.49582 0.0
O2158 O 0.52004 0.01684 0.50274 0.0
O2159 O 0.51179 0.98195 0.50527 0.0
Mn2160 Mn 0.53207 0.98219 0.49863 0.0
O2161 O 0.50883 -0.00159 0.47423 0.0
O2162 O 0.54105 0.00031 0.50826 0.0
O2163 O 0.49137 0.00561 0.52071 0.0
O2164 O 0.46906 0.02127 0.51837 0.0
O2165 O 0.5296 0.96317 0.5102 0.0
O2166 O 0.53104 0.98264 0.47609 0.0
C2167 C 0.48616 0.03567 0.48299 0.0
C2168 C 0.46576 0.98958 0.48699 0.0
C2169 C 0.53459 0.01434 0.50773 0.0
C2170 C 0.51482 0.96813 0.51199 0.0
C2171 C 0.52064 0.99059 0.46779 0.0
C2172 C 0.47944 0.01351 0.52689 0.0
O2173 O 0.48858 0.02177 0.48968 0.0
O2174 O 0.47146 0.04093 0.48439 0.0
O2175 O 0.27037 0.25375 0.76432 0.0
Mn2176 Mn 0.25011 0.24961 0.74977 0.0
O2177 O 0.29195 0.25451 0.7475 0.0
Mn2178 Mn 0.28141 0.2472 0.72915 0.0
O2179 O 0.22986 0.2455 0.73513 0.0
O2180 O 0.23817 0.2427 0.76968 0.0
Mn2181 Mn 0.21813 0.24979 0.7698 0.0
O2182 O 0.24276 0.27339 0.75332 0.0
O2183 O 0.20889 0.24017 0.75183 0.0
O2184 O 0.25695 0.2256 0.7464 0.0
O2185 O 0.27721 0.22508 0.72816 0.0
O2186 O 0.22097 0.23843 0.789 0.0
O2187 O 0.22021 0.27229 0.76882 0.0
C2188 C 0.26621 0.26398 0.71656 0.0
C2189 C 0.2855 0.25606 0.76147 0.0
C2190 C 0.21525 0.24078 0.73776 0.0
C2191 C 0.23556 0.23631 0.78366 0.0
C2192 C 0.23106 0.28022 0.76103 0.0
C2193 C 0.26685 0.21792 0.73717 0.0
O2194 O 0.26229 0.25667 0.72983 0.0
O2195 O 0.28044 0.26029 0.71107 0.0
O2196 O -0.00087 0.97652 0.48672 0.0
Mn2197 Mn 0.00077 -0.0014 0.49874 0.0
O2198 O 0.00499 0.95732 0.50541 0.0
Mn2199 Mn 0.00878 0.97091 0.5229 0.0
O2200 O 0.00255 0.02065 0.51088 0.0
O2201 O 0.00539 0.00942 0.4775 0.0
Mn2202 Mn 0.99345 0.02692 0.47493 0.0
O2203 O 0.97586 0.00207 0.49593 0.0
O2204 O -0.00146 0.04034 0.49223 0.0
O2205 O 0.02573 0.99521 0.5015 0.0
O2206 O 0.02943 0.97955 0.52349 0.0
O2207 O 0.00628 0.02523 0.45656 0.0
O2208 O 0.97232 0.01937 0.47511 0.0
C2209 C 0.98924 0.98434 0.53359 0.0
C2210 C 0.0014 0.96171 0.491 0.0
C2211 C 0.00147 0.03561 0.50668 0.0
C2212 C 0.0116 0.01215 0.46343 0.0
C2213 C 0.96676 0.00972 0.48586 0.0
C2214 C 0.03493 0.98852 0.51215 0.0
O2215 O -0.00398 0.98772 0.51993 0.0
O2216 O 0.99511 0.97161 0.54067 0.0
O2217 O 0.26571 0.77181 0.75339 0.0
Mn2218 Mn 0.25181 0.75117 0.74838 0.0
O2219 O 0.24823 0.79208 0.75876 0.0
Mn2220 Mn 0.23075 0.78232 0.74879 0.0
O2221 O 0.23796 0.73053 0.74358 0.0
O2222 O 0.27218 0.74015 0.74107 0.0
Mn2223 Mn 0.27314 0.72006 0.74826 0.0
O2224 O 0.25537 0.74319 0.77185 0.0
O2225 O 0.25533 0.70985 0.73922 0.0
O2226 O 0.24823 0.75914 0.72487 0.0
O2227 O 0.23188 0.78102 0.72629 0.0
O2228 O 0.29197 0.72351 0.73649 0.0
O2229 O 0.27259 0.72198 0.77073 0.0
C2230 C 0.2173 0.76445 0.76208 0.0
C2231 C 0.26253 0.78625 0.75835 0.0
C2232 C 0.24108 0.71583 0.73944 0.0
C2233 C 0.2861 0.73792 0.73434 0.0
C2234 C 0.26386 0.73207 0.77866 0.0
C2235 C 0.2402 0.7707 0.71822 0.0
O2236 O 0.23133 0.7621 0.75561 0.0
O2237 O 0.21161 0.77893 0.75996 0.0
O2238 O 0.48589 0.99419 0.97748 0.0
Mn2239 Mn 0.49819 -0.00025 -0.00114 0.0
O2240 O 0.50454 0.99153 0.95774 0.0
Mn2241 Mn 0.52085 0.00208 0.9689 0.0
O2242 O 0.5103 0.00545 0.02038 0.0
O2243 O 0.47673 0.00486 0.00892 0.0
Mn2244 Mn 0.47507 -0.0034 0.02848 0.0
O2245 O 0.49624 0.97567 0.00594 0.0
O2246 O 0.49135 0.00678 0.04006 0.0
O2247 O 0.50026 0.02383 0.99163 0.0
O2248 O 0.51833 0.02434 0.97111 0.0
O2249 O 0.45558 0.00687 0.02435 0.0
O2250 O 0.4773 0.97436 0.02559 0.0
C2251 C 0.53409 0.9889 0.98687 0.0
C2252 C 0.49003 0.99041 0.96295 0.0
C2253 C 0.50584 0.0087 0.03498 0.0
C2254 C 0.4622 0.01027 0.01054 0.0
C2255 C 0.48733 0.96764 0.01587 0.0
C2256 C 0.50874 0.03146 0.98099 0.0
O2257 O 0.51964 0.99449 0.98876 0.0
O2258 O 0.54043 0.99195 0.97284 0.0
O2259 O 0.27323 0.24674 0.2571 0.0
Mn2260 Mn 0.24893 0.249 0.25012 0.0
O2261 O 0.27376 0.22949 0.27832 0.0
Mn2262 Mn 0.25151 0.22782 0.28116 0.0
O2263 O 0.22455 0.25128 0.24315 0.0
O2264 O 0.25461 0.26977 0.23892 0.0
Mn2265 Mn 0.24611 0.27076 0.21947 0.0
O2266 O 0.25369 0.23546 0.22914 0.0
O2267 O 0.22391 0.2697 0.22289 0.0
O2268 O 0.2444 0.26266 0.27105 0.0
O2269 O 0.24229 0.2452 0.29198 0.0
O2270 O 0.25744 0.28995 0.22232 0.0
O2271 O 0.2552 0.25339 0.20852 0.0
C2272 C 0.23813 0.2137 0.26391 0.0
C2273 C 0.2809 0.23859 0.26799 0.0
C2274 C 0.21683 0.2602 0.23289 0.0
C2275 C 0.26074 0.28393 0.23642 0.0
C2276 C 0.25661 0.23906 0.21424 0.0
C2277 C 0.24152 0.25946 0.28602 0.0
O2278 O 0.24338 0.22823 0.26147 0.0
O2279 O 0.24113 0.20812 0.27826 0.0
O2280 O 0.49595 0.47703 0.98636 0.0
Mn2281 Mn 0.50041 0.49909 -0.00172 0.0
O2282 O 0.49233 0.4582 0.00578 0.0
Mn2283 Mn 0.50167 0.47013 0.02211 0.0
O2284 O 0.50514 0.52084 0.01037 0.0
O2285 O 0.50706 0.50857 0.97674 0.0
Mn2286 Mn 0.49924 0.52842 0.97499 0.0
O2287 O 0.47649 0.50609 0.99456 0.0
O2288 O 0.5086 0.54026 0.99156 0.0
O2289 O 0.52424 0.49211 0.00194 0.0
O2290 O 0.52397 0.47222 0.02069 0.0
O2291 O 0.51036 0.52467 0.95603 0.0
O2292 O 0.4769 0.52614 0.97598 0.0
C2293 C 0.48848 0.4885 0.03456 0.0
C2294 C 0.49266 0.46245 0.99094 0.0
C2295 C 0.50903 0.53535 0.00619 0.0
C2296 C 0.51321 0.51062 0.96246 0.0
C2297 C 0.4693 0.51641 0.98534 0.0
C2298 C 0.53146 0.4818 0.0111 0.0
O2299 O 0.49397 0.48987 0.01995 0.0
O2300 O 0.49111 0.47452 0.04125 0.0
O2301 O 0.76325 0.27237 0.25385 0.0
Mn2302 Mn 0.75113 0.25093 0.24822 0.0
O2303 O 0.74481 0.29253 0.25262 0.0
Mn2304 Mn 0.72842 0.28048 0.24307 0.0
O2305 O 0.73894 0.22946 0.24238 0.0
O2306 O 0.77284 0.24063 0.24432 0.0
Mn2307 Mn 0.77338 0.22086 0.25235 0.0
O2308 O 0.75186 0.2443 0.27243 0.0
O2309 O 0.75768 0.20964 0.24091 0.0
O2310 O 0.75049 0.25751 0.22392 0.0
O2311 O 0.73068 0.27618 0.22116 0.0
O2312 O 0.79376 0.22469 0.2439 0.0
O2313 O 0.76968 0.22361 0.27436 0.0
C2314 C 0.71497 0.2639 0.25776 0.0
C2315 C 0.75902 0.28726 0.25569 0.0
C2316 C 0.74329 0.21489 0.23885 0.0
C2317 C 0.78784 0.23877 0.2403 0.0
C2318 C 0.75997 0.23391 0.28069 0.0
C2319 C 0.74132 0.26662 0.21527 0.0
O2320 O 0.72946 0.26133 0.25244 0.0
O2321 O 0.70881 0.27768 0.25345 0.0
O2322 O 0.98161 0.49438 0.48092 0.0
Mn2323 Mn -0.00279 0.49904 0.50039 0.0
O2324 O -0.00252 0.4912 0.45881 0.0
Mn2325 Mn 0.01612 0.49996 0.46758 0.0
O2326 O 0.01336 0.50386 0.51934 0.0
O2327 O 0.97759 0.50571 0.51374 0.0
Mn2328 Mn 0.9804 0.49784 0.53347 0.0
O2329 O 0.99494 0.47517 0.50789 0.0
O2330 O -0.0015 0.50793 0.54174 0.0
O2331 O -0.00023 0.52283 0.49265 0.0
O2332 O 0.01601 0.52232 0.47059 0.0
O2333 O 0.96096 0.5084 0.53431 0.0
O2334 O 0.98145 0.47542 0.53157 0.0
C2335 C 0.03013 0.48554 0.48412 0.0
C2336 C 0.98373 0.4908 0.46588 0.0
C2337 C 0.0119 0.50832 0.53415 0.0
C2338 C 0.96403 0.51157 0.51924 0.0
C2339 C 0.98849 0.46789 0.52002 0.0
C2340 C 0.0079 0.52993 0.48141 0.0
O2341 O 0.01646 0.49228 0.48735 0.0
O2342 O 0.03503 0.4879 0.46942 0.0
O2343 O 0.76988 0.75436 0.26498 0.0
Mn2344 Mn 0.74811 0.75121 0.25284 0.0
O2345 O 0.78975 0.75634 0.24645 0.0
Mn2346 Mn 0.77755 0.74751 0.22981 0.0
O2347 O 0.72573 0.74787 0.24145 0.0
O2348 O 0.7383 0.7463 0.27426 0.0
Mn2349 Mn 0.72014 0.75671 0.27776 0.0
O2350 O 0.7432 0.77578 0.25572 0.0
O2351 O 0.70686 0.74928 0.2613 0.0
O2352 O 0.75332 0.72663 0.24968 0.0
O2353 O 0.77347 0.72542 0.23115 0.0
O2354 O 0.72445 0.74472 0.29636 0.0
O2355 O 0.72569 0.7785 0.27649 0.0
C2356 C 0.76058 0.76223 0.217 0.0
C2357 C 0.78459 0.75718 0.26097 0.0
C2358 C 0.71097 0.74694 0.24653 0.0
C2359 C 0.73734 0.74035 0.28858 0.0
C2360 C 0.735 0.78452 0.26567 0.0
C2361 C 0.7631 0.71865 0.24048 0.0
O2362 O 0.75826 0.7565 0.23136 0.0
O2363 O 0.77444 0.75853 0.21063 0.0
O2364 O 0.77512 0.24774 0.7465 0.0
Mn2365 Mn 0.75004 0.24621 0.7497 0.0
O2366 O 0.77931 0.26718 0.72766 0.0
Mn2367 Mn 0.75793 0.27004 0.7217 0.0
O2368 O 0.72482 0.24504 0.75243 0.0
O2369 O 0.75348 0.22422 0.76 0.0
Mn2370 Mn 0.73901 0.22173 0.77553 0.0
O2371 O 0.75196 0.25716 0.7722 0.0
O2372 O 0.71905 0.22196 0.76556 0.0
O2373 O 0.74781 0.23485 0.72726 0.0
O2374 O 0.7497 0.25426 0.70808 0.0
O2375 O 0.75148 0.20331 0.77609 0.0
O2376 O 0.74282 0.23853 0.79005 0.0
C2377 C 0.74281 0.28342 0.73789 0.0
C2378 C 0.7845 0.25678 0.73788 0.0
C2379 C 0.71467 0.23431 0.75744 0.0
C2380 C 0.7592 0.21022 0.76428 0.0
C2381 C 0.74832 0.25265 0.78665 0.0
C2382 C 0.74711 0.23966 0.7125 0.0
O2383 O 0.74695 0.26841 0.73989 0.0
O2384 O 0.74816 0.28993 0.72465 0.0
O2385 O 0.77185 0.74824 0.7571 0.0
Mn2386 Mn 0.74724 0.75036 0.75109 0.0
O2387 O 0.77295 0.73104 0.77841 0.0
Mn2388 Mn 0.75076 0.72833 0.78149 0.0
O2389 O 0.72237 0.75216 0.74559 0.0
O2390 O 0.75229 0.77139 0.74 0.0
Mn2391 Mn 0.74018 0.77385 0.7227 0.0
O2392 O 0.75094 0.73784 0.7294 0.0
O2393 O 0.71916 0.7745 0.73037 0.0
O2394 O 0.74314 0.76329 0.77256 0.0
O2395 O 0.74042 0.74489 0.79257 0.0
O2396 O 0.75368 0.79176 0.7234 0.0
O2397 O 0.74466 0.75599 0.70977 0.0
C2398 C 0.73724 0.71462 0.76394 0.0
C2399 C 0.7798 0.74022 0.76791 0.0
C2400 C 0.71332 0.76282 0.73864 0.0
C2401 C 0.75915 0.785 0.73646 0.0
C2402 C 0.74875 0.74177 0.71445 0.0
C2403 C 0.73948 0.75936 0.78719 0.0
O2404 O 0.74251 0.72918 0.7619 0.0
O2405 O 0.74065 0.70853 0.77797 0.0
O2406 O 0.51863 0.51251 0.49817 0.0
Mn2407 Mn 0.49737 0.49914 0.50172 0.0
O2408 O 0.53891 0.49479 0.50349 0.0
Mn2409 Mn 0.52665 0.47636 0.5075 0.0
O2410 O 0.47641 0.48518 0.5058 0.0
O2411 O 0.486 0.52006 0.50693 0.0
Mn2412 Mn 0.46582 0.5193 0.50024 0.0
O2413 O 0.49078 0.50173 0.47736 0.0
O2414 O 0.45655 0.50271 0.51206 0.0
O2415 O 0.50335 0.4967 0.52644 0.0
O2416 O 0.51937 0.47476 0.5286 0.0
O2417 O 0.46879 0.53991 0.50854 0.0
O2418 O 0.4673 0.51584 0.478 0.0
C2419 C 0.51281 0.46529 0.48855 0.0
C2420 C 0.53372 0.50901 0.50011 0.0
C2421 C 0.46218 0.48835 0.51133 0.0
C2422 C 0.48349 0.535 0.51094 0.0
C2423 C 0.4785 0.50834 0.4703 0.0
C2424 C 0.51081 0.48594 0.53498 0.0
O2425 O 0.50903 0.47861 0.49583 0.0
O2426 O 0.52624 0.45885 0.49348 0.0
O2427 O 0.97875 0.48957 0.99374 0.0
Mn2428 Mn -0.00028 0.5028 -0.0017 0.0
O2429 O 0.95786 0.50703 -0.00346 0.0
Mn2430 Mn 0.96962 0.52451 0.00439 0.0
O2431 O 0.02077 0.51615 0.00297 0.0
O2432 O 0.01103 0.48153 0.00228 0.0
Mn2433 Mn 0.03079 0.48187 0.99437 0.0
O2434 O 0.00574 0.50161 0.97395 0.0
O2435 O 0.04104 0.49811 0.00591 0.0
O2436 O 0.99402 0.50403 0.02293 0.0
O2437 O 0.97544 0.52382 0.02605 0.0
O2438 O 0.02779 0.46123 0.00257 0.0
O2439 O 0.0279 0.48552 0.97234 0.0
C2440 C 0.98429 0.53771 0.98759 0.0
C2441 C 0.96362 0.49308 0.993 0.0
C2442 C 0.03534 0.51244 0.00704 0.0
C2443 C 0.0134 0.46648 0.00596 0.0
C2444 C 0.01683 0.49423 0.96591 0.0
C2445 C 0.98542 0.51352 0.03184 0.0
O2446 O 0.98809 0.52381 0.99376 0.0
O2447 O 0.97057 0.54348 0.99257 0.0
H2448 H 0.02573 0.16583 0.08843 0.0
H2449 H 0.02949 0.13901 0.07638 0.0
H2450 H 0.99097 0.14881 0.04244 0.0
H2451 H 0.98753 0.17597 0.05403 0.0
H2452 H 0.00746 0.11466 0.0754 0.0
H2453 H 0.02584 0.13052 0.0128 0.0
H2454 H 0.02595 0.14518 0.02911 0.0
H2455 H 0.00736 0.14035 0.01875 0.0
C2456 C 0.01829 0.16246 0.07816 0.0
C2457 C 0.00641 0.17316 0.07212 0.0
C2458 C 0.0204 0.14706 0.07134 0.0
C2459 C 0.01075 0.142 0.05831 0.0
C2460 C -0.00114 0.1526 0.05223 0.0
H2461 H 0.9677 0.06291 0.02186 0.0
H2462 H 0.97945 0.08625 0.03508 0.0
C2463 C -0.00326 0.16805 0.05903 0.0
C2464 C 0.01222 0.12518 0.05193 0.0
H2465 H 0.01528 0.10335 0.01683 0.0
C2466 C 0.00964 0.11217 0.06266 0.0
C2467 C 0.0152 0.12188 0.03534 0.0
C2468 C 0.01891 0.13523 0.02337 0.0
C2469 C 0.00868 0.09611 0.05703 0.0
C2470 C 0.01042 0.09297 0.04029 0.0
C2471 C 0.01417 0.10579 0.02972 0.0
C2472 C 0.00414 0.07772 0.03323 0.0
C2473 C 0.00456 0.08269 0.06878 0.0
C2474 C 0.0142 0.06488 0.02813 0.0
C2475 C 0.0074 0.0511 0.02059 0.0
C2476 C 0.99062 0.0504 0.01772 0.0
C2477 C 0.98074 0.06311 0.02348 0.0
C2478 C 0.9874 0.07653 0.03112 0.0
H2479 H 0.00713 0.08627 0.08151 0.0
H2480 H 0.99145 0.0798 0.06777 0.0
H2481 H 0.01149 0.0715 0.06584 0.0
H2482 H 0.0272 0.06559 0.02983 0.0
H2483 H 0.01516 0.04127 0.01671 0.0
H2484 H 0.0904 0.76508 0.33878 0.0
H2485 H 0.11576 0.76425 0.32339 0.0
H2486 H 0.09177 0.73815 0.28491 0.0
H2487 H 0.06625 0.73916 0.30011 0.0
H2488 H 0.12969 0.73341 0.31394 0.0
H2489 H 0.11876 0.77502 0.26189 0.0
H2490 H 0.10757 0.77639 0.2807 0.0
H2491 H 0.103 0.76057 0.26646 0.0
C2492 C 0.09045 0.75951 0.32688 0.0
C2493 C 0.07642 0.75216 0.32061 0.0
C2494 C 0.10491 0.759 0.31815 0.0
C2495 C 0.10549 0.75128 0.30302 0.0
C2496 C 0.09142 0.74436 0.29649 0.0
H2497 H 0.19502 0.71262 0.26402 0.0
H2498 H 0.1662 0.71612 0.27039 0.0
C2499 C 0.07695 0.74481 0.30524 0.0
C2500 C 0.12118 0.74906 0.29487 0.0
H2501 H 0.14313 0.75979 0.26149 0.0
C2502 C 0.13267 0.73914 0.30247 0.0
C2503 C 0.12489 0.75667 0.27999 0.0
C2504 C 0.11299 0.76787 0.27177 0.0
C2505 C 0.14797 0.73667 0.29561 0.0
C2506 C 0.15165 0.74403 0.28052 0.0
C2507 C 0.14013 0.75399 0.27292 0.0
C2508 C 0.16781 0.74224 0.27311 0.0
C2509 C 0.16019 0.72661 0.30486 0.0
C2510 C 0.17783 0.7559 0.27133 0.0
C2511 C 0.19413 0.75396 0.26725 0.0
C2512 C 0.20054 0.73832 0.26515 0.0
C2513 C 0.19026 0.72476 0.26579 0.0
C2514 C 0.17389 0.72675 0.26947 0.0
H2515 H 0.1568 0.72529 0.31784 0.0
H2516 H 0.16078 0.71426 0.2995 0.0
H2517 H 0.17246 0.73212 0.30417 0.0
H2518 H 0.17329 0.76796 0.27406 0.0
H2519 H 0.20194 0.76454 0.26691 0.0
H2520 H 0.51855 0.83812 0.57592 0.0
H2521 H 0.51632 0.86505 0.56364 0.0
H2522 H 0.46759 0.85419 0.54827 0.0
H2523 H 0.46981 0.82698 0.56009 0.0
H2524 H 0.50637 0.87311 0.52884 0.0
H2525 H 0.46637 0.89759 0.57754 0.0
H2526 H 0.47959 0.8804 0.5808 0.0
H2527 H 0.46154 0.87804 0.56895 0.0
C2528 C 0.50744 0.84129 0.56969 0.0
C2529 C 0.49432 0.83036 0.56909 0.0
C2530 C 0.50616 0.85675 0.56278 0.0
C2531 C 0.49173 0.86163 0.55525 0.0
C2532 C 0.47875 0.85069 0.55424 0.0
H2533 H 0.49041 0.95112 0.49803 0.0
H2534 H 0.47993 0.92531 0.50869 0.0
C2535 C 0.48003 0.83518 0.56107 0.0
C2536 C 0.49026 0.87831 0.54868 0.0
H2537 H 0.47414 0.91569 0.5568 0.0
C2538 C 0.49915 0.88239 0.53478 0.0
C2539 C 0.48095 0.89034 0.55662 0.0
C2540 C 0.47159 0.88652 0.57186 0.0
C2541 C 0.49925 0.89834 0.52875 0.0
C2542 C 0.49002 0.91047 0.53675 0.0
C2543 C 0.48093 0.90631 0.55054 0.0
C2544 C 0.49152 0.92782 0.5321 0.0
C2545 C 0.50985 0.90226 0.51433 0.0
C2546 C 0.50029 0.93833 0.5422 0.0
C2547 C 0.50606 0.95311 0.5362 0.0
C2548 C 0.50297 0.95764 0.5201 0.0
C2549 C 0.49261 0.94803 0.51061 0.0
C2550 C 0.48683 0.93319 0.51662 0.0
H2551 H 0.51817 0.8921 0.51122 0.0
H2552 H 0.50209 0.90474 0.50363 0.0
H2553 H 0.51723 0.91329 0.51673 0.0
H2554 H 0.50402 0.93443 0.55418 0.0
H2555 H 0.5143 0.9602 0.5436 0.0
H2556 H 0.4279 0.26418 0.80585 0.0
H2557 H 0.39973 0.26585 0.79648 0.0
H2558 H 0.38581 0.22941 0.83141 0.0
H2559 H 0.41386 0.22777 0.84094 0.0
H2560 H 0.3775 0.23911 0.78552 0.0
H2561 H 0.35811 0.27184 0.84141 0.0
H2562 H 0.37904 0.27082 0.83499 0.0
H2563 H 0.36959 0.25344 0.84411 0.0
C2564 C 0.41883 0.25644 0.8114 0.0
C2565 C 0.42298 0.24592 0.82416 0.0
C2566 C 0.40283 0.25737 0.80604 0.0
C2567 C 0.39079 0.24794 0.81349 0.0
C2568 C 0.39499 0.2369 0.8257 0.0
H2569 H 0.28927 0.23826 0.7889 0.0
H2570 H 0.31421 0.23745 0.80513 0.0
C2571 C 0.411 0.23587 0.831 0.0
C2572 C 0.37371 0.2501 0.80889 0.0
H2573 H 0.33774 0.26585 0.82214 0.0
C2574 C 0.36877 0.24487 0.79352 0.0
C2575 C 0.36248 0.25769 0.81943 0.0
C2576 C 0.36751 0.2639 0.83589 0.0
C2577 C 0.35276 0.24704 0.78838 0.0
C2578 C 0.34157 0.25478 0.79884 0.0
C2579 C 0.34643 0.25987 0.81427 0.0
C2580 C 0.32502 0.25826 0.79327 0.0
C2581 C 0.3479 0.24123 0.7717 0.0
C2582 C 0.32264 0.27083 0.7821 0.0
C2583 C 0.30854 0.27126 0.77285 0.0
C2584 C 0.29666 0.25923 0.77486 0.0
C2585 C 0.2982 0.24781 0.78739 0.0
C2586 C 0.31243 0.24728 0.79656 0.0
H2587 H 0.35735 0.23344 0.76606 0.0
H2588 H 0.33638 0.23427 0.77233 0.0
H2589 H 0.34585 0.25189 0.76371 0.0
H2590 H 0.3323 0.27937 0.77946 0.0
H2591 H 0.30756 0.28011 0.76317 0.0
H2592 H 0.97278 0.83174 0.40938 0.0
H2593 H 0.97214 0.85957 0.41964 0.0
H2594 H 0.0182 0.85206 0.4432 0.0
H2595 H 0.01884 0.82403 0.43323 0.0
H2596 H 0.97468 0.87085 0.45296 0.0
H2597 H 0.02446 0.89256 0.41296 0.0
H2598 H 0.01353 0.87389 0.40922 0.0
H2599 H 0.02897 0.87462 0.42455 0.0
C2600 C 0.98264 0.8359 0.41699 0.0
C2601 C -0.0041 0.82574 0.42048 0.0
C2602 C 0.9823 0.85181 0.42271 0.0
C2603 C 0.99525 0.85783 0.43186 0.0
C2604 C 0.00826 0.84762 0.43584 0.0
H2605 H 0.02224 0.93687 0.48789 0.0
H2606 H 0.01978 0.91337 0.47005 0.0
C2607 C 0.0086 0.83167 0.43016 0.0
C2608 C 0.99515 0.87484 0.43726 0.0
H2609 H 0.01593 0.9105 0.43402 0.0
C2610 C 0.9835 0.87963 0.44866 0.0
C2611 C 0.00667 0.88616 0.43147 0.0
C2612 C 0.01905 0.88164 0.41877 0.0
C2613 C 0.9836 0.89536 0.45513 0.0
C2614 C 0.99548 0.90651 0.44976 0.0
C2615 C 0.00674 0.9019 0.4379 0.0
C2616 C -0.00202 0.92197 0.45828 0.0
C2617 C 0.97164 0.89969 0.46831 0.0
C2618 C 0.98679 0.93476 0.45706 0.0
C2619 C 0.98827 0.94833 0.46717 0.0
C2620 C 0.00075 0.94892 0.4787 0.0
C2621 C 0.01236 0.93648 0.47925 0.0
C2622 C 0.01104 0.92315 0.46902 0.0
H2623 H 0.96419 0.88911 0.47213 0.0
H2624 H 0.97813 0.9045 0.47908 0.0
H2625 H 0.96339 0.90937 0.46388 0.0
H2626 H 0.97667 0.93396 0.44873 0.0
H2627 H 0.97926 0.95788 0.46657 0.0
H2628 H 0.42429 0.77947 0.6797 0.0
H2629 H 0.39772 0.78217 0.69274 0.0
H2630 H 0.38338 0.73574 0.67329 0.0
H2631 H 0.4097 0.73308 0.65987 0.0
H2632 H 0.36517 0.78026 0.67618 0.0
H2633 H 0.37533 0.73355 0.72385 0.0
H2634 H 0.39184 0.74324 0.71313 0.0
H2635 H 0.38024 0.72752 0.70346 0.0
C2636 C 0.41546 0.76987 0.67809 0.0
C2637 C 0.41917 0.75605 0.66871 0.0
C2638 C 0.40031 0.77143 0.68559 0.0
C2639 C 0.38864 0.75914 0.684 0.0
C2640 C 0.3923 0.74529 0.67478 0.0
H2641 H 0.28975 0.74141 0.702 0.0
H2642 H 0.31441 0.75193 0.6892 0.0
C2643 C 0.4074 0.74376 0.66721 0.0
C2644 C 0.37258 0.76074 0.69192 0.0
H2645 H 0.34855 0.74352 0.72089 0.0
C2646 C 0.36155 0.77236 0.68607 0.0
C2647 C 0.36797 0.75048 0.70487 0.0
C2648 C 0.37947 0.73806 0.71183 0.0
C2649 C 0.34576 0.77354 0.69248 0.0
C2650 C 0.34103 0.76294 0.70509 0.0
C2651 C 0.35226 0.75172 0.71127 0.0
C2652 C 0.32418 0.76211 0.71131 0.0
C2653 C 0.33416 0.78592 0.68568 0.0
C2654 C 0.32106 0.76521 0.72777 0.0
C2655 C 0.30687 0.75937 0.73503 0.0
C2656 C 0.29571 0.75031 0.72594 0.0
C2657 C 0.29802 0.74873 0.70915 0.0
C2658 C 0.31215 0.75467 0.70185 0.0
H2659 H 0.34047 0.79512 0.67809 0.0
H2660 H 0.32499 0.77966 0.67807 0.0
H2661 H 0.32761 0.79221 0.69565 0.0
H2662 H 0.33026 0.77082 0.7353 0.0
H2663 H 0.30551 0.76038 0.74807 0.0
H2664 H 0.48132 0.1829 0.94403 0.0
H2665 H 0.48112 0.15898 0.96181 0.0
H2666 H 0.51601 0.13551 0.93063 0.0
H2667 H 0.5162 0.1592 0.91282 0.0
H2668 H 0.47386 0.12591 0.95315 0.0
H2669 H 0.53645 0.13294 0.97632 0.0
H2670 H 0.52547 0.1494 0.96682 0.0
H2671 H 0.53535 0.1342 0.95462 0.0
C2672 C 0.48888 0.17259 0.94097 0.0
C2673 C 0.49891 0.17292 0.92716 0.0
C2674 C 0.48881 0.15903 0.95115 0.0
C2675 C 0.49882 0.14573 0.94767 0.0
C2676 C 0.50854 0.14589 0.93371 0.0
H2677 H 0.52274 0.05112 0.95845 0.0
H2678 H 0.51889 0.0801 0.95484 0.0
C2679 C 0.50863 0.15939 0.92356 0.0
C2680 C 0.4989 0.13129 0.95819 0.0
H2681 H 0.52508 0.10589 0.97754 0.0
C2682 C 0.48489 0.12166 0.95892 0.0
C2683 C 0.5133 0.12599 0.96578 0.0
C2684 C 0.52845 0.13626 0.966 0.0
C2685 C 0.48537 0.10605 0.96573 0.0
C2686 C 0.50018 0.10023 0.97208 0.0
C2687 C 0.51377 0.11045 0.9726 0.0
C2688 C 0.5027 0.08283 0.97531 0.0
C2689 C 0.47048 0.09542 0.96487 0.0
C2690 C 0.49493 0.07483 0.98816 0.0
C2691 C 0.49705 0.0581 0.99027 0.0
C2692 C 0.507 0.04925 0.97956 0.0
C2693 C 0.515 0.05749 0.96695 0.0
C2694 C 0.51285 0.07409 0.96486 0.0
H2695 H 0.46029 0.10143 0.95842 0.0
H2696 H 0.47338 0.08385 0.95858 0.0
H2697 H 0.4664 0.09237 0.97733 0.0
H2698 H 0.48717 0.08148 -0.00356 0.0
H2699 H 0.49082 0.05211 0.00017 0.0
H2700 H 0.08539 0.2316 0.15814 0.0
H2701 H 0.11077 0.23083 0.17339 0.0
H2702 H 0.09389 0.27007 0.20367 0.0
H2703 H 0.06824 0.27061 0.18878 0.0
H2704 H 0.13273 0.25579 0.176 0.0
H2705 H 0.11102 0.23735 0.23695 0.0
H2706 H 0.09884 0.23511 0.2189 0.0
H2707 H 0.10049 0.25456 0.22867 0.0
C2708 C 0.08693 0.23986 0.16824 0.0
C2709 C 0.07473 0.25113 0.17228 0.0
C2710 C 0.10148 0.23946 0.1769 0.0
C2711 C 0.10413 0.25022 0.18983 0.0
C2712 C 0.09198 0.26143 0.19395 0.0
H2713 H 0.19558 0.28417 0.22538 0.0
H2714 H 0.16738 0.28099 0.21684 0.0
C2715 C 0.07741 0.26186 0.18529 0.0
C2716 C 0.12005 0.25049 0.19821 0.0
H2717 H 0.13825 0.24731 0.23533 0.0
C2718 C 0.13393 0.25381 0.18895 0.0
C2719 C 0.12163 0.24774 0.21509 0.0
C2720 C 0.10723 0.24333 0.22549 0.0
C2721 C 0.14928 0.25492 0.19615 0.0
C2722 C 0.15078 0.25287 0.21311 0.0
C2723 C 0.13701 0.24905 0.22236 0.0
C2724 C 0.16662 0.2551 0.22127 0.0
C2725 C 0.16383 0.25834 0.18554 0.0
C2726 C 0.17521 0.24173 0.22743 0.0
C2727 C 0.19134 0.24355 0.23249 0.0
C2728 C 0.19904 0.25875 0.23135 0.0
C2729 C 0.18998 0.27229 0.22627 0.0
C2730 C 0.1739 0.27049 0.22137 0.0
H2731 H 0.16123 0.25598 0.17254 0.0
H2732 H 0.16731 0.2713 0.18683 0.0
H2733 H 0.17434 0.2508 0.18928 0.0
H2734 H 0.16977 0.22975 0.22744 0.0
H2735 H 0.1981 0.23291 0.23617 0.0
H2736 H 0.06862 0.0246 0.17749 0.0
H2737 H 0.05302 0.02551 0.15223 0.0
H2738 H 0.06733 0.97632 0.14148 0.0
H2739 H 0.08332 0.9754 0.16638 0.0
H2740 H 0.06542 0.01873 0.1189 0.0
H2741 H 0.01625 0.97708 0.13874 0.0
H2742 H 0.02919 0.98771 0.15289 0.0
H2743 H 0.03653 0.97001 0.14248 0.0
C2744 C 0.06859 0.01401 0.16969 0.0
C2745 C 0.07718 -0.00012 0.17407 0.0
C2746 C 0.05958 0.01454 0.15532 0.0
C2747 C 0.05884 0.00091 0.14514 0.0
C2748 C 0.0675 0.98686 0.14935 0.0
H2749 H 0.02622 0.96776 0.05447 0.0
H2750 H 0.03419 0.97226 0.08254 0.0
C2751 C 0.07659 0.98635 0.16363 0.0
C2752 C 0.04934 0.00134 0.1299 0.0
H2753 H 0.0177 0.98297 0.1105 0.0
C2754 C 0.05481 0.01115 0.1171 0.0
C2755 C 0.03554 0.99141 0.12765 0.0
C2756 C 0.0289 0.98103 0.14119 0.0
C2757 C 0.04734 0.01062 0.10179 0.0
C2758 C 0.03381 0.0003 0.09938 0.0
C2759 C 0.02799 0.99096 0.11239 0.0
C2760 C 0.02688 -0.00251 0.083 0.0
C2761 C 0.05455 0.02038 0.08806 0.0
C2762 C 0.0195 0.01004 0.07409 0.0
C2763 C 0.01482 0.00747 0.05792 0.0
C2764 C 0.01757 0.99234 0.05048 0.0
C2765 C 0.02407 0.9796 0.0598 0.0
C2766 C 0.02862 0.98213 0.07588 0.0
H2767 H 0.06652 0.02566 0.09129 0.0
H2768 H 0.05606 0.01268 0.0771 0.0
H2769 H 0.04623 0.03049 0.08491 0.0
H2770 H 0.01782 0.02193 0.07946 0.0
H2771 H 0.00989 0.01752 0.05103 0.0
H2772 H 0.26585 0.80736 0.42744 0.0
H2773 H 0.26723 0.79585 0.40007 0.0
H2774 H 0.23303 0.8317 0.38322 0.0
H2775 H 0.23171 0.8434 0.41051 0.0
H2776 H 0.24016 0.78448 0.37916 0.0
H2777 H 0.27515 0.83682 0.35431 0.0
H2778 H 0.27386 0.8327 0.37579 0.0
H2779 H 0.25684 0.84129 0.36535 0.0
C2780 C 0.25859 0.81272 0.4179 0.0
C2781 C 0.24878 0.82632 0.421 0.0
C2782 C 0.25935 0.80614 0.40234 0.0
C2783 C 0.25043 0.81315 0.38969 0.0
C2784 C 0.24014 0.82631 0.39286 0.0
H2785 H 0.24545 0.78509 0.28823 0.0
H2786 H 0.24489 0.80167 0.31296 0.0
C2787 C 0.23929 0.83286 0.40844 0.0
C2788 C 0.25225 0.80684 0.3731 0.0
H2789 H 0.26902 0.81543 0.33621 0.0
C2790 C 0.2464 0.79124 0.36974 0.0
C2791 C 0.26034 0.81582 0.36092 0.0
C2792 C 0.26703 0.83256 0.36419 0.0
C2793 C 0.24855 0.78426 0.35443 0.0
C2794 C 0.25711 0.79301 0.34237 0.0
C2795 C 0.2626 0.80878 0.34558 0.0
C2796 C 0.2606 0.78558 0.32651 0.0
C2797 C 0.24164 0.76756 0.35126 0.0
C2798 C 0.27043 0.77172 0.32577 0.0
C2799 C 0.27065 0.76223 0.3118 0.0
C2800 C 0.26125 0.76667 0.29833 0.0
C2801 C 0.25286 0.78152 0.29846 0.0
C2802 C 0.25248 0.79092 0.31256 0.0
H2803 H 0.23214 0.76428 0.36024 0.0
H2804 H 0.23635 0.76681 0.3389 0.0
H2805 H 0.2515 0.75842 0.35213 0.0
H2806 H 0.27699 0.76761 0.33639 0.0
H2807 H 0.27732 0.75089 0.31189 0.0
H2808 H 0.41108 0.01765 0.65866 0.0
H2809 H 0.4265 0.01875 0.63338 0.0
H2810 H 0.46393 0.989 0.65471 0.0
H2811 H 0.44835 0.98768 0.68008 0.0
H2812 H 0.45797 0.031 0.62928 0.0
H2813 H 0.45363 0.96569 0.61187 0.0
H2814 H 0.44078 0.97454 0.62724 0.0
H2815 H 0.46163 0.97013 0.63166 0.0
C2816 C 0.42261 0.01138 0.65795 0.0
C2817 C 0.4286 0.00263 0.67126 0.0
C2818 C 0.43137 0.01198 0.64354 0.0
C2819 C 0.44628 0.00389 0.64221 0.0
C2820 C 0.45232 0.99511 0.65546 0.0
H2821 H 0.49868 -0.00142 0.54955 0.0
H2822 H 0.49395 -0.00311 0.57882 0.0
C2823 C 0.44346 0.99439 0.6699 0.0
C2824 C 0.45541 0.00506 0.62689 0.0
H2825 H 0.46622 0.98334 0.59338 0.0
C2826 C 0.46 0.02056 0.62151 0.0
C2827 C 0.45815 0.99136 0.61691 0.0
C2828 C 0.45323 0.97447 0.62209 0.0
C2829 C 0.46652 0.02286 0.60601 0.0
C2830 C 0.46833 0.00931 0.59566 0.0
C2831 C 0.46474 0.99368 0.60141 0.0
C2832 C 0.47203 0.01131 0.5783 0.0
C2833 C 0.47094 0.03984 0.60069 0.0
C2834 C 0.4612 0.0199 0.56842 0.0
C2835 C 0.46382 0.02091 0.55178 0.0
C2836 C 0.47728 0.0132 0.54466 0.0
C2837 C 0.48821 0.0047 0.55464 0.0
C2838 C 0.48556 0.00371 0.57135 0.0
H2839 H 0.47387 0.0477 0.61125 0.0
H2840 H 0.48146 0.03974 0.59228 0.0
H2841 H 0.46046 0.04534 0.5943 0.0
H2842 H 0.45046 0.0255 0.57354 0.0
H2843 H 0.45509 0.02747 0.54448 0.0
H2844 H 0.27462 0.18965 0.92527 0.0
H2845 H 0.27693 0.20296 0.89879 0.0
H2846 H 0.23414 0.17774 0.88243 0.0
H2847 H 0.23187 0.16419 0.9087 0.0
H2848 H 0.27985 0.18683 0.86754 0.0
H2849 H 0.22536 0.22625 0.87183 0.0
H2850 H 0.23466 0.21708 0.88942 0.0
H2851 H 0.2217 0.20524 0.87648 0.0
C2852 C 0.26572 0.18691 0.91603 0.0
C2853 C 0.25306 0.17584 0.91911 0.0
C2854 C 0.26704 0.19456 0.90094 0.0
C2855 C 0.25566 0.1914 0.88872 0.0
C2856 C 0.24291 0.18052 0.8918 0.0
H2857 H 0.23871 0.20429 0.78966 0.0
H2858 H 0.249 0.1932 0.8152 0.0
C2859 C 0.2416 0.17284 0.90685 0.0
C2860 C 0.25728 0.19905 0.87256 0.0
H2861 H 0.23728 0.22329 0.84565 0.0
C2862 C 0.27067 0.19497 0.86279 0.0
C2863 C 0.24533 0.20974 0.86648 0.0
C2864 C 0.23101 0.21498 0.87663 0.0
C2865 C 0.27198 0.20076 0.8468 0.0
C2866 C 0.25971 0.21091 0.84058 0.0
C2867 C 0.24669 0.21549 0.85054 0.0
C2868 C 0.25918 0.21597 0.8234 0.0
C2869 C 0.28621 0.19579 0.83646 0.0
C2870 C 0.26244 0.23216 0.8192 0.0
C2871 C 0.25682 0.23842 0.80446 0.0
C2872 C 0.24776 0.22857 0.79395 0.0
C2873 C 0.24602 0.21198 0.79742 0.0
C2874 C 0.25179 0.20568 0.81205 0.0
H2875 H 0.29559 0.18923 0.84355 0.0
H2876 H 0.28192 0.18777 0.82652 0.0
H2877 H 0.29179 0.20669 0.83077 0.0
H2878 H 0.26799 0.2403 0.82791 0.0
H2879 H 0.25795 0.25133 0.80217 0.0
H2880 H 0.07152 0.96815 0.32775 0.0
H2881 H 0.05869 0.96606 0.35447 0.0
H2882 H 0.07199 0.01561 0.36483 0.0
H2883 H 0.08528 0.01772 0.33841 0.0
H2884 H 0.07556 0.97345 0.38674 0.0
H2885 H 0.02112 0.01102 0.37329 0.0
H2886 H 0.03279 0.00113 0.35757 0.0
H2887 H 0.04035 0.01925 0.36701 0.0
C2888 C 0.07184 0.97858 0.33574 0.0
C2889 C 0.07951 0.9931 0.33089 0.0
C2890 C 0.06443 0.97737 0.35097 0.0
C2891 C 0.06438 0.99068 0.36158 0.0
C2892 C 0.07179 0.00524 0.35674 0.0
H2893 H 0.04356 0.01649 0.45785 0.0
H2894 H 0.05778 0.00638 0.43379 0.0
C2895 C 0.07929 0.00644 0.34157 0.0
C2896 C 0.05685 0.98936 0.37785 0.0
H2897 H 0.02572 0.00412 0.40081 0.0
C2898 C 0.06457 0.97999 0.38981 0.0
C2899 C 0.04247 -0.00215 0.38174 0.0
C2900 C 0.03357 0.00781 0.36924 0.0
C2901 C 0.05859 0.97945 0.4058 0.0
C2902 C 0.04452 0.98835 0.40978 0.0
C2903 C 0.03648 -0.00278 0.39767 0.0
C2904 C 0.03857 0.98999 0.42666 0.0
C2905 C 0.06742 0.96964 0.41843 0.0
C2906 C 0.02353 0.98335 0.43113 0.0
C2907 C 0.01559 0.98884 0.44511 0.0
C2908 C 0.02249 0.00122 0.45456 0.0
C2909 C 0.0382 0.00667 0.45094 0.0
C2910 C 0.04626 0.00099 0.43713 0.0
H2911 H 0.07668 0.9615 0.41296 0.0
H2912 H 0.07356 0.97801 0.42701 0.0
H2913 H 0.05868 0.9622 0.42552 0.0
H2914 H 0.01735 0.97496 0.42312 0.0
H2915 H 0.00331 0.98477 0.44747 0.0
H2916 H 0.26459 0.80209 0.56473 0.0
H2917 H 0.26338 0.78561 0.58958 0.0
H2918 H 0.23538 0.82321 0.61297 0.0
H2919 H 0.23638 0.83953 0.58827 0.0
H2920 H 0.27376 0.79338 0.62124 0.0
H2921 H 0.20759 0.78257 0.61945 0.0
H2922 H 0.21885 0.78967 0.60203 0.0
H2923 H 0.21246 0.80372 0.61751 0.0
C2924 C 0.25821 0.80678 0.57523 0.0
C2925 C 0.25037 0.82193 0.57461 0.0
C2926 C 0.25749 0.79737 0.58932 0.0
C2927 C 0.24894 0.80306 0.60289 0.0
C2928 C 0.2416 0.81842 0.60242 0.0
H2929 H 0.22917 0.79614 0.70022 0.0
H2930 H 0.23204 0.80023 0.67116 0.0
C2931 C 0.24221 0.82773 0.58836 0.0
C2932 C 0.24788 0.79332 0.61784 0.0
H2933 H 0.22038 0.78007 0.6457 0.0
C2934 C 0.26215 0.79007 0.62649 0.0
C2935 C 0.2327 0.78888 0.62446 0.0
C2936 C 0.21705 0.79124 0.61529 0.0
C2937 C 0.26152 0.78381 0.6423 0.0
C2938 C 0.24622 0.78061 0.64938 0.0
C2939 C 0.23207 0.78267 0.64022 0.0
C2940 C 0.24442 0.77745 0.66687 0.0
C2941 C 0.27707 0.78176 0.65172 0.0
C2942 C 0.25034 0.76319 0.674 0.0
C2943 C 0.2488 0.76082 0.69072 0.0
C2944 C 0.24118 0.77264 0.70045 0.0
C2945 C 0.23501 0.78675 0.69311 0.0
C2946 C 0.23665 0.78912 0.6765 0.0
H2947 H 0.28774 0.78661 0.64506 0.0
H2948 H 0.27619 0.78802 0.66362 0.0
H2949 H 0.27916 0.76865 0.6541 0.0
H2950 H 0.25617 0.75395 0.66668 0.0
H2951 H 0.25363 0.74979 0.696 0.0
H2952 H 0.44485 0.99049 0.82047 0.0
H2953 H 0.45477 0.98831 0.84844 0.0
H2954 H 0.4134 0.01548 0.8654 0.0
H2955 H 0.40337 0.0177 0.83752 0.0
H2956 H 0.45721 0.01829 0.87478 0.0
H2957 H 0.41647 0.96548 0.88674 0.0
H2958 H 0.42404 0.96982 0.86664 0.0
H2959 H 0.40896 0.98272 0.87551 0.0
C2960 C 0.43799 -0.00386 0.83017 0.0
C2961 C 0.42333 0.00419 0.82692 0.0
C2962 C 0.44367 0.99492 0.84605 0.0
C2963 C 0.43468 0.00163 0.85882 0.0
C2964 C 0.42041 0.01023 0.85559 0.0
H2965 H 0.46011 0.00412 0.96106 0.0
H2966 H 0.44341 0.00559 0.93654 0.0
C2967 C 0.41478 0.01156 0.83971 0.0
C2968 C 0.4398 -0.00115 0.87564 0.0
H2969 H 0.43402 0.97347 0.90787 0.0
C2970 C 0.45207 0.00863 0.88212 0.0
C2971 C 0.43301 0.98616 0.88498 0.0
C2972 C 0.4199 0.97534 0.87821 0.0
C2973 C 0.45791 0.00588 0.89781 0.0
C2974 C 0.4513 0.99302 0.90707 0.0
C2975 C 0.43888 0.98338 0.90068 0.0
C2976 C 0.4583 0.98883 0.92289 0.0
C2977 C 0.47143 0.01639 0.9043 0.0
C2978 C 0.47158 0.97825 0.92342 0.0
C2979 C 0.48115 0.97747 0.9373 0.0
C2980 C 0.47743 0.98717 0.95081 0.0
C2981 C 0.46311 -0.0036 0.95085 0.0
C2982 C 0.45362 -0.00268 0.93686 0.0
H2983 H 0.47512 0.02601 0.89559 0.0
H2984 H 0.46753 0.02226 0.91578 0.0
H2985 H 0.48217 0.00874 0.90708 0.0
H2986 H 0.47529 0.97164 0.91268 0.0
H2987 H 0.49211 0.97022 0.93704 0.0
H2988 H 0.23193 0.15234 0.08743 0.0
H2989 H 0.2329 0.16238 0.11539 0.0
H2990 H 0.2632 0.20226 0.10007 0.0
H2991 H 0.26209 0.19244 0.07207 0.0
H2992 H 0.26205 0.16687 0.13406 0.0
H2993 H 0.22684 0.2239 0.12712 0.0
H2994 H 0.22589 0.20755 0.11253 0.0
H2995 H 0.24271 0.22145 0.11239 0.0
C2996 C 0.23853 0.16342 0.08998 0.0
C2997 C 0.24692 0.17164 0.07759 0.0
C2998 C 0.23918 0.16905 0.10595 0.0
C2999 C 0.24805 0.18308 0.10973 0.0
C3000 C 0.25615 0.1915 0.09734 0.0
H3001 H 0.27743 0.24051 0.18898 0.0
H3002 H 0.27659 0.22349 0.16475 0.0
C3003 C 0.25559 0.18583 0.0814 0.0
C3004 C 0.24948 0.1886 0.12672 0.0
H3005 H 0.24249 0.22119 0.15124 0.0
C3006 C 0.2576 0.17865 0.13792 0.0
C3007 C 0.24359 0.20394 0.13167 0.0
C3008 C 0.23413 0.21479 0.12035 0.0
C3009 C 0.26061 0.18399 0.15383 0.0
C3010 C 0.25526 0.19956 0.15852 0.0
C3011 C 0.24667 0.20926 0.14749 0.0
C3012 C 0.25901 0.20662 0.17453 0.0
C3013 C 0.26997 0.17332 0.16535 0.0
C3014 C 0.25006 0.20218 0.18833 0.0
C3015 C 0.25063 0.21184 0.2023 0.0
C3016 C 0.25998 0.22612 0.20241 0.0
C3017 C 0.27007 0.2296 0.18913 0.0
C3018 C 0.2696 0.21991 0.1753 0.0
H3019 H 0.27415 0.1619 0.1595 0.0
H3020 H 0.28067 0.18002 0.17005 0.0
H3021 H 0.26219 0.17018 0.17589 0.0
H3022 H 0.24172 0.19201 0.18786 0.0
H3023 H 0.24263 0.20902 0.21234 0.0
H3024 H 0.15876 0.10358 0.0094 0.0
H3025 H 0.13071 0.09373 0.00768 0.0
H3026 H 0.14803 0.04665 0.99269 0.0
H3027 H 0.17612 0.05642 0.99431 0.0
H3028 H 0.11946 0.07294 0.97341 0.0
H3029 H 0.11175 0.04678 0.03532 0.0
H3030 H 0.12465 0.06417 0.03161 0.0
H3031 H 0.13093 0.0444 0.02503 0.0
C3032 C 0.15657 0.09105 0.00601 0.0
C3033 C 0.16955 0.08073 0.00197 0.0
C3034 C 0.14059 0.0855 0.00494 0.0
C3035 C 0.13743 0.06953 2e-05 0.0
C3036 C 0.15034 0.05904 -0.00353 0.0
H3037 H 0.06502 0.0026 0.9781 0.0
H3038 H 0.08829 0.02087 0.97845 0.0
C3039 C 0.16631 0.06462 -0.00262 0.0
C3040 C 0.12062 0.06388 -0.00212 0.0
H3041 H 0.09099 0.0416 0.01625 0.0
C3042 C 0.11308 0.06631 0.98282 0.0
C3043 C 0.11247 0.05528 0.01023 0.0
C3044 C 0.12025 0.05247 0.02653 0.0
C3045 C 0.09772 0.05971 0.9796 0.0
C3046 C 0.08982 0.05062 0.99176 0.0
C3047 C 0.0971 0.04874 0.00702 0.0
C3048 C 0.07501 0.0412 0.98836 0.0
C3049 C 0.0902 0.06193 0.96311 0.0
C3050 C 0.05972 0.04693 0.99313 0.0
C3051 C 0.04626 0.03654 0.99275 0.0
C3052 C 0.0481 0.02021 0.98806 0.0
C3053 C 0.06322 0.01502 0.98206 0.0
C3054 C 0.07655 0.02543 0.98221 0.0
H3055 H 0.09701 0.07081 0.95557 0.0
H3056 H 0.08997 0.05007 0.9567 0.0
H3057 H 0.07746 0.06612 0.96438 0.0
H3058 H 0.05836 0.05913 -0.00214 0.0
H3059 H 0.03475 0.04099 -0.00286 0.0
H3060 H 0.66297 0.41396 0.01837 0.0
H3061 H 0.63802 0.42992 0.01884 0.0
H3062 H 0.65499 0.4581 0.97812 0.0
H3063 H 0.68023 0.44236 0.97772 0.0
H3064 H 0.63592 0.46593 0.02137 0.0
H3065 H 0.60894 0.43913 0.9654 0.0
H3066 H 0.62477 0.42903 0.97666 0.0
H3067 H 0.62953 0.4464 0.96442 0.0
C3068 C 0.66148 0.42366 0.00962 0.0
C3069 C 0.67353 0.42697 -0.00197 0.0
C3070 C 0.64723 0.43269 0.00987 0.0
C3071 C 0.64477 0.44506 -0.00152 0.0
C3072 C 0.65672 0.44846 0.98689 0.0
H3073 H 0.55166 0.49516 0.98832 0.0
H3074 H 0.58062 0.48963 0.98473 0.0
C3075 C 0.67104 0.43944 0.98665 0.0
C3076 C 0.62956 0.45429 -0.00114 0.0
H3077 H 0.59292 0.45753 0.98015 0.0
C3078 C 0.62657 0.46434 0.01225 0.0
C3079 C 0.61755 0.4521 0.98688 0.0
C3080 C 0.62021 0.44103 0.97253 0.0
C3081 C 0.61152 0.47188 0.01429 0.0
C3082 C 0.59923 0.46908 0.00271 0.0
C3083 C 0.60249 0.45968 0.98891 0.0
C3084 C 0.58237 0.47399 0.00573 0.0
C3085 C 0.60871 0.48236 0.02903 0.0
C3086 C 0.57395 0.46701 0.01874 0.0
C3087 C 0.55752 0.47009 0.02083 0.0
C3088 C 0.54919 0.48012 0.00985 0.0
C3089 C 0.55777 0.48746 -0.00296 0.0
C3090 C 0.57427 0.48431 0.99494 0.0
H3091 H 0.6203 0.48726 0.03387 0.0
H3092 H 0.60048 0.49265 0.02622 0.0
H3093 H 0.60301 0.47491 0.03871 0.0
H3094 H 0.57998 0.45871 0.02697 0.0
H3095 H 0.55128 0.46422 0.0308 0.0
H3096 H 0.84862 0.41169 0.23125 0.0
H3097 H 0.83756 0.3841 0.23251 0.0
H3098 H 0.79732 0.40154 0.26107 0.0
H3099 H 0.8081 0.42919 0.25959 0.0
H3100 H 0.83189 0.36654 0.26171 0.0
H3101 H 0.77587 0.374 0.22529 0.0
H3102 H 0.79251 0.38825 0.22438 0.0
H3103 H 0.77818 0.38911 0.24082 0.0
C3104 C 0.83723 0.40968 0.2375 0.0
C3105 C 0.82919 0.42255 0.24533 0.0
C3106 C 0.83102 0.39393 0.2383 0.0
C3107 C 0.81662 0.39087 0.2468 0.0
C3108 C 0.80837 0.40374 0.2543 0.0
H3109 H 0.75517 0.31384 0.27458 0.0
H3110 H 0.77238 0.33798 0.27438 0.0
C3111 C 0.81459 0.41947 0.25355 0.0
C3112 C 0.81059 0.37412 0.24862 0.0
H3113 H 0.77741 0.35042 0.24203 0.0
C3114 C 0.82006 0.36289 0.25727 0.0
C3115 C 0.79522 0.36948 0.2427 0.0
C3116 C 0.78491 0.38079 0.23264 0.0
C3117 C 0.81418 0.34728 0.2608 0.0
C3118 C 0.79854 0.34293 0.25545 0.0
C3119 C 0.78934 0.35396 0.24631 0.0
C3120 C 0.79102 0.32718 0.25938 0.0
C3121 C 0.82439 0.33577 0.27068 0.0
C3122 C 0.79636 0.31288 0.25179 0.0
C3123 C 0.78661 0.29898 0.25207 0.0
C3124 C 0.77137 0.29945 0.25968 0.0
C3125 C 0.76683 0.31328 0.26853 0.0
C3126 C 0.77663 0.32704 0.26843 0.0
H3127 H 0.83525 0.34183 0.27586 0.0
H3128 H 0.81711 0.33049 0.28072 0.0
H3129 H 0.82851 0.3256 0.26285 0.0
H3130 H 0.80736 0.31286 0.2446 0.0
H3131 H 0.79029 0.28846 0.24507 0.0
H3132 H 0.83663 0.58875 0.47018 0.0
H3133 H 0.86294 0.57555 0.46751 0.0
H3134 H 0.85277 0.54653 0.50988 0.0
H3135 H 0.826 0.55904 0.51212 0.0
H3136 H 0.8871 0.57712 0.48799 0.0
H3137 H 0.87097 0.51248 0.48006 0.0
H3138 H 0.85624 0.52858 0.47809 0.0
H3139 H 0.86153 0.52079 0.49781 0.0
C3140 C 0.83976 0.57924 0.47869 0.0
C3141 C 0.8291 0.5749 0.49131 0.0
C3142 C 0.85489 0.57178 0.4772 0.0
C3143 C 0.85975 0.55983 0.48831 0.0
C3144 C 0.84914 0.5554 0.50089 0.0
H3145 H 0.94805 0.53766 0.52999 0.0
H3146 H 0.92399 0.54996 0.51832 0.0
C3147 C 0.83393 0.56277 0.50233 0.0
C3148 C 0.87648 0.55318 0.48764 0.0
H3149 H 0.89816 0.51792 0.48992 0.0
C3150 C 0.8895 0.56416 0.48807 0.0
C3151 C 0.8797 0.53629 0.48738 0.0
C3152 C 0.86636 0.52387 0.48562 0.0
C3153 C 0.90556 0.55874 0.48937 0.0
C3154 C 0.90867 0.54189 0.49067 0.0
C3155 C 0.89577 0.53085 0.48907 0.0
C3156 C 0.92461 0.53573 0.49624 0.0
C3157 C 0.91899 0.57117 0.48988 0.0
C3158 C 0.93305 0.52353 0.48774 0.0
C3159 C 0.94693 0.51636 0.49454 0.0
C3160 C 0.95237 0.52127 0.50988 0.0
C3161 C 0.94426 0.53387 0.51799 0.0
C3162 C 0.93052 0.54096 0.51129 0.0
H3163 H 0.91573 0.58214 0.48274 0.0
H3164 H 0.92092 0.57509 0.50261 0.0
H3165 H 0.93055 0.56616 0.48511 0.0
H3166 H 0.92855 0.51914 0.47621 0.0
H3167 H 0.95262 0.50625 0.4884 0.0
H3168 H 0.15538 0.08872 0.23369 0.0
H3169 H 0.1677 0.11568 0.23127 0.0
H3170 H 0.21136 0.09787 0.25376 0.0
H3171 H 0.19919 0.0707 0.25608 0.0
H3172 H 0.18923 0.13035 0.2659 0.0
H3173 H 0.21499 0.12703 0.20349 0.0
H3174 H 0.19618 0.11678 0.20819 0.0
H3175 H 0.21477 0.10954 0.21675 0.0
C3176 C 0.1677 0.09046 0.23789 0.0
C3177 C 0.17635 0.07757 0.24501 0.0
C3178 C 0.17469 0.10586 0.23652 0.0
C3179 C 0.19045 0.10865 0.24218 0.0
C3180 C 0.19919 0.09586 0.24923 0.0
H3181 H 0.25361 0.1906 0.2469 0.0
H3182 H 0.24085 0.16536 0.23788 0.0
C3183 C 0.1922 0.08042 0.25064 0.0
C3184 C 0.1973 0.12523 0.24166 0.0
H3185 H 0.21751 0.15205 0.21733 0.0
C3186 C 0.19536 0.13516 0.25528 0.0
C3187 C 0.20541 0.13127 0.22783 0.0
C3188 C 0.20807 0.12068 0.21316 0.0
C3189 C 0.20136 0.1511 0.2555 0.0
C3190 C 0.20911 0.15743 0.24148 0.0
C3191 C 0.21122 0.14735 0.22788 0.0
C3192 C 0.21632 0.17396 0.24152 0.0
C3193 C 0.19984 0.1608 0.27099 0.0
C3194 C 0.20676 0.18763 0.24516 0.0
C3195 C 0.21408 0.20204 0.25044 0.0
C3196 C 0.231 0.20303 0.25162 0.0
C3197 C 0.24052 0.19015 0.24581 0.0
C3198 C 0.23323 0.17569 0.24076 0.0
H3199 H 0.19714 0.15292 0.28159 0.0
H3200 H 0.21116 0.16765 0.27353 0.0
H3201 H 0.18977 0.16964 0.26975 0.0
H3202 H 0.19366 0.18665 0.2455 0.0
H3203 H 0.20652 0.21167 0.25524 0.0
H3204 H 0.33756 0.91103 0.52129 0.0
H3205 H 0.36515 0.92194 0.52017 0.0
H3206 H 0.35215 0.95088 0.47855 0.0
H3207 H 0.32445 0.9404 0.47988 0.0
H3208 H 0.38597 0.91786 0.49402 0.0
H3209 H 0.37641 0.98317 0.5071 0.0
H3210 H 0.36131 0.96791 0.51156 0.0
H3211 H 0.36338 0.9758 0.49131 0.0
C3212 C 0.34048 0.92004 0.51217 0.0
C3213 C 0.32888 0.92486 0.50064 0.0
C3214 C 0.35625 0.92615 0.51148 0.0
C3215 C 0.36062 0.93725 0.49934 0.0
C3216 C 0.34894 0.94248 0.48815 0.0
H3217 H 0.4438 0.98572 0.46294 0.0
H3218 H 0.41918 0.96928 0.46487 0.0
C3219 C 0.33318 0.93638 0.48882 0.0
C3220 C 0.37766 0.94244 0.49753 0.0
H3221 H 0.40161 0.97603 0.49462 0.0
C3222 C 0.38947 0.93056 0.49431 0.0
C3223 C 0.38213 0.959 0.49802 0.0
C3224 C 0.37017 0.97219 0.50235 0.0
C3225 C 0.40558 0.9349 0.4909 0.0
C3226 C 0.40985 0.95148 0.49076 0.0
C3227 C 0.39815 0.96331 0.49446 0.0
C3228 C 0.42639 0.95714 0.48698 0.0
C3229 C 0.41781 0.92184 0.48704 0.0
C3230 C 0.43894 0.95494 0.49824 0.0
C3231 C 0.45309 0.96421 0.49705 0.0
C3232 C 0.45468 0.97583 0.48469 0.0
C3233 C 0.44284 0.97676 0.47252 0.0
C3234 C 0.42877 0.96744 0.47365 0.0
H3235 H 0.41198 0.90984 0.48505 0.0
H3236 H 0.42489 0.92515 0.47606 0.0
H3237 H 0.42644 0.9207 0.49729 0.0
H3238 H 0.43719 0.94722 0.50874 0.0
H3239 H 0.46185 0.96361 0.5068 0.0
H3240 H 0.83105 0.58703 0.22559 0.0
H3241 H 0.81447 0.61164 0.22582 0.0
H3242 H 0.79559 0.5987 0.27285 0.0
H3243 H 0.81175 0.57374 0.27257 0.0
H3244 H 0.77752 0.61282 0.23174 0.0
H3245 H 0.81659 0.64658 0.27546 0.0
H3246 H 0.8243 0.63013 0.26318 0.0
H3247 H 0.81133 0.62584 0.2801 0.0
C3248 C 0.82322 0.58928 0.2359 0.0
C3249 C 0.82268 0.57841 0.24905 0.0
C3250 C 0.81383 0.60336 0.23603 0.0
C3251 C 0.8039 0.60687 0.24935 0.0
C3252 C 0.80329 0.59613 0.26251 0.0
H3253 H 0.75528 0.69941 0.26629 0.0
H3254 H 0.76133 0.67039 0.26926 0.0
C3255 C 0.8126 0.58198 0.26236 0.0
C3256 C 0.79434 0.62194 0.2495 0.0
H3257 H 0.79392 0.66027 0.26503 0.0
C3258 C 0.78094 0.62317 0.23914 0.0
C3259 C 0.79894 0.63529 0.25919 0.0
C3260 C 0.81361 0.63456 0.27009 0.0
C3261 C 0.77212 0.63768 0.23798 0.0
C3262 C 0.77701 0.65121 0.24731 0.0
C3263 C 0.79011 0.64977 0.25806 0.0
C3264 C 0.77016 0.66754 0.2447 0.0
C3265 C 0.75783 0.63851 0.2266 0.0
C3266 C 0.77278 0.67533 0.22982 0.0
C3267 C 0.76946 0.69183 0.22816 0.0
C3268 C 0.76344 0.7008 0.24137 0.0
C3269 C 0.75979 0.69274 0.25592 0.0
C3270 C 0.76328 0.67622 0.25764 0.0
H3271 H 0.75273 0.62625 0.22421 0.0
H3272 H 0.74812 0.64641 0.23159 0.0
H3273 H 0.76185 0.6437 0.21485 0.0
H3274 H 0.77836 0.66891 0.2198 0.0
H3275 H 0.77231 0.69773 0.21677 0.0
H3276 H 0.65653 0.40731 0.76796 0.0
H3277 H 0.66885 0.38034 0.76999 0.0
H3278 H 0.7114 0.39778 0.74512 0.0
H3279 H 0.6993 0.42498 0.74327 0.0
H3280 H 0.69018 0.36537 0.73417 0.0
H3281 H 0.7159 0.36929 0.79649 0.0
H3282 H 0.69678 0.37903 0.79205 0.0
H3283 H 0.71506 0.38672 0.78319 0.0
C3284 C 0.66862 0.40551 0.76314 0.0
C3285 C 0.67698 0.41833 0.75554 0.0
C3286 C 0.67559 0.39008 0.76427 0.0
C3287 C 0.69105 0.38718 0.75785 0.0
C3288 C 0.69947 0.39987 0.75022 0.0
H3289 H 0.75594 0.3065 0.75672 0.0
H3290 H 0.74179 0.33127 0.76477 0.0
C3291 C 0.6925 0.41534 0.74908 0.0
C3292 C 0.698 0.37063 0.75844 0.0
H3293 H 0.71831 0.34412 0.78295 0.0
C3294 C 0.69628 0.36064 0.74483 0.0
C3295 C 0.70609 0.36472 0.7723 0.0
C3296 C 0.70869 0.37542 0.7869 0.0
C3297 C 0.70253 0.34478 0.74464 0.0
C3298 C 0.71024 0.33855 0.75873 0.0
C3299 C 0.71205 0.3487 0.77233 0.0
C3300 C 0.71789 0.32217 0.75879 0.0
C3301 C 0.70138 0.33518 0.72907 0.0
C3302 C 0.70908 0.30828 0.75415 0.0
C3303 C 0.71724 0.29418 0.74927 0.0
C3304 C 0.73422 0.29358 0.7497 0.0
C3305 C 0.7428 0.3066 0.75657 0.0
C3306 C 0.73471 0.32082 0.76106 0.0
H3307 H 0.69895 0.34313 0.71846 0.0
H3308 H 0.71275 0.32835 0.72671 0.0
H3309 H 0.69124 0.32637 0.73001 0.0
H3310 H 0.69604 0.30887 0.75278 0.0
H3311 H 0.71044 0.28455 0.74347 0.0
H3312 H 0.01116 0.82503 0.94189 0.0
H3313 H 0.00867 0.85179 0.95478 0.0
H3314 H 0.98077 0.86895 0.91403 0.0
H3315 H 0.98317 0.84233 0.90114 0.0
H3316 H 0.01857 0.88179 0.94386 0.0
H3317 H 0.95186 0.88116 0.95227 0.0
H3318 H 0.96334 0.86312 0.94745 0.0
H3319 H 0.9581 0.87734 0.93176 0.0
C3320 C 0.00452 0.83453 0.93568 0.0
C3321 C -0.00283 0.8315 0.9206 0.0
C3322 C 0.00305 0.84977 0.94308 0.0
C3323 C 0.99419 0.86225 0.93554 0.0
C3324 C 0.98722 0.85937 0.9203 0.0
H3325 H 0.00539 0.96392 0.95826 0.0
H3326 H -0.00248 0.9394 0.94333 0.0
C3327 C 0.98863 0.84415 0.91295 0.0
C3328 C 0.99269 0.87846 0.9433 0.0
H3329 H 0.96519 0.90651 0.95686 0.0
C3330 C 0.0069 0.88717 0.94671 0.0
C3331 C 0.97745 0.8854 0.94719 0.0
C3332 C 0.96181 0.87623 0.94464 0.0
C3333 C 0.00629 0.90273 0.95362 0.0
C3334 C 0.99104 0.9099 0.95697 0.0
C3335 C 0.97681 0.90111 0.9539 0.0
C3336 C 0.99006 0.92612 0.96471 0.0
C3337 C 0.02198 0.91132 0.95756 0.0
C3338 C 0.98713 0.92719 0.98143 0.0
C3339 C 0.99149 0.94123 0.98992 0.0
C3340 C -0.00129 0.95433 0.98175 0.0
C3341 C -0.00044 0.95407 0.96476 0.0
C3342 C 0.99525 0.94 0.95626 0.0
H3343 H 0.03262 0.90307 0.95671 0.0
H3344 H 0.02382 0.92149 0.94892 0.0
H3345 H 0.02154 0.91651 0.96999 0.0
H3346 H 0.98313 0.91661 0.98816 0.0
H3347 H 0.99101 0.94108 0.00305 0.0
H3348 H 0.9282 0.22257 0.68668 0.0
H3349 H 0.90272 0.22125 0.70193 0.0
H3350 H 0.89 0.2691 0.68479 0.0
H3351 H 0.91511 0.2703 0.66913 0.0
H3352 H 0.8905 0.24215 0.7263 0.0
H3353 H 0.85096 0.24109 0.67194 0.0
H3354 H 0.87252 0.2374 0.67085 0.0
H3355 H 0.86489 0.25785 0.67206 0.0
C3356 C 0.9199 0.23274 0.68607 0.0
C3357 C 0.92357 0.24648 0.67662 0.0
C3358 C 0.90544 0.23201 0.69486 0.0
C3359 C 0.89443 0.24496 0.69425 0.0
C3360 C 0.89825 0.25886 0.68518 0.0
H3361 H 0.80784 0.27942 0.73354 0.0
H3362 H 0.83591 0.27427 0.72571 0.0
C3363 C 0.91267 0.2596 0.67638 0.0
C3364 C 0.87885 0.24402 0.70299 0.0
H3365 H 0.83803 0.24689 0.6973 0.0
C3366 C 0.879 0.24293 0.71999 0.0
C3367 C 0.86391 0.24487 0.69464 0.0
C3368 C 0.86301 0.2452 0.67636 0.0
C3369 C 0.86451 0.24356 0.72892 0.0
C3370 C 0.84971 0.24525 0.72058 0.0
C3371 C 0.84951 0.24562 0.70359 0.0
C3372 C 0.83434 0.24828 0.7291 0.0
C3373 C 0.86501 0.24309 0.74717 0.0
C3374 C 0.82452 0.23535 0.73425 0.0
C3375 C 0.80845 0.23827 0.73888 0.0
C3376 C 0.80211 0.2541 0.73809 0.0
C3377 C 0.81244 0.2671 0.73419 0.0
C3378 C 0.82845 0.2642 0.72972 0.0
H3379 H 0.87751 0.24133 0.75187 0.0
H3380 H 0.86008 0.25463 0.75211 0.0
H3381 H 0.85719 0.23307 0.75167 0.0
H3382 H 0.82895 0.22297 0.7337 0.0
H3383 H 0.80066 0.22804 0.74169 0.0
H3384 H 0.49385 0.158 0.39973 0.0
H3385 H 0.4962 0.13101 0.41212 0.0
H3386 H 0.51352 0.15283 0.45636 0.0
H3387 H 0.51116 0.17987 0.44408 0.0
H3388 H 0.52682 0.11712 0.42734 0.0
H3389 H 0.47364 0.12242 0.4687 0.0
H3390 H 0.47567 0.13454 0.45055 0.0
H3391 H 0.4875 0.13933 0.46815 0.0
C3392 C 0.49799 0.15705 0.41216 0.0
C3393 C 0.50231 0.17104 0.42095 0.0
C3394 C 0.49945 0.14164 0.41916 0.0
C3395 C 0.50506 0.13997 0.43512 0.0
C3396 C 0.50917 0.1539 0.44402 0.0
H3397 H 0.50651 0.05619 0.49829 0.0
H3398 H 0.51613 0.0817 0.48634 0.0
C3399 C 0.50785 0.1693 0.43698 0.0
C3400 C 0.50657 0.12365 0.44251 0.0
H3401 H 0.48939 0.09871 0.47072 0.0
C3402 C 0.5187 0.11307 0.43687 0.0
C3403 C 0.49595 0.11848 0.45492 0.0
C3404 C 0.48236 0.12918 0.46093 0.0
C3405 C 0.52044 0.09736 0.44336 0.0
C3406 C 0.50972 0.09215 0.45566 0.0
C3407 C 0.49775 0.10284 0.46143 0.0
C3408 C 0.50948 0.07523 0.46181 0.0
C3409 C 0.53368 0.08641 0.43707 0.0
C3410 C 0.50352 0.06278 0.45182 0.0
C3411 C 0.49803 0.04823 0.45865 0.0
C3412 C 0.49859 0.04594 0.4755 0.0
C3413 C 0.50631 0.05758 0.48522 0.0
C3414 C 0.51166 0.0722 0.47842 0.0
H3415 H 0.54302 0.0933 0.4302 0.0
H3416 H 0.53963 0.07987 0.44723 0.0
H3417 H 0.5283 0.0772 0.42885 0.0
H3418 H 0.50151 0.06495 0.43902 0.0
H3419 H 0.49174 0.03957 0.45101 0.0
H3420 H 0.57494 0.75697 0.18966 0.0
H3421 H 0.60268 0.75463 0.20018 0.0
H3422 H 0.61718 0.72912 0.15686 0.0
H3423 H 0.58953 0.73146 0.14621 0.0
H3424 H 0.62151 0.71809 0.19871 0.0
H3425 H 0.64881 0.77285 0.16959 0.0
H3426 H 0.62779 0.77298 0.17579 0.0
H3427 H 0.63402 0.76053 0.1591 0.0
C3428 C 0.58408 0.75097 0.18236 0.0
C3429 C 0.58014 0.7443 0.1672 0.0
C3430 C 0.59983 0.74963 0.18836 0.0
C3431 C 0.61181 0.74177 0.17919 0.0
C3432 C 0.60799 0.73523 0.16402 0.0
H3433 H 0.71307 0.74062 0.21372 0.0
H3434 H 0.69036 0.73663 0.19481 0.0
C3435 C 0.59224 0.73648 0.15804 0.0
C3436 C 0.62819 0.73986 0.18588 0.0
H3437 H 0.66462 0.75911 0.18911 0.0
C3438 C 0.63106 0.72687 0.19644 0.0
C3439 C 0.64055 0.75124 0.18261 0.0
C3440 C 0.63779 0.76523 0.17114 0.0
C3441 C 0.64587 0.72543 0.20456 0.0
C3442 C 0.6579 0.73746 0.2022 0.0
C3443 C 0.65536 0.7499 0.19084 0.0
C3444 C 0.67183 0.73885 0.21328 0.0
C3445 C 0.64829 0.71138 0.21606 0.0
C3446 C 0.66882 0.74159 0.22975 0.0
C3447 C 0.68158 0.74386 0.24045 0.0
C3448 C 0.69773 0.74363 0.23492 0.0
C3449 C 0.70078 0.74085 0.21836 0.0
C3450 C 0.68787 0.73855 0.20757 0.0
H3451 H 0.6409 0.70071 0.21239 0.0
H3452 H 0.66123 0.7077 0.21665 0.0
H3453 H 0.64433 0.71505 0.22839 0.0
H3454 H 0.65651 0.74231 0.2343 0.0
H3455 H 0.67868 0.7461 0.25307 0.0
H3456 H 0.02342 0.16304 0.59556 0.0
H3457 H 0.02547 0.13545 0.58478 0.0
H3458 H 0.99202 0.14784 0.54656 0.0
H3459 H 0.99009 0.17563 0.55712 0.0
H3460 H -0.00188 0.11343 0.58017 0.0
H3461 H 0.03212 0.12688 0.52346 0.0
H3462 H 0.03151 0.14079 0.54041 0.0
H3463 H 0.01449 0.13926 0.52691 0.0
C3464 C 0.01672 0.15997 0.58469 0.0
C3465 C 0.00669 0.17148 0.57708 0.0
C3466 C 0.01782 0.1442 0.57865 0.0
C3467 C 0.00901 0.13975 0.56485 0.0
C3468 C -0.00095 0.15119 0.55714 0.0
H3469 H 0.97937 0.05871 0.51267 0.0
H3470 H 0.98238 0.08235 0.53039 0.0
C3471 C -0.00212 0.16697 0.56322 0.0
C3472 C 0.00983 0.12296 0.55881 0.0
H3473 H 0.02057 0.10045 0.52585 0.0
C3474 C 0.00323 0.1105 0.5684 0.0
C3475 C 0.01661 0.11929 0.54352 0.0
C3476 C 0.02422 0.13222 0.53299 0.0
C3477 C 0.00256 0.09448 0.56268 0.0
C3478 C 0.00877 0.09099 0.54715 0.0
C3479 C 0.01596 0.10329 0.53785 0.0
C3480 C 0.00598 0.07524 0.5393 0.0
C3481 C 0.99469 0.08148 0.57287 0.0
C3482 C 0.01813 0.06332 0.53893 0.0
C3483 C 0.01632 0.04966 0.52899 0.0
C3484 C 0.00255 0.04818 0.51913 0.0
C3485 C 0.99013 0.05977 0.52013 0.0
C3486 C 0.9918 0.07317 0.53025 0.0
H3487 H 0.99201 0.08576 0.58536 0.0
H3488 H 0.98316 0.07763 0.56707 0.0
H3489 H 0.00268 0.07064 0.57353 0.0
H3490 H 0.02922 0.06492 0.54579 0.0
H3491 H 0.02602 0.0408 0.52828 0.0
H3492 H 0.57351 0.23439 0.30597 0.0
H3493 H 0.60055 0.23187 0.29381 0.0
H3494 H 0.61988 0.26433 0.32999 0.0
H3495 H 0.59292 0.26684 0.34227 0.0
H3496 H 0.62186 0.25847 0.28238 0.0
H3497 H 0.64839 0.2218 0.33237 0.0
H3498 H 0.62677 0.22356 0.32922 0.0
H3499 H 0.63784 0.24 0.33826 0.0
C3500 C 0.58354 0.24098 0.31132 0.0
C3501 C 0.58114 0.25073 0.32513 0.0
C3502 C 0.59894 0.23954 0.30436 0.0
C3503 C 0.61222 0.24767 0.31121 0.0
C3504 C 0.6098 0.25776 0.32471 0.0
H3505 H 0.71092 0.26615 0.29003 0.0
H3506 H 0.68601 0.25811 0.30399 0.0
C3507 C 0.59438 0.25931 0.3316 0.0
C3508 C 0.6286 0.24575 0.30411 0.0
H3509 H 0.66657 0.23115 0.31203 0.0
C3510 C 0.63161 0.25234 0.28874 0.0
C3511 C 0.64125 0.23782 0.31254 0.0
C3512 C 0.63846 0.23026 0.32897 0.0
C3513 C 0.64712 0.2517 0.28176 0.0
C3514 C 0.65985 0.24378 0.29019 0.0
C3515 C 0.65676 0.23698 0.30549 0.0
C3516 C 0.67672 0.24401 0.28389 0.0
C3517 C 0.64989 0.26023 0.26578 0.0
C3518 C 0.68038 0.23759 0.26853 0.0
C3519 C 0.69465 0.24219 0.26056 0.0
C3520 C 0.70554 0.25291 0.26804 0.0
C3521 C 0.70285 0.25757 0.28419 0.0
C3522 C 0.68854 0.2531 0.2921 0.0
H3523 H 0.63982 0.26867 0.26273 0.0
H3524 H 0.66138 0.26727 0.26599 0.0
H3525 H 0.65076 0.25106 0.25595 0.0
H3526 H 0.67152 0.23031 0.2621 0.0
H3527 H 0.69625 0.23886 0.24795 0.0
H3528 H 0.52188 0.81879 0.05562 0.0
H3529 H 0.52275 0.84448 0.04048 0.0
H3530 H 0.48213 0.86226 0.06829 0.0
H3531 H 0.48134 0.83687 0.08359 0.0
H3532 H 0.49596 0.86052 0.02224 0.0
H3533 H 0.51958 0.89626 0.0742 0.0
H3534 H 0.52099 0.87436 0.07324 0.0
H3535 H 0.50227 0.88392 0.07906 0.0
C3536 C 0.51319 0.82823 0.05849 0.0
C3537 C 0.50158 0.82593 0.07078 0.0
C3538 C 0.51365 0.84278 0.04981 0.0
C3539 C 0.50262 0.85519 0.05347 0.0
C3540 C 0.49082 0.8528 0.06547 0.0
H3541 H 0.46652 0.94565 0.02918 0.0
H3542 H 0.47199 0.91707 0.03488 0.0
C3543 C 0.49031 0.83828 0.07409 0.0
C3544 C 0.50343 0.87088 0.04504 0.0
H3545 H 0.50761 0.91136 0.05246 0.0
C3546 C 0.49882 0.87165 0.02868 0.0
C3547 C 0.50731 0.88525 0.05355 0.0
C3548 C 0.51297 0.88495 0.07095 0.0
C3549 C 0.49696 0.88668 0.0209 0.0
C3550 C 0.49984 0.90103 0.02977 0.0
C3551 C 0.50536 0.90021 0.0458 0.0
C3552 C 0.49558 0.91708 0.02341 0.0
C3553 C 0.49117 0.8873 0.00359 0.0
C3554 C 0.50695 0.92625 0.01474 0.0
C3555 C 0.50385 0.94258 0.01142 0.0
C3556 C 0.48948 0.94992 0.01698 0.0
C3557 C 0.47778 0.94038 0.0249 0.0
C3558 C 0.48082 0.92406 0.02809 0.0
H3559 H 0.49035 0.87502 -0.00194 0.0
H3560 H 0.47901 0.8931 0.00315 0.0
H3561 H 0.49953 0.8949 -0.00376 0.0
H3562 H 0.51847 0.92098 0.01122 0.0
H3563 H 0.51306 0.94966 0.00531 0.0
H3564 H 0.9329 0.7671 0.80148 0.0
H3565 H 0.9069 0.76788 0.78696 0.0
H3566 H 0.88538 0.73756 0.82376 0.0
H3567 H 0.91123 0.73671 0.83832 0.0
H3568 H 0.88665 0.73819 0.77642 0.0
H3569 H 0.85641 0.78061 0.81932 0.0
H3570 H 0.87821 0.77932 0.81736 0.0
H3571 H 0.86732 0.764 0.8284 0.0
C3572 C 0.9226 0.76063 0.80647 0.0
C3573 C 0.9241 0.75185 0.82105 0.0
C3574 C 0.90781 0.76104 0.79814 0.0
C3575 C 0.89423 0.75289 0.80437 0.0
C3576 C 0.89572 0.74401 0.81882 0.0
H3577 H 0.8011 0.71999 0.78301 0.0
H3578 H 0.82969 0.7248 0.78873 0.0
C3579 C 0.91052 0.74345 0.82706 0.0
C3580 C 0.87841 0.75354 0.79589 0.0
H3581 H 0.83938 0.76661 0.80063 0.0
C3582 C 0.87636 0.74462 0.78153 0.0
C3583 C 0.86507 0.76204 0.80254 0.0
C3584 C 0.8668 0.77216 0.81769 0.0
C3585 C 0.86105 0.74325 0.77416 0.0
C3586 C 0.84757 0.75107 0.7813 0.0
C3587 C 0.84979 0.76068 0.79517 0.0
C3588 C 0.83079 0.74766 0.77591 0.0
C3589 C 0.85914 0.73296 0.75917 0.0
C3590 C 0.82201 0.75886 0.76654 0.0
C3591 C 0.80557 0.75609 0.76309 0.0
C3592 C 0.79765 0.74222 0.76923 0.0
C3593 C 0.80675 0.73083 0.77814 0.0
C3594 C 0.82312 0.73352 0.78141 0.0
H3595 H 0.87102 0.72956 0.7538 0.0
H3596 H 0.85248 0.72166 0.76233 0.0
H3597 H 0.85186 0.73954 0.74994 0.0
H3598 H 0.82776 0.76989 0.76226 0.0
H3599 H 0.7989 0.76514 0.75627 0.0
H3600 H 0.94844 0.9878 0.81322 0.0
H3601 H 0.9639 0.98717 0.83865 0.0
H3602 H 0.92459 0.01136 0.86324 0.0
H3603 H 0.90901 0.01197 0.83793 0.0
H3604 H 0.96333 0.02245 0.86636 0.0
H3605 H 0.94458 0.95906 0.88129 0.0
H3606 H 0.94895 0.96492 0.86063 0.0
H3607 H 0.93104 0.97241 0.87039 0.0
C3608 C 0.94311 0.993 0.82406 0.0
C3609 C 0.92751 -0.0001 0.82362 0.0
C3610 C 0.95197 0.99269 0.83851 0.0
C3611 C 0.94533 -0.0008 0.85274 0.0
C3612 C 0.92991 0.00636 0.85231 0.0
H3613 H 0.95185 0.00405 0.95249 0.0
H3614 H 0.94662 0.00018 0.92375 0.0
C3615 C 0.92106 0.00674 0.83786 0.0
C3616 C 0.95416 -0.00193 0.86828 0.0
H3617 H 0.95869 0.97364 0.90141 0.0
C3618 C 0.96266 0.01169 0.87393 0.0
C3619 C 0.95313 0.984 0.87803 0.0
C3620 C 0.94396 0.96919 0.87239 0.0
C3621 C 0.96963 0.01183 0.88947 0.0
C3622 C 0.96805 -0.00202 0.89949 0.0
C3623 C 0.96008 0.98413 0.89356 0.0
C3624 C 0.97191 -0.00124 0.91699 0.0
C3625 C 0.97774 0.02709 0.89552 0.0
C3626 C 0.98794 -0.00115 0.92277 0.0
C3627 C 0.99103 0.00096 0.9394 0.0
C3628 C 0.9781 0.0033 0.95027 0.0
C3629 C 0.9621 0.00261 0.94439 0.0
C3630 C 0.95906 0.00029 0.92797 0.0
H3631 H 0.97744 0.03704 0.88642 0.0
H3632 H 0.97166 0.03136 0.90677 0.0
H3633 H 0.99057 0.02445 0.89857 0.0
H3634 H -0.00199 -0.00241 0.91442 0.0
H3635 H 0.00345 0.00134 0.94365 0.0
H3636 H 0.7631 0.19115 0.57033 0.0
H3637 H 0.76133 0.20213 0.59797 0.0
H3638 H 0.72671 0.16493 0.61059 0.0
H3639 H 0.72846 0.15385 0.58312 0.0
H3640 H 0.73003 0.21161 0.61596 0.0
H3641 H 0.76691 0.16215 0.64359 0.0
H3642 H 0.76824 0.16739 0.62235 0.0
H3643 H 0.75107 0.15625 0.62976 0.0
C3644 C 0.7551 0.18538 0.57902 0.0
C3645 C 0.74589 0.1717 0.57466 0.0
C3646 C 0.75406 0.19166 0.59471 0.0
C3647 C 0.74397 0.18421 0.6062 0.0
C3648 C 0.73459 0.17074 0.60182 0.0
H3649 H 0.71974 0.22479 0.70141 0.0
H3650 H 0.71755 0.20887 0.67616 0.0
C3651 C 0.73552 0.16453 0.58614 0.0
C3652 C 0.74342 0.19031 0.62292 0.0
H3653 H 0.75568 0.18156 0.6614 0.0
C3654 C 0.73552 0.20505 0.62596 0.0
C3655 C 0.75075 0.18166 0.63575 0.0
C3656 C 0.75984 0.16602 0.6328 0.0
C3657 C 0.73484 0.2115 0.64166 0.0
C3658 C 0.74206 0.20278 0.65455 0.0
C3659 C 0.7499 0.18799 0.65148 0.0
C3660 C 0.74327 0.20984 0.6709 0.0
C3661 C 0.72695 0.22785 0.64426 0.0
C3662 C 0.75849 0.21488 0.67649 0.0
C3663 C 0.75972 0.2238 0.69075 0.0
C3664 C 0.74576 0.22763 0.69964 0.0
C3665 C 0.73061 0.22178 0.69466 0.0
C3666 C 0.72937 0.21285 0.68029 0.0
H3667 H 0.7243 0.23412 0.63263 0.0
H3668 H 0.71536 0.22618 0.65089 0.0
H3669 H 0.73487 0.23581 0.65171 0.0
H3670 H 0.76932 0.21266 0.66937 0.0
H3671 H 0.77147 0.22837 0.69445 0.0
H3672 H 0.58747 0.98314 0.33575 0.0
H3673 H 0.57238 0.98398 0.36127 0.0
H3674 H 0.5399 0.01975 0.34119 0.0
H3675 H 0.55493 0.01891 0.31544 0.0
H3676 H 0.56653 0.0166 0.37909 0.0
H3677 H 0.51169 0.98048 0.36257 0.0
H3678 H 0.53076 0.97753 0.35216 0.0
H3679 H 0.51938 0.99577 0.34887 0.0
C3680 C 0.57696 0.99098 0.33668 0.0
C3681 C 0.57231 0.00093 0.32367 0.0
C3682 C 0.56843 0.99151 0.35124 0.0
C3683 C 0.55507 0.00187 0.35296 0.0
C3684 C 0.55017 0.01164 0.33995 0.0
H3685 H 0.50329 0.00891 0.44613 0.0
H3686 H 0.5095 0.01335 0.41742 0.0
C3687 C 0.55878 0.0112 0.32536 0.0
C3688 C 0.54688 0.00285 0.36875 0.0
H3689 H 0.51508 0.98726 0.39015 0.0
C3690 C 0.55514 0.01046 0.3815 0.0
C3691 C 0.53199 0.99491 0.37167 0.0
C3692 C 0.52284 0.98665 0.35816 0.0
C3693 C 0.54924 0.00961 0.39738 0.0
C3694 C 0.53491 0.00075 0.40048 0.0
C3695 C 0.52612 0.99397 0.38761 0.0
C3696 C 0.53 -0.003 0.41719 0.0
C3697 C 0.55868 0.01764 0.41085 0.0
C3698 C 0.53925 0.986 0.42624 0.0
C3699 C 0.53579 0.98341 0.44256 0.0
C3700 C 0.52299 0.9918 0.45009 0.0
C3701 C 0.51326 0.00228 0.44072 0.0
C3702 C 0.51675 0.00485 0.42434 0.0
H3703 H 0.56723 0.02694 0.40612 0.0
H3704 H 0.55036 0.02347 0.4197 0.0
H3705 H 0.56581 0.00828 0.41739 0.0
H3706 H 0.54945 0.97976 0.42076 0.0
H3707 H 0.54345 0.97517 0.44935 0.0
H3708 H 0.75676 0.80615 0.07593 0.0
H3709 H 0.75505 0.79327 0.10273 0.0
H3710 H 0.72663 0.83366 0.12025 0.0
H3711 H 0.728 0.84632 0.0935 0.0
H3712 H 0.7658 0.80381 0.13129 0.0
H3713 H 0.69931 0.79597 0.13513 0.0
H3714 H 0.70953 0.801 0.11643 0.0
H3715 H 0.70481 0.81663 0.13097 0.0
C3716 C 0.75009 0.81219 0.08551 0.0
C3717 C 0.74233 0.8271 0.08263 0.0
C3718 C 0.74907 0.80483 0.10077 0.0
C3719 C 0.74035 0.81231 0.11337 0.0
C3720 C 0.73292 0.82738 0.11056 0.0
H3721 H 0.75988 0.79473 0.21374 0.0
H3722 H 0.75131 0.8083 0.18881 0.0
C3723 C 0.73378 0.83464 0.09531 0.0
C3724 C 0.73976 0.8049 0.12973 0.0
H3725 H 0.71394 0.79364 0.16021 0.0
C3726 C 0.75446 0.8015 0.13756 0.0
C3727 C 0.72494 0.80161 0.13781 0.0
C3728 C 0.70876 0.80382 0.12958 0.0
C3729 C 0.75476 0.79539 0.15341 0.0
C3730 C 0.73996 0.79308 0.16184 0.0
C3731 C 0.72524 0.7959 0.15386 0.0
C3732 C 0.73985 0.78695 0.17869 0.0
C3733 C 0.77095 0.79127 0.16092 0.0
C3734 C 0.73479 0.77098 0.18184 0.0
C3735 C 0.73934 0.76336 0.19629 0.0
C3736 C 0.7489 0.77167 0.20763 0.0
C3737 C 0.75212 0.78824 0.20535 0.0
C3738 C 0.74747 0.7959 0.19099 0.0
H3739 H 0.78064 0.79006 0.15163 0.0
H3740 H 0.77452 0.8011 0.16941 0.0
H3741 H 0.77023 0.77974 0.16788 0.0
H3742 H 0.72887 0.7639 0.17249 0.0
H3743 H 0.73715 0.75045 0.19762 0.0
H3744 H 0.9095 0.97915 0.65688 0.0
H3745 H 0.92081 0.98132 0.62954 0.0
H3746 H 0.95003 0.02203 0.6447 0.0
H3747 H 0.93916 0.01963 0.67221 0.0
H3748 H 0.91848 0.00811 0.60876 0.0
H3749 H 0.9828 0.9928 0.62168 0.0
H3750 H 0.96664 0.98863 0.63585 0.0
H3751 H 0.97465 0.00886 0.63397 0.0
C3752 C 0.91858 0.98836 0.65451 0.0
C3753 C 0.92342 -0.00078 0.66675 0.0
C3754 C 0.92491 0.98968 0.63883 0.0
C3755 C 0.93629 0.00181 0.63509 0.0
C3756 C 0.94139 0.01248 0.64734 0.0
H3757 H 0.99168 0.01464 0.54629 0.0
H3758 H 0.97605 0.0237 0.56996 0.0
C3759 C 0.93506 0.01117 0.66303 0.0
C3760 C 0.94239 0.00356 0.61824 0.0
H3761 H 0.97665 0.00132 0.59513 0.0
C3762 C 0.93122 0.00672 0.60577 0.0
C3763 C 0.95901 0.00181 0.61438 0.0
C3764 C 0.97148 -0.0023 0.62712 0.0
C3765 C 0.93619 0.00795 0.58951 0.0
C3766 C 0.95276 0.00587 0.58562 0.0
C3767 C 0.96398 0.00318 0.59815 0.0
C3768 C 0.95858 0.0041 0.56867 0.0
C3769 C 0.92366 0.01128 0.57663 0.0
C3770 C 0.95331 0.99075 0.5595 0.0
C3771 C 0.96223 0.98561 0.54605 0.0
C3772 C 0.97644 0.99381 0.54151 0.0
C3773 C 0.98057 0.00832 0.5494 0.0
C3774 C 0.97174 0.01339 0.56302 0.0
H3775 H 0.91307 0.0179 0.58171 0.0
H3776 H 0.92885 0.01848 0.56649 0.0
H3777 H 0.91922 -0.00044 0.57169 0.0
H3778 H 0.94338 0.98323 0.56372 0.0
H3779 H 0.95901 0.97422 0.54029 0.0
H3780 H 0.72648 0.18999 0.42776 0.0
H3781 H 0.72486 0.20521 0.40224 0.0
H3782 H 0.77105 0.18549 0.38754 0.0
H3783 H 0.77253 0.16987 0.41262 0.0
H3784 H 0.74738 0.22824 0.38744 0.0
H3785 H 0.73875 0.17191 0.35152 0.0
H3786 H 0.73619 0.17249 0.37327 0.0
H3787 H 0.75616 0.17118 0.36455 0.0
C3788 C 0.73626 0.1889 0.41905 0.0
C3789 C 0.74956 0.17865 0.42209 0.0
C3790 C 0.73536 0.19767 0.4046 0.0
C3791 C 0.74772 0.19622 0.39303 0.0
C3792 C 0.76131 0.18655 0.39631 0.0
H3793 H 0.78183 0.22418 0.30313 0.0
H3794 H 0.77668 0.21845 0.3317 0.0
C3795 C 0.7622 0.17776 0.41069 0.0
C3796 C 0.74628 0.20419 0.37716 0.0
H3797 H 0.74658 0.19571 0.33677 0.0
C3798 C 0.7469 0.22121 0.37632 0.0
C3799 C 0.74544 0.19489 0.36279 0.0
C3800 C 0.74393 0.17661 0.36304 0.0
C3801 C 0.74783 0.22914 0.36129 0.0
C3802 C 0.74808 0.21973 0.34702 0.0
C3803 C 0.74648 0.20281 0.34786 0.0
C3804 C 0.7518 0.22674 0.33111 0.0
C3805 C 0.74939 0.24737 0.36065 0.0
C3806 C 0.73958 0.23375 0.32162 0.0
C3807 C 0.74251 0.23711 0.30526 0.0
C3808 C 0.75759 0.23319 0.29831 0.0
C3809 C 0.77005 0.2271 0.30816 0.0
C3810 C 0.76717 0.22394 0.32446 0.0
H3811 H 0.74873 0.25298 0.37289 0.0
H3812 H 0.76113 0.25071 0.35494 0.0
H3813 H 0.73958 0.2525 0.35299 0.0
H3814 H 0.72759 0.23578 0.32661 0.0
H3815 H 0.73272 0.24177 0.29787 0.0
H3816 H 0.55668 0.01703 0.17708 0.0
H3817 H 0.54555 0.0196 0.14966 0.0
H3818 H 0.58281 0.98762 0.13147 0.0
H3819 H 0.59388 0.98489 0.1588 0.0
H3820 H 0.56198 0.03201 0.12303 0.0
H3821 H 0.54184 0.96865 0.11161 0.0
H3822 H 0.5466 0.97606 0.13164 0.0
H3823 H 0.56258 0.97028 0.11797 0.0
C3824 C 0.56236 0.01043 0.16723 0.0
C3825 C 0.5761 0.00074 0.17002 0.0
C3826 C 0.55601 0.0119 0.15163 0.0
C3827 C 0.56331 0.0037 0.1386 0.0
C3828 C 0.57683 0.99377 0.14142 0.0
H3829 H 0.53726 -0.00142 0.03675 0.0
H3830 H 0.55472 0.00011 0.06073 0.0
C3831 C 0.58312 0.99222 0.15702 0.0
C3832 C 0.55735 0.00626 0.12193 0.0
H3833 H 0.54158 0.98659 0.08919 0.0
C3834 C 0.55752 0.02209 0.1156 0.0
C3835 C 0.55164 0.99326 0.1123 0.0
C3836 C 0.55049 0.97613 0.11875 0.0
C3837 C 0.55204 0.0253 0.09984 0.0
C3838 C 0.54621 0.01233 0.09027 0.0
C3839 C 0.54633 -0.00354 0.0965 0.0
C3840 C 0.53808 0.01499 0.07457 0.0
C3841 C 0.55244 0.04252 0.09359 0.0
C3842 C 0.52331 0.0234 0.07426 0.0
C3843 C 0.51336 0.0225 0.06065 0.0
C3844 C 0.51805 0.01318 0.04716 0.0
C3845 C 0.53347 0.00598 0.04692 0.0
C3846 C 0.54339 0.00677 0.06063 0.0
H3847 H 0.56163 0.04994 0.1001 0.0
H3848 H 0.55514 0.04284 0.0804 0.0
H3849 H 0.54041 0.04822 0.09558 0.0
H3850 H 0.51887 0.02959 0.08498 0.0
H3851 H 0.50153 0.02822 0.06109 0.0
H3852 H 0.72123 0.81396 0.92854 0.0
H3853 H 0.71924 0.80329 0.90089 0.0
H3854 H 0.76514 0.82537 0.88893 0.0
H3855 H 0.76709 0.83641 0.91634 0.0
H3856 H 0.71992 0.82325 0.87154 0.0
H3857 H 0.76908 0.77705 0.87396 0.0
H3858 H 0.75952 0.78513 0.89195 0.0
H3859 H 0.77444 0.79691 0.8813 0.0
C3860 C 0.7309 0.81655 0.92003 0.0
C3861 C 0.74431 0.82606 0.92464 0.0
C3862 C 0.72976 0.81041 0.90428 0.0
C3863 C 0.74207 0.81354 0.89297 0.0
C3864 C 0.75562 0.82269 0.8976 0.0
H3865 H 0.75665 0.78694 0.79249 0.0
H3866 H 0.75573 0.80357 0.81716 0.0
C3867 C 0.75674 0.8289 0.91329 0.0
C3868 C 0.74048 0.80777 0.87612 0.0
H3869 H 0.75749 0.78234 0.84828 0.0
C3870 C 0.72809 0.81429 0.86642 0.0
C3871 C 0.75121 0.79612 0.86957 0.0
C3872 C 0.76425 0.78826 0.87973 0.0
C3873 C 0.72623 0.80946 0.85021 0.0
C3874 C 0.737 0.79787 0.84369 0.0
C3875 C 0.74942 0.79142 0.85335 0.0
C3876 C 0.73495 0.79114 0.82728 0.0
C3877 C 0.71285 0.81671 0.84009 0.0
C3878 C 0.7232 0.77912 0.82469 0.0
C3879 C 0.7238 0.76957 0.81073 0.0
C3880 C 0.73601 0.7721 0.79914 0.0
C3881 C 0.7469 0.78506 0.80109 0.0
C3882 C 0.74646 0.79446 0.81519 0.0
H3883 H 0.70693 0.82716 0.84623 0.0
H3884 H 0.71772 0.82079 0.82821 0.0
H3885 H 0.70353 0.80729 0.83768 0.0
H3886 H 0.71436 0.77631 0.834 0.0
H3887 H 0.71537 0.75955 0.80948 0.0
H3888 H 0.83655 0.89738 0.01876 0.0
H3889 H 0.86447 0.90735 0.02032 0.0
H3890 H 0.85034 0.95132 0.99567 0.0
H3891 H 0.82226 0.94143 0.9941 0.0
H3892 H 0.88518 0.91952 0.99169 0.0
H3893 H 0.8727 0.96412 0.04096 0.0
H3894 H 0.85964 0.9469 0.03715 0.0
H3895 H 0.85914 0.96416 0.02386 0.0
C3896 C 0.83937 0.90922 0.01377 0.0
C3897 C 0.82725 0.91873 0.00646 0.0
C3898 C 0.85531 0.91482 0.01456 0.0
C3899 C 0.85934 0.93005 0.00819 0.0
C3900 C 0.84735 0.93954 0.00071 0.0
H3901 H 0.93426 0.99401 0.99399 0.0
H3902 H 0.91114 0.97595 0.99478 0.0
C3903 C 0.83139 0.93388 -0.00022 0.0
C3904 C 0.87608 0.93615 0.0097 0.0
H3905 H 0.89874 0.96489 0.0289 0.0
C3906 C 0.88827 0.92926 -1e-05 0.0
C3907 C 0.87993 0.9488 0.02058 0.0
C3908 C 0.86723 0.95642 0.03134 0.0
C3909 C 0.90418 0.93533 0.00037 0.0
C3910 C 0.90791 0.94828 0.01092 0.0
C3911 C 0.89585 0.9547 0.02108 0.0
C3912 C 0.92304 0.95764 0.00927 0.0
C3913 C 0.91671 0.9286 0.98886 0.0
C3914 C 0.9376 0.95303 0.01687 0.0
C3915 C 0.95112 0.96347 0.01643 0.0
C3916 C 0.94987 0.97861 0.00866 0.0
C3917 C 0.93545 0.98263 0.00051 0.0
C3918 C 0.92223 0.97229 0.00081 0.0
H3919 H 0.91209 0.91803 0.98188 0.0
H3920 H 0.92047 0.93823 0.9802 0.0
H3921 H 0.92766 0.92484 -0.00428 0.0
H3922 H 0.93834 0.94166 0.02344 0.0
H3923 H 0.96219 0.96004 0.02259 0.0
H3924 H 0.33692 0.58407 0.97708 0.0
H3925 H 0.36221 0.56872 0.97737 0.0
H3926 H 0.34614 0.54253 0.01975 0.0
H3927 H 0.32046 0.55762 0.01932 0.0
H3928 H 0.38398 0.56857 0.00488 0.0
H3929 H 0.36247 0.50682 0.98713 0.0
H3930 H 0.35074 0.5249 0.98304 0.0
H3931 H 0.35203 0.51717 0.00332 0.0
C3932 C 0.33861 0.57484 0.98629 0.0
C3933 C 0.32672 0.57197 -0.00186 0.0
C3934 C 0.35308 0.56616 0.98648 0.0
C3935 C 0.35589 0.55446 -0.00151 0.0
C3936 C 0.34403 0.55141 0.01029 0.0
H3937 H 0.44884 0.50324 0.00804 0.0
H3938 H 0.42039 0.51057 0.01267 0.0
C3939 C 0.3295 0.56012 0.01011 0.0
C3940 C 0.37171 0.54624 -0.00103 0.0
H3941 H 0.39067 0.51044 0.99022 0.0
C3942 C 0.38545 0.55581 0.00189 0.0
C3943 C 0.37346 0.52959 0.99518 0.0
C3944 C 0.35894 0.51895 0.9919 0.0
C3945 C 0.40103 0.54931 0.00045 0.0
C3946 C 0.40283 0.5329 -0.00422 0.0
C3947 C 0.38912 0.52306 0.9937 0.0
C3948 C 0.41892 0.52635 0.99177 0.0
C3949 C 0.41548 0.56018 0.00345 0.0
C3950 C 0.42711 0.53232 0.97813 0.0
C3951 C 0.44329 0.52832 0.97554 0.0
C3952 C 0.45153 0.5182 0.98653 0.0
C3953 C 0.44288 0.51122 -0.00051 0.0
C3954 C 0.42665 0.51534 0.00214 0.0
H3955 H 0.41215 0.57104 0.01073 0.0
H3956 H 0.42526 0.55348 0.00984 0.0
H3957 H 0.42036 0.56443 0.99164 0.0
H3958 H 0.42118 0.54068 0.9699 0.0
H3959 H 0.4495 0.53369 0.96527 0.0
H3960 H 0.19188 0.57346 0.7595 0.0
H3961 H 0.20265 0.60124 0.7587 0.0
H3962 H 0.16571 0.61468 0.72423 0.0
H3963 H 0.15468 0.58716 0.72522 0.0
H3964 H 0.21405 0.61883 0.73144 0.0
H3965 H 0.16147 0.64879 0.76093 0.0
H3966 H 0.16505 0.62717 0.76203 0.0
H3967 H 0.15619 0.6359 0.74414 0.0
C3968 C 0.18603 0.58238 0.75182 0.0
C3969 C 0.17244 0.57818 0.74243 0.0
C3970 C 0.1922 0.59818 0.75134 0.0
C3971 C 0.18478 0.60999 0.7416 0.0
C3972 C 0.17141 0.60576 0.73202 0.0
H3973 H 0.23181 0.69953 0.71237 0.0
H3974 H 0.21546 0.6746 0.71199 0.0
C3975 C 0.16527 0.59 0.73245 0.0
C3976 C 0.19116 0.62672 0.74115 0.0
H3977 H 0.18093 0.66618 0.74857 0.0
C3978 C 0.20687 0.62921 0.73521 0.0
C3979 C 0.18179 0.64011 0.74637 0.0
C3980 C 0.16524 0.63791 0.75388 0.0
C3981 C 0.21343 0.64486 0.73406 0.0
C3982 C 0.20376 0.6584 0.73851 0.0
C3983 C 0.18815 0.65584 0.74479 0.0
C3984 C 0.21014 0.67518 0.73772 0.0
C3985 C 0.23081 0.64665 0.72851 0.0
C3986 C 0.21114 0.68451 0.75193 0.0
C3987 C 0.21984 0.69905 0.75196 0.0
C3988 C 0.22776 0.70426 0.73784 0.0
C3989 C 0.22567 0.69568 0.72333 0.0
C3990 C 0.21658 0.68137 0.7232 0.0
H3991 H 0.23768 0.63512 0.72988 0.0
H3992 H 0.23101 0.65 0.71548 0.0
H3993 H 0.23717 0.65628 0.73547 0.0
H3994 H 0.20618 0.68002 0.76324 0.0
H3995 H 0.22158 0.70544 0.76333 0.0
H3996 H 0.17446 0.44606 0.51474 0.0
H3997 H 0.14758 0.45869 0.5169 0.0
H3998 H 0.12601 0.41652 0.49464 0.0
H3999 H 0.15277 0.4038 0.49247 0.0
H4000 H 0.12384 0.46387 0.4897 0.0
H4001 H 0.10138 0.42414 0.53939 0.0
H4002 H 0.12272 0.42726 0.5354 0.0
H4003 H 0.11108 0.41399 0.52265 0.0
C4004 C 0.16397 0.43949 0.51032 0.0
C4005 C 0.16568 0.42392 0.5035 0.0
C4006 C 0.14867 0.44672 0.51155 0.0
C4007 C 0.13485 0.43839 0.50619 0.0
C4008 C 0.13655 0.42301 0.49905 0.0
H4009 H 0.03671 0.45352 0.48499 0.0
H4010 H 0.06214 0.44201 0.49506 0.0
C4011 C 0.15184 0.41585 0.49768 0.0
C4012 C 0.1186 0.44579 0.50778 0.0
H4013 H 0.08178 0.44073 0.52615 0.0
C4014 C 0.1147 0.45902 0.49784 0.0
C4015 C 0.10677 0.43935 0.51841 0.0
C4016 C 0.11065 0.42547 0.5297 0.0
C4017 C 0.09899 0.46555 0.49773 0.0
C4018 C 0.08701 0.45886 0.50809 0.0
C4019 C 0.09104 0.44591 0.51836 0.0
C4020 C 0.0699 0.46413 0.5069 0.0
C4021 C 0.09508 0.47905 0.48596 0.0
C4022 C 0.06536 0.47997 0.5113 0.0
C4023 C 0.05072 0.48647 0.50572 0.0
C4024 C 0.04054 0.47716 0.49577 0.0
C4025 C 0.04427 0.46078 0.49293 0.0
C4026 C 0.05883 0.45426 0.49857 0.0
H4027 H 0.1051 0.48125 0.47721 0.0
H4028 H 0.08391 0.47613 0.47904 0.0
H4029 H 0.09285 0.49046 0.49277 0.0
H4030 H 0.07375 0.48774 0.51778 0.0
H4031 H 0.04822 0.49924 0.50773 0.0
H4032 H 0.84168 0.90709 0.7296 0.0
H4033 H 0.83012 0.8798 0.73206 0.0
H4034 H 0.80011 0.89603 0.77173 0.0
H4035 H 0.81124 0.92345 0.76905 0.0
H4036 H 0.83132 0.85929 0.75934 0.0
H4037 H 0.76783 0.87326 0.74174 0.0
H4038 H 0.7844 0.88705 0.73787 0.0
H4039 H 0.77564 0.88574 0.7578 0.0
C4040 C 0.8324 0.90494 0.73865 0.0
C4041 C 0.82737 0.91746 0.74913 0.0
C4042 C 0.82593 0.8893 0.74014 0.0
C4043 C 0.81423 0.88591 0.75204 0.0
C4044 C 0.80901 0.89842 0.76236 0.0
H4045 H 0.75582 0.79958 0.76561 0.0
H4046 H 0.7721 0.8229 0.77436 0.0
C4047 C 0.81547 0.91405 0.76089 0.0
C4048 C 0.80777 0.86919 0.75389 0.0
H4049 H 0.77306 0.84682 0.7513 0.0
C4050 C 0.81857 0.85654 0.75766 0.0
C4051 C 0.79113 0.86566 0.75173 0.0
C4052 C 0.77908 0.87859 0.74692 0.0
C4053 C 0.81318 0.84041 0.75922 0.0
C4054 C 0.79658 0.83685 0.75683 0.0
C4055 C 0.78575 0.84958 0.75341 0.0
C4056 C 0.79031 0.81999 0.75565 0.0
C4057 C 0.8253 0.82732 0.7633 0.0
C4058 C 0.79574 0.80999 0.74297 0.0
C4059 C 0.78652 0.79662 0.73813 0.0
C4060 C 0.77183 0.79303 0.74593 0.0
C4061 C 0.76738 0.80184 0.75977 0.0
C4062 C 0.77657 0.81529 0.76461 0.0
H4063 H 0.83581 0.83237 0.77005 0.0
H4064 H 0.81968 0.81751 0.77064 0.0
H4065 H 0.82997 0.82191 0.75189 0.0
H4066 H 0.80609 0.81349 0.73568 0.0
H4067 H 0.78996 0.79016 0.72719 0.0
H4068 H 0.66601 0.08394 0.4746 0.0
H4069 H 0.63806 0.07434 0.47676 0.0
H4070 H 0.64812 0.05486 0.5242 0.0
H4071 H 0.67634 0.06389 0.52199 0.0
H4072 H 0.62636 0.03809 0.48852 0.0
H4073 H 0.60904 0.09279 0.52449 0.0
H4074 H 0.62554 0.09314 0.51005 0.0
H4075 H 0.62792 0.08266 0.52894 0.0
C4076 C 0.66245 0.07725 0.48534 0.0
C4077 C 0.6734 0.07478 0.49819 0.0
C4078 C 0.64644 0.0719 0.48658 0.0
C4079 C 0.64112 0.06413 0.5007 0.0
C4080 C 0.65209 0.06101 0.51328 0.0
H4081 H 0.55513 0.01843 0.5329 0.0
H4082 H 0.58018 0.03433 0.53187 0.0
C4083 C 0.66814 0.06625 0.51202 0.0
C4084 C 0.62388 0.05995 0.50259 0.0
H4085 H 0.58872 0.07296 0.52023 0.0
C4086 C 0.61808 0.04572 0.49535 0.0
C4087 C 0.61325 0.07004 0.51149 0.0
C4088 C 0.61912 0.08558 0.51919 0.0
C4089 C 0.60181 0.04113 0.49706 0.0
C4090 C 0.59118 0.05113 0.50611 0.0
C4091 C 0.59694 0.06546 0.51321 0.0
C4092 C 0.57436 0.046 0.50913 0.0
C4093 C 0.59607 0.02544 0.48951 0.0
C4094 C 0.56244 0.04826 0.49721 0.0
C4095 C 0.54798 0.03941 0.49794 0.0
C4096 C 0.54556 0.02808 0.51043 0.0
C4097 C 0.55676 0.02719 0.52321 0.0
C4098 C 0.57106 0.03619 0.52261 0.0
H4099 H 0.60598 0.01885 0.48317 0.0
H4100 H 0.59094 0.01737 0.49901 0.0
H4101 H 0.58626 0.02801 0.48066 0.0
H4102 H 0.5649 0.05576 0.4867 0.0
H4103 H 0.53961 0.04008 0.48783 0.0
H4104 H 0.1988 0.43355 0.73608 0.0
H4105 H 0.21484 0.40837 0.73621 0.0
H4106 H 0.1769 0.38425 0.763 0.0
H4107 H 0.16084 0.40927 0.76295 0.0
H4108 H 0.22042 0.38601 0.76999 0.0
H4109 H 0.19001 0.35985 0.71561 0.0
H4110 H 0.19238 0.3815 0.71849 0.0
H4111 H 0.17759 0.37055 0.7301 0.0
C4112 C 0.19394 0.42284 0.742 0.0
C4113 C 0.17863 0.42326 0.74951 0.0
C4114 C 0.2031 0.40858 0.74211 0.0
C4115 C 0.19694 0.39461 0.74958 0.0
C4116 C 0.18177 0.39502 0.75722 0.0
H4117 H 0.20813 0.29907 0.7757 0.0
H4118 H 0.20353 0.32804 0.77193 0.0
C4119 C 0.17268 0.40928 0.75724 0.0
C4120 C 0.20606 0.37932 0.74925 0.0
H4121 H 0.20558 0.34182 0.73181 0.0
C4122 C 0.21753 0.37643 0.76144 0.0
C4123 C 0.20213 0.367 0.73803 0.0
C4124 C 0.18992 0.3698 0.72472 0.0
C4125 C 0.22451 0.36102 0.76327 0.0
C4126 C 0.21987 0.34845 0.75262 0.0
C4127 C 0.20913 0.35162 0.73986 0.0
C4128 C 0.22404 0.33146 0.75596 0.0
C4129 C 0.23609 0.35791 0.77705 0.0
C4130 C 0.23723 0.324 0.74829 0.0
C4131 C 0.23996 0.30738 0.7504 0.0
C4132 C 0.22941 0.29806 0.76011 0.0
C4133 C 0.21649 0.30583 0.76814 0.0
C4134 C 0.21384 0.32238 0.76604 0.0
H4135 H 0.23984 0.36933 0.78318 0.0
H4136 H 0.23019 0.34986 0.78611 0.0
H4137 H 0.24706 0.35153 0.7725 0.0
H4138 H 0.24514 0.33095 0.74041 0.0
H4139 H 0.25001 0.30178 0.74405 0.0
H4140 H 0.30457 0.56947 0.23696 0.0
H4141 H 0.29275 0.5967 0.23422 0.0
H4142 H 0.33628 0.61781 0.254 0.0
H4143 H 0.3482 0.59067 0.25679 0.0
H4144 H 0.29103 0.62222 0.26248 0.0
H4145 H 0.32542 0.64025 0.20716 0.0
H4146 H 0.32101 0.61927 0.21197 0.0
H4147 H 0.33626 0.62999 0.22316 0.0
C4148 C 0.31161 0.57993 0.24071 0.0
C4149 C 0.32732 0.57796 0.24706 0.0
C4150 C 0.30485 0.59543 0.23915 0.0
C4151 C 0.31377 0.6092 0.24369 0.0
C4152 C 0.32932 0.60729 0.25027 0.0
H4153 H 0.29383 0.70873 0.26072 0.0
H4154 H 0.30797 0.68404 0.25209 0.0
C4155 C 0.33603 0.5918 0.25199 0.0
C4156 C 0.3067 0.62559 0.2419 0.0
H4157 H 0.30917 0.66052 0.21957 0.0
C4158 C 0.29487 0.63056 0.25304 0.0
C4159 C 0.31183 0.63637 0.22957 0.0
C4160 C 0.32427 0.63128 0.21717 0.0
C4161 C 0.28825 0.64623 0.25238 0.0
C4162 C 0.29346 0.6571 0.24012 0.0
C4163 C 0.30518 0.6521 0.22886 0.0
C4164 C 0.28722 0.67392 0.23968 0.0
C4165 C 0.27599 0.65127 0.26503 0.0
C4166 C 0.27132 0.67689 0.2344 0.0
C4167 C 0.26331 0.69109 0.23916 0.0
C4168 C 0.27115 0.70235 0.24924 0.0
C4169 C 0.28768 0.70034 0.25267 0.0
C4170 C 0.29572 0.68618 0.24787 0.0
H4171 H 0.27434 0.64188 0.27457 0.0
H4172 H 0.27982 0.66279 0.2709 0.0
H4173 H 0.2641 0.65347 0.25914 0.0
H4174 H 0.26458 0.66751 0.22812 0.0
H4175 H 0.25046 0.69226 0.23668 0.0
H4176 H 0.49227 0.67873 0.5485 0.0
H4177 H 0.49429 0.65172 0.53593 0.0
H4178 H 0.51812 0.63346 0.5787 0.0
H4179 H 0.51608 0.66026 0.59136 0.0
H4180 H 0.52686 0.62981 0.53352 0.0
H4181 H 0.47422 0.60551 0.56832 0.0
H4182 H 0.47638 0.62686 0.56374 0.0
H4183 H 0.48881 0.61774 0.57905 0.0
C4184 C 0.49794 0.66895 0.5552 0.0
C4185 C 0.50406 0.67164 0.57091 0.0
C4186 C 0.49919 0.6536 0.54797 0.0
C4187 C 0.50642 0.64068 0.5564 0.0
C4188 C 0.5126 0.64333 0.57199 0.0
H4189 H 0.49883 0.53744 0.53995 0.0
H4190 H 0.5096 0.56287 0.55106 0.0
C4191 C 0.51146 0.65866 0.57917 0.0
C4192 C 0.50686 0.62417 0.54933 0.0
H4193 H 0.48846 0.58718 0.55186 0.0
C4194 C 0.51852 0.62042 0.5375 0.0
C4195 C 0.49601 0.61203 0.55465 0.0
C4196 C 0.48305 0.61563 0.56708 0.0
C4197 C 0.51966 0.60469 0.53089 0.0
C4198 C 0.50868 0.59253 0.53613 0.0
C4199 C 0.49708 0.59638 0.54803 0.0
C4200 C 0.5077 0.57619 0.52849 0.0
C4201 C 0.53269 0.60124 0.51851 0.0
C4202 C 0.50411 0.57489 0.5119 0.0
C4203 C 0.49834 0.56027 0.50555 0.0
C4204 C 0.49598 0.54676 0.51567 0.0
C4205 C 0.50107 0.54752 0.53184 0.0
C4206 C 0.50698 0.56214 0.53821 0.0
H4207 H 0.54325 0.60947 0.52012 0.0
H4208 H 0.53695 0.58847 0.51924 0.0
H4209 H 0.52773 0.60338 0.50618 0.0
H4210 H 0.50418 0.58554 0.50419 0.0
H4211 H 0.49411 0.56003 0.49312 0.0
H4212 H 0.58725 0.27081 0.83213 0.0
H4213 H 0.61163 0.27115 0.81523 0.0
H4214 H 0.59562 0.22749 0.79111 0.0
H4215 H 0.57093 0.2274 0.80751 0.0
H4216 H 0.63489 0.2474 0.81399 0.0
H4217 H 0.60787 0.25677 0.75315 0.0
H4218 H 0.59676 0.26036 0.7717 0.0
H4219 H 0.5991 0.24003 0.76404 0.0
C4220 C 0.58878 0.26146 0.82302 0.0
C4221 C 0.57716 0.24911 0.82109 0.0
C4222 C 0.60273 0.26163 0.81344 0.0
C4223 C 0.60524 0.24952 0.80174 0.0
C4224 C 0.5937 0.23716 0.79982 0.0
H4225 H 0.68972 0.21274 0.75557 0.0
H4226 H 0.66164 0.21805 0.76371 0.0
C4227 C 0.57973 0.23699 0.80935 0.0
C4228 C 0.62044 0.24916 0.79232 0.0
H4229 H 0.63562 0.24807 0.75377 0.0
C4230 C 0.63508 0.24775 0.80083 0.0
C4231 C 0.62057 0.24964 0.77516 0.0
C4232 C 0.60525 0.25194 0.76547 0.0
C4233 C 0.64985 0.2463 0.79262 0.0
C4234 C 0.64992 0.24632 0.77549 0.0
C4235 C 0.63538 0.24803 0.76692 0.0
C4236 C 0.66514 0.24393 0.76653 0.0
C4237 C 0.6653 0.24438 0.80224 0.0
C4238 C 0.67599 0.2569 0.76472 0.0
C4239 C 0.69197 0.25391 0.76001 0.0
C4240 C 0.69723 0.23794 0.75717 0.0
C4241 C 0.68592 0.22517 0.75764 0.0
C4242 C 0.66992 0.22817 0.76227 0.0
H4243 H 0.66303 0.24378 0.81551 0.0
H4244 H 0.67172 0.23315 0.79844 0.0
H4245 H 0.67349 0.2548 0.79975 0.0
H4246 H 0.67246 0.2691 0.76815 0.0
H4247 H 0.70052 0.26386 0.76021 0.0
H4248 H 0.00697 0.32493 0.04942 0.0
H4249 H 0.00503 0.3516 0.03617 0.0
H4250 H 0.97581 0.3693 0.07575 0.0
H4251 H 0.97777 0.34282 0.08914 0.0
H4252 H 0.9685 0.37356 0.03353 0.0
H4253 H 0.02351 0.39685 0.06525 0.0
H4254 H 0.02196 0.37581 0.05924 0.0
H4255 H 0.00976 0.38328 0.07559 0.0
C4256 C 0.00012 0.33451 0.05527 0.0
C4257 C 0.99249 0.33177 0.0703 0.0
C4258 C -0.00107 0.34965 0.04765 0.0
C4259 C 0.99016 0.36228 0.05497 0.0
C4260 C 0.98245 0.35959 0.06987 0.0
H4261 H 0.00148 0.46433 0.03634 0.0
H4262 H 0.99038 0.43962 0.04854 0.0
C4263 C 0.98357 0.34447 0.07746 0.0
C4264 C 0.98985 0.37864 0.04762 0.0
H4265 H 0.00997 0.41475 0.04788 0.0
C4266 C 0.97749 0.38265 0.03664 0.0
C4267 C 0.00155 0.39038 0.05186 0.0
C4268 C 0.01501 0.3865 0.06361 0.0
C4269 C 0.97657 0.39826 0.02972 0.0
C4270 C 0.98844 0.41001 0.03381 0.0
C4271 C 0.00071 0.40588 0.04491 0.0
C4272 C 0.98942 0.42624 0.02595 0.0
C4273 C 0.96284 0.40199 0.01825 0.0
C4274 C 0.99146 0.42736 0.00908 0.0
C4275 C -0.00282 0.44174 0.00211 0.0
C4276 C 0.00108 0.45513 0.0119 0.0
C4277 C -0.00229 0.45451 0.02851 0.0
C4278 C 0.99172 0.44023 0.03549 0.0
H4279 H 0.95206 0.39432 0.02088 0.0
H4280 H 0.95922 0.41497 0.0189 0.0
H4281 H 0.96676 0.39929 0.00566 0.0
H4282 H 0.9902 0.41672 0.00146 0.0
H4283 H 0.00016 0.44182 0.98931 0.0
H4284 H 0.921 0.71918 0.31761 0.0
H4285 H 0.89293 0.72114 0.30783 0.0
H4286 H 0.89346 0.7728 0.3164 0.0
H4287 H 0.92117 0.77099 0.32652 0.0
H4288 H 0.86515 0.74328 0.33004 0.0
H4289 H 0.87881 0.75716 0.26524 0.0
H4290 H 0.89174 0.74409 0.27719 0.0
H4291 H 0.89157 0.76553 0.2809 0.0
C4292 C 0.91511 0.73094 0.3174 0.0
C4293 C 0.92327 0.74494 0.32278 0.0
C4294 C 0.89917 0.73202 0.31182 0.0
C4295 C 0.89131 0.74709 0.31155 0.0
C4296 C 0.89947 0.7611 0.31658 0.0
H4297 H 0.80582 0.78186 0.26544 0.0
H4298 H 0.83058 0.78057 0.28174 0.0
C4299 C 0.91533 0.76004 0.32218 0.0
C4300 C 0.87444 0.74843 0.30619 0.0
H4301 H 0.85164 0.75872 0.27352 0.0
C4302 C 0.86205 0.74658 0.31769 0.0
C4303 C 0.87073 0.75285 0.29014 0.0
C4304 C 0.88384 0.75501 0.27755 0.0
C4305 C 0.84581 0.74945 0.31356 0.0
C4306 C 0.84205 0.75401 0.29745 0.0
C4307 C 0.85455 0.7555 0.28594 0.0
C4308 C 0.82529 0.75682 0.29181 0.0
C4309 C 0.83301 0.74799 0.32656 0.0
C4310 C 0.81367 0.74441 0.29296 0.0
C4311 C 0.79929 0.74547 0.28415 0.0
C4312 C 0.7967 0.75868 0.27374 0.0
C4313 C 0.80768 0.77162 0.27348 0.0
C4314 C 0.8218 0.77082 0.2827 0.0
H4315 H 0.83823 0.74991 0.33883 0.0
H4316 H 0.82304 0.75685 0.32469 0.0
H4317 H 0.82782 0.73555 0.32627 0.0
H4318 H 0.81622 0.73334 0.29957 0.0
H4319 H 0.79098 0.73526 0.28425 0.0
H4320 H 0.48423 0.33696 0.89685 0.0
H4321 H 0.48433 0.36539 0.9053 0.0
H4322 H 0.51213 0.35267 0.94776 0.0
H4323 H 0.51229 0.32413 0.93917 0.0
H4324 H 0.47162 0.37804 0.93261 0.0
H4325 H 0.53751 0.39098 0.93007 0.0
H4326 H 0.52871 0.37304 0.92103 0.0
H4327 H 0.53279 0.3737 0.94246 0.0
C4328 C 0.49031 0.34024 0.90802 0.0
C4329 C 0.49818 0.32841 0.91744 0.0
C4330 C 0.49047 0.35647 0.91275 0.0
C4331 C 0.49848 0.36115 0.92697 0.0
C4332 C 0.50626 0.34935 0.9365 0.0
H4333 H 0.49852 0.43072 -0.00336 0.0
H4334 H 0.50014 0.40872 0.97732 0.0
C4335 C 0.50624 0.33308 0.93168 0.0
C4336 C 0.49775 0.37824 0.93233 0.0
H4337 H 0.52109 0.40985 0.94534 0.0
C4338 C 0.48242 0.38516 0.93502 0.0
C4339 C 0.51188 0.38749 0.93534 0.0
C4340 C 0.52865 0.38098 0.93192 0.0
C4341 C 0.48087 0.40072 0.94168 0.0
C4342 C 0.49498 0.40954 0.94559 0.0
C4343 C 0.5103 0.40304 0.94208 0.0
C4344 C 0.4941 0.42356 0.95658 0.0
C4345 C 0.46422 0.40723 0.94563 0.0
C4346 C 0.49001 0.43922 0.9512 0.0
C4347 C 0.48908 0.45207 0.96234 0.0
C4348 C 0.492 0.44921 0.9789 0.0
C4349 C 0.49587 0.43338 0.98405 0.0
C4350 C 0.497 0.42076 0.97301 0.0
H4351 H 0.45441 0.39898 0.94147 0.0
H4352 H 0.46305 0.40893 0.95894 0.0
H4353 H 0.46257 0.41929 0.93983 0.0
H4354 H 0.48765 0.44146 0.93847 0.0
H4355 H 0.48613 0.46415 0.95806 0.0
H4356 H 0.92564 0.24565 0.1904 0.0
H4357 H 0.89912 0.24812 0.2038 0.0
H4358 H 0.87983 0.27182 0.16141 0.0
H4359 H 0.90618 0.26935 0.14791 0.0
H4360 H 0.87739 0.28323 0.20419 0.0
H4361 H 0.85233 0.22673 0.17652 0.0
H4362 H 0.87364 0.22866 0.1812 0.0
H4363 H 0.8652 0.23987 0.16462 0.0
C4364 C 0.91573 0.25135 0.18393 0.0
C4365 C 0.918 0.25735 0.16811 0.0
C4366 C 0.90066 0.25285 0.19164 0.0
C4367 C 0.88762 0.26024 0.18359 0.0
C4368 C 0.88982 0.26621 0.16783 0.0
H4369 H 0.78634 0.25106 0.20979 0.0
H4370 H 0.80989 0.2616 0.19489 0.0
C4371 C 0.90488 0.26481 0.16017 0.0
C4372 C 0.87149 0.26125 0.19137 0.0
H4373 H 0.83525 0.24152 0.19377 0.0
C4374 C 0.8681 0.27419 0.2019 0.0
C4375 C 0.85944 0.24951 0.18819 0.0
C4376 C 0.8627 0.23533 0.17705 0.0
C4377 C 0.85289 0.27561 0.20952 0.0
C4378 C 0.8409 0.26362 0.20663 0.0
C4379 C 0.8443 0.25086 0.19582 0.0
C4380 C 0.82549 0.26278 0.21598 0.0
C4381 C 0.84983 0.2899 0.22055 0.0
C4382 C 0.82609 0.26099 0.23289 0.0
C4383 C 0.81259 0.25526 0.24136 0.0
C4384 C 0.7983 0.25121 0.23307 0.0
C4385 C 0.79709 0.25459 0.21647 0.0
C4386 C 0.81062 0.26038 0.20795 0.0
H4387 H 0.85724 0.30057 0.21688 0.0
H4388 H 0.83684 0.29346 0.22059 0.0
H4389 H 0.85339 0.28661 0.2331 0.0
H4390 H 0.83742 0.26238 0.23936 0.0
H4391 H 0.81387 0.2524 0.25412 0.0
H4392 H 0.97338 0.6746 0.43313 0.0
H4393 H 0.97264 0.64939 0.44897 0.0
H4394 H 0.0232 0.64119 0.43845 0.0
H4395 H 0.02398 0.66594 0.42217 0.0
H4396 H 0.98553 0.61639 0.43352 0.0
H4397 H 0.01432 0.63741 0.49089 0.0
H4398 H 0.00274 0.65081 0.47793 0.0
H4399 H 0.02275 0.64466 0.47205 0.0
C4400 C 0.98432 0.66739 0.43415 0.0
C4401 C -0.00124 0.67225 0.42644 0.0
C4402 C 0.98389 0.65313 0.44329 0.0
C4403 C -0.00208 0.64373 0.44497 0.0
C4404 C 0.01235 0.64856 0.43745 0.0
H4405 H 0.02966 0.55 0.4668 0.0
H4406 H 0.02612 0.57886 0.46084 0.0
C4407 C 0.01277 0.6627 0.42822 0.0
C4408 C -0.0026 0.62815 0.45357 0.0
H4409 H 0.01176 0.60883 0.48718 0.0
C4410 C 0.99093 0.61474 0.4454 0.0
C4411 C 0.0046 0.62622 0.46896 0.0
C4412 C 0.01145 0.64052 0.4781 0.0
C4413 C 0.99213 0.59914 0.452 0.0
C4414 C -0.00013 0.59711 0.46712 0.0
C4415 C 0.00579 0.6106 0.47561 0.0
C4416 C 0.00316 0.58078 0.47337 0.0
C4417 C 0.98587 0.58479 0.44248 0.0
C4418 C 0.99159 0.57267 0.48281 0.0
C4419 C 0.99358 0.5562 0.48629 0.0
C4420 C 0.00706 0.54772 0.48016 0.0
C4421 C 0.01906 0.5562 0.4715 0.0
C4422 C 0.01713 0.57266 0.46817 0.0
H4423 H 0.97931 0.58855 0.43133 0.0
H4424 H -0.00381 0.57688 0.43892 0.0
H4425 H 0.97758 0.57742 0.45014 0.0
H4426 H 0.9807 0.57887 0.48679 0.0
H4427 H 0.98414 0.54993 0.49297 0.0
H4428 H 0.56657 0.76784 0.68974 0.0
H4429 H 0.59175 0.76782 0.70548 0.0
H4430 H 0.61244 0.73278 0.67257 0.0
H4431 H 0.5874 0.7329 0.65661 0.0
H4432 H 0.60913 0.74016 0.72054 0.0
H4433 H 0.64428 0.77251 0.67275 0.0
H4434 H 0.62239 0.77227 0.67308 0.0
H4435 H 0.63339 0.75468 0.66639 0.0
C4436 C 0.5765 0.76017 0.68582 0.0
C4437 C 0.57502 0.75044 0.67187 0.0
C4438 C 0.59081 0.76007 0.6949 0.0
C4439 C 0.60395 0.75036 0.69013 0.0
C4440 C 0.60245 0.74042 0.67639 0.0
H4441 H 0.69683 0.73393 0.73825 0.0
H4442 H 0.66898 0.72988 0.72859 0.0
C4443 C 0.5881 0.74043 0.66735 0.0
C4444 C 0.61944 0.75115 0.69919 0.0
H4445 H 0.65852 0.7644 0.69612 0.0
C4446 C 0.61997 0.7454 0.71523 0.0
C4447 C 0.63348 0.7581 0.69222 0.0
C4448 C 0.63344 0.76487 0.67521 0.0
C4449 C 0.63426 0.74644 0.72449 0.0
C4450 C 0.64827 0.75341 0.7175 0.0
C4451 C 0.64772 0.75906 0.70144 0.0
C4452 C 0.66361 0.75554 0.7266 0.0
C4453 C 0.63423 0.74046 0.74177 0.0
C4454 C 0.66958 0.77127 0.72921 0.0
C4455 C 0.68543 0.77361 0.73464 0.0
C4456 C 0.69562 0.76025 0.73756 0.0
C4457 C 0.6892 0.74446 0.73627 0.0
C4458 C 0.6733 0.74212 0.7307 0.0
H4459 H 0.62179 0.7377 0.74616 0.0
H4460 H 0.6416 0.72921 0.74259 0.0
H4461 H 0.6398 0.74965 0.7499 0.0
H4462 H 0.66227 0.78178 0.72616 0.0
H4463 H 0.69003 0.78591 0.7356 0.0
H4464 H 0.56161 0.47867 0.68092 0.0
H4465 H 0.54592 0.47815 0.65575 0.0
H4466 H 0.57364 0.51863 0.63748 0.0
H4467 H 0.5897 0.51897 0.66241 0.0
H4468 H 0.52687 0.50301 0.64055 0.0
H4469 H 0.57898 0.48313 0.60253 0.0
H4470 H 0.57933 0.48209 0.62439 0.0
H4471 H 0.58234 0.50119 0.61428 0.0
C4472 C 0.56444 0.4874 0.67151 0.0
C4473 C 0.577 0.49879 0.67364 0.0
C4474 C 0.55537 0.48717 0.6572 0.0
C4475 C 0.55872 0.49825 0.64471 0.0
C4476 C 0.57098 0.50987 0.64691 0.0
H4477 H 0.50905 0.51396 0.55276 0.0
H4478 H 0.51837 0.51765 0.58076 0.0
C4479 C 0.58005 0.51012 0.66123 0.0
C4480 C 0.5497 0.49727 0.62921 0.0
H4481 H 0.55439 0.48859 0.589 0.0
C4482 C 0.53286 0.49992 0.62925 0.0
C4483 C 0.55757 0.4931 0.61453 0.0
C4484 C 0.57552 0.48957 0.61385 0.0
C4485 C 0.5237 0.49856 0.61494 0.0
C4486 C 0.5316 0.49441 0.60033 0.0
C4487 C 0.54841 0.49182 0.60028 0.0
C4488 C 0.52272 0.49207 0.58493 0.0
C4489 C 0.50562 0.50118 0.61549 0.0
C4490 C 0.52156 0.47645 0.57828 0.0
C4491 C 0.51623 0.47433 0.56237 0.0
C4492 C 0.51203 0.48782 0.55278 0.0
C4493 C 0.512 0.50335 0.5599 0.0
C4494 C 0.5174 0.50547 0.57586 0.0
H4495 H 0.50111 0.503 0.62806 0.0
H4496 H 0.50245 0.51204 0.60817 0.0
H4497 H 0.49929 0.49059 0.61006 0.0
H4498 H 0.52562 0.46597 0.58512 0.0
H4499 H 0.51631 0.4622 0.55725 0.0
H4500 H 0.77213 0.34835 0.90981 0.0
H4501 H 0.77203 0.33819 0.88192 0.0
H4502 H 0.73943 0.29967 0.89603 0.0
H4503 H 0.73942 0.30981 0.92394 0.0
H4504 H 0.78069 0.30773 0.86992 0.0
H4505 H 0.71602 0.3214 0.85794 0.0
H4506 H 0.72683 0.32976 0.87506 0.0
H4507 H 0.71887 0.30941 0.87588 0.0
C4508 C 0.76509 0.33761 0.90698 0.0
C4509 C 0.75572 0.32987 0.91894 0.0
C4510 C 0.76497 0.33191 0.89107 0.0
C4511 C 0.75544 0.31846 0.88694 0.0
C4512 C 0.7465 0.31037 0.89897 0.0
H4513 H 0.73975 0.24813 0.81819 0.0
H4514 H 0.74232 0.26724 0.84048 0.0
C4515 C 0.74656 0.3161 0.91486 0.0
C4516 C 0.75502 0.31259 0.8701 0.0
H4517 H 0.72889 0.30239 0.83981 0.0
C4518 C 0.76946 0.30687 0.86314 0.0
C4519 C 0.74034 0.31172 0.86132 0.0
C4520 C 0.72467 0.31856 0.86787 0.0
C4521 C 0.76936 0.29914 0.84802 0.0
C4522 C 0.75449 0.29729 0.83978 0.0
C4523 C 0.74024 0.30391 0.84626 0.0
C4524 C 0.75302 0.28627 0.8259 0.0
C4525 C 0.78486 0.29205 0.84138 0.0
C4526 C 0.7582 0.29081 0.81037 0.0
C4527 C 0.75675 0.27989 0.79748 0.0
C4528 C 0.75016 0.26432 0.80008 0.0
C4529 C 0.74497 0.25996 0.81574 0.0
C4530 C 0.74636 0.27086 0.8285 0.0
H4531 H 0.7954 0.29438 0.84944 0.0
H4532 H 0.78348 0.27872 0.83978 0.0
H4533 H 0.78745 0.29735 0.82927 0.0
H4534 H 0.76332 0.30275 0.80826 0.0
H4535 H 0.76078 0.28362 0.78554 0.0
H4536 H 0.91893 0.52449 0.16281 0.0
H4537 H 0.93524 0.52414 0.13807 0.0
H4538 H 0.95511 0.47763 0.15151 0.0
H4539 H 0.93916 0.478 0.17663 0.0
H4540 H 0.97663 0.51148 0.13898 0.0
H4541 H 0.92804 0.48332 0.1012 0.0
H4542 H 0.92267 0.49782 0.11671 0.0
H4543 H 0.93036 0.47829 0.12241 0.0
C4544 C 0.92693 0.51428 0.16065 0.0
C4545 C 0.92784 0.50131 0.17172 0.0
C4546 C 0.93615 0.51409 0.1465 0.0
C4547 C 0.94634 0.50091 0.14316 0.0
C4548 C 0.9473 0.4879 0.15405 0.0
H4549 H 0.98992 0.48563 0.04875 0.0
H4550 H 0.98459 0.48125 0.0776 0.0
C4551 C 0.9381 0.48809 0.16827 0.0
C4552 C 0.95557 0.50066 0.12796 0.0
H4553 H 0.95142 0.49266 0.08769 0.0
C4554 C 0.97128 0.50717 0.12777 0.0
C4555 C 0.94841 0.49505 0.1135 0.0
C4556 C 0.93145 0.48817 0.11331 0.0
C4557 C 0.9799 0.50868 0.11317 0.0
C4558 C 0.97252 0.5035 0.09863 0.0
C4559 C 0.95703 0.49647 0.09896 0.0
C4560 C 0.97981 0.50658 0.08265 0.0
C4561 C -0.00338 0.51606 0.11324 0.0
C4562 C 0.97928 0.52231 0.07618 0.0
C4563 C 0.98217 0.52477 0.0597 0.0
C4564 C 0.98574 0.51153 0.04955 0.0
C4565 C 0.98747 0.496 0.05635 0.0
C4566 C 0.98438 0.4935 0.07279 0.0
H4567 H 0.00177 0.51669 0.12567 0.0
H4568 H 0.00493 0.50891 0.10538 0.0
H4569 H -0.00401 0.52857 0.10826 0.0
H4570 H 0.97553 0.5325 0.08362 0.0
H4571 H 0.98082 0.53689 0.05474 0.0
H4572 H 0.76582 0.69551 0.42811 0.0
H4573 H 0.76831 0.70777 0.40107 0.0
H4574 H 0.74048 0.66826 0.38082 0.0
H4575 H 0.73755 0.65633 0.40779 0.0
H4576 H 0.78222 0.69617 0.3736 0.0
H4577 H 0.71688 0.70689 0.36302 0.0
H4578 H 0.72477 0.70159 0.38271 0.0
H4579 H 0.72075 0.68603 0.36787 0.0
C4580 C 0.76011 0.68959 0.41786 0.0
C4581 C 0.75134 0.6751 0.41998 0.0
C4582 C 0.76158 0.69655 0.40246 0.0
C4583 C 0.75441 0.68904 0.38898 0.0
C4584 C 0.74576 0.67449 0.39111 0.0
H4585 H 0.73893 0.70775 0.28965 0.0
H4586 H 0.74921 0.69292 0.31311 0.0
C4587 C 0.74409 0.66768 0.4065 0.0
C4588 C 0.75609 0.69617 0.37258 0.0
H4589 H 0.73398 0.70789 0.33976 0.0
C4590 C 0.7717 0.69881 0.36618 0.0
C4591 C 0.74234 0.69985 0.36304 0.0
C4592 C 0.72526 0.69862 0.36958 0.0
C4593 C 0.77388 0.70447 0.35023 0.0
C4594 C 0.7601 0.70737 0.34052 0.0
C4595 C 0.74455 0.70514 0.34709 0.0
C4596 C 0.76101 0.71381 0.3238 0.0
C4597 C 0.7908 0.70712 0.34381 0.0
C4598 C 0.76558 0.73005 0.32133 0.0
C4599 C 0.76002 0.73841 0.30767 0.0
C4600 C 0.74979 0.73061 0.29654 0.0
C4601 C 0.74716 0.71386 0.29788 0.0
C4602 C 0.7529 0.70544 0.31138 0.0
H4603 H 0.80004 0.70084 0.35135 0.0
H4604 H 0.79183 0.70277 0.3311 0.0
H4605 H 0.79354 0.72032 0.34391 0.0
H4606 H 0.77164 0.7368 0.33083 0.0
H4607 H 0.76192 0.75142 0.30696 0.0
H4608 H 0.58728 0.51812 0.83814 0.0
H4609 H 0.57386 0.51529 0.86444 0.0
H4610 H 0.55653 0.46783 0.85078 0.0
H4611 H 0.56948 0.4707 0.8242 0.0
H4612 H 0.53858 0.50724 0.8706 0.0
H4613 H 0.58301 0.46267 0.89521 0.0
H4614 H 0.58792 0.47624 0.87869 0.0
H4615 H 0.57497 0.4591 0.87521 0.0
C4616 C 0.58042 0.50717 0.84057 0.0
C4617 C 0.57957 0.4946 0.82902 0.0
C4618 C 0.57285 0.50554 0.85568 0.0
C4619 C 0.56442 0.49127 0.8596 0.0
C4620 C 0.56322 0.47883 0.84805 0.0
H4621 H 0.50077 0.48676 0.9438 0.0
H4622 H 0.51369 0.47748 0.91867 0.0
C4623 C 0.57069 0.48049 0.83289 0.0
C4624 C 0.55692 0.48945 0.87584 0.0
H4625 H 0.56153 0.47048 0.91245 0.0
C4626 C 0.54346 0.49908 0.87971 0.0
C4627 C 0.56346 0.47889 0.88768 0.0
C4628 C 0.5782 0.46865 0.88414 0.0
C4629 C 0.53643 0.49858 0.89521 0.0
C4630 C 0.54297 0.48804 0.90712 0.0
C4631 C 0.55639 0.47832 0.90321 0.0
C4632 C 0.53692 0.48842 0.92406 0.0
C4633 C 0.52244 0.50982 0.89895 0.0
C4634 C 0.54613 0.49635 0.93597 0.0
C4635 C 0.53882 0.50141 0.95042 0.0
C4636 C 0.52227 0.49849 0.95315 0.0
C4637 C 0.51366 0.48875 0.94216 0.0
C4638 C 0.52096 0.48369 0.92768 0.0
H4639 H 0.52053 0.51899 0.88924 0.0
H4640 H 0.51115 0.50258 0.9002 0.0
H4641 H 0.52451 0.51628 0.91058 0.0
H4642 H 0.55846 0.50011 0.93341 0.0
H4643 H 0.54558 0.50924 0.95853 0.0
H4644 H 0.76659 0.34064 0.08685 0.0
H4645 H 0.76639 0.32529 0.11229 0.0
H4646 H 0.73874 0.28719 0.08938 0.0
H4647 H 0.73892 0.30247 0.06382 0.0
H4648 H 0.73392 0.31445 0.12673 0.0
H4649 H 0.77934 0.26565 0.11514 0.0
H4650 H 0.78019 0.28513 0.10504 0.0
H4651 H 0.76506 0.2706 0.09934 0.0
C4652 C 0.76073 0.32886 0.08718 0.0
C4653 C 0.75277 0.32268 0.07347 0.0
C4654 C 0.7606 0.32016 0.10166 0.0
C4655 C 0.75268 0.30513 0.10252 0.0
C4656 C 0.74504 0.29873 0.08877 0.0
H4657 H 0.71889 0.2618 0.19192 0.0
H4658 H 0.72187 0.26823 0.16302 0.0
C4659 C 0.74506 0.30748 0.0743 0.0
C4660 C 0.75122 0.29686 0.11819 0.0
H4661 H 0.76549 0.26491 0.14026 0.0
C4662 C 0.74074 0.30358 0.12972 0.0
C4663 C 0.76027 0.2828 0.12187 0.0
C4664 C 0.77194 0.27557 0.10978 0.0
C4665 C 0.7391 0.29661 0.14508 0.0
C4666 C 0.74801 0.28239 0.14878 0.0
C4667 C 0.75854 0.27568 0.13722 0.0
C4668 C 0.74715 0.27505 0.165 0.0
C4669 C 0.72821 0.30479 0.15736 0.0
C4670 C 0.76066 0.27581 0.17528 0.0
C4671 C 0.75905 0.27184 0.19164 0.0
C4672 C 0.74389 0.26719 0.19779 0.0
C4673 C 0.73066 0.2654 0.1873 0.0
C4674 C 0.73234 0.26909 0.1709 0.0
H4675 H 0.72503 0.31739 0.15372 0.0
H4676 H 0.71678 0.29777 0.15852 0.0
H4677 H 0.7341 0.30519 0.16946 0.0
H4678 H 0.77215 0.28046 0.17089 0.0
H4679 H 0.76928 0.27358 0.19968 0.0
H4680 H 0.91183 0.52479 0.33515 0.0
H4681 H 0.92229 0.52356 0.36275 0.0
H4682 H 0.94828 0.47961 0.35101 0.0
H4683 H 0.93869 0.48129 0.32309 0.0
H4684 H 0.91566 0.50002 0.38394 0.0
H4685 H 0.98214 0.50408 0.37586 0.0
H4686 H 0.96812 0.50904 0.35982 0.0
H4687 H 0.97358 0.48821 0.36369 0.0
C4688 C 0.92019 0.51514 0.33825 0.0
C4689 C 0.92437 0.50309 0.32689 0.0
C4690 C 0.92603 0.51438 0.35411 0.0
C4691 C 0.93611 0.50155 0.35892 0.0
C4692 C 0.94073 0.48979 0.3475 0.0
H4693 H 0.97781 0.46523 0.44626 0.0
H4694 H 0.96247 0.46684 0.42094 0.0
C4695 C 0.93504 0.49063 0.33159 0.0
C4696 C 0.94064 0.49968 0.37617 0.0
H4697 H 0.97283 0.49363 0.40133 0.0
C4698 C 0.92817 0.49877 0.38778 0.0
C4699 C 0.95696 0.49814 0.38114 0.0
C4700 C 0.97096 0.50009 0.36948 0.0
C4701 C 0.93158 0.49582 0.40419 0.0
C4702 C 0.94783 0.49369 0.409 0.0
C4703 C 0.96032 0.49495 0.39748 0.0
C4704 C 0.95249 0.49061 0.426 0.0
C4705 C 0.91781 0.49468 0.41618 0.0
C4706 C 0.95105 0.50299 0.43761 0.0
C4707 C 0.95962 0.50197 0.45218 0.0
C4708 C 0.96976 0.48861 0.45517 0.0
C4709 C 0.96984 0.4755 0.44429 0.0
C4710 C 0.96121 0.47648 0.4298 0.0
H4711 H 0.90589 0.49333 0.41006 0.0
H4712 H 0.91963 0.48426 0.42453 0.0
H4713 H 0.91747 0.50593 0.4236 0.0
H4714 H 0.94462 0.51411 0.43477 0.0
H4715 H 0.95985 0.51245 0.46012 0.0
H4716 H 0.77549 0.65771 0.58496 0.0
H4717 H 0.77626 0.66811 0.61264 0.0
H4718 H 0.73303 0.69609 0.6036 0.0
H4719 H 0.73238 0.68615 0.57559 0.0
H4720 H 0.77594 0.703 0.62334 0.0
H4721 H 0.72374 0.66573 0.64442 0.0
H4722 H 0.7352 0.66085 0.62638 0.0
H4723 H 0.72073 0.67712 0.62604 0.0
C4724 C 0.7663 0.66632 0.5887 0.0
C4725 C 0.75387 0.67111 0.57802 0.0
C4726 C 0.76671 0.67213 0.60457 0.0
C4727 C 0.75461 0.68267 0.61013 0.0
C4728 C 0.74234 0.68776 0.59951 0.0
H4729 H 0.7274 0.73758 0.69038 0.0
H4730 H 0.73001 0.72009 0.66671 0.0
C4731 C 0.74197 0.68203 0.58356 0.0
C4732 C 0.75476 0.68822 0.62712 0.0
H4733 H 0.73367 0.68575 0.66262 0.0
C4734 C 0.76687 0.6991 0.63204 0.0
C4735 C 0.74291 0.68296 0.63833 0.0
C4736 C 0.72995 0.67092 0.63364 0.0
C4737 C 0.76695 0.70556 0.64779 0.0
C4738 C 0.75481 0.70065 0.6589 0.0
C4739 C 0.74307 0.68929 0.65411 0.0
C4740 C 0.75255 0.70916 0.67449 0.0
C4741 C 0.77941 0.71826 0.65215 0.0
C4742 C 0.7641 0.70831 0.687 0.0
C4743 C 0.76255 0.71828 0.70071 0.0
C4744 C 0.74959 0.72928 0.70178 0.0
C4745 C 0.73765 0.72936 0.68966 0.0
C4746 C 0.73907 0.71934 0.67619 0.0
H4747 H 0.78665 0.72219 0.64148 0.0
H4748 H 0.77341 0.72909 0.6575 0.0
H4749 H 0.78782 0.71324 0.66137 0.0
H4750 H 0.7745 0.70036 0.68591 0.0
H4751 H 0.77184 0.71802 0.70999 0.0
H4752 H 0.67369 0.56213 0.51665 0.0
H4753 H 0.64563 0.55225 0.51649 0.0
H4754 H 0.635 0.58292 0.4755 0.0
H4755 H 0.66272 0.59323 0.47581 0.0
H4756 H 0.61612 0.5742 0.51814 0.0
H4757 H 0.61974 0.53529 0.46299 0.0
H4758 H 0.6374 0.54061 0.47479 0.0
H4759 H 0.62832 0.55536 0.46161 0.0
C4760 C 0.66537 0.56681 0.50763 0.0
C4761 C 0.6705 0.57843 0.4962 0.0
C4762 C 0.6494 0.5611 0.50752 0.0
C4763 C 0.63837 0.56681 0.4959 0.0
C4764 C 0.64344 0.57824 0.48441 0.0
H4765 H 0.53889 0.5333 0.4777 0.0
H4766 H 0.56284 0.5513 0.47657 0.0
C4767 C 0.65933 0.58403 0.48457 0.0
C4768 C 0.62136 0.56126 0.49606 0.0
H4769 H 0.59414 0.53803 0.47533 0.0
C4770 C 0.61125 0.56635 0.50876 0.0
C4771 C 0.6151 0.5512 0.48369 0.0
C4772 C 0.62566 0.54516 0.47001 0.0
C4773 C 0.59499 0.56142 0.50954 0.0
C4774 C 0.58883 0.55094 0.49742 0.0
C4775 C 0.59884 0.54624 0.48447 0.0
C4776 C 0.573 0.54268 0.49921 0.0
C4777 C 0.5846 0.56735 0.5234 0.0
C4778 C 0.57073 0.5322 0.51239 0.0
C4779 C 0.55734 0.52197 0.51293 0.0
C4780 C 0.54593 0.52199 0.5003 0.0
C4781 C 0.54756 0.53316 0.48756 0.0
C4782 C 0.56118 0.54336 0.48692 0.0
H4783 H 0.58896 0.57926 0.52802 0.0
H4784 H 0.57171 0.56857 0.51973 0.0
H4785 H 0.58531 0.5585 0.53353 0.0
H4786 H 0.57981 0.53123 0.52183 0.0
H4787 H 0.55624 0.51351 0.52294 0.0
H4788 H 0.16455 0.91534 0.47638 0.0
H4789 H 0.13959 0.93139 0.47563 0.0
H4790 H 0.15478 0.95728 0.5185 0.0
H4791 H 0.17996 0.94161 0.51906 0.0
H4792 H 0.11633 0.93242 0.49986 0.0
H4793 H 0.14097 0.99393 0.48778 0.0
H4794 H 0.15259 0.97562 0.48445 0.0
H4795 H 0.15055 0.98386 0.50454 0.0
C4796 C 0.16269 0.92465 0.48547 0.0
C4797 C 0.17421 0.92728 0.49775 0.0
C4798 C 0.14843 0.93375 0.48506 0.0
C4799 C 0.14552 0.94569 0.49683 0.0
C4800 C 0.15699 0.94836 0.50909 0.0
H4801 H 0.05821 0.98346 0.53493 0.0
H4802 H 0.08618 0.97523 0.5297 0.0
C4803 C 0.17125 0.93926 0.50953 0.0
C4804 C 0.12997 0.95456 0.49704 0.0
H4805 H 0.11352 0.99265 0.49745 0.0
C4806 C 0.11569 0.94557 0.49911 0.0
C4807 C 0.12921 0.9717 0.49594 0.0
C4808 C 0.14414 0.98185 0.49289 0.0
C4809 C 0.10068 0.95332 0.50078 0.0
C4810 C 0.10004 0.97047 0.5005 0.0
C4811 C 0.11419 0.97949 0.4978 0.0
C4812 C 0.08473 0.97902 0.50381 0.0
C4813 C 0.08562 0.94318 0.50324 0.0
C4814 C 0.07511 0.9847 0.49101 0.0
C4815 C 0.05912 0.98951 0.49395 0.0
C4816 C 0.05263 0.9885 0.50971 0.0
C4817 C 0.06285 0.98423 0.52266 0.0
C4818 C 0.0788 0.97952 0.51971 0.0
H4819 H 0.08779 0.93011 0.50061 0.0
H4820 H 0.08153 0.9443 0.51602 0.0
H4821 H 0.07565 0.9476 0.49535 0.0
H4822 H 0.07958 0.98434 0.47866 0.0
H4823 H 0.0515 0.99265 0.48374 0.0
H4824 H 0.34295 0.91387 0.72631 0.0
H4825 H 0.33194 0.88632 0.72758 0.0
H4826 H 0.29899 0.9012 0.76544 0.0
H4827 H 0.30953 0.92891 0.76386 0.0
H4828 H 0.33353 0.86693 0.75485 0.0
H4829 H 0.26981 0.87522 0.73527 0.0
H4830 H 0.28528 0.89031 0.73163 0.0
H4831 H 0.27557 0.88897 0.75114 0.0
C4832 C 0.33304 0.91138 0.73459 0.0
C4833 C 0.32711 0.92352 0.74503 0.0
C4834 C 0.32687 0.89563 0.73538 0.0
C4835 C 0.31463 0.89179 0.74653 0.0
C4836 C 0.30829 0.904 0.75658 0.0
H4837 H 0.26392 0.80934 0.78164 0.0
H4838 H 0.28013 0.83415 0.7802 0.0
C4839 C 0.31443 0.91976 0.75579 0.0
C4840 C 0.30939 0.8748 0.74865 0.0
H4841 H 0.27595 0.85052 0.74922 0.0
C4842 C 0.32098 0.86325 0.75346 0.0
C4843 C 0.29303 0.87012 0.74676 0.0
C4844 C 0.28023 0.88177 0.74076 0.0
C4845 C 0.31649 0.84721 0.75703 0.0
C4846 C 0.30005 0.84273 0.75569 0.0
C4847 C 0.28854 0.85415 0.75047 0.0
C4848 C 0.29423 0.82626 0.75952 0.0
C4849 C 0.32917 0.83528 0.76262 0.0
C4850 C 0.29758 0.81331 0.74897 0.0
C4851 C 0.28843 0.79904 0.74989 0.0
C4852 C 0.27576 0.79779 0.76121 0.0
C4853 C 0.27363 0.81009 0.77281 0.0
C4854 C 0.28283 0.82424 0.77197 0.0
H4855 H 0.34086 0.84133 0.76551 0.0
H4856 H 0.32487 0.8286 0.77351 0.0
H4857 H 0.33137 0.82622 0.75289 0.0
H4858 H 0.3062 0.81476 0.73916 0.0
H4859 H 0.29006 0.78984 0.74065 0.0
H4860 H 0.34123 0.09449 0.01229 0.0
H4861 H 0.3682 0.08244 0.00943 0.0
H4862 H 0.34789 0.04326 0.98121 0.0
H4863 H 0.32092 0.05557 0.98366 0.0
H4864 H 0.37998 0.05366 0.01861 0.0
H4865 H 0.38367 0.05827 0.95154 0.0
H4866 H 0.36797 0.0682 0.96315 0.0
H4867 H 0.36658 0.04684 0.95871 0.0
C4868 C 0.34252 0.08324 0.00558 0.0
C4869 C 0.32906 0.076 -0.00191 0.0
C4870 C 0.35793 0.07642 0.00387 0.0
C4871 C 0.36013 0.06219 0.99473 0.0
C4872 C 0.34657 0.05455 0.98783 0.0
H4873 H 0.44062 -0.00234 0.98962 0.0
H4874 H 0.41608 0.01217 0.98143 0.0
C4875 C 0.33117 0.06149 0.98935 0.0
C4876 C 0.37662 0.05528 0.99278 0.0
H4877 H 0.40508 0.04401 0.96471 0.0
C4878 C 0.38549 0.05168 0.00682 0.0
C4879 C 0.38378 0.05263 0.97736 0.0
C4880 C 0.37508 0.05681 0.96183 0.0
C4881 C 0.40123 0.04538 0.00591 0.0
C4882 C 0.40841 0.04282 0.99053 0.0
C4883 C 0.39956 0.04623 0.97645 0.0
C4884 C 0.4248 0.03568 0.98924 0.0
C4885 C 0.40999 0.04123 0.02146 0.0
C4886 C 0.43828 0.04438 0.99495 0.0
C4887 C 0.45235 0.0361 -0.0005 0.0
C4888 C 0.45301 0.01912 -0.00173 0.0
C4889 C 0.44043 0.0108 0.9904 0.0
C4890 C 0.42637 0.01907 0.98584 0.0
H4891 H 0.40172 0.04122 0.0321 0.0
H4892 H 0.41584 0.02912 0.02054 0.0
H4893 H 0.41965 0.05036 0.02367 0.0
H4894 H 0.43726 0.05723 -0.0024 0.0
H4895 H 0.46177 0.04267 0.00588 0.0
H4896 H 0.69255 0.57257 0.72428 0.0
H4897 H 0.70478 0.59961 0.72182 0.0
H4898 H 0.68048 0.61466 0.76562 0.0
H4899 H 0.66807 0.58782 0.76808 0.0
H4900 H 0.68818 0.63033 0.71957 0.0
H4901 H 0.72838 0.62693 0.7734 0.0
H4902 H 0.71941 0.6091 0.7643 0.0
H4903 H 0.70762 0.62181 0.77756 0.0
C4904 C 0.68979 0.58164 0.73338 0.0
C4905 C 0.67934 0.578 0.7464 0.0
C4906 C 0.69682 0.59706 0.73197 0.0
C4907 C 0.69363 0.60908 0.7436 0.0
C4908 C 0.68331 0.60547 0.75665 0.0
H4909 H 0.70523 0.70832 0.76235 0.0
H4910 H 0.69401 0.68282 0.75199 0.0
C4911 C 0.67627 0.59009 0.75807 0.0
C4912 C 0.70074 0.62555 0.74198 0.0
H4913 H 0.72426 0.65319 0.76191 0.0
C4914 C 0.69624 0.63528 0.72871 0.0
C4915 C 0.71133 0.63193 0.75385 0.0
C4916 C 0.71711 0.62187 0.76801 0.0
C4917 C 0.7015 0.6515 0.72743 0.0
C4918 C 0.71153 0.658 0.73965 0.0
C4919 C 0.71652 0.6481 0.75256 0.0
C4920 C 0.7162 0.67533 0.74018 0.0
C4921 C 0.69611 0.66178 0.71332 0.0
C4922 C 0.73204 0.67998 0.73602 0.0
C4923 C 0.73836 0.69471 0.74169 0.0
C4924 C 0.72894 0.70475 0.75173 0.0
C4925 C 0.71257 0.70092 0.75433 0.0
C4926 C 0.7062 0.6863 0.74852 0.0
H4927 H 0.6894 0.65459 0.7041 0.0
H4928 H 0.68814 0.67169 0.71778 0.0
H4929 H 0.70681 0.66754 0.70747 0.0
H4930 H 0.73997 0.67158 0.72974 0.0
H4931 H 0.75112 0.69729 0.73985 0.0
H4932 H 0.83919 0.404 0.01628 0.0
H4933 H 0.86695 0.4145 0.01491 0.0
H4934 H 0.85067 0.45393 0.98456 0.0
H4935 H 0.82284 0.4437 0.98612 0.0
H4936 H 0.88528 0.41936 0.98549 0.0
H4937 H 0.87709 0.476 0.02113 0.0
H4938 H 0.8629 0.4593 0.02204 0.0
H4939 H 0.86238 0.4733 0.00531 0.0
C4940 C 0.8415 0.41509 0.00959 0.0
C4941 C 0.82891 0.4231 0.00135 0.0
C4942 C 0.85734 0.42096 0.00871 0.0
C4943 C 0.86074 0.43498 -0.00029 0.0
C4944 C 0.84818 0.44316 0.99169 0.0
H4945 H 0.93791 0.49588 0.97309 0.0
H4946 H 0.9142 0.47813 0.9727 0.0
C4947 C 0.83235 0.43728 0.99252 0.0
C4948 C 0.87752 0.44087 -0.00178 0.0
H4949 H 0.9012 0.47395 0.00538 0.0
C4950 C 0.88889 0.43121 0.98997 0.0
C4951 C 0.88207 0.45626 0.00422 0.0
C4952 C 0.87053 0.46678 0.01381 0.0
C4953 C 0.90462 0.43696 0.9869 0.0
C4954 C 0.90891 0.45262 0.99232 0.0
C4955 C 0.89771 0.46198 0.00109 0.0
C4956 C 0.92469 0.46011 0.98865 0.0
C4957 C 0.91636 0.4266 0.97743 0.0
C4958 C 0.9387 0.45526 -0.00301 0.0
C4959 C 0.95238 0.46531 -0.00296 0.0
C4960 C 0.9519 0.48035 0.98901 0.0
C4961 C 0.93843 0.48436 0.97945 0.0
C4962 C 0.92494 0.47425 0.9792 0.0
H4963 H 0.91054 0.41547 0.97252 0.0
H4964 H 0.92159 0.43369 0.96722 0.0
H4965 H 0.92652 0.42291 0.98544 0.0
H4966 H 0.93861 0.44445 0.00448 0.0
H4967 H 0.96265 0.46208 0.00456 0.0
H4968 H 0.33505 0.08859 0.72726 0.0
H4969 H 0.3178 0.1127 0.72741 0.0
H4970 H 0.2932 0.09509 0.77009 0.0
H4971 H 0.31014 0.07061 0.76983 0.0
H4972 H 0.28057 0.11223 0.72796 0.0
H4973 H 0.31127 0.1431 0.77979 0.0
H4974 H 0.32149 0.12796 0.76768 0.0
H4975 H 0.30597 0.12193 0.78165 0.0
C4976 C 0.32585 0.08973 0.73658 0.0
C4977 C 0.32389 0.07767 0.74849 0.0
C4978 C 0.31608 0.10352 0.73668 0.0
C4979 C 0.3043 0.10554 0.74875 0.0
C4980 C 0.30232 0.09366 0.76074 0.0
H4981 H 0.25459 0.1984 0.76102 0.0
H4982 H 0.2592 0.16921 0.76432 0.0
C4983 C 0.31205 0.07979 0.76061 0.0
C4984 C 0.29424 0.12028 0.7487 0.0
H4985 H 0.29135 0.1578 0.76583 0.0
C4986 C 0.28268 0.12213 0.73638 0.0
C4987 C 0.29707 0.13302 0.75979 0.0
C4988 C 0.30965 0.13156 0.77298 0.0
C4989 C 0.27428 0.13679 0.73445 0.0
C4990 C 0.27776 0.14986 0.74498 0.0
C4991 C 0.28867 0.14767 0.75784 0.0
C4992 C 0.2721 0.16649 0.74163 0.0
C4993 C 0.26212 0.13834 0.72089 0.0
C4994 C 0.2776 0.17446 0.72764 0.0
C4995 C 0.27517 0.1911 0.72579 0.0
C4996 C 0.26717 0.20003 0.73792 0.0
C4997 C 0.26079 0.19183 0.75146 0.0
C4998 C 0.26338 0.17518 0.75338 0.0
H4999 H 0.25708 0.1263 0.71744 0.0
H5000 H 0.25198 0.14651 0.72436 0.0
H5001 H 0.26822 0.14354 0.71007 0.0
H5002 H 0.28462 0.168 0.71859 0.0
H5003 H 0.28011 0.19707 0.71517 0.0
H5004 H 0.19773 0.92618 0.26946 0.0
H5005 H 0.21035 0.89926 0.2715 0.0
H5006 H 0.17426 0.87984 0.239 0.0
H5007 H 0.16186 0.90669 0.23667 0.0
H5008 H 0.19823 0.87079 0.28273 0.0
H5009 H 0.2153 0.86382 0.2182 0.0
H5010 H 0.20883 0.88301 0.22656 0.0
H5011 H 0.1941 0.86805 0.22045 0.0
C5012 C 0.19258 0.91616 0.26268 0.0
C5013 C 0.17889 0.91854 0.25281 0.0
C5014 C 0.19978 0.90081 0.26387 0.0
C5015 C 0.19339 0.88757 0.25523 0.0
C5016 C 0.17967 0.88994 0.24544 0.0
H5017 H 0.20934 0.78632 0.24327 0.0
H5018 H 0.1965 0.8115 0.25252 0.0
C5019 C 0.17258 0.90529 0.24412 0.0
C5020 C 0.20077 0.87118 0.2567 0.0
H5021 H 0.21543 0.83962 0.23421 0.0
C5022 C 0.20212 0.86402 0.27214 0.0
C5023 C 0.20604 0.86242 0.2429 0.0
C5024 C 0.20617 0.86979 0.22613 0.0
C5025 C 0.20807 0.8481 0.27403 0.0
C5026 C 0.21257 0.83918 0.26016 0.0
C5027 C 0.2116 0.84645 0.24481 0.0
C5028 C 0.21883 0.82238 0.26094 0.0
C5029 C 0.20932 0.84075 0.29071 0.0
C5030 C 0.23541 0.81979 0.26367 0.0
C5031 C 0.24272 0.80538 0.25844 0.0
C5032 C 0.23349 0.79345 0.25051 0.0
C5033 C 0.2166 0.7952 0.2497 0.0
C5034 C 0.2093 0.80963 0.25486 0.0
H5035 H 0.20458 0.849 0.30027 0.0
H5036 H 0.20248 0.82913 0.29112 0.0
H5037 H 0.22221 0.83793 0.2934 0.0
H5038 H 0.24298 0.82956 0.26816 0.0
H5039 H 0.25582 0.80441 0.25884 0.0
H5040 H 0.51857 0.34238 0.40699 0.0
H5041 H 0.51614 0.36973 0.41839 0.0
H5042 H 0.47753 0.35332 0.44968 0.0
H5043 H 0.48017 0.32584 0.43866 0.0
H5044 H 0.4884 0.38993 0.41789 0.0
H5045 H 0.50843 0.3767 0.48083 0.0
H5046 H 0.51202 0.3629 0.46421 0.0
H5047 H 0.49236 0.36389 0.47357 0.0
C5048 C 0.50976 0.34451 0.41651 0.0
C5049 C 0.49957 0.33192 0.42193 0.0
C5050 C 0.50829 0.36019 0.4229 0.0
C5051 C 0.49669 0.36355 0.43491 0.0
C5052 C 0.48667 0.35096 0.44053 0.0
H5053 H 0.48399 0.45034 0.49294 0.0
H5054 H 0.47507 0.42668 0.47724 0.0
C5055 C 0.48811 0.3353 0.43413 0.0
C5056 C 0.49487 0.3803 0.4413 0.0
H5057 H 0.49849 0.40301 0.47569 0.0
C5058 C 0.49054 0.39281 0.43055 0.0
C5059 C 0.4976 0.384 0.45781 0.0
C5060 C 0.503 0.37122 0.46978 0.0
C5061 C 0.48898 0.40897 0.43586 0.0
C5062 C 0.49196 0.4127 0.45232 0.0
C5063 C 0.49594 0.40011 0.46312 0.0
C5064 C 0.49314 0.42964 0.4584 0.0
C5065 C 0.48426 0.4219 0.4238 0.0
C5066 C 0.50549 0.43977 0.45246 0.0
C5067 C 0.51043 0.45333 0.46135 0.0
C5068 C 0.50305 0.457 0.47624 0.0
C5069 C 0.48948 0.44803 0.48123 0.0
C5070 C 0.48456 0.43438 0.47237 0.0
H5071 H 0.47725 0.41667 0.41355 0.0
H5072 H 0.47694 0.43161 0.42962 0.0
H5073 H 0.49541 0.4275 0.41872 0.0
H5074 H 0.5125 0.43625 0.44191 0.0
H5075 H 0.52116 0.45989 0.45749 0.0
H5076 H 0.41074 0.73297 0.1592 0.0
H5077 H 0.38597 0.73262 0.17555 0.0
H5078 H 0.40993 0.76078 0.21262 0.0
H5079 H 0.43467 0.76144 0.19612 0.0
H5080 H 0.37969 0.72129 0.20642 0.0
H5081 H 0.3703 0.7881 0.20186 0.0
H5082 H 0.38484 0.77739 0.18951 0.0
H5083 H 0.38947 0.78215 0.21027 0.0
C5084 C 0.41072 0.73897 0.17089 0.0
C5085 C 0.42449 0.74731 0.17642 0.0
C5086 C 0.39662 0.73876 0.1802 0.0
C5087 C 0.39614 0.74681 0.19518 0.0
C5088 C 0.41003 0.75475 0.20094 0.0
H5089 H 0.3068 0.75337 0.25436 0.0
H5090 H 0.33591 0.74906 0.24874 0.0
C5091 C 0.42409 0.75512 0.19155 0.0
C5092 C 0.38084 0.74738 0.20437 0.0
H5093 H 0.35104 0.77328 0.21674 0.0
C5094 C 0.37353 0.73266 0.20894 0.0
C5095 C 0.37281 0.76226 0.20742 0.0
C5096 C 0.37965 0.77837 0.2019 0.0
C5097 C 0.35809 0.73243 0.21603 0.0
C5098 C 0.35003 0.74726 0.21876 0.0
C5099 C 0.35757 0.76199 0.21486 0.0
C5100 C 0.33273 0.74776 0.22273 0.0
C5101 C 0.35003 0.7164 0.21974 0.0
C5102 C 0.32165 0.74832 0.20993 0.0
C5103 C 0.30535 0.75111 0.21304 0.0
C5104 C 0.29991 0.7532 0.22902 0.0
C5105 C 0.31087 0.75187 0.24196 0.0
C5106 C 0.32735 0.74936 0.23879 0.0
H5107 H 0.35861 0.70604 0.21875 0.0
H5108 H 0.34477 0.71661 0.23214 0.0
H5109 H 0.33991 0.71442 0.21108 0.0
H5110 H 0.32571 0.74711 0.19748 0.0
H5111 H 0.297 0.75176 0.20292 0.0
H5112 H 0.98173 0.66288 0.90947 0.0
H5113 H 0.98321 0.63556 0.92106 0.0
H5114 H 0.02792 0.64811 0.94507 0.0
H5115 H 0.0263 0.67562 0.9339 0.0
H5116 H 0.00865 0.61271 0.91642 0.0
H5117 H 0.00028 0.62825 0.98152 0.0
H5118 H 0.99536 0.64225 0.96541 0.0
H5119 H 0.01611 0.63918 0.97126 0.0
C5120 C 0.99173 0.65994 0.91745 0.0
C5121 C 0.0039 0.67145 0.92077 0.0
C5122 C 0.99263 0.64427 0.92394 0.0
C5123 C 0.00564 0.63983 0.93396 0.0
C5124 C 0.01769 0.65133 0.93749 0.0
H5125 H 0.01377 0.55168 0.99149 0.0
H5126 H 0.02382 0.5749 0.9757 0.0
C5127 C 0.01682 0.667 0.93099 0.0
C5128 C 0.00675 0.62302 0.94035 0.0
H5129 H 0.00543 0.6009 0.97529 0.0
C5130 C 0.00805 0.6101 0.9293 0.0
C5131 C 0.00613 0.61967 0.95715 0.0
C5132 C 0.00427 0.63302 0.96956 0.0
C5133 C 0.0085 0.59387 0.93459 0.0
C5134 C 0.00732 0.59047 0.95138 0.0
C5135 C 0.00653 0.60346 0.96243 0.0
C5136 C 0.00468 0.57377 0.95775 0.0
C5137 C 0.01014 0.58059 0.92209 0.0
C5138 C 0.99121 0.56482 0.95241 0.0
C5139 C 0.98583 0.55136 0.96117 0.0
C5140 C 0.99372 0.54667 0.97547 0.0
C5141 C 0.00797 0.55467 0.98011 0.0
C5142 C 0.01348 0.56811 0.97124 0.0
H5143 H 0.01723 0.58485 0.91144 0.0
H5144 H 0.01612 0.56963 0.92717 0.0
H5145 H -0.00209 0.57714 0.91768 0.0
H5146 H 0.98391 0.56909 0.94237 0.0
H5147 H 0.97455 0.54559 0.95764 0.0
H5148 H 0.08324 0.2248 0.6606 0.0
H5149 H 0.11083 0.22285 0.67107 0.0
H5150 H 0.10429 0.26786 0.69706 0.0
H5151 H 0.07639 0.26972 0.68691 0.0
H5152 H 0.13581 0.24643 0.6662 0.0
H5153 H 0.12189 0.23552 0.73138 0.0
H5154 H 0.10693 0.23291 0.71562 0.0
H5155 H 0.11236 0.25294 0.72232 0.0
C5156 C 0.08755 0.23413 0.6688 0.0
C5157 C 0.07765 0.24737 0.67304 0.0
C5158 C 0.10334 0.23307 0.67462 0.0
C5159 C 0.10949 0.24518 0.68483 0.0
C5160 C 0.09964 0.25834 0.68928 0.0
H5161 H 0.20817 0.26244 0.71425 0.0
H5162 H 0.18333 0.26258 0.69812 0.0
C5163 C 0.0838 0.25943 0.68342 0.0
C5164 C 0.12639 0.24407 0.69046 0.0
H5165 H 0.14943 0.2383 0.72418 0.0
C5166 C 0.13886 0.24463 0.67886 0.0
C5167 C 0.13017 0.24168 0.70697 0.0
C5168 C 0.11717 0.2406 0.71982 0.0
C5169 C 0.15514 0.24277 0.68338 0.0
C5170 C 0.15891 0.24038 0.69989 0.0
C5171 C 0.14643 0.23997 0.71148 0.0
C5172 C 0.17571 0.23857 0.70572 0.0
C5173 C 0.16811 0.24311 0.67047 0.0
C5174 C 0.17993 0.22478 0.71478 0.0
C5175 C 0.19406 0.22473 0.72402 0.0
C5176 C 0.20419 0.2384 0.72413 0.0
C5177 C 0.20079 0.25156 0.71388 0.0
C5178 C 0.18654 0.25169 0.70476 0.0
H5179 H 0.16299 0.24107 0.65818 0.0
H5180 H 0.17409 0.25519 0.67054 0.0
H5181 H 0.17751 0.23376 0.67287 0.0
H5182 H 0.17167 0.21457 0.71566 0.0
H5183 H 0.19641 0.21457 0.73204 0.0
H5184 H 0.48158 0.66084 0.09273 0.0
H5185 H 0.48442 0.63292 0.08303 0.0
H5186 H 0.51942 0.64877 0.04748 0.0
H5187 H 0.51652 0.6768 0.05698 0.0
H5188 H 0.48014 0.61978 0.0514 0.0
H5189 H 0.54327 0.61306 0.07371 0.0
H5190 H 0.53004 0.62925 0.08032 0.0
H5191 H 0.54003 0.63046 0.06097 0.0
C5192 C 0.48966 0.65844 0.08265 0.0
C5193 C 0.49892 0.67097 0.07567 0.0
C5194 C 0.49136 0.64248 0.07724 0.0
C5195 C 0.5024 0.63882 0.06484 0.0
C5196 C 0.51114 0.65137 0.05736 0.0
H5197 H 0.52796 0.56219 0.00353 0.0
H5198 H 0.52771 0.58577 0.02149 0.0
C5199 C 0.50945 0.66734 0.06276 0.0
C5200 C 0.50477 0.62184 0.05971 0.0
H5201 H 0.53348 0.59221 0.05608 0.0
C5202 C 0.49171 0.61362 0.05262 0.0
C5203 C 0.51989 0.61394 0.06146 0.0
C5204 C 0.53409 0.62205 0.06966 0.0
C5205 C 0.49358 0.59789 0.04645 0.0
C5206 C 0.50885 0.59015 0.04773 0.0
C5207 C 0.52178 0.59818 0.05529 0.0
C5208 C 0.512 0.57467 0.03935 0.0
C5209 C 0.47947 0.58996 0.03787 0.0
C5210 C 0.504 0.56036 0.04401 0.0
C5211 C 0.50417 0.54682 0.03379 0.0
C5212 C 0.51226 0.54757 0.01879 0.0
C5213 C 0.52147 0.5614 0.01494 0.0
C5214 C 0.52139 0.57484 0.0252 0.0
H5215 H 0.46927 0.59855 0.03587 0.0
H5216 H 0.48336 0.58506 0.02593 0.0
H5217 H 0.47493 0.57966 0.04527 0.0
H5218 H 0.4968 0.56003 0.05501 0.0
H5219 H 0.49695 0.53632 0.03701 0.0
H5220 H 0.09507 0.76249 0.84537 0.0
H5221 H 0.12207 0.75993 0.83313 0.0
H5222 H 0.10105 0.73649 0.79138 0.0
H5223 H 0.07401 0.73913 0.80347 0.0
H5224 H 0.13754 0.72944 0.82284 0.0
H5225 H 0.12968 0.77404 0.77279 0.0
H5226 H 0.11691 0.77393 0.79059 0.0
H5227 H 0.11384 0.75916 0.77487 0.0
C5228 C 0.09618 0.757 0.83348 0.0
C5229 C 0.08242 0.75101 0.82537 0.0
C5230 C 0.11161 0.75543 0.82658 0.0
C5231 C 0.11353 0.74804 0.81136 0.0
C5232 C 0.09981 0.7423 0.80311 0.0
H5233 H 0.19751 0.74203 0.74867 0.0
H5234 H 0.17225 0.73299 0.76149 0.0
C5235 C 0.0844 0.74375 0.81006 0.0
C5236 C 0.12993 0.7461 0.80421 0.0
H5237 H 0.15387 0.75888 0.77297 0.0
C5238 C 0.14113 0.73582 0.81191 0.0
C5239 C 0.13454 0.75442 0.78995 0.0
C5240 C 0.1232 0.76612 0.78158 0.0
C5241 C 0.15687 0.73364 0.80567 0.0
C5242 C 0.16153 0.74208 0.79149 0.0
C5243 C 0.15022 0.75219 0.78371 0.0
C5244 C 0.17845 0.74214 0.78529 0.0
C5245 C 0.16836 0.72231 0.81428 0.0
C5246 C 0.19078 0.74923 0.79466 0.0
C5247 C 0.20523 0.75428 0.78735 0.0
C5248 C 0.20755 0.75226 0.77062 0.0
C5249 C 0.19611 0.74339 0.76167 0.0
C5250 C 0.1816 0.73841 0.76896 0.0
H5251 H 0.16172 0.71323 0.82172 0.0
H5252 H 0.17627 0.71581 0.80551 0.0
H5253 H 0.17623 0.72948 0.82252 0.0
H5254 H 0.18857 0.75247 0.8072 0.0
H5255 H 0.21372 0.76144 0.79438 0.0
H5256 H 0.01619 0.31495 0.55188 0.0
H5257 H 0.01731 0.34001 0.53568 0.0
H5258 H 0.98386 0.36292 0.56878 0.0
H5259 H 0.98271 0.33806 0.58501 0.0
H5260 H 0.98488 0.3614 0.52421 0.0
H5261 H 0.03144 0.38886 0.56466 0.0
H5262 H 0.02957 0.36715 0.56181 0.0
H5263 H 0.01525 0.37778 0.57431 0.0
C5264 C 0.00904 0.32534 0.5556 0.0
C5265 C -0.00061 0.32468 0.56966 0.0
C5266 C 0.00963 0.33952 0.54634 0.0
C5267 C 0.00069 0.35314 0.55116 0.0
C5268 C 0.99078 0.3524 0.56495 0.0
H5269 H 0.97441 0.44793 0.54232 0.0
H5270 H 0.97926 0.419 0.54614 0.0
C5271 C 0.9901 0.33824 0.57413 0.0
C5272 C 0.00213 0.36858 0.54243 0.0
H5273 H 0.01677 0.4069 0.54752 0.0
C5274 C 0.99217 0.37129 0.52894 0.0
C5275 C 0.01171 0.38128 0.54876 0.0
C5276 C 0.02271 0.37869 0.56313 0.0
C5277 C 0.99068 0.38689 0.5223 0.0
C5278 C -0.00062 0.39981 0.5294 0.0
C5279 C 0.01018 0.39684 0.54215 0.0
C5280 C 0.9955 0.41678 0.52567 0.0
C5281 C 0.97902 0.3898 0.50855 0.0
C5282 C 0.00293 0.42487 0.51272 0.0
C5283 C 0.0002 0.44146 0.51046 0.0
C5284 C 0.99009 0.45009 0.52121 0.0
C5285 C 0.9823 0.44169 0.53385 0.0
C5286 C 0.98502 0.42518 0.53606 0.0
H5287 H 0.97389 0.37829 0.50372 0.0
H5288 H 0.9689 0.39762 0.51282 0.0
H5289 H 0.98526 0.39636 0.49857 0.0
H5290 H 0.01113 0.41846 0.50468 0.0
H5291 H 0.0064 0.4476 0.50062 0.0
H5292 H 0.43276 0.26873 0.30333 0.0
H5293 H 0.40681 0.26926 0.28871 0.0
H5294 H 0.3864 0.2361 0.32369 0.0
H5295 H 0.41217 0.23555 0.33836 0.0
H5296 H 0.38786 0.24049 0.276 0.0
H5297 H 0.35573 0.27736 0.32239 0.0
H5298 H 0.37758 0.27687 0.32073 0.0
H5299 H 0.36695 0.26039 0.33029 0.0
C5300 C 0.42271 0.26158 0.30789 0.0
C5301 C 0.42446 0.25212 0.322 0.0
C5302 C 0.40796 0.26185 0.29951 0.0
C5303 C 0.39471 0.25284 0.30524 0.0
C5304 C 0.39649 0.24323 0.31917 0.0
H5305 H 0.30136 0.22025 0.28636 0.0
H5306 H 0.32974 0.22554 0.29248 0.0
C5307 C 0.41123 0.24284 0.32746 0.0
C5308 C 0.37888 0.25344 0.29685 0.0
H5309 H 0.33921 0.2635 0.30303 0.0
C5310 C 0.37726 0.2458 0.28172 0.0
C5311 C 0.36514 0.26048 0.30433 0.0
C5312 C 0.36639 0.26938 0.32027 0.0
C5313 C 0.36198 0.24415 0.27435 0.0
C5314 C 0.34816 0.25038 0.28229 0.0
C5315 C 0.34991 0.25877 0.29698 0.0
C5316 C 0.33159 0.24647 0.27678 0.0
C5317 C 0.36047 0.23505 0.25856 0.0
C5318 C 0.32338 0.25637 0.26563 0.0
C5319 C 0.30703 0.25338 0.26204 0.0
C5320 C 0.2987 0.24054 0.26968 0.0
C5321 C 0.3073 0.23031 0.28031 0.0
C5322 C 0.32355 0.23328 0.28384 0.0
H5323 H 0.37248 0.23174 0.2534 0.0
H5324 H 0.35336 0.22376 0.26054 0.0
H5325 H 0.35377 0.24256 0.24961 0.0
H5326 H 0.32946 0.26665 0.26012 0.0
H5327 H 0.30077 0.26148 0.25382 0.0
H5328 H 0.4107 0.51575 0.33641 0.0
H5329 H 0.42495 0.51549 0.3624 0.0
H5330 H 0.45865 0.48006 0.34375 0.0
H5331 H 0.44455 0.48039 0.31756 0.0
H5332 H 0.42973 0.48622 0.38197 0.0
H5333 H 0.48747 0.51684 0.36459 0.0
H5334 H 0.46911 0.51905 0.35286 0.0
H5335 H 0.48041 0.50046 0.35196 0.0
C5336 C 0.4213 0.5081 0.33774 0.0
C5337 C 0.42653 0.49812 0.32492 0.0
C5338 C 0.42936 0.50789 0.35262 0.0
C5339 C 0.44291 0.49785 0.35494 0.0
C5340 C 0.44832 0.48802 0.34213 0.0
H5341 H 0.49329 0.48676 0.44932 0.0
H5342 H 0.48666 0.48244 0.42051 0.0
C5343 C 0.44018 0.48813 0.32724 0.0
C5344 C 0.45077 0.49721 0.37106 0.0
H5345 H 0.48444 0.50925 0.39201 0.0
C5346 C 0.44177 0.49106 0.38414 0.0
C5347 C 0.46651 0.50346 0.37379 0.0
C5348 C 0.47649 0.51043 0.36013 0.0
C5349 C 0.4479 0.49147 0.39998 0.0
C5350 C 0.46334 0.49836 0.40283 0.0
C5351 C 0.47265 0.5039 0.38971 0.0
C5352 C 0.46887 0.50173 0.41954 0.0
C5353 C 0.43761 0.48504 0.41369 0.0
C5354 C 0.46139 0.51425 0.42825 0.0
C5355 C 0.46512 0.51676 0.44452 0.0
C5356 C 0.47646 0.50678 0.4525 0.0
C5357 C 0.48455 0.49468 0.44353 0.0
C5358 C 0.48076 0.49216 0.42712 0.0
H5359 H 0.42776 0.47698 0.40923 0.0
H5360 H 0.44515 0.47821 0.42251 0.0
H5361 H 0.43196 0.49541 0.4202 0.0
H5362 H 0.45229 0.52183 0.42255 0.0
H5363 H 0.45877 0.52631 0.45096 0.0
H5364 H 0.23143 0.64936 0.08558 0.0
H5365 H 0.22963 0.65946 0.11343 0.0
H5366 H 0.25794 0.70148 0.10019 0.0
H5367 H 0.25976 0.69148 0.07217 0.0
H5368 H 0.2592 0.66929 0.13435 0.0
H5369 H 0.21304 0.71723 0.12221 0.0
H5370 H 0.21559 0.69981 0.1091 0.0
H5371 H 0.23016 0.71598 0.10869 0.0
C5372 C 0.23713 0.66084 0.08857 0.0
C5373 C 0.24561 0.66974 0.07674 0.0
C5374 C 0.23619 0.66649 0.10446 0.0
C5375 C 0.24359 0.68118 0.1087 0.0
C5376 C 0.25211 0.69012 0.09699 0.0
H5377 H 0.26572 0.73599 0.19042 0.0
H5378 H 0.26521 0.71816 0.16677 0.0
C5379 C 0.25318 0.6844 0.08109 0.0
C5380 C 0.24232 0.68715 0.12545 0.0
H5381 H 0.2243 0.71633 0.14857 0.0
C5382 C 0.25146 0.67946 0.13756 0.0
C5383 C 0.23213 0.70033 0.12943 0.0
C5384 C 0.22206 0.70883 0.11674 0.0
C5385 C 0.25109 0.68508 0.1536 0.0
C5386 C 0.24118 0.69849 0.15749 0.0
C5387 C 0.23165 0.70583 0.14549 0.0
C5388 C 0.24245 0.70678 0.1732 0.0
C5389 C 0.26162 0.67708 0.16621 0.0
C5390 C 0.2299 0.70597 0.1847 0.0
C5391 C 0.23025 0.71609 0.19837 0.0
C5392 C 0.24297 0.72722 0.20024 0.0
C5393 C 0.25576 0.72749 0.18904 0.0
C5394 C 0.25554 0.7173 0.17564 0.0
H5395 H 0.26661 0.6653 0.16192 0.0
H5396 H 0.27191 0.68525 0.16921 0.0
H5397 H 0.25461 0.67502 0.17753 0.0
H5398 H 0.21966 0.69795 0.18282 0.0
H5399 H 0.22032 0.71577 0.20698 0.0
H5400 H 0.06041 0.47839 0.81819 0.0
H5401 H 0.04475 0.47811 0.84343 0.0
H5402 H 0.06668 0.52346 0.8577 0.0
H5403 H 0.08277 0.52365 0.83279 0.0
H5404 H 0.06254 0.48117 0.87609 0.0
H5405 H 0.01488 0.5276 0.86425 0.0
H5406 H 0.02461 0.51635 0.8481 0.0
H5407 H 0.03541 0.53223 0.85833 0.0
C5408 C 0.06191 0.4883 0.82671 0.0
C5409 C 0.07286 0.50102 0.82355 0.0
C5410 C 0.05286 0.48819 0.84099 0.0
C5411 C 0.05448 0.50087 0.85219 0.0
C5412 C 0.06511 0.51374 0.84898 0.0
H5413 H 0.02272 0.52179 0.94905 0.0
H5414 H 0.02999 0.52336 0.9202 0.0
C5415 C 0.07425 0.51382 0.83476 0.0
C5416 C 0.04629 0.49989 0.86797 0.0
H5417 H 0.01641 0.51698 0.89089 0.0
C5418 C 0.05234 0.48885 0.87934 0.0
C5419 C 0.03324 0.51018 0.87205 0.0
C5420 C 0.02652 0.52225 0.86006 0.0
C5421 C 0.04587 0.48803 0.89499 0.0
C5422 C 0.03257 0.49813 0.89909 0.0
C5423 C 0.02646 0.50914 0.88762 0.0
C5424 C 0.02543 0.49786 0.91549 0.0
C5425 C 0.05384 0.47685 0.90714 0.0
C5426 C 0.01968 0.48323 0.92208 0.0
C5427 C 0.01595 0.48226 0.93852 0.0
C5428 C 0.01732 0.49607 0.94835 0.0
C5429 C 0.02155 0.51106 0.94151 0.0
C5430 C 0.02569 0.51194 0.92512 0.0
H5431 H 0.06639 0.47359 0.90345 0.0
H5432 H 0.05432 0.4825 0.91936 0.0
H5433 H 0.04676 0.46541 0.90801 0.0
H5434 H 0.01895 0.47236 0.91471 0.0
H5435 H 0.01264 0.47062 0.9437 0.0
H5436 H 0.26547 0.33802 0.59112 0.0
H5437 H 0.26379 0.32682 0.61852 0.0
H5438 H 0.21968 0.30173 0.6058 0.0
H5439 H 0.22156 0.31243 0.57818 0.0
H5440 H 0.23795 0.33186 0.64053 0.0
H5441 H 0.24703 0.26619 0.62732 0.0
H5442 H 0.25205 0.28189 0.61288 0.0
H5443 H 0.23129 0.27604 0.61593 0.0
C5444 C 0.2556 0.32984 0.59402 0.0
C5445 C 0.24364 0.32613 0.58245 0.0
C5446 C 0.25457 0.32358 0.60974 0.0
C5447 C 0.24163 0.31343 0.61418 0.0
C5448 C 0.22985 0.30942 0.60259 0.0
H5449 H 0.236 0.25892 0.70438 0.0
H5450 H 0.22452 0.27362 0.68116 0.0
C5451 C 0.23087 0.31566 0.58685 0.0
C5452 C 0.24025 0.30756 0.63111 0.0
H5453 H 0.24204 0.2734 0.6544 0.0
C5454 C 0.23871 0.31906 0.64359 0.0
C5455 C 0.24102 0.29086 0.63503 0.0
C5456 C 0.24306 0.278 0.62214 0.0
C5457 C 0.23837 0.31435 0.65995 0.0
C5458 C 0.23989 0.2977 0.66393 0.0
C5459 C 0.2407 0.28616 0.65138 0.0
C5460 C 0.24327 0.29206 0.68071 0.0
C5461 C 0.23661 0.32732 0.67276 0.0
C5462 C 0.257 0.29808 0.68877 0.0
C5463 C 0.26328 0.28989 0.70214 0.0
C5464 C 0.25602 0.2755 0.70764 0.0
C5465 C 0.24144 0.27029 0.70066 0.0
C5466 C 0.23506 0.27856 0.68724 0.0
H5467 H 0.2291 0.33757 0.66825 0.0
H5468 H 0.23105 0.32248 0.68403 0.0
H5469 H 0.24877 0.33229 0.67571 0.0
H5470 H 0.26383 0.30817 0.68382 0.0
H5471 H 0.27472 0.29392 0.70719 0.0
H5472 H 0.40761 0.52208 0.15926 0.0
H5473 H 0.42084 0.52453 0.1329 0.0
H5474 H 0.45372 0.48586 0.14559 0.0
H5475 H 0.44069 0.48347 0.17224 0.0
H5476 H 0.45451 0.53086 0.1255 0.0
H5477 H 0.43266 0.47129 0.10221 0.0
H5478 H 0.42399 0.48082 0.11994 0.0
H5479 H 0.44328 0.47078 0.12123 0.0
C5480 C 0.41779 0.51422 0.15658 0.0
C5481 C 0.42313 0.50262 0.16792 0.0
C5482 C 0.42529 0.51561 0.14146 0.0
C5483 C 0.43819 0.50536 0.13728 0.0
C5484 C 0.44365 0.49378 0.14854 0.0
H5485 H 0.50385 0.50608 0.05716 0.0
H5486 H 0.49076 0.51463 0.08226 0.0
C5487 C 0.43616 0.4924 0.16372 0.0
C5488 C 0.44561 0.50668 0.12097 0.0
H5489 H 0.45004 0.48635 0.08525 0.0
C5490 C 0.45352 0.52117 0.11664 0.0
C5491 C 0.44418 0.49405 0.10946 0.0
C5492 C 0.43548 0.47838 0.11332 0.0
C5493 C 0.46014 0.52333 0.10106 0.0
C5494 C 0.45878 0.51066 0.08958 0.0
C5495 C 0.45085 0.49618 0.09397 0.0
C5496 C 0.46633 0.51139 0.07324 0.0
C5497 C 0.46841 0.53917 0.09702 0.0
C5498 C 0.45699 0.50774 0.05946 0.0
C5499 C 0.46452 0.50277 0.04509 0.0
C5500 C 0.48145 0.50155 0.04433 0.0
C5501 C 0.49076 0.50731 0.05736 0.0
C5502 C 0.48326 0.51213 0.07178 0.0
H5503 H 0.46426 0.54914 0.1051 0.0
H5504 H 0.48169 0.53775 0.09871 0.0
H5505 H 0.46617 0.54272 0.08423 0.0
H5506 H 0.44389 0.50708 0.06033 0.0
H5507 H 0.4571 0.49792 0.03542 0.0
H5508 H 0.26838 0.66321 0.90884 0.0
H5509 H 0.26744 0.67866 0.88354 0.0
H5510 H 0.23303 0.71189 0.90481 0.0
H5511 H 0.234 0.69652 0.93033 0.0
H5512 H 0.23564 0.6857 0.86591 0.0
H5513 H 0.2723 0.73969 0.88418 0.0
H5514 H 0.27454 0.72036 0.89432 0.0
H5515 H 0.25658 0.73221 0.89746 0.0
C5516 C 0.2608 0.67394 0.9082 0.0
C5517 C 0.25131 0.67875 0.92149 0.0
C5518 C 0.2602 0.68266 0.89377 0.0
C5519 C 0.25022 0.69637 0.89247 0.0
C5520 C 0.24085 0.70136 0.90573 0.0
H5521 H 0.24436 0.74899 0.79966 0.0
H5522 H 0.23919 0.74268 0.82822 0.0
C5523 C 0.24136 0.69256 0.92019 0.0
C5524 C 0.24941 0.70499 0.87692 0.0
H5525 H 0.26564 0.73716 0.85652 0.0
C5526 C 0.2419 0.69712 0.86388 0.0
C5527 C 0.25755 0.71989 0.87448 0.0
C5528 C 0.26577 0.72862 0.88829 0.0
C5529 C 0.24305 0.70338 0.84817 0.0
C5530 C 0.25209 0.71771 0.84556 0.0
C5531 C 0.25877 0.72614 0.85871 0.0
C5532 C 0.25632 0.72283 0.82906 0.0
C5533 C 0.23528 0.69427 0.83432 0.0
C5534 C 0.26801 0.71401 0.82044 0.0
C5535 C 0.27104 0.71754 0.80422 0.0
C5536 C 0.26237 0.72995 0.79636 0.0
C5537 C 0.25122 0.73932 0.80533 0.0
C5538 C 0.24822 0.73576 0.82162 0.0
H5539 H 0.22604 0.68545 0.83866 0.0
H5540 H 0.22945 0.70285 0.82571 0.0
H5541 H 0.24476 0.68747 0.82759 0.0
H5542 H 0.27441 0.70404 0.82616 0.0
H5543 H 0.27977 0.71016 0.79773 0.0
H5544 H 0.08139 0.47617 0.66404 0.0
H5545 H 0.07148 0.47819 0.63619 0.0
H5546 H 0.05525 0.52712 0.64532 0.0
H5547 H 0.06468 0.52511 0.6734 0.0
H5548 H 0.03697 0.49079 0.62401 0.0
H5549 H 0.09219 0.52581 0.60662 0.0
H5550 H 0.09191 0.51201 0.62367 0.0
H5551 H 0.08184 0.53125 0.62512 0.0
C5552 C 0.07532 0.48721 0.66029 0.0
C5553 C 0.07396 0.50056 0.67086 0.0
C5554 C 0.06979 0.48837 0.64435 0.0
C5555 C 0.06294 0.50288 0.63878 0.0
C5556 C 0.06074 0.51591 0.64947 0.0
H5557 H 0.0176 0.53459 0.55291 0.0
H5558 H 0.03447 0.53427 0.57729 0.0
C5559 C 0.06617 0.51475 0.66544 0.0
C5560 C 0.0589 0.50471 0.62153 0.0
H5561 H 0.07222 0.52208 0.58635 0.0
C5562 C 0.04468 0.49752 0.61572 0.0
C5563 C 0.06911 0.51349 0.6109 0.0
C5564 C 0.08469 0.52106 0.61677 0.0
C5565 C 0.04018 0.4992 0.59945 0.0
C5566 C 0.05031 0.50812 0.58882 0.0
C5567 C 0.06463 0.51517 0.59459 0.0
C5568 C 0.04531 0.51096 0.57196 0.0
C5569 C 0.02446 0.49175 0.59372 0.0
C5570 C 0.04689 0.49852 0.56045 0.0
C5571 C 0.03744 0.4988 0.54641 0.0
C5572 C 0.0263 0.51145 0.54398 0.0
C5573 C 0.02624 0.52481 0.55455 0.0
C5574 C 0.03581 0.52461 0.56846 0.0
H5575 H 0.01757 0.48594 0.60375 0.0
H5576 H 0.0167 0.5012 0.58806 0.0
H5577 H 0.02703 0.48242 0.58434 0.0
H5578 H 0.05412 0.48786 0.5631 0.0
H5579 H 0.03738 0.48823 0.53859 0.0
H5580 H 0.22717 0.35014 0.4131 0.0
H5581 H 0.22591 0.33965 0.38534 0.0
H5582 H 0.25428 0.29803 0.39955 0.0
H5583 H 0.25563 0.30847 0.42744 0.0
H5584 H 0.25627 0.32983 0.36517 0.0
H5585 H 0.20984 0.28189 0.37616 0.0
H5586 H 0.21164 0.29964 0.38894 0.0
H5587 H 0.22628 0.28361 0.39044 0.0
C5588 C 0.23301 0.33867 0.41035 0.0
C5589 C 0.24142 0.33005 0.42242 0.0
C5590 C 0.23235 0.33277 0.3945 0.0
C5591 C 0.23994 0.31809 0.39051 0.0
C5592 C 0.24831 0.30938 0.40249 0.0
H5593 H 0.2666 0.27063 0.30303 0.0
H5594 H 0.2656 0.28777 0.32716 0.0
C5595 C 0.24911 0.31536 0.41835 0.0
C5596 C 0.23921 0.31197 0.37371 0.0
H5597 H 0.2218 0.28277 0.35017 0.0
C5598 C 0.24868 0.31961 0.36181 0.0
C5599 C 0.22915 0.29879 0.36944 0.0
C5600 C 0.21854 0.29049 0.38184 0.0
C5601 C 0.24865 0.31409 0.3457 0.0
C5602 C 0.23895 0.30054 0.3415 0.0
C5603 C 0.22914 0.29322 0.35337 0.0
C5604 C 0.23988 0.29272 0.32536 0.0
C5605 C 0.25907 0.32275 0.33338 0.0
C5606 C 0.22575 0.28986 0.31623 0.0
C5607 C 0.2263 0.27989 0.30246 0.0
C5608 C 0.241 0.27278 0.29774 0.0
C5609 C 0.25521 0.27631 0.30636 0.0
C5610 C 0.25466 0.28614 0.3201 0.0
H5611 H 0.26137 0.33555 0.337 0.0
H5612 H 0.27098 0.31653 0.33254 0.0
H5613 H 0.25337 0.32264 0.32119 0.0
H5614 H 0.2142 0.29473 0.32018 0.0
H5615 H 0.21519 0.27706 0.29606 0.0
H5616 H 0.32238 0.43155 0.53021 0.0
H5617 H 0.35023 0.44184 0.53136 0.0
H5618 H 0.35785 0.42742 0.4817 0.0
H5619 H 0.33011 0.41683 0.48045 0.0
H5620 H 0.38154 0.41668 0.51364 0.0
H5621 H 0.37009 0.48169 0.4983 0.0
H5622 H 0.35555 0.47073 0.51049 0.0
H5623 H 0.35814 0.46551 0.48956 0.0
C5624 C 0.32997 0.43057 0.51953 0.0
C5625 C 0.32407 0.42329 0.50527 0.0
C5626 C 0.34582 0.43649 0.5202 0.0
C5627 C 0.35599 0.43524 0.50665 0.0
C5628 C 0.35009 0.42841 0.49227 0.0
H5629 H 0.45664 0.46182 0.49248 0.0
H5630 H 0.43172 0.44558 0.49246 0.0
C5631 C 0.33422 0.42251 0.49156 0.0
C5632 C 0.37296 0.44067 0.50774 0.0
H5633 H 0.39669 0.47447 0.50569 0.0
C5634 C 0.38495 0.42928 0.51182 0.0
C5635 C 0.37719 0.45708 0.50533 0.0
C5636 C 0.36465 0.46956 0.50063 0.0
C5637 C 0.40117 0.43404 0.51389 0.0
C5638 C 0.40534 0.45054 0.51178 0.0
C5639 C 0.39336 0.46184 0.50742 0.0
C5640 C 0.42199 0.45663 0.5142 0.0
C5641 C 0.41369 0.42161 0.5187 0.0
C5642 C 0.425 0.46762 0.52682 0.0
C5643 C 0.43919 0.47683 0.52687 0.0
C5644 C 0.45055 0.47514 0.5143 0.0
C5645 C 0.44825 0.46304 0.50252 0.0
C5646 C 0.43397 0.45386 0.50243 0.0
H5647 H 0.40817 0.40963 0.52152 0.0
H5648 H 0.4225 0.42001 0.50864 0.0
H5649 H 0.42054 0.42593 0.52946 0.0
H5650 H 0.41585 0.46992 0.53598 0.0
H5651 H 0.4407 0.48615 0.53603 0.0
H5652 H 0.82193 0.05839 0.52094 0.0
H5653 H 0.84721 0.04279 0.5221 0.0
H5654 H 0.86407 0.0669 0.4788 0.0
H5655 H 0.83924 0.08296 0.47791 0.0
H5656 H 0.86046 0.02161 0.49894 0.0
H5657 H 0.90127 0.0738 0.51064 0.0
H5658 H 0.87953 0.07516 0.51298 0.0
H5659 H 0.88864 0.07687 0.49321 0.0
C5660 C 0.83112 0.0605 0.51179 0.0
C5661 C 0.82864 0.07196 0.49937 0.0
C5662 C 0.84547 0.05151 0.51241 0.0
C5663 C 0.85755 0.05391 0.50069 0.0
C5664 C 0.85499 0.06511 0.48814 0.0
H5665 H 0.94358 0.01653 0.46344 0.0
H5666 H 0.91548 0.02396 0.46906 0.0
C5667 C 0.84071 0.07413 0.48753 0.0
C5668 C 0.87281 0.04458 0.50129 0.0
H5669 H 0.91386 0.04932 0.501 0.0
C5670 C 0.87215 0.0276 0.49968 0.0
C5671 C 0.888 0.05247 0.50243 0.0
C5672 C 0.88943 0.07056 0.50508 0.0
C5673 C 0.8864 0.0184 0.4982 0.0
C5674 C 0.90148 0.02644 0.49837 0.0
C5675 C 0.90217 0.04327 0.5008 0.0
C5676 C 0.91673 0.01802 0.49456 0.0
C5677 C 0.88538 0.00028 0.49581 0.0
C5678 C 0.92637 0.01158 0.50698 0.0
C5679 C 0.94245 0.00721 0.50379 0.0
C5680 C 0.94904 0.00955 0.48822 0.0
C5681 C 0.93886 0.01471 0.47557 0.0
C5682 C 0.92281 0.01893 0.47874 0.0
H5683 H 0.87275 0.9957 0.49685 0.0
H5684 H 0.89019 -0.00291 0.48364 0.0
H5685 H 0.89306 0.99403 0.50495 0.0
H5686 H 0.92181 0.01094 0.51929 0.0
H5687 H 0.95003 0.00335 0.51379 0.0
H5688 H 0.69365 0.07263 0.2321 0.0
H5689 H 0.7042 0.10028 0.22893 0.0
H5690 H 0.66647 0.11841 0.26034 0.0
H5691 H 0.65582 0.09091 0.26352 0.0
H5692 H 0.68656 0.12681 0.21613 0.0
H5693 H 0.70789 0.13881 0.27891 0.0
H5694 H 0.70369 0.11859 0.27154 0.0
H5695 H 0.68734 0.13171 0.27754 0.0
C5696 C 0.68769 0.08251 0.23841 0.0
C5697 C 0.67393 0.07964 0.24806 0.0
C5698 C 0.69373 0.09825 0.23661 0.0
C5699 C 0.68613 0.11131 0.24447 0.0
C5700 C 0.67263 0.10843 0.2544 0.0
H5701 H 0.71197 0.21323 0.24912 0.0
H5702 H 0.69432 0.18935 0.24753 0.0
C5703 C 0.66661 0.09271 0.25623 0.0
C5704 C 0.69185 0.12805 0.24168 0.0
H5705 H 0.70797 0.161 0.26077 0.0
C5706 C 0.69122 0.13433 0.22587 0.0
C5707 C 0.69782 0.13778 0.25446 0.0
C5708 C 0.69939 0.13138 0.27155 0.0
C5709 C 0.69653 0.15016 0.22247 0.0
C5710 C 0.70268 0.15981 0.23521 0.0
C5711 C 0.703 0.15362 0.25107 0.0
C5712 C 0.71069 0.17556 0.23231 0.0
C5713 C 0.69561 0.15639 0.2053 0.0
C5714 C 0.72534 0.17591 0.22368 0.0
C5715 C 0.73541 0.18948 0.22462 0.0
C5716 C 0.73094 0.20288 0.23417 0.0
C5717 C 0.71558 0.20314 0.24152 0.0
C5718 C 0.70555 0.18948 0.24069 0.0
H5719 H 0.68632 0.14974 0.19815 0.0
H5720 H 0.69273 0.16957 0.20505 0.0
H5721 H 0.70752 0.15458 0.1993 0.0
H5722 H 0.72964 0.16521 0.21735 0.0
H5723 H 0.74719 0.18903 0.2188 0.0
H5724 H 0.67547 0.94648 0.01033 0.0
H5725 H 0.64836 0.95858 0.01286 0.0
H5726 H 0.62675 0.91326 -0.00198 0.0
H5727 H 0.65377 0.90107 0.99547 0.0
H5728 H 0.61979 0.95201 0.98248 0.0
H5729 H 0.60908 0.93596 0.04731 0.0
H5730 H 0.62911 0.94095 0.03991 0.0
H5731 H 0.61988 0.92213 0.03414 0.0
C5732 C 0.66492 0.93912 0.00763 0.0
C5733 C 0.66667 0.92286 0.00271 0.0
C5734 C 0.64951 0.94602 0.00909 0.0
C5735 C 0.63568 0.93669 0.00582 0.0
C5736 C 0.63736 0.92055 0.00069 0.0
H5737 H 0.53646 0.95644 0.98848 0.0
H5738 H 0.56072 0.94225 -0.00216 0.0
C5739 C 0.65276 0.91368 -0.00089 0.0
C5740 C 0.61942 0.94392 0.00725 0.0
H5741 H 0.58761 0.949 0.03337 0.0
C5742 C 0.61276 0.95143 0.99359 0.0
C5743 C 0.61043 0.9431 0.02182 0.0
C5744 C 0.61739 0.93514 0.03673 0.0
C5745 C 0.59714 0.95806 0.99405 0.0
C5746 C 0.58797 0.957 0.00854 0.0
C5747 C 0.5947 0.94968 0.02231 0.0
C5748 C 0.5713 0.96347 0.00907 0.0
C5749 C 0.59043 0.96607 0.97901 0.0
C5750 C 0.56876 0.97975 0.01343 0.0
C5751 C 0.55476 0.9878 0.00826 0.0
C5752 C 0.54323 0.97959 -0.00116 0.0
C5753 C 0.54491 0.96284 -0.00376 0.0
C5754 C 0.55885 0.95477 0.00144 0.0
H5755 H 0.59975 0.96745 0.96937 0.0
H5756 H 0.58033 0.95861 0.97413 0.0
H5757 H 0.58548 0.97825 0.98199 0.0
H5758 H 0.57835 0.98666 0.01918 0.0
H5759 H 0.55391 0.00083 0.00996 0.0
H5760 H 0.30302 0.42688 0.25603 0.0
H5761 H 0.29081 0.39983 0.25913 0.0
H5762 H 0.33564 0.37768 0.24384 0.0
H5763 H 0.34797 0.40462 0.24076 0.0
H5764 H 0.29582 0.37068 0.22951 0.0
H5765 H 0.31488 0.36068 0.29359 0.0
H5766 H 0.30982 0.38069 0.2861 0.0
H5767 H 0.32823 0.37112 0.27968 0.0
C5768 C 0.31026 0.41623 0.25335 0.0
C5769 C 0.32645 0.41784 0.24817 0.0
C5770 C 0.30328 0.40084 0.25511 0.0
C5771 C 0.31243 0.38686 0.25188 0.0
C5772 C 0.32847 0.38839 0.24647 0.0
H5773 H 0.2932 0.28685 0.23691 0.0
H5774 H 0.30708 0.31179 0.24509 0.0
C5775 C 0.33543 0.40376 0.2446 0.0
C5776 C 0.30517 0.37058 0.25383 0.0
H5777 H 0.3015 0.3389 0.28043 0.0
C5778 C 0.29696 0.36375 0.24065 0.0
C5779 C 0.3067 0.36169 0.26842 0.0
C5780 C 0.31535 0.36882 0.28285 0.0
C5781 C 0.29042 0.34806 0.24158 0.0
C5782 C 0.29225 0.33897 0.25604 0.0
C5783 C 0.30021 0.3459 0.26937 0.0
C5784 C 0.28611 0.32213 0.25697 0.0
C5785 C 0.28173 0.34114 0.22702 0.0
C5786 C 0.27015 0.31923 0.26212 0.0
C5787 C 0.26229 0.30483 0.25766 0.0
C5788 C 0.27034 0.29333 0.248 0.0
C5789 C 0.28689 0.29539 0.24469 0.0
C5790 C 0.29478 0.3097 0.24922 0.0
H5791 H 0.27994 0.35034 0.21733 0.0
H5792 H 0.28889 0.33091 0.22194 0.0
H5793 H 0.2697 0.33627 0.23066 0.0
H5794 H 0.26326 0.32875 0.26802 0.0
H5795 H 0.24941 0.30363 0.26002 0.0
H5796 H 0.16334 0.5902 0.97647 0.0
H5797 H 0.13567 0.58005 0.97946 0.0
H5798 H 0.1508 0.54972 0.01929 0.0
H5799 H 0.17869 0.55947 0.01616 0.0
H5800 H 0.12363 0.54574 0.9804 0.0
H5801 H 0.11399 0.58132 0.03701 0.0
H5802 H 0.12995 0.58598 0.02272 0.0
H5803 H 0.13195 0.56893 0.03611 0.0
C5804 C 0.1609 0.58108 0.98562 0.0
C5805 C 0.17316 0.57572 -0.00382 0.0
C5806 C 0.14507 0.57541 0.98738 0.0
C5807 C 0.14127 0.56444 -0.00022 0.0
C5808 C 0.15356 0.55845 0.00985 0.0
H5809 H 0.0581 0.51264 0.03068 0.0
H5810 H 0.08298 0.52886 0.03035 0.0
C5811 C 0.16943 0.56404 0.00805 0.0
C5812 C 0.12432 0.55963 0.00247 0.0
H5813 H 0.09277 0.56362 0.02899 0.0
C5814 C 0.11681 0.54971 0.99094 0.0
C5815 C 0.1156 0.56493 0.01626 0.0
C5816 C 0.12319 0.57598 0.02872 0.0
C5817 C 0.10078 0.54453 0.99304 0.0
C5818 C 0.09203 0.54979 0.00686 0.0
C5819 C 0.09951 0.55983 0.01834 0.0
C5820 C 0.07555 0.54373 0.01005 0.0
C5821 C 0.0935 0.53304 0.98076 0.0
C5822 C 0.06283 0.54757 -0.00055 0.0
C5823 C 0.04863 0.53836 -0.00035 0.0
C5824 C 0.04706 0.52534 0.01052 0.0
C5825 C 0.05909 0.52269 0.02224 0.0
C5826 C 0.07326 0.53192 0.02206 0.0
H5827 H 0.10282 0.52783 0.97252 0.0
H5828 H 0.08708 0.52289 0.98692 0.0
H5829 H 0.08452 0.53968 0.97327 0.0
H5830 H 0.06446 0.55671 0.99013 0.0
H5831 H 0.03975 0.54029 0.99021 0.0
H5832 H 0.68994 0.92933 0.22416 0.0
H5833 H 0.70478 0.90348 0.22412 0.0
H5834 H 0.6813 0.88993 0.26889 0.0
H5835 H 0.66618 0.9154 0.26881 0.0
H5836 H 0.72599 0.89079 0.24854 0.0
H5837 H 0.67244 0.85144 0.23829 0.0
H5838 H 0.6721 0.87307 0.23458 0.0
H5839 H 0.66963 0.86531 0.25484 0.0
C5840 C 0.68788 0.92075 0.2339 0.0
C5841 C 0.67691 0.92432 0.24648 0.0
C5842 C 0.6964 0.90609 0.2339 0.0
C5843 C 0.69392 0.89481 0.24638 0.0
C5844 C 0.68316 0.89844 0.25904 0.0
H5845 H 0.72443 0.80746 0.28704 0.0
H5846 H 0.71771 0.83564 0.28077 0.0
C5847 C 0.67467 0.91304 0.25906 0.0
C5848 C 0.70264 0.87921 0.24648 0.0
H5849 H 0.69613 0.83844 0.24916 0.0
C5850 C 0.71956 0.8793 0.24837 0.0
C5851 C 0.69414 0.86431 0.24609 0.0
C5852 C 0.67609 0.86348 0.24317 0.0
C5853 C 0.72809 0.86478 0.25094 0.0
C5854 C 0.71941 0.85006 0.2516 0.0
C5855 C 0.70265 0.8499 0.24882 0.0
C5856 C 0.72707 0.83467 0.25629 0.0
C5857 C 0.74615 0.86522 0.25368 0.0
C5858 C 0.73511 0.82517 0.24473 0.0
C5859 C 0.73899 0.80904 0.24827 0.0
C5860 C 0.73464 0.80226 0.26332 0.0
C5861 C 0.72775 0.81228 0.27528 0.0
C5862 C 0.72397 0.82838 0.27176 0.0
H5863 H 0.75114 0.87774 0.25285 0.0
H5864 H 0.74899 0.86018 0.26584 0.0
H5865 H 0.7523 0.85745 0.24456 0.0
H5866 H 0.73744 0.82989 0.23268 0.0
H5867 H 0.7443 0.80161 0.23883 0.0
H5868 H 0.81735 0.0777 0.76851 0.0
H5869 H 0.8075 0.1058 0.76773 0.0
H5870 H 0.82681 0.11142 0.71949 0.0
H5871 H 0.83706 0.08358 0.72023 0.0
H5872 H 0.83413 0.13627 0.75243 0.0
H5873 H 0.77204 0.12508 0.72817 0.0
H5874 H 0.78109 0.11079 0.7421 0.0
H5875 H 0.78906 0.1127 0.72198 0.0
C5876 C 0.81955 0.0849 0.75774 0.0
C5877 C 0.82805 0.07834 0.74445 0.0
C5878 C 0.81384 0.10091 0.7573 0.0
C5879 C 0.8165 0.1106 0.74356 0.0
C5880 C 0.82466 0.10407 0.73018 0.0
H5881 H 0.76667 0.20328 0.73259 0.0
H5882 H 0.78488 0.18111 0.72424 0.0
C5883 C 0.83038 0.0881 0.7306 0.0
C5884 C 0.8112 0.12775 0.74337 0.0
H5885 H 0.77853 0.15184 0.73564 0.0
C5886 C 0.82203 0.13977 0.74862 0.0
C5887 C 0.79554 0.13219 0.73815 0.0
C5888 C 0.78366 0.1196 0.73223 0.0
C5889 C 0.81741 0.15619 0.74928 0.0
C5890 C 0.80142 0.16061 0.7448 0.0
C5891 C 0.79083 0.14857 0.73893 0.0
C5892 C 0.79453 0.17695 0.74832 0.0
C5893 C 0.82968 0.16853 0.75495 0.0
C5894 C 0.79465 0.18264 0.76435 0.0
C5895 C 0.78449 0.19532 0.769 0.0
C5896 C 0.77387 0.20246 0.75778 0.0
C5897 C 0.77492 0.19807 0.74139 0.0
C5898 C 0.78519 0.1853 0.73668 0.0
H5899 H 0.84215 0.16487 0.75136 0.0
H5900 H 0.82716 0.18081 0.74998 0.0
H5901 H 0.8294 0.16917 0.7684 0.0
H5902 H 0.80137 0.17629 0.77367 0.0
H5903 H 0.78377 0.19845 0.78175 0.0
loop_
_geom_bond_atom_site_label_1
_geom_bond_atom_site_label_2
_geom_bond_distance
_geom_bond_site_symmetry_2
_ccdc_geom_bond_type
Li0 N17 1.990 . S
Li0 O60 1.956 . S
Li0 O61 1.970 . S
Li0 O62 1.961 1_455 S
Li1 N25 1.990 . S
Li1 O60 1.970 . S
Li1 O61 1.956 . S
Li1 O63 1.961 . S
Li2 N47 1.990 . S
Li2 O60 1.961 . S
Li2 O62 1.956 1_455 S
Li2 O63 1.970 . S
Li3 N53 1.990 . S
Li3 O61 1.961 1_655 S
Li3 O62 1.970 . S
Li3 O63 1.956 1_655 S
C4 C6 1.348 . S
C4 C7 1.356 . S
C4 O60 1.325 . S
N5 C8 1.314 . S
N5 C9 1.279 . S
C6 C4 1.348 . S
C6 C8 1.353 . S
C6 H64 0.929 . S
C7 C4 1.356 . S
C7 C9 1.358 . S
C7 H65 0.930 . S
C8 N5 1.314 . S
C8 C6 1.353 . S
C8 H66 0.930 . S
C9 N5 1.279 . S
C9 C7 1.358 . S
C9 H67 0.930 . S
C10 C13 1.348 . S
C10 C14 1.357 1_455 S
C10 O61 1.325 . S
C11 N12 1.286 . S
C11 C14 1.358 1_455 S
C11 H68 0.924 1_455 S
N12 C11 1.286 . S
N12 C15 1.314 . S
C13 C10 1.348 . S
C13 C15 1.353 . S
C13 H69 0.929 . S
C14 C10 1.357 1_655 S
C14 C11 1.358 1_655 S
C14 H70 0.928 . S
C15 N12 1.314 . S
C15 C13 1.353 . S
C15 H71 0.930 . S
C16 N17 1.314 1_655 S
C16 C21 1.353 . S
C16 H22 0.930 . S
N17 Li0 1.990 . S
N17 C16 1.314 1_455 S
N17 C19 1.279 . S
C18 C19 1.358 . S
C18 C20 1.356 . S
C18 H72 0.930 . S
C19 N17 1.279 . S
C19 C18 1.358 . S
C19 H23 0.930 . S
C20 C18 1.356 . S
C20 C21 1.348 1_455 S
C21 C16 1.353 . S
C21 C20 1.348 1_655 S
C21 H73 0.929 . S
H22 C16 0.930 . S
H23 C19 0.930 . S
C24 N25 1.314 . S
C24 C26 1.353 . S
C24 H30 0.930 . S
N25 Li1 1.990 . S
N25 C24 1.314 . S
N25 C28 1.279 . S
C26 C24 1.353 . S
C26 C29 1.348 . S
C26 H74 0.929 . S
C27 C28 1.358 . S
C27 C29 1.356 . S
C27 H75 0.930 . S
C28 N25 1.279 . S
C28 C27 1.358 . S
C28 H31 0.930 . S
C29 C26 1.348 . S
C29 C27 1.356 . S
H30 C24 0.930 . S
H31 C28 0.930 . S
C32 C34 1.348 . S
C32 C35 1.356 . S
C32 O62 1.325 . S
N33 C36 1.314 . S
N33 C37 1.279 . S
C34 C32 1.348 . S
C34 C36 1.353 . S
C34 H76 0.929 . S
C35 C32 1.356 . S
C35 C37 1.358 . S
C35 H77 0.930 . S
C36 N33 1.314 . S
C36 C34 1.353 . S
C36 H78 0.930 . S
C37 N33 1.279 . S
C37 C35 1.358 . S
C37 H79 0.930 . S
C38 C39 1.348 1_455 S
C38 C40 1.356 . S
C38 O63 1.325 . S
C39 C38 1.348 1_655 S
C39 C41 1.353 . S
C39 H80 0.929 . S
C40 C38 1.356 . S
C40 C42 1.358 . S
C40 H81 0.930 . S
C41 C39 1.353 . S
C41 N43 1.314 1_655 S
C41 H82 0.930 . S
C42 C40 1.358 . S
C42 N43 1.279 . S
C42 H83 0.930 . S
N43 C41 1.314 1_455 S
N43 C42 1.279 . S
C44 C46 1.353 . S
C44 N47 1.314 . S
C44 H50 0.930 . S
C45 N47 1.279 1_655 S
C45 C48 1.358 . S
C45 H51 0.930 . S
C46 C44 1.353 . S
C46 C49 1.348 . S
C46 H84 0.929 . S
N47 Li2 1.990 . S
N47 C44 1.314 . S
N47 C45 1.279 1_455 S
C48 C45 1.358 . S
C48 C49 1.356 1_655 S
C48 H85 0.930 . S
C49 C46 1.348 . S
C49 C48 1.356 1_455 S
H50 C44 0.930 . S
H51 C45 0.930 . S
C52 N53 1.314 . S
C52 C54 1.353 . S
C52 H58 0.930 . S
N53 Li3 1.990 . S
N53 C52 1.314 . S
N53 C56 1.279 . S
C54 C52 1.353 . S
C54 C57 1.348 . S
C54 H86 0.929 . S
C55 C56 1.358 . S
C55 C57 1.356 . S
C55 H87 0.930 . S
C56 N53 1.279 . S
C56 C55 1.358 . S
C56 H59 0.930 . S
C57 C54 1.348 . S
C57 C55 1.356 . S
H58 C52 0.930 . S
H59 C56 0.930 . S
O60 Li0 1.956 . S
O60 Li1 1.970 . S
O60 Li2 1.961 . S
O60 C4 1.325 . S
O61 Li0 1.970 . S
O61 Li1 1.956 . S
O61 Li3 1.961 1_455 S
O61 C10 1.325 . S
O62 Li0 1.961 1_655 S
O62 Li2 1.956 1_655 S
O62 Li3 1.970 . S
O62 C32 1.325 . S
O63 Li1 1.961 . S
O63 Li2 1.970 . S
O63 Li3 1.956 1_455 S
O63 C38 1.325 . S
H64 C6 0.929 . S
H65 C7 0.930 . S
H66 C8 0.930 . S
H67 C9 0.930 . S
H68 C11 0.924 1_655 S
H69 C13 0.929 . S
H70 C14 0.928 . S
H71 C15 0.930 . S
H72 C18 0.930 . S
H73 C21 0.929 . S
H74 C26 0.929 . S
H75 C27 0.930 . S
H76 C34 0.929 . S
H77 C35 0.930 . S
H78 C36 0.930 . S
H79 C37 0.930 . S
H80 C39 0.929 . S
H81 C40 0.930 . S
H82 C41 0.930 . S
H83 C42 0.930 . S
H84 C46 0.929 . S
H85 C48 0.930 . S
H86 C54 0.929 . S
H87 C55 0.930 . S
Li88 N105 1.990 . S
Li88 O148 1.956 1_655 S
Li88 O149 1.970 . S
Li88 O150 1.961 1_655 S
Li89 N113 1.990 . S
Li89 O148 1.970 . S
Li89 O149 1.956 1_455 S
Li89 O151 1.961 . S
Li90 N135 1.990 . S
Li90 O148 1.961 . S
Li90 O150 1.956 . S
Li90 O151 1.970 . S
Li91 N141 1.990 . S
Li91 O149 1.961 1_455 S
Li91 O150 1.970 . S
Li91 O151 1.956 . S
C92 C94 1.348 . S
C92 C95 1.356 . S
C92 O148 1.325 . S
N93 C96 1.314 . S
N93 C97 1.279 . S
C94 C92 1.348 . S
C94 C96 1.353 . S
C94 H152 0.929 1_455 S
C95 C92 1.356 . S
C95 C97 1.358 . S
C95 H153 0.930 . S
C96 N93 1.314 . S
C96 C94 1.353 . S
C96 H154 0.930 1_455 S
C97 N93 1.279 . S
C97 C95 1.358 . S
C97 H155 0.930 . S
C98 C101 1.348 . S
C98 C102 1.356 . S
C98 O149 1.325 . S
C99 N100 1.279 . S
C99 C102 1.358 . S
C99 H156 0.930 . S
N100 C99 1.279 . S
N100 C103 1.314 . S
C101 C98 1.348 . S
C101 C103 1.353 . S
C101 H157 0.929 . S
C102 C98 1.356 . S
C102 C99 1.358 . S
C102 H158 0.930 . S
C103 N100 1.314 . S
C103 C101 1.353 . S
C103 H159 0.930 . S
C104 N105 1.314 . S
C104 C109 1.353 . S
C104 H110 0.930 . S
N105 Li88 1.990 . S
N105 C104 1.314 . S
N105 C107 1.279 . S
C106 C107 1.358 . S
C106 C108 1.356 . S
C106 H160 0.930 . S
C107 N105 1.279 . S
C107 C106 1.358 . S
C107 H111 0.930 . S
C108 C106 1.356 . S
C108 C109 1.348 . S
C109 C104 1.353 . S
C109 C108 1.348 . S
C109 H161 0.929 . S
H110 C104 0.930 . S
H111 C107 0.930 . S
C112 N113 1.314 . S
C112 C114 1.353 . S
C112 H118 0.930 . S
N113 Li89 1.990 . S
N113 C112 1.314 . S
N113 C116 1.279 1_455 S
C114 C112 1.353 . S
C114 C117 1.348 . S
C114 H162 0.929 . S
C115 C116 1.358 . S
C115 C117 1.356 1_655 S
C115 H163 0.930 . S
C116 N113 1.279 1_655 S
C116 C115 1.358 . S
C116 H119 0.930 . S
C117 C114 1.348 . S
C117 C115 1.356 1_455 S
H118 C112 0.930 . S
H119 C116 0.930 . S
C120 C122 1.348 . S
C120 C123 1.356 . S
C120 O150 1.325 . S
N121 C124 1.314 . S
N121 C125 1.279 . S
C122 C120 1.348 . S
C122 C124 1.353 . S
C122 H164 0.929 . S
C123 C120 1.356 . S
C123 C125 1.358 . S
C123 H165 0.931 . S
C124 N121 1.314 . S
C124 C122 1.353 . S
C124 H166 0.930 . S
C125 N121 1.279 . S
C125 C123 1.358 . S
C125 H167 0.931 . S
C126 C127 1.348 . S
C126 C128 1.356 . S
C126 O151 1.325 . S
C127 C126 1.348 . S
C127 C129 1.353 . S
C127 H168 0.929 . S
C128 C126 1.356 . S
C128 C130 1.358 . S
C128 H169 0.930 . S
C129 C127 1.353 . S
C129 N131 1.314 . S
C129 H170 0.930 . S
C130 C128 1.358 . S
C130 N131 1.279 . S
C130 H171 0.930 . S
N131 C129 1.314 . S
N131 C130 1.279 . S
C132 C134 1.353 . S
C132 N135 1.314 . S
C132 H138 0.930 . S
C133 N135 1.279 . S
C133 C136 1.358 . S
C133 H139 0.930 . S
C134 C132 1.353 . S
C134 C137 1.348 . S
C134 H172 0.929 . S
N135 Li90 1.990 . S
N135 C132 1.314 . S
N135 C133 1.279 . S
C136 C133 1.358 . S
C136 C137 1.356 . S
C136 H173 0.930 . S
C137 C134 1.348 . S
C137 C136 1.356 . S
H138 C132 0.930 . S
H139 C133 0.930 . S
C140 N141 1.314 1_655 S
C140 C142 1.353 . S
C140 H146 0.930 . S
N141 Li91 1.990 . S
N141 C140 1.314 1_455 S
N141 C144 1.279 . S
C142 C140 1.353 . S
C142 C145 1.348 1_655 S
C142 H174 0.929 . S
C143 C144 1.358 . S
C143 C145 1.356 . S
C143 H175 0.930 . S
C144 N141 1.279 . S
C144 C143 1.358 . S
C144 H147 0.930 . S
C145 C142 1.348 1_455 S
C145 C143 1.356 . S
H146 C140 0.930 . S
H147 C144 0.930 . S
O148 Li88 1.956 1_455 S
O148 Li89 1.970 . S
O148 Li90 1.961 . S
O148 C92 1.325 . S
O149 Li88 1.970 . S
O149 Li89 1.956 1_655 S
O149 Li91 1.961 1_655 S
O149 C98 1.325 . S
O150 Li88 1.961 1_455 S
O150 Li90 1.956 . S
O150 Li91 1.970 . S
O150 C120 1.325 . S
O151 Li89 1.961 . S
O151 Li90 1.970 . S
O151 Li91 1.956 . S
O151 C126 1.325 . S
H152 C94 0.929 1_655 S
H153 C95 0.930 . S
H154 C96 0.930 1_655 S
H155 C97 0.930 . S
H156 C99 0.930 . S
H157 C101 0.929 . S
H158 C102 0.930 . S
H159 C103 0.930 . S
H160 C106 0.930 . S
H161 C109 0.929 . S
H162 C114 0.929 . S
H163 C115 0.930 . S
H164 C122 0.929 . S
H165 C123 0.931 . S
H166 C124 0.930 . S
H167 C125 0.931 . S
H168 C127 0.929 . S
H169 C128 0.930 . S
H170 C129 0.930 . S
H171 C130 0.930 . S
H172 C134 0.929 . S
H173 C136 0.930 . S
H174 C142 0.929 . S
H175 C143 0.930 . S
Li176 N193 1.990 . S
Li176 O236 1.956 . S
Li176 O237 1.970 . S
Li176 O238 1.961 . S
Li177 N201 1.990 . S
Li177 O236 1.970 . S
Li177 O237 1.956 . S
Li177 O239 1.961 . S
Li178 N223 1.990 . S
Li178 O236 1.961 . S
Li178 O238 1.956 . S
Li178 O239 1.970 . S
Li179 N229 1.990 . S
Li179 O237 1.961 . S
Li179 O238 1.970 . S
Li179 O239 1.956 . S
C180 C182 1.348 . S
C180 C183 1.356 . S
C180 O236 1.325 . S
N181 C184 1.314 . S
N181 C185 1.279 . S
C182 C180 1.348 . S
C182 C184 1.353 . S
C182 H240 0.929 . S
C183 C180 1.356 . S
C183 C185 1.358 . S
C183 H241 0.930 . S
C184 N181 1.314 . S
C184 C182 1.353 . S
C184 H242 0.930 . S
C185 N181 1.279 . S
C185 C183 1.358 . S
C185 H243 0.930 . S
C186 C189 1.348 . S
C186 C190 1.356 . S
C186 O237 1.325 . S
C187 N188 1.279 . S
C187 C190 1.358 . S
C187 H244 0.930 . S
N188 C187 1.279 . S
N188 C191 1.314 . S
C189 C186 1.348 . S
C189 C191 1.353 . S
C189 H245 0.929 . S
C190 C186 1.356 . S
C190 C187 1.358 . S
C190 H246 0.930 . S
C191 N188 1.314 . S
C191 C189 1.353 . S
C191 H247 0.930 . S
C192 N193 1.314 . S
C192 C197 1.353 . S
C192 H198 0.930 . S
N193 Li176 1.990 . S
N193 C192 1.314 . S
N193 C195 1.279 . S
C194 C195 1.358 . S
C194 C196 1.356 . S
C194 H248 0.930 . S
C195 N193 1.279 . S
C195 C194 1.358 . S
C195 H199 0.930 . S
C196 C194 1.356 . S
C196 C197 1.348 . S
C197 C192 1.353 . S
C197 C196 1.348 . S
C197 H249 0.929 . S
H198 C192 0.930 . S
H199 C195 0.930 . S
C200 N201 1.314 . S
C200 C202 1.353 . S
C200 H206 0.930 . S
N201 Li177 1.990 . S
N201 C200 1.314 . S
N201 C204 1.279 . S
C202 C200 1.353 . S
C202 C205 1.348 . S
C202 H250 0.929 . S
C203 C204 1.358 . S
C203 C205 1.356 . S
C203 H251 0.930 . S
C204 N201 1.279 . S
C204 C203 1.358 . S
C204 H207 0.930 . S
C205 C202 1.348 . S
C205 C203 1.356 . S
H206 C200 0.930 . S
H207 C204 0.930 . S
C208 C210 1.348 . S
C208 C211 1.356 . S
C208 O238 1.325 . S
N209 C212 1.314 . S
N209 C213 1.279 . S
C210 C208 1.348 . S
C210 C212 1.353 . S
C210 H252 0.929 . S
C211 C208 1.356 . S
C211 C213 1.358 . S
C211 H253 0.930 . S
C212 N209 1.314 . S
C212 C210 1.353 . S
C212 H254 0.930 . S
C213 N209 1.279 . S
C213 C211 1.358 . S
C213 H255 0.930 . S
C214 C215 1.348 . S
C214 C216 1.356 . S
C214 O239 1.325 . S
C215 C214 1.348 . S
C215 C217 1.353 . S
C215 H256 0.929 . S
C216 C214 1.356 . S
C216 C218 1.358 . S
C216 H257 0.930 . S
C217 C215 1.353 . S
C217 N219 1.314 . S
C217 H258 0.930 . S
C218 C216 1.358 . S
C218 N219 1.279 . S
C218 H259 0.930 . S
N219 C217 1.314 . S
N219 C218 1.279 . S
C220 C222 1.353 . S
C220 N223 1.314 . S
C220 H226 0.930 . S
C221 N223 1.279 . S
C221 C224 1.358 . S
C221 H227 0.930 . S
C222 C220 1.353 . S
C222 C225 1.348 . S
C222 H260 0.929 . S
N223 Li178 1.990 . S
N223 C220 1.314 . S
N223 C221 1.279 . S
C224 C221 1.358 . S
C224 C225 1.356 . S
C224 H261 0.930 . S
C225 C222 1.348 . S
C225 C224 1.356 . S
H226 C220 0.930 . S
H227 C221 0.930 . S
C228 N229 1.314 . S
C228 C230 1.353 . S
C228 H234 0.930 . S
N229 Li179 1.990 . S
N229 C228 1.314 . S
N229 C232 1.279 . S
C230 C228 1.353 . S
C230 C233 1.348 . S
C230 H262 0.929 . S
C231 C232 1.358 . S
C231 C233 1.356 . S
C231 H263 0.930 . S
C232 N229 1.279 . S
C232 C231 1.358 . S
C232 H235 0.930 . S
C233 C230 1.348 . S
C233 C231 1.356 . S
H234 C228 0.930 . S
H235 C232 0.930 . S
O236 Li176 1.956 . S
O236 Li177 1.970 . S
O236 Li178 1.961 . S
O236 C180 1.325 . S
O237 Li176 1.970 . S
O237 Li177 1.956 . S
O237 Li179 1.961 . S
O237 C186 1.325 . S
O238 Li176 1.961 . S
O238 Li178 1.956 . S
O238 Li179 1.970 . S
O238 C208 1.325 . S
O239 Li177 1.961 . S
O239 Li178 1.970 . S
O239 Li179 1.956 . S
O239 C214 1.325 . S
H240 C182 0.929 . S
H241 C183 0.930 . S
H242 C184 0.930 . S
H243 C185 0.930 . S
H244 C187 0.930 . S
H245 C189 0.929 . S
H246 C190 0.930 . S
H247 C191 0.930 . S
H248 C194 0.930 . S
H249 C197 0.929 . S
H250 C202 0.929 . S
H251 C203 0.930 . S
H252 C210 0.929 . S
H253 C211 0.930 . S
H254 C212 0.930 . S
H255 C213 0.930 . S
H256 C215 0.929 . S
H257 C216 0.930 . S
H258 C217 0.930 . S
H259 C218 0.930 . S
H260 C222 0.929 . S
H261 C224 0.930 . S
H262 C230 0.929 . S
H263 C231 0.930 . S
Li264 N281 1.990 . S
Li264 O324 1.956 . S
Li264 O325 1.970 . S
Li264 O326 1.961 . S
Li265 N289 1.990 . S
Li265 O324 1.970 . S
Li265 O325 1.956 . S
Li265 O327 1.961 . S
Li266 N311 1.990 . S
Li266 O324 1.961 . S
Li266 O326 1.956 . S
Li266 O327 1.970 . S
Li267 N317 1.990 . S
Li267 O325 1.961 . S
Li267 O326 1.970 . S
Li267 O327 1.956 . S
C268 C270 1.348 . S
C268 C271 1.356 . S
C268 O324 1.325 . S
N269 C272 1.314 . S
N269 C273 1.279 . S
C270 C268 1.348 . S
C270 C272 1.353 . S
C270 H328 0.929 . S
C271 C268 1.356 . S
C271 C273 1.358 . S
C271 H329 0.930 . S
C272 N269 1.314 . S
C272 C270 1.353 . S
C272 H330 0.930 . S
C273 N269 1.279 . S
C273 C271 1.358 . S
C273 H331 0.930 . S
C274 C277 1.348 . S
C274 C278 1.356 . S
C274 O325 1.325 . S
C275 N276 1.279 . S
C275 C278 1.358 . S
C275 H332 0.930 . S
N276 C275 1.279 . S
N276 C279 1.314 . S
C277 C274 1.348 . S
C277 C279 1.353 . S
C277 H333 0.929 . S
C278 C274 1.356 . S
C278 C275 1.358 . S
C278 H334 0.930 . S
C279 N276 1.314 . S
C279 C277 1.353 . S
C279 H335 0.930 . S
C280 N281 1.314 . S
C280 C285 1.353 . S
C280 H286 0.930 . S
N281 Li264 1.990 . S
N281 C280 1.314 . S
N281 C283 1.279 . S
C282 C283 1.358 . S
C282 C284 1.356 . S
C282 H336 0.930 . S
C283 N281 1.279 . S
C283 C282 1.358 . S
C283 H287 0.930 . S
C284 C282 1.356 . S
C284 C285 1.348 . S
C285 C280 1.353 . S
C285 C284 1.348 . S
C285 H337 0.929 . S
H286 C280 0.930 . S
H287 C283 0.930 . S
C288 N289 1.314 . S
C288 C290 1.353 . S
C288 H294 0.930 . S
N289 Li265 1.990 . S
N289 C288 1.314 . S
N289 C292 1.279 . S
C290 C288 1.353 . S
C290 C293 1.348 . S
C290 H338 0.929 . S
C291 C292 1.358 . S
C291 C293 1.356 . S
C291 H339 0.930 . S
C292 N289 1.279 . S
C292 C291 1.358 . S
C292 H295 0.930 . S
C293 C290 1.348 . S
C293 C291 1.356 . S
H294 C288 0.930 . S
H295 C292 0.930 . S
C296 C298 1.348 . S
C296 C299 1.356 . S
C296 O326 1.325 . S
N297 C300 1.314 . S
N297 C301 1.279 . S
C298 C296 1.348 . S
C298 C300 1.353 . S
C298 H340 0.929 . S
C299 C296 1.356 . S
C299 C301 1.358 . S
C299 H341 0.930 . S
C300 N297 1.314 . S
C300 C298 1.353 . S
C300 H342 0.930 . S
C301 N297 1.279 . S
C301 C299 1.358 . S
C301 H343 0.930 . S
C302 C303 1.348 . S
C302 C304 1.356 . S
C302 O327 1.325 . S
C303 C302 1.348 . S
C303 C305 1.353 . S
C303 H344 0.929 . S
C304 C302 1.356 . S
C304 C306 1.358 . S
C304 H345 0.930 . S
C305 C303 1.353 . S
C305 N307 1.314 . S
C305 H346 0.930 . S
C306 C304 1.358 . S
C306 N307 1.279 . S
C306 H347 0.930 . S
N307 C305 1.314 . S
N307 C306 1.279 . S
C308 C310 1.353 . S
C308 N311 1.314 . S
C308 H314 0.930 . S
C309 N311 1.279 . S
C309 C312 1.358 . S
C309 H315 0.930 . S
C310 C308 1.353 . S
C310 C313 1.348 . S
C310 H348 0.929 . S
N311 Li266 1.990 . S
N311 C308 1.314 . S
N311 C309 1.279 . S
C312 C309 1.358 . S
C312 C313 1.356 . S
C312 H349 0.930 . S
C313 C310 1.348 . S
C313 C312 1.356 . S
H314 C308 0.930 . S
H315 C309 0.930 . S
C316 N317 1.314 . S
C316 C318 1.353 . S
C316 H322 0.930 . S
N317 Li267 1.990 . S
N317 C316 1.314 . S
N317 C320 1.279 . S
C318 C316 1.353 . S
C318 C321 1.348 . S
C318 H350 0.929 . S
C319 C320 1.358 . S
C319 C321 1.356 . S
C319 H351 0.930 . S
C320 N317 1.279 . S
C320 C319 1.358 . S
C320 H323 0.930 . S
C321 C318 1.348 . S
C321 C319 1.356 . S
H322 C316 0.930 . S
H323 C320 0.930 . S
O324 Li264 1.956 . S
O324 Li265 1.970 . S
O324 Li266 1.961 . S
O324 C268 1.325 . S
O325 Li264 1.970 . S
O325 Li265 1.956 . S
O325 Li267 1.961 . S
O325 C274 1.325 . S
O326 Li264 1.961 . S
O326 Li266 1.956 . S
O326 Li267 1.970 . S
O326 C296 1.325 . S
O327 Li265 1.961 . S
O327 Li266 1.970 . S
O327 Li267 1.956 . S
O327 C302 1.325 . S
H328 C270 0.929 . S
H329 C271 0.930 . S
H330 C272 0.930 . S
H331 C273 0.930 . S
H332 C275 0.930 . S
H333 C277 0.929 . S
H334 C278 0.930 . S
H335 C279 0.930 . S
H336 C282 0.930 . S
H337 C285 0.929 . S
H338 C290 0.929 . S
H339 C291 0.930 . S
H340 C298 0.929 . S
H341 C299 0.930 . S
H342 C300 0.930 . S
H343 C301 0.930 . S
H344 C303 0.929 . S
H345 C304 0.930 . S
H346 C305 0.930 . S
H347 C306 0.930 . S
H348 C310 0.929 . S
H349 C312 0.930 . S
H350 C318 0.929 . S
H351 C319 0.930 . S
Li352 N369 1.990 . S
Li352 O412 1.956 . S
Li352 O413 1.970 . S
Li352 O414 1.961 1_545 S
Li353 N377 1.990 . S
Li353 O412 1.970 . S
Li353 O413 1.956 . S
Li353 O415 1.961 . S
Li354 N399 1.990 . S
Li354 O412 1.961 . S
Li354 O414 1.956 1_545 S
Li354 O415 1.970 . S
Li355 N405 1.990 . S
Li355 O413 1.961 1_565 S
Li355 O414 1.970 . S
Li355 O415 1.956 1_565 S
C356 C358 1.348 . S
C356 C359 1.356 . S
C356 O412 1.325 . S
N357 C360 1.314 . S
N357 C361 1.279 . S
C358 C356 1.348 . S
C358 C360 1.353 . S
C358 H416 0.929 . S
C359 C356 1.356 . S
C359 C361 1.358 . S
C359 H417 0.930 . S
C360 N357 1.314 . S
C360 C358 1.353 . S
C360 H418 0.930 . S
C361 N357 1.279 . S
C361 C359 1.358 . S
C361 H419 0.930 . S
C362 C365 1.348 . S
C362 C366 1.345 1_545 S
C362 O413 1.325 . S
C363 N364 1.272 1_565 S
C363 C366 1.358 . S
C363 H420 0.939 . S
N364 C363 1.272 1_545 S
N364 C367 1.314 . S
C365 C362 1.348 . S
C365 C367 1.353 . S
C365 H421 0.929 . S
C366 C362 1.345 1_565 S
C366 C363 1.358 . S
C366 H422 0.947 . S
C367 N364 1.314 . S
C367 C365 1.353 . S
C367 H423 0.930 . S
C368 N369 1.314 1_565 S
C368 C373 1.353 . S
C368 H374 0.930 . S
N369 Li352 1.990 . S
N369 C368 1.314 1_545 S
N369 C371 1.279 . S
C370 C371 1.358 . S
C370 C372 1.356 . S
C370 H424 0.930 . S
C371 N369 1.279 . S
C371 C370 1.358 . S
C371 H375 0.930 . S
C372 C370 1.356 . S
C372 C373 1.348 1_545 S
C373 C368 1.353 . S
C373 C372 1.348 1_565 S
C373 H425 0.929 . S
H374 C368 0.930 . S
H375 C371 0.930 . S
C376 N377 1.314 . S
C376 C378 1.353 . S
C376 H382 0.930 . S
N377 Li353 1.990 . S
N377 C376 1.314 . S
N377 C380 1.279 . S
C378 C376 1.353 . S
C378 C381 1.348 . S
C378 H426 0.929 . S
C379 C380 1.358 . S
C379 C381 1.356 . S
C379 H427 0.930 . S
C380 N377 1.279 . S
C380 C379 1.358 . S
C380 H383 0.930 . S
C381 C378 1.348 . S
C381 C379 1.356 . S
H382 C376 0.930 . S
H383 C380 0.930 . S
C384 C386 1.348 . S
C384 C387 1.356 . S
C384 O414 1.325 . S
N385 C388 1.314 . S
N385 C389 1.279 . S
C386 C384 1.348 . S
C386 C388 1.353 . S
C386 H428 0.929 . S
C387 C384 1.356 . S
C387 C389 1.358 . S
C387 H429 0.930 . S
C388 N385 1.314 . S
C388 C386 1.353 . S
C388 H430 0.930 . S
C389 N385 1.279 . S
C389 C387 1.358 . S
C389 H431 0.930 . S
C390 C391 1.348 1_545 S
C390 C392 1.356 . S
C390 O415 1.325 . S
C391 C390 1.348 1_565 S
C391 C393 1.353 . S
C391 H432 0.929 . S
C392 C390 1.356 . S
C392 C394 1.358 . S
C392 H433 0.930 . S
C393 C391 1.353 . S
C393 N395 1.302 1_565 S
C393 H434 0.930 . S
C394 C392 1.358 . S
C394 N395 1.296 . S
C394 H435 0.930 . S
N395 C393 1.302 1_545 S
N395 C394 1.296 . S
C396 C398 1.353 . S
C396 N399 1.314 . S
C396 H402 0.930 . S
C397 N399 1.279 1_565 S
C397 C400 1.358 . S
C397 H403 0.930 . S
C398 C396 1.353 . S
C398 C401 1.348 . S
C398 H436 0.929 . S
N399 Li354 1.990 . S
N399 C396 1.314 . S
N399 C397 1.279 1_545 S
C400 C397 1.358 . S
C400 C401 1.356 1_565 S
C400 H437 0.930 . S
C401 C398 1.348 . S
C401 C400 1.356 1_545 S
H402 C396 0.930 . S
H403 C397 0.930 . S
C404 N405 1.314 . S
C404 C406 1.353 . S
C404 H410 0.930 . S
N405 Li355 1.990 . S
N405 C404 1.314 . S
N405 C408 1.279 . S
C406 C404 1.353 . S
C406 C409 1.348 . S
C406 H438 0.929 . S
C407 C408 1.358 . S
C407 C409 1.356 . S
C407 H439 0.930 . S
C408 N405 1.279 . S
C408 C407 1.358 . S
C408 H411 0.930 . S
C409 C406 1.348 . S
C409 C407 1.356 . S
H410 C404 0.930 . S
H411 C408 0.930 . S
O412 Li352 1.956 . S
O412 Li353 1.970 . S
O412 Li354 1.961 . S
O412 C356 1.325 . S
O413 Li352 1.970 . S
O413 Li353 1.956 . S
O413 Li355 1.961 1_545 S
O413 C362 1.325 . S
O414 Li352 1.961 1_565 S
O414 Li354 1.956 1_565 S
O414 Li355 1.970 . S
O414 C384 1.325 . S
O415 Li353 1.961 . S
O415 Li354 1.970 . S
O415 Li355 1.956 1_545 S
O415 C390 1.325 . S
H416 C358 0.929 . S
H417 C359 0.930 . S
H418 C360 0.930 . S
H419 C361 0.930 . S
H420 C363 0.939 . S
H421 C365 0.929 . S
H422 C366 0.947 . S
H423 C367 0.930 . S
H424 C370 0.930 . S
H425 C373 0.929 . S
H426 C378 0.929 . S
H427 C379 0.930 . S
H428 C386 0.929 . S
H429 C387 0.930 . S
H430 C388 0.930 . S
H431 C389 0.930 . S
H432 C391 0.929 . S
H433 C392 0.930 . S
H434 C393 0.930 . S
H435 C394 0.930 . S
H436 C398 0.929 . S
H437 C400 0.930 . S
H438 C406 0.929 . S
H439 C407 0.930 . S
Li440 N457 1.990 . S
Li440 O500 1.956 . S
Li440 O501 1.970 . S
Li440 O502 1.961 . S
Li441 N465 1.990 . S
Li441 O500 1.970 . S
Li441 O501 1.956 . S
Li441 O503 1.961 . S
Li442 N487 1.990 . S
Li442 O500 1.961 . S
Li442 O502 1.956 . S
Li442 O503 1.970 . S
Li443 N493 1.990 . S
Li443 O501 1.961 . S
Li443 O502 1.970 . S
Li443 O503 1.956 . S
C444 C446 1.348 . S
C444 C447 1.356 . S
C444 O500 1.325 . S
N445 C448 1.314 . S
N445 C449 1.279 . S
C446 C444 1.348 . S
C446 C448 1.353 . S
C446 H504 0.929 . S
C447 C444 1.356 . S
C447 C449 1.358 . S
C447 H505 0.930 . S
C448 N445 1.314 . S
C448 C446 1.353 . S
C448 H506 0.930 . S
C449 N445 1.279 . S
C449 C447 1.358 . S
C449 H507 0.930 . S
C450 C453 1.348 . S
C450 C454 1.356 . S
C450 O501 1.325 . S
C451 N452 1.279 . S
C451 C454 1.358 . S
C451 H508 0.930 . S
N452 C451 1.279 . S
N452 C455 1.314 . S
C453 C450 1.348 . S
C453 C455 1.353 . S
C453 H509 0.929 . S
C454 C450 1.356 . S
C454 C451 1.358 . S
C454 H510 0.930 . S
C455 N452 1.314 . S
C455 C453 1.353 . S
C455 H511 0.930 . S
C456 N457 1.314 . S
C456 C461 1.353 . S
C456 H462 0.930 . S
N457 Li440 1.990 . S
N457 C456 1.314 . S
N457 C459 1.279 . S
C458 C459 1.358 . S
C458 C460 1.356 . S
C458 H512 0.930 . S
C459 N457 1.279 . S
C459 C458 1.358 . S
C459 H463 0.930 . S
C460 C458 1.356 . S
C460 C461 1.348 . S
C461 C456 1.353 . S
C461 C460 1.348 . S
C461 H513 0.929 . S
H462 C456 0.930 . S
H463 C459 0.930 . S
C464 N465 1.314 . S
C464 C466 1.353 . S
C464 H470 0.930 . S
N465 Li441 1.990 . S
N465 C464 1.314 . S
N465 C468 1.279 . S
C466 C464 1.353 . S
C466 C469 1.348 . S
C466 H514 0.929 . S
C467 C468 1.358 . S
C467 C469 1.356 . S
C467 H515 0.930 . S
C468 N465 1.279 . S
C468 C467 1.358 . S
C468 H471 0.930 . S
C469 C466 1.348 . S
C469 C467 1.356 . S
H470 C464 0.930 . S
H471 C468 0.930 . S
C472 C474 1.348 . S
C472 C475 1.356 . S
C472 O502 1.325 . S
N473 C476 1.314 . S
N473 C477 1.279 . S
C474 C472 1.348 . S
C474 C476 1.353 . S
C474 H516 0.929 . S
C475 C472 1.356 . S
C475 C477 1.358 . S
C475 H517 0.930 . S
C476 N473 1.314 . S
C476 C474 1.353 . S
C476 H518 0.930 . S
C477 N473 1.279 . S
C477 C475 1.358 . S
C477 H519 0.930 . S
C478 C479 1.348 . S
C478 C480 1.356 . S
C478 O503 1.325 . S
C479 C478 1.348 . S
C479 C481 1.353 . S
C479 H520 0.929 . S
C480 C478 1.356 . S
C480 C482 1.358 . S
C480 H521 0.930 . S
C481 C479 1.353 . S
C481 N483 1.314 . S
C481 H522 0.930 . S
C482 C480 1.358 . S
C482 N483 1.279 . S
C482 H523 0.930 . S
N483 C481 1.314 . S
N483 C482 1.279 . S
C484 C486 1.353 . S
C484 N487 1.314 . S
C484 H490 0.930 . S
C485 N487 1.279 . S
C485 C488 1.358 . S
C485 H491 0.930 . S
C486 C484 1.353 . S
C486 C489 1.348 . S
C486 H524 0.929 . S
N487 Li442 1.990 . S
N487 C484 1.314 . S
N487 C485 1.279 . S
C488 C485 1.358 . S
C488 C489 1.356 . S
C488 H525 0.930 . S
C489 C486 1.348 . S
C489 C488 1.356 . S
H490 C484 0.930 . S
H491 C485 0.930 . S
C492 N493 1.314 . S
C492 C494 1.353 . S
C492 H498 0.930 . S
N493 Li443 1.990 . S
N493 C492 1.314 . S
N493 C496 1.279 . S
C494 C492 1.353 . S
C494 C497 1.348 . S
C494 H526 0.929 . S
C495 C496 1.358 . S
C495 C497 1.356 . S
C495 H527 0.930 . S
C496 N493 1.279 . S
C496 C495 1.358 . S
C496 H499 0.930 . S
C497 C494 1.348 . S
C497 C495 1.356 . S
H498 C492 0.930 . S
H499 C496 0.930 . S
O500 Li440 1.956 . S
O500 Li441 1.970 . S
O500 Li442 1.961 . S
O500 C444 1.325 . S
O501 Li440 1.970 . S
O501 Li441 1.956 . S
O501 Li443 1.961 . S
O501 C450 1.325 . S
O502 Li440 1.961 . S
O502 Li442 1.956 . S
O502 Li443 1.970 . S
O502 C472 1.325 . S
O503 Li441 1.961 . S
O503 Li442 1.970 . S
O503 Li443 1.956 . S
O503 C478 1.325 . S
H504 C446 0.929 . S
H505 C447 0.930 . S
H506 C448 0.930 . S
H507 C449 0.930 . S
H508 C451 0.930 . S
H509 C453 0.929 . S
H510 C454 0.930 . S
H511 C455 0.930 . S
H512 C458 0.930 . S
H513 C461 0.929 . S
H514 C466 0.929 . S
H515 C467 0.930 . S
H516 C474 0.929 . S
H517 C475 0.930 . S
H518 C476 0.930 . S
H519 C477 0.930 . S
H520 C479 0.929 . S
H521 C480 0.930 . S
H522 C481 0.930 . S
H523 C482 0.930 . S
H524 C486 0.929 . S
H525 C488 0.930 . S
H526 C494 0.929 . S
H527 C495 0.930 . S
Li528 N545 1.990 . S
Li528 O588 1.956 1_565 S
Li528 O589 1.970 . S
Li528 O590 1.961 1_565 S
Li529 N553 1.990 . S
Li529 O588 1.970 . S
Li529 O589 1.956 1_545 S
Li529 O591 1.961 . S
Li530 N575 1.990 . S
Li530 O588 1.961 . S
Li530 O590 1.956 . S
Li530 O591 1.970 . S
Li531 N581 1.990 . S
Li531 O589 1.961 1_545 S
Li531 O590 1.970 . S
Li531 O591 1.956 . S
C532 C534 1.348 . S
C532 C535 1.356 . S
C532 O588 1.325 . S
N533 C536 1.314 . S
N533 C537 1.279 . S
C534 C532 1.348 . S
C534 C536 1.353 . S
C534 H592 0.929 1_545 S
C535 C532 1.356 . S
C535 C537 1.358 . S
C535 H593 0.930 . S
C536 N533 1.314 . S
C536 C534 1.353 . S
C536 H594 0.930 1_545 S
C537 N533 1.279 . S
C537 C535 1.358 . S
C537 H595 0.930 . S
C538 C541 1.348 . S
C538 C542 1.356 . S
C538 O589 1.325 . S
C539 N540 1.279 . S
C539 C542 1.358 . S
C539 H596 0.930 . S
N540 C539 1.279 . S
N540 C543 1.314 . S
C541 C538 1.348 . S
C541 C543 1.353 . S
C541 H597 0.929 . S
C542 C538 1.356 . S
C542 C539 1.358 . S
C542 H598 0.930 . S
C543 N540 1.314 . S
C543 C541 1.353 . S
C543 H599 0.930 . S
C544 N545 1.314 . S
C544 C549 1.353 . S
C544 H550 0.930 . S
N545 Li528 1.990 . S
N545 C544 1.314 . S
N545 C547 1.279 . S
C546 C547 1.358 . S
C546 C548 1.356 . S
C546 H600 0.930 . S
C547 N545 1.279 . S
C547 C546 1.358 . S
C547 H551 0.930 . S
C548 C546 1.356 . S
C548 C549 1.348 . S
C549 C544 1.353 . S
C549 C548 1.348 . S
C549 H601 0.929 . S
H550 C544 0.930 . S
H551 C547 0.930 . S
C552 N553 1.314 . S
C552 C554 1.353 . S
C552 H558 0.930 . S
N553 Li529 1.990 . S
N553 C552 1.314 . S
N553 C556 1.279 1_545 S
C554 C552 1.353 . S
C554 C557 1.348 . S
C554 H602 0.929 . S
C555 C556 1.358 . S
C555 C557 1.356 1_565 S
C555 H603 0.930 . S
C556 N553 1.279 1_565 S
C556 C555 1.358 . S
C556 H559 0.930 . S
C557 C554 1.348 . S
C557 C555 1.356 1_545 S
H558 C552 0.930 . S
H559 C556 0.930 . S
C560 C562 1.348 . S
C560 C563 1.356 . S
C560 O590 1.325 . S
N561 C564 1.314 . S
N561 C565 1.279 . S
C562 C560 1.348 . S
C562 C564 1.353 . S
C562 H604 0.929 . S
C563 C560 1.356 . S
C563 C565 1.358 . S
C563 H605 0.930 . S
C564 N561 1.314 . S
C564 C562 1.353 . S
C564 H606 0.930 . S
C565 N561 1.279 . S
C565 C563 1.358 . S
C565 H607 0.930 . S
C566 C567 1.348 . S
C566 C568 1.356 . S
C566 O591 1.325 . S
C567 C566 1.348 . S
C567 C569 1.353 . S
C567 H608 0.929 . S
C568 C566 1.356 . S
C568 C570 1.358 . S
C568 H609 0.930 . S
C569 C567 1.353 . S
C569 N571 1.314 . S
C569 H610 0.930 . S
C570 C568 1.358 . S
C570 N571 1.279 . S
C570 H611 0.930 . S
N571 C569 1.314 . S
N571 C570 1.279 . S
C572 C574 1.353 . S
C572 N575 1.314 . S
C572 H578 0.930 . S
C573 N575 1.279 . S
C573 C576 1.358 . S
C573 H579 0.930 . S
C574 C572 1.353 . S
C574 C577 1.348 . S
C574 H612 0.929 . S
N575 Li530 1.990 . S
N575 C572 1.314 . S
N575 C573 1.279 . S
C576 C573 1.358 . S
C576 C577 1.356 . S
C576 H613 0.930 . S
C577 C574 1.348 . S
C577 C576 1.356 . S
H578 C572 0.930 . S
H579 C573 0.930 . S
C580 N581 1.314 1_565 S
C580 C582 1.353 . S
C580 H586 0.930 . S
N581 Li531 1.990 . S
N581 C580 1.314 1_545 S
N581 C584 1.279 . S
C582 C580 1.353 . S
C582 C585 1.348 1_565 S
C582 H614 0.929 . S
C583 C584 1.358 . S
C583 C585 1.356 . S
C583 H615 0.930 . S
C584 N581 1.279 . S
C584 C583 1.358 . S
C584 H587 0.930 . S
C585 C582 1.348 1_545 S
C585 C583 1.356 . S
H586 C580 0.930 . S
H587 C584 0.930 . S
O588 Li528 1.956 1_545 S
O588 Li529 1.970 . S
O588 Li530 1.961 . S
O588 C532 1.325 . S
O589 Li528 1.970 . S
O589 Li529 1.956 1_565 S
O589 Li531 1.961 1_565 S
O589 C538 1.325 . S
O590 Li528 1.961 1_545 S
O590 Li530 1.956 . S
O590 Li531 1.970 . S
O590 C560 1.325 . S
O591 Li529 1.961 . S
O591 Li530 1.970 . S
O591 Li531 1.956 . S
O591 C566 1.325 . S
H592 C534 0.929 1_565 S
H593 C535 0.930 . S
H594 C536 0.930 1_565 S
H595 C537 0.930 . S
H596 C539 0.930 . S
H597 C541 0.929 . S
H598 C542 0.930 . S
H599 C543 0.930 . S
H600 C546 0.930 . S
H601 C549 0.929 . S
H602 C554 0.929 . S
H603 C555 0.930 . S
H604 C562 0.929 . S
H605 C563 0.930 . S
H606 C564 0.930 . S
H607 C565 0.930 . S
H608 C567 0.929 . S
H609 C568 0.930 . S
H610 C569 0.930 . S
H611 C570 0.930 . S
H612 C574 0.929 . S
H613 C576 0.930 . S
H614 C582 0.929 . S
H615 C583 0.930 . S
Li616 N633 1.990 . S
Li616 O676 1.956 . S
Li616 O677 1.970 . S
Li616 O678 1.961 . S
Li617 N641 1.990 . S
Li617 O676 1.970 . S
Li617 O677 1.956 . S
Li617 O679 1.961 1_554 S
Li618 N663 1.990 . S
Li618 O676 1.961 1_556 S
Li618 O678 1.956 1_556 S
Li618 O679 1.970 . S
Li619 N669 1.990 . S
Li619 O677 1.961 . S
Li619 O678 1.970 . S
Li619 O679 1.956 1_554 S
C620 C622 1.348 . S
C620 C623 1.356 . S
C620 O676 1.325 . S
N621 C624 1.314 . S
N621 C625 1.279 . S
C622 C620 1.348 . S
C622 C624 1.353 . S
C622 H680 0.929 . S
C623 C620 1.356 . S
C623 C625 1.358 . S
C623 H681 0.921 1_554 S
C624 N621 1.314 . S
C624 C622 1.353 . S
C624 H682 0.930 . S
C625 N621 1.279 . S
C625 C623 1.358 . S
C625 H683 0.922 1_554 S
C626 C629 1.348 . S
C626 C630 1.356 . S
C626 O677 1.325 . S
C627 N628 1.279 . S
C627 C630 1.358 . S
C627 H684 0.930 . S
N628 C627 1.279 . S
N628 C631 1.314 . S
C629 C626 1.348 . S
C629 C631 1.353 . S
C629 H685 0.929 . S
C630 C626 1.356 . S
C630 C627 1.358 . S
C630 H686 0.930 . S
C631 N628 1.314 . S
C631 C629 1.353 . S
C631 H687 0.930 . S
C632 N633 1.314 . S
C632 C637 1.353 . S
C632 H638 0.930 . S
N633 Li616 1.990 . S
N633 C632 1.314 . S
N633 C635 1.279 . S
C634 C635 1.358 . S
C634 C636 1.356 . S
C634 H688 0.930 . S
C635 N633 1.279 . S
C635 C634 1.358 . S
C635 H639 0.930 . S
C636 C634 1.356 . S
C636 C637 1.348 . S
C637 C632 1.353 . S
C637 C636 1.348 . S
C637 H689 0.929 . S
H638 C632 0.930 . S
H639 C635 0.930 . S
C640 N641 1.314 1_556 S
C640 C642 1.353 . S
C640 H646 0.930 . S
N641 Li617 1.990 . S
N641 C640 1.314 1_554 S
N641 C644 1.279 . S
C642 C640 1.353 . S
C642 C645 1.348 1_556 S
C642 H690 0.929 . S
C643 C644 1.358 . S
C643 C645 1.356 . S
C643 H691 0.930 . S
C644 N641 1.279 . S
C644 C643 1.358 . S
C644 H647 0.930 . S
C645 C642 1.348 1_554 S
C645 C643 1.356 . S
H646 C640 0.930 . S
H647 C644 0.930 . S
C648 C650 1.347 1_554 S
C648 C651 1.356 . S
C648 O678 1.325 . S
N649 C652 1.314 1_554 S
N649 C653 1.279 . S
C650 C648 1.347 1_556 S
C650 C652 1.353 . S
C650 H692 0.930 . S
C651 C648 1.356 . S
C651 C653 1.358 . S
C651 H693 0.930 . S
C652 N649 1.314 1_556 S
C652 C650 1.353 . S
C652 H694 0.930 . S
C653 N649 1.279 . S
C653 C651 1.358 . S
C653 H695 0.930 . S
C654 C655 1.348 . S
C654 C656 1.356 . S
C654 O679 1.325 . S
C655 C654 1.348 . S
C655 C657 1.353 . S
C655 H696 0.929 . S
C656 C654 1.356 . S
C656 C658 1.358 . S
C656 H697 0.930 . S
C657 C655 1.353 . S
C657 N659 1.314 . S
C657 H698 0.930 . S
C658 C656 1.358 . S
C658 N659 1.279 . S
C658 H699 0.930 . S
N659 C657 1.314 . S
N659 C658 1.279 . S
C660 C662 1.353 . S
C660 N663 1.314 . S
C660 H666 0.930 . S
C661 N663 1.279 . S
C661 C664 1.358 . S
C661 H667 0.930 . S
C662 C660 1.353 . S
C662 C665 1.348 . S
C662 H700 0.929 . S
N663 Li618 1.990 . S
N663 C660 1.314 . S
N663 C661 1.279 . S
C664 C661 1.358 . S
C664 C665 1.356 . S
C664 H701 0.930 . S
C665 C662 1.348 . S
C665 C664 1.356 . S
H666 C660 0.930 . S
H667 C661 0.930 . S
C668 N669 1.314 . S
C668 C670 1.353 . S
C668 H674 0.930 . S
N669 Li619 1.990 . S
N669 C668 1.314 . S
N669 C672 1.279 1_554 S
C670 C668 1.353 . S
C670 C673 1.348 . S
C670 H702 0.929 . S
C671 C672 1.358 . S
C671 C673 1.356 1_556 S
C671 H703 0.930 . S
C672 N669 1.279 1_556 S
C672 C671 1.358 . S
C672 H675 0.930 . S
C673 C670 1.348 . S
C673 C671 1.356 1_554 S
H674 C668 0.930 . S
H675 C672 0.930 . S
O676 Li616 1.956 . S
O676 Li617 1.970 . S
O676 Li618 1.961 1_554 S
O676 C620 1.325 . S
O677 Li616 1.970 . S
O677 Li617 1.956 . S
O677 Li619 1.961 . S
O677 C626 1.325 . S
O678 Li616 1.961 . S
O678 Li618 1.956 1_554 S
O678 Li619 1.970 . S
O678 C648 1.325 . S
O679 Li617 1.961 1_556 S
O679 Li618 1.970 . S
O679 Li619 1.956 1_556 S
O679 C654 1.325 . S
H680 C622 0.929 . S
H681 C623 0.921 1_556 S
H682 C624 0.930 . S
H683 C625 0.922 1_556 S
H684 C627 0.930 . S
H685 C629 0.929 . S
H686 C630 0.930 . S
H687 C631 0.930 . S
H688 C634 0.930 . S
H689 C637 0.929 . S
H690 C642 0.929 . S
H691 C643 0.930 . S
H692 C650 0.930 . S
H693 C651 0.930 . S
H694 C652 0.930 . S
H695 C653 0.930 . S
H696 C655 0.929 . S
H697 C656 0.930 . S
H698 C657 0.930 . S
H699 C658 0.930 . S
H700 C662 0.929 . S
H701 C664 0.930 . S
H702 C670 0.929 . S
H703 C671 0.930 . S
Li704 N721 1.990 . S
Li704 O764 1.956 . S
Li704 O765 1.970 . S
Li704 O766 1.961 1_554 S
Li705 N729 1.990 . S
Li705 O764 1.970 . S
Li705 O765 1.956 . S
Li705 O767 1.961 . S
Li706 N751 1.990 . S
Li706 O764 1.961 . S
Li706 O766 1.956 1_554 S
Li706 O767 1.970 . S
Li707 N757 1.990 . S
Li707 O765 1.961 1_556 S
Li707 O766 1.970 . S
Li707 O767 1.956 1_556 S
C708 C710 1.348 . S
C708 C711 1.356 . S
C708 O764 1.325 . S
N709 C712 1.314 . S
N709 C713 1.279 . S
C710 C708 1.348 . S
C710 C712 1.353 . S
C710 H768 0.929 . S
C711 C708 1.356 . S
C711 C713 1.358 . S
C711 H769 0.930 . S
C712 N709 1.314 . S
C712 C710 1.353 . S
C712 H770 0.930 . S
C713 N709 1.279 . S
C713 C711 1.358 . S
C713 H771 0.930 . S
C714 C717 1.348 . S
C714 C718 1.369 . S
C714 O765 1.325 . S
C715 N716 1.279 . S
C715 C718 1.362 . S
C715 H772 0.930 1_554 S
N716 C715 1.279 . S
N716 C719 1.314 . S
C717 C714 1.348 . S
C717 C719 1.353 . S
C717 H773 0.929 . S
C718 C714 1.369 . S
C718 C715 1.362 . S
C718 H774 0.918 1_554 S
C719 N716 1.314 . S
C719 C717 1.353 . S
C719 H775 0.930 . S
C720 N721 1.314 1_556 S
C720 C725 1.353 . S
C720 H726 0.930 . S
N721 Li704 1.990 . S
N721 C720 1.314 1_554 S
N721 C723 1.279 . S
C722 C723 1.358 . S
C722 C724 1.356 . S
C722 H776 0.930 . S
C723 N721 1.279 . S
C723 C722 1.358 . S
C723 H727 0.930 . S
C724 C722 1.356 . S
C724 C725 1.348 1_554 S
C725 C720 1.353 . S
C725 C724 1.348 1_556 S
C725 H777 0.929 . S
H726 C720 0.930 . S
H727 C723 0.930 . S
C728 N729 1.314 . S
C728 C730 1.353 . S
C728 H734 0.930 . S
N729 Li705 1.990 . S
N729 C728 1.314 . S
N729 C732 1.279 . S
C730 C728 1.353 . S
C730 C733 1.348 . S
C730 H778 0.929 . S
C731 C732 1.358 . S
C731 C733 1.356 . S
C731 H779 0.930 . S
C732 N729 1.279 . S
C732 C731 1.358 . S
C732 H735 0.930 . S
C733 C730 1.348 . S
C733 C731 1.356 . S
H734 C728 0.930 . S
H735 C732 0.930 . S
C736 C738 1.348 . S
C736 C739 1.356 . S
C736 O766 1.325 . S
N737 C740 1.314 . S
N737 C741 1.279 . S
C738 C736 1.348 . S
C738 C740 1.353 . S
C738 H780 0.929 . S
C739 C736 1.356 . S
C739 C741 1.358 . S
C739 H781 0.930 . S
C740 N737 1.314 . S
C740 C738 1.353 . S
C740 H782 0.930 . S
C741 N737 1.279 . S
C741 C739 1.358 . S
C741 H783 0.930 . S
C742 C743 1.331 1_554 S
C742 C744 1.356 . S
C742 O767 1.325 . S
C743 C742 1.331 1_556 S
C743 C745 1.353 . S
C743 H784 0.949 . S
C744 C742 1.356 . S
C744 C746 1.358 . S
C744 H785 0.930 . S
C745 C743 1.353 . S
C745 N747 1.302 1_556 S
C745 H786 0.946 . S
C746 C744 1.358 . S
C746 N747 1.279 . S
C746 H787 0.930 . S
N747 C745 1.302 1_554 S
N747 C746 1.279 . S
C748 C750 1.353 . S
C748 N751 1.314 . S
C748 H754 0.930 . S
C749 N751 1.279 1_556 S
C749 C752 1.358 . S
C749 H755 0.930 . S
C750 C748 1.353 . S
C750 C753 1.348 . S
C750 H788 0.929 . S
N751 Li706 1.990 . S
N751 C748 1.314 . S
N751 C749 1.279 1_554 S
C752 C749 1.358 . S
C752 C753 1.356 1_556 S
C752 H789 0.930 . S
C753 C750 1.348 . S
C753 C752 1.356 1_554 S
H754 C748 0.930 . S
H755 C749 0.930 . S
C756 N757 1.314 . S
C756 C758 1.353 . S
C756 H762 0.930 . S
N757 Li707 1.990 . S
N757 C756 1.314 . S
N757 C760 1.279 . S
C758 C756 1.353 . S
C758 C761 1.348 . S
C758 H790 0.929 . S
C759 C760 1.358 . S
C759 C761 1.356 . S
C759 H791 0.930 . S
C760 N757 1.279 . S
C760 C759 1.358 . S
C760 H763 0.930 . S
C761 C758 1.348 . S
C761 C759 1.356 . S
H762 C756 0.930 . S
H763 C760 0.930 . S
O764 Li704 1.956 . S
O764 Li705 1.970 . S
O764 Li706 1.961 . S
O764 C708 1.325 . S
O765 Li704 1.970 . S
O765 Li705 1.956 . S
O765 Li707 1.961 1_554 S
O765 C714 1.325 . S
O766 Li704 1.961 1_556 S
O766 Li706 1.956 1_556 S
O766 Li707 1.970 . S
O766 C736 1.325 . S
O767 Li705 1.961 . S
O767 Li706 1.970 . S
O767 Li707 1.956 1_554 S
O767 C742 1.325 . S
H768 C710 0.929 . S
H769 C711 0.930 . S
H770 C712 0.930 . S
H771 C713 0.930 . S
H772 C715 0.930 1_556 S
H773 C717 0.929 . S
H774 C718 0.918 1_556 S
H775 C719 0.930 . S
H776 C722 0.930 . S
H777 C725 0.929 . S
H778 C730 0.929 . S
H779 C731 0.930 . S
H780 C738 0.929 . S
H781 C739 0.930 . S
H782 C740 0.930 . S
H783 C741 0.930 . S
H784 C743 0.949 . S
H785 C744 0.930 . S
H786 C745 0.946 . S
H787 C746 0.930 . S
H788 C750 0.929 . S
H789 C752 0.930 . S
H790 C758 0.929 . S
H791 C759 0.930 . S
Li792 N809 1.990 . S
Li792 O852 1.956 . S
Li792 O853 1.970 . S
Li792 O854 1.961 . S
Li793 N817 1.990 . S
Li793 O852 1.970 . S
Li793 O853 1.956 . S
Li793 O855 1.961 . S
Li794 N839 1.990 . S
Li794 O852 1.961 . S
Li794 O854 1.956 . S
Li794 O855 1.970 . S
Li795 N845 1.990 . S
Li795 O853 1.961 . S
Li795 O854 1.970 . S
Li795 O855 1.956 . S
C796 C798 1.348 . S
C796 C799 1.356 . S
C796 O852 1.325 . S
N797 C800 1.314 . S
N797 C801 1.279 . S
C798 C796 1.348 . S
C798 C800 1.353 . S
C798 H856 0.929 . S
C799 C796 1.356 . S
C799 C801 1.358 . S
C799 H857 0.930 . S
C800 N797 1.314 . S
C800 C798 1.353 . S
C800 H858 0.930 . S
C801 N797 1.279 . S
C801 C799 1.358 . S
C801 H859 0.930 . S
C802 C805 1.348 . S
C802 C806 1.356 . S
C802 O853 1.325 . S
C803 N804 1.279 . S
C803 C806 1.358 . S
C803 H860 0.930 . S
N804 C803 1.279 . S
N804 C807 1.314 . S
C805 C802 1.348 . S
C805 C807 1.353 . S
C805 H861 0.929 . S
C806 C802 1.356 . S
C806 C803 1.358 . S
C806 H862 0.930 . S
C807 N804 1.314 . S
C807 C805 1.353 . S
C807 H863 0.930 . S
C808 N809 1.314 . S
C808 C813 1.353 . S
C808 H814 0.930 . S
N809 Li792 1.990 . S
N809 C808 1.314 . S
N809 C811 1.279 . S
C810 C811 1.358 . S
C810 C812 1.356 . S
C810 H864 0.930 . S
C811 N809 1.279 . S
C811 C810 1.358 . S
C811 H815 0.930 . S
C812 C810 1.356 . S
C812 C813 1.348 . S
C813 C808 1.353 . S
C813 C812 1.348 . S
C813 H865 0.929 . S
H814 C808 0.930 . S
H815 C811 0.930 . S
C816 N817 1.314 . S
C816 C818 1.353 . S
C816 H822 0.930 . S
N817 Li793 1.990 . S
N817 C816 1.314 . S
N817 C820 1.279 . S
C818 C816 1.353 . S
C818 C821 1.348 . S
C818 H866 0.929 . S
C819 C820 1.358 . S
C819 C821 1.356 . S
C819 H867 0.930 . S
C820 N817 1.279 . S
C820 C819 1.358 . S
C820 H823 0.930 . S
C821 C818 1.348 . S
C821 C819 1.356 . S
H822 C816 0.930 . S
H823 C820 0.930 . S
C824 C826 1.348 . S
C824 C827 1.356 . S
C824 O854 1.325 . S
N825 C828 1.314 . S
N825 C829 1.279 . S
C826 C824 1.348 . S
C826 C828 1.353 . S
C826 H868 0.929 . S
C827 C824 1.356 . S
C827 C829 1.358 . S
C827 H869 0.930 . S
C828 N825 1.314 . S
C828 C826 1.353 . S
C828 H870 0.930 . S
C829 N825 1.279 . S
C829 C827 1.358 . S
C829 H871 0.930 . S
C830 C831 1.348 . S
C830 C832 1.356 . S
C830 O855 1.325 . S
C831 C830 1.348 . S
C831 C833 1.353 . S
C831 H872 0.929 . S
C832 C830 1.356 . S
C832 C834 1.358 . S
C832 H873 0.930 . S
C833 C831 1.353 . S
C833 N835 1.314 . S
C833 H874 0.930 . S
C834 C832 1.358 . S
C834 N835 1.279 . S
C834 H875 0.930 . S
N835 C833 1.314 . S
N835 C834 1.279 . S
C836 C838 1.353 . S
C836 N839 1.314 . S
C836 H842 0.930 . S
C837 N839 1.279 . S
C837 C840 1.358 . S
C837 H843 0.930 . S
C838 C836 1.353 . S
C838 C841 1.348 . S
C838 H876 0.929 . S
N839 Li794 1.990 . S
N839 C836 1.314 . S
N839 C837 1.279 . S
C840 C837 1.358 . S
C840 C841 1.356 . S
C840 H877 0.930 . S
C841 C838 1.348 . S
C841 C840 1.356 . S
H842 C836 0.930 . S
H843 C837 0.930 . S
C844 N845 1.314 . S
C844 C846 1.353 . S
C844 H850 0.930 . S
N845 Li795 1.990 . S
N845 C844 1.314 . S
N845 C848 1.279 . S
C846 C844 1.353 . S
C846 C849 1.348 . S
C846 H878 0.929 . S
C847 C848 1.358 . S
C847 C849 1.356 . S
C847 H879 0.930 . S
C848 N845 1.279 . S
C848 C847 1.358 . S
C848 H851 0.930 . S
C849 C846 1.348 . S
C849 C847 1.356 . S
H850 C844 0.930 . S
H851 C848 0.930 . S
O852 Li792 1.956 . S
O852 Li793 1.970 . S
O852 Li794 1.961 . S
O852 C796 1.325 . S
O853 Li792 1.970 . S
O853 Li793 1.956 . S
O853 Li795 1.961 . S
O853 C802 1.325 . S
O854 Li792 1.961 . S
O854 Li794 1.956 . S
O854 Li795 1.970 . S
O854 C824 1.325 . S
O855 Li793 1.961 . S
O855 Li794 1.970 . S
O855 Li795 1.956 . S
O855 C830 1.325 . S
H856 C798 0.929 . S
H857 C799 0.930 . S
H858 C800 0.930 . S
H859 C801 0.930 . S
H860 C803 0.930 . S
H861 C805 0.929 . S
H862 C806 0.930 . S
H863 C807 0.930 . S
H864 C810 0.930 . S
H865 C813 0.929 . S
H866 C818 0.929 . S
H867 C819 0.930 . S
H868 C826 0.929 . S
H869 C827 0.930 . S
H870 C828 0.930 . S
H871 C829 0.930 . S
H872 C831 0.929 . S
H873 C832 0.930 . S
H874 C833 0.930 . S
H875 C834 0.930 . S
H876 C838 0.929 . S
H877 C840 0.930 . S
H878 C846 0.929 . S
H879 C847 0.930 . S
Li880 N897 1.990 . S
Li880 O940 1.956 . S
Li880 O941 1.970 . S
Li880 O942 1.961 . S
Li881 N905 1.990 . S
Li881 O940 1.970 . S
Li881 O941 1.956 . S
Li881 O943 1.961 . S
Li882 N927 1.990 . S
Li882 O940 1.961 . S
Li882 O942 1.956 . S
Li882 O943 1.970 . S
Li883 N933 1.990 . S
Li883 O941 1.961 . S
Li883 O942 1.970 . S
Li883 O943 1.956 . S
C884 C886 1.348 . S
C884 C887 1.356 . S
C884 O940 1.325 . S
N885 C888 1.314 . S
N885 C889 1.279 . S
C886 C884 1.348 . S
C886 C888 1.353 . S
C886 H944 0.929 . S
C887 C884 1.356 . S
C887 C889 1.358 . S
C887 H945 0.930 . S
C888 N885 1.314 . S
C888 C886 1.353 . S
C888 H946 0.930 . S
C889 N885 1.279 . S
C889 C887 1.358 . S
C889 H947 0.930 . S
C890 C893 1.348 . S
C890 C894 1.356 . S
C890 O941 1.325 . S
C891 N892 1.279 . S
C891 C894 1.358 . S
C891 H948 0.930 . S
N892 C891 1.279 . S
N892 C895 1.314 . S
C893 C890 1.348 . S
C893 C895 1.353 . S
C893 H949 0.929 . S
C894 C890 1.356 . S
C894 C891 1.358 . S
C894 H950 0.930 . S
C895 N892 1.314 . S
C895 C893 1.353 . S
C895 H951 0.930 . S
C896 N897 1.314 . S
C896 C901 1.353 . S
C896 H902 0.930 . S
N897 Li880 1.990 . S
N897 C896 1.314 . S
N897 C899 1.279 . S
C898 C899 1.358 . S
C898 C900 1.356 . S
C898 H952 0.930 . S
C899 N897 1.279 . S
C899 C898 1.358 . S
C899 H903 0.930 . S
C900 C898 1.356 . S
C900 C901 1.348 . S
C901 C896 1.353 . S
C901 C900 1.348 . S
C901 H953 0.929 . S
H902 C896 0.930 . S
H903 C899 0.930 . S
C904 N905 1.314 . S
C904 C906 1.353 . S
C904 H910 0.930 . S
N905 Li881 1.990 . S
N905 C904 1.314 . S
N905 C908 1.279 . S
C906 C904 1.353 . S
C906 C909 1.348 . S
C906 H954 0.929 . S
C907 C908 1.358 . S
C907 C909 1.356 . S
C907 H955 0.930 . S
C908 N905 1.279 . S
C908 C907 1.358 . S
C908 H911 0.930 . S
C909 C906 1.348 . S
C909 C907 1.356 . S
H910 C904 0.930 . S
H911 C908 0.930 . S
C912 C914 1.348 . S
C912 C915 1.356 . S
C912 O942 1.325 . S
N913 C916 1.314 . S
N913 C917 1.279 . S
C914 C912 1.348 . S
C914 C916 1.353 . S
C914 H956 0.929 . S
C915 C912 1.356 . S
C915 C917 1.358 . S
C915 H957 0.930 . S
C916 N913 1.314 . S
C916 C914 1.353 . S
C916 H958 0.930 . S
C917 N913 1.279 . S
C917 C915 1.358 . S
C917 H959 0.930 . S
C918 C919 1.348 . S
C918 C920 1.356 . S
C918 O943 1.325 . S
C919 C918 1.348 . S
C919 C921 1.353 . S
C919 H960 0.929 . S
C920 C918 1.356 . S
C920 C922 1.358 . S
C920 H961 0.930 . S
C921 C919 1.353 . S
C921 N923 1.314 . S
C921 H962 0.930 . S
C922 C920 1.358 . S
C922 N923 1.279 . S
C922 H963 0.930 . S
N923 C921 1.314 . S
N923 C922 1.279 . S
C924 C926 1.353 . S
C924 N927 1.314 . S
C924 H930 0.930 . S
C925 N927 1.279 . S
C925 C928 1.358 . S
C925 H931 0.930 . S
C926 C924 1.353 . S
C926 C929 1.348 . S
C926 H964 0.929 . S
N927 Li882 1.990 . S
N927 C924 1.314 . S
N927 C925 1.279 . S
C928 C925 1.358 . S
C928 C929 1.356 . S
C928 H965 0.930 . S
C929 C926 1.348 . S
C929 C928 1.356 . S
H930 C924 0.930 . S
H931 C925 0.930 . S
C932 N933 1.314 . S
C932 C934 1.353 . S
C932 H938 0.930 . S
N933 Li883 1.990 . S
N933 C932 1.314 . S
N933 C936 1.279 . S
C934 C932 1.353 . S
C934 C937 1.348 . S
C934 H966 0.929 . S
C935 C936 1.358 . S
C935 C937 1.356 . S
C935 H967 0.930 . S
C936 N933 1.279 . S
C936 C935 1.358 . S
C936 H939 0.930 . S
C937 C934 1.348 . S
C937 C935 1.356 . S
H938 C932 0.930 . S
H939 C936 0.930 . S
O940 Li880 1.956 . S
O940 Li881 1.970 . S
O940 Li882 1.961 . S
O940 C884 1.325 . S
O941 Li880 1.970 . S
O941 Li881 1.956 . S
O941 Li883 1.961 . S
O941 C890 1.325 . S
O942 Li880 1.961 . S
O942 Li882 1.956 . S
O942 Li883 1.970 . S
O942 C912 1.325 . S
O943 Li881 1.961 . S
O943 Li882 1.970 . S
O943 Li883 1.956 . S
O943 C918 1.325 . S
H944 C886 0.929 . S
H945 C887 0.930 . S
H946 C888 0.930 . S
H947 C889 0.930 . S
H948 C891 0.930 . S
H949 C893 0.929 . S
H950 C894 0.930 . S
H951 C895 0.930 . S
H952 C898 0.930 . S
H953 C901 0.929 . S
H954 C906 0.929 . S
H955 C907 0.930 . S
H956 C914 0.929 . S
H957 C915 0.930 . S
H958 C916 0.930 . S
H959 C917 0.930 . S
H960 C919 0.929 . S
H961 C920 0.930 . S
H962 C921 0.930 . S
H963 C922 0.930 . S
H964 C926 0.929 . S
H965 C928 0.930 . S
H966 C934 0.929 . S
H967 C935 0.930 . S
Li968 N985 1.990 . S
Li968 O1028 1.956 . S
Li968 O1029 1.970 . S
Li968 O1030 1.961 . S
Li969 N993 1.990 . S
Li969 O1028 1.970 . S
Li969 O1029 1.956 . S
Li969 O1031 1.961 . S
Li970 N1015 1.990 . S
Li970 O1028 1.961 . S
Li970 O1030 1.956 . S
Li970 O1031 1.970 . S
Li971 N1021 1.990 . S
Li971 O1029 1.961 . S
Li971 O1030 1.970 . S
Li971 O1031 1.956 . S
C972 C974 1.348 . S
C972 C975 1.356 . S
C972 O1028 1.325 . S
N973 C976 1.314 . S
N973 C977 1.279 . S
C974 C972 1.348 . S
C974 C976 1.353 . S
C974 H1032 0.929 . S
C975 C972 1.356 . S
C975 C977 1.358 . S
C975 H1033 0.930 . S
C976 N973 1.314 . S
C976 C974 1.353 . S
C976 H1034 0.930 . S
C977 N973 1.279 . S
C977 C975 1.358 . S
C977 H1035 0.930 . S
C978 C981 1.348 . S
C978 C982 1.356 . S
C978 O1029 1.325 . S
C979 N980 1.279 . S
C979 C982 1.358 . S
C979 H1036 0.930 . S
N980 C979 1.279 . S
N980 C983 1.314 . S
C981 C978 1.348 . S
C981 C983 1.353 . S
C981 H1037 0.929 . S
C982 C978 1.356 . S
C982 C979 1.358 . S
C982 H1038 0.930 . S
C983 N980 1.314 . S
C983 C981 1.353 . S
C983 H1039 0.930 . S
C984 N985 1.314 . S
C984 C989 1.353 . S
C984 H990 0.930 . S
N985 Li968 1.990 . S
N985 C984 1.314 . S
N985 C987 1.279 . S
C986 C987 1.358 . S
C986 C988 1.356 . S
C986 H1040 0.930 . S
C987 N985 1.279 . S
C987 C986 1.358 . S
C987 H991 0.930 . S
C988 C986 1.356 . S
C988 C989 1.348 . S
C989 C984 1.353 . S
C989 C988 1.348 . S
C989 H1041 0.929 . S
H990 C984 0.930 . S
H991 C987 0.930 . S
C992 N993 1.314 . S
C992 C994 1.353 . S
C992 H998 0.930 . S
N993 Li969 1.990 . S
N993 C992 1.314 . S
N993 C996 1.279 . S
C994 C992 1.353 . S
C994 C997 1.348 . S
C994 H1042 0.929 . S
C995 C996 1.358 . S
C995 C997 1.356 . S
C995 H1043 0.930 . S
C996 N993 1.279 . S
C996 C995 1.358 . S
C996 H999 0.930 . S
C997 C994 1.348 . S
C997 C995 1.356 . S
H998 C992 0.930 . S
H999 C996 0.930 . S
C1000 C1002 1.348 . S
C1000 C1003 1.356 . S
C1000 O1030 1.325 . S
N1001 C1004 1.314 . S
N1001 C1005 1.279 . S
C1002 C1000 1.348 . S
C1002 C1004 1.353 . S
C1002 H1044 0.929 . S
C1003 C1000 1.356 . S
C1003 C1005 1.358 . S
C1003 H1045 0.930 . S
C1004 N1001 1.314 . S
C1004 C1002 1.353 . S
C1004 H1046 0.930 . S
C1005 N1001 1.279 . S
C1005 C1003 1.358 . S
C1005 H1047 0.930 . S
C1006 C1007 1.348 . S
C1006 C1008 1.356 . S
C1006 O1031 1.325 . S
C1007 C1006 1.348 . S
C1007 C1009 1.353 . S
C1007 H1048 0.929 . S
C1008 C1006 1.356 . S
C1008 C1010 1.358 . S
C1008 H1049 0.930 . S
C1009 C1007 1.353 . S
C1009 N1011 1.314 . S
C1009 H1050 0.930 . S
C1010 C1008 1.358 . S
C1010 N1011 1.279 . S
C1010 H1051 0.930 . S
N1011 C1009 1.314 . S
N1011 C1010 1.279 . S
C1012 C1014 1.353 . S
C1012 N1015 1.314 . S
C1012 H1018 0.930 . S
C1013 N1015 1.279 . S
C1013 C1016 1.358 . S
C1013 H1019 0.930 . S
C1014 C1012 1.353 . S
C1014 C1017 1.348 . S
C1014 H1052 0.929 . S
N1015 Li970 1.990 . S
N1015 C1012 1.314 . S
N1015 C1013 1.279 . S
C1016 C1013 1.358 . S
C1016 C1017 1.356 . S
C1016 H1053 0.930 . S
C1017 C1014 1.348 . S
C1017 C1016 1.356 . S
H1018 C1012 0.930 . S
H1019 C1013 0.930 . S
C1020 N1021 1.314 . S
C1020 C1022 1.353 . S
C1020 H1026 0.930 . S
N1021 Li971 1.990 . S
N1021 C1020 1.314 . S
N1021 C1024 1.279 . S
C1022 C1020 1.353 . S
C1022 C1025 1.348 . S
C1022 H1054 0.929 . S
C1023 C1024 1.358 . S
C1023 C1025 1.356 . S
C1023 H1055 0.930 . S
C1024 N1021 1.279 . S
C1024 C1023 1.358 . S
C1024 H1027 0.930 . S
C1025 C1022 1.348 . S
C1025 C1023 1.356 . S
H1026 C1020 0.930 . S
H1027 C1024 0.930 . S
O1028 Li968 1.956 . S
O1028 Li969 1.970 . S
O1028 Li970 1.961 . S
O1028 C972 1.325 . S
O1029 Li968 1.970 . S
O1029 Li969 1.956 . S
O1029 Li971 1.961 . S
O1029 C978 1.325 . S
O1030 Li968 1.961 . S
O1030 Li970 1.956 . S
O1030 Li971 1.970 . S
O1030 C1000 1.325 . S
O1031 Li969 1.961 . S
O1031 Li970 1.970 . S
O1031 Li971 1.956 . S
O1031 C1006 1.325 . S
H1032 C974 0.929 . S
H1033 C975 0.930 . S
H1034 C976 0.930 . S
H1035 C977 0.930 . S
H1036 C979 0.930 . S
H1037 C981 0.929 . S
H1038 C982 0.930 . S
H1039 C983 0.930 . S
H1040 C986 0.930 . S
H1041 C989 0.929 . S
H1042 C994 0.929 . S
H1043 C995 0.930 . S
H1044 C1002 0.929 . S
H1045 C1003 0.930 . S
H1046 C1004 0.930 . S
H1047 C1005 0.930 . S
H1048 C1007 0.929 . S
H1049 C1008 0.930 . S
H1050 C1009 0.930 . S
H1051 C1010 0.930 . S
H1052 C1014 0.929 . S
H1053 C1016 0.930 . S
H1054 C1022 0.929 . S
H1055 C1023 0.930 . S
Li1056 N1073 1.990 . S
Li1056 O1116 1.956 1_655 S
Li1056 O1117 1.970 . S
Li1056 O1118 1.961 1_655 S
Li1057 N1081 1.990 . S
Li1057 O1116 1.970 . S
Li1057 O1117 1.956 1_455 S
Li1057 O1119 1.961 . S
Li1058 N1103 1.990 . S
Li1058 O1116 1.961 . S
Li1058 O1118 1.956 . S
Li1058 O1119 1.970 . S
Li1059 N1109 1.990 . S
Li1059 O1117 1.961 1_455 S
Li1059 O1118 1.970 . S
Li1059 O1119 1.956 . S
C1060 C1062 1.362 . S
C1060 C1063 1.356 . S
C1060 O1116 1.325 . S
N1061 C1064 1.324 . S
N1061 C1065 1.279 . S
C1062 C1060 1.362 . S
C1062 C1064 1.353 . S
C1062 H1120 0.917 1_455 S
C1063 C1060 1.356 . S
C1063 C1065 1.358 . S
C1063 H1121 0.930 . S
C1064 N1061 1.324 . S
C1064 C1062 1.353 . S
C1064 H1122 0.920 1_455 S
C1065 N1061 1.279 . S
C1065 C1063 1.358 . S
C1065 H1123 0.930 . S
C1066 C1069 1.348 . S
C1066 C1070 1.356 . S
C1066 O1117 1.325 . S
C1067 N1068 1.279 . S
C1067 C1070 1.358 . S
C1067 H1124 0.930 . S
N1068 C1067 1.279 . S
N1068 C1071 1.314 . S
C1069 C1066 1.348 . S
C1069 C1071 1.353 . S
C1069 H1125 0.929 . S
C1070 C1066 1.356 . S
C1070 C1067 1.358 . S
C1070 H1126 0.930 . S
C1071 N1068 1.314 . S
C1071 C1069 1.353 . S
C1071 H1127 0.930 . S
C1072 N1073 1.314 . S
C1072 C1077 1.353 . S
C1072 H1078 0.930 . S
N1073 Li1056 1.990 . S
N1073 C1072 1.314 . S
N1073 C1075 1.279 . S
C1074 C1075 1.358 . S
C1074 C1076 1.356 . S
C1074 H1128 0.930 . S
C1075 N1073 1.279 . S
C1075 C1074 1.358 . S
C1075 H1079 0.930 . S
C1076 C1074 1.356 . S
C1076 C1077 1.348 . S
C1077 C1072 1.353 . S
C1077 C1076 1.348 . S
C1077 H1129 0.929 . S
H1078 C1072 0.930 . S
H1079 C1075 0.930 . S
C1080 N1081 1.314 . S
C1080 C1082 1.353 . S
C1080 H1086 0.930 . S
N1081 Li1057 1.990 . S
N1081 C1080 1.314 . S
N1081 C1084 1.279 1_455 S
C1082 C1080 1.353 . S
C1082 C1085 1.348 . S
C1082 H1130 0.929 . S
C1083 C1084 1.358 . S
C1083 C1085 1.356 1_655 S
C1083 H1131 0.930 . S
C1084 N1081 1.279 1_655 S
C1084 C1083 1.358 . S
C1084 H1087 0.930 . S
C1085 C1082 1.348 . S
C1085 C1083 1.356 1_455 S
H1086 C1080 0.930 . S
H1087 C1084 0.930 . S
C1088 C1090 1.348 . S
C1088 C1091 1.356 . S
C1088 O1118 1.325 . S
N1089 C1092 1.314 . S
N1089 C1093 1.279 . S
C1090 C1088 1.348 . S
C1090 C1092 1.353 . S
C1090 H1132 0.929 . S
C1091 C1088 1.356 . S
C1091 C1093 1.358 . S
C1091 H1133 0.929 . S
C1092 N1089 1.314 . S
C1092 C1090 1.353 . S
C1092 H1134 0.930 . S
C1093 N1089 1.279 . S
C1093 C1091 1.358 . S
C1093 H1135 0.931 . S
C1094 C1095 1.348 . S
C1094 C1096 1.356 . S
C1094 O1119 1.325 . S
C1095 C1094 1.348 . S
C1095 C1097 1.353 . S
C1095 H1136 0.929 . S
C1096 C1094 1.356 . S
C1096 C1098 1.358 . S
C1096 H1137 0.930 . S
C1097 C1095 1.353 . S
C1097 N1099 1.314 . S
C1097 H1138 0.930 . S
C1098 C1096 1.358 . S
C1098 N1099 1.279 . S
C1098 H1139 0.930 . S
N1099 C1097 1.314 . S
N1099 C1098 1.279 . S
C1100 C1102 1.353 . S
C1100 N1103 1.314 . S
C1100 H1106 0.930 . S
C1101 N1103 1.279 . S
C1101 C1104 1.358 . S
C1101 H1107 0.930 . S
C1102 C1100 1.353 . S
C1102 C1105 1.348 . S
C1102 H1140 0.929 . S
N1103 Li1058 1.990 . S
N1103 C1100 1.314 . S
N1103 C1101 1.279 . S
C1104 C1101 1.358 . S
C1104 C1105 1.356 . S
C1104 H1141 0.930 . S
C1105 C1102 1.348 . S
C1105 C1104 1.356 . S
H1106 C1100 0.930 . S
H1107 C1101 0.930 . S
C1108 N1109 1.314 1_655 S
C1108 C1110 1.353 . S
C1108 H1114 0.930 . S
N1109 Li1059 1.990 . S
N1109 C1108 1.314 1_455 S
N1109 C1112 1.279 . S
C1110 C1108 1.353 . S
C1110 C1113 1.348 1_655 S
C1110 H1142 0.929 . S
C1111 C1112 1.358 . S
C1111 C1113 1.356 . S
C1111 H1143 0.930 . S
C1112 N1109 1.279 . S
C1112 C1111 1.358 . S
C1112 H1115 0.930 . S
C1113 C1110 1.348 1_455 S
C1113 C1111 1.356 . S
H1114 C1108 0.930 . S
H1115 C1112 0.930 . S
O1116 Li1056 1.956 1_455 S
O1116 Li1057 1.970 . S
O1116 Li1058 1.961 . S
O1116 C1060 1.325 . S
O1117 Li1056 1.970 . S
O1117 Li1057 1.956 1_655 S
O1117 Li1059 1.961 1_655 S
O1117 C1066 1.325 . S
O1118 Li1056 1.961 1_455 S
O1118 Li1058 1.956 . S
O1118 Li1059 1.970 . S
O1118 C1088 1.325 . S
O1119 Li1057 1.961 . S
O1119 Li1058 1.970 . S
O1119 Li1059 1.956 . S
O1119 C1094 1.325 . S
H1120 C1062 0.917 1_655 S
H1121 C1063 0.930 . S
H1122 C1064 0.920 1_655 S
H1123 C1065 0.930 . S
H1124 C1067 0.930 . S
H1125 C1069 0.929 . S
H1126 C1070 0.930 . S
H1127 C1071 0.930 . S
H1128 C1074 0.930 . S
H1129 C1077 0.929 . S
H1130 C1082 0.929 . S
H1131 C1083 0.930 . S
H1132 C1090 0.929 . S
H1133 C1091 0.929 . S
H1134 C1092 0.930 . S
H1135 C1093 0.931 . S
H1136 C1095 0.929 . S
H1137 C1096 0.930 . S
H1138 C1097 0.930 . S
H1139 C1098 0.930 . S
H1140 C1102 0.929 . S
H1141 C1104 0.930 . S
H1142 C1110 0.929 . S
H1143 C1111 0.930 . S
Li1144 N1161 1.990 . S
Li1144 O1204 1.956 . S
Li1144 O1205 1.970 . S
Li1144 O1206 1.961 1_455 S
Li1145 N1169 1.990 . S
Li1145 O1204 1.970 . S
Li1145 O1205 1.956 . S
Li1145 O1207 1.961 . S
Li1146 N1191 1.990 . S
Li1146 O1204 1.961 . S
Li1146 O1206 1.956 1_455 S
Li1146 O1207 1.970 . S
Li1147 N1197 1.990 . S
Li1147 O1205 1.961 1_655 S
Li1147 O1206 1.970 . S
Li1147 O1207 1.956 1_655 S
C1148 C1150 1.348 . S
C1148 C1151 1.356 . S
C1148 O1204 1.325 . S
N1149 C1152 1.314 . S
N1149 C1153 1.279 . S
C1150 C1148 1.348 . S
C1150 C1152 1.353 . S
C1150 H1208 0.929 . S
C1151 C1148 1.356 . S
C1151 C1153 1.358 . S
C1151 H1209 0.930 . S
C1152 N1149 1.314 . S
C1152 C1150 1.353 . S
C1152 H1210 0.930 . S
C1153 N1149 1.279 . S
C1153 C1151 1.358 . S
C1153 H1211 0.930 . S
C1154 C1157 1.348 . S
C1154 C1158 1.356 . S
C1154 O1205 1.325 . S
C1155 N1156 1.279 . S
C1155 C1158 1.358 . S
C1155 H1212 0.930 1_455 S
N1156 C1155 1.279 . S
N1156 C1159 1.314 . S
C1157 C1154 1.348 . S
C1157 C1159 1.353 . S
C1157 H1213 0.929 . S
C1158 C1154 1.356 . S
C1158 C1155 1.358 . S
C1158 H1214 0.930 1_455 S
C1159 N1156 1.314 . S
C1159 C1157 1.353 . S
C1159 H1215 0.930 . S
C1160 N1161 1.314 1_655 S
C1160 C1165 1.353 . S
C1160 H1166 0.930 . S
N1161 Li1144 1.990 . S
N1161 C1160 1.314 1_455 S
N1161 C1163 1.279 . S
C1162 C1163 1.358 . S
C1162 C1164 1.356 . S
C1162 H1216 0.930 . S
C1163 N1161 1.279 . S
C1163 C1162 1.358 . S
C1163 H1167 0.930 . S
C1164 C1162 1.356 . S
C1164 C1165 1.348 1_455 S
C1165 C1160 1.353 . S
C1165 C1164 1.348 1_655 S
C1165 H1217 0.929 . S
H1166 C1160 0.930 . S
H1167 C1163 0.930 . S
C1168 N1169 1.314 . S
C1168 C1170 1.353 . S
C1168 H1174 0.930 . S
N1169 Li1145 1.990 . S
N1169 C1168 1.314 . S
N1169 C1172 1.279 . S
C1170 C1168 1.353 . S
C1170 C1173 1.348 . S
C1170 H1218 0.929 . S
C1171 C1172 1.358 . S
C1171 C1173 1.356 . S
C1171 H1219 0.930 . S
C1172 N1169 1.279 . S
C1172 C1171 1.358 . S
C1172 H1175 0.930 . S
C1173 C1170 1.348 . S
C1173 C1171 1.356 . S
H1174 C1168 0.930 . S
H1175 C1172 0.930 . S
C1176 C1178 1.348 . S
C1176 C1179 1.356 . S
C1176 O1206 1.325 . S
N1177 C1180 1.314 . S
N1177 C1181 1.279 . S
C1178 C1176 1.348 . S
C1178 C1180 1.353 . S
C1178 H1220 0.929 . S
C1179 C1176 1.356 . S
C1179 C1181 1.358 . S
C1179 H1221 0.930 . S
C1180 N1177 1.314 . S
C1180 C1178 1.353 . S
C1180 H1222 0.930 . S
C1181 N1177 1.279 . S
C1181 C1179 1.358 . S
C1181 H1223 0.930 . S
C1182 C1183 1.345 1_455 S
C1182 C1184 1.356 . S
C1182 O1207 1.325 . S
C1183 C1182 1.345 1_655 S
C1183 C1185 1.353 . S
C1183 H1224 0.932 . S
C1184 C1182 1.356 . S
C1184 C1186 1.358 . S
C1184 H1225 0.930 . S
C1185 C1183 1.353 . S
C1185 N1187 1.312 1_655 S
C1185 H1226 0.932 . S
C1186 C1184 1.358 . S
C1186 N1187 1.279 . S
C1186 H1227 0.930 . S
N1187 C1185 1.312 1_455 S
N1187 C1186 1.279 . S
C1188 C1190 1.353 . S
C1188 N1191 1.314 . S
C1188 H1194 0.930 . S
C1189 N1191 1.279 1_655 S
C1189 C1192 1.358 . S
C1189 H1195 0.930 . S
C1190 C1188 1.353 . S
C1190 C1193 1.348 . S
C1190 H1228 0.929 . S
N1191 Li1146 1.990 . S
N1191 C1188 1.314 . S
N1191 C1189 1.279 1_455 S
C1192 C1189 1.358 . S
C1192 C1193 1.356 1_655 S
C1192 H1229 0.930 . S
C1193 C1190 1.348 . S
C1193 C1192 1.356 1_455 S
H1194 C1188 0.930 . S
H1195 C1189 0.930 . S
C1196 N1197 1.314 . S
C1196 C1198 1.353 . S
C1196 H1202 0.930 . S
N1197 Li1147 1.990 . S
N1197 C1196 1.314 . S
N1197 C1200 1.279 . S
C1198 C1196 1.353 . S
C1198 C1201 1.348 . S
C1198 H1230 0.929 . S
C1199 C1200 1.358 . S
C1199 C1201 1.356 . S
C1199 H1231 0.930 . S
C1200 N1197 1.279 . S
C1200 C1199 1.358 . S
C1200 H1203 0.930 . S
C1201 C1198 1.348 . S
C1201 C1199 1.356 . S
H1202 C1196 0.930 . S
H1203 C1200 0.930 . S
O1204 Li1144 1.956 . S
O1204 Li1145 1.970 . S
O1204 Li1146 1.961 . S
O1204 C1148 1.325 . S
O1205 Li1144 1.970 . S
O1205 Li1145 1.956 . S
O1205 Li1147 1.961 1_455 S
O1205 C1154 1.325 . S
O1206 Li1144 1.961 1_655 S
O1206 Li1146 1.956 1_655 S
O1206 Li1147 1.970 . S
O1206 C1176 1.325 . S
O1207 Li1145 1.961 . S
O1207 Li1146 1.970 . S
O1207 Li1147 1.956 1_455 S
O1207 C1182 1.325 . S
H1208 C1150 0.929 . S
H1209 C1151 0.930 . S
H1210 C1152 0.930 . S
H1211 C1153 0.930 . S
H1212 C1155 0.930 1_655 S
H1213 C1157 0.929 . S
H1214 C1158 0.930 1_655 S
H1215 C1159 0.930 . S
H1216 C1162 0.930 . S
H1217 C1165 0.929 . S
H1218 C1170 0.929 . S
H1219 C1171 0.930 . S
H1220 C1178 0.929 . S
H1221 C1179 0.930 . S
H1222 C1180 0.930 . S
H1223 C1181 0.930 . S
H1224 C1183 0.932 . S
H1225 C1184 0.930 . S
H1226 C1185 0.932 . S
H1227 C1186 0.930 . S
H1228 C1190 0.929 . S
H1229 C1192 0.930 . S
H1230 C1198 0.929 . S
H1231 C1199 0.930 . S
Li1232 N1249 1.990 . S
Li1232 O1292 1.956 . S
Li1232 O1293 1.970 . S
Li1232 O1294 1.961 . S
Li1233 N1257 1.990 . S
Li1233 O1292 1.970 . S
Li1233 O1293 1.956 . S
Li1233 O1295 1.961 . S
Li1234 N1279 1.990 . S
Li1234 O1292 1.961 . S
Li1234 O1294 1.956 . S
Li1234 O1295 1.970 . S
Li1235 N1285 1.990 . S
Li1235 O1293 1.961 . S
Li1235 O1294 1.970 . S
Li1235 O1295 1.956 . S
C1236 C1238 1.348 . S
C1236 C1239 1.356 . S
C1236 O1292 1.325 . S
N1237 C1240 1.314 . S
N1237 C1241 1.279 . S
C1238 C1236 1.348 . S
C1238 C1240 1.353 . S
C1238 H1296 0.929 . S
C1239 C1236 1.356 . S
C1239 C1241 1.358 . S
C1239 H1297 0.930 . S
C1240 N1237 1.314 . S
C1240 C1238 1.353 . S
C1240 H1298 0.930 . S
C1241 N1237 1.279 . S
C1241 C1239 1.358 . S
C1241 H1299 0.930 . S
C1242 C1245 1.348 . S
C1242 C1246 1.356 . S
C1242 O1293 1.325 . S
C1243 N1244 1.279 . S
C1243 C1246 1.358 . S
C1243 H1300 0.930 . S
N1244 C1243 1.279 . S
N1244 C1247 1.314 . S
C1245 C1242 1.348 . S
C1245 C1247 1.353 . S
C1245 H1301 0.929 . S
C1246 C1242 1.356 . S
C1246 C1243 1.358 . S
C1246 H1302 0.930 . S
C1247 N1244 1.314 . S
C1247 C1245 1.353 . S
C1247 H1303 0.930 . S
C1248 N1249 1.314 . S
C1248 C1253 1.353 . S
C1248 H1254 0.930 . S
N1249 Li1232 1.990 . S
N1249 C1248 1.314 . S
N1249 C1251 1.279 . S
C1250 C1251 1.358 . S
C1250 C1252 1.356 . S
C1250 H1304 0.930 . S
C1251 N1249 1.279 . S
C1251 C1250 1.358 . S
C1251 H1255 0.930 . S
C1252 C1250 1.356 . S
C1252 C1253 1.348 . S
C1253 C1248 1.353 . S
C1253 C1252 1.348 . S
C1253 H1305 0.929 . S
H1254 C1248 0.930 . S
H1255 C1251 0.930 . S
C1256 N1257 1.314 . S
C1256 C1258 1.353 . S
C1256 H1262 0.930 . S
N1257 Li1233 1.990 . S
N1257 C1256 1.314 . S
N1257 C1260 1.279 . S
C1258 C1256 1.353 . S
C1258 C1261 1.348 . S
C1258 H1306 0.929 . S
C1259 C1260 1.358 . S
C1259 C1261 1.356 . S
C1259 H1307 0.930 . S
C1260 N1257 1.279 . S
C1260 C1259 1.358 . S
C1260 H1263 0.930 . S
C1261 C1258 1.348 . S
C1261 C1259 1.356 . S
H1262 C1256 0.930 . S
H1263 C1260 0.930 . S
C1264 C1266 1.348 . S
C1264 C1267 1.356 . S
C1264 O1294 1.325 . S
N1265 C1268 1.314 . S
N1265 C1269 1.279 . S
C1266 C1264 1.348 . S
C1266 C1268 1.353 . S
C1266 H1308 0.929 . S
C1267 C1264 1.356 . S
C1267 C1269 1.358 . S
C1267 H1309 0.930 . S
C1268 N1265 1.314 . S
C1268 C1266 1.353 . S
C1268 H1310 0.930 . S
C1269 N1265 1.279 . S
C1269 C1267 1.358 . S
C1269 H1311 0.930 . S
C1270 C1271 1.348 . S
C1270 C1272 1.356 . S
C1270 O1295 1.325 . S
C1271 C1270 1.348 . S
C1271 C1273 1.353 . S
C1271 H1312 0.929 . S
C1272 C1270 1.356 . S
C1272 C1274 1.358 . S
C1272 H1313 0.930 . S
C1273 C1271 1.353 . S
C1273 N1275 1.314 . S
C1273 H1314 0.930 . S
C1274 C1272 1.358 . S
C1274 N1275 1.279 . S
C1274 H1315 0.930 . S
N1275 C1273 1.314 . S
N1275 C1274 1.279 . S
C1276 C1278 1.353 . S
C1276 N1279 1.314 . S
C1276 H1282 0.930 . S
C1277 N1279 1.279 . S
C1277 C1280 1.358 . S
C1277 H1283 0.930 . S
C1278 C1276 1.353 . S
C1278 C1281 1.348 . S
C1278 H1316 0.929 . S
N1279 Li1234 1.990 . S
N1279 C1276 1.314 . S
N1279 C1277 1.279 . S
C1280 C1277 1.358 . S
C1280 C1281 1.356 . S
C1280 H1317 0.930 . S
C1281 C1278 1.348 . S
C1281 C1280 1.356 . S
H1282 C1276 0.930 . S
H1283 C1277 0.930 . S
C1284 N1285 1.314 . S
C1284 C1286 1.353 . S
C1284 H1290 0.930 . S
N1285 Li1235 1.990 . S
N1285 C1284 1.314 . S
N1285 C1288 1.279 . S
C1286 C1284 1.353 . S
C1286 C1289 1.348 . S
C1286 H1318 0.929 . S
C1287 C1288 1.358 . S
C1287 C1289 1.356 . S
C1287 H1319 0.930 . S
C1288 N1285 1.279 . S
C1288 C1287 1.358 . S
C1288 H1291 0.930 . S
C1289 C1286 1.348 . S
C1289 C1287 1.356 . S
H1290 C1284 0.930 . S
H1291 C1288 0.930 . S
O1292 Li1232 1.956 . S
O1292 Li1233 1.970 . S
O1292 Li1234 1.961 . S
O1292 C1236 1.325 . S
O1293 Li1232 1.970 . S
O1293 Li1233 1.956 . S
O1293 Li1235 1.961 . S
O1293 C1242 1.325 . S
O1294 Li1232 1.961 . S
O1294 Li1234 1.956 . S
O1294 Li1235 1.970 . S
O1294 C1264 1.325 . S
O1295 Li1233 1.961 . S
O1295 Li1234 1.970 . S
O1295 Li1235 1.956 . S
O1295 C1270 1.325 . S
H1296 C1238 0.929 . S
H1297 C1239 0.930 . S
H1298 C1240 0.930 . S
H1299 C1241 0.930 . S
H1300 C1243 0.930 . S
H1301 C1245 0.929 . S
H1302 C1246 0.930 . S
H1303 C1247 0.930 . S
H1304 C1250 0.930 . S
H1305 C1253 0.929 . S
H1306 C1258 0.929 . S
H1307 C1259 0.930 . S
H1308 C1266 0.929 . S
H1309 C1267 0.930 . S
H1310 C1268 0.930 . S
H1311 C1269 0.930 . S
H1312 C1271 0.929 . S
H1313 C1272 0.930 . S
H1314 C1273 0.930 . S
H1315 C1274 0.930 . S
H1316 C1278 0.929 . S
H1317 C1280 0.930 . S
H1318 C1286 0.929 . S
H1319 C1287 0.930 . S
Li1320 N1337 1.990 . S
Li1320 O1380 1.956 . S
Li1320 O1381 1.970 . S
Li1320 O1382 1.961 . S
Li1321 N1345 1.990 . S
Li1321 O1380 1.970 . S
Li1321 O1381 1.956 . S
Li1321 O1383 1.961 . S
Li1322 N1367 1.990 . S
Li1322 O1380 1.961 . S
Li1322 O1382 1.956 . S
Li1322 O1383 1.970 . S
Li1323 N1373 1.990 . S
Li1323 O1381 1.961 . S
Li1323 O1382 1.970 . S
Li1323 O1383 1.956 . S
C1324 C1326 1.348 . S
C1324 C1327 1.356 . S
C1324 O1380 1.325 . S
N1325 C1328 1.314 . S
N1325 C1329 1.279 . S
C1326 C1324 1.348 . S
C1326 C1328 1.353 . S
C1326 H1384 0.929 . S
C1327 C1324 1.356 . S
C1327 C1329 1.358 . S
C1327 H1385 0.930 . S
C1328 N1325 1.314 . S
C1328 C1326 1.353 . S
C1328 H1386 0.930 . S
C1329 N1325 1.279 . S
C1329 C1327 1.358 . S
C1329 H1387 0.930 . S
C1330 C1333 1.348 . S
C1330 C1334 1.356 . S
C1330 O1381 1.325 . S
C1331 N1332 1.279 . S
C1331 C1334 1.358 . S
C1331 H1388 0.930 . S
N1332 C1331 1.279 . S
N1332 C1335 1.314 . S
C1333 C1330 1.348 . S
C1333 C1335 1.353 . S
C1333 H1389 0.929 . S
C1334 C1330 1.356 . S
C1334 C1331 1.358 . S
C1334 H1390 0.930 . S
C1335 N1332 1.314 . S
C1335 C1333 1.353 . S
C1335 H1391 0.930 . S
C1336 N1337 1.314 . S
C1336 C1341 1.353 . S
C1336 H1342 0.930 . S
N1337 Li1320 1.990 . S
N1337 C1336 1.314 . S
N1337 C1339 1.279 . S
C1338 C1339 1.358 . S
C1338 C1340 1.356 . S
C1338 H1392 0.930 . S
C1339 N1337 1.279 . S
C1339 C1338 1.358 . S
C1339 H1343 0.930 . S
C1340 C1338 1.356 . S
C1340 C1341 1.348 . S
C1341 C1336 1.353 . S
C1341 C1340 1.348 . S
C1341 H1393 0.929 . S
H1342 C1336 0.930 . S
H1343 C1339 0.930 . S
C1344 N1345 1.314 . S
C1344 C1346 1.353 . S
C1344 H1350 0.930 . S
N1345 Li1321 1.990 . S
N1345 C1344 1.314 . S
N1345 C1348 1.279 . S
C1346 C1344 1.353 . S
C1346 C1349 1.348 . S
C1346 H1394 0.929 . S
C1347 C1348 1.358 . S
C1347 C1349 1.356 . S
C1347 H1395 0.930 . S
C1348 N1345 1.279 . S
C1348 C1347 1.358 . S
C1348 H1351 0.930 . S
C1349 C1346 1.348 . S
C1349 C1347 1.356 . S
H1350 C1344 0.930 . S
H1351 C1348 0.930 . S
C1352 C1354 1.348 . S
C1352 C1355 1.356 . S
C1352 O1382 1.325 . S
N1353 C1356 1.314 . S
N1353 C1357 1.279 . S
C1354 C1352 1.348 . S
C1354 C1356 1.353 . S
C1354 H1396 0.929 . S
C1355 C1352 1.356 . S
C1355 C1357 1.358 . S
C1355 H1397 0.930 . S
C1356 N1353 1.314 . S
C1356 C1354 1.353 . S
C1356 H1398 0.930 . S
C1357 N1353 1.279 . S
C1357 C1355 1.358 . S
C1357 H1399 0.930 . S
C1358 C1359 1.348 . S
C1358 C1360 1.356 . S
C1358 O1383 1.325 . S
C1359 C1358 1.348 . S
C1359 C1361 1.353 . S
C1359 H1400 0.929 . S
C1360 C1358 1.356 . S
C1360 C1362 1.358 . S
C1360 H1401 0.930 . S
C1361 C1359 1.353 . S
C1361 N1363 1.314 . S
C1361 H1402 0.930 . S
C1362 C1360 1.358 . S
C1362 N1363 1.279 . S
C1362 H1403 0.930 . S
N1363 C1361 1.314 . S
N1363 C1362 1.279 . S
C1364 C1366 1.353 . S
C1364 N1367 1.314 . S
C1364 H1370 0.930 . S
C1365 N1367 1.279 . S
C1365 C1368 1.358 . S
C1365 H1371 0.930 . S
C1366 C1364 1.353 . S
C1366 C1369 1.348 . S
C1366 H1404 0.929 . S
N1367 Li1322 1.990 . S
N1367 C1364 1.314 . S
N1367 C1365 1.279 . S
C1368 C1365 1.358 . S
C1368 C1369 1.356 . S
C1368 H1405 0.930 . S
C1369 C1366 1.348 . S
C1369 C1368 1.356 . S
H1370 C1364 0.930 . S
H1371 C1365 0.930 . S
C1372 N1373 1.314 . S
C1372 C1374 1.353 . S
C1372 H1378 0.930 . S
N1373 Li1323 1.990 . S
N1373 C1372 1.314 . S
N1373 C1376 1.279 . S
C1374 C1372 1.353 . S
C1374 C1377 1.348 . S
C1374 H1406 0.929 . S
C1375 C1376 1.358 . S
C1375 C1377 1.356 . S
C1375 H1407 0.930 . S
C1376 N1373 1.279 . S
C1376 C1375 1.358 . S
C1376 H1379 0.930 . S
C1377 C1374 1.348 . S
C1377 C1375 1.356 . S
H1378 C1372 0.930 . S
H1379 C1376 0.930 . S
O1380 Li1320 1.956 . S
O1380 Li1321 1.970 . S
O1380 Li1322 1.961 . S
O1380 C1324 1.325 . S
O1381 Li1320 1.970 . S
O1381 Li1321 1.956 . S
O1381 Li1323 1.961 . S
O1381 C1330 1.325 . S
O1382 Li1320 1.961 . S
O1382 Li1322 1.956 . S
O1382 Li1323 1.970 . S
O1382 C1352 1.325 . S
O1383 Li1321 1.961 . S
O1383 Li1322 1.970 . S
O1383 Li1323 1.956 . S
O1383 C1358 1.325 . S
H1384 C1326 0.929 . S
H1385 C1327 0.930 . S
H1386 C1328 0.930 . S
H1387 C1329 0.930 . S
H1388 C1331 0.930 . S
H1389 C1333 0.929 . S
H1390 C1334 0.930 . S
H1391 C1335 0.930 . S
H1392 C1338 0.930 . S
H1393 C1341 0.929 . S
H1394 C1346 0.929 . S
H1395 C1347 0.930 . S
H1396 C1354 0.929 . S
H1397 C1355 0.930 . S
H1398 C1356 0.930 . S
H1399 C1357 0.930 . S
H1400 C1359 0.929 . S
H1401 C1360 0.930 . S
H1402 C1361 0.930 . S
H1403 C1362 0.930 . S
H1404 C1366 0.929 . S
H1405 C1368 0.930 . S
H1406 C1374 0.929 . S
H1407 C1375 0.930 . S
Li1408 N1425 1.990 . S
Li1408 O1468 1.907 1_545 S
Li1408 O1469 1.974 . S
Li1408 O1470 2.014 . S
Li1409 N1433 1.990 . S
Li1409 O1468 1.970 . S
Li1409 O1469 1.956 1_565 S
Li1409 O1471 1.924 1_565 S
Li1410 N1455 1.990 . S
Li1410 O1468 1.961 1_545 S
Li1410 O1470 1.956 . S
Li1410 O1471 1.973 . S
Li1411 N1461 1.990 . S
Li1411 O1469 1.961 . S
Li1411 O1470 1.970 . S
Li1411 O1471 1.997 . S
C1412 C1414 1.348 . S
C1412 C1415 1.356 . S
C1412 O1468 1.325 . S
N1413 C1416 1.314 . S
N1413 C1417 1.279 . S
C1414 C1412 1.348 . S
C1414 C1416 1.353 . S
C1414 H1472 0.929 . S
C1415 C1412 1.356 . S
C1415 C1417 1.358 . S
C1415 H1473 0.930 . S
C1416 N1413 1.314 . S
C1416 C1414 1.353 . S
C1416 H1474 0.930 . S
C1417 N1413 1.279 . S
C1417 C1415 1.358 . S
C1417 H1475 0.930 . S
C1418 C1421 1.348 1_545 S
C1418 C1422 1.356 . S
C1418 O1469 1.325 . S
C1419 N1420 1.284 . S
C1419 C1422 1.358 . S
C1419 H1476 0.930 . S
N1420 C1419 1.284 . S
N1420 C1423 1.310 1_545 S
C1421 C1418 1.348 1_565 S
C1421 C1423 1.353 . S
C1421 H1477 0.929 . S
C1422 C1418 1.356 . S
C1422 C1419 1.358 . S
C1422 H1478 0.930 . S
C1423 N1420 1.310 1_565 S
C1423 C1421 1.353 . S
C1423 H1479 0.930 . S
C1424 N1425 1.357 . S
C1424 C1429 1.353 . S
C1424 H1430 0.930 . S
N1425 Li1408 1.990 . S
N1425 C1424 1.357 . S
N1425 C1427 1.238 1_545 S
C1426 C1427 1.358 . S
C1426 C1428 1.356 1_565 S
C1426 H1480 0.930 . S
C1427 N1425 1.238 1_565 S
C1427 C1426 1.358 . S
C1427 H1431 0.930 . S
C1428 C1426 1.356 1_545 S
C1428 C1429 1.348 . S
C1429 C1424 1.353 . S
C1429 C1428 1.348 . S
C1429 H1481 0.929 . S
H1430 C1424 0.930 . S
H1431 C1427 0.930 . S
C1432 N1433 1.314 . S
C1432 C1434 1.353 . S
C1432 H1438 0.930 . S
N1433 Li1409 1.990 . S
N1433 C1432 1.314 . S
N1433 C1436 1.279 . S
C1434 C1432 1.353 . S
C1434 C1437 1.348 . S
C1434 H1482 0.929 . S
C1435 C1436 1.358 . S
C1435 C1437 1.356 . S
C1435 H1483 0.930 . S
C1436 N1433 1.279 . S
C1436 C1435 1.358 . S
C1436 H1439 0.930 . S
C1437 C1434 1.348 . S
C1437 C1435 1.356 . S
H1438 C1432 0.930 . S
H1439 C1436 0.930 . S
C1440 C1442 1.348 . S
C1440 C1443 1.356 . S
C1440 O1470 1.325 . S
N1441 C1444 1.314 . S
N1441 C1445 1.279 . S
C1442 C1440 1.348 . S
C1442 C1444 1.353 . S
C1442 H1484 0.929 . S
C1443 C1440 1.356 . S
C1443 C1445 1.358 . S
C1443 H1485 0.930 . S
C1444 N1441 1.314 . S
C1444 C1442 1.353 . S
C1444 H1486 0.930 . S
C1445 N1441 1.279 . S
C1445 C1443 1.358 . S
C1445 H1487 0.930 . S
C1446 C1447 1.348 . S
C1446 C1448 1.356 1_545 S
C1446 O1471 1.328 . S
C1447 C1446 1.348 . S
C1447 C1449 1.353 . S
C1447 H1488 0.929 . S
C1448 C1446 1.356 1_565 S
C1448 C1450 1.358 . S
C1448 H1489 0.930 . S
C1449 C1447 1.353 . S
C1449 N1451 1.314 . S
C1449 H1490 0.930 . S
C1450 C1448 1.358 . S
C1450 N1451 1.279 1_565 S
C1450 H1491 0.930 . S
N1451 C1449 1.314 . S
N1451 C1450 1.279 1_545 S
C1452 C1454 1.353 . S
C1452 N1455 1.314 1_565 S
C1452 H1458 0.930 . S
C1453 N1455 1.279 . S
C1453 C1456 1.358 . S
C1453 H1459 0.930 . S
C1454 C1452 1.353 . S
C1454 C1457 1.348 1_565 S
C1454 H1492 0.929 . S
N1455 Li1410 1.990 . S
N1455 C1452 1.314 1_545 S
N1455 C1453 1.279 . S
C1456 C1453 1.358 . S
C1456 C1457 1.356 . S
C1456 H1493 0.930 . S
C1457 C1454 1.348 1_545 S
C1457 C1456 1.356 . S
H1458 C1452 0.930 . S
H1459 C1453 0.930 . S
C1460 N1461 1.314 . S
C1460 C1462 1.353 . S
C1460 H1466 0.930 . S
N1461 Li1411 1.990 . S
N1461 C1460 1.314 . S
N1461 C1464 1.279 . S
C1462 C1460 1.353 . S
C1462 C1465 1.348 . S
C1462 H1494 0.929 . S
C1463 C1464 1.358 . S
C1463 C1465 1.356 . S
C1463 H1495 0.930 . S
C1464 N1461 1.279 . S
C1464 C1463 1.358 . S
C1464 H1467 0.930 . S
C1465 C1462 1.348 . S
C1465 C1463 1.356 . S
H1466 C1460 0.930 . S
H1467 C1464 0.930 . S
O1468 Li1408 1.907 1_565 S
O1468 Li1409 1.970 . S
O1468 Li1410 1.961 1_565 S
O1468 C1412 1.325 . S
O1469 Li1408 1.974 . S
O1469 Li1409 1.956 1_545 S
O1469 Li1411 1.961 . S
O1469 C1418 1.325 . S
O1470 Li1408 2.014 . S
O1470 Li1410 1.956 . S
O1470 Li1411 1.970 . S
O1470 C1440 1.325 . S
O1471 Li1409 1.924 1_545 S
O1471 Li1410 1.973 . S
O1471 Li1411 1.997 . S
O1471 C1446 1.328 . S
H1472 C1414 0.929 . S
H1473 C1415 0.930 . S
H1474 C1416 0.930 . S
H1475 C1417 0.930 . S
H1476 C1419 0.930 . S
H1477 C1421 0.929 . S
H1478 C1422 0.930 . S
H1479 C1423 0.930 . S
H1480 C1426 0.930 . S
H1481 C1429 0.929 . S
H1482 C1434 0.929 . S
H1483 C1435 0.930 . S
H1484 C1442 0.929 . S
H1485 C1443 0.930 . S
H1486 C1444 0.930 . S
H1487 C1445 0.930 . S
H1488 C1447 0.929 . S
H1489 C1448 0.930 . S
H1490 C1449 0.930 . S
H1491 C1450 0.930 . S
H1492 C1454 0.929 . S
H1493 C1456 0.930 . S
H1494 C1462 0.929 . S
H1495 C1463 0.930 . S
Li1496 N1513 1.990 . S
Li1496 O1556 1.956 . S
Li1496 O1557 1.970 . S
Li1496 O1558 1.961 . S
Li1497 N1521 1.990 . S
Li1497 O1556 1.970 . S
Li1497 O1557 1.956 . S
Li1497 O1559 1.961 . S
Li1498 N1543 1.990 . S
Li1498 O1556 1.961 . S
Li1498 O1558 1.956 . S
Li1498 O1559 1.970 . S
Li1499 N1549 1.990 . S
Li1499 O1557 1.961 . S
Li1499 O1558 1.970 . S
Li1499 O1559 1.956 . S
C1500 C1502 1.348 . S
C1500 C1503 1.356 . S
C1500 O1556 1.325 . S
N1501 C1504 1.314 . S
N1501 C1505 1.279 . S
C1502 C1500 1.348 . S
C1502 C1504 1.353 . S
C1502 H1560 0.929 . S
C1503 C1500 1.356 . S
C1503 C1505 1.358 . S
C1503 H1561 0.930 . S
C1504 N1501 1.314 . S
C1504 C1502 1.353 . S
C1504 H1562 0.930 . S
C1505 N1501 1.279 . S
C1505 C1503 1.358 . S
C1505 H1563 0.930 . S
C1506 C1509 1.348 . S
C1506 C1510 1.356 . S
C1506 O1557 1.325 . S
C1507 N1508 1.279 . S
C1507 C1510 1.358 . S
C1507 H1564 0.930 . S
N1508 C1507 1.279 . S
N1508 C1511 1.314 . S
C1509 C1506 1.348 . S
C1509 C1511 1.353 . S
C1509 H1565 0.929 . S
C1510 C1506 1.356 . S
C1510 C1507 1.358 . S
C1510 H1566 0.930 . S
C1511 N1508 1.314 . S
C1511 C1509 1.353 . S
C1511 H1567 0.930 . S
C1512 N1513 1.314 . S
C1512 C1517 1.353 . S
C1512 H1518 0.930 . S
N1513 Li1496 1.990 . S
N1513 C1512 1.314 . S
N1513 C1515 1.279 . S
C1514 C1515 1.358 . S
C1514 C1516 1.356 . S
C1514 H1568 0.930 . S
C1515 N1513 1.279 . S
C1515 C1514 1.358 . S
C1515 H1519 0.930 . S
C1516 C1514 1.356 . S
C1516 C1517 1.348 . S
C1517 C1512 1.353 . S
C1517 C1516 1.348 . S
C1517 H1569 0.929 . S
H1518 C1512 0.930 . S
H1519 C1515 0.930 . S
C1520 N1521 1.314 . S
C1520 C1522 1.353 . S
C1520 H1526 0.930 . S
N1521 Li1497 1.990 . S
N1521 C1520 1.314 . S
N1521 C1524 1.279 . S
C1522 C1520 1.353 . S
C1522 C1525 1.348 . S
C1522 H1570 0.929 . S
C1523 C1524 1.358 . S
C1523 C1525 1.356 . S
C1523 H1571 0.930 . S
C1524 N1521 1.279 . S
C1524 C1523 1.358 . S
C1524 H1527 0.930 . S
C1525 C1522 1.348 . S
C1525 C1523 1.356 . S
H1526 C1520 0.930 . S
H1527 C1524 0.930 . S
C1528 C1530 1.348 . S
C1528 C1531 1.356 . S
C1528 O1558 1.325 . S
N1529 C1532 1.314 . S
N1529 C1533 1.279 . S
C1530 C1528 1.348 . S
C1530 C1532 1.353 . S
C1530 H1572 0.929 . S
C1531 C1528 1.356 . S
C1531 C1533 1.358 . S
C1531 H1573 0.930 . S
C1532 N1529 1.314 . S
C1532 C1530 1.353 . S
C1532 H1574 0.930 . S
C1533 N1529 1.279 . S
C1533 C1531 1.358 . S
C1533 H1575 0.930 . S
C1534 C1535 1.348 . S
C1534 C1536 1.356 . S
C1534 O1559 1.325 . S
C1535 C1534 1.348 . S
C1535 C1537 1.353 . S
C1535 H1576 0.929 . S
C1536 C1534 1.356 . S
C1536 C1538 1.358 . S
C1536 H1577 0.930 . S
C1537 C1535 1.353 . S
C1537 N1539 1.314 . S
C1537 H1578 0.930 . S
C1538 C1536 1.358 . S
C1538 N1539 1.279 . S
C1538 H1579 0.930 . S
N1539 C1537 1.314 . S
N1539 C1538 1.279 . S
C1540 C1542 1.353 . S
C1540 N1543 1.314 . S
C1540 H1546 0.930 . S
C1541 N1543 1.279 . S
C1541 C1544 1.358 . S
C1541 H1547 0.930 . S
C1542 C1540 1.353 . S
C1542 C1545 1.348 . S
C1542 H1580 0.929 . S
N1543 Li1498 1.990 . S
N1543 C1540 1.314 . S
N1543 C1541 1.279 . S
C1544 C1541 1.358 . S
C1544 C1545 1.356 . S
C1544 H1581 0.930 . S
C1545 C1542 1.348 . S
C1545 C1544 1.356 . S
H1546 C1540 0.930 . S
H1547 C1541 0.930 . S
C1548 N1549 1.314 . S
C1548 C1550 1.353 . S
C1548 H1554 0.930 . S
N1549 Li1499 1.990 . S
N1549 C1548 1.314 . S
N1549 C1552 1.279 . S
C1550 C1548 1.353 . S
C1550 C1553 1.348 . S
C1550 H1582 0.929 . S
C1551 C1552 1.358 . S
C1551 C1553 1.356 . S
C1551 H1583 0.930 . S
C1552 N1549 1.279 . S
C1552 C1551 1.358 . S
C1552 H1555 0.930 . S
C1553 C1550 1.348 . S
C1553 C1551 1.356 . S
H1554 C1548 0.930 . S
H1555 C1552 0.930 . S
O1556 Li1496 1.956 . S
O1556 Li1497 1.970 . S
O1556 Li1498 1.961 . S
O1556 C1500 1.325 . S
O1557 Li1496 1.970 . S
O1557 Li1497 1.956 . S
O1557 Li1499 1.961 . S
O1557 C1506 1.325 . S
O1558 Li1496 1.961 . S
O1558 Li1498 1.956 . S
O1558 Li1499 1.970 . S
O1558 C1528 1.325 . S
O1559 Li1497 1.961 . S
O1559 Li1498 1.970 . S
O1559 Li1499 1.956 . S
O1559 C1534 1.325 . S
H1560 C1502 0.929 . S
H1561 C1503 0.930 . S
H1562 C1504 0.930 . S
H1563 C1505 0.930 . S
H1564 C1507 0.930 . S
H1565 C1509 0.929 . S
H1566 C1510 0.930 . S
H1567 C1511 0.930 . S
H1568 C1514 0.930 . S
H1569 C1517 0.929 . S
H1570 C1522 0.929 . S
H1571 C1523 0.930 . S
H1572 C1530 0.929 . S
H1573 C1531 0.930 . S
H1574 C1532 0.930 . S
H1575 C1533 0.930 . S
H1576 C1535 0.929 . S
H1577 C1536 0.930 . S
H1578 C1537 0.930 . S
H1579 C1538 0.930 . S
H1580 C1542 0.929 . S
H1581 C1544 0.930 . S
H1582 C1550 0.929 . S
H1583 C1551 0.930 . S
Li1584 N1601 1.990 . S
Li1584 O1644 1.956 . S
Li1584 O1645 1.970 . S
Li1584 O1646 1.961 1_545 S
Li1585 N1609 1.990 . S
Li1585 O1644 1.970 . S
Li1585 O1645 1.956 . S
Li1585 O1647 1.961 . S
Li1586 N1631 1.990 . S
Li1586 O1644 1.961 . S
Li1586 O1646 1.956 1_545 S
Li1586 O1647 1.970 . S
Li1587 N1637 1.990 . S
Li1587 O1645 1.961 1_565 S
Li1587 O1646 1.970 . S
Li1587 O1647 1.956 1_565 S
C1588 C1590 1.348 . S
C1588 C1591 1.356 . S
C1588 O1644 1.325 . S
N1589 C1592 1.314 . S
N1589 C1593 1.279 . S
C1590 C1588 1.348 . S
C1590 C1592 1.353 . S
C1590 H1648 0.929 . S
C1591 C1588 1.356 . S
C1591 C1593 1.358 . S
C1591 H1649 0.930 . S
C1592 N1589 1.314 . S
C1592 C1590 1.353 . S
C1592 H1650 0.930 . S
C1593 N1589 1.279 . S
C1593 C1591 1.358 . S
C1593 H1651 0.930 . S
C1594 C1597 1.348 . S
C1594 C1598 1.356 . S
C1594 O1645 1.325 . S
C1595 N1596 1.279 . S
C1595 C1598 1.358 . S
C1595 H1652 0.929 1_545 S
N1596 C1595 1.279 . S
N1596 C1599 1.314 . S
C1597 C1594 1.348 . S
C1597 C1599 1.353 . S
C1597 H1653 0.929 . S
C1598 C1594 1.356 . S
C1598 C1595 1.358 . S
C1598 H1654 0.925 1_545 S
C1599 N1596 1.314 . S
C1599 C1597 1.353 . S
C1599 H1655 0.930 . S
C1600 N1601 1.314 1_565 S
C1600 C1605 1.353 . S
C1600 H1606 0.930 . S
N1601 Li1584 1.990 . S
N1601 C1600 1.314 1_545 S
N1601 C1603 1.279 . S
C1602 C1603 1.358 . S
C1602 C1604 1.356 . S
C1602 H1656 0.930 . S
C1603 N1601 1.279 . S
C1603 C1602 1.358 . S
C1603 H1607 0.930 . S
C1604 C1602 1.356 . S
C1604 C1605 1.348 1_545 S
C1605 C1600 1.353 . S
C1605 C1604 1.348 1_565 S
C1605 H1657 0.929 . S
H1606 C1600 0.930 . S
H1607 C1603 0.930 . S
C1608 N1609 1.314 . S
C1608 C1610 1.353 . S
C1608 H1614 0.930 . S
N1609 Li1585 1.990 . S
N1609 C1608 1.314 . S
N1609 C1612 1.279 . S
C1610 C1608 1.353 . S
C1610 C1613 1.348 . S
C1610 H1658 0.929 . S
C1611 C1612 1.358 . S
C1611 C1613 1.356 . S
C1611 H1659 0.930 . S
C1612 N1609 1.279 . S
C1612 C1611 1.358 . S
C1612 H1615 0.930 . S
C1613 C1610 1.348 . S
C1613 C1611 1.356 . S
H1614 C1608 0.930 . S
H1615 C1612 0.930 . S
C1616 C1618 1.348 . S
C1616 C1619 1.356 . S
C1616 O1646 1.325 . S
N1617 C1620 1.314 . S
N1617 C1621 1.279 . S
C1618 C1616 1.348 . S
C1618 C1620 1.353 . S
C1618 H1660 0.929 . S
C1619 C1616 1.356 . S
C1619 C1621 1.358 . S
C1619 H1661 0.930 . S
C1620 N1617 1.314 . S
C1620 C1618 1.353 . S
C1620 H1662 0.930 . S
C1621 N1617 1.279 . S
C1621 C1619 1.358 . S
C1621 H1663 0.930 . S
C1622 C1623 1.346 1_545 S
C1622 C1624 1.356 . S
C1622 O1647 1.325 . S
C1623 C1622 1.346 1_565 S
C1623 C1625 1.353 . S
C1623 H1664 0.931 . S
C1624 C1622 1.356 . S
C1624 C1626 1.358 . S
C1624 H1665 0.930 . S
C1625 C1623 1.353 . S
C1625 N1627 1.312 1_565 S
C1625 H1666 0.932 . S
C1626 C1624 1.358 . S
C1626 N1627 1.279 . S
C1626 H1667 0.930 . S
N1627 C1625 1.312 1_545 S
N1627 C1626 1.279 . S
C1628 C1630 1.353 . S
C1628 N1631 1.314 . S
C1628 H1634 0.930 . S
C1629 N1631 1.279 1_565 S
C1629 C1632 1.358 . S
C1629 H1635 0.930 . S
C1630 C1628 1.353 . S
C1630 C1633 1.348 . S
C1630 H1668 0.929 . S
N1631 Li1586 1.990 . S
N1631 C1628 1.314 . S
N1631 C1629 1.279 1_545 S
C1632 C1629 1.358 . S
C1632 C1633 1.356 1_565 S
C1632 H1669 0.930 . S
C1633 C1630 1.348 . S
C1633 C1632 1.356 1_545 S
H1634 C1628 0.930 . S
H1635 C1629 0.930 . S
C1636 N1637 1.314 . S
C1636 C1638 1.353 . S
C1636 H1642 0.930 . S
N1637 Li1587 1.990 . S
N1637 C1636 1.314 . S
N1637 C1640 1.279 . S
C1638 C1636 1.353 . S
C1638 C1641 1.348 . S
C1638 H1670 0.929 . S
C1639 C1640 1.358 . S
C1639 C1641 1.356 . S
C1639 H1671 0.930 . S
C1640 N1637 1.279 . S
C1640 C1639 1.358 . S
C1640 H1643 0.930 . S
C1641 C1638 1.348 . S
C1641 C1639 1.356 . S
H1642 C1636 0.930 . S
H1643 C1640 0.930 . S
O1644 Li1584 1.956 . S
O1644 Li1585 1.970 . S
O1644 Li1586 1.961 . S
O1644 C1588 1.325 . S
O1645 Li1584 1.970 . S
O1645 Li1585 1.956 . S
O1645 Li1587 1.961 1_545 S
O1645 C1594 1.325 . S
O1646 Li1584 1.961 1_565 S
O1646 Li1586 1.956 1_565 S
O1646 Li1587 1.970 . S
O1646 C1616 1.325 . S
O1647 Li1585 1.961 . S
O1647 Li1586 1.970 . S
O1647 Li1587 1.956 1_545 S
O1647 C1622 1.325 . S
H1648 C1590 0.929 . S
H1649 C1591 0.930 . S
H1650 C1592 0.930 . S
H1651 C1593 0.930 . S
H1652 C1595 0.929 1_565 S
H1653 C1597 0.929 . S
H1654 C1598 0.925 1_565 S
H1655 C1599 0.930 . S
H1656 C1602 0.930 . S
H1657 C1605 0.929 . S
H1658 C1610 0.929 . S
H1659 C1611 0.930 . S
H1660 C1618 0.929 . S
H1661 C1619 0.930 . S
H1662 C1620 0.930 . S
H1663 C1621 0.930 . S
H1664 C1623 0.931 . S
H1665 C1624 0.930 . S
H1666 C1625 0.932 . S
H1667 C1626 0.930 . S
H1668 C1630 0.929 . S
H1669 C1632 0.930 . S
H1670 C1638 0.929 . S
H1671 C1639 0.930 . S
Li1672 N1689 1.990 . S
Li1672 O1732 1.956 . S
Li1672 O1733 1.970 . S
Li1672 O1734 1.961 1_554 S
Li1673 N1697 1.990 . S
Li1673 O1732 1.970 . S
Li1673 O1733 1.956 . S
Li1673 O1735 1.961 . S
Li1674 N1719 1.990 . S
Li1674 O1732 1.961 . S
Li1674 O1734 1.956 1_554 S
Li1674 O1735 1.970 . S
Li1675 N1725 1.990 . S
Li1675 O1733 1.961 1_556 S
Li1675 O1734 1.970 . S
Li1675 O1735 1.956 1_556 S
C1676 C1678 1.348 . S
C1676 C1679 1.356 . S
C1676 O1732 1.325 . S
N1677 C1680 1.314 . S
N1677 C1681 1.279 . S
C1678 C1676 1.348 . S
C1678 C1680 1.353 . S
C1678 H1736 0.929 . S
C1679 C1676 1.356 . S
C1679 C1681 1.358 . S
C1679 H1737 0.930 . S
C1680 N1677 1.314 . S
C1680 C1678 1.353 . S
C1680 H1738 0.930 . S
C1681 N1677 1.279 . S
C1681 C1679 1.358 . S
C1681 H1739 0.930 . S
C1682 C1685 1.348 . S
C1682 C1686 1.356 . S
C1682 O1733 1.325 . S
C1683 N1684 1.279 . S
C1683 C1686 1.358 . S
C1683 H1740 0.930 . S
N1684 C1683 1.279 . S
N1684 C1687 1.314 . S
C1685 C1682 1.348 . S
C1685 C1687 1.353 . S
C1685 H1741 0.929 . S
C1686 C1682 1.356 . S
C1686 C1683 1.358 . S
C1686 H1742 0.930 . S
C1687 N1684 1.314 . S
C1687 C1685 1.353 . S
C1687 H1743 0.930 . S
C1688 N1689 1.314 1_556 S
C1688 C1693 1.353 . S
C1688 H1694 0.930 . S
N1689 Li1672 1.990 . S
N1689 C1688 1.314 1_554 S
N1689 C1691 1.279 . S
C1690 C1691 1.358 . S
C1690 C1692 1.356 . S
C1690 H1744 0.930 . S
C1691 N1689 1.279 . S
C1691 C1690 1.358 . S
C1691 H1695 0.930 . S
C1692 C1690 1.356 . S
C1692 C1693 1.348 1_554 S
C1693 C1688 1.353 . S
C1693 C1692 1.348 1_556 S
C1693 H1745 0.929 . S
H1694 C1688 0.930 . S
H1695 C1691 0.930 . S
C1696 N1697 1.314 . S
C1696 C1698 1.353 . S
C1696 H1702 0.930 . S
N1697 Li1673 1.990 . S
N1697 C1696 1.314 . S
N1697 C1700 1.279 . S
C1698 C1696 1.353 . S
C1698 C1701 1.348 . S
C1698 H1746 0.929 . S
C1699 C1700 1.358 . S
C1699 C1701 1.356 . S
C1699 H1747 0.930 . S
C1700 N1697 1.279 . S
C1700 C1699 1.358 . S
C1700 H1703 0.930 . S
C1701 C1698 1.348 . S
C1701 C1699 1.356 . S
H1702 C1696 0.930 . S
H1703 C1700 0.930 . S
C1704 C1706 1.348 . S
C1704 C1707 1.356 . S
C1704 O1734 1.325 . S
N1705 C1708 1.314 . S
N1705 C1709 1.279 . S
C1706 C1704 1.348 . S
C1706 C1708 1.353 . S
C1706 H1748 0.929 . S
C1707 C1704 1.356 . S
C1707 C1709 1.358 . S
C1707 H1749 0.930 . S
C1708 N1705 1.314 . S
C1708 C1706 1.353 . S
C1708 H1750 0.930 . S
C1709 N1705 1.279 . S
C1709 C1707 1.358 . S
C1709 H1751 0.930 . S
C1710 C1711 1.348 . S
C1710 C1712 1.356 . S
C1710 O1735 1.325 . S
C1711 C1710 1.348 . S
C1711 C1713 1.353 . S
C1711 H1752 0.929 1_554 S
C1712 C1710 1.356 . S
C1712 C1714 1.358 . S
C1712 H1753 0.930 . S
C1713 C1711 1.353 . S
C1713 N1715 1.314 . S
C1713 H1754 0.914 1_554 S
C1714 C1712 1.358 . S
C1714 N1715 1.279 . S
C1714 H1755 0.930 . S
N1715 C1713 1.314 . S
N1715 C1714 1.279 . S
C1716 C1718 1.353 . S
C1716 N1719 1.314 . S
C1716 H1722 0.930 . S
C1717 N1719 1.279 1_556 S
C1717 C1720 1.358 . S
C1717 H1723 0.930 . S
C1718 C1716 1.353 . S
C1718 C1721 1.348 . S
C1718 H1756 0.929 . S
N1719 Li1674 1.990 . S
N1719 C1716 1.314 . S
N1719 C1717 1.279 1_554 S
C1720 C1717 1.358 . S
C1720 C1721 1.356 1_556 S
C1720 H1757 0.930 . S
C1721 C1718 1.348 . S
C1721 C1720 1.356 1_554 S
H1722 C1716 0.930 . S
H1723 C1717 0.930 . S
C1724 N1725 1.314 . S
C1724 C1726 1.353 . S
C1724 H1730 0.930 . S
N1725 Li1675 1.990 . S
N1725 C1724 1.314 . S
N1725 C1728 1.279 . S
C1726 C1724 1.353 . S
C1726 C1729 1.348 . S
C1726 H1758 0.929 . S
C1727 C1728 1.358 . S
C1727 C1729 1.356 . S
C1727 H1759 0.930 . S
C1728 N1725 1.279 . S
C1728 C1727 1.358 . S
C1728 H1731 0.930 . S
C1729 C1726 1.348 . S
C1729 C1727 1.356 . S
H1730 C1724 0.930 . S
H1731 C1728 0.930 . S
O1732 Li1672 1.956 . S
O1732 Li1673 1.970 . S
O1732 Li1674 1.961 . S
O1732 C1676 1.325 . S
O1733 Li1672 1.970 . S
O1733 Li1673 1.956 . S
O1733 Li1675 1.961 1_554 S
O1733 C1682 1.325 . S
O1734 Li1672 1.961 1_556 S
O1734 Li1674 1.956 1_556 S
O1734 Li1675 1.970 . S
O1734 C1704 1.325 . S
O1735 Li1673 1.961 . S
O1735 Li1674 1.970 . S
O1735 Li1675 1.956 1_554 S
O1735 C1710 1.325 . S
H1736 C1678 0.929 . S
H1737 C1679 0.930 . S
H1738 C1680 0.930 . S
H1739 C1681 0.930 . S
H1740 C1683 0.930 . S
H1741 C1685 0.929 . S
H1742 C1686 0.930 . S
H1743 C1687 0.930 . S
H1744 C1690 0.930 . S
H1745 C1693 0.929 . S
H1746 C1698 0.929 . S
H1747 C1699 0.930 . S
H1748 C1706 0.929 . S
H1749 C1707 0.930 . S
H1750 C1708 0.930 . S
H1751 C1709 0.930 . S
H1752 C1711 0.929 1_556 S
H1753 C1712 0.930 . S
H1754 C1713 0.914 1_556 S
H1755 C1714 0.930 . S
H1756 C1718 0.929 . S
H1757 C1720 0.930 . S
H1758 C1726 0.929 . S
H1759 C1727 0.930 . S
Li1760 N1777 1.990 . S
Li1760 O1820 1.956 . S
Li1760 O1821 1.970 . S
Li1760 O1822 1.961 . S
Li1761 N1785 1.990 . S
Li1761 O1820 1.970 . S
Li1761 O1821 1.956 . S
Li1761 O1823 1.961 1_554 S
Li1762 N1807 1.990 . S
Li1762 O1820 1.961 1_556 S
Li1762 O1822 1.956 1_556 S
Li1762 O1823 1.970 . S
Li1763 N1813 1.992 . S
Li1763 O1821 1.961 . S
Li1763 O1822 1.970 . S
Li1763 O1823 1.956 1_554 S
C1764 C1766 1.348 . S
C1764 C1767 1.356 1_554 S
C1764 O1820 1.325 . S
N1765 C1768 1.314 . S
N1765 C1769 1.269 1_554 S
C1766 C1764 1.348 . S
C1766 C1768 1.353 . S
C1766 H1824 0.929 . S
C1767 C1764 1.356 1_556 S
C1767 C1769 1.361 . S
C1767 H1825 0.930 . S
C1768 N1765 1.314 . S
C1768 C1766 1.353 . S
C1768 H1826 0.930 . S
C1769 N1765 1.269 1_556 S
C1769 C1767 1.361 . S
C1769 H1827 0.942 . S
C1770 C1773 1.348 . S
C1770 C1774 1.356 . S
C1770 O1821 1.325 . S
C1771 N1772 1.279 . S
C1771 C1774 1.358 . S
C1771 H1828 0.930 . S
N1772 C1771 1.279 . S
N1772 C1775 1.314 . S
C1773 C1770 1.348 . S
C1773 C1775 1.353 . S
C1773 H1829 0.929 . S
C1774 C1770 1.356 . S
C1774 C1771 1.358 . S
C1774 H1830 0.930 . S
C1775 N1772 1.314 . S
C1775 C1773 1.353 . S
C1775 H1831 0.930 . S
C1776 N1777 1.314 . S
C1776 C1781 1.353 . S
C1776 H1782 0.930 . S
N1777 Li1760 1.990 . S
N1777 C1776 1.314 . S
N1777 C1779 1.279 . S
C1778 C1779 1.358 . S
C1778 C1780 1.356 . S
C1778 H1832 0.930 . S
C1779 N1777 1.279 . S
C1779 C1778 1.358 . S
C1779 H1783 0.930 . S
C1780 C1778 1.356 . S
C1780 C1781 1.348 . S
C1781 C1776 1.353 . S
C1781 C1780 1.348 . S
C1781 H1833 0.929 . S
H1782 C1776 0.930 . S
H1783 C1779 0.930 . S
C1784 N1785 1.314 1_556 S
C1784 C1786 1.353 . S
C1784 H1790 0.930 . S
N1785 Li1761 1.990 . S
N1785 C1784 1.314 1_554 S
N1785 C1788 1.279 . S
C1786 C1784 1.353 . S
C1786 C1789 1.348 1_556 S
C1786 H1834 0.929 . S
C1787 C1788 1.358 . S
C1787 C1789 1.356 . S
C1787 H1835 0.930 . S
C1788 N1785 1.279 . S
C1788 C1787 1.358 . S
C1788 H1791 0.930 . S
C1789 C1786 1.348 1_554 S
C1789 C1787 1.356 . S
H1790 C1784 0.930 . S
H1791 C1788 0.930 . S
C1792 C1794 1.348 1_554 S
C1792 C1795 1.356 . S
C1792 O1822 1.325 . S
N1793 C1796 1.306 1_554 S
N1793 C1797 1.289 . S
C1794 C1792 1.348 1_556 S
C1794 C1796 1.353 . S
C1794 H1836 0.929 . S
C1795 C1792 1.356 . S
C1795 C1797 1.358 . S
C1795 H1837 0.930 . S
C1796 N1793 1.306 1_556 S
C1796 C1794 1.353 . S
C1796 H1838 0.930 . S
C1797 N1793 1.289 . S
C1797 C1795 1.358 . S
C1797 H1839 0.930 . S
C1798 C1799 1.348 . S
C1798 C1800 1.356 . S
C1798 O1823 1.325 . S
C1799 C1798 1.348 . S
C1799 C1801 1.353 . S
C1799 H1840 0.929 . S
C1800 C1798 1.356 . S
C1800 C1802 1.358 . S
C1800 H1841 0.930 . S
C1801 C1799 1.353 . S
C1801 N1803 1.314 . S
C1801 H1842 0.930 . S
C1802 C1800 1.358 . S
C1802 N1803 1.279 . S
C1802 H1843 0.930 . S
N1803 C1801 1.314 . S
N1803 C1802 1.279 . S
C1804 C1806 1.353 . S
C1804 N1807 1.314 . S
C1804 H1810 0.930 . S
C1805 N1807 1.279 . S
C1805 C1808 1.358 . S
C1805 H1811 0.930 . S
C1806 C1804 1.353 . S
C1806 C1809 1.348 . S
C1806 H1844 0.929 . S
N1807 Li1762 1.990 . S
N1807 C1804 1.314 . S
N1807 C1805 1.279 . S
C1808 C1805 1.358 . S
C1808 C1809 1.356 . S
C1808 H1845 0.930 . S
C1809 C1806 1.348 . S
C1809 C1808 1.356 . S
H1810 C1804 0.930 . S
H1811 C1805 0.930 . S
C1812 N1813 1.358 . S
C1812 C1814 1.353 . S
C1812 H1818 0.930 . S
N1813 Li1763 1.992 . S
N1813 C1812 1.358 . S
N1813 C1816 1.238 1_554 S
C1814 C1812 1.353 . S
C1814 C1817 1.348 . S
C1814 H1846 0.929 . S
C1815 C1816 1.358 . S
C1815 C1817 1.356 1_556 S
C1815 H1847 0.930 . S
C1816 N1813 1.238 1_556 S
C1816 C1815 1.358 . S
C1816 H1819 0.930 . S
C1817 C1814 1.348 . S
C1817 C1815 1.356 1_554 S
H1818 C1812 0.930 . S
H1819 C1816 0.930 . S
O1820 Li1760 1.956 . S
O1820 Li1761 1.970 . S
O1820 Li1762 1.961 1_554 S
O1820 C1764 1.325 . S
O1821 Li1760 1.970 . S
O1821 Li1761 1.956 . S
O1821 Li1763 1.961 . S
O1821 C1770 1.325 . S
O1822 Li1760 1.961 . S
O1822 Li1762 1.956 1_554 S
O1822 Li1763 1.970 . S
O1822 C1792 1.325 . S
O1823 Li1761 1.961 1_556 S
O1823 Li1762 1.970 . S
O1823 Li1763 1.956 1_556 S
O1823 C1798 1.325 . S
H1824 C1766 0.929 . S
H1825 C1767 0.930 . S
H1826 C1768 0.930 . S
H1827 C1769 0.942 . S
H1828 C1771 0.930 . S
H1829 C1773 0.929 . S
H1830 C1774 0.930 . S
H1831 C1775 0.930 . S
H1832 C1778 0.930 . S
H1833 C1781 0.929 . S
H1834 C1786 0.929 . S
H1835 C1787 0.930 . S
H1836 C1794 0.929 . S
H1837 C1795 0.930 . S
H1838 C1796 0.930 . S
H1839 C1797 0.930 . S
H1840 C1799 0.929 . S
H1841 C1800 0.930 . S
H1842 C1801 0.930 . S
H1843 C1802 0.930 . S
H1844 C1806 0.929 . S
H1845 C1808 0.930 . S
H1846 C1814 0.929 . S
H1847 C1815 0.930 . S
Li1848 N1865 1.990 . S
Li1848 O1908 1.956 . S
Li1848 O1909 1.970 . S
Li1848 O1910 1.961 . S
Li1849 N1873 1.990 . S
Li1849 O1908 1.970 . S
Li1849 O1909 1.956 . S
Li1849 O1911 1.961 . S
Li1850 N1895 1.990 . S
Li1850 O1908 1.961 . S
Li1850 O1910 1.956 . S
Li1850 O1911 1.970 . S
Li1851 N1901 1.990 . S
Li1851 O1909 1.961 . S
Li1851 O1910 1.970 . S
Li1851 O1911 1.956 . S
C1852 C1854 1.348 . S
C1852 C1855 1.356 . S
C1852 O1908 1.325 . S
N1853 C1856 1.314 . S
N1853 C1857 1.279 . S
C1854 C1852 1.348 . S
C1854 C1856 1.353 . S
C1854 H1912 0.929 . S
C1855 C1852 1.356 . S
C1855 C1857 1.358 . S
C1855 H1913 0.930 . S
C1856 N1853 1.314 . S
C1856 C1854 1.353 . S
C1856 H1914 0.930 . S
C1857 N1853 1.279 . S
C1857 C1855 1.358 . S
C1857 H1915 0.930 . S
C1858 C1861 1.348 . S
C1858 C1862 1.356 . S
C1858 O1909 1.325 . S
C1859 N1860 1.279 . S
C1859 C1862 1.358 . S
C1859 H1916 0.930 . S
N1860 C1859 1.279 . S
N1860 C1863 1.314 . S
C1861 C1858 1.348 . S
C1861 C1863 1.353 . S
C1861 H1917 0.929 . S
C1862 C1858 1.356 . S
C1862 C1859 1.358 . S
C1862 H1918 0.930 . S
C1863 N1860 1.314 . S
C1863 C1861 1.353 . S
C1863 H1919 0.930 . S
C1864 N1865 1.314 . S
C1864 C1869 1.353 . S
C1864 H1870 0.930 . S
N1865 Li1848 1.990 . S
N1865 C1864 1.314 . S
N1865 C1867 1.279 . S
C1866 C1867 1.358 . S
C1866 C1868 1.356 . S
C1866 H1920 0.930 . S
C1867 N1865 1.279 . S
C1867 C1866 1.358 . S
C1867 H1871 0.930 . S
C1868 C1866 1.356 . S
C1868 C1869 1.348 . S
C1869 C1864 1.353 . S
C1869 C1868 1.348 . S
C1869 H1921 0.929 . S
H1870 C1864 0.930 . S
H1871 C1867 0.930 . S
C1872 N1873 1.314 . S
C1872 C1874 1.353 . S
C1872 H1878 0.930 . S
N1873 Li1849 1.990 . S
N1873 C1872 1.314 . S
N1873 C1876 1.279 . S
C1874 C1872 1.353 . S
C1874 C1877 1.348 . S
C1874 H1922 0.929 . S
C1875 C1876 1.358 . S
C1875 C1877 1.356 . S
C1875 H1923 0.930 . S
C1876 N1873 1.279 . S
C1876 C1875 1.358 . S
C1876 H1879 0.930 . S
C1877 C1874 1.348 . S
C1877 C1875 1.356 . S
H1878 C1872 0.930 . S
H1879 C1876 0.930 . S
C1880 C1882 1.348 . S
C1880 C1883 1.356 . S
C1880 O1910 1.325 . S
N1881 C1884 1.314 . S
N1881 C1885 1.279 . S
C1882 C1880 1.348 . S
C1882 C1884 1.353 . S
C1882 H1924 0.929 . S
C1883 C1880 1.356 . S
C1883 C1885 1.358 . S
C1883 H1925 0.930 . S
C1884 N1881 1.314 . S
C1884 C1882 1.353 . S
C1884 H1926 0.930 . S
C1885 N1881 1.279 . S
C1885 C1883 1.358 . S
C1885 H1927 0.930 . S
C1886 C1887 1.348 . S
C1886 C1888 1.356 . S
C1886 O1911 1.325 . S
C1887 C1886 1.348 . S
C1887 C1889 1.353 . S
C1887 H1928 0.929 . S
C1888 C1886 1.356 . S
C1888 C1890 1.358 . S
C1888 H1929 0.930 . S
C1889 C1887 1.353 . S
C1889 N1891 1.314 . S
C1889 H1930 0.930 . S
C1890 C1888 1.358 . S
C1890 N1891 1.279 . S
C1890 H1931 0.930 . S
N1891 C1889 1.314 . S
N1891 C1890 1.279 . S
C1892 C1894 1.353 . S
C1892 N1895 1.314 . S
C1892 H1898 0.930 . S
C1893 N1895 1.279 . S
C1893 C1896 1.358 . S
C1893 H1899 0.930 . S
C1894 C1892 1.353 . S
C1894 C1897 1.348 . S
C1894 H1932 0.929 . S
N1895 Li1850 1.990 . S
N1895 C1892 1.314 . S
N1895 C1893 1.279 . S
C1896 C1893 1.358 . S
C1896 C1897 1.356 . S
C1896 H1933 0.930 . S
C1897 C1894 1.348 . S
C1897 C1896 1.356 . S
H1898 C1892 0.930 . S
H1899 C1893 0.930 . S
C1900 N1901 1.314 . S
C1900 C1902 1.353 . S
C1900 H1906 0.930 . S
N1901 Li1851 1.990 . S
N1901 C1900 1.314 . S
N1901 C1904 1.279 . S
C1902 C1900 1.353 . S
C1902 C1905 1.348 . S
C1902 H1934 0.929 . S
C1903 C1904 1.358 . S
C1903 C1905 1.356 . S
C1903 H1935 0.930 . S
C1904 N1901 1.279 . S
C1904 C1903 1.358 . S
C1904 H1907 0.930 . S
C1905 C1902 1.348 . S
C1905 C1903 1.356 . S
H1906 C1900 0.930 . S
H1907 C1904 0.930 . S
O1908 Li1848 1.956 . S
O1908 Li1849 1.970 . S
O1908 Li1850 1.961 . S
O1908 C1852 1.325 . S
O1909 Li1848 1.970 . S
O1909 Li1849 1.956 . S
O1909 Li1851 1.961 . S
O1909 C1858 1.325 . S
O1910 Li1848 1.961 . S
O1910 Li1850 1.956 . S
O1910 Li1851 1.970 . S
O1910 C1880 1.325 . S
O1911 Li1849 1.961 . S
O1911 Li1850 1.970 . S
O1911 Li1851 1.956 . S
O1911 C1886 1.325 . S
H1912 C1854 0.929 . S
H1913 C1855 0.930 . S
H1914 C1856 0.930 . S
H1915 C1857 0.930 . S
H1916 C1859 0.930 . S
H1917 C1861 0.929 . S
H1918 C1862 0.930 . S
H1919 C1863 0.930 . S
H1920 C1866 0.930 . S
H1921 C1869 0.929 . S
H1922 C1874 0.929 . S
H1923 C1875 0.930 . S
H1924 C1882 0.929 . S
H1925 C1883 0.930 . S
H1926 C1884 0.930 . S
H1927 C1885 0.930 . S
H1928 C1887 0.929 . S
H1929 C1888 0.930 . S
H1930 C1889 0.930 . S
H1931 C1890 0.930 . S
H1932 C1894 0.929 . S
H1933 C1896 0.930 . S
H1934 C1902 0.929 . S
H1935 C1903 0.930 . S
Li1936 N1953 1.990 . S
Li1936 O1996 1.956 . S
Li1936 O1997 1.970 . S
Li1936 O1998 1.961 . S
Li1937 N1961 1.990 . S
Li1937 O1996 1.970 . S
Li1937 O1997 1.956 . S
Li1937 O1999 1.961 . S
Li1938 N1983 1.990 . S
Li1938 O1996 1.961 . S
Li1938 O1998 1.956 . S
Li1938 O1999 1.970 . S
Li1939 N1989 1.990 . S
Li1939 O1997 1.961 . S
Li1939 O1998 1.970 . S
Li1939 O1999 1.956 . S
C1940 C1942 1.348 . S
C1940 C1943 1.356 . S
C1940 O1996 1.325 . S
N1941 C1944 1.314 . S
N1941 C1945 1.279 . S
C1942 C1940 1.348 . S
C1942 C1944 1.353 . S
C1942 H2000 0.929 . S
C1943 C1940 1.356 . S
C1943 C1945 1.358 . S
C1943 H2001 0.930 . S
C1944 N1941 1.314 . S
C1944 C1942 1.353 . S
C1944 H2002 0.930 . S
C1945 N1941 1.279 . S
C1945 C1943 1.358 . S
C1945 H2003 0.930 . S
C1946 C1949 1.348 . S
C1946 C1950 1.356 . S
C1946 O1997 1.325 . S
C1947 N1948 1.279 . S
C1947 C1950 1.358 . S
C1947 H2004 0.930 . S
N1948 C1947 1.279 . S
N1948 C1951 1.314 . S
C1949 C1946 1.348 . S
C1949 C1951 1.353 . S
C1949 H2005 0.929 . S
C1950 C1946 1.356 . S
C1950 C1947 1.358 . S
C1950 H2006 0.930 . S
C1951 N1948 1.314 . S
C1951 C1949 1.353 . S
C1951 H2007 0.930 . S
C1952 N1953 1.314 . S
C1952 C1957 1.353 . S
C1952 H1958 0.930 . S
N1953 Li1936 1.990 . S
N1953 C1952 1.314 . S
N1953 C1955 1.279 . S
C1954 C1955 1.358 . S
C1954 C1956 1.356 . S
C1954 H2008 0.930 . S
C1955 N1953 1.279 . S
C1955 C1954 1.358 . S
C1955 H1959 0.930 . S
C1956 C1954 1.356 . S
C1956 C1957 1.348 . S
C1957 C1952 1.353 . S
C1957 C1956 1.348 . S
C1957 H2009 0.929 . S
H1958 C1952 0.930 . S
H1959 C1955 0.930 . S
C1960 N1961 1.314 . S
C1960 C1962 1.353 . S
C1960 H1966 0.930 . S
N1961 Li1937 1.990 . S
N1961 C1960 1.314 . S
N1961 C1964 1.279 . S
C1962 C1960 1.353 . S
C1962 C1965 1.348 . S
C1962 H2010 0.929 . S
C1963 C1964 1.358 . S
C1963 C1965 1.356 . S
C1963 H2011 0.930 . S
C1964 N1961 1.279 . S
C1964 C1963 1.358 . S
C1964 H1967 0.930 . S
C1965 C1962 1.348 . S
C1965 C1963 1.356 . S
H1966 C1960 0.930 . S
H1967 C1964 0.930 . S
C1968 C1970 1.348 . S
C1968 C1971 1.356 . S
C1968 O1998 1.325 . S
N1969 C1972 1.314 . S
N1969 C1973 1.279 . S
C1970 C1968 1.348 . S
C1970 C1972 1.353 . S
C1970 H2012 0.929 . S
C1971 C1968 1.356 . S
C1971 C1973 1.358 . S
C1971 H2013 0.930 . S
C1972 N1969 1.314 . S
C1972 C1970 1.353 . S
C1972 H2014 0.930 . S
C1973 N1969 1.279 . S
C1973 C1971 1.358 . S
C1973 H2015 0.930 . S
C1974 C1975 1.348 . S
C1974 C1976 1.356 . S
C1974 O1999 1.325 . S
C1975 C1974 1.348 . S
C1975 C1977 1.353 . S
C1975 H2016 0.929 . S
C1976 C1974 1.356 . S
C1976 C1978 1.358 . S
C1976 H2017 0.930 . S
C1977 C1975 1.353 . S
C1977 N1979 1.314 . S
C1977 H2018 0.930 . S
C1978 C1976 1.358 . S
C1978 N1979 1.279 . S
C1978 H2019 0.930 . S
N1979 C1977 1.314 . S
N1979 C1978 1.279 . S
C1980 C1982 1.353 . S
C1980 N1983 1.314 . S
C1980 H1986 0.930 . S
C1981 N1983 1.279 . S
C1981 C1984 1.358 . S
C1981 H1987 0.930 . S
C1982 C1980 1.353 . S
C1982 C1985 1.348 . S
C1982 H2020 0.929 . S
N1983 Li1938 1.990 . S
N1983 C1980 1.314 . S
N1983 C1981 1.279 . S
C1984 C1981 1.358 . S
C1984 C1985 1.356 . S
C1984 H2021 0.930 . S
C1985 C1982 1.348 . S
C1985 C1984 1.356 . S
H1986 C1980 0.930 . S
H1987 C1981 0.930 . S
C1988 N1989 1.314 . S
C1988 C1990 1.353 . S
C1988 H1994 0.930 . S
N1989 Li1939 1.990 . S
N1989 C1988 1.314 . S
N1989 C1992 1.279 . S
C1990 C1988 1.353 . S
C1990 C1993 1.348 . S
C1990 H2022 0.929 . S
C1991 C1992 1.358 . S
C1991 C1993 1.356 . S
C1991 H2023 0.930 . S
C1992 N1989 1.279 . S
C1992 C1991 1.358 . S
C1992 H1995 0.930 . S
C1993 C1990 1.348 . S
C1993 C1991 1.356 . S
H1994 C1988 0.930 . S
H1995 C1992 0.930 . S
O1996 Li1936 1.956 . S
O1996 Li1937 1.970 . S
O1996 Li1938 1.961 . S
O1996 C1940 1.325 . S
O1997 Li1936 1.970 . S
O1997 Li1937 1.956 . S
O1997 Li1939 1.961 . S
O1997 C1946 1.325 . S
O1998 Li1936 1.961 . S
O1998 Li1938 1.956 . S
O1998 Li1939 1.970 . S
O1998 C1968 1.325 . S
O1999 Li1937 1.961 . S
O1999 Li1938 1.970 . S
O1999 Li1939 1.956 . S
O1999 C1974 1.325 . S
H2000 C1942 0.929 . S
H2001 C1943 0.930 . S
H2002 C1944 0.930 . S
H2003 C1945 0.930 . S
H2004 C1947 0.930 . S
H2005 C1949 0.929 . S
H2006 C1950 0.930 . S
H2007 C1951 0.930 . S
H2008 C1954 0.930 . S
H2009 C1957 0.929 . S
H2010 C1962 0.929 . S
H2011 C1963 0.930 . S
H2012 C1970 0.929 . S
H2013 C1971 0.930 . S
H2014 C1972 0.930 . S
H2015 C1973 0.930 . S
H2016 C1975 0.929 . S
H2017 C1976 0.930 . S
H2018 C1977 0.930 . S
H2019 C1978 0.930 . S
H2020 C1982 0.929 . S
H2021 C1984 0.930 . S
H2022 C1990 0.929 . S
H2023 C1991 0.930 . S
Li2024 N2041 1.990 . S
Li2024 O2084 1.956 . S
Li2024 O2085 1.970 . S
Li2024 O2086 1.961 . S
Li2025 N2049 1.990 . S
Li2025 O2084 1.970 . S
Li2025 O2085 1.956 . S
Li2025 O2087 1.961 . S
Li2026 N2071 1.990 . S
Li2026 O2084 1.961 . S
Li2026 O2086 1.956 . S
Li2026 O2087 1.970 . S
Li2027 N2077 1.990 . S
Li2027 O2085 1.961 . S
Li2027 O2086 1.970 . S
Li2027 O2087 1.956 . S
C2028 C2030 1.348 . S
C2028 C2031 1.356 . S
C2028 O2084 1.325 . S
N2029 C2032 1.314 . S
N2029 C2033 1.279 . S
C2030 C2028 1.348 . S
C2030 C2032 1.353 . S
C2030 H2088 0.929 . S
C2031 C2028 1.356 . S
C2031 C2033 1.358 . S
C2031 H2089 0.930 . S
C2032 N2029 1.314 . S
C2032 C2030 1.353 . S
C2032 H2090 0.930 . S
C2033 N2029 1.279 . S
C2033 C2031 1.358 . S
C2033 H2091 0.930 . S
C2034 C2037 1.348 . S
C2034 C2038 1.356 . S
C2034 O2085 1.325 . S
C2035 N2036 1.279 . S
C2035 C2038 1.358 . S
C2035 H2092 0.930 . S
N2036 C2035 1.279 . S
N2036 C2039 1.314 . S
C2037 C2034 1.348 . S
C2037 C2039 1.353 . S
C2037 H2093 0.929 . S
C2038 C2034 1.356 . S
C2038 C2035 1.358 . S
C2038 H2094 0.930 . S
C2039 N2036 1.314 . S
C2039 C2037 1.353 . S
C2039 H2095 0.930 . S
C2040 N2041 1.314 . S
C2040 C2045 1.353 . S
C2040 H2046 0.930 . S
N2041 Li2024 1.990 . S
N2041 C2040 1.314 . S
N2041 C2043 1.279 . S
C2042 C2043 1.358 . S
C2042 C2044 1.356 . S
C2042 H2096 0.930 . S
C2043 N2041 1.279 . S
C2043 C2042 1.358 . S
C2043 H2047 0.930 . S
C2044 C2042 1.356 . S
C2044 C2045 1.348 . S
C2045 C2040 1.353 . S
C2045 C2044 1.348 . S
C2045 H2097 0.929 . S
H2046 C2040 0.930 . S
H2047 C2043 0.930 . S
C2048 N2049 1.314 . S
C2048 C2050 1.353 . S
C2048 H2054 0.930 . S
N2049 Li2025 1.990 . S
N2049 C2048 1.314 . S
N2049 C2052 1.279 . S
C2050 C2048 1.353 . S
C2050 C2053 1.348 . S
C2050 H2098 0.929 . S
C2051 C2052 1.358 . S
C2051 C2053 1.356 . S
C2051 H2099 0.930 . S
C2052 N2049 1.279 . S
C2052 C2051 1.358 . S
C2052 H2055 0.930 . S
C2053 C2050 1.348 . S
C2053 C2051 1.356 . S
H2054 C2048 0.930 . S
H2055 C2052 0.930 . S
C2056 C2058 1.348 . S
C2056 C2059 1.356 . S
C2056 O2086 1.325 . S
N2057 C2060 1.314 . S
N2057 C2061 1.279 . S
C2058 C2056 1.348 . S
C2058 C2060 1.353 . S
C2058 H2100 0.929 . S
C2059 C2056 1.356 . S
C2059 C2061 1.358 . S
C2059 H2101 0.930 . S
C2060 N2057 1.314 . S
C2060 C2058 1.353 . S
C2060 H2102 0.930 . S
C2061 N2057 1.279 . S
C2061 C2059 1.358 . S
C2061 H2103 0.930 . S
C2062 C2063 1.348 . S
C2062 C2064 1.356 . S
C2062 O2087 1.325 . S
C2063 C2062 1.348 . S
C2063 C2065 1.353 . S
C2063 H2104 0.929 . S
C2064 C2062 1.356 . S
C2064 C2066 1.358 . S
C2064 H2105 0.930 . S
C2065 C2063 1.353 . S
C2065 N2067 1.314 . S
C2065 H2106 0.930 . S
C2066 C2064 1.358 . S
C2066 N2067 1.279 . S
C2066 H2107 0.930 . S
N2067 C2065 1.314 . S
N2067 C2066 1.279 . S
C2068 C2070 1.353 . S
C2068 N2071 1.314 . S
C2068 H2074 0.930 . S
C2069 N2071 1.279 . S
C2069 C2072 1.358 . S
C2069 H2075 0.930 . S
C2070 C2068 1.353 . S
C2070 C2073 1.348 . S
C2070 H2108 0.929 . S
N2071 Li2026 1.990 . S
N2071 C2068 1.314 . S
N2071 C2069 1.279 . S
C2072 C2069 1.358 . S
C2072 C2073 1.356 . S
C2072 H2109 0.930 . S
C2073 C2070 1.348 . S
C2073 C2072 1.356 . S
H2074 C2068 0.930 . S
H2075 C2069 0.930 . S
C2076 N2077 1.314 . S
C2076 C2078 1.353 . S
C2076 H2082 0.930 . S
N2077 Li2027 1.990 . S
N2077 C2076 1.314 . S
N2077 C2080 1.279 . S
C2078 C2076 1.353 . S
C2078 C2081 1.348 . S
C2078 H2110 0.929 . S
C2079 C2080 1.358 . S
C2079 C2081 1.356 . S
C2079 H2111 0.930 . S
C2080 N2077 1.279 . S
C2080 C2079 1.358 . S
C2080 H2083 0.930 . S
C2081 C2078 1.348 . S
C2081 C2079 1.356 . S
H2082 C2076 0.930 . S
H2083 C2080 0.930 . S
O2084 Li2024 1.956 . S
O2084 Li2025 1.970 . S
O2084 Li2026 1.961 . S
O2084 C2028 1.325 . S
O2085 Li2024 1.970 . S
O2085 Li2025 1.956 . S
O2085 Li2027 1.961 . S
O2085 C2034 1.325 . S
O2086 Li2024 1.961 . S
O2086 Li2026 1.956 . S
O2086 Li2027 1.970 . S
O2086 C2056 1.325 . S
O2087 Li2025 1.961 . S
O2087 Li2026 1.970 . S
O2087 Li2027 1.956 . S
O2087 C2062 1.325 . S
H2088 C2030 0.929 . S
H2089 C2031 0.930 . S
H2090 C2032 0.930 . S
H2091 C2033 0.930 . S
H2092 C2035 0.930 . S
H2093 C2037 0.929 . S
H2094 C2038 0.930 . S
H2095 C2039 0.930 . S
H2096 C2042 0.930 . S
H2097 C2045 0.929 . S
H2098 C2050 0.929 . S
H2099 C2051 0.930 . S
H2100 C2058 0.929 . S
H2101 C2059 0.930 . S
H2102 C2060 0.930 . S
H2103 C2061 0.930 . S
H2104 C2063 0.929 . S
H2105 C2064 0.930 . S
H2106 C2065 0.930 . S
H2107 C2066 0.930 . S
H2108 C2070 0.929 . S
H2109 C2072 0.930 . S
H2110 C2078 0.929 . S
H2111 C2079 0.930 . S
O2112 Mn2113 2.163 . S
O2112 C2126 1.246 . S
Mn2113 O2112 2.163 . S
Mn2113 O2116 2.160 1_445 S
Mn2113 O2117 2.221 1_455 S
Mn2113 O2119 2.163 1_454 S
Mn2113 O2121 2.152 1_545 S
Mn2113 O2131 2.221 1_545 S
O2114 Mn2115 2.047 1_546 S
O2114 C2126 1.279 1_556 S
Mn2115 O2114 2.047 1_564 S
Mn2115 O2122 2.089 . S
Mn2115 O2131 2.290 . S
Mn2115 O2132 2.251 1_554 S
O2116 Mn2113 2.160 1_665 S
O2116 C2127 1.239 . S
O2117 Mn2113 2.221 1_655 S
O2117 Mn2118 2.284 1_554 S
O2117 C2128 1.278 . S
Mn2118 O2117 2.284 1_556 S
Mn2118 O2120 2.087 1_556 S
Mn2118 O2123 2.249 1_556 S
Mn2118 O2124 2.098 . S
O2119 Mn2113 2.163 1_656 S
O2119 C2129 1.244 . S
O2120 Mn2118 2.087 1_554 S
O2120 C2127 1.256 1_545 S
O2121 Mn2113 2.152 1_565 S
O2121 C2130 1.255 . S
O2122 Mn2115 2.089 . S
O2122 C2130 1.256 . S
O2123 Mn2118 2.249 1_554 S
O2123 C2128 1.241 . S
O2124 Mn2118 2.098 . S
O2124 C2129 1.256 . S
C2125 O2131 1.278 1_556 S
C2125 O2132 1.241 . S
C2126 O2112 1.246 . S
C2126 O2114 1.279 1_554 S
C2127 O2116 1.239 . S
C2127 O2120 1.256 1_565 S
C2128 O2117 1.278 . S
C2128 O2123 1.241 . S
C2129 O2119 1.244 . S
C2129 O2124 1.256 . S
C2130 O2121 1.255 . S
C2130 O2122 1.256 . S
O2131 Mn2113 2.221 1_565 S
O2131 Mn2115 2.290 . S
O2131 C2125 1.278 1_554 S
O2132 Mn2115 2.251 1_556 S
O2132 C2125 1.241 . S
O2133 Mn2134 2.163 . S
O2133 C2147 1.244 . S
Mn2134 O2133 2.163 . S
Mn2134 O2137 2.160 . S
Mn2134 O2138 2.221 . S
Mn2134 O2140 2.163 . S
Mn2134 O2142 2.160 . S
Mn2134 O2152 2.221 . S
O2135 Mn2136 2.087 . S
O2135 C2147 1.256 . S
Mn2136 O2135 2.087 . S
Mn2136 O2143 2.089 . S
Mn2136 O2152 2.290 . S
Mn2136 O2153 2.251 . S
O2137 Mn2134 2.160 . S
O2137 C2148 1.239 . S
O2138 Mn2134 2.221 . S
O2138 Mn2139 2.290 . S
O2138 C2149 1.278 . S
Mn2139 O2138 2.290 . S
Mn2139 O2141 2.089 . S
Mn2139 O2144 2.251 . S
Mn2139 O2145 2.087 . S
O2140 Mn2134 2.163 . S
O2140 C2150 1.244 . S
O2141 Mn2139 2.089 . S
O2141 C2148 1.256 . S
O2142 Mn2134 2.160 . S
O2142 C2151 1.239 . S
O2143 Mn2136 2.089 . S
O2143 C2151 1.256 . S
O2144 Mn2139 2.251 . S
O2144 C2149 1.241 . S
O2145 Mn2139 2.087 . S
O2145 C2150 1.256 . S
C2146 O2152 1.278 . S
C2146 O2153 1.241 . S
C2147 O2133 1.244 . S
C2147 O2135 1.256 . S
C2148 O2137 1.239 . S
C2148 O2141 1.256 . S
C2149 O2138 1.278 . S
C2149 O2144 1.241 . S
C2150 O2140 1.244 . S
C2150 O2145 1.256 . S
C2151 O2142 1.239 . S
C2151 O2143 1.256 . S
O2152 Mn2134 2.221 . S
O2152 Mn2136 2.290 . S
O2152 C2146 1.278 . S
O2153 Mn2136 2.251 . S
O2153 C2146 1.241 . S
O2154 Mn2155 2.163 1_565 S
O2154 C2168 1.244 . S
Mn2155 O2154 2.163 1_545 S
Mn2155 O2158 2.160 . S
Mn2155 O2159 2.221 1_545 S
Mn2155 O2161 2.163 . S
Mn2155 O2163 2.160 . S
Mn2155 O2173 2.221 . S
O2156 Mn2157 2.087 . S
O2156 C2168 1.256 1_545 S
Mn2157 O2156 2.087 . S
Mn2157 O2164 2.089 . S
Mn2157 O2173 2.290 . S
Mn2157 O2174 2.251 . S
O2158 Mn2155 2.160 . S
O2158 C2169 1.239 . S
O2159 Mn2155 2.221 1_565 S
O2159 Mn2160 2.290 . S
O2159 C2170 1.278 . S
Mn2160 O2159 2.290 . S
Mn2160 O2162 2.089 1_565 S
Mn2160 O2165 2.251 . S
Mn2160 O2166 2.087 . S
O2161 Mn2155 2.163 . S
O2161 C2171 1.244 1_545 S
O2162 Mn2160 2.089 1_545 S
O2162 C2169 1.256 . S
O2163 Mn2155 2.160 . S
O2163 C2172 1.239 . S
O2164 Mn2157 2.089 . S
O2164 C2172 1.256 . S
O2165 Mn2160 2.251 . S
O2165 C2170 1.241 . S
O2166 Mn2160 2.087 . S
O2166 C2171 1.256 . S
C2167 O2173 1.278 . S
C2167 O2174 1.241 . S
C2168 O2154 1.244 . S
C2168 O2156 1.256 1_565 S
C2169 O2158 1.239 . S
C2169 O2162 1.256 . S
C2170 O2159 1.278 . S
C2170 O2165 1.241 . S
C2171 O2161 1.244 1_565 S
C2171 O2166 1.256 . S
C2172 O2163 1.239 . S
C2172 O2164 1.256 . S
O2173 Mn2155 2.221 . S
O2173 Mn2157 2.290 . S
O2173 C2167 1.278 . S
O2174 Mn2157 2.251 . S
O2174 C2167 1.241 . S
O2175 Mn2176 2.163 . S
O2175 C2189 1.244 . S
Mn2176 O2175 2.163 . S
Mn2176 O2179 2.160 . S
Mn2176 O2180 2.221 . S
Mn2176 O2182 2.163 . S
Mn2176 O2184 2.160 . S
Mn2176 O2194 2.221 . S
O2177 Mn2178 2.087 . S
O2177 C2189 1.256 . S
Mn2178 O2177 2.087 . S
Mn2178 O2185 2.089 . S
Mn2178 O2194 2.290 . S
Mn2178 O2195 2.251 . S
O2179 Mn2176 2.160 . S
O2179 C2190 1.239 . S
O2180 Mn2176 2.221 . S
O2180 Mn2181 2.290 . S
O2180 C2191 1.278 . S
Mn2181 O2180 2.290 . S
Mn2181 O2183 2.089 . S
Mn2181 O2186 2.251 . S
Mn2181 O2187 2.087 . S
O2182 Mn2176 2.163 . S
O2182 C2192 1.244 . S
O2183 Mn2181 2.089 . S
O2183 C2190 1.256 . S
O2184 Mn2176 2.160 . S
O2184 C2193 1.239 . S
O2185 Mn2178 2.089 . S
O2185 C2193 1.256 . S
O2186 Mn2181 2.251 . S
O2186 C2191 1.241 . S
O2187 Mn2181 2.087 . S
O2187 C2192 1.256 . S
C2188 O2194 1.278 . S
C2188 O2195 1.241 . S
C2189 O2175 1.244 . S
C2189 O2177 1.256 . S
C2190 O2179 1.239 . S
C2190 O2183 1.256 . S
C2191 O2180 1.278 . S
C2191 O2186 1.241 . S
C2192 O2182 1.244 . S
C2192 O2187 1.256 . S
C2193 O2184 1.239 . S
C2193 O2185 1.256 . S
O2194 Mn2176 2.221 . S
O2194 Mn2178 2.290 . S
O2194 C2188 1.278 . S
O2195 Mn2178 2.251 . S
O2195 C2188 1.241 . S
O2196 Mn2197 2.163 1_565 S
O2196 C2210 1.244 . S
Mn2197 O2196 2.163 1_545 S
Mn2197 O2200 2.160 . S
Mn2197 O2201 2.221 . S
Mn2197 O2203 2.163 1_455 S
Mn2197 O2205 2.160 1_545 S
Mn2197 O2215 2.221 1_545 S
O2198 Mn2199 2.106 . S
O2198 C2210 1.259 . S
Mn2199 O2198 2.106 . S
Mn2199 O2206 2.089 . S
Mn2199 O2215 2.290 . S
Mn2199 O2216 2.251 1_455 S
O2200 Mn2197 2.160 . S
O2200 C2211 1.239 . S
O2201 Mn2197 2.221 . S
O2201 Mn2202 2.290 . S
O2201 C2212 1.278 . S
Mn2202 O2201 2.290 . S
Mn2202 O2204 2.089 . S
Mn2202 O2207 2.251 . S
Mn2202 O2208 2.087 1_455 S
O2203 Mn2197 2.163 1_655 S
O2203 C2213 1.244 . S
O2204 Mn2202 2.089 . S
O2204 C2211 1.256 . S
O2205 Mn2197 2.160 1_565 S
O2205 C2214 1.239 . S
O2206 Mn2199 2.089 . S
O2206 C2214 1.256 . S
O2207 Mn2202 2.251 . S
O2207 C2212 1.241 . S
O2208 Mn2202 2.087 1_655 S
O2208 C2213 1.256 . S
C2209 O2215 1.278 1_655 S
C2209 O2216 1.241 . S
C2210 O2196 1.244 . S
C2210 O2198 1.259 . S
C2211 O2200 1.239 . S
C2211 O2204 1.256 . S
C2212 O2201 1.278 . S
C2212 O2207 1.241 . S
C2213 O2203 1.244 . S
C2213 O2208 1.256 . S
C2214 O2205 1.239 . S
C2214 O2206 1.256 . S
O2215 Mn2197 2.221 1_565 S
O2215 Mn2199 2.290 . S
O2215 C2209 1.278 1_455 S
O2216 Mn2199 2.251 1_655 S
O2216 C2209 1.241 . S
O2217 Mn2218 2.163 . S
O2217 C2231 1.244 . S
Mn2218 O2217 2.163 . S
Mn2218 O2221 2.160 . S
Mn2218 O2222 2.221 . S
Mn2218 O2224 2.163 . S
Mn2218 O2226 2.160 . S
Mn2218 O2236 2.221 . S
O2219 Mn2220 2.087 . S
O2219 C2231 1.256 . S
Mn2220 O2219 2.087 . S
Mn2220 O2227 2.089 . S
Mn2220 O2236 2.290 . S
Mn2220 O2237 2.251 . S
O2221 Mn2218 2.160 . S
O2221 C2232 1.239 . S
O2222 Mn2218 2.221 . S
O2222 Mn2223 2.290 . S
O2222 C2233 1.278 . S
Mn2223 O2222 2.290 . S
Mn2223 O2225 2.089 . S
Mn2223 O2228 2.251 . S
Mn2223 O2229 2.087 . S
O2224 Mn2218 2.163 . S
O2224 C2234 1.244 . S
O2225 Mn2223 2.089 . S
O2225 C2232 1.256 . S
O2226 Mn2218 2.160 . S
O2226 C2235 1.239 . S
O2227 Mn2220 2.089 . S
O2227 C2235 1.256 . S
O2228 Mn2223 2.251 . S
O2228 C2233 1.241 . S
O2229 Mn2223 2.087 . S
O2229 C2234 1.256 . S
C2230 O2236 1.278 . S
C2230 O2237 1.241 . S
C2231 O2217 1.244 . S
C2231 O2219 1.256 . S
C2232 O2221 1.239 . S
C2232 O2225 1.256 . S
C2233 O2222 1.278 . S
C2233 O2228 1.241 . S
C2234 O2224 1.244 . S
C2234 O2229 1.256 . S
C2235 O2226 1.239 . S
C2235 O2227 1.256 . S
O2236 Mn2218 2.221 . S
O2236 Mn2220 2.290 . S
O2236 C2230 1.278 . S
O2237 Mn2220 2.251 . S
O2237 C2230 1.241 . S
O2238 Mn2239 2.163 1_556 S
O2238 C2252 1.245 . S
Mn2239 O2238 2.163 1_554 S
Mn2239 O2242 2.160 . S
Mn2239 O2243 2.221 . S
Mn2239 O2245 2.163 1_545 S
Mn2239 O2247 2.160 1_554 S
Mn2239 O2257 2.221 1_554 S
O2240 Mn2241 2.066 1_565 S
O2240 C2252 1.254 1_565 S
Mn2241 O2240 2.066 1_545 S
Mn2241 O2248 2.089 . S
Mn2241 O2257 2.290 . S
Mn2241 O2258 2.251 1_545 S
O2242 Mn2239 2.160 . S
O2242 C2253 1.239 . S
O2243 Mn2239 2.221 . S
O2243 Mn2244 2.280 1_545 S
O2243 C2254 1.278 . S
Mn2244 O2243 2.280 1_565 S
Mn2244 O2246 2.086 1_565 S
Mn2244 O2249 2.248 1_565 S
Mn2244 O2250 2.105 . S
O2245 Mn2239 2.163 1_565 S
O2245 C2255 1.244 . S
O2246 Mn2244 2.086 1_545 S
O2246 C2253 1.256 . S
O2247 Mn2239 2.160 1_556 S
O2247 C2256 1.239 . S
O2248 Mn2241 2.089 . S
O2248 C2256 1.256 . S
O2249 Mn2244 2.248 1_545 S
O2249 C2254 1.241 . S
O2250 Mn2244 2.105 . S
O2250 C2255 1.256 . S
C2251 O2257 1.278 1_565 S
C2251 O2258 1.241 . S
C2252 O2238 1.245 . S
C2252 O2240 1.254 1_545 S
C2253 O2242 1.239 . S
C2253 O2246 1.256 . S
C2254 O2243 1.278 . S
C2254 O2249 1.241 . S
C2255 O2245 1.244 . S
C2255 O2250 1.256 . S
C2256 O2247 1.239 . S
C2256 O2248 1.256 . S
O2257 Mn2239 2.221 1_556 S
O2257 Mn2241 2.290 . S
O2257 C2251 1.278 1_545 S
O2258 Mn2241 2.251 1_565 S
O2258 C2251 1.241 . S
O2259 Mn2260 2.163 . S
O2259 C2273 1.244 . S
Mn2260 O2259 2.163 . S
Mn2260 O2263 2.160 . S
Mn2260 O2264 2.221 . S
Mn2260 O2266 2.163 . S
Mn2260 O2268 2.160 . S
Mn2260 O2278 2.221 . S
O2261 Mn2262 2.087 . S
O2261 C2273 1.256 . S
Mn2262 O2261 2.087 . S
Mn2262 O2269 2.089 . S
Mn2262 O2278 2.290 . S
Mn2262 O2279 2.251 . S
O2263 Mn2260 2.160 . S
O2263 C2274 1.239 . S
O2264 Mn2260 2.221 . S
O2264 Mn2265 2.290 . S
O2264 C2275 1.278 . S
Mn2265 O2264 2.290 . S
Mn2265 O2267 2.089 . S
Mn2265 O2270 2.251 . S
Mn2265 O2271 2.087 . S
O2266 Mn2260 2.163 . S
O2266 C2276 1.244 . S
O2267 Mn2265 2.089 . S
O2267 C2274 1.256 . S
O2268 Mn2260 2.160 . S
O2268 C2277 1.239 . S
O2269 Mn2262 2.089 . S
O2269 C2277 1.256 . S
O2270 Mn2265 2.251 . S
O2270 C2275 1.241 . S
O2271 Mn2265 2.087 . S
O2271 C2276 1.256 . S
C2272 O2278 1.278 . S
C2272 O2279 1.241 . S
C2273 O2259 1.244 . S
C2273 O2261 1.256 . S
C2274 O2263 1.239 . S
C2274 O2267 1.256 . S
C2275 O2264 1.278 . S
C2275 O2270 1.241 . S
C2276 O2266 1.244 . S
C2276 O2271 1.256 . S
C2277 O2268 1.239 . S
C2277 O2269 1.256 . S
O2278 Mn2260 2.221 . S
O2278 Mn2262 2.290 . S
O2278 C2272 1.278 . S
O2279 Mn2262 2.251 . S
O2279 C2272 1.241 . S
O2280 Mn2281 2.163 1_556 S
O2280 C2294 1.244 . S
Mn2281 O2280 2.163 1_554 S
Mn2281 O2284 2.160 . S
Mn2281 O2285 2.221 1_554 S
Mn2281 O2287 2.163 . S
Mn2281 O2289 2.160 . S
Mn2281 O2299 2.221 . S
O2282 Mn2283 2.087 . S
O2282 C2294 1.256 1_554 S
Mn2283 O2282 2.087 . S
Mn2283 O2290 2.089 . S
Mn2283 O2299 2.290 . S
Mn2283 O2300 2.251 . S
O2284 Mn2281 2.160 . S
O2284 C2295 1.239 . S
O2285 Mn2281 2.221 1_556 S
O2285 Mn2286 2.290 . S
O2285 C2296 1.278 . S
Mn2286 O2285 2.290 . S
Mn2286 O2288 2.089 1_556 S
Mn2286 O2291 2.251 . S
Mn2286 O2292 2.087 . S
O2287 Mn2281 2.163 . S
O2287 C2297 1.244 1_554 S
O2288 Mn2286 2.089 1_554 S
O2288 C2295 1.256 . S
O2289 Mn2281 2.160 . S
O2289 C2298 1.239 . S
O2290 Mn2283 2.089 . S
O2290 C2298 1.256 . S
O2291 Mn2286 2.251 . S
O2291 C2296 1.241 . S
O2292 Mn2286 2.087 . S
O2292 C2297 1.256 . S
C2293 O2299 1.278 . S
C2293 O2300 1.241 . S
C2294 O2280 1.244 . S
C2294 O2282 1.256 1_556 S
C2295 O2284 1.239 . S
C2295 O2288 1.256 . S
C2296 O2285 1.278 . S
C2296 O2291 1.241 . S
C2297 O2287 1.244 1_556 S
C2297 O2292 1.256 . S
C2298 O2289 1.239 . S
C2298 O2290 1.256 . S
O2299 Mn2281 2.221 . S
O2299 Mn2283 2.290 . S
O2299 C2293 1.278 . S
O2300 Mn2283 2.251 . S
O2300 C2293 1.241 . S
O2301 Mn2302 2.163 . S
O2301 C2315 1.244 . S
Mn2302 O2301 2.163 . S
Mn2302 O2305 2.160 . S
Mn2302 O2306 2.221 . S
Mn2302 O2308 2.163 . S
Mn2302 O2310 2.160 . S
Mn2302 O2320 2.221 . S
O2303 Mn2304 2.087 . S
O2303 C2315 1.256 . S
Mn2304 O2303 2.087 . S
Mn2304 O2311 2.089 . S
Mn2304 O2320 2.290 . S
Mn2304 O2321 2.251 . S
O2305 Mn2302 2.160 . S
O2305 C2316 1.239 . S
O2306 Mn2302 2.221 . S
O2306 Mn2307 2.290 . S
O2306 C2317 1.278 . S
Mn2307 O2306 2.290 . S
Mn2307 O2309 2.089 . S
Mn2307 O2312 2.251 . S
Mn2307 O2313 2.087 . S
O2308 Mn2302 2.163 . S
O2308 C2318 1.244 . S
O2309 Mn2307 2.089 . S
O2309 C2316 1.256 . S
O2310 Mn2302 2.160 . S
O2310 C2319 1.239 . S
O2311 Mn2304 2.089 . S
O2311 C2319 1.256 . S
O2312 Mn2307 2.251 . S
O2312 C2317 1.241 . S
O2313 Mn2307 2.087 . S
O2313 C2318 1.256 . S
C2314 O2320 1.278 . S
C2314 O2321 1.241 . S
C2315 O2301 1.244 . S
C2315 O2303 1.256 . S
C2316 O2305 1.239 . S
C2316 O2309 1.256 . S
C2317 O2306 1.278 . S
C2317 O2312 1.241 . S
C2318 O2308 1.244 . S
C2318 O2313 1.256 . S
C2319 O2310 1.239 . S
C2319 O2311 1.256 . S
O2320 Mn2302 2.221 . S
O2320 Mn2304 2.290 . S
O2320 C2314 1.278 . S
O2321 Mn2304 2.251 . S
O2321 C2314 1.241 . S
O2322 Mn2323 2.163 1_655 S
O2322 C2336 1.244 . S
Mn2323 O2322 2.163 1_455 S
Mn2323 O2326 2.160 . S
Mn2323 O2327 2.221 1_455 S
Mn2323 O2329 2.163 . S
Mn2323 O2331 2.160 . S
Mn2323 O2341 2.221 . S
O2324 Mn2325 2.087 . S
O2324 C2336 1.256 1_455 S
Mn2325 O2324 2.087 . S
Mn2325 O2332 2.089 . S
Mn2325 O2341 2.290 . S
Mn2325 O2342 2.251 . S
O2326 Mn2323 2.160 . S
O2326 C2337 1.239 . S
O2327 Mn2323 2.221 1_655 S
O2327 Mn2328 2.290 . S
O2327 C2338 1.278 . S
Mn2328 O2327 2.290 . S
Mn2328 O2330 2.089 1_655 S
Mn2328 O2333 2.251 . S
Mn2328 O2334 2.087 . S
O2329 Mn2323 2.163 . S
O2329 C2339 1.244 1_455 S
O2330 Mn2328 2.089 1_455 S
O2330 C2337 1.256 . S
O2331 Mn2323 2.160 . S
O2331 C2340 1.239 . S
O2332 Mn2325 2.089 . S
O2332 C2340 1.256 . S
O2333 Mn2328 2.251 . S
O2333 C2338 1.241 . S
O2334 Mn2328 2.087 . S
O2334 C2339 1.256 . S
C2335 O2341 1.278 . S
C2335 O2342 1.241 . S
C2336 O2322 1.244 . S
C2336 O2324 1.256 1_655 S
C2337 O2326 1.239 . S
C2337 O2330 1.256 . S
C2338 O2327 1.278 . S
C2338 O2333 1.241 . S
C2339 O2329 1.244 1_655 S
C2339 O2334 1.256 . S
C2340 O2331 1.239 . S
C2340 O2332 1.256 . S
O2341 Mn2323 2.221 . S
O2341 Mn2325 2.290 . S
O2341 C2335 1.278 . S
O2342 Mn2325 2.251 . S
O2342 C2335 1.241 . S
O2343 Mn2344 2.163 . S
O2343 C2357 1.244 . S
Mn2344 O2343 2.163 . S
Mn2344 O2347 2.160 . S
Mn2344 O2348 2.221 . S
Mn2344 O2350 2.163 . S
Mn2344 O2352 2.160 . S
Mn2344 O2362 2.221 . S
O2345 Mn2346 2.087 . S
O2345 C2357 1.256 . S
Mn2346 O2345 2.087 . S
Mn2346 O2353 2.089 . S
Mn2346 O2362 2.290 . S
Mn2346 O2363 2.251 . S
O2347 Mn2344 2.160 . S
O2347 C2358 1.239 . S
O2348 Mn2344 2.221 . S
O2348 Mn2349 2.290 . S
O2348 C2359 1.278 . S
Mn2349 O2348 2.290 . S
Mn2349 O2351 2.089 . S
Mn2349 O2354 2.251 . S
Mn2349 O2355 2.087 . S
O2350 Mn2344 2.163 . S
O2350 C2360 1.244 . S
O2351 Mn2349 2.089 . S
O2351 C2358 1.256 . S
O2352 Mn2344 2.160 . S
O2352 C2361 1.239 . S
O2353 Mn2346 2.089 . S
O2353 C2361 1.256 . S
O2354 Mn2349 2.251 . S
O2354 C2359 1.241 . S
O2355 Mn2349 2.087 . S
O2355 C2360 1.256 . S
C2356 O2362 1.278 . S
C2356 O2363 1.241 . S
C2357 O2343 1.244 . S
C2357 O2345 1.256 . S
C2358 O2347 1.239 . S
C2358 O2351 1.256 . S
C2359 O2348 1.278 . S
C2359 O2354 1.241 . S
C2360 O2350 1.244 . S
C2360 O2355 1.256 . S
C2361 O2352 1.239 . S
C2361 O2353 1.256 . S
O2362 Mn2344 2.221 . S
O2362 Mn2346 2.290 . S
O2362 C2356 1.278 . S
O2363 Mn2346 2.251 . S
O2363 C2356 1.241 . S
O2364 Mn2365 2.163 . S
O2364 C2378 1.244 . S
Mn2365 O2364 2.163 . S
Mn2365 O2368 2.160 . S
Mn2365 O2369 2.221 . S
Mn2365 O2371 2.163 . S
Mn2365 O2373 2.160 . S
Mn2365 O2383 2.221 . S
O2366 Mn2367 2.087 . S
O2366 C2378 1.256 . S
Mn2367 O2366 2.087 . S
Mn2367 O2374 2.089 . S
Mn2367 O2383 2.290 . S
Mn2367 O2384 2.251 . S
O2368 Mn2365 2.160 . S
O2368 C2379 1.239 . S
O2369 Mn2365 2.221 . S
O2369 Mn2370 2.290 . S
O2369 C2380 1.278 . S
Mn2370 O2369 2.290 . S
Mn2370 O2372 2.089 . S
Mn2370 O2375 2.251 . S
Mn2370 O2376 2.087 . S
O2371 Mn2365 2.163 . S
O2371 C2381 1.244 . S
O2372 Mn2370 2.089 . S
O2372 C2379 1.256 . S
O2373 Mn2365 2.160 . S
O2373 C2382 1.239 . S
O2374 Mn2367 2.089 . S
O2374 C2382 1.256 . S
O2375 Mn2370 2.251 . S
O2375 C2380 1.241 . S
O2376 Mn2370 2.087 . S
O2376 C2381 1.256 . S
C2377 O2383 1.278 . S
C2377 O2384 1.241 . S
C2378 O2364 1.244 . S
C2378 O2366 1.256 . S
C2379 O2368 1.239 . S
C2379 O2372 1.256 . S
C2380 O2369 1.278 . S
C2380 O2375 1.241 . S
C2381 O2371 1.244 . S
C2381 O2376 1.256 . S
C2382 O2373 1.239 . S
C2382 O2374 1.256 . S
O2383 Mn2365 2.221 . S
O2383 Mn2367 2.290 . S
O2383 C2377 1.278 . S
O2384 Mn2367 2.251 . S
O2384 C2377 1.241 . S
O2385 Mn2386 2.163 . S
O2385 C2399 1.244 . S
Mn2386 O2385 2.163 . S
Mn2386 O2389 2.160 . S
Mn2386 O2390 2.221 . S
Mn2386 O2392 2.163 . S
Mn2386 O2394 2.160 . S
Mn2386 O2404 2.221 . S
O2387 Mn2388 2.087 . S
O2387 C2399 1.256 . S
Mn2388 O2387 2.087 . S
Mn2388 O2395 2.089 . S
Mn2388 O2404 2.290 . S
Mn2388 O2405 2.251 . S
O2389 Mn2386 2.160 . S
O2389 C2400 1.239 . S
O2390 Mn2386 2.221 . S
O2390 Mn2391 2.290 . S
O2390 C2401 1.278 . S
Mn2391 O2390 2.290 . S
Mn2391 O2393 2.089 . S
Mn2391 O2396 2.251 . S
Mn2391 O2397 2.087 . S
O2392 Mn2386 2.163 . S
O2392 C2402 1.244 . S
O2393 Mn2391 2.089 . S
O2393 C2400 1.256 . S
O2394 Mn2386 2.160 . S
O2394 C2403 1.239 . S
O2395 Mn2388 2.089 . S
O2395 C2403 1.256 . S
O2396 Mn2391 2.251 . S
O2396 C2401 1.241 . S
O2397 Mn2391 2.087 . S
O2397 C2402 1.256 . S
C2398 O2404 1.278 . S
C2398 O2405 1.241 . S
C2399 O2385 1.244 . S
C2399 O2387 1.256 . S
C2400 O2389 1.239 . S
C2400 O2393 1.256 . S
C2401 O2390 1.278 . S
C2401 O2396 1.241 . S
C2402 O2392 1.244 . S
C2402 O2397 1.256 . S
C2403 O2394 1.239 . S
C2403 O2395 1.256 . S
O2404 Mn2386 2.221 . S
O2404 Mn2388 2.290 . S
O2404 C2398 1.278 . S
O2405 Mn2388 2.251 . S
O2405 C2398 1.241 . S
O2406 Mn2407 2.163 . S
O2406 C2420 1.244 . S
Mn2407 O2406 2.163 . S
Mn2407 O2410 2.160 . S
Mn2407 O2411 2.221 . S
Mn2407 O2413 2.163 . S
Mn2407 O2415 2.160 . S
Mn2407 O2425 2.221 . S
O2408 Mn2409 2.087 . S
O2408 C2420 1.256 . S
Mn2409 O2408 2.087 . S
Mn2409 O2416 2.089 . S
Mn2409 O2425 2.290 . S
Mn2409 O2426 2.251 . S
O2410 Mn2407 2.160 . S
O2410 C2421 1.239 . S
O2411 Mn2407 2.221 . S
O2411 Mn2412 2.290 . S
O2411 C2422 1.278 . S
Mn2412 O2411 2.290 . S
Mn2412 O2414 2.089 . S
Mn2412 O2417 2.251 . S
Mn2412 O2418 2.087 . S
O2413 Mn2407 2.163 . S
O2413 C2423 1.244 . S
O2414 Mn2412 2.089 . S
O2414 C2421 1.256 . S
O2415 Mn2407 2.160 . S
O2415 C2424 1.239 . S
O2416 Mn2409 2.089 . S
O2416 C2424 1.256 . S
O2417 Mn2412 2.251 . S
O2417 C2422 1.241 . S
O2418 Mn2412 2.087 . S
O2418 C2423 1.256 . S
C2419 O2425 1.278 . S
C2419 O2426 1.241 . S
C2420 O2406 1.244 . S
C2420 O2408 1.256 . S
C2421 O2410 1.239 . S
C2421 O2414 1.256 . S
C2422 O2411 1.278 . S
C2422 O2417 1.241 . S
C2423 O2413 1.244 . S
C2423 O2418 1.256 . S
C2424 O2415 1.239 . S
C2424 O2416 1.256 . S
O2425 Mn2407 2.221 . S
O2425 Mn2409 2.290 . S
O2425 C2419 1.278 . S
O2426 Mn2409 2.251 . S
O2426 C2419 1.241 . S
O2427 Mn2428 2.168 1_655 S
O2427 C2441 1.241 1_554 S
Mn2428 O2427 2.168 1_455 S
Mn2428 O2431 2.160 . S
Mn2428 O2432 2.221 . S
Mn2428 O2434 2.163 1_554 S
Mn2428 O2436 2.160 1_455 S
Mn2428 O2446 2.217 1_454 S
O2429 Mn2430 2.087 1_556 S
O2429 C2441 1.256 . S
Mn2430 O2429 2.087 1_554 S
Mn2430 O2437 2.089 . S
Mn2430 O2446 2.283 1_554 S
Mn2430 O2447 2.251 1_554 S
O2431 Mn2428 2.160 . S
O2431 C2442 1.239 . S
O2432 Mn2428 2.221 . S
O2432 Mn2433 2.290 1_554 S
O2432 C2443 1.278 . S
Mn2433 O2432 2.290 1_556 S
Mn2433 O2435 2.089 1_556 S
Mn2433 O2438 2.251 1_556 S
Mn2433 O2439 2.087 . S
O2434 Mn2428 2.163 1_556 S
O2434 C2444 1.244 . S
O2435 Mn2433 2.089 1_554 S
O2435 C2442 1.256 . S
O2436 Mn2428 2.160 1_655 S
O2436 C2445 1.239 . S
O2437 Mn2430 2.089 . S
O2437 C2445 1.256 . S
O2438 Mn2433 2.251 1_554 S
O2438 C2443 1.241 . S
O2439 Mn2433 2.087 . S
O2439 C2444 1.256 . S
C2440 O2446 1.294 . S
C2440 O2447 1.241 . S
C2441 O2427 1.241 1_556 S
C2441 O2429 1.256 . S
C2442 O2431 1.239 . S
C2442 O2435 1.256 . S
C2443 O2432 1.278 . S
C2443 O2438 1.241 . S
C2444 O2434 1.244 . S
C2444 O2439 1.256 . S
C2445 O2436 1.239 . S
C2445 O2437 1.256 . S
O2446 Mn2428 2.217 1_656 S
O2446 Mn2430 2.283 1_556 S
O2446 C2440 1.294 . S
O2447 Mn2430 2.251 1_556 S
O2447 C2440 1.241 . S
H2448 C2456 0.929 . S
H2449 C2458 0.930 . S
H2450 C2460 0.930 . S
H2451 C2463 0.929 . S
H2452 C2466 0.928 . S
H2453 C2468 0.960 . S
H2454 C2468 0.960 . S
H2455 C2468 0.960 1_655 S
C2456 H2448 0.929 . S
C2456 C2457 1.377 . S
C2456 C2458 1.384 . S
C2457 C2456 1.377 . S
C2457 C2463 1.390 1_455 S
C2458 H2449 0.930 . S
C2458 C2456 1.384 . S
C2458 C2459 1.372 . S
C2459 C2458 1.372 . S
C2459 C2460 1.400 1_455 S
C2459 C2464 1.490 . S
C2460 H2450 0.930 . S
C2460 C2459 1.400 1_655 S
C2460 C2463 1.386 . S
H2461 C2477 0.930 . S
H2462 C2478 0.931 . S
C2463 H2451 0.929 . S
C2463 C2457 1.390 1_655 S
C2463 C2460 1.386 . S
C2464 C2459 1.490 . S
C2464 C2466 1.394 1_455 S
C2464 C2467 1.403 . S
H2465 C2471 0.930 . S
C2466 H2452 0.928 . S
C2466 C2464 1.394 1_655 S
C2466 C2469 1.404 . S
C2467 C2464 1.403 . S
C2467 C2468 1.524 . S
C2467 C2471 1.400 . S
C2468 H2453 0.960 . S
C2468 H2454 0.960 . S
C2468 H2455 0.960 1_455 S
C2468 C2467 1.524 . S
C2469 C2466 1.404 . S
C2469 C2470 1.392 1_655 S
C2469 C2473 1.495 . S
C2470 C2469 1.392 1_455 S
C2470 C2471 1.386 . S
C2470 C2472 1.476 1_455 S
C2471 H2465 0.930 . S
C2471 C2467 1.400 . S
C2471 C2470 1.386 . S
C2472 C2470 1.476 1_655 S
C2472 C2474 1.341 1_655 S
C2472 C2478 1.425 . S
C2473 C2469 1.495 . S
C2473 H2479 0.959 . S
C2473 H2480 0.961 . S
C2473 H2481 0.960 1_655 S
C2474 C2472 1.341 1_455 S
C2474 C2475 1.394 . S
C2474 H2482 0.930 . S
C2475 C2474 1.394 . S
C2475 C2476 1.383 1_455 S
C2475 H2483 0.929 . S
C2476 C2475 1.383 1_655 S
C2476 C2477 1.377 . S
C2477 H2461 0.930 . S
C2477 C2476 1.377 . S
C2477 C2478 1.379 . S
C2478 H2462 0.931 . S
C2478 C2472 1.425 . S
C2478 C2477 1.379 . S
H2479 C2473 0.959 . S
H2480 C2473 0.961 . S
H2481 C2473 0.960 1_455 S
H2482 C2474 0.930 . S
H2483 C2475 0.929 . S
H2484 C2492 0.929 . S
H2485 C2494 0.930 . S
H2486 C2496 0.930 . S
H2487 C2499 0.929 . S
H2488 C2502 0.930 . S
H2489 C2504 0.960 . S
H2490 C2504 0.960 . S
H2491 C2504 0.960 . S
C2492 H2484 0.929 . S
C2492 C2493 1.377 . S
C2492 C2494 1.384 . S
C2493 C2492 1.377 . S
C2493 C2499 1.390 . S
C2494 H2485 0.930 . S
C2494 C2492 1.384 . S
C2494 C2495 1.372 . S
C2495 C2494 1.372 . S
C2495 C2496 1.400 . S
C2495 C2500 1.490 . S
C2496 H2486 0.930 . S
C2496 C2495 1.400 . S
C2496 C2499 1.386 . S
H2497 C2513 0.930 . S
H2498 C2514 0.931 . S
C2499 H2487 0.929 . S
C2499 C2493 1.390 . S
C2499 C2496 1.386 . S
C2500 C2495 1.490 . S
C2500 C2502 1.395 . S
C2500 C2503 1.403 . S
H2501 C2507 0.930 . S
C2502 H2488 0.930 . S
C2502 C2500 1.395 . S
C2502 C2505 1.403 . S
C2503 C2500 1.403 . S
C2503 C2504 1.524 . S
C2503 C2507 1.400 . S
C2504 H2489 0.960 . S
C2504 H2490 0.960 . S
C2504 H2491 0.960 . S
C2504 C2503 1.524 . S
C2505 C2502 1.403 . S
C2505 C2506 1.392 . S
C2505 C2509 1.495 . S
C2506 C2505 1.392 . S
C2506 C2507 1.385 . S
C2506 C2508 1.478 . S
C2507 H2501 0.930 . S
C2507 C2503 1.400 . S
C2507 C2506 1.385 . S
C2508 C2506 1.478 . S
C2508 C2510 1.381 . S
C2508 C2514 1.383 . S
C2509 C2505 1.495 . S
C2509 H2515 0.959 . S
C2509 H2516 0.961 . S
C2509 H2517 0.960 . S
C2510 C2508 1.381 . S
C2510 C2511 1.394 . S
C2510 H2518 0.930 . S
C2511 C2510 1.394 . S
C2511 C2512 1.383 . S
C2511 H2519 0.929 . S
C2512 C2511 1.383 . S
C2512 C2513 1.377 . S
C2513 H2497 0.930 . S
C2513 C2512 1.377 . S
C2513 C2514 1.379 . S
C2514 H2498 0.931 . S
C2514 C2508 1.383 . S
C2514 C2513 1.379 . S
H2515 C2509 0.959 . S
H2516 C2509 0.961 . S
H2517 C2509 0.960 . S
H2518 C2510 0.930 . S
H2519 C2511 0.929 . S
H2520 C2528 0.929 . S
H2521 C2530 0.930 . S
H2522 C2532 0.930 . S
H2523 C2535 0.929 . S
H2524 C2538 0.930 . S
H2525 C2540 0.960 . S
H2526 C2540 0.960 . S
H2527 C2540 0.960 . S
C2528 H2520 0.929 . S
C2528 C2529 1.377 . S
C2528 C2530 1.384 . S
C2529 C2528 1.377 . S
C2529 C2535 1.390 . S
C2530 H2521 0.930 . S
C2530 C2528 1.384 . S
C2530 C2531 1.372 . S
C2531 C2530 1.372 . S
C2531 C2532 1.400 . S
C2531 C2536 1.490 . S
C2532 H2522 0.930 . S
C2532 C2531 1.400 . S
C2532 C2535 1.386 . S
H2533 C2549 0.930 . S
H2534 C2550 0.931 . S
C2535 H2523 0.929 . S
C2535 C2529 1.390 . S
C2535 C2532 1.386 . S
C2536 C2531 1.490 . S
C2536 C2538 1.395 . S
C2536 C2539 1.403 . S
H2537 C2543 0.930 . S
C2538 H2524 0.930 . S
C2538 C2536 1.395 . S
C2538 C2541 1.403 . S
C2539 C2536 1.403 . S
C2539 C2540 1.524 . S
C2539 C2543 1.400 . S
C2540 H2525 0.960 . S
C2540 H2526 0.960 . S
C2540 H2527 0.960 . S
C2540 C2539 1.524 . S
C2541 C2538 1.403 . S
C2541 C2542 1.392 . S
C2541 C2545 1.495 . S
C2542 C2541 1.392 . S
C2542 C2543 1.385 . S
C2542 C2544 1.478 . S
C2543 H2537 0.930 . S
C2543 C2539 1.400 . S
C2543 C2542 1.385 . S
C2544 C2542 1.478 . S
C2544 C2546 1.381 . S
C2544 C2550 1.383 . S
C2545 C2541 1.495 . S
C2545 H2551 0.959 . S
C2545 H2552 0.961 . S
C2545 H2553 0.960 . S
C2546 C2544 1.381 . S
C2546 C2547 1.394 . S
C2546 H2554 0.930 . S
C2547 C2546 1.394 . S
C2547 C2548 1.383 . S
C2547 H2555 0.929 . S
C2548 C2547 1.383 . S
C2548 C2549 1.377 . S
C2549 H2533 0.930 . S
C2549 C2548 1.377 . S
C2549 C2550 1.379 . S
C2550 H2534 0.931 . S
C2550 C2544 1.383 . S
C2550 C2549 1.379 . S
H2551 C2545 0.959 . S
H2552 C2545 0.961 . S
H2553 C2545 0.960 . S
H2554 C2546 0.930 . S
H2555 C2547 0.929 . S
H2556 C2564 0.929 . S
H2557 C2566 0.930 . S
H2558 C2568 0.930 . S
H2559 C2571 0.929 . S
H2560 C2574 0.930 . S
H2561 C2576 0.960 . S
H2562 C2576 0.960 . S
H2563 C2576 0.960 . S
C2564 H2556 0.929 . S
C2564 C2565 1.377 . S
C2564 C2566 1.384 . S
C2565 C2564 1.377 . S
C2565 C2571 1.390 . S
C2566 H2557 0.930 . S
C2566 C2564 1.384 . S
C2566 C2567 1.372 . S
C2567 C2566 1.372 . S
C2567 C2568 1.400 . S
C2567 C2572 1.490 . S
C2568 H2558 0.930 . S
C2568 C2567 1.400 . S
C2568 C2571 1.386 . S
H2569 C2585 0.930 . S
H2570 C2586 0.931 . S
C2571 H2559 0.929 . S
C2571 C2565 1.390 . S
C2571 C2568 1.386 . S
C2572 C2567 1.490 . S
C2572 C2574 1.395 . S
C2572 C2575 1.403 . S
H2573 C2579 0.930 . S
C2574 H2560 0.930 . S
C2574 C2572 1.395 . S
C2574 C2577 1.403 . S
C2575 C2572 1.403 . S
C2575 C2576 1.524 . S
C2575 C2579 1.400 . S
C2576 H2561 0.960 . S
C2576 H2562 0.960 . S
C2576 H2563 0.960 . S
C2576 C2575 1.524 . S
C2577 C2574 1.403 . S
C2577 C2578 1.392 . S
C2577 C2581 1.495 . S
C2578 C2577 1.392 . S
C2578 C2579 1.385 . S
C2578 C2580 1.478 . S
C2579 H2573 0.930 . S
C2579 C2575 1.400 . S
C2579 C2578 1.385 . S
C2580 C2578 1.478 . S
C2580 C2582 1.381 . S
C2580 C2586 1.383 . S
C2581 C2577 1.495 . S
C2581 H2587 0.959 . S
C2581 H2588 0.961 . S
C2581 H2589 0.960 . S
C2582 C2580 1.381 . S
C2582 C2583 1.394 . S
C2582 H2590 0.930 . S
C2583 C2582 1.394 . S
C2583 C2584 1.383 . S
C2583 H2591 0.929 . S
C2584 C2583 1.383 . S
C2584 C2585 1.377 . S
C2585 H2569 0.930 . S
C2585 C2584 1.377 . S
C2585 C2586 1.379 . S
C2586 H2570 0.931 . S
C2586 C2580 1.383 . S
C2586 C2585 1.379 . S
H2587 C2581 0.959 . S
H2588 C2581 0.961 . S
H2589 C2581 0.960 . S
H2590 C2582 0.930 . S
H2591 C2583 0.929 . S
H2592 C2600 0.929 . S
H2593 C2602 0.930 . S
H2594 C2604 0.930 . S
H2595 C2607 0.929 . S
H2596 C2610 0.930 . S
H2597 C2612 0.960 . S
H2598 C2612 0.960 . S
H2599 C2612 0.960 . S
C2600 H2592 0.929 . S
C2600 C2601 1.377 1_655 S
C2600 C2602 1.384 . S
C2601 C2600 1.377 1_455 S
C2601 C2607 1.390 . S
C2602 H2593 0.930 . S
C2602 C2600 1.384 . S
C2602 C2603 1.372 1_655 S
C2603 C2602 1.372 1_455 S
C2603 C2604 1.400 . S
C2603 C2608 1.490 . S
C2604 H2594 0.930 . S
C2604 C2603 1.400 . S
C2604 C2607 1.386 . S
H2605 C2621 0.930 . S
H2606 C2622 0.931 . S
C2607 H2595 0.929 . S
C2607 C2601 1.390 . S
C2607 C2604 1.386 . S
C2608 C2603 1.490 . S
C2608 C2610 1.395 1_455 S
C2608 C2611 1.403 . S
H2609 C2615 0.930 . S
C2610 H2596 0.930 . S
C2610 C2608 1.395 1_655 S
C2610 C2613 1.403 . S
C2611 C2608 1.403 . S
C2611 C2612 1.524 . S
C2611 C2615 1.400 . S
C2612 H2597 0.960 . S
C2612 H2598 0.960 . S
C2612 H2599 0.960 . S
C2612 C2611 1.524 . S
C2613 C2610 1.403 . S
C2613 C2614 1.394 1_655 S
C2613 C2617 1.495 . S
C2614 C2613 1.394 1_455 S
C2614 C2615 1.384 . S
C2614 C2616 1.477 1_455 S
C2615 H2609 0.930 . S
C2615 C2611 1.400 . S
C2615 C2614 1.384 . S
C2616 C2614 1.477 1_655 S
C2616 C2618 1.398 . S
C2616 C2622 1.366 1_655 S
C2617 C2613 1.495 . S
C2617 H2623 0.959 . S
C2617 H2624 0.961 . S
C2617 H2625 0.960 . S
C2618 C2616 1.398 . S
C2618 C2619 1.394 . S
C2618 H2626 0.930 . S
C2619 C2618 1.394 . S
C2619 C2620 1.376 1_655 S
C2619 H2627 0.929 . S
C2620 C2619 1.376 1_455 S
C2620 C2621 1.384 . S
C2621 H2605 0.930 . S
C2621 C2620 1.384 . S
C2621 C2622 1.379 . S
C2622 H2606 0.931 . S
C2622 C2616 1.366 1_455 S
C2622 C2621 1.379 . S
H2623 C2617 0.959 . S
H2624 C2617 0.961 . S
H2625 C2617 0.960 . S
H2626 C2618 0.930 . S
H2627 C2619 0.929 . S
H2628 C2636 0.929 . S
H2629 C2638 0.930 . S
H2630 C2640 0.930 . S
H2631 C2643 0.929 . S
H2632 C2646 0.930 . S
H2633 C2648 0.960 . S
H2634 C2648 0.960 . S
H2635 C2648 0.960 . S
C2636 H2628 0.929 . S
C2636 C2637 1.377 . S
C2636 C2638 1.384 . S
C2637 C2636 1.377 . S
C2637 C2643 1.390 . S
C2638 H2629 0.930 . S
C2638 C2636 1.384 . S
C2638 C2639 1.372 . S
C2639 C2638 1.372 . S
C2639 C2640 1.400 . S
C2639 C2644 1.490 . S
C2640 H2630 0.930 . S
C2640 C2639 1.400 . S
C2640 C2643 1.386 . S
H2641 C2657 0.930 . S
H2642 C2658 0.931 . S
C2643 H2631 0.929 . S
C2643 C2637 1.390 . S
C2643 C2640 1.386 . S
C2644 C2639 1.490 . S
C2644 C2646 1.395 . S
C2644 C2647 1.403 . S
H2645 C2651 0.930 . S
C2646 H2632 0.930 . S
C2646 C2644 1.395 . S
C2646 C2649 1.403 . S
C2647 C2644 1.403 . S
C2647 C2648 1.524 . S
C2647 C2651 1.400 . S
C2648 H2633 0.960 . S
C2648 H2634 0.960 . S
C2648 H2635 0.960 . S
C2648 C2647 1.524 . S
C2649 C2646 1.403 . S
C2649 C2650 1.392 . S
C2649 C2653 1.495 . S
C2650 C2649 1.392 . S
C2650 C2651 1.385 . S
C2650 C2652 1.478 . S
C2651 H2645 0.930 . S
C2651 C2647 1.400 . S
C2651 C2650 1.385 . S
C2652 C2650 1.478 . S
C2652 C2654 1.381 . S
C2652 C2658 1.383 . S
C2653 C2649 1.495 . S
C2653 H2659 0.959 . S
C2653 H2660 0.961 . S
C2653 H2661 0.960 . S
C2654 C2652 1.381 . S
C2654 C2655 1.394 . S
C2654 H2662 0.930 . S
C2655 C2654 1.394 . S
C2655 C2656 1.383 . S
C2655 H2663 0.929 . S
C2656 C2655 1.383 . S
C2656 C2657 1.377 . S
C2657 H2641 0.930 . S
C2657 C2656 1.377 . S
C2657 C2658 1.379 . S
C2658 H2642 0.931 . S
C2658 C2652 1.383 . S
C2658 C2657 1.379 . S
H2659 C2653 0.959 . S
H2660 C2653 0.961 . S
H2661 C2653 0.960 . S
H2662 C2654 0.930 . S
H2663 C2655 0.929 . S
H2664 C2672 0.929 . S
H2665 C2674 0.930 . S
H2666 C2676 0.930 . S
H2667 C2679 0.929 . S
H2668 C2682 0.930 . S
H2669 C2684 0.960 . S
H2670 C2684 0.960 . S
H2671 C2684 0.960 . S
C2672 H2664 0.929 . S
C2672 C2673 1.377 . S
C2672 C2674 1.384 . S
C2673 C2672 1.377 . S
C2673 C2679 1.390 . S
C2674 H2665 0.930 . S
C2674 C2672 1.384 . S
C2674 C2675 1.372 . S
C2675 C2674 1.372 . S
C2675 C2676 1.400 . S
C2675 C2680 1.490 . S
C2676 H2666 0.930 . S
C2676 C2675 1.400 . S
C2676 C2679 1.386 . S
H2677 C2693 0.930 . S
H2678 C2694 0.931 . S
C2679 H2667 0.929 . S
C2679 C2673 1.390 . S
C2679 C2676 1.386 . S
C2680 C2675 1.490 . S
C2680 C2682 1.395 . S
C2680 C2683 1.403 . S
H2681 C2687 0.930 . S
C2682 H2668 0.930 . S
C2682 C2680 1.395 . S
C2682 C2685 1.403 . S
C2683 C2680 1.403 . S
C2683 C2684 1.524 . S
C2683 C2687 1.400 . S
C2684 H2669 0.960 . S
C2684 H2670 0.960 . S
C2684 H2671 0.960 . S
C2684 C2683 1.524 . S
C2685 C2682 1.403 . S
C2685 C2686 1.392 . S
C2685 C2689 1.495 . S
C2686 C2685 1.392 . S
C2686 C2687 1.385 . S
C2686 C2688 1.478 . S
C2687 H2681 0.930 . S
C2687 C2683 1.400 . S
C2687 C2686 1.385 . S
C2688 C2686 1.478 . S
C2688 C2690 1.381 . S
C2688 C2694 1.383 . S
C2689 C2685 1.495 . S
C2689 H2695 0.959 . S
C2689 H2696 0.961 . S
C2689 H2697 0.960 . S
C2690 C2688 1.381 . S
C2690 C2691 1.394 . S
C2690 H2698 0.930 . S
C2691 C2690 1.394 . S
C2691 C2692 1.383 . S
C2691 H2699 0.929 1_556 S
C2692 C2691 1.383 . S
C2692 C2693 1.377 . S
C2693 H2677 0.930 . S
C2693 C2692 1.377 . S
C2693 C2694 1.379 . S
C2694 H2678 0.931 . S
C2694 C2688 1.383 . S
C2694 C2693 1.379 . S
H2695 C2689 0.959 . S
H2696 C2689 0.961 . S
H2697 C2689 0.960 . S
H2698 C2690 0.930 . S
H2699 C2691 0.929 1_554 S
H2700 C2708 0.929 . S
H2701 C2710 0.930 . S
H2702 C2712 0.930 . S
H2703 C2715 0.929 . S
H2704 C2718 0.930 . S
H2705 C2720 0.960 . S
H2706 C2720 0.960 . S
H2707 C2720 0.960 . S
C2708 H2700 0.929 . S
C2708 C2709 1.377 . S
C2708 C2710 1.384 . S
C2709 C2708 1.377 . S
C2709 C2715 1.390 . S
C2710 H2701 0.930 . S
C2710 C2708 1.384 . S
C2710 C2711 1.372 . S
C2711 C2710 1.372 . S
C2711 C2712 1.400 . S
C2711 C2716 1.490 . S
C2712 H2702 0.930 . S
C2712 C2711 1.400 . S
C2712 C2715 1.386 . S
H2713 C2729 0.930 . S
H2714 C2730 0.931 . S
C2715 H2703 0.929 . S
C2715 C2709 1.390 . S
C2715 C2712 1.386 . S
C2716 C2711 1.490 . S
C2716 C2718 1.395 . S
C2716 C2719 1.403 . S
H2717 C2723 0.930 . S
C2718 H2704 0.930 . S
C2718 C2716 1.395 . S
C2718 C2721 1.403 . S
C2719 C2716 1.403 . S
C2719 C2720 1.524 . S
C2719 C2723 1.400 . S
C2720 H2705 0.960 . S
C2720 H2706 0.960 . S
C2720 H2707 0.960 . S
C2720 C2719 1.524 . S
C2721 C2718 1.403 . S
C2721 C2722 1.392 . S
C2721 C2725 1.495 . S
C2722 C2721 1.392 . S
C2722 C2723 1.385 . S
C2722 C2724 1.478 . S
C2723 H2717 0.930 . S
C2723 C2719 1.400 . S
C2723 C2722 1.385 . S
C2724 C2722 1.478 . S
C2724 C2726 1.381 . S
C2724 C2730 1.383 . S
C2725 C2721 1.495 . S
C2725 H2731 0.959 . S
C2725 H2732 0.961 . S
C2725 H2733 0.960 . S
C2726 C2724 1.381 . S
C2726 C2727 1.394 . S
C2726 H2734 0.930 . S
C2727 C2726 1.394 . S
C2727 C2728 1.383 . S
C2727 H2735 0.929 . S
C2728 C2727 1.383 . S
C2728 C2729 1.377 . S
C2729 H2713 0.930 . S
C2729 C2728 1.377 . S
C2729 C2730 1.379 . S
C2730 H2714 0.931 . S
C2730 C2724 1.383 . S
C2730 C2729 1.379 . S
H2731 C2725 0.959 . S
H2732 C2725 0.961 . S
H2733 C2725 0.960 . S
H2734 C2726 0.930 . S
H2735 C2727 0.929 . S
H2736 C2744 0.929 . S
H2737 C2746 0.930 . S
H2738 C2748 0.930 . S
H2739 C2751 0.929 . S
H2740 C2754 0.930 . S
H2741 C2756 0.960 . S
H2742 C2756 0.960 . S
H2743 C2756 0.960 . S
C2744 H2736 0.929 . S
C2744 C2745 1.377 . S
C2744 C2746 1.384 . S
C2745 C2744 1.377 . S
C2745 C2751 1.390 1_545 S
C2746 H2737 0.930 . S
C2746 C2744 1.384 . S
C2746 C2747 1.372 . S
C2747 C2746 1.372 . S
C2747 C2748 1.400 1_545 S
C2747 C2752 1.490 . S
C2748 H2738 0.930 . S
C2748 C2747 1.400 1_565 S
C2748 C2751 1.386 . S
H2749 C2765 0.930 . S
H2750 C2766 0.931 . S
C2751 H2739 0.929 . S
C2751 C2745 1.390 1_565 S
C2751 C2748 1.386 . S
C2752 C2747 1.490 . S
C2752 C2754 1.395 . S
C2752 C2755 1.403 1_545 S
H2753 C2759 0.930 . S
C2754 H2740 0.930 . S
C2754 C2752 1.395 . S
C2754 C2757 1.403 . S
C2755 C2752 1.403 1_565 S
C2755 C2756 1.524 . S
C2755 C2759 1.400 . S
C2756 H2741 0.960 . S
C2756 H2742 0.960 . S
C2756 H2743 0.960 . S
C2756 C2755 1.524 . S
C2757 C2754 1.403 . S
C2757 C2758 1.392 . S
C2757 C2761 1.495 . S
C2758 C2757 1.392 . S
C2758 C2759 1.385 1_545 S
C2758 C2760 1.478 . S
C2759 H2753 0.930 . S
C2759 C2755 1.400 . S
C2759 C2758 1.385 1_565 S
C2760 C2758 1.478 . S
C2760 C2762 1.381 . S
C2760 C2766 1.382 1_545 S
C2761 C2757 1.495 . S
C2761 H2767 0.959 . S
C2761 H2768 0.961 . S
C2761 H2769 0.960 . S
C2762 C2760 1.381 . S
C2762 C2763 1.394 . S
C2762 H2770 0.930 . S
C2763 C2762 1.394 . S
C2763 C2764 1.383 1_545 S
C2763 H2771 0.929 . S
C2764 C2763 1.383 1_565 S
C2764 C2765 1.377 . S
C2765 H2749 0.930 . S
C2765 C2764 1.377 . S
C2765 C2766 1.379 . S
C2766 H2750 0.931 . S
C2766 C2760 1.382 1_565 S
C2766 C2765 1.379 . S
H2767 C2761 0.959 . S
H2768 C2761 0.961 . S
H2769 C2761 0.960 . S
H2770 C2762 0.930 . S
H2771 C2763 0.929 . S
H2772 C2780 0.929 . S
H2773 C2782 0.930 . S
H2774 C2784 0.930 . S
H2775 C2787 0.929 . S
H2776 C2790 0.930 . S
H2777 C2792 0.960 . S
H2778 C2792 0.960 . S
H2779 C2792 0.960 . S
C2780 H2772 0.929 . S
C2780 C2781 1.377 . S
C2780 C2782 1.384 . S
C2781 C2780 1.377 . S
C2781 C2787 1.390 . S
C2782 H2773 0.930 . S
C2782 C2780 1.384 . S
C2782 C2783 1.372 . S
C2783 C2782 1.372 . S
C2783 C2784 1.400 . S
C2783 C2788 1.490 . S
C2784 H2774 0.930 . S
C2784 C2783 1.400 . S
C2784 C2787 1.386 . S
H2785 C2801 0.930 . S
H2786 C2802 0.931 . S
C2787 H2775 0.929 . S
C2787 C2781 1.390 . S
C2787 C2784 1.386 . S
C2788 C2783 1.490 . S
C2788 C2790 1.395 . S
C2788 C2791 1.403 . S
H2789 C2795 0.930 . S
C2790 H2776 0.930 . S
C2790 C2788 1.395 . S
C2790 C2793 1.403 . S
C2791 C2788 1.403 . S
C2791 C2792 1.524 . S
C2791 C2795 1.400 . S
C2792 H2777 0.960 . S
C2792 H2778 0.960 . S
C2792 H2779 0.960 . S
C2792 C2791 1.524 . S
C2793 C2790 1.403 . S
C2793 C2794 1.392 . S
C2793 C2797 1.495 . S
C2794 C2793 1.392 . S
C2794 C2795 1.385 . S
C2794 C2796 1.478 . S
C2795 H2789 0.930 . S
C2795 C2791 1.400 . S
C2795 C2794 1.385 . S
C2796 C2794 1.478 . S
C2796 C2798 1.381 . S
C2796 C2802 1.383 . S
C2797 C2793 1.495 . S
C2797 H2803 0.959 . S
C2797 H2804 0.961 . S
C2797 H2805 0.960 . S
C2798 C2796 1.381 . S
C2798 C2799 1.394 . S
C2798 H2806 0.930 . S
C2799 C2798 1.394 . S
C2799 C2800 1.383 . S
C2799 H2807 0.929 . S
C2800 C2799 1.383 . S
C2800 C2801 1.377 . S
C2801 H2785 0.930 . S
C2801 C2800 1.377 . S
C2801 C2802 1.379 . S
C2802 H2786 0.931 . S
C2802 C2796 1.383 . S
C2802 C2801 1.379 . S
H2803 C2797 0.959 . S
H2804 C2797 0.961 . S
H2805 C2797 0.960 . S
H2806 C2798 0.930 . S
H2807 C2799 0.929 . S
H2808 C2816 0.929 . S
H2809 C2818 0.930 . S
H2810 C2820 0.930 1_565 S
H2811 C2823 0.906 1_565 S
H2812 C2826 0.930 . S
H2813 C2828 0.960 . S
H2814 C2828 0.960 . S
H2815 C2828 0.960 . S
C2816 H2808 0.929 . S
C2816 C2817 1.377 . S
C2816 C2818 1.384 . S
C2817 C2816 1.377 . S
C2817 C2823 1.412 . S
C2818 H2809 0.930 . S
C2818 C2816 1.384 . S
C2818 C2819 1.372 . S
C2819 C2818 1.372 . S
C2819 C2820 1.400 . S
C2819 C2824 1.490 . S
C2820 H2810 0.930 1_545 S
C2820 C2819 1.400 . S
C2820 C2823 1.390 . S
H2821 C2837 0.930 . S
H2822 C2838 0.931 . S
C2823 H2811 0.906 1_545 S
C2823 C2817 1.412 . S
C2823 C2820 1.390 . S
C2824 C2819 1.490 . S
C2824 C2826 1.395 . S
C2824 C2827 1.403 1_545 S
H2825 C2831 0.930 . S
C2826 H2812 0.930 . S
C2826 C2824 1.395 . S
C2826 C2829 1.403 . S
C2827 C2824 1.403 1_565 S
C2827 C2828 1.524 . S
C2827 C2831 1.400 . S
C2828 H2813 0.960 . S
C2828 H2814 0.960 . S
C2828 H2815 0.960 . S
C2828 C2827 1.524 . S
C2829 C2826 1.403 . S
C2829 C2830 1.392 . S
C2829 C2833 1.495 . S
C2830 C2829 1.392 . S
C2830 C2831 1.385 1_545 S
C2830 C2832 1.478 . S
C2831 H2825 0.930 . S
C2831 C2827 1.400 . S
C2831 C2830 1.385 1_565 S
C2832 C2830 1.478 . S
C2832 C2834 1.381 . S
C2832 C2838 1.383 . S
C2833 C2829 1.495 . S
C2833 H2839 0.959 . S
C2833 H2840 0.961 . S
C2833 H2841 0.960 . S
C2834 C2832 1.381 . S
C2834 C2835 1.394 . S
C2834 H2842 0.930 . S
C2835 C2834 1.394 . S
C2835 C2836 1.383 . S
C2835 H2843 0.929 . S
C2836 C2835 1.383 . S
C2836 C2837 1.377 . S
C2837 H2821 0.930 . S
C2837 C2836 1.377 . S
C2837 C2838 1.379 . S
C2838 H2822 0.931 . S
C2838 C2832 1.383 . S
C2838 C2837 1.379 . S
H2839 C2833 0.959 . S
H2840 C2833 0.961 . S
H2841 C2833 0.960 . S
H2842 C2834 0.930 . S
H2843 C2835 0.929 . S
H2844 C2852 0.929 . S
H2845 C2854 0.930 . S
H2846 C2856 0.930 . S
H2847 C2859 0.929 . S
H2848 C2862 0.930 . S
H2849 C2864 0.960 . S
H2850 C2864 0.960 . S
H2851 C2864 0.960 . S
C2852 H2844 0.929 . S
C2852 C2853 1.377 . S
C2852 C2854 1.384 . S
C2853 C2852 1.377 . S
C2853 C2859 1.390 . S
C2854 H2845 0.930 . S
C2854 C2852 1.384 . S
C2854 C2855 1.372 . S
C2855 C2854 1.372 . S
C2855 C2856 1.400 . S
C2855 C2860 1.490 . S
C2856 H2846 0.930 . S
C2856 C2855 1.400 . S
C2856 C2859 1.386 . S
H2857 C2873 0.930 . S
H2858 C2874 0.931 . S
C2859 H2847 0.929 . S
C2859 C2853 1.390 . S
C2859 C2856 1.386 . S
C2860 C2855 1.490 . S
C2860 C2862 1.395 . S
C2860 C2863 1.403 . S
H2861 C2867 0.930 . S
C2862 H2848 0.930 . S
C2862 C2860 1.395 . S
C2862 C2865 1.403 . S
C2863 C2860 1.403 . S
C2863 C2864 1.524 . S
C2863 C2867 1.400 . S
C2864 H2849 0.960 . S
C2864 H2850 0.960 . S
C2864 H2851 0.960 . S
C2864 C2863 1.524 . S
C2865 C2862 1.403 . S
C2865 C2866 1.392 . S
C2865 C2869 1.495 . S
C2866 C2865 1.392 . S
C2866 C2867 1.385 . S
C2866 C2868 1.478 . S
C2867 H2861 0.930 . S
C2867 C2863 1.400 . S
C2867 C2866 1.385 . S
C2868 C2866 1.478 . S
C2868 C2870 1.381 . S
C2868 C2874 1.383 . S
C2869 C2865 1.495 . S
C2869 H2875 0.959 . S
C2869 H2876 0.961 . S
C2869 H2877 0.960 . S
C2870 C2868 1.381 . S
C2870 C2871 1.394 . S
C2870 H2878 0.930 . S
C2871 C2870 1.394 . S
C2871 C2872 1.383 . S
C2871 H2879 0.929 . S
C2872 C2871 1.383 . S
C2872 C2873 1.377 . S
C2873 H2857 0.930 . S
C2873 C2872 1.377 . S
C2873 C2874 1.379 . S
C2874 H2858 0.931 . S
C2874 C2868 1.383 . S
C2874 C2873 1.379 . S
H2875 C2869 0.959 . S
H2876 C2869 0.961 . S
H2877 C2869 0.960 . S
H2878 C2870 0.930 . S
H2879 C2871 0.929 . S
H2880 C2888 0.929 . S
H2881 C2890 0.930 . S
H2882 C2892 0.930 . S
H2883 C2895 0.929 . S
H2884 C2898 0.930 . S
H2885 C2900 0.960 . S
H2886 C2900 0.960 . S
H2887 C2900 0.960 . S
C2888 H2880 0.929 . S
C2888 C2889 1.377 1_565 S
C2888 C2890 1.384 . S
C2889 C2888 1.377 1_545 S
C2889 C2895 1.390 . S
C2890 H2881 0.930 . S
C2890 C2888 1.384 . S
C2890 C2891 1.372 1_565 S
C2891 C2890 1.372 1_545 S
C2891 C2892 1.400 . S
C2891 C2896 1.490 . S
C2892 H2882 0.930 . S
C2892 C2891 1.400 . S
C2892 C2895 1.386 . S
H2893 C2909 0.930 . S
H2894 C2910 0.931 . S
C2895 H2883 0.929 . S
C2895 C2889 1.390 . S
C2895 C2892 1.386 . S
C2896 C2891 1.490 . S
C2896 C2898 1.395 1_545 S
C2896 C2899 1.403 . S
H2897 C2903 0.930 . S
C2898 H2884 0.930 . S
C2898 C2896 1.395 1_565 S
C2898 C2901 1.403 . S
C2899 C2896 1.403 . S
C2899 C2900 1.524 . S
C2899 C2903 1.400 . S
C2900 H2885 0.960 . S
C2900 H2886 0.960 . S
C2900 H2887 0.960 . S
C2900 C2899 1.524 . S
C2901 C2898 1.403 . S
C2901 C2902 1.392 1_565 S
C2901 C2905 1.495 . S
C2902 C2901 1.392 1_545 S
C2902 C2903 1.385 . S
C2902 C2904 1.478 . S
C2903 H2897 0.930 . S
C2903 C2899 1.400 . S
C2903 C2902 1.385 . S
C2904 C2902 1.478 . S
C2904 C2906 1.381 1_545 S
C2904 C2910 1.383 . S
C2905 C2901 1.495 . S
C2905 H2911 0.959 . S
C2905 H2912 0.961 . S
C2905 H2913 0.960 . S
C2906 C2904 1.381 1_565 S
C2906 C2907 1.394 . S
C2906 H2914 0.930 . S
C2907 C2906 1.394 . S
C2907 C2908 1.383 1_565 S
C2907 H2915 0.929 . S
C2908 C2907 1.383 1_545 S
C2908 C2909 1.377 . S
C2909 H2893 0.930 . S
C2909 C2908 1.377 . S
C2909 C2910 1.379 . S
C2910 H2894 0.931 . S
C2910 C2904 1.383 . S
C2910 C2909 1.379 . S
H2911 C2905 0.959 . S
H2912 C2905 0.961 . S
H2913 C2905 0.960 . S
H2914 C2906 0.930 . S
H2915 C2907 0.929 . S
H2916 C2924 0.929 . S
H2917 C2926 0.930 . S
H2918 C2928 0.930 . S
H2919 C2931 0.929 . S
H2920 C2934 0.930 . S
H2921 C2936 0.960 . S
H2922 C2936 0.960 . S
H2923 C2936 0.960 . S
C2924 H2916 0.929 . S
C2924 C2925 1.377 . S
C2924 C2926 1.384 . S
C2925 C2924 1.377 . S
C2925 C2931 1.390 . S
C2926 H2917 0.930 . S
C2926 C2924 1.384 . S
C2926 C2927 1.372 . S
C2927 C2926 1.372 . S
C2927 C2928 1.400 . S
C2927 C2932 1.490 . S
C2928 H2918 0.930 . S
C2928 C2927 1.400 . S
C2928 C2931 1.386 . S
H2929 C2945 0.930 . S
H2930 C2946 0.931 . S
C2931 H2919 0.929 . S
C2931 C2925 1.390 . S
C2931 C2928 1.386 . S
C2932 C2927 1.490 . S
C2932 C2934 1.395 . S
C2932 C2935 1.403 . S
H2933 C2939 0.930 . S
C2934 H2920 0.930 . S
C2934 C2932 1.395 . S
C2934 C2937 1.403 . S
C2935 C2932 1.403 . S
C2935 C2936 1.524 . S
C2935 C2939 1.400 . S
C2936 H2921 0.960 . S
C2936 H2922 0.960 . S
C2936 H2923 0.960 . S
C2936 C2935 1.524 . S
C2937 C2934 1.403 . S
C2937 C2938 1.392 . S
C2937 C2941 1.495 . S
C2938 C2937 1.392 . S
C2938 C2939 1.385 . S
C2938 C2940 1.478 . S
C2939 H2933 0.930 . S
C2939 C2935 1.400 . S
C2939 C2938 1.385 . S
C2940 C2938 1.478 . S
C2940 C2942 1.381 . S
C2940 C2946 1.383 . S
C2941 C2937 1.495 . S
C2941 H2947 0.959 . S
C2941 H2948 0.961 . S
C2941 H2949 0.960 . S
C2942 C2940 1.381 . S
C2942 C2943 1.394 . S
C2942 H2950 0.930 . S
C2943 C2942 1.394 . S
C2943 C2944 1.383 . S
C2943 H2951 0.929 . S
C2944 C2943 1.383 . S
C2944 C2945 1.377 . S
C2945 H2929 0.930 . S
C2945 C2944 1.377 . S
C2945 C2946 1.379 . S
C2946 H2930 0.931 . S
C2946 C2940 1.383 . S
C2946 C2945 1.379 . S
H2947 C2941 0.959 . S
H2948 C2941 0.961 . S
H2949 C2941 0.960 . S
H2950 C2942 0.930 . S
H2951 C2943 0.929 . S
H2952 C2960 0.928 . S
H2953 C2962 0.930 1_565 S
H2954 C2964 0.930 . S
H2955 C2967 0.929 . S
H2956 C2970 0.930 . S
H2957 C2972 0.960 . S
H2958 C2972 0.960 . S
H2959 C2972 0.960 . S
C2960 H2952 0.928 . S
C2960 C2961 1.377 . S
C2960 C2962 1.384 . S
C2961 C2960 1.377 . S
C2961 C2967 1.390 . S
C2962 H2953 0.930 1_545 S
C2962 C2960 1.384 . S
C2962 C2963 1.372 . S
C2963 C2962 1.372 . S
C2963 C2964 1.400 . S
C2963 C2968 1.490 . S
C2964 H2954 0.930 . S
C2964 C2963 1.400 . S
C2964 C2967 1.386 . S
H2965 C2981 0.930 . S
H2966 C2982 0.931 . S
C2967 H2955 0.929 . S
C2967 C2961 1.390 . S
C2967 C2964 1.386 . S
C2968 C2963 1.490 . S
C2968 C2970 1.395 . S
C2968 C2971 1.403 1_545 S
H2969 C2975 0.930 . S
C2970 H2956 0.930 . S
C2970 C2968 1.395 . S
C2970 C2973 1.403 . S
C2971 C2968 1.403 1_565 S
C2971 C2972 1.524 . S
C2971 C2975 1.400 . S
C2972 H2957 0.960 . S
C2972 H2958 0.960 . S
C2972 H2959 0.960 . S
C2972 C2971 1.524 . S
C2973 C2970 1.403 . S
C2973 C2974 1.392 . S
C2973 C2977 1.495 . S
C2974 C2973 1.392 . S
C2974 C2975 1.385 1_545 S
C2974 C2976 1.478 . S
C2975 H2969 0.930 . S
C2975 C2971 1.400 . S
C2975 C2974 1.385 1_565 S
C2976 C2974 1.478 . S
C2976 C2978 1.381 1_545 S
C2976 C2982 1.383 . S
C2977 C2973 1.495 . S
C2977 H2983 0.959 . S
C2977 H2984 0.961 . S
C2977 H2985 0.960 . S
C2978 C2976 1.381 1_565 S
C2978 C2979 1.394 . S
C2978 H2986 0.930 . S
C2979 C2978 1.394 . S
C2979 C2980 1.371 1_565 S
C2979 H2987 0.929 . S
C2980 C2979 1.371 1_545 S
C2980 C2981 1.396 . S
C2981 H2965 0.930 . S
C2981 C2980 1.396 . S
C2981 C2982 1.379 . S
C2982 H2966 0.931 . S
C2982 C2976 1.383 . S
C2982 C2981 1.379 . S
H2983 C2977 0.959 . S
H2984 C2977 0.961 . S
H2985 C2977 0.960 . S
H2986 C2978 0.930 . S
H2987 C2979 0.929 . S
H2988 C2996 0.929 . S
H2989 C2998 0.930 . S
H2990 C3000 0.930 . S
H2991 C3003 0.929 . S
H2992 C3006 0.930 . S
H2993 C3008 0.960 . S
H2994 C3008 0.960 . S
H2995 C3008 0.960 . S
C2996 H2988 0.929 . S
C2996 C2997 1.377 . S
C2996 C2998 1.384 . S
C2997 C2996 1.377 . S
C2997 C3003 1.390 . S
C2998 H2989 0.930 . S
C2998 C2996 1.384 . S
C2998 C2999 1.372 . S
C2999 C2998 1.372 . S
C2999 C3000 1.400 . S
C2999 C3004 1.490 . S
C3000 H2990 0.930 . S
C3000 C2999 1.400 . S
C3000 C3003 1.386 . S
H3001 C3017 0.930 . S
H3002 C3018 0.931 . S
C3003 H2991 0.929 . S
C3003 C2997 1.390 . S
C3003 C3000 1.386 . S
C3004 C2999 1.490 . S
C3004 C3006 1.395 . S
C3004 C3007 1.403 . S
H3005 C3011 0.930 . S
C3006 H2992 0.930 . S
C3006 C3004 1.395 . S
C3006 C3009 1.403 . S
C3007 C3004 1.403 . S
C3007 C3008 1.524 . S
C3007 C3011 1.400 . S
C3008 H2993 0.960 . S
C3008 H2994 0.960 . S
C3008 H2995 0.960 . S
C3008 C3007 1.524 . S
C3009 C3006 1.403 . S
C3009 C3010 1.392 . S
C3009 C3013 1.495 . S
C3010 C3009 1.392 . S
C3010 C3011 1.385 . S
C3010 C3012 1.478 . S
C3011 H3005 0.930 . S
C3011 C3007 1.400 . S
C3011 C3010 1.385 . S
C3012 C3010 1.478 . S
C3012 C3014 1.381 . S
C3012 C3018 1.383 . S
C3013 C3009 1.495 . S
C3013 H3019 0.959 . S
C3013 H3020 0.961 . S
C3013 H3021 0.960 . S
C3014 C3012 1.381 . S
C3014 C3015 1.394 . S
C3014 H3022 0.930 . S
C3015 C3014 1.394 . S
C3015 C3016 1.383 . S
C3015 H3023 0.929 . S
C3016 C3015 1.383 . S
C3016 C3017 1.377 . S
C3017 H3001 0.930 . S
C3017 C3016 1.377 . S
C3017 C3018 1.379 . S
C3018 H3002 0.931 . S
C3018 C3012 1.383 . S
C3018 C3017 1.379 . S
H3019 C3013 0.959 . S
H3020 C3013 0.961 . S
H3021 C3013 0.960 . S
H3022 C3014 0.930 . S
H3023 C3015 0.929 . S
H3024 C3032 0.933 . S
H3025 C3034 0.930 1_556 S
H3026 C3036 0.930 . S
H3027 C3039 0.929 . S
H3028 C3042 0.930 . S
H3029 C3044 0.960 . S
H3030 C3044 0.960 . S
H3031 C3044 0.960 . S
C3032 H3024 0.933 . S
C3032 C3033 1.377 . S
C3032 C3034 1.384 . S
C3033 C3032 1.377 . S
C3033 C3039 1.390 . S
C3034 H3025 0.930 1_554 S
C3034 C3032 1.384 . S
C3034 C3035 1.372 . S
C3035 C3034 1.372 . S
C3035 C3036 1.400 . S
C3035 C3040 1.490 . S
C3036 H3026 0.930 . S
C3036 C3035 1.400 . S
C3036 C3039 1.386 . S
H3037 C3053 0.927 1_554 S
H3038 C3054 0.933 . S
C3039 H3027 0.929 . S
C3039 C3033 1.390 . S
C3039 C3036 1.386 . S
C3040 C3035 1.490 . S
C3040 C3042 1.395 1_554 S
C3040 C3043 1.403 . S
H3041 C3047 0.930 . S
C3042 H3028 0.930 . S
C3042 C3040 1.395 1_556 S
C3042 C3045 1.403 . S
C3043 C3040 1.403 . S
C3043 C3044 1.524 . S
C3043 C3047 1.400 . S
C3044 H3029 0.960 . S
C3044 H3030 0.960 . S
C3044 H3031 0.960 . S
C3044 C3043 1.524 . S
C3045 C3042 1.403 . S
C3045 C3046 1.392 . S
C3045 C3049 1.495 . S
C3046 C3045 1.392 . S
C3046 C3047 1.385 1_556 S
C3046 C3048 1.478 . S
C3047 H3041 0.930 . S
C3047 C3043 1.400 . S
C3047 C3046 1.385 1_554 S
C3048 C3046 1.478 . S
C3048 C3050 1.381 . S
C3048 C3054 1.383 . S
C3049 C3045 1.495 . S
C3049 H3055 0.959 . S
C3049 H3056 0.961 . S
C3049 H3057 0.960 . S
C3050 C3048 1.381 . S
C3050 C3051 1.394 . S
C3050 H3058 0.930 . S
C3051 C3050 1.394 . S
C3051 C3052 1.383 . S
C3051 H3059 0.929 . S
C3052 C3051 1.383 . S
C3052 C3053 1.379 . S
C3053 H3037 0.927 1_556 S
C3053 C3052 1.379 . S
C3053 C3054 1.381 . S
C3054 H3038 0.933 . S
C3054 C3048 1.383 . S
C3054 C3053 1.381 . S
H3055 C3049 0.959 . S
H3056 C3049 0.961 . S
H3057 C3049 0.960 . S
H3058 C3050 0.930 . S
H3059 C3051 0.929 . S
H3060 C3068 0.929 . S
H3061 C3070 0.930 . S
H3062 C3072 0.930 . S
H3063 C3075 0.929 . S
H3064 C3078 0.930 . S
H3065 C3080 0.960 . S
H3066 C3080 0.960 . S
H3067 C3080 0.960 . S
C3068 H3060 0.929 . S
C3068 C3069 1.377 . S
C3068 C3070 1.384 . S
C3069 C3068 1.377 . S
C3069 C3075 1.390 1_554 S
C3070 H3061 0.930 . S
C3070 C3068 1.384 . S
C3070 C3071 1.372 . S
C3071 C3070 1.372 . S
C3071 C3072 1.400 1_554 S
C3071 C3076 1.490 . S
C3072 H3062 0.930 . S
C3072 C3071 1.400 1_556 S
C3072 C3075 1.386 . S
H3073 C3089 0.934 . S
H3074 C3090 0.928 . S
C3075 H3063 0.929 . S
C3075 C3069 1.390 1_556 S
C3075 C3072 1.386 . S
C3076 C3071 1.490 . S
C3076 C3078 1.395 . S
C3076 C3079 1.403 1_554 S
H3077 C3083 0.930 . S
C3078 H3064 0.930 . S
C3078 C3076 1.395 . S
C3078 C3081 1.403 . S
C3079 C3076 1.403 1_556 S
C3079 C3080 1.524 . S
C3079 C3083 1.400 . S
C3080 H3065 0.960 . S
C3080 H3066 0.960 . S
C3080 H3067 0.960 . S
C3080 C3079 1.524 . S
C3081 C3078 1.403 . S
C3081 C3082 1.392 . S
C3081 C3085 1.495 . S
C3082 C3081 1.392 . S
C3082 C3083 1.385 1_554 S
C3082 C3084 1.478 . S
C3083 H3077 0.930 . S
C3083 C3079 1.400 . S
C3083 C3082 1.385 1_556 S
C3084 C3082 1.478 . S
C3084 C3086 1.381 . S
C3084 C3090 1.386 1_554 S
C3085 C3081 1.495 . S
C3085 H3091 0.959 . S
C3085 H3092 0.961 . S
C3085 H3093 0.960 . S
C3086 C3084 1.381 . S
C3086 C3087 1.394 . S
C3086 H3094 0.930 . S
C3087 C3086 1.394 . S
C3087 C3088 1.383 . S
C3087 H3095 0.929 . S
C3088 C3087 1.383 . S
C3088 C3089 1.373 1_554 S
C3089 H3073 0.934 . S
C3089 C3088 1.373 1_556 S
C3089 C3090 1.379 . S
C3090 H3074 0.928 . S
C3090 C3084 1.386 1_556 S
C3090 C3089 1.379 . S
H3091 C3085 0.959 . S
H3092 C3085 0.961 . S
H3093 C3085 0.960 . S
H3094 C3086 0.930 . S
H3095 C3087 0.929 . S
H3096 C3104 0.929 . S
H3097 C3106 0.930 . S
H3098 C3108 0.930 . S
H3099 C3111 0.929 . S
H3100 C3114 0.930 . S
H3101 C3116 0.960 . S
H3102 C3116 0.960 . S
H3103 C3116 0.960 . S
C3104 H3096 0.929 . S
C3104 C3105 1.377 . S
C3104 C3106 1.384 . S
C3105 C3104 1.377 . S
C3105 C3111 1.390 . S
C3106 H3097 0.930 . S
C3106 C3104 1.384 . S
C3106 C3107 1.372 . S
C3107 C3106 1.372 . S
C3107 C3108 1.400 . S
C3107 C3112 1.490 . S
C3108 H3098 0.930 . S
C3108 C3107 1.400 . S
C3108 C3111 1.386 . S
H3109 C3125 0.930 . S
H3110 C3126 0.931 . S
C3111 H3099 0.929 . S
C3111 C3105 1.390 . S
C3111 C3108 1.386 . S
C3112 C3107 1.490 . S
C3112 C3114 1.395 . S
C3112 C3115 1.403 . S
H3113 C3119 0.930 . S
C3114 H3100 0.930 . S
C3114 C3112 1.395 . S
C3114 C3117 1.403 . S
C3115 C3112 1.403 . S
C3115 C3116 1.524 . S
C3115 C3119 1.400 . S
C3116 H3101 0.960 . S
C3116 H3102 0.960 . S
C3116 H3103 0.960 . S
C3116 C3115 1.524 . S
C3117 C3114 1.403 . S
C3117 C3118 1.392 . S
C3117 C3121 1.495 . S
C3118 C3117 1.392 . S
C3118 C3119 1.385 . S
C3118 C3120 1.478 . S
C3119 H3113 0.930 . S
C3119 C3115 1.400 . S
C3119 C3118 1.385 . S
C3120 C3118 1.478 . S
C3120 C3122 1.381 . S
C3120 C3126 1.383 . S
C3121 C3117 1.495 . S
C3121 H3127 0.959 . S
C3121 H3128 0.961 . S
C3121 H3129 0.960 . S
C3122 C3120 1.381 . S
C3122 C3123 1.394 . S
C3122 H3130 0.930 . S
C3123 C3122 1.394 . S
C3123 C3124 1.383 . S
C3123 H3131 0.929 . S
C3124 C3123 1.383 . S
C3124 C3125 1.377 . S
C3125 H3109 0.930 . S
C3125 C3124 1.377 . S
C3125 C3126 1.379 . S
C3126 H3110 0.931 . S
C3126 C3120 1.383 . S
C3126 C3125 1.379 . S
H3127 C3121 0.959 . S
H3128 C3121 0.961 . S
H3129 C3121 0.960 . S
H3130 C3122 0.930 . S
H3131 C3123 0.929 . S
H3132 C3140 0.929 . S
H3133 C3142 0.930 . S
H3134 C3144 0.930 . S
H3135 C3147 0.929 . S
H3136 C3150 0.930 . S
H3137 C3152 0.960 . S
H3138 C3152 0.960 . S
H3139 C3152 0.960 . S
C3140 H3132 0.929 . S
C3140 C3141 1.377 . S
C3140 C3142 1.384 . S
C3141 C3140 1.377 . S
C3141 C3147 1.390 . S
C3142 H3133 0.930 . S
C3142 C3140 1.384 . S
C3142 C3143 1.372 . S
C3143 C3142 1.372 . S
C3143 C3144 1.400 . S
C3143 C3148 1.490 . S
C3144 H3134 0.930 . S
C3144 C3143 1.400 . S
C3144 C3147 1.386 . S
H3145 C3161 0.930 . S
H3146 C3162 0.931 . S
C3147 H3135 0.929 . S
C3147 C3141 1.390 . S
C3147 C3144 1.386 . S
C3148 C3143 1.490 . S
C3148 C3150 1.395 . S
C3148 C3151 1.403 . S
H3149 C3155 0.930 . S
C3150 H3136 0.930 . S
C3150 C3148 1.395 . S
C3150 C3153 1.403 . S
C3151 C3148 1.403 . S
C3151 C3152 1.524 . S
C3151 C3155 1.400 . S
C3152 H3137 0.960 . S
C3152 H3138 0.960 . S
C3152 H3139 0.960 . S
C3152 C3151 1.524 . S
C3153 C3150 1.403 . S
C3153 C3154 1.392 . S
C3153 C3157 1.495 . S
C3154 C3153 1.392 . S
C3154 C3155 1.385 . S
C3154 C3156 1.478 . S
C3155 H3149 0.930 . S
C3155 C3151 1.400 . S
C3155 C3154 1.385 . S
C3156 C3154 1.478 . S
C3156 C3158 1.381 . S
C3156 C3162 1.383 . S
C3157 C3153 1.495 . S
C3157 H3163 0.959 . S
C3157 H3164 0.961 . S
C3157 H3165 0.960 . S
C3158 C3156 1.381 . S
C3158 C3159 1.394 . S
C3158 H3166 0.930 . S
C3159 C3158 1.394 . S
C3159 C3160 1.383 . S
C3159 H3167 0.929 . S
C3160 C3159 1.383 . S
C3160 C3161 1.377 . S
C3161 H3145 0.930 . S
C3161 C3160 1.377 . S
C3161 C3162 1.379 . S
C3162 H3146 0.931 . S
C3162 C3156 1.383 . S
C3162 C3161 1.379 . S
H3163 C3157 0.959 . S
H3164 C3157 0.961 . S
H3165 C3157 0.960 . S
H3166 C3158 0.930 . S
H3167 C3159 0.929 . S
H3168 C3176 0.929 . S
H3169 C3178 0.930 . S
H3170 C3180 0.930 . S
H3171 C3183 0.929 . S
H3172 C3186 0.930 . S
H3173 C3188 0.960 . S
H3174 C3188 0.960 . S
H3175 C3188 0.960 . S
C3176 H3168 0.929 . S
C3176 C3177 1.377 . S
C3176 C3178 1.384 . S
C3177 C3176 1.377 . S
C3177 C3183 1.390 . S
C3178 H3169 0.930 . S
C3178 C3176 1.384 . S
C3178 C3179 1.372 . S
C3179 C3178 1.372 . S
C3179 C3180 1.400 . S
C3179 C3184 1.490 . S
C3180 H3170 0.930 . S
C3180 C3179 1.400 . S
C3180 C3183 1.386 . S
H3181 C3197 0.930 . S
H3182 C3198 0.931 . S
C3183 H3171 0.929 . S
C3183 C3177 1.390 . S
C3183 C3180 1.386 . S
C3184 C3179 1.490 . S
C3184 C3186 1.395 . S
C3184 C3187 1.403 . S
H3185 C3191 0.930 . S
C3186 H3172 0.930 . S
C3186 C3184 1.395 . S
C3186 C3189 1.403 . S
C3187 C3184 1.403 . S
C3187 C3188 1.524 . S
C3187 C3191 1.400 . S
C3188 H3173 0.960 . S
C3188 H3174 0.960 . S
C3188 H3175 0.960 . S
C3188 C3187 1.524 . S
C3189 C3186 1.403 . S
C3189 C3190 1.392 . S
C3189 C3193 1.495 . S
C3190 C3189 1.392 . S
C3190 C3191 1.385 . S
C3190 C3192 1.478 . S
C3191 H3185 0.930 . S
C3191 C3187 1.400 . S
C3191 C3190 1.385 . S
C3192 C3190 1.478 . S
C3192 C3194 1.381 . S
C3192 C3198 1.383 . S
C3193 C3189 1.495 . S
C3193 H3199 0.959 . S
C3193 H3200 0.961 . S
C3193 H3201 0.960 . S
C3194 C3192 1.381 . S
C3194 C3195 1.394 . S
C3194 H3202 0.930 . S
C3195 C3194 1.394 . S
C3195 C3196 1.383 . S
C3195 H3203 0.929 . S
C3196 C3195 1.383 . S
C3196 C3197 1.377 . S
C3197 H3181 0.930 . S
C3197 C3196 1.377 . S
C3197 C3198 1.379 . S
C3198 H3182 0.931 . S
C3198 C3192 1.383 . S
C3198 C3197 1.379 . S
H3199 C3193 0.959 . S
H3200 C3193 0.961 . S
H3201 C3193 0.960 . S
H3202 C3194 0.930 . S
H3203 C3195 0.929 . S
H3204 C3212 0.929 . S
H3205 C3214 0.930 . S
H3206 C3216 0.930 . S
H3207 C3219 0.929 . S
H3208 C3222 0.930 . S
H3209 C3224 0.960 . S
H3210 C3224 0.960 . S
H3211 C3224 0.960 . S
C3212 H3204 0.929 . S
C3212 C3213 1.377 . S
C3212 C3214 1.384 . S
C3213 C3212 1.377 . S
C3213 C3219 1.390 . S
C3214 H3205 0.930 . S
C3214 C3212 1.384 . S
C3214 C3215 1.372 . S
C3215 C3214 1.372 . S
C3215 C3216 1.400 . S
C3215 C3220 1.490 . S
C3216 H3206 0.930 . S
C3216 C3215 1.400 . S
C3216 C3219 1.386 . S
H3217 C3233 0.930 . S
H3218 C3234 0.931 . S
C3219 H3207 0.929 . S
C3219 C3213 1.390 . S
C3219 C3216 1.386 . S
C3220 C3215 1.490 . S
C3220 C3222 1.395 . S
C3220 C3223 1.403 . S
H3221 C3227 0.930 . S
C3222 H3208 0.930 . S
C3222 C3220 1.395 . S
C3222 C3225 1.403 . S
C3223 C3220 1.403 . S
C3223 C3224 1.524 . S
C3223 C3227 1.400 . S
C3224 H3209 0.960 . S
C3224 H3210 0.960 . S
C3224 H3211 0.960 . S
C3224 C3223 1.524 . S
C3225 C3222 1.403 . S
C3225 C3226 1.392 . S
C3225 C3229 1.495 . S
C3226 C3225 1.392 . S
C3226 C3227 1.385 . S
C3226 C3228 1.478 . S
C3227 H3221 0.930 . S
C3227 C3223 1.400 . S
C3227 C3226 1.385 . S
C3228 C3226 1.478 . S
C3228 C3230 1.381 . S
C3228 C3234 1.383 . S
C3229 C3225 1.495 . S
C3229 H3235 0.959 . S
C3229 H3236 0.961 . S
C3229 H3237 0.960 . S
C3230 C3228 1.381 . S
C3230 C3231 1.394 . S
C3230 H3238 0.930 . S
C3231 C3230 1.394 . S
C3231 C3232 1.383 . S
C3231 H3239 0.929 . S
C3232 C3231 1.383 . S
C3232 C3233 1.377 . S
C3233 H3217 0.930 . S
C3233 C3232 1.377 . S
C3233 C3234 1.379 . S
C3234 H3218 0.931 . S
C3234 C3228 1.383 . S
C3234 C3233 1.379 . S
H3235 C3229 0.959 . S
H3236 C3229 0.961 . S
H3237 C3229 0.960 . S
H3238 C3230 0.930 . S
H3239 C3231 0.929 . S
H3240 C3248 0.929 . S
H3241 C3250 0.930 . S
H3242 C3252 0.930 . S
H3243 C3255 0.929 . S
H3244 C3258 0.930 . S
H3245 C3260 0.960 . S
H3246 C3260 0.960 . S
H3247 C3260 0.960 . S
C3248 H3240 0.929 . S
C3248 C3249 1.377 . S
C3248 C3250 1.384 . S
C3249 C3248 1.377 . S
C3249 C3255 1.390 . S
C3250 H3241 0.930 . S
C3250 C3248 1.384 . S
C3250 C3251 1.372 . S
C3251 C3250 1.372 . S
C3251 C3252 1.400 . S
C3251 C3256 1.490 . S
C3252 H3242 0.930 . S
C3252 C3251 1.400 . S
C3252 C3255 1.386 . S
H3253 C3269 0.930 . S
H3254 C3270 0.931 . S
C3255 H3243 0.929 . S
C3255 C3249 1.390 . S
C3255 C3252 1.386 . S
C3256 C3251 1.490 . S
C3256 C3258 1.395 . S
C3256 C3259 1.403 . S
H3257 C3263 0.930 . S
C3258 H3244 0.930 . S
C3258 C3256 1.395 . S
C3258 C3261 1.403 . S
C3259 C3256 1.403 . S
C3259 C3260 1.524 . S
C3259 C3263 1.400 . S
C3260 H3245 0.960 . S
C3260 H3246 0.960 . S
C3260 H3247 0.960 . S
C3260 C3259 1.524 . S
C3261 C3258 1.403 . S
C3261 C3262 1.392 . S
C3261 C3265 1.495 . S
C3262 C3261 1.392 . S
C3262 C3263 1.385 . S
C3262 C3264 1.478 . S
C3263 H3257 0.930 . S
C3263 C3259 1.400 . S
C3263 C3262 1.385 . S
C3264 C3262 1.478 . S
C3264 C3266 1.381 . S
C3264 C3270 1.383 . S
C3265 C3261 1.495 . S
C3265 H3271 0.959 . S
C3265 H3272 0.961 . S
C3265 H3273 0.960 . S
C3266 C3264 1.381 . S
C3266 C3267 1.394 . S
C3266 H3274 0.930 . S
C3267 C3266 1.394 . S
C3267 C3268 1.383 . S
C3267 H3275 0.929 . S
C3268 C3267 1.383 . S
C3268 C3269 1.377 . S
C3269 H3253 0.930 . S
C3269 C3268 1.377 . S
C3269 C3270 1.379 . S
C3270 H3254 0.931 . S
C3270 C3264 1.383 . S
C3270 C3269 1.379 . S
H3271 C3265 0.959 . S
H3272 C3265 0.961 . S
H3273 C3265 0.960 . S
H3274 C3266 0.930 . S
H3275 C3267 0.929 . S
H3276 C3284 0.929 . S
H3277 C3286 0.930 . S
H3278 C3288 0.930 . S
H3279 C3291 0.929 . S
H3280 C3294 0.930 . S
H3281 C3296 0.960 . S
H3282 C3296 0.960 . S
H3283 C3296 0.960 . S
C3284 H3276 0.929 . S
C3284 C3285 1.377 . S
C3284 C3286 1.384 . S
C3285 C3284 1.377 . S
C3285 C3291 1.390 . S
C3286 H3277 0.930 . S
C3286 C3284 1.384 . S
C3286 C3287 1.372 . S
C3287 C3286 1.372 . S
C3287 C3288 1.400 . S
C3287 C3292 1.490 . S
C3288 H3278 0.930 . S
C3288 C3287 1.400 . S
C3288 C3291 1.386 . S
H3289 C3305 0.930 . S
H3290 C3306 0.931 . S
C3291 H3279 0.929 . S
C3291 C3285 1.390 . S
C3291 C3288 1.386 . S
C3292 C3287 1.490 . S
C3292 C3294 1.395 . S
C3292 C3295 1.403 . S
H3293 C3299 0.930 . S
C3294 H3280 0.930 . S
C3294 C3292 1.395 . S
C3294 C3297 1.403 . S
C3295 C3292 1.403 . S
C3295 C3296 1.524 . S
C3295 C3299 1.400 . S
C3296 H3281 0.960 . S
C3296 H3282 0.960 . S
C3296 H3283 0.960 . S
C3296 C3295 1.524 . S
C3297 C3294 1.403 . S
C3297 C3298 1.392 . S
C3297 C3301 1.495 . S
C3298 C3297 1.392 . S
C3298 C3299 1.385 . S
C3298 C3300 1.478 . S
C3299 H3293 0.930 . S
C3299 C3295 1.400 . S
C3299 C3298 1.385 . S
C3300 C3298 1.478 . S
C3300 C3302 1.381 . S
C3300 C3306 1.383 . S
C3301 C3297 1.495 . S
C3301 H3307 0.959 . S
C3301 H3308 0.961 . S
C3301 H3309 0.960 . S
C3302 C3300 1.381 . S
C3302 C3303 1.394 . S
C3302 H3310 0.930 . S
C3303 C3302 1.394 . S
C3303 C3304 1.383 . S
C3303 H3311 0.929 . S
C3304 C3303 1.383 . S
C3304 C3305 1.377 . S
C3305 H3289 0.930 . S
C3305 C3304 1.377 . S
C3305 C3306 1.379 . S
C3306 H3290 0.931 . S
C3306 C3300 1.383 . S
C3306 C3305 1.379 . S
H3307 C3301 0.959 . S
H3308 C3301 0.961 . S
H3309 C3301 0.960 . S
H3310 C3302 0.930 . S
H3311 C3303 0.929 . S
H3312 C3320 0.929 . S
H3313 C3322 0.930 . S
H3314 C3324 0.911 1_655 S
H3315 C3327 0.928 1_655 S
H3316 C3330 0.930 . S
H3317 C3332 0.960 . S
H3318 C3332 0.960 . S
H3319 C3332 0.960 . S
C3320 H3312 0.929 . S
C3320 C3321 1.377 . S
C3320 C3322 1.384 . S
C3321 C3320 1.377 . S
C3321 C3327 1.391 . S
C3322 H3313 0.930 . S
C3322 C3320 1.384 . S
C3322 C3323 1.372 . S
C3323 C3322 1.372 . S
C3323 C3324 1.424 . S
C3323 C3328 1.490 . S
C3324 H3314 0.911 1_455 S
C3324 C3323 1.424 . S
C3324 C3327 1.385 . S
H3325 C3341 0.930 . S
H3326 C3342 0.931 . S
C3327 H3315 0.928 1_455 S
C3327 C3321 1.391 . S
C3327 C3324 1.385 . S
C3328 C3323 1.490 . S
C3328 C3330 1.395 . S
C3328 C3331 1.403 1_455 S
H3329 C3335 0.930 . S
C3330 H3316 0.930 . S
C3330 C3328 1.395 . S
C3330 C3333 1.403 . S
C3331 C3328 1.403 1_655 S
C3331 C3332 1.524 . S
C3331 C3335 1.400 . S
C3332 H3317 0.960 . S
C3332 H3318 0.960 . S
C3332 H3319 0.960 . S
C3332 C3331 1.524 . S
C3333 C3330 1.403 . S
C3333 C3334 1.392 . S
C3333 C3337 1.495 . S
C3334 C3333 1.392 . S
C3334 C3335 1.385 1_455 S
C3334 C3336 1.478 . S
C3335 H3329 0.930 . S
C3335 C3331 1.400 . S
C3335 C3334 1.385 1_655 S
C3336 C3334 1.478 . S
C3336 C3338 1.381 . S
C3336 C3342 1.383 . S
C3337 C3333 1.495 . S
C3337 H3343 0.959 . S
C3337 H3344 0.961 . S
C3337 H3345 0.960 . S
C3338 C3336 1.381 . S
C3338 C3339 1.394 . S
C3338 H3346 0.930 . S
C3339 C3338 1.394 . S
C3339 C3340 1.383 . S
C3339 H3347 0.929 1_556 S
C3340 C3339 1.383 . S
C3340 C3341 1.377 . S
C3341 H3325 0.930 . S
C3341 C3340 1.377 . S
C3341 C3342 1.379 . S
C3342 H3326 0.931 . S
C3342 C3336 1.383 . S
C3342 C3341 1.379 . S
H3343 C3337 0.959 . S
H3344 C3337 0.961 . S
H3345 C3337 0.960 . S
H3346 C3338 0.930 . S
H3347 C3339 0.929 1_554 S
H3348 C3356 0.929 . S
H3349 C3358 0.930 . S
H3350 C3360 0.930 . S
H3351 C3363 0.929 . S
H3352 C3366 0.930 . S
H3353 C3368 0.960 . S
H3354 C3368 0.960 . S
H3355 C3368 0.960 . S
C3356 H3348 0.929 . S
C3356 C3357 1.377 . S
C3356 C3358 1.384 . S
C3357 C3356 1.377 . S
C3357 C3363 1.390 . S
C3358 H3349 0.930 . S
C3358 C3356 1.384 . S
C3358 C3359 1.372 . S
C3359 C3358 1.372 . S
C3359 C3360 1.400 . S
C3359 C3364 1.490 . S
C3360 H3350 0.930 . S
C3360 C3359 1.400 . S
C3360 C3363 1.386 . S
H3361 C3377 0.930 . S
H3362 C3378 0.931 . S
C3363 H3351 0.929 . S
C3363 C3357 1.390 . S
C3363 C3360 1.386 . S
C3364 C3359 1.490 . S
C3364 C3366 1.395 . S
C3364 C3367 1.403 . S
H3365 C3371 0.930 . S
C3366 H3352 0.930 . S
C3366 C3364 1.395 . S
C3366 C3369 1.403 . S
C3367 C3364 1.403 . S
C3367 C3368 1.524 . S
C3367 C3371 1.400 . S
C3368 H3353 0.960 . S
C3368 H3354 0.960 . S
C3368 H3355 0.960 . S
C3368 C3367 1.524 . S
C3369 C3366 1.403 . S
C3369 C3370 1.392 . S
C3369 C3373 1.495 . S
C3370 C3369 1.392 . S
C3370 C3371 1.385 . S
C3370 C3372 1.478 . S
C3371 H3365 0.930 . S
C3371 C3367 1.400 . S
C3371 C3370 1.385 . S
C3372 C3370 1.478 . S
C3372 C3374 1.381 . S
C3372 C3378 1.383 . S
C3373 C3369 1.495 . S
C3373 H3379 0.959 . S
C3373 H3380 0.961 . S
C3373 H3381 0.960 . S
C3374 C3372 1.381 . S
C3374 C3375 1.394 . S
C3374 H3382 0.930 . S
C3375 C3374 1.394 . S
C3375 C3376 1.383 . S
C3375 H3383 0.929 . S
C3376 C3375 1.383 . S
C3376 C3377 1.377 . S
C3377 H3361 0.930 . S
C3377 C3376 1.377 . S
C3377 C3378 1.379 . S
C3378 H3362 0.931 . S
C3378 C3372 1.383 . S
C3378 C3377 1.379 . S
H3379 C3373 0.959 . S
H3380 C3373 0.961 . S
H3381 C3373 0.960 . S
H3382 C3374 0.930 . S
H3383 C3375 0.929 . S
H3384 C3392 0.929 . S
H3385 C3394 0.930 . S
H3386 C3396 0.930 . S
H3387 C3399 0.929 . S
H3388 C3402 0.930 . S
H3389 C3404 0.960 . S
H3390 C3404 0.960 . S
H3391 C3404 0.960 . S
C3392 H3384 0.929 . S
C3392 C3393 1.377 . S
C3392 C3394 1.384 . S
C3393 C3392 1.377 . S
C3393 C3399 1.390 . S
C3394 H3385 0.930 . S
C3394 C3392 1.384 . S
C3394 C3395 1.372 . S
C3395 C3394 1.372 . S
C3395 C3396 1.400 . S
C3395 C3400 1.490 . S
C3396 H3386 0.930 . S
C3396 C3395 1.400 . S
C3396 C3399 1.386 . S
H3397 C3413 0.930 . S
H3398 C3414 0.931 . S
C3399 H3387 0.929 . S
C3399 C3393 1.390 . S
C3399 C3396 1.386 . S
C3400 C3395 1.490 . S
C3400 C3402 1.395 . S
C3400 C3403 1.403 . S
H3401 C3407 0.930 . S
C3402 H3388 0.930 . S
C3402 C3400 1.395 . S
C3402 C3405 1.403 . S
C3403 C3400 1.403 . S
C3403 C3404 1.524 . S
C3403 C3407 1.400 . S
C3404 H3389 0.960 . S
C3404 H3390 0.960 . S
C3404 H3391 0.960 . S
C3404 C3403 1.524 . S
C3405 C3402 1.403 . S
C3405 C3406 1.392 . S
C3405 C3409 1.495 . S
C3406 C3405 1.392 . S
C3406 C3407 1.385 . S
C3406 C3408 1.478 . S
C3407 H3401 0.930 . S
C3407 C3403 1.400 . S
C3407 C3406 1.385 . S
C3408 C3406 1.478 . S
C3408 C3410 1.381 . S
C3408 C3414 1.383 . S
C3409 C3405 1.495 . S
C3409 H3415 0.959 . S
C3409 H3416 0.961 . S
C3409 H3417 0.960 . S
C3410 C3408 1.381 . S
C3410 C3411 1.394 . S
C3410 H3418 0.930 . S
C3411 C3410 1.394 . S
C3411 C3412 1.383 . S
C3411 H3419 0.929 . S
C3412 C3411 1.383 . S
C3412 C3413 1.377 . S
C3413 H3397 0.930 . S
C3413 C3412 1.377 . S
C3413 C3414 1.379 . S
C3414 H3398 0.931 . S
C3414 C3408 1.383 . S
C3414 C3413 1.379 . S
H3415 C3409 0.959 . S
H3416 C3409 0.961 . S
H3417 C3409 0.960 . S
H3418 C3410 0.930 . S
H3419 C3411 0.929 . S
H3420 C3428 0.929 . S
H3421 C3430 0.930 . S
H3422 C3432 0.930 . S
H3423 C3435 0.929 . S
H3424 C3438 0.930 . S
H3425 C3440 0.960 . S
H3426 C3440 0.960 . S
H3427 C3440 0.960 . S
C3428 H3420 0.929 . S
C3428 C3429 1.377 . S
C3428 C3430 1.384 . S
C3429 C3428 1.377 . S
C3429 C3435 1.390 . S
C3430 H3421 0.930 . S
C3430 C3428 1.384 . S
C3430 C3431 1.372 . S
C3431 C3430 1.372 . S
C3431 C3432 1.400 . S
C3431 C3436 1.490 . S
C3432 H3422 0.930 . S
C3432 C3431 1.400 . S
C3432 C3435 1.386 . S
H3433 C3449 0.930 . S
H3434 C3450 0.931 . S
C3435 H3423 0.929 . S
C3435 C3429 1.390 . S
C3435 C3432 1.386 . S
C3436 C3431 1.490 . S
C3436 C3438 1.395 . S
C3436 C3439 1.403 . S
H3437 C3443 0.930 . S
C3438 H3424 0.930 . S
C3438 C3436 1.395 . S
C3438 C3441 1.403 . S
C3439 C3436 1.403 . S
C3439 C3440 1.524 . S
C3439 C3443 1.400 . S
C3440 H3425 0.960 . S
C3440 H3426 0.960 . S
C3440 H3427 0.960 . S
C3440 C3439 1.524 . S
C3441 C3438 1.403 . S
C3441 C3442 1.392 . S
C3441 C3445 1.495 . S
C3442 C3441 1.392 . S
C3442 C3443 1.385 . S
C3442 C3444 1.478 . S
C3443 H3437 0.930 . S
C3443 C3439 1.400 . S
C3443 C3442 1.385 . S
C3444 C3442 1.478 . S
C3444 C3446 1.381 . S
C3444 C3450 1.383 . S
C3445 C3441 1.495 . S
C3445 H3451 0.959 . S
C3445 H3452 0.961 . S
C3445 H3453 0.960 . S
C3446 C3444 1.381 . S
C3446 C3447 1.394 . S
C3446 H3454 0.930 . S
C3447 C3446 1.394 . S
C3447 C3448 1.383 . S
C3447 H3455 0.929 . S
C3448 C3447 1.383 . S
C3448 C3449 1.377 . S
C3449 H3433 0.930 . S
C3449 C3448 1.377 . S
C3449 C3450 1.379 . S
C3450 H3434 0.931 . S
C3450 C3444 1.383 . S
C3450 C3449 1.379 . S
H3451 C3445 0.959 . S
H3452 C3445 0.961 . S
H3453 C3445 0.960 . S
H3454 C3446 0.930 . S
H3455 C3447 0.929 . S
H3456 C3464 0.929 . S
H3457 C3466 0.930 . S
H3458 C3468 0.930 . S
H3459 C3471 0.929 . S
H3460 C3474 0.922 1_655 S
H3461 C3476 0.960 . S
H3462 C3476 0.960 . S
H3463 C3476 0.960 . S
C3464 H3456 0.929 . S
C3464 C3465 1.377 . S
C3464 C3466 1.384 . S
C3465 C3464 1.377 . S
C3465 C3471 1.390 1_455 S
C3466 H3457 0.930 . S
C3466 C3464 1.384 . S
C3466 C3467 1.372 . S
C3467 C3466 1.372 . S
C3467 C3468 1.400 1_455 S
C3467 C3472 1.490 . S
C3468 H3458 0.930 . S
C3468 C3467 1.400 1_655 S
C3468 C3471 1.386 . S
H3469 C3485 0.930 1_655 S
H3470 C3486 0.930 1_655 S
C3471 H3459 0.929 . S
C3471 C3465 1.390 1_655 S
C3471 C3468 1.386 . S
C3472 C3467 1.490 . S
C3472 C3474 1.395 . S
C3472 C3475 1.403 . S
H3473 C3479 0.930 . S
C3474 H3460 0.922 1_455 S
C3474 C3472 1.395 . S
C3474 C3477 1.403 . S
C3475 C3472 1.403 . S
C3475 C3476 1.524 . S
C3475 C3479 1.400 . S
C3476 H3461 0.960 . S
C3476 H3462 0.960 . S
C3476 H3463 0.960 . S
C3476 C3475 1.524 . S
C3477 C3474 1.403 . S
C3477 C3478 1.392 . S
C3477 C3481 1.495 1_455 S
C3478 C3477 1.392 . S
C3478 C3479 1.385 . S
C3478 C3480 1.478 . S
C3479 H3473 0.930 . S
C3479 C3475 1.400 . S
C3479 C3478 1.385 . S
C3480 C3478 1.478 . S
C3480 C3482 1.381 . S
C3480 C3486 1.384 . S
C3481 C3477 1.495 1_655 S
C3481 H3487 0.959 . S
C3481 H3488 0.961 . S
C3481 H3489 0.960 1_655 S
C3482 C3480 1.381 . S
C3482 C3483 1.394 . S
C3482 H3490 0.930 . S
C3483 C3482 1.394 . S
C3483 C3484 1.383 . S
C3483 H3491 0.929 . S
C3484 C3483 1.383 . S
C3484 C3485 1.377 . S
C3485 H3469 0.930 1_455 S
C3485 C3484 1.377 . S
C3485 C3486 1.380 . S
C3486 H3470 0.930 1_455 S
C3486 C3480 1.384 . S
C3486 C3485 1.380 . S
H3487 C3481 0.959 . S
H3488 C3481 0.961 . S
H3489 C3481 0.960 1_455 S
H3490 C3482 0.930 . S
H3491 C3483 0.929 . S
H3492 C3500 0.929 . S
H3493 C3502 0.930 . S
H3494 C3504 0.930 . S
H3495 C3507 0.929 . S
H3496 C3510 0.930 . S
H3497 C3512 0.960 . S
H3498 C3512 0.960 . S
H3499 C3512 0.960 . S
C3500 H3492 0.929 . S
C3500 C3501 1.377 . S
C3500 C3502 1.384 . S
C3501 C3500 1.377 . S
C3501 C3507 1.390 . S
C3502 H3493 0.930 . S
C3502 C3500 1.384 . S
C3502 C3503 1.372 . S
C3503 C3502 1.372 . S
C3503 C3504 1.400 . S
C3503 C3508 1.490 . S
C3504 H3494 0.930 . S
C3504 C3503 1.400 . S
C3504 C3507 1.386 . S
H3505 C3521 0.930 . S
H3506 C3522 0.931 . S
C3507 H3495 0.929 . S
C3507 C3501 1.390 . S
C3507 C3504 1.386 . S
C3508 C3503 1.490 . S
C3508 C3510 1.395 . S
C3508 C3511 1.403 . S
H3509 C3515 0.930 . S
C3510 H3496 0.930 . S
C3510 C3508 1.395 . S
C3510 C3513 1.403 . S
C3511 C3508 1.403 . S
C3511 C3512 1.524 . S
C3511 C3515 1.400 . S
C3512 H3497 0.960 . S
C3512 H3498 0.960 . S
C3512 H3499 0.960 . S
C3512 C3511 1.524 . S
C3513 C3510 1.403 . S
C3513 C3514 1.392 . S
C3513 C3517 1.495 . S
C3514 C3513 1.392 . S
C3514 C3515 1.385 . S
C3514 C3516 1.478 . S
C3515 H3509 0.930 . S
C3515 C3511 1.400 . S
C3515 C3514 1.385 . S
C3516 C3514 1.478 . S
C3516 C3518 1.381 . S
C3516 C3522 1.383 . S
C3517 C3513 1.495 . S
C3517 H3523 0.959 . S
C3517 H3524 0.961 . S
C3517 H3525 0.960 . S
C3518 C3516 1.381 . S
C3518 C3519 1.394 . S
C3518 H3526 0.930 . S
C3519 C3518 1.394 . S
C3519 C3520 1.383 . S
C3519 H3527 0.929 . S
C3520 C3519 1.383 . S
C3520 C3521 1.377 . S
C3521 H3505 0.930 . S
C3521 C3520 1.377 . S
C3521 C3522 1.379 . S
C3522 H3506 0.931 . S
C3522 C3516 1.383 . S
C3522 C3521 1.379 . S
H3523 C3517 0.959 . S
H3524 C3517 0.961 . S
H3525 C3517 0.960 . S
H3526 C3518 0.930 . S
H3527 C3519 0.929 . S
H3528 C3536 0.929 . S
H3529 C3538 0.930 . S
H3530 C3540 0.930 . S
H3531 C3543 0.929 . S
H3532 C3546 0.930 . S
H3533 C3548 0.960 . S
H3534 C3548 0.960 . S
H3535 C3548 0.960 . S
C3536 H3528 0.929 . S
C3536 C3537 1.377 . S
C3536 C3538 1.384 . S
C3537 C3536 1.377 . S
C3537 C3543 1.390 . S
C3538 H3529 0.930 . S
C3538 C3536 1.384 . S
C3538 C3539 1.372 . S
C3539 C3538 1.372 . S
C3539 C3540 1.400 . S
C3539 C3544 1.490 . S
C3540 H3530 0.930 . S
C3540 C3539 1.400 . S
C3540 C3543 1.386 . S
H3541 C3557 0.930 . S
H3542 C3558 0.931 . S
C3543 H3531 0.929 . S
C3543 C3537 1.390 . S
C3543 C3540 1.386 . S
C3544 C3539 1.490 . S
C3544 C3546 1.395 . S
C3544 C3547 1.403 . S
H3545 C3551 0.930 . S
C3546 H3532 0.930 . S
C3546 C3544 1.395 . S
C3546 C3549 1.403 . S
C3547 C3544 1.403 . S
C3547 C3548 1.524 . S
C3547 C3551 1.400 . S
C3548 H3533 0.960 . S
C3548 H3534 0.960 . S
C3548 H3535 0.960 . S
C3548 C3547 1.524 . S
C3549 C3546 1.403 . S
C3549 C3550 1.392 . S
C3549 C3553 1.495 . S
C3550 C3549 1.392 . S
C3550 C3551 1.385 . S
C3550 C3552 1.478 . S
C3551 H3545 0.930 . S
C3551 C3547 1.400 . S
C3551 C3550 1.385 . S
C3552 C3550 1.478 . S
C3552 C3554 1.381 . S
C3552 C3558 1.383 . S
C3553 C3549 1.495 . S
C3553 H3559 0.959 . S
C3553 H3560 0.961 . S
C3553 H3561 0.960 . S
C3554 C3552 1.381 . S
C3554 C3555 1.394 . S
C3554 H3562 0.930 . S
C3555 C3554 1.394 . S
C3555 C3556 1.383 . S
C3555 H3563 0.929 . S
C3556 C3555 1.383 . S
C3556 C3557 1.377 . S
C3557 H3541 0.930 . S
C3557 C3556 1.377 . S
C3557 C3558 1.379 . S
C3558 H3542 0.931 . S
C3558 C3552 1.383 . S
C3558 C3557 1.379 . S
H3559 C3553 0.959 . S
H3560 C3553 0.961 . S
H3561 C3553 0.960 . S
H3562 C3554 0.930 . S
H3563 C3555 0.929 . S
H3564 C3572 0.929 . S
H3565 C3574 0.930 . S
H3566 C3576 0.930 . S
H3567 C3579 0.929 . S
H3568 C3582 0.930 . S
H3569 C3584 0.960 . S
H3570 C3584 0.960 . S
H3571 C3584 0.960 . S
C3572 H3564 0.929 . S
C3572 C3573 1.377 . S
C3572 C3574 1.384 . S
C3573 C3572 1.377 . S
C3573 C3579 1.390 . S
C3574 H3565 0.930 . S
C3574 C3572 1.384 . S
C3574 C3575 1.372 . S
C3575 C3574 1.372 . S
C3575 C3576 1.400 . S
C3575 C3580 1.490 . S
C3576 H3566 0.930 . S
C3576 C3575 1.400 . S
C3576 C3579 1.386 . S
H3577 C3593 0.930 . S
H3578 C3594 0.931 . S
C3579 H3567 0.929 . S
C3579 C3573 1.390 . S
C3579 C3576 1.386 . S
C3580 C3575 1.490 . S
C3580 C3582 1.395 . S
C3580 C3583 1.403 . S
H3581 C3587 0.930 . S
C3582 H3568 0.930 . S
C3582 C3580 1.395 . S
C3582 C3585 1.403 . S
C3583 C3580 1.403 . S
C3583 C3584 1.524 . S
C3583 C3587 1.400 . S
C3584 H3569 0.960 . S
C3584 H3570 0.960 . S
C3584 H3571 0.960 . S
C3584 C3583 1.524 . S
C3585 C3582 1.403 . S
C3585 C3586 1.392 . S
C3585 C3589 1.495 . S
C3586 C3585 1.392 . S
C3586 C3587 1.385 . S
C3586 C3588 1.478 . S
C3587 H3581 0.930 . S
C3587 C3583 1.400 . S
C3587 C3586 1.385 . S
C3588 C3586 1.478 . S
C3588 C3590 1.381 . S
C3588 C3594 1.383 . S
C3589 C3585 1.495 . S
C3589 H3595 0.959 . S
C3589 H3596 0.961 . S
C3589 H3597 0.960 . S
C3590 C3588 1.381 . S
C3590 C3591 1.394 . S
C3590 H3598 0.930 . S
C3591 C3590 1.394 . S
C3591 C3592 1.383 . S
C3591 H3599 0.929 . S
C3592 C3591 1.383 . S
C3592 C3593 1.377 . S
C3593 H3577 0.930 . S
C3593 C3592 1.377 . S
C3593 C3594 1.379 . S
C3594 H3578 0.931 . S
C3594 C3588 1.383 . S
C3594 C3593 1.379 . S
H3595 C3589 0.959 . S
H3596 C3589 0.961 . S
H3597 C3589 0.960 . S
H3598 C3590 0.930 . S
H3599 C3591 0.929 . S
H3600 C3608 0.929 . S
H3601 C3610 0.930 . S
H3602 C3612 0.930 . S
H3603 C3615 0.923 1_565 S
H3604 C3618 0.930 . S
H3605 C3620 0.960 . S
H3606 C3620 0.960 . S
H3607 C3620 0.960 . S
C3608 H3600 0.929 . S
C3608 C3609 1.377 . S
C3608 C3610 1.384 . S
C3609 C3608 1.377 . S
C3609 C3615 1.392 . S
C3610 H3601 0.930 . S
C3610 C3608 1.384 . S
C3610 C3611 1.372 . S
C3611 C3610 1.372 . S
C3611 C3612 1.400 . S
C3611 C3616 1.490 . S
C3612 H3602 0.930 . S
C3612 C3611 1.400 . S
C3612 C3615 1.387 . S
H3613 C3629 0.930 . S
H3614 C3630 0.931 . S
C3615 H3603 0.923 1_545 S
C3615 C3609 1.392 . S
C3615 C3612 1.387 . S
C3616 C3611 1.490 . S
C3616 C3618 1.395 . S
C3616 C3619 1.403 1_545 S
H3617 C3623 0.930 . S
C3618 H3604 0.930 . S
C3618 C3616 1.395 . S
C3618 C3621 1.403 . S
C3619 C3616 1.403 1_565 S
C3619 C3620 1.524 . S
C3619 C3623 1.400 . S
C3620 H3605 0.960 . S
C3620 H3606 0.960 . S
C3620 H3607 0.960 . S
C3620 C3619 1.524 . S
C3621 C3618 1.403 . S
C3621 C3622 1.392 . S
C3621 C3625 1.495 . S
C3622 C3621 1.392 . S
C3622 C3623 1.385 1_545 S
C3622 C3624 1.478 . S
C3623 H3617 0.930 . S
C3623 C3619 1.400 . S
C3623 C3622 1.385 1_565 S
C3624 C3622 1.478 . S
C3624 C3626 1.381 . S
C3624 C3630 1.383 . S
C3625 C3621 1.495 . S
C3625 H3631 0.959 . S
C3625 H3632 0.961 . S
C3625 H3633 0.960 . S
C3626 C3624 1.381 . S
C3626 C3627 1.394 . S
C3626 H3634 0.930 . S
C3627 C3626 1.394 . S
C3627 C3628 1.383 . S
C3627 H3635 0.929 1_655 S
C3628 C3627 1.383 . S
C3628 C3629 1.377 . S
C3629 H3613 0.930 . S
C3629 C3628 1.377 . S
C3629 C3630 1.379 . S
C3630 H3614 0.931 . S
C3630 C3624 1.383 . S
C3630 C3629 1.379 . S
H3631 C3625 0.959 . S
H3632 C3625 0.961 . S
H3633 C3625 0.960 . S
H3634 C3626 0.930 . S
H3635 C3627 0.929 1_455 S
H3636 C3644 0.929 . S
H3637 C3646 0.930 . S
H3638 C3648 0.930 . S
H3639 C3651 0.929 . S
H3640 C3654 0.930 . S
H3641 C3656 0.960 . S
H3642 C3656 0.960 . S
H3643 C3656 0.960 . S
C3644 H3636 0.929 . S
C3644 C3645 1.377 . S
C3644 C3646 1.384 . S
C3645 C3644 1.377 . S
C3645 C3651 1.390 . S
C3646 H3637 0.930 . S
C3646 C3644 1.384 . S
C3646 C3647 1.372 . S
C3647 C3646 1.372 . S
C3647 C3648 1.400 . S
C3647 C3652 1.490 . S
C3648 H3638 0.930 . S
C3648 C3647 1.400 . S
C3648 C3651 1.386 . S
H3649 C3665 0.930 . S
H3650 C3666 0.931 . S
C3651 H3639 0.929 . S
C3651 C3645 1.390 . S
C3651 C3648 1.386 . S
C3652 C3647 1.490 . S
C3652 C3654 1.395 . S
C3652 C3655 1.403 . S
H3653 C3659 0.930 . S
C3654 H3640 0.930 . S
C3654 C3652 1.395 . S
C3654 C3657 1.403 . S
C3655 C3652 1.403 . S
C3655 C3656 1.524 . S
C3655 C3659 1.400 . S
C3656 H3641 0.960 . S
C3656 H3642 0.960 . S
C3656 H3643 0.960 . S
C3656 C3655 1.524 . S
C3657 C3654 1.403 . S
C3657 C3658 1.392 . S
C3657 C3661 1.495 . S
C3658 C3657 1.392 . S
C3658 C3659 1.385 . S
C3658 C3660 1.478 . S
C3659 H3653 0.930 . S
C3659 C3655 1.400 . S
C3659 C3658 1.385 . S
C3660 C3658 1.478 . S
C3660 C3662 1.381 . S
C3660 C3666 1.383 . S
C3661 C3657 1.495 . S
C3661 H3667 0.959 . S
C3661 H3668 0.961 . S
C3661 H3669 0.960 . S
C3662 C3660 1.381 . S
C3662 C3663 1.394 . S
C3662 H3670 0.930 . S
C3663 C3662 1.394 . S
C3663 C3664 1.383 . S
C3663 H3671 0.929 . S
C3664 C3663 1.383 . S
C3664 C3665 1.377 . S
C3665 H3649 0.930 . S
C3665 C3664 1.377 . S
C3665 C3666 1.379 . S
C3666 H3650 0.931 . S
C3666 C3660 1.383 . S
C3666 C3665 1.379 . S
H3667 C3661 0.959 . S
H3668 C3661 0.961 . S
H3669 C3661 0.960 . S
H3670 C3662 0.930 . S
H3671 C3663 0.929 . S
H3672 C3680 0.929 . S
H3673 C3682 0.930 . S
H3674 C3684 0.930 . S
H3675 C3687 0.929 . S
H3676 C3690 0.930 . S
H3677 C3692 0.960 . S
H3678 C3692 0.960 . S
H3679 C3692 0.960 . S
C3680 H3672 0.929 . S
C3680 C3681 1.377 1_565 S
C3680 C3682 1.384 . S
C3681 C3680 1.377 1_545 S
C3681 C3687 1.390 . S
C3682 H3673 0.930 . S
C3682 C3680 1.384 . S
C3682 C3683 1.372 1_565 S
C3683 C3682 1.372 1_545 S
C3683 C3684 1.400 . S
C3683 C3688 1.490 . S
C3684 H3674 0.930 . S
C3684 C3683 1.400 . S
C3684 C3687 1.386 . S
H3685 C3701 0.930 . S
H3686 C3702 0.931 . S
C3687 H3675 0.929 . S
C3687 C3681 1.390 . S
C3687 C3684 1.386 . S
C3688 C3683 1.490 . S
C3688 C3690 1.395 . S
C3688 C3691 1.403 1_545 S
H3689 C3695 0.930 . S
C3690 H3676 0.930 . S
C3690 C3688 1.395 . S
C3690 C3693 1.403 . S
C3691 C3688 1.403 1_565 S
C3691 C3692 1.524 . S
C3691 C3695 1.400 . S
C3692 H3677 0.960 . S
C3692 H3678 0.960 . S
C3692 H3679 0.960 . S
C3692 C3691 1.524 . S
C3693 C3690 1.403 . S
C3693 C3694 1.392 . S
C3693 C3697 1.495 . S
C3694 C3693 1.392 . S
C3694 C3695 1.385 1_545 S
C3694 C3696 1.478 . S
C3695 H3689 0.930 . S
C3695 C3691 1.400 . S
C3695 C3694 1.385 1_565 S
C3696 C3694 1.478 . S
C3696 C3698 1.381 1_545 S
C3696 C3702 1.383 . S
C3697 C3693 1.495 . S
C3697 H3703 0.959 . S
C3697 H3704 0.961 . S
C3697 H3705 0.960 . S
C3698 C3696 1.381 1_565 S
C3698 C3699 1.394 . S
C3698 H3706 0.930 . S
C3699 C3698 1.394 . S
C3699 C3700 1.383 1_565 S
C3699 H3707 0.929 . S
C3700 C3699 1.383 1_545 S
C3700 C3701 1.377 . S
C3701 H3685 0.930 . S
C3701 C3700 1.377 . S
C3701 C3702 1.379 . S
C3702 H3686 0.931 . S
C3702 C3696 1.383 . S
C3702 C3701 1.379 . S
H3703 C3697 0.959 . S
H3704 C3697 0.961 . S
H3705 C3697 0.960 . S
H3706 C3698 0.930 . S
H3707 C3699 0.929 . S
H3708 C3716 0.929 . S
H3709 C3718 0.930 . S
H3710 C3720 0.930 . S
H3711 C3723 0.929 . S
H3712 C3726 0.930 . S
H3713 C3728 0.960 . S
H3714 C3728 0.960 . S
H3715 C3728 0.960 . S
C3716 H3708 0.929 . S
C3716 C3717 1.377 . S
C3716 C3718 1.384 . S
C3717 C3716 1.377 . S
C3717 C3723 1.390 . S
C3718 H3709 0.930 . S
C3718 C3716 1.384 . S
C3718 C3719 1.372 . S
C3719 C3718 1.372 . S
C3719 C3720 1.400 . S
C3719 C3724 1.490 . S
C3720 H3710 0.930 . S
C3720 C3719 1.400 . S
C3720 C3723 1.386 . S
H3721 C3737 0.930 . S
H3722 C3738 0.931 . S
C3723 H3711 0.929 . S
C3723 C3717 1.390 . S
C3723 C3720 1.386 . S
C3724 C3719 1.490 . S
C3724 C3726 1.395 . S
C3724 C3727 1.403 . S
H3725 C3731 0.930 . S
C3726 H3712 0.930 . S
C3726 C3724 1.395 . S
C3726 C3729 1.403 . S
C3727 C3724 1.403 . S
C3727 C3728 1.524 . S
C3727 C3731 1.400 . S
C3728 H3713 0.960 . S
C3728 H3714 0.960 . S
C3728 H3715 0.960 . S
C3728 C3727 1.524 . S
C3729 C3726 1.403 . S
C3729 C3730 1.392 . S
C3729 C3733 1.495 . S
C3730 C3729 1.392 . S
C3730 C3731 1.385 . S
C3730 C3732 1.478 . S
C3731 H3725 0.930 . S
C3731 C3727 1.400 . S
C3731 C3730 1.385 . S
C3732 C3730 1.478 . S
C3732 C3734 1.381 . S
C3732 C3738 1.383 . S
C3733 C3729 1.495 . S
C3733 H3739 0.959 . S
C3733 H3740 0.961 . S
C3733 H3741 0.960 . S
C3734 C3732 1.381 . S
C3734 C3735 1.394 . S
C3734 H3742 0.930 . S
C3735 C3734 1.394 . S
C3735 C3736 1.383 . S
C3735 H3743 0.929 . S
C3736 C3735 1.383 . S
C3736 C3737 1.377 . S
C3737 H3721 0.930 . S
C3737 C3736 1.377 . S
C3737 C3738 1.379 . S
C3738 H3722 0.931 . S
C3738 C3732 1.383 . S
C3738 C3737 1.379 . S
H3739 C3733 0.959 . S
H3740 C3733 0.961 . S
H3741 C3733 0.960 . S
H3742 C3734 0.930 . S
H3743 C3735 0.929 . S
H3744 C3752 0.929 . S
H3745 C3754 0.930 . S
H3746 C3756 0.930 . S
H3747 C3759 0.929 . S
H3748 C3762 0.930 . S
H3749 C3764 0.960 . S
H3750 C3764 0.960 . S
H3751 C3764 0.960 1_545 S
C3752 H3744 0.929 . S
C3752 C3753 1.352 1_565 S
C3752 C3754 1.384 . S
C3753 C3752 1.352 1_545 S
C3753 C3759 1.414 . S
C3754 H3745 0.930 . S
C3754 C3752 1.384 . S
C3754 C3755 1.372 . S
C3755 C3754 1.372 . S
C3755 C3756 1.400 1_565 S
C3755 C3760 1.490 . S
C3756 H3746 0.930 . S
C3756 C3755 1.400 1_545 S
C3756 C3759 1.386 . S
H3757 C3773 0.930 . S
H3758 C3774 0.931 . S
C3759 H3747 0.929 . S
C3759 C3753 1.414 . S
C3759 C3756 1.386 . S
C3760 C3755 1.490 . S
C3760 C3762 1.395 . S
C3760 C3763 1.403 . S
H3761 C3767 0.930 . S
C3762 H3748 0.930 . S
C3762 C3760 1.395 . S
C3762 C3765 1.403 . S
C3763 C3760 1.403 . S
C3763 C3764 1.524 . S
C3763 C3767 1.400 . S
C3764 H3749 0.960 . S
C3764 H3750 0.960 . S
C3764 H3751 0.960 1_565 S
C3764 C3763 1.524 . S
C3765 C3762 1.403 . S
C3765 C3766 1.392 . S
C3765 C3769 1.495 . S
C3766 C3765 1.392 . S
C3766 C3767 1.385 . S
C3766 C3768 1.478 . S
C3767 H3761 0.930 . S
C3767 C3763 1.400 . S
C3767 C3766 1.385 . S
C3768 C3766 1.478 . S
C3768 C3770 1.381 . S
C3768 C3774 1.383 1_565 S
C3769 C3765 1.495 . S
C3769 H3775 0.964 . S
C3769 H3776 0.961 1_565 S
C3769 H3777 0.960 . S
C3770 C3768 1.381 . S
C3770 C3771 1.394 . S
C3770 H3778 0.930 . S
C3771 C3770 1.394 . S
C3771 C3772 1.383 . S
C3771 H3779 0.929 . S
C3772 C3771 1.383 . S
C3772 C3773 1.377 1_565 S
C3773 H3757 0.930 . S
C3773 C3772 1.377 1_545 S
C3773 C3774 1.379 . S
C3774 H3758 0.931 . S
C3774 C3768 1.383 1_545 S
C3774 C3773 1.379 . S
H3775 C3769 0.964 . S
H3776 C3769 0.961 1_545 S
H3777 C3769 0.960 . S
H3778 C3770 0.930 . S
H3779 C3771 0.929 . S
H3780 C3788 0.929 . S
H3781 C3790 0.930 . S
H3782 C3792 0.930 . S
H3783 C3795 0.929 . S
H3784 C3798 0.930 . S
H3785 C3800 0.960 . S
H3786 C3800 0.960 . S
H3787 C3800 0.960 . S
C3788 H3780 0.929 . S
C3788 C3789 1.377 . S
C3788 C3790 1.384 . S
C3789 C3788 1.377 . S
C3789 C3795 1.390 . S
C3790 H3781 0.930 . S
C3790 C3788 1.384 . S
C3790 C3791 1.372 . S
C3791 C3790 1.372 . S
C3791 C3792 1.400 . S
C3791 C3796 1.490 . S
C3792 H3782 0.930 . S
C3792 C3791 1.400 . S
C3792 C3795 1.386 . S
H3793 C3809 0.930 . S
H3794 C3810 0.931 . S
C3795 H3783 0.929 . S
C3795 C3789 1.390 . S
C3795 C3792 1.386 . S
C3796 C3791 1.490 . S
C3796 C3798 1.395 . S
C3796 C3799 1.403 . S
H3797 C3803 0.930 . S
C3798 H3784 0.930 . S
C3798 C3796 1.395 . S
C3798 C3801 1.403 . S
C3799 C3796 1.403 . S
C3799 C3800 1.524 . S
C3799 C3803 1.400 . S
C3800 H3785 0.960 . S
C3800 H3786 0.960 . S
C3800 H3787 0.960 . S
C3800 C3799 1.524 . S
C3801 C3798 1.403 . S
C3801 C3802 1.392 . S
C3801 C3805 1.495 . S
C3802 C3801 1.392 . S
C3802 C3803 1.385 . S
C3802 C3804 1.478 . S
C3803 H3797 0.930 . S
C3803 C3799 1.400 . S
C3803 C3802 1.385 . S
C3804 C3802 1.478 . S
C3804 C3806 1.381 . S
C3804 C3810 1.383 . S
C3805 C3801 1.495 . S
C3805 H3811 0.959 . S
C3805 H3812 0.961 . S
C3805 H3813 0.960 . S
C3806 C3804 1.381 . S
C3806 C3807 1.394 . S
C3806 H3814 0.930 . S
C3807 C3806 1.394 . S
C3807 C3808 1.383 . S
C3807 H3815 0.929 . S
C3808 C3807 1.383 . S
C3808 C3809 1.377 . S
C3809 H3793 0.930 . S
C3809 C3808 1.377 . S
C3809 C3810 1.379 . S
C3810 H3794 0.931 . S
C3810 C3804 1.383 . S
C3810 C3809 1.379 . S
H3811 C3805 0.959 . S
H3812 C3805 0.961 . S
H3813 C3805 0.960 . S
H3814 C3806 0.930 . S
H3815 C3807 0.929 . S
H3816 C3824 0.929 . S
H3817 C3826 0.930 . S
H3818 C3828 0.957 . S
H3819 C3831 0.929 . S
H3820 C3834 0.930 . S
H3821 C3836 0.960 . S
H3822 C3836 0.960 . S
H3823 C3836 0.960 . S
C3824 H3816 0.929 . S
C3824 C3825 1.377 . S
C3824 C3826 1.384 . S
C3825 C3824 1.377 . S
C3825 C3831 1.390 1_545 S
C3826 H3817 0.930 . S
C3826 C3824 1.384 . S
C3826 C3827 1.372 . S
C3827 C3826 1.372 . S
C3827 C3828 1.372 1_545 S
C3827 C3832 1.490 . S
C3828 H3818 0.957 . S
C3828 C3827 1.372 1_565 S
C3828 C3831 1.391 . S
H3829 C3845 0.930 . S
H3830 C3846 0.931 . S
C3831 H3819 0.929 . S
C3831 C3825 1.390 1_565 S
C3831 C3828 1.391 . S
C3832 C3827 1.490 . S
C3832 C3834 1.395 . S
C3832 C3835 1.403 1_545 S
H3833 C3839 0.930 . S
C3834 H3820 0.930 . S
C3834 C3832 1.395 . S
C3834 C3837 1.403 . S
C3835 C3832 1.403 1_565 S
C3835 C3836 1.524 . S
C3835 C3839 1.400 . S
C3836 H3821 0.960 . S
C3836 H3822 0.960 . S
C3836 H3823 0.960 . S
C3836 C3835 1.524 . S
C3837 C3834 1.403 . S
C3837 C3838 1.392 . S
C3837 C3841 1.495 . S
C3838 C3837 1.392 . S
C3838 C3839 1.385 1_545 S
C3838 C3840 1.478 . S
C3839 H3833 0.930 . S
C3839 C3835 1.400 . S
C3839 C3838 1.385 1_565 S
C3840 C3838 1.478 . S
C3840 C3842 1.381 . S
C3840 C3846 1.383 . S
C3841 C3837 1.495 . S
C3841 H3847 0.959 . S
C3841 H3848 0.961 . S
C3841 H3849 0.960 . S
C3842 C3840 1.381 . S
C3842 C3843 1.394 . S
C3842 H3850 0.930 . S
C3843 C3842 1.394 . S
C3843 C3844 1.383 . S
C3843 H3851 0.929 . S
C3844 C3843 1.383 . S
C3844 C3845 1.377 . S
C3845 H3829 0.930 . S
C3845 C3844 1.377 . S
C3845 C3846 1.379 . S
C3846 H3830 0.931 . S
C3846 C3840 1.383 . S
C3846 C3845 1.379 . S
H3847 C3841 0.959 . S
H3848 C3841 0.961 . S
H3849 C3841 0.960 . S
H3850 C3842 0.930 . S
H3851 C3843 0.929 . S
H3852 C3860 0.929 . S
H3853 C3862 0.930 . S
H3854 C3864 0.930 . S
H3855 C3867 0.929 . S
H3856 C3870 0.930 . S
H3857 C3872 0.960 . S
H3858 C3872 0.960 . S
H3859 C3872 0.960 . S
C3860 H3852 0.929 . S
C3860 C3861 1.377 . S
C3860 C3862 1.384 . S
C3861 C3860 1.377 . S
C3861 C3867 1.390 . S
C3862 H3853 0.930 . S
C3862 C3860 1.384 . S
C3862 C3863 1.372 . S
C3863 C3862 1.372 . S
C3863 C3864 1.400 . S
C3863 C3868 1.490 . S
C3864 H3854 0.930 . S
C3864 C3863 1.400 . S
C3864 C3867 1.386 . S
H3865 C3881 0.930 . S
H3866 C3882 0.931 . S
C3867 H3855 0.929 . S
C3867 C3861 1.390 . S
C3867 C3864 1.386 . S
C3868 C3863 1.490 . S
C3868 C3870 1.395 . S
C3868 C3871 1.403 . S
H3869 C3875 0.930 . S
C3870 H3856 0.930 . S
C3870 C3868 1.395 . S
C3870 C3873 1.403 . S
C3871 C3868 1.403 . S
C3871 C3872 1.524 . S
C3871 C3875 1.400 . S
C3872 H3857 0.960 . S
C3872 H3858 0.960 . S
C3872 H3859 0.960 . S
C3872 C3871 1.524 . S
C3873 C3870 1.403 . S
C3873 C3874 1.392 . S
C3873 C3877 1.495 . S
C3874 C3873 1.392 . S
C3874 C3875 1.385 . S
C3874 C3876 1.478 . S
C3875 H3869 0.930 . S
C3875 C3871 1.400 . S
C3875 C3874 1.385 . S
C3876 C3874 1.478 . S
C3876 C3878 1.381 . S
C3876 C3882 1.383 . S
C3877 C3873 1.495 . S
C3877 H3883 0.959 . S
C3877 H3884 0.961 . S
C3877 H3885 0.960 . S
C3878 C3876 1.381 . S
C3878 C3879 1.394 . S
C3878 H3886 0.930 . S
C3879 C3878 1.394 . S
C3879 C3880 1.383 . S
C3879 H3887 0.929 . S
C3880 C3879 1.383 . S
C3880 C3881 1.377 . S
C3881 H3865 0.930 . S
C3881 C3880 1.377 . S
C3881 C3882 1.379 . S
C3882 H3866 0.931 . S
C3882 C3876 1.383 . S
C3882 C3881 1.379 . S
H3883 C3877 0.959 . S
H3884 C3877 0.961 . S
H3885 C3877 0.960 . S
H3886 C3878 0.930 . S
H3887 C3879 0.929 . S
H3888 C3896 0.929 . S
H3889 C3898 0.930 . S
H3890 C3900 0.930 . S
H3891 C3903 0.942 . S
H3892 C3906 0.930 . S
H3893 C3908 0.960 . S
H3894 C3908 0.960 . S
H3895 C3908 0.960 . S
C3896 H3888 0.929 . S
C3896 C3897 1.377 . S
C3896 C3898 1.384 . S
C3897 C3896 1.377 . S
C3897 C3903 1.390 . S
C3898 H3889 0.930 . S
C3898 C3896 1.384 . S
C3898 C3899 1.372 . S
C3899 C3898 1.372 . S
C3899 C3900 1.400 . S
C3899 C3904 1.490 . S
C3900 H3890 0.930 . S
C3900 C3899 1.400 . S
C3900 C3903 1.386 . S
H3901 C3917 0.930 1_545 S
H3902 C3918 0.915 1_556 S
C3903 H3891 0.942 . S
C3903 C3897 1.390 . S
C3903 C3900 1.386 . S
C3904 C3899 1.490 . S
C3904 C3906 1.395 1_554 S
C3904 C3907 1.403 . S
H3905 C3911 0.930 . S
C3906 H3892 0.930 . S
C3906 C3904 1.395 1_556 S
C3906 C3909 1.403 . S
C3907 C3904 1.403 . S
C3907 C3908 1.524 . S
C3907 C3911 1.400 . S
C3908 H3893 0.960 . S
C3908 H3894 0.960 . S
C3908 H3895 0.960 . S
C3908 C3907 1.524 . S
C3909 C3906 1.403 . S
C3909 C3910 1.392 1_556 S
C3909 C3913 1.495 . S
C3910 C3909 1.392 1_554 S
C3910 C3911 1.385 . S
C3910 C3912 1.478 . S
C3911 H3905 0.930 . S
C3911 C3907 1.400 . S
C3911 C3910 1.385 . S
C3912 C3910 1.478 . S
C3912 C3914 1.381 . S
C3912 C3918 1.383 . S
C3913 C3909 1.495 . S
C3913 H3919 0.959 . S
C3913 H3920 0.961 . S
C3913 H3921 0.960 . S
C3914 C3912 1.381 . S
C3914 C3915 1.394 . S
C3914 H3922 0.930 . S
C3915 C3914 1.394 . S
C3915 C3916 1.383 . S
C3915 H3923 0.929 . S
C3916 C3915 1.383 . S
C3916 C3917 1.377 . S
C3917 H3901 0.930 1_565 S
C3917 C3916 1.377 . S
C3917 C3918 1.379 . S
C3918 H3902 0.915 1_554 S
C3918 C3912 1.383 . S
C3918 C3917 1.379 . S
H3919 C3913 0.959 . S
H3920 C3913 0.961 . S
H3921 C3913 0.960 . S
H3922 C3914 0.930 . S
H3923 C3915 0.929 . S
H3924 C3932 0.929 . S
H3925 C3934 0.930 . S
H3926 C3936 0.930 . S
H3927 C3939 0.929 . S
H3928 C3942 0.933 . S
H3929 C3944 0.960 . S
H3930 C3944 0.960 . S
H3931 C3944 0.960 1_554 S
C3932 H3924 0.929 . S
C3932 C3933 1.328 1_556 S
C3932 C3934 1.384 . S
C3933 C3932 1.328 1_554 S
C3933 C3939 1.438 . S
C3934 H3925 0.930 . S
C3934 C3932 1.384 . S
C3934 C3935 1.404 . S
C3935 C3934 1.404 . S
C3935 C3936 1.366 1_556 S
C3935 C3940 1.492 . S
C3936 H3926 0.930 . S
C3936 C3935 1.366 1_554 S
C3936 C3939 1.386 . S
H3937 C3953 0.930 . S
H3938 C3954 0.931 . S
C3939 H3927 0.929 . S
C3939 C3933 1.438 . S
C3939 C3936 1.386 . S
C3940 C3935 1.492 . S
C3940 C3942 1.395 . S
C3940 C3943 1.403 . S
H3941 C3947 0.930 . S
C3942 H3928 0.933 . S
C3942 C3940 1.395 . S
C3942 C3945 1.403 . S
C3943 C3940 1.403 . S
C3943 C3944 1.524 . S
C3943 C3947 1.400 . S
C3944 H3929 0.960 . S
C3944 H3930 0.960 . S
C3944 H3931 0.960 1_556 S
C3944 C3943 1.524 . S
C3945 C3942 1.403 . S
C3945 C3946 1.392 . S
C3945 C3949 1.498 . S
C3946 C3945 1.392 . S
C3946 C3947 1.385 . S
C3946 C3948 1.478 . S
C3947 H3941 0.930 . S
C3947 C3943 1.400 . S
C3947 C3946 1.385 . S
C3948 C3946 1.478 . S
C3948 C3950 1.381 . S
C3948 C3954 1.383 1_556 S
C3949 C3945 1.498 . S
C3949 H3955 0.959 . S
C3949 H3956 0.911 1_556 S
C3949 H3957 1.011 . S
C3950 C3948 1.381 . S
C3950 C3951 1.394 . S
C3950 H3958 0.930 . S
C3951 C3950 1.394 . S
C3951 C3952 1.383 . S
C3951 H3959 0.929 . S
C3952 C3951 1.383 . S
C3952 C3953 1.377 1_556 S
C3953 H3937 0.930 . S
C3953 C3952 1.377 1_554 S
C3953 C3954 1.379 . S
C3954 H3938 0.931 . S
C3954 C3948 1.383 1_554 S
C3954 C3953 1.379 . S
H3955 C3949 0.959 . S
H3956 C3949 0.911 1_554 S
H3957 C3949 1.011 . S
H3958 C3950 0.930 . S
H3959 C3951 0.929 . S
H3960 C3968 0.929 . S
H3961 C3970 0.930 . S
H3962 C3972 0.930 . S
H3963 C3975 0.929 . S
H3964 C3978 0.930 . S
H3965 C3980 0.960 . S
H3966 C3980 0.960 . S
H3967 C3980 0.960 . S
C3968 H3960 0.929 . S
C3968 C3969 1.377 . S
C3968 C3970 1.384 . S
C3969 C3968 1.377 . S
C3969 C3975 1.390 . S
C3970 H3961 0.930 . S
C3970 C3968 1.384 . S
C3970 C3971 1.372 . S
C3971 C3970 1.372 . S
C3971 C3972 1.400 . S
C3971 C3976 1.490 . S
C3972 H3962 0.930 . S
C3972 C3971 1.400 . S
C3972 C3975 1.386 . S
H3973 C3989 0.930 . S
H3974 C3990 0.931 . S
C3975 H3963 0.929 . S
C3975 C3969 1.390 . S
C3975 C3972 1.386 . S
C3976 C3971 1.490 . S
C3976 C3978 1.395 . S
C3976 C3979 1.403 . S
H3977 C3983 0.930 . S
C3978 H3964 0.930 . S
C3978 C3976 1.395 . S
C3978 C3981 1.403 . S
C3979 C3976 1.403 . S
C3979 C3980 1.524 . S
C3979 C3983 1.400 . S
C3980 H3965 0.960 . S
C3980 H3966 0.960 . S
C3980 H3967 0.960 . S
C3980 C3979 1.524 . S
C3981 C3978 1.403 . S
C3981 C3982 1.392 . S
C3981 C3985 1.495 . S
C3982 C3981 1.392 . S
C3982 C3983 1.385 . S
C3982 C3984 1.478 . S
C3983 H3977 0.930 . S
C3983 C3979 1.400 . S
C3983 C3982 1.385 . S
C3984 C3982 1.478 . S
C3984 C3986 1.381 . S
C3984 C3990 1.383 . S
C3985 C3981 1.495 . S
C3985 H3991 0.959 . S
C3985 H3992 0.961 . S
C3985 H3993 0.960 . S
C3986 C3984 1.381 . S
C3986 C3987 1.394 . S
C3986 H3994 0.930 . S
C3987 C3986 1.394 . S
C3987 C3988 1.383 . S
C3987 H3995 0.929 . S
C3988 C3987 1.383 . S
C3988 C3989 1.377 . S
C3989 H3973 0.930 . S
C3989 C3988 1.377 . S
C3989 C3990 1.379 . S
C3990 H3974 0.931 . S
C3990 C3984 1.383 . S
C3990 C3989 1.379 . S
H3991 C3985 0.959 . S
H3992 C3985 0.961 . S
H3993 C3985 0.960 . S
H3994 C3986 0.930 . S
H3995 C3987 0.929 . S
H3996 C4004 0.929 . S
H3997 C4006 0.930 . S
H3998 C4008 0.930 . S
H3999 C4011 0.929 . S
H4000 C4014 0.930 . S
H4001 C4016 0.960 . S
H4002 C4016 0.960 . S
H4003 C4016 0.960 . S
C4004 H3996 0.929 . S
C4004 C4005 1.377 . S
C4004 C4006 1.384 . S
C4005 C4004 1.377 . S
C4005 C4011 1.390 . S
C4006 H3997 0.930 . S
C4006 C4004 1.384 . S
C4006 C4007 1.372 . S
C4007 C4006 1.372 . S
C4007 C4008 1.400 . S
C4007 C4012 1.490 . S
C4008 H3998 0.930 . S
C4008 C4007 1.400 . S
C4008 C4011 1.386 . S
H4009 C4025 0.930 . S
H4010 C4026 0.931 . S
C4011 H3999 0.929 . S
C4011 C4005 1.390 . S
C4011 C4008 1.386 . S
C4012 C4007 1.490 . S
C4012 C4014 1.395 . S
C4012 C4015 1.403 . S
H4013 C4019 0.930 . S
C4014 H4000 0.930 . S
C4014 C4012 1.395 . S
C4014 C4017 1.403 . S
C4015 C4012 1.403 . S
C4015 C4016 1.524 . S
C4015 C4019 1.400 . S
C4016 H4001 0.960 . S
C4016 H4002 0.960 . S
C4016 H4003 0.960 . S
C4016 C4015 1.524 . S
C4017 C4014 1.403 . S
C4017 C4018 1.392 . S
C4017 C4021 1.495 . S
C4018 C4017 1.392 . S
C4018 C4019 1.385 . S
C4018 C4020 1.478 . S
C4019 H4013 0.930 . S
C4019 C4015 1.400 . S
C4019 C4018 1.385 . S
C4020 C4018 1.478 . S
C4020 C4022 1.381 . S
C4020 C4026 1.383 . S
C4021 C4017 1.495 . S
C4021 H4027 0.959 . S
C4021 H4028 0.961 . S
C4021 H4029 0.960 . S
C4022 C4020 1.381 . S
C4022 C4023 1.394 . S
C4022 H4030 0.930 . S
C4023 C4022 1.394 . S
C4023 C4024 1.383 . S
C4023 H4031 0.929 . S
C4024 C4023 1.383 . S
C4024 C4025 1.377 . S
C4025 H4009 0.930 . S
C4025 C4024 1.377 . S
C4025 C4026 1.379 . S
C4026 H4010 0.931 . S
C4026 C4020 1.383 . S
C4026 C4025 1.379 . S
H4027 C4021 0.959 . S
H4028 C4021 0.961 . S
H4029 C4021 0.960 . S
H4030 C4022 0.930 . S
H4031 C4023 0.929 . S
H4032 C4040 0.929 . S
H4033 C4042 0.930 . S
H4034 C4044 0.930 . S
H4035 C4047 0.929 . S
H4036 C4050 0.930 . S
H4037 C4052 0.960 . S
H4038 C4052 0.960 . S
H4039 C4052 0.960 . S
C4040 H4032 0.929 . S
C4040 C4041 1.377 . S
C4040 C4042 1.384 . S
C4041 C4040 1.377 . S
C4041 C4047 1.390 . S
C4042 H4033 0.930 . S
C4042 C4040 1.384 . S
C4042 C4043 1.372 . S
C4043 C4042 1.372 . S
C4043 C4044 1.400 . S
C4043 C4048 1.490 . S
C4044 H4034 0.930 . S
C4044 C4043 1.400 . S
C4044 C4047 1.386 . S
H4045 C4061 0.930 . S
H4046 C4062 0.931 . S
C4047 H4035 0.929 . S
C4047 C4041 1.390 . S
C4047 C4044 1.386 . S
C4048 C4043 1.490 . S
C4048 C4050 1.395 . S
C4048 C4051 1.403 . S
H4049 C4055 0.930 . S
C4050 H4036 0.930 . S
C4050 C4048 1.395 . S
C4050 C4053 1.403 . S
C4051 C4048 1.403 . S
C4051 C4052 1.524 . S
C4051 C4055 1.400 . S
C4052 H4037 0.960 . S
C4052 H4038 0.960 . S
C4052 H4039 0.960 . S
C4052 C4051 1.524 . S
C4053 C4050 1.403 . S
C4053 C4054 1.392 . S
C4053 C4057 1.495 . S
C4054 C4053 1.392 . S
C4054 C4055 1.385 . S
C4054 C4056 1.478 . S
C4055 H4049 0.930 . S
C4055 C4051 1.400 . S
C4055 C4054 1.385 . S
C4056 C4054 1.478 . S
C4056 C4058 1.381 . S
C4056 C4062 1.383 . S
C4057 C4053 1.495 . S
C4057 H4063 0.959 . S
C4057 H4064 0.961 . S
C4057 H4065 0.960 . S
C4058 C4056 1.381 . S
C4058 C4059 1.394 . S
C4058 H4066 0.930 . S
C4059 C4058 1.394 . S
C4059 C4060 1.383 . S
C4059 H4067 0.929 . S
C4060 C4059 1.383 . S
C4060 C4061 1.377 . S
C4061 H4045 0.930 . S
C4061 C4060 1.377 . S
C4061 C4062 1.379 . S
C4062 H4046 0.931 . S
C4062 C4056 1.383 . S
C4062 C4061 1.379 . S
H4063 C4057 0.959 . S
H4064 C4057 0.961 . S
H4065 C4057 0.960 . S
H4066 C4058 0.930 . S
H4067 C4059 0.929 . S
H4068 C4076 0.929 . S
H4069 C4078 0.930 . S
H4070 C4080 0.930 . S
H4071 C4083 0.929 . S
H4072 C4086 0.930 . S
H4073 C4088 0.960 . S
H4074 C4088 0.960 . S
H4075 C4088 0.960 . S
C4076 H4068 0.929 . S
C4076 C4077 1.377 . S
C4076 C4078 1.384 . S
C4077 C4076 1.377 . S
C4077 C4083 1.390 . S
C4078 H4069 0.930 . S
C4078 C4076 1.384 . S
C4078 C4079 1.372 . S
C4079 C4078 1.372 . S
C4079 C4080 1.400 . S
C4079 C4084 1.490 . S
C4080 H4070 0.930 . S
C4080 C4079 1.400 . S
C4080 C4083 1.386 . S
H4081 C4097 0.930 . S
H4082 C4098 0.931 . S
C4083 H4071 0.929 . S
C4083 C4077 1.390 . S
C4083 C4080 1.386 . S
C4084 C4079 1.490 . S
C4084 C4086 1.395 . S
C4084 C4087 1.403 . S
H4085 C4091 0.930 . S
C4086 H4072 0.930 . S
C4086 C4084 1.395 . S
C4086 C4089 1.403 . S
C4087 C4084 1.403 . S
C4087 C4088 1.524 . S
C4087 C4091 1.400 . S
C4088 H4073 0.960 . S
C4088 H4074 0.960 . S
C4088 H4075 0.960 . S
C4088 C4087 1.524 . S
C4089 C4086 1.403 . S
C4089 C4090 1.392 . S
C4089 C4093 1.495 . S
C4090 C4089 1.392 . S
C4090 C4091 1.385 . S
C4090 C4092 1.478 . S
C4091 H4085 0.930 . S
C4091 C4087 1.400 . S
C4091 C4090 1.385 . S
C4092 C4090 1.478 . S
C4092 C4094 1.381 . S
C4092 C4098 1.383 . S
C4093 C4089 1.495 . S
C4093 H4099 0.959 . S
C4093 H4100 0.961 . S
C4093 H4101 0.960 . S
C4094 C4092 1.381 . S
C4094 C4095 1.394 . S
C4094 H4102 0.930 . S
C4095 C4094 1.394 . S
C4095 C4096 1.383 . S
C4095 H4103 0.929 . S
C4096 C4095 1.383 . S
C4096 C4097 1.377 . S
C4097 H4081 0.930 . S
C4097 C4096 1.377 . S
C4097 C4098 1.379 . S
C4098 H4082 0.931 . S
C4098 C4092 1.383 . S
C4098 C4097 1.379 . S
H4099 C4093 0.959 . S
H4100 C4093 0.961 . S
H4101 C4093 0.960 . S
H4102 C4094 0.930 . S
H4103 C4095 0.929 . S
H4104 C4112 0.929 . S
H4105 C4114 0.930 . S
H4106 C4116 0.930 . S
H4107 C4119 0.929 . S
H4108 C4122 0.930 . S
H4109 C4124 0.960 . S
H4110 C4124 0.960 . S
H4111 C4124 0.960 . S
C4112 H4104 0.929 . S
C4112 C4113 1.377 . S
C4112 C4114 1.384 . S
C4113 C4112 1.377 . S
C4113 C4119 1.390 . S
C4114 H4105 0.930 . S
C4114 C4112 1.384 . S
C4114 C4115 1.372 . S
C4115 C4114 1.372 . S
C4115 C4116 1.400 . S
C4115 C4120 1.490 . S
C4116 H4106 0.930 . S
C4116 C4115 1.400 . S
C4116 C4119 1.386 . S
H4117 C4133 0.930 . S
H4118 C4134 0.931 . S
C4119 H4107 0.929 . S
C4119 C4113 1.390 . S
C4119 C4116 1.386 . S
C4120 C4115 1.490 . S
C4120 C4122 1.395 . S
C4120 C4123 1.403 . S
H4121 C4127 0.930 . S
C4122 H4108 0.930 . S
C4122 C4120 1.395 . S
C4122 C4125 1.403 . S
C4123 C4120 1.403 . S
C4123 C4124 1.524 . S
C4123 C4127 1.400 . S
C4124 H4109 0.960 . S
C4124 H4110 0.960 . S
C4124 H4111 0.960 . S
C4124 C4123 1.524 . S
C4125 C4122 1.403 . S
C4125 C4126 1.392 . S
C4125 C4129 1.495 . S
C4126 C4125 1.392 . S
C4126 C4127 1.385 . S
C4126 C4128 1.478 . S
C4127 H4121 0.930 . S
C4127 C4123 1.400 . S
C4127 C4126 1.385 . S
C4128 C4126 1.478 . S
C4128 C4130 1.381 . S
C4128 C4134 1.383 . S
C4129 C4125 1.495 . S
C4129 H4135 0.959 . S
C4129 H4136 0.961 . S
C4129 H4137 0.960 . S
C4130 C4128 1.381 . S
C4130 C4131 1.394 . S
C4130 H4138 0.930 . S
C4131 C4130 1.394 . S
C4131 C4132 1.383 . S
C4131 H4139 0.929 . S
C4132 C4131 1.383 . S
C4132 C4133 1.377 . S
C4133 H4117 0.930 . S
C4133 C4132 1.377 . S
C4133 C4134 1.379 . S
C4134 H4118 0.931 . S
C4134 C4128 1.383 . S
C4134 C4133 1.379 . S
H4135 C4129 0.959 . S
H4136 C4129 0.961 . S
H4137 C4129 0.960 . S
H4138 C4130 0.930 . S
H4139 C4131 0.929 . S
H4140 C4148 0.929 . S
H4141 C4150 0.930 . S
H4142 C4152 0.930 . S
H4143 C4155 0.929 . S
H4144 C4158 0.930 . S
H4145 C4160 0.960 . S
H4146 C4160 0.960 . S
H4147 C4160 0.960 . S
C4148 H4140 0.929 . S
C4148 C4149 1.377 . S
C4148 C4150 1.384 . S
C4149 C4148 1.377 . S
C4149 C4155 1.390 . S
C4150 H4141 0.930 . S
C4150 C4148 1.384 . S
C4150 C4151 1.372 . S
C4151 C4150 1.372 . S
C4151 C4152 1.400 . S
C4151 C4156 1.490 . S
C4152 H4142 0.930 . S
C4152 C4151 1.400 . S
C4152 C4155 1.386 . S
H4153 C4169 0.930 . S
H4154 C4170 0.931 . S
C4155 H4143 0.929 . S
C4155 C4149 1.390 . S
C4155 C4152 1.386 . S
C4156 C4151 1.490 . S
C4156 C4158 1.395 . S
C4156 C4159 1.403 . S
H4157 C4163 0.930 . S
C4158 H4144 0.930 . S
C4158 C4156 1.395 . S
C4158 C4161 1.403 . S
C4159 C4156 1.403 . S
C4159 C4160 1.524 . S
C4159 C4163 1.400 . S
C4160 H4145 0.960 . S
C4160 H4146 0.960 . S
C4160 H4147 0.960 . S
C4160 C4159 1.524 . S
C4161 C4158 1.403 . S
C4161 C4162 1.392 . S
C4161 C4165 1.495 . S
C4162 C4161 1.392 . S
C4162 C4163 1.385 . S
C4162 C4164 1.478 . S
C4163 H4157 0.930 . S
C4163 C4159 1.400 . S
C4163 C4162 1.385 . S
C4164 C4162 1.478 . S
C4164 C4166 1.381 . S
C4164 C4170 1.383 . S
C4165 C4161 1.495 . S
C4165 H4171 0.959 . S
C4165 H4172 0.961 . S
C4165 H4173 0.960 . S
C4166 C4164 1.381 . S
C4166 C4167 1.394 . S
C4166 H4174 0.930 . S
C4167 C4166 1.394 . S
C4167 C4168 1.383 . S
C4167 H4175 0.929 . S
C4168 C4167 1.383 . S
C4168 C4169 1.377 . S
C4169 H4153 0.930 . S
C4169 C4168 1.377 . S
C4169 C4170 1.379 . S
C4170 H4154 0.931 . S
C4170 C4164 1.383 . S
C4170 C4169 1.379 . S
H4171 C4165 0.959 . S
H4172 C4165 0.961 . S
H4173 C4165 0.960 . S
H4174 C4166 0.930 . S
H4175 C4167 0.929 . S
H4176 C4184 0.929 . S
H4177 C4186 0.930 . S
H4178 C4188 0.930 . S
H4179 C4191 0.929 . S
H4180 C4194 0.930 . S
H4181 C4196 0.960 . S
H4182 C4196 0.960 . S
H4183 C4196 0.960 . S
C4184 H4176 0.929 . S
C4184 C4185 1.377 . S
C4184 C4186 1.384 . S
C4185 C4184 1.377 . S
C4185 C4191 1.390 . S
C4186 H4177 0.930 . S
C4186 C4184 1.384 . S
C4186 C4187 1.372 . S
C4187 C4186 1.372 . S
C4187 C4188 1.400 . S
C4187 C4192 1.490 . S
C4188 H4178 0.930 . S
C4188 C4187 1.400 . S
C4188 C4191 1.386 . S
H4189 C4205 0.930 . S
H4190 C4206 0.931 . S
C4191 H4179 0.929 . S
C4191 C4185 1.390 . S
C4191 C4188 1.386 . S
C4192 C4187 1.490 . S
C4192 C4194 1.395 . S
C4192 C4195 1.403 . S
H4193 C4199 0.930 . S
C4194 H4180 0.930 . S
C4194 C4192 1.395 . S
C4194 C4197 1.403 . S
C4195 C4192 1.403 . S
C4195 C4196 1.524 . S
C4195 C4199 1.400 . S
C4196 H4181 0.960 . S
C4196 H4182 0.960 . S
C4196 H4183 0.960 . S
C4196 C4195 1.524 . S
C4197 C4194 1.403 . S
C4197 C4198 1.392 . S
C4197 C4201 1.495 . S
C4198 C4197 1.392 . S
C4198 C4199 1.385 . S
C4198 C4200 1.478 . S
C4199 H4193 0.930 . S
C4199 C4195 1.400 . S
C4199 C4198 1.385 . S
C4200 C4198 1.478 . S
C4200 C4202 1.381 . S
C4200 C4206 1.383 . S
C4201 C4197 1.495 . S
C4201 H4207 0.959 . S
C4201 H4208 0.961 . S
C4201 H4209 0.960 . S
C4202 C4200 1.381 . S
C4202 C4203 1.394 . S
C4202 H4210 0.930 . S
C4203 C4202 1.394 . S
C4203 C4204 1.383 . S
C4203 H4211 0.929 . S
C4204 C4203 1.383 . S
C4204 C4205 1.377 . S
C4205 H4189 0.930 . S
C4205 C4204 1.377 . S
C4205 C4206 1.379 . S
C4206 H4190 0.931 . S
C4206 C4200 1.383 . S
C4206 C4205 1.379 . S
H4207 C4201 0.959 . S
H4208 C4201 0.961 . S
H4209 C4201 0.960 . S
H4210 C4202 0.930 . S
H4211 C4203 0.929 . S
H4212 C4220 0.929 . S
H4213 C4222 0.930 . S
H4214 C4224 0.930 . S
H4215 C4227 0.929 . S
H4216 C4230 0.930 . S
H4217 C4232 0.960 . S
H4218 C4232 0.960 . S
H4219 C4232 0.960 . S
C4220 H4212 0.929 . S
C4220 C4221 1.377 . S
C4220 C4222 1.384 . S
C4221 C4220 1.377 . S
C4221 C4227 1.390 . S
C4222 H4213 0.930 . S
C4222 C4220 1.384 . S
C4222 C4223 1.372 . S
C4223 C4222 1.372 . S
C4223 C4224 1.400 . S
C4223 C4228 1.490 . S
C4224 H4214 0.930 . S
C4224 C4223 1.400 . S
C4224 C4227 1.386 . S
H4225 C4241 0.930 . S
H4226 C4242 0.931 . S
C4227 H4215 0.929 . S
C4227 C4221 1.390 . S
C4227 C4224 1.386 . S
C4228 C4223 1.490 . S
C4228 C4230 1.395 . S
C4228 C4231 1.403 . S
H4229 C4235 0.930 . S
C4230 H4216 0.930 . S
C4230 C4228 1.395 . S
C4230 C4233 1.403 . S
C4231 C4228 1.403 . S
C4231 C4232 1.524 . S
C4231 C4235 1.400 . S
C4232 H4217 0.960 . S
C4232 H4218 0.960 . S
C4232 H4219 0.960 . S
C4232 C4231 1.524 . S
C4233 C4230 1.403 . S
C4233 C4234 1.392 . S
C4233 C4237 1.495 . S
C4234 C4233 1.392 . S
C4234 C4235 1.385 . S
C4234 C4236 1.478 . S
C4235 H4229 0.930 . S
C4235 C4231 1.400 . S
C4235 C4234 1.385 . S
C4236 C4234 1.478 . S
C4236 C4238 1.381 . S
C4236 C4242 1.383 . S
C4237 C4233 1.495 . S
C4237 H4243 0.959 . S
C4237 H4244 0.961 . S
C4237 H4245 0.960 . S
C4238 C4236 1.381 . S
C4238 C4239 1.394 . S
C4238 H4246 0.930 . S
C4239 C4238 1.394 . S
C4239 C4240 1.383 . S
C4239 H4247 0.929 . S
C4240 C4239 1.383 . S
C4240 C4241 1.377 . S
C4241 H4225 0.930 . S
C4241 C4240 1.377 . S
C4241 C4242 1.379 . S
C4242 H4226 0.931 . S
C4242 C4236 1.383 . S
C4242 C4241 1.379 . S
H4243 C4237 0.959 . S
H4244 C4237 0.961 . S
H4245 C4237 0.960 . S
H4246 C4238 0.930 . S
H4247 C4239 0.929 . S
H4248 C4256 0.929 . S
H4249 C4258 0.930 . S
H4250 C4260 0.919 1_655 S
H4251 C4263 0.926 1_655 S
H4252 C4266 0.930 . S
H4253 C4268 0.960 . S
H4254 C4268 0.960 . S
H4255 C4268 0.960 . S
C4256 H4248 0.929 . S
C4256 C4257 1.377 . S
C4256 C4258 1.384 . S
C4257 C4256 1.377 . S
C4257 C4263 1.393 . S
C4258 H4249 0.930 . S
C4258 C4256 1.384 . S
C4258 C4259 1.372 . S
C4259 C4258 1.372 . S
C4259 C4260 1.400 . S
C4259 C4264 1.490 . S
C4260 H4250 0.919 1_455 S
C4260 C4259 1.400 . S
C4260 C4263 1.386 . S
H4261 C4277 0.930 1_655 S
H4262 C4278 0.917 1_655 S
C4263 H4251 0.926 1_455 S
C4263 C4257 1.393 . S
C4263 C4260 1.386 . S
C4264 C4259 1.490 . S
C4264 C4266 1.395 1_455 S
C4264 C4267 1.403 . S
H4265 C4271 0.930 . S
C4266 H4252 0.930 . S
C4266 C4264 1.395 1_655 S
C4266 C4269 1.403 . S
C4267 C4264 1.403 . S
C4267 C4268 1.524 . S
C4267 C4271 1.400 . S
C4268 H4253 0.960 . S
C4268 H4254 0.960 . S
C4268 H4255 0.960 . S
C4268 C4267 1.524 . S
C4269 C4266 1.403 . S
C4269 C4270 1.392 1_655 S
C4269 C4273 1.495 . S
C4270 C4269 1.392 1_455 S
C4270 C4271 1.385 . S
C4270 C4272 1.478 . S
C4271 H4265 0.930 . S
C4271 C4267 1.400 . S
C4271 C4270 1.385 . S
C4272 C4270 1.478 . S
C4272 C4274 1.381 . S
C4272 C4278 1.394 . S
C4273 C4269 1.495 . S
C4273 H4279 0.959 . S
C4273 H4280 0.961 . S
C4273 H4281 0.960 . S
C4274 C4272 1.381 . S
C4274 C4275 1.394 . S
C4274 H4282 0.930 . S
C4275 C4274 1.394 . S
C4275 C4276 1.383 . S
C4275 H4283 0.929 1_554 S
C4276 C4275 1.383 . S
C4276 C4277 1.377 . S
C4277 H4261 0.930 1_455 S
C4277 C4276 1.377 . S
C4277 C4278 1.383 . S
C4278 H4262 0.917 1_455 S
C4278 C4272 1.394 . S
C4278 C4277 1.383 . S
H4279 C4273 0.959 . S
H4280 C4273 0.961 . S
H4281 C4273 0.960 . S
H4282 C4274 0.930 . S
H4283 C4275 0.929 1_556 S
H4284 C4292 0.929 . S
H4285 C4294 0.930 . S
H4286 C4296 0.930 . S
H4287 C4299 0.929 . S
H4288 C4302 0.930 . S
H4289 C4304 0.960 . S
H4290 C4304 0.960 . S
H4291 C4304 0.960 . S
C4292 H4284 0.929 . S
C4292 C4293 1.377 . S
C4292 C4294 1.384 . S
C4293 C4292 1.377 . S
C4293 C4299 1.390 . S
C4294 H4285 0.930 . S
C4294 C4292 1.384 . S
C4294 C4295 1.372 . S
C4295 C4294 1.372 . S
C4295 C4296 1.400 . S
C4295 C4300 1.490 . S
C4296 H4286 0.930 . S
C4296 C4295 1.400 . S
C4296 C4299 1.386 . S
H4297 C4313 0.930 . S
H4298 C4314 0.931 . S
C4299 H4287 0.929 . S
C4299 C4293 1.390 . S
C4299 C4296 1.386 . S
C4300 C4295 1.490 . S
C4300 C4302 1.395 . S
C4300 C4303 1.403 . S
H4301 C4307 0.930 . S
C4302 H4288 0.930 . S
C4302 C4300 1.395 . S
C4302 C4305 1.403 . S
C4303 C4300 1.403 . S
C4303 C4304 1.524 . S
C4303 C4307 1.400 . S
C4304 H4289 0.960 . S
C4304 H4290 0.960 . S
C4304 H4291 0.960 . S
C4304 C4303 1.524 . S
C4305 C4302 1.403 . S
C4305 C4306 1.392 . S
C4305 C4309 1.495 . S
C4306 C4305 1.392 . S
C4306 C4307 1.385 . S
C4306 C4308 1.478 . S
C4307 H4301 0.930 . S
C4307 C4303 1.400 . S
C4307 C4306 1.385 . S
C4308 C4306 1.478 . S
C4308 C4310 1.381 . S
C4308 C4314 1.383 . S
C4309 C4305 1.495 . S
C4309 H4315 0.959 . S
C4309 H4316 0.961 . S
C4309 H4317 0.960 . S
C4310 C4308 1.381 . S
C4310 C4311 1.394 . S
C4310 H4318 0.930 . S
C4311 C4310 1.394 . S
C4311 C4312 1.383 . S
C4311 H4319 0.929 . S
C4312 C4311 1.383 . S
C4312 C4313 1.377 . S
C4313 H4297 0.930 . S
C4313 C4312 1.377 . S
C4313 C4314 1.379 . S
C4314 H4298 0.931 . S
C4314 C4308 1.383 . S
C4314 C4313 1.379 . S
H4315 C4309 0.959 . S
H4316 C4309 0.961 . S
H4317 C4309 0.960 . S
H4318 C4310 0.930 . S
H4319 C4311 0.929 . S
H4320 C4328 0.929 . S
H4321 C4330 0.930 . S
H4322 C4332 0.930 . S
H4323 C4335 0.929 . S
H4324 C4338 0.930 . S
H4325 C4340 0.960 . S
H4326 C4340 0.960 . S
H4327 C4340 0.960 . S
C4328 H4320 0.929 . S
C4328 C4329 1.377 . S
C4328 C4330 1.384 . S
C4329 C4328 1.377 . S
C4329 C4335 1.390 . S
C4330 H4321 0.930 . S
C4330 C4328 1.384 . S
C4330 C4331 1.372 . S
C4331 C4330 1.372 . S
C4331 C4332 1.400 . S
C4331 C4336 1.490 . S
C4332 H4322 0.930 . S
C4332 C4331 1.400 . S
C4332 C4335 1.386 . S
H4333 C4349 0.930 1_554 S
H4334 C4350 0.931 . S
C4335 H4323 0.929 . S
C4335 C4329 1.390 . S
C4335 C4332 1.386 . S
C4336 C4331 1.490 . S
C4336 C4338 1.395 . S
C4336 C4339 1.403 . S
H4337 C4343 0.930 . S
C4338 H4324 0.930 . S
C4338 C4336 1.395 . S
C4338 C4341 1.403 . S
C4339 C4336 1.403 . S
C4339 C4340 1.524 . S
C4339 C4343 1.400 . S
C4340 H4325 0.960 . S
C4340 H4326 0.960 . S
C4340 H4327 0.960 . S
C4340 C4339 1.524 . S
C4341 C4338 1.403 . S
C4341 C4342 1.392 . S
C4341 C4345 1.495 . S
C4342 C4341 1.392 . S
C4342 C4343 1.385 . S
C4342 C4344 1.478 . S
C4343 H4337 0.930 . S
C4343 C4339 1.400 . S
C4343 C4342 1.385 . S
C4344 C4342 1.478 . S
C4344 C4346 1.381 . S
C4344 C4350 1.383 . S
C4345 C4341 1.495 . S
C4345 H4351 0.959 . S
C4345 H4352 0.961 . S
C4345 H4353 0.960 . S
C4346 C4344 1.381 . S
C4346 C4347 1.394 . S
C4346 H4354 0.930 . S
C4347 C4346 1.394 . S
C4347 C4348 1.383 . S
C4347 H4355 0.929 . S
C4348 C4347 1.383 . S
C4348 C4349 1.377 . S
C4349 H4333 0.930 1_556 S
C4349 C4348 1.377 . S
C4349 C4350 1.379 . S
C4350 H4334 0.931 . S
C4350 C4344 1.383 . S
C4350 C4349 1.379 . S
H4351 C4345 0.959 . S
H4352 C4345 0.961 . S
H4353 C4345 0.960 . S
H4354 C4346 0.930 . S
H4355 C4347 0.929 . S
H4356 C4364 0.929 . S
H4357 C4366 0.930 . S
H4358 C4368 0.930 . S
H4359 C4371 0.929 . S
H4360 C4374 0.930 . S
H4361 C4376 0.960 . S
H4362 C4376 0.960 . S
H4363 C4376 0.960 . S
C4364 H4356 0.929 . S
C4364 C4365 1.377 . S
C4364 C4366 1.384 . S
C4365 C4364 1.377 . S
C4365 C4371 1.390 . S
C4366 H4357 0.930 . S
C4366 C4364 1.384 . S
C4366 C4367 1.372 . S
C4367 C4366 1.372 . S
C4367 C4368 1.400 . S
C4367 C4372 1.490 . S
C4368 H4358 0.930 . S
C4368 C4367 1.400 . S
C4368 C4371 1.386 . S
H4369 C4385 0.930 . S
H4370 C4386 0.931 . S
C4371 H4359 0.929 . S
C4371 C4365 1.390 . S
C4371 C4368 1.386 . S
C4372 C4367 1.490 . S
C4372 C4374 1.395 . S
C4372 C4375 1.403 . S
H4373 C4379 0.930 . S
C4374 H4360 0.930 . S
C4374 C4372 1.395 . S
C4374 C4377 1.403 . S
C4375 C4372 1.403 . S
C4375 C4376 1.524 . S
C4375 C4379 1.400 . S
C4376 H4361 0.960 . S
C4376 H4362 0.960 . S
C4376 H4363 0.960 . S
C4376 C4375 1.524 . S
C4377 C4374 1.403 . S
C4377 C4378 1.392 . S
C4377 C4381 1.495 . S
C4378 C4377 1.392 . S
C4378 C4379 1.385 . S
C4378 C4380 1.478 . S
C4379 H4373 0.930 . S
C4379 C4375 1.400 . S
C4379 C4378 1.385 . S
C4380 C4378 1.478 . S
C4380 C4382 1.381 . S
C4380 C4386 1.383 . S
C4381 C4377 1.495 . S
C4381 H4387 0.959 . S
C4381 H4388 0.961 . S
C4381 H4389 0.960 . S
C4382 C4380 1.381 . S
C4382 C4383 1.394 . S
C4382 H4390 0.930 . S
C4383 C4382 1.394 . S
C4383 C4384 1.383 . S
C4383 H4391 0.929 . S
C4384 C4383 1.383 . S
C4384 C4385 1.377 . S
C4385 H4369 0.930 . S
C4385 C4384 1.377 . S
C4385 C4386 1.379 . S
C4386 H4370 0.931 . S
C4386 C4380 1.383 . S
C4386 C4385 1.379 . S
H4387 C4381 0.959 . S
H4388 C4381 0.961 . S
H4389 C4381 0.960 . S
H4390 C4382 0.930 . S
H4391 C4383 0.929 . S
H4392 C4400 0.929 . S
H4393 C4402 0.930 . S
H4394 C4404 0.930 . S
H4395 C4407 0.929 . S
H4396 C4410 0.908 1_655 S
H4397 C4412 0.960 . S
H4398 C4412 0.960 . S
H4399 C4412 0.960 . S
C4400 H4392 0.929 . S
C4400 C4401 1.377 1_655 S
C4400 C4402 1.384 . S
C4401 C4400 1.377 1_455 S
C4401 C4407 1.390 . S
C4402 H4393 0.930 . S
C4402 C4400 1.384 . S
C4402 C4403 1.372 1_655 S
C4403 C4402 1.372 1_455 S
C4403 C4404 1.400 . S
C4403 C4408 1.490 . S
C4404 H4394 0.930 . S
C4404 C4403 1.400 . S
C4404 C4407 1.386 . S
H4405 C4421 0.930 . S
H4406 C4422 0.931 . S
C4407 H4395 0.929 . S
C4407 C4401 1.390 . S
C4407 C4404 1.386 . S
C4408 C4403 1.490 . S
C4408 C4410 1.419 . S
C4408 C4411 1.403 . S
H4409 C4415 0.930 . S
C4410 H4396 0.908 1_455 S
C4410 C4408 1.419 . S
C4410 C4413 1.407 . S
C4411 C4408 1.403 . S
C4411 C4412 1.524 . S
C4411 C4415 1.400 . S
C4412 H4397 0.960 . S
C4412 H4398 0.960 . S
C4412 H4399 0.960 . S
C4412 C4411 1.524 . S
C4413 C4410 1.407 . S
C4413 C4414 1.392 . S
C4413 C4417 1.495 1_455 S
C4414 C4413 1.392 . S
C4414 C4415 1.385 . S
C4414 C4416 1.478 . S
C4415 H4409 0.930 . S
C4415 C4411 1.400 . S
C4415 C4414 1.385 . S
C4416 C4414 1.478 . S
C4416 C4418 1.381 1_455 S
C4416 C4422 1.383 . S
C4417 C4413 1.495 1_655 S
C4417 H4423 0.959 . S
C4417 H4424 0.961 1_655 S
C4417 H4425 0.960 . S
C4418 C4416 1.381 1_655 S
C4418 C4419 1.394 . S
C4418 H4426 0.930 . S
C4419 C4418 1.394 . S
C4419 C4420 1.383 1_655 S
C4419 H4427 0.929 . S
C4420 C4419 1.383 1_455 S
C4420 C4421 1.377 . S
C4421 H4405 0.930 . S
C4421 C4420 1.377 . S
C4421 C4422 1.379 . S
C4422 H4406 0.931 . S
C4422 C4416 1.383 . S
C4422 C4421 1.379 . S
H4423 C4417 0.959 . S
H4424 C4417 0.961 1_455 S
H4425 C4417 0.960 . S
H4426 C4418 0.930 . S
H4427 C4419 0.929 . S
H4428 C4436 0.929 . S
H4429 C4438 0.930 . S
H4430 C4440 0.930 . S
H4431 C4443 0.929 . S
H4432 C4446 0.930 . S
H4433 C4448 0.960 . S
H4434 C4448 0.960 . S
H4435 C4448 0.960 . S
C4436 H4428 0.929 . S
C4436 C4437 1.377 . S
C4436 C4438 1.384 . S
C4437 C4436 1.377 . S
C4437 C4443 1.390 . S
C4438 H4429 0.930 . S
C4438 C4436 1.384 . S
C4438 C4439 1.372 . S
C4439 C4438 1.372 . S
C4439 C4440 1.400 . S
C4439 C4444 1.490 . S
C4440 H4430 0.930 . S
C4440 C4439 1.400 . S
C4440 C4443 1.386 . S
H4441 C4457 0.930 . S
H4442 C4458 0.931 . S
C4443 H4431 0.929 . S
C4443 C4437 1.390 . S
C4443 C4440 1.386 . S
C4444 C4439 1.490 . S
C4444 C4446 1.395 . S
C4444 C4447 1.403 . S
H4445 C4451 0.930 . S
C4446 H4432 0.930 . S
C4446 C4444 1.395 . S
C4446 C4449 1.403 . S
C4447 C4444 1.403 . S
C4447 C4448 1.524 . S
C4447 C4451 1.400 . S
C4448 H4433 0.960 . S
C4448 H4434 0.960 . S
C4448 H4435 0.960 . S
C4448 C4447 1.524 . S
C4449 C4446 1.403 . S
C4449 C4450 1.392 . S
C4449 C4453 1.495 . S
C4450 C4449 1.392 . S
C4450 C4451 1.385 . S
C4450 C4452 1.478 . S
C4451 H4445 0.930 . S
C4451 C4447 1.400 . S
C4451 C4450 1.385 . S
C4452 C4450 1.478 . S
C4452 C4454 1.381 . S
C4452 C4458 1.383 . S
C4453 C4449 1.495 . S
C4453 H4459 0.959 . S
C4453 H4460 0.961 . S
C4453 H4461 0.960 . S
C4454 C4452 1.381 . S
C4454 C4455 1.394 . S
C4454 H4462 0.930 . S
C4455 C4454 1.394 . S
C4455 C4456 1.383 . S
C4455 H4463 0.929 . S
C4456 C4455 1.383 . S
C4456 C4457 1.377 . S
C4457 H4441 0.930 . S
C4457 C4456 1.377 . S
C4457 C4458 1.379 . S
C4458 H4442 0.931 . S
C4458 C4452 1.383 . S
C4458 C4457 1.379 . S
H4459 C4453 0.959 . S
H4460 C4453 0.961 . S
H4461 C4453 0.960 . S
H4462 C4454 0.930 . S
H4463 C4455 0.929 . S
H4464 C4472 0.929 . S
H4465 C4474 0.930 . S
H4466 C4476 0.930 . S
H4467 C4479 0.929 . S
H4468 C4482 0.930 . S
H4469 C4484 0.960 . S
H4470 C4484 0.960 . S
H4471 C4484 0.960 . S
C4472 H4464 0.929 . S
C4472 C4473 1.377 . S
C4472 C4474 1.384 . S
C4473 C4472 1.377 . S
C4473 C4479 1.390 . S
C4474 H4465 0.930 . S
C4474 C4472 1.384 . S
C4474 C4475 1.372 . S
C4475 C4474 1.372 . S
C4475 C4476 1.400 . S
C4475 C4480 1.490 . S
C4476 H4466 0.930 . S
C4476 C4475 1.400 . S
C4476 C4479 1.386 . S
H4477 C4493 0.930 . S
H4478 C4494 0.931 . S
C4479 H4467 0.929 . S
C4479 C4473 1.390 . S
C4479 C4476 1.386 . S
C4480 C4475 1.490 . S
C4480 C4482 1.395 . S
C4480 C4483 1.403 . S
H4481 C4487 0.930 . S
C4482 H4468 0.930 . S
C4482 C4480 1.395 . S
C4482 C4485 1.403 . S
C4483 C4480 1.403 . S
C4483 C4484 1.524 . S
C4483 C4487 1.400 . S
C4484 H4469 0.960 . S
C4484 H4470 0.960 . S
C4484 H4471 0.960 . S
C4484 C4483 1.524 . S
C4485 C4482 1.403 . S
C4485 C4486 1.392 . S
C4485 C4489 1.495 . S
C4486 C4485 1.392 . S
C4486 C4487 1.385 . S
C4486 C4488 1.478 . S
C4487 H4481 0.930 . S
C4487 C4483 1.400 . S
C4487 C4486 1.385 . S
C4488 C4486 1.478 . S
C4488 C4490 1.381 . S
C4488 C4494 1.383 . S
C4489 C4485 1.495 . S
C4489 H4495 0.959 . S
C4489 H4496 0.961 . S
C4489 H4497 0.960 . S
C4490 C4488 1.381 . S
C4490 C4491 1.394 . S
C4490 H4498 0.930 . S
C4491 C4490 1.394 . S
C4491 C4492 1.383 . S
C4491 H4499 0.929 . S
C4492 C4491 1.383 . S
C4492 C4493 1.377 . S
C4493 H4477 0.930 . S
C4493 C4492 1.377 . S
C4493 C4494 1.379 . S
C4494 H4478 0.931 . S
C4494 C4488 1.383 . S
C4494 C4493 1.379 . S
H4495 C4489 0.959 . S
H4496 C4489 0.961 . S
H4497 C4489 0.960 . S
H4498 C4490 0.930 . S
H4499 C4491 0.929 . S
H4500 C4508 0.929 . S
H4501 C4510 0.930 . S
H4502 C4512 0.930 . S
H4503 C4515 0.929 . S
H4504 C4518 0.930 . S
H4505 C4520 0.960 . S
H4506 C4520 0.960 . S
H4507 C4520 0.960 . S
C4508 H4500 0.929 . S
C4508 C4509 1.377 . S
C4508 C4510 1.384 . S
C4509 C4508 1.377 . S
C4509 C4515 1.390 . S
C4510 H4501 0.930 . S
C4510 C4508 1.384 . S
C4510 C4511 1.372 . S
C4511 C4510 1.372 . S
C4511 C4512 1.400 . S
C4511 C4516 1.490 . S
C4512 H4502 0.930 . S
C4512 C4511 1.400 . S
C4512 C4515 1.386 . S
H4513 C4529 0.930 . S
H4514 C4530 0.931 . S
C4515 H4503 0.929 . S
C4515 C4509 1.390 . S
C4515 C4512 1.386 . S
C4516 C4511 1.490 . S
C4516 C4518 1.395 . S
C4516 C4519 1.403 . S
H4517 C4523 0.930 . S
C4518 H4504 0.930 . S
C4518 C4516 1.395 . S
C4518 C4521 1.403 . S
C4519 C4516 1.403 . S
C4519 C4520 1.524 . S
C4519 C4523 1.400 . S
C4520 H4505 0.960 . S
C4520 H4506 0.960 . S
C4520 H4507 0.960 . S
C4520 C4519 1.524 . S
C4521 C4518 1.403 . S
C4521 C4522 1.392 . S
C4521 C4525 1.495 . S
C4522 C4521 1.392 . S
C4522 C4523 1.385 . S
C4522 C4524 1.478 . S
C4523 H4517 0.930 . S
C4523 C4519 1.400 . S
C4523 C4522 1.385 . S
C4524 C4522 1.478 . S
C4524 C4526 1.381 . S
C4524 C4530 1.383 . S
C4525 C4521 1.495 . S
C4525 H4531 0.959 . S
C4525 H4532 0.961 . S
C4525 H4533 0.960 . S
C4526 C4524 1.381 . S
C4526 C4527 1.394 . S
C4526 H4534 0.930 . S
C4527 C4526 1.394 . S
C4527 C4528 1.383 . S
C4527 H4535 0.929 . S
C4528 C4527 1.383 . S
C4528 C4529 1.377 . S
C4529 H4513 0.930 . S
C4529 C4528 1.377 . S
C4529 C4530 1.379 . S
C4530 H4514 0.931 . S
C4530 C4524 1.383 . S
C4530 C4529 1.379 . S
H4531 C4525 0.959 . S
H4532 C4525 0.961 . S
H4533 C4525 0.960 . S
H4534 C4526 0.930 . S
H4535 C4527 0.929 . S
H4536 C4544 0.929 . S
H4537 C4546 0.930 . S
H4538 C4548 0.930 . S
H4539 C4551 0.929 . S
H4540 C4554 0.930 . S
H4541 C4556 0.960 . S
H4542 C4556 0.960 . S
H4543 C4556 0.960 . S
C4544 H4536 0.929 . S
C4544 C4545 1.377 . S
C4544 C4546 1.384 . S
C4545 C4544 1.377 . S
C4545 C4551 1.390 . S
C4546 H4537 0.930 . S
C4546 C4544 1.384 . S
C4546 C4547 1.372 . S
C4547 C4546 1.372 . S
C4547 C4548 1.400 . S
C4547 C4552 1.490 . S
C4548 H4538 0.930 . S
C4548 C4547 1.400 . S
C4548 C4551 1.386 . S
H4549 C4565 0.930 . S
H4550 C4566 0.931 . S
C4551 H4539 0.929 . S
C4551 C4545 1.390 . S
C4551 C4548 1.386 . S
C4552 C4547 1.490 . S
C4552 C4554 1.395 . S
C4552 C4555 1.403 . S
H4553 C4559 0.930 . S
C4554 H4540 0.930 . S
C4554 C4552 1.395 . S
C4554 C4557 1.403 . S
C4555 C4552 1.403 . S
C4555 C4556 1.524 . S
C4555 C4559 1.400 . S
C4556 H4541 0.960 . S
C4556 H4542 0.960 . S
C4556 H4543 0.960 . S
C4556 C4555 1.524 . S
C4557 C4554 1.403 . S
C4557 C4558 1.392 . S
C4557 C4561 1.495 . S
C4558 C4557 1.392 . S
C4558 C4559 1.385 . S
C4558 C4560 1.478 . S
C4559 H4553 0.930 . S
C4559 C4555 1.400 . S
C4559 C4558 1.385 . S
C4560 C4558 1.478 . S
C4560 C4562 1.381 . S
C4560 C4566 1.383 . S
C4561 C4557 1.495 . S
C4561 H4567 0.959 . S
C4561 H4568 0.935 1_655 S
C4561 H4569 0.960 . S
C4562 C4560 1.381 . S
C4562 C4563 1.394 . S
C4562 H4570 0.930 . S
C4563 C4562 1.394 . S
C4563 C4564 1.383 . S
C4563 H4571 0.929 . S
C4564 C4563 1.383 . S
C4564 C4565 1.377 . S
C4565 H4549 0.930 . S
C4565 C4564 1.377 . S
C4565 C4566 1.379 . S
C4566 H4550 0.931 . S
C4566 C4560 1.383 . S
C4566 C4565 1.379 . S
H4567 C4561 0.959 . S
H4568 C4561 0.935 1_455 S
H4569 C4561 0.960 . S
H4570 C4562 0.930 . S
H4571 C4563 0.929 . S
H4572 C4580 0.929 . S
H4573 C4582 0.930 . S
H4574 C4584 0.930 . S
H4575 C4587 0.929 . S
H4576 C4590 0.930 . S
H4577 C4592 0.960 . S
H4578 C4592 0.960 . S
H4579 C4592 0.960 . S
C4580 H4572 0.929 . S
C4580 C4581 1.377 . S
C4580 C4582 1.384 . S
C4581 C4580 1.377 . S
C4581 C4587 1.390 . S
C4582 H4573 0.930 . S
C4582 C4580 1.384 . S
C4582 C4583 1.372 . S
C4583 C4582 1.372 . S
C4583 C4584 1.400 . S
C4583 C4588 1.490 . S
C4584 H4574 0.930 . S
C4584 C4583 1.400 . S
C4584 C4587 1.386 . S
H4585 C4601 0.930 . S
H4586 C4602 0.931 . S
C4587 H4575 0.929 . S
C4587 C4581 1.390 . S
C4587 C4584 1.386 . S
C4588 C4583 1.490 . S
C4588 C4590 1.395 . S
C4588 C4591 1.403 . S
H4589 C4595 0.930 . S
C4590 H4576 0.930 . S
C4590 C4588 1.395 . S
C4590 C4593 1.403 . S
C4591 C4588 1.403 . S
C4591 C4592 1.524 . S
C4591 C4595 1.400 . S
C4592 H4577 0.960 . S
C4592 H4578 0.960 . S
C4592 H4579 0.960 . S
C4592 C4591 1.524 . S
C4593 C4590 1.403 . S
C4593 C4594 1.392 . S
C4593 C4597 1.495 . S
C4594 C4593 1.392 . S
C4594 C4595 1.385 . S
C4594 C4596 1.478 . S
C4595 H4589 0.930 . S
C4595 C4591 1.400 . S
C4595 C4594 1.385 . S
C4596 C4594 1.478 . S
C4596 C4598 1.381 . S
C4596 C4602 1.383 . S
C4597 C4593 1.495 . S
C4597 H4603 0.959 . S
C4597 H4604 0.961 . S
C4597 H4605 0.960 . S
C4598 C4596 1.381 . S
C4598 C4599 1.394 . S
C4598 H4606 0.930 . S
C4599 C4598 1.394 . S
C4599 C4600 1.383 . S
C4599 H4607 0.929 . S
C4600 C4599 1.383 . S
C4600 C4601 1.377 . S
C4601 H4585 0.930 . S
C4601 C4600 1.377 . S
C4601 C4602 1.379 . S
C4602 H4586 0.931 . S
C4602 C4596 1.383 . S
C4602 C4601 1.379 . S
H4603 C4597 0.959 . S
H4604 C4597 0.961 . S
H4605 C4597 0.960 . S
H4606 C4598 0.930 . S
H4607 C4599 0.929 . S
H4608 C4616 0.929 . S
H4609 C4618 0.930 . S
H4610 C4620 0.930 . S
H4611 C4623 0.929 . S
H4612 C4626 0.930 . S
H4613 C4628 0.960 . S
H4614 C4628 0.960 . S
H4615 C4628 0.960 . S
C4616 H4608 0.929 . S
C4616 C4617 1.377 . S
C4616 C4618 1.384 . S
C4617 C4616 1.377 . S
C4617 C4623 1.390 . S
C4618 H4609 0.930 . S
C4618 C4616 1.384 . S
C4618 C4619 1.372 . S
C4619 C4618 1.372 . S
C4619 C4620 1.400 . S
C4619 C4624 1.490 . S
C4620 H4610 0.930 . S
C4620 C4619 1.400 . S
C4620 C4623 1.386 . S
H4621 C4637 0.930 . S
H4622 C4638 0.931 . S
C4623 H4611 0.929 . S
C4623 C4617 1.390 . S
C4623 C4620 1.386 . S
C4624 C4619 1.490 . S
C4624 C4626 1.395 . S
C4624 C4627 1.403 . S
H4625 C4631 0.930 . S
C4626 H4612 0.930 . S
C4626 C4624 1.395 . S
C4626 C4629 1.403 . S
C4627 C4624 1.403 . S
C4627 C4628 1.524 . S
C4627 C4631 1.400 . S
C4628 H4613 0.960 . S
C4628 H4614 0.960 . S
C4628 H4615 0.960 . S
C4628 C4627 1.524 . S
C4629 C4626 1.403 . S
C4629 C4630 1.392 . S
C4629 C4633 1.495 . S
C4630 C4629 1.392 . S
C4630 C4631 1.385 . S
C4630 C4632 1.478 . S
C4631 H4625 0.930 . S
C4631 C4627 1.400 . S
C4631 C4630 1.385 . S
C4632 C4630 1.478 . S
C4632 C4634 1.381 . S
C4632 C4638 1.383 . S
C4633 C4629 1.495 . S
C4633 H4639 0.959 . S
C4633 H4640 0.961 . S
C4633 H4641 0.960 . S
C4634 C4632 1.381 . S
C4634 C4635 1.394 . S
C4634 H4642 0.930 . S
C4635 C4634 1.394 . S
C4635 C4636 1.383 . S
C4635 H4643 0.929 . S
C4636 C4635 1.383 . S
C4636 C4637 1.377 . S
C4637 H4621 0.930 . S
C4637 C4636 1.377 . S
C4637 C4638 1.379 . S
C4638 H4622 0.931 . S
C4638 C4632 1.383 . S
C4638 C4637 1.379 . S
H4639 C4633 0.959 . S
H4640 C4633 0.961 . S
H4641 C4633 0.960 . S
H4642 C4634 0.930 . S
H4643 C4635 0.929 . S
H4644 C4652 0.929 . S
H4645 C4654 0.930 . S
H4646 C4656 0.930 . S
H4647 C4659 0.929 . S
H4648 C4662 0.930 . S
H4649 C4664 0.960 . S
H4650 C4664 0.960 . S
H4651 C4664 0.960 . S
C4652 H4644 0.929 . S
C4652 C4653 1.377 . S
C4652 C4654 1.384 . S
C4653 C4652 1.377 . S
C4653 C4659 1.390 . S
C4654 H4645 0.930 . S
C4654 C4652 1.384 . S
C4654 C4655 1.372 . S
C4655 C4654 1.372 . S
C4655 C4656 1.400 . S
C4655 C4660 1.490 . S
C4656 H4646 0.930 . S
C4656 C4655 1.400 . S
C4656 C4659 1.386 . S
H4657 C4673 0.930 . S
H4658 C4674 0.931 . S
C4659 H4647 0.929 . S
C4659 C4653 1.390 . S
C4659 C4656 1.386 . S
C4660 C4655 1.490 . S
C4660 C4662 1.395 . S
C4660 C4663 1.403 . S
H4661 C4667 0.930 . S
C4662 H4648 0.930 . S
C4662 C4660 1.395 . S
C4662 C4665 1.403 . S
C4663 C4660 1.403 . S
C4663 C4664 1.524 . S
C4663 C4667 1.400 . S
C4664 H4649 0.960 . S
C4664 H4650 0.960 . S
C4664 H4651 0.960 . S
C4664 C4663 1.524 . S
C4665 C4662 1.403 . S
C4665 C4666 1.392 . S
C4665 C4669 1.495 . S
C4666 C4665 1.392 . S
C4666 C4667 1.385 . S
C4666 C4668 1.478 . S
C4667 H4661 0.930 . S
C4667 C4663 1.400 . S
C4667 C4666 1.385 . S
C4668 C4666 1.478 . S
C4668 C4670 1.381 . S
C4668 C4674 1.383 . S
C4669 C4665 1.495 . S
C4669 H4675 0.959 . S
C4669 H4676 0.961 . S
C4669 H4677 0.960 . S
C4670 C4668 1.381 . S
C4670 C4671 1.394 . S
C4670 H4678 0.930 . S
C4671 C4670 1.394 . S
C4671 C4672 1.383 . S
C4671 H4679 0.929 . S
C4672 C4671 1.383 . S
C4672 C4673 1.377 . S
C4673 H4657 0.930 . S
C4673 C4672 1.377 . S
C4673 C4674 1.379 . S
C4674 H4658 0.931 . S
C4674 C4668 1.383 . S
C4674 C4673 1.379 . S
H4675 C4669 0.959 . S
H4676 C4669 0.961 . S
H4677 C4669 0.960 . S
H4678 C4670 0.930 . S
H4679 C4671 0.929 . S
H4680 C4688 0.929 . S
H4681 C4690 0.930 . S
H4682 C4692 0.930 . S
H4683 C4695 0.929 . S
H4684 C4698 0.930 . S
H4685 C4700 0.960 . S
H4686 C4700 0.960 . S
H4687 C4700 0.960 . S
C4688 H4680 0.929 . S
C4688 C4689 1.377 . S
C4688 C4690 1.384 . S
C4689 C4688 1.377 . S
C4689 C4695 1.390 . S
C4690 H4681 0.930 . S
C4690 C4688 1.384 . S
C4690 C4691 1.372 . S
C4691 C4690 1.372 . S
C4691 C4692 1.400 . S
C4691 C4696 1.490 . S
C4692 H4682 0.930 . S
C4692 C4691 1.400 . S
C4692 C4695 1.386 . S
H4693 C4709 0.930 . S
H4694 C4710 0.931 . S
C4695 H4683 0.929 . S
C4695 C4689 1.390 . S
C4695 C4692 1.386 . S
C4696 C4691 1.490 . S
C4696 C4698 1.395 . S
C4696 C4699 1.403 . S
H4697 C4703 0.930 . S
C4698 H4684 0.930 . S
C4698 C4696 1.395 . S
C4698 C4701 1.403 . S
C4699 C4696 1.403 . S
C4699 C4700 1.524 . S
C4699 C4703 1.400 . S
C4700 H4685 0.960 . S
C4700 H4686 0.960 . S
C4700 H4687 0.960 . S
C4700 C4699 1.524 . S
C4701 C4698 1.403 . S
C4701 C4702 1.392 . S
C4701 C4705 1.495 . S
C4702 C4701 1.392 . S
C4702 C4703 1.385 . S
C4702 C4704 1.478 . S
C4703 H4697 0.930 . S
C4703 C4699 1.400 . S
C4703 C4702 1.385 . S
C4704 C4702 1.478 . S
C4704 C4706 1.381 . S
C4704 C4710 1.383 . S
C4705 C4701 1.495 . S
C4705 H4711 0.959 . S
C4705 H4712 0.961 . S
C4705 H4713 0.960 . S
C4706 C4704 1.381 . S
C4706 C4707 1.394 . S
C4706 H4714 0.930 . S
C4707 C4706 1.394 . S
C4707 C4708 1.383 . S
C4707 H4715 0.929 . S
C4708 C4707 1.383 . S
C4708 C4709 1.377 . S
C4709 H4693 0.930 . S
C4709 C4708 1.377 . S
C4709 C4710 1.379 . S
C4710 H4694 0.931 . S
C4710 C4704 1.383 . S
C4710 C4709 1.379 . S
H4711 C4705 0.959 . S
H4712 C4705 0.961 . S
H4713 C4705 0.960 . S
H4714 C4706 0.930 . S
H4715 C4707 0.929 . S
H4716 C4724 0.929 . S
H4717 C4726 0.930 . S
H4718 C4728 0.930 . S
H4719 C4731 0.929 . S
H4720 C4734 0.930 . S
H4721 C4736 0.960 . S
H4722 C4736 0.960 . S
H4723 C4736 0.960 . S
C4724 H4716 0.929 . S
C4724 C4725 1.377 . S
C4724 C4726 1.384 . S
C4725 C4724 1.377 . S
C4725 C4731 1.390 . S
C4726 H4717 0.930 . S
C4726 C4724 1.384 . S
C4726 C4727 1.372 . S
C4727 C4726 1.372 . S
C4727 C4728 1.400 . S
C4727 C4732 1.490 . S
C4728 H4718 0.930 . S
C4728 C4727 1.400 . S
C4728 C4731 1.386 . S
H4729 C4745 0.930 . S
H4730 C4746 0.931 . S
C4731 H4719 0.929 . S
C4731 C4725 1.390 . S
C4731 C4728 1.386 . S
C4732 C4727 1.490 . S
C4732 C4734 1.395 . S
C4732 C4735 1.403 . S
H4733 C4739 0.930 . S
C4734 H4720 0.930 . S
C4734 C4732 1.395 . S
C4734 C4737 1.403 . S
C4735 C4732 1.403 . S
C4735 C4736 1.524 . S
C4735 C4739 1.400 . S
C4736 H4721 0.960 . S
C4736 H4722 0.960 . S
C4736 H4723 0.960 . S
C4736 C4735 1.524 . S
C4737 C4734 1.403 . S
C4737 C4738 1.392 . S
C4737 C4741 1.495 . S
C4738 C4737 1.392 . S
C4738 C4739 1.385 . S
C4738 C4740 1.478 . S
C4739 H4733 0.930 . S
C4739 C4735 1.400 . S
C4739 C4738 1.385 . S
C4740 C4738 1.478 . S
C4740 C4742 1.381 . S
C4740 C4746 1.383 . S
C4741 C4737 1.495 . S
C4741 H4747 0.959 . S
C4741 H4748 0.961 . S
C4741 H4749 0.960 . S
C4742 C4740 1.381 . S
C4742 C4743 1.394 . S
C4742 H4750 0.930 . S
C4743 C4742 1.394 . S
C4743 C4744 1.383 . S
C4743 H4751 0.929 . S
C4744 C4743 1.383 . S
C4744 C4745 1.377 . S
C4745 H4729 0.930 . S
C4745 C4744 1.377 . S
C4745 C4746 1.379 . S
C4746 H4730 0.931 . S
C4746 C4740 1.383 . S
C4746 C4745 1.379 . S
H4747 C4741 0.959 . S
H4748 C4741 0.961 . S
H4749 C4741 0.960 . S
H4750 C4742 0.930 . S
H4751 C4743 0.929 . S
H4752 C4760 0.929 . S
H4753 C4762 0.930 . S
H4754 C4764 0.930 . S
H4755 C4767 0.929 . S
H4756 C4770 0.930 . S
H4757 C4772 0.960 . S
H4758 C4772 0.960 . S
H4759 C4772 0.960 . S
C4760 H4752 0.929 . S
C4760 C4761 1.377 . S
C4760 C4762 1.384 . S
C4761 C4760 1.377 . S
C4761 C4767 1.390 . S
C4762 H4753 0.930 . S
C4762 C4760 1.384 . S
C4762 C4763 1.372 . S
C4763 C4762 1.372 . S
C4763 C4764 1.400 . S
C4763 C4768 1.490 . S
C4764 H4754 0.930 . S
C4764 C4763 1.400 . S
C4764 C4767 1.386 . S
H4765 C4781 0.930 . S
H4766 C4782 0.931 . S
C4767 H4755 0.929 . S
C4767 C4761 1.390 . S
C4767 C4764 1.386 . S
C4768 C4763 1.490 . S
C4768 C4770 1.395 . S
C4768 C4771 1.403 . S
H4769 C4775 0.930 . S
C4770 H4756 0.930 . S
C4770 C4768 1.395 . S
C4770 C4773 1.403 . S
C4771 C4768 1.403 . S
C4771 C4772 1.524 . S
C4771 C4775 1.400 . S
C4772 H4757 0.960 . S
C4772 H4758 0.960 . S
C4772 H4759 0.960 . S
C4772 C4771 1.524 . S
C4773 C4770 1.403 . S
C4773 C4774 1.392 . S
C4773 C4777 1.495 . S
C4774 C4773 1.392 . S
C4774 C4775 1.385 . S
C4774 C4776 1.478 . S
C4775 H4769 0.930 . S
C4775 C4771 1.400 . S
C4775 C4774 1.385 . S
C4776 C4774 1.478 . S
C4776 C4778 1.381 . S
C4776 C4782 1.383 . S
C4777 C4773 1.495 . S
C4777 H4783 0.959 . S
C4777 H4784 0.961 . S
C4777 H4785 0.960 . S
C4778 C4776 1.381 . S
C4778 C4779 1.394 . S
C4778 H4786 0.930 . S
C4779 C4778 1.394 . S
C4779 C4780 1.383 . S
C4779 H4787 0.929 . S
C4780 C4779 1.383 . S
C4780 C4781 1.377 . S
C4781 H4765 0.930 . S
C4781 C4780 1.377 . S
C4781 C4782 1.379 . S
C4782 H4766 0.931 . S
C4782 C4776 1.383 . S
C4782 C4781 1.379 . S
H4783 C4777 0.959 . S
H4784 C4777 0.961 . S
H4785 C4777 0.960 . S
H4786 C4778 0.930 . S
H4787 C4779 0.929 . S
H4788 C4796 0.929 . S
H4789 C4798 0.930 . S
H4790 C4800 0.930 . S
H4791 C4803 0.929 . S
H4792 C4806 0.930 . S
H4793 C4808 0.960 . S
H4794 C4808 0.960 . S
H4795 C4808 0.960 . S
C4796 H4788 0.929 . S
C4796 C4797 1.377 . S
C4796 C4798 1.384 . S
C4797 C4796 1.377 . S
C4797 C4803 1.390 . S
C4798 H4789 0.930 . S
C4798 C4796 1.384 . S
C4798 C4799 1.372 . S
C4799 C4798 1.372 . S
C4799 C4800 1.400 . S
C4799 C4804 1.490 . S
C4800 H4790 0.930 . S
C4800 C4799 1.400 . S
C4800 C4803 1.386 . S
H4801 C4817 0.930 . S
H4802 C4818 0.931 . S
C4803 H4791 0.929 . S
C4803 C4797 1.390 . S
C4803 C4800 1.386 . S
C4804 C4799 1.490 . S
C4804 C4806 1.395 . S
C4804 C4807 1.403 . S
H4805 C4811 0.930 . S
C4806 H4792 0.930 . S
C4806 C4804 1.395 . S
C4806 C4809 1.403 . S
C4807 C4804 1.403 . S
C4807 C4808 1.524 . S
C4807 C4811 1.400 . S
C4808 H4793 0.960 . S
C4808 H4794 0.960 . S
C4808 H4795 0.960 . S
C4808 C4807 1.524 . S
C4809 C4806 1.403 . S
C4809 C4810 1.392 . S
C4809 C4813 1.495 . S
C4810 C4809 1.392 . S
C4810 C4811 1.385 . S
C4810 C4812 1.478 . S
C4811 H4805 0.930 . S
C4811 C4807 1.400 . S
C4811 C4810 1.385 . S
C4812 C4810 1.478 . S
C4812 C4814 1.381 . S
C4812 C4818 1.383 . S
C4813 C4809 1.495 . S
C4813 H4819 0.959 . S
C4813 H4820 0.961 . S
C4813 H4821 0.960 . S
C4814 C4812 1.381 . S
C4814 C4815 1.394 . S
C4814 H4822 0.930 . S
C4815 C4814 1.394 . S
C4815 C4816 1.383 . S
C4815 H4823 0.929 . S
C4816 C4815 1.383 . S
C4816 C4817 1.377 . S
C4817 H4801 0.930 . S
C4817 C4816 1.377 . S
C4817 C4818 1.379 . S
C4818 H4802 0.931 . S
C4818 C4812 1.383 . S
C4818 C4817 1.379 . S
H4819 C4813 0.959 . S
H4820 C4813 0.961 . S
H4821 C4813 0.960 . S
H4822 C4814 0.930 . S
H4823 C4815 0.929 . S
H4824 C4832 0.929 . S
H4825 C4834 0.930 . S
H4826 C4836 0.930 . S
H4827 C4839 0.929 . S
H4828 C4842 0.930 . S
H4829 C4844 0.960 . S
H4830 C4844 0.960 . S
H4831 C4844 0.960 . S
C4832 H4824 0.929 . S
C4832 C4833 1.377 . S
C4832 C4834 1.384 . S
C4833 C4832 1.377 . S
C4833 C4839 1.390 . S
C4834 H4825 0.930 . S
C4834 C4832 1.384 . S
C4834 C4835 1.372 . S
C4835 C4834 1.372 . S
C4835 C4836 1.400 . S
C4835 C4840 1.490 . S
C4836 H4826 0.930 . S
C4836 C4835 1.400 . S
C4836 C4839 1.386 . S
H4837 C4853 0.930 . S
H4838 C4854 0.931 . S
C4839 H4827 0.929 . S
C4839 C4833 1.390 . S
C4839 C4836 1.386 . S
C4840 C4835 1.490 . S
C4840 C4842 1.395 . S
C4840 C4843 1.403 . S
H4841 C4847 0.930 . S
C4842 H4828 0.930 . S
C4842 C4840 1.395 . S
C4842 C4845 1.403 . S
C4843 C4840 1.403 . S
C4843 C4844 1.524 . S
C4843 C4847 1.400 . S
C4844 H4829 0.960 . S
C4844 H4830 0.960 . S
C4844 H4831 0.960 . S
C4844 C4843 1.524 . S
C4845 C4842 1.403 . S
C4845 C4846 1.392 . S
C4845 C4849 1.495 . S
C4846 C4845 1.392 . S
C4846 C4847 1.385 . S
C4846 C4848 1.478 . S
C4847 H4841 0.930 . S
C4847 C4843 1.400 . S
C4847 C4846 1.385 . S
C4848 C4846 1.478 . S
C4848 C4850 1.381 . S
C4848 C4854 1.383 . S
C4849 C4845 1.495 . S
C4849 H4855 0.959 . S
C4849 H4856 0.961 . S
C4849 H4857 0.960 . S
C4850 C4848 1.381 . S
C4850 C4851 1.394 . S
C4850 H4858 0.930 . S
C4851 C4850 1.394 . S
C4851 C4852 1.383 . S
C4851 H4859 0.929 . S
C4852 C4851 1.383 . S
C4852 C4853 1.377 . S
C4853 H4837 0.930 . S
C4853 C4852 1.377 . S
C4853 C4854 1.379 . S
C4854 H4838 0.931 . S
C4854 C4848 1.383 . S
C4854 C4853 1.379 . S
H4855 C4849 0.959 . S
H4856 C4849 0.961 . S
H4857 C4849 0.960 . S
H4858 C4850 0.930 . S
H4859 C4851 0.929 . S
H4860 C4868 0.929 . S
H4861 C4870 0.930 . S
H4862 C4872 0.933 . S
H4863 C4875 0.948 . S
H4864 C4878 0.930 . S
H4865 C4880 0.960 . S
H4866 C4880 0.960 . S
H4867 C4880 0.960 . S
C4868 H4860 0.929 . S
C4868 C4869 1.377 . S
C4868 C4870 1.384 . S
C4869 C4868 1.377 . S
C4869 C4875 1.375 1_554 S
C4870 H4861 0.930 . S
C4870 C4868 1.384 . S
C4870 C4871 1.372 . S
C4871 C4870 1.372 . S
C4871 C4872 1.397 1_554 S
C4871 C4876 1.490 . S
C4872 H4862 0.933 . S
C4872 C4871 1.397 1_556 S
C4872 C4875 1.385 . S
H4873 C4889 0.929 . S
H4874 C4890 0.931 . S
C4875 H4863 0.948 . S
C4875 C4869 1.375 1_556 S
C4875 C4872 1.385 . S
C4876 C4871 1.490 . S
C4876 C4878 1.395 . S
C4876 C4879 1.403 1_554 S
H4877 C4883 0.930 . S
C4878 H4864 0.930 . S
C4878 C4876 1.395 . S
C4878 C4881 1.403 . S
C4879 C4876 1.403 1_556 S
C4879 C4880 1.524 . S
C4879 C4883 1.400 . S
C4880 H4865 0.960 . S
C4880 H4866 0.960 . S
C4880 H4867 0.960 . S
C4880 C4879 1.524 . S
C4881 C4878 1.403 . S
C4881 C4882 1.392 . S
C4881 C4885 1.495 . S
C4882 C4881 1.392 . S
C4882 C4883 1.385 1_554 S
C4882 C4884 1.478 . S
C4883 H4877 0.930 . S
C4883 C4879 1.400 . S
C4883 C4882 1.385 1_556 S
C4884 C4882 1.478 . S
C4884 C4886 1.381 . S
C4884 C4890 1.383 . S
C4885 C4881 1.495 . S
C4885 H4891 0.959 . S
C4885 H4892 0.961 . S
C4885 H4893 0.960 . S
C4886 C4884 1.381 . S
C4886 C4887 1.394 . S
C4886 H4894 0.930 . S
C4887 C4886 1.394 . S
C4887 C4888 1.383 . S
C4887 H4895 0.929 . S
C4888 C4887 1.383 . S
C4888 C4889 1.377 . S
C4889 H4873 0.929 . S
C4889 C4888 1.377 . S
C4889 C4890 1.379 . S
C4890 H4874 0.931 . S
C4890 C4884 1.383 . S
C4890 C4889 1.379 . S
H4891 C4885 0.959 . S
H4892 C4885 0.961 . S
H4893 C4885 0.960 . S
H4894 C4886 0.930 . S
H4895 C4887 0.929 . S
H4896 C4904 0.929 . S
H4897 C4906 0.930 . S
H4898 C4908 0.930 . S
H4899 C4911 0.929 . S
H4900 C4914 0.930 . S
H4901 C4916 0.960 . S
H4902 C4916 0.960 . S
H4903 C4916 0.960 . S
C4904 H4896 0.929 . S
C4904 C4905 1.377 . S
C4904 C4906 1.384 . S
C4905 C4904 1.377 . S
C4905 C4911 1.390 . S
C4906 H4897 0.930 . S
C4906 C4904 1.384 . S
C4906 C4907 1.372 . S
C4907 C4906 1.372 . S
C4907 C4908 1.400 . S
C4907 C4912 1.490 . S
C4908 H4898 0.930 . S
C4908 C4907 1.400 . S
C4908 C4911 1.386 . S
H4909 C4925 0.930 . S
H4910 C4926 0.931 . S
C4911 H4899 0.929 . S
C4911 C4905 1.390 . S
C4911 C4908 1.386 . S
C4912 C4907 1.490 . S
C4912 C4914 1.395 . S
C4912 C4915 1.403 . S
H4913 C4919 0.930 . S
C4914 H4900 0.930 . S
C4914 C4912 1.395 . S
C4914 C4917 1.403 . S
C4915 C4912 1.403 . S
C4915 C4916 1.524 . S
C4915 C4919 1.400 . S
C4916 H4901 0.960 . S
C4916 H4902 0.960 . S
C4916 H4903 0.960 . S
C4916 C4915 1.524 . S
C4917 C4914 1.403 . S
C4917 C4918 1.392 . S
C4917 C4921 1.495 . S
C4918 C4917 1.392 . S
C4918 C4919 1.385 . S
C4918 C4920 1.478 . S
C4919 H4913 0.930 . S
C4919 C4915 1.400 . S
C4919 C4918 1.385 . S
C4920 C4918 1.478 . S
C4920 C4922 1.381 . S
C4920 C4926 1.383 . S
C4921 C4917 1.495 . S
C4921 H4927 0.959 . S
C4921 H4928 0.961 . S
C4921 H4929 0.960 . S
C4922 C4920 1.381 . S
C4922 C4923 1.394 . S
C4922 H4930 0.930 . S
C4923 C4922 1.394 . S
C4923 C4924 1.383 . S
C4923 H4931 0.929 . S
C4924 C4923 1.383 . S
C4924 C4925 1.377 . S
C4925 H4909 0.930 . S
C4925 C4924 1.377 . S
C4925 C4926 1.379 . S
C4926 H4910 0.931 . S
C4926 C4920 1.383 . S
C4926 C4925 1.379 . S
H4927 C4921 0.959 . S
H4928 C4921 0.961 . S
H4929 C4921 0.960 . S
H4930 C4922 0.930 . S
H4931 C4923 0.929 . S
H4932 C4940 0.929 . S
H4933 C4942 0.930 . S
H4934 C4944 0.930 . S
H4935 C4947 0.929 . S
H4936 C4950 0.930 . S
H4937 C4952 0.960 . S
H4938 C4952 0.960 . S
H4939 C4952 0.960 . S
C4940 H4932 0.929 . S
C4940 C4941 1.377 . S
C4940 C4942 1.384 . S
C4941 C4940 1.377 . S
C4941 C4947 1.390 1_554 S
C4942 H4933 0.930 . S
C4942 C4940 1.384 . S
C4942 C4943 1.372 . S
C4943 C4942 1.372 . S
C4943 C4944 1.400 1_554 S
C4943 C4948 1.490 . S
C4944 H4934 0.930 . S
C4944 C4943 1.400 1_556 S
C4944 C4947 1.386 . S
H4945 C4961 0.930 . S
H4946 C4962 0.931 . S
C4947 H4935 0.929 . S
C4947 C4941 1.390 1_556 S
C4947 C4944 1.386 . S
C4948 C4943 1.490 . S
C4948 C4950 1.395 1_554 S
C4948 C4951 1.403 . S
H4949 C4955 0.930 . S
C4950 H4936 0.930 . S
C4950 C4948 1.395 1_556 S
C4950 C4953 1.403 . S
C4951 C4948 1.403 . S
C4951 C4952 1.524 . S
C4951 C4955 1.400 . S
C4952 H4937 0.960 . S
C4952 H4938 0.960 . S
C4952 H4939 0.960 . S
C4952 C4951 1.524 . S
C4953 C4950 1.403 . S
C4953 C4954 1.392 . S
C4953 C4957 1.495 . S
C4954 C4953 1.392 . S
C4954 C4955 1.385 1_556 S
C4954 C4956 1.478 . S
C4955 H4949 0.930 . S
C4955 C4951 1.400 . S
C4955 C4954 1.385 1_554 S
C4956 C4954 1.478 . S
C4956 C4958 1.381 1_556 S
C4956 C4962 1.383 . S
C4957 C4953 1.495 . S
C4957 H4963 0.959 . S
C4957 H4964 0.961 . S
C4957 H4965 0.960 . S
C4958 C4956 1.381 1_554 S
C4958 C4959 1.394 . S
C4958 H4966 0.930 . S
C4959 C4958 1.394 . S
C4959 C4960 1.383 1_554 S
C4959 H4967 0.929 . S
C4960 C4959 1.383 1_556 S
C4960 C4961 1.377 . S
C4961 H4945 0.930 . S
C4961 C4960 1.377 . S
C4961 C4962 1.379 . S
C4962 H4946 0.931 . S
C4962 C4956 1.383 . S
C4962 C4961 1.379 . S
H4963 C4957 0.959 . S
H4964 C4957 0.961 . S
H4965 C4957 0.960 . S
H4966 C4958 0.930 . S
H4967 C4959 0.929 . S
H4968 C4976 0.929 . S
H4969 C4978 0.930 . S
H4970 C4980 0.930 . S
H4971 C4983 0.929 . S
H4972 C4986 0.930 . S
H4973 C4988 0.960 . S
H4974 C4988 0.960 . S
H4975 C4988 0.960 . S
C4976 H4968 0.929 . S
C4976 C4977 1.377 . S
C4976 C4978 1.384 . S
C4977 C4976 1.377 . S
C4977 C4983 1.390 . S
C4978 H4969 0.930 . S
C4978 C4976 1.384 . S
C4978 C4979 1.372 . S
C4979 C4978 1.372 . S
C4979 C4980 1.400 . S
C4979 C4984 1.490 . S
C4980 H4970 0.930 . S
C4980 C4979 1.400 . S
C4980 C4983 1.386 . S
H4981 C4997 0.930 . S
H4982 C4998 0.931 . S
C4983 H4971 0.929 . S
C4983 C4977 1.390 . S
C4983 C4980 1.386 . S
C4984 C4979 1.490 . S
C4984 C4986 1.395 . S
C4984 C4987 1.403 . S
H4985 C4991 0.930 . S
C4986 H4972 0.930 . S
C4986 C4984 1.395 . S
C4986 C4989 1.403 . S
C4987 C4984 1.403 . S
C4987 C4988 1.524 . S
C4987 C4991 1.400 . S
C4988 H4973 0.960 . S
C4988 H4974 0.960 . S
C4988 H4975 0.960 . S
C4988 C4987 1.524 . S
C4989 C4986 1.403 . S
C4989 C4990 1.392 . S
C4989 C4993 1.495 . S
C4990 C4989 1.392 . S
C4990 C4991 1.385 . S
C4990 C4992 1.478 . S
C4991 H4985 0.930 . S
C4991 C4987 1.400 . S
C4991 C4990 1.385 . S
C4992 C4990 1.478 . S
C4992 C4994 1.381 . S
C4992 C4998 1.383 . S
C4993 C4989 1.495 . S
C4993 H4999 0.959 . S
C4993 H5000 0.961 . S
C4993 H5001 0.960 . S
C4994 C4992 1.381 . S
C4994 C4995 1.394 . S
C4994 H5002 0.930 . S
C4995 C4994 1.394 . S
C4995 C4996 1.383 . S
C4995 H5003 0.929 . S
C4996 C4995 1.383 . S
C4996 C4997 1.377 . S
C4997 H4981 0.930 . S
C4997 C4996 1.377 . S
C4997 C4998 1.379 . S
C4998 H4982 0.931 . S
C4998 C4992 1.383 . S
C4998 C4997 1.379 . S
H4999 C4993 0.959 . S
H5000 C4993 0.961 . S
H5001 C4993 0.960 . S
H5002 C4994 0.930 . S
H5003 C4995 0.929 . S
H5004 C5012 0.929 . S
H5005 C5014 0.930 . S
H5006 C5016 0.930 . S
H5007 C5019 0.929 . S
H5008 C5022 0.930 . S
H5009 C5024 0.960 . S
H5010 C5024 0.960 . S
H5011 C5024 0.960 . S
C5012 H5004 0.929 . S
C5012 C5013 1.377 . S
C5012 C5014 1.384 . S
C5013 C5012 1.377 . S
C5013 C5019 1.390 . S
C5014 H5005 0.930 . S
C5014 C5012 1.384 . S
C5014 C5015 1.372 . S
C5015 C5014 1.372 . S
C5015 C5016 1.400 . S
C5015 C5020 1.490 . S
C5016 H5006 0.930 . S
C5016 C5015 1.400 . S
C5016 C5019 1.386 . S
H5017 C5033 0.930 . S
H5018 C5034 0.931 . S
C5019 H5007 0.929 . S
C5019 C5013 1.390 . S
C5019 C5016 1.386 . S
C5020 C5015 1.490 . S
C5020 C5022 1.395 . S
C5020 C5023 1.403 . S
H5021 C5027 0.930 . S
C5022 H5008 0.930 . S
C5022 C5020 1.395 . S
C5022 C5025 1.403 . S
C5023 C5020 1.403 . S
C5023 C5024 1.524 . S
C5023 C5027 1.400 . S
C5024 H5009 0.960 . S
C5024 H5010 0.960 . S
C5024 H5011 0.960 . S
C5024 C5023 1.524 . S
C5025 C5022 1.403 . S
C5025 C5026 1.392 . S
C5025 C5029 1.495 . S
C5026 C5025 1.392 . S
C5026 C5027 1.385 . S
C5026 C5028 1.478 . S
C5027 H5021 0.930 . S
C5027 C5023 1.400 . S
C5027 C5026 1.385 . S
C5028 C5026 1.478 . S
C5028 C5030 1.381 . S
C5028 C5034 1.383 . S
C5029 C5025 1.495 . S
C5029 H5035 0.959 . S
C5029 H5036 0.961 . S
C5029 H5037 0.960 . S
C5030 C5028 1.381 . S
C5030 C5031 1.394 . S
C5030 H5038 0.930 . S
C5031 C5030 1.394 . S
C5031 C5032 1.383 . S
C5031 H5039 0.929 . S
C5032 C5031 1.383 . S
C5032 C5033 1.377 . S
C5033 H5017 0.930 . S
C5033 C5032 1.377 . S
C5033 C5034 1.379 . S
C5034 H5018 0.931 . S
C5034 C5028 1.383 . S
C5034 C5033 1.379 . S
H5035 C5029 0.959 . S
H5036 C5029 0.961 . S
H5037 C5029 0.960 . S
H5038 C5030 0.930 . S
H5039 C5031 0.929 . S
H5040 C5048 0.929 . S
H5041 C5050 0.930 . S
H5042 C5052 0.930 . S
H5043 C5055 0.929 . S
H5044 C5058 0.930 . S
H5045 C5060 0.960 . S
H5046 C5060 0.960 . S
H5047 C5060 0.960 . S
C5048 H5040 0.929 . S
C5048 C5049 1.377 . S
C5048 C5050 1.384 . S
C5049 C5048 1.377 . S
C5049 C5055 1.390 . S
C5050 H5041 0.930 . S
C5050 C5048 1.384 . S
C5050 C5051 1.372 . S
C5051 C5050 1.372 . S
C5051 C5052 1.400 . S
C5051 C5056 1.490 . S
C5052 H5042 0.930 . S
C5052 C5051 1.400 . S
C5052 C5055 1.386 . S
H5053 C5069 0.930 . S
H5054 C5070 0.931 . S
C5055 H5043 0.929 . S
C5055 C5049 1.390 . S
C5055 C5052 1.386 . S
C5056 C5051 1.490 . S
C5056 C5058 1.395 . S
C5056 C5059 1.403 . S
H5057 C5063 0.930 . S
C5058 H5044 0.930 . S
C5058 C5056 1.395 . S
C5058 C5061 1.403 . S
C5059 C5056 1.403 . S
C5059 C5060 1.524 . S
C5059 C5063 1.400 . S
C5060 H5045 0.960 . S
C5060 H5046 0.960 . S
C5060 H5047 0.960 . S
C5060 C5059 1.524 . S
C5061 C5058 1.403 . S
C5061 C5062 1.392 . S
C5061 C5065 1.495 . S
C5062 C5061 1.392 . S
C5062 C5063 1.385 . S
C5062 C5064 1.478 . S
C5063 H5057 0.930 . S
C5063 C5059 1.400 . S
C5063 C5062 1.385 . S
C5064 C5062 1.478 . S
C5064 C5066 1.381 . S
C5064 C5070 1.383 . S
C5065 C5061 1.495 . S
C5065 H5071 0.959 . S
C5065 H5072 0.961 . S
C5065 H5073 0.960 . S
C5066 C5064 1.381 . S
C5066 C5067 1.394 . S
C5066 H5074 0.930 . S
C5067 C5066 1.394 . S
C5067 C5068 1.383 . S
C5067 H5075 0.929 . S
C5068 C5067 1.383 . S
C5068 C5069 1.377 . S
C5069 H5053 0.930 . S
C5069 C5068 1.377 . S
C5069 C5070 1.379 . S
C5070 H5054 0.931 . S
C5070 C5064 1.383 . S
C5070 C5069 1.379 . S
H5071 C5065 0.959 . S
H5072 C5065 0.961 . S
H5073 C5065 0.960 . S
H5074 C5066 0.930 . S
H5075 C5067 0.929 . S
H5076 C5084 0.929 . S
H5077 C5086 0.930 . S
H5078 C5088 0.930 . S
H5079 C5091 0.929 . S
H5080 C5094 0.930 . S
H5081 C5096 0.960 . S
H5082 C5096 0.960 . S
H5083 C5096 0.960 . S
C5084 H5076 0.929 . S
C5084 C5085 1.377 . S
C5084 C5086 1.384 . S
C5085 C5084 1.377 . S
C5085 C5091 1.390 . S
C5086 H5077 0.930 . S
C5086 C5084 1.384 . S
C5086 C5087 1.372 . S
C5087 C5086 1.372 . S
C5087 C5088 1.400 . S
C5087 C5092 1.490 . S
C5088 H5078 0.930 . S
C5088 C5087 1.400 . S
C5088 C5091 1.386 . S
H5089 C5105 0.930 . S
H5090 C5106 0.931 . S
C5091 H5079 0.929 . S
C5091 C5085 1.390 . S
C5091 C5088 1.386 . S
C5092 C5087 1.490 . S
C5092 C5094 1.395 . S
C5092 C5095 1.403 . S
H5093 C5099 0.930 . S
C5094 H5080 0.930 . S
C5094 C5092 1.395 . S
C5094 C5097 1.403 . S
C5095 C5092 1.403 . S
C5095 C5096 1.524 . S
C5095 C5099 1.400 . S
C5096 H5081 0.960 . S
C5096 H5082 0.960 . S
C5096 H5083 0.960 . S
C5096 C5095 1.524 . S
C5097 C5094 1.403 . S
C5097 C5098 1.392 . S
C5097 C5101 1.495 . S
C5098 C5097 1.392 . S
C5098 C5099 1.385 . S
C5098 C5100 1.478 . S
C5099 H5093 0.930 . S
C5099 C5095 1.400 . S
C5099 C5098 1.385 . S
C5100 C5098 1.478 . S
C5100 C5102 1.381 . S
C5100 C5106 1.383 . S
C5101 C5097 1.495 . S
C5101 H5107 0.959 . S
C5101 H5108 0.961 . S
C5101 H5109 0.960 . S
C5102 C5100 1.381 . S
C5102 C5103 1.394 . S
C5102 H5110 0.930 . S
C5103 C5102 1.394 . S
C5103 C5104 1.383 . S
C5103 H5111 0.929 . S
C5104 C5103 1.383 . S
C5104 C5105 1.377 . S
C5105 H5089 0.930 . S
C5105 C5104 1.377 . S
C5105 C5106 1.379 . S
C5106 H5090 0.931 . S
C5106 C5100 1.383 . S
C5106 C5105 1.379 . S
H5107 C5101 0.959 . S
H5108 C5101 0.961 . S
H5109 C5101 0.960 . S
H5110 C5102 0.930 . S
H5111 C5103 0.929 . S
H5112 C5120 0.929 . S
H5113 C5122 0.930 . S
H5114 C5124 0.930 . S
H5115 C5127 0.929 . S
H5116 C5130 0.930 . S
H5117 C5132 0.960 . S
H5118 C5132 0.960 1_655 S
H5119 C5132 0.960 . S
C5120 H5112 0.929 . S
C5120 C5121 1.377 1_655 S
C5120 C5122 1.384 . S
C5121 C5120 1.377 1_455 S
C5121 C5127 1.390 . S
C5122 H5113 0.930 . S
C5122 C5120 1.384 . S
C5122 C5123 1.372 1_655 S
C5123 C5122 1.372 1_455 S
C5123 C5124 1.400 . S
C5123 C5128 1.490 . S
C5124 H5114 0.930 . S
C5124 C5123 1.400 . S
C5124 C5127 1.386 . S
H5125 C5141 0.930 . S
H5126 C5142 0.931 . S
C5127 H5115 0.929 . S
C5127 C5121 1.390 . S
C5127 C5124 1.386 . S
C5128 C5123 1.490 . S
C5128 C5130 1.395 1_455 S
C5128 C5131 1.403 . S
H5129 C5135 0.930 . S
C5130 H5116 0.930 . S
C5130 C5128 1.395 1_655 S
C5130 C5133 1.403 . S
C5131 C5128 1.403 . S
C5131 C5132 1.524 . S
C5131 C5135 1.400 . S
C5132 H5117 0.960 . S
C5132 H5118 0.960 1_455 S
C5132 H5119 0.960 . S
C5132 C5131 1.524 . S
C5133 C5130 1.403 . S
C5133 C5134 1.392 . S
C5133 C5137 1.495 . S
C5134 C5133 1.392 . S
C5134 C5135 1.385 1_655 S
C5134 C5136 1.478 . S
C5135 H5129 0.930 . S
C5135 C5131 1.400 . S
C5135 C5134 1.385 1_455 S
C5136 C5134 1.478 . S
C5136 C5138 1.381 . S
C5136 C5142 1.383 1_655 S
C5137 C5133 1.495 . S
C5137 H5143 0.959 . S
C5137 H5144 0.961 1_655 S
C5137 H5145 0.960 . S
C5138 C5136 1.381 . S
C5138 C5139 1.394 . S
C5138 H5146 0.930 . S
C5139 C5138 1.394 . S
C5139 C5140 1.383 . S
C5139 H5147 0.929 . S
C5140 C5139 1.383 . S
C5140 C5141 1.377 1_655 S
C5141 H5125 0.930 . S
C5141 C5140 1.377 1_455 S
C5141 C5142 1.379 . S
C5142 H5126 0.931 . S
C5142 C5136 1.383 1_455 S
C5142 C5141 1.379 . S
H5143 C5137 0.959 . S
H5144 C5137 0.961 1_455 S
H5145 C5137 0.960 . S
H5146 C5138 0.930 . S
H5147 C5139 0.929 . S
H5148 C5156 0.929 . S
H5149 C5158 0.930 . S
H5150 C5160 0.930 . S
H5151 C5163 0.929 . S
H5152 C5166 0.930 . S
H5153 C5168 0.960 . S
H5154 C5168 0.960 . S
H5155 C5168 0.960 . S
C5156 H5148 0.929 . S
C5156 C5157 1.377 . S
C5156 C5158 1.384 . S
C5157 C5156 1.377 . S
C5157 C5163 1.390 . S
C5158 H5149 0.930 . S
C5158 C5156 1.384 . S
C5158 C5159 1.372 . S
C5159 C5158 1.372 . S
C5159 C5160 1.400 . S
C5159 C5164 1.490 . S
C5160 H5150 0.930 . S
C5160 C5159 1.400 . S
C5160 C5163 1.386 . S
H5161 C5177 0.930 . S
H5162 C5178 0.931 . S
C5163 H5151 0.929 . S
C5163 C5157 1.390 . S
C5163 C5160 1.386 . S
C5164 C5159 1.490 . S
C5164 C5166 1.395 . S
C5164 C5167 1.403 . S
H5165 C5171 0.930 . S
C5166 H5152 0.930 . S
C5166 C5164 1.395 . S
C5166 C5169 1.403 . S
C5167 C5164 1.403 . S
C5167 C5168 1.524 . S
C5167 C5171 1.400 . S
C5168 H5153 0.960 . S
C5168 H5154 0.960 . S
C5168 H5155 0.960 . S
C5168 C5167 1.524 . S
C5169 C5166 1.403 . S
C5169 C5170 1.392 . S
C5169 C5173 1.495 . S
C5170 C5169 1.392 . S
C5170 C5171 1.385 . S
C5170 C5172 1.478 . S
C5171 H5165 0.930 . S
C5171 C5167 1.400 . S
C5171 C5170 1.385 . S
C5172 C5170 1.478 . S
C5172 C5174 1.381 . S
C5172 C5178 1.383 . S
C5173 C5169 1.495 . S
C5173 H5179 0.959 . S
C5173 H5180 0.961 . S
C5173 H5181 0.960 . S
C5174 C5172 1.381 . S
C5174 C5175 1.394 . S
C5174 H5182 0.930 . S
C5175 C5174 1.394 . S
C5175 C5176 1.383 . S
C5175 H5183 0.929 . S
C5176 C5175 1.383 . S
C5176 C5177 1.377 . S
C5177 H5161 0.930 . S
C5177 C5176 1.377 . S
C5177 C5178 1.379 . S
C5178 H5162 0.931 . S
C5178 C5172 1.383 . S
C5178 C5177 1.379 . S
H5179 C5173 0.959 . S
H5180 C5173 0.961 . S
H5181 C5173 0.960 . S
H5182 C5174 0.930 . S
H5183 C5175 0.929 . S
H5184 C5192 0.929 . S
H5185 C5194 0.930 . S
H5186 C5196 0.930 . S
H5187 C5199 0.929 . S
H5188 C5202 0.930 . S
H5189 C5204 0.960 . S
H5190 C5204 0.960 . S
H5191 C5204 0.960 . S
C5192 H5184 0.929 . S
C5192 C5193 1.377 . S
C5192 C5194 1.384 . S
C5193 C5192 1.377 . S
C5193 C5199 1.390 . S
C5194 H5185 0.930 . S
C5194 C5192 1.384 . S
C5194 C5195 1.372 . S
C5195 C5194 1.372 . S
C5195 C5196 1.400 . S
C5195 C5200 1.490 . S
C5196 H5186 0.930 . S
C5196 C5195 1.400 . S
C5196 C5199 1.386 . S
H5197 C5213 0.930 . S
H5198 C5214 0.931 . S
C5199 H5187 0.929 . S
C5199 C5193 1.390 . S
C5199 C5196 1.386 . S
C5200 C5195 1.490 . S
C5200 C5202 1.395 . S
C5200 C5203 1.403 . S
H5201 C5207 0.930 . S
C5202 H5188 0.930 . S
C5202 C5200 1.395 . S
C5202 C5205 1.403 . S
C5203 C5200 1.403 . S
C5203 C5204 1.524 . S
C5203 C5207 1.400 . S
C5204 H5189 0.960 . S
C5204 H5190 0.960 . S
C5204 H5191 0.960 . S
C5204 C5203 1.524 . S
C5205 C5202 1.403 . S
C5205 C5206 1.392 . S
C5205 C5209 1.495 . S
C5206 C5205 1.392 . S
C5206 C5207 1.385 . S
C5206 C5208 1.478 . S
C5207 H5201 0.930 . S
C5207 C5203 1.400 . S
C5207 C5206 1.385 . S
C5208 C5206 1.478 . S
C5208 C5210 1.381 . S
C5208 C5214 1.383 . S
C5209 C5205 1.495 . S
C5209 H5215 0.959 . S
C5209 H5216 0.961 . S
C5209 H5217 0.960 . S
C5210 C5208 1.381 . S
C5210 C5211 1.394 . S
C5210 H5218 0.930 . S
C5211 C5210 1.394 . S
C5211 C5212 1.383 . S
C5211 H5219 0.929 . S
C5212 C5211 1.383 . S
C5212 C5213 1.377 . S
C5213 H5197 0.930 . S
C5213 C5212 1.377 . S
C5213 C5214 1.379 . S
C5214 H5198 0.931 . S
C5214 C5208 1.383 . S
C5214 C5213 1.379 . S
H5215 C5209 0.959 . S
H5216 C5209 0.961 . S
H5217 C5209 0.960 . S
H5218 C5210 0.930 . S
H5219 C5211 0.929 . S
H5220 C5228 0.929 . S
H5221 C5230 0.930 . S
H5222 C5232 0.930 . S
H5223 C5235 0.929 . S
H5224 C5238 0.930 . S
H5225 C5240 0.960 . S
H5226 C5240 0.960 . S
H5227 C5240 0.960 . S
C5228 H5220 0.929 . S
C5228 C5229 1.377 . S
C5228 C5230 1.384 . S
C5229 C5228 1.377 . S
C5229 C5235 1.390 . S
C5230 H5221 0.930 . S
C5230 C5228 1.384 . S
C5230 C5231 1.372 . S
C5231 C5230 1.372 . S
C5231 C5232 1.400 . S
C5231 C5236 1.490 . S
C5232 H5222 0.930 . S
C5232 C5231 1.400 . S
C5232 C5235 1.386 . S
H5233 C5249 0.930 . S
H5234 C5250 0.931 . S
C5235 H5223 0.929 . S
C5235 C5229 1.390 . S
C5235 C5232 1.386 . S
C5236 C5231 1.490 . S
C5236 C5238 1.395 . S
C5236 C5239 1.403 . S
H5237 C5243 0.930 . S
C5238 H5224 0.930 . S
C5238 C5236 1.395 . S
C5238 C5241 1.403 . S
C5239 C5236 1.403 . S
C5239 C5240 1.524 . S
C5239 C5243 1.400 . S
C5240 H5225 0.960 . S
C5240 H5226 0.960 . S
C5240 H5227 0.960 . S
C5240 C5239 1.524 . S
C5241 C5238 1.403 . S
C5241 C5242 1.392 . S
C5241 C5245 1.495 . S
C5242 C5241 1.392 . S
C5242 C5243 1.385 . S
C5242 C5244 1.478 . S
C5243 H5237 0.930 . S
C5243 C5239 1.400 . S
C5243 C5242 1.385 . S
C5244 C5242 1.478 . S
C5244 C5246 1.381 . S
C5244 C5250 1.383 . S
C5245 C5241 1.495 . S
C5245 H5251 0.959 . S
C5245 H5252 0.961 . S
C5245 H5253 0.960 . S
C5246 C5244 1.381 . S
C5246 C5247 1.394 . S
C5246 H5254 0.930 . S
C5247 C5246 1.394 . S
C5247 C5248 1.383 . S
C5247 H5255 0.929 . S
C5248 C5247 1.383 . S
C5248 C5249 1.377 . S
C5249 H5233 0.930 . S
C5249 C5248 1.377 . S
C5249 C5250 1.379 . S
C5250 H5234 0.931 . S
C5250 C5244 1.383 . S
C5250 C5249 1.379 . S
H5251 C5245 0.959 . S
H5252 C5245 0.961 . S
H5253 C5245 0.960 . S
H5254 C5246 0.930 . S
H5255 C5247 0.929 . S
H5256 C5264 0.929 . S
H5257 C5266 0.930 . S
H5258 C5268 0.930 . S
H5259 C5271 0.929 . S
H5260 C5274 0.930 . S
H5261 C5276 0.960 . S
H5262 C5276 0.960 . S
H5263 C5276 0.960 . S
C5264 H5256 0.929 . S
C5264 C5265 1.377 . S
C5264 C5266 1.384 . S
C5265 C5264 1.377 . S
C5265 C5271 1.390 1_455 S
C5266 H5257 0.930 . S
C5266 C5264 1.384 . S
C5266 C5267 1.372 . S
C5267 C5266 1.372 . S
C5267 C5268 1.400 1_455 S
C5267 C5272 1.490 . S
C5268 H5258 0.930 . S
C5268 C5267 1.400 1_655 S
C5268 C5271 1.386 . S
H5269 C5285 0.930 . S
H5270 C5286 0.931 . S
C5271 H5259 0.929 . S
C5271 C5265 1.390 1_655 S
C5271 C5268 1.386 . S
C5272 C5267 1.490 . S
C5272 C5274 1.395 1_455 S
C5272 C5275 1.403 . S
H5273 C5279 0.930 . S
C5274 H5260 0.930 . S
C5274 C5272 1.395 1_655 S
C5274 C5277 1.403 . S
C5275 C5272 1.403 . S
C5275 C5276 1.524 . S
C5275 C5279 1.400 . S
C5276 H5261 0.960 . S
C5276 H5262 0.960 . S
C5276 H5263 0.960 . S
C5276 C5275 1.524 . S
C5277 C5274 1.403 . S
C5277 C5278 1.392 . S
C5277 C5281 1.495 . S
C5278 C5277 1.392 . S
C5278 C5279 1.385 1_655 S
C5278 C5280 1.478 . S
C5279 H5273 0.930 . S
C5279 C5275 1.400 . S
C5279 C5278 1.385 1_455 S
C5280 C5278 1.478 . S
C5280 C5282 1.381 1_655 S
C5280 C5286 1.383 . S
C5281 C5277 1.495 . S
C5281 H5287 0.959 . S
C5281 H5288 0.961 . S
C5281 H5289 0.960 . S
C5282 C5280 1.381 1_455 S
C5282 C5283 1.394 . S
C5282 H5290 0.930 . S
C5283 C5282 1.394 . S
C5283 C5284 1.383 1_455 S
C5283 H5291 0.929 . S
C5284 C5283 1.383 1_655 S
C5284 C5285 1.377 . S
C5285 H5269 0.930 . S
C5285 C5284 1.377 . S
C5285 C5286 1.379 . S
C5286 H5270 0.931 . S
C5286 C5280 1.383 . S
C5286 C5285 1.379 . S
H5287 C5281 0.959 . S
H5288 C5281 0.961 . S
H5289 C5281 0.960 . S
H5290 C5282 0.930 . S
H5291 C5283 0.929 . S
H5292 C5300 0.929 . S
H5293 C5302 0.930 . S
H5294 C5304 0.930 . S
H5295 C5307 0.929 . S
H5296 C5310 0.930 . S
H5297 C5312 0.960 . S
H5298 C5312 0.960 . S
H5299 C5312 0.960 . S
C5300 H5292 0.929 . S
C5300 C5301 1.377 . S
C5300 C5302 1.384 . S
C5301 C5300 1.377 . S
C5301 C5307 1.390 . S
C5302 H5293 0.930 . S
C5302 C5300 1.384 . S
C5302 C5303 1.372 . S
C5303 C5302 1.372 . S
C5303 C5304 1.400 . S
C5303 C5308 1.490 . S
C5304 H5294 0.930 . S
C5304 C5303 1.400 . S
C5304 C5307 1.386 . S
H5305 C5321 0.930 . S
H5306 C5322 0.931 . S
C5307 H5295 0.929 . S
C5307 C5301 1.390 . S
C5307 C5304 1.386 . S
C5308 C5303 1.490 . S
C5308 C5310 1.395 . S
C5308 C5311 1.403 . S
H5309 C5315 0.930 . S
C5310 H5296 0.930 . S
C5310 C5308 1.395 . S
C5310 C5313 1.403 . S
C5311 C5308 1.403 . S
C5311 C5312 1.524 . S
C5311 C5315 1.400 . S
C5312 H5297 0.960 . S
C5312 H5298 0.960 . S
C5312 H5299 0.960 . S
C5312 C5311 1.524 . S
C5313 C5310 1.403 . S
C5313 C5314 1.392 . S
C5313 C5317 1.495 . S
C5314 C5313 1.392 . S
C5314 C5315 1.385 . S
C5314 C5316 1.478 . S
C5315 H5309 0.930 . S
C5315 C5311 1.400 . S
C5315 C5314 1.385 . S
C5316 C5314 1.478 . S
C5316 C5318 1.381 . S
C5316 C5322 1.383 . S
C5317 C5313 1.495 . S
C5317 H5323 0.959 . S
C5317 H5324 0.961 . S
C5317 H5325 0.960 . S
C5318 C5316 1.381 . S
C5318 C5319 1.394 . S
C5318 H5326 0.930 . S
C5319 C5318 1.394 . S
C5319 C5320 1.383 . S
C5319 H5327 0.929 . S
C5320 C5319 1.383 . S
C5320 C5321 1.377 . S
C5321 H5305 0.930 . S
C5321 C5320 1.377 . S
C5321 C5322 1.379 . S
C5322 H5306 0.931 . S
C5322 C5316 1.383 . S
C5322 C5321 1.379 . S
H5323 C5317 0.959 . S
H5324 C5317 0.961 . S
H5325 C5317 0.960 . S
H5326 C5318 0.930 . S
H5327 C5319 0.929 . S
H5328 C5336 0.929 . S
H5329 C5338 0.930 . S
H5330 C5340 0.930 . S
H5331 C5343 0.929 . S
H5332 C5346 0.930 . S
H5333 C5348 0.960 . S
H5334 C5348 0.960 . S
H5335 C5348 0.960 . S
C5336 H5328 0.929 . S
C5336 C5337 1.377 . S
C5336 C5338 1.384 . S
C5337 C5336 1.377 . S
C5337 C5343 1.390 . S
C5338 H5329 0.930 . S
C5338 C5336 1.384 . S
C5338 C5339 1.372 . S
C5339 C5338 1.372 . S
C5339 C5340 1.400 . S
C5339 C5344 1.490 . S
C5340 H5330 0.930 . S
C5340 C5339 1.400 . S
C5340 C5343 1.386 . S
H5341 C5357 0.930 . S
H5342 C5358 0.931 . S
C5343 H5331 0.929 . S
C5343 C5337 1.390 . S
C5343 C5340 1.386 . S
C5344 C5339 1.490 . S
C5344 C5346 1.395 . S
C5344 C5347 1.403 . S
H5345 C5351 0.930 . S
C5346 H5332 0.930 . S
C5346 C5344 1.395 . S
C5346 C5349 1.403 . S
C5347 C5344 1.403 . S
C5347 C5348 1.524 . S
C5347 C5351 1.400 . S
C5348 H5333 0.960 . S
C5348 H5334 0.960 . S
C5348 H5335 0.960 . S
C5348 C5347 1.524 . S
C5349 C5346 1.403 . S
C5349 C5350 1.392 . S
C5349 C5353 1.495 . S
C5350 C5349 1.392 . S
C5350 C5351 1.385 . S
C5350 C5352 1.478 . S
C5351 H5345 0.930 . S
C5351 C5347 1.400 . S
C5351 C5350 1.385 . S
C5352 C5350 1.478 . S
C5352 C5354 1.381 . S
C5352 C5358 1.383 . S
C5353 C5349 1.495 . S
C5353 H5359 0.959 . S
C5353 H5360 0.961 . S
C5353 H5361 0.960 . S
C5354 C5352 1.381 . S
C5354 C5355 1.394 . S
C5354 H5362 0.930 . S
C5355 C5354 1.394 . S
C5355 C5356 1.383 . S
C5355 H5363 0.929 . S
C5356 C5355 1.383 . S
C5356 C5357 1.377 . S
C5357 H5341 0.930 . S
C5357 C5356 1.377 . S
C5357 C5358 1.379 . S
C5358 H5342 0.931 . S
C5358 C5352 1.383 . S
C5358 C5357 1.379 . S
H5359 C5353 0.959 . S
H5360 C5353 0.961 . S
H5361 C5353 0.960 . S
H5362 C5354 0.930 . S
H5363 C5355 0.929 . S
H5364 C5372 0.929 . S
H5365 C5374 0.930 . S
H5366 C5376 0.930 . S
H5367 C5379 0.929 . S
H5368 C5382 0.930 . S
H5369 C5384 0.960 . S
H5370 C5384 0.960 . S
H5371 C5384 0.960 . S
C5372 H5364 0.929 . S
C5372 C5373 1.377 . S
C5372 C5374 1.384 . S
C5373 C5372 1.377 . S
C5373 C5379 1.390 . S
C5374 H5365 0.930 . S
C5374 C5372 1.384 . S
C5374 C5375 1.372 . S
C5375 C5374 1.372 . S
C5375 C5376 1.400 . S
C5375 C5380 1.490 . S
C5376 H5366 0.930 . S
C5376 C5375 1.400 . S
C5376 C5379 1.386 . S
H5377 C5393 0.930 . S
H5378 C5394 0.931 . S
C5379 H5367 0.929 . S
C5379 C5373 1.390 . S
C5379 C5376 1.386 . S
C5380 C5375 1.490 . S
C5380 C5382 1.395 . S
C5380 C5383 1.403 . S
H5381 C5387 0.930 . S
C5382 H5368 0.930 . S
C5382 C5380 1.395 . S
C5382 C5385 1.403 . S
C5383 C5380 1.403 . S
C5383 C5384 1.524 . S
C5383 C5387 1.400 . S
C5384 H5369 0.960 . S
C5384 H5370 0.960 . S
C5384 H5371 0.960 . S
C5384 C5383 1.524 . S
C5385 C5382 1.403 . S
C5385 C5386 1.392 . S
C5385 C5389 1.495 . S
C5386 C5385 1.392 . S
C5386 C5387 1.385 . S
C5386 C5388 1.478 . S
C5387 H5381 0.930 . S
C5387 C5383 1.400 . S
C5387 C5386 1.385 . S
C5388 C5386 1.478 . S
C5388 C5390 1.381 . S
C5388 C5394 1.383 . S
C5389 C5385 1.495 . S
C5389 H5395 0.959 . S
C5389 H5396 0.961 . S
C5389 H5397 0.960 . S
C5390 C5388 1.381 . S
C5390 C5391 1.394 . S
C5390 H5398 0.930 . S
C5391 C5390 1.394 . S
C5391 C5392 1.383 . S
C5391 H5399 0.929 . S
C5392 C5391 1.383 . S
C5392 C5393 1.377 . S
C5393 H5377 0.930 . S
C5393 C5392 1.377 . S
C5393 C5394 1.379 . S
C5394 H5378 0.931 . S
C5394 C5388 1.383 . S
C5394 C5393 1.379 . S
H5395 C5389 0.959 . S
H5396 C5389 0.961 . S
H5397 C5389 0.960 . S
H5398 C5390 0.930 . S
H5399 C5391 0.929 . S
H5400 C5408 0.929 . S
H5401 C5410 0.930 . S
H5402 C5412 0.930 . S
H5403 C5415 0.929 . S
H5404 C5418 0.930 . S
H5405 C5420 0.960 . S
H5406 C5420 0.960 . S
H5407 C5420 0.960 . S
C5408 H5400 0.929 . S
C5408 C5409 1.377 . S
C5408 C5410 1.384 . S
C5409 C5408 1.377 . S
C5409 C5415 1.390 . S
C5410 H5401 0.930 . S
C5410 C5408 1.384 . S
C5410 C5411 1.372 . S
C5411 C5410 1.372 . S
C5411 C5412 1.400 . S
C5411 C5416 1.490 . S
C5412 H5402 0.930 . S
C5412 C5411 1.400 . S
C5412 C5415 1.386 . S
H5413 C5429 0.930 . S
H5414 C5430 0.931 . S
C5415 H5403 0.929 . S
C5415 C5409 1.390 . S
C5415 C5412 1.386 . S
C5416 C5411 1.490 . S
C5416 C5418 1.395 . S
C5416 C5419 1.403 . S
H5417 C5423 0.930 . S
C5418 H5404 0.930 . S
C5418 C5416 1.395 . S
C5418 C5421 1.403 . S
C5419 C5416 1.403 . S
C5419 C5420 1.524 . S
C5419 C5423 1.400 . S
C5420 H5405 0.960 . S
C5420 H5406 0.960 . S
C5420 H5407 0.960 . S
C5420 C5419 1.524 . S
C5421 C5418 1.403 . S
C5421 C5422 1.392 . S
C5421 C5425 1.495 . S
C5422 C5421 1.392 . S
C5422 C5423 1.385 . S
C5422 C5424 1.478 . S
C5423 H5417 0.930 . S
C5423 C5419 1.400 . S
C5423 C5422 1.385 . S
C5424 C5422 1.478 . S
C5424 C5426 1.381 . S
C5424 C5430 1.383 . S
C5425 C5421 1.495 . S
C5425 H5431 0.959 . S
C5425 H5432 0.961 . S
C5425 H5433 0.960 . S
C5426 C5424 1.381 . S
C5426 C5427 1.394 . S
C5426 H5434 0.930 . S
C5427 C5426 1.394 . S
C5427 C5428 1.383 . S
C5427 H5435 0.929 . S
C5428 C5427 1.383 . S
C5428 C5429 1.377 . S
C5429 H5413 0.930 . S
C5429 C5428 1.377 . S
C5429 C5430 1.379 . S
C5430 H5414 0.931 . S
C5430 C5424 1.383 . S
C5430 C5429 1.379 . S
H5431 C5425 0.959 . S
H5432 C5425 0.961 . S
H5433 C5425 0.960 . S
H5434 C5426 0.930 . S
H5435 C5427 0.929 . S
H5436 C5444 0.929 . S
H5437 C5446 0.930 . S
H5438 C5448 0.930 . S
H5439 C5451 0.929 . S
H5440 C5454 0.930 . S
H5441 C5456 0.960 . S
H5442 C5456 0.960 . S
H5443 C5456 0.960 . S
C5444 H5436 0.929 . S
C5444 C5445 1.377 . S
C5444 C5446 1.384 . S
C5445 C5444 1.377 . S
C5445 C5451 1.390 . S
C5446 H5437 0.930 . S
C5446 C5444 1.384 . S
C5446 C5447 1.372 . S
C5447 C5446 1.372 . S
C5447 C5448 1.400 . S
C5447 C5452 1.490 . S
C5448 H5438 0.930 . S
C5448 C5447 1.400 . S
C5448 C5451 1.386 . S
H5449 C5465 0.930 . S
H5450 C5466 0.931 . S
C5451 H5439 0.929 . S
C5451 C5445 1.390 . S
C5451 C5448 1.386 . S
C5452 C5447 1.490 . S
C5452 C5454 1.395 . S
C5452 C5455 1.403 . S
H5453 C5459 0.930 . S
C5454 H5440 0.930 . S
C5454 C5452 1.395 . S
C5454 C5457 1.403 . S
C5455 C5452 1.403 . S
C5455 C5456 1.524 . S
C5455 C5459 1.400 . S
C5456 H5441 0.960 . S
C5456 H5442 0.960 . S
C5456 H5443 0.960 . S
C5456 C5455 1.524 . S
C5457 C5454 1.403 . S
C5457 C5458 1.392 . S
C5457 C5461 1.495 . S
C5458 C5457 1.392 . S
C5458 C5459 1.385 . S
C5458 C5460 1.478 . S
C5459 H5453 0.930 . S
C5459 C5455 1.400 . S
C5459 C5458 1.385 . S
C5460 C5458 1.478 . S
C5460 C5462 1.381 . S
C5460 C5466 1.383 . S
C5461 C5457 1.495 . S
C5461 H5467 0.959 . S
C5461 H5468 0.961 . S
C5461 H5469 0.960 . S
C5462 C5460 1.381 . S
C5462 C5463 1.394 . S
C5462 H5470 0.930 . S
C5463 C5462 1.394 . S
C5463 C5464 1.383 . S
C5463 H5471 0.929 . S
C5464 C5463 1.383 . S
C5464 C5465 1.377 . S
C5465 H5449 0.930 . S
C5465 C5464 1.377 . S
C5465 C5466 1.379 . S
C5466 H5450 0.931 . S
C5466 C5460 1.383 . S
C5466 C5465 1.379 . S
H5467 C5461 0.959 . S
H5468 C5461 0.961 . S
H5469 C5461 0.960 . S
H5470 C5462 0.930 . S
H5471 C5463 0.929 . S
H5472 C5480 0.929 . S
H5473 C5482 0.930 . S
H5474 C5484 0.930 . S
H5475 C5487 0.929 . S
H5476 C5490 0.930 . S
H5477 C5492 0.960 . S
H5478 C5492 0.960 . S
H5479 C5492 0.960 . S
C5480 H5472 0.929 . S
C5480 C5481 1.377 . S
C5480 C5482 1.384 . S
C5481 C5480 1.377 . S
C5481 C5487 1.390 . S
C5482 H5473 0.930 . S
C5482 C5480 1.384 . S
C5482 C5483 1.372 . S
C5483 C5482 1.372 . S
C5483 C5484 1.400 . S
C5483 C5488 1.490 . S
C5484 H5474 0.930 . S
C5484 C5483 1.400 . S
C5484 C5487 1.386 . S
H5485 C5501 0.930 . S
H5486 C5502 0.931 . S
C5487 H5475 0.929 . S
C5487 C5481 1.390 . S
C5487 C5484 1.386 . S
C5488 C5483 1.490 . S
C5488 C5490 1.395 . S
C5488 C5491 1.403 . S
H5489 C5495 0.930 . S
C5490 H5476 0.930 . S
C5490 C5488 1.395 . S
C5490 C5493 1.403 . S
C5491 C5488 1.403 . S
C5491 C5492 1.524 . S
C5491 C5495 1.400 . S
C5492 H5477 0.960 . S
C5492 H5478 0.960 . S
C5492 H5479 0.960 . S
C5492 C5491 1.524 . S
C5493 C5490 1.403 . S
C5493 C5494 1.392 . S
C5493 C5497 1.495 . S
C5494 C5493 1.392 . S
C5494 C5495 1.385 . S
C5494 C5496 1.478 . S
C5495 H5489 0.930 . S
C5495 C5491 1.400 . S
C5495 C5494 1.385 . S
C5496 C5494 1.478 . S
C5496 C5498 1.381 . S
C5496 C5502 1.383 . S
C5497 C5493 1.495 . S
C5497 H5503 0.959 . S
C5497 H5504 0.961 . S
C5497 H5505 0.960 . S
C5498 C5496 1.381 . S
C5498 C5499 1.394 . S
C5498 H5506 0.930 . S
C5499 C5498 1.394 . S
C5499 C5500 1.383 . S
C5499 H5507 0.929 . S
C5500 C5499 1.383 . S
C5500 C5501 1.377 . S
C5501 H5485 0.930 . S
C5501 C5500 1.377 . S
C5501 C5502 1.379 . S
C5502 H5486 0.931 . S
C5502 C5496 1.383 . S
C5502 C5501 1.379 . S
H5503 C5497 0.959 . S
H5504 C5497 0.961 . S
H5505 C5497 0.960 . S
H5506 C5498 0.930 . S
H5507 C5499 0.929 . S
H5508 C5516 0.929 . S
H5509 C5518 0.930 . S
H5510 C5520 0.930 . S
H5511 C5523 0.929 . S
H5512 C5526 0.930 . S
H5513 C5528 0.960 . S
H5514 C5528 0.960 . S
H5515 C5528 0.960 . S
C5516 H5508 0.929 . S
C5516 C5517 1.377 . S
C5516 C5518 1.384 . S
C5517 C5516 1.377 . S
C5517 C5523 1.390 . S
C5518 H5509 0.930 . S
C5518 C5516 1.384 . S
C5518 C5519 1.372 . S
C5519 C5518 1.372 . S
C5519 C5520 1.400 . S
C5519 C5524 1.490 . S
C5520 H5510 0.930 . S
C5520 C5519 1.400 . S
C5520 C5523 1.386 . S
H5521 C5537 0.930 . S
H5522 C5538 0.931 . S
C5523 H5511 0.929 . S
C5523 C5517 1.390 . S
C5523 C5520 1.386 . S
C5524 C5519 1.490 . S
C5524 C5526 1.395 . S
C5524 C5527 1.403 . S
H5525 C5531 0.930 . S
C5526 H5512 0.930 . S
C5526 C5524 1.395 . S
C5526 C5529 1.403 . S
C5527 C5524 1.403 . S
C5527 C5528 1.524 . S
C5527 C5531 1.400 . S
C5528 H5513 0.960 . S
C5528 H5514 0.960 . S
C5528 H5515 0.960 . S
C5528 C5527 1.524 . S
C5529 C5526 1.403 . S
C5529 C5530 1.392 . S
C5529 C5533 1.495 . S
C5530 C5529 1.392 . S
C5530 C5531 1.385 . S
C5530 C5532 1.478 . S
C5531 H5525 0.930 . S
C5531 C5527 1.400 . S
C5531 C5530 1.385 . S
C5532 C5530 1.478 . S
C5532 C5534 1.381 . S
C5532 C5538 1.383 . S
C5533 C5529 1.495 . S
C5533 H5539 0.959 . S
C5533 H5540 0.961 . S
C5533 H5541 0.960 . S
C5534 C5532 1.381 . S
C5534 C5535 1.394 . S
C5534 H5542 0.930 . S
C5535 C5534 1.394 . S
C5535 C5536 1.383 . S
C5535 H5543 0.929 . S
C5536 C5535 1.383 . S
C5536 C5537 1.377 . S
C5537 H5521 0.930 . S
C5537 C5536 1.377 . S
C5537 C5538 1.379 . S
C5538 H5522 0.931 . S
C5538 C5532 1.383 . S
C5538 C5537 1.379 . S
H5539 C5533 0.959 . S
H5540 C5533 0.961 . S
H5541 C5533 0.960 . S
H5542 C5534 0.930 . S
H5543 C5535 0.929 . S
H5544 C5552 0.929 . S
H5545 C5554 0.930 . S
H5546 C5556 0.930 . S
H5547 C5559 0.929 . S
H5548 C5562 0.930 . S
H5549 C5564 0.960 . S
H5550 C5564 0.960 . S
H5551 C5564 0.960 . S
C5552 H5544 0.929 . S
C5552 C5553 1.377 . S
C5552 C5554 1.384 . S
C5553 C5552 1.377 . S
C5553 C5559 1.390 . S
C5554 H5545 0.930 . S
C5554 C5552 1.384 . S
C5554 C5555 1.372 . S
C5555 C5554 1.372 . S
C5555 C5556 1.400 . S
C5555 C5560 1.490 . S
C5556 H5546 0.930 . S
C5556 C5555 1.400 . S
C5556 C5559 1.386 . S
H5557 C5573 0.930 . S
H5558 C5574 0.931 . S
C5559 H5547 0.929 . S
C5559 C5553 1.390 . S
C5559 C5556 1.386 . S
C5560 C5555 1.490 . S
C5560 C5562 1.395 . S
C5560 C5563 1.403 . S
H5561 C5567 0.930 . S
C5562 H5548 0.930 . S
C5562 C5560 1.395 . S
C5562 C5565 1.403 . S
C5563 C5560 1.403 . S
C5563 C5564 1.524 . S
C5563 C5567 1.400 . S
C5564 H5549 0.960 . S
C5564 H5550 0.960 . S
C5564 H5551 0.960 . S
C5564 C5563 1.524 . S
C5565 C5562 1.403 . S
C5565 C5566 1.392 . S
C5565 C5569 1.495 . S
C5566 C5565 1.392 . S
C5566 C5567 1.385 . S
C5566 C5568 1.478 . S
C5567 H5561 0.930 . S
C5567 C5563 1.400 . S
C5567 C5566 1.385 . S
C5568 C5566 1.478 . S
C5568 C5570 1.381 . S
C5568 C5574 1.383 . S
C5569 C5565 1.495 . S
C5569 H5575 0.959 . S
C5569 H5576 0.961 . S
C5569 H5577 0.960 . S
C5570 C5568 1.381 . S
C5570 C5571 1.394 . S
C5570 H5578 0.930 . S
C5571 C5570 1.394 . S
C5571 C5572 1.383 . S
C5571 H5579 0.929 . S
C5572 C5571 1.383 . S
C5572 C5573 1.377 . S
C5573 H5557 0.930 . S
C5573 C5572 1.377 . S
C5573 C5574 1.379 . S
C5574 H5558 0.931 . S
C5574 C5568 1.383 . S
C5574 C5573 1.379 . S
H5575 C5569 0.959 . S
H5576 C5569 0.961 . S
H5577 C5569 0.960 . S
H5578 C5570 0.930 . S
H5579 C5571 0.929 . S
H5580 C5588 0.929 . S
H5581 C5590 0.930 . S
H5582 C5592 0.930 . S
H5583 C5595 0.929 . S
H5584 C5598 0.930 . S
H5585 C5600 0.960 . S
H5586 C5600 0.960 . S
H5587 C5600 0.960 . S
C5588 H5580 0.929 . S
C5588 C5589 1.377 . S
C5588 C5590 1.384 . S
C5589 C5588 1.377 . S
C5589 C5595 1.390 . S
C5590 H5581 0.930 . S
C5590 C5588 1.384 . S
C5590 C5591 1.372 . S
C5591 C5590 1.372 . S
C5591 C5592 1.400 . S
C5591 C5596 1.490 . S
C5592 H5582 0.930 . S
C5592 C5591 1.400 . S
C5592 C5595 1.386 . S
H5593 C5609 0.930 . S
H5594 C5610 0.931 . S
C5595 H5583 0.929 . S
C5595 C5589 1.390 . S
C5595 C5592 1.386 . S
C5596 C5591 1.490 . S
C5596 C5598 1.395 . S
C5596 C5599 1.403 . S
H5597 C5603 0.930 . S
C5598 H5584 0.930 . S
C5598 C5596 1.395 . S
C5598 C5601 1.403 . S
C5599 C5596 1.403 . S
C5599 C5600 1.524 . S
C5599 C5603 1.400 . S
C5600 H5585 0.960 . S
C5600 H5586 0.960 . S
C5600 H5587 0.960 . S
C5600 C5599 1.524 . S
C5601 C5598 1.403 . S
C5601 C5602 1.392 . S
C5601 C5605 1.495 . S
C5602 C5601 1.392 . S
C5602 C5603 1.385 . S
C5602 C5604 1.478 . S
C5603 H5597 0.930 . S
C5603 C5599 1.400 . S
C5603 C5602 1.385 . S
C5604 C5602 1.478 . S
C5604 C5606 1.381 . S
C5604 C5610 1.383 . S
C5605 C5601 1.495 . S
C5605 H5611 0.959 . S
C5605 H5612 0.961 . S
C5605 H5613 0.960 . S
C5606 C5604 1.381 . S
C5606 C5607 1.394 . S
C5606 H5614 0.930 . S
C5607 C5606 1.394 . S
C5607 C5608 1.383 . S
C5607 H5615 0.929 . S
C5608 C5607 1.383 . S
C5608 C5609 1.377 . S
C5609 H5593 0.930 . S
C5609 C5608 1.377 . S
C5609 C5610 1.379 . S
C5610 H5594 0.931 . S
C5610 C5604 1.383 . S
C5610 C5609 1.379 . S
H5611 C5605 0.959 . S
H5612 C5605 0.961 . S
H5613 C5605 0.960 . S
H5614 C5606 0.930 . S
H5615 C5607 0.929 . S
H5616 C5624 0.929 . S
H5617 C5626 0.930 . S
H5618 C5628 0.930 . S
H5619 C5631 0.929 . S
H5620 C5634 0.930 . S
H5621 C5636 0.960 . S
H5622 C5636 0.960 . S
H5623 C5636 0.960 . S
C5624 H5616 0.929 . S
C5624 C5625 1.377 . S
C5624 C5626 1.384 . S
C5625 C5624 1.377 . S
C5625 C5631 1.390 . S
C5626 H5617 0.930 . S
C5626 C5624 1.384 . S
C5626 C5627 1.372 . S
C5627 C5626 1.372 . S
C5627 C5628 1.400 . S
C5627 C5632 1.490 . S
C5628 H5618 0.930 . S
C5628 C5627 1.400 . S
C5628 C5631 1.386 . S
H5629 C5645 0.930 . S
H5630 C5646 0.931 . S
C5631 H5619 0.929 . S
C5631 C5625 1.390 . S
C5631 C5628 1.386 . S
C5632 C5627 1.490 . S
C5632 C5634 1.395 . S
C5632 C5635 1.403 . S
H5633 C5639 0.930 . S
C5634 H5620 0.930 . S
C5634 C5632 1.395 . S
C5634 C5637 1.403 . S
C5635 C5632 1.403 . S
C5635 C5636 1.524 . S
C5635 C5639 1.400 . S
C5636 H5621 0.960 . S
C5636 H5622 0.960 . S
C5636 H5623 0.960 . S
C5636 C5635 1.524 . S
C5637 C5634 1.403 . S
C5637 C5638 1.392 . S
C5637 C5641 1.495 . S
C5638 C5637 1.392 . S
C5638 C5639 1.385 . S
C5638 C5640 1.478 . S
C5639 H5633 0.930 . S
C5639 C5635 1.400 . S
C5639 C5638 1.385 . S
C5640 C5638 1.478 . S
C5640 C5642 1.381 . S
C5640 C5646 1.383 . S
C5641 C5637 1.495 . S
C5641 H5647 0.959 . S
C5641 H5648 0.961 . S
C5641 H5649 0.960 . S
C5642 C5640 1.381 . S
C5642 C5643 1.394 . S
C5642 H5650 0.930 . S
C5643 C5642 1.394 . S
C5643 C5644 1.383 . S
C5643 H5651 0.929 . S
C5644 C5643 1.383 . S
C5644 C5645 1.377 . S
C5645 H5629 0.930 . S
C5645 C5644 1.377 . S
C5645 C5646 1.379 . S
C5646 H5630 0.931 . S
C5646 C5640 1.383 . S
C5646 C5645 1.379 . S
H5647 C5641 0.959 . S
H5648 C5641 0.961 . S
H5649 C5641 0.960 . S
H5650 C5642 0.930 . S
H5651 C5643 0.929 . S
H5652 C5660 0.929 . S
H5653 C5662 0.930 . S
H5654 C5664 0.930 . S
H5655 C5667 0.929 . S
H5656 C5670 0.930 . S
H5657 C5672 0.960 . S
H5658 C5672 0.960 . S
H5659 C5672 0.960 . S
C5660 H5652 0.929 . S
C5660 C5661 1.377 . S
C5660 C5662 1.384 . S
C5661 C5660 1.377 . S
C5661 C5667 1.390 . S
C5662 H5653 0.930 . S
C5662 C5660 1.384 . S
C5662 C5663 1.372 . S
C5663 C5662 1.372 . S
C5663 C5664 1.400 . S
C5663 C5668 1.490 . S
C5664 H5654 0.930 . S
C5664 C5663 1.400 . S
C5664 C5667 1.386 . S
H5665 C5681 0.930 . S
H5666 C5682 0.931 . S
C5667 H5655 0.929 . S
C5667 C5661 1.390 . S
C5667 C5664 1.386 . S
C5668 C5663 1.490 . S
C5668 C5670 1.395 . S
C5668 C5671 1.403 . S
H5669 C5675 0.930 . S
C5670 H5656 0.930 . S
C5670 C5668 1.395 . S
C5670 C5673 1.403 . S
C5671 C5668 1.403 . S
C5671 C5672 1.524 . S
C5671 C5675 1.400 . S
C5672 H5657 0.960 . S
C5672 H5658 0.960 . S
C5672 H5659 0.960 . S
C5672 C5671 1.524 . S
C5673 C5670 1.403 . S
C5673 C5674 1.392 . S
C5673 C5677 1.495 . S
C5674 C5673 1.392 . S
C5674 C5675 1.385 . S
C5674 C5676 1.478 . S
C5675 H5669 0.930 . S
C5675 C5671 1.400 . S
C5675 C5674 1.385 . S
C5676 C5674 1.478 . S
C5676 C5678 1.381 . S
C5676 C5682 1.383 . S
C5677 C5673 1.495 . S
C5677 H5683 0.959 . S
C5677 H5684 0.961 . S
C5677 H5685 0.960 . S
C5678 C5676 1.381 . S
C5678 C5679 1.394 . S
C5678 H5686 0.930 . S
C5679 C5678 1.394 . S
C5679 C5680 1.383 . S
C5679 H5687 0.929 . S
C5680 C5679 1.383 . S
C5680 C5681 1.377 . S
C5681 H5665 0.930 . S
C5681 C5680 1.377 . S
C5681 C5682 1.379 . S
C5682 H5666 0.931 . S
C5682 C5676 1.383 . S
C5682 C5681 1.379 . S
H5683 C5677 0.959 . S
H5684 C5677 0.961 . S
H5685 C5677 0.960 . S
H5686 C5678 0.930 . S
H5687 C5679 0.929 . S
H5688 C5696 0.929 . S
H5689 C5698 0.930 . S
H5690 C5700 0.930 . S
H5691 C5703 0.929 . S
H5692 C5706 0.930 . S
H5693 C5708 0.960 . S
H5694 C5708 0.960 . S
H5695 C5708 0.960 . S
C5696 H5688 0.929 . S
C5696 C5697 1.377 . S
C5696 C5698 1.384 . S
C5697 C5696 1.377 . S
C5697 C5703 1.390 . S
C5698 H5689 0.930 . S
C5698 C5696 1.384 . S
C5698 C5699 1.372 . S
C5699 C5698 1.372 . S
C5699 C5700 1.400 . S
C5699 C5704 1.490 . S
C5700 H5690 0.930 . S
C5700 C5699 1.400 . S
C5700 C5703 1.386 . S
H5701 C5717 0.930 . S
H5702 C5718 0.931 . S
C5703 H5691 0.929 . S
C5703 C5697 1.390 . S
C5703 C5700 1.386 . S
C5704 C5699 1.490 . S
C5704 C5706 1.395 . S
C5704 C5707 1.403 . S
H5705 C5711 0.930 . S
C5706 H5692 0.930 . S
C5706 C5704 1.395 . S
C5706 C5709 1.403 . S
C5707 C5704 1.403 . S
C5707 C5708 1.524 . S
C5707 C5711 1.400 . S
C5708 H5693 0.960 . S
C5708 H5694 0.960 . S
C5708 H5695 0.960 . S
C5708 C5707 1.524 . S
C5709 C5706 1.403 . S
C5709 C5710 1.392 . S
C5709 C5713 1.495 . S
C5710 C5709 1.392 . S
C5710 C5711 1.385 . S
C5710 C5712 1.478 . S
C5711 H5705 0.930 . S
C5711 C5707 1.400 . S
C5711 C5710 1.385 . S
C5712 C5710 1.478 . S
C5712 C5714 1.381 . S
C5712 C5718 1.383 . S
C5713 C5709 1.495 . S
C5713 H5719 0.959 . S
C5713 H5720 0.961 . S
C5713 H5721 0.960 . S
C5714 C5712 1.381 . S
C5714 C5715 1.394 . S
C5714 H5722 0.930 . S
C5715 C5714 1.394 . S
C5715 C5716 1.383 . S
C5715 H5723 0.929 . S
C5716 C5715 1.383 . S
C5716 C5717 1.377 . S
C5717 H5701 0.930 . S
C5717 C5716 1.377 . S
C5717 C5718 1.379 . S
C5718 H5702 0.931 . S
C5718 C5712 1.383 . S
C5718 C5717 1.379 . S
H5719 C5713 0.959 . S
H5720 C5713 0.961 . S
H5721 C5713 0.960 . S
H5722 C5714 0.930 . S
H5723 C5715 0.929 . S
H5724 C5732 0.929 . S
H5725 C5734 0.925 1_556 S
H5726 C5736 0.930 . S
H5727 C5739 0.929 . S
H5728 C5742 0.930 . S
H5729 C5744 0.960 . S
H5730 C5744 0.960 . S
H5731 C5744 0.960 . S
C5732 H5724 0.929 . S
C5732 C5733 1.377 . S
C5732 C5734 1.384 . S
C5733 C5732 1.377 . S
C5733 C5739 1.390 . S
C5734 H5725 0.925 1_554 S
C5734 C5732 1.384 . S
C5734 C5735 1.372 . S
C5735 C5734 1.372 . S
C5735 C5736 1.400 . S
C5735 C5740 1.490 . S
C5736 H5726 0.930 . S
C5736 C5735 1.400 . S
C5736 C5739 1.386 . S
H5737 C5753 0.930 . S
H5738 C5754 0.931 . S
C5739 H5727 0.929 . S
C5739 C5733 1.390 . S
C5739 C5736 1.386 . S
C5740 C5735 1.490 . S
C5740 C5742 1.395 1_554 S
C5740 C5743 1.403 . S
H5741 C5747 0.930 . S
C5742 H5728 0.930 . S
C5742 C5740 1.395 1_556 S
C5742 C5745 1.403 . S
C5743 C5740 1.403 . S
C5743 C5744 1.524 . S
C5743 C5747 1.400 . S
C5744 H5729 0.960 . S
C5744 H5730 0.960 . S
C5744 H5731 0.960 . S
C5744 C5743 1.524 . S
C5745 C5742 1.403 . S
C5745 C5746 1.392 . S
C5745 C5749 1.495 . S
C5746 C5745 1.392 . S
C5746 C5747 1.385 1_556 S
C5746 C5748 1.478 . S
C5747 H5741 0.930 . S
C5747 C5743 1.400 . S
C5747 C5746 1.385 1_554 S
C5748 C5746 1.478 . S
C5748 C5750 1.381 . S
C5748 C5754 1.383 . S
C5749 C5745 1.495 . S
C5749 H5755 0.959 . S
C5749 H5756 0.961 . S
C5749 H5757 0.960 . S
C5750 C5748 1.381 . S
C5750 C5751 1.394 . S
C5750 H5758 0.930 . S
C5751 C5750 1.394 . S
C5751 C5752 1.383 . S
C5751 H5759 0.929 1_565 S
C5752 C5751 1.383 . S
C5752 C5753 1.377 . S
C5753 H5737 0.930 . S
C5753 C5752 1.377 . S
C5753 C5754 1.379 . S
C5754 H5738 0.931 . S
C5754 C5748 1.383 . S
C5754 C5753 1.379 . S
H5755 C5749 0.959 . S
H5756 C5749 0.961 . S
H5757 C5749 0.960 . S
H5758 C5750 0.930 . S
H5759 C5751 0.929 1_545 S
H5760 C5768 0.929 . S
H5761 C5770 0.930 . S
H5762 C5772 0.930 . S
H5763 C5775 0.929 . S
H5764 C5778 0.930 . S
H5765 C5780 0.960 . S
H5766 C5780 0.960 . S
H5767 C5780 0.960 . S
C5768 H5760 0.929 . S
C5768 C5769 1.377 . S
C5768 C5770 1.384 . S
C5769 C5768 1.377 . S
C5769 C5775 1.390 . S
C5770 H5761 0.930 . S
C5770 C5768 1.384 . S
C5770 C5771 1.372 . S
C5771 C5770 1.372 . S
C5771 C5772 1.400 . S
C5771 C5776 1.490 . S
C5772 H5762 0.930 . S
C5772 C5771 1.400 . S
C5772 C5775 1.386 . S
H5773 C5789 0.930 . S
H5774 C5790 0.931 . S
C5775 H5763 0.929 . S
C5775 C5769 1.390 . S
C5775 C5772 1.386 . S
C5776 C5771 1.490 . S
C5776 C5778 1.395 . S
C5776 C5779 1.403 . S
H5777 C5783 0.930 . S
C5778 H5764 0.930 . S
C5778 C5776 1.395 . S
C5778 C5781 1.403 . S
C5779 C5776 1.403 . S
C5779 C5780 1.524 . S
C5779 C5783 1.400 . S
C5780 H5765 0.960 . S
C5780 H5766 0.960 . S
C5780 H5767 0.960 . S
C5780 C5779 1.524 . S
C5781 C5778 1.403 . S
C5781 C5782 1.392 . S
C5781 C5785 1.495 . S
C5782 C5781 1.392 . S
C5782 C5783 1.385 . S
C5782 C5784 1.478 . S
C5783 H5777 0.930 . S
C5783 C5779 1.400 . S
C5783 C5782 1.385 . S
C5784 C5782 1.478 . S
C5784 C5786 1.381 . S
C5784 C5790 1.383 . S
C5785 C5781 1.495 . S
C5785 H5791 0.959 . S
C5785 H5792 0.961 . S
C5785 H5793 0.960 . S
C5786 C5784 1.381 . S
C5786 C5787 1.394 . S
C5786 H5794 0.930 . S
C5787 C5786 1.394 . S
C5787 C5788 1.383 . S
C5787 H5795 0.929 . S
C5788 C5787 1.383 . S
C5788 C5789 1.377 . S
C5789 H5773 0.930 . S
C5789 C5788 1.377 . S
C5789 C5790 1.379 . S
C5790 H5774 0.931 . S
C5790 C5784 1.383 . S
C5790 C5789 1.379 . S
H5791 C5785 0.959 . S
H5792 C5785 0.961 . S
H5793 C5785 0.960 . S
H5794 C5786 0.930 . S
H5795 C5787 0.929 . S
H5796 C5804 0.929 . S
H5797 C5806 0.930 . S
H5798 C5808 0.930 . S
H5799 C5811 0.929 . S
H5800 C5814 0.930 . S
H5801 C5816 0.960 . S
H5802 C5816 0.960 . S
H5803 C5816 0.960 . S
C5804 H5796 0.929 . S
C5804 C5805 1.377 1_556 S
C5804 C5806 1.384 . S
C5805 C5804 1.377 1_554 S
C5805 C5811 1.390 . S
C5806 H5797 0.930 . S
C5806 C5804 1.384 . S
C5806 C5807 1.372 1_556 S
C5807 C5806 1.372 1_554 S
C5807 C5808 1.400 . S
C5807 C5812 1.490 . S
C5808 H5798 0.930 . S
C5808 C5807 1.400 . S
C5808 C5811 1.386 . S
H5809 C5825 0.930 . S
H5810 C5826 0.931 . S
C5811 H5799 0.929 . S
C5811 C5805 1.390 . S
C5811 C5808 1.386 . S
C5812 C5807 1.490 . S
C5812 C5814 1.395 1_554 S
C5812 C5815 1.403 . S
H5813 C5819 0.930 . S
C5814 H5800 0.930 . S
C5814 C5812 1.395 1_556 S
C5814 C5817 1.403 . S
C5815 C5812 1.403 . S
C5815 C5816 1.524 . S
C5815 C5819 1.400 . S
C5816 H5801 0.960 . S
C5816 H5802 0.960 . S
C5816 H5803 0.960 . S
C5816 C5815 1.524 . S
C5817 C5814 1.403 . S
C5817 C5818 1.392 1_556 S
C5817 C5821 1.495 . S
C5818 C5817 1.392 1_554 S
C5818 C5819 1.385 . S
C5818 C5820 1.478 . S
C5819 H5813 0.930 . S
C5819 C5815 1.400 . S
C5819 C5818 1.385 . S
C5820 C5818 1.478 . S
C5820 C5822 1.381 1_554 S
C5820 C5826 1.383 . S
C5821 C5817 1.495 . S
C5821 H5827 0.959 . S
C5821 H5828 0.961 . S
C5821 H5829 0.960 . S
C5822 C5820 1.381 1_556 S
C5822 C5823 1.394 . S
C5822 H5830 0.930 . S
C5823 C5822 1.394 . S
C5823 C5824 1.383 1_556 S
C5823 H5831 0.929 . S
C5824 C5823 1.383 1_554 S
C5824 C5825 1.377 . S
C5825 H5809 0.930 . S
C5825 C5824 1.377 . S
C5825 C5826 1.379 . S
C5826 H5810 0.931 . S
C5826 C5820 1.383 . S
C5826 C5825 1.379 . S
H5827 C5821 0.959 . S
H5828 C5821 0.961 . S
H5829 C5821 0.960 . S
H5830 C5822 0.930 . S
H5831 C5823 0.929 . S
H5832 C5840 0.929 . S
H5833 C5842 0.930 . S
H5834 C5844 0.930 . S
H5835 C5847 0.929 . S
H5836 C5850 0.930 . S
H5837 C5852 0.960 . S
H5838 C5852 0.960 . S
H5839 C5852 0.960 . S
C5840 H5832 0.929 . S
C5840 C5841 1.377 . S
C5840 C5842 1.384 . S
C5841 C5840 1.377 . S
C5841 C5847 1.390 . S
C5842 H5833 0.930 . S
C5842 C5840 1.384 . S
C5842 C5843 1.372 . S
C5843 C5842 1.372 . S
C5843 C5844 1.400 . S
C5843 C5848 1.490 . S
C5844 H5834 0.930 . S
C5844 C5843 1.400 . S
C5844 C5847 1.386 . S
H5845 C5861 0.930 . S
H5846 C5862 0.931 . S
C5847 H5835 0.929 . S
C5847 C5841 1.390 . S
C5847 C5844 1.386 . S
C5848 C5843 1.490 . S
C5848 C5850 1.395 . S
C5848 C5851 1.403 . S
H5849 C5855 0.930 . S
C5850 H5836 0.930 . S
C5850 C5848 1.395 . S
C5850 C5853 1.403 . S
C5851 C5848 1.403 . S
C5851 C5852 1.524 . S
C5851 C5855 1.400 . S
C5852 H5837 0.960 . S
C5852 H5838 0.960 . S
C5852 H5839 0.960 . S
C5852 C5851 1.524 . S
C5853 C5850 1.403 . S
C5853 C5854 1.392 . S
C5853 C5857 1.495 . S
C5854 C5853 1.392 . S
C5854 C5855 1.385 . S
C5854 C5856 1.478 . S
C5855 H5849 0.930 . S
C5855 C5851 1.400 . S
C5855 C5854 1.385 . S
C5856 C5854 1.478 . S
C5856 C5858 1.381 . S
C5856 C5862 1.383 . S
C5857 C5853 1.495 . S
C5857 H5863 0.959 . S
C5857 H5864 0.961 . S
C5857 H5865 0.960 . S
C5858 C5856 1.381 . S
C5858 C5859 1.394 . S
C5858 H5866 0.930 . S
C5859 C5858 1.394 . S
C5859 C5860 1.383 . S
C5859 H5867 0.929 . S
C5860 C5859 1.383 . S
C5860 C5861 1.377 . S
C5861 H5845 0.930 . S
C5861 C5860 1.377 . S
C5861 C5862 1.379 . S
C5862 H5846 0.931 . S
C5862 C5856 1.383 . S
C5862 C5861 1.379 . S
H5863 C5857 0.959 . S
H5864 C5857 0.961 . S
H5865 C5857 0.960 . S
H5866 C5858 0.930 . S
H5867 C5859 0.929 . S
H5868 C5876 0.929 . S
H5869 C5878 0.930 . S
H5870 C5880 0.930 . S
H5871 C5883 0.929 . S
H5872 C5886 0.930 . S
H5873 C5888 0.960 . S
H5874 C5888 0.960 . S
H5875 C5888 0.960 . S
C5876 H5868 0.929 . S
C5876 C5877 1.377 . S
C5876 C5878 1.384 . S
C5877 C5876 1.377 . S
C5877 C5883 1.390 . S
C5878 H5869 0.930 . S
C5878 C5876 1.384 . S
C5878 C5879 1.372 . S
C5879 C5878 1.372 . S
C5879 C5880 1.400 . S
C5879 C5884 1.490 . S
C5880 H5870 0.930 . S
C5880 C5879 1.400 . S
C5880 C5883 1.386 . S
H5881 C5897 0.930 . S
H5882 C5898 0.931 . S
C5883 H5871 0.929 . S
C5883 C5877 1.390 . S
C5883 C5880 1.386 . S
C5884 C5879 1.490 . S
C5884 C5886 1.395 . S
C5884 C5887 1.403 . S
H5885 C5891 0.930 . S
C5886 H5872 0.930 . S
C5886 C5884 1.395 . S
C5886 C5889 1.403 . S
C5887 C5884 1.403 . S
C5887 C5888 1.524 . S
C5887 C5891 1.400 . S
C5888 H5873 0.960 . S
C5888 H5874 0.960 . S
C5888 H5875 0.960 . S
C5888 C5887 1.524 . S
C5889 C5886 1.403 . S
C5889 C5890 1.392 . S
C5889 C5893 1.495 . S
C5890 C5889 1.392 . S
C5890 C5891 1.385 . S
C5890 C5892 1.478 . S
C5891 H5885 0.930 . S
C5891 C5887 1.400 . S
C5891 C5890 1.385 . S
C5892 C5890 1.478 . S
C5892 C5894 1.381 . S
C5892 C5898 1.383 . S
C5893 C5889 1.495 . S
C5893 H5899 0.959 . S
C5893 H5900 0.961 . S
C5893 H5901 0.960 . S
C5894 C5892 1.381 . S
C5894 C5895 1.394 . S
C5894 H5902 0.930 . S
C5895 C5894 1.394 . S
C5895 C5896 1.383 . S
C5895 H5903 0.929 . S
C5896 C5895 1.383 . S
C5896 C5897 1.377 . S
C5897 H5881 0.930 . S
C5897 C5896 1.377 . S
C5897 C5898 1.379 . S
C5898 H5882 0.931 . S
C5898 C5892 1.383 . S
C5898 C5897 1.379 . S
H5899 C5893 0.959 . S
H5900 C5893 0.961 . S
H5901 C5893 0.960 . S
H5902 C5894 0.930 . S
H5903 C5895 0.929 . S
C2476 C2128 1.062 . S
C2457 C49 1.141 . S
C2493 C137 0.976 . S
C2512 C2148 0.935 . S
C2529 C205 1.096 . S
C2548 C2170 0.967 . S
C2584 C2189 1.128 . S
C2565 C284 1.194 . S
C2601 C117 1.161 . S
C2620 C2210 1.115 . S
C2656 C2233 1.130 . S
C2637 C225 1.174 . S
C2692 C2256 0.936 . S
C2673 C321 0.949 . S
C2709 C29 1.104 . S
C2728 C2274 1.050 . S
C2745 C401 1.105 . S
C2764 C2130 1.060 . S
C2781 C497 1.194 . S
C2800 C2150 1.132 . S
C2836 C2172 0.956 . S
C2817 C585 0.974 . S
C2872 C2191 1.142 . S
C2853 C665 1.191 . S
C2889 C372 1.174 . S
C2908 C2212 1.125 . S
C2944 C2235 0.929 . S
C2925 C469 0.933 . S
C2980 C2252 1.133 . S
C2961 C557 1.195 . S
C3016 C2276 1.110 . S
C2997 C636 1.110 . S
C3052 C2126 1.092 1_556 S
C3033 C673 1.108 . S
C3088 C2298 0.933 . S
C3069 C724 0.927 . S
C3105 C821 1.163 . S
C3124 C2315 1.159 . S
C3160 C2338 1.108 . S
C3141 C909 1.190 . S
C3177 C381 1.138 . S
C3196 C2272 1.011 . S
C3232 C2168 1.193 . S
C3213 C489 1.196 . S
C3249 C849 0.944 . S
C3268 C2361 0.957 . S
C3304 C2377 0.983 . S
C3285 C1017 1.098 . S
C3321 C1085 1.093 . S
C3340 C2125 0.957 . S
C3376 C2378 1.122 . S
C3357 C1201 1.114 . S
C3393 C1289 1.220 . S
C3412 C2167 1.172 . S
C3429 C1349 0.998 . S
C3448 C2358 0.965 . S
C3484 C2211 1.002 . S
C3465 C1193 1.010 . S
C3520 C2314 1.033 . S
C3501 C1281 1.180 . S
C3556 C2255 1.157 . S
C3537 C1340 1.157 . S
C3592 C2399 1.204 . S
C3573 C1076 1.214 . S
C3628 C2129 1.192 . S
C3609 C1428 1.216 . S
C3645 C1516 1.015 . S
C3664 C2382 0.966 . S
C3700 C2171 1.096 1_545 S
C3681 C1604 1.115 . S
C3717 C1701 1.135 . S
C3736 C2356 0.998 . S
C3753 C1457 1.182 . S
C3772 C2209 1.114 . S
C3789 C1545 1.158 . S
C3808 C2318 1.163 . S
C3844 C2253 0.994 . S
C3825 C1633 0.999 . S
C3861 C1729 1.088 . S
C3880 C2403 1.088 . S
C3897 C1721 1.084 . S
C3916 C2127 1.057 . S
C3933 C1789 1.164 . S
C3952 C2297 1.128 . S
C3969 C1868 1.011 . S
C3988 C2232 0.957 . S
C4005 C1956 1.134 . S
C4024 C2335 0.992 . S
C4060 C2401 1.045 . S
C4041 C1437 1.091 . S
C4096 C2169 0.942 . S
C4077 C1553 1.013 . S
C4132 C2192 1.141 . S
C4113 C1897 1.159 . S
C4168 C2149 1.071 . S
C4149 C2081 1.224 . S
C4185 C233 1.140 . S
C4204 C2422 1.069 . S
C4240 C2379 0.932 . S
C4221 C313 0.978 . S
C4276 C2443 1.038 . S
C4257 C20 1.099 . S
C4293 C108 1.197 . S
C4312 C2357 1.189 . S
C4329 C293 1.161 . S
C4348 C2294 1.137 . S
C4384 C2317 1.108 . S
C4365 C57 1.172 . S
C4420 C2340 0.904 . S
C4401 C145 0.949 . S
C4456 C2400 1.109 . S
C4437 C196 1.102 . S
C4492 C2424 1.110 . S
C4473 C1025 1.102 . S
C4509 C761 1.193 . S
C4528 C2381 1.166 . S
C4545 C841 0.973 . S
C4564 C2445 0.991 . S
C4600 C2359 1.135 . S
C4581 C929 1.190 . S
C4636 C2296 1.034 . S
C4617 C997 1.170 . S
C4653 C733 0.930 . S
C4672 C2319 0.892 . S
C4708 C2336 1.191 . S
C4689 C812 1.197 . S
C4725 C900 1.107 . S
C4744 C2402 1.065 . S
C4780 C2420 1.088 . S
C4761 C937 1.112 . S
C4816 C2214 0.887 . S
C4797 C460 0.933 . S
C4852 C2231 1.163 . S
C4833 C548 1.164 . S
C4869 C645 1.187 . S
C4888 C2254 1.043 . S
C4924 C2398 1.102 . S
C4905 C988 1.142 . S
C4941 C753 1.195 . S
C4960 C2441 1.191 . S
C4996 C2193 0.949 . S
C4977 C577 0.944 . S
C5032 C2146 1.068 . S
C5013 C409 1.101 . S
C5049 C1261 1.091 . S
C5068 C2419 1.048 . S
C5104 C2147 1.120 . S
C5085 C1377 1.113 . S
C5140 C2440 1.142 . S
C5121 C1113 1.223 . S
C5157 C1173 0.997 . S
C5176 C2190 1.003 . S
C5193 C1369 1.007 . S
C5212 C2295 0.949 . S
C5229 C1105 1.178 . S
C5248 C2230 1.133 . S
C5265 C1164 1.158 . S
C5284 C2339 1.147 . S
C5301 C1252 1.214 . S
C5320 C2273 1.205 . S
C5356 C2423 1.194 . S
C5337 C2044 1.213 . S
C5373 C1780 1.013 . S
C5392 C2151 0.995 . S
C5428 C2444 1.077 . S
C5409 C1877 1.118 . S
C5445 C1965 1.133 . S
C5464 C2188 1.067 . S
C5481 C2073 1.176 . S
C5500 C2293 1.113 . S
C5536 C2234 1.139 . S
C5517 C1809 1.159 . S
C5553 C1905 0.995 . S
C5572 C2337 0.927 . S
C5608 C2277 1.059 . S
C5589 C1993 1.085 . S
C5644 C2421 1.087 . S
C5625 C1985 1.087 . S
C5680 C2213 1.162 . S
C5661 C1525 1.158 . S
C5697 C1613 1.013 . S
C5716 C2316 1.006 . S
C5752 C2251 0.995 . S
C5733 C1692 1.135 . S
C5788 C2275 0.951 . S
C5769 C2053 1.093 . S
C5805 C1817 1.012 . S
C5824 C2442 0.945 . S
C5860 C2360 1.160 . S
C5841 C1641 1.156 . S
C5896 C2380 1.123 . S
C5877 C1465 1.224 . S
