# Generated by pormake.
# Topology ocu, (6,8)-cn, num edge types: 1
# Building blocks:
#     Node 0, Type 0, BuildingBlock: MIFKUJ_clean_sbu_0, # of connection points: 6
#     Node 1, Type 0, BuildingBlock: MIFKUJ_clean_sbu_0, # of connection points: 6
#     Node 2, Type 0, BuildingBlock: MIFKUJ_clean_sbu_0, # of connection points: 6
#     Node 3, Type 0, BuildingBlock: MIFKUJ_clean_sbu_0, # of connection points: 6
#     Node 4, Type 0, BuildingBlock: MIFKUJ_clean_sbu_0, # of connection points: 6
#     Node 5, Type 0, BuildingBlock: MIFKUJ_clean_sbu_0, # of connection points: 6
#     Node 6, Type 0, BuildingBlock: MIFKUJ_clean_sbu_0, # of connection points: 6
#     Node 7, Type 0, BuildingBlock: MIFKUJ_clean_sbu_0, # of connection points: 6
#     Node 8, Type 1, BuildingBlock: TAGTUT_clean_sbu_1, # of connection points: 8
#     Node 9, Type 1, BuildingBlock: TAGTUT_clean_sbu_1, # of connection points: 8
#     Node 10, Type 1, BuildingBlock: TAGTUT_clean_sbu_1, # of connection points: 8
#     Node 11, Type 1, BuildingBlock: TAGTUT_clean_sbu_1, # of connection points: 8
#     Node 12, Type 1, BuildingBlock: TAGTUT_clean_sbu_1, # of connection points: 8
#     Node 13, Type 1, BuildingBlock: TAGTUT_clean_sbu_1, # of connection points: 8
#     Edge 14, Type (0, 1), BuildingBlock: OJICUG_clean_linker_0, # of connection points: 2
#     Edge 15, Type (0, 1), BuildingBlock: OJICUG_clean_linker_0, # of connection points: 2
#     Edge 16, Type (0, 1), BuildingBlock: OJICUG_clean_linker_0, # of connection points: 2
#     Edge 17, Type (0, 1), BuildingBlock: OJICUG_clean_linker_0, # of connection points: 2
#     Edge 18, Type (0, 1), BuildingBlock: OJICUG_clean_linker_0, # of connection points: 2
#     Edge 19, Type (0, 1), BuildingBlock: OJICUG_clean_linker_0, # of connection points: 2
#     Edge 20, Type (0, 1), BuildingBlock: OJICUG_clean_linker_0, # of connection points: 2
#     Edge 21, Type (0, 1), BuildingBlock: OJICUG_clean_linker_0, # of connection points: 2
#     Edge 22, Type (0, 1), BuildingBlock: OJICUG_clean_linker_0, # of connection points: 2
#     Edge 23, Type (0, 1), BuildingBlock: OJICUG_clean_linker_0, # of connection points: 2
#     Edge 24, Type (0, 1), BuildingBlock: OJICUG_clean_linker_0, # of connection points: 2
#     Edge 25, Type (0, 1), BuildingBlock: OJICUG_clean_linker_0, # of connection points: 2
#     Edge 26, Type (0, 1), BuildingBlock: OJICUG_clean_linker_0, # of connection points: 2
#     Edge 27, Type (0, 1), BuildingBlock: OJICUG_clean_linker_0, # of connection points: 2
#     Edge 28, Type (0, 1), BuildingBlock: OJICUG_clean_linker_0, # of connection points: 2
#     Edge 29, Type (0, 1), BuildingBlock: OJICUG_clean_linker_0, # of connection points: 2
#     Edge 30, Type (0, 1), BuildingBlock: OJICUG_clean_linker_0, # of connection points: 2
#     Edge 31, Type (0, 1), BuildingBlock: OJICUG_clean_linker_0, # of connection points: 2
#     Edge 32, Type (0, 1), BuildingBlock: OJICUG_clean_linker_0, # of connection points: 2
#     Edge 33, Type (0, 1), BuildingBlock: OJICUG_clean_linker_0, # of connection points: 2
#     Edge 34, Type (0, 1), BuildingBlock: OJICUG_clean_linker_0, # of connection points: 2
#     Edge 35, Type (0, 1), BuildingBlock: OJICUG_clean_linker_0, # of connection points: 2
#     Edge 36, Type (0, 1), BuildingBlock: OJICUG_clean_linker_0, # of connection points: 2
#     Edge 37, Type (0, 1), BuildingBlock: OJICUG_clean_linker_0, # of connection points: 2
#     Edge 38, Type (0, 1), BuildingBlock: OJICUG_clean_linker_0, # of connection points: 2
#     Edge 39, Type (0, 1), BuildingBlock: OJICUG_clean_linker_0, # of connection points: 2
#     Edge 40, Type (0, 1), BuildingBlock: OJICUG_clean_linker_0, # of connection points: 2
#     Edge 41, Type (0, 1), BuildingBlock: OJICUG_clean_linker_0, # of connection points: 2
#     Edge 42, Type (0, 1), BuildingBlock: OJICUG_clean_linker_0, # of connection points: 2
#     Edge 43, Type (0, 1), BuildingBlock: OJICUG_clean_linker_0, # of connection points: 2
#     Edge 44, Type (0, 1), BuildingBlock: OJICUG_clean_linker_0, # of connection points: 2
#     Edge 45, Type (0, 1), BuildingBlock: OJICUG_clean_linker_0, # of connection points: 2
#     Edge 46, Type (0, 1), BuildingBlock: OJICUG_clean_linker_0, # of connection points: 2
#     Edge 47, Type (0, 1), BuildingBlock: OJICUG_clean_linker_0, # of connection points: 2
#     Edge 48, Type (0, 1), BuildingBlock: OJICUG_clean_linker_0, # of connection points: 2
#     Edge 49, Type (0, 1), BuildingBlock: OJICUG_clean_linker_0, # of connection points: 2
#     Edge 50, Type (0, 1), BuildingBlock: OJICUG_clean_linker_0, # of connection points: 2
#     Edge 51, Type (0, 1), BuildingBlock: OJICUG_clean_linker_0, # of connection points: 2
#     Edge 52, Type (0, 1), BuildingBlock: OJICUG_clean_linker_0, # of connection points: 2
#     Edge 53, Type (0, 1), BuildingBlock: OJICUG_clean_linker_0, # of connection points: 2
#     Edge 54, Type (0, 1), BuildingBlock: OJICUG_clean_linker_0, # of connection points: 2
#     Edge 55, Type (0, 1), BuildingBlock: OJICUG_clean_linker_0, # of connection points: 2
#     Edge 56, Type (0, 1), BuildingBlock: OJICUG_clean_linker_0, # of connection points: 2
#     Edge 57, Type (0, 1), BuildingBlock: OJICUG_clean_linker_0, # of connection points: 2
#     Edge 58, Type (0, 1), BuildingBlock: OJICUG_clean_linker_0, # of connection points: 2
#     Edge 59, Type (0, 1), BuildingBlock: OJICUG_clean_linker_0, # of connection points: 2
#     Edge 60, Type (0, 1), BuildingBlock: OJICUG_clean_linker_0, # of connection points: 2
#     Edge 61, Type (0, 1), BuildingBlock: OJICUG_clean_linker_0, # of connection points: 2
# Relax obj value: 0.061
# Max RMSD: 0.235
# Mean RMSD: 0.119
data_MOF--net-ocu--node1-MIFKUJ_clean_sbu_0--node2-TAGTUT_clean_sbu_1--edge1-OJICUG_clean_linker_0
_symmetry_space_group_name_H-M    P1
_symmetry_Int_Tables_number       1
_symmetry_cell_setting            triclinic
loop_
_symmetry_equiv_pos_as_xyz
'x, y, z'
_cell_length_a     30.459276
_cell_length_b     29.837679
_cell_length_c     30.41608
_cell_angle_alpha  90.57494
_cell_angle_beta   94.838263
_cell_angle_gamma 111.53516
loop_
_atom_site_label
_atom_site_type_symbol
_atom_site_fract_x
_atom_site_fract_y
_atom_site_fract_z
_atom_type_partial_charge
Zn0 Zn 0.19747 0.27197 0.22495 0.0
Zn1 Zn 0.27897 0.21684 0.2335 0.0
C2 C 0.17581 0.30494 0.30108 0.0
O3 O 0.13737 0.26928 0.28489 0.0
C4 C 0.30171 0.18617 0.15678 0.0
O5 O 0.33983 0.22185 0.17356 0.0
O6 O 0.14748 0.29182 0.1934 0.0
O7 O 0.24988 0.29414 0.17995 0.0
O8 O 0.31398 0.28711 0.2126 0.0
C9 C 0.16026 0.33724 0.19021 0.0
O10 O 0.20337 0.3651 0.20583 0.0
O11 O 0.21314 0.31579 0.28089 0.0
C12 C 0.3142 0.15022 0.26791 0.0
O13 O 0.27123 0.12347 0.25098 0.0
O14 O 0.32822 0.19582 0.26522 0.0
O15 O 0.22576 0.19284 0.27758 0.0
O16 O 0.16212 0.20264 0.24711 0.0
O17 O 0.2642 0.17445 0.17677 0.0
C18 C 0.29463 0.30418 0.18165 0.0
C19 C 0.18129 0.184 0.27681 0.0
Zn20 Zn 0.71941 0.28605 0.19533 0.0
Zn21 Zn 0.74831 0.18029 0.26097 0.0
C22 C 0.6575 0.33552 0.17502 0.0
O23 O 0.69201 0.36822 0.1999 0.0
C24 C 0.84321 0.18815 0.30027 0.0
O25 O 0.85646 0.2351 0.29742 0.0
O26 O 0.77254 0.31997 0.16153 0.0
O27 O 0.74327 0.3157 0.25668 0.0
O28 O 0.75691 0.25059 0.2752 0.0
C29 C 0.81183 0.31638 0.17466 0.0
O30 O 0.81587 0.29194 0.20928 0.0
O31 O 0.65967 0.29419 0.16897 0.0
C32 C 0.65045 0.1471 0.2742 0.0
O33 O 0.64477 0.16345 0.2352 0.0
O34 O 0.69075 0.14814 0.29034 0.0
O35 O 0.72962 0.15295 0.19811 0.0
O36 O 0.72137 0.22093 0.19217 0.0
O37 O 0.80078 0.16103 0.28767 0.0
C38 C 0.76211 0.29429 0.28384 0.0
C39 C 0.71511 0.18021 0.17463 0.0
Zn40 Zn 0.78922 0.72478 0.21811 0.0
Zn41 Zn 0.68817 0.77009 0.24213 0.0
C42 C 0.85273 0.6923 0.27124 0.0
O43 O 0.88238 0.72621 0.24936 0.0
C44 C 0.63656 0.80807 0.18668 0.0
O45 O 0.60659 0.76994 0.20375 0.0
O46 O 0.81997 0.71421 0.16609 0.0
O47 O 0.71869 0.69414 0.19463 0.0
O48 O 0.65447 0.70596 0.21152 0.0
C49 C 0.80369 0.66913 0.15643 0.0
O50 O 0.77345 0.63984 0.18136 0.0
O51 O 0.8086 0.68507 0.2653 0.0
C52 C 0.67855 0.82503 0.3081 0.0
O53 O 0.71739 0.85248 0.29144 0.0
O54 O 0.65612 0.78256 0.29164 0.0
O55 O 0.75013 0.77279 0.27285 0.0
O56 O 0.81503 0.79529 0.24119 0.0
O57 O 0.68094 0.81902 0.19746 0.0
C58 C 0.67397 0.68339 0.18929 0.0
C59 C 0.79018 0.80492 0.26857 0.0
Zn60 Zn 0.20707 0.76982 0.23646 0.0
Zn61 Zn 0.2687 0.71522 0.21437 0.0
C62 C 0.13841 0.69658 0.28019 0.0
O63 O 0.10964 0.71244 0.25624 0.0
C64 C 0.33828 0.79171 0.17441 0.0
O65 O 0.36671 0.77642 0.1995 0.0
O66 O 0.17503 0.81409 0.25596 0.0
O67 O 0.27667 0.80527 0.25394 0.0
O68 O 0.28821 0.74085 0.2776 0.0
C69 C 0.18936 0.82897 0.29594 0.0
O70 O 0.22175 0.81582 0.31689 0.0
O71 O 0.18267 0.71482 0.27632 0.0
C72 C 0.28873 0.66295 0.15144 0.0
O73 O 0.26064 0.6821 0.13112 0.0
O74 O 0.30015 0.67148 0.19281 0.0
O75 O 0.19939 0.67892 0.19709 0.0
O76 O 0.18737 0.743 0.17342 0.0
O77 O 0.29368 0.77185 0.17603 0.0
C78 C 0.29536 0.78549 0.28273 0.0
C79 C 0.18049 0.69843 0.16829 0.0
Zn80 Zn 0.24873 0.7924 0.69519 0.0
Zn81 Zn 0.21727 0.69826 0.7681 0.0
C82 C 0.16183 0.7924 0.64471 0.0
O83 O 0.16138 0.75262 0.6257 0.0
C84 C 0.30648 0.68819 0.79745 0.0
O85 O 0.319 0.73441 0.80735 0.0
O86 O 0.30531 0.83207 0.66957 0.0
O87 O 0.26969 0.81541 0.75888 0.0
O88 O 0.23885 0.75872 0.80505 0.0
C89 C 0.34367 0.82662 0.68253 0.0
O90 O 0.34427 0.79458 0.71159 0.0
O91 O 0.19522 0.81488 0.67417 0.0
C92 C 0.1387 0.61976 0.7768 0.0
O93 O 0.1588 0.60082 0.74932 0.0
O94 O 0.16192 0.66073 0.79538 0.0
O95 O 0.18362 0.68802 0.70721 0.0
O96 O 0.23878 0.72686 0.66581 0.0
O97 O 0.26519 0.66518 0.77833 0.0
C98 C 0.26263 0.80211 0.79791 0.0
C99 C 0.20244 0.69027 0.67157 0.0
Zn100 Zn 0.28498 0.22621 0.7121 0.0
Zn101 Zn 0.17657 0.25124 0.74547 0.0
C102 C 0.34331 0.19673 0.77168 0.0
O103 O 0.37295 0.2349 0.75438 0.0
C104 C 0.12362 0.28364 0.68257 0.0
O105 O 0.09253 0.24403 0.69641 0.0
O106 O 0.31254 0.21259 0.65868 0.0
O107 O 0.21711 0.21506 0.69385 0.0
O108 O 0.1488 0.18276 0.71817 0.0
C109 C 0.29586 0.16739 0.64931 0.0
O110 O 0.26531 0.13871 0.67435 0.0
O111 O 0.2991 0.18389 0.75958 0.0
C112 C 0.16403 0.30649 0.81119 0.0
O113 O 0.20076 0.33558 0.79265 0.0
O114 O 0.14421 0.26306 0.79618 0.0
O115 O 0.2447 0.26368 0.77091 0.0
O116 O 0.31037 0.29399 0.73944 0.0
O117 O 0.16688 0.29623 0.69817 0.0
C118 C 0.17992 0.17798 0.69526 0.0
C119 C 0.28273 0.29939 0.76656 0.0
Zn120 Zn 0.70433 0.2743 0.73916 0.0
Zn121 Zn 0.77104 0.21723 0.71624 0.0
C122 C 0.63238 0.2053 0.78335 0.0
O123 O 0.60638 0.22672 0.76273 0.0
C124 C 0.84238 0.29064 0.67501 0.0
O125 O 0.87004 0.2745 0.70021 0.0
O126 O 0.67363 0.32098 0.75717 0.0
O127 O 0.77402 0.30572 0.75701 0.0
O128 O 0.78718 0.24151 0.77942 0.0
C129 C 0.68761 0.33771 0.79675 0.0
O130 O 0.72037 0.32605 0.81882 0.0
O131 O 0.67619 0.2188 0.77757 0.0
C132 C 0.79426 0.16475 0.65425 0.0
O133 O 0.76811 0.18484 0.63198 0.0
O134 O 0.80169 0.17167 0.69609 0.0
O135 O 0.70194 0.18445 0.69899 0.0
O136 O 0.68811 0.24818 0.67619 0.0
O137 O 0.7979 0.27347 0.67809 0.0
C138 C 0.79124 0.28507 0.78617 0.0
C139 C 0.68439 0.20463 0.66973 0.0
Zn140 Zn 0.71102 0.79515 0.74153 0.0
Zn141 Zn 0.76016 0.69022 0.71297 0.0
C142 C 0.67366 0.8261 0.80758 0.0
O143 O 0.63927 0.79055 0.7855 0.0
C144 C 0.79998 0.65967 0.64881 0.0
O145 O 0.83355 0.69531 0.67162 0.0
O146 O 0.66297 0.80902 0.69969 0.0
O147 O 0.77098 0.81927 0.70568 0.0
O148 O 0.79206 0.75868 0.6873 0.0
C149 C 0.67417 0.85387 0.69365 0.0
O150 O 0.71453 0.88428 0.71292 0.0
O151 O 0.7152 0.83925 0.79486 0.0
C152 C 0.79358 0.63206 0.76483 0.0
O153 O 0.75215 0.60271 0.74664 0.0
O154 O 0.80732 0.67661 0.75647 0.0
O155 O 0.69867 0.6654 0.74698 0.0
O156 O 0.67865 0.72647 0.76602 0.0
O157 O 0.75794 0.64596 0.66044 0.0
C158 C 0.79705 0.80296 0.68465 0.0
C159 C 0.67283 0.68197 0.76807 0.0
C160 C 0.89483 0.08839 0.54212 0.0
C161 C 0.94019 0.09572 0.41127 0.0
C162 C 0.90803 0.90639 0.42006 0.0
Mg163 Mg -0.01107 0.0979 0.5033 0.0
O164 O 0.9599 0.03074 0.50494 0.0
Mg165 Mg 0.89506 -0.00185 0.47367 0.0
Mg166 Mg -0.00722 0.99053 0.48204 0.0
O167 O 0.02607 0.9507 0.45967 0.0
Mg168 Mg -0.00133 0.88348 0.45864 0.0
Mg169 Mg 0.09139 0.98378 0.49014 0.0
C170 C 0.07798 0.07355 0.54372 0.0
C171 C 0.0781 0.05886 0.41667 0.0
O172 O 0.87298 0.04837 0.51961 0.0
O173 O 0.93915 0.11294 0.54099 0.0
O174 O 0.91007 0.05501 0.42085 0.0
O175 O 0.97724 0.11851 0.43711 0.0
O176 O 0.0583 0.10436 0.53511 0.0
O177 O 0.05828 0.02889 0.53083 0.0
C178 C 0.90799 0.92457 0.5486 0.0
O179 O 0.9509 0.93377 0.53801 0.0
O180 O 0.88181 0.94399 0.52791 0.0
O181 O 0.11391 0.93617 0.44218 0.0
O182 O 0.04739 0.87436 0.4161 0.0
O183 O 0.07948 0.92597 0.54161 0.0
C184 C 0.09179 0.89904 0.41597 0.0
O185 O 0.01513 0.86018 0.52303 0.0
O186 O 0.92833 0.87603 0.42836 0.0
C187 C 0.05165 0.88351 0.54941 0.0
O188 O 0.92724 0.95108 0.4335 0.0
O189 O 0.03446 0.04799 0.42579 0.0
O190 O 0.10394 0.0396 0.43803 0.0
C191 C 0.37247 0.09276 0.03368 0.0
C192 C 0.41586 0.0975 0.90525 0.0
C193 C 0.40421 0.91278 0.93019 0.0
Mg194 Mg 0.46975 0.10814 -0.00282 0.0
O195 O 0.44752 0.04159 0.00335 0.0
Mg196 Mg 0.38332 0.00274 0.97263 0.0
Mg197 Mg 0.4859 0.00466 -0.01663 0.0
O198 O 0.52377 0.96717 0.96387 0.0
Mg199 Mg 0.50028 0.90092 0.97188 0.0
Mg200 Mg 0.58842 0.00561 -0.00649 0.0
C201 C 0.56727 0.09721 0.03706 0.0
C202 C 0.56107 0.06922 0.91741 0.0
O203 O 0.35382 0.05035 0.01465 0.0
O204 O 0.41617 0.11976 0.03213 0.0
O205 O 0.389 0.05581 0.91627 0.0
O206 O 0.45324 0.12282 0.92969 0.0
O207 O 0.54243 0.12329 0.02729 0.0
O208 O 0.55104 0.05127 0.02848 0.0
C209 C 0.40966 0.93691 0.04711 0.0
O210 O 0.45285 0.95166 0.03747 0.0
O211 O 0.37917 0.95187 0.02747 0.0
O212 O 0.61575 0.95587 0.95145 0.0
O213 O 0.5517 0.88763 0.93552 0.0
O214 O 0.58435 0.9534 0.05063 0.0
C215 C 0.59554 0.91334 0.93279 0.0
O216 O 0.51917 0.88699 0.03919 0.0
O217 O 0.4275 0.88571 0.94179 0.0
C218 C 0.55777 0.91187 0.0623 0.0
O219 O 0.4214 0.95875 0.93758 0.0
O220 O 0.51865 0.05678 0.92874 0.0
O221 O 0.5915 0.05429 0.93716 0.0
C222 C 0.87625 0.58486 0.02416 0.0
C223 C 0.89972 0.56104 0.8928 0.0
C224 C 0.89436 0.38629 0.94325 0.0
Mg225 Mg 0.96404 0.58944 0.9776 0.0
O226 O 0.94345 0.52704 -0.00122 0.0
Mg227 Mg 0.8781 0.48328 0.97688 0.0
Mg228 Mg 0.97852 0.48669 -0.01806 0.0
O229 O 0.01313 0.44587 0.96505 0.0
Mg230 Mg -0.00785 0.38273 -0.01635 0.0
Mg231 Mg 0.07843 0.48894 -0.01363 0.0
C232 C 0.06293 0.58818 0.01858 0.0
C233 C 0.03516 0.52978 0.90202 0.0
O234 O 0.85611 0.53953 0.01337 0.0
O235 O 0.91764 0.61067 0.01381 0.0
O236 O 0.87537 0.52403 0.91301 0.0
O237 O 0.94024 0.58971 0.9095 0.0
O238 O 0.03795 0.61178 0.0025 0.0
O239 O 0.04679 0.54166 0.01721 0.0
C240 C 0.91789 0.43442 0.05771 0.0
O241 O 0.95846 0.44722 0.04323 0.0
O242 O 0.88346 0.44411 0.03884 0.0
O243 O 0.101 0.43187 0.95103 0.0
O244 O 0.0386 0.36139 0.94717 0.0
O245 O 0.07971 0.45005 0.05156 0.0
C246 C 0.08069 0.38703 0.93847 0.0
O247 O 0.01447 0.38368 0.05188 0.0
O248 O 0.91854 0.36157 0.95849 0.0
C249 C 0.0538 0.41277 0.07059 0.0
O250 O 0.91111 0.43266 0.94594 0.0
O251 O -0.00293 0.5235 0.91955 0.0
O252 O 0.07011 0.5213 0.92137 0.0
C253 C 0.37687 0.5878 0.02629 0.0
C254 C 0.41235 0.59073 0.8938 0.0
C255 C 0.39857 0.40585 0.91549 0.0
Mg256 Mg 0.46944 0.59996 -0.01682 0.0
O257 O 0.44385 0.53378 -0.00833 0.0
Mg258 Mg 0.37897 0.49621 0.96206 0.0
Mg259 Mg 0.48035 0.49543 0.97306 0.0
O260 O 0.51666 0.45718 0.95372 0.0
Mg261 Mg 0.49262 0.39001 0.95697 0.0
Mg262 Mg 0.58152 0.49532 -0.01746 0.0
C263 C 0.56142 0.5858 0.03093 0.0
C264 C 0.56218 0.5619 0.90416 0.0
O265 O 0.35519 0.546 0.00661 0.0
O266 O 0.42009 0.61384 0.02154 0.0
O267 O 0.38555 0.54973 0.90623 0.0
O268 O 0.45133 0.61549 0.91634 0.0
O269 O 0.54003 0.61354 0.01641 0.0
O270 O 0.54521 0.54025 0.02068 0.0
C271 C 0.39692 0.42732 0.04017 0.0
O272 O 0.44091 0.4398 0.03155 0.0
O273 O 0.36982 0.4442 0.0175 0.0
O274 O 0.60688 0.44652 0.93797 0.0
O275 O 0.54246 0.38071 0.91561 0.0
O276 O 0.57257 0.44252 0.03826 0.0
C277 C 0.58623 0.40722 0.91407 0.0
O278 O 0.511 0.37319 0.0238 0.0
O279 O 0.42087 0.37772 0.92629 0.0
C280 C 0.54663 0.40051 0.04923 0.0
O281 O 0.4159 0.45133 0.92558 0.0
O282 O 0.51896 0.55027 0.91465 0.0
O283 O 0.59052 0.54596 0.92599 0.0
C284 C 0.8811 0.57676 0.52247 0.0
C285 C 0.92422 0.58218 0.39427 0.0
C286 C 0.91145 0.39546 0.41657 0.0
Mg287 Mg 0.97796 0.59041 0.48543 0.0
O288 O 0.95363 0.52382 0.49239 0.0
Mg289 Mg 0.88972 0.48616 0.46063 0.0
Mg290 Mg -0.00804 0.48696 0.47313 0.0
O291 O 0.03077 0.45055 0.4535 0.0
Mg292 Mg 0.00783 0.38387 0.45829 0.0
Mg293 Mg 0.09428 0.48834 0.48588 0.0
C294 C 0.07284 0.57825 0.52937 0.0
C295 C 0.06968 0.5556 0.41151 0.0
O296 O 0.86134 0.5345 0.50321 0.0
O297 O 0.92498 0.60282 0.52037 0.0
O298 O 0.89656 0.54083 0.40533 0.0
O299 O 0.96264 0.60618 0.41794 0.0
O300 O 0.04972 0.60541 0.51776 0.0
O301 O 0.05581 0.53228 0.52115 0.0
C302 C 0.91413 0.41939 0.53541 0.0
O303 O 0.9574 0.43333 0.52618 0.0
O304 O 0.88423 0.4347 0.51514 0.0
O305 O 0.12441 0.44133 0.4436 0.0
O306 O 0.06204 0.37244 0.42434 0.0
O307 O 0.08667 0.43313 0.54141 0.0
C308 C 0.1059 0.39933 0.42375 0.0
O309 O 0.02159 0.36738 0.52566 0.0
O310 O 0.93601 0.36929 0.42693 0.0
C311 C 0.0587 0.39124 0.55107 0.0
O312 O 0.92763 0.44138 0.42544 0.0
O313 O 0.02636 0.54075 0.42063 0.0
O314 O 0.1 0.54061 0.43153 0.0
C315 C 0.37649 0.0843 0.52247 0.0
C316 C 0.4119 0.06932 0.39213 0.0
C317 C 0.40798 0.89473 0.43528 0.0
Mg318 Mg 0.46859 0.09515 0.48056 0.0
O319 O 0.44942 0.03149 0.49791 0.0
Mg320 Mg 0.3858 0.98693 0.47225 0.0
Mg321 Mg 0.48794 -0.00395 0.47821 0.0
O322 O 0.52639 0.9604 0.45941 0.0
Mg323 Mg 0.50646 0.8973 0.47891 0.0
Mg324 Mg 0.59022 0.00473 0.48512 0.0
C325 C 0.5679 0.0968 0.52119 0.0
C326 C 0.55042 0.05649 0.40656 0.0
O327 O 0.35862 0.0391 0.51045 0.0
O328 O 0.418 0.11203 0.51411 0.0
O329 O 0.38546 0.03118 0.40972 0.0
O330 O 0.45083 0.09746 0.4121 0.0
O331 O 0.54155 0.11979 0.50733 0.0
O332 O 0.55338 0.05049 0.51787 0.0
C333 C 0.42702 0.9362 0.55103 0.0
O334 O 0.46746 0.95152 0.53622 0.0
O335 O 0.39131 0.94477 0.53335 0.0
O336 O 0.61622 0.95233 0.44646 0.0
O337 O 0.55528 0.88046 0.44353 0.0
O338 O 0.59182 0.9609 0.54718 0.0
C339 C 0.59659 0.90735 0.43398 0.0
O340 O 0.52752 0.89396 0.54701 0.0
O341 O 0.43346 0.87182 0.45158 0.0
C342 C 0.56705 0.92265 0.56555 0.0
O343 O 0.42249 0.94112 0.43849 0.0
O344 O 0.50911 0.04097 0.41973 0.0
O345 O 0.58518 0.04711 0.4252 0.0
C346 C 0.10445 0.14468 0.31686 0.0
C347 C 0.15257 0.15207 0.31159 0.0
H348 H 0.04289 0.1107 0.35317 0.0
C349 C 0.17438 0.1292 0.34153 0.0
H350 H 0.08596 0.1617 0.29497 0.0
C351 C 0.14994 0.10043 0.37471 0.0
C352 C 0.10189 0.09243 0.3804 0.0
H353 H 0.211 0.13338 0.33944 0.0
H354 H 0.1695 0.08406 0.39612 0.0
C355 C 0.07955 0.11541 0.35061 0.0
C356 C 0.91544 0.19401 0.34995 0.0
C357 C 0.87555 0.16639 0.32157 0.0
H358 H 0.96849 0.19302 0.40047 0.0
C359 C 0.86397 0.11638 0.31671 0.0
H360 H 0.92538 0.23269 0.35412 0.0
C361 C 0.88882 0.09378 0.34279 0.0
C362 C 0.92563 0.12069 0.37446 0.0
H363 H 0.83402 0.09422 0.2944 0.0
H364 H 0.87693 0.0548 0.34034 0.0
C365 C 0.94038 0.17129 0.37623 0.0
C366 C 0.85481 0.8799 0.30312 0.0
C367 C 0.81489 0.83801 0.30736 0.0
H368 H 0.91446 0.93671 0.33671 0.0
C369 C 0.80089 0.82537 0.35 0.0
H370 H 0.8663 0.89068 0.27081 0.0
C371 C 0.82875 0.8512 0.38757 0.0
C372 C 0.87018 0.89129 0.38334 0.0
H373 H 0.77027 0.79333 0.35459 0.0
H374 H 0.81972 0.83788 0.41991 0.0
C375 C 0.88188 0.90664 0.34081 0.0
C376 C 0.11651 0.84144 0.31439 0.0
C377 C 0.16557 0.85349 0.32177 0.0
H378 H 0.05452 0.84578 0.33913 0.0
C379 C 0.19085 0.88342 0.35861 0.0
H380 H 0.09625 0.81794 0.28651 0.0
C381 C 0.16716 0.89953 0.3887 0.0
C382 C 0.11767 0.88509 0.38286 0.0
H383 H 0.22883 0.89308 0.36492 0.0
H384 H 0.18737 0.92167 0.41734 0.0
C385 C 0.09268 0.8568 0.34491 0.0
C386 C 0.13448 0.86188 0.63794 0.0
C387 C 0.12676 0.81332 0.62818 0.0
H388 H 0.11544 0.92227 0.6212 0.0
C389 C 0.08734 0.78599 0.59907 0.0
H390 H 0.16423 0.88377 0.66059 0.0
C391 C 0.05881 0.80783 0.57708 0.0
C392 C 0.06962 0.8576 0.5833 0.0
H393 H 0.08001 0.74825 0.59138 0.0
H394 H 0.03102 0.78656 0.55235 0.0
C395 C 0.10629 0.88386 0.61557 0.0
C396 C 0.18014 0.15691 0.61576 0.0
C397 C 0.16442 0.14242 0.65744 0.0
H398 H 0.16456 0.14513 0.54559 0.0
C399 C 0.12784 0.09752 0.66044 0.0
H400 H 0.20831 0.19135 0.6123 0.0
C401 C 0.10406 0.07014 0.62204 0.0
C402 C 0.1157 0.08808 0.58028 0.0
H403 H 0.11522 0.08546 0.69212 0.0
H404 H 0.07293 0.03801 0.62497 0.0
C405 C 0.15547 0.13029 0.57743 0.0
C406 C 0.8563 0.17551 0.604 0.0
C407 C 0.82235 0.14461 0.62937 0.0
H408 H 0.90598 0.18167 0.55655 0.0
C409 C 0.81164 0.09475 0.62585 0.0
H410 H 0.86427 0.21405 0.60571 0.0
C411 C 0.83446 0.07598 0.59664 0.0
C412 C 0.86868 0.10707 0.57134 0.0
H413 H 0.78481 0.0704 0.64464 0.0
H414 H 0.82583 0.03738 0.59419 0.0
C415 C 0.87977 0.15699 0.5757 0.0
C416 C 0.83154 0.8821 0.64558 0.0
C417 C 0.83076 0.8353 0.65322 0.0
H418 H 0.85619 0.94576 0.60822 0.0
C419 C 0.86014 0.81947 0.62818 0.0
H420 H 0.80992 0.89633 0.66351 0.0
C421 C 0.88786 0.84875 0.59611 0.0
C422 C 0.88676 0.89479 0.5875 0.0
H423 H 0.86086 0.78379 0.63249 0.0
H424 H 0.90831 0.83438 0.57671 0.0
C425 C 0.85849 0.9108 0.61349 0.0
C426 C 0.29393 0.10851 0.11813 0.0
C427 C 0.30621 0.15878 0.11802 0.0
H428 H 0.30555 0.04736 0.0907 0.0
C429 C 0.33351 0.18484 0.08534 0.0
H430 H 0.27364 0.08787 0.14363 0.0
C431 C 0.35196 0.16211 0.05581 0.0
C432 C 0.34347 0.11274 0.0582 0.0
H433 H 0.34347 0.22363 0.08467 0.0
H434 H 0.37525 0.18382 0.03266 0.0
C435 C 0.31242 0.08548 0.08813 0.0
C436 C 0.88514 0.38467 0.16564 0.0
C437 C 0.85216 0.3394 0.15043 0.0
H438 H 0.93405 0.45221 0.14621 0.0
C439 C 0.85087 0.32196 0.1074 0.0
H440 H 0.88583 0.39825 0.19897 0.0
C441 C 0.87859 0.35211 0.07788 0.0
C442 C 0.90678 0.39969 0.09147 0.0
H443 H 0.82512 0.28704 0.09554 0.0
H444 H 0.87388 0.34016 0.04342 0.0
C445 C 0.91253 0.41523 0.13581 0.0
C446 C 0.64433 0.88354 0.14518 0.0
C447 C 0.61711 0.83649 0.1562 0.0
H448 H 0.64661 0.94502 0.10808 0.0
C449 C 0.56926 0.81627 0.13876 0.0
H450 H 0.68107 0.90037 0.15837 0.0
C451 C 0.54938 0.84173 0.1103 0.0
C452 C 0.57663 0.88841 0.09841 0.0
H453 H 0.54704 0.78009 0.14644 0.0
H454 H 0.51286 0.82413 0.09667 0.0
C455 C 0.62426 0.9093 0.11677 0.0
C456 C 0.14524 0.69349 0.09024 0.0
C457 C 0.1554 0.67028 0.12735 0.0
H458 H 0.11044 0.68555 0.02516 0.0
C459 C 0.14273 0.61985 0.12456 0.0
H460 H 0.15586 0.73236 0.09082 0.0
C461 C 0.11682 0.59283 0.08675 0.0
C462 C 0.1032 0.6158 0.05099 0.0
H463 H 0.15113 0.60098 0.15231 0.0
H464 H 0.10461 0.55385 0.08694 0.0
C465 C 0.11984 0.6666 0.05234 0.0
C466 C 0.3168 0.8837 0.82969 0.0
C467 C 0.28969 0.835 0.83585 0.0
H468 H 0.37396 0.94753 0.85611 0.0
C469 C 0.29441 0.81594 0.87736 0.0
H470 H 0.31375 0.89958 0.79825 0.0
C471 C 0.32932 0.84307 0.91 0.0
C472 C 0.35927 0.89016 0.90226 0.0
H473 H 0.27386 0.77872 0.8835 0.0
H474 H 0.33491 0.82618 0.94024 0.0
C475 C 0.35106 0.91126 0.86289 0.0
C476 C 0.10106 0.29756 0.86164 0.0
C477 C 0.14479 0.32538 0.84679 0.0
H478 H 0.04669 0.29504 0.90246 0.0
C479 C 0.16914 0.3725 0.86483 0.0
H480 H 0.08149 0.26116 0.84835 0.0
C481 C 0.14928 0.39207 0.89596 0.0
C482 C 0.10464 0.36488 0.90965 0.0
H483 H 0.20318 0.39472 0.85425 0.0
H484 H 0.16834 0.42891 0.90834 0.0
C485 C 0.08118 0.31709 0.89272 0.0
C486 C 0.63774 0.14086 0.83215 0.0
C487 C 0.61186 0.16814 0.81515 0.0
H488 H 0.6417 0.08803 0.87706 0.0
C489 C 0.5674 0.16088 0.83021 0.0
H490 H 0.67182 0.14522 0.82088 0.0
C491 C 0.54992 0.12786 0.86278 0.0
C492 C 0.5767 0.10178 0.8808 0.0
H493 H 0.54665 0.18151 0.81766 0.0
H494 H 0.51612 0.12361 0.87444 0.0
C495 C 0.62036 0.10806 0.86448 0.0
C496 C 0.87047 0.64048 0.80806 0.0
C497 C 0.82284 0.61277 0.7944 0.0
H498 H 0.93299 0.6452 0.84883 0.0
C499 C 0.80278 0.56582 0.80938 0.0
H500 H 0.88706 0.67655 0.79658 0.0
C501 C 0.829 0.54771 0.83896 0.0
C502 C 0.87603 0.5761 0.85433 0.0
H503 H 0.76619 0.5434 0.79938 0.0
H504 H 0.81158 0.51216 0.85123 0.0
C505 C 0.8969 0.62224 0.8376 0.0
C506 C 0.14603 0.40799 0.15843 0.0
C507 C 0.12892 0.3585 0.16648 0.0
H508 H 0.13485 0.46463 0.12243 0.0
C509 C 0.08287 0.32935 0.14934 0.0
H510 H 0.18112 0.43161 0.17183 0.0
C511 C 0.056 0.34848 0.12154 0.0
C512 C 0.07501 0.39698 0.10998 0.0
H513 H 0.06843 0.29125 0.1556 0.0
H514 H 0.02185 0.32427 0.10655 0.0
C515 C 0.11935 0.42705 0.13036 0.0
C516 C 0.08102 0.54156 0.79475 0.0
C517 C 0.09357 0.59139 0.79247 0.0
H518 H 0.05001 0.48132 0.8341 0.0
C519 C 0.0699 0.61525 0.81566 0.0
H520 H 0.09789 0.52236 0.77606 0.0
C521 C 0.04241 0.59176 0.8486 0.0
C522 C 0.03903 0.54491 0.85736 0.0
H523 H 0.07802 0.65359 0.81279 0.0
H524 H 0.03029 0.61224 0.87104 0.0
C525 C 0.05373 0.51818 0.82778 0.0
C526 C 0.40974 0.18958 0.82211 0.0
C527 C 0.36211 0.16966 0.80411 0.0
H528 H 0.46429 0.18241 0.86745 0.0
C529 C 0.33348 0.12395 0.81708 0.0
H530 H 0.43296 0.22468 0.81279 0.0
C531 C 0.35179 0.09927 0.84807 0.0
C532 C 0.39904 0.11996 0.86721 0.0
H533 H 0.29682 0.10738 0.80358 0.0
H534 H 0.32829 0.06467 0.85814 0.0
C535 C 0.4279 0.16519 0.85336 0.0
C536 C 0.82664 0.36141 0.83239 0.0
C537 C 0.81199 0.3109 0.82881 0.0
H538 H 0.86217 0.42542 0.87297 0.0
C539 C 0.81557 0.28548 0.86656 0.0
H540 H 0.82324 0.38186 0.80393 0.0
C541 C 0.83696 0.31041 0.90643 0.0
C542 C 0.85579 0.36116 0.90895 0.0
H543 H 0.80306 0.24645 0.86503 0.0
H544 H 0.8421 0.29004 0.93438 0.0
C545 C 0.84802 0.38635 0.87224 0.0
C546 C 0.62417 0.82077 0.86873 0.0
C547 C 0.66178 0.84918 0.84553 0.0
H548 H 0.57472 0.81865 0.91476 0.0
C549 C 0.68207 0.89917 0.85527 0.0
H550 H 0.60819 0.78207 0.86233 0.0
C551 C 0.66242 0.9206 0.88564 0.0
C552 C 0.6224 0.89212 0.90637 0.0
H553 H 0.71098 0.92183 0.83756 0.0
H554 H 0.67679 0.95944 0.891 0.0
C555 C 0.60483 0.84186 0.89874 0.0
C556 C 0.85691 0.67797 0.09653 0.0
C557 C 0.81906 0.649 0.11909 0.0
H558 H 0.90437 0.68041 0.04814 0.0
C559 C 0.79689 0.59968 0.10694 0.0
H560 H 0.87437 0.71615 0.10504 0.0
C561 C 0.81387 0.57912 0.07428 0.0
C562 C 0.85342 0.60754 0.05333 0.0
H563 H 0.76714 0.57656 0.12344 0.0
H564 H 0.79718 0.54067 0.06684 0.0
C565 C 0.87399 0.65741 0.06393 0.0
C566 C 0.40674 0.85259 0.14058 0.0
C567 C 0.35753 0.82959 0.14278 0.0
H568 H 0.46224 0.90488 0.10849 0.0
C569 C 0.32633 0.8421 0.11343 0.0
H570 H 0.43168 0.84351 0.16273 0.0
C571 C 0.34369 0.87686 0.08268 0.0
C572 C 0.39279 0.90016 0.08036 0.0
H573 H 0.28828 0.82478 0.11389 0.0
H574 H 0.31829 0.88509 0.06039 0.0
C575 C 0.42426 0.88759 0.10951 0.0
C576 C 0.66676 0.19114 0.10802 0.0
C577 C 0.68667 0.16221 0.13192 0.0
H578 H 0.61381 0.19338 0.0584 0.0
C579 C 0.67311 0.11335 0.11839 0.0
H580 H 0.67708 0.22902 0.11715 0.0
C581 C 0.63669 0.09269 0.08473 0.0
C582 C 0.61325 0.12057 0.06396 0.0
H583 H 0.6882 0.09015 0.13589 0.0
H584 H 0.62479 0.05427 0.0773 0.0
C585 C 0.63043 0.17055 0.07431 0.0
C586 C 0.63487 0.60172 0.80473 0.0
C587 C 0.63832 0.64969 0.7989 0.0
H588 H 0.60807 0.53734 0.84097 0.0
C589 C 0.61102 0.66684 0.82543 0.0
H590 H 0.65485 0.5865 0.78559 0.0
C591 C 0.58307 0.6378 0.85742 0.0
C592 C 0.58159 0.59057 0.86427 0.0
H593 H 0.61245 0.70343 0.82262 0.0
H594 H 0.56478 0.65331 0.87833 0.0
C595 C 0.60754 0.57315 0.8367 0.0
C596 C 0.38296 0.68877 0.83559 0.0
C597 C 0.3378 0.66258 0.81405 0.0
H598 H 0.44278 0.68666 0.87645 0.0
C599 C 0.3215 0.61194 0.81252 0.0
H600 H 0.39683 0.72783 0.83721 0.0
C601 C 0.34807 0.58817 0.83508 0.0
C602 C 0.39162 0.61449 0.85957 0.0
H603 H 0.28702 0.59061 0.79603 0.0
H604 H 0.33303 0.54918 0.83557 0.0
C605 C 0.40964 0.66505 0.85786 0.0
C606 C 0.29601 0.31494 0.84819 0.0
C607 C 0.30456 0.33232 0.80563 0.0
H608 H 0.31963 0.32537 0.91725 0.0
C609 C 0.33771 0.37896 0.80135 0.0
H610 H 0.27065 0.27906 0.8526 0.0
C611 C 0.36433 0.4063 0.83884 0.0
C612 C 0.35912 0.38663 0.88078 0.0
H613 H 0.34468 0.39321 0.76897 0.0
H614 H 0.39216 0.44074 0.83449 0.0
C615 C 0.32365 0.34152 0.88535 0.0
C616 C 0.68703 0.39536 0.85606 0.0
C617 C 0.66225 0.36169 0.82142 0.0
H618 H 0.68255 0.43664 0.91241 0.0
C619 C 0.61268 0.34534 0.81586 0.0
H620 H 0.72539 0.40822 0.8611 0.0
C621 C 0.58815 0.36047 0.84592 0.0
C622 C 0.61279 0.39289 0.88162 0.0
H623 H 0.59278 0.31878 0.78988 0.0
H624 H 0.54976 0.34613 0.8415 0.0
C625 C 0.66256 0.41131 0.8856 0.0
C626 C 0.5863 0.31625 0.11933 0.0
C627 C 0.62128 0.34937 0.14917 0.0
H628 H 0.53375 0.30633 0.0647 0.0
C629 C 0.62457 0.3976 0.15088 0.0
H630 H 0.58257 0.27874 0.11744 0.0
C631 C 0.59671 0.41331 0.12079 0.0
C632 C 0.56461 0.38113 0.08844 0.0
H633 H 0.65072 0.42403 0.17372 0.0
H634 H 0.6025 0.45139 0.12108 0.0
C635 C 0.55799 0.33197 0.08935 0.0
C636 C 0.59593 0.64018 0.1463 0.0
C637 C 0.64479 0.64973 0.15229 0.0
H638 H 0.5321 0.61259 0.10319 0.0
C639 C 0.66552 0.63251 0.11938 0.0
H640 H 0.57847 0.65251 0.17069 0.0
C641 C 0.63838 0.609 0.08023 0.0
C642 C 0.59041 0.60299 0.07347 0.0
H643 H 0.70307 0.63942 0.12268 0.0
H644 H 0.65531 0.59793 0.05455 0.0
C645 C 0.56929 0.6174 0.10743 0.0
C646 C 0.29808 0.59267 0.11467 0.0
C647 C 0.31429 0.64249 0.12406 0.0
H648 H 0.30493 0.53586 0.07532 0.0
C649 C 0.3496 0.674 0.10047 0.0
H650 H 0.26974 0.5681 0.13183 0.0
C651 C 0.36909 0.656 0.06808 0.0
C652 C 0.35308 0.60612 0.05826 0.0
H653 H 0.36131 0.7127 0.10641 0.0
H654 H 0.39641 0.68125 0.05037 0.0
C655 C 0.31743 0.57449 0.08186 0.0
C656 C 0.29948 0.35016 0.11108 0.0
C657 C 0.32318 0.33502 0.14613 0.0
H658 H 0.30268 0.38841 0.05193 0.0
C659 C 0.3731 0.34916 0.14534 0.0
H660 H 0.2614 0.34027 0.10935 0.0
C661 C 0.39791 0.37797 0.11126 0.0
C662 C 0.37365 0.39358 0.07657 0.0
H663 H 0.39317 0.33825 0.17128 0.0
H664 H 0.43602 0.3885 0.1125 0.0
C665 C 0.3238 0.37829 0.07749 0.0
C666 C 0.85134 0.66703 0.58879 0.0
C667 C 0.81309 0.63775 0.61082 0.0
H668 H 0.9018 0.6709 0.54333 0.0
C669 C 0.7929 0.58807 0.59957 0.0
H670 H 0.86724 0.70555 0.59631 0.0
C671 C 0.8132 0.56775 0.56885 0.0
C672 C 0.85372 0.59704 0.54923 0.0
H673 H 0.76347 0.56474 0.6163 0.0
H674 H 0.79882 0.52907 0.56231 0.0
C675 C 0.87128 0.64705 0.55842 0.0
C676 C 0.40863 0.89914 0.66587 0.0
C677 C 0.38373 0.84961 0.65778 0.0
H678 H 0.44265 0.96662 0.63643 0.0
C679 C 0.38337 0.82774 0.61672 0.0
H680 H 0.40837 0.91634 0.69735 0.0
C681 C 0.40171 0.85635 0.58194 0.0
C682 C 0.42087 0.90645 0.58875 0.0
H683 H 0.36333 0.78957 0.61001 0.0
H684 H 0.39693 0.83985 0.54908 0.0
C685 C 0.42737 0.92775 0.63114 0.0
C686 C 0.13629 0.3598 0.64104 0.0
C687 C 0.10715 0.31272 0.65033 0.0
H688 H 0.14353 0.42214 0.60343 0.0
C689 C 0.06082 0.29336 0.62907 0.0
H690 H 0.17197 0.37597 0.65709 0.0
C691 C 0.04437 0.31977 0.5986 0.0
C692 C 0.07369 0.36649 0.58849 0.0
H693 H 0.03725 0.25724 0.63537 0.0
H694 H 0.00895 0.30292 0.58213 0.0
C695 C 0.1197 0.38644 0.6106 0.0
C696 C 0.65004 0.12735 0.62451 0.0
C697 C 0.66158 0.17754 0.62805 0.0
H698 H 0.61216 0.0618 0.58643 0.0
C699 C 0.65125 0.20131 0.59148 0.0
H700 H 0.65877 0.10818 0.65185 0.0
C701 C 0.6257 0.17485 0.55356 0.0
C702 C 0.6093 0.12413 0.55199 0.0
H703 H 0.66125 0.24013 0.59272 0.0
H704 H 0.61552 0.1939 0.52688 0.0
C705 C 0.62407 0.10078 0.5867 0.0
C706 C 0.81122 0.37171 0.32637 0.0
C707 C 0.79258 0.32088 0.3235 0.0
H708 H 0.86348 0.43569 0.35875 0.0
C709 C 0.80778 0.29581 0.35641 0.0
H710 H 0.80009 0.39212 0.30155 0.0
C711 C 0.84378 0.32072 0.38912 0.0
C712 C 0.86557 0.37131 0.38967 0.0
H713 H 0.79361 0.25674 0.35562 0.0
H714 H 0.85643 0.30002 0.41252 0.0
C715 C 0.84744 0.39676 0.35923 0.0
C716 C 0.68695 0.88886 0.36535 0.0
C717 C 0.65937 0.84489 0.34265 0.0
H718 H 0.68879 0.9434 0.41273 0.0
C719 C 0.61234 0.82104 0.35161 0.0
H720 H 0.72354 0.9078 0.35907 0.0
C721 C 0.59272 0.84117 0.38204 0.0
C722 C 0.61972 0.88563 0.40429 0.0
H723 H 0.59016 0.78739 0.33425 0.0
H724 H 0.55579 0.8222 0.38713 0.0
C725 C 0.66719 0.9092 0.396 0.0
C726 C 0.07115 0.63885 0.31764 0.0
C727 C 0.12003 0.65988 0.31303 0.0
H728 H 0.01659 0.58898 0.35231 0.0
C729 C 0.1517 0.64646 0.34098 0.0
H730 H 0.04586 0.64861 0.2966 0.0
C731 C 0.13505 0.61276 0.37281 0.0
C732 C 0.08624 0.59149 0.37753 0.0
H733 H 0.18957 0.66223 0.33856 0.0
H734 H 0.16073 0.60362 0.39392 0.0
C735 C 0.05438 0.60488 0.34964 0.0
C736 C 0.38913 0.15535 0.31203 0.0
C737 C 0.34337 0.12753 0.29317 0.0
H738 H 0.44768 0.15817 0.35724 0.0
C739 C 0.32418 0.07806 0.30119 0.0
H740 H 0.40514 0.19338 0.3059 0.0
C741 C 0.34846 0.05776 0.33068 0.0
C742 C 0.3925 0.08654 0.3525 0.0
H743 H 0.28924 0.05542 0.28655 0.0
H744 H 0.33141 0.02027 0.33831 0.0
C745 C 0.41362 0.13496 0.34123 0.0
C746 C 0.59956 0.84067 0.64471 0.0
C747 C 0.64341 0.87209 0.6649 0.0
H748 H 0.54008 0.83232 0.59821 0.0
C749 C 0.65856 0.92147 0.65649 0.0
H750 H 0.58671 0.80252 0.65088 0.0
C751 C 0.63185 0.93862 0.62649 0.0
C752 C 0.58927 0.90681 0.60437 0.0
H753 H 0.69195 0.9468 0.67189 0.0
H754 H 0.64567 0.97649 0.61923 0.0
C755 C 0.57261 0.8579 0.61487 0.0
C756 C 0.5735 0.0894 0.29261 0.0
C757 C 0.61207 0.13278 0.30216 0.0
H758 H 0.52119 0.03008 0.32071 0.0
C759 C 0.61989 0.15668 0.34354 0.0
H760 H 0.56746 0.07082 0.26058 0.0
C761 C 0.59358 0.13389 0.37733 0.0
C762 C 0.5598 0.08727 0.36956 0.0
H763 H 0.6496 0.19044 0.35093 0.0
H764 H 0.60351 0.15008 0.41054 0.0
C765 C 0.54713 0.06639 0.32668 0.0
C766 C 0.92015 0.67472 0.31078 0.0
C767 C 0.87096 0.66235 0.3009 0.0
H768 H 0.9757 0.659 0.34755 0.0
C769 C 0.83987 0.62096 0.31912 0.0
H770 H 0.94522 0.70619 0.2971 0.0
C771 C 0.85749 0.59327 0.34725 0.0
C772 C 0.90664 0.60664 0.3584 0.0
H773 H 0.80186 0.61017 0.31202 0.0
H774 H 0.83237 0.56249 0.36177 0.0
C775 C 0.93775 0.64748 0.33947 0.0
C776 C 0.32854 0.78994 0.36142 0.0
C777 C 0.32017 0.81343 0.32381 0.0
H778 H 0.36063 0.7975 0.42763 0.0
C779 C 0.3337 0.86396 0.32633 0.0
H780 H 0.31728 0.75101 0.36095 0.0
C781 C 0.35808 0.89071 0.36475 0.0
C782 C 0.36951 0.86738 0.40131 0.0
H783 H 0.32683 0.88306 0.29808 0.0
H784 H 0.37079 0.92971 0.36459 0.0
C785 C 0.35265 0.8166 0.39986 0.0
C786 C 0.18373 0.38309 0.33889 0.0
C787 C 0.17197 0.33292 0.33972 0.0
H788 H 0.17181 0.44435 0.36575 0.0
C789 C 0.14547 0.30732 0.37306 0.0
H790 H 0.20332 0.40336 0.31284 0.0
C791 C 0.12726 0.3303 0.40258 0.0
C792 C 0.13522 0.3795 0.39954 0.0
H793 H 0.13582 0.2686 0.37423 0.0
H794 H 0.10443 0.30887 0.42618 0.0
C795 C 0.16549 0.4064 0.36889 0.0
C796 C 0.29455 0.09624 0.60447 0.0
C797 C 0.31234 0.14651 0.61299 0.0
H798 H 0.3006 0.03689 0.5687 0.0
C799 C 0.34754 0.17611 0.58804 0.0
H800 H 0.26702 0.07246 0.62295 0.0
C801 C 0.3665 0.15573 0.55688 0.0
C802 C 0.35066 0.10531 0.55003 0.0
H803 H 0.36158 0.21494 0.59353 0.0
H804 H 0.39476 0.17957 0.53916 0.0
C805 C 0.31353 0.07579 0.5732 0.0
C806 C 0.83059 0.33357 0.60812 0.0
C807 C 0.86174 0.32406 0.63992 0.0
H808 H 0.82266 0.36999 0.55005 0.0
C809 C 0.91088 0.34489 0.63644 0.0
H810 H 0.79254 0.31749 0.60934 0.0
C811 C 0.92845 0.37531 0.602 0.0
C812 C 0.89705 0.38527 0.57064 0.0
H813 H 0.93575 0.33785 0.66033 0.0
H814 H 0.96642 0.3915 0.60035 0.0
C815 C 0.84799 0.36365 0.57394 0.0
C816 C 0.13535 0.61558 0.64184 0.0
C817 C 0.1752 0.65637 0.63397 0.0
H818 H 0.07325 0.55755 0.61441 0.0
C819 C 0.18509 0.66641 0.58993 0.0
H820 H 0.12564 0.60706 0.67487 0.0
C821 C 0.15349 0.63864 0.55484 0.0
C822 C 0.11288 0.59917 0.56334 0.0
H823 H 0.21531 0.69758 0.58258 0.0
H824 H 0.15954 0.64926 0.52125 0.0
C825 C 0.1051 0.58691 0.60703 0.0
loop_
_geom_bond_atom_site_label_1
_geom_bond_atom_site_label_2
_geom_bond_distance
_geom_bond_site_symmetry_2
_ccdc_geom_bond_type
Zn0 O6 1.969 . S
Zn0 O7 1.965 . S
Zn0 O11 2.024 . S
Zn0 O16 1.969 . S
Zn1 O8 1.969 . S
Zn1 O14 1.969 . S
Zn1 O15 1.965 . S
Zn1 O17 2.024 . S
C2 O3 1.229 . S
C2 O11 1.058 . S
O3 C2 1.229 . S
C4 O5 1.229 . S
C4 O17 1.058 . S
O5 C4 1.229 . S
O6 Zn0 1.969 . S
O6 C9 1.267 . S
O7 Zn0 1.965 . S
O7 C18 1.260 . S
O8 Zn1 1.969 . S
O8 C18 1.258 . S
C9 O6 1.267 . S
C9 O10 1.228 . S
O10 C9 1.228 . S
O11 Zn0 2.024 . S
O11 C2 1.058 . S
C12 O13 1.228 . S
C12 O14 1.267 . S
O13 C12 1.228 . S
O14 Zn1 1.969 . S
O14 C12 1.267 . S
O15 Zn1 1.965 . S
O15 C19 1.260 . S
O16 Zn0 1.969 . S
O16 C19 1.258 . S
O17 Zn1 2.024 . S
O17 C4 1.058 . S
C18 O7 1.260 . S
C18 O8 1.258 . S
C19 O15 1.260 . S
C19 O16 1.258 . S
Zn20 O26 1.969 . S
Zn20 O27 1.965 . S
Zn20 O31 2.024 . S
Zn20 O36 1.969 . S
Zn21 O28 1.969 . S
Zn21 O34 1.969 . S
Zn21 O35 1.965 . S
Zn21 O37 2.024 . S
C22 O23 1.229 . S
C22 O31 1.058 . S
O23 C22 1.229 . S
C24 O25 1.229 . S
C24 O37 1.058 . S
O25 C24 1.229 . S
O26 Zn20 1.969 . S
O26 C29 1.267 . S
O27 Zn20 1.965 . S
O27 C38 1.260 . S
O28 Zn21 1.969 . S
O28 C38 1.258 . S
C29 O26 1.267 . S
C29 O30 1.228 . S
O30 C29 1.228 . S
O31 Zn20 2.024 . S
O31 C22 1.058 . S
C32 O33 1.228 . S
C32 O34 1.267 . S
O33 C32 1.228 . S
O34 Zn21 1.969 . S
O34 C32 1.267 . S
O35 Zn21 1.965 . S
O35 C39 1.260 . S
O36 Zn20 1.969 . S
O36 C39 1.258 . S
O37 Zn21 2.024 . S
O37 C24 1.058 . S
C38 O27 1.260 . S
C38 O28 1.258 . S
C39 O35 1.260 . S
C39 O36 1.258 . S
Zn40 O46 1.969 . S
Zn40 O47 1.965 . S
Zn40 O51 2.024 . S
Zn40 O56 1.969 . S
Zn41 O48 1.969 . S
Zn41 O54 1.969 . S
Zn41 O55 1.965 . S
Zn41 O57 2.024 . S
C42 O43 1.229 . S
C42 O51 1.058 . S
O43 C42 1.229 . S
C44 O45 1.229 . S
C44 O57 1.058 . S
O45 C44 1.229 . S
O46 Zn40 1.969 . S
O46 C49 1.267 . S
O47 Zn40 1.965 . S
O47 C58 1.260 . S
O48 Zn41 1.969 . S
O48 C58 1.258 . S
C49 O46 1.267 . S
C49 O50 1.228 . S
O50 C49 1.228 . S
O51 Zn40 2.024 . S
O51 C42 1.058 . S
C52 O53 1.228 . S
C52 O54 1.267 . S
O53 C52 1.228 . S
O54 Zn41 1.969 . S
O54 C52 1.267 . S
O55 Zn41 1.965 . S
O55 C59 1.260 . S
O56 Zn40 1.969 . S
O56 C59 1.258 . S
O57 Zn41 2.024 . S
O57 C44 1.058 . S
C58 O47 1.260 . S
C58 O48 1.258 . S
C59 O55 1.260 . S
C59 O56 1.258 . S
Zn60 O66 1.969 . S
Zn60 O67 1.965 . S
Zn60 O71 2.024 . S
Zn60 O76 1.969 . S
Zn61 O68 1.969 . S
Zn61 O74 1.969 . S
Zn61 O75 1.965 . S
Zn61 O77 2.024 . S
C62 O63 1.229 . S
C62 O71 1.058 . S
O63 C62 1.229 . S
C64 O65 1.229 . S
C64 O77 1.058 . S
O65 C64 1.229 . S
O66 Zn60 1.969 . S
O66 C69 1.267 . S
O67 Zn60 1.965 . S
O67 C78 1.260 . S
O68 Zn61 1.969 . S
O68 C78 1.258 . S
C69 O66 1.267 . S
C69 O70 1.228 . S
O70 C69 1.228 . S
O71 Zn60 2.024 . S
O71 C62 1.058 . S
C72 O73 1.228 . S
C72 O74 1.267 . S
O73 C72 1.228 . S
O74 Zn61 1.969 . S
O74 C72 1.267 . S
O75 Zn61 1.965 . S
O75 C79 1.260 . S
O76 Zn60 1.969 . S
O76 C79 1.258 . S
O77 Zn61 2.024 . S
O77 C64 1.058 . S
C78 O67 1.260 . S
C78 O68 1.258 . S
C79 O75 1.260 . S
C79 O76 1.258 . S
Zn80 O86 1.969 . S
Zn80 O87 1.965 . S
Zn80 O91 2.024 . S
Zn80 O96 1.969 . S
Zn81 O88 1.969 . S
Zn81 O94 1.969 . S
Zn81 O95 1.965 . S
Zn81 O97 2.024 . S
C82 O83 1.229 . S
C82 O91 1.058 . S
O83 C82 1.229 . S
C84 O85 1.229 . S
C84 O97 1.058 . S
O85 C84 1.229 . S
O86 Zn80 1.969 . S
O86 C89 1.267 . S
O87 Zn80 1.965 . S
O87 C98 1.260 . S
O88 Zn81 1.969 . S
O88 C98 1.258 . S
C89 O86 1.267 . S
C89 O90 1.228 . S
O90 C89 1.228 . S
O91 Zn80 2.024 . S
O91 C82 1.058 . S
C92 O93 1.228 . S
C92 O94 1.267 . S
O93 C92 1.228 . S
O94 Zn81 1.969 . S
O94 C92 1.267 . S
O95 Zn81 1.965 . S
O95 C99 1.260 . S
O96 Zn80 1.969 . S
O96 C99 1.258 . S
O97 Zn81 2.024 . S
O97 C84 1.058 . S
C98 O87 1.260 . S
C98 O88 1.258 . S
C99 O95 1.260 . S
C99 O96 1.258 . S
Zn100 O106 1.969 . S
Zn100 O107 1.965 . S
Zn100 O111 2.024 . S
Zn100 O116 1.969 . S
Zn101 O108 1.969 . S
Zn101 O114 1.969 . S
Zn101 O115 1.965 . S
Zn101 O117 2.024 . S
C102 O103 1.229 . S
C102 O111 1.058 . S
O103 C102 1.229 . S
C104 O105 1.229 . S
C104 O117 1.058 . S
O105 C104 1.229 . S
O106 Zn100 1.969 . S
O106 C109 1.267 . S
O107 Zn100 1.965 . S
O107 C118 1.260 . S
O108 Zn101 1.969 . S
O108 C118 1.258 . S
C109 O106 1.267 . S
C109 O110 1.228 . S
O110 C109 1.228 . S
O111 Zn100 2.024 . S
O111 C102 1.058 . S
C112 O113 1.228 . S
C112 O114 1.267 . S
O113 C112 1.228 . S
O114 Zn101 1.969 . S
O114 C112 1.267 . S
O115 Zn101 1.965 . S
O115 C119 1.260 . S
O116 Zn100 1.969 . S
O116 C119 1.258 . S
O117 Zn101 2.024 . S
O117 C104 1.058 . S
C118 O107 1.260 . S
C118 O108 1.258 . S
C119 O115 1.260 . S
C119 O116 1.258 . S
Zn120 O126 1.969 . S
Zn120 O127 1.965 . S
Zn120 O131 2.024 . S
Zn120 O136 1.969 . S
Zn121 O128 1.969 . S
Zn121 O134 1.969 . S
Zn121 O135 1.965 . S
Zn121 O137 2.024 . S
C122 O123 1.229 . S
C122 O131 1.058 . S
O123 C122 1.229 . S
C124 O125 1.229 . S
C124 O137 1.058 . S
O125 C124 1.229 . S
O126 Zn120 1.969 . S
O126 C129 1.267 . S
O127 Zn120 1.965 . S
O127 C138 1.260 . S
O128 Zn121 1.969 . S
O128 C138 1.258 . S
C129 O126 1.267 . S
C129 O130 1.228 . S
O130 C129 1.228 . S
O131 Zn120 2.024 . S
O131 C122 1.058 . S
C132 O133 1.228 . S
C132 O134 1.267 . S
O133 C132 1.228 . S
O134 Zn121 1.969 . S
O134 C132 1.267 . S
O135 Zn121 1.965 . S
O135 C139 1.260 . S
O136 Zn120 1.969 . S
O136 C139 1.258 . S
O137 Zn121 2.024 . S
O137 C124 1.058 . S
C138 O127 1.260 . S
C138 O128 1.258 . S
C139 O135 1.260 . S
C139 O136 1.258 . S
Zn140 O146 1.969 . S
Zn140 O147 1.965 . S
Zn140 O151 2.024 . S
Zn140 O156 1.969 . S
Zn141 O148 1.969 . S
Zn141 O154 1.969 . S
Zn141 O155 1.965 . S
Zn141 O157 2.024 . S
C142 O143 1.229 . S
C142 O151 1.058 . S
O143 C142 1.229 . S
C144 O145 1.229 . S
C144 O157 1.058 . S
O145 C144 1.229 . S
O146 Zn140 1.969 . S
O146 C149 1.267 . S
O147 Zn140 1.965 . S
O147 C158 1.260 . S
O148 Zn141 1.969 . S
O148 C158 1.258 . S
C149 O146 1.267 . S
C149 O150 1.228 . S
O150 C149 1.228 . S
O151 Zn140 2.024 . S
O151 C142 1.058 . S
C152 O153 1.228 . S
C152 O154 1.267 . S
O153 C152 1.228 . S
O154 Zn141 1.969 . S
O154 C152 1.267 . S
O155 Zn141 1.965 . S
O155 C159 1.260 . S
O156 Zn140 1.969 . S
O156 C159 1.258 . S
O157 Zn141 2.024 . S
O157 C144 1.058 . S
C158 O147 1.260 . S
C158 O148 1.258 . S
C159 O155 1.260 . S
C159 O156 1.258 . S
C160 O172 1.241 . S
C160 O173 1.280 . S
C161 O174 1.277 . S
C161 O175 1.245 . S
C162 O186 1.247 . S
C162 O188 1.289 . S
Mg163 O164 1.926 . S
Mg163 O173 1.984 . S
Mg163 O175 1.988 . S
Mg163 O176 2.061 1_655 S
O164 Mg163 1.926 . S
O164 Mg165 1.983 1_545 S
O164 Mg166 1.920 1_655 S
Mg165 O164 1.983 1_565 S
Mg165 O172 2.031 1_565 S
Mg165 O174 2.029 1_565 S
Mg165 O180 2.051 . S
Mg165 O188 2.249 . S
Mg166 O164 1.920 1_455 S
Mg166 O167 1.914 1_545 S
Mg166 O177 2.107 . S
Mg166 O179 2.077 1_445 S
Mg166 O188 2.106 1_445 S
Mg166 O189 2.080 . S
O167 Mg166 1.914 1_565 S
O167 Mg168 1.926 . S
O167 Mg169 1.986 1_565 S
Mg168 O167 1.926 . S
Mg168 O182 1.984 . S
Mg168 O185 1.988 . S
Mg168 O186 2.061 1_455 S
Mg169 O167 1.986 1_545 S
Mg169 O177 2.238 . S
Mg169 O181 2.042 1_545 S
Mg169 O183 2.041 1_545 S
Mg169 O190 2.038 . S
C170 O176 1.247 . S
C170 O177 1.289 . S
C171 O189 1.245 . S
C171 O190 1.274 . S
O172 C160 1.241 . S
O172 Mg165 2.031 1_545 S
O173 C160 1.280 . S
O173 Mg163 1.984 . S
O174 C161 1.277 . S
O174 Mg165 2.029 1_545 S
O175 C161 1.245 . S
O175 Mg163 1.988 . S
O176 Mg163 2.061 1_455 S
O176 C170 1.247 . S
O177 Mg166 2.107 . S
O177 Mg169 2.238 . S
O177 C170 1.289 . S
C178 O179 1.245 . S
C178 O180 1.274 . S
O179 Mg166 2.077 1_665 S
O179 C178 1.245 . S
O180 Mg165 2.051 . S
O180 C178 1.274 . S
O181 Mg169 2.042 1_565 S
O181 C184 1.241 . S
O182 Mg168 1.984 . S
O182 C184 1.280 . S
O183 Mg169 2.041 1_565 S
O183 C187 1.277 . S
C184 O181 1.241 . S
C184 O182 1.280 . S
O185 Mg168 1.988 . S
O185 C187 1.245 . S
O186 C162 1.247 . S
O186 Mg168 2.061 1_655 S
C187 O183 1.277 . S
C187 O185 1.245 . S
O188 C162 1.289 . S
O188 Mg165 2.249 . S
O188 Mg166 2.106 1_665 S
O189 Mg166 2.080 . S
O189 C171 1.245 . S
O190 Mg169 2.038 . S
O190 C171 1.274 . S
C191 O203 1.241 . S
C191 O204 1.280 . S
C192 O205 1.277 . S
C192 O206 1.245 . S
C193 O217 1.247 . S
C193 O219 1.289 . S
Mg194 O195 1.926 . S
Mg194 O204 1.984 . S
Mg194 O206 1.988 1_554 S
Mg194 O207 2.061 . S
O195 Mg194 1.926 . S
O195 Mg196 1.983 1_544 S
O195 Mg197 1.921 . S
Mg196 O195 1.983 1_566 S
Mg196 O203 2.031 1_566 S
Mg196 O205 2.029 1_565 S
Mg196 O211 2.051 1_556 S
Mg196 O219 2.249 . S
Mg197 O195 1.921 . S
Mg197 O198 1.913 1_544 S
Mg197 O208 2.108 . S
Mg197 O210 2.080 1_545 S
Mg197 O219 2.104 1_544 S
Mg197 O220 2.078 1_554 S
O198 Mg197 1.913 1_566 S
O198 Mg199 1.926 . S
O198 Mg200 1.986 1_566 S
Mg199 O198 1.926 . S
Mg199 O213 1.984 . S
Mg199 O216 1.988 1_556 S
Mg199 O217 2.061 . S
Mg200 O198 1.986 1_544 S
Mg200 O208 2.238 . S
Mg200 O212 2.042 1_544 S
Mg200 O214 2.041 1_545 S
Mg200 O221 2.038 1_554 S
C201 O207 1.247 . S
C201 O208 1.289 . S
C202 O220 1.245 . S
C202 O221 1.274 . S
O203 C191 1.241 . S
O203 Mg196 2.031 1_544 S
O204 C191 1.280 . S
O204 Mg194 1.984 . S
O205 C192 1.277 . S
O205 Mg196 2.029 1_545 S
O206 C192 1.245 . S
O206 Mg194 1.988 1_556 S
O207 Mg194 2.061 . S
O207 C201 1.247 . S
O208 Mg197 2.108 . S
O208 Mg200 2.238 . S
O208 C201 1.289 . S
C209 O210 1.245 . S
C209 O211 1.274 . S
O210 Mg197 2.080 1_565 S
O210 C209 1.245 . S
O211 Mg196 2.051 1_554 S
O211 C209 1.274 . S
O212 Mg200 2.042 1_566 S
O212 C215 1.241 . S
O213 Mg199 1.984 . S
O213 C215 1.280 . S
O214 Mg200 2.041 1_565 S
O214 C218 1.277 . S
C215 O212 1.241 . S
C215 O213 1.280 . S
O216 Mg199 1.988 1_554 S
O216 C218 1.245 . S
O217 C193 1.247 . S
O217 Mg199 2.061 . S
C218 O214 1.277 . S
C218 O216 1.245 . S
O219 C193 1.289 . S
O219 Mg196 2.249 . S
O219 Mg197 2.104 1_566 S
O220 Mg197 2.078 1_556 S
O220 C202 1.245 . S
O221 Mg200 2.038 1_556 S
O221 C202 1.274 . S
C222 O234 1.241 . S
C222 O235 1.280 . S
C223 O236 1.277 . S
C223 O237 1.245 . S
C224 O248 1.247 . S
C224 O250 1.289 . S
Mg225 O226 1.926 . S
Mg225 O235 1.984 . S
Mg225 O237 1.988 1_554 S
Mg225 O238 2.061 1_655 S
O226 Mg225 1.926 . S
O226 Mg227 1.986 1_554 S
O226 Mg228 1.918 1_655 S
Mg227 O226 1.986 1_556 S
Mg227 O234 2.042 1_556 S
Mg227 O236 2.041 . S
Mg227 O242 2.038 1_556 S
Mg227 O250 2.238 . S
Mg228 O226 1.918 1_455 S
Mg228 O229 1.916 1_554 S
Mg228 O239 2.108 . S
Mg228 O241 2.081 1_455 S
Mg228 O250 2.105 1_454 S
Mg228 O251 2.076 1_554 S
O229 Mg228 1.916 1_556 S
O229 Mg230 1.926 . S
O229 Mg231 1.986 1_556 S
Mg230 O229 1.926 . S
Mg230 O244 1.984 . S
Mg230 O247 1.988 1_556 S
Mg230 O248 2.061 1_455 S
Mg231 O229 1.986 1_554 S
Mg231 O239 2.238 . S
Mg231 O243 2.042 1_554 S
Mg231 O245 2.041 . S
Mg231 O252 2.038 1_554 S
C232 O238 1.247 . S
C232 O239 1.289 . S
C233 O251 1.245 . S
C233 O252 1.274 . S
O234 C222 1.241 . S
O234 Mg227 2.042 1_554 S
O235 C222 1.280 . S
O235 Mg225 1.984 . S
O236 C223 1.277 . S
O236 Mg227 2.041 . S
O237 C223 1.245 . S
O237 Mg225 1.988 1_556 S
O238 Mg225 2.061 1_455 S
O238 C232 1.247 . S
O239 Mg228 2.108 . S
O239 Mg231 2.238 . S
O239 C232 1.289 . S
C240 O241 1.245 . S
C240 O242 1.274 . S
O241 Mg228 2.081 1_655 S
O241 C240 1.245 . S
O242 Mg227 2.038 1_554 S
O242 C240 1.274 . S
O243 Mg231 2.042 1_556 S
O243 C246 1.241 . S
O244 Mg230 1.984 . S
O244 C246 1.280 . S
O245 Mg231 2.041 . S
O245 C249 1.277 . S
C246 O243 1.241 . S
C246 O244 1.280 . S
O247 Mg230 1.988 1_554 S
O247 C249 1.245 . S
O248 C224 1.247 . S
O248 Mg230 2.061 1_655 S
C249 O245 1.277 . S
C249 O247 1.245 . S
O250 C224 1.289 . S
O250 Mg227 2.238 . S
O250 Mg228 2.105 1_656 S
O251 Mg228 2.076 1_556 S
O251 C233 1.245 . S
O252 Mg231 2.038 1_556 S
O252 C233 1.274 . S
C253 O265 1.241 . S
C253 O266 1.280 . S
C254 O267 1.277 . S
C254 O268 1.245 . S
C255 O279 1.247 . S
C255 O281 1.289 . S
Mg256 O257 1.926 . S
Mg256 O266 1.984 . S
Mg256 O268 1.988 1_554 S
Mg256 O269 2.061 . S
O257 Mg256 1.926 . S
O257 Mg258 1.986 1_554 S
O257 Mg259 1.918 . S
Mg258 O257 1.986 1_556 S
Mg258 O265 2.042 1_556 S
Mg258 O267 2.041 . S
Mg258 O273 2.038 1_556 S
Mg258 O281 2.238 . S
Mg259 O257 1.918 . S
Mg259 O260 1.916 1_554 S
Mg259 O270 2.108 . S
Mg259 O272 2.081 . S
Mg259 O281 2.105 1_554 S
Mg259 O282 2.076 1_554 S
O260 Mg259 1.916 1_556 S
O260 Mg261 1.926 . S
O260 Mg262 1.986 1_556 S
Mg261 O260 1.926 . S
Mg261 O275 1.984 . S
Mg261 O278 1.988 1_556 S
Mg261 O279 2.061 . S
Mg262 O260 1.986 1_554 S
Mg262 O270 2.238 . S
Mg262 O274 2.042 1_554 S
Mg262 O276 2.041 . S
Mg262 O283 2.038 1_554 S
C263 O269 1.247 . S
C263 O270 1.289 . S
C264 O282 1.245 . S
C264 O283 1.274 . S
O265 C253 1.241 . S
O265 Mg258 2.042 1_554 S
O266 C253 1.280 . S
O266 Mg256 1.984 . S
O267 C254 1.277 . S
O267 Mg258 2.041 . S
O268 C254 1.245 . S
O268 Mg256 1.988 1_556 S
O269 Mg256 2.061 . S
O269 C263 1.247 . S
O270 Mg259 2.108 . S
O270 Mg262 2.238 . S
O270 C263 1.289 . S
C271 O272 1.245 . S
C271 O273 1.274 . S
O272 Mg259 2.081 . S
O272 C271 1.245 . S
O273 Mg258 2.038 1_554 S
O273 C271 1.274 . S
O274 Mg262 2.042 1_556 S
O274 C277 1.241 . S
O275 Mg261 1.984 . S
O275 C277 1.280 . S
O276 Mg262 2.041 . S
O276 C280 1.277 . S
C277 O274 1.241 . S
C277 O275 1.280 . S
O278 Mg261 1.988 1_554 S
O278 C280 1.245 . S
O279 C255 1.247 . S
O279 Mg261 2.061 . S
C280 O276 1.277 . S
C280 O278 1.245 . S
O281 C255 1.289 . S
O281 Mg258 2.238 . S
O281 Mg259 2.105 1_556 S
O282 Mg259 2.076 1_556 S
O282 C264 1.245 . S
O283 Mg262 2.038 1_556 S
O283 C264 1.274 . S
C284 O296 1.241 . S
C284 O297 1.280 . S
C285 O298 1.277 . S
C285 O299 1.245 . S
C286 O310 1.247 . S
C286 O312 1.289 . S
Mg287 O288 1.926 . S
Mg287 O297 1.984 . S
Mg287 O299 1.988 . S
Mg287 O300 2.061 1_655 S
O288 Mg287 1.926 . S
O288 Mg289 1.986 . S
O288 Mg290 1.917 1_655 S
Mg289 O288 1.986 . S
Mg289 O296 2.042 . S
Mg289 O298 2.041 . S
Mg289 O304 2.038 . S
Mg289 O312 2.238 . S
Mg290 O288 1.917 1_455 S
Mg290 O291 1.917 . S
Mg290 O301 2.106 . S
Mg290 O303 2.079 1_455 S
Mg290 O312 2.106 1_455 S
Mg290 O313 2.079 . S
O291 Mg290 1.917 . S
O291 Mg292 1.926 . S
O291 Mg293 1.986 . S
Mg292 O291 1.926 . S
Mg292 O306 1.984 . S
Mg292 O309 1.988 . S
Mg292 O310 2.061 1_455 S
Mg293 O291 1.986 . S
Mg293 O301 2.238 . S
Mg293 O305 2.042 . S
Mg293 O307 2.041 . S
Mg293 O314 2.038 . S
C294 O300 1.247 . S
C294 O301 1.289 . S
C295 O313 1.245 . S
C295 O314 1.274 . S
O296 C284 1.241 . S
O296 Mg289 2.042 . S
O297 C284 1.280 . S
O297 Mg287 1.984 . S
O298 C285 1.277 . S
O298 Mg289 2.041 . S
O299 C285 1.245 . S
O299 Mg287 1.988 . S
O300 Mg287 2.061 1_455 S
O300 C294 1.247 . S
O301 Mg290 2.106 . S
O301 Mg293 2.238 . S
O301 C294 1.289 . S
C302 O303 1.245 . S
C302 O304 1.274 . S
O303 Mg290 2.079 1_655 S
O303 C302 1.245 . S
O304 Mg289 2.038 . S
O304 C302 1.274 . S
O305 Mg293 2.042 . S
O305 C308 1.241 . S
O306 Mg292 1.984 . S
O306 C308 1.280 . S
O307 Mg293 2.041 . S
O307 C311 1.277 . S
C308 O305 1.241 . S
C308 O306 1.280 . S
O309 Mg292 1.988 . S
O309 C311 1.245 . S
O310 C286 1.247 . S
O310 Mg292 2.061 1_655 S
C311 O307 1.277 . S
C311 O309 1.245 . S
O312 C286 1.289 . S
O312 Mg289 2.238 . S
O312 Mg290 2.106 1_655 S
O313 Mg290 2.079 . S
O313 C295 1.245 . S
O314 Mg293 2.038 . S
O314 C295 1.274 . S
C315 O327 1.241 . S
C315 O328 1.280 . S
C316 O329 1.277 . S
C316 O330 1.245 . S
C317 O341 1.247 . S
C317 O343 1.289 . S
Mg318 O319 1.926 . S
Mg318 O328 1.984 . S
Mg318 O330 1.988 . S
Mg318 O331 2.061 . S
O319 Mg318 1.926 . S
O319 Mg320 1.983 1_545 S
O319 Mg321 1.920 . S
Mg320 O319 1.983 1_565 S
Mg320 O327 2.031 1_565 S
Mg320 O329 2.029 1_565 S
Mg320 O335 2.051 . S
Mg320 O343 2.249 . S
Mg321 O319 1.920 . S
Mg321 O322 1.914 1_545 S
Mg321 O332 2.107 . S
Mg321 O334 2.077 1_545 S
Mg321 O343 2.106 1_545 S
Mg321 O344 2.080 . S
O322 Mg321 1.914 1_565 S
O322 Mg323 1.926 . S
O322 Mg324 1.986 1_565 S
Mg323 O322 1.926 . S
Mg323 O337 1.984 . S
Mg323 O340 1.988 . S
Mg323 O341 2.061 . S
Mg324 O322 1.986 1_545 S
Mg324 O332 2.238 . S
Mg324 O336 2.042 1_545 S
Mg324 O338 2.041 1_545 S
Mg324 O345 2.038 . S
C325 O331 1.247 . S
C325 O332 1.289 . S
C326 O344 1.245 . S
C326 O345 1.274 . S
O327 C315 1.241 . S
O327 Mg320 2.031 1_545 S
O328 C315 1.280 . S
O328 Mg318 1.984 . S
O329 C316 1.277 . S
O329 Mg320 2.029 1_545 S
O330 C316 1.245 . S
O330 Mg318 1.988 . S
O331 Mg318 2.061 . S
O331 C325 1.247 . S
O332 Mg321 2.107 . S
O332 Mg324 2.238 . S
O332 C325 1.289 . S
C333 O334 1.245 . S
C333 O335 1.274 . S
O334 Mg321 2.077 1_565 S
O334 C333 1.245 . S
O335 Mg320 2.051 . S
O335 C333 1.274 . S
O336 Mg324 2.042 1_565 S
O336 C339 1.241 . S
O337 Mg323 1.984 . S
O337 C339 1.280 . S
O338 Mg324 2.041 1_565 S
O338 C342 1.277 . S
C339 O336 1.241 . S
C339 O337 1.280 . S
O340 Mg323 1.988 . S
O340 C342 1.245 . S
O341 C317 1.247 . S
O341 Mg323 2.061 . S
C342 O338 1.277 . S
C342 O340 1.245 . S
O343 C317 1.289 . S
O343 Mg320 2.249 . S
O343 Mg321 2.106 1_565 S
O344 Mg321 2.080 . S
O344 C326 1.245 . S
O345 Mg324 2.038 . S
O345 C326 1.274 . S
C346 C347 1.387 . S
C346 H350 0.950 . S
C346 C355 1.390 . S
C347 C346 1.387 . S
C347 C349 1.387 . S
H348 C355 0.950 . S
C349 C347 1.387 . S
C349 C351 1.390 . S
C349 H353 0.950 . S
H350 C346 0.950 . S
C351 C349 1.390 . S
C351 C352 1.387 . S
C351 H354 0.950 . S
C352 C351 1.387 . S
C352 C355 1.387 . S
H353 C349 0.950 . S
H354 C351 0.950 . S
C355 C346 1.390 . S
C355 H348 0.950 . S
C355 C352 1.387 . S
C356 C357 1.387 . S
C356 H360 0.950 . S
C356 C365 1.390 . S
C357 C356 1.387 . S
C357 C359 1.387 . S
H358 C365 0.950 . S
C359 C357 1.387 . S
C359 C361 1.390 . S
C359 H363 0.950 . S
H360 C356 0.950 . S
C361 C359 1.390 . S
C361 C362 1.387 . S
C361 H364 0.950 . S
C362 C361 1.387 . S
C362 C365 1.387 . S
H363 C359 0.950 . S
H364 C361 0.950 . S
C365 C356 1.390 . S
C365 H358 0.950 . S
C365 C362 1.387 . S
C366 C367 1.387 . S
C366 H370 0.950 . S
C366 C375 1.390 . S
C367 C366 1.387 . S
C367 C369 1.387 . S
H368 C375 0.950 . S
C369 C367 1.387 . S
C369 C371 1.390 . S
C369 H373 0.950 . S
H370 C366 0.950 . S
C371 C369 1.390 . S
C371 C372 1.387 . S
C371 H374 0.950 . S
C372 C371 1.387 . S
C372 C375 1.387 . S
H373 C369 0.950 . S
H374 C371 0.950 . S
C375 C366 1.390 . S
C375 H368 0.950 . S
C375 C372 1.387 . S
C376 C377 1.387 . S
C376 H380 0.950 . S
C376 C385 1.390 . S
C377 C376 1.387 . S
C377 C379 1.387 . S
H378 C385 0.950 . S
C379 C377 1.387 . S
C379 C381 1.390 . S
C379 H383 0.950 . S
H380 C376 0.950 . S
C381 C379 1.390 . S
C381 C382 1.387 . S
C381 H384 0.950 . S
C382 C381 1.387 . S
C382 C385 1.387 . S
H383 C379 0.950 . S
H384 C381 0.950 . S
C385 C376 1.390 . S
C385 H378 0.950 . S
C385 C382 1.387 . S
C386 C387 1.387 . S
C386 H390 0.950 . S
C386 C395 1.390 . S
C387 C386 1.387 . S
C387 C389 1.387 . S
H388 C395 0.950 . S
C389 C387 1.387 . S
C389 C391 1.390 . S
C389 H393 0.950 . S
H390 C386 0.950 . S
C391 C389 1.390 . S
C391 C392 1.387 . S
C391 H394 0.950 . S
C392 C391 1.387 . S
C392 C395 1.387 . S
H393 C389 0.950 . S
H394 C391 0.950 . S
C395 C386 1.390 . S
C395 H388 0.950 . S
C395 C392 1.387 . S
C396 C397 1.387 . S
C396 H400 0.950 . S
C396 C405 1.390 . S
C397 C396 1.387 . S
C397 C399 1.387 . S
H398 C405 0.950 . S
C399 C397 1.387 . S
C399 C401 1.390 . S
C399 H403 0.950 . S
H400 C396 0.950 . S
C401 C399 1.390 . S
C401 C402 1.387 . S
C401 H404 0.950 . S
C402 C401 1.387 . S
C402 C405 1.387 . S
H403 C399 0.950 . S
H404 C401 0.950 . S
C405 C396 1.390 . S
C405 H398 0.950 . S
C405 C402 1.387 . S
C406 C407 1.387 . S
C406 H410 0.950 . S
C406 C415 1.390 . S
C407 C406 1.387 . S
C407 C409 1.387 . S
H408 C415 0.950 . S
C409 C407 1.387 . S
C409 C411 1.390 . S
C409 H413 0.950 . S
H410 C406 0.950 . S
C411 C409 1.390 . S
C411 C412 1.387 . S
C411 H414 0.950 . S
C412 C411 1.387 . S
C412 C415 1.387 . S
H413 C409 0.950 . S
H414 C411 0.950 . S
C415 C406 1.390 . S
C415 H408 0.950 . S
C415 C412 1.387 . S
C416 C417 1.387 . S
C416 H420 0.950 . S
C416 C425 1.390 . S
C417 C416 1.387 . S
C417 C419 1.387 . S
H418 C425 0.950 . S
C419 C417 1.387 . S
C419 C421 1.390 . S
C419 H423 0.950 . S
H420 C416 0.950 . S
C421 C419 1.390 . S
C421 C422 1.387 . S
C421 H424 0.950 . S
C422 C421 1.387 . S
C422 C425 1.387 . S
H423 C419 0.950 . S
H424 C421 0.950 . S
C425 C416 1.390 . S
C425 H418 0.950 . S
C425 C422 1.387 . S
C426 C427 1.387 . S
C426 H430 0.950 . S
C426 C435 1.390 . S
C427 C426 1.387 . S
C427 C429 1.387 . S
H428 C435 0.950 . S
C429 C427 1.387 . S
C429 C431 1.390 . S
C429 H433 0.950 . S
H430 C426 0.950 . S
C431 C429 1.390 . S
C431 C432 1.387 . S
C431 H434 0.950 . S
C432 C431 1.387 . S
C432 C435 1.387 . S
H433 C429 0.950 . S
H434 C431 0.950 . S
C435 C426 1.390 . S
C435 H428 0.950 . S
C435 C432 1.387 . S
C436 C437 1.387 . S
C436 H440 0.950 . S
C436 C445 1.390 . S
C437 C436 1.387 . S
C437 C439 1.387 . S
H438 C445 0.950 . S
C439 C437 1.387 . S
C439 C441 1.390 . S
C439 H443 0.950 . S
H440 C436 0.950 . S
C441 C439 1.390 . S
C441 C442 1.387 . S
C441 H444 0.950 . S
C442 C441 1.387 . S
C442 C445 1.387 . S
H443 C439 0.950 . S
H444 C441 0.950 . S
C445 C436 1.390 . S
C445 H438 0.950 . S
C445 C442 1.387 . S
C446 C447 1.387 . S
C446 H450 0.950 . S
C446 C455 1.390 . S
C447 C446 1.387 . S
C447 C449 1.387 . S
H448 C455 0.950 . S
C449 C447 1.387 . S
C449 C451 1.390 . S
C449 H453 0.950 . S
H450 C446 0.950 . S
C451 C449 1.390 . S
C451 C452 1.387 . S
C451 H454 0.950 . S
C452 C451 1.387 . S
C452 C455 1.387 . S
H453 C449 0.950 . S
H454 C451 0.950 . S
C455 C446 1.390 . S
C455 H448 0.950 . S
C455 C452 1.387 . S
C456 C457 1.387 . S
C456 H460 0.950 . S
C456 C465 1.390 . S
C457 C456 1.387 . S
C457 C459 1.387 . S
H458 C465 0.950 . S
C459 C457 1.387 . S
C459 C461 1.390 . S
C459 H463 0.950 . S
H460 C456 0.950 . S
C461 C459 1.390 . S
C461 C462 1.387 . S
C461 H464 0.950 . S
C462 C461 1.387 . S
C462 C465 1.387 . S
H463 C459 0.950 . S
H464 C461 0.950 . S
C465 C456 1.390 . S
C465 H458 0.950 . S
C465 C462 1.387 . S
C466 C467 1.387 . S
C466 H470 0.950 . S
C466 C475 1.390 . S
C467 C466 1.387 . S
C467 C469 1.387 . S
H468 C475 0.950 . S
C469 C467 1.387 . S
C469 C471 1.390 . S
C469 H473 0.950 . S
H470 C466 0.950 . S
C471 C469 1.390 . S
C471 C472 1.387 . S
C471 H474 0.950 . S
C472 C471 1.387 . S
C472 C475 1.387 . S
H473 C469 0.950 . S
H474 C471 0.950 . S
C475 C466 1.390 . S
C475 H468 0.950 . S
C475 C472 1.387 . S
C476 C477 1.387 . S
C476 H480 0.950 . S
C476 C485 1.390 . S
C477 C476 1.387 . S
C477 C479 1.387 . S
H478 C485 0.950 . S
C479 C477 1.387 . S
C479 C481 1.390 . S
C479 H483 0.950 . S
H480 C476 0.950 . S
C481 C479 1.390 . S
C481 C482 1.387 . S
C481 H484 0.950 . S
C482 C481 1.387 . S
C482 C485 1.387 . S
H483 C479 0.950 . S
H484 C481 0.950 . S
C485 C476 1.390 . S
C485 H478 0.950 . S
C485 C482 1.387 . S
C486 C487 1.387 . S
C486 H490 0.950 . S
C486 C495 1.390 . S
C487 C486 1.387 . S
C487 C489 1.387 . S
H488 C495 0.950 . S
C489 C487 1.387 . S
C489 C491 1.390 . S
C489 H493 0.950 . S
H490 C486 0.950 . S
C491 C489 1.390 . S
C491 C492 1.387 . S
C491 H494 0.950 . S
C492 C491 1.387 . S
C492 C495 1.387 . S
H493 C489 0.950 . S
H494 C491 0.950 . S
C495 C486 1.390 . S
C495 H488 0.950 . S
C495 C492 1.387 . S
C496 C497 1.387 . S
C496 H500 0.950 . S
C496 C505 1.390 . S
C497 C496 1.387 . S
C497 C499 1.387 . S
H498 C505 0.950 . S
C499 C497 1.387 . S
C499 C501 1.390 . S
C499 H503 0.950 . S
H500 C496 0.950 . S
C501 C499 1.390 . S
C501 C502 1.387 . S
C501 H504 0.950 . S
C502 C501 1.387 . S
C502 C505 1.387 . S
H503 C499 0.950 . S
H504 C501 0.950 . S
C505 C496 1.390 . S
C505 H498 0.950 . S
C505 C502 1.387 . S
C506 C507 1.387 . S
C506 H510 0.950 . S
C506 C515 1.390 . S
C507 C506 1.387 . S
C507 C509 1.387 . S
H508 C515 0.950 . S
C509 C507 1.387 . S
C509 C511 1.390 . S
C509 H513 0.950 . S
H510 C506 0.950 . S
C511 C509 1.390 . S
C511 C512 1.387 . S
C511 H514 0.950 . S
C512 C511 1.387 . S
C512 C515 1.387 . S
H513 C509 0.950 . S
H514 C511 0.950 . S
C515 C506 1.390 . S
C515 H508 0.950 . S
C515 C512 1.387 . S
C516 C517 1.387 . S
C516 H520 0.950 . S
C516 C525 1.390 . S
C517 C516 1.387 . S
C517 C519 1.387 . S
H518 C525 0.950 . S
C519 C517 1.387 . S
C519 C521 1.390 . S
C519 H523 0.950 . S
H520 C516 0.950 . S
C521 C519 1.390 . S
C521 C522 1.387 . S
C521 H524 0.950 . S
C522 C521 1.387 . S
C522 C525 1.387 . S
H523 C519 0.950 . S
H524 C521 0.950 . S
C525 C516 1.390 . S
C525 H518 0.950 . S
C525 C522 1.387 . S
C526 C527 1.387 . S
C526 H530 0.950 . S
C526 C535 1.390 . S
C527 C526 1.387 . S
C527 C529 1.387 . S
H528 C535 0.950 . S
C529 C527 1.387 . S
C529 C531 1.390 . S
C529 H533 0.950 . S
H530 C526 0.950 . S
C531 C529 1.390 . S
C531 C532 1.387 . S
C531 H534 0.950 . S
C532 C531 1.387 . S
C532 C535 1.387 . S
H533 C529 0.950 . S
H534 C531 0.950 . S
C535 C526 1.390 . S
C535 H528 0.950 . S
C535 C532 1.387 . S
C536 C537 1.387 . S
C536 H540 0.950 . S
C536 C545 1.390 . S
C537 C536 1.387 . S
C537 C539 1.387 . S
H538 C545 0.950 . S
C539 C537 1.387 . S
C539 C541 1.390 . S
C539 H543 0.950 . S
H540 C536 0.950 . S
C541 C539 1.390 . S
C541 C542 1.387 . S
C541 H544 0.950 . S
C542 C541 1.387 . S
C542 C545 1.387 . S
H543 C539 0.950 . S
H544 C541 0.950 . S
C545 C536 1.390 . S
C545 H538 0.950 . S
C545 C542 1.387 . S
C546 C547 1.387 . S
C546 H550 0.950 . S
C546 C555 1.390 . S
C547 C546 1.387 . S
C547 C549 1.387 . S
H548 C555 0.950 . S
C549 C547 1.387 . S
C549 C551 1.390 . S
C549 H553 0.950 . S
H550 C546 0.950 . S
C551 C549 1.390 . S
C551 C552 1.387 . S
C551 H554 0.950 . S
C552 C551 1.387 . S
C552 C555 1.387 . S
H553 C549 0.950 . S
H554 C551 0.950 . S
C555 C546 1.390 . S
C555 H548 0.950 . S
C555 C552 1.387 . S
C556 C557 1.387 . S
C556 H560 0.950 . S
C556 C565 1.390 . S
C557 C556 1.387 . S
C557 C559 1.387 . S
H558 C565 0.950 . S
C559 C557 1.387 . S
C559 C561 1.390 . S
C559 H563 0.950 . S
H560 C556 0.950 . S
C561 C559 1.390 . S
C561 C562 1.387 . S
C561 H564 0.950 . S
C562 C561 1.387 . S
C562 C565 1.387 . S
H563 C559 0.950 . S
H564 C561 0.950 . S
C565 C556 1.390 . S
C565 H558 0.950 . S
C565 C562 1.387 . S
C566 C567 1.387 . S
C566 H570 0.950 . S
C566 C575 1.390 . S
C567 C566 1.387 . S
C567 C569 1.387 . S
H568 C575 0.950 . S
C569 C567 1.387 . S
C569 C571 1.390 . S
C569 H573 0.950 . S
H570 C566 0.950 . S
C571 C569 1.390 . S
C571 C572 1.387 . S
C571 H574 0.950 . S
C572 C571 1.387 . S
C572 C575 1.387 . S
H573 C569 0.950 . S
H574 C571 0.950 . S
C575 C566 1.390 . S
C575 H568 0.950 . S
C575 C572 1.387 . S
C576 C577 1.387 . S
C576 H580 0.950 . S
C576 C585 1.390 . S
C577 C576 1.387 . S
C577 C579 1.387 . S
H578 C585 0.950 . S
C579 C577 1.387 . S
C579 C581 1.390 . S
C579 H583 0.950 . S
H580 C576 0.950 . S
C581 C579 1.390 . S
C581 C582 1.387 . S
C581 H584 0.950 . S
C582 C581 1.387 . S
C582 C585 1.387 . S
H583 C579 0.950 . S
H584 C581 0.950 . S
C585 C576 1.390 . S
C585 H578 0.950 . S
C585 C582 1.387 . S
C586 C587 1.387 . S
C586 H590 0.950 . S
C586 C595 1.390 . S
C587 C586 1.387 . S
C587 C589 1.387 . S
H588 C595 0.950 . S
C589 C587 1.387 . S
C589 C591 1.390 . S
C589 H593 0.950 . S
H590 C586 0.950 . S
C591 C589 1.390 . S
C591 C592 1.387 . S
C591 H594 0.950 . S
C592 C591 1.387 . S
C592 C595 1.387 . S
H593 C589 0.950 . S
H594 C591 0.950 . S
C595 C586 1.390 . S
C595 H588 0.950 . S
C595 C592 1.387 . S
C596 C597 1.387 . S
C596 H600 0.950 . S
C596 C605 1.390 . S
C597 C596 1.387 . S
C597 C599 1.387 . S
H598 C605 0.950 . S
C599 C597 1.387 . S
C599 C601 1.390 . S
C599 H603 0.950 . S
H600 C596 0.950 . S
C601 C599 1.390 . S
C601 C602 1.387 . S
C601 H604 0.950 . S
C602 C601 1.387 . S
C602 C605 1.387 . S
H603 C599 0.950 . S
H604 C601 0.950 . S
C605 C596 1.390 . S
C605 H598 0.950 . S
C605 C602 1.387 . S
C606 C607 1.387 . S
C606 H610 0.950 . S
C606 C615 1.390 . S
C607 C606 1.387 . S
C607 C609 1.387 . S
H608 C615 0.950 . S
C609 C607 1.387 . S
C609 C611 1.390 . S
C609 H613 0.950 . S
H610 C606 0.950 . S
C611 C609 1.390 . S
C611 C612 1.387 . S
C611 H614 0.950 . S
C612 C611 1.387 . S
C612 C615 1.387 . S
H613 C609 0.950 . S
H614 C611 0.950 . S
C615 C606 1.390 . S
C615 H608 0.950 . S
C615 C612 1.387 . S
C616 C617 1.387 . S
C616 H620 0.950 . S
C616 C625 1.390 . S
C617 C616 1.387 . S
C617 C619 1.387 . S
H618 C625 0.950 . S
C619 C617 1.387 . S
C619 C621 1.390 . S
C619 H623 0.950 . S
H620 C616 0.950 . S
C621 C619 1.390 . S
C621 C622 1.387 . S
C621 H624 0.950 . S
C622 C621 1.387 . S
C622 C625 1.387 . S
H623 C619 0.950 . S
H624 C621 0.950 . S
C625 C616 1.390 . S
C625 H618 0.950 . S
C625 C622 1.387 . S
C626 C627 1.387 . S
C626 H630 0.950 . S
C626 C635 1.390 . S
C627 C626 1.387 . S
C627 C629 1.387 . S
H628 C635 0.950 . S
C629 C627 1.387 . S
C629 C631 1.390 . S
C629 H633 0.950 . S
H630 C626 0.950 . S
C631 C629 1.390 . S
C631 C632 1.387 . S
C631 H634 0.950 . S
C632 C631 1.387 . S
C632 C635 1.387 . S
H633 C629 0.950 . S
H634 C631 0.950 . S
C635 C626 1.390 . S
C635 H628 0.950 . S
C635 C632 1.387 . S
C636 C637 1.387 . S
C636 H640 0.950 . S
C636 C645 1.390 . S
C637 C636 1.387 . S
C637 C639 1.387 . S
H638 C645 0.950 . S
C639 C637 1.387 . S
C639 C641 1.390 . S
C639 H643 0.950 . S
H640 C636 0.950 . S
C641 C639 1.390 . S
C641 C642 1.387 . S
C641 H644 0.950 . S
C642 C641 1.387 . S
C642 C645 1.387 . S
H643 C639 0.950 . S
H644 C641 0.950 . S
C645 C636 1.390 . S
C645 H638 0.950 . S
C645 C642 1.387 . S
C646 C647 1.387 . S
C646 H650 0.950 . S
C646 C655 1.390 . S
C647 C646 1.387 . S
C647 C649 1.387 . S
H648 C655 0.950 . S
C649 C647 1.387 . S
C649 C651 1.390 . S
C649 H653 0.950 . S
H650 C646 0.950 . S
C651 C649 1.390 . S
C651 C652 1.387 . S
C651 H654 0.950 . S
C652 C651 1.387 . S
C652 C655 1.387 . S
H653 C649 0.950 . S
H654 C651 0.950 . S
C655 C646 1.390 . S
C655 H648 0.950 . S
C655 C652 1.387 . S
C656 C657 1.387 . S
C656 H660 0.950 . S
C656 C665 1.390 . S
C657 C656 1.387 . S
C657 C659 1.387 . S
H658 C665 0.950 . S
C659 C657 1.387 . S
C659 C661 1.390 . S
C659 H663 0.950 . S
H660 C656 0.950 . S
C661 C659 1.390 . S
C661 C662 1.387 . S
C661 H664 0.950 . S
C662 C661 1.387 . S
C662 C665 1.387 . S
H663 C659 0.950 . S
H664 C661 0.950 . S
C665 C656 1.390 . S
C665 H658 0.950 . S
C665 C662 1.387 . S
C666 C667 1.387 . S
C666 H670 0.950 . S
C666 C675 1.390 . S
C667 C666 1.387 . S
C667 C669 1.387 . S
H668 C675 0.950 . S
C669 C667 1.387 . S
C669 C671 1.390 . S
C669 H673 0.950 . S
H670 C666 0.950 . S
C671 C669 1.390 . S
C671 C672 1.387 . S
C671 H674 0.950 . S
C672 C671 1.387 . S
C672 C675 1.387 . S
H673 C669 0.950 . S
H674 C671 0.950 . S
C675 C666 1.390 . S
C675 H668 0.950 . S
C675 C672 1.387 . S
C676 C677 1.387 . S
C676 H680 0.950 . S
C676 C685 1.390 . S
C677 C676 1.387 . S
C677 C679 1.387 . S
H678 C685 0.950 . S
C679 C677 1.387 . S
C679 C681 1.390 . S
C679 H683 0.950 . S
H680 C676 0.950 . S
C681 C679 1.390 . S
C681 C682 1.387 . S
C681 H684 0.950 . S
C682 C681 1.387 . S
C682 C685 1.387 . S
H683 C679 0.950 . S
H684 C681 0.950 . S
C685 C676 1.390 . S
C685 H678 0.950 . S
C685 C682 1.387 . S
C686 C687 1.387 . S
C686 H690 0.950 . S
C686 C695 1.390 . S
C687 C686 1.387 . S
C687 C689 1.387 . S
H688 C695 0.950 . S
C689 C687 1.387 . S
C689 C691 1.390 . S
C689 H693 0.950 . S
H690 C686 0.950 . S
C691 C689 1.390 . S
C691 C692 1.387 . S
C691 H694 0.950 . S
C692 C691 1.387 . S
C692 C695 1.387 . S
H693 C689 0.950 . S
H694 C691 0.950 . S
C695 C686 1.390 . S
C695 H688 0.950 . S
C695 C692 1.387 . S
C696 C697 1.387 . S
C696 H700 0.950 . S
C696 C705 1.390 . S
C697 C696 1.387 . S
C697 C699 1.387 . S
H698 C705 0.950 . S
C699 C697 1.387 . S
C699 C701 1.390 . S
C699 H703 0.950 . S
H700 C696 0.950 . S
C701 C699 1.390 . S
C701 C702 1.387 . S
C701 H704 0.950 . S
C702 C701 1.387 . S
C702 C705 1.387 . S
H703 C699 0.950 . S
H704 C701 0.950 . S
C705 C696 1.390 . S
C705 H698 0.950 . S
C705 C702 1.387 . S
C706 C707 1.387 . S
C706 H710 0.950 . S
C706 C715 1.390 . S
C707 C706 1.387 . S
C707 C709 1.387 . S
H708 C715 0.950 . S
C709 C707 1.387 . S
C709 C711 1.390 . S
C709 H713 0.950 . S
H710 C706 0.950 . S
C711 C709 1.390 . S
C711 C712 1.387 . S
C711 H714 0.950 . S
C712 C711 1.387 . S
C712 C715 1.387 . S
H713 C709 0.950 . S
H714 C711 0.950 . S
C715 C706 1.390 . S
C715 H708 0.950 . S
C715 C712 1.387 . S
C716 C717 1.387 . S
C716 H720 0.950 . S
C716 C725 1.390 . S
C717 C716 1.387 . S
C717 C719 1.387 . S
H718 C725 0.950 . S
C719 C717 1.387 . S
C719 C721 1.390 . S
C719 H723 0.950 . S
H720 C716 0.950 . S
C721 C719 1.390 . S
C721 C722 1.387 . S
C721 H724 0.950 . S
C722 C721 1.387 . S
C722 C725 1.387 . S
H723 C719 0.950 . S
H724 C721 0.950 . S
C725 C716 1.390 . S
C725 H718 0.950 . S
C725 C722 1.387 . S
C726 C727 1.387 . S
C726 H730 0.950 . S
C726 C735 1.390 . S
C727 C726 1.387 . S
C727 C729 1.387 . S
H728 C735 0.950 . S
C729 C727 1.387 . S
C729 C731 1.390 . S
C729 H733 0.950 . S
H730 C726 0.950 . S
C731 C729 1.390 . S
C731 C732 1.387 . S
C731 H734 0.950 . S
C732 C731 1.387 . S
C732 C735 1.387 . S
H733 C729 0.950 . S
H734 C731 0.950 . S
C735 C726 1.390 . S
C735 H728 0.950 . S
C735 C732 1.387 . S
C736 C737 1.387 . S
C736 H740 0.950 . S
C736 C745 1.390 . S
C737 C736 1.387 . S
C737 C739 1.387 . S
H738 C745 0.950 . S
C739 C737 1.387 . S
C739 C741 1.390 . S
C739 H743 0.950 . S
H740 C736 0.950 . S
C741 C739 1.390 . S
C741 C742 1.387 . S
C741 H744 0.950 . S
C742 C741 1.387 . S
C742 C745 1.387 . S
H743 C739 0.950 . S
H744 C741 0.950 . S
C745 C736 1.390 . S
C745 H738 0.950 . S
C745 C742 1.387 . S
C746 C747 1.387 . S
C746 H750 0.950 . S
C746 C755 1.390 . S
C747 C746 1.387 . S
C747 C749 1.387 . S
H748 C755 0.950 . S
C749 C747 1.387 . S
C749 C751 1.390 . S
C749 H753 0.950 . S
H750 C746 0.950 . S
C751 C749 1.390 . S
C751 C752 1.387 . S
C751 H754 0.950 . S
C752 C751 1.387 . S
C752 C755 1.387 . S
H753 C749 0.950 . S
H754 C751 0.950 . S
C755 C746 1.390 . S
C755 H748 0.950 . S
C755 C752 1.387 . S
C756 C757 1.387 . S
C756 H760 0.950 . S
C756 C765 1.390 . S
C757 C756 1.387 . S
C757 C759 1.387 . S
H758 C765 0.950 . S
C759 C757 1.387 . S
C759 C761 1.390 . S
C759 H763 0.950 . S
H760 C756 0.950 . S
C761 C759 1.390 . S
C761 C762 1.387 . S
C761 H764 0.950 . S
C762 C761 1.387 . S
C762 C765 1.387 . S
H763 C759 0.950 . S
H764 C761 0.950 . S
C765 C756 1.390 . S
C765 H758 0.950 . S
C765 C762 1.387 . S
C766 C767 1.387 . S
C766 H770 0.950 . S
C766 C775 1.390 . S
C767 C766 1.387 . S
C767 C769 1.387 . S
H768 C775 0.950 . S
C769 C767 1.387 . S
C769 C771 1.390 . S
C769 H773 0.950 . S
H770 C766 0.950 . S
C771 C769 1.390 . S
C771 C772 1.387 . S
C771 H774 0.950 . S
C772 C771 1.387 . S
C772 C775 1.387 . S
H773 C769 0.950 . S
H774 C771 0.950 . S
C775 C766 1.390 . S
C775 H768 0.950 . S
C775 C772 1.387 . S
C776 C777 1.387 . S
C776 H780 0.950 . S
C776 C785 1.390 . S
C777 C776 1.387 . S
C777 C779 1.387 . S
H778 C785 0.950 . S
C779 C777 1.387 . S
C779 C781 1.390 . S
C779 H783 0.950 . S
H780 C776 0.950 . S
C781 C779 1.390 . S
C781 C782 1.387 . S
C781 H784 0.950 . S
C782 C781 1.387 . S
C782 C785 1.387 . S
H783 C779 0.950 . S
H784 C781 0.950 . S
C785 C776 1.390 . S
C785 H778 0.950 . S
C785 C782 1.387 . S
C786 C787 1.387 . S
C786 H790 0.950 . S
C786 C795 1.390 . S
C787 C786 1.387 . S
C787 C789 1.387 . S
H788 C795 0.950 . S
C789 C787 1.387 . S
C789 C791 1.390 . S
C789 H793 0.950 . S
H790 C786 0.950 . S
C791 C789 1.390 . S
C791 C792 1.387 . S
C791 H794 0.950 . S
C792 C791 1.387 . S
C792 C795 1.387 . S
H793 C789 0.950 . S
H794 C791 0.950 . S
C795 C786 1.390 . S
C795 H788 0.950 . S
C795 C792 1.387 . S
C796 C797 1.387 . S
C796 H800 0.950 . S
C796 C805 1.390 . S
C797 C796 1.387 . S
C797 C799 1.387 . S
H798 C805 0.950 . S
C799 C797 1.387 . S
C799 C801 1.390 . S
C799 H803 0.950 . S
H800 C796 0.950 . S
C801 C799 1.390 . S
C801 C802 1.387 . S
C801 H804 0.950 . S
C802 C801 1.387 . S
C802 C805 1.387 . S
H803 C799 0.950 . S
H804 C801 0.950 . S
C805 C796 1.390 . S
C805 H798 0.950 . S
C805 C802 1.387 . S
C806 C807 1.387 . S
C806 H810 0.950 . S
C806 C815 1.390 . S
C807 C806 1.387 . S
C807 C809 1.387 . S
H808 C815 0.950 . S
C809 C807 1.387 . S
C809 C811 1.390 . S
C809 H813 0.950 . S
H810 C806 0.950 . S
C811 C809 1.390 . S
C811 C812 1.387 . S
C811 H814 0.950 . S
C812 C811 1.387 . S
C812 C815 1.387 . S
H813 C809 0.950 . S
H814 C811 0.950 . S
C815 C806 1.390 . S
C815 H808 0.950 . S
C815 C812 1.387 . S
C816 C817 1.387 . S
C816 H820 0.950 . S
C816 C825 1.390 . S
C817 C816 1.387 . S
C817 C819 1.387 . S
H818 C825 0.950 . S
C819 C817 1.387 . S
C819 C821 1.390 . S
C819 H823 0.950 . S
H820 C816 0.950 . S
C821 C819 1.390 . S
C821 C822 1.387 . S
C821 H824 0.950 . S
C822 C821 1.387 . S
C822 C825 1.387 . S
H823 C819 0.950 . S
H824 C821 0.950 . S
C825 C816 1.390 . S
C825 H818 0.950 . S
C825 C822 1.387 . S
C352 C171 2.206 . S
C347 C19 2.176 . S
C362 C161 1.609 . S
C357 C24 1.559 . S
C372 C162 1.184 . S
C367 C59 1.180 . S
C377 C69 1.362 . S
C382 C184 1.368 . S
C387 C82 1.558 . S
C392 C187 1.608 . S
C402 C170 1.184 . S
C397 C118 1.179 . S
C407 C132 1.359 . S
C412 C160 1.372 . S
C417 C158 2.178 . S
C422 C178 2.207 . S
C432 C191 1.695 . S
C427 C4 1.566 . S
C437 C29 1.025 . S
C442 C240 1.012 . S
C452 C218 1.622 . S
C447 C44 1.515 . S
C462 C232 1.150 . S
C457 C79 1.180 . S
C467 C98 1.173 . S
C472 C193 1.173 . S
C482 C246 1.380 . S
C477 C112 1.347 . S
C487 C122 1.254 . S
C492 C202 1.271 . S
C497 C152 1.306 . S
C502 C223 1.364 . S
C507 C9 1.309 . S
C512 C249 1.363 . S
C517 C92 1.027 . S
C522 C233 1.008 . S
C532 C192 1.621 . S
C527 C102 1.515 . S
C542 C224 1.153 . S
C537 C138 1.183 . S
C547 C142 1.568 . S
C552 C215 1.694 . S
C557 C49 1.350 . S
C562 C222 1.384 . S
C572 C209 1.275 . S
C567 C64 1.259 . S
C577 C39 1.173 . S
C582 C201 1.173 . S
C587 C159 2.177 . S
C592 C264 2.204 . S
C597 C84 1.558 . S
C602 C254 1.609 . S
C612 C255 1.184 . S
C607 C119 1.179 . S
C622 C277 1.372 . S
C617 C129 1.358 . S
C627 C22 1.556 . S
C632 C280 1.611 . S
C642 C263 1.182 . S
C637 C58 1.182 . S
C647 C72 1.361 . S
C652 C253 1.371 . S
C657 C18 2.177 . S
C662 C271 2.205 . S
C667 C144 1.570 . S
C672 C284 1.698 . S
C682 C333 1.012 . S
C677 C89 1.025 . S
C687 C104 1.515 . S
C692 C311 1.621 . S
C697 C139 1.181 . S
C702 C325 1.150 . S
C712 C286 1.174 . S
C707 C38 1.172 . S
C717 C52 1.353 . S
C722 C339 1.384 . S
C732 C295 1.274 . S
C727 C62 1.255 . S
C742 C316 1.363 . S
C737 C12 1.309 . S
C752 C342 1.366 . S
C747 C149 1.310 . S
C757 C32 1.027 . S
C762 C326 1.008 . S
C767 C42 1.519 . S
C772 C285 1.624 . S
C782 C317 1.152 . S
C777 C78 1.183 . S
C787 C2 1.571 . S
C792 C308 1.695 . S
C797 C109 1.352 . S
C802 C315 1.382 . S
C812 C302 1.271 . S
C807 C124 1.254 . S
C822 C294 1.172 . S
C817 C99 1.175 . S
