# Generated by pormake.
# Topology anh, (6,3)-cn, num edge types: 1
# Building blocks:
#     Node 0, Type 0, BuildingBlock: BETDAH_clean_sbu_0, # of connection points: 6
#     Node 1, Type 0, BuildingBlock: BETDAH_clean_sbu_0, # of connection points: 6
#     Node 2, Type 0, BuildingBlock: BETDAH_clean_sbu_0, # of connection points: 6
#     Node 3, Type 1, BuildingBlock: OLANEW_clean_sbu_2, # of connection points: 3
#     Node 4, Type 1, BuildingBlock: OLANEW_clean_sbu_2, # of connection points: 3
#     Node 5, Type 1, BuildingBlock: OLANEW_clean_sbu_2, # of connection points: 3
#     Node 6, Type 1, BuildingBlock: OLANEW_clean_sbu_2, # of connection points: 3
#     Node 7, Type 1, BuildingBlock: OLANEW_clean_sbu_2, # of connection points: 3
#     Node 8, Type 1, BuildingBlock: OLANEW_clean_sbu_2, # of connection points: 3
#     Edge 9, Type (0, 1), BuildingBlock: EZIPEK_clean_linker_0, # of connection points: 2
#     Edge 10, Type (0, 1), BuildingBlock: EZIPEK_clean_linker_0, # of connection points: 2
#     Edge 11, Type (0, 1), BuildingBlock: EZIPEK_clean_linker_0, # of connection points: 2
#     Edge 12, Type (0, 1), BuildingBlock: EZIPEK_clean_linker_0, # of connection points: 2
#     Edge 13, Type (0, 1), BuildingBlock: EZIPEK_clean_linker_0, # of connection points: 2
#     Edge 14, Type (0, 1), BuildingBlock: EZIPEK_clean_linker_0, # of connection points: 2
#     Edge 15, Type (0, 1), BuildingBlock: EZIPEK_clean_linker_0, # of connection points: 2
#     Edge 16, Type (0, 1), BuildingBlock: EZIPEK_clean_linker_0, # of connection points: 2
#     Edge 17, Type (0, 1), BuildingBlock: EZIPEK_clean_linker_0, # of connection points: 2
#     Edge 18, Type (0, 1), BuildingBlock: EZIPEK_clean_linker_0, # of connection points: 2
#     Edge 19, Type (0, 1), BuildingBlock: EZIPEK_clean_linker_0, # of connection points: 2
#     Edge 20, Type (0, 1), BuildingBlock: EZIPEK_clean_linker_0, # of connection points: 2
#     Edge 21, Type (0, 1), BuildingBlock: EZIPEK_clean_linker_0, # of connection points: 2
#     Edge 22, Type (0, 1), BuildingBlock: EZIPEK_clean_linker_0, # of connection points: 2
#     Edge 23, Type (0, 1), BuildingBlock: EZIPEK_clean_linker_0, # of connection points: 2
#     Edge 24, Type (0, 1), BuildingBlock: EZIPEK_clean_linker_0, # of connection points: 2
#     Edge 25, Type (0, 1), BuildingBlock: EZIPEK_clean_linker_0, # of connection points: 2
#     Edge 26, Type (0, 1), BuildingBlock: EZIPEK_clean_linker_0, # of connection points: 2
# Relax obj value: 0.195
# Max RMSD: 0.197
# Mean RMSD: 0.124
data_MOF--net-anh--node1-BETDAH_clean_sbu_0--node2-OLANEW_clean_sbu_2--edge1-EZIPEK_clean_linker_0
_symmetry_space_group_name_H-M    P1
_symmetry_Int_Tables_number       1
_symmetry_cell_setting            triclinic
loop_
_symmetry_equiv_pos_as_xyz
'x, y, z'
_cell_length_a     29.344982
_cell_length_b     33.737114
_cell_length_c     37.005753
_cell_angle_alpha  91.948742
_cell_angle_beta   89.725116
_cell_angle_gamma 132.94485
loop_
_atom_site_label
_atom_site_type_symbol
_atom_site_fract_x
_atom_site_fract_y
_atom_site_fract_z
_atom_type_partial_charge
Ho0 Ho 0.05532 0.50234 0.13382 0.0
Ho1 Ho 0.96255 0.51482 0.14201 0.0
C2 C 0.11055 0.62169 0.15088 0.0
C3 C 0.12498 0.48586 0.11232 0.0
C4 C 0.18705 0.5098 0.12385 0.0
C5 C 0.22196 0.5534 0.14948 0.0
C6 C 0.27907 0.57334 0.16268 0.0
C7 C 0.30136 0.54959 0.15039 0.0
C8 C 0.267 0.50675 0.12426 0.0
C9 C 0.20996 0.48685 0.11109 0.0
C10 C 0.03363 0.51044 0.20328 0.0
C11 C 0.9085 0.3966 0.13262 0.0
C12 C 0.89313 0.53161 0.16368 0.0
C13 C 0.8282 0.49641 0.17428 0.0
C14 C 0.794 0.4424 0.18303 0.0
C15 C 0.72997 0.40739 0.1886 0.0
C16 C 0.69997 0.42622 0.18504 0.0
C17 C 0.73472 0.48065 0.17759 0.0
C18 C 0.7985 0.51555 0.17224 0.0
C19 C 0.98843 0.50766 0.07322 0.0
O20 O 0.12411 0.59213 0.14356 0.0
O21 O 0.05294 0.60107 0.15029 0.0
O22 O 0.08231 0.45699 0.13659 0.0
O23 O 0.12227 0.51824 0.09627 0.0
O24 O 0.08527 0.52554 0.19221 0.0
O25 O 0.99373 0.4859 0.17754 0.0
O26 O 0.89893 0.42596 0.14824 0.0
O27 O 0.9625 0.41908 0.11834 0.0
O28 O 0.90081 0.52653 0.12958 0.0
O29 O 0.93047 0.5345 0.18539 0.0
O30 O 0.93358 0.48636 0.08339 0.0
O31 O 0.02663 0.53365 0.09948 0.0
H32 H 0.20447 0.57128 0.1597 0.0
H33 H 0.30538 0.60656 0.18274 0.0
H34 H 0.28398 0.48826 0.11452 0.0
H35 H 0.18326 0.453 0.09149 0.0
H36 H 0.81639 0.42697 0.18445 0.0
H37 H 0.70356 0.36542 0.19428 0.0
H38 H 0.71197 0.49561 0.17478 0.0
H39 H 0.82422 0.55698 0.16529 0.0
Ho40 Ho 0.55516 0.01184 0.49291 0.0
Ho41 Ho 0.46797 0.02969 0.47549 0.0
C42 C 0.40628 0.9073 0.47566 0.0
C43 C 0.60759 0.98462 0.52537 0.0
C44 C 0.59188 0.93624 0.53943 0.0
C45 C 0.54814 0.9063 0.56681 0.0
C46 C 0.53868 0.86383 0.58202 0.0
C47 C 0.5724 0.85054 0.56988 0.0
C48 C 0.61482 0.87947 0.54201 0.0
C49 C 0.62463 0.92209 0.52701 0.0
C50 C 0.54991 0.02736 0.42279 0.0
C51 C 0.61864 0.13417 0.48697 0.0
C52 C 0.42087 0.06587 0.45062 0.0
C53 C 0.44009 0.11904 0.45675 0.0
C54 C 0.5012 0.16755 0.44986 0.0
C55 C 0.52167 0.21751 0.46114 0.0
C56 C 0.48164 0.21969 0.47971 0.0
C57 C 0.41998 0.1717 0.48527 0.0
C58 C 0.39926 0.12171 0.47371 0.0
C59 C 0.47849 0.01819 0.54593 0.0
O60 O 0.45985 0.92611 0.48954 0.0
O61 O 0.39991 0.94008 0.46412 0.0
O62 O 0.60677 0.98724 0.49019 0.0
O63 O 0.58486 0.00241 0.54232 0.0
O64 O 0.5987 0.0416 0.43885 0.0
O65 O 0.50411 0.0003 0.44367 0.0
O66 O 0.5635 0.1146 0.47588 0.0
O67 O 0.62628 0.10263 0.49925 0.0
O68 O 0.39975 0.03626 0.47904 0.0
O69 O 0.45841 0.06511 0.43205 0.0
O70 O 0.42847 0.00323 0.53142 0.0
O71 O 0.52101 0.04303 0.52322 0.0
H72 H 0.52221 0.9163 0.57701 0.0
H73 H 0.50588 0.84191 0.60359 0.0
H74 H 0.64129 0.86973 0.53243 0.0
H75 H 0.65884 0.94481 0.50617 0.0
H76 H 0.534 0.16698 0.43701 0.0
H77 H 0.56935 0.25431 0.4566 0.0
H78 H 0.38863 0.17288 0.49962 0.0
H79 H 0.35213 0.08494 0.47945 0.0
Ho80 Ho 0.61626 0.58646 0.87257 0.0
Ho81 Ho 0.52291 0.46457 0.87822 0.0
C82 C 0.47387 0.52589 0.87819 0.0
C83 C 0.69239 0.68364 0.84991 0.0
C84 C 0.67982 0.71321 0.83127 0.0
C85 C 0.62512 0.68479 0.81001 0.0
C86 C 0.6087 0.71183 0.79642 0.0
C87 C 0.64654 0.76746 0.80412 0.0
C88 C 0.70205 0.7962 0.82445 0.0
C89 C 0.71862 0.76918 0.83795 0.0
C90 C 0.5817 0.55267 0.94079 0.0
C91 C 0.66757 0.52564 0.87929 0.0
C92 C 0.44008 0.3618 0.88742 0.0
C93 C 0.43811 0.31947 0.87282 0.0
C94 C 0.49383 0.33164 0.86689 0.0
C95 C 0.49296 0.29449 0.84821 0.0
C96 C 0.43649 0.24478 0.83494 0.0
C97 C 0.38059 0.23192 0.84152 0.0
C98 C 0.38143 0.26912 0.86036 0.0
C99 C 0.55955 0.50142 0.81061 0.0
O100 O 0.52592 0.56488 0.86156 0.0
O101 O 0.46693 0.48678 0.89298 0.0
O102 O 0.67361 0.67237 0.88324 0.0
O103 O 0.67859 0.64256 0.83162 0.0
O104 O 0.59731 0.59645 0.92962 0.0
O105 O 0.59085 0.53208 0.9163 0.0
O106 O 0.61031 0.4805 0.88664 0.0
O107 O 0.68001 0.57004 0.87052 0.0
O108 O 0.43419 0.38521 0.863 0.0
O109 O 0.48443 0.39661 0.91137 0.0
O110 O 0.55 0.46052 0.82195 0.0
O111 O 0.54698 0.51917 0.83505 0.0
H112 H 0.59403 0.64139 0.80495 0.0
H113 H 0.56547 0.68911 0.78102 0.0
H114 H 0.73143 0.83914 0.83078 0.0
H115 H 0.76049 0.79155 0.85467 0.0
H116 H 0.53828 0.37056 0.87565 0.0
H117 H 0.53649 0.30506 0.84323 0.0
H118 H 0.33665 0.19373 0.8313 0.0
H119 H 0.33813 0.25938 0.86414 0.0
O120 O 0.60503 0.07304 0.25386 0.0
Cd121 Cd 0.60401 0.07145 0.18769 0.0
O122 O 0.5104 0.99506 0.24483 0.0
Cd123 Cd 0.41938 0.91994 0.25876 0.0
O124 O 0.33432 0.8421 0.23759 0.0
C125 C 0.32436 0.83785 0.20367 0.0
O126 O 0.36362 0.88028 0.18393 0.0
C127 C 0.55415 0.03144 0.26673 0.0
C128 C 0.70427 0.17272 0.16276 0.0
O129 O 0.65344 0.16033 0.17077 0.0
O130 O 0.7073 0.13681 0.16576 0.0
O131 O 0.60627 0.51316 0.64158 0.0
Cd132 Cd 0.62117 0.51996 0.57623 0.0
O133 O 0.59234 0.56909 0.63974 0.0
Cd134 Cd 0.57646 0.61971 0.66144 0.0
O135 O 0.57087 0.68045 0.65517 0.0
C136 C 0.5605 0.68499 0.62297 0.0
O137 O 0.5514 0.65239 0.59713 0.0
C138 C 0.59537 0.53963 0.65787 0.0
C139 C 0.57606 0.42314 0.5437 0.0
O140 O 0.63199 0.45851 0.55648 0.0
O141 O 0.54132 0.43336 0.54611 0.0
O142 O 0.11873 0.52759 0.92589 0.0
Cd143 Cd 0.19021 0.54451 0.8769 0.0
O144 O 0.05451 0.53316 0.90029 0.0
Cd145 Cd 0.97916 0.53563 0.90116 0.0
O146 O 0.91159 0.54669 0.89457 0.0
C147 C 0.85232 0.50847 0.89574 0.0
O148 O 0.82778 0.45904 0.90121 0.0
C149 C 0.07428 0.52662 0.92804 0.0
C150 C 0.27887 0.53349 0.88369 0.0
O151 O 0.28654 0.57148 0.90077 0.0
O152 O 0.22789 0.49876 0.86523 0.0
O153 O 0.05006 0.5461 0.37743 0.0
Cd154 Cd 0.06868 0.57119 0.44224 0.0
O155 O 0.94717 0.48754 0.37228 0.0
Cd156 Cd 0.92383 0.46797 0.42923 0.0
O157 O 0.8627 0.39765 0.46359 0.0
C158 C 0.80868 0.3579 0.45029 0.0
O159 O 0.79217 0.36252 0.41897 0.0
C160 C 1.00031 0.51616 0.35795 0.0
C161 C 0.18162 0.67925 0.45343 0.0
O162 O 0.17991 0.64028 0.4536 0.0
O163 O 0.13034 0.66754 0.44846 0.0
O164 O 0.52753 0.95344 0.69337 0.0
Cd165 Cd 0.55012 0.94852 0.75562 0.0
O166 O 0.52614 0.01212 0.71867 0.0
Cd167 Cd 0.51446 0.06952 0.72127 0.0
O168 O 0.50386 0.12228 0.74658 0.0
C169 C 0.45022 0.10559 0.75077 0.0
O170 O 0.40062 0.05702 0.7382 0.0
C171 C 0.52121 0.98686 0.69041 0.0
C172 C 0.5759 0.88437 0.76624 0.0
O173 O 0.52013 0.86452 0.76851 0.0
O174 O 0.61918 0.93393 0.7579 0.0
O175 O 0.4635 0.45378 0.09945 0.0
Cd176 Cd 0.42552 0.41598 0.15958 0.0
O177 O 0.56472 0.51486 0.1125 0.0
Cd178 Cd 0.54767 0.51586 0.16938 0.0
O179 O 0.48705 0.52828 0.18476 0.0
C180 C 0.50839 0.57601 0.18657 0.0
O181 O 0.56877 0.61771 0.18572 0.0
C182 C 0.51978 0.48871 0.08946 0.0
C183 C 0.48086 0.37743 0.17701 0.0
O184 O 0.42801 0.346 0.1602 0.0
O185 O 0.50398 0.42441 0.18807 0.0
C186 C 0.41378 0.60134 0.14312 0.0
C187 C 0.36059 0.56864 0.16477 0.0
C188 C 0.41604 0.55934 0.20734 0.0
C189 C 0.46411 0.5828 0.18208 0.0
N190 N 0.50686 0.62263 0.12396 0.0
N191 N 0.30913 0.51556 0.21747 0.0
C192 C 0.46338 0.60403 0.14974 0.0
C193 C 0.36145 0.54807 0.19728 0.0
N194 N 0.41627 0.62917 0.11593 0.0
N195 N 0.42293 0.548 0.24087 0.0
H196 H 0.2688 0.50757 0.21138 0.0
H197 H 0.30436 0.49403 0.23904 0.0
H198 H 0.46293 0.55642 0.24888 0.0
H199 H 0.39208 0.5352 0.26171 0.0
H200 H 0.45626 0.65787 0.10141 0.0
H201 H 0.38008 0.62741 0.11034 0.0
H202 H 0.50379 0.63222 0.09817 0.0
H203 H 0.54351 0.62446 0.12687 0.0
C204 C 0.6683 0.2311 0.49582 0.0
C205 C 0.67342 0.19367 0.48398 0.0
C206 C 0.77733 0.26943 0.46087 0.0
C207 C 0.76698 0.30437 0.46706 0.0
N208 N 0.70286 0.31958 0.48982 0.0
N209 N 0.73122 0.17749 0.45064 0.0
C210 C 0.71263 0.28557 0.48458 0.0
C211 C 0.72801 0.21297 0.46588 0.0
N212 N 0.62193 0.21494 0.51858 0.0
N213 N 0.83411 0.29002 0.44958 0.0
H214 H 0.69679 0.13583 0.45269 0.0
H215 H 0.76593 0.189 0.43304 0.0
H216 H 0.87074 0.33081 0.44436 0.0
H217 H 0.8468 0.26772 0.44865 0.0
H218 H 0.61947 0.24149 0.53113 0.0
H219 H 0.58912 0.17575 0.52779 0.0
H220 H 0.66117 0.307 0.49874 0.0
H221 H 0.73589 0.36039 0.48359 0.0
C222 C 0.63601 0.81411 0.75816 0.0
C223 C 0.62548 0.79486 0.79352 0.0
C224 C 0.58348 0.83509 0.81112 0.0
C225 C 0.59079 0.85181 0.77519 0.0
N226 N 0.61245 0.84856 0.71284 0.0
N227 N 0.57813 0.77704 0.85151 0.0
C228 C 0.61387 0.83892 0.74819 0.0
C229 C 0.59574 0.80227 0.81935 0.0
N230 N 0.6686 0.80997 0.73446 0.0
N231 N 0.56778 0.85274 0.8378 0.0
H232 H 0.58698 0.75317 0.85875 0.0
H233 H 0.55004 0.77585 0.86969 0.0
H234 H 0.55883 0.87722 0.83307 0.0
H235 H 0.56879 0.84707 0.86517 0.0
H236 H 0.68413 0.82886 0.70984 0.0
H237 H 0.68414 0.79082 0.74055 0.0
H238 H 0.62161 0.83416 0.69149 0.0
H239 H 0.5965 0.86664 0.70452 0.0
C240 C 0.60438 0.38891 0.21824 0.0
C241 C 0.63154 0.38945 0.18638 0.0
C242 C 0.54233 0.3577 0.14975 0.0
C243 C 0.51876 0.36366 0.181 0.0
N244 N 0.51378 0.36582 0.2457 0.0
N245 N 0.61825 0.35643 0.12517 0.0
C246 C 0.54514 0.37228 0.21565 0.0
C247 C 0.5971 0.36697 0.15333 0.0
N248 N 0.63712 0.40746 0.25032 0.0
N249 N 0.51622 0.34835 0.11634 0.0
H250 H 0.65896 0.36384 0.12724 0.0
H251 H 0.59275 0.33574 0.10124 0.0
H252 H 0.47479 0.33917 0.11232 0.0
H253 H 0.53691 0.35175 0.09225 0.0
H254 H 0.62342 0.41408 0.27396 0.0
H255 H 0.67955 0.41772 0.25282 0.0
H256 H 0.52818 0.36818 0.27198 0.0
H257 H 0.47 0.35322 0.24382 0.0
C258 C 0.33058 0.81075 0.49777 0.0
C259 C 0.35279 0.84742 0.46944 0.0
C260 C 0.26577 0.77212 0.42959 0.0
C261 C 0.2416 0.73658 0.45859 0.0
N262 N 0.24585 0.7221 0.52125 0.0
N263 N 0.35205 0.85949 0.40557 0.0
C264 C 0.27315 0.75571 0.49276 0.0
C265 C 0.323 0.82713 0.43459 0.0
N266 N 0.36471 0.82773 0.52922 0.0
N267 N 0.23327 0.75339 0.39732 0.0
H268 H 0.39543 0.89899 0.40754 0.0
H269 H 0.33681 0.84599 0.37885 0.0
H270 H 0.19392 0.71266 0.39158 0.0
H271 H 0.24303 0.77838 0.37678 0.0
H272 H 0.35563 0.80154 0.54854 0.0
H273 H 0.40524 0.86756 0.5354 0.0
H274 H 0.26145 0.73501 0.54799 0.0
H275 H 0.20413 0.68159 0.51876 0.0
C276 C 0.41881 0.16077 0.82831 0.0
C277 C 0.43661 0.20732 0.81277 0.0
C278 C 0.46449 0.18779 0.75675 0.0
C279 C 0.44369 0.13971 0.7716 0.0
N280 N 0.39399 0.07622 0.81948 0.0
N281 N 0.46641 0.26089 0.76069 0.0
C282 C 0.41833 0.12476 0.80671 0.0
C283 C 0.45673 0.21968 0.77653 0.0
N284 N 0.40511 0.15237 0.86421 0.0
N285 N 0.49215 0.2032 0.72383 0.0
H286 H 0.46112 0.28507 0.77433 0.0
H287 H 0.47474 0.26852 0.7333 0.0
H288 H 0.49521 0.17931 0.70751 0.0
H289 H 0.51531 0.24098 0.7135 0.0
H290 H 0.39882 0.12287 0.87836 0.0
H291 H 0.40445 0.17759 0.8808 0.0
H292 H 0.36799 0.0599 0.8428 0.0
H293 H 0.3964 0.05028 0.80565 0.0
C294 C 0.61547 0.8233 0.60936 0.0
C295 C 0.56583 0.8079 0.58726 0.0
C296 C 0.50755 0.71222 0.59625 0.0
C297 C 0.56073 0.72754 0.61383 0.0
N298 N 0.66865 0.79777 0.63327 0.0
N299 N 0.46694 0.73796 0.5563 0.0
C300 C 0.61549 0.78315 0.61973 0.0
C301 C 0.51219 0.75238 0.57998 0.0
N302 N 0.6622 0.87631 0.62081 0.0
N303 N 0.45216 0.65941 0.59592 0.0
H304 H 0.46845 0.76617 0.54398 0.0
H305 H 0.43032 0.69826 0.54671 0.0
H306 H 0.44689 0.62912 0.60817 0.0
H307 H 0.41028 0.6466 0.5867 0.0
H308 H 0.69655 0.88931 0.63977 0.0
H309 H 0.66334 0.90672 0.61398 0.0
H310 H 0.71176 0.8375 0.63423 0.0
H311 H 0.6712 0.76988 0.64089 0.0
C312 C 0.77042 0.56148 0.90609 0.0
C313 C 0.71915 0.52585 0.8811 0.0
C314 C 0.76375 0.48785 0.86108 0.0
C315 C 0.80997 0.51814 0.8892 0.0
N316 N 0.8527 0.57927 0.94153 0.0
N317 N 0.66518 0.45206 0.83615 0.0
C318 C 0.81254 0.55425 0.91226 0.0
C319 C 0.71532 0.48811 0.85909 0.0
N320 N 0.77898 0.60214 0.92428 0.0
N321 N 0.76779 0.46062 0.83508 0.0
H322 H 0.6315 0.45351 0.83118 0.0
H323 H 0.65504 0.41869 0.82348 0.0
H324 H 0.80344 0.46075 0.83496 0.0
H325 H 0.73983 0.44257 0.81168 0.0
H326 H 0.81925 0.6332 0.93934 0.0
H327 H 0.74816 0.60754 0.92234 0.0
H328 H 0.85169 0.60065 0.96195 0.0
H329 H 0.88388 0.57496 0.94716 0.0
C330 C 0.15746 0.70503 0.19084 0.0
C331 C 0.16227 0.68015 0.161 0.0
C332 C 0.27382 0.76025 0.15815 0.0
C333 C 0.26832 0.7857 0.18679 0.0
N334 N 0.2019 0.78928 0.22211 0.0
N335 N 0.22041 0.69261 0.10901 0.0
C336 C 0.20911 0.76031 0.20044 0.0
C337 C 0.21907 0.71045 0.14236 0.0
N338 N 0.10579 0.67583 0.21171 0.0
N339 N 0.33114 0.78193 0.14714 0.0
H340 H 0.18042 0.65793 0.09558 0.0
H341 H 0.25962 0.7156 0.09298 0.0
H342 H 0.37272 0.81767 0.15853 0.0
H343 H 0.33729 0.76166 0.12901 0.0
H344 H 0.10394 0.69131 0.23594 0.0
H345 H 0.06729 0.6346 0.20779 0.0
H346 H 0.15852 0.77435 0.22971 0.0
H347 H 0.2386 0.83027 0.22915 0.0
C348 C 0.50628 0.30665 0.47499 0.0
C349 C 0.50576 0.27191 0.49589 0.0
C350 C 0.54657 0.33431 0.54882 0.0
C351 C 0.55174 0.37109 0.52718 0.0
N352 N 0.54572 0.39672 0.4686 0.0
N353 N 0.53286 0.255 0.55094 0.0
C354 C 0.53388 0.35842 0.48995 0.0
C355 C 0.52817 0.28647 0.53231 0.0
N356 N 0.47932 0.28965 0.4411 0.0
N357 N 0.55646 0.34387 0.58545 0.0
H358 H 0.51777 0.2186 0.54027 0.0
H359 H 0.55586 0.2668 0.57593 0.0
H360 H 0.56936 0.37817 0.59866 0.0
H361 H 0.54671 0.31576 0.60319 0.0
H362 H 0.47186 0.31034 0.42601 0.0
H363 H 0.46011 0.25254 0.42899 0.0
H364 H 0.54007 0.39219 0.44056 0.0
H365 H 0.56622 0.4352 0.47853 0.0
C366 C 0.3592 0.47893 0.87722 0.0
C367 C 0.42345 0.52724 0.88093 0.0
C368 C 0.39292 0.57964 0.88199 0.0
C369 C 0.32874 0.53131 0.88374 0.0
N370 N 0.25387 0.43482 0.89251 0.0
N371 N 0.4983 0.62316 0.89772 0.0
C372 C 0.31275 0.48087 0.88417 0.0
C373 C 0.43941 0.57748 0.88656 0.0
N374 N 0.3418 0.43146 0.86513 0.0
N375 N 0.41025 0.62749 0.87392 0.0
H376 H 0.53283 0.6232 0.90417 0.0
H377 H 0.51032 0.65949 0.90497 0.0
H378 H 0.37854 0.63082 0.86733 0.0
H379 H 0.4563 0.6624 0.86917 0.0
H380 H 0.29562 0.39646 0.85901 0.0
H381 H 0.37355 0.42865 0.85692 0.0
H382 H 0.24164 0.39811 0.89624 0.0
H383 H 0.21951 0.43472 0.89999 0.0
C384 C 0.86882 0.3116 0.15993 0.0
C385 C 0.85967 0.33718 0.13534 0.0
C386 C 0.75259 0.25112 0.12314 0.0
C387 C 0.75896 0.22808 0.15173 0.0
N388 N 0.82034 0.23981 0.20183 0.0
N389 N 0.79163 0.33309 0.09549 0.0
C390 C 0.81654 0.25889 0.17106 0.0
C391 C 0.80118 0.30742 0.11743 0.0
N392 N 0.92704 0.33787 0.17345 0.0
N393 N 0.70105 0.21886 0.10071 0.0
H394 H 0.8269 0.37369 0.08931 0.0
H395 H 0.74793 0.31506 0.08524 0.0
H396 H 0.66539 0.17715 0.10345 0.0
H397 H 0.69651 0.23236 0.07732 0.0
H398 H 0.93709 0.31861 0.188 0.0
H399 H 0.96641 0.37773 0.168 0.0
H400 H 0.85914 0.26333 0.2193 0.0
H401 H 0.78273 0.2025 0.21219 0.0
C402 C 0.97537 0.4654 0.01188 0.0
C403 C 1.00666 0.51253 0.03489 0.0
C404 C 0.0819 0.56868 0.98753 0.0
C405 C 0.04903 0.522 0.96405 0.0
N406 N 0.95832 0.42788 0.95088 0.0
N407 N 0.0786 0.61016 0.04086 0.0
C408 C 0.99361 0.47096 0.97526 0.0
C409 C 0.05694 0.56456 0.0217 0.0
N410 N 0.93043 0.41519 0.02543 0.0
N411 N 0.13743 0.61698 0.97737 0.0
H412 H 0.05915 0.609 0.06491 0.0
H413 H 0.11114 0.64897 0.03101 0.0
H414 H 0.1559 0.62242 0.95188 0.0
H415 H 0.16726 0.65064 0.99506 0.0
H416 H 0.91101 0.37932 0.01126 0.0
H417 H 0.91581 0.40928 0.05199 0.0
H418 H 0.91401 0.39114 0.95623 0.0
H419 H 0.97126 0.43026 0.92416 0.0
C420 C 0.52679 0.98026 0.36226 0.0
C421 C 0.54434 0.02536 0.38283 0.0
C422 C 0.55583 0.06822 0.327 0.0
C423 C 0.54606 0.02666 0.30644 0.0
N424 N 0.52909 0.94583 0.30431 0.0
N425 N 0.58632 0.11665 0.38474 0.0
C426 C 0.53258 0.98294 0.32395 0.0
C427 C 0.56167 0.0705 0.3652 0.0
N428 N 0.50536 0.93515 0.37936 0.0
N429 N 0.55771 0.10469 0.31006 0.0
H430 H 0.59222 0.12022 0.41266 0.0
H431 H 0.60623 0.15289 0.37302 0.0
H432 H 0.55218 0.1036 0.28211 0.0
H433 H 0.55824 0.13241 0.32393 0.0
H434 H 0.48504 0.89867 0.36576 0.0
H435 H 0.50341 0.93269 0.40743 0.0
H436 H 0.52643 0.91665 0.3159 0.0
H437 H 0.53384 0.94669 0.27635 0.0
C438 C 0.52452 0.50898 0.75129 0.0
C439 C 0.57092 0.51707 0.77234 0.0
C440 C 0.63805 0.55211 0.71971 0.0
C441 C 0.58858 0.53699 0.69767 0.0
N442 N 0.48252 0.49681 0.6913 0.0
N443 N 0.67029 0.54272 0.77624 0.0
C444 C 0.5315 0.51512 0.71319 0.0
C445 C 0.62727 0.53766 0.75643 0.0
N446 N 0.47312 0.49433 0.7674 0.0
N447 N 0.69611 0.58209 0.70576 0.0
H448 H 0.66605 0.53564 0.80371 0.0
H449 H 0.70829 0.55066 0.76499 0.0
H450 H 0.706 0.59453 0.67915 0.0
H451 H 0.7357 0.59928 0.72133 0.0
H452 H 0.44216 0.49491 0.75446 0.0
H453 H 0.4629 0.48459 0.79443 0.0
H454 H 0.43744 0.4744 0.70034 0.0
H455 H 0.48554 0.50041 0.66334 0.0
C456 C 0.43961 0.96127 0.6012 0.0
C457 C 0.48641 0.01135 0.58433 0.0
C458 C 0.55595 0.045 0.63732 0.0
C459 C 0.50841 0.99613 0.65462 0.0
N460 N 0.40102 0.91261 0.65688 0.0
N461 N 0.581 0.10599 0.59138 0.0
C462 C 0.44895 0.95575 0.63772 0.0
C463 C 0.54239 0.0547 0.6038 0.0
N464 N 0.38751 0.91802 0.58207 0.0
N465 N 0.61466 0.08168 0.65243 0.0
H466 H 0.57046 0.11567 0.56844 0.0
H467 H 0.61939 0.13999 0.60612 0.0
H468 H 0.62628 0.07655 0.67732 0.0
H469 H 0.65292 0.11493 0.63892 0.0
H470 H 0.35555 0.87908 0.59176 0.0
H471 H 0.3784 0.91915 0.5552 0.0
H472 H 0.35483 0.88504 0.64765 0.0
H473 H 0.40647 0.90703 0.68353 0.0
C474 C 0.59088 0.51747 0.99697 0.0
C475 C 0.56449 0.53451 0.97861 0.0
C476 C 0.51204 0.52472 0.03417 0.0
C477 C 0.53309 0.50236 0.05099 0.0
N478 N 0.58208 0.46725 0.04626 0.0
N479 N 0.48939 0.5436 0.97823 0.0
C480 C 0.56926 0.49554 0.0317 0.0
C481 C 0.52207 0.5351 0.99678 0.0
N482 N 0.63944 0.52545 0.98258 0.0
N483 N 0.48481 0.53838 0.05419 0.0
H484 H 0.49451 0.55111 0.95084 0.0
H485 H 0.45269 0.53801 0.98924 0.0
H486 H 0.47697 0.53204 0.08178 0.0
H487 H 0.47533 0.56068 0.04419 0.0
H488 H 0.66414 0.51861 0.99654 0.0
H489 H 0.66007 0.54486 0.95856 0.0
H490 H 0.60256 0.45601 0.03178 0.0
H491 H 0.56681 0.45047 0.07163 0.0
C492 C 0.97101 0.46284 0.25966 0.0
C493 C 0.02121 0.5113 0.24236 0.0
C494 C 0.0489 0.56292 0.29971 0.0
C495 C 1.0047 0.51411 0.31791 0.0
N496 N 0.9333 0.4163 0.31591 0.0
N497 N 0.11725 0.60599 0.24938 0.0
C498 C 0.96778 0.46362 0.29808 0.0
C499 C 0.06303 0.56081 0.26341 0.0
N500 N 0.92745 0.41544 0.24001 0.0
N501 N 0.0758 0.61152 0.3165 0.0
H502 H 0.12963 0.60818 0.22267 0.0
H503 H 0.15225 0.64061 0.26522 0.0
H504 H 0.06442 0.61479 0.34248 0.0
H505 H 0.10378 0.6478 0.30307 0.0
H506 H 0.88592 0.38132 0.25085 0.0
H507 H 0.93042 0.4106 0.21255 0.0
H508 H 0.91111 0.37894 0.30297 0.0
H509 H 0.93234 0.41469 0.34398 0.0
loop_
_geom_bond_atom_site_label_1
_geom_bond_atom_site_label_2
_geom_bond_distance
_geom_bond_site_symmetry_2
_ccdc_geom_bond_type
Ho0 C3 2.811 . S
Ho0 O20 2.322 . S
Ho0 O22 2.378 . S
Ho0 O23 2.524 . S
Ho0 O24 2.381 . S
Ho0 O25 2.669 . S
Ho0 O27 2.346 1_455 S
Ho0 O31 2.305 . S
Ho1 C12 2.811 . S
Ho1 O21 2.346 1_655 S
Ho1 O25 2.305 1_655 S
Ho1 O26 2.322 . S
Ho1 O28 2.378 . S
Ho1 O29 2.524 . S
Ho1 O30 2.381 . S
Ho1 O31 2.669 1_655 S
C2 O20 1.259 . S
C2 O21 1.268 . S
C3 Ho0 2.811 . S
C3 C4 1.488 . S
C3 O22 1.215 . S
C3 O23 1.289 . S
C4 C3 1.488 . S
C4 C5 1.348 . S
C4 C9 1.413 . S
C5 C4 1.348 . S
C5 C6 1.442 . S
C5 H32 0.930 . S
C6 C5 1.442 . S
C6 C7 1.381 . S
C6 H33 0.931 . S
C7 C6 1.381 . S
C7 C8 1.321 . S
C8 C7 1.321 . S
C8 C9 1.403 . S
C8 H34 0.934 . S
C9 C4 1.413 . S
C9 C8 1.403 . S
C9 H35 0.930 . S
C10 O24 1.275 . S
C10 O25 1.256 . S
C11 O26 1.259 . S
C11 O27 1.268 . S
C12 Ho1 2.811 . S
C12 C13 1.488 . S
C12 O28 1.215 . S
C12 O29 1.289 . S
C13 C12 1.488 . S
C13 C14 1.348 . S
C13 C18 1.413 . S
C14 C13 1.348 . S
C14 C15 1.442 . S
C14 H36 0.930 . S
C15 C14 1.442 . S
C15 C16 1.381 . S
C15 H37 0.931 . S
C16 C15 1.381 . S
C16 C17 1.321 . S
C17 C16 1.321 . S
C17 C18 1.403 . S
C17 H38 0.934 . S
C18 C13 1.413 . S
C18 C17 1.403 . S
C18 H39 0.930 . S
C19 O30 1.275 1_455 S
C19 O31 1.256 . S
O20 Ho0 2.322 . S
O20 C2 1.259 . S
O21 Ho1 2.346 1_455 S
O21 C2 1.268 . S
O22 Ho0 2.378 . S
O22 C3 1.215 . S
O23 Ho0 2.524 . S
O23 C3 1.289 . S
O24 Ho0 2.381 . S
O24 C10 1.275 . S
O25 Ho0 2.669 . S
O25 Ho1 2.305 1_455 S
O25 C10 1.256 . S
O26 Ho1 2.322 . S
O26 C11 1.259 . S
O27 Ho0 2.346 1_655 S
O27 C11 1.268 . S
O28 Ho1 2.378 . S
O28 C12 1.215 . S
O29 Ho1 2.524 . S
O29 C12 1.289 . S
O30 Ho1 2.381 . S
O30 C19 1.275 1_655 S
O31 Ho0 2.305 . S
O31 Ho1 2.669 1_455 S
O31 C19 1.256 . S
H32 C5 0.930 . S
H33 C6 0.931 . S
H34 C8 0.934 . S
H35 C9 0.930 . S
H36 C14 0.930 . S
H37 C15 0.931 . S
H38 C17 0.934 . S
H39 C18 0.930 . S
Ho40 C43 2.811 . S
Ho40 O60 2.322 . S
Ho40 O62 2.378 . S
Ho40 O63 2.524 . S
Ho40 O64 2.381 . S
Ho40 O65 2.669 1_565 S
Ho40 O67 2.346 1_565 S
Ho40 O71 2.305 1_565 S
Ho41 C52 2.811 . S
Ho41 O61 2.346 1_545 S
Ho41 O65 2.305 . S
Ho41 O66 2.322 . S
Ho41 O68 2.378 . S
Ho41 O69 2.524 . S
Ho41 O70 2.381 . S
Ho41 O71 2.669 . S
C42 O60 1.259 . S
C42 O61 1.268 . S
C43 Ho40 2.811 . S
C43 C44 1.488 . S
C43 O62 1.215 . S
C43 O63 1.289 . S
C44 C43 1.488 . S
C44 C45 1.348 . S
C44 C49 1.413 . S
C45 C44 1.348 . S
C45 C46 1.442 . S
C45 H72 0.930 . S
C46 C45 1.442 . S
C46 C47 1.381 . S
C46 H73 0.931 . S
C47 C46 1.381 . S
C47 C48 1.321 . S
C48 C47 1.321 . S
C48 C49 1.403 . S
C48 H74 0.934 . S
C49 C44 1.413 . S
C49 C48 1.403 . S
C49 H75 0.930 . S
C50 O64 1.275 1_545 S
C50 O65 1.256 . S
C51 O66 1.259 . S
C51 O67 1.268 . S
C52 Ho41 2.811 . S
C52 C53 1.488 . S
C52 O68 1.215 . S
C52 O69 1.289 . S
C53 C52 1.488 . S
C53 C54 1.348 . S
C53 C58 1.413 . S
C54 C53 1.348 . S
C54 C55 1.442 . S
C54 H76 0.930 . S
C55 C54 1.442 . S
C55 C56 1.381 . S
C55 H77 0.931 . S
C56 C55 1.381 . S
C56 C57 1.321 . S
C57 C56 1.321 . S
C57 C58 1.403 . S
C57 H78 0.934 . S
C58 C53 1.413 . S
C58 C57 1.403 . S
C58 H79 0.930 . S
C59 O70 1.275 . S
C59 O71 1.256 . S
O60 Ho40 2.322 . S
O60 C42 1.259 . S
O61 Ho41 2.346 1_565 S
O61 C42 1.268 . S
O62 Ho40 2.378 . S
O62 C43 1.215 . S
O63 Ho40 2.524 . S
O63 C43 1.289 . S
O64 Ho40 2.381 . S
O64 C50 1.275 1_565 S
O65 Ho40 2.669 1_545 S
O65 Ho41 2.305 . S
O65 C50 1.256 . S
O66 Ho41 2.322 . S
O66 C51 1.259 . S
O67 Ho40 2.346 1_545 S
O67 C51 1.268 . S
O68 Ho41 2.378 . S
O68 C52 1.215 . S
O69 Ho41 2.524 . S
O69 C52 1.289 . S
O70 Ho41 2.381 . S
O70 C59 1.275 . S
O71 Ho40 2.305 1_545 S
O71 Ho41 2.669 . S
O71 C59 1.256 . S
H72 C45 0.930 . S
H73 C46 0.931 . S
H74 C48 0.934 . S
H75 C49 0.930 . S
H76 C54 0.930 . S
H77 C55 0.931 . S
H78 C57 0.934 . S
H79 C58 0.930 . S
Ho80 C83 2.811 . S
Ho80 O100 2.322 . S
Ho80 O102 2.378 . S
Ho80 O103 2.524 . S
Ho80 O104 2.381 . S
Ho80 O105 2.669 . S
Ho80 O107 2.346 . S
Ho80 O111 2.305 . S
Ho81 C92 2.811 . S
Ho81 O101 2.346 . S
Ho81 O105 2.305 . S
Ho81 O106 2.322 . S
Ho81 O108 2.378 . S
Ho81 O109 2.524 . S
Ho81 O110 2.381 . S
Ho81 O111 2.669 . S
C82 O100 1.259 . S
C82 O101 1.268 . S
C83 Ho80 2.811 . S
C83 C84 1.488 . S
C83 O102 1.215 . S
C83 O103 1.289 . S
C84 C83 1.488 . S
C84 C85 1.348 . S
C84 C89 1.413 . S
C85 C84 1.348 . S
C85 C86 1.442 . S
C85 H112 0.930 . S
C86 C85 1.442 . S
C86 C87 1.381 . S
C86 H113 0.931 . S
C87 C86 1.381 . S
C87 C88 1.321 . S
C88 C87 1.321 . S
C88 C89 1.403 . S
C88 H114 0.934 . S
C89 C84 1.413 . S
C89 C88 1.403 . S
C89 H115 0.930 . S
C90 O104 1.275 . S
C90 O105 1.256 . S
C91 O106 1.259 . S
C91 O107 1.268 . S
C92 Ho81 2.811 . S
C92 C93 1.488 . S
C92 O108 1.215 . S
C92 O109 1.289 . S
C93 C92 1.488 . S
C93 C94 1.348 . S
C93 C98 1.413 . S
C94 C93 1.348 . S
C94 C95 1.442 . S
C94 H116 0.930 . S
C95 C94 1.442 . S
C95 C96 1.381 . S
C95 H117 0.931 . S
C96 C95 1.381 . S
C96 C97 1.321 . S
C97 C96 1.321 . S
C97 C98 1.403 . S
C97 H118 0.934 . S
C98 C93 1.413 . S
C98 C97 1.403 . S
C98 H119 0.930 . S
C99 O110 1.275 . S
C99 O111 1.256 . S
O100 Ho80 2.322 . S
O100 C82 1.259 . S
O101 Ho81 2.346 . S
O101 C82 1.268 . S
O102 Ho80 2.378 . S
O102 C83 1.215 . S
O103 Ho80 2.524 . S
O103 C83 1.289 . S
O104 Ho80 2.381 . S
O104 C90 1.275 . S
O105 Ho80 2.669 . S
O105 Ho81 2.305 . S
O105 C90 1.256 . S
O106 Ho81 2.322 . S
O106 C91 1.259 . S
O107 Ho80 2.346 . S
O107 C91 1.268 . S
O108 Ho81 2.378 . S
O108 C92 1.215 . S
O109 Ho81 2.524 . S
O109 C92 1.289 . S
O110 Ho81 2.381 . S
O110 C99 1.275 . S
O111 Ho80 2.305 . S
O111 Ho81 2.669 . S
O111 C99 1.256 . S
H112 C85 0.930 . S
H113 C86 0.931 . S
H114 C88 0.934 . S
H115 C89 0.930 . S
H116 C94 0.930 . S
H117 C95 0.931 . S
H118 C97 0.934 . S
H119 C98 0.930 . S
O120 Cd121 2.300 . S
O120 C127 1.275 . S
Cd121 O120 2.300 . S
Cd121 O129 2.381 . S
Cd121 O130 2.378 . S
O122 Cd123 2.385 . S
O122 C127 1.255 1_565 S
Cd123 O122 2.385 . S
Cd123 O124 2.317 . S
O124 Cd123 2.317 . S
O124 C125 1.232 . S
C125 O124 1.232 . S
C125 O126 1.218 . S
O126 C125 1.218 . S
C127 O120 1.275 . S
C127 O122 1.255 1_545 S
C128 O129 1.258 . S
C128 O130 1.256 . S
O129 Cd121 2.381 . S
O129 C128 1.258 . S
O130 Cd121 2.378 . S
O130 C128 1.256 . S
O131 Cd132 2.300 . S
O131 C138 1.275 . S
Cd132 O131 2.300 . S
Cd132 O140 2.381 . S
Cd132 O141 2.378 . S
O133 Cd134 2.385 . S
O133 C138 1.255 . S
Cd134 O133 2.385 . S
Cd134 O135 2.317 . S
O135 Cd134 2.317 . S
O135 C136 1.232 . S
C136 O135 1.232 . S
C136 O137 1.218 . S
O137 C136 1.218 . S
C138 O131 1.275 . S
C138 O133 1.255 . S
C139 O140 1.258 . S
C139 O141 1.256 . S
O140 Cd132 2.381 . S
O140 C139 1.258 . S
O141 Cd132 2.378 . S
O141 C139 1.256 . S
O142 Cd143 2.300 . S
O142 C149 1.275 . S
Cd143 O142 2.300 . S
Cd143 O151 2.381 . S
Cd143 O152 2.378 . S
O144 Cd145 2.385 . S
O144 C149 1.255 1_655 S
Cd145 O144 2.385 . S
Cd145 O146 2.317 . S
O146 Cd145 2.317 . S
O146 C147 1.232 . S
C147 O146 1.232 . S
C147 O148 1.218 . S
O148 C147 1.218 . S
C149 O142 1.275 . S
C149 O144 1.255 1_455 S
C150 O151 1.258 . S
C150 O152 1.256 . S
O151 Cd143 2.381 . S
O151 C150 1.258 . S
O152 Cd143 2.378 . S
O152 C150 1.256 . S
O153 Cd154 2.300 . S
O153 C160 1.275 1_455 S
Cd154 O153 2.300 . S
Cd154 O162 2.381 . S
Cd154 O163 2.378 . S
O155 Cd156 2.385 . S
O155 C160 1.255 . S
Cd156 O155 2.385 . S
Cd156 O157 2.317 . S
O157 Cd156 2.317 . S
O157 C158 1.232 . S
C158 O157 1.232 . S
C158 O159 1.218 . S
O159 C158 1.218 . S
C160 O153 1.275 1_655 S
C160 O155 1.255 . S
C161 O162 1.258 . S
C161 O163 1.256 . S
O162 Cd154 2.381 . S
O162 C161 1.258 . S
O163 Cd154 2.378 . S
O163 C161 1.256 . S
O164 Cd165 2.300 . S
O164 C171 1.275 1_565 S
Cd165 O164 2.300 . S
Cd165 O173 2.381 . S
Cd165 O174 2.378 . S
O166 Cd167 2.385 . S
O166 C171 1.255 . S
Cd167 O166 2.385 . S
Cd167 O168 2.317 . S
O168 Cd167 2.317 . S
O168 C169 1.232 . S
C169 O168 1.232 . S
C169 O170 1.218 . S
O170 C169 1.218 . S
C171 O164 1.275 1_545 S
C171 O166 1.255 . S
C172 O173 1.258 . S
C172 O174 1.256 . S
O173 Cd165 2.381 . S
O173 C172 1.258 . S
O174 Cd165 2.378 . S
O174 C172 1.256 . S
O175 Cd176 2.300 . S
O175 C182 1.275 . S
Cd176 O175 2.300 . S
Cd176 O184 2.381 . S
Cd176 O185 2.378 . S
O177 Cd178 2.385 . S
O177 C182 1.255 . S
Cd178 O177 2.385 . S
Cd178 O179 2.317 . S
O179 Cd178 2.317 . S
O179 C180 1.232 . S
C180 O179 1.232 . S
C180 O181 1.218 . S
O181 C180 1.218 . S
C182 O175 1.275 . S
C182 O177 1.255 . S
C183 O184 1.258 . S
C183 O185 1.256 . S
O184 Cd176 2.381 . S
O184 C183 1.258 . S
O185 Cd176 2.378 . S
O185 C183 1.256 . S
C186 C187 1.363 . S
C186 C192 1.379 . S
C186 N194 1.356 . S
C187 C186 1.363 . S
C187 C193 1.363 . S
C188 C189 1.363 . S
C188 C193 1.379 . S
C188 N195 1.356 . S
C189 C188 1.363 . S
C189 C192 1.363 . S
N190 C192 1.356 . S
N190 H202 0.984 . S
N190 H203 0.985 . S
N191 C193 1.356 . S
N191 H196 0.984 . S
N191 H197 0.985 . S
C192 C186 1.379 . S
C192 C189 1.363 . S
C192 N190 1.356 . S
C193 C187 1.363 . S
C193 C188 1.379 . S
C193 N191 1.356 . S
N194 C186 1.356 . S
N194 H200 0.984 . S
N194 H201 0.984 . S
N195 C188 1.356 . S
N195 H198 0.984 . S
N195 H199 0.985 . S
H196 N191 0.984 . S
H197 N191 0.985 . S
H198 N195 0.984 . S
H199 N195 0.985 . S
H200 N194 0.984 . S
H201 N194 0.984 . S
H202 N190 0.984 . S
H203 N190 0.985 . S
C204 C205 1.363 . S
C204 C210 1.379 . S
C204 N212 1.356 . S
C205 C204 1.363 . S
C205 C211 1.363 . S
C206 C207 1.363 . S
C206 C211 1.379 . S
C206 N213 1.356 . S
C207 C206 1.363 . S
C207 C210 1.363 . S
N208 C210 1.356 . S
N208 H220 0.984 . S
N208 H221 0.985 . S
N209 C211 1.356 . S
N209 H214 0.984 . S
N209 H215 0.985 . S
C210 C204 1.379 . S
C210 C207 1.363 . S
C210 N208 1.356 . S
C211 C205 1.363 . S
C211 C206 1.379 . S
C211 N209 1.356 . S
N212 C204 1.356 . S
N212 H218 0.984 . S
N212 H219 0.984 . S
N213 C206 1.356 . S
N213 H216 0.984 . S
N213 H217 0.985 . S
H214 N209 0.984 . S
H215 N209 0.985 . S
H216 N213 0.984 . S
H217 N213 0.985 . S
H218 N212 0.984 . S
H219 N212 0.984 . S
H220 N208 0.984 . S
H221 N208 0.985 . S
C222 C223 1.363 . S
C222 C228 1.379 . S
C222 N230 1.356 . S
C223 C222 1.363 . S
C223 C229 1.363 . S
C224 C225 1.363 . S
C224 C229 1.379 . S
C224 N231 1.356 . S
C225 C224 1.363 . S
C225 C228 1.363 . S
N226 C228 1.356 . S
N226 H238 0.984 . S
N226 H239 0.985 . S
N227 C229 1.356 . S
N227 H232 0.984 . S
N227 H233 0.985 . S
C228 C222 1.379 . S
C228 C225 1.363 . S
C228 N226 1.356 . S
C229 C223 1.363 . S
C229 C224 1.379 . S
C229 N227 1.356 . S
N230 C222 1.356 . S
N230 H236 0.984 . S
N230 H237 0.984 . S
N231 C224 1.356 . S
N231 H234 0.984 . S
N231 H235 0.985 . S
H232 N227 0.984 . S
H233 N227 0.985 . S
H234 N231 0.984 . S
H235 N231 0.985 . S
H236 N230 0.984 . S
H237 N230 0.984 . S
H238 N226 0.984 . S
H239 N226 0.985 . S
C240 C241 1.363 . S
C240 C246 1.379 . S
C240 N248 1.356 . S
C241 C240 1.363 . S
C241 C247 1.363 . S
C242 C243 1.363 . S
C242 C247 1.379 . S
C242 N249 1.356 . S
C243 C242 1.363 . S
C243 C246 1.363 . S
N244 C246 1.356 . S
N244 H256 0.984 . S
N244 H257 0.985 . S
N245 C247 1.356 . S
N245 H250 0.984 . S
N245 H251 0.985 . S
C246 C240 1.379 . S
C246 C243 1.363 . S
C246 N244 1.356 . S
C247 C241 1.363 . S
C247 C242 1.379 . S
C247 N245 1.356 . S
N248 C240 1.356 . S
N248 H254 0.984 . S
N248 H255 0.984 . S
N249 C242 1.356 . S
N249 H252 0.984 . S
N249 H253 0.985 . S
H250 N245 0.984 . S
H251 N245 0.985 . S
H252 N249 0.984 . S
H253 N249 0.985 . S
H254 N248 0.984 . S
H255 N248 0.984 . S
H256 N244 0.984 . S
H257 N244 0.985 . S
C258 C259 1.363 . S
C258 C264 1.379 . S
C258 N266 1.356 . S
C259 C258 1.363 . S
C259 C265 1.363 . S
C260 C261 1.363 . S
C260 C265 1.379 . S
C260 N267 1.356 . S
C261 C260 1.363 . S
C261 C264 1.363 . S
N262 C264 1.356 . S
N262 H274 0.984 . S
N262 H275 0.985 . S
N263 C265 1.356 . S
N263 H268 0.984 . S
N263 H269 0.985 . S
C264 C258 1.379 . S
C264 C261 1.363 . S
C264 N262 1.356 . S
C265 C259 1.363 . S
C265 C260 1.379 . S
C265 N263 1.356 . S
N266 C258 1.356 . S
N266 H272 0.984 . S
N266 H273 0.984 . S
N267 C260 1.356 . S
N267 H270 0.984 . S
N267 H271 0.985 . S
H268 N263 0.984 . S
H269 N263 0.985 . S
H270 N267 0.984 . S
H271 N267 0.985 . S
H272 N266 0.984 . S
H273 N266 0.984 . S
H274 N262 0.984 . S
H275 N262 0.985 . S
C276 C277 1.363 . S
C276 C282 1.379 . S
C276 N284 1.356 . S
C277 C276 1.363 . S
C277 C283 1.363 . S
C278 C279 1.363 . S
C278 C283 1.379 . S
C278 N285 1.356 . S
C279 C278 1.363 . S
C279 C282 1.363 . S
N280 C282 1.356 . S
N280 H292 0.984 . S
N280 H293 0.985 . S
N281 C283 1.356 . S
N281 H286 0.984 . S
N281 H287 0.985 . S
C282 C276 1.379 . S
C282 C279 1.363 . S
C282 N280 1.356 . S
C283 C277 1.363 . S
C283 C278 1.379 . S
C283 N281 1.356 . S
N284 C276 1.356 . S
N284 H290 0.984 . S
N284 H291 0.984 . S
N285 C278 1.356 . S
N285 H288 0.984 . S
N285 H289 0.985 . S
H286 N281 0.984 . S
H287 N281 0.985 . S
H288 N285 0.984 . S
H289 N285 0.985 . S
H290 N284 0.984 . S
H291 N284 0.984 . S
H292 N280 0.984 . S
H293 N280 0.985 . S
C294 C295 1.363 . S
C294 C300 1.379 . S
C294 N302 1.356 . S
C295 C294 1.363 . S
C295 C301 1.363 . S
C296 C297 1.363 . S
C296 C301 1.379 . S
C296 N303 1.356 . S
C297 C296 1.363 . S
C297 C300 1.363 . S
N298 C300 1.356 . S
N298 H310 0.984 . S
N298 H311 0.985 . S
N299 C301 1.356 . S
N299 H304 0.984 . S
N299 H305 0.985 . S
C300 C294 1.379 . S
C300 C297 1.363 . S
C300 N298 1.356 . S
C301 C295 1.363 . S
C301 C296 1.379 . S
C301 N299 1.356 . S
N302 C294 1.356 . S
N302 H308 0.984 . S
N302 H309 0.984 . S
N303 C296 1.356 . S
N303 H306 0.984 . S
N303 H307 0.985 . S
H304 N299 0.984 . S
H305 N299 0.985 . S
H306 N303 0.984 . S
H307 N303 0.985 . S
H308 N302 0.984 . S
H309 N302 0.984 . S
H310 N298 0.984 . S
H311 N298 0.985 . S
C312 C313 1.363 . S
C312 C318 1.379 . S
C312 N320 1.356 . S
C313 C312 1.363 . S
C313 C319 1.363 . S
C314 C315 1.363 . S
C314 C319 1.379 . S
C314 N321 1.356 . S
C315 C314 1.363 . S
C315 C318 1.363 . S
N316 C318 1.356 . S
N316 H328 0.984 . S
N316 H329 0.985 . S
N317 C319 1.356 . S
N317 H322 0.984 . S
N317 H323 0.985 . S
C318 C312 1.379 . S
C318 C315 1.363 . S
C318 N316 1.356 . S
C319 C313 1.363 . S
C319 C314 1.379 . S
C319 N317 1.356 . S
N320 C312 1.356 . S
N320 H326 0.984 . S
N320 H327 0.984 . S
N321 C314 1.356 . S
N321 H324 0.984 . S
N321 H325 0.985 . S
H322 N317 0.984 . S
H323 N317 0.985 . S
H324 N321 0.984 . S
H325 N321 0.985 . S
H326 N320 0.984 . S
H327 N320 0.984 . S
H328 N316 0.984 . S
H329 N316 0.985 . S
C330 C331 1.363 . S
C330 C336 1.379 . S
C330 N338 1.356 . S
C331 C330 1.363 . S
C331 C337 1.363 . S
C332 C333 1.363 . S
C332 C337 1.379 . S
C332 N339 1.356 . S
C333 C332 1.363 . S
C333 C336 1.363 . S
N334 C336 1.356 . S
N334 H346 0.984 . S
N334 H347 0.985 . S
N335 C337 1.356 . S
N335 H340 0.984 . S
N335 H341 0.985 . S
C336 C330 1.379 . S
C336 C333 1.363 . S
C336 N334 1.356 . S
C337 C331 1.363 . S
C337 C332 1.379 . S
C337 N335 1.356 . S
N338 C330 1.356 . S
N338 H344 0.984 . S
N338 H345 0.984 . S
N339 C332 1.356 . S
N339 H342 0.984 . S
N339 H343 0.985 . S
H340 N335 0.984 . S
H341 N335 0.985 . S
H342 N339 0.984 . S
H343 N339 0.985 . S
H344 N338 0.984 . S
H345 N338 0.984 . S
H346 N334 0.984 . S
H347 N334 0.985 . S
C348 C349 1.363 . S
C348 C354 1.379 . S
C348 N356 1.356 . S
C349 C348 1.363 . S
C349 C355 1.363 . S
C350 C351 1.363 . S
C350 C355 1.379 . S
C350 N357 1.356 . S
C351 C350 1.363 . S
C351 C354 1.363 . S
N352 C354 1.356 . S
N352 H364 0.984 . S
N352 H365 0.985 . S
N353 C355 1.356 . S
N353 H358 0.984 . S
N353 H359 0.985 . S
C354 C348 1.379 . S
C354 C351 1.363 . S
C354 N352 1.356 . S
C355 C349 1.363 . S
C355 C350 1.379 . S
C355 N353 1.356 . S
N356 C348 1.356 . S
N356 H362 0.984 . S
N356 H363 0.984 . S
N357 C350 1.356 . S
N357 H360 0.984 . S
N357 H361 0.985 . S
H358 N353 0.984 . S
H359 N353 0.985 . S
H360 N357 0.984 . S
H361 N357 0.985 . S
H362 N356 0.984 . S
H363 N356 0.984 . S
H364 N352 0.984 . S
H365 N352 0.985 . S
C366 C367 1.363 . S
C366 C372 1.379 . S
C366 N374 1.356 . S
C367 C366 1.363 . S
C367 C373 1.363 . S
C368 C369 1.363 . S
C368 C373 1.379 . S
C368 N375 1.356 . S
C369 C368 1.363 . S
C369 C372 1.363 . S
N370 C372 1.356 . S
N370 H382 0.984 . S
N370 H383 0.985 . S
N371 C373 1.356 . S
N371 H376 0.984 . S
N371 H377 0.985 . S
C372 C366 1.379 . S
C372 C369 1.363 . S
C372 N370 1.356 . S
C373 C367 1.363 . S
C373 C368 1.379 . S
C373 N371 1.356 . S
N374 C366 1.356 . S
N374 H380 0.984 . S
N374 H381 0.984 . S
N375 C368 1.356 . S
N375 H378 0.984 . S
N375 H379 0.985 . S
H376 N371 0.984 . S
H377 N371 0.985 . S
H378 N375 0.984 . S
H379 N375 0.985 . S
H380 N374 0.984 . S
H381 N374 0.984 . S
H382 N370 0.984 . S
H383 N370 0.985 . S
C384 C385 1.363 . S
C384 C390 1.379 . S
C384 N392 1.356 . S
C385 C384 1.363 . S
C385 C391 1.363 . S
C386 C387 1.363 . S
C386 C391 1.379 . S
C386 N393 1.356 . S
C387 C386 1.363 . S
C387 C390 1.363 . S
N388 C390 1.356 . S
N388 H400 0.984 . S
N388 H401 0.985 . S
N389 C391 1.356 . S
N389 H394 0.984 . S
N389 H395 0.985 . S
C390 C384 1.379 . S
C390 C387 1.363 . S
C390 N388 1.356 . S
C391 C385 1.363 . S
C391 C386 1.379 . S
C391 N389 1.356 . S
N392 C384 1.356 . S
N392 H398 0.984 . S
N392 H399 0.984 . S
N393 C386 1.356 . S
N393 H396 0.984 . S
N393 H397 0.985 . S
H394 N389 0.984 . S
H395 N389 0.985 . S
H396 N393 0.984 . S
H397 N393 0.985 . S
H398 N392 0.984 . S
H399 N392 0.984 . S
H400 N388 0.984 . S
H401 N388 0.985 . S
C402 C403 1.363 . S
C402 C408 1.379 . S
C402 N410 1.356 . S
C403 C402 1.363 . S
C403 C409 1.363 . S
C404 C405 1.363 1_554 S
C404 C409 1.379 . S
C404 N411 1.356 1_554 S
C405 C404 1.363 1_556 S
C405 C408 1.363 1_556 S
N406 C408 1.356 1_556 S
N406 H418 0.984 . S
N406 H419 0.985 . S
N407 C409 1.356 . S
N407 H412 0.984 . S
N407 H413 0.985 . S
C408 C402 1.379 . S
C408 C405 1.363 1_554 S
C408 N406 1.356 1_554 S
C409 C403 1.363 . S
C409 C404 1.379 . S
C409 N407 1.356 . S
N410 C402 1.356 . S
N410 H416 0.984 . S
N410 H417 0.984 . S
N411 C404 1.356 1_556 S
N411 H414 0.984 . S
N411 H415 0.985 1_556 S
H412 N407 0.984 . S
H413 N407 0.985 . S
H414 N411 0.984 . S
H415 N411 0.985 1_554 S
H416 N410 0.984 . S
H417 N410 0.984 . S
H418 N406 0.984 . S
H419 N406 0.985 . S
C420 C421 1.363 1_565 S
C420 C426 1.379 . S
C420 N428 1.356 . S
C421 C420 1.363 1_545 S
C421 C427 1.363 . S
C422 C423 1.363 . S
C422 C427 1.379 . S
C422 N429 1.356 . S
C423 C422 1.363 . S
C423 C426 1.363 1_545 S
N424 C426 1.356 . S
N424 H436 0.984 . S
N424 H437 0.985 . S
N425 C427 1.356 . S
N425 H430 0.984 . S
N425 H431 0.985 . S
C426 C420 1.379 . S
C426 C423 1.363 1_565 S
C426 N424 1.356 . S
C427 C421 1.363 . S
C427 C422 1.379 . S
C427 N425 1.356 . S
N428 C420 1.356 . S
N428 H434 0.984 . S
N428 H435 0.984 . S
N429 C422 1.356 . S
N429 H432 0.984 . S
N429 H433 0.985 . S
H430 N425 0.984 . S
H431 N425 0.985 . S
H432 N429 0.984 . S
H433 N429 0.985 . S
H434 N428 0.984 . S
H435 N428 0.984 . S
H436 N424 0.984 . S
H437 N424 0.985 . S
C438 C439 1.363 . S
C438 C444 1.379 . S
C438 N446 1.356 . S
C439 C438 1.363 . S
C439 C445 1.363 . S
C440 C441 1.363 . S
C440 C445 1.379 . S
C440 N447 1.356 . S
C441 C440 1.363 . S
C441 C444 1.363 . S
N442 C444 1.356 . S
N442 H454 0.984 . S
N442 H455 0.985 . S
N443 C445 1.356 . S
N443 H448 0.984 . S
N443 H449 0.985 . S
C444 C438 1.379 . S
C444 C441 1.363 . S
C444 N442 1.356 . S
C445 C439 1.363 . S
C445 C440 1.379 . S
C445 N443 1.356 . S
N446 C438 1.356 . S
N446 H452 0.984 . S
N446 H453 0.984 . S
N447 C440 1.356 . S
N447 H450 0.984 . S
N447 H451 0.985 . S
H448 N443 0.984 . S
H449 N443 0.985 . S
H450 N447 0.984 . S
H451 N447 0.985 . S
H452 N446 0.984 . S
H453 N446 0.984 . S
H454 N442 0.984 . S
H455 N442 0.985 . S
C456 C457 1.363 1_565 S
C456 C462 1.379 . S
C456 N464 1.356 . S
C457 C456 1.363 1_545 S
C457 C463 1.363 . S
C458 C459 1.363 . S
C458 C463 1.379 . S
C458 N465 1.356 . S
C459 C458 1.363 . S
C459 C462 1.363 1_545 S
N460 C462 1.356 . S
N460 H472 0.984 . S
N460 H473 0.985 . S
N461 C463 1.356 . S
N461 H466 0.984 . S
N461 H467 0.985 . S
C462 C456 1.379 . S
C462 C459 1.363 1_565 S
C462 N460 1.356 . S
C463 C457 1.363 . S
C463 C458 1.379 . S
C463 N461 1.356 . S
N464 C456 1.356 . S
N464 H470 0.984 . S
N464 H471 0.984 . S
N465 C458 1.356 . S
N465 H468 0.984 . S
N465 H469 0.985 . S
H466 N461 0.984 . S
H467 N461 0.985 . S
H468 N465 0.984 . S
H469 N465 0.985 . S
H470 N464 0.984 . S
H471 N464 0.984 . S
H472 N460 0.984 . S
H473 N460 0.985 . S
C474 C475 1.363 . S
C474 C480 1.379 1_556 S
C474 N482 1.356 . S
C475 C474 1.363 . S
C475 C481 1.363 . S
C476 C477 1.363 1_556 S
C476 C481 1.379 . S
C476 N483 1.356 1_556 S
C477 C476 1.363 1_554 S
C477 C480 1.363 . S
N478 C480 1.356 . S
N478 H490 0.984 . S
N478 H491 0.985 . S
N479 C481 1.356 . S
N479 H484 0.984 . S
N479 H485 0.985 . S
C480 C474 1.379 1_554 S
C480 C477 1.363 . S
C480 N478 1.356 . S
C481 C475 1.363 . S
C481 C476 1.379 . S
C481 N479 1.356 . S
N482 C474 1.356 . S
N482 H488 0.984 . S
N482 H489 0.984 . S
N483 C476 1.356 1_554 S
N483 H486 0.984 . S
N483 H487 0.985 1_554 S
H484 N479 0.984 . S
H485 N479 0.985 . S
H486 N483 0.984 . S
H487 N483 0.985 1_556 S
H488 N482 0.984 . S
H489 N482 0.984 . S
H490 N478 0.984 . S
H491 N478 0.985 . S
C492 C493 1.363 1_655 S
C492 C498 1.379 . S
C492 N500 1.356 . S
C493 C492 1.363 1_455 S
C493 C499 1.363 . S
C494 C495 1.363 1_455 S
C494 C499 1.379 . S
C494 N501 1.356 . S
C495 C494 1.363 1_655 S
C495 C498 1.363 . S
N496 C498 1.356 . S
N496 H508 0.984 . S
N496 H509 0.985 . S
N497 C499 1.356 . S
N497 H502 0.984 . S
N497 H503 0.985 . S
C498 C492 1.379 . S
C498 C495 1.363 . S
C498 N496 1.356 . S
C499 C493 1.363 . S
C499 C494 1.379 . S
C499 N497 1.356 . S
N500 C492 1.356 . S
N500 H506 0.984 . S
N500 H507 0.984 . S
N501 C494 1.356 . S
N501 H504 0.984 . S
N501 H505 0.985 . S
H502 N497 0.984 . S
H503 N497 0.985 . S
H504 N501 0.984 . S
H505 N501 0.985 . S
H506 N500 0.984 . S
H507 N500 0.984 . S
H508 N496 0.984 . S
H509 N496 0.985 . S
C187 C7 0.972 . S
C189 C180 0.764 . S
C205 C51 2.036 . S
C207 C158 1.750 . S
C223 C87 1.203 . S
C225 C172 1.188 . S
C241 C16 0.638 . S
C243 C183 0.489 . S
C261 C161 1.872 . S
C259 C42 1.961 . S
C279 C169 1.271 . S
C277 C96 1.410 . S
C295 C47 1.374 . S
C297 C136 1.178 . S
C313 C91 3.266 . S
C315 C147 2.916 . S
C331 C2 2.121 . S
C333 C125 1.764 . S
C351 C139 1.180 . S
C349 C56 1.169 . S
C369 C150 2.911 . S
C367 C82 2.997 . S
C385 C11 1.874 . S
C387 C128 1.833 . S
C405 C149 1.676 . S
C403 C19 1.692 . S
C421 C50 1.407 . S
C423 C127 1.375 . S
C439 C99 1.525 . S
C441 C138 1.471 . S
C459 C171 1.431 . S
C457 C59 1.453 . S
C477 C182 1.119 . S
C475 C90 1.196 . S
C493 C10 1.414 . S
C495 C160 1.367 . S
