# Generated by pormake.
# Topology dag, (6,3)-cn, num edge types: 1
# Building blocks:
#     Node 0, Type 0, BuildingBlock: IZENUY_clean_sbu_0, # of connection points: 6
#     Node 1, Type 0, BuildingBlock: IZENUY_clean_sbu_0, # of connection points: 6
#     Node 2, Type 0, BuildingBlock: IZENUY_clean_sbu_0, # of connection points: 6
#     Node 3, Type 0, BuildingBlock: IZENUY_clean_sbu_0, # of connection points: 6
#     Node 4, Type 1, BuildingBlock: OLANEW_clean_sbu_2, # of connection points: 3
#     Node 5, Type 1, BuildingBlock: OLANEW_clean_sbu_2, # of connection points: 3
#     Node 6, Type 1, BuildingBlock: OLANEW_clean_sbu_2, # of connection points: 3
#     Node 7, Type 1, BuildingBlock: OLANEW_clean_sbu_2, # of connection points: 3
#     Node 8, Type 1, BuildingBlock: OLANEW_clean_sbu_2, # of connection points: 3
#     Node 9, Type 1, BuildingBlock: OLANEW_clean_sbu_2, # of connection points: 3
#     Node 10, Type 1, BuildingBlock: OLANEW_clean_sbu_2, # of connection points: 3
#     Node 11, Type 1, BuildingBlock: OLANEW_clean_sbu_2, # of connection points: 3
#     Edge 12, Type (0, 1), BuildingBlock: XIVTED_clean_linker_0, # of connection points: 2
#     Edge 13, Type (0, 1), BuildingBlock: XIVTED_clean_linker_0, # of connection points: 2
#     Edge 14, Type (0, 1), BuildingBlock: XIVTED_clean_linker_0, # of connection points: 2
#     Edge 15, Type (0, 1), BuildingBlock: XIVTED_clean_linker_0, # of connection points: 2
#     Edge 16, Type (0, 1), BuildingBlock: XIVTED_clean_linker_0, # of connection points: 2
#     Edge 17, Type (0, 1), BuildingBlock: XIVTED_clean_linker_0, # of connection points: 2
#     Edge 18, Type (0, 1), BuildingBlock: XIVTED_clean_linker_0, # of connection points: 2
#     Edge 19, Type (0, 1), BuildingBlock: XIVTED_clean_linker_0, # of connection points: 2
#     Edge 20, Type (0, 1), BuildingBlock: XIVTED_clean_linker_0, # of connection points: 2
#     Edge 21, Type (0, 1), BuildingBlock: XIVTED_clean_linker_0, # of connection points: 2
#     Edge 22, Type (0, 1), BuildingBlock: XIVTED_clean_linker_0, # of connection points: 2
#     Edge 23, Type (0, 1), BuildingBlock: XIVTED_clean_linker_0, # of connection points: 2
#     Edge 24, Type (0, 1), BuildingBlock: XIVTED_clean_linker_0, # of connection points: 2
#     Edge 25, Type (0, 1), BuildingBlock: XIVTED_clean_linker_0, # of connection points: 2
#     Edge 26, Type (0, 1), BuildingBlock: XIVTED_clean_linker_0, # of connection points: 2
#     Edge 27, Type (0, 1), BuildingBlock: XIVTED_clean_linker_0, # of connection points: 2
#     Edge 28, Type (0, 1), BuildingBlock: XIVTED_clean_linker_0, # of connection points: 2
#     Edge 29, Type (0, 1), BuildingBlock: XIVTED_clean_linker_0, # of connection points: 2
#     Edge 30, Type (0, 1), BuildingBlock: XIVTED_clean_linker_0, # of connection points: 2
#     Edge 31, Type (0, 1), BuildingBlock: XIVTED_clean_linker_0, # of connection points: 2
#     Edge 32, Type (0, 1), BuildingBlock: XIVTED_clean_linker_0, # of connection points: 2
#     Edge 33, Type (0, 1), BuildingBlock: XIVTED_clean_linker_0, # of connection points: 2
#     Edge 34, Type (0, 1), BuildingBlock: XIVTED_clean_linker_0, # of connection points: 2
#     Edge 35, Type (0, 1), BuildingBlock: XIVTED_clean_linker_0, # of connection points: 2
# Relax obj value: 0.127
# Max RMSD: 0.152
# Mean RMSD: 0.116
data_MOF--net-dag--node1-IZENUY_clean_sbu_0--node2-OLANEW_clean_sbu_2--edge1-XIVTED_clean_linker_0
_symmetry_space_group_name_H-M    P1
_symmetry_Int_Tables_number       1
_symmetry_cell_setting            triclinic
loop_
_symmetry_equiv_pos_as_xyz
'x, y, z'
_cell_length_a     43.744603
_cell_length_b     41.147842
_cell_length_c     37.796723
_cell_angle_alpha  91.999861
_cell_angle_beta   94.046549
_cell_angle_gamma 91.796985
loop_
_atom_site_label
_atom_site_type_symbol
_atom_site_fract_x
_atom_site_fract_y
_atom_site_fract_z
_atom_type_partial_charge
Fe0 Fe 0.16347 0.88712 0.00469 0.0
Fe1 Fe 0.09418 0.89943 0.003 0.0
O2 O 0.12485 0.87259 -0.0018 0.0
Fe3 Fe 0.11732 0.83077 0.98697 0.0
O4 O 0.13704 0.81866 0.02823 0.0
O5 O 0.17829 0.84896 0.02184 0.0
O6 O 0.15823 0.89962 0.05019 0.0
C7 C 0.13781 0.91813 0.06032 0.0
C8 C 0.16784 0.84632 0.94719 0.0
O9 O 0.11425 0.92377 0.0401 0.0
C10 C 0.07495 0.85908 0.9419 0.0
O11 O 0.15627 0.92804 0.98933 0.0
O12 O 0.10773 0.92679 0.9702 0.0
O13 O 0.15174 0.82573 0.96247 0.0
O14 O 0.17098 0.87534 0.95923 0.0
C15 C 0.07027 0.84495 0.03249 0.0
O16 O 0.06931 0.87937 0.96658 0.0
O17 O 0.09721 0.84034 0.94538 0.0
C18 C 0.13426 0.93977 0.97105 0.0
O19 O 0.07749 0.87482 0.03639 0.0
O20 O 0.08146 0.82761 0.00876 0.0
C21 C 0.16494 0.82587 0.0366 0.0
Fe22 Fe 0.6779 0.60725 0.46839 0.0
Fe23 Fe 0.63366 0.66146 0.44918 0.0
O24 O 0.64005 0.62061 0.46038 0.0
Fe25 Fe 0.60846 0.59342 0.46412 0.0
O26 O 0.62002 0.58668 0.51027 0.0
O27 O 0.66855 0.57861 0.50253 0.0
O28 O 0.686 0.63753 0.50405 0.0
C29 C 0.68489 0.66767 0.49978 0.0
C30 C 0.65145 0.55438 0.43129 0.0
O31 O 0.66852 0.67856 0.47415 0.0
C32 C 0.58745 0.62566 0.40615 0.0
O33 O 0.69389 0.63343 0.43542 0.0
O34 O 0.654 0.65649 0.40908 0.0
O35 O 0.62788 0.55733 0.44858 0.0
O36 O 0.67263 0.57593 0.43353 0.0
C37 C 0.5899 0.65171 0.49631 0.0
O38 O 0.59767 0.65202 0.4217 0.0
O39 O 0.59485 0.59864 0.41834 0.0
C40 C 0.68126 0.64708 0.40884 0.0
O41 O 0.61316 0.66853 0.48897 0.0
O42 O 0.5833 0.6246 0.4803 0.0
C43 C 0.64598 0.57738 0.52168 0.0
Fe44 Fe 0.85746 0.19227 0.03724 0.0
Fe45 Fe 0.87348 0.12383 0.0127 0.0
O46 O 0.84603 0.15379 0.01751 0.0
Fe47 Fe 0.80735 0.14497 0.00254 0.0
O48 O 0.80765 0.17782 0.97204 0.0
O49 O 0.8293 0.21485 0.01002 0.0
O50 O 0.88425 0.19976 0.00346 0.0
C51 C 0.90578 0.1812 -0.00279 0.0
C52 C 0.8031 0.18084 0.06709 0.0
O53 O 0.90565 0.15254 0.00813 0.0
C54 C 0.82196 0.08758 0.03159 0.0
O55 O 0.88753 0.17616 0.06802 0.0
O56 O 0.88132 0.12308 0.06014 0.0
O57 O 0.79138 0.17057 0.037 0.0
O58 O 0.83151 0.18715 0.07206 0.0
C59 C 0.84107 0.11585 0.94909 0.0
O60 O 0.8467 0.08923 0.01635 0.0
O61 O 0.8046 0.11138 0.03234 0.0
C62 C 0.89067 0.14761 0.07921 0.0
O63 O 0.86679 0.12324 0.96498 0.0
O64 O 0.81666 0.11775 0.96522 0.0
C65 C 0.81457 0.20716 0.98063 0.0
Fe66 Fe 0.37974 0.38662 0.54969 0.0
Fe67 Fe 0.31182 0.36729 0.55622 0.0
O68 O 0.3512 0.35749 0.55894 0.0
Fe69 Fe 0.36227 0.31812 0.57067 0.0
O70 O 0.38467 0.33403 0.61003 0.0
O71 O 0.40906 0.37142 0.5816 0.0
O72 O 0.36898 0.41383 0.58485 0.0
C73 C 0.34263 0.4249 0.58724 0.0
C74 C 0.40202 0.33309 0.51746 0.0
O75 O 0.31912 0.41032 0.57154 0.0
C76 C 0.3125 0.30376 0.52457 0.0
O77 O 0.35572 0.4069 0.51623 0.0
O78 O 0.31267 0.3775 0.50989 0.0
O79 O 0.39609 0.31747 0.54451 0.0
O80 O 0.39232 0.36133 0.51362 0.0
C81 C 0.31496 0.33078 0.6155 0.0
O82 O 0.29804 0.32595 0.5399 0.0
O83 O 0.34073 0.30048 0.53205 0.0
C84 C 0.33185 0.39688 0.49774 0.0
O85 O 0.30812 0.35769 0.60252 0.0
O86 O 0.33063 0.31094 0.59879 0.0
C87 C 0.40662 0.35443 0.60866 0.0
O88 O 0.19381 0.02091 0.32181 0.0
Cd89 Cd 0.19936 0.03955 0.38434 0.0
O90 O 0.15715 0.05481 0.31157 0.0
Cd91 Cd 0.11824 0.07754 0.28443 0.0
O92 O 0.07875 0.09877 0.25717 0.0
C93 C 0.05293 0.08377 0.25704 0.0
O94 O 0.05104 0.05628 0.27355 0.0
C95 C 0.17343 0.03207 0.30035 0.0
C96 C 0.21907 0.10399 0.39991 0.0
O97 O 0.23814 0.08165 0.39443 0.0
O98 O 0.19038 0.09616 0.39683 0.0
O99 O 0.31054 0.6728 0.67475 0.0
Cd100 Cd 0.31563 0.73115 0.69215 0.0
O101 O 0.36045 0.67586 0.6798 0.0
Cd102 Cd 0.40998 0.66744 0.68349 0.0
O103 O 0.45327 0.67887 0.72018 0.0
C104 C 0.48038 0.68918 0.71423 0.0
O105 O 0.45314 0.67873 0.72115 0.0
C106 C 0.33587 0.65867 0.67278 0.0
C107 C 0.28227 0.7541 0.74799 0.0
O108 O 0.27244 0.75738 0.71559 0.0
O109 O 0.30728 0.73917 0.75401 0.0
O110 O 0.88652 0.7093 0.13471 0.0
Cd111 Cd 0.83838 0.67775 0.13855 0.0
O112 O 0.86478 0.75561 0.14377 0.0
Cd113 Cd 0.85711 0.80773 0.1439 0.0
O114 O 0.84329 0.85753 0.13665 0.0
C115 C 0.82488 0.86264 0.11008 0.0
O116 O 0.81506 0.83792 0.0889 0.0
C117 C 0.88843 0.74021 0.13634 0.0
C118 C 0.8094 0.67924 0.20196 0.0
O119 O 0.83106 0.6597 0.19687 0.0
O120 O 0.80223 0.69912 0.17758 0.0
O121 O 0.67129 0.45105 0.76376 0.0
Cd122 Cd 0.66163 0.41792 0.81485 0.0
O123 O 0.63732 0.48563 0.78071 0.0
Cd124 Cd 0.61867 0.45353 0.81913 0.0
O125 O 0.58127 0.41819 0.80522 0.0
C126 C 0.58564 0.39993 0.77836 0.0
O127 O 0.6126 0.40138 0.76511 0.0
C128 C 0.65726 0.47745 0.75942 0.0
C129 C 0.70556 0.3751 0.83989 0.0
O130 O 0.68534 0.36626 0.81491 0.0
O131 O 0.70586 0.40467 0.85187 0.0
O132 O 0.63736 0.31332 0.32142 0.0
Cd133 Cd 0.62783 0.2547 0.31233 0.0
O134 O 0.66642 0.30777 0.37054 0.0
Cd135 Cd 0.64433 0.26024 0.37651 0.0
O136 O 0.59852 0.25145 0.39456 0.0
C137 C 0.57798 0.26912 0.38055 0.0
O138 O 0.5852 0.28811 0.35498 0.0
C139 C 0.65562 0.32573 0.34629 0.0
C140 C 0.66413 0.23188 0.25994 0.0
O141 O 0.63653 0.24016 0.25223 0.0
O142 O 0.67436 0.23377 0.2926 0.0
O143 O 0.20759 0.17738 0.91354 0.0
Cd144 Cd 0.2236 0.23501 0.91135 0.0
O145 O 0.16242 0.18868 0.89005 0.0
Cd146 Cd 0.11619 0.18552 0.86403 0.0
O147 O 0.08535 0.20713 0.82001 0.0
C148 C 0.05973 0.22112 0.82234 0.0
O149 O 0.08568 0.20709 0.81886 0.0
C150 C 0.18055 0.16773 0.90269 0.0
C151 C 0.24106 0.25534 0.8456 0.0
O152 O 0.26006 0.242 0.86755 0.0
O153 O 0.21351 0.25855 0.85437 0.0
O154 O 0.37441 0.63938 0.24944 0.0
Cd155 Cd 0.32173 0.62731 0.22363 0.0
O156 O 0.38297 0.58705 0.24443 0.0
Cd157 Cd 0.33539 0.56933 0.23538 0.0
O158 O 0.31337 0.53284 0.26663 0.0
C159 C 0.32789 0.50664 0.26886 0.0
O160 O 0.3515 0.503 0.24958 0.0
C161 C 0.39281 0.61605 0.25204 0.0
C162 C 0.29048 0.6758 0.18713 0.0
O163 O 0.31042 0.65886 0.17224 0.0
O164 O 0.28605 0.67069 0.21966 0.0
O165 O 0.94994 0.81859 0.68937 0.0
Cd166 Cd 0.92072 0.82903 0.63341 0.0
O167 O 0.91542 0.84987 0.70953 0.0
Cd168 Cd 0.89062 0.87934 0.7461 0.0
O169 O 0.86973 0.91854 0.77462 0.0
C170 C 0.87796 0.94737 0.76776 0.0
O171 O 0.89817 0.95179 0.7441 0.0
C172 C 0.94001 0.83458 0.71527 0.0
C173 C 0.86907 0.78972 0.61253 0.0
O174 O 0.89472 0.78533 0.59892 0.0
O175 O 0.86803 0.81185 0.63708 0.0
H176 H 0.17765 0.90279 0.11568 0.0
H177 H 0.14592 0.0575 0.23931 0.0
H178 H 0.10924 0.972 0.08565 0.0
H179 H 0.1898 0.97192 0.27804 0.0
H180 H 0.13581 0.02972 0.1812 0.0
H181 H 0.18629 0.93107 0.1735 0.0
C182 C 0.16445 0.92399 0.1212 0.0
C183 C 0.14268 0.93503 0.09569 0.0
C184 C 0.14742 0.01699 0.20257 0.0
C185 C 0.15264 0.96772 0.16202 0.0
C186 C 0.15287 0.03272 0.23598 0.0
C187 C 0.16792 0.01677 0.26414 0.0
C188 C 0.15763 0.98531 0.19707 0.0
C189 C 0.17797 0.9852 0.2573 0.0
C190 C 0.16934 0.94007 0.15431 0.0
C191 C 0.12617 0.96256 0.10454 0.0
N192 N 0.17266 0.97058 0.22457 0.0
N193 N 0.1316 0.97809 0.13691 0.0
H194 H 0.5327 0.62799 0.50829 0.0
H195 H 0.52952 0.7224 0.69528 0.0
H196 H 0.60104 0.70106 0.5471 0.0
H197 H 0.45701 0.6562 0.65191 0.0
H198 H 0.55337 0.71903 0.63877 0.0
H199 H 0.50222 0.64196 0.55777 0.0
C200 C 0.54119 0.64726 0.52703 0.0
C201 C 0.56968 0.66319 0.52367 0.0
C202 C 0.532 0.70561 0.64133 0.0
C203 C 0.5348 0.67913 0.58078 0.0
C204 C 0.51836 0.70757 0.67355 0.0
C205 C 0.49124 0.68974 0.67818 0.0
C206 C 0.51866 0.68515 0.6136 0.0
C207 C 0.47773 0.6707 0.64937 0.0
C208 C 0.52369 0.65524 0.55531 0.0
C209 C 0.57928 0.6881 0.54865 0.0
N210 N 0.4918 0.66863 0.6184 0.0
N211 N 0.56204 0.69504 0.5764 0.0
H212 H 0.8106 0.03285 0.99099 0.0
H213 H 0.83479 0.91845 0.15165 0.0
H214 H 0.81243 0.07036 0.09898 0.0
H215 H 0.79653 0.8831 0.04853 0.0
H216 H 0.82581 0.97422 0.13396 0.0
H217 H 0.80389 0.97766 0.01181 0.0
C218 C 0.80883 0.02933 0.01907 0.0
C219 C 0.81178 0.05582 0.04341 0.0
C220 C 0.81897 0.9542 0.11544 0.0
C221 C 0.80523 0.99303 0.06757 0.0
C222 C 0.82424 0.9224 0.12543 0.0
C223 C 0.81676 0.89613 0.10134 0.0
C224 C 0.80662 0.95972 0.08096 0.0
C225 C 0.80287 0.90262 0.06785 0.0
C226 C 0.80507 -0.00207 0.03098 0.0
C227 C 0.80985 0.05032 0.07953 0.0
N228 N 0.79868 0.93379 0.05846 0.0
N229 N 0.80723 0.01934 0.09069 0.0
H230 H 0.40483 0.34395 0.67982 0.0
H231 H 0.58636 0.36657 0.71487 0.0
H232 H 0.46678 0.3658 0.59928 0.0
H233 H 0.52521 0.39546 0.79427 0.0
H234 H 0.5421 0.34896 0.6753 0.0
H235 H 0.44868 0.34756 0.72472 0.0
C236 C 0.42765 0.34921 0.67163 0.0
C237 C 0.4323 0.35498 0.63601 0.0
C238 C 0.53844 0.35873 0.7016 0.0
C239 C 0.48204 0.35825 0.68653 0.0
C240 C 0.56367 0.36867 0.7243 0.0
C241 C 0.55947 0.38313 0.7577 0.0
C242 C 0.50878 0.36299 0.71242 0.0
C243 C 0.52946 0.38484 0.76854 0.0
C244 C 0.4525 0.35127 0.69713 0.0
C245 C 0.4622 0.36166 0.62658 0.0
N246 N 0.50513 0.37523 0.74575 0.0
N247 N 0.48594 0.36302 0.65167 0.0
H248 H 0.70491 0.52319 0.42263 0.0
H249 H 0.62212 0.37209 0.31313 0.0
H250 H 0.60736 0.51533 0.39594 0.0
H251 H 0.69961 0.36061 0.38845 0.0
H252 H 0.62423 0.43049 0.32773 0.0
H253 H 0.71008 0.46878 0.39508 0.0
C254 C 0.68471 0.51022 0.41044 0.0
C255 C 0.65562 0.52347 0.41173 0.0
C256 C 0.64105 0.41518 0.34057 0.0
C257 C 0.66147 0.46203 0.37992 0.0
C258 C 0.64003 0.38191 0.33214 0.0
C259 C 0.66051 0.3614 0.34995 0.0
C260 C 0.663 0.42808 0.36652 0.0
C261 C 0.68318 0.37553 0.3744 0.0
C262 C 0.68767 0.47927 0.39493 0.0
C263 C 0.63013 0.50573 0.39577 0.0
N264 N 0.68372 0.40807 0.38217 0.0
N265 N 0.63364 0.47587 0.38048 0.0
H266 H 0.91137 0.23658 0.959 0.0
H267 H 0.06426 0.17712 0.87655 0.0
H268 H 0.95994 0.15136 0.99072 0.0
H269 H 0.01477 0.25995 0.83984 0.0
H270 H 0.03054 0.17263 0.92486 0.0
H271 H 0.95294 0.25067 0.92143 0.0
C272 C 0.93091 0.22109 0.95844 0.0
C273 C 0.93198 0.19255 0.97768 0.0
C274 C 0.02732 0.19216 0.90662 0.0
C275 C 0.97943 0.20837 0.93476 0.0
C276 C 0.0469 0.19496 0.87921 0.0
C277 C 0.04257 0.21932 0.85445 0.0
C278 C 0.00302 0.21354 0.90901 0.0
C279 C 0.01883 0.24091 0.85853 0.0
C280 C 0.95459 0.22908 0.93693 0.0
C281 C 0.95789 0.17339 0.976 0.0
N282 N -0.00022 0.23742 0.88512 0.0
N283 N 0.9804 0.1815 0.95472 0.0
H284 H 0.27772 0.41221 0.46126 0.0
H285 H 0.3611 0.45392 0.28659 0.0
H286 H 0.37519 0.40761 0.45177 0.0
H287 H 0.28294 0.50741 0.31649 0.0
H288 H 0.35828 0.42247 0.33978 0.0
H289 H 0.27217 0.43443 0.40133 0.0
C290 C 0.29781 0.41558 0.44642 0.0
C291 C 0.32699 0.40848 0.46142 0.0
C292 C 0.34151 0.44081 0.33441 0.0
C293 C 0.32075 0.43277 0.39333 0.0
C294 C 0.34298 0.45873 0.30398 0.0
C295 C 0.32254 0.48377 0.29735 0.0
C296 C 0.31926 0.44768 0.35829 0.0
C297 C 0.29939 0.48859 0.32081 0.0
C298 C 0.29465 0.42826 0.41246 0.0
C299 C 0.35235 0.41321 0.44129 0.0
N300 N 0.29851 0.47087 0.35052 0.0
N301 N 0.34863 0.42493 0.40826 0.0
H302 H 0.02638 0.89679 0.92163 0.0
H303 H 0.98026 0.79092 0.7425 0.0
H304 H 0.07531 0.81298 0.8878 0.0
H305 H 0.9419 0.88366 0.76684 0.0
H306 H 0.01223 0.79615 0.79834 0.0
H307 H 0.99204 0.88995 0.86768 0.0
C308 C 0.02991 0.87693 0.90294 0.0
C309 C 0.05386 0.85547 0.90934 0.0
C310 C 0.99651 0.81517 0.79166 0.0
C311 C 0.0145 0.84743 0.84755 0.0
C312 C 0.9782 0.81216 0.75981 0.0
C313 C 0.95769 0.83646 0.7503 0.0
C314 C 0.99448 0.84281 0.81418 0.0
C315 C 0.95628 0.86364 0.77361 0.0
C316 C 0.0103 0.87306 0.87211 0.0
C317 C 0.05727 0.83021 0.88406 0.0
N318 N 0.97441 0.86608 0.80441 0.0
N319 N 0.03783 0.82689 0.85438 0.0
H320 H 0.88349 0.11916 0.89982 0.0
H321 H 0.83138 0.94795 0.81248 0.0
H322 H 0.79834 0.07035 0.92113 0.0
H323 H 0.89934 0.01056 0.76927 0.0
H324 H 0.817 0.99356 0.85028 0.0
H325 H 0.88779 0.08147 0.84921 0.0
C326 C 0.86542 0.10084 0.89341 0.0
C327 C 0.8407 0.09761 0.91483 0.0
C328 C 0.83476 -0.00257 0.83216 0.0
C329 C 0.84573 0.05407 0.85749 0.0
C330 C 0.84309 0.97136 0.81072 0.0
C331 C 0.86688 0.97537 0.78806 0.0
C332 C 0.85066 0.02754 0.8313 0.0
C333 C 0.88105 0.00631 0.78656 0.0
C334 C 0.86786 0.07935 0.86453 0.0
C335 C 0.8178 0.07363 0.9053 0.0
N336 N 0.87302 0.0311 0.80829 0.0
N337 N 0.82117 0.05233 0.87768 0.0
H338 H 0.41914 0.35844 0.4554 0.0
H339 H 0.55628 0.23726 0.43688 0.0
H340 H 0.43509 0.27795 0.52393 0.0
H341 H 0.53183 0.30909 0.36018 0.0
H342 H 0.50996 0.24919 0.46695 0.0
H343 H 0.45851 0.3386 0.41817 0.0
C344 C 0.43079 0.3365 0.46252 0.0
C345 C 0.42404 0.32006 0.49308 0.0
C346 C 0.51457 0.26206 0.44329 0.0
C347 C 0.46922 0.29724 0.45061 0.0
C348 C 0.54099 0.25521 0.42609 0.0
C349 C 0.54814 0.27244 0.39619 0.0
C350 C 0.49533 0.28648 0.43066 0.0
C351 C 0.52742 0.29538 0.38331 0.0
C352 C 0.45323 0.32512 0.44119 0.0
C353 C 0.43968 0.29156 0.50078 0.0
N354 N 0.50217 0.30198 0.40084 0.0
N355 N 0.46174 0.28125 0.47989 0.0
H356 H 0.18893 0.96698 0.95539 0.0
H357 H 0.12232 0.13943 0.90394 0.0
H358 H 0.09199 0.9845 0.94827 0.0
H359 H 0.21807 0.11658 0.9087 0.0
H360 H 0.10948 0.08228 0.91504 0.0
H361 H 0.1988 0.0208 0.93332 0.0
C362 C 0.16963 0.98211 0.94896 0.0
C363 C 0.13959 0.97122 0.954 0.0
C364 C 0.13325 0.08977 0.9132 0.0
C365 C 0.1508 0.03352 0.92883 0.0
C366 C 0.14058 0.12236 0.90659 0.0
C367 C 0.17134 0.13289 0.90532 0.0
C368 C 0.15687 0.06765 0.91856 0.0
C369 C 0.19406 0.10972 0.90967 0.0
C370 C 0.17529 0.01296 0.9363 0.0
C371 C 0.11552 0.9919 0.94482 0.0
N372 N 0.18639 0.0784 0.91623 0.0
N373 N 0.12166 0.02222 0.93303 0.0
H374 H 0.56426 0.57507 0.3624 0.0
H375 H 0.42048 0.67171 0.28443 0.0
H376 H 0.55377 0.67762 0.38439 0.0
H377 H 0.43821 0.57204 0.25528 0.0
H378 H 0.47099 0.67626 0.31722 0.0
H379 H 0.51995 0.57511 0.3195 0.0
C380 C 0.55279 0.59769 0.35801 0.0
C381 C 0.56265 0.62632 0.37731 0.0
C382 C 0.46392 0.65354 0.30325 0.0
C383 C 0.51151 0.62651 0.32822 0.0
C384 C 0.43513 0.65097 0.28441 0.0
C385 C 0.42487 0.62135 0.26734 0.0
C386 C 0.48251 0.62627 0.3051 0.0
C387 C 0.4449 0.59529 0.2683 0.0
C388 C 0.52745 0.59772 0.33343 0.0
C389 C 0.54695 0.65494 0.37021 0.0
N390 N 0.4725 0.59827 0.28712 0.0
N391 N 0.52195 0.65424 0.34655 0.0
H392 H 0.38793 0.46134 0.62507 0.0
H393 H 0.28756 0.61947 0.64567 0.0
H394 H 0.29236 0.46378 0.58819 0.0
H395 H 0.38416 0.61683 0.67715 0.0
H396 H 0.28783 0.5618 0.6279 0.0
H397 H 0.38572 0.5172 0.64794 0.0
C398 C 0.36635 0.47351 0.62197 0.0
C399 C 0.34031 0.45773 0.60439 0.0
C400 C 0.30898 0.57387 0.63867 0.0
C401 C 0.33773 0.52222 0.63057 0.0
C402 C 0.30889 0.60685 0.64888 0.0
C403 C 0.33603 0.6234 0.66259 0.0
C404 C 0.3364 0.55707 0.64228 0.0
C405 C 0.36284 0.60557 0.66616 0.0
C406 C 0.36516 0.50554 0.63502 0.0
C407 C 0.31302 0.47488 0.60147 0.0
N408 N 0.36235 0.57348 0.65603 0.0
N409 N 0.3125 0.50625 0.61422 0.0
H410 H 0.05516 0.78059 0.03607 0.0
H411 H 0.91006 0.80404 0.15114 0.0
H412 H 0.02991 0.87507 0.07539 0.0
H413 H 0.93269 0.71413 0.09848 0.0
H414 H 0.95557 0.83043 0.12888 0.0
H415 H 0.01289 0.75582 0.06479 0.0
C416 C 0.04077 0.79621 0.0509 0.0
C417 C 0.04602 0.83008 0.05295 0.0
C418 C 0.95045 0.80494 0.12222 0.0
C419 C -0.003 0.80158 0.08609 0.0
C420 C 0.92421 0.78992 0.13457 0.0
C421 C 0.91687 0.75696 0.1259 0.0
C422 C 0.96963 0.78676 0.10138 0.0
C423 C 0.93715 0.7396 0.10577 0.0
C424 C 0.01651 0.78197 0.06735 0.0
C425 C 0.02668 0.84888 0.073 0.0
N426 N 0.96236 0.7547 0.09414 0.0
N427 N 0.00284 0.83439 0.08861 0.0
H428 H 0.6931 0.54117 0.5489 0.0
H429 H 0.62738 0.53218 0.7404 0.0
H430 H 0.60806 0.58285 0.57597 0.0
H431 H 0.69414 0.46572 0.70448 0.0
H432 H 0.6266 0.5581 0.68342 0.0
H433 H 0.69931 0.51951 0.60845 0.0
C434 C 0.67574 0.54579 0.56735 0.0
C435 C 0.64989 0.56368 0.55735 0.0
C436 C 0.6416 0.538 0.68808 0.0
C437 C 0.65714 0.53936 0.62558 0.0
C438 C 0.64224 0.52328 0.72075 0.0
C439 C 0.66069 0.49648 0.72724 0.0
C440 C 0.65964 0.52608 0.6616 0.0
C441 C 0.67949 0.4862 0.70064 0.0
C442 C 0.67932 0.5334 0.60129 0.0
C443 C 0.62819 0.56894 0.58238 0.0
N444 N 0.67835 0.50091 0.66887 0.0
N445 N 0.63236 0.55693 0.61534 0.0
H446 H 0.93282 0.18997 0.11481 0.0
H447 H 0.99638 0.05381 0.24418 0.0
H448 H 0.89318 0.09274 0.11743 0.0
H449 H 0.04785 0.14157 0.22356 0.0
H450 H 0.95329 0.07242 0.20646 0.0
H451 H 0.96982 0.17719 0.16365 0.0
C452 C 0.93159 0.16614 0.12602 0.0
C453 C 0.9102 0.14222 0.11177 0.0
C454 C 0.97394 0.08771 0.21041 0.0
C455 C 0.95235 0.12749 0.16736 0.0
C456 C -0.00146 0.07712 0.23197 0.0
C457 C 0.02588 0.09599 0.23668 0.0
C458 C 0.97664 0.11742 0.19354 0.0
C459 C 0.02731 0.12608 0.22035 0.0
C460 C 0.95279 0.15882 0.15373 0.0
C461 C 0.90959 0.11174 0.1273 0.0
N462 N 0.00307 0.13579 0.19931 0.0
N463 N 0.93051 0.10518 0.15409 0.0
H464 H 0.22705 0.82037 0.04099 0.0
H465 H 0.23529 0.70069 0.20214 0.0
H466 H 0.14529 0.78305 0.08529 0.0
H467 H 0.30386 0.70452 0.12561 0.0
H468 H 0.20417 0.73769 0.16622 0.0
H469 H 0.25771 0.78483 0.0786 0.0
C470 C 0.21552 0.8048 0.05876 0.0
C471 C 0.18349 0.80464 0.05992 0.0
C472 C 0.22607 0.73044 0.15742 0.0
C473 C 0.21865 0.76405 0.10331 0.0
C474 C 0.24393 0.70953 0.17797 0.0
C475 C 0.27223 0.69953 0.16683 0.0
C476 C 0.23688 0.74191 0.12591 0.0
C477 C 0.28217 0.71154 0.13514 0.0
C478 C 0.23307 0.78442 0.0801 0.0
C479 C 0.16988 0.78381 0.08341 0.0
N480 N 0.26461 0.73223 0.11591 0.0
N481 N 0.18756 0.76445 0.10437 0.0
H482 H 0.71431 0.72068 0.47529 0.0
H483 H 0.81883 0.77221 0.64794 0.0
H484 H 0.70977 0.66273 0.56787 0.0
H485 H 0.85541 0.76638 0.54495 0.0
H486 H 0.77147 0.74375 0.6224 0.0
H487 H 0.75868 0.75115 0.50449 0.0
C488 C 0.72222 0.71487 0.50207 0.0
C489 C 0.70842 0.68918 0.51927 0.0
C490 C 0.79 0.74874 0.60561 0.0
C491 C 0.75882 0.72398 0.55263 0.0
C492 C 0.81688 0.7649 0.62004 0.0
C493 C 0.84105 0.77136 0.5985 0.0
C494 C 0.78705 0.74017 0.56926 0.0
C495 C 0.83743 0.76152 0.56251 0.0
C496 C 0.74764 0.73203 0.51849 0.0
C497 C 0.71988 0.68235 0.55377 0.0
N498 N 0.81076 0.74676 0.54889 0.0
N499 N 0.74444 0.69977 0.56947 0.0
H500 H 0.81984 0.197 0.13692 0.0
H501 H 0.64781 0.21981 0.1894 0.0
H502 H 0.74033 0.17905 0.06363 0.0
H503 H 0.72567 0.22091 0.26632 0.0
H504 H 0.68152 0.20595 0.14272 0.0
H505 H 0.78592 0.20736 0.18445 0.0
C506 C 0.79526 0.19532 0.13078 0.0
C507 C 0.78292 0.18732 0.09615 0.0
C508 C 0.69121 0.20905 0.16983 0.0
C509 C 0.74399 0.19908 0.15048 0.0
C510 C 0.67198 0.21699 0.1965 0.0
C511 C 0.68396 0.22162 0.2318 0.0
C512 C 0.72273 0.20599 0.17843 0.0
C513 C 0.71545 0.21757 0.23946 0.0
C514 C 0.77592 0.20109 0.15797 0.0
C515 C 0.75089 0.18521 0.08986 0.0
N516 N 0.73379 0.21018 0.21295 0.0
N517 N 0.73255 0.19119 0.11672 0.0
H518 H 0.33629 0.28245 0.65658 0.0
H519 H 0.21024 0.2944 0.79859 0.0
H520 H 0.26823 0.35624 0.65253 0.0
H521 H 0.2945 0.2434 0.81496 0.0
H522 H 0.22786 0.31422 0.74273 0.0
H523 H 0.31798 0.26475 0.71219 0.0
C524 C 0.31737 0.29494 0.66734 0.0
C525 C 0.30367 0.32082 0.64968 0.0
C526 C 0.24244 0.29874 0.75864 0.0
C527 C 0.28251 0.30047 0.7138 0.0
C528 C 0.23237 0.28728 0.79041 0.0
C529 C 0.25091 0.26714 0.81146 0.0
C530 C 0.27106 0.28964 0.74768 0.0
C531 C 0.27944 0.25886 0.79965 0.0
C532 C 0.30702 0.28486 0.69927 0.0
C533 C 0.27945 0.3362 0.66524 0.0
N534 N 0.28854 0.27001 0.76853 0.0
N535 N 0.26948 0.32565 0.69638 0.0
H536 H 0.66574 0.68149 0.34915 0.0
H537 H 0.82267 0.64435 0.26096 0.0
H538 H 0.73943 0.62823 0.39929 0.0
H539 H 0.75625 0.70948 0.21592 0.0
H540 H 0.7918 0.63811 0.31167 0.0
H541 H 0.69763 0.69166 0.29957 0.0
C542 C 0.68858 0.67199 0.34981 0.0
C543 C 0.69988 0.65399 0.37851 0.0
C544 C 0.784 0.65394 0.29083 0.0
C545 C 0.7364 0.66547 0.32191 0.0
C546 C 0.80168 0.65754 0.26184 0.0
C547 C 0.79204 0.67745 0.23412 0.0
C548 C 0.75628 0.67015 0.29209 0.0
C549 C 0.76459 0.69394 0.23676 0.0
C550 C 0.70679 0.67787 0.32154 0.0
C551 C 0.72967 0.64228 0.37787 0.0
N552 N 0.74755 0.68975 0.26513 0.0
N553 N 0.74678 0.64814 0.35006 0.0
H554 H 0.81985 0.27343 0.99232 0.0
H555 H 0.71038 0.31073 0.82086 0.0
H556 H 0.78165 0.19966 0.91632 0.0
H557 H 0.74748 0.38488 0.89696 0.0
H558 H 0.74022 0.27038 0.85268 0.0
H559 H 0.79711 0.31516 0.95527 0.0
C560 C 0.80683 0.26598 0.96779 0.0
C561 C 0.80245 0.23292 0.95763 0.0
C562 C 0.74205 0.29552 0.86228 0.0
C563 C 0.77634 0.28061 0.91506 0.0
C564 C 0.72506 0.31861 0.84404 0.0
C565 C 0.72626 0.35122 0.85638 0.0
C566 C 0.7603 0.30503 0.89321 0.0
C567 C 0.74575 0.36 0.88655 0.0
C568 C 0.79385 0.28984 0.94663 0.0
C569 C 0.78546 0.22479 0.92543 0.0
N570 N 0.76181 0.33699 0.90409 0.0
N571 N 0.77292 0.24844 0.90544 0.0
H572 H 0.33767 0.26497 0.47583 0.0
H573 H 0.18639 0.1535 0.42797 0.0
H574 H 0.25079 0.28584 0.51761 0.0
H575 H 0.27712 0.13007 0.39935 0.0
H576 H 0.20702 0.20599 0.45361 0.0
H577 H 0.31319 0.21998 0.44015 0.0
C578 C 0.31332 0.26015 0.4774 0.0
C579 C 0.29635 0.27889 0.50023 0.0
C580 C 0.22229 0.18946 0.44139 0.0
C581 C 0.26804 0.22693 0.45931 0.0
C582 C 0.21054 0.15956 0.42664 0.0
C583 C 0.23013 0.13724 0.41176 0.0
C584 C 0.25378 0.19709 0.44101 0.0
C585 C 0.2612 0.14635 0.4108 0.0
C586 C 0.29932 0.23439 0.45693 0.0
C587 C 0.26475 0.27185 0.50055 0.0
N588 N 0.27204 0.17543 0.42537 0.0
N589 N 0.25163 0.24611 0.48068 0.0
H590 H 0.18691 0.87993 0.89056 0.0
H591 H 0.28571 0.73641 0.81715 0.0
H592 H 0.19023 0.78603 0.93778 0.0
H593 H 0.24171 0.80357 0.74638 0.0
H594 H 0.25887 0.76017 0.86606 0.0
H595 H 0.2153 0.85809 0.84139 0.0
C596 C 0.19381 0.85487 0.8907 0.0
C597 C 0.18612 0.83469 0.91812 0.0
C598 C 0.25512 0.76966 0.83979 0.0
C599 C 0.21871 0.8099 0.86265 0.0
C600 C 0.27042 0.75617 0.81191 0.0
C601 C 0.26575 0.76788 0.77761 0.0
C602 C 0.23552 0.79555 0.83354 0.0
C603 C 0.24572 0.79361 0.77237 0.0
C604 C 0.20978 0.84242 0.86264 0.0
C605 C 0.19546 0.80235 0.91701 0.0
N606 N 0.23148 0.80677 0.80011 0.0
N607 N 0.21142 0.79103 0.88989 0.0
loop_
_geom_bond_atom_site_label_1
_geom_bond_atom_site_label_2
_geom_bond_distance
_geom_bond_site_symmetry_2
_ccdc_geom_bond_type
Fe0 O2 1.915 1_554 S
Fe0 O5 1.997 . S
Fe0 O6 2.002 . S
Fe0 O11 1.976 1_554 S
Fe0 O14 1.996 1_554 S
Fe1 O2 1.916 1_554 S
Fe1 O9 1.997 . S
Fe1 O12 1.996 1_554 S
Fe1 O16 1.976 1_554 S
Fe1 O19 2.002 . S
O2 Fe0 1.915 1_556 S
O2 Fe1 1.916 1_556 S
O2 Fe3 1.923 . S
Fe3 O2 1.923 . S
Fe3 O4 2.002 1_556 S
Fe3 O13 1.976 . S
Fe3 O17 1.996 . S
Fe3 O20 1.997 1_556 S
O4 Fe3 2.002 1_554 S
O4 C21 1.295 . S
O5 Fe0 1.997 . S
O5 C21 1.235 . S
O6 Fe0 2.002 . S
O6 C7 1.295 . S
C7 O6 1.295 . S
C7 O9 1.235 . S
C8 O13 1.287 . S
C8 O14 1.255 . S
O9 Fe1 1.997 . S
O9 C7 1.235 . S
C10 O16 1.287 . S
C10 O17 1.255 . S
O11 Fe0 1.976 1_556 S
O11 C18 1.287 . S
O12 Fe1 1.996 1_556 S
O12 C18 1.255 . S
O13 Fe3 1.976 . S
O13 C8 1.287 . S
O14 Fe0 1.996 1_556 S
O14 C8 1.255 . S
C15 O19 1.295 . S
C15 O20 1.235 . S
O16 Fe1 1.976 1_556 S
O16 C10 1.287 . S
O17 Fe3 1.996 . S
O17 C10 1.255 . S
C18 O11 1.287 . S
C18 O12 1.255 . S
O19 Fe1 2.002 . S
O19 C15 1.295 . S
O20 Fe3 1.997 1_554 S
O20 C15 1.235 . S
C21 O4 1.295 . S
C21 O5 1.235 . S
Fe22 O24 1.918 . S
Fe22 O27 1.997 . S
Fe22 O28 2.002 . S
Fe22 O33 1.976 . S
Fe22 O36 1.996 . S
Fe23 O24 1.918 . S
Fe23 O31 1.997 . S
Fe23 O34 1.996 . S
Fe23 O38 1.976 . S
Fe23 O41 2.002 . S
O24 Fe22 1.918 . S
O24 Fe23 1.918 . S
O24 Fe25 1.918 . S
Fe25 O24 1.918 . S
Fe25 O26 2.002 . S
Fe25 O35 1.976 . S
Fe25 O39 1.996 . S
Fe25 O42 1.997 . S
O26 Fe25 2.002 . S
O26 C43 1.295 . S
O27 Fe22 1.997 . S
O27 C43 1.235 . S
O28 Fe22 2.002 . S
O28 C29 1.295 . S
C29 O28 1.295 . S
C29 O31 1.235 . S
C30 O35 1.287 . S
C30 O36 1.255 . S
O31 Fe23 1.997 . S
O31 C29 1.235 . S
C32 O38 1.287 . S
C32 O39 1.255 . S
O33 Fe22 1.976 . S
O33 C40 1.287 . S
O34 Fe23 1.996 . S
O34 C40 1.255 . S
O35 Fe25 1.976 . S
O35 C30 1.287 . S
O36 Fe22 1.996 . S
O36 C30 1.255 . S
C37 O41 1.295 . S
C37 O42 1.235 . S
O38 Fe23 1.976 . S
O38 C32 1.287 . S
O39 Fe25 1.996 . S
O39 C32 1.255 . S
C40 O33 1.287 . S
C40 O34 1.255 . S
O41 Fe23 2.002 . S
O41 C37 1.295 . S
O42 Fe25 1.997 . S
O42 C37 1.235 . S
C43 O26 1.295 . S
C43 O27 1.235 . S
Fe44 O46 1.918 . S
Fe44 O49 1.997 . S
Fe44 O50 2.002 . S
Fe44 O55 1.976 . S
Fe44 O58 1.996 . S
Fe45 O46 1.918 . S
Fe45 O53 1.997 . S
Fe45 O56 1.996 . S
Fe45 O60 1.976 . S
Fe45 O63 2.002 1_554 S
O46 Fe44 1.918 . S
O46 Fe45 1.918 . S
O46 Fe47 1.918 . S
Fe47 O46 1.918 . S
Fe47 O48 2.002 1_554 S
Fe47 O57 1.976 . S
Fe47 O61 1.996 . S
Fe47 O64 1.997 1_554 S
O48 Fe47 2.002 1_556 S
O48 C65 1.295 . S
O49 Fe44 1.997 . S
O49 C65 1.235 1_554 S
O50 Fe44 2.002 . S
O50 C51 1.311 . S
C51 O50 1.311 . S
C51 O53 1.240 . S
C52 O57 1.287 . S
C52 O58 1.255 . S
O53 Fe45 1.997 . S
O53 C51 1.240 . S
C54 O60 1.287 . S
C54 O61 1.255 . S
O55 Fe44 1.976 . S
O55 C62 1.287 . S
O56 Fe45 1.996 . S
O56 C62 1.255 . S
O57 Fe47 1.976 . S
O57 C52 1.287 . S
O58 Fe44 1.996 . S
O58 C52 1.255 . S
C59 O63 1.295 . S
C59 O64 1.235 . S
O60 Fe45 1.976 . S
O60 C54 1.287 . S
O61 Fe47 1.996 . S
O61 C54 1.255 . S
C62 O55 1.287 . S
C62 O56 1.255 . S
O63 Fe45 2.002 1_556 S
O63 C59 1.295 . S
O64 Fe47 1.997 1_556 S
O64 C59 1.235 . S
C65 O48 1.295 . S
C65 O49 1.235 1_556 S
Fe66 O68 1.918 . S
Fe66 O71 1.997 . S
Fe66 O72 2.002 . S
Fe66 O77 1.976 . S
Fe66 O80 1.996 . S
Fe67 O68 1.918 . S
Fe67 O75 1.997 . S
Fe67 O78 1.996 . S
Fe67 O82 1.976 . S
Fe67 O85 2.002 . S
O68 Fe66 1.918 . S
O68 Fe67 1.918 . S
O68 Fe69 1.918 . S
Fe69 O68 1.918 . S
Fe69 O70 2.002 . S
Fe69 O79 1.976 . S
Fe69 O83 1.996 . S
Fe69 O86 1.997 . S
O70 Fe69 2.002 . S
O70 C87 1.295 . S
O71 Fe66 1.997 . S
O71 C87 1.235 . S
O72 Fe66 2.002 . S
O72 C73 1.295 . S
C73 O72 1.295 . S
C73 O75 1.235 . S
C74 O79 1.287 . S
C74 O80 1.255 . S
O75 Fe67 1.997 . S
O75 C73 1.235 . S
C76 O82 1.287 . S
C76 O83 1.255 . S
O77 Fe66 1.976 . S
O77 C84 1.287 . S
O78 Fe67 1.996 . S
O78 C84 1.255 . S
O79 Fe69 1.976 . S
O79 C74 1.287 . S
O80 Fe66 1.996 . S
O80 C74 1.255 . S
C81 O85 1.295 . S
C81 O86 1.235 . S
O82 Fe67 1.976 . S
O82 C76 1.287 . S
O83 Fe69 1.996 . S
O83 C76 1.255 . S
C84 O77 1.287 . S
C84 O78 1.255 . S
O85 Fe67 2.002 . S
O85 C81 1.295 . S
O86 Fe69 1.997 . S
O86 C81 1.235 . S
C87 O70 1.295 . S
C87 O71 1.235 . S
O88 Cd89 2.300 . S
O88 C95 1.275 . S
Cd89 O88 2.300 . S
Cd89 O97 2.381 . S
Cd89 O98 2.378 . S
O90 Cd91 2.385 . S
O90 C95 1.255 . S
Cd91 O90 2.385 . S
Cd91 O92 2.317 . S
O92 Cd91 2.317 . S
O92 C93 1.232 . S
C93 O92 1.232 . S
C93 O94 1.218 . S
O94 C93 1.218 . S
C95 O88 1.275 . S
C95 O90 1.255 . S
C96 O97 1.258 . S
C96 O98 1.256 . S
O97 Cd89 2.381 . S
O97 C96 1.258 . S
O98 Cd89 2.378 . S
O98 C96 1.256 . S
O99 Cd100 2.300 . S
O99 C106 1.275 . S
Cd100 O99 2.300 . S
Cd100 O108 2.381 . S
Cd100 O109 2.378 . S
O101 Cd102 2.385 . S
O101 C106 1.255 . S
Cd102 O101 2.385 . S
Cd102 O103 2.317 . S
O103 Cd102 2.317 . S
O103 C104 1.232 . S
C104 O103 1.232 . S
C104 O105 1.218 . S
O105 C104 1.218 . S
C106 O99 1.275 . S
C106 O101 1.255 . S
C107 O108 1.258 . S
C107 O109 1.256 . S
O108 Cd100 2.381 . S
O108 C107 1.258 . S
O109 Cd100 2.378 . S
O109 C107 1.256 . S
O110 Cd111 2.300 . S
O110 C117 1.275 . S
Cd111 O110 2.300 . S
Cd111 O119 2.381 . S
Cd111 O120 2.378 . S
O112 Cd113 2.385 . S
O112 C117 1.255 . S
Cd113 O112 2.385 . S
Cd113 O114 2.317 . S
O114 Cd113 2.317 . S
O114 C115 1.232 . S
C115 O114 1.232 . S
C115 O116 1.218 . S
O116 C115 1.218 . S
C117 O110 1.275 . S
C117 O112 1.255 . S
C118 O119 1.258 . S
C118 O120 1.256 . S
O119 Cd111 2.381 . S
O119 C118 1.258 . S
O120 Cd111 2.378 . S
O120 C118 1.256 . S
O121 Cd122 2.300 . S
O121 C128 1.275 . S
Cd122 O121 2.300 . S
Cd122 O130 2.381 . S
Cd122 O131 2.378 . S
O123 Cd124 2.385 . S
O123 C128 1.255 . S
Cd124 O123 2.385 . S
Cd124 O125 2.317 . S
O125 Cd124 2.317 . S
O125 C126 1.232 . S
C126 O125 1.232 . S
C126 O127 1.218 . S
O127 C126 1.218 . S
C128 O121 1.275 . S
C128 O123 1.255 . S
C129 O130 1.258 . S
C129 O131 1.256 . S
O130 Cd122 2.381 . S
O130 C129 1.258 . S
O131 Cd122 2.378 . S
O131 C129 1.256 . S
O132 Cd133 2.300 . S
O132 C139 1.275 . S
Cd133 O132 2.300 . S
Cd133 O141 2.381 . S
Cd133 O142 2.378 . S
O134 Cd135 2.385 . S
O134 C139 1.255 . S
Cd135 O134 2.385 . S
Cd135 O136 2.317 . S
O136 Cd135 2.317 . S
O136 C137 1.232 . S
C137 O136 1.232 . S
C137 O138 1.218 . S
O138 C137 1.218 . S
C139 O132 1.275 . S
C139 O134 1.255 . S
C140 O141 1.258 . S
C140 O142 1.256 . S
O141 Cd133 2.381 . S
O141 C140 1.258 . S
O142 Cd133 2.378 . S
O142 C140 1.256 . S
O143 Cd144 2.300 . S
O143 C150 1.275 . S
Cd144 O143 2.300 . S
Cd144 O152 2.381 . S
Cd144 O153 2.378 . S
O145 Cd146 2.385 . S
O145 C150 1.255 . S
Cd146 O145 2.385 . S
Cd146 O147 2.317 . S
O147 Cd146 2.317 . S
O147 C148 1.232 . S
C148 O147 1.232 . S
C148 O149 1.218 . S
O149 C148 1.218 . S
C150 O143 1.275 . S
C150 O145 1.255 . S
C151 O152 1.258 . S
C151 O153 1.256 . S
O152 Cd144 2.381 . S
O152 C151 1.258 . S
O153 Cd144 2.378 . S
O153 C151 1.256 . S
O154 Cd155 2.300 . S
O154 C161 1.275 . S
Cd155 O154 2.300 . S
Cd155 O163 2.381 . S
Cd155 O164 2.378 . S
O156 Cd157 2.385 . S
O156 C161 1.255 . S
Cd157 O156 2.385 . S
Cd157 O158 2.317 . S
O158 Cd157 2.317 . S
O158 C159 1.232 . S
C159 O158 1.232 . S
C159 O160 1.218 . S
O160 C159 1.218 . S
C161 O154 1.275 . S
C161 O156 1.255 . S
C162 O163 1.258 . S
C162 O164 1.256 . S
O163 Cd155 2.381 . S
O163 C162 1.258 . S
O164 Cd155 2.378 . S
O164 C162 1.256 . S
O165 Cd166 2.300 . S
O165 C172 1.275 . S
Cd166 O165 2.300 . S
Cd166 O174 2.381 . S
Cd166 O175 2.378 . S
O167 Cd168 2.385 . S
O167 C172 1.255 . S
Cd168 O167 2.385 . S
Cd168 O169 2.317 . S
O169 Cd168 2.317 . S
O169 C170 1.232 . S
C170 O169 1.232 . S
C170 O171 1.218 . S
O171 C170 1.218 . S
C172 O165 1.275 . S
C172 O167 1.255 . S
C173 O174 1.258 . S
C173 O175 1.256 . S
O174 Cd166 2.381 . S
O174 C173 1.258 . S
O175 Cd166 2.378 . S
O175 C173 1.256 . S
H176 C182 0.930 . S
H177 C186 0.930 . S
H178 C191 0.929 . S
H179 C189 0.929 . S
H180 C184 0.929 . S
H181 C190 0.929 . S
C182 H176 0.930 . S
C182 C183 1.367 . S
C182 C190 1.378 . S
C183 C182 1.367 . S
C183 C191 1.433 . S
C184 H180 0.929 . S
C184 C186 1.378 . S
C184 C188 1.350 1_545 S
C185 C188 1.463 . S
C185 C190 1.350 . S
C185 N193 1.427 . S
C186 H177 0.930 . S
C186 C184 1.378 . S
C186 C187 1.367 . S
C187 C186 1.367 . S
C187 C189 1.433 1_545 S
C188 C184 1.350 1_565 S
C188 C185 1.463 . S
C188 N192 1.427 . S
C189 H179 0.929 . S
C189 C187 1.433 1_565 S
C189 N192 1.384 . S
C190 H181 0.929 . S
C190 C182 1.378 . S
C190 C185 1.350 . S
C191 H178 0.929 . S
C191 C183 1.433 . S
C191 N193 1.384 . S
N192 C188 1.427 . S
N192 C189 1.384 . S
N193 C185 1.427 . S
N193 C191 1.384 . S
H194 C200 0.930 . S
H195 C204 0.930 . S
H196 C209 0.929 . S
H197 C207 0.929 . S
H198 C202 0.929 . S
H199 C208 0.929 . S
C200 H194 0.930 . S
C200 C201 1.367 . S
C200 C208 1.378 . S
C201 C200 1.367 . S
C201 C209 1.433 . S
C202 H198 0.929 . S
C202 C204 1.378 . S
C202 C206 1.350 . S
C203 C206 1.463 . S
C203 C208 1.350 . S
C203 N211 1.427 . S
C204 H195 0.930 . S
C204 C202 1.378 . S
C204 C205 1.367 . S
C205 C204 1.367 . S
C205 C207 1.433 . S
C206 C202 1.350 . S
C206 C203 1.463 . S
C206 N210 1.427 . S
C207 H197 0.929 . S
C207 C205 1.433 . S
C207 N210 1.384 . S
C208 H199 0.929 . S
C208 C200 1.378 . S
C208 C203 1.350 . S
C209 H196 0.929 . S
C209 C201 1.433 . S
C209 N211 1.384 . S
N210 C206 1.427 . S
N210 C207 1.384 . S
N211 C203 1.427 . S
N211 C209 1.384 . S
H212 C218 0.930 . S
H213 C222 0.930 . S
H214 C227 0.929 . S
H215 C225 0.929 . S
H216 C220 0.929 . S
H217 C226 0.929 . S
C218 H212 0.930 . S
C218 C219 1.367 . S
C218 C226 1.378 1_545 S
C219 C218 1.367 . S
C219 C227 1.433 . S
C220 H216 0.929 . S
C220 C222 1.378 . S
C220 C224 1.350 . S
C221 C224 1.463 . S
C221 C226 1.350 . S
C221 N229 1.427 . S
C222 H213 0.930 . S
C222 C220 1.378 . S
C222 C223 1.367 . S
C223 C222 1.367 . S
C223 C225 1.433 . S
C224 C220 1.350 . S
C224 C221 1.463 . S
C224 N228 1.427 . S
C225 H215 0.929 . S
C225 C223 1.433 . S
C225 N228 1.384 . S
C226 H217 0.929 . S
C226 C218 1.378 1_565 S
C226 C221 1.350 . S
C227 H214 0.929 . S
C227 C219 1.433 . S
C227 N229 1.384 1_545 S
N228 C224 1.427 . S
N228 C225 1.384 . S
N229 C221 1.427 . S
N229 C227 1.384 1_565 S
H230 C236 0.930 . S
H231 C240 0.930 . S
H232 C245 0.929 . S
H233 C243 0.929 . S
H234 C238 0.929 . S
H235 C244 0.929 . S
C236 H230 0.930 . S
C236 C237 1.367 . S
C236 C244 1.378 . S
C237 C236 1.367 . S
C237 C245 1.433 . S
C238 H234 0.929 . S
C238 C240 1.378 . S
C238 C242 1.350 . S
C239 C242 1.463 . S
C239 C244 1.350 . S
C239 N247 1.427 . S
C240 H231 0.930 . S
C240 C238 1.378 . S
C240 C241 1.367 . S
C241 C240 1.367 . S
C241 C243 1.433 . S
C242 C238 1.350 . S
C242 C239 1.463 . S
C242 N246 1.427 . S
C243 H233 0.929 . S
C243 C241 1.433 . S
C243 N246 1.384 . S
C244 H235 0.929 . S
C244 C236 1.378 . S
C244 C239 1.350 . S
C245 H232 0.929 . S
C245 C237 1.433 . S
C245 N247 1.384 . S
N246 C242 1.427 . S
N246 C243 1.384 . S
N247 C239 1.427 . S
N247 C245 1.384 . S
H248 C254 0.930 . S
H249 C258 0.930 . S
H250 C263 0.929 . S
H251 C261 0.929 . S
H252 C256 0.929 . S
H253 C262 0.929 . S
C254 H248 0.930 . S
C254 C255 1.367 . S
C254 C262 1.378 . S
C255 C254 1.367 . S
C255 C263 1.433 . S
C256 H252 0.929 . S
C256 C258 1.378 . S
C256 C260 1.350 . S
C257 C260 1.463 . S
C257 C262 1.350 . S
C257 N265 1.427 . S
C258 H249 0.930 . S
C258 C256 1.378 . S
C258 C259 1.367 . S
C259 C258 1.367 . S
C259 C261 1.433 . S
C260 C256 1.350 . S
C260 C257 1.463 . S
C260 N264 1.427 . S
C261 H251 0.929 . S
C261 C259 1.433 . S
C261 N264 1.384 . S
C262 H253 0.929 . S
C262 C254 1.378 . S
C262 C257 1.350 . S
C263 H250 0.929 . S
C263 C255 1.433 . S
C263 N265 1.384 . S
N264 C260 1.427 . S
N264 C261 1.384 . S
N265 C257 1.427 . S
N265 C263 1.384 . S
H266 C272 0.930 1_554 S
H267 C276 0.930 . S
H268 C281 0.929 . S
H269 C279 0.929 . S
H270 C274 0.929 . S
H271 C280 0.929 . S
C272 H266 0.930 1_556 S
C272 C273 1.367 . S
C272 C280 1.378 . S
C273 C272 1.367 . S
C273 C281 1.433 . S
C274 H270 0.929 . S
C274 C276 1.378 . S
C274 C278 1.350 . S
C275 C278 1.496 . S
C275 C280 1.326 1_455 S
C275 N283 1.421 1_455 S
C276 H267 0.930 . S
C276 C274 1.378 . S
C276 C277 1.367 . S
C277 C276 1.367 . S
C277 C279 1.433 . S
C278 C274 1.350 . S
C278 C275 1.496 . S
C278 N282 1.427 . S
C279 H269 0.929 . S
C279 C277 1.433 . S
C279 N282 1.384 . S
C280 H271 0.929 . S
C280 C272 1.378 . S
C280 C275 1.326 1_655 S
C281 H268 0.929 . S
C281 C273 1.433 . S
C281 N283 1.384 . S
N282 C278 1.427 . S
N282 C279 1.384 . S
N283 C275 1.421 1_655 S
N283 C281 1.384 . S
H284 C290 0.930 . S
H285 C294 0.930 . S
H286 C299 0.929 . S
H287 C297 0.929 . S
H288 C292 0.929 . S
H289 C298 0.929 . S
C290 H284 0.930 . S
C290 C291 1.367 . S
C290 C298 1.378 . S
C291 C290 1.367 . S
C291 C299 1.433 . S
C292 H288 0.929 . S
C292 C294 1.378 . S
C292 C296 1.350 . S
C293 C296 1.463 . S
C293 C298 1.350 . S
C293 N301 1.427 . S
C294 H285 0.930 . S
C294 C292 1.378 . S
C294 C295 1.367 . S
C295 C294 1.367 . S
C295 C297 1.433 . S
C296 C292 1.350 . S
C296 C293 1.463 . S
C296 N300 1.427 . S
C297 H287 0.929 . S
C297 C295 1.433 . S
C297 N300 1.384 . S
C298 H289 0.929 . S
C298 C290 1.378 . S
C298 C293 1.350 . S
C299 H286 0.929 . S
C299 C291 1.433 . S
C299 N301 1.384 . S
N300 C296 1.427 . S
N300 C297 1.384 . S
N301 C293 1.427 . S
N301 C299 1.384 . S
H302 C308 0.930 . S
H303 C312 0.930 . S
H304 C317 0.929 . S
H305 C315 0.929 . S
H306 C310 0.929 . S
H307 C316 0.929 . S
C308 H302 0.930 . S
C308 C309 1.367 . S
C308 C316 1.378 . S
C309 C308 1.367 . S
C309 C317 1.433 . S
C310 H306 0.929 . S
C310 C312 1.378 . S
C310 C314 1.350 . S
C311 C314 1.463 1_455 S
C311 C316 1.350 . S
C311 N319 1.427 . S
C312 H303 0.930 . S
C312 C310 1.378 . S
C312 C313 1.367 . S
C313 C312 1.367 . S
C313 C315 1.433 . S
C314 C310 1.350 . S
C314 C311 1.463 1_655 S
C314 N318 1.427 . S
C315 H305 0.929 . S
C315 C313 1.433 . S
C315 N318 1.384 . S
C316 H307 0.929 . S
C316 C308 1.378 . S
C316 C311 1.350 . S
C317 H304 0.929 . S
C317 C309 1.433 . S
C317 N319 1.384 . S
N318 C314 1.427 . S
N318 C315 1.384 . S
N319 C311 1.427 . S
N319 C317 1.384 . S
H320 C326 0.930 . S
H321 C330 0.930 . S
H322 C335 0.929 . S
H323 C333 0.929 . S
H324 C328 0.929 . S
H325 C334 0.929 . S
C326 H320 0.930 . S
C326 C327 1.367 . S
C326 C334 1.378 . S
C327 C326 1.367 . S
C327 C335 1.433 . S
C328 H324 0.929 . S
C328 C330 1.378 . S
C328 C332 1.350 1_565 S
C329 C332 1.463 . S
C329 C334 1.350 . S
C329 N337 1.427 . S
C330 H321 0.930 . S
C330 C328 1.378 . S
C330 C331 1.367 . S
C331 C330 1.367 . S
C331 C333 1.433 1_565 S
C332 C328 1.350 1_545 S
C332 C329 1.463 . S
C332 N336 1.427 . S
C333 H323 0.929 . S
C333 C331 1.433 1_545 S
C333 N336 1.384 . S
C334 H325 0.929 . S
C334 C326 1.378 . S
C334 C329 1.350 . S
C335 H322 0.929 . S
C335 C327 1.433 . S
C335 N337 1.384 . S
N336 C332 1.427 . S
N336 C333 1.384 . S
N337 C329 1.427 . S
N337 C335 1.384 . S
H338 C344 0.930 . S
H339 C348 0.930 . S
H340 C353 0.929 . S
H341 C351 0.929 . S
H342 C346 0.929 . S
H343 C352 0.929 . S
C344 H338 0.930 . S
C344 C345 1.367 . S
C344 C352 1.378 . S
C345 C344 1.367 . S
C345 C353 1.433 . S
C346 H342 0.929 . S
C346 C348 1.378 . S
C346 C350 1.350 . S
C347 C350 1.463 . S
C347 C352 1.350 . S
C347 N355 1.427 . S
C348 H339 0.930 . S
C348 C346 1.378 . S
C348 C349 1.367 . S
C349 C348 1.367 . S
C349 C351 1.433 . S
C350 C346 1.350 . S
C350 C347 1.463 . S
C350 N354 1.427 . S
C351 H341 0.929 . S
C351 C349 1.433 . S
C351 N354 1.384 . S
C352 H343 0.929 . S
C352 C344 1.378 . S
C352 C347 1.350 . S
C353 H340 0.929 . S
C353 C345 1.433 . S
C353 N355 1.384 . S
N354 C350 1.427 . S
N354 C351 1.384 . S
N355 C347 1.427 . S
N355 C353 1.384 . S
H356 C362 0.930 1_564 S
H357 C366 0.930 . S
H358 C371 0.929 . S
H359 C369 0.929 . S
H360 C364 0.929 . S
H361 C370 0.929 . S
C362 H356 0.930 1_546 S
C362 C363 1.367 1_545 S
C362 C370 1.378 . S
C363 C362 1.367 1_565 S
C363 C371 1.433 . S
C364 H360 0.929 . S
C364 C366 1.378 . S
C364 C368 1.350 . S
C365 C368 1.463 . S
C365 C370 1.350 . S
C365 N373 1.427 . S
C366 H357 0.930 . S
C366 C364 1.378 . S
C366 C367 1.367 . S
C367 C366 1.367 . S
C367 C369 1.433 . S
C368 C364 1.350 . S
C368 C365 1.463 . S
C368 N372 1.427 . S
C369 H359 0.929 . S
C369 C367 1.433 . S
C369 N372 1.384 . S
C370 H361 0.929 . S
C370 C362 1.378 . S
C370 C365 1.350 . S
C371 H358 0.929 . S
C371 C363 1.433 . S
C371 N373 1.384 1_565 S
N372 C368 1.427 . S
N372 C369 1.384 . S
N373 C365 1.427 . S
N373 C371 1.384 1_545 S
H374 C380 0.930 . S
H375 C384 0.930 . S
H376 C389 0.929 . S
H377 C387 0.929 . S
H378 C382 0.929 . S
H379 C388 0.929 . S
C380 H374 0.930 . S
C380 C381 1.367 . S
C380 C388 1.378 . S
C381 C380 1.367 . S
C381 C389 1.433 . S
C382 H378 0.929 . S
C382 C384 1.378 . S
C382 C386 1.350 . S
C383 C386 1.463 . S
C383 C388 1.350 . S
C383 N391 1.427 . S
C384 H375 0.930 . S
C384 C382 1.378 . S
C384 C385 1.367 . S
C385 C384 1.367 . S
C385 C387 1.433 . S
C386 C382 1.350 . S
C386 C383 1.463 . S
C386 N390 1.427 . S
C387 H377 0.929 . S
C387 C385 1.433 . S
C387 N390 1.384 . S
C388 H379 0.929 . S
C388 C380 1.378 . S
C388 C383 1.350 . S
C389 H376 0.929 . S
C389 C381 1.433 . S
C389 N391 1.384 . S
N390 C386 1.427 . S
N390 C387 1.384 . S
N391 C383 1.427 . S
N391 C389 1.384 . S
H392 C398 0.930 . S
H393 C402 0.930 . S
H394 C407 0.929 . S
H395 C405 0.929 . S
H396 C400 0.929 . S
H397 C406 0.929 . S
C398 H392 0.930 . S
C398 C399 1.367 . S
C398 C406 1.378 . S
C399 C398 1.367 . S
C399 C407 1.433 . S
C400 H396 0.929 . S
C400 C402 1.378 . S
C400 C404 1.350 . S
C401 C404 1.463 . S
C401 C406 1.350 . S
C401 N409 1.427 . S
C402 H393 0.930 . S
C402 C400 1.378 . S
C402 C403 1.367 . S
C403 C402 1.367 . S
C403 C405 1.433 . S
C404 C400 1.350 . S
C404 C401 1.463 . S
C404 N408 1.427 . S
C405 H395 0.929 . S
C405 C403 1.433 . S
C405 N408 1.384 . S
C406 H397 0.929 . S
C406 C398 1.378 . S
C406 C401 1.350 . S
C407 H394 0.929 . S
C407 C399 1.433 . S
C407 N409 1.384 . S
N408 C404 1.427 . S
N408 C405 1.384 . S
N409 C401 1.427 . S
N409 C407 1.384 . S
H410 C416 0.930 1_556 S
H411 C420 0.930 . S
H412 C425 0.929 . S
H413 C423 0.929 . S
H414 C418 0.929 . S
H415 C424 0.929 . S
C416 H410 0.930 1_554 S
C416 C417 1.367 . S
C416 C424 1.378 1_455 S
C417 C416 1.367 . S
C417 C425 1.433 . S
C418 H414 0.929 . S
C418 C420 1.378 . S
C418 C422 1.350 . S
C419 C422 1.463 . S
C419 C424 1.350 . S
C419 N427 1.427 1_655 S
C420 H411 0.930 . S
C420 C418 1.378 . S
C420 C421 1.367 . S
C421 C420 1.367 . S
C421 C423 1.433 . S
C422 C418 1.350 . S
C422 C419 1.463 . S
C422 N426 1.427 . S
C423 H413 0.929 . S
C423 C421 1.433 . S
C423 N426 1.384 . S
C424 H415 0.929 . S
C424 C416 1.378 1_655 S
C424 C419 1.350 . S
C425 H412 0.929 . S
C425 C417 1.433 . S
C425 N427 1.384 . S
N426 C422 1.427 . S
N426 C423 1.384 . S
N427 C419 1.427 1_455 S
N427 C425 1.384 . S
H428 C434 0.930 . S
H429 C438 0.930 . S
H430 C443 0.929 . S
H431 C441 0.929 . S
H432 C436 0.929 . S
H433 C442 0.929 . S
C434 H428 0.930 . S
C434 C435 1.367 . S
C434 C442 1.378 . S
C435 C434 1.367 . S
C435 C443 1.433 . S
C436 H432 0.929 . S
C436 C438 1.378 . S
C436 C440 1.350 . S
C437 C440 1.463 . S
C437 C442 1.350 . S
C437 N445 1.427 . S
C438 H429 0.930 . S
C438 C436 1.378 . S
C438 C439 1.367 . S
C439 C438 1.367 . S
C439 C441 1.433 . S
C440 C436 1.350 . S
C440 C437 1.463 . S
C440 N444 1.427 . S
C441 H431 0.929 . S
C441 C439 1.433 . S
C441 N444 1.384 . S
C442 H433 0.929 . S
C442 C434 1.378 . S
C442 C437 1.350 . S
C443 H430 0.929 . S
C443 C435 1.433 . S
C443 N445 1.384 . S
N444 C440 1.427 . S
N444 C441 1.384 . S
N445 C437 1.427 . S
N445 C443 1.384 . S
H446 C452 0.930 . S
H447 C456 0.930 . S
H448 C461 0.929 . S
H449 C459 0.929 . S
H450 C454 0.929 1_655 S
H451 C460 0.929 . S
C452 H446 0.930 . S
C452 C453 1.367 . S
C452 C460 1.378 . S
C453 C452 1.367 . S
C453 C461 1.433 . S
C454 H450 0.929 1_455 S
C454 C456 1.378 . S
C454 C458 1.350 1_455 S
C455 C458 1.463 . S
C455 C460 1.350 . S
C455 N463 1.427 . S
C456 H447 0.930 . S
C456 C454 1.378 . S
C456 C457 1.367 . S
C457 C456 1.367 . S
C457 C459 1.433 . S
C458 C454 1.350 1_655 S
C458 C455 1.463 . S
C458 N462 1.427 1_655 S
C459 H449 0.929 . S
C459 C457 1.433 . S
C459 N462 1.384 . S
C460 H451 0.929 . S
C460 C452 1.378 . S
C460 C455 1.350 . S
C461 H448 0.929 . S
C461 C453 1.433 . S
C461 N463 1.384 . S
N462 C458 1.427 1_455 S
N462 C459 1.384 . S
N463 C455 1.427 . S
N463 C461 1.384 . S
H464 C470 0.930 . S
H465 C474 0.930 . S
H466 C479 0.929 . S
H467 C477 0.929 . S
H468 C472 0.929 . S
H469 C478 0.929 . S
C470 H464 0.930 . S
C470 C471 1.367 . S
C470 C478 1.378 . S
C471 C470 1.367 . S
C471 C479 1.433 . S
C472 H468 0.929 . S
C472 C474 1.378 . S
C472 C476 1.350 . S
C473 C476 1.463 . S
C473 C478 1.350 . S
C473 N481 1.427 . S
C474 H465 0.930 . S
C474 C472 1.378 . S
C474 C475 1.367 . S
C475 C474 1.367 . S
C475 C477 1.433 . S
C476 C472 1.350 . S
C476 C473 1.463 . S
C476 N480 1.427 . S
C477 H467 0.929 . S
C477 C475 1.433 . S
C477 N480 1.384 . S
C478 H469 0.929 . S
C478 C470 1.378 . S
C478 C473 1.350 . S
C479 H466 0.929 . S
C479 C471 1.433 . S
C479 N481 1.384 . S
N480 C476 1.427 . S
N480 C477 1.384 . S
N481 C473 1.427 . S
N481 C479 1.384 . S
H482 C488 0.930 . S
H483 C492 0.930 . S
H484 C497 0.929 . S
H485 C495 0.929 . S
H486 C490 0.929 . S
H487 C496 0.929 . S
C488 H482 0.930 . S
C488 C489 1.367 . S
C488 C496 1.378 . S
C489 C488 1.367 . S
C489 C497 1.433 . S
C490 H486 0.929 . S
C490 C492 1.378 . S
C490 C494 1.350 . S
C491 C494 1.463 . S
C491 C496 1.350 . S
C491 N499 1.427 . S
C492 H483 0.930 . S
C492 C490 1.378 . S
C492 C493 1.367 . S
C493 C492 1.367 . S
C493 C495 1.433 . S
C494 C490 1.350 . S
C494 C491 1.463 . S
C494 N498 1.427 . S
C495 H485 0.929 . S
C495 C493 1.433 . S
C495 N498 1.384 . S
C496 H487 0.929 . S
C496 C488 1.378 . S
C496 C491 1.350 . S
C497 H484 0.929 . S
C497 C489 1.433 . S
C497 N499 1.384 . S
N498 C494 1.427 . S
N498 C495 1.384 . S
N499 C491 1.427 . S
N499 C497 1.384 . S
H500 C506 0.930 . S
H501 C510 0.930 . S
H502 C515 0.929 . S
H503 C513 0.929 . S
H504 C508 0.929 . S
H505 C514 0.929 . S
C506 H500 0.930 . S
C506 C507 1.367 . S
C506 C514 1.378 . S
C507 C506 1.367 . S
C507 C515 1.433 . S
C508 H504 0.929 . S
C508 C510 1.378 . S
C508 C512 1.350 . S
C509 C512 1.463 . S
C509 C514 1.350 . S
C509 N517 1.427 . S
C510 H501 0.930 . S
C510 C508 1.378 . S
C510 C511 1.367 . S
C511 C510 1.367 . S
C511 C513 1.433 . S
C512 C508 1.350 . S
C512 C509 1.463 . S
C512 N516 1.427 . S
C513 H503 0.929 . S
C513 C511 1.433 . S
C513 N516 1.384 . S
C514 H505 0.929 . S
C514 C506 1.378 . S
C514 C509 1.350 . S
C515 H502 0.929 . S
C515 C507 1.433 . S
C515 N517 1.384 . S
N516 C512 1.427 . S
N516 C513 1.384 . S
N517 C509 1.427 . S
N517 C515 1.384 . S
H518 C524 0.930 . S
H519 C528 0.930 . S
H520 C533 0.929 . S
H521 C531 0.929 . S
H522 C526 0.929 . S
H523 C532 0.929 . S
C524 H518 0.930 . S
C524 C525 1.367 . S
C524 C532 1.378 . S
C525 C524 1.367 . S
C525 C533 1.433 . S
C526 H522 0.929 . S
C526 C528 1.378 . S
C526 C530 1.350 . S
C527 C530 1.463 . S
C527 C532 1.350 . S
C527 N535 1.427 . S
C528 H519 0.930 . S
C528 C526 1.378 . S
C528 C529 1.367 . S
C529 C528 1.367 . S
C529 C531 1.433 . S
C530 C526 1.350 . S
C530 C527 1.463 . S
C530 N534 1.427 . S
C531 H521 0.929 . S
C531 C529 1.433 . S
C531 N534 1.384 . S
C532 H523 0.929 . S
C532 C524 1.378 . S
C532 C527 1.350 . S
C533 H520 0.929 . S
C533 C525 1.433 . S
C533 N535 1.384 . S
N534 C530 1.427 . S
N534 C531 1.384 . S
N535 C527 1.427 . S
N535 C533 1.384 . S
H536 C542 0.930 . S
H537 C546 0.930 . S
H538 C551 0.929 . S
H539 C549 0.929 . S
H540 C544 0.929 . S
H541 C550 0.929 . S
C542 H536 0.930 . S
C542 C543 1.367 . S
C542 C550 1.378 . S
C543 C542 1.367 . S
C543 C551 1.433 . S
C544 H540 0.929 . S
C544 C546 1.378 . S
C544 C548 1.350 . S
C545 C548 1.463 . S
C545 C550 1.350 . S
C545 N553 1.427 . S
C546 H537 0.930 . S
C546 C544 1.378 . S
C546 C547 1.367 . S
C547 C546 1.367 . S
C547 C549 1.433 . S
C548 C544 1.350 . S
C548 C545 1.463 . S
C548 N552 1.427 . S
C549 H539 0.929 . S
C549 C547 1.433 . S
C549 N552 1.384 . S
C550 H541 0.929 . S
C550 C542 1.378 . S
C550 C545 1.350 . S
C551 H538 0.929 . S
C551 C543 1.433 . S
C551 N553 1.384 . S
N552 C548 1.427 . S
N552 C549 1.384 . S
N553 C545 1.427 . S
N553 C551 1.384 . S
H554 C560 0.930 1_554 S
H555 C564 0.930 . S
H556 C569 0.929 . S
H557 C567 0.929 . S
H558 C562 0.929 . S
H559 C568 0.929 . S
C560 H554 0.930 1_556 S
C560 C561 1.367 . S
C560 C568 1.378 . S
C561 C560 1.367 . S
C561 C569 1.433 . S
C562 H558 0.929 . S
C562 C564 1.378 . S
C562 C566 1.350 . S
C563 C566 1.463 . S
C563 C568 1.350 . S
C563 N571 1.427 . S
C564 H555 0.930 . S
C564 C562 1.378 . S
C564 C565 1.367 . S
C565 C564 1.367 . S
C565 C567 1.433 . S
C566 C562 1.350 . S
C566 C563 1.463 . S
C566 N570 1.427 . S
C567 H557 0.929 . S
C567 C565 1.433 . S
C567 N570 1.384 . S
C568 H559 0.929 . S
C568 C560 1.378 . S
C568 C563 1.350 . S
C569 H556 0.929 . S
C569 C561 1.433 . S
C569 N571 1.384 . S
N570 C566 1.427 . S
N570 C567 1.384 . S
N571 C563 1.427 . S
N571 C569 1.384 . S
H572 C578 0.930 . S
H573 C582 0.930 . S
H574 C587 0.929 . S
H575 C585 0.929 . S
H576 C580 0.929 . S
H577 C586 0.929 . S
C578 H572 0.930 . S
C578 C579 1.367 . S
C578 C586 1.378 . S
C579 C578 1.367 . S
C579 C587 1.433 . S
C580 H576 0.929 . S
C580 C582 1.378 . S
C580 C584 1.350 . S
C581 C584 1.463 . S
C581 C586 1.350 . S
C581 N589 1.427 . S
C582 H573 0.930 . S
C582 C580 1.378 . S
C582 C583 1.367 . S
C583 C582 1.367 . S
C583 C585 1.433 . S
C584 C580 1.350 . S
C584 C581 1.463 . S
C584 N588 1.427 . S
C585 H575 0.929 . S
C585 C583 1.433 . S
C585 N588 1.384 . S
C586 H577 0.929 . S
C586 C578 1.378 . S
C586 C581 1.350 . S
C587 H574 0.929 . S
C587 C579 1.433 . S
C587 N589 1.384 . S
N588 C584 1.427 . S
N588 C585 1.384 . S
N589 C581 1.427 . S
N589 C587 1.384 . S
H590 C596 0.930 . S
H591 C600 0.930 . S
H592 C605 0.929 . S
H593 C603 0.929 . S
H594 C598 0.929 . S
H595 C604 0.929 . S
C596 H590 0.930 . S
C596 C597 1.367 . S
C596 C604 1.378 . S
C597 C596 1.367 . S
C597 C605 1.433 . S
C598 H594 0.929 . S
C598 C600 1.378 . S
C598 C602 1.350 . S
C599 C602 1.463 . S
C599 C604 1.350 . S
C599 N607 1.427 . S
C600 H591 0.930 . S
C600 C598 1.378 . S
C600 C601 1.367 . S
C601 C600 1.367 . S
C601 C603 1.433 . S
C602 C598 1.350 . S
C602 C599 1.463 . S
C602 N606 1.427 . S
C603 H593 0.929 . S
C603 C601 1.433 . S
C603 N606 1.384 . S
C604 H595 0.929 . S
C604 C596 1.378 . S
C604 C599 1.350 . S
C605 H592 0.929 . S
C605 C597 1.433 . S
C605 N607 1.384 . S
N606 C602 1.427 . S
N606 C603 1.384 . S
N607 C599 1.427 . S
N607 C605 1.384 . S
C183 C7 1.553 . S
C187 C95 1.459 . S
C201 C37 1.408 . S
C205 C104 1.119 . S
C219 C54 1.248 . S
C223 C115 0.977 . S
C241 C126 1.051 . S
C237 C87 1.138 . S
C259 C139 1.290 . S
C255 C30 1.287 . S
C273 C51 1.214 1_556 S
C277 C148 0.904 . S
C291 C84 1.070 . S
C295 C159 0.949 . S
C309 C10 1.625 . S
C313 C172 1.531 . S
C327 C59 1.200 . S
C331 C170 0.889 . S
C349 C137 1.110 . S
C345 C74 1.311 . S
C367 C150 1.551 . S
C363 C18 1.635 . S
C381 C32 1.652 . S
C385 C161 1.657 . S
C403 C106 1.410 . S
C399 C73 1.420 . S
C417 C15 1.665 . S
C421 C117 1.596 . S
C439 C128 1.456 . S
C435 C43 1.448 . S
C457 C93 0.894 . S
C453 C62 1.180 . S
C475 C162 1.425 . S
C471 C21 1.408 . S
C493 C173 1.459 . S
C489 C29 1.505 . S
C507 C52 1.305 . S
C511 C140 1.297 . S
C529 C151 1.425 . S
C525 C81 1.485 . S
C547 C118 1.530 . S
C543 C40 1.605 . S
C561 C65 1.327 . S
C565 C129 1.326 . S
C583 C96 1.368 . S
C579 C76 1.419 . S
C601 C107 1.412 . S
C597 C8 1.451 . S
