# Generated by pormake.
# Topology zzz, (3,6)-cn, num edge types: 1
# Building blocks:
#     Node 0, Type 0, BuildingBlock: WUSLED_clean_sbu_0, # of connection points: 3
#     Node 1, Type 0, BuildingBlock: WUSLED_clean_sbu_0, # of connection points: 3
#     Node 2, Type 0, BuildingBlock: WUSLED_clean_sbu_0, # of connection points: 3
#     Node 3, Type 0, BuildingBlock: WUSLED_clean_sbu_0, # of connection points: 3
#     Node 4, Type 0, BuildingBlock: WUSLED_clean_sbu_0, # of connection points: 3
#     Node 5, Type 0, BuildingBlock: WUSLED_clean_sbu_0, # of connection points: 3
#     Node 6, Type 0, BuildingBlock: WUSLED_clean_sbu_0, # of connection points: 3
#     Node 7, Type 0, BuildingBlock: WUSLED_clean_sbu_0, # of connection points: 3
#     Node 8, Type 1, BuildingBlock: JUFBIX_clean_sbu_0, # of connection points: 6
#     Node 9, Type 1, BuildingBlock: JUFBIX_clean_sbu_0, # of connection points: 6
#     Node 10, Type 1, BuildingBlock: JUFBIX_clean_sbu_0, # of connection points: 6
#     Node 11, Type 1, BuildingBlock: JUFBIX_clean_sbu_0, # of connection points: 6
#     Edge 12, Type (0, 1), BuildingBlock: ZUJKAS_clean_linker_0, # of connection points: 2
#     Edge 13, Type (0, 1), BuildingBlock: ZUJKAS_clean_linker_0, # of connection points: 2
#     Edge 14, Type (0, 1), BuildingBlock: ZUJKAS_clean_linker_0, # of connection points: 2
#     Edge 15, Type (0, 1), BuildingBlock: ZUJKAS_clean_linker_0, # of connection points: 2
#     Edge 16, Type (0, 1), BuildingBlock: ZUJKAS_clean_linker_0, # of connection points: 2
#     Edge 17, Type (0, 1), BuildingBlock: ZUJKAS_clean_linker_0, # of connection points: 2
#     Edge 18, Type (0, 1), BuildingBlock: ZUJKAS_clean_linker_0, # of connection points: 2
#     Edge 19, Type (0, 1), BuildingBlock: ZUJKAS_clean_linker_0, # of connection points: 2
#     Edge 20, Type (0, 1), BuildingBlock: ZUJKAS_clean_linker_0, # of connection points: 2
#     Edge 21, Type (0, 1), BuildingBlock: ZUJKAS_clean_linker_0, # of connection points: 2
#     Edge 22, Type (0, 1), BuildingBlock: ZUJKAS_clean_linker_0, # of connection points: 2
#     Edge 23, Type (0, 1), BuildingBlock: ZUJKAS_clean_linker_0, # of connection points: 2
#     Edge 24, Type (0, 1), BuildingBlock: ZUJKAS_clean_linker_0, # of connection points: 2
#     Edge 25, Type (0, 1), BuildingBlock: ZUJKAS_clean_linker_0, # of connection points: 2
#     Edge 26, Type (0, 1), BuildingBlock: ZUJKAS_clean_linker_0, # of connection points: 2
#     Edge 27, Type (0, 1), BuildingBlock: ZUJKAS_clean_linker_0, # of connection points: 2
#     Edge 28, Type (0, 1), BuildingBlock: ZUJKAS_clean_linker_0, # of connection points: 2
#     Edge 29, Type (0, 1), BuildingBlock: ZUJKAS_clean_linker_0, # of connection points: 2
#     Edge 30, Type (0, 1), BuildingBlock: ZUJKAS_clean_linker_0, # of connection points: 2
#     Edge 31, Type (0, 1), BuildingBlock: ZUJKAS_clean_linker_0, # of connection points: 2
#     Edge 32, Type (0, 1), BuildingBlock: ZUJKAS_clean_linker_0, # of connection points: 2
#     Edge 33, Type (0, 1), BuildingBlock: ZUJKAS_clean_linker_0, # of connection points: 2
#     Edge 34, Type (0, 1), BuildingBlock: ZUJKAS_clean_linker_0, # of connection points: 2
#     Edge 35, Type (0, 1), BuildingBlock: ZUJKAS_clean_linker_0, # of connection points: 2
# Relax obj value: 0.283
# Max RMSD: 0.211
# Mean RMSD: 0.183
data_MOF--net-zzz--node1-WUSLED_clean_sbu_0--node2-JUFBIX_clean_sbu_0--edge1-ZUJKAS_clean_linker_0
_symmetry_space_group_name_H-M    P1
_symmetry_Int_Tables_number       1
_symmetry_cell_setting            triclinic
loop_
_symmetry_equiv_pos_as_xyz
'x, y, z'
_cell_length_a     74.588646
_cell_length_b     77.988832
_cell_length_c     29.503629
_cell_angle_alpha  83.939545
_cell_angle_beta   90.282089
_cell_angle_gamma 87.505567
loop_
_atom_site_label
_atom_site_type_symbol
_atom_site_fract_x
_atom_site_fract_y
_atom_site_fract_z
_atom_type_partial_charge
C0 C 0.81854 0.57948 0.31386 0.0
C1 C 0.83613 0.5762 0.29903 0.0
C2 C 0.84739 0.57561 0.37684 0.0
C3 C 0.85045 0.57418 0.33042 0.0
C4 C 0.82991 0.57942 0.3913 0.0
C5 C 0.8156 0.5813 0.36006 0.0
U6 U 0.79728 0.58558 0.19404 0.0
O7 O 0.77685 0.57007 0.16569 0.0
O8 O 0.7709 0.59776 0.17169 0.0
C9 C 0.76492 0.58307 0.16104 0.0
C10 C 0.80299 0.58008 0.2825 0.0
C11 C 0.75014 0.58297 0.12767 0.0
C12 C 0.71799 0.58135 0.11637 0.0
C13 C 0.73263 0.58337 0.14457 0.0
C14 C 0.73801 0.57918 0.05269 0.0
C15 C 0.72043 0.57883 0.07028 0.0
C16 C 0.7528 0.58113 0.0813 0.0
C17 C 0.83336 0.5965 0.09921 0.0
C18 C 0.8319 0.60054 0.01655 0.0
C19 C 0.86069 0.59868 0.05573 0.0
C20 C 0.85205 0.59685 0.0974 0.0
C21 C 0.85079 0.60024 0.01471 0.0
C22 C 0.82319 0.59867 0.05873 0.0
C23 C 0.82546 0.59287 0.14424 0.0
O24 O 0.79815 0.5953 0.26159 0.0
O25 O 0.80278 0.56769 0.25563 0.0
O26 O 0.82054 0.57702 0.15558 0.0
O27 O 0.81467 0.6048 0.15904 0.0
H28 H 0.83871 0.57481 0.26346 0.0
H29 H 0.86386 0.57122 0.31866 0.0
H30 H 0.82728 0.58047 0.427 0.0
H31 H 0.80215 0.5838 0.37216 0.0
H32 H 0.7047 0.58154 0.13099 0.0
H33 H 0.73029 0.58475 0.18026 0.0
H34 H 0.74038 0.57729 0.01734 0.0
H35 H 0.76624 0.58077 0.06759 0.0
H36 H 0.82395 0.60158 0.98548 0.0
H37 H 0.87523 0.59776 0.05586 0.0
H38 H 0.86008 0.59502 0.12842 0.0
H39 H 0.8087 0.59839 0.05974 0.0
C40 C 0.01364 0.79354 0.32078 0.0
C41 C 0.02122 0.80945 0.30737 0.0
C42 C 0.01003 0.82107 0.37606 0.0
C43 C 0.01954 0.82303 0.33482 0.0
C44 C 1.0024 0.80508 0.38907 0.0
C45 C 1.00422 0.79148 0.36177 0.0
U46 U 0.01652 0.78263 0.20122 0.0
O47 O 0.02842 0.76144 0.16593 0.0
O48 O 0.99913 0.76772 0.16046 0.0
C49 C 0.01295 0.75852 0.14721 0.0
C50 C 0.01388 0.7798 0.28991 0.0
C51 C 0.01042 0.74211 0.12828 0.0
C52 C 0.01147 0.71078 0.13315 0.0
C53 C 0.01328 0.72603 0.15389 0.0
C54 C 1.00403 0.72771 0.06137 0.0
C55 C 1.00686 0.71145 0.0865 0.0
C56 C 1.00572 0.74282 0.0821 0.0
C57 C 0.01912 0.82027 0.11203 0.0
C58 C 0.00847 0.81685 0.03567 0.0
C59 C 0.01424 0.84527 0.05751 0.0
C60 C 0.01981 0.83804 0.10058 0.0
C61 C 0.00781 0.83481 0.02551 0.0
C62 C 0.01402 0.80958 0.07907 0.0
C63 C 0.02034 0.81352 0.15994 0.0
O64 O 0.99985 0.78051 0.2626 0.0
O65 O 0.02916 0.77698 0.26911 0.0
O66 O 0.03411 0.80289 0.17199 0.0
O67 O 1.00503 0.80813 0.17625 0.0
H68 H 0.02825 0.81147 0.27532 0.0
H69 H 0.02577 0.83501 0.3237 0.0
H70 H 0.99463 0.80313 0.41993 0.0
H71 H 0.99792 0.77946 0.37221 0.0
H72 H 0.01362 0.6985 0.15363 0.0
H73 H 0.01698 0.72527 0.18961 0.0
H74 H 1.00091 0.72882 0.02527 0.0
H75 H 1.00368 0.75515 0.06168 0.0
H76 H 1.00392 0.80861 0.011 0.0
H77 H 0.01439 0.85916 0.04963 0.0
H78 H 0.02372 0.8464 0.12567 0.0
H79 H 0.01339 0.79577 0.08776 0.0
C80 C 0.72243 0.94756 0.28595 0.0
C81 C 0.7049 0.94376 0.27391 0.0
C82 C 0.69394 0.94982 0.34901 0.0
C83 C 0.69081 0.94483 0.30511 0.0
C84 C 0.71161 0.9536 0.36053 0.0
C85 C 0.72565 0.95243 0.32947 0.0
U86 U 0.73912 0.94145 0.16705 0.0
O87 O 0.75757 0.95635 0.12208 0.0
O88 O 0.7635 0.92838 0.14144 0.0
C89 C 0.76795 0.94263 0.11704 0.0
C90 C 0.73735 0.94706 0.25315 0.0
C91 C 0.78591 0.94464 0.09727 0.0
C92 C 0.81501 0.95755 0.09285 0.0
C93 C 0.79859 0.95495 0.115 0.0
C94 C 0.80617 0.9395 0.03537 0.0
C95 C 0.81892 0.94999 0.05245 0.0
C96 C 0.78989 0.93683 0.05764 0.0
C97 C 0.70372 0.93115 0.08099 0.0
C98 C 0.70574 0.93646 0.99863 0.0
C99 C 0.68005 0.92244 0.03338 0.0
C100 C 0.6875 0.92321 0.07639 0.0
C101 C 0.68873 0.92968 0.99409 0.0
C102 C 0.71322 0.93719 0.04194 0.0
C103 C 0.70942 0.93445 0.12668 0.0
O104 O 0.7417 0.93186 0.23987 0.0
O105 O 0.7367 0.95951 0.21941 0.0
O106 O 0.71419 0.95025 0.1306 0.0
O107 O 0.72005 0.92249 0.14873 0.0
H108 H 0.7021 0.94001 0.24033 0.0
H109 H 0.67752 0.94161 0.29486 0.0
H110 H 0.71464 0.95786 0.39335 0.0
H111 H 0.73903 0.95554 0.33933 0.0
H112 H 0.82462 0.96551 0.10729 0.0
H113 H 0.79573 0.96111 0.14555 0.0
H114 H 0.80852 0.93373 1.004 0.0
H115 H 0.78015 0.929 0.04313 0.0
H116 H 0.71272 0.9421 0.96897 0.0
H117 H 0.66677 0.91746 0.03141 0.0
H118 H 0.68003 0.9185 0.10624 0.0
H119 H 0.7259 0.94325 0.04502 0.0
C120 C 0.48182 0.71211 0.30455 0.0
C121 C 0.47614 0.69599 0.2942 0.0
C122 C 0.4853 0.68273 0.37005 0.0
C123 C 0.47776 0.68147 0.32671 0.0
C124 C 0.4908 0.69896 0.38024 0.0
C125 C 0.48905 0.71346 0.34789 0.0
U126 U 0.4787 0.72998 0.1805 0.0
O127 O 0.46465 0.75281 0.14304 0.0
O128 O 0.49427 0.74932 0.13924 0.0
C129 C 0.47968 0.75839 0.12492 0.0
C130 C 0.48119 0.72731 0.26976 0.0
C131 C 0.48075 0.77617 0.10266 0.0
C132 C 0.48407 0.80706 0.10397 0.0
C133 C 0.48233 0.7905 0.12721 0.0
C134 C 0.48238 0.79503 0.03181 0.0
C135 C 0.48435 0.8095 0.05586 0.0
C136 C 0.48065 0.77862 0.05493 0.0
C137 C 0.47519 0.69498 0.09871 0.0
C138 C 0.47823 0.69929 0.0163 0.0
C139 C 0.47293 0.67085 0.0544 0.0
C140 C 0.47263 0.67747 0.09629 0.0
C141 C 0.47587 0.68164 0.01429 0.0
C142 C 0.47778 0.706 0.05858 0.0
C143 C 0.47609 0.70101 0.14388 0.0
O144 O 0.49522 0.72849 0.243 0.0
O145 O 0.46589 0.73065 0.2475 0.0
O146 O 0.46207 0.71016 0.15606 0.0
O147 O 0.49148 0.70715 0.15461 0.0
H148 H 0.4707 0.69457 0.26074 0.0
H149 H 0.47355 0.66917 0.3175 0.0
H150 H 0.49645 0.70047 0.41339 0.0
H151 H 0.49357 0.72573 0.35657 0.0
H152 H 0.48563 0.81786 0.12368 0.0
H153 H 0.48244 0.78887 0.16412 0.0
H154 H 0.48212 0.79637 0.9949 0.0
H155 H 0.47936 0.76773 0.03534 0.0
H156 H 0.48064 0.70771 0.98555 0.0
H157 H 0.47137 0.65714 0.05335 0.0
H158 H 0.47078 0.66881 0.12698 0.0
H159 H 0.47982 0.71959 0.06013 0.0
C160 C 0.19625 0.43147 0.23071 0.0
C161 C 0.17857 0.42945 0.24595 0.0
C162 C 0.16717 0.43547 0.1676 0.0
C163 C 0.16416 0.43139 0.21467 0.0
C164 C 0.18501 0.43713 0.15287 0.0
C165 C 0.19932 0.4351 0.18401 0.0
U166 U 0.21895 0.42349 0.34984 0.0
O167 O 0.24677 0.41381 0.3669 0.0
O168 O 0.23788 0.4402 0.37949 0.0
C169 C 0.25119 0.42851 0.38103 0.0
C170 C 0.21165 0.43103 0.26247 0.0
C171 C 0.26532 0.42849 0.41656 0.0
C172 C 0.29742 0.4263 0.43337 0.0
C173 C 0.28292 0.4237 0.40504 0.0
C174 C 0.27694 0.43782 0.48699 0.0
C175 C 0.29476 0.43368 0.47449 0.0
C176 C 0.26238 0.43536 0.45819 0.0
C177 C 0.18587 0.40731 0.44774 0.0
C178 C 0.17976 0.4159 0.52296 0.0
C179 C 0.16002 0.39668 0.48965 0.0
C180 C 0.17107 0.39679 0.45164 0.0
C181 C 0.16366 0.40712 0.52425 0.0
C182 C 0.19079 0.41606 0.48474 0.0
C183 C 0.19269 0.41212 0.4018 0.0
O184 O 0.21077 0.44242 0.2922 0.0
O185 O 0.21793 0.41575 0.28005 0.0
O186 O 0.20443 0.40166 0.38431 0.0
O187 O 0.19547 0.42858 0.39108 0.0
H188 H 0.17591 0.42666 0.28199 0.0
H189 H 0.15069 0.42978 0.22742 0.0
H190 H 0.18798 0.44059 0.1173 0.0
H191 H 0.21284 0.43682 0.17161 0.0
H192 H 0.3108 0.4232 0.42178 0.0
H193 H 0.28559 0.41865 0.37277 0.0
H194 H 0.27423 0.44323 0.51869 0.0
H195 H 0.24895 0.43927 0.46785 0.0
H196 H 0.18286 0.42413 0.54906 0.0
H197 H 0.14776 0.38969 0.49003 0.0
H198 H 0.16703 0.38998 0.42333 0.0
H199 H 0.20216 0.42428 0.48233 0.0
C200 C 0.01356 0.22302 0.22593 0.0
C201 C 0.01881 0.2061 0.24382 0.0
C202 C 0.01414 0.19589 0.16987 0.0
C203 C 0.01924 0.19267 0.2159 0.0
C204 C 0.00872 0.21275 0.15206 0.0
C205 C 0.00853 0.22626 0.17989 0.0
U206 U 0.01274 0.23396 0.34511 0.0
O207 O 0.02599 0.25277 0.38293 0.0
O208 O 0.99631 0.25198 0.38247 0.0
C209 C 0.01066 0.25853 0.3987 0.0
C210 C 0.01261 0.23693 0.25611 0.0
C211 C 0.00947 0.27563 0.41503 0.0
C212 C 0.01399 0.30646 0.40712 0.0
C213 C 0.01416 0.29068 0.38817 0.0
C214 C 1.00421 0.29217 0.4792 0.0
C215 C 0.00908 0.30721 0.45283 0.0
C216 C 1.00444 0.27651 0.46045 0.0
C217 C 0.01427 0.19705 0.43712 0.0
C218 C 0.02596 0.19694 0.51429 0.0
C219 C 1.00119 0.17918 0.49895 0.0
C220 C 1.00162 0.18519 0.45299 0.0
C221 C 0.01361 0.1847 0.52965 0.0
C222 C 0.02611 0.20333 0.46824 0.0
C223 C 0.01446 0.20304 0.38833 0.0
O224 O 0.99781 0.23765 0.28002 0.0
O225 O 0.02722 0.23831 0.28046 0.0
O226 O 0.02879 0.21103 0.37349 0.0
O227 O 0.99933 0.21059 0.37225 0.0
H228 H 0.02247 0.20326 0.27949 0.0
H229 H 0.02329 0.17972 0.23038 0.0
H230 H 1.00475 0.21547 0.11658 0.0
H231 H 1.00432 0.23918 0.16561 0.0
H232 H 0.01777 0.31801 0.38636 0.0
H233 H 0.01814 0.29016 0.35307 0.0
H234 H 1.00055 0.2925 0.51461 0.0
H235 H 1.001 0.26496 0.4818 0.0
H236 H 0.03582 0.20105 0.53748 0.0
H237 H 0.99185 0.16938 0.51007 0.0
H238 H 0.99231 0.18031 0.42965 0.0
H239 H 0.03577 0.21279 0.4569 0.0
C240 C 0.29161 0.076 0.2587 0.0
C241 C 0.30795 0.08378 0.26501 0.0
C242 C 0.31987 0.07308 0.19555 0.0
C243 C 0.32192 0.08241 0.23362 0.0
C244 C 0.30339 0.06532 0.18988 0.0
C245 C 0.28946 0.06686 0.2209 0.0
U246 U 0.2743 0.08316 0.37724 0.0
O247 O 0.24794 0.09333 0.39881 0.0
O248 O 0.25763 0.06654 0.42372 0.0
C249 C 0.2449 0.07874 0.42365 0.0
C250 C 0.27701 0.07636 0.2922 0.0
C251 C 0.22827 0.07626 0.44978 0.0
C252 C 0.19569 0.07691 0.45268 0.0
C253 C 0.21152 0.08018 0.42861 0.0
C254 C 0.21323 0.06642 0.52002 0.0
C255 C 0.19632 0.06988 0.49869 0.0
C256 C 0.22903 0.06943 0.49567 0.0
C257 C 0.30952 0.09652 0.46161 0.0
C258 C 0.30878 0.0908 0.54402 0.0
C259 C 0.33549 0.10168 0.50668 0.0
C260 C 0.32686 0.1024 0.46459 0.0
C261 C 0.32689 0.09507 0.54677 0.0
C262 C 0.30017 0.0914 0.50156 0.0
C263 C 0.30302 0.09312 0.41672 0.0
O264 O 0.27865 0.06448 0.32715 0.0
O265 O 0.27171 0.0916 0.30373 0.0
O266 O 0.29085 0.10407 0.39652 0.0
O267 O 0.29988 0.07689 0.41297 0.0
H268 H 0.30995 0.09079 0.29433 0.0
H269 H 0.33425 0.08873 0.2392 0.0
H270 H 0.30129 0.05764 0.16202 0.0
H271 H 0.27704 0.06058 0.21575 0.0
H272 H 0.18298 0.0795 0.43486 0.0
H273 H 0.21067 0.08534 0.39306 0.0
H274 H 0.21428 0.06138 0.55561 0.0
H275 H 0.24186 0.06647 0.51274 0.0
H276 H 0.30169 0.08587 0.57425 0.0
H277 H 0.3495 0.10479 0.50692 0.0
H278 H 0.33428 0.10627 0.43398 0.0
H279 H 0.28671 0.0868 0.49971 0.0
C280 C 0.52517 0.305 0.2343 0.0
C281 C 0.52489 0.32162 0.2487 0.0
C282 C 0.52297 0.33458 0.16971 0.0
C283 C 0.52384 0.33627 0.21672 0.0
C284 C 0.5234 0.31786 0.15562 0.0
C285 C 0.52448 0.30324 0.1876 0.0
U286 U 0.52394 0.28574 0.35695 0.0
O287 O 0.51089 0.2629 0.38911 0.0
O288 O 0.54042 0.26489 0.39699 0.0
C289 C 0.5261 0.25595 0.4066 0.0
C290 C 0.52593 0.28952 0.26774 0.0
C291 C 0.52676 0.23856 0.43182 0.0
C292 C 0.51907 0.20843 0.43764 0.0
C293 C 0.51916 0.22477 0.41295 0.0
C294 C 0.53414 0.21945 0.50065 0.0
C295 C 0.52634 0.20556 0.48213 0.0
C296 C 0.53443 0.23575 0.47562 0.0
C297 C 0.51893 0.31993 0.44214 0.0
C298 C 0.52976 0.31793 0.5204 0.0
C299 C 0.51408 0.34408 0.48626 0.0
C300 C 0.51175 0.33657 0.44607 0.0
C301 C 0.52362 0.33503 0.52298 0.0
C302 C 0.52739 0.31035 0.47995 0.0
C303 C 0.51967 0.31409 0.39668 0.0
O304 O 0.54014 0.28778 0.29463 0.0
O305 O 0.51092 0.28638 0.28962 0.0
O306 O 0.5061 0.30544 0.38411 0.0
O307 O 0.53538 0.30774 0.38506 0.0
H308 H 0.52533 0.32326 0.2847 0.0
H309 H 0.52335 0.34891 0.22886 0.0
H310 H 0.52303 0.31604 0.11975 0.0
H311 H 0.52473 0.29053 0.17584 0.0
H312 H 0.51329 0.19802 0.42176 0.0
H313 H 0.51328 0.22665 0.37904 0.0
H314 H 0.53963 0.21789 0.53495 0.0
H315 H 0.54025 0.24628 0.49094 0.0
H316 H 0.53723 0.31086 0.54848 0.0
H317 H 0.50935 0.35735 0.48783 0.0
H318 H 0.50526 0.34413 0.41715 0.0
H319 H 0.53303 0.29746 0.47731 0.0
Co320 Co 0.00881 0.01962 0.80898 0.0
C321 C 0.97867 0.99597 0.8056 0.0
Co322 Co 1.0039 0.0001 0.73088 0.0
C323 C 0.01496 0.0471 0.86738 0.0
C324 C 1.00496 0.02403 0.90244 0.0
N325 N 0.01086 0.03072 0.86145 0.0
N326 N 0.01156 0.05081 0.91036 0.0
C327 C 1.00528 0.03635 0.93239 0.0
H328 H 0.01915 0.05642 0.84012 0.0
H329 H 0.99991 0.01125 0.9095 0.0
C330 C 0.0347 0.02268 0.73602 0.0
N331 N 0.01054 0.97992 0.70538 0.0
C332 C 1.00036 0.96911 0.68434 0.0
C333 C 0.02763 0.97458 0.69792 0.0
N334 N 0.01056 0.9573 0.6645 0.0
C335 C 0.02767 0.96073 0.6729 0.0
C336 C 0.98996 0.03386 0.74947 0.0
O337 O 0.02969 0.02815 0.77486 0.0
O338 O 0.02588 0.01176 0.71451 0.0
O339 O 0.99668 0.01922 0.74726 0.0
O340 O 0.99385 0.03982 0.78528 0.0
O341 O 0.98334 0.99112 0.76572 0.0
H342 H 0.03937 0.98073 0.70874 0.0
H343 H 0.98587 0.97043 0.68159 0.0
O344 O 0.98737 0.00694 0.82717 0.0
O345 O 0.02337 0.00204 0.83901 0.0
O346 O 0.01697 0.98946 0.78038 0.0
C347 C 0.02481 0.98906 0.81808 0.0
H348 H 1.0007 0.035 0.96731 0.0
H349 H 0.03936 0.95402 0.66042 0.0
Co350 Co 0.49885 0.01351 0.8046 0.0
C351 C 0.50405 0.97728 0.80474 0.0
Co352 Co 0.51535 0.00471 0.74716 0.0
C353 C 0.4702 0.02827 0.862 0.0
C354 C 0.49033 0.01187 0.89857 0.0
N355 N 0.48559 0.01876 0.8561 0.0
N356 N 0.46559 0.02772 0.90662 0.0
C357 C 0.47827 0.01736 0.92933 0.0
H358 H 0.46261 0.03548 0.83435 0.0
H359 H 0.50178 0.00307 0.90678 0.0
C360 C 0.51012 0.04093 0.74783 0.0
N361 N 0.52872 -0.0004 0.69534 0.0
C362 C 0.54379 0.98976 0.68806 0.0
C363 C 0.52445 0.00772 0.6538 0.0
N364 N 0.54871 0.99139 0.64343 0.0
C365 C 0.5365 0.00279 0.62236 0.0
C366 C 0.47873 0.00898 0.73033 0.0
O367 O 0.50056 0.03745 0.78305 0.0
O368 O 0.51776 0.02872 0.72875 0.0
O369 O 0.49372 0.00524 0.71279 0.0
O370 O 0.47795 0.01285 0.77098 0.0
O371 O 0.51274 0.98055 0.76778 0.0
H372 H 0.51343 0.01712 0.64681 0.0
H373 H 0.55101 0.98168 0.71482 0.0
O374 O 0.4973 0.98975 0.82446 0.0
O375 O 0.52041 0.01377 0.83817 0.0
O376 O 0.53616 0.0044 0.78206 0.0
C377 C 0.5353 0.00889 0.82215 0.0
H378 H 0.47858 0.01372 0.96578 0.0
H379 H 0.53653 0.00769 0.58664 0.0
Co380 Co 0.52231 0.51117 0.77873 0.0
C381 C 0.50724 0.48279 0.83104 0.0
Co382 Co 0.49399 0.50595 0.76151 0.0
C383 C 0.5544 0.52695 0.81268 0.0
C384 C 0.55831 0.50018 0.80339 0.0
N385 N 0.54614 0.51357 0.79683 0.0
N386 N 0.57108 0.52223 0.82903 0.0
C387 C 0.57353 0.50543 0.82329 0.0
H388 H 0.54798 0.53957 0.81462 0.0
H389 H 0.55594 0.48714 0.79632 0.0
C390 C 0.5089 0.53455 0.70935 0.0
N391 N 0.46994 0.50376 0.74336 0.0
C392 C 0.46097 0.49109 0.72585 0.0
C393 C 0.45801 0.51731 0.74066 0.0
N394 N 0.44388 0.49632 0.71269 0.0
C395 C 0.44225 0.51287 0.7221 0.0
C396 C 0.49791 0.52851 0.82767 0.0
O397 O 0.52324 0.53053 0.73256 0.0
O398 O 0.49534 0.52534 0.71669 0.0
O399 O 0.48635 0.52107 0.80565 0.0
O400 O 0.51446 0.52586 0.82035 0.0
O401 O 0.49312 0.4865 0.80676 0.0
H402 H 0.46081 0.53 0.74976 0.0
H403 H 0.46699 0.47846 0.72196 0.0
O404 O 0.52081 0.49205 0.82435 0.0
O405 O 0.53004 0.49597 0.73713 0.0
O406 O 0.50224 0.49096 0.71897 0.0
C407 C 0.51903 0.48798 0.71518 0.0
H408 H 0.58531 0.49741 0.8341 0.0
H409 H 0.43073 0.52162 0.71448 0.0
Co410 Co 0.01231 0.52115 0.77905 0.0
C411 C 0.03072 0.49297 0.82916 0.0
Co412 Co 1.00359 0.49538 0.76479 0.0
C413 C 0.01128 0.55469 0.81526 0.0
C414 C 0.03739 0.54688 0.79311 0.0
N415 N 0.02018 0.54221 0.79447 0.0
N416 N 0.02236 0.56674 0.82742 0.0
C417 C 0.03875 0.56188 0.81315 0.0
H418 H 0.99719 0.55441 0.82376 0.0
H419 H 0.04846 0.5394 0.78042 0.0
C420 C 0.98491 0.52334 0.71469 0.0
N421 N 0.99551 0.47445 0.74981 0.0
C422 C 1.00428 0.46125 0.73177 0.0
C423 C 0.97819 0.47026 0.75077 0.0
N424 N 0.99305 0.44898 0.72126 0.0
C425 C 0.97664 0.45474 0.73364 0.0
C426 C 0.98497 0.50869 0.83369 0.0
O427 O 0.99531 0.53273 0.73487 0.0
O428 O 0.98656 0.50704 0.72341 0.0
O429 O 0.98648 0.49553 0.81197 0.0
O430 O 0.99495 0.52126 0.82397 0.0
O431 O 0.02101 0.4838 0.80657 0.0
H432 H 0.9672 0.47832 0.76168 0.0
H433 H 0.01851 0.46107 0.7249 0.0
O434 O 0.0288 0.50935 0.82284 0.0
O435 O 0.03004 0.52057 0.7338 0.0
O436 O 0.02052 0.49558 0.71814 0.0
C437 C 0.03118 0.50778 0.71065 0.0
H438 H 0.051 0.56844 0.818 0.0
H439 H 0.96413 0.44856 0.72976 0.0
H440 H 0.19049 0.04222 0.56161 0.0
H441 H 0.16296 0.03545 0.60275 0.0
H442 H 0.13635 0.08125 0.53439 0.0
H443 H 0.1639 0.08827 0.49335 0.0
H444 H 0.14381 0.05309 0.66167 0.0
H445 H 0.10186 0.04444 0.51082 0.0
H446 H 0.12585 0.04627 0.50753 0.0
H447 H 0.11131 0.06529 0.50775 0.0
C448 C 0.17887 0.05098 0.55552 0.0
C449 C 0.17949 0.06581 0.52401 0.0
C450 C 0.16308 0.04701 0.57894 0.0
C451 C 0.14751 0.0577 0.57121 0.0
C452 C 0.14808 0.0726 0.54017 0.0
H453 H 0.05007 0.05405 0.73771 0.0
H454 H 0.07777 0.06341 0.69913 0.0
C455 C 0.16388 0.07659 0.51671 0.0
C456 C 0.1308 0.05332 0.59624 0.0
H457 H 0.08679 0.04451 0.58157 0.0
C458 C 0.13133 0.05129 0.64415 0.0
C459 C 0.11458 0.05067 0.57334 0.0
C460 C 0.11336 0.0516 0.52205 0.0
C461 C 0.11605 0.04685 0.6697 0.0
C462 C 0.0998 0.04464 0.64677 0.0
C463 C 0.09925 0.04654 0.59897 0.0
C464 C 0.0835 0.03912 0.67165 0.0
C465 C 0.11748 0.04389 0.72096 0.0
C466 C 0.0776 0.02248 0.66865 0.0
C467 C 0.06186 0.01723 0.69008 0.0
C468 C 0.05169 0.02847 0.71521 0.0
C469 C 0.05774 0.04508 0.71892 0.0
C470 C 0.07351 0.05042 0.69695 0.0
H471 H 0.13142 0.04497 0.73345 0.0
H472 H 0.10864 0.0535 0.73626 0.0
H473 H 0.11285 0.03087 0.73306 0.0
H474 H 0.08517 0.01357 0.64946 0.0
H475 H 0.05767 0.00429 0.68697 0.0
H476 H 0.55135 0.18884 0.54237 0.0
H477 H 0.54913 0.16096 0.58805 0.0
H478 H 0.49687 0.15531 0.52985 0.0
H479 H 0.49886 0.18316 0.4845 0.0
H480 H 0.52527 0.15054 0.65295 0.0
H481 H 0.52117 0.10933 0.5118 0.0
H482 H 0.52758 0.13147 0.5029 0.0
H483 H 0.50426 0.12652 0.50742 0.0
C484 C 0.53935 0.18171 0.5393 0.0
C485 C 0.52533 0.18832 0.50938 0.0
C486 C 0.53814 0.1657 0.56533 0.0
C487 C 0.52297 0.15583 0.56189 0.0
C488 C 0.50893 0.16241 0.53228 0.0
H489 H 0.48353 0.06562 0.72561 0.0
H490 H 0.48664 0.09398 0.68155 0.0
C491 C 0.51011 0.1784 0.50628 0.0
C492 C 0.52147 0.13902 0.59056 0.0
H493 H 0.51384 0.09627 0.58594 0.0
C494 C 0.52285 0.13868 0.63821 0.0
C495 C 0.51846 0.12345 0.57144 0.0
C496 C 0.51796 0.12263 0.52058 0.0
C497 C 0.52091 0.12334 0.6671 0.0
C498 C 0.51743 0.10796 0.64799 0.0
C499 C 0.51627 0.10818 0.60047 0.0
C500 C 0.51555 0.09137 0.67686 0.0
C501 C 0.52259 0.12354 0.71796 0.0
C502 C 0.53076 0.08063 0.68889 0.0
C503 C 0.52899 0.06444 0.71347 0.0
C504 C 0.512 0.05886 0.72721 0.0
C505 C 0.4968 0.06982 0.7163 0.0
C506 C 0.49855 0.08592 0.69091 0.0
H507 H 0.52441 0.13672 0.72777 0.0
H508 H 0.51043 0.11828 0.73488 0.0
H509 H 0.53427 0.11507 0.73085 0.0
H510 H 0.54397 0.08462 0.67837 0.0
H511 H 0.54088 0.05616 0.72124 0.0
H512 H 0.32739 0.41559 0.48798 0.0
H513 H 0.35373 0.42339 0.52947 0.0
H514 H 0.32477 0.46882 0.56628 0.0
H515 H 0.29849 0.46138 0.52415 0.0
H516 H 0.37412 0.45192 0.51765 0.0
H517 H 0.34376 0.4474 0.68891 0.0
H518 H 0.33317 0.43919 0.64102 0.0
H519 H 0.33112 0.46184 0.64809 0.0
C520 C 0.32655 0.4273 0.50471 0.0
C521 C 0.31059 0.43778 0.50258 0.0
C522 C 0.34168 0.4317 0.52867 0.0
C523 C 0.34125 0.44656 0.55173 0.0
C524 C 0.32538 0.45705 0.54978 0.0
H525 H 0.40815 0.50509 0.70486 0.0
H526 H 0.38541 0.49153 0.66464 0.0
C527 C 0.31026 0.45271 0.52568 0.0
C528 C 0.35743 0.45132 0.57704 0.0
H529 H 0.37142 0.46161 0.68087 0.0
C530 C 0.37361 0.45389 0.55347 0.0
C531 C 0.35689 0.45371 0.62391 0.0
C532 C 0.34036 0.45022 0.6521 0.0
C533 C 0.38888 0.4597 0.57477 0.0
C534 C 0.38811 0.46272 0.62132 0.0
C535 C 0.37211 0.45945 0.64519 0.0
C536 C 0.40291 0.47078 0.64512 0.0
C537 C 0.40539 0.46324 0.54658 0.0
C538 C 0.42065 0.4637 0.6483 0.0
C539 C 0.43414 0.47183 0.6708 0.0
C540 C 0.43013 0.48712 0.69111 0.0
C541 C 0.41219 0.49371 0.68889 0.0
C542 C 0.39892 0.48579 0.66608 0.0
H543 H 0.40241 0.46413 0.50945 0.0
H544 H 0.41133 0.47543 0.55425 0.0
H545 H 0.41555 0.45253 0.55474 0.0
H546 H 0.42409 0.45186 0.63362 0.0
H547 H 0.44767 0.46622 0.67177 0.0
H548 H 0.03828 0.32242 0.48278 0.0
H549 H 0.03844 0.34645 0.53051 0.0
H550 H 0.9807 0.3518 0.52018 0.0
H551 H 0.98056 0.32756 0.4734 0.0
H552 H 0.02438 0.38137 0.51611 0.0
H553 H 0.99067 0.34346 0.65831 0.0
H554 H 1.00065 0.33363 0.61117 0.0
H555 H 0.97898 0.34468 0.60465 0.0
C556 C 0.02571 0.32902 0.49005 0.0
C557 C 0.00942 0.32337 0.4744 0.0
C558 C 0.02579 0.34263 0.5174 0.0
C559 C 0.00956 0.35068 0.52948 0.0
C560 C 0.99334 0.34553 0.51196 0.0
H561 H 0.96928 0.42743 0.68861 0.0
H562 H 0.97576 0.40336 0.6457 0.0
C563 C 0.99326 0.33186 0.48495 0.0
C564 C 0.00948 0.36406 0.56163 0.0
H565 H 0.99333 0.37336 0.66464 0.0
C566 C 0.01774 0.37962 0.5488 0.0
C567 C 1.00093 0.36162 0.60436 0.0
C568 C 0.99244 0.34489 0.62075 0.0
C569 C 0.01685 0.39323 0.57653 0.0
C570 C 0.00785 0.39099 0.61879 0.0
C571 C 1.00021 0.37512 0.63228 0.0
C572 C 1.00457 0.40539 0.64741 0.0
C573 C 0.0248 0.41013 0.55921 0.0
C574 C 0.01865 0.41446 0.66393 0.0
C575 C 0.01499 0.42858 0.68873 0.0
C576 C 0.99714 0.43383 0.69789 0.0
C577 C 0.9832 0.42416 0.68258 0.0
C578 C 0.98688 0.4102 0.65777 0.0
H579 H 0.02733 0.41103 0.52197 0.0
H580 H 0.01581 0.42124 0.56624 0.0
H581 H 0.03782 0.41123 0.57677 0.0
H582 H 0.03247 0.41069 0.65753 0.0
H583 H 0.02618 0.43533 0.70044 0.0
H584 H 0.83602 0.98048 0.03818 0.0
H585 H 0.86325 0.98632 0.99462 0.0
H586 H 0.86755 0.93323 0.96584 0.0
H587 H 0.8403 0.92727 0.00929 0.0
H588 H 0.89691 0.97282 0.00799 0.0
H589 H 0.87196 0.95788 0.83968 0.0
H590 H 0.85727 0.95967 0.8875 0.0
H591 H 0.87089 0.94026 0.88373 0.0
C592 C 0.8428 0.97 0.0229 0.0
C593 C 0.83589 0.95341 0.02722 0.0
C594 C 0.85832 0.97339 0.99771 0.0
C595 C 0.86727 0.9603 0.97615 0.0
C596 C 0.86062 0.94366 0.98104 0.0
H597 H 0.96413 0.96408 0.8068 0.0
H598 H 0.93747 0.95423 0.84931 0.0
C599 C 0.84505 0.94026 0.00609 0.0
C600 C 0.88386 0.96407 0.94994 0.0
H601 H 0.90268 0.964 0.84454 0.0
C602 C 0.89816 0.97089 0.97224 0.0
C603 C 0.88558 0.96139 0.90338 0.0
C604 C 0.87055 0.95454 0.87701 0.0
C605 C 0.91406 0.97517 0.9494 0.0
C606 C 0.91561 0.97291 0.90251 0.0
C607 C 0.90149 0.96572 0.88042 0.0
C608 C 0.93136 0.97876 0.87539 0.0
C609 C 0.92907 0.9819 0.97613 0.0
C610 C 0.93639 0.9959 0.87464 0.0
C611 C 0.95165 0.00136 0.85136 0.0
C612 C 0.96195 0.98997 0.82705 0.0
C613 C 0.95643 0.97306 0.82546 0.0
C614 C 0.94126 0.96746 0.84976 0.0
H615 H 0.92839 0.97718 0.01293 0.0
H616 H 0.94245 0.97803 0.96326 0.0
H617 H 0.92777 0.99621 0.97321 0.0
H618 H 0.92859 0.00507 0.89246 0.0
H619 H 0.95539 0.01459 0.85236 0.0
H620 H 0.4706 0.8414 0.07486 0.0
H621 H 0.47437 0.86952 0.03097 0.0
H622 H 0.50775 0.8451 0.93538 0.0
H623 H 0.50429 0.81711 0.97906 0.0
H624 H 0.50573 0.88721 0.00756 0.0
H625 H 0.46988 0.87222 0.85231 0.0
H626 H 0.46812 0.85943 0.90664 0.0
H627 H 0.48747 0.85666 0.87161 0.0
C628 C 0.47886 0.84201 0.0447 0.0
C629 C 0.48696 0.82687 0.03037 0.0
C630 C 0.48093 0.8581 0.01949 0.0
C631 C 0.49105 0.85941 0.97928 0.0
C632 C 0.49948 0.8444 0.96554 0.0
H633 H 0.52055 0.94664 0.78345 0.0
H634 H 0.51813 0.91774 0.82519 0.0
C635 C 0.49746 0.82836 0.99066 0.0
C636 C 0.49308 0.87643 0.95198 0.0
H637 H 0.48553 0.8982 0.84617 0.0
C638 C 0.50126 0.88962 0.97234 0.0
C639 C 0.48727 0.87961 0.90592 0.0
C640 C 0.47754 0.86631 0.88284 0.0
C641 C 0.50399 0.90576 0.94778 0.0
C642 C 0.49824 0.90891 0.9017 0.0
C643 C 0.49012 0.89572 0.88128 0.0
C644 C 0.49953 0.92617 0.87525 0.0
C645 C 0.51321 0.91931 0.97118 0.0
C646 C 0.4896 0.94038 0.88883 0.0
C647 C 0.49089 0.95674 0.86514 0.0
C648 C 0.5021 0.95939 0.82695 0.0
C649 C 0.51175 0.94506 0.81255 0.0
C650 C 0.51042 0.92857 0.83646 0.0
H651 H 0.52052 0.91364 1.00251 0.0
H652 H 0.52282 0.92617 0.94789 0.0
H653 H 0.503 0.92896 0.98113 0.0
H654 H 0.48083 0.93882 0.91802 0.0
H655 H 0.48313 0.96738 0.87721 0.0
H656 H 0.71235 0.59064 0.98053 0.0
H657 H 0.68578 0.58467 0.93608 0.0
H658 H 0.66645 0.55245 0.05167 0.0
H659 H 0.69281 0.55814 0.09582 0.0
H660 H 0.67364 0.55297 0.91413 0.0
H661 H 0.62286 0.58473 0.01757 0.0
H662 H 0.64648 0.58868 0.0208 0.0
H663 H 0.63774 0.56963 0.05098 0.0
C664 C 0.70247 0.58224 0.99638 0.0
C665 C 0.70465 0.57508 0.04203 0.0
C666 C 0.68723 0.57892 0.97103 0.0
C667 C 0.67387 0.56844 0.99087 0.0
C668 C 0.67626 0.561 0.03599 0.0
H669 H 0.58182 0.51551 0.91617 0.0
H670 H 0.6063 0.52889 0.95368 0.0
C671 C 0.6914 0.56427 0.06123 0.0
C672 C 0.65774 0.56462 0.96429 0.0
H673 H 0.61185 0.56542 0.9671 0.0
C674 C 0.66012 0.55595 0.92524 0.0
C675 C 0.64008 0.56847 0.97885 0.0
C676 C 0.63658 0.57854 0.01909 0.0
C677 C 0.64538 0.55039 0.90158 0.0
C678 C 0.62776 0.5538 0.91696 0.0
C679 C 0.62535 0.56283 0.95532 0.0
C680 C 0.61179 0.54707 0.89538 0.0
C681 C 0.64876 0.54025 0.86143 0.0
C682 C 0.60633 0.55325 0.8507 0.0
C683 C 0.59211 0.5458 0.82962 0.0
C684 C 0.58331 0.53198 0.85278 0.0
C685 C 0.58839 0.52623 0.89792 0.0
C686 C 0.60237 0.53382 0.91919 0.0
H687 H 0.66317 0.53633 0.85837 0.0
H688 H 0.64079 0.52849 0.86443 0.0
H689 H 0.64447 0.54828 0.82962 0.0
H690 H 0.61333 0.56355 0.83183 0.0
H691 H 0.58853 0.55023 0.7946 0.0
H692 H 0.0281 0.68159 0.0993 0.0
H693 H 0.02736 0.65644 0.0562 0.0
H694 H 0.98244 0.68008 0.97701 0.0
H695 H 0.98264 0.70501 0.02069 0.0
H696 H 0.99558 0.63417 0.03809 0.0
H697 H 0.02495 0.67021 0.88497 0.0
H698 H 0.02752 0.67673 0.94152 0.0
H699 H 1.00641 0.68051 0.91202 0.0
C700 C 0.01781 0.68132 0.0734 0.0
C701 C 1.00553 0.69545 0.06328 0.0
C702 C 0.01749 0.66697 0.04863 0.0
C703 C 1.00498 0.66653 0.01315 0.0
C704 C 0.99233 0.68029 1.00394 0.0
H705 H 0.99119 0.58613 0.82828 0.0
H706 H 0.98494 0.61054 0.87339 0.0
C707 C 0.99255 0.69457 0.02882 0.0
C708 C 1.00562 0.65201 0.98453 0.0
H709 H 0.018 0.64132 0.87937 0.0
C710 C 1.00035 0.63573 1.0033 0.0
C711 C 0.01189 0.65413 0.9392 0.0
C712 C 0.01814 0.67128 0.91803 0.0
C713 C 1.00131 0.62147 0.97783 0.0
C714 C 0.00778 0.62356 0.93278 0.0
C715 C 0.01285 0.63986 0.91381 0.0
C716 C 0.011 0.60862 0.90642 0.0
C717 C 0.99577 0.60412 0.99925 0.0
C718 C 0.02763 0.59953 0.91036 0.0
C719 C 0.03123 0.58575 0.88475 0.0
C720 C 0.01824 0.58072 0.85461 0.0
C721 C 1.00141 0.58967 0.8513 0.0
C722 C 0.99786 0.60361 0.87686 0.0
H723 H 0.98994 0.60481 0.03362 0.0
H724 H 0.98575 0.59887 0.97706 0.0
H725 H 0.00763 0.59495 1.00229 0.0
H726 H 0.03789 0.60318 0.93319 0.0
H727 H 0.04417 0.57892 0.88885 0.0
H728 H 0.04062 0.16191 0.55417 0.0
H729 H 0.03462 0.13419 0.59539 0.0
H730 H 0.98555 0.15594 0.64673 0.0
H731 H 0.99087 0.18347 0.60202 0.0
H732 H 0.02534 0.1155 0.66823 0.0
H733 H 0.9657 0.1279 0.55386 0.0
H734 H 0.98349 0.14274 0.55408 0.0
H735 H 0.96647 0.14227 0.59732 0.0
C736 C 0.02909 0.16106 0.57642 0.0
C737 C 0.01585 0.17444 0.57388 0.0
C738 C 0.02557 0.14514 0.59965 0.0
C739 C 0.00906 0.14286 0.62149 0.0
C740 C 0.99791 0.15735 0.62789 0.0
H741 H 0.96425 0.0592 0.74977 0.0
H742 H 0.96462 0.08545 0.69742 0.0
C743 C 1.00113 0.17315 0.60326 0.0
C744 C 1.00217 0.12536 0.62845 0.0
H745 H 0.96793 0.10096 0.59844 0.0
C746 C 0.01285 0.1123 0.65283 0.0
C747 C 0.98612 0.12116 0.60675 0.0
C748 C 0.97487 0.13421 0.57614 0.0
C749 C 0.00758 0.09524 0.65777 0.0
C750 C 0.9911 0.0913 0.63807 0.0
C751 C 0.9806 0.10418 0.61289 0.0
C752 C 0.9833 0.07464 0.65111 0.0
C753 C 0.01939 0.08167 0.68537 0.0
C754 C 0.99178 0.0595 0.6385 0.0
C755 C 0.99137 0.04439 0.66815 0.0
C756 C 0.98269 0.04479 0.71015 0.0
C757 C 0.97128 0.05889 0.71778 0.0
C758 C 0.97145 0.07384 0.68783 0.0
H759 H 0.03098 0.08727 0.70141 0.0
H760 H 0.01152 0.07462 0.71264 0.0
H761 H 0.02471 0.07213 0.66287 0.0
H762 H 1.00081 0.05999 0.60978 0.0
H763 H 1.00007 0.03346 0.66154 0.0
H764 H 0.35548 0.11085 0.58161 0.0
H765 H 0.38057 0.09514 0.62309 0.0
H766 H 0.3487 0.0504 0.64792 0.0
H767 H 0.32401 0.06545 0.60443 0.0
H768 H 0.38928 0.07145 0.70751 0.0
H769 H 0.38637 0.04057 0.54605 0.0
H770 H 0.37383 0.06031 0.55411 0.0
H771 H 0.36614 0.03992 0.57889 0.0
C772 C 0.35359 0.09784 0.59711 0.0
C773 C 0.33802 0.08917 0.58782 0.0
C774 C 0.3679 0.08896 0.62112 0.0
C775 C 0.36653 0.07151 0.63698 0.0
C776 C 0.34998 0.06382 0.63499 0.0
H777 H 0.44613 0.99659 0.74839 0.0
H778 H 0.41787 0.01092 0.71943 0.0
C779 C 0.33579 0.07256 0.6103 0.0
C780 C 0.38296 0.06053 0.64567 0.0
H781 H 0.40862 0.02954 0.59965 0.0
C782 C 0.3935 0.06224 0.68418 0.0
C783 C 0.38858 0.04891 0.61418 0.0
C784 C 0.37826 0.04737 0.57073 0.0
C785 C 0.40938 0.05213 0.69274 0.0
C786 C 0.41456 0.04012 0.66204 0.0
C787 C 0.4043 0.03869 0.62311 0.0
C788 C 0.4307 0.0289 0.67043 0.0
C789 C 0.42067 0.05435 0.73417 0.0
C790 C 0.44686 0.03361 0.64966 0.0
C791 C 0.46291 0.02519 0.66537 0.0
C792 C 0.46271 0.01228 0.7022 0.0
C793 C 0.44639 0.00645 0.71967 0.0
C794 C 0.43036 0.01469 0.70354 0.0
H795 H 0.41542 0.06513 0.75283 0.0
H796 H 0.42101 0.04228 0.7578 0.0
H797 H 0.4347 0.05684 0.72384 0.0
H798 H 0.44719 0.04462 0.62403 0.0
H799 H 0.47548 0.03005 0.65227 0.0
H800 H 0.50955 0.33456 0.60837 0.0
H801 H 0.51359 0.35679 0.66053 0.0
H802 H 0.55337 0.37991 0.57057 0.0
H803 H 0.54965 0.35765 0.51953 0.0
H804 H 0.55977 0.38395 0.66269 0.0
H805 H 0.48967 0.40273 0.605 0.0
H806 H 0.49325 0.38167 0.63553 0.0
H807 H 0.50294 0.38634 0.58018 0.0
C808 C 0.51965 0.34401 0.60106 0.0
C809 C 0.52924 0.34465 0.56024 0.0
C810 C 0.5219 0.35668 0.63055 0.0
C811 C 0.53352 0.37011 0.61876 0.0
C812 C 0.54437 0.36964 0.58024 0.0
H813 H 0.51481 0.47776 0.63018 0.0
H814 H 0.52122 0.44851 0.60888 0.0
C815 C 0.54221 0.35699 0.55109 0.0
C816 C 0.53217 0.38628 0.64049 0.0
H817 H 0.50472 0.42213 0.64431 0.0
C818 C 0.54771 0.39228 0.65935 0.0
C819 C 0.51646 0.39715 0.63504 0.0
C820 C 0.49964 0.39179 0.61258 0.0
C821 C 0.54819 0.4092 0.67131 0.0
C822 C 0.53252 0.42014 0.66513 0.0
C823 C 0.51678 0.4138 0.6483 0.0
C824 C 0.53188 0.4383 0.67534 0.0
C825 C 0.56567 0.41533 0.68831 0.0
C826 C 0.53631 0.44234 0.71905 0.0
C827 C 0.53335 0.45909 0.73034 0.0
C828 C 0.52532 0.47186 0.69867 0.0
C829 C 0.52119 0.46805 0.65471 0.0
C830 C 0.52476 0.45139 0.64283 0.0
H831 H 0.57735 0.40747 0.67744 0.0
H832 H 0.56752 0.42907 0.67592 0.0
H833 H 0.56568 0.41399 0.72613 0.0
H834 H 0.54116 0.43242 0.74518 0.0
H835 H 0.53617 0.46177 0.76493 0.0
H836 H 0.12937 0.41669 0.49996 0.0
H837 H 0.10773 0.43225 0.54334 0.0
H838 H 0.14322 0.42535 0.66034 0.0
H839 H 0.16536 0.40989 0.61635 0.0
H840 H 0.08975 0.42693 0.62655 0.0
H841 H 0.14021 0.47766 0.62817 0.0
H842 H 0.14328 0.45984 0.59424 0.0
H843 H 0.14632 0.45645 0.65501 0.0
C844 C 0.13237 0.41789 0.53542 0.0
C845 C 0.14913 0.41218 0.55474 0.0
C846 C 0.11999 0.42688 0.56012 0.0
C847 C 0.1241 0.43027 0.60458 0.0
C848 C 0.14005 0.42318 0.6256 0.0
H849 H 0.06484 0.50755 0.74259 0.0
H850 H 0.0894 0.48925 0.71731 0.0
C851 C 0.1526 0.4143 0.60064 0.0
C852 C 0.11255 0.44295 0.62579 0.0
H853 H 0.11088 0.485 0.64845 0.0
C854 C 0.09438 0.43955 0.63202 0.0
C855 C 0.11874 0.45935 0.63314 0.0
C856 C 0.13817 0.46368 0.62714 0.0
C857 C 0.08205 0.45233 0.64387 0.0
C858 C 0.08803 0.46912 0.64782 0.0
C859 C 0.10634 0.47224 0.64415 0.0
C860 C 0.07542 0.48344 0.65662 0.0
C861 C 0.06279 0.44765 0.65207 0.0
C862 C 0.0602 0.48743 0.62867 0.0
C863 C 0.04603 0.49755 0.64358 0.0
C864 C 0.0474 0.50434 0.68545 0.0
C865 C 0.06369 0.50257 0.7098 0.0
C866 C 0.07762 0.49197 0.69568 0.0
H867 H 0.06173 0.43357 0.66161 0.0
H868 H 0.05669 0.45463 0.6795 0.0
H869 H 0.05484 0.45113 0.62029 0.0
H870 H 0.05864 0.48152 0.59737 0.0
H871 H 0.0335 0.4988 0.62454 0.0
H872 H 0.01956 0.83026 0.94011 0.0
H873 H 0.01881 0.85384 0.87844 0.0
H874 H 0.98019 0.88236 0.95276 0.0
H875 H 0.98043 0.85869 0.01337 0.0
H876 H 0.98391 0.89559 0.85721 0.0
H877 H 0.04748 0.88503 0.959 0.0
H878 H 0.04188 0.86802 0.92565 0.0
H879 H 0.02798 0.87282 0.97274 0.0
C880 C 0.00998 0.84103 0.94164 0.0
C881 C 1.00066 0.84321 0.98191 0.0
C882 C 0.00952 0.85448 0.90638 0.0
C883 C 1.00014 0.87005 0.9125 0.0
C884 C 0.98779 0.87053 0.94798 0.0
H885 H 0.01747 0.97659 0.90455 0.0
H886 H 0.01375 0.94589 0.92794 0.0
C887 C 0.98805 0.85706 0.9828 0.0
C888 C 0.0078 0.88648 0.89515 0.0
H889 H 0.04329 0.91119 0.91388 0.0
C890 C 0.99705 0.89891 0.86858 0.0
C891 C 0.02467 0.89092 0.91204 0.0
C892 C 0.03616 0.8786 0.94423 0.0
C893 C 1.00279 0.91574 0.85843 0.0
C894 C 0.01964 0.91996 0.87517 0.0
C895 C 0.03048 0.90759 0.901 0.0
C896 C 0.02591 0.93747 0.86718 0.0
C897 C 0.99069 0.92913 0.83131 0.0
C898 C 0.03533 0.94237 0.82744 0.0
C899 C 0.03775 0.95976 0.81455 0.0
C900 C 0.03051 0.97224 0.841 0.0
C901 C 0.02326 0.96713 0.88382 0.0
C902 C 0.02086 0.94969 0.8968 0.0
H903 H 0.97812 0.92366 0.81999 0.0
H904 H 0.98712 0.93973 0.85241 0.0
H905 H 0.99786 0.93486 0.80088 0.0
H906 H 0.03951 0.93292 0.80477 0.0
H907 H 0.04367 0.96352 0.78183 0.0
H908 H 0.6661 0.90851 0.95497 0.0
H909 H 0.63952 0.91917 0.91017 0.0
H910 H 0.66051 0.97007 0.89276 0.0
H911 H 0.68669 0.95974 0.93805 0.0
H912 H 0.62179 0.94368 0.95883 0.0
H913 H 0.62922 0.96924 0.77833 0.0
H914 H 0.64515 0.9536 0.80721 0.0
H915 H 0.64657 0.97622 0.81354 0.0
C916 C 0.66544 0.92178 0.93969 0.0
C917 C 0.67815 0.93342 0.95133 0.0
C918 C 0.65029 0.92781 0.91393 0.0
C919 C 0.648 0.94543 0.89887 0.0
C920 C 0.66211 0.95639 0.90383 0.0
H921 H 0.56693 0.02395 0.8334 0.0
H922 H 0.5944 0.00813 0.86299 0.0
C923 C 0.67716 0.95042 0.92988 0.0
C924 C 0.62981 0.95325 0.89099 0.0
H925 H 0.60551 0.98261 0.8197 0.0
C926 C 0.61803 0.95198 0.9281 0.0
C927 C 0.62517 0.9642 0.85127 0.0
C928 C 0.63717 0.96577 0.8102 0.0
C929 C 0.60213 0.96218 0.92757 0.0
C930 C 0.59775 0.97358 0.88826 0.0
C931 C 0.60913 0.97419 0.85032 0.0
C932 C 0.58108 0.98448 0.88424 0.0
C933 C 0.59071 0.96113 0.96984 0.0
C934 C 0.56447 0.9768 0.88971 0.0
C935 C 0.54885 0.9861 0.87504 0.0
C936 C 0.54981 0.00286 0.85318 0.0
C937 C 0.56608 0.01108 0.8509 0.0
C938 C 0.58168 0.00199 0.86724 0.0
H939 H 0.59888 0.95696 1.00096 0.0
H940 H 0.58373 0.97371 0.97424 0.0
H941 H 0.58047 0.95137 0.96714 0.0
H942 H 0.56367 0.96323 0.90144 0.0
H943 H 0.53632 0.97952 0.87596 0.0
H944 H 0.50677 0.6728 0.97391 0.0
H945 H 0.51026 0.64805 0.9296 0.0
H946 H 0.45271 0.64614 0.91901 0.0
H947 H 0.44925 0.67075 0.96357 0.0
H948 H 0.493 0.61927 0.98055 0.0
H949 H 0.47222 0.62839 0.79815 0.0
H950 H 0.48037 0.64572 0.82769 0.0
H951 H 0.45784 0.63892 0.83653 0.0
C952 C 0.49494 0.66777 0.95954 0.0
C953 C 0.47775 0.67354 0.97185 0.0
C954 C 0.49693 0.65359 0.93453 0.0
C955 C 0.48173 0.64529 0.92138 0.0
C956 C 0.46457 0.65254 0.92839 0.0
H957 H 0.46474 0.54459 0.83511 0.0
H958 H 0.45886 0.57194 0.86744 0.0
C959 C 0.46259 0.66661 0.9537 0.0
C960 C 0.48346 0.62712 0.9121 0.0
H961 H 0.47452 0.59963 0.83361 0.0
C962 C 0.48911 0.61492 0.9483 0.0
C963 C 0.47794 0.62161 0.8705 0.0
C964 C 0.47186 0.63432 0.83078 0.0
C965 C 0.4892 0.59722 0.9442 0.0
C966 C 0.48396 0.59164 0.90223 0.0
C967 C 0.4783 0.6039 0.866 0.0
C968 C 0.48595 0.57338 0.89325 0.0
C969 C 0.49456 0.58479 0.98527 0.0
C970 C 0.50278 0.56473 0.89934 0.0
C971 C 0.506 0.54903 0.882 0.0
C972 C 0.49263 0.54197 0.85688 0.0
C973 C 0.47531 0.54982 0.8541 0.0
C974 C 0.47199 0.56547 0.87228 0.0
H975 H 0.49106 0.59032 0.01744 0.0
H976 H 0.488 0.57229 0.98505 0.0
H977 H 0.50933 0.58235 0.98547 0.0
H978 H 0.51387 0.57066 0.91446 0.0
H979 H 0.51944 0.54315 0.8852 0.0
H980 H 0.8422 0.58017 0.94822 0.0
H981 H 0.86426 0.5666 0.90143 0.0
H982 H 0.90406 0.60098 0.93944 0.0
H983 H 0.88187 0.61515 0.98519 0.0
H984 H 0.90068 0.57667 0.83838 0.0
H985 H 0.90604 0.54875 0.02049 0.0
H986 H 0.88587 0.56029 0.99824 0.0
H987 H 0.90563 0.57183 0.00725 0.0
C988 C 0.85527 0.58566 0.94435 0.0
C989 C 0.86054 0.59826 0.97181 0.0
C990 C 0.86789 0.57783 0.91754 0.0
C991 C 0.88577 0.58255 0.9182 0.0
C992 C 0.89027 0.59715 0.93891 0.0
H993 H 0.98437 0.52513 0.90952 0.0
H994 H 0.95808 0.54117 0.93438 0.0
C995 C 0.87761 0.60512 0.96531 0.0
C996 C 0.89987 0.56947 0.91067 0.0
H997 H 0.92444 0.53611 0.96817 0.0
C998 C 0.90592 0.56777 0.86653 0.0
C999 C 0.90662 0.55803 0.94787 0.0
C1000 C 0.90074 0.55967 0.99621 0.0
C1001 C 0.91884 0.55484 0.85863 0.0
C1002 C 0.92519 0.54308 0.89577 0.0
C1003 C 0.91915 0.5449 0.93984 0.0
C1004 C 0.93956 0.53001 0.89022 0.0
C1005 C 0.92604 0.55424 0.81103 0.0
C1006 C 0.93741 0.5173 0.86058 0.0
C1007 C 0.95242 0.50798 0.84675 0.0
C1008 C 0.96953 0.51149 0.86244 0.0
C1009 C 0.97124 0.52237 0.89695 0.0
C1010 C 0.95628 0.53161 0.91082 0.0
H1011 H 0.92273 0.5664 0.78887 0.0
H1012 H 0.94084 0.55193 0.81177 0.0
H1013 H 0.92002 0.54349 0.79534 0.0
H1014 H 0.92444 0.51564 0.84535 0.0
H1015 H 0.95086 0.49966 0.81993 0.0
H1016 H 0.04314 0.17717 0.14346 0.0
H1017 H 0.04346 0.15368 0.09412 0.0
H1018 H 0.98566 0.15824 0.0844 0.0
H1019 H 0.98548 0.18228 0.13175 0.0
H1020 H 0.02997 0.12282 0.10416 0.0
H1021 H 0.99734 0.15951 0.95267 0.0
H1022 H 1.00527 0.16992 1.00024 0.0
H1023 H 0.98391 0.15995 1.00276 0.0
C1024 C 0.03056 0.1732 0.1303 0.0
C1025 C 0.01431 0.1816 0.14064 0.0
C1026 C 0.03073 0.15978 0.10225 0.0
C1027 C 0.01462 0.15442 0.0845 0.0
C1028 C 0.99832 0.16252 0.09616 0.0
H1029 H 0.98436 0.06736 0.94912 0.0
H1030 H 0.9859 0.09347 0.98854 0.0
C1031 C 0.99819 0.17615 0.12346 0.0
C1032 C 0.01485 0.14008 0.0548 0.0
H1033 H 0.99989 0.12886 0.9526 0.0
C1034 C 0.02357 0.12424 0.07081 0.0
C1035 C 1.00653 0.14187 0.01112 0.0
C1036 C 0.9979 0.15879 0.99047 0.0
C1037 C 0.02377 0.11007 0.04499 0.0
C1038 C 0.0151 0.11179 1.00194 0.0
C1039 C 1.00654 0.12762 0.98564 0.0
C1040 C 0.01402 0.09696 0.97456 0.0
C1041 C 0.03282 0.09319 0.06432 0.0
C1042 C 0.02919 0.09059 0.95253 0.0
C1043 C 0.02821 0.07585 0.92929 0.0
C1044 C 0.01213 0.06718 0.92849 0.0
C1045 C 0.99688 0.07386 0.94949 0.0
C1046 C 0.99777 0.08872 0.97194 0.0
H1047 H 0.03687 0.09329 0.10058 0.0
H1048 H 0.02374 0.08241 0.06167 0.0
H1049 H 0.045 0.0906 0.04424 0.0
H1050 H 0.04184 0.09683 0.95408 0.0
H1051 H 0.04014 0.07078 0.91364 0.0
H1052 H 0.35652 0.07064 0.21183 0.0
H1053 H 0.38048 0.06579 0.15796 0.0
H1054 H 0.34117 0.06418 0.05102 0.0
H1055 H 0.31736 0.07058 0.10326 0.0
H1056 H 0.38784 0.03926 0.11473 0.0
H1057 H 0.37481 0.09411 0.98219 0.0
H1058 H 0.36379 0.09284 0.03661 0.0
H1059 H 0.35559 0.08127 0.99153 0.0
C1060 C 0.35293 0.06978 0.17658 0.0
C1061 C 0.33481 0.07099 0.16233 0.0
C1062 C 0.36671 0.0668 0.14577 0.0
C1063 C 0.36279 0.06485 0.09992 0.0
C1064 C 0.34475 0.0661 0.08564 0.0
H1065 H 0.4306 0.03099 0.87802 0.0
H1066 H 0.40477 0.04043 0.92286 0.0
C1067 C 0.33102 0.06941 0.11612 0.0
C1068 C 0.37744 0.06046 0.06795 0.0
H1069 H 0.39507 0.0716 0.96235 0.0
C1070 C 0.38944 0.04646 0.08159 0.0
C1071 C 0.37957 0.06967 0.02427 0.0
C1072 C 0.36786 0.0854 0.00797 0.0
C1073 C 0.40332 0.04137 0.0531 0.0
C1074 C 0.4055 0.05062 0.0096 0.0
C1075 C 0.39338 0.06446 0.99553 0.0
C1076 C 0.42091 0.04659 0.97969 0.0
C1077 C 0.41543 0.02597 0.06982 0.0
C1078 C 0.43853 0.04766 0.99561 0.0
C1079 C 0.45311 0.0423 0.97027 0.0
C1080 C 0.45055 0.03592 0.92797 0.0
C1081 C 0.43298 0.0359 0.91039 0.0
C1082 C 0.41825 0.04119 0.93613 0.0
H1083 H 0.40895 0.01742 0.09686 0.0
H1084 H 0.41927 0.01827 0.04153 0.0
H1085 H 0.42785 0.03053 0.08459 0.0
H1086 H 0.44101 0.05223 0.02838 0.0
H1087 H 0.4665 0.0427 0.98437 0.0
H1088 H 0.54026 0.36509 0.16892 0.0
H1089 H 0.53743 0.39042 0.11206 0.0
H1090 H 0.49955 0.36443 0.03566 0.0
H1091 H 0.50196 0.33929 0.09261 0.0
H1092 H 0.54397 0.39162 0.01453 0.0
H1093 H 0.47367 0.41143 0.05256 0.0
H1094 H 0.48749 0.39726 0.0921 0.0
H1095 H 0.47741 0.38911 0.04376 0.0
C1096 C 0.53118 0.36483 0.14028 0.0
C1097 C 0.52133 0.35011 0.13543 0.0
C1098 C 0.52967 0.37928 0.10767 0.0
C1099 C 0.51814 0.37938 0.06986 0.0
C1100 C 0.50835 0.36473 0.06485 0.0
H1101 H 0.48591 0.45476 0.84077 0.0
H1102 H 0.48923 0.42933 0.89725 0.0
C1103 C 0.5099 0.35028 0.09726 0.0
C1104 C 0.5165 0.39467 0.03513 0.0
H1105 H 0.48666 0.42597 0.98728 0.0
C1106 C 0.53148 0.3992 0.00865 0.0
C1107 C 0.50015 0.40445 0.0273 0.0
C1108 C 0.48377 0.40046 0.0556 0.0
C1109 C 0.53047 0.41304 0.97388 0.0
C1110 C 0.51412 0.42296 0.96621 0.0
C1111 C 0.49916 0.41839 0.9929 0.0
C1112 C 0.51227 0.43829 0.93137 0.0
C1113 C 0.54681 0.41652 0.94494 0.0
C1114 C 0.52389 0.45195 0.93202 0.0
C1115 C 0.52213 0.46635 0.89955 0.0
C1116 C 0.50843 0.46767 0.86621 0.0
C1117 C 0.49652 0.45419 0.86615 0.0
C1118 C 0.49845 0.43963 0.89835 0.0
H1119 H 0.55582 0.40479 0.945 0.0
H1120 H 0.54301 0.42112 0.90913 0.0
H1121 H 0.55455 0.4266 0.95907 0.0
H1122 H 0.53428 0.45157 0.9579 0.0
H1123 H 0.53147 0.47655 0.90084 0.0
H1124 H 0.16587 0.4277 0.07868 0.0
H1125 H 0.14256 0.43623 0.02141 0.0
H1126 H 0.11 0.45825 0.12274 0.0
H1127 H 0.13369 0.45074 0.17972 0.0
H1128 H 0.10751 0.42863 0.01334 0.0
H1129 H 0.112 0.49873 0.02617 0.0
H1130 H 0.12836 0.48298 0.05237 0.0
H1131 H 0.1071 0.4865 0.07924 0.0
C1132 C 0.15386 0.43454 0.08888 0.0
C1133 C 0.15195 0.4388 0.13395 0.0
C1134 C 0.14043 0.43927 0.05602 0.0
C1135 C 0.12467 0.44829 0.06732 0.0
C1136 C 0.12225 0.45174 0.11276 0.0
H1137 H 0.0335 0.49901 0.91747 0.0
H1138 H 0.05576 0.48667 0.9742 0.0
C1139 C 0.13575 0.44717 0.1456 0.0
C1140 C 0.11096 0.4543 0.03142 0.0
H1141 H 0.08854 0.49041 0.98045 0.0
C1142 C 0.10332 0.44214 0.0061 0.0
C1143 C 0.10559 0.47194 0.02162 0.0
C1144 C 0.1138 0.48582 0.04594 0.0
C1145 C 0.09 0.44701 0.97255 0.0
C1146 C 0.08447 0.4647 0.96297 0.0
C1147 C 0.09248 0.47685 0.98779 0.0
C1148 C 0.07019 0.47106 0.9285 0.0
C1149 C 0.08168 0.43298 0.94907 0.0
C1150 C 0.07055 0.46642 0.88358 0.0
C1151 C 0.05731 0.47299 0.85159 0.0
C1152 C 0.0439 0.48489 0.86334 0.0
C1153 C 0.04368 0.48979 0.90771 0.0
C1154 C 0.05648 0.48277 0.94006 0.0
H1155 H 0.08301 0.42031 0.97014 0.0
H1156 H 0.06724 0.43601 0.94145 0.0
H1157 H 0.08878 0.4316 0.9166 0.0
H1158 H 0.08126 0.45802 0.87278 0.0
H1159 H 0.05794 0.4693 0.81722 0.0
H1160 H 0.00972 0.81912 0.46955 0.0
H1161 H 1.00582 0.84252 0.51755 0.0
H1162 H 1.00339 0.87955 0.39806 0.0
H1163 H 1.006 0.85609 0.34951 0.0
H1164 H 0.02634 0.86756 0.52961 0.0
H1165 H 0.96119 0.89704 0.46413 0.0
H1166 H 0.96989 0.87658 0.44836 0.0
H1167 H 0.97757 0.89649 0.41998 0.0
C1168 C 0.00792 0.83218 0.45323 0.0
C1169 C 0.00801 0.83557 0.4054 0.0
C1170 C 1.00585 0.84562 0.48088 0.0
C1171 C 1.00394 0.86286 0.46162 0.0
C1172 C 1.00432 0.86637 0.41391 0.0
H1173 H 0.01381 0.95989 0.57377 0.0
H1174 H 0.01012 0.93672 0.52447 0.0
C1175 C 1.00616 0.85289 0.38612 0.0
C1176 C 1.00254 0.87708 0.49174 0.0
H1177 H 0.97794 0.91351 0.51234 0.0
C1178 C 0.01562 0.87747 0.52604 0.0
C1179 C 0.98854 0.89008 0.48732 0.0
C1180 C 0.97341 0.88995 0.45326 0.0
C1181 C 0.01531 0.89057 0.55527 0.0
C1182 C 1.00157 0.90371 0.55018 0.0
C1183 C 0.98844 0.90338 0.51614 0.0
C1184 C 1.00127 0.91828 0.57877 0.0
C1185 C 0.02991 0.89053 0.59087 0.0
C1186 C 0.99696 0.91573 0.62527 0.0
C1187 C 0.99883 0.92904 0.65317 0.0
C1188 C 1.00508 0.94499 0.63492 0.0
C1189 C 0.00871 0.94773 0.58814 0.0
C1190 C 1.00667 0.93452 0.56018 0.0
H1191 H 0.04086 0.88072 0.58659 0.0
H1192 H 0.03574 0.90344 0.58941 0.0
H1193 H 0.02409 0.88766 0.62524 0.0
H1194 H 0.99279 0.90327 0.64023 0.0
H1195 H 0.99631 0.92665 0.68936 0.0
H1196 H 0.69529 0.943 0.44266 0.0
H1197 H 0.67158 0.94751 0.49745 0.0
H1198 H 0.63456 0.96399 0.38737 0.0
H1199 H 0.65837 0.96024 0.33205 0.0
H1200 H 0.65066 0.98019 0.50476 0.0
H1201 H 0.60854 0.92579 0.4715 0.0
H1202 H 0.63194 0.92651 0.45614 0.0
H1203 H 0.61533 0.93936 0.42198 0.0
C1204 C 0.6822 0.94777 0.4298 0.0
C1205 C 0.67897 0.9514 0.38251 0.0
C1206 C 0.66858 0.95021 0.46138 0.0
C1207 C 0.65125 0.95602 0.44666 0.0
C1208 C 0.64778 0.95931 0.39961 0.0
H1209 H 0.54964 0.98389 0.55614 0.0
H1210 H 0.57541 0.97449 0.51377 0.0
C1211 C 0.66145 0.95706 0.36792 0.0
C1212 C 0.63698 0.95919 0.48054 0.0
H1213 H 0.59614 0.94592 0.51881 0.0
C1214 C 0.63879 0.97262 0.50821 0.0
C1215 C 0.62154 0.94927 0.48511 0.0
C1216 C 0.61918 0.93432 0.45744 0.0
C1217 C 0.62525 0.97689 0.53884 0.0
C1218 C 0.60959 0.96716 0.54293 0.0
C1219 C 0.60808 0.95339 0.51603 0.0
C1220 C 0.59384 0.97206 0.57112 0.0
C1221 C 0.62749 0.99231 0.56486 0.0
C1222 C 0.59526 0.9735 0.61829 0.0
C1223 C 0.58034 0.97918 0.64292 0.0
C1224 C 0.56372 0.98347 0.62082 0.0
C1225 C 0.56226 0.98115 0.57423 0.0
C1226 C 0.57704 0.9756 0.54985 0.0
H1227 H 0.63825 0.0006 0.5504 0.0
H1228 H 0.61479 0.00028 0.56479 0.0
H1229 H 0.63117 0.9878 0.60075 0.0
H1230 H 0.60792 0.97042 0.636 0.0
H1231 H 0.58197 0.98074 0.6787 0.0
H1232 H 0.51466 0.67314 0.42445 0.0
H1233 H 0.51888 0.64801 0.48099 0.0
H1234 H 0.46581 0.63221 0.45089 0.0
H1235 H 0.46169 0.65715 0.3934 0.0
H1236 H 0.50221 0.63877 0.55753 0.0
H1237 H 0.49338 0.58775 0.44328 0.0
H1238 H 0.49544 0.61007 0.42166 0.0
H1239 H 0.47425 0.6025 0.44276 0.0
C1240 C 0.50387 0.66432 0.42982 0.0
C1241 C 0.48784 0.6672 0.40423 0.0
C1242 C 0.50632 0.64989 0.46216 0.0
C1243 C 0.49282 0.63794 0.46996 0.0
C1244 C 0.47669 0.64088 0.44479 0.0
H1245 H 0.47935 0.54651 0.65882 0.0
H1246 H 0.47606 0.57184 0.60312 0.0
C1247 C 0.4743 0.65523 0.41199 0.0
C1248 C 0.49553 0.62275 0.50527 0.0
H1249 H 0.49428 0.57873 0.5228 0.0
C1250 C 0.5006 0.62564 0.54976 0.0
C1251 C 0.49345 0.60553 0.49545 0.0
C1252 C 0.48901 0.60124 0.4481 0.0
C1253 C 0.50328 0.61194 0.58463 0.0
C1254 C 0.50105 0.59478 0.57482 0.0
C1255 C 0.49601 0.59187 0.53041 0.0
C1256 C 0.50331 0.57964 0.61023 0.0
C1257 C 0.50802 0.61602 0.63197 0.0
C1258 C 0.5198 0.57542 0.633 0.0
C1259 C 0.52178 0.5608 0.66519 0.0
C1260 C 0.50733 0.55004 0.67501 0.0
C1261 C 0.49086 0.55436 0.65208 0.0
C1262 C 0.48891 0.56891 0.62012 0.0
H1263 H 0.50504 0.62983 0.6364 0.0
H1264 H 0.50059 0.60792 0.65811 0.0
H1265 H 0.52259 0.61324 0.6382 0.0
H1266 H 0.53123 0.5833 0.62544 0.0
H1267 H 0.53462 0.5579 0.68219 0.0
H1268 H 0.86061 0.5443 0.4134 0.0
H1269 H 0.88409 0.53794 0.47202 0.0
H1270 H 0.891 0.59251 0.47433 0.0
H1271 H 0.86699 0.5988 0.41673 0.0
H1272 H 0.91876 0.54499 0.46946 0.0
H1273 H 0.88696 0.57792 0.60843 0.0
H1274 H 0.87479 0.57404 0.55777 0.0
H1275 H 0.88967 0.59162 0.55635 0.0
C1276 C 0.86716 0.55488 0.42662 0.0
C1277 C 0.8621 0.572 0.41079 0.0
C1278 C 0.88054 0.55128 0.46011 0.0
C1279 C 0.88917 0.56473 0.47836 0.0
C1280 C 0.88426 0.58189 0.46187 0.0
H1281 H 0.97657 0.55765 0.68447 0.0
H1282 H 0.95379 0.56894 0.62694 0.0
C1283 C 0.8707 0.5855 0.42865 0.0
C1284 C 0.90373 0.56058 0.51324 0.0
H1285 H 0.91651 0.56608 0.62225 0.0
C1286 C 0.91823 0.54964 0.50282 0.0
C1287 C 0.90321 0.56675 0.55678 0.0
C1288 C 0.88776 0.57811 0.57079 0.0
C1289 C 0.93207 0.54456 0.53454 0.0
C1290 C 0.93133 0.55033 0.57849 0.0
C1291 C 0.9171 0.56166 0.58864 0.0
C1292 C 0.94465 0.54383 0.61491 0.0
C1293 C 0.94741 0.5331 0.5204 0.0
C1294 C 0.94675 0.52606 0.62828 0.0
C1295 C 0.95972 0.51962 0.66068 0.0
C1296 C 0.97089 0.53078 0.68118 0.0
C1297 C 0.96837 0.54868 0.66904 0.0
C1298 C 0.95532 0.55514 0.63626 0.0
H1299 H 0.94903 0.53445 0.48279 0.0
H1300 H 0.96026 0.53608 0.53637 0.0
H1301 H 0.94461 0.51942 0.53128 0.0
H1302 H 0.93838 0.51708 0.61339 0.0
H1303 H 0.96102 0.50578 0.66945 0.0
loop_
_geom_bond_atom_site_label_1
_geom_bond_atom_site_label_2
_geom_bond_distance
_geom_bond_site_symmetry_2
_ccdc_geom_bond_type
C0 C1 1.264 . S
C0 C5 1.479 . S
C0 C10 1.465 . S
C1 C0 1.264 . S
C1 C3 1.339 . S
C1 H28 0.931 . S
C2 C3 1.395 . S
C2 C4 1.320 . S
C3 C1 1.339 . S
C3 C2 1.395 . S
C3 H29 0.929 . S
C4 C2 1.320 . S
C4 C5 1.405 . S
C4 H30 0.930 . S
C5 C0 1.479 . S
C5 C4 1.405 . S
C5 H31 0.931 . S
U6 O7 2.454 . S
U6 O8 2.458 . S
U6 C9 2.984 . S
U6 C10 2.847 . S
U6 C23 2.882 . S
U6 O24 2.441 . S
U6 O25 2.420 . S
U6 O26 2.455 . S
U6 O27 2.449 . S
O7 U6 2.454 . S
O7 C9 1.353 . S
O8 U6 2.458 . S
O8 C9 1.286 . S
C9 U6 2.984 . S
C9 O7 1.353 . S
C9 O8 1.286 . S
C9 C11 1.363 . S
C10 C0 1.465 . S
C10 U6 2.847 . S
C10 O24 1.249 . S
C10 O25 1.202 . S
C11 C9 1.363 . S
C11 C13 1.408 . S
C11 C16 1.342 . S
C12 C13 1.310 . S
C12 C15 1.461 . S
C12 H32 0.932 . S
C13 C11 1.408 . S
C13 C12 1.310 . S
C13 H33 0.930 . S
C14 C15 1.474 . S
C14 C16 1.285 . S
C14 H34 0.929 . S
C15 C12 1.461 . S
C15 C14 1.474 . S
C16 C11 1.342 . S
C16 C14 1.285 . S
C16 H35 0.930 . S
C17 C20 1.424 . S
C17 C22 1.245 1_554 S
C17 C23 1.428 . S
C18 C21 1.260 . S
C18 C22 1.477 . S
C18 H36 0.932 . S
C19 C20 1.384 . S
C19 C21 1.479 1_554 S
C19 H37 0.929 . S
C20 C17 1.424 . S
C20 C19 1.384 . S
C20 H38 0.928 . S
C21 C18 1.260 . S
C21 C19 1.479 1_556 S
C22 C17 1.245 1_556 S
C22 C18 1.477 . S
C22 H39 0.932 . S
C23 U6 2.882 . S
C23 C17 1.428 . S
C23 O26 1.301 . S
C23 O27 1.282 . S
O24 U6 2.441 . S
O24 C10 1.249 . S
O25 U6 2.420 . S
O25 C10 1.202 . S
O26 U6 2.455 . S
O26 C23 1.301 . S
O27 U6 2.449 . S
O27 C23 1.282 . S
H28 C1 0.931 . S
H29 C3 0.929 . S
H30 C4 0.930 . S
H31 C5 0.931 . S
H32 C12 0.932 . S
H33 C13 0.930 . S
H34 C14 0.929 . S
H35 C16 0.930 . S
H36 C18 0.932 . S
H37 C19 0.929 . S
H38 C20 0.928 . S
H39 C22 0.932 . S
C40 C41 1.264 . S
C40 C45 1.479 . S
C40 C50 1.465 . S
C41 C40 1.264 . S
C41 C43 1.339 . S
C41 H68 0.931 . S
C42 C43 1.395 . S
C42 C44 1.320 . S
C43 C41 1.339 . S
C43 C42 1.395 . S
C43 H69 0.929 . S
C44 C42 1.320 . S
C44 C45 1.405 . S
C44 H70 0.919 1_455 S
C45 C40 1.479 . S
C45 C44 1.405 . S
C45 H71 0.931 . S
U46 O47 2.454 . S
U46 O48 2.458 . S
U46 C49 2.984 . S
U46 C50 2.847 . S
U46 C63 2.882 . S
U46 O64 2.441 . S
U46 O65 2.420 . S
U46 O66 2.455 . S
U46 O67 2.449 . S
O47 U46 2.454 . S
O47 C49 1.353 . S
O48 U46 2.458 . S
O48 C49 1.286 . S
C49 U46 2.984 . S
C49 O47 1.353 . S
C49 O48 1.286 . S
C49 C51 1.363 . S
C50 C40 1.465 . S
C50 U46 2.847 . S
C50 O64 1.249 . S
C50 O65 1.202 . S
C51 C49 1.363 . S
C51 C53 1.408 . S
C51 C56 1.342 . S
C52 C53 1.310 . S
C52 C55 1.461 . S
C52 H72 0.939 . S
C53 C51 1.408 . S
C53 C52 1.310 . S
C53 H73 0.930 . S
C54 C55 1.474 1_655 S
C54 C56 1.284 1_655 S
C54 H74 0.931 . S
C55 C52 1.461 . S
C55 C54 1.474 1_455 S
C56 C51 1.342 . S
C56 C54 1.284 1_455 S
C56 H75 0.931 . S
C57 C60 1.424 . S
C57 C62 1.245 1_554 S
C57 C63 1.428 . S
C58 C61 1.260 . S
C58 C62 1.477 . S
C58 H76 0.932 . S
C59 C60 1.384 . S
C59 C61 1.479 1_554 S
C59 H77 0.929 . S
C60 C57 1.424 . S
C60 C59 1.384 . S
C60 H78 0.928 . S
C61 C58 1.260 . S
C61 C59 1.479 1_556 S
C62 C57 1.245 1_556 S
C62 C58 1.477 . S
C62 H79 0.932 . S
C63 U46 2.882 . S
C63 C57 1.428 . S
C63 O66 1.301 . S
C63 O67 1.282 . S
O64 U46 2.441 . S
O64 C50 1.249 . S
O65 U46 2.420 . S
O65 C50 1.202 . S
O66 U46 2.455 . S
O66 C63 1.301 . S
O67 U46 2.449 . S
O67 C63 1.282 . S
H68 C41 0.931 . S
H69 C43 0.929 . S
H70 C44 0.919 1_655 S
H71 C45 0.931 . S
H72 C52 0.939 . S
H73 C53 0.930 . S
H74 C54 0.931 . S
H75 C56 0.931 . S
H76 C58 0.932 . S
H77 C59 0.929 . S
H78 C60 0.928 . S
H79 C62 0.932 . S
C80 C81 1.264 . S
C80 C85 1.479 . S
C80 C90 1.465 . S
C81 C80 1.264 . S
C81 C83 1.339 . S
C81 H108 0.931 . S
C82 C83 1.395 . S
C82 C84 1.320 . S
C83 C81 1.339 . S
C83 C82 1.395 . S
C83 H109 0.929 . S
C84 C82 1.320 . S
C84 C85 1.405 . S
C84 H110 0.930 . S
C85 C80 1.479 . S
C85 C84 1.405 . S
C85 H111 0.931 . S
U86 O87 2.454 . S
U86 O88 2.458 . S
U86 C89 2.984 . S
U86 C90 2.847 . S
U86 C103 2.882 . S
U86 O104 2.441 . S
U86 O105 2.420 . S
U86 O106 2.455 . S
U86 O107 2.449 . S
O87 U86 2.454 . S
O87 C89 1.353 . S
O88 U86 2.458 . S
O88 C89 1.286 . S
C89 U86 2.984 . S
C89 O87 1.353 . S
C89 O88 1.286 . S
C89 C91 1.363 . S
C90 C80 1.465 . S
C90 U86 2.847 . S
C90 O104 1.249 . S
C90 O105 1.202 . S
C91 C89 1.363 . S
C91 C93 1.408 . S
C91 C96 1.342 . S
C92 C93 1.310 . S
C92 C95 1.461 . S
C92 H112 0.932 . S
C93 C91 1.408 . S
C93 C92 1.310 . S
C93 H113 0.930 . S
C94 C95 1.474 . S
C94 C96 1.285 . S
C94 H114 0.929 1_554 S
C95 C92 1.461 . S
C95 C94 1.474 . S
C96 C91 1.342 . S
C96 C94 1.285 . S
C96 H115 0.930 . S
C97 C100 1.424 . S
C97 C102 1.245 1_554 S
C97 C103 1.428 . S
C98 C101 1.260 . S
C98 C102 1.477 . S
C98 H116 0.932 . S
C99 C100 1.384 1_556 S
C99 C101 1.479 . S
C99 H117 0.929 1_556 S
C100 C97 1.424 . S
C100 C99 1.384 1_554 S
C100 H118 0.928 . S
C101 C98 1.260 . S
C101 C99 1.479 . S
C102 C97 1.245 1_556 S
C102 C98 1.477 . S
C102 H119 0.932 . S
C103 U86 2.882 . S
C103 C97 1.428 . S
C103 O106 1.301 . S
C103 O107 1.282 . S
O104 U86 2.441 . S
O104 C90 1.249 . S
O105 U86 2.420 . S
O105 C90 1.202 . S
O106 U86 2.455 . S
O106 C103 1.301 . S
O107 U86 2.449 . S
O107 C103 1.282 . S
H108 C81 0.931 . S
H109 C83 0.929 . S
H110 C84 0.930 . S
H111 C85 0.931 . S
H112 C92 0.932 . S
H113 C93 0.930 . S
H114 C94 0.929 1_556 S
H115 C96 0.930 . S
H116 C98 0.932 . S
H117 C99 0.929 1_554 S
H118 C100 0.928 . S
H119 C102 0.932 . S
C120 C121 1.264 . S
C120 C125 1.479 . S
C120 C130 1.465 . S
C121 C120 1.264 . S
C121 C123 1.339 . S
C121 H148 0.931 . S
C122 C123 1.395 . S
C122 C124 1.320 . S
C123 C121 1.339 . S
C123 C122 1.395 . S
C123 H149 0.929 . S
C124 C122 1.320 . S
C124 C125 1.405 . S
C124 H150 0.930 . S
C125 C120 1.479 . S
C125 C124 1.405 . S
C125 H151 0.931 . S
U126 O127 2.454 . S
U126 O128 2.458 . S
U126 C129 2.984 . S
U126 C130 2.847 . S
U126 C143 2.882 . S
U126 O144 2.441 . S
U126 O145 2.420 . S
U126 O146 2.455 . S
U126 O147 2.449 . S
O127 U126 2.454 . S
O127 C129 1.353 . S
O128 U126 2.458 . S
O128 C129 1.286 . S
C129 U126 2.984 . S
C129 O127 1.353 . S
C129 O128 1.286 . S
C129 C131 1.363 . S
C130 C120 1.465 . S
C130 U126 2.847 . S
C130 O144 1.249 . S
C130 O145 1.202 . S
C131 C129 1.363 . S
C131 C133 1.408 . S
C131 C136 1.342 . S
C132 C133 1.310 . S
C132 C135 1.461 . S
C132 H152 0.932 . S
C133 C131 1.408 . S
C133 C132 1.310 . S
C133 H153 0.930 . S
C134 C135 1.474 . S
C134 C136 1.285 . S
C134 H154 0.923 1_554 S
C135 C132 1.461 . S
C135 C134 1.474 . S
C136 C131 1.342 . S
C136 C134 1.285 . S
C136 H155 0.930 . S
C137 C140 1.424 . S
C137 C142 1.245 1_554 S
C137 C143 1.428 . S
C138 C141 1.260 . S
C138 C142 1.477 . S
C138 H156 0.932 . S
C139 C140 1.384 . S
C139 C141 1.479 1_554 S
C139 H157 0.929 . S
C140 C137 1.424 . S
C140 C139 1.384 . S
C140 H158 0.928 . S
C141 C138 1.260 . S
C141 C139 1.479 1_556 S
C142 C137 1.245 1_556 S
C142 C138 1.477 . S
C142 H159 0.932 . S
C143 U126 2.882 . S
C143 C137 1.428 . S
C143 O146 1.301 . S
C143 O147 1.282 . S
O144 U126 2.441 . S
O144 C130 1.249 . S
O145 U126 2.420 . S
O145 C130 1.202 . S
O146 U126 2.455 . S
O146 C143 1.301 . S
O147 U126 2.449 . S
O147 C143 1.282 . S
H148 C121 0.931 . S
H149 C123 0.929 . S
H150 C124 0.930 . S
H151 C125 0.931 . S
H152 C132 0.932 . S
H153 C133 0.930 . S
H154 C134 0.923 1_556 S
H155 C136 0.930 . S
H156 C138 0.932 . S
H157 C139 0.929 . S
H158 C140 0.928 . S
H159 C142 0.932 . S
C160 C161 1.264 . S
C160 C165 1.479 . S
C160 C170 1.465 . S
C161 C160 1.264 . S
C161 C163 1.339 . S
C161 H188 0.931 . S
C162 C163 1.395 . S
C162 C164 1.320 . S
C163 C161 1.339 . S
C163 C162 1.395 . S
C163 H189 0.929 . S
C164 C162 1.320 . S
C164 C165 1.405 . S
C164 H190 0.930 . S
C165 C160 1.479 . S
C165 C164 1.405 . S
C165 H191 0.931 . S
U166 O167 2.454 . S
U166 O168 2.458 . S
U166 C169 2.984 . S
U166 C170 2.847 . S
U166 C183 2.882 . S
U166 O184 2.441 . S
U166 O185 2.420 . S
U166 O186 2.455 . S
U166 O187 2.449 . S
O167 U166 2.454 . S
O167 C169 1.353 . S
O168 U166 2.458 . S
O168 C169 1.286 . S
C169 U166 2.984 . S
C169 O167 1.353 . S
C169 O168 1.286 . S
C169 C171 1.363 . S
C170 C160 1.465 . S
C170 U166 2.847 . S
C170 O184 1.249 . S
C170 O185 1.202 . S
C171 C169 1.363 . S
C171 C173 1.408 . S
C171 C176 1.342 . S
C172 C173 1.310 . S
C172 C175 1.461 . S
C172 H192 0.932 . S
C173 C171 1.408 . S
C173 C172 1.310 . S
C173 H193 0.930 . S
C174 C175 1.474 . S
C174 C176 1.285 . S
C174 H194 0.929 . S
C175 C172 1.461 . S
C175 C174 1.474 . S
C176 C171 1.342 . S
C176 C174 1.285 . S
C176 H195 0.930 . S
C177 C180 1.424 . S
C177 C182 1.245 . S
C177 C183 1.428 . S
C178 C181 1.260 . S
C178 C182 1.477 . S
C178 H196 0.932 . S
C179 C180 1.384 . S
C179 C181 1.479 . S
C179 H197 0.929 . S
C180 C177 1.424 . S
C180 C179 1.384 . S
C180 H198 0.928 . S
C181 C178 1.260 . S
C181 C179 1.479 . S
C182 C177 1.245 . S
C182 C178 1.477 . S
C182 H199 0.932 . S
C183 U166 2.882 . S
C183 C177 1.428 . S
C183 O186 1.301 . S
C183 O187 1.282 . S
O184 U166 2.441 . S
O184 C170 1.249 . S
O185 U166 2.420 . S
O185 C170 1.202 . S
O186 U166 2.455 . S
O186 C183 1.301 . S
O187 U166 2.449 . S
O187 C183 1.282 . S
H188 C161 0.931 . S
H189 C163 0.929 . S
H190 C164 0.930 . S
H191 C165 0.931 . S
H192 C172 0.932 . S
H193 C173 0.930 . S
H194 C174 0.929 . S
H195 C176 0.930 . S
H196 C178 0.932 . S
H197 C179 0.929 . S
H198 C180 0.928 . S
H199 C182 0.932 . S
C200 C201 1.264 . S
C200 C205 1.479 . S
C200 C210 1.465 . S
C201 C200 1.264 . S
C201 C203 1.339 . S
C201 H228 0.931 . S
C202 C203 1.395 . S
C202 C204 1.320 . S
C203 C201 1.339 . S
C203 C202 1.395 . S
C203 H229 0.929 . S
C204 C202 1.320 . S
C204 C205 1.405 . S
C204 H230 0.925 1_455 S
C205 C200 1.479 . S
C205 C204 1.405 . S
C205 H231 0.931 . S
U206 O207 2.454 . S
U206 O208 2.458 . S
U206 C209 2.984 . S
U206 C210 2.847 . S
U206 C223 2.882 . S
U206 O224 2.441 . S
U206 O225 2.420 . S
U206 O226 2.455 . S
U206 O227 2.449 . S
O207 U206 2.454 . S
O207 C209 1.353 . S
O208 U206 2.458 . S
O208 C209 1.286 . S
C209 U206 2.984 . S
C209 O207 1.353 . S
C209 O208 1.286 . S
C209 C211 1.363 . S
C210 C200 1.465 . S
C210 U206 2.847 . S
C210 O224 1.249 . S
C210 O225 1.202 . S
C211 C209 1.363 . S
C211 C213 1.408 . S
C211 C216 1.342 . S
C212 C213 1.310 . S
C212 C215 1.462 . S
C212 H232 0.932 . S
C213 C211 1.408 . S
C213 C212 1.310 . S
C213 H233 0.930 . S
C214 C215 1.473 1_655 S
C214 C216 1.286 1_655 S
C214 H234 0.929 . S
C215 C212 1.462 . S
C215 C214 1.473 1_455 S
C216 C211 1.342 . S
C216 C214 1.286 1_455 S
C216 H235 0.936 . S
C217 C220 1.424 . S
C217 C222 1.245 . S
C217 C223 1.428 . S
C218 C221 1.260 . S
C218 C222 1.477 . S
C218 H236 0.932 . S
C219 C220 1.384 . S
C219 C221 1.479 . S
C219 H237 0.929 . S
C220 C217 1.424 . S
C220 C219 1.384 . S
C220 H238 0.928 . S
C221 C218 1.260 . S
C221 C219 1.479 . S
C222 C217 1.245 . S
C222 C218 1.477 . S
C222 H239 0.932 . S
C223 U206 2.882 . S
C223 C217 1.428 . S
C223 O226 1.301 . S
C223 O227 1.282 . S
O224 U206 2.441 . S
O224 C210 1.249 . S
O225 U206 2.420 . S
O225 C210 1.202 . S
O226 U206 2.455 . S
O226 C223 1.301 . S
O227 U206 2.449 . S
O227 C223 1.282 . S
H228 C201 0.931 . S
H229 C203 0.929 . S
H230 C204 0.925 1_655 S
H231 C205 0.931 . S
H232 C212 0.932 . S
H233 C213 0.930 . S
H234 C214 0.929 . S
H235 C216 0.936 . S
H236 C218 0.932 . S
H237 C219 0.929 . S
H238 C220 0.928 . S
H239 C222 0.932 . S
C240 C241 1.264 . S
C240 C245 1.479 . S
C240 C250 1.465 . S
C241 C240 1.264 . S
C241 C243 1.339 . S
C241 H268 0.931 . S
C242 C243 1.395 . S
C242 C244 1.320 . S
C243 C241 1.339 . S
C243 C242 1.395 . S
C243 H269 0.929 . S
C244 C242 1.320 . S
C244 C245 1.405 . S
C244 H270 0.930 . S
C245 C240 1.479 . S
C245 C244 1.405 . S
C245 H271 0.931 . S
U246 O247 2.454 . S
U246 O248 2.458 . S
U246 C249 2.984 . S
U246 C250 2.847 . S
U246 C263 2.882 . S
U246 O264 2.441 . S
U246 O265 2.420 . S
U246 O266 2.455 . S
U246 O267 2.449 . S
O247 U246 2.454 . S
O247 C249 1.353 . S
O248 U246 2.458 . S
O248 C249 1.286 . S
C249 U246 2.984 . S
C249 O247 1.353 . S
C249 O248 1.286 . S
C249 C251 1.363 . S
C250 C240 1.465 . S
C250 U246 2.847 . S
C250 O264 1.249 . S
C250 O265 1.202 . S
C251 C249 1.363 . S
C251 C253 1.408 . S
C251 C256 1.342 . S
C252 C253 1.310 . S
C252 C255 1.461 . S
C252 H272 0.932 . S
C253 C251 1.408 . S
C253 C252 1.310 . S
C253 H273 0.930 . S
C254 C255 1.474 . S
C254 C256 1.285 . S
C254 H274 0.929 . S
C255 C252 1.461 . S
C255 C254 1.474 . S
C256 C251 1.342 . S
C256 C254 1.285 . S
C256 H275 0.930 . S
C257 C260 1.424 . S
C257 C262 1.245 . S
C257 C263 1.428 . S
C258 C261 1.260 . S
C258 C262 1.477 . S
C258 H276 0.932 . S
C259 C260 1.384 . S
C259 C261 1.479 . S
C259 H277 0.929 . S
C260 C257 1.424 . S
C260 C259 1.384 . S
C260 H278 0.928 . S
C261 C258 1.260 . S
C261 C259 1.479 . S
C262 C257 1.245 . S
C262 C258 1.477 . S
C262 H279 0.932 . S
C263 U246 2.882 . S
C263 C257 1.428 . S
C263 O266 1.301 . S
C263 O267 1.282 . S
O264 U246 2.441 . S
O264 C250 1.249 . S
O265 U246 2.420 . S
O265 C250 1.202 . S
O266 U246 2.455 . S
O266 C263 1.301 . S
O267 U246 2.449 . S
O267 C263 1.282 . S
H268 C241 0.931 . S
H269 C243 0.929 . S
H270 C244 0.930 . S
H271 C245 0.931 . S
H272 C252 0.932 . S
H273 C253 0.930 . S
H274 C254 0.929 . S
H275 C256 0.930 . S
H276 C258 0.932 . S
H277 C259 0.929 . S
H278 C260 0.928 . S
H279 C262 0.932 . S
C280 C281 1.264 . S
C280 C285 1.479 . S
C280 C290 1.465 . S
C281 C280 1.264 . S
C281 C283 1.339 . S
C281 H308 0.931 . S
C282 C283 1.395 . S
C282 C284 1.320 . S
C283 C281 1.339 . S
C283 C282 1.395 . S
C283 H309 0.929 . S
C284 C282 1.320 . S
C284 C285 1.405 . S
C284 H310 0.930 . S
C285 C280 1.479 . S
C285 C284 1.405 . S
C285 H311 0.931 . S
U286 O287 2.454 . S
U286 O288 2.458 . S
U286 C289 2.984 . S
U286 C290 2.847 . S
U286 C303 2.882 . S
U286 O304 2.441 . S
U286 O305 2.420 . S
U286 O306 2.455 . S
U286 O307 2.449 . S
O287 U286 2.454 . S
O287 C289 1.353 . S
O288 U286 2.458 . S
O288 C289 1.286 . S
C289 U286 2.984 . S
C289 O287 1.353 . S
C289 O288 1.286 . S
C289 C291 1.363 . S
C290 C280 1.465 . S
C290 U286 2.847 . S
C290 O304 1.249 . S
C290 O305 1.202 . S
C291 C289 1.363 . S
C291 C293 1.408 . S
C291 C296 1.342 . S
C292 C293 1.310 . S
C292 C295 1.461 . S
C292 H312 0.932 . S
C293 C291 1.408 . S
C293 C292 1.310 . S
C293 H313 0.930 . S
C294 C295 1.474 . S
C294 C296 1.285 . S
C294 H314 0.929 . S
C295 C292 1.461 . S
C295 C294 1.474 . S
C296 C291 1.342 . S
C296 C294 1.285 . S
C296 H315 0.930 . S
C297 C300 1.424 . S
C297 C302 1.245 . S
C297 C303 1.428 . S
C298 C301 1.260 . S
C298 C302 1.477 . S
C298 H316 0.932 . S
C299 C300 1.384 . S
C299 C301 1.479 . S
C299 H317 0.929 . S
C300 C297 1.424 . S
C300 C299 1.384 . S
C300 H318 0.928 . S
C301 C298 1.260 . S
C301 C299 1.479 . S
C302 C297 1.245 . S
C302 C298 1.477 . S
C302 H319 0.932 . S
C303 U286 2.882 . S
C303 C297 1.428 . S
C303 O306 1.301 . S
C303 O307 1.282 . S
O304 U286 2.441 . S
O304 C290 1.249 . S
O305 U286 2.420 . S
O305 C290 1.202 . S
O306 U286 2.455 . S
O306 C303 1.301 . S
O307 U286 2.449 . S
O307 C303 1.282 . S
H308 C281 0.931 . S
H309 C283 0.929 . S
H310 C284 0.930 . S
H311 C285 0.931 . S
H312 C292 0.932 . S
H313 C293 0.930 . S
H314 C294 0.929 . S
H315 C296 0.930 . S
H316 C298 0.932 . S
H317 C299 0.929 . S
H318 C300 0.928 . S
H319 C302 0.932 . S
Co320 N325 2.057 . S
Co320 O337 2.021 . S
Co320 O340 2.062 1_455 S
Co320 O344 2.117 1_455 S
Co320 O345 2.020 1_545 S
C321 O341 1.259 1_545 S
C321 O344 1.258 . S
Co322 N331 2.062 . S
Co322 O338 2.115 1_665 S
Co322 O339 2.013 1_565 S
Co322 O341 2.022 . S
Co322 O346 2.067 1_655 S
C323 N325 1.316 . S
C323 N326 1.347 . S
C323 H328 0.931 . S
C324 N325 1.375 1_655 S
C324 C327 1.350 . S
C324 H329 0.930 . S
N325 Co320 2.057 . S
N325 C323 1.316 . S
N325 C324 1.375 1_455 S
N326 C323 1.347 . S
N326 C327 1.373 1_455 S
C327 C324 1.350 . S
C327 N326 1.373 1_655 S
C327 H348 0.931 . S
H328 C323 0.931 . S
H329 C324 0.930 . S
C330 O337 1.259 . S
C330 O338 1.258 . S
N331 Co322 2.062 . S
N331 C332 1.316 . S
N331 C333 1.375 1_655 S
C332 N331 1.316 . S
C332 N334 1.347 . S
C332 H343 0.931 . S
C333 N331 1.375 1_455 S
C333 C335 1.350 . S
C333 H342 0.930 . S
N334 C332 1.347 . S
N334 C335 1.373 1_655 S
C335 C333 1.350 . S
C335 N334 1.373 1_455 S
C335 H349 0.931 . S
C336 O339 1.256 . S
C336 O340 1.255 . S
O337 Co320 2.021 . S
O337 C330 1.259 . S
O338 Co322 2.115 1_445 S
O338 C330 1.258 . S
O339 Co322 2.013 1_545 S
O339 C336 1.256 . S
O340 Co320 2.062 1_655 S
O340 C336 1.255 . S
O341 C321 1.259 1_565 S
O341 Co322 2.022 . S
H342 C333 0.930 . S
H343 C332 0.931 . S
O344 Co320 2.117 1_655 S
O344 C321 1.258 . S
O345 Co320 2.020 1_565 S
O345 C347 1.256 . S
O346 Co322 2.067 1_455 S
O346 C347 1.255 . S
C347 O345 1.256 . S
C347 O346 1.255 . S
H348 C327 0.931 . S
H349 C335 0.931 . S
Co350 N355 2.057 . S
Co350 O367 2.021 . S
Co350 O370 2.062 . S
Co350 O374 2.117 1_545 S
Co350 O375 2.020 . S
C351 O371 1.259 . S
C351 O374 1.258 . S
Co352 N361 2.058 . S
Co352 O368 2.117 . S
Co352 O369 2.020 . S
Co352 O371 2.021 1_545 S
Co352 O376 2.062 . S
C353 N355 1.316 . S
C353 N356 1.347 . S
C353 H358 0.931 . S
C354 N355 1.375 . S
C354 C357 1.350 . S
C354 H359 0.930 1_545 S
N355 Co350 2.057 . S
N355 C353 1.316 . S
N355 C354 1.375 . S
N356 C353 1.347 . S
N356 C357 1.373 . S
C357 C354 1.350 . S
C357 N356 1.373 . S
C357 H378 0.931 . S
H358 C353 0.931 . S
H359 C354 0.930 1_565 S
C360 O367 1.259 . S
C360 O368 1.258 . S
N361 Co352 2.058 . S
N361 C362 1.307 1_545 S
N361 C363 1.383 . S
C362 N361 1.307 1_565 S
C362 N364 1.347 . S
C362 H373 0.931 . S
C363 N361 1.383 . S
C363 C365 1.350 . S
C363 H372 0.930 . S
N364 C362 1.347 . S
N364 C365 1.373 1_565 S
C365 C363 1.350 . S
C365 N364 1.373 1_545 S
C365 H379 0.931 . S
C366 O369 1.256 . S
C366 O370 1.255 . S
O367 Co350 2.021 . S
O367 C360 1.259 . S
O368 Co352 2.117 . S
O368 C360 1.258 . S
O369 Co352 2.020 . S
O369 C366 1.256 . S
O370 Co350 2.062 . S
O370 C366 1.255 . S
O371 C351 1.259 . S
O371 Co352 2.021 1_565 S
H372 C363 0.930 . S
H373 C362 0.931 . S
O374 Co350 2.117 1_565 S
O374 C351 1.258 . S
O375 Co350 2.020 . S
O375 C377 1.256 . S
O376 Co352 2.062 . S
O376 C377 1.253 . S
C377 O375 1.256 . S
C377 O376 1.253 . S
H378 C357 0.931 . S
H379 C365 0.931 . S
Co380 N385 2.057 . S
Co380 O397 2.021 . S
Co380 O400 2.062 . S
Co380 O404 2.117 . S
Co380 O405 2.020 . S
C381 O401 1.259 . S
C381 O404 1.258 . S
Co382 N391 2.057 . S
Co382 O398 2.117 . S
Co382 O399 2.020 . S
Co382 O401 2.021 . S
Co382 O406 2.062 . S
C383 N385 1.316 . S
C383 N386 1.347 . S
C383 H388 0.931 . S
C384 N385 1.375 . S
C384 C387 1.350 . S
C384 H389 0.930 . S
N385 Co380 2.057 . S
N385 C383 1.316 . S
N385 C384 1.375 . S
N386 C383 1.347 . S
N386 C387 1.373 . S
C387 C384 1.350 . S
C387 N386 1.373 . S
C387 H408 0.931 . S
H388 C383 0.931 . S
H389 C384 0.930 . S
C390 O397 1.259 . S
C390 O398 1.258 . S
N391 Co382 2.057 . S
N391 C392 1.316 . S
N391 C393 1.375 . S
C392 N391 1.316 . S
C392 N394 1.347 . S
C392 H403 0.931 . S
C393 N391 1.375 . S
C393 C395 1.350 . S
C393 H402 0.930 . S
N394 C392 1.347 . S
N394 C395 1.373 . S
C395 C393 1.350 . S
C395 N394 1.373 . S
C395 H409 0.931 . S
C396 O399 1.256 . S
C396 O400 1.255 . S
O397 Co380 2.021 . S
O397 C390 1.259 . S
O398 Co382 2.117 . S
O398 C390 1.258 . S
O399 Co382 2.020 . S
O399 C396 1.256 . S
O400 Co380 2.062 . S
O400 C396 1.255 . S
O401 C381 1.259 . S
O401 Co382 2.021 . S
H402 C393 0.930 . S
H403 C392 0.931 . S
O404 Co380 2.117 . S
O404 C381 1.258 . S
O405 Co380 2.020 . S
O405 C407 1.256 . S
O406 Co382 2.062 . S
O406 C407 1.255 . S
C407 O405 1.256 . S
C407 O406 1.255 . S
H408 C387 0.931 . S
H409 C395 0.931 . S
Co410 N415 2.057 . S
Co410 O427 2.021 1_455 S
Co410 O430 2.062 1_455 S
Co410 O434 2.117 . S
Co410 O435 2.020 . S
C411 O431 1.259 . S
C411 O434 1.258 . S
Co412 N421 2.057 . S
Co412 O428 2.117 . S
Co412 O429 2.020 . S
Co412 O431 2.021 1_655 S
Co412 O436 2.062 1_655 S
C413 N415 1.316 . S
C413 N416 1.347 . S
C413 H418 0.931 1_455 S
C414 N415 1.375 . S
C414 C417 1.350 . S
C414 H419 0.930 . S
N415 Co410 2.057 . S
N415 C413 1.316 . S
N415 C414 1.375 . S
N416 C413 1.347 . S
N416 C417 1.373 . S
C417 C414 1.350 . S
C417 N416 1.373 . S
C417 H438 0.931 . S
H418 C413 0.931 1_655 S
H419 C414 0.930 . S
C420 O427 1.259 . S
C420 O428 1.258 . S
N421 Co412 2.057 . S
N421 C422 1.316 . S
N421 C423 1.375 . S
C422 N421 1.316 . S
C422 N424 1.347 . S
C422 H433 0.931 1_655 S
C423 N421 1.375 . S
C423 C425 1.350 . S
C423 H432 0.930 . S
N424 C422 1.347 . S
N424 C425 1.373 . S
C425 C423 1.350 . S
C425 N424 1.373 . S
C425 H439 0.931 . S
C426 O429 1.256 . S
C426 O430 1.255 . S
O427 Co410 2.021 1_655 S
O427 C420 1.259 . S
O428 Co412 2.117 . S
O428 C420 1.258 . S
O429 Co412 2.020 . S
O429 C426 1.256 . S
O430 Co410 2.062 1_655 S
O430 C426 1.255 . S
O431 C411 1.259 . S
O431 Co412 2.021 1_455 S
H432 C423 0.930 . S
H433 C422 0.931 1_455 S
O434 Co410 2.117 . S
O434 C411 1.258 . S
O435 Co410 2.020 . S
O435 C437 1.256 . S
O436 Co412 2.062 1_455 S
O436 C437 1.255 . S
C437 O435 1.256 . S
C437 O436 1.255 . S
H438 C417 0.931 . S
H439 C425 0.931 . S
H440 C448 0.929 . S
H441 C450 0.930 . S
H442 C452 0.930 . S
H443 C455 0.929 . S
H444 C458 0.930 . S
H445 C460 0.960 . S
H446 C460 0.960 . S
H447 C460 0.960 . S
C448 H440 0.929 . S
C448 C449 1.377 . S
C448 C450 1.384 . S
C449 C448 1.377 . S
C449 C455 1.390 . S
C450 H441 0.930 . S
C450 C448 1.384 . S
C450 C451 1.372 . S
C451 C450 1.372 . S
C451 C452 1.400 . S
C451 C456 1.490 . S
C452 H442 0.930 . S
C452 C451 1.400 . S
C452 C455 1.386 . S
H453 C469 0.930 . S
H454 C470 0.931 . S
C455 H443 0.929 . S
C455 C449 1.390 . S
C455 C452 1.386 . S
C456 C451 1.490 . S
C456 C458 1.395 . S
C456 C459 1.403 . S
H457 C463 0.930 . S
C458 H444 0.930 . S
C458 C456 1.395 . S
C458 C461 1.403 . S
C459 C456 1.403 . S
C459 C460 1.524 . S
C459 C463 1.400 . S
C460 H445 0.960 . S
C460 H446 0.960 . S
C460 H447 0.960 . S
C460 C459 1.524 . S
C461 C458 1.403 . S
C461 C462 1.392 . S
C461 C465 1.495 . S
C462 C461 1.392 . S
C462 C463 1.385 . S
C462 C464 1.478 . S
C463 H457 0.930 . S
C463 C459 1.400 . S
C463 C462 1.385 . S
C464 C462 1.478 . S
C464 C466 1.381 . S
C464 C470 1.383 . S
C465 C461 1.495 . S
C465 H471 0.959 . S
C465 H472 0.961 . S
C465 H473 0.960 . S
C466 C464 1.381 . S
C466 C467 1.394 . S
C466 H474 0.930 . S
C467 C466 1.394 . S
C467 C468 1.383 . S
C467 H475 0.929 1_545 S
C468 C467 1.383 . S
C468 C469 1.377 . S
C469 H453 0.930 . S
C469 C468 1.377 . S
C469 C470 1.379 . S
C470 H454 0.931 . S
C470 C464 1.383 . S
C470 C469 1.379 . S
H471 C465 0.959 . S
H472 C465 0.961 . S
H473 C465 0.960 . S
H474 C466 0.930 . S
H475 C467 0.929 1_565 S
H476 C484 0.929 . S
H477 C486 0.930 . S
H478 C488 0.930 . S
H479 C491 0.929 . S
H480 C494 0.930 . S
H481 C496 0.960 . S
H482 C496 0.960 . S
H483 C496 0.960 . S
C484 H476 0.929 . S
C484 C485 1.377 . S
C484 C486 1.384 . S
C485 C484 1.377 . S
C485 C491 1.390 . S
C486 H477 0.930 . S
C486 C484 1.384 . S
C486 C487 1.372 . S
C487 C486 1.372 . S
C487 C488 1.400 . S
C487 C492 1.490 . S
C488 H478 0.930 . S
C488 C487 1.400 . S
C488 C491 1.386 . S
H489 C505 0.930 . S
H490 C506 0.931 . S
C491 H479 0.929 . S
C491 C485 1.390 . S
C491 C488 1.386 . S
C492 C487 1.490 . S
C492 C494 1.395 . S
C492 C495 1.403 . S
H493 C499 0.930 . S
C494 H480 0.930 . S
C494 C492 1.395 . S
C494 C497 1.403 . S
C495 C492 1.403 . S
C495 C496 1.524 . S
C495 C499 1.400 . S
C496 H481 0.960 . S
C496 H482 0.960 . S
C496 H483 0.960 . S
C496 C495 1.524 . S
C497 C494 1.403 . S
C497 C498 1.392 . S
C497 C501 1.495 . S
C498 C497 1.392 . S
C498 C499 1.385 . S
C498 C500 1.478 . S
C499 H493 0.930 . S
C499 C495 1.400 . S
C499 C498 1.385 . S
C500 C498 1.478 . S
C500 C502 1.381 . S
C500 C506 1.383 . S
C501 C497 1.495 . S
C501 H507 0.959 . S
C501 H508 0.961 . S
C501 H509 0.960 . S
C502 C500 1.381 . S
C502 C503 1.394 . S
C502 H510 0.930 . S
C503 C502 1.394 . S
C503 C504 1.383 . S
C503 H511 0.929 . S
C504 C503 1.383 . S
C504 C505 1.377 . S
C505 H489 0.930 . S
C505 C504 1.377 . S
C505 C506 1.379 . S
C506 H490 0.931 . S
C506 C500 1.383 . S
C506 C505 1.379 . S
H507 C501 0.959 . S
H508 C501 0.961 . S
H509 C501 0.960 . S
H510 C502 0.930 . S
H511 C503 0.929 . S
H512 C520 0.929 . S
H513 C522 0.930 . S
H514 C524 0.930 . S
H515 C527 0.929 . S
H516 C530 0.930 . S
H517 C532 0.960 . S
H518 C532 0.960 . S
H519 C532 0.960 . S
C520 H512 0.929 . S
C520 C521 1.377 . S
C520 C522 1.384 . S
C521 C520 1.377 . S
C521 C527 1.390 . S
C522 H513 0.930 . S
C522 C520 1.384 . S
C522 C523 1.372 . S
C523 C522 1.372 . S
C523 C524 1.400 . S
C523 C528 1.490 . S
C524 H514 0.930 . S
C524 C523 1.400 . S
C524 C527 1.386 . S
H525 C541 0.930 . S
H526 C542 0.931 . S
C527 H515 0.929 . S
C527 C521 1.390 . S
C527 C524 1.386 . S
C528 C523 1.490 . S
C528 C530 1.395 . S
C528 C531 1.403 . S
H529 C535 0.930 . S
C530 H516 0.930 . S
C530 C528 1.395 . S
C530 C533 1.403 . S
C531 C528 1.403 . S
C531 C532 1.524 . S
C531 C535 1.400 . S
C532 H517 0.960 . S
C532 H518 0.960 . S
C532 H519 0.960 . S
C532 C531 1.524 . S
C533 C530 1.403 . S
C533 C534 1.392 . S
C533 C537 1.495 . S
C534 C533 1.392 . S
C534 C535 1.385 . S
C534 C536 1.478 . S
C535 H529 0.930 . S
C535 C531 1.400 . S
C535 C534 1.385 . S
C536 C534 1.478 . S
C536 C538 1.381 . S
C536 C542 1.383 . S
C537 C533 1.495 . S
C537 H543 0.959 . S
C537 H544 0.961 . S
C537 H545 0.960 . S
C538 C536 1.381 . S
C538 C539 1.394 . S
C538 H546 0.930 . S
C539 C538 1.394 . S
C539 C540 1.383 . S
C539 H547 0.929 . S
C540 C539 1.383 . S
C540 C541 1.377 . S
C541 H525 0.930 . S
C541 C540 1.377 . S
C541 C542 1.379 . S
C542 H526 0.931 . S
C542 C536 1.383 . S
C542 C541 1.379 . S
H543 C537 0.959 . S
H544 C537 0.961 . S
H545 C537 0.960 . S
H546 C538 0.930 . S
H547 C539 0.929 . S
H548 C556 0.929 . S
H549 C558 0.930 . S
H550 C560 0.930 . S
H551 C563 0.929 . S
H552 C566 0.930 . S
H553 C568 0.960 . S
H554 C568 0.960 . S
H555 C568 0.960 . S
C556 H548 0.929 . S
C556 C557 1.369 1_455 S
C556 C558 1.384 . S
C557 C556 1.369 1_655 S
C557 C563 1.399 . S
C558 H549 0.930 . S
C558 C556 1.384 . S
C558 C559 1.372 1_455 S
C559 C558 1.372 1_655 S
C559 C560 1.400 . S
C559 C564 1.490 . S
C560 H550 0.930 . S
C560 C559 1.400 . S
C560 C563 1.386 . S
H561 C577 0.930 . S
H562 C578 0.931 . S
C563 H551 0.929 . S
C563 C557 1.399 . S
C563 C560 1.386 . S
C564 C559 1.490 . S
C564 C566 1.395 1_655 S
C564 C567 1.403 . S
H565 C571 0.930 . S
C566 H552 0.930 . S
C566 C564 1.395 1_455 S
C566 C569 1.403 . S
C567 C564 1.403 . S
C567 C568 1.524 . S
C567 C571 1.400 . S
C568 H553 0.960 . S
C568 H554 0.960 . S
C568 H555 0.960 . S
C568 C567 1.524 . S
C569 C566 1.403 . S
C569 C570 1.392 1_455 S
C569 C573 1.495 . S
C570 C569 1.392 1_655 S
C570 C571 1.385 . S
C570 C572 1.478 . S
C571 H565 0.930 . S
C571 C567 1.400 . S
C571 C570 1.385 . S
C572 C570 1.478 . S
C572 C574 1.381 1_655 S
C572 C578 1.383 . S
C573 C569 1.495 . S
C573 H579 0.959 . S
C573 H580 0.961 . S
C573 H581 0.960 . S
C574 C572 1.381 1_455 S
C574 C575 1.394 . S
C574 H582 0.930 . S
C575 C574 1.394 . S
C575 C576 1.383 1_455 S
C575 H583 0.929 . S
C576 C575 1.383 1_655 S
C576 C577 1.377 . S
C577 H561 0.930 . S
C577 C576 1.377 . S
C577 C578 1.379 . S
C578 H562 0.931 . S
C578 C572 1.383 . S
C578 C577 1.379 . S
H579 C573 0.959 . S
H580 C573 0.961 . S
H581 C573 0.960 . S
H582 C574 0.930 . S
H583 C575 0.929 . S
H584 C592 0.929 . S
H585 C594 0.930 . S
H586 C596 0.930 . S
H587 C599 0.929 . S
H588 C602 0.942 . S
H589 C604 0.960 . S
H590 C604 0.960 . S
H591 C604 0.960 . S
C592 H584 0.929 . S
C592 C593 1.377 . S
C592 C594 1.384 1_554 S
C593 C592 1.377 . S
C593 C599 1.390 . S
C594 H585 0.930 . S
C594 C592 1.384 1_556 S
C594 C595 1.372 . S
C595 C594 1.372 . S
C595 C596 1.400 . S
C595 C600 1.490 . S
C596 H586 0.930 . S
C596 C595 1.400 . S
C596 C599 1.386 1_556 S
H597 C613 0.930 . S
H598 C614 0.931 . S
C599 H587 0.929 . S
C599 C593 1.390 . S
C599 C596 1.386 1_554 S
C600 C595 1.490 . S
C600 C602 1.395 . S
C600 C603 1.403 . S
H601 C607 0.930 . S
C602 H588 0.942 . S
C602 C600 1.395 . S
C602 C605 1.403 . S
C603 C600 1.403 . S
C603 C604 1.524 . S
C603 C607 1.400 . S
C604 H589 0.960 . S
C604 H590 0.960 . S
C604 H591 0.960 . S
C604 C603 1.524 . S
C605 C602 1.403 . S
C605 C606 1.392 . S
C605 C609 1.495 . S
C606 C605 1.392 . S
C606 C607 1.385 . S
C606 C608 1.478 . S
C607 H601 0.930 . S
C607 C603 1.400 . S
C607 C606 1.385 . S
C608 C606 1.478 . S
C608 C610 1.381 1_565 S
C608 C614 1.383 . S
C609 C605 1.495 . S
C609 H615 0.959 1_556 S
C609 H616 0.961 . S
C609 H617 0.960 1_565 S
C610 C608 1.381 1_545 S
C610 C611 1.394 . S
C610 H618 0.930 . S
C611 C610 1.394 . S
C611 C612 1.383 1_545 S
C611 H619 0.929 . S
C612 C611 1.383 1_565 S
C612 C613 1.377 . S
C613 H597 0.930 . S
C613 C612 1.377 . S
C613 C614 1.379 . S
C614 H598 0.931 . S
C614 C608 1.383 . S
C614 C613 1.379 . S
H615 C609 0.959 1_554 S
H616 C609 0.961 . S
H617 C609 0.960 1_545 S
H618 C610 0.930 . S
H619 C611 0.929 . S
H620 C628 0.929 . S
H621 C630 0.930 . S
H622 C632 0.930 . S
H623 C635 0.929 . S
H624 C638 0.930 1_554 S
H625 C640 0.960 . S
H626 C640 0.960 . S
H627 C640 0.960 . S
C628 H620 0.929 . S
C628 C629 1.377 . S
C628 C630 1.384 . S
C629 C628 1.377 . S
C629 C635 1.390 1_554 S
C630 H621 0.930 . S
C630 C628 1.384 . S
C630 C631 1.372 1_554 S
C631 C630 1.372 1_556 S
C631 C632 1.400 . S
C631 C636 1.490 . S
C632 H622 0.930 . S
C632 C631 1.400 . S
C632 C635 1.386 . S
H633 C649 0.930 . S
H634 C650 0.931 . S
C635 H623 0.929 . S
C635 C629 1.390 1_556 S
C635 C632 1.386 . S
C636 C631 1.490 . S
C636 C638 1.395 . S
C636 C639 1.403 . S
H637 C643 0.930 . S
C638 H624 0.930 1_556 S
C638 C636 1.395 . S
C638 C641 1.403 . S
C639 C636 1.403 . S
C639 C640 1.524 . S
C639 C643 1.400 . S
C640 H625 0.960 . S
C640 H626 0.960 . S
C640 H627 0.960 . S
C640 C639 1.524 . S
C641 C638 1.403 . S
C641 C642 1.392 . S
C641 C645 1.495 . S
C642 C641 1.392 . S
C642 C643 1.385 . S
C642 C644 1.478 . S
C643 H637 0.930 . S
C643 C639 1.400 . S
C643 C642 1.385 . S
C644 C642 1.478 . S
C644 C646 1.381 . S
C644 C650 1.383 . S
C645 C641 1.495 . S
C645 H651 0.959 1_556 S
C645 H652 0.961 . S
C645 H653 0.960 . S
C646 C644 1.381 . S
C646 C647 1.394 . S
C646 H654 0.930 . S
C647 C646 1.394 . S
C647 C648 1.383 . S
C647 H655 0.929 . S
C648 C647 1.383 . S
C648 C649 1.377 . S
C649 H633 0.930 . S
C649 C648 1.377 . S
C649 C650 1.379 . S
C650 H634 0.931 . S
C650 C644 1.383 . S
C650 C649 1.379 . S
H651 C645 0.959 1_554 S
H652 C645 0.961 . S
H653 C645 0.960 . S
H654 C646 0.930 . S
H655 C647 0.929 . S
H656 C664 0.929 1_556 S
H657 C666 0.930 . S
H658 C668 0.930 . S
H659 C671 0.929 . S
H660 C674 0.930 . S
H661 C676 0.960 . S
H662 C676 0.959 1_556 S
H663 C676 0.960 . S
C664 H656 0.929 1_554 S
C664 C665 1.377 . S
C664 C666 1.384 1_554 S
C665 C664 1.377 . S
C665 C671 1.390 . S
C666 H657 0.930 . S
C666 C664 1.384 1_556 S
C666 C667 1.372 . S
C667 C666 1.372 . S
C667 C668 1.400 1_556 S
C667 C672 1.490 . S
C668 H658 0.930 . S
C668 C667 1.400 1_554 S
C668 C671 1.386 . S
H669 C685 0.930 . S
H670 C686 0.931 . S
C671 H659 0.929 . S
C671 C665 1.390 . S
C671 C668 1.386 . S
C672 C667 1.490 . S
C672 C674 1.395 . S
C672 C675 1.403 . S
H673 C679 0.930 . S
C674 H660 0.930 . S
C674 C672 1.395 . S
C674 C677 1.403 . S
C675 C672 1.403 . S
C675 C676 1.524 1_556 S
C675 C679 1.400 . S
C676 H661 0.960 . S
C676 H662 0.959 1_554 S
C676 H663 0.960 . S
C676 C675 1.524 1_554 S
C677 C674 1.403 . S
C677 C678 1.392 . S
C677 C681 1.495 . S
C678 C677 1.392 . S
C678 C679 1.385 . S
C678 C680 1.478 . S
C679 H673 0.930 . S
C679 C675 1.400 . S
C679 C678 1.385 . S
C680 C678 1.478 . S
C680 C682 1.381 . S
C680 C686 1.383 . S
C681 C677 1.495 . S
C681 H687 0.959 . S
C681 H688 0.961 . S
C681 H689 0.960 . S
C682 C680 1.381 . S
C682 C683 1.394 . S
C682 H690 0.930 . S
C683 C682 1.394 . S
C683 C684 1.383 . S
C683 H691 0.929 . S
C684 C683 1.383 . S
C684 C685 1.377 . S
C685 H669 0.930 . S
C685 C684 1.377 . S
C685 C686 1.379 . S
C686 H670 0.931 . S
C686 C680 1.383 . S
C686 C685 1.379 . S
H687 C681 0.959 . S
H688 C681 0.961 . S
H689 C681 0.960 . S
H690 C682 0.930 . S
H691 C683 0.929 . S
H692 C700 0.929 . S
H693 C702 0.930 . S
H694 C704 0.928 . S
H695 C707 0.929 . S
H696 C710 0.945 1_554 S
H697 C712 0.960 . S
H698 C712 0.960 . S
H699 C712 0.960 . S
C700 H692 0.929 . S
C700 C701 1.401 . S
C700 C702 1.384 . S
C701 C700 1.401 . S
C701 C707 1.369 1_455 S
C702 H693 0.930 . S
C702 C700 1.384 . S
C702 C703 1.372 . S
C703 C702 1.372 . S
C703 C704 1.400 1_454 S
C703 C708 1.490 1_554 S
C704 H694 0.928 . S
C704 C703 1.400 1_656 S
C704 C707 1.387 1_556 S
H705 C721 0.930 . S
H706 C722 0.931 . S
C707 H695 0.929 . S
C707 C701 1.369 1_655 S
C707 C704 1.387 1_554 S
C708 C703 1.490 1_556 S
C708 C710 1.381 1_455 S
C708 C711 1.403 . S
H709 C715 0.930 . S
C710 H696 0.945 1_556 S
C710 C708 1.381 1_655 S
C710 C713 1.404 . S
C711 C708 1.403 . S
C711 C712 1.524 . S
C711 C715 1.400 . S
C712 H697 0.960 . S
C712 H698 0.960 . S
C712 H699 0.960 . S
C712 C711 1.524 . S
C713 C710 1.404 . S
C713 C714 1.386 1_655 S
C713 C717 1.503 . S
C714 C713 1.386 1_455 S
C714 C715 1.385 . S
C714 C716 1.478 . S
C715 H709 0.930 . S
C715 C711 1.400 . S
C715 C714 1.385 . S
C716 C714 1.478 . S
C716 C718 1.381 . S
C716 C722 1.383 1_455 S
C717 C713 1.503 . S
C717 H723 0.959 1_556 S
C717 H724 0.961 . S
C717 H725 0.960 1_655 S
C718 C716 1.381 . S
C718 C719 1.394 . S
C718 H726 0.930 . S
C719 C718 1.394 . S
C719 C720 1.383 . S
C719 H727 0.929 . S
C720 C719 1.383 . S
C720 C721 1.377 1_455 S
C721 H705 0.930 . S
C721 C720 1.377 1_655 S
C721 C722 1.379 . S
C722 H706 0.931 . S
C722 C716 1.383 1_655 S
C722 C721 1.379 . S
H723 C717 0.959 1_554 S
H724 C717 0.961 . S
H725 C717 0.960 1_455 S
H726 C718 0.930 . S
H727 C719 0.929 . S
H728 C736 0.929 . S
H729 C738 0.930 . S
H730 C740 0.930 . S
H731 C743 0.929 . S
H732 C746 0.930 . S
H733 C748 0.960 . S
H734 C748 0.960 . S
H735 C748 0.960 . S
C736 H728 0.929 . S
C736 C737 1.377 . S
C736 C738 1.384 . S
C737 C736 1.377 . S
C737 C743 1.390 1_455 S
C738 H729 0.930 . S
C738 C736 1.384 . S
C738 C739 1.372 1_455 S
C739 C738 1.372 1_655 S
C739 C740 1.400 . S
C739 C744 1.490 . S
C740 H730 0.930 . S
C740 C739 1.400 . S
C740 C743 1.386 . S
H741 C757 0.930 . S
H742 C758 0.931 . S
C743 H731 0.929 . S
C743 C737 1.390 1_655 S
C743 C740 1.386 . S
C744 C739 1.490 . S
C744 C746 1.395 1_655 S
C744 C747 1.403 . S
H745 C751 0.930 . S
C746 H732 0.930 . S
C746 C744 1.395 1_455 S
C746 C749 1.403 . S
C747 C744 1.403 . S
C747 C748 1.524 . S
C747 C751 1.400 . S
C748 H733 0.960 . S
C748 H734 0.960 . S
C748 H735 0.960 . S
C748 C747 1.524 . S
C749 C746 1.403 . S
C749 C750 1.392 1_455 S
C749 C753 1.495 . S
C750 C749 1.392 1_655 S
C750 C751 1.385 . S
C750 C752 1.478 . S
C751 H745 0.930 . S
C751 C747 1.400 . S
C751 C750 1.385 . S
C752 C750 1.478 . S
C752 C754 1.381 1_655 S
C752 C758 1.383 . S
C753 C749 1.495 . S
C753 H759 0.959 . S
C753 H760 0.961 . S
C753 H761 0.960 . S
C754 C752 1.381 1_455 S
C754 C755 1.389 1_455 S
C754 H762 0.930 . S
C755 C754 1.389 1_655 S
C755 C756 1.397 . S
C755 H763 0.922 1_655 S
C756 C755 1.397 . S
C756 C757 1.377 . S
C757 H741 0.930 . S
C757 C756 1.377 . S
C757 C758 1.379 . S
C758 H742 0.931 . S
C758 C752 1.383 . S
C758 C757 1.379 . S
H759 C753 0.959 . S
H760 C753 0.961 . S
H761 C753 0.960 . S
H762 C754 0.930 . S
H763 C755 0.922 1_455 S
H764 C772 0.929 . S
H765 C774 0.930 . S
H766 C776 0.930 . S
H767 C779 0.929 . S
H768 C782 0.930 . S
H769 C784 0.960 . S
H770 C784 0.960 . S
H771 C784 0.960 . S
C772 H764 0.929 . S
C772 C773 1.377 . S
C772 C774 1.384 . S
C773 C772 1.377 . S
C773 C779 1.390 . S
C774 H765 0.930 . S
C774 C772 1.384 . S
C774 C775 1.372 . S
C775 C774 1.372 . S
C775 C776 1.400 . S
C775 C780 1.490 . S
C776 H766 0.930 . S
C776 C775 1.400 . S
C776 C779 1.386 . S
H777 C793 0.930 1_565 S
H778 C794 0.931 . S
C779 H767 0.929 . S
C779 C773 1.390 . S
C779 C776 1.386 . S
C780 C775 1.490 . S
C780 C782 1.395 . S
C780 C783 1.403 . S
H781 C787 0.930 . S
C782 H768 0.930 . S
C782 C780 1.395 . S
C782 C785 1.403 . S
C783 C780 1.403 . S
C783 C784 1.524 . S
C783 C787 1.400 . S
C784 H769 0.960 . S
C784 H770 0.960 . S
C784 H771 0.960 . S
C784 C783 1.524 . S
C785 C782 1.403 . S
C785 C786 1.392 . S
C785 C789 1.495 . S
C786 C785 1.392 . S
C786 C787 1.385 . S
C786 C788 1.478 . S
C787 H781 0.930 . S
C787 C783 1.400 . S
C787 C786 1.385 . S
C788 C786 1.478 . S
C788 C790 1.381 . S
C788 C794 1.383 . S
C789 C785 1.495 . S
C789 H795 0.959 . S
C789 H796 0.961 . S
C789 H797 0.960 . S
C790 C788 1.381 . S
C790 C791 1.394 . S
C790 H798 0.930 . S
C791 C790 1.394 . S
C791 C792 1.383 . S
C791 H799 0.929 . S
C792 C791 1.383 . S
C792 C793 1.377 . S
C793 H777 0.930 1_545 S
C793 C792 1.377 . S
C793 C794 1.379 . S
C794 H778 0.931 . S
C794 C788 1.383 . S
C794 C793 1.379 . S
H795 C789 0.959 . S
H796 C789 0.961 . S
H797 C789 0.960 . S
H798 C790 0.930 . S
H799 C791 0.929 . S
H800 C808 0.929 . S
H801 C810 0.930 . S
H802 C812 0.930 . S
H803 C815 0.929 . S
H804 C818 0.930 . S
H805 C820 0.960 . S
H806 C820 0.960 . S
H807 C820 0.960 . S
C808 H800 0.929 . S
C808 C809 1.377 . S
C808 C810 1.384 . S
C809 C808 1.377 . S
C809 C815 1.390 . S
C810 H801 0.930 . S
C810 C808 1.384 . S
C810 C811 1.372 . S
C811 C810 1.372 . S
C811 C812 1.400 . S
C811 C816 1.490 . S
C812 H802 0.930 . S
C812 C811 1.400 . S
C812 C815 1.386 . S
H813 C829 0.930 . S
H814 C830 0.931 . S
C815 H803 0.929 . S
C815 C809 1.390 . S
C815 C812 1.386 . S
C816 C811 1.490 . S
C816 C818 1.395 . S
C816 C819 1.403 . S
H817 C823 0.930 . S
C818 H804 0.930 . S
C818 C816 1.395 . S
C818 C821 1.403 . S
C819 C816 1.403 . S
C819 C820 1.524 . S
C819 C823 1.400 . S
C820 H805 0.960 . S
C820 H806 0.960 . S
C820 H807 0.960 . S
C820 C819 1.524 . S
C821 C818 1.403 . S
C821 C822 1.392 . S
C821 C825 1.495 . S
C822 C821 1.392 . S
C822 C823 1.385 . S
C822 C824 1.478 . S
C823 H817 0.930 . S
C823 C819 1.400 . S
C823 C822 1.385 . S
C824 C822 1.478 . S
C824 C826 1.381 . S
C824 C830 1.383 . S
C825 C821 1.495 . S
C825 H831 0.959 . S
C825 H832 0.961 . S
C825 H833 0.960 . S
C826 C824 1.381 . S
C826 C827 1.394 . S
C826 H834 0.930 . S
C827 C826 1.394 . S
C827 C828 1.383 . S
C827 H835 0.929 . S
C828 C827 1.383 . S
C828 C829 1.377 . S
C829 H813 0.930 . S
C829 C828 1.377 . S
C829 C830 1.379 . S
C830 H814 0.931 . S
C830 C824 1.383 . S
C830 C829 1.379 . S
H831 C825 0.959 . S
H832 C825 0.961 . S
H833 C825 0.960 . S
H834 C826 0.930 . S
H835 C827 0.929 . S
H836 C844 0.929 . S
H837 C846 0.930 . S
H838 C848 0.930 . S
H839 C851 0.929 . S
H840 C854 0.930 . S
H841 C856 0.960 . S
H842 C856 0.960 . S
H843 C856 0.960 . S
C844 H836 0.929 . S
C844 C845 1.377 . S
C844 C846 1.384 . S
C845 C844 1.377 . S
C845 C851 1.390 . S
C846 H837 0.930 . S
C846 C844 1.384 . S
C846 C847 1.372 . S
C847 C846 1.372 . S
C847 C848 1.400 . S
C847 C852 1.490 . S
C848 H838 0.930 . S
C848 C847 1.400 . S
C848 C851 1.386 . S
H849 C865 0.930 . S
H850 C866 0.931 . S
C851 H839 0.929 . S
C851 C845 1.390 . S
C851 C848 1.386 . S
C852 C847 1.490 . S
C852 C854 1.395 . S
C852 C855 1.403 . S
H853 C859 0.930 . S
C854 H840 0.930 . S
C854 C852 1.395 . S
C854 C857 1.403 . S
C855 C852 1.403 . S
C855 C856 1.524 . S
C855 C859 1.400 . S
C856 H841 0.960 . S
C856 H842 0.960 . S
C856 H843 0.960 . S
C856 C855 1.524 . S
C857 C854 1.403 . S
C857 C858 1.392 . S
C857 C861 1.495 . S
C858 C857 1.392 . S
C858 C859 1.385 . S
C858 C860 1.478 . S
C859 H853 0.930 . S
C859 C855 1.400 . S
C859 C858 1.385 . S
C860 C858 1.478 . S
C860 C862 1.381 . S
C860 C866 1.383 . S
C861 C857 1.495 . S
C861 H867 0.959 . S
C861 H868 0.961 . S
C861 H869 0.960 . S
C862 C860 1.381 . S
C862 C863 1.394 . S
C862 H870 0.930 . S
C863 C862 1.394 . S
C863 C864 1.383 . S
C863 H871 0.929 . S
C864 C863 1.383 . S
C864 C865 1.377 . S
C865 H849 0.930 . S
C865 C864 1.377 . S
C865 C866 1.379 . S
C866 H850 0.931 . S
C866 C860 1.383 . S
C866 C865 1.379 . S
H867 C861 0.959 . S
H868 C861 0.961 . S
H869 C861 0.960 . S
H870 C862 0.930 . S
H871 C863 0.929 . S
H872 C880 0.934 . S
H873 C882 0.929 . S
H874 C884 0.930 . S
H875 C887 0.928 1_554 S
H876 C890 0.930 . S
H877 C892 0.960 . S
H878 C892 0.960 . S
H879 C892 0.960 . S
C880 H872 0.934 . S
C880 C881 1.381 . S
C880 C882 1.375 1_655 S
C881 C880 1.381 . S
C881 C887 1.392 . S
C882 H873 0.929 . S
C882 C880 1.375 1_455 S
C882 C883 1.377 . S
C883 C882 1.377 . S
C883 C884 1.400 . S
C883 C888 1.490 . S
C884 H874 0.930 . S
C884 C883 1.400 . S
C884 C887 1.383 1_455 S
H885 C901 0.930 . S
H886 C902 0.931 . S
C887 H875 0.928 1_556 S
C887 C881 1.392 . S
C887 C884 1.383 1_655 S
C888 C883 1.490 . S
C888 C890 1.395 1_455 S
C888 C891 1.403 . S
H889 C895 0.930 . S
C890 H876 0.930 . S
C890 C888 1.395 1_655 S
C890 C893 1.403 . S
C891 C888 1.403 . S
C891 C892 1.524 . S
C891 C895 1.400 . S
C892 H877 0.960 . S
C892 H878 0.960 . S
C892 H879 0.960 . S
C892 C891 1.524 . S
C893 C890 1.403 . S
C893 C894 1.392 1_655 S
C893 C897 1.495 . S
C894 C893 1.392 1_455 S
C894 C895 1.385 . S
C894 C896 1.478 . S
C895 H889 0.930 . S
C895 C891 1.400 . S
C895 C894 1.385 . S
C896 C894 1.478 . S
C896 C898 1.381 . S
C896 C902 1.383 . S
C897 C893 1.495 . S
C897 H903 0.959 . S
C897 H904 0.961 . S
C897 H905 0.960 . S
C898 C896 1.381 . S
C898 C899 1.394 . S
C898 H906 0.930 . S
C899 C898 1.394 . S
C899 C900 1.383 . S
C899 H907 0.929 . S
C900 C899 1.383 . S
C900 C901 1.377 . S
C901 H885 0.930 . S
C901 C900 1.377 . S
C901 C902 1.379 . S
C902 H886 0.931 . S
C902 C896 1.383 . S
C902 C901 1.379 . S
H903 C897 0.959 . S
H904 C897 0.961 . S
H905 C897 0.960 . S
H906 C898 0.930 . S
H907 C899 0.929 . S
H908 C916 0.929 . S
H909 C918 0.930 . S
H910 C920 0.930 . S
H911 C923 0.929 . S
H912 C926 0.930 . S
H913 C928 0.960 . S
H914 C928 0.960 . S
H915 C928 0.960 . S
C916 H908 0.929 . S
C916 C917 1.377 . S
C916 C918 1.384 . S
C917 C916 1.377 . S
C917 C923 1.390 . S
C918 H909 0.930 . S
C918 C916 1.384 . S
C918 C919 1.372 . S
C919 C918 1.372 . S
C919 C920 1.400 . S
C919 C924 1.490 . S
C920 H910 0.930 . S
C920 C919 1.400 . S
C920 C923 1.386 . S
H921 C937 0.930 . S
H922 C938 0.931 . S
C923 H911 0.929 . S
C923 C917 1.390 . S
C923 C920 1.386 . S
C924 C919 1.490 . S
C924 C926 1.395 . S
C924 C927 1.403 . S
H925 C931 0.930 . S
C926 H912 0.930 . S
C926 C924 1.395 . S
C926 C929 1.403 . S
C927 C924 1.403 . S
C927 C928 1.524 . S
C927 C931 1.400 . S
C928 H913 0.960 . S
C928 H914 0.960 . S
C928 H915 0.960 . S
C928 C927 1.524 . S
C929 C926 1.403 . S
C929 C930 1.392 . S
C929 C933 1.495 . S
C930 C929 1.392 . S
C930 C931 1.385 . S
C930 C932 1.478 . S
C931 H925 0.930 . S
C931 C927 1.400 . S
C931 C930 1.385 . S
C932 C930 1.478 . S
C932 C934 1.381 . S
C932 C938 1.383 1_565 S
C933 C929 1.495 . S
C933 H939 0.959 . S
C933 H940 0.961 . S
C933 H941 0.960 . S
C934 C932 1.381 . S
C934 C935 1.394 . S
C934 H942 0.930 . S
C935 C934 1.394 . S
C935 C936 1.383 1_565 S
C935 H943 0.929 . S
C936 C935 1.383 1_545 S
C936 C937 1.377 . S
C937 H921 0.930 . S
C937 C936 1.377 . S
C937 C938 1.379 . S
C938 H922 0.931 . S
C938 C932 1.383 1_545 S
C938 C937 1.379 . S
H939 C933 0.959 . S
H940 C933 0.961 . S
H941 C933 0.960 . S
H942 C934 0.930 . S
H943 C935 0.929 . S
H944 C952 0.929 . S
H945 C954 0.930 . S
H946 C956 0.930 . S
H947 C959 0.929 . S
H948 C962 0.930 . S
H949 C964 0.960 . S
H950 C964 0.960 . S
H951 C964 0.960 . S
C952 H944 0.929 . S
C952 C953 1.377 . S
C952 C954 1.384 . S
C953 C952 1.377 . S
C953 C959 1.390 . S
C954 H945 0.930 . S
C954 C952 1.384 . S
C954 C955 1.372 . S
C955 C954 1.372 . S
C955 C956 1.400 . S
C955 C960 1.490 . S
C956 H946 0.930 . S
C956 C955 1.400 . S
C956 C959 1.386 . S
H957 C973 0.930 . S
H958 C974 0.931 . S
C959 H947 0.929 . S
C959 C953 1.390 . S
C959 C956 1.386 . S
C960 C955 1.490 . S
C960 C962 1.395 . S
C960 C963 1.403 . S
H961 C967 0.930 . S
C962 H948 0.930 . S
C962 C960 1.395 . S
C962 C965 1.403 . S
C963 C960 1.403 . S
C963 C964 1.524 . S
C963 C967 1.400 . S
C964 H949 0.960 . S
C964 H950 0.960 . S
C964 H951 0.960 . S
C964 C963 1.524 . S
C965 C962 1.403 . S
C965 C966 1.392 . S
C965 C969 1.495 . S
C966 C965 1.392 . S
C966 C967 1.385 . S
C966 C968 1.478 . S
C967 H961 0.930 . S
C967 C963 1.400 . S
C967 C966 1.385 . S
C968 C966 1.478 . S
C968 C970 1.381 . S
C968 C974 1.383 . S
C969 C965 1.495 . S
C969 H975 0.959 . S
C969 H976 0.961 . S
C969 H977 0.960 . S
C970 C968 1.381 . S
C970 C971 1.394 . S
C970 H978 0.930 . S
C971 C970 1.394 . S
C971 C972 1.383 . S
C971 H979 0.929 . S
C972 C971 1.383 . S
C972 C973 1.377 . S
C973 H957 0.930 . S
C973 C972 1.377 . S
C973 C974 1.379 . S
C974 H958 0.931 . S
C974 C968 1.383 . S
C974 C973 1.379 . S
H975 C969 0.959 . S
H976 C969 0.961 . S
H977 C969 0.960 . S
H978 C970 0.930 . S
H979 C971 0.929 . S
H980 C988 0.929 . S
H981 C990 0.930 . S
H982 C992 0.930 . S
H983 C995 0.929 . S
H984 C998 0.930 . S
H985 C1000 0.960 . S
H986 C1000 0.960 . S
H987 C1000 0.960 . S
C988 H980 0.929 . S
C988 C989 1.377 . S
C988 C990 1.384 . S
C989 C988 1.377 . S
C989 C995 1.390 . S
C990 H981 0.930 . S
C990 C988 1.384 . S
C990 C991 1.372 . S
C991 C990 1.372 . S
C991 C992 1.400 . S
C991 C996 1.490 . S
C992 H982 0.930 . S
C992 C991 1.400 . S
C992 C995 1.386 . S
H993 C1009 0.930 . S
H994 C1010 0.931 . S
C995 H983 0.929 . S
C995 C989 1.390 . S
C995 C992 1.386 . S
C996 C991 1.490 . S
C996 C998 1.395 . S
C996 C999 1.403 . S
H997 C1003 0.930 . S
C998 H984 0.930 . S
C998 C996 1.395 . S
C998 C1001 1.403 . S
C999 C996 1.403 . S
C999 C1000 1.524 . S
C999 C1003 1.400 . S
C1000 H985 0.960 . S
C1000 H986 0.960 . S
C1000 H987 0.960 . S
C1000 C999 1.524 . S
C1001 C998 1.403 . S
C1001 C1002 1.392 . S
C1001 C1005 1.495 . S
C1002 C1001 1.392 . S
C1002 C1003 1.385 . S
C1002 C1004 1.478 . S
C1003 H997 0.930 . S
C1003 C999 1.400 . S
C1003 C1002 1.385 . S
C1004 C1002 1.478 . S
C1004 C1006 1.381 . S
C1004 C1010 1.383 . S
C1005 C1001 1.495 . S
C1005 H1011 0.959 . S
C1005 H1012 0.961 . S
C1005 H1013 0.960 . S
C1006 C1004 1.381 . S
C1006 C1007 1.394 . S
C1006 H1014 0.930 . S
C1007 C1006 1.394 . S
C1007 C1008 1.383 . S
C1007 H1015 0.929 . S
C1008 C1007 1.383 . S
C1008 C1009 1.377 . S
C1009 H993 0.930 . S
C1009 C1008 1.377 . S
C1009 C1010 1.379 . S
C1010 H994 0.931 . S
C1010 C1004 1.383 . S
C1010 C1009 1.379 . S
H1011 C1005 0.959 . S
H1012 C1005 0.961 . S
H1013 C1005 0.960 . S
H1014 C1006 0.930 . S
H1015 C1007 0.929 . S
H1016 C1024 0.929 . S
H1017 C1026 0.930 . S
H1018 C1028 0.930 . S
H1019 C1031 0.929 . S
H1020 C1034 0.930 . S
H1021 C1036 0.960 . S
H1022 C1036 0.960 . S
H1023 C1036 0.960 1_554 S
C1024 H1016 0.929 . S
C1024 C1025 1.377 . S
C1024 C1026 1.384 . S
C1025 C1024 1.377 . S
C1025 C1031 1.390 1_455 S
C1026 H1017 0.930 . S
C1026 C1024 1.384 . S
C1026 C1027 1.372 . S
C1027 C1026 1.372 . S
C1027 C1028 1.400 1_455 S
C1027 C1032 1.490 . S
C1028 H1018 0.930 . S
C1028 C1027 1.400 1_655 S
C1028 C1031 1.386 . S
H1029 C1045 0.930 . S
H1030 C1046 0.931 . S
C1031 H1019 0.929 . S
C1031 C1025 1.390 1_655 S
C1031 C1028 1.386 . S
C1032 C1027 1.490 . S
C1032 C1034 1.395 . S
C1032 C1035 1.403 1_455 S
H1033 C1039 0.939 . S
C1034 H1020 0.930 . S
C1034 C1032 1.395 . S
C1034 C1037 1.403 . S
C1035 C1032 1.403 1_655 S
C1035 C1036 1.524 1_554 S
C1035 C1039 1.401 1_554 S
C1036 H1021 0.960 . S
C1036 H1022 0.960 . S
C1036 H1023 0.960 1_556 S
C1036 C1035 1.524 1_556 S
C1037 C1034 1.403 . S
C1037 C1038 1.392 . S
C1037 C1041 1.495 . S
C1038 C1037 1.392 . S
C1038 C1039 1.376 1_454 S
C1038 C1040 1.478 1_554 S
C1039 H1033 0.939 . S
C1039 C1035 1.401 1_556 S
C1039 C1038 1.376 1_656 S
C1040 C1038 1.478 1_556 S
C1040 C1042 1.381 . S
C1040 C1046 1.383 1_455 S
C1041 C1037 1.495 . S
C1041 H1047 0.959 . S
C1041 H1048 0.961 . S
C1041 H1049 0.960 . S
C1042 C1040 1.381 . S
C1042 C1043 1.394 . S
C1042 H1050 0.930 . S
C1043 C1042 1.394 . S
C1043 C1044 1.383 . S
C1043 H1051 0.929 . S
C1044 C1043 1.383 . S
C1044 C1045 1.377 1_455 S
C1045 H1029 0.930 . S
C1045 C1044 1.377 1_655 S
C1045 C1046 1.379 . S
C1046 H1030 0.931 . S
C1046 C1040 1.383 1_655 S
C1046 C1045 1.379 . S
H1047 C1041 0.959 . S
H1048 C1041 0.961 . S
H1049 C1041 0.960 . S
H1050 C1042 0.930 . S
H1051 C1043 0.929 . S
H1052 C1060 0.929 . S
H1053 C1062 0.930 . S
H1054 C1064 0.930 . S
H1055 C1067 0.929 . S
H1056 C1070 0.930 . S
H1057 C1072 0.960 1_556 S
H1058 C1072 0.960 . S
H1059 C1072 0.960 . S
C1060 H1052 0.929 . S
C1060 C1061 1.377 . S
C1060 C1062 1.384 . S
C1061 C1060 1.377 . S
C1061 C1067 1.390 . S
C1062 H1053 0.930 . S
C1062 C1060 1.384 . S
C1062 C1063 1.372 . S
C1063 C1062 1.372 . S
C1063 C1064 1.400 . S
C1063 C1068 1.490 . S
C1064 H1054 0.930 . S
C1064 C1063 1.400 . S
C1064 C1067 1.386 . S
H1065 C1081 0.930 . S
H1066 C1082 0.931 . S
C1067 H1055 0.929 . S
C1067 C1061 1.390 . S
C1067 C1064 1.386 . S
C1068 C1063 1.490 . S
C1068 C1070 1.395 . S
C1068 C1071 1.403 . S
H1069 C1075 0.930 1_556 S
C1070 H1056 0.930 . S
C1070 C1068 1.395 . S
C1070 C1073 1.403 . S
C1071 C1068 1.403 . S
C1071 C1072 1.524 . S
C1071 C1075 1.400 . S
C1072 H1057 0.960 1_554 S
C1072 H1058 0.960 . S
C1072 H1059 0.960 . S
C1072 C1071 1.524 . S
C1073 C1070 1.403 . S
C1073 C1074 1.392 . S
C1073 C1077 1.495 . S
C1074 C1073 1.392 . S
C1074 C1075 1.385 . S
C1074 C1076 1.478 1_554 S
C1075 H1069 0.930 1_554 S
C1075 C1071 1.400 . S
C1075 C1074 1.385 . S
C1076 C1074 1.478 1_556 S
C1076 C1078 1.381 1_556 S
C1076 C1082 1.383 . S
C1077 C1073 1.495 . S
C1077 H1083 0.959 . S
C1077 H1084 0.961 . S
C1077 H1085 0.960 . S
C1078 C1076 1.381 1_554 S
C1078 C1079 1.394 1_554 S
C1078 H1086 0.930 . S
C1079 C1078 1.394 1_556 S
C1079 C1080 1.383 . S
C1079 H1087 0.929 . S
C1080 C1079 1.383 . S
C1080 C1081 1.377 . S
C1081 H1065 0.930 . S
C1081 C1080 1.377 . S
C1081 C1082 1.379 . S
C1082 H1066 0.931 . S
C1082 C1076 1.383 . S
C1082 C1081 1.379 . S
H1083 C1077 0.959 . S
H1084 C1077 0.961 . S
H1085 C1077 0.960 . S
H1086 C1078 0.930 . S
H1087 C1079 0.929 . S
H1088 C1096 0.929 . S
H1089 C1098 0.930 . S
H1090 C1100 0.930 . S
H1091 C1103 0.929 . S
H1092 C1106 0.930 . S
H1093 C1108 0.960 . S
H1094 C1108 0.960 . S
H1095 C1108 0.960 . S
C1096 H1088 0.929 . S
C1096 C1097 1.377 . S
C1096 C1098 1.384 . S
C1097 C1096 1.377 . S
C1097 C1103 1.390 . S
C1098 H1089 0.930 . S
C1098 C1096 1.384 . S
C1098 C1099 1.372 . S
C1099 C1098 1.372 . S
C1099 C1100 1.400 . S
C1099 C1104 1.490 . S
C1100 H1090 0.930 . S
C1100 C1099 1.400 . S
C1100 C1103 1.386 . S
H1101 C1117 0.930 . S
H1102 C1118 0.931 . S
C1103 H1091 0.929 . S
C1103 C1097 1.390 . S
C1103 C1100 1.386 . S
C1104 C1099 1.490 . S
C1104 C1106 1.395 . S
C1104 C1107 1.403 . S
H1105 C1111 0.930 . S
C1106 H1092 0.930 . S
C1106 C1104 1.395 . S
C1106 C1109 1.403 1_554 S
C1107 C1104 1.403 . S
C1107 C1108 1.524 . S
C1107 C1111 1.400 1_554 S
C1108 H1093 0.960 . S
C1108 H1094 0.960 . S
C1108 H1095 0.960 . S
C1108 C1107 1.524 . S
C1109 C1106 1.403 1_556 S
C1109 C1110 1.392 . S
C1109 C1113 1.495 . S
C1110 C1109 1.392 . S
C1110 C1111 1.385 . S
C1110 C1112 1.478 . S
C1111 H1105 0.930 . S
C1111 C1107 1.400 1_556 S
C1111 C1110 1.385 . S
C1112 C1110 1.478 . S
C1112 C1114 1.381 . S
C1112 C1118 1.383 . S
C1113 C1109 1.495 . S
C1113 H1119 0.959 . S
C1113 H1120 0.961 . S
C1113 H1121 0.960 . S
C1114 C1112 1.381 . S
C1114 C1115 1.394 . S
C1114 H1122 0.930 . S
C1115 C1114 1.394 . S
C1115 C1116 1.383 . S
C1115 H1123 0.929 . S
C1116 C1115 1.383 . S
C1116 C1117 1.377 . S
C1117 H1101 0.930 . S
C1117 C1116 1.377 . S
C1117 C1118 1.379 . S
C1118 H1102 0.931 . S
C1118 C1112 1.383 . S
C1118 C1117 1.379 . S
H1119 C1113 0.959 . S
H1120 C1113 0.961 . S
H1121 C1113 0.960 . S
H1122 C1114 0.930 . S
H1123 C1115 0.929 . S
H1124 C1132 0.929 . S
H1125 C1134 0.930 . S
H1126 C1136 0.930 . S
H1127 C1139 0.929 . S
H1128 C1142 0.930 . S
H1129 C1144 0.960 . S
H1130 C1144 0.960 . S
H1131 C1144 0.960 . S
C1132 H1124 0.929 . S
C1132 C1133 1.377 . S
C1132 C1134 1.384 . S
C1133 C1132 1.377 . S
C1133 C1139 1.390 . S
C1134 H1125 0.930 . S
C1134 C1132 1.384 . S
C1134 C1135 1.372 . S
C1135 C1134 1.372 . S
C1135 C1136 1.400 . S
C1135 C1140 1.490 . S
C1136 H1126 0.930 . S
C1136 C1135 1.400 . S
C1136 C1139 1.386 . S
H1137 C1153 0.930 . S
H1138 C1154 0.931 . S
C1139 H1127 0.929 . S
C1139 C1133 1.390 . S
C1139 C1136 1.386 . S
C1140 C1135 1.490 . S
C1140 C1142 1.395 . S
C1140 C1143 1.403 . S
H1141 C1147 0.930 . S
C1142 H1128 0.930 . S
C1142 C1140 1.395 . S
C1142 C1145 1.403 1_554 S
C1143 C1140 1.403 . S
C1143 C1144 1.524 . S
C1143 C1147 1.400 1_554 S
C1144 H1129 0.960 . S
C1144 H1130 0.960 . S
C1144 H1131 0.960 . S
C1144 C1143 1.524 . S
C1145 C1142 1.403 1_556 S
C1145 C1146 1.392 . S
C1145 C1149 1.495 . S
C1146 C1145 1.392 . S
C1146 C1147 1.385 . S
C1146 C1148 1.478 . S
C1147 H1141 0.930 . S
C1147 C1143 1.400 1_556 S
C1147 C1146 1.385 . S
C1148 C1146 1.478 . S
C1148 C1150 1.381 . S
C1148 C1154 1.383 . S
C1149 C1145 1.495 . S
C1149 H1155 0.959 . S
C1149 H1156 0.961 . S
C1149 H1157 0.960 . S
C1150 C1148 1.381 . S
C1150 C1151 1.394 . S
C1150 H1158 0.930 . S
C1151 C1150 1.394 . S
C1151 C1152 1.383 . S
C1151 H1159 0.929 . S
C1152 C1151 1.383 . S
C1152 C1153 1.377 . S
C1153 H1137 0.930 . S
C1153 C1152 1.377 . S
C1153 C1154 1.379 . S
C1154 H1138 0.931 . S
C1154 C1148 1.383 . S
C1154 C1153 1.379 . S
H1155 C1149 0.959 . S
H1156 C1149 0.961 . S
H1157 C1149 0.960 . S
H1158 C1150 0.930 . S
H1159 C1151 0.929 . S
H1160 C1168 0.929 . S
H1161 C1170 0.930 . S
H1162 C1172 0.924 1_455 S
H1163 C1175 0.937 . S
H1164 C1178 0.930 . S
H1165 C1180 0.960 . S
H1166 C1180 0.960 . S
H1167 C1180 0.960 . S
C1168 H1160 0.929 . S
C1168 C1169 1.377 . S
C1168 C1170 1.384 . S
C1169 C1168 1.377 . S
C1169 C1175 1.385 1_655 S
C1170 H1161 0.930 . S
C1170 C1168 1.384 . S
C1170 C1171 1.372 . S
C1171 C1170 1.372 . S
C1171 C1172 1.405 . S
C1171 C1176 1.490 . S
C1172 H1162 0.924 1_655 S
C1172 C1171 1.405 . S
C1172 C1175 1.386 1_655 S
H1173 C1189 0.944 . S
H1174 C1190 0.931 1_455 S
C1175 H1163 0.937 . S
C1175 C1169 1.385 1_455 S
C1175 C1172 1.386 1_455 S
C1176 C1171 1.490 . S
C1176 C1178 1.395 1_655 S
C1176 C1179 1.403 . S
H1177 C1183 0.930 . S
C1178 H1164 0.930 . S
C1178 C1176 1.395 1_455 S
C1178 C1181 1.403 . S
C1179 C1176 1.403 . S
C1179 C1180 1.524 . S
C1179 C1183 1.400 . S
C1180 H1165 0.960 . S
C1180 H1166 0.960 . S
C1180 H1167 0.960 . S
C1180 C1179 1.524 . S
C1181 C1178 1.403 . S
C1181 C1182 1.392 1_455 S
C1181 C1185 1.495 . S
C1182 C1181 1.392 1_655 S
C1182 C1183 1.385 . S
C1182 C1184 1.478 . S
C1183 H1177 0.930 . S
C1183 C1179 1.400 . S
C1183 C1182 1.385 . S
C1184 C1182 1.478 . S
C1184 C1186 1.381 . S
C1184 C1190 1.383 . S
C1185 C1181 1.495 . S
C1185 H1191 0.959 . S
C1185 H1192 0.961 . S
C1185 H1193 0.960 . S
C1186 C1184 1.381 . S
C1186 C1187 1.394 . S
C1186 H1194 0.930 . S
C1187 C1186 1.394 . S
C1187 C1188 1.383 . S
C1187 H1195 0.929 . S
C1188 C1187 1.383 . S
C1188 C1189 1.377 . S
C1189 H1173 0.944 . S
C1189 C1188 1.377 . S
C1189 C1190 1.379 . S
C1190 H1174 0.931 1_655 S
C1190 C1184 1.383 . S
C1190 C1189 1.379 . S
H1191 C1185 0.959 . S
H1192 C1185 0.961 . S
H1193 C1185 0.960 . S
H1194 C1186 0.930 . S
H1195 C1187 0.929 . S
H1196 C1204 0.929 . S
H1197 C1206 0.930 . S
H1198 C1208 0.930 . S
H1199 C1211 0.929 . S
H1200 C1214 0.930 . S
H1201 C1216 0.960 . S
H1202 C1216 0.960 . S
H1203 C1216 0.960 . S
C1204 H1196 0.929 . S
C1204 C1205 1.377 . S
C1204 C1206 1.384 . S
C1205 C1204 1.377 . S
C1205 C1211 1.390 . S
C1206 H1197 0.930 . S
C1206 C1204 1.384 . S
C1206 C1207 1.372 . S
C1207 C1206 1.372 . S
C1207 C1208 1.400 . S
C1207 C1212 1.490 . S
C1208 H1198 0.930 . S
C1208 C1207 1.400 . S
C1208 C1211 1.386 . S
H1209 C1225 0.930 . S
H1210 C1226 0.931 . S
C1211 H1199 0.929 . S
C1211 C1205 1.390 . S
C1211 C1208 1.386 . S
C1212 C1207 1.490 . S
C1212 C1214 1.395 . S
C1212 C1215 1.403 . S
H1213 C1219 0.930 . S
C1214 H1200 0.930 . S
C1214 C1212 1.395 . S
C1214 C1217 1.403 . S
C1215 C1212 1.403 . S
C1215 C1216 1.524 . S
C1215 C1219 1.400 . S
C1216 H1201 0.960 . S
C1216 H1202 0.960 . S
C1216 H1203 0.960 . S
C1216 C1215 1.524 . S
C1217 C1214 1.403 . S
C1217 C1218 1.392 . S
C1217 C1221 1.495 . S
C1218 C1217 1.392 . S
C1218 C1219 1.385 . S
C1218 C1220 1.478 . S
C1219 H1213 0.930 . S
C1219 C1215 1.400 . S
C1219 C1218 1.385 . S
C1220 C1218 1.478 . S
C1220 C1222 1.381 . S
C1220 C1226 1.383 . S
C1221 C1217 1.495 . S
C1221 H1227 0.959 . S
C1221 H1228 0.961 1_565 S
C1221 H1229 0.960 . S
C1222 C1220 1.381 . S
C1222 C1223 1.394 . S
C1222 H1230 0.930 . S
C1223 C1222 1.394 . S
C1223 C1224 1.383 . S
C1223 H1231 0.929 . S
C1224 C1223 1.383 . S
C1224 C1225 1.377 . S
C1225 H1209 0.930 . S
C1225 C1224 1.377 . S
C1225 C1226 1.379 . S
C1226 H1210 0.931 . S
C1226 C1220 1.383 . S
C1226 C1225 1.379 . S
H1227 C1221 0.959 . S
H1228 C1221 0.961 1_545 S
H1229 C1221 0.960 . S
H1230 C1222 0.930 . S
H1231 C1223 0.929 . S
H1232 C1240 0.929 . S
H1233 C1242 0.930 . S
H1234 C1244 0.930 . S
H1235 C1247 0.929 . S
H1236 C1250 0.930 . S
H1237 C1252 0.960 . S
H1238 C1252 0.960 . S
H1239 C1252 0.960 . S
C1240 H1232 0.929 . S
C1240 C1241 1.377 . S
C1240 C1242 1.384 . S
C1241 C1240 1.377 . S
C1241 C1247 1.390 . S
C1242 H1233 0.930 . S
C1242 C1240 1.384 . S
C1242 C1243 1.372 . S
C1243 C1242 1.372 . S
C1243 C1244 1.400 . S
C1243 C1248 1.490 . S
C1244 H1234 0.930 . S
C1244 C1243 1.400 . S
C1244 C1247 1.386 . S
H1245 C1261 0.930 . S
H1246 C1262 0.931 . S
C1247 H1235 0.929 . S
C1247 C1241 1.390 . S
C1247 C1244 1.386 . S
C1248 C1243 1.490 . S
C1248 C1250 1.395 . S
C1248 C1251 1.403 . S
H1249 C1255 0.930 . S
C1250 H1236 0.930 . S
C1250 C1248 1.395 . S
C1250 C1253 1.403 . S
C1251 C1248 1.403 . S
C1251 C1252 1.524 . S
C1251 C1255 1.400 . S
C1252 H1237 0.960 . S
C1252 H1238 0.960 . S
C1252 H1239 0.960 . S
C1252 C1251 1.524 . S
C1253 C1250 1.403 . S
C1253 C1254 1.392 . S
C1253 C1257 1.495 . S
C1254 C1253 1.392 . S
C1254 C1255 1.385 . S
C1254 C1256 1.478 . S
C1255 H1249 0.930 . S
C1255 C1251 1.400 . S
C1255 C1254 1.385 . S
C1256 C1254 1.478 . S
C1256 C1258 1.381 . S
C1256 C1262 1.383 . S
C1257 C1253 1.495 . S
C1257 H1263 0.959 . S
C1257 H1264 0.961 . S
C1257 H1265 0.960 . S
C1258 C1256 1.381 . S
C1258 C1259 1.394 . S
C1258 H1266 0.930 . S
C1259 C1258 1.394 . S
C1259 C1260 1.383 . S
C1259 H1267 0.929 . S
C1260 C1259 1.383 . S
C1260 C1261 1.377 . S
C1261 H1245 0.930 . S
C1261 C1260 1.377 . S
C1261 C1262 1.379 . S
C1262 H1246 0.931 . S
C1262 C1256 1.383 . S
C1262 C1261 1.379 . S
H1263 C1257 0.959 . S
H1264 C1257 0.961 . S
H1265 C1257 0.960 . S
H1266 C1258 0.930 . S
H1267 C1259 0.929 . S
H1268 C1276 0.929 . S
H1269 C1278 0.930 . S
H1270 C1280 0.930 . S
H1271 C1283 0.929 . S
H1272 C1286 0.930 . S
H1273 C1288 0.960 . S
H1274 C1288 0.960 . S
H1275 C1288 0.960 . S
C1276 H1268 0.929 . S
C1276 C1277 1.377 . S
C1276 C1278 1.384 . S
C1277 C1276 1.377 . S
C1277 C1283 1.390 . S
C1278 H1269 0.930 . S
C1278 C1276 1.384 . S
C1278 C1279 1.372 . S
C1279 C1278 1.372 . S
C1279 C1280 1.400 . S
C1279 C1284 1.490 . S
C1280 H1270 0.930 . S
C1280 C1279 1.400 . S
C1280 C1283 1.386 . S
H1281 C1297 0.930 . S
H1282 C1298 0.931 . S
C1283 H1271 0.929 . S
C1283 C1277 1.390 . S
C1283 C1280 1.386 . S
C1284 C1279 1.490 . S
C1284 C1286 1.395 . S
C1284 C1287 1.403 . S
H1285 C1291 0.930 . S
C1286 H1272 0.930 . S
C1286 C1284 1.395 . S
C1286 C1289 1.403 . S
C1287 C1284 1.403 . S
C1287 C1288 1.524 . S
C1287 C1291 1.400 . S
C1288 H1273 0.960 . S
C1288 H1274 0.960 . S
C1288 H1275 0.960 . S
C1288 C1287 1.524 . S
C1289 C1286 1.403 . S
C1289 C1290 1.392 . S
C1289 C1293 1.495 . S
C1290 C1289 1.392 . S
C1290 C1291 1.385 . S
C1290 C1292 1.478 . S
C1291 H1285 0.930 . S
C1291 C1287 1.400 . S
C1291 C1290 1.385 . S
C1292 C1290 1.478 . S
C1292 C1294 1.381 . S
C1292 C1298 1.383 . S
C1293 C1289 1.495 . S
C1293 H1299 0.959 . S
C1293 H1300 0.961 . S
C1293 H1301 0.960 . S
C1294 C1292 1.381 . S
C1294 C1295 1.394 . S
C1294 H1302 0.930 . S
C1295 C1294 1.394 . S
C1295 C1296 1.383 . S
C1295 H1303 0.929 . S
C1296 C1295 1.383 . S
C1296 C1297 1.377 . S
C1297 H1281 0.930 . S
C1297 C1296 1.377 . S
C1297 C1298 1.379 . S
C1298 H1282 0.931 . S
C1298 C1292 1.383 . S
C1298 C1297 1.379 . S
H1299 C1293 0.959 . S
H1300 C1293 0.961 . S
H1301 C1293 0.960 . S
H1302 C1294 0.930 . S
H1303 C1295 0.929 . S
C449 C255 1.800 . S
C468 C330 1.826 . S
C504 C360 1.697 . S
C485 C295 1.678 . S
C540 N394 1.750 . S
C521 C175 1.772 . S
C576 N424 1.264 . S
C557 C215 1.327 1_655 S
C612 C321 1.818 1_565 S
C593 C95 1.795 . S
C629 C135 1.678 . S
C648 C351 1.682 . S
C665 C15 1.767 . S
C684 N386 1.779 . S
C701 C55 1.330 . S
C720 N416 1.264 . S
C756 C336 0.735 . S
C737 C221 0.811 . S
C792 C366 0.262 . S
C773 C261 0.389 . S
C828 C407 0.241 . S
C809 C301 0.386 . S
C845 C181 0.326 . S
C864 C437 0.332 . S
C881 C61 0.869 1_655 S
C900 C347 0.729 . S
C936 C377 0.362 . S
C917 C101 0.636 . S
C972 C396 0.270 . S
C953 C141 0.333 . S
C989 C21 0.627 . S
C1008 C426 0.343 . S
C1025 C202 1.709 . S
C1044 N326 1.738 . S
C1061 C242 1.882 . S
C1080 N356 1.876 . S
C1116 C381 1.864 . S
C1097 C282 1.799 . S
C1152 C411 2.197 . S
C1133 C162 2.163 . S
C1169 C42 1.721 1_655 S
C1188 N334 1.721 . S
C1224 N364 1.873 . S
C1205 C82 1.833 . S
C1260 C390 1.861 . S
C1241 C122 1.831 . S
C1277 C2 2.080 . S
C1296 C420 2.214 . S
