# Generated by pormake.
# Topology anh, (6,3)-cn, num edge types: 1
# Building blocks:
#     Node 0, Type 0, BuildingBlock: BETFEN_clean_sbu_0, # of connection points: 6
#     Node 1, Type 0, BuildingBlock: BETFEN_clean_sbu_0, # of connection points: 6
#     Node 2, Type 0, BuildingBlock: BETFEN_clean_sbu_0, # of connection points: 6
#     Node 3, Type 1, BuildingBlock: OLANEW_clean_sbu_2, # of connection points: 3
#     Node 4, Type 1, BuildingBlock: OLANEW_clean_sbu_2, # of connection points: 3
#     Node 5, Type 1, BuildingBlock: OLANEW_clean_sbu_2, # of connection points: 3
#     Node 6, Type 1, BuildingBlock: OLANEW_clean_sbu_2, # of connection points: 3
#     Node 7, Type 1, BuildingBlock: OLANEW_clean_sbu_2, # of connection points: 3
#     Node 8, Type 1, BuildingBlock: OLANEW_clean_sbu_2, # of connection points: 3
#     Edge 9, Type (0, 1), BuildingBlock: UVAHIK_clean_linker_0, # of connection points: 2
#     Edge 10, Type (0, 1), BuildingBlock: UVAHIK_clean_linker_0, # of connection points: 2
#     Edge 11, Type (0, 1), BuildingBlock: UVAHIK_clean_linker_0, # of connection points: 2
#     Edge 12, Type (0, 1), BuildingBlock: UVAHIK_clean_linker_0, # of connection points: 2
#     Edge 13, Type (0, 1), BuildingBlock: UVAHIK_clean_linker_0, # of connection points: 2
#     Edge 14, Type (0, 1), BuildingBlock: UVAHIK_clean_linker_0, # of connection points: 2
#     Edge 15, Type (0, 1), BuildingBlock: UVAHIK_clean_linker_0, # of connection points: 2
#     Edge 16, Type (0, 1), BuildingBlock: UVAHIK_clean_linker_0, # of connection points: 2
#     Edge 17, Type (0, 1), BuildingBlock: UVAHIK_clean_linker_0, # of connection points: 2
#     Edge 18, Type (0, 1), BuildingBlock: UVAHIK_clean_linker_0, # of connection points: 2
#     Edge 19, Type (0, 1), BuildingBlock: UVAHIK_clean_linker_0, # of connection points: 2
#     Edge 20, Type (0, 1), BuildingBlock: UVAHIK_clean_linker_0, # of connection points: 2
#     Edge 21, Type (0, 1), BuildingBlock: UVAHIK_clean_linker_0, # of connection points: 2
#     Edge 22, Type (0, 1), BuildingBlock: UVAHIK_clean_linker_0, # of connection points: 2
#     Edge 23, Type (0, 1), BuildingBlock: UVAHIK_clean_linker_0, # of connection points: 2
#     Edge 24, Type (0, 1), BuildingBlock: UVAHIK_clean_linker_0, # of connection points: 2
#     Edge 25, Type (0, 1), BuildingBlock: UVAHIK_clean_linker_0, # of connection points: 2
#     Edge 26, Type (0, 1), BuildingBlock: UVAHIK_clean_linker_0, # of connection points: 2
# Relax obj value: 0.114
# Max RMSD: 0.153
# Mean RMSD: 0.109
data_MOF--net-anh--node1-BETFEN_clean_sbu_0--node2-OLANEW_clean_sbu_2--edge1-UVAHIK_clean_linker_0
_symmetry_space_group_name_H-M    P1
_symmetry_Int_Tables_number       1
_symmetry_cell_setting            triclinic
loop_
_symmetry_equiv_pos_as_xyz
'x, y, z'
_cell_length_a     42.075487
_cell_length_b     46.295659
_cell_length_c     65.085185
_cell_angle_alpha  89.492391
_cell_angle_beta   92.458866
_cell_angle_gamma 110.54444
loop_
_atom_site_label
_atom_site_type_symbol
_atom_site_fract_x
_atom_site_fract_y
_atom_site_fract_z
_atom_type_partial_charge
Pr0 Pr 0.00642 0.50172 0.1675 0.0
Pr1 Pr 0.02932 0.56797 0.15335 0.0
C2 C 0.97697 0.44682 0.18578 0.0
C3 C 0.94415 0.42073 0.1856 0.0
C4 C 0.94195 0.39216 0.17731 0.0
C5 C 0.91155 0.36694 0.1775 0.0
C6 C 0.88262 0.36955 0.18619 0.0
C7 C 0.88479 0.39824 0.1944 0.0
C8 C 0.91519 0.42356 0.1941 0.0
C9 C 0.01424 0.5083 0.12524 0.0
C10 C 0.94804 0.53353 0.15499 0.0
C11 C 0.05867 0.62342 0.13569 0.0
C12 C 0.09097 0.64946 0.13772 0.0
C13 C 0.11751 0.64774 0.15089 0.0
C14 C 0.14761 0.67319 0.15339 0.0
C15 C 0.1516 0.70082 0.1428 0.0
C16 C 0.12501 0.70215 0.12938 0.0
C17 C 0.09497 0.67668 0.12689 0.0
C18 C 0.02261 0.56068 0.19576 0.0
C19 C 0.08774 0.53581 0.16468 0.0
O20 O 0.97825 0.47307 0.19379 0.0
O21 O 0.99491 0.45023 0.16942 0.0
O22 O 1.00062 0.52303 0.13588 0.0
O23 O 0.02267 0.48832 0.13614 0.0
O24 O 0.97167 0.55516 0.14526 0.0
O25 O 0.95562 0.51274 0.16625 0.0
O26 O 0.06003 0.59773 0.12826 0.0
O27 O 0.0388 0.61908 0.15119 0.0
O28 O 0.03623 0.54662 0.18463 0.0
O29 O 0.01283 0.58018 0.18521 0.0
O30 O 0.06446 0.51399 0.17453 0.0
O31 O 0.07983 0.55678 0.15384 0.0
H32 H 0.96386 0.38926 0.17072 0.0
H33 H 0.91073 0.34539 0.17073 0.0
H34 H 0.8632 0.40103 0.20147 0.0
H35 H 0.91603 0.44521 0.20072 0.0
H36 H 0.11473 0.62687 0.15946 0.0
H37 H 0.16739 0.67149 0.16402 0.0
H38 H 0.12742 0.7229 0.12078 0.0
H39 H 0.07471 0.67834 0.11663 0.0
Pr40 Pr 0.54746 0.01852 0.51853 0.0
Pr41 Pr 0.47205 0.99506 0.5248 0.0
C42 C 0.61098 0.0483 0.50611 0.0
C43 C 0.63416 0.08043 0.5043 0.0
C44 C 0.66931 0.08735 0.50666 0.0
C45 C 0.69163 0.11784 0.50529 0.0
C46 C 0.67913 0.14199 0.50161 0.0
C47 C 0.64379 0.1349 0.4993 0.0
C48 C 0.62153 0.1044 0.5006 0.0
C49 C 0.53033 0.00784 0.5594 0.0
C50 C 0.50774 0.06954 0.52444 0.0
C51 C 0.40795 0.9649 0.53613 0.0
C52 C 0.38286 0.93366 0.53332 0.0
C53 C 0.39011 0.91172 0.52152 0.0
C54 C 0.3659 0.88217 0.51859 0.0
C55 C 0.33398 0.87405 0.52742 0.0
C56 C 0.32705 0.89616 0.5394 0.0
C57 C 0.3513 0.92571 0.5423 0.0
C58 C 0.48942 0.00533 0.48384 0.0
C59 C 0.51229 0.94394 0.52098 0.0
O60 O 0.58415 0.0395 0.49354 0.0
O61 O 0.60449 0.03797 0.52479 0.0
O62 O 0.51688 0.0211 0.54656 0.0
O63 O 0.55407 1.00014 0.55147 0.0
O64 O 0.48204 0.0469 0.53185 0.0
O65 O 0.53345 0.06395 0.51646 0.0
O66 O 0.43476 0.9673 0.5479 0.0
O67 O 0.41521 0.98166 0.51954 0.0
O68 O 0.50267 0.99215 0.49683 0.0
O69 O 0.46552 0.01286 0.49162 0.0
O70 O 0.53859 0.96628 0.51386 0.0
O71 O 0.48584 0.94972 0.52766 0.0
H72 H 0.67951 0.06916 0.50963 0.0
H73 H 0.71866 0.12254 0.50738 0.0
H74 H 0.63334 0.15287 0.49619 0.0
H75 H 0.59447 0.09952 0.49864 0.0
H76 H 0.4144 0.91754 0.51444 0.0
H77 H 0.37196 0.8659 0.50907 0.0
H78 H 0.30297 0.89056 0.54667 0.0
H79 H 0.34538 0.94238 0.55153 0.0
Pr80 Pr 0.49586 0.50738 0.80461 0.0
Pr81 Pr 0.52462 0.5798 0.81715 0.0
C82 C 0.47948 0.45316 0.78508 0.0
C83 C 0.48792 0.42592 0.7907 0.0
C84 C 0.51191 0.42813 0.80682 0.0
C85 C 0.51841 0.402 0.81353 0.0
C86 C 0.50099 0.37316 0.80426 0.0
C87 C 0.47739 0.37114 0.78783 0.0
C88 C 0.47082 0.39739 0.78114 0.0
C89 C 0.50597 0.51416 0.84747 0.0
C90 C 0.57918 0.5443 0.81427 0.0
C91 C 0.53891 0.63637 0.83332 0.0
C92 C 0.52014 0.65576 0.83999 0.0
C93 C 0.5329 0.68733 0.83565 0.0
C94 C 0.51414 0.7059 0.83998 0.0
C95 C 0.48236 0.69322 0.84884 0.0
C96 C 0.47002 0.66174 0.85381 0.0
C97 C 0.48869 0.64302 0.84925 0.0
C98 C 0.52412 0.56553 0.77559 0.0
C99 C 0.44045 0.54215 0.81175 0.0
O100 O 0.50526 0.47755 0.78004 0.0
O101 O 0.459 0.4594 0.79751 0.0
O102 O 0.51118 0.53489 0.8342 0.0
O103 O 0.49493 0.48738 0.83844 0.0
O104 O 0.57282 0.56701 0.82334 0.0
O105 O 0.55539 0.52203 0.80382 0.0
O106 O 0.53697 0.6122 0.8445 0.0
O107 O 0.5373 0.63111 0.81352 0.0
O108 O 0.50087 0.55225 0.78768 0.0
O109 O 0.54837 0.58809 0.78467 0.0
O110 O 0.44545 0.51803 0.80366 0.0
O111 O 0.46567 0.56663 0.81895 0.0
H112 H 0.52527 0.45005 0.81442 0.0
H113 H 0.53706 0.40436 0.826 0.0
H114 H 0.46339 0.34916 0.78052 0.0
H115 H 0.45201 0.39532 0.76881 0.0
H116 H 0.55704 0.69748 0.82845 0.0
H117 H 0.52432 0.73018 0.83621 0.0
H118 H 0.44549 0.65148 0.86053 0.0
H119 H 0.47824 0.61858 0.85251 0.0
O120 O 0.52352 0.04613 0.25554 0.0
Cd121 Cd 0.52506 0.04971 0.21806 0.0
O122 O 0.53021 1.00106 0.25661 0.0
Cd123 Cd 0.51541 0.99003 0.22422 0.0
O124 O 0.47742 0.95783 0.20338 0.0
C125 C 0.44893 0.96127 0.20021 0.0
O126 O 0.44439 0.98544 0.20818 0.0
C127 C 0.52863 0.02459 0.26584 0.0
C128 C 0.58076 0.10122 0.20756 0.0
O129 O 0.5514 0.10323 0.20946 0.0
O130 O 0.58361 0.07476 0.21025 0.0
O131 O 0.5047 0.47161 0.55523 0.0
Cd132 Cd 0.50558 0.44363 0.52306 0.0
O133 O 0.5089 0.51818 0.54418 0.0
Cd134 Cd 0.50897 0.56634 0.54677 0.0
O135 O 0.50534 0.61334 0.54542 0.0
C136 C 0.52864 0.63616 0.53783 0.0
O137 O 0.55549 0.63169 0.53097 0.0
C138 C 0.50623 0.49916 0.5589 0.0
C139 C 0.50683 0.38297 0.52736 0.0
O140 O 0.53435 0.4064 0.52646 0.0
O141 O 0.47878 0.38811 0.52675 0.0
O142 O 0.0369 0.53365 0.89422 0.0
Cd143 Cd 0.03921 0.53805 0.8568 0.0
O144 O 0.98248 0.50547 0.89505 0.0
Cd145 Cd 0.96785 0.50937 0.86284 0.0
O146 O 0.92425 0.51395 0.84539 0.0
C147 C 0.91615 0.53694 0.85021 0.0
O148 O 0.93573 0.557 0.8637 0.0
C149 C 0.01119 0.51842 0.90431 0.0
C150 C 0.10251 0.53869 0.84475 0.0
O151 O 0.09786 0.56371 0.84942 0.0
O152 O 0.07708 0.51338 0.84545 0.0
O153 O 0.03142 0.52442 0.4265 0.0
Cd154 Cd 0.0321 0.52175 0.46402 0.0
O155 O 0.97879 0.52358 0.42364 0.0
Cd156 Cd 0.96564 0.50408 0.45415 0.0
O157 O 0.93269 0.46347 0.47011 0.0
C158 C 0.90361 0.45036 0.46132 0.0
O159 O 0.89564 0.46278 0.44455 0.0
C160 C 0.00685 0.52706 0.41554 0.0
C161 C 0.08007 0.57657 0.4797 0.0
O162 O 0.08828 0.55293 0.47629 0.0
O163 O 0.04901 0.57406 0.47613 0.0
O164 O 0.44845 0.00531 0.78062 0.0
Cd165 Cd 0.43427 0.01424 0.81564 0.0
O166 O 0.50131 0.00905 0.78825 0.0
Cd167 Cd 0.49911 0.02435 0.81943 0.0
O168 O 0.50012 0.06314 0.83824 0.0
C169 C 0.52869 0.08386 0.84261 0.0
O170 O 0.55648 0.07916 0.83771 0.0
C171 C 0.47663 1.00405 0.77515 0.0
C172 C 0.42019 0.9601 0.83821 0.0
O173 O 0.39661 0.96558 0.82758 0.0
O174 O 0.45004 0.9806 0.83859 0.0
O175 O 0.53423 0.52998 0.07947 0.0
Cd176 Cd 0.54048 0.53237 0.117 0.0
O177 O 0.50077 0.55736 0.07517 0.0
Cd178 Cd 0.48592 0.55855 0.10688 0.0
O179 O 0.44421 0.561 0.12507 0.0
C180 C 0.42279 0.53691 0.1326 0.0
O181 O 0.4274 0.51043 0.13078 0.0
C182 C 0.51875 0.54325 0.06771 0.0
C183 C 0.60543 0.53233 0.12851 0.0
O184 O 0.57973 0.50715 0.12757 0.0
O185 O 0.6003 0.55753 0.12448 0.0
C186 C 0.13168 0.51185 0.17341 0.0
C187 C 0.12337 0.53678 0.16549 0.0
C188 C 0.165 0.51209 0.17299 0.0
C189 C 0.25429 0.56334 0.1681 0.0
H190 H 0.26654 0.49029 0.14662 0.0
C191 C 0.38253 0.56473 0.13892 0.0
C192 C 0.391 0.53802 0.14099 0.0
C193 C 0.35092 0.56472 0.14476 0.0
C194 C 0.26372 0.51071 0.15303 0.0
H195 H 0.14385 0.58195 0.1515 0.0
H196 H 0.20187 0.58235 0.15087 0.0
H197 H 0.20947 0.48998 0.15178 0.0
H198 H 0.37349 0.49081 0.15182 0.0
H199 H 0.31875 0.49103 0.1625 0.0
H200 H 0.30851 0.58417 0.1693 0.0
C201 C 0.18265 0.56265 0.15743 0.0
C202 C 0.23091 0.51053 0.15594 0.0
C203 C 0.14931 0.5623 0.15767 0.0
C204 C 0.36769 0.51171 0.14985 0.0
C205 C 0.33616 0.51177 0.15584 0.0
C206 C 0.28714 0.56347 0.16534 0.0
C207 C 0.19081 0.53739 0.16484 0.0
C208 C 0.2258 0.53697 0.16323 0.0
C209 C 0.32706 0.53808 0.15298 0.0
C210 C 0.29229 0.53729 0.15749 0.0
H211 H 0.11233 0.49185 0.17956 0.0
H212 H 0.17057 0.49241 0.179 0.0
H213 H 0.25118 0.58394 0.17402 0.0
H214 H 0.39983 0.58538 0.13209 0.0
H215 H 0.34476 0.58531 0.14207 0.0
C216 C 0.6955 0.19869 0.50907 0.0
C217 C 0.70285 0.17441 0.50003 0.0
C218 C 0.71751 0.22921 0.50725 0.0
C219 C 0.80571 0.27664 0.49448 0.0
H220 H 0.76655 0.33967 0.48282 0.0
C221 C 0.88917 0.40521 0.48544 0.0
C222 C 0.87992 0.42054 0.46877 0.0
C223 C 0.8674 0.37609 0.49142 0.0
C224 C 0.77791 0.32234 0.48602 0.0
H225 H 0.73905 0.16324 0.48187 0.0
H226 H 0.77729 0.21642 0.47857 0.0
H227 H 0.72938 0.28681 0.4887 0.0
H228 H 0.84018 0.41755 0.44561 0.0
H229 H 0.8026 0.36693 0.45586 0.0
H230 H 0.85421 0.31201 0.49105 0.0
C231 C 0.75484 0.21186 0.48741 0.0
C232 C 0.75659 0.29207 0.48962 0.0
C233 C 0.73287 0.18135 0.48927 0.0
C234 C 0.84814 0.40645 0.45854 0.0
C235 C 0.82643 0.37744 0.46451 0.0
C236 C 0.82704 0.30694 0.49087 0.0
C237 C 0.74737 0.2362 0.4963 0.0
C238 C 0.7702 0.26875 0.49365 0.0
C239 C 0.83589 0.36174 0.48088 0.0
C240 C 0.81338 0.33008 0.48632 0.0
H241 H 0.67284 0.19409 0.51773 0.0
H242 H 0.71122 0.24733 0.51455 0.0
H243 H 0.81706 0.25935 0.49782 0.0
H244 H 0.91345 0.41546 0.49368 0.0
H245 H 0.87529 0.36478 0.50425 0.0
C246 C 0.45684 0.73111 0.83571 0.0
C247 C 0.46187 0.71286 0.85195 0.0
C248 C 0.44027 0.75188 0.83879 0.0
C249 C 0.42832 0.80057 0.87859 0.0
H250 H 0.3748 0.82102 0.83469 0.0
C251 C 0.38225 0.90615 0.84586 0.0
C252 C 0.41405 0.92991 0.84816 0.0
C253 C 0.37828 0.87617 0.85216 0.0
C254 C 0.38897 0.81539 0.84741 0.0
H255 H 0.45242 0.70093 0.88392 0.0
H256 H 0.42356 0.7379 0.88947 0.0
H257 H 0.38373 0.77199 0.83381 0.0
H258 H 0.46581 0.94146 0.86042 0.0
H259 H 0.45915 0.88937 0.87094 0.0
H260 H 0.43461 0.84453 0.89181 0.0
C261 C 0.43245 0.73597 0.87435 0.0
C262 C 0.39437 0.78737 0.84677 0.0
C263 C 0.4488 0.71483 0.87118 0.0
C264 C 0.44103 0.92363 0.85829 0.0
C265 C 0.43709 0.89371 0.86452 0.0
C266 C 0.42283 0.82862 0.87928 0.0
C267 C 0.42849 0.75502 0.85823 0.0
C268 C 0.41551 0.78038 0.86179 0.0
C269 C 0.40603 0.86939 0.86083 0.0
C270 C 0.4045 0.83698 0.86315 0.0
H271 H 0.46642 0.72977 0.82069 0.0
H272 H 0.43812 0.76653 0.82613 0.0
H273 H 0.44471 0.79582 0.89041 0.0
H274 H 0.36086 0.91034 0.83831 0.0
H275 H 0.35388 0.85803 0.8494 0.0
C276 C 0.88568 0.50692 0.16023 0.0
C277 C 0.91241 0.53253 0.1532 0.0
C278 C 0.85212 0.50624 0.15862 0.0
C279 C 0.8016 0.55688 0.15425 0.0
H280 H 0.7299 0.48456 0.13202 0.0
C281 C 0.66863 0.55903 0.13076 0.0
C282 C 0.64014 0.53225 0.13341 0.0
C283 C 0.70149 0.55864 0.13434 0.0
C284 C 0.74944 0.50478 0.13859 0.0
H285 H 0.9248 0.57759 0.13909 0.0
H286 H 0.86639 0.57645 0.13648 0.0
H287 H 0.78772 0.48441 0.13621 0.0
H288 H 0.62384 0.4842 0.14238 0.0
H289 H 0.68109 0.4837 0.1492 0.0
H290 H 0.76352 0.57723 0.1569 0.0
C291 C 0.87139 0.55693 0.14324 0.0
C292 C 0.78263 0.50469 0.14092 0.0
C293 C 0.90484 0.55746 0.14462 0.0
C294 C 0.64526 0.5052 0.14009 0.0
C295 C 0.67814 0.50487 0.14386 0.0
C296 C 0.76839 0.55688 0.15212 0.0
C297 C 0.84466 0.53132 0.1502 0.0
C298 C 0.80913 0.53086 0.14857 0.0
C299 C 0.70674 0.53152 0.14085 0.0
C300 C 0.74188 0.53096 0.14405 0.0
H301 H 0.89061 0.48732 0.16692 0.0
H302 H 0.83206 0.48627 0.16423 0.0
H303 H 0.82141 0.57723 0.16048 0.0
H304 H 0.66561 0.58022 0.1255 0.0
H305 H 0.72277 0.57949 0.13151 0.0
C306 C 0.31723 0.81645 0.52383 0.0
C307 C 0.3079 0.84281 0.52393 0.0
C308 C 0.29277 0.78719 0.5202 0.0
C309 C 0.20039 0.74375 0.52106 0.0
H310 H 0.22052 0.68744 0.48442 0.0
C311 C 0.09711 0.63258 0.48902 0.0
C312 C 0.1059 0.60618 0.48682 0.0
C313 C 0.12184 0.66092 0.49467 0.0
C314 C 0.21463 0.70268 0.49493 0.0
H315 H 0.26544 0.85894 0.52007 0.0
H316 H 0.22283 0.80793 0.51385 0.0
H317 H 0.26351 0.73776 0.49215 0.0
H318 H 0.14748 0.58872 0.4893 0.0
H319 H 0.19048 0.63802 0.49945 0.0
H320 H 0.15147 0.70871 0.5238 0.0
C321 C 0.24901 0.80986 0.51686 0.0
C322 C 0.23929 0.73157 0.49934 0.0
C323 C 0.27347 0.83912 0.52045 0.0
C324 C 0.13986 0.60864 0.49077 0.0
C325 C 0.16458 0.63696 0.49646 0.0
C326 C 0.17574 0.71482 0.51668 0.0
C327 C 0.25838 0.78355 0.51662 0.0
C328 C 0.23241 0.75252 0.51237 0.0
C329 C 0.15594 0.66353 0.4983 0.0
C330 C 0.18249 0.69397 0.50348 0.0
H331 H 0.34342 0.81837 0.52678 0.0
H332 H 0.30076 0.76735 0.52041 0.0
H333 H 0.19445 0.75916 0.5314 0.0
H334 H 0.07121 0.63153 0.48602 0.0
H335 H 0.11433 0.68095 0.49569 0.0
C336 C 0.51068 0.32355 0.79825 0.0
C337 C 0.50711 0.34528 0.81201 0.0
C338 C 0.51674 0.29746 0.8056 0.0
C339 C 0.506 0.24707 0.85053 0.0
H340 H 0.56925 0.21823 0.82297 0.0
C341 C 0.56138 0.13981 0.84929 0.0
C342 C 0.53018 0.1151 0.84849 0.0
C343 C 0.56216 0.17019 0.85014 0.0
C344 C 0.55197 0.22621 0.83113 0.0
H345 H 0.50654 0.35651 0.84425 0.0
H346 H 0.51739 0.31098 0.85708 0.0
H347 H 0.56398 0.2672 0.81309 0.0
H348 H 0.47559 0.10275 0.85009 0.0
H349 H 0.47696 0.1556 0.85133 0.0
H350 H 0.49362 0.20575 0.86837 0.0
C351 C 0.51547 0.31414 0.84063 0.0
C352 C 0.5486 0.25407 0.82524 0.0
C353 C 0.50956 0.34031 0.83327 0.0
C354 C 0.50004 0.12127 0.85049 0.0
C355 C 0.50084 0.15163 0.85132 0.0
C356 C 0.50931 0.21911 0.85641 0.0
C357 C 0.51922 0.29249 0.82686 0.0
C358 C 0.52504 0.26444 0.83454 0.0
C359 C 0.53179 0.17642 0.85023 0.0
C360 C 0.53182 0.20808 0.84646 0.0
H361 H 0.50914 0.32687 0.78179 0.0
H362 H 0.51904 0.28094 0.79461 0.0
H363 H 0.48755 0.25446 0.85795 0.0
H364 H 0.5851 0.13582 0.84804 0.0
H365 H 0.58645 0.18884 0.84971 0.0
C366 C 0.54064 0.90493 0.51555 0.0
C367 C 0.5125 0.91177 0.5219 0.0
C368 C 0.54121 0.87486 0.51697 0.0
C369 C 0.50148 0.80014 0.54374 0.0
H370 H 0.54138 0.76806 0.50092 0.0
C371 C 0.49672 0.6727 0.54279 0.0
C372 C 0.52567 0.66734 0.53632 0.0
C373 C 0.49412 0.70208 0.54096 0.0
C374 C 0.53048 0.7767 0.51317 0.0
H375 H 0.46263 0.89185 0.53457 0.0
H376 H 0.46353 0.83953 0.53688 0.0
H377 H 0.53872 0.81962 0.49771 0.0
H378 H 0.57477 0.68909 0.52304 0.0
H379 H 0.57046 0.74 0.52012 0.0
H380 H 0.49339 0.75723 0.55924 0.0
C381 C 0.48542 0.85752 0.53103 0.0
C382 C 0.52894 0.80639 0.51131 0.0
C383 C 0.48483 0.88759 0.52958 0.0
C384 C 0.55199 0.69219 0.52811 0.0
C385 C 0.54941 0.72147 0.52629 0.0
C386 C 0.50305 0.77043 0.54561 0.0
C387 C 0.51367 0.8507 0.52481 0.0
C388 C 0.51459 0.81866 0.52661 0.0
C389 C 0.5204 0.7269 0.5326 0.0
C390 C 0.51777 0.75831 0.53041 0.0
H391 H 0.56248 0.92289 0.50962 0.0
H392 H 0.56361 0.8707 0.51226 0.0
H393 H 0.49064 0.80886 0.55599 0.0
H394 H 0.4759 0.65415 0.54915 0.0
H395 H 0.47123 0.70519 0.54581 0.0
C396 C 0.64031 0.56791 0.82612 0.0
C397 C 0.61423 0.54374 0.81604 0.0
C398 C 0.67317 0.56719 0.82836 0.0
C399 C 0.73124 0.53111 0.80801 0.0
H400 H 0.77968 0.55747 0.86047 0.0
C401 C 0.85922 0.51525 0.83138 0.0
C402 C 0.88328 0.53923 0.84289 0.0
C403 C 0.82679 0.51609 0.82658 0.0
C404 C 0.76671 0.5504 0.84563 0.0
H405 H 0.60247 0.49991 0.80022 0.0
H406 H 0.65989 0.49856 0.80432 0.0
H407 H 0.72228 0.55788 0.85527 0.0
H408 H 0.89266 0.58361 0.85745 0.0
H409 H 0.83647 0.58522 0.84887 0.0
H410 H 0.77585 0.52348 0.79848 0.0
C411 C 0.65491 0.51824 0.81029 0.0
C412 C 0.73375 0.55062 0.84265 0.0
C413 C 0.62195 0.51897 0.80803 0.0
C414 C 0.87468 0.56462 0.84873 0.0
C415 C 0.84236 0.56546 0.84393 0.0
C416 C 0.76431 0.53087 0.81101 0.0
C417 C 0.68085 0.54225 0.82063 0.0
C418 C 0.71567 0.54121 0.82377 0.0
C419 C 0.81777 0.54091 0.8332 0.0
C420 C 0.78251 0.54075 0.82982 0.0
H421 H 0.63542 0.58747 0.83238 0.0
H422 H 0.69266 0.58633 0.83609 0.0
H423 H 0.71812 0.52397 0.79322 0.0
H424 H 0.86503 0.49535 0.82666 0.0
H425 H 0.80839 0.49676 0.81836 0.0
C426 C 0.18061 0.75788 0.14819 0.0
C427 C 0.18287 0.72845 0.14622 0.0
C428 C 0.20976 0.78379 0.15204 0.0
C429 C 0.3034 0.81296 0.14934 0.0
H430 H 0.29908 0.87152 0.19037 0.0
C431 C 0.42269 0.90808 0.18495 0.0
C432 C 0.41996 0.93656 0.19003 0.0
C433 C 0.3942 0.8836 0.17757 0.0
C434 C 0.30064 0.85571 0.17862 0.0
H435 H 0.21775 0.70333 0.14632 0.0
H436 H 0.26866 0.74855 0.15335 0.0
H437 H 0.24869 0.82705 0.1816 0.0
H438 H 0.38552 0.96212 0.19028 0.0
H439 H 0.33609 0.91969 0.17709 0.0
H440 H 0.35553 0.84161 0.1465 0.0
C441 C 0.24429 0.75159 0.15175 0.0
C442 C 0.27171 0.83014 0.17362 0.0
C443 C 0.21508 0.72562 0.14795 0.0
C444 C 0.38847 0.94041 0.1867 0.0
C445 C 0.36005 0.916 0.17926 0.0
C446 C 0.33239 0.83862 0.15432 0.0
C447 C 0.24193 0.78094 0.15401 0.0
C448 C 0.27273 0.8084 0.15896 0.0
C449 C 0.36236 0.88707 0.17504 0.0
C450 C 0.33138 0.86028 0.16907 0.0
H451 H 0.15619 0.76087 0.14717 0.0
H452 H 0.20707 0.8061 0.15347 0.0
H453 H 0.30492 0.79683 0.1378 0.0
H454 H 0.44656 0.9043 0.18735 0.0
H455 H 0.39688 0.8616 0.17463 0.0
C456 C 0.53732 0.12701 0.5209 0.0
C457 C 0.50795 0.10181 0.52528 0.0
C458 C 0.53744 0.15732 0.52166 0.0
C459 C 0.48012 0.2026 0.51904 0.0
H460 H 0.55739 0.26778 0.5438 0.0
C461 C 0.47729 0.32562 0.53112 0.0
C462 C 0.50734 0.35093 0.52841 0.0
C463 C 0.47753 0.29539 0.53133 0.0
C464 C 0.53575 0.25002 0.53656 0.0
H465 H 0.4556 0.08905 0.53393 0.0
H466 H 0.45578 0.14178 0.53517 0.0
H467 H 0.55764 0.21522 0.5427 0.0
H468 H 0.5613 0.36409 0.52383 0.0
H469 H 0.56166 0.31157 0.52374 0.0
H470 H 0.45839 0.2373 0.51256 0.0
C471 C 0.47873 0.13809 0.53103 0.0
C472 C 0.53589 0.21977 0.53598 0.0
C473 C 0.4787 0.1078 0.53044 0.0
C474 C 0.53769 0.34521 0.52608 0.0
C475 C 0.5379 0.31497 0.52614 0.0
C476 C 0.48008 0.23287 0.51948 0.0
C477 C 0.5081 0.1633 0.52666 0.0
C478 C 0.50805 0.19562 0.52724 0.0
C479 C 0.50779 0.28952 0.52867 0.0
C480 C 0.50786 0.2571 0.52829 0.0
H481 H 0.56037 0.12339 0.51696 0.0
H482 H 0.56043 0.17609 0.51802 0.0
H483 H 0.45845 0.18472 0.51191 0.0
H484 H 0.45346 0.32911 0.53306 0.0
H485 H 0.45391 0.27662 0.53372 0.0
C486 C 0.37722 0.51489 0.80815 0.0
C487 C 0.40517 0.54174 0.81307 0.0
C488 C 0.34401 0.51426 0.81017 0.0
C489 C 0.29294 0.56454 0.81336 0.0
H490 H 0.22868 0.49442 0.84015 0.0
C491 C 0.1649 0.56629 0.84079 0.0
C492 C 0.13643 0.53894 0.83924 0.0
C493 C 0.19716 0.56633 0.8364 0.0
C494 C 0.24609 0.51397 0.83234 0.0
H495 H 0.41992 0.58916 0.82373 0.0
H496 H 0.36208 0.58799 0.82718 0.0
H497 H 0.28575 0.49497 0.83443 0.0
H498 H 0.11947 0.49028 0.83143 0.0
H499 H 0.17559 0.49046 0.82337 0.0
H500 H 0.25334 0.58355 0.81119 0.0
C501 C 0.36587 0.56748 0.82166 0.0
C502 C 0.27885 0.51429 0.8291 0.0
C503 C 0.39906 0.56806 0.81977 0.0
C504 C 0.14089 0.51172 0.83288 0.0
C505 C 0.17314 0.51179 0.82838 0.0
C506 C 0.26011 0.56415 0.81648 0.0
C507 C 0.33796 0.54052 0.81701 0.0
C508 C 0.30273 0.53968 0.81972 0.0
C509 C 0.20175 0.53906 0.83023 0.0
C510 C 0.23632 0.53897 0.82617 0.0
H511 H 0.38094 0.4942 0.80294 0.0
H512 H 0.32303 0.49324 0.80628 0.0
H513 H 0.31061 0.58424 0.80581 0.0
H514 H 0.1624 0.58764 0.84573 0.0
H515 H 0.21862 0.58767 0.83829 0.0
C516 C 0.81869 0.34548 0.18389 0.0
C517 C 0.85059 0.34227 0.18701 0.0
C518 C 0.78872 0.3198 0.18481 0.0
C519 C 0.75564 0.23481 0.18073 0.0
H520 H 0.68099 0.24029 0.21144 0.0
C521 C 0.64328 0.12687 0.20302 0.0
C522 C 0.61068 0.1288 0.20305 0.0
C523 C 0.67176 0.15314 0.19975 0.0
C524 C 0.70134 0.23845 0.20252 0.0
H525 H 0.87573 0.30941 0.19393 0.0
H526 H 0.8236 0.26474 0.19523 0.0
H527 H 0.73196 0.28581 0.20811 0.0
H528 H 0.58238 0.15977 0.1992 0.0
H529 H 0.63199 0.20549 0.19311 0.0
H530 H 0.72513 0.18752 0.17509 0.0
C531 C 0.8218 0.28707 0.19181 0.0
C532 C 0.7306 0.26456 0.20066 0.0
C533 C 0.85171 0.31272 0.19103 0.0
C534 C 0.60716 0.15751 0.19937 0.0
C535 C 0.63564 0.18378 0.19601 0.0
C536 C 0.72633 0.20875 0.1825 0.0
C537 C 0.78995 0.2903 0.18874 0.0
C538 C 0.75822 0.26295 0.18992 0.0
C539 C 0.66836 0.18199 0.19632 0.0
C540 C 0.69892 0.21013 0.19359 0.0
H541 H 0.81683 0.36778 0.18046 0.0
H542 H 0.76458 0.32299 0.18216 0.0
H543 H 0.77627 0.23296 0.17208 0.0
H544 H 0.64693 0.10514 0.2059 0.0
H545 H 0.69656 0.15092 0.2004 0.0
C546 C 0.00676 0.53257 0.09171 0.0
C547 C 0.01646 0.51055 0.1027 0.0
C548 C 0.00832 0.53405 0.07028 0.0
C549 C 0.03215 0.54206 0.02609 0.0
H550 H 0.99741 0.46492 0.99557 0.0
C551 C 0.04374 0.53481 0.93804 0.0
C552 C 0.0141 0.51657 0.92701 0.0
C553 C 0.04557 0.53415 0.95955 0.0
C554 C 0.00713 0.48665 0.00387 0.0
H555 H 0.03601 0.47326 0.10006 0.0
H556 H 0.03864 0.47578 0.0627 0.0
H557 H 0.99742 0.4643 0.03304 0.0
H558 H 0.96338 0.48294 0.92997 0.0
H559 H 0.96669 0.48174 0.96738 0.0
H560 H 0.0414 0.56441 0.99684 0.0
C561 C 0.02953 0.49169 0.07056 0.0
C562 C 0.00742 0.48629 0.02533 0.0
C563 C 0.02816 0.49034 0.09195 0.0
C564 C 0.98661 0.49728 0.93795 0.0
C565 C 0.98854 0.49646 0.9594 0.0
C566 C 0.03209 0.54241 0.0046 0.0
C567 C 0.01943 0.51342 0.05947 0.0
C568 C 0.01977 0.51398 0.03668 0.0
C569 C 0.01792 0.51505 0.97045 0.0
C570 C 0.01936 0.51471 0.99327 0.0
H571 H 0.99775 0.54849 0.09965 0.0
H572 H 1.00013 0.55089 0.06213 0.0
H573 H 0.04208 0.56375 0.03443 0.0
H574 H 0.06536 0.54995 0.93009 0.0
H575 H 0.06866 0.5485 0.96765 0.0
C576 C 0.48518 0.02786 0.44933 0.0
C577 C 0.49817 0.00962 0.46205 0.0
C578 C 0.49278 0.03152 0.42856 0.0
C579 C 0.51486 0.99267 0.38603 0.0
H580 H 0.54125 0.07269 0.35979 0.0
C581 C 0.54278 0.00552 0.29993 0.0
C582 C 0.53098 0.02598 0.2886 0.0
C583 C 0.54278 0.00533 0.3214 0.0
C584 C 0.53354 0.05011 0.3668 0.0
H585 H 0.52963 0.98123 0.46324 0.0
H586 H 0.54242 0.98714 0.42675 0.0
H587 H 0.53331 0.06888 0.39677 0.0
H588 H 0.5105 0.06271 0.29095 0.0
H589 H 0.50944 0.06175 0.3283 0.0
H590 H 0.51367 0.97359 0.35614 0.0
C591 C 0.52642 0.99864 0.43288 0.0
C592 C 0.52915 0.04799 0.38801 0.0
C593 C 0.51919 0.99533 0.45372 0.0
C594 C 0.51991 0.04675 0.29923 0.0
C595 C 0.5195 0.0463 0.3207 0.0
C596 C 0.51881 0.99471 0.36481 0.0
C597 C 0.51319 0.01669 0.42008 0.0
C598 C 0.51957 0.01923 0.3978 0.0
C599 C 0.53055 0.02532 0.33208 0.0
C600 C 0.52801 0.02344 0.35486 0.0
H601 H 0.46901 0.03923 0.45539 0.0
H602 H 0.48201 0.04534 0.41902 0.0
H603 H 0.50703 0.97015 0.39315 0.0
H604 H 0.55179 0.98942 0.29221 0.0
H605 H 0.5522 0.98933 0.32962 0.0
C606 C 0.54535 0.57888 0.74022 0.0
C607 C 0.52208 0.55878 0.75335 0.0
C608 C 0.54272 0.5732 0.71904 0.0
C609 C 0.51036 0.51147 0.6807 0.0
H610 H 0.51357 0.57702 0.64241 0.0
C611 C 0.4851 0.4863 0.59418 0.0
C612 C 0.50467 0.50825 0.58044 0.0
C613 C 0.48571 0.49342 0.61501 0.0
C614 C 0.51308 0.55854 0.65285 0.0
H615 H 0.47809 0.51682 0.75474 0.0
H616 H 0.47393 0.50649 0.71772 0.0
H617 H 0.5186 0.58734 0.67937 0.0
H618 H 0.54031 0.55489 0.57769 0.0
H619 H 0.54212 0.56727 0.61423 0.0
H620 H 0.50589 0.48282 0.65443 0.0
C621 C 0.49408 0.52672 0.72381 0.0
C622 C 0.51585 0.56446 0.67403 0.0
C623 C 0.49641 0.53265 0.74497 0.0
C624 C 0.52443 0.53774 0.58787 0.0
C625 C 0.52547 0.54477 0.60885 0.0
C626 C 0.50804 0.50563 0.65956 0.0
C627 C 0.51706 0.54706 0.71062 0.0
C628 C 0.51437 0.54094 0.68815 0.0
C629 C 0.50649 0.52251 0.62276 0.0
C630 C 0.50914 0.52902 0.64531 0.0
H631 H 0.56538 0.59922 0.74628 0.0
H632 H 0.56097 0.58908 0.70925 0.0
H633 H 0.50964 0.49302 0.69123 0.0
H634 H 0.46944 0.46343 0.58882 0.0
H635 H 0.47003 0.47593 0.62507 0.0
C636 C 0.50523 0.02194 0.5901 0.0
C637 C 0.52254 0.00444 0.58131 0.0
C638 C 0.49923 0.01977 0.61109 0.0
C639 C 0.48765 0.97012 0.65546 0.0
H640 H 0.52293 0.04558 0.68781 0.0
C641 C 0.45346 0.98608 0.73954 0.0
C642 C 0.48153 0.99919 0.75327 0.0
C643 C 0.45814 0.98401 0.71853 0.0
C644 C 0.513 0.02437 0.67893 0.0
H645 H 0.5461 0.97025 0.58723 0.0
H646 H 0.53466 0.96582 0.62398 0.0
H647 H 0.53053 0.04736 0.65066 0.0
H648 H 0.5365 0.01988 0.75581 0.0
H649 H 0.54447 0.01702 0.71901 0.0
H650 H 0.46943 0.94728 0.68375 0.0
C651 C 0.52621 0.98144 0.61463 0.0
C652 C 0.51716 0.02541 0.65774 0.0
C653 C 0.53286 0.98409 0.5937 0.0
C654 C 0.51438 0.00956 0.74564 0.0
C655 C 0.51898 0.00807 0.72461 0.0
C656 C 0.48283 0.96917 0.67662 0.0
C657 C 0.50976 0.99958 0.62352 0.0
C658 C 0.50467 0.9983 0.64586 0.0
C659 C 0.49089 0.9956 0.71088 0.0
C660 C 0.4957 0.99628 0.68852 0.0
H661 H 0.49698 0.03777 0.58084 0.0
H662 H 0.48636 0.03387 0.61765 0.0
H663 H 0.47776 0.94895 0.64654 0.0
H664 H 0.42786 0.97783 0.74499 0.0
H665 H 0.43612 0.9744 0.70817 0.0
C666 C 0.51456 0.49533 0.88241 0.0
C667 C 0.51117 0.51894 0.86987 0.0
C668 C 0.51816 0.49902 0.90375 0.0
C669 C 0.53655 0.55805 0.94561 0.0
H670 H 0.4935 0.48602 0.97884 0.0
C671 C 0.51187 0.56255 0.03231 0.0
C672 C 0.52108 0.5419 0.04512 0.0
C673 C 0.51308 0.56076 0.01095 0.0
C674 C 0.5059 0.50626 0.96975 0.0
H675 H 0.50854 0.56476 0.8696 0.0
H676 H 0.51361 0.571 0.90694 0.0
H677 H 0.49039 0.4811 0.94155 0.0
H678 H 0.53896 0.50327 0.04555 0.0
H679 H 0.54033 0.49976 0.00815 0.0
H680 H 0.55079 0.58329 0.97406 0.0
C681 C 0.51463 0.54995 0.90038 0.0
C682 C 0.5043 0.50348 0.94835 0.0
C683 C 0.51161 0.54642 0.87897 0.0
C684 C 0.53175 0.51955 0.03611 0.0
C685 C 0.53241 0.51743 0.01472 0.0
C686 C 0.53766 0.56089 0.96704 0.0
C687 C 0.51774 0.52619 0.91309 0.0
C688 C 0.51968 0.52931 0.93595 0.0
C689 C 0.52298 0.53796 0.00196 0.0
C690 C 0.52242 0.535 0.97929 0.0
H691 H 0.51452 0.47398 0.87571 0.0
H692 H 0.52131 0.48049 0.9129 0.0
H693 H 0.5492 0.57836 0.93667 0.0
H694 H 0.50365 0.58011 0.03878 0.0
H695 H 0.50546 0.57672 0.00143 0.0
C696 C 0.03985 0.54193 0.22898 0.0
C697 C 0.02128 0.55766 0.21829 0.0
C698 C 0.03908 0.5395 0.25038 0.0
C699 C 0.01591 0.57366 0.29657 0.0
H700 H 0.0201 0.4994 0.32271 0.0
C701 C 0.9868 0.54279 0.3819 0.0
C702 C 0.01035 0.53299 0.39322 0.0
C703 C 0.98924 0.5471 0.36067 0.0
C704 C 0.01918 0.52036 0.3156 0.0
H705 H 0.98679 0.58261 0.22139 0.0
H706 H 0.98427 0.5774 0.25865 0.0
H707 H 0.021 0.50357 0.28538 0.0
H708 H 0.05506 0.52025 0.39115 0.0
H709 H 0.05887 0.52725 0.35394 0.0
H710 H 0.01293 0.58984 0.32694 0.0
C711 C 1.00036 0.56776 0.25069 0.0
C712 C 0.01984 0.52286 0.2942 0.0
C713 C 1.00156 0.57058 0.22931 0.0
C714 C 0.03657 0.52787 0.38288 0.0
C715 C 0.03867 0.53171 0.36159 0.0
C716 C 0.01472 0.57093 0.31795 0.0
C717 C 0.01926 0.55232 0.26155 0.0
C718 C 0.01832 0.54959 0.28437 0.0
C719 C 0.01494 0.54123 0.35029 0.0
C720 C 0.01647 0.54431 0.32766 0.0
H721 H 0.0554 0.53187 0.22083 0.0
H722 H 0.05446 0.52794 0.25815 0.0
H723 H 0.01535 0.59484 0.28965 0.0
H724 H 0.96636 0.547 0.38943 0.0
H725 H 0.97052 0.5543 0.35228 0.0
loop_
_geom_bond_atom_site_label_1
_geom_bond_atom_site_label_2
_geom_bond_distance
_geom_bond_site_symmetry_2
_ccdc_geom_bond_type
Pr0 C2 2.880 . S
Pr0 O20 2.562 . S
Pr0 O21 2.490 . S
Pr0 O22 2.695 1_655 S
Pr0 O23 2.512 . S
Pr0 O25 2.437 . S
Pr0 O28 2.434 . S
Pr0 O30 2.438 1_655 S
Pr1 C11 2.880 . S
Pr1 O22 2.436 . S
Pr1 O24 2.438 1_455 S
Pr1 O26 2.562 . S
Pr1 O27 2.490 . S
Pr1 O28 2.694 1_455 S
Pr1 O29 2.512 . S
Pr1 O31 2.437 . S
C2 Pr0 2.880 . S
C2 C3 1.491 . S
C2 O20 1.254 . S
C2 O21 1.225 . S
C3 C2 1.491 . S
C3 C4 1.392 . S
C3 C8 1.356 . S
C4 C3 1.392 . S
C4 C5 1.368 . S
C4 H32 0.929 . S
C5 C4 1.368 . S
C5 C6 1.386 . S
C5 H33 0.929 . S
C6 C5 1.386 . S
C6 C7 1.373 . S
C7 C6 1.373 . S
C7 C8 1.409 . S
C7 H34 0.931 . S
C8 C3 1.356 . S
C8 C7 1.409 . S
C8 H35 0.930 . S
C9 O22 1.270 . S
C9 O23 1.248 1_455 S
C10 O24 1.267 . S
C10 O25 1.278 . S
C11 Pr1 2.880 . S
C11 C12 1.491 . S
C11 O26 1.254 . S
C11 O27 1.225 . S
C12 C11 1.491 . S
C12 C13 1.392 . S
C12 C17 1.356 . S
C13 C12 1.392 . S
C13 C14 1.368 . S
C13 H36 0.929 . S
C14 C13 1.368 . S
C14 C15 1.386 . S
C14 H37 0.929 . S
C15 C14 1.386 . S
C15 C16 1.373 . S
C16 C15 1.373 . S
C16 C17 1.409 . S
C16 H38 0.931 . S
C17 C12 1.356 . S
C17 C16 1.409 . S
C17 H39 0.930 . S
C18 O28 1.269 1_455 S
C18 O29 1.248 . S
C19 O30 1.267 . S
C19 O31 1.278 . S
O20 Pr0 2.562 . S
O20 C2 1.254 . S
O21 Pr0 2.490 . S
O21 C2 1.225 . S
O22 Pr0 2.695 1_455 S
O22 Pr1 2.436 . S
O22 C9 1.270 . S
O23 Pr0 2.512 . S
O23 C9 1.248 1_655 S
O24 Pr1 2.438 1_655 S
O24 C10 1.267 . S
O25 Pr0 2.437 . S
O25 C10 1.278 . S
O26 Pr1 2.562 . S
O26 C11 1.254 . S
O27 Pr1 2.490 . S
O27 C11 1.225 . S
O28 Pr0 2.434 . S
O28 Pr1 2.694 1_655 S
O28 C18 1.269 1_655 S
O29 Pr1 2.512 . S
O29 C18 1.248 . S
O30 Pr0 2.438 1_455 S
O30 C19 1.267 . S
O31 Pr1 2.437 . S
O31 C19 1.278 . S
H32 C4 0.929 . S
H33 C5 0.929 . S
H34 C7 0.931 . S
H35 C8 0.930 . S
H36 C13 0.929 . S
H37 C14 0.929 . S
H38 C16 0.931 . S
H39 C17 0.930 . S
Pr40 C42 2.880 . S
Pr40 O60 2.562 . S
Pr40 O61 2.490 . S
Pr40 O62 2.695 . S
Pr40 O63 2.512 . S
Pr40 O65 2.437 . S
Pr40 O68 2.436 . S
Pr40 O70 2.438 1_545 S
Pr41 C51 2.852 1_545 S
Pr41 O62 2.433 . S
Pr41 O64 2.474 . S
Pr41 O66 2.535 1_545 S
Pr41 O67 2.468 1_545 S
Pr41 O68 2.701 . S
Pr41 O69 2.512 . S
Pr41 O71 2.404 1_545 S
C42 Pr40 2.880 . S
C42 C43 1.491 . S
C42 O60 1.254 . S
C42 O61 1.225 . S
C43 C42 1.491 . S
C43 C44 1.392 . S
C43 C48 1.356 . S
C44 C43 1.392 . S
C44 C45 1.368 . S
C44 H72 0.929 . S
C45 C44 1.368 . S
C45 C46 1.386 . S
C45 H73 0.929 . S
C46 C45 1.386 . S
C46 C47 1.373 . S
C47 C46 1.373 . S
C47 C48 1.409 . S
C47 H74 0.931 . S
C48 C43 1.356 . S
C48 C47 1.409 . S
C48 H75 0.930 . S
C49 O62 1.270 . S
C49 O63 1.248 . S
C50 O64 1.267 . S
C50 O65 1.278 . S
C51 Pr41 2.852 1_565 S
C51 C52 1.491 . S
C51 O66 1.254 . S
C51 O67 1.225 . S
C52 C51 1.491 . S
C52 C53 1.392 . S
C52 C57 1.356 . S
C53 C52 1.392 . S
C53 C54 1.368 . S
C53 H76 0.929 . S
C54 C53 1.368 . S
C54 C55 1.386 . S
C54 H77 0.929 . S
C55 C54 1.386 . S
C55 C56 1.373 . S
C56 C55 1.373 . S
C56 C57 1.409 . S
C56 H78 0.931 . S
C57 C52 1.356 . S
C57 C56 1.409 . S
C57 H79 0.930 . S
C58 O68 1.270 . S
C58 O69 1.248 . S
C59 O70 1.267 . S
C59 O71 1.278 . S
O60 Pr40 2.562 . S
O60 C42 1.254 . S
O61 Pr40 2.490 . S
O61 C42 1.225 . S
O62 Pr40 2.695 . S
O62 Pr41 2.433 . S
O62 C49 1.270 . S
O63 Pr40 2.512 . S
O63 C49 1.248 . S
O64 Pr41 2.474 . S
O64 C50 1.267 . S
O65 Pr40 2.437 . S
O65 C50 1.278 . S
O66 Pr41 2.535 1_565 S
O66 C51 1.254 . S
O67 Pr41 2.468 1_565 S
O67 C51 1.225 . S
O68 Pr40 2.436 . S
O68 Pr41 2.701 . S
O68 C58 1.270 . S
O69 Pr41 2.512 . S
O69 C58 1.248 . S
O70 Pr40 2.438 1_565 S
O70 C59 1.267 . S
O71 Pr41 2.404 1_565 S
O71 C59 1.278 . S
H72 C44 0.929 . S
H73 C45 0.929 . S
H74 C47 0.931 . S
H75 C48 0.930 . S
H76 C53 0.929 . S
H77 C54 0.929 . S
H78 C56 0.931 . S
H79 C57 0.930 . S
Pr80 C82 2.880 . S
Pr80 O100 2.562 . S
Pr80 O101 2.490 . S
Pr80 O102 2.695 . S
Pr80 O103 2.512 . S
Pr80 O105 2.437 . S
Pr80 O108 2.436 . S
Pr80 O110 2.438 . S
Pr81 C91 2.880 . S
Pr81 O102 2.436 . S
Pr81 O104 2.438 . S
Pr81 O106 2.562 . S
Pr81 O107 2.490 . S
Pr81 O108 2.695 . S
Pr81 O109 2.512 . S
Pr81 O111 2.437 . S
C82 Pr80 2.880 . S
C82 C83 1.491 . S
C82 O100 1.254 . S
C82 O101 1.225 . S
C83 C82 1.491 . S
C83 C84 1.392 . S
C83 C88 1.356 . S
C84 C83 1.392 . S
C84 C85 1.368 . S
C84 H112 0.929 . S
C85 C84 1.368 . S
C85 C86 1.386 . S
C85 H113 0.929 . S
C86 C85 1.386 . S
C86 C87 1.373 . S
C87 C86 1.373 . S
C87 C88 1.409 . S
C87 H114 0.931 . S
C88 C83 1.356 . S
C88 C87 1.409 . S
C88 H115 0.930 . S
C89 O102 1.270 . S
C89 O103 1.248 . S
C90 O104 1.267 . S
C90 O105 1.278 . S
C91 Pr81 2.880 . S
C91 C92 1.491 . S
C91 O106 1.254 . S
C91 O107 1.225 . S
C92 C91 1.491 . S
C92 C93 1.392 . S
C92 C97 1.356 . S
C93 C92 1.392 . S
C93 C94 1.368 . S
C93 H116 0.929 . S
C94 C93 1.368 . S
C94 C95 1.386 . S
C94 H117 0.929 . S
C95 C94 1.386 . S
C95 C96 1.373 . S
C96 C95 1.373 . S
C96 C97 1.409 . S
C96 H118 0.931 . S
C97 C92 1.356 . S
C97 C96 1.409 . S
C97 H119 0.930 . S
C98 O108 1.270 . S
C98 O109 1.248 . S
C99 O110 1.267 . S
C99 O111 1.278 . S
O100 Pr80 2.562 . S
O100 C82 1.254 . S
O101 Pr80 2.490 . S
O101 C82 1.225 . S
O102 Pr80 2.695 . S
O102 Pr81 2.436 . S
O102 C89 1.270 . S
O103 Pr80 2.512 . S
O103 C89 1.248 . S
O104 Pr81 2.438 . S
O104 C90 1.267 . S
O105 Pr80 2.437 . S
O105 C90 1.278 . S
O106 Pr81 2.562 . S
O106 C91 1.254 . S
O107 Pr81 2.490 . S
O107 C91 1.225 . S
O108 Pr80 2.436 . S
O108 Pr81 2.695 . S
O108 C98 1.270 . S
O109 Pr81 2.512 . S
O109 C98 1.248 . S
O110 Pr80 2.438 . S
O110 C99 1.267 . S
O111 Pr81 2.437 . S
O111 C99 1.278 . S
H112 C84 0.929 . S
H113 C85 0.929 . S
H114 C87 0.931 . S
H115 C88 0.930 . S
H116 C93 0.929 . S
H117 C94 0.929 . S
H118 C96 0.931 . S
H119 C97 0.930 . S
O120 Cd121 2.300 . S
O120 C127 1.275 . S
Cd121 O120 2.300 . S
Cd121 O129 2.381 . S
Cd121 O130 2.378 . S
O122 Cd123 2.385 1_545 S
O122 C127 1.255 . S
Cd123 O122 2.385 1_565 S
Cd123 O124 2.317 . S
O124 Cd123 2.317 . S
O124 C125 1.232 . S
C125 O124 1.232 . S
C125 O126 1.218 . S
O126 C125 1.218 . S
C127 O120 1.275 . S
C127 O122 1.255 . S
C128 O129 1.258 . S
C128 O130 1.256 . S
O129 Cd121 2.381 . S
O129 C128 1.258 . S
O130 Cd121 2.378 . S
O130 C128 1.256 . S
O131 Cd132 2.300 . S
O131 C138 1.275 . S
Cd132 O131 2.300 . S
Cd132 O140 2.381 . S
Cd132 O141 2.378 . S
O133 Cd134 2.385 . S
O133 C138 1.255 . S
Cd134 O133 2.385 . S
Cd134 O135 2.317 . S
O135 Cd134 2.317 . S
O135 C136 1.232 . S
C136 O135 1.232 . S
C136 O137 1.218 . S
O137 C136 1.218 . S
C138 O131 1.275 . S
C138 O133 1.255 . S
C139 O140 1.258 . S
C139 O141 1.256 . S
O140 Cd132 2.381 . S
O140 C139 1.258 . S
O141 Cd132 2.378 . S
O141 C139 1.256 . S
O142 Cd143 2.300 . S
O142 C149 1.275 . S
Cd143 O142 2.300 . S
Cd143 O151 2.381 . S
Cd143 O152 2.378 . S
O144 Cd145 2.385 . S
O144 C149 1.255 1_655 S
Cd145 O144 2.385 . S
Cd145 O146 2.317 . S
O146 Cd145 2.317 . S
O146 C147 1.232 . S
C147 O146 1.232 . S
C147 O148 1.218 . S
O148 C147 1.218 . S
C149 O142 1.275 . S
C149 O144 1.255 1_455 S
C150 O151 1.258 . S
C150 O152 1.256 . S
O151 Cd143 2.381 . S
O151 C150 1.258 . S
O152 Cd143 2.378 . S
O152 C150 1.256 . S
O153 Cd154 2.300 . S
O153 C160 1.253 1_455 S
Cd154 O153 2.300 . S
Cd154 O162 2.381 . S
Cd154 O163 2.378 . S
O155 Cd156 2.385 . S
O155 C160 1.280 . S
Cd156 O155 2.385 . S
Cd156 O157 2.317 . S
O157 Cd156 2.317 . S
O157 C158 1.232 . S
C158 O157 1.232 . S
C158 O159 1.218 . S
O159 C158 1.218 . S
C160 O153 1.253 1_655 S
C160 O155 1.280 . S
C161 O162 1.258 . S
C161 O163 1.256 . S
O162 Cd154 2.381 . S
O162 C161 1.258 . S
O163 Cd154 2.378 . S
O163 C161 1.256 . S
O164 Cd165 2.300 . S
O164 C171 1.275 1_565 S
Cd165 O164 2.300 . S
Cd165 O173 2.381 . S
Cd165 O174 2.378 . S
O166 Cd167 2.385 . S
O166 C171 1.255 . S
Cd167 O166 2.385 . S
Cd167 O168 2.317 . S
O168 Cd167 2.317 . S
O168 C169 1.232 . S
C169 O168 1.232 . S
C169 O170 1.218 . S
O170 C169 1.218 . S
C171 O164 1.275 1_545 S
C171 O166 1.255 . S
C172 O173 1.258 . S
C172 O174 1.256 . S
O173 Cd165 2.381 . S
O173 C172 1.258 . S
O174 Cd165 2.378 . S
O174 C172 1.256 . S
O175 Cd176 2.300 . S
O175 C182 1.275 . S
Cd176 O175 2.300 . S
Cd176 O184 2.381 . S
Cd176 O185 2.378 . S
O177 Cd178 2.385 . S
O177 C182 1.255 . S
Cd178 O177 2.385 . S
Cd178 O179 2.317 . S
O179 Cd178 2.317 . S
O179 C180 1.232 . S
C180 O179 1.232 . S
C180 O181 1.218 . S
O181 C180 1.218 . S
C182 O175 1.275 . S
C182 O177 1.255 . S
C183 O184 1.258 . S
C183 O185 1.256 . S
O184 Cd176 2.381 . S
O184 C183 1.258 . S
O185 Cd176 2.378 . S
O185 C183 1.256 . S
C186 C187 1.349 . S
C186 C188 1.327 . S
C186 H211 0.950 . S
C187 C186 1.349 . S
C187 C203 1.349 . S
C188 C186 1.327 . S
C188 C207 1.429 . S
C188 H212 0.950 . S
C189 C206 1.574 . S
C189 C208 1.368 . S
C189 H213 0.949 . S
H190 C194 0.949 . S
C191 C192 1.349 . S
C191 C193 1.327 . S
C191 H214 0.950 . S
C192 C191 1.349 . S
C192 C204 1.349 . S
C193 C191 1.327 . S
C193 C209 1.429 . S
C193 H215 0.950 . S
C194 H190 0.949 . S
C194 C202 1.574 . S
C194 C210 1.368 . S
H195 C203 0.950 . S
H196 C201 0.950 . S
H197 C202 0.949 . S
H198 C204 0.950 . S
H199 C205 0.950 . S
H200 C206 0.949 . S
C201 H196 0.950 . S
C201 C203 1.327 . S
C201 C207 1.429 . S
C202 C194 1.574 . S
C202 H197 0.949 . S
C202 C208 1.368 . S
C203 C187 1.349 . S
C203 H195 0.950 . S
C203 C201 1.327 . S
C204 C192 1.349 . S
C204 H198 0.950 . S
C204 C205 1.327 . S
C205 H199 0.950 . S
C205 C204 1.327 . S
C205 C209 1.429 . S
C206 C189 1.574 . S
C206 H200 0.949 . S
C206 C210 1.368 . S
C207 C188 1.429 . S
C207 C201 1.429 . S
C207 C208 1.523 . S
C208 C189 1.368 . S
C208 C202 1.368 . S
C208 C207 1.523 . S
C209 C193 1.429 . S
C209 C205 1.429 . S
C209 C210 1.523 . S
C210 C194 1.368 . S
C210 C206 1.368 . S
C210 C209 1.523 . S
H211 C186 0.950 . S
H212 C188 0.950 . S
H213 C189 0.949 . S
H214 C191 0.950 . S
H215 C193 0.950 . S
C216 C217 1.349 . S
C216 C218 1.327 . S
C216 H241 0.950 . S
C217 C216 1.349 . S
C217 C233 1.349 . S
C218 C216 1.327 . S
C218 C237 1.429 . S
C218 H242 0.950 . S
C219 C236 1.574 . S
C219 C238 1.368 . S
C219 H243 0.949 . S
H220 C224 0.949 . S
C221 C222 1.349 . S
C221 C223 1.327 . S
C221 H244 0.950 . S
C222 C221 1.349 . S
C222 C234 1.349 . S
C223 C221 1.327 . S
C223 C239 1.429 . S
C223 H245 0.950 . S
C224 H220 0.949 . S
C224 C232 1.574 . S
C224 C240 1.368 . S
H225 C233 0.950 . S
H226 C231 0.950 . S
H227 C232 0.949 . S
H228 C234 0.950 . S
H229 C235 0.950 . S
H230 C236 0.949 . S
C231 H226 0.950 . S
C231 C233 1.327 . S
C231 C237 1.429 . S
C232 C224 1.574 . S
C232 H227 0.949 . S
C232 C238 1.368 . S
C233 C217 1.349 . S
C233 H225 0.950 . S
C233 C231 1.327 . S
C234 C222 1.349 . S
C234 H228 0.950 . S
C234 C235 1.327 . S
C235 H229 0.950 . S
C235 C234 1.327 . S
C235 C239 1.429 . S
C236 C219 1.574 . S
C236 H230 0.949 . S
C236 C240 1.368 . S
C237 C218 1.429 . S
C237 C231 1.429 . S
C237 C238 1.523 . S
C238 C219 1.368 . S
C238 C232 1.368 . S
C238 C237 1.523 . S
C239 C223 1.429 . S
C239 C235 1.429 . S
C239 C240 1.523 . S
C240 C224 1.368 . S
C240 C236 1.368 . S
C240 C239 1.523 . S
H241 C216 0.950 . S
H242 C218 0.950 . S
H243 C219 0.949 . S
H244 C221 0.950 . S
H245 C223 0.950 . S
C246 C247 1.349 . S
C246 C248 1.327 . S
C246 H271 0.950 . S
C247 C246 1.349 . S
C247 C263 1.349 . S
C248 C246 1.327 . S
C248 C267 1.429 . S
C248 H272 0.950 . S
C249 C266 1.574 . S
C249 C268 1.368 . S
C249 H273 0.949 . S
H250 C254 0.949 . S
C251 C252 1.349 . S
C251 C253 1.327 . S
C251 H274 0.950 . S
C252 C251 1.349 . S
C252 C264 1.349 . S
C253 C251 1.327 . S
C253 C269 1.429 . S
C253 H275 0.950 . S
C254 H250 0.949 . S
C254 C262 1.574 . S
C254 C270 1.368 . S
H255 C263 0.950 . S
H256 C261 0.950 . S
H257 C262 0.949 . S
H258 C264 0.950 . S
H259 C265 0.950 . S
H260 C266 0.949 . S
C261 H256 0.950 . S
C261 C263 1.327 . S
C261 C267 1.429 . S
C262 C254 1.574 . S
C262 H257 0.949 . S
C262 C268 1.368 . S
C263 C247 1.349 . S
C263 H255 0.950 . S
C263 C261 1.327 . S
C264 C252 1.349 . S
C264 H258 0.950 . S
C264 C265 1.327 . S
C265 H259 0.950 . S
C265 C264 1.327 . S
C265 C269 1.429 . S
C266 C249 1.574 . S
C266 H260 0.949 . S
C266 C270 1.368 . S
C267 C248 1.429 . S
C267 C261 1.429 . S
C267 C268 1.523 . S
C268 C249 1.368 . S
C268 C262 1.368 . S
C268 C267 1.523 . S
C269 C253 1.429 . S
C269 C265 1.429 . S
C269 C270 1.523 . S
C270 C254 1.368 . S
C270 C266 1.368 . S
C270 C269 1.523 . S
H271 C246 0.950 . S
H272 C248 0.950 . S
H273 C249 0.949 . S
H274 C251 0.950 . S
H275 C253 0.950 . S
C276 C277 1.349 . S
C276 C278 1.327 . S
C276 H301 0.950 . S
C277 C276 1.349 . S
C277 C293 1.349 . S
C278 C276 1.327 . S
C278 C297 1.429 . S
C278 H302 0.950 . S
C279 C296 1.574 . S
C279 C298 1.368 . S
C279 H303 0.949 . S
H280 C284 0.949 . S
C281 C282 1.349 . S
C281 C283 1.327 . S
C281 H304 0.950 . S
C282 C281 1.349 . S
C282 C294 1.349 . S
C283 C281 1.327 . S
C283 C299 1.429 . S
C283 H305 0.950 . S
C284 H280 0.949 . S
C284 C292 1.574 . S
C284 C300 1.368 . S
H285 C293 0.950 . S
H286 C291 0.950 . S
H287 C292 0.949 . S
H288 C294 0.950 . S
H289 C295 0.950 . S
H290 C296 0.949 . S
C291 H286 0.950 . S
C291 C293 1.327 . S
C291 C297 1.429 . S
C292 C284 1.574 . S
C292 H287 0.949 . S
C292 C298 1.368 . S
C293 C277 1.349 . S
C293 H285 0.950 . S
C293 C291 1.327 . S
C294 C282 1.349 . S
C294 H288 0.950 . S
C294 C295 1.327 . S
C295 H289 0.950 . S
C295 C294 1.327 . S
C295 C299 1.429 . S
C296 C279 1.574 . S
C296 H290 0.949 . S
C296 C300 1.368 . S
C297 C278 1.429 . S
C297 C291 1.429 . S
C297 C298 1.523 . S
C298 C279 1.368 . S
C298 C292 1.368 . S
C298 C297 1.523 . S
C299 C283 1.429 . S
C299 C295 1.429 . S
C299 C300 1.523 . S
C300 C284 1.368 . S
C300 C296 1.368 . S
C300 C299 1.523 . S
H301 C276 0.950 . S
H302 C278 0.950 . S
H303 C279 0.949 . S
H304 C281 0.950 . S
H305 C283 0.950 . S
C306 C307 1.349 . S
C306 C308 1.327 . S
C306 H331 0.950 . S
C307 C306 1.349 . S
C307 C323 1.349 . S
C308 C306 1.327 . S
C308 C327 1.429 . S
C308 H332 0.950 . S
C309 C326 1.574 . S
C309 C328 1.368 . S
C309 H333 0.949 . S
H310 C314 0.949 . S
C311 C312 1.349 . S
C311 C313 1.327 . S
C311 H334 0.950 . S
C312 C311 1.349 . S
C312 C324 1.349 . S
C313 C311 1.327 . S
C313 C329 1.429 . S
C313 H335 0.950 . S
C314 H310 0.949 . S
C314 C322 1.574 . S
C314 C330 1.368 . S
H315 C323 0.950 . S
H316 C321 0.950 . S
H317 C322 0.949 . S
H318 C324 0.950 . S
H319 C325 0.950 . S
H320 C326 0.949 . S
C321 H316 0.950 . S
C321 C323 1.327 . S
C321 C327 1.429 . S
C322 C314 1.574 . S
C322 H317 0.949 . S
C322 C328 1.368 . S
C323 C307 1.349 . S
C323 H315 0.950 . S
C323 C321 1.327 . S
C324 C312 1.349 . S
C324 H318 0.950 . S
C324 C325 1.327 . S
C325 H319 0.950 . S
C325 C324 1.327 . S
C325 C329 1.429 . S
C326 C309 1.574 . S
C326 H320 0.949 . S
C326 C330 1.368 . S
C327 C308 1.429 . S
C327 C321 1.429 . S
C327 C328 1.523 . S
C328 C309 1.368 . S
C328 C322 1.368 . S
C328 C327 1.523 . S
C329 C313 1.429 . S
C329 C325 1.429 . S
C329 C330 1.523 . S
C330 C314 1.368 . S
C330 C326 1.368 . S
C330 C329 1.523 . S
H331 C306 0.950 . S
H332 C308 0.950 . S
H333 C309 0.949 . S
H334 C311 0.950 . S
H335 C313 0.950 . S
C336 C337 1.349 . S
C336 C338 1.327 . S
C336 H361 0.950 . S
C337 C336 1.349 . S
C337 C353 1.349 . S
C338 C336 1.327 . S
C338 C357 1.429 . S
C338 H362 0.950 . S
C339 C356 1.574 . S
C339 C358 1.368 . S
C339 H363 0.949 . S
H340 C344 0.949 . S
C341 C342 1.349 . S
C341 C343 1.327 . S
C341 H364 0.950 . S
C342 C341 1.349 . S
C342 C354 1.349 . S
C343 C341 1.327 . S
C343 C359 1.429 . S
C343 H365 0.950 . S
C344 H340 0.949 . S
C344 C352 1.574 . S
C344 C360 1.368 . S
H345 C353 0.950 . S
H346 C351 0.950 . S
H347 C352 0.949 . S
H348 C354 0.950 . S
H349 C355 0.950 . S
H350 C356 0.949 . S
C351 H346 0.950 . S
C351 C353 1.327 . S
C351 C357 1.429 . S
C352 C344 1.574 . S
C352 H347 0.949 . S
C352 C358 1.368 . S
C353 C337 1.349 . S
C353 H345 0.950 . S
C353 C351 1.327 . S
C354 C342 1.349 . S
C354 H348 0.950 . S
C354 C355 1.327 . S
C355 H349 0.950 . S
C355 C354 1.327 . S
C355 C359 1.429 . S
C356 C339 1.574 . S
C356 H350 0.949 . S
C356 C360 1.368 . S
C357 C338 1.429 . S
C357 C351 1.429 . S
C357 C358 1.523 . S
C358 C339 1.368 . S
C358 C352 1.368 . S
C358 C357 1.523 . S
C359 C343 1.429 . S
C359 C355 1.429 . S
C359 C360 1.523 . S
C360 C344 1.368 . S
C360 C356 1.368 . S
C360 C359 1.523 . S
H361 C336 0.950 . S
H362 C338 0.950 . S
H363 C339 0.949 . S
H364 C341 0.950 . S
H365 C343 0.950 . S
C366 C367 1.349 . S
C366 C368 1.327 . S
C366 H391 0.950 . S
C367 C366 1.349 . S
C367 C383 1.349 . S
C368 C366 1.327 . S
C368 C387 1.429 . S
C368 H392 0.950 . S
C369 C386 1.574 . S
C369 C388 1.368 . S
C369 H393 0.949 . S
H370 C374 0.949 . S
C371 C372 1.349 . S
C371 C373 1.327 . S
C371 H394 0.950 . S
C372 C371 1.349 . S
C372 C384 1.349 . S
C373 C371 1.327 . S
C373 C389 1.429 . S
C373 H395 0.950 . S
C374 H370 0.949 . S
C374 C382 1.574 . S
C374 C390 1.368 . S
H375 C383 0.950 . S
H376 C381 0.950 . S
H377 C382 0.949 . S
H378 C384 0.950 . S
H379 C385 0.950 . S
H380 C386 0.949 . S
C381 H376 0.950 . S
C381 C383 1.327 . S
C381 C387 1.429 . S
C382 C374 1.574 . S
C382 H377 0.949 . S
C382 C388 1.368 . S
C383 C367 1.349 . S
C383 H375 0.950 . S
C383 C381 1.327 . S
C384 C372 1.349 . S
C384 H378 0.950 . S
C384 C385 1.327 . S
C385 H379 0.950 . S
C385 C384 1.327 . S
C385 C389 1.429 . S
C386 C369 1.574 . S
C386 H380 0.949 . S
C386 C390 1.368 . S
C387 C368 1.429 . S
C387 C381 1.429 . S
C387 C388 1.523 . S
C388 C369 1.368 . S
C388 C382 1.368 . S
C388 C387 1.523 . S
C389 C373 1.429 . S
C389 C385 1.429 . S
C389 C390 1.523 . S
C390 C374 1.368 . S
C390 C386 1.368 . S
C390 C389 1.523 . S
H391 C366 0.950 . S
H392 C368 0.950 . S
H393 C369 0.949 . S
H394 C371 0.950 . S
H395 C373 0.950 . S
C396 C397 1.349 . S
C396 C398 1.327 . S
C396 H421 0.950 . S
C397 C396 1.349 . S
C397 C413 1.349 . S
C398 C396 1.327 . S
C398 C417 1.429 . S
C398 H422 0.950 . S
C399 C416 1.574 . S
C399 C418 1.368 . S
C399 H423 0.949 . S
H400 C404 0.949 . S
C401 C402 1.349 . S
C401 C403 1.327 . S
C401 H424 0.950 . S
C402 C401 1.349 . S
C402 C414 1.349 . S
C403 C401 1.327 . S
C403 C419 1.429 . S
C403 H425 0.950 . S
C404 H400 0.949 . S
C404 C412 1.574 . S
C404 C420 1.368 . S
H405 C413 0.950 . S
H406 C411 0.950 . S
H407 C412 0.949 . S
H408 C414 0.950 . S
H409 C415 0.950 . S
H410 C416 0.949 . S
C411 H406 0.950 . S
C411 C413 1.327 . S
C411 C417 1.429 . S
C412 C404 1.574 . S
C412 H407 0.949 . S
C412 C418 1.368 . S
C413 C397 1.349 . S
C413 H405 0.950 . S
C413 C411 1.327 . S
C414 C402 1.349 . S
C414 H408 0.950 . S
C414 C415 1.327 . S
C415 H409 0.950 . S
C415 C414 1.327 . S
C415 C419 1.429 . S
C416 C399 1.574 . S
C416 H410 0.949 . S
C416 C420 1.368 . S
C417 C398 1.429 . S
C417 C411 1.429 . S
C417 C418 1.523 . S
C418 C399 1.368 . S
C418 C412 1.368 . S
C418 C417 1.523 . S
C419 C403 1.429 . S
C419 C415 1.429 . S
C419 C420 1.523 . S
C420 C404 1.368 . S
C420 C416 1.368 . S
C420 C419 1.523 . S
H421 C396 0.950 . S
H422 C398 0.950 . S
H423 C399 0.949 . S
H424 C401 0.950 . S
H425 C403 0.950 . S
C426 C427 1.349 . S
C426 C428 1.327 . S
C426 H451 0.950 . S
C427 C426 1.349 . S
C427 C443 1.349 . S
C428 C426 1.327 . S
C428 C447 1.429 . S
C428 H452 0.950 . S
C429 C446 1.574 . S
C429 C448 1.368 . S
C429 H453 0.949 . S
H430 C434 0.949 . S
C431 C432 1.349 . S
C431 C433 1.327 . S
C431 H454 0.950 . S
C432 C431 1.349 . S
C432 C444 1.349 . S
C433 C431 1.327 . S
C433 C449 1.429 . S
C433 H455 0.950 . S
C434 H430 0.949 . S
C434 C442 1.574 . S
C434 C450 1.368 . S
H435 C443 0.950 . S
H436 C441 0.950 . S
H437 C442 0.949 . S
H438 C444 0.950 . S
H439 C445 0.950 . S
H440 C446 0.949 . S
C441 H436 0.950 . S
C441 C443 1.327 . S
C441 C447 1.429 . S
C442 C434 1.574 . S
C442 H437 0.949 . S
C442 C448 1.368 . S
C443 C427 1.349 . S
C443 H435 0.950 . S
C443 C441 1.327 . S
C444 C432 1.349 . S
C444 H438 0.950 . S
C444 C445 1.327 . S
C445 H439 0.950 . S
C445 C444 1.327 . S
C445 C449 1.429 . S
C446 C429 1.574 . S
C446 H440 0.949 . S
C446 C450 1.368 . S
C447 C428 1.429 . S
C447 C441 1.429 . S
C447 C448 1.523 . S
C448 C429 1.368 . S
C448 C442 1.368 . S
C448 C447 1.523 . S
C449 C433 1.429 . S
C449 C445 1.429 . S
C449 C450 1.523 . S
C450 C434 1.368 . S
C450 C446 1.368 . S
C450 C449 1.523 . S
H451 C426 0.950 . S
H452 C428 0.950 . S
H453 C429 0.949 . S
H454 C431 0.950 . S
H455 C433 0.950 . S
C456 C457 1.349 . S
C456 C458 1.327 . S
C456 H481 0.950 . S
C457 C456 1.349 . S
C457 C473 1.349 . S
C458 C456 1.327 . S
C458 C477 1.429 . S
C458 H482 0.950 . S
C459 C476 1.574 . S
C459 C478 1.368 . S
C459 H483 0.949 . S
H460 C464 0.949 . S
C461 C462 1.349 . S
C461 C463 1.327 . S
C461 H484 0.950 . S
C462 C461 1.349 . S
C462 C474 1.349 . S
C463 C461 1.327 . S
C463 C479 1.429 . S
C463 H485 0.950 . S
C464 H460 0.949 . S
C464 C472 1.574 . S
C464 C480 1.368 . S
H465 C473 0.950 . S
H466 C471 0.950 . S
H467 C472 0.949 . S
H468 C474 0.950 . S
H469 C475 0.950 . S
H470 C476 0.949 . S
C471 H466 0.950 . S
C471 C473 1.327 . S
C471 C477 1.429 . S
C472 C464 1.574 . S
C472 H467 0.949 . S
C472 C478 1.368 . S
C473 C457 1.349 . S
C473 H465 0.950 . S
C473 C471 1.327 . S
C474 C462 1.349 . S
C474 H468 0.950 . S
C474 C475 1.327 . S
C475 H469 0.950 . S
C475 C474 1.327 . S
C475 C479 1.429 . S
C476 C459 1.574 . S
C476 H470 0.949 . S
C476 C480 1.368 . S
C477 C458 1.429 . S
C477 C471 1.429 . S
C477 C478 1.523 . S
C478 C459 1.368 . S
C478 C472 1.368 . S
C478 C477 1.523 . S
C479 C463 1.429 . S
C479 C475 1.429 . S
C479 C480 1.523 . S
C480 C464 1.368 . S
C480 C476 1.368 . S
C480 C479 1.523 . S
H481 C456 0.950 . S
H482 C458 0.950 . S
H483 C459 0.949 . S
H484 C461 0.950 . S
H485 C463 0.950 . S
C486 C487 1.349 . S
C486 C488 1.327 . S
C486 H511 0.950 . S
C487 C486 1.349 . S
C487 C503 1.349 . S
C488 C486 1.327 . S
C488 C507 1.429 . S
C488 H512 0.950 . S
C489 C506 1.574 . S
C489 C508 1.368 . S
C489 H513 0.949 . S
H490 C494 0.949 . S
C491 C492 1.349 . S
C491 C493 1.327 . S
C491 H514 0.950 . S
C492 C491 1.349 . S
C492 C504 1.349 . S
C493 C491 1.327 . S
C493 C509 1.429 . S
C493 H515 0.950 . S
C494 H490 0.949 . S
C494 C502 1.574 . S
C494 C510 1.368 . S
H495 C503 0.950 . S
H496 C501 0.950 . S
H497 C502 0.949 . S
H498 C504 0.950 . S
H499 C505 0.950 . S
H500 C506 0.949 . S
C501 H496 0.950 . S
C501 C503 1.327 . S
C501 C507 1.429 . S
C502 C494 1.574 . S
C502 H497 0.949 . S
C502 C508 1.368 . S
C503 C487 1.349 . S
C503 H495 0.950 . S
C503 C501 1.327 . S
C504 C492 1.349 . S
C504 H498 0.950 . S
C504 C505 1.327 . S
C505 H499 0.950 . S
C505 C504 1.327 . S
C505 C509 1.429 . S
C506 C489 1.574 . S
C506 H500 0.949 . S
C506 C510 1.368 . S
C507 C488 1.429 . S
C507 C501 1.429 . S
C507 C508 1.523 . S
C508 C489 1.368 . S
C508 C502 1.368 . S
C508 C507 1.523 . S
C509 C493 1.429 . S
C509 C505 1.429 . S
C509 C510 1.523 . S
C510 C494 1.368 . S
C510 C506 1.368 . S
C510 C509 1.523 . S
H511 C486 0.950 . S
H512 C488 0.950 . S
H513 C489 0.949 . S
H514 C491 0.950 . S
H515 C493 0.950 . S
C516 C517 1.349 . S
C516 C518 1.327 . S
C516 H541 0.950 . S
C517 C516 1.349 . S
C517 C533 1.349 . S
C518 C516 1.327 . S
C518 C537 1.429 . S
C518 H542 0.950 . S
C519 C536 1.574 . S
C519 C538 1.368 . S
C519 H543 0.949 . S
H520 C524 0.949 . S
C521 C522 1.349 . S
C521 C523 1.327 . S
C521 H544 0.950 . S
C522 C521 1.349 . S
C522 C534 1.349 . S
C523 C521 1.327 . S
C523 C539 1.429 . S
C523 H545 0.950 . S
C524 H520 0.949 . S
C524 C532 1.574 . S
C524 C540 1.368 . S
H525 C533 0.950 . S
H526 C531 0.950 . S
H527 C532 0.949 . S
H528 C534 0.950 . S
H529 C535 0.950 . S
H530 C536 0.949 . S
C531 H526 0.950 . S
C531 C533 1.327 . S
C531 C537 1.429 . S
C532 C524 1.574 . S
C532 H527 0.949 . S
C532 C538 1.368 . S
C533 C517 1.349 . S
C533 H525 0.950 . S
C533 C531 1.327 . S
C534 C522 1.349 . S
C534 H528 0.950 . S
C534 C535 1.327 . S
C535 H529 0.950 . S
C535 C534 1.327 . S
C535 C539 1.429 . S
C536 C519 1.574 . S
C536 H530 0.949 . S
C536 C540 1.368 . S
C537 C518 1.429 . S
C537 C531 1.429 . S
C537 C538 1.523 . S
C538 C519 1.368 . S
C538 C532 1.368 . S
C538 C537 1.523 . S
C539 C523 1.429 . S
C539 C535 1.429 . S
C539 C540 1.523 . S
C540 C524 1.368 . S
C540 C536 1.368 . S
C540 C539 1.523 . S
H541 C516 0.950 . S
H542 C518 0.950 . S
H543 C519 0.949 . S
H544 C521 0.950 . S
H545 C523 0.950 . S
C546 C547 1.349 1_655 S
C546 C548 1.327 . S
C546 H571 0.950 . S
C547 C546 1.349 1_455 S
C547 C563 1.349 . S
C548 C546 1.327 . S
C548 C567 1.429 1_655 S
C548 H572 0.950 . S
C549 C566 1.574 . S
C549 C568 1.368 . S
C549 H573 0.949 . S
H550 C554 0.949 1_556 S
C551 C552 1.349 . S
C551 C553 1.327 . S
C551 H574 0.950 . S
C552 C551 1.349 . S
C552 C564 1.349 1_455 S
C553 C551 1.327 . S
C553 C569 1.429 . S
C553 H575 0.950 . S
C554 H550 0.949 1_554 S
C554 C562 1.574 . S
C554 C570 1.368 1_654 S
H555 C563 0.950 . S
H556 C561 0.950 . S
H557 C562 0.949 . S
H558 C564 0.950 . S
H559 C565 0.950 . S
H560 C566 0.949 1_556 S
C561 H556 0.950 . S
C561 C563 1.327 . S
C561 C567 1.429 . S
C562 C554 1.574 . S
C562 H557 0.949 . S
C562 C568 1.368 1_655 S
C563 C547 1.349 . S
C563 H555 0.950 . S
C563 C561 1.327 . S
C564 C552 1.349 1_655 S
C564 H558 0.950 . S
C564 C565 1.327 . S
C565 H559 0.950 . S
C565 C564 1.327 . S
C565 C569 1.429 1_655 S
C566 C549 1.574 . S
C566 H560 0.949 1_554 S
C566 C570 1.368 1_554 S
C567 C548 1.429 1_455 S
C567 C561 1.429 . S
C567 C568 1.523 . S
C568 C549 1.368 . S
C568 C562 1.368 1_455 S
C568 C567 1.523 . S
C569 C553 1.429 . S
C569 C565 1.429 1_455 S
C569 C570 1.523 . S
C570 C554 1.368 1_456 S
C570 C566 1.368 1_556 S
C570 C569 1.523 . S
H571 C546 0.950 . S
H572 C548 0.950 . S
H573 C549 0.949 . S
H574 C551 0.950 . S
H575 C553 0.950 . S
C576 C577 1.349 . S
C576 C578 1.327 . S
C576 H601 0.950 . S
C577 C576 1.349 . S
C577 C593 1.349 . S
C578 C576 1.327 . S
C578 C597 1.429 . S
C578 H602 0.950 . S
C579 C596 1.574 . S
C579 C598 1.368 . S
C579 H603 0.949 1_545 S
H580 C584 0.949 . S
C581 C582 1.349 . S
C581 C583 1.327 . S
C581 H604 0.950 1_545 S
C582 C581 1.349 . S
C582 C594 1.349 . S
C583 C581 1.327 . S
C583 C599 1.429 . S
C583 H605 0.950 1_545 S
C584 H580 0.949 . S
C584 C592 1.574 . S
C584 C600 1.368 . S
H585 C593 0.950 1_565 S
H586 C591 0.950 1_565 S
H587 C592 0.949 . S
H588 C594 0.950 . S
H589 C595 0.950 . S
H590 C596 0.949 1_565 S
C591 H586 0.950 1_545 S
C591 C593 1.327 . S
C591 C597 1.429 . S
C592 C584 1.574 . S
C592 H587 0.949 . S
C592 C598 1.368 . S
C593 C577 1.349 . S
C593 H585 0.950 1_545 S
C593 C591 1.327 . S
C594 C582 1.349 . S
C594 H588 0.950 . S
C594 C595 1.327 . S
C595 H589 0.950 . S
C595 C594 1.327 . S
C595 C599 1.429 . S
C596 C579 1.574 . S
C596 H590 0.949 1_545 S
C596 C600 1.368 . S
C597 C578 1.429 . S
C597 C591 1.429 . S
C597 C598 1.523 . S
C598 C579 1.368 . S
C598 C592 1.368 . S
C598 C597 1.523 . S
C599 C583 1.429 . S
C599 C595 1.429 . S
C599 C600 1.523 . S
C600 C584 1.368 . S
C600 C596 1.368 . S
C600 C599 1.523 . S
H601 C576 0.950 . S
H602 C578 0.950 . S
H603 C579 0.949 1_565 S
H604 C581 0.950 1_565 S
H605 C583 0.950 1_565 S
C606 C607 1.349 . S
C606 C608 1.327 . S
C606 H631 0.950 . S
C607 C606 1.349 . S
C607 C623 1.349 . S
C608 C606 1.327 . S
C608 C627 1.429 . S
C608 H632 0.950 . S
C609 C626 1.574 . S
C609 C628 1.368 . S
C609 H633 0.949 . S
H610 C614 0.949 . S
C611 C612 1.349 . S
C611 C613 1.327 . S
C611 H634 0.950 . S
C612 C611 1.349 . S
C612 C624 1.349 . S
C613 C611 1.327 . S
C613 C629 1.429 . S
C613 H635 0.950 . S
C614 H610 0.949 . S
C614 C622 1.574 . S
C614 C630 1.368 . S
H615 C623 0.950 . S
H616 C621 0.950 . S
H617 C622 0.949 . S
H618 C624 0.950 . S
H619 C625 0.950 . S
H620 C626 0.949 . S
C621 H616 0.950 . S
C621 C623 1.327 . S
C621 C627 1.429 . S
C622 C614 1.574 . S
C622 H617 0.949 . S
C622 C628 1.368 . S
C623 C607 1.349 . S
C623 H615 0.950 . S
C623 C621 1.327 . S
C624 C612 1.349 . S
C624 H618 0.950 . S
C624 C625 1.327 . S
C625 H619 0.950 . S
C625 C624 1.327 . S
C625 C629 1.429 . S
C626 C609 1.574 . S
C626 H620 0.949 . S
C626 C630 1.368 . S
C627 C608 1.429 . S
C627 C621 1.429 . S
C627 C628 1.523 . S
C628 C609 1.368 . S
C628 C622 1.368 . S
C628 C627 1.523 . S
C629 C613 1.429 . S
C629 C625 1.429 . S
C629 C630 1.523 . S
C630 C614 1.368 . S
C630 C626 1.368 . S
C630 C629 1.523 . S
H631 C606 0.950 . S
H632 C608 0.950 . S
H633 C609 0.949 . S
H634 C611 0.950 . S
H635 C613 0.950 . S
C636 C637 1.349 . S
C636 C638 1.327 . S
C636 H661 0.950 . S
C637 C636 1.349 . S
C637 C653 1.349 1_545 S
C638 C636 1.327 . S
C638 C657 1.429 . S
C638 H662 0.950 . S
C639 C656 1.574 . S
C639 C658 1.368 1_565 S
C639 H663 0.949 . S
H640 C644 0.949 . S
C641 C642 1.349 1_565 S
C641 C643 1.327 . S
C641 H664 0.950 . S
C642 C641 1.349 1_545 S
C642 C654 1.349 . S
C643 C641 1.327 . S
C643 C659 1.429 1_565 S
C643 H665 0.950 . S
C644 H640 0.949 . S
C644 C652 1.574 . S
C644 C660 1.368 . S
H645 C653 0.950 . S
H646 C651 0.950 . S
H647 C652 0.949 . S
H648 C654 0.950 . S
H649 C655 0.950 . S
H650 C656 0.949 . S
C651 H646 0.950 . S
C651 C653 1.327 . S
C651 C657 1.429 1_565 S
C652 C644 1.574 . S
C652 H647 0.949 . S
C652 C658 1.368 . S
C653 C637 1.349 1_565 S
C653 H645 0.950 . S
C653 C651 1.327 . S
C654 C642 1.349 . S
C654 H648 0.950 . S
C654 C655 1.327 . S
C655 H649 0.950 . S
C655 C654 1.327 . S
C655 C659 1.429 . S
C656 C639 1.574 . S
C656 H650 0.949 . S
C656 C660 1.368 1_565 S
C657 C638 1.429 . S
C657 C651 1.429 1_545 S
C657 C658 1.523 . S
C658 C639 1.368 1_545 S
C658 C652 1.368 . S
C658 C657 1.523 . S
C659 C643 1.429 1_545 S
C659 C655 1.429 . S
C659 C660 1.523 . S
C660 C644 1.368 . S
C660 C656 1.368 1_545 S
C660 C659 1.523 . S
H661 C636 0.950 . S
H662 C638 0.950 . S
H663 C639 0.949 . S
H664 C641 0.950 . S
H665 C643 0.950 . S
C666 C667 1.349 . S
C666 C668 1.327 . S
C666 H691 0.950 . S
C667 C666 1.349 . S
C667 C683 1.349 . S
C668 C666 1.327 . S
C668 C687 1.429 . S
C668 H692 0.950 . S
C669 C686 1.574 . S
C669 C688 1.368 . S
C669 H693 0.949 . S
H670 C674 0.961 . S
C671 C672 1.349 . S
C671 C673 1.327 . S
C671 H694 0.950 . S
C672 C671 1.349 . S
C672 C684 1.349 . S
C673 C671 1.327 . S
C673 C689 1.429 . S
C673 H695 0.950 . S
C674 H670 0.961 . S
C674 C682 1.554 1_554 S
C674 C690 1.375 . S
H675 C683 0.950 . S
H676 C681 0.950 . S
H677 C682 0.949 . S
H678 C684 0.950 . S
H679 C685 0.950 . S
H680 C686 0.949 1_554 S
C681 H676 0.950 . S
C681 C683 1.327 . S
C681 C687 1.429 . S
C682 C674 1.554 1_556 S
C682 H677 0.949 . S
C682 C688 1.368 . S
C683 C667 1.349 . S
C683 H675 0.950 . S
C683 C681 1.327 . S
C684 C672 1.349 . S
C684 H678 0.950 . S
C684 C685 1.327 . S
C685 H679 0.950 . S
C685 C684 1.327 . S
C685 C689 1.429 . S
C686 C669 1.574 . S
C686 H680 0.949 1_556 S
C686 C690 1.368 1_556 S
C687 C668 1.429 . S
C687 C681 1.429 . S
C687 C688 1.523 . S
C688 C669 1.368 . S
C688 C682 1.368 . S
C688 C687 1.523 . S
C689 C673 1.429 . S
C689 C685 1.429 . S
C689 C690 1.523 . S
C690 C674 1.375 . S
C690 C686 1.368 1_554 S
C690 C689 1.523 . S
H691 C666 0.950 . S
H692 C668 0.950 . S
H693 C669 0.949 . S
H694 C671 0.950 . S
H695 C673 0.950 . S
C696 C697 1.349 . S
C696 C698 1.327 . S
C696 H721 0.950 . S
C697 C696 1.349 . S
C697 C713 1.349 . S
C698 C696 1.327 . S
C698 C717 1.429 . S
C698 H722 0.950 . S
C699 C716 1.576 . S
C699 C718 1.356 1_655 S
C699 H723 0.960 . S
H700 C704 0.949 . S
C701 C702 1.349 . S
C701 C703 1.327 . S
C701 H724 0.950 . S
C702 C701 1.349 . S
C702 C714 1.347 . S
C703 C701 1.327 . S
C703 C719 1.442 . S
C703 H725 0.950 . S
C704 H700 0.949 . S
C704 C712 1.574 . S
C704 C720 1.371 . S
H705 C713 0.950 . S
H706 C711 0.940 1_655 S
H707 C712 0.949 . S
H708 C714 0.951 1_455 S
H709 C715 0.950 . S
H710 C716 0.949 . S
C711 H706 0.940 1_455 S
C711 C713 1.327 . S
C711 C717 1.429 . S
C712 C704 1.574 . S
C712 H707 0.949 . S
C712 C718 1.368 . S
C713 C697 1.349 . S
C713 H705 0.950 . S
C713 C711 1.327 . S
C714 C702 1.347 . S
C714 H708 0.951 1_655 S
C714 C715 1.327 1_655 S
C715 H709 0.950 . S
C715 C714 1.327 1_455 S
C715 C719 1.418 1_455 S
C716 C699 1.576 . S
C716 H710 0.949 . S
C716 C720 1.366 1_655 S
C717 C698 1.429 . S
C717 C711 1.429 . S
C717 C718 1.523 . S
C718 C699 1.356 1_455 S
C718 C712 1.368 . S
C718 C717 1.523 . S
C719 C703 1.442 . S
C719 C715 1.418 1_655 S
C719 C720 1.521 1_655 S
C720 C704 1.371 . S
C720 C716 1.366 1_455 S
C720 C719 1.521 1_455 S
H721 C696 0.950 . S
H722 C698 0.950 . S
H723 C699 0.960 . S
H724 C701 0.950 . S
H725 C703 0.950 . S
C187 C19 2.054 . S
C192 C180 1.777 . S
C217 C46 1.361 . S
C222 C158 1.182 . S
C247 C95 0.261 . S
C252 C172 0.257 . S
C277 C10 1.790 . S
C282 C183 1.751 . S
C312 C161 1.003 . S
C307 C55 1.019 . S
C342 C169 0.715 . S
C337 C86 0.558 . S
C367 C59 3.290 . S
C372 C136 2.941 . S
C397 C90 2.129 . S
C402 C147 1.828 . S
C427 C15 1.422 . S
C432 C125 1.212 . S
C462 C139 2.751 . S
C457 C50 2.802 . S
C492 C150 1.682 . S
C487 C99 1.719 . S
C517 C6 0.959 . S
C522 C128 0.947 . S
C552 C149 1.402 . S
C547 C9 1.414 . S
C577 C58 1.471 . S
C582 C127 1.468 . S
C607 C98 1.639 . S
C612 C138 1.636 . S
C642 C171 1.222 . S
C637 C49 1.246 . S
C672 C182 1.400 . S
C667 C89 1.419 . S
C697 C18 1.487 . S
C702 C160 1.458 . S
