# Generated by pormake.
# Topology ibd, (4,6)-cn, num edge types: 1
# Building blocks:
#     Node 0, Type 0, BuildingBlock: QUQFOY_clean_sbu_3, # of connection points: 4
#     Node 1, Type 0, BuildingBlock: QUQFOY_clean_sbu_3, # of connection points: 4
#     Node 2, Type 0, BuildingBlock: QUQFOY_clean_sbu_3, # of connection points: 4
#     Node 3, Type 0, BuildingBlock: QUQFOY_clean_sbu_3, # of connection points: 4
#     Node 4, Type 0, BuildingBlock: QUQFOY_clean_sbu_3, # of connection points: 4
#     Node 5, Type 0, BuildingBlock: QUQFOY_clean_sbu_3, # of connection points: 4
#     Node 6, Type 0, BuildingBlock: QUQFOY_clean_sbu_3, # of connection points: 4
#     Node 7, Type 0, BuildingBlock: QUQFOY_clean_sbu_3, # of connection points: 4
#     Node 8, Type 0, BuildingBlock: QUQFOY_clean_sbu_3, # of connection points: 4
#     Node 9, Type 0, BuildingBlock: QUQFOY_clean_sbu_3, # of connection points: 4
#     Node 10, Type 0, BuildingBlock: QUQFOY_clean_sbu_3, # of connection points: 4
#     Node 11, Type 0, BuildingBlock: QUQFOY_clean_sbu_3, # of connection points: 4
#     Node 12, Type 0, BuildingBlock: QUQFOY_clean_sbu_3, # of connection points: 4
#     Node 13, Type 0, BuildingBlock: QUQFOY_clean_sbu_3, # of connection points: 4
#     Node 14, Type 0, BuildingBlock: QUQFOY_clean_sbu_3, # of connection points: 4
#     Node 15, Type 0, BuildingBlock: QUQFOY_clean_sbu_3, # of connection points: 4
#     Node 16, Type 0, BuildingBlock: QUQFOY_clean_sbu_3, # of connection points: 4
#     Node 17, Type 0, BuildingBlock: QUQFOY_clean_sbu_3, # of connection points: 4
#     Node 18, Type 0, BuildingBlock: QUQFOY_clean_sbu_3, # of connection points: 4
#     Node 19, Type 0, BuildingBlock: QUQFOY_clean_sbu_3, # of connection points: 4
#     Node 20, Type 0, BuildingBlock: QUQFOY_clean_sbu_3, # of connection points: 4
#     Node 21, Type 0, BuildingBlock: QUQFOY_clean_sbu_3, # of connection points: 4
#     Node 22, Type 0, BuildingBlock: QUQFOY_clean_sbu_3, # of connection points: 4
#     Node 23, Type 0, BuildingBlock: QUQFOY_clean_sbu_3, # of connection points: 4
#     Node 24, Type 1, BuildingBlock: IZENUY_clean_sbu_0, # of connection points: 6
#     Node 25, Type 1, BuildingBlock: IZENUY_clean_sbu_0, # of connection points: 6
#     Node 26, Type 1, BuildingBlock: IZENUY_clean_sbu_0, # of connection points: 6
#     Node 27, Type 1, BuildingBlock: IZENUY_clean_sbu_0, # of connection points: 6
#     Node 28, Type 1, BuildingBlock: IZENUY_clean_sbu_0, # of connection points: 6
#     Node 29, Type 1, BuildingBlock: IZENUY_clean_sbu_0, # of connection points: 6
#     Node 30, Type 1, BuildingBlock: IZENUY_clean_sbu_0, # of connection points: 6
#     Node 31, Type 1, BuildingBlock: IZENUY_clean_sbu_0, # of connection points: 6
#     Node 32, Type 1, BuildingBlock: IZENUY_clean_sbu_0, # of connection points: 6
#     Node 33, Type 1, BuildingBlock: IZENUY_clean_sbu_0, # of connection points: 6
#     Node 34, Type 1, BuildingBlock: IZENUY_clean_sbu_0, # of connection points: 6
#     Node 35, Type 1, BuildingBlock: IZENUY_clean_sbu_0, # of connection points: 6
#     Node 36, Type 1, BuildingBlock: IZENUY_clean_sbu_0, # of connection points: 6
#     Node 37, Type 1, BuildingBlock: IZENUY_clean_sbu_0, # of connection points: 6
#     Node 38, Type 1, BuildingBlock: IZENUY_clean_sbu_0, # of connection points: 6
#     Node 39, Type 1, BuildingBlock: IZENUY_clean_sbu_0, # of connection points: 6
#     Edge 40, Type (0, 1), BuildingBlock: XIVTED_clean_linker_0, # of connection points: 2
#     Edge 41, Type (0, 1), BuildingBlock: XIVTED_clean_linker_0, # of connection points: 2
#     Edge 42, Type (0, 1), BuildingBlock: XIVTED_clean_linker_0, # of connection points: 2
#     Edge 43, Type (0, 1), BuildingBlock: XIVTED_clean_linker_0, # of connection points: 2
#     Edge 44, Type (0, 1), BuildingBlock: XIVTED_clean_linker_0, # of connection points: 2
#     Edge 45, Type (0, 1), BuildingBlock: XIVTED_clean_linker_0, # of connection points: 2
#     Edge 46, Type (0, 1), BuildingBlock: XIVTED_clean_linker_0, # of connection points: 2
#     Edge 47, Type (0, 1), BuildingBlock: XIVTED_clean_linker_0, # of connection points: 2
#     Edge 48, Type (0, 1), BuildingBlock: XIVTED_clean_linker_0, # of connection points: 2
#     Edge 49, Type (0, 1), BuildingBlock: XIVTED_clean_linker_0, # of connection points: 2
#     Edge 50, Type (0, 1), BuildingBlock: XIVTED_clean_linker_0, # of connection points: 2
#     Edge 51, Type (0, 1), BuildingBlock: XIVTED_clean_linker_0, # of connection points: 2
#     Edge 52, Type (0, 1), BuildingBlock: XIVTED_clean_linker_0, # of connection points: 2
#     Edge 53, Type (0, 1), BuildingBlock: XIVTED_clean_linker_0, # of connection points: 2
#     Edge 54, Type (0, 1), BuildingBlock: XIVTED_clean_linker_0, # of connection points: 2
#     Edge 55, Type (0, 1), BuildingBlock: XIVTED_clean_linker_0, # of connection points: 2
#     Edge 56, Type (0, 1), BuildingBlock: XIVTED_clean_linker_0, # of connection points: 2
#     Edge 57, Type (0, 1), BuildingBlock: XIVTED_clean_linker_0, # of connection points: 2
#     Edge 58, Type (0, 1), BuildingBlock: XIVTED_clean_linker_0, # of connection points: 2
#     Edge 59, Type (0, 1), BuildingBlock: XIVTED_clean_linker_0, # of connection points: 2
#     Edge 60, Type (0, 1), BuildingBlock: XIVTED_clean_linker_0, # of connection points: 2
#     Edge 61, Type (0, 1), BuildingBlock: XIVTED_clean_linker_0, # of connection points: 2
#     Edge 62, Type (0, 1), BuildingBlock: XIVTED_clean_linker_0, # of connection points: 2
#     Edge 63, Type (0, 1), BuildingBlock: XIVTED_clean_linker_0, # of connection points: 2
#     Edge 64, Type (0, 1), BuildingBlock: XIVTED_clean_linker_0, # of connection points: 2
#     Edge 65, Type (0, 1), BuildingBlock: XIVTED_clean_linker_0, # of connection points: 2
#     Edge 66, Type (0, 1), BuildingBlock: XIVTED_clean_linker_0, # of connection points: 2
#     Edge 67, Type (0, 1), BuildingBlock: XIVTED_clean_linker_0, # of connection points: 2
#     Edge 68, Type (0, 1), BuildingBlock: XIVTED_clean_linker_0, # of connection points: 2
#     Edge 69, Type (0, 1), BuildingBlock: XIVTED_clean_linker_0, # of connection points: 2
#     Edge 70, Type (0, 1), BuildingBlock: XIVTED_clean_linker_0, # of connection points: 2
#     Edge 71, Type (0, 1), BuildingBlock: XIVTED_clean_linker_0, # of connection points: 2
#     Edge 72, Type (0, 1), BuildingBlock: XIVTED_clean_linker_0, # of connection points: 2
#     Edge 73, Type (0, 1), BuildingBlock: XIVTED_clean_linker_0, # of connection points: 2
#     Edge 74, Type (0, 1), BuildingBlock: XIVTED_clean_linker_0, # of connection points: 2
#     Edge 75, Type (0, 1), BuildingBlock: XIVTED_clean_linker_0, # of connection points: 2
#     Edge 76, Type (0, 1), BuildingBlock: XIVTED_clean_linker_0, # of connection points: 2
#     Edge 77, Type (0, 1), BuildingBlock: XIVTED_clean_linker_0, # of connection points: 2
#     Edge 78, Type (0, 1), BuildingBlock: XIVTED_clean_linker_0, # of connection points: 2
#     Edge 79, Type (0, 1), BuildingBlock: XIVTED_clean_linker_0, # of connection points: 2
#     Edge 80, Type (0, 1), BuildingBlock: XIVTED_clean_linker_0, # of connection points: 2
#     Edge 81, Type (0, 1), BuildingBlock: XIVTED_clean_linker_0, # of connection points: 2
#     Edge 82, Type (0, 1), BuildingBlock: XIVTED_clean_linker_0, # of connection points: 2
#     Edge 83, Type (0, 1), BuildingBlock: XIVTED_clean_linker_0, # of connection points: 2
#     Edge 84, Type (0, 1), BuildingBlock: XIVTED_clean_linker_0, # of connection points: 2
#     Edge 85, Type (0, 1), BuildingBlock: XIVTED_clean_linker_0, # of connection points: 2
#     Edge 86, Type (0, 1), BuildingBlock: XIVTED_clean_linker_0, # of connection points: 2
#     Edge 87, Type (0, 1), BuildingBlock: XIVTED_clean_linker_0, # of connection points: 2
#     Edge 88, Type (0, 1), BuildingBlock: XIVTED_clean_linker_0, # of connection points: 2
#     Edge 89, Type (0, 1), BuildingBlock: XIVTED_clean_linker_0, # of connection points: 2
#     Edge 90, Type (0, 1), BuildingBlock: XIVTED_clean_linker_0, # of connection points: 2
#     Edge 91, Type (0, 1), BuildingBlock: XIVTED_clean_linker_0, # of connection points: 2
#     Edge 92, Type (0, 1), BuildingBlock: XIVTED_clean_linker_0, # of connection points: 2
#     Edge 93, Type (0, 1), BuildingBlock: XIVTED_clean_linker_0, # of connection points: 2
#     Edge 94, Type (0, 1), BuildingBlock: XIVTED_clean_linker_0, # of connection points: 2
#     Edge 95, Type (0, 1), BuildingBlock: XIVTED_clean_linker_0, # of connection points: 2
#     Edge 96, Type (0, 1), BuildingBlock: XIVTED_clean_linker_0, # of connection points: 2
#     Edge 97, Type (0, 1), BuildingBlock: XIVTED_clean_linker_0, # of connection points: 2
#     Edge 98, Type (0, 1), BuildingBlock: XIVTED_clean_linker_0, # of connection points: 2
#     Edge 99, Type (0, 1), BuildingBlock: XIVTED_clean_linker_0, # of connection points: 2
#     Edge 100, Type (0, 1), BuildingBlock: XIVTED_clean_linker_0, # of connection points: 2
#     Edge 101, Type (0, 1), BuildingBlock: XIVTED_clean_linker_0, # of connection points: 2
#     Edge 102, Type (0, 1), BuildingBlock: XIVTED_clean_linker_0, # of connection points: 2
#     Edge 103, Type (0, 1), BuildingBlock: XIVTED_clean_linker_0, # of connection points: 2
#     Edge 104, Type (0, 1), BuildingBlock: XIVTED_clean_linker_0, # of connection points: 2
#     Edge 105, Type (0, 1), BuildingBlock: XIVTED_clean_linker_0, # of connection points: 2
#     Edge 106, Type (0, 1), BuildingBlock: XIVTED_clean_linker_0, # of connection points: 2
#     Edge 107, Type (0, 1), BuildingBlock: XIVTED_clean_linker_0, # of connection points: 2
#     Edge 108, Type (0, 1), BuildingBlock: XIVTED_clean_linker_0, # of connection points: 2
#     Edge 109, Type (0, 1), BuildingBlock: XIVTED_clean_linker_0, # of connection points: 2
#     Edge 110, Type (0, 1), BuildingBlock: XIVTED_clean_linker_0, # of connection points: 2
#     Edge 111, Type (0, 1), BuildingBlock: XIVTED_clean_linker_0, # of connection points: 2
#     Edge 112, Type (0, 1), BuildingBlock: XIVTED_clean_linker_0, # of connection points: 2
#     Edge 113, Type (0, 1), BuildingBlock: XIVTED_clean_linker_0, # of connection points: 2
#     Edge 114, Type (0, 1), BuildingBlock: XIVTED_clean_linker_0, # of connection points: 2
#     Edge 115, Type (0, 1), BuildingBlock: XIVTED_clean_linker_0, # of connection points: 2
#     Edge 116, Type (0, 1), BuildingBlock: XIVTED_clean_linker_0, # of connection points: 2
#     Edge 117, Type (0, 1), BuildingBlock: XIVTED_clean_linker_0, # of connection points: 2
#     Edge 118, Type (0, 1), BuildingBlock: XIVTED_clean_linker_0, # of connection points: 2
#     Edge 119, Type (0, 1), BuildingBlock: XIVTED_clean_linker_0, # of connection points: 2
#     Edge 120, Type (0, 1), BuildingBlock: XIVTED_clean_linker_0, # of connection points: 2
#     Edge 121, Type (0, 1), BuildingBlock: XIVTED_clean_linker_0, # of connection points: 2
#     Edge 122, Type (0, 1), BuildingBlock: XIVTED_clean_linker_0, # of connection points: 2
#     Edge 123, Type (0, 1), BuildingBlock: XIVTED_clean_linker_0, # of connection points: 2
#     Edge 124, Type (0, 1), BuildingBlock: XIVTED_clean_linker_0, # of connection points: 2
#     Edge 125, Type (0, 1), BuildingBlock: XIVTED_clean_linker_0, # of connection points: 2
#     Edge 126, Type (0, 1), BuildingBlock: XIVTED_clean_linker_0, # of connection points: 2
#     Edge 127, Type (0, 1), BuildingBlock: XIVTED_clean_linker_0, # of connection points: 2
#     Edge 128, Type (0, 1), BuildingBlock: XIVTED_clean_linker_0, # of connection points: 2
#     Edge 129, Type (0, 1), BuildingBlock: XIVTED_clean_linker_0, # of connection points: 2
#     Edge 130, Type (0, 1), BuildingBlock: XIVTED_clean_linker_0, # of connection points: 2
#     Edge 131, Type (0, 1), BuildingBlock: XIVTED_clean_linker_0, # of connection points: 2
#     Edge 132, Type (0, 1), BuildingBlock: XIVTED_clean_linker_0, # of connection points: 2
#     Edge 133, Type (0, 1), BuildingBlock: XIVTED_clean_linker_0, # of connection points: 2
#     Edge 134, Type (0, 1), BuildingBlock: XIVTED_clean_linker_0, # of connection points: 2
#     Edge 135, Type (0, 1), BuildingBlock: XIVTED_clean_linker_0, # of connection points: 2
# Relax obj value: 0.309
# Max RMSD: 0.289
# Mean RMSD: 0.261
data_MOF--net-ibd--node1-QUQFOY_clean_sbu_3--node2-IZENUY_clean_sbu_0--edge1-XIVTED_clean_linker_0
_symmetry_space_group_name_H-M    P1
_symmetry_Int_Tables_number       1
_symmetry_cell_setting            triclinic
loop_
_symmetry_equiv_pos_as_xyz
'x, y, z'
_cell_length_a     49.999531
_cell_length_b     49.98937
_cell_length_c     50.036822
_cell_angle_alpha  90.191088
_cell_angle_beta   90.075188
_cell_angle_gamma 91.056929
loop_
_atom_site_label
_atom_site_type_symbol
_atom_site_fract_x
_atom_site_fract_y
_atom_site_fract_z
_atom_type_partial_charge
C0 C 0.96263 0.23394 0.41204 0.0
O1 O 0.94903 0.25514 0.41107 0.0
Cd2 Cd 0.94543 0.2857 0.37454 0.0
O3 O 0.97825 0.22749 0.39307 0.0
Cd4 Cd -0.00724 0.25174 0.35232 0.0
C5 C 0.00654 0.3113 0.38427 0.0
O6 O 0.9471 0.2573 0.33595 0.0
O7 O 0.97869 0.27308 0.31093 0.0
O8 O 0.00995 0.20985 0.33424 0.0
C9 C 0.95408 0.26756 0.31394 0.0
O10 O 0.98198 0.31725 0.38288 0.0
C11 C 0.0316 0.22056 0.32579 0.0
O12 O 0.01434 0.28862 0.37618 0.0
O13 O 0.03546 0.24519 0.33098 0.0
C14 C 0.01323 0.80497 0.59645 0.0
O15 O -0.01015 0.81437 0.59818 0.0
Cd16 Cd 0.95243 0.79496 0.62069 0.0
O17 O 0.01921 0.78312 0.60796 0.0
Cd18 Cd -0.00255 0.74928 0.63727 0.0
C19 C 0.95271 0.73367 0.58861 0.0
O20 O 0.97239 0.78142 0.66079 0.0
O21 O 0.96143 0.74085 0.67064 0.0
O22 O 0.03808 0.74564 0.66358 0.0
C23 C 0.95791 0.76562 0.6743 0.0
O24 O 0.94096 0.75554 0.59366 0.0
C25 C 0.03854 0.72025 0.66268 0.0
O26 O 0.97425 0.72755 0.60052 0.0
O27 O 0.02046 0.70848 0.64892 0.0
C28 C 0.45347 0.7272 0.90358 0.0
O29 O 0.43714 0.7461 0.90022 0.0
Cd30 Cd 0.43967 0.78187 0.8692 0.0
O31 O 0.47438 0.72504 0.88915 0.0
Cd32 Cd 0.49298 0.75038 0.85026 0.0
C33 C 0.50077 0.80672 0.88838 0.0
O34 O 0.44902 0.75491 0.83135 0.0
O35 O 0.4806 0.77203 0.80751 0.0
O36 O 0.51257 0.70886 0.83435 0.0
C37 C 0.45598 0.76622 0.80997 0.0
O38 O 0.47565 0.81031 0.88744 0.0
C39 C 0.53423 0.72013 0.82666 0.0
O40 O 0.51102 0.78663 0.877 0.0
O41 O 0.53697 0.745 0.83127 0.0
C42 C 0.49962 0.30372 0.09268 0.0
O43 O 0.47645 0.31338 0.09543 0.0
Cd44 Cd 0.44109 0.29422 0.12154 0.0
O45 O 0.50623 0.28251 0.10494 0.0
Cd46 Cd 0.48732 0.24963 0.1366 0.0
C47 C 0.44056 0.23267 0.09032 0.0
O48 O 0.46302 0.28157 0.16119 0.0
O49 O 0.45355 0.24076 0.17178 0.0
O50 O 0.52954 0.24727 0.16055 0.0
C51 C 0.44974 0.26547 0.17559 0.0
O52 O 0.42864 0.2544 0.09555 0.0
C53 C 0.5308 0.22194 0.15917 0.0
O54 O 0.46262 0.22707 0.1015 0.0
O55 O 0.51226 0.20972 0.14644 0.0
C56 C 0.91892 0.70945 0.1402 0.0
O57 O 0.90542 0.7305 0.13707 0.0
Cd58 Cd 0.92385 0.77116 0.11991 0.0
O59 O 0.94285 0.70818 0.1316 0.0
Cd60 Cd 0.97651 0.73352 0.10555 0.0
C61 C 0.98138 0.77387 0.15929 0.0
O62 O 0.94524 0.75783 0.08021 0.0
O63 O 0.986 0.77209 0.07623 0.0
O64 O 0.98153 0.6937 0.0789 0.0
C65 C 0.96156 0.77451 0.07009 0.0
O66 O 0.95804 0.78201 0.15357 0.0
C67 C 0.00689 0.69351 0.0802 0.0
O68 O -0.00722 0.75604 0.14534 0.0
O69 O 0.01829 0.71179 0.09407 0.0
C70 C 0.50514 0.77575 0.32925 0.0
O71 O 0.48711 0.79309 0.33224 0.0
Cd72 Cd 0.45063 0.79129 0.36258 0.0
O73 O 0.50571 0.75477 0.34366 0.0
Cd74 Cd 0.47873 0.73757 0.38185 0.0
C75 C 0.42342 0.7314 0.34263 0.0
O76 O 0.47504 0.7815 0.40203 0.0
O77 O 0.45457 0.74963 0.42291 0.0
O78 O 0.51981 0.71843 0.39909 0.0
C79 C 0.46203 0.77396 0.42228 0.0
O80 O 0.42085 0.75664 0.34395 0.0
C81 C 0.50848 0.69691 0.40701 0.0
O82 O 0.44295 0.72017 0.35402 0.0
O83 O 0.48377 0.69386 0.40178 0.0
C84 C 0.42654 0.21919 0.63897 0.0
O85 O 0.41651 0.24233 0.63757 0.0
Cd86 Cd 0.43588 0.28027 0.61561 0.0
O87 O 0.44838 0.21392 0.62714 0.0
Cd88 Cd 0.48148 0.23546 0.59745 0.0
C89 C 0.49767 0.27897 0.64696 0.0
O90 O 0.44996 0.26193 0.57486 0.0
O91 O 0.49084 0.27218 0.56537 0.0
O92 O 0.48251 0.19515 0.57057 0.0
C93 C 0.46619 0.2767 0.56213 0.0
O94 O 0.47575 0.29082 0.64239 0.0
C95 C 0.50776 0.19297 0.57149 0.0
O96 O 0.50373 0.25765 0.63455 0.0
O97 O 0.52074 0.21032 0.58517 0.0
C98 C -0.00076 0.27665 0.82357 0.0
O99 O 0.98043 0.29277 0.82822 0.0
Cd100 Cd 0.9464 0.28916 0.86119 0.0
O101 O 0.00238 0.25571 0.83766 0.0
Cd102 Cd 0.97972 0.23651 0.87771 0.0
C103 C 0.92151 0.22759 0.84313 0.0
O104 O 0.97383 0.2797 0.89852 0.0
O105 O 0.95711 0.24637 0.9203 0.0
O106 O 0.02283 0.22059 0.89353 0.0
C107 C 0.96236 0.2712 0.91932 0.0
O108 O 0.91764 0.25263 0.84484 0.0
C109 C 0.01361 0.19788 0.90078 0.0
O110 O 0.94257 0.21743 0.8527 0.0
O111 O -0.01081 0.19275 0.8956 0.0
C112 C 0.40143 0.93357 0.21101 0.0
O113 O 0.40042 0.91706 0.23026 0.0
Cd114 Cd 0.37763 0.92286 0.27148 0.0
O115 O 0.38937 0.95578 0.2121 0.0
Cd116 Cd 0.35875 0.97742 0.24394 0.0
C117 C 0.40599 0.98208 0.29252 0.0
O118 O 0.33571 0.9355 0.25349 0.0
O119 O 0.32064 0.97014 0.27392 0.0
O120 O 0.33766 -0.0049 0.20422 0.0
C121 C 0.3182 0.94549 0.26843 0.0
O122 O 0.40354 0.95695 0.29604 0.0
C123 C 0.33338 0.01798 0.21429 0.0
O124 O 0.39256 -0.00625 0.27459 0.0
O125 O 0.34229 0.02239 0.23768 0.0
C126 C 0.31082 0.08749 0.51703 0.0
O127 O 0.32145 0.08719 0.49398 0.0
Cd128 Cd 0.30029 0.10419 0.45474 0.0
O129 O 0.28767 0.09708 0.5205 0.0
Cd130 Cd 0.25289 0.11921 0.49444 0.0
C131 C 0.2429 0.06575 0.45391 0.0
O132 O 0.2848 0.14633 0.47008 0.0
O133 O 0.24362 0.15119 0.45838 0.0
O134 O 0.24591 0.1446 0.53504 0.0
C135 C 0.26788 0.15863 0.45619 0.0
O136 O 0.26473 0.07211 0.44229 0.0
C137 C 0.22056 0.1429 0.53426 0.0
O138 O 0.23497 0.07866 0.47424 0.0
O139 O 0.21022 0.12924 0.51532 0.0
C140 C 0.14331 0.92461 0.7195 0.0
O141 O 0.14585 0.91343 0.74209 0.0
Cd142 Cd 0.13627 0.93573 0.78302 0.0
O143 O 0.13397 0.94806 0.71776 0.0
Cd144 Cd 0.1141 0.9825 0.74653 0.0
C145 C 0.17369 -0.00621 0.77594 0.0
O146 O 0.09189 0.95107 0.77593 0.0
O147 O 0.08878 -0.00732 0.7871 0.0
O148 O 0.08263 0.9862 0.71011 0.0
C149 C 0.08208 0.96849 0.79129 0.0
O150 O 0.1708 0.97096 0.78687 0.0
C151 C 0.08332 0.01156 0.70931 0.0
O152 O 0.15613 0.0027 0.76009 0.0
O153 O 0.09891 0.02357 0.72564 0.0
C154 C 0.2812 0.82906 0.01229 0.0
O155 O 0.29809 0.83243 -0.00641 0.0
Cd156 Cd 0.29192 0.85865 0.95457 0.0
O157 O 0.25859 0.84044 0.01185 0.0
Cd158 Cd 0.23632 0.87307 0.98239 0.0
C159 C 0.23449 0.82978 0.93012 0.0
O160 O 0.27736 0.89856 0.97579 0.0
O161 O 0.24284 0.91386 0.95559 0.0
O162 O 0.21617 0.88902 0.02349 0.0
C163 C 0.26727 0.91674 0.96183 0.0
O164 O 0.25959 0.83332 0.92724 0.0
C165 C 0.19367 0.89386 0.01291 0.0
O166 O 0.22204 0.84139 0.94882 0.0
O167 O 0.19069 0.88774 -0.01156 0.0
C168 C 0.25264 0.31695 0.03926 0.0
O169 O 0.27802 0.31801 0.04065 0.0
Cd170 Cd 0.30643 0.34915 0.01746 0.0
O171 O 0.23997 0.33281 0.02414 0.0
Cd172 Cd 0.2516 0.36902 -0.00726 0.0
C173 C 0.29082 0.33125 0.9536 0.0
O174 O 0.2837 0.39015 0.02241 0.0
O175 O 0.28215 0.40709 0.98289 0.0
O176 O 0.21079 0.394 0.00135 0.0
C177 C 0.29123 0.40836 0.00653 0.0
O178 O 0.30914 0.3339 0.97114 0.0
C179 C 0.20373 0.39424 0.97694 0.0
O180 O 0.26758 0.34018 0.95768 0.0
O181 O 0.21829 0.38175 0.96054 0.0
C182 C 0.70097 0.07596 0.02309 0.0
O183 O 0.718 0.08576 0.03942 0.0
Cd184 Cd 0.75063 0.11955 0.0293 0.0
O185 O 0.69916 0.08486 -0.00066 0.0
Cd186 Cd 0.72003 0.12138 0.97297 0.0
C187 C 0.7796 0.09138 0.97413 0.0
O188 O 0.72539 0.15379 0.0086 0.0
O189 O 0.74744 0.1623 0.97257 0.0
O190 O 0.67681 0.13261 0.9546 0.0
C191 C 0.74026 0.16981 -0.00439 0.0
O192 O 0.7822 0.09837 -0.00148 0.0
C193 C 0.68476 0.13348 0.93052 0.0
O194 O 0.75837 0.09615 0.96116 0.0
O195 O 0.70886 0.12726 0.92613 0.0
C196 C 0.15433 0.50646 0.20722 0.0
O197 O 0.14741 0.4866 0.19266 0.0
Cd198 Cd 0.11467 0.45253 0.20298 0.0
O199 O 0.14332 0.51044 0.22982 0.0
Cd200 Cd 0.10734 0.48864 0.25636 0.0
C201 C 0.14025 0.43002 0.26157 0.0
O202 O 0.07802 0.47801 0.21884 0.0
O203 O 0.065 0.46408 0.25754 0.0
O204 O 0.09392 0.53184 0.2739 0.0
C205 C 0.0603 0.46635 0.23283 0.0
O206 O 0.13515 0.42455 0.2372 0.0
C207 C 0.09265 0.52392 0.298 0.0
O208 O 0.13336 0.4521 0.27186 0.0
O209 O 0.09983 0.50019 0.30269 0.0
C210 C 0.74223 0.81707 0.53559 0.0
O211 O 0.76617 0.82048 0.54359 0.0
Cd212 Cd 0.79723 0.85139 0.52355 0.0
O213 O 0.73264 0.83132 0.51696 0.0
Cd214 Cd 0.74702 0.86928 0.4889 0.0
C215 C 0.79196 0.831 0.45809 0.0
O216 O 0.7738 0.89226 0.52225 0.0
O217 O 0.77892 0.90671 0.48197 0.0
O218 O 0.70446 0.89211 0.49307 0.0
C219 C 0.78406 0.90944 0.50665 0.0
O220 O 0.8067 0.8338 0.47874 0.0
C221 C 0.70067 0.89351 0.46799 0.0
O222 O 0.7686 0.84049 0.4574 0.0
O223 O 0.71785 0.8826 0.45306 0.0
C224 C 0.90011 -0.00158 0.17626 0.0
O225 O 0.89921 0.97377 0.17003 0.0
Cd226 Cd 0.87785 0.93987 0.19582 0.0
O227 O 0.88808 0.00699 0.19698 0.0
Cd228 Cd 0.85835 -0.01056 0.2327 0.0
C229 C 0.90856 0.95219 0.25635 0.0
O230 O 0.83533 0.95899 0.20342 0.0
O231 O 0.8235 0.9555 0.24462 0.0
O232 O 0.83241 0.03013 0.23071 0.0
C233 C 0.82029 0.94805 0.22059 0.0
O234 O 0.90645 0.9377 0.23546 0.0
C235 C 0.83372 0.03465 0.25569 0.0
O236 O 0.89361 0.9721 0.26004 0.0
O237 O 0.84719 0.01854 0.26962 0.0
C238 C 0.20887 0.58148 0.52482 0.0
O239 O 0.22735 0.59119 0.53964 0.0
Cd240 Cd 0.25752 0.62736 0.52887 0.0
O241 O 0.20383 0.59149 0.50201 0.0
Cd242 Cd 0.2194 0.62909 0.47411 0.0
C243 C 0.28123 0.60232 0.46956 0.0
O244 O 0.22841 0.65924 0.51047 0.0
O245 O 0.24001 0.67391 0.47173 0.0
O246 O 0.17371 0.6377 0.46098 0.0
C247 C 0.23877 0.67786 0.49669 0.0
O248 O 0.2858 0.60872 0.49384 0.0
C249 C 0.1788 0.63887 0.43612 0.0
O250 O 0.25869 0.60662 0.45869 0.0
O251 O 0.20253 0.63368 0.42897 0.0
C252 C 0.39749 0.49391 0.67882 0.0
O253 O 0.39617 0.46947 0.67181 0.0
Cd254 Cd 0.37455 0.4352 0.69694 0.0
O255 O 0.38545 0.50203 0.6997 0.0
Cd256 Cd 0.35507 0.48414 0.73471 0.0
C257 C 0.40519 0.44662 0.75775 0.0
O258 O 0.33191 0.45367 0.70547 0.0
O259 O 0.3209 0.44982 0.74691 0.0
O260 O 0.32871 0.52458 0.73271 0.0
C261 C 0.3174 0.4424 0.72291 0.0
O262 O 0.40312 0.43261 0.73653 0.0
C263 C 0.32999 0.52908 0.75769 0.0
O264 O 0.39023 0.46643 0.76194 0.0
O265 O 0.34364 0.5131 0.7716 0.0
C266 C 0.64885 0.01834 0.69988 0.0
O267 O 0.64185 -0.00239 0.68666 0.0
Cd268 Cd 0.61153 0.96292 0.70092 0.0
O269 O 0.63914 0.02292 0.72297 0.0
Cd270 Cd 0.60592 0.00139 0.75296 0.0
C271 C 0.6421 0.94486 0.75877 0.0
O272 O 0.57478 0.98709 0.71845 0.0
O273 O 0.56533 0.97398 0.75837 0.0
O274 O 0.59027 0.04437 0.76903 0.0
C275 C 0.55892 0.97472 0.73393 0.0
O276 O 0.63572 0.93797 0.73505 0.0
C277 C 0.59199 0.03819 0.7936 0.0
O278 O 0.63473 0.96701 0.76854 0.0
O279 O 0.60181 0.01562 0.79904 0.0
C280 C 0.80949 0.58408 0.00965 0.0
O281 O 0.81964 0.58316 0.98642 0.0
Cd282 Cd 0.79571 0.5972 0.94781 0.0
O283 O 0.78645 0.59388 0.01328 0.0
Cd284 Cd 0.75093 0.61662 -0.01145 0.0
C285 C 0.73745 0.56007 0.95431 0.0
O286 O 0.78145 0.64103 0.95996 0.0
O287 O 0.73948 0.64619 0.95149 0.0
O288 O 0.74883 0.64386 0.02857 0.0
C289 C 0.76358 0.65267 0.9466 0.0
O290 O 0.7599 0.56344 0.9427 0.0
C291 C 0.72349 0.64334 0.03002 0.0
O292 O 0.72949 0.57641 0.97194 0.0
O293 O 0.71088 0.62986 0.01235 0.0
C294 C 0.90526 0.44152 0.70784 0.0
O295 O 0.90323 0.42368 0.72575 0.0
Cd296 Cd 0.88011 0.42944 0.76659 0.0
O297 O 0.89389 0.46396 0.71042 0.0
Cd298 Cd 0.86245 0.48344 0.74307 0.0
C299 C 0.90908 0.4872 0.79097 0.0
O300 O 0.8372 0.4424 0.75043 0.0
O301 O 0.82935 0.47423 0.7783 0.0
O302 O 0.84067 0.50152 0.70407 0.0
C303 C 0.82273 0.45152 0.76885 0.0
O304 O 0.90601 0.46202 0.79373 0.0
C305 C 0.83549 0.52391 0.7147 0.0
O306 O 0.89646 0.49958 0.77296 0.0
O307 O 0.84381 0.5279 0.73837 0.0
C308 C 0.77972 0.32688 0.51557 0.0
O309 O 0.79616 0.33101 0.4966 0.0
Cd310 Cd 0.78899 0.35782 0.45818 0.0
O311 O 0.75683 0.33772 0.51582 0.0
Cd312 Cd 0.7328 0.37023 0.48767 0.0
C313 C 0.73157 0.3278 0.43452 0.0
O314 O 0.77304 0.39636 0.48063 0.0
O315 O 0.73805 0.41202 0.46168 0.0
O316 O 0.71315 0.38485 0.52948 0.0
C317 C 0.76267 0.41474 0.46717 0.0
O318 O 0.7565 0.33221 0.43125 0.0
C319 C 0.69022 0.38906 0.51955 0.0
O320 O 0.71907 0.33867 0.45366 0.0
O321 O 0.68684 0.3832 0.49506 0.0
C322 C 0.63967 0.43227 0.22132 0.0
O323 O 0.63995 0.42264 0.24478 0.0
Cd324 Cd 0.62846 0.44773 0.28338 0.0
O325 O 0.63169 0.45597 0.21713 0.0
Cd326 Cd 0.61145 0.49376 0.24139 0.0
C327 C 0.66907 0.50381 0.27513 0.0
O328 O 0.5864 0.46489 0.27044 0.0
O329 O 0.58242 0.50689 0.27909 0.0
O330 O 0.58309 0.49627 0.20233 0.0
C331 C 0.5757 0.48291 0.28432 0.0
O332 O 0.66414 0.48171 0.28688 0.0
C333 C 0.58456 0.52155 0.20024 0.0
O334 O 0.65327 0.51287 0.25758 0.0
O335 O 0.59945 0.53399 0.2169 0.0
Fe336 Fe 0.11628 0.08438 0.13963 0.0
Fe337 Fe 0.09779 0.13665 0.11454 0.0
O338 O 0.11926 0.10894 0.1145 0.0
Fe339 Fe 0.14373 0.10547 0.08936 0.0
O340 O 0.12901 0.07385 0.07827 0.0
O341 O 0.12721 0.05676 0.1185 0.0
O342 O 0.08257 0.07619 0.12909 0.0
C343 C 0.06399 0.09284 0.12737 0.0
C344 C 0.17037 0.09006 0.1363 0.0
O345 O 0.06889 0.1178 0.12789 0.0
C346 C 0.14832 0.15884 0.1004 0.0
O347 O 0.10451 0.1072 0.16552 0.0
O348 O 0.10881 0.147 0.14768 0.0
O349 O 0.16776 0.08889 0.11114 0.0
O350 O 0.15008 0.09152 0.1512 0.0
C351 C 0.09951 0.12543 0.06104 0.0
O352 O 0.12303 0.16014 0.10109 0.0
O353 O 0.15977 0.13664 0.09901 0.0
C354 C 0.10708 0.13227 0.16803 0.0
O355 O 0.08519 0.1282 0.08153 0.0
O356 O 0.12436 0.12175 0.0631 0.0
C357 C 0.12595 0.0539 0.09341 0.0
Fe358 Fe 0.07452 0.84393 0.37743 0.0
Fe359 Fe 0.10681 0.88449 0.34412 0.0
O360 O 0.10517 0.86034 0.3697 0.0
Fe361 Fe 0.13431 0.85232 0.38782 0.0
O362 O 0.13221 0.8181 0.37597 0.0
O363 O 0.09004 0.81236 0.38713 0.0
O364 O 0.07157 0.83019 0.34413 0.0
C365 C 0.07267 0.84375 0.32294 0.0
C366 C 0.09434 0.85243 0.42732 0.0
O367 O 0.08184 0.86755 0.32281 0.0
C368 C 0.13956 0.90657 0.38537 0.0
O369 O 0.05349 0.87215 0.36857 0.0
O370 O 0.08196 0.90486 0.36018 0.0
O371 O 0.11656 0.84414 0.4189 0.0
O372 O 0.0756 0.85695 0.41118 0.0
C373 C 0.15421 0.86058 0.33546 0.0
O374 O 0.13224 0.90546 0.3611 0.0
O375 O 0.13783 0.88628 0.40027 0.0
C376 C 0.05854 0.89679 0.36527 0.0
O377 O 0.13166 0.86598 0.32603 0.0
O378 O 0.15763 0.85925 0.36043 0.0
C379 C 0.11211 0.80291 0.37949 0.0
Fe380 Fe 0.34379 0.89015 0.64898 0.0
Fe381 Fe 0.33868 0.88581 0.58834 0.0
O382 O 0.35295 0.87466 0.61858 0.0
Fe383 Fe 0.37591 0.84841 0.6185 0.0
O384 O 0.35563 0.82873 0.64118 0.0
O385 O 0.34883 0.86069 0.67 0.0
O386 O 0.30966 0.8789 0.64426 0.0
C387 C 0.29584 0.88478 0.62412 0.0
C388 C 0.39758 0.88655 0.65527 0.0
O389 O 0.30673 0.89531 0.60376 0.0
C390 C 0.39155 0.87315 0.57275 0.0
O391 O 0.33777 0.92309 0.6338 0.0
O392 O 0.3537 0.91847 0.5933 0.0
O393 O 0.3966 0.86304 0.64552 0.0
O394 O 0.37757 0.90153 0.65501 0.0
C395 C 0.33565 0.83185 0.58146 0.0
O396 O 0.36738 0.87766 0.56724 0.0
O397 O 0.39803 0.86594 0.59584 0.0
C398 C 0.34902 0.93297 0.61331 0.0
O399 O 0.32342 0.85364 0.58192 0.0
O400 O 0.35889 0.82969 0.59142 0.0
C401 C 0.35026 0.83607 0.66454 0.0
Fe402 Fe 0.39974 0.15495 0.8638 0.0
Fe403 Fe 0.38503 0.09742 0.84803 0.0
O404 O 0.37719 0.12733 0.86514 0.0
Fe405 Fe 0.34721 0.1302 0.88354 0.0
O406 O 0.33649 0.1585 0.86382 0.0
O407 O 0.37443 0.1804 0.86794 0.0
O408 O 0.3945 0.15754 0.82832 0.0
C409 C 0.3976 0.13863 0.81193 0.0
C410 C 0.38672 0.15439 0.91647 0.0
O411 O 0.40133 0.1149 0.81989 0.0
C412 C 0.36107 0.07914 0.89635 0.0
O413 O 0.42976 0.13526 0.85914 0.0
O414 O 0.41617 0.09422 0.86642 0.0
O415 O 0.36241 0.15171 0.90945 0.0
O416 O 0.40536 0.15315 0.89949 0.0
C417 C 0.33128 0.10011 0.83775 0.0
O418 O 0.36951 0.07526 0.87284 0.0
O419 O 0.35533 0.10219 0.9045 0.0
C420 C 0.43469 0.11161 0.86599 0.0
O421 O 0.35457 0.09796 0.82853 0.0
O422 O 0.32721 0.10895 0.86108 0.0
C423 C 0.3499 0.17996 0.86199 0.0
Fe424 Fe 0.5773 0.33467 0.86735 0.0
Fe425 Fe 0.61064 0.38171 0.84549 0.0
O426 O 0.60716 0.35418 0.8673 0.0
Fe427 Fe 0.63358 0.34563 0.88902 0.0
O428 O 0.63631 0.31314 0.87317 0.0
O429 O 0.59354 0.30334 0.87622 0.0
O430 O 0.58191 0.32537 0.83272 0.0
C431 C 0.58479 0.34187 0.81386 0.0
C432 C 0.58758 0.33866 0.92056 0.0
O433 O 0.59099 0.36616 0.8184 0.0
C434 C 0.6345 0.39992 0.89397 0.0
O435 O 0.55548 0.36216 0.85823 0.0
O436 O 0.58164 0.39778 0.85933 0.0
O437 O 0.61151 0.33262 0.91537 0.0
O438 O 0.57124 0.34315 0.90196 0.0
C439 C 0.66104 0.36232 0.84237 0.0
O440 O 0.63074 0.40186 0.869 0.0
O441 O 0.63265 0.3777 0.90578 0.0
C442 C 0.5586 0.38726 0.85969 0.0
O443 O 0.64 0.36784 0.82985 0.0
O444 O 0.66034 0.35751 0.8671 0.0
C445 C 0.61728 0.29631 0.87168 0.0
Fe446 Fe 0.83216 0.37888 0.08769 0.0
Fe447 Fe 0.84174 0.38865 0.14714 0.0
O448 O 0.84914 0.37098 0.11752 0.0
Fe449 Fe 0.87312 0.34566 0.11758 0.0
O450 O 0.89278 0.36255 0.09238 0.0
O451 O 0.85947 0.36954 0.06517 0.0
O452 O 0.8465 0.41219 0.08842 0.0
C453 C 0.84355 0.42823 0.10763 0.0
C454 C 0.83072 0.32463 0.08574 0.0
O455 O 0.83415 0.42013 0.12977 0.0
C456 C 0.85042 0.3359 0.16589 0.0
O457 O 0.80129 0.3893 0.10446 0.0
O458 O 0.80752 0.37667 0.14584 0.0
O459 O 0.85513 0.32461 0.09281 0.0
O460 O 0.81744 0.34581 0.08591 0.0
C461 C 0.89599 0.38672 0.15012 0.0
O462 O 0.84869 0.36083 0.16979 0.0
O463 O 0.85528 0.32695 0.14293 0.0
C464 C 0.79206 0.38092 0.1265 0.0
O465 O 0.87558 0.40112 0.15002 0.0
O466 O 0.89502 0.36258 0.14218 0.0
C467 C 0.88429 0.36736 0.0693 0.0
Fe468 Fe 0.8507 0.62642 0.38735 0.0
Fe469 Fe 0.90434 0.64804 0.36702 0.0
O470 O 0.88013 0.62186 0.36848 0.0
Fe471 Fe 0.88578 0.59171 0.35079 0.0
O472 O 0.85525 0.59464 0.33171 0.0
O473 O 0.82898 0.60714 0.36465 0.0
O474 O 0.84174 0.65589 0.36843 0.0
C475 C 0.85638 0.67658 0.36717 0.0
C476 C 0.86098 0.57416 0.39895 0.0
O477 O 0.88102 0.67515 0.37216 0.0
C478 C 0.93633 0.60252 0.36842 0.0
O479 O 0.86781 0.64623 0.4135 0.0
O480 O 0.91053 0.64549 0.40253 0.0
O481 O 0.8691 0.57016 0.37536 0.0
O482 O 0.85694 0.59741 0.40762 0.0
C483 C 0.9001 0.63245 0.31505 0.0
O484 O 0.93282 0.62644 0.36157 0.0
O485 O 0.91685 0.58618 0.36869 0.0
C486 C 0.89239 0.64773 0.41993 0.0
O487 O 0.89846 0.65141 0.33165 0.0
O488 O 0.90288 0.60852 0.32276 0.0
C489 C 0.83226 0.59837 0.34115 0.0
Fe490 Fe 0.88125 0.85385 0.87271 0.0
Fe491 Fe 0.83301 0.88065 0.89771 0.0
O492 O 0.85693 0.87884 0.87189 0.0
Fe493 Fe 0.85661 0.90199 0.84532 0.0
O494 O 0.89001 0.91401 0.85344 0.0
O495 O 0.90721 0.87408 0.85621 0.0
O496 O 0.89441 0.86651 0.90394 0.0
C497 C 0.88074 0.86876 0.92489 0.0
C498 C 0.86789 0.85284 0.82011 0.0
O499 O 0.85541 0.86819 0.92379 0.0
C500 C 0.80338 0.89105 0.85116 0.0
O501 O 0.85963 0.82908 0.8893 0.0
O502 O 0.82012 0.84742 0.89001 0.0
O503 O 0.86892 0.87821 0.82025 0.0
O504 O 0.86932 0.83993 0.84158 0.0
C505 C 0.84625 0.93327 0.89086 0.0
O506 O 0.80641 0.89344 0.87619 0.0
O507 O 0.82329 0.89127 0.83578 0.0
C508 C 0.83438 0.82692 0.88923 0.0
O509 O 0.84472 0.9138 0.90671 0.0
O510 O 0.84427 0.9297 0.86584 0.0
C511 C 0.91007 0.89925 0.85515 0.0
Fe512 Fe 0.87059 0.09361 0.64419 0.0
Fe513 Fe 0.85035 0.12137 0.59387 0.0
O514 O 0.87217 0.12068 0.62163 0.0
Fe515 Fe 0.89544 0.14716 0.62714 0.0
O516 O 0.88033 0.1548 0.65897 0.0
O517 O 0.88032 0.11355 0.6737 0.0
O518 O 0.83629 0.10068 0.65255 0.0
C519 C 0.81755 0.10164 0.63574 0.0
C520 C 0.9244 0.101 0.63989 0.0
O521 O 0.82245 0.10418 0.61101 0.0
C522 C 0.89973 0.14116 0.57324 0.0
O523 O 0.86046 0.06872 0.61892 0.0
O524 O 0.86317 0.09037 0.58094 0.0
O525 O 0.92089 0.12592 0.64243 0.0
O526 O 0.90475 0.08513 0.63694 0.0
C527 C 0.84931 0.17366 0.60938 0.0
O528 O 0.87447 0.1386 0.57189 0.0
O529 O 0.91166 0.14127 0.59546 0.0
C530 C 0.86288 0.06873 0.59373 0.0
O531 O 0.83602 0.15245 0.60499 0.0
O532 O 0.87437 0.17303 0.61278 0.0
C533 C 0.87761 0.13835 0.6778 0.0
Fe534 Fe 0.62245 0.08238 0.33822 0.0
Fe535 Fe 0.64568 0.10756 0.38909 0.0
O536 O 0.62107 0.10677 0.36373 0.0
Fe537 Fe 0.59521 0.1303 0.36389 0.0
O538 O 0.60516 0.14295 0.33153 0.0
O539 O 0.6079 0.1036 0.31229 0.0
O540 O 0.65478 0.09492 0.3275 0.0
C541 C 0.67499 0.0969 0.34246 0.0
C542 C 0.56906 0.08193 0.34884 0.0
O543 O 0.67257 0.09518 0.36759 0.0
C544 C 0.59811 0.11866 0.41692 0.0
O545 O 0.63712 0.05667 0.3596 0.0
O546 O 0.63614 0.07425 0.39983 0.0
O547 O 0.56996 0.10729 0.34928 0.0
O548 O 0.59019 0.06867 0.34761 0.0
C549 C 0.64119 0.16067 0.37846 0.0
O550 O 0.62335 0.12021 0.41516 0.0
O551 O 0.58374 0.11901 0.39625 0.0
C552 C 0.63573 0.05401 0.38474 0.0
O553 O 0.65637 0.14086 0.3796 0.0
O554 O 0.61597 0.15745 0.37847 0.0
C555 C 0.60696 0.12884 0.31074 0.0
Fe556 Fe 0.58522 0.82597 0.10936 0.0
Fe557 Fe 0.63677 0.85259 0.08847 0.0
O558 O 0.60989 0.85172 0.11134 0.0
Fe559 Fe 0.60741 0.87672 0.13612 0.0
O560 O 0.57563 0.88731 0.12292 0.0
O561 O 0.55795 0.84687 0.1213 0.0
O562 O 0.57615 0.8363 0.07613 0.0
C563 C 0.59205 0.83903 0.0568 0.0
C564 C 0.59219 0.82946 0.16317 0.0
O565 O 0.61713 0.83863 0.0604 0.0
C566 C 0.66072 0.867 0.13795 0.0
O567 O 0.60804 0.80048 0.09682 0.0
O568 O 0.64758 0.82009 0.09916 0.0
O569 O 0.59147 0.85464 0.16069 0.0
O570 O 0.59283 0.81449 0.14285 0.0
C571 C 0.6255 0.90566 0.0911 0.0
O572 O 0.66096 0.86672 0.11259 0.0
O573 O 0.639 0.86759 0.15062 0.0
C574 C 0.6332 0.79917 0.09902 0.0
O575 O 0.62773 0.88533 0.0764 0.0
O576 O 0.62308 0.90326 0.11613 0.0
C577 C 0.55549 0.87201 0.12031 0.0
Fe578 Fe 0.39224 0.65038 0.12366 0.0
Fe579 Fe 0.34426 0.62446 0.09515 0.0
O580 O 0.36874 0.62368 0.12054 0.0
Fe581 Fe 0.3698 0.59634 0.14276 0.0
O582 O 0.40348 0.58874 0.13257 0.0
O583 O 0.41935 0.62973 0.13656 0.0
O584 O 0.40528 0.64425 0.09041 0.0
C585 C 0.39094 0.64391 0.06964 0.0
C586 C 0.37911 0.64143 0.17578 0.0
O587 O 0.36567 0.64254 0.07136 0.0
C588 C 0.3159 0.60242 0.13912 0.0
O589 O 0.36945 0.67593 0.11143 0.0
O590 O 0.3306 0.65507 0.10838 0.0
O591 O 0.38135 0.61655 0.17152 0.0
O592 O 0.38031 0.65791 0.1568 0.0
C593 C 0.3586 0.57225 0.09255 0.0
O594 O 0.31857 0.6062 0.11426 0.0
O595 O 0.33605 0.60205 0.15425 0.0
C596 C 0.34414 0.67644 0.11098 0.0
O597 O 0.35645 0.59409 0.08037 0.0
O598 O 0.35842 0.57148 0.11788 0.0
C599 C 0.42304 0.60491 0.13377 0.0
Fe600 Fe 0.12151 0.58136 0.84823 0.0
Fe601 Fe 0.14732 0.60791 0.89727 0.0
O602 O 0.12176 0.60674 0.87285 0.0
Fe603 Fe 0.09666 0.63104 0.87305 0.0
O604 O 0.10594 0.64223 0.84003 0.0
O605 O 0.10691 0.6022 0.82188 0.0
O606 O 0.15387 0.59232 0.83606 0.0
C607 C 0.17463 0.59424 0.85023 0.0
C608 C 0.06848 0.58305 0.86006 0.0
O609 O 0.17303 0.59377 0.87547 0.0
C610 C 0.10116 0.62135 0.9263 0.0
O611 O 0.13595 0.55599 0.8703 0.0
O612 O 0.13727 0.57542 0.90975 0.0
O613 O 0.07027 0.60839 0.86005 0.0
O614 O 0.08913 0.56907 0.85892 0.0
C615 C 0.14388 0.66058 0.88443 0.0
O616 O 0.12633 0.62236 0.92356 0.0
O617 O 0.08604 0.62119 0.90614 0.0
C618 C 0.13569 0.55454 0.89561 0.0
O619 O 0.15857 0.64044 0.88589 0.0
O620 O 0.11865 0.65805 0.88595 0.0
C621 C 0.1068 0.62744 0.81964 0.0
Fe622 Fe 0.13865 0.35476 0.58558 0.0
Fe623 Fe 0.0835 0.33242 0.60149 0.0
O624 O 0.11014 0.35569 0.60633 0.0
Fe625 Fe 0.10813 0.37996 0.63187 0.0
O626 O 0.13756 0.36738 0.64822 0.0
O627 O 0.16201 0.36593 0.61181 0.0
O628 O 0.14558 0.32105 0.59595 0.0
C629 C 0.12941 0.30153 0.59405 0.0
C630 C 0.13207 0.4086 0.58943 0.0
O631 O 0.10481 0.30524 0.58976 0.0
C632 C 0.05727 0.38075 0.61266 0.0
O633 O 0.12021 0.34339 0.55569 0.0
O634 O 0.07811 0.34465 0.56804 0.0
O635 O 0.12762 0.40559 0.61411 0.0
O636 O 0.1335 0.38864 0.5741 0.0
C637 C 0.08657 0.33342 0.65583 0.0
O638 O 0.05745 0.35541 0.61223 0.0
O639 O 0.07852 0.39401 0.61699 0.0
C640 C 0.09571 0.34617 0.55009 0.0
O641 O 0.08733 0.31912 0.63502 0.0
O642 O 0.08842 0.35865 0.6543 0.0
C643 C 0.15998 0.36527 0.63705 0.0
Fe644 Fe 0.64038 0.60095 0.59109 0.0
Fe645 Fe 0.61678 0.5815 0.64394 0.0
O646 O 0.6177 0.60522 0.6178 0.0
Fe647 Fe 0.59585 0.63264 0.6185 0.0
O648 O 0.58122 0.62338 0.58649 0.0
O649 O 0.61893 0.61555 0.56566 0.0
O650 O 0.62548 0.56863 0.58251 0.0
C651 C 0.62395 0.54931 0.59858 0.0
C652 C 0.64481 0.65488 0.59937 0.0
O653 O 0.62709 0.55328 0.62333 0.0
C654 C 0.60861 0.62997 0.6714 0.0
O655 O 0.6662 0.58599 0.61202 0.0
O656 O 0.65105 0.5898 0.65307 0.0
O657 O 0.6198 0.65605 0.60302 0.0
O658 O 0.65654 0.63285 0.59763 0.0
C659 C 0.56371 0.5886 0.63438 0.0
O660 O 0.60606 0.60486 0.66974 0.0
O661 O 0.60882 0.64406 0.65058 0.0
C662 C 0.67037 0.58842 0.63691 0.0
O663 O 0.58267 0.57233 0.6357 0.0
O664 O 0.56814 0.61365 0.63402 0.0
C665 C 0.59411 0.61978 0.56518 0.0
Fe666 Fe 0.38245 0.36276 0.37539 0.0
Fe667 Fe 0.35375 0.40705 0.3457 0.0
O668 O 0.35665 0.38616 0.37389 0.0
Fe669 Fe 0.33374 0.3887 0.40055 0.0
O670 O 0.32255 0.35438 0.39604 0.0
O671 O 0.36296 0.33799 0.39451 0.0
O672 O 0.37024 0.34595 0.34575 0.0
C673 C 0.36718 0.35719 0.32354 0.0
C674 C 0.38326 0.38087 0.42654 0.0
O675 O 0.3668 0.38247 0.32195 0.0
C676 C 0.34334 0.44116 0.38895 0.0
O677 O 0.40645 0.3834 0.35654 0.0
O678 O 0.38652 0.42183 0.35157 0.0
O679 O 0.35792 0.37954 0.42654 0.0
O680 O 0.39607 0.37828 0.4051 0.0
C681 C 0.30177 0.39268 0.35465 0.0
O682 O 0.34017 0.43532 0.36449 0.0
O683 O 0.34386 0.42306 0.40639 0.0
C684 C 0.40758 0.40855 0.35367 0.0
O685 O 0.32101 0.3932 0.33845 0.0
O686 O 0.30549 0.39807 0.37916 0.0
C687 C 0.33784 0.33464 0.39615 0.0
H688 H 0.07319 0.24143 0.29684 0.0
H689 H 0.09423 0.1066 0.21451 0.0
H690 H 0.03129 0.16709 0.31359 0.0
H691 H 0.11093 0.18532 0.18255 0.0
H692 H 0.08198 0.12694 0.25699 0.0
H693 H 0.09787 0.21905 0.26134 0.0
C694 C 0.06954 0.22027 0.29341 0.0
C695 C 0.04988 0.20614 0.30793 0.0
C696 C 0.0886 0.13971 0.24075 0.0
C697 C 0.07804 0.18056 0.26741 0.0
C698 C 0.09566 0.12816 0.21647 0.0
C699 C 0.10316 0.14433 0.19472 0.0
C700 C 0.08926 0.16762 0.24344 0.0
C701 C 0.10489 0.17212 0.19864 0.0
C702 C 0.08356 0.20759 0.27307 0.0
C703 C 0.04606 0.17877 0.30268 0.0
N704 N 0.09775 0.18293 0.2225 0.0
N705 N 0.05987 0.1669 0.28266 0.0
H706 H 0.06222 0.78698 0.58055 0.0
H707 H 0.12618 0.83433 0.46782 0.0
H708 H 0.00817 0.85262 0.57059 0.0
H709 H 0.04982 0.87043 0.45276 0.0
H710 H 0.11369 0.82868 0.51463 0.0
H711 H 0.0887 0.80393 0.54334 0.0
C712 C 0.05634 0.80538 0.57102 0.0
C713 C 0.03261 0.81805 0.57829 0.0
C714 C 0.09963 0.83773 0.50109 0.0
C715 C 0.06302 0.83786 0.53583 0.0
C716 C 0.10683 0.84117 0.47438 0.0
C717 C 0.08866 0.85214 0.45621 0.0
C718 C 0.07406 0.84523 0.50951 0.0
C719 C 0.06417 0.86125 0.46592 0.0
C720 C 0.07162 0.81522 0.5498 0.0
C721 C 0.02602 0.84189 0.56531 0.0
N722 N 0.05748 0.85731 0.49187 0.0
N723 N 0.04084 0.8507 0.54436 0.0
H724 H 0.40335 0.77703 0.81715 0.0
H725 H 0.37397 0.78731 0.66158 0.0
H726 H 0.46363 0.7689 0.75618 0.0
H727 H 0.33914 0.84242 0.71779 0.0
H728 H 0.39611 0.76505 0.69858 0.0
H729 H 0.37046 0.78751 0.78233 0.0
C730 C 0.40955 0.77727 0.79641 0.0
C731 C 0.43619 0.77245 0.78937 0.0
C732 C 0.38303 0.78158 0.70277 0.0
C733 C 0.39877 0.78331 0.74989 0.0
C734 C 0.37017 0.7942 0.68175 0.0
C735 C 0.35527 0.81727 0.68657 0.0
C736 C 0.38047 0.79177 0.72871 0.0
C737 C 0.3509 0.82503 0.71318 0.0
C738 C 0.39084 0.78313 0.77671 0.0
C739 C 0.44333 0.77289 0.76235 0.0
N740 N 0.36386 0.81254 0.73334 0.0
N741 N 0.42464 0.77815 0.74349 0.0
H742 H 0.46625 0.19198 0.06504 0.0
H743 H 0.35217 0.17139 0.95493 0.0
H744 H 0.39139 0.23377 0.06629 0.0
H745 H 0.43538 0.15389 0.94147 0.0
H746 H 0.36323 0.1853 0.00051 0.0
H747 H 0.45151 0.16833 0.02472 0.0
C748 C 0.44653 0.19587 0.05712 0.0
C749 C 0.43017 0.2152 0.06878 0.0
C750 C 0.37899 0.17827 -0.01241 0.0
C751 C 0.41334 0.18827 0.02274 0.0
C752 C 0.37275 0.17034 0.9616 0.0
C753 C 0.39299 0.16185 0.94429 0.0
C754 C 0.4056 0.17743 -0.00362 0.0
C755 C 0.41924 0.1607 0.95405 0.0
C756 C 0.43823 0.18246 0.03404 0.0
C757 C 0.40479 0.21931 0.05771 0.0
N758 N 0.42482 0.16852 0.97948 0.0
N759 N 0.39722 0.2061 0.03513 0.0
H760 H 0.9585 0.79068 0.20549 0.0
H761 H 0.08811 0.85276 0.27155 0.0
H762 H 0.03506 0.78124 0.16719 0.0
H763 H 0.02929 0.81026 0.31901 0.0
H764 H 0.0663 0.8353 0.23086 0.0
H765 H 0.98154 0.8072 0.24573 0.0
C766 C 0.98014 0.79229 0.20552 0.0
C767 C -0.00501 0.78461 0.18314 0.0
C768 C 0.05834 0.82979 0.25024 0.0
C769 C 0.02117 0.80368 0.22862 0.0
C770 C 0.07062 0.83976 0.27333 0.0
C771 C 0.06041 0.83282 0.2985 0.0
C772 C 0.03535 0.81351 0.25251 0.0
C773 C 0.03781 0.81588 0.29991 0.0
C774 C -0.00681 0.80151 0.22845 0.0
C775 C 0.02298 0.78686 0.18418 0.0
N776 N 0.02577 0.80703 0.27714 0.0
N777 N 0.03525 0.79648 0.20655 0.0
H778 H 0.45407 0.82754 0.4184 0.0
H779 H 0.43887 0.84677 0.57511 0.0
H780 H 0.4568 0.76282 0.47516 0.0
H781 H 0.38673 0.88715 0.52003 0.0
H782 H 0.46146 0.82629 0.53727 0.0
H783 H 0.44337 0.85846 0.45507 0.0
C784 C 0.45262 0.81997 0.4386 0.0
C785 C 0.45595 0.79269 0.44392 0.0
C786 C 0.4455 0.84018 0.53358 0.0
C787 C 0.44487 0.82777 0.4855 0.0
C788 C 0.43268 0.85205 0.55508 0.0
C789 C 0.41034 0.86811 0.5507 0.0
C790 C 0.43627 0.84486 0.50762 0.0
C791 C 0.4035 0.87443 0.52427 0.0
C792 C 0.44663 0.83754 0.45936 0.0
C793 C 0.45397 0.78374 0.4703 0.0
N794 N 0.41618 0.86241 0.5036 0.0
N795 N 0.44865 0.80129 0.49022 0.0
H796 H 0.37928 0.2224 0.66603 0.0
H797 H 0.42119 0.1111 0.77087 0.0
H798 H 0.44721 0.17137 0.65489 0.0
H799 H 0.37238 0.17941 0.7879 0.0
H800 H 0.42164 0.12385 0.72344 0.0
H801 H 0.36629 0.19612 0.70496 0.0
C802 C 0.39119 0.20535 0.67144 0.0
C803 C 0.41485 0.19959 0.65774 0.0
C804 C 0.4106 0.13577 0.73761 0.0
C805 C 0.40026 0.16973 0.70238 0.0
C806 C 0.41042 0.1286 0.76457 0.0
C807 C 0.39729 0.14465 0.78326 0.0
C808 C 0.39714 0.1588 0.7295 0.0
C809 C 0.38333 0.16691 0.77418 0.0
C810 C 0.38379 0.1904 0.6937 0.0
C811 C 0.42913 0.17688 0.66527 0.0
N812 N 0.38375 0.17339 0.74796 0.0
N813 N 0.42193 0.16306 0.68751 0.0
H814 H 0.06705 0.20117 0.91283 0.0
H815 H 0.04681 0.12216 0.04657 0.0
H816 H -0.00475 0.15475 0.92901 0.0
H817 H 0.12558 0.13916 0.01494 0.0
H818 H 0.02757 0.13357 0.00322 0.0
H819 H 0.08963 0.17774 0.94906 0.0
C820 C 0.05622 0.18566 0.92363 0.0
C821 C 0.02916 0.18013 0.91815 0.0
C822 C 0.04909 0.13445 0.00567 0.0
C823 C 0.0546 0.15378 0.95987 0.0
C824 C 0.06005 0.12812 0.03044 0.0
C825 C 0.08778 0.13001 0.03442 0.0
C826 C 0.06595 0.14323 0.98492 0.0
C827 C 0.10406 0.13755 0.01276 0.0
C828 C 0.06909 0.17233 0.9443 0.0
C829 C 0.01609 0.15979 0.93269 0.0
N830 N 0.09287 0.14431 -0.01096 0.0
N831 N 0.02877 0.14772 0.95325 0.0
H832 H 0.31106 0.06278 0.23562 0.0
H833 H 0.18505 0.093 0.18911 0.0
H834 H 0.31443 0.01591 0.16312 0.0
H835 H 0.21661 0.07834 0.11019 0.0
H836 H 0.2287 0.08278 0.20802 0.0
H837 H 0.27386 0.08761 0.2168 0.0
C838 C 0.30426 0.05801 0.21557 0.0
C839 C 0.31541 0.03687 0.20109 0.0
C840 C 0.2263 0.08251 0.18653 0.0
C841 C 0.27253 0.06458 0.17987 0.0
C842 C 0.20125 0.08799 0.17575 0.0
C843 C 0.19707 0.08617 0.14808 0.0
C844 C 0.24722 0.07505 0.16946 0.0
C845 C 0.21882 0.07975 0.13167 0.0
C846 C 0.28279 0.07194 0.20502 0.0
C847 C 0.30607 0.03174 0.17513 0.0
N848 N 0.24283 0.07399 0.14266 0.0
N849 N 0.28495 0.04533 0.16543 0.0
H850 H 0.20394 0.03757 0.48053 0.0
H851 H 0.16275 0.94651 0.35586 0.0
H852 H 0.2449 0.04184 0.4047 0.0
H853 H 0.14813 0.922 0.4373 0.0
H854 H 0.18722 0.98592 0.37247 0.0
H855 H 0.17768 -0.00078 0.46388 0.0
C856 C 0.20734 0.03051 0.46035 0.0
C857 C 0.22667 0.04285 0.44396 0.0
C858 C 0.17862 0.97191 0.38667 0.0
C859 C 0.1966 -0.00075 0.42485 0.0
C860 C 0.16453 0.94951 0.37724 0.0
C861 C 0.15346 0.93093 0.39526 0.0
C862 C 0.18131 0.97598 0.41429 0.0
C863 C 0.15651 0.93576 0.42275 0.0
C864 C 0.19243 0.00859 0.45094 0.0
C865 C 0.23031 0.03282 0.41803 0.0
N866 N 0.17009 0.95792 0.43146 0.0
N867 N 0.2153 0.01166 0.40921 0.0
H868 H 0.15107 0.94643 0.66986 0.0
H869 H 0.26699 0.84627 0.64929 0.0
H870 H 0.16131 0.87354 0.71448 0.0
H871 H 0.25864 0.91912 0.60441 0.0
H872 H 0.22006 0.84829 0.662 0.0
H873 H 0.18076 0.92938 0.6354 0.0
C874 C 0.15902 0.92655 0.67212 0.0
C875 C 0.15465 0.91181 0.69559 0.0
C876 C 0.22823 0.86361 0.64894 0.0
C877 C 0.18872 0.89237 0.6564 0.0
C878 C 0.25502 0.86248 0.64178 0.0
C879 C 0.26667 0.88303 0.62656 0.0
C880 C 0.2133 0.88592 0.64152 0.0
C881 C 0.25036 0.90319 0.61665 0.0
C882 C 0.17598 0.91683 0.6524 0.0
C883 C 0.16492 0.88597 0.69713 0.0
N884 N 0.22455 0.90458 0.62496 0.0
N885 N 0.18199 0.87731 0.6781 0.0
H886 H 0.32122 0.92049 0.95541 0.0
H887 H 0.32302 0.07782 0.93531 0.0
H888 H 0.24929 0.96673 0.95151 0.0
H889 H 0.37799 0.02755 0.89264 0.0
H890 H 0.3017 0.03783 0.95422 0.0
H891 H 0.3475 0.96071 0.94364 0.0
C892 C 0.31102 0.93915 0.95213 0.0
C893 C 0.28311 0.94045 0.95417 0.0
C894 C 0.3187 0.03569 0.94104 0.0
C895 C 0.31291 0.98616 0.94162 0.0
C896 C 0.33105 0.05843 0.93044 0.0
C897 C 0.35212 0.0559 0.91214 0.0
C898 C 0.32782 0.0104 0.93368 0.0
C899 C 0.36161 0.03027 0.90647 0.0
C900 C 0.326 0.96193 0.94548 0.0
C901 C 0.27075 0.96495 0.94981 0.0
N902 N 0.34927 0.00837 0.91713 0.0
N903 N 0.28581 0.98699 0.94389 0.0
H904 H 0.31563 0.89213 0.27888 0.0
H905 H 0.15756 0.8884 0.28879 0.0
H906 H 0.26751 0.96281 0.27525 0.0
H907 H 0.20488 0.84288 0.34411 0.0
H908 H 0.19872 0.90613 0.26885 0.0
H909 H 0.2753 0.86554 0.29017 0.0
C910 C 0.29656 0.90196 0.28047 0.0
C911 C 0.2947 0.92963 0.2765 0.0
C912 C 0.19996 0.89174 0.28493 0.0
C913 C 0.24902 0.89948 0.2881 0.0
C914 C 0.17657 0.8814 0.29616 0.0
C915 C 0.1779 0.86453 0.31846 0.0
C916 C 0.22468 0.88469 0.29573 0.0
C917 C 0.20309 0.85617 0.32718 0.0
C918 C 0.27374 0.88684 0.28675 0.0
C919 C 0.2697 0.94156 0.27857 0.0
N920 N 0.22565 0.86661 0.31595 0.0
N921 N 0.24769 0.92633 0.28405 0.0
H922 H 0.36147 0.06766 0.51853 0.0
H923 H 0.3196 0.97242 0.63673 0.0
H924 H 0.29079 0.07717 0.56691 0.0
H925 H 0.38506 0.9595 0.58241 0.0
H926 H 0.31794 0.01902 0.62189 0.0
H927 H 0.37914 0.03735 0.55195 0.0
C928 C 0.34985 0.06372 0.53639 0.0
C929 C 0.32419 0.07413 0.53948 0.0
C930 C 0.33311 0.00615 0.61372 0.0
C931 C 0.34411 0.03923 0.5776 0.0
C932 C 0.33408 0.97962 0.62223 0.0
C933 C 0.35189 0.96205 0.61004 0.0
C934 C 0.35005 0.01487 0.59296 0.0
C935 C 0.37046 0.97232 0.59163 0.0
C936 C 0.35997 0.04645 0.55552 0.0
C937 C 0.31036 0.06896 0.56336 0.0
N938 N 0.36873 -0.00204 0.58326 0.0
N939 N 0.32021 0.05132 0.58124 0.0
H940 H 0.2233 0.97669 0.78979 0.0
H941 H 0.27921 0.11517 0.83848 0.0
H942 H 0.17855 0.04821 0.77521 0.0
H943 H 0.33195 0.05667 0.80474 0.0
H944 H 0.24087 0.09032 0.81953 0.0
H945 H 0.26277 0.00462 0.80024 0.0
C946 C 0.22182 -0.00174 0.7888 0.0
C947 C 0.1977 0.01024 0.78176 0.0
C948 C 0.2609 0.08323 0.81596 0.0
C949 C 0.24242 0.04206 0.79386 0.0
C950 C 0.28269 0.09732 0.82675 0.0
C951 C 0.30866 0.08787 0.82313 0.0
C952 C 0.26518 0.05921 0.8022 0.0
C953 C 0.31221 0.06465 0.80783 0.0
C954 C 0.24433 0.01411 0.79453 0.0
C955 C 0.19684 0.03825 0.78054 0.0
N956 N 0.29061 0.05077 0.79832 0.0
N957 N 0.21883 0.05329 0.78693 0.0
H958 H 0.18999 0.90278 0.06658 0.0
H959 H 0.12092 0.00675 0.1205 0.0
H960 H 0.1527 0.92195 -0.00861 0.0
H961 H 0.13027 0.03854 0.04081 0.0
H962 H 0.12794 0.96189 0.10291 0.0
H963 H 0.16446 0.93782 0.08811 0.0
C964 C 0.1758 0.91385 0.05479 0.0
C965 C 0.17368 0.90974 0.02715 0.0
C966 C 0.12841 0.97868 0.0893 0.0
C967 C 0.14442 0.94991 0.05154 0.0
C968 C 0.1243 0.00431 0.09926 0.0
C969 C 0.12591 0.02655 0.0822 0.0
C970 C 0.13429 0.97532 0.06213 0.0
C971 C 0.12952 0.02205 0.05477 0.0
C972 C 0.16105 0.93377 0.06711 0.0
C973 C 0.15501 0.92461 0.01275 0.0
N974 N 0.13396 -0.00309 0.04562 0.0
N975 N 0.14161 0.94459 0.025 0.0
H976 H 0.27249 0.2813 0.07528 0.0
H977 H 0.20277 0.1639 0.10154 0.0
H978 H 0.19892 0.30538 0.03777 0.0
H979 H 0.13107 0.20997 0.09269 0.0
H980 H 0.22948 0.20372 0.09199 0.0
H981 H 0.24835 0.24451 0.09671 0.0
C982 C 0.25126 0.27881 0.07149 0.0
C983 C 0.23782 0.29611 0.05424 0.0
C984 C 0.20798 0.20545 0.09286 0.0
C985 C 0.21019 0.25349 0.07804 0.0
C986 C 0.19264 0.18254 0.09801 0.0
C987 C 0.16462 0.18354 0.09763 0.0
C988 C 0.19519 0.2296 0.08731 0.0
C989 C 0.15262 0.20826 0.09305 0.0
C990 C 0.23751 0.2576 0.08355 0.0
C991 C 0.21018 0.29228 0.05058 0.0
N992 N 0.16799 0.23025 0.08769 0.0
N993 N 0.19732 0.27122 0.06221 0.0
H994 H 0.63139 0.14421 0.93186 0.0
H995 H 0.66385 0.27372 0.85515 0.0
H996 H 0.7017 0.15332 0.88257 0.0
H997 H 0.58396 0.25358 0.88195 0.0
H998 H 0.67523 0.22657 0.85763 0.0
H999 H 0.60986 0.17908 0.9061 0.0
C1000 C 0.64199 0.15298 0.91506 0.0
C1001 C 0.66865 0.14658 0.90988 0.0
C1002 C 0.65503 0.23234 0.86245 0.0
C1003 C 0.64455 0.18695 0.8809 0.0
C1004 C 0.64861 0.25932 0.86126 0.0
C1005 C 0.6232 0.26764 0.86916 0.0
C1006 C 0.63606 0.2137 0.87215 0.0
C1007 C 0.60401 0.24809 0.87625 0.0
C1008 C 0.62972 0.17296 0.90036 0.0
C1009 C 0.6813 0.15814 0.88762 0.0
N1010 N 0.61102 0.22208 0.87818 0.0
N1011 N 0.66943 0.17843 0.87444 0.0
H1012 H 0.01267 0.45612 0.25711 0.0
H1013 H 0.94743 0.37428 0.13766 0.0
H1014 H 0.05328 0.44951 0.18137 0.0
H1015 H 0.90039 0.42377 0.18977 0.0
H1016 H -0.01167 0.39372 0.15773 0.0
H1017 H 0.97247 0.436 0.23676 0.0
C1018 C 0.01308 0.45036 0.23622 0.0
C1019 C 0.03611 0.45451 0.22077 0.0
C1020 C 0.96898 0.40022 0.16465 0.0
C1021 C -0.00927 0.43124 0.19773 0.0
C1022 C 0.94578 0.3891 0.1534 0.0
C1023 C 0.92068 0.39755 0.16212 0.0
C1024 C 0.96683 0.4193 0.18511 0.0
C1025 C 0.91944 0.41689 0.18241 0.0
C1026 C -0.00978 0.43901 0.22467 0.0
C1027 C 0.03574 0.44678 0.19381 0.0
N1028 N 0.94225 0.42698 0.19343 0.0
N1029 N 0.01337 0.43525 0.18311 0.0
H1030 H 0.84335 0.82012 0.44402 0.0
H1031 H 0.80319 0.6892 0.3715 0.0
H1032 H 0.76128 0.80418 0.42125 0.0
H1033 H 0.8821 0.7249 0.36363 0.0
H1034 H 0.78619 0.73282 0.38475 0.0
H1035 H 0.85769 0.78735 0.41101 0.0
C1036 C 0.8284 0.80997 0.43179 0.0
C1037 C 0.80112 0.81448 0.43562 0.0
C1038 C 0.80709 0.73122 0.37943 0.0
C1039 C 0.81725 0.77677 0.39814 0.0
C1040 C 0.8168 0.70632 0.37184 0.0
C1041 C 0.84427 0.70326 0.36738 0.0
C1042 C 0.82508 0.75288 0.38285 0.0
C1043 C 0.8609 0.7262 0.36772 0.0
C1044 C 0.83656 0.7914 0.41282 0.0
C1045 C 0.78254 0.80108 0.41903 0.0
N1046 N 0.85119 0.74992 0.37607 0.0
N1047 N 0.79091 0.78232 0.4014 0.0
H1048 H 0.92865 0.98706 0.13125 0.0
H1049 H 0.01936 0.1192 0.14391 0.0
H1050 H 0.91219 0.05124 0.18655 0.0
H1051 H 0.04543 0.04397 0.11135 0.0
H1052 H 0.97409 0.10006 0.14857 0.0
H1053 H 0.96481 0.01409 0.11217 0.0
C1054 C 0.93232 0.00701 0.13911 0.0
C1055 C 0.91787 0.01662 0.16105 0.0
C1056 C -0.01031 0.08795 0.14007 0.0
C1057 C 0.95929 0.04751 0.13934 0.0
C1058 C 0.01545 0.0988 0.13741 0.0
C1059 C 0.03617 0.08289 0.12776 0.0
C1060 C 0.98473 0.06121 0.13266 0.0
C1061 C 0.03009 0.0567 0.11943 0.0
C1062 C 0.95299 0.02239 0.1282 0.0
C1063 C 0.92318 0.04284 0.17 0.0
N1064 N 0.00494 0.04661 0.12225 0.0
N1065 N 0.94384 0.05725 0.15939 0.0
H1066 H 0.25697 0.68152 0.54795 0.0
H1067 H 0.30107 0.83344 0.53963 0.0
H1068 H 0.25301 0.72543 0.47394 0.0
H1069 H 0.34134 0.77869 0.59194 0.0
H1070 H 0.27793 0.79552 0.51831 0.0
H1071 H 0.28242 0.71882 0.56797 0.0
C1072 C 0.26131 0.6991 0.53601 0.0
C1073 C 0.2529 0.70055 0.50931 0.0
C1074 C 0.29197 0.79184 0.53433 0.0
C1075 C 0.28172 0.74298 0.53201 0.0
C1076 C 0.30507 0.81339 0.54654 0.0
C1077 C 0.32306 0.80904 0.56754 0.0
C1078 C 0.29646 0.76591 0.54362 0.0
C1079 C 0.32769 0.78275 0.5757 0.0
C1080 C 0.27598 0.72018 0.54735 0.0
C1081 C 0.2592 0.72361 0.49459 0.0
N1082 N 0.31417 0.76206 0.56389 0.0
N1083 N 0.2731 0.74409 0.50623 0.0
H1084 H 0.08227 0.57737 0.2975 0.0
H1085 H 0.98238 0.63258 0.37018 0.0
H1086 H 0.07061 0.50588 0.34449 0.0
H1087 H 0.95357 0.55059 0.3705 0.0
H1088 H 0.02769 0.61687 0.36279 0.0
H1089 H 0.04911 0.59972 0.32489 0.0
C1090 C 0.07335 0.56668 0.31415 0.0
C1091 C 0.07887 0.53968 0.31853 0.0
C1092 C 0.01147 0.60235 0.36468 0.0
C1093 C 0.0408 0.56495 0.34984 0.0
C1094 C 0.98561 0.61123 0.36901 0.0
C1095 C 0.96401 0.59286 0.36998 0.0
C1096 C 0.0157 0.57493 0.36118 0.0
C1097 C 0.96952 0.56547 0.36921 0.0
C1098 C 0.05451 0.57948 0.32993 0.0
C1099 C 0.06677 0.5267 0.34036 0.0
N1100 N -0.00516 0.55732 0.36438 0.0
N1101 N 0.04765 0.53922 0.35472 0.0
H1102 H 0.40235 0.44577 0.81225 0.0
H1103 H 0.55845 0.43367 0.83144 0.0
H1104 H 0.45669 0.43599 0.7462 0.0
H1105 H 0.50627 0.37783 0.87268 0.0
H1106 H 0.51932 0.453 0.80998 0.0
H1107 H 0.43946 0.43702 0.84346 0.0
C1108 C 0.42211 0.44191 0.80443 0.0
C1109 C 0.42664 0.44117 0.77678 0.0
C1110 C 0.51652 0.43707 0.8244 0.0
C1111 C 0.46868 0.43263 0.81188 0.0
C1112 C 0.53871 0.42617 0.8368 0.0
C1113 C 0.53549 0.40391 0.85355 0.0
C1114 C 0.49109 0.426 0.82933 0.0
C1115 C 0.50948 0.39482 0.85962 0.0
C1116 C 0.44308 0.43707 0.82212 0.0
C1117 C 0.45245 0.43629 0.76742 0.0
N1118 N 0.48813 0.40574 0.84723 0.0
N1119 N 0.47264 0.43239 0.78499 0.0
H1120 H 0.93613 0.81479 0.67176 0.0
H1121 H 0.86669 0.79862 0.81255 0.0
H1122 H 0.93022 0.73989 0.71418 0.0
H1123 H 0.87478 0.8733 0.76987 0.0
H1124 H 0.87997 0.77475 0.7723 0.0
H1125 H 0.90432 0.83406 0.70268 0.0
C1126 C 0.92794 0.80233 0.68755 0.0
C1127 C 0.93625 0.77593 0.69093 0.0
C1128 C 0.87841 0.79631 0.77161 0.0
C1129 C 0.9 0.79793 0.72654 0.0
C1130 C 0.87088 0.80999 0.7946 0.0
C1131 C 0.87051 0.83808 0.79477 0.0
C1132 C 0.88574 0.81087 0.74877 0.0
C1133 C 0.87543 0.85169 0.7708 0.0
C1134 C 0.90967 0.81331 0.70512 0.0
C1135 C 0.92457 0.76047 0.71123 0.0
N1136 N 0.88335 0.83797 0.74888 0.0
N1137 N 0.90734 0.77189 0.72867 0.0
H1138 H 0.96502 0.24992 0.46361 0.0
H1139 H 0.88761 0.12888 0.52136 0.0
H1140 H 0.9539 0.17987 0.41407 0.0
H1141 H 0.94544 0.17166 0.57022 0.0
H1142 H 0.90906 0.14764 0.48132 0.0
H1143 H 0.9555 0.22272 0.50319 0.0
C1144 C 0.96087 0.22869 0.46121 0.0
C1145 C 0.96015 0.21698 0.43577 0.0
C1146 C 0.91731 0.15243 0.50082 0.0
C1147 C 0.94866 0.18607 0.48057 0.0
C1148 C 0.90504 0.14191 0.5236 0.0
C1149 C 0.91465 0.14898 0.54906 0.0
C1150 C 0.93878 0.17066 0.50368 0.0
C1151 C 0.93738 0.16577 0.55095 0.0
C1152 C 0.95559 0.21321 0.4837 0.0
C1153 C 0.95471 0.18946 0.43349 0.0
N1154 N 0.94834 0.17654 0.52854 0.0
N1155 N 0.94854 0.17493 0.45567 0.0
H1156 H 0.53821 0.16795 0.16012 0.0
H1157 H 0.60576 0.10488 0.26134 0.0
H1158 H 0.56842 0.24215 0.19381 0.0
H1159 H 0.60208 0.18213 0.29993 0.0
H1160 H 0.59576 0.12599 0.21871 0.0
H1161 H 0.56402 0.14344 0.19273 0.0
C1162 C 0.55089 0.17907 0.17395 0.0
C1163 C 0.55083 0.20712 0.17456 0.0
C1164 C 0.59691 0.13832 0.23649 0.0
C1165 C 0.5808 0.17919 0.21196 0.0
C1166 C 0.60284 0.12629 0.26085 0.0
C1167 C 0.60396 0.14164 0.28438 0.0
C1168 C 0.59183 0.16586 0.23577 0.0
C1169 C 0.60076 0.16939 0.28242 0.0
C1170 C 0.56587 0.16502 0.19255 0.0
C1171 C 0.56767 0.22051 0.19283 0.0
N1172 N 0.59453 0.18054 0.25859 0.0
N1173 N 0.58156 0.20641 0.21117 0.0
H1174 H 0.55527 0.80658 0.89383 0.0
H1175 H 0.54187 0.85396 0.04326 0.0
H1176 H 0.48442 0.84269 0.92611 0.0
H1177 H 0.61698 0.83056 0.00865 0.0
H1178 H 0.52244 0.85579 -0.00126 0.0
H1179 H 0.58043 0.82218 0.93282 0.0
C1180 C 0.54513 0.81837 0.90879 0.0
C1181 C 0.5175 0.82269 0.90708 0.0
C1182 C 0.54325 0.8505 0.00076 0.0
C1183 C 0.5461 0.84016 0.95193 0.0
C1184 C 0.55429 0.8492 0.02623 0.0
C1185 C 0.5809 0.84149 0.02967 0.0
C1186 C 0.55876 0.84363 0.97851 0.0
C1187 C 0.59626 0.83622 0.00687 0.0
C1188 C 0.55953 0.8272 0.93111 0.0
C1189 C 0.50556 0.83846 0.92682 0.0
N1190 N 0.58482 0.83696 0.98223 0.0
N1191 N 0.51981 0.8461 0.94874 0.0
H1192 H 0.92152 0.17314 0.83691 0.0
H1193 H 0.86075 0.18755 0.69321 0.0
H1194 H 0.88182 0.24399 0.80952 0.0
H1195 H 0.88759 0.11243 0.72487 0.0
H1196 H 0.86124 0.20625 0.73823 0.0
H1197 H 0.90165 0.14806 0.7998 0.0
C1198 C 0.90812 0.1833 0.82345 0.0
C1199 C 0.90396 0.2109 0.82585 0.0
C1200 C 0.86666 0.18555 0.73546 0.0
C1201 C 0.88154 0.18241 0.7831 0.0
C1202 C 0.86656 0.17493 0.70971 0.0
C1203 C 0.87478 0.14862 0.70526 0.0
C1204 C 0.8755 0.16991 0.75687 0.0
C1205 C 0.8815 0.13296 0.7274 0.0
C1206 C 0.8968 0.16895 0.80222 0.0
C1207 C 0.88603 0.22287 0.80814 0.0
N1208 N 0.88222 0.14401 0.75223 0.0
N1209 N 0.87598 0.20869 0.78712 0.0
H1210 H 0.56145 0.18372 0.56888 0.0
H1211 H 0.54515 0.11148 0.42894 0.0
H1212 H 0.48551 0.15726 0.53612 0.0
H1213 H 0.62168 0.13051 0.46507 0.0
H1214 H 0.5234 0.1212 0.47134 0.0
H1215 H 0.58425 0.15732 0.53501 0.0
C1216 C 0.54957 0.17197 0.55485 0.0
C1217 C 0.52157 0.17313 0.55491 0.0
C1218 C 0.54499 0.12291 0.47013 0.0
C1219 C 0.54747 0.14321 0.51594 0.0
C1220 C 0.55741 0.11746 0.44588 0.0
C1221 C 0.5852 0.12082 0.4433 0.0
C1222 C 0.56043 0.1321 0.49188 0.0
C1223 C 0.60014 0.12808 0.46605 0.0
C1224 C 0.56259 0.15691 0.5355 0.0
C1225 C 0.50716 0.15728 0.53652 0.0
N1226 N 0.58751 0.13393 0.48928 0.0
N1227 N 0.52028 0.14334 0.51745 0.0
H1228 H 0.52874 0.73892 0.29652 0.0
H1229 H 0.59907 0.85468 0.21083 0.0
H1230 H 0.52725 0.82325 0.31489 0.0
H1231 H 0.57599 0.77824 0.17664 0.0
H1232 H 0.58527 0.83857 0.25459 0.0
H1233 H 0.55763 0.74895 0.25781 0.0
C1234 C 0.53496 0.75942 0.29269 0.0
C1235 C 0.52543 0.78039 0.30852 0.0
C1236 C 0.58349 0.8252 0.23758 0.0
C1237 C 0.55834 0.79182 0.26502 0.0
C1238 C 0.59131 0.83437 0.21257 0.0
C1239 C 0.58795 0.818 0.18997 0.0
C1240 C 0.57207 0.7995 0.24005 0.0
C1241 C 0.57848 0.79164 0.19353 0.0
C1242 C 0.55127 0.76511 0.27065 0.0
C1243 C 0.53389 0.8066 0.30286 0.0
N1244 N 0.57039 0.78329 0.21814 0.0
N1245 N 0.54977 0.81158 0.2815 0.0
H1246 H -0.00928 0.80748 0.03714 0.0
H1247 H 0.85787 0.86553 0.97444 0.0
H1248 H 0.9108 0.79245 0.06673 0.0
H1249 H 0.93452 0.86652 0.93463 0.0
H1250 H 0.87987 0.8517 0.0155 0.0
H1251 H 0.97286 0.84097 0.00652 0.0
C1252 C 0.96951 0.81151 0.03742 0.0
C1253 C 0.95205 0.7968 0.05387 0.0
C1254 C 0.89192 0.85536 -0.00213 0.0
C1255 C 0.93168 0.83494 0.0194 0.0
C1256 C 0.87938 0.86327 0.97443 0.0
C1257 C 0.89427 0.86619 0.95087 0.0
C1258 C 0.91943 0.85024 -0.00238 0.0
C1259 C 0.92216 0.86367 0.95218 0.0
C1260 C 0.95936 0.83061 0.02005 0.0
C1261 C 0.92482 0.80293 0.05383 0.0
N1262 N 0.93381 0.85528 0.97507 0.0
N1263 N 0.91542 0.82135 0.03661 0.0
H1264 H 0.64838 0.94561 0.81271 0.0
H1265 H 0.75543 0.89155 0.87754 0.0
H1266 H 0.67679 0.90682 0.74126 0.0
H1267 H 0.78952 0.88988 0.79828 0.0
H1268 H 0.71112 0.89573 0.85774 0.0
H1269 H 0.68392 0.9252 0.83804 0.0
C1270 C 0.66179 0.93222 0.80248 0.0
C1271 C 0.65997 0.92823 0.77479 0.0
C1272 C 0.7283 0.8947 0.84468 0.0
C1273 C 0.70064 0.90436 0.80376 0.0
C1274 C 0.75361 0.89216 0.85598 0.0
C1275 C 0.77629 0.89124 0.83955 0.0
C1276 C 0.72578 0.89665 0.81679 0.0
C1277 C 0.77266 0.89123 0.81173 0.0
C1278 C 0.68198 0.92028 0.81706 0.0
C1279 C 0.67765 0.91054 0.76257 0.0
N1280 N 0.7479 0.89425 0.80124 0.0
N1281 N 0.69768 0.8997 0.77707 0.0
H1282 H 0.80429 0.95313 0.47993 0.0
H1283 H 0.86283 0.0181 0.61404 0.0
H1284 H 0.80463 0.91416 0.55679 0.0
H1285 H 0.85585 0.06129 0.5398 0.0
H1286 H 0.84998 0.97699 0.59075 0.0
H1287 H 0.83082 -0.00981 0.49913 0.0
C1288 C 0.81018 0.95226 0.50074 0.0
C1289 C 0.80195 0.93081 0.51693 0.0
C1290 C 0.85153 -0.0046 0.57947 0.0
C1291 C 0.83221 0.97285 0.5389 0.0
C1292 C 0.85891 0.0189 0.59276 0.0
C1293 C 0.85982 0.04327 0.57898 0.0
C1294 C 0.84482 -0.00369 0.55223 0.0
C1295 C 0.855 0.043 0.55131 0.0
C1296 C 0.82531 0.97337 0.51167 0.0
C1297 C 0.81022 0.93052 0.5437 0.0
N1298 N 0.84728 0.01992 0.5389 0.0
N1299 N 0.82472 0.95133 0.55389 0.0
H1300 H 0.83237 0.04853 0.30853 0.0
H1301 H 0.68776 0.10639 0.29026 0.0
H1302 H 0.79723 0.06713 0.23213 0.0
H1303 H 0.72335 0.0894 0.36689 0.0
H1304 H 0.73142 0.10184 0.26935 0.0
H1305 H 0.79731 0.07363 0.33062 0.0
C1306 C 0.8176 0.05839 0.29636 0.0
C1307 C 0.81722 0.05513 0.26851 0.0
C1308 C 0.72979 0.09944 0.29079 0.0
C1309 C 0.77687 0.08348 0.29364 0.0
C1310 C 0.70482 0.10188 0.30273 0.0
C1311 C 0.7018 0.09749 0.33024 0.0
C1312 C 0.75184 0.09223 0.30642 0.0
C1313 C 0.72469 0.09242 0.34551 0.0
C1314 C 0.79755 0.07269 0.309 0.0
C1315 C 0.79793 0.0687 0.2537 0.0
N1316 N 0.74869 0.08944 0.33331 0.0
N1317 N 0.77816 0.08183 0.26649 0.0
H1318 H 0.67476 0.03883 -0.00829 0.0
H1319 H 0.62561 0.95346 0.11756 0.0
H1320 H 0.6883 0.06161 0.07399 0.0
H1321 H 0.63514 0.91931 0.03877 0.0
H1322 H 0.63818 -0.00283 0.09978 0.0
H1323 H 0.65029 -0.00123 0.00703 0.0
C1324 C 0.67227 0.03559 0.01296 0.0
C1325 C 0.68384 0.05332 0.03165 0.0
C1326 C 0.63731 0.98014 0.08635 0.0
C1327 C 0.65588 0.00792 0.04915 0.0
C1328 C 0.63013 0.95516 0.09646 0.0
C1329 C 0.62988 0.93257 0.07973 0.0
C1330 C 0.64425 0.98262 0.05932 0.0
C1331 C 0.63549 0.93612 0.05247 0.0
C1332 C 0.65841 0.01274 0.02165 0.0
C1333 C 0.68003 0.04824 0.05893 0.0
N1334 N 0.64274 0.96069 0.04312 0.0
N1335 N 0.66646 0.02594 0.06685 0.0
H1336 H 0.66628 0.02156 0.64827 0.0
H1337 H 0.79813 0.10236 0.68676 0.0
H1338 H 0.67937 0.0558 0.72664 0.0
H1339 H 0.77427 0.0871 0.60507 0.0
H1340 H 0.75386 0.08738 0.70161 0.0
H1341 H 0.70465 0.04729 0.63165 0.0
C1342 C 0.67708 0.0347 0.66193 0.0
C1343 C 0.66984 0.03629 0.68896 0.0
C1344 C 0.75819 0.08763 0.68042 0.0
C1345 C 0.71392 0.0656 0.67012 0.0
C1346 C 0.78349 0.09607 0.67193 0.0
C1347 C 0.79001 0.09559 0.64467 0.0
C1348 C 0.73941 0.07831 0.66153 0.0
C1349 C 0.77017 0.0876 0.6263 0.0
C1350 C 0.69893 0.04946 0.6524 0.0
C1351 C 0.68436 0.05386 0.70568 0.0
N1352 N 0.74587 0.07889 0.6351 0.0
N1353 N 0.70599 0.06755 0.69608 0.0
H1354 H 0.66815 0.92835 0.49418 0.0
H1355 H 0.63996 0.0059 0.35889 0.0
H1356 H 0.68646 0.89802 0.41556 0.0
H1357 H 0.63319 0.04063 0.4377 0.0
H1358 H 0.64579 0.9621 0.37925 0.0
H1359 H 0.64327 0.96453 0.4736 0.0
C1360 C 0.66636 0.9289 0.47261 0.0
C1361 C 0.67994 0.91061 0.4565 0.0
C1362 C 0.64274 0.97927 0.39207 0.0
C1363 C 0.65193 0.95203 0.43291 0.0
C1364 C 0.63951 0.00431 0.38047 0.0
C1365 C 0.6368 0.02708 0.39664 0.0
C1366 C 0.64329 0.977 0.42003 0.0
C1367 C 0.63583 0.02371 0.42447 0.0
C1368 C 0.65229 0.94964 0.46088 0.0
C1369 C 0.67675 0.91208 0.4287 0.0
N1370 N 0.63942 -0.00081 0.43529 0.0
N1371 N 0.66347 0.93277 0.41775 0.0
H1372 H 0.77636 0.93055 0.24885 0.0
H1373 H 0.71155 0.86454 0.1183 0.0
H1374 H 0.81698 0.92142 0.1734 0.0
H1375 H 0.66764 0.87827 0.19121 0.0
H1376 H 0.75281 0.87697 0.14148 0.0
H1377 H 0.73891 0.90333 0.23135 0.0
C1378 C 0.77756 0.92244 0.2288 0.0
C1379 C 0.79946 0.9286 0.21233 0.0
C1380 C 0.73419 0.87702 0.15251 0.0
C1381 C 0.757 0.89769 0.19227 0.0
C1382 C 0.71061 0.86996 0.13925 0.0
C1383 C 0.68605 0.87097 0.15266 0.0
C1384 C 0.73319 0.88539 0.17931 0.0
C1385 C 0.6861 0.87763 0.17997 0.0
C1386 C 0.75622 0.90699 0.2188 0.0
C1387 C 0.80019 0.91754 0.18657 0.0
N1388 N 0.70929 0.885 0.19231 0.0
N1389 N 0.77913 0.90286 0.17724 0.0
H1390 H 0.78928 0.08703 0.92086 0.0
H1391 H 0.85693 0.94842 0.94228 0.0
H1392 H 0.81657 0.05925 -0.00241 0.0
H1393 H 0.83707 0.98032 0.8648 0.0
H1394 H 0.8513 -0.00735 0.96179 0.0
H1395 H 0.81591 0.05304 0.89905 0.0
C1396 C 0.8013 0.07402 0.93309 0.0
C1397 C 0.80021 0.07538 0.96105 0.0
C1398 C 0.84857 -0.00989 0.94046 0.0
C1399 C 0.8303 0.03616 0.93631 0.0
C1400 C 0.8516 0.96481 0.92932 0.0
C1401 C 0.84661 0.96056 0.90202 0.0
C1402 C 0.84013 0.0112 0.92423 0.0
C1403 C 0.84053 0.98261 0.88605 0.0
C1404 C 0.81654 0.05464 0.92064 0.0
C1405 C 0.81657 0.05854 0.97596 0.0
N1406 N 0.83694 0.00692 0.8975 0.0
N1407 N 0.83049 0.03913 0.9634 0.0
H1408 H 0.73162 0.69343 0.93016 0.0
H1409 H 0.85837 0.7791 0.88167 0.0
H1410 H 0.81195 0.6638 0.92442 0.0
H1411 H 0.78183 0.81358 0.89957 0.0
H1412 H 0.83865 0.73469 0.88751 0.0
H1413 H 0.74676 0.73519 0.90899 0.0
C1414 C 0.75229 0.69551 0.92392 0.0
C1415 C 0.77073 0.67546 0.92943 0.0
C1416 C 0.82609 0.75194 0.89002 0.0
C1417 C 0.78808 0.72287 0.90548 0.0
C1418 C 0.83737 0.77733 0.88681 0.0
C1419 C 0.82186 0.80008 0.89081 0.0
C1420 C 0.79914 0.74922 0.89748 0.0
C1421 C 0.7946 0.79655 0.89675 0.0
C1422 C 0.76093 0.71934 0.91198 0.0
C1423 C 0.79722 0.67902 0.92092 0.0
N1424 N 0.78415 0.77153 0.90028 0.0
N1425 N 0.80517 0.70242 0.90963 0.0
H1426 H 0.33045 0.82162 0.03321 0.0
H1427 H 0.29131 0.68574 0.09951 0.0
H1428 H 0.24784 0.79686 0.04202 0.0
H1429 H 0.3671 0.7263 0.1135 0.0
H1430 H 0.27313 0.72769 0.08315 0.0
H1431 H 0.34306 0.78869 0.06642 0.0
C1432 C 0.31494 0.80933 0.04238 0.0
C1433 C 0.28816 0.81154 0.03464 0.0
C1434 C 0.29356 0.72751 0.09037 0.0
C1435 C 0.30241 0.77357 0.0724 0.0
C1436 C 0.30398 0.70356 0.09968 0.0
C1437 C 0.33103 0.70234 0.10707 0.0
C1438 C 0.31042 0.75016 0.08825 0.0
C1439 C 0.34635 0.72613 0.1073 0.0
C1440 C 0.3221 0.79067 0.06148 0.0
C1441 C 0.26875 0.79553 0.04739 0.0
N1442 N 0.33599 0.74894 0.09747 0.0
N1443 N 0.27633 0.77672 0.06531 0.0
H1444 H 0.91455 0.54133 0.79574 0.0
H1445 H 0.01911 0.606 0.86004 0.0
H1446 H 0.94795 0.46756 0.82399 0.0
H1447 H 0.05752 0.52953 0.85398 0.0
H1448 H 0.9763 0.58404 0.85016 0.0
H1449 H 0.94999 0.56616 0.81838 0.0
C1450 C 0.92911 0.53036 0.80716 0.0
C1451 C 0.92845 0.50229 0.80773 0.0
C1452 C -0.00591 0.57207 0.85068 0.0
C1453 C 0.96903 0.53076 0.8344 0.0
C1454 C 0.01855 0.58459 0.85659 0.0
C1455 C 0.04205 0.56971 0.85712 0.0
C1456 C -0.00676 0.54452 0.84493 0.0
C1457 C 0.04 0.54192 0.85322 0.0
C1458 C 0.94927 0.54464 0.82044 0.0
C1459 C 0.94777 0.48918 0.82294 0.0
N1460 N 0.01607 0.53028 0.84698 0.0
N1461 N 0.96755 0.50353 0.83533 0.0
H1462 H 0.16608 0.14753 0.53424 0.0
H1463 H 0.17831 0.28545 0.61115 0.0
H1464 H 0.2375 0.1756 0.5749 0.0
H1465 H 0.10473 0.25548 0.57595 0.0
H1466 H 0.19779 0.24155 0.60523 0.0
H1467 H 0.14075 0.18225 0.55682 0.0
C1468 C 0.17632 0.16062 0.54836 0.0
C1469 C 0.20405 0.15914 0.55222 0.0
C1470 C 0.17727 0.24442 0.59908 0.0
C1471 C 0.17534 0.19906 0.57777 0.0
C1472 C 0.16618 0.26955 0.60233 0.0
C1473 C 0.14009 0.27426 0.59342 0.0
C1474 C 0.1623 0.22394 0.58648 0.0
C1475 C 0.12508 0.25279 0.58272 0.0
C1476 C 0.16186 0.18049 0.5612 0.0
C1477 C 0.21624 0.17638 0.57095 0.0
N1478 N 0.13658 0.22864 0.5791 0.0
N1479 N 0.20189 0.19596 0.58265 0.0
H1480 H 0.04387 0.0006 0.8129 0.0
H1481 H 0.95754 0.87366 0.85968 0.0
H1482 H 0.07129 0.91925 0.81165 0.0
H1483 H 0.92448 0.95179 0.8466 0.0
H1484 H 0.00219 0.89254 0.85267 0.0
H1485 H 0.00329 0.98537 0.83616 0.0
C1486 C 0.04161 0.97966 0.81807 0.0
C1487 C 0.06059 0.96101 0.80995 0.0
C1488 C 0.98519 0.90561 0.85153 0.0
C1489 C 0.01448 0.94356 0.83623 0.0
C1490 C 0.95967 0.89483 0.85542 0.0
C1491 C 0.9372 0.91105 0.85306 0.0
C1492 C -0.01169 0.93279 0.84511 0.0
C1493 C 0.94123 0.93846 0.84811 0.0
C1494 C 0.01843 0.97097 0.83119 0.0
C1495 C 0.05684 0.93416 0.81716 0.0
N1496 N 0.96632 0.94843 0.84396 0.0
N1497 N 0.03404 0.92617 0.82962 0.0
H1498 H 0.75322 0.29113 0.40035 0.0
H1499 H 0.61582 0.20795 0.38783 0.0
H1500 H 0.67772 0.31795 0.43143 0.0
H1501 H 0.69376 0.17527 0.37276 0.0
H1502 H 0.63684 0.25205 0.39438 0.0
H1503 H 0.73005 0.25263 0.38013 0.0
C1504 C 0.73171 0.28922 0.4025 0.0
C1505 C 0.71744 0.3075 0.41802 0.0
C1506 C 0.64928 0.23524 0.3894 0.0
C1507 C 0.69092 0.26348 0.39515 0.0
C1508 C 0.63731 0.21008 0.38567 0.0
C1509 C 0.65313 0.18782 0.38025 0.0
C1510 C 0.67721 0.23814 0.38754 0.0
C1511 C 0.68084 0.1918 0.37741 0.0
C1512 C 0.71853 0.26717 0.39107 0.0
C1513 C 0.68958 0.30409 0.42001 0.0
N1514 N 0.69203 0.21643 0.3813 0.0
N1515 N 0.67727 0.2823 0.40899 0.0
H1516 H 0.90969 0.3941 0.68218 0.0
H1517 H 0.04794 0.43373 0.62335 0.0
H1518 H 0.93743 0.47625 0.67981 0.0
H1519 H 0.00743 0.35868 0.60563 0.0
H1520 H 0.00524 0.45243 0.63679 0.0
H1521 H 0.94192 0.38293 0.6477 0.0
C1522 C 0.92243 0.40985 0.67406 0.0
C1523 C 0.92144 0.43596 0.68411 0.0
C1524 C 0.0056 0.43207 0.62935 0.0
C1525 C 0.95873 0.42334 0.64507 0.0
C1526 C 0.03 0.42134 0.62173 0.0
C1527 C 0.03137 0.39428 0.61435 0.0
C1528 C 0.98263 0.41549 0.62982 0.0
C1529 C 0.00743 0.37939 0.61204 0.0
C1530 C 0.94072 0.40354 0.65425 0.0
C1531 C 0.93791 0.45579 0.67268 0.0
N1532 N 0.98412 0.39001 0.62034 0.0
N1533 N 0.95645 0.44894 0.65416 0.0
H1534 H 0.57873 0.57565 0.19497 0.0
H1535 H 0.43913 0.55428 0.12221 0.0
H1536 H 0.55013 0.49989 0.16341 0.0
H1537 H 0.46909 0.63133 0.14918 0.0
H1538 H 0.48307 0.53561 0.13022 0.0
H1539 H 0.54283 0.59798 0.17111 0.0
C1540 C 0.56523 0.56378 0.18259 0.0
C1541 C 0.56702 0.53583 0.18162 0.0
C1542 C 0.48017 0.55668 0.13411 0.0
C1543 C 0.52578 0.56113 0.15461 0.0
C1544 C 0.45503 0.56733 0.12965 0.0
C1545 C 0.4503 0.59426 0.13562 0.0
C1546 C 0.50067 0.57298 0.14493 0.0
C1547 C 0.47177 0.61036 0.14467 0.0
C1548 C 0.54469 0.57652 0.16902 0.0
C1549 C 0.54918 0.52145 0.16509 0.0
N1550 N 0.49594 0.59936 0.14947 0.0
N1551 N 0.52902 0.53422 0.15259 0.0
H1552 H 0.57515 0.74186 0.79738 0.0
H1553 H 0.60056 0.60542 0.71946 0.0
H1554 H 0.53717 0.66629 0.81732 0.0
H1555 H 0.61136 0.68357 0.68401 0.0
H1556 H 0.58992 0.62667 0.76194 0.0
H1557 H 0.60095 0.71933 0.76276 0.0
C1558 C 0.57267 0.72042 0.7949 0.0
C1559 C 0.55367 0.70594 0.80992 0.0
C1560 C 0.59497 0.63913 0.74494 0.0
C1561 C 0.58309 0.68022 0.77048 0.0
C1562 C 0.60106 0.62707 0.72065 0.0
C1563 C 0.60626 0.64277 0.69793 0.0
C1564 C 0.59426 0.66708 0.74663 0.0
C1565 C 0.60701 0.6707 0.70088 0.0
C1566 C 0.58732 0.70766 0.77507 0.0
C1567 C 0.55135 0.67823 0.80593 0.0
N1568 N 0.60075 0.682 0.72475 0.0
N1569 N 0.56571 0.66629 0.78637 0.0
H1570 H 0.55063 0.28864 0.08094 0.0
H1571 H 0.6166 0.32751 0.96542 0.0
H1572 H 0.48974 0.34415 0.05753 0.0
H1573 H 0.5374 0.34882 0.93935 0.0
H1574 H 0.60027 0.32467 0.0112 0.0
H1575 H 0.5763 0.30101 0.04154 0.0
C1576 C 0.54298 0.30395 0.06787 0.0
C1577 C 0.51781 0.31508 0.07233 0.0
C1578 C 0.58638 0.32964 -0.00454 0.0
C1579 C 0.54727 0.32964 0.02724 0.0
C1580 C 0.59572 0.33142 0.9693 0.0
C1581 C 0.57817 0.3378 0.94844 0.0
C1582 C 0.55926 0.33412 0.00071 0.0
C1583 C 0.55152 0.34333 0.95473 0.0
C1584 C 0.55779 0.31118 0.04538 0.0
C1585 C 0.50893 0.33485 0.05475 0.0
N1586 N 0.54284 0.3412 0.98031 0.0
N1587 N 0.52343 0.34112 0.03269 0.0
H1588 H 0.96265 0.26684 0.26044 0.0
H1589 H 0.84009 0.34599 0.21875 0.0
H1590 H 0.9013 0.2795 0.31946 0.0
H1591 H 0.87261 0.28635 0.16589 0.0
H1592 H 0.86085 0.32337 0.25664 0.0
H1593 H 0.9303 0.2765 0.22521 0.0
C1594 C 0.94232 0.27161 0.26591 0.0
C1595 C 0.93455 0.2726 0.29274 0.0
C1596 C 0.86274 0.3149 0.23679 0.0
C1597 C 0.8977 0.28379 0.25281 0.0
C1598 C 0.85092 0.32775 0.21518 0.0
C1599 C 0.85517 0.31842 0.18906 0.0
C1600 C 0.87929 0.29307 0.232 0.0
C1601 C 0.86916 0.29454 0.18562 0.0
C1602 C 0.92385 0.27681 0.24587 0.0
C1603 C 0.90795 0.27861 0.29889 0.0
N1604 N 0.88141 0.28312 0.20678 0.0
N1605 N 0.89048 0.28454 0.27902 0.0
H1606 H 0.97809 0.69268 0.56341 0.0
H1607 H 0.85956 0.6667 0.459 0.0
H1608 H 0.90335 0.73464 0.5651 0.0
H1609 H 0.94186 0.64702 0.44336 0.0
H1610 H 0.87268 0.68315 0.50317 0.0
H1611 H 0.96201 0.66721 0.52463 0.0
C1612 C 0.95817 0.69631 0.55585 0.0
C1613 C 0.94215 0.71607 0.56725 0.0
C1614 C 0.8878 0.67506 0.4901 0.0
C1615 C 0.92374 0.68702 0.52307 0.0
C1616 C 0.88036 0.66563 0.46492 0.0
C1617 C 0.89974 0.65585 0.44733 0.0
C1618 C 0.91475 0.67448 0.49783 0.0
C1619 C 0.92635 0.65478 0.45615 0.0
C1620 C 0.94909 0.68184 0.53368 0.0
C1621 C 0.91649 0.71985 0.55669 0.0
N1622 N 0.93311 0.66412 0.48079 0.0
N1623 N 0.90812 0.70555 0.53507 0.0
H1624 H 0.53677 0.25225 0.6735 0.0
H1625 H 0.57132 0.37392 0.77202 0.0
H1626 H 0.4991 0.32915 0.66876 0.0
H1627 H 0.58087 0.29108 0.7937 0.0
H1628 H 0.5546 0.35956 0.72824 0.0
H1629 H 0.56285 0.26846 0.71188 0.0
C1630 C 0.53425 0.27265 0.6803 0.0
C1631 C 0.51552 0.28931 0.66818 0.0
C1632 C 0.5606 0.34459 0.74254 0.0
C1633 C 0.54531 0.30787 0.71177 0.0
C1634 C 0.57021 0.35273 0.76746 0.0
C1635 C 0.57714 0.3336 0.7866 0.0
C1636 C 0.55826 0.3172 0.73665 0.0
C1637 C 0.57536 0.30643 0.77961 0.0
C1638 C 0.54905 0.2818 0.70222 0.0
C1639 C 0.51307 0.31555 0.67777 0.0
N1640 N 0.56598 0.29901 0.75518 0.0
N1641 N 0.52775 0.32402 0.6991 0.0
H1642 H 0.94762 0.32311 0.91427 0.0
H1643 H 0.93408 0.34581 0.07054 0.0
H1644 H 0.95951 0.26097 0.9725 0.0
H1645 H 0.87507 0.37671 0.01612 0.0
H1646 H 0.95747 0.32631 0.03266 0.0
H1647 H 0.93338 0.35321 0.95037 0.0
C1648 C 0.94746 0.31596 0.93469 0.0
C1649 C 0.95444 0.28957 0.94061 0.0
C1650 C 0.93972 0.33789 0.02909 0.0
C1651 C 0.93926 0.32382 0.98149 0.0
C1652 C 0.9264 0.34917 0.0506 0.0
C1653 C 0.90217 0.36234 0.0465 0.0
C1654 C 0.92903 0.34028 0.00337 0.0
C1655 C 0.89341 0.36627 0.02016 0.0
C1656 C 0.93941 0.33306 0.9551 0.0
C1657 C 0.95395 0.28111 0.96722 0.0
N1658 N 0.9067 0.35494 -0.00052 0.0
N1659 N 0.94658 0.29828 0.98679 0.0
H1660 H 0.94344 0.66319 0.15515 0.0
H1661 H 0.87358 0.67312 0.29234 0.0
H1662 H 0.87139 0.70805 0.16717 0.0
H1663 H 0.92137 0.60474 0.27291 0.0
H1664 H 0.87071 0.68385 0.24508 0.0
H1665 H 0.9331 0.63746 0.1953 0.0
C1666 C 0.92506 0.66715 0.16577 0.0
C1667 C 0.90876 0.68849 0.15839 0.0
C1668 C 0.88158 0.66629 0.25103 0.0
C1669 C 0.89714 0.65944 0.20436 0.0
C1670 C 0.88354 0.6604 0.27803 0.0
C1671 C 0.89823 0.63839 0.28644 0.0
C1672 C 0.89493 0.65043 0.2323 0.0
C1673 C 0.91017 0.62212 0.26711 0.0
C1674 C 0.91919 0.65243 0.18871 0.0
C1675 C 0.88495 0.69232 0.17257 0.0
N1676 N 0.90871 0.62879 0.24084 0.0
N1677 N 0.88021 0.67842 0.19532 0.0
H1678 H 0.5622 0.69375 0.41657 0.0
H1679 H 0.54043 0.62209 0.55421 0.0
H1680 H 0.48609 0.65805 0.43839 0.0
H1681 H 0.61814 0.62792 0.51686 0.0
H1682 H 0.51987 0.63443 0.51168 0.0
H1683 H 0.58345 0.66868 0.45244 0.0
C1684 C 0.55007 0.68026 0.42859 0.0
C1685 C 0.52234 0.67817 0.42472 0.0
C1686 C 0.5414 0.63261 0.51275 0.0
C1687 C 0.54633 0.64997 0.46604 0.0
C1688 C 0.55313 0.62572 0.53703 0.0
C1689 C 0.58104 0.62432 0.53917 0.0
C1690 C 0.55774 0.63859 0.49066 0.0
C1691 C 0.59654 0.62894 0.51619 0.0
C1692 C 0.56218 0.66596 0.44904 0.0
C1693 C 0.50753 0.66033 0.44079 0.0
N1694 N 0.58471 0.63629 0.493 0.0
N1695 N 0.51963 0.64729 0.46112 0.0
H1696 H 0.80704 0.56402 0.73766 0.0
H1697 H 0.71562 0.57894 0.60819 0.0
H1698 H 0.82239 0.52579 0.66188 0.0
H1699 H 0.68808 0.59336 0.68868 0.0
H1700 H 0.76041 0.57154 0.62554 0.0
H1701 H 0.76955 0.58734 0.71729 0.0
C1702 C 0.80296 0.56108 0.71657 0.0
C1703 C 0.81743 0.54261 0.70149 0.0
C1704 C 0.74461 0.57658 0.63935 0.0
C1705 C 0.77476 0.569 0.67829 0.0
C1706 C 0.71899 0.58074 0.62951 0.0
C1707 C 0.69791 0.58615 0.64711 0.0
C1708 C 0.74922 0.57795 0.66696 0.0
C1709 C 0.70363 0.5887 0.67447 0.0
C1710 C 0.78149 0.57424 0.70505 0.0
C1711 C 0.8114 0.53955 0.67429 0.0
N1712 N 0.72875 0.5843 0.68362 0.0
N1713 N 0.79028 0.55238 0.6636 0.0
H1714 H 0.68301 0.5568 0.95299 0.0
H1715 H 0.6744 0.39998 0.93101 0.0
H1716 H 0.75378 0.51009 0.9412 0.0
H1717 H 0.6218 0.45221 0.88813 0.0
H1718 H 0.69865 0.43944 0.94861 0.0
H1719 H 0.65532 0.51715 0.94184 0.0
C1720 C 0.69265 0.53816 0.9482 0.0
C1721 C 0.72062 0.53659 0.94773 0.0
C1722 C 0.68151 0.44212 0.93569 0.0
C1723 C 0.68933 0.49151 0.93593 0.0
C1724 C 0.66759 0.41977 0.92587 0.0
C1725 C 0.64621 0.42305 0.90812 0.0
C1726 C 0.67348 0.46774 0.92816 0.0
C1727 C 0.63831 0.44901 0.90171 0.0
C1728 C 0.67691 0.51571 0.94188 0.0
C1729 C 0.73225 0.51208 0.94144 0.0
N1730 N 0.65196 0.4705 0.91179 0.0
N1731 N 0.7165 0.49034 0.93595 0.0
H1732 H 0.6554 0.38017 0.22172 0.0
H1733 H 0.75318 0.40927 0.10103 0.0
H1734 H 0.65142 0.44948 0.17067 0.0
H1735 H 0.76519 0.3509 0.16303 0.0
H1736 H 0.70687 0.41408 0.11603 0.0
H1737 H 0.68527 0.35937 0.18968 0.0
C1738 C 0.66039 0.39082 0.20353 0.0
C1739 C 0.65178 0.41702 0.19933 0.0
C1740 C 0.7195 0.39978 0.12593 0.0
C1741 C 0.68614 0.39347 0.16283 0.0
C1742 C 0.74588 0.39705 0.1174 0.0
C1743 C 0.76312 0.38033 0.13145 0.0
C1744 C 0.71053 0.38558 0.14849 0.0
C1745 C 0.75267 0.36464 0.15224 0.0
C1746 C 0.67742 0.37891 0.18522 0.0
C1747 C 0.65823 0.42954 0.17506 0.0
N1748 N 0.72714 0.36796 0.16041 0.0
N1749 N 0.67562 0.41791 0.15797 0.0
H1750 H 0.81641 0.41734 0.45924 0.0
H1751 H 0.82192 0.57427 0.43688 0.0
H1752 H 0.74533 0.46493 0.45612 0.0
H1753 H 0.87562 0.52188 0.39522 0.0
H1754 H 0.79893 0.53509 0.45569 0.0
H1755 H 0.84317 0.45671 0.44601 0.0
C1756 C 0.80649 0.43611 0.45581 0.0
C1757 C 0.77868 0.43802 0.45857 0.0
C1758 C 0.81598 0.53229 0.44271 0.0
C1759 C 0.80906 0.48284 0.44423 0.0
C1760 C 0.82929 0.55456 0.43219 0.0
C1761 C 0.8506 0.55122 0.41434 0.0
C1762 C 0.82441 0.50664 0.43572 0.0
C1763 C 0.85915 0.52523 0.40877 0.0
C1764 C 0.82173 0.45843 0.4483 0.0
C1765 C 0.76672 0.46268 0.45393 0.0
N1766 N 0.84595 0.50382 0.41941 0.0
N1767 N 0.78205 0.48429 0.44714 0.0
H1768 H 0.80085 0.45497 0.81856 0.0
H1769 H 0.67273 0.36839 0.78908 0.0
H1770 H 0.79416 0.41196 0.74383 0.0
H1771 H 0.70861 0.37094 0.86769 0.0
H1772 H 0.71449 0.38706 0.77056 0.0
H1773 H 0.76337 0.42815 0.8361 0.0
C1774 C 0.79145 0.43989 0.8059 0.0
C1775 C 0.80045 0.43557 0.7798 0.0
C1776 C 0.71321 0.38303 0.79178 0.0
C1777 C 0.75775 0.40524 0.79948 0.0
C1778 C 0.68949 0.37241 0.80233 0.0
C1779 C 0.68713 0.36838 0.82997 0.0
C1780 C 0.73424 0.39015 0.80913 0.0
C1781 C 0.70947 0.37383 0.84627 0.0
C1782 C 0.77029 0.42451 0.81593 0.0
C1783 C 0.78776 0.41574 0.76414 0.0
N1784 N 0.73194 0.38496 0.83567 0.0
N1785 N 0.76672 0.40145 0.77412 0.0
H1786 H 0.7917 0.57807 0.0611 0.0
H1787 H 0.8799 0.45123 0.07455 0.0
H1788 H 0.85786 0.55934 0.00932 0.0
H1789 H 0.8159 0.47015 0.12872 0.0
H1790 H 0.88045 0.49725 0.05879 0.0
H1791 H 0.80836 0.54635 0.09376 0.0
C1792 C 0.81006 0.56772 0.05682 0.0
C1793 C 0.82287 0.57057 0.03201 0.0
C1794 C 0.86657 0.49159 0.07446 0.0
C1795 C 0.84186 0.53415 0.06918 0.0
C1796 C 0.8662 0.46529 0.08337 0.0
C1797 C 0.8473 0.45688 0.10233 0.0
C1798 C 0.84737 0.50936 0.08407 0.0
C1799 C 0.83046 0.47588 0.1137 0.0
C1800 C 0.81957 0.54961 0.07552 0.0
C1801 C 0.84689 0.55716 0.02784 0.0
N1802 N 0.83041 0.50118 0.10387 0.0
N1803 N 0.85528 0.53907 0.046 0.0
H1804 H 0.71701 0.4837 0.28991 0.0
H1805 H 0.78109 0.61639 0.34328 0.0
H1806 H 0.67705 0.55802 0.27524 0.0
H1807 H 0.83003 0.55661 0.30606 0.0
H1808 H 0.74126 0.59483 0.32332 0.0
H1809 H 0.75779 0.50905 0.3016 0.0
C1810 C 0.71687 0.50536 0.28919 0.0
C1811 C 0.69374 0.51888 0.28173 0.0
C1812 C 0.76081 0.58678 0.31925 0.0
C1813 C 0.73993 0.54778 0.29529 0.0
C1814 C 0.78344 0.59896 0.33062 0.0
C1815 C 0.80877 0.58816 0.32632 0.0
C1816 C 0.76361 0.56327 0.30422 0.0
C1817 C 0.81084 0.5656 0.30977 0.0
C1818 C 0.74011 0.51974 0.29562 0.0
C1819 C 0.69457 0.54693 0.28087 0.0
N1820 N 0.78844 0.55354 0.29972 0.0
N1821 N 0.71726 0.56057 0.288 0.0
H1822 H 0.68834 0.39845 0.57326 0.0
H1823 H 0.62139 0.50324 0.62774 0.0
H1824 H 0.64714 0.41505 0.49949 0.0
H1825 H 0.62466 0.53191 0.54645 0.0
H1826 H 0.62761 0.45778 0.61139 0.0
H1827 H 0.66285 0.43317 0.59528 0.0
C1828 C 0.67329 0.40884 0.56192 0.0
C1829 C 0.67013 0.40422 0.53446 0.0
C1830 C 0.62694 0.47401 0.59715 0.0
C1831 C 0.64087 0.44403 0.55942 0.0
C1832 C 0.62328 0.49998 0.60642 0.0
C1833 C 0.62345 0.52154 0.58847 0.0
C1834 C 0.63096 0.46963 0.56977 0.0
C1835 C 0.62511 0.51598 0.56104 0.0
C1836 C 0.65856 0.4286 0.57454 0.0
C1837 C 0.65033 0.41818 0.52068 0.0
N1838 N 0.62919 0.49056 0.55254 0.0
N1839 N 0.63696 0.43803 0.53315 0.0
H1840 H 0.70621 0.78564 0.50905 0.0
H1841 H 0.64089 0.70407 0.62269 0.0
H1842 H 0.74185 0.79821 0.5868 0.0
H1843 H 0.68194 0.66129 0.56045 0.0
H1844 H 0.66451 0.74554 0.60881 0.0
H1845 H 0.68226 0.74611 0.52648 0.0
C1846 C 0.70861 0.78031 0.52987 0.0
C1847 C 0.72599 0.79499 0.54658 0.0
C1848 C 0.6683 0.72693 0.59846 0.0
C1849 C 0.69851 0.7506 0.56643 0.0
C1850 C 0.65493 0.70347 0.60624 0.0
C1851 C 0.65973 0.67944 0.59271 0.0
C1852 C 0.68565 0.7262 0.57653 0.0
C1853 C 0.67799 0.67946 0.57149 0.0
C1854 C 0.69513 0.75783 0.53966 0.0
C1855 C 0.72868 0.7872 0.57335 0.0
N1856 N 0.69003 0.70267 0.56372 0.0
N1857 N 0.71488 0.76547 0.58261 0.0
H1858 H 0.12669 0.65198 0.44514 0.0
H1859 H 0.15211 0.77546 0.3553 0.0
H1860 H 0.18846 0.65548 0.38503 0.0
H1861 H 0.07956 0.76385 0.4008 0.0
H1862 H 0.16064 0.72776 0.3588 0.0
H1863 H 0.10304 0.68707 0.42171 0.0
C1864 C 0.13485 0.65952 0.42653 0.0
C1865 C 0.16005 0.65158 0.41754 0.0
C1866 C 0.14258 0.73549 0.36763 0.0
C1867 C 0.13354 0.69217 0.39109 0.0
C1868 C 0.13785 0.76279 0.36583 0.0
C1869 C 0.11553 0.77371 0.37846 0.0
C1870 C 0.12517 0.7191 0.38266 0.0
C1871 C 0.09732 0.75631 0.39122 0.0
C1872 C 0.12138 0.67967 0.41318 0.0
C1873 C 0.16942 0.66159 0.39306 0.0
N1874 N 0.10285 0.72993 0.39352 0.0
N1875 N 0.15656 0.682 0.38109 0.0
H1876 H 0.51399 0.96005 0.76125 0.0
H1877 H 0.44912 0.87499 0.64269 0.0
H1878 H 0.55106 0.95539 0.68355 0.0
H1879 H 0.4013 0.92011 0.69797 0.0
H1880 H 0.48969 0.89458 0.6632 0.0
H1881 H 0.47484 0.93557 0.74348 0.0
C1882 C 0.51389 0.95374 0.74051 0.0
C1883 C 0.53552 0.95985 0.7237 0.0
C1884 C 0.47025 0.89994 0.67087 0.0
C1885 C 0.49146 0.93163 0.70364 0.0
C1886 C 0.44724 0.88873 0.65935 0.0
C1887 C 0.42202 0.89619 0.66862 0.0
C1888 C 0.46782 0.91813 0.69209 0.0
C1889 C 0.42047 0.91413 0.69013 0.0
C1890 C 0.49165 0.93988 0.73044 0.0
C1891 C 0.53456 0.95127 0.69701 0.0
N1892 N 0.44313 0.92448 0.70125 0.0
N1893 N 0.51286 0.93742 0.68777 0.0
H1894 H 0.25459 0.30308 0.92319 0.0
H1895 H 0.37206 0.22833 0.84951 0.0
H1896 H 0.33865 0.32356 0.92892 0.0
H1897 H 0.29687 0.19048 0.87101 0.0
H1898 H 0.35366 0.27171 0.86103 0.0
H1899 H 0.26482 0.27049 0.88811 0.0
C1900 C 0.2751 0.3012 0.9166 0.0
C1901 C 0.29595 0.31551 0.92932 0.0
C1902 C 0.34097 0.25397 0.86253 0.0
C1903 C 0.30755 0.27881 0.88919 0.0
C1904 C 0.35142 0.22923 0.85596 0.0
C1905 C 0.33625 0.20575 0.8603 0.0
C1906 C 0.31529 0.25514 0.87361 0.0
C1907 C 0.30943 0.20808 0.86798 0.0
C1908 C 0.28086 0.28264 0.89663 0.0
C1909 C 0.3221 0.31246 0.91999 0.0
N1910 N 0.29995 0.23238 0.8751 0.0
N1911 N 0.3272 0.29421 0.90065 0.0
H1912 H 0.42758 0.48298 0.6347 0.0
H1913 H 0.51878 0.61459 0.65078 0.0
H1914 H 0.40987 0.54639 0.69049 0.0
H1915 H 0.54581 0.53907 0.61979 0.0
H1916 H 0.4735 0.59526 0.6549 0.0
H1917 H 0.46496 0.50976 0.61766 0.0
C1918 C 0.43122 0.50273 0.64307 0.0
C1919 C 0.41602 0.51217 0.66456 0.0
C1920 C 0.48935 0.58311 0.64694 0.0
C1921 C 0.45883 0.54275 0.64521 0.0
C1922 C 0.51511 0.59406 0.64461 0.0
C1923 C 0.53606 0.57818 0.63542 0.0
C1924 C 0.48461 0.55632 0.6396 0.0
C1925 C 0.53029 0.5518 0.62748 0.0
C1926 C 0.45262 0.51795 0.63336 0.0
C1927 C 0.42141 0.53812 0.67424 0.0
N1928 N 0.5051 0.54165 0.62987 0.0
N1929 N 0.44271 0.55239 0.66477 0.0
H1930 H 0.72245 0.19652 0.03935 0.0
H1931 H 0.85508 0.28415 0.05878 0.0
H1932 H 0.78698 0.1954 0.98214 0.0
H1933 H 0.77806 0.31067 0.08601 0.0
H1934 H 0.83287 0.24584 0.03667 0.0
H1935 H 0.74509 0.2337 0.06265 0.0
C1936 C 0.74133 0.20419 0.03168 0.0
C1937 C 0.75286 0.19308 0.00879 0.0
C1938 C 0.82095 0.26007 0.04759 0.0
C1939 C 0.77892 0.23492 0.03548 0.0
C1940 C 0.83356 0.28171 0.06032 0.0
C1941 C 0.81827 0.30051 0.07405 0.0
C1942 C 0.79303 0.25709 0.04917 0.0
C1943 C 0.79047 0.29665 0.07539 0.0
C1944 C 0.75418 0.22532 0.04493 0.0
C1945 C 0.77736 0.20362 -0.00038 0.0
N1946 N 0.77869 0.27526 0.06315 0.0
N1947 N 0.78975 0.2239 0.01317 0.0
H1948 H 0.57999 0.02324 0.84476 0.0
H1949 H 0.45428 0.06205 0.87795 0.0
H1950 H 0.57285 0.0889 0.78954 0.0
H1951 H 0.4794 0.14232 0.85669 0.0
H1952 H 0.49985 0.04717 0.87037 0.0
H1953 H 0.54657 0.04385 0.87348 0.0
C1954 C 0.57192 0.04234 0.839 0.0
C1955 C 0.57856 0.05403 0.81434 0.0
C1956 C 0.49564 0.06822 0.86828 0.0
C1957 C 0.54012 0.07726 0.84674 0.0
C1958 C 0.46951 0.07667 0.87235 0.0
C1959 C 0.46286 0.10331 0.86729 0.0
C1960 C 0.51508 0.08654 0.85882 0.0
C1961 C 0.48348 0.12146 0.86032 0.0
C1962 C 0.55264 0.0539 0.85527 0.0
C1963 C 0.5678 0.07892 0.80808 0.0
N1964 N 0.5085 0.11258 0.85558 0.0
N1965 N 0.54875 0.08953 0.824 0.0
H1966 H 0.95888 0.93637 0.24538 0.0
H1967 H 0.00634 0.89196 0.38121 0.0
H1968 H 0.907 0.95735 0.31073 0.0
H1969 H 0.05948 0.94006 0.33231 0.0
H1970 H 0.96806 0.91096 0.3576 0.0
H1971 H -0.00457 0.9304 0.27732 0.0
C1972 C 0.95519 0.93949 0.26649 0.0
C1973 C 0.93003 0.9472 0.2756 0.0
C1974 C -0.01187 0.91788 0.35274 0.0
C1975 C 0.97141 0.94038 0.31191 0.0
C1976 C 0.00991 0.90715 0.36618 0.0
C1977 C 0.03609 0.91414 0.35839 0.0
C1978 C -0.00719 0.93499 0.33108 0.0
C1979 C 0.03966 0.93394 0.33882 0.0
C1980 C 0.97604 0.93644 0.28456 0.0
C1981 C 0.92624 0.95136 0.30309 0.0
N1982 N 0.01824 0.94303 0.32518 0.0
N1983 N 0.9467 0.94744 0.3205 0.0
H1984 H 0.42514 0.23881 0.21683 0.0
H1985 H 0.36468 0.37428 0.27177 0.0
H1986 H 0.42752 0.3145 0.17554 0.0
H1987 H 0.3736 0.30306 0.31941 0.0
H1988 H 0.37582 0.34854 0.23201 0.0
H1989 H 0.39519 0.25827 0.25017 0.0
C1990 C 0.41904 0.25937 0.21461 0.0
C1991 C 0.42925 0.27533 0.19391 0.0
C1992 C 0.375 0.33847 0.25113 0.0
C1993 C 0.39515 0.2975 0.23151 0.0
C1994 C 0.36867 0.35316 0.27384 0.0
C1995 C 0.36912 0.341 0.29902 0.0
C1996 C 0.38201 0.31152 0.25372 0.0
C1997 C 0.37374 0.31341 0.30044 0.0
C1998 C 0.40198 0.27043 0.23355 0.0
C1999 C 0.42058 0.30172 0.19162 0.0
N2000 N 0.38053 0.29968 0.27812 0.0
N2001 N 0.40425 0.31207 0.21039 0.0
H2002 H 0.48816 0.70368 0.93862 0.0
H2003 H 0.36683 0.6388 0.02115 0.0
H2004 H 0.40492 0.70675 0.91636 0.0
H2005 H 0.4427 0.65969 0.05775 0.0
H2006 H 0.38481 0.652 0.97795 0.0
H2007 H 0.47551 0.6765 0.97783 0.0
C2008 C 0.46735 0.69813 0.94172 0.0
C2009 C 0.44745 0.7076 0.92461 0.0
C2010 C 0.39762 0.6535 -0.00461 0.0
C2011 C 0.43302 0.67671 0.96871 0.0
C2012 C 0.38736 0.64603 0.02009 0.0
C2013 C 0.40307 0.64882 0.0432 0.0
C2014 C 0.42378 0.66396 -0.00632 0.0
C2015 C 0.42976 0.65765 0.04047 0.0
C2016 C 0.46016 0.68282 0.96404 0.0
C2017 C 0.42078 0.70008 0.92936 0.0
N2018 N 0.43922 0.66531 0.01612 0.0
N2019 N 0.41434 0.68518 0.95102 0.0
H2020 H 0.04259 0.66587 0.6669 0.0
H2021 H 0.11626 0.67959 0.80649 0.0
H2022 H 0.07604 0.74005 0.69761 0.0
H2023 H 0.09175 0.60359 0.77233 0.0
H2024 H 0.10723 0.70105 0.76389 0.0
H2025 H 0.06625 0.64167 0.70176 0.0
C2026 C 0.05533 0.67702 0.68065 0.0
C2027 C 0.05695 0.70506 0.67969 0.0
C2028 C 0.10409 0.67963 0.76554 0.0
C2029 C 0.08376 0.67756 0.71979 0.0
C2030 C 0.10913 0.66738 0.78993 0.0
C2031 C 0.10424 0.63986 0.79309 0.0
C2032 C 0.09372 0.66434 0.74421 0.0
C2033 C 0.09551 0.62493 0.77083 0.0
C2034 C 0.0688 0.66319 0.70059 0.0
C2035 C 0.07392 0.71846 0.69785 0.0
N2036 N 0.0901 0.63745 0.74741 0.0
N2037 N 0.0863 0.70462 0.71743 0.0
H2038 H -0.00518 0.35561 0.41415 0.0
H2039 H 0.12366 0.33438 0.50447 0.0
H2040 H 0.0603 0.30495 0.39204 0.0
H2041 H 0.04853 0.36546 0.53201 0.0
H2042 H 0.10687 0.33595 0.45843 0.0
H2043 H 0.02147 0.37301 0.4514 0.0
C2044 C 0.01507 0.34868 0.41662 0.0
C2045 C 0.025 0.32809 0.40052 0.0
C2046 C 0.09427 0.34278 0.47457 0.0
C2047 C 0.05536 0.34765 0.44329 0.0
C2048 C 0.10378 0.34181 0.5008 0.0
C2049 C 0.08717 0.34914 0.52208 0.0
C2050 C 0.06814 0.35141 0.4697 0.0
C2051 C 0.06173 0.35896 0.51623 0.0
C2052 C 0.03021 0.35852 0.43802 0.0
C2053 C 0.05157 0.32028 0.40443 0.0
N2054 N 0.05291 0.35958 0.49062 0.0
N2055 N 0.06564 0.32962 0.42583 0.0
H2056 H 0.38529 0.74939 0.30799 0.0
H2057 H 0.38918 0.61478 0.22252 0.0
H2058 H 0.42317 0.67719 0.33453 0.0
H2059 H 0.36576 0.69156 0.19192 0.0
H2060 H 0.39103 0.63404 0.26756 0.0
H2061 H 0.36642 0.72469 0.27008 0.0
C2062 C 0.38916 0.72821 0.30622 0.0
C2063 C 0.40644 0.71551 0.32407 0.0
C2064 C 0.38518 0.64654 0.25099 0.0
C2065 C 0.38521 0.68726 0.28055 0.0
C2066 C 0.38417 0.63559 0.2253 0.0
C2067 C 0.37791 0.65177 0.20339 0.0
C2068 C 0.37975 0.67378 0.25473 0.0
C2069 C 0.37127 0.67851 0.20817 0.0
C2070 C 0.37849 0.71415 0.28447 0.0
C2071 C 0.41043 0.68794 0.32092 0.0
N2072 N 0.37261 0.68873 0.23328 0.0
N2073 N 0.40031 0.67483 0.29926 0.0
H2074 H -0.01249 0.65269 0.04903 0.0
H2075 H 0.12618 0.63649 0.97288 0.0
H2076 H 0.06124 0.69175 0.07377 0.0
H2077 H 0.04903 0.61315 0.94064 0.0
H2078 H 0.10477 0.64681 0.01553 0.0
H2079 H 0.01218 0.62775 0.01548 0.0
C2080 C 0.00898 0.6557 0.04771 0.0
C2081 C 0.02229 0.67473 0.0638 0.0
C2082 C 0.09262 0.63911 -0.00081 0.0
C2083 C 0.05056 0.64645 0.0253 0.0
C2084 C 0.10481 0.6332 0.97487 0.0
C2085 C 0.08925 0.6245 0.95303 0.0
C2086 C 0.06477 0.63611 0.00167 0.0
C2087 C 0.0617 0.62034 0.9568 0.0
C2088 C 0.02303 0.64149 0.0285 0.0
C2089 C 0.05016 0.67753 0.06148 0.0
N2090 N 0.0503 0.62643 0.98058 0.0
N2091 N 0.06335 0.66384 0.04223 0.0
H2092 H 0.01689 0.32566 0.80869 0.0
H2093 H 0.06873 0.28203 0.66706 0.0
H2094 H 0.023 0.24206 0.78846 0.0
H2095 H 0.08933 0.35775 0.70428 0.0
H2096 H 0.05246 0.26566 0.71049 0.0
H2097 H 0.04357 0.33713 0.76966 0.0
C2098 C 0.02409 0.3097 0.79603 0.0
C2099 C 0.01768 0.28294 0.80157 0.0
C2100 C 0.06094 0.28569 0.70909 0.0
C2101 C 0.04792 0.29586 0.7566 0.0
C2102 C 0.07014 0.29506 0.68436 0.0
C2103 C 0.07979 0.3215 0.68194 0.0
C2104 C 0.06133 0.30301 0.73126 0.0
C2105 C 0.08146 0.33744 0.70503 0.0
C2106 C 0.03942 0.31622 0.77382 0.0
C2107 C 0.02764 0.26295 0.78474 0.0
N2108 N 0.07199 0.32807 0.72859 0.0
N2109 N 0.04197 0.26985 0.7626 0.0
H2110 H 0.41772 0.2998 0.5667 0.0
H2111 H 0.43752 0.38162 0.43401 0.0
H2112 H 0.4932 0.30746 0.52541 0.0
H2113 H 0.36282 0.37416 0.47684 0.0
H2114 H 0.46091 0.36484 0.47308 0.0
H2115 H 0.40026 0.33599 0.53993 0.0
C2116 C 0.43068 0.30924 0.55203 0.0
C2117 C 0.45671 0.30024 0.54771 0.0
C2118 C 0.43948 0.3674 0.47413 0.0
C2119 C 0.43677 0.3416 0.51685 0.0
C2120 C 0.42608 0.377 0.45183 0.0
C2121 C 0.39804 0.37828 0.45185 0.0
C2122 C 0.42467 0.3589 0.49643 0.0
C2123 C 0.38437 0.37277 0.47569 0.0
C2124 C 0.42075 0.33005 0.53687 0.0
C2125 C 0.47285 0.31358 0.52898 0.0
N2126 N 0.39777 0.36271 0.49685 0.0
N2127 N 0.46243 0.33333 0.5138 0.0
H2128 H 0.17404 0.39126 0.24382 0.0
H2129 H 0.25411 0.40011 0.3805 0.0
H2130 H 0.14503 0.42876 0.31574 0.0
H2131 H 0.28733 0.37486 0.30507 0.0
H2132 H 0.20944 0.39777 0.3606 0.0
H2133 H 0.21005 0.37151 0.26982 0.0
C2134 C 0.17482 0.39475 0.26519 0.0
C2135 C 0.15713 0.41234 0.27754 0.0
C2136 C 0.22651 0.39238 0.34855 0.0
C2137 C 0.19825 0.39021 0.30719 0.0
C2138 C 0.25199 0.39383 0.35985 0.0
C2139 C 0.27449 0.38853 0.34414 0.0
C2140 C 0.22361 0.38562 0.3214 0.0
C2141 C 0.27057 0.37991 0.31768 0.0
C2142 C 0.19543 0.38359 0.28 0.0
C2143 C 0.1588 0.41593 0.30532 0.0
N2144 N 0.24564 0.37911 0.30702 0.0
N2145 N 0.17938 0.40541 0.31915 0.0
H2146 H 0.31997 0.41043 0.05261 0.0
H2147 H 0.35211 0.5661 0.03847 0.0
H2148 H 0.30295 0.45591 0.9816 0.0
H2149 H 0.36133 0.52107 0.11135 0.0
H2150 H 0.34302 0.52438 0.01439 0.0
H2151 H 0.34417 0.44896 0.07103 0.0
C2152 C 0.32157 0.4285 0.04077 0.0
C2153 C 0.30902 0.43023 0.01578 0.0
C2154 C 0.34735 0.52363 0.03558 0.0
C2155 C 0.33648 0.47448 0.03685 0.0
C2156 C 0.35254 0.54742 0.04937 0.0
C2157 C 0.35687 0.5471 0.07711 0.0
C2158 C 0.34651 0.49939 0.04963 0.0
C2159 C 0.35759 0.52231 0.09008 0.0
C2160 C 0.33542 0.45048 0.05129 0.0
C2161 C 0.31211 0.4539 0.00109 0.0
N2162 N 0.35211 0.49947 0.07627 0.0
N2163 N 0.32522 0.47533 0.01204 0.0
H2164 H 0.29375 0.56187 0.73409 0.0
H2165 H 0.22387 0.58953 0.87374 0.0
H2166 H 0.32816 0.54242 0.81062 0.0
H2167 H 0.18558 0.59811 0.79689 0.0
H2168 H 0.26659 0.58352 0.85107 0.0
H2169 H 0.25922 0.5871 0.75699 0.0
C2170 C 0.29439 0.56339 0.75568 0.0
C2171 C 0.31338 0.54946 0.77054 0.0
C2172 C 0.24888 0.58705 0.83921 0.0
C2173 C 0.27384 0.57792 0.79681 0.0
C2174 C 0.22448 0.59041 0.85212 0.0
C2175 C 0.20102 0.59358 0.83714 0.0
C2176 C 0.24978 0.58687 0.81115 0.0
C2177 C 0.20307 0.59505 0.80922 0.0
C2178 C 0.27462 0.57772 0.76875 0.0
C2179 C 0.31352 0.55241 0.79843 0.0
N2180 N 0.22697 0.59133 0.79711 0.0
N2181 N 0.2937 0.56592 0.81072 0.0
H2182 H 0.17913 0.54627 0.49449 0.0
H2183 H 0.13966 0.45422 0.61871 0.0
H2184 H 0.20416 0.56251 0.57567 0.0
H2185 H 0.14067 0.4244 0.53756 0.0
H2186 H 0.15473 0.49785 0.60266 0.0
H2187 H 0.15667 0.50512 0.50975 0.0
C2188 C 0.17968 0.54132 0.51554 0.0
C2189 C 0.19369 0.55768 0.53385 0.0
C2190 C 0.15155 0.48178 0.58836 0.0
C2191 C 0.16801 0.51097 0.5513 0.0
C2192 C 0.14288 0.45686 0.59747 0.0
C2193 C 0.13926 0.43551 0.57946 0.0
C2194 C 0.15644 0.48549 0.56104 0.0
C2195 C 0.14354 0.44024 0.55215 0.0
C2196 C 0.16697 0.51783 0.52417 0.0
C2197 C 0.19381 0.55033 0.56085 0.0
N2198 N 0.15204 0.46477 0.54374 0.0
N2199 N 0.18117 0.52748 0.56877 0.0
H2200 H 0.18561 0.54105 0.23693 0.0
H2201 H 0.27042 0.59075 0.11074 0.0
H2202 H 0.17181 0.51352 0.15612 0.0
H2203 H 0.30126 0.59425 0.1914 0.0
H2204 H 0.22878 0.5713 0.12773 0.0
H2205 H 0.22308 0.56898 0.22084 0.0
C2206 C 0.19029 0.54108 0.2158 0.0
C2207 C 0.17577 0.52477 0.19784 0.0
C2208 C 0.2446 0.57652 0.14172 0.0
C2209 C 0.2182 0.55673 0.17941 0.0
C2210 C 0.26836 0.58773 0.13207 0.0
C2211 C 0.28954 0.59378 0.14964 0.0
C2212 C 0.24186 0.57151 0.16915 0.0
C2213 C 0.28558 0.58957 0.17711 0.0
C2214 C 0.21167 0.55693 0.20668 0.0
C2215 C 0.18267 0.52555 0.17069 0.0
N2216 N 0.26222 0.57851 0.18603 0.0
N2217 N 0.2034 0.54124 0.16231 0.0
H2218 H 0.18152 0.39504 0.92714 0.0
H2219 H 0.13446 0.54383 0.94921 0.0
H2220 H 0.17802 0.43366 0.00429 0.0
H2221 H 0.13918 0.50514 0.87209 0.0
H2222 H 0.1411 0.50074 0.97067 0.0
H2223 H 0.15591 0.43137 0.90809 0.0
C2224 C 0.17483 0.41088 0.9402 0.0
C2225 C 0.18243 0.41171 0.96719 0.0
C2226 C 0.14037 0.50161 0.94906 0.0
C2227 C 0.15362 0.4536 0.94543 0.0
C2228 C 0.13672 0.52624 0.93676 0.0
C2229 C 0.13696 0.52821 0.90878 0.0
C2230 C 0.14446 0.47878 0.93327 0.0
C2231 C 0.13938 0.50466 0.89372 0.0
C2232 C 0.16028 0.43168 0.92929 0.0
C2233 C 0.1729 0.43246 0.98329 0.0
N2234 N 0.14343 0.48098 0.90616 0.0
N2235 N 0.15946 0.45293 0.97202 0.0
H2236 H 0.27314 0.42574 0.75106 0.0
H2237 H 0.21118 0.35643 0.62109 0.0
H2238 H 0.31516 0.41387 0.67681 0.0
H2239 H 0.16458 0.37772 0.69034 0.0
H2240 H 0.25191 0.36665 0.64612 0.0
H2241 H 0.23593 0.398 0.73379 0.0
C2242 C 0.27471 0.41688 0.73135 0.0
C2243 C 0.29688 0.42248 0.71505 0.0
C2244 C 0.23279 0.36878 0.65598 0.0
C2245 C 0.25476 0.39094 0.69532 0.0
C2246 C 0.20952 0.36298 0.64167 0.0
C2247 C 0.18447 0.36695 0.65342 0.0
C2248 C 0.23099 0.3789 0.68211 0.0
C2249 C 0.18352 0.37486 0.68035 0.0
C2250 C 0.25351 0.40113 0.7215 0.0
C2251 C 0.29812 0.41046 0.68977 0.0
N2252 N 0.20649 0.38108 0.69368 0.0
N2253 N 0.27721 0.3955 0.68057 0.0
H2254 H 0.32476 0.57642 0.48936 0.0
H2255 H 0.33098 0.48526 0.35935 0.0
H2256 H 0.28237 0.59206 0.41596 0.0
H2257 H 0.35619 0.46124 0.43816 0.0
H2258 H 0.32594 0.53095 0.37592 0.0
H2259 H 0.34964 0.54163 0.4664 0.0
C2260 C 0.32114 0.57301 0.46826 0.0
C2261 C 0.30089 0.58652 0.45472 0.0
C2262 C 0.33295 0.51572 0.38945 0.0
C2263 C 0.32904 0.54675 0.42853 0.0
C2264 C 0.33574 0.48965 0.38005 0.0
C2265 C 0.34321 0.46931 0.39764 0.0
C2266 C 0.33774 0.52139 0.41655 0.0
C2267 C 0.34964 0.47619 0.42411 0.0
C2268 C 0.33528 0.55309 0.45521 0.0
C2269 C 0.29731 0.58156 0.42733 0.0
N2270 N 0.3464 0.50161 0.43287 0.0
N2271 N 0.31089 0.56169 0.41522 0.0
H2272 H 0.23665 0.19897 0.43726 0.0
H2273 H 0.3647 0.28765 0.39662 0.0
H2274 H 0.31808 0.17189 0.43996 0.0
H2275 H 0.28543 0.31969 0.40456 0.0
H2276 H 0.34637 0.24309 0.40515 0.0
H2277 H 0.25265 0.24117 0.41753 0.0
C2278 C 0.2578 0.20174 0.43326 0.0
C2279 C 0.27616 0.18218 0.44055 0.0
C2280 C 0.33294 0.25984 0.40495 0.0
C2281 C 0.29451 0.2301 0.41827 0.0
C2282 C 0.34341 0.28533 0.40016 0.0
C2283 C 0.32664 0.3075 0.40036 0.0
C2284 C 0.30549 0.25643 0.41005 0.0
C2285 C 0.29914 0.30319 0.4046 0.0
C2286 C 0.26693 0.22582 0.42216 0.0
C2287 C 0.30332 0.18666 0.43498 0.0
N2288 N 0.28943 0.27813 0.40951 0.0
N2289 N 0.31169 0.21024 0.42437 0.0
H2290 H 0.74728 0.29466 0.54626 0.0
H2291 H 0.87283 0.22338 0.61143 0.0
H2292 H 0.82978 0.3184 0.53415 0.0
H2293 H 0.79656 0.18337 0.59842 0.0
H2294 H 0.85342 0.26516 0.59659 0.0
H2295 H 0.76197 0.26051 0.57805 0.0
C2296 C 0.7684 0.29299 0.55068 0.0
C2297 C 0.78745 0.30889 0.53728 0.0
C2298 C 0.84086 0.24729 0.59738 0.0
C2299 C 0.80417 0.27051 0.57355 0.0
C2300 C 0.85189 0.22342 0.60585 0.0
C2301 C 0.83649 0.19968 0.60538 0.0
C2302 C 0.81426 0.24741 0.58844 0.0
C2303 C 0.80932 0.2011 0.59848 0.0
C2304 C 0.77673 0.27356 0.56872 0.0
C2305 C 0.81454 0.30611 0.5437 0.0
N2306 N 0.79913 0.22454 0.58983 0.0
N2307 N 0.82211 0.28714 0.56126 0.0
H2308 H 0.41211 0.03645 0.29538 0.0
H2309 H 0.55909 0.02833 0.35416 0.0
H2310 H 0.44659 0.96316 0.32361 0.0
H2311 H 0.51989 0.1029 0.33831 0.0
H2312 H 0.51683 0.00445 0.34641 0.0
H2313 H 0.44977 0.06153 0.3146 0.0
C2314 C 0.42745 0.02565 0.30592 0.0
C2315 C 0.4264 -0.00238 0.30757 0.0
C2316 C 0.51738 0.02606 0.34488 0.0
C2317 C 0.46971 0.02621 0.32937 0.0
C2318 C 0.54154 0.03971 0.34918 0.0
C2319 C 0.5431 0.06762 0.34645 0.0
C2320 C 0.49466 0.04038 0.33754 0.0
C2321 C 0.51965 0.08135 0.34038 0.0
C2322 C 0.44894 0.04 0.31691 0.0
C2323 C 0.44668 0.98473 0.32169 0.0
N2324 N 0.49644 0.06755 0.3358 0.0
N2325 N 0.46772 -0.00089 0.33173 0.0
H2326 H 0.74479 0.67097 0.07243 0.0
H2327 H 0.68611 0.78879 0.10619 0.0
H2328 H 0.67013 0.65394 0.03189 0.0
H2329 H 0.61015 0.74998 0.08884 0.0
H2330 H 0.70834 0.74694 0.098 0.0
H2331 H 0.72279 0.7052 0.09877 0.0
C2332 C 0.7237 0.67437 0.0692 0.0
C2333 C 0.70942 0.66018 0.04943 0.0
C2334 C 0.68676 0.74713 0.09675 0.0
C2335 C 0.68437 0.70013 0.07858 0.0
C2336 C 0.67404 0.77128 0.1011 0.0
C2337 C 0.64628 0.77301 0.09767 0.0
C2338 C 0.6716 0.72449 0.08887 0.0
C2339 C 0.63165 0.74962 0.09137 0.0
C2340 C 0.71119 0.69417 0.08403 0.0
C2341 C 0.682 0.66481 0.04657 0.0
N2342 N 0.64456 0.72642 0.0867 0.0
N2343 N 0.67046 0.68475 0.06066 0.0
H2344 H 0.53473 0.51425 0.30159 0.0
H2345 H 0.45676 0.38692 0.36024 0.0
H2346 H 0.56778 0.43552 0.30928 0.0
H2347 H 0.41825 0.46077 0.33983 0.0
H2348 H 0.50001 0.40809 0.35136 0.0
H2349 H 0.49466 0.49858 0.32561 0.0
C2350 C 0.53378 0.49388 0.30889 0.0
C2351 C 0.55422 0.47595 0.30312 0.0
C2352 C 0.48212 0.41974 0.34898 0.0
C2353 C 0.50881 0.45799 0.33026 0.0
C2354 C 0.45739 0.40763 0.35393 0.0
C2355 C 0.43383 0.42192 0.35013 0.0
C2356 C 0.48334 0.44631 0.34001 0.0
C2357 C 0.43592 0.44889 0.34255 0.0
C2358 C 0.51092 0.48492 0.32242 0.0
C2359 C 0.55217 0.4498 0.31295 0.0
N2360 N 0.46029 0.46015 0.33739 0.0
N2361 N 0.52971 0.44152 0.3258 0.0
H2362 H 0.18047 0.82275 0.9248 0.0
H2363 H 0.19642 0.67343 0.87545 0.0
H2364 H 0.25561 0.79008 0.89923 0.0
H2365 H 0.12007 0.709 0.89179 0.0
H2366 H 0.21768 0.71761 0.8783 0.0
H2367 H 0.1572 0.78358 0.90639 0.0
C2368 C 0.19204 0.80754 0.91488 0.0
C2369 C 0.22006 0.80939 0.91402 0.0
C2370 C 0.19624 0.71582 0.88099 0.0
C2371 C 0.19359 0.76433 0.89329 0.0
C2372 C 0.1841 0.69057 0.87953 0.0
C2373 C 0.15651 0.68747 0.88397 0.0
C2374 C 0.18073 0.73812 0.88719 0.0
C2375 C 0.14146 0.71042 0.88862 0.0
C2376 C 0.17873 0.78515 0.90439 0.0
C2377 C 0.234 0.78932 0.90059 0.0
N2378 N 0.15384 0.73476 0.89048 0.0
N2379 N 0.22064 0.76733 0.89119 0.0
H2380 H 0.42949 0.96771 0.17831 0.0
H2381 H 0.50754 0.84528 0.11639 0.0
H2382 H 0.40983 0.88424 0.19048 0.0
H2383 H 0.54187 0.92461 0.12657 0.0
H2384 H 0.4638 0.86269 0.12786 0.0
H2385 H 0.46262 0.9548 0.14465 0.0
C2386 C 0.43173 0.94674 0.17342 0.0
C2387 C 0.41757 0.9269 0.18754 0.0
C2388 C 0.48085 0.87636 0.1271 0.0
C2389 C 0.4548 0.91217 0.14923 0.0
C2390 C 0.50583 0.86645 0.12063 0.0
C2391 C 0.52852 0.88334 0.12157 0.0
C2392 C 0.47862 0.90327 0.13467 0.0
C2393 C 0.52499 0.91073 0.1264 0.0
C2394 C 0.45057 0.93942 0.1543 0.0
C2395 C 0.42093 0.90006 0.18044 0.0
N2396 N 0.50053 0.91978 0.13336 0.0
N2397 N 0.43944 0.89345 0.16197 0.0
H2398 H 0.04933 -0.00907 0.67156 0.0
H2399 H 0.96989 0.12704 0.65756 0.0
H2400 H 0.07521 0.06556 0.70775 0.0
H2401 H 0.94007 0.04971 0.63118 0.0
H2402 H 0.0128 0.10689 0.6682 0.0
H2403 H 0.0139 0.01441 0.64841 0.0
C2404 C 0.04778 0.01234 0.67436 0.0
C2405 C 0.0649 0.02626 0.69197 0.0
C2406 C -0.00307 0.09442 0.65984 0.0
C2407 C 0.02424 0.0532 0.66576 0.0
C2408 C 0.97244 0.10589 0.65377 0.0
C2409 C 0.95121 0.0899 0.64397 0.0
C2410 C 0.00017 0.06684 0.65597 0.0
C2411 C 0.95572 0.06269 0.63917 0.0
C2412 C 0.02751 0.02573 0.66117 0.0
C2413 C 0.0622 0.05403 0.69458 0.0
N2414 N 0.97962 0.05198 0.64545 0.0
N2415 N 0.04195 0.06656 0.6819 0.0
loop_
_geom_bond_atom_site_label_1
_geom_bond_atom_site_label_2
_geom_bond_distance
_geom_bond_site_symmetry_2
_ccdc_geom_bond_type
C0 O1 1.306 . S
C0 O3 1.160 . S
O1 C0 1.306 . S
O1 Cd2 2.228 . S
Cd2 O1 2.228 . S
Cd2 O6 2.273 . S
Cd2 O10 2.277 . S
O3 C0 1.160 . S
O3 Cd4 2.203 1_655 S
Cd4 O3 2.203 1_455 S
Cd4 O6 2.411 1_455 S
Cd4 O7 2.333 . S
Cd4 O8 2.352 . S
Cd4 O12 2.277 . S
Cd4 O13 2.356 . S
C5 O10 1.209 1_455 S
C5 O12 1.226 . S
O6 Cd2 2.273 . S
O6 Cd4 2.411 1_655 S
O6 C9 1.320 . S
O7 Cd4 2.333 . S
O7 C9 1.214 1_455 S
O8 Cd4 2.352 . S
O8 C11 1.258 . S
C9 O6 1.320 . S
C9 O7 1.214 1_655 S
O10 Cd2 2.277 . S
O10 C5 1.209 1_655 S
C11 O8 1.258 . S
C11 O13 1.282 . S
O12 Cd4 2.277 . S
O12 C5 1.226 . S
O13 Cd4 2.356 . S
O13 C11 1.282 . S
C14 O15 1.306 . S
C14 O17 1.160 . S
O15 C14 1.306 . S
O15 Cd16 2.228 1_455 S
Cd16 O15 2.228 1_655 S
Cd16 O20 2.273 . S
Cd16 O24 2.277 . S
O17 C14 1.160 . S
O17 Cd18 2.203 . S
Cd18 O17 2.203 . S
Cd18 O20 2.411 1_455 S
Cd18 O21 2.333 1_455 S
Cd18 O22 2.352 . S
Cd18 O26 2.277 1_455 S
Cd18 O27 2.356 . S
C19 O24 1.209 . S
C19 O26 1.226 . S
O20 Cd16 2.273 . S
O20 Cd18 2.411 1_655 S
O20 C23 1.320 . S
O21 Cd18 2.333 1_655 S
O21 C23 1.214 . S
O22 Cd18 2.352 . S
O22 C25 1.258 . S
C23 O20 1.320 . S
C23 O21 1.214 . S
O24 Cd16 2.277 . S
O24 C19 1.209 . S
C25 O22 1.258 . S
C25 O27 1.282 . S
O26 Cd18 2.277 1_655 S
O26 C19 1.226 . S
O27 Cd18 2.356 . S
O27 C25 1.282 . S
C28 O29 1.306 . S
C28 O31 1.160 . S
O29 C28 1.306 . S
O29 Cd30 2.228 . S
Cd30 O29 2.228 . S
Cd30 O34 2.273 . S
Cd30 O38 2.277 . S
O31 C28 1.160 . S
O31 Cd32 2.203 . S
Cd32 O31 2.203 . S
Cd32 O34 2.411 . S
Cd32 O35 2.333 . S
Cd32 O36 2.352 . S
Cd32 O40 2.277 . S
Cd32 O41 2.356 . S
C33 O38 1.209 . S
C33 O40 1.226 . S
O34 Cd30 2.273 . S
O34 Cd32 2.411 . S
O34 C37 1.320 . S
O35 Cd32 2.333 . S
O35 C37 1.214 . S
O36 Cd32 2.352 . S
O36 C39 1.258 . S
C37 O34 1.320 . S
C37 O35 1.214 . S
O38 Cd30 2.277 . S
O38 C33 1.209 . S
C39 O36 1.258 . S
C39 O41 1.282 . S
O40 Cd32 2.277 . S
O40 C33 1.226 . S
O41 Cd32 2.356 . S
O41 C39 1.282 . S
C42 O43 1.306 . S
C42 O45 1.160 . S
O43 C42 1.306 . S
O43 Cd44 2.228 . S
Cd44 O43 2.228 . S
Cd44 O48 2.273 . S
Cd44 O52 2.277 . S
O45 C42 1.160 . S
O45 Cd46 2.203 . S
Cd46 O45 2.203 . S
Cd46 O48 2.411 . S
Cd46 O49 2.333 . S
Cd46 O50 2.352 . S
Cd46 O54 2.277 . S
Cd46 O55 2.356 . S
C47 O52 1.209 . S
C47 O54 1.226 . S
O48 Cd44 2.273 . S
O48 Cd46 2.411 . S
O48 C51 1.320 . S
O49 Cd46 2.333 . S
O49 C51 1.214 . S
O50 Cd46 2.352 . S
O50 C53 1.258 . S
C51 O48 1.320 . S
C51 O49 1.214 . S
O52 Cd44 2.277 . S
O52 C47 1.209 . S
C53 O50 1.258 . S
C53 O55 1.282 . S
O54 Cd46 2.277 . S
O54 C47 1.226 . S
O55 Cd46 2.356 . S
O55 C53 1.282 . S
C56 O57 1.306 . S
C56 O59 1.160 . S
O57 C56 1.306 . S
O57 Cd58 2.228 . S
Cd58 O57 2.228 . S
Cd58 O62 2.273 . S
Cd58 O66 2.277 . S
O59 C56 1.160 . S
O59 Cd60 2.203 1_655 S
Cd60 O59 2.203 1_455 S
Cd60 O62 2.411 1_455 S
Cd60 O63 2.333 . S
Cd60 O64 2.352 . S
Cd60 O68 2.277 . S
Cd60 O69 2.356 . S
C61 O66 1.209 1_455 S
C61 O68 1.226 . S
O62 Cd58 2.273 . S
O62 Cd60 2.411 1_655 S
O62 C65 1.320 . S
O63 Cd60 2.333 . S
O63 C65 1.214 1_455 S
O64 Cd60 2.352 . S
O64 C67 1.258 . S
C65 O62 1.320 . S
C65 O63 1.214 1_655 S
O66 Cd58 2.277 . S
O66 C61 1.209 1_655 S
C67 O64 1.258 . S
C67 O69 1.282 . S
O68 Cd60 2.277 . S
O68 C61 1.226 . S
O69 Cd60 2.356 . S
O69 C67 1.282 . S
C70 O71 1.306 . S
C70 O73 1.160 . S
O71 C70 1.306 . S
O71 Cd72 2.228 . S
Cd72 O71 2.228 . S
Cd72 O76 2.273 . S
Cd72 O80 2.277 . S
O73 C70 1.160 . S
O73 Cd74 2.203 . S
Cd74 O73 2.203 . S
Cd74 O76 2.411 . S
Cd74 O77 2.333 . S
Cd74 O78 2.352 . S
Cd74 O82 2.277 . S
Cd74 O83 2.356 . S
C75 O80 1.209 . S
C75 O82 1.226 . S
O76 Cd72 2.273 . S
O76 Cd74 2.411 . S
O76 C79 1.320 . S
O77 Cd74 2.333 . S
O77 C79 1.214 . S
O78 Cd74 2.352 . S
O78 C81 1.258 . S
C79 O76 1.320 . S
C79 O77 1.214 . S
O80 Cd72 2.277 . S
O80 C75 1.209 . S
C81 O78 1.258 . S
C81 O83 1.282 . S
O82 Cd74 2.277 . S
O82 C75 1.226 . S
O83 Cd74 2.356 . S
O83 C81 1.282 . S
C84 O85 1.306 . S
C84 O87 1.160 . S
O85 C84 1.306 . S
O85 Cd86 2.228 . S
Cd86 O85 2.228 . S
Cd86 O90 2.273 . S
Cd86 O94 2.277 . S
O87 C84 1.160 . S
O87 Cd88 2.203 . S
Cd88 O87 2.203 . S
Cd88 O90 2.411 . S
Cd88 O91 2.333 . S
Cd88 O92 2.352 . S
Cd88 O96 2.277 . S
Cd88 O97 2.356 . S
C89 O94 1.209 . S
C89 O96 1.226 . S
O90 Cd86 2.273 . S
O90 Cd88 2.411 . S
O90 C93 1.320 . S
O91 Cd88 2.333 . S
O91 C93 1.214 . S
O92 Cd88 2.352 . S
O92 C95 1.258 . S
C93 O90 1.320 . S
C93 O91 1.214 . S
O94 Cd86 2.277 . S
O94 C89 1.209 . S
C95 O92 1.258 . S
C95 O97 1.282 . S
O96 Cd88 2.277 . S
O96 C89 1.226 . S
O97 Cd88 2.356 . S
O97 C95 1.282 . S
C98 O99 1.306 . S
C98 O101 1.160 . S
O99 C98 1.306 . S
O99 Cd100 2.228 1_455 S
Cd100 O99 2.228 1_655 S
Cd100 O104 2.273 . S
Cd100 O108 2.277 . S
O101 C98 1.160 . S
O101 Cd102 2.203 . S
Cd102 O101 2.203 . S
Cd102 O104 2.411 1_455 S
Cd102 O105 2.333 1_455 S
Cd102 O106 2.352 . S
Cd102 O110 2.277 1_455 S
Cd102 O111 2.356 . S
C103 O108 1.209 . S
C103 O110 1.226 . S
O104 Cd100 2.273 . S
O104 Cd102 2.411 1_655 S
O104 C107 1.320 . S
O105 Cd102 2.333 1_655 S
O105 C107 1.214 . S
O106 Cd102 2.352 . S
O106 C109 1.258 . S
C107 O104 1.320 . S
C107 O105 1.214 . S
O108 Cd100 2.277 . S
O108 C103 1.209 . S
C109 O106 1.258 . S
C109 O111 1.282 . S
O110 Cd102 2.277 1_655 S
O110 C103 1.226 . S
O111 Cd102 2.356 . S
O111 C109 1.282 . S
C112 O113 1.306 . S
C112 O115 1.160 . S
O113 C112 1.306 . S
O113 Cd114 2.228 . S
Cd114 O113 2.228 . S
Cd114 O118 2.273 . S
Cd114 O122 2.277 . S
O115 C112 1.160 . S
O115 Cd116 2.203 1_565 S
Cd116 O115 2.203 1_545 S
Cd116 O118 2.411 1_545 S
Cd116 O119 2.333 . S
Cd116 O120 2.352 . S
Cd116 O124 2.277 . S
Cd116 O125 2.356 . S
C117 O122 1.209 1_545 S
C117 O124 1.226 . S
O118 Cd114 2.273 . S
O118 Cd116 2.411 1_565 S
O118 C121 1.320 . S
O119 Cd116 2.333 . S
O119 C121 1.214 1_545 S
O120 Cd116 2.352 . S
O120 C123 1.258 . S
C121 O118 1.320 . S
C121 O119 1.214 1_565 S
O122 Cd114 2.277 . S
O122 C117 1.209 1_565 S
C123 O120 1.258 . S
C123 O125 1.282 . S
O124 Cd116 2.277 . S
O124 C117 1.226 . S
O125 Cd116 2.356 . S
O125 C123 1.282 . S
C126 O127 1.306 . S
C126 O129 1.160 . S
O127 C126 1.306 . S
O127 Cd128 2.228 . S
Cd128 O127 2.228 . S
Cd128 O132 2.273 . S
Cd128 O136 2.277 . S
O129 C126 1.160 . S
O129 Cd130 2.203 . S
Cd130 O129 2.203 . S
Cd130 O132 2.411 . S
Cd130 O133 2.333 . S
Cd130 O134 2.352 . S
Cd130 O138 2.277 . S
Cd130 O139 2.356 . S
C131 O136 1.209 . S
C131 O138 1.226 . S
O132 Cd128 2.273 . S
O132 Cd130 2.411 . S
O132 C135 1.320 . S
O133 Cd130 2.333 . S
O133 C135 1.214 . S
O134 Cd130 2.352 . S
O134 C137 1.258 . S
C135 O132 1.320 . S
C135 O133 1.214 . S
O136 Cd128 2.277 . S
O136 C131 1.209 . S
C137 O134 1.258 . S
C137 O139 1.282 . S
O138 Cd130 2.277 . S
O138 C131 1.226 . S
O139 Cd130 2.356 . S
O139 C137 1.282 . S
C140 O141 1.306 . S
C140 O143 1.160 . S
O141 C140 1.306 . S
O141 Cd142 2.228 . S
Cd142 O141 2.228 . S
Cd142 O146 2.273 . S
Cd142 O150 2.277 . S
O143 C140 1.160 . S
O143 Cd144 2.203 1_565 S
Cd144 O143 2.203 1_545 S
Cd144 O146 2.411 1_545 S
Cd144 O147 2.333 . S
Cd144 O148 2.352 . S
Cd144 O152 2.277 . S
Cd144 O153 2.356 . S
C145 O150 1.209 1_545 S
C145 O152 1.226 . S
O146 Cd142 2.273 . S
O146 Cd144 2.411 1_565 S
O146 C149 1.320 . S
O147 Cd144 2.333 . S
O147 C149 1.214 1_545 S
O148 Cd144 2.352 . S
O148 C151 1.258 . S
C149 O146 1.320 . S
C149 O147 1.214 1_565 S
O150 Cd142 2.277 . S
O150 C145 1.209 1_565 S
C151 O148 1.258 . S
C151 O153 1.282 . S
O152 Cd144 2.277 . S
O152 C145 1.226 . S
O153 Cd144 2.356 . S
O153 C151 1.282 . S
C154 O155 1.306 . S
C154 O157 1.160 . S
O155 C154 1.306 . S
O155 Cd156 2.228 1_554 S
Cd156 O155 2.228 1_556 S
Cd156 O160 2.273 . S
Cd156 O164 2.277 . S
O157 C154 1.160 . S
O157 Cd158 2.203 . S
Cd158 O157 2.203 . S
Cd158 O160 2.411 1_554 S
Cd158 O161 2.333 1_554 S
Cd158 O162 2.352 . S
Cd158 O166 2.277 1_554 S
Cd158 O167 2.356 . S
C159 O164 1.209 . S
C159 O166 1.226 . S
O160 Cd156 2.273 . S
O160 Cd158 2.411 1_556 S
O160 C163 1.320 . S
O161 Cd158 2.333 1_556 S
O161 C163 1.214 . S
O162 Cd158 2.352 . S
O162 C165 1.258 . S
C163 O160 1.320 . S
C163 O161 1.214 . S
O164 Cd156 2.277 . S
O164 C159 1.209 . S
C165 O162 1.258 . S
C165 O167 1.282 . S
O166 Cd158 2.277 1_556 S
O166 C159 1.226 . S
O167 Cd158 2.356 . S
O167 C165 1.282 . S
C168 O169 1.306 . S
C168 O171 1.160 . S
O169 C168 1.306 . S
O169 Cd170 2.228 . S
Cd170 O169 2.228 . S
Cd170 O174 2.273 . S
Cd170 O178 2.277 . S
O171 C168 1.160 . S
O171 Cd172 2.203 1_554 S
Cd172 O171 2.203 1_556 S
Cd172 O174 2.411 1_556 S
Cd172 O175 2.337 . S
Cd172 O176 2.349 1_556 S
Cd172 O180 2.277 . S
Cd172 O181 2.356 . S
C173 O178 1.209 1_556 S
C173 O180 1.226 . S
O174 Cd170 2.273 . S
O174 Cd172 2.411 1_554 S
O174 C177 1.320 . S
O175 Cd172 2.337 . S
O175 C177 1.173 1_556 S
O176 Cd172 2.349 1_554 S
O176 C179 1.237 1_554 S
C177 O174 1.320 . S
C177 O175 1.173 1_554 S
O178 Cd170 2.277 . S
O178 C173 1.209 1_554 S
C179 O176 1.237 1_556 S
C179 O181 1.282 . S
O180 Cd172 2.277 . S
O180 C173 1.226 . S
O181 Cd172 2.356 . S
O181 C179 1.282 . S
C182 O183 1.306 . S
C182 O185 1.160 . S
O183 C182 1.306 . S
O183 Cd184 2.228 . S
Cd184 O183 2.228 . S
Cd184 O188 2.273 . S
Cd184 O192 2.277 . S
O185 C182 1.160 . S
O185 Cd186 2.203 1_554 S
Cd186 O185 2.203 1_556 S
Cd186 O188 2.411 1_556 S
Cd186 O189 2.333 . S
Cd186 O190 2.352 . S
Cd186 O194 2.277 . S
Cd186 O195 2.356 . S
C187 O192 1.209 1_556 S
C187 O194 1.226 . S
O188 Cd184 2.273 . S
O188 Cd186 2.411 1_554 S
O188 C191 1.320 . S
O189 Cd186 2.333 . S
O189 C191 1.214 1_556 S
O190 Cd186 2.352 . S
O190 C193 1.258 . S
C191 O188 1.320 . S
C191 O189 1.214 1_554 S
O192 Cd184 2.277 . S
O192 C187 1.209 1_554 S
C193 O190 1.258 . S
C193 O195 1.282 . S
O194 Cd186 2.277 . S
O194 C187 1.226 . S
O195 Cd186 2.356 . S
O195 C193 1.282 . S
C196 O197 1.306 . S
C196 O199 1.160 . S
O197 C196 1.306 . S
O197 Cd198 2.228 . S
Cd198 O197 2.228 . S
Cd198 O202 2.273 . S
Cd198 O206 2.277 . S
O199 C196 1.160 . S
O199 Cd200 2.203 . S
Cd200 O199 2.203 . S
Cd200 O202 2.411 . S
Cd200 O203 2.333 . S
Cd200 O204 2.352 . S
Cd200 O208 2.277 . S
Cd200 O209 2.356 . S
C201 O206 1.209 . S
C201 O208 1.226 . S
O202 Cd198 2.273 . S
O202 Cd200 2.411 . S
O202 C205 1.320 . S
O203 Cd200 2.333 . S
O203 C205 1.214 . S
O204 Cd200 2.352 . S
O204 C207 1.258 . S
C205 O202 1.320 . S
C205 O203 1.214 . S
O206 Cd198 2.277 . S
O206 C201 1.209 . S
C207 O204 1.258 . S
C207 O209 1.282 . S
O208 Cd200 2.277 . S
O208 C201 1.226 . S
O209 Cd200 2.356 . S
O209 C207 1.282 . S
C210 O211 1.306 . S
C210 O213 1.160 . S
O211 C210 1.306 . S
O211 Cd212 2.228 . S
Cd212 O211 2.228 . S
Cd212 O216 2.273 . S
Cd212 O220 2.277 . S
O213 C210 1.160 . S
O213 Cd214 2.203 . S
Cd214 O213 2.203 . S
Cd214 O216 2.411 . S
Cd214 O217 2.333 . S
Cd214 O218 2.352 . S
Cd214 O222 2.277 . S
Cd214 O223 2.356 . S
C215 O220 1.209 . S
C215 O222 1.226 . S
O216 Cd212 2.273 . S
O216 Cd214 2.411 . S
O216 C219 1.320 . S
O217 Cd214 2.333 . S
O217 C219 1.214 . S
O218 Cd214 2.352 . S
O218 C221 1.258 . S
C219 O216 1.320 . S
C219 O217 1.214 . S
O220 Cd212 2.277 . S
O220 C215 1.209 . S
C221 O218 1.258 . S
C221 O223 1.282 . S
O222 Cd214 2.277 . S
O222 C215 1.226 . S
O223 Cd214 2.356 . S
O223 C221 1.282 . S
C224 O225 1.306 . S
C224 O227 1.160 . S
O225 C224 1.306 . S
O225 Cd226 2.228 1_545 S
Cd226 O225 2.228 1_565 S
Cd226 O230 2.273 . S
Cd226 O234 2.277 . S
O227 C224 1.160 . S
O227 Cd228 2.203 . S
Cd228 O227 2.203 . S
Cd228 O230 2.411 1_545 S
Cd228 O231 2.333 1_545 S
Cd228 O232 2.352 . S
Cd228 O236 2.277 1_545 S
Cd228 O237 2.356 . S
C229 O234 1.209 . S
C229 O236 1.226 . S
O230 Cd226 2.273 . S
O230 Cd228 2.411 1_565 S
O230 C233 1.320 . S
O231 Cd228 2.333 1_565 S
O231 C233 1.214 . S
O232 Cd228 2.352 . S
O232 C235 1.258 . S
C233 O230 1.320 . S
C233 O231 1.214 . S
O234 Cd226 2.277 . S
O234 C229 1.209 . S
C235 O232 1.258 . S
C235 O237 1.282 . S
O236 Cd228 2.277 1_565 S
O236 C229 1.226 . S
O237 Cd228 2.356 . S
O237 C235 1.282 . S
C238 O239 1.306 . S
C238 O241 1.160 . S
O239 C238 1.306 . S
O239 Cd240 2.228 . S
Cd240 O239 2.228 . S
Cd240 O244 2.273 . S
Cd240 O248 2.277 . S
O241 C238 1.160 . S
O241 Cd242 2.203 . S
Cd242 O241 2.203 . S
Cd242 O244 2.411 . S
Cd242 O245 2.333 . S
Cd242 O246 2.352 . S
Cd242 O250 2.277 . S
Cd242 O251 2.356 . S
C243 O248 1.209 . S
C243 O250 1.226 . S
O244 Cd240 2.273 . S
O244 Cd242 2.411 . S
O244 C247 1.320 . S
O245 Cd242 2.333 . S
O245 C247 1.214 . S
O246 Cd242 2.352 . S
O246 C249 1.258 . S
C247 O244 1.320 . S
C247 O245 1.214 . S
O248 Cd240 2.277 . S
O248 C243 1.209 . S
C249 O246 1.258 . S
C249 O251 1.282 . S
O250 Cd242 2.277 . S
O250 C243 1.226 . S
O251 Cd242 2.356 . S
O251 C249 1.282 . S
C252 O253 1.306 . S
C252 O255 1.160 . S
O253 C252 1.306 . S
O253 Cd254 2.228 . S
Cd254 O253 2.228 . S
Cd254 O258 2.273 . S
Cd254 O262 2.277 . S
O255 C252 1.160 . S
O255 Cd256 2.203 . S
Cd256 O255 2.203 . S
Cd256 O258 2.411 . S
Cd256 O259 2.333 . S
Cd256 O260 2.352 . S
Cd256 O264 2.277 . S
Cd256 O265 2.356 . S
C257 O262 1.209 . S
C257 O264 1.226 . S
O258 Cd254 2.273 . S
O258 Cd256 2.411 . S
O258 C261 1.320 . S
O259 Cd256 2.333 . S
O259 C261 1.214 . S
O260 Cd256 2.352 . S
O260 C263 1.258 . S
C261 O258 1.320 . S
C261 O259 1.214 . S
O262 Cd254 2.277 . S
O262 C257 1.209 . S
C263 O260 1.258 . S
C263 O265 1.282 . S
O264 Cd256 2.277 . S
O264 C257 1.226 . S
O265 Cd256 2.356 . S
O265 C263 1.282 . S
C266 O267 1.306 . S
C266 O269 1.160 . S
O267 C266 1.306 . S
O267 Cd268 2.228 1_545 S
Cd268 O267 2.228 1_565 S
Cd268 O272 2.273 . S
Cd268 O276 2.277 . S
O269 C266 1.160 . S
O269 Cd270 2.203 . S
Cd270 O269 2.203 . S
Cd270 O272 2.411 1_545 S
Cd270 O273 2.333 1_545 S
Cd270 O274 2.352 . S
Cd270 O278 2.277 1_545 S
Cd270 O279 2.356 . S
C271 O276 1.209 . S
C271 O278 1.226 . S
O272 Cd268 2.273 . S
O272 Cd270 2.411 1_565 S
O272 C275 1.320 . S
O273 Cd270 2.333 1_565 S
O273 C275 1.214 . S
O274 Cd270 2.352 . S
O274 C277 1.258 . S
C275 O272 1.320 . S
C275 O273 1.214 . S
O276 Cd268 2.277 . S
O276 C271 1.209 . S
C277 O274 1.258 . S
C277 O279 1.282 . S
O278 Cd270 2.277 1_565 S
O278 C271 1.226 . S
O279 Cd270 2.356 . S
O279 C277 1.282 . S
C280 O281 1.306 . S
C280 O283 1.160 . S
O281 C280 1.306 . S
O281 Cd282 2.228 1_554 S
Cd282 O281 2.228 1_556 S
Cd282 O286 2.273 . S
Cd282 O290 2.277 . S
O283 C280 1.160 . S
O283 Cd284 2.203 . S
Cd284 O283 2.203 . S
Cd284 O286 2.411 1_554 S
Cd284 O287 2.333 1_554 S
Cd284 O288 2.352 . S
Cd284 O292 2.277 1_554 S
Cd284 O293 2.356 . S
C285 O290 1.209 . S
C285 O292 1.226 . S
O286 Cd282 2.273 . S
O286 Cd284 2.411 1_556 S
O286 C289 1.320 . S
O287 Cd284 2.333 1_556 S
O287 C289 1.214 . S
O288 Cd284 2.352 . S
O288 C291 1.258 . S
C289 O286 1.320 . S
C289 O287 1.214 . S
O290 Cd282 2.277 . S
O290 C285 1.209 . S
C291 O288 1.258 . S
C291 O293 1.282 . S
O292 Cd284 2.277 1_556 S
O292 C285 1.226 . S
O293 Cd284 2.356 . S
O293 C291 1.282 . S
C294 O295 1.306 . S
C294 O297 1.160 . S
O295 C294 1.306 . S
O295 Cd296 2.228 . S
Cd296 O295 2.228 . S
Cd296 O300 2.273 . S
Cd296 O304 2.277 . S
O297 C294 1.160 . S
O297 Cd298 2.203 . S
Cd298 O297 2.203 . S
Cd298 O300 2.411 . S
Cd298 O301 2.333 . S
Cd298 O302 2.352 . S
Cd298 O306 2.277 . S
Cd298 O307 2.356 . S
C299 O304 1.209 . S
C299 O306 1.226 . S
O300 Cd296 2.273 . S
O300 Cd298 2.411 . S
O300 C303 1.320 . S
O301 Cd298 2.333 . S
O301 C303 1.214 . S
O302 Cd298 2.352 . S
O302 C305 1.258 . S
C303 O300 1.320 . S
C303 O301 1.214 . S
O304 Cd296 2.277 . S
O304 C299 1.209 . S
C305 O302 1.258 . S
C305 O307 1.282 . S
O306 Cd298 2.277 . S
O306 C299 1.226 . S
O307 Cd298 2.356 . S
O307 C305 1.282 . S
C308 O309 1.306 . S
C308 O311 1.160 . S
O309 C308 1.306 . S
O309 Cd310 2.228 . S
Cd310 O309 2.228 . S
Cd310 O314 2.273 . S
Cd310 O318 2.277 . S
O311 C308 1.160 . S
O311 Cd312 2.203 . S
Cd312 O311 2.203 . S
Cd312 O314 2.411 . S
Cd312 O315 2.333 . S
Cd312 O316 2.352 . S
Cd312 O320 2.277 . S
Cd312 O321 2.356 . S
C313 O318 1.209 . S
C313 O320 1.226 . S
O314 Cd310 2.273 . S
O314 Cd312 2.411 . S
O314 C317 1.320 . S
O315 Cd312 2.333 . S
O315 C317 1.214 . S
O316 Cd312 2.352 . S
O316 C319 1.258 . S
C317 O314 1.320 . S
C317 O315 1.214 . S
O318 Cd310 2.277 . S
O318 C313 1.209 . S
C319 O316 1.258 . S
C319 O321 1.282 . S
O320 Cd312 2.277 . S
O320 C313 1.226 . S
O321 Cd312 2.356 . S
O321 C319 1.282 . S
C322 O323 1.306 . S
C322 O325 1.160 . S
O323 C322 1.306 . S
O323 Cd324 2.228 . S
Cd324 O323 2.228 . S
Cd324 O328 2.273 . S
Cd324 O332 2.277 . S
O325 C322 1.160 . S
O325 Cd326 2.203 . S
Cd326 O325 2.203 . S
Cd326 O328 2.411 . S
Cd326 O329 2.333 . S
Cd326 O330 2.352 . S
Cd326 O334 2.277 . S
Cd326 O335 2.356 . S
C327 O332 1.209 . S
C327 O334 1.226 . S
O328 Cd324 2.273 . S
O328 Cd326 2.411 . S
O328 C331 1.320 . S
O329 Cd326 2.333 . S
O329 C331 1.214 . S
O330 Cd326 2.352 . S
O330 C333 1.258 . S
C331 O328 1.320 . S
C331 O329 1.214 . S
O332 Cd324 2.277 . S
O332 C327 1.209 . S
C333 O330 1.258 . S
C333 O335 1.282 . S
O334 Cd326 2.277 . S
O334 C327 1.226 . S
O335 Cd326 2.356 . S
O335 C333 1.282 . S
Fe336 O338 1.918 . S
Fe336 O341 1.997 . S
Fe336 O342 2.002 . S
Fe336 O347 1.976 . S
Fe336 O350 1.996 . S
Fe337 O338 1.918 . S
Fe337 O345 1.997 . S
Fe337 O348 1.996 . S
Fe337 O352 1.976 . S
Fe337 O355 2.002 . S
O338 Fe336 1.918 . S
O338 Fe337 1.918 . S
O338 Fe339 1.918 . S
Fe339 O338 1.918 . S
Fe339 O340 2.002 . S
Fe339 O349 1.976 . S
Fe339 O353 1.996 . S
Fe339 O356 1.997 . S
O340 Fe339 2.002 . S
O340 C357 1.295 . S
O341 Fe336 1.997 . S
O341 C357 1.235 . S
O342 Fe336 2.002 . S
O342 C343 1.295 . S
C343 O342 1.295 . S
C343 O345 1.235 . S
C344 O349 1.287 . S
C344 O350 1.255 . S
O345 Fe337 1.997 . S
O345 C343 1.235 . S
C346 O352 1.287 . S
C346 O353 1.255 . S
O347 Fe336 1.976 . S
O347 C354 1.287 . S
O348 Fe337 1.996 . S
O348 C354 1.255 . S
O349 Fe339 1.976 . S
O349 C344 1.287 . S
O350 Fe336 1.996 . S
O350 C344 1.255 . S
C351 O355 1.295 . S
C351 O356 1.235 . S
O352 Fe337 1.976 . S
O352 C346 1.287 . S
O353 Fe339 1.996 . S
O353 C346 1.255 . S
C354 O347 1.287 . S
C354 O348 1.255 . S
O355 Fe337 2.002 . S
O355 C351 1.295 . S
O356 Fe339 1.997 . S
O356 C351 1.235 . S
C357 O340 1.295 . S
C357 O341 1.235 . S
Fe358 O360 1.918 . S
Fe358 O363 1.997 . S
Fe358 O364 2.002 . S
Fe358 O369 1.976 . S
Fe358 O372 1.996 . S
Fe359 O360 1.918 . S
Fe359 O367 1.997 . S
Fe359 O370 1.996 . S
Fe359 O374 1.976 . S
Fe359 O377 2.002 . S
O360 Fe358 1.918 . S
O360 Fe359 1.918 . S
O360 Fe361 1.918 . S
Fe361 O360 1.918 . S
Fe361 O362 2.002 . S
Fe361 O371 1.976 . S
Fe361 O375 1.996 . S
Fe361 O378 1.997 . S
O362 Fe361 2.002 . S
O362 C379 1.295 . S
O363 Fe358 1.997 . S
O363 C379 1.235 . S
O364 Fe358 2.002 . S
O364 C365 1.295 . S
C365 O364 1.295 . S
C365 O367 1.235 . S
C366 O371 1.287 . S
C366 O372 1.255 . S
O367 Fe359 1.997 . S
O367 C365 1.235 . S
C368 O374 1.287 . S
C368 O375 1.255 . S
O369 Fe358 1.976 . S
O369 C376 1.287 . S
O370 Fe359 1.996 . S
O370 C376 1.255 . S
O371 Fe361 1.976 . S
O371 C366 1.287 . S
O372 Fe358 1.996 . S
O372 C366 1.255 . S
C373 O377 1.295 . S
C373 O378 1.235 . S
O374 Fe359 1.976 . S
O374 C368 1.287 . S
O375 Fe361 1.996 . S
O375 C368 1.255 . S
C376 O369 1.287 . S
C376 O370 1.255 . S
O377 Fe359 2.002 . S
O377 C373 1.295 . S
O378 Fe361 1.997 . S
O378 C373 1.235 . S
C379 O362 1.295 . S
C379 O363 1.235 . S
Fe380 O382 1.918 . S
Fe380 O385 1.997 . S
Fe380 O386 2.002 . S
Fe380 O391 1.976 . S
Fe380 O394 1.996 . S
Fe381 O382 1.918 . S
Fe381 O389 1.997 . S
Fe381 O392 1.996 . S
Fe381 O396 1.976 . S
Fe381 O399 2.002 . S
O382 Fe380 1.918 . S
O382 Fe381 1.918 . S
O382 Fe383 1.918 . S
Fe383 O382 1.918 . S
Fe383 O384 2.002 . S
Fe383 O393 1.976 . S
Fe383 O397 1.996 . S
Fe383 O400 1.997 . S
O384 Fe383 2.002 . S
O384 C401 1.295 . S
O385 Fe380 1.997 . S
O385 C401 1.235 . S
O386 Fe380 2.002 . S
O386 C387 1.295 . S
C387 O386 1.295 . S
C387 O389 1.235 . S
C388 O393 1.287 . S
C388 O394 1.255 . S
O389 Fe381 1.997 . S
O389 C387 1.235 . S
C390 O396 1.287 . S
C390 O397 1.255 . S
O391 Fe380 1.976 . S
O391 C398 1.287 . S
O392 Fe381 1.996 . S
O392 C398 1.255 . S
O393 Fe383 1.976 . S
O393 C388 1.287 . S
O394 Fe380 1.996 . S
O394 C388 1.255 . S
C395 O399 1.295 . S
C395 O400 1.235 . S
O396 Fe381 1.976 . S
O396 C390 1.287 . S
O397 Fe383 1.996 . S
O397 C390 1.255 . S
C398 O391 1.287 . S
C398 O392 1.255 . S
O399 Fe381 2.002 . S
O399 C395 1.295 . S
O400 Fe383 1.997 . S
O400 C395 1.235 . S
C401 O384 1.295 . S
C401 O385 1.235 . S
Fe402 O404 1.918 . S
Fe402 O407 1.997 . S
Fe402 O408 2.002 . S
Fe402 O413 1.976 . S
Fe402 O416 1.996 . S
Fe403 O404 1.918 . S
Fe403 O411 1.997 . S
Fe403 O414 1.996 . S
Fe403 O418 1.976 . S
Fe403 O421 2.002 . S
O404 Fe402 1.918 . S
O404 Fe403 1.918 . S
O404 Fe405 1.918 . S
Fe405 O404 1.918 . S
Fe405 O406 2.002 . S
Fe405 O415 1.976 . S
Fe405 O419 1.996 . S
Fe405 O422 1.997 . S
O406 Fe405 2.002 . S
O406 C423 1.295 . S
O407 Fe402 1.997 . S
O407 C423 1.235 . S
O408 Fe402 2.002 . S
O408 C409 1.295 . S
C409 O408 1.295 . S
C409 O411 1.235 . S
C410 O415 1.287 . S
C410 O416 1.255 . S
O411 Fe403 1.997 . S
O411 C409 1.235 . S
C412 O418 1.287 . S
C412 O419 1.255 . S
O413 Fe402 1.976 . S
O413 C420 1.287 . S
O414 Fe403 1.996 . S
O414 C420 1.255 . S
O415 Fe405 1.976 . S
O415 C410 1.287 . S
O416 Fe402 1.996 . S
O416 C410 1.255 . S
C417 O421 1.295 . S
C417 O422 1.235 . S
O418 Fe403 1.976 . S
O418 C412 1.287 . S
O419 Fe405 1.996 . S
O419 C412 1.255 . S
C420 O413 1.287 . S
C420 O414 1.255 . S
O421 Fe403 2.002 . S
O421 C417 1.295 . S
O422 Fe405 1.997 . S
O422 C417 1.235 . S
C423 O406 1.295 . S
C423 O407 1.235 . S
Fe424 O426 1.918 . S
Fe424 O429 1.997 . S
Fe424 O430 2.002 . S
Fe424 O435 1.976 . S
Fe424 O438 1.996 . S
Fe425 O426 1.918 . S
Fe425 O433 1.997 . S
Fe425 O436 1.996 . S
Fe425 O440 1.976 . S
Fe425 O443 2.002 . S
O426 Fe424 1.918 . S
O426 Fe425 1.918 . S
O426 Fe427 1.918 . S
Fe427 O426 1.918 . S
Fe427 O428 2.002 . S
Fe427 O437 1.976 . S
Fe427 O441 1.996 . S
Fe427 O444 1.997 . S
O428 Fe427 2.002 . S
O428 C445 1.295 . S
O429 Fe424 1.997 . S
O429 C445 1.235 . S
O430 Fe424 2.002 . S
O430 C431 1.295 . S
C431 O430 1.295 . S
C431 O433 1.235 . S
C432 O437 1.287 . S
C432 O438 1.255 . S
O433 Fe425 1.997 . S
O433 C431 1.235 . S
C434 O440 1.287 . S
C434 O441 1.255 . S
O435 Fe424 1.976 . S
O435 C442 1.287 . S
O436 Fe425 1.996 . S
O436 C442 1.255 . S
O437 Fe427 1.976 . S
O437 C432 1.287 . S
O438 Fe424 1.996 . S
O438 C432 1.255 . S
C439 O443 1.295 . S
C439 O444 1.235 . S
O440 Fe425 1.976 . S
O440 C434 1.287 . S
O441 Fe427 1.996 . S
O441 C434 1.255 . S
C442 O435 1.287 . S
C442 O436 1.255 . S
O443 Fe425 2.002 . S
O443 C439 1.295 . S
O444 Fe427 1.997 . S
O444 C439 1.235 . S
C445 O428 1.295 . S
C445 O429 1.235 . S
Fe446 O448 1.918 . S
Fe446 O451 1.997 . S
Fe446 O452 2.002 . S
Fe446 O457 1.976 . S
Fe446 O460 1.996 . S
Fe447 O448 1.918 . S
Fe447 O455 1.997 . S
Fe447 O458 1.996 . S
Fe447 O462 1.976 . S
Fe447 O465 2.002 . S
O448 Fe446 1.918 . S
O448 Fe447 1.918 . S
O448 Fe449 1.918 . S
Fe449 O448 1.918 . S
Fe449 O450 2.002 . S
Fe449 O459 1.976 . S
Fe449 O463 1.996 . S
Fe449 O466 1.997 . S
O450 Fe449 2.002 . S
O450 C467 1.295 . S
O451 Fe446 1.997 . S
O451 C467 1.235 . S
O452 Fe446 2.002 . S
O452 C453 1.295 . S
C453 O452 1.295 . S
C453 O455 1.235 . S
C454 O459 1.287 . S
C454 O460 1.255 . S
O455 Fe447 1.997 . S
O455 C453 1.235 . S
C456 O462 1.287 . S
C456 O463 1.255 . S
O457 Fe446 1.976 . S
O457 C464 1.287 . S
O458 Fe447 1.996 . S
O458 C464 1.255 . S
O459 Fe449 1.976 . S
O459 C454 1.287 . S
O460 Fe446 1.996 . S
O460 C454 1.255 . S
C461 O465 1.295 . S
C461 O466 1.235 . S
O462 Fe447 1.976 . S
O462 C456 1.287 . S
O463 Fe449 1.996 . S
O463 C456 1.255 . S
C464 O457 1.287 . S
C464 O458 1.255 . S
O465 Fe447 2.002 . S
O465 C461 1.295 . S
O466 Fe449 1.997 . S
O466 C461 1.235 . S
C467 O450 1.295 . S
C467 O451 1.235 . S
Fe468 O470 1.918 . S
Fe468 O473 1.997 . S
Fe468 O474 2.002 . S
Fe468 O479 1.976 . S
Fe468 O482 1.996 . S
Fe469 O470 1.918 . S
Fe469 O477 1.997 . S
Fe469 O480 1.996 . S
Fe469 O484 1.976 . S
Fe469 O487 2.002 . S
O470 Fe468 1.918 . S
O470 Fe469 1.918 . S
O470 Fe471 1.918 . S
Fe471 O470 1.918 . S
Fe471 O472 2.002 . S
Fe471 O481 1.976 . S
Fe471 O485 1.996 . S
Fe471 O488 1.997 . S
O472 Fe471 2.002 . S
O472 C489 1.295 . S
O473 Fe468 1.997 . S
O473 C489 1.235 . S
O474 Fe468 2.002 . S
O474 C475 1.295 . S
C475 O474 1.295 . S
C475 O477 1.235 . S
C476 O481 1.287 . S
C476 O482 1.255 . S
O477 Fe469 1.997 . S
O477 C475 1.235 . S
C478 O484 1.287 . S
C478 O485 1.255 . S
O479 Fe468 1.976 . S
O479 C486 1.287 . S
O480 Fe469 1.996 . S
O480 C486 1.255 . S
O481 Fe471 1.976 . S
O481 C476 1.287 . S
O482 Fe468 1.996 . S
O482 C476 1.255 . S
C483 O487 1.295 . S
C483 O488 1.235 . S
O484 Fe469 1.976 . S
O484 C478 1.287 . S
O485 Fe471 1.996 . S
O485 C478 1.255 . S
C486 O479 1.287 . S
C486 O480 1.255 . S
O487 Fe469 2.002 . S
O487 C483 1.295 . S
O488 Fe471 1.997 . S
O488 C483 1.235 . S
C489 O472 1.295 . S
C489 O473 1.235 . S
Fe490 O492 1.918 . S
Fe490 O495 1.997 . S
Fe490 O496 2.002 . S
Fe490 O501 1.976 . S
Fe490 O504 1.996 . S
Fe491 O492 1.918 . S
Fe491 O499 1.997 . S
Fe491 O502 1.996 . S
Fe491 O506 1.976 . S
Fe491 O509 2.002 . S
O492 Fe490 1.918 . S
O492 Fe491 1.918 . S
O492 Fe493 1.918 . S
Fe493 O492 1.918 . S
Fe493 O494 2.002 . S
Fe493 O503 1.976 . S
Fe493 O507 1.996 . S
Fe493 O510 1.997 . S
O494 Fe493 2.002 . S
O494 C511 1.295 . S
O495 Fe490 1.997 . S
O495 C511 1.235 . S
O496 Fe490 2.002 . S
O496 C497 1.295 . S
C497 O496 1.295 . S
C497 O499 1.235 . S
C498 O503 1.287 . S
C498 O504 1.255 . S
O499 Fe491 1.997 . S
O499 C497 1.235 . S
C500 O506 1.287 . S
C500 O507 1.255 . S
O501 Fe490 1.976 . S
O501 C508 1.287 . S
O502 Fe491 1.996 . S
O502 C508 1.255 . S
O503 Fe493 1.976 . S
O503 C498 1.287 . S
O504 Fe490 1.996 . S
O504 C498 1.255 . S
C505 O509 1.295 . S
C505 O510 1.235 . S
O506 Fe491 1.976 . S
O506 C500 1.287 . S
O507 Fe493 1.996 . S
O507 C500 1.255 . S
C508 O501 1.287 . S
C508 O502 1.255 . S
O509 Fe491 2.002 . S
O509 C505 1.295 . S
O510 Fe493 1.997 . S
O510 C505 1.235 . S
C511 O494 1.295 . S
C511 O495 1.235 . S
Fe512 O514 1.918 . S
Fe512 O517 1.997 . S
Fe512 O518 2.002 . S
Fe512 O523 1.976 . S
Fe512 O526 1.996 . S
Fe513 O514 1.918 . S
Fe513 O521 1.997 . S
Fe513 O524 1.996 . S
Fe513 O528 1.976 . S
Fe513 O531 2.002 . S
O514 Fe512 1.918 . S
O514 Fe513 1.918 . S
O514 Fe515 1.918 . S
Fe515 O514 1.918 . S
Fe515 O516 2.002 . S
Fe515 O525 1.976 . S
Fe515 O529 1.996 . S
Fe515 O532 1.997 . S
O516 Fe515 2.002 . S
O516 C533 1.295 . S
O517 Fe512 1.997 . S
O517 C533 1.235 . S
O518 Fe512 2.002 . S
O518 C519 1.295 . S
C519 O518 1.295 . S
C519 O521 1.235 . S
C520 O525 1.287 . S
C520 O526 1.255 . S
O521 Fe513 1.997 . S
O521 C519 1.235 . S
C522 O528 1.287 . S
C522 O529 1.255 . S
O523 Fe512 1.976 . S
O523 C530 1.287 . S
O524 Fe513 1.996 . S
O524 C530 1.255 . S
O525 Fe515 1.976 . S
O525 C520 1.287 . S
O526 Fe512 1.996 . S
O526 C520 1.255 . S
C527 O531 1.295 . S
C527 O532 1.235 . S
O528 Fe513 1.976 . S
O528 C522 1.287 . S
O529 Fe515 1.996 . S
O529 C522 1.255 . S
C530 O523 1.287 . S
C530 O524 1.255 . S
O531 Fe513 2.002 . S
O531 C527 1.295 . S
O532 Fe515 1.997 . S
O532 C527 1.235 . S
C533 O516 1.295 . S
C533 O517 1.235 . S
Fe534 O536 1.918 . S
Fe534 O539 1.997 . S
Fe534 O540 2.002 . S
Fe534 O545 1.976 . S
Fe534 O548 1.996 . S
Fe535 O536 1.918 . S
Fe535 O543 1.997 . S
Fe535 O546 1.996 . S
Fe535 O550 1.976 . S
Fe535 O553 2.002 . S
O536 Fe534 1.918 . S
O536 Fe535 1.918 . S
O536 Fe537 1.918 . S
Fe537 O536 1.918 . S
Fe537 O538 2.002 . S
Fe537 O547 1.976 . S
Fe537 O551 1.996 . S
Fe537 O554 1.997 . S
O538 Fe537 2.002 . S
O538 C555 1.295 . S
O539 Fe534 1.997 . S
O539 C555 1.235 . S
O540 Fe534 2.002 . S
O540 C541 1.295 . S
C541 O540 1.295 . S
C541 O543 1.235 . S
C542 O547 1.287 . S
C542 O548 1.255 . S
O543 Fe535 1.997 . S
O543 C541 1.235 . S
C544 O550 1.287 . S
C544 O551 1.255 . S
O545 Fe534 1.976 . S
O545 C552 1.287 . S
O546 Fe535 1.996 . S
O546 C552 1.255 . S
O547 Fe537 1.976 . S
O547 C542 1.287 . S
O548 Fe534 1.996 . S
O548 C542 1.255 . S
C549 O553 1.295 . S
C549 O554 1.235 . S
O550 Fe535 1.976 . S
O550 C544 1.287 . S
O551 Fe537 1.996 . S
O551 C544 1.255 . S
C552 O545 1.287 . S
C552 O546 1.255 . S
O553 Fe535 2.002 . S
O553 C549 1.295 . S
O554 Fe537 1.997 . S
O554 C549 1.235 . S
C555 O538 1.295 . S
C555 O539 1.235 . S
Fe556 O558 1.918 . S
Fe556 O561 1.997 . S
Fe556 O562 2.002 . S
Fe556 O567 1.976 . S
Fe556 O570 1.996 . S
Fe557 O558 1.918 . S
Fe557 O565 1.997 . S
Fe557 O568 1.996 . S
Fe557 O572 1.976 . S
Fe557 O575 2.002 . S
O558 Fe556 1.918 . S
O558 Fe557 1.918 . S
O558 Fe559 1.918 . S
Fe559 O558 1.918 . S
Fe559 O560 2.002 . S
Fe559 O569 1.976 . S
Fe559 O573 1.996 . S
Fe559 O576 1.997 . S
O560 Fe559 2.002 . S
O560 C577 1.295 . S
O561 Fe556 1.997 . S
O561 C577 1.235 . S
O562 Fe556 2.002 . S
O562 C563 1.295 . S
C563 O562 1.295 . S
C563 O565 1.235 . S
C564 O569 1.287 . S
C564 O570 1.255 . S
O565 Fe557 1.997 . S
O565 C563 1.235 . S
C566 O572 1.287 . S
C566 O573 1.255 . S
O567 Fe556 1.976 . S
O567 C574 1.287 . S
O568 Fe557 1.996 . S
O568 C574 1.255 . S
O569 Fe559 1.976 . S
O569 C564 1.287 . S
O570 Fe556 1.996 . S
O570 C564 1.255 . S
C571 O575 1.295 . S
C571 O576 1.235 . S
O572 Fe557 1.976 . S
O572 C566 1.287 . S
O573 Fe559 1.996 . S
O573 C566 1.255 . S
C574 O567 1.287 . S
C574 O568 1.255 . S
O575 Fe557 2.002 . S
O575 C571 1.295 . S
O576 Fe559 1.997 . S
O576 C571 1.235 . S
C577 O560 1.295 . S
C577 O561 1.235 . S
Fe578 O580 1.918 . S
Fe578 O583 1.997 . S
Fe578 O584 2.002 . S
Fe578 O589 1.976 . S
Fe578 O592 1.996 . S
Fe579 O580 1.918 . S
Fe579 O587 1.997 . S
Fe579 O590 1.996 . S
Fe579 O594 1.976 . S
Fe579 O597 2.002 . S
O580 Fe578 1.918 . S
O580 Fe579 1.918 . S
O580 Fe581 1.918 . S
Fe581 O580 1.918 . S
Fe581 O582 2.002 . S
Fe581 O591 1.976 . S
Fe581 O595 1.996 . S
Fe581 O598 1.997 . S
O582 Fe581 2.002 . S
O582 C599 1.295 . S
O583 Fe578 1.997 . S
O583 C599 1.235 . S
O584 Fe578 2.002 . S
O584 C585 1.295 . S
C585 O584 1.295 . S
C585 O587 1.235 . S
C586 O591 1.287 . S
C586 O592 1.255 . S
O587 Fe579 1.997 . S
O587 C585 1.235 . S
C588 O594 1.287 . S
C588 O595 1.255 . S
O589 Fe578 1.976 . S
O589 C596 1.287 . S
O590 Fe579 1.996 . S
O590 C596 1.255 . S
O591 Fe581 1.976 . S
O591 C586 1.287 . S
O592 Fe578 1.996 . S
O592 C586 1.255 . S
C593 O597 1.295 . S
C593 O598 1.235 . S
O594 Fe579 1.976 . S
O594 C588 1.287 . S
O595 Fe581 1.996 . S
O595 C588 1.255 . S
C596 O589 1.287 . S
C596 O590 1.255 . S
O597 Fe579 2.002 . S
O597 C593 1.295 . S
O598 Fe581 1.997 . S
O598 C593 1.235 . S
C599 O582 1.295 . S
C599 O583 1.235 . S
Fe600 O602 1.918 . S
Fe600 O605 1.997 . S
Fe600 O606 2.002 . S
Fe600 O611 1.976 . S
Fe600 O614 1.996 . S
Fe601 O602 1.918 . S
Fe601 O609 1.997 . S
Fe601 O612 1.996 . S
Fe601 O616 1.976 . S
Fe601 O619 2.002 . S
O602 Fe600 1.918 . S
O602 Fe601 1.918 . S
O602 Fe603 1.918 . S
Fe603 O602 1.918 . S
Fe603 O604 2.002 . S
Fe603 O613 1.976 . S
Fe603 O617 1.996 . S
Fe603 O620 1.997 . S
O604 Fe603 2.002 . S
O604 C621 1.295 . S
O605 Fe600 1.997 . S
O605 C621 1.235 . S
O606 Fe600 2.002 . S
O606 C607 1.295 . S
C607 O606 1.295 . S
C607 O609 1.235 . S
C608 O613 1.287 . S
C608 O614 1.255 . S
O609 Fe601 1.997 . S
O609 C607 1.235 . S
C610 O616 1.287 . S
C610 O617 1.255 . S
O611 Fe600 1.976 . S
O611 C618 1.287 . S
O612 Fe601 1.996 . S
O612 C618 1.255 . S
O613 Fe603 1.976 . S
O613 C608 1.287 . S
O614 Fe600 1.996 . S
O614 C608 1.255 . S
C615 O619 1.295 . S
C615 O620 1.235 . S
O616 Fe601 1.976 . S
O616 C610 1.287 . S
O617 Fe603 1.996 . S
O617 C610 1.255 . S
C618 O611 1.287 . S
C618 O612 1.255 . S
O619 Fe601 2.002 . S
O619 C615 1.295 . S
O620 Fe603 1.997 . S
O620 C615 1.235 . S
C621 O604 1.295 . S
C621 O605 1.235 . S
Fe622 O624 1.918 . S
Fe622 O627 1.997 . S
Fe622 O628 2.002 . S
Fe622 O633 1.976 . S
Fe622 O636 1.996 . S
Fe623 O624 1.918 . S
Fe623 O631 1.997 . S
Fe623 O634 1.996 . S
Fe623 O638 1.976 . S
Fe623 O641 2.002 . S
O624 Fe622 1.918 . S
O624 Fe623 1.918 . S
O624 Fe625 1.918 . S
Fe625 O624 1.918 . S
Fe625 O626 2.002 . S
Fe625 O635 1.976 . S
Fe625 O639 1.996 . S
Fe625 O642 1.997 . S
O626 Fe625 2.002 . S
O626 C643 1.295 . S
O627 Fe622 1.997 . S
O627 C643 1.235 . S
O628 Fe622 2.002 . S
O628 C629 1.295 . S
C629 O628 1.295 . S
C629 O631 1.235 . S
C630 O635 1.287 . S
C630 O636 1.255 . S
O631 Fe623 1.997 . S
O631 C629 1.235 . S
C632 O638 1.287 . S
C632 O639 1.255 . S
O633 Fe622 1.976 . S
O633 C640 1.287 . S
O634 Fe623 1.996 . S
O634 C640 1.255 . S
O635 Fe625 1.976 . S
O635 C630 1.287 . S
O636 Fe622 1.996 . S
O636 C630 1.255 . S
C637 O641 1.295 . S
C637 O642 1.235 . S
O638 Fe623 1.976 . S
O638 C632 1.287 . S
O639 Fe625 1.996 . S
O639 C632 1.255 . S
C640 O633 1.287 . S
C640 O634 1.255 . S
O641 Fe623 2.002 . S
O641 C637 1.295 . S
O642 Fe625 1.997 . S
O642 C637 1.235 . S
C643 O626 1.295 . S
C643 O627 1.235 . S
Fe644 O646 1.918 . S
Fe644 O649 1.997 . S
Fe644 O650 2.002 . S
Fe644 O655 1.976 . S
Fe644 O658 1.996 . S
Fe645 O646 1.918 . S
Fe645 O653 1.997 . S
Fe645 O656 1.996 . S
Fe645 O660 1.976 . S
Fe645 O663 2.002 . S
O646 Fe644 1.918 . S
O646 Fe645 1.918 . S
O646 Fe647 1.918 . S
Fe647 O646 1.918 . S
Fe647 O648 2.002 . S
Fe647 O657 1.976 . S
Fe647 O661 1.996 . S
Fe647 O664 1.997 . S
O648 Fe647 2.002 . S
O648 C665 1.295 . S
O649 Fe644 1.997 . S
O649 C665 1.235 . S
O650 Fe644 2.002 . S
O650 C651 1.295 . S
C651 O650 1.295 . S
C651 O653 1.235 . S
C652 O657 1.287 . S
C652 O658 1.255 . S
O653 Fe645 1.997 . S
O653 C651 1.235 . S
C654 O660 1.287 . S
C654 O661 1.255 . S
O655 Fe644 1.976 . S
O655 C662 1.287 . S
O656 Fe645 1.996 . S
O656 C662 1.255 . S
O657 Fe647 1.976 . S
O657 C652 1.287 . S
O658 Fe644 1.996 . S
O658 C652 1.255 . S
C659 O663 1.295 . S
C659 O664 1.235 . S
O660 Fe645 1.976 . S
O660 C654 1.287 . S
O661 Fe647 1.996 . S
O661 C654 1.255 . S
C662 O655 1.287 . S
C662 O656 1.255 . S
O663 Fe645 2.002 . S
O663 C659 1.295 . S
O664 Fe647 1.997 . S
O664 C659 1.235 . S
C665 O648 1.295 . S
C665 O649 1.235 . S
Fe666 O668 1.918 . S
Fe666 O671 1.997 . S
Fe666 O672 2.002 . S
Fe666 O677 1.976 . S
Fe666 O680 1.996 . S
Fe667 O668 1.918 . S
Fe667 O675 1.997 . S
Fe667 O678 1.996 . S
Fe667 O682 1.976 . S
Fe667 O685 2.002 . S
O668 Fe666 1.918 . S
O668 Fe667 1.918 . S
O668 Fe669 1.918 . S
Fe669 O668 1.918 . S
Fe669 O670 2.002 . S
Fe669 O679 1.976 . S
Fe669 O683 1.996 . S
Fe669 O686 1.997 . S
O670 Fe669 2.002 . S
O670 C687 1.295 . S
O671 Fe666 1.997 . S
O671 C687 1.235 . S
O672 Fe666 2.002 . S
O672 C673 1.295 . S
C673 O672 1.295 . S
C673 O675 1.235 . S
C674 O679 1.287 . S
C674 O680 1.255 . S
O675 Fe667 1.997 . S
O675 C673 1.235 . S
C676 O682 1.287 . S
C676 O683 1.255 . S
O677 Fe666 1.976 . S
O677 C684 1.287 . S
O678 Fe667 1.996 . S
O678 C684 1.255 . S
O679 Fe669 1.976 . S
O679 C674 1.287 . S
O680 Fe666 1.996 . S
O680 C674 1.255 . S
C681 O685 1.295 . S
C681 O686 1.235 . S
O682 Fe667 1.976 . S
O682 C676 1.287 . S
O683 Fe669 1.996 . S
O683 C676 1.255 . S
C684 O677 1.287 . S
C684 O678 1.255 . S
O685 Fe667 2.002 . S
O685 C681 1.295 . S
O686 Fe669 1.997 . S
O686 C681 1.235 . S
C687 O670 1.295 . S
C687 O671 1.235 . S
H688 C694 0.930 . S
H689 C698 0.930 . S
H690 C703 0.929 . S
H691 C701 0.929 . S
H692 C696 0.929 . S
H693 C702 0.929 . S
C694 H688 0.930 . S
C694 C695 1.367 . S
C694 C702 1.378 . S
C695 C694 1.367 . S
C695 C703 1.433 . S
C696 H692 0.929 . S
C696 C698 1.378 . S
C696 C700 1.350 . S
C697 C700 1.463 . S
C697 C702 1.350 . S
C697 N705 1.427 . S
C698 H689 0.930 . S
C698 C696 1.378 . S
C698 C699 1.367 . S
C699 C698 1.367 . S
C699 C701 1.433 . S
C700 C696 1.350 . S
C700 C697 1.463 . S
C700 N704 1.427 . S
C701 H691 0.929 . S
C701 C699 1.433 . S
C701 N704 1.384 . S
C702 H693 0.929 . S
C702 C694 1.378 . S
C702 C697 1.350 . S
C703 H690 0.929 . S
C703 C695 1.433 . S
C703 N705 1.384 . S
N704 C700 1.427 . S
N704 C701 1.384 . S
N705 C697 1.427 . S
N705 C703 1.384 . S
H706 C712 0.930 . S
H707 C716 0.930 . S
H708 C721 0.929 . S
H709 C719 0.929 . S
H710 C714 0.929 . S
H711 C720 0.929 . S
C712 H706 0.930 . S
C712 C713 1.367 . S
C712 C720 1.378 . S
C713 C712 1.367 . S
C713 C721 1.433 . S
C714 H710 0.929 . S
C714 C716 1.378 . S
C714 C718 1.350 . S
C715 C718 1.463 . S
C715 C720 1.350 . S
C715 N723 1.427 . S
C716 H707 0.930 . S
C716 C714 1.378 . S
C716 C717 1.367 . S
C717 C716 1.367 . S
C717 C719 1.433 . S
C718 C714 1.350 . S
C718 C715 1.463 . S
C718 N722 1.427 . S
C719 H709 0.929 . S
C719 C717 1.433 . S
C719 N722 1.384 . S
C720 H711 0.929 . S
C720 C712 1.378 . S
C720 C715 1.350 . S
C721 H708 0.929 . S
C721 C713 1.433 . S
C721 N723 1.384 . S
N722 C718 1.427 . S
N722 C719 1.384 . S
N723 C715 1.427 . S
N723 C721 1.384 . S
H724 C730 0.930 . S
H725 C734 0.930 . S
H726 C739 0.929 . S
H727 C737 0.929 . S
H728 C732 0.929 . S
H729 C738 0.929 . S
C730 H724 0.930 . S
C730 C731 1.367 . S
C730 C738 1.378 . S
C731 C730 1.367 . S
C731 C739 1.433 . S
C732 H728 0.929 . S
C732 C734 1.378 . S
C732 C736 1.350 . S
C733 C736 1.463 . S
C733 C738 1.350 . S
C733 N741 1.427 . S
C734 H725 0.930 . S
C734 C732 1.378 . S
C734 C735 1.367 . S
C735 C734 1.367 . S
C735 C737 1.433 . S
C736 C732 1.350 . S
C736 C733 1.463 . S
C736 N740 1.427 . S
C737 H727 0.929 . S
C737 C735 1.433 . S
C737 N740 1.384 . S
C738 H729 0.929 . S
C738 C730 1.378 . S
C738 C733 1.350 . S
C739 H726 0.929 . S
C739 C731 1.433 . S
C739 N741 1.384 . S
N740 C736 1.427 . S
N740 C737 1.384 . S
N741 C733 1.427 . S
N741 C739 1.384 . S
H742 C748 0.930 . S
H743 C752 0.930 . S
H744 C757 0.929 . S
H745 C755 0.929 . S
H746 C750 0.929 . S
H747 C756 0.929 . S
C748 H742 0.930 . S
C748 C749 1.367 . S
C748 C756 1.378 . S
C749 C748 1.367 . S
C749 C757 1.433 . S
C750 H746 0.929 . S
C750 C752 1.378 . S
C750 C754 1.350 1_556 S
C751 C754 1.463 . S
C751 C756 1.350 . S
C751 N759 1.427 . S
C752 H743 0.930 . S
C752 C750 1.378 . S
C752 C753 1.367 . S
C753 C752 1.367 . S
C753 C755 1.433 . S
C754 C750 1.350 1_554 S
C754 C751 1.463 . S
C754 N758 1.427 . S
C755 H745 0.929 . S
C755 C753 1.433 . S
C755 N758 1.384 1_556 S
C756 H747 0.929 . S
C756 C748 1.378 . S
C756 C751 1.350 . S
C757 H744 0.929 . S
C757 C749 1.433 . S
C757 N759 1.384 . S
N758 C754 1.427 . S
N758 C755 1.384 1_554 S
N759 C751 1.427 . S
N759 C757 1.384 . S
H760 C766 0.930 . S
H761 C770 0.930 . S
H762 C775 0.929 . S
H763 C773 0.929 . S
H764 C768 0.929 . S
H765 C774 0.929 . S
C766 H760 0.930 . S
C766 C767 1.367 . S
C766 C774 1.378 . S
C767 C766 1.367 . S
C767 C775 1.433 . S
C768 H764 0.929 . S
C768 C770 1.378 . S
C768 C772 1.350 . S
C769 C772 1.463 . S
C769 C774 1.350 . S
C769 N777 1.427 . S
C770 H761 0.930 . S
C770 C768 1.378 . S
C770 C771 1.367 . S
C771 C770 1.367 . S
C771 C773 1.433 . S
C772 C768 1.350 . S
C772 C769 1.463 . S
C772 N776 1.427 . S
C773 H763 0.929 . S
C773 C771 1.433 . S
C773 N776 1.384 . S
C774 H765 0.929 . S
C774 C766 1.378 . S
C774 C769 1.350 . S
C775 H762 0.929 . S
C775 C767 1.433 . S
C775 N777 1.384 . S
N776 C772 1.427 . S
N776 C773 1.384 . S
N777 C769 1.427 . S
N777 C775 1.384 . S
H778 C784 0.930 . S
H779 C788 0.930 . S
H780 C793 0.929 . S
H781 C791 0.929 . S
H782 C786 0.929 . S
H783 C792 0.929 . S
C784 H778 0.930 . S
C784 C785 1.367 . S
C784 C792 1.378 . S
C785 C784 1.367 . S
C785 C793 1.433 . S
C786 H782 0.929 . S
C786 C788 1.378 . S
C786 C790 1.350 . S
C787 C790 1.463 . S
C787 C792 1.350 . S
C787 N795 1.427 . S
C788 H779 0.930 . S
C788 C786 1.378 . S
C788 C789 1.367 . S
C789 C788 1.367 . S
C789 C791 1.433 . S
C790 C786 1.350 . S
C790 C787 1.463 . S
C790 N794 1.427 . S
C791 H781 0.929 . S
C791 C789 1.433 . S
C791 N794 1.384 . S
C792 H783 0.929 . S
C792 C784 1.378 . S
C792 C787 1.350 . S
C793 H780 0.929 . S
C793 C785 1.433 . S
C793 N795 1.384 . S
N794 C790 1.427 . S
N794 C791 1.384 . S
N795 C787 1.427 . S
N795 C793 1.384 . S
H796 C802 0.930 . S
H797 C806 0.930 . S
H798 C811 0.929 . S
H799 C809 0.929 . S
H800 C804 0.929 . S
H801 C810 0.929 . S
C802 H796 0.930 . S
C802 C803 1.367 . S
C802 C810 1.378 . S
C803 C802 1.367 . S
C803 C811 1.433 . S
C804 H800 0.929 . S
C804 C806 1.378 . S
C804 C808 1.350 . S
C805 C808 1.463 . S
C805 C810 1.350 . S
C805 N813 1.427 . S
C806 H797 0.930 . S
C806 C804 1.378 . S
C806 C807 1.367 . S
C807 C806 1.367 . S
C807 C809 1.433 . S
C808 C804 1.350 . S
C808 C805 1.463 . S
C808 N812 1.427 . S
C809 H799 0.929 . S
C809 C807 1.433 . S
C809 N812 1.384 . S
C810 H801 0.929 . S
C810 C802 1.378 . S
C810 C805 1.350 . S
C811 H798 0.929 . S
C811 C803 1.433 . S
C811 N813 1.384 . S
N812 C808 1.427 . S
N812 C809 1.384 . S
N813 C805 1.427 . S
N813 C811 1.384 . S
H814 C820 0.930 . S
H815 C824 0.930 . S
H816 C829 0.929 . S
H817 C827 0.929 . S
H818 C822 0.929 . S
H819 C828 0.929 . S
C820 H814 0.930 . S
C820 C821 1.367 . S
C820 C828 1.378 . S
C821 C820 1.367 . S
C821 C829 1.433 . S
C822 H818 0.929 . S
C822 C824 1.378 . S
C822 C826 1.350 . S
C823 C826 1.463 1_556 S
C823 C828 1.350 . S
C823 N831 1.427 . S
C824 H815 0.930 . S
C824 C822 1.378 . S
C824 C825 1.367 . S
C825 C824 1.367 . S
C825 C827 1.433 . S
C826 C822 1.350 . S
C826 C823 1.463 1_554 S
C826 N830 1.427 . S
C827 H817 0.929 . S
C827 C825 1.433 . S
C827 N830 1.384 . S
C828 H819 0.929 . S
C828 C820 1.378 . S
C828 C823 1.350 . S
C829 H816 0.929 . S
C829 C821 1.433 . S
C829 N831 1.384 . S
N830 C826 1.427 . S
N830 C827 1.384 . S
N831 C823 1.427 . S
N831 C829 1.384 . S
H832 C838 0.930 . S
H833 C842 0.930 . S
H834 C847 0.929 . S
H835 C845 0.929 . S
H836 C840 0.929 . S
H837 C846 0.929 . S
C838 H832 0.930 . S
C838 C839 1.367 . S
C838 C846 1.378 . S
C839 C838 1.367 . S
C839 C847 1.433 . S
C840 H836 0.929 . S
C840 C842 1.378 . S
C840 C844 1.350 . S
C841 C844 1.463 . S
C841 C846 1.350 . S
C841 N849 1.427 . S
C842 H833 0.930 . S
C842 C840 1.378 . S
C842 C843 1.367 . S
C843 C842 1.367 . S
C843 C845 1.433 . S
C844 C840 1.350 . S
C844 C841 1.463 . S
C844 N848 1.427 . S
C845 H835 0.929 . S
C845 C843 1.433 . S
C845 N848 1.384 . S
C846 H837 0.929 . S
C846 C838 1.378 . S
C846 C841 1.350 . S
C847 H834 0.929 . S
C847 C839 1.433 . S
C847 N849 1.384 . S
N848 C844 1.427 . S
N848 C845 1.384 . S
N849 C841 1.427 . S
N849 C847 1.384 . S
H850 C856 0.930 . S
H851 C860 0.930 . S
H852 C865 0.929 . S
H853 C863 0.929 . S
H854 C858 0.929 . S
H855 C864 0.929 . S
C856 H850 0.930 . S
C856 C857 1.367 . S
C856 C864 1.378 . S
C857 C856 1.367 . S
C857 C865 1.433 . S
C858 H854 0.929 . S
C858 C860 1.378 . S
C858 C862 1.350 1_565 S
C859 C862 1.463 . S
C859 C864 1.350 . S
C859 N867 1.427 . S
C860 H851 0.930 . S
C860 C858 1.378 . S
C860 C861 1.367 . S
C861 C860 1.367 . S
C861 C863 1.433 . S
C862 C858 1.350 1_545 S
C862 C859 1.463 . S
C862 N866 1.427 . S
C863 H853 0.929 . S
C863 C861 1.433 . S
C863 N866 1.384 1_565 S
C864 H855 0.929 . S
C864 C856 1.378 . S
C864 C859 1.350 . S
C865 H852 0.929 . S
C865 C857 1.433 . S
C865 N867 1.384 . S
N866 C862 1.427 . S
N866 C863 1.384 1_545 S
N867 C859 1.427 . S
N867 C865 1.384 . S
H868 C874 0.930 . S
H869 C878 0.930 . S
H870 C883 0.929 . S
H871 C881 0.929 . S
H872 C876 0.929 . S
H873 C882 0.929 . S
C874 H868 0.930 . S
C874 C875 1.367 . S
C874 C882 1.378 . S
C875 C874 1.367 . S
C875 C883 1.433 . S
C876 H872 0.929 . S
C876 C878 1.378 . S
C876 C880 1.350 . S
C877 C880 1.463 . S
C877 C882 1.350 . S
C877 N885 1.427 . S
C878 H869 0.930 . S
C878 C876 1.378 . S
C878 C879 1.367 . S
C879 C878 1.367 . S
C879 C881 1.433 . S
C880 C876 1.350 . S
C880 C877 1.463 . S
C880 N884 1.427 . S
C881 H871 0.929 . S
C881 C879 1.433 . S
C881 N884 1.384 . S
C882 H873 0.929 . S
C882 C874 1.378 . S
C882 C877 1.350 . S
C883 H870 0.929 . S
C883 C875 1.433 . S
C883 N885 1.384 . S
N884 C880 1.427 . S
N884 C881 1.384 . S
N885 C877 1.427 . S
N885 C883 1.384 . S
H886 C892 0.930 . S
H887 C896 0.930 . S
H888 C901 0.929 . S
H889 C899 0.929 . S
H890 C894 0.929 . S
H891 C900 0.929 . S
C892 H886 0.930 . S
C892 C893 1.367 . S
C892 C900 1.378 . S
C893 C892 1.367 . S
C893 C901 1.433 . S
C894 H890 0.929 . S
C894 C896 1.378 . S
C894 C898 1.338 1_545 S
C895 C898 1.474 . S
C895 C900 1.350 . S
C895 N903 1.427 . S
C896 H887 0.930 . S
C896 C894 1.378 . S
C896 C897 1.367 . S
C897 C896 1.367 . S
C897 C899 1.433 . S
C898 C894 1.338 1_565 S
C898 C895 1.474 . S
C898 N902 1.429 . S
C899 H889 0.929 . S
C899 C897 1.433 . S
C899 N902 1.384 1_545 S
C900 H891 0.929 . S
C900 C892 1.378 . S
C900 C895 1.350 . S
C901 H888 0.929 . S
C901 C893 1.433 . S
C901 N903 1.384 . S
N902 C898 1.429 . S
N902 C899 1.384 1_565 S
N903 C895 1.427 . S
N903 C901 1.384 . S
H904 C910 0.930 . S
H905 C914 0.930 . S
H906 C919 0.929 . S
H907 C917 0.929 . S
H908 C912 0.929 . S
H909 C918 0.929 . S
C910 H904 0.930 . S
C910 C911 1.367 . S
C910 C918 1.378 . S
C911 C910 1.367 . S
C911 C919 1.433 . S
C912 H908 0.929 . S
C912 C914 1.378 . S
C912 C916 1.350 . S
C913 C916 1.463 . S
C913 C918 1.350 . S
C913 N921 1.427 . S
C914 H905 0.930 . S
C914 C912 1.378 . S
C914 C915 1.367 . S
C915 C914 1.367 . S
C915 C917 1.433 . S
C916 C912 1.350 . S
C916 C913 1.463 . S
C916 N920 1.427 . S
C917 H907 0.929 . S
C917 C915 1.433 . S
C917 N920 1.384 . S
C918 H909 0.929 . S
C918 C910 1.378 . S
C918 C913 1.350 . S
C919 H906 0.929 . S
C919 C911 1.433 . S
C919 N921 1.384 . S
N920 C916 1.427 . S
N920 C917 1.384 . S
N921 C913 1.427 . S
N921 C919 1.384 . S
H922 C928 0.930 . S
H923 C932 0.930 . S
H924 C937 0.929 . S
H925 C935 0.929 . S
H926 C930 0.929 . S
H927 C936 0.929 . S
C928 H922 0.930 . S
C928 C929 1.367 . S
C928 C936 1.378 . S
C929 C928 1.367 . S
C929 C937 1.433 . S
C930 H926 0.929 . S
C930 C932 1.378 1_545 S
C930 C934 1.350 . S
C931 C934 1.463 . S
C931 C936 1.350 . S
C931 N939 1.427 . S
C932 H923 0.930 . S
C932 C930 1.378 1_565 S
C932 C933 1.367 . S
C933 C932 1.367 . S
C933 C935 1.433 . S
C934 C930 1.350 . S
C934 C931 1.463 . S
C934 N938 1.427 1_545 S
C935 H925 0.929 . S
C935 C933 1.433 . S
C935 N938 1.384 . S
C936 H927 0.929 . S
C936 C928 1.378 . S
C936 C931 1.350 . S
C937 H924 0.929 . S
C937 C929 1.433 . S
C937 N939 1.384 . S
N938 C934 1.427 1_565 S
N938 C935 1.384 . S
N939 C931 1.427 . S
N939 C937 1.384 . S
H940 C946 0.930 . S
H941 C950 0.930 . S
H942 C955 0.929 . S
H943 C953 0.929 . S
H944 C948 0.929 . S
H945 C954 0.929 . S
C946 H940 0.930 . S
C946 C947 1.367 . S
C946 C954 1.378 . S
C947 C946 1.367 . S
C947 C955 1.433 . S
C948 H944 0.929 . S
C948 C950 1.378 . S
C948 C952 1.350 . S
C949 C952 1.463 . S
C949 C954 1.350 . S
C949 N957 1.427 . S
C950 H941 0.930 . S
C950 C948 1.378 . S
C950 C951 1.367 . S
C951 C950 1.367 . S
C951 C953 1.433 . S
C952 C948 1.350 . S
C952 C949 1.463 . S
C952 N956 1.427 . S
C953 H943 0.929 . S
C953 C951 1.433 . S
C953 N956 1.384 . S
C954 H945 0.929 . S
C954 C946 1.378 . S
C954 C949 1.350 . S
C955 H942 0.929 . S
C955 C947 1.433 . S
C955 N957 1.384 . S
N956 C952 1.427 . S
N956 C953 1.384 . S
N957 C949 1.427 . S
N957 C955 1.384 . S
H958 C964 0.930 . S
H959 C968 0.930 . S
H960 C973 0.929 . S
H961 C971 0.929 . S
H962 C966 0.929 1_565 S
H963 C972 0.914 1_545 S
C964 H958 0.930 . S
C964 C965 1.367 . S
C964 C972 1.378 . S
C965 C964 1.367 . S
C965 C973 1.433 . S
C966 H962 0.929 1_545 S
C966 C968 1.378 . S
C966 C970 1.350 . S
C967 C970 1.463 1_565 S
C967 C972 1.350 . S
C967 N975 1.427 . S
C968 H959 0.930 . S
C968 C966 1.378 . S
C968 C969 1.367 . S
C969 C968 1.367 . S
C969 C971 1.433 . S
C970 C966 1.350 . S
C970 C967 1.463 1_545 S
C970 N974 1.427 . S
C971 H961 0.929 . S
C971 C969 1.433 . S
C971 N974 1.384 . S
C972 H963 0.914 1_565 S
C972 C964 1.378 . S
C972 C967 1.350 . S
C973 H960 0.929 . S
C973 C965 1.433 . S
C973 N975 1.384 . S
N974 C970 1.427 . S
N974 C971 1.384 . S
N975 C967 1.427 . S
N975 C973 1.384 . S
H976 C982 0.930 . S
H977 C986 0.930 . S
H978 C991 0.929 . S
H979 C989 0.929 . S
H980 C984 0.929 . S
H981 C990 0.929 . S
C982 H976 0.930 . S
C982 C983 1.367 . S
C982 C990 1.378 . S
C983 C982 1.367 . S
C983 C991 1.433 . S
C984 H980 0.929 . S
C984 C986 1.378 . S
C984 C988 1.350 . S
C985 C988 1.463 . S
C985 C990 1.350 . S
C985 N993 1.427 . S
C986 H977 0.930 . S
C986 C984 1.378 . S
C986 C987 1.367 . S
C987 C986 1.367 . S
C987 C989 1.433 . S
C988 C984 1.350 . S
C988 C985 1.463 . S
C988 N992 1.427 . S
C989 H979 0.929 . S
C989 C987 1.433 . S
C989 N992 1.384 . S
C990 H981 0.929 . S
C990 C982 1.378 . S
C990 C985 1.350 . S
C991 H978 0.929 . S
C991 C983 1.433 . S
C991 N993 1.384 . S
N992 C988 1.427 . S
N992 C989 1.384 . S
N993 C985 1.427 . S
N993 C991 1.384 . S
H994 C1000 0.930 . S
H995 C1004 0.930 . S
H996 C1009 0.929 . S
H997 C1007 0.929 . S
H998 C1002 0.929 . S
H999 C1008 0.929 . S
C1000 H994 0.930 . S
C1000 C1001 1.367 . S
C1000 C1008 1.378 . S
C1001 C1000 1.367 . S
C1001 C1009 1.433 . S
C1002 H998 0.929 . S
C1002 C1004 1.378 . S
C1002 C1006 1.350 . S
C1003 C1006 1.463 . S
C1003 C1008 1.350 . S
C1003 N1011 1.427 . S
C1004 H995 0.930 . S
C1004 C1002 1.378 . S
C1004 C1005 1.367 . S
C1005 C1004 1.367 . S
C1005 C1007 1.433 . S
C1006 C1002 1.350 . S
C1006 C1003 1.463 . S
C1006 N1010 1.427 . S
C1007 H997 0.929 . S
C1007 C1005 1.433 . S
C1007 N1010 1.384 . S
C1008 H999 0.929 . S
C1008 C1000 1.378 . S
C1008 C1003 1.350 . S
C1009 H996 0.929 . S
C1009 C1001 1.433 . S
C1009 N1011 1.384 . S
N1010 C1006 1.427 . S
N1010 C1007 1.384 . S
N1011 C1003 1.427 . S
N1011 C1009 1.384 . S
H1012 C1018 0.930 . S
H1013 C1022 0.930 . S
H1014 C1027 0.929 . S
H1015 C1025 0.929 . S
H1016 C1020 0.929 . S
H1017 C1026 0.929 . S
C1018 H1012 0.930 . S
C1018 C1019 1.367 . S
C1018 C1026 1.378 . S
C1019 C1018 1.367 . S
C1019 C1027 1.433 . S
C1020 H1016 0.929 . S
C1020 C1022 1.378 1_455 S
C1020 C1024 1.350 . S
C1021 C1024 1.463 . S
C1021 C1026 1.350 . S
C1021 N1029 1.427 . S
C1022 H1013 0.930 . S
C1022 C1020 1.378 1_655 S
C1022 C1023 1.367 . S
C1023 C1022 1.367 . S
C1023 C1025 1.433 . S
C1024 C1020 1.350 . S
C1024 C1021 1.463 . S
C1024 N1028 1.427 1_455 S
C1025 H1015 0.929 . S
C1025 C1023 1.433 . S
C1025 N1028 1.384 . S
C1026 H1017 0.929 . S
C1026 C1018 1.378 . S
C1026 C1021 1.350 . S
C1027 H1014 0.929 . S
C1027 C1019 1.433 . S
C1027 N1029 1.384 . S
N1028 C1024 1.427 1_655 S
N1028 C1025 1.384 . S
N1029 C1021 1.427 . S
N1029 C1027 1.384 . S
H1030 C1036 0.930 . S
H1031 C1040 0.930 . S
H1032 C1045 0.929 . S
H1033 C1043 0.929 . S
H1034 C1038 0.929 . S
H1035 C1044 0.929 . S
C1036 H1030 0.930 . S
C1036 C1037 1.367 . S
C1036 C1044 1.378 . S
C1037 C1036 1.367 . S
C1037 C1045 1.433 . S
C1038 H1034 0.929 . S
C1038 C1040 1.378 . S
C1038 C1042 1.350 . S
C1039 C1042 1.463 . S
C1039 C1044 1.350 . S
C1039 N1047 1.427 . S
C1040 H1031 0.930 . S
C1040 C1038 1.378 . S
C1040 C1041 1.367 . S
C1041 C1040 1.367 . S
C1041 C1043 1.433 . S
C1042 C1038 1.350 . S
C1042 C1039 1.463 . S
C1042 N1046 1.427 . S
C1043 H1033 0.929 . S
C1043 C1041 1.433 . S
C1043 N1046 1.384 . S
C1044 H1035 0.929 . S
C1044 C1036 1.378 . S
C1044 C1039 1.350 . S
C1045 H1032 0.929 . S
C1045 C1037 1.433 . S
C1045 N1047 1.384 . S
N1046 C1042 1.427 . S
N1046 C1043 1.384 . S
N1047 C1039 1.427 . S
N1047 C1045 1.384 . S
H1048 C1054 0.930 . S
H1049 C1058 0.930 . S
H1050 C1063 0.929 . S
H1051 C1061 0.929 . S
H1052 C1056 0.929 . S
H1053 C1062 0.929 . S
C1054 H1048 0.930 . S
C1054 C1055 1.367 . S
C1054 C1062 1.378 . S
C1055 C1054 1.367 . S
C1055 C1063 1.433 . S
C1056 H1052 0.929 . S
C1056 C1058 1.378 . S
C1056 C1060 1.350 . S
C1057 C1060 1.463 1_655 S
C1057 C1062 1.350 . S
C1057 N1065 1.427 . S
C1058 H1049 0.930 . S
C1058 C1056 1.378 . S
C1058 C1059 1.367 . S
C1059 C1058 1.367 . S
C1059 C1061 1.433 . S
C1060 C1056 1.350 . S
C1060 C1057 1.463 1_455 S
C1060 N1064 1.427 . S
C1061 H1051 0.929 . S
C1061 C1059 1.433 . S
C1061 N1064 1.384 . S
C1062 H1053 0.929 . S
C1062 C1054 1.378 . S
C1062 C1057 1.350 . S
C1063 H1050 0.929 . S
C1063 C1055 1.433 . S
C1063 N1065 1.384 . S
N1064 C1060 1.427 . S
N1064 C1061 1.384 . S
N1065 C1057 1.427 . S
N1065 C1063 1.384 . S
H1066 C1072 0.930 . S
H1067 C1076 0.930 . S
H1068 C1081 0.929 . S
H1069 C1079 0.929 . S
H1070 C1074 0.929 . S
H1071 C1080 0.929 . S
C1072 H1066 0.930 . S
C1072 C1073 1.367 . S
C1072 C1080 1.378 . S
C1073 C1072 1.367 . S
C1073 C1081 1.433 . S
C1074 H1070 0.929 . S
C1074 C1076 1.378 . S
C1074 C1078 1.350 . S
C1075 C1078 1.463 . S
C1075 C1080 1.350 . S
C1075 N1083 1.427 . S
C1076 H1067 0.930 . S
C1076 C1074 1.378 . S
C1076 C1077 1.367 . S
C1077 C1076 1.367 . S
C1077 C1079 1.433 . S
C1078 C1074 1.350 . S
C1078 C1075 1.463 . S
C1078 N1082 1.427 . S
C1079 H1069 0.929 . S
C1079 C1077 1.433 . S
C1079 N1082 1.384 . S
C1080 H1071 0.929 . S
C1080 C1072 1.378 . S
C1080 C1075 1.350 . S
C1081 H1068 0.929 . S
C1081 C1073 1.433 . S
C1081 N1083 1.384 . S
N1082 C1078 1.427 . S
N1082 C1079 1.384 . S
N1083 C1075 1.427 . S
N1083 C1081 1.384 . S
H1084 C1090 0.930 . S
H1085 C1094 0.930 . S
H1086 C1099 0.929 . S
H1087 C1097 0.929 . S
H1088 C1092 0.929 . S
H1089 C1098 0.929 . S
C1090 H1084 0.930 . S
C1090 C1091 1.367 . S
C1090 C1098 1.378 . S
C1091 C1090 1.367 . S
C1091 C1099 1.433 . S
C1092 H1088 0.929 . S
C1092 C1094 1.378 1_455 S
C1092 C1096 1.350 . S
C1093 C1096 1.463 . S
C1093 C1098 1.350 . S
C1093 N1101 1.427 . S
C1094 H1085 0.930 . S
C1094 C1092 1.378 1_655 S
C1094 C1095 1.367 . S
C1095 C1094 1.367 . S
C1095 C1097 1.433 . S
C1096 C1092 1.350 . S
C1096 C1093 1.463 . S
C1096 N1100 1.427 1_455 S
C1097 H1087 0.929 . S
C1097 C1095 1.433 . S
C1097 N1100 1.384 . S
C1098 H1089 0.929 . S
C1098 C1090 1.378 . S
C1098 C1093 1.350 . S
C1099 H1086 0.929 . S
C1099 C1091 1.433 . S
C1099 N1101 1.384 . S
N1100 C1096 1.427 1_655 S
N1100 C1097 1.384 . S
N1101 C1093 1.427 . S
N1101 C1099 1.384 . S
H1102 C1108 0.930 . S
H1103 C1112 0.930 . S
H1104 C1117 0.929 . S
H1105 C1115 0.929 . S
H1106 C1110 0.929 . S
H1107 C1116 0.929 . S
C1108 H1102 0.930 . S
C1108 C1109 1.367 . S
C1108 C1116 1.378 . S
C1109 C1108 1.367 . S
C1109 C1117 1.433 . S
C1110 H1106 0.929 . S
C1110 C1112 1.378 . S
C1110 C1114 1.350 . S
C1111 C1114 1.463 . S
C1111 C1116 1.350 . S
C1111 N1119 1.427 . S
C1112 H1103 0.930 . S
C1112 C1110 1.378 . S
C1112 C1113 1.367 . S
C1113 C1112 1.367 . S
C1113 C1115 1.433 . S
C1114 C1110 1.350 . S
C1114 C1111 1.463 . S
C1114 N1118 1.427 . S
C1115 H1105 0.929 . S
C1115 C1113 1.433 . S
C1115 N1118 1.384 . S
C1116 H1107 0.929 . S
C1116 C1108 1.378 . S
C1116 C1111 1.350 . S
C1117 H1104 0.929 . S
C1117 C1109 1.433 . S
C1117 N1119 1.384 . S
N1118 C1114 1.427 . S
N1118 C1115 1.384 . S
N1119 C1111 1.427 . S
N1119 C1117 1.384 . S
H1120 C1126 0.930 . S
H1121 C1130 0.930 . S
H1122 C1135 0.929 . S
H1123 C1133 0.929 . S
H1124 C1128 0.929 . S
H1125 C1134 0.929 . S
C1126 H1120 0.930 . S
C1126 C1127 1.367 . S
C1126 C1134 1.378 . S
C1127 C1126 1.367 . S
C1127 C1135 1.433 . S
C1128 H1124 0.929 . S
C1128 C1130 1.378 . S
C1128 C1132 1.350 . S
C1129 C1132 1.463 . S
C1129 C1134 1.350 . S
C1129 N1137 1.427 . S
C1130 H1121 0.930 . S
C1130 C1128 1.378 . S
C1130 C1131 1.367 . S
C1131 C1130 1.367 . S
C1131 C1133 1.433 . S
C1132 C1128 1.350 . S
C1132 C1129 1.463 . S
C1132 N1136 1.427 . S
C1133 H1123 0.929 . S
C1133 C1131 1.433 . S
C1133 N1136 1.384 . S
C1134 H1125 0.929 . S
C1134 C1126 1.378 . S
C1134 C1129 1.350 . S
C1135 H1122 0.929 . S
C1135 C1127 1.433 . S
C1135 N1137 1.384 . S
N1136 C1132 1.427 . S
N1136 C1133 1.384 . S
N1137 C1129 1.427 . S
N1137 C1135 1.384 . S
H1138 C1144 0.930 . S
H1139 C1148 0.930 . S
H1140 C1153 0.929 . S
H1141 C1151 0.929 . S
H1142 C1146 0.929 . S
H1143 C1152 0.929 . S
C1144 H1138 0.930 . S
C1144 C1145 1.367 . S
C1144 C1152 1.378 . S
C1145 C1144 1.367 . S
C1145 C1153 1.433 . S
C1146 H1142 0.929 . S
C1146 C1148 1.378 . S
C1146 C1150 1.350 . S
C1147 C1150 1.463 . S
C1147 C1152 1.350 . S
C1147 N1155 1.427 . S
C1148 H1139 0.930 . S
C1148 C1146 1.378 . S
C1148 C1149 1.367 . S
C1149 C1148 1.367 . S
C1149 C1151 1.433 . S
C1150 C1146 1.350 . S
C1150 C1147 1.463 . S
C1150 N1154 1.427 . S
C1151 H1141 0.929 . S
C1151 C1149 1.433 . S
C1151 N1154 1.384 . S
C1152 H1143 0.929 . S
C1152 C1144 1.378 . S
C1152 C1147 1.350 . S
C1153 H1140 0.929 . S
C1153 C1145 1.433 . S
C1153 N1155 1.384 . S
N1154 C1150 1.427 . S
N1154 C1151 1.384 . S
N1155 C1147 1.427 . S
N1155 C1153 1.384 . S
H1156 C1162 0.930 . S
H1157 C1166 0.930 . S
H1158 C1171 0.929 . S
H1159 C1169 0.929 . S
H1160 C1164 0.929 . S
H1161 C1170 0.929 . S
C1162 H1156 0.930 . S
C1162 C1163 1.367 . S
C1162 C1170 1.378 . S
C1163 C1162 1.367 . S
C1163 C1171 1.433 . S
C1164 H1160 0.929 . S
C1164 C1166 1.378 . S
C1164 C1168 1.350 . S
C1165 C1168 1.463 . S
C1165 C1170 1.350 . S
C1165 N1173 1.427 . S
C1166 H1157 0.930 . S
C1166 C1164 1.378 . S
C1166 C1167 1.367 . S
C1167 C1166 1.367 . S
C1167 C1169 1.433 . S
C1168 C1164 1.350 . S
C1168 C1165 1.463 . S
C1168 N1172 1.427 . S
C1169 H1159 0.929 . S
C1169 C1167 1.433 . S
C1169 N1172 1.384 . S
C1170 H1161 0.929 . S
C1170 C1162 1.378 . S
C1170 C1165 1.350 . S
C1171 H1158 0.929 . S
C1171 C1163 1.433 . S
C1171 N1173 1.384 . S
N1172 C1168 1.427 . S
N1172 C1169 1.384 . S
N1173 C1165 1.427 . S
N1173 C1171 1.384 . S
H1174 C1180 0.930 . S
H1175 C1184 0.930 . S
H1176 C1189 0.929 . S
H1177 C1187 0.929 . S
H1178 C1182 0.929 . S
H1179 C1188 0.929 . S
C1180 H1174 0.930 . S
C1180 C1181 1.367 . S
C1180 C1188 1.378 . S
C1181 C1180 1.367 . S
C1181 C1189 1.433 . S
C1182 H1178 0.929 . S
C1182 C1184 1.378 . S
C1182 C1186 1.350 . S
C1183 C1186 1.463 1_556 S
C1183 C1188 1.350 . S
C1183 N1191 1.427 . S
C1184 H1175 0.930 . S
C1184 C1182 1.378 . S
C1184 C1185 1.367 . S
C1185 C1184 1.367 . S
C1185 C1187 1.433 . S
C1186 C1182 1.350 . S
C1186 C1183 1.463 1_554 S
C1186 N1190 1.427 . S
C1187 H1177 0.929 . S
C1187 C1185 1.433 . S
C1187 N1190 1.384 . S
C1188 H1179 0.929 . S
C1188 C1180 1.378 . S
C1188 C1183 1.350 . S
C1189 H1176 0.929 . S
C1189 C1181 1.433 . S
C1189 N1191 1.384 . S
N1190 C1186 1.427 . S
N1190 C1187 1.384 . S
N1191 C1183 1.427 . S
N1191 C1189 1.384 . S
H1192 C1198 0.930 . S
H1193 C1202 0.930 . S
H1194 C1207 0.929 . S
H1195 C1205 0.929 . S
H1196 C1200 0.929 . S
H1197 C1206 0.929 . S
C1198 H1192 0.930 . S
C1198 C1199 1.367 . S
C1198 C1206 1.378 . S
C1199 C1198 1.367 . S
C1199 C1207 1.433 . S
C1200 H1196 0.929 . S
C1200 C1202 1.378 . S
C1200 C1204 1.350 . S
C1201 C1204 1.463 . S
C1201 C1206 1.350 . S
C1201 N1209 1.427 . S
C1202 H1193 0.930 . S
C1202 C1200 1.378 . S
C1202 C1203 1.367 . S
C1203 C1202 1.367 . S
C1203 C1205 1.433 . S
C1204 C1200 1.350 . S
C1204 C1201 1.463 . S
C1204 N1208 1.427 . S
C1205 H1195 0.929 . S
C1205 C1203 1.433 . S
C1205 N1208 1.384 . S
C1206 H1197 0.929 . S
C1206 C1198 1.378 . S
C1206 C1201 1.350 . S
C1207 H1194 0.929 . S
C1207 C1199 1.433 . S
C1207 N1209 1.384 . S
N1208 C1204 1.427 . S
N1208 C1205 1.384 . S
N1209 C1201 1.427 . S
N1209 C1207 1.384 . S
H1210 C1216 0.930 . S
H1211 C1220 0.930 . S
H1212 C1225 0.929 . S
H1213 C1223 0.929 . S
H1214 C1218 0.929 . S
H1215 C1224 0.929 . S
C1216 H1210 0.930 . S
C1216 C1217 1.367 . S
C1216 C1224 1.378 . S
C1217 C1216 1.367 . S
C1217 C1225 1.433 . S
C1218 H1214 0.929 . S
C1218 C1220 1.378 . S
C1218 C1222 1.350 . S
C1219 C1222 1.463 . S
C1219 C1224 1.350 . S
C1219 N1227 1.427 . S
C1220 H1211 0.930 . S
C1220 C1218 1.378 . S
C1220 C1221 1.367 . S
C1221 C1220 1.367 . S
C1221 C1223 1.433 . S
C1222 C1218 1.350 . S
C1222 C1219 1.463 . S
C1222 N1226 1.427 . S
C1223 H1213 0.929 . S
C1223 C1221 1.433 . S
C1223 N1226 1.384 . S
C1224 H1215 0.929 . S
C1224 C1216 1.378 . S
C1224 C1219 1.350 . S
C1225 H1212 0.929 . S
C1225 C1217 1.433 . S
C1225 N1227 1.384 . S
N1226 C1222 1.427 . S
N1226 C1223 1.384 . S
N1227 C1219 1.427 . S
N1227 C1225 1.384 . S
H1228 C1234 0.930 . S
H1229 C1238 0.930 . S
H1230 C1243 0.929 . S
H1231 C1241 0.929 . S
H1232 C1236 0.929 . S
H1233 C1242 0.929 . S
C1234 H1228 0.930 . S
C1234 C1235 1.367 . S
C1234 C1242 1.378 . S
C1235 C1234 1.367 . S
C1235 C1243 1.433 . S
C1236 H1232 0.929 . S
C1236 C1238 1.378 . S
C1236 C1240 1.350 . S
C1237 C1240 1.463 . S
C1237 C1242 1.350 . S
C1237 N1245 1.427 . S
C1238 H1229 0.930 . S
C1238 C1236 1.378 . S
C1238 C1239 1.367 . S
C1239 C1238 1.367 . S
C1239 C1241 1.433 . S
C1240 C1236 1.350 . S
C1240 C1237 1.463 . S
C1240 N1244 1.427 . S
C1241 H1231 0.929 . S
C1241 C1239 1.433 . S
C1241 N1244 1.384 . S
C1242 H1233 0.929 . S
C1242 C1234 1.378 . S
C1242 C1237 1.350 . S
C1243 H1230 0.929 . S
C1243 C1235 1.433 . S
C1243 N1245 1.384 . S
N1244 C1240 1.427 . S
N1244 C1241 1.384 . S
N1245 C1237 1.427 . S
N1245 C1243 1.384 . S
H1246 C1252 0.930 . S
H1247 C1256 0.930 . S
H1248 C1261 0.929 . S
H1249 C1259 0.929 . S
H1250 C1254 0.929 . S
H1251 C1260 0.929 . S
C1252 H1246 0.930 . S
C1252 C1253 1.367 . S
C1252 C1260 1.378 . S
C1253 C1252 1.367 . S
C1253 C1261 1.433 . S
C1254 H1250 0.929 . S
C1254 C1256 1.378 . S
C1254 C1258 1.350 1_556 S
C1255 C1258 1.463 . S
C1255 C1260 1.350 . S
C1255 N1263 1.427 . S
C1256 H1247 0.930 . S
C1256 C1254 1.378 . S
C1256 C1257 1.367 . S
C1257 C1256 1.367 . S
C1257 C1259 1.433 . S
C1258 C1254 1.350 1_554 S
C1258 C1255 1.463 . S
C1258 N1262 1.430 . S
C1259 H1249 0.929 . S
C1259 C1257 1.433 . S
C1259 N1262 1.376 1_556 S
C1260 H1251 0.929 . S
C1260 C1252 1.378 . S
C1260 C1255 1.350 . S
C1261 H1248 0.929 . S
C1261 C1253 1.433 . S
C1261 N1263 1.384 . S
N1262 C1258 1.430 . S
N1262 C1259 1.376 1_554 S
N1263 C1255 1.427 . S
N1263 C1261 1.384 . S
H1264 C1270 0.930 . S
H1265 C1274 0.930 . S
H1266 C1279 0.929 . S
H1267 C1277 0.929 . S
H1268 C1272 0.929 . S
H1269 C1278 0.929 . S
C1270 H1264 0.930 . S
C1270 C1271 1.367 . S
C1270 C1278 1.378 . S
C1271 C1270 1.367 . S
C1271 C1279 1.433 . S
C1272 H1268 0.929 . S
C1272 C1274 1.378 . S
C1272 C1276 1.350 . S
C1273 C1276 1.463 . S
C1273 C1278 1.350 . S
C1273 N1281 1.427 . S
C1274 H1265 0.930 . S
C1274 C1272 1.378 . S
C1274 C1275 1.367 . S
C1275 C1274 1.367 . S
C1275 C1277 1.433 . S
C1276 C1272 1.350 . S
C1276 C1273 1.463 . S
C1276 N1280 1.427 . S
C1277 H1267 0.929 . S
C1277 C1275 1.433 . S
C1277 N1280 1.384 . S
C1278 H1269 0.929 . S
C1278 C1270 1.378 . S
C1278 C1273 1.350 . S
C1279 H1266 0.929 . S
C1279 C1271 1.433 . S
C1279 N1281 1.384 . S
N1280 C1276 1.427 . S
N1280 C1277 1.384 . S
N1281 C1273 1.427 . S
N1281 C1279 1.384 . S
H1282 C1288 0.930 . S
H1283 C1292 0.930 . S
H1284 C1297 0.929 . S
H1285 C1295 0.929 . S
H1286 C1290 0.929 . S
H1287 C1296 0.929 . S
C1288 H1282 0.930 . S
C1288 C1289 1.367 . S
C1288 C1296 1.378 . S
C1289 C1288 1.367 . S
C1289 C1297 1.433 . S
C1290 H1286 0.929 . S
C1290 C1292 1.378 . S
C1290 C1294 1.350 1_545 S
C1291 C1294 1.463 . S
C1291 C1296 1.350 . S
C1291 N1299 1.427 . S
C1292 H1283 0.930 . S
C1292 C1290 1.378 . S
C1292 C1293 1.367 . S
C1293 C1292 1.367 . S
C1293 C1295 1.433 . S
C1294 C1290 1.350 1_565 S
C1294 C1291 1.463 . S
C1294 N1298 1.427 1_565 S
C1295 H1285 0.929 . S
C1295 C1293 1.433 . S
C1295 N1298 1.384 . S
C1296 H1287 0.929 . S
C1296 C1288 1.378 . S
C1296 C1291 1.350 . S
C1297 H1284 0.929 . S
C1297 C1289 1.433 . S
C1297 N1299 1.384 . S
N1298 C1294 1.427 1_545 S
N1298 C1295 1.384 . S
N1299 C1291 1.427 . S
N1299 C1297 1.384 . S
H1300 C1306 0.930 . S
H1301 C1310 0.930 . S
H1302 C1315 0.929 . S
H1303 C1313 0.929 . S
H1304 C1308 0.929 . S
H1305 C1314 0.929 . S
C1306 H1300 0.930 . S
C1306 C1307 1.367 . S
C1306 C1314 1.378 . S
C1307 C1306 1.367 . S
C1307 C1315 1.433 . S
C1308 H1304 0.929 . S
C1308 C1310 1.378 . S
C1308 C1312 1.350 . S
C1309 C1312 1.463 . S
C1309 C1314 1.350 . S
C1309 N1317 1.427 . S
C1310 H1301 0.930 . S
C1310 C1308 1.378 . S
C1310 C1311 1.367 . S
C1311 C1310 1.367 . S
C1311 C1313 1.433 . S
C1312 C1308 1.350 . S
C1312 C1309 1.463 . S
C1312 N1316 1.427 . S
C1313 H1303 0.929 . S
C1313 C1311 1.433 . S
C1313 N1316 1.384 . S
C1314 H1305 0.929 . S
C1314 C1306 1.378 . S
C1314 C1309 1.350 . S
C1315 H1302 0.929 . S
C1315 C1307 1.433 . S
C1315 N1317 1.384 . S
N1316 C1312 1.427 . S
N1316 C1313 1.384 . S
N1317 C1309 1.427 . S
N1317 C1315 1.384 . S
H1318 C1324 0.930 . S
H1319 C1328 0.930 . S
H1320 C1333 0.929 . S
H1321 C1331 0.929 . S
H1322 C1326 0.929 . S
H1323 C1332 0.929 . S
C1324 H1318 0.930 . S
C1324 C1325 1.367 . S
C1324 C1332 1.378 . S
C1325 C1324 1.367 . S
C1325 C1333 1.433 . S
C1326 H1322 0.929 . S
C1326 C1328 1.378 1_545 S
C1326 C1330 1.350 . S
C1327 C1330 1.463 . S
C1327 C1332 1.350 . S
C1327 N1335 1.427 . S
C1328 H1319 0.930 . S
C1328 C1326 1.378 1_565 S
C1328 C1329 1.367 . S
C1329 C1328 1.367 . S
C1329 C1331 1.433 . S
C1330 C1326 1.350 . S
C1330 C1327 1.463 . S
C1330 N1334 1.427 1_545 S
C1331 H1321 0.929 . S
C1331 C1329 1.433 . S
C1331 N1334 1.384 . S
C1332 H1323 0.929 . S
C1332 C1324 1.378 . S
C1332 C1327 1.350 . S
C1333 H1320 0.929 . S
C1333 C1325 1.433 . S
C1333 N1335 1.384 . S
N1334 C1330 1.427 1_565 S
N1334 C1331 1.384 . S
N1335 C1327 1.427 . S
N1335 C1333 1.384 . S
H1336 C1342 0.930 . S
H1337 C1346 0.930 . S
H1338 C1351 0.929 . S
H1339 C1349 0.929 . S
H1340 C1344 0.929 . S
H1341 C1350 0.929 . S
C1342 H1336 0.930 . S
C1342 C1343 1.367 . S
C1342 C1350 1.378 . S
C1343 C1342 1.367 . S
C1343 C1351 1.433 . S
C1344 H1340 0.929 . S
C1344 C1346 1.378 . S
C1344 C1348 1.350 . S
C1345 C1348 1.463 . S
C1345 C1350 1.350 . S
C1345 N1353 1.427 . S
C1346 H1337 0.930 . S
C1346 C1344 1.378 . S
C1346 C1347 1.367 . S
C1347 C1346 1.367 . S
C1347 C1349 1.433 . S
C1348 C1344 1.350 . S
C1348 C1345 1.463 . S
C1348 N1352 1.427 . S
C1349 H1339 0.929 . S
C1349 C1347 1.433 . S
C1349 N1352 1.384 . S
C1350 H1341 0.929 . S
C1350 C1342 1.378 . S
C1350 C1345 1.350 . S
C1351 H1338 0.929 . S
C1351 C1343 1.433 . S
C1351 N1353 1.384 . S
N1352 C1348 1.427 . S
N1352 C1349 1.384 . S
N1353 C1345 1.427 . S
N1353 C1351 1.384 . S
H1354 C1360 0.930 . S
H1355 C1364 0.930 . S
H1356 C1369 0.929 . S
H1357 C1367 0.929 . S
H1358 C1362 0.929 1_565 S
H1359 C1368 0.929 . S
C1360 H1354 0.930 . S
C1360 C1361 1.367 . S
C1360 C1368 1.378 . S
C1361 C1360 1.367 . S
C1361 C1369 1.433 . S
C1362 H1358 0.929 1_545 S
C1362 C1364 1.378 . S
C1362 C1366 1.350 . S
C1363 C1366 1.463 1_565 S
C1363 C1368 1.350 . S
C1363 N1371 1.427 . S
C1364 H1355 0.930 . S
C1364 C1362 1.378 . S
C1364 C1365 1.367 . S
C1365 C1364 1.367 . S
C1365 C1367 1.433 . S
C1366 C1362 1.350 . S
C1366 C1363 1.463 1_545 S
C1366 N1370 1.427 . S
C1367 H1357 0.929 . S
C1367 C1365 1.433 . S
C1367 N1370 1.384 . S
C1368 H1359 0.929 . S
C1368 C1360 1.378 . S
C1368 C1363 1.350 . S
C1369 H1356 0.929 . S
C1369 C1361 1.433 . S
C1369 N1371 1.384 . S
N1370 C1366 1.427 . S
N1370 C1367 1.384 . S
N1371 C1363 1.427 . S
N1371 C1369 1.384 . S
H1372 C1378 0.930 . S
H1373 C1382 0.930 . S
H1374 C1387 0.929 . S
H1375 C1385 0.929 . S
H1376 C1380 0.929 . S
H1377 C1386 0.929 . S
C1378 H1372 0.930 . S
C1378 C1379 1.367 . S
C1378 C1386 1.378 . S
C1379 C1378 1.367 . S
C1379 C1387 1.433 . S
C1380 H1376 0.929 . S
C1380 C1382 1.378 . S
C1380 C1384 1.350 . S
C1381 C1384 1.463 . S
C1381 C1386 1.350 . S
C1381 N1389 1.427 . S
C1382 H1373 0.930 . S
C1382 C1380 1.378 . S
C1382 C1383 1.367 . S
C1383 C1382 1.367 . S
C1383 C1385 1.433 . S
C1384 C1380 1.350 . S
C1384 C1381 1.463 . S
C1384 N1388 1.427 . S
C1385 H1375 0.929 . S
C1385 C1383 1.433 . S
C1385 N1388 1.384 . S
C1386 H1377 0.929 . S
C1386 C1378 1.378 . S
C1386 C1381 1.350 . S
C1387 H1374 0.929 . S
C1387 C1379 1.433 . S
C1387 N1389 1.384 . S
N1388 C1384 1.427 . S
N1388 C1385 1.384 . S
N1389 C1381 1.427 . S
N1389 C1387 1.384 . S
H1390 C1396 0.930 . S
H1391 C1400 0.930 . S
H1392 C1405 0.927 1_554 S
H1393 C1403 0.929 . S
H1394 C1398 0.929 . S
H1395 C1404 0.929 . S
C1396 H1390 0.930 . S
C1396 C1397 1.367 . S
C1396 C1404 1.378 . S
C1397 C1396 1.367 . S
C1397 C1405 1.433 . S
C1398 H1394 0.929 . S
C1398 C1400 1.378 . S
C1398 C1402 1.350 1_565 S
C1399 C1402 1.463 . S
C1399 C1404 1.350 . S
C1399 N1407 1.427 . S
C1400 H1391 0.930 . S
C1400 C1398 1.378 . S
C1400 C1401 1.367 . S
C1401 C1400 1.367 . S
C1401 C1403 1.433 . S
C1402 C1398 1.350 1_545 S
C1402 C1399 1.463 . S
C1402 N1406 1.427 . S
C1403 H1393 0.929 . S
C1403 C1401 1.433 . S
C1403 N1406 1.384 1_565 S
C1404 H1395 0.929 . S
C1404 C1396 1.378 . S
C1404 C1399 1.350 . S
C1405 H1392 0.927 1_556 S
C1405 C1397 1.433 . S
C1405 N1407 1.384 . S
N1406 C1402 1.427 . S
N1406 C1403 1.384 1_545 S
N1407 C1399 1.427 . S
N1407 C1405 1.384 . S
H1408 C1414 0.930 . S
H1409 C1418 0.930 . S
H1410 C1423 0.929 . S
H1411 C1421 0.929 . S
H1412 C1416 0.929 . S
H1413 C1422 0.929 . S
C1414 H1408 0.930 . S
C1414 C1415 1.367 . S
C1414 C1422 1.378 . S
C1415 C1414 1.367 . S
C1415 C1423 1.433 . S
C1416 H1412 0.929 . S
C1416 C1418 1.378 . S
C1416 C1420 1.350 . S
C1417 C1420 1.463 . S
C1417 C1422 1.350 . S
C1417 N1425 1.427 . S
C1418 H1409 0.930 . S
C1418 C1416 1.378 . S
C1418 C1419 1.367 . S
C1419 C1418 1.367 . S
C1419 C1421 1.433 . S
C1420 C1416 1.350 . S
C1420 C1417 1.463 . S
C1420 N1424 1.427 . S
C1421 H1411 0.929 . S
C1421 C1419 1.433 . S
C1421 N1424 1.384 . S
C1422 H1413 0.929 . S
C1422 C1414 1.378 . S
C1422 C1417 1.350 . S
C1423 H1410 0.929 . S
C1423 C1415 1.433 . S
C1423 N1425 1.384 . S
N1424 C1420 1.427 . S
N1424 C1421 1.384 . S
N1425 C1417 1.427 . S
N1425 C1423 1.384 . S
H1426 C1432 0.930 . S
H1427 C1436 0.930 . S
H1428 C1441 0.929 . S
H1429 C1439 0.929 . S
H1430 C1434 0.929 . S
H1431 C1440 0.929 . S
C1432 H1426 0.930 . S
C1432 C1433 1.367 . S
C1432 C1440 1.378 . S
C1433 C1432 1.367 . S
C1433 C1441 1.433 . S
C1434 H1430 0.929 . S
C1434 C1436 1.378 . S
C1434 C1438 1.350 . S
C1435 C1438 1.463 . S
C1435 C1440 1.350 . S
C1435 N1443 1.427 . S
C1436 H1427 0.930 . S
C1436 C1434 1.378 . S
C1436 C1437 1.367 . S
C1437 C1436 1.367 . S
C1437 C1439 1.433 . S
C1438 C1434 1.350 . S
C1438 C1435 1.463 . S
C1438 N1442 1.427 . S
C1439 H1429 0.929 . S
C1439 C1437 1.433 . S
C1439 N1442 1.384 . S
C1440 H1431 0.929 . S
C1440 C1432 1.378 . S
C1440 C1435 1.350 . S
C1441 H1428 0.929 . S
C1441 C1433 1.433 . S
C1441 N1443 1.384 . S
N1442 C1438 1.427 . S
N1442 C1439 1.384 . S
N1443 C1435 1.427 . S
N1443 C1441 1.384 . S
H1444 C1450 0.930 . S
H1445 C1454 0.930 . S
H1446 C1459 0.929 . S
H1447 C1457 0.929 . S
H1448 C1452 0.929 . S
H1449 C1458 0.929 . S
C1450 H1444 0.930 . S
C1450 C1451 1.367 . S
C1450 C1458 1.378 . S
C1451 C1450 1.367 . S
C1451 C1459 1.433 . S
C1452 H1448 0.929 . S
C1452 C1454 1.378 1_655 S
C1452 C1456 1.350 . S
C1453 C1456 1.463 . S
C1453 C1458 1.350 . S
C1453 N1461 1.427 . S
C1454 H1445 0.930 . S
C1454 C1452 1.378 1_455 S
C1454 C1455 1.367 . S
C1455 C1454 1.367 . S
C1455 C1457 1.433 . S
C1456 C1452 1.350 . S
C1456 C1453 1.463 . S
C1456 N1460 1.427 1_655 S
C1457 H1447 0.929 . S
C1457 C1455 1.433 . S
C1457 N1460 1.384 . S
C1458 H1449 0.929 . S
C1458 C1450 1.378 . S
C1458 C1453 1.350 . S
C1459 H1446 0.929 . S
C1459 C1451 1.433 . S
C1459 N1461 1.384 . S
N1460 C1456 1.427 1_455 S
N1460 C1457 1.384 . S
N1461 C1453 1.427 . S
N1461 C1459 1.384 . S
H1462 C1468 0.930 . S
H1463 C1472 0.930 . S
H1464 C1477 0.929 . S
H1465 C1475 0.929 . S
H1466 C1470 0.929 . S
H1467 C1476 0.929 . S
C1468 H1462 0.930 . S
C1468 C1469 1.367 . S
C1468 C1476 1.378 . S
C1469 C1468 1.367 . S
C1469 C1477 1.433 . S
C1470 H1466 0.929 . S
C1470 C1472 1.378 . S
C1470 C1474 1.350 . S
C1471 C1474 1.463 . S
C1471 C1476 1.350 . S
C1471 N1479 1.427 . S
C1472 H1463 0.930 . S
C1472 C1470 1.378 . S
C1472 C1473 1.367 . S
C1473 C1472 1.367 . S
C1473 C1475 1.433 . S
C1474 C1470 1.350 . S
C1474 C1471 1.463 . S
C1474 N1478 1.427 . S
C1475 H1465 0.929 . S
C1475 C1473 1.433 . S
C1475 N1478 1.384 . S
C1476 H1467 0.929 . S
C1476 C1468 1.378 . S
C1476 C1471 1.350 . S
C1477 H1464 0.929 . S
C1477 C1469 1.433 . S
C1477 N1479 1.384 . S
N1478 C1474 1.427 . S
N1478 C1475 1.384 . S
N1479 C1471 1.427 . S
N1479 C1477 1.384 . S
H1480 C1486 0.930 . S
H1481 C1490 0.930 . S
H1482 C1495 0.929 . S
H1483 C1493 0.929 . S
H1484 C1488 0.929 . S
H1485 C1494 0.929 . S
C1486 H1480 0.930 . S
C1486 C1487 1.367 . S
C1486 C1494 1.378 . S
C1487 C1486 1.367 . S
C1487 C1495 1.433 . S
C1488 H1484 0.929 . S
C1488 C1490 1.378 . S
C1488 C1492 1.350 1_655 S
C1489 C1492 1.463 . S
C1489 C1494 1.350 . S
C1489 N1497 1.427 . S
C1490 H1481 0.930 . S
C1490 C1488 1.378 . S
C1490 C1491 1.367 . S
C1491 C1490 1.367 . S
C1491 C1493 1.433 . S
C1492 C1488 1.350 1_455 S
C1492 C1489 1.463 . S
C1492 N1496 1.418 1_455 S
C1493 H1483 0.929 . S
C1493 C1491 1.433 . S
C1493 N1496 1.415 . S
C1494 H1485 0.929 . S
C1494 C1486 1.378 . S
C1494 C1489 1.350 . S
C1495 H1482 0.929 . S
C1495 C1487 1.433 . S
C1495 N1497 1.384 . S
N1496 C1492 1.418 1_655 S
N1496 C1493 1.415 . S
N1497 C1489 1.427 . S
N1497 C1495 1.384 . S
H1498 C1504 0.930 . S
H1499 C1508 0.930 . S
H1500 C1513 0.929 . S
H1501 C1511 0.929 . S
H1502 C1506 0.929 . S
H1503 C1512 0.929 . S
C1504 H1498 0.930 . S
C1504 C1505 1.367 . S
C1504 C1512 1.378 . S
C1505 C1504 1.367 . S
C1505 C1513 1.433 . S
C1506 H1502 0.929 . S
C1506 C1508 1.378 . S
C1506 C1510 1.350 . S
C1507 C1510 1.463 . S
C1507 C1512 1.350 . S
C1507 N1515 1.427 . S
C1508 H1499 0.930 . S
C1508 C1506 1.378 . S
C1508 C1509 1.367 . S
C1509 C1508 1.367 . S
C1509 C1511 1.433 . S
C1510 C1506 1.350 . S
C1510 C1507 1.463 . S
C1510 N1514 1.427 . S
C1511 H1501 0.929 . S
C1511 C1509 1.433 . S
C1511 N1514 1.384 . S
C1512 H1503 0.929 . S
C1512 C1504 1.378 . S
C1512 C1507 1.350 . S
C1513 H1500 0.929 . S
C1513 C1505 1.433 . S
C1513 N1515 1.384 . S
N1514 C1510 1.427 . S
N1514 C1511 1.384 . S
N1515 C1507 1.427 . S
N1515 C1513 1.384 . S
H1516 C1522 0.930 . S
H1517 C1526 0.930 . S
H1518 C1531 0.929 . S
H1519 C1529 0.929 . S
H1520 C1524 0.929 . S
H1521 C1530 0.929 . S
C1522 H1516 0.930 . S
C1522 C1523 1.367 . S
C1522 C1530 1.378 . S
C1523 C1522 1.367 . S
C1523 C1531 1.433 . S
C1524 H1520 0.929 . S
C1524 C1526 1.378 . S
C1524 C1528 1.318 1_455 S
C1525 C1528 1.496 . S
C1525 C1530 1.350 . S
C1525 N1533 1.427 . S
C1526 H1517 0.930 . S
C1526 C1524 1.378 . S
C1526 C1527 1.367 . S
C1527 C1526 1.367 . S
C1527 C1529 1.433 . S
C1528 C1524 1.318 1_655 S
C1528 C1525 1.496 . S
C1528 N1532 1.429 . S
C1529 H1519 0.929 . S
C1529 C1527 1.433 . S
C1529 N1532 1.384 1_455 S
C1530 H1521 0.929 . S
C1530 C1522 1.378 . S
C1530 C1525 1.350 . S
C1531 H1518 0.929 . S
C1531 C1523 1.433 . S
C1531 N1533 1.384 . S
N1532 C1528 1.429 . S
N1532 C1529 1.384 1_655 S
N1533 C1525 1.427 . S
N1533 C1531 1.384 . S
H1534 C1540 0.930 . S
H1535 C1544 0.930 . S
H1536 C1549 0.929 . S
H1537 C1547 0.929 . S
H1538 C1542 0.929 . S
H1539 C1548 0.929 . S
C1540 H1534 0.930 . S
C1540 C1541 1.367 . S
C1540 C1548 1.378 . S
C1541 C1540 1.367 . S
C1541 C1549 1.433 . S
C1542 H1538 0.929 . S
C1542 C1544 1.378 . S
C1542 C1546 1.350 . S
C1543 C1546 1.463 . S
C1543 C1548 1.350 . S
C1543 N1551 1.427 . S
C1544 H1535 0.930 . S
C1544 C1542 1.378 . S
C1544 C1545 1.367 . S
C1545 C1544 1.367 . S
C1545 C1547 1.433 . S
C1546 C1542 1.350 . S
C1546 C1543 1.463 . S
C1546 N1550 1.427 . S
C1547 H1537 0.929 . S
C1547 C1545 1.433 . S
C1547 N1550 1.384 . S
C1548 H1539 0.929 . S
C1548 C1540 1.378 . S
C1548 C1543 1.350 . S
C1549 H1536 0.929 . S
C1549 C1541 1.433 . S
C1549 N1551 1.384 . S
N1550 C1546 1.427 . S
N1550 C1547 1.384 . S
N1551 C1543 1.427 . S
N1551 C1549 1.384 . S
H1552 C1558 0.930 . S
H1553 C1562 0.930 . S
H1554 C1567 0.929 . S
H1555 C1565 0.929 . S
H1556 C1560 0.929 . S
H1557 C1566 0.929 . S
C1558 H1552 0.930 . S
C1558 C1559 1.367 . S
C1558 C1566 1.378 . S
C1559 C1558 1.367 . S
C1559 C1567 1.433 . S
C1560 H1556 0.929 . S
C1560 C1562 1.378 . S
C1560 C1564 1.350 . S
C1561 C1564 1.463 . S
C1561 C1566 1.350 . S
C1561 N1569 1.427 . S
C1562 H1553 0.930 . S
C1562 C1560 1.378 . S
C1562 C1563 1.367 . S
C1563 C1562 1.367 . S
C1563 C1565 1.433 . S
C1564 C1560 1.350 . S
C1564 C1561 1.463 . S
C1564 N1568 1.427 . S
C1565 H1555 0.929 . S
C1565 C1563 1.433 . S
C1565 N1568 1.384 . S
C1566 H1557 0.929 . S
C1566 C1558 1.378 . S
C1566 C1561 1.350 . S
C1567 H1554 0.929 . S
C1567 C1559 1.433 . S
C1567 N1569 1.384 . S
N1568 C1564 1.427 . S
N1568 C1565 1.384 . S
N1569 C1561 1.427 . S
N1569 C1567 1.384 . S
H1570 C1576 0.930 . S
H1571 C1580 0.930 . S
H1572 C1585 0.929 . S
H1573 C1583 0.929 . S
H1574 C1578 0.929 . S
H1575 C1584 0.929 . S
C1576 H1570 0.930 . S
C1576 C1577 1.367 . S
C1576 C1584 1.378 . S
C1577 C1576 1.367 . S
C1577 C1585 1.433 . S
C1578 H1574 0.929 . S
C1578 C1580 1.378 1_554 S
C1578 C1582 1.350 . S
C1579 C1582 1.463 . S
C1579 C1584 1.350 . S
C1579 N1587 1.427 . S
C1580 H1571 0.930 . S
C1580 C1578 1.378 1_556 S
C1580 C1581 1.367 . S
C1581 C1580 1.367 . S
C1581 C1583 1.433 . S
C1582 C1578 1.350 . S
C1582 C1579 1.463 . S
C1582 N1586 1.427 1_554 S
C1583 H1573 0.929 . S
C1583 C1581 1.433 . S
C1583 N1586 1.384 . S
C1584 H1575 0.929 . S
C1584 C1576 1.378 . S
C1584 C1579 1.350 . S
C1585 H1572 0.929 . S
C1585 C1577 1.433 . S
C1585 N1587 1.384 . S
N1586 C1582 1.427 1_556 S
N1586 C1583 1.384 . S
N1587 C1579 1.427 . S
N1587 C1585 1.384 . S
H1588 C1594 0.930 . S
H1589 C1598 0.930 . S
H1590 C1603 0.929 . S
H1591 C1601 0.929 . S
H1592 C1596 0.929 . S
H1593 C1602 0.929 . S
C1594 H1588 0.930 . S
C1594 C1595 1.367 . S
C1594 C1602 1.378 . S
C1595 C1594 1.367 . S
C1595 C1603 1.433 . S
C1596 H1592 0.929 . S
C1596 C1598 1.378 . S
C1596 C1600 1.350 . S
C1597 C1600 1.463 . S
C1597 C1602 1.350 . S
C1597 N1605 1.427 . S
C1598 H1589 0.930 . S
C1598 C1596 1.378 . S
C1598 C1599 1.367 . S
C1599 C1598 1.367 . S
C1599 C1601 1.433 . S
C1600 C1596 1.350 . S
C1600 C1597 1.463 . S
C1600 N1604 1.427 . S
C1601 H1591 0.929 . S
C1601 C1599 1.433 . S
C1601 N1604 1.384 . S
C1602 H1593 0.929 . S
C1602 C1594 1.378 . S
C1602 C1597 1.350 . S
C1603 H1590 0.929 . S
C1603 C1595 1.433 . S
C1603 N1605 1.384 . S
N1604 C1600 1.427 . S
N1604 C1601 1.384 . S
N1605 C1597 1.427 . S
N1605 C1603 1.384 . S
H1606 C1612 0.930 . S
H1607 C1616 0.930 . S
H1608 C1621 0.929 . S
H1609 C1619 0.929 . S
H1610 C1614 0.929 . S
H1611 C1620 0.929 . S
C1612 H1606 0.930 . S
C1612 C1613 1.367 . S
C1612 C1620 1.378 . S
C1613 C1612 1.367 . S
C1613 C1621 1.433 . S
C1614 H1610 0.929 . S
C1614 C1616 1.378 . S
C1614 C1618 1.350 . S
C1615 C1618 1.463 . S
C1615 C1620 1.350 . S
C1615 N1623 1.427 . S
C1616 H1607 0.930 . S
C1616 C1614 1.378 . S
C1616 C1617 1.367 . S
C1617 C1616 1.367 . S
C1617 C1619 1.433 . S
C1618 C1614 1.350 . S
C1618 C1615 1.463 . S
C1618 N1622 1.427 . S
C1619 H1609 0.929 . S
C1619 C1617 1.433 . S
C1619 N1622 1.384 . S
C1620 H1611 0.929 . S
C1620 C1612 1.378 . S
C1620 C1615 1.350 . S
C1621 H1608 0.929 . S
C1621 C1613 1.433 . S
C1621 N1623 1.384 . S
N1622 C1618 1.427 . S
N1622 C1619 1.384 . S
N1623 C1615 1.427 . S
N1623 C1621 1.384 . S
H1624 C1630 0.930 . S
H1625 C1634 0.930 . S
H1626 C1639 0.929 . S
H1627 C1637 0.929 . S
H1628 C1632 0.929 . S
H1629 C1638 0.929 . S
C1630 H1624 0.930 . S
C1630 C1631 1.367 . S
C1630 C1638 1.378 . S
C1631 C1630 1.367 . S
C1631 C1639 1.433 . S
C1632 H1628 0.929 . S
C1632 C1634 1.378 . S
C1632 C1636 1.350 . S
C1633 C1636 1.463 . S
C1633 C1638 1.350 . S
C1633 N1641 1.427 . S
C1634 H1625 0.930 . S
C1634 C1632 1.378 . S
C1634 C1635 1.367 . S
C1635 C1634 1.367 . S
C1635 C1637 1.433 . S
C1636 C1632 1.350 . S
C1636 C1633 1.463 . S
C1636 N1640 1.427 . S
C1637 H1627 0.929 . S
C1637 C1635 1.433 . S
C1637 N1640 1.384 . S
C1638 H1629 0.929 . S
C1638 C1630 1.378 . S
C1638 C1633 1.350 . S
C1639 H1626 0.929 . S
C1639 C1631 1.433 . S
C1639 N1641 1.384 . S
N1640 C1636 1.427 . S
N1640 C1637 1.384 . S
N1641 C1633 1.427 . S
N1641 C1639 1.384 . S
H1642 C1648 0.930 . S
H1643 C1652 0.930 . S
H1644 C1657 0.929 . S
H1645 C1655 0.929 . S
H1646 C1650 0.929 . S
H1647 C1656 0.929 . S
C1648 H1642 0.930 . S
C1648 C1649 1.367 . S
C1648 C1656 1.378 . S
C1649 C1648 1.367 . S
C1649 C1657 1.433 . S
C1650 H1646 0.929 . S
C1650 C1652 1.378 . S
C1650 C1654 1.350 . S
C1651 C1654 1.463 1_556 S
C1651 C1656 1.350 . S
C1651 N1659 1.427 . S
C1652 H1643 0.930 . S
C1652 C1650 1.378 . S
C1652 C1653 1.367 . S
C1653 C1652 1.367 . S
C1653 C1655 1.433 . S
C1654 C1650 1.350 . S
C1654 C1651 1.463 1_554 S
C1654 N1658 1.427 1_554 S
C1655 H1645 0.929 . S
C1655 C1653 1.433 . S
C1655 N1658 1.384 1_554 S
C1656 H1647 0.929 . S
C1656 C1648 1.378 . S
C1656 C1651 1.350 . S
C1657 H1644 0.929 . S
C1657 C1649 1.433 . S
C1657 N1659 1.384 . S
N1658 C1654 1.427 1_556 S
N1658 C1655 1.384 1_556 S
N1659 C1651 1.427 . S
N1659 C1657 1.384 . S
H1660 C1666 0.930 . S
H1661 C1670 0.930 . S
H1662 C1675 0.929 . S
H1663 C1673 0.929 . S
H1664 C1668 0.929 . S
H1665 C1674 0.929 . S
C1666 H1660 0.930 . S
C1666 C1667 1.367 . S
C1666 C1674 1.378 . S
C1667 C1666 1.367 . S
C1667 C1675 1.433 . S
C1668 H1664 0.929 . S
C1668 C1670 1.378 . S
C1668 C1672 1.350 . S
C1669 C1672 1.463 . S
C1669 C1674 1.350 . S
C1669 N1677 1.427 . S
C1670 H1661 0.930 . S
C1670 C1668 1.378 . S
C1670 C1671 1.367 . S
C1671 C1670 1.367 . S
C1671 C1673 1.433 . S
C1672 C1668 1.350 . S
C1672 C1669 1.463 . S
C1672 N1676 1.427 . S
C1673 H1663 0.929 . S
C1673 C1671 1.433 . S
C1673 N1676 1.384 . S
C1674 H1665 0.929 . S
C1674 C1666 1.378 . S
C1674 C1669 1.350 . S
C1675 H1662 0.929 . S
C1675 C1667 1.433 . S
C1675 N1677 1.384 . S
N1676 C1672 1.427 . S
N1676 C1673 1.384 . S
N1677 C1669 1.427 . S
N1677 C1675 1.384 . S
H1678 C1684 0.930 . S
H1679 C1688 0.930 . S
H1680 C1693 0.929 . S
H1681 C1691 0.929 . S
H1682 C1686 0.929 . S
H1683 C1692 0.929 . S
C1684 H1678 0.930 . S
C1684 C1685 1.367 . S
C1684 C1692 1.378 . S
C1685 C1684 1.367 . S
C1685 C1693 1.433 . S
C1686 H1682 0.929 . S
C1686 C1688 1.378 . S
C1686 C1690 1.350 . S
C1687 C1690 1.463 . S
C1687 C1692 1.350 . S
C1687 N1695 1.427 . S
C1688 H1679 0.930 . S
C1688 C1686 1.378 . S
C1688 C1689 1.367 . S
C1689 C1688 1.367 . S
C1689 C1691 1.433 . S
C1690 C1686 1.350 . S
C1690 C1687 1.463 . S
C1690 N1694 1.427 . S
C1691 H1681 0.929 . S
C1691 C1689 1.433 . S
C1691 N1694 1.384 . S
C1692 H1683 0.929 . S
C1692 C1684 1.378 . S
C1692 C1687 1.350 . S
C1693 H1680 0.929 . S
C1693 C1685 1.433 . S
C1693 N1695 1.384 . S
N1694 C1690 1.427 . S
N1694 C1691 1.384 . S
N1695 C1687 1.427 . S
N1695 C1693 1.384 . S
H1696 C1702 0.930 . S
H1697 C1706 0.930 . S
H1698 C1711 0.929 . S
H1699 C1709 0.929 . S
H1700 C1704 0.929 . S
H1701 C1710 0.929 . S
C1702 H1696 0.930 . S
C1702 C1703 1.367 . S
C1702 C1710 1.378 . S
C1703 C1702 1.367 . S
C1703 C1711 1.433 . S
C1704 H1700 0.929 . S
C1704 C1706 1.378 . S
C1704 C1708 1.350 . S
C1705 C1708 1.463 . S
C1705 C1710 1.350 . S
C1705 N1713 1.427 . S
C1706 H1697 0.930 . S
C1706 C1704 1.378 . S
C1706 C1707 1.367 . S
C1707 C1706 1.367 . S
C1707 C1709 1.433 . S
C1708 C1704 1.350 . S
C1708 C1705 1.463 . S
C1708 N1712 1.427 . S
C1709 H1699 0.929 . S
C1709 C1707 1.433 . S
C1709 N1712 1.384 . S
C1710 H1701 0.929 . S
C1710 C1702 1.378 . S
C1710 C1705 1.350 . S
C1711 H1698 0.929 . S
C1711 C1703 1.433 . S
C1711 N1713 1.384 . S
N1712 C1708 1.427 . S
N1712 C1709 1.384 . S
N1713 C1705 1.427 . S
N1713 C1711 1.384 . S
H1714 C1720 0.930 . S
H1715 C1724 0.930 . S
H1716 C1729 0.929 . S
H1717 C1727 0.929 . S
H1718 C1722 0.929 . S
H1719 C1728 0.929 . S
C1720 H1714 0.930 . S
C1720 C1721 1.367 . S
C1720 C1728 1.378 . S
C1721 C1720 1.367 . S
C1721 C1729 1.433 . S
C1722 H1718 0.929 . S
C1722 C1724 1.378 . S
C1722 C1726 1.350 . S
C1723 C1726 1.463 . S
C1723 C1728 1.350 . S
C1723 N1731 1.427 . S
C1724 H1715 0.930 . S
C1724 C1722 1.378 . S
C1724 C1725 1.367 . S
C1725 C1724 1.367 . S
C1725 C1727 1.433 . S
C1726 C1722 1.350 . S
C1726 C1723 1.463 . S
C1726 N1730 1.427 . S
C1727 H1717 0.929 . S
C1727 C1725 1.433 . S
C1727 N1730 1.384 . S
C1728 H1719 0.929 . S
C1728 C1720 1.378 . S
C1728 C1723 1.350 . S
C1729 H1716 0.929 . S
C1729 C1721 1.433 . S
C1729 N1731 1.384 . S
N1730 C1726 1.427 . S
N1730 C1727 1.384 . S
N1731 C1723 1.427 . S
N1731 C1729 1.384 . S
H1732 C1738 0.930 . S
H1733 C1742 0.930 . S
H1734 C1747 0.929 . S
H1735 C1745 0.929 . S
H1736 C1740 0.929 . S
H1737 C1746 0.929 . S
C1738 H1732 0.930 . S
C1738 C1739 1.367 . S
C1738 C1746 1.378 . S
C1739 C1738 1.367 . S
C1739 C1747 1.433 . S
C1740 H1736 0.929 . S
C1740 C1742 1.378 . S
C1740 C1744 1.350 . S
C1741 C1744 1.463 . S
C1741 C1746 1.350 . S
C1741 N1749 1.427 . S
C1742 H1733 0.930 . S
C1742 C1740 1.378 . S
C1742 C1743 1.367 . S
C1743 C1742 1.367 . S
C1743 C1745 1.433 . S
C1744 C1740 1.350 . S
C1744 C1741 1.463 . S
C1744 N1748 1.427 . S
C1745 H1735 0.929 . S
C1745 C1743 1.433 . S
C1745 N1748 1.384 . S
C1746 H1737 0.929 . S
C1746 C1738 1.378 . S
C1746 C1741 1.350 . S
C1747 H1734 0.929 . S
C1747 C1739 1.433 . S
C1747 N1749 1.384 . S
N1748 C1744 1.427 . S
N1748 C1745 1.384 . S
N1749 C1741 1.427 . S
N1749 C1747 1.384 . S
H1750 C1756 0.930 . S
H1751 C1760 0.930 . S
H1752 C1765 0.929 . S
H1753 C1763 0.929 . S
H1754 C1758 0.929 . S
H1755 C1764 0.929 . S
C1756 H1750 0.930 . S
C1756 C1757 1.367 . S
C1756 C1764 1.378 . S
C1757 C1756 1.367 . S
C1757 C1765 1.433 . S
C1758 H1754 0.929 . S
C1758 C1760 1.378 . S
C1758 C1762 1.350 . S
C1759 C1762 1.463 . S
C1759 C1764 1.350 . S
C1759 N1767 1.427 . S
C1760 H1751 0.930 . S
C1760 C1758 1.378 . S
C1760 C1761 1.367 . S
C1761 C1760 1.367 . S
C1761 C1763 1.433 . S
C1762 C1758 1.350 . S
C1762 C1759 1.463 . S
C1762 N1766 1.427 . S
C1763 H1753 0.929 . S
C1763 C1761 1.433 . S
C1763 N1766 1.384 . S
C1764 H1755 0.929 . S
C1764 C1756 1.378 . S
C1764 C1759 1.350 . S
C1765 H1752 0.929 . S
C1765 C1757 1.433 . S
C1765 N1767 1.384 . S
N1766 C1762 1.427 . S
N1766 C1763 1.384 . S
N1767 C1759 1.427 . S
N1767 C1765 1.384 . S
H1768 C1774 0.930 . S
H1769 C1778 0.930 . S
H1770 C1783 0.929 . S
H1771 C1781 0.929 . S
H1772 C1776 0.929 . S
H1773 C1782 0.929 . S
C1774 H1768 0.930 . S
C1774 C1775 1.367 . S
C1774 C1782 1.378 . S
C1775 C1774 1.367 . S
C1775 C1783 1.433 . S
C1776 H1772 0.929 . S
C1776 C1778 1.378 . S
C1776 C1780 1.350 . S
C1777 C1780 1.463 . S
C1777 C1782 1.350 . S
C1777 N1785 1.427 . S
C1778 H1769 0.930 . S
C1778 C1776 1.378 . S
C1778 C1779 1.367 . S
C1779 C1778 1.367 . S
C1779 C1781 1.433 . S
C1780 C1776 1.350 . S
C1780 C1777 1.463 . S
C1780 N1784 1.427 . S
C1781 H1771 0.929 . S
C1781 C1779 1.433 . S
C1781 N1784 1.384 . S
C1782 H1773 0.929 . S
C1782 C1774 1.378 . S
C1782 C1777 1.350 . S
C1783 H1770 0.929 . S
C1783 C1775 1.433 . S
C1783 N1785 1.384 . S
N1784 C1780 1.427 . S
N1784 C1781 1.384 . S
N1785 C1777 1.427 . S
N1785 C1783 1.384 . S
H1786 C1792 0.930 . S
H1787 C1796 0.930 . S
H1788 C1801 0.929 . S
H1789 C1799 0.929 . S
H1790 C1794 0.929 . S
H1791 C1800 0.929 . S
C1792 H1786 0.930 . S
C1792 C1793 1.367 . S
C1792 C1800 1.378 . S
C1793 C1792 1.367 . S
C1793 C1801 1.433 . S
C1794 H1790 0.929 . S
C1794 C1796 1.378 . S
C1794 C1798 1.350 . S
C1795 C1798 1.463 . S
C1795 C1800 1.350 . S
C1795 N1803 1.427 . S
C1796 H1787 0.930 . S
C1796 C1794 1.378 . S
C1796 C1797 1.367 . S
C1797 C1796 1.367 . S
C1797 C1799 1.433 . S
C1798 C1794 1.350 . S
C1798 C1795 1.463 . S
C1798 N1802 1.427 . S
C1799 H1789 0.929 . S
C1799 C1797 1.433 . S
C1799 N1802 1.384 . S
C1800 H1791 0.929 . S
C1800 C1792 1.378 . S
C1800 C1795 1.350 . S
C1801 H1788 0.929 . S
C1801 C1793 1.433 . S
C1801 N1803 1.384 . S
N1802 C1798 1.427 . S
N1802 C1799 1.384 . S
N1803 C1795 1.427 . S
N1803 C1801 1.384 . S
H1804 C1810 0.930 . S
H1805 C1814 0.930 . S
H1806 C1819 0.929 . S
H1807 C1817 0.929 . S
H1808 C1812 0.929 . S
H1809 C1818 0.929 . S
C1810 H1804 0.930 . S
C1810 C1811 1.367 . S
C1810 C1818 1.378 . S
C1811 C1810 1.367 . S
C1811 C1819 1.433 . S
C1812 H1808 0.929 . S
C1812 C1814 1.378 . S
C1812 C1816 1.350 . S
C1813 C1816 1.463 . S
C1813 C1818 1.350 . S
C1813 N1821 1.427 . S
C1814 H1805 0.930 . S
C1814 C1812 1.378 . S
C1814 C1815 1.367 . S
C1815 C1814 1.367 . S
C1815 C1817 1.433 . S
C1816 C1812 1.350 . S
C1816 C1813 1.463 . S
C1816 N1820 1.427 . S
C1817 H1807 0.929 . S
C1817 C1815 1.433 . S
C1817 N1820 1.384 . S
C1818 H1809 0.929 . S
C1818 C1810 1.378 . S
C1818 C1813 1.350 . S
C1819 H1806 0.929 . S
C1819 C1811 1.433 . S
C1819 N1821 1.384 . S
N1820 C1816 1.427 . S
N1820 C1817 1.384 . S
N1821 C1813 1.427 . S
N1821 C1819 1.384 . S
H1822 C1828 0.930 . S
H1823 C1832 0.930 . S
H1824 C1837 0.929 . S
H1825 C1835 0.929 . S
H1826 C1830 0.929 . S
H1827 C1836 0.929 . S
C1828 H1822 0.930 . S
C1828 C1829 1.367 . S
C1828 C1836 1.378 . S
C1829 C1828 1.367 . S
C1829 C1837 1.433 . S
C1830 H1826 0.929 . S
C1830 C1832 1.378 . S
C1830 C1834 1.350 . S
C1831 C1834 1.463 . S
C1831 C1836 1.350 . S
C1831 N1839 1.427 . S
C1832 H1823 0.930 . S
C1832 C1830 1.378 . S
C1832 C1833 1.367 . S
C1833 C1832 1.367 . S
C1833 C1835 1.433 . S
C1834 C1830 1.350 . S
C1834 C1831 1.463 . S
C1834 N1838 1.427 . S
C1835 H1825 0.929 . S
C1835 C1833 1.433 . S
C1835 N1838 1.384 . S
C1836 H1827 0.929 . S
C1836 C1828 1.378 . S
C1836 C1831 1.350 . S
C1837 H1824 0.929 . S
C1837 C1829 1.433 . S
C1837 N1839 1.384 . S
N1838 C1834 1.427 . S
N1838 C1835 1.384 . S
N1839 C1831 1.427 . S
N1839 C1837 1.384 . S
H1840 C1846 0.930 . S
H1841 C1850 0.930 . S
H1842 C1855 0.929 . S
H1843 C1853 0.929 . S
H1844 C1848 0.929 . S
H1845 C1854 0.929 . S
C1846 H1840 0.930 . S
C1846 C1847 1.367 . S
C1846 C1854 1.378 . S
C1847 C1846 1.367 . S
C1847 C1855 1.433 . S
C1848 H1844 0.929 . S
C1848 C1850 1.378 . S
C1848 C1852 1.350 . S
C1849 C1852 1.463 . S
C1849 C1854 1.350 . S
C1849 N1857 1.427 . S
C1850 H1841 0.930 . S
C1850 C1848 1.378 . S
C1850 C1851 1.367 . S
C1851 C1850 1.367 . S
C1851 C1853 1.433 . S
C1852 C1848 1.350 . S
C1852 C1849 1.463 . S
C1852 N1856 1.427 . S
C1853 H1843 0.929 . S
C1853 C1851 1.433 . S
C1853 N1856 1.384 . S
C1854 H1845 0.929 . S
C1854 C1846 1.378 . S
C1854 C1849 1.350 . S
C1855 H1842 0.929 . S
C1855 C1847 1.433 . S
C1855 N1857 1.384 . S
N1856 C1852 1.427 . S
N1856 C1853 1.384 . S
N1857 C1849 1.427 . S
N1857 C1855 1.384 . S
H1858 C1864 0.930 . S
H1859 C1868 0.930 . S
H1860 C1873 0.929 . S
H1861 C1871 0.929 . S
H1862 C1866 0.929 . S
H1863 C1872 0.929 . S
C1864 H1858 0.930 . S
C1864 C1865 1.367 . S
C1864 C1872 1.378 . S
C1865 C1864 1.367 . S
C1865 C1873 1.433 . S
C1866 H1862 0.929 . S
C1866 C1868 1.378 . S
C1866 C1870 1.350 . S
C1867 C1870 1.463 . S
C1867 C1872 1.350 . S
C1867 N1875 1.427 . S
C1868 H1859 0.930 . S
C1868 C1866 1.378 . S
C1868 C1869 1.367 . S
C1869 C1868 1.367 . S
C1869 C1871 1.433 . S
C1870 C1866 1.350 . S
C1870 C1867 1.463 . S
C1870 N1874 1.427 . S
C1871 H1861 0.929 . S
C1871 C1869 1.433 . S
C1871 N1874 1.384 . S
C1872 H1863 0.929 . S
C1872 C1864 1.378 . S
C1872 C1867 1.350 . S
C1873 H1860 0.929 . S
C1873 C1865 1.433 . S
C1873 N1875 1.384 . S
N1874 C1870 1.427 . S
N1874 C1871 1.384 . S
N1875 C1867 1.427 . S
N1875 C1873 1.384 . S
H1876 C1882 0.930 . S
H1877 C1886 0.930 . S
H1878 C1891 0.929 . S
H1879 C1889 0.929 . S
H1880 C1884 0.929 . S
H1881 C1890 0.929 . S
C1882 H1876 0.930 . S
C1882 C1883 1.367 . S
C1882 C1890 1.378 . S
C1883 C1882 1.367 . S
C1883 C1891 1.433 . S
C1884 H1880 0.929 . S
C1884 C1886 1.378 . S
C1884 C1888 1.350 . S
C1885 C1888 1.463 . S
C1885 C1890 1.350 . S
C1885 N1893 1.427 . S
C1886 H1877 0.930 . S
C1886 C1884 1.378 . S
C1886 C1887 1.367 . S
C1887 C1886 1.367 . S
C1887 C1889 1.433 . S
C1888 C1884 1.350 . S
C1888 C1885 1.463 . S
C1888 N1892 1.427 . S
C1889 H1879 0.929 . S
C1889 C1887 1.433 . S
C1889 N1892 1.384 . S
C1890 H1881 0.929 . S
C1890 C1882 1.378 . S
C1890 C1885 1.350 . S
C1891 H1878 0.929 . S
C1891 C1883 1.433 . S
C1891 N1893 1.384 . S
N1892 C1888 1.427 . S
N1892 C1889 1.384 . S
N1893 C1885 1.427 . S
N1893 C1891 1.384 . S
H1894 C1900 0.930 . S
H1895 C1904 0.930 . S
H1896 C1909 0.929 . S
H1897 C1907 0.929 . S
H1898 C1902 0.929 . S
H1899 C1908 0.929 . S
C1900 H1894 0.930 . S
C1900 C1901 1.367 . S
C1900 C1908 1.378 . S
C1901 C1900 1.367 . S
C1901 C1909 1.433 . S
C1902 H1898 0.929 . S
C1902 C1904 1.378 . S
C1902 C1906 1.350 . S
C1903 C1906 1.463 . S
C1903 C1908 1.350 . S
C1903 N1911 1.427 . S
C1904 H1895 0.930 . S
C1904 C1902 1.378 . S
C1904 C1905 1.367 . S
C1905 C1904 1.367 . S
C1905 C1907 1.433 . S
C1906 C1902 1.350 . S
C1906 C1903 1.463 . S
C1906 N1910 1.427 . S
C1907 H1897 0.929 . S
C1907 C1905 1.433 . S
C1907 N1910 1.384 . S
C1908 H1899 0.929 . S
C1908 C1900 1.378 . S
C1908 C1903 1.350 . S
C1909 H1896 0.929 . S
C1909 C1901 1.433 . S
C1909 N1911 1.384 . S
N1910 C1906 1.427 . S
N1910 C1907 1.384 . S
N1911 C1903 1.427 . S
N1911 C1909 1.384 . S
H1912 C1918 0.930 . S
H1913 C1922 0.930 . S
H1914 C1927 0.929 . S
H1915 C1925 0.929 . S
H1916 C1920 0.929 . S
H1917 C1926 0.929 . S
C1918 H1912 0.930 . S
C1918 C1919 1.367 . S
C1918 C1926 1.378 . S
C1919 C1918 1.367 . S
C1919 C1927 1.433 . S
C1920 H1916 0.929 . S
C1920 C1922 1.378 . S
C1920 C1924 1.350 . S
C1921 C1924 1.463 . S
C1921 C1926 1.350 . S
C1921 N1929 1.427 . S
C1922 H1913 0.930 . S
C1922 C1920 1.378 . S
C1922 C1923 1.367 . S
C1923 C1922 1.367 . S
C1923 C1925 1.433 . S
C1924 C1920 1.350 . S
C1924 C1921 1.463 . S
C1924 N1928 1.427 . S
C1925 H1915 0.929 . S
C1925 C1923 1.433 . S
C1925 N1928 1.384 . S
C1926 H1917 0.929 . S
C1926 C1918 1.378 . S
C1926 C1921 1.350 . S
C1927 H1914 0.929 . S
C1927 C1919 1.433 . S
C1927 N1929 1.384 . S
N1928 C1924 1.427 . S
N1928 C1925 1.384 . S
N1929 C1921 1.427 . S
N1929 C1927 1.384 . S
H1930 C1936 0.930 . S
H1931 C1940 0.930 . S
H1932 C1945 0.929 . S
H1933 C1943 0.929 . S
H1934 C1938 0.929 . S
H1935 C1944 0.929 . S
C1936 H1930 0.930 . S
C1936 C1937 1.367 . S
C1936 C1944 1.378 . S
C1937 C1936 1.367 . S
C1937 C1945 1.433 . S
C1938 H1934 0.929 . S
C1938 C1940 1.378 . S
C1938 C1942 1.350 . S
C1939 C1942 1.463 . S
C1939 C1944 1.350 . S
C1939 N1947 1.427 . S
C1940 H1931 0.930 . S
C1940 C1938 1.378 . S
C1940 C1941 1.367 . S
C1941 C1940 1.367 . S
C1941 C1943 1.433 . S
C1942 C1938 1.350 . S
C1942 C1939 1.463 . S
C1942 N1946 1.427 . S
C1943 H1933 0.929 . S
C1943 C1941 1.433 . S
C1943 N1946 1.384 . S
C1944 H1935 0.929 . S
C1944 C1936 1.378 . S
C1944 C1939 1.350 . S
C1945 H1932 0.929 . S
C1945 C1937 1.433 . S
C1945 N1947 1.384 . S
N1946 C1942 1.427 . S
N1946 C1943 1.384 . S
N1947 C1939 1.427 . S
N1947 C1945 1.384 . S
H1948 C1954 0.930 . S
H1949 C1958 0.930 . S
H1950 C1963 0.929 . S
H1951 C1961 0.929 . S
H1952 C1956 0.929 . S
H1953 C1962 0.929 . S
C1954 H1948 0.930 . S
C1954 C1955 1.367 . S
C1954 C1962 1.378 . S
C1955 C1954 1.367 . S
C1955 C1963 1.433 . S
C1956 H1952 0.929 . S
C1956 C1958 1.378 . S
C1956 C1960 1.350 . S
C1957 C1960 1.463 . S
C1957 C1962 1.350 . S
C1957 N1965 1.427 . S
C1958 H1949 0.930 . S
C1958 C1956 1.378 . S
C1958 C1959 1.367 . S
C1959 C1958 1.367 . S
C1959 C1961 1.433 . S
C1960 C1956 1.350 . S
C1960 C1957 1.463 . S
C1960 N1964 1.427 . S
C1961 H1951 0.929 . S
C1961 C1959 1.433 . S
C1961 N1964 1.384 . S
C1962 H1953 0.929 . S
C1962 C1954 1.378 . S
C1962 C1957 1.350 . S
C1963 H1950 0.929 . S
C1963 C1955 1.433 . S
C1963 N1965 1.384 . S
N1964 C1960 1.427 . S
N1964 C1961 1.384 . S
N1965 C1957 1.427 . S
N1965 C1963 1.384 . S
H1966 C1972 0.930 . S
H1967 C1976 0.930 . S
H1968 C1981 0.929 . S
H1969 C1979 0.929 . S
H1970 C1974 0.940 . S
H1971 C1980 0.929 . S
C1972 H1966 0.930 . S
C1972 C1973 1.367 . S
C1972 C1980 1.378 . S
C1973 C1972 1.367 . S
C1973 C1981 1.433 . S
C1974 H1970 0.940 . S
C1974 C1976 1.367 1_655 S
C1974 C1978 1.350 . S
C1975 C1978 1.474 . S
C1975 C1980 1.350 . S
C1975 N1983 1.427 . S
C1976 H1967 0.930 . S
C1976 C1974 1.367 1_455 S
C1976 C1977 1.367 . S
C1977 C1976 1.367 . S
C1977 C1979 1.433 . S
C1978 C1974 1.350 . S
C1978 C1975 1.474 . S
C1978 N1982 1.416 1_655 S
C1979 H1969 0.929 . S
C1979 C1977 1.433 . S
C1979 N1982 1.384 . S
C1980 H1971 0.929 . S
C1980 C1972 1.378 . S
C1980 C1975 1.350 . S
C1981 H1968 0.929 . S
C1981 C1973 1.433 . S
C1981 N1983 1.384 . S
N1982 C1978 1.416 1_455 S
N1982 C1979 1.384 . S
N1983 C1975 1.427 . S
N1983 C1981 1.384 . S
H1984 C1990 0.930 . S
H1985 C1994 0.930 . S
H1986 C1999 0.929 . S
H1987 C1997 0.929 . S
H1988 C1992 0.929 . S
H1989 C1998 0.929 . S
C1990 H1984 0.930 . S
C1990 C1991 1.367 . S
C1990 C1998 1.378 . S
C1991 C1990 1.367 . S
C1991 C1999 1.433 . S
C1992 H1988 0.929 . S
C1992 C1994 1.378 . S
C1992 C1996 1.350 . S
C1993 C1996 1.463 . S
C1993 C1998 1.350 . S
C1993 N2001 1.427 . S
C1994 H1985 0.930 . S
C1994 C1992 1.378 . S
C1994 C1995 1.367 . S
C1995 C1994 1.367 . S
C1995 C1997 1.433 . S
C1996 C1992 1.350 . S
C1996 C1993 1.463 . S
C1996 N2000 1.427 . S
C1997 H1987 0.929 . S
C1997 C1995 1.433 . S
C1997 N2000 1.384 . S
C1998 H1989 0.929 . S
C1998 C1990 1.378 . S
C1998 C1993 1.350 . S
C1999 H1986 0.929 . S
C1999 C1991 1.433 . S
C1999 N2001 1.384 . S
N2000 C1996 1.427 . S
N2000 C1997 1.384 . S
N2001 C1993 1.427 . S
N2001 C1999 1.384 . S
H2002 C2008 0.930 . S
H2003 C2012 0.930 . S
H2004 C2017 0.929 . S
H2005 C2015 0.929 . S
H2006 C2010 0.934 . S
H2007 C2016 0.929 . S
C2008 H2002 0.930 . S
C2008 C2009 1.367 . S
C2008 C2016 1.378 . S
C2009 C2008 1.367 . S
C2009 C2017 1.433 . S
C2010 H2006 0.934 . S
C2010 C2012 1.373 1_556 S
C2010 C2014 1.349 1_556 S
C2011 C2014 1.463 1_556 S
C2011 C2016 1.350 . S
C2011 N2019 1.427 . S
C2012 H2003 0.930 . S
C2012 C2010 1.373 1_554 S
C2012 C2013 1.367 . S
C2013 C2012 1.367 . S
C2013 C2015 1.433 . S
C2014 C2010 1.349 1_554 S
C2014 C2011 1.463 1_554 S
C2014 N2018 1.427 . S
C2015 H2005 0.929 . S
C2015 C2013 1.433 . S
C2015 N2018 1.384 . S
C2016 H2007 0.929 . S
C2016 C2008 1.378 . S
C2016 C2011 1.350 . S
C2017 H2004 0.929 . S
C2017 C2009 1.433 . S
C2017 N2019 1.384 . S
N2018 C2014 1.427 . S
N2018 C2015 1.384 . S
N2019 C2011 1.427 . S
N2019 C2017 1.384 . S
H2020 C2026 0.930 . S
H2021 C2030 0.930 . S
H2022 C2035 0.929 . S
H2023 C2033 0.929 . S
H2024 C2028 0.929 . S
H2025 C2034 0.929 . S
C2026 H2020 0.930 . S
C2026 C2027 1.367 . S
C2026 C2034 1.378 . S
C2027 C2026 1.367 . S
C2027 C2035 1.433 . S
C2028 H2024 0.929 . S
C2028 C2030 1.378 . S
C2028 C2032 1.350 . S
C2029 C2032 1.463 . S
C2029 C2034 1.350 . S
C2029 N2037 1.427 . S
C2030 H2021 0.930 . S
C2030 C2028 1.378 . S
C2030 C2031 1.367 . S
C2031 C2030 1.367 . S
C2031 C2033 1.433 . S
C2032 C2028 1.350 . S
C2032 C2029 1.463 . S
C2032 N2036 1.427 . S
C2033 H2023 0.929 . S
C2033 C2031 1.433 . S
C2033 N2036 1.384 . S
C2034 H2025 0.929 . S
C2034 C2026 1.378 . S
C2034 C2029 1.350 . S
C2035 H2022 0.929 . S
C2035 C2027 1.433 . S
C2035 N2037 1.384 . S
N2036 C2032 1.427 . S
N2036 C2033 1.384 . S
N2037 C2029 1.427 . S
N2037 C2035 1.384 . S
H2038 C2044 0.930 . S
H2039 C2048 0.930 . S
H2040 C2053 0.929 . S
H2041 C2051 0.929 . S
H2042 C2046 0.929 . S
H2043 C2052 0.929 . S
C2044 H2038 0.930 . S
C2044 C2045 1.367 . S
C2044 C2052 1.378 . S
C2045 C2044 1.367 . S
C2045 C2053 1.433 . S
C2046 H2042 0.929 . S
C2046 C2048 1.378 . S
C2046 C2050 1.350 . S
C2047 C2050 1.463 . S
C2047 C2052 1.350 . S
C2047 N2055 1.427 . S
C2048 H2039 0.930 . S
C2048 C2046 1.378 . S
C2048 C2049 1.367 . S
C2049 C2048 1.367 . S
C2049 C2051 1.433 . S
C2050 C2046 1.350 . S
C2050 C2047 1.463 . S
C2050 N2054 1.427 . S
C2051 H2041 0.929 . S
C2051 C2049 1.433 . S
C2051 N2054 1.384 . S
C2052 H2043 0.929 . S
C2052 C2044 1.378 . S
C2052 C2047 1.350 . S
C2053 H2040 0.929 . S
C2053 C2045 1.433 . S
C2053 N2055 1.384 . S
N2054 C2050 1.427 . S
N2054 C2051 1.384 . S
N2055 C2047 1.427 . S
N2055 C2053 1.384 . S
H2056 C2062 0.930 . S
H2057 C2066 0.930 . S
H2058 C2071 0.929 . S
H2059 C2069 0.929 . S
H2060 C2064 0.929 . S
H2061 C2070 0.929 . S
C2062 H2056 0.930 . S
C2062 C2063 1.367 . S
C2062 C2070 1.378 . S
C2063 C2062 1.367 . S
C2063 C2071 1.433 . S
C2064 H2060 0.929 . S
C2064 C2066 1.378 . S
C2064 C2068 1.350 . S
C2065 C2068 1.463 . S
C2065 C2070 1.350 . S
C2065 N2073 1.427 . S
C2066 H2057 0.930 . S
C2066 C2064 1.378 . S
C2066 C2067 1.367 . S
C2067 C2066 1.367 . S
C2067 C2069 1.433 . S
C2068 C2064 1.350 . S
C2068 C2065 1.463 . S
C2068 N2072 1.427 . S
C2069 H2059 0.929 . S
C2069 C2067 1.433 . S
C2069 N2072 1.384 . S
C2070 H2061 0.929 . S
C2070 C2062 1.378 . S
C2070 C2065 1.350 . S
C2071 H2058 0.929 . S
C2071 C2063 1.433 . S
C2071 N2073 1.384 . S
N2072 C2068 1.427 . S
N2072 C2069 1.384 . S
N2073 C2065 1.427 . S
N2073 C2071 1.384 . S
H2074 C2080 0.930 . S
H2075 C2084 0.930 . S
H2076 C2089 0.929 . S
H2077 C2087 0.929 . S
H2078 C2082 0.929 . S
H2079 C2088 0.929 . S
C2080 H2074 0.930 . S
C2080 C2081 1.367 . S
C2080 C2088 1.378 . S
C2081 C2080 1.367 . S
C2081 C2089 1.433 . S
C2082 H2078 0.929 . S
C2082 C2084 1.378 . S
C2082 C2086 1.350 1_556 S
C2083 C2086 1.463 . S
C2083 C2088 1.350 . S
C2083 N2091 1.427 . S
C2084 H2075 0.930 . S
C2084 C2082 1.378 . S
C2084 C2085 1.367 . S
C2085 C2084 1.367 . S
C2085 C2087 1.433 . S
C2086 C2082 1.350 1_554 S
C2086 C2083 1.463 . S
C2086 N2090 1.427 . S
C2087 H2077 0.929 . S
C2087 C2085 1.433 . S
C2087 N2090 1.384 1_556 S
C2088 H2079 0.929 . S
C2088 C2080 1.378 . S
C2088 C2083 1.350 . S
C2089 H2076 0.929 . S
C2089 C2081 1.433 . S
C2089 N2091 1.384 . S
N2090 C2086 1.427 . S
N2090 C2087 1.384 1_554 S
N2091 C2083 1.427 . S
N2091 C2089 1.384 . S
H2092 C2098 0.930 . S
H2093 C2102 0.930 . S
H2094 C2107 0.929 . S
H2095 C2105 0.929 . S
H2096 C2100 0.929 . S
H2097 C2106 0.929 . S
C2098 H2092 0.930 . S
C2098 C2099 1.367 . S
C2098 C2106 1.378 . S
C2099 C2098 1.367 . S
C2099 C2107 1.433 . S
C2100 H2096 0.929 . S
C2100 C2102 1.378 . S
C2100 C2104 1.350 . S
C2101 C2104 1.463 . S
C2101 C2106 1.350 . S
C2101 N2109 1.427 . S
C2102 H2093 0.930 . S
C2102 C2100 1.378 . S
C2102 C2103 1.367 . S
C2103 C2102 1.367 . S
C2103 C2105 1.433 . S
C2104 C2100 1.350 . S
C2104 C2101 1.463 . S
C2104 N2108 1.427 . S
C2105 H2095 0.929 . S
C2105 C2103 1.433 . S
C2105 N2108 1.384 . S
C2106 H2097 0.929 . S
C2106 C2098 1.378 . S
C2106 C2101 1.350 . S
C2107 H2094 0.929 . S
C2107 C2099 1.433 . S
C2107 N2109 1.384 . S
N2108 C2104 1.427 . S
N2108 C2105 1.384 . S
N2109 C2101 1.427 . S
N2109 C2107 1.384 . S
H2110 C2116 0.930 . S
H2111 C2120 0.930 . S
H2112 C2125 0.929 . S
H2113 C2123 0.929 . S
H2114 C2118 0.929 . S
H2115 C2124 0.929 . S
C2116 H2110 0.930 . S
C2116 C2117 1.367 . S
C2116 C2124 1.378 . S
C2117 C2116 1.367 . S
C2117 C2125 1.433 . S
C2118 H2114 0.929 . S
C2118 C2120 1.378 . S
C2118 C2122 1.350 . S
C2119 C2122 1.463 . S
C2119 C2124 1.350 . S
C2119 N2127 1.427 . S
C2120 H2111 0.930 . S
C2120 C2118 1.378 . S
C2120 C2121 1.367 . S
C2121 C2120 1.367 . S
C2121 C2123 1.433 . S
C2122 C2118 1.350 . S
C2122 C2119 1.463 . S
C2122 N2126 1.427 . S
C2123 H2113 0.929 . S
C2123 C2121 1.433 . S
C2123 N2126 1.384 . S
C2124 H2115 0.929 . S
C2124 C2116 1.378 . S
C2124 C2119 1.350 . S
C2125 H2112 0.929 . S
C2125 C2117 1.433 . S
C2125 N2127 1.384 . S
N2126 C2122 1.427 . S
N2126 C2123 1.384 . S
N2127 C2119 1.427 . S
N2127 C2125 1.384 . S
H2128 C2134 0.930 . S
H2129 C2138 0.930 . S
H2130 C2143 0.929 . S
H2131 C2141 0.929 . S
H2132 C2136 0.929 . S
H2133 C2142 0.929 . S
C2134 H2128 0.930 . S
C2134 C2135 1.367 . S
C2134 C2142 1.378 . S
C2135 C2134 1.367 . S
C2135 C2143 1.433 . S
C2136 H2132 0.929 . S
C2136 C2138 1.378 . S
C2136 C2140 1.350 . S
C2137 C2140 1.463 . S
C2137 C2142 1.350 . S
C2137 N2145 1.427 . S
C2138 H2129 0.930 . S
C2138 C2136 1.378 . S
C2138 C2139 1.367 . S
C2139 C2138 1.367 . S
C2139 C2141 1.433 . S
C2140 C2136 1.350 . S
C2140 C2137 1.463 . S
C2140 N2144 1.427 . S
C2141 H2131 0.929 . S
C2141 C2139 1.433 . S
C2141 N2144 1.384 . S
C2142 H2133 0.929 . S
C2142 C2134 1.378 . S
C2142 C2137 1.350 . S
C2143 H2130 0.929 . S
C2143 C2135 1.433 . S
C2143 N2145 1.384 . S
N2144 C2140 1.427 . S
N2144 C2141 1.384 . S
N2145 C2137 1.427 . S
N2145 C2143 1.384 . S
H2146 C2152 0.930 . S
H2147 C2156 0.930 . S
H2148 C2161 0.929 . S
H2149 C2159 0.929 . S
H2150 C2154 0.929 . S
H2151 C2160 0.929 . S
C2152 H2146 0.930 . S
C2152 C2153 1.367 . S
C2152 C2160 1.378 . S
C2153 C2152 1.367 . S
C2153 C2161 1.433 . S
C2154 H2150 0.929 . S
C2154 C2156 1.378 . S
C2154 C2158 1.350 . S
C2155 C2158 1.463 . S
C2155 C2160 1.350 . S
C2155 N2163 1.427 . S
C2156 H2147 0.930 . S
C2156 C2154 1.378 . S
C2156 C2157 1.367 . S
C2157 C2156 1.367 . S
C2157 C2159 1.433 . S
C2158 C2154 1.350 . S
C2158 C2155 1.463 . S
C2158 N2162 1.427 . S
C2159 H2149 0.929 . S
C2159 C2157 1.433 . S
C2159 N2162 1.384 . S
C2160 H2151 0.929 . S
C2160 C2152 1.378 . S
C2160 C2155 1.350 . S
C2161 H2148 0.929 . S
C2161 C2153 1.433 . S
C2161 N2163 1.384 . S
N2162 C2158 1.427 . S
N2162 C2159 1.384 . S
N2163 C2155 1.427 . S
N2163 C2161 1.384 . S
H2164 C2170 0.930 . S
H2165 C2174 0.930 . S
H2166 C2179 0.929 . S
H2167 C2177 0.929 . S
H2168 C2172 0.929 . S
H2169 C2178 0.929 . S
C2170 H2164 0.930 . S
C2170 C2171 1.367 . S
C2170 C2178 1.378 . S
C2171 C2170 1.367 . S
C2171 C2179 1.433 . S
C2172 H2168 0.929 . S
C2172 C2174 1.378 . S
C2172 C2176 1.350 . S
C2173 C2176 1.463 . S
C2173 C2178 1.350 . S
C2173 N2181 1.427 . S
C2174 H2165 0.930 . S
C2174 C2172 1.378 . S
C2174 C2175 1.367 . S
C2175 C2174 1.367 . S
C2175 C2177 1.433 . S
C2176 C2172 1.350 . S
C2176 C2173 1.463 . S
C2176 N2180 1.427 . S
C2177 H2167 0.929 . S
C2177 C2175 1.433 . S
C2177 N2180 1.384 . S
C2178 H2169 0.929 . S
C2178 C2170 1.378 . S
C2178 C2173 1.350 . S
C2179 H2166 0.929 . S
C2179 C2171 1.433 . S
C2179 N2181 1.384 . S
N2180 C2176 1.427 . S
N2180 C2177 1.384 . S
N2181 C2173 1.427 . S
N2181 C2179 1.384 . S
H2182 C2188 0.930 . S
H2183 C2192 0.930 . S
H2184 C2197 0.929 . S
H2185 C2195 0.929 . S
H2186 C2190 0.929 . S
H2187 C2196 0.929 . S
C2188 H2182 0.930 . S
C2188 C2189 1.367 . S
C2188 C2196 1.378 . S
C2189 C2188 1.367 . S
C2189 C2197 1.433 . S
C2190 H2186 0.929 . S
C2190 C2192 1.378 . S
C2190 C2194 1.350 . S
C2191 C2194 1.463 . S
C2191 C2196 1.350 . S
C2191 N2199 1.427 . S
C2192 H2183 0.930 . S
C2192 C2190 1.378 . S
C2192 C2193 1.367 . S
C2193 C2192 1.367 . S
C2193 C2195 1.433 . S
C2194 C2190 1.350 . S
C2194 C2191 1.463 . S
C2194 N2198 1.427 . S
C2195 H2185 0.929 . S
C2195 C2193 1.433 . S
C2195 N2198 1.384 . S
C2196 H2187 0.929 . S
C2196 C2188 1.378 . S
C2196 C2191 1.350 . S
C2197 H2184 0.929 . S
C2197 C2189 1.433 . S
C2197 N2199 1.384 . S
N2198 C2194 1.427 . S
N2198 C2195 1.384 . S
N2199 C2191 1.427 . S
N2199 C2197 1.384 . S
H2200 C2206 0.930 . S
H2201 C2210 0.930 . S
H2202 C2215 0.929 . S
H2203 C2213 0.929 . S
H2204 C2208 0.929 . S
H2205 C2214 0.929 . S
C2206 H2200 0.930 . S
C2206 C2207 1.367 . S
C2206 C2214 1.378 . S
C2207 C2206 1.367 . S
C2207 C2215 1.433 . S
C2208 H2204 0.929 . S
C2208 C2210 1.378 . S
C2208 C2212 1.350 . S
C2209 C2212 1.463 . S
C2209 C2214 1.350 . S
C2209 N2217 1.427 . S
C2210 H2201 0.930 . S
C2210 C2208 1.378 . S
C2210 C2211 1.367 . S
C2211 C2210 1.367 . S
C2211 C2213 1.433 . S
C2212 C2208 1.350 . S
C2212 C2209 1.463 . S
C2212 N2216 1.427 . S
C2213 H2203 0.929 . S
C2213 C2211 1.433 . S
C2213 N2216 1.384 . S
C2214 H2205 0.929 . S
C2214 C2206 1.378 . S
C2214 C2209 1.350 . S
C2215 H2202 0.929 . S
C2215 C2207 1.433 . S
C2215 N2217 1.384 . S
N2216 C2212 1.427 . S
N2216 C2213 1.384 . S
N2217 C2209 1.427 . S
N2217 C2215 1.384 . S
H2218 C2224 0.930 . S
H2219 C2228 0.930 . S
H2220 C2233 0.929 . S
H2221 C2231 0.929 . S
H2222 C2226 0.929 . S
H2223 C2232 0.929 . S
C2224 H2218 0.930 . S
C2224 C2225 1.367 . S
C2224 C2232 1.378 . S
C2225 C2224 1.367 . S
C2225 C2233 1.433 . S
C2226 H2222 0.929 . S
C2226 C2228 1.378 . S
C2226 C2230 1.350 . S
C2227 C2230 1.463 . S
C2227 C2232 1.350 . S
C2227 N2235 1.427 . S
C2228 H2219 0.930 . S
C2228 C2226 1.378 . S
C2228 C2229 1.367 . S
C2229 C2228 1.367 . S
C2229 C2231 1.433 . S
C2230 C2226 1.350 . S
C2230 C2227 1.463 . S
C2230 N2234 1.427 . S
C2231 H2221 0.929 . S
C2231 C2229 1.433 . S
C2231 N2234 1.384 . S
C2232 H2223 0.929 . S
C2232 C2224 1.378 . S
C2232 C2227 1.350 . S
C2233 H2220 0.929 . S
C2233 C2225 1.433 . S
C2233 N2235 1.384 . S
N2234 C2230 1.427 . S
N2234 C2231 1.384 . S
N2235 C2227 1.427 . S
N2235 C2233 1.384 . S
H2236 C2242 0.930 . S
H2237 C2246 0.930 . S
H2238 C2251 0.929 . S
H2239 C2249 0.929 . S
H2240 C2244 0.929 . S
H2241 C2250 0.929 . S
C2242 H2236 0.930 . S
C2242 C2243 1.367 . S
C2242 C2250 1.378 . S
C2243 C2242 1.367 . S
C2243 C2251 1.433 . S
C2244 H2240 0.929 . S
C2244 C2246 1.378 . S
C2244 C2248 1.350 . S
C2245 C2248 1.463 . S
C2245 C2250 1.350 . S
C2245 N2253 1.427 . S
C2246 H2237 0.930 . S
C2246 C2244 1.378 . S
C2246 C2247 1.367 . S
C2247 C2246 1.367 . S
C2247 C2249 1.433 . S
C2248 C2244 1.350 . S
C2248 C2245 1.463 . S
C2248 N2252 1.427 . S
C2249 H2239 0.929 . S
C2249 C2247 1.433 . S
C2249 N2252 1.384 . S
C2250 H2241 0.929 . S
C2250 C2242 1.378 . S
C2250 C2245 1.350 . S
C2251 H2238 0.929 . S
C2251 C2243 1.433 . S
C2251 N2253 1.384 . S
N2252 C2248 1.427 . S
N2252 C2249 1.384 . S
N2253 C2245 1.427 . S
N2253 C2251 1.384 . S
H2254 C2260 0.930 . S
H2255 C2264 0.930 . S
H2256 C2269 0.929 . S
H2257 C2267 0.929 . S
H2258 C2262 0.929 . S
H2259 C2268 0.929 . S
C2260 H2254 0.930 . S
C2260 C2261 1.367 . S
C2260 C2268 1.378 . S
C2261 C2260 1.367 . S
C2261 C2269 1.433 . S
C2262 H2258 0.929 . S
C2262 C2264 1.378 . S
C2262 C2266 1.350 . S
C2263 C2266 1.463 . S
C2263 C2268 1.350 . S
C2263 N2271 1.427 . S
C2264 H2255 0.930 . S
C2264 C2262 1.378 . S
C2264 C2265 1.367 . S
C2265 C2264 1.367 . S
C2265 C2267 1.433 . S
C2266 C2262 1.350 . S
C2266 C2263 1.463 . S
C2266 N2270 1.427 . S
C2267 H2257 0.929 . S
C2267 C2265 1.433 . S
C2267 N2270 1.384 . S
C2268 H2259 0.929 . S
C2268 C2260 1.378 . S
C2268 C2263 1.350 . S
C2269 H2256 0.929 . S
C2269 C2261 1.433 . S
C2269 N2271 1.384 . S
N2270 C2266 1.427 . S
N2270 C2267 1.384 . S
N2271 C2263 1.427 . S
N2271 C2269 1.384 . S
H2272 C2278 0.930 . S
H2273 C2282 0.930 . S
H2274 C2287 0.929 . S
H2275 C2285 0.929 . S
H2276 C2280 0.929 . S
H2277 C2286 0.929 . S
C2278 H2272 0.930 . S
C2278 C2279 1.367 . S
C2278 C2286 1.378 . S
C2279 C2278 1.367 . S
C2279 C2287 1.433 . S
C2280 H2276 0.929 . S
C2280 C2282 1.378 . S
C2280 C2284 1.350 . S
C2281 C2284 1.463 . S
C2281 C2286 1.350 . S
C2281 N2289 1.427 . S
C2282 H2273 0.930 . S
C2282 C2280 1.378 . S
C2282 C2283 1.367 . S
C2283 C2282 1.367 . S
C2283 C2285 1.433 . S
C2284 C2280 1.350 . S
C2284 C2281 1.463 . S
C2284 N2288 1.427 . S
C2285 H2275 0.929 . S
C2285 C2283 1.433 . S
C2285 N2288 1.384 . S
C2286 H2277 0.929 . S
C2286 C2278 1.378 . S
C2286 C2281 1.350 . S
C2287 H2274 0.929 . S
C2287 C2279 1.433 . S
C2287 N2289 1.384 . S
N2288 C2284 1.427 . S
N2288 C2285 1.384 . S
N2289 C2281 1.427 . S
N2289 C2287 1.384 . S
H2290 C2296 0.930 . S
H2291 C2300 0.930 . S
H2292 C2305 0.929 . S
H2293 C2303 0.929 . S
H2294 C2298 0.929 . S
H2295 C2304 0.929 . S
C2296 H2290 0.930 . S
C2296 C2297 1.367 . S
C2296 C2304 1.378 . S
C2297 C2296 1.367 . S
C2297 C2305 1.433 . S
C2298 H2294 0.929 . S
C2298 C2300 1.378 . S
C2298 C2302 1.350 . S
C2299 C2302 1.463 . S
C2299 C2304 1.350 . S
C2299 N2307 1.427 . S
C2300 H2291 0.930 . S
C2300 C2298 1.378 . S
C2300 C2301 1.367 . S
C2301 C2300 1.367 . S
C2301 C2303 1.433 . S
C2302 C2298 1.350 . S
C2302 C2299 1.463 . S
C2302 N2306 1.427 . S
C2303 H2293 0.929 . S
C2303 C2301 1.433 . S
C2303 N2306 1.384 . S
C2304 H2295 0.929 . S
C2304 C2296 1.378 . S
C2304 C2299 1.350 . S
C2305 H2292 0.929 . S
C2305 C2297 1.433 . S
C2305 N2307 1.384 . S
N2306 C2302 1.427 . S
N2306 C2303 1.384 . S
N2307 C2299 1.427 . S
N2307 C2305 1.384 . S
H2308 C2314 0.930 . S
H2309 C2318 0.930 . S
H2310 C2323 0.929 1_565 S
H2311 C2321 0.929 . S
H2312 C2316 0.929 . S
H2313 C2322 0.929 . S
C2314 H2308 0.930 . S
C2314 C2315 1.367 . S
C2314 C2322 1.378 . S
C2315 C2314 1.367 . S
C2315 C2323 1.433 . S
C2316 H2312 0.929 . S
C2316 C2318 1.378 . S
C2316 C2320 1.350 . S
C2317 C2320 1.463 . S
C2317 C2322 1.350 . S
C2317 N2325 1.427 . S
C2318 H2309 0.930 . S
C2318 C2316 1.378 . S
C2318 C2319 1.367 . S
C2319 C2318 1.367 . S
C2319 C2321 1.433 . S
C2320 C2316 1.350 . S
C2320 C2317 1.463 . S
C2320 N2324 1.427 . S
C2321 H2311 0.929 . S
C2321 C2319 1.433 . S
C2321 N2324 1.384 . S
C2322 H2313 0.929 . S
C2322 C2314 1.378 . S
C2322 C2317 1.350 . S
C2323 H2310 0.929 1_545 S
C2323 C2315 1.433 . S
C2323 N2325 1.384 . S
N2324 C2320 1.427 . S
N2324 C2321 1.384 . S
N2325 C2317 1.427 . S
N2325 C2323 1.384 . S
H2326 C2332 0.930 . S
H2327 C2336 0.930 . S
H2328 C2341 0.929 . S
H2329 C2339 0.929 . S
H2330 C2334 0.929 . S
H2331 C2340 0.929 . S
C2332 H2326 0.930 . S
C2332 C2333 1.367 . S
C2332 C2340 1.378 . S
C2333 C2332 1.367 . S
C2333 C2341 1.433 . S
C2334 H2330 0.929 . S
C2334 C2336 1.378 . S
C2334 C2338 1.350 . S
C2335 C2338 1.463 . S
C2335 C2340 1.350 . S
C2335 N2343 1.427 . S
C2336 H2327 0.930 . S
C2336 C2334 1.378 . S
C2336 C2337 1.367 . S
C2337 C2336 1.367 . S
C2337 C2339 1.433 . S
C2338 C2334 1.350 . S
C2338 C2335 1.463 . S
C2338 N2342 1.427 . S
C2339 H2329 0.929 . S
C2339 C2337 1.433 . S
C2339 N2342 1.384 . S
C2340 H2331 0.929 . S
C2340 C2332 1.378 . S
C2340 C2335 1.350 . S
C2341 H2328 0.929 . S
C2341 C2333 1.433 . S
C2341 N2343 1.384 . S
N2342 C2338 1.427 . S
N2342 C2339 1.384 . S
N2343 C2335 1.427 . S
N2343 C2341 1.384 . S
H2344 C2350 0.930 . S
H2345 C2354 0.930 . S
H2346 C2359 0.929 . S
H2347 C2357 0.929 . S
H2348 C2352 0.929 . S
H2349 C2358 0.929 . S
C2350 H2344 0.930 . S
C2350 C2351 1.367 . S
C2350 C2358 1.378 . S
C2351 C2350 1.367 . S
C2351 C2359 1.433 . S
C2352 H2348 0.929 . S
C2352 C2354 1.378 . S
C2352 C2356 1.350 . S
C2353 C2356 1.463 . S
C2353 C2358 1.350 . S
C2353 N2361 1.427 . S
C2354 H2345 0.930 . S
C2354 C2352 1.378 . S
C2354 C2355 1.367 . S
C2355 C2354 1.367 . S
C2355 C2357 1.433 . S
C2356 C2352 1.350 . S
C2356 C2353 1.463 . S
C2356 N2360 1.427 . S
C2357 H2347 0.929 . S
C2357 C2355 1.433 . S
C2357 N2360 1.384 . S
C2358 H2349 0.929 . S
C2358 C2350 1.378 . S
C2358 C2353 1.350 . S
C2359 H2346 0.929 . S
C2359 C2351 1.433 . S
C2359 N2361 1.384 . S
N2360 C2356 1.427 . S
N2360 C2357 1.384 . S
N2361 C2353 1.427 . S
N2361 C2359 1.384 . S
H2362 C2368 0.930 . S
H2363 C2372 0.930 . S
H2364 C2377 0.929 . S
H2365 C2375 0.929 . S
H2366 C2370 0.929 . S
H2367 C2376 0.929 . S
C2368 H2362 0.930 . S
C2368 C2369 1.367 . S
C2368 C2376 1.378 . S
C2369 C2368 1.367 . S
C2369 C2377 1.433 . S
C2370 H2366 0.929 . S
C2370 C2372 1.378 . S
C2370 C2374 1.350 . S
C2371 C2374 1.463 . S
C2371 C2376 1.350 . S
C2371 N2379 1.427 . S
C2372 H2363 0.930 . S
C2372 C2370 1.378 . S
C2372 C2373 1.367 . S
C2373 C2372 1.367 . S
C2373 C2375 1.433 . S
C2374 C2370 1.350 . S
C2374 C2371 1.463 . S
C2374 N2378 1.427 . S
C2375 H2365 0.929 . S
C2375 C2373 1.433 . S
C2375 N2378 1.384 . S
C2376 H2367 0.929 . S
C2376 C2368 1.378 . S
C2376 C2371 1.350 . S
C2377 H2364 0.929 . S
C2377 C2369 1.433 . S
C2377 N2379 1.384 . S
N2378 C2374 1.427 . S
N2378 C2375 1.384 . S
N2379 C2371 1.427 . S
N2379 C2377 1.384 . S
H2380 C2386 0.930 1_545 S
H2381 C2390 0.930 . S
H2382 C2395 0.929 . S
H2383 C2393 0.929 . S
H2384 C2388 0.929 . S
H2385 C2394 0.929 . S
C2386 H2380 0.930 1_565 S
C2386 C2387 1.367 . S
C2386 C2394 1.378 . S
C2387 C2386 1.367 . S
C2387 C2395 1.433 . S
C2388 H2384 0.929 . S
C2388 C2390 1.378 . S
C2388 C2392 1.350 . S
C2389 C2392 1.463 . S
C2389 C2394 1.350 . S
C2389 N2397 1.427 . S
C2390 H2381 0.930 . S
C2390 C2388 1.378 . S
C2390 C2391 1.367 . S
C2391 C2390 1.367 . S
C2391 C2393 1.433 . S
C2392 C2388 1.350 . S
C2392 C2389 1.463 . S
C2392 N2396 1.427 . S
C2393 H2383 0.929 . S
C2393 C2391 1.433 . S
C2393 N2396 1.384 . S
C2394 H2385 0.929 . S
C2394 C2386 1.378 . S
C2394 C2389 1.350 . S
C2395 H2382 0.929 . S
C2395 C2387 1.433 . S
C2395 N2397 1.384 . S
N2396 C2392 1.427 . S
N2396 C2393 1.384 . S
N2397 C2389 1.427 . S
N2397 C2395 1.384 . S
H2398 C2404 0.930 . S
H2399 C2408 0.930 . S
H2400 C2413 0.929 . S
H2401 C2411 0.929 . S
H2402 C2406 0.929 . S
H2403 C2412 0.929 . S
C2404 H2398 0.930 . S
C2404 C2405 1.367 . S
C2404 C2412 1.378 . S
C2405 C2404 1.367 . S
C2405 C2413 1.433 . S
C2406 H2402 0.929 . S
C2406 C2408 1.378 1_455 S
C2406 C2410 1.350 . S
C2407 C2410 1.463 . S
C2407 C2412 1.350 . S
C2407 N2415 1.427 . S
C2408 H2399 0.930 . S
C2408 C2406 1.378 1_655 S
C2408 C2409 1.367 . S
C2409 C2408 1.367 . S
C2409 C2411 1.433 . S
C2410 C2406 1.350 . S
C2410 C2407 1.463 . S
C2410 N2414 1.427 1_455 S
C2411 H2401 0.929 . S
C2411 C2409 1.433 . S
C2411 N2414 1.384 . S
C2412 H2403 0.929 . S
C2412 C2404 1.378 . S
C2412 C2407 1.350 . S
C2413 H2400 0.929 . S
C2413 C2405 1.433 . S
C2413 N2415 1.384 . S
N2414 C2410 1.427 1_655 S
N2414 C2411 1.384 . S
N2415 C2407 1.427 . S
N2415 C2413 1.384 . S
C699 C354 1.043 . S
C695 C11 1.032 . S
C713 C14 1.153 . S
C717 C366 1.177 . S
C735 C401 1.231 . S
C731 C37 1.253 . S
C753 C410 1.145 . S
C749 C47 1.153 . S
C771 C365 1.173 . S
C767 C61 1.185 . S
C785 C79 1.222 . S
C789 C390 1.218 . S
C807 C409 1.171 . S
C803 C84 1.171 . S
C821 C109 1.103 . S
C825 C351 1.088 . S
C839 C123 1.089 . S
C843 C344 1.085 . S
C861 C368 1.142 . S
C857 C131 1.154 . S
C879 C387 1.255 . S
C875 C140 1.258 . S
C897 C412 1.163 . S
C893 C163 1.165 . S
C915 C373 1.148 . S
C911 C121 1.168 . S
C933 C398 1.230 . S
C929 C126 1.205 . S
C947 C145 1.161 . S
C951 C417 1.144 . S
C969 C357 1.080 . S
C965 C165 1.081 . S
C983 C168 1.101 . S
C987 C346 1.102 . S
C1001 C193 1.145 . S
C1005 C445 1.139 . S
C1023 C461 1.185 . S
C1019 C205 1.184 . S
C1041 C475 1.192 . S
C1037 C215 1.209 . S
C1055 C224 1.110 . S
C1059 C343 1.105 . S
C1073 C247 1.220 . S
C1077 C395 1.193 . S
C1095 C478 1.136 . S
C1091 C207 1.126 . S
C1113 C442 1.215 . S
C1109 C257 1.230 . S
C1131 C498 1.187 . S
C1127 C23 1.163 . S
C1149 C522 1.106 . S
C1145 C0 1.083 . S
C1163 C53 1.050 . S
C1167 C555 1.060 . S
C1181 C33 1.223 . S
C1185 C563 1.205 . S
C1199 C103 1.216 . S
C1203 C533 1.208 . S
C1217 C95 1.048 . S
C1221 C544 1.038 . S
C1239 C564 1.113 . S
C1235 C70 1.115 . S
C1253 C65 1.217 . S
C1257 C497 1.209 . S
C1271 C271 1.192 . S
C1275 C500 1.199 . S
C1293 C530 1.158 . S
C1289 C219 1.151 . S
C1311 C541 1.079 . S
C1307 C235 1.065 . S
C1329 C571 1.134 . S
C1325 C182 1.124 . S
C1347 C519 1.129 . S
C1343 C266 1.120 . S
C1365 C552 1.043 . S
C1361 C221 1.037 . S
C1383 C566 1.168 . S
C1379 C233 1.145 . S
C1397 C187 1.255 . S
C1401 C505 1.228 . S
C1419 C508 1.120 . S
C1415 C289 1.104 . S
C1433 C154 1.166 . S
C1437 C596 1.184 . S
C1455 C608 1.123 . S
C1451 C299 1.113 . S
C1469 C137 1.152 . S
C1473 C629 1.135 . S
C1491 C511 1.170 . S
C1487 C149 1.183 . S
C1509 C549 1.098 . S
C1505 C313 1.117 . S
C1527 C632 1.132 . S
C1523 C294 1.125 . S
C1541 C333 1.130 . S
C1545 C599 1.115 . S
C1559 C39 1.056 . S
C1563 C654 1.056 . S
C1577 C42 1.156 . S
C1581 C432 1.179 . S
C1599 C456 1.209 . S
C1595 C9 1.195 . S
C1613 C19 1.159 . S
C1617 C486 1.157 . S
C1631 C89 1.166 . S
C1635 C431 1.144 . S
C1649 C107 1.251 . S
C1653 C467 1.231 . S
C1671 C483 1.202 . S
C1667 C56 1.209 . S
C1689 C665 1.072 . S
C1685 C81 1.078 . S
C1707 C662 1.062 . S
C1703 C305 1.056 . S
C1725 C434 1.135 . S
C1721 C285 1.152 . S
C1743 C464 1.246 . S
C1739 C322 1.225 . S
C1757 C317 1.189 . S
C1761 C476 1.186 . S
C1779 C439 1.163 . S
C1775 C303 1.162 . S
C1793 C280 1.221 . S
C1797 C453 1.215 . S
C1815 C489 1.139 . S
C1811 C327 1.153 . S
C1829 C319 1.100 . S
C1833 C651 1.099 . S
C1851 C652 1.120 . S
C1847 C210 1.101 . S
C1865 C249 1.139 . S
C1869 C379 1.124 . S
C1887 C388 1.167 . S
C1883 C275 1.149 . S
C1901 C173 1.193 . S
C1905 C423 1.179 . S
C1923 C659 1.098 . S
C1919 C252 1.101 . S
C1941 C454 1.189 . S
C1937 C191 1.188 . S
C1959 C420 1.121 . S
C1955 C277 1.124 . S
C1977 C376 1.210 . S
C1973 C229 1.212 . S
C1991 C51 1.206 . S
C1995 C673 1.201 . S
C2009 C28 1.119 . S
C2013 C585 1.125 . S
C2027 C25 1.056 . S
C2031 C621 1.054 . S
C2049 C640 1.164 . S
C2045 C5 1.174 . S
C2067 C586 1.180 . S
C2063 C75 1.171 . S
C2081 C67 1.054 . S
C2085 C610 1.042 . S
C2103 C637 1.144 . S
C2099 C98 1.138 . S
C2117 C93 1.200 . S
C2121 C674 1.202 . S
C2139 C681 1.225 . S
C2135 C201 1.243 . S
C2153 C177 1.166 . S
C2157 C593 1.162 . S
C2171 C263 1.072 . S
C2175 C607 1.062 . S
C2193 C630 1.109 . S
C2189 C238 1.096 . S
C2211 C588 1.112 . S
C2207 C196 1.100 . S
C2225 C179 1.042 . S
C2229 C618 1.036 . S
C2247 C643 1.170 . S
C2243 C261 1.176 . S
C2265 C676 1.234 . S
C2261 C243 1.229 . S
C2283 C687 1.132 . S
C2279 C135 1.138 . S
C2301 C527 1.221 . S
C2297 C308 1.207 . S
C2315 C117 1.118 . S
C2319 C542 1.111 . S
C2333 C291 1.129 . S
C2337 C574 1.125 . S
C2355 C684 1.158 . S
C2351 C331 1.157 . S
C2373 C615 1.101 . S
C2369 C159 1.107 . S
C2391 C577 1.168 . S
C2387 C112 1.171 . S
C2409 C520 1.113 . S
C2405 C151 1.105 . S
