# Generated by pormake.
# Topology zzz, (3,6)-cn, num edge types: 1
# Building blocks:
#     Node 0, Type 0, BuildingBlock: OLANEW_clean_sbu_2, # of connection points: 3
#     Node 1, Type 0, BuildingBlock: OLANEW_clean_sbu_2, # of connection points: 3
#     Node 2, Type 0, BuildingBlock: OLANEW_clean_sbu_2, # of connection points: 3
#     Node 3, Type 0, BuildingBlock: OLANEW_clean_sbu_2, # of connection points: 3
#     Node 4, Type 0, BuildingBlock: OLANEW_clean_sbu_2, # of connection points: 3
#     Node 5, Type 0, BuildingBlock: OLANEW_clean_sbu_2, # of connection points: 3
#     Node 6, Type 0, BuildingBlock: OLANEW_clean_sbu_2, # of connection points: 3
#     Node 7, Type 0, BuildingBlock: OLANEW_clean_sbu_2, # of connection points: 3
#     Node 8, Type 1, BuildingBlock: BETDIP_clean_sbu_0, # of connection points: 6
#     Node 9, Type 1, BuildingBlock: BETDIP_clean_sbu_0, # of connection points: 6
#     Node 10, Type 1, BuildingBlock: BETDIP_clean_sbu_0, # of connection points: 6
#     Node 11, Type 1, BuildingBlock: BETDIP_clean_sbu_0, # of connection points: 6
#     Edge 12, Type (0, 1), BuildingBlock: OJICUG_clean_linker_0, # of connection points: 2
#     Edge 13, Type (0, 1), BuildingBlock: OJICUG_clean_linker_0, # of connection points: 2
#     Edge 14, Type (0, 1), BuildingBlock: OJICUG_clean_linker_0, # of connection points: 2
#     Edge 15, Type (0, 1), BuildingBlock: OJICUG_clean_linker_0, # of connection points: 2
#     Edge 16, Type (0, 1), BuildingBlock: OJICUG_clean_linker_0, # of connection points: 2
#     Edge 17, Type (0, 1), BuildingBlock: OJICUG_clean_linker_0, # of connection points: 2
#     Edge 18, Type (0, 1), BuildingBlock: OJICUG_clean_linker_0, # of connection points: 2
#     Edge 19, Type (0, 1), BuildingBlock: OJICUG_clean_linker_0, # of connection points: 2
#     Edge 20, Type (0, 1), BuildingBlock: OJICUG_clean_linker_0, # of connection points: 2
#     Edge 21, Type (0, 1), BuildingBlock: OJICUG_clean_linker_0, # of connection points: 2
#     Edge 22, Type (0, 1), BuildingBlock: OJICUG_clean_linker_0, # of connection points: 2
#     Edge 23, Type (0, 1), BuildingBlock: OJICUG_clean_linker_0, # of connection points: 2
#     Edge 24, Type (0, 1), BuildingBlock: OJICUG_clean_linker_0, # of connection points: 2
#     Edge 25, Type (0, 1), BuildingBlock: OJICUG_clean_linker_0, # of connection points: 2
#     Edge 26, Type (0, 1), BuildingBlock: OJICUG_clean_linker_0, # of connection points: 2
#     Edge 27, Type (0, 1), BuildingBlock: OJICUG_clean_linker_0, # of connection points: 2
#     Edge 28, Type (0, 1), BuildingBlock: OJICUG_clean_linker_0, # of connection points: 2
#     Edge 29, Type (0, 1), BuildingBlock: OJICUG_clean_linker_0, # of connection points: 2
#     Edge 30, Type (0, 1), BuildingBlock: OJICUG_clean_linker_0, # of connection points: 2
#     Edge 31, Type (0, 1), BuildingBlock: OJICUG_clean_linker_0, # of connection points: 2
#     Edge 32, Type (0, 1), BuildingBlock: OJICUG_clean_linker_0, # of connection points: 2
#     Edge 33, Type (0, 1), BuildingBlock: OJICUG_clean_linker_0, # of connection points: 2
#     Edge 34, Type (0, 1), BuildingBlock: OJICUG_clean_linker_0, # of connection points: 2
#     Edge 35, Type (0, 1), BuildingBlock: OJICUG_clean_linker_0, # of connection points: 2
# Relax obj value: 0.300
# Max RMSD: 0.188
# Mean RMSD: 0.160
data_MOF--net-zzz--node1-OLANEW_clean_sbu_2--node2-BETDIP_clean_sbu_0--edge1-OJICUG_clean_linker_0
_symmetry_space_group_name_H-M    P1
_symmetry_Int_Tables_number       1
_symmetry_cell_setting            triclinic
loop_
_symmetry_equiv_pos_as_xyz
'x, y, z'
_cell_length_a     42.235318
_cell_length_b     42.211829
_cell_length_c     11.714551
_cell_angle_alpha  89.382862
_cell_angle_beta   89.761313
_cell_angle_gamma 90.036877
loop_
_atom_site_label
_atom_site_type_symbol
_atom_site_fract_x
_atom_site_fract_y
_atom_site_fract_z
_atom_type_partial_charge
O0 O 0.71819 0.60824 0.29196 0.0
Cd1 Cd 0.66498 0.62459 0.34718 0.0
O2 O 0.70625 0.56117 0.3614 0.0
Cd3 Cd 0.72419 0.51458 0.41141 0.0
O4 O 0.77064 0.49684 0.46079 0.0
C5 C 0.78328 0.51239 0.54085 0.0
O6 O 0.76695 0.53518 0.58887 0.0
C7 C 0.72579 0.57958 0.31097 0.0
C8 C 0.62193 0.59802 0.19627 0.0
O9 O 0.63452 0.62515 0.17616 0.0
O10 O 0.62925 0.58361 0.28933 0.0
O11 O 0.86698 0.71266 0.17452 0.0
Cd12 Cd 0.84587 0.65906 0.19589 0.0
O13 O 0.90435 0.70057 0.29813 0.0
Cd14 Cd 0.94506 0.71967 0.3898 0.0
O15 O 0.9682 0.76374 0.43991 0.0
C16 C 0.95824 0.77675 0.53043 0.0
O17 O 0.93644 0.76218 0.5918 0.0
C18 C 0.89199 0.72006 0.22785 0.0
C19 C 0.88184 0.62024 0.05467 0.0
O20 O 0.8563 0.63318 0.01841 0.0
O21 O 0.88972 0.6248 0.15875 0.0
O22 O 0.77771 0.86748 0.16454 0.0
Cd23 Cd 0.83082 0.84594 0.18925 0.0
O24 O 0.7914 0.90438 0.28567 0.0
Cd25 Cd 0.7757 0.94527 0.38316 0.0
O26 O 0.73245 0.96885 0.43804 0.0
C27 C 0.71921 0.95882 0.52895 0.0
O28 O 0.73333 0.93669 0.58983 0.0
C29 C 0.77125 0.89279 0.2173 0.0
C30 C 0.87166 0.88157 0.05139 0.0
O31 O 0.85823 0.85651 0.0141 0.0
O32 O 0.86643 0.88937 0.15521 0.0
O33 O 0.60328 0.77884 0.22151 0.0
Cd34 Cd 0.62716 0.83163 0.22368 0.0
O35 O 0.57647 0.78995 0.37697 0.0
Cd36 Cd 0.54517 0.77497 0.51628 0.0
O37 O 0.51899 0.73564 0.59225 0.0
C38 C 0.5243 0.72481 0.69188 0.0
O39 O 0.54483 0.73932 0.75716 0.0
C40 C 0.58324 0.77071 0.29753 0.0
C41 C 0.59681 0.87166 0.06794 0.0
O42 O 0.62094 0.85525 0.03819 0.0
O43 O 0.58728 0.8694 0.17174 0.0
O44 O 0.26071 0.43801 0.38568 0.0
Cd45 Cd 0.31686 0.42774 0.35256 0.0
O46 O 0.25365 0.44104 0.20062 0.0
Cd47 Cd 0.22449 0.45228 0.05261 0.0
O48 O 0.1816 0.46355 0.95883 0.0
C49 C 0.16325 0.4838 0.00352 0.0
O50 O 0.17211 0.49804 0.09732 0.0
C51 C 0.24235 0.44217 0.30133 0.0
C52 C 0.35364 0.46034 0.50937 0.0
O53 O 0.34696 0.47278 0.41212 0.0
O54 O 0.34318 0.43243 0.53159 0.0
O55 O 0.06137 0.25152 0.37705 0.0
Cd56 Cd 0.08351 0.30454 0.34936 0.0
O57 O 0.07903 0.23735 0.20855 0.0
Cd58 Cd 0.08736 0.20047 0.08211 0.0
O59 O 0.07795 0.15337 0.01546 0.0
C60 C 0.05588 0.14952 0.94355 0.0
O61 O 0.04064 0.17446 0.90434 0.0
C62 C 0.06407 0.23066 0.30025 0.0
C63 C 0.05188 0.34837 0.48483 0.0
O64 O 0.04264 0.34264 0.38301 0.0
O65 O 0.07627 0.33354 0.52218 0.0
O66 O 0.24497 0.05528 0.34188 0.0
Cd67 Cd 0.18996 0.0695 0.30301 0.0
O68 O 0.25903 0.08439 0.19383 0.0
Cd69 Cd 0.29647 0.09756 0.07427 0.0
O70 O 0.34378 0.08556 0.01571 0.0
C71 C 0.34747 0.06874 0.9275 0.0
O72 O 0.32256 0.06071 0.86749 0.0
C73 C 0.26655 0.06649 0.2774 0.0
C74 C 0.14824 0.03537 0.44213 0.0
O75 O 0.1557 0.02535 0.34267 0.0
O76 O 0.16042 0.06153 0.47514 0.0
O77 O 0.4786 0.26183 0.31347 0.0
Cd78 Cd 0.46413 0.20821 0.25589 0.0
O79 O 0.45256 0.27951 0.16475 0.0
Cd80 Cd 0.42929 0.31592 0.06055 0.0
O81 O 0.39548 0.3347 0.93762 0.0
C82 C 0.39781 0.35951 0.87585 0.0
O83 O 0.376 0.36514 0.79868 0.0
C84 C 0.4688 0.28504 0.2534 0.0
C85 C 0.48648 0.16189 0.40666 0.0
O86 O 0.50215 0.16944 0.31643 0.0
O87 O 0.4603 0.17628 0.42563 0.0
Tb88 Tb 0.01319 0.95115 0.8638 0.0
Tb89 Tb 0.99753 0.97491 0.62219 0.0
C90 C 0.00951 0.92218 0.05095 0.0
C91 C 0.99326 0.89243 0.08299 0.0
C92 C 0.97208 0.89167 0.17571 0.0
C93 C 0.95483 0.86412 0.20116 0.0
C94 C 0.95861 0.8369 0.13429 0.0
C95 C 0.9798 0.83784 0.04155 0.0
C96 C 0.99696 0.86523 0.01633 0.0
C97 C 0.06209 0.96621 0.73586 0.0
C98 C 0.99649 0.90276 0.6618 0.0
C99 C 0.9977 0.00479 0.43593 0.0
C100 C 0.00343 0.0385 0.40927 0.0
C101 C 0.02206 0.04717 0.31466 0.0
C102 C 0.02992 0.07898 0.29515 0.0
C103 C 0.01955 0.10252 0.37063 0.0
C104 C 0.00043 0.09382 0.46405 0.0
C105 C 0.99228 0.06214 0.48275 0.0
C106 C 0.9489 0.9591 0.752 0.0
C107 C 0.01547 0.0236 0.82325 0.0
O108 O 0.99082 0.94572 0.02299 0.0
O109 O 0.03379 0.91971 0.98129 0.0
O110 O 0.03693 0.95313 0.70319 0.0
O111 O 0.06158 0.96874 0.84618 0.0
O112 O 0.99658 0.90913 0.77249 0.0
O113 O 0.00143 0.92496 0.58302 0.0
O114 O 0.02225 0.9891 0.47436 0.0
O115 O 0.97191 0.99839 0.49421 0.0
O116 O 0.97389 0.97283 0.78277 0.0
O117 O 0.94971 0.95572 0.64208 0.0
O118 O 0.01122 0.0181 0.71307 0.0
O119 O 0.01416 0.00104 0.90222 0.0
H120 H 0.96864 0.91249 0.22761 0.0
H121 H 0.93884 0.864 0.27368 0.0
H122 H 0.98281 0.81748 0.98707 0.0
H123 H 0.01277 0.86516 0.94331 0.0
H124 H 0.03107 0.02929 0.25735 0.0
H125 H 0.04495 0.08506 0.22325 0.0
H126 H 0.99185 0.11153 0.52285 0.0
H127 H 0.97767 0.05605 0.55588 0.0
Tb128 Tb 0.54344 0.01709 0.85222 0.0
Tb129 Tb 0.52111 0.0021 0.61041 0.0
C130 C 0.57102 0.01266 0.04051 0.0
C131 C 0.60044 0.9961 0.07336 0.0
C132 C 0.60004 0.97342 0.162 0.0
C133 C 0.62731 0.95595 0.18794 0.0
C134 C 0.65545 0.96103 0.12586 0.0
C135 C 0.65574 0.98375 0.03734 0.0
C136 C 0.62858 0.00107 0.01133 0.0
C137 C 0.53261 0.06631 0.71969 0.0
C138 C 0.59266 0.99722 0.65451 0.0
C139 C 0.4928 0.00375 0.42269 0.0
C140 C 0.46118 0.01543 0.38994 0.0
C141 C 0.44861 0.04309 0.43815 0.0
C142 C 0.41737 0.05205 0.41598 0.0
C143 C 0.39803 0.03341 0.34602 0.0
C144 C 0.41091 0.00618 0.29572 0.0
C145 C 0.44224 0.99731 0.31739 0.0
C146 C 0.53272 0.95305 0.74433 0.0
C147 C 0.47199 0.02347 0.80688 0.0
O148 O 0.54755 0.99423 0.01134 0.0
O149 O 0.57407 0.0372 0.9716 0.0
O150 O 0.54458 0.04035 0.6903 0.0
O151 O 0.52839 0.06638 0.82956 0.0
O152 O 0.58544 0.99819 0.7648 0.0
O153 O 0.57137 0.00249 0.574 0.0
O154 O 0.51349 0.02517 0.45357 0.0
O155 O 0.49275 0.97894 0.49073 0.0
O156 O 0.52018 0.97888 0.77208 0.0
O157 O 0.53757 0.95325 0.63482 0.0
O158 O 0.47882 0.02066 0.69682 0.0
O159 O 0.49337 0.01927 0.88764 0.0
H160 H 0.57852 0.96896 0.21023 0.0
H161 H 0.62648 0.93871 0.25707 0.0
H162 H 0.67689 0.9878 0.98659 0.0
H163 H 0.62958 0.01796 0.94114 0.0
H164 H 0.46261 0.05734 0.49551 0.0
H165 H 0.40802 0.07299 0.45676 0.0
H166 H 0.39667 0.9916 0.24029 0.0
H167 H 0.45146 0.97586 0.27971 0.0
Tb168 Tb 0.47693 0.53786 0.97424 0.0
Tb169 Tb 0.49388 0.5281 0.72331 0.0
C170 C 0.4798 0.55922 0.17225 0.0
C171 C 0.49271 0.58988 0.21177 0.0
C172 C 0.52171 0.59089 0.27013 0.0
C173 C 0.53626 0.61994 0.29311 0.0
C174 C 0.52189 0.6486 0.25946 0.0
C175 C 0.49229 0.64757 0.20534 0.0
C176 C 0.4779 0.61861 0.18166 0.0
C177 C 0.42873 0.52672 0.84039 0.0
C178 C 0.48767 0.59673 0.80058 0.0
C179 C 0.49761 0.5085 0.52253 0.0
C180 C 0.49608 0.47628 0.47622 0.0
C181 C 0.47624 0.46991 0.38364 0.0
C182 C 0.47255 0.43886 0.34555 0.0
C183 C 0.48877 0.41373 0.39914 0.0
C184 C 0.50899 0.42031 0.49074 0.0
C185 C 0.51253 0.45124 0.5292 0.0
C186 C 0.54125 0.54016 0.8612 0.0
C187 C 0.47659 0.46865 0.88806 0.0
O188 O 0.50064 0.53926 0.13131 0.0
O189 O 0.45415 0.56064 0.10963 0.0
O190 O 0.4531 0.5427 0.81545 0.0
O191 O 0.42949 0.51893 0.94797 0.0
O192 O 0.48936 0.58534 0.90647 0.0
O193 O 0.48397 0.57803 0.71202 0.0
O194 O 0.47128 0.51893 0.56783 0.0
O195 O 0.52235 0.5149 0.58516 0.0
O196 O 0.51753 0.52299 0.88272 0.0
O197 O 0.53974 0.55003 0.75627 0.0
O198 O 0.48135 0.48067 0.78442 0.0
O199 O 0.4775 0.48629 0.98111 0.0
H200 H 0.53361 0.56916 0.29481 0.0
H201 H 0.55891 0.61999 0.33611 0.0
H202 H 0.48076 0.66916 0.17703 0.0
H203 H 0.45564 0.61886 0.13612 0.0
H204 H 0.46305 0.48884 0.3426 0.0
H205 H 0.4563 0.43438 0.27647 0.0
H206 H 0.522 0.4015 0.53316 0.0
H207 H 0.52769 0.4554 0.60188 0.0
Tb208 Tb 0.96349 0.48605 0.88293 0.0
Tb209 Tb 0.98464 0.50055 0.637 0.0
C210 C 0.93546 0.48743 0.07217 0.0
C211 C 0.90482 0.5007 0.10847 0.0
C212 C 0.90259 0.5176 0.21068 0.0
C213 C 0.87391 0.53157 0.24301 0.0
C214 C 0.84701 0.52888 0.17328 0.0
C215 C 0.84952 0.51218 0.07043 0.0
C216 C 0.87804 0.49812 0.03871 0.0
C217 C 0.98503 0.43761 0.7672 0.0
C218 C 0.91305 0.49411 0.67942 0.0
C219 C 0.01405 0.49997 0.45044 0.0
C220 C 0.04698 0.49132 0.41875 0.0
C221 C 0.05487 0.4599 0.39148 0.0
C222 C 0.08633 0.45142 0.36975 0.0
C223 C 0.11059 0.47418 0.37441 0.0
C224 C 0.10254 0.50578 0.39769 0.0
C225 C 0.07113 0.51426 0.41921 0.0
C226 C 0.96299 0.54892 0.75457 0.0
C227 C 0.03506 0.4943 0.84085 0.0
O228 O 0.95666 0.50834 0.04024 0.0
O229 O 0.93443 0.4631 0.00351 0.0
O230 O 0.96846 0.46006 0.72928 0.0
O231 O 0.98827 0.44047 0.8767 0.0
O232 O 0.91964 0.49667 0.78965 0.0
O233 O 0.9354 0.49074 0.60104 0.0
O234 O 0.99566 0.47679 0.48569 0.0
O235 O 0.01063 0.52544 0.51237 0.0
O236 O 0.97965 0.52632 0.79043 0.0
O237 O 0.95946 0.54609 0.64505 0.0
O238 O 0.02897 0.49177 0.73029 0.0
O239 O 0.01239 0.49655 0.91827 0.0
H240 H 0.92306 0.52003 0.26537 0.0
H241 H 0.87265 0.54399 0.32331 0.0
H242 H 0.82944 0.5101 0.01379 0.0
H243 H 0.8791 0.48532 0.95927 0.0
H244 H 0.03682 0.4417 0.38888 0.0
H245 H 0.09174 0.42686 0.35228 0.0
H246 H 0.12058 0.52401 0.39938 0.0
H247 H 0.06586 0.53878 0.43799 0.0
C248 C 0.12191 0.02626 0.63123 0.0
C249 C 0.12639 0.01724 0.51717 0.0
H250 H 0.09819 0.01688 0.78989 0.0
C251 C 0.10991 0.99076 0.47605 0.0
H252 H 0.13429 0.04649 0.66564 0.0
C253 C 0.08915 0.97386 0.54743 0.0
C254 C 0.08466 0.98307 0.661 0.0
H255 H 0.11287 0.98322 0.38858 0.0
H256 H 0.07661 0.9536 0.51394 0.0
C257 C 0.1014 0.00922 0.70261 0.0
C258 C 0.52275 0.11673 0.45396 0.0
C259 C 0.49832 0.13737 0.48682 0.0
H260 H 0.55267 0.07786 0.50244 0.0
C261 C 0.48538 0.13444 0.59721 0.0
H262 H 0.5331 0.11832 0.36934 0.0
C263 C 0.49688 0.11157 0.67357 0.0
C264 C 0.52112 0.09089 0.6402 0.0
H265 H 0.46655 0.15 0.62504 0.0
H266 H 0.48651 0.10978 0.75814 0.0
C267 C 0.53389 0.09355 0.5298 0.0
C268 C 0.37696 0.46502 0.70433 0.0
C269 C 0.37252 0.47778 0.59425 0.0
H270 H 0.39785 0.47086 0.8688 0.0
C271 C 0.38603 0.50738 0.56677 0.0
H272 H 0.36686 0.4423 0.72836 0.0
C273 C 0.4039 0.5237 0.6475 0.0
C274 C 0.40847 0.51073 0.75685 0.0
H275 H 0.383 0.51787 0.48274 0.0
H276 H 0.41425 0.54638 0.62436 0.0
C277 C 0.39455 0.48146 0.78504 0.0
C278 C 0.04469 0.37689 0.66977 0.0
C279 C 0.03469 0.37115 0.5575 0.0
H280 H 0.03661 0.40244 0.82444 0.0
C281 C 0.00786 0.38713 0.51574 0.0
H282 H 0.06524 0.36494 0.70459 0.0
C283 C 0.99153 0.40853 0.5845 0.0
C284 C 0.00169 0.41434 0.69616 0.0
H285 H -0.00054 0.38317 0.42984 0.0
H286 H 0.97084 0.42042 0.55047 0.0
C287 C 0.02826 0.39823 0.7386 0.0
C288 C 0.90583 0.92935 0.01576 0.0
C289 C 0.8918 0.90138 0.9756 0.0
H290 H 0.93432 0.9701 0.97498 0.0
C291 C 0.89629 0.89304 0.86086 0.0
H292 H 0.90272 0.9365 0.10361 0.0
C293 C 0.91429 0.91226 0.7878 0.0
C294 C 0.92846 0.94003 0.82824 0.0
H295 H 0.88582 0.87168 0.82713 0.0
H296 H 0.9176 0.90505 0.70007 0.0
C297 C 0.92392 0.94855 0.94247 0.0
C298 C 0.55277 0.90889 0.01665 0.0
C299 C 0.58013 0.89219 0.98448 0.0
H300 H 0.51582 0.94064 0.96433 0.0
C301 C 0.59112 0.89494 0.87129 0.0
H302 H 0.54361 0.9072 0.103 0.0
C303 C 0.5752 0.91413 0.7923 0.0
C304 C 0.54814 0.93108 0.82521 0.0
H305 H 0.61211 0.88239 0.84371 0.0
H306 H 0.58448 0.91627 0.7062 0.0
C307 C 0.53686 0.92803 0.93752 0.0
C308 C 0.59332 0.59932 0.00986 0.0
C309 C 0.60044 0.58338 0.1125 0.0
H310 H 0.56918 0.5979 0.84973 0.0
C311 C 0.58768 0.553 0.13223 0.0
H312 H 0.60266 0.62277 0.9921 0.0
C313 C 0.5684 0.5388 0.05046 0.0
C314 C 0.56167 0.55469 0.94769 0.0
H315 H 0.59272 0.5401 0.21047 0.0
H316 H 0.559 0.51531 0.06705 0.0
C317 C 0.57429 0.58503 0.92802 0.0
C318 C 0.89359 0.59659 0.86343 0.0
C319 C 0.90242 0.60179 0.97739 0.0
H320 H 0.9061 0.57595 0.70282 0.0
C321 C 0.9318 0.59033 0.01565 0.0
H322 H 0.87114 0.60517 0.8312 0.0
C323 C 0.95188 0.57403 0.94171 0.0
C324 C 0.94285 0.5685 0.82863 0.0
H325 H 0.93945 0.59412 0.10259 0.0
H326 H 0.97449 0.56563 0.97312 0.0
C327 C 0.91369 0.58015 0.78959 0.0
C328 C 0.0525 0.18432 0.42838 0.0
C329 C 0.05101 0.19857 0.3197 0.0
H330 H 0.04393 0.1425 0.52938 0.0
C331 C 0.03721 0.18179 0.22977 0.0
H332 H 0.0627 0.19688 0.49952 0.0
C333 C 0.02693 0.1506 0.2462 0.0
C334 C 0.02942 0.13593 0.35388 0.0
H335 H 0.03421 0.19284 0.14675 0.0
H336 H 0.0168 0.13801 0.17496 0.0
C337 C 0.04178 0.15326 0.44538 0.0
C338 C 0.3086 0.02671 0.32329 0.0
C339 C 0.30002 0.05804 0.29689 0.0
H340 H 0.34648 0.99428 0.35816 0.0
C341 C 0.32371 0.08132 0.28878 0.0
H342 H 0.29072 0.00839 0.33076 0.0
C343 C 0.35552 0.07334 0.30442 0.0
C344 C 0.36427 0.04187 0.32841 0.0
H345 H 0.3176 0.10579 0.27091 0.0
H346 H 0.37331 0.09173 0.29651 0.0
C347 C 0.34048 0.01864 0.33793 0.0
C348 C 0.47889 0.3423 0.20931 0.0
C349 C 0.47468 0.31782 0.29005 0.0
H350 H 0.48713 0.39182 0.1807 0.0
C351 C 0.47594 0.32488 0.40674 0.0
H352 H 0.47922 0.33735 0.11886 0.0
C353 C 0.48048 0.35603 0.44213 0.0
C354 C 0.48417 0.38066 0.3614 0.0
H355 H 0.47277 0.30641 0.47072 0.0
H356 H 0.48057 0.3609 0.53274 0.0
C357 C 0.48353 0.37345 0.24465 0.0
C358 C 0.19977 0.46963 0.41042 0.0
C359 C 0.20859 0.44956 0.32106 0.0
H360 H 0.16195 0.49318 0.49715 0.0
C361 C 0.18492 0.4365 0.25204 0.0
H362 H 0.21755 0.47973 0.4657 0.0
C363 C 0.15304 0.4441 0.27007 0.0
C364 C 0.14427 0.46508 0.35711 0.0
H365 H 0.19102 0.42028 0.18444 0.0
H366 H 0.13536 0.43417 0.21408 0.0
C367 C 0.16799 0.4775 0.42779 0.0
C368 C 0.89219 0.77929 0.2089 0.0
C369 C 0.90818 0.75024 0.2035 0.0
H370 H 0.89595 0.82985 0.1943 0.0
C371 C 0.94049 0.74984 0.17576 0.0
H372 H 0.86721 0.78005 0.23014 0.0
C373 C 0.95678 0.778 0.15499 0.0
C374 C 0.94108 0.80725 0.16095 0.0
H375 H 0.9532 0.72761 0.17029 0.0
H376 H 0.98182 0.77685 0.13509 0.0
C377 C 0.90865 0.80768 0.18911 0.0
C378 C 0.74183 0.9425 0.177 0.0
C379 C 0.74128 0.90964 0.19587 0.0
H380 H 0.71515 0.9845 0.14317 0.0
C381 C 0.71226 0.89346 0.19184 0.0
H382 H 0.76402 0.9554 0.17712 0.0
C383 C 0.68411 0.91015 0.17163 0.0
C384 C 0.68474 0.94314 0.153 0.0
H385 H 0.71135 0.86804 0.20524 0.0
H386 H 0.66199 0.89722 0.16834 0.0
C387 C 0.7139 0.95909 0.15637 0.0
C388 C 0.53571 0.73571 0.31926 0.0
C389 C 0.56798 0.7392 0.29284 0.0
H390 H 0.49602 0.70428 0.33236 0.0
C391 C 0.58518 0.7126 0.25707 0.0
H392 H 0.52157 0.75601 0.34295 0.0
C393 C 0.57043 0.683 0.24925 0.0
C394 C 0.5381 0.67949 0.27576 0.0
H395 H 0.61003 0.71472 0.23488 0.0
H396 H 0.58409 0.66305 0.21931 0.0
C397 C 0.52096 0.70617 0.31143 0.0
C398 C 0.75889 0.53763 0.22352 0.0
C399 C 0.75692 0.56746 0.27454 0.0
H400 H 0.78878 0.50174 0.15498 0.0
C401 C 0.78469 0.5852 0.28974 0.0
H402 H 0.73772 0.52384 0.20817 0.0
C403 C 0.81411 0.57272 0.25761 0.0
C404 C 0.8161 0.54249 0.20843 0.0
H405 H 0.78367 0.60843 0.32793 0.0
H406 H 0.83522 0.58683 0.27007 0.0
C407 C 0.78811 0.52517 0.19167 0.0
C408 C 0.02429 0.11277 0.82213 0.0
C409 C 0.04571 0.11727 0.91196 0.0
H410 H 0.99763 0.07955 0.72484 0.0
C411 C 0.05645 0.09072 0.97408 0.0
H412 H 0.01556 0.13273 0.77265 0.0
C413 C 0.04568 0.06035 0.94786 0.0
C414 C 0.02457 0.05588 0.8572 0.0
H415 H 0.07305 0.0934 0.04348 0.0
H416 H 0.05454 0.04031 0.99663 0.0
C417 C 0.01404 0.08234 0.79452 0.0
C418 C 0.38523 0.04521 0.78704 0.0
C419 C 0.3792 0.05689 0.89676 0.0
H420 H 0.41928 0.02545 0.67256 0.0
C421 C 0.40362 0.05655 0.97795 0.0
H422 H 0.36684 0.04511 0.72285 0.0
C423 C 0.43356 0.04493 0.94968 0.0
C424 C 0.43978 0.03378 0.83924 0.0
H425 H 0.39956 0.06505 0.06373 0.0
H426 H 0.45192 0.04521 0.01394 0.0
C427 C 0.41528 0.03396 0.75831 0.0
C428 C 0.43973 0.39277 0.78799 0.0
C429 C 0.42436 0.38189 0.88696 0.0
H430 H 0.46971 0.4276 0.71199 0.0
C431 C 0.43092 0.3964 0.99163 0.0
H432 H 0.43506 0.38189 0.70635 0.0
C433 C 0.45025 0.42347 0.99483 0.0
C434 C 0.46379 0.43585 0.89386 0.0
H435 H 0.4191 0.38844 0.06904 0.0
H436 H 0.45274 0.43591 0.07448 0.0
C437 C 0.45964 0.41907 0.79166 0.0
C438 C 0.10716 0.5007 0.02939 0.0
C439 C 0.13103 0.48854 0.95852 0.0
H440 H 0.05806 0.51182 0.04804 0.0
C441 C 0.12339 0.47941 0.84699 0.0
H442 H 0.11229 0.50768 0.1161 0.0
C443 C 0.09232 0.48205 0.80749 0.0
C444 C 0.06826 0.49338 0.87957 0.0
H445 H 0.14137 0.46998 0.79055 0.0
H446 H 0.08704 0.47447 0.72155 0.0
C447 C 0.07604 0.50289 0.99058 0.0
C448 C 0.98499 0.82867 0.48482 0.0
C449 C 0.96956 0.8085 0.56376 0.0
H450 H 0.00542 0.87456 0.45324 0.0
C451 C 0.96368 0.81944 0.67453 0.0
H452 H 0.98952 0.82099 0.39833 0.0
C453 C 0.97292 0.84982 0.70592 0.0
C454 C 0.98807 0.8702 0.62719 0.0
H455 H 0.95174 0.80458 0.73722 0.0
H456 H 0.96741 0.85757 0.79149 0.0
C457 C 0.99396 0.85936 0.51603 0.0
C458 C 0.66766 0.98517 0.48117 0.0
C459 C 0.68734 0.97004 0.56155 0.0
H460 H 0.62206 0.00537 0.44701 0.0
C461 C 0.67574 0.96432 0.67232 0.0
H462 H 0.67584 0.98954 0.39463 0.0
C463 C 0.64513 0.9735 0.70232 0.0
C464 C 0.6253 0.98837 0.62196 0.0
H465 H 0.69028 0.95259 0.73596 0.0
H466 H 0.63681 0.96831 0.78806 0.0
C467 C 0.63682 0.99406 0.51091 0.0
C468 C 0.51668 0.68087 0.83554 0.0
C469 C 0.51109 0.69366 0.72613 0.0
H470 H 0.51332 0.64013 0.94556 0.0
C471 C 0.49497 0.67523 0.6457 0.0
H472 H 0.52896 0.69451 0.89948 0.0
C473 C 0.48621 0.64413 0.67179 0.0
C474 C 0.49307 0.63084 0.77924 0.0
H475 H 0.49022 0.68432 0.56066 0.0
H476 H 0.47485 0.63023 0.60639 0.0
C477 C 0.50761 0.64976 0.86206 0.0
C478 C 0.83778 0.491 0.50394 0.0
C479 C 0.8162 0.50628 0.57663 0.0
H480 H 0.88567 0.47546 0.47879 0.0
C481 C 0.82667 0.51712 0.68282 0.0
H482 H 0.83043 0.48282 0.42081 0.0
C483 C 0.85801 0.51273 0.71612 0.0
C484 C 0.87974 0.49767 0.64357 0.0
H485 H 0.81065 0.52912 0.74041 0.0
H486 H 0.86534 0.52185 0.79789 0.0
C487 C 0.86939 0.48696 0.53679 0.0
loop_
_geom_bond_atom_site_label_1
_geom_bond_atom_site_label_2
_geom_bond_distance
_geom_bond_site_symmetry_2
_ccdc_geom_bond_type
O0 Cd1 2.300 . S
O0 C7 1.275 . S
Cd1 O0 2.300 . S
Cd1 O9 2.381 . S
Cd1 O10 2.378 . S
O2 Cd3 2.385 . S
O2 C7 1.255 . S
Cd3 O2 2.385 . S
Cd3 O4 2.317 . S
O4 Cd3 2.317 . S
O4 C5 1.232 . S
C5 O4 1.232 . S
C5 O6 1.218 . S
O6 C5 1.218 . S
C7 O0 1.275 . S
C7 O2 1.255 . S
C8 O9 1.258 . S
C8 O10 1.256 . S
O9 Cd1 2.381 . S
O9 C8 1.258 . S
O10 Cd1 2.378 . S
O10 C8 1.256 . S
O11 Cd12 2.300 1_655 S
O11 C18 1.275 1_655 S
Cd12 O11 2.300 1_455 S
Cd12 O20 2.381 1_455 S
Cd12 O21 2.378 . S
O13 Cd14 2.385 . S
O13 C18 1.255 . S
Cd14 O13 2.385 . S
Cd14 O15 2.317 . S
O15 Cd14 2.317 . S
O15 C16 1.232 . S
C16 O15 1.232 . S
C16 O17 1.218 . S
O17 C16 1.218 . S
C18 O11 1.275 1_455 S
C18 O13 1.255 . S
C19 O20 1.258 1_455 S
C19 O21 1.256 . S
O20 Cd12 2.381 1_655 S
O20 C19 1.258 1_655 S
O21 Cd12 2.378 . S
O21 C19 1.256 . S
O22 Cd23 2.300 1_565 S
O22 C29 1.275 1_565 S
Cd23 O22 2.300 1_545 S
Cd23 O31 2.381 1_545 S
Cd23 O32 2.378 . S
O24 Cd25 2.385 . S
O24 C29 1.255 . S
Cd25 O24 2.385 . S
Cd25 O26 2.317 . S
O26 Cd25 2.317 . S
O26 C27 1.232 . S
C27 O26 1.232 . S
C27 O28 1.218 . S
O28 C27 1.218 . S
C29 O22 1.275 1_545 S
C29 O24 1.255 . S
C30 O31 1.258 1_545 S
C30 O32 1.256 . S
O31 Cd23 2.381 1_565 S
O31 C30 1.258 1_565 S
O32 Cd23 2.378 . S
O32 C30 1.256 . S
O33 Cd34 2.300 . S
O33 C40 1.275 . S
Cd34 O33 2.300 . S
Cd34 O42 2.381 . S
Cd34 O43 2.378 . S
O35 Cd36 2.385 . S
O35 C40 1.255 . S
Cd36 O35 2.385 . S
Cd36 O37 2.317 . S
O37 Cd36 2.317 . S
O37 C38 1.232 . S
C38 O37 1.232 . S
C38 O39 1.218 . S
O39 C38 1.218 . S
C40 O33 1.275 . S
C40 O35 1.255 . S
C41 O42 1.258 . S
C41 O43 1.256 . S
O42 Cd34 2.381 . S
O42 C41 1.258 . S
O43 Cd34 2.378 . S
O43 C41 1.256 . S
O44 Cd45 2.300 . S
O44 C51 1.275 . S
Cd45 O44 2.300 . S
Cd45 O53 2.381 . S
Cd45 O54 2.378 . S
O46 Cd47 2.385 1_554 S
O46 C51 1.255 . S
Cd47 O46 2.385 1_556 S
Cd47 O48 2.317 . S
O48 Cd47 2.317 . S
O48 C49 1.232 . S
C49 O48 1.232 . S
C49 O50 1.218 . S
O50 C49 1.218 . S
C51 O44 1.275 . S
C51 O46 1.255 . S
C52 O53 1.258 . S
C52 O54 1.256 . S
O53 Cd45 2.381 . S
O53 C52 1.258 . S
O54 Cd45 2.378 . S
O54 C52 1.256 . S
O55 Cd56 2.300 1_655 S
O55 C62 1.275 1_655 S
Cd56 O55 2.300 1_455 S
Cd56 O64 2.381 1_455 S
Cd56 O65 2.378 . S
O57 Cd58 2.385 1_554 S
O57 C62 1.255 . S
Cd58 O57 2.385 1_556 S
Cd58 O59 2.317 . S
O59 Cd58 2.317 . S
O59 C60 1.232 . S
C60 O59 1.232 . S
C60 O61 1.218 . S
O61 C60 1.218 . S
C62 O55 1.275 1_455 S
C62 O57 1.255 . S
C63 O64 1.258 1_455 S
C63 O65 1.256 . S
O64 Cd56 2.381 1_655 S
O64 C63 1.258 1_655 S
O65 Cd56 2.378 . S
O65 C63 1.256 . S
O66 Cd67 2.300 1_565 S
O66 C73 1.275 1_565 S
Cd67 O66 2.300 1_545 S
Cd67 O75 2.381 1_545 S
Cd67 O76 2.378 . S
O68 Cd69 2.385 1_554 S
O68 C73 1.255 . S
Cd69 O68 2.385 1_556 S
Cd69 O70 2.317 . S
O70 Cd69 2.317 . S
O70 C71 1.232 . S
C71 O70 1.232 . S
C71 O72 1.218 . S
O72 C71 1.218 . S
C73 O66 1.275 1_545 S
C73 O68 1.255 . S
C74 O75 1.258 1_545 S
C74 O76 1.256 . S
O75 Cd67 2.381 1_565 S
O75 C74 1.258 1_565 S
O76 Cd67 2.378 . S
O76 C74 1.256 . S
O77 Cd78 2.300 . S
O77 C84 1.275 . S
Cd78 O77 2.300 . S
Cd78 O86 2.381 . S
Cd78 O87 2.378 . S
O79 Cd80 2.385 1_554 S
O79 C84 1.255 . S
Cd80 O79 2.385 1_556 S
Cd80 O81 2.317 . S
O81 Cd80 2.317 . S
O81 C82 1.232 . S
C82 O81 1.232 . S
C82 O83 1.218 . S
O83 C82 1.218 . S
C84 O77 1.275 . S
C84 O79 1.255 . S
C85 O86 1.258 . S
C85 O87 1.256 . S
O86 Cd78 2.381 . S
O86 C85 1.258 . S
O87 Cd78 2.378 . S
O87 C85 1.256 . S
Tb88 C90 2.809 1_556 S
Tb88 O108 2.486 . S
Tb88 O109 2.440 . S
Tb88 O110 2.658 1_565 S
Tb88 O111 2.409 . S
Tb88 O112 2.378 . S
Tb88 O116 2.325 1_455 S
Tb88 O119 2.341 1_565 S
Tb89 C99 2.809 . S
Tb89 O110 2.325 1_655 S
Tb89 O113 2.341 1_545 S
Tb89 O114 2.484 . S
Tb89 O115 2.440 . S
Tb89 O116 2.658 1_545 S
Tb89 O117 2.409 . S
Tb89 O118 2.378 . S
C90 Tb88 2.809 1_554 S
C90 C91 1.514 . S
C90 O108 1.248 1_554 S
C90 O109 1.266 1_554 S
C91 C90 1.514 . S
C91 C92 1.359 . S
C91 C96 1.348 . S
C92 C91 1.359 . S
C92 C93 1.380 . S
C92 H120 0.929 1_455 S
C93 C92 1.380 . S
C93 C94 1.347 . S
C93 H121 0.931 1_455 S
C94 C93 1.347 . S
C94 C95 1.369 . S
C95 C94 1.369 . S
C95 C96 1.408 . S
C95 H122 0.930 . S
C96 C91 1.348 . S
C96 C95 1.408 . S
C96 H123 0.930 . S
C97 O110 1.281 1_565 S
C97 O111 1.254 . S
C98 O112 1.236 1_655 S
C98 O113 1.266 . S
C99 Tb89 2.809 . S
C99 C100 1.514 . S
C99 O114 1.248 . S
C99 O115 1.266 . S
C100 C99 1.514 . S
C100 C101 1.359 . S
C100 C105 1.348 . S
C101 C100 1.359 . S
C101 C102 1.380 . S
C101 H124 0.929 1_655 S
C102 C101 1.380 . S
C102 C103 1.347 . S
C102 H125 0.931 1_655 S
C103 C102 1.347 . S
C103 C104 1.369 . S
C104 C103 1.369 . S
C104 C105 1.408 . S
C104 H126 0.930 . S
C105 C100 1.348 . S
C105 C104 1.408 . S
C105 H127 0.930 . S
C106 O116 1.281 1_545 S
C106 O117 1.254 . S
C107 O118 1.236 1_455 S
C107 O119 1.266 . S
O108 Tb88 2.486 . S
O108 C90 1.248 1_556 S
O109 Tb88 2.440 . S
O109 C90 1.266 1_556 S
O110 Tb88 2.658 1_545 S
O110 Tb89 2.325 1_455 S
O110 C97 1.281 1_545 S
O111 Tb88 2.409 . S
O111 C97 1.254 . S
O112 Tb88 2.378 . S
O112 C98 1.236 1_455 S
O113 Tb89 2.341 1_565 S
O113 C98 1.266 . S
O114 Tb89 2.484 . S
O114 C99 1.248 . S
O115 Tb89 2.440 . S
O115 C99 1.266 . S
O116 Tb88 2.325 1_655 S
O116 Tb89 2.658 1_565 S
O116 C106 1.281 1_565 S
O117 Tb89 2.409 . S
O117 C106 1.254 . S
O118 Tb89 2.378 . S
O118 C107 1.236 1_655 S
O119 Tb88 2.341 1_545 S
O119 C107 1.266 . S
H120 C92 0.929 1_655 S
H121 C93 0.931 1_655 S
H122 C95 0.930 . S
H123 C96 0.930 . S
H124 C101 0.929 1_455 S
H125 C102 0.931 1_455 S
H126 C104 0.930 . S
H127 C105 0.930 . S
Tb128 C130 2.809 1_556 S
Tb128 O148 2.484 1_556 S
Tb128 O149 2.440 . S
Tb128 O150 2.658 . S
Tb128 O151 2.409 . S
Tb128 O152 2.378 . S
Tb128 O156 2.325 1_545 S
Tb128 O159 2.341 . S
Tb129 C139 2.809 . S
Tb129 O150 2.325 1_565 S
Tb129 O153 2.341 . S
Tb129 O154 2.484 . S
Tb129 O155 2.440 . S
Tb129 O156 2.658 . S
Tb129 O157 2.409 . S
Tb129 O158 2.378 . S
C130 Tb128 2.809 1_554 S
C130 C131 1.514 . S
C130 O148 1.248 . S
C130 O149 1.266 1_554 S
C131 C130 1.514 . S
C131 C132 1.359 . S
C131 C136 1.348 . S
C132 C131 1.359 . S
C132 C133 1.380 . S
C132 H160 0.929 1_545 S
C133 C132 1.380 . S
C133 C134 1.347 . S
C133 H161 0.931 1_545 S
C134 C133 1.347 . S
C134 C135 1.369 . S
C135 C134 1.369 . S
C135 C136 1.408 . S
C135 H162 0.930 . S
C136 C131 1.348 . S
C136 C135 1.408 . S
C136 H163 0.930 . S
C137 O150 1.281 . S
C137 O151 1.254 . S
C138 O152 1.236 1_565 S
C138 O153 1.266 . S
C139 Tb129 2.809 . S
C139 C140 1.514 . S
C139 O154 1.248 . S
C139 O155 1.266 . S
C140 C139 1.514 . S
C140 C141 1.359 . S
C140 C145 1.348 . S
C141 C140 1.359 . S
C141 C142 1.380 . S
C141 H164 0.929 1_565 S
C142 C141 1.380 . S
C142 C143 1.347 . S
C142 H165 0.931 1_565 S
C143 C142 1.347 . S
C143 C144 1.369 . S
C144 C143 1.369 . S
C144 C145 1.408 . S
C144 H166 0.930 . S
C145 C140 1.348 . S
C145 C144 1.408 . S
C145 H167 0.930 . S
C146 O156 1.281 . S
C146 O157 1.254 . S
C147 O158 1.236 1_545 S
C147 O159 1.266 . S
O148 Tb128 2.484 1_554 S
O148 C130 1.248 . S
O149 Tb128 2.440 . S
O149 C130 1.266 1_556 S
O150 Tb128 2.658 . S
O150 Tb129 2.325 1_545 S
O150 C137 1.281 . S
O151 Tb128 2.409 . S
O151 C137 1.254 . S
O152 Tb128 2.378 . S
O152 C138 1.236 1_545 S
O153 Tb129 2.341 . S
O153 C138 1.266 . S
O154 Tb129 2.484 . S
O154 C139 1.248 . S
O155 Tb129 2.440 . S
O155 C139 1.266 . S
O156 Tb128 2.325 1_565 S
O156 Tb129 2.658 . S
O156 C146 1.281 . S
O157 Tb129 2.409 . S
O157 C146 1.254 . S
O158 Tb129 2.378 . S
O158 C147 1.236 1_565 S
O159 Tb128 2.341 . S
O159 C147 1.266 . S
H160 C132 0.929 1_565 S
H161 C133 0.931 1_565 S
H162 C135 0.930 . S
H163 C136 0.930 . S
H164 C141 0.929 1_545 S
H165 C142 0.931 1_545 S
H166 C144 0.930 . S
H167 C145 0.930 . S
Tb168 C170 2.809 1_556 S
Tb168 O188 2.484 1_556 S
Tb168 O189 2.440 . S
Tb168 O190 2.658 . S
Tb168 O191 2.409 . S
Tb168 O192 2.378 . S
Tb168 O196 2.325 . S
Tb168 O199 2.341 . S
Tb169 C179 2.809 . S
Tb169 O190 2.325 . S
Tb169 O193 2.341 . S
Tb169 O194 2.484 . S
Tb169 O195 2.440 . S
Tb169 O196 2.658 . S
Tb169 O197 2.409 . S
Tb169 O198 2.378 . S
C170 Tb168 2.809 1_554 S
C170 C171 1.514 . S
C170 O188 1.248 . S
C170 O189 1.266 1_554 S
C171 C170 1.514 . S
C171 C172 1.359 . S
C171 C176 1.348 . S
C172 C171 1.359 . S
C172 C173 1.380 . S
C172 H200 0.929 . S
C173 C172 1.380 . S
C173 C174 1.347 . S
C173 H201 0.931 . S
C174 C173 1.347 . S
C174 C175 1.369 . S
C175 C174 1.369 . S
C175 C176 1.408 . S
C175 H202 0.930 . S
C176 C171 1.348 . S
C176 C175 1.408 . S
C176 H203 0.930 . S
C177 O190 1.281 . S
C177 O191 1.254 . S
C178 O192 1.236 . S
C178 O193 1.266 . S
C179 Tb169 2.809 . S
C179 C180 1.514 . S
C179 O194 1.248 . S
C179 O195 1.266 . S
C180 C179 1.514 . S
C180 C181 1.359 . S
C180 C185 1.348 . S
C181 C180 1.359 . S
C181 C182 1.380 . S
C181 H204 0.929 . S
C182 C181 1.380 . S
C182 C183 1.347 . S
C182 H205 0.931 . S
C183 C182 1.347 . S
C183 C184 1.369 . S
C184 C183 1.369 . S
C184 C185 1.408 . S
C184 H206 0.930 . S
C185 C180 1.348 . S
C185 C184 1.408 . S
C185 H207 0.930 . S
C186 O196 1.281 . S
C186 O197 1.254 . S
C187 O198 1.236 . S
C187 O199 1.266 . S
O188 Tb168 2.484 1_554 S
O188 C170 1.248 . S
O189 Tb168 2.440 . S
O189 C170 1.266 1_556 S
O190 Tb168 2.658 . S
O190 Tb169 2.325 . S
O190 C177 1.281 . S
O191 Tb168 2.409 . S
O191 C177 1.254 . S
O192 Tb168 2.378 . S
O192 C178 1.236 . S
O193 Tb169 2.341 . S
O193 C178 1.266 . S
O194 Tb169 2.484 . S
O194 C179 1.248 . S
O195 Tb169 2.440 . S
O195 C179 1.266 . S
O196 Tb168 2.325 . S
O196 Tb169 2.658 . S
O196 C186 1.281 . S
O197 Tb169 2.409 . S
O197 C186 1.254 . S
O198 Tb169 2.378 . S
O198 C187 1.236 . S
O199 Tb168 2.341 . S
O199 C187 1.266 . S
H200 C172 0.929 . S
H201 C173 0.931 . S
H202 C175 0.930 . S
H203 C176 0.930 . S
H204 C181 0.929 . S
H205 C182 0.931 . S
H206 C184 0.930 . S
H207 C185 0.930 . S
Tb208 C210 2.809 1_556 S
Tb208 O228 2.484 1_556 S
Tb208 O229 2.440 . S
Tb208 O230 2.658 1_655 S
Tb208 O231 2.409 . S
Tb208 O232 2.378 . S
Tb208 O236 2.325 . S
Tb208 O239 2.341 1_655 S
Tb209 C219 2.809 . S
Tb209 O230 2.325 . S
Tb209 O233 2.341 1_455 S
Tb209 O234 2.484 . S
Tb209 O235 2.440 . S
Tb209 O236 2.658 1_455 S
Tb209 O237 2.409 . S
Tb209 O238 2.378 . S
C210 Tb208 2.809 1_554 S
C210 C211 1.514 . S
C210 O228 1.248 . S
C210 O229 1.266 1_554 S
C211 C210 1.514 . S
C211 C212 1.359 . S
C211 C216 1.348 . S
C212 C211 1.359 . S
C212 C213 1.380 . S
C212 H240 0.929 . S
C213 C212 1.380 . S
C213 C214 1.347 . S
C213 H241 0.931 . S
C214 C213 1.347 . S
C214 C215 1.369 . S
C215 C214 1.369 . S
C215 C216 1.408 . S
C215 H242 0.930 . S
C216 C211 1.348 . S
C216 C215 1.408 . S
C216 H243 0.930 . S
C217 O230 1.277 1_655 S
C217 O231 1.259 . S
C218 O232 1.236 . S
C218 O233 1.266 . S
C219 Tb209 2.809 . S
C219 C220 1.514 . S
C219 O234 1.248 . S
C219 O235 1.266 . S
C220 C219 1.514 . S
C220 C221 1.359 . S
C220 C225 1.348 . S
C221 C220 1.359 . S
C221 C222 1.380 . S
C221 H244 0.929 . S
C222 C221 1.380 . S
C222 C223 1.347 . S
C222 H245 0.931 . S
C223 C222 1.347 . S
C223 C224 1.369 . S
C224 C223 1.369 . S
C224 C225 1.408 . S
C224 H246 0.930 . S
C225 C220 1.348 . S
C225 C224 1.408 . S
C225 H247 0.930 . S
C226 O236 1.274 1_455 S
C226 O237 1.263 . S
C227 O238 1.236 . S
C227 O239 1.266 . S
O228 Tb208 2.484 1_554 S
O228 C210 1.248 . S
O229 Tb208 2.440 . S
O229 C210 1.266 1_556 S
O230 Tb208 2.658 1_455 S
O230 Tb209 2.325 . S
O230 C217 1.277 1_455 S
O231 Tb208 2.409 . S
O231 C217 1.259 . S
O232 Tb208 2.378 . S
O232 C218 1.236 . S
O233 Tb209 2.341 1_655 S
O233 C218 1.266 . S
O234 Tb209 2.484 . S
O234 C219 1.248 . S
O235 Tb209 2.440 . S
O235 C219 1.266 . S
O236 Tb208 2.325 . S
O236 Tb209 2.658 1_655 S
O236 C226 1.274 1_655 S
O237 Tb209 2.409 . S
O237 C226 1.263 . S
O238 Tb209 2.378 . S
O238 C227 1.236 . S
O239 Tb208 2.341 1_455 S
O239 C227 1.266 . S
H240 C212 0.929 . S
H241 C213 0.931 . S
H242 C215 0.930 . S
H243 C216 0.930 . S
H244 C221 0.929 . S
H245 C222 0.931 . S
H246 C224 0.930 . S
H247 C225 0.930 . S
C248 C249 1.385 . S
C248 H252 0.950 . S
C248 C257 1.390 . S
C249 C248 1.385 . S
C249 C251 1.390 1_545 S
H250 C257 0.950 . S
C251 C249 1.390 1_565 S
C251 C253 1.390 . S
C251 H255 0.950 . S
H252 C248 0.950 . S
C253 C251 1.390 . S
C253 C254 1.387 . S
C253 H256 0.950 . S
C254 C253 1.387 . S
C254 C257 1.388 1_565 S
H255 C251 0.950 . S
H256 C253 0.950 . S
C257 C248 1.390 . S
C257 H250 0.950 . S
C257 C254 1.388 1_545 S
C258 C259 1.387 . S
C258 H262 0.950 . S
C258 C267 1.390 . S
C259 C258 1.387 . S
C259 C261 1.387 . S
H260 C267 0.950 . S
C261 C259 1.387 . S
C261 C263 1.390 . S
C261 H265 0.950 . S
H262 C258 0.950 . S
C263 C261 1.390 . S
C263 C264 1.387 . S
C263 H266 0.950 . S
C264 C263 1.387 . S
C264 C267 1.387 . S
H265 C261 0.950 . S
H266 C263 0.950 . S
C267 C258 1.390 . S
C267 H260 0.950 . S
C267 C264 1.387 . S
C268 C269 1.387 . S
C268 H272 0.950 . S
C268 C277 1.390 . S
C269 C268 1.387 . S
C269 C271 1.387 . S
H270 C277 0.950 . S
C271 C269 1.387 . S
C271 C273 1.390 . S
C271 H275 0.950 . S
H272 C268 0.950 . S
C273 C271 1.390 . S
C273 C274 1.387 . S
C273 H276 0.950 . S
C274 C273 1.387 . S
C274 C277 1.387 . S
H275 C271 0.950 . S
H276 C273 0.950 . S
C277 C268 1.390 . S
C277 H270 0.950 . S
C277 C274 1.387 . S
C278 C279 1.399 . S
C278 H282 0.950 . S
C278 C287 1.390 . S
C279 C278 1.399 . S
C279 C281 1.376 1_455 S
H280 C287 0.950 . S
C281 C279 1.376 1_655 S
C281 C283 1.390 . S
C281 H285 0.950 . S
H282 C278 0.950 . S
C283 C281 1.390 . S
C283 C284 1.387 1_655 S
C283 H286 0.950 . S
C284 C283 1.387 1_455 S
C284 C287 1.387 . S
H285 C281 0.950 . S
H286 C283 0.950 . S
C287 C278 1.390 . S
C287 H280 0.950 . S
C287 C284 1.387 . S
C288 C289 1.390 . S
C288 H292 0.950 . S
C288 C297 1.390 . S
C289 C288 1.390 . S
C289 C291 1.385 1_545 S
H290 C297 0.950 . S
C291 C289 1.385 1_565 S
C291 C293 1.390 . S
C291 H295 0.950 . S
H292 C288 0.950 . S
C293 C291 1.390 . S
C293 C294 1.380 1_565 S
C293 H296 0.950 . S
C294 C293 1.380 1_545 S
C294 C297 1.395 . S
H295 C291 0.950 . S
H296 C293 0.950 . S
C297 C288 1.390 . S
C297 H290 0.950 . S
C297 C294 1.395 . S
C298 C299 1.387 . S
C298 H302 0.950 . S
C298 C307 1.390 . S
C299 C298 1.387 . S
C299 C301 1.387 . S
H300 C307 0.950 . S
C301 C299 1.387 . S
C301 C303 1.390 . S
C301 H305 0.950 . S
H302 C298 0.950 . S
C303 C301 1.390 . S
C303 C304 1.387 . S
C303 H306 0.950 . S
C304 C303 1.387 . S
C304 C307 1.387 . S
H305 C301 0.950 . S
H306 C303 0.950 . S
C307 C298 1.390 . S
C307 H300 0.950 . S
C307 C304 1.387 . S
C308 C309 1.387 . S
C308 H312 0.950 . S
C308 C317 1.390 . S
C309 C308 1.387 . S
C309 C311 1.387 . S
H310 C317 0.950 . S
C311 C309 1.387 . S
C311 C313 1.390 . S
C311 H315 0.950 . S
H312 C308 0.950 . S
C313 C311 1.390 . S
C313 C314 1.387 . S
C313 H316 0.950 . S
C314 C313 1.387 . S
C314 C317 1.387 . S
H315 C311 0.950 . S
H316 C313 0.950 . S
C317 C308 1.390 . S
C317 H310 0.950 . S
C317 C314 1.387 . S
C318 C319 1.402 . S
C318 H322 0.950 . S
C318 C327 1.390 . S
C319 C318 1.402 . S
C319 C321 1.374 1_655 S
H320 C327 0.950 . S
C321 C319 1.374 1_455 S
C321 C323 1.390 . S
C321 H325 0.950 . S
H322 C318 0.950 . S
C323 C321 1.390 . S
C323 C324 1.387 1_455 S
C323 H326 0.950 . S
C324 C323 1.387 1_655 S
C324 C327 1.387 . S
H325 C321 0.950 . S
H326 C323 0.950 . S
C327 C318 1.390 . S
C327 H320 0.950 . S
C327 C324 1.387 . S
C328 C329 1.387 . S
C328 H332 0.950 1_655 S
C328 C337 1.390 . S
C329 C328 1.387 . S
C329 C331 1.387 . S
H330 C337 0.950 . S
C331 C329 1.387 . S
C331 C333 1.390 . S
C331 H335 0.950 . S
H332 C328 0.950 1_455 S
C333 C331 1.390 . S
C333 C334 1.387 . S
C333 H336 0.950 . S
C334 C333 1.387 . S
C334 C337 1.387 . S
H335 C331 0.950 . S
H336 C333 0.950 . S
C337 C328 1.390 . S
C337 H330 0.950 . S
C337 C334 1.387 . S
C338 C339 1.387 . S
C338 H342 0.950 . S
C338 C347 1.390 . S
C339 C338 1.387 . S
C339 C341 1.387 1_565 S
H340 C347 0.950 . S
C341 C339 1.387 1_545 S
C341 C343 1.390 1_545 S
C341 H345 0.950 . S
H342 C338 0.950 . S
C343 C341 1.390 1_565 S
C343 C344 1.387 . S
C343 H346 0.950 . S
C344 C343 1.387 . S
C344 C347 1.387 . S
H345 C341 0.950 . S
H346 C343 0.950 . S
C347 C338 1.390 . S
C347 H340 0.950 . S
C347 C344 1.387 . S
C348 C349 1.387 . S
C348 H352 0.950 . S
C348 C357 1.390 . S
C349 C348 1.387 . S
C349 C351 1.387 . S
H350 C357 0.950 . S
C351 C349 1.387 . S
C351 C353 1.390 . S
C351 H355 0.950 . S
H352 C348 0.950 . S
C353 C351 1.390 . S
C353 C354 1.387 . S
C353 H356 0.950 . S
C354 C353 1.387 . S
C354 C357 1.387 . S
H355 C351 0.950 . S
H356 C353 0.950 . S
C357 C348 1.390 . S
C357 H350 0.950 . S
C357 C354 1.387 . S
C358 C359 1.387 . S
C358 H362 0.950 . S
C358 C367 1.390 . S
C359 C358 1.387 . S
C359 C361 1.387 . S
H360 C367 0.950 . S
C361 C359 1.387 . S
C361 C363 1.390 . S
C361 H365 0.950 . S
H362 C358 0.950 . S
C363 C361 1.390 . S
C363 C364 1.387 . S
C363 H366 0.950 . S
C364 C363 1.387 . S
C364 C367 1.387 . S
H365 C361 0.950 . S
H366 C363 0.950 . S
C367 C358 1.390 . S
C367 H360 0.950 . S
C367 C364 1.387 . S
C368 C369 1.387 1_655 S
C368 H372 0.950 . S
C368 C377 1.390 1_655 S
C369 C368 1.387 1_455 S
C369 C371 1.387 . S
H370 C377 0.950 . S
C371 C369 1.387 . S
C371 C373 1.390 . S
C371 H375 0.950 . S
H372 C368 0.950 . S
C373 C371 1.390 . S
C373 C374 1.387 . S
C373 H376 0.950 . S
C374 C373 1.387 . S
C374 C377 1.387 . S
H375 C371 0.950 . S
H376 C373 0.950 . S
C377 C368 1.390 1_455 S
C377 H370 0.950 . S
C377 C374 1.387 . S
C378 C379 1.387 . S
C378 H382 0.950 . S
C378 C387 1.390 . S
C379 C378 1.387 . S
C379 C381 1.387 . S
H380 C387 0.950 . S
C381 C379 1.387 . S
C381 C383 1.390 . S
C381 H385 0.950 1_545 S
H382 C378 0.950 . S
C383 C381 1.390 . S
C383 C384 1.387 . S
C383 H386 0.950 . S
C384 C383 1.387 . S
C384 C387 1.387 . S
H385 C381 0.950 1_565 S
H386 C383 0.950 . S
C387 C378 1.390 . S
C387 H380 0.950 . S
C387 C384 1.387 . S
C388 C389 1.387 . S
C388 H392 0.950 . S
C388 C397 1.390 . S
C389 C388 1.387 . S
C389 C391 1.387 . S
H390 C397 0.950 . S
C391 C389 1.387 . S
C391 C393 1.390 . S
C391 H395 0.950 . S
H392 C388 0.950 . S
C393 C391 1.390 . S
C393 C394 1.387 . S
C393 H396 0.950 . S
C394 C393 1.387 . S
C394 C397 1.387 . S
H395 C391 0.950 . S
H396 C393 0.950 . S
C397 C388 1.390 . S
C397 H390 0.950 . S
C397 C394 1.387 . S
C398 C399 1.387 . S
C398 H402 0.950 . S
C398 C407 1.390 . S
C399 C398 1.387 . S
C399 C401 1.387 . S
H400 C407 0.950 . S
C401 C399 1.387 . S
C401 C403 1.390 . S
C401 H405 0.950 . S
H402 C398 0.950 . S
C403 C401 1.390 . S
C403 C404 1.387 . S
C403 H406 0.950 . S
C404 C403 1.387 . S
C404 C407 1.387 . S
H405 C401 0.950 . S
H406 C403 0.950 . S
C407 C398 1.390 . S
C407 H400 0.950 . S
C407 C404 1.387 . S
C408 C409 1.387 . S
C408 H412 0.950 1_455 S
C408 C417 1.390 . S
C409 C408 1.387 . S
C409 C411 1.387 . S
H410 C417 0.950 . S
C411 C409 1.387 . S
C411 C413 1.390 . S
C411 H415 0.950 . S
H412 C408 0.950 1_655 S
C413 C411 1.390 . S
C413 C414 1.387 . S
C413 H416 0.950 . S
C414 C413 1.387 . S
C414 C417 1.387 . S
H415 C411 0.950 . S
H416 C413 0.950 . S
C417 C408 1.390 . S
C417 H410 0.950 . S
C417 C414 1.387 . S
C418 C419 1.387 1_565 S
C418 H422 0.950 . S
C418 C427 1.390 . S
C419 C418 1.387 1_545 S
C419 C421 1.387 . S
H420 C427 0.950 . S
C421 C419 1.387 . S
C421 C423 1.390 . S
C421 H425 0.950 . S
H422 C418 0.950 . S
C423 C421 1.390 . S
C423 C424 1.387 . S
C423 H426 0.950 . S
C424 C423 1.387 . S
C424 C427 1.387 1_545 S
H425 C421 0.950 . S
H426 C423 0.950 . S
C427 C418 1.390 . S
C427 H420 0.950 . S
C427 C424 1.387 1_565 S
C428 C429 1.387 . S
C428 H432 0.950 . S
C428 C437 1.390 . S
C429 C428 1.387 . S
C429 C431 1.387 . S
H430 C437 0.950 . S
C431 C429 1.387 . S
C431 C433 1.390 . S
C431 H435 0.950 . S
H432 C428 0.950 . S
C433 C431 1.390 . S
C433 C434 1.387 . S
C433 H436 0.950 . S
C434 C433 1.387 . S
C434 C437 1.387 . S
H435 C431 0.950 . S
H436 C433 0.950 . S
C437 C428 1.390 . S
C437 H430 0.950 . S
C437 C434 1.387 . S
C438 C439 1.387 . S
C438 H442 0.950 . S
C438 C447 1.390 . S
C439 C438 1.387 . S
C439 C441 1.387 . S
H440 C447 0.950 . S
C441 C439 1.387 . S
C441 C443 1.390 . S
C441 H445 0.950 . S
H442 C438 0.950 . S
C443 C441 1.390 . S
C443 C444 1.387 . S
C443 H446 0.950 . S
C444 C443 1.387 . S
C444 C447 1.387 . S
H445 C441 0.950 . S
H446 C443 0.950 . S
C447 C438 1.390 . S
C447 H440 0.950 . S
C447 C444 1.387 . S
C448 C449 1.387 . S
C448 H452 0.950 . S
C448 C457 1.390 . S
C449 C448 1.387 . S
C449 C451 1.387 1_655 S
H450 C457 0.950 . S
C451 C449 1.387 1_455 S
C451 C453 1.390 . S
C451 H455 0.950 . S
H452 C448 0.950 . S
C453 C451 1.390 . S
C453 C454 1.387 1_455 S
C453 H456 0.950 . S
C454 C453 1.387 1_655 S
C454 C457 1.387 . S
H455 C451 0.950 . S
H456 C453 0.950 . S
C457 C448 1.390 . S
C457 H450 0.950 . S
C457 C454 1.387 . S
C458 C459 1.387 1_545 S
C458 H462 0.950 . S
C458 C467 1.390 . S
C459 C458 1.387 1_565 S
C459 C461 1.387 . S
H460 C467 0.950 . S
C461 C459 1.387 . S
C461 C463 1.390 . S
C461 H465 0.950 . S
H462 C458 0.950 . S
C463 C461 1.390 . S
C463 C464 1.387 . S
C463 H466 0.950 . S
C464 C463 1.387 . S
C464 C467 1.387 1_565 S
H465 C461 0.950 . S
H466 C463 0.950 . S
C467 C458 1.390 . S
C467 H460 0.950 . S
C467 C464 1.387 1_545 S
C468 C469 1.387 . S
C468 H472 0.950 . S
C468 C477 1.390 . S
C469 C468 1.387 . S
C469 C471 1.387 . S
H470 C477 0.950 . S
C471 C469 1.387 . S
C471 C473 1.390 . S
C471 H475 0.950 . S
H472 C468 0.950 . S
C473 C471 1.390 . S
C473 C474 1.387 . S
C473 H476 0.950 . S
C474 C473 1.387 . S
C474 C477 1.387 . S
H475 C471 0.950 . S
H476 C473 0.950 . S
C477 C468 1.390 . S
C477 H470 0.950 . S
C477 C474 1.387 . S
C478 C479 1.387 . S
C478 H482 0.950 . S
C478 C487 1.390 . S
C479 C478 1.387 . S
C479 C481 1.387 . S
H480 C487 0.950 . S
C481 C479 1.387 . S
C481 C483 1.390 . S
C481 H485 0.950 . S
H482 C478 0.950 . S
C483 C481 1.390 . S
C483 C484 1.387 . S
C483 H486 0.950 . S
C484 C483 1.387 . S
C484 C487 1.387 . S
H485 C481 0.950 . S
H486 C483 0.950 . S
C487 C478 1.390 . S
C487 H480 0.950 . S
C487 C484 1.387 . S
C249 C74 1.922 . S
C254 C97 2.132 . S
C264 C137 2.154 . S
C259 C85 1.934 . S
C274 C177 2.163 . S
C269 C52 1.943 . S
C284 C217 2.142 1_455 S
C279 C63 1.933 . S
C294 C106 2.135 1_554 S
C289 C30 1.924 . S
C299 C41 1.953 . S
C304 C146 2.155 1_554 S
C309 C8 1.968 . S
C314 C186 2.162 1_554 S
C319 C19 1.936 1_655 S
C324 C226 2.142 1_654 S
C334 C103 0.848 . S
C329 C62 0.873 1_655 S
C344 C143 0.847 . S
C339 C73 0.873 1_565 S
C354 C183 0.832 . S
C349 C84 0.857 . S
C359 C51 0.856 . S
C364 C223 0.832 . S
C369 C18 0.824 . S
C374 C94 0.845 . S
C384 C134 0.849 . S
C379 C29 0.832 . S
C394 C174 0.838 . S
C389 C40 0.827 . S
C399 C7 0.825 . S
C404 C214 0.837 . S
C409 C60 1.945 . S
C414 C107 2.573 . S
C419 C71 1.902 . S
C424 C147 2.536 . S
C434 C187 2.522 . S
C429 C82 1.852 . S
C444 C227 2.561 . S
C439 C49 1.888 . S
C449 C16 2.046 1_655 S
C454 C98 2.580 . S
C464 C138 2.536 . S
C459 C27 2.011 1_565 S
C474 C178 2.521 . S
C469 C38 2.047 . S
C479 C5 2.076 . S
C484 C218 2.565 . S
