# Generated by pormake.
# Topology myd, (4,6)-cn, num edge types: 1
# Building blocks:
#     Node 0, Type 0, BuildingBlock: NAWXER_clean_sbu_0, # of connection points: 4
#     Node 1, Type 0, BuildingBlock: NAWXER_clean_sbu_0, # of connection points: 4
#     Node 2, Type 0, BuildingBlock: NAWXER_clean_sbu_0, # of connection points: 4
#     Node 3, Type 0, BuildingBlock: NAWXER_clean_sbu_0, # of connection points: 4
#     Node 4, Type 0, BuildingBlock: NAWXER_clean_sbu_0, # of connection points: 4
#     Node 5, Type 0, BuildingBlock: NAWXER_clean_sbu_0, # of connection points: 4
#     Node 6, Type 0, BuildingBlock: NAWXER_clean_sbu_0, # of connection points: 4
#     Node 7, Type 0, BuildingBlock: NAWXER_clean_sbu_0, # of connection points: 4
#     Node 8, Type 0, BuildingBlock: NAWXER_clean_sbu_0, # of connection points: 4
#     Node 9, Type 0, BuildingBlock: NAWXER_clean_sbu_0, # of connection points: 4
#     Node 10, Type 0, BuildingBlock: NAWXER_clean_sbu_0, # of connection points: 4
#     Node 11, Type 0, BuildingBlock: NAWXER_clean_sbu_0, # of connection points: 4
#     Node 12, Type 1, BuildingBlock: LEVNOQ01_clean_sbu_1, # of connection points: 6
#     Node 13, Type 1, BuildingBlock: LEVNOQ01_clean_sbu_1, # of connection points: 6
#     Node 14, Type 1, BuildingBlock: LEVNOQ01_clean_sbu_1, # of connection points: 6
#     Node 15, Type 1, BuildingBlock: LEVNOQ01_clean_sbu_1, # of connection points: 6
#     Node 16, Type 1, BuildingBlock: LEVNOQ01_clean_sbu_1, # of connection points: 6
#     Node 17, Type 1, BuildingBlock: LEVNOQ01_clean_sbu_1, # of connection points: 6
#     Node 18, Type 1, BuildingBlock: LEVNOQ01_clean_sbu_1, # of connection points: 6
#     Node 19, Type 1, BuildingBlock: LEVNOQ01_clean_sbu_1, # of connection points: 6
#     Edge 20, Type (0, 1), None
#     Edge 21, Type (0, 1), None
#     Edge 22, Type (0, 1), None
#     Edge 23, Type (0, 1), None
#     Edge 24, Type (0, 1), None
#     Edge 25, Type (0, 1), None
#     Edge 26, Type (0, 1), None
#     Edge 27, Type (0, 1), None
#     Edge 28, Type (0, 1), None
#     Edge 29, Type (0, 1), None
#     Edge 30, Type (0, 1), None
#     Edge 31, Type (0, 1), None
#     Edge 32, Type (0, 1), None
#     Edge 33, Type (0, 1), None
#     Edge 34, Type (0, 1), None
#     Edge 35, Type (0, 1), None
#     Edge 36, Type (0, 1), None
#     Edge 37, Type (0, 1), None
#     Edge 38, Type (0, 1), None
#     Edge 39, Type (0, 1), None
#     Edge 40, Type (0, 1), None
#     Edge 41, Type (0, 1), None
#     Edge 42, Type (0, 1), None
#     Edge 43, Type (0, 1), None
#     Edge 44, Type (0, 1), None
#     Edge 45, Type (0, 1), None
#     Edge 46, Type (0, 1), None
#     Edge 47, Type (0, 1), None
#     Edge 48, Type (0, 1), None
#     Edge 49, Type (0, 1), None
#     Edge 50, Type (0, 1), None
#     Edge 51, Type (0, 1), None
#     Edge 52, Type (0, 1), None
#     Edge 53, Type (0, 1), None
#     Edge 54, Type (0, 1), None
#     Edge 55, Type (0, 1), None
#     Edge 56, Type (0, 1), None
#     Edge 57, Type (0, 1), None
#     Edge 58, Type (0, 1), None
#     Edge 59, Type (0, 1), None
#     Edge 60, Type (0, 1), None
#     Edge 61, Type (0, 1), None
#     Edge 62, Type (0, 1), None
#     Edge 63, Type (0, 1), None
#     Edge 64, Type (0, 1), None
#     Edge 65, Type (0, 1), None
#     Edge 66, Type (0, 1), None
#     Edge 67, Type (0, 1), None
# Relax obj value: 0.222
# Max RMSD: 0.190
# Mean RMSD: 0.135
data_MOF--net-myd--node1-NAWXER_clean_sbu_0--node2-LEVNOQ01_clean_sbu_1--edge1-none
_symmetry_space_group_name_H-M    P1
_symmetry_Int_Tables_number       1
_symmetry_cell_setting            triclinic
loop_
_symmetry_equiv_pos_as_xyz
'x, y, z'
_cell_length_a     20.14239
_cell_length_b     20.44801
_cell_length_c     20.355712
_cell_angle_alpha  93.189867
_cell_angle_beta   94.725208
_cell_angle_gamma 94.293951
loop_
_atom_site_label
_atom_site_type_symbol
_atom_site_fract_x
_atom_site_fract_y
_atom_site_fract_z
_atom_type_partial_charge
C0 C 0.97955 0.18324 0.18894 0.0
C1 C 0.96929 0.36685 0.36419 0.0
O2 O 0.03279 0.20347 0.22513 0.0
Zn3 Zn 0.07127 0.27111 0.30364 0.0
O4 O 0.9254 0.20976 0.19827 0.0
Zn5 Zn 0.95987 0.27399 0.27465 0.0
O6 O 0.02352 0.33806 0.23286 0.0
O7 O 0.13164 0.3355 0.25944 0.0
O8 O 0.91768 0.34344 0.32688 0.0
O9 O 0.0246 0.34093 0.36028 0.0
O10 O 0.09105 0.20804 0.37148 0.0
O11 O 0.98225 0.2096 0.34579 0.0
C12 C 0.08311 0.36069 0.22822 0.0
C13 C 0.03091 0.18638 0.37809 0.0
C14 C 0.05674 0.87503 0.24041 0.0
C15 C 0.03822 0.67087 0.10852 0.0
O16 O 0.10369 0.84372 0.21917 0.0
Zn17 Zn 0.0484 0.77239 0.17673 0.0
O18 O 0.99593 0.85106 0.2301 0.0
Zn19 Zn 0.94294 0.76721 0.17538 0.0
O20 O 0.90177 0.72458 0.24516 0.0
O21 O 0.01136 0.72515 0.26091 0.0
O22 O 0.98098 0.68728 0.12328 0.0
O23 O 0.09069 0.70733 0.12729 0.0
O24 O 0.99914 0.82774 0.1047 0.0
O25 O 0.88986 0.81157 0.10819 0.0
C26 C 0.95337 0.7098 0.2798 0.0
C27 C 0.93996 0.84024 0.08447 0.0
C28 C 0.3894 0.03911 0.16493 0.0
C29 C 0.23493 0.08688 0.33446 0.0
O30 O 0.35888 0.99085 0.18939 0.0
Zn31 Zn 0.28853 0.96777 0.25338 0.0
O32 O 0.38006 0.09806 0.1841 0.0
Zn33 Zn 0.31219 0.07667 0.24612 0.0
O34 O 0.37284 0.03391 0.31948 0.0
O35 O 0.34286 0.92819 0.3248 0.0
O36 O 0.26455 0.13485 0.3079 0.0
O37 O 0.24255 0.02836 0.31452 0.0
O38 O 0.21257 0.93011 0.19092 0.0
O39 O 0.23316 0.03568 0.17745 0.0
C40 C 0.37931 0.97992 0.34706 0.0
C41 C 0.20006 0.9809 0.15973 0.0
C42 C 0.79449 0.4642 0.19142 0.0
C43 C 0.59556 0.44818 0.31528 0.0
O44 O 0.76107 0.4135 0.20813 0.0
Zn45 Zn 0.68913 0.45259 0.24801 0.0
O46 O 0.77406 0.52107 0.20436 0.0
Zn47 Zn 0.68737 0.55634 0.24816 0.0
O48 O 0.72593 0.6124 0.32195 0.0
O49 O 0.74052 0.50729 0.33297 0.0
O50 O 0.61372 0.50626 0.30023 0.0
O51 O 0.62357 0.39906 0.29246 0.0
O52 O 0.63239 0.48662 0.16563 0.0
O53 O 0.63593 0.59495 0.17884 0.0
C54 C 0.74775 0.56715 0.35629 0.0
C55 C 0.61572 0.54185 0.14575 0.0
C56 C 0.18164 0.39993 0.03174 0.0
C57 C 0.35254 0.2422 0.07301 0.0
O58 O 0.19774 0.36483 0.98317 0.0
Zn59 Zn 0.25537 0.29148 0.95832 0.0
O60 O 0.20877 0.39381 0.08989 0.0
Zn61 Zn 0.26548 0.32127 0.0685 0.0
O62 O 0.33371 0.37403 0.01452 0.0
O63 O 0.32289 0.34189 0.90869 0.0
O64 O 0.33561 0.27657 0.12246 0.0
O65 O 0.32335 0.24658 0.01604 0.0
O66 O 0.18365 0.21897 0.93343 0.0
O67 O 0.19134 0.24316 0.04094 0.0
C68 C 0.35391 0.3776 0.95708 0.0
C69 C 0.16313 0.20922 0.99019 0.0
C70 C 0.20451 0.80486 0.44888 0.0
C71 C 0.32901 0.60915 0.42534 0.0
O72 O 0.21831 0.77351 0.39672 0.0
Zn73 Zn 0.26149 0.70266 0.43494 0.0
O74 O 0.22148 0.7831 0.50529 0.0
Zn75 Zn 0.26931 0.69652 0.53803 0.0
O76 O 0.34422 0.7351 0.59215 0.0
O77 O 0.34958 0.75301 0.4866 0.0
O78 O 0.32017 0.62484 0.48543 0.0
O79 O 0.30013 0.63867 0.37907 0.0
O80 O 0.18015 0.64796 0.47129 0.0
O81 O 0.20248 0.64439 0.57906 0.0
C82 C 0.3756 0.75936 0.54639 0.0
C83 C 0.16426 0.62887 0.52705 0.0
C84 C 0.68164 0.89993 0.53174 0.0
C85 C 0.85254 0.7422 0.57301 0.0
O86 O 0.69774 0.86483 0.48318 0.0
Zn87 Zn 0.75537 0.79148 0.45832 0.0
O88 O 0.70877 0.89381 0.5899 0.0
Zn89 Zn 0.76548 0.82127 0.5685 0.0
O90 O 0.83371 0.87403 0.51452 0.0
O91 O 0.82289 0.84189 0.4087 0.0
O92 O 0.83561 0.77657 0.62246 0.0
O93 O 0.82335 0.74658 0.51604 0.0
O94 O 0.68365 0.71897 0.43343 0.0
O95 O 0.69134 0.74316 0.54094 0.0
C96 C 0.85391 0.87761 0.45708 0.0
C97 C 0.66313 0.70922 0.49019 0.0
C98 C 0.58311 0.86069 0.72822 0.0
C99 C 0.53091 0.68638 0.87809 0.0
O100 O 0.52352 0.83806 0.73286 0.0
Zn101 Zn 0.45987 0.77399 0.77466 0.0
O102 O 0.63164 0.8355 0.75945 0.0
Zn103 Zn 0.57128 0.77111 0.80364 0.0
O104 O 0.5328 0.70347 0.72513 0.0
O105 O 0.4254 0.70976 0.69827 0.0
O106 O 0.59105 0.70803 0.87148 0.0
O107 O 0.48225 0.7096 0.84579 0.0
O108 O 0.41768 0.84344 0.82689 0.0
O109 O 0.52461 0.84093 0.86029 0.0
C110 C 0.47956 0.68324 0.68894 0.0
C111 C 0.4693 0.86685 0.8642 0.0
C112 C 0.45337 0.2098 0.77979 0.0
C113 C 0.43997 0.34024 0.58447 0.0
O114 O 0.40176 0.22458 0.74515 0.0
Zn115 Zn 0.44294 0.26721 0.67538 0.0
O116 O 0.51136 0.22515 0.76091 0.0
Zn117 Zn 0.5484 0.27239 0.67673 0.0
O118 O 0.60369 0.34372 0.71917 0.0
O119 O 0.49593 0.35105 0.7301 0.0
O120 O 0.49914 0.32774 0.60469 0.0
O121 O 0.38986 0.31157 0.60819 0.0
O122 O 0.48098 0.18728 0.62327 0.0
O123 O 0.59069 0.20733 0.62728 0.0
C124 C 0.55674 0.37502 0.74041 0.0
C125 C 0.53822 0.17087 0.60851 0.0
C126 C 0.70007 0.48089 0.65972 0.0
C127 C 0.87931 0.47992 0.84706 0.0
O128 O 0.73316 0.53567 0.67744 0.0
Zn129 Zn 0.81219 0.57667 0.74612 0.0
O130 O 0.71257 0.43011 0.69092 0.0
Zn131 Zn 0.78853 0.46777 0.75339 0.0
O132 O 0.74254 0.52836 0.81451 0.0
O133 O 0.76455 0.63485 0.80789 0.0
O134 O 0.84286 0.4282 0.82481 0.0
O135 O 0.87284 0.53391 0.81947 0.0
O136 O 0.88005 0.59805 0.68409 0.0
O137 O 0.8589 0.49084 0.68941 0.0
C138 C 0.73492 0.58688 0.83444 0.0
C139 C 0.88942 0.5391 0.66495 0.0
C140 C 0.29449 0.9642 0.69142 0.0
C141 C 0.09556 0.94818 0.81528 0.0
O142 O 0.26107 0.9135 0.70813 0.0
Zn143 Zn 0.18913 0.95259 0.74801 0.0
O144 O 0.27406 0.02107 0.70436 0.0
Zn145 Zn 0.18737 0.05634 0.74816 0.0
O146 O 0.22593 0.1124 0.82195 0.0
O147 O 0.24052 1.00729 0.83297 0.0
O148 O 0.11372 1.00626 0.80023 0.0
O149 O 0.12356 0.89906 0.79246 0.0
O150 O 0.13239 0.98662 0.66563 0.0
O151 O 0.13592 0.09495 0.67884 0.0
C152 C 0.24774 0.06715 0.85629 0.0
C153 C 0.11572 0.04185 0.64575 0.0
C154 C 0.66426 0.12888 0.02705 0.0
C155 C 0.8756 0.25936 0.0464 0.0
O156 O 0.70248 0.1444 0.07906 0.0
Zn157 Zn 0.76931 0.19652 0.03803 0.0
O158 O 0.68015 0.14796 0.97129 0.0
Zn159 Zn 0.76149 0.20266 0.93494 0.0
O160 O 0.80014 0.13867 0.87908 0.0
O161 O 0.82017 0.12484 0.98544 0.0
O162 O 0.84959 0.25301 0.9866 0.0
O163 O 0.84422 0.2351 0.09215 0.0
O164 O 0.72148 0.2831 0.00529 0.0
O165 O 0.71832 0.27351 0.89671 0.0
C166 C 0.829 0.10914 0.92535 0.0
C167 C 0.70453 0.30487 0.94887 0.0
O168 O 0.01669 0.07929 0.16588 0.0
Mg169 Mg 0.04676 0.04196 0.07483 0.0
O170 O 0.97575 0.12441 0.0809 0.0
Mg171 Mg 0.02297 0.03877 0.00442 0.0
O172 O 0.13778 0.02248 0.06696 0.0
O173 O 0.08342 0.96233 0.13117 0.0
O174 O 0.06305 0.97582 0.91931 0.0
O175 O 0.97535 0.94278 0.04834 0.0
Mg176 Mg 0.90808 0.94446 0.90438 0.0
O177 O 0.92126 0.04149 0.942 0.0
O178 O 0.98625 0.92788 0.84352 0.0
O179 O 0.89718 0.88122 0.98421 0.0
O180 O 0.8334 1.00356 0.87333 0.0
C181 C 0.11158 0.15577 0.00109 0.0
C182 C 0.98412 0.1243 0.14376 0.0
C183 C 0.13976 0.98267 0.11334 0.0
C184 C 0.04681 0.94304 0.86415 0.0
C185 C 0.93368 0.89217 0.03815 0.0
C186 C 0.86416 0.05096 0.91096 0.0
O187 O 0.10695 0.1358 0.05875 0.0
O188 O 0.07392 0.1256 0.95463 0.0
O189 O 0.05929 0.46575 0.20962 0.0
Mg190 Mg 0.96726 0.42514 0.15409 0.0
O191 O 0.07039 0.40111 0.12769 0.0
Mg192 Mg 0.98812 0.4507 0.05675 0.0
O193 O 0.88625 0.46844 0.11897 0.0
O194 O 0.90131 0.43296 0.22142 0.0
O195 O 0.92207 0.47893 0.96095 0.0
O196 O 0.02166 0.55646 0.09392 0.0
Mg197 Mg 0.07636 0.52841 0.94996 0.0
O198 O 0.07835 0.44394 0.99993 0.0
O199 O 0.993 0.49226 0.88285 0.0
O200 O 0.05933 0.61168 0.01171 0.0
O201 O 0.17113 0.49909 0.98257 0.0
C202 C 0.93143 0.30818 0.06359 0.0
C203 C 0.08794 0.41749 0.18771 0.0
C204 C 0.864 0.45732 0.17646 0.0
C205 C 0.93413 0.47932 0.89969 0.0
C206 C 0.04212 0.60971 0.07006 0.0
C207 C 0.14196 0.45403 0.01385 0.0
O208 O 0.94745 0.32324 0.12407 0.0
O209 O 0.94612 0.34875 0.0213 0.0
O210 O 0.21629 0.06665 0.44106 0.0
Mg211 Mg 0.16323 0.97331 0.40596 0.0
O212 O 0.1327 0.07134 0.37229 0.0
Mg213 Mg 0.06357 0.99143 0.42638 0.0
O214 O 0.12943 0.89366 0.45052 0.0
O215 O 0.23429 0.91155 0.42121 0.0
O216 O 0.96812 0.92378 0.45733 0.0
O217 O 0.10313 0.02996 0.53051 0.0
Mg218 Mg 0.95205 0.06797 0.49595 0.0
O219 O 1.00331 0.07899 0.41333 0.0
O220 O 0.88463 0.98908 0.45401 0.0
O221 O 0.01368 0.04958 0.58277 0.0
O222 O 0.97805 0.1644 0.47286 0.0
C223 C 0.07273 0.93064 0.28789 0.0
C224 C 0.19284 0.09147 0.38973 0.0
C225 C 0.18889 0.87355 0.44345 0.0
C226 C 0.90492 0.9318 0.44894 0.0
C227 C 0.07575 0.04287 0.58318 0.0
C228 C 0.01265 0.1414 0.42793 0.0
O229 O 0.13362 0.94839 0.30396 0.0
O230 O 0.02887 0.9459 0.3259 0.0
O231 O 0.95705 0.7277 0.54213 0.0
Mg232 Mg 0.91277 0.67552 0.45123 0.0
O233 O 0.89316 0.64341 0.55412 0.0
Mg234 Mg 0.93975 0.57412 0.4727 0.0
O235 O 0.9571 0.63909 0.37318 0.0
O236 O 0.92255 0.74137 0.38403 0.0
O237 O 0.96531 0.47934 0.40624 0.0
O238 O 0.04824 0.61023 0.50586 0.0
Mg239 Mg 0.01831 0.46574 0.55838 0.0
O240 O 0.93254 0.51378 0.56123 0.0
O241 O 0.98255 0.40037 0.47604 0.0
O242 O 0.10413 0.53039 0.54753 0.0
O243 O 0.98723 0.48799 0.65196 0.0
C244 C 0.79454 0.5842 0.41415 0.0
C245 C 0.91032 0.70284 0.57239 0.0
C246 C 0.94623 0.69592 0.34899 0.0
C247 C 0.96734 0.41803 0.41806 0.0
C248 C 0.10213 0.58848 0.52933 0.0
C249 C 0.94274 0.52197 0.6246 0.0
O250 O 0.80929 0.64443 0.4304 0.0
O251 O 0.8349 0.54215 0.43096 0.0
O252 O 0.55929 0.96575 0.70962 0.0
Mg253 Mg 0.46726 0.92514 0.65409 0.0
O254 O 0.57039 0.90111 0.62769 0.0
Mg255 Mg 0.48812 0.9507 0.55675 0.0
O256 O 0.38625 0.96844 0.61897 0.0
O257 O 0.40131 0.93296 0.72142 0.0
O258 O 0.42207 0.97893 0.46095 0.0
O259 O 0.52166 0.05646 0.59392 0.0
Mg260 Mg 0.57636 0.02841 0.44996 0.0
O261 O 0.57835 0.94394 0.49993 0.0
O262 O 0.493 0.99226 0.38285 0.0
O263 O 0.55933 0.11168 0.51171 0.0
O264 O 0.67113 0.99909 0.48257 0.0
C265 C 0.43142 0.80818 0.5636 0.0
C266 C 0.58794 0.91749 0.68771 0.0
C267 C 0.364 0.95733 0.67646 0.0
C268 C 0.43413 0.97931 0.39969 0.0
C269 C 0.54212 0.10971 0.57006 0.0
C270 C 0.64196 0.95403 0.51386 0.0
O271 O 0.44745 0.82323 0.62408 0.0
O272 O 0.44613 0.84876 0.52131 0.0
O273 O 0.5167 0.57929 0.66588 0.0
Mg274 Mg 0.54677 0.54196 0.57483 0.0
O275 O 0.47575 0.62441 0.58091 0.0
Mg276 Mg 0.52297 0.53877 0.50442 0.0
O277 O 0.63779 0.52248 0.56695 0.0
O278 O 0.58343 0.46234 0.63118 0.0
O279 O 0.56305 0.47582 0.41931 0.0
O280 O 0.47535 0.44278 0.54833 0.0
Mg281 Mg 0.40809 0.44446 0.40438 0.0
O282 O 0.42126 0.54149 0.442 0.0
O283 O 0.48625 0.42788 0.34352 0.0
O284 O 0.39719 0.38122 0.48421 0.0
O285 O 0.3334 0.50357 0.37333 0.0
C286 C 0.61158 0.65577 0.50109 0.0
C287 C 0.48413 0.6243 0.64376 0.0
C288 C 0.63976 0.48267 0.61334 0.0
C289 C 0.54681 0.44304 0.36415 0.0
C290 C 0.43368 0.39218 0.53815 0.0
C291 C 0.36417 0.55096 0.41096 0.0
O292 O 0.60695 0.6358 0.55876 0.0
O293 O 0.57392 0.6256 0.45463 0.0
O294 O 0.71629 0.56666 0.94104 0.0
Mg295 Mg 0.66322 0.47331 0.90597 0.0
O296 O 0.63269 0.57134 0.87228 0.0
Mg297 Mg 0.56357 0.49143 0.92638 0.0
O298 O 0.62944 0.39366 0.95052 0.0
O299 O 0.73429 0.41157 0.92122 0.0
O300 O 0.46812 0.42378 0.95733 0.0
O301 O 0.60313 0.52996 0.03051 0.0
Mg302 Mg 0.45206 0.56797 0.99595 0.0
O303 O 0.50331 0.57898 0.91333 0.0
O304 O 0.38463 0.48908 0.95401 0.0
O305 O 0.51368 0.54958 0.08277 0.0
O306 O 0.47805 0.66439 0.97286 0.0
C307 C 0.57273 0.43064 0.78789 0.0
C308 C 0.69283 0.59147 0.88972 0.0
C309 C 0.68889 0.37356 0.94345 0.0
C310 C 0.40492 0.4318 0.94894 0.0
C311 C 0.57576 0.54287 0.08317 0.0
C312 C 0.51265 0.6414 0.92793 0.0
O313 O 0.63362 0.44838 0.80396 0.0
O314 O 0.52887 0.44589 0.82591 0.0
O315 O 0.45705 0.2277 0.04212 0.0
Mg316 Mg 0.41277 0.17552 0.95123 0.0
O317 O 0.39316 0.14341 0.05412 0.0
Mg318 Mg 0.43975 0.07412 0.9727 0.0
O319 O 0.4571 0.13909 0.87317 0.0
O320 O 0.42255 0.24137 0.88403 0.0
O321 O 0.46531 0.97934 0.90624 0.0
O322 O 0.54824 0.11023 0.00585 0.0
Mg323 Mg 0.51832 0.96575 0.05839 0.0
O324 O 0.43255 0.01378 0.06122 0.0
O325 O 0.48257 0.90038 0.97604 0.0
O326 O 0.60413 0.0304 0.04755 0.0
O327 O 0.48721 0.98799 0.15196 0.0
C328 C 0.29454 0.0842 0.91415 0.0
C329 C 0.41032 0.20284 0.07238 0.0
C330 C 0.44623 0.19592 0.84899 0.0
C331 C 0.46734 0.91803 0.91806 0.0
C332 C 0.60213 0.08848 0.02933 0.0
C333 C 0.44272 0.02197 0.1246 0.0
O334 O 0.30929 0.14443 0.9304 0.0
O335 O 0.33489 0.04215 0.93096 0.0
loop_
_geom_bond_atom_site_label_1
_geom_bond_atom_site_label_2
_geom_bond_distance
_geom_bond_site_symmetry_2
_ccdc_geom_bond_type
C0 O2 1.247 . S
C0 O4 1.258 1_455 S
C1 O8 1.247 1_455 S
C1 O9 1.258 . S
O2 C0 1.247 . S
O2 Zn3 2.028 . S
Zn3 O2 2.028 . S
Zn3 O7 2.035 . S
Zn3 O9 2.035 . S
Zn3 O10 2.028 . S
O4 C0 1.258 1_655 S
O4 Zn5 2.035 . S
Zn5 O4 2.035 . S
Zn5 O6 2.028 . S
Zn5 O8 2.028 . S
Zn5 O11 2.035 . S
O6 Zn5 2.028 . S
O6 C12 1.247 1_655 S
O7 Zn3 2.035 . S
O7 C12 1.258 . S
O8 C1 1.247 1_655 S
O8 Zn5 2.028 . S
O9 C1 1.258 . S
O9 Zn3 2.035 . S
O10 Zn3 2.028 . S
O10 C13 1.247 . S
O11 Zn5 2.035 . S
O11 C13 1.258 1_655 S
C12 O6 1.247 1_455 S
C12 O7 1.258 . S
C13 O10 1.247 . S
C13 O11 1.258 1_455 S
C14 O16 1.247 . S
C14 O18 1.258 1_455 S
C15 O22 1.247 . S
C15 O23 1.258 1_655 S
O16 C14 1.247 . S
O16 Zn17 2.028 . S
Zn17 O16 2.028 . S
Zn17 O21 2.035 . S
Zn17 O23 2.035 . S
Zn17 O24 2.028 . S
O18 C14 1.258 1_655 S
O18 Zn19 2.035 . S
Zn19 O18 2.035 . S
Zn19 O20 2.028 . S
Zn19 O22 2.028 . S
Zn19 O25 2.035 . S
O20 Zn19 2.028 . S
O20 C26 1.247 1_655 S
O21 Zn17 2.035 . S
O21 C26 1.257 . S
O22 C15 1.247 . S
O22 Zn19 2.028 . S
O23 C15 1.258 1_455 S
O23 Zn17 2.035 . S
O24 Zn17 2.028 . S
O24 C27 1.247 . S
O25 Zn19 2.035 . S
O25 C27 1.258 1_655 S
C26 O20 1.247 1_455 S
C26 O21 1.257 . S
C27 O24 1.247 . S
C27 O25 1.258 1_455 S
C28 O30 1.247 1_545 S
C28 O32 1.258 . S
C29 O36 1.247 1_565 S
C29 O37 1.258 . S
O30 C28 1.247 1_565 S
O30 Zn31 2.028 . S
Zn31 O30 2.028 . S
Zn31 O35 2.035 . S
Zn31 O37 2.035 . S
Zn31 O38 2.028 . S
O32 C28 1.258 . S
O32 Zn33 2.035 . S
Zn33 O32 2.035 . S
Zn33 O34 2.028 . S
Zn33 O36 2.028 . S
Zn33 O39 2.035 . S
O34 Zn33 2.028 . S
O34 C40 1.247 1_545 S
O35 Zn31 2.035 . S
O35 C40 1.258 . S
O36 C29 1.247 1_545 S
O36 Zn33 2.028 . S
O37 C29 1.258 . S
O37 Zn31 2.035 . S
O38 Zn31 2.028 . S
O38 C41 1.247 1_565 S
O39 Zn33 2.035 . S
O39 C41 1.258 . S
C40 O34 1.247 1_565 S
C40 O35 1.258 . S
C41 O38 1.247 1_545 S
C41 O39 1.258 . S
C42 O44 1.247 . S
C42 O46 1.258 . S
C43 O50 1.247 . S
C43 O51 1.258 . S
O44 C42 1.247 . S
O44 Zn45 2.028 . S
Zn45 O44 2.028 . S
Zn45 O49 2.035 . S
Zn45 O51 2.035 . S
Zn45 O52 2.028 . S
O46 C42 1.258 . S
O46 Zn47 2.035 . S
Zn47 O46 2.035 . S
Zn47 O48 2.028 . S
Zn47 O50 2.028 . S
Zn47 O53 2.035 . S
O48 Zn47 2.028 . S
O48 C54 1.247 . S
O49 Zn45 2.035 . S
O49 C54 1.258 . S
O50 C43 1.247 . S
O50 Zn47 2.028 . S
O51 C43 1.258 . S
O51 Zn45 2.035 . S
O52 Zn45 2.028 . S
O52 C55 1.247 . S
O53 Zn47 2.035 . S
O53 C55 1.258 . S
C54 O48 1.247 . S
C54 O49 1.258 . S
C55 O52 1.247 . S
C55 O53 1.258 . S
C56 O58 1.247 1_554 S
C56 O60 1.258 . S
C57 O64 1.247 . S
C57 O65 1.258 1_554 S
O58 C56 1.247 1_556 S
O58 Zn59 2.028 . S
Zn59 O58 2.028 . S
Zn59 O63 2.035 . S
Zn59 O65 2.035 . S
Zn59 O66 2.028 . S
O60 C56 1.258 . S
O60 Zn61 2.035 . S
Zn61 O60 2.035 . S
Zn61 O62 2.028 . S
Zn61 O64 2.028 . S
Zn61 O67 2.035 . S
O62 Zn61 2.028 . S
O62 C68 1.247 . S
O63 Zn59 2.035 . S
O63 C68 1.258 1_556 S
O64 C57 1.247 . S
O64 Zn61 2.028 . S
O65 C57 1.258 1_556 S
O65 Zn59 2.035 . S
O66 Zn59 2.028 . S
O66 C69 1.247 1_556 S
O67 Zn61 2.035 . S
O67 C69 1.258 . S
C68 O62 1.247 . S
C68 O63 1.258 1_554 S
C69 O66 1.247 1_554 S
C69 O67 1.258 . S
C70 O72 1.247 . S
C70 O74 1.258 . S
C71 O78 1.247 . S
C71 O79 1.258 . S
O72 C70 1.247 . S
O72 Zn73 2.028 . S
Zn73 O72 2.028 . S
Zn73 O77 2.035 . S
Zn73 O79 2.035 . S
Zn73 O80 2.028 . S
O74 C70 1.258 . S
O74 Zn75 2.035 . S
Zn75 O74 2.035 . S
Zn75 O76 2.028 . S
Zn75 O78 2.028 . S
Zn75 O81 2.035 . S
O76 Zn75 2.028 . S
O76 C82 1.247 . S
O77 Zn73 2.035 . S
O77 C82 1.258 . S
O78 C71 1.247 . S
O78 Zn75 2.028 . S
O79 C71 1.258 . S
O79 Zn73 2.035 . S
O80 Zn73 2.028 . S
O80 C83 1.247 . S
O81 Zn75 2.035 . S
O81 C83 1.258 . S
C82 O76 1.247 . S
C82 O77 1.258 . S
C83 O80 1.247 . S
C83 O81 1.258 . S
C84 O86 1.247 . S
C84 O88 1.258 . S
C85 O92 1.247 . S
C85 O93 1.258 . S
O86 C84 1.247 . S
O86 Zn87 2.028 . S
Zn87 O86 2.028 . S
Zn87 O91 2.035 . S
Zn87 O93 2.035 . S
Zn87 O94 2.028 . S
O88 C84 1.258 . S
O88 Zn89 2.035 . S
Zn89 O88 2.035 . S
Zn89 O90 2.028 . S
Zn89 O92 2.028 . S
Zn89 O95 2.035 . S
O90 Zn89 2.028 . S
O90 C96 1.247 . S
O91 Zn87 2.035 . S
O91 C96 1.258 . S
O92 C85 1.247 . S
O92 Zn89 2.028 . S
O93 C85 1.258 . S
O93 Zn87 2.035 . S
O94 Zn87 2.028 . S
O94 C97 1.247 . S
O95 Zn89 2.035 . S
O95 C97 1.258 . S
C96 O90 1.247 . S
C96 O91 1.258 . S
C97 O94 1.247 . S
C97 O95 1.258 . S
C98 O100 1.247 . S
C98 O102 1.258 . S
C99 O106 1.247 . S
C99 O107 1.258 . S
O100 C98 1.247 . S
O100 Zn101 2.028 . S
Zn101 O100 2.028 . S
Zn101 O105 2.035 . S
Zn101 O107 2.035 . S
Zn101 O108 2.028 . S
O102 C98 1.258 . S
O102 Zn103 2.035 . S
Zn103 O102 2.035 . S
Zn103 O104 2.028 . S
Zn103 O106 2.028 . S
Zn103 O109 2.035 . S
O104 Zn103 2.028 . S
O104 C110 1.247 . S
O105 Zn101 2.035 . S
O105 C110 1.258 . S
O106 C99 1.247 . S
O106 Zn103 2.028 . S
O107 C99 1.258 . S
O107 Zn101 2.035 . S
O108 Zn101 2.028 . S
O108 C111 1.247 . S
O109 Zn103 2.035 . S
O109 C111 1.258 . S
C110 O104 1.247 . S
C110 O105 1.258 . S
C111 O108 1.247 . S
C111 O109 1.258 . S
C112 O114 1.247 . S
C112 O116 1.258 . S
C113 O120 1.247 . S
C113 O121 1.258 . S
O114 C112 1.247 . S
O114 Zn115 2.028 . S
Zn115 O114 2.028 . S
Zn115 O119 2.035 . S
Zn115 O121 2.035 . S
Zn115 O122 2.028 . S
O116 C112 1.258 . S
O116 Zn117 2.035 . S
Zn117 O116 2.035 . S
Zn117 O118 2.028 . S
Zn117 O120 2.028 . S
Zn117 O123 2.035 . S
O118 Zn117 2.028 . S
O118 C124 1.247 . S
O119 Zn115 2.035 . S
O119 C124 1.258 . S
O120 C113 1.247 . S
O120 Zn117 2.028 . S
O121 C113 1.258 . S
O121 Zn115 2.035 . S
O122 Zn115 2.028 . S
O122 C125 1.247 . S
O123 Zn117 2.035 . S
O123 C125 1.258 . S
C124 O118 1.247 . S
C124 O119 1.258 . S
C125 O122 1.247 . S
C125 O123 1.258 . S
C126 O128 1.247 . S
C126 O130 1.258 . S
C127 O134 1.247 . S
C127 O135 1.258 . S
O128 C126 1.247 . S
O128 Zn129 2.028 . S
Zn129 O128 2.028 . S
Zn129 O133 2.035 . S
Zn129 O135 2.035 . S
Zn129 O136 2.028 . S
O130 C126 1.258 . S
O130 Zn131 2.035 . S
Zn131 O130 2.035 . S
Zn131 O132 2.028 . S
Zn131 O134 2.028 . S
Zn131 O137 2.035 . S
O132 Zn131 2.028 . S
O132 C138 1.247 . S
O133 Zn129 2.035 . S
O133 C138 1.258 . S
O134 C127 1.247 . S
O134 Zn131 2.028 . S
O135 C127 1.258 . S
O135 Zn129 2.035 . S
O136 Zn129 2.028 . S
O136 C139 1.247 . S
O137 Zn131 2.035 . S
O137 C139 1.258 . S
C138 O132 1.247 . S
C138 O133 1.258 . S
C139 O136 1.247 . S
C139 O137 1.258 . S
C140 O142 1.247 . S
C140 O144 1.258 1_565 S
C141 O148 1.247 . S
C141 O149 1.258 1_545 S
O142 C140 1.247 . S
O142 Zn143 2.028 . S
Zn143 O142 2.028 . S
Zn143 O147 2.035 . S
Zn143 O149 2.035 . S
Zn143 O150 2.028 . S
O144 C140 1.258 1_545 S
O144 Zn145 2.035 . S
Zn145 O144 2.035 . S
Zn145 O146 2.028 . S
Zn145 O148 2.028 . S
Zn145 O151 2.035 . S
O146 Zn145 2.028 . S
O146 C152 1.247 . S
O147 Zn143 2.035 . S
O147 C152 1.258 1_565 S
O148 C141 1.247 . S
O148 Zn145 2.028 . S
O149 C141 1.258 1_565 S
O149 Zn143 2.035 . S
O150 Zn143 2.028 . S
O150 C153 1.247 . S
O151 Zn145 2.035 . S
O151 C153 1.258 1_545 S
C152 O146 1.247 . S
C152 O147 1.258 1_545 S
C153 O150 1.247 . S
C153 O151 1.258 1_565 S
C154 O156 1.247 . S
C154 O158 1.258 1_554 S
C155 O162 1.247 1_554 S
C155 O163 1.258 . S
O156 C154 1.247 . S
O156 Zn157 2.028 . S
Zn157 O156 2.028 . S
Zn157 O161 2.035 . S
Zn157 O163 2.035 . S
Zn157 O164 2.028 . S
O158 C154 1.258 1_556 S
O158 Zn159 2.035 . S
Zn159 O158 2.035 . S
Zn159 O160 2.028 . S
Zn159 O162 2.028 . S
Zn159 O165 2.035 . S
O160 Zn159 2.028 . S
O160 C166 1.247 1_556 S
O161 Zn157 2.035 . S
O161 C166 1.258 . S
O162 C155 1.247 1_556 S
O162 Zn159 2.028 . S
O163 C155 1.258 . S
O163 Zn157 2.035 . S
O164 Zn157 2.028 . S
O164 C167 1.247 . S
O165 Zn159 2.035 . S
O165 C167 1.258 1_556 S
C166 O160 1.247 1_554 S
C166 O161 1.258 . S
C167 O164 1.247 . S
C167 O165 1.258 1_554 S
O168 Mg169 1.990 . S
O168 C182 1.253 . S
Mg169 O168 1.990 . S
Mg169 O172 2.180 . S
Mg169 O173 2.117 . S
Mg169 O187 2.030 . S
O170 Mg171 2.076 . S
O170 C182 1.262 . S
Mg171 O170 2.076 . S
Mg171 O172 2.099 . S
Mg171 O174 2.079 1_554 S
Mg171 O175 2.072 1_545 S
Mg171 O177 2.099 1_454 S
Mg171 O188 2.079 1_554 S
O172 Mg169 2.180 . S
O172 Mg171 2.099 . S
O172 C183 1.279 . S
O173 Mg169 2.117 . S
O173 C183 1.250 . S
O174 Mg171 2.079 1_556 S
O174 C184 1.264 1_545 S
O175 Mg171 2.072 1_565 S
O175 C185 1.260 1_455 S
Mg176 O177 2.180 1_565 S
Mg176 O178 2.030 1_655 S
Mg176 O179 1.990 1_556 S
Mg176 O180 2.117 1_565 S
O177 Mg171 2.099 1_656 S
O177 Mg176 2.180 1_545 S
O177 C186 1.279 . S
O178 Mg176 2.030 1_455 S
O178 C184 1.248 . S
O179 Mg176 1.990 1_554 S
O179 C185 1.253 . S
O180 Mg176 2.117 1_545 S
O180 C186 1.250 . S
C181 O187 1.248 . S
C181 O188 1.264 1_554 S
C182 O168 1.253 . S
C182 O170 1.262 . S
C183 O172 1.279 . S
C183 O173 1.250 . S
C184 O174 1.264 1_565 S
C184 O178 1.248 . S
C185 O175 1.260 1_655 S
C185 O179 1.253 . S
C186 O177 1.279 . S
C186 O180 1.250 . S
O187 Mg169 2.030 . S
O187 C181 1.248 . S
O188 Mg171 2.079 1_556 S
O188 C181 1.264 1_556 S
O189 Mg190 1.990 . S
O189 C203 1.253 . S
Mg190 O189 1.990 . S
Mg190 O193 2.180 . S
Mg190 O194 2.117 . S
Mg190 O208 2.030 . S
O191 Mg192 2.072 . S
O191 C203 1.260 . S
Mg192 O191 2.072 . S
Mg192 O193 2.099 . S
Mg192 O195 2.079 1_554 S
Mg192 O196 2.072 . S
Mg192 O198 2.099 1_654 S
Mg192 O209 2.079 . S
O193 Mg190 2.180 . S
O193 Mg192 2.099 . S
O193 C204 1.279 . S
O194 Mg190 2.117 . S
O194 C204 1.250 . S
O195 Mg192 2.079 1_556 S
O195 C205 1.264 . S
O196 Mg192 2.072 . S
O196 C206 1.260 1_655 S
Mg197 O198 2.180 . S
Mg197 O199 2.030 1_455 S
Mg197 O200 1.990 1_556 S
Mg197 O201 2.117 . S
O198 Mg192 2.099 1_456 S
O198 Mg197 2.180 . S
O198 C207 1.279 . S
O199 Mg197 2.030 1_655 S
O199 C205 1.248 . S
O200 Mg197 1.990 1_554 S
O200 C206 1.253 . S
O201 Mg197 2.117 . S
O201 C207 1.250 . S
C202 O208 1.248 . S
C202 O209 1.264 . S
C203 O189 1.253 . S
C203 O191 1.260 . S
C204 O193 1.279 . S
C204 O194 1.250 . S
C205 O195 1.264 . S
C205 O199 1.248 . S
C206 O196 1.260 1_455 S
C206 O200 1.253 . S
C207 O198 1.279 . S
C207 O201 1.250 . S
O208 Mg190 2.030 . S
O208 C202 1.248 . S
O209 Mg192 2.079 . S
O209 C202 1.264 . S
O210 Mg211 1.990 . S
O210 C224 1.253 . S
Mg211 O210 1.990 . S
Mg211 O214 2.180 . S
Mg211 O215 2.117 . S
Mg211 O229 2.030 . S
O212 Mg213 2.072 . S
O212 C224 1.260 . S
Mg213 O212 2.072 . S
Mg213 O214 2.099 . S
Mg213 O216 2.079 1_455 S
Mg213 O217 2.072 . S
Mg213 O219 2.099 1_465 S
Mg213 O230 2.079 . S
O214 Mg211 2.180 . S
O214 Mg213 2.099 . S
O214 C225 1.279 . S
O215 Mg211 2.117 . S
O215 C225 1.250 . S
O216 Mg213 2.079 1_655 S
O216 C226 1.264 . S
O217 Mg213 2.072 . S
O217 C227 1.260 1_565 S
Mg218 O219 2.180 . S
Mg218 O220 2.030 1_545 S
Mg218 O221 1.990 1_655 S
Mg218 O222 2.117 . S
O219 Mg213 2.099 1_645 S
O219 Mg218 2.180 . S
O219 C228 1.279 . S
O220 Mg218 2.030 1_565 S
O220 C226 1.248 . S
O221 Mg218 1.990 1_455 S
O221 C227 1.253 . S
O222 Mg218 2.117 . S
O222 C228 1.250 . S
C223 O229 1.248 . S
C223 O230 1.264 . S
C224 O210 1.253 . S
C224 O212 1.260 . S
C225 O214 1.279 . S
C225 O215 1.250 . S
C226 O216 1.264 . S
C226 O220 1.248 . S
C227 O217 1.260 1_545 S
C227 O221 1.253 . S
C228 O219 1.279 . S
C228 O222 1.250 . S
O229 Mg211 2.030 . S
O229 C223 1.248 . S
O230 Mg213 2.079 . S
O230 C223 1.264 . S
O231 Mg232 1.990 . S
O231 C245 1.253 . S
Mg232 O231 1.990 . S
Mg232 O235 2.180 . S
Mg232 O236 2.117 . S
Mg232 O250 2.030 . S
O233 Mg234 2.072 . S
O233 C245 1.260 . S
Mg234 O233 2.072 . S
Mg234 O235 2.099 . S
Mg234 O237 2.079 . S
Mg234 O238 2.072 1_655 S
Mg234 O240 2.099 . S
Mg234 O251 2.079 . S
O235 Mg232 2.180 . S
O235 Mg234 2.099 . S
O235 C246 1.279 . S
O236 Mg232 2.117 . S
O236 C246 1.250 . S
O237 Mg234 2.079 . S
O237 C247 1.264 1_655 S
O238 Mg234 2.072 1_455 S
O238 C248 1.260 . S
Mg239 O240 2.180 1_455 S
Mg239 O241 2.030 . S
Mg239 O242 1.990 . S
Mg239 O243 2.117 1_455 S
O240 Mg234 2.099 . S
O240 Mg239 2.180 1_655 S
O240 C249 1.279 . S
O241 Mg239 2.030 . S
O241 C247 1.248 . S
O242 Mg239 1.990 . S
O242 C248 1.253 . S
O243 Mg239 2.117 1_655 S
O243 C249 1.250 . S
C244 O250 1.248 . S
C244 O251 1.264 . S
C245 O231 1.253 . S
C245 O233 1.260 . S
C246 O235 1.279 . S
C246 O236 1.250 . S
C247 O237 1.264 1_455 S
C247 O241 1.248 . S
C248 O238 1.260 . S
C248 O242 1.253 . S
C249 O240 1.279 . S
C249 O243 1.250 . S
O250 Mg232 2.030 . S
O250 C244 1.248 . S
O251 Mg234 2.079 . S
O251 C244 1.264 . S
O252 Mg253 1.990 . S
O252 C266 1.253 . S
Mg253 O252 1.990 . S
Mg253 O256 2.180 . S
Mg253 O257 2.117 . S
Mg253 O271 2.030 . S
O254 Mg255 2.072 . S
O254 C266 1.260 . S
Mg255 O254 2.072 . S
Mg255 O256 2.099 . S
Mg255 O258 2.079 . S
Mg255 O259 2.072 1_565 S
Mg255 O261 2.099 . S
Mg255 O272 2.079 . S
O256 Mg253 2.180 . S
O256 Mg255 2.099 . S
O256 C267 1.279 . S
O257 Mg253 2.117 . S
O257 C267 1.250 . S
O258 Mg255 2.079 . S
O258 C268 1.264 1_565 S
O259 Mg255 2.072 1_545 S
O259 C269 1.260 . S
Mg260 O261 2.180 1_545 S
Mg260 O262 2.030 . S
Mg260 O263 1.990 . S
Mg260 O264 2.117 1_545 S
O261 Mg255 2.099 . S
O261 Mg260 2.180 1_565 S
O261 C270 1.279 . S
O262 Mg260 2.030 . S
O262 C268 1.248 . S
O263 Mg260 1.990 . S
O263 C269 1.253 . S
O264 Mg260 2.117 1_565 S
O264 C270 1.250 . S
C265 O271 1.248 . S
C265 O272 1.264 . S
C266 O252 1.253 . S
C266 O254 1.260 . S
C267 O256 1.279 . S
C267 O257 1.250 . S
C268 O258 1.264 1_545 S
C268 O262 1.248 . S
C269 O259 1.260 . S
C269 O263 1.253 . S
C270 O261 1.279 . S
C270 O264 1.250 . S
O271 Mg253 2.030 . S
O271 C265 1.248 . S
O272 Mg255 2.079 . S
O272 C265 1.264 . S
O273 Mg274 1.990 . S
O273 C287 1.253 . S
Mg274 O273 1.990 . S
Mg274 O277 2.180 . S
Mg274 O278 2.117 . S
Mg274 O292 2.030 . S
O275 Mg276 2.072 . S
O275 C287 1.260 . S
Mg276 O275 2.072 . S
Mg276 O277 2.099 . S
Mg276 O279 2.079 . S
Mg276 O280 2.072 . S
Mg276 O282 2.099 . S
Mg276 O293 2.079 . S
O277 Mg274 2.180 . S
O277 Mg276 2.099 . S
O277 C288 1.279 . S
O278 Mg274 2.117 . S
O278 C288 1.250 . S
O279 Mg276 2.079 . S
O279 C289 1.264 . S
O280 Mg276 2.072 . S
O280 C290 1.260 . S
Mg281 O282 2.180 . S
Mg281 O283 2.030 . S
Mg281 O284 1.990 . S
Mg281 O285 2.117 . S
O282 Mg276 2.099 . S
O282 Mg281 2.180 . S
O282 C291 1.279 . S
O283 Mg281 2.030 . S
O283 C289 1.248 . S
O284 Mg281 1.990 . S
O284 C290 1.253 . S
O285 Mg281 2.117 . S
O285 C291 1.250 . S
C286 O292 1.248 . S
C286 O293 1.264 . S
C287 O273 1.253 . S
C287 O275 1.260 . S
C288 O277 1.279 . S
C288 O278 1.250 . S
C289 O279 1.264 . S
C289 O283 1.248 . S
C290 O280 1.260 . S
C290 O284 1.253 . S
C291 O282 1.279 . S
C291 O285 1.250 . S
O292 Mg274 2.030 . S
O292 C286 1.248 . S
O293 Mg276 2.079 . S
O293 C286 1.264 . S
O294 Mg295 1.990 . S
O294 C308 1.253 . S
Mg295 O294 1.990 . S
Mg295 O298 2.180 . S
Mg295 O299 2.117 . S
Mg295 O313 2.030 . S
O296 Mg297 2.072 . S
O296 C308 1.260 . S
Mg297 O296 2.072 . S
Mg297 O298 2.099 . S
Mg297 O300 2.079 . S
Mg297 O301 2.072 1_556 S
Mg297 O303 2.099 . S
Mg297 O314 2.079 . S
O298 Mg295 2.180 . S
O298 Mg297 2.099 . S
O298 C309 1.279 . S
O299 Mg295 2.117 . S
O299 C309 1.250 . S
O300 Mg297 2.079 . S
O300 C310 1.264 1_556 S
O301 Mg297 2.072 1_554 S
O301 C311 1.260 . S
Mg302 O303 2.180 1_554 S
Mg302 O304 2.030 . S
Mg302 O305 1.990 . S
Mg302 O306 2.117 1_554 S
O303 Mg297 2.099 . S
O303 Mg302 2.180 1_556 S
O303 C312 1.279 . S
O304 Mg302 2.030 . S
O304 C310 1.248 . S
O305 Mg302 1.990 . S
O305 C311 1.253 . S
O306 Mg302 2.117 1_556 S
O306 C312 1.250 . S
C307 O313 1.248 . S
C307 O314 1.264 . S
C308 O294 1.253 . S
C308 O296 1.260 . S
C309 O298 1.279 . S
C309 O299 1.250 . S
C310 O300 1.264 1_554 S
C310 O304 1.248 . S
C311 O301 1.260 . S
C311 O305 1.253 . S
C312 O303 1.279 . S
C312 O306 1.250 . S
O313 Mg295 2.030 . S
O313 C307 1.248 . S
O314 Mg297 2.079 . S
O314 C307 1.264 . S
O315 Mg316 1.990 . S
O315 C329 1.253 . S
Mg316 O315 1.990 . S
Mg316 O319 2.180 . S
Mg316 O320 2.117 . S
Mg316 O334 2.030 . S
O317 Mg318 2.072 . S
O317 C329 1.260 . S
Mg318 O317 2.072 . S
Mg318 O319 2.099 . S
Mg318 O321 2.079 1_545 S
Mg318 O322 2.072 . S
Mg318 O324 2.099 1_546 S
Mg318 O335 2.079 . S
O319 Mg316 2.180 . S
O319 Mg318 2.099 . S
O319 C330 1.279 . S
O320 Mg316 2.117 . S
O320 C330 1.250 . S
O321 Mg318 2.079 1_565 S
O321 C331 1.264 . S
O322 Mg318 2.072 . S
O322 C332 1.260 1_556 S
Mg323 O324 2.180 . S
Mg323 O325 2.030 1_554 S
Mg323 O326 1.990 1_565 S
Mg323 O327 2.117 . S
O324 Mg318 2.099 1_564 S
O324 Mg323 2.180 . S
O324 C333 1.279 . S
O325 Mg323 2.030 1_556 S
O325 C331 1.248 . S
O326 Mg323 1.990 1_545 S
O326 C332 1.253 . S
O327 Mg323 2.117 . S
O327 C333 1.250 . S
C328 O334 1.248 . S
C328 O335 1.264 . S
C329 O315 1.253 . S
C329 O317 1.260 . S
C330 O319 1.279 . S
C330 O320 1.250 . S
C331 O321 1.264 . S
C331 O325 1.248 . S
C332 O322 1.260 1_554 S
C332 O326 1.253 . S
C333 O324 1.279 . S
C333 O327 1.250 . S
O334 Mg316 2.030 . S
O334 C328 1.248 . S
O335 Mg318 2.079 . S
O335 C328 1.264 . S
C13 C228 2.032 1_455 S
C247 C1 1.966 . S
C185 C27 2.139 1_655 S
C15 C206 1.730 1_655 S
C28 C333 1.552 1_545 S
C55 C311 1.783 . S
C268 C40 2.135 1_545 S
C43 C289 2.002 . S
C207 C56 1.866 1_556 S
C248 C83 1.636 . S
C96 C226 1.893 . S
C71 C291 1.879 . S
C312 C99 2.032 . S
C331 C111 1.966 . S
C113 C290 2.139 . S
C269 C125 1.730 . S
C139 C249 1.557 . S
C153 C227 1.783 1_565 S
C205 C127 2.141 . S
C141 C184 2.003 1_545 S
C270 C84 1.866 . S
C332 C154 1.634 . S
C68 C310 1.893 . S
C166 C186 1.872 1_554 S
C182 C0 1.331 . S
C12 C203 1.218 1_455 S
C223 C14 1.232 . S
C246 C26 1.398 1_655 S
C41 C183 0.766 . S
C42 C204 1.327 . S
C224 C29 1.141 . S
C54 C244 1.020 . S
C69 C181 1.111 . S
C225 C70 1.337 . S
C85 C245 1.515 . S
C82 C265 1.113 . S
C287 C110 1.331 . S
C98 C266 1.218 . S
C124 C307 1.232 . S
C112 C330 1.398 . S
C126 C288 0.768 . S
C267 C140 1.327 . S
C138 C308 1.142 . S
C328 C152 1.019 . S
C286 C97 1.111 . S
C309 C167 1.341 1_556 S
C329 C57 1.515 1_556 S
C155 C202 1.110 . S
