# Generated by pormake.
# Topology nia, (6,6)-cn, num edge types: 1
# Building blocks:
#     Node 0, Type 0, BuildingBlock: KUMBOL_clean_sbu_1, # of connection points: 6
#     Node 1, Type 0, BuildingBlock: KUMBOL_clean_sbu_1, # of connection points: 6
#     Node 2, Type 1, BuildingBlock: MIDCAF_clean_sbu_0, # of connection points: 6
#     Node 3, Type 1, BuildingBlock: MIDCAF_clean_sbu_0, # of connection points: 6
#     Edge 4, Type (0, 1), BuildingBlock: XIVTED_clean_linker_0, # of connection points: 2
#     Edge 5, Type (0, 1), BuildingBlock: XIVTED_clean_linker_0, # of connection points: 2
#     Edge 6, Type (0, 1), BuildingBlock: XIVTED_clean_linker_0, # of connection points: 2
#     Edge 7, Type (0, 1), BuildingBlock: XIVTED_clean_linker_0, # of connection points: 2
#     Edge 8, Type (0, 1), BuildingBlock: XIVTED_clean_linker_0, # of connection points: 2
#     Edge 9, Type (0, 1), BuildingBlock: XIVTED_clean_linker_0, # of connection points: 2
#     Edge 10, Type (0, 1), BuildingBlock: XIVTED_clean_linker_0, # of connection points: 2
#     Edge 11, Type (0, 1), BuildingBlock: XIVTED_clean_linker_0, # of connection points: 2
#     Edge 12, Type (0, 1), BuildingBlock: XIVTED_clean_linker_0, # of connection points: 2
#     Edge 13, Type (0, 1), BuildingBlock: XIVTED_clean_linker_0, # of connection points: 2
#     Edge 14, Type (0, 1), BuildingBlock: XIVTED_clean_linker_0, # of connection points: 2
#     Edge 15, Type (0, 1), BuildingBlock: XIVTED_clean_linker_0, # of connection points: 2
# Relax obj value: 0.171
# Max RMSD: 0.279
# Mean RMSD: 0.201
data_MOF--net-nia--node1-KUMBOL_clean_sbu_1--node2-MIDCAF_clean_sbu_0--edge1-XIVTED_clean_linker_0
_symmetry_space_group_name_H-M    P1
_symmetry_Int_Tables_number       1
_symmetry_cell_setting            triclinic
loop_
_symmetry_equiv_pos_as_xyz
'x, y, z'
_cell_length_a     28.681171
_cell_length_b     28.656338
_cell_length_c     31.494991
_cell_angle_alpha  90.001384
_cell_angle_beta   89.863477
_cell_angle_gamma 135.68331
loop_
_atom_site_label
_atom_site_type_symbol
_atom_site_fract_x
_atom_site_fract_y
_atom_site_fract_z
_atom_type_partial_charge
C0 C 0.91067 0.93021 0.88765 0.0
C1 C 0.792 0.83891 0.90184 0.0
C2 C 0.85607 0.90047 0.91372 0.0
C3 C 0.78415 0.80695 0.86456 0.0
C4 C 0.90272 0.89901 0.84971 0.0
C5 C 0.83929 0.83698 0.83852 0.0
N6 N 0.97207 0.98916 0.89998 0.0
C7 C 0.02674 0.02139 0.87483 0.0
C8 C 0.959 0.93084 0.82435 0.0
C9 C 0.0212 -0.00752 0.83688 0.0
Gd10 Gd 0.03405 -0.00429 0.06365 0.0
Gd11 Gd 0.97663 0.03485 0.96346 0.0
N12 N 0.86522 0.93236 0.94993 0.0
C13 C 0.73734 0.81199 0.92719 0.0
C14 C 0.81103 0.90911 0.97232 0.0
C15 C 0.74678 0.84791 0.96209 0.0
H16 H 0.81611 0.9381 0.99732 0.0
H17 H 0.70435 0.8292 0.98062 0.0
H18 H 0.19778 0.10599 0.03165 0.0
H19 H 0.07433 0.06972 0.88394 0.0
H20 H 0.30511 0.21619 0.05225 0.0
H21 H 0.68737 0.76486 0.91914 0.0
H22 H 0.73537 0.75941 0.85523 0.0
H23 H 0.93016 0.94387 0.14379 0.0
H24 H 0.9549 0.90843 0.79498 0.0
H25 H 0.06486 0.01788 0.81728 0.0
H26 H 0.25968 0.2619 0.1835 0.0
H27 H 0.8323 0.81192 0.8097 0.0
H28 H 0.03764 0.09477 0.23992 0.0
H29 H 0.93218 0.9852 0.21347 0.0
N30 N 0.03238 0.02968 0.1308 0.0
C31 C 0.09139 0.08906 0.14523 0.0
C32 C 0.9759 -0.00791 0.15491 0.0
C33 C 0.03689 0.07685 0.20937 0.0
C34 C 0.97718 0.0151 0.19448 0.0
C35 C 0.09498 0.11466 0.18474 0.0
H36 H 0.15953 0.19808 0.22822 0.0
N37 N 0.14258 0.09959 0.08131 0.0
C38 C 0.14778 0.12538 0.11956 0.0
C39 C 0.26596 0.22169 0.10814 0.0
C40 C 0.20937 0.18775 0.13351 0.0
C41 C 0.19901 0.12986 0.05859 0.0
C42 C 0.26096 0.19193 0.07099 0.0
O43 O 0.98299 0.96092 0.95702 0.0
O44 O 0.94987 0.9099 0.02206 0.0
O45 O 0.08226 0.96224 0.06635 0.0
O46 O 0.00983 0.9297 0.11405 0.0
O47 O 0.92391 0.00731 0.0269 0.0
O48 O 0.92428 0.93456 0.05857 0.0
O49 O 0.03076 0.07143 0.07194 0.0
O50 O 0.05641 0.12156 1.00673 0.0
O51 O 0.92709 0.06558 0.94995 0.0
O52 O 0.01457 0.10812 0.91443 0.0
O53 O 0.09009 0.02835 1.00114 0.0
O54 O 0.08654 0.09838 0.96895 0.0
C55 C 0.95225 0.90798 0.98056 0.0
C56 C 0.90005 0.95979 0.05471 0.0
C57 C 0.01856 0.85632 0.0973 0.0
C58 C 0.02599 0.7786 0.11421 0.0
C59 C 0.92707 0.7392 0.07952 0.0
C60 C 0.95517 0.80386 0.07972 0.0
C61 C 0.96188 0.72642 0.09682 0.0
C62 C 0.05392 0.8437 0.11413 0.0
C63 C 0.04807 0.92425 0.09934 0.0
C64 C 0.21289 0.21381 0.17257 0.0
C65 C 0.15592 0.17735 0.19813 0.0
H66 H 0.31413 0.26967 0.11773 0.0
C67 C 0.05954 0.12387 0.04844 0.0
C68 C 0.11285 0.07548 0.9734 0.0
C69 C 0.93312 0.09373 0.87791 0.0
C70 C 0.87901 0.11563 0.8356 0.0
C71 C 0.89878 0.0529 0.80546 0.0
C72 C 0.92833 0.05963 0.84325 0.0
C73 C 0.87434 0.08075 0.80152 0.0
C74 C 0.90821 0.12146 0.87392 0.0
C75 C 0.96577 0.10276 0.91782 0.0
H76 H 0.87791 0.69872 0.06621 0.0
H77 H 0.92725 0.81278 0.06658 0.0
H78 H 0.93812 0.67547 0.09695 0.0
H79 H 0.10346 0.88496 0.12679 0.0
H80 H 0.89564 0.02677 0.7789 0.0
H81 H 0.94815 0.03895 0.84492 0.0
H82 H 0.85315 0.07621 0.77145 0.0
H83 H 0.91167 0.14759 0.90068 0.0
C84 C 0.05855 0.08522 0.64634 0.0
C85 C 0.15893 0.20444 0.64596 0.0
C86 C 0.10028 0.14657 0.62604 0.0
C87 C 0.177 0.19893 0.68561 0.0
C88 C 0.07442 0.08018 0.6873 0.0
C89 C 0.13489 0.13686 0.70621 0.0
N90 N -9e-05 0.03173 0.62753 0.0
C91 C 0.95142 0.97463 0.65025 0.0
C92 C 0.02759 0.0191 0.70881 0.0
C93 C 0.96512 0.96658 0.69063 0.0
Gd94 Gd 0.02545 0.97972 0.46837 0.0
Gd95 Gd 0.98435 0.049 0.55808 0.0
N96 N 0.08208 0.15006 0.58739 0.0
C97 C 0.19698 0.26618 0.62568 0.0
C98 C 0.11675 0.21031 0.5685 0.0
C99 C 0.17524 0.26921 0.58707 0.0
H100 H 0.09987 0.21248 0.53862 0.0
H101 H 0.20358 0.31681 0.57158 0.0
H102 H 0.96898 0.83985 0.51495 0.0
H103 H 0.90183 0.93544 0.63744 0.0
H104 H 0.86738 0.71883 0.51413 0.0
H105 H 0.24241 0.31182 0.63993 0.0
H106 H 0.22254 0.24262 0.70109 0.0
H107 H 0.02783 0.03976 0.3773 0.0
H108 H 0.03792 0.01309 0.74023 0.0
H109 H 0.92716 0.92034 0.70796 0.0
H110 H 0.74133 0.68896 0.39701 0.0
H111 H 0.14835 0.13371 0.7374 0.0
H112 H 0.84684 0.88077 0.31002 0.0
H113 H 0.95504 -0.0003 0.31469 0.0
N114 N 0.96089 0.94463 0.40724 0.0
C115 C 0.90375 0.87864 0.40413 0.0
C116 C 0.98088 0.98774 0.37508 0.0
C117 C 0.87877 0.89802 0.33724 0.0
C118 C 0.93981 0.96522 0.33977 0.0
C119 C 0.86036 0.85361 0.36944 0.0
H120 H 0.76619 0.76508 0.34175 0.0
N121 N 0.93511 0.86203 0.4668 0.0
C122 C 0.88981 0.83614 0.43535 0.0
C123 C 0.82269 0.72461 0.46237 0.0
C124 C 0.83191 0.76688 0.43258 0.0
C125 C 0.9294 0.82035 0.49325 0.0
C126 C 0.87242 0.75137 0.49225 0.0
O127 O 0.08913 0.10224 0.53977 0.0
O128 O 0.08554 0.02119 0.52875 0.0
O129 O 0.05881 0.93786 0.44068 0.0
O130 O 0.11616 0.0418 0.43099 0.0
O131 O 0.01471 0.09919 0.49372 0.0
O132 O 0.07532 0.08573 0.45652 0.0
O133 O 0.94926 0.98223 0.45944 0.0
O134 O 0.8986 0.953 0.52399 0.0
O135 O 0.93563 0.07879 0.53972 0.0
O136 O 0.93826 0.06038 0.6056 0.0
O137 O 0.00811 0.94356 0.53646 0.0
O138 O 0.93138 0.94121 0.56313 0.0
C139 C 0.11288 0.07738 0.54652 0.0
C140 C 0.05508 0.11479 0.46259 0.0
C141 C 0.17597 0.0138 0.43596 0.0
C142 C 0.24601 -0.00515 0.42578 0.0
C143 C 0.28431 0.08687 0.46983 0.0
C144 C 0.22502 0.06839 0.46235 0.0
C145 C 0.29511 0.05092 0.45149 0.0
C146 C 0.18643 0.97692 0.41808 0.0
C147 C 0.11415 -0.00473 0.42636 0.0
C148 C 0.78655 0.74191 0.39932 0.0
C149 C 0.80079 0.7852 0.36777 0.0
H150 H 0.7789 0.6711 0.46137 0.0
C151 C 0.89544 0.94935 0.48243 0.0
C152 C 0.95975 0.92006 0.56315 0.0
C153 C 0.84607 0.03809 0.58353 0.0
C154 C 0.76509 0.03846 0.60666 0.0
C155 C 0.72783 0.93619 0.58042 0.0
C156 C 0.79398 0.96997 0.57383 0.0
C157 C 0.71331 0.97003 0.59675 0.0
C158 C 0.83156 0.07206 0.59985 0.0
C159 C 0.91595 0.07427 0.57814 0.0
H160 H 0.32227 0.12949 0.48978 0.0
H161 H 0.21784 0.09713 0.47695 0.0
H162 H 0.34233 0.06757 0.45731 0.0
H163 H 0.14761 0.93382 0.39867 0.0
H164 H 0.68767 0.88354 0.57301 0.0
H165 H 0.80449 0.943 0.56147 0.0
H166 H 0.66161 0.94247 0.602 0.0
H167 H 0.87222 0.12494 0.60674 0.0
Zn168 Zn 0.37976 0.68606 0.1896 0.0
Zn169 Zn 0.3399 0.64403 0.33855 0.0
Zn170 Zn 0.36231 0.66399 0.26432 0.0
C171 C 0.468 0.70325 0.3299 0.0
C172 C 0.25086 0.52015 0.30947 0.0
O173 O 0.31692 0.6996 0.24394 0.0
O174 O 0.3113 0.68331 0.17486 0.0
C175 C 0.50464 0.7747 0.21777 0.0
O176 O 0.45987 0.71762 0.29373 0.0
O177 O 0.41852 0.6625 0.3543 0.0
O178 O 0.25272 0.54977 0.34009 0.0
O179 O 0.29203 0.55463 0.27822 0.0
O180 O 0.47423 0.77306 0.18797 0.0
O181 O 0.47105 0.73351 0.24912 0.0
O182 O 0.30706 0.56676 0.23381 0.0
O183 O 0.35949 0.60664 0.17226 0.0
C184 C 0.31916 0.55759 0.19704 0.0
O185 O 0.32771 0.70976 0.28706 0.0
O186 O 0.34351 0.71235 0.35589 0.0
C187 C 0.29602 0.69663 0.20676 0.0
C188 C 0.33058 0.72921 0.32485 0.0
Zn189 Zn 0.64043 0.34543 0.83693 0.0
Zn190 Zn 0.66078 0.38674 0.68294 0.0
Zn191 Zn 0.64798 0.36889 0.76035 0.0
C192 C 0.75592 0.51209 0.71428 0.0
C193 C 0.5345 0.32866 0.70152 0.0
O194 O 0.68543 0.32371 0.7751 0.0
O195 O 0.7004 0.33468 0.84462 0.0
C196 C 0.7048 0.47693 0.8312 0.0
O197 O 0.71979 0.47849 0.74754 0.0
O198 O 0.74704 0.48179 0.68119 0.0
O199 O 0.57919 0.36608 0.67363 0.0
O200 O 0.54832 0.3173 0.7364 0.0
O201 O 0.67186 0.42908 0.8573 0.0
O202 O 0.70832 0.46685 0.79198 0.0
O203 O 0.54206 0.30192 0.78003 0.0
O204 O 0.54323 0.2643 0.84072 0.0
C205 C 0.51101 0.26244 0.81231 0.0
O206 O 0.67998 0.32415 0.73124 0.0
O207 O 0.6588 0.31995 0.66317 0.0
C208 C 0.7062 0.31855 0.80934 0.0
C209 C 0.67565 0.30522 0.69296 0.0
H210 H 0.11057 0.83707 0.18333 0.0
H211 H 0.17981 0.61293 0.1644 0.0
H212 H 0.02834 0.68983 0.08541 0.0
H213 H 0.3131 0.80012 0.23155 0.0
H214 H 0.11103 0.63062 0.14503 0.0
H215 H 0.1742 0.81589 0.21 0.0
C216 C 0.10593 0.80051 0.16727 0.0
C217 C 0.06384 0.76532 0.13185 0.0
C218 C 0.15485 0.66761 0.1644 0.0
C219 C 0.13549 0.73994 0.16303 0.0
C220 C 0.19386 0.65737 0.17562 0.0
C221 C 0.25127 0.70461 0.20023 0.0
C222 C 0.1736 0.72591 0.17759 0.0
C223 C 0.26806 0.76178 0.2135 0.0
C224 C 0.14204 0.78826 0.18275 0.0
C225 C 0.05901 0.7175 0.11313 0.0
N226 N 0.22931 0.771 0.20198 0.0
N227 N 0.09425 0.70625 0.12896 0.0
H228 H 0.13452 0.02523 0.60581 0.0
H229 H 0.49936 0.3813 0.65873 0.0
H230 H 0.22343 0.21101 0.54935 0.0
H231 H 0.4158 0.19966 0.71909 0.0
H232 H 0.39164 0.32033 0.62641 0.0
H233 H 0.23146 0.08752 0.653 0.0
C234 C 0.17479 0.07915 0.60329 0.0
C235 C 0.17151 0.11339 0.57384 0.0
C236 C 0.39624 0.29365 0.64713 0.0
C237 C 0.2816 0.18466 0.62752 0.0
C238 C 0.45767 0.32861 0.6658 0.0
C239 C 0.46636 0.2952 0.69121 0.0
C240 C 0.34326 0.22432 0.65316 0.0
C241 C 0.41088 0.22709 0.69963 0.0
C242 C 0.22961 0.11465 0.63042 0.0
C243 C 0.22417 0.18304 0.5719 0.0
N244 N 0.35172 0.19342 0.67994 0.0
N245 N 0.27712 0.21637 0.59829 0.0
H246 H 0.17454 0.24829 0.0226 0.0
H247 H 0.19807 0.43527 0.22296 0.0
H248 H 0.0304 0.14331 0.12455 0.0
H249 H 0.35907 0.52786 0.13403 0.0
H250 H 0.13523 0.32728 0.18871 0.0
H251 H 0.2411 0.35238 0.06259 0.0
C252 C 0.15663 0.24751 0.05319 0.0
C253 C 0.09705 0.18762 0.07032 0.0
C254 C 0.18468 0.37119 0.17709 0.0
C255 C 0.17277 0.3058 0.11646 0.0
C256 C 0.22082 0.43262 0.19697 0.0
C257 C 0.28391 0.49051 0.18145 0.0
C258 C 0.21167 0.36815 0.14116 0.0
C259 C 0.31033 0.48455 0.14686 0.0
C260 C 0.19486 0.30661 0.07625 0.0
C261 C 0.07633 0.18876 0.11038 0.0
N262 N 0.27389 0.42469 0.12768 0.0
N263 N 0.11406 0.24702 0.13211 0.0
H264 H 0.83054 0.13458 0.66899 0.0
H265 H 0.59615 0.19164 0.64693 0.0
H266 H 0.66535 0.02636 0.5818 0.0
H267 H 0.78153 0.32606 0.7158 0.0
H268 H 0.61543 0.12369 0.62859 0.0
H269 H 0.80797 0.19831 0.69256 0.0
C270 C 0.78966 0.1243 0.6547 0.0
C271 C 0.75005 0.07523 0.62309 0.0
C272 C 0.65188 0.16782 0.64788 0.0
C273 C 0.72375 0.14769 0.65019 0.0
C274 C 0.64085 0.20651 0.65832 0.0
C275 C 0.68686 0.26364 0.68341 0.0
C276 C 0.70981 0.1868 0.66227 0.0
C277 C 0.74435 0.28147 0.69703 0.0
C278 C 0.77672 0.16058 0.66829 0.0
C279 C 0.69686 0.06315 0.60646 0.0
N280 N 0.75426 0.24304 0.68634 0.0
N281 N 0.68547 0.09924 0.62009 0.0
H282 H 0.86613 0.02503 0.07517 0.0
H283 H 0.57046 0.73997 0.23339 0.0
H284 H 0.8159 0.846 0.10379 0.0
H285 H 0.59854 0.89865 0.18327 0.0
H286 H 0.67561 0.79122 0.19943 0.0
H287 H 0.7812 0.99004 0.12561 0.0
C288 C 0.83709 0.9782 0.09198 0.0
C289 C 0.84787 0.93816 0.08498 0.0
C290 C 0.65947 0.81559 0.19671 0.0
C291 C 0.75076 0.89806 0.14336 0.0
C292 C 0.60006 0.78693 0.21661 0.0
C293 C 0.57589 0.81512 0.21091 0.0
C294 C 0.69468 0.87283 0.17123 0.0
C295 C 0.61547 0.87532 0.18828 0.0
C296 C 0.78888 0.95847 0.12105 0.0
C297 C 0.80918 0.87837 0.10815 0.0
N298 N 0.67243 0.90171 0.16887 0.0
N299 N 0.76219 0.86 0.13621 0.0
H300 H 0.02916 0.89455 0.59278 0.0
H301 H 0.72774 0.58212 0.73534 0.0
H302 H 0.83851 0.82704 0.60377 0.0
H303 H 0.88086 0.6044 0.68112 0.0
H304 H 0.78472 0.69184 0.70596 0.0
H305 H -0.01027 0.80596 0.64178 0.0
C306 C 0.97914 0.86137 0.60571 0.0
C307 C 0.937 0.86813 0.59409 0.0
C308 C 0.80668 0.67338 0.7015 0.0
C309 C 0.89206 0.76741 0.65074 0.0
C310 C 0.77478 0.61137 0.71876 0.0
C311 C 0.79985 0.58454 0.71054 0.0
C312 C 0.86417 0.70859 0.67636 0.0
C313 C 0.86015 0.62364 0.68814 0.0
C314 C 0.95686 0.81111 0.63384 0.0
C315 C 0.87285 0.82398 0.61212 0.0
N316 N 0.88997 0.68343 0.67147 0.0
N317 N 0.85225 0.77538 0.63949 0.0
H318 H 0.20462 0.92956 0.34837 0.0
H319 H 0.40737 0.83792 0.37482 0.0
H320 H 0.31209 0.96838 0.46197 0.0
H321 H 0.23135 0.71699 0.29682 0.0
H322 H 0.38705 0.90375 0.39688 0.0
H323 H 0.22515 0.86577 0.32008 0.0
C324 C 0.23217 0.92461 0.36753 0.0
C325 C 0.25701 0.95515 0.40769 0.0
C326 C 0.35323 0.86338 0.3745 0.0
C327 C 0.28203 0.8838 0.37476 0.0
C328 C 0.36497 0.82607 0.36176 0.0
C329 C 0.3217 0.77303 0.33326 0.0
C330 C 0.29759 0.84756 0.35877 0.0
C331 C 0.26708 0.75913 0.31763 0.0
C332 C 0.24411 0.88848 0.35115 0.0
C333 C 0.29331 0.94757 0.43051 0.0
N334 N 0.25642 0.79631 0.33059 0.0
N335 N 0.305 0.91316 0.41363 0.0
H336 H 0.19028 0.18604 0.92147 0.0
H337 H 0.42033 0.13948 0.84815 0.0
H338 H 0.15645 0.01822 0.95695 0.0
H339 H 0.44237 0.29432 0.7979 0.0
H340 H 0.31517 0.08714 0.88112 0.0
H341 H 0.27674 0.22215 0.87155 0.0
C342 C 0.20102 0.1568 0.91878 0.0
C343 C 0.16641 0.09929 0.94372 0.0
C344 C 0.3421 0.13185 0.86226 0.0
C345 C 0.26496 0.14012 0.88653 0.0
C346 C 0.40189 0.1614 0.84315 0.0
C347 C 0.44003 0.22138 0.82058 0.0
C348 C 0.32097 0.16335 0.85962 0.0
C349 C 0.41417 0.24792 0.81504 0.0
C350 C 0.25006 0.1772 0.89008 0.0
C351 C 0.18226 0.06326 0.93879 0.0
N352 N 0.35675 0.21946 0.83525 0.0
N353 N 0.23048 0.08444 0.91097 0.0
H354 H 0.00384 0.1656 0.45327 0.0
H355 H 0.28186 0.45163 0.29009 0.0
H356 H 0.15389 0.18095 0.40128 0.0
H357 H 0.12664 0.4269 0.3432 0.0
H358 H 0.22618 0.34261 0.31995 0.0
H359 H 0.04 0.25213 0.40472 0.0
C360 C 0.04463 0.18726 0.43167 0.0
C361 C 0.07658 0.16657 0.43198 0.0
C362 C 0.2035 0.36035 0.32418 0.0
C363 C 0.11848 0.26651 0.37568 0.0
C364 C 0.23481 0.42212 0.30671 0.0
C365 C 0.20883 0.44819 0.31449 0.0
C366 C 0.14616 0.32504 0.34956 0.0
C367 C 0.14841 0.40863 0.33673 0.0
C368 C 0.06504 0.2366 0.40362 0.0
C369 C 0.12827 0.19584 0.4025 0.0
N370 N 0.11968 0.34958 0.35392 0.0
N371 N 0.14819 0.24494 0.37584 0.0
H372 H 0.93738 0.2379 0.86447 0.0
H373 H 0.65278 0.20262 0.77301 0.0
H374 H 0.76604 0.06551 0.79507 0.0
H375 H 0.8204 0.37052 0.84638 0.0
H376 H 0.69623 0.15377 0.77721 0.0
H377 H 0.89733 0.28901 0.85572 0.0
C378 C 0.89106 0.21053 0.84766 0.0
C379 C 0.85486 0.14708 0.83072 0.0
C380 C 0.72381 0.20152 0.79216 0.0
C381 C 0.80916 0.20589 0.81996 0.0
C382 C 0.69931 0.22952 0.78943 0.0
C383 C 0.73409 0.29116 0.80855 0.0
C384 C 0.78297 0.23519 0.81471 0.0
C385 C 0.79286 0.32327 0.83069 0.0
C386 C 0.86847 0.24001 0.84236 0.0
C387 C 0.79592 0.11473 0.80837 0.0
N388 N 0.81557 0.29498 0.83312 0.0
N389 N 0.77486 0.14443 0.80371 0.0
H390 H 0.7699 0.83255 0.50582 0.0
H391 H 0.59252 0.82348 0.30503 0.0
H392 H 0.87828 0.9847 0.40875 0.0
H393 H 0.49385 0.65903 0.39215 0.0
H394 H 0.69864 0.88333 0.34093 0.0
H395 H 0.66719 0.76933 0.46477 0.0
C396 C 0.77173 0.85281 0.47607 0.0
C397 C 0.83222 0.91349 0.46046 0.0
C398 C 0.65377 0.83381 0.35182 0.0
C399 C 0.71578 0.84183 0.41319 0.0
C400 C 0.5934 0.79943 0.33103 0.0
C401 C 0.53428 0.73637 0.3457 0.0
C402 C 0.65455 0.80495 0.38763 0.0
C403 C 0.5381 0.70793 0.38004 0.0
C404 C 0.71345 0.81658 0.45241 0.0
C405 C 0.83243 0.93759 0.42158 0.0
N406 N 0.59693 0.74261 0.40003 0.0
N407 N 0.77508 0.90174 0.39924 0.0
H408 H 0.83658 0.78279 1.00495 0.0
H409 H 0.81987 0.60197 0.80203 0.0
H410 H -0.01271 0.88954 0.90693 0.0
H411 H 0.66735 0.50219 0.89865 0.0
H412 H 0.88034 0.70919 0.83709 0.0
H413 H 0.77359 0.67925 0.96518 0.0
C414 C 0.85663 0.78413 0.97524 0.0
C415 C 0.91685 0.84444 0.95903 0.0
C416 C 0.83331 0.66376 0.85032 0.0
C417 C 0.84513 0.72671 0.91305 0.0
C418 C 0.79854 0.6028 0.83003 0.0
C419 C 0.73871 0.54325 0.84751 0.0
C420 C 0.80791 0.66462 0.88831 0.0
C421 C 0.71377 0.54686 0.88435 0.0
C422 C 0.82048 0.72526 0.95229 0.0
C423 C 0.94057 0.84383 0.92022 0.0
N424 N 0.74861 0.60628 0.9036 0.0
N425 N 0.90461 0.78584 0.89844 0.0
loop_
_geom_bond_atom_site_label_1
_geom_bond_atom_site_label_2
_geom_bond_distance
_geom_bond_site_symmetry_2
_ccdc_geom_bond_type
C0 C2 1.422 . S
C0 C4 1.415 . S
C0 N6 1.363 1_665 S
C1 C2 1.421 . S
C1 C3 1.417 . S
C1 C13 1.422 . S
C2 C0 1.422 . S
C2 C1 1.421 . S
C2 N12 1.359 . S
C3 C1 1.417 . S
C3 C5 1.329 . S
C3 H22 0.930 . S
C4 C0 1.415 . S
C4 C5 1.437 . S
C4 C8 1.413 1_665 S
C5 C3 1.329 . S
C5 C4 1.437 . S
C5 H27 0.929 . S
N6 C0 1.363 1_445 S
N6 C7 1.349 . S
N6 Gd11 2.618 1_455 S
C7 N6 1.349 . S
C7 C9 1.378 . S
C7 H19 0.929 . S
C8 C4 1.413 1_445 S
C8 C9 1.348 . S
C8 H24 0.931 . S
C9 C7 1.378 . S
C9 C8 1.348 . S
C9 H25 0.930 . S
Gd10 N30 2.622 . S
Gd10 N37 2.570 1_565 S
Gd10 O44 2.353 1_454 S
Gd10 O45 2.468 . S
Gd10 O46 2.427 . S
Gd10 O48 2.388 1_455 S
Gd10 O49 2.386 1_565 S
Gd10 O53 2.307 1_564 S
Gd10 C63 2.805 . S
Gd11 N6 2.618 1_655 S
Gd11 N12 2.570 1_545 S
Gd11 O43 2.386 1_545 S
Gd11 O47 2.307 1_546 S
Gd11 O50 2.353 1_656 S
Gd11 O51 2.468 . S
Gd11 O52 2.427 1_655 S
Gd11 O54 2.388 1_655 S
Gd11 C75 2.805 . S
N12 C2 1.359 . S
N12 Gd11 2.570 1_565 S
N12 C14 1.343 . S
C13 C1 1.422 . S
C13 C15 1.321 . S
C13 H21 0.931 . S
C14 N12 1.343 . S
C14 C15 1.390 . S
C14 H16 0.931 . S
C15 C13 1.321 . S
C15 C14 1.390 . S
C15 H17 0.930 . S
H16 C14 0.931 . S
H17 C15 0.930 . S
H18 C41 0.931 . S
H19 C7 0.929 . S
H20 C42 0.930 . S
H21 C13 0.931 . S
H22 C3 0.930 . S
H23 C32 0.929 . S
H24 C8 0.931 . S
H25 C9 0.930 . S
H26 C64 0.930 . S
H27 C5 0.929 . S
H28 C33 0.931 . S
H29 C34 0.930 . S
N30 Gd10 2.622 . S
N30 C31 1.369 1_565 S
N30 C32 1.338 1_455 S
C31 N30 1.369 1_545 S
C31 C35 1.415 . S
C31 C38 1.422 . S
C32 H23 0.929 . S
C32 N30 1.338 1_655 S
C32 C34 1.378 . S
C33 H28 0.931 . S
C33 C34 1.348 1_545 S
C33 C35 1.413 1_655 S
C34 H29 0.930 . S
C34 C32 1.378 . S
C34 C33 1.348 1_565 S
C35 C31 1.415 . S
C35 C33 1.413 1_455 S
C35 C65 1.437 . S
H36 C65 0.929 . S
N37 Gd10 2.570 1_545 S
N37 C38 1.359 . S
N37 C41 1.343 . S
C38 C31 1.422 . S
C38 N37 1.359 . S
C38 C40 1.421 . S
C39 C40 1.422 . S
C39 C42 1.321 . S
C39 H66 0.931 . S
C40 C38 1.421 . S
C40 C39 1.422 . S
C40 C64 1.417 . S
C41 H18 0.931 . S
C41 N37 1.343 . S
C41 C42 1.390 . S
C42 H20 0.930 . S
C42 C39 1.321 . S
C42 C41 1.390 . S
O43 Gd11 2.386 1_565 S
O43 C55 1.265 . S
O44 Gd10 2.353 1_656 S
O44 C55 1.242 . S
O45 Gd10 2.468 . S
O45 C63 1.263 . S
O46 Gd10 2.427 . S
O46 C63 1.252 . S
O47 Gd11 2.307 1_564 S
O47 C56 1.261 . S
O48 Gd10 2.388 1_655 S
O48 C56 1.252 . S
O49 Gd10 2.386 1_545 S
O49 C67 1.265 . S
O50 Gd11 2.353 1_454 S
O50 C67 1.242 . S
O51 Gd11 2.468 . S
O51 C75 1.263 . S
O52 Gd11 2.427 1_455 S
O52 C75 1.252 1_455 S
O53 Gd10 2.307 1_546 S
O53 C68 1.261 . S
O54 Gd11 2.388 1_455 S
O54 C68 1.252 . S
C55 O43 1.265 . S
C55 O44 1.242 . S
C56 O47 1.261 . S
C56 O48 1.252 . S
C57 C60 1.394 . S
C57 C62 1.370 . S
C57 C63 1.500 . S
C58 C61 1.383 . S
C58 C62 1.395 . S
C59 C60 1.396 . S
C59 C61 1.365 . S
C59 H76 0.929 . S
C60 C57 1.394 . S
C60 C59 1.396 . S
C60 H77 0.930 1_455 S
C61 C58 1.383 . S
C61 C59 1.365 . S
C61 H78 0.931 . S
C62 C57 1.370 . S
C62 C58 1.395 . S
C62 H79 0.930 . S
C63 Gd10 2.805 . S
C63 O45 1.263 . S
C63 O46 1.252 . S
C63 C57 1.500 . S
C64 H26 0.930 . S
C64 C40 1.417 . S
C64 C65 1.329 . S
C65 C35 1.437 . S
C65 H36 0.929 . S
C65 C64 1.329 . S
H66 C39 0.931 . S
C67 O49 1.265 . S
C67 O50 1.242 . S
C68 O53 1.261 . S
C68 O54 1.252 . S
C69 C72 1.394 . S
C69 C74 1.370 . S
C69 C75 1.500 . S
C70 C73 1.383 . S
C70 C74 1.395 . S
C71 C72 1.396 . S
C71 C73 1.365 . S
C71 H80 0.929 1_655 S
C72 C69 1.394 . S
C72 C71 1.396 . S
C72 H81 0.930 1_655 S
C73 C70 1.383 . S
C73 C71 1.365 . S
C73 H82 0.931 . S
C74 C69 1.370 . S
C74 C70 1.395 . S
C74 H83 0.930 . S
C75 Gd11 2.805 . S
C75 O51 1.263 . S
C75 O52 1.252 1_655 S
C75 C69 1.500 . S
H76 C59 0.929 . S
H77 C60 0.930 1_655 S
H78 C61 0.931 . S
H79 C62 0.930 . S
H80 C71 0.929 1_455 S
H81 C72 0.930 1_455 S
H82 C73 0.931 . S
H83 C74 0.930 . S
C84 C86 1.422 . S
C84 C88 1.415 . S
C84 N90 1.371 . S
C85 C86 1.421 . S
C85 C87 1.417 . S
C85 C97 1.422 . S
C86 C84 1.422 . S
C86 C85 1.421 . S
C86 N96 1.359 . S
C87 C85 1.417 . S
C87 C89 1.329 . S
C87 H106 0.930 . S
C88 C84 1.415 . S
C88 C89 1.437 . S
C88 C92 1.413 . S
C89 C87 1.329 . S
C89 C88 1.437 . S
C89 H111 0.929 . S
N90 C84 1.371 . S
N90 C91 1.338 1_445 S
N90 Gd95 2.620 1_455 S
C91 N90 1.338 1_665 S
C91 C93 1.378 . S
C91 H103 0.929 . S
C92 C88 1.413 . S
C92 C93 1.348 1_445 S
C92 H108 0.931 . S
C93 C91 1.378 . S
C93 C92 1.348 1_665 S
C93 H109 0.930 . S
Gd94 N114 2.617 1_565 S
Gd94 N121 2.579 1_455 S
Gd94 O128 2.353 1_565 S
Gd94 O129 2.487 . S
Gd94 O130 2.436 1_565 S
Gd94 O132 2.371 1_565 S
Gd94 O133 2.374 1_455 S
Gd94 O137 2.312 1_455 S
Gd94 C147 2.821 . S
Gd95 N90 2.620 1_655 S
Gd95 N96 2.570 1_655 S
Gd95 O127 2.386 1_655 S
Gd95 O131 2.307 1_655 S
Gd95 O134 2.353 1_545 S
Gd95 O135 2.468 . S
Gd95 O136 2.427 . S
Gd95 O138 2.388 1_545 S
Gd95 C159 2.805 . S
N96 C86 1.359 . S
N96 Gd95 2.570 1_455 S
N96 C98 1.343 . S
C97 C85 1.422 . S
C97 C99 1.321 . S
C97 H105 0.931 . S
C98 N96 1.343 . S
C98 C99 1.390 . S
C98 H100 0.931 . S
C99 C97 1.321 . S
C99 C98 1.390 . S
C99 H101 0.930 . S
H100 C98 0.931 . S
H101 C99 0.930 . S
H102 C125 0.931 . S
H103 C91 0.929 . S
H104 C126 0.930 . S
H105 C97 0.931 . S
H106 C87 0.930 . S
H107 C116 0.929 . S
H108 C92 0.931 . S
H109 C93 0.930 . S
H110 C148 0.930 . S
H111 C89 0.929 . S
H112 C117 0.931 . S
H113 C118 0.930 . S
N114 Gd94 2.617 1_545 S
N114 C115 1.369 1_445 S
N114 C116 1.338 . S
C115 N114 1.369 1_665 S
C115 C119 1.415 . S
C115 C122 1.422 . S
C116 H107 0.929 . S
C116 N114 1.338 . S
C116 C118 1.378 . S
C117 H112 0.931 . S
C117 C118 1.348 . S
C117 C119 1.413 1_445 S
C118 H113 0.930 . S
C118 C116 1.378 . S
C118 C117 1.348 . S
C119 C115 1.415 . S
C119 C117 1.413 1_665 S
C119 C149 1.437 . S
H120 C149 0.929 . S
N121 Gd94 2.579 1_655 S
N121 C122 1.359 . S
N121 C125 1.343 . S
C122 C115 1.422 . S
C122 N121 1.359 . S
C122 C124 1.421 . S
C123 C124 1.422 . S
C123 C126 1.321 . S
C123 H150 0.931 . S
C124 C122 1.421 . S
C124 C123 1.422 . S
C124 C148 1.417 . S
C125 H102 0.931 . S
C125 N121 1.343 . S
C125 C126 1.390 . S
C126 H104 0.930 . S
C126 C123 1.321 . S
C126 C125 1.390 . S
O127 Gd95 2.386 1_455 S
O127 C139 1.265 . S
O128 Gd94 2.353 1_545 S
O128 C139 1.242 . S
O129 Gd94 2.487 . S
O129 C147 1.263 . S
O130 Gd94 2.436 1_545 S
O130 C147 1.252 1_545 S
O131 Gd95 2.307 1_455 S
O131 C140 1.261 . S
O132 Gd94 2.371 1_545 S
O132 C140 1.252 . S
O133 Gd94 2.374 1_655 S
O133 C151 1.265 . S
O134 Gd95 2.353 1_565 S
O134 C151 1.242 . S
O135 Gd95 2.468 . S
O135 C159 1.263 . S
O136 Gd95 2.427 . S
O136 C159 1.252 . S
O137 Gd94 2.312 1_655 S
O137 C152 1.261 . S
O138 Gd95 2.388 1_565 S
O138 C152 1.252 . S
C139 O127 1.265 . S
C139 O128 1.242 . S
C140 O131 1.261 . S
C140 O132 1.252 . S
C141 C144 1.394 1_565 S
C141 C146 1.370 . S
C141 C147 1.500 . S
C142 C145 1.383 . S
C142 C146 1.395 . S
C143 C144 1.396 1_565 S
C143 C145 1.365 . S
C143 H160 0.929 1_565 S
C144 C141 1.394 1_545 S
C144 C143 1.396 1_545 S
C144 H161 0.930 . S
C145 C142 1.383 . S
C145 C143 1.365 . S
C145 H162 0.931 . S
C146 C141 1.370 . S
C146 C142 1.395 . S
C146 H163 0.930 . S
C147 Gd94 2.821 . S
C147 O129 1.263 . S
C147 O130 1.252 1_565 S
C147 C141 1.500 . S
C148 H110 0.930 . S
C148 C124 1.417 . S
C148 C149 1.329 . S
C149 C119 1.437 . S
C149 H120 0.929 . S
C149 C148 1.329 . S
H150 C123 0.931 . S
C151 O133 1.265 . S
C151 O134 1.242 . S
C152 O137 1.261 . S
C152 O138 1.252 . S
C153 C156 1.394 . S
C153 C158 1.370 . S
C153 C159 1.500 . S
C154 C157 1.383 . S
C154 C158 1.395 . S
C155 C156 1.396 . S
C155 C157 1.365 . S
C155 H164 0.929 . S
C156 C153 1.394 . S
C156 C155 1.396 . S
C156 H165 0.930 . S
C157 C154 1.383 . S
C157 C155 1.365 . S
C157 H166 0.931 . S
C158 C153 1.370 . S
C158 C154 1.395 . S
C158 H167 0.930 . S
C159 Gd95 2.805 . S
C159 O135 1.263 . S
C159 O136 1.252 . S
C159 C153 1.500 . S
H160 C143 0.929 1_545 S
H161 C144 0.930 . S
H162 C145 0.931 . S
H163 C146 0.930 . S
H164 C155 0.929 . S
H165 C156 0.930 . S
H166 C157 0.931 . S
H167 C158 0.930 . S
Zn168 O174 1.920 . S
Zn168 O180 1.898 . S
Zn168 O183 1.905 . S
Zn169 O177 1.905 . S
Zn169 O178 1.898 . S
Zn169 O186 1.920 . S
Zn170 O173 2.080 . S
Zn170 O176 2.114 . S
Zn170 O179 2.120 . S
Zn170 O181 2.120 . S
Zn170 O182 2.114 . S
Zn170 O185 2.080 . S
C171 O176 1.166 . S
C171 O177 1.182 . S
C172 O178 1.167 . S
C172 O179 1.299 . S
O173 Zn170 2.080 . S
O173 C187 1.305 . S
O174 Zn168 1.920 . S
O174 C187 1.234 . S
C175 O180 1.167 . S
C175 O181 1.299 . S
O176 Zn170 2.114 . S
O176 C171 1.166 . S
O177 Zn169 1.905 . S
O177 C171 1.182 . S
O178 Zn169 1.898 . S
O178 C172 1.167 . S
O179 Zn170 2.120 . S
O179 C172 1.299 . S
O180 Zn168 1.898 . S
O180 C175 1.167 . S
O181 Zn170 2.120 . S
O181 C175 1.299 . S
O182 Zn170 2.114 . S
O182 C184 1.166 . S
O183 Zn168 1.905 . S
O183 C184 1.182 . S
C184 O182 1.166 . S
C184 O183 1.182 . S
O185 Zn170 2.080 . S
O185 C188 1.305 . S
O186 Zn169 1.920 . S
O186 C188 1.234 . S
C187 O173 1.305 . S
C187 O174 1.234 . S
C188 O185 1.305 . S
C188 O186 1.234 . S
Zn189 O195 1.920 . S
Zn189 O201 1.898 . S
Zn189 O204 1.905 . S
Zn190 O198 1.905 . S
Zn190 O199 1.898 . S
Zn190 O207 1.920 . S
Zn191 O194 2.080 . S
Zn191 O197 2.114 . S
Zn191 O200 2.120 . S
Zn191 O202 2.120 . S
Zn191 O203 2.114 . S
Zn191 O206 2.080 . S
C192 O197 1.166 . S
C192 O198 1.182 . S
C193 O199 1.167 . S
C193 O200 1.299 . S
O194 Zn191 2.080 . S
O194 C208 1.305 . S
O195 Zn189 1.920 . S
O195 C208 1.234 . S
C196 O201 1.167 . S
C196 O202 1.299 . S
O197 Zn191 2.114 . S
O197 C192 1.166 . S
O198 Zn190 1.905 . S
O198 C192 1.182 . S
O199 Zn190 1.898 . S
O199 C193 1.167 . S
O200 Zn191 2.120 . S
O200 C193 1.299 . S
O201 Zn189 1.898 . S
O201 C196 1.167 . S
O202 Zn191 2.120 . S
O202 C196 1.299 . S
O203 Zn191 2.114 . S
O203 C205 1.166 . S
O204 Zn189 1.905 . S
O204 C205 1.182 . S
C205 O203 1.166 . S
C205 O204 1.182 . S
O206 Zn191 2.080 . S
O206 C209 1.305 . S
O207 Zn190 1.920 . S
O207 C209 1.234 . S
C208 O194 1.305 . S
C208 O195 1.234 . S
C209 O206 1.305 . S
C209 O207 1.234 . S
H210 C216 0.930 . S
H211 C220 0.930 . S
H212 C225 0.929 . S
H213 C223 0.929 . S
H214 C218 0.929 . S
H215 C224 0.929 . S
C216 H210 0.930 . S
C216 C217 1.367 . S
C216 C224 1.378 . S
C217 C216 1.367 . S
C217 C225 1.433 . S
C218 H214 0.929 . S
C218 C220 1.378 . S
C218 C222 1.350 . S
C219 C222 1.463 . S
C219 C224 1.350 . S
C219 N227 1.427 . S
C220 H211 0.930 . S
C220 C218 1.378 . S
C220 C221 1.367 . S
C221 C220 1.367 . S
C221 C223 1.433 . S
C222 C218 1.350 . S
C222 C219 1.463 . S
C222 N226 1.427 . S
C223 H213 0.929 . S
C223 C221 1.433 . S
C223 N226 1.384 . S
C224 H215 0.929 . S
C224 C216 1.378 . S
C224 C219 1.350 . S
C225 H212 0.929 . S
C225 C217 1.433 . S
C225 N227 1.384 . S
N226 C222 1.427 . S
N226 C223 1.384 . S
N227 C219 1.427 . S
N227 C225 1.384 . S
H228 C234 0.930 . S
H229 C238 0.930 . S
H230 C243 0.929 . S
H231 C241 0.929 . S
H232 C236 0.929 . S
H233 C242 0.929 . S
C234 H228 0.930 . S
C234 C235 1.367 . S
C234 C242 1.378 . S
C235 C234 1.367 . S
C235 C243 1.433 . S
C236 H232 0.929 . S
C236 C238 1.378 . S
C236 C240 1.350 . S
C237 C240 1.463 . S
C237 C242 1.350 . S
C237 N245 1.427 . S
C238 H229 0.930 . S
C238 C236 1.378 . S
C238 C239 1.367 . S
C239 C238 1.367 . S
C239 C241 1.433 . S
C240 C236 1.350 . S
C240 C237 1.463 . S
C240 N244 1.427 . S
C241 H231 0.929 . S
C241 C239 1.433 . S
C241 N244 1.384 . S
C242 H233 0.929 . S
C242 C234 1.378 . S
C242 C237 1.350 . S
C243 H230 0.929 . S
C243 C235 1.433 . S
C243 N245 1.384 . S
N244 C240 1.427 . S
N244 C241 1.384 . S
N245 C237 1.427 . S
N245 C243 1.384 . S
H246 C252 0.930 . S
H247 C256 0.930 . S
H248 C261 0.929 . S
H249 C259 0.929 . S
H250 C254 0.929 . S
H251 C260 0.929 . S
C252 H246 0.930 . S
C252 C253 1.367 . S
C252 C260 1.378 . S
C253 C252 1.367 . S
C253 C261 1.433 . S
C254 H250 0.929 . S
C254 C256 1.378 . S
C254 C258 1.350 . S
C255 C258 1.463 . S
C255 C260 1.350 . S
C255 N263 1.427 . S
C256 H247 0.930 . S
C256 C254 1.378 . S
C256 C257 1.367 . S
C257 C256 1.367 . S
C257 C259 1.433 . S
C258 C254 1.350 . S
C258 C255 1.463 . S
C258 N262 1.427 . S
C259 H249 0.929 . S
C259 C257 1.433 . S
C259 N262 1.384 . S
C260 H251 0.929 . S
C260 C252 1.378 . S
C260 C255 1.350 . S
C261 H248 0.929 . S
C261 C253 1.433 . S
C261 N263 1.384 . S
N262 C258 1.427 . S
N262 C259 1.384 . S
N263 C255 1.427 . S
N263 C261 1.384 . S
H264 C270 0.930 . S
H265 C274 0.930 . S
H266 C279 0.929 . S
H267 C277 0.929 . S
H268 C272 0.929 . S
H269 C278 0.929 . S
C270 H264 0.930 . S
C270 C271 1.367 . S
C270 C278 1.378 . S
C271 C270 1.367 . S
C271 C279 1.433 . S
C272 H268 0.929 . S
C272 C274 1.378 . S
C272 C276 1.350 . S
C273 C276 1.463 . S
C273 C278 1.350 . S
C273 N281 1.427 . S
C274 H265 0.930 . S
C274 C272 1.378 . S
C274 C275 1.367 . S
C275 C274 1.367 . S
C275 C277 1.433 . S
C276 C272 1.350 . S
C276 C273 1.463 . S
C276 N280 1.427 . S
C277 H267 0.929 . S
C277 C275 1.433 . S
C277 N280 1.384 . S
C278 H269 0.929 . S
C278 C270 1.378 . S
C278 C273 1.350 . S
C279 H266 0.929 . S
C279 C271 1.433 . S
C279 N281 1.384 . S
N280 C276 1.427 . S
N280 C277 1.384 . S
N281 C273 1.427 . S
N281 C279 1.384 . S
H282 C288 0.930 . S
H283 C292 0.930 . S
H284 C297 0.929 . S
H285 C295 0.929 . S
H286 C290 0.929 . S
H287 C296 0.929 . S
C288 H282 0.930 . S
C288 C289 1.367 . S
C288 C296 1.378 . S
C289 C288 1.367 . S
C289 C297 1.433 . S
C290 H286 0.929 . S
C290 C292 1.378 . S
C290 C294 1.350 . S
C291 C294 1.463 . S
C291 C296 1.350 . S
C291 N299 1.427 . S
C292 H283 0.930 . S
C292 C290 1.378 . S
C292 C293 1.367 . S
C293 C292 1.367 . S
C293 C295 1.433 . S
C294 C290 1.350 . S
C294 C291 1.463 . S
C294 N298 1.427 . S
C295 H285 0.929 . S
C295 C293 1.433 . S
C295 N298 1.384 . S
C296 H287 0.929 . S
C296 C288 1.378 . S
C296 C291 1.350 . S
C297 H284 0.929 . S
C297 C289 1.433 . S
C297 N299 1.384 . S
N298 C294 1.427 . S
N298 C295 1.384 . S
N299 C291 1.427 . S
N299 C297 1.384 . S
H300 C306 0.930 . S
H301 C310 0.930 . S
H302 C315 0.929 . S
H303 C313 0.929 . S
H304 C308 0.929 . S
H305 C314 0.929 . S
C306 H300 0.930 . S
C306 C307 1.367 . S
C306 C314 1.378 . S
C307 C306 1.367 . S
C307 C315 1.433 . S
C308 H304 0.929 . S
C308 C310 1.378 . S
C308 C312 1.350 . S
C309 C312 1.463 . S
C309 C314 1.350 . S
C309 N317 1.427 . S
C310 H301 0.930 . S
C310 C308 1.378 . S
C310 C311 1.367 . S
C311 C310 1.367 . S
C311 C313 1.433 . S
C312 C308 1.350 . S
C312 C309 1.463 . S
C312 N316 1.427 . S
C313 H303 0.929 . S
C313 C311 1.433 . S
C313 N316 1.384 . S
C314 H305 0.929 . S
C314 C306 1.378 . S
C314 C309 1.350 . S
C315 H302 0.929 . S
C315 C307 1.433 . S
C315 N317 1.384 . S
N316 C312 1.427 . S
N316 C313 1.384 . S
N317 C309 1.427 . S
N317 C315 1.384 . S
H318 C324 0.930 . S
H319 C328 0.930 . S
H320 C333 0.929 . S
H321 C331 0.929 . S
H322 C326 0.929 . S
H323 C332 0.929 . S
C324 H318 0.930 . S
C324 C325 1.367 . S
C324 C332 1.378 . S
C325 C324 1.367 . S
C325 C333 1.433 . S
C326 H322 0.929 . S
C326 C328 1.378 . S
C326 C330 1.350 . S
C327 C330 1.463 . S
C327 C332 1.350 . S
C327 N335 1.427 . S
C328 H319 0.930 . S
C328 C326 1.378 . S
C328 C329 1.367 . S
C329 C328 1.367 . S
C329 C331 1.433 . S
C330 C326 1.350 . S
C330 C327 1.463 . S
C330 N334 1.427 . S
C331 H321 0.929 . S
C331 C329 1.433 . S
C331 N334 1.384 . S
C332 H323 0.929 . S
C332 C324 1.378 . S
C332 C327 1.350 . S
C333 H320 0.929 . S
C333 C325 1.433 . S
C333 N335 1.384 . S
N334 C330 1.427 . S
N334 C331 1.384 . S
N335 C327 1.427 . S
N335 C333 1.384 . S
H336 C342 0.930 . S
H337 C346 0.930 . S
H338 C351 0.929 . S
H339 C349 0.929 . S
H340 C344 0.929 . S
H341 C350 0.929 . S
C342 H336 0.930 . S
C342 C343 1.367 . S
C342 C350 1.378 . S
C343 C342 1.367 . S
C343 C351 1.433 . S
C344 H340 0.929 . S
C344 C346 1.378 . S
C344 C348 1.350 . S
C345 C348 1.463 . S
C345 C350 1.350 . S
C345 N353 1.427 . S
C346 H337 0.930 . S
C346 C344 1.378 . S
C346 C347 1.367 . S
C347 C346 1.367 . S
C347 C349 1.433 . S
C348 C344 1.350 . S
C348 C345 1.463 . S
C348 N352 1.427 . S
C349 H339 0.929 . S
C349 C347 1.433 . S
C349 N352 1.384 . S
C350 H341 0.929 . S
C350 C342 1.378 . S
C350 C345 1.350 . S
C351 H338 0.929 . S
C351 C343 1.433 . S
C351 N353 1.384 . S
N352 C348 1.427 . S
N352 C349 1.384 . S
N353 C345 1.427 . S
N353 C351 1.384 . S
H354 C360 0.930 . S
H355 C364 0.930 . S
H356 C369 0.929 . S
H357 C367 0.929 . S
H358 C362 0.929 . S
H359 C368 0.929 . S
C360 H354 0.930 . S
C360 C361 1.367 . S
C360 C368 1.378 . S
C361 C360 1.367 . S
C361 C369 1.433 . S
C362 H358 0.929 . S
C362 C364 1.378 . S
C362 C366 1.350 . S
C363 C366 1.463 . S
C363 C368 1.350 . S
C363 N371 1.427 . S
C364 H355 0.930 . S
C364 C362 1.378 . S
C364 C365 1.367 . S
C365 C364 1.367 . S
C365 C367 1.433 . S
C366 C362 1.350 . S
C366 C363 1.463 . S
C366 N370 1.427 . S
C367 H357 0.929 . S
C367 C365 1.433 . S
C367 N370 1.384 . S
C368 H359 0.929 . S
C368 C360 1.378 . S
C368 C363 1.350 . S
C369 H356 0.929 . S
C369 C361 1.433 . S
C369 N371 1.384 . S
N370 C366 1.427 . S
N370 C367 1.384 . S
N371 C363 1.427 . S
N371 C369 1.384 . S
H372 C378 0.930 . S
H373 C382 0.930 . S
H374 C387 0.929 . S
H375 C385 0.929 . S
H376 C380 0.929 . S
H377 C386 0.929 . S
C378 H372 0.930 . S
C378 C379 1.367 . S
C378 C386 1.378 . S
C379 C378 1.367 . S
C379 C387 1.433 . S
C380 H376 0.929 . S
C380 C382 1.378 . S
C380 C384 1.350 . S
C381 C384 1.463 . S
C381 C386 1.350 . S
C381 N389 1.427 . S
C382 H373 0.930 . S
C382 C380 1.378 . S
C382 C383 1.367 . S
C383 C382 1.367 . S
C383 C385 1.433 . S
C384 C380 1.350 . S
C384 C381 1.463 . S
C384 N388 1.427 . S
C385 H375 0.929 . S
C385 C383 1.433 . S
C385 N388 1.384 . S
C386 H377 0.929 . S
C386 C378 1.378 . S
C386 C381 1.350 . S
C387 H374 0.929 . S
C387 C379 1.433 . S
C387 N389 1.384 . S
N388 C384 1.427 . S
N388 C385 1.384 . S
N389 C381 1.427 . S
N389 C387 1.384 . S
H390 C396 0.930 . S
H391 C400 0.930 . S
H392 C405 0.929 . S
H393 C403 0.929 . S
H394 C398 0.929 . S
H395 C404 0.929 . S
C396 H390 0.930 . S
C396 C397 1.367 . S
C396 C404 1.378 . S
C397 C396 1.367 . S
C397 C405 1.433 . S
C398 H394 0.929 . S
C398 C400 1.378 . S
C398 C402 1.350 . S
C399 C402 1.463 . S
C399 C404 1.350 . S
C399 N407 1.427 . S
C400 H391 0.930 . S
C400 C398 1.378 . S
C400 C401 1.367 . S
C401 C400 1.367 . S
C401 C403 1.433 . S
C402 C398 1.350 . S
C402 C399 1.463 . S
C402 N406 1.427 . S
C403 H393 0.929 . S
C403 C401 1.433 . S
C403 N406 1.384 . S
C404 H395 0.929 . S
C404 C396 1.378 . S
C404 C399 1.350 . S
C405 H392 0.929 . S
C405 C397 1.433 . S
C405 N407 1.384 . S
N406 C402 1.427 . S
N406 C403 1.384 . S
N407 C399 1.427 . S
N407 C405 1.384 . S
H408 C414 0.930 . S
H409 C418 0.930 . S
H410 C423 0.929 . S
H411 C421 0.929 . S
H412 C416 0.929 . S
H413 C422 0.929 . S
C414 H408 0.930 . S
C414 C415 1.367 . S
C414 C422 1.378 . S
C415 C414 1.367 . S
C415 C423 1.433 . S
C416 H412 0.929 . S
C416 C418 1.378 . S
C416 C420 1.350 . S
C417 C420 1.463 . S
C417 C422 1.350 . S
C417 N425 1.427 . S
C418 H409 0.930 . S
C418 C416 1.378 . S
C418 C419 1.367 . S
C419 C418 1.367 . S
C419 C421 1.433 . S
C420 C416 1.350 . S
C420 C417 1.463 . S
C420 N424 1.427 . S
C421 H411 0.929 . S
C421 C419 1.433 . S
C421 N424 1.384 . S
C422 H413 0.929 . S
C422 C414 1.378 . S
C422 C417 1.350 . S
C423 H410 0.929 . S
C423 C415 1.433 . S
C423 N425 1.384 . S
N424 C420 1.427 . S
N424 C421 1.384 . S
N425 C417 1.427 . S
N425 C423 1.384 . S
C217 C58 1.164 . S
C221 C187 1.259 . S
C235 C139 1.547 . S
C239 C193 1.400 . S
C253 C67 1.618 . S
C257 C184 1.478 . S
C271 C154 1.215 . S
C275 C209 1.264 . S
C289 C56 1.605 . S
C293 C175 1.459 . S
C311 C192 1.539 . S
C307 C152 1.633 . S
C325 C142 1.178 . S
C329 C188 1.267 . S
C347 C205 1.539 . S
C343 C68 1.629 . S
C365 C172 1.441 . S
C361 C140 1.602 . S
C383 C208 1.282 . S
C379 C70 1.236 . S
C401 C171 1.492 . S
C397 C151 1.621 . S
C419 C196 1.401 . S
C415 C55 1.547 . S
