# Generated by pormake.
# Topology ocu, (6,8)-cn, num edge types: 1
# Building blocks:
#     Node 0, Type 0, BuildingBlock: KUMBOL_clean_sbu_1, # of connection points: 6
#     Node 1, Type 0, BuildingBlock: KUMBOL_clean_sbu_1, # of connection points: 6
#     Node 2, Type 0, BuildingBlock: KUMBOL_clean_sbu_1, # of connection points: 6
#     Node 3, Type 0, BuildingBlock: KUMBOL_clean_sbu_1, # of connection points: 6
#     Node 4, Type 0, BuildingBlock: KUMBOL_clean_sbu_1, # of connection points: 6
#     Node 5, Type 0, BuildingBlock: KUMBOL_clean_sbu_1, # of connection points: 6
#     Node 6, Type 0, BuildingBlock: KUMBOL_clean_sbu_1, # of connection points: 6
#     Node 7, Type 0, BuildingBlock: KUMBOL_clean_sbu_1, # of connection points: 6
#     Node 8, Type 1, BuildingBlock: VETTIZ_charged_sbu_0, # of connection points: 8
#     Node 9, Type 1, BuildingBlock: VETTIZ_charged_sbu_0, # of connection points: 8
#     Node 10, Type 1, BuildingBlock: VETTIZ_charged_sbu_0, # of connection points: 8
#     Node 11, Type 1, BuildingBlock: VETTIZ_charged_sbu_0, # of connection points: 8
#     Node 12, Type 1, BuildingBlock: VETTIZ_charged_sbu_0, # of connection points: 8
#     Node 13, Type 1, BuildingBlock: VETTIZ_charged_sbu_0, # of connection points: 8
#     Edge 14, Type (0, 1), BuildingBlock: EZIPEK_clean_linker_0, # of connection points: 2
#     Edge 15, Type (0, 1), BuildingBlock: EZIPEK_clean_linker_0, # of connection points: 2
#     Edge 16, Type (0, 1), BuildingBlock: EZIPEK_clean_linker_0, # of connection points: 2
#     Edge 17, Type (0, 1), BuildingBlock: EZIPEK_clean_linker_0, # of connection points: 2
#     Edge 18, Type (0, 1), BuildingBlock: EZIPEK_clean_linker_0, # of connection points: 2
#     Edge 19, Type (0, 1), BuildingBlock: EZIPEK_clean_linker_0, # of connection points: 2
#     Edge 20, Type (0, 1), BuildingBlock: EZIPEK_clean_linker_0, # of connection points: 2
#     Edge 21, Type (0, 1), BuildingBlock: EZIPEK_clean_linker_0, # of connection points: 2
#     Edge 22, Type (0, 1), BuildingBlock: EZIPEK_clean_linker_0, # of connection points: 2
#     Edge 23, Type (0, 1), BuildingBlock: EZIPEK_clean_linker_0, # of connection points: 2
#     Edge 24, Type (0, 1), BuildingBlock: EZIPEK_clean_linker_0, # of connection points: 2
#     Edge 25, Type (0, 1), BuildingBlock: EZIPEK_clean_linker_0, # of connection points: 2
#     Edge 26, Type (0, 1), BuildingBlock: EZIPEK_clean_linker_0, # of connection points: 2
#     Edge 27, Type (0, 1), BuildingBlock: EZIPEK_clean_linker_0, # of connection points: 2
#     Edge 28, Type (0, 1), BuildingBlock: EZIPEK_clean_linker_0, # of connection points: 2
#     Edge 29, Type (0, 1), BuildingBlock: EZIPEK_clean_linker_0, # of connection points: 2
#     Edge 30, Type (0, 1), BuildingBlock: EZIPEK_clean_linker_0, # of connection points: 2
#     Edge 31, Type (0, 1), BuildingBlock: EZIPEK_clean_linker_0, # of connection points: 2
#     Edge 32, Type (0, 1), BuildingBlock: EZIPEK_clean_linker_0, # of connection points: 2
#     Edge 33, Type (0, 1), BuildingBlock: EZIPEK_clean_linker_0, # of connection points: 2
#     Edge 34, Type (0, 1), BuildingBlock: EZIPEK_clean_linker_0, # of connection points: 2
#     Edge 35, Type (0, 1), BuildingBlock: EZIPEK_clean_linker_0, # of connection points: 2
#     Edge 36, Type (0, 1), BuildingBlock: EZIPEK_clean_linker_0, # of connection points: 2
#     Edge 37, Type (0, 1), BuildingBlock: EZIPEK_clean_linker_0, # of connection points: 2
#     Edge 38, Type (0, 1), BuildingBlock: EZIPEK_clean_linker_0, # of connection points: 2
#     Edge 39, Type (0, 1), BuildingBlock: EZIPEK_clean_linker_0, # of connection points: 2
#     Edge 40, Type (0, 1), BuildingBlock: EZIPEK_clean_linker_0, # of connection points: 2
#     Edge 41, Type (0, 1), BuildingBlock: EZIPEK_clean_linker_0, # of connection points: 2
#     Edge 42, Type (0, 1), BuildingBlock: EZIPEK_clean_linker_0, # of connection points: 2
#     Edge 43, Type (0, 1), BuildingBlock: EZIPEK_clean_linker_0, # of connection points: 2
#     Edge 44, Type (0, 1), BuildingBlock: EZIPEK_clean_linker_0, # of connection points: 2
#     Edge 45, Type (0, 1), BuildingBlock: EZIPEK_clean_linker_0, # of connection points: 2
#     Edge 46, Type (0, 1), BuildingBlock: EZIPEK_clean_linker_0, # of connection points: 2
#     Edge 47, Type (0, 1), BuildingBlock: EZIPEK_clean_linker_0, # of connection points: 2
#     Edge 48, Type (0, 1), BuildingBlock: EZIPEK_clean_linker_0, # of connection points: 2
#     Edge 49, Type (0, 1), BuildingBlock: EZIPEK_clean_linker_0, # of connection points: 2
#     Edge 50, Type (0, 1), BuildingBlock: EZIPEK_clean_linker_0, # of connection points: 2
#     Edge 51, Type (0, 1), BuildingBlock: EZIPEK_clean_linker_0, # of connection points: 2
#     Edge 52, Type (0, 1), BuildingBlock: EZIPEK_clean_linker_0, # of connection points: 2
#     Edge 53, Type (0, 1), BuildingBlock: EZIPEK_clean_linker_0, # of connection points: 2
#     Edge 54, Type (0, 1), BuildingBlock: EZIPEK_clean_linker_0, # of connection points: 2
#     Edge 55, Type (0, 1), BuildingBlock: EZIPEK_clean_linker_0, # of connection points: 2
#     Edge 56, Type (0, 1), BuildingBlock: EZIPEK_clean_linker_0, # of connection points: 2
#     Edge 57, Type (0, 1), BuildingBlock: EZIPEK_clean_linker_0, # of connection points: 2
#     Edge 58, Type (0, 1), BuildingBlock: EZIPEK_clean_linker_0, # of connection points: 2
#     Edge 59, Type (0, 1), BuildingBlock: EZIPEK_clean_linker_0, # of connection points: 2
#     Edge 60, Type (0, 1), BuildingBlock: EZIPEK_clean_linker_0, # of connection points: 2
#     Edge 61, Type (0, 1), BuildingBlock: EZIPEK_clean_linker_0, # of connection points: 2
# Relax obj value: 0.101
# Max RMSD: 0.136
# Mean RMSD: 0.108
data_MOF--net-ocu--node1-KUMBOL_clean_sbu_1--node2-VETTIZ_charged_sbu_0--edge1-EZIPEK_clean_linker_0
_symmetry_space_group_name_H-M    P1
_symmetry_Int_Tables_number       1
_symmetry_cell_setting            triclinic
loop_
_symmetry_equiv_pos_as_xyz
'x, y, z'
_cell_length_a     30.587878
_cell_length_b     30.952844
_cell_length_c     32.038795
_cell_angle_alpha  101.82322
_cell_angle_beta   78.276267
_cell_angle_gamma 107.01123
loop_
_atom_site_label
_atom_site_type_symbol
_atom_site_fract_x
_atom_site_fract_y
_atom_site_fract_z
_atom_type_partial_charge
C0 C 0.37126 0.39567 0.35073 0.0
C1 C 0.32661 0.42507 0.41626 0.0
C2 C 0.33307 0.38908 0.38268 0.0
C3 C 0.35804 0.46844 0.41596 0.0
C4 C 0.40422 0.43853 0.35152 0.0
C5 C 0.39677 0.47516 0.38364 0.0
N6 N 0.37772 0.35935 0.32059 0.0
C7 C 0.41837 0.36261 0.29267 0.0
C8 C 0.44439 0.44285 0.32087 0.0
C9 C 0.45184 0.40449 0.29178 0.0
Gd10 Gd 0.22721 0.24916 0.24118 0.0
Gd11 Gd 0.31624 0.2922 0.32109 0.0
N12 N 0.30326 0.34681 0.38193 0.0
C13 C 0.28929 0.41611 0.44958 0.0
C14 C 0.26849 0.33713 0.4157 0.0
C15 C 0.26052 0.37178 0.4496 0.0
H16 H 0.24595 0.30304 0.41593 0.0
H17 H 0.23215 0.36429 0.47566 0.0
H18 H 0.29136 0.29078 0.1537 0.0
H19 H 0.42488 0.33302 0.27068 0.0
H20 H 0.31375 0.26262 0.07666 0.0
H21 H 0.28302 0.44288 0.47587 0.0
H22 H 0.35333 0.49669 0.44116 0.0
H23 H 0.1364 0.16654 0.27867 0.0
H24 H 0.47051 0.47519 0.32033 0.0
H25 H 0.48345 0.40708 0.26883 0.0
H26 H 0.22585 0.10547 0.05781 0.0
H27 H 0.42143 0.50847 0.38447 0.0
H28 H 0.1171 0.05086 0.17827 0.0
H29 H 0.09505 0.08711 0.25291 0.0
N30 N 0.18298 0.17439 0.2198 0.0
C31 C 0.19431 0.15573 0.17817 0.0
C32 C 0.14693 0.15072 0.24624 0.0
C33 C 0.13572 0.08555 0.18951 0.0
C34 C 0.12318 0.10588 0.23168 0.0
C35 C 0.17121 0.11068 0.16197 0.0
H36 H 0.1664 0.05785 0.10574 0.0
N37 N 0.24846 0.22614 0.16741 0.0
C38 C 0.2278 0.18248 0.15111 0.0
C39 C 0.27108 0.19406 0.08052 0.0
C40 C 0.23907 0.16501 0.10726 0.0
C41 C 0.27752 0.25538 0.14103 0.0
C42 C 0.28991 0.23961 0.09735 0.0
O43 O 0.26207 0.33464 0.3305 0.0
O44 O 0.19999 0.28154 0.30806 0.0
O45 O 0.20927 0.30226 0.21819 0.0
O46 O 0.15597 0.24232 0.23566 0.0
O47 O 0.24709 0.24776 0.34888 0.0
O48 O 0.21806 0.20047 0.29037 0.0
O49 O 0.29041 0.22012 0.21189 0.0
O50 O 0.341 0.24242 0.26201 0.0
O51 O 0.31512 0.2329 0.34779 0.0
O52 O 0.37008 0.29507 0.35731 0.0
O53 O 0.28033 0.31848 0.23546 0.0
O54 O 0.34482 0.30953 0.25359 0.0
C55 C 0.21709 0.32275 0.32829 0.0
C56 C 0.22238 0.2081 0.33168 0.0
C57 C 0.14326 0.2794 0.18284 0.0
C58 C 0.11925 0.32135 0.13864 0.0
C59 C 0.09654 0.23816 0.12712 0.0
C60 C 0.11987 0.23796 0.1602 0.0
C61 C 0.09628 0.27951 0.11631 0.0
C62 C 0.14319 0.3211 0.17164 0.0
C63 C 0.16576 0.28003 0.21958 0.0
C64 C 0.21736 0.11963 0.09136 0.0
C65 C 0.18351 0.09252 0.11865 0.0
H66 H 0.28057 0.18207 0.04668 0.0
C67 C 0.3285 0.21845 0.22475 0.0
C68 C 0.32569 0.32869 0.23189 0.0
C69 C 0.38884 0.22436 0.34601 0.0
C70 C 0.42246 0.16624 0.35713 0.0
C71 C 0.45237 0.20438 0.29415 0.0
C72 C 0.42081 0.23092 0.30818 0.0
C73 C 0.45358 0.17248 0.3187 0.0
C74 C 0.38858 0.19075 0.36952 0.0
C75 C 0.35509 0.2517 0.36066 0.0
H76 H 0.0786 0.20616 0.10976 0.0
H77 H 0.11936 0.20542 0.16814 0.0
H78 H 0.07835 0.27895 0.09024 0.0
H79 H 0.16144 0.35326 0.18866 0.0
H80 H 0.47674 0.20942 0.26483 0.0
H81 H 0.4215 0.25669 0.28967 0.0
H82 H 0.47973 0.15366 0.30847 0.0
H83 H 0.36401 0.18559 0.39883 0.0
C84 C 0.8724 0.21316 0.16407 0.0
C85 C 0.94919 0.26498 0.16014 0.0
C86 C 0.90535 0.24806 0.18365 0.0
C87 C 0.95785 0.24969 0.11562 0.0
C88 C 0.88205 0.19545 0.11997 0.0
C89 C 0.92416 0.21519 0.09548 0.0
N90 N 0.83302 0.19348 0.18912 0.0
C91 C 0.80453 0.15304 0.17312 0.0
C92 C 0.85025 0.15683 0.10239 0.0
C93 C 0.81182 0.13492 0.12935 0.0
Gd94 Gd 0.74216 0.31785 0.29485 0.0
Gd95 Gd 0.82177 0.23041 0.26111 0.0
N96 N 0.89589 0.26272 0.22663 0.0
C97 C 0.98375 0.29495 0.18249 0.0
C98 C 0.93002 0.29031 0.24902 0.0
C99 C 0.97445 0.30702 0.22725 0.0
H100 H 0.92284 0.29934 0.28364 0.0
H101 H 1.00135 0.32912 0.24501 0.0
H102 H 0.64424 0.27446 0.24774 0.0
H103 H 0.77619 0.13459 0.19418 0.0
H104 H 0.56217 0.23791 0.26919 0.0
H105 H 1.018 0.30757 0.1655 0.0
H106 H 0.99103 0.26313 0.09681 0.0
H107 H 0.77926 0.37821 0.38671 0.0
H108 H 0.85632 0.14227 0.06865 0.0
H109 H 0.78826 0.10366 0.11663 0.0
H110 H 0.54439 0.25012 0.42283 0.0
H111 H 0.93193 0.20248 0.06144 0.0
H112 H 0.67364 0.33974 0.49235 0.0
H113 H 0.75245 0.38331 0.46495 0.0
N114 N 0.71793 0.32913 0.36981 0.0
C115 C 0.67328 0.30804 0.38398 0.0
C116 C 0.74538 0.35795 0.39812 0.0
C117 C 0.68552 0.33686 0.4579 0.0
C118 C 0.73002 0.36146 0.44257 0.0
C119 C 0.6561 0.31063 0.42851 0.0
H120 H 0.59622 0.28934 0.47627 0.0
N121 N 0.6615 0.28542 0.31107 0.0
C122 C 0.64428 0.28549 0.35375 0.0
C123 C 0.56761 0.24737 0.3366 0.0
C124 C 0.59704 0.2657 0.36755 0.0
C125 C 0.63205 0.27038 0.28108 0.0
C126 C 0.58501 0.25041 0.29325 0.0
O127 O 0.8458 0.29955 0.23882 0.0
O128 O 0.78037 0.31136 0.22581 0.0
O129 O 0.6982 0.36091 0.29252 0.0
O130 O 0.77128 0.39055 0.29293 0.0
O131 O 0.83755 0.2839 0.3215 0.0
O132 O 0.8139 0.34684 0.31598 0.0
O133 O 0.74436 0.26996 0.33945 0.0
O134 O 0.74884 0.20398 0.29404 0.0
O135 O 0.83933 0.21078 0.31571 0.0
O136 O 0.84903 0.17099 0.25285 0.0
O137 O 0.71881 0.2629 0.23826 0.0
O138 O 0.75477 0.2046 0.22989 0.0
C139 C 0.8247 0.31339 0.21434 0.0
C140 C 0.83904 0.32795 0.33231 0.0
C141 C 0.73451 0.42162 0.25204 0.0
C142 C 0.69928 0.43729 0.19654 0.0
C143 C 0.77775 0.47936 0.20721 0.0
C144 C 0.77489 0.45551 0.24054 0.0
C145 C 0.74019 0.47074 0.18567 0.0
C146 C 0.69659 0.41242 0.2296 0.0
C147 C 0.73255 0.39679 0.28762 0.0
C148 C 0.58036 0.26599 0.41179 0.0
C149 C 0.60987 0.2883 0.44222 0.0
H150 H 0.53119 0.23239 0.34618 0.0
C151 C 0.73154 0.22511 0.33061 0.0
C152 C 0.72337 0.22166 0.22021 0.0
C153 C 0.90455 0.18107 0.29887 0.0
C154 C 0.95667 0.17359 0.34416 0.0
C155 C 0.98749 0.19686 0.27383 0.0
C156 C 0.94285 0.19313 0.26682 0.0
C157 C 0.99443 0.18697 0.31218 0.0
C158 C 0.91178 0.17158 0.33776 0.0
C159 C 0.85726 0.17886 0.29236 0.0
H160 H 0.80935 0.50435 0.19765 0.0
H161 H 0.80448 0.46339 0.25713 0.0
H162 H 0.74325 0.48979 0.15988 0.0
H163 H 0.66527 0.38611 0.2375 0.0
H164 H 1.01672 0.20642 0.24899 0.0
H165 H 0.93841 0.19948 0.2362 0.0
H166 H 0.02909 0.18822 0.31635 0.0
H167 H 0.88247 0.16092 0.36226 0.0
C168 C 0.90146 0.87756 0.22556 0.0
C169 C 0.92343 0.84726 0.1508 0.0
C170 C 0.89133 0.8462 0.18924 0.0
C171 C 0.96712 0.8788 0.15047 0.0
C172 C 0.94419 0.91105 0.22478 0.0
C173 C 0.97749 0.91069 0.18743 0.0
N174 N 0.86806 0.87747 0.26062 0.0
C175 C 0.87401 0.91154 0.29518 0.0
C176 C 0.95149 0.94466 0.26109 0.0
C177 C 0.91604 0.94499 0.29628 0.0
Gd178 Gd 0.75236 0.71325 0.32386 0.0
Gd179 Gd 0.79932 0.81865 0.2574 0.0
N180 N 0.84843 0.81713 0.19053 0.0
C181 C 0.9098 0.81809 0.11345 0.0
C182 C 0.83356 0.79177 0.15338 0.0
C183 C 0.86432 0.79087 0.11457 0.0
H184 H 0.79811 0.77172 0.15386 0.0
H185 H 0.85284 0.76954 0.08551 0.0
H186 H 0.78488 0.79769 0.40642 0.0
H187 H 0.84653 0.91235 0.32233 0.0
H188 H 0.75336 0.82523 0.48019 0.0
H189 H 0.93342 0.81776 0.08326 0.0
H190 H 0.99248 0.87986 0.12141 0.0
H191 H 0.66294 0.63283 0.28217 0.0
H192 H 0.98399 0.97075 0.26207 0.0
H193 H 0.92135 0.97005 0.32479 0.0
H194 H 0.59687 0.73365 0.4982 0.0
H195 H 1.01074 0.9358 0.18636 0.0
H196 H 0.5433 0.62384 0.37877 0.0
H197 H 0.58053 0.59921 0.30531 0.0
N198 N 0.67281 0.67842 0.34136 0.0
C199 C 0.65315 0.6918 0.38232 0.0
C200 C 0.64727 0.64526 0.31397 0.0
C201 C 0.57963 0.63928 0.36872 0.0
C202 C 0.60045 0.62545 0.32715 0.0
C203 C 0.60589 0.67272 0.3969 0.0
H204 H 0.54991 0.67339 0.45055 0.0
N205 N 0.72487 0.7453 0.39413 0.0
C206 C 0.67992 0.72574 0.40953 0.0
C207 C 0.68671 0.77713 0.47726 0.0
C208 C 0.65965 0.74147 0.45148 0.0
C209 C 0.75078 0.78065 0.41903 0.0
C210 C 0.73241 0.79691 0.46088 0.0
O211 O 0.83881 0.76291 0.22758 0.0
O212 O 0.80632 0.69975 0.26324 0.0
O213 O 0.77987 0.6837 0.36577 0.0
O214 O 0.73604 0.63965 0.321 0.0
O215 O 0.74886 0.75671 0.22526 0.0
O216 O 0.72667 0.69392 0.26119 0.0
O217 O 0.70774 0.76586 0.33539 0.0
O218 O 0.75971 0.83415 0.32525 0.0
O219 O 0.7387 0.827 0.2366 0.0
O220 O 0.7977 0.88453 0.24546 0.0
O221 O 0.82505 0.75606 0.33069 0.0
O222 O 0.82495 0.82758 0.32229 0.0
C223 C 0.83635 0.72044 0.23233 0.0
C224 C 0.72621 0.71391 0.22917 0.0
C225 C 0.80262 0.61806 0.32619 0.0
C226 C 0.8686 0.59142 0.33243 0.0
C227 C 0.84619 0.58338 0.26235 0.0
C228 C 0.81008 0.60334 0.28129 0.0
C229 C 0.87481 0.57666 0.28774 0.0
C230 C 0.83235 0.61211 0.35166 0.0
C231 C 0.76612 0.64233 0.34548 0.0
C232 C 0.61287 0.722 0.46608 0.0
C233 C 0.5861 0.68775 0.4389 0.0
H234 H 0.67244 0.79032 0.50945 0.0
C235 C 0.71827 0.81136 0.34192 0.0
C236 C 0.84203 0.80037 0.33761 0.0
C237 C 0.75638 0.88362 0.19029 0.0
C238 C 0.71617 0.9087 0.14428 0.0
C239 C 0.79753 0.91011 0.12301 0.0
C240 C 0.79706 0.89327 0.16023 0.0
C241 C 0.75765 0.91808 0.11522 0.0
C242 C 0.7155 0.89081 0.18184 0.0
C243 C 0.75806 0.86948 0.2315 0.0
H244 H 0.85249 0.57372 0.22772 0.0
H245 H 0.78855 0.60789 0.26045 0.0
H246 H 0.90259 0.56094 0.27245 0.0
H247 H 0.82775 0.62395 0.38613 0.0
H248 H 0.82916 0.91746 0.10025 0.0
H249 H 0.829 0.88871 0.1658 0.0
H250 H 0.75904 0.93136 0.08605 0.0
H251 H 0.68375 0.88322 0.20446 0.0
C252 C 0.3091 0.6614 0.34199 0.0
C253 C 0.25925 0.58504 0.32623 0.0
C254 C 0.2834 0.62807 0.31422 0.0
C255 C 0.25981 0.57675 0.36757 0.0
C256 C 0.312 0.65228 0.3826 0.0
C257 C 0.28618 0.61032 0.39572 0.0
N258 N 0.33349 0.70161 0.32818 0.0
C259 C 0.36572 0.73164 0.35146 0.0
C260 C 0.34187 0.68501 0.40818 0.0
C261 C 0.36958 0.72441 0.3921 0.0
Gd262 Gd 0.24038 0.79483 0.27355 0.0
Gd263 Gd 0.31988 0.7121 0.26102 0.0
N264 N 0.28315 0.63741 0.27475 0.0
C265 C 0.23615 0.55138 0.29593 0.0
C266 C 0.26318 0.60405 0.24421 0.0
C267 C 0.23882 0.5607 0.25447 0.0
H268 H 0.26508 0.61126 0.21219 0.0
H269 H 0.22197 0.53463 0.23047 0.0
H270 H 0.24942 0.87071 0.36476 0.0
H271 H 0.38955 0.76077 0.33865 0.0
H272 H 0.28321 0.95334 0.38713 0.0
H273 H 0.21719 0.51785 0.30387 0.0
H274 H 0.24097 0.54413 0.37764 0.0
H275 H 0.21468 0.78681 0.17558 0.0
H276 H 0.34513 0.67936 0.43956 0.0
H277 H 0.39446 0.74895 0.4107 0.0
H278 H 0.33372 1.01308 0.25328 0.0
H279 H 0.2874 0.60301 0.42706 0.0
H280 H 0.28625 0.91181 0.12625 0.0
H281 H 0.23708 0.83224 0.11537 0.0
N282 N 0.25565 0.83791 0.21694 0.0
C283 C 0.2776 0.8829 0.22527 0.0
C284 C 0.23745 0.82085 0.17949 0.0
C285 C 0.2773 0.89158 0.15212 0.0
C286 C 0.24958 0.8467 0.14583 0.0
C287 C 0.29002 0.91087 0.19285 0.0
H288 H 0.32275 0.97947 0.17826 0.0
N289 N 0.26698 0.87408 0.29799 0.0
C290 C 0.28333 0.9017 0.26733 0.0
C291 C 0.30328 0.96764 0.32188 0.0
C292 C 0.30239 0.94915 0.27829 0.0
C293 C 0.26499 0.89251 0.34061 0.0
C294 C 0.2839 0.93924 0.35324 0.0
O295 O 0.24555 0.69203 0.29497 0.0
O296 O 0.23145 0.75881 0.33237 0.0
O297 O 0.18413 0.82735 0.29634 0.0
O298 O 0.17143 0.75925 0.25997 0.0
O299 O 0.27717 0.69676 0.20571 0.0
O300 O 0.21376 0.72245 0.23974 0.0
O301 O 0.2925 0.78977 0.21229 0.0
O302 O 0.35218 0.7812 0.23827 0.0
O303 O 0.34867 0.67856 0.2002 0.0
O304 O 0.38752 0.69957 0.25389 0.0
O305 O 0.28642 0.81214 0.32727 0.0
O306 O 0.34835 0.7832 0.29594 0.0
C307 C 0.22793 0.71477 0.33049 0.0
C308 C 0.23401 0.69805 0.20736 0.0
C309 C 0.11327 0.77503 0.31352 0.0
C310 C 0.08395 0.76767 0.38843 0.0
C311 C 0.03093 0.75082 0.33585 0.0
C312 C 0.06838 0.76287 0.30368 0.0
C313 C 0.03837 0.75336 0.37803 0.0
C314 C 0.12073 0.77337 0.35442 0.0
C315 C 0.15314 0.79125 0.28219 0.0
C316 C 0.31828 0.97669 0.2456 0.0
C317 C 0.31216 0.95754 0.20287 0.0
H318 H 0.31718 1.00393 0.33175 0.0
C319 C 0.33695 0.79681 0.21059 0.0
C320 C 0.3303 0.81236 0.32515 0.0
C321 C 0.42466 0.7217 0.18634 0.0
C322 C 0.46147 0.7383 0.11455 0.0
C323 C 0.47546 0.797 0.17696 0.0
C324 C 0.44751 0.76605 0.20407 0.0
C325 C 0.48279 0.78315 0.13225 0.0
C326 C 0.43041 0.70911 0.14197 0.0
C327 C 0.38931 0.69012 0.21217 0.0
H328 H 0.996 0.74157 0.32861 0.0
H329 H 0.06241 0.76318 0.27157 0.0
H330 H 1.00818 0.74686 0.40245 0.0
H331 H 0.15599 0.78212 0.36036 0.0
H332 H 0.49245 0.83133 0.19072 0.0
H333 H 0.4429 0.77704 0.23857 0.0
H334 H 0.50695 0.80637 0.11193 0.0
H335 H 0.41254 0.67473 0.12919 0.0
C336 C 0.36632 0.68976 0.66834 0.0
C337 C 0.44442 0.73897 0.66182 0.0
C338 C 0.39924 0.72708 0.6849 0.0
C339 C 0.45488 0.71491 0.6205 0.0
C340 C 0.37715 0.6643 0.62756 0.0
C341 C 0.42121 0.6778 0.6033 0.0
N342 N 0.32445 0.67706 0.69302 0.0
C343 C 0.29329 0.63717 0.68022 0.0
C344 C 0.34387 0.62518 0.61302 0.0
C345 C 0.30197 0.61115 0.63981 0.0
Gd346 Gd 0.23315 0.81283 0.8005 0.0
Gd347 Gd 0.31246 0.72313 0.76054 0.0
N348 N 0.38815 0.74949 0.72504 0.0
C349 C 0.47836 0.77301 0.6819 0.0
C350 C 0.42174 0.781 0.74559 0.0
C351 C 0.46711 0.79322 0.72439 0.0
H352 H 0.41389 0.79642 0.7786 0.0
H353 H 0.49339 0.81747 0.74143 0.0
H354 H 0.13207 0.74742 0.76353 0.0
H355 H 0.26248 0.62469 0.70199 0.0
H356 H 0.05868 0.69781 0.79276 0.0
H357 H 0.51367 0.78235 0.66558 0.0
H358 H 0.48926 0.72392 0.60212 0.0
H359 H 0.27642 0.88117 0.88629 0.0
H360 H 0.35085 0.6047 0.58192 0.0
H361 H 0.27677 0.57985 0.62979 0.0
H362 H 0.06279 0.72085 0.94486 0.0
H363 H 0.43007 0.65887 0.57181 0.0
H364 H 0.18715 0.83906 1.00024 0.0
H365 H 0.25847 0.88902 0.9656 0.0
N366 N 0.21641 0.82665 0.87604 0.0
C367 C 0.17532 0.80145 0.89435 0.0
C368 C 0.24531 0.85903 0.90094 0.0
C369 C 0.19459 0.83586 0.96538 0.0
C370 C 0.23502 0.86391 0.94595 0.0
C371 C 0.16407 0.80423 0.93958 0.0
H372 H 0.11492 0.77522 0.99208 0.0
N373 N 0.15732 0.76957 0.82401 0.0
C374 C 0.14526 0.77164 0.8676 0.0
C375 C 0.07266 0.71559 0.85817 0.0
C376 C 0.10335 0.74354 0.88572 0.0
C377 C 0.12555 0.74546 0.7975 0.0
C378 C 0.08311 0.71779 0.81409 0.0
O379 O 0.33813 0.78936 0.73186 0.0
O380 O 0.27232 0.81187 0.73189 0.0
O381 O 0.18049 0.84548 0.79686 0.0
O382 O 0.24882 0.88699 0.80661 0.0
O383 O 0.33481 0.78045 0.81596 0.0
O384 O 0.30715 0.84283 0.81655 0.0
O385 O 0.24277 0.76641 0.84178 0.0
O386 O 0.2404 0.69979 0.79719 0.0
O387 O 0.33259 0.70865 0.81664 0.0
O388 O 0.3287 0.65894 0.7589 0.0
O389 O 0.21164 0.76163 0.74139 0.0
O390 O 0.2477 0.70228 0.72689 0.0
C391 C 0.31548 0.81108 0.71608 0.0
C392 C 0.33405 0.82357 0.83034 0.0
C393 C 0.20749 0.91441 0.76673 0.0
C394 C 0.17506 0.92725 0.70787 0.0
C395 C 0.23466 0.9876 0.74061 0.0
C396 C 0.23598 0.95933 0.76886 0.0
C397 C 0.20436 0.97175 0.71035 0.0
C398 C 0.17688 0.89838 0.73587 0.0
C399 C 0.20852 0.8862 0.79858 0.0
C400 C 0.09368 0.74384 0.93057 0.0
C401 C 0.12349 0.77466 0.95749 0.0
H402 H 0.04036 0.69305 0.8707 0.0
C403 C 0.22739 0.72188 0.83506 0.0
C404 C 0.21659 0.72145 0.72008 0.0
C405 C 0.38702 0.66431 0.79943 0.0
C406 C 0.43526 0.63943 0.83679 0.0
C407 C 0.4652 0.66142 0.76592 0.0
C408 C 0.42324 0.66984 0.76444 0.0
C409 C 0.47108 0.64581 0.80167 0.0
C410 C 0.39366 0.65015 0.83617 0.0
C411 C 0.3416 0.67049 0.79671 0.0
H412 H 0.25687 0.02211 0.74247 0.0
H413 H 0.25931 0.97266 0.79255 0.0
H414 H 0.2034 0.99439 0.68904 0.0
H415 H 0.15403 0.86412 0.73396 0.0
H416 H 0.49276 0.66571 0.73869 0.0
H417 H 0.41891 0.67953 0.73546 0.0
H418 H 0.50323 0.63766 0.80159 0.0
H419 H 0.36574 0.64486 0.86306 0.0
C420 C 0.40284 0.37817 0.69966 0.0
C421 C 0.41099 0.35533 0.6219 0.0
C422 C 0.38395 0.35396 0.66313 0.0
C423 C 0.45795 0.37935 0.61815 0.0
C424 C 0.44921 0.40473 0.69566 0.0
C425 C 0.477 0.40405 0.65494 0.0
N426 N 0.37504 0.37836 0.73859 0.0
C427 C 0.39017 0.40796 0.77394 0.0
C428 C 0.46575 0.43268 0.73238 0.0
C429 C 0.4358 0.43508 0.77144 0.0
Gd430 Gd 0.25353 0.22014 0.79894 0.0
Gd431 Gd 0.2996 0.32948 0.73834 0.0
N432 N 0.33836 0.33141 0.66764 0.0
C433 C 0.38954 0.33399 0.58559 0.0
C434 C 0.31653 0.31393 0.63244 0.0
C435 C 0.34187 0.31403 0.59087 0.0
H436 H 0.27947 0.29981 0.63665 0.0
H437 H 0.32459 0.29904 0.56298 0.0
H438 H 0.22995 0.27779 0.89844 0.0
H439 H 0.36717 0.4098 0.80438 0.0
H440 H 0.17132 0.26703 0.96323 0.0
H441 H 0.40909 0.33431 0.55335 0.0
H442 H 0.47941 0.38033 0.58679 0.0
H443 H 0.22186 0.12486 0.72715 0.0
H444 H 0.5011 0.45372 0.73061 0.0
H445 H 0.448 0.45768 0.79961 0.0
H446 H 0.05697 0.13078 0.91845 0.0
H447 H 0.51285 0.42376 0.65137 0.0
H448 H 0.0868 0.04905 0.77624 0.0
H449 H 0.15427 0.0588 0.71827 0.0
N450 N 0.19116 0.15524 0.78742 0.0
C451 C 0.15531 0.14945 0.82048 0.0
C452 C 0.19182 0.12231 0.75177 0.0
C453 C 0.11587 0.0789 0.77978 0.0
C454 C 0.15386 0.08431 0.74696 0.0
C455 C 0.11672 0.11105 0.81756 0.0
H456 H 0.05102 0.07594 0.85111 0.0
N457 N 0.19609 0.21717 0.86024 0.0
C458 C 0.15843 0.18064 0.85834 0.0
C459 C 0.1285 0.20502 0.93263 0.0
C460 C 0.12334 0.17388 0.89439 0.0
C461 C 0.20085 0.24812 0.89729 0.0
C462 C 0.16739 0.24235 0.93404 0.0
O463 O 0.33454 0.27159 0.70077 0.0
O464 O 0.30815 0.20959 0.73868 0.0
O465 O 0.314 0.21655 0.82336 0.0
O466 O 0.25452 0.15837 0.82038 0.0
O467 O 0.2358 0.27618 0.7177 0.0
O468 O 0.24172 0.20737 0.7297 0.0
O469 O 0.20221 0.26644 0.81469 0.0
O470 O 0.24909 0.33722 0.80281 0.0
O471 O 0.26606 0.3621 0.70405 0.0
O472 O 0.29923 0.40073 0.75994 0.0
O473 O 0.29048 0.2885 0.83355 0.0
O474 O 0.34471 0.32087 0.78226 0.0
C475 C 0.33581 0.23028 0.70663 0.0
C476 C 0.22909 0.23162 0.70744 0.0
C477 C 0.29906 0.1668 0.8751 0.0
C478 C 0.33904 0.14005 0.91931 0.0
C479 C 0.26574 0.15788 0.94945 0.0
C480 C 0.26341 0.16921 0.91018 0.0
C481 C 0.30312 0.14299 0.9539 0.0
C482 C 0.33733 0.15266 0.87996 0.0
C483 C 0.29491 0.17551 0.83264 0.0
C484 C 0.08442 0.13629 0.89124 0.0
C485 C 0.08098 0.10512 0.85284 0.0
H486 H 0.10242 0.20088 0.96104 0.0
C487 C 0.20812 0.31139 0.81824 0.0
C488 C 0.33364 0.30917 0.82079 0.0
C489 C 0.26432 0.44243 0.72501 0.0
C490 C 0.21208 0.47793 0.70389 0.0
C491 C 0.27268 0.52431 0.74497 0.0
C492 C 0.28702 0.48553 0.74546 0.0
C493 C 0.2353 0.52056 0.72446 0.0
C494 C 0.22696 0.4389 0.70385 0.0
C495 C 0.27679 0.40104 0.72958 0.0
H496 H 0.23794 0.15959 0.97619 0.0
H497 H 0.23321 0.17874 0.90704 0.0
H498 H 0.30371 0.13279 0.98411 0.0
H499 H 0.36469 0.1498 0.85293 0.0
H500 H 0.29038 0.55734 0.76084 0.0
H501 H 0.31558 0.48922 0.76228 0.0
H502 H 0.22443 0.55086 0.72455 0.0
H503 H 0.20881 0.4059 0.68818 0.0
C504 C 0.79171 0.19273 0.845 0.0
C505 C 0.73362 0.11993 0.83532 0.0
C506 C 0.75877 0.16192 0.82142 0.0
C507 C 0.74087 0.10979 0.8737 0.0
C508 C 0.80076 0.18124 0.8823 0.0
C509 C 0.77448 0.14024 0.89699 0.0
N510 N 0.8164 0.23273 0.83046 0.0
C511 C 0.85381 0.2597 0.84904 0.0
C512 C 0.83637 0.21105 0.90354 0.0
C513 C 0.86346 0.25001 0.88641 0.0
Gd514 Gd 0.71615 0.32739 0.78697 0.0
Gd515 Gd 0.79543 0.24485 0.76758 0.0
N516 N 0.75224 0.17241 0.78423 0.0
C517 C 0.70266 0.08878 0.80966 0.0
C518 C 0.72474 0.14069 0.75752 0.0
C519 C 0.69879 0.09891 0.77028 0.0
H520 H 0.72214 0.14772 0.72668 0.0
H521 H 0.67603 0.07441 0.74959 0.0
H522 H 0.73415 0.40722 0.87516 0.0
H523 H 0.87716 0.28838 0.83495 0.0
H524 H 0.767 0.49049 0.89254 0.0
H525 H 0.68265 0.05625 0.81933 0.0
H526 H 0.72145 0.07794 0.88509 0.0
H527 H 0.68708 0.30926 0.68841 0.0
H528 H 0.84415 0.20355 0.93238 0.0
H529 H 0.89233 0.27226 0.90159 0.0
H530 H 0.79532 0.54357 0.75629 0.0
H531 H 0.78043 0.13139 0.926 0.0
H532 H 0.73894 0.43491 0.63645 0.0
H533 H 0.69839 0.3524 0.62822 0.0
N534 N 0.72216 0.36656 0.72937 0.0
C535 C 0.74102 0.41239 0.73569 0.0
C536 C 0.70449 0.34534 0.69222 0.0
C537 C 0.7339 0.41618 0.6629 0.0
C538 C 0.71096 0.36962 0.65814 0.0
C539 C 0.74846 0.43837 0.70233 0.0
H540 H 0.77588 0.50614 0.68437 0.0
N541 N 0.74095 0.40739 0.80795 0.0
C542 C 0.7509 0.43347 0.77627 0.0
C543 C 0.77649 0.50173 0.82675 0.0
C544 C 0.76957 0.48125 0.78459 0.0
C545 C 0.74483 0.42762 0.8496 0.0
C546 C 0.76318 0.47487 0.85956 0.0
O547 O 0.72058 0.22584 0.80255 0.0
O548 O 0.71264 0.29172 0.84431 0.0
O549 O 0.65984 0.35821 0.81802 0.0
O550 O 0.64517 0.28978 0.78232 0.0
O551 O 0.75275 0.22776 0.71278 0.0
O552 O 0.69149 0.25868 0.74439 0.0
O553 O 0.76939 0.32834 0.72557 0.0
O554 O 0.8304 0.31495 0.74593 0.0
O555 O 0.84077 0.23496 0.70675 0.0
O556 O 0.84188 0.20209 0.75954 0.0
O557 O 0.76648 0.34534 0.83691 0.0
O558 O 0.82699 0.31359 0.80534 0.0
C559 C 0.70598 0.2472 0.8403 0.0
C560 C 0.71023 0.23051 0.71406 0.0
C561 C 0.59452 0.30282 0.84484 0.0
C562 C 0.57915 0.28608 0.9186 0.0
C563 C 0.51884 0.25826 0.87261 0.0
C564 C 0.54901 0.27916 0.83921 0.0
C565 C 0.53369 0.26167 0.91193 0.0
C566 C 0.60962 0.305 0.88373 0.0
C567 C 0.62805 0.32063 0.80874 0.0
C568 C 0.77995 0.507 0.75078 0.0
C569 C 0.76909 0.48565 0.70979 0.0
H570 H 0.79067 0.53834 0.8345 0.0
C571 C 0.8142 0.33609 0.7232 0.0
C572 C 0.80984 0.34351 0.83425 0.0
C573 C 0.91257 0.236 0.72402 0.0
C574 C 0.98807 0.22299 0.71613 0.0
C575 C 0.97802 0.29899 0.74309 0.0
C576 C 0.93086 0.28246 0.73951 0.0
C577 C 1.00696 0.26939 0.7308 0.0
C578 C 0.9407 0.20672 0.71415 0.0
C579 C 0.86346 0.21502 0.72342 0.0
H580 H 0.48366 0.23981 0.86825 0.0
H581 H 0.53719 0.27613 0.80881 0.0
H582 H 0.50908 0.24673 0.93764 0.0
H583 H 0.64523 0.32268 0.88669 0.0
H584 H 0.99223 0.33486 0.75458 0.0
H585 H 0.90898 0.30566 0.74924 0.0
H586 H 0.04379 0.28274 0.73135 0.0
H587 H 0.9258 0.17094 0.70234 0.0
C588 C 0.835 0.89167 0.86724 0.0
C589 C 0.78645 0.88626 0.93726 0.0
C590 C 0.80359 0.86544 0.89624 0.0
C591 C 0.80043 0.934 0.94842 0.0
C592 C 0.85003 0.93954 0.87892 0.0
C593 C 0.83208 0.96056 0.91933 0.0
N594 N 0.85153 0.8703 0.82814 0.0
C595 C 0.88627 0.8947 0.80115 0.0
C596 C 0.88326 0.96485 0.84996 0.0
C597 C 0.90193 0.94224 0.81123 0.0
Gd598 Gd 0.72948 0.75022 0.735 0.0
Gd599 Gd 0.81986 0.79018 0.81445 0.0
N600 N 0.78932 0.81941 0.88398 0.0
C601 C 0.75617 0.85833 0.96597 0.0
C602 C 0.76268 0.79186 0.91275 0.0
C603 C 0.74488 0.81084 0.95391 0.0
H604 H 0.75562 0.7552 0.90395 0.0
H605 H 0.72281 0.78887 0.97639 0.0
H606 H 0.78585 0.80279 0.65111 0.0
H607 H 0.903 0.87794 0.7721 0.0
H608 H 0.80722 0.78301 0.57263 0.0
H609 H 0.74232 0.87298 0.99785 0.0
H610 H 0.78739 0.95066 0.97969 0.0
H611 H 0.64902 0.65601 0.76708 0.0
H612 H 0.89568 1.00168 0.85772 0.0
H613 H 0.92885 0.96136 0.7893 0.0
H614 H 0.74018 0.62108 0.54372 0.0
H615 H 0.84302 0.99732 0.92865 0.0
H616 H 0.64471 0.54733 0.66058 0.0
H617 H 0.61932 0.57557 0.737 0.0
N618 N 0.69498 0.67312 0.7096 0.0
C619 C 0.70794 0.65869 0.66702 0.0
C620 C 0.66234 0.6442 0.73426 0.0
C621 C 0.65899 0.58266 0.67391 0.0
C622 C 0.6446 0.59846 0.71707 0.0
C623 C 0.6902 0.61308 0.64804 0.0
H624 H 0.68996 0.56462 0.58866 0.0
N625 N 0.75336 0.73405 0.66079 0.0
C626 C 0.73722 0.69025 0.64176 0.0
C627 C 0.77432 0.71111 0.57186 0.0
C628 C 0.74809 0.6774 0.5968 0.0
C629 C 0.77671 0.76747 0.63642 0.0
C630 C 0.78814 0.75645 0.59173 0.0
O631 O 0.75986 0.82643 0.82875 0.0
O632 O 0.69686 0.77699 0.80217 0.0
O633 O 0.71018 0.80647 0.71923 0.0
O634 O 0.66236 0.73868 0.71601 0.0
O635 O 0.7699 0.71948 0.8209 0.0
O636 O 0.70355 0.71924 0.79717 0.0
O637 O 0.78677 0.70988 0.71556 0.0
O638 O 0.84741 0.74627 0.75424 0.0
O639 O 0.83881 0.74954 0.85313 0.0
O640 O 0.88877 0.81044 0.83117 0.0
O641 O 0.78419 0.8185 0.73088 0.0
O642 O 0.84958 0.8101 0.74755 0.0
C643 C 0.71461 0.81442 0.82781 0.0
C644 C 0.7254 0.70228 0.8187 0.0
C645 C 0.6589 0.78666 0.66787 0.0
C646 C 0.63455 0.83444 0.62987 0.0
C647 C 0.63194 0.7553 0.5989 0.0
C648 C 0.64877 0.74985 0.63434 0.0
C649 C 0.62394 0.79699 0.59708 0.0
C650 C 0.65371 0.82948 0.66445 0.0
C651 C 0.671 0.78039 0.70818 0.0
C652 C 0.73166 0.63172 0.57809 0.0
C653 C 0.70304 0.59957 0.60369 0.0
H654 H 0.78317 0.70267 0.53721 0.0
C655 C 0.8288 0.71362 0.72441 0.0
C656 C 0.82953 0.82675 0.72416 0.0
C657 C 0.91624 0.76976 0.87323 0.0
C658 C 0.94498 0.72439 0.91049 0.0
C659 C 0.99342 0.79808 0.89232 0.0
C660 C 0.95866 0.80325 0.87339 0.0
C661 C 0.9865 0.75934 0.91088 0.0
C662 C 0.90924 0.73031 0.89218 0.0
C663 C 0.8806 0.77633 0.85208 0.0
H664 H 0.62374 0.7267 0.57338 0.0
H665 H 0.65282 0.71665 0.6359 0.0
H666 H 0.60883 0.79992 0.57034 0.0
H667 H 0.66176 0.85817 0.69002 0.0
H668 H 1.02581 0.82432 0.89286 0.0
H669 H 0.96502 0.83376 0.85907 0.0
H670 H 1.01351 0.75713 0.92653 0.0
H671 H 0.87656 0.70435 0.89246 0.0
Fe672 Fe 0.04397 0.06338 0.52681 0.0
O673 O 0.99381 1.00868 0.50653 0.0
Fe674 Fe 0.13589 1.01826 0.52434 0.0
Fe675 Fe 0.92681 1.00802 0.52861 0.0
O676 O 0.07108 1.01732 0.53924 0.0
O677 O 0.06831 1.01381 0.54343 0.0
O678 O 0.99169 1.00321 0.50822 0.0
Fe679 Fe 1.01522 0.95881 0.52958 0.0
C680 C 0.97331 0.07492 0.60039 0.0
O681 O 1.00978 0.1055 0.50918 0.0
O682 O 0.94353 0.05595 0.48769 0.0
O683 O 0.05308 0.94196 0.47024 0.0
O684 O 0.12437 0.95679 0.48384 0.0
O685 O 0.14953 0.05971 0.47456 0.0
O686 O 0.08205 0.06742 0.46547 0.0
O687 O 0.91511 0.95152 0.48211 0.0
O688 O 0.95526 0.91001 0.50423 0.0
C689 C 0.12584 0.07504 0.45477 0.0
O690 O 0.04972 0.92482 0.56006 0.0
O691 O 0.12065 0.97633 0.57074 0.0
O692 O 1.00882 0.06093 0.58717 0.0
O693 O 0.94052 0.06351 0.57814 0.0
C694 C 0.97681 0.09312 0.48563 0.0
C695 C 0.92848 0.91484 0.47919 0.0
C696 C 0.93287 0.95301 0.59748 0.0
O697 O 0.90934 0.96092 0.57263 0.0
O698 O 0.97676 0.96778 0.59087 0.0
C699 C 0.08985 0.92936 0.46773 0.0
O700 O 0.14636 0.07826 0.56699 0.0
O701 O 0.09621 0.1157 0.55557 0.0
C702 C 0.08754 0.9399 0.57783 0.0
C703 C 0.12971 0.11321 0.57359 0.0
Fe704 Fe 0.52228 0.96529 1.01857 0.0
O705 O 0.56435 0.02315 0.99813 0.0
Fe706 Fe 0.41956 0.99883 0.06099 0.0
Fe707 Fe 0.63281 0.03965 0.99488 0.0
O708 O 0.4875 1.01 0.05559 0.0
O709 O 0.4882 1.01679 0.05803 0.0
O710 O 0.56499 0.02936 1.00053 0.0
Fe711 Fe 0.52867 0.07399 0.03514 0.0
C712 C 0.60298 0.97333 0.06294 0.0
O713 O 0.56693 0.92759 0.97331 0.0
O714 O 0.6276 0.98277 0.94539 0.0
O715 O 0.48989 0.06137 0.98537 0.0
O716 O 0.41905 0.04438 1.02257 0.0
O717 O 0.41308 0.94738 1.00708 0.0
O718 O 0.48293 0.95214 0.96844 0.0
O719 O 0.63293 0.09004 0.95978 0.0
O720 O 0.57771 0.1259 1.00071 0.0
C721 C 0.43881 0.93793 0.97155 0.0
O722 O 0.48018 0.11146 0.07746 0.0
O723 O 0.4245 0.0553 0.11052 0.0
O724 O 0.56017 0.97166 0.06756 0.0
O725 O 0.63229 0.99279 0.03354 0.0
C726 C 0.60449 0.93992 0.9451 0.0
C727 C 0.61254 0.1232 0.96913 0.0
C728 C 0.61385 0.10393 0.08285 0.0
O729 O 0.63971 0.09188 0.04834 0.0
O730 O 0.56943 0.09207 0.08554 0.0
C731 C 0.44701 0.05984 0.99073 0.0
O732 O 0.42065 0.9491 0.09516 0.0
O733 O 0.47293 0.91217 0.05068 0.0
C734 C 0.44301 0.0982 0.10633 0.0
C735 C 0.44004 0.91533 0.08397 0.0
Fe736 Fe 0.0314 0.57067 0.03382 0.0
O737 O 0.98368 0.51556 0.05386 0.0
Fe738 Fe 0.12788 0.526 0.99134 0.0
Fe739 Fe 0.91622 0.50775 0.05461 0.0
O740 O 0.06133 0.52196 0.99714 0.0
O741 O 0.06015 0.51581 0.99372 0.0
O742 O 0.98245 0.50862 0.05042 0.0
Fe743 Fe 1.01167 0.45988 1.01124 0.0
C744 C 0.9491 0.60267 0.10704 0.0
O745 O 0.99679 0.56706 0.98382 0.0
O746 O 0.9257 0.56 1.01874 0.0
O747 O 0.05242 0.41722 0.96509 0.0
O748 O 0.11955 0.4693 0.94211 0.0
O749 O 0.1328 0.57522 0.95543 0.0
O750 O 0.08651 0.61907 1.0004 0.0
O751 O 0.90645 0.45966 0.9994 0.0
O752 O 0.97486 0.45551 0.96105 0.0
C753 C 0.11756 0.61152 0.96645 0.0
O754 O 0.04663 0.45715 0.05923 0.0
O755 O 0.12125 0.48021 0.03192 0.0
O756 O 0.98818 0.61319 0.07944 0.0
O757 O 0.92414 0.56071 0.10744 0.0
C758 C 0.95787 0.57567 0.98935 0.0
C759 C 0.93092 0.44767 0.96408 0.0
C760 C 0.92193 0.41579 0.07361 0.0
O761 O 0.90734 0.45263 0.08583 0.0
O762 O 0.95505 0.41013 0.04105 0.0
C763 C 0.09255 0.42793 0.93924 0.0
O764 O 0.1387 0.5793 0.04274 0.0
O765 O 0.07034 0.57949 0.08357 0.0
C766 C 0.08892 0.45773 0.05714 0.0
C767 C 0.11474 0.59061 0.07857 0.0
Fe768 Fe 0.5392 0.4969 0.96878 0.0
O769 O 0.57852 0.53511 1.01361 0.0
Fe770 Fe 0.42819 0.47923 0.0275 0.0
Fe771 Fe 0.64361 0.53456 1.01301 0.0
O772 O 0.49309 0.47864 1.0205 0.0
O773 O 0.49329 0.47675 0.02551 0.0
O774 O 0.57886 0.53301 1.01841 0.0
Fe775 Fe 0.53264 0.51554 0.06971 0.0
C776 C 0.60106 0.43768 0.97288 0.0
O777 O 0.59425 0.52418 0.92035 0.0
O778 O 0.65298 0.56642 0.95902 0.0
O779 O 0.50956 0.56823 0.06443 0.0
O780 O 0.43385 0.5406 0.07033 0.0
O781 O 0.43845 0.51587 0.97748 0.0
O782 O 0.51346 0.55008 0.96534 0.0
O783 O 0.64483 0.59162 0.06008 0.0
O784 O 0.58038 0.56278 0.10844 0.0
C785 C 0.47208 0.54531 0.96024 0.0
O786 O 0.47645 0.49012 0.11851 0.0
O787 O 0.4182 0.44591 0.08012 0.0
O788 O 0.56271 0.44271 0.96927 0.0
O789 O 0.63697 0.47151 0.97383 0.0
C790 C 0.63243 0.55679 0.92522 0.0
C791 C 0.62025 0.59207 0.09842 0.0
C792 C 0.60133 0.46977 0.08133 0.0
O793 O 0.63383 0.50073 0.06492 0.0
O794 O 0.55963 0.46339 0.07596 0.0
C795 C 0.46978 0.5742 0.0694 0.0
O796 O 0.42674 0.42334 0.97913 0.0
O797 O 0.49097 0.45017 0.93048 0.0
C798 C 0.43798 0.45765 0.11444 0.0
C799 C 0.45243 0.41963 0.94138 0.0
Fe800 Fe 0.03073 0.42195 0.52272 0.0
O801 O 0.04546 0.49005 0.52898 0.0
Fe802 Fe 0.03883 0.51613 0.47381 0.0
Fe803 Fe 1.01538 0.5295 0.57941 0.0
O804 O 0.04894 0.48958 0.52243 0.0
O805 O 1.01002 0.55599 0.52409 0.0
O806 O 1.00543 0.55567 0.53038 0.0
Fe807 Fe 1.02241 0.62287 0.52817 0.0
C808 C 0.94583 0.43883 0.59055 0.0
O809 O 0.06839 0.44041 0.57286 0.0
O810 O 0.03868 0.49685 0.61992 0.0
O811 O 0.07888 0.62789 0.47943 0.0
O812 O 0.10359 0.56505 0.46898 0.0
O813 O 0.07399 0.46828 0.42866 0.0
O814 O 0.08576 0.42366 0.47249 0.0
O815 O 0.07819 0.57842 0.58531 0.0
O816 O 0.06652 0.64238 0.57507 0.0
C817 C 0.09341 0.43799 0.43584 0.0
O818 O 0.98377 0.60218 0.47818 0.0
O819 O 1.0175 0.54815 0.43221 0.0
O820 O 0.97525 0.41674 0.57195 0.0
O821 O 0.951 0.47952 0.58326 0.0
C822 C 0.06593 0.46902 0.60875 0.0
C823 C 0.08744 0.62205 0.59232 0.0
C824 C 0.9578 0.60537 0.61562 0.0
O825 O 0.97758 0.57577 0.62387 0.0
O826 O 0.96792 0.62077 0.57912 0.0
C827 C 0.10896 0.606 0.46218 0.0
O828 O 0.97459 0.47024 0.4706 0.0
O829 O 0.98722 0.40444 0.47418 0.0
C830 C 0.98996 0.57531 0.44173 0.0
C831 C 0.9662 0.4272 0.4597 0.0
Fe832 Fe 0.51304 0.96169 0.51789 0.0
O833 O 0.48836 1.01377 0.55572 0.0
Fe834 Fe 0.56053 1.00799 0.42337 0.0
Fe835 Fe 0.48312 0.02602 0.62035 0.0
O836 O 0.55262 1.01293 0.48635 0.0
O837 O 0.55473 0.0201 0.48802 0.0
O838 O 0.4911 0.02061 0.55772 0.0
Fe839 Fe 0.52807 0.07143 0.52489 0.0
C840 C 0.43221 0.92575 0.59232 0.0
O841 O 0.56301 0.97298 0.55576 0.0
O842 O 0.52437 0.98421 0.62184 0.0
O843 O 0.57298 0.11595 0.48132 0.0
O844 O 0.61131 0.0689 0.4307 0.0
O845 O 0.59896 0.96164 0.42428 0.0
O846 O 0.55143 0.91584 0.47294 0.0
O847 O 0.53962 0.08117 0.62737 0.0
O848 O 0.58086 0.09385 0.5636 0.0
C849 C 0.58724 0.92437 0.4416 0.0
O850 O 0.47611 0.0548 0.48766 0.0
O851 O 0.51763 0.04856 0.4221 0.0
O852 O 0.46436 0.91728 0.55986 0.0
O853 O 0.43154 0.96653 0.6128 0.0
C854 C 0.5554 0.96875 0.5954 0.0
C855 C 0.57617 0.1017 0.60493 0.0
C856 C 0.45679 0.1102 0.60254 0.0
O857 O 0.44536 0.07325 0.62021 0.0
O858 O 0.49048 0.11733 0.56955 0.0
C859 C 0.60534 0.10882 0.44874 0.0
O860 O 0.50495 0.95139 0.41526 0.0
O861 O 0.46085 0.94395 0.4787 0.0
C862 C 0.48344 0.0591 0.44806 0.0
C863 C 0.46636 0.93458 0.43746 0.0
C864 C 0.20489 0.12843 0.35497 0.0
C865 C 0.19595 0.17237 0.3613 0.0
C866 C 0.1436 0.1532 0.42923 0.0
C867 C 0.15014 0.10807 0.42181 0.0
N868 N 0.18254 0.05115 0.37324 0.0
N869 N 0.15027 0.22284 0.40187 0.0
C870 C 0.17971 0.09541 0.38343 0.0
C871 C 0.16349 0.18347 0.39772 0.0
N872 N 0.23906 0.1188 0.3227 0.0
N873 N 0.12023 0.16867 0.46779 0.0
H874 H 0.16524 0.24694 0.38129 0.0
H875 H 0.1219 0.22995 0.42345 0.0
H876 H 0.10447 0.14854 0.49161 0.0
H877 H 0.11976 0.20274 0.47793 0.0
H878 H 0.25137 0.09003 0.31897 0.0
H879 H 0.25774 0.14147 0.3014 0.0
H880 H 0.19918 0.03786 0.34386 0.0
H881 H 0.16487 0.02654 0.39293 0.0
C882 C 0.95789 0.10751 0.37691 0.0
C883 C 0.96393 0.15516 0.38099 0.0
C884 C 0.98769 0.16579 0.45235 0.0
C885 C 0.98017 0.11752 0.44844 0.0
N886 N 0.97889 0.04724 0.39888 0.0
N887 N 0.99223 0.23108 0.4184 0.0
C888 C 0.97125 0.0898 0.40831 0.0
C889 C 0.9812 0.18481 0.41753 0.0
N890 N 0.93897 0.0787 0.34303 0.0
N891 N 1.00097 0.19343 0.48899 0.0
H892 H 0.98609 0.24576 0.39433 0.0
H893 H 1.00963 0.25499 0.44146 0.0
H894 H 1.01374 0.1822 0.5112 0.0
H895 H 1.00025 0.22756 0.49705 0.0
H896 H 0.92712 0.0436 0.34254 0.0
H897 H 0.93126 0.08974 0.31741 0.0
H898 H 0.97748 0.02732 0.36849 0.0
H899 H 0.99266 0.03449 0.41954 0.0
C900 C 0.91332 0.85892 0.3629 0.0
C901 C 0.87559 0.82083 0.3703 0.0
C902 C 0.88509 0.83538 0.44699 0.0
C903 C 0.91588 0.87866 0.44136 0.0
N904 N 0.96579 0.92879 0.39242 0.0
N905 N 0.85371 0.75874 0.41177 0.0
C906 C 0.93247 0.88924 0.39866 0.0
C907 C 0.86971 0.80437 0.41009 0.0
N908 N 0.93434 0.8624 0.32151 0.0
N909 N 0.86909 0.82433 0.48745 0.0
H910 H 0.85242 0.73485 0.38377 0.0
H911 H 0.85067 0.74471 0.43947 0.0
H912 H 0.88033 0.84569 0.51506 0.0
H913 H 0.84244 0.79536 0.49359 0.0
H914 H 0.96614 0.88529 0.31348 0.0
H915 H 0.92225 0.8384 0.29555 0.0
H916 H 0.97537 0.94118 0.36312 0.0
H917 H 0.98315 0.94983 0.4171 0.0
C918 C 0.13519 0.8222 0.43739 0.0
C919 C 0.09366 0.78797 0.4334 0.0
C920 C 0.05179 0.84256 0.47039 0.0
C921 C 0.09061 0.87939 0.45695 0.0
N922 N 0.17316 0.90081 0.42961 0.0
N923 N 1.02478 0.76229 0.48059 0.0
C924 C 0.13399 0.8684 0.44168 0.0
C925 C 0.05605 0.79717 0.4622 0.0
N926 N 0.17471 0.80995 0.43589 0.0
N927 N 1.01151 0.85032 0.49162 0.0
H928 H 0.02901 0.7291 0.47265 0.0
H929 H 0.99755 0.76685 0.50504 0.0
H930 H 1.01139 0.88226 0.50722 0.0
H931 H 0.98049 0.82505 0.49579 0.0
H932 H 0.20549 0.83362 0.44257 0.0
H933 H 0.17431 0.77548 0.43175 0.0
H934 H 0.20559 0.89458 0.42198 0.0
H935 H 0.17284 0.93259 0.42371 0.0
C936 C 0.09931 0.92504 0.68782 0.0
C937 C 0.14181 0.91265 0.6763 0.0
C938 C 0.13072 0.89418 0.60035 0.0
C939 C 0.09437 0.91605 0.61086 0.0
N940 N 0.03924 0.94686 0.66407 0.0
N941 N 0.19601 0.88028 0.62305 0.0
C942 C 0.07635 0.92861 0.65465 0.0
C943 C 0.15635 0.89457 0.633 0.0
N944 N 0.08183 0.93436 0.73046 0.0
N945 N 0.14094 0.87415 0.55876 0.0
H946 H 0.21433 0.87878 0.64665 0.0
H947 H 0.21148 0.87104 0.59172 0.0
H948 H 0.12164 0.8735 0.53518 0.0
H949 H 0.16525 0.85519 0.54848 0.0
H950 H 0.04956 0.94073 0.74157 0.0
H951 H 0.09842 0.93226 0.75511 0.0
H952 H 1.02719 0.96194 0.69468 0.0
H953 H 1.02077 0.94752 0.64036 0.0
C954 C 0.22191 0.20132 0.62839 0.0
C955 C 0.20111 0.20597 0.67247 0.0
C956 C 0.13084 0.14988 0.65124 0.0
C957 C 0.14947 0.15105 0.60691 0.0
N958 N 0.21032 0.18474 0.55357 0.0
N959 N 0.13258 0.18848 0.7251 0.0
C960 C 0.19395 0.17967 0.5957 0.0
C961 C 0.15435 0.18178 0.68358 0.0
N962 N 0.26879 0.21296 0.61771 0.0
N963 N 0.09282 0.11595 0.66272 0.0
H964 H 0.14876 0.21139 0.74961 0.0
H965 H 0.09757 0.17384 0.73435 0.0
H966 H 0.07453 0.09199 0.64016 0.0
H967 H 0.08201 0.10942 0.69436 0.0
H968 H 0.28577 0.2057 0.58647 0.0
H969 H 0.29053 0.22546 0.64089 0.0
H970 H 0.24137 0.2081 0.54411 0.0
H971 H 0.1906 0.1688 0.52892 0.0
C972 C 1.00349 0.14893 0.70517 0.0
C973 C 1.01605 0.19221 0.69187 0.0
C974 C 0.99467 0.15833 0.62213 0.0
C975 C 0.97916 0.1145 0.63484 0.0
N976 N 0.97548 0.06777 0.68879 0.0
N977 N 0.04847 0.23305 0.63228 0.0
C978 C 0.98627 0.10941 0.676 0.0
C979 C 1.02228 0.19422 0.64775 0.0
N980 N 1.00391 0.14631 0.74695 0.0
N981 N 0.97954 0.16707 0.58844 0.0
H982 H 0.06716 0.26032 0.65217 0.0
H983 H 0.05437 0.23566 0.59953 0.0
H984 H 0.95544 0.14263 0.57133 0.0
H985 H 0.9858 0.20033 0.58228 0.0
H986 H 0.9934 0.11526 0.75881 0.0
H987 H 1.0154 0.17572 0.76878 0.0
H988 H 0.96158 0.03708 0.66968 0.0
H989 H 0.96158 0.03708 0.66968 0.0
C990 C 0.8509 0.90471 0.69737 0.0
C991 C 0.85867 0.86057 0.69352 0.0
C992 C 0.91766 0.87863 0.629 0.0
C993 C 0.90872 0.92213 0.63195 0.0
N994 N 0.86272 0.9742 0.66713 0.0
N995 N 0.90576 0.80913 0.6589 0.0
C996 C 0.87412 0.93431 0.66567 0.0
C997 C 0.89406 0.84885 0.66039 0.0
N998 N 0.8239 0.92001 0.7335 0.0
N999 N 0.94618 0.86386 0.59386 0.0
H1000 H 0.88746 0.78461 0.67828 0.0
H1001 H 0.93541 0.8014 0.64036 0.0
H1002 H 0.96366 0.88405 0.5705 0.0
H1003 H 0.9498 0.83066 0.58565 0.0
H1004 H 0.82025 0.95321 0.7415 0.0
H1005 H 0.80899 0.90072 0.75818 0.0
H1006 H 0.83383 0.98261 0.68663 0.0
H1007 H 0.88075 0.99814 0.64688 0.0
C1008 C 0.33904 0.14487 0.17235 0.0
C1009 C 0.35965 0.18888 0.19445 0.0
C1010 C 0.43685 0.17358 0.16045 0.0
C1011 C 0.41571 0.13222 0.13463 0.0
N1012 N 0.34432 0.08732 0.10912 0.0
N1013 N 0.43115 0.24783 0.20101 0.0
C1014 C 0.36618 0.12064 0.1387 0.0
C1015 C 0.40944 0.20384 0.18617 0.0
N1016 N 0.2935 0.12427 0.18493 0.0
N1017 N 0.48308 0.1836 0.16192 0.0
H1018 H 0.41322 0.27121 0.21826 0.0
H1019 H 0.46635 0.26238 0.19237 0.0
H1020 H 0.50386 0.16269 0.1443 0.0
H1021 H 0.49991 0.21034 0.1834 0.0
H1022 H 0.27766 0.09061 0.17281 0.0
H1023 H 0.27313 0.13846 0.21122 0.0
H1024 H 0.30918 0.08077 0.1077 0.0
H1025 H 0.36205 0.07028 0.08284 0.0
C1026 C 0.82987 0.32928 0.13787 0.0
C1027 C 0.85171 0.33398 0.17438 0.0
C1028 C 0.92398 0.37334 0.1321 0.0
C1029 C 0.89944 0.37923 0.10168 0.0
N1030 N 0.82473 0.3665 0.0803 0.0
N1031 N 0.92083 0.37214 0.20723 0.0
C1032 C 0.85101 0.35834 0.10595 0.0
C1033 C 0.89933 0.35876 0.17168 0.0
N1034 N 0.7906 0.29537 0.132 0.0
N1035 N 0.97086 0.38202 0.12386 0.0
H1036 H 0.90394 0.36614 0.23773 0.0
H1037 H 0.95418 0.39379 0.20697 0.0
H1038 H 0.98989 0.39128 0.09475 0.0
H1039 H 0.9894 0.37384 0.14368 0.0
H1040 H 0.77506 0.28892 0.10445 0.0
H1041 H 0.77803 0.26989 0.15147 0.0
H1042 H 0.78877 0.35452 0.08462 0.0
H1043 H 0.83855 0.38827 0.05734 0.0
C1044 C 0.65963 0.89083 0.09297 0.0
C1045 C 0.67417 0.91589 0.13211 0.0
C1046 C 0.62378 0.9658 0.13383 0.0
C1047 C 0.61969 0.94839 0.08977 0.0
N1048 N 0.63137 0.89111 0.02813 0.0
N1049 N 0.66859 0.97686 0.1916 0.0
C1050 C 0.63646 0.90955 0.0698 0.0
C1051 C 0.65499 0.95271 0.15364 0.0
N1052 N 0.66823 0.849 0.07804 0.0
N1053 N 0.59844 0.9951 0.15646 0.0
H1054 H 0.69122 0.96833 0.20687 0.0
H1055 H 0.65923 1.00658 0.2069 0.0
H1056 H 0.57622 1.00582 0.14251 0.0
H1057 H 0.59677 1.00592 0.1896 0.0
H1058 H 0.65513 0.82693 0.05162 0.0
H1059 H 0.68458 0.83447 0.09502 0.0
H1060 H 0.64822 0.86714 1.00972 0.0
H1061 H 0.61139 0.9014 1.01162 0.0
C1062 C 0.20495 0.68545 0.13552 0.0
C1063 C 0.20493 0.66865 0.17361 0.0
C1064 C 0.14574 0.5992 0.14916 0.0
C1065 C 0.14135 0.61893 0.11441 0.0
N1066 N 0.15984 0.68686 0.08198 0.0
N1067 N 0.16807 0.61162 0.21986 0.0
C1068 C 0.16904 0.66384 0.10979 0.0
C1069 C 0.17291 0.62625 0.18147 0.0
N1070 N 0.23997 0.72133 0.12295 0.0
N1071 N 0.12615 0.55382 0.1501 0.0
H1072 H 0.1881 0.62981 0.24352 0.0
H1073 H 0.14206 0.58347 0.22921 0.0
H1074 H 0.10832 0.53326 0.12573 0.0
H1075 H 0.13188 0.53618 0.17204 0.0
H1076 H 0.24425 0.73217 0.09329 0.0
H1077 H 0.26669 0.73768 0.14083 0.0
H1078 H 0.17626 0.72115 0.07991 0.0
H1079 H 0.13237 0.67288 0.06444 0.0
C1080 C 0.36468 0.83442 0.90283 0.0
C1081 C 0.36504 0.85158 0.86442 0.0
C1082 C 0.42202 0.92273 0.89266 0.0
C1083 C 0.41541 0.9078 0.93346 0.0
N1084 N 0.372 0.85071 0.97837 0.0
N1085 N 0.39647 0.91374 0.8232 0.0
C1086 C 0.38423 0.86425 0.93867 0.0
C1087 C 0.3944 0.89633 0.85965 0.0
N1088 N 0.34742 0.78898 0.90555 0.0
N1089 N 0.45461 0.96245 0.88528 0.0
H1090 H 0.38207 0.89415 0.79634 0.0
H1091 H 0.41121 0.94797 0.81995 0.0
H1092 H 0.47283 0.98422 0.909 0.0
H1093 H 0.46542 0.97287 0.85512 0.0
H1094 H 0.35279 0.77425 0.92994 0.0
H1095 H 0.33127 0.76476 0.88231 0.0
H1096 H 0.34429 0.8228 0.98533 0.0
H1097 H 0.38671 0.8689 1.00533 0.0
C1098 C 0.16668 0.37756 0.83488 0.0
C1099 C 0.16978 0.33579 0.84482 0.0
C1100 C 0.1099 0.34666 0.90991 0.0
C1101 C 0.11248 0.39214 0.90394 0.0
N1102 N 0.13945 0.44655 0.85394 0.0
N1103 N 0.11555 0.2713 0.87367 0.0
C1104 C 0.13979 0.40603 0.86435 0.0
C1105 C 0.13344 0.31739 0.87743 0.0
N1106 N 0.18285 0.38608 0.79372 0.0
N1107 N 0.08598 0.33071 0.94688 0.0
H1108 H 0.12476 0.2494 0.84619 0.0
H1109 H 0.08595 0.25605 0.89357 0.0
H1110 H 0.0676 0.34922 0.97123 0.0
H1111 H 0.08761 0.30011 0.95457 0.0
H1112 H 0.17749 0.41251 0.78163 0.0
H1113 H 0.19452 0.36188 0.76982 0.0
H1114 H 0.16476 0.46356 0.83149 0.0
H1115 H 0.11393 0.46344 0.86829 0.0
C1116 C 0.70034 0.22031 0.91293 0.0
C1117 C 0.67919 0.21997 0.87705 0.0
C1118 C 0.61025 0.16188 0.90637 0.0
C1119 C 0.63237 0.16087 0.94109 0.0
N1120 N 0.69891 0.18892 0.9774 0.0
N1121 N 0.60886 0.19904 0.84689 0.0
C1122 C 0.67735 0.19054 0.94451 0.0
C1123 C 0.63267 0.193 0.87589 0.0
N1124 N 0.74236 0.25019 0.9174 0.0
N1125 N 0.56849 0.13133 0.90124 0.0
H1126 H 0.6235 0.22305 0.82619 0.0
H1127 H 0.57372 0.1843 0.84625 0.0
H1128 H 0.55061 0.10927 0.9233 0.0
H1129 H 0.55271 0.1257 0.87403 0.0
H1130 H 0.75785 0.25767 0.94498 0.0
H1131 H 0.76161 0.2686 0.89306 0.0
H1132 H 0.73356 0.2047 0.97966 0.0
H1133 H 0.68217 0.17018 1.00237 0.0
C1134 C 0.95284 0.69199 0.97307 0.0
C1135 C 0.94012 0.68365 0.93153 0.0
C1136 C 0.93167 0.60153 0.92998 0.0
C1137 C 0.95315 0.61221 0.9675 0.0
N1138 N 0.99932 0.6721 1.01403 0.0
N1139 N 0.92476 0.62928 0.86668 0.0
C1140 C 0.96815 0.65874 0.98601 0.0
C1141 C 0.93108 0.63791 0.90885 0.0
N1142 N 0.95096 0.73193 1.00009 0.0
N1143 N 0.91237 0.55701 0.91431 0.0
H1144 H 0.92618 0.65489 0.84946 0.0
H1145 H 0.92241 0.59722 0.84778 0.0
H1146 H 0.91284 0.53 0.92891 0.0
H1147 H 0.89284 0.54745 0.88918 0.0
H1148 H 0.95721 0.73784 0.03187 0.0
H1149 H 0.93809 0.75647 0.99219 0.0
H1150 H 1.01291 0.70631 0.02638 0.0
H1151 H 1.01687 0.65 1.01891 0.0
C1152 C 0.1449 0.37227 0.08291 0.0
C1153 C 0.12054 0.36459 0.12411 0.0
C1154 C 0.08303 0.42558 0.12624 0.0
C1155 C 0.10118 0.42737 0.08163 0.0
N1156 N 0.14532 0.39595 1.01616 0.0
N1157 N 0.07175 0.38748 0.1886 0.0
C1158 C 0.13172 0.39963 0.05982 0.0
C1159 C 0.09175 0.3929 0.14715 0.0
N1160 N 0.18087 0.35301 0.06577 0.0
N1161 N 0.05733 0.45476 0.14863 0.0
H1162 H 0.07959 0.36576 0.20522 0.0
H1163 H 0.04621 0.40275 0.20624 0.0
H1164 H 0.04631 0.47618 0.13433 0.0
H1165 H 0.04786 0.45931 0.18196 0.0
H1166 H 0.20351 0.3612 0.03779 0.0
H1167 H 0.19122 0.33277 0.08222 0.0
H1168 H 0.16266 0.37208 0.99842 0.0
H1169 H 0.13511 0.4125 0.99634 0.0
C1170 C 0.20751 0.70718 0.91393 0.0
C1171 C 0.1965 0.69679 0.87093 0.0
C1172 C 0.12496 0.64063 0.89721 0.0
C1173 C 0.14015 0.6465 0.93745 0.0
N1174 N 0.20248 0.67727 0.97925 0.0
N1175 N 0.14377 0.65034 0.822 0.0
C1176 C 0.18314 0.67761 0.94448 0.0
C1177 C 0.15512 0.66221 0.86264 0.0
N1178 N 0.24059 0.74538 0.92672 0.0
N1179 N 0.08112 0.61486 0.8923 0.0
H1180 H 0.16038 0.66897 0.79708 0.0
H1181 H 0.11818 0.62125 0.81271 0.0
H1182 H 0.05844 0.59905 0.91709 0.0
H1183 H 0.06577 0.61273 0.86551 0.0
H1184 H 0.24569 0.75619 0.95881 0.0
H1185 H 0.25912 0.76958 0.90738 0.0
H1186 H 0.23632 0.69537 0.98325 0.0
H1187 H 0.18654 0.65523 1.00168 0.0
C1188 C 0.36964 0.07308 0.91666 0.0
C1189 C 0.37647 0.12101 0.92507 0.0
C1190 C 0.44072 0.1284 0.96356 0.0
C1191 C 0.42825 0.08016 0.96196 0.0
N1192 N 0.37584 1.00689 0.94118 0.0
N1193 N 0.41703 0.19507 0.95777 0.0
C1194 C 0.39175 0.05251 0.9391 0.0
C1195 C 0.41227 0.14899 0.94814 0.0
N1196 N 0.34092 0.04706 0.88811 0.0
N1197 N 0.47879 0.15486 0.98104 0.0
H1198 H 0.3987 0.21145 0.94484 0.0
H1199 H 0.43695 0.21649 0.98046 0.0
H1200 H 0.49889 0.14207 0.99546 0.0
H1201 H 0.49252 0.18914 0.9781 0.0
H1202 H 0.33808 1.01236 0.87736 0.0
H1203 H 0.32345 0.06115 0.8719 0.0
H1204 H 0.34597 0.98599 0.92957 0.0
H1205 H 0.39047 0.9906 0.95769 0.0
C1206 C 0.82935 0.36936 0.91106 0.0
C1207 C 0.84118 0.37369 0.86664 0.0
C1208 C 0.91552 0.42854 0.88454 0.0
C1209 C 0.90471 0.41925 0.92769 0.0
N1210 N 0.8593 0.36435 0.97341 0.0
N1211 N 0.90262 0.40208 0.81018 0.0
C1212 C 0.86398 0.38478 0.9383 0.0
C1213 C 0.88656 0.40151 0.85304 0.0
N1214 N 0.78497 0.35121 0.92835 0.0
N1215 N 0.95234 0.46384 0.8736 0.0
H1216 H 0.8829 0.38413 0.78627 0.0
H1217 H 0.9368 0.41753 0.79834 0.0
H1218 H 0.9741 0.48398 0.89538 0.0
H1219 H 0.95886 0.47546 0.84406 0.0
H1220 H 0.77526 0.35102 0.96143 0.0
H1221 H 0.75772 0.34095 0.91072 0.0
H1222 H 0.83201 0.33609 0.9804 0.0
H1223 H 0.88592 0.37169 0.99166 0.0
C1224 C 0.6954 0.89335 0.85733 0.0
C1225 C 0.68297 0.84477 0.85603 0.0
C1226 C 0.61469 0.8556 0.91239 0.0
C1227 C 0.62613 0.90403 0.91142 0.0
N1228 N 0.66508 0.95843 0.86253 0.0
N1229 N 0.6175 0.7806 0.87271 0.0
C1230 C 0.66303 0.91982 0.87807 0.0
C1231 C 0.63876 0.82621 0.88056 0.0
N1232 N 0.73743 0.91521 0.83732 0.0
N1233 N 0.58099 0.83613 0.94314 0.0
H1234 H 0.631 0.75719 0.84965 0.0
H1235 H 0.58332 0.76671 0.88574 0.0
H1236 H 0.55789 0.85224 0.96394 0.0
H1237 H 0.57729 0.80327 0.94914 0.0
H1238 H 0.74961 0.95078 0.8417 0.0
H1239 H 0.7612 0.89839 0.81888 0.0
H1240 H 0.68922 0.96972 0.83636 0.0
H1241 H 0.63825 0.97449 0.87066 0.0
C1242 C 0.86172 0.67827 0.15546 0.0
C1243 C 0.86835 0.69324 0.19958 0.0
C1244 C 0.93195 0.65259 0.18252 0.0
C1245 C 0.92683 0.63974 0.13785 0.0
N1246 N 0.89086 0.64948 0.08163 0.0
N1247 N 0.91735 0.70085 0.25193 0.0
C1248 C 0.89296 0.65556 0.12457 0.0
C1249 C 0.90566 0.68201 0.21202 0.0
N1250 N 0.82367 0.68345 0.1431 0.0
N1251 N 0.96126 0.63557 0.19739 0.0
H1252 H 0.89877 0.72109 0.27432 0.0
H1253 H 0.94784 0.70009 0.26107 0.0
H1254 H 0.98196 0.61602 0.17694 0.0
H1255 H 0.96309 0.63862 0.22999 0.0
H1256 H 0.81291 0.66856 0.11342 0.0
H1257 H 0.80028 0.69927 0.16418 0.0
H1258 H 0.87163 0.66465 0.06854 0.0
H1259 H 0.91227 0.63299 0.05875 0.0
C1260 C 0.39369 0.87092 0.19078 0.0
C1261 C 0.36995 0.82465 0.17792 0.0
C1262 C 0.40116 0.83397 0.10158 0.0
C1263 C 0.42418 0.88048 0.11467 0.0
N1264 N 0.4545 0.93771 0.17208 0.0
N1265 N 0.35936 0.75938 0.12189 0.0
C1266 C 0.42426 0.89701 0.15947 0.0
C1267 C 0.37613 0.80542 0.13346 0.0
N1268 N 0.38507 0.89103 0.23259 0.0
N1269 N 0.40245 0.81722 0.0587 0.0
H1270 H 0.3429 0.73759 0.14451 0.0
H1271 H 0.36495 0.7421 0.09068 0.0
H1272 H 0.42549 0.83454 0.03513 0.0
H1273 H 0.38025 0.78678 0.04653 0.0
H1274 H 0.39721 0.92592 0.24309 0.0
H1275 H 0.36229 0.87349 0.25619 0.0
H1276 H 0.4597 0.94985 0.20398 0.0
H1277 H 0.47814 0.95686 0.14994 0.0
C1278 C 0.67007 0.21101 0.16112 0.0
C1279 C 0.69096 0.19219 0.18736 0.0
C1280 C 0.66318 0.11666 0.14301 0.0
C1281 C 0.63782 0.13393 0.12062 0.0
N1282 N 0.61121 0.19817 0.11536 0.0
N1283 N 0.68634 0.12174 0.21175 0.0
C1284 C 0.639 0.18114 0.13236 0.0
C1285 C 0.68141 0.1435 0.18072 0.0
N1286 N 0.68139 0.25707 0.16085 0.0
N1287 N 0.67102 0.0747 0.12829 0.0
H1288 H 0.69416 0.13872 0.24197 0.0
H1289 H 0.67644 0.08625 0.20944 0.0
H1290 H 0.65888 0.05387 0.10098 0.0
H1291 H 0.69313 0.06278 0.14126 0.0
H1292 H 0.67159 0.27137 0.13865 0.0
H1293 H 0.70425 0.28127 0.17911 0.0
H1294 H 0.60608 0.23067 0.1265 0.0
H1295 H 0.59022 0.17849 0.09276 0.0
C1296 C 0.70025 0.6175 0.82757 0.0
C1297 C 0.69793 0.66347 0.84384 0.0
C1298 C 0.64519 0.63654 0.90866 0.0
C1299 C 0.65059 0.59141 0.89416 0.0
N1300 N 0.67843 0.53719 0.83817 0.0
N1301 N 0.66719 0.71659 0.89936 0.0
C1302 C 0.67649 0.58137 0.85285 0.0
C1303 C 0.6696 0.67267 0.88405 0.0
N1304 N 0.72548 0.6087 0.78786 0.0
N1305 N 0.61565 0.64449 0.94596 0.0
H1306 H 0.68376 0.74328 0.88194 0.0
H1307 H 0.65118 0.72778 0.92982 0.0
H1308 H 0.59698 0.61904 0.96443 0.0
H1309 H 0.60693 0.6752 0.95782 0.0
H1310 H 0.72833 0.5765 0.77251 0.0
H1311 H 0.74335 0.63417 0.76915 0.0
H1312 H 0.69501 0.52585 0.80809 0.0
H1313 H 0.66192 0.5108 0.85618 0.0
C1314 C 0.47277 0.64176 0.90065 0.0
C1315 C 0.44076 0.61751 0.87199 0.0
C1316 C 0.43271 0.54642 0.89853 0.0
C1317 C 0.46251 0.57081 0.92945 0.0
N1318 N 0.50757 0.64305 0.96265 0.0
N1319 N 0.38484 0.54829 0.84774 0.0
C1320 C 0.48183 0.61889 0.93114 0.0
C1321 C 0.41859 0.57053 0.87273 0.0
N1322 N 0.49482 0.68673 0.89833 0.0
N1323 N 0.42101 0.49968 0.89088 0.0
H1324 H 0.37638 0.56279 0.8249 0.0
H1325 H 0.36265 0.51623 0.85174 0.0
H1326 H 0.4344 0.48027 0.90514 0.0
H1327 H 0.4024 0.47982 0.8667 0.0
H1328 H 0.52275 0.70516 0.91405 0.0
H1329 H 0.48638 0.70544 0.87892 0.0
H1330 H 0.51863 0.67855 0.96862 0.0
H1331 H 0.51534 0.62809 0.98549 0.0
C1332 C 0.4169 0.34562 0.83438 0.0
C1333 C 0.37014 0.32471 0.85079 0.0
C1334 C 0.39384 0.34468 0.9228 0.0
C1335 C 0.43204 0.37998 0.90818 0.0
N1336 N 0.48841 0.40275 0.84608 0.0
N1337 N 0.31982 0.29284 0.91237 0.0
C1338 C 0.44636 0.37729 0.86271 0.0
C1339 C 0.36014 0.32067 0.89554 0.0
N1340 N 0.43459 0.33141 0.79283 0.0
N1341 N 0.39222 0.33116 0.96124 0.0
H1342 H 0.29999 0.26577 0.89373 0.0
H1343 H 0.30767 0.29536 0.9454 0.0
H1344 H 0.4195 0.34422 0.97914 0.0
H1345 H 0.36755 0.30295 0.97214 0.0
H1346 H 0.46919 0.34275 0.77958 0.0
H1347 H 0.41614 0.30317 0.7738 0.0
H1348 H 0.497 0.40728 0.8138 0.0
H1349 H 0.5156 0.41732 0.86369 0.0
C1350 C 0.55891 0.31341 0.99364 0.0
C1351 C 0.59234 0.2977 0.96312 0.0
C1352 C 0.64206 0.37403 0.96636 0.0
C1353 C 0.60132 0.39063 0.97791 0.0
N1354 N 0.52065 0.37326 1.01619 0.0
N1355 N 0.66939 0.31109 0.97628 0.0
C1356 C 0.55942 0.35981 0.99655 0.0
C1357 C 0.63621 0.32706 0.96722 0.0
N1358 N 0.52891 0.28499 1.01998 0.0
N1359 N 0.68494 0.40066 0.95368 0.0
H1360 H 0.66265 0.2768 0.97949 0.0
H1361 H 0.69984 0.33305 0.9858 0.0
H1362 H 0.69239 0.43461 0.94976 0.0
H1363 H 0.7136 0.38744 0.9454 0.0
H1364 H 0.50538 0.29584 0.04546 0.0
H1365 H 0.53158 0.25177 1.01803 0.0
H1366 H 0.48907 0.34988 1.02412 0.0
H1367 H 0.51935 0.40692 1.02464 0.0
C1368 C 0.67178 0.4111 0.12587 0.0
C1369 C 0.6616 0.42739 0.1701 0.0
C1370 C 0.59517 0.44792 0.15522 0.0
C1371 C 0.61408 0.44437 0.11043 0.0
N1372 N 0.67494 0.42532 0.05449 0.0
N1373 N 0.61228 0.46058 0.22828 0.0
C1374 C 0.65301 0.42564 0.09598 0.0
C1375 C 0.62211 0.44449 0.18542 0.0
N1376 N 0.70139 0.38375 0.11248 0.0
N1377 N 0.55305 0.45681 0.16937 0.0
H1378 H 0.63072 0.45772 0.25116 0.0
H1379 H 0.58768 0.47898 0.24071 0.0
H1380 H 0.53277 0.4609 0.14891 0.0
H1381 H 0.53624 0.45569 0.20101 0.0
H1382 H 0.70741 0.36785 0.08065 0.0
H1383 H 0.71573 0.37319 0.13434 0.0
H1384 H 0.70632 0.41678 0.04374 0.0
H1385 H 0.66408 0.43777 0.03189 0.0
C1386 C 0.6722 0.70081 0.17345 0.0
C1387 C 0.69946 0.68415 0.19439 0.0
C1388 C 0.66461 0.6065 0.16002 0.0
C1389 C 0.64352 0.62391 0.13397 0.0
N1390 N 0.63674 0.69018 0.10969 0.0
N1391 N 0.731 0.62075 0.19491 0.0
C1392 C 0.65058 0.67193 0.13847 0.0
C1393 C 0.69842 0.63687 0.18401 0.0
N1394 N 0.66371 0.74252 0.1887 0.0
N1395 N 0.65264 0.56094 0.16217 0.0
H1396 H 0.7591 0.64181 0.20907 0.0
H1397 H 0.73363 0.58727 0.18454 0.0
H1398 H 0.62668 0.5379 0.1466 0.0
H1399 H 0.66436 0.54732 0.18365 0.0
H1400 H 0.64149 0.7546 0.17608 0.0
H1401 H 0.67333 0.76181 0.21758 0.0
H1402 H 0.6451 0.72532 0.1095 0.0
H1403 H 0.62045 0.67011 0.084 0.0
C1404 C 0.51787 0.70077 0.0797 0.0
C1405 C 0.4816 0.71587 0.07275 0.0
C1406 C 0.44057 0.63637 0.0498 0.0
C1407 C 0.46884 0.62262 0.07274 0.0
N1408 N 0.52992 0.64956 0.11844 0.0
N1409 N 0.42461 0.70122 0.02776 0.0
C1410 C 0.50666 0.6567 0.08958 0.0
C1411 C 0.4489 0.68427 0.04868 0.0
N1412 N 0.55884 0.73057 0.08761 0.0
N1413 N 0.40607 0.60499 0.03042 0.0
H1414 H 0.4321 0.73646 0.02817 0.0
H1415 H 0.39958 0.68147 1.00908 0.0
H1416 H 0.39721 0.57031 0.032 0.0
H1417 H 0.38491 0.61323 1.01336 0.0
H1418 H 0.56745 0.76468 0.08303 0.0
H1419 H 0.56745 0.76468 0.08303 0.0
H1420 H 0.52026 0.62009 0.13278 0.0
H1421 H 0.52026 0.62009 0.13278 0.0
C1422 C 0.35208 0.40941 0.21075 0.0
C1423 C 0.35626 0.36359 0.2035 0.0
C1424 C 0.42258 0.3852 0.146 0.0
C1425 C 0.41497 0.42907 0.14992 0.0
N1426 N 0.36963 0.48189 0.18401 0.0
N1427 N 0.39007 0.30634 0.15681 0.0
C1428 C 0.37902 0.44092 0.18195 0.0
C1429 C 0.39046 0.35128 0.16941 0.0
N1430 N 0.32308 0.4233 0.2459 0.0
N1431 N 0.46079 0.37576 0.11962 0.0
H1432 H 0.36544 0.28037 0.17107 0.0
H1433 H 0.4106 0.29437 0.12933 0.0
H1434 H 0.4846 0.39959 0.10194 0.0
H1435 H 0.47123 0.34636 0.11867 0.0
H1436 H 0.32204 0.45719 0.25622 0.0
H1437 H 0.30228 0.40105 0.26658 0.0
H1438 H 0.34055 0.4907 0.20276 0.0
H1439 H 0.38993 0.5063 0.16495 0.0
C1440 C 0.86113 0.66756 0.65286 0.0
C1441 C 0.85891 0.68112 0.69828 0.0
C1442 C 0.92177 0.6417 0.6925 0.0
C1443 C 0.91981 0.6245 0.64773 0.0
N1444 N 0.8719 0.60875 0.59214 0.0
N1445 N 0.88067 0.66818 0.76223 0.0
C1446 C 0.88424 0.63332 0.63042 0.0
C1447 C 0.88737 0.6643 0.71835 0.0
N1448 N 0.84531 0.69037 0.62968 0.0
N1449 N 0.95723 0.63848 0.71047 0.0
H1450 H 0.85451 0.68139 0.78193 0.0
H1451 H 0.8973 0.65329 0.77849 0.0
H1452 H 0.9827 0.62278 0.69327 0.0
H1453 H 0.96326 0.65467 0.74144 0.0
H1454 H 0.84983 0.68443 0.59603 0.0
H1455 H 0.83472 0.71967 0.6438 0.0
H1456 H 0.84418 0.61191 0.5797 0.0
H1457 H 0.88553 0.58155 0.57597 0.0
C1458 C 0.36547 0.8156 0.64192 0.0
C1459 C 0.34004 0.83643 0.67869 0.0
C1460 C 0.35664 0.90153 0.64059 0.0
C1461 C 0.39464 0.88813 0.61258 0.0
N1462 N 0.43243 0.82623 0.58645 0.0
N1463 N 0.3183 0.90557 0.71397 0.0
C1464 C 0.39841 0.84324 0.61289 0.0
C1465 C 0.33698 0.88104 0.67814 0.0
N1466 N 0.35487 0.76925 0.6322 0.0
N1467 N 0.33921 0.93377 0.63143 0.0
H1468 H 0.30861 0.89398 0.74356 0.0
H1469 H 0.31874 0.93964 0.7152 0.0
H1470 H 0.35064 0.94698 0.60245 0.0
H1471 H 0.30996 0.94257 0.65005 0.0
H1472 H 0.36941 0.75221 0.60363 0.0
H1473 H 0.3269 0.7488 0.64995 0.0
H1474 H 0.43852 0.79581 0.58995 0.0
H1475 H 0.45504 0.84228 0.56201 0.0
C1476 C 0.12837 0.47372 0.70291 0.0
C1477 C 0.17379 0.47507 0.68031 0.0
C1478 C 0.14925 0.47956 0.61355 0.0
C1479 C 0.10266 0.47391 0.63506 0.0
N1480 N 0.04666 0.4586 0.69862 0.0
N1481 N 0.22645 0.47338 0.61325 0.0
C1482 C 0.09185 0.46943 0.67946 0.0
C1483 C 0.18378 0.47598 0.63534 0.0
N1484 N 0.12024 0.47681 0.74682 0.0
N1485 N 0.16118 0.49088 0.57283 0.0
H1486 H 0.2538 0.47361 0.6282 0.0
H1487 H 0.23391 0.46754 0.57971 0.0
H1488 H 0.13812 0.49714 0.55636 0.0
H1489 H 0.19513 0.49991 0.55721 0.0
H1490 H 0.08941 0.48123 0.76573 0.0
H1491 H 0.14557 0.47799 0.76473 0.0
H1492 H 0.03613 0.45001 0.72954 0.0
H1493 H 1.01912 0.45448 0.68232 0.0
C1494 C 0.63226 0.17646 0.70125 0.0
C1495 C 0.67866 0.1961 0.68412 0.0
C1496 C 0.66125 0.1485 0.61387 0.0
C1497 C 0.6127 0.13645 0.62995 0.0
N1498 N 0.55401 0.15736 0.68832 0.0
N1499 N 0.73413 0.20638 0.61924 0.0
C1500 C 0.59878 0.15607 0.67336 0.0
C1501 C 0.69237 0.18371 0.63892 0.0
N1502 N 0.62022 0.17438 0.74419 0.0
N1503 N 0.67862 0.12547 0.57611 0.0
H1504 H 0.756 0.2337 0.63591 0.0
H1505 H 0.74416 0.20146 0.58588 0.0
H1506 H 0.65855 0.09745 0.55834 0.0
H1507 H 0.71402 0.13087 0.56524 0.0
H1508 H 0.58698 0.15793 0.75773 0.0
H1509 H 0.64533 0.18242 0.76414 0.0
H1510 H 0.54407 0.17377 0.71918 0.0
H1511 H 0.5286 0.14833 0.66859 0.0
C1512 C 0.90805 0.3939 0.35596 0.0
C1513 C 0.86914 0.35699 0.36633 0.0
C1514 C 0.88802 0.37495 0.44102 0.0
C1515 C 0.93207 0.40382 0.42777 0.0
N1516 N 0.98414 0.44013 0.37005 0.0
N1517 N 0.82131 0.31432 0.42169 0.0
C1518 C 0.94201 0.41309 0.38447 0.0
C1519 C 0.85939 0.34773 0.40963 0.0
N1520 N 0.91149 0.41276 0.32015 0.0
N1521 N 0.87125 0.37721 0.48397 0.0
H1522 H 0.79629 0.29858 0.40186 0.0
H1523 H 0.8153 0.30201 0.45083 0.0
H1524 H 0.88868 0.40165 0.5068 0.0
H1525 H 0.83784 0.36005 0.49621 0.0
H1526 H 0.93679 0.44218 0.31277 0.0
H1527 H 0.8853 0.40303 0.30128 0.0
H1528 H 0.99557 0.44355 0.33767 0.0
H1529 H 1.00898 0.45651 0.38994 0.0
C1530 C 0.63445 0.82263 0.37099 0.0
C1531 C 0.68352 0.83783 0.3715 0.0
C1532 C 0.66819 0.90718 0.42279 0.0
C1533 C 0.61913 0.89107 0.42334 0.0
N1534 N 0.55668 0.82488 0.40753 0.0
N1535 N 0.74312 0.89011 0.41005 0.0
C1536 C 0.60276 0.84608 0.40057 0.0
C1537 C 0.69913 0.87894 0.40078 0.0
N1538 N 0.61761 0.78731 0.34027 0.0
N1539 N 0.68578 0.94992 0.444 0.0
H1540 H 0.76609 0.87003 0.39722 0.0
H1541 H 0.7552 0.91631 0.43437 0.0
H1542 H 0.66495 0.96941 0.46429 0.0
H1543 H 0.72089 0.96677 0.44001 0.0
H1544 H 0.58324 0.77767 0.33528 0.0
H1545 H 0.63868 0.77104 0.31646 0.0
H1546 H 0.54284 0.7907 0.3954 0.0
H1547 H 0.53321 0.8398 0.42966 0.0
C1548 C 0.2101 0.69577 0.40816 0.0
C1549 C 0.19818 0.68785 0.36594 0.0
C1550 C 0.13956 0.61735 0.38442 0.0
C1551 C 0.14666 0.62836 0.42824 0.0
N1552 N 0.18677 0.68171 0.48273 0.0
N1553 N 0.14113 0.64776 0.32011 0.0
C1554 C 0.18146 0.66876 0.4403 0.0
C1555 C 0.16018 0.65025 0.35576 0.0
N1556 N 0.24941 0.72829 0.41735 0.0
N1557 N 0.11279 0.57539 0.36991 0.0
H1558 H 0.15247 0.67355 0.3009 0.0
H1559 H 0.11083 0.62345 0.31291 0.0
H1560 H 0.09878 0.55005 0.38943 0.0
H1561 H 0.10924 0.56424 0.33748 0.0
H1562 H 0.26251 0.73314 0.446 0.0
H1563 H 0.27109 0.7478 0.3946 0.0
H1564 H 0.20742 0.71326 0.49475 0.0
H1565 H 0.16849 0.66149 0.50626 0.0
C1566 C 0.445 0.15737 0.42539 0.0
C1567 C 0.42834 0.13677 0.38578 0.0
C1568 C 0.43325 0.06205 0.39651 0.0
C1569 C 0.45635 0.08383 0.43239 0.0
N1570 N 0.48496 0.15271 0.48118 0.0
N1571 N 0.4043 0.06963 0.33392 0.0
C1572 C 0.46089 0.13128 0.44784 0.0
C1573 C 0.42129 0.08896 0.37169 0.0
N1574 N 0.4475 0.20252 0.44093 0.0
N1575 N 0.42205 1.01541 0.38689 0.0
H1576 H 0.3915 0.08742 0.31693 0.0
H1577 H 0.40441 0.03662 0.31849 0.0
H1578 H 0.42995 0.99524 0.40515 0.0
H1579 H 0.40167 0.99653 0.36363 0.0
H1580 H 0.4514 0.21729 0.47266 0.0
H1581 H 0.44375 0.22535 0.42303 0.0
H1582 H 0.49602 0.18802 0.48972 0.0
H1583 H 0.49739 0.13551 0.49863 0.0
C1584 C 0.64454 0.90437 0.59588 0.0
C1585 C 0.62183 0.87715 0.6286 0.0
C1586 C 0.55703 0.9114 0.64152 0.0
C1587 C 0.58016 0.94064 0.61014 0.0
N1588 N 0.6533 0.97447 0.5687 0.0
N1589 N 0.56585 0.87005 0.69366 0.0
C1590 C 0.6263 0.9401 0.59068 0.0
C1591 C 0.58168 0.88618 0.65537 0.0
N1592 N 0.68326 0.89596 0.56961 0.0
N1593 N 0.51044 0.90331 0.65537 0.0
H1594 H 0.58033 0.84875 0.70456 0.0
H1595 H 0.5409 0.88227 0.71647 0.0
H1596 H 0.48836 0.91561 0.64317 0.0
H1597 H 0.49243 0.87883 0.67512 0.0
H1598 H 0.69797 0.91094 0.54196 0.0
H1599 H 0.69916 0.87216 0.57441 0.0
H1600 H 0.68814 0.97736 0.55653 0.0
H1601 H 0.64249 1.00304 0.56722 0.0
C1602 C 0.65204 0.17821 0.35759 0.0
C1603 C 0.69889 0.19774 0.36336 0.0
C1604 C 0.68254 0.16481 0.43093 0.0
C1605 C 0.63528 0.14746 0.4259 0.0
N1606 N 0.57339 0.14711 0.39007 0.0
N1607 N 0.75954 0.2094 0.40524 0.0
C1608 C 0.61965 0.15728 0.39097 0.0
C1609 C 0.71422 0.19142 0.40034 0.0
N1610 N 0.63864 0.17783 0.31933 0.0
N1611 N 0.69715 0.15429 0.46429 0.0
H1612 H 0.78422 0.22403 0.38113 0.0
H1613 H 0.77278 0.21074 0.43305 0.0
H1614 H 0.67414 0.13708 0.48809 0.0
H1615 H 0.73158 0.16139 0.46823 0.0
H1616 H 0.60644 0.15915 0.31106 0.0
H1617 H 0.66094 0.19339 0.29433 0.0
H1618 H 0.55906 0.15701 0.36791 0.0
H1619 H 0.54935 0.13326 0.41485 0.0
C1620 C 0.88529 0.55105 0.38553 0.0
C1621 C 0.90081 0.58549 0.35875 0.0
C1622 C 0.97843 0.60615 0.37962 0.0
C1623 C 0.96137 0.5748 0.40944 0.0
N1624 N 0.89824 0.52007 0.44417 0.0
N1625 N 0.96296 0.64191 0.32539 0.0
C1626 C 0.91483 0.54764 0.41302 0.0
C1627 C 0.94779 0.61178 0.35424 0.0
N1628 N 0.84304 0.52028 0.38322 0.0
N1629 N 1.02322 0.63234 0.37763 0.0
H1630 H 0.94056 0.65114 0.31047 0.0
H1631 H 0.99761 0.65642 0.31472 0.0
H1632 H 0.04626 0.62885 0.39585 0.0
H1633 H 0.03788 0.65816 0.35888 0.0
H1634 H 0.83196 0.49103 0.39784 0.0
H1635 H 0.8204 0.52164 0.36346 0.0
H1636 H 0.86342 0.50362 0.45205 0.0
H1637 H 0.91892 0.51595 0.46443 0.0
C1638 C 0.34759 0.86551 0.3989 0.0
C1639 C 0.3628 0.84619 0.35554 0.0
C1640 C 0.44252 0.875 0.37295 0.0
C1641 C 0.42872 0.90152 0.41255 0.0
N1642 N 0.36518 0.92787 0.45809 0.0
N1643 N 0.43045 0.85079 0.29953 0.0
C1644 C 0.38036 0.8985 0.42417 0.0
C1645 C 0.41184 0.85646 0.34208 0.0
N1646 N 0.30269 0.85123 0.41742 0.0
N1647 N 0.48482 0.86597 0.36451 0.0
H1648 H 0.41099 0.84182 0.27471 0.0
H1649 H 0.46595 0.86134 0.28892 0.0
H1650 H 0.50751 0.87579 0.38696 0.0
H1651 H 0.49447 0.84361 0.3374 0.0
H1652 H 0.29132 0.86114 0.44998 0.0
H1653 H 0.27812 0.82575 0.40198 0.0
H1654 H 0.33095 0.92987 0.46501 0.0
H1655 H 0.38736 0.95342 0.47629 0.0
C1656 C 0.13433 0.33944 0.3583 0.0
C1657 C 0.18461 0.35478 0.35234 0.0
C1658 C 0.174 0.42861 0.39858 0.0
C1659 C 0.12516 0.41449 0.40063 0.0
N1660 N 0.06065 0.35978 0.37247 0.0
N1661 N 0.24816 0.42427 0.35726 0.0
C1662 C 0.10629 0.37121 0.37694 0.0
C1663 C 0.20316 0.40226 0.3698 0.0
N1664 N 0.11174 0.29421 0.34921 0.0
N1665 N 0.19325 0.46755 0.42454 0.0
H1666 H 0.27051 0.4098 0.33377 0.0
H1667 H 0.26172 0.45933 0.36591 0.0
H1668 H 0.17383 0.48902 0.44382 0.0
H1669 H 0.22784 0.47667 0.42889 0.0
H1670 H 0.07626 0.28166 0.3584 0.0
H1671 H 0.12696 0.26758 0.33733 0.0
H1672 H 0.04545 0.33136 0.3515 0.0
H1673 H 0.03937 0.38156 0.38614 0.0
C1674 C 0.41673 0.22048 0.66436 0.0
C1675 C 0.36744 0.20266 0.67381 0.0
C1676 C 0.37788 0.12947 0.62641 0.0
C1677 C 0.42711 0.145 0.62198 0.0
N1678 N 0.49331 0.20703 0.6375 0.0
N1679 N 0.30197 0.1382 0.6611 0.0
C1680 C 0.44634 0.19128 0.64064 0.0
C1681 C 0.34861 0.15659 0.65399 0.0
N1682 N 0.43574 0.26565 0.67816 0.0
N1683 N 0.35871 0.08922 0.6019 0.0
H1684 H 0.27892 0.15794 0.67423 0.0
H1685 H 0.28616 0.10334 0.65483 0.0
H1686 H 0.37859 0.06959 0.58038 0.0
H1687 H 0.3237 0.07751 0.5992 0.0
H1688 H 0.46987 0.28282 0.66828 0.0
H1689 H 0.41658 0.28714 0.69744 0.0
H1690 H 0.51026 0.23742 0.65491 0.0
H1691 H 0.51572 0.18835 0.61885 0.0
C1692 C 0.86709 0.41148 0.69954 0.0
C1693 C 0.84671 0.36365 0.68923 0.0
C1694 C 0.8839 0.36808 0.61314 0.0
C1695 C 0.90719 0.4154 0.62376 0.0
N1696 N 0.92631 0.47934 0.68043 0.0
N1697 N 0.84144 0.29557 0.63679 0.0
C1698 C 0.89972 0.43648 0.66783 0.0
C1699 C 0.85654 0.34201 0.64611 0.0
N1700 N 0.85538 0.4333 0.74003 0.0
N1701 N 0.88738 0.34757 0.57101 0.0
H1702 H 0.82053 0.27582 0.65949 0.0
H1703 H 0.8524 0.27628 0.60805 0.0
H1704 H 0.9095 0.36321 0.54609 0.0
H1705 H 0.86602 0.31598 0.56009 0.0
H1706 H 0.8642 0.46869 0.74877 0.0
H1707 H 0.83408 0.4159 0.76441 0.0
H1708 H 0.92716 0.49446 0.71252 0.0
H1709 H 0.95075 0.49872 0.6592 0.0
C1710 C 0.16414 0.72106 0.66527 0.0
C1711 C 0.18477 0.69679 0.68597 0.0
C1712 C 0.15243 0.62835 0.6357 0.0
C1713 C 0.12285 0.64961 0.6227 0.0
N1714 N 0.09378 0.71784 0.64044 0.0
N1715 N 0.17928 0.62053 0.6985 0.0
C1716 C 0.12657 0.69651 0.64185 0.0
C1717 C 0.17337 0.64841 0.67351 0.0
N1718 N 0.18093 0.76712 0.6659 0.0
N1719 N 0.16359 0.59066 0.61106 0.0
H1720 H 0.1886 0.63257 0.7291 0.0
H1721 H 0.16904 0.58494 0.6907 0.0
H1722 H 0.15561 0.57895 0.57992 0.0
H1723 H 0.18749 0.57673 0.61901 0.0
H1724 H 0.16806 0.78506 0.64911 0.0
H1725 H 0.2116 0.78589 0.67724 0.0
H1726 H 0.09489 0.75103 0.65637 0.0
H1727 H 0.06241 0.70106 0.62967 0.0
loop_
_geom_bond_atom_site_label_1
_geom_bond_atom_site_label_2
_geom_bond_distance
_geom_bond_site_symmetry_2
_ccdc_geom_bond_type
C0 C2 1.422 . S
C0 C4 1.415 . S
C0 N6 1.369 . S
C1 C2 1.421 . S
C1 C3 1.417 . S
C1 C13 1.422 . S
C2 C0 1.422 . S
C2 C1 1.421 . S
C2 N12 1.359 . S
C3 C1 1.417 . S
C3 C5 1.329 . S
C3 H22 0.930 . S
C4 C0 1.415 . S
C4 C5 1.437 . S
C4 C8 1.413 . S
C5 C3 1.329 . S
C5 C4 1.437 . S
C5 H27 0.929 . S
N6 C0 1.369 . S
N6 C7 1.338 . S
N6 Gd11 2.622 . S
C7 N6 1.338 . S
C7 C9 1.378 . S
C7 H19 0.929 . S
C8 C4 1.413 . S
C8 C9 1.348 . S
C8 H24 0.931 . S
C9 C7 1.378 . S
C9 C8 1.348 . S
C9 H25 0.930 . S
Gd10 N30 2.622 . S
Gd10 N37 2.570 . S
Gd10 O44 2.353 . S
Gd10 O45 2.468 . S
Gd10 O46 2.427 . S
Gd10 O48 2.388 . S
Gd10 O49 2.386 . S
Gd10 O53 2.307 . S
Gd10 C63 2.805 . S
Gd11 N6 2.622 . S
Gd11 N12 2.570 . S
Gd11 O43 2.386 . S
Gd11 O47 2.307 . S
Gd11 O50 2.353 . S
Gd11 O51 2.468 . S
Gd11 O52 2.427 . S
Gd11 O54 2.388 . S
Gd11 C75 2.805 . S
N12 C2 1.359 . S
N12 Gd11 2.570 . S
N12 C14 1.343 . S
C13 C1 1.422 . S
C13 C15 1.321 . S
C13 H21 0.931 . S
C14 N12 1.343 . S
C14 C15 1.390 . S
C14 H16 0.931 . S
C15 C13 1.321 . S
C15 C14 1.390 . S
C15 H17 0.930 . S
H16 C14 0.931 . S
H17 C15 0.930 . S
H18 C41 0.931 . S
H19 C7 0.929 . S
H20 C42 0.930 . S
H21 C13 0.931 . S
H22 C3 0.930 . S
H23 C32 0.929 . S
H24 C8 0.931 . S
H25 C9 0.930 . S
H26 C64 0.930 . S
H27 C5 0.929 . S
H28 C33 0.931 . S
H29 C34 0.930 . S
N30 Gd10 2.622 . S
N30 C31 1.369 . S
N30 C32 1.338 . S
C31 N30 1.369 . S
C31 C35 1.415 . S
C31 C38 1.422 . S
C32 H23 0.929 . S
C32 N30 1.338 . S
C32 C34 1.378 . S
C33 H28 0.931 . S
C33 C34 1.348 . S
C33 C35 1.413 . S
C34 H29 0.930 . S
C34 C32 1.378 . S
C34 C33 1.348 . S
C35 C31 1.415 . S
C35 C33 1.413 . S
C35 C65 1.437 . S
H36 C65 0.929 . S
N37 Gd10 2.570 . S
N37 C38 1.359 . S
N37 C41 1.343 . S
C38 C31 1.422 . S
C38 N37 1.359 . S
C38 C40 1.421 . S
C39 C40 1.422 . S
C39 C42 1.321 . S
C39 H66 0.931 . S
C40 C38 1.421 . S
C40 C39 1.422 . S
C40 C64 1.417 . S
C41 H18 0.931 . S
C41 N37 1.343 . S
C41 C42 1.390 . S
C42 H20 0.930 . S
C42 C39 1.321 . S
C42 C41 1.390 . S
O43 Gd11 2.386 . S
O43 C55 1.265 . S
O44 Gd10 2.353 . S
O44 C55 1.242 . S
O45 Gd10 2.468 . S
O45 C63 1.263 . S
O46 Gd10 2.427 . S
O46 C63 1.252 . S
O47 Gd11 2.307 . S
O47 C56 1.261 . S
O48 Gd10 2.388 . S
O48 C56 1.252 . S
O49 Gd10 2.386 . S
O49 C67 1.265 . S
O50 Gd11 2.353 . S
O50 C67 1.242 . S
O51 Gd11 2.468 . S
O51 C75 1.263 . S
O52 Gd11 2.427 . S
O52 C75 1.252 . S
O53 Gd10 2.307 . S
O53 C68 1.261 . S
O54 Gd11 2.388 . S
O54 C68 1.252 . S
C55 O43 1.265 . S
C55 O44 1.242 . S
C56 O47 1.261 . S
C56 O48 1.252 . S
C57 C60 1.394 . S
C57 C62 1.370 . S
C57 C63 1.500 . S
C58 C61 1.383 . S
C58 C62 1.395 . S
C59 C60 1.396 . S
C59 C61 1.365 . S
C59 H76 0.929 . S
C60 C57 1.394 . S
C60 C59 1.396 . S
C60 H77 0.930 . S
C61 C58 1.383 . S
C61 C59 1.365 . S
C61 H78 0.931 . S
C62 C57 1.370 . S
C62 C58 1.395 . S
C62 H79 0.930 . S
C63 Gd10 2.805 . S
C63 O45 1.263 . S
C63 O46 1.252 . S
C63 C57 1.500 . S
C64 H26 0.930 . S
C64 C40 1.417 . S
C64 C65 1.329 . S
C65 C35 1.437 . S
C65 H36 0.929 . S
C65 C64 1.329 . S
H66 C39 0.931 . S
C67 O49 1.265 . S
C67 O50 1.242 . S
C68 O53 1.261 . S
C68 O54 1.252 . S
C69 C72 1.394 . S
C69 C74 1.370 . S
C69 C75 1.500 . S
C70 C73 1.383 . S
C70 C74 1.395 . S
C71 C72 1.396 . S
C71 C73 1.365 . S
C71 H80 0.929 . S
C72 C69 1.394 . S
C72 C71 1.396 . S
C72 H81 0.930 . S
C73 C70 1.383 . S
C73 C71 1.365 . S
C73 H82 0.931 . S
C74 C69 1.370 . S
C74 C70 1.395 . S
C74 H83 0.930 . S
C75 Gd11 2.805 . S
C75 O51 1.263 . S
C75 O52 1.252 . S
C75 C69 1.500 . S
H76 C59 0.929 . S
H77 C60 0.930 . S
H78 C61 0.931 . S
H79 C62 0.930 . S
H80 C71 0.929 . S
H81 C72 0.930 . S
H82 C73 0.931 . S
H83 C74 0.930 . S
C84 C86 1.422 . S
C84 C88 1.415 . S
C84 N90 1.369 . S
C85 C86 1.421 . S
C85 C87 1.417 . S
C85 C97 1.422 . S
C86 C84 1.422 . S
C86 C85 1.421 . S
C86 N96 1.359 . S
C87 C85 1.417 . S
C87 C89 1.329 . S
C87 H106 0.930 . S
C88 C84 1.415 . S
C88 C89 1.437 . S
C88 C92 1.413 . S
C89 C87 1.329 . S
C89 C88 1.437 . S
C89 H111 0.929 . S
N90 C84 1.369 . S
N90 C91 1.338 . S
N90 Gd95 2.622 . S
C91 N90 1.338 . S
C91 C93 1.378 . S
C91 H103 0.929 . S
C92 C88 1.413 . S
C92 C93 1.348 . S
C92 H108 0.931 . S
C93 C91 1.378 . S
C93 C92 1.348 . S
C93 H109 0.930 . S
Gd94 N114 2.622 . S
Gd94 N121 2.570 . S
Gd94 O128 2.353 . S
Gd94 O129 2.468 . S
Gd94 O130 2.427 . S
Gd94 O132 2.388 . S
Gd94 O133 2.386 . S
Gd94 O137 2.307 . S
Gd94 C147 2.805 . S
Gd95 N90 2.622 . S
Gd95 N96 2.570 . S
Gd95 O127 2.386 . S
Gd95 O131 2.307 . S
Gd95 O134 2.353 . S
Gd95 O135 2.468 . S
Gd95 O136 2.427 . S
Gd95 O138 2.388 . S
Gd95 C159 2.805 . S
N96 C86 1.359 . S
N96 Gd95 2.570 . S
N96 C98 1.343 . S
C97 C85 1.422 . S
C97 C99 1.321 . S
C97 H105 0.931 . S
C98 N96 1.343 . S
C98 C99 1.390 . S
C98 H100 0.931 . S
C99 C97 1.321 . S
C99 C98 1.390 . S
C99 H101 0.930 . S
H100 C98 0.931 . S
H101 C99 0.930 . S
H102 C125 0.931 . S
H103 C91 0.929 . S
H104 C126 0.930 . S
H105 C97 0.931 . S
H106 C87 0.930 . S
H107 C116 0.929 . S
H108 C92 0.931 . S
H109 C93 0.930 . S
H110 C148 0.930 . S
H111 C89 0.929 . S
H112 C117 0.931 . S
H113 C118 0.930 . S
N114 Gd94 2.622 . S
N114 C115 1.369 . S
N114 C116 1.338 . S
C115 N114 1.369 . S
C115 C119 1.415 . S
C115 C122 1.422 . S
C116 H107 0.929 . S
C116 N114 1.338 . S
C116 C118 1.378 . S
C117 H112 0.931 . S
C117 C118 1.348 . S
C117 C119 1.413 . S
C118 H113 0.930 . S
C118 C116 1.378 . S
C118 C117 1.348 . S
C119 C115 1.415 . S
C119 C117 1.413 . S
C119 C149 1.437 . S
H120 C149 0.929 . S
N121 Gd94 2.570 . S
N121 C122 1.359 . S
N121 C125 1.343 . S
C122 C115 1.422 . S
C122 N121 1.359 . S
C122 C124 1.421 . S
C123 C124 1.422 . S
C123 C126 1.321 . S
C123 H150 0.931 . S
C124 C122 1.421 . S
C124 C123 1.422 . S
C124 C148 1.417 . S
C125 H102 0.931 . S
C125 N121 1.343 . S
C125 C126 1.390 . S
C126 H104 0.930 . S
C126 C123 1.321 . S
C126 C125 1.390 . S
O127 Gd95 2.386 . S
O127 C139 1.265 . S
O128 Gd94 2.353 . S
O128 C139 1.242 . S
O129 Gd94 2.468 . S
O129 C147 1.263 . S
O130 Gd94 2.427 . S
O130 C147 1.252 . S
O131 Gd95 2.307 . S
O131 C140 1.261 . S
O132 Gd94 2.388 . S
O132 C140 1.252 . S
O133 Gd94 2.386 . S
O133 C151 1.265 . S
O134 Gd95 2.353 . S
O134 C151 1.242 . S
O135 Gd95 2.468 . S
O135 C159 1.263 . S
O136 Gd95 2.427 . S
O136 C159 1.252 . S
O137 Gd94 2.307 . S
O137 C152 1.261 . S
O138 Gd95 2.388 . S
O138 C152 1.252 . S
C139 O127 1.265 . S
C139 O128 1.242 . S
C140 O131 1.261 . S
C140 O132 1.252 . S
C141 C144 1.394 . S
C141 C146 1.370 . S
C141 C147 1.500 . S
C142 C145 1.383 . S
C142 C146 1.395 . S
C143 C144 1.396 . S
C143 C145 1.365 . S
C143 H160 0.929 . S
C144 C141 1.394 . S
C144 C143 1.396 . S
C144 H161 0.930 . S
C145 C142 1.383 . S
C145 C143 1.365 . S
C145 H162 0.931 . S
C146 C141 1.370 . S
C146 C142 1.395 . S
C146 H163 0.930 . S
C147 Gd94 2.805 . S
C147 O129 1.263 . S
C147 O130 1.252 . S
C147 C141 1.500 . S
C148 H110 0.930 . S
C148 C124 1.417 . S
C148 C149 1.329 . S
C149 C119 1.437 . S
C149 H120 0.929 . S
C149 C148 1.329 . S
H150 C123 0.931 . S
C151 O133 1.265 . S
C151 O134 1.242 . S
C152 O137 1.261 . S
C152 O138 1.252 . S
C153 C156 1.394 . S
C153 C158 1.370 . S
C153 C159 1.500 . S
C154 C157 1.383 . S
C154 C158 1.395 . S
C155 C156 1.396 . S
C155 C157 1.365 . S
C155 H164 0.929 . S
C156 C153 1.394 . S
C156 C155 1.396 . S
C156 H165 0.930 . S
C157 C154 1.383 . S
C157 C155 1.365 . S
C157 H166 0.931 . S
C158 C153 1.370 . S
C158 C154 1.395 . S
C158 H167 0.930 . S
C159 Gd95 2.805 . S
C159 O135 1.263 . S
C159 O136 1.252 . S
C159 C153 1.500 . S
H160 C143 0.929 . S
H161 C144 0.930 . S
H162 C145 0.931 . S
H163 C146 0.930 . S
H164 C155 0.929 . S
H165 C156 0.930 . S
H166 C157 0.931 . S
H167 C158 0.930 . S
C168 C170 1.422 . S
C168 C172 1.415 . S
C168 N174 1.369 . S
C169 C170 1.421 . S
C169 C171 1.417 . S
C169 C181 1.422 . S
C170 C168 1.422 . S
C170 C169 1.421 . S
C170 N180 1.359 . S
C171 C169 1.417 . S
C171 C173 1.329 . S
C171 H190 0.930 . S
C172 C168 1.415 . S
C172 C173 1.437 . S
C172 C176 1.413 . S
C173 C171 1.329 . S
C173 C172 1.437 . S
C173 H195 0.929 . S
N174 C168 1.369 . S
N174 C175 1.338 . S
N174 Gd179 2.622 . S
C175 N174 1.338 . S
C175 C177 1.378 . S
C175 H187 0.929 . S
C176 C172 1.413 . S
C176 C177 1.348 . S
C176 H192 0.931 . S
C177 C175 1.378 . S
C177 C176 1.348 . S
C177 H193 0.930 . S
Gd178 N198 2.622 . S
Gd178 N205 2.570 . S
Gd178 O212 2.353 . S
Gd178 O213 2.468 . S
Gd178 O214 2.427 . S
Gd178 O216 2.388 . S
Gd178 O217 2.386 . S
Gd178 O221 2.307 . S
Gd178 C231 2.805 . S
Gd179 N174 2.622 . S
Gd179 N180 2.570 . S
Gd179 O211 2.386 . S
Gd179 O215 2.307 . S
Gd179 O218 2.353 . S
Gd179 O219 2.468 . S
Gd179 O220 2.427 . S
Gd179 O222 2.388 . S
Gd179 C243 2.805 . S
N180 C170 1.359 . S
N180 Gd179 2.570 . S
N180 C182 1.343 . S
C181 C169 1.422 . S
C181 C183 1.321 . S
C181 H189 0.931 . S
C182 N180 1.343 . S
C182 C183 1.390 . S
C182 H184 0.931 . S
C183 C181 1.321 . S
C183 C182 1.390 . S
C183 H185 0.930 . S
H184 C182 0.931 . S
H185 C183 0.930 . S
H186 C209 0.931 . S
H187 C175 0.929 . S
H188 C210 0.930 . S
H189 C181 0.931 . S
H190 C171 0.930 . S
H191 C200 0.929 . S
H192 C176 0.931 . S
H193 C177 0.930 . S
H194 C232 0.930 . S
H195 C173 0.929 . S
H196 C201 0.931 . S
H197 C202 0.930 . S
N198 Gd178 2.622 . S
N198 C199 1.369 . S
N198 C200 1.338 . S
C199 N198 1.369 . S
C199 C203 1.415 . S
C199 C206 1.422 . S
C200 H191 0.929 . S
C200 N198 1.338 . S
C200 C202 1.378 . S
C201 H196 0.931 . S
C201 C202 1.348 . S
C201 C203 1.413 . S
C202 H197 0.930 . S
C202 C200 1.378 . S
C202 C201 1.348 . S
C203 C199 1.415 . S
C203 C201 1.413 . S
C203 C233 1.437 . S
H204 C233 0.929 . S
N205 Gd178 2.570 . S
N205 C206 1.359 . S
N205 C209 1.343 . S
C206 C199 1.422 . S
C206 N205 1.359 . S
C206 C208 1.421 . S
C207 C208 1.422 . S
C207 C210 1.321 . S
C207 H234 0.931 . S
C208 C206 1.421 . S
C208 C207 1.422 . S
C208 C232 1.417 . S
C209 H186 0.931 . S
C209 N205 1.343 . S
C209 C210 1.390 . S
C210 H188 0.930 . S
C210 C207 1.321 . S
C210 C209 1.390 . S
O211 Gd179 2.386 . S
O211 C223 1.265 . S
O212 Gd178 2.353 . S
O212 C223 1.242 . S
O213 Gd178 2.468 . S
O213 C231 1.263 . S
O214 Gd178 2.427 . S
O214 C231 1.252 . S
O215 Gd179 2.307 . S
O215 C224 1.261 . S
O216 Gd178 2.388 . S
O216 C224 1.252 . S
O217 Gd178 2.386 . S
O217 C235 1.265 . S
O218 Gd179 2.353 . S
O218 C235 1.242 . S
O219 Gd179 2.468 . S
O219 C243 1.263 . S
O220 Gd179 2.427 . S
O220 C243 1.252 . S
O221 Gd178 2.307 . S
O221 C236 1.261 . S
O222 Gd179 2.388 . S
O222 C236 1.252 . S
C223 O211 1.265 . S
C223 O212 1.242 . S
C224 O215 1.261 . S
C224 O216 1.252 . S
C225 C228 1.394 . S
C225 C230 1.370 . S
C225 C231 1.500 . S
C226 C229 1.383 . S
C226 C230 1.395 . S
C227 C228 1.396 . S
C227 C229 1.365 . S
C227 H244 0.929 . S
C228 C225 1.394 . S
C228 C227 1.396 . S
C228 H245 0.930 . S
C229 C226 1.383 . S
C229 C227 1.365 . S
C229 H246 0.931 . S
C230 C225 1.370 . S
C230 C226 1.395 . S
C230 H247 0.930 . S
C231 Gd178 2.805 . S
C231 O213 1.263 . S
C231 O214 1.252 . S
C231 C225 1.500 . S
C232 H194 0.930 . S
C232 C208 1.417 . S
C232 C233 1.329 . S
C233 C203 1.437 . S
C233 H204 0.929 . S
C233 C232 1.329 . S
H234 C207 0.931 . S
C235 O217 1.265 . S
C235 O218 1.242 . S
C236 O221 1.261 . S
C236 O222 1.252 . S
C237 C240 1.394 . S
C237 C242 1.370 . S
C237 C243 1.500 . S
C238 C241 1.383 . S
C238 C242 1.395 . S
C239 C240 1.396 . S
C239 C241 1.365 . S
C239 H248 0.929 . S
C240 C237 1.394 . S
C240 C239 1.396 . S
C240 H249 0.930 . S
C241 C238 1.383 . S
C241 C239 1.365 . S
C241 H250 0.931 . S
C242 C237 1.370 . S
C242 C238 1.395 . S
C242 H251 0.930 . S
C243 Gd179 2.805 . S
C243 O219 1.263 . S
C243 O220 1.252 . S
C243 C237 1.500 . S
H244 C227 0.929 . S
H245 C228 0.930 . S
H246 C229 0.931 . S
H247 C230 0.930 . S
H248 C239 0.929 . S
H249 C240 0.930 . S
H250 C241 0.931 . S
H251 C242 0.930 . S
C252 C254 1.422 . S
C252 C256 1.415 . S
C252 N258 1.369 . S
C253 C254 1.421 . S
C253 C255 1.417 . S
C253 C265 1.422 . S
C254 C252 1.422 . S
C254 C253 1.421 . S
C254 N264 1.359 . S
C255 C253 1.417 . S
C255 C257 1.329 . S
C255 H274 0.930 . S
C256 C252 1.415 . S
C256 C257 1.437 . S
C256 C260 1.413 . S
C257 C255 1.329 . S
C257 C256 1.437 . S
C257 H279 0.929 . S
N258 C252 1.369 . S
N258 C259 1.338 . S
N258 Gd263 2.622 . S
C259 N258 1.338 . S
C259 C261 1.378 . S
C259 H271 0.929 . S
C260 C256 1.413 . S
C260 C261 1.348 . S
C260 H276 0.931 . S
C261 C259 1.378 . S
C261 C260 1.348 . S
C261 H277 0.930 . S
Gd262 N282 2.622 . S
Gd262 N289 2.570 . S
Gd262 O296 2.353 . S
Gd262 O297 2.468 . S
Gd262 O298 2.427 . S
Gd262 O300 2.388 . S
Gd262 O301 2.386 . S
Gd262 O305 2.307 . S
Gd262 C315 2.805 . S
Gd263 N258 2.622 . S
Gd263 N264 2.570 . S
Gd263 O295 2.386 . S
Gd263 O299 2.307 . S
Gd263 O302 2.353 . S
Gd263 O303 2.468 . S
Gd263 O304 2.427 . S
Gd263 O306 2.388 . S
Gd263 C327 2.805 . S
N264 C254 1.359 . S
N264 Gd263 2.570 . S
N264 C266 1.343 . S
C265 C253 1.422 . S
C265 C267 1.321 . S
C265 H273 0.931 . S
C266 N264 1.343 . S
C266 C267 1.390 . S
C266 H268 0.931 . S
C267 C265 1.321 . S
C267 C266 1.390 . S
C267 H269 0.930 . S
H268 C266 0.931 . S
H269 C267 0.930 . S
H270 C293 0.931 . S
H271 C259 0.929 . S
H272 C294 0.930 . S
H273 C265 0.931 . S
H274 C255 0.930 . S
H275 C284 0.929 . S
H276 C260 0.931 . S
H277 C261 0.930 . S
H278 C316 0.930 . S
H279 C257 0.929 . S
H280 C285 0.931 . S
H281 C286 0.930 . S
N282 Gd262 2.622 . S
N282 C283 1.369 . S
N282 C284 1.338 . S
C283 N282 1.369 . S
C283 C287 1.415 . S
C283 C290 1.422 . S
C284 H275 0.929 . S
C284 N282 1.338 . S
C284 C286 1.378 . S
C285 H280 0.931 . S
C285 C286 1.348 . S
C285 C287 1.413 . S
C286 H281 0.930 . S
C286 C284 1.378 . S
C286 C285 1.348 . S
C287 C283 1.415 . S
C287 C285 1.413 . S
C287 C317 1.437 . S
H288 C317 0.929 . S
N289 Gd262 2.570 . S
N289 C290 1.359 . S
N289 C293 1.343 . S
C290 C283 1.422 . S
C290 N289 1.359 . S
C290 C292 1.421 . S
C291 C292 1.422 . S
C291 C294 1.321 . S
C291 H318 0.931 . S
C292 C290 1.421 . S
C292 C291 1.422 . S
C292 C316 1.417 . S
C293 H270 0.931 . S
C293 N289 1.343 . S
C293 C294 1.390 . S
C294 H272 0.930 . S
C294 C291 1.321 . S
C294 C293 1.390 . S
O295 Gd263 2.386 . S
O295 C307 1.265 . S
O296 Gd262 2.353 . S
O296 C307 1.242 . S
O297 Gd262 2.468 . S
O297 C315 1.263 . S
O298 Gd262 2.427 . S
O298 C315 1.252 . S
O299 Gd263 2.307 . S
O299 C308 1.261 . S
O300 Gd262 2.388 . S
O300 C308 1.252 . S
O301 Gd262 2.386 . S
O301 C319 1.265 . S
O302 Gd263 2.353 . S
O302 C319 1.242 . S
O303 Gd263 2.468 . S
O303 C327 1.263 . S
O304 Gd263 2.427 . S
O304 C327 1.252 . S
O305 Gd262 2.307 . S
O305 C320 1.261 . S
O306 Gd263 2.388 . S
O306 C320 1.252 . S
C307 O295 1.265 . S
C307 O296 1.242 . S
C308 O299 1.261 . S
C308 O300 1.252 . S
C309 C312 1.394 . S
C309 C314 1.370 . S
C309 C315 1.500 . S
C310 C313 1.383 . S
C310 C314 1.395 . S
C311 C312 1.396 . S
C311 C313 1.365 . S
C311 H328 0.929 . S
C312 C309 1.394 . S
C312 C311 1.396 . S
C312 H329 0.930 . S
C313 C310 1.383 . S
C313 C311 1.365 . S
C313 H330 0.931 . S
C314 C309 1.370 . S
C314 C310 1.395 . S
C314 H331 0.930 . S
C315 Gd262 2.805 . S
C315 O297 1.263 . S
C315 O298 1.252 . S
C315 C309 1.500 . S
C316 H278 0.930 . S
C316 C292 1.417 . S
C316 C317 1.329 . S
C317 C287 1.437 . S
C317 H288 0.929 . S
C317 C316 1.329 . S
H318 C291 0.931 . S
C319 O301 1.265 . S
C319 O302 1.242 . S
C320 O305 1.261 . S
C320 O306 1.252 . S
C321 C324 1.394 . S
C321 C326 1.370 . S
C321 C327 1.500 . S
C322 C325 1.383 . S
C322 C326 1.395 . S
C323 C324 1.396 . S
C323 C325 1.365 . S
C323 H332 0.929 . S
C324 C321 1.394 . S
C324 C323 1.396 . S
C324 H333 0.930 . S
C325 C322 1.383 . S
C325 C323 1.365 . S
C325 H334 0.931 . S
C326 C321 1.370 . S
C326 C322 1.395 . S
C326 H335 0.930 . S
C327 Gd263 2.805 . S
C327 O303 1.263 . S
C327 O304 1.252 . S
C327 C321 1.500 . S
H328 C311 0.929 . S
H329 C312 0.930 . S
H330 C313 0.931 . S
H331 C314 0.930 . S
H332 C323 0.929 . S
H333 C324 0.930 . S
H334 C325 0.931 . S
H335 C326 0.930 . S
C336 C338 1.422 . S
C336 C340 1.415 . S
C336 N342 1.369 . S
C337 C338 1.421 . S
C337 C339 1.417 . S
C337 C349 1.422 . S
C338 C336 1.422 . S
C338 C337 1.421 . S
C338 N348 1.359 . S
C339 C337 1.417 . S
C339 C341 1.329 . S
C339 H358 0.930 . S
C340 C336 1.415 . S
C340 C341 1.437 . S
C340 C344 1.413 . S
C341 C339 1.329 . S
C341 C340 1.437 . S
C341 H363 0.929 . S
N342 C336 1.369 . S
N342 C343 1.338 . S
N342 Gd347 2.622 . S
C343 N342 1.338 . S
C343 C345 1.378 . S
C343 H355 0.929 . S
C344 C340 1.413 . S
C344 C345 1.348 . S
C344 H360 0.931 . S
C345 C343 1.378 . S
C345 C344 1.348 . S
C345 H361 0.930 . S
Gd346 N366 2.622 . S
Gd346 N373 2.570 . S
Gd346 O380 2.353 . S
Gd346 O381 2.468 . S
Gd346 O382 2.427 . S
Gd346 O384 2.388 . S
Gd346 O385 2.386 . S
Gd346 O389 2.307 . S
Gd346 C399 2.805 . S
Gd347 N342 2.622 . S
Gd347 N348 2.570 . S
Gd347 O379 2.386 . S
Gd347 O383 2.307 . S
Gd347 O386 2.353 . S
Gd347 O387 2.468 . S
Gd347 O388 2.427 . S
Gd347 O390 2.388 . S
Gd347 C411 2.805 . S
N348 C338 1.359 . S
N348 Gd347 2.570 . S
N348 C350 1.343 . S
C349 C337 1.422 . S
C349 C351 1.321 . S
C349 H357 0.931 . S
C350 N348 1.343 . S
C350 C351 1.390 . S
C350 H352 0.931 . S
C351 C349 1.321 . S
C351 C350 1.390 . S
C351 H353 0.930 . S
H352 C350 0.931 . S
H353 C351 0.930 . S
H354 C377 0.931 . S
H355 C343 0.929 . S
H356 C378 0.930 . S
H357 C349 0.931 . S
H358 C339 0.930 . S
H359 C368 0.929 . S
H360 C344 0.931 . S
H361 C345 0.930 . S
H362 C400 0.930 . S
H363 C341 0.929 . S
H364 C369 0.931 . S
H365 C370 0.930 . S
N366 Gd346 2.622 . S
N366 C367 1.369 . S
N366 C368 1.338 . S
C367 N366 1.369 . S
C367 C371 1.415 . S
C367 C374 1.422 . S
C368 H359 0.929 . S
C368 N366 1.338 . S
C368 C370 1.378 . S
C369 H364 0.931 . S
C369 C370 1.348 . S
C369 C371 1.413 . S
C370 H365 0.930 . S
C370 C368 1.378 . S
C370 C369 1.348 . S
C371 C367 1.415 . S
C371 C369 1.413 . S
C371 C401 1.437 . S
H372 C401 0.929 . S
N373 Gd346 2.570 . S
N373 C374 1.359 . S
N373 C377 1.343 . S
C374 C367 1.422 . S
C374 N373 1.359 . S
C374 C376 1.421 . S
C375 C376 1.422 . S
C375 C378 1.321 . S
C375 H402 0.931 . S
C376 C374 1.421 . S
C376 C375 1.422 . S
C376 C400 1.417 . S
C377 H354 0.931 . S
C377 N373 1.343 . S
C377 C378 1.390 . S
C378 H356 0.930 . S
C378 C375 1.321 . S
C378 C377 1.390 . S
O379 Gd347 2.386 . S
O379 C391 1.265 . S
O380 Gd346 2.353 . S
O380 C391 1.242 . S
O381 Gd346 2.468 . S
O381 C399 1.263 . S
O382 Gd346 2.427 . S
O382 C399 1.252 . S
O383 Gd347 2.307 . S
O383 C392 1.261 . S
O384 Gd346 2.388 . S
O384 C392 1.252 . S
O385 Gd346 2.386 . S
O385 C403 1.265 . S
O386 Gd347 2.353 . S
O386 C403 1.242 . S
O387 Gd347 2.468 . S
O387 C411 1.263 . S
O388 Gd347 2.427 . S
O388 C411 1.252 . S
O389 Gd346 2.307 . S
O389 C404 1.261 . S
O390 Gd347 2.388 . S
O390 C404 1.252 . S
C391 O379 1.265 . S
C391 O380 1.242 . S
C392 O383 1.261 . S
C392 O384 1.252 . S
C393 C396 1.394 . S
C393 C398 1.370 . S
C393 C399 1.500 . S
C394 C397 1.383 . S
C394 C398 1.395 . S
C395 C396 1.396 . S
C395 C397 1.365 . S
C395 H412 0.929 . S
C396 C393 1.394 . S
C396 C395 1.396 . S
C396 H413 0.930 . S
C397 C394 1.383 . S
C397 C395 1.365 . S
C397 H414 0.931 . S
C398 C393 1.370 . S
C398 C394 1.395 . S
C398 H415 0.930 . S
C399 Gd346 2.805 . S
C399 O381 1.263 . S
C399 O382 1.252 . S
C399 C393 1.500 . S
C400 H362 0.930 . S
C400 C376 1.417 . S
C400 C401 1.329 . S
C401 C371 1.437 . S
C401 H372 0.929 . S
C401 C400 1.329 . S
H402 C375 0.931 . S
C403 O385 1.265 . S
C403 O386 1.242 . S
C404 O389 1.261 . S
C404 O390 1.252 . S
C405 C408 1.394 . S
C405 C410 1.370 . S
C405 C411 1.500 . S
C406 C409 1.383 . S
C406 C410 1.395 . S
C407 C408 1.396 . S
C407 C409 1.365 . S
C407 H416 0.929 . S
C408 C405 1.394 . S
C408 C407 1.396 . S
C408 H417 0.930 . S
C409 C406 1.383 . S
C409 C407 1.365 . S
C409 H418 0.931 . S
C410 C405 1.370 . S
C410 C406 1.395 . S
C410 H419 0.930 . S
C411 Gd347 2.805 . S
C411 O387 1.263 . S
C411 O388 1.252 . S
C411 C405 1.500 . S
H412 C395 0.929 . S
H413 C396 0.930 . S
H414 C397 0.931 . S
H415 C398 0.930 . S
H416 C407 0.929 . S
H417 C408 0.930 . S
H418 C409 0.931 . S
H419 C410 0.930 . S
C420 C422 1.422 . S
C420 C424 1.415 . S
C420 N426 1.369 . S
C421 C422 1.421 . S
C421 C423 1.417 . S
C421 C433 1.422 . S
C422 C420 1.422 . S
C422 C421 1.421 . S
C422 N432 1.359 . S
C423 C421 1.417 . S
C423 C425 1.329 . S
C423 H442 0.930 . S
C424 C420 1.415 . S
C424 C425 1.437 . S
C424 C428 1.413 . S
C425 C423 1.329 . S
C425 C424 1.437 . S
C425 H447 0.929 . S
N426 C420 1.369 . S
N426 C427 1.338 . S
N426 Gd431 2.622 . S
C427 N426 1.338 . S
C427 C429 1.378 . S
C427 H439 0.929 . S
C428 C424 1.413 . S
C428 C429 1.348 . S
C428 H444 0.931 . S
C429 C427 1.378 . S
C429 C428 1.348 . S
C429 H445 0.930 . S
Gd430 N450 2.622 . S
Gd430 N457 2.570 . S
Gd430 O464 2.353 . S
Gd430 O465 2.468 . S
Gd430 O466 2.427 . S
Gd430 O468 2.388 . S
Gd430 O469 2.386 . S
Gd430 O473 2.307 . S
Gd430 C483 2.805 . S
Gd431 N426 2.622 . S
Gd431 N432 2.570 . S
Gd431 O463 2.386 . S
Gd431 O467 2.307 . S
Gd431 O470 2.353 . S
Gd431 O471 2.468 . S
Gd431 O472 2.427 . S
Gd431 O474 2.388 . S
Gd431 C495 2.805 . S
N432 C422 1.359 . S
N432 Gd431 2.570 . S
N432 C434 1.343 . S
C433 C421 1.422 . S
C433 C435 1.321 . S
C433 H441 0.931 . S
C434 N432 1.343 . S
C434 C435 1.390 . S
C434 H436 0.931 . S
C435 C433 1.321 . S
C435 C434 1.390 . S
C435 H437 0.930 . S
H436 C434 0.931 . S
H437 C435 0.930 . S
H438 C461 0.931 . S
H439 C427 0.929 . S
H440 C462 0.930 . S
H441 C433 0.931 . S
H442 C423 0.930 . S
H443 C452 0.929 . S
H444 C428 0.931 . S
H445 C429 0.930 . S
H446 C484 0.930 . S
H447 C425 0.929 . S
H448 C453 0.931 . S
H449 C454 0.930 . S
N450 Gd430 2.622 . S
N450 C451 1.369 . S
N450 C452 1.338 . S
C451 N450 1.369 . S
C451 C455 1.415 . S
C451 C458 1.422 . S
C452 H443 0.929 . S
C452 N450 1.338 . S
C452 C454 1.378 . S
C453 H448 0.931 . S
C453 C454 1.348 . S
C453 C455 1.413 . S
C454 H449 0.930 . S
C454 C452 1.378 . S
C454 C453 1.348 . S
C455 C451 1.415 . S
C455 C453 1.413 . S
C455 C485 1.437 . S
H456 C485 0.929 . S
N457 Gd430 2.570 . S
N457 C458 1.359 . S
N457 C461 1.343 . S
C458 C451 1.422 . S
C458 N457 1.359 . S
C458 C460 1.421 . S
C459 C460 1.422 . S
C459 C462 1.321 . S
C459 H486 0.931 . S
C460 C458 1.421 . S
C460 C459 1.422 . S
C460 C484 1.417 . S
C461 H438 0.931 . S
C461 N457 1.343 . S
C461 C462 1.390 . S
C462 H440 0.930 . S
C462 C459 1.321 . S
C462 C461 1.390 . S
O463 Gd431 2.386 . S
O463 C475 1.265 . S
O464 Gd430 2.353 . S
O464 C475 1.242 . S
O465 Gd430 2.468 . S
O465 C483 1.263 . S
O466 Gd430 2.427 . S
O466 C483 1.252 . S
O467 Gd431 2.307 . S
O467 C476 1.261 . S
O468 Gd430 2.388 . S
O468 C476 1.252 . S
O469 Gd430 2.386 . S
O469 C487 1.265 . S
O470 Gd431 2.353 . S
O470 C487 1.242 . S
O471 Gd431 2.468 . S
O471 C495 1.263 . S
O472 Gd431 2.427 . S
O472 C495 1.252 . S
O473 Gd430 2.307 . S
O473 C488 1.261 . S
O474 Gd431 2.388 . S
O474 C488 1.252 . S
C475 O463 1.265 . S
C475 O464 1.242 . S
C476 O467 1.261 . S
C476 O468 1.252 . S
C477 C480 1.394 . S
C477 C482 1.370 . S
C477 C483 1.500 . S
C478 C481 1.383 . S
C478 C482 1.395 . S
C479 C480 1.396 . S
C479 C481 1.365 . S
C479 H496 0.929 . S
C480 C477 1.394 . S
C480 C479 1.396 . S
C480 H497 0.930 . S
C481 C478 1.383 . S
C481 C479 1.365 . S
C481 H498 0.931 . S
C482 C477 1.370 . S
C482 C478 1.395 . S
C482 H499 0.930 . S
C483 Gd430 2.805 . S
C483 O465 1.263 . S
C483 O466 1.252 . S
C483 C477 1.500 . S
C484 H446 0.930 . S
C484 C460 1.417 . S
C484 C485 1.329 . S
C485 C455 1.437 . S
C485 H456 0.929 . S
C485 C484 1.329 . S
H486 C459 0.931 . S
C487 O469 1.265 . S
C487 O470 1.242 . S
C488 O473 1.261 . S
C488 O474 1.252 . S
C489 C492 1.394 . S
C489 C494 1.370 . S
C489 C495 1.500 . S
C490 C493 1.383 . S
C490 C494 1.395 . S
C491 C492 1.396 . S
C491 C493 1.365 . S
C491 H500 0.929 . S
C492 C489 1.394 . S
C492 C491 1.396 . S
C492 H501 0.930 . S
C493 C490 1.383 . S
C493 C491 1.365 . S
C493 H502 0.931 . S
C494 C489 1.370 . S
C494 C490 1.395 . S
C494 H503 0.930 . S
C495 Gd431 2.805 . S
C495 O471 1.263 . S
C495 O472 1.252 . S
C495 C489 1.500 . S
H496 C479 0.929 . S
H497 C480 0.930 . S
H498 C481 0.931 . S
H499 C482 0.930 . S
H500 C491 0.929 . S
H501 C492 0.930 . S
H502 C493 0.931 . S
H503 C494 0.930 . S
C504 C506 1.422 . S
C504 C508 1.415 . S
C504 N510 1.369 . S
C505 C506 1.421 . S
C505 C507 1.417 . S
C505 C517 1.422 . S
C506 C504 1.422 . S
C506 C505 1.421 . S
C506 N516 1.359 . S
C507 C505 1.417 . S
C507 C509 1.329 . S
C507 H526 0.930 . S
C508 C504 1.415 . S
C508 C509 1.437 . S
C508 C512 1.413 . S
C509 C507 1.329 . S
C509 C508 1.437 . S
C509 H531 0.929 . S
N510 C504 1.369 . S
N510 C511 1.338 . S
N510 Gd515 2.622 . S
C511 N510 1.338 . S
C511 C513 1.378 . S
C511 H523 0.929 . S
C512 C508 1.413 . S
C512 C513 1.348 . S
C512 H528 0.931 . S
C513 C511 1.378 . S
C513 C512 1.348 . S
C513 H529 0.930 . S
Gd514 N534 2.622 . S
Gd514 N541 2.570 . S
Gd514 O548 2.353 . S
Gd514 O549 2.468 . S
Gd514 O550 2.427 . S
Gd514 O552 2.388 . S
Gd514 O553 2.386 . S
Gd514 O557 2.307 . S
Gd514 C567 2.805 . S
Gd515 N510 2.622 . S
Gd515 N516 2.570 . S
Gd515 O547 2.386 . S
Gd515 O551 2.307 . S
Gd515 O554 2.353 . S
Gd515 O555 2.468 . S
Gd515 O556 2.427 . S
Gd515 O558 2.388 . S
Gd515 C579 2.805 . S
N516 C506 1.359 . S
N516 Gd515 2.570 . S
N516 C518 1.343 . S
C517 C505 1.422 . S
C517 C519 1.321 . S
C517 H525 0.931 . S
C518 N516 1.343 . S
C518 C519 1.390 . S
C518 H520 0.931 . S
C519 C517 1.321 . S
C519 C518 1.390 . S
C519 H521 0.930 . S
H520 C518 0.931 . S
H521 C519 0.930 . S
H522 C545 0.931 . S
H523 C511 0.929 . S
H524 C546 0.930 . S
H525 C517 0.931 . S
H526 C507 0.930 . S
H527 C536 0.929 . S
H528 C512 0.931 . S
H529 C513 0.930 . S
H530 C568 0.930 . S
H531 C509 0.929 . S
H532 C537 0.931 . S
H533 C538 0.930 . S
N534 Gd514 2.622 . S
N534 C535 1.369 . S
N534 C536 1.338 . S
C535 N534 1.369 . S
C535 C539 1.415 . S
C535 C542 1.422 . S
C536 H527 0.929 . S
C536 N534 1.338 . S
C536 C538 1.378 . S
C537 H532 0.931 . S
C537 C538 1.348 . S
C537 C539 1.413 . S
C538 H533 0.930 . S
C538 C536 1.378 . S
C538 C537 1.348 . S
C539 C535 1.415 . S
C539 C537 1.413 . S
C539 C569 1.437 . S
H540 C569 0.929 . S
N541 Gd514 2.570 . S
N541 C542 1.359 . S
N541 C545 1.343 . S
C542 C535 1.422 . S
C542 N541 1.359 . S
C542 C544 1.421 . S
C543 C544 1.422 . S
C543 C546 1.321 . S
C543 H570 0.931 . S
C544 C542 1.421 . S
C544 C543 1.422 . S
C544 C568 1.417 . S
C545 H522 0.931 . S
C545 N541 1.343 . S
C545 C546 1.390 . S
C546 H524 0.930 . S
C546 C543 1.321 . S
C546 C545 1.390 . S
O547 Gd515 2.386 . S
O547 C559 1.265 . S
O548 Gd514 2.353 . S
O548 C559 1.242 . S
O549 Gd514 2.468 . S
O549 C567 1.263 . S
O550 Gd514 2.427 . S
O550 C567 1.252 . S
O551 Gd515 2.307 . S
O551 C560 1.261 . S
O552 Gd514 2.388 . S
O552 C560 1.252 . S
O553 Gd514 2.386 . S
O553 C571 1.265 . S
O554 Gd515 2.353 . S
O554 C571 1.242 . S
O555 Gd515 2.468 . S
O555 C579 1.263 . S
O556 Gd515 2.427 . S
O556 C579 1.252 . S
O557 Gd514 2.307 . S
O557 C572 1.261 . S
O558 Gd515 2.388 . S
O558 C572 1.252 . S
C559 O547 1.265 . S
C559 O548 1.242 . S
C560 O551 1.261 . S
C560 O552 1.252 . S
C561 C564 1.394 . S
C561 C566 1.370 . S
C561 C567 1.500 . S
C562 C565 1.383 . S
C562 C566 1.395 . S
C563 C564 1.396 . S
C563 C565 1.365 . S
C563 H580 0.929 . S
C564 C561 1.394 . S
C564 C563 1.396 . S
C564 H581 0.930 . S
C565 C562 1.383 . S
C565 C563 1.365 . S
C565 H582 0.931 . S
C566 C561 1.370 . S
C566 C562 1.395 . S
C566 H583 0.930 . S
C567 Gd514 2.805 . S
C567 O549 1.263 . S
C567 O550 1.252 . S
C567 C561 1.500 . S
C568 H530 0.930 . S
C568 C544 1.417 . S
C568 C569 1.329 . S
C569 C539 1.437 . S
C569 H540 0.929 . S
C569 C568 1.329 . S
H570 C543 0.931 . S
C571 O553 1.265 . S
C571 O554 1.242 . S
C572 O557 1.261 . S
C572 O558 1.252 . S
C573 C576 1.394 . S
C573 C578 1.370 . S
C573 C579 1.500 . S
C574 C577 1.383 . S
C574 C578 1.395 . S
C575 C576 1.396 . S
C575 C577 1.365 . S
C575 H584 0.929 . S
C576 C573 1.394 . S
C576 C575 1.396 . S
C576 H585 0.930 . S
C577 C574 1.383 . S
C577 C575 1.365 . S
C577 H586 0.931 . S
C578 C573 1.370 . S
C578 C574 1.395 . S
C578 H587 0.930 . S
C579 Gd515 2.805 . S
C579 O555 1.263 . S
C579 O556 1.252 . S
C579 C573 1.500 . S
H580 C563 0.929 . S
H581 C564 0.930 . S
H582 C565 0.931 . S
H583 C566 0.930 . S
H584 C575 0.929 . S
H585 C576 0.930 . S
H586 C577 0.931 . S
H587 C578 0.930 . S
C588 C590 1.422 . S
C588 C592 1.415 . S
C588 N594 1.369 . S
C589 C590 1.421 . S
C589 C591 1.417 . S
C589 C601 1.422 . S
C590 C588 1.422 . S
C590 C589 1.421 . S
C590 N600 1.359 . S
C591 C589 1.417 . S
C591 C593 1.329 . S
C591 H610 0.930 . S
C592 C588 1.415 . S
C592 C593 1.437 . S
C592 C596 1.413 . S
C593 C591 1.329 . S
C593 C592 1.437 . S
C593 H615 0.929 . S
N594 C588 1.369 . S
N594 C595 1.338 . S
N594 Gd599 2.622 . S
C595 N594 1.338 . S
C595 C597 1.378 . S
C595 H607 0.929 . S
C596 C592 1.413 . S
C596 C597 1.348 . S
C596 H612 0.931 . S
C597 C595 1.378 . S
C597 C596 1.348 . S
C597 H613 0.930 . S
Gd598 N618 2.622 . S
Gd598 N625 2.570 . S
Gd598 O632 2.353 . S
Gd598 O633 2.468 . S
Gd598 O634 2.427 . S
Gd598 O636 2.388 . S
Gd598 O637 2.386 . S
Gd598 O641 2.307 . S
Gd598 C651 2.805 . S
Gd599 N594 2.622 . S
Gd599 N600 2.570 . S
Gd599 O631 2.386 . S
Gd599 O635 2.307 . S
Gd599 O638 2.353 . S
Gd599 O639 2.468 . S
Gd599 O640 2.427 . S
Gd599 O642 2.388 . S
Gd599 C663 2.805 . S
N600 C590 1.359 . S
N600 Gd599 2.570 . S
N600 C602 1.343 . S
C601 C589 1.422 . S
C601 C603 1.321 . S
C601 H609 0.931 . S
C602 N600 1.343 . S
C602 C603 1.390 . S
C602 H604 0.931 . S
C603 C601 1.321 . S
C603 C602 1.390 . S
C603 H605 0.930 . S
H604 C602 0.931 . S
H605 C603 0.930 . S
H606 C629 0.931 . S
H607 C595 0.929 . S
H608 C630 0.930 . S
H609 C601 0.931 . S
H610 C591 0.930 . S
H611 C620 0.929 . S
H612 C596 0.931 . S
H613 C597 0.930 . S
H614 C652 0.930 . S
H615 C593 0.929 . S
H616 C621 0.931 . S
H617 C622 0.930 . S
N618 Gd598 2.622 . S
N618 C619 1.369 . S
N618 C620 1.338 . S
C619 N618 1.369 . S
C619 C623 1.415 . S
C619 C626 1.422 . S
C620 H611 0.929 . S
C620 N618 1.338 . S
C620 C622 1.378 . S
C621 H616 0.931 . S
C621 C622 1.348 . S
C621 C623 1.413 . S
C622 H617 0.930 . S
C622 C620 1.378 . S
C622 C621 1.348 . S
C623 C619 1.415 . S
C623 C621 1.413 . S
C623 C653 1.437 . S
H624 C653 0.929 . S
N625 Gd598 2.570 . S
N625 C626 1.359 . S
N625 C629 1.343 . S
C626 C619 1.422 . S
C626 N625 1.359 . S
C626 C628 1.421 . S
C627 C628 1.422 . S
C627 C630 1.321 . S
C627 H654 0.931 . S
C628 C626 1.421 . S
C628 C627 1.422 . S
C628 C652 1.417 . S
C629 H606 0.931 . S
C629 N625 1.343 . S
C629 C630 1.390 . S
C630 H608 0.930 . S
C630 C627 1.321 . S
C630 C629 1.390 . S
O631 Gd599 2.386 . S
O631 C643 1.265 . S
O632 Gd598 2.353 . S
O632 C643 1.242 . S
O633 Gd598 2.468 . S
O633 C651 1.263 . S
O634 Gd598 2.427 . S
O634 C651 1.252 . S
O635 Gd599 2.307 . S
O635 C644 1.261 . S
O636 Gd598 2.388 . S
O636 C644 1.252 . S
O637 Gd598 2.386 . S
O637 C655 1.265 . S
O638 Gd599 2.353 . S
O638 C655 1.242 . S
O639 Gd599 2.468 . S
O639 C663 1.263 . S
O640 Gd599 2.427 . S
O640 C663 1.252 . S
O641 Gd598 2.307 . S
O641 C656 1.261 . S
O642 Gd599 2.388 . S
O642 C656 1.252 . S
C643 O631 1.265 . S
C643 O632 1.242 . S
C644 O635 1.261 . S
C644 O636 1.252 . S
C645 C648 1.394 . S
C645 C650 1.370 . S
C645 C651 1.500 . S
C646 C649 1.383 . S
C646 C650 1.395 . S
C647 C648 1.396 . S
C647 C649 1.365 . S
C647 H664 0.929 . S
C648 C645 1.394 . S
C648 C647 1.396 . S
C648 H665 0.930 . S
C649 C646 1.383 . S
C649 C647 1.365 . S
C649 H666 0.931 . S
C650 C645 1.370 . S
C650 C646 1.395 . S
C650 H667 0.930 . S
C651 Gd598 2.805 . S
C651 O633 1.263 . S
C651 O634 1.252 . S
C651 C645 1.500 . S
C652 H614 0.930 . S
C652 C628 1.417 . S
C652 C653 1.329 . S
C653 C623 1.437 . S
C653 H624 0.929 . S
C653 C652 1.329 . S
H654 C627 0.931 . S
C655 O637 1.265 . S
C655 O638 1.242 . S
C656 O641 1.261 . S
C656 O642 1.252 . S
C657 C660 1.394 . S
C657 C662 1.370 . S
C657 C663 1.500 . S
C658 C661 1.383 . S
C658 C662 1.395 . S
C659 C660 1.396 . S
C659 C661 1.365 . S
C659 H668 0.929 . S
C660 C657 1.394 . S
C660 C659 1.396 . S
C660 H669 0.930 . S
C661 C658 1.383 . S
C661 C659 1.365 . S
C661 H670 0.931 . S
C662 C657 1.370 . S
C662 C658 1.395 . S
C662 H671 0.930 . S
C663 Gd599 2.805 . S
C663 O639 1.263 . S
C663 O640 1.252 . S
C663 C657 1.500 . S
H664 C647 0.929 . S
H665 C648 0.930 . S
H666 C649 0.931 . S
H667 C650 0.930 . S
H668 C659 0.929 . S
H669 C660 0.930 . S
H670 C661 0.931 . S
H671 C662 0.930 . S
Fe672 O673 1.886 1_455 S
Fe672 O676 1.715 . S
Fe672 O681 2.077 1_455 S
Fe672 O686 1.935 . S
Fe672 O692 2.077 1_455 S
Fe672 O701 1.935 . S
O673 Fe672 1.886 1_655 S
O673 Fe675 1.715 1_545 S
Fe674 O676 1.886 . S
Fe674 O677 1.715 1_545 S
Fe674 O684 1.935 1_545 S
Fe674 O685 2.077 . S
Fe674 O691 1.935 1_545 S
Fe674 O700 2.077 . S
Fe675 O673 1.715 1_565 S
Fe675 O678 1.886 . S
Fe675 O682 1.935 1_565 S
Fe675 O687 2.077 . S
Fe675 O693 1.935 1_565 S
Fe675 O697 2.077 . S
O676 Fe672 1.715 . S
O676 Fe674 1.886 . S
O677 Fe674 1.715 1_565 S
O677 Fe679 1.886 1_455 S
O678 Fe675 1.886 . S
O678 Fe679 1.715 . S
Fe679 O677 1.886 1_655 S
Fe679 O678 1.715 . S
Fe679 O683 2.077 1_655 S
Fe679 O688 1.935 . S
Fe679 O690 2.077 1_655 S
Fe679 O698 1.935 . S
C680 O692 1.381 . S
C680 O693 1.421 . S
O681 Fe672 2.077 1_655 S
O681 C694 1.381 . S
O682 Fe675 1.935 1_545 S
O682 C694 1.421 . S
O683 Fe679 2.077 1_455 S
O683 C699 1.381 . S
O684 Fe674 1.935 1_565 S
O684 C699 1.421 . S
O685 Fe674 2.077 . S
O685 C689 1.381 . S
O686 Fe672 1.935 . S
O686 C689 1.421 . S
O687 Fe675 2.077 . S
O687 C695 1.381 . S
O688 Fe679 1.935 . S
O688 C695 1.421 . S
C689 O685 1.381 . S
C689 O686 1.421 . S
O690 Fe679 2.077 1_455 S
O690 C702 1.381 . S
O691 Fe674 1.935 1_565 S
O691 C702 1.421 . S
O692 Fe672 2.077 1_655 S
O692 C680 1.381 . S
O693 Fe675 1.935 1_545 S
O693 C680 1.421 . S
C694 O681 1.381 . S
C694 O682 1.421 . S
C695 O687 1.381 . S
C695 O688 1.421 . S
C696 O697 1.381 . S
C696 O698 1.421 . S
O697 Fe675 2.077 . S
O697 C696 1.381 . S
O698 Fe679 1.935 . S
O698 C696 1.421 . S
C699 O683 1.381 . S
C699 O684 1.421 . S
O700 Fe674 2.077 . S
O700 C703 1.381 . S
O701 Fe672 1.935 . S
O701 C703 1.421 . S
C702 O690 1.381 . S
C702 O691 1.421 . S
C703 O700 1.381 . S
C703 O701 1.421 . S
Fe704 O705 1.886 . S
Fe704 O708 1.714 . S
Fe704 O713 2.077 . S
Fe704 O718 1.935 . S
Fe704 O724 2.077 1_556 S
Fe704 O733 1.935 1_556 S
O705 Fe704 1.886 . S
O705 Fe707 1.715 1_565 S
Fe706 O708 1.887 1_554 S
Fe706 O709 1.715 1_565 S
Fe706 O716 1.935 1_564 S
Fe706 O717 2.077 1_554 S
Fe706 O723 1.935 1_565 S
Fe706 O732 2.077 . S
Fe707 O705 1.715 1_545 S
Fe707 O710 1.888 1_556 S
Fe707 O714 1.935 1_545 S
Fe707 O719 2.077 . S
Fe707 O725 1.935 1_546 S
Fe707 O729 2.077 1_556 S
O708 Fe704 1.714 . S
O708 Fe706 1.887 1_556 S
O709 Fe706 1.715 1_545 S
O709 Fe711 1.886 . S
O710 Fe707 1.888 1_554 S
O710 Fe711 1.713 . S
Fe711 O709 1.886 . S
Fe711 O710 1.713 . S
Fe711 O715 2.077 1_554 S
Fe711 O720 1.935 1_554 S
Fe711 O722 2.077 . S
Fe711 O730 1.935 . S
C712 O724 1.381 . S
C712 O725 1.421 . S
O713 Fe704 2.077 . S
O713 C726 1.381 . S
O714 Fe707 1.935 1_565 S
O714 C726 1.421 . S
O715 Fe711 2.077 1_556 S
O715 C731 1.381 . S
O716 Fe706 1.935 1_546 S
O716 C731 1.421 . S
O717 Fe706 2.077 1_556 S
O717 C721 1.381 . S
O718 Fe704 1.935 . S
O718 C721 1.421 . S
O719 Fe707 2.077 . S
O719 C727 1.381 . S
O720 Fe711 1.935 1_556 S
O720 C727 1.421 . S
C721 O717 1.381 . S
C721 O718 1.421 . S
O722 Fe711 2.077 . S
O722 C734 1.381 . S
O723 Fe706 1.935 1_545 S
O723 C734 1.421 . S
O724 Fe704 2.077 1_554 S
O724 C712 1.381 . S
O725 Fe707 1.935 1_564 S
O725 C712 1.421 . S
C726 O713 1.381 . S
C726 O714 1.421 . S
C727 O719 1.381 . S
C727 O720 1.421 . S
C728 O729 1.381 . S
C728 O730 1.421 . S
O729 Fe707 2.077 1_554 S
O729 C728 1.381 . S
O730 Fe711 1.935 . S
O730 C728 1.421 . S
C731 O715 1.381 . S
C731 O716 1.421 . S
O732 Fe706 2.077 . S
O732 C735 1.381 . S
O733 Fe704 1.935 1_554 S
O733 C735 1.421 . S
C734 O722 1.381 . S
C734 O723 1.421 . S
C735 O732 1.381 . S
C735 O733 1.421 . S
Fe736 O737 1.886 1_455 S
Fe736 O740 1.714 . S
Fe736 O745 2.077 1_454 S
Fe736 O750 1.935 1_554 S
Fe736 O756 2.077 1_455 S
Fe736 O765 1.935 . S
O737 Fe736 1.886 1_655 S
O737 Fe739 1.715 . S
Fe738 O740 1.887 1_556 S
Fe738 O741 1.715 . S
Fe738 O748 1.935 . S
Fe738 O749 2.077 . S
Fe738 O755 1.935 1_556 S
Fe738 O764 2.077 1_556 S
Fe739 O737 1.715 . S
Fe739 O742 1.887 1_554 S
Fe739 O746 1.935 1_554 S
Fe739 O751 2.077 1_554 S
Fe739 O757 1.935 . S
Fe739 O761 2.077 . S
O740 Fe736 1.714 . S
O740 Fe738 1.887 1_554 S
O741 Fe738 1.715 . S
O741 Fe743 1.886 1_455 S
O742 Fe739 1.887 1_556 S
O742 Fe743 1.714 . S
Fe743 O741 1.886 1_655 S
Fe743 O742 1.714 . S
Fe743 O747 2.077 1_655 S
Fe743 O752 1.935 . S
Fe743 O754 2.077 1_656 S
Fe743 O762 1.935 1_556 S
C744 O756 1.381 . S
C744 O757 1.421 . S
O745 Fe736 2.077 1_656 S
O745 C758 1.381 . S
O746 Fe739 1.935 1_556 S
O746 C758 1.421 . S
O747 Fe743 2.077 1_455 S
O747 C763 1.381 . S
O748 Fe738 1.935 . S
O748 C763 1.421 . S
O749 Fe738 2.077 . S
O749 C753 1.381 . S
O750 Fe736 1.935 1_556 S
O750 C753 1.421 . S
O751 Fe739 2.077 1_556 S
O751 C759 1.381 . S
O752 Fe743 1.935 . S
O752 C759 1.421 . S
C753 O749 1.381 . S
C753 O750 1.421 . S
O754 Fe743 2.077 1_454 S
O754 C766 1.381 . S
O755 Fe738 1.935 1_554 S
O755 C766 1.421 . S
O756 Fe736 2.077 1_655 S
O756 C744 1.381 . S
O757 Fe739 1.935 . S
O757 C744 1.421 . S
C758 O745 1.381 . S
C758 O746 1.421 . S
C759 O751 1.381 . S
C759 O752 1.421 . S
C760 O761 1.381 . S
C760 O762 1.421 . S
O761 Fe739 2.077 . S
O761 C760 1.381 . S
O762 Fe743 1.935 1_554 S
O762 C760 1.421 . S
C763 O747 1.381 . S
C763 O748 1.421 . S
O764 Fe738 2.077 1_554 S
O764 C767 1.381 . S
O765 Fe736 1.935 . S
O765 C767 1.421 . S
C766 O754 1.381 . S
C766 O755 1.421 . S
C767 O764 1.381 . S
C767 O765 1.421 . S
Fe768 O769 1.886 . S
Fe768 O772 1.715 . S
Fe768 O777 2.077 . S
Fe768 O782 1.935 . S
Fe768 O788 2.077 . S
Fe768 O797 1.935 . S
O769 Fe768 1.886 . S
O769 Fe771 1.715 . S
Fe770 O772 1.886 1_554 S
Fe770 O773 1.715 . S
Fe770 O780 1.935 . S
Fe770 O781 2.077 1_554 S
Fe770 O787 1.935 . S
Fe770 O796 2.077 1_554 S
Fe771 O769 1.715 . S
Fe771 O774 1.886 1_556 S
Fe771 O778 1.935 . S
Fe771 O783 2.077 1_556 S
Fe771 O789 1.935 . S
Fe771 O793 2.077 1_556 S
O772 Fe768 1.715 . S
O772 Fe770 1.886 1_556 S
O773 Fe770 1.715 . S
O773 Fe775 1.886 . S
O774 Fe771 1.886 1_554 S
O774 Fe775 1.715 . S
Fe775 O773 1.886 . S
Fe775 O774 1.715 . S
Fe775 O779 2.077 . S
Fe775 O784 1.935 . S
Fe775 O786 2.077 . S
Fe775 O794 1.935 . S
C776 O788 1.381 . S
C776 O789 1.421 . S
O777 Fe768 2.077 . S
O777 C790 1.381 . S
O778 Fe771 1.935 . S
O778 C790 1.421 . S
O779 Fe775 2.077 . S
O779 C795 1.381 . S
O780 Fe770 1.935 . S
O780 C795 1.421 . S
O781 Fe770 2.077 1_556 S
O781 C785 1.381 . S
O782 Fe768 1.935 . S
O782 C785 1.421 . S
O783 Fe771 2.077 1_554 S
O783 C791 1.381 . S
O784 Fe775 1.935 . S
O784 C791 1.421 . S
C785 O781 1.381 . S
C785 O782 1.421 . S
O786 Fe775 2.077 . S
O786 C798 1.381 . S
O787 Fe770 1.935 . S
O787 C798 1.421 . S
O788 Fe768 2.077 . S
O788 C776 1.381 . S
O789 Fe771 1.935 . S
O789 C776 1.421 . S
C790 O777 1.381 . S
C790 O778 1.421 . S
C791 O783 1.381 . S
C791 O784 1.421 . S
C792 O793 1.381 . S
C792 O794 1.421 . S
O793 Fe771 2.077 1_554 S
O793 C792 1.381 . S
O794 Fe775 1.935 . S
O794 C792 1.421 . S
C795 O779 1.381 . S
C795 O780 1.421 . S
O796 Fe770 2.077 1_556 S
O796 C799 1.381 . S
O797 Fe768 1.935 . S
O797 C799 1.421 . S
C798 O786 1.381 . S
C798 O787 1.421 . S
C799 O796 1.381 . S
C799 O797 1.421 . S
Fe800 O801 1.886 . S
Fe800 O804 1.715 . S
Fe800 O809 2.077 1_655 S
Fe800 O814 1.935 1_655 S
Fe800 O820 2.077 . S
Fe800 O829 1.935 . S
O801 Fe800 1.886 . S
O801 Fe803 1.715 . S
Fe802 O804 1.886 1_455 S
Fe802 O805 1.715 . S
Fe802 O812 1.935 . S
Fe802 O813 2.077 . S
Fe802 O819 1.935 1_455 S
Fe802 O828 2.077 1_455 S
Fe803 O801 1.715 . S
Fe803 O806 1.886 1_655 S
Fe803 O810 1.935 1_655 S
Fe803 O815 2.077 1_655 S
Fe803 O821 1.935 . S
Fe803 O825 2.077 . S
O804 Fe800 1.715 . S
O804 Fe802 1.886 1_655 S
O805 Fe802 1.715 . S
O805 Fe807 1.886 . S
O806 Fe803 1.886 1_455 S
O806 Fe807 1.715 . S
Fe807 O805 1.886 . S
Fe807 O806 1.715 . S
Fe807 O811 2.077 . S
Fe807 O816 1.935 . S
Fe807 O818 2.077 1_455 S
Fe807 O826 1.935 1_455 S
C808 O820 1.381 . S
C808 O821 1.421 . S
O809 Fe800 2.077 1_455 S
O809 C822 1.381 . S
O810 Fe803 1.935 1_455 S
O810 C822 1.421 . S
O811 Fe807 2.077 . S
O811 C827 1.381 . S
O812 Fe802 1.935 . S
O812 C827 1.421 . S
O813 Fe802 2.077 . S
O813 C817 1.381 . S
O814 Fe800 1.935 1_455 S
O814 C817 1.421 . S
O815 Fe803 2.077 1_455 S
O815 C823 1.381 . S
O816 Fe807 1.935 . S
O816 C823 1.421 . S
C817 O813 1.381 . S
C817 O814 1.421 . S
O818 Fe807 2.077 1_655 S
O818 C830 1.381 . S
O819 Fe802 1.935 1_655 S
O819 C830 1.421 . S
O820 Fe800 2.077 . S
O820 C808 1.381 . S
O821 Fe803 1.935 . S
O821 C808 1.421 . S
C822 O809 1.381 . S
C822 O810 1.421 . S
C823 O815 1.381 . S
C823 O816 1.421 . S
C824 O825 1.381 . S
C824 O826 1.421 . S
O825 Fe803 2.077 . S
O825 C824 1.381 . S
O826 Fe807 1.935 1_655 S
O826 C824 1.421 . S
C827 O811 1.381 . S
C827 O812 1.421 . S
O828 Fe802 2.077 1_655 S
O828 C831 1.381 . S
O829 Fe800 1.935 . S
O829 C831 1.421 . S
C830 O818 1.381 . S
C830 O819 1.421 . S
C831 O828 1.381 . S
C831 O829 1.421 . S
Fe832 O833 1.886 . S
Fe832 O836 1.715 . S
Fe832 O841 2.077 . S
Fe832 O846 1.935 . S
Fe832 O852 2.077 . S
Fe832 O861 1.935 . S
O833 Fe832 1.886 . S
O833 Fe835 1.715 1_565 S
Fe834 O836 1.886 . S
Fe834 O837 1.715 1_565 S
Fe834 O844 1.935 1_565 S
Fe834 O845 2.077 . S
Fe834 O851 1.935 1_565 S
Fe834 O860 2.077 . S
Fe835 O833 1.715 1_545 S
Fe835 O838 1.886 . S
Fe835 O842 1.935 1_545 S
Fe835 O847 2.077 . S
Fe835 O853 1.935 1_545 S
Fe835 O857 2.077 . S
O836 Fe832 1.715 . S
O836 Fe834 1.886 . S
O837 Fe834 1.715 1_545 S
O837 Fe839 1.886 . S
O838 Fe835 1.886 . S
O838 Fe839 1.715 . S
Fe839 O837 1.886 . S
Fe839 O838 1.715 . S
Fe839 O843 2.077 . S
Fe839 O848 1.935 . S
Fe839 O850 2.077 . S
Fe839 O858 1.935 . S
C840 O852 1.381 . S
C840 O853 1.421 . S
O841 Fe832 2.077 . S
O841 C854 1.381 . S
O842 Fe835 1.935 1_565 S
O842 C854 1.421 . S
O843 Fe839 2.077 . S
O843 C859 1.381 . S
O844 Fe834 1.935 1_545 S
O844 C859 1.421 . S
O845 Fe834 2.077 . S
O845 C849 1.381 . S
O846 Fe832 1.935 . S
O846 C849 1.421 . S
O847 Fe835 2.077 . S
O847 C855 1.381 . S
O848 Fe839 1.935 . S
O848 C855 1.421 . S
C849 O845 1.381 . S
C849 O846 1.421 . S
O850 Fe839 2.077 . S
O850 C862 1.381 . S
O851 Fe834 1.935 1_545 S
O851 C862 1.421 . S
O852 Fe832 2.077 . S
O852 C840 1.381 . S
O853 Fe835 1.935 1_565 S
O853 C840 1.421 . S
C854 O841 1.381 . S
C854 O842 1.421 . S
C855 O847 1.381 . S
C855 O848 1.421 . S
C856 O857 1.381 . S
C856 O858 1.421 . S
O857 Fe835 2.077 . S
O857 C856 1.381 . S
O858 Fe839 1.935 . S
O858 C856 1.421 . S
C859 O843 1.381 . S
C859 O844 1.421 . S
O860 Fe834 2.077 . S
O860 C863 1.381 . S
O861 Fe832 1.935 . S
O861 C863 1.421 . S
C862 O850 1.381 . S
C862 O851 1.421 . S
C863 O860 1.381 . S
C863 O861 1.421 . S
C864 C865 1.363 . S
C864 C870 1.379 . S
C864 N872 1.356 . S
C865 C864 1.363 . S
C865 C871 1.363 . S
C866 C867 1.363 . S
C866 C871 1.379 . S
C866 N873 1.356 . S
C867 C866 1.363 . S
C867 C870 1.363 . S
N868 C870 1.356 . S
N868 H880 0.984 . S
N868 H881 0.985 . S
N869 C871 1.356 . S
N869 H874 0.984 . S
N869 H875 0.985 . S
C870 C864 1.379 . S
C870 C867 1.363 . S
C870 N868 1.356 . S
C871 C865 1.363 . S
C871 C866 1.379 . S
C871 N869 1.356 . S
N872 C864 1.356 . S
N872 H878 0.984 . S
N872 H879 0.984 . S
N873 C866 1.356 . S
N873 H876 0.984 . S
N873 H877 0.985 . S
H874 N869 0.984 . S
H875 N869 0.985 . S
H876 N873 0.984 . S
H877 N873 0.985 . S
H878 N872 0.984 . S
H879 N872 0.984 . S
H880 N868 0.984 . S
H881 N868 0.985 . S
C882 C883 1.363 . S
C882 C888 1.379 . S
C882 N890 1.356 . S
C883 C882 1.363 . S
C883 C889 1.363 . S
C884 C885 1.363 . S
C884 C889 1.379 . S
C884 N891 1.356 . S
C885 C884 1.363 . S
C885 C888 1.363 . S
N886 C888 1.356 . S
N886 H898 0.984 1_545 S
N886 H899 0.985 . S
N887 C889 1.356 . S
N887 H892 0.984 . S
N887 H893 0.985 . S
C888 C882 1.379 . S
C888 C885 1.363 . S
C888 N886 1.356 . S
C889 C883 1.363 . S
C889 C884 1.379 . S
C889 N887 1.356 . S
N890 C882 1.356 . S
N890 H896 0.984 . S
N890 H897 0.984 . S
N891 C884 1.356 . S
N891 H894 0.984 . S
N891 H895 0.985 . S
H892 N887 0.984 . S
H893 N887 0.985 . S
H894 N891 0.984 . S
H895 N891 0.985 . S
H896 N890 0.984 . S
H897 N890 0.984 . S
H898 N886 0.984 1_565 S
H899 N886 0.985 . S
C900 C901 1.363 . S
C900 C906 1.379 . S
C900 N908 1.356 . S
C901 C900 1.363 . S
C901 C907 1.363 . S
C902 C903 1.363 . S
C902 C907 1.379 . S
C902 N909 1.356 . S
C903 C902 1.363 . S
C903 C906 1.363 . S
N904 C906 1.356 . S
N904 H916 0.984 . S
N904 H917 0.985 . S
N905 C907 1.356 . S
N905 H910 0.984 . S
N905 H911 0.985 . S
C906 C900 1.379 . S
C906 C903 1.363 . S
C906 N904 1.356 . S
C907 C901 1.363 . S
C907 C902 1.379 . S
C907 N905 1.356 . S
N908 C900 1.356 . S
N908 H914 0.984 . S
N908 H915 0.984 . S
N909 C902 1.356 . S
N909 H912 0.984 . S
N909 H913 0.985 . S
H910 N905 0.984 . S
H911 N905 0.985 . S
H912 N909 0.984 . S
H913 N909 0.985 . S
H914 N908 0.984 . S
H915 N908 0.984 . S
H916 N904 0.984 . S
H917 N904 0.985 . S
C918 C919 1.363 . S
C918 C924 1.379 . S
C918 N926 1.356 . S
C919 C918 1.363 . S
C919 C925 1.363 . S
C920 C921 1.363 . S
C920 C925 1.379 . S
C920 N927 1.356 . S
C921 C920 1.363 . S
C921 C924 1.363 . S
N922 C924 1.356 . S
N922 H934 0.984 . S
N922 H935 0.985 . S
N923 C925 1.356 . S
N923 H928 0.984 . S
N923 H929 0.985 . S
C924 C918 1.379 . S
C924 C921 1.363 . S
C924 N922 1.356 . S
C925 C919 1.363 . S
C925 C920 1.379 . S
C925 N923 1.356 . S
N926 C918 1.356 . S
N926 H932 0.984 . S
N926 H933 0.984 . S
N927 C920 1.356 . S
N927 H930 0.984 . S
N927 H931 0.985 . S
H928 N923 0.984 . S
H929 N923 0.985 . S
H930 N927 0.984 . S
H931 N927 0.985 . S
H932 N926 0.984 . S
H933 N926 0.984 . S
H934 N922 0.984 . S
H935 N922 0.985 . S
C936 C937 1.363 . S
C936 C942 1.379 . S
C936 N944 1.356 . S
C937 C936 1.363 . S
C937 C943 1.363 . S
C938 C939 1.363 . S
C938 C943 1.379 . S
C938 N945 1.356 . S
C939 C938 1.363 . S
C939 C942 1.363 . S
N940 C942 1.356 . S
N940 H952 0.984 1_565 S
N940 H953 0.985 . S
N941 C943 1.356 . S
N941 H946 0.984 . S
N941 H947 0.985 . S
C942 C936 1.379 . S
C942 C939 1.363 . S
C942 N940 1.356 . S
C943 C937 1.363 . S
C943 C938 1.379 . S
C943 N941 1.356 . S
N944 C936 1.356 . S
N944 H950 0.984 . S
N944 H951 0.984 . S
N945 C938 1.356 . S
N945 H948 0.984 . S
N945 H949 0.985 . S
H946 N941 0.984 . S
H947 N941 0.985 . S
H948 N945 0.984 . S
H949 N945 0.985 . S
H950 N944 0.984 . S
H951 N944 0.984 . S
H952 N940 0.984 1_545 S
H953 N940 0.985 . S
C954 C955 1.363 . S
C954 C960 1.379 . S
C954 N962 1.356 . S
C955 C954 1.363 . S
C955 C961 1.363 . S
C956 C957 1.363 . S
C956 C961 1.379 . S
C956 N963 1.356 . S
C957 C956 1.363 . S
C957 C960 1.363 . S
N958 C960 1.356 . S
N958 H970 0.984 . S
N958 H971 0.985 . S
N959 C961 1.356 . S
N959 H964 0.984 . S
N959 H965 0.985 . S
C960 C954 1.379 . S
C960 C957 1.363 . S
C960 N958 1.356 . S
C961 C955 1.363 . S
C961 C956 1.379 . S
C961 N959 1.356 . S
N962 C954 1.356 . S
N962 H968 0.984 . S
N962 H969 0.984 . S
N963 C956 1.356 . S
N963 H966 0.984 . S
N963 H967 0.985 . S
H964 N959 0.984 . S
H965 N959 0.985 . S
H966 N963 0.984 . S
H967 N963 0.985 . S
H968 N962 0.984 . S
H969 N962 0.984 . S
H970 N958 0.984 . S
H971 N958 0.985 . S
C972 C973 1.363 . S
C972 C978 1.379 . S
C972 N980 1.356 . S
C973 C972 1.363 . S
C973 C979 1.363 . S
C974 C975 1.363 . S
C974 C979 1.379 . S
C974 N981 1.356 . S
C975 C974 1.363 . S
C975 C978 1.363 . S
N976 C978 1.356 . S
N976 H988 0.984 1_655 S
N976 H989 0.985 . S
N977 C979 1.356 . S
N977 H982 0.984 . S
N977 H983 0.985 . S
C978 C972 1.379 . S
C978 C975 1.363 . S
C978 N976 1.356 . S
C979 C973 1.363 . S
C979 C974 1.379 . S
C979 N977 1.356 . S
N980 C972 1.356 . S
N980 H986 0.984 . S
N980 H987 0.984 . S
N981 C974 1.356 . S
N981 H984 0.984 . S
N981 H985 0.985 . S
H982 N977 0.984 . S
H983 N977 0.985 . S
H984 N981 0.984 . S
H985 N981 0.985 . S
H986 N980 0.984 . S
H987 N980 0.984 . S
H988 N976 0.984 1_455 S
H989 N976 0.985 . S
C990 C991 1.363 . S
C990 C996 1.379 . S
C990 N998 1.356 . S
C991 C990 1.363 . S
C991 C997 1.363 . S
C992 C993 1.363 . S
C992 C997 1.379 . S
C992 N999 1.356 . S
C993 C992 1.363 . S
C993 C996 1.363 . S
N994 C996 1.356 . S
N994 H1006 0.984 . S
N994 H1007 0.985 . S
N995 C997 1.356 . S
N995 H1000 0.984 . S
N995 H1001 0.985 . S
C996 C990 1.379 . S
C996 C993 1.363 . S
C996 N994 1.356 . S
C997 C991 1.363 . S
C997 C992 1.379 . S
C997 N995 1.356 . S
N998 C990 1.356 . S
N998 H1004 0.984 . S
N998 H1005 0.984 . S
N999 C992 1.356 . S
N999 H1002 0.984 . S
N999 H1003 0.985 . S
H1000 N995 0.984 . S
H1001 N995 0.985 . S
H1002 N999 0.984 . S
H1003 N999 0.985 . S
H1004 N998 0.984 . S
H1005 N998 0.984 . S
H1006 N994 0.984 . S
H1007 N994 0.985 . S
C1008 C1009 1.363 . S
C1008 C1014 1.379 . S
C1008 N1016 1.356 . S
C1009 C1008 1.363 . S
C1009 C1015 1.363 . S
C1010 C1011 1.363 . S
C1010 C1015 1.379 . S
C1010 N1017 1.356 . S
C1011 C1010 1.363 . S
C1011 C1014 1.363 . S
N1012 C1014 1.356 . S
N1012 H1024 0.984 . S
N1012 H1025 0.985 . S
N1013 C1015 1.356 . S
N1013 H1018 0.984 . S
N1013 H1019 0.985 . S
C1014 C1008 1.379 . S
C1014 C1011 1.363 . S
C1014 N1012 1.356 . S
C1015 C1009 1.363 . S
C1015 C1010 1.379 . S
C1015 N1013 1.356 . S
N1016 C1008 1.356 . S
N1016 H1022 0.984 . S
N1016 H1023 0.984 . S
N1017 C1010 1.356 . S
N1017 H1020 0.984 . S
N1017 H1021 0.985 . S
H1018 N1013 0.984 . S
H1019 N1013 0.985 . S
H1020 N1017 0.984 . S
H1021 N1017 0.985 . S
H1022 N1016 0.984 . S
H1023 N1016 0.984 . S
H1024 N1012 0.984 . S
H1025 N1012 0.985 . S
C1026 C1027 1.363 . S
C1026 C1032 1.379 . S
C1026 N1034 1.356 . S
C1027 C1026 1.363 . S
C1027 C1033 1.363 . S
C1028 C1029 1.363 . S
C1028 C1033 1.379 . S
C1028 N1035 1.356 . S
C1029 C1028 1.363 . S
C1029 C1032 1.363 . S
N1030 C1032 1.356 . S
N1030 H1042 0.984 . S
N1030 H1043 0.985 . S
N1031 C1033 1.356 . S
N1031 H1036 0.984 . S
N1031 H1037 0.985 . S
C1032 C1026 1.379 . S
C1032 C1029 1.363 . S
C1032 N1030 1.356 . S
C1033 C1027 1.363 . S
C1033 C1028 1.379 . S
C1033 N1031 1.356 . S
N1034 C1026 1.356 . S
N1034 H1040 0.984 . S
N1034 H1041 0.984 . S
N1035 C1028 1.356 . S
N1035 H1038 0.984 . S
N1035 H1039 0.985 . S
H1036 N1031 0.984 . S
H1037 N1031 0.985 . S
H1038 N1035 0.984 . S
H1039 N1035 0.985 . S
H1040 N1034 0.984 . S
H1041 N1034 0.984 . S
H1042 N1030 0.984 . S
H1043 N1030 0.985 . S
C1044 C1045 1.363 . S
C1044 C1050 1.379 . S
C1044 N1052 1.356 . S
C1045 C1044 1.363 . S
C1045 C1051 1.363 . S
C1046 C1047 1.363 . S
C1046 C1051 1.379 . S
C1046 N1053 1.356 . S
C1047 C1046 1.363 . S
C1047 C1050 1.363 . S
N1048 C1050 1.356 . S
N1048 H1060 0.984 . S
N1048 H1061 0.985 . S
N1049 C1051 1.356 . S
N1049 H1054 0.984 . S
N1049 H1055 0.985 . S
C1050 C1044 1.379 . S
C1050 C1047 1.363 . S
C1050 N1048 1.356 . S
C1051 C1045 1.363 . S
C1051 C1046 1.379 . S
C1051 N1049 1.356 . S
N1052 C1044 1.356 . S
N1052 H1058 0.984 . S
N1052 H1059 0.984 . S
N1053 C1046 1.356 . S
N1053 H1056 0.984 . S
N1053 H1057 0.985 1_565 S
H1054 N1049 0.984 . S
H1055 N1049 0.985 . S
H1056 N1053 0.984 . S
H1057 N1053 0.985 1_545 S
H1058 N1052 0.984 . S
H1059 N1052 0.984 . S
H1060 N1048 0.984 . S
H1061 N1048 0.985 . S
C1062 C1063 1.363 . S
C1062 C1068 1.379 . S
C1062 N1070 1.356 . S
C1063 C1062 1.363 . S
C1063 C1069 1.363 . S
C1064 C1065 1.363 . S
C1064 C1069 1.379 . S
C1064 N1071 1.356 . S
C1065 C1064 1.363 . S
C1065 C1068 1.363 . S
N1066 C1068 1.356 . S
N1066 H1078 0.984 . S
N1066 H1079 0.985 . S
N1067 C1069 1.356 . S
N1067 H1072 0.984 . S
N1067 H1073 0.985 . S
C1068 C1062 1.379 . S
C1068 C1065 1.363 . S
C1068 N1066 1.356 . S
C1069 C1063 1.363 . S
C1069 C1064 1.379 . S
C1069 N1067 1.356 . S
N1070 C1062 1.356 . S
N1070 H1076 0.984 . S
N1070 H1077 0.984 . S
N1071 C1064 1.356 . S
N1071 H1074 0.984 . S
N1071 H1075 0.985 . S
H1072 N1067 0.984 . S
H1073 N1067 0.985 . S
H1074 N1071 0.984 . S
H1075 N1071 0.985 . S
H1076 N1070 0.984 . S
H1077 N1070 0.984 . S
H1078 N1066 0.984 . S
H1079 N1066 0.985 . S
C1080 C1081 1.363 . S
C1080 C1086 1.379 . S
C1080 N1088 1.356 . S
C1081 C1080 1.363 . S
C1081 C1087 1.363 . S
C1082 C1083 1.363 . S
C1082 C1087 1.379 . S
C1082 N1089 1.356 . S
C1083 C1082 1.363 . S
C1083 C1086 1.363 . S
N1084 C1086 1.356 . S
N1084 H1096 0.984 . S
N1084 H1097 0.985 . S
N1085 C1087 1.356 . S
N1085 H1090 0.984 . S
N1085 H1091 0.985 . S
C1086 C1080 1.379 . S
C1086 C1083 1.363 . S
C1086 N1084 1.356 . S
C1087 C1081 1.363 . S
C1087 C1082 1.379 . S
C1087 N1085 1.356 . S
N1088 C1080 1.356 . S
N1088 H1094 0.984 . S
N1088 H1095 0.984 . S
N1089 C1082 1.356 . S
N1089 H1092 0.984 . S
N1089 H1093 0.985 . S
H1090 N1085 0.984 . S
H1091 N1085 0.985 . S
H1092 N1089 0.984 . S
H1093 N1089 0.985 . S
H1094 N1088 0.984 . S
H1095 N1088 0.984 . S
H1096 N1084 0.984 . S
H1097 N1084 0.985 . S
C1098 C1099 1.363 . S
C1098 C1104 1.379 . S
C1098 N1106 1.356 . S
C1099 C1098 1.363 . S
C1099 C1105 1.363 . S
C1100 C1101 1.363 . S
C1100 C1105 1.379 . S
C1100 N1107 1.356 . S
C1101 C1100 1.363 . S
C1101 C1104 1.363 . S
N1102 C1104 1.356 . S
N1102 H1114 0.984 . S
N1102 H1115 0.985 . S
N1103 C1105 1.356 . S
N1103 H1108 0.984 . S
N1103 H1109 0.985 . S
C1104 C1098 1.379 . S
C1104 C1101 1.363 . S
C1104 N1102 1.356 . S
C1105 C1099 1.363 . S
C1105 C1100 1.379 . S
C1105 N1103 1.356 . S
N1106 C1098 1.356 . S
N1106 H1112 0.984 . S
N1106 H1113 0.984 . S
N1107 C1100 1.356 . S
N1107 H1110 0.984 . S
N1107 H1111 0.985 . S
H1108 N1103 0.984 . S
H1109 N1103 0.985 . S
H1110 N1107 0.984 . S
H1111 N1107 0.985 . S
H1112 N1106 0.984 . S
H1113 N1106 0.984 . S
H1114 N1102 0.984 . S
H1115 N1102 0.985 . S
C1116 C1117 1.363 . S
C1116 C1122 1.379 . S
C1116 N1124 1.356 . S
C1117 C1116 1.363 . S
C1117 C1123 1.363 . S
C1118 C1119 1.363 . S
C1118 C1123 1.379 . S
C1118 N1125 1.356 . S
C1119 C1118 1.363 . S
C1119 C1122 1.363 . S
N1120 C1122 1.356 . S
N1120 H1132 0.984 . S
N1120 H1133 0.985 . S
N1121 C1123 1.356 . S
N1121 H1126 0.984 . S
N1121 H1127 0.985 . S
C1122 C1116 1.379 . S
C1122 C1119 1.363 . S
C1122 N1120 1.356 . S
C1123 C1117 1.363 . S
C1123 C1118 1.379 . S
C1123 N1121 1.356 . S
N1124 C1116 1.356 . S
N1124 H1130 0.984 . S
N1124 H1131 0.984 . S
N1125 C1118 1.356 . S
N1125 H1128 0.984 . S
N1125 H1129 0.985 . S
H1126 N1121 0.984 . S
H1127 N1121 0.985 . S
H1128 N1125 0.984 . S
H1129 N1125 0.985 . S
H1130 N1124 0.984 . S
H1131 N1124 0.984 . S
H1132 N1120 0.984 . S
H1133 N1120 0.985 . S
C1134 C1135 1.363 . S
C1134 C1140 1.379 . S
C1134 N1142 1.356 . S
C1135 C1134 1.363 . S
C1135 C1141 1.363 . S
C1136 C1137 1.363 . S
C1136 C1141 1.379 . S
C1136 N1143 1.356 . S
C1137 C1136 1.363 . S
C1137 C1140 1.363 . S
N1138 C1140 1.356 . S
N1138 H1150 0.984 . S
N1138 H1151 0.985 . S
N1139 C1141 1.356 . S
N1139 H1144 0.984 . S
N1139 H1145 0.985 . S
C1140 C1134 1.379 . S
C1140 C1137 1.363 . S
C1140 N1138 1.356 . S
C1141 C1135 1.363 . S
C1141 C1136 1.379 . S
C1141 N1139 1.356 . S
N1142 C1134 1.356 . S
N1142 H1148 0.984 . S
N1142 H1149 0.984 . S
N1143 C1136 1.356 . S
N1143 H1146 0.984 . S
N1143 H1147 0.985 . S
H1144 N1139 0.984 . S
H1145 N1139 0.985 . S
H1146 N1143 0.984 . S
H1147 N1143 0.985 . S
H1148 N1142 0.984 . S
H1149 N1142 0.984 . S
H1150 N1138 0.984 . S
H1151 N1138 0.985 . S
C1152 C1153 1.363 . S
C1152 C1158 1.379 . S
C1152 N1160 1.356 . S
C1153 C1152 1.363 . S
C1153 C1159 1.363 . S
C1154 C1155 1.363 . S
C1154 C1159 1.379 . S
C1154 N1161 1.356 . S
C1155 C1154 1.363 . S
C1155 C1158 1.363 . S
N1156 C1158 1.356 . S
N1156 H1168 0.984 1_554 S
N1156 H1169 0.985 . S
N1157 C1159 1.356 . S
N1157 H1162 0.984 . S
N1157 H1163 0.985 . S
C1158 C1152 1.379 . S
C1158 C1155 1.363 . S
C1158 N1156 1.356 . S
C1159 C1153 1.363 . S
C1159 C1154 1.379 . S
C1159 N1157 1.356 . S
N1160 C1152 1.356 . S
N1160 H1166 0.984 . S
N1160 H1167 0.984 . S
N1161 C1154 1.356 . S
N1161 H1164 0.984 . S
N1161 H1165 0.985 . S
H1162 N1157 0.984 . S
H1163 N1157 0.985 . S
H1164 N1161 0.984 . S
H1165 N1161 0.985 . S
H1166 N1160 0.984 . S
H1167 N1160 0.984 . S
H1168 N1156 0.984 1_556 S
H1169 N1156 0.985 . S
C1170 C1171 1.363 . S
C1170 C1176 1.379 . S
C1170 N1178 1.356 . S
C1171 C1170 1.363 . S
C1171 C1177 1.363 . S
C1172 C1173 1.363 . S
C1172 C1177 1.379 . S
C1172 N1179 1.356 . S
C1173 C1172 1.363 . S
C1173 C1176 1.363 . S
N1174 C1176 1.356 . S
N1174 H1186 0.984 . S
N1174 H1187 0.985 . S
N1175 C1177 1.356 . S
N1175 H1180 0.984 . S
N1175 H1181 0.985 . S
C1176 C1170 1.379 . S
C1176 C1173 1.363 . S
C1176 N1174 1.356 . S
C1177 C1171 1.363 . S
C1177 C1172 1.379 . S
C1177 N1175 1.356 . S
N1178 C1170 1.356 . S
N1178 H1184 0.984 . S
N1178 H1185 0.984 . S
N1179 C1172 1.356 . S
N1179 H1182 0.984 . S
N1179 H1183 0.985 . S
H1180 N1175 0.984 . S
H1181 N1175 0.985 . S
H1182 N1179 0.984 . S
H1183 N1179 0.985 . S
H1184 N1178 0.984 . S
H1185 N1178 0.984 . S
H1186 N1174 0.984 . S
H1187 N1174 0.985 . S
C1188 C1189 1.363 . S
C1188 C1194 1.379 . S
C1188 N1196 1.356 . S
C1189 C1188 1.363 . S
C1189 C1195 1.363 . S
C1190 C1191 1.363 . S
C1190 C1195 1.379 . S
C1190 N1197 1.356 . S
C1191 C1190 1.363 . S
C1191 C1194 1.363 . S
N1192 C1194 1.356 . S
N1192 H1204 0.984 1_545 S
N1192 H1205 0.985 . S
N1193 C1195 1.356 . S
N1193 H1198 0.984 . S
N1193 H1199 0.985 . S
C1194 C1188 1.379 . S
C1194 C1191 1.363 . S
C1194 N1192 1.356 . S
C1195 C1189 1.363 . S
C1195 C1190 1.379 . S
C1195 N1193 1.356 . S
N1196 C1188 1.356 . S
N1196 H1202 0.984 . S
N1196 H1203 0.984 . S
N1197 C1190 1.356 . S
N1197 H1200 0.984 . S
N1197 H1201 0.985 . S
H1198 N1193 0.984 . S
H1199 N1193 0.985 . S
H1200 N1197 0.984 . S
H1201 N1197 0.985 . S
H1202 N1196 0.984 . S
H1203 N1196 0.984 . S
H1204 N1192 0.984 1_565 S
H1205 N1192 0.985 . S
C1206 C1207 1.363 . S
C1206 C1212 1.379 . S
C1206 N1214 1.356 . S
C1207 C1206 1.363 . S
C1207 C1213 1.363 . S
C1208 C1209 1.363 . S
C1208 C1213 1.379 . S
C1208 N1215 1.356 . S
C1209 C1208 1.363 . S
C1209 C1212 1.363 . S
N1210 C1212 1.356 . S
N1210 H1222 0.984 . S
N1210 H1223 0.985 . S
N1211 C1213 1.356 . S
N1211 H1216 0.984 . S
N1211 H1217 0.985 . S
C1212 C1206 1.379 . S
C1212 C1209 1.363 . S
C1212 N1210 1.356 . S
C1213 C1207 1.363 . S
C1213 C1208 1.379 . S
C1213 N1211 1.356 . S
N1214 C1206 1.356 . S
N1214 H1220 0.984 . S
N1214 H1221 0.984 . S
N1215 C1208 1.356 . S
N1215 H1218 0.984 . S
N1215 H1219 0.985 . S
H1216 N1211 0.984 . S
H1217 N1211 0.985 . S
H1218 N1215 0.984 . S
H1219 N1215 0.985 . S
H1220 N1214 0.984 . S
H1221 N1214 0.984 . S
H1222 N1210 0.984 . S
H1223 N1210 0.985 . S
C1224 C1225 1.363 . S
C1224 C1230 1.379 . S
C1224 N1232 1.356 . S
C1225 C1224 1.363 . S
C1225 C1231 1.363 . S
C1226 C1227 1.363 . S
C1226 C1231 1.379 . S
C1226 N1233 1.356 . S
C1227 C1226 1.363 . S
C1227 C1230 1.363 . S
N1228 C1230 1.356 . S
N1228 H1240 0.984 . S
N1228 H1241 0.985 . S
N1229 C1231 1.356 . S
N1229 H1234 0.984 . S
N1229 H1235 0.985 . S
C1230 C1224 1.379 . S
C1230 C1227 1.363 . S
C1230 N1228 1.356 . S
C1231 C1225 1.363 . S
C1231 C1226 1.379 . S
C1231 N1229 1.356 . S
N1232 C1224 1.356 . S
N1232 H1238 0.984 . S
N1232 H1239 0.984 . S
N1233 C1226 1.356 . S
N1233 H1236 0.984 . S
N1233 H1237 0.985 . S
H1234 N1229 0.984 . S
H1235 N1229 0.985 . S
H1236 N1233 0.984 . S
H1237 N1233 0.985 . S
H1238 N1232 0.984 . S
H1239 N1232 0.984 . S
H1240 N1228 0.984 . S
H1241 N1228 0.985 . S
C1242 C1243 1.363 . S
C1242 C1248 1.379 . S
C1242 N1250 1.356 . S
C1243 C1242 1.363 . S
C1243 C1249 1.363 . S
C1244 C1245 1.363 . S
C1244 C1249 1.379 . S
C1244 N1251 1.356 . S
C1245 C1244 1.363 . S
C1245 C1248 1.363 . S
N1246 C1248 1.356 . S
N1246 H1258 0.984 . S
N1246 H1259 0.985 . S
N1247 C1249 1.356 . S
N1247 H1252 0.984 . S
N1247 H1253 0.985 . S
C1248 C1242 1.379 . S
C1248 C1245 1.363 . S
C1248 N1246 1.356 . S
C1249 C1243 1.363 . S
C1249 C1244 1.379 . S
C1249 N1247 1.356 . S
N1250 C1242 1.356 . S
N1250 H1256 0.984 . S
N1250 H1257 0.984 . S
N1251 C1244 1.356 . S
N1251 H1254 0.984 . S
N1251 H1255 0.985 . S
H1252 N1247 0.984 . S
H1253 N1247 0.985 . S
H1254 N1251 0.984 . S
H1255 N1251 0.985 . S
H1256 N1250 0.984 . S
H1257 N1250 0.984 . S
H1258 N1246 0.984 . S
H1259 N1246 0.985 . S
C1260 C1261 1.363 . S
C1260 C1266 1.379 . S
C1260 N1268 1.356 . S
C1261 C1260 1.363 . S
C1261 C1267 1.363 . S
C1262 C1263 1.363 . S
C1262 C1267 1.379 . S
C1262 N1269 1.356 . S
C1263 C1262 1.363 . S
C1263 C1266 1.363 . S
N1264 C1266 1.356 . S
N1264 H1276 0.984 . S
N1264 H1277 0.985 . S
N1265 C1267 1.356 . S
N1265 H1270 0.984 . S
N1265 H1271 0.985 . S
C1266 C1260 1.379 . S
C1266 C1263 1.363 . S
C1266 N1264 1.356 . S
C1267 C1261 1.363 . S
C1267 C1262 1.379 . S
C1267 N1265 1.356 . S
N1268 C1260 1.356 . S
N1268 H1274 0.984 . S
N1268 H1275 0.984 . S
N1269 C1262 1.356 . S
N1269 H1272 0.984 . S
N1269 H1273 0.985 . S
H1270 N1265 0.984 . S
H1271 N1265 0.985 . S
H1272 N1269 0.984 . S
H1273 N1269 0.985 . S
H1274 N1268 0.984 . S
H1275 N1268 0.984 . S
H1276 N1264 0.984 . S
H1277 N1264 0.985 . S
C1278 C1279 1.363 . S
C1278 C1284 1.379 . S
C1278 N1286 1.356 . S
C1279 C1278 1.363 . S
C1279 C1285 1.363 . S
C1280 C1281 1.363 . S
C1280 C1285 1.379 . S
C1280 N1287 1.356 . S
C1281 C1280 1.363 . S
C1281 C1284 1.363 . S
N1282 C1284 1.356 . S
N1282 H1294 0.984 . S
N1282 H1295 0.985 . S
N1283 C1285 1.356 . S
N1283 H1288 0.984 . S
N1283 H1289 0.985 . S
C1284 C1278 1.379 . S
C1284 C1281 1.363 . S
C1284 N1282 1.356 . S
C1285 C1279 1.363 . S
C1285 C1280 1.379 . S
C1285 N1283 1.356 . S
N1286 C1278 1.356 . S
N1286 H1292 0.984 . S
N1286 H1293 0.984 . S
N1287 C1280 1.356 . S
N1287 H1290 0.984 . S
N1287 H1291 0.985 . S
H1288 N1283 0.984 . S
H1289 N1283 0.985 . S
H1290 N1287 0.984 . S
H1291 N1287 0.985 . S
H1292 N1286 0.984 . S
H1293 N1286 0.984 . S
H1294 N1282 0.984 . S
H1295 N1282 0.985 . S
C1296 C1297 1.363 . S
C1296 C1302 1.379 . S
C1296 N1304 1.356 . S
C1297 C1296 1.363 . S
C1297 C1303 1.363 . S
C1298 C1299 1.363 . S
C1298 C1303 1.379 . S
C1298 N1305 1.356 . S
C1299 C1298 1.363 . S
C1299 C1302 1.363 . S
N1300 C1302 1.356 . S
N1300 H1312 0.984 . S
N1300 H1313 0.985 . S
N1301 C1303 1.356 . S
N1301 H1306 0.984 . S
N1301 H1307 0.985 . S
C1302 C1296 1.379 . S
C1302 C1299 1.363 . S
C1302 N1300 1.356 . S
C1303 C1297 1.363 . S
C1303 C1298 1.379 . S
C1303 N1301 1.356 . S
N1304 C1296 1.356 . S
N1304 H1310 0.984 . S
N1304 H1311 0.984 . S
N1305 C1298 1.356 . S
N1305 H1308 0.984 . S
N1305 H1309 0.985 . S
H1306 N1301 0.984 . S
H1307 N1301 0.985 . S
H1308 N1305 0.984 . S
H1309 N1305 0.985 . S
H1310 N1304 0.984 . S
H1311 N1304 0.984 . S
H1312 N1300 0.984 . S
H1313 N1300 0.985 . S
C1314 C1315 1.363 . S
C1314 C1320 1.379 . S
C1314 N1322 1.356 . S
C1315 C1314 1.363 . S
C1315 C1321 1.363 . S
C1316 C1317 1.363 . S
C1316 C1321 1.379 . S
C1316 N1323 1.356 . S
C1317 C1316 1.363 . S
C1317 C1320 1.363 . S
N1318 C1320 1.356 . S
N1318 H1330 0.984 . S
N1318 H1331 0.985 . S
N1319 C1321 1.356 . S
N1319 H1324 0.984 . S
N1319 H1325 0.985 . S
C1320 C1314 1.379 . S
C1320 C1317 1.363 . S
C1320 N1318 1.356 . S
C1321 C1315 1.363 . S
C1321 C1316 1.379 . S
C1321 N1319 1.356 . S
N1322 C1314 1.356 . S
N1322 H1328 0.984 . S
N1322 H1329 0.984 . S
N1323 C1316 1.356 . S
N1323 H1326 0.984 . S
N1323 H1327 0.985 . S
H1324 N1319 0.984 . S
H1325 N1319 0.985 . S
H1326 N1323 0.984 . S
H1327 N1323 0.985 . S
H1328 N1322 0.984 . S
H1329 N1322 0.984 . S
H1330 N1318 0.984 . S
H1331 N1318 0.985 . S
C1332 C1333 1.363 . S
C1332 C1338 1.379 . S
C1332 N1340 1.356 . S
C1333 C1332 1.363 . S
C1333 C1339 1.363 . S
C1334 C1335 1.363 . S
C1334 C1339 1.379 . S
C1334 N1341 1.356 . S
C1335 C1334 1.363 . S
C1335 C1338 1.363 . S
N1336 C1338 1.356 . S
N1336 H1348 0.984 . S
N1336 H1349 0.985 . S
N1337 C1339 1.356 . S
N1337 H1342 0.984 . S
N1337 H1343 0.985 . S
C1338 C1332 1.379 . S
C1338 C1335 1.363 . S
C1338 N1336 1.356 . S
C1339 C1333 1.363 . S
C1339 C1334 1.379 . S
C1339 N1337 1.356 . S
N1340 C1332 1.356 . S
N1340 H1346 0.984 . S
N1340 H1347 0.984 . S
N1341 C1334 1.356 . S
N1341 H1344 0.984 . S
N1341 H1345 0.985 . S
H1342 N1337 0.984 . S
H1343 N1337 0.985 . S
H1344 N1341 0.984 . S
H1345 N1341 0.985 . S
H1346 N1340 0.984 . S
H1347 N1340 0.984 . S
H1348 N1336 0.984 . S
H1349 N1336 0.985 . S
C1350 C1351 1.363 . S
C1350 C1356 1.379 . S
C1350 N1358 1.356 . S
C1351 C1350 1.363 . S
C1351 C1357 1.363 . S
C1352 C1353 1.363 . S
C1352 C1357 1.379 . S
C1352 N1359 1.356 . S
C1353 C1352 1.363 . S
C1353 C1356 1.363 . S
N1354 C1356 1.356 . S
N1354 H1366 0.984 . S
N1354 H1367 0.985 . S
N1355 C1357 1.356 . S
N1355 H1360 0.984 . S
N1355 H1361 0.985 . S
C1356 C1350 1.379 . S
C1356 C1353 1.363 . S
C1356 N1354 1.356 . S
C1357 C1351 1.363 . S
C1357 C1352 1.379 . S
C1357 N1355 1.356 . S
N1358 C1350 1.356 . S
N1358 H1364 0.984 1_556 S
N1358 H1365 0.984 . S
N1359 C1352 1.356 . S
N1359 H1362 0.984 . S
N1359 H1363 0.985 . S
H1360 N1355 0.984 . S
H1361 N1355 0.985 . S
H1362 N1359 0.984 . S
H1363 N1359 0.985 . S
H1364 N1358 0.984 1_554 S
H1365 N1358 0.984 . S
H1366 N1354 0.984 . S
H1367 N1354 0.985 . S
C1368 C1369 1.363 . S
C1368 C1374 1.379 . S
C1368 N1376 1.356 . S
C1369 C1368 1.363 . S
C1369 C1375 1.363 . S
C1370 C1371 1.363 . S
C1370 C1375 1.379 . S
C1370 N1377 1.356 . S
C1371 C1370 1.363 . S
C1371 C1374 1.363 . S
N1372 C1374 1.356 . S
N1372 H1384 0.984 1_554 S
N1372 H1385 0.985 . S
N1373 C1375 1.356 . S
N1373 H1378 0.984 . S
N1373 H1379 0.985 . S
C1374 C1368 1.379 . S
C1374 C1371 1.363 . S
C1374 N1372 1.356 . S
C1375 C1369 1.363 . S
C1375 C1370 1.379 . S
C1375 N1373 1.356 . S
N1376 C1368 1.356 . S
N1376 H1382 0.984 . S
N1376 H1383 0.984 . S
N1377 C1370 1.356 . S
N1377 H1380 0.984 . S
N1377 H1381 0.985 . S
H1378 N1373 0.984 . S
H1379 N1373 0.985 . S
H1380 N1377 0.984 . S
H1381 N1377 0.985 . S
H1382 N1376 0.984 . S
H1383 N1376 0.984 . S
H1384 N1372 0.984 1_556 S
H1385 N1372 0.985 . S
C1386 C1387 1.363 . S
C1386 C1392 1.379 . S
C1386 N1394 1.356 . S
C1387 C1386 1.363 . S
C1387 C1393 1.363 . S
C1388 C1389 1.363 . S
C1388 C1393 1.379 . S
C1388 N1395 1.356 . S
C1389 C1388 1.363 . S
C1389 C1392 1.363 . S
N1390 C1392 1.356 . S
N1390 H1402 0.984 . S
N1390 H1403 0.985 . S
N1391 C1393 1.356 . S
N1391 H1396 0.984 . S
N1391 H1397 0.985 . S
C1392 C1386 1.379 . S
C1392 C1389 1.363 . S
C1392 N1390 1.356 . S
C1393 C1387 1.363 . S
C1393 C1388 1.379 . S
C1393 N1391 1.356 . S
N1394 C1386 1.356 . S
N1394 H1400 0.984 . S
N1394 H1401 0.984 . S
N1395 C1388 1.356 . S
N1395 H1398 0.984 . S
N1395 H1399 0.985 . S
H1396 N1391 0.984 . S
H1397 N1391 0.985 . S
H1398 N1395 0.984 . S
H1399 N1395 0.985 . S
H1400 N1394 0.984 . S
H1401 N1394 0.984 . S
H1402 N1390 0.984 . S
H1403 N1390 0.985 . S
C1404 C1405 1.363 . S
C1404 C1410 1.379 . S
C1404 N1412 1.356 . S
C1405 C1404 1.363 . S
C1405 C1411 1.363 . S
C1406 C1407 1.363 . S
C1406 C1411 1.379 . S
C1406 N1413 1.356 . S
C1407 C1406 1.363 . S
C1407 C1410 1.363 . S
N1408 C1410 1.356 . S
N1408 H1420 0.984 . S
N1408 H1421 0.985 . S
N1409 C1411 1.356 . S
N1409 H1414 0.984 . S
N1409 H1415 0.985 . S
C1410 C1404 1.379 . S
C1410 C1407 1.363 . S
C1410 N1408 1.356 . S
C1411 C1405 1.363 . S
C1411 C1406 1.379 . S
C1411 N1409 1.356 . S
N1412 C1404 1.356 . S
N1412 H1418 0.984 . S
N1412 H1419 0.984 . S
N1413 C1406 1.356 . S
N1413 H1416 0.984 . S
N1413 H1417 0.985 . S
H1414 N1409 0.984 . S
H1415 N1409 0.985 . S
H1416 N1413 0.984 . S
H1417 N1413 0.985 . S
H1418 N1412 0.984 . S
H1419 N1412 0.984 . S
H1420 N1408 0.984 . S
H1421 N1408 0.985 . S
C1422 C1423 1.363 . S
C1422 C1428 1.379 . S
C1422 N1430 1.356 . S
C1423 C1422 1.363 . S
C1423 C1429 1.363 . S
C1424 C1425 1.363 . S
C1424 C1429 1.379 . S
C1424 N1431 1.356 . S
C1425 C1424 1.363 . S
C1425 C1428 1.363 . S
N1426 C1428 1.356 . S
N1426 H1438 0.984 . S
N1426 H1439 0.985 . S
N1427 C1429 1.356 . S
N1427 H1432 0.984 . S
N1427 H1433 0.985 . S
C1428 C1422 1.379 . S
C1428 C1425 1.363 . S
C1428 N1426 1.356 . S
C1429 C1423 1.363 . S
C1429 C1424 1.379 . S
C1429 N1427 1.356 . S
N1430 C1422 1.356 . S
N1430 H1436 0.984 . S
N1430 H1437 0.984 . S
N1431 C1424 1.356 . S
N1431 H1434 0.984 . S
N1431 H1435 0.985 . S
H1432 N1427 0.984 . S
H1433 N1427 0.985 . S
H1434 N1431 0.984 . S
H1435 N1431 0.985 . S
H1436 N1430 0.984 . S
H1437 N1430 0.984 . S
H1438 N1426 0.984 . S
H1439 N1426 0.985 . S
C1440 C1441 1.363 . S
C1440 C1446 1.379 . S
C1440 N1448 1.356 . S
C1441 C1440 1.363 . S
C1441 C1447 1.363 . S
C1442 C1443 1.363 . S
C1442 C1447 1.379 . S
C1442 N1449 1.356 . S
C1443 C1442 1.363 . S
C1443 C1446 1.363 . S
N1444 C1446 1.356 . S
N1444 H1456 0.984 . S
N1444 H1457 0.985 . S
N1445 C1447 1.356 . S
N1445 H1450 0.984 . S
N1445 H1451 0.985 . S
C1446 C1440 1.379 . S
C1446 C1443 1.363 . S
C1446 N1444 1.356 . S
C1447 C1441 1.363 . S
C1447 C1442 1.379 . S
C1447 N1445 1.356 . S
N1448 C1440 1.356 . S
N1448 H1454 0.984 . S
N1448 H1455 0.984 . S
N1449 C1442 1.356 . S
N1449 H1452 0.984 . S
N1449 H1453 0.985 . S
H1450 N1445 0.984 . S
H1451 N1445 0.985 . S
H1452 N1449 0.984 . S
H1453 N1449 0.985 . S
H1454 N1448 0.984 . S
H1455 N1448 0.984 . S
H1456 N1444 0.984 . S
H1457 N1444 0.985 . S
C1458 C1459 1.363 . S
C1458 C1464 1.379 . S
C1458 N1466 1.356 . S
C1459 C1458 1.363 . S
C1459 C1465 1.363 . S
C1460 C1461 1.363 . S
C1460 C1465 1.379 . S
C1460 N1467 1.356 . S
C1461 C1460 1.363 . S
C1461 C1464 1.363 . S
N1462 C1464 1.356 . S
N1462 H1474 0.984 . S
N1462 H1475 0.985 . S
N1463 C1465 1.356 . S
N1463 H1468 0.984 . S
N1463 H1469 0.985 . S
C1464 C1458 1.379 . S
C1464 C1461 1.363 . S
C1464 N1462 1.356 . S
C1465 C1459 1.363 . S
C1465 C1460 1.379 . S
C1465 N1463 1.356 . S
N1466 C1458 1.356 . S
N1466 H1472 0.984 . S
N1466 H1473 0.984 . S
N1467 C1460 1.356 . S
N1467 H1470 0.984 . S
N1467 H1471 0.985 . S
H1468 N1463 0.984 . S
H1469 N1463 0.985 . S
H1470 N1467 0.984 . S
H1471 N1467 0.985 . S
H1472 N1466 0.984 . S
H1473 N1466 0.984 . S
H1474 N1462 0.984 . S
H1475 N1462 0.985 . S
C1476 C1477 1.363 . S
C1476 C1482 1.379 . S
C1476 N1484 1.356 . S
C1477 C1476 1.363 . S
C1477 C1483 1.363 . S
C1478 C1479 1.363 . S
C1478 C1483 1.379 . S
C1478 N1485 1.356 . S
C1479 C1478 1.363 . S
C1479 C1482 1.363 . S
N1480 C1482 1.356 . S
N1480 H1492 0.984 . S
N1480 H1493 0.985 . S
N1481 C1483 1.356 . S
N1481 H1486 0.984 . S
N1481 H1487 0.985 . S
C1482 C1476 1.379 . S
C1482 C1479 1.363 . S
C1482 N1480 1.356 . S
C1483 C1477 1.363 . S
C1483 C1478 1.379 . S
C1483 N1481 1.356 . S
N1484 C1476 1.356 . S
N1484 H1490 0.984 . S
N1484 H1491 0.984 . S
N1485 C1478 1.356 . S
N1485 H1488 0.984 . S
N1485 H1489 0.985 . S
H1486 N1481 0.984 . S
H1487 N1481 0.985 . S
H1488 N1485 0.984 . S
H1489 N1485 0.985 . S
H1490 N1484 0.984 . S
H1491 N1484 0.984 . S
H1492 N1480 0.984 . S
H1493 N1480 0.985 . S
C1494 C1495 1.363 . S
C1494 C1500 1.379 . S
C1494 N1502 1.356 . S
C1495 C1494 1.363 . S
C1495 C1501 1.363 . S
C1496 C1497 1.363 . S
C1496 C1501 1.379 . S
C1496 N1503 1.356 . S
C1497 C1496 1.363 . S
C1497 C1500 1.363 . S
N1498 C1500 1.356 . S
N1498 H1510 0.984 . S
N1498 H1511 0.985 . S
N1499 C1501 1.356 . S
N1499 H1504 0.984 . S
N1499 H1505 0.985 . S
C1500 C1494 1.379 . S
C1500 C1497 1.363 . S
C1500 N1498 1.356 . S
C1501 C1495 1.363 . S
C1501 C1496 1.379 . S
C1501 N1499 1.356 . S
N1502 C1494 1.356 . S
N1502 H1508 0.984 . S
N1502 H1509 0.984 . S
N1503 C1496 1.356 . S
N1503 H1506 0.984 . S
N1503 H1507 0.985 . S
H1504 N1499 0.984 . S
H1505 N1499 0.985 . S
H1506 N1503 0.984 . S
H1507 N1503 0.985 . S
H1508 N1502 0.984 . S
H1509 N1502 0.984 . S
H1510 N1498 0.984 . S
H1511 N1498 0.985 . S
C1512 C1513 1.363 . S
C1512 C1518 1.379 . S
C1512 N1520 1.356 . S
C1513 C1512 1.363 . S
C1513 C1519 1.363 . S
C1514 C1515 1.363 . S
C1514 C1519 1.379 . S
C1514 N1521 1.356 . S
C1515 C1514 1.363 . S
C1515 C1518 1.363 . S
N1516 C1518 1.356 . S
N1516 H1528 0.984 . S
N1516 H1529 0.985 . S
N1517 C1519 1.356 . S
N1517 H1522 0.984 . S
N1517 H1523 0.985 . S
C1518 C1512 1.379 . S
C1518 C1515 1.363 . S
C1518 N1516 1.356 . S
C1519 C1513 1.363 . S
C1519 C1514 1.379 . S
C1519 N1517 1.356 . S
N1520 C1512 1.356 . S
N1520 H1526 0.984 . S
N1520 H1527 0.984 . S
N1521 C1514 1.356 . S
N1521 H1524 0.984 . S
N1521 H1525 0.985 . S
H1522 N1517 0.984 . S
H1523 N1517 0.985 . S
H1524 N1521 0.984 . S
H1525 N1521 0.985 . S
H1526 N1520 0.984 . S
H1527 N1520 0.984 . S
H1528 N1516 0.984 . S
H1529 N1516 0.985 . S
C1530 C1531 1.363 . S
C1530 C1536 1.379 . S
C1530 N1538 1.356 . S
C1531 C1530 1.363 . S
C1531 C1537 1.363 . S
C1532 C1533 1.363 . S
C1532 C1537 1.379 . S
C1532 N1539 1.356 . S
C1533 C1532 1.363 . S
C1533 C1536 1.363 . S
N1534 C1536 1.356 . S
N1534 H1546 0.984 . S
N1534 H1547 0.985 . S
N1535 C1537 1.356 . S
N1535 H1540 0.984 . S
N1535 H1541 0.985 . S
C1536 C1530 1.379 . S
C1536 C1533 1.363 . S
C1536 N1534 1.356 . S
C1537 C1531 1.363 . S
C1537 C1532 1.379 . S
C1537 N1535 1.356 . S
N1538 C1530 1.356 . S
N1538 H1544 0.984 . S
N1538 H1545 0.984 . S
N1539 C1532 1.356 . S
N1539 H1542 0.984 . S
N1539 H1543 0.985 . S
H1540 N1535 0.984 . S
H1541 N1535 0.985 . S
H1542 N1539 0.984 . S
H1543 N1539 0.985 . S
H1544 N1538 0.984 . S
H1545 N1538 0.984 . S
H1546 N1534 0.984 . S
H1547 N1534 0.985 . S
C1548 C1549 1.363 . S
C1548 C1554 1.379 . S
C1548 N1556 1.356 . S
C1549 C1548 1.363 . S
C1549 C1555 1.363 . S
C1550 C1551 1.363 . S
C1550 C1555 1.379 . S
C1550 N1557 1.356 . S
C1551 C1550 1.363 . S
C1551 C1554 1.363 . S
N1552 C1554 1.356 . S
N1552 H1564 0.984 . S
N1552 H1565 0.985 . S
N1553 C1555 1.356 . S
N1553 H1558 0.984 . S
N1553 H1559 0.985 . S
C1554 C1548 1.379 . S
C1554 C1551 1.363 . S
C1554 N1552 1.356 . S
C1555 C1549 1.363 . S
C1555 C1550 1.379 . S
C1555 N1553 1.356 . S
N1556 C1548 1.356 . S
N1556 H1562 0.984 . S
N1556 H1563 0.984 . S
N1557 C1550 1.356 . S
N1557 H1560 0.984 . S
N1557 H1561 0.985 . S
H1558 N1553 0.984 . S
H1559 N1553 0.985 . S
H1560 N1557 0.984 . S
H1561 N1557 0.985 . S
H1562 N1556 0.984 . S
H1563 N1556 0.984 . S
H1564 N1552 0.984 . S
H1565 N1552 0.985 . S
C1566 C1567 1.363 . S
C1566 C1572 1.379 . S
C1566 N1574 1.356 . S
C1567 C1566 1.363 . S
C1567 C1573 1.363 . S
C1568 C1569 1.363 . S
C1568 C1573 1.379 . S
C1568 N1575 1.356 . S
C1569 C1568 1.363 . S
C1569 C1572 1.363 . S
N1570 C1572 1.356 . S
N1570 H1582 0.984 . S
N1570 H1583 0.985 . S
N1571 C1573 1.356 . S
N1571 H1576 0.984 . S
N1571 H1577 0.985 . S
C1572 C1566 1.379 . S
C1572 C1569 1.363 . S
C1572 N1570 1.356 . S
C1573 C1567 1.363 . S
C1573 C1568 1.379 . S
C1573 N1571 1.356 . S
N1574 C1566 1.356 . S
N1574 H1580 0.984 . S
N1574 H1581 0.984 . S
N1575 C1568 1.356 . S
N1575 H1578 0.984 . S
N1575 H1579 0.985 1_545 S
H1576 N1571 0.984 . S
H1577 N1571 0.985 . S
H1578 N1575 0.984 . S
H1579 N1575 0.985 1_565 S
H1580 N1574 0.984 . S
H1581 N1574 0.984 . S
H1582 N1570 0.984 . S
H1583 N1570 0.985 . S
C1584 C1585 1.363 . S
C1584 C1590 1.379 . S
C1584 N1592 1.356 . S
C1585 C1584 1.363 . S
C1585 C1591 1.363 . S
C1586 C1587 1.363 . S
C1586 C1591 1.379 . S
C1586 N1593 1.356 . S
C1587 C1586 1.363 . S
C1587 C1590 1.363 . S
N1588 C1590 1.356 . S
N1588 H1600 0.984 . S
N1588 H1601 0.985 . S
N1589 C1591 1.356 . S
N1589 H1594 0.984 . S
N1589 H1595 0.985 . S
C1590 C1584 1.379 . S
C1590 C1587 1.363 . S
C1590 N1588 1.356 . S
C1591 C1585 1.363 . S
C1591 C1586 1.379 . S
C1591 N1589 1.356 . S
N1592 C1584 1.356 . S
N1592 H1598 0.984 . S
N1592 H1599 0.984 . S
N1593 C1586 1.356 . S
N1593 H1596 0.984 . S
N1593 H1597 0.985 . S
H1594 N1589 0.984 . S
H1595 N1589 0.985 . S
H1596 N1593 0.984 . S
H1597 N1593 0.985 . S
H1598 N1592 0.984 . S
H1599 N1592 0.984 . S
H1600 N1588 0.984 . S
H1601 N1588 0.985 . S
C1602 C1603 1.363 . S
C1602 C1608 1.379 . S
C1602 N1610 1.356 . S
C1603 C1602 1.363 . S
C1603 C1609 1.363 . S
C1604 C1605 1.363 . S
C1604 C1609 1.379 . S
C1604 N1611 1.356 . S
C1605 C1604 1.363 . S
C1605 C1608 1.363 . S
N1606 C1608 1.356 . S
N1606 H1618 0.984 . S
N1606 H1619 0.985 . S
N1607 C1609 1.356 . S
N1607 H1612 0.984 . S
N1607 H1613 0.985 . S
C1608 C1602 1.379 . S
C1608 C1605 1.363 . S
C1608 N1606 1.356 . S
C1609 C1603 1.363 . S
C1609 C1604 1.379 . S
C1609 N1607 1.356 . S
N1610 C1602 1.356 . S
N1610 H1616 0.984 . S
N1610 H1617 0.984 . S
N1611 C1604 1.356 . S
N1611 H1614 0.984 . S
N1611 H1615 0.985 . S
H1612 N1607 0.984 . S
H1613 N1607 0.985 . S
H1614 N1611 0.984 . S
H1615 N1611 0.985 . S
H1616 N1610 0.984 . S
H1617 N1610 0.984 . S
H1618 N1606 0.984 . S
H1619 N1606 0.985 . S
C1620 C1621 1.363 . S
C1620 C1626 1.379 . S
C1620 N1628 1.356 . S
C1621 C1620 1.363 . S
C1621 C1627 1.363 . S
C1622 C1623 1.363 . S
C1622 C1627 1.379 . S
C1622 N1629 1.356 . S
C1623 C1622 1.363 . S
C1623 C1626 1.363 . S
N1624 C1626 1.356 . S
N1624 H1636 0.984 . S
N1624 H1637 0.985 . S
N1625 C1627 1.356 . S
N1625 H1630 0.984 . S
N1625 H1631 0.985 . S
C1626 C1620 1.379 . S
C1626 C1623 1.363 . S
C1626 N1624 1.356 . S
C1627 C1621 1.363 . S
C1627 C1622 1.379 . S
C1627 N1625 1.356 . S
N1628 C1620 1.356 . S
N1628 H1634 0.984 . S
N1628 H1635 0.984 . S
N1629 C1622 1.356 . S
N1629 H1632 0.984 . S
N1629 H1633 0.987 . S
H1630 N1625 0.984 . S
H1631 N1625 0.985 . S
H1632 N1629 0.984 . S
H1633 N1629 0.987 . S
H1634 N1628 0.984 . S
H1635 N1628 0.984 . S
H1636 N1624 0.984 . S
H1637 N1624 0.985 . S
C1638 C1639 1.363 . S
C1638 C1644 1.379 . S
C1638 N1646 1.356 . S
C1639 C1638 1.363 . S
C1639 C1645 1.363 . S
C1640 C1641 1.363 . S
C1640 C1645 1.379 . S
C1640 N1647 1.356 . S
C1641 C1640 1.363 . S
C1641 C1644 1.363 . S
N1642 C1644 1.356 . S
N1642 H1654 0.984 . S
N1642 H1655 0.985 . S
N1643 C1645 1.356 . S
N1643 H1648 0.984 . S
N1643 H1649 0.985 . S
C1644 C1638 1.379 . S
C1644 C1641 1.363 . S
C1644 N1642 1.356 . S
C1645 C1639 1.363 . S
C1645 C1640 1.379 . S
C1645 N1643 1.356 . S
N1646 C1638 1.356 . S
N1646 H1652 0.984 . S
N1646 H1653 0.984 . S
N1647 C1640 1.356 . S
N1647 H1650 0.984 . S
N1647 H1651 0.985 . S
H1648 N1643 0.984 . S
H1649 N1643 0.985 . S
H1650 N1647 0.984 . S
H1651 N1647 0.985 . S
H1652 N1646 0.984 . S
H1653 N1646 0.984 . S
H1654 N1642 0.984 . S
H1655 N1642 0.985 . S
C1656 C1657 1.363 . S
C1656 C1662 1.379 . S
C1656 N1664 1.356 . S
C1657 C1656 1.363 . S
C1657 C1663 1.363 . S
C1658 C1659 1.363 . S
C1658 C1663 1.379 . S
C1658 N1665 1.356 . S
C1659 C1658 1.363 . S
C1659 C1662 1.363 . S
N1660 C1662 1.356 . S
N1660 H1672 0.984 . S
N1660 H1673 0.985 . S
N1661 C1663 1.356 . S
N1661 H1666 0.984 . S
N1661 H1667 0.985 . S
C1662 C1656 1.379 . S
C1662 C1659 1.363 . S
C1662 N1660 1.356 . S
C1663 C1657 1.363 . S
C1663 C1658 1.379 . S
C1663 N1661 1.356 . S
N1664 C1656 1.356 . S
N1664 H1670 0.984 . S
N1664 H1671 0.984 . S
N1665 C1658 1.356 . S
N1665 H1668 0.984 . S
N1665 H1669 0.985 . S
H1666 N1661 0.984 . S
H1667 N1661 0.985 . S
H1668 N1665 0.984 . S
H1669 N1665 0.985 . S
H1670 N1664 0.984 . S
H1671 N1664 0.984 . S
H1672 N1660 0.984 . S
H1673 N1660 0.985 . S
C1674 C1675 1.363 . S
C1674 C1680 1.379 . S
C1674 N1682 1.356 . S
C1675 C1674 1.363 . S
C1675 C1681 1.363 . S
C1676 C1677 1.363 . S
C1676 C1681 1.379 . S
C1676 N1683 1.356 . S
C1677 C1676 1.363 . S
C1677 C1680 1.363 . S
N1678 C1680 1.356 . S
N1678 H1690 0.984 . S
N1678 H1691 0.985 . S
N1679 C1681 1.356 . S
N1679 H1684 0.984 . S
N1679 H1685 0.985 . S
C1680 C1674 1.379 . S
C1680 C1677 1.363 . S
C1680 N1678 1.356 . S
C1681 C1675 1.363 . S
C1681 C1676 1.379 . S
C1681 N1679 1.356 . S
N1682 C1674 1.356 . S
N1682 H1688 0.984 . S
N1682 H1689 0.984 . S
N1683 C1676 1.356 . S
N1683 H1686 0.984 . S
N1683 H1687 0.985 . S
H1684 N1679 0.984 . S
H1685 N1679 0.985 . S
H1686 N1683 0.984 . S
H1687 N1683 0.985 . S
H1688 N1682 0.984 . S
H1689 N1682 0.984 . S
H1690 N1678 0.984 . S
H1691 N1678 0.985 . S
C1692 C1693 1.363 . S
C1692 C1698 1.379 . S
C1692 N1700 1.356 . S
C1693 C1692 1.363 . S
C1693 C1699 1.363 . S
C1694 C1695 1.363 . S
C1694 C1699 1.379 . S
C1694 N1701 1.356 . S
C1695 C1694 1.363 . S
C1695 C1698 1.363 . S
N1696 C1698 1.356 . S
N1696 H1708 0.984 . S
N1696 H1709 0.985 . S
N1697 C1699 1.356 . S
N1697 H1702 0.984 . S
N1697 H1703 0.985 . S
C1698 C1692 1.379 . S
C1698 C1695 1.363 . S
C1698 N1696 1.356 . S
C1699 C1693 1.363 . S
C1699 C1694 1.379 . S
C1699 N1697 1.356 . S
N1700 C1692 1.356 . S
N1700 H1706 0.984 . S
N1700 H1707 0.984 . S
N1701 C1694 1.356 . S
N1701 H1704 0.984 . S
N1701 H1705 0.985 . S
H1702 N1697 0.984 . S
H1703 N1697 0.985 . S
H1704 N1701 0.984 . S
H1705 N1701 0.985 . S
H1706 N1700 0.984 . S
H1707 N1700 0.984 . S
H1708 N1696 0.984 . S
H1709 N1696 0.985 . S
C1710 C1711 1.363 . S
C1710 C1716 1.379 . S
C1710 N1718 1.356 . S
C1711 C1710 1.363 . S
C1711 C1717 1.363 . S
C1712 C1713 1.363 . S
C1712 C1717 1.379 . S
C1712 N1719 1.356 . S
C1713 C1712 1.363 . S
C1713 C1716 1.363 . S
N1714 C1716 1.356 . S
N1714 H1726 0.984 . S
N1714 H1727 0.985 . S
N1715 C1717 1.356 . S
N1715 H1720 0.984 . S
N1715 H1721 0.985 . S
C1716 C1710 1.379 . S
C1716 C1713 1.363 . S
C1716 N1714 1.356 . S
C1717 C1711 1.363 . S
C1717 C1712 1.379 . S
C1717 N1715 1.356 . S
N1718 C1710 1.356 . S
N1718 H1724 0.984 . S
N1718 H1725 0.984 . S
N1719 C1712 1.356 . S
N1719 H1722 0.984 . S
N1719 H1723 0.985 . S
H1720 N1715 0.984 . S
H1721 N1715 0.985 . S
H1722 N1719 0.984 . S
H1723 N1719 0.985 . S
H1724 N1718 0.984 . S
H1725 N1718 0.984 . S
H1726 N1714 0.984 . S
H1727 N1714 0.985 . S
C867 C689 1.747 . S
C865 C56 1.712 . S
C885 C694 1.206 . S
C883 C154 1.144 . S
C903 C695 1.700 . S
C901 C236 1.660 . S
C919 C310 0.956 . S
C921 C699 0.871 . S
C937 C394 1.143 . S
C939 C702 1.205 . S
C957 C703 1.700 . S
C955 C476 1.659 . S
C973 C574 0.957 . S
C975 C680 0.871 . S
C991 C656 1.712 . S
C993 C696 1.748 . S
C1011 C734 2.376 . S
C1009 C67 2.482 . S
C1027 C139 1.641 . S
C1029 C760 1.615 . S
C1047 C712 1.199 . S
C1045 C238 1.183 . S
C1065 C767 1.640 . S
C1063 C308 1.613 . S
C1081 C392 1.646 . S
C1083 C721 1.640 . S
C1101 C763 2.373 . S
C1099 C487 2.472 . S
C1117 C559 1.664 . S
C1119 C727 1.639 . S
C1135 C658 1.183 . S
C1137 C758 1.206 . S
C1153 C58 1.183 . S
C1155 C766 1.203 . S
C1171 C403 1.641 . S
C1173 C753 1.616 . S
C1191 C731 1.199 . S
C1189 C478 1.185 . S
C1209 C759 1.640 . S
C1207 C572 1.616 . S
C1225 C643 2.483 . S
C1227 C726 2.377 . S
C1243 C223 2.472 . S
C1245 C744 2.373 . S
C1263 C735 1.638 . S
C1261 C319 1.663 . S
C1279 C152 1.646 . S
C1281 C728 1.638 . S
C1297 C644 1.686 . S
C1299 C790 1.654 . S
C1315 C406 1.122 . S
C1317 C785 1.180 . S
C1335 C799 1.568 . S
C1333 C488 1.639 . S
C1353 C776 0.593 . S
C1351 C562 0.963 . S
C1369 C142 1.122 . S
C1371 C792 1.179 . S
C1389 C791 1.568 . S
C1387 C224 1.637 . S
C1405 C322 0.961 . S
C1407 C795 0.592 . S
C1423 C68 1.686 . S
C1425 C798 1.652 . S
C1441 C655 2.492 . S
C1443 C824 2.460 . S
C1461 C840 1.543 . S
C1459 C391 1.641 . S
C1477 C490 1.191 . S
C1479 C822 1.252 . S
C1495 C560 1.621 . S
C1497 C855 1.633 . S
C1515 C831 1.603 . S
C1513 C140 1.630 . S
C1531 C235 2.499 . S
C1533 C849 2.425 . S
C1551 C827 1.539 . S
C1549 C307 1.643 . S
C1569 C862 1.225 . S
C1567 C70 1.198 . S
C1587 C854 1.225 . S
C1585 C646 1.198 . S
C1603 C151 1.641 . S
C1605 C859 1.543 . S
C1621 C226 1.191 . S
C1623 C830 1.253 . S
C1641 C863 1.633 . S
C1639 C320 1.620 . S
C1657 C55 2.492 . S
C1659 C817 2.459 . S
C1675 C475 2.499 . S
C1677 C856 2.424 . S
C1695 C808 1.539 . S
C1693 C571 1.643 . S
C1713 C823 1.603 . S
C1711 C404 1.629 . S
