# Generated by pormake.
# Topology scu, (8,4)-cn, num edge types: 1
# Building blocks:
#     Node 0, Type 0, BuildingBlock: GIZVER_clean_sbu_0, # of connection points: 8
#     Node 1, Type 1, BuildingBlock: KOZSID_clean_sbu_0, # of connection points: 4
#     Node 2, Type 1, BuildingBlock: KOZSID_clean_sbu_0, # of connection points: 4
#     Edge 3, Type (0, 1), BuildingBlock: FUNLAD_clean_linker_0, # of connection points: 2
#     Edge 4, Type (0, 1), BuildingBlock: FUNLAD_clean_linker_0, # of connection points: 2
#     Edge 5, Type (0, 1), BuildingBlock: FUNLAD_clean_linker_0, # of connection points: 2
#     Edge 6, Type (0, 1), BuildingBlock: FUNLAD_clean_linker_0, # of connection points: 2
#     Edge 7, Type (0, 1), BuildingBlock: FUNLAD_clean_linker_0, # of connection points: 2
#     Edge 8, Type (0, 1), BuildingBlock: FUNLAD_clean_linker_0, # of connection points: 2
#     Edge 9, Type (0, 1), BuildingBlock: FUNLAD_clean_linker_0, # of connection points: 2
#     Edge 10, Type (0, 1), BuildingBlock: FUNLAD_clean_linker_0, # of connection points: 2
# Relax obj value: 0.045
# Max RMSD: 0.113
# Mean RMSD: 0.103
data_MOF--net-scu--node1-GIZVER_clean_sbu_0--node2-KOZSID_clean_sbu_0--edge1-FUNLAD_clean_linker_0
_symmetry_space_group_name_H-M    P1
_symmetry_Int_Tables_number       1
_symmetry_cell_setting            triclinic
loop_
_symmetry_equiv_pos_as_xyz
'x, y, z'
_cell_length_a     30.268184
_cell_length_b     30.89495
_cell_length_c     27.274147
_cell_angle_alpha  94.874884
_cell_angle_beta   80.126944
_cell_angle_gamma 112.06074
loop_
_atom_site_label
_atom_site_type_symbol
_atom_site_fract_x
_atom_site_fract_y
_atom_site_fract_z
_atom_type_partial_charge
Co0 Co 0.01338 0.95181 0.11806 0.0
Co1 Co 0.09215 0.01475 0.07545 0.0
Co2 Co 0.0075 1.00961 0.01789 0.0
O3 O 0.03752 0.97454 0.05117 0.0
H4 H 0.04566 0.95168 0.02899 0.0
O5 O 0.97738 0.04434 0.98451 0.0
Co6 Co 0.99939 0.06558 0.91701 0.0
Co7 Co 0.9232 1.00288 0.96117 0.0
H8 H 0.96906 0.06721 1.0066 0.0
O9 O 0.13946 0.99344 0.08374 0.0
O10 O 0.0752 0.99352 0.1399 0.0
O11 O 0.10275 0.08017 0.07996 0.0
O12 O 0.03131 0.06945 0.05929 0.0
O13 O 0.0668 0.03088 0.96695 0.0
O14 O 0.01848 0.08932 0.85652 0.0
O15 O 0.97832 0.11455 0.92254 0.0
O16 O 0.0279 0.01909 0.90194 0.0
O17 O 0.9842 0.94977 0.97659 0.0
O18 O 0.91193 0.9373 0.95771 0.0
O19 O 0.93576 0.02338 0.89678 0.0
O20 O 0.87432 0.02191 0.95832 0.0
C21 C 0.01275 0.89751 0.1585 0.0
C22 C 0.94889 0.99551 0.11534 0.0
C23 C 0.06914 0.09473 0.07794 0.0
C24 C 0.11559 0.98631 0.12855 0.0
C25 C 0.99892 0.11902 0.87596 0.0
C26 C 0.06537 0.0228 0.92035 0.0
C27 C 0.94622 0.92359 0.95892 0.0
C28 C 0.89415 0.02801 0.91193 0.0
O29 O 0.99278 0.92688 0.17799 0.0
O30 O 0.03421 0.90268 0.11223 0.0
O31 O 0.9478 0.98849 0.06862 0.0
O32 O 0.98606 0.99849 0.13352 0.0
C33 C 0.06073 0.59148 0.44613 0.0
C34 C 0.10662 0.62287 0.42914 0.0
C35 C 0.13795 0.61223 0.45182 0.0
C36 C 0.10961 0.57531 0.4815 0.0
N37 N 0.06196 0.56155 0.47922 0.0
Co38 Co 0.00823 0.51005 0.51799 0.0
N39 N 0.05464 0.49376 0.55047 0.0
C40 C 0.1033 0.51424 0.54259 0.0
C41 C 0.1258 0.49574 0.56977 0.0
C42 C 0.08941 0.46121 0.59659 0.0
C43 C 0.04656 0.46052 0.58411 0.0
N44 N 0.95445 0.45922 0.55757 0.0
C45 C 0.95562 0.42989 0.59138 0.0
C46 C 0.90957 0.39996 0.61017 0.0
C47 C 0.8782 0.41092 0.58787 0.0
C48 C 0.90667 0.44667 0.55675 0.0
N49 N 0.96189 0.5257 0.48474 0.0
C50 C 0.91336 0.50392 0.49106 0.0
C51 C 0.89098 0.52127 0.46252 0.0
C52 C 0.92732 0.55624 0.43623 0.0
C53 C 0.97 0.55844 0.45051 0.0
N54 N 0.01262 0.46446 0.46286 0.0
C55 C 0.01904 0.40009 0.38414 0.0
C56 C 0.97434 0.39885 0.40961 0.0
C57 C 0.97199 0.43105 0.44833 0.0
C58 C 0.06045 0.43423 0.39901 0.0
C59 C 0.05647 0.4656 0.43808 0.0
N60 N 1.00386 0.55569 0.57306 0.0
C61 C 0.95673 0.59144 0.63116 0.0
C62 C 0.99787 0.62146 0.65026 0.0
C63 C 0.04199 0.61755 0.63023 0.0
C64 C 0.04414 0.58481 0.5921 0.0
C65 C 0.96049 0.55916 0.59298 0.0
H66 H 0.07887 0.58377 0.57867 0.0
H67 H 0.9278 0.53757 0.58003 0.0
H68 H 0.93682 0.42807 0.46598 0.0
H69 H 0.08946 0.49056 0.44744 0.0
C70 C 0.12673 0.55197 0.51086 0.0
C71 C 0.01724 0.59197 0.43001 0.0
C72 C 0.99922 0.42824 0.6061 0.0
C73 C 0.88975 0.46806 0.52505 0.0
H74 H 0.11649 0.65067 0.40307 0.0
H75 H 0.17681 0.62929 0.4471 0.0
H76 H 0.1641 0.50647 0.57043 0.0
H77 H 0.09393 0.43932 0.62276 0.0
H78 H 0.89962 0.3727 0.63691 0.0
H79 H 0.83928 0.39444 0.59331 0.0
H80 H 0.85275 0.5099 0.4611 0.0
H81 H 0.92286 0.57764 0.40947 0.0
H82 H 0.94107 0.37271 0.40032 0.0
H83 H 0.09601 0.43728 0.38024 0.0
H84 H 0.92171 0.59329 0.6449 0.0
H85 H 0.07489 0.63938 0.64417 0.0
C86 C 0.41054 0.97454 0.58392 0.0
C87 C 0.37018 0.93384 0.58258 0.0
C88 C 0.38568 0.90067 0.55787 0.0
C89 C 0.4338 0.92372 0.54222 0.0
N90 N 0.44954 0.96972 0.55447 0.0
Co91 Co 0.50701 0.01888 0.51786 0.0
N92 N 0.53133 0.97099 0.48151 0.0
C93 C 0.51048 0.92415 0.48636 0.0
C94 C 0.53654 0.90008 0.45897 0.0
C95 C 0.57683 0.93361 0.43563 0.0
C96 C 0.57282 0.97636 0.45002 0.0
N97 N 0.56317 0.06802 0.47924 0.0
C98 C 0.60031 0.0642 0.44568 0.0
C99 C 0.6314 0.1074 0.4273 0.0
C100 C 0.61328 0.13961 0.45001 0.0
C101 C 0.57236 0.11438 0.48087 0.0
N102 N 0.48403 0.06682 0.55661 0.0
C103 C 0.50374 0.11361 0.55048 0.0
C104 C 0.47571 0.13685 0.57532 0.0
C105 C 0.43651 0.10311 0.59985 0.0
C106 C 0.44388 0.0612 0.59072 0.0
N107 N 0.54634 0.02207 0.56967 0.0
C108 C 0.61506 0.02486 0.6284 0.0
C109 C 0.61486 0.06589 0.61067 0.0
C110 C 0.58003 0.06378 0.58209 0.0
C111 C 0.57793 0.98272 0.61939 0.0
C112 C 0.5439 0.98214 0.5902 0.0
N113 N 0.46728 0.01541 0.46502 0.0
C114 C 0.42176 0.04901 0.42616 0.0
C115 C 0.39979 1.00693 0.40131 0.0
C116 C 0.4146 0.97002 0.40634 0.0
C117 C 0.44837 0.9751 0.4377 0.0
C118 C 0.45558 0.05265 0.45662 0.0
H119 H 0.45814 0.94564 0.43916 0.0
H120 H 0.47106 0.08609 0.47316 0.0
H121 H 0.58179 0.09614 0.56911 0.0
H122 H 0.51681 0.94897 0.58309 0.0
C123 C 0.46429 0.90397 0.51302 0.0
C124 C 0.41193 0.01671 0.61451 0.0
C125 C 0.60844 0.02085 0.43131 0.0
C126 C 0.5441 0.13346 0.51469 0.0
H127 H 0.33291 0.92873 0.59613 0.0
H128 H 0.36397 0.86471 0.55 0.0
H129 H 0.52691 0.86261 0.45552 0.0
H130 H 0.60552 0.92729 0.41018 0.0
H131 H 0.66423 0.11496 0.40083 0.0
H132 H 0.62879 0.17708 0.44555 0.0
H133 H 0.48167 0.17353 0.57351 0.0
H134 H 0.40554 0.10885 0.6212 0.0
H135 H 0.64189 0.09949 0.61827 0.0
H136 H 0.57623 0.95013 0.63303 0.0
H137 H 0.41213 0.07902 0.42344 0.0
H138 H 0.40021 0.9372 0.38628 0.0
C139 C 0.03018 0.15243 0.11168 0.0
C140 C 0.07062 0.13925 0.10457 0.0
C141 C 0.02902 0.19067 0.14272 0.0
C142 C 0.06833 0.21667 0.16763 0.0
C143 C 0.10959 0.20485 0.15838 0.0
C144 C 0.11073 0.16666 0.12745 0.0
C145 C 0.06795 0.25544 0.20431 0.0
C146 C 0.02795 0.2636 0.22542 0.0
C147 C 0.02793 0.30006 0.26501 0.0
C148 C 0.99097 0.31801 0.27153 0.0
C149 C 0.98838 0.35074 0.30961 0.0
C150 C 0.02242 0.36597 0.34274 0.0
H151 H 0.09016 0.30116 0.29557 0.0
C152 C 0.05934 0.3478 0.33633 0.0
C153 C 0.06208 0.31527 0.29805 0.0
H154 H 0.08558 0.35779 0.3617 0.0
H155 H 0.99868 0.13233 0.0945 0.0
H156 H 0.99698 0.1991 0.14721 0.0
H157 H 0.14069 0.22438 0.17642 0.0
H158 H 0.14263 0.15782 0.12277 0.0
H159 H 0.10231 0.27723 0.21562 0.0
H160 H 0.99345 0.24293 0.21393 0.0
H161 H 0.96396 0.30676 0.24693 0.0
H162 H 0.95979 0.36429 0.31282 0.0
C163 C 0.90618 1.00349 0.20102 0.0
C164 C 0.90682 1.00036 0.14917 0.0
C165 C 0.86631 1.00677 0.23338 0.0
C166 C 0.82593 1.00747 0.21473 0.0
C167 C 0.82672 1.00444 0.16283 0.0
C168 C 0.8666 1.00097 0.13043 0.0
C169 C 0.78176 1.0096 0.24771 0.0
C170 C 0.77938 0.02052 0.29694 0.0
C171 C 0.73478 0.0208 0.33014 0.0
C172 C 0.7316 0.01649 0.3817 0.0
C173 C 0.69068 0.01665 0.41447 0.0
C174 C 0.65228 0.02167 0.39643 0.0
H175 H 0.69756 0.03109 0.27314 0.0
C176 C 0.65532 0.02664 0.34517 0.0
C177 C 0.6962 0.0263 0.31225 0.0
H178 H 0.62599 0.03074 0.33068 0.0
H179 H 0.93631 1.00272 0.21689 0.0
H180 H 0.86738 1.00773 0.27283 0.0
H181 H 0.79622 1.00462 0.14716 0.0
H182 H 0.86579 0.9986 0.09072 0.0
H183 H 0.74977 1.0012 0.23034 0.0
H184 H 0.81099 0.02864 0.31477 0.0
H185 H 0.76075 0.01253 0.39669 0.0
H186 H 0.68892 0.01279 0.45395 0.0
C187 C 0.03994 0.83246 0.17557 0.0
C188 C 0.0117 0.85995 0.19019 0.0
C189 C 0.03891 0.79821 0.20726 0.0
C190 C 0.00937 0.79064 0.25428 0.0
C191 C 0.98118 0.81813 0.26827 0.0
C192 C 0.98239 0.85219 0.23698 0.0
C193 C 0.00587 0.75501 0.29045 0.0
C194 C 0.03262 0.72785 0.28533 0.0
C195 C 0.02781 0.69327 0.32337 0.0
C196 C 0.04424 0.65643 0.30878 0.0
C197 C 0.0407 0.62355 0.3432 0.0
C198 C 0.02098 0.62694 0.3932 0.0
H199 H 0.99702 0.72531 0.38754 0.0
C200 C 1.00511 0.66392 0.40823 0.0
C201 C 0.0086 0.69681 0.37389 0.0
H202 H 0.99028 0.66752 0.44676 0.0
H203 H 0.06316 0.8377 0.13991 0.0
H204 H 0.0612 0.77796 0.19449 0.0
H205 H 0.95801 0.81346 0.30397 0.0
H206 H 0.96003 0.87248 0.24973 0.0
H207 H 0.97897 0.75099 0.32337 0.0
H208 H 0.05836 0.72986 0.25184 0.0
H209 H 0.05962 0.65284 0.27045 0.0
H210 H 0.05335 0.5954 0.33079 0.0
C211 C 0.12985 0.98822 0.21636 0.0
C212 C 0.136 0.97221 0.1669 0.0
C213 C 0.15547 0.98078 0.25077 0.0
C214 C 0.18667 0.95628 0.23635 0.0
C215 C 0.18961 0.93699 0.18808 0.0
C216 C 0.16503 0.94547 0.15337 0.0
C217 C 0.21953 0.95386 0.26948 0.0
C218 C 0.24538 0.9923 0.29379 0.0
C219 C 0.28502 0.99419 0.32008 0.0
C220 C 0.32495 0.03611 0.32035 0.0
C221 C 0.36287 0.0397 0.34515 0.0
C222 C 0.36121 1.00171 0.37142 0.0
H223 H 0.25271 0.92318 0.34654 0.0
C224 C 0.32115 0.95954 0.37092 0.0
C225 C 0.2835 0.95573 0.34533 0.0
H226 H 0.31814 0.92983 0.39148 0.0
H227 H 0.10736 1.00863 0.22772 0.0
H228 H 0.15198 0.99526 0.28818 0.0
H229 H 0.21313 0.91766 0.17637 0.0
H230 H 0.1697 0.93213 0.11557 0.0
H231 H 0.22757 0.9223 0.26821 0.0
H232 H 0.24065 0.02501 0.29005 0.0
H233 H 0.32704 0.06614 0.3009 0.0
H234 H 0.39346 0.07242 0.34373 0.0
C235 C 0.98748 0.86871 0.92189 0.0
C236 C 0.94538 0.87924 0.9324 0.0
C237 C 0.98873 0.83041 0.89108 0.0
C238 C 0.94785 0.80168 0.86995 0.0
C239 C 0.90512 0.81075 0.88261 0.0
C240 C 0.90393 0.84919 0.91316 0.0
C241 C 0.94845 0.76238 0.83433 0.0
C242 C 0.98869 0.76174 0.80441 0.0
C243 C 0.98959 0.72475 0.76568 0.0
C244 C 0.02868 0.735 0.72673 0.0
C245 C 0.03129 0.70168 0.68944 0.0
C246 C 0.99498 0.65688 0.69025 0.0
H247 H 0.92336 0.66976 0.79692 0.0
C248 C 0.95603 0.64633 0.72955 0.0
C249 C 0.95339 0.67975 0.76689 0.0
H250 H 0.9279 0.61192 0.73196 0.0
H251 H 0.02008 0.8909 0.93618 0.0
H252 H 0.02188 0.82369 0.88374 0.0
H253 H 0.87288 0.78889 0.86748 0.0
H254 H 0.8708 0.85602 0.92059 0.0
H255 H 0.91391 0.73521 0.83004 0.0
H256 H 0.02233 0.79122 0.80591 0.0
H257 H 0.05721 0.76922 0.72477 0.0
H258 H 0.06153 0.71135 0.65952 0.0
C259 C 0.15197 0.02871 0.90414 0.0
C260 C 0.10715 0.01628 0.8875 0.0
C261 C 0.19159 0.02355 0.87262 0.0
C262 C 0.18714 1.00547 0.8238 0.0
C263 C 0.14209 0.99219 0.80767 0.0
C264 C 0.10274 0.99786 0.83888 0.0
C265 C 0.22789 0.99877 0.78884 0.0
C266 C 0.27501 0.02406 0.79063 0.0
C267 C 0.31408 0.01933 0.75151 0.0
C268 C 0.35647 0.05805 0.73889 0.0
C269 C 0.39053 0.0557 0.69783 0.0
C270 C 0.38203 0.01538 0.66639 0.0
H271 H 0.2806 0.94475 0.73895 0.0
C272 C 0.34454 0.97447 0.6862 0.0
C273 C 0.31015 0.97666 0.72682 0.0
H274 H 0.34103 0.94009 0.67216 0.0
H275 H 0.15661 0.04281 0.94146 0.0
H276 H 0.2253 0.0331 0.8869 0.0
H277 H 0.1374 0.9778 0.77044 0.0
H278 H 0.06876 0.98758 0.82488 0.0
H279 H 0.21833 0.97414 0.75797 0.0
H280 H 0.28502 0.05192 0.8184 0.0
H281 H 0.36267 0.09068 0.75982 0.0
H282 H 0.42322 0.0861 0.69103 0.0
C283 C 0.97543 0.18702 0.86037 0.0
C284 C 0.99992 0.15643 0.84402 0.0
C285 C 0.97704 0.22166 0.82882 0.0
C286 C 1.00336 0.22646 0.78018 0.0
C287 C 0.02772 0.1958 0.76439 0.0
C288 C 0.02596 0.16142 0.79555 0.0
C289 C 0.00753 0.26249 0.74417 0.0
C290 C 0.98301 0.29175 0.75051 0.0
C291 C 0.98813 0.32651 0.71252 0.0
C292 C 0.9742 0.36483 0.7277 0.0
C293 C 0.97797 0.39787 0.69336 0.0
C294 C 0.99543 0.3932 0.64287 0.0
H295 H 0.0147 0.29218 0.64747 0.0
C296 C 0.00885 0.35482 0.62728 0.0
C297 C 1.0051 0.32176 0.66154 0.0
H298 H 0.02189 0.35025 0.58839 0.0
H299 H 0.95495 0.18415 0.89742 0.0
H300 H 0.95792 0.24451 0.84303 0.0
H301 H 0.04835 0.19829 0.7274 0.0
H302 H 0.0454 0.13872 0.78137 0.0
H303 H 0.03284 0.26481 0.71021 0.0
H304 H 0.95882 0.29121 0.78492 0.0
H305 H 0.96057 0.36941 0.76641 0.0
H306 H 0.96721 0.42712 0.7062 0.0
C307 C 0.87567 0.02729 0.82502 0.0
C308 C 0.86622 0.03604 0.87641 0.0
C309 C 0.84398 0.0283 0.79343 0.0
C310 C 0.80258 0.03852 0.81287 0.0
C311 C 0.79491 0.0496 0.86372 0.0
C312 C 0.82628 0.04853 0.89502 0.0
C313 C 0.76438 0.03467 0.78307 0.0
C314 C 0.7702 0.03506 0.73305 0.0
C315 C 0.73 0.0309 0.70606 0.0
C316 C 0.74013 0.05499 0.6617 0.0
C317 C 0.70279 0.05302 0.63661 0.0
C318 C 0.65453 0.02621 0.65493 0.0
H319 H 0.67281 0.983 0.75711 0.0
C320 C 0.6445 1.00082 0.69844 0.0
C321 C 0.6818 1.00318 0.72381 0.0
H322 H 0.60774 0.97973 0.71332 0.0
H323 H 0.90615 0.01753 0.80961 0.0
H324 H 0.85096 0.01904 0.75453 0.0
H325 H 0.76363 0.05791 0.87975 0.0
H326 H 0.8182 0.05611 0.93432 0.0
H327 H 0.72967 0.03264 0.80389 0.0
H328 H 0.80557 0.04138 0.71142 0.0
H329 H 0.77694 0.07609 0.6469 0.0
H330 H 0.71172 0.07226 0.60261 0.0
loop_
_geom_bond_atom_site_label_1
_geom_bond_atom_site_label_2
_geom_bond_distance
_geom_bond_site_symmetry_2
_ccdc_geom_bond_type
Co0 O3 2.042 1_655 S
Co0 O10 2.263 1_655 S
Co0 O29 2.286 . S
Co0 O30 2.068 1_655 S
Co0 O32 2.016 . S
Co1 O3 2.122 1_545 S
Co1 O9 2.073 . S
Co1 O10 2.327 1_545 S
Co1 O11 1.976 . S
Co2 O3 2.090 1_545 S
Co2 O5 2.084 1_454 S
Co2 O12 2.138 . S
Co2 O13 2.133 1_554 S
Co2 O17 2.085 1_444 S
Co2 O31 2.155 1_445 S
O3 Co0 2.042 1_455 S
O3 Co1 2.122 1_565 S
O3 Co2 2.090 1_565 S
O3 H4 0.980 . S
H4 O3 0.980 . S
O5 Co2 2.084 1_656 S
O5 Co6 2.042 1_655 S
O5 Co7 2.122 1_545 S
O5 H8 0.980 . S
Co6 O5 2.042 1_455 S
Co6 O14 2.286 . S
Co6 O15 2.069 1_455 S
Co6 O16 2.015 . S
Co6 O19 2.264 1_455 S
Co7 O5 2.122 1_565 S
Co7 O18 1.976 . S
Co7 O19 2.327 1_565 S
Co7 O20 2.073 . S
H8 O5 0.980 . S
O9 Co1 2.073 . S
O9 C24 1.245 1_545 S
O10 Co0 2.263 1_455 S
O10 Co1 2.327 1_565 S
O10 C24 1.257 . S
O11 Co1 1.976 . S
O11 C23 1.251 . S
O12 Co2 2.138 . S
O12 C23 1.274 . S
O13 Co2 2.133 1_556 S
O13 C26 1.246 . S
O14 Co6 2.286 . S
O14 C25 1.259 1_455 S
O15 Co6 2.069 1_655 S
O15 C25 1.289 . S
O16 Co6 2.015 . S
O16 C26 1.257 . S
O17 Co2 2.085 1_666 S
O17 C27 1.274 . S
O18 Co7 1.976 . S
O18 C27 1.251 . S
O19 Co6 2.264 1_655 S
O19 Co7 2.327 1_545 S
O19 C28 1.257 . S
O20 Co7 2.073 . S
O20 C28 1.245 1_565 S
C21 O29 1.259 1_455 S
C21 O30 1.289 . S
C22 O31 1.246 . S
C22 O32 1.257 . S
C23 O11 1.251 . S
C23 O12 1.274 . S
C24 O9 1.245 1_565 S
C24 O10 1.257 . S
C25 O14 1.259 1_655 S
C25 O15 1.289 . S
C26 O13 1.246 . S
C26 O16 1.257 . S
C27 O17 1.274 . S
C27 O18 1.251 . S
C28 O19 1.257 . S
C28 O20 1.245 1_545 S
O29 Co0 2.286 . S
O29 C21 1.259 1_655 S
O30 Co0 2.068 1_455 S
O30 C21 1.289 . S
O31 Co2 2.155 1_665 S
O31 C22 1.246 . S
O32 Co0 2.016 . S
O32 C22 1.257 . S
C33 C34 1.443 . S
C33 N37 1.376 . S
C33 C71 1.389 . S
C34 C33 1.443 . S
C34 C35 1.340 . S
C34 H74 0.951 . S
C35 C34 1.340 . S
C35 C36 1.439 . S
C35 H75 0.950 . S
C36 C35 1.439 . S
C36 N37 1.374 . S
C36 C70 1.395 . S
N37 C33 1.376 . S
N37 C36 1.374 . S
N37 Co38 2.008 . S
Co38 N37 2.008 . S
Co38 N39 1.995 . S
Co38 N44 2.008 1_455 S
Co38 N49 1.995 1_455 S
Co38 N54 2.282 . S
Co38 N60 2.282 1_455 S
N39 Co38 1.995 . S
N39 C40 1.376 . S
N39 C43 1.383 . S
C40 N39 1.376 . S
C40 C41 1.446 . S
C40 C70 1.391 . S
C41 C40 1.446 . S
C41 C42 1.339 . S
C41 H76 0.949 . S
C42 C41 1.339 . S
C42 C43 1.439 . S
C42 H77 0.950 . S
C43 N39 1.383 . S
C43 C42 1.439 . S
C43 C72 1.399 . S
N44 Co38 2.008 1_655 S
N44 C45 1.376 . S
N44 C48 1.374 . S
C45 N44 1.376 . S
C45 C46 1.443 . S
C45 C72 1.378 1_655 S
C46 C45 1.443 . S
C46 C47 1.340 . S
C46 H78 0.951 . S
C47 C46 1.340 . S
C47 C48 1.439 . S
C47 H79 0.950 . S
C48 N44 1.374 . S
C48 C47 1.439 . S
C48 C73 1.395 . S
N49 Co38 1.995 1_655 S
N49 C50 1.376 . S
N49 C53 1.383 . S
C50 N49 1.376 . S
C50 C51 1.446 . S
C50 C73 1.391 . S
C51 C50 1.446 . S
C51 C52 1.339 . S
C51 H80 0.949 . S
C52 C51 1.339 . S
C52 C53 1.439 . S
C52 H81 0.950 . S
C53 N49 1.383 . S
C53 C52 1.439 . S
C53 C71 1.392 1_655 S
N54 Co38 2.282 . S
N54 C57 1.332 1_455 S
N54 C59 1.332 . S
C55 C56 1.386 1_455 S
C55 C58 1.388 . S
C56 C55 1.386 1_655 S
C56 C57 1.382 . S
C56 H82 0.950 . S
C57 N54 1.332 1_655 S
C57 C56 1.382 . S
C57 H68 0.952 . S
C58 C55 1.388 . S
C58 C59 1.382 . S
C58 H83 0.950 . S
C59 N54 1.332 . S
C59 C58 1.382 . S
C59 H69 0.948 . S
N60 Co38 2.282 1_655 S
N60 C64 1.332 1_655 S
N60 C65 1.332 . S
C61 C62 1.378 1_655 S
C61 C65 1.382 . S
C61 H84 0.950 . S
C62 C61 1.378 1_455 S
C62 C63 1.399 . S
C63 C62 1.399 . S
C63 C64 1.382 . S
C63 H85 0.950 . S
C64 N60 1.332 1_455 S
C64 C63 1.382 . S
C64 H66 0.952 . S
C65 N60 1.332 . S
C65 C61 1.382 . S
C65 H67 0.948 . S
H66 C64 0.952 . S
H67 C65 0.948 . S
H68 C57 0.952 . S
H69 C59 0.948 . S
C70 C36 1.395 . S
C70 C40 1.391 . S
C71 C33 1.389 . S
C71 C53 1.392 1_455 S
C72 C43 1.399 . S
C72 C45 1.378 1_455 S
C73 C48 1.395 . S
C73 C50 1.391 . S
H74 C34 0.951 . S
H75 C35 0.950 . S
H76 C41 0.949 . S
H77 C42 0.950 . S
H78 C46 0.951 . S
H79 C47 0.950 . S
H80 C51 0.949 . S
H81 C52 0.950 . S
H82 C56 0.950 . S
H83 C58 0.950 . S
H84 C61 0.950 . S
H85 C63 0.950 . S
C86 C87 1.443 . S
C86 N90 1.376 . S
C86 C124 1.384 1_565 S
C87 C86 1.443 . S
C87 C88 1.340 . S
C87 H127 0.951 . S
C88 C87 1.340 . S
C88 C89 1.439 . S
C88 H128 0.950 . S
C89 C88 1.439 . S
C89 N90 1.374 . S
C89 C123 1.395 . S
N90 C86 1.376 . S
N90 C89 1.374 . S
N90 Co91 1.997 1_565 S
Co91 N90 1.997 1_545 S
Co91 N92 1.977 1_545 S
Co91 N97 2.019 . S
Co91 N102 2.013 . S
Co91 N107 2.274 1_545 S
Co91 N113 2.291 . S
N92 Co91 1.977 1_565 S
N92 C93 1.376 . S
N92 C96 1.383 . S
C93 N92 1.376 . S
C93 C94 1.446 . S
C93 C123 1.391 . S
C94 C93 1.446 . S
C94 C95 1.339 . S
C94 H129 0.949 . S
C95 C94 1.339 . S
C95 C96 1.439 . S
C95 H130 0.950 . S
C96 N92 1.383 . S
C96 C95 1.439 . S
C96 C125 1.392 1_565 S
N97 Co91 2.019 . S
N97 C98 1.376 . S
N97 C101 1.374 . S
C98 N97 1.376 . S
C98 C99 1.443 . S
C98 C125 1.389 . S
C99 C98 1.443 . S
C99 C100 1.340 . S
C99 H131 0.951 . S
C100 C99 1.340 . S
C100 C101 1.439 . S
C100 H132 0.950 . S
C101 N97 1.374 . S
C101 C100 1.439 . S
C101 C126 1.395 . S
N102 Co91 2.013 . S
N102 C103 1.376 . S
N102 C106 1.383 . S
C103 N102 1.376 . S
C103 C104 1.446 . S
C103 C126 1.391 . S
C104 C103 1.446 . S
C104 C105 1.339 . S
C104 H133 0.949 . S
C105 C104 1.339 . S
C105 C106 1.439 . S
C105 H134 0.950 . S
C106 N102 1.383 . S
C106 C105 1.439 . S
C106 C124 1.395 . S
N107 Co91 2.274 1_565 S
N107 C110 1.332 1_565 S
N107 C112 1.332 . S
C108 C109 1.394 . S
C108 C111 1.383 1_545 S
C109 C108 1.394 . S
C109 C110 1.382 . S
C109 H135 0.950 . S
C110 N107 1.332 1_545 S
C110 C109 1.382 . S
C110 H121 0.952 . S
C111 C108 1.383 1_565 S
C111 C112 1.382 . S
C111 H136 0.950 . S
C112 N107 1.332 . S
C112 C111 1.382 . S
C112 H122 0.948 . S
N113 Co91 2.291 . S
N113 C117 1.332 1_545 S
N113 C118 1.332 . S
C114 C115 1.388 . S
C114 C118 1.382 . S
C114 H137 0.950 . S
C115 C114 1.388 . S
C115 C116 1.386 1_545 S
C116 C115 1.386 1_565 S
C116 C117 1.382 . S
C116 H138 0.950 . S
C117 N113 1.332 1_565 S
C117 C116 1.382 . S
C117 H119 0.952 . S
C118 N113 1.332 . S
C118 C114 1.382 . S
C118 H120 0.948 . S
H119 C117 0.952 . S
H120 C118 0.948 . S
H121 C110 0.952 . S
H122 C112 0.948 . S
C123 C89 1.395 . S
C123 C93 1.391 . S
C124 C86 1.384 1_545 S
C124 C106 1.395 . S
C125 C96 1.392 1_545 S
C125 C98 1.389 . S
C126 C101 1.395 . S
C126 C103 1.391 . S
H127 C87 0.951 . S
H128 C88 0.950 . S
H129 C94 0.949 . S
H130 C95 0.950 . S
H131 C99 0.951 . S
H132 C100 0.950 . S
H133 C104 0.949 . S
H134 C105 0.950 . S
H135 C109 0.950 . S
H136 C111 0.950 . S
H137 C114 0.950 . S
H138 C116 0.950 . S
C139 C140 1.386 1_655 S
C139 C141 1.383 . S
C139 H155 0.951 . S
C140 C139 1.386 1_455 S
C140 C144 1.383 . S
C141 C139 1.383 . S
C141 C142 1.402 1_655 S
C141 H156 0.951 . S
C142 C141 1.402 1_455 S
C142 C143 1.375 . S
C142 C145 1.481 . S
C143 C142 1.375 . S
C143 C144 1.367 . S
C143 H157 0.951 . S
C144 C140 1.383 . S
C144 C143 1.367 . S
C144 H158 0.950 . S
C145 C142 1.481 . S
C145 C146 1.297 1_455 S
C145 H159 0.950 . S
C146 C145 1.297 1_655 S
C146 C147 1.479 . S
C146 H160 0.950 . S
C147 C146 1.479 . S
C147 C148 1.375 . S
C147 C153 1.404 1_655 S
C148 C147 1.375 . S
C148 C149 1.369 . S
C148 H161 0.950 . S
C149 C148 1.369 . S
C149 C150 1.392 . S
C149 H162 0.951 . S
C150 C149 1.392 . S
C150 C152 1.384 1_655 S
H151 C153 0.949 . S
C152 C150 1.384 1_455 S
C152 C153 1.385 . S
C152 H154 0.950 . S
C153 C147 1.404 1_455 S
C153 H151 0.949 . S
C153 C152 1.385 . S
H154 C152 0.950 . S
H155 C139 0.951 . S
H156 C141 0.951 . S
H157 C143 0.951 . S
H158 C144 0.950 . S
H159 C145 0.950 . S
H160 C146 0.950 . S
H161 C148 0.950 . S
H162 C149 0.951 . S
C163 C164 1.386 . S
C163 C165 1.383 . S
C163 H179 0.951 . S
C164 C163 1.386 . S
C164 C168 1.383 1_565 S
C165 C163 1.383 . S
C165 C166 1.402 1_565 S
C165 H180 0.951 . S
C166 C165 1.402 1_545 S
C166 C167 1.375 . S
C166 C169 1.481 . S
C167 C166 1.375 . S
C167 C168 1.367 . S
C167 H181 0.951 . S
C168 C164 1.383 1_545 S
C168 C167 1.367 . S
C168 H182 0.950 . S
C169 C166 1.481 . S
C169 C170 1.297 1_545 S
C169 H183 0.950 . S
C170 C169 1.297 1_565 S
C170 C171 1.479 . S
C170 H184 0.950 . S
C171 C170 1.479 . S
C171 C172 1.375 . S
C171 C177 1.404 1_565 S
C172 C171 1.375 . S
C172 C173 1.369 . S
C172 H185 0.950 . S
C173 C172 1.369 . S
C173 C174 1.396 . S
C173 H186 0.951 . S
C174 C173 1.396 . S
C174 C176 1.382 1_565 S
H175 C177 0.949 . S
C176 C174 1.382 1_545 S
C176 C177 1.385 . S
C176 H178 0.950 . S
C177 C171 1.404 1_545 S
C177 H175 0.949 . S
C177 C176 1.385 . S
H178 C176 0.950 . S
H179 C163 0.951 . S
H180 C165 0.951 . S
H181 C167 0.951 . S
H182 C168 0.950 . S
H183 C169 0.950 . S
H184 C170 0.950 . S
H185 C172 0.950 . S
H186 C173 0.951 . S
C187 C188 1.386 . S
C187 C189 1.383 . S
C187 H203 0.951 . S
C188 C187 1.386 . S
C188 C192 1.383 1_455 S
C189 C187 1.383 . S
C189 C190 1.388 1_455 S
C189 H204 0.951 . S
C190 C189 1.388 1_655 S
C190 C191 1.396 . S
C190 C193 1.475 . S
C191 C190 1.396 . S
C191 C192 1.367 . S
C191 H205 0.951 . S
C192 C188 1.383 1_655 S
C192 C191 1.367 . S
C192 H206 0.950 . S
C193 C190 1.475 . S
C193 C194 1.297 1_655 S
C193 H207 0.950 . S
C194 C193 1.297 1_455 S
C194 C195 1.479 . S
C194 H208 0.950 . S
C195 C194 1.479 . S
C195 C196 1.375 . S
C195 C201 1.404 1_455 S
C196 C195 1.375 . S
C196 C197 1.369 . S
C196 H209 0.950 . S
C197 C196 1.369 . S
C197 C198 1.392 . S
C197 H210 0.951 . S
C198 C197 1.392 . S
C198 C200 1.384 1_455 S
H199 C201 0.949 . S
C200 C198 1.384 1_655 S
C200 C201 1.385 . S
C200 H202 0.950 . S
C201 C195 1.404 1_655 S
C201 H199 0.949 . S
C201 C200 1.385 . S
H202 C200 0.950 . S
H203 C187 0.951 . S
H204 C189 0.951 . S
H205 C191 0.951 . S
H206 C192 0.950 . S
H207 C193 0.950 . S
H208 C194 0.950 . S
H209 C196 0.950 . S
H210 C197 0.951 . S
C211 C212 1.386 1_545 S
C211 C213 1.383 . S
C211 H227 0.951 . S
C212 C211 1.386 1_565 S
C212 C216 1.383 . S
C213 C211 1.383 . S
C213 C214 1.402 1_545 S
C213 H228 0.951 . S
C214 C213 1.402 1_565 S
C214 C215 1.375 . S
C214 C217 1.481 . S
C215 C214 1.375 . S
C215 C216 1.367 . S
C215 H229 0.951 . S
C216 C212 1.383 . S
C216 C215 1.367 . S
C216 H230 0.950 . S
C217 C214 1.481 . S
C217 C218 1.297 . S
C217 H231 0.950 . S
C218 C217 1.297 . S
C218 C219 1.479 . S
C218 H232 0.950 1_565 S
C219 C218 1.479 . S
C219 C220 1.375 1_565 S
C219 C225 1.404 . S
C220 C219 1.375 1_545 S
C220 C221 1.369 . S
C220 H233 0.950 . S
C221 C220 1.369 . S
C221 C222 1.392 1_545 S
C221 H234 0.951 . S
C222 C221 1.392 1_565 S
C222 C224 1.384 . S
H223 C225 0.949 . S
C224 C222 1.384 . S
C224 C225 1.385 . S
C224 H226 0.950 . S
C225 C219 1.404 . S
C225 H223 0.949 . S
C225 C224 1.385 . S
H226 C224 0.950 . S
H227 C211 0.951 . S
H228 C213 0.951 . S
H229 C215 0.951 . S
H230 C216 0.950 . S
H231 C217 0.950 . S
H232 C218 0.950 1_545 S
H233 C220 0.950 . S
H234 C221 0.951 . S
C235 C236 1.386 1_455 S
C235 C237 1.383 . S
C235 H251 0.951 . S
C236 C235 1.386 1_655 S
C236 C240 1.383 . S
C237 C235 1.383 . S
C237 C238 1.402 1_455 S
C237 H252 0.951 . S
C238 C237 1.402 1_655 S
C238 C239 1.375 . S
C238 C241 1.481 . S
C239 C238 1.375 . S
C239 C240 1.367 . S
C239 H253 0.951 . S
C240 C236 1.383 . S
C240 C239 1.367 . S
C240 H254 0.950 . S
C241 C238 1.481 . S
C241 C242 1.297 1_655 S
C241 H255 0.950 . S
C242 C241 1.297 1_455 S
C242 C243 1.479 . S
C242 H256 0.950 . S
C243 C242 1.479 . S
C243 C244 1.375 . S
C243 C249 1.404 1_455 S
C244 C243 1.375 . S
C244 C245 1.369 . S
C244 H257 0.950 . S
C245 C244 1.369 . S
C245 C246 1.392 . S
C245 H258 0.951 . S
C246 C245 1.392 . S
C246 C248 1.384 1_455 S
H247 C249 0.949 . S
C248 C246 1.384 1_655 S
C248 C249 1.385 . S
C248 H250 0.950 . S
C249 C243 1.404 1_655 S
C249 H247 0.949 . S
C249 C248 1.385 . S
H250 C248 0.950 . S
H251 C235 0.951 . S
H252 C237 0.951 . S
H253 C239 0.951 . S
H254 C240 0.950 . S
H255 C241 0.950 . S
H256 C242 0.950 . S
H257 C244 0.950 . S
H258 C245 0.951 . S
C259 C260 1.386 . S
C259 C261 1.383 . S
C259 H275 0.951 . S
C260 C259 1.386 . S
C260 C264 1.383 1_545 S
C261 C259 1.383 . S
C261 C262 1.402 1_545 S
C261 H276 0.951 . S
C262 C261 1.402 1_565 S
C262 C263 1.375 . S
C262 C265 1.481 . S
C263 C262 1.375 . S
C263 C264 1.367 . S
C263 H277 0.951 . S
C264 C260 1.383 1_565 S
C264 C263 1.367 . S
C264 H278 0.950 . S
C265 C262 1.481 . S
C265 C266 1.297 1_565 S
C265 H279 0.950 . S
C266 C265 1.297 1_545 S
C266 C267 1.479 . S
C266 H280 0.950 . S
C267 C266 1.479 . S
C267 C268 1.375 . S
C267 C273 1.404 1_545 S
C268 C267 1.375 . S
C268 C269 1.369 . S
C268 H281 0.950 . S
C269 C268 1.369 . S
C269 C270 1.392 . S
C269 H282 0.951 . S
C270 C269 1.392 . S
C270 C272 1.384 1_545 S
H271 C273 0.949 . S
C272 C270 1.384 1_565 S
C272 C273 1.385 . S
C272 H274 0.950 . S
C273 C267 1.404 1_565 S
C273 H271 0.949 . S
C273 C272 1.385 . S
H274 C272 0.950 . S
H275 C259 0.951 . S
H276 C261 0.951 . S
H277 C263 0.951 . S
H278 C264 0.950 . S
H279 C265 0.950 . S
H280 C266 0.950 . S
H281 C268 0.950 . S
H282 C269 0.951 . S
C283 C284 1.386 . S
C283 C285 1.383 . S
C283 H299 0.951 . S
C284 C283 1.386 . S
C284 C288 1.383 1_655 S
C285 C283 1.383 . S
C285 C286 1.402 1_655 S
C285 H300 0.951 . S
C286 C285 1.402 1_455 S
C286 C287 1.375 . S
C286 C289 1.481 . S
C287 C286 1.375 . S
C287 C288 1.367 . S
C287 H301 0.951 . S
C288 C284 1.383 1_455 S
C288 C287 1.367 . S
C288 H302 0.950 . S
C289 C286 1.481 . S
C289 C290 1.297 1_455 S
C289 H303 0.950 . S
C290 C289 1.297 1_655 S
C290 C291 1.475 . S
C290 H304 0.950 . S
C291 C290 1.475 . S
C291 C292 1.392 . S
C291 C297 1.393 1_655 S
C292 C291 1.392 . S
C292 C293 1.369 . S
C292 H305 0.950 . S
C293 C292 1.369 . S
C293 C294 1.392 1_655 S
C293 H306 0.951 . S
C294 C293 1.392 1_455 S
C294 C296 1.384 . S
H295 C297 0.949 . S
C296 C294 1.384 . S
C296 C297 1.385 . S
C296 H298 0.950 . S
C297 C291 1.393 1_455 S
C297 H295 0.949 . S
C297 C296 1.385 . S
H298 C296 0.950 . S
H299 C283 0.951 . S
H300 C285 0.951 . S
H301 C287 0.951 . S
H302 C288 0.950 . S
H303 C289 0.950 . S
H304 C290 0.950 . S
H305 C292 0.950 . S
H306 C293 0.951 . S
C307 C308 1.386 . S
C307 C309 1.383 . S
C307 H323 0.951 . S
C308 C307 1.386 . S
C308 C312 1.383 . S
C309 C307 1.383 . S
C309 C310 1.402 . S
C309 H324 0.951 . S
C310 C309 1.402 . S
C310 C311 1.375 1_545 S
C310 C313 1.481 1_545 S
C311 C310 1.375 1_565 S
C311 C312 1.367 1_565 S
C311 H325 0.951 . S
C312 C308 1.383 . S
C312 C311 1.367 1_545 S
C312 H326 0.950 . S
C313 C310 1.481 1_565 S
C313 C314 1.297 . S
C313 H327 0.950 . S
C314 C313 1.297 . S
C314 C315 1.479 . S
C314 H328 0.950 . S
C315 C314 1.479 . S
C315 C316 1.375 1_565 S
C315 C321 1.404 . S
C316 C315 1.375 1_545 S
C316 C317 1.369 . S
C316 H329 0.950 . S
C317 C316 1.369 . S
C317 C318 1.392 1_545 S
C317 H330 0.951 . S
C318 C317 1.392 1_565 S
C318 C320 1.384 . S
H319 C321 0.949 . S
C320 C318 1.384 . S
C320 C321 1.385 . S
C320 H322 0.950 . S
C321 C315 1.404 . S
C321 H319 0.949 . S
C321 C320 1.385 . S
H322 C320 0.950 . S
H323 C307 0.951 . S
H324 C309 0.951 . S
H325 C311 0.951 . S
H326 C312 0.950 . S
H327 C313 0.950 . S
H328 C314 0.950 . S
H329 C316 0.950 . S
H330 C317 0.951 . S
C140 C23 1.233 . S
C150 C55 1.365 1_655 S
C164 C22 1.533 . S
C174 C125 1.580 1_565 S
C188 C21 1.937 . S
C198 C71 1.949 . S
C212 C24 1.488 . S
C222 C115 1.535 1_565 S
C236 C27 1.268 . S
C246 C62 1.329 . S
C260 C26 1.557 . S
C270 C124 1.553 . S
C294 C72 1.941 . S
C284 C25 1.938 . S
C308 C28 1.430 . S
C318 C108 1.525 1_565 S
