# Generated by pormake.
# Topology the, (3,8)-cn, num edge types: 1
# Building blocks:
#     Node 0, Type 0, BuildingBlock: OLANEW_clean_sbu_2, # of connection points: 3
#     Node 1, Type 0, BuildingBlock: OLANEW_clean_sbu_2, # of connection points: 3
#     Node 2, Type 0, BuildingBlock: OLANEW_clean_sbu_2, # of connection points: 3
#     Node 3, Type 0, BuildingBlock: OLANEW_clean_sbu_2, # of connection points: 3
#     Node 4, Type 0, BuildingBlock: OLANEW_clean_sbu_2, # of connection points: 3
#     Node 5, Type 0, BuildingBlock: OLANEW_clean_sbu_2, # of connection points: 3
#     Node 6, Type 0, BuildingBlock: OLANEW_clean_sbu_2, # of connection points: 3
#     Node 7, Type 0, BuildingBlock: OLANEW_clean_sbu_2, # of connection points: 3
#     Node 8, Type 1, BuildingBlock: GIZVER_clean_sbu_0, # of connection points: 8
#     Node 9, Type 1, BuildingBlock: GIZVER_clean_sbu_0, # of connection points: 8
#     Node 10, Type 1, BuildingBlock: GIZVER_clean_sbu_0, # of connection points: 8
#     Edge 11, Type (0, 1), BuildingBlock: EZIPEK_clean_linker_0, # of connection points: 2
#     Edge 12, Type (0, 1), BuildingBlock: EZIPEK_clean_linker_0, # of connection points: 2
#     Edge 13, Type (0, 1), BuildingBlock: EZIPEK_clean_linker_0, # of connection points: 2
#     Edge 14, Type (0, 1), BuildingBlock: EZIPEK_clean_linker_0, # of connection points: 2
#     Edge 15, Type (0, 1), BuildingBlock: EZIPEK_clean_linker_0, # of connection points: 2
#     Edge 16, Type (0, 1), BuildingBlock: EZIPEK_clean_linker_0, # of connection points: 2
#     Edge 17, Type (0, 1), BuildingBlock: EZIPEK_clean_linker_0, # of connection points: 2
#     Edge 18, Type (0, 1), BuildingBlock: EZIPEK_clean_linker_0, # of connection points: 2
#     Edge 19, Type (0, 1), BuildingBlock: EZIPEK_clean_linker_0, # of connection points: 2
#     Edge 20, Type (0, 1), BuildingBlock: EZIPEK_clean_linker_0, # of connection points: 2
#     Edge 21, Type (0, 1), BuildingBlock: EZIPEK_clean_linker_0, # of connection points: 2
#     Edge 22, Type (0, 1), BuildingBlock: EZIPEK_clean_linker_0, # of connection points: 2
#     Edge 23, Type (0, 1), BuildingBlock: EZIPEK_clean_linker_0, # of connection points: 2
#     Edge 24, Type (0, 1), BuildingBlock: EZIPEK_clean_linker_0, # of connection points: 2
#     Edge 25, Type (0, 1), BuildingBlock: EZIPEK_clean_linker_0, # of connection points: 2
#     Edge 26, Type (0, 1), BuildingBlock: EZIPEK_clean_linker_0, # of connection points: 2
#     Edge 27, Type (0, 1), BuildingBlock: EZIPEK_clean_linker_0, # of connection points: 2
#     Edge 28, Type (0, 1), BuildingBlock: EZIPEK_clean_linker_0, # of connection points: 2
#     Edge 29, Type (0, 1), BuildingBlock: EZIPEK_clean_linker_0, # of connection points: 2
#     Edge 30, Type (0, 1), BuildingBlock: EZIPEK_clean_linker_0, # of connection points: 2
#     Edge 31, Type (0, 1), BuildingBlock: EZIPEK_clean_linker_0, # of connection points: 2
#     Edge 32, Type (0, 1), BuildingBlock: EZIPEK_clean_linker_0, # of connection points: 2
#     Edge 33, Type (0, 1), BuildingBlock: EZIPEK_clean_linker_0, # of connection points: 2
#     Edge 34, Type (0, 1), BuildingBlock: EZIPEK_clean_linker_0, # of connection points: 2
# Relax obj value: 0.083
# Max RMSD: 0.226
# Mean RMSD: 0.131
data_MOF--net-the--node1-OLANEW_clean_sbu_2--node2-GIZVER_clean_sbu_0--edge1-EZIPEK_clean_linker_0
_symmetry_space_group_name_H-M    P1
_symmetry_Int_Tables_number       1
_symmetry_cell_setting            triclinic
loop_
_symmetry_equiv_pos_as_xyz
'x, y, z'
_cell_length_a     33.697082
_cell_length_b     32.306853
_cell_length_c     28.74135
_cell_angle_alpha  91.029884
_cell_angle_beta   93.912993
_cell_angle_gamma 110.8538
loop_
_atom_site_label
_atom_site_type_symbol
_atom_site_fract_x
_atom_site_fract_y
_atom_site_fract_z
_atom_type_partial_charge
O0 O 0.34771 0.34648 0.31481 0.0
Cd1 Cd 0.32736 0.32063 0.39301 0.0
O2 O 0.30913 0.38923 0.31424 0.0
Cd3 Cd 0.27529 0.3666 0.37639 0.0
O4 O 0.22454 0.37651 0.4131 0.0
C5 C 0.19786 0.38617 0.38626 0.0
O6 O 0.20217 0.38728 0.34116 0.0
C7 C 0.33572 0.37575 0.29564 0.0
C8 C 0.35364 0.25194 0.4252 0.0
O9 O 0.38033 0.29129 0.42138 0.0
O10 O 0.31434 0.24477 0.41324 0.0
O11 O 0.74987 0.4109 0.30384 0.0
Cd12 Cd 0.68508 0.36014 0.25866 0.0
O13 O 0.75843 0.35553 0.34206 0.0
Cd14 Cd 0.70351 0.30111 0.3102 0.0
O15 O 0.65444 0.24109 0.33128 0.0
C16 C 0.66585 0.21014 0.34687 0.0
O17 O 0.70565 0.21311 0.34529 0.0
C18 C 0.77022 0.3967 0.33478 0.0
C19 C 0.63804 0.39347 0.19418 0.0
O20 O 0.64162 0.40324 0.23805 0.0
O21 O 0.65851 0.36956 0.1801 0.0
O22 O 0.72437 0.71508 0.21026 0.0
Cd23 Cd 0.77714 0.77065 0.26343 0.0
O24 O 0.66944 0.72296 0.24194 0.0
Cd25 Cd 0.70408 0.772 0.29757 0.0
O26 O 0.69717 0.81529 0.35325 0.0
C27 C 0.66014 0.81732 0.35175 0.0
O28 O 0.63172 0.79533 0.31802 0.0
C29 C 0.68439 0.70479 0.21156 0.0
C30 C 0.82797 0.73418 0.31574 0.0
O31 O 0.79433 0.73701 0.33152 0.0
O32 O 0.83799 0.74885 0.27541 0.0
O33 O 0.35707 0.79659 0.29864 0.0
Cd34 Cd 0.30352 0.73376 0.25362 0.0
O35 O 0.31505 0.80263 0.35209 0.0
Cd36 Cd 0.25808 0.74634 0.32764 0.0
O37 O 0.1993 0.69253 0.34161 0.0
C38 C 0.1634 0.69676 0.33379 0.0
O39 O 0.16148 0.73261 0.31446 0.0
C40 C 0.35104 0.81591 0.335 0.0
C41 C 0.34112 0.68102 0.20894 0.0
O42 O 0.33607 0.71414 0.18896 0.0
O43 O 0.32826 0.67245 0.24984 0.0
O44 O 0.40721 0.80269 0.75348 0.0
Cd45 Cd 0.36457 0.73686 0.79485 0.0
O46 O 0.35245 0.80816 0.71023 0.0
Cd47 Cd 0.30089 0.74805 0.72701 0.0
O48 O 0.24242 0.69767 0.69467 0.0
C49 C 0.21902 0.71112 0.66687 0.0
O50 O 0.22949 0.75386 0.66118 0.0
C51 C 0.39197 0.82279 0.72347 0.0
C52 C 0.40956 0.68988 0.84302 0.0
O53 O 0.39469 0.67914 0.80049 0.0
O54 O 0.404 0.7231 0.86271 0.0
O55 O 0.34313 0.31744 0.77536 0.0
Cd56 Cd 0.29365 0.26728 0.71399 0.0
O57 O 0.31641 0.37106 0.77416 0.0
Cd58 Cd 0.26212 0.34439 0.72119 0.0
O59 O 0.21041 0.34934 0.67265 0.0
C60 C 0.20203 0.38461 0.67673 0.0
O61 O 0.22298 0.41446 0.70985 0.0
C62 C 0.34386 0.35512 0.79027 0.0
C63 C 0.32056 0.19938 0.68209 0.0
O64 O 0.33414 0.23806 0.66549 0.0
O65 O 0.29413 0.19239 0.71367 0.0
O66 O 0.77297 0.39433 0.8466 0.0
Cd67 Cd 0.80795 0.35097 0.80621 0.0
O68 O 0.71339 0.36487 0.80135 0.0
Cd69 Cd 0.72991 0.3157 0.76183 0.0
O70 O 0.7053 0.25589 0.71586 0.0
C71 C 0.67181 0.25265 0.69053 0.0
O72 O 0.65744 0.28546 0.69169 0.0
C73 C 0.73516 0.39177 0.83438 0.0
C74 C 0.84856 0.39842 0.7323 0.0
O75 O 0.86782 0.4036 0.77318 0.0
O76 O 0.8106 0.36989 0.72589 0.0
O77 O 0.85362 0.81891 0.59652 0.0
Cd78 Cd 0.83495 0.87255 0.64368 0.0
O79 O 0.81671 0.7708 0.64413 0.0
Cd80 Cd 0.79196 0.70801 0.6786 0.0
O81 O 0.74806 0.66784 0.72682 0.0
C82 C 0.74826 0.63185 0.74369 0.0
O83 O 0.77604 0.61457 0.7313 0.0
C84 C 0.84208 0.78007 0.6119 0.0
C85 C 0.76896 0.902 0.61633 0.0
O86 O 0.80724 0.9237 0.60667 0.0
O87 O 0.76141 0.86502 0.63617 0.0
Co88 Co 0.06713 0.49834 0.53667 0.0
Co89 Co 0.02469 0.47939 0.45573 0.0
Co90 Co 0.99179 0.54443 0.51229 0.0
O91 O 0.00989 0.49161 0.51349 0.0
H92 H 0.98859 0.46564 0.52462 0.0
O93 O 0.97575 0.59854 0.51183 0.0
Co94 Co 0.9259 0.59945 0.47679 0.0
Co95 Co 0.9488 0.60642 0.56211 0.0
H96 H 1.00027 0.62513 0.50899 0.0
O97 O 0.02821 0.42538 0.43803 0.0
O98 O 0.08055 0.4852 0.47301 0.0
O99 O 0.02586 0.52156 0.40913 0.0
O100 O 0.02943 0.57434 0.46116 0.0
O101 O 0.94466 0.5124 0.46377 0.0
O102 O 0.88249 0.604 0.44155 0.0
O103 O 0.94759 0.65608 0.45864 0.0
O104 O 0.89747 0.53927 0.4888 0.0
O105 O 0.95356 0.51327 0.5626 0.0
O106 O 0.93079 0.55912 0.60268 0.0
O107 O 0.90446 0.61981 0.53375 0.0
O108 O 0.95842 0.66096 0.58625 0.0
C109 C 0.09608 0.45814 0.56698 0.0
C110 C 0.07734 0.58373 0.5548 0.0
C111 C 0.03329 0.56202 0.41954 0.0
C112 C 0.06817 0.44652 0.45099 0.0
C113 C 0.90992 0.64339 0.43605 0.0
C114 C 0.90643 0.51136 0.46382 0.0
C115 C 0.93373 0.52158 0.59591 0.0
C116 C 0.92233 0.6547 0.56246 0.0
O117 O 0.11764 0.49963 0.56075 0.0
O118 O 0.05582 0.44128 0.55185 0.0
O119 O 0.03849 0.5768 0.56078 0.0
O120 O 0.08693 0.55948 0.52579 0.0
Co121 Co 0.55887 0.94209 0.51693 0.0
Co122 Co 0.5828 0.99566 0.58583 0.0
Co123 Co 0.51155 0.01942 0.5285 0.0
O124 O 0.56136 1.00051 0.52661 0.0
H125 H 0.5842 0.02101 0.51081 0.0
O126 O 0.46113 0.03976 0.52978 0.0
Co127 Co 0.45509 0.08364 0.57354 0.0
Co128 Co 0.46215 0.08305 0.48883 0.0
H129 H 0.43464 0.01484 0.52446 0.0
O130 O 0.64147 0.01597 0.60019 0.0
O131 O 0.59889 0.94773 0.57235 0.0
O132 O 0.53949 0.97352 0.62871 0.0
O133 O 0.48634 0.97999 0.58152 0.0
O134 O 0.54854 0.06779 0.57364 0.0
O135 O 0.44522 0.1201 0.6139 0.0
O136 O 0.39742 0.05961 0.57568 0.0
O137 O 0.51419 0.1152 0.5787 0.0
O138 O 0.53846 0.05672 0.47477 0.0
O139 O 0.51283 0.11017 0.45969 0.0
O140 O 0.44796 0.12292 0.52272 0.0
O141 O 0.4146 0.08351 0.4561 0.0
C142 C 0.59209 0.91161 0.4773 0.0
C143 C 0.48448 0.9417 0.45801 0.0
C144 C 0.50006 0.96522 0.61811 0.0
C145 C 0.63652 0.97596 0.58598 0.0
C146 C 0.40592 0.09402 0.60459 0.0
C147 C 0.54763 0.10581 0.58457 0.0
C148 C 0.54 0.09218 0.45474 0.0
C149 C 0.421 0.11657 0.48581 0.0
O150 O 0.56187 0.8881 0.50188 0.0
O151 O 0.60203 0.9542 0.47847 0.0
O152 O 0.4756 0.97027 0.4826 0.0
O153 O 0.51926 0.93478 0.46465 0.0
Co154 Co 0.46626 0.54755 0.09546 0.0
Co155 Co 0.44491 0.46422 0.07183 0.0
Co156 Co 0.51584 0.5235 0.00523 0.0
O157 O 0.46338 0.515 0.03842 0.0
H158 H 0.4402 0.51548 0.01697 0.0
O159 O 0.56913 0.53222 0.97333 0.0
Co160 Co 0.57735 0.49307 0.92699 0.0
Co161 Co 0.5813 0.5725 0.92805 0.0
H162 H 0.59318 0.54089 0.99642 0.0
O163 O 0.39036 0.43775 0.0912 0.0
O164 O 0.44468 0.49154 0.12972 0.0
O165 O 0.48356 0.43312 0.07899 0.0
O166 O 0.53741 0.48495 0.04824 0.0
O167 O 0.48032 0.47125 0.96286 0.0
O168 O 0.58974 0.45725 0.88747 0.0
O169 O 0.63292 0.50394 0.94393 0.0
O170 O 0.52027 0.47581 0.90289 0.0
O171 O 0.4945 0.56372 0.9644 0.0
O172 O 0.53883 0.59653 0.91058 0.0
O173 O 0.59406 0.54157 0.88126 0.0
O174 O 0.63656 0.60597 0.9195 0.0
C175 C 0.42754 0.57564 0.12461 0.0
C176 C 0.55306 0.57615 0.09064 0.0
C177 C 0.52284 0.4508 0.07288 0.0
C178 C 0.40671 0.46155 0.12941 0.0
C179 C 0.62719 0.47466 0.90978 0.0
C180 C 0.48436 0.4629 0.92014 0.0
C181 C 0.50461 0.58944 0.93016 0.0
C182 C 0.62897 0.57683 0.88506 0.0
O183 O 0.46431 0.57978 0.14552 0.0
O184 O 0.41362 0.55049 0.08651 0.0
O185 O 0.55052 0.57617 0.04634 0.0
O186 O 0.52271 0.55061 0.11201 0.0
C187 C 0.13252 0.37259 0.43021 0.0
C188 C 0.16556 0.40155 0.40541 0.0
C189 C 0.13153 0.45699 0.40586 0.0
C190 C 0.10058 0.4299 0.43427 0.0
N191 N 0.07476 0.36466 0.47936 0.0
N192 N 0.20197 0.47505 0.37921 0.0
C193 C 0.1018 0.38832 0.448 0.0
C194 C 0.16664 0.44485 0.39601 0.0
N195 N 0.12949 0.3296 0.43521 0.0
N196 N 0.12646 0.49335 0.3865 0.0
H197 H 0.22899 0.46789 0.37275 0.0
H198 H 0.20625 0.50844 0.37635 0.0
H199 H 0.10036 0.50266 0.3914 0.0
H200 H 0.1457 0.51157 0.36161 0.0
H201 H 0.10348 0.30556 0.44832 0.0
H202 H 0.15149 0.31696 0.4229 0.0
H203 H 0.07766 0.337 0.49513 0.0
H204 H 0.05135 0.37464 0.49249 0.0
C205 C 0.59697 0.14608 0.34968 0.0
C206 C 0.63601 0.17451 0.37267 0.0
C207 C 0.61645 0.13705 0.44566 0.0
C208 C 0.57483 0.114 0.42468 0.0
N209 N 0.52463 0.09567 0.35686 0.0
N210 N 0.68069 0.2016 0.44437 0.0
C211 C 0.56493 0.11805 0.37656 0.0
C212 C 0.64555 0.1708 0.421 0.0
N213 N 0.591 0.14526 0.30209 0.0
N214 N 0.6281 0.12739 0.48942 0.0
H215 H 0.70236 0.2279 0.42834 0.0
H216 H 0.68626 0.20371 0.48059 0.0
H217 H 0.60741 0.10401 0.50942 0.0
H218 H 0.65934 0.13983 0.50435 0.0
H219 H 0.56496 0.12237 0.28272 0.0
H220 H 0.61409 0.16515 0.28149 0.0
H221 H 0.5137 0.10133 0.3237 0.0
H222 H 0.50132 0.07254 0.37468 0.0
C223 C 0.85765 0.6738 0.32844 0.0
C224 C 0.85465 0.71448 0.34379 0.0
C225 C 0.89485 0.71304 0.41774 0.0
C226 C 0.89759 0.67216 0.40257 0.0
N227 N 0.89332 0.62097 0.33888 0.0
N228 N 0.87874 0.77826 0.39739 0.0
C229 C 0.88264 0.65489 0.35635 0.0
C230 C 0.87587 0.7358 0.38676 0.0
N231 N 0.83492 0.65206 0.28843 0.0
N232 N 0.90869 0.7292 0.46235 0.0
H233 H 0.86538 0.79594 0.37531 0.0
H234 H 0.89742 0.79738 0.4259 0.0
H235 H 0.92519 0.71493 0.48457 0.0
H236 H 0.90225 0.75525 0.47786 0.0
H237 H 0.83191 0.61988 0.27841 0.0
H238 H 0.8162 0.66475 0.26693 0.0
H239 H 0.88671 0.60938 0.30413 0.0
H240 H 0.91296 0.60767 0.35809 0.0
C241 C 0.39429 0.89508 0.36119 0.0
C242 C 0.3876 0.8492 0.36241 0.0
C243 C 0.4414 0.86385 0.42814 0.0
C244 C 0.45095 0.91034 0.42473 0.0
N245 N 0.44177 0.97047 0.38225 0.0
N246 N 0.41058 0.79076 0.39034 0.0
C247 C 0.42879 0.92611 0.38966 0.0
C248 C 0.41324 0.83399 0.39352 0.0
N249 N 0.36741 0.90887 0.33322 0.0
N250 N 0.45678 0.84762 0.46613 0.0
H251 H 0.38916 0.76711 0.36673 0.0
H252 H 0.43225 0.77926 0.4083 0.0
H253 H 0.47602 0.86745 0.49382 0.0
H254 H 0.44664 0.81403 0.47289 0.0
H255 H 0.36754 0.94115 0.33461 0.0
H256 H 0.34311 0.8872 0.31052 0.0
H257 H 0.42961 0.98363 0.35433 0.0
H258 H 0.46751 0.99395 0.40158 0.0
C259 C 0.14887 0.6472 0.66072 0.0
C260 C 0.18201 0.679 0.63851 0.0
C261 C 0.14254 0.65261 0.56228 0.0
C262 C 0.11195 0.61774 0.58403 0.0
N263 N 0.09015 0.57672 0.65306 0.0
N264 N 0.21447 0.7062 0.56729 0.0
C265 C 0.11611 0.61365 0.63307 0.0
C266 C 0.17992 0.68029 0.58901 0.0
N267 N 0.14781 0.64987 0.70811 0.0
N268 N 0.13541 0.65995 0.51628 0.0
H269 H 0.24314 0.72575 0.58534 0.0
H270 H 0.21625 0.70488 0.53128 0.0
H271 H 0.10818 0.64056 0.49568 0.0
H272 H 0.15439 0.68769 0.49979 0.0
H273 H 0.12202 0.63046 0.72564 0.0
H274 H 0.17084 0.67435 0.72956 0.0
H275 H 0.09481 0.56972 0.6878 0.0
H276 H 0.06635 0.55093 0.63398 0.0
C277 C 0.32589 0.14965 0.61623 0.0
C278 C 0.33468 0.16363 0.66425 0.0
C279 C 0.37817 0.1169 0.67525 0.0
C280 C 0.37247 0.10633 0.62648 0.0
N281 N 0.32971 0.09953 0.55425 0.0
N282 N 0.36318 0.15545 0.74148 0.0
C283 C 0.34266 0.11848 0.59812 0.0
C284 C 0.35845 0.14507 0.69457 0.0
N285 N 0.30222 0.167 0.58763 0.0
N286 N 0.40374 0.10076 0.70254 0.0
H287 H 0.35191 0.17825 0.75653 0.0
H288 H 0.37701 0.14063 0.76628 0.0
H289 H 0.41552 0.07736 0.68962 0.0
H290 H 0.41361 0.11015 0.73743 0.0
H291 H 0.29984 0.16353 0.55136 0.0
H292 H 0.28622 0.18673 0.60009 0.0
H293 H 0.30536 0.10391 0.53304 0.0
H294 H 0.33993 0.07527 0.54088 0.0
C295 C 0.8484 0.45264 0.67085 0.0
C296 C 0.869 0.4265 0.69405 0.0
C297 C 0.9326 0.46172 0.65187 0.0
C298 C 0.91086 0.48571 0.62653 0.0
N299 N 0.84414 0.49449 0.60306 0.0
N300 N 0.92652 0.39841 0.6987 0.0
C301 C 0.86749 0.47812 0.63323 0.0
C302 C 0.90987 0.42866 0.68212 0.0
N303 N 0.81191 0.45543 0.68637 0.0
N304 N 0.97536 0.47198 0.64916 0.0
H305 H 0.91041 0.37321 0.7202 0.0
H306 H 0.95422 0.39557 0.68744 0.0
H307 H 0.99347 0.49625 0.628 0.0
H308 H 0.99364 0.45907 0.67096 0.0
H309 H 0.79838 0.47789 0.67389 0.0
H310 H 0.7974 0.43873 0.71491 0.0
H311 H 0.81132 0.48605 0.60355 0.0
H312 H 0.85657 0.51259 0.57437 0.0
C313 C 0.72719 0.93624 0.56384 0.0
C314 C 0.73503 0.92108 0.60838 0.0
C315 C 0.67697 0.94068 0.63771 0.0
C316 C 0.6719 0.95941 0.59454 0.0
N317 N 0.69774 0.98342 0.51987 0.0
N318 N 0.72408 0.91897 0.6908 0.0
C319 C 0.69881 0.95985 0.55862 0.0
C320 C 0.71168 0.92591 0.64622 0.0
N321 N 0.74517 0.92623 0.52606 0.0
N322 N 0.64842 0.93658 0.67052 0.0
H323 H 0.75055 0.91025 0.69924 0.0
H324 H 0.71089 0.92646 0.72009 0.0
H325 H 0.62353 0.9486 0.66643 0.0
H326 H 0.64758 0.91836 0.70022 0.0
H327 H 0.73691 0.93226 0.49193 0.0
H328 H 0.76505 0.90779 0.5282 0.0
H329 H 0.71923 0.98813 0.49432 0.0
H330 H 0.678 1.0019 0.51562 0.0
C331 C 0.40229 0.22674 0.47868 0.0
C332 C 0.36817 0.21616 0.44342 0.0
C333 C 0.36202 0.13829 0.44617 0.0
C334 C 0.40166 0.15069 0.47368 0.0
N335 N 0.4656 0.21233 0.50259 0.0
N336 N 0.32235 0.16133 0.38554 0.0
C337 C 0.42357 0.19645 0.48653 0.0
C338 C 0.34969 0.17173 0.42491 0.0
N339 N 0.41413 0.26513 0.50552 0.0
N340 N 0.3354 0.09498 0.44093 0.0
H341 H 0.31497 0.1849 0.36614 0.0
H342 H 0.31127 0.12988 0.36895 0.0
H343 H 0.34131 0.06946 0.45822 0.0
H344 H 0.30483 0.08541 0.42424 0.0
H345 H 0.43702 0.27219 0.53377 0.0
H346 H 0.39743 0.28679 0.5035 0.0
H347 H 0.48268 0.2461 0.50919 0.0
H348 H 0.48508 0.19356 0.50248 0.0
C349 C 0.80017 0.42721 0.41553 0.0
C350 C 0.80495 0.42792 0.36675 0.0
C351 C 0.87598 0.4855 0.38125 0.0
C352 C 0.8727 0.4812 0.43017 0.0
N353 N 0.83537 0.44153 0.49361 0.0
N354 N 0.84967 0.45285 0.3033 0.0
C355 C 0.83579 0.45023 0.44723 0.0
C356 C 0.84348 0.45581 0.34956 0.0
N357 N 0.76108 0.40587 0.43158 0.0
N358 N 0.90921 0.51898 0.36498 0.0
H359 H 0.82651 0.43176 0.2791 0.0
H360 H 0.87884 0.46861 0.28959 0.0
H361 H 0.93344 0.54171 0.38683 0.0
H362 H 0.91088 0.52668 0.32997 0.0
H363 H 0.75481 0.40807 0.46634 0.0
H364 H 0.73378 0.3897 0.4095 0.0
H365 H 0.81093 0.41611 0.50743 0.0
H366 H 0.86155 0.45666 0.51752 0.0
C367 C 0.63538 0.87957 0.36892 0.0
C368 C 0.64887 0.84545 0.38581 0.0
C369 C 0.63235 0.86054 0.46473 0.0
C370 C 0.61316 0.89005 0.44631 0.0
N371 N 0.59004 0.92194 0.37888 0.0
N372 N 0.6569 0.80006 0.4489 0.0
C373 C 0.61327 0.89841 0.39793 0.0
C374 C 0.64692 0.83525 0.43362 0.0
N375 N 0.64441 0.89456 0.32528 0.0
N376 N 0.63756 0.85739 0.51196 0.0
H377 H 0.66801 0.78095 0.42736 0.0
H378 H 0.65125 0.78776 0.48201 0.0
H379 H 0.62721 0.87522 0.53585 0.0
H380 H 0.65556 0.84031 0.52761 0.0
H381 H 0.63926 0.92249 0.31288 0.0
H382 H 0.66118 0.88191 0.3033 0.0
H383 H 0.58525 0.92467 0.34305 0.0
H384 H 0.57187 0.93507 0.39817 0.0
C385 C 0.1107 0.61843 0.3305 0.0
C386 C 0.12436 0.66277 0.34918 0.0
C387 C 0.06391 0.64177 0.39775 0.0
C388 C 0.05564 0.59659 0.38627 0.0
N389 N 0.05428 0.54616 0.32279 0.0
N390 N 0.11539 0.71643 0.40335 0.0
C391 C 0.07412 0.58579 0.34702 0.0
C392 C 0.1009 0.67464 0.38292 0.0
N393 N 0.13298 0.60739 0.29745 0.0
N394 N 0.03459 0.65322 0.41997 0.0
H395 H 0.14303 0.74149 0.39474 0.0
H396 H 0.10207 0.72505 0.43195 0.0
H397 H 0.00497 0.62962 0.42556 0.0
H398 H 0.03691 0.68589 0.42627 0.0
H399 H 0.12835 0.5748 0.28727 0.0
H400 H 0.15776 0.63084 0.28176 0.0
H401 H 0.06464 0.53722 0.2922 0.0
H402 H 0.02374 0.52507 0.32906 0.0
C403 C 0.44151 0.90252 0.71992 0.0
C404 C 0.42062 0.85983 0.69795 0.0
C405 C 0.4452 0.8888 0.6226 0.0
C406 C 0.46925 0.93084 0.64499 0.0
N407 N 0.49271 0.97741 0.7154 0.0
N408 N 0.40917 0.81007 0.63078 0.0
C409 C 0.46817 0.93754 0.6939 0.0
C410 C 0.42409 0.85246 0.64991 0.0
N411 N 0.43466 0.90988 0.76514 0.0
N412 N 0.44244 0.88313 0.5751 0.0
H413 H 0.39416 0.78229 0.64967 0.0
H414 H 0.41533 0.80182 0.59753 0.0
H415 H 0.45982 0.90703 0.55329 0.0
H416 H 0.42034 0.85551 0.55677 0.0
H417 H 0.44509 0.94113 0.78196 0.0
H418 H 0.41599 0.88478 0.7852 0.0
H419 H 0.49759 0.98301 0.75146 0.0
H420 H 0.5098 0.00472 0.69697 0.0
C421 C 0.13215 0.39563 0.66245 0.0
C422 C 0.16959 0.39328 0.64462 0.0
C423 C 0.15564 0.4279 0.57319 0.0
C424 C 0.11827 0.43094 0.59105 0.0
N425 N 0.06716 0.41158 0.6495 0.0
N426 N 0.21136 0.39663 0.5791 0.0
C427 C 0.10505 0.41233 0.63444 0.0
C428 C 0.17927 0.4057 0.59855 0.0
N429 N 0.12341 0.38324 0.70699 0.0
N430 N 0.16979 0.44803 0.53294 0.0
H431 H 0.23039 0.38192 0.59712 0.0
H432 H 0.21678 0.4 0.54389 0.0
H433 H 0.15311 0.46348 0.51232 0.0
H434 H 0.19941 0.45197 0.52122 0.0
H435 H 0.10007 0.38929 0.72487 0.0
H436 H 0.14091 0.36811 0.7271 0.0
H437 H 0.0533 0.39409 0.67786 0.0
H438 H 0.04793 0.42646 0.63228 0.0
C439 C 0.6388 0.21577 0.61325 0.0
C440 C 0.64737 0.21191 0.66156 0.0
C441 C 0.59978 0.13384 0.65508 0.0
C442 C 0.58586 0.14013 0.6088 0.0
N443 N 0.59022 0.1882 0.54441 0.0
N444 N 0.63352 0.16845 0.73013 0.0
C445 C 0.60508 0.18135 0.58792 0.0
C446 C 0.62789 0.171 0.68283 0.0
N447 N 0.66354 0.25216 0.59146 0.0
N448 N 0.58529 0.09274 0.67315 0.0
H449 H 0.65352 0.19471 0.75199 0.0
H450 H 0.61588 0.14137 0.74843 0.0
H451 H 0.56247 0.06518 0.65559 0.0
H452 H 0.59823 0.08512 0.70433 0.0
H453 H 0.66177 0.255 0.5554 0.0
H454 H 0.68893 0.27761 0.60909 0.0
H455 H 0.59931 0.2191 0.5297 0.0
H456 H 0.56681 0.16338 0.52387 0.0
C457 C 0.90676 0.76159 0.5978 0.0
C458 C 0.86172 0.74811 0.59639 0.0
C459 C 0.85578 0.67184 0.57647 0.0
C460 C 0.90042 0.68663 0.5716 0.0
N461 N 0.9662 0.74916 0.56626 0.0
N462 N 0.79299 0.69199 0.57448 0.0
C463 C 0.92528 0.73256 0.57896 0.0
C464 C 0.83608 0.70372 0.58255 0.0
N465 N 0.93224 0.80111 0.61935 0.0
N466 N 0.83247 0.62771 0.57882 0.0
H467 H 0.77754 0.71459 0.57783 0.0
H468 H 0.77335 0.66104 0.56003 0.0
H469 H 0.84578 0.60316 0.5788 0.0
H470 H 0.80073 0.61595 0.58669 0.0
H471 H 0.96514 0.81005 0.62534 0.0
H472 H 0.92046 0.82269 0.6361 0.0
H473 H 0.98393 0.78303 0.56699 0.0
H474 H 0.98045 0.73003 0.54916 0.0
C475 C 0.39648 0.42799 0.25583 0.0
C476 C 0.35415 0.397 0.2528 0.0
C477 C 0.34273 0.41821 0.17267 0.0
C478 C 0.3862 0.44683 0.17437 0.0
N479 N 0.44551 0.49431 0.22594 0.0
N480 N 0.28788 0.35877 0.20756 0.0
C481 C 0.41088 0.45608 0.2182 0.0
C482 C 0.32739 0.39134 0.21109 0.0
N483 N 0.42312 0.43088 0.29482 0.0
N484 N 0.31527 0.41963 0.13596 0.0
H485 H 0.27589 0.33829 0.23488 0.0
H486 H 0.26847 0.34928 0.17657 0.0
H487 H 0.32443 0.44228 0.10979 0.0
H488 H 0.2825 0.40277 0.13427 0.0
H489 H 0.45584 0.44836 0.29639 0.0
H490 H 0.41343 0.41285 0.32435 0.0
H491 H 0.46302 0.50409 0.25808 0.0
H492 H 0.45224 0.52023 0.20343 0.0
C493 C 0.41109 0.61852 0.87597 0.0
C494 C 0.43244 0.66434 0.86885 0.0
C495 C 0.49625 0.66182 0.91339 0.0
C496 C 0.47733 0.61492 0.91416 0.0
N497 N 0.41673 0.54782 0.89495 0.0
N498 N 0.49722 0.72871 0.87604 0.0
C499 C 0.43456 0.59302 0.89552 0.0
C500 C 0.47545 0.68586 0.88661 0.0
N501 N 0.36804 0.59973 0.86558 0.0
N502 N 0.53364 0.68358 0.93961 0.0
H503 H 0.48347 0.74741 0.85601 0.0
H504 H 0.52995 0.74442 0.88353 0.0
H505 H 0.54903 0.66718 0.96094 0.0
H506 H 0.54687 0.71797 0.94423 0.0
H507 H 0.3498 0.56786 0.87448 0.0
H508 H 0.34977 0.61739 0.85174 0.0
H509 H 0.38798 0.52958 0.87631 0.0
H510 H 0.43182 0.5281 0.91089 0.0
C511 C 0.4082 0.42357 0.81069 0.0
C512 C 0.37905 0.38267 0.82437 0.0
C513 C 0.41963 0.39312 0.90084 0.0
C514 C 0.44643 0.43599 0.88869 0.0
N515 N 0.46101 0.49524 0.83474 0.0
N516 N 0.35239 0.33186 0.88501 0.0
C517 C 0.43916 0.45212 0.84437 0.0
C518 C 0.38341 0.36841 0.87023 0.0
N519 N 0.40765 0.43436 0.7649 0.0
N520 N 0.43002 0.37477 0.94017 0.0
H521 H 0.32558 0.31288 0.86355 0.0
H522 H 0.35135 0.32265 0.91958 0.0
H523 H 0.45688 0.39088 0.96281 0.0
H524 H 0.4143 0.34189 0.94805 0.0
H525 H 0.43122 0.46118 0.75184 0.0
H526 H 0.38595 0.4142 0.73887 0.0
H527 H 0.45356 0.5102 0.8053 0.0
H528 H 0.48367 0.51763 0.85835 0.0
C529 C 0.70074 0.44829 0.82833 0.0
C530 C 0.71608 0.42115 0.85688 0.0
C531 C 0.68627 0.44393 0.9241 0.0
C532 C 0.66302 0.46271 0.89338 0.0
N533 N 0.64833 0.48256 0.81479 0.0
N534 N 0.7216 0.39061 0.932 0.0
C535 C 0.6706 0.46516 0.84511 0.0
C536 C 0.70904 0.41885 0.90502 0.0
N537 N 0.71576 0.45865 0.78539 0.0
N538 N 0.68661 0.4496 0.97131 0.0
H539 H 0.73829 0.37162 0.91954 0.0
H540 H 0.71256 0.38337 0.96573 0.0
H541 H 0.67071 0.4677 0.987 0.0
H542 H 0.70646 0.44033 0.99492 0.0
H543 H 0.70925 0.48206 0.76485 0.0
H544 H 0.73853 0.4474 0.77255 0.0
H545 H 0.64861 0.47993 0.77865 0.0
H546 H 0.6276 0.49759 0.82529 0.0
C547 C 0.67355 0.5975 0.76577 0.0
C548 C 0.71779 0.61089 0.77866 0.0
C549 C 0.70277 0.59323 0.8597 0.0
C550 C 0.6591 0.5861 0.84794 0.0
N551 N 0.6038 0.58788 0.79064 0.0
N552 N 0.77546 0.62585 0.83862 0.0
C553 C 0.64456 0.58953 0.8011 0.0
C554 C 0.73271 0.6094 0.82573 0.0
N555 N 0.65923 0.5918 0.7196 0.0
N556 N 0.71563 0.58391 0.90311 0.0
H557 H 0.79856 0.63784 0.81495 0.0
H558 H 0.78804 0.63076 0.87325 0.0
H559 H 0.69512 0.57344 0.92955 0.0
H560 H 0.74584 0.58306 0.91176 0.0
H561 H 0.62711 0.57773 0.70794 0.0
H562 H 0.67971 0.59698 0.69287 0.0
H563 H 0.593 0.59503 0.75804 0.0
H564 H 0.58173 0.58357 0.81551 0.0
C565 C 0.62998 0.68683 0.14353 0.0
C566 C 0.65446 0.67219 0.17691 0.0
C567 C 0.61761 0.59539 0.14729 0.0
C568 C 0.58962 0.60949 0.11805 0.0
N569 N 0.56563 0.66789 0.09185 0.0
N570 N 0.66968 0.61259 0.21411 0.0
C571 C 0.59504 0.65508 0.11677 0.0
C572 C 0.64803 0.62647 0.17955 0.0
N573 N 0.6408 0.73116 0.13674 0.0
N574 N 0.61575 0.55251 0.1433 0.0
H575 H 0.6927 0.63441 0.23792 0.0
H576 H 0.66281 0.57941 0.22133 0.0
H577 H 0.59413 0.52919 0.11965 0.0
H578 H 0.63788 0.54102 0.1602 0.0
H579 H 0.62708 0.74377 0.10959 0.0
H580 H 0.66634 0.75534 0.15566 0.0
H581 H 0.56503 0.69986 0.09411 0.0
H582 H 0.53959 0.64583 0.0716 0.0
C583 C 0.40461 0.67426 0.17313 0.0
C584 C 0.36223 0.65389 0.1857 0.0
C585 C 0.36211 0.58129 0.15853 0.0
C586 C 0.4034 0.60217 0.14306 0.0
N587 N 0.45957 0.66969 0.12551 0.0
N588 N 0.29755 0.58955 0.18237 0.0
C589 C 0.42337 0.64903 0.14743 0.0
C590 C 0.34007 0.60778 0.17616 0.0
N591 N 0.42777 0.71721 0.18757 0.0
N592 N 0.34459 0.53613 0.15809 0.0
H593 H 0.28021 0.60793 0.19471 0.0
H594 H 0.27863 0.5572 0.1714 0.0
H595 H 0.3595 0.51591 0.14467 0.0
H596 H 0.317 0.51886 0.17407 0.0
H597 H 0.46028 0.73215 0.18393 0.0
H598 H 0.4156 0.73673 0.20721 0.0
H599 H 0.47312 0.70397 0.12345 0.0
H600 H 0.47363 0.65252 0.10515 0.0
C601 C 0.57 0.40816 0.17717 0.0
C602 C 0.60875 0.40718 0.16154 0.0
C603 C 0.58791 0.42831 0.08422 0.0
C604 C 0.55311 0.43614 0.10268 0.0
N605 N 0.52108 0.44712 0.17266 0.0
N606 N 0.6585 0.42644 0.10143 0.0
C607 C 0.54705 0.43008 0.1509 0.0
C608 C 0.61885 0.41991 0.11528 0.0
N609 N 0.5536 0.38645 0.21581 0.0
N610 N 0.59089 0.42739 0.03714 0.0
H611 H 0.68317 0.42387 0.12365 0.0
H612 H 0.66817 0.43949 0.06946 0.0
H613 H 0.56878 0.43299 0.0133 0.0
H614 H 0.61259 0.41613 0.02194 0.0
H615 H 0.52372 0.38393 0.22598 0.0
H616 H 0.56672 0.366 0.23373 0.0
H617 H 0.51851 0.44614 0.20863 0.0
H618 H 0.50684 0.4673 0.15617 0.0
loop_
_geom_bond_atom_site_label_1
_geom_bond_atom_site_label_2
_geom_bond_distance
_geom_bond_site_symmetry_2
_ccdc_geom_bond_type
O0 Cd1 2.300 . S
O0 C7 1.275 . S
Cd1 O0 2.300 . S
Cd1 O9 2.381 . S
Cd1 O10 2.378 . S
O2 Cd3 2.385 . S
O2 C7 1.255 . S
Cd3 O2 2.385 . S
Cd3 O4 2.317 . S
O4 Cd3 2.317 . S
O4 C5 1.232 . S
C5 O4 1.232 . S
C5 O6 1.218 . S
O6 C5 1.218 . S
C7 O0 1.275 . S
C7 O2 1.255 . S
C8 O9 1.258 . S
C8 O10 1.256 . S
O9 Cd1 2.381 . S
O9 C8 1.258 . S
O10 Cd1 2.378 . S
O10 C8 1.256 . S
O11 Cd12 2.300 . S
O11 C18 1.275 . S
Cd12 O11 2.300 . S
Cd12 O20 2.381 . S
Cd12 O21 2.378 . S
O13 Cd14 2.385 . S
O13 C18 1.255 . S
Cd14 O13 2.385 . S
Cd14 O15 2.317 . S
O15 Cd14 2.317 . S
O15 C16 1.232 . S
C16 O15 1.232 . S
C16 O17 1.218 . S
O17 C16 1.218 . S
C18 O11 1.275 . S
C18 O13 1.255 . S
C19 O20 1.258 . S
C19 O21 1.256 . S
O20 Cd12 2.381 . S
O20 C19 1.258 . S
O21 Cd12 2.378 . S
O21 C19 1.256 . S
O22 Cd23 2.300 . S
O22 C29 1.275 . S
Cd23 O22 2.300 . S
Cd23 O31 2.381 . S
Cd23 O32 2.378 . S
O24 Cd25 2.385 . S
O24 C29 1.255 . S
Cd25 O24 2.385 . S
Cd25 O26 2.317 . S
O26 Cd25 2.317 . S
O26 C27 1.232 . S
C27 O26 1.232 . S
C27 O28 1.218 . S
O28 C27 1.218 . S
C29 O22 1.275 . S
C29 O24 1.255 . S
C30 O31 1.258 . S
C30 O32 1.256 . S
O31 Cd23 2.381 . S
O31 C30 1.258 . S
O32 Cd23 2.378 . S
O32 C30 1.256 . S
O33 Cd34 2.300 . S
O33 C40 1.275 . S
Cd34 O33 2.300 . S
Cd34 O42 2.381 . S
Cd34 O43 2.378 . S
O35 Cd36 2.385 . S
O35 C40 1.255 . S
Cd36 O35 2.385 . S
Cd36 O37 2.317 . S
O37 Cd36 2.317 . S
O37 C38 1.232 . S
C38 O37 1.232 . S
C38 O39 1.218 . S
O39 C38 1.218 . S
C40 O33 1.275 . S
C40 O35 1.255 . S
C41 O42 1.258 . S
C41 O43 1.256 . S
O42 Cd34 2.381 . S
O42 C41 1.258 . S
O43 Cd34 2.378 . S
O43 C41 1.256 . S
O44 Cd45 2.300 . S
O44 C51 1.275 . S
Cd45 O44 2.300 . S
Cd45 O53 2.381 . S
Cd45 O54 2.378 . S
O46 Cd47 2.385 . S
O46 C51 1.255 . S
Cd47 O46 2.385 . S
Cd47 O48 2.317 . S
O48 Cd47 2.317 . S
O48 C49 1.232 . S
C49 O48 1.232 . S
C49 O50 1.218 . S
O50 C49 1.218 . S
C51 O44 1.275 . S
C51 O46 1.255 . S
C52 O53 1.258 . S
C52 O54 1.256 . S
O53 Cd45 2.381 . S
O53 C52 1.258 . S
O54 Cd45 2.378 . S
O54 C52 1.256 . S
O55 Cd56 2.300 . S
O55 C62 1.275 . S
Cd56 O55 2.300 . S
Cd56 O64 2.381 . S
Cd56 O65 2.378 . S
O57 Cd58 2.385 . S
O57 C62 1.255 . S
Cd58 O57 2.385 . S
Cd58 O59 2.317 . S
O59 Cd58 2.317 . S
O59 C60 1.232 . S
C60 O59 1.232 . S
C60 O61 1.218 . S
O61 C60 1.218 . S
C62 O55 1.275 . S
C62 O57 1.255 . S
C63 O64 1.258 . S
C63 O65 1.256 . S
O64 Cd56 2.381 . S
O64 C63 1.258 . S
O65 Cd56 2.378 . S
O65 C63 1.256 . S
O66 Cd67 2.300 . S
O66 C73 1.275 . S
Cd67 O66 2.300 . S
Cd67 O75 2.381 . S
Cd67 O76 2.378 . S
O68 Cd69 2.385 . S
O68 C73 1.255 . S
Cd69 O68 2.385 . S
Cd69 O70 2.317 . S
O70 Cd69 2.317 . S
O70 C71 1.232 . S
C71 O70 1.232 . S
C71 O72 1.218 . S
O72 C71 1.218 . S
C73 O66 1.275 . S
C73 O68 1.255 . S
C74 O75 1.258 . S
C74 O76 1.256 . S
O75 Cd67 2.381 . S
O75 C74 1.258 . S
O76 Cd67 2.378 . S
O76 C74 1.256 . S
O77 Cd78 2.300 . S
O77 C84 1.275 . S
Cd78 O77 2.300 . S
Cd78 O86 2.381 . S
Cd78 O87 2.378 . S
O79 Cd80 2.385 . S
O79 C84 1.255 . S
Cd80 O79 2.385 . S
Cd80 O81 2.317 . S
O81 Cd80 2.317 . S
O81 C82 1.232 . S
C82 O81 1.232 . S
C82 O83 1.218 . S
O83 C82 1.218 . S
C84 O77 1.275 . S
C84 O79 1.255 . S
C85 O86 1.258 . S
C85 O87 1.256 . S
O86 Cd78 2.381 . S
O86 C85 1.258 . S
O87 Cd78 2.378 . S
O87 C85 1.256 . S
Co88 O91 2.042 . S
Co88 O98 2.264 . S
Co88 O117 2.286 . S
Co88 O118 2.069 . S
Co88 O120 2.015 . S
Co89 O91 2.122 . S
Co89 O97 2.073 . S
Co89 O98 2.327 . S
Co89 O99 1.976 . S
Co90 O91 2.087 . S
Co90 O93 2.087 1_455 S
Co90 O100 2.111 . S
Co90 O101 2.143 1_455 S
Co90 O105 2.111 1_455 S
Co90 O119 2.143 . S
O91 Co88 2.042 . S
O91 Co89 2.122 . S
O91 Co90 2.087 . S
O91 H92 0.980 . S
H92 O91 0.980 . S
O93 Co90 2.087 1_655 S
O93 Co94 2.042 . S
O93 Co95 2.122 . S
O93 H96 0.980 1_655 S
Co94 O93 2.042 . S
Co94 O102 2.286 . S
Co94 O103 2.069 . S
Co94 O104 2.015 . S
Co94 O107 2.264 . S
Co95 O93 2.122 . S
Co95 O106 1.976 . S
Co95 O107 2.327 . S
Co95 O108 2.073 . S
H96 O93 0.980 1_455 S
O97 Co89 2.073 . S
O97 C112 1.245 . S
O98 Co88 2.264 . S
O98 Co89 2.327 . S
O98 C112 1.257 . S
O99 Co89 1.976 . S
O99 C111 1.251 . S
O100 Co90 2.111 . S
O100 C111 1.274 . S
O101 Co90 2.143 1_655 S
O101 C114 1.246 . S
O102 Co94 2.286 . S
O102 C113 1.259 . S
O103 Co94 2.069 . S
O103 C113 1.289 . S
O104 Co94 2.015 . S
O104 C114 1.257 . S
O105 Co90 2.111 1_655 S
O105 C115 1.274 . S
O106 Co95 1.976 . S
O106 C115 1.251 . S
O107 Co94 2.264 . S
O107 Co95 2.327 . S
O107 C116 1.257 . S
O108 Co95 2.073 . S
O108 C116 1.245 . S
C109 O117 1.259 . S
C109 O118 1.289 . S
C110 O119 1.246 . S
C110 O120 1.257 . S
C111 O99 1.251 . S
C111 O100 1.274 . S
C112 O97 1.245 . S
C112 O98 1.257 . S
C113 O102 1.259 . S
C113 O103 1.289 . S
C114 O101 1.246 . S
C114 O104 1.257 . S
C115 O105 1.274 . S
C115 O106 1.251 . S
C116 O107 1.257 . S
C116 O108 1.245 . S
O117 Co88 2.286 . S
O117 C109 1.259 . S
O118 Co88 2.069 . S
O118 C109 1.289 . S
O119 Co90 2.143 . S
O119 C110 1.246 . S
O120 Co88 2.015 . S
O120 C110 1.257 . S
Co121 O124 2.042 . S
Co121 O131 2.264 . S
Co121 O150 2.286 . S
Co121 O151 2.069 . S
Co121 O153 2.015 . S
Co122 O124 2.122 . S
Co122 O130 2.073 . S
Co122 O131 2.327 . S
Co122 O132 1.976 . S
Co123 O124 2.087 1_545 S
Co123 O126 2.087 . S
Co123 O133 2.111 1_545 S
Co123 O134 2.143 . S
Co123 O138 2.111 . S
Co123 O152 2.143 1_545 S
O124 Co121 2.042 . S
O124 Co122 2.122 . S
O124 Co123 2.087 1_565 S
O124 H125 0.980 1_565 S
H125 O124 0.980 1_545 S
O126 Co123 2.087 . S
O126 Co127 2.042 . S
O126 Co128 2.122 . S
O126 H129 0.980 . S
Co127 O126 2.042 . S
Co127 O135 2.286 . S
Co127 O136 2.069 . S
Co127 O137 2.015 . S
Co127 O140 2.264 . S
Co128 O126 2.122 . S
Co128 O139 1.976 . S
Co128 O140 2.327 . S
Co128 O141 2.073 . S
H129 O126 0.980 . S
O130 Co122 2.073 . S
O130 C145 1.245 . S
O131 Co121 2.264 . S
O131 Co122 2.327 . S
O131 C145 1.257 . S
O132 Co122 1.976 . S
O132 C144 1.251 . S
O133 Co123 2.111 1_565 S
O133 C144 1.274 . S
O134 Co123 2.143 . S
O134 C147 1.246 . S
O135 Co127 2.286 . S
O135 C146 1.259 . S
O136 Co127 2.069 . S
O136 C146 1.289 . S
O137 Co127 2.015 . S
O137 C147 1.257 . S
O138 Co123 2.111 . S
O138 C148 1.274 . S
O139 Co128 1.976 . S
O139 C148 1.251 . S
O140 Co127 2.264 . S
O140 Co128 2.327 . S
O140 C149 1.257 . S
O141 Co128 2.073 . S
O141 C149 1.245 . S
C142 O150 1.259 . S
C142 O151 1.289 . S
C143 O152 1.246 . S
C143 O153 1.257 . S
C144 O132 1.251 . S
C144 O133 1.274 . S
C145 O130 1.245 . S
C145 O131 1.257 . S
C146 O135 1.259 . S
C146 O136 1.289 . S
C147 O134 1.246 . S
C147 O137 1.257 . S
C148 O138 1.274 . S
C148 O139 1.251 . S
C149 O140 1.257 . S
C149 O141 1.245 . S
O150 Co121 2.286 . S
O150 C142 1.259 . S
O151 Co121 2.069 . S
O151 C142 1.289 . S
O152 Co123 2.143 1_565 S
O152 C143 1.246 . S
O153 Co121 2.015 . S
O153 C143 1.257 . S
Co154 O157 2.042 . S
Co154 O164 2.264 . S
Co154 O183 2.286 . S
Co154 O184 2.069 . S
Co154 O186 2.015 . S
Co155 O157 2.122 . S
Co155 O163 2.073 . S
Co155 O164 2.327 . S
Co155 O165 1.976 . S
Co156 O157 2.087 . S
Co156 O159 2.087 1_554 S
Co156 O166 2.111 . S
Co156 O167 2.143 1_554 S
Co156 O171 2.111 1_554 S
Co156 O185 2.143 . S
O157 Co154 2.042 . S
O157 Co155 2.122 . S
O157 Co156 2.087 . S
O157 H158 0.980 . S
H158 O157 0.980 . S
O159 Co156 2.087 1_556 S
O159 Co160 2.042 . S
O159 Co161 2.122 . S
O159 H162 0.980 . S
Co160 O159 2.042 . S
Co160 O168 2.286 . S
Co160 O169 2.069 . S
Co160 O170 2.015 . S
Co160 O173 2.264 . S
Co161 O159 2.122 . S
Co161 O172 1.976 . S
Co161 O173 2.327 . S
Co161 O174 2.073 . S
H162 O159 0.980 . S
O163 Co155 2.073 . S
O163 C178 1.245 . S
O164 Co154 2.264 . S
O164 Co155 2.327 . S
O164 C178 1.257 . S
O165 Co155 1.976 . S
O165 C177 1.251 . S
O166 Co156 2.111 . S
O166 C177 1.274 . S
O167 Co156 2.143 1_556 S
O167 C180 1.246 . S
O168 Co160 2.286 . S
O168 C179 1.259 . S
O169 Co160 2.069 . S
O169 C179 1.289 . S
O170 Co160 2.015 . S
O170 C180 1.257 . S
O171 Co156 2.111 1_556 S
O171 C181 1.274 . S
O172 Co161 1.976 . S
O172 C181 1.251 . S
O173 Co160 2.264 . S
O173 Co161 2.327 . S
O173 C182 1.257 . S
O174 Co161 2.073 . S
O174 C182 1.245 . S
C175 O183 1.259 . S
C175 O184 1.289 . S
C176 O185 1.246 . S
C176 O186 1.257 . S
C177 O165 1.251 . S
C177 O166 1.274 . S
C178 O163 1.245 . S
C178 O164 1.257 . S
C179 O168 1.259 . S
C179 O169 1.289 . S
C180 O167 1.246 . S
C180 O170 1.257 . S
C181 O171 1.274 . S
C181 O172 1.251 . S
C182 O173 1.257 . S
C182 O174 1.245 . S
O183 Co154 2.286 . S
O183 C175 1.259 . S
O184 Co154 2.069 . S
O184 C175 1.289 . S
O185 Co156 2.143 . S
O185 C176 1.246 . S
O186 Co154 2.015 . S
O186 C176 1.257 . S
C187 C188 1.363 . S
C187 C193 1.379 . S
C187 N195 1.356 . S
C188 C187 1.363 . S
C188 C194 1.363 . S
C189 C190 1.363 . S
C189 C194 1.379 . S
C189 N196 1.356 . S
C190 C189 1.363 . S
C190 C193 1.363 . S
N191 C193 1.356 . S
N191 H203 0.984 . S
N191 H204 0.985 . S
N192 C194 1.356 . S
N192 H197 0.984 . S
N192 H198 0.985 . S
C193 C187 1.379 . S
C193 C190 1.363 . S
C193 N191 1.356 . S
C194 C188 1.363 . S
C194 C189 1.379 . S
C194 N192 1.356 . S
N195 C187 1.356 . S
N195 H201 0.984 . S
N195 H202 0.984 . S
N196 C189 1.356 . S
N196 H199 0.984 . S
N196 H200 0.985 . S
H197 N192 0.984 . S
H198 N192 0.985 . S
H199 N196 0.984 . S
H200 N196 0.985 . S
H201 N195 0.984 . S
H202 N195 0.984 . S
H203 N191 0.984 . S
H204 N191 0.985 . S
C205 C206 1.363 . S
C205 C211 1.379 . S
C205 N213 1.356 . S
C206 C205 1.363 . S
C206 C212 1.363 . S
C207 C208 1.363 . S
C207 C212 1.379 . S
C207 N214 1.356 . S
C208 C207 1.363 . S
C208 C211 1.363 . S
N209 C211 1.356 . S
N209 H221 0.984 . S
N209 H222 0.985 . S
N210 C212 1.356 . S
N210 H215 0.984 . S
N210 H216 0.985 . S
C211 C205 1.379 . S
C211 C208 1.363 . S
C211 N209 1.356 . S
C212 C206 1.363 . S
C212 C207 1.379 . S
C212 N210 1.356 . S
N213 C205 1.356 . S
N213 H219 0.984 . S
N213 H220 0.984 . S
N214 C207 1.356 . S
N214 H217 0.984 . S
N214 H218 0.985 . S
H215 N210 0.984 . S
H216 N210 0.985 . S
H217 N214 0.984 . S
H218 N214 0.985 . S
H219 N213 0.984 . S
H220 N213 0.984 . S
H221 N209 0.984 . S
H222 N209 0.985 . S
C223 C224 1.363 . S
C223 C229 1.379 . S
C223 N231 1.356 . S
C224 C223 1.363 . S
C224 C230 1.363 . S
C225 C226 1.363 . S
C225 C230 1.379 . S
C225 N232 1.356 . S
C226 C225 1.363 . S
C226 C229 1.363 . S
N227 C229 1.356 . S
N227 H239 0.984 . S
N227 H240 0.985 . S
N228 C230 1.356 . S
N228 H233 0.984 . S
N228 H234 0.985 . S
C229 C223 1.379 . S
C229 C226 1.363 . S
C229 N227 1.356 . S
C230 C224 1.363 . S
C230 C225 1.379 . S
C230 N228 1.356 . S
N231 C223 1.356 . S
N231 H237 0.984 . S
N231 H238 0.984 . S
N232 C225 1.356 . S
N232 H235 0.984 . S
N232 H236 0.985 . S
H233 N228 0.984 . S
H234 N228 0.985 . S
H235 N232 0.984 . S
H236 N232 0.985 . S
H237 N231 0.984 . S
H238 N231 0.984 . S
H239 N227 0.984 . S
H240 N227 0.985 . S
C241 C242 1.363 . S
C241 C247 1.379 . S
C241 N249 1.356 . S
C242 C241 1.363 . S
C242 C248 1.363 . S
C243 C244 1.363 . S
C243 C248 1.379 . S
C243 N250 1.356 . S
C244 C243 1.363 . S
C244 C247 1.363 . S
N245 C247 1.356 . S
N245 H257 0.984 . S
N245 H258 0.985 . S
N246 C248 1.356 . S
N246 H251 0.984 . S
N246 H252 0.985 . S
C247 C241 1.379 . S
C247 C244 1.363 . S
C247 N245 1.356 . S
C248 C242 1.363 . S
C248 C243 1.379 . S
C248 N246 1.356 . S
N249 C241 1.356 . S
N249 H255 0.984 . S
N249 H256 0.984 . S
N250 C243 1.356 . S
N250 H253 0.984 . S
N250 H254 0.985 . S
H251 N246 0.984 . S
H252 N246 0.985 . S
H253 N250 0.984 . S
H254 N250 0.985 . S
H255 N249 0.984 . S
H256 N249 0.984 . S
H257 N245 0.984 . S
H258 N245 0.985 . S
C259 C260 1.363 . S
C259 C265 1.379 . S
C259 N267 1.356 . S
C260 C259 1.363 . S
C260 C266 1.363 . S
C261 C262 1.363 . S
C261 C266 1.379 . S
C261 N268 1.356 . S
C262 C261 1.363 . S
C262 C265 1.363 . S
N263 C265 1.356 . S
N263 H275 0.984 . S
N263 H276 0.985 . S
N264 C266 1.356 . S
N264 H269 0.984 . S
N264 H270 0.985 . S
C265 C259 1.379 . S
C265 C262 1.363 . S
C265 N263 1.356 . S
C266 C260 1.363 . S
C266 C261 1.379 . S
C266 N264 1.356 . S
N267 C259 1.356 . S
N267 H273 0.984 . S
N267 H274 0.984 . S
N268 C261 1.356 . S
N268 H271 0.984 . S
N268 H272 0.985 . S
H269 N264 0.984 . S
H270 N264 0.985 . S
H271 N268 0.984 . S
H272 N268 0.985 . S
H273 N267 0.984 . S
H274 N267 0.984 . S
H275 N263 0.984 . S
H276 N263 0.985 . S
C277 C278 1.363 . S
C277 C283 1.379 . S
C277 N285 1.356 . S
C278 C277 1.363 . S
C278 C284 1.363 . S
C279 C280 1.363 . S
C279 C284 1.379 . S
C279 N286 1.356 . S
C280 C279 1.363 . S
C280 C283 1.363 . S
N281 C283 1.356 . S
N281 H293 0.984 . S
N281 H294 0.985 . S
N282 C284 1.356 . S
N282 H287 0.984 . S
N282 H288 0.985 . S
C283 C277 1.379 . S
C283 C280 1.363 . S
C283 N281 1.356 . S
C284 C278 1.363 . S
C284 C279 1.379 . S
C284 N282 1.356 . S
N285 C277 1.356 . S
N285 H291 0.984 . S
N285 H292 0.984 . S
N286 C279 1.356 . S
N286 H289 0.984 . S
N286 H290 0.985 . S
H287 N282 0.984 . S
H288 N282 0.985 . S
H289 N286 0.984 . S
H290 N286 0.985 . S
H291 N285 0.984 . S
H292 N285 0.984 . S
H293 N281 0.984 . S
H294 N281 0.985 . S
C295 C296 1.363 . S
C295 C301 1.379 . S
C295 N303 1.356 . S
C296 C295 1.363 . S
C296 C302 1.363 . S
C297 C298 1.363 . S
C297 C302 1.379 . S
C297 N304 1.356 . S
C298 C297 1.363 . S
C298 C301 1.363 . S
N299 C301 1.356 . S
N299 H311 0.984 . S
N299 H312 0.985 . S
N300 C302 1.356 . S
N300 H305 0.984 . S
N300 H306 0.985 . S
C301 C295 1.379 . S
C301 C298 1.363 . S
C301 N299 1.356 . S
C302 C296 1.363 . S
C302 C297 1.379 . S
C302 N300 1.356 . S
N303 C295 1.356 . S
N303 H309 0.984 . S
N303 H310 0.984 . S
N304 C297 1.356 . S
N304 H307 0.984 . S
N304 H308 0.985 . S
H305 N300 0.984 . S
H306 N300 0.985 . S
H307 N304 0.984 . S
H308 N304 0.985 . S
H309 N303 0.984 . S
H310 N303 0.984 . S
H311 N299 0.984 . S
H312 N299 0.985 . S
C313 C314 1.363 . S
C313 C319 1.379 . S
C313 N321 1.356 . S
C314 C313 1.363 . S
C314 C320 1.363 . S
C315 C316 1.363 . S
C315 C320 1.379 . S
C315 N322 1.356 . S
C316 C315 1.363 . S
C316 C319 1.363 . S
N317 C319 1.356 . S
N317 H329 0.984 . S
N317 H330 0.985 . S
N318 C320 1.356 . S
N318 H323 0.984 . S
N318 H324 0.985 . S
C319 C313 1.379 . S
C319 C316 1.363 . S
C319 N317 1.356 . S
C320 C314 1.363 . S
C320 C315 1.379 . S
C320 N318 1.356 . S
N321 C313 1.356 . S
N321 H327 0.984 . S
N321 H328 0.984 . S
N322 C315 1.356 . S
N322 H325 0.984 . S
N322 H326 0.985 . S
H323 N318 0.984 . S
H324 N318 0.985 . S
H325 N322 0.984 . S
H326 N322 0.985 . S
H327 N321 0.984 . S
H328 N321 0.984 . S
H329 N317 0.984 . S
H330 N317 0.985 . S
C331 C332 1.363 . S
C331 C337 1.379 . S
C331 N339 1.356 . S
C332 C331 1.363 . S
C332 C338 1.363 . S
C333 C334 1.363 . S
C333 C338 1.379 . S
C333 N340 1.356 . S
C334 C333 1.363 . S
C334 C337 1.363 . S
N335 C337 1.356 . S
N335 H347 0.984 . S
N335 H348 0.985 . S
N336 C338 1.356 . S
N336 H341 0.984 . S
N336 H342 0.985 . S
C337 C331 1.379 . S
C337 C334 1.363 . S
C337 N335 1.356 . S
C338 C332 1.363 . S
C338 C333 1.379 . S
C338 N336 1.356 . S
N339 C331 1.356 . S
N339 H345 0.984 . S
N339 H346 0.984 . S
N340 C333 1.356 . S
N340 H343 0.984 . S
N340 H344 0.985 . S
H341 N336 0.984 . S
H342 N336 0.985 . S
H343 N340 0.984 . S
H344 N340 0.985 . S
H345 N339 0.984 . S
H346 N339 0.984 . S
H347 N335 0.984 . S
H348 N335 0.985 . S
C349 C350 1.363 . S
C349 C355 1.379 . S
C349 N357 1.356 . S
C350 C349 1.363 . S
C350 C356 1.363 . S
C351 C352 1.363 . S
C351 C356 1.379 . S
C351 N358 1.356 . S
C352 C351 1.363 . S
C352 C355 1.363 . S
N353 C355 1.356 . S
N353 H365 0.984 . S
N353 H366 0.985 . S
N354 C356 1.356 . S
N354 H359 0.984 . S
N354 H360 0.985 . S
C355 C349 1.379 . S
C355 C352 1.363 . S
C355 N353 1.356 . S
C356 C350 1.363 . S
C356 C351 1.379 . S
C356 N354 1.356 . S
N357 C349 1.356 . S
N357 H363 0.984 . S
N357 H364 0.984 . S
N358 C351 1.356 . S
N358 H361 0.984 . S
N358 H362 0.985 . S
H359 N354 0.984 . S
H360 N354 0.985 . S
H361 N358 0.984 . S
H362 N358 0.985 . S
H363 N357 0.984 . S
H364 N357 0.984 . S
H365 N353 0.984 . S
H366 N353 0.985 . S
C367 C368 1.363 . S
C367 C373 1.379 . S
C367 N375 1.356 . S
C368 C367 1.363 . S
C368 C374 1.363 . S
C369 C370 1.363 . S
C369 C374 1.379 . S
C369 N376 1.356 . S
C370 C369 1.363 . S
C370 C373 1.363 . S
N371 C373 1.356 . S
N371 H383 0.984 . S
N371 H384 0.985 . S
N372 C374 1.356 . S
N372 H377 0.984 . S
N372 H378 0.985 . S
C373 C367 1.379 . S
C373 C370 1.363 . S
C373 N371 1.356 . S
C374 C368 1.363 . S
C374 C369 1.379 . S
C374 N372 1.356 . S
N375 C367 1.356 . S
N375 H381 0.984 . S
N375 H382 0.984 . S
N376 C369 1.356 . S
N376 H379 0.984 . S
N376 H380 0.985 . S
H377 N372 0.984 . S
H378 N372 0.985 . S
H379 N376 0.984 . S
H380 N376 0.985 . S
H381 N375 0.984 . S
H382 N375 0.984 . S
H383 N371 0.984 . S
H384 N371 0.985 . S
C385 C386 1.363 . S
C385 C391 1.379 . S
C385 N393 1.356 . S
C386 C385 1.363 . S
C386 C392 1.363 . S
C387 C388 1.363 . S
C387 C392 1.379 . S
C387 N394 1.356 . S
C388 C387 1.363 . S
C388 C391 1.363 . S
N389 C391 1.356 . S
N389 H401 0.984 . S
N389 H402 0.985 . S
N390 C392 1.356 . S
N390 H395 0.984 . S
N390 H396 0.985 . S
C391 C385 1.379 . S
C391 C388 1.363 . S
C391 N389 1.356 . S
C392 C386 1.363 . S
C392 C387 1.379 . S
C392 N390 1.356 . S
N393 C385 1.356 . S
N393 H399 0.984 . S
N393 H400 0.984 . S
N394 C387 1.356 . S
N394 H397 0.984 . S
N394 H398 0.985 . S
H395 N390 0.984 . S
H396 N390 0.985 . S
H397 N394 0.984 . S
H398 N394 0.985 . S
H399 N393 0.984 . S
H400 N393 0.984 . S
H401 N389 0.984 . S
H402 N389 0.985 . S
C403 C404 1.363 . S
C403 C409 1.379 . S
C403 N411 1.356 . S
C404 C403 1.363 . S
C404 C410 1.363 . S
C405 C406 1.363 . S
C405 C410 1.379 . S
C405 N412 1.356 . S
C406 C405 1.363 . S
C406 C409 1.363 . S
N407 C409 1.356 . S
N407 H419 0.984 . S
N407 H420 0.985 . S
N408 C410 1.356 . S
N408 H413 0.984 . S
N408 H414 0.985 . S
C409 C403 1.379 . S
C409 C406 1.363 . S
C409 N407 1.356 . S
C410 C404 1.363 . S
C410 C405 1.379 . S
C410 N408 1.356 . S
N411 C403 1.356 . S
N411 H417 0.984 . S
N411 H418 0.984 . S
N412 C405 1.356 . S
N412 H415 0.984 . S
N412 H416 0.985 . S
H413 N408 0.984 . S
H414 N408 0.985 . S
H415 N412 0.984 . S
H416 N412 0.985 . S
H417 N411 0.984 . S
H418 N411 0.984 . S
H419 N407 0.984 . S
H420 N407 0.985 . S
C421 C422 1.363 . S
C421 C427 1.379 . S
C421 N429 1.356 . S
C422 C421 1.363 . S
C422 C428 1.363 . S
C423 C424 1.363 . S
C423 C428 1.379 . S
C423 N430 1.356 . S
C424 C423 1.363 . S
C424 C427 1.363 . S
N425 C427 1.356 . S
N425 H437 0.984 . S
N425 H438 0.985 . S
N426 C428 1.356 . S
N426 H431 0.984 . S
N426 H432 0.985 . S
C427 C421 1.379 . S
C427 C424 1.363 . S
C427 N425 1.356 . S
C428 C422 1.363 . S
C428 C423 1.379 . S
C428 N426 1.356 . S
N429 C421 1.356 . S
N429 H435 0.984 . S
N429 H436 0.984 . S
N430 C423 1.356 . S
N430 H433 0.984 . S
N430 H434 0.985 . S
H431 N426 0.984 . S
H432 N426 0.985 . S
H433 N430 0.984 . S
H434 N430 0.985 . S
H435 N429 0.984 . S
H436 N429 0.984 . S
H437 N425 0.984 . S
H438 N425 0.985 . S
C439 C440 1.363 . S
C439 C445 1.379 . S
C439 N447 1.356 . S
C440 C439 1.363 . S
C440 C446 1.363 . S
C441 C442 1.363 . S
C441 C446 1.379 . S
C441 N448 1.356 . S
C442 C441 1.363 . S
C442 C445 1.363 . S
N443 C445 1.356 . S
N443 H455 0.984 . S
N443 H456 0.985 . S
N444 C446 1.356 . S
N444 H449 0.984 . S
N444 H450 0.985 . S
C445 C439 1.379 . S
C445 C442 1.363 . S
C445 N443 1.356 . S
C446 C440 1.363 . S
C446 C441 1.379 . S
C446 N444 1.356 . S
N447 C439 1.356 . S
N447 H453 0.984 . S
N447 H454 0.984 . S
N448 C441 1.356 . S
N448 H451 0.984 . S
N448 H452 0.985 . S
H449 N444 0.984 . S
H450 N444 0.985 . S
H451 N448 0.984 . S
H452 N448 0.985 . S
H453 N447 0.984 . S
H454 N447 0.984 . S
H455 N443 0.984 . S
H456 N443 0.985 . S
C457 C458 1.363 . S
C457 C463 1.379 . S
C457 N465 1.356 . S
C458 C457 1.363 . S
C458 C464 1.363 . S
C459 C460 1.363 . S
C459 C464 1.379 . S
C459 N466 1.356 . S
C460 C459 1.363 . S
C460 C463 1.363 . S
N461 C463 1.356 . S
N461 H473 0.984 . S
N461 H474 0.985 . S
N462 C464 1.356 . S
N462 H467 0.984 . S
N462 H468 0.985 . S
C463 C457 1.379 . S
C463 C460 1.363 . S
C463 N461 1.356 . S
C464 C458 1.363 . S
C464 C459 1.379 . S
C464 N462 1.356 . S
N465 C457 1.356 . S
N465 H471 0.984 . S
N465 H472 0.984 . S
N466 C459 1.356 . S
N466 H469 0.984 . S
N466 H470 0.985 . S
H467 N462 0.984 . S
H468 N462 0.985 . S
H469 N466 0.984 . S
H470 N466 0.985 . S
H471 N465 0.984 . S
H472 N465 0.984 . S
H473 N461 0.984 . S
H474 N461 0.985 . S
C475 C476 1.363 . S
C475 C481 1.379 . S
C475 N483 1.356 . S
C476 C475 1.363 . S
C476 C482 1.363 . S
C477 C478 1.363 . S
C477 C482 1.379 . S
C477 N484 1.356 . S
C478 C477 1.363 . S
C478 C481 1.363 . S
N479 C481 1.356 . S
N479 H491 0.984 . S
N479 H492 0.985 . S
N480 C482 1.356 . S
N480 H485 0.984 . S
N480 H486 0.985 . S
C481 C475 1.379 . S
C481 C478 1.363 . S
C481 N479 1.356 . S
C482 C476 1.363 . S
C482 C477 1.379 . S
C482 N480 1.356 . S
N483 C475 1.356 . S
N483 H489 0.984 . S
N483 H490 0.984 . S
N484 C477 1.356 . S
N484 H487 0.984 . S
N484 H488 0.985 . S
H485 N480 0.984 . S
H486 N480 0.985 . S
H487 N484 0.984 . S
H488 N484 0.985 . S
H489 N483 0.984 . S
H490 N483 0.984 . S
H491 N479 0.984 . S
H492 N479 0.985 . S
C493 C494 1.363 . S
C493 C499 1.379 . S
C493 N501 1.356 . S
C494 C493 1.363 . S
C494 C500 1.363 . S
C495 C496 1.363 . S
C495 C500 1.379 . S
C495 N502 1.356 . S
C496 C495 1.363 . S
C496 C499 1.363 . S
N497 C499 1.356 . S
N497 H509 0.984 . S
N497 H510 0.985 . S
N498 C500 1.356 . S
N498 H503 0.984 . S
N498 H504 0.985 . S
C499 C493 1.379 . S
C499 C496 1.363 . S
C499 N497 1.356 . S
C500 C494 1.363 . S
C500 C495 1.379 . S
C500 N498 1.356 . S
N501 C493 1.356 . S
N501 H507 0.984 . S
N501 H508 0.984 . S
N502 C495 1.356 . S
N502 H505 0.984 . S
N502 H506 0.985 . S
H503 N498 0.984 . S
H504 N498 0.985 . S
H505 N502 0.984 . S
H506 N502 0.985 . S
H507 N501 0.984 . S
H508 N501 0.984 . S
H509 N497 0.984 . S
H510 N497 0.985 . S
C511 C512 1.363 . S
C511 C517 1.379 . S
C511 N519 1.356 . S
C512 C511 1.363 . S
C512 C518 1.363 . S
C513 C514 1.363 . S
C513 C518 1.379 . S
C513 N520 1.356 . S
C514 C513 1.363 . S
C514 C517 1.363 . S
N515 C517 1.356 . S
N515 H527 0.984 . S
N515 H528 0.985 . S
N516 C518 1.356 . S
N516 H521 0.984 . S
N516 H522 0.985 . S
C517 C511 1.379 . S
C517 C514 1.363 . S
C517 N515 1.356 . S
C518 C512 1.363 . S
C518 C513 1.379 . S
C518 N516 1.356 . S
N519 C511 1.356 . S
N519 H525 0.984 . S
N519 H526 0.984 . S
N520 C513 1.356 . S
N520 H523 0.984 . S
N520 H524 0.985 . S
H521 N516 0.984 . S
H522 N516 0.985 . S
H523 N520 0.984 . S
H524 N520 0.985 . S
H525 N519 0.984 . S
H526 N519 0.984 . S
H527 N515 0.984 . S
H528 N515 0.985 . S
C529 C530 1.363 . S
C529 C535 1.379 . S
C529 N537 1.356 . S
C530 C529 1.363 . S
C530 C536 1.363 . S
C531 C532 1.363 . S
C531 C536 1.379 . S
C531 N538 1.356 . S
C532 C531 1.363 . S
C532 C535 1.363 . S
N533 C535 1.356 . S
N533 H545 0.984 . S
N533 H546 0.985 . S
N534 C536 1.356 . S
N534 H539 0.984 . S
N534 H540 0.985 . S
C535 C529 1.379 . S
C535 C532 1.363 . S
C535 N533 1.356 . S
C536 C530 1.363 . S
C536 C531 1.379 . S
C536 N534 1.356 . S
N537 C529 1.356 . S
N537 H543 0.984 . S
N537 H544 0.984 . S
N538 C531 1.356 . S
N538 H541 0.984 . S
N538 H542 0.985 . S
H539 N534 0.984 . S
H540 N534 0.985 . S
H541 N538 0.984 . S
H542 N538 0.985 . S
H543 N537 0.984 . S
H544 N537 0.984 . S
H545 N533 0.984 . S
H546 N533 0.985 . S
C547 C548 1.363 . S
C547 C553 1.379 . S
C547 N555 1.356 . S
C548 C547 1.363 . S
C548 C554 1.363 . S
C549 C550 1.363 . S
C549 C554 1.379 . S
C549 N556 1.356 . S
C550 C549 1.363 . S
C550 C553 1.363 . S
N551 C553 1.356 . S
N551 H563 0.984 . S
N551 H564 0.985 . S
N552 C554 1.356 . S
N552 H557 0.984 . S
N552 H558 0.985 . S
C553 C547 1.379 . S
C553 C550 1.363 . S
C553 N551 1.356 . S
C554 C548 1.363 . S
C554 C549 1.379 . S
C554 N552 1.356 . S
N555 C547 1.356 . S
N555 H561 0.984 . S
N555 H562 0.984 . S
N556 C549 1.356 . S
N556 H559 0.984 . S
N556 H560 0.985 . S
H557 N552 0.984 . S
H558 N552 0.985 . S
H559 N556 0.984 . S
H560 N556 0.985 . S
H561 N555 0.984 . S
H562 N555 0.984 . S
H563 N551 0.984 . S
H564 N551 0.985 . S
C565 C566 1.363 . S
C565 C571 1.379 . S
C565 N573 1.356 . S
C566 C565 1.363 . S
C566 C572 1.363 . S
C567 C568 1.363 . S
C567 C572 1.379 . S
C567 N574 1.356 . S
C568 C567 1.363 . S
C568 C571 1.363 . S
N569 C571 1.356 . S
N569 H581 0.984 . S
N569 H582 0.985 . S
N570 C572 1.356 . S
N570 H575 0.984 . S
N570 H576 0.985 . S
C571 C565 1.379 . S
C571 C568 1.363 . S
C571 N569 1.356 . S
C572 C566 1.363 . S
C572 C567 1.379 . S
C572 N570 1.356 . S
N573 C565 1.356 . S
N573 H579 0.984 . S
N573 H580 0.984 . S
N574 C567 1.356 . S
N574 H577 0.984 . S
N574 H578 0.985 . S
H575 N570 0.984 . S
H576 N570 0.985 . S
H577 N574 0.984 . S
H578 N574 0.985 . S
H579 N573 0.984 . S
H580 N573 0.984 . S
H581 N569 0.984 . S
H582 N569 0.985 . S
C583 C584 1.363 . S
C583 C589 1.379 . S
C583 N591 1.356 . S
C584 C583 1.363 . S
C584 C590 1.363 . S
C585 C586 1.363 . S
C585 C590 1.379 . S
C585 N592 1.356 . S
C586 C585 1.363 . S
C586 C589 1.363 . S
N587 C589 1.356 . S
N587 H599 0.984 . S
N587 H600 0.985 . S
N588 C590 1.356 . S
N588 H593 0.984 . S
N588 H594 0.985 . S
C589 C583 1.379 . S
C589 C586 1.363 . S
C589 N587 1.356 . S
C590 C584 1.363 . S
C590 C585 1.379 . S
C590 N588 1.356 . S
N591 C583 1.356 . S
N591 H597 0.984 . S
N591 H598 0.984 . S
N592 C585 1.356 . S
N592 H595 0.984 . S
N592 H596 0.985 . S
H593 N588 0.984 . S
H594 N588 0.985 . S
H595 N592 0.984 . S
H596 N592 0.985 . S
H597 N591 0.984 . S
H598 N591 0.984 . S
H599 N587 0.984 . S
H600 N587 0.985 . S
C601 C602 1.363 . S
C601 C607 1.379 . S
C601 N609 1.356 . S
C602 C601 1.363 . S
C602 C608 1.363 . S
C603 C604 1.363 . S
C603 C608 1.379 . S
C603 N610 1.356 . S
C604 C603 1.363 . S
C604 C607 1.363 . S
N605 C607 1.356 . S
N605 H617 0.984 . S
N605 H618 0.985 . S
N606 C608 1.356 . S
N606 H611 0.984 . S
N606 H612 0.985 . S
C607 C601 1.379 . S
C607 C604 1.363 . S
C607 N605 1.356 . S
C608 C602 1.363 . S
C608 C603 1.379 . S
C608 N606 1.356 . S
N609 C601 1.356 . S
N609 H615 0.984 . S
N609 H616 0.984 . S
N610 C603 1.356 . S
N610 H613 0.984 . S
N610 H614 0.985 . S
H611 N606 0.984 . S
H612 N606 0.985 . S
H613 N610 0.984 . S
H614 N610 0.985 . S
H615 N609 0.984 . S
H616 N609 0.984 . S
H617 N605 0.984 . S
H618 N605 0.985 . S
C190 C112 1.542 . S
C188 C5 1.385 . S
C208 C148 1.827 . S
C206 C16 1.801 . S
C226 C113 1.213 . S
C224 C30 1.246 . S
C244 C143 1.263 . S
C242 C40 1.181 . S
C262 C110 1.238 . S
C260 C49 1.223 . S
C278 C63 1.483 . S
C280 C146 1.484 . S
C296 C74 0.851 . S
C298 C115 0.804 . S
C316 C145 1.742 . S
C314 C85 1.650 . S
C334 C149 1.496 . S
C332 C8 1.526 . S
C352 C114 1.810 . S
C350 C18 1.849 . S
C370 C142 1.643 . S
C368 C27 1.603 . S
C388 C111 0.859 . S
C386 C38 0.831 . S
C406 C144 1.778 . S
C404 C51 1.938 . S
C422 C60 1.511 . S
C424 C109 1.570 . S
C440 C71 1.248 . S
C442 C147 1.237 . S
C460 C116 1.515 . S
C458 C84 1.553 . S
C478 C178 2.002 . S
C476 C7 2.021 . S
C494 C52 1.988 . S
C496 C181 1.770 . S
C514 C180 1.876 . S
C512 C62 1.862 . S
C530 C73 1.918 . S
C532 C179 1.943 . S
C550 C182 1.673 . S
C548 C82 1.467 . S
C566 C29 1.836 . S
C568 C176 1.807 . S
C586 C175 1.497 . S
C584 C41 1.481 . S
C602 C19 1.964 . S
C604 C177 1.849 . S
