# Generated by pormake.
# Topology zzz, (3,6)-cn, num edge types: 1
# Building blocks:
#     Node 0, Type 0, BuildingBlock: WUSLED_clean_sbu_0, # of connection points: 3
#     Node 1, Type 0, BuildingBlock: WUSLED_clean_sbu_0, # of connection points: 3
#     Node 2, Type 0, BuildingBlock: WUSLED_clean_sbu_0, # of connection points: 3
#     Node 3, Type 0, BuildingBlock: WUSLED_clean_sbu_0, # of connection points: 3
#     Node 4, Type 0, BuildingBlock: WUSLED_clean_sbu_0, # of connection points: 3
#     Node 5, Type 0, BuildingBlock: WUSLED_clean_sbu_0, # of connection points: 3
#     Node 6, Type 0, BuildingBlock: WUSLED_clean_sbu_0, # of connection points: 3
#     Node 7, Type 0, BuildingBlock: WUSLED_clean_sbu_0, # of connection points: 3
#     Node 8, Type 1, BuildingBlock: PAMTOO_clean_sbu_0, # of connection points: 6
#     Node 9, Type 1, BuildingBlock: PAMTOO_clean_sbu_0, # of connection points: 6
#     Node 10, Type 1, BuildingBlock: PAMTOO_clean_sbu_0, # of connection points: 6
#     Node 11, Type 1, BuildingBlock: PAMTOO_clean_sbu_0, # of connection points: 6
#     Edge 12, Type (0, 1), BuildingBlock: ZUJKAS_clean_linker_0, # of connection points: 2
#     Edge 13, Type (0, 1), BuildingBlock: ZUJKAS_clean_linker_0, # of connection points: 2
#     Edge 14, Type (0, 1), BuildingBlock: ZUJKAS_clean_linker_0, # of connection points: 2
#     Edge 15, Type (0, 1), BuildingBlock: ZUJKAS_clean_linker_0, # of connection points: 2
#     Edge 16, Type (0, 1), BuildingBlock: ZUJKAS_clean_linker_0, # of connection points: 2
#     Edge 17, Type (0, 1), BuildingBlock: ZUJKAS_clean_linker_0, # of connection points: 2
#     Edge 18, Type (0, 1), BuildingBlock: ZUJKAS_clean_linker_0, # of connection points: 2
#     Edge 19, Type (0, 1), BuildingBlock: ZUJKAS_clean_linker_0, # of connection points: 2
#     Edge 20, Type (0, 1), BuildingBlock: ZUJKAS_clean_linker_0, # of connection points: 2
#     Edge 21, Type (0, 1), BuildingBlock: ZUJKAS_clean_linker_0, # of connection points: 2
#     Edge 22, Type (0, 1), BuildingBlock: ZUJKAS_clean_linker_0, # of connection points: 2
#     Edge 23, Type (0, 1), BuildingBlock: ZUJKAS_clean_linker_0, # of connection points: 2
#     Edge 24, Type (0, 1), BuildingBlock: ZUJKAS_clean_linker_0, # of connection points: 2
#     Edge 25, Type (0, 1), BuildingBlock: ZUJKAS_clean_linker_0, # of connection points: 2
#     Edge 26, Type (0, 1), BuildingBlock: ZUJKAS_clean_linker_0, # of connection points: 2
#     Edge 27, Type (0, 1), BuildingBlock: ZUJKAS_clean_linker_0, # of connection points: 2
#     Edge 28, Type (0, 1), BuildingBlock: ZUJKAS_clean_linker_0, # of connection points: 2
#     Edge 29, Type (0, 1), BuildingBlock: ZUJKAS_clean_linker_0, # of connection points: 2
#     Edge 30, Type (0, 1), BuildingBlock: ZUJKAS_clean_linker_0, # of connection points: 2
#     Edge 31, Type (0, 1), BuildingBlock: ZUJKAS_clean_linker_0, # of connection points: 2
#     Edge 32, Type (0, 1), BuildingBlock: ZUJKAS_clean_linker_0, # of connection points: 2
#     Edge 33, Type (0, 1), BuildingBlock: ZUJKAS_clean_linker_0, # of connection points: 2
#     Edge 34, Type (0, 1), BuildingBlock: ZUJKAS_clean_linker_0, # of connection points: 2
#     Edge 35, Type (0, 1), BuildingBlock: ZUJKAS_clean_linker_0, # of connection points: 2
# Relax obj value: 0.308
# Max RMSD: 0.259
# Mean RMSD: 0.209
data_MOF--net-zzz--node1-WUSLED_clean_sbu_0--node2-PAMTOO_clean_sbu_0--edge1-ZUJKAS_clean_linker_0
_symmetry_space_group_name_H-M    P1
_symmetry_Int_Tables_number       1
_symmetry_cell_setting            triclinic
loop_
_symmetry_equiv_pos_as_xyz
'x, y, z'
_cell_length_a     82.691139
_cell_length_b     74.009322
_cell_length_c     27.417468
_cell_angle_alpha  90.25209
_cell_angle_beta   83.729067
_cell_angle_gamma 85.248581
loop_
_atom_site_label
_atom_site_type_symbol
_atom_site_fract_x
_atom_site_fract_y
_atom_site_fract_z
_atom_type_partial_charge
C0 C 0.78555 0.53514 0.49738 0.0
C1 C 0.8001 0.53215 0.46563 0.0
C2 C 0.81675 0.53394 0.53444 0.0
C3 C 0.81543 0.53152 0.48386 0.0
C4 C 0.80207 0.53712 0.56592 0.0
C5 C 0.78676 0.5377 0.54765 0.0
U6 U 0.75757 0.53884 0.39318 0.0
O7 O 0.7377 0.5223 0.3772 0.0
O8 O 0.73262 0.5516 0.38822 0.0
C9 C 0.7269 0.53632 0.37618 0.0
C10 C 0.76911 0.53506 0.47918 0.0
C11 C 0.71631 0.53674 0.33521 0.0
C12 C 0.68918 0.53429 0.3091 0.0
C13 C 0.69956 0.53481 0.34631 0.0
C14 C 0.71203 0.5378 0.24814 0.0
C15 C 0.69519 0.53553 0.25911 0.0
C16 C 0.72244 0.53839 0.28565 0.0
C17 C 0.78983 0.54672 0.2756 0.0
C18 C 0.79658 0.54034 0.18899 0.0
C19 C 0.81706 0.55063 0.23737 0.0
C20 C 0.80563 0.55179 0.27873 0.0
C21 C 0.8127 0.54437 0.19272 0.0
C22 C 0.78514 0.54151 0.23043 0.0
C23 C 0.77944 0.54431 0.32091 0.0
O24 O 0.7627 0.55058 0.4638 0.0
O25 O 0.76703 0.52137 0.45046 0.0
O26 O 0.77544 0.52801 0.33332 0.0
O27 O 0.77104 0.55794 0.34543 0.0
H28 H 0.79962 0.53008 0.42669 0.0
H29 H 0.82627 0.52876 0.45816 0.0
H30 H 0.80236 0.53936 0.60484 0.0
H31 H 0.77578 0.54007 0.57304 0.0
H32 H 0.67635 0.53297 0.3199 0.0
H33 H 0.69446 0.53356 0.38413 0.0
H34 H 0.71734 0.53866 0.21045 0.0
H35 H 0.73531 0.53988 0.27586 0.0
H36 H 0.79311 0.53547 0.15462 0.0
H37 H 0.82952 0.55347 0.24096 0.0
H38 H 0.80941 0.55553 0.31378 0.0
H39 H 0.77296 0.5375 0.22779 0.0
C40 C 0.99704 0.74985 0.43265 0.0
C41 C 1.00036 0.76513 0.4041 0.0
C42 C 0.99815 0.78417 0.47796 0.0
C43 C 1.00099 0.78212 0.42662 0.0
C44 C 0.99469 0.76893 0.50634 0.0
C45 C 0.9942 0.75193 0.48388 0.0
U46 U 0.99603 0.71908 0.32013 0.0
O47 O 1.00903 0.69228 0.30179 0.0
O48 O 0.98225 0.69529 0.31077 0.0
C49 C 0.99549 0.68437 0.29905 0.0
C50 C 0.99661 0.7317 0.40988 0.0
C51 C 0.99538 0.67196 0.25672 0.0
C52 C 1.00032 0.64127 0.22287 0.0
C53 C 1.0002 0.65351 0.26197 0.0
C54 C 0.99062 0.66574 0.17241 0.0
C55 C 0.9956 0.6472 0.17743 0.0
C56 C 0.99053 0.67801 0.21166 0.0
C57 C 0.99582 0.7529 0.20568 0.0
C58 C 0.9904 0.75519 0.12054 0.0
C59 C 0.99716 0.78159 0.16455 0.0
C60 C 0.99871 0.77122 0.20602 0.0
C61 C 0.99273 0.7738 0.12173 0.0
C62 C 0.99178 0.74476 0.16278 0.0
C63 C 0.99614 0.74351 0.25224 0.0
O64 O 0.98308 0.72871 0.3913 0.0
O65 O 1.00978 0.72565 0.38139 0.0
O66 O 1.00971 0.73502 0.26421 0.0
O67 O 0.98257 0.73794 0.27441 0.0
H68 H 1.00254 0.7639 0.36448 0.0
H69 H 1.00364 0.7937 0.40398 0.0
H70 H 0.99251 0.77015 0.54595 0.0
H71 H 0.99163 0.74034 0.5066 0.0
H72 H 1.00445 0.6272 0.228 0.0
H73 H 1.004 0.64856 0.29643 0.0
H74 H 0.9867 0.67077 0.13821 0.0
H75 H 0.9867 0.69219 0.20683 0.0
H76 H 0.98719 0.74892 0.08756 0.0
H77 H 0.99942 0.79579 0.16599 0.0
H78 H 1.00186 0.77766 0.23891 0.0
H79 H 0.98951 0.73055 0.16221 0.0
C80 C 0.74438 0.00603 0.35582 0.0
C81 C 0.73001 0.00823 0.3328 0.0
C82 C 0.71351 0.006 0.41199 0.0
C83 C 0.71472 0.00821 0.36063 0.0
C84 C 0.72801 0.00381 0.4346 0.0
C85 C 0.74324 0.00383 0.40679 0.0
U86 U 0.77423 0.00709 0.23665 0.0
O87 O 0.79655 0.02153 0.22377 0.0
O88 O 0.79821 0.99178 0.21997 0.0
C89 C 0.80609 0.00649 0.2154 0.0
C90 C 0.76072 0.00605 0.32803 0.0
C91 C 0.81962 0.00663 0.17544 0.0
C92 C 0.84872 0.0087 0.15305 0.0
C93 C 0.83523 0.00898 0.18861 0.0
C94 C 0.83123 0.00373 0.0898 0.0
C95 C 0.84687 0.00604 0.10342 0.0
C96 C 0.81763 0.00404 0.12564 0.0
C97 C 0.7451 0.00891 0.1276 0.0
C98 C 0.74165 0.00432 0.04213 0.0
C99 C 0.71802 0.01106 0.10221 0.0
C100 C 0.72821 0.01213 0.13901 0.0
C101 C 0.7247 0.00689 0.0538 0.0
C102 C 0.75185 0.00516 0.07917 0.0
C103 C 0.75555 0.00825 0.16677 0.0
O104 O 0.76585 0.99146 0.30145 0.0
O105 O 0.76406 0.02116 0.30552 0.0
O106 O 0.75936 0.02311 0.18767 0.0
O107 O 0.76168 0.99279 0.18312 0.0
H108 H 0.73062 0.0099 0.29341 0.0
H109 H 0.70385 0.00966 0.34178 0.0
H110 H 0.72762 1.00231 0.47397 0.0
H111 H 0.7542 1.00217 0.42524 0.0
H112 H 0.86065 0.01044 0.16436 0.0
H113 H 0.83704 0.01091 0.22679 0.0
H114 H 0.82957 1.00166 0.05158 0.0
H115 H 0.80568 1.00217 0.11462 0.0
H116 H 0.74692 1.00115 0.00484 0.0
H117 H 0.70493 0.01331 0.11154 0.0
H118 H 0.72292 0.015 0.17645 0.0
H119 H 0.76493 0.00262 0.07025 0.0
C120 C 0.56385 0.70366 0.22294 0.0
C121 C 0.55903 0.68708 0.20671 0.0
C122 C 0.56262 0.67342 0.28631 0.0
C123 C 0.55834 0.67217 0.23806 0.0
C124 C 0.56799 0.68993 0.30157 0.0
C125 C 0.56854 0.70486 0.27032 0.0
U126 U 0.56462 0.72201 0.09518 0.0
O127 O 0.55115 0.74529 0.06306 0.0
O128 O 0.57834 0.74287 0.05541 0.0
C129 C 0.56479 0.7519 0.04501 0.0
C130 C 0.56407 0.71965 0.19066 0.0
C131 C 0.56488 0.76959 0.02055 0.0
C132 C 0.5644 0.80249 0.02354 0.0
C133 C 0.56516 0.78572 0.04726 0.0
C134 C 0.56318 0.78708 0.94613 0.0
C135 C 0.5632 0.80345 0.97262 0.0
C136 C 0.56406 0.77037 0.96984 0.0
C137 C 0.56621 0.68185 1.00178 0.0
C138 C 0.57797 0.67793 0.91692 0.0
C139 C 0.5647 0.65354 0.95952 0.0
C140 C 0.56095 0.66442 1.00112 0.0
C141 C 0.57379 0.65994 0.91782 0.0
C142 C 0.57431 0.68887 0.95914 0.0
C143 C 0.56516 0.69088 0.0495 0.0
O144 O 0.57762 0.72075 0.1613 0.0
O145 O 0.55085 0.72331 0.16862 0.0
O146 O 0.5515 0.70056 0.06478 0.0
O147 O 0.57838 0.69808 0.05993 0.0
H148 H 0.55553 0.68575 0.16998 0.0
H149 H 0.55402 0.65984 0.22479 0.0
H150 H 0.57179 0.69139 0.33783 0.0
H151 H 0.57253 0.71742 0.28332 0.0
H152 H 0.56475 0.81467 0.04524 0.0
H153 H 0.56581 0.78537 0.0865 0.0
H154 H 0.56199 0.7871 0.90721 0.0
H155 H 0.56379 0.75804 0.9486 0.0
H156 H 0.58458 0.6832 0.88449 0.0
H157 H 0.56079 0.63991 0.96032 0.0
H158 H 0.55462 0.65888 0.03368 0.0
H159 H 0.57836 0.70242 0.95921 0.0
C160 C 0.24533 0.46137 0.8747 0.0
C161 C 0.23094 0.45693 0.90249 0.0
C162 C 0.21511 0.46282 0.83218 0.0
C163 C 0.21605 0.45767 0.88157 0.0
C164 C 0.22971 0.46696 0.80452 0.0
C165 C 0.24452 0.46628 0.82551 0.0
U166 U 0.27574 0.45783 0.97694 0.0
O167 O 0.30141 0.44621 0.97152 0.0
O168 O 0.29573 0.47539 0.98291 0.0
C169 C 0.30698 0.46175 0.98193 0.0
C170 C 0.26129 0.46144 0.89546 0.0
C171 C 0.3179 0.46176 0.02182 0.0
C172 C 0.34449 0.46706 0.04767 0.0
C173 C 0.33415 0.46583 0.0106 0.0
C174 C 0.32266 0.45967 0.10832 0.0
C175 C 0.3389 0.46417 0.09721 0.0
C176 C 0.31225 0.45858 0.07111 0.0
C177 C 0.24365 0.44917 0.08972 0.0
C178 C 0.23045 0.44304 0.17041 0.0
C179 C 0.21526 0.45966 0.11174 0.0
C180 C 0.22899 0.45777 0.07693 0.0
C181 C 0.21615 0.45308 0.15958 0.0
C182 C 0.2441 0.44114 0.13572 0.0
C183 C 0.2593 0.45142 0.06114 0.0
O184 O 0.26308 0.47504 0.92484 0.0
O185 O 0.26797 0.4459 0.90995 0.0
O186 O 0.26574 0.43835 0.03068 0.0
O187 O 0.26158 0.46781 0.04502 0.0
H188 H 0.23117 0.45311 0.94052 0.0
H189 H 0.2052 0.4546 0.90473 0.0
H190 H 0.22982 0.47064 0.76634 0.0
H191 H 0.25543 0.46972 0.80311 0.0
H192 H 0.35693 0.4703 0.03744 0.0
H193 H 0.33883 0.46832 0.97299 0.0
H194 H 0.31784 0.45749 0.14598 0.0
H195 H 0.29973 0.45552 0.08093 0.0
H196 H 0.23139 0.43752 0.20662 0.0
H197 H 0.20439 0.46746 0.10234 0.0
H198 H 0.2285 0.46408 0.04148 0.0
H199 H 0.25537 0.43451 0.14612 0.0
C200 C 0.04314 0.25406 0.92476 0.0
C201 C 0.04892 0.23829 0.94789 0.0
C202 C 0.04103 0.21927 0.8824 0.0
C203 C 0.04798 0.22112 0.92683 0.0
C204 C 0.03539 0.23524 0.8594 0.0
C205 C 0.03647 0.25237 0.88028 0.0
U206 U 0.04536 0.284 0.03704 0.0
O207 O 0.03061 0.30925 0.06051 0.0
O208 O 0.05725 0.30929 0.04618 0.0
C209 C 0.04338 0.3187 0.06108 0.0
C210 C 0.04325 0.27224 0.94746 0.0
C211 C 0.0433 0.33111 0.1035 0.0
C212 C 0.04599 0.36158 0.13385 0.0
C213 C 0.04696 0.34907 0.09497 0.0
C214 C 0.03771 0.33828 0.1907 0.0
C215 C 0.04125 0.35641 0.18233 0.0
C216 C 0.03876 0.32575 0.15173 0.0
C217 C 0.04994 0.2505 0.1496 0.0
C218 C 0.04266 0.25037 0.23775 0.0
C219 C 0.05353 0.22261 0.19435 0.0
C220 C 0.05499 0.23201 0.15055 0.0
C221 C 0.04694 0.23156 0.23814 0.0
C222 C 0.04417 0.25985 0.19351 0.0
C223 C 0.04864 0.2584 0.10128 0.0
O224 O 0.03046 0.27723 0.97874 0.0
O225 O 0.05706 0.27615 0.96301 0.0
O226 O 0.06126 0.26553 0.07785 0.0
O227 O 0.03437 0.26596 0.09202 0.0
H228 H 0.05406 0.23923 0.98243 0.0
H229 H 0.05276 0.20932 0.94547 0.0
H230 H 0.02971 0.23458 0.82578 0.0
H231 H 0.03183 0.26434 0.862 0.0
H232 H 0.04905 0.37528 0.12583 0.0
H233 H 0.05042 0.35351 0.05796 0.0
H234 H 0.03376 0.33381 0.22729 0.0
H235 H 0.03577 0.31198 0.15917 0.0
H236 H 0.03757 0.25752 0.27121 0.0
H237 H 0.05657 0.20807 0.19336 0.0
H238 H 0.0592 0.22455 0.11678 0.0
H239 H 0.04015 0.27415 0.19323 0.0
C240 C 0.28734 0.00791 0.00518 0.0
C241 C 0.30142 0.00894 0.02891 0.0
C242 C 0.31819 0.00871 0.94962 0.0
C243 C 0.31671 0.00933 1.00138 0.0
C244 C 0.30397 0.00764 0.92621 0.0
C245 C 0.28873 0.00725 0.95376 0.0
U246 U 0.25679 0.00672 0.12341 0.0
O247 O 0.23225 0.02109 0.13601 0.0
O248 O 0.23505 0.99133 0.13476 0.0
C249 C 0.22496 0.00601 0.14181 0.0
C250 C 0.27106 0.00749 0.03282 0.0
C251 C 0.21162 0.00578 0.18233 0.0
C252 C 0.18237 0.00975 0.20726 0.0
C253 C 0.19565 0.01038 0.17132 0.0
C254 C 0.20076 0.99977 0.26653 0.0
C255 C 0.18474 0.00433 0.25508 0.0
C256 C 0.21417 1.00061 0.23043 0.0
C257 C 0.28559 0.00691 0.2324 0.0
C258 C 0.29147 0.0095 0.31646 0.0
C259 C 0.31356 0.00366 0.25085 0.0
C260 C 0.30227 0.00379 0.2165 0.0
C261 C 0.30816 0.00648 0.30095 0.0
C262 C 0.28026 0.0098 0.28224 0.0
C263 C 0.27313 0.00685 0.19899 0.0
O264 O 0.26814 0.99241 0.05606 0.0
O265 O 0.26546 0.02214 0.05859 0.0
O266 O 0.26776 0.02196 0.17891 0.0
O267 O 0.27085 0.99178 0.1761 0.0
H268 H 0.30059 0.0094 0.06862 0.0
H269 H 0.32739 0.00986 0.02074 0.0
H270 H 0.30457 0.00737 0.88656 0.0
H271 H 0.27797 0.00648 0.9348 0.0
H272 H 0.17017 0.01323 0.19745 0.0
H273 H 0.19342 0.01432 0.13447 0.0
H274 H 0.20288 0.99571 0.30337 0.0
H275 H 0.22641 0.99709 0.23989 0.0
H276 H 0.28713 0.01174 0.35492 0.0
H277 H 0.32646 1.0011 0.23854 0.0
H278 H 0.30649 1.00141 0.17802 0.0
H279 H 0.26736 0.01217 0.29474 0.0
C280 C 0.4577 0.30413 0.146 0.0
C281 C 0.45076 0.32167 0.15931 0.0
C282 C 0.46184 0.33318 0.08001 0.0
C283 C 0.45271 0.33604 0.12644 0.0
C284 C 0.46875 0.31549 0.06751 0.0
C285 C 0.46658 0.3012 0.09988 0.0
U286 U 0.4552 0.28321 0.27465 0.0
O287 O 0.44331 0.25894 0.30241 0.0
O288 O 0.47021 0.25937 0.29662 0.0
C289 C 0.4575 0.24994 0.30644 0.0
C290 C 0.45677 0.28873 0.17977 0.0
C291 C 0.45879 0.23415 0.33859 0.0
C292 C 0.4598 0.20136 0.34444 0.0
C293 C 0.45687 0.21718 0.31827 0.0
C294 C 0.46617 0.21926 0.41292 0.0
C295 C 0.46476 0.20211 0.39178 0.0
C296 C 0.4633 0.2352 0.38633 0.0
C297 C 0.45204 0.32456 0.37188 0.0
C298 C 0.44578 0.33257 0.45825 0.0
C299 C 0.4558 0.35472 0.39998 0.0
C300 C 0.45659 0.34204 0.36227 0.0
C301 C 0.45036 0.35022 0.44843 0.0
C302 C 0.44652 0.31977 0.41993 0.0
C303 C 0.45305 0.31221 0.3298 0.0
O304 O 0.46968 0.28527 0.20315 0.0
O305 O 0.44294 0.28742 0.20761 0.0
O306 O 0.44015 0.30409 0.32052 0.0
O307 O 0.46719 0.30394 0.31229 0.0
H308 H 0.44397 0.32428 0.19506 0.0
H309 H 0.44701 0.34934 0.1375 0.0
H310 H 0.47626 0.31262 0.03309 0.0
H311 H 0.47219 0.28781 0.08918 0.0
H312 H 0.4583 0.18849 0.32728 0.0
H313 H 0.45351 0.21611 0.2813 0.0
H314 H 0.47003 0.22034 0.44922 0.0
H315 H 0.46496 0.24821 0.40249 0.0
H316 H 0.44175 0.32868 0.49535 0.0
H317 H 0.46002 0.36791 0.39117 0.0
H318 H 0.46093 0.3459 0.32533 0.0
H319 H 0.44296 0.30624 0.42776 0.0
Dy320 Dy 1.00596 0.01071 0.63854 0.0
Dy321 Dy 0.02711 0.99374 0.72098 0.0
C322 C 0.04462 0.00305 0.61791 0.0
O323 O 1.00013 0.98142 0.63995 0.0
O324 O 0.02372 0.9708 0.67025 0.0
O325 O 1.00225 0.01493 0.56251 0.0
O326 O 0.98557 0.0285 0.61985 0.0
O327 O 1.00107 0.98923 0.74639 0.0
O328 O 0.9898 0.01386 0.70969 0.0
O329 O 0.02344 0.0235 0.74062 0.0
O330 O 0.01938 0.03357 0.66396 0.0
O331 O 0.0313 0.98963 0.79657 0.0
O332 O 0.04759 0.97582 0.73823 0.0
C333 C 0.01077 0.96785 0.64853 0.0
O334 O 0.03066 1.00124 0.6007 0.0
O335 O 0.04546 0.0046 0.66514 0.0
C336 C 0.99434 0.04579 0.55273 0.0
C337 C 1.00088 0.08037 0.51739 0.0
C338 C 0.01291 0.06942 0.5384 0.0
C339 C 1.00969 0.05229 0.55576 0.0
C340 C 0.98214 0.05681 0.53314 0.0
C341 C 0.98538 0.07399 0.51547 0.0
C342 C 0.99092 0.02808 0.57341 0.0
C343 C 0.98889 1.00156 0.74383 0.0
C344 C 0.02239 0.0368 0.7091 0.0
C345 C 0.03887 0.95862 0.80556 0.0
C346 C 0.03177 0.9243 0.84062 0.0
C347 C 0.0192 0.93676 0.82841 0.0
C348 C 0.02272 0.95373 0.81075 0.0
C349 C 0.05155 0.94597 0.81609 0.0
C350 C 0.04802 0.92882 0.83347 0.0
C351 C 0.04243 0.97628 0.78488 0.0
H352 H 0.02484 0.0741 0.54135 0.0
H353 H 0.01921 0.04411 0.57157 0.0
H354 H 0.97015 0.05211 0.5314 0.0
H355 H 0.97589 0.08211 0.49932 0.0
H356 H 1.00661 0.93341 0.83294 0.0
H357 H 0.01278 0.96303 0.80133 0.0
H358 H 0.06411 0.94936 0.81094 0.0
H359 H 0.05787 0.91932 0.84261 0.0
Dy360 Dy 0.51158 0.99111 0.63209 0.0
Dy361 Dy 0.52112 0.01339 0.72574 0.0
C362 C 0.50742 0.03495 0.63364 0.0
O363 O 0.53695 0.9973 0.60697 0.0
O364 O 0.54469 1.00227 0.68332 0.0
O365 O 0.50964 0.98606 0.55551 0.0
O366 O 0.50025 0.96753 0.61067 0.0
O367 O 0.51947 0.98482 0.75026 0.0
O368 O 0.5256 0.97091 0.67538 0.0
O369 O 0.49421 0.01522 0.74376 0.0
O370 O 0.48846 0.9962 0.6826 0.0
O371 O 0.52355 0.01712 0.80258 0.0
O372 O 0.53339 0.03592 0.74876 0.0
C373 C 0.54824 0.9995 0.63588 0.0
O374 O 0.50589 0.01973 0.6106 0.0
O375 O 0.5126 0.03543 0.67708 0.0
C376 C 0.48353 0.97649 0.55093 0.0
C377 C 0.45106 0.98268 0.53148 0.0
C378 C 0.45976 0.99728 0.543 0.0
C379 C 0.47585 0.9942 0.55305 0.0
C380 C 0.47473 0.96186 0.54038 0.0
C381 C 0.45853 0.96494 0.53073 0.0
C382 C 0.49993 0.97324 0.56587 0.0
C383 C 0.5244 0.97029 0.72343 0.0
C384 C 0.48393 0.00624 0.72213 0.0
C385 C 0.54964 0.02658 0.80869 0.0
C386 C 0.58228 0.0206 0.82562 0.0
C387 C 0.57348 0.00589 0.81578 0.0
C388 C 0.55727 0.00887 0.80689 0.0
C389 C 0.55849 0.04129 0.81809 0.0
C390 C 0.57478 0.03832 0.82647 0.0
C391 C 0.53337 0.02991 0.79333 0.0
H392 H 0.45407 0.01103 0.54451 0.0
H393 H 0.48222 0.00565 0.56296 0.0
H394 H 0.48034 0.9481 0.54014 0.0
H395 H 0.45193 0.95352 0.52189 0.0
H396 H 0.5792 0.99215 0.81445 0.0
H397 H 0.5508 0.99737 0.79774 0.0
H398 H 0.55288 0.05504 0.81798 0.0
H399 H 0.58147 0.0498 0.8342 0.0
Dy400 Dy 0.53193 0.50223 0.71052 0.0
Dy401 Dy 0.49528 0.50219 0.6536 0.0
C402 C 0.50545 0.4732 0.73811 0.0
O403 O 0.53917 0.48564 0.64228 0.0
O404 O 0.51376 0.48275 0.6139 0.0
O405 O 0.55592 0.49264 0.73197 0.0
O406 O 0.54371 0.51834 0.76027 0.0
O407 O 0.51279 0.51744 0.60457 0.0
O408 O 0.53067 0.52567 0.65884 0.0
O409 O 0.49306 0.52564 0.70531 0.0
O410 O 0.50821 0.50953 0.75495 0.0
O411 O 0.47642 0.51541 0.61353 0.0
O412 O 0.4748 0.4876 0.63634 0.0
C413 C 0.52967 0.47897 0.61222 0.0
O414 O 0.52092 0.47674 0.73473 0.0
O415 O 0.49392 0.48319 0.7181 0.0
C416 C 0.56782 0.50746 0.79813 0.0
C417 C 0.58934 0.5111 0.87222 0.0
C418 C 0.57287 0.50741 0.88454 0.0
C419 C 0.56225 0.50568 0.84804 0.0
C420 C 0.58421 0.51089 0.78568 0.0
C421 C 0.59479 0.51265 0.82191 0.0
C422 C 0.55686 0.50722 0.75824 0.0
C423 C 0.5241 0.52759 0.61718 0.0
C424 C 0.50001 0.52468 0.74587 0.0
C425 C 0.4596 0.49718 0.5696 0.0
C426 C 0.44057 0.4915 0.49052 0.0
C427 C 0.4551 0.50046 0.48313 0.0
C428 C 0.46445 0.50332 0.52215 0.0
C429 C 0.4453 0.48809 0.57687 0.0
C430 C 0.43592 0.48535 0.53821 0.0
C431 C 0.46813 0.50116 0.61329 0.0
H432 H 0.56797 0.50632 0.92255 0.0
H433 H 0.54964 0.50323 0.8589 0.0
H434 H 0.58883 0.51251 0.74756 0.0
H435 H 0.60731 0.51516 0.81013 0.0
H436 H 0.45933 0.50522 0.44708 0.0
H437 H 0.47538 0.51045 0.51526 0.0
H438 H 0.44111 0.48341 0.6131 0.0
H439 H 0.42475 0.47876 0.54631 0.0
Dy440 Dy 0.02227 0.51764 0.6444 0.0
Dy441 Dy 1.01067 0.48539 0.71908 0.0
C442 C 0.02108 0.47616 0.60545 0.0
O443 O 0.99518 0.52139 0.64036 0.0
O444 O 0.98756 0.49962 0.69599 0.0
O445 O 0.02534 0.52956 0.57255 0.0
O446 O 0.03774 0.53968 0.63119 0.0
O447 O 0.01335 0.50941 0.7657 0.0
O448 O 0.01169 0.53307 0.71233 0.0
O449 O 0.03777 0.48015 0.71856 0.0
O450 O 0.04514 0.50453 0.67197 0.0
O451 O 1.00841 0.47333 0.79085 0.0
O452 O 0.99482 0.4638 0.73404 0.0
C453 C 0.98386 0.51246 0.66499 0.0
O454 O 0.02091 0.49356 0.5968 0.0
O455 O 0.01935 0.46975 0.65007 0.0
C456 C 0.05315 0.53374 0.55527 0.0
C457 C 0.08363 0.52357 0.50259 0.0
C458 C 0.07438 0.51037 0.5255 0.0
C459 C 0.05924 0.51541 0.55158 0.0
C460 C 0.06257 0.547 0.53329 0.0
C461 C 0.07772 0.54192 0.50668 0.0
C462 C 0.03729 0.53866 0.58389 0.0
C463 C 0.0111 0.52679 0.75713 0.0
C464 C 0.04895 0.49032 0.69848 0.0
C465 C 0.98042 0.47031 0.81086 0.0
C466 C 0.94941 0.48224 0.85824 0.0
C467 C 0.96121 0.49461 0.84689 0.0
C468 C 0.97648 0.48873 0.82314 0.0
C469 C 0.96871 0.4579 0.82198 0.0
C470 C 0.95331 0.4638 0.8456 0.0
C471 C 0.99592 0.46482 0.78102 0.0
H472 H 0.07871 0.49614 0.52228 0.0
H473 H 0.05222 0.50495 0.56869 0.0
H474 H 0.05818 0.5612 0.53643 0.0
H475 H 0.08478 0.55224 0.48907 0.0
H476 H 0.95871 0.50884 0.85669 0.0
H477 H 0.98514 0.49869 0.8137 0.0
H478 H 0.97137 0.44374 0.81153 0.0
H479 H 0.94437 0.454 0.85328 0.0
H480 H 0.17433 0.97475 0.30482 0.0
H481 H 0.14987 0.9734 0.36388 0.0
H482 H 0.13876 0.03101 0.34937 0.0
H483 H 0.16266 0.03211 0.28859 0.0
H484 H 0.14209 0.98806 0.4507 0.0
H485 H 0.095 0.01498 0.33552 0.0
H486 H 0.11568 0.00827 0.31014 0.0
H487 H 0.11052 0.03033 0.33847 0.0
C488 C 0.1666 0.98708 0.31433 0.0
C489 C 0.17038 0.00355 0.29245 0.0
C490 C 0.1526 0.98632 0.34793 0.0
C491 C 0.1422 1.00205 0.36071 0.0
C492 C 0.14619 0.01855 0.3392 0.0
H493 H 0.06075 0.03161 0.58264 0.0
H494 H 0.08477 0.03079 0.52083 0.0
C495 C 0.15997 0.01924 0.30492 0.0
C496 C 0.12771 1.00138 0.39829 0.0
H497 H 0.08688 0.0144 0.42191 0.0
C498 C 0.13 0.99366 0.44409 0.0
C499 C 0.11182 0.0086 0.38994 0.0
C500 C 0.10806 0.01582 0.34067 0.0
C501 C 0.11707 0.99346 0.48195 0.0
C502 C 0.10137 1.00117 0.47399 0.0
C503 C 0.09897 0.00868 0.42815 0.0
C504 C 0.08724 1.00156 0.51273 0.0
C505 C 0.12035 0.98538 0.53067 0.0
C506 C 0.08063 0.98542 0.5286 0.0
C507 C 0.06689 0.98591 0.56352 0.0
C508 C 0.05963 0.00253 0.58339 0.0
C509 C 0.06629 0.01865 0.56804 0.0
C510 C 0.07993 0.01818 0.53272 0.0
H511 H 0.13363 0.98304 0.53398 0.0
H512 H 0.11459 0.99438 0.56134 0.0
H513 H 0.11495 0.97216 0.5346 0.0
H514 H 0.08592 0.97247 0.51328 0.0
H515 H 0.06183 0.97334 0.5747 0.0
H516 H 0.48131 0.17088 0.35272 0.0
H517 H 0.48771 0.14251 0.39415 0.0
H518 H 0.46508 0.16619 0.53141 0.0
H519 H 0.45794 0.19446 0.48969 0.0
H520 H 0.50673 0.13583 0.4658 0.0
H521 H 0.444 0.11895 0.53072 0.0
H522 H 0.44807 0.13616 0.48567 0.0
H523 H 0.44815 0.14114 0.54995 0.0
C524 C 0.4774 0.17 0.39159 0.0
C525 C 0.46894 0.18496 0.41775 0.0
C526 C 0.4812 0.15377 0.41531 0.0
C527 C 0.47665 0.15206 0.46579 0.0
C528 C 0.46839 0.16701 0.49223 0.0
H529 H 0.49776 0.06809 0.67684 0.0
H530 H 0.49087 0.09672 0.63604 0.0
C531 C 0.46452 0.18327 0.46845 0.0
C532 C 0.4812 0.13488 0.49087 0.0
H533 H 0.4657 0.10146 0.56309 0.0
C534 C 0.49774 0.12829 0.48687 0.0
C535 C 0.46946 0.12494 0.51812 0.0
C536 C 0.45141 0.13053 0.52103 0.0
C537 C 0.50286 0.11225 0.51007 0.0
C538 C 0.49116 0.10256 0.53803 0.0
C539 C 0.47465 0.10907 0.542 0.0
C540 C 0.49577 0.08538 0.56256 0.0
C541 C 0.52078 0.10587 0.50514 0.0
C542 C 0.50068 0.06954 0.53471 0.0
C543 C 0.50437 0.05314 0.55786 0.0
C544 C 0.50337 0.05232 0.60932 0.0
C545 C 0.49866 0.06829 0.63714 0.0
C546 C 0.49472 0.08464 0.61393 0.0
H547 H 0.52852 0.11636 0.48883 0.0
H548 H 0.52465 0.10213 0.54154 0.0
H549 H 0.52294 0.0936 0.48116 0.0
H550 H 0.50148 0.06983 0.49502 0.0
H551 H 0.50814 0.04113 0.53544 0.0
H552 H 0.34317 0.44269 0.17785 0.0
H553 H 0.36068 0.44709 0.24312 0.0
H554 H 0.37714 0.49502 0.17161 0.0
H555 H 0.35965 0.49081 0.10669 0.0
H556 H 0.39509 0.44947 0.23956 0.0
H557 H 0.36103 0.51351 0.31143 0.0
H558 H 0.35284 0.49842 0.2703 0.0
H559 H 0.36771 0.51349 0.24684 0.0
C560 C 0.35043 0.45424 0.17615 0.0
C561 C 0.34984 0.46646 0.13693 0.0
C562 C 0.36054 0.45669 0.21344 0.0
C563 C 0.37009 0.47158 0.21304 0.0
C564 C 0.36972 0.4836 0.1735 0.0
H565 H 0.43526 0.51352 0.41112 0.0
H566 H 0.41871 0.50844 0.34435 0.0
C567 C 0.35978 0.48107 0.13602 0.0
C568 C 0.38034 0.47465 0.25391 0.0
H569 H 0.38582 0.50495 0.34445 0.0
C570 C 0.39299 0.46157 0.26263 0.0
C571 C 0.37776 0.49046 0.28412 0.0
C572 C 0.36402 0.50473 0.27815 0.0
C573 C 0.40322 0.46399 0.29982 0.0
C574 C 0.40058 0.47977 0.33022 0.0
C575 C 0.38794 0.49286 0.3214 0.0
C576 C 0.41073 0.48287 0.37139 0.0
C577 C 0.41708 0.44982 0.30525 0.0
C578 C 0.41171 0.4704 0.4097 0.0
C579 C 0.42139 0.47313 0.44774 0.0
C580 C 0.43027 0.48858 0.44923 0.0
C581 C 0.42898 0.50125 0.4112 0.0
C582 C 0.41934 0.49845 0.37299 0.0
H583 H 0.4202 0.4413 0.27153 0.0
H584 H 0.42818 0.45619 0.31363 0.0
H585 H 0.41346 0.44076 0.33594 0.0
H586 H 0.40493 0.45848 0.41036 0.0
H587 H 0.42202 0.46289 0.47569 0.0
H588 H 0.04888 0.3506 0.27626 0.0
H589 H 0.04521 0.37187 0.34538 0.0
H590 H 0.0283 0.41441 0.25167 0.0
H591 H 0.03084 0.39288 0.18291 0.0
H592 H 0.0586 0.40176 0.36307 0.0
H593 H 0.9921 0.41935 0.36013 0.0
H594 H 1.00306 0.40143 0.32209 0.0
H595 H 1.00418 0.42477 0.30465 0.0
C596 C 0.04407 0.36438 0.27035 0.0
C597 C 0.03989 0.36983 0.22392 0.0
C598 C 0.04215 0.37661 0.30994 0.0
C599 C 0.0361 0.39468 0.30424 0.0
C600 C 0.03252 0.40043 0.25754 0.0
H601 H 0.01903 0.48518 0.51009 0.0
H602 H 0.02275 0.46533 0.43811 0.0
C603 C 0.03424 0.38811 0.21794 0.0
C604 C 0.0337 0.4073 0.34746 0.0
H605 H 1.00514 0.43509 0.41791 0.0
C606 C 0.04687 0.40896 0.37511 0.0
C607 C 0.01843 0.41688 0.36312 0.0
C608 C 1.0036 0.41542 0.33622 0.0
C609 C 0.04519 0.41978 0.41789 0.0
C610 C 0.02989 0.42905 0.43384 0.0
C611 C 0.01681 0.42775 0.40582 0.0
C612 C 0.02739 0.44077 0.47847 0.0
C613 C 0.05986 0.42149 0.4453 0.0
C614 C 0.02851 0.43349 0.52538 0.0
C615 C 0.02631 0.44485 0.56707 0.0
C616 C 0.02303 0.46368 0.56234 0.0
C617 C 0.0217 0.47079 0.51524 0.0
C618 C 0.02377 0.45946 0.47389 0.0
H619 H 0.07143 0.41652 0.42304 0.0
H620 H 0.06068 0.43582 0.45628 0.0
H621 H 0.05861 0.41335 0.47919 0.0
H622 H 0.03106 0.41903 0.5297 0.0
H623 H 0.02735 0.43894 0.60277 0.0
H624 H 0.86053 0.03459 0.0578 0.0
H625 H 0.88502 0.03379 0.99794 0.0
H626 H 0.89111 0.97556 0.00951 0.0
H627 H 0.86639 0.97639 0.06829 0.0
H628 H 0.91687 0.02198 1.00236 0.0
H629 H 0.89167 0.98109 0.86326 0.0
H630 H 0.87916 0.99123 0.91591 0.0
H631 H 0.89155 0.97035 0.92181 0.0
C632 C 0.86703 0.02164 0.04692 0.0
C633 C 0.86141 0.00551 0.06646 0.0
C634 C 0.88107 0.02118 0.01304 0.0
C635 C 0.88976 0.00457 0.99813 0.0
C636 C 0.88438 0.98849 0.0191 0.0
H637 H 0.97846 0.97402 0.80276 0.0
H638 H 0.95454 0.97501 0.86447 0.0
C639 C 0.87029 0.98895 0.05272 0.0
C640 C 0.90429 0.00406 0.9604 0.0
H641 H 0.91985 0.98579 0.84839 0.0
C642 C 0.91747 0.01413 0.96862 0.0
C643 C 0.90513 0.99389 0.9161 0.0
C644 C 0.89106 0.98367 0.9034 0.0
C645 C 0.93148 0.01402 0.9343 0.0
C646 C 0.93234 0.00367 0.89044 0.0
C647 C 0.91921 0.99364 0.88215 0.0
C648 C 0.94677 0.00312 0.85261 0.0
C649 C 0.94541 0.02473 0.94544 0.0
C650 C 0.95019 0.01849 0.82476 0.0
C651 C 0.96372 0.01789 0.78897 0.0
C652 C 0.97422 1.00195 0.78062 0.0
C653 C 0.9707 0.98654 0.80843 0.0
C654 C 0.95702 0.98708 0.8437 0.0
H655 H 0.94416 0.02933 0.9844 0.0
H656 H 0.95725 0.01649 0.93714 0.0
H657 H 0.94571 0.03688 0.92186 0.0
H658 H 0.94236 0.03096 0.83059 0.0
H659 H 0.96608 0.03002 0.76834 0.0
H660 H 0.54727 0.83564 0.0098 0.0
H661 H 0.54264 0.86416 0.96698 0.0
H662 H 0.56923 0.84053 0.83508 0.0
H663 H 0.57469 0.81216 0.87793 0.0
H664 H 0.56852 0.88619 0.90357 0.0
H665 H 0.51957 0.85873 0.80793 0.0
H666 H 0.52539 0.84963 0.86512 0.0
H667 H 0.53845 0.8448 0.80922 0.0
C668 C 0.55251 0.83651 0.97205 0.0
C669 C 0.56128 0.82135 0.94749 0.0
C670 C 0.54973 0.85286 0.94753 0.0
C671 C 0.55547 0.85438 0.89781 0.0
C672 C 0.56459 0.83956 0.87341 0.0
H673 H 0.53638 0.93745 0.68096 0.0
H674 H 0.54441 0.90938 0.7225 0.0
C675 C 0.56755 0.82327 0.89799 0.0
C676 C 0.55123 0.87114 0.8708 0.0
H677 H 0.52605 0.88846 0.7885 0.0
C678 C 0.55924 0.88673 0.87841 0.0
C679 C 0.53918 0.87174 0.8379 0.0
C680 C 0.53002 0.85541 0.82947 0.0
C681 C 0.55558 0.90291 0.85358 0.0
C682 C 0.54333 0.90361 0.82115 0.0
C683 C 0.53543 0.88793 0.81331 0.0
C684 C 0.53831 0.92059 0.79585 0.0
C685 C 0.56508 0.91902 0.86155 0.0
C686 C 0.53194 0.93614 0.82319 0.0
C687 C 0.5274 0.95219 0.79964 0.0
C688 C 0.52898 0.95305 0.74809 0.0
C689 C 0.53506 0.93733 0.72069 0.0
C690 C 0.53964 0.92125 0.74438 0.0
H691 H 0.57677 0.91493 0.87656 0.0
H692 H 0.56778 0.92637 0.82676 0.0
H693 H 0.55772 0.92854 0.88828 0.0
H694 H 0.53041 0.93585 0.86291 0.0
H695 H 0.52264 0.96395 0.82198 0.0
H696 H 0.69657 0.55161 0.16724 0.0
H697 H 0.67877 0.54835 0.10262 0.0
H698 H 0.65037 0.51289 0.19455 0.0
H699 H 0.66813 0.51575 0.25881 0.0
H700 H 0.67258 0.51925 0.0506 0.0
H701 H 0.61416 0.54657 0.15243 0.0
H702 H 0.63363 0.54939 0.17419 0.0
H703 H 0.62417 0.52846 0.18403 0.0
C704 C 0.68661 0.54302 0.17395 0.0
C705 C 0.68398 0.53403 0.21913 0.0
C706 C 0.67631 0.54126 0.13675 0.0
C707 C 0.6629 0.53061 0.14349 0.0
C708 C 0.66024 0.52162 0.18841 0.0
H709 H 0.58982 0.49494 0.96342 0.0
H710 H 0.60772 0.49976 0.02676 0.0
C711 C 0.67055 0.52331 0.2255 0.0
C712 C 0.65219 0.52825 0.10303 0.0
H713 H 0.61235 0.53103 0.07735 0.0
C714 C 0.65942 0.52199 0.05648 0.0
C715 C 0.63493 0.53176 0.11008 0.0
C716 C 0.62625 0.53959 0.1577 0.0
C717 C 0.65 0.51871 0.01775 0.0
C718 C 0.63274 0.52197 0.02505 0.0
C719 C 0.62551 0.52836 0.07145 0.0
C720 C 0.62196 0.51886 0.98531 0.0
C721 C 0.65864 0.51121 0.96971 0.0
C722 C 0.6237 0.52806 0.94049 0.0
C723 C 0.61329 0.52551 0.90413 0.0
C724 C 0.6007 0.51364 0.91122 0.0
C725 C 0.59905 0.50442 0.95625 0.0
C726 C 0.60943 0.50707 0.9927 0.0
H727 H 0.67115 0.50514 0.97383 0.0
H728 H 0.65168 0.50075 0.95433 0.0
H729 H 0.65971 0.52236 0.94292 0.0
H730 H 0.63294 0.53758 0.93388 0.0
H731 H 0.61493 0.53325 0.87083 0.0
H732 H 0.98743 0.61181 0.17829 0.0
H733 H 0.98987 0.59033 0.10902 0.0
H734 H 1.00748 0.63169 0.01165 0.0
H735 H 1.00561 0.65301 0.08057 0.0
H736 H 0.97507 0.5922 0.02206 0.0
H737 H 0.04233 0.5894 0.98231 0.0
H738 H 0.03159 0.59812 0.03955 0.0
H739 H 0.03294 0.6122 0.98617 0.0
C740 C 0.99198 0.6163 0.14222 0.0
C741 C 0.99638 0.63419 0.13518 0.0
C742 C 0.99327 0.60402 0.10262 0.0
C743 C 0.99911 0.60931 0.05526 0.0
C744 C 1.00324 0.62719 0.048 0.0
H745 H 0.011 0.56409 0.75911 0.0
H746 H 1.00729 0.58409 0.83208 0.0
C747 C 1.00195 0.63946 0.08744 0.0
C748 C 1.00068 0.59639 0.013 0.0
H749 H 0.02792 0.57798 0.91957 0.0
C750 C 0.98663 0.58898 0.99987 0.0
C751 C 0.01583 0.59197 0.98441 0.0
C752 C 0.03157 0.59816 0.99905 0.0
C753 C 0.98725 0.57788 0.9578 0.0
C754 C 1.00226 0.57421 0.9281 0.0
C755 C 0.01636 0.58121 0.94184 0.0
C756 C 1.00375 0.5624 0.8838 0.0
C757 C 0.97185 0.57037 0.94472 0.0
C758 C 1.00306 0.54367 0.88892 0.0
C759 C 1.00527 0.53227 0.84765 0.0
C760 C 1.00822 0.53935 0.80017 0.0
C761 C 1.00872 0.55821 0.79505 0.0
C762 C 1.00661 0.56963 0.83664 0.0
H763 H 0.96083 0.57633 0.96793 0.0
H764 H 0.9703 0.57298 0.90557 0.0
H765 H 0.97278 0.55546 0.94972 0.0
H766 H 1.00105 0.53782 0.92501 0.0
H767 H 1.00479 0.51784 0.85319 0.0
H768 H 0.01744 0.23194 0.29253 0.0
H769 H 1.0084 0.20888 0.35096 0.0
H770 H 0.05724 0.18266 0.33797 0.0
H771 H 0.06635 0.20562 0.2793 0.0
H772 H 0.01536 0.16862 0.31549 0.0
H773 H 0.03804 0.1862 0.49225 0.0
H774 H 0.03343 0.2031 0.44722 0.0
H775 H 0.05157 0.18796 0.43658 0.0
C776 C 0.02636 0.22164 0.30354 0.0
C777 C 0.04259 0.22056 0.28169 0.0
C778 C 0.02116 0.20844 0.33651 0.0
C779 C 0.03219 0.19419 0.34861 0.0
C780 C 0.04862 0.19369 0.32925 0.0
H781 H 0.02865 0.08755 0.4606 0.0
H782 H 0.03512 0.11619 0.42231 0.0
C783 C 0.0538 0.20678 0.2959 0.0
C784 C 0.02623 0.17875 0.37692 0.0
H785 H 0.02712 0.15767 0.48708 0.0
C786 C 0.01772 0.16631 0.35321 0.0
C787 C 0.02952 0.17582 0.42581 0.0
C788 C 0.03857 0.18898 0.45235 0.0
C789 C 0.01271 0.15069 0.37704 0.0
C790 C 0.01618 0.14764 0.42572 0.0
C791 C 0.02442 0.16023 0.44979 0.0
C792 C 0.01231 0.13077 0.4508 0.0
C793 C 1.00412 0.13723 0.34993 0.0
C794 C 0.99735 0.1297 0.47962 0.0
C795 C 0.9936 0.11335 0.5018 0.0
C796 C 1.00482 0.09794 0.49543 0.0
C797 C 0.01986 0.09924 0.46682 0.0
C798 C 0.02356 0.11553 0.44473 0.0
H799 H 1.00184 0.14189 0.31264 0.0
H800 H 0.01163 0.12404 0.34647 0.0
H801 H 0.99227 0.13485 0.37112 0.0
H802 H 0.98856 0.14143 0.48453 0.0
H803 H 0.982 0.11279 0.52401 0.0
H804 H 0.33443 0.02593 0.30009 0.0
H805 H 0.35582 0.02262 0.35511 0.0
H806 H 0.32932 0.98312 0.43888 0.0
H807 H 0.30801 0.98613 0.38314 0.0
H808 H 0.35622 0.02643 0.45495 0.0
H809 H 0.37287 0.95525 0.38976 0.0
H810 H 0.35873 0.97045 0.36094 0.0
H811 H 0.35225 0.95981 0.41773 0.0
C812 C 0.33321 0.01661 0.33038 0.0
C813 C 0.31993 0.00598 0.33712 0.0
C814 C 0.34529 0.01483 0.36185 0.0
C815 C 0.34418 1.00236 0.40012 0.0
C816 C 0.3304 0.99255 0.40884 0.0
H817 H 0.42404 0.96651 0.56827 0.0
H818 H 0.39646 0.97177 0.54312 0.0
C819 C 0.31829 0.99434 0.37732 0.0
C820 C 0.35811 0.99883 0.42829 0.0
H821 H 0.38888 0.96691 0.44617 0.0
C822 C 0.36327 0.01337 0.45371 0.0
C823 C 0.36725 0.98178 0.42578 0.0
C824 C 0.36262 0.96595 0.39676 0.0
C825 C 0.37767 0.01143 0.47606 0.0
C826 C 0.38697 0.99452 0.47265 0.0
C827 C 0.38152 0.97979 0.44879 0.0
C828 C 0.40308 0.99217 0.49003 0.0
C829 C 0.383 0.02753 0.50221 0.0
C830 C 0.41571 1.00182 0.46779 0.0
C831 C 0.43129 0.99892 0.48208 0.0
C832 C 0.43443 0.98612 0.51816 0.0
C833 C 0.42179 0.97639 0.54025 0.0
C834 C 0.40614 0.97942 0.52619 0.0
H835 H 0.37263 0.03783 0.51251 0.0
H836 H 0.3886 0.02327 0.53579 0.0
H837 H 0.39227 0.03406 0.47747 0.0
H838 H 0.41357 0.0113 0.43872 0.0
H839 H 0.44098 0.00632 0.4641 0.0
H840 H 0.46209 0.34413 0.537 0.0
H841 H 0.47417 0.3667 0.58326 0.0
H842 H 0.45525 0.40874 0.49103 0.0
H843 H 0.44175 0.3866 0.44864 0.0
H844 H 0.49767 0.37887 0.53134 0.0
H845 H 0.45915 0.43945 0.60354 0.0
H846 H 0.45031 0.41887 0.58888 0.0
H847 H 0.45505 0.43529 0.54203 0.0
C848 C 0.45957 0.35832 0.52884 0.0
C849 C 0.45154 0.36357 0.48798 0.0
C850 C 0.4666 0.37125 0.5551 0.0
C851 C 0.46602 0.38939 0.53989 0.0
C852 C 0.45587 0.39495 0.50402 0.0
H853 H 0.52908 0.47469 0.51433 0.0
H854 H 0.51441 0.44919 0.49176 0.0
C855 C 0.44835 0.38215 0.47906 0.0
C856 C 0.4791 0.40084 0.55062 0.0
H857 H 0.48737 0.44437 0.57216 0.0
C858 C 0.49531 0.39309 0.54153 0.0
C859 C 0.47616 0.41953 0.5627 0.0
C860 C 0.45919 0.42865 0.57524 0.0
C861 C 0.50858 0.40353 0.54282 0.0
C862 C 0.50562 0.42218 0.55316 0.0
C863 C 0.48952 0.43001 0.56327 0.0
C864 C 0.51906 0.43378 0.55635 0.0
C865 C 0.5257 0.39468 0.53194 0.0
C866 C 0.52795 0.43247 0.59705 0.0
C867 C 0.53664 0.4469 0.60926 0.0
C868 C 0.53551 0.46296 0.58238 0.0
C869 C 0.52982 0.46248 0.53597 0.0
C870 C 0.52104 0.44814 0.52374 0.0
H871 H 0.52588 0.38101 0.51492 0.0
H872 H 0.53329 0.40322 0.50709 0.0
H873 H 0.53138 0.39322 0.56672 0.0
H874 H 0.5266 0.42137 0.62242 0.0
H875 H 0.54115 0.44686 0.64494 0.0
H876 H 0.18301 0.45431 0.15753 0.0
H877 H 0.16183 0.46645 0.2215 0.0
H878 H 0.1988 0.47607 0.31583 0.0
H879 H 0.21999 0.46473 0.25165 0.0
H880 H 0.1538 0.45598 0.3163 0.0
H881 H 0.17427 0.52565 0.31278 0.0
H882 H 0.18196 0.50873 0.26661 0.0
H883 H 0.18971 0.50835 0.32543 0.0
C884 C 0.18659 0.45905 0.19188 0.0
C885 C 0.20314 0.4586 0.19952 0.0
C886 C 0.17452 0.4659 0.2284 0.0
C887 C 0.17881 0.47248 0.27293 0.0
C888 C 0.19527 0.47142 0.28133 0.0
H889 H 0.11291 0.51096 0.53178 0.0
H890 H 0.13741 0.49881 0.47855 0.0
C891 C 0.20733 0.46466 0.24484 0.0
C892 C 0.16605 0.48058 0.31038 0.0
H893 H 0.15268 0.51986 0.37351 0.0
C894 C 0.15359 0.46992 0.32893 0.0
C895 C 0.16584 0.4988 0.32667 0.0
C896 C 0.17857 0.51112 0.30657 0.0
C897 C 0.14081 0.47705 0.36312 0.0
C898 C 0.14055 0.49524 0.379 0.0
C899 C 0.1531 0.50585 0.36127 0.0
C900 C 0.12655 0.50378 0.41105 0.0
C901 C 0.12743 0.4653 0.38147 0.0
C902 C 0.11265 0.5108 0.39026 0.0
C903 C 0.09887 0.51787 0.4203 0.0
C904 C 0.09882 0.5179 0.47142 0.0
C905 C 0.11283 0.51113 0.49229 0.0
C906 C 0.12672 0.50422 0.46213 0.0
H907 H 0.13023 0.45095 0.36919 0.0
H908 H 0.12548 0.46582 0.42219 0.0
H909 H 0.11584 0.47058 0.3677 0.0
H910 H 0.11237 0.51042 0.35085 0.0
H911 H 0.08806 0.52281 0.40375 0.0
H912 H 0.97431 0.80567 0.11947 0.0
H913 H 0.97841 0.82945 0.05895 0.0
H914 H 0.01209 0.7926 0.96791 0.0
H915 H 1.00818 0.7687 0.02893 0.0
H916 H 0.01444 0.8361 0.04156 0.0
H917 H 0.98353 0.82672 0.87361 0.0
H918 H 0.97541 0.81911 0.93321 0.0
H919 H 0.99304 0.80698 0.90089 0.0
C920 C 0.9821 0.80245 0.08564 0.0
C921 C 0.99112 0.78552 0.07892 0.0
C922 C 0.98439 0.816 0.05116 0.0
C923 C 0.99557 0.8127 0.00931 0.0
C924 C 1.0033 0.79525 0.99995 0.0
H925 H 0.04353 0.88968 0.81281 0.0
H926 H 0.03554 0.86142 0.85234 0.0
C927 C 1.00104 0.78164 0.03465 0.0
C928 C 1.00161 0.8282 0.98166 0.0
H929 H 1.0009 0.85059 0.87346 0.0
C930 C 0.01153 0.83927 0.00474 0.0
C931 C 0.99778 0.83211 0.93379 0.0
C932 C 0.98679 0.82071 0.90866 0.0
C933 C 0.01773 0.85433 0.9811 0.0
C934 C 0.01373 0.85842 0.93341 0.0
C935 C 1.004 0.84721 0.90994 0.0
C936 C 0.01859 0.8751 0.90908 0.0
C937 C 0.02845 0.86579 0.00728 0.0
C938 C 0.0116 0.8919 0.92804 0.0
C939 C 0.01605 0.90784 0.9057 0.0
C940 C 0.02759 0.90722 0.86409 0.0
C941 C 0.03468 0.8904 0.84512 0.0
C942 C 0.03009 0.87436 0.86736 0.0
H943 H 0.03326 0.85861 0.03888 0.0
H944 H 0.0389 0.86972 0.98171 0.0
H945 H 0.02122 0.8784 0.02143 0.0
H946 H 1.00264 0.89265 0.96009 0.0
H947 H 1.01052 0.9207 0.92105 0.0
H948 H 0.72454 0.02473 0.96747 0.0
H949 H 0.70296 0.02531 0.91239 0.0
H950 H 0.67891 0.98539 1.00136 0.0
H951 H 0.70027 0.98484 0.05651 0.0
H952 H 0.68513 0.99252 0.86545 0.0
H953 H 0.65079 0.03845 0.00991 0.0
H954 H 0.67283 0.03569 1.00112 0.0
H955 H 0.66158 0.01822 0.03012 0.0
C956 C 0.71487 0.01573 0.9742 0.0
C957 C 0.71376 0.00493 0.01613 0.0
C958 C 0.70269 0.01603 0.94288 0.0
C959 C 0.68954 0.00543 0.95344 0.0
C960 C 0.68911 0.99358 0.99305 0.0
H961 H 0.59301 0.99778 0.89367 0.0
H962 H 0.62061 0.99391 0.91842 0.0
C963 C 0.70116 0.99338 0.02448 0.0
C964 C 0.67497 0.00876 0.92848 0.0
H965 H 0.63609 0.02826 0.94748 0.0
C966 C 0.67444 1.00051 0.88274 0.0
C967 C 0.66124 0.01923 0.95184 0.0
C968 C 0.66156 0.02853 1.00085 0.0
C969 C 0.66001 1.00198 0.86026 0.0
C970 C 0.64618 0.01196 0.88445 0.0
C971 C 0.64689 0.02064 0.92946 0.0
C972 C 0.63043 0.0128 0.86531 0.0
C973 C 0.65935 0.99242 0.81193 0.0
C974 C 0.62717 0.02469 0.82743 0.0
C975 C 0.61146 0.02701 0.81351 0.0
C976 C 0.59906 0.01737 0.83741 0.0
C977 C 0.60252 0.00513 0.8745 0.0
C978 C 0.61816 0.00294 0.88858 0.0
H979 H 0.67085 0.98398 0.79992 0.0
H980 H 0.64904 0.98364 0.81486 0.0
H981 H 0.65712 0.00263 0.78335 0.0
H982 H 0.63662 0.03251 0.80982 0.0
H983 H 0.60893 0.03645 0.78468 0.0
H984 H 0.56669 0.66492 0.82399 0.0
H985 H 0.56143 0.6399 0.77117 0.0
H986 H 0.58423 0.60178 0.86633 0.0
H987 H 0.59005 0.6267 0.91806 0.0
H988 H 0.57936 0.58784 0.76577 0.0
H989 H 0.52556 0.62177 0.88089 0.0
H990 H 0.53596 0.63621 0.83773 0.0
H991 H 0.54617 0.62664 0.88745 0.0
C992 C 0.57164 0.65134 0.83151 0.0
C993 C 0.57819 0.64751 0.87573 0.0
C994 C 0.56869 0.63705 0.80126 0.0
C995 C 0.57194 0.61913 0.81625 0.0
C996 C 0.58151 0.61557 0.85466 0.0
H997 H 0.51091 0.52974 0.83376 0.0
H998 H 0.52949 0.55242 0.85183 0.0
C999 C 0.58469 0.62981 0.88442 0.0
C1000 C 0.56066 0.6057 0.80619 0.0
H1001 H 0.52104 0.59648 0.83458 0.0
C1002 C 0.56657 0.58978 0.78005 0.0
C1003 C 0.5442 0.60795 0.82764 0.0
C1004 C 0.53758 0.62395 0.86042 0.0
C1005 C 0.55608 0.57632 0.77289 0.0
C1006 C 0.53953 0.57917 0.7922 0.0
C1007 C 0.53377 0.59473 0.81944 0.0
C1008 C 0.5277 0.56642 0.78332 0.0
C1009 C 0.56269 0.55894 0.74625 0.0
C1010 C 0.51995 0.56789 0.74056 0.0
C1011 C 0.50915 0.55532 0.73064 0.0
C1012 C 0.50624 0.5411 0.76336 0.0
C1013 C 0.51299 0.54065 0.80819 0.0
C1014 C 0.52375 0.5533 0.81814 0.0
H1015 H 0.57564 0.55931 0.73073 0.0
H1016 H 0.56184 0.54756 0.77234 0.0
H1017 H 0.55525 0.55614 0.71618 0.0
H1018 H 0.52276 0.57832 0.71409 0.0
H1019 H 0.50421 0.55592 0.69562 0.0
H1020 H 0.83289 0.56668 0.14187 0.0
H1021 H 0.85492 0.55766 0.07639 0.0
H1022 H 0.84374 0.50188 0.09168 0.0
H1023 H 0.8215 0.51094 0.15553 0.0
H1024 H 0.88195 0.53342 0.08391 0.0
H1025 H 0.84457 0.50912 0.94457 0.0
H1026 H 0.836 0.52366 0.99564 0.0
H1027 H 0.84012 0.49972 0.00427 0.0
C1028 C 0.83507 0.55258 0.13042 0.0
C1029 C 0.82544 0.53949 0.15239 0.0
C1030 C 0.84758 0.54745 0.09337 0.0
C1031 C 0.8506 0.52919 0.07854 0.0
C1032 C 0.84118 0.5161 0.10145 0.0
H1033 H 0.93208 0.46537 0.93271 0.0
H1034 H 0.90706 0.47738 0.98212 0.0
C1035 C 0.82857 0.52125 0.13785 0.0
C1036 C 0.86416 0.52353 0.04089 0.0
H1037 H 0.87326 0.50046 0.93202 0.0
C1038 C 0.88006 0.52644 0.05036 0.0
C1039 C 0.86155 0.51443 0.9973 0.0
C1040 C 0.84462 0.51168 0.98451 0.0
C1041 C 0.89354 0.51992 0.01794 0.0
C1042 C 0.89094 0.51031 0.97534 0.0
C1043 C 0.87507 0.50779 0.96507 0.0
C1044 C 0.90477 0.50235 0.94193 0.0
C1045 C 0.91052 0.52294 0.02966 0.0
C1046 C 0.91131 0.51234 0.90248 0.0
C1047 C 0.9255 0.50549 0.87389 0.0
C1048 C 0.93335 0.48859 0.8847 0.0
C1049 C 0.92627 0.47833 0.92317 0.0
C1050 C 0.91206 0.48518 0.95157 0.0
H1051 H 0.91042 0.5313 0.06347 0.0
H1052 H 0.9174 0.50967 0.03463 0.0
H1053 H 0.91716 0.52978 0.99854 0.0
H1054 H 0.90571 0.52562 0.89473 0.0
H1055 H 0.93049 0.51356 0.84394 0.0
H1056 H 0.03543 0.18741 0.93092 0.0
H1057 H 0.03274 0.15762 0.89634 0.0
H1058 H 0.03817 0.17951 0.75053 0.0
H1059 H 0.0423 0.20904 0.78458 0.0
H1060 H 0.01105 0.14538 0.84786 0.0
H1061 H 0.06906 0.13648 0.72467 0.0
H1062 H 0.06487 0.15494 0.76853 0.0
H1063 H 0.05621 0.15606 0.71098 0.0
C1064 C 0.03653 0.1859 0.89139 0.0
C1065 C 0.03931 0.20085 0.86085 0.0
C1066 C 0.03476 0.16877 0.87155 0.0
C1067 C 0.03556 0.16598 0.82053 0.0
C1068 C 0.03799 0.18094 0.78988 0.0
H1069 H 0.02333 0.0672 0.65177 0.0
H1070 H 0.02589 0.09851 0.67701 0.0
C1071 C 0.04005 0.19805 0.80966 0.0
C1072 C 0.0333 0.14755 0.80027 0.0
H1073 H 0.05062 0.11388 0.7201 0.0
C1074 C 0.0198 0.13852 0.8201 0.0
C1075 C 0.04449 0.13849 0.7633 0.0
C1076 C 0.05954 0.14692 0.74092 0.0
C1077 C 0.01731 0.12086 0.80483 0.0
C1078 C 0.02872 0.11164 0.76898 0.0
C1079 C 0.04194 0.12081 0.7479 0.0
C1080 C 0.02729 0.09241 0.75358 0.0
C1081 C 1.0023 0.11231 0.82681 0.0
C1082 C 0.02749 0.07832 0.78789 0.0
C1083 C 0.02608 0.06031 0.77352 0.0
C1084 C 0.02449 0.05587 0.72437 0.0
C1085 C 0.02451 0.07 0.68997 0.0
C1086 C 0.02598 0.08798 0.70434 0.0
H1087 H 0.9927 0.12265 0.84314 0.0
H1088 H 0.99712 0.10432 0.79878 0.0
H1089 H 1.00564 0.10301 0.85641 0.0
H1090 H 0.02881 0.08124 0.82591 0.0
H1091 H 0.02614 0.04988 0.80111 0.0
H1092 H 0.34328 0.02885 0.96781 0.0
H1093 H 0.37051 0.02831 0.92305 0.0
H1094 H 0.35736 0.98953 0.81965 0.0
H1095 H 0.33008 0.98972 0.86473 0.0
H1096 H 0.39214 0.9962 0.90863 0.0
H1097 H 0.37979 0.02756 0.73074 0.0
H1098 H 0.36537 0.03056 0.78522 0.0
H1099 H 0.36776 0.00941 0.75191 0.0
C1100 C 0.34613 0.02015 0.93565 0.0
C1101 C 0.33447 0.00919 0.92032 0.0
C1102 C 0.36168 0.01999 0.90982 0.0
C1103 C 0.36594 0.009 0.86781 0.0
C1104 C 0.35426 0.99836 0.85149 0.0
H1105 H 0.459 0.99092 0.68417 0.0
H1106 H 0.43064 0.99085 0.71933 0.0
C1107 C 0.33866 0.99847 0.87742 0.0
C1108 C 0.38302 0.00768 0.844 0.0
H1109 H 0.40707 0.01757 0.73981 0.0
C1110 C 0.39542 1.00089 0.87171 0.0
C1111 C 0.38723 0.01346 0.79551 0.0
C1112 C 0.3744 0.02077 0.76399 0.0
C1113 C 0.41192 0.9999 0.8526 0.0
C1114 C 0.41623 0.00645 0.80491 0.0
C1115 C 0.40379 0.01279 0.77662 0.0
C1116 C 0.43356 0.00676 0.78368 0.0
C1117 C 0.42451 0.99146 0.88342 0.0
C1118 C 0.44467 0.016 0.8077 0.0
C1119 C 0.46102 0.01601 0.78778 0.0
C1120 C 0.46653 0.0069 0.74314 0.0
C1121 C 0.45526 0.998 0.71875 0.0
C1122 C 0.43898 0.99796 0.73875 0.0
H1123 H 0.41903 0.98224 0.91129 0.0
H1124 H 0.43462 0.98366 0.86035 0.0
H1125 H 0.4297 1.00233 0.90322 0.0
H1126 H 0.44069 0.02327 0.84184 0.0
H1127 H 0.46931 0.02306 0.80749 0.0
H1128 H 0.46441 0.36942 0.10074 0.0
H1129 H 0.47024 0.39363 0.04299 0.0
H1130 H 0.47339 0.35543 0.92242 0.0
H1131 H 0.46578 0.33175 0.97888 0.0
H1132 H 0.49577 0.39875 0.98442 0.0
H1133 H 0.44602 0.39385 0.86706 0.0
H1134 H 0.44646 0.38174 0.92383 0.0
H1135 H 0.45798 0.37261 0.86819 0.0
C1136 C 0.4658 0.36622 0.06189 0.0
C1137 C 0.46462 0.34841 0.04497 0.0
C1138 C 0.46938 0.3801 0.0288 0.0
C1139 C 0.47203 0.37653 0.978 0.0
C1140 C 0.47093 0.3588 0.96111 0.0
H1141 H 0.51168 0.43671 0.72596 0.0
H1142 H 0.50397 0.41312 0.78523 0.0
C1143 C 0.46692 0.34506 0.99391 0.0
C1144 C 0.47665 0.39109 0.94288 0.0
H1145 H 0.46832 0.4104 0.83421 0.0
C1146 C 0.48961 0.40139 0.95191 0.0
C1147 C 0.46868 0.39466 0.9002 0.0
C1148 C 0.45391 0.38524 0.88957 0.0
C1149 C 0.49493 0.41482 0.91924 0.0
C1150 C 0.48722 0.41795 0.87621 0.0
C1151 C 0.4743 0.40778 0.86706 0.0
C1152 C 0.49209 0.4321 0.84078 0.0
C1153 C 0.50888 0.42548 0.93049 0.0
C1154 C 0.48775 0.45048 0.85228 0.0
C1155 C 0.49183 0.46384 0.81823 0.0
C1156 C 0.50046 0.459 0.77249 0.0
C1157 C 0.50494 0.44065 0.76104 0.0
C1158 C 0.5006 0.42725 0.7948 0.0
H1159 H 0.51511 0.41968 0.96151 0.0
H1160 H 0.51798 0.4259 0.89765 0.0
H1161 H 0.50415 0.43965 0.94026 0.0
H1162 H 0.48113 0.45447 0.88747 0.0
H1163 H 0.48847 0.47797 0.82785 0.0
H1164 H 0.1885 0.44262 0.85287 0.0
H1165 H 0.16182 0.44659 0.8225 0.0
H1166 H 0.17807 0.48981 0.72971 0.0
H1167 H 0.20472 0.48627 0.76062 0.0
H1168 H 0.14069 0.47669 0.83424 0.0
H1169 H 0.15458 0.46237 0.63444 0.0
H1170 H 0.16888 0.4558 0.67779 0.0
H1171 H 0.16634 0.47895 0.65859 0.0
C1172 C 0.18652 0.45306 0.82617 0.0
C1173 C 0.19901 0.46425 0.81015 0.0
C1174 C 0.17117 0.45519 0.80833 0.0
C1175 C 0.16775 0.46842 0.77334 0.0
C1176 C 0.18031 0.47924 0.75588 0.0
H1177 H 0.07585 0.50619 0.65531 0.0
H1178 H 0.10432 0.501 0.67189 0.0
C1179 C 0.19568 0.47718 0.77391 0.0
C1180 C 0.15066 0.47184 0.75915 0.0
H1181 H 0.12741 0.47332 0.66264 0.0
C1182 C 0.13784 0.47582 0.79667 0.0
C1183 C 0.14677 0.47112 0.71003 0.0
C1184 C 0.15982 0.4667 0.66782 0.0
C1185 C 0.12146 0.47909 0.78687 0.0
C1186 C 0.11742 0.47777 0.73805 0.0
C1187 C 0.13029 0.47414 0.70019 0.0
C1188 C 0.09999 0.48023 0.72594 0.0
C1189 C 0.10872 0.48451 0.8292 0.0
C1190 C 0.08782 0.47004 0.74958 0.0
C1191 C 0.07139 0.47305 0.74033 0.0
C1192 C 0.0666 0.48625 0.70671 0.0
C1193 C 0.0789 0.49601 0.68182 0.0
C1194 C 0.09531 0.493 0.69116 0.0
H1195 H 0.11422 0.49053 0.86005 0.0
H1196 H 0.09912 0.49448 0.81777 0.0
H1197 H 0.1029 0.4723 0.84314 0.0
H1198 H 0.091 0.45972 0.77556 0.0
H1199 H 0.06241 0.46517 0.76011 0.0
H1200 H 0.02531 0.80053 0.4955 0.0
H1201 H 0.02677 0.83073 0.53153 0.0
H1202 H 0.97417 0.83878 0.54793 0.0
H1203 H 0.97279 0.8083 0.51357 0.0
H1204 H 0.01758 0.86241 0.49678 0.0
H1205 H 0.98246 0.85726 0.67926 0.0
H1206 H 0.98966 0.8376 0.64138 0.0
H1207 H 0.9713 0.85102 0.63015 0.0
C1208 C 0.01409 0.80872 0.50742 0.0
C1209 C 0.99895 0.80215 0.50177 0.0
C1210 C 0.0149 0.82598 0.52803 0.0
C1211 C 1.00058 0.83715 0.54326 0.0
C1212 C 0.98542 0.83041 0.53793 0.0
H1213 H 0.98342 0.95354 0.61885 0.0
H1214 H 0.98056 0.92193 0.59492 0.0
C1215 C 0.98462 0.81305 0.5178 0.0
C1216 C 1.00163 0.85625 0.56086 0.0
H1217 H 0.98803 0.88709 0.65317 0.0
C1218 C 0.01117 0.86769 0.53117 0.0
C1219 C 0.99333 0.86336 0.60583 0.0
C1220 C 0.98375 0.85163 0.64126 0.0
C1221 C 0.01242 0.88589 0.54451 0.0
C1222 C 1.00392 0.89308 0.5889 0.0
C1223 C 0.9944 0.8817 0.61884 0.0
C1224 C 1.00533 0.9122 0.6052 0.0
C1225 C 0.02271 0.89745 0.51059 0.0
C1226 C 0.02012 0.91729 0.61946 0.0
C1227 C 0.02176 0.93526 0.63335 0.0
C1228 C 1.00868 0.94877 0.63313 0.0
C1229 C 0.9938 0.94362 0.6191 0.0
C1230 C 0.99212 0.92551 0.60564 0.0
H1231 H 0.02612 0.89095 0.47389 0.0
H1232 H 0.0161 0.9109 0.50591 0.0
H1233 H 0.0341 0.89969 0.52688 0.0
H1234 H 0.03047 0.90732 0.61979 0.0
H1235 H 0.03341 0.93857 0.64397 0.0
H1236 H 0.68528 0.0271 0.40093 0.0
H1237 H 0.65825 0.02536 0.44575 0.0
H1238 H 0.67767 0.98312 0.53594 0.0
H1239 H 0.70475 0.98452 0.49077 0.0
H1240 H 0.64209 0.99234 0.44919 0.0
H1241 H 0.64887 0.01781 0.63666 0.0
H1242 H 0.66264 0.02307 0.58376 0.0
H1243 H 0.66407 1.00084 0.60957 0.0
C1244 C 0.68386 0.01742 0.43025 0.0
C1245 C 0.69724 0.00582 0.44172 0.0
C1246 C 0.66841 0.01657 0.45618 0.0
C1247 C 0.66595 0.00423 0.49448 0.0
C1248 C 0.67932 0.99298 0.50714 0.0
H1249 H 0.57502 0.98478 0.67606 0.0
H1250 H 0.60368 0.98416 0.6414 0.0
C1251 C 0.69481 0.99379 0.48111 0.0
C1252 C 0.6491 1.00196 0.51728 0.0
H1253 H 0.62332 0.00817 0.6232 0.0
C1254 C 0.63797 0.99578 0.48728 0.0
C1255 C 0.64387 0.00602 0.56725 0.0
C1256 C 0.6554 0.0124 0.60137 0.0
C1257 C 0.62171 0.99369 0.50551 0.0
C1258 C 0.61612 0.99872 0.55486 0.0
C1259 C 0.62743 0.00447 0.58529 0.0
C1260 C 0.59862 0.9985 0.57524 0.0
C1261 C 0.61092 0.98565 0.4716 0.0
C1262 C 0.5861 0.0068 0.55003 0.0
C1263 C 0.56971 0.00655 0.56898 0.0
C1264 C 0.5655 0.99874 0.61467 0.0
C1265 C 0.57796 0.99087 0.64067 0.0
C1266 C 0.59434 0.99058 0.62092 0.0
H1267 H 0.61821 0.97651 0.44367 0.0
H1268 H 0.60153 0.97784 0.49199 0.0
H1269 H 0.60473 0.99673 0.45156 0.0
H1270 H 0.58897 0.01373 0.5159 0.0
H1271 H 0.56035 0.01301 0.54864 0.0
H1272 H 0.55337 0.67495 0.38579 0.0
H1273 H 0.54955 0.65001 0.44227 0.0
H1274 H 0.56251 0.61164 0.32281 0.0
H1275 H 0.56748 0.63653 0.26641 0.0
H1276 H 0.52809 0.62632 0.44563 0.0
H1277 H 0.58893 0.58818 0.42156 0.0
H1278 H 0.58536 0.61058 0.39721 0.0
H1279 H 0.58033 0.59099 0.36457 0.0
C1280 C 0.55589 0.66124 0.37146 0.0
C1281 C 0.56084 0.65793 0.32117 0.0
C1282 C 0.55351 0.64692 0.40395 0.0
C1283 C 0.55591 0.62882 0.38725 0.0
C1284 C 0.56092 0.6254 0.33713 0.0
H1285 H 0.52121 0.53056 0.51878 0.0
H1286 H 0.52946 0.55508 0.464 0.0
C1287 C 0.56349 0.63974 0.30461 0.0
C1288 C 0.55212 0.61375 0.42179 0.0
H1289 H 0.56723 0.5729 0.46383 0.0
C1290 C 0.53674 0.61474 0.44973 0.0
C1291 C 0.56339 0.59858 0.4277 0.0
C1292 C 0.58048 0.59708 0.40155 0.0
C1293 C 0.53224 0.60095 0.48236 0.0
C1294 C 0.54329 0.58564 0.48706 0.0
C1295 C 0.55872 0.58462 0.45976 0.0
C1296 C 0.53887 0.57052 0.52009 0.0
C1297 C 0.51565 0.6027 0.51164 0.0
C1298 C 0.54153 0.57104 0.56973 0.0
C1299 C 0.53695 0.55699 0.60108 0.0
C1300 C 0.52945 0.54221 0.5835 0.0
C1301 C 0.52686 0.54176 0.53363 0.0
C1302 C 0.53161 0.55573 0.50222 0.0
H1303 H 0.50831 0.61536 0.50341 0.0
H1304 H 0.50883 0.59091 0.50373 0.0
H1305 H 0.51708 0.60258 0.55144 0.0
H1306 H 0.54704 0.58241 0.5843 0.0
H1307 H 0.53905 0.55786 0.63929 0.0
H1308 H 0.82549 0.521 0.62385 0.0
H1309 H 0.85235 0.51926 0.65418 0.0
H1310 H 0.87277 0.54216 0.51933 0.0
H1311 H 0.84595 0.54482 0.48986 0.0
H1312 H 0.88037 0.50078 0.62355 0.0
H1313 H 0.89189 0.57297 0.61369 0.0
H1314 H 0.87199 0.56528 0.60885 0.0
H1315 H 0.88696 0.56496 0.5558 0.0
C1316 C 0.83558 0.52603 0.60084 0.0
C1317 C 0.83327 0.53308 0.55403 0.0
C1318 C 0.85108 0.52488 0.61824 0.0
C1319 C 0.86478 0.53085 0.58965 0.0
C1320 C 0.86249 0.53785 0.54301 0.0
H1321 H 0.97037 0.52985 0.58789 0.0
H1322 H 0.9415 0.53397 0.57383 0.0
C1323 C 0.84704 0.53907 0.52568 0.0
C1324 C 0.88157 0.52905 0.60713 0.0
H1325 H 0.91547 0.55204 0.61671 0.0
C1326 C 0.88798 0.51205 0.62244 0.0
C1327 C 0.89161 0.54372 0.60682 0.0
C1328 C 0.88519 0.56279 0.59598 0.0
C1329 C 0.90421 0.50908 0.63441 0.0
C1330 C 0.91457 0.52358 0.63154 0.0
C1331 C 0.9079 0.54074 0.61804 0.0
C1332 C 0.93233 0.5213 0.64121 0.0
C1333 C 0.91017 0.49017 0.64827 0.0
C1334 C 0.93715 0.51321 0.68434 0.0
C1335 C 0.95374 0.51057 0.69203 0.0
C1336 C 0.96612 0.5164 0.65755 0.0
C1337 C 0.96128 0.52518 0.61537 0.0
C1338 C 0.94468 0.52752 0.60728 0.0
H1339 H 0.90263 0.47983 0.63498 0.0
H1340 H 0.92307 0.48673 0.63321 0.0
H1341 H 0.90926 0.48927 0.68886 0.0
H1342 H 0.9281 0.50892 0.71242 0.0
H1343 H 0.95685 0.50395 0.72533 0.0
loop_
_geom_bond_atom_site_label_1
_geom_bond_atom_site_label_2
_geom_bond_distance
_geom_bond_site_symmetry_2
_ccdc_geom_bond_type
C0 C1 1.264 . S
C0 C5 1.479 . S
C0 C10 1.465 . S
C1 C0 1.264 . S
C1 C3 1.339 . S
C1 H28 0.931 . S
C2 C3 1.395 . S
C2 C4 1.320 . S
C3 C1 1.339 . S
C3 C2 1.395 . S
C3 H29 0.929 . S
C4 C2 1.320 . S
C4 C5 1.405 . S
C4 H30 0.930 . S
C5 C0 1.479 . S
C5 C4 1.405 . S
C5 H31 0.931 . S
U6 O7 2.454 . S
U6 O8 2.458 . S
U6 C9 2.984 . S
U6 C10 2.847 . S
U6 C23 2.882 . S
U6 O24 2.441 . S
U6 O25 2.420 . S
U6 O26 2.455 . S
U6 O27 2.449 . S
O7 U6 2.454 . S
O7 C9 1.353 . S
O8 U6 2.458 . S
O8 C9 1.286 . S
C9 U6 2.984 . S
C9 O7 1.353 . S
C9 O8 1.286 . S
C9 C11 1.363 . S
C10 C0 1.465 . S
C10 U6 2.847 . S
C10 O24 1.249 . S
C10 O25 1.202 . S
C11 C9 1.363 . S
C11 C13 1.408 . S
C11 C16 1.342 . S
C12 C13 1.310 . S
C12 C15 1.461 . S
C12 H32 0.932 . S
C13 C11 1.408 . S
C13 C12 1.310 . S
C13 H33 0.930 . S
C14 C15 1.474 . S
C14 C16 1.285 . S
C14 H34 0.929 . S
C15 C12 1.461 . S
C15 C14 1.474 . S
C16 C11 1.342 . S
C16 C14 1.285 . S
C16 H35 0.930 . S
C17 C20 1.424 . S
C17 C22 1.245 . S
C17 C23 1.428 . S
C18 C21 1.260 . S
C18 C22 1.477 . S
C18 H36 0.932 . S
C19 C20 1.384 . S
C19 C21 1.479 . S
C19 H37 0.929 . S
C20 C17 1.424 . S
C20 C19 1.384 . S
C20 H38 0.928 . S
C21 C18 1.260 . S
C21 C19 1.479 . S
C22 C17 1.245 . S
C22 C18 1.477 . S
C22 H39 0.932 . S
C23 U6 2.882 . S
C23 C17 1.428 . S
C23 O26 1.301 . S
C23 O27 1.282 . S
O24 U6 2.441 . S
O24 C10 1.249 . S
O25 U6 2.420 . S
O25 C10 1.202 . S
O26 U6 2.455 . S
O26 C23 1.301 . S
O27 U6 2.449 . S
O27 C23 1.282 . S
H28 C1 0.931 . S
H29 C3 0.929 . S
H30 C4 0.930 . S
H31 C5 0.931 . S
H32 C12 0.932 . S
H33 C13 0.930 . S
H34 C14 0.929 . S
H35 C16 0.930 . S
H36 C18 0.932 . S
H37 C19 0.929 . S
H38 C20 0.928 . S
H39 C22 0.932 . S
C40 C41 1.264 . S
C40 C45 1.479 . S
C40 C50 1.465 . S
C41 C40 1.264 . S
C41 C43 1.339 . S
C41 H68 0.931 . S
C42 C43 1.395 . S
C42 C44 1.320 . S
C43 C41 1.339 . S
C43 C42 1.395 . S
C43 H69 0.929 . S
C44 C42 1.320 . S
C44 C45 1.405 . S
C44 H70 0.930 . S
C45 C40 1.479 . S
C45 C44 1.405 . S
C45 H71 0.931 . S
U46 O47 2.454 . S
U46 O48 2.458 . S
U46 C49 2.984 . S
U46 C50 2.847 . S
U46 C63 2.882 . S
U46 O64 2.441 . S
U46 O65 2.420 . S
U46 O66 2.455 . S
U46 O67 2.449 . S
O47 U46 2.454 . S
O47 C49 1.353 . S
O48 U46 2.458 . S
O48 C49 1.286 . S
C49 U46 2.984 . S
C49 O47 1.353 . S
C49 O48 1.286 . S
C49 C51 1.363 . S
C50 C40 1.465 . S
C50 U46 2.847 . S
C50 O64 1.249 . S
C50 O65 1.202 . S
C51 C49 1.363 . S
C51 C53 1.408 . S
C51 C56 1.342 . S
C52 C53 1.310 . S
C52 C55 1.461 . S
C52 H72 0.932 . S
C53 C51 1.408 . S
C53 C52 1.310 . S
C53 H73 0.930 . S
C54 C55 1.474 . S
C54 C56 1.285 . S
C54 H74 0.929 . S
C55 C52 1.461 . S
C55 C54 1.474 . S
C56 C51 1.342 . S
C56 C54 1.285 . S
C56 H75 0.930 . S
C57 C60 1.424 . S
C57 C62 1.245 . S
C57 C63 1.428 . S
C58 C61 1.260 . S
C58 C62 1.477 . S
C58 H76 0.932 . S
C59 C60 1.384 . S
C59 C61 1.479 . S
C59 H77 0.929 . S
C60 C57 1.424 . S
C60 C59 1.384 . S
C60 H78 0.928 . S
C61 C58 1.260 . S
C61 C59 1.479 . S
C62 C57 1.245 . S
C62 C58 1.477 . S
C62 H79 0.932 . S
C63 U46 2.882 . S
C63 C57 1.428 . S
C63 O66 1.301 . S
C63 O67 1.282 . S
O64 U46 2.441 . S
O64 C50 1.249 . S
O65 U46 2.420 . S
O65 C50 1.202 . S
O66 U46 2.455 . S
O66 C63 1.301 . S
O67 U46 2.449 . S
O67 C63 1.282 . S
H68 C41 0.931 . S
H69 C43 0.929 . S
H70 C44 0.930 . S
H71 C45 0.931 . S
H72 C52 0.932 . S
H73 C53 0.930 . S
H74 C54 0.929 . S
H75 C56 0.930 . S
H76 C58 0.932 . S
H77 C59 0.929 . S
H78 C60 0.928 . S
H79 C62 0.932 . S
C80 C81 1.264 . S
C80 C85 1.479 . S
C80 C90 1.465 . S
C81 C80 1.264 . S
C81 C83 1.339 . S
C81 H108 0.931 . S
C82 C83 1.395 . S
C82 C84 1.320 . S
C83 C81 1.339 . S
C83 C82 1.395 . S
C83 H109 0.929 . S
C84 C82 1.320 . S
C84 C85 1.405 . S
C84 H110 0.923 1_545 S
C85 C80 1.479 . S
C85 C84 1.405 . S
C85 H111 0.931 . S
U86 O87 2.454 . S
U86 O88 2.458 . S
U86 C89 2.984 . S
U86 C90 2.847 . S
U86 C103 2.882 . S
U86 O104 2.441 . S
U86 O105 2.420 . S
U86 O106 2.455 . S
U86 O107 2.449 . S
O87 U86 2.454 . S
O87 C89 1.353 . S
O88 U86 2.458 . S
O88 C89 1.286 . S
C89 U86 2.984 . S
C89 O87 1.353 . S
C89 O88 1.286 . S
C89 C91 1.363 . S
C90 C80 1.465 . S
C90 U86 2.847 . S
C90 O104 1.249 . S
C90 O105 1.202 . S
C91 C89 1.363 . S
C91 C93 1.408 . S
C91 C96 1.342 . S
C92 C93 1.310 . S
C92 C95 1.461 . S
C92 H112 0.933 . S
C93 C91 1.408 . S
C93 C92 1.310 . S
C93 H113 0.930 . S
C94 C95 1.473 1_565 S
C94 C96 1.286 1_565 S
C94 H114 0.930 . S
C95 C92 1.461 . S
C95 C94 1.473 1_545 S
C96 C91 1.342 . S
C96 C94 1.286 1_545 S
C96 H115 0.934 . S
C97 C100 1.424 . S
C97 C102 1.245 . S
C97 C103 1.428 . S
C98 C101 1.260 . S
C98 C102 1.477 . S
C98 H116 0.932 1_554 S
C99 C100 1.384 . S
C99 C101 1.479 . S
C99 H117 0.929 . S
C100 C97 1.424 . S
C100 C99 1.384 . S
C100 H118 0.928 . S
C101 C98 1.260 . S
C101 C99 1.479 . S
C102 C97 1.245 . S
C102 C98 1.477 . S
C102 H119 0.932 . S
C103 U86 2.882 . S
C103 C97 1.428 . S
C103 O106 1.301 . S
C103 O107 1.282 . S
O104 U86 2.441 . S
O104 C90 1.249 . S
O105 U86 2.420 . S
O105 C90 1.202 . S
O106 U86 2.455 . S
O106 C103 1.301 . S
O107 U86 2.449 . S
O107 C103 1.282 . S
H108 C81 0.931 . S
H109 C83 0.929 . S
H110 C84 0.923 1_565 S
H111 C85 0.931 . S
H112 C92 0.933 . S
H113 C93 0.930 . S
H114 C94 0.930 . S
H115 C96 0.934 . S
H116 C98 0.932 1_556 S
H117 C99 0.929 . S
H118 C100 0.928 . S
H119 C102 0.932 . S
C120 C121 1.264 . S
C120 C125 1.479 . S
C120 C130 1.465 . S
C121 C120 1.264 . S
C121 C123 1.339 . S
C121 H148 0.931 . S
C122 C123 1.395 . S
C122 C124 1.320 . S
C123 C121 1.339 . S
C123 C122 1.395 . S
C123 H149 0.929 . S
C124 C122 1.320 . S
C124 C125 1.405 . S
C124 H150 0.930 . S
C125 C120 1.479 . S
C125 C124 1.405 . S
C125 H151 0.931 . S
U126 O127 2.454 . S
U126 O128 2.459 . S
U126 C129 2.984 . S
U126 C130 2.847 . S
U126 C143 2.882 1_554 S
U126 O144 2.441 . S
U126 O145 2.420 . S
U126 O146 2.455 1_554 S
U126 O147 2.449 . S
O127 U126 2.454 . S
O127 C129 1.353 . S
O128 U126 2.459 . S
O128 C129 1.287 . S
C129 U126 2.984 . S
C129 O127 1.353 . S
C129 O128 1.287 . S
C129 C131 1.363 . S
C130 C120 1.465 . S
C130 U126 2.847 . S
C130 O144 1.249 . S
C130 O145 1.202 . S
C131 C129 1.363 . S
C131 C133 1.408 . S
C131 C136 1.342 1_554 S
C132 C133 1.310 . S
C132 C135 1.461 1_554 S
C132 H152 0.932 . S
C133 C131 1.408 . S
C133 C132 1.310 . S
C133 H153 0.930 . S
C134 C135 1.474 . S
C134 C136 1.285 . S
C134 H154 0.929 . S
C135 C132 1.461 1_556 S
C135 C134 1.474 . S
C136 C131 1.342 1_556 S
C136 C134 1.285 . S
C136 H155 0.930 . S
C137 C140 1.424 . S
C137 C142 1.245 . S
C137 C143 1.428 . S
C138 C141 1.260 . S
C138 C142 1.477 . S
C138 H156 0.932 . S
C139 C140 1.384 . S
C139 C141 1.479 . S
C139 H157 0.929 . S
C140 C137 1.424 . S
C140 C139 1.384 . S
C140 H158 0.928 . S
C141 C138 1.260 . S
C141 C139 1.479 . S
C142 C137 1.245 . S
C142 C138 1.477 . S
C142 H159 0.932 . S
C143 U126 2.882 1_556 S
C143 C137 1.428 . S
C143 O146 1.301 . S
C143 O147 1.282 1_556 S
O144 U126 2.441 . S
O144 C130 1.249 . S
O145 U126 2.420 . S
O145 C130 1.202 . S
O146 U126 2.455 1_556 S
O146 C143 1.301 . S
O147 U126 2.449 . S
O147 C143 1.282 1_554 S
H148 C121 0.931 . S
H149 C123 0.929 . S
H150 C124 0.930 . S
H151 C125 0.931 . S
H152 C132 0.932 . S
H153 C133 0.930 . S
H154 C134 0.929 . S
H155 C136 0.930 . S
H156 C138 0.932 . S
H157 C139 0.929 . S
H158 C140 0.928 . S
H159 C142 0.932 . S
C160 C161 1.264 . S
C160 C165 1.479 . S
C160 C170 1.465 . S
C161 C160 1.264 . S
C161 C163 1.339 . S
C161 H188 0.931 . S
C162 C163 1.395 . S
C162 C164 1.320 . S
C163 C161 1.339 . S
C163 C162 1.395 . S
C163 H189 0.929 . S
C164 C162 1.320 . S
C164 C165 1.405 . S
C164 H190 0.930 . S
C165 C160 1.479 . S
C165 C164 1.405 . S
C165 H191 0.931 . S
U166 O167 2.454 . S
U166 O168 2.458 1_556 S
U166 C169 2.984 1_556 S
U166 C170 2.847 . S
U166 C183 2.882 1_556 S
U166 O184 2.441 . S
U166 O185 2.420 . S
U166 O186 2.455 1_556 S
U166 O187 2.449 1_556 S
O167 U166 2.454 . S
O167 C169 1.353 1_556 S
O168 U166 2.458 1_554 S
O168 C169 1.286 . S
C169 U166 2.984 1_554 S
C169 O167 1.353 1_554 S
C169 O168 1.286 . S
C169 C171 1.363 . S
C170 C160 1.465 . S
C170 U166 2.847 . S
C170 O184 1.249 . S
C170 O185 1.202 . S
C171 C169 1.363 . S
C171 C173 1.408 1_554 S
C171 C176 1.342 . S
C172 C173 1.315 . S
C172 C175 1.446 1_556 S
C172 H192 0.942 . S
C173 C171 1.408 1_556 S
C173 C172 1.315 . S
C173 H193 0.930 . S
C174 C175 1.474 . S
C174 C176 1.285 . S
C174 H194 0.929 . S
C175 C172 1.446 1_554 S
C175 C174 1.474 . S
C176 C171 1.342 . S
C176 C174 1.285 . S
C176 H195 0.930 . S
C177 C180 1.424 . S
C177 C182 1.245 . S
C177 C183 1.428 . S
C178 C181 1.260 . S
C178 C182 1.477 . S
C178 H196 0.932 . S
C179 C180 1.384 . S
C179 C181 1.479 . S
C179 H197 0.929 . S
C180 C177 1.424 . S
C180 C179 1.384 . S
C180 H198 0.928 . S
C181 C178 1.260 . S
C181 C179 1.479 . S
C182 C177 1.245 . S
C182 C178 1.477 . S
C182 H199 0.932 . S
C183 U166 2.882 1_554 S
C183 C177 1.428 . S
C183 O186 1.301 . S
C183 O187 1.282 . S
O184 U166 2.441 . S
O184 C170 1.249 . S
O185 U166 2.420 . S
O185 C170 1.202 . S
O186 U166 2.455 1_554 S
O186 C183 1.301 . S
O187 U166 2.449 1_554 S
O187 C183 1.282 . S
H188 C161 0.931 . S
H189 C163 0.929 . S
H190 C164 0.930 . S
H191 C165 0.931 . S
H192 C172 0.942 . S
H193 C173 0.930 . S
H194 C174 0.929 . S
H195 C176 0.930 . S
H196 C178 0.932 . S
H197 C179 0.929 . S
H198 C180 0.928 . S
H199 C182 0.932 . S
C200 C201 1.264 . S
C200 C205 1.479 . S
C200 C210 1.465 . S
C201 C200 1.264 . S
C201 C203 1.339 . S
C201 H228 0.931 . S
C202 C203 1.395 . S
C202 C204 1.320 . S
C203 C201 1.339 . S
C203 C202 1.395 . S
C203 H229 0.929 . S
C204 C202 1.320 . S
C204 C205 1.405 . S
C204 H230 0.930 . S
C205 C200 1.479 . S
C205 C204 1.405 . S
C205 H231 0.931 . S
U206 O207 2.454 . S
U206 O208 2.458 . S
U206 C209 2.984 . S
U206 C210 2.847 1_554 S
U206 C223 2.882 . S
U206 O224 2.462 . S
U206 O225 2.420 . S
U206 O226 2.455 . S
U206 O227 2.449 . S
O207 U206 2.454 . S
O207 C209 1.353 . S
O208 U206 2.458 . S
O208 C209 1.286 . S
C209 U206 2.984 . S
C209 O207 1.353 . S
C209 O208 1.286 . S
C209 C211 1.363 . S
C210 C200 1.465 . S
C210 U206 2.847 1_556 S
C210 O224 1.244 1_556 S
C210 O225 1.202 1_556 S
C211 C209 1.363 . S
C211 C213 1.408 . S
C211 C216 1.342 . S
C212 C213 1.310 . S
C212 C215 1.461 . S
C212 H232 0.932 . S
C213 C211 1.408 . S
C213 C212 1.310 . S
C213 H233 0.930 . S
C214 C215 1.474 . S
C214 C216 1.285 . S
C214 H234 0.929 . S
C215 C212 1.461 . S
C215 C214 1.474 . S
C216 C211 1.342 . S
C216 C214 1.285 . S
C216 H235 0.930 . S
C217 C220 1.424 . S
C217 C222 1.245 . S
C217 C223 1.428 . S
C218 C221 1.260 . S
C218 C222 1.477 . S
C218 H236 0.932 . S
C219 C220 1.384 . S
C219 C221 1.479 . S
C219 H237 0.929 . S
C220 C217 1.424 . S
C220 C219 1.384 . S
C220 H238 0.928 . S
C221 C218 1.260 . S
C221 C219 1.479 . S
C222 C217 1.245 . S
C222 C218 1.477 . S
C222 H239 0.932 . S
C223 U206 2.882 . S
C223 C217 1.428 . S
C223 O226 1.301 . S
C223 O227 1.282 . S
O224 U206 2.462 . S
O224 C210 1.244 1_554 S
O225 U206 2.420 . S
O225 C210 1.202 1_554 S
O226 U206 2.455 . S
O226 C223 1.301 . S
O227 U206 2.449 . S
O227 C223 1.282 . S
H228 C201 0.931 . S
H229 C203 0.929 . S
H230 C204 0.930 . S
H231 C205 0.931 . S
H232 C212 0.932 . S
H233 C213 0.930 . S
H234 C214 0.929 . S
H235 C216 0.930 . S
H236 C218 0.932 . S
H237 C219 0.929 . S
H238 C220 0.928 . S
H239 C222 0.932 . S
C240 C241 1.264 1_554 S
C240 C245 1.479 1_554 S
C240 C250 1.465 . S
C241 C240 1.264 1_556 S
C241 C243 1.339 . S
C241 H268 0.931 1_556 S
C242 C243 1.395 . S
C242 C244 1.320 . S
C243 C241 1.339 . S
C243 C242 1.395 . S
C243 H269 0.929 . S
C244 C242 1.320 . S
C244 C245 1.405 . S
C244 H270 0.922 1_545 S
C245 C240 1.479 1_556 S
C245 C244 1.405 . S
C245 H271 0.931 . S
U246 O247 2.454 . S
U246 O248 2.458 . S
U246 C249 2.984 . S
U246 C250 2.847 . S
U246 C263 2.882 . S
U246 O264 2.441 . S
U246 O265 2.420 . S
U246 O266 2.455 . S
U246 O267 2.449 . S
O247 U246 2.454 . S
O247 C249 1.353 . S
O248 U246 2.458 . S
O248 C249 1.286 . S
C249 U246 2.984 . S
C249 O247 1.353 . S
C249 O248 1.286 . S
C249 C251 1.363 . S
C250 C240 1.465 . S
C250 U246 2.847 . S
C250 O264 1.249 . S
C250 O265 1.202 . S
C251 C249 1.363 . S
C251 C253 1.408 . S
C251 C256 1.342 . S
C252 C253 1.310 . S
C252 C255 1.462 . S
C252 H272 0.932 . S
C253 C251 1.408 . S
C253 C252 1.310 . S
C253 H273 0.930 . S
C254 C255 1.475 1_565 S
C254 C256 1.286 1_565 S
C254 H274 0.929 . S
C255 C252 1.462 . S
C255 C254 1.475 1_545 S
C256 C251 1.342 . S
C256 C254 1.286 1_545 S
C256 H275 0.931 . S
C257 C260 1.424 . S
C257 C262 1.245 . S
C257 C263 1.428 . S
C258 C261 1.260 . S
C258 C262 1.477 . S
C258 H276 0.932 . S
C259 C260 1.384 . S
C259 C261 1.479 . S
C259 H277 0.929 . S
C260 C257 1.424 . S
C260 C259 1.384 . S
C260 H278 0.928 . S
C261 C258 1.260 . S
C261 C259 1.479 . S
C262 C257 1.245 . S
C262 C258 1.477 . S
C262 H279 0.932 . S
C263 U246 2.882 . S
C263 C257 1.428 . S
C263 O266 1.301 . S
C263 O267 1.282 . S
O264 U246 2.441 . S
O264 C250 1.249 . S
O265 U246 2.420 . S
O265 C250 1.202 . S
O266 U246 2.455 . S
O266 C263 1.301 . S
O267 U246 2.449 . S
O267 C263 1.282 . S
H268 C241 0.931 1_554 S
H269 C243 0.929 . S
H270 C244 0.922 1_565 S
H271 C245 0.931 . S
H272 C252 0.932 . S
H273 C253 0.930 . S
H274 C254 0.929 . S
H275 C256 0.931 . S
H276 C258 0.932 . S
H277 C259 0.929 . S
H278 C260 0.928 . S
H279 C262 0.932 . S
C280 C281 1.264 . S
C280 C285 1.479 . S
C280 C290 1.465 . S
C281 C280 1.264 . S
C281 C283 1.339 . S
C281 H308 0.931 . S
C282 C283 1.395 . S
C282 C284 1.320 . S
C283 C281 1.339 . S
C283 C282 1.395 . S
C283 H309 0.929 . S
C284 C282 1.320 . S
C284 C285 1.405 . S
C284 H310 0.930 . S
C285 C280 1.479 . S
C285 C284 1.405 . S
C285 H311 0.931 . S
U286 O287 2.454 . S
U286 O288 2.458 . S
U286 C289 2.984 . S
U286 C290 2.847 . S
U286 C303 2.882 . S
U286 O304 2.441 . S
U286 O305 2.420 . S
U286 O306 2.455 . S
U286 O307 2.449 . S
O287 U286 2.454 . S
O287 C289 1.353 . S
O288 U286 2.458 . S
O288 C289 1.286 . S
C289 U286 2.984 . S
C289 O287 1.353 . S
C289 O288 1.286 . S
C289 C291 1.363 . S
C290 C280 1.465 . S
C290 U286 2.847 . S
C290 O304 1.249 . S
C290 O305 1.202 . S
C291 C289 1.363 . S
C291 C293 1.408 . S
C291 C296 1.342 . S
C292 C293 1.310 . S
C292 C295 1.461 . S
C292 H312 0.932 . S
C293 C291 1.408 . S
C293 C292 1.310 . S
C293 H313 0.930 . S
C294 C295 1.474 . S
C294 C296 1.285 . S
C294 H314 0.929 . S
C295 C292 1.461 . S
C295 C294 1.474 . S
C296 C291 1.342 . S
C296 C294 1.285 . S
C296 H315 0.930 . S
C297 C300 1.424 . S
C297 C302 1.245 . S
C297 C303 1.428 . S
C298 C301 1.260 . S
C298 C302 1.477 . S
C298 H316 0.932 . S
C299 C300 1.384 . S
C299 C301 1.479 . S
C299 H317 0.929 . S
C300 C297 1.424 . S
C300 C299 1.384 . S
C300 H318 0.928 . S
C301 C298 1.260 . S
C301 C299 1.479 . S
C302 C297 1.245 . S
C302 C298 1.477 . S
C302 H319 0.932 . S
C303 U286 2.882 . S
C303 C297 1.428 . S
C303 O306 1.301 . S
C303 O307 1.282 . S
O304 U286 2.441 . S
O304 C290 1.249 . S
O305 U286 2.420 . S
O305 C290 1.202 . S
O306 U286 2.455 . S
O306 C303 1.301 . S
O307 U286 2.449 . S
O307 C303 1.282 . S
H308 C281 0.931 . S
H309 C283 0.929 . S
H310 C284 0.930 . S
H311 C285 0.931 . S
H312 C292 0.932 . S
H313 C293 0.930 . S
H314 C294 0.929 . S
H315 C296 0.930 . S
H316 C298 0.932 . S
H317 C299 0.929 . S
H318 C300 0.928 . S
H319 C302 0.932 . S
Dy320 O323 2.307 1_545 S
Dy320 O325 2.395 1_655 S
Dy320 O326 2.379 . S
Dy320 O328 2.339 . S
Dy320 O330 2.298 1_655 S
Dy320 O334 2.275 1_655 S
Dy320 C342 2.738 . S
Dy321 O324 2.298 . S
Dy321 O327 2.275 1_455 S
Dy321 O329 2.307 1_565 S
Dy321 O331 2.395 . S
Dy321 O332 2.379 . S
Dy321 O335 2.339 . S
Dy321 C351 2.738 . S
C322 O334 1.254 1_565 S
C322 O335 1.257 . S
O323 Dy320 2.307 1_565 S
O323 C333 1.290 . S
O324 Dy321 2.298 . S
O324 C333 1.190 1_455 S
O325 Dy320 2.395 1_455 S
O325 C342 1.255 1_455 S
O326 Dy320 2.379 . S
O326 C342 1.249 . S
O327 Dy321 2.275 1_655 S
O327 C343 1.254 1_565 S
O328 Dy320 2.339 . S
O328 C343 1.257 . S
O329 Dy321 2.307 1_545 S
O329 C344 1.266 . S
O330 Dy320 2.298 1_455 S
O330 C344 1.236 . S
O331 Dy321 2.395 . S
O331 C351 1.255 . S
O332 Dy321 2.379 . S
O332 C351 1.249 . S
C333 O323 1.290 . S
C333 O324 1.190 1_655 S
O334 Dy320 2.275 1_455 S
O334 C322 1.254 1_545 S
O335 Dy321 2.339 . S
O335 C322 1.257 . S
C336 C339 1.344 1_655 S
C336 C340 1.328 . S
C336 C342 1.516 . S
C337 C338 1.304 1_655 S
C337 C341 1.323 . S
C338 C337 1.304 1_455 S
C338 C339 1.371 . S
C338 H352 0.930 . S
C339 C336 1.344 1_455 S
C339 C338 1.371 . S
C339 H353 0.931 . S
C340 C336 1.328 . S
C340 C341 1.433 . S
C340 H354 0.931 . S
C341 C337 1.323 . S
C341 C340 1.433 . S
C341 H355 0.933 . S
C342 Dy320 2.738 . S
C342 O325 1.255 1_655 S
C342 O326 1.249 . S
C342 C336 1.516 . S
C343 O327 1.254 1_545 S
C343 O328 1.257 . S
C344 O329 1.266 . S
C344 O330 1.236 . S
C345 C348 1.345 . S
C345 C349 1.328 . S
C345 C351 1.516 . S
C346 C347 1.303 . S
C346 C350 1.323 . S
C347 C346 1.303 . S
C347 C348 1.371 . S
C347 H356 0.932 1_455 S
C348 C345 1.345 . S
C348 C347 1.371 . S
C348 H357 0.930 1_455 S
C349 C345 1.328 . S
C349 C350 1.433 . S
C349 H358 0.931 . S
C350 C346 1.323 . S
C350 C349 1.433 . S
C350 H359 0.933 . S
C351 Dy321 2.738 . S
C351 O331 1.255 . S
C351 O332 1.249 . S
C351 C345 1.516 . S
H352 C338 0.930 . S
H353 C339 0.931 . S
H354 C340 0.931 . S
H355 C341 0.933 . S
H356 C347 0.932 1_655 S
H357 C348 0.930 1_655 S
H358 C349 0.931 . S
H359 C350 0.933 . S
Dy360 O363 2.307 . S
Dy360 O365 2.395 1_565 S
Dy360 O366 2.379 . S
Dy360 O368 2.339 . S
Dy360 O370 2.298 . S
Dy360 O374 2.275 1_565 S
Dy360 C382 2.738 . S
Dy361 O364 2.298 . S
Dy361 O367 2.275 1_545 S
Dy361 O369 2.307 . S
Dy361 O371 2.395 1_545 S
Dy361 O372 2.379 . S
Dy361 O375 2.339 . S
Dy361 C391 2.738 . S
C362 O374 1.254 . S
C362 O375 1.257 . S
O363 Dy360 2.307 . S
O363 C373 1.266 . S
O364 Dy361 2.298 . S
O364 C373 1.236 1_545 S
O365 Dy360 2.395 1_545 S
O365 C382 1.255 1_545 S
O366 Dy360 2.379 . S
O366 C382 1.249 . S
O367 Dy361 2.275 1_565 S
O367 C383 1.254 . S
O368 Dy360 2.339 . S
O368 C383 1.257 . S
O369 Dy361 2.307 . S
O369 C384 1.266 . S
O370 Dy360 2.298 . S
O370 C384 1.236 1_565 S
O371 Dy361 2.395 1_565 S
O371 C391 1.255 1_565 S
O372 Dy361 2.379 . S
O372 C391 1.249 . S
C373 O363 1.266 . S
C373 O364 1.236 1_565 S
O374 Dy360 2.275 1_545 S
O374 C362 1.254 . S
O375 Dy361 2.339 . S
O375 C362 1.257 . S
C376 C379 1.344 1_565 S
C376 C380 1.328 . S
C376 C382 1.516 . S
C377 C378 1.294 1_565 S
C377 C381 1.323 . S
C378 C377 1.294 1_545 S
C378 C379 1.372 . S
C378 H392 0.940 . S
C379 C376 1.344 1_545 S
C379 C378 1.372 . S
C379 H393 0.931 . S
C380 C376 1.328 . S
C380 C381 1.433 . S
C380 H394 0.931 . S
C381 C377 1.323 . S
C381 C380 1.433 . S
C381 H395 0.933 . S
C382 Dy360 2.738 . S
C382 O365 1.255 1_565 S
C382 O366 1.249 . S
C382 C376 1.516 . S
C383 O367 1.254 . S
C383 O368 1.257 . S
C384 O369 1.266 . S
C384 O370 1.236 1_545 S
C385 C388 1.344 1_545 S
C385 C389 1.328 . S
C385 C391 1.516 . S
C386 C387 1.307 1_545 S
C386 C390 1.323 . S
C387 C386 1.307 1_565 S
C387 C388 1.370 . S
C387 H396 0.928 . S
C388 C385 1.344 1_565 S
C388 C387 1.370 . S
C388 H397 0.931 . S
C389 C385 1.328 . S
C389 C390 1.433 . S
C389 H398 0.931 . S
C390 C386 1.323 . S
C390 C389 1.433 . S
C390 H399 0.933 . S
C391 Dy361 2.738 . S
C391 O371 1.255 1_545 S
C391 O372 1.249 . S
C391 C385 1.516 . S
H392 C378 0.940 . S
H393 C379 0.931 . S
H394 C380 0.931 . S
H395 C381 0.933 . S
H396 C387 0.928 . S
H397 C388 0.931 . S
H398 C389 0.931 . S
H399 C390 0.933 . S
Dy400 O403 2.307 . S
Dy400 O405 2.395 . S
Dy400 O406 2.379 . S
Dy400 O408 2.339 . S
Dy400 O410 2.298 . S
Dy400 O414 2.275 . S
Dy400 C422 2.738 . S
Dy401 O404 2.298 . S
Dy401 O407 2.275 . S
Dy401 O409 2.307 . S
Dy401 O411 2.395 . S
Dy401 O412 2.379 . S
Dy401 O415 2.339 . S
Dy401 C431 2.738 . S
C402 O414 1.254 . S
C402 O415 1.257 . S
O403 Dy400 2.307 . S
O403 C413 1.266 . S
O404 Dy401 2.298 . S
O404 C413 1.236 . S
O405 Dy400 2.395 . S
O405 C422 1.255 . S
O406 Dy400 2.379 . S
O406 C422 1.249 . S
O407 Dy401 2.275 . S
O407 C423 1.254 . S
O408 Dy400 2.339 . S
O408 C423 1.257 . S
O409 Dy401 2.307 . S
O409 C424 1.266 . S
O410 Dy400 2.298 . S
O410 C424 1.236 . S
O411 Dy401 2.395 . S
O411 C431 1.255 . S
O412 Dy401 2.379 . S
O412 C431 1.249 . S
C413 O403 1.266 . S
C413 O404 1.236 . S
O414 Dy400 2.275 . S
O414 C402 1.254 . S
O415 Dy401 2.339 . S
O415 C402 1.257 . S
C416 C419 1.344 . S
C416 C420 1.328 . S
C416 C422 1.516 . S
C417 C418 1.304 . S
C417 C421 1.323 . S
C418 C417 1.304 . S
C418 C419 1.371 . S
C418 H432 0.930 . S
C419 C416 1.344 . S
C419 C418 1.371 . S
C419 H433 0.931 . S
C420 C416 1.328 . S
C420 C421 1.433 . S
C420 H434 0.931 . S
C421 C417 1.323 . S
C421 C420 1.433 . S
C421 H435 0.933 . S
C422 Dy400 2.738 . S
C422 O405 1.255 . S
C422 O406 1.249 . S
C422 C416 1.516 . S
C423 O407 1.254 . S
C423 O408 1.257 . S
C424 O409 1.266 . S
C424 O410 1.236 . S
C425 C428 1.344 . S
C425 C429 1.328 . S
C425 C431 1.516 . S
C426 C427 1.304 . S
C426 C430 1.323 . S
C427 C426 1.304 . S
C427 C428 1.371 . S
C427 H436 0.930 . S
C428 C425 1.344 . S
C428 C427 1.371 . S
C428 H437 0.931 . S
C429 C425 1.328 . S
C429 C430 1.433 . S
C429 H438 0.931 . S
C430 C426 1.323 . S
C430 C429 1.433 . S
C430 H439 0.933 . S
C431 Dy401 2.738 . S
C431 O411 1.255 . S
C431 O412 1.249 . S
C431 C425 1.516 . S
H432 C418 0.930 . S
H433 C419 0.931 . S
H434 C420 0.931 . S
H435 C421 0.933 . S
H436 C427 0.930 . S
H437 C428 0.931 . S
H438 C429 0.931 . S
H439 C430 0.933 . S
Dy440 O443 2.307 1_455 S
Dy440 O445 2.395 . S
Dy440 O446 2.379 . S
Dy440 O448 2.339 . S
Dy440 O450 2.298 . S
Dy440 O454 2.275 . S
Dy440 C462 2.738 . S
Dy441 O444 2.298 . S
Dy441 O447 2.275 1_655 S
Dy441 O449 2.307 1_655 S
Dy441 O451 2.395 . S
Dy441 O452 2.379 . S
Dy441 O455 2.339 . S
Dy441 C471 2.738 . S
C442 O454 1.254 . S
C442 O455 1.257 1_455 S
O443 Dy440 2.307 1_655 S
O443 C453 1.266 . S
O444 Dy441 2.298 . S
O444 C453 1.236 . S
O445 Dy440 2.395 . S
O445 C462 1.255 . S
O446 Dy440 2.379 . S
O446 C462 1.249 . S
O447 Dy441 2.275 1_455 S
O447 C463 1.254 . S
O448 Dy440 2.339 . S
O448 C463 1.257 . S
O449 Dy441 2.307 1_455 S
O449 C464 1.266 . S
O450 Dy440 2.298 . S
O450 C464 1.236 . S
O451 Dy441 2.395 . S
O451 C471 1.255 . S
O452 Dy441 2.379 . S
O452 C471 1.249 . S
C453 O443 1.266 . S
C453 O444 1.236 . S
O454 Dy440 2.275 . S
O454 C442 1.254 . S
O455 Dy441 2.339 . S
O455 C442 1.257 1_655 S
C456 C459 1.344 . S
C456 C460 1.328 . S
C456 C462 1.516 . S
C457 C458 1.304 . S
C457 C461 1.323 . S
C458 C457 1.304 . S
C458 C459 1.371 . S
C458 H472 0.930 . S
C459 C456 1.344 . S
C459 C458 1.371 . S
C459 H473 0.931 . S
C460 C456 1.328 . S
C460 C461 1.433 . S
C460 H474 0.931 . S
C461 C457 1.323 . S
C461 C460 1.433 . S
C461 H475 0.933 . S
C462 Dy440 2.738 . S
C462 O445 1.255 . S
C462 O446 1.249 . S
C462 C456 1.516 . S
C463 O447 1.254 . S
C463 O448 1.257 . S
C464 O449 1.266 . S
C464 O450 1.236 . S
C465 C468 1.344 . S
C465 C469 1.328 . S
C465 C471 1.516 . S
C466 C467 1.304 . S
C466 C470 1.323 . S
C467 C466 1.304 . S
C467 C468 1.371 . S
C467 H476 0.930 . S
C468 C465 1.344 . S
C468 C467 1.371 . S
C468 H477 0.931 . S
C469 C465 1.328 . S
C469 C470 1.433 . S
C469 H478 0.931 . S
C470 C466 1.323 . S
C470 C469 1.433 . S
C470 H479 0.933 . S
C471 Dy441 2.738 . S
C471 O451 1.255 . S
C471 O452 1.249 . S
C471 C465 1.516 . S
H472 C458 0.930 . S
H473 C459 0.931 . S
H474 C460 0.931 . S
H475 C461 0.933 . S
H476 C467 0.930 . S
H477 C468 0.931 . S
H478 C469 0.931 . S
H479 C470 0.933 . S
H480 C488 0.929 . S
H481 C490 0.930 . S
H482 C492 0.930 . S
H483 C495 0.929 . S
H484 C498 0.930 . S
H485 C500 0.960 . S
H486 C500 0.960 . S
H487 C500 0.960 . S
C488 H480 0.929 . S
C488 C489 1.379 . S
C488 C490 1.384 . S
C489 C488 1.379 . S
C489 C495 1.389 1_565 S
C490 H481 0.930 . S
C490 C488 1.384 . S
C490 C491 1.372 . S
C491 C490 1.372 . S
C491 C492 1.400 1_565 S
C491 C496 1.490 . S
C492 H482 0.930 . S
C492 C491 1.400 1_545 S
C492 C495 1.386 . S
H493 C509 0.930 . S
H494 C510 0.931 . S
C495 H483 0.929 . S
C495 C489 1.389 1_545 S
C495 C492 1.386 . S
C496 C491 1.490 . S
C496 C498 1.395 . S
C496 C499 1.403 1_565 S
H497 C503 0.930 . S
C498 H484 0.930 . S
C498 C496 1.395 . S
C498 C501 1.403 . S
C499 C496 1.403 1_545 S
C499 C500 1.524 . S
C499 C503 1.400 . S
C500 H485 0.960 . S
C500 H486 0.960 . S
C500 H487 0.960 . S
C500 C499 1.524 . S
C501 C498 1.403 . S
C501 C502 1.392 . S
C501 C505 1.495 . S
C502 C501 1.392 . S
C502 C503 1.385 1_565 S
C502 C504 1.478 . S
C503 H497 0.930 . S
C503 C499 1.400 . S
C503 C502 1.385 1_545 S
C504 C502 1.478 . S
C504 C506 1.381 . S
C504 C510 1.383 1_565 S
C505 C501 1.495 . S
C505 H511 0.959 . S
C505 H512 0.961 . S
C505 H513 0.960 . S
C506 C504 1.381 . S
C506 C507 1.394 . S
C506 H514 0.930 . S
C507 C506 1.394 . S
C507 C508 1.428 . S
C507 H515 0.929 . S
C508 C507 1.428 . S
C508 C509 1.331 1_565 S
C509 H493 0.930 . S
C509 C508 1.331 1_545 S
C509 C510 1.379 . S
C510 H494 0.931 . S
C510 C504 1.383 1_545 S
C510 C509 1.379 . S
H511 C505 0.959 . S
H512 C505 0.961 . S
H513 C505 0.960 . S
H514 C506 0.930 . S
H515 C507 0.929 . S
H516 C524 0.929 . S
H517 C526 0.930 . S
H518 C528 0.930 . S
H519 C531 0.929 . S
H520 C534 0.930 . S
H521 C536 0.960 . S
H522 C536 0.960 . S
H523 C536 0.960 . S
C524 H516 0.929 . S
C524 C525 1.377 . S
C524 C526 1.384 . S
C525 C524 1.377 . S
C525 C531 1.390 . S
C526 H517 0.930 . S
C526 C524 1.384 . S
C526 C527 1.372 . S
C527 C526 1.372 . S
C527 C528 1.400 . S
C527 C532 1.490 . S
C528 H518 0.930 . S
C528 C527 1.400 . S
C528 C531 1.386 . S
H529 C545 0.930 . S
H530 C546 0.931 . S
C531 H519 0.929 . S
C531 C525 1.390 . S
C531 C528 1.386 . S
C532 C527 1.490 . S
C532 C534 1.395 . S
C532 C535 1.403 . S
H533 C539 0.930 . S
C534 H520 0.930 . S
C534 C532 1.395 . S
C534 C537 1.403 . S
C535 C532 1.403 . S
C535 C536 1.524 . S
C535 C539 1.400 . S
C536 H521 0.960 . S
C536 H522 0.960 . S
C536 H523 0.960 . S
C536 C535 1.524 . S
C537 C534 1.403 . S
C537 C538 1.392 . S
C537 C541 1.495 . S
C538 C537 1.392 . S
C538 C539 1.385 . S
C538 C540 1.478 . S
C539 H533 0.930 . S
C539 C535 1.400 . S
C539 C538 1.385 . S
C540 C538 1.478 . S
C540 C542 1.381 . S
C540 C546 1.383 . S
C541 C537 1.495 . S
C541 H547 0.959 . S
C541 H548 0.961 . S
C541 H549 0.960 . S
C542 C540 1.381 . S
C542 C543 1.394 . S
C542 H550 0.930 . S
C543 C542 1.394 . S
C543 C544 1.383 . S
C543 H551 0.929 . S
C544 C543 1.383 . S
C544 C545 1.377 . S
C545 H529 0.930 . S
C545 C544 1.377 . S
C545 C546 1.379 . S
C546 H530 0.931 . S
C546 C540 1.383 . S
C546 C545 1.379 . S
H547 C541 0.959 . S
H548 C541 0.961 . S
H549 C541 0.960 . S
H550 C542 0.930 . S
H551 C543 0.929 . S
H552 C560 0.929 . S
H553 C562 0.930 . S
H554 C564 0.930 . S
H555 C567 0.929 . S
H556 C570 0.930 . S
H557 C572 0.960 . S
H558 C572 0.960 . S
H559 C572 0.960 . S
C560 H552 0.929 . S
C560 C561 1.377 . S
C560 C562 1.384 . S
C561 C560 1.377 . S
C561 C567 1.390 . S
C562 H553 0.930 . S
C562 C560 1.384 . S
C562 C563 1.372 . S
C563 C562 1.372 . S
C563 C564 1.400 . S
C563 C568 1.490 . S
C564 H554 0.930 . S
C564 C563 1.400 . S
C564 C567 1.386 . S
H565 C581 0.930 . S
H566 C582 0.931 . S
C567 H555 0.929 . S
C567 C561 1.390 . S
C567 C564 1.386 . S
C568 C563 1.490 . S
C568 C570 1.395 . S
C568 C571 1.403 . S
H569 C575 0.930 . S
C570 H556 0.930 . S
C570 C568 1.395 . S
C570 C573 1.403 . S
C571 C568 1.403 . S
C571 C572 1.524 . S
C571 C575 1.400 . S
C572 H557 0.960 . S
C572 H558 0.960 . S
C572 H559 0.960 . S
C572 C571 1.524 . S
C573 C570 1.403 . S
C573 C574 1.392 . S
C573 C577 1.495 . S
C574 C573 1.392 . S
C574 C575 1.385 . S
C574 C576 1.478 . S
C575 H569 0.930 . S
C575 C571 1.400 . S
C575 C574 1.385 . S
C576 C574 1.478 . S
C576 C578 1.381 . S
C576 C582 1.383 . S
C577 C573 1.495 . S
C577 H583 0.959 . S
C577 H584 0.961 . S
C577 H585 0.960 . S
C578 C576 1.381 . S
C578 C579 1.394 . S
C578 H586 0.930 . S
C579 C578 1.394 . S
C579 C580 1.383 . S
C579 H587 0.929 . S
C580 C579 1.383 . S
C580 C581 1.377 . S
C581 H565 0.930 . S
C581 C580 1.377 . S
C581 C582 1.379 . S
C582 H566 0.931 . S
C582 C576 1.383 . S
C582 C581 1.379 . S
H583 C577 0.959 . S
H584 C577 0.961 . S
H585 C577 0.960 . S
H586 C578 0.930 . S
H587 C579 0.929 . S
H588 C596 0.929 . S
H589 C598 0.930 . S
H590 C600 0.930 . S
H591 C603 0.929 . S
H592 C606 0.930 . S
H593 C608 0.960 . S
H594 C608 0.960 . S
H595 C608 0.960 . S
C596 H588 0.929 . S
C596 C597 1.377 . S
C596 C598 1.384 . S
C597 C596 1.377 . S
C597 C603 1.390 . S
C598 H589 0.930 . S
C598 C596 1.384 . S
C598 C599 1.372 . S
C599 C598 1.372 . S
C599 C600 1.400 . S
C599 C604 1.490 . S
C600 H590 0.930 . S
C600 C599 1.400 . S
C600 C603 1.386 . S
H601 C617 0.930 . S
H602 C618 0.931 . S
C603 H591 0.929 . S
C603 C597 1.390 . S
C603 C600 1.386 . S
C604 C599 1.490 . S
C604 C606 1.395 . S
C604 C607 1.403 . S
H605 C611 0.930 1_655 S
C606 H592 0.930 . S
C606 C604 1.395 . S
C606 C609 1.403 . S
C607 C604 1.403 . S
C607 C608 1.524 1_455 S
C607 C611 1.400 . S
C608 H593 0.960 . S
C608 H594 0.960 . S
C608 H595 0.960 . S
C608 C607 1.524 1_655 S
C609 C606 1.403 . S
C609 C610 1.392 . S
C609 C613 1.495 . S
C610 C609 1.392 . S
C610 C611 1.385 . S
C610 C612 1.478 . S
C611 H605 0.930 1_455 S
C611 C607 1.400 . S
C611 C610 1.385 . S
C612 C610 1.478 . S
C612 C614 1.381 . S
C612 C618 1.383 . S
C613 C609 1.495 . S
C613 H619 0.959 . S
C613 H620 0.961 . S
C613 H621 0.960 . S
C614 C612 1.381 . S
C614 C615 1.394 . S
C614 H622 0.930 . S
C615 C614 1.394 . S
C615 C616 1.383 . S
C615 H623 0.929 . S
C616 C615 1.383 . S
C616 C617 1.377 . S
C617 H601 0.930 . S
C617 C616 1.377 . S
C617 C618 1.379 . S
C618 H602 0.931 . S
C618 C612 1.383 . S
C618 C617 1.379 . S
H619 C613 0.959 . S
H620 C613 0.961 . S
H621 C613 0.960 . S
H622 C614 0.930 . S
H623 C615 0.929 . S
H624 C632 0.929 . S
H625 C634 0.930 . S
H626 C636 0.930 . S
H627 C639 0.929 . S
H628 C642 0.930 . S
H629 C644 0.960 . S
H630 C644 0.960 . S
H631 C644 0.960 . S
C632 H624 0.929 . S
C632 C633 1.388 . S
C632 C634 1.384 . S
C633 C632 1.388 . S
C633 C639 1.380 1_545 S
C634 H625 0.930 . S
C634 C632 1.384 . S
C634 C635 1.372 . S
C635 C634 1.372 . S
C635 C636 1.400 1_545 S
C635 C640 1.490 1_554 S
C636 H626 0.930 . S
C636 C635 1.400 1_565 S
C636 C639 1.386 . S
H637 C653 0.930 . S
H638 C654 0.931 . S
C639 H627 0.929 . S
C639 C633 1.380 1_565 S
C639 C636 1.386 . S
C640 C635 1.490 1_556 S
C640 C642 1.395 . S
C640 C643 1.403 1_545 S
H641 C647 0.930 . S
C642 H628 0.930 . S
C642 C640 1.395 . S
C642 C645 1.403 . S
C643 C640 1.403 1_565 S
C643 C644 1.524 . S
C643 C647 1.400 . S
C644 H629 0.960 . S
C644 H630 0.960 . S
C644 H631 0.960 . S
C644 C643 1.524 . S
C645 C642 1.403 . S
C645 C646 1.392 . S
C645 C649 1.495 . S
C646 C645 1.392 . S
C646 C647 1.385 1_545 S
C646 C648 1.478 . S
C647 H641 0.930 . S
C647 C643 1.400 . S
C647 C646 1.385 1_565 S
C648 C646 1.478 . S
C648 C650 1.381 . S
C648 C654 1.383 1_545 S
C649 C645 1.495 . S
C649 H655 0.959 . S
C649 H656 0.961 . S
C649 H657 0.960 . S
C650 C648 1.381 . S
C650 C651 1.394 . S
C650 H658 0.930 . S
C651 C650 1.394 . S
C651 C652 1.383 . S
C651 H659 0.929 . S
C652 C651 1.383 . S
C652 C653 1.377 1_545 S
C653 H637 0.930 . S
C653 C652 1.377 1_565 S
C653 C654 1.379 . S
C654 H638 0.931 . S
C654 C648 1.383 1_565 S
C654 C653 1.379 . S
H655 C649 0.959 . S
H656 C649 0.961 . S
H657 C649 0.960 . S
H658 C650 0.930 . S
H659 C651 0.929 . S
H660 C668 0.929 1_554 S
H661 C670 0.930 . S
H662 C672 0.930 . S
H663 C675 0.929 . S
H664 C678 0.930 . S
H665 C680 0.960 . S
H666 C680 0.960 . S
H667 C680 0.960 . S
C668 H660 0.929 1_556 S
C668 C669 1.377 . S
C668 C670 1.384 . S
C669 C668 1.377 . S
C669 C675 1.390 . S
C670 H661 0.930 . S
C670 C668 1.384 . S
C670 C671 1.372 . S
C671 C670 1.372 . S
C671 C672 1.400 . S
C671 C676 1.490 . S
C672 H662 0.930 . S
C672 C671 1.400 . S
C672 C675 1.386 . S
H673 C689 0.930 . S
H674 C690 0.931 . S
C675 H663 0.929 . S
C675 C669 1.390 . S
C675 C672 1.386 . S
C676 C671 1.490 . S
C676 C678 1.395 . S
C676 C679 1.403 . S
H677 C683 0.930 . S
C678 H664 0.930 . S
C678 C676 1.395 . S
C678 C681 1.403 . S
C679 C676 1.403 . S
C679 C680 1.524 . S
C679 C683 1.400 . S
C680 H665 0.960 . S
C680 H666 0.960 . S
C680 H667 0.960 . S
C680 C679 1.524 . S
C681 C678 1.403 . S
C681 C682 1.392 . S
C681 C685 1.495 . S
C682 C681 1.392 . S
C682 C683 1.385 . S
C682 C684 1.478 . S
C683 H677 0.930 . S
C683 C679 1.400 . S
C683 C682 1.385 . S
C684 C682 1.478 . S
C684 C686 1.381 . S
C684 C690 1.383 . S
C685 C681 1.495 . S
C685 H691 0.959 . S
C685 H692 0.961 . S
C685 H693 0.960 . S
C686 C684 1.381 . S
C686 C687 1.394 . S
C686 H694 0.930 . S
C687 C686 1.394 . S
C687 C688 1.383 . S
C687 H695 0.929 . S
C688 C687 1.383 . S
C688 C689 1.377 . S
C689 H673 0.930 . S
C689 C688 1.377 . S
C689 C690 1.379 . S
C690 H674 0.931 . S
C690 C684 1.383 . S
C690 C689 1.379 . S
H691 C685 0.959 . S
H692 C685 0.961 . S
H693 C685 0.960 . S
H694 C686 0.930 . S
H695 C687 0.929 . S
H696 C704 0.929 . S
H697 C706 0.930 . S
H698 C708 0.930 . S
H699 C711 0.929 . S
H700 C714 0.930 . S
H701 C716 0.960 . S
H702 C716 0.960 . S
H703 C716 0.960 . S
C704 H696 0.929 . S
C704 C705 1.377 . S
C704 C706 1.384 . S
C705 C704 1.377 . S
C705 C711 1.390 . S
C706 H697 0.930 . S
C706 C704 1.384 . S
C706 C707 1.372 . S
C707 C706 1.372 . S
C707 C708 1.400 . S
C707 C712 1.490 . S
C708 H698 0.930 . S
C708 C707 1.400 . S
C708 C711 1.386 . S
H709 C725 0.930 . S
H710 C726 0.949 . S
C711 H699 0.929 . S
C711 C705 1.390 . S
C711 C708 1.386 . S
C712 C707 1.490 . S
C712 C714 1.395 . S
C712 C715 1.403 . S
H713 C719 0.930 . S
C714 H700 0.930 . S
C714 C712 1.395 . S
C714 C717 1.403 . S
C715 C712 1.403 . S
C715 C716 1.524 . S
C715 C719 1.400 . S
C716 H701 0.960 . S
C716 H702 0.960 . S
C716 H703 0.960 . S
C716 C715 1.524 . S
C717 C714 1.403 . S
C717 C718 1.392 . S
C717 C721 1.495 1_554 S
C718 C717 1.392 . S
C718 C719 1.385 . S
C718 C720 1.478 1_554 S
C719 H713 0.930 . S
C719 C715 1.400 . S
C719 C718 1.385 . S
C720 C718 1.478 1_556 S
C720 C722 1.381 . S
C720 C726 1.383 . S
C721 C717 1.495 1_556 S
C721 H727 0.959 . S
C721 H728 0.961 . S
C721 H729 0.960 . S
C722 C720 1.381 . S
C722 C723 1.394 . S
C722 H730 0.930 . S
C723 C722 1.394 . S
C723 C724 1.383 . S
C723 H731 0.929 . S
C724 C723 1.383 . S
C724 C725 1.377 . S
C725 H709 0.930 . S
C725 C724 1.377 . S
C725 C726 1.379 . S
C726 H710 0.949 . S
C726 C720 1.383 . S
C726 C725 1.379 . S
H727 C721 0.959 . S
H728 C721 0.961 . S
H729 C721 0.960 . S
H730 C722 0.930 . S
H731 C723 0.929 . S
H732 C740 0.929 . S
H733 C742 0.930 . S
H734 C744 0.930 . S
H735 C747 0.929 . S
H736 C750 0.930 1_554 S
H737 C752 0.960 . S
H738 C752 0.960 1_554 S
H739 C752 0.960 . S
C740 H732 0.929 . S
C740 C741 1.377 . S
C740 C742 1.384 . S
C741 C740 1.377 . S
C741 C747 1.390 . S
C742 H733 0.930 . S
C742 C740 1.384 . S
C742 C743 1.372 . S
C743 C742 1.372 . S
C743 C744 1.400 . S
C743 C748 1.490 . S
C744 H734 0.930 . S
C744 C743 1.400 . S
C744 C747 1.386 . S
H745 C761 0.922 1_455 S
H746 C762 0.931 . S
C747 H735 0.929 . S
C747 C741 1.390 . S
C747 C744 1.386 . S
C748 C743 1.490 . S
C748 C750 1.395 1_554 S
C748 C751 1.403 1_654 S
H749 C755 0.930 . S
C750 H736 0.930 1_556 S
C750 C748 1.395 1_556 S
C750 C753 1.403 . S
C751 C748 1.403 1_456 S
C751 C752 1.524 . S
C751 C755 1.400 . S
C752 H737 0.960 . S
C752 H738 0.960 1_556 S
C752 H739 0.960 . S
C752 C751 1.524 . S
C753 C750 1.403 . S
C753 C754 1.392 . S
C753 C757 1.495 . S
C754 C753 1.392 . S
C754 C755 1.385 1_655 S
C754 C756 1.478 . S
C755 H749 0.930 . S
C755 C751 1.400 . S
C755 C754 1.385 1_455 S
C756 C754 1.478 . S
C756 C758 1.381 . S
C756 C762 1.383 . S
C757 C753 1.495 . S
C757 H763 0.959 . S
C757 H764 0.961 . S
C757 H765 0.960 . S
C758 C756 1.381 . S
C758 C759 1.394 . S
C758 H766 0.930 . S
C759 C758 1.394 . S
C759 C760 1.383 . S
C759 H767 0.929 . S
C760 C759 1.383 . S
C760 C761 1.386 . S
C761 H745 0.922 1_655 S
C761 C760 1.386 . S
C761 C762 1.385 . S
C762 H746 0.931 . S
C762 C756 1.383 . S
C762 C761 1.385 . S
H763 C757 0.959 . S
H764 C757 0.961 . S
H765 C757 0.960 . S
H766 C758 0.930 . S
H767 C759 0.929 . S
H768 C776 0.929 . S
H769 C778 0.944 . S
H770 C780 0.930 . S
H771 C783 0.929 . S
H772 C786 0.930 . S
H773 C788 0.960 . S
H774 C788 0.960 . S
H775 C788 0.960 . S
C776 H768 0.929 . S
C776 C777 1.377 . S
C776 C778 1.384 . S
C777 C776 1.377 . S
C777 C783 1.390 . S
C778 H769 0.944 . S
C778 C776 1.384 . S
C778 C779 1.372 . S
C779 C778 1.372 . S
C779 C780 1.400 . S
C779 C784 1.490 . S
C780 H770 0.930 . S
C780 C779 1.400 . S
C780 C783 1.386 . S
H781 C797 0.930 . S
H782 C798 0.931 . S
C783 H771 0.929 . S
C783 C777 1.390 . S
C783 C780 1.386 . S
C784 C779 1.490 . S
C784 C786 1.395 . S
C784 C787 1.403 . S
H785 C791 0.930 . S
C786 H772 0.930 . S
C786 C784 1.395 . S
C786 C789 1.403 . S
C787 C784 1.403 . S
C787 C788 1.524 . S
C787 C791 1.400 . S
C788 H773 0.960 . S
C788 H774 0.960 . S
C788 H775 0.960 . S
C788 C787 1.524 . S
C789 C786 1.403 . S
C789 C790 1.392 . S
C789 C793 1.495 1_455 S
C790 C789 1.392 . S
C790 C791 1.385 . S
C790 C792 1.478 . S
C791 H785 0.930 . S
C791 C787 1.400 . S
C791 C790 1.385 . S
C792 C790 1.478 . S
C792 C794 1.381 1_455 S
C792 C798 1.383 . S
C793 C789 1.495 1_655 S
C793 H799 0.959 . S
C793 H800 0.982 . S
C793 H801 0.960 . S
C794 C792 1.381 1_655 S
C794 C795 1.394 . S
C794 H802 0.930 . S
C795 C794 1.394 . S
C795 C796 1.383 . S
C795 H803 0.929 . S
C796 C795 1.383 . S
C796 C797 1.377 1_655 S
C797 H781 0.930 . S
C797 C796 1.377 1_455 S
C797 C798 1.379 . S
C798 H782 0.931 . S
C798 C792 1.383 . S
C798 C797 1.379 . S
H799 C793 0.959 . S
H800 C793 0.982 . S
H801 C793 0.960 . S
H802 C794 0.930 . S
H803 C795 0.929 . S
H804 C812 0.929 . S
H805 C814 0.930 . S
H806 C816 0.930 . S
H807 C819 0.929 . S
H808 C822 0.930 . S
H809 C824 0.960 . S
H810 C824 0.960 . S
H811 C824 0.960 . S
C812 H804 0.929 . S
C812 C813 1.407 . S
C812 C814 1.384 . S
C813 C812 1.407 . S
C813 C819 1.359 1_545 S
C814 H805 0.930 . S
C814 C812 1.384 . S
C814 C815 1.372 1_545 S
C815 C814 1.372 1_565 S
C815 C816 1.400 . S
C815 C820 1.490 . S
C816 H806 0.930 . S
C816 C815 1.400 . S
C816 C819 1.386 . S
H817 C833 0.930 . S
H818 C834 0.931 . S
C819 H807 0.929 . S
C819 C813 1.359 1_565 S
C819 C816 1.386 . S
C820 C815 1.490 . S
C820 C822 1.395 1_565 S
C820 C823 1.403 . S
H821 C827 0.930 . S
C822 H808 0.930 . S
C822 C820 1.395 1_545 S
C822 C825 1.403 . S
C823 C820 1.403 . S
C823 C824 1.524 . S
C823 C827 1.400 . S
C824 H809 0.960 . S
C824 H810 0.960 . S
C824 H811 0.960 . S
C824 C823 1.524 . S
C825 C822 1.403 . S
C825 C826 1.392 1_545 S
C825 C829 1.495 . S
C826 C825 1.392 1_565 S
C826 C827 1.385 . S
C826 C828 1.478 . S
C827 H821 0.930 . S
C827 C823 1.400 . S
C827 C826 1.385 . S
C828 C826 1.478 . S
C828 C830 1.381 . S
C828 C834 1.383 . S
C829 C825 1.495 . S
C829 H835 0.959 . S
C829 H836 0.961 . S
C829 H837 0.960 . S
C830 C828 1.381 . S
C830 C831 1.394 . S
C830 H838 0.930 1_565 S
C831 C830 1.394 . S
C831 C832 1.383 . S
C831 H839 0.940 . S
C832 C831 1.383 . S
C832 C833 1.377 . S
C833 H817 0.930 . S
C833 C832 1.377 . S
C833 C834 1.379 . S
C834 H818 0.931 . S
C834 C828 1.383 . S
C834 C833 1.379 . S
H835 C829 0.959 . S
H836 C829 0.961 . S
H837 C829 0.960 . S
H838 C830 0.930 1_545 S
H839 C831 0.940 . S
H840 C848 0.929 . S
H841 C850 0.930 . S
H842 C852 0.930 . S
H843 C855 0.929 . S
H844 C858 0.930 . S
H845 C860 0.960 . S
H846 C860 0.960 . S
H847 C860 0.960 . S
C848 H840 0.929 . S
C848 C849 1.377 . S
C848 C850 1.384 . S
C849 C848 1.377 . S
C849 C855 1.390 . S
C850 H841 0.930 . S
C850 C848 1.384 . S
C850 C851 1.372 . S
C851 C850 1.372 . S
C851 C852 1.400 . S
C851 C856 1.490 . S
C852 H842 0.930 . S
C852 C851 1.400 . S
C852 C855 1.386 . S
H853 C869 0.930 . S
H854 C870 0.931 . S
C855 H843 0.929 . S
C855 C849 1.390 . S
C855 C852 1.386 . S
C856 C851 1.490 . S
C856 C858 1.395 . S
C856 C859 1.403 . S
H857 C863 0.930 . S
C858 H844 0.930 . S
C858 C856 1.395 . S
C858 C861 1.403 . S
C859 C856 1.403 . S
C859 C860 1.524 . S
C859 C863 1.400 . S
C860 H845 0.960 . S
C860 H846 0.960 . S
C860 H847 0.960 . S
C860 C859 1.524 . S
C861 C858 1.403 . S
C861 C862 1.392 . S
C861 C865 1.495 . S
C862 C861 1.392 . S
C862 C863 1.385 . S
C862 C864 1.478 . S
C863 H857 0.930 . S
C863 C859 1.400 . S
C863 C862 1.385 . S
C864 C862 1.478 . S
C864 C866 1.381 . S
C864 C870 1.383 . S
C865 C861 1.495 . S
C865 H871 0.959 . S
C865 H872 0.961 . S
C865 H873 0.960 . S
C866 C864 1.381 . S
C866 C867 1.394 . S
C866 H874 0.930 . S
C867 C866 1.394 . S
C867 C868 1.383 . S
C867 H875 0.929 . S
C868 C867 1.383 . S
C868 C869 1.377 . S
C869 H853 0.930 . S
C869 C868 1.377 . S
C869 C870 1.379 . S
C870 H854 0.931 . S
C870 C864 1.383 . S
C870 C869 1.379 . S
H871 C865 0.959 . S
H872 C865 0.961 . S
H873 C865 0.960 . S
H874 C866 0.930 . S
H875 C867 0.929 . S
H876 C884 0.929 . S
H877 C886 0.930 . S
H878 C888 0.930 . S
H879 C891 0.929 . S
H880 C894 0.930 . S
H881 C896 0.960 . S
H882 C896 0.960 . S
H883 C896 0.960 . S
C884 H876 0.929 . S
C884 C885 1.377 . S
C884 C886 1.384 . S
C885 C884 1.377 . S
C885 C891 1.390 . S
C886 H877 0.930 . S
C886 C884 1.384 . S
C886 C887 1.372 . S
C887 C886 1.372 . S
C887 C888 1.400 . S
C887 C892 1.490 . S
C888 H878 0.930 . S
C888 C887 1.400 . S
C888 C891 1.386 . S
H889 C905 0.930 . S
H890 C906 0.931 . S
C891 H879 0.929 . S
C891 C885 1.390 . S
C891 C888 1.386 . S
C892 C887 1.490 . S
C892 C894 1.395 . S
C892 C895 1.403 . S
H893 C899 0.930 . S
C894 H880 0.930 . S
C894 C892 1.395 . S
C894 C897 1.403 . S
C895 C892 1.403 . S
C895 C896 1.524 . S
C895 C899 1.400 . S
C896 H881 0.960 . S
C896 H882 0.960 . S
C896 H883 0.960 . S
C896 C895 1.524 . S
C897 C894 1.403 . S
C897 C898 1.392 . S
C897 C901 1.495 . S
C898 C897 1.392 . S
C898 C899 1.385 . S
C898 C900 1.478 . S
C899 H893 0.930 . S
C899 C895 1.400 . S
C899 C898 1.385 . S
C900 C898 1.478 . S
C900 C902 1.381 . S
C900 C906 1.383 . S
C901 C897 1.495 . S
C901 H907 0.959 . S
C901 H908 0.961 . S
C901 H909 0.960 . S
C902 C900 1.381 . S
C902 C903 1.394 . S
C902 H910 0.930 . S
C903 C902 1.394 . S
C903 C904 1.383 . S
C903 H911 0.929 . S
C904 C903 1.383 . S
C904 C905 1.377 . S
C905 H889 0.930 . S
C905 C904 1.377 . S
C905 C906 1.379 . S
C906 H890 0.931 . S
C906 C900 1.383 . S
C906 C905 1.379 . S
H907 C901 0.959 . S
H908 C901 0.961 . S
H909 C901 0.960 . S
H910 C902 0.930 . S
H911 C903 0.929 . S
H912 C920 0.929 . S
H913 C922 0.930 . S
H914 C924 0.930 1_556 S
H915 C927 0.929 . S
H916 C930 0.930 . S
H917 C932 0.960 . S
H918 C932 0.960 . S
H919 C932 0.960 . S
C920 H912 0.929 . S
C920 C921 1.377 . S
C920 C922 1.384 . S
C921 C920 1.377 . S
C921 C927 1.390 . S
C922 H913 0.930 . S
C922 C920 1.384 . S
C922 C923 1.372 . S
C923 C922 1.372 . S
C923 C924 1.400 . S
C923 C928 1.490 1_554 S
C924 H914 0.930 1_554 S
C924 C923 1.400 . S
C924 C927 1.386 . S
H925 C941 0.930 . S
H926 C942 0.931 . S
C927 H915 0.929 . S
C927 C921 1.390 . S
C927 C924 1.386 . S
C928 C923 1.490 1_556 S
C928 C930 1.395 1_656 S
C928 C931 1.403 . S
H929 C935 0.930 . S
C930 H916 0.930 . S
C930 C928 1.395 1_454 S
C930 C933 1.403 1_554 S
C931 C928 1.403 . S
C931 C932 1.524 . S
C931 C935 1.400 . S
C932 H917 0.960 . S
C932 H918 0.960 . S
C932 H919 0.960 . S
C932 C931 1.524 . S
C933 C930 1.403 1_556 S
C933 C934 1.392 . S
C933 C937 1.495 1_556 S
C934 C933 1.392 . S
C934 C935 1.385 1_455 S
C934 C936 1.478 . S
C935 H929 0.930 . S
C935 C931 1.400 . S
C935 C934 1.385 1_655 S
C936 C934 1.478 . S
C936 C938 1.381 . S
C936 C942 1.383 . S
C937 C933 1.495 1_554 S
C937 H943 0.959 . S
C937 H944 0.961 1_554 S
C937 H945 0.960 . S
C938 C936 1.381 . S
C938 C939 1.394 . S
C938 H946 0.930 1_455 S
C939 C938 1.394 . S
C939 C940 1.383 . S
C939 H947 0.929 . S
C940 C939 1.383 . S
C940 C941 1.377 . S
C941 H925 0.930 . S
C941 C940 1.377 . S
C941 C942 1.379 . S
C942 H926 0.931 . S
C942 C936 1.383 . S
C942 C941 1.379 . S
H943 C937 0.959 . S
H944 C937 0.961 1_556 S
H945 C937 0.960 . S
H946 C938 0.930 1_655 S
H947 C939 0.929 . S
H948 C956 0.929 . S
H949 C958 0.930 . S
H950 C960 0.930 . S
H951 C963 0.929 . S
H952 C966 0.930 . S
H953 C968 0.960 . S
H954 C968 0.960 . S
H955 C968 0.960 . S
C956 H948 0.929 . S
C956 C957 1.368 1_546 S
C956 C958 1.384 . S
C957 C956 1.368 1_564 S
C957 C963 1.398 . S
C958 H949 0.930 . S
C958 C956 1.384 . S
C958 C959 1.372 . S
C959 C958 1.372 . S
C959 C960 1.400 1_546 S
C959 C964 1.490 . S
C960 H950 0.930 . S
C960 C959 1.400 1_564 S
C960 C963 1.386 . S
H961 C977 0.930 . S
H962 C978 0.931 1_565 S
C963 H951 0.929 . S
C963 C957 1.398 . S
C963 C960 1.386 . S
C964 C959 1.490 . S
C964 C966 1.395 1_545 S
C964 C967 1.403 . S
H965 C971 0.930 . S
C966 H952 0.930 . S
C966 C964 1.395 1_565 S
C966 C969 1.404 . S
C967 C964 1.403 . S
C967 C968 1.524 1_556 S
C967 C971 1.400 . S
C968 H953 0.960 . S
C968 H954 0.960 . S
C968 H955 0.960 . S
C968 C967 1.524 1_554 S
C969 C966 1.404 . S
C969 C970 1.381 1_565 S
C969 C973 1.507 . S
C970 C969 1.381 1_545 S
C970 C971 1.385 . S
C970 C972 1.478 . S
C971 H965 0.930 . S
C971 C967 1.400 . S
C971 C970 1.385 . S
C972 C970 1.478 . S
C972 C974 1.381 . S
C972 C978 1.383 . S
C973 C969 1.507 . S
C973 H979 0.959 . S
C973 H980 0.961 . S
C973 H981 0.960 . S
C974 C972 1.381 . S
C974 C975 1.394 . S
C974 H982 0.930 . S
C975 C974 1.394 . S
C975 C976 1.383 . S
C975 H983 0.929 . S
C976 C975 1.383 . S
C976 C977 1.377 . S
C977 H961 0.930 . S
C977 C976 1.377 . S
C977 C978 1.379 . S
C978 H962 0.931 1_545 S
C978 C972 1.383 . S
C978 C977 1.379 . S
H979 C973 0.959 . S
H980 C973 0.961 . S
H981 C973 0.960 . S
H982 C974 0.930 . S
H983 C975 0.929 . S
H984 C992 0.929 . S
H985 C994 0.930 . S
H986 C996 0.930 . S
H987 C999 0.929 . S
H988 C1002 0.930 . S
H989 C1004 0.960 . S
H990 C1004 0.960 . S
H991 C1004 0.960 . S
C992 H984 0.929 . S
C992 C993 1.377 . S
C992 C994 1.384 . S
C993 C992 1.377 . S
C993 C999 1.390 . S
C994 H985 0.930 . S
C994 C992 1.384 . S
C994 C995 1.372 . S
C995 C994 1.372 . S
C995 C996 1.400 . S
C995 C1000 1.490 . S
C996 H986 0.930 . S
C996 C995 1.400 . S
C996 C999 1.386 . S
H997 C1013 0.930 . S
H998 C1014 0.931 . S
C999 H987 0.929 . S
C999 C993 1.390 . S
C999 C996 1.386 . S
C1000 C995 1.490 . S
C1000 C1002 1.395 . S
C1000 C1003 1.403 . S
H1001 C1007 0.930 . S
C1002 H988 0.930 . S
C1002 C1000 1.395 . S
C1002 C1005 1.403 . S
C1003 C1000 1.403 . S
C1003 C1004 1.524 . S
C1003 C1007 1.400 . S
C1004 H989 0.960 . S
C1004 H990 0.960 . S
C1004 H991 0.960 . S
C1004 C1003 1.524 . S
C1005 C1002 1.403 . S
C1005 C1006 1.392 . S
C1005 C1009 1.495 . S
C1006 C1005 1.392 . S
C1006 C1007 1.385 . S
C1006 C1008 1.478 . S
C1007 H1001 0.930 . S
C1007 C1003 1.400 . S
C1007 C1006 1.385 . S
C1008 C1006 1.478 . S
C1008 C1010 1.381 . S
C1008 C1014 1.383 . S
C1009 C1005 1.495 . S
C1009 H1015 0.959 . S
C1009 H1016 0.961 . S
C1009 H1017 0.960 . S
C1010 C1008 1.381 . S
C1010 C1011 1.394 . S
C1010 H1018 0.930 . S
C1011 C1010 1.394 . S
C1011 C1012 1.383 . S
C1011 H1019 0.929 . S
C1012 C1011 1.383 . S
C1012 C1013 1.377 . S
C1013 H997 0.930 . S
C1013 C1012 1.377 . S
C1013 C1014 1.379 . S
C1014 H998 0.931 . S
C1014 C1008 1.383 . S
C1014 C1013 1.379 . S
H1015 C1009 0.959 . S
H1016 C1009 0.961 . S
H1017 C1009 0.960 . S
H1018 C1010 0.930 . S
H1019 C1011 0.929 . S
H1020 C1028 0.929 . S
H1021 C1030 0.930 . S
H1022 C1032 0.930 . S
H1023 C1035 0.929 . S
H1024 C1038 0.930 . S
H1025 C1040 0.960 . S
H1026 C1040 0.960 . S
H1027 C1040 0.960 1_554 S
C1028 H1020 0.929 . S
C1028 C1029 1.377 . S
C1028 C1030 1.384 . S
C1029 C1028 1.377 . S
C1029 C1035 1.390 . S
C1030 H1021 0.930 . S
C1030 C1028 1.384 . S
C1030 C1031 1.372 . S
C1031 C1030 1.372 . S
C1031 C1032 1.400 . S
C1031 C1036 1.490 . S
C1032 H1022 0.930 . S
C1032 C1031 1.400 . S
C1032 C1035 1.386 . S
H1033 C1049 0.930 . S
H1034 C1050 0.931 . S
C1035 H1023 0.929 . S
C1035 C1029 1.390 . S
C1035 C1032 1.386 . S
C1036 C1031 1.490 . S
C1036 C1038 1.395 . S
C1036 C1039 1.403 . S
H1037 C1043 0.930 . S
C1038 H1024 0.930 . S
C1038 C1036 1.395 . S
C1038 C1041 1.403 . S
C1039 C1036 1.403 . S
C1039 C1040 1.524 1_554 S
C1039 C1043 1.400 1_554 S
C1040 H1025 0.960 . S
C1040 H1026 0.960 . S
C1040 H1027 0.960 1_556 S
C1040 C1039 1.524 1_556 S
C1041 C1038 1.403 . S
C1041 C1042 1.392 1_554 S
C1041 C1045 1.495 . S
C1042 C1041 1.392 1_556 S
C1042 C1043 1.385 . S
C1042 C1044 1.478 . S
C1043 H1037 0.930 . S
C1043 C1039 1.400 1_556 S
C1043 C1042 1.385 . S
C1044 C1042 1.478 . S
C1044 C1046 1.381 . S
C1044 C1050 1.383 . S
C1045 C1041 1.495 . S
C1045 H1051 0.959 . S
C1045 H1052 0.961 . S
C1045 H1053 0.960 . S
C1046 C1044 1.381 . S
C1046 C1047 1.394 . S
C1046 H1054 0.930 . S
C1047 C1046 1.394 . S
C1047 C1048 1.383 . S
C1047 H1055 0.929 . S
C1048 C1047 1.383 . S
C1048 C1049 1.377 . S
C1049 H1033 0.930 . S
C1049 C1048 1.377 . S
C1049 C1050 1.379 . S
C1050 H1034 0.931 . S
C1050 C1044 1.383 . S
C1050 C1049 1.379 . S
H1051 C1045 0.959 . S
H1052 C1045 0.961 . S
H1053 C1045 0.960 . S
H1054 C1046 0.930 . S
H1055 C1047 0.929 . S
H1056 C1064 0.929 . S
H1057 C1066 0.930 . S
H1058 C1068 0.930 . S
H1059 C1071 0.929 . S
H1060 C1074 0.930 . S
H1061 C1076 0.960 . S
H1062 C1076 0.960 . S
H1063 C1076 0.960 . S
C1064 H1056 0.929 . S
C1064 C1065 1.377 . S
C1064 C1066 1.384 . S
C1065 C1064 1.377 . S
C1065 C1071 1.390 . S
C1066 H1057 0.930 . S
C1066 C1064 1.384 . S
C1066 C1067 1.372 . S
C1067 C1066 1.372 . S
C1067 C1068 1.400 . S
C1067 C1072 1.490 . S
C1068 H1058 0.930 . S
C1068 C1067 1.400 . S
C1068 C1071 1.386 . S
H1069 C1085 0.930 . S
H1070 C1086 0.931 . S
C1071 H1059 0.929 . S
C1071 C1065 1.390 . S
C1071 C1068 1.386 . S
C1072 C1067 1.490 . S
C1072 C1074 1.395 . S
C1072 C1075 1.403 . S
H1073 C1079 0.930 . S
C1074 H1060 0.930 . S
C1074 C1072 1.395 . S
C1074 C1077 1.403 . S
C1075 C1072 1.403 . S
C1075 C1076 1.524 . S
C1075 C1079 1.400 . S
C1076 H1061 0.960 . S
C1076 H1062 0.960 . S
C1076 H1063 0.960 . S
C1076 C1075 1.524 . S
C1077 C1074 1.403 . S
C1077 C1078 1.392 . S
C1077 C1081 1.495 1_455 S
C1078 C1077 1.392 . S
C1078 C1079 1.385 . S
C1078 C1080 1.478 . S
C1079 H1073 0.930 . S
C1079 C1075 1.400 . S
C1079 C1078 1.385 . S
C1080 C1078 1.478 . S
C1080 C1082 1.381 . S
C1080 C1086 1.383 . S
C1081 C1077 1.495 1_655 S
C1081 H1087 0.959 . S
C1081 H1088 0.961 . S
C1081 H1089 0.960 . S
C1082 C1080 1.381 . S
C1082 C1083 1.394 . S
C1082 H1090 0.930 . S
C1083 C1082 1.394 . S
C1083 C1084 1.383 . S
C1083 H1091 0.929 . S
C1084 C1083 1.383 . S
C1084 C1085 1.377 . S
C1085 H1069 0.930 . S
C1085 C1084 1.377 . S
C1085 C1086 1.379 . S
C1086 H1070 0.931 . S
C1086 C1080 1.383 . S
C1086 C1085 1.379 . S
H1087 C1081 0.959 . S
H1088 C1081 0.961 . S
H1089 C1081 0.960 . S
H1090 C1082 0.930 . S
H1091 C1083 0.929 . S
H1092 C1100 0.929 . S
H1093 C1102 0.930 . S
H1094 C1104 0.930 . S
H1095 C1107 0.929 . S
H1096 C1110 0.930 . S
H1097 C1112 0.960 . S
H1098 C1112 0.960 . S
H1099 C1112 0.960 . S
C1100 H1092 0.929 . S
C1100 C1101 1.377 . S
C1100 C1102 1.384 . S
C1101 C1100 1.377 . S
C1101 C1107 1.390 1_545 S
C1102 H1093 0.930 . S
C1102 C1100 1.384 . S
C1102 C1103 1.372 . S
C1103 C1102 1.372 . S
C1103 C1104 1.400 1_545 S
C1103 C1108 1.490 . S
C1104 H1094 0.930 . S
C1104 C1103 1.400 1_565 S
C1104 C1107 1.386 . S
H1105 C1121 0.930 . S
H1106 C1122 0.931 . S
C1107 H1095 0.929 . S
C1107 C1101 1.390 1_565 S
C1107 C1104 1.386 . S
C1108 C1103 1.490 . S
C1108 C1110 1.395 1_545 S
C1108 C1111 1.403 . S
H1109 C1115 0.930 . S
C1110 H1096 0.930 . S
C1110 C1108 1.395 1_565 S
C1110 C1113 1.403 . S
C1111 C1108 1.403 . S
C1111 C1112 1.524 . S
C1111 C1115 1.400 . S
C1112 H1097 0.960 . S
C1112 H1098 0.960 . S
C1112 H1099 0.960 . S
C1112 C1111 1.524 . S
C1113 C1110 1.403 . S
C1113 C1114 1.392 1_565 S
C1113 C1117 1.495 . S
C1114 C1113 1.392 1_545 S
C1114 C1115 1.385 . S
C1114 C1116 1.478 . S
C1115 H1109 0.930 . S
C1115 C1111 1.400 . S
C1115 C1114 1.385 . S
C1116 C1114 1.478 . S
C1116 C1118 1.381 . S
C1116 C1122 1.383 1_545 S
C1117 C1113 1.495 . S
C1117 H1123 0.959 . S
C1117 H1124 0.961 . S
C1117 H1125 0.960 . S
C1118 C1116 1.381 . S
C1118 C1119 1.394 . S
C1118 H1126 0.930 . S
C1119 C1118 1.394 . S
C1119 C1120 1.383 . S
C1119 H1127 0.929 . S
C1120 C1119 1.383 . S
C1120 C1121 1.377 1_545 S
C1121 H1105 0.930 . S
C1121 C1120 1.377 1_565 S
C1121 C1122 1.379 . S
C1122 H1106 0.931 . S
C1122 C1116 1.383 1_565 S
C1122 C1121 1.379 . S
H1123 C1117 0.959 . S
H1124 C1117 0.961 . S
H1125 C1117 0.960 . S
H1126 C1118 0.930 . S
H1127 C1119 0.929 . S
H1128 C1136 0.929 . S
H1129 C1138 0.930 . S
H1130 C1140 0.930 . S
H1131 C1143 0.929 . S
H1132 C1146 0.930 . S
H1133 C1148 0.960 . S
H1134 C1148 0.960 . S
H1135 C1148 0.960 . S
C1136 H1128 0.929 . S
C1136 C1137 1.377 . S
C1136 C1138 1.384 . S
C1137 C1136 1.377 . S
C1137 C1143 1.390 1_554 S
C1138 H1129 0.930 . S
C1138 C1136 1.384 . S
C1138 C1139 1.372 1_554 S
C1139 C1138 1.372 1_556 S
C1139 C1140 1.400 . S
C1139 C1144 1.490 . S
C1140 H1130 0.930 . S
C1140 C1139 1.400 . S
C1140 C1143 1.386 . S
H1141 C1157 0.930 . S
H1142 C1158 0.931 . S
C1143 H1131 0.929 . S
C1143 C1137 1.390 1_556 S
C1143 C1140 1.386 . S
C1144 C1139 1.490 . S
C1144 C1146 1.395 . S
C1144 C1147 1.403 . S
H1145 C1151 0.930 . S
C1146 H1132 0.930 . S
C1146 C1144 1.395 . S
C1146 C1149 1.403 . S
C1147 C1144 1.403 . S
C1147 C1148 1.524 . S
C1147 C1151 1.400 . S
C1148 H1133 0.960 . S
C1148 H1134 0.960 . S
C1148 H1135 0.960 . S
C1148 C1147 1.524 . S
C1149 C1146 1.403 . S
C1149 C1150 1.392 . S
C1149 C1153 1.495 . S
C1150 C1149 1.392 . S
C1150 C1151 1.385 . S
C1150 C1152 1.478 . S
C1151 H1145 0.930 . S
C1151 C1147 1.400 . S
C1151 C1150 1.385 . S
C1152 C1150 1.478 . S
C1152 C1154 1.381 . S
C1152 C1158 1.383 . S
C1153 C1149 1.495 . S
C1153 H1159 0.959 . S
C1153 H1160 0.961 . S
C1153 H1161 0.960 . S
C1154 C1152 1.381 . S
C1154 C1155 1.394 . S
C1154 H1162 0.930 . S
C1155 C1154 1.394 . S
C1155 C1156 1.383 . S
C1155 H1163 0.929 . S
C1156 C1155 1.383 . S
C1156 C1157 1.377 . S
C1157 H1141 0.930 . S
C1157 C1156 1.377 . S
C1157 C1158 1.379 . S
C1158 H1142 0.931 . S
C1158 C1152 1.383 . S
C1158 C1157 1.379 . S
H1159 C1153 0.959 . S
H1160 C1153 0.961 . S
H1161 C1153 0.960 . S
H1162 C1154 0.930 . S
H1163 C1155 0.929 . S
H1164 C1172 0.929 . S
H1165 C1174 0.930 . S
H1166 C1176 0.930 . S
H1167 C1179 0.929 . S
H1168 C1182 0.930 . S
H1169 C1184 0.960 . S
H1170 C1184 0.960 . S
H1171 C1184 0.960 . S
C1172 H1164 0.929 . S
C1172 C1173 1.377 . S
C1172 C1174 1.384 . S
C1173 C1172 1.377 . S
C1173 C1179 1.390 . S
C1174 H1165 0.930 . S
C1174 C1172 1.384 . S
C1174 C1175 1.372 . S
C1175 C1174 1.372 . S
C1175 C1176 1.400 . S
C1175 C1180 1.490 . S
C1176 H1166 0.930 . S
C1176 C1175 1.400 . S
C1176 C1179 1.386 . S
H1177 C1193 0.930 . S
H1178 C1194 0.931 . S
C1179 H1167 0.929 . S
C1179 C1173 1.390 . S
C1179 C1176 1.386 . S
C1180 C1175 1.490 . S
C1180 C1182 1.395 . S
C1180 C1183 1.403 . S
H1181 C1187 0.930 . S
C1182 H1168 0.930 . S
C1182 C1180 1.395 . S
C1182 C1185 1.403 . S
C1183 C1180 1.403 . S
C1183 C1184 1.524 . S
C1183 C1187 1.400 . S
C1184 H1169 0.960 . S
C1184 H1170 0.960 . S
C1184 H1171 0.960 . S
C1184 C1183 1.524 . S
C1185 C1182 1.403 . S
C1185 C1186 1.392 . S
C1185 C1189 1.495 . S
C1186 C1185 1.392 . S
C1186 C1187 1.385 . S
C1186 C1188 1.478 . S
C1187 H1181 0.930 . S
C1187 C1183 1.400 . S
C1187 C1186 1.385 . S
C1188 C1186 1.478 . S
C1188 C1190 1.381 . S
C1188 C1194 1.383 . S
C1189 C1185 1.495 . S
C1189 H1195 0.959 . S
C1189 H1196 0.961 . S
C1189 H1197 0.960 . S
C1190 C1188 1.381 . S
C1190 C1191 1.394 . S
C1190 H1198 0.930 . S
C1191 C1190 1.394 . S
C1191 C1192 1.383 . S
C1191 H1199 0.929 . S
C1192 C1191 1.383 . S
C1192 C1193 1.377 . S
C1193 H1177 0.930 . S
C1193 C1192 1.377 . S
C1193 C1194 1.379 . S
C1194 H1178 0.931 . S
C1194 C1188 1.383 . S
C1194 C1193 1.379 . S
H1195 C1189 0.959 . S
H1196 C1189 0.961 . S
H1197 C1189 0.960 . S
H1198 C1190 0.930 . S
H1199 C1191 0.929 . S
H1200 C1208 0.929 1_455 S
H1201 C1210 0.925 1_455 S
H1202 C1212 0.930 . S
H1203 C1215 0.929 . S
H1204 C1218 0.930 1_455 S
H1205 C1220 0.960 . S
H1206 C1220 0.960 . S
H1207 C1220 0.960 . S
C1208 H1200 0.929 1_655 S
C1208 C1209 1.377 . S
C1208 C1210 1.385 . S
C1209 C1208 1.377 . S
C1209 C1215 1.390 . S
C1210 H1201 0.925 1_655 S
C1210 C1208 1.385 . S
C1210 C1211 1.375 . S
C1211 C1210 1.375 . S
C1211 C1212 1.400 . S
C1211 C1216 1.490 . S
C1212 H1202 0.930 . S
C1212 C1211 1.400 . S
C1212 C1215 1.386 . S
H1213 C1229 0.930 . S
H1214 C1230 0.931 . S
C1215 H1203 0.929 . S
C1215 C1209 1.390 . S
C1215 C1212 1.386 . S
C1216 C1211 1.490 . S
C1216 C1218 1.395 . S
C1216 C1219 1.403 . S
H1217 C1223 0.930 . S
C1218 H1204 0.930 1_655 S
C1218 C1216 1.395 . S
C1218 C1221 1.411 . S
C1219 C1216 1.403 . S
C1219 C1220 1.524 . S
C1219 C1223 1.400 . S
C1220 H1205 0.960 . S
C1220 H1206 0.960 . S
C1220 H1207 0.960 . S
C1220 C1219 1.524 . S
C1221 C1218 1.411 . S
C1221 C1222 1.403 . S
C1221 C1225 1.479 1_655 S
C1222 C1221 1.403 . S
C1222 C1223 1.385 . S
C1222 C1224 1.478 . S
C1223 H1217 0.930 . S
C1223 C1219 1.400 . S
C1223 C1222 1.385 . S
C1224 C1222 1.478 . S
C1224 C1226 1.381 1_655 S
C1224 C1230 1.383 . S
C1225 C1221 1.479 1_455 S
C1225 H1231 0.959 . S
C1225 H1232 0.961 . S
C1225 H1233 0.960 . S
C1226 C1224 1.381 1_455 S
C1226 C1227 1.394 . S
C1226 H1234 0.930 . S
C1227 C1226 1.394 . S
C1227 C1228 1.383 1_455 S
C1227 H1235 0.929 . S
C1228 C1227 1.383 1_655 S
C1228 C1229 1.377 . S
C1229 H1213 0.930 . S
C1229 C1228 1.377 . S
C1229 C1230 1.379 . S
C1230 H1214 0.931 . S
C1230 C1224 1.383 . S
C1230 C1229 1.379 . S
H1231 C1225 0.959 . S
H1232 C1225 0.961 . S
H1233 C1225 0.960 . S
H1234 C1226 0.930 . S
H1235 C1227 0.929 . S
H1236 C1244 0.929 . S
H1237 C1246 0.930 . S
H1238 C1248 0.930 . S
H1239 C1251 0.929 . S
H1240 C1254 0.930 . S
H1241 C1256 0.960 . S
H1242 C1256 0.960 . S
H1243 C1256 0.960 . S
C1244 H1236 0.929 . S
C1244 C1245 1.367 1_545 S
C1244 C1246 1.384 . S
C1245 C1244 1.367 1_565 S
C1245 C1251 1.403 . S
C1246 H1237 0.930 . S
C1246 C1244 1.384 . S
C1246 C1247 1.372 1_545 S
C1247 C1246 1.372 1_565 S
C1247 C1248 1.400 . S
C1247 C1252 1.490 . S
C1248 H1238 0.930 . S
C1248 C1247 1.400 . S
C1248 C1251 1.386 . S
H1249 C1265 0.930 . S
H1250 C1266 0.931 . S
C1251 H1239 0.929 . S
C1251 C1245 1.403 . S
C1251 C1248 1.386 . S
C1252 C1247 1.490 . S
C1252 C1254 1.395 . S
C1252 C1255 1.403 1_565 S
H1253 C1259 0.930 . S
C1254 H1240 0.930 . S
C1254 C1252 1.395 . S
C1254 C1257 1.403 . S
C1255 C1252 1.403 1_545 S
C1255 C1256 1.524 . S
C1255 C1259 1.400 . S
C1256 H1241 0.960 . S
C1256 H1242 0.960 . S
C1256 H1243 0.960 . S
C1256 C1255 1.524 . S
C1257 C1254 1.403 . S
C1257 C1258 1.392 . S
C1257 C1261 1.495 . S
C1258 C1257 1.392 . S
C1258 C1259 1.385 1_565 S
C1258 C1260 1.478 . S
C1259 H1253 0.930 . S
C1259 C1255 1.400 . S
C1259 C1258 1.385 1_545 S
C1260 C1258 1.478 . S
C1260 C1262 1.381 1_565 S
C1260 C1266 1.383 . S
C1261 C1257 1.495 . S
C1261 H1267 0.959 . S
C1261 H1268 0.961 . S
C1261 H1269 0.960 . S
C1262 C1260 1.381 1_545 S
C1262 C1263 1.394 . S
C1262 H1270 0.930 . S
C1263 C1262 1.394 . S
C1263 C1264 1.383 1_545 S
C1263 H1271 0.929 . S
C1264 C1263 1.383 1_565 S
C1264 C1265 1.377 . S
C1265 H1249 0.930 . S
C1265 C1264 1.377 . S
C1265 C1266 1.379 . S
C1266 H1250 0.931 . S
C1266 C1260 1.383 . S
C1266 C1265 1.379 . S
H1267 C1261 0.959 . S
H1268 C1261 0.961 . S
H1269 C1261 0.960 . S
H1270 C1262 0.930 . S
H1271 C1263 0.929 . S
H1272 C1280 0.929 . S
H1273 C1282 0.930 . S
H1274 C1284 0.930 . S
H1275 C1287 0.929 . S
H1276 C1290 0.930 . S
H1277 C1292 0.960 . S
H1278 C1292 0.960 . S
H1279 C1292 0.960 . S
C1280 H1272 0.929 . S
C1280 C1281 1.377 . S
C1280 C1282 1.384 . S
C1281 C1280 1.377 . S
C1281 C1287 1.390 . S
C1282 H1273 0.930 . S
C1282 C1280 1.384 . S
C1282 C1283 1.372 . S
C1283 C1282 1.372 . S
C1283 C1284 1.400 . S
C1283 C1288 1.490 . S
C1284 H1274 0.930 . S
C1284 C1283 1.400 . S
C1284 C1287 1.386 . S
H1285 C1301 0.930 . S
H1286 C1302 0.931 . S
C1287 H1275 0.929 . S
C1287 C1281 1.390 . S
C1287 C1284 1.386 . S
C1288 C1283 1.490 . S
C1288 C1290 1.395 . S
C1288 C1291 1.403 . S
H1289 C1295 0.930 . S
C1290 H1276 0.930 . S
C1290 C1288 1.395 . S
C1290 C1293 1.403 . S
C1291 C1288 1.403 . S
C1291 C1292 1.524 . S
C1291 C1295 1.400 . S
C1292 H1277 0.960 . S
C1292 H1278 0.960 . S
C1292 H1279 0.960 . S
C1292 C1291 1.524 . S
C1293 C1290 1.403 . S
C1293 C1294 1.392 . S
C1293 C1297 1.495 . S
C1294 C1293 1.392 . S
C1294 C1295 1.385 . S
C1294 C1296 1.478 . S
C1295 H1289 0.930 . S
C1295 C1291 1.400 . S
C1295 C1294 1.385 . S
C1296 C1294 1.478 . S
C1296 C1298 1.381 . S
C1296 C1302 1.383 . S
C1297 C1293 1.495 . S
C1297 H1303 0.959 . S
C1297 H1304 0.961 . S
C1297 H1305 0.960 . S
C1298 C1296 1.381 . S
C1298 C1299 1.394 . S
C1298 H1306 0.930 . S
C1299 C1298 1.394 . S
C1299 C1300 1.383 . S
C1299 H1307 0.929 . S
C1300 C1299 1.383 . S
C1300 C1301 1.377 . S
C1301 H1285 0.930 . S
C1301 C1300 1.377 . S
C1301 C1302 1.379 . S
C1302 H1286 0.931 . S
C1302 C1296 1.383 . S
C1302 C1301 1.379 . S
H1303 C1297 0.959 . S
H1304 C1297 0.961 . S
H1305 C1297 0.960 . S
H1306 C1298 0.930 . S
H1307 C1299 0.929 . S
H1308 C1316 0.929 . S
H1309 C1318 0.930 . S
H1310 C1320 0.930 . S
H1311 C1323 0.929 . S
H1312 C1326 0.930 . S
H1313 C1328 0.960 . S
H1314 C1328 0.960 . S
H1315 C1328 0.960 . S
C1316 H1308 0.929 . S
C1316 C1317 1.377 . S
C1316 C1318 1.384 . S
C1317 C1316 1.377 . S
C1317 C1323 1.390 . S
C1318 H1309 0.930 . S
C1318 C1316 1.384 . S
C1318 C1319 1.372 . S
C1319 C1318 1.372 . S
C1319 C1320 1.400 . S
C1319 C1324 1.490 . S
C1320 H1310 0.930 . S
C1320 C1319 1.400 . S
C1320 C1323 1.386 . S
H1321 C1337 0.930 . S
H1322 C1338 0.931 . S
C1323 H1311 0.929 . S
C1323 C1317 1.390 . S
C1323 C1320 1.386 . S
C1324 C1319 1.490 . S
C1324 C1326 1.395 . S
C1324 C1327 1.403 . S
H1325 C1331 0.930 . S
C1326 H1312 0.930 . S
C1326 C1324 1.395 . S
C1326 C1329 1.403 . S
C1327 C1324 1.403 . S
C1327 C1328 1.524 . S
C1327 C1331 1.400 . S
C1328 H1313 0.960 . S
C1328 H1314 0.960 . S
C1328 H1315 0.960 . S
C1328 C1327 1.524 . S
C1329 C1326 1.403 . S
C1329 C1330 1.392 . S
C1329 C1333 1.495 . S
C1330 C1329 1.392 . S
C1330 C1331 1.385 . S
C1330 C1332 1.478 . S
C1331 H1325 0.930 . S
C1331 C1327 1.400 . S
C1331 C1330 1.385 . S
C1332 C1330 1.478 . S
C1332 C1334 1.381 . S
C1332 C1338 1.383 . S
C1333 C1329 1.495 . S
C1333 H1339 0.959 . S
C1333 H1340 0.961 . S
C1333 H1341 0.960 . S
C1334 C1332 1.381 . S
C1334 C1335 1.394 . S
C1334 H1342 0.930 . S
C1335 C1334 1.394 . S
C1335 C1336 1.383 . S
C1335 H1343 0.929 . S
C1336 C1335 1.383 . S
C1336 C1337 1.377 . S
C1337 H1321 0.930 . S
C1337 C1336 1.377 . S
C1337 C1338 1.379 . S
C1338 H1322 0.931 . S
C1338 C1332 1.383 . S
C1338 C1337 1.379 . S
H1339 C1333 0.959 . S
H1340 C1333 0.961 . S
H1341 C1333 0.960 . S
H1342 C1334 0.930 . S
H1343 C1335 0.929 . S
C489 C255 1.810 1_565 S
C508 C322 1.874 . S
C544 C362 2.158 . S
C525 C295 2.123 . S
C580 C426 2.408 . S
C561 C175 2.350 . S
C616 C442 1.919 . S
C597 C215 1.762 . S
C652 C343 1.855 . S
C633 C95 1.803 . S
C669 C135 2.119 . S
C688 C383 2.175 . S
C705 C15 2.351 . S
C724 C417 2.442 . S
C741 C55 1.769 . S
C760 C463 1.915 1_655 S
C796 C337 0.421 . S
C777 C221 0.219 . S
C832 C377 0.296 . S
C813 C261 0.385 . S
C868 C413 0.632 . S
C849 C301 0.463 . S
C885 C181 0.302 . S
C904 C457 0.381 . S
C921 C61 0.477 . S
C940 C346 0.437 . S
C976 C386 0.311 . S
C957 C101 0.401 1_565 S
C1012 C424 0.526 . S
C993 C141 0.725 . S
C1029 C21 0.503 . S
C1048 C466 0.436 . S
C1065 C202 2.731 . S
C1084 C344 2.927 . S
C1101 C242 2.401 . S
C1120 C384 2.581 . S
C1156 C402 1.865 . S
C1137 C282 1.864 . S
C1192 C464 3.303 . S
C1173 C162 3.063 . S
C1209 C42 2.715 . S
C1228 C333 2.957 . S
C1264 C373 2.589 . S
C1245 C82 2.404 1_565 S
C1300 C423 1.848 . S
C1281 C122 1.813 . S
C1317 C2 3.032 . S
C1336 C453 3.295 . S
