# Generated by pormake.
# Topology ftw, (4,12)-cn, num edge types: 1
# Building blocks:
#     Node 0, Type 0, BuildingBlock: ESEHIV_clean_sbu_0, # of connection points: 4
#     Node 1, Type 0, BuildingBlock: ESEHIV_clean_sbu_0, # of connection points: 4
#     Node 2, Type 0, BuildingBlock: ESEHIV_clean_sbu_0, # of connection points: 4
#     Node 3, Type 1, BuildingBlock: EZIPEK_clean_sbu_0, # of connection points: 12
#     Edge 4, Type (0, 1), BuildingBlock: AJUNOK_clean_linker_0, # of connection points: 2
#     Edge 5, Type (0, 1), BuildingBlock: AJUNOK_clean_linker_0, # of connection points: 2
#     Edge 6, Type (0, 1), BuildingBlock: AJUNOK_clean_linker_0, # of connection points: 2
#     Edge 7, Type (0, 1), BuildingBlock: AJUNOK_clean_linker_0, # of connection points: 2
#     Edge 8, Type (0, 1), BuildingBlock: AJUNOK_clean_linker_0, # of connection points: 2
#     Edge 9, Type (0, 1), BuildingBlock: AJUNOK_clean_linker_0, # of connection points: 2
#     Edge 10, Type (0, 1), BuildingBlock: AJUNOK_clean_linker_0, # of connection points: 2
#     Edge 11, Type (0, 1), BuildingBlock: AJUNOK_clean_linker_0, # of connection points: 2
#     Edge 12, Type (0, 1), BuildingBlock: AJUNOK_clean_linker_0, # of connection points: 2
#     Edge 13, Type (0, 1), BuildingBlock: AJUNOK_clean_linker_0, # of connection points: 2
#     Edge 14, Type (0, 1), BuildingBlock: AJUNOK_clean_linker_0, # of connection points: 2
#     Edge 15, Type (0, 1), BuildingBlock: AJUNOK_clean_linker_0, # of connection points: 2
# Relax obj value: 0.026
# Max RMSD: 0.144
# Mean RMSD: 0.116
data_MOF--net-ftw--node1-ESEHIV_clean_sbu_0--node2-EZIPEK_clean_sbu_0--edge1-AJUNOK_clean_linker_0
_symmetry_space_group_name_H-M    P1
_symmetry_Int_Tables_number       1
_symmetry_cell_setting            triclinic
loop_
_symmetry_equiv_pos_as_xyz
'x, y, z'
_cell_length_a     19.132409
_cell_length_b     18.987521
_cell_length_c     18.897076
_cell_angle_alpha  85.942084
_cell_angle_beta   85.853995
_cell_angle_gamma 94.117309
loop_
_atom_site_label
_atom_site_type_symbol
_atom_site_fract_x
_atom_site_fract_y
_atom_site_fract_z
_atom_type_partial_charge
Cu0 Cu 1.0197 0.53605 0.4885 0.0
N1 N 0.96607 0.48208 0.4307 0.0
N2 N 0.95139 0.41058 0.34318 0.0
C3 C 0.99537 0.43553 0.38968 0.0
C4 C 0.89142 0.44278 0.35573 0.0
C5 C 0.90073 0.48713 0.40991 0.0
O6 O 0.07674 0.47232 0.53977 0.0
C7 C 1.02316 0.6557 0.40378 0.0
O8 O 0.95716 0.64551 0.42907 0.0
H9 H 0.04916 0.42206 0.39258 0.0
H10 H 0.86401 0.5231 0.4299 0.0
N11 N 0.97032 0.57964 0.55932 0.0
N12 N 0.95934 0.65335 0.6454 0.0
C13 C 1.00077 0.63369 0.59098 0.0
C14 C 0.90682 0.56427 0.5946 0.0
C15 C 0.89985 0.61002 0.64815 0.0
C16 C 0.03993 0.41877 0.57069 0.0
O17 O 0.97224 0.41173 0.56286 0.0
H18 H 0.05386 0.65621 0.57611 0.0
H19 H 0.86936 0.52181 0.58355 0.0
O20 O 0.06654 0.61191 0.42407 0.0
H21 H 0.84561 0.43789 0.32555 0.0
H22 H 0.85507 0.61079 0.68644 0.0
Cu23 Cu 0.55502 1.00545 0.49119 0.0
N24 N 0.60818 0.94971 0.54873 0.0
N25 N 0.69216 0.93246 0.62279 0.0
C26 C 0.66667 0.97764 0.57483 0.0
C27 C 0.64786 0.87342 0.62737 0.0
C28 C 0.59625 0.88394 0.58094 0.0
O29 O 0.62313 0.05104 0.41815 0.0
C30 C 0.46217 0.02445 0.60009 0.0
O31 O 0.46203 0.95535 0.60028 0.0
H32 H 0.6872 0.03212 0.56253 0.0
H33 H 0.55126 0.84785 0.57455 0.0
N34 N 0.48705 0.95872 0.4417 0.0
N35 N 0.40335 0.95173 0.36562 0.0
C36 C 0.4515 0.99426 0.39374 0.0
C37 C 0.46103 0.89077 0.44378 0.0
C38 C 0.40906 0.88632 0.39669 0.0
C39 C 0.6469 1.00469 0.37908 0.0
O40 O 0.62409 0.93793 0.39339 0.0
H41 H 0.45981 0.05087 0.38096 0.0
H42 H 0.47815 0.84774 0.47711 0.0
O43 O 0.50232 0.06317 0.55378 0.0
H44 H 0.65091 0.82732 0.66382 0.0
H45 H 0.37825 0.83876 0.3859 0.0
Cu46 Cu 0.55341 0.53675 0.02083 0.0
N47 N 0.49651 0.59257 0.07461 0.0
N48 N 0.42145 0.67619 0.08959 0.0
C49 C 0.44873 0.63147 0.04478 0.0
C50 C 0.4528 0.66464 0.15069 0.0
C51 C 0.49928 0.61281 0.14127 0.0
O52 O 0.49031 0.48288 0.9641 0.0
C53 C 0.67027 0.6246 0.02023 0.0
O54 O 0.65805 0.60042 0.08714 0.0
H55 H 0.43706 0.62972 0.98968 0.0
H56 H 0.53453 0.59357 0.17918 0.0
N57 N 0.59956 0.46768 0.07045 0.0
N58 N 0.67492 0.38372 0.08176 0.0
C59 C 0.65186 0.4349 0.03843 0.0
C60 C 0.58911 0.43661 0.13699 0.0
C61 C 0.63577 0.38451 0.14413 0.0
C62 C 0.44019 0.44873 1.00346 0.0
O63 O 0.43686 0.45475 0.07238 0.0
H64 H 0.67104 0.44692 0.98326 0.0
H65 H 0.54973 0.4499 0.1768 0.0
O66 O 0.62834 0.60356 0.97503 0.0
H67 H 0.44381 0.69253 0.19812 0.0
H68 H 0.64027 0.34984 0.1913 0.0
C69 C 0.0711 0.20819 0.79673 0.0
C70 C 1.0308 0.21335 0.13976 0.0
C71 C 0.04992 0.86478 0.83206 0.0
C72 C 0.052 0.87344 0.17289 0.0
C73 C 0.22789 0.88401 0.01047 0.0
C74 C 0.22543 0.22759 0.96977 0.0
C75 C 0.88998 0.85317 0.99694 0.0
C76 C 0.88387 0.19437 0.99345 0.0
C77 C 0.87334 0.02844 0.15719 0.0
C78 C 0.21196 0.03966 0.15923 0.0
C79 C 0.89941 1.01489 0.81551 0.0
C80 C 0.24007 0.05582 0.81306 0.0
Eu81 Eu 0.05547 0.17398 0.97264 0.0
O82 O 0.11496 0.11143 0.044 0.0
O83 O 0.99715 0.09766 0.91494 0.0
Eu84 Eu 0.19011 0.05252 0.98577 0.0
Eu85 Eu 0.9246 0.02781 0.98587 0.0
O86 O 0.1224 0.10626 0.91778 0.0
O87 O 0.99119 0.0966 0.04066 0.0
Eu88 Eu 0.06701 0.03779 0.85141 0.0
Eu89 Eu 0.04606 0.04284 0.11969 0.0
O90 O 0.12684 0.98091 0.92694 0.0
O91 O 0.11327 0.98647 0.0525 0.0
O92 O 0.98944 0.97144 0.056 0.0
O93 O 1.00219 0.97268 0.93051 0.0
Eu94 Eu 0.05899 0.90704 0.99827 0.0
O95 O 0.06307 0.23098 0.86201 0.0
O96 O 0.04167 0.23498 0.0709 0.0
O97 O 0.0538 0.84527 0.90073 0.0
O98 O 0.05851 0.85061 0.1078 0.0
O99 O 0.249 0.95306 1.00281 0.0
O100 O 0.24771 0.16246 0.97748 0.0
O101 O 0.86763 0.91815 0.98925 0.0
O102 O 0.86398 0.12567 0.99206 0.0
O103 O 0.93805 0.03661 0.17905 0.0
O104 O 0.144 0.04158 0.18006 0.0
O105 O 0.96758 0.02295 0.79281 0.0
O106 O 0.1751 0.0462 0.79194 0.0
O107 O 0.95643 0.83858 0.00418 0.0
O108 O 0.16221 0.85676 0.00604 0.0
O109 O 0.95011 0.22297 0.98254 0.0
O110 O 0.1584 0.24226 0.96672 0.0
O111 O 1.03197 0.14715 0.16824 0.0
O112 O 0.04319 0.9399 0.18824 0.0
O113 O 0.07324 0.14057 0.78233 0.0
O114 O 0.05789 0.93145 0.80301 0.0
O115 O 0.25625 0.05844 0.88053 0.0
O116 O 0.2397 0.04697 0.09184 0.0
O117 O 0.87354 1.01834 0.88256 0.0
O118 O 0.85805 0.02206 0.09011 0.0
C119 C 1.03858 0.36575 0.25779 0.0
C120 C 0.96888 0.3639 0.28857 0.0
C121 C 0.05839 0.3178 0.2083 0.0
C122 C 1.00928 0.2661 0.18837 0.0
H123 H 0.0783 0.40454 0.27211 0.0
H124 H 0.11257 0.32033 0.18654 0.0
S125 S 0.81964 0.24176 0.24726 0.0
N126 N 0.8502 0.30774 0.29163 0.0
N127 N 0.88767 0.21817 0.198 0.0
C128 C 0.93922 0.26485 0.2164 0.0
C129 C 0.91886 0.31377 0.26656 0.0
C130 C 0.76566 0.05548 0.32941 0.0
C131 C 0.69986 0.02195 0.31901 0.0
C132 C 0.82169 0.05729 0.2768 0.0
C133 C 0.81325 0.02672 0.21171 0.0
H134 H 0.7749 0.07712 0.37975 0.0
H135 H 0.87207 0.08235 0.28755 0.0
S136 S 0.64893 0.93514 0.15883 0.0
N137 N 0.62807 0.95938 0.23934 0.0
N138 N 0.73228 0.96335 0.14008 0.0
C139 C 0.74659 0.99494 0.20034 0.0
C140 C 0.69016 0.99256 0.25407 0.0
C141 C 1.00397 0.77532 0.35233 0.0
C142 C 0.04208 0.71479 0.34945 0.0
C143 C 1.00925 0.82729 0.29574 0.0
C144 C 0.05218 0.82026 0.23362 0.0
H145 H 0.96787 0.78156 0.39796 0.0
H146 H 0.97735 0.87197 0.29973 0.0
S147 S 0.16855 0.67556 0.20214 0.0
N148 N 0.12851 0.65333 0.28189 0.0
N149 N 0.13843 0.75137 0.17464 0.0
C150 C 0.09327 0.76171 0.23117 0.0
C151 C 0.08848 0.70898 0.28949 0.0
C152 C 0.3775 0.02316 0.25751 0.0
C153 C 0.35484 0.97367 0.31506 0.0
C154 C 0.33089 0.04548 0.20783 0.0
C155 C 0.25948 1.02065 0.21514 0.0
H156 H 0.43209 0.04344 0.24998 0.0
H157 H 0.351 0.08215 0.16327 0.0
S158 S 0.17354 0.89303 0.35914 0.0
N159 N 0.25646 0.90221 0.37786 0.0
N160 N 0.1684 0.94453 0.28586 0.0
C161 C 0.23601 0.97233 0.27364 0.0
C162 C 0.28378 0.94868 0.3232 0.0
C163 C 1.01656 0.76989 0.66564 0.0
C164 C 0.9792 0.70604 0.69286 0.0
C165 C 0.04037 0.82036 0.71089 0.0
C166 C 1.02888 0.80835 0.78533 0.0
H167 H 1.02704 0.78099 0.60871 0.0
H168 H 0.06807 0.86908 0.68721 0.0
S169 S 0.93451 0.64803 0.88297 0.0
N170 N 0.93249 0.63273 0.79825 0.0
N171 N 0.97685 0.72678 0.88395 0.0
C172 C 0.99176 0.74412 0.81316 0.0
C173 C 0.96688 0.69327 0.76681 0.0
C174 C 0.42225 0.04006 0.72453 0.0
C175 C 0.41299 0.05302 0.65192 0.0
C176 C 0.36701 0.04479 0.77642 0.0
C177 C 0.29975 0.06092 0.75743 0.0
H178 H 0.47144 0.02203 0.74111 0.0
H179 H 0.37626 0.03155 0.83148 0.0
S180 S 0.25074 0.1051 0.5736 0.0
N181 N 0.33393 0.08719 0.56318 0.0
N182 N 0.22936 0.0962 0.66022 0.0
C183 C 0.29109 0.07783 0.68479 0.0
C184 C 0.34789 0.07377 0.63212 0.0
C185 C 0.07783 0.38711 0.69059 0.0
C186 C 0.06807 0.36817 0.62138 0.0
C187 C 0.08175 0.33511 0.74649 0.0
C188 C 0.07584 0.26231 0.73507 0.0
H189 H 0.07746 0.44207 0.70257 0.0
H190 H 0.08653 0.35229 0.79949 0.0
S191 S 0.05771 0.18727 0.55997 0.0
N192 N 0.05799 0.27368 0.54238 0.0
N193 N 0.06667 0.1754 0.64613 0.0
C194 C 0.0709 0.24344 0.66448 0.0
C195 C 0.06646 0.29654 0.60802 0.0
C196 C 0.73367 0.93571 0.74285 0.0
C197 C 0.74627 0.95016 0.66904 0.0
C198 C 0.78302 0.95826 0.78931 0.0
C199 C 0.84765 0.99509 0.76386 0.0
H200 H 0.68441 0.90846 0.76491 0.0
H201 H 0.77031 0.94612 0.84579 0.0
S202 S 0.90635 0.04376 0.57404 0.0
N203 N 0.82764 1.00244 0.57188 0.0
N204 N 0.92157 0.04373 0.659 0.0
C205 C 0.86131 1.00878 0.68976 0.0
C206 C 0.81033 0.9867 0.64249 0.0
C207 C 0.40365 0.33432 0.95472 0.0
C208 C 0.38632 0.40065 0.97611 0.0
C209 C 0.35112 0.27931 0.95025 0.0
C210 C 0.2794 0.28881 0.96686 0.0
H211 H 0.45829 0.32337 0.9461 0.0
H212 H 0.36718 0.22827 0.93604 0.0
S213 S 0.20762 0.45557 0.02102 0.0
N214 N 0.29348 0.4745 0.01054 0.0
N215 N 0.19457 0.37254 1.00136 0.0
C216 C 0.26161 0.35664 0.98444 0.0
C217 C 0.31514 0.41209 0.98942 0.0
C218 C 0.31561 0.7109 0.03303 0.0
C219 C 0.37338 0.72871 0.07194 0.0
C220 C 0.26961 0.76162 0.01259 0.0
C221 C 0.28033 0.83271 0.02891 0.0
H222 H 0.30562 0.657 0.0189 0.0
H223 H 0.22534 0.74487 0.98351 0.0
S224 S 0.42576 0.90661 0.12834 0.0
N225 N 0.43986 0.8221 0.12509 0.0
N226 N 0.35407 0.91792 0.08647 0.0
C227 C 0.3386 0.8513 0.06727 0.0
C228 C 0.38482 0.79921 0.08896 0.0
C229 C 0.78829 0.36135 0.01921 0.0
C230 C 0.72714 0.33598 0.06203 0.0
C231 C 0.83832 0.31537 0.99655 0.0
C232 C 0.82843 0.24188 0.0145 0.0
H233 H 0.79771 0.41742 1.00364 0.0
H234 H 0.88491 0.33764 0.96442 0.0
S235 S 0.6762 0.14908 0.12562 0.0
N236 N 0.65918 0.23316 0.12139 0.0
N237 N 0.75222 0.14639 0.07906 0.0
C238 C 0.76706 0.21596 0.05727 0.0
C239 C 0.71679 0.26304 0.08105 0.0
C240 C 0.72142 0.74306 0.96618 0.0
C241 C 0.73041 0.67748 1.00216 0.0
C242 C 0.77354 0.79953 0.96419 0.0
C243 C 0.8367 0.79203 0.99733 0.0
H244 H 0.67238 0.75202 0.94296 0.0
H245 H 0.76364 0.84975 0.93757 0.0
S246 S 0.88665 0.62825 0.09419 0.0
N247 N 0.8079 0.60657 0.06834 0.0
N248 N 0.90574 0.71173 0.06441 0.0
C249 C 0.84713 0.72539 0.03082 0.0
C250 C 0.79402 0.66842 0.03321 0.0
loop_
_geom_bond_atom_site_label_1
_geom_bond_atom_site_label_2
_geom_bond_distance
_geom_bond_site_symmetry_2
_ccdc_geom_bond_type
Cu0 N1 1.999 . S
Cu0 O6 1.974 . S
Cu0 N11 1.985 . S
Cu0 O20 1.959 . S
N1 Cu0 1.999 . S
N1 C3 1.263 . S
N1 C5 1.389 . S
N2 C3 1.358 . S
N2 C4 1.400 . S
C3 N1 1.263 . S
C3 N2 1.358 . S
C3 H9 0.930 1_455 S
C4 N2 1.400 . S
C4 C5 1.351 . S
C4 H21 0.930 . S
C5 N1 1.389 . S
C5 C4 1.351 . S
C5 H10 0.930 . S
O6 Cu0 1.974 . S
O6 C16 1.282 1_455 S
C7 O8 1.261 . S
C7 O20 1.251 1_655 S
O8 C7 1.261 . S
H9 C3 0.930 1_655 S
H10 C5 0.930 . S
N11 Cu0 1.985 . S
N11 C13 1.335 . S
N11 C14 1.390 1_455 S
N12 C13 1.345 . S
N12 C15 1.336 1_455 S
C13 N11 1.335 . S
C13 N12 1.345 . S
C13 H18 0.930 . S
C14 N11 1.390 1_655 S
C14 C15 1.346 . S
C14 H19 0.930 . S
C15 N12 1.336 1_655 S
C15 C14 1.346 . S
C15 H22 0.929 . S
C16 O6 1.282 1_655 S
C16 O17 1.216 . S
O17 C16 1.216 . S
H18 C13 0.930 . S
H19 C14 0.930 . S
O20 Cu0 1.959 . S
O20 C7 1.251 1_455 S
H21 C4 0.930 . S
H22 C15 0.929 . S
Cu23 N24 1.999 . S
Cu23 O29 1.974 . S
Cu23 N34 1.985 . S
Cu23 O43 1.959 . S
N24 Cu23 1.999 . S
N24 C26 1.263 . S
N24 C28 1.389 . S
N25 C26 1.358 . S
N25 C27 1.400 . S
C26 N24 1.263 . S
C26 N25 1.358 . S
C26 H32 0.930 1_565 S
C27 N25 1.400 . S
C27 C28 1.351 . S
C27 H44 0.930 . S
C28 N24 1.389 . S
C28 C27 1.351 . S
C28 H33 0.930 . S
O29 Cu23 1.974 . S
O29 C39 1.282 1_565 S
C30 O31 1.261 . S
C30 O43 1.251 1_545 S
O31 C30 1.261 . S
H32 C26 0.930 1_545 S
H33 C28 0.930 . S
N34 Cu23 1.985 . S
N34 C36 1.335 . S
N34 C37 1.390 1_565 S
N35 C36 1.345 . S
N35 C38 1.336 1_565 S
C36 N34 1.335 . S
C36 N35 1.345 . S
C36 H41 0.930 . S
C37 N34 1.390 1_545 S
C37 C38 1.346 . S
C37 H42 0.930 . S
C38 N35 1.336 1_545 S
C38 C37 1.346 . S
C38 H45 0.929 . S
C39 O29 1.282 1_545 S
C39 O40 1.216 . S
O40 C39 1.216 . S
H41 C36 0.930 . S
H42 C37 0.930 . S
O43 Cu23 1.959 . S
O43 C30 1.251 1_565 S
H44 C27 0.930 . S
H45 C38 0.929 . S
Cu46 N47 1.999 . S
Cu46 O52 1.974 . S
Cu46 N57 1.985 . S
Cu46 O66 1.959 . S
N47 Cu46 1.999 . S
N47 C49 1.263 . S
N47 C51 1.389 . S
N48 C49 1.358 . S
N48 C50 1.400 . S
C49 N47 1.263 . S
C49 N48 1.358 . S
C49 H55 0.930 1_556 S
C50 N48 1.400 . S
C50 C51 1.351 . S
C50 H67 0.930 . S
C51 N47 1.389 . S
C51 C50 1.351 . S
C51 H56 0.930 . S
O52 Cu46 1.974 . S
O52 C62 1.282 1_556 S
C53 O54 1.261 . S
C53 O66 1.251 1_554 S
O54 C53 1.261 . S
H55 C49 0.930 1_554 S
H56 C51 0.930 . S
N57 Cu46 1.985 . S
N57 C59 1.335 . S
N57 C60 1.390 1_556 S
N58 C59 1.345 . S
N58 C61 1.336 1_556 S
C59 N57 1.335 . S
C59 N58 1.345 . S
C59 H64 0.930 . S
C60 N57 1.390 1_554 S
C60 C61 1.346 . S
C60 H65 0.930 . S
C61 N58 1.336 1_554 S
C61 C60 1.346 . S
C61 H68 0.929 . S
C62 O52 1.282 1_554 S
C62 O63 1.216 . S
O63 C62 1.216 . S
H64 C59 0.930 . S
H65 C60 0.930 . S
O66 Cu46 1.959 . S
O66 C53 1.251 1_556 S
H67 C50 0.930 . S
H68 C61 0.929 . S
C69 O95 1.283 . S
C69 O113 1.283 . S
C70 O96 1.283 . S
C70 O111 1.283 1_455 S
C71 O97 1.284 1_455 S
C71 O114 1.282 . S
C72 O98 1.283 . S
C72 O112 1.283 . S
C73 O99 1.283 1_554 S
C73 O108 1.283 . S
C74 O100 1.283 . S
C74 O110 1.283 . S
C75 O101 1.283 . S
C75 O107 1.283 . S
C76 O102 1.283 . S
C76 O109 1.283 1_554 S
C77 O103 1.283 . S
C77 O118 1.283 . S
C78 O104 1.283 . S
C78 O116 1.283 . S
C79 O105 1.283 . S
C79 O117 1.283 . S
C80 O106 1.283 . S
C80 O115 1.283 . S
Eu81 O82 2.370 1_556 S
Eu81 O83 2.370 1_455 S
Eu81 O86 2.370 . S
Eu81 O87 2.370 1_456 S
Eu81 O95 2.363 . S
Eu81 O96 2.363 1_556 S
Eu81 O109 2.363 1_455 S
Eu81 O110 2.363 . S
O82 Eu81 2.370 1_554 S
O82 Eu84 2.370 1_554 S
O82 Eu89 2.366 1_445 S
O83 Eu81 2.370 1_655 S
O83 Eu85 2.370 1_556 S
O83 Eu88 2.370 1_655 S
Eu84 O82 2.370 1_556 S
Eu84 O86 2.370 . S
Eu84 O90 2.370 1_545 S
Eu84 O91 2.370 1_546 S
Eu84 O99 2.363 1_545 S
Eu84 O100 2.363 . S
Eu84 O115 2.363 . S
Eu84 O116 2.363 1_556 S
Eu85 O83 2.370 1_554 S
Eu85 O87 2.370 . S
Eu85 O92 2.370 1_545 S
Eu85 O93 2.370 1_544 S
Eu85 O101 2.363 1_545 S
Eu85 O102 2.363 . S
Eu85 O117 2.363 1_554 S
Eu85 O118 2.363 1_545 S
O86 Eu81 2.370 . S
O86 Eu84 2.370 . S
O86 Eu88 2.370 . S
O87 Eu81 2.370 1_654 S
O87 Eu85 2.370 . S
O87 Eu89 2.366 1_545 S
Eu88 O83 2.370 1_455 S
Eu88 O86 2.370 . S
Eu88 O90 2.370 1_545 S
Eu88 O93 2.370 1_445 S
Eu88 O105 2.363 1_455 S
Eu88 O106 2.363 . S
Eu88 O113 2.363 . S
Eu88 O114 2.363 1_545 S
Eu89 O82 2.366 1_665 S
Eu89 O87 2.366 1_565 S
Eu89 O91 2.375 1_655 S
Eu89 O92 2.375 . S
Eu89 O103 2.363 . S
Eu89 O104 2.363 1_665 S
Eu89 O111 2.355 1_565 S
Eu89 O112 2.370 . S
O90 Eu84 2.370 1_565 S
O90 Eu88 2.370 1_565 S
O90 Eu94 2.370 1_456 S
O91 Eu84 2.370 1_564 S
O91 Eu89 2.375 1_455 S
O91 Eu94 2.370 1_455 S
O92 Eu85 2.370 1_565 S
O92 Eu89 2.375 . S
O92 Eu94 2.370 . S
O93 Eu85 2.370 1_566 S
O93 Eu88 2.370 1_665 S
O93 Eu94 2.370 1_556 S
Eu94 O90 2.370 1_654 S
Eu94 O91 2.370 1_655 S
Eu94 O92 2.370 . S
Eu94 O93 2.370 1_554 S
Eu94 O97 2.363 1_554 S
Eu94 O98 2.363 . S
Eu94 O107 2.363 . S
Eu94 O108 2.363 1_655 S
O95 C69 1.283 . S
O95 Eu81 2.363 . S
O96 C70 1.283 . S
O96 Eu81 2.363 1_554 S
O97 C71 1.284 1_655 S
O97 Eu94 2.363 1_556 S
O98 C72 1.283 . S
O98 Eu94 2.363 . S
O99 C73 1.283 1_556 S
O99 Eu84 2.363 1_565 S
O100 C74 1.283 . S
O100 Eu84 2.363 . S
O101 C75 1.283 . S
O101 Eu85 2.363 1_565 S
O102 C76 1.283 . S
O102 Eu85 2.363 . S
O103 C77 1.283 . S
O103 Eu89 2.363 . S
O104 C78 1.283 . S
O104 Eu89 2.363 1_445 S
O105 C79 1.283 . S
O105 Eu88 2.363 1_655 S
O106 C80 1.283 . S
O106 Eu88 2.363 . S
O107 C75 1.283 . S
O107 Eu94 2.363 . S
O108 C73 1.283 . S
O108 Eu94 2.363 1_455 S
O109 C76 1.283 1_556 S
O109 Eu81 2.363 1_655 S
O110 C74 1.283 . S
O110 Eu81 2.363 . S
O111 C70 1.283 1_655 S
O111 Eu89 2.355 1_545 S
O112 C72 1.283 . S
O112 Eu89 2.370 . S
O113 C69 1.283 . S
O113 Eu88 2.363 . S
O114 C71 1.282 . S
O114 Eu88 2.363 1_565 S
O115 C80 1.283 . S
O115 Eu84 2.363 . S
O116 C78 1.283 . S
O116 Eu84 2.363 1_554 S
O117 C79 1.283 . S
O117 Eu85 2.363 1_556 S
O118 C77 1.283 . S
O118 Eu85 2.363 1_565 S
C119 C120 1.369 . S
C119 C121 1.419 . S
C119 H123 0.930 . S
C120 C119 1.369 . S
C120 C129 1.429 1_455 S
C121 C119 1.419 . S
C121 C122 1.363 . S
C121 H124 0.929 . S
C122 C121 1.363 . S
C122 C128 1.428 1_455 S
H123 C119 0.930 . S
H124 C121 0.929 . S
S125 N126 1.613 . S
S125 N127 1.610 . S
N126 S125 1.613 . S
N126 C129 1.350 . S
N127 S125 1.610 . S
N127 C128 1.351 . S
C128 C122 1.428 1_655 S
C128 N127 1.351 . S
C128 C129 1.434 . S
C129 C120 1.429 1_655 S
C129 N126 1.350 . S
C129 C128 1.434 . S
C130 C131 1.369 . S
C130 C132 1.419 . S
C130 H134 0.930 . S
C131 C130 1.369 . S
C131 C140 1.429 1_545 S
C132 C130 1.419 . S
C132 C133 1.363 1_545 S
C132 H135 0.929 . S
C133 C132 1.363 1_565 S
C133 C139 1.428 . S
H134 C130 0.930 . S
H135 C132 0.929 . S
S136 N137 1.613 . S
S136 N138 1.610 . S
N137 S136 1.613 . S
N137 C140 1.350 . S
N138 S136 1.610 . S
N138 C139 1.351 . S
C139 C133 1.428 . S
C139 N138 1.351 . S
C139 C140 1.434 . S
C140 C131 1.429 1_565 S
C140 N137 1.350 . S
C140 C139 1.434 . S
C141 C142 1.369 . S
C141 C143 1.419 . S
C141 H145 0.930 . S
C142 C141 1.369 . S
C142 C151 1.429 1_655 S
C143 C141 1.419 . S
C143 C144 1.363 . S
C143 H146 0.929 . S
C144 C143 1.363 . S
C144 C150 1.428 1_655 S
H145 C141 0.930 . S
H146 C143 0.929 . S
S147 N148 1.613 . S
S147 N149 1.610 . S
N148 S147 1.613 . S
N148 C151 1.350 . S
N149 S147 1.610 . S
N149 C150 1.351 . S
C150 C144 1.428 1_455 S
C150 N149 1.351 . S
C150 C151 1.434 . S
C151 C142 1.429 1_455 S
C151 N148 1.350 . S
C151 C150 1.434 . S
C152 C153 1.369 1_545 S
C152 C154 1.419 . S
C152 H156 0.930 . S
C153 C152 1.369 1_565 S
C153 C162 1.429 . S
C154 C152 1.419 . S
C154 C155 1.370 . S
C154 H157 0.929 . S
C155 C154 1.370 . S
C155 C161 1.421 1_545 S
H156 C152 0.930 . S
H157 C154 0.929 . S
S158 N159 1.613 . S
S158 N160 1.610 . S
N159 S158 1.613 . S
N159 C162 1.350 . S
N160 S158 1.610 . S
N160 C161 1.351 . S
C161 C155 1.421 1_565 S
C161 N160 1.351 . S
C161 C162 1.434 . S
C162 C153 1.429 . S
C162 N159 1.350 . S
C162 C161 1.434 . S
C163 C164 1.369 . S
C163 C165 1.419 1_455 S
C163 H167 0.932 . S
C164 C163 1.369 . S
C164 C173 1.429 . S
C165 C163 1.419 1_655 S
C165 C166 1.363 1_655 S
C165 H168 0.929 . S
C166 C165 1.363 1_455 S
C166 C172 1.428 . S
H167 C163 0.932 . S
H168 C165 0.929 . S
S169 N170 1.613 . S
S169 N171 1.610 . S
N170 S169 1.613 . S
N170 C173 1.350 . S
N171 S169 1.610 . S
N171 C172 1.351 . S
C172 C166 1.428 . S
C172 N171 1.351 . S
C172 C173 1.434 . S
C173 C164 1.429 . S
C173 N170 1.350 . S
C173 C172 1.434 . S
C174 C175 1.369 . S
C174 C176 1.419 . S
C174 H178 0.933 . S
C175 C174 1.369 . S
C175 C184 1.429 . S
C176 C174 1.419 . S
C176 C177 1.363 . S
C176 H179 0.930 . S
C177 C176 1.363 . S
C177 C183 1.428 . S
H178 C174 0.933 . S
H179 C176 0.930 . S
S180 N181 1.613 . S
S180 N182 1.610 . S
N181 S180 1.613 . S
N181 C184 1.350 . S
N182 S180 1.610 . S
N182 C183 1.351 . S
C183 C177 1.428 . S
C183 N182 1.351 . S
C183 C184 1.434 . S
C184 C175 1.429 . S
C184 N181 1.350 . S
C184 C183 1.434 . S
C185 C186 1.369 1_455 S
C185 C187 1.419 . S
C185 H189 0.930 . S
C186 C185 1.369 1_655 S
C186 C195 1.429 . S
C187 C185 1.419 . S
C187 C188 1.363 . S
C187 H190 0.929 . S
C188 C187 1.363 . S
C188 C194 1.428 1_455 S
H189 C185 0.930 . S
H190 C187 0.929 . S
S191 N192 1.613 . S
S191 N193 1.610 . S
N192 S191 1.613 . S
N192 C195 1.350 . S
N193 S191 1.610 . S
N193 C194 1.351 . S
C194 C188 1.428 1_655 S
C194 N193 1.351 . S
C194 C195 1.434 . S
C195 C186 1.429 . S
C195 N192 1.350 . S
C195 C194 1.434 . S
C196 C197 1.365 1_545 S
C196 C198 1.420 . S
C196 H200 0.933 . S
C197 C196 1.365 1_565 S
C197 C206 1.429 . S
C198 C196 1.420 . S
C198 C199 1.363 . S
C198 H201 0.929 . S
C199 C198 1.363 . S
C199 C205 1.428 1_545 S
H200 C196 0.933 . S
H201 C198 0.929 . S
S202 N203 1.613 . S
S202 N204 1.610 . S
N203 S202 1.613 . S
N203 C206 1.350 . S
N204 S202 1.610 . S
N204 C205 1.351 . S
C205 C199 1.428 1_565 S
C205 N204 1.351 . S
C205 C206 1.434 . S
C206 C197 1.429 . S
C206 N203 1.350 . S
C206 C205 1.434 . S
C207 C208 1.369 . S
C207 C209 1.419 1_554 S
C207 H211 0.930 1_554 S
C208 C207 1.369 . S
C208 C217 1.429 . S
C209 C207 1.419 1_556 S
C209 C210 1.363 . S
C209 H212 0.929 . S
C210 C209 1.363 . S
C210 C216 1.428 1_556 S
H211 C207 0.930 1_556 S
H212 C209 0.929 . S
S213 N214 1.613 . S
S213 N215 1.610 . S
N214 S213 1.613 . S
N214 C217 1.350 . S
N215 S213 1.610 . S
N215 C216 1.351 . S
C216 C210 1.428 1_554 S
C216 N215 1.351 . S
C216 C217 1.434 . S
C217 C208 1.429 . S
C217 N214 1.350 . S
C217 C216 1.434 . S
C218 C219 1.369 1_554 S
C218 C220 1.419 . S
C218 H222 0.930 . S
C219 C218 1.369 1_556 S
C219 C228 1.429 . S
C220 C218 1.419 . S
C220 C221 1.363 1_554 S
C220 H223 0.929 . S
C221 C220 1.363 1_556 S
C221 C227 1.428 . S
H222 C218 0.930 . S
H223 C220 0.929 . S
S224 N225 1.613 . S
S224 N226 1.610 . S
N225 S224 1.613 . S
N225 C228 1.350 . S
N226 S224 1.610 . S
N226 C227 1.351 . S
C227 C221 1.428 . S
C227 N226 1.351 . S
C227 C228 1.434 . S
C228 C219 1.429 . S
C228 N225 1.350 . S
C228 C227 1.434 . S
C229 C230 1.369 . S
C229 C231 1.419 1_556 S
C229 H233 0.930 . S
C230 C229 1.369 . S
C230 C239 1.429 . S
C231 C229 1.419 1_554 S
C231 C232 1.363 1_554 S
C231 H234 0.929 . S
C232 C231 1.363 1_556 S
C232 C238 1.428 . S
H233 C229 0.930 . S
H234 C231 0.929 . S
S235 N236 1.613 . S
S235 N237 1.610 . S
N236 S235 1.613 . S
N236 C239 1.350 . S
N237 S235 1.610 . S
N237 C238 1.351 . S
C238 C232 1.428 . S
C238 N237 1.351 . S
C238 C239 1.434 . S
C239 C230 1.429 . S
C239 N236 1.350 . S
C239 C238 1.434 . S
C240 C241 1.369 1_556 S
C240 C242 1.419 . S
C240 H244 0.930 . S
C241 C240 1.369 1_554 S
C241 C250 1.429 . S
C242 C240 1.419 . S
C242 C243 1.363 1_556 S
C242 H245 0.929 . S
C243 C242 1.363 1_554 S
C243 C249 1.428 . S
H244 C240 0.930 . S
H245 C242 0.929 . S
S246 N247 1.613 . S
S246 N248 1.610 . S
N247 S246 1.613 . S
N247 C250 1.350 . S
N248 S246 1.610 . S
N248 C249 1.351 . S
C249 C243 1.428 . S
C249 N248 1.351 . S
C249 C250 1.434 . S
C250 C241 1.429 . S
C250 N247 1.350 . S
C250 C249 1.434 . S
C122 C70 1.294 . S
C120 N2 1.249 . S
C133 C77 1.635 . S
C131 C39 1.631 . S
C144 C72 1.515 . S
C142 C7 1.503 . S
C155 C78 1.394 . S
C153 N35 1.333 . S
C164 N12 1.200 . S
C166 C71 1.276 . S
C177 C80 1.653 . S
C175 C30 1.648 . S
C186 C16 1.494 . S
C188 C69 1.499 . S
C197 N25 1.378 . S
C199 C79 1.417 . S
C208 C62 1.768 . S
C210 C74 1.776 . S
C219 N48 1.493 . S
C221 C73 1.555 1_556 S
C232 C76 1.535 1_556 S
C230 N58 1.447 . S
C243 C75 1.796 . S
C241 C53 1.785 . S
