# Generated by pormake.
# Topology gar, (4,6)-cn, num edge types: 1
# Building blocks:
#     Node 0, Type 0, BuildingBlock: QUQFOY_clean_sbu_3, # of connection points: 4
#     Node 1, Type 0, BuildingBlock: QUQFOY_clean_sbu_3, # of connection points: 4
#     Node 2, Type 0, BuildingBlock: QUQFOY_clean_sbu_3, # of connection points: 4
#     Node 3, Type 0, BuildingBlock: QUQFOY_clean_sbu_3, # of connection points: 4
#     Node 4, Type 0, BuildingBlock: QUQFOY_clean_sbu_3, # of connection points: 4
#     Node 5, Type 0, BuildingBlock: QUQFOY_clean_sbu_3, # of connection points: 4
#     Node 6, Type 0, BuildingBlock: QUQFOY_clean_sbu_3, # of connection points: 4
#     Node 7, Type 0, BuildingBlock: QUQFOY_clean_sbu_3, # of connection points: 4
#     Node 8, Type 0, BuildingBlock: QUQFOY_clean_sbu_3, # of connection points: 4
#     Node 9, Type 0, BuildingBlock: QUQFOY_clean_sbu_3, # of connection points: 4
#     Node 10, Type 0, BuildingBlock: QUQFOY_clean_sbu_3, # of connection points: 4
#     Node 11, Type 0, BuildingBlock: QUQFOY_clean_sbu_3, # of connection points: 4
#     Node 12, Type 0, BuildingBlock: QUQFOY_clean_sbu_3, # of connection points: 4
#     Node 13, Type 0, BuildingBlock: QUQFOY_clean_sbu_3, # of connection points: 4
#     Node 14, Type 0, BuildingBlock: QUQFOY_clean_sbu_3, # of connection points: 4
#     Node 15, Type 0, BuildingBlock: QUQFOY_clean_sbu_3, # of connection points: 4
#     Node 16, Type 0, BuildingBlock: QUQFOY_clean_sbu_3, # of connection points: 4
#     Node 17, Type 0, BuildingBlock: QUQFOY_clean_sbu_3, # of connection points: 4
#     Node 18, Type 0, BuildingBlock: QUQFOY_clean_sbu_3, # of connection points: 4
#     Node 19, Type 0, BuildingBlock: QUQFOY_clean_sbu_3, # of connection points: 4
#     Node 20, Type 0, BuildingBlock: QUQFOY_clean_sbu_3, # of connection points: 4
#     Node 21, Type 0, BuildingBlock: QUQFOY_clean_sbu_3, # of connection points: 4
#     Node 22, Type 0, BuildingBlock: QUQFOY_clean_sbu_3, # of connection points: 4
#     Node 23, Type 0, BuildingBlock: QUQFOY_clean_sbu_3, # of connection points: 4
#     Node 24, Type 1, BuildingBlock: MIFKUJ_clean_sbu_0, # of connection points: 6
#     Node 25, Type 1, BuildingBlock: MIFKUJ_clean_sbu_0, # of connection points: 6
#     Node 26, Type 1, BuildingBlock: MIFKUJ_clean_sbu_0, # of connection points: 6
#     Node 27, Type 1, BuildingBlock: MIFKUJ_clean_sbu_0, # of connection points: 6
#     Node 28, Type 1, BuildingBlock: MIFKUJ_clean_sbu_0, # of connection points: 6
#     Node 29, Type 1, BuildingBlock: MIFKUJ_clean_sbu_0, # of connection points: 6
#     Node 30, Type 1, BuildingBlock: MIFKUJ_clean_sbu_0, # of connection points: 6
#     Node 31, Type 1, BuildingBlock: MIFKUJ_clean_sbu_0, # of connection points: 6
#     Node 32, Type 1, BuildingBlock: MIFKUJ_clean_sbu_0, # of connection points: 6
#     Node 33, Type 1, BuildingBlock: MIFKUJ_clean_sbu_0, # of connection points: 6
#     Node 34, Type 1, BuildingBlock: MIFKUJ_clean_sbu_0, # of connection points: 6
#     Node 35, Type 1, BuildingBlock: MIFKUJ_clean_sbu_0, # of connection points: 6
#     Node 36, Type 1, BuildingBlock: MIFKUJ_clean_sbu_0, # of connection points: 6
#     Node 37, Type 1, BuildingBlock: MIFKUJ_clean_sbu_0, # of connection points: 6
#     Node 38, Type 1, BuildingBlock: MIFKUJ_clean_sbu_0, # of connection points: 6
#     Node 39, Type 1, BuildingBlock: MIFKUJ_clean_sbu_0, # of connection points: 6
#     Edge 40, Type (0, 1), BuildingBlock: MIFKUJ_clean_linker_0, # of connection points: 2
#     Edge 41, Type (0, 1), BuildingBlock: MIFKUJ_clean_linker_0, # of connection points: 2
#     Edge 42, Type (0, 1), BuildingBlock: MIFKUJ_clean_linker_0, # of connection points: 2
#     Edge 43, Type (0, 1), BuildingBlock: MIFKUJ_clean_linker_0, # of connection points: 2
#     Edge 44, Type (0, 1), BuildingBlock: MIFKUJ_clean_linker_0, # of connection points: 2
#     Edge 45, Type (0, 1), BuildingBlock: MIFKUJ_clean_linker_0, # of connection points: 2
#     Edge 46, Type (0, 1), BuildingBlock: MIFKUJ_clean_linker_0, # of connection points: 2
#     Edge 47, Type (0, 1), BuildingBlock: MIFKUJ_clean_linker_0, # of connection points: 2
#     Edge 48, Type (0, 1), BuildingBlock: MIFKUJ_clean_linker_0, # of connection points: 2
#     Edge 49, Type (0, 1), BuildingBlock: MIFKUJ_clean_linker_0, # of connection points: 2
#     Edge 50, Type (0, 1), BuildingBlock: MIFKUJ_clean_linker_0, # of connection points: 2
#     Edge 51, Type (0, 1), BuildingBlock: MIFKUJ_clean_linker_0, # of connection points: 2
#     Edge 52, Type (0, 1), BuildingBlock: MIFKUJ_clean_linker_0, # of connection points: 2
#     Edge 53, Type (0, 1), BuildingBlock: MIFKUJ_clean_linker_0, # of connection points: 2
#     Edge 54, Type (0, 1), BuildingBlock: MIFKUJ_clean_linker_0, # of connection points: 2
#     Edge 55, Type (0, 1), BuildingBlock: MIFKUJ_clean_linker_0, # of connection points: 2
#     Edge 56, Type (0, 1), BuildingBlock: MIFKUJ_clean_linker_0, # of connection points: 2
#     Edge 57, Type (0, 1), BuildingBlock: MIFKUJ_clean_linker_0, # of connection points: 2
#     Edge 58, Type (0, 1), BuildingBlock: MIFKUJ_clean_linker_0, # of connection points: 2
#     Edge 59, Type (0, 1), BuildingBlock: MIFKUJ_clean_linker_0, # of connection points: 2
#     Edge 60, Type (0, 1), BuildingBlock: MIFKUJ_clean_linker_0, # of connection points: 2
#     Edge 61, Type (0, 1), BuildingBlock: MIFKUJ_clean_linker_0, # of connection points: 2
#     Edge 62, Type (0, 1), BuildingBlock: MIFKUJ_clean_linker_0, # of connection points: 2
#     Edge 63, Type (0, 1), BuildingBlock: MIFKUJ_clean_linker_0, # of connection points: 2
#     Edge 64, Type (0, 1), BuildingBlock: MIFKUJ_clean_linker_0, # of connection points: 2
#     Edge 65, Type (0, 1), BuildingBlock: MIFKUJ_clean_linker_0, # of connection points: 2
#     Edge 66, Type (0, 1), BuildingBlock: MIFKUJ_clean_linker_0, # of connection points: 2
#     Edge 67, Type (0, 1), BuildingBlock: MIFKUJ_clean_linker_0, # of connection points: 2
#     Edge 68, Type (0, 1), BuildingBlock: MIFKUJ_clean_linker_0, # of connection points: 2
#     Edge 69, Type (0, 1), BuildingBlock: MIFKUJ_clean_linker_0, # of connection points: 2
#     Edge 70, Type (0, 1), BuildingBlock: MIFKUJ_clean_linker_0, # of connection points: 2
#     Edge 71, Type (0, 1), BuildingBlock: MIFKUJ_clean_linker_0, # of connection points: 2
#     Edge 72, Type (0, 1), BuildingBlock: MIFKUJ_clean_linker_0, # of connection points: 2
#     Edge 73, Type (0, 1), BuildingBlock: MIFKUJ_clean_linker_0, # of connection points: 2
#     Edge 74, Type (0, 1), BuildingBlock: MIFKUJ_clean_linker_0, # of connection points: 2
#     Edge 75, Type (0, 1), BuildingBlock: MIFKUJ_clean_linker_0, # of connection points: 2
#     Edge 76, Type (0, 1), BuildingBlock: MIFKUJ_clean_linker_0, # of connection points: 2
#     Edge 77, Type (0, 1), BuildingBlock: MIFKUJ_clean_linker_0, # of connection points: 2
#     Edge 78, Type (0, 1), BuildingBlock: MIFKUJ_clean_linker_0, # of connection points: 2
#     Edge 79, Type (0, 1), BuildingBlock: MIFKUJ_clean_linker_0, # of connection points: 2
#     Edge 80, Type (0, 1), BuildingBlock: MIFKUJ_clean_linker_0, # of connection points: 2
#     Edge 81, Type (0, 1), BuildingBlock: MIFKUJ_clean_linker_0, # of connection points: 2
#     Edge 82, Type (0, 1), BuildingBlock: MIFKUJ_clean_linker_0, # of connection points: 2
#     Edge 83, Type (0, 1), BuildingBlock: MIFKUJ_clean_linker_0, # of connection points: 2
#     Edge 84, Type (0, 1), BuildingBlock: MIFKUJ_clean_linker_0, # of connection points: 2
#     Edge 85, Type (0, 1), BuildingBlock: MIFKUJ_clean_linker_0, # of connection points: 2
#     Edge 86, Type (0, 1), BuildingBlock: MIFKUJ_clean_linker_0, # of connection points: 2
#     Edge 87, Type (0, 1), BuildingBlock: MIFKUJ_clean_linker_0, # of connection points: 2
#     Edge 88, Type (0, 1), BuildingBlock: MIFKUJ_clean_linker_0, # of connection points: 2
#     Edge 89, Type (0, 1), BuildingBlock: MIFKUJ_clean_linker_0, # of connection points: 2
#     Edge 90, Type (0, 1), BuildingBlock: MIFKUJ_clean_linker_0, # of connection points: 2
#     Edge 91, Type (0, 1), BuildingBlock: MIFKUJ_clean_linker_0, # of connection points: 2
#     Edge 92, Type (0, 1), BuildingBlock: MIFKUJ_clean_linker_0, # of connection points: 2
#     Edge 93, Type (0, 1), BuildingBlock: MIFKUJ_clean_linker_0, # of connection points: 2
#     Edge 94, Type (0, 1), BuildingBlock: MIFKUJ_clean_linker_0, # of connection points: 2
#     Edge 95, Type (0, 1), BuildingBlock: MIFKUJ_clean_linker_0, # of connection points: 2
#     Edge 96, Type (0, 1), BuildingBlock: MIFKUJ_clean_linker_0, # of connection points: 2
#     Edge 97, Type (0, 1), BuildingBlock: MIFKUJ_clean_linker_0, # of connection points: 2
#     Edge 98, Type (0, 1), BuildingBlock: MIFKUJ_clean_linker_0, # of connection points: 2
#     Edge 99, Type (0, 1), BuildingBlock: MIFKUJ_clean_linker_0, # of connection points: 2
#     Edge 100, Type (0, 1), BuildingBlock: MIFKUJ_clean_linker_0, # of connection points: 2
#     Edge 101, Type (0, 1), BuildingBlock: MIFKUJ_clean_linker_0, # of connection points: 2
#     Edge 102, Type (0, 1), BuildingBlock: MIFKUJ_clean_linker_0, # of connection points: 2
#     Edge 103, Type (0, 1), BuildingBlock: MIFKUJ_clean_linker_0, # of connection points: 2
#     Edge 104, Type (0, 1), BuildingBlock: MIFKUJ_clean_linker_0, # of connection points: 2
#     Edge 105, Type (0, 1), BuildingBlock: MIFKUJ_clean_linker_0, # of connection points: 2
#     Edge 106, Type (0, 1), BuildingBlock: MIFKUJ_clean_linker_0, # of connection points: 2
#     Edge 107, Type (0, 1), BuildingBlock: MIFKUJ_clean_linker_0, # of connection points: 2
#     Edge 108, Type (0, 1), BuildingBlock: MIFKUJ_clean_linker_0, # of connection points: 2
#     Edge 109, Type (0, 1), BuildingBlock: MIFKUJ_clean_linker_0, # of connection points: 2
#     Edge 110, Type (0, 1), BuildingBlock: MIFKUJ_clean_linker_0, # of connection points: 2
#     Edge 111, Type (0, 1), BuildingBlock: MIFKUJ_clean_linker_0, # of connection points: 2
#     Edge 112, Type (0, 1), BuildingBlock: MIFKUJ_clean_linker_0, # of connection points: 2
#     Edge 113, Type (0, 1), BuildingBlock: MIFKUJ_clean_linker_0, # of connection points: 2
#     Edge 114, Type (0, 1), BuildingBlock: MIFKUJ_clean_linker_0, # of connection points: 2
#     Edge 115, Type (0, 1), BuildingBlock: MIFKUJ_clean_linker_0, # of connection points: 2
#     Edge 116, Type (0, 1), BuildingBlock: MIFKUJ_clean_linker_0, # of connection points: 2
#     Edge 117, Type (0, 1), BuildingBlock: MIFKUJ_clean_linker_0, # of connection points: 2
#     Edge 118, Type (0, 1), BuildingBlock: MIFKUJ_clean_linker_0, # of connection points: 2
#     Edge 119, Type (0, 1), BuildingBlock: MIFKUJ_clean_linker_0, # of connection points: 2
#     Edge 120, Type (0, 1), BuildingBlock: MIFKUJ_clean_linker_0, # of connection points: 2
#     Edge 121, Type (0, 1), BuildingBlock: MIFKUJ_clean_linker_0, # of connection points: 2
#     Edge 122, Type (0, 1), BuildingBlock: MIFKUJ_clean_linker_0, # of connection points: 2
#     Edge 123, Type (0, 1), BuildingBlock: MIFKUJ_clean_linker_0, # of connection points: 2
#     Edge 124, Type (0, 1), BuildingBlock: MIFKUJ_clean_linker_0, # of connection points: 2
#     Edge 125, Type (0, 1), BuildingBlock: MIFKUJ_clean_linker_0, # of connection points: 2
#     Edge 126, Type (0, 1), BuildingBlock: MIFKUJ_clean_linker_0, # of connection points: 2
#     Edge 127, Type (0, 1), BuildingBlock: MIFKUJ_clean_linker_0, # of connection points: 2
#     Edge 128, Type (0, 1), BuildingBlock: MIFKUJ_clean_linker_0, # of connection points: 2
#     Edge 129, Type (0, 1), BuildingBlock: MIFKUJ_clean_linker_0, # of connection points: 2
#     Edge 130, Type (0, 1), BuildingBlock: MIFKUJ_clean_linker_0, # of connection points: 2
#     Edge 131, Type (0, 1), BuildingBlock: MIFKUJ_clean_linker_0, # of connection points: 2
#     Edge 132, Type (0, 1), BuildingBlock: MIFKUJ_clean_linker_0, # of connection points: 2
#     Edge 133, Type (0, 1), BuildingBlock: MIFKUJ_clean_linker_0, # of connection points: 2
#     Edge 134, Type (0, 1), BuildingBlock: MIFKUJ_clean_linker_0, # of connection points: 2
#     Edge 135, Type (0, 1), BuildingBlock: MIFKUJ_clean_linker_0, # of connection points: 2
# Relax obj value: 0.092
# Max RMSD: 0.268
# Mean RMSD: 0.123
data_MOF--net-gar--node1-QUQFOY_clean_sbu_3--node2-MIFKUJ_clean_sbu_0--edge1-MIFKUJ_clean_linker_0
_symmetry_space_group_name_H-M    P1
_symmetry_Int_Tables_number       1
_symmetry_cell_setting            triclinic
loop_
_symmetry_equiv_pos_as_xyz
'x, y, z'
_cell_length_a     72.240484
_cell_length_b     73.517862
_cell_length_c     70.618054
_cell_angle_alpha  95.21069
_cell_angle_beta   94.220937
_cell_angle_gamma 98.795964
loop_
_atom_site_label
_atom_site_type_symbol
_atom_site_fract_x
_atom_site_fract_y
_atom_site_fract_z
_atom_type_partial_charge
C0 C 0.98804 0.27558 0.36154 0.0
O1 O 4e-05 0.28361 0.3515 0.0
Cd2 Cd 0.0333 0.28771 0.35957 0.0
O3 O 0.99332 0.26804 0.37614 0.0
Cd4 Cd 0.02276 0.26218 0.39327 0.0
C5 C 0.03511 0.30824 0.4058 0.0
O6 O 0.04057 0.2581 0.36573 0.0
O7 O 0.05654 0.26179 0.39322 0.0
O8 O 0.00924 0.23006 0.39496 0.0
C9 C 0.05624 0.25856 0.37524 0.0
O10 O 0.03862 0.3095 0.3885 0.0
C11 C 0.0114 0.23065 0.41302 0.0
O12 O 0.02841 0.29273 0.41128 0.0
O13 O 0.01866 0.24612 0.4221 0.0
C14 C 0.97221 0.75064 0.66994 0.0
O15 O 0.9829 0.74228 0.67988 0.0
Cd16 Cd 0.01149 0.73367 0.67019 0.0
O17 O 0.97669 0.75575 0.65387 0.0
Cd18 Cd 0.00395 0.75593 0.63396 0.0
C19 C -0.00348 0.70917 0.62622 0.0
O20 O 0.0278 0.76164 0.66085 0.0
O21 O 0.03806 0.75566 0.63355 0.0
O22 O -0.00119 0.78692 0.628 0.0
C23 C 0.04172 0.76002 0.65135 0.0
O24 O 0.00272 0.7094 0.64362 0.0
C25 C 0.00021 0.78482 0.61015 0.0
O26 O 0.99472 0.72416 0.61906 0.0
O27 O 0.00306 0.76905 0.60317 0.0
C28 C 0.48971 0.77229 0.86439 0.0
O29 O 0.5021 0.77975 0.8544 0.0
Cd30 Cd 0.53519 0.78195 0.86277 0.0
O31 O 0.49445 0.7649 0.87927 0.0
Cd32 Cd 0.52324 0.75881 0.89724 0.0
C33 C 0.5385 0.80479 0.90778 0.0
O34 O 0.53951 0.75149 0.86955 0.0
O35 O 0.55653 0.75499 0.89634 0.0
O36 O 0.50678 0.72831 0.9015 0.0
C37 C 0.55517 0.7507 0.87843 0.0
O38 O 0.54262 0.80512 0.89057 0.0
C39 C 0.50992 0.72991 0.91955 0.0
O40 O 0.53043 0.78995 0.91358 0.0
O41 O 0.51915 0.74517 0.92738 0.0
C42 C 0.47044 0.24487 0.16377 0.0
O43 O 0.48116 0.23598 0.17303 0.0
Cd44 Cd 0.51041 0.22889 0.16335 0.0
O45 O 0.47514 0.25137 0.14837 0.0
Cd46 Cd 0.5028 0.2535 0.12909 0.0
C47 C 0.49678 0.20724 0.11791 0.0
O48 O 0.52653 0.25766 0.15601 0.0
O49 O 0.53692 0.2531 0.12852 0.0
O50 O 0.49845 0.28518 0.12535 0.0
C51 C 0.54049 0.25647 0.14645 0.0
O52 O 0.50346 0.20651 0.13499 0.0
C53 C 0.49943 0.28396 0.10741 0.0
O54 O 0.49375 0.22254 0.11217 0.0
O55 O 0.50163 0.26835 0.0994 0.0
C56 C 0.9885 0.76164 0.16848 0.0
O57 O 0.00212 0.75777 0.17895 0.0
Cd58 Cd 0.03337 0.75863 0.17009 0.0
O59 O 0.99097 0.76764 0.15231 0.0
Cd60 Cd 0.01743 0.7771 0.13257 0.0
C61 C 0.02481 0.7328 0.12559 0.0
O62 O 0.04031 0.78818 0.15919 0.0
O63 O 0.05188 0.78601 0.13211 0.0
O64 O 0.0045 0.80511 0.12824 0.0
C65 C 0.05472 0.79029 0.15 0.0
O66 O 0.03116 0.73485 0.14311 0.0
C67 C 0.00435 0.80377 0.11019 0.0
O68 O 0.01809 0.74575 0.11798 0.0
O69 O 0.00993 0.78961 0.10226 0.0
C70 C 0.466 0.754 0.35885 0.0
O71 O 0.47723 0.76322 0.34892 0.0
Cd72 Cd 0.50935 0.7748 0.35878 0.0
O73 O 0.47163 0.74943 0.37503 0.0
Cd74 Cd 0.50203 0.7516 0.39494 0.0
C75 C 0.5053 0.79806 0.40279 0.0
O76 O 0.52013 0.7477 0.36789 0.0
O77 O 0.53681 0.75463 0.39476 0.0
O78 O 0.4904 0.71987 0.40017 0.0
C79 C 0.53621 0.75032 0.37691 0.0
O80 O 0.50941 0.7984 0.38557 0.0
C81 C 0.49529 0.72175 0.41796 0.0
O82 O 0.50113 0.78274 0.40977 0.0
O83 O 0.50303 0.73778 0.42528 0.0
C84 C 0.49867 0.2669 0.67253 0.0
O85 O 0.51226 0.26374 0.68355 0.0
Cd86 Cd 0.54437 0.26789 0.67625 0.0
O87 O 0.50156 0.27386 0.65689 0.0
Cd88 Cd 0.52791 0.28592 0.63839 0.0
C89 C 0.53781 0.24218 0.63189 0.0
O90 O 0.54945 0.29783 0.66576 0.0
O91 O 0.56208 0.29708 0.6392 0.0
O92 O 0.51245 0.31234 0.63311 0.0
C93 C 0.56416 0.30108 0.65716 0.0
O94 O 0.54448 0.24439 0.64933 0.0
C95 C 0.51326 0.31113 0.61515 0.0
O96 O 0.53011 0.25469 0.62453 0.0
O97 O 0.52058 0.29781 0.60778 0.0
C98 C 0.97486 0.25141 0.85101 0.0
O99 O 0.98641 0.26161 0.84228 0.0
Cd100 Cd 0.0173 0.27449 0.85579 0.0
O101 O 0.97956 0.24649 0.8673 0.0
Cd102 Cd 0.00865 0.24941 0.88924 0.0
C103 C 0.00747 0.2945 0.89945 0.0
O104 O 0.0304 0.24857 0.86502 0.0
O105 O 0.04311 0.25961 0.89307 0.0
O106 O 0.00256 0.21646 0.89182 0.0
C107 C 0.04523 0.25409 0.87595 0.0
O108 O 0.01393 0.29641 0.8833 0.0
C109 C 0.00423 0.21769 0.90992 0.0
O110 O 0.00289 0.27852 0.9049 0.0
O111 O 0.00748 0.23389 0.91865 0.0
C112 C 0.41053 0.03051 0.30721 0.0
O113 O 0.42085 0.02279 0.29625 0.0
Cd114 Cd 0.41058 0.00587 0.2661 0.0
O115 O 0.39333 0.03112 0.3021 0.0
Cd116 Cd 0.37107 0.02327 0.27255 0.0
C117 C 0.37035 0.97771 0.27765 0.0
O118 O 0.39489 0.02699 0.25087 0.0
O119 O 0.36763 0.01483 0.23737 0.0
O120 O 0.36341 0.05427 0.27436 0.0
C121 C 0.38487 0.02041 0.23567 0.0
O122 O 0.38725 0.98001 0.27307 0.0
C123 C 0.34583 0.04957 0.27499 0.0
O124 O 0.36113 0.99117 0.27897 0.0
O125 O 0.33978 0.0324 0.27505 0.0
C126 C 0.27631 0.09708 0.50418 0.0
O127 O 0.26203 0.08698 0.50925 0.0
Cd128 Cd 0.23103 0.09454 0.50762 0.0
O129 O 0.27468 0.11206 0.49686 0.0
Cd130 Cd 0.24976 0.13022 0.48736 0.0
C131 C 0.24013 0.1377 0.53347 0.0
O132 O 0.22571 0.10405 0.47663 0.0
O133 O 0.21583 0.13018 0.48022 0.0
O134 O 0.26175 0.13552 0.45668 0.0
C135 C 0.21206 0.11291 0.47523 0.0
O136 O 0.23281 0.12067 0.53204 0.0
C137 C 0.26495 0.15305 0.45973 0.0
O138 O 0.24799 0.1447 0.51964 0.0
O139 O 0.26142 0.1601 0.47591 0.0
C140 C 0.10628 0.00747 0.80711 0.0
O141 O 0.09709 0.0158 0.7956 0.0
Cd142 Cd 0.10706 0.02535 0.76612 0.0
O143 O 0.12195 0.00277 0.80311 0.0
Cd144 Cd 0.14157 0.00363 0.77525 0.0
C145 C 0.15129 0.05038 0.7801 0.0
O146 O 0.11559 -0.00161 0.75033 0.0
O147 O 0.14296 0.00571 0.74059 0.0
O148 O 0.14585 0.97216 0.78044 0.0
C149 C 0.1254 0.00118 0.73645 0.0
O150 O 0.13434 0.04975 0.77334 0.0
C151 C 0.16356 0.97483 0.77973 0.0
O152 O 0.15755 0.0356 0.7835 0.0
O153 O 0.17121 0.9911 0.77731 0.0
C154 C 0.26624 0.90201 0.99354 0.0
O155 O 0.25493 0.91209 0.9871 0.0
Cd156 Cd 0.22173 0.90595 0.98917 0.0
O157 O 0.26034 0.88814 0.00234 0.0
Cd158 Cd 0.23089 0.87211 0.01352 0.0
C159 C 0.21275 0.86131 0.96727 0.0
O160 O 0.21997 0.90071 0.02198 0.0
O161 O 0.20047 0.87647 0.02609 0.0
O162 O 0.25034 0.86744 0.04173 0.0
C163 C 0.20439 0.89398 0.02756 0.0
O164 O 0.21187 0.87839 0.96645 0.0
C165 C 0.24442 0.8502 0.04118 0.0
O166 O 0.21919 0.85556 0.98249 0.0
O167 O 0.23216 0.84308 0.02765 0.0
C168 C 0.29131 0.4152 0.03286 0.0
O169 O 0.28164 0.42425 0.02257 0.0
Cd170 Cd 0.25047 0.41401 0.00838 0.0
O171 O 0.2844 0.39932 0.03745 0.0
Cd172 Cd 0.25315 0.37862 0.0334 0.0
C173 C 0.25639 0.37174 0.98562 0.0
O174 O 0.23548 0.40373 0.03492 0.0
O175 O 0.21833 0.37716 0.02756 0.0
O176 O 0.25787 0.37298 0.06674 0.0
C177 C 0.21922 0.39451 0.03099 0.0
O178 O 0.25276 0.3881 0.98475 0.0
C179 C 0.25412 0.35546 0.06371 0.0
O180 O 0.25823 0.36514 0.00159 0.0
O181 O 0.25023 0.34861 0.04644 0.0
C182 C 0.79411 0.09476 0.02564 0.0
O183 O 0.78542 0.08715 0.03858 0.0
Cd184 Cd 0.75983 0.09787 0.05317 0.0
O185 O 0.78938 0.1092 0.01917 0.0
Cd186 Cd 0.76418 0.12845 0.02407 0.0
C187 C 0.77848 0.14277 0.07021 0.0
O188 O 0.73957 0.10221 0.02636 0.0
O189 O 0.73171 0.12913 0.03195 0.0
O190 O 0.76443 0.13247 0.99006 0.0
C191 C 0.72683 0.11174 0.02983 0.0
O192 O 0.77144 0.12659 0.07372 0.0
C193 C 0.76288 0.1495 0.99217 0.0
O194 O 0.77902 0.14678 0.0531 0.0
O195 O 0.76241 0.15674 0.00909 0.0
C196 C 0.09624 0.49236 0.28113 0.0
O197 O 0.08603 0.49506 0.26655 0.0
Cd198 Cd 0.09445 0.49296 0.23447 0.0
O199 O 0.11236 0.48759 0.27947 0.0
Cd200 Cd 0.13322 0.48059 0.25409 0.0
C201 C 0.13568 0.52462 0.24126 0.0
O202 O 0.10811 0.46555 0.23124 0.0
O203 O 0.13492 0.47085 0.21988 0.0
O204 O 0.14164 0.45384 0.26863 0.0
C205 C 0.11756 0.46423 0.21695 0.0
O206 O 0.11859 0.52015 0.23441 0.0
C207 C 0.15921 0.45969 0.2709 0.0
O208 O 0.14414 0.51318 0.24969 0.0
O209 O 0.16478 0.47557 0.26569 0.0
C210 C 0.78262 0.91901 0.5334 0.0
O211 O 0.77224 0.9273 0.52298 0.0
Cd212 Cd 0.74054 0.91682 0.51084 0.0
O213 O 0.77633 0.90345 0.53915 0.0
Cd214 Cd 0.74553 0.88204 0.53745 0.0
C215 C 0.74516 0.87356 0.48917 0.0
O216 O 0.72822 0.90711 0.53881 0.0
O217 O 0.71048 0.88063 0.53469 0.0
O218 O 0.75232 0.87788 0.5709 0.0
C219 C 0.71178 0.8981 0.53664 0.0
O220 O 0.74177 0.88998 0.48813 0.0
C221 C 0.74903 0.86031 0.56869 0.0
O222 O 0.74785 0.86741 0.50528 0.0
O223 O 0.74444 0.85272 0.55176 0.0
C224 C 0.9122 -0.0019 0.28167 0.0
O225 O 0.92239 0.99131 0.26988 0.0
Cd226 Cd 0.91442 0.98731 0.23622 0.0
O227 O 0.89763 0.00456 0.27582 0.0
Cd228 Cd 0.8811 0.01017 0.24506 0.0
C229 C 0.86909 0.96373 0.23494 0.0
O230 O 0.90891 0.01696 0.22801 0.0
O231 O 0.88257 0.01293 0.21062 0.0
O232 O 0.87886 0.04135 0.25857 0.0
C233 C 0.90034 0.01719 0.21177 0.0
O234 O 0.88631 0.96361 0.23224 0.0
C235 C 0.86113 0.03983 0.25543 0.0
O236 O 0.86328 0.97878 0.24006 0.0
O237 O 0.85247 0.02429 0.24766 0.0
C238 C 0.29401 0.59827 0.52271 0.0
O239 O 0.28371 0.59049 0.53441 0.0
Cd240 Cd 0.25994 0.60395 0.54954 0.0
O241 O 0.29165 0.61396 0.51743 0.0
Cd242 Cd 0.26897 0.63603 0.52173 0.0
C243 C 0.28344 0.647 0.56853 0.0
O244 O 0.24202 0.61239 0.52312 0.0
O245 O 0.23681 0.64027 0.52912 0.0
O246 O 0.26927 0.63896 0.48772 0.0
C247 C 0.2304 0.62311 0.52692 0.0
O248 O 0.27508 0.63098 0.57113 0.0
C249 C 0.27151 0.65651 0.48933 0.0
O250 O 0.28418 0.65204 0.55179 0.0
O251 O 0.27304 0.66465 0.50615 0.0
C252 C 0.41317 0.50212 0.78254 0.0
O253 O 0.4231 0.49464 0.77091 0.0
Cd254 Cd 0.41779 0.49212 0.7369 0.0
O255 O 0.39938 0.50966 0.7765 0.0
Cd256 Cd 0.38379 0.51569 0.74545 0.0
C257 C 0.3722 0.46917 0.73273 0.0
O258 O 0.41304 0.52254 0.73106 0.0
O259 O 0.38837 0.52262 0.71212 0.0
O260 O 0.37826 0.54518 0.76124 0.0
C261 C 0.40615 0.52497 0.71469 0.0
O262 O 0.38944 0.46894 0.7302 0.0
C263 C 0.36099 0.54309 0.75518 0.0
O264 O 0.36664 0.48411 0.73869 0.0
O265 O 0.3543 0.52812 0.74488 0.0
C266 C 0.595 0.99244 0.78038 0.0
O267 O 0.58468 0.99598 0.76626 0.0
Cd268 Cd 0.59173 0.9943 0.73378 0.0
O269 O 0.61079 0.98714 0.77804 0.0
Cd270 Cd 0.63034 0.98048 0.75127 0.0
C271 C 0.63332 0.02496 0.73973 0.0
O272 O 0.60381 0.96594 0.72984 0.0
O273 O 0.62978 0.96985 0.71683 0.0
O274 O 0.64141 0.95575 0.76775 0.0
C275 C 0.61225 0.96395 0.71494 0.0
O276 O 0.61611 0.0213 0.73317 0.0
C277 C 0.65872 0.96121 0.76605 0.0
O278 O 0.64133 0.01291 0.74755 0.0
O279 O 0.66273 0.97573 0.75774 0.0
C280 C 0.78778 0.60136 0.01003 0.0
O281 O 0.77394 0.5921 0.01679 0.0
Cd282 Cd 0.7427 0.59892 0.01583 0.0
O283 O 0.78572 0.61565 0.00159 0.0
Cd284 Cd 0.75972 0.63319 0.99326 0.0
C285 C 0.75176 0.64275 0.03969 0.0
O286 O 0.73566 0.60636 0.98429 0.0
O287 O 0.72549 0.63236 0.98711 0.0
O288 O 0.76976 0.63845 0.96169 0.0
C289 C 0.72185 0.61498 0.98281 0.0
O290 O 0.74436 0.62581 0.03909 0.0
C291 C 0.77247 0.65599 0.96455 0.0
O292 O 0.75932 0.649 0.02535 0.0
O293 O 0.76973 0.66303 0.98101 0.0
C294 C 0.91578 0.52432 0.80289 0.0
O295 O 0.92532 0.51665 0.79103 0.0
Cd296 Cd 0.91414 0.50251 0.75987 0.0
O297 O 0.89871 0.52597 0.79844 0.0
Cd298 Cd 0.87603 0.51999 0.76916 0.0
C299 C 0.87373 0.47377 0.76963 0.0
O300 O 0.8995 0.52578 0.74716 0.0
O301 O 0.87214 0.51399 0.73384 0.0
O302 O 0.86914 0.55081 0.7768 0.0
C303 C 0.88918 0.52017 0.73191 0.0
O304 O 0.89024 0.47607 0.76403 0.0
C305 C 0.85138 0.54646 0.7744 0.0
O306 O 0.86544 0.48756 0.77365 0.0
O307 O 0.84481 0.52941 0.77009 0.0
C308 C 0.77774 0.39951 0.48915 0.0
O309 O 0.76553 0.40838 0.48224 0.0
Cd310 Cd 0.73305 0.40346 0.48826 0.0
O311 O 0.77318 0.38682 0.49988 0.0
Cd312 Cd 0.74446 0.3715 0.51272 0.0
C313 C 0.72131 0.35875 0.46862 0.0
O314 O 0.73287 0.39982 0.52176 0.0
O315 O 0.71365 0.37481 0.52391 0.0
O316 O 0.76219 0.36685 0.54216 0.0
C317 C 0.71726 0.39232 0.52667 0.0
O318 O 0.71957 0.37558 0.4674 0.0
C319 C 0.7574 0.34938 0.54043 0.0
O320 O 0.73034 0.35402 0.48303 0.0
O321 O 0.74679 0.34222 0.52567 0.0
C322 C 0.59999 0.50328 0.31111 0.0
O323 O 0.59064 0.51209 0.30026 0.0
Cd324 Cd 0.60146 0.52442 0.27227 0.0
O325 O 0.61571 0.49898 0.3067 0.0
Cd326 Cd 0.63505 0.50065 0.27849 0.0
C327 C 0.64626 0.54722 0.2879 0.0
O328 O 0.60936 0.49865 0.25347 0.0
O329 O 0.63729 0.50551 0.2447 0.0
O330 O 0.63787 0.46809 0.27966 0.0
C331 C 0.61973 0.50219 0.24012 0.0
O332 O 0.62916 0.54787 0.28255 0.0
C333 C 0.6557 0.47044 0.2804 0.0
O334 O 0.65223 0.53181 0.28829 0.0
O335 O 0.66407 0.48697 0.28055 0.0
Zn336 Zn 0.02915 0.00746 0.02752 0.0
Zn337 Zn 0.99519 0.01493 0.00324 0.0
C338 C 0.01055 0.97693 0.04333 0.0
O339 O 0.01683 0.98836 0.05864 0.0
C340 C 0.00896 0.0448 0.98473 0.0
O341 O 0.00267 0.0317 0.97082 0.0
O342 O 0.0529 0.00397 0.04214 0.0
O343 O 0.03561 0.01179 0.00082 0.0
O344 O 0.00825 0.99745 0.98727 0.0
C345 C 0.06935 0.01056 0.03844 0.0
O346 O 0.07148 0.022 0.02523 0.0
O347 O 0.01338 0.98227 0.02701 0.0
C348 C 0.96332 0.03046 -0.00247 0.0
O349 O 0.97398 0.04205 0.01062 0.0
O350 O 0.96923 0.01587 0.99108 0.0
O351 O 0.99011 0.01105 0.03014 0.0
O352 O 0.01724 0.02598 0.04333 0.0
O353 O 0.00896 0.04072 0.00183 0.0
C354 C 0.02575 0.00275 0.98636 0.0
C355 C -0.00031 0.02118 0.04404 0.0
Zn356 Zn 0.24143 0.74594 0.27989 0.0
Zn357 Zn 0.26261 0.75743 0.24554 0.0
C358 C 0.21598 0.71542 0.26023 0.0
O359 O 0.20387 0.72573 0.26635 0.0
C360 C 0.28916 0.7874 0.26453 0.0
O361 O 0.30066 0.77636 0.25848 0.0
O362 O 0.23417 0.74099 0.3062 0.0
O363 O 0.26942 0.75137 0.28473 0.0
O364 O 0.27491 0.73785 0.25726 0.0
C365 C 0.23973 0.72627 0.31089 0.0
O366 O 0.24761 0.71639 0.29829 0.0
O367 O 0.23346 0.72162 0.26336 0.0
C368 C 0.27201 0.77658 0.21383 0.0
O369 O 0.26706 0.78984 0.22516 0.0
O370 O 0.27166 0.7606 0.21948 0.0
O371 O 0.23463 0.75373 0.24055 0.0
O372 O 0.2279 0.76501 0.2687 0.0
O373 O 0.27153 0.78194 0.26151 0.0
C374 C 0.2793 0.74181 0.27505 0.0
C375 C 0.22446 0.7626 0.25065 0.0
Zn376 Zn 0.48818 0.02207 0.52556 0.0
Zn377 Zn 0.52536 0.01295 0.51492 0.0
C378 C 0.50011 0.05404 0.55095 0.0
O379 O 0.48948 0.04346 0.56126 0.0
C380 C 0.51308 0.98121 0.49028 0.0
O381 O 0.52374 0.99202 0.4802 0.0
O382 O 0.46112 0.02523 0.52765 0.0
O383 O 0.4896 0.01591 0.49742 0.0
O384 O 0.51849 0.03001 0.49575 0.0
C385 C 0.45731 0.03927 0.51975 0.0
O386 O 0.47047 0.049 0.5113 0.0
O387 O 0.50266 0.04767 0.53417 0.0
C388 C 0.55377 0.99385 0.52337 0.0
O389 O 0.53975 0.98695 0.53274 0.0
O390 O 0.55176 0.00729 0.51364 0.0
O391 O 0.52405 0.02113 0.54243 0.0
O392 O 0.4965 0.00454 0.54387 0.0
O393 O 0.50993 0.98758 0.50689 0.0
C394 C 0.50184 0.02464 0.48811 0.0
C395 C 0.51316 0.01037 0.55127 0.0
Zn396 Zn 0.28161 0.25287 0.75219 0.0
Zn397 Zn 0.24659 0.26628 0.76607 0.0
C398 C 0.2639 0.22795 0.72113 0.0
O399 O 0.2717 0.21678 0.73156 0.0
C400 C 0.26143 0.29081 0.79755 0.0
O401 O 0.25317 0.30106 0.78633 0.0
O402 O 0.30727 0.2474 0.74649 0.0
O403 O 0.28515 0.28065 0.75723 0.0
O404 O 0.25627 0.28341 0.74716 0.0
C405 C 0.31205 0.25042 0.72994 0.0
O406 O 0.30051 0.25703 0.7181 0.0
O407 O 0.26539 0.24493 0.72737 0.0
C408 C 0.2148 0.2611 0.78521 0.0
O409 O 0.22532 0.24977 0.79216 0.0
O410 O 0.22079 0.27069 0.77215 0.0
O411 O 0.2435 0.23886 0.75932 0.0
O412 O 0.27152 0.23619 0.77172 0.0
O413 O 0.26188 0.27409 0.79144 0.0
C414 C 0.27369 0.28995 0.74961 0.0
C415 C 0.25425 0.22945 0.7678 0.0
Zn416 Zn 0.00887 0.99072 0.51949 0.0
Zn417 Zn 0.9941 0.0268 0.51025 0.0
C418 C 0.03823 0.00338 0.54845 0.0
O419 O 0.04763 0.9969 0.53482 0.0
C420 C 0.9675 0.00817 0.48048 0.0
O421 O 0.95613 0.01518 0.49177 0.0
O422 O 0.01224 0.96404 0.5205 0.0
O423 O 0.98078 0.98923 0.51859 0.0
O424 O 0.97919 0.01738 0.53114 0.0
C425 C 0.00528 0.95777 0.53511 0.0
O426 O -0.0022 0.96895 0.5468 0.0
O427 O 0.02067 0.00321 0.54507 0.0
C428 C 0.99203 0.05692 0.48868 0.0
O429 O -0.00125 0.04538 0.47671 0.0
O430 O 0.9886 0.05219 0.50513 0.0
O431 O 0.02203 0.02965 0.51423 0.0
O432 O 0.02367 0.00249 0.49926 0.0
O433 O 0.98496 0.01049 0.48581 0.0
C434 C 0.97253 0.00024 0.52857 0.0
C435 C 0.03061 0.01945 0.50366 0.0
Zn436 Zn 0.25866 0.77695 0.76536 0.0
Zn437 Zn 0.26212 0.73745 0.77298 0.0
C438 C 0.22792 0.76745 0.73783 0.0
O439 O 0.24032 0.77699 0.72833 0.0
C440 C 0.29396 0.74636 0.79949 0.0
O441 O 0.282 0.73716 0.80971 0.0
O442 O 0.25687 0.80412 0.76479 0.0
O443 O 0.26267 0.7737 0.7931 0.0
O444 O 0.24444 0.74673 0.79115 0.0
C445 C 0.24248 0.80792 0.77279 0.0
O446 O 0.23195 0.79468 0.78021 0.0
O447 O 0.23261 0.76456 0.75486 0.0
C448 C 0.27045 0.70243 0.76038 0.0
O449 O 0.27667 0.71238 0.74696 0.0
O450 O 0.2625 0.71002 0.77381 0.0
O451 O 0.25789 0.74147 0.74531 0.0
O452 O 0.27683 0.76817 0.74747 0.0
O453 O 0.28851 0.74902 0.7826 0.0
C454 C 0.25027 0.76266 0.79999 0.0
C455 C 0.26985 0.75276 0.73808 0.0
Zn456 Zn 0.50392 0.00623 0.99583 0.0
Zn457 Zn 0.49157 0.99327 0.03168 0.0
C458 C 0.53499 0.03224 0.01201 0.0
O459 O 0.52563 0.04267 0.00203 0.0
C460 C 0.46183 0.96646 0.01411 0.0
O461 O 0.47149 0.95636 0.0242 0.0
O462 O 0.51095 0.0103 0.96935 0.0
O463 O 0.49804 0.97857 0.995 0.0
O464 O 0.51178 0.97859 0.02376 0.0
C465 C 0.52568 0.00363 0.96563 0.0
O466 O 0.53398 0.99525 0.97871 0.0
O467 O 0.52811 0.01531 0.0123 0.0
C468 C 0.4681 0.99249 0.06088 0.0
O469 O 0.459 -0.00011 0.04755 0.0
O470 O 0.48405 0.98803 0.05782 0.0
O471 O 0.49703 0.02092 0.03323 0.0
O472 O 0.48529 0.02268 0.00403 0.0
O473 O 0.46795 0.98363 0.01429 0.0
C474 C 0.50775 0.97099 0.00677 0.0
C475 C 0.48947 0.02995 0.02114 0.0
Zn476 Zn 0.25933 0.23828 0.25599 0.0
Zn477 Zn 0.26408 0.2781 0.27446 0.0
C478 C 0.28906 0.24186 0.2327 0.0
O479 O 0.27473 0.23484 0.22029 0.0
C480 C 0.2338 0.27376 0.29601 0.0
O481 O 0.24789 0.28175 0.3083 0.0
O482 O 0.25398 0.21095 0.24769 0.0
O483 O 0.25812 0.24033 0.28438 0.0
O484 O 0.27959 0.26504 0.29217 0.0
C485 C 0.24511 0.19931 0.25739 0.0
O486 O 0.23578 0.20532 0.27131 0.0
O487 O 0.28624 0.24491 0.25019 0.0
C488 C 0.25867 0.31431 0.27113 0.0
O489 O 0.24985 0.30518 0.25537 0.0
O490 O 0.26751 0.30562 0.28263 0.0
O491 O 0.2678 0.2755 0.24647 0.0
O492 O 0.24426 0.25262 0.23921 0.0
O493 O 0.237 0.26982 0.27878 0.0
C494 C 0.27126 0.24945 0.296 0.0
C495 C 0.25468 0.26679 0.23456 0.0
Zn496 Zn 0.51626 0.49174 0.01824 0.0
Zn497 Zn 0.50058 0.52736 0.01141 0.0
C498 C 0.54383 0.50644 0.04849 0.0
O499 O 0.55441 0.50017 0.03585 0.0
C500 C 0.47223 0.5139 0.98162 0.0
O501 O 0.46246 0.52143 0.99428 0.0
O502 O 0.52034 0.46548 0.02067 0.0
O503 O 0.48815 0.48909 0.01521 0.0
O504 O 0.48689 0.51539 0.03197 0.0
C505 C 0.51327 0.45976 0.03546 0.0
O506 O 0.50541 0.47118 0.04649 0.0
O507 O 0.52632 0.5054 0.0439 0.0
C508 C 0.49805 0.55959 0.99447 0.0
O509 O 0.50539 0.54956 0.98155 0.0
O510 O 0.49454 0.55312 0.01015 0.0
O511 O 0.52867 0.53066 0.01262 0.0
O512 O 0.53151 0.5034 -0.00154 0.0
O513 O 0.48959 0.51372 0.986 0.0
C514 C 0.48002 0.49854 0.02697 0.0
C515 C 0.53758 0.52062 0.00222 0.0
Zn516 Zn 0.75406 0.27335 0.26464 0.0
Zn517 Zn 0.76322 0.23626 0.27647 0.0
C518 C 0.72486 0.26099 0.23597 0.0
O519 O 0.73754 0.27025 0.22654 0.0
C520 C 0.79282 0.25372 0.30399 0.0
O521 O 0.78208 0.24421 0.31509 0.0
O522 O 0.7509 0.30017 0.26304 0.0
O523 O 0.75711 0.27139 0.29288 0.0
O524 O 0.74243 0.24281 0.29187 0.0
C525 C 0.73584 0.30354 0.27 0.0
O526 O 0.72524 0.29015 0.27716 0.0
O527 O 0.7289 0.25928 0.25347 0.0
C528 C 0.78443 0.20715 0.27664 0.0
O529 O 0.79613 0.22025 0.27031 0.0
O530 O 0.76825 0.21042 0.28052 0.0
O531 O 0.75944 0.23658 0.24835 0.0
O532 O 0.7733 0.26528 0.24747 0.0
O533 O 0.78737 0.25314 0.2864 0.0
C534 C 0.74653 0.25907 0.30031 0.0
C535 C 0.76914 0.24865 0.23978 0.0
Zn536 Zn 0.01148 0.51483 0.49798 0.0
Zn537 Zn -0.00391 0.49519 0.53072 0.0
C538 C 0.03845 0.54371 0.51649 0.0
O539 O 0.02731 0.55301 0.5071 0.0
C540 C 0.96996 0.46849 0.50667 0.0
O541 O 0.97946 0.45737 0.51548 0.0
O542 O 0.01821 0.52143 0.47209 0.0
O543 O 0.01014 0.48713 0.49478 0.0
O544 O 0.01855 0.48365 0.52454 0.0
C545 C 0.03392 0.51673 0.46846 0.0
O546 O 0.04352 0.5097 0.48172 0.0
O547 O 0.03411 0.52623 0.51567 0.0
C548 C 0.96955 0.48631 0.55703 0.0
O549 O 0.95871 0.49086 0.54307 0.0
O550 O 0.98692 0.48647 0.55503 0.0
O551 O -0.00115 0.52265 0.53568 0.0
O552 O 0.98992 0.52731 0.50635 0.0
O553 O 0.97509 0.48587 0.51017 0.0
C554 C 0.01834 0.47857 0.50687 0.0
C555 C 0.9911 0.53213 0.52421 0.0
Zn556 Zn 0.77674 0.75273 0.26177 0.0
Zn557 Zn 0.73873 0.75984 0.26881 0.0
C558 C 0.76546 0.73035 0.22724 0.0
O559 O 0.77332 0.71897 0.23735 0.0
C560 C 0.74582 0.78342 0.30213 0.0
O561 O 0.7372 0.79263 0.29007 0.0
O562 O 0.80355 0.75072 0.25762 0.0
O563 O 0.77642 0.7795 0.27001 0.0
O564 O 0.74983 0.77969 0.25293 0.0
C565 C 0.81082 0.76233 0.24688 0.0
O566 O 0.80101 0.77462 0.24082 0.0
O567 O 0.76437 0.74642 0.23492 0.0
C568 C 0.706 0.75 0.28448 0.0
O569 O 0.7181 0.74077 0.29254 0.0
O570 O 0.71117 0.75999 0.27141 0.0
O571 O 0.73987 0.73305 0.26092 0.0
O572 O 0.76621 0.73333 0.27848 0.0
O573 O 0.74968 0.7677 0.29613 0.0
C574 C 0.76605 0.78795 0.25978 0.0
C575 C 0.7503 0.72479 0.27126 0.0
Zn576 Zn 0.75004 0.2448 0.78382 0.0
Zn577 Zn 0.76278 0.25112 0.74492 0.0
C578 C 0.72351 0.21277 0.77092 0.0
O579 O 0.71244 0.22354 0.77841 0.0
C580 C 0.78922 0.28347 0.75518 0.0
O581 O 0.79925 0.27269 0.74597 0.0
O582 O 0.74681 0.24281 0.81178 0.0
O583 O 0.77808 0.25109 0.78297 0.0
O584 O 0.77869 0.23392 0.75602 0.0
C585 C 0.75627 0.23101 0.81802 0.0
O586 O 0.76585 0.22226 0.80607 0.0
O587 O 0.74095 0.21895 0.77108 0.0
C588 C 0.76264 0.26755 0.71127 0.0
O589 O 0.75458 0.27856 0.72257 0.0
O590 O 0.76749 0.25308 0.7174 0.0
O591 O 0.73493 0.24564 0.74491 0.0
O592 O 0.73376 0.26188 0.77233 0.0
O593 O 0.77232 0.27703 0.75769 0.0
C594 C 0.7867 0.24119 0.7721 0.0
C595 C 0.72708 0.25676 0.75517 0.0
Zn596 Zn 0.76379 0.74398 0.76057 0.0
Zn597 Zn 0.76001 0.78131 0.78144 0.0
C598 C 0.79305 0.75562 0.73867 0.0
O599 O 0.77979 0.74702 0.7258 0.0
C600 C 0.72 0.77528 0.77966 0.0
O601 O 0.72238 0.78972 0.7699 0.0
O602 O 0.76447 0.71688 0.75325 0.0
O603 O 0.75991 0.74411 0.7884 0.0
O604 O 0.77862 0.77021 0.79777 0.0
C605 C 0.77875 0.71236 0.76218 0.0
O606 O 0.79029 0.72523 0.77322 0.0
O607 O 0.78964 0.75692 0.75612 0.0
C608 C 0.76872 0.82137 0.78501 0.0
O609 O 0.78023 0.81855 0.77187 0.0
O610 O 0.75989 0.80757 0.79193 0.0
O611 O 0.76166 0.78199 0.75323 0.0
O612 O 0.74565 0.75437 0.74315 0.0
O613 O 0.73428 0.76855 0.7855 0.0
C614 C 0.77189 0.75384 0.80076 0.0
C615 C 0.75106 0.77115 0.74042 0.0
Zn616 Zn 0.53556 0.51258 0.53144 0.0
Zn617 Zn 0.49782 0.52002 0.51427 0.0
C618 C 0.51692 0.48244 0.54813 0.0
O619 O 0.52651 0.49238 0.56307 0.0
C620 C 0.50072 0.54831 0.4904 0.0
O621 O 0.49173 0.53415 0.4789 0.0
O622 O 0.56083 0.50536 0.53721 0.0
O623 O 0.53644 0.52035 0.50513 0.0
O624 O 0.50942 0.50269 0.49632 0.0
C625 C 0.56323 0.49156 0.52598 0.0
O626 O 0.54973 0.48431 0.51274 0.0
O627 O 0.51762 0.48864 0.53193 0.0
C628 C 0.46354 0.53032 0.51626 0.0
O629 O 0.47529 0.54262 0.52771 0.0
O630 O 0.46981 0.51685 0.50772 0.0
O631 O 0.50018 0.52129 0.54317 0.0
O632 O 0.53027 0.53113 0.55194 0.0
O633 O 0.50654 0.54563 0.50719 0.0
C634 C 0.52577 0.50958 0.49245 0.0
C635 C 0.51317 0.52972 0.5554 0.0
Zn636 Zn 0.99482 0.51742 0.02503 0.0
Zn637 Zn 0.02898 0.50452 0.01008 0.0
C638 C 0.01389 0.5495 0.04707 0.0
O639 O 0.00585 0.54042 0.06028 0.0
C640 C 0.0106 0.473 0.98741 0.0
O641 O 0.01918 0.48273 0.97496 0.0
O642 O 0.96957 0.52414 0.0305 0.0
O643 O 0.9919 0.50969 -0.00303 0.0
O644 O 0.02058 0.52175 0.9918 0.0
C645 C 0.96579 0.53739 0.02122 0.0
O646 O 0.97805 0.54448 0.00997 0.0
O647 O 0.0121 0.54191 0.03002 0.0
C648 C 0.05753 0.48463 0.01525 0.0
O649 O 0.04475 0.47822 0.02632 0.0
O650 O 0.05437 0.49764 0.00534 0.0
O651 O 0.03166 0.51319 0.0379 0.0
O652 O 0.00352 0.49983 0.04301 0.0
O653 O 0.01167 0.47997 0.00467 0.0
C654 C 0.00309 0.51823 0.98649 0.0
C655 C 0.02097 0.50403 0.04833 0.0
H656 H 0.00432 0.21536 0.9485 0.0
H657 H 0.00442 0.18749 0.9651 0.0
H658 H 0.00308 0.15468 0.91098 0.0
H659 H 0.00236 0.18219 0.89439 0.0
H660 H 0.98036 0.13713 0.93223 0.0
H661 H 0.04439 0.16954 0.94162 0.0
H662 H 0.06939 0.196 0.95247 0.0
H663 H 0.05427 0.19416 0.01003 0.0
H664 H 0.02902 0.16781 -0.00054 0.0
H665 H 0.01357 0.05703 0.9503 0.0
H666 H 0.0134 0.08833 0.94157 0.0
H667 H 0.00933 0.10765 0.00039 0.0
H668 H 0.01043 0.07629 0.00937 0.0
H669 H 0.03188 0.13317 0.98147 0.0
H670 H 0.96896 0.09754 0.97048 0.0
H671 H 0.9462 0.06977 0.95777 0.0
H672 H 0.96181 0.07668 0.90111 0.0
H673 H 0.98456 0.10454 0.91339 0.0
C674 C 0.0039 0.20216 0.94017 0.0
C675 C 0.00336 0.20096 0.92015 0.0
C676 C 0.00407 0.18627 0.94968 0.0
C677 C 0.004 0.16901 0.9393 0.0
C678 C 0.00311 0.16782 0.9193 0.0
C679 C 0.00273 0.18359 0.90982 0.0
C680 C 0.00505 0.15208 0.94902 0.0
C681 C 0.99166 0.13631 0.94297 0.0
C682 C 0.01953 0.15105 0.96336 0.0
C683 C 0.03468 0.16688 0.96971 0.0
C684 C 0.0463 0.17488 0.95656 0.0
C685 C 0.06053 0.18984 0.96266 0.0
C686 C 0.06337 0.1968 0.98191 0.0
C687 C 0.05202 0.18878 0.99511 0.0
C688 C 0.03776 0.17384 0.98908 0.0
C689 C 0.01323 0.06804 0.96144 0.0
C690 C 0.01207 0.06423 0.98045 0.0
C691 C 0.0129 0.08586 0.95643 0.0
C692 C 0.01081 0.10015 0.97026 0.0
C693 C 0.01078 0.09673 0.98949 0.0
C694 C 0.01145 0.07885 0.99459 0.0
C695 C 0.00756 0.11824 0.9642 0.0
C696 C 0.02041 0.13418 0.971 0.0
C697 C 0.99274 0.11942 0.95032 0.0
C698 C 0.97851 0.10308 0.94287 0.0
C699 C 0.96753 0.09314 0.95532 0.0
C700 C 0.95466 0.07738 0.9482 0.0
C701 C 0.9527 0.07139 0.92871 0.0
C702 C 0.96339 0.08131 0.91622 0.0
C703 C 0.97619 0.09714 0.92322 0.0
H704 H 0.94287 0.05908 0.92327 0.0
H705 H 0.0744 0.20838 0.98661 0.0
H706 H 0.06426 0.79751 0.18827 0.0
H707 H 0.09474 0.79687 0.20532 0.0
H708 H 0.11862 0.78778 0.15169 0.0
H709 H 0.08803 0.78821 0.13447 0.0
H710 H 0.12534 0.76241 0.17548 0.0
H711 H 0.1314 0.82844 0.1798 0.0
H712 H 0.12165 0.85885 0.18693 0.0
H713 H 0.11956 0.84952 0.24594 0.0
H714 H 0.12904 0.81892 0.23912 0.0
H715 H 0.21809 0.76589 0.21287 0.0
H716 H 0.19037 0.77431 0.19632 0.0
H717 H 0.16616 0.78231 0.24989 0.0
H718 H 0.19417 0.77406 0.26678 0.0
H719 H 0.16001 0.80897 0.22616 0.0
H720 H 0.15296 0.74269 0.22173 0.0
H721 H 0.16318 0.71244 0.21486 0.0
H722 H 0.16686 0.7222 0.15612 0.0
H723 H 0.15691 0.75263 0.1627 0.0
C724 C 0.07607 0.7957 0.18007 0.0
C725 C 0.07373 0.79277 0.16003 0.0
C726 C 0.0935 0.79542 0.18985 0.0
C727 C 0.10894 0.79232 0.17976 0.0
C728 C 0.10685 0.79018 0.15972 0.0
C729 C 0.0894 0.79049 0.14992 0.0
C730 C 0.12671 0.78966 0.19017 0.0
C731 C 0.13311 0.77273 0.18632 0.0
C732 C 0.13645 0.80289 0.20474 0.0
C733 C 0.13077 0.8213 0.2089 0.0
C734 C 0.12871 0.8328 0.19427 0.0
C735 C 0.12326 0.85008 0.19826 0.0
C736 C 0.11994 0.85609 0.21687 0.0
C737 C 0.12211 0.84484 0.23153 0.0
C738 C 0.12755 0.82753 0.22761 0.0
C739 C 0.20692 0.7695 0.2212 0.0
C740 C 0.20816 0.76905 0.24112 0.0
C741 C 0.19112 0.77434 0.2117 0.0
C742 C 0.17613 0.77861 0.22185 0.0
C743 C 0.1776 0.77897 0.24182 0.0
C744 C 0.19354 0.77422 0.25142 0.0
C745 C 0.15863 0.78181 0.21135 0.0
C746 C 0.15226 0.79873 0.21525 0.0
C747 C 0.14882 0.76854 0.19684 0.0
C748 C 0.15435 0.75002 0.19275 0.0
C749 C 0.15604 0.73843 0.20737 0.0
C750 C 0.16177 0.72124 0.20353 0.0
C751 C 0.1657 0.71542 0.18508 0.0
C752 C 0.16381 0.72673 0.17041 0.0
C753 C 0.1581 0.74394 0.17418 0.0
H754 H 0.1702 0.70215 0.18214 0.0
H755 H 0.11572 0.86948 0.21993 0.0
H756 H 0.49456 0.80323 0.43919 0.0
H757 H 0.49421 0.83273 0.45827 0.0
H758 H 0.5153 0.86222 0.4122 0.0
H759 H 0.51582 0.83301 0.39317 0.0
H760 H 0.53411 0.87606 0.44652 0.0
H761 H 0.46909 0.85723 0.42018 0.0
H762 H 0.43882 0.836 0.41512 0.0
H763 H 0.43459 0.83944 0.47563 0.0
H764 H 0.46497 0.86052 0.48105 0.0
H765 H 0.51482 0.96505 0.45454 0.0
H766 H 0.51157 0.93212 0.44425 0.0
H767 H 0.49639 0.91925 0.5 0.0
H768 H 0.49974 0.95249 0.51059 0.0
H769 H 0.4752 0.89511 0.46751 0.0
H770 H 0.53806 0.91696 0.49372 0.0
H771 H 0.56816 0.93828 0.49899 0.0
H772 H 0.57691 0.92879 0.43969 0.0
H773 H 0.54664 0.9076 0.43394 0.0
C774 C 0.49916 0.816 0.43314 0.0
C775 C 0.5052 0.81574 0.41463 0.0
C776 C 0.49888 0.83283 0.44404 0.0
C777 C 0.50464 0.84964 0.4366 0.0
C778 C 0.51083 0.84939 0.41823 0.0
C779 C 0.51106 0.83265 0.40734 0.0
C780 C 0.50437 0.86766 0.44774 0.0
C781 C 0.52122 0.88023 0.45106 0.0
C782 C 0.48767 0.87284 0.45431 0.0
C783 C 0.46939 0.86026 0.45103 0.0
C784 C 0.46178 0.85333 0.43241 0.0
C785 C 0.44459 0.84136 0.42947 0.0
C786 C 0.43482 0.83633 0.44505 0.0
C787 C 0.44219 0.84332 0.46359 0.0
C788 C 0.45938 0.85528 0.4666 0.0
C789 C 0.51051 0.95527 0.46458 0.0
C790 C 0.50774 0.96137 0.48345 0.0
C791 C 0.50868 0.93645 0.45867 0.0
C792 C 0.50405 0.92332 0.47146 0.0
C793 C 0.50004 0.92923 0.48996 0.0
C794 C 0.50193 0.94819 0.49596 0.0
C795 C 0.50481 0.90364 0.46558 0.0
C796 C 0.48813 0.89079 0.4633 0.0
C797 C 0.5217 0.8981 0.46003 0.0
C798 C 0.53998 0.91079 0.46338 0.0
C799 C 0.54631 0.91954 0.48176 0.0
C800 C 0.56343 0.93159 0.48484 0.0
C801 C 0.57444 0.93494 0.4697 0.0
C802 C 0.56836 0.9262 0.45142 0.0
C803 C 0.55122 0.91415 0.44823 0.0
H804 H 0.5877 0.94429 0.47214 0.0
H805 H 0.42151 0.82705 0.44275 0.0
H806 H 0.48738 0.26328 0.70821 0.0
H807 H 0.45523 0.25693 0.71722 0.0
H808 H 0.43404 0.25332 0.65798 0.0
H809 H 0.46616 0.26056 0.64902 0.0
H810 H 0.41461 0.27245 0.67733 0.0
H811 H 0.43383 0.2142 0.68427 0.0
H812 H 0.45397 0.19235 0.69529 0.0
H813 H 0.4459 0.20916 0.75354 0.0
H814 H 0.42591 0.23131 0.74288 0.0
H815 H 0.32104 0.24219 0.69393 0.0
H816 H 0.35224 0.24042 0.68346 0.0
H817 H 0.37612 0.25084 0.74202 0.0
H818 H 0.34466 0.25174 0.75263 0.0
H819 H 0.39351 0.22656 0.72179 0.0
H820 H 0.37415 0.28636 0.71172 0.0
H821 H 0.35209 0.3052 0.69788 0.0
H822 H 0.35918 0.28157 0.64152 0.0
H823 H 0.38106 0.26246 0.65502 0.0
C824 C 0.47586 0.26104 0.69711 0.0
C825 C 0.47926 0.26246 0.67792 0.0
C826 C 0.45748 0.25727 0.70226 0.0
C827 C 0.44217 0.25434 0.68826 0.0
C828 C 0.4456 0.25553 0.66905 0.0
C829 C 0.46396 0.25967 0.66394 0.0
C830 C 0.42257 0.25108 0.69374 0.0
C831 C 0.40997 0.26219 0.68682 0.0
C832 C 0.41648 0.23784 0.70628 0.0
C833 C 0.42851 0.22455 0.71277 0.0
C834 C 0.43647 0.21335 0.69943 0.0
C835 C 0.44784 0.20089 0.70561 0.0
C836 C 0.45125 0.1994 0.7251 0.0
C837 C 0.44326 0.21034 0.73845 0.0
C838 C 0.43189 0.22284 0.73234 0.0
C839 C 0.33292 0.24387 0.70458 0.0
C840 C 0.33055 0.24738 0.72405 0.0
C841 C 0.35073 0.2429 0.69859 0.0
C842 C 0.36657 0.24603 0.71192 0.0
C843 C 0.36409 0.24853 0.73148 0.0
C844 C 0.34616 0.24908 0.73753 0.0
C845 C 0.38575 0.24797 0.70542 0.0
C846 C 0.39824 0.23671 0.71223 0.0
C847 C 0.39166 0.26077 0.69241 0.0
C848 C 0.37912 0.27289 0.68438 0.0
C849 C 0.37098 0.28519 0.69638 0.0
C850 C 0.35849 0.29589 0.6886 0.0
C851 C 0.3542 0.29451 0.66885 0.0
C852 C 0.3625 0.28259 0.65682 0.0
C853 C 0.37495 0.27185 0.66452 0.0
H854 H 0.34442 0.30262 0.6628 0.0
H855 H 0.46005 0.18974 0.72986 0.0
H856 H 0.98915 0.81781 0.62038 0.0
H857 H 0.98883 0.84401 0.60156 0.0
H858 H 0.00882 0.81328 0.55444 0.0
H859 H 0.00912 0.78681 0.57325 0.0
H860 H 0.02882 0.84937 0.56335 0.0
H861 H 0.9652 0.82 0.54968 0.0
H862 H 0.93404 0.80479 0.55688 0.0
H863 H 0.92646 0.85406 0.591 0.0
H864 H 0.9577 0.86948 0.58424 0.0
H865 H 0.0176 0.92956 0.51351 0.0
H866 H 0.01589 0.8972 0.52045 0.0
H867 H 0.99064 0.91002 0.57251 0.0
H868 H 0.99203 0.94192 0.56566 0.0
H869 H 0.97205 0.87892 0.55337 0.0
H870 H 0.03735 0.90571 0.57228 0.0
H871 H 0.06894 0.92119 0.56662 0.0
H872 H 0.07345 0.87712 0.52379 0.0
H873 H 0.04177 0.86149 0.52904 0.0
C874 C 0.99335 0.81654 0.60597 0.0
C875 C -0.00086 0.80024 0.59828 0.0
C876 C 0.9931 0.8315 0.5952 0.0
C877 C -0.00135 0.83051 0.57656 0.0
C878 C 0.00442 0.81426 0.56878 0.0
C879 C 0.00451 0.79917 0.57951 0.0
C880 C -0.00101 0.84684 0.56568 0.0
C881 C 0.01634 0.85563 0.56072 0.0
C882 C 0.98273 0.85505 0.56248 0.0
C883 C 0.96386 0.84587 0.56652 0.0
C884 C 0.95695 0.82755 0.55883 0.0
C885 C 0.93926 0.8189 0.56281 0.0
C886 C 0.92829 0.82844 0.57441 0.0
C887 C 0.93497 0.84668 0.58201 0.0
C888 C 0.95266 0.8554 0.57809 0.0
C889 C 0.01172 0.92543 0.52643 0.0
C890 C 0.00495 0.93831 0.53902 0.0
C891 C 0.01077 0.90697 0.53038 0.0
C892 C 0.00313 0.90121 0.54701 0.0
C893 C -0.00354 0.9141 0.55954 0.0
C894 C -0.00264 0.93241 0.55561 0.0
C895 C 0.00201 0.88186 0.55179 0.0
C896 C 0.98446 0.87245 0.55556 0.0
C897 C 0.0181 0.87318 0.55402 0.0
C898 C 0.03711 0.88257 0.55086 0.0
C899 C 0.04502 0.89941 0.56154 0.0
C900 C 0.06295 0.90819 0.55843 0.0
C901 C 0.07317 0.90018 0.5448 0.0
C902 C 0.0655 0.88333 0.5343 0.0
C903 C 0.04756 0.87451 0.53734 0.0
H904 H 0.08705 0.90699 0.54242 0.0
H905 H 0.9146 0.82172 0.57748 0.0
H906 H 0.45993 0.76431 0.88558 0.0
H907 H 0.42658 0.76248 0.87549 0.0
H908 H 0.44049 0.77684 0.81976 0.0
H909 H 0.47394 0.7793 0.82995 0.0
H910 H 0.41311 0.79409 0.83096 0.0
H911 H 0.42528 0.73136 0.82842 0.0
H912 H 0.43662 0.70453 0.84121 0.0
H913 H 0.3978 0.70518 0.88439 0.0
H914 H 0.38639 0.73217 0.87199 0.0
H915 H 0.3237 0.75981 0.78016 0.0
H916 H 0.35687 0.76669 0.79222 0.0
H917 H 0.34216 0.75317 0.84798 0.0
H918 H 0.30904 0.74587 0.83593 0.0
H919 H 0.36985 0.7361 0.83724 0.0
H920 H 0.35678 0.79833 0.83865 0.0
H921 H 0.34543 0.82489 0.82532 0.0
H922 H 0.38576 0.82485 0.78359 0.0
H923 H 0.39718 0.79812 0.79651 0.0
C924 C 0.4559 0.76714 0.87119 0.0
C925 C 0.46956 0.7718 0.85851 0.0
C926 C 0.43683 0.76604 0.86543 0.0
C927 C 0.43103 0.76919 0.84676 0.0
C928 C 0.44465 0.7743 0.83422 0.0
C929 C 0.46375 0.77565 0.84005 0.0
C930 C 0.41076 0.76674 0.84016 0.0
C931 C 0.40367 0.78134 0.83213 0.0
C932 C 0.39839 0.75023 0.84204 0.0
C933 C 0.40511 0.73389 0.84939 0.0
C934 C 0.41925 0.72585 0.84072 0.0
C935 C 0.42567 0.71061 0.84788 0.0
C936 C 0.41797 0.70319 0.86363 0.0
C937 C 0.40377 0.71096 0.87221 0.0
C938 C 0.3973 0.72621 0.8651 0.0
C939 C 0.32751 0.75851 0.79505 0.0
C940 C 0.31378 0.75223 0.80709 0.0
C941 C 0.34647 0.76252 0.80194 0.0
C942 C 0.35198 0.76056 0.82104 0.0
C943 C 0.33822 0.75475 0.83318 0.0
C944 C 0.3193 0.75061 0.82628 0.0
C945 C 0.37215 0.76347 0.8281 0.0
C946 C 0.37924 0.7489 0.83615 0.0
C947 C 0.3845 0.77997 0.82616 0.0
C948 C 0.37772 0.79612 0.81845 0.0
C949 C 0.36314 0.8039 0.82655 0.0
C950 C 0.3567 0.819 0.81908 0.0
C951 C 0.36484 0.82653 0.80359 0.0
C952 C 0.37946 0.819 0.79557 0.0
C953 C 0.38593 0.80389 0.80298 0.0
H954 H 0.35983 0.83822 0.79782 0.0
H955 H 0.42297 0.6914 0.86917 0.0
H956 H 0.47666 0.20112 0.08269 0.0
H957 H 0.47251 0.17298 0.06016 0.0
H958 H 0.5054 0.14709 0.10008 0.0
H959 H 0.50939 0.17479 0.12266 0.0
H960 H 0.51675 0.1462 0.06142 0.0
H961 H 0.461 0.13468 0.09676 0.0
H962 H 0.43108 0.1421 0.10757 0.0
H963 H 0.40846 0.1401 0.04932 0.0
H964 H 0.43838 0.13291 0.03818 0.0
H965 H 0.50637 0.05138 0.05281 0.0
H966 H 0.50527 0.08378 0.06206 0.0
H967 H 0.46866 0.08582 0.01149 0.0
H968 H 0.46983 0.05298 0.00185 0.0
H969 H 0.45695 0.10236 0.04638 0.0
H970 H 0.50978 0.10753 0.0109 0.0
H971 H 0.53969 0.10147 -0.00104 0.0
H972 H 0.56782 0.1167 0.05509 0.0
H973 H 0.53803 0.12251 0.06751 0.0
C974 C 0.48291 0.18937 0.08669 0.0
C975 C 0.49338 0.19019 0.10446 0.0
C976 C 0.4805 0.17335 0.07382 0.0
C977 C 0.48872 0.15806 0.07849 0.0
C978 C 0.49902 0.15881 0.09623 0.0
C979 C 0.50121 0.17464 0.10915 0.0
C980 C 0.48715 0.14125 0.06495 0.0
C981 C 0.5037 0.1366 0.05807 0.0
C982 C 0.46993 0.12921 0.05992 0.0
C983 C 0.452 0.13353 0.06665 0.0
C984 C 0.44972 0.13602 0.08627 0.0
C985 C 0.43274 0.14014 0.09245 0.0
C986 C 0.4179 0.14165 0.07914 0.0
C987 C 0.41998 0.13898 0.05961 0.0
C988 C 0.43694 0.13488 0.05336 0.0
C989 C 0.49801 0.05861 0.04359 0.0
C990 C 0.48814 0.04958 0.02659 0.0
C991 C 0.49751 0.0772 0.04887 0.0
C992 C 0.48705 0.08722 0.03736 0.0
C993 C 0.47688 0.07829 0.02049 0.0
C994 C 0.47758 0.05959 0.01502 0.0
C995 C 0.48677 0.10691 0.04362 0.0
C996 C 0.46993 0.11216 0.04918 0.0
C997 C 0.50372 0.11963 0.04729 0.0
C998 C 0.52161 0.11544 0.04014 0.0
C999 C 0.52229 0.10939 0.02076 0.0
C1000 C 0.53924 0.10605 0.0139 0.0
C1001 C 0.55566 0.10878 0.02625 0.0
C1002 C 0.55511 0.11464 0.04555 0.0
C1003 C 0.53819 0.11798 0.0525 0.0
H1004 H 0.5688 0.10639 0.02086 0.0
H1005 H 0.40476 0.14482 0.08395 0.0
H1006 H 0.05962 0.2503 0.33727 0.0
H1007 H 0.0887 0.25162 0.3213 0.0
H1008 H 0.12126 0.26766 0.37555 0.0
H1009 H 0.09232 0.26628 0.39163 0.0
H1010 H 0.13188 0.29038 0.34709 0.0
H1011 H 0.11875 0.22517 0.35546 0.0
H1012 H 0.09926 0.19425 0.35191 0.0
H1013 H 0.09629 0.19366 0.2909 0.0
H1014 H 0.11556 0.22472 0.2941 0.0
H1015 H 0.22364 0.27928 0.33209 0.0
H1016 H 0.19205 0.27569 0.34249 0.0
H1017 H 0.16879 0.25723 0.2847 0.0
H1018 H 0.20063 0.26063 0.27407 0.0
H1019 H 0.15154 0.2365 0.31096 0.0
H1020 H 0.16678 0.30013 0.30194 0.0
H1021 H 0.18634 0.33099 0.30486 0.0
H1022 H 0.18463 0.33522 0.36572 0.0
H1023 H 0.16535 0.30422 0.36322 0.0
C1024 C 0.07298 0.25397 0.34581 0.0
C1025 C 0.07371 0.25822 0.3657 0.0
C1026 C 0.08955 0.25469 0.33667 0.0
C1027 C 0.10707 0.25973 0.34727 0.0
C1028 C 0.10784 0.26379 0.36714 0.0
C1029 C 0.0913 0.26291 0.3763 0.0
C1030 C 0.12468 0.26129 0.33769 0.0
C1031 C 0.13628 0.27859 0.33932 0.0
C1032 C 0.12997 0.24603 0.32695 0.0
C1033 C 0.1184 0.22736 0.32503 0.0
C1034 C 0.11379 0.21853 0.34129 0.0
C1035 C 0.10282 0.20096 0.33935 0.0
C1036 C 0.09649 0.19202 0.3212 0.0
C1037 C 0.10117 0.20062 0.30495 0.0
C1038 C 0.11213 0.2182 0.30683 0.0
C1039 C 0.21186 0.2744 0.32154 0.0
C1040 C 0.21462 0.2704 0.30221 0.0
C1041 C 0.19379 0.27241 0.32752 0.0
C1042 C 0.1781 0.26654 0.3143 0.0
C1043 C 0.18076 0.26191 0.29508 0.0
C1044 C 0.19892 0.26387 0.28905 0.0
C1045 C 0.159 0.26549 0.3208 0.0
C1046 C 0.14706 0.24835 0.31854 0.0
C1047 C 0.15329 0.28096 0.33082 0.0
C1048 C 0.16473 0.29974 0.3324 0.0
C1049 C 0.17069 0.30757 0.31597 0.0
C1050 C 0.18171 0.3251 0.31754 0.0
C1051 C 0.18677 0.33503 0.33547 0.0
C1052 C 0.18073 0.32749 0.35184 0.0
C1053 C 0.16974 0.30994 0.35035 0.0
H1054 H 0.19535 0.34858 0.33667 0.0
H1055 H 0.088 0.17841 0.31972 0.0
H1056 H 0.93836 0.02344 0.21009 0.0
H1057 H 0.95552 0.02714 0.1818 0.0
H1058 H 0.90307 0.02199 0.14682 0.0
H1059 H 0.88578 0.01794 0.17506 0.0
H1060 H 0.92559 0.00062 0.13128 0.0
H1061 H 0.93209 0.06392 0.15747 0.0
H1062 H 0.94004 0.09035 0.18234 0.0
H1063 H -0.00246 0.08158 0.18726 0.0
H1064 H 0.98988 0.05493 0.16259 0.0
H1065 H 0.96291 0.02347 0.04668 0.0
H1066 H 0.94665 0.0263 0.07561 0.0
H1067 H -0.00071 0.03012 0.11 0.0
H1068 H 0.01581 0.02794 0.08091 0.0
H1069 H 0.97687 0.05267 0.1259 0.0
H1070 H 0.96957 0.98838 0.10022 0.0
H1071 H 0.96138 0.96293 0.07423 0.0
H1072 H 0.90488 0.97442 0.06791 0.0
H1073 H 0.91273 -3e-05 0.09379 0.0
C1074 C 0.93046 0.02322 0.19638 0.0
C1075 C 0.91069 0.02036 0.19478 0.0
C1076 C 0.94032 0.02544 0.18025 0.0
C1077 C 0.9306 0.02503 0.16222 0.0
C1078 C 0.91085 0.02237 0.1606 0.0
C1079 C 0.90097 0.02009 0.17674 0.0
C1080 C 0.941 0.02648 0.14493 0.0
C1081 C 0.93662 0.01215 0.13002 0.0
C1082 C 0.95571 0.04128 0.14347 0.0
C1083 C 0.96036 0.05731 0.1583 0.0
C1084 C 0.9464 0.06753 0.16396 0.0
C1085 C 0.95086 0.08257 0.17801 0.0
C1086 C 0.96927 0.08761 0.18641 0.0
C1087 C 0.98327 0.07764 0.18076 0.0
C1088 C 0.97888 0.06258 0.16673 0.0
C1089 C 0.97106 0.02516 0.06041 0.0
C1090 C 0.99057 0.02526 0.06159 0.0
C1091 C 0.96175 0.02672 0.07692 0.0
C1092 C 0.97169 0.02793 0.09494 0.0
C1093 C 0.99134 0.02907 0.09621 0.0
C1094 C 0.00076 0.02782 0.07962 0.0
C1095 C 0.96136 0.02687 0.11229 0.0
C1096 C 0.96582 0.04119 0.12722 0.0
C1097 C 0.94669 0.01206 0.11381 0.0
C1098 C 0.94177 0.99618 0.09883 0.0
C1099 C 0.95541 0.98548 0.09327 0.0
C1100 C 0.95084 0.97106 0.07856 0.0
C1101 C 0.93268 0.96718 0.06934 0.0
C1102 C 0.91896 0.9775 0.07502 0.0
C1103 C 0.92344 0.99191 0.08974 0.0
H1104 H 0.92922 0.95618 0.0578 0.0
H1105 H 0.9727 0.09925 0.19728 0.0
H1106 H 0.27039 0.64262 0.4521 0.0
H1107 H 0.26713 0.65904 0.42387 0.0
H1108 H 0.26858 0.7101 0.45967 0.0
H1109 H 0.27171 0.69367 0.48814 0.0
H1110 H 0.23952 0.70449 0.43227 0.0
H1111 H 0.30549 0.7046 0.43393 0.0
H1112 H 0.33528 0.69211 0.43619 0.0
H1113 H 0.31645 0.65479 0.38575 0.0
H1114 H 0.28641 0.66682 0.38338 0.0
H1115 H 0.23905 0.74883 0.34399 0.0
H1116 H 0.24552 0.74103 0.37668 0.0
H1117 H 0.2478 0.68477 0.3547 0.0
H1118 H 0.24168 0.69249 0.32228 0.0
H1119 H 0.27855 0.69926 0.37772 0.0
H1120 H 0.21097 0.69661 0.37887 0.0
H1121 H 0.18142 0.70951 0.37638 0.0
H1122 H 0.20375 0.75213 0.42146 0.0
H1123 H 0.23353 0.7396 0.42405 0.0
C1124 C 0.27025 0.65739 0.454 0.0
C1125 C 0.27128 0.66685 0.47234 0.0
C1126 C 0.26848 0.66678 0.43784 0.0
C1127 C 0.26778 0.68583 0.43967 0.0
C1128 C 0.26915 0.69541 0.45796 0.0
C1129 C 0.27099 0.68602 0.47419 0.0
C1130 C 0.26441 0.69528 0.42239 0.0
C1131 C 0.24827 0.70371 0.42047 0.0
C1132 C 0.27573 0.69411 0.40696 0.0
C1133 C 0.29365 0.68656 0.40854 0.0
C1134 C 0.30763 0.69361 0.42343 0.0
C1135 C 0.32457 0.68662 0.42471 0.0
C1136 C 0.32775 0.67264 0.41114 0.0
C1137 C 0.31397 0.6656 0.39627 0.0
C1138 C 0.29698 0.67251 0.39494 0.0
C1139 C 0.24051 0.73472 0.34623 0.0
C1140 C 0.23999 0.72128 0.33064 0.0
C1141 C 0.24426 0.7303 0.36487 0.0
C1142 C 0.24729 0.71235 0.36807 0.0
C1143 C 0.24572 0.69875 0.35253 0.0
C1144 C 0.24214 0.70316 0.33402 0.0
C1145 C 0.25322 0.70768 0.38732 0.0
C1146 C 0.26995 0.70028 0.38963 0.0
C1147 C 0.24245 0.70981 0.40306 0.0
C1148 C 0.22455 0.71731 0.40149 0.0
C1149 C 0.20963 0.70883 0.38813 0.0
C1150 C 0.19283 0.71605 0.38673 0.0
C1151 C 0.19073 0.73167 0.39871 0.0
C1152 C 0.20541 0.74006 0.41216 0.0
C1153 C 0.22225 0.7329 0.41361 0.0
H1154 H 0.17771 0.73724 0.3976 0.0
H1155 H 0.34089 0.66729 0.41214 0.0
H1156 H 0.62504 0.97181 0.68068 0.0
H1157 H 0.60565 0.97417 0.65142 0.0
H1158 H 0.55592 0.95193 0.67711 0.0
H1159 H 0.57515 0.94974 0.7066 0.0
H1160 H 0.55852 0.94195 0.63303 0.0
H1161 H 0.56132 0.99266 0.68416 0.0
H1162 H 0.57874 0.01615 0.70894 0.0
H1163 H 0.61226 0.03995 0.66691 0.0
H1164 H 0.59511 0.01649 0.64192 0.0
H1165 H 0.49586 0.98463 0.57311 0.0
H1166 H 0.51047 0.97217 0.60063 0.0
H1167 H 0.563 0.00728 0.59504 0.0
H1168 H 0.54858 0.02005 0.56832 0.0
H1169 H 0.55622 0.00885 0.63052 0.0
H1170 H 0.55489 0.96049 0.5793 0.0
H1171 H 0.53996 0.93695 0.55328 0.0
H1172 H 0.50671 0.90869 0.59288 0.0
H1173 H 0.52128 0.93215 0.61912 0.0
C1174 C 0.61006 0.96685 0.67992 0.0
C1175 C 0.60155 0.96089 0.69601 0.0
C1176 C 0.59903 0.96817 0.66318 0.0
C1177 C 0.57941 0.96334 0.66227 0.0
C1178 C 0.57106 0.95564 0.6776 0.0
C1179 C 0.58206 0.95451 0.69444 0.0
C1180 C 0.56763 0.96949 0.64694 0.0
C1181 C 0.55774 0.95652 0.63251 0.0
C1182 C 0.56693 0.98851 0.64627 0.0
C1183 C 0.57706 0.00274 0.66124 0.0
C1184 C 0.5725 0.00282 0.68025 0.0
C1185 C 0.5823 0.01614 0.69432 0.0
C1186 C 0.59664 0.02949 0.68951 0.0
C1187 C 0.60116 0.02959 0.67062 0.0
C1188 C 0.59139 0.01631 0.65649 0.0
C1189 C 0.51046 0.98978 0.57792 0.0
C1190 C 0.52102 0.00335 0.56857 0.0
C1191 C 0.51882 0.98255 0.59351 0.0
C1192 C 0.53787 0.9887 0.59977 0.0
C1193 C 0.54828 0.00237 0.59052 0.0
C1194 C 0.53996 0.00966 0.57519 0.0
C1195 C 0.54724 0.9814 0.61615 0.0
C1196 C 0.55671 0.99421 0.63096 0.0
C1197 C 0.54776 0.96228 0.61689 0.0
C1198 C 0.539 0.94819 0.60113 0.0
C1199 C 0.54427 0.94934 0.58243 0.0
C1200 C 0.53591 0.93601 0.56765 0.0
C1201 C 0.52235 0.9214 0.57142 0.0
C1202 C 0.51718 0.92005 0.58998 0.0
C1203 C 0.5255 0.93334 0.60482 0.0
H1204 H 0.51589 0.91109 0.55996 0.0
H1205 H 0.60421 0.0398 0.70041 0.0
H1206 H 0.2451 0.37754 0.94933 0.0
H1207 H 0.24913 0.35943 0.91968 0.0
H1208 H 0.27703 0.32247 0.95143 0.0
H1209 H 0.27288 0.34051 0.98142 0.0
H1210 H 0.29578 0.33494 0.91883 0.0
H1211 H 0.23607 0.30459 0.93309 0.0
H1212 H 0.20365 0.30141 0.94258 0.0
H1213 H 0.1871 0.32979 0.89516 0.0
H1214 H 0.2195 0.33338 0.88556 0.0
H1215 H 0.27515 0.27241 0.82643 0.0
H1216 H 0.27896 0.28297 0.86076 0.0
H1217 H 0.2632 0.33521 0.84864 0.0
H1218 H 0.25973 0.32509 0.81459 0.0
H1219 H 0.24005 0.30848 0.87414 0.0
H1220 H 0.30152 0.34196 0.86292 0.0
H1221 H 0.33368 0.34349 0.85298 0.0
H1222 H 0.34647 0.30722 0.89474 0.0
H1223 H 0.31424 0.30527 0.90473 0.0
C1224 C 0.25207 0.36556 0.95008 0.0
C1225 C 0.25864 0.36045 0.96774 0.0
C1226 C 0.25432 0.35519 0.93311 0.0
C1227 C 0.26329 0.33958 0.93341 0.0
C1228 C 0.27005 0.33447 0.95096 0.0
C1229 C 0.26758 0.34473 0.96804 0.0
C1230 C 0.26549 0.32888 0.91517 0.0
C1231 C 0.2836 0.32878 0.90918 0.0
C1232 C 0.24961 0.3209 0.90262 0.0
C1233 C 0.23024 0.31934 0.90867 0.0
C1234 C 0.22557 0.31033 0.92481 0.0
C1235 C 0.20718 0.30841 0.93018 0.0
C1236 C 0.19333 0.31541 0.9195 0.0
C1237 C 0.19785 0.3244 0.90345 0.0
C1238 C 0.21622 0.32638 0.89804 0.0
C1239 C 0.27298 0.28631 0.83107 0.0
C1240 C 0.26697 0.29784 0.81779 0.0
C1241 C 0.27518 0.29231 0.85064 0.0
C1242 C 0.27136 0.30984 0.8571 0.0
C1243 C 0.26628 0.32165 0.84384 0.0
C1244 C 0.26427 0.3158 0.82438 0.0
C1245 C 0.27014 0.3152 0.87757 0.0
C1246 C 0.25217 0.31427 0.88395 0.0
C1247 C 0.28611 0.3221 0.8904 0.0
C1248 C 0.3054 0.32323 0.88435 0.0
C1249 C 0.31111 0.33412 0.8698 0.0
C1250 C 0.32937 0.33512 0.86421 0.0
C1251 C 0.34209 0.32539 0.87316 0.0
C1252 C 0.33659 0.3147 0.88778 0.0
C1253 C 0.31833 0.31365 0.89341 0.0
H1254 H 0.35623 0.3262 0.86882 0.0
H1255 H 0.17909 0.31385 0.92364 0.0
H1256 H 0.94574 0.99338 0.29937 0.0
H1257 H 0.95353 0.99198 0.33334 0.0
H1258 H 0.89737 0.00031 0.34473 0.0
H1259 H 0.88969 0.00242 0.31075 0.0
H1260 H 0.9211 0.01987 0.37072 0.0
H1261 H 0.91188 0.95678 0.34424 0.0
H1262 H 0.91615 0.93007 0.32216 0.0
H1263 H 0.97486 0.93806 0.34149 0.0
H1264 H 0.971 0.96498 0.3635 0.0
H1265 H 0.93105 -0.00059 0.46528 0.0
H1266 H 0.9199 0.99298 0.43147 0.0
H1267 H 0.97703 0.99438 0.41696 0.0
H1268 H 0.98831 0.00048 0.45078 0.0
H1269 H 0.95077 0.9681 0.39306 0.0
H1270 H 0.95899 0.03347 0.41766 0.0
H1271 H 0.95297 0.05744 0.44223 0.0
H1272 H 0.89354 0.04265 0.42721 0.0
H1273 H 0.8992 0.01848 0.40268 0.0
C1274 C 0.93504 0.99495 0.3091 0.0
C1275 C 0.91706 -0.00207 0.30236 0.0
C1276 C 0.93948 0.99402 0.32852 0.0
C1277 C 0.92591 0.99562 0.34157 0.0
C1278 C 0.90805 -0.00106 0.33493 0.0
C1279 C 0.90368 0.00015 0.31551 0.0
C1280 C 0.93051 0.99412 0.36216 0.0
C1281 C 0.92732 0.00839 0.37554 0.0
C1282 C 0.93879 0.97923 0.36858 0.0
C1283 C 0.94117 0.963 0.3554 0.0
C1284 C 0.92573 0.95292 0.34369 0.0
C1285 C 0.92807 0.93773 0.3312 0.0
C1286 C 0.94577 0.9324 0.33039 0.0
C1287 C 0.96116 0.94222 0.34211 0.0
C1288 C 0.9589 0.95743 0.35461 0.0
C1289 C 0.94122 -0.00206 0.45494 0.0
C1290 C 0.96058 0.00077 0.46066 0.0
C1291 C 0.93482 0.99426 0.43563 0.0
C1292 C 0.94769 0.9936 0.42174 0.0
C1293 C 0.96689 0.99492 0.42748 0.0
C1294 C 0.97331 -0.00154 0.44682 0.0
C1295 C 0.94145 0.99384 0.40134 0.0
C1296 C 0.94442 0.97944 0.38808 0.0
C1297 C 0.93277 0.00847 0.395 0.0
C1298 C 0.9295 0.02409 0.40847 0.0
C1299 C 0.94465 0.0354 0.41956 0.0
C1300 C 0.9413 0.04897 0.4335 0.0
C1301 C 0.92288 0.05141 0.43639 0.0
C1302 C 0.90779 0.04064 0.42502 0.0
C1303 C 0.91106 0.02705 0.41106 0.0
H1304 H 0.92029 0.06163 0.44747 0.0
H1305 H 0.94756 0.92064 0.32071 0.0
H1306 H 0.28472 0.64106 0.60622 0.0
H1307 H 0.29053 0.66447 0.63365 0.0
H1308 H 0.30405 0.70701 0.5964 0.0
H1309 H 0.29808 0.6837 0.56876 0.0
H1310 H 0.31817 0.69238 0.65077 0.0
H1311 H 0.28004 0.74189 0.61054 0.0
H1312 H 0.25829 0.74155 0.58179 0.0
H1313 H 0.23487 0.68508 0.58691 0.0
H1314 H 0.25631 0.68519 0.61579 0.0
H1315 H 0.30306 0.76368 0.72268 0.0
H1316 H 0.31241 0.7514 0.69181 0.0
H1317 H 0.25753 0.71802 0.67958 0.0
H1318 H 0.24824 0.73006 0.71008 0.0
H1319 H 0.27004 0.7338 0.64822 0.0
H1320 H 0.29276 0.70024 0.69951 0.0
H1321 H 0.31186 0.69803 0.72941 0.0
H1322 H 0.36211 0.71849 0.70406 0.0
H1323 H 0.34328 0.72115 0.6741 0.0
C1324 C 0.28932 0.65533 0.60385 0.0
C1325 C 0.29056 0.66055 0.58525 0.0
C1326 C 0.29278 0.66869 0.61958 0.0
C1327 C 0.29746 0.68748 0.61701 0.0
C1328 C 0.30027 0.69258 0.59864 0.0
C1329 C 0.29682 0.67922 0.58287 0.0
C1330 C 0.29658 0.70161 0.6331 0.0
C1331 C 0.30792 0.70171 0.65013 0.0
C1332 C 0.28306 0.71365 0.63231 0.0
C1333 C 0.26994 0.71349 0.61512 0.0
C1334 C 0.27022 0.72943 0.60552 0.0
C1335 C 0.25795 0.72928 0.58922 0.0
C1336 C 0.24526 0.71328 0.58248 0.0
C1337 C 0.24475 0.69743 0.59209 0.0
C1338 C 0.25697 0.69753 0.60841 0.0
C1339 C 0.29294 0.754 0.71317 0.0
C1340 C 0.275 0.74769 0.71875 0.0
C1341 C 0.29831 0.74696 0.69565 0.0
C1342 C 0.28567 0.73374 0.68351 0.0
C1343 C 0.26747 0.72824 0.68872 0.0
C1344 C 0.26222 0.73505 0.70619 0.0
C1345 C 0.29141 0.72438 0.66599 0.0
C1346 C 0.28087 0.72508 0.64866 0.0
C1347 C 0.30536 0.71281 0.66668 0.0
C1348 C 0.31661 0.71113 0.68466 0.0
C1349 C 0.30787 0.70442 0.70037 0.0
C1350 C 0.31863 0.70306 0.71731 0.0
C1351 C 0.33816 0.70815 0.71864 0.0
C1352 C 0.34697 0.71459 0.70302 0.0
C1353 C 0.33627 0.71604 0.68606 0.0
H1354 H 0.34647 0.70707 0.73177 0.0
H1355 H 0.23579 0.71318 0.56985 0.0
H1356 H 0.61254 0.98564 0.81422 0.0
H1357 H 0.60111 0.9887 0.84594 0.0
H1358 H 0.55115 0.00665 0.82193 0.0
H1359 H 0.56249 0.00388 0.7903 0.0
H1360 H 0.56532 0.02777 0.85436 0.0
H1361 H 0.54973 0.96288 0.83335 0.0
H1362 H 0.55592 0.93212 0.82103 0.0
H1363 H 0.59482 0.93178 0.86995 0.0
H1364 H 0.58906 0.96268 0.88243 0.0
H1365 H 0.50886 0.013 0.9326 0.0
H1366 H 0.52121 0.01243 0.90115 0.0
H1367 H 0.57203 0.99598 0.92508 0.0
H1368 H 0.55984 0.99643 0.95637 0.0
H1369 H 0.55727 0.97424 0.89268 0.0
H1370 H 0.57259 0.0392 0.91377 0.0
H1371 H 0.56591 0.06975 0.92615 0.0
H1372 H 0.52701 0.06973 0.87715 0.0
H1373 H 0.53326 0.03903 0.8646 0.0
C1374 C 0.59914 0.99026 0.81569 0.0
C1375 C 0.5884 0.99443 0.7997 0.0
C1376 C 0.5926 0.99195 0.83381 0.0
C1377 C 0.5752 -0.00227 0.83623 0.0
C1378 C 0.56461 0.00217 0.82036 0.0
C1379 C 0.57111 0.0005 0.80227 0.0
C1380 C 0.56789 -0.00097 0.85526 0.0
C1381 C 0.56336 0.01602 0.86266 0.0
C1382 C 0.56564 0.98377 0.86619 0.0
C1383 C 0.56912 0.96518 0.85871 0.0
C1384 C 0.55973 0.95632 0.8414 0.0
C1385 C 0.56314 0.93885 0.8344 0.0
C1386 C 0.5758 0.93003 0.84467 0.0
C1387 C 0.58504 0.93865 0.86199 0.0
C1388 C 0.58171 0.95613 0.86904 0.0
C1389 C 0.52273 0.00945 0.93116 0.0
C1390 C 0.53333 0.00466 0.9469 0.0
C1391 C 0.52976 0.00914 0.91323 0.0
C1392 C 0.54753 0.00418 0.91085 0.0
C1393 C 0.55826 -0.00023 0.92662 0.0
C1394 C 0.55127 8e-05 0.94449 0.0
C1395 C 0.55481 0.00299 0.89182 0.0
C1396 C 0.55928 0.986 0.8844 0.0
C1397 C 0.55696 0.01824 0.88088 0.0
C1398 C 0.55325 0.03673 0.88835 0.0
C1399 C 0.56249 0.04564 0.90571 0.0
C1400 C 0.55881 0.06299 0.91275 0.0
C1401 C 0.546 0.07165 0.90247 0.0
C1402 C 0.5369 0.06299 0.88511 0.0
C1403 C 0.54052 0.04562 0.87802 0.0
H1404 H 0.54317 0.08509 0.90794 0.0
H1405 H 0.57842 0.91649 0.83924 0.0
H1406 H 0.24785 0.31759 0.06163 0.0
H1407 H 0.24562 0.29837 0.08825 0.0
H1408 H 0.25714 0.3475 0.12826 0.0
H1409 H 0.25933 0.36676 0.10185 0.0
H1410 H 0.27102 0.29506 0.11847 0.0
H1411 H 0.22961 0.34129 0.16463 0.0
H1412 H 0.20651 0.36234 0.16008 0.0
H1413 H 0.18733 0.33357 0.1048 0.0
H1414 H 0.21012 0.31218 0.10913 0.0
H1415 H 0.28159 0.28718 0.21702 0.0
H1416 H 0.27905 0.29735 0.18518 0.0
H1417 H 0.22176 0.26905 0.17578 0.0
H1418 H 0.22425 0.2586 0.20785 0.0
H1419 H 0.22611 0.30549 0.16675 0.0
H1420 H 0.25296 0.25159 0.15283 0.0
H1421 H 0.27501 0.2295 0.15694 0.0
H1422 H 0.32083 0.27055 0.146 0.0
H1423 H 0.29919 0.29317 0.14247 0.0
C1424 C 0.24998 0.32428 0.07611 0.0
C1425 C 0.25368 0.3437 0.07965 0.0
C1426 C 0.24873 0.31328 0.09127 0.0
C1427 C 0.25098 0.32153 0.11019 0.0
C1428 C 0.25509 0.34087 0.11375 0.0
C1429 C 0.25641 0.35186 0.09863 0.0
C1430 C 0.24888 0.31005 0.12633 0.0
C1431 C 0.26115 0.29725 0.12899 0.0
C1432 C 0.23566 0.3126 0.13977 0.0
C1433 C 0.22169 0.32522 0.13716 0.0
C1434 C 0.2204 0.33939 0.15154 0.0
C1435 C 0.20737 0.35139 0.149 0.0
C1436 C 0.1955 0.34932 0.13214 0.0
C1437 C 0.19658 0.3352 0.11782 0.0
C1438 C 0.20957 0.32315 0.12031 0.0
C1439 C 0.26844 0.28305 0.20819 0.0
C1440 C 0.25305 0.27219 0.21495 0.0
C1441 C 0.26707 0.28877 0.18994 0.0
C1442 C 0.25026 0.28385 0.17811 0.0
C1443 C 0.23487 0.27292 0.18473 0.0
C1444 C 0.23631 0.26695 0.20297 0.0
C1445 C 0.24872 0.29103 0.15925 0.0
C1446 C 0.23581 0.30309 0.1561 0.0
C1447 C 0.26121 0.28763 0.14529 0.0
C1448 C 0.27441 0.27414 0.14749 0.0
C1449 C 0.26777 0.25601 0.15152 0.0
C1450 C 0.28021 0.2434 0.15376 0.0
C1451 C 0.29932 0.24866 0.1518 0.0
C1452 C 0.30604 0.26656 0.14763 0.0
C1453 C 0.29369 0.27929 0.1455 0.0
H1454 H 0.30892 0.23885 0.15345 0.0
H1455 H 0.18543 0.35864 0.13019 0.0
H1456 H 0.2064 0.93075 0.02445 0.0
H1457 H 0.18426 0.9508 0.03426 0.0
H1458 H 0.1506 0.90499 0.05618 0.0
H1459 H 0.17252 0.88456 0.04562 0.0
H1460 H 0.12883 0.92226 0.03698 0.0
H1461 H 0.17703 0.94216 0.08648 0.0
H1462 H 0.20916 0.95243 0.10182 0.0
H1463 H 0.21375 0.00149 0.07269 0.0
H1464 H 0.18176 0.9914 0.05694 0.0
H1465 H 0.06902 0.98504 0.06427 0.0
H1466 H 0.09328 0.96618 0.07092 0.0
H1467 H 0.13 -0.00217 0.03614 0.0
H1468 H 0.10583 0.01685 0.02939 0.0
H1469 H 0.14891 0.98598 0.06886 0.0
H1470 H 0.10142 0.96109 0.01573 0.0
H1471 H 0.06856 0.95053 0.00253 0.0
H1472 H 0.06224 0.90966 0.04234 0.0
H1473 H 0.09501 0.92021 0.05598 0.0
C1474 C 0.19437 0.92494 0.03149 0.0
C1475 C 0.19118 0.90608 0.03427 0.0
C1476 C 0.18179 0.93648 0.03727 0.0
C1477 C 0.16595 0.92953 0.04636 0.0
C1478 C 0.16279 0.9107 0.04931 0.0
C1479 C 0.17529 0.89904 0.04326 0.0
C1480 C 0.15209 0.94175 0.05137 0.0
C1481 C 0.1332 0.93601 0.0444 0.0
C1482 C 0.1577 0.95975 0.061 0.0
C1483 C 0.17699 0.96595 0.07043 0.0
C1484 C 0.18493 0.95508 0.08323 0.0
C1485 C 0.20312 0.96088 0.09202 0.0
C1486 C 0.2135 0.97759 0.08822 0.0
C1487 C 0.2057 0.98855 0.07563 0.0
C1488 C 0.18752 0.98281 0.06679 0.0
C1489 C 0.08242 0.98832 0.0584 0.0
C1490 C 0.08537 0.00221 0.04596 0.0
C1491 C 0.09626 0.97752 0.06225 0.0
C1492 C 0.11324 0.98043 0.05374 0.0
C1493 C 0.11692 0.99536 0.04278 0.0
C1494 C 0.10306 0.00617 0.03889 0.0
C1495 C 0.12603 0.96657 0.05399 0.0
C1496 C 0.14463 0.97204 0.06189 0.0
C1497 C 0.12011 0.94819 0.04555 0.0
C1498 C 0.10058 0.94158 0.03701 0.0
C1499 C 0.09299 0.94993 0.02174 0.0
C1500 C 0.07438 0.94395 0.01418 0.0
C1501 C 0.0633 0.92948 0.02164 0.0
C1502 C 0.07083 0.9209 0.03661 0.0
C1503 C 0.08942 0.92688 0.04426 0.0
H1504 H 0.04889 0.92489 0.0158 0.0
H1505 H 0.22758 0.98206 0.09504 0.0
H1506 H 0.71028 0.57778 0.97494 0.0
H1507 H 0.67835 0.56087 0.97455 0.0
H1508 H 0.65743 0.61245 0.98495 0.0
H1509 H 0.68936 0.62948 0.98546 0.0
H1510 H 0.64598 0.58779 0.00998 0.0
H1511 H 0.64798 0.58736 0.942 0.0
H1512 H 0.66108 0.58161 0.91115 0.0
H1513 H 0.65575 0.52365 0.91801 0.0
H1514 H 0.64285 0.5291 0.94905 0.0
H1515 H 0.54967 0.55709 0.0002 0.0
H1516 H 0.58065 0.57176 0.99329 0.0
H1517 H 0.59773 0.51821 0.98358 0.0
H1518 H 0.5664 0.50326 0.99021 0.0
H1519 H 0.61156 0.54243 0.95807 0.0
H1520 H 0.61001 0.54236 0.02572 0.0
H1521 H 0.59672 0.54751 0.05659 0.0
H1522 H 0.60179 0.60565 0.05073 0.0
H1523 H 0.61489 0.60081 0.01971 0.0
C1524 C 0.69885 0.58554 0.97688 0.0
C1525 C 0.70234 0.60496 0.98034 0.0
C1526 C 0.68061 0.57586 0.97659 0.0
C1527 C 0.66554 0.58542 0.97969 0.0
C1528 C 0.6689 0.60483 0.98255 0.0
C1529 C 0.68713 0.61453 0.98278 0.0
C1530 C 0.64652 0.57516 0.98131 0.0
C1531 C 0.63835 0.57807 -0.00148 0.0
C1532 C 0.6369 0.56198 0.96662 0.0
C1533 C 0.64463 0.55868 0.94794 0.0
C1534 C 0.64975 0.57342 0.93702 0.0
C1535 C 0.65711 0.5702 0.91948 0.0
C1536 C 0.6593 0.55228 0.91265 0.0
C1537 C 0.65408 0.53753 0.92333 0.0
C1538 C 0.64672 0.54067 0.94089 0.0
C1539 C 0.55995 0.54838 -0.00355 0.0
C1540 C 0.55572 0.52903 0.99602 0.0
C1541 C 0.57764 0.5568 0.9925 0.0
C1542 C 0.59157 0.54608 0.98832 0.0
C1543 C 0.58716 0.5267 0.98688 0.0
C1544 C 0.5693 0.5182 0.9907 0.0
C1545 C 0.61097 0.55534 0.98659 0.0
C1546 C 0.61924 0.55215 0.96949 0.0
C1547 C 0.62082 0.56818 0.00145 0.0
C1548 C 0.6133 0.5712 0.02031 0.0
C1549 C 0.6082 0.55623 0.03097 0.0
C1550 C 0.60072 0.55909 0.0485 0.0
C1551 C 0.59837 0.57689 0.05558 0.0
C1552 C 0.60361 0.59187 0.04521 0.0
C1553 C 0.61109 0.58908 0.02767 0.0
H1554 H 0.59249 0.57907 0.0691 0.0
H1555 H 0.66499 0.54982 0.89907 0.0
H1556 H 0.69361 0.47082 0.27919 0.0
H1557 H 0.71043 0.44426 0.27851 0.0
H1558 H 0.65813 0.40774 0.28112 0.0
H1559 H 0.64129 0.43413 0.28193 0.0
H1560 H 0.68601 0.39977 0.30541 0.0
H1561 H 0.67798 0.41181 0.23922 0.0
H1562 H 0.68147 0.43106 0.21246 0.0
H1563 H 0.74155 0.43905 0.22368 0.0
H1564 H 0.7384 0.42003 0.25068 0.0
H1565 H 0.7007 0.31126 0.27315 0.0
H1566 H 0.69071 0.34143 0.27653 0.0
H1567 H 0.74736 0.36787 0.27102 0.0
H1568 H 0.75754 0.33737 0.26757 0.0
H1569 H 0.72186 0.38346 0.25075 0.0
H1570 H 0.73032 0.36892 0.31476 0.0
H1571 H 0.72734 0.35102 0.34257 0.0
H1572 H 0.6674 0.34832 0.33641 0.0
H1573 H 0.66996 0.36604 0.30842 0.0
C1574 C 0.68571 0.45714 0.27969 0.0
C1575 C 0.6661 0.45458 0.28059 0.0
C1576 C 0.69534 0.44197 0.27922 0.0
C1577 C 0.68551 0.424 0.27961 0.0
C1578 C 0.666 0.42148 0.28081 0.0
C1579 C 0.65638 0.43659 0.28123 0.0
C1580 C 0.69539 0.40769 0.27867 0.0
C1581 C 0.69373 0.39611 0.29339 0.0
C1582 C 0.70605 0.40331 0.26334 0.0
C1583 C 0.70794 0.41469 0.2471 0.0
C1584 C 0.69193 0.41781 0.23608 0.0
C1585 C 0.69384 0.42865 0.22085 0.0
C1586 C 0.71172 0.43633 0.21642 0.0
C1587 C 0.72771 0.43313 0.22716 0.0
C1588 C 0.72587 0.42231 0.24242 0.0
C1589 C 0.7111 0.32348 0.27273 0.0
C1590 C 0.72998 0.32197 0.27042 0.0
C1591 C 0.70536 0.34074 0.27472 0.0
C1592 C 0.71837 0.35696 0.27452 0.0
C1593 C 0.73713 0.35553 0.27143 0.0
C1594 C 0.74292 0.33813 0.26941 0.0
C1595 C 0.71203 0.37523 0.27725 0.0
C1596 C 0.71436 0.3872 0.26291 0.0
C1597 C 0.70203 0.38004 0.293 0.0
C1598 C 0.70034 0.36879 0.30943 0.0
C1599 C 0.71648 0.36438 0.31922 0.0
C1600 C 0.71487 0.35434 0.33508 0.0
C1601 C 0.69721 0.34868 0.34135 0.0
C1602 C 0.68108 0.35284 0.33162 0.0
C1603 C 0.68261 0.3629 0.31577 0.0
H1604 H 0.696 0.34098 0.35367 0.0
H1605 H 0.71317 0.44471 0.20462 0.0
H1606 H 0.80878 0.39245 0.50979 0.0
H1607 H 0.84171 0.40383 0.50561 0.0
H1608 H 0.82463 0.42918 0.45589 0.0
H1609 H 0.79155 0.4182 0.46016 0.0
H1610 H 0.8595 0.40791 0.45551 0.0
H1611 H 0.83222 0.4577 0.4877 0.0
H1612 H 0.81375 0.4703 0.5123 0.0
H1613 H 0.85118 0.45551 0.55634 0.0
H1614 H 0.86969 0.44254 0.53196 0.0
H1615 H 0.94423 0.48803 0.49155 0.0
H1616 H 0.91149 0.47612 0.48022 0.0
H1617 H 0.92117 0.42051 0.48691 0.0
H1618 H 0.95396 0.43225 0.49813 0.0
H1619 H 0.88865 0.45922 0.50422 0.0
H1620 H 0.88808 0.39002 0.45748 0.0
H1621 H 0.90675 0.37692 0.43338 0.0
H1622 H 0.92585 0.43133 0.41786 0.0
H1623 H 0.90709 0.44473 0.44167 0.0
C1624 C 0.81202 0.4002 0.4978 0.0
C1625 C 0.7976 0.4046 0.48541 0.0
C1626 C 0.83081 0.40664 0.49542 0.0
C1627 C 0.83546 0.41729 0.48045 0.0
C1628 C 0.82121 0.42089 0.46745 0.0
C1629 C 0.80237 0.41473 0.47001 0.0
C1630 C 0.85504 0.42623 0.47971 0.0
C1631 C 0.86595 0.4192 0.46603 0.0
C1632 C 0.8632 0.44105 0.49334 0.0
C1633 C 0.85221 0.44899 0.50801 0.0
C1634 C 0.8364 0.45698 0.50262 0.0
C1635 C 0.82594 0.46422 0.51653 0.0
C1636 C 0.83125 0.46366 0.53587 0.0
C1637 C 0.84706 0.45591 0.54135 0.0
C1638 C 0.85755 0.44862 0.5275 0.0
C1639 C 0.93954 0.47322 0.49012 0.0
C1640 C 0.95159 0.4611 0.49603 0.0
C1641 C 0.92083 0.46645 0.48365 0.0
C1642 C 0.91392 0.44747 0.4828 0.0
C1643 C 0.92627 0.4352 0.48729 0.0
C1644 C 0.94499 0.44195 0.49381 0.0
C1645 C 0.89342 0.44085 0.4801 0.0
C1646 C 0.88228 0.44818 0.49337 0.0
C1647 C 0.88515 0.42634 0.46607 0.0
C1648 C 0.89626 0.41839 0.45148 0.0
C1649 C 0.89617 0.39918 0.44886 0.0
C1650 C 0.9068 0.3917 0.43526 0.0
C1651 C 0.91752 0.40329 0.42413 0.0
C1652 C 0.91759 0.42237 0.42654 0.0
C1653 C 0.90699 0.42992 0.44011 0.0
H1654 H 0.92574 0.39747 0.41362 0.0
H1655 H 0.82315 0.46928 0.54661 0.0
H1656 H 0.35338 0.08417 0.26414 0.0
H1657 H 0.33247 0.10701 0.26231 0.0
H1658 H 0.28867 0.06978 0.28388 0.0
H1659 H 0.30945 0.0463 0.28478 0.0
H1660 H 0.27358 0.08561 0.25704 0.0
H1661 H 0.31368 0.10996 0.31295 0.0
H1662 H 0.3435 0.11952 0.33324 0.0
H1663 H 0.36231 0.15902 0.29475 0.0
H1664 H 0.33262 0.14966 0.27421 0.0
H1665 H 0.23132 0.17102 0.27789 0.0
H1666 H 0.24421 0.14236 0.28126 0.0
H1667 H 0.28266 0.1564 0.23905 0.0
H1668 H 0.26973 0.18473 0.23522 0.0
H1669 H 0.29722 0.15126 0.28089 0.0
H1670 H 0.25531 0.12391 0.22443 0.0
H1671 H 0.22396 0.11447 0.20698 0.0
H1672 H 0.20676 0.08043 0.25087 0.0
H1673 H 0.23795 0.0899 0.26872 0.0
C1674 C 0.33934 0.08085 0.26863 0.0
C1675 C 0.3331 0.06351 0.27477 0.0
C1676 C 0.3274 0.094 0.2677 0.0
C1677 C 0.3091 0.09037 0.27344 0.0
C1678 C 0.30276 0.07298 0.2795 0.0
C1679 C 0.31465 0.05961 0.28007 0.0
C1680 C 0.29663 0.10466 0.27245 0.0
C1681 C 0.27865 0.09989 0.26259 0.0
C1682 C 0.30308 0.12334 0.27973 0.0
C1683 C 0.32097 0.12904 0.29201 0.0
C1684 C 0.32422 0.12062 0.30878 0.0
C1685 C 0.34108 0.12603 0.32034 0.0
C1686 C 0.3548 0.13985 0.31527 0.0
C1687 C 0.35168 0.1483 0.29865 0.0
C1688 C 0.33481 0.143 0.28708 0.0
C1689 C 0.24213 0.16775 0.26891 0.0
C1690 C 0.24961 0.18027 0.25642 0.0
C1691 C 0.24948 0.15139 0.27089 0.0
C1692 C 0.26442 0.14743 0.26048 0.0
C1693 C 0.27111 0.1593 0.24719 0.0
C1694 C 0.26365 0.17546 0.24501 0.0
C1695 C 0.27466 0.13222 0.26493 0.0
C1696 C 0.29215 0.1369 0.2756 0.0
C1697 C 0.26755 0.11349 0.25879 0.0
C1698 C 0.24886 0.10781 0.24803 0.0
C1699 C 0.24477 0.11459 0.23047 0.0
C1700 C 0.22705 0.10918 0.22048 0.0
C1701 C 0.21335 0.09691 0.22785 0.0
C1702 C 0.21737 0.08997 0.2452 0.0
C1703 C 0.23506 0.09534 0.25525 0.0
H1704 H 0.19964 0.09274 0.22009 0.0
H1705 H 0.36784 0.14402 0.32424 0.0
H1706 H 0.28436 0.06428 0.51528 0.0
H1707 H 0.31514 0.05464 0.51924 0.0
H1708 H 0.34135 0.10728 0.50362 0.0
H1709 H 0.31055 0.11689 0.49918 0.0
H1710 H 0.35454 0.08004 0.48515 0.0
H1711 H 0.34412 0.09631 0.55042 0.0
H1712 H 0.32678 0.0955 0.57921 0.0
H1713 H 0.32814 0.03729 0.57899 0.0
H1714 H 0.34528 0.0377 0.55003 0.0
H1715 H 0.4491 0.07359 0.5164 0.0
H1716 H 0.41823 0.08311 0.51442 0.0
H1717 H 0.39224 0.02748 0.52097 0.0
H1718 H 0.42341 0.01788 0.52359 0.0
H1719 H 0.37894 0.05578 0.54371 0.0
H1720 H 0.37226 0.04244 0.46846 0.0
H1721 H 0.38608 0.0443 0.43758 0.0
H1722 H 0.41765 0.09769 0.45797 0.0
H1723 H 0.40324 0.0965 0.48857 0.0
C1724 C 0.29667 0.07385 0.51275 0.0
C1725 C 0.295 0.09136 0.50688 0.0
C1726 C 0.31427 0.06835 0.51514 0.0
C1727 C 0.33056 0.08033 0.51197 0.0
C1728 C 0.32895 0.09783 0.50618 0.0
C1729 C 0.31133 0.1033 0.50364 0.0
C1730 C 0.34921 0.07432 0.51383 0.0
C1731 C 0.35995 0.075 0.49809 0.0
C1732 C 0.3561 0.06728 0.53051 0.0
C1733 C 0.34583 0.06701 0.54795 0.0
C1734 C 0.3406 0.08331 0.55642 0.0
C1735 C 0.33083 0.08292 0.57279 0.0
C1736 C 0.32632 0.06634 0.58089 0.0
C1737 C 0.33162 0.05012 0.57268 0.0
C1738 C 0.34138 0.05042 0.5563 0.0
C1739 C 0.43682 0.06334 0.51737 0.0
C1740 C 0.4386 0.04493 0.51988 0.0
C1741 C 0.41916 0.06876 0.51597 0.0
C1742 C 0.40291 0.05584 0.51674 0.0
C1743 C 0.40464 0.03757 0.51998 0.0
C1744 C 0.4224 0.03214 0.52159 0.0
C1745 C 0.38425 0.06176 0.51513 0.0
C1746 C 0.37347 0.06092 0.53086 0.0
C1747 C 0.37734 0.06885 0.49855 0.0
C1748 C 0.38721 0.06909 0.48096 0.0
C1749 C 0.3823 0.05448 0.46638 0.0
C1750 C 0.39 0.05554 0.44884 0.0
C1751 C 0.40286 0.07104 0.44587 0.0
C1752 C 0.40781 0.08563 0.46034 0.0
C1753 C 0.39981 0.08481 0.47775 0.0
H1754 H 0.40898 0.07173 0.43236 0.0
H1755 H 0.31876 0.06608 0.59357 0.0
H1756 H 0.64004 0.57998 0.30553 0.0
H1757 H 0.6606 0.60996 0.30776 0.0
H1758 H 0.70235 0.58399 0.27958 0.0
H1759 H 0.68238 0.55387 0.27867 0.0
H1760 H 0.71989 0.61052 0.30225 0.0
H1761 H 0.66669 0.60561 0.25545 0.0
H1762 H 0.63314 0.60112 0.24363 0.0
H1763 H 0.62503 0.64745 0.28197 0.0
H1764 H 0.6585 0.65207 0.29417 0.0
H1765 H 0.72882 0.69861 0.2463 0.0
H1766 H 0.71432 0.66774 0.2523 0.0
H1767 H 0.74103 0.67692 0.30987 0.0
H1768 H 0.75633 0.70769 0.3035 0.0
H1769 H 0.6895 0.65949 0.27484 0.0
H1770 H 0.74368 0.63504 0.32719 0.0
H1771 H 0.77809 0.63841 0.33413 0.0
H1772 H 0.78586 0.6486 0.2761 0.0
H1773 H 0.75151 0.64506 0.26876 0.0
C1774 C 0.6538 0.58068 0.30022 0.0
C1775 C 0.6596 0.5647 0.29179 0.0
C1776 C 0.66549 0.59781 0.30135 0.0
C1777 C 0.68281 0.5994 0.29327 0.0
C1778 C 0.68904 0.58322 0.28584 0.0
C1779 C 0.67761 0.56599 0.28529 0.0
C1780 C 0.69374 0.61788 0.29113 0.0
C1781 C 0.71323 0.62125 0.29631 0.0
C1782 C 0.68518 0.63188 0.28312 0.0
C1783 C 0.66503 0.62903 0.27589 0.0
C1784 C 0.65772 0.61475 0.26145 0.0
C1785 C 0.63873 0.6122 0.25467 0.0
C1786 C 0.62696 0.62396 0.26208 0.0
C1787 C 0.63416 0.63833 0.27627 0.0
C1788 C 0.65313 0.64092 0.28312 0.0
C1789 C 0.73184 0.6939 0.26014 0.0
C1790 C 0.74362 0.70547 0.27447 0.0
C1791 C 0.7235 0.6763 0.26359 0.0
C1792 C 0.72647 0.66997 0.28157 0.0
C1793 C 0.7387 0.68134 0.2958 0.0
C1794 C 0.74741 0.69891 0.29218 0.0
C1795 C 0.71572 0.652 0.28551 0.0
C1796 C 0.69619 0.64881 0.28085 0.0
C1797 C 0.72438 0.63799 0.2933 0.0
C1798 C 0.74504 0.64001 0.29751 0.0
C1799 C 0.75274 0.63796 0.31591 0.0
C1800 C 0.77223 0.6399 0.31991 0.0
C1801 C 0.78416 0.64379 0.30559 0.0
C1802 C 0.77661 0.64567 0.2872 0.0
C1803 C 0.75714 0.64372 0.28313 0.0
H1804 H 0.79924 0.64529 0.30871 0.0
H1805 H 0.61226 0.62197 0.2568 0.0
H1806 H 0.83844 0.46283 0.78085 0.0
H1807 H 0.82192 0.43111 0.78067 0.0
H1808 H 0.87027 0.40998 0.76063 0.0
H1809 H 0.88679 0.44144 0.76064 0.0
H1810 H 0.83776 0.39423 0.73952 0.0
H1811 H 0.86009 0.40809 0.8065 0.0
H1812 H 0.86316 0.42608 0.83811 0.0
H1813 H 0.8032 0.41585 0.83977 0.0
H1814 H 0.79976 0.39799 0.80804 0.0
H1815 H 0.82474 0.30075 0.75191 0.0
H1816 H 0.83652 0.33385 0.75656 0.0
H1817 H 0.78295 0.34436 0.77431 0.0
H1818 H 0.77094 0.31104 0.76972 0.0
H1819 H 0.81386 0.36644 0.79626 0.0
H1820 H 0.79084 0.35205 0.73086 0.0
H1821 H 0.78642 0.33469 0.69891 0.0
H1822 H 0.84582 0.34637 0.69382 0.0
H1823 H 0.8506 0.36386 0.72581 0.0
C1824 C 0.8456 0.45143 0.77654 0.0
C1825 C 0.86394 0.4547 0.77072 0.0
C1826 C 0.83615 0.43332 0.7765 0.0
C1827 C 0.8449 0.41821 0.77067 0.0
C1828 C 0.86325 0.42145 0.76512 0.0
C1829 C 0.8727 0.43948 0.7652 0.0
C1830 C 0.83485 0.39896 0.76963 0.0
C1831 C 0.83269 0.38812 0.75197 0.0
C1832 C 0.82757 0.39122 0.78572 0.0
C1833 C 0.82965 0.40189 0.80481 0.0
C1834 C 0.84755 0.40981 0.81354 0.0
C1835 C 0.84936 0.41996 0.83149 0.0
C1836 C 0.83338 0.42215 0.84092 0.0
C1837 C 0.81556 0.41416 0.83244 0.0
C1838 C 0.81367 0.40402 0.81448 0.0
C1839 C 0.81547 0.31003 0.75699 0.0
C1840 C 0.79684 0.30328 0.76027 0.0
C1841 C 0.82223 0.32896 0.75959 0.0
C1842 C 0.8105 0.34154 0.76547 0.0
C1843 C 0.79218 0.33485 0.76969 0.0
C1844 C 0.78536 0.31583 0.76705 0.0
C1845 C 0.81734 0.36165 0.76628 0.0
C1846 C 0.8188 0.37264 0.78381 0.0
C1847 C 0.82383 0.36965 0.75003 0.0
C1848 C 0.82109 0.35913 0.7308 0.0
C1849 C 0.80298 0.3508 0.72299 0.0
C1850 C 0.80041 0.34095 0.70486 0.0
C1851 C 0.81584 0.33931 0.69437 0.0
C1852 C 0.83388 0.34762 0.70197 0.0
C1853 C 0.83652 0.35756 0.72008 0.0
H1854 H 0.8138 0.33166 0.68034 0.0
H1855 H 0.83481 0.43001 0.85482 0.0
H1856 H 0.00299 0.80536 0.07143 0.0
H1857 H -0.00274 0.83164 0.05405 0.0
H1858 H 0.98873 0.86224 0.10694 0.0
H1859 H 0.99391 0.83602 0.12421 0.0
H1860 H 0.9648 0.86891 0.07956 0.0
H1861 H 0.03173 0.86691 0.08713 0.0
H1862 H 0.06046 0.85318 0.08304 0.0
H1863 H 0.04912 0.84908 0.02212 0.0
H1864 H 0.02017 0.86256 0.02587 0.0
H1865 H -0.00129 0.9629 0.07546 0.0
H1866 H 0.99039 0.93045 0.08048 0.0
H1867 H -0.0036 0.91449 0.0212 0.0
H1868 H 0.00491 0.94714 0.01607 0.0
H1869 H 0.01715 0.89715 0.04462 0.0
H1870 H 0.95292 0.90554 0.03846 0.0
H1871 H 0.92553 0.92095 0.04411 0.0
H1872 H 0.9332 0.91513 0.104 0.0
H1873 H 0.96069 0.89973 0.09873 0.0
C1874 C -0.00037 0.81761 0.07928 0.0
C1875 C -0.00093 0.81869 0.09921 0.0
C1876 C -0.00358 0.83263 0.06935 0.0
C1877 C 0.99284 0.84902 0.07923 0.0
C1878 C 0.99146 0.84975 0.09899 0.0
C1879 C 0.99452 0.83476 0.10888 0.0
C1880 C 0.99171 0.86591 0.06947 0.0
C1881 C 0.97623 0.87509 0.07189 0.0
C1882 C 0.00638 0.87375 0.05902 0.0
C1883 C 0.02365 0.86545 0.05678 0.0
C1884 C 0.03527 0.8629 0.07287 0.0
C1885 C 0.05161 0.8552 0.07061 0.0
C1886 C 0.05657 0.85019 0.05233 0.0
C1887 C 0.04523 0.85291 0.03627 0.0
C1888 C 0.02885 0.86056 0.03845 0.0
C1889 C -0.00209 0.95253 0.06337 0.0
C1890 C 0.00259 0.95756 0.0454 0.0
C1891 C 0.99299 0.93396 0.06624 0.0
C1892 C 0.99262 0.92003 0.05118 0.0
C1893 C -0.0035 0.92504 0.03298 0.0
C1894 C 0.00132 0.94368 0.03007 0.0
C1895 C 0.9905 0.90042 0.0552 0.0
C1896 C 0.00542 0.89074 0.05176 0.0
C1897 C 0.97544 0.89227 0.06493 0.0
C1898 C 0.9589 0.90151 0.06819 0.0
C1899 C 0.94882 0.90762 0.05285 0.0
C1900 C 0.93325 0.91631 0.05598 0.0
C1901 C 0.92762 0.91901 0.0744 0.0
C1902 C 0.93755 0.91299 0.08973 0.0
C1903 C 0.95308 0.90422 0.08667 0.0
H1904 H 0.91558 0.92578 0.0768 0.0
H1905 H 0.06924 0.84425 0.05061 0.0
H1906 H 0.96222 0.22785 0.81932 0.0
H1907 H 0.92995 0.22099 0.80403 0.0
H1908 H 0.91244 0.25808 0.84781 0.0
H1909 H 0.94431 0.26371 0.86371 0.0
H1910 H 0.88645 0.2316 0.84049 0.0
H1911 H 0.9234 0.26959 0.80032 0.0
H1912 H 0.94923 0.27795 0.78017 0.0
H1913 H 0.92965 0.22881 0.74195 0.0
H1914 H 0.90381 0.22006 0.76202 0.0
H1915 H 0.811 0.26478 0.7974 0.0
H1916 H 0.84336 0.26239 0.8077 0.0
H1917 H 0.83972 0.21238 0.76968 0.0
H1918 H 0.80717 0.215 0.75873 0.0
H1919 H 0.87523 0.23956 0.77174 0.0
H1920 H 0.83736 0.20336 0.8168 0.0
H1921 H 0.81028 0.20145 0.83639 0.0
H1922 H 0.83123 0.25608 0.86373 0.0
H1923 H 0.85886 0.25779 0.84515 0.0
C1924 C 0.95129 0.23422 0.82572 0.0
C1925 C 0.95547 0.2462 0.84261 0.0
C1926 C 0.93295 0.23048 0.81693 0.0
C1927 C 0.91878 0.2393 0.82451 0.0
C1928 C 0.92305 0.25103 0.84167 0.0
C1929 C 0.94122 0.2543 0.85074 0.0
C1930 C 0.89958 0.23681 0.81457 0.0
C1931 C 0.88415 0.2333 0.82544 0.0
C1932 C 0.89632 0.23884 0.79484 0.0
C1933 C 0.91184 0.24406 0.78279 0.0
C1934 C 0.92469 0.2605 0.7877 0.0
C1935 C 0.93932 0.26532 0.77628 0.0
C1936 C 0.94112 0.25388 0.75982 0.0
C1937 C 0.92826 0.23763 0.75472 0.0
C1938 C 0.91363 0.23274 0.76611 0.0
C1939 C 0.81704 0.25327 0.79117 0.0
C1940 C 0.8065 0.23989 0.77749 0.0
C1941 C 0.83554 0.25195 0.79705 0.0
C1942 C 0.84371 0.23701 0.78972 0.0
C1943 C 0.83353 0.22394 0.77554 0.0
C1944 C 0.81499 0.22542 0.76938 0.0
C1945 C 0.86256 0.23481 0.79783 0.0
C1946 C 0.87777 0.23736 0.78663 0.0
C1947 C 0.86578 0.23252 0.81735 0.0
C1948 C 0.85018 0.23061 0.82979 0.0
C1949 C 0.83631 0.21477 0.82729 0.0
C1950 C 0.82091 0.2137 0.83826 0.0
C1951 C 0.81911 0.22856 0.85146 0.0
C1952 C 0.8328 0.24441 0.85384 0.0
C1953 C 0.84845 0.24534 0.84329 0.0
H1954 H 0.80712 0.22785 0.8598 0.0
H1955 H 0.95245 0.25763 0.751 0.0
H1956 H 0.51862 0.22922 0.5972 0.0
H1957 H 0.51552 0.198 0.58075 0.0
H1958 H 0.55376 0.18327 0.62443 0.0
H1959 H 0.55684 0.21434 0.64109 0.0
H1960 H 0.55874 0.16797 0.58697 0.0
H1961 H 0.50991 0.17325 0.62954 0.0
H1962 H 0.4838 0.18713 0.64231 0.0
H1963 H 0.45232 0.17529 0.58742 0.0
H1964 H 0.47839 0.16158 0.57425 0.0
H1965 H 0.49834 0.07063 0.58665 0.0
H1966 H 0.50801 0.10317 0.59832 0.0
H1967 H 0.52793 0.11417 0.54373 0.0
H1968 H 0.51842 0.08141 0.53193 0.0
H1969 H 0.49456 0.13195 0.58532 0.0
H1970 H 0.56445 0.1518 0.55206 0.0
H1971 H 0.5911 0.13731 0.5415 0.0
H1972 H 0.58131 0.09717 0.58169 0.0
H1973 H 0.55478 0.11157 0.59265 0.0
C1974 C 0.52664 0.21946 0.60314 0.0
C1975 C 0.53784 0.22422 0.62056 0.0
C1976 C 0.52485 0.20164 0.59371 0.0
C1977 C 0.53432 0.18835 0.60147 0.0
C1978 C 0.54639 0.19337 0.61821 0.0
C1979 C 0.54804 0.21111 0.62775 0.0
C1980 C 0.53015 0.16875 0.59332 0.0
C1981 C 0.54469 0.16009 0.58644 0.0
C1982 C 0.51189 0.15846 0.59296 0.0
C1983 C 0.49618 0.1666 0.60086 0.0
C1984 C 0.49748 0.17376 0.62016 0.0
C1985 C 0.48269 0.18157 0.62747 0.0
C1986 C 0.46644 0.18215 0.61567 0.0
C1987 C 0.46493 0.17487 0.59654 0.0
C1988 C 0.47971 0.16707 0.58914 0.0
C1989 C 0.50493 0.0799 0.57714 0.0
C1990 C 0.50754 0.07345 0.55833 0.0
C1991 C 0.51041 0.09852 0.58384 0.0
C1992 C 0.51865 0.11109 0.5719 0.0
C1993 C 0.52173 0.10466 0.55324 0.0
C1994 C 0.51627 0.08596 0.54651 0.0
C1995 C 0.52313 0.13103 0.57889 0.0
C1996 C 0.50858 0.13981 0.58557 0.0
C1997 C 0.54144 0.14129 0.5793 0.0
C1998 C 0.5575 0.13264 0.57301 0.0
C1999 C 0.56802 0.13992 0.55867 0.0
C2000 C 0.5831 0.13172 0.55262 0.0
C2001 C 0.58785 0.11629 0.56087 0.0
C2002 C 0.57757 0.10907 0.57525 0.0
C2003 C 0.56249 0.11723 0.58137 0.0
H2004 H 0.59951 0.10996 0.55615 0.0
H2005 H 0.45499 0.18819 0.62136 0.0
H2006 H 0.57271 0.75393 0.39219 0.0
H2007 H 0.60089 0.75445 0.37485 0.0
H2008 H 0.56648 0.748 0.32131 0.0
H2009 H 0.53832 0.74698 0.33848 0.0
H2010 H 0.59179 0.72635 0.31904 0.0
H2011 H 0.59221 0.78989 0.34069 0.0
H2012 H 0.59205 0.8174 0.36336 0.0
H2013 H 0.64382 0.80867 0.39236 0.0
H2014 H 0.6441 0.78088 0.37013 0.0
H2015 H 0.67335 0.75776 0.26682 0.0
H2016 H 0.64304 0.75774 0.28076 0.0
H2017 H 0.66758 0.74312 0.33365 0.0
H2018 H 0.69748 0.74267 0.31989 0.0
H2019 H 0.64655 0.77656 0.33371 0.0
H2020 H 0.64343 0.71095 0.3141 0.0
H2021 H 0.64425 0.68431 0.29048 0.0
H2022 H 0.59798 0.69877 0.25646 0.0
H2023 H 0.59711 0.72571 0.27977 0.0
C2024 C 0.57118 0.75261 0.37673 0.0
C2025 C 0.55333 0.75045 0.3667 0.0
C2026 C 0.58728 0.753 0.36684 0.0
C2027 C 0.5858 0.75152 0.34678 0.0
C2028 C 0.56796 0.74918 0.33678 0.0
C2029 C 0.55188 0.74864 0.34663 0.0
C2030 C 0.6028 0.75212 0.33616 0.0
C2031 C 0.60363 0.73751 0.32209 0.0
C2032 C 0.61836 0.76659 0.34022 0.0
C2033 C 0.61802 0.78311 0.35387 0.0
C2034 C 0.60343 0.79368 0.35205 0.0
C2035 C 0.60334 0.80936 0.36481 0.0
C2036 C 0.61787 0.81473 0.37934 0.0
C2037 C 0.63253 0.80445 0.38114 0.0
C2038 C 0.63265 0.78872 0.36848 0.0
C2039 C 0.67218 0.75448 0.28138 0.0
C2040 C 0.68767 0.75011 0.29225 0.0
C2041 C 0.65494 0.75442 0.28926 0.0
C2042 C 0.65322 0.75035 0.30815 0.0
C2043 C 0.66871 0.74621 0.31902 0.0
C2044 C 0.68573 0.7459 0.31109 0.0
C2045 C 0.63547 0.75083 0.317 0.0
C2046 C 0.63455 0.76561 0.33066 0.0
C2047 C 0.61986 0.73664 0.31254 0.0
C2048 C 0.62039 0.7205 0.29852 0.0
C2049 C 0.63359 0.70859 0.30146 0.0
C2050 C 0.63403 0.6934 0.28817 0.0
C2051 C 0.62122 0.68988 0.27194 0.0
C2052 C 0.60793 0.70154 0.26901 0.0
C2053 C 0.60745 0.71677 0.28226 0.0
H2054 H 0.62157 0.6781 0.26167 0.0
H2055 H 0.6178 0.8269 0.38917 0.0
H2056 H 0.0096 0.2283 0.45139 0.0
H2057 H 0.00208 0.20023 0.46739 0.0
H2058 H 0.99486 0.16718 0.41283 0.0
H2059 H 0.00166 0.19512 0.3968 0.0
H2060 H 0.96865 0.15451 0.43347 0.0
H2061 H 0.0361 0.17266 0.44451 0.0
H2062 H 0.06546 0.19379 0.45603 0.0
H2063 H 0.04836 0.19647 0.51305 0.0
H2064 H 0.01878 0.17551 0.5018 0.0
H2065 H 0.99008 0.06739 0.45278 0.0
H2066 H 0.98835 0.09817 0.44326 0.0
H2067 H 0.98648 0.11899 0.50208 0.0
H2068 H 0.98806 0.08796 0.51177 0.0
H2069 H 0.01389 0.13966 0.48383 0.0
H2070 H 0.94781 0.11772 0.47225 0.0
H2071 H 0.91864 0.0968 0.45967 0.0
H2072 H 0.93432 0.10026 0.40248 0.0
H2073 H 0.9636 0.12122 0.41471 0.0
C2074 C 0.0063 0.21504 0.44283 0.0
C2075 C 0.00628 0.21391 0.42284 0.0
C2076 C 0.0021 0.199 0.45199 0.0
C2077 C -0.00184 0.18153 0.44135 0.0
C2078 C -0.00218 0.18047 0.42137 0.0
C2079 C 0.00177 0.19647 0.41221 0.0
C2080 C 0.9947 0.16423 0.45082 0.0
C2081 C 0.97862 0.15124 0.44441 0.0
C2082 C 0.00737 0.16013 0.46551 0.0
C2083 C 0.02514 0.17271 0.47228 0.0
C2084 C 0.03854 0.17787 0.45947 0.0
C2085 C 0.05523 0.18979 0.46596 0.0
C2086 C 0.05875 0.19652 0.48525 0.0
C2087 C 0.0456 0.19128 0.4981 0.0
C2088 C 0.02888 0.17938 0.49169 0.0
C2089 C 0.98908 0.07845 0.46371 0.0
C2090 C 0.9893 0.07528 0.48305 0.0
C2091 C 0.98796 0.09602 0.45822 0.0
C2092 C 0.98716 0.11085 0.47195 0.0
C2093 C 0.987 0.1077 0.49126 0.0
C2094 C 0.98787 0.08999 0.49676 0.0
C2095 C 0.98814 0.1298 0.46607 0.0
C2096 C 0.00376 0.14309 0.47314 0.0
C2097 C 0.97519 0.13408 0.45179 0.0
C2098 C 0.95793 0.12098 0.44442 0.0
C2099 C 0.94511 0.1139 0.45701 0.0
C2100 C 0.92851 0.10212 0.44993 0.0
C2101 C 0.92461 0.09726 0.43028 0.0
C2102 C 0.93733 0.1041 0.41768 0.0
C2103 C 0.9539 0.11598 0.42467 0.0
H2104 H 0.91173 0.08816 0.42483 0.0
H2105 H 0.07168 0.20574 0.49024 0.0
H2106 H 0.55012 0.25654 0.18449 0.0
H2107 H 0.5809 0.25458 0.20012 0.0
H2108 H 0.60431 0.25384 0.14562 0.0
H2109 H 0.57333 0.2553 0.12978 0.0
H2110 H 0.61651 0.22865 0.16579 0.0
H2111 H 0.61183 0.293 0.17791 0.0
H2112 H 0.59737 0.31989 0.18895 0.0
H2113 H 0.59914 0.30353 0.24582 0.0
H2114 H 0.61339 0.27638 0.23505 0.0
H2115 H 0.71324 0.25768 0.19818 0.0
H2116 H 0.68092 0.25309 0.18364 0.0
H2117 H 0.66034 0.2475 0.23898 0.0
H2118 H 0.69274 0.252 0.25364 0.0
H2119 H 0.64612 0.27436 0.21964 0.0
H2120 H 0.65302 0.21096 0.20738 0.0
H2121 H 0.66773 0.18441 0.19587 0.0
H2122 H 0.66272 0.19979 0.13873 0.0
H2123 H 0.64822 0.22662 0.14994 0.0
C2124 C 0.56183 0.25606 0.17583 0.0
C2125 C 0.55934 0.25616 0.15591 0.0
C2126 C 0.57944 0.25498 0.1848 0.0
C2127 C 0.59496 0.25427 0.17407 0.0
C2128 C 0.59251 0.25436 0.15417 0.0
C2129 C 0.57485 0.25529 0.14515 0.0
C2130 C 0.61371 0.2533 0.18361 0.0
C2131 C 0.6231 0.23878 0.17741 0.0
C2132 C 0.62207 0.26623 0.19911 0.0
C2133 C 0.61349 0.28255 0.20562 0.0
C2134 C 0.60899 0.29505 0.19273 0.0
C2135 C 0.60086 0.31035 0.19895 0.0
C2136 C 0.59729 0.31339 0.21806 0.0
C2137 C 0.60189 0.30115 0.23101 0.0
C2138 C 0.61 0.2858 0.22486 0.0
C2139 C 0.70184 0.25508 0.20719 0.0
C2140 C 0.7055 0.25526 0.22702 0.0
C2141 C 0.68339 0.25239 0.19886 0.0
C2142 C 0.66828 0.24993 0.21025 0.0
C2143 C 0.67185 0.24936 0.22997 0.0
C2144 C 0.69035 0.25184 0.2383 0.0
C2145 C 0.64892 0.24978 0.20175 0.0
C2146 C 0.63946 0.26415 0.20811 0.0
C2147 C 0.6406 0.23682 0.18631 0.0
C2148 C 0.64963 0.22089 0.17954 0.0
C2149 C 0.65522 0.2088 0.19239 0.0
C2150 C 0.66347 0.19366 0.18591 0.0
C2151 C 0.6661 0.19039 0.16657 0.0
C2152 C 0.66059 0.20231 0.15369 0.0
C2153 C 0.65235 0.21748 0.1601 0.0
H2154 H 0.67242 0.17861 0.16157 0.0
H2155 H 0.591 0.32525 0.22285 0.0
H2156 H 0.55847 0.83823 0.90181 0.0
H2157 H 0.56076 0.86766 0.92159 0.0
H2158 H 0.52785 0.84022 0.96241 0.0
H2159 H 0.52597 0.81074 0.94305 0.0
H2160 H 0.53361 0.88499 0.92816 0.0
H2161 H 0.5356 0.86319 0.00606 0.0
H2162 H 0.55118 0.8423 0.02493 0.0
H2163 H 0.59482 0.84357 0.98673 0.0
H2164 H 0.57969 0.86468 0.96779 0.0
H2165 H 0.48786 0.94286 0.98297 0.0
H2166 H 0.49893 0.9154 0.9689 0.0
H2167 H 0.55291 0.9327 0.00109 0.0
H2168 H 0.54141 0.9599 0.016 0.0
H2169 H 0.5446 0.89671 -0.00129 0.0
H2170 H 0.54635 0.94055 0.95321 0.0
H2171 H 0.53469 0.96318 0.93358 0.0
H2172 H 0.49087 0.92105 0.90602 0.0
H2173 H 0.50216 0.89812 0.92554 0.0
C2174 C 0.55201 0.8384 0.91517 0.0
C2175 C 0.54189 0.82216 0.92077 0.0
C2176 C 0.55334 0.85524 0.92647 0.0
C2177 C 0.54454 0.85618 0.94354 0.0
C2178 C 0.53508 0.83984 0.94951 0.0
C2179 C 0.53389 0.82298 0.93832 0.0
C2180 C 0.54328 0.87437 0.95392 0.0
C2181 C 0.53622 0.8876 0.94356 0.0
C2182 C 0.54715 0.87805 0.97397 0.0
C2183 C 0.55641 0.86544 0.98541 0.0
C2184 C 0.54858 0.8591 0.00173 0.0
C2185 C 0.55732 0.8472 0.01243 0.0
C2186 C 0.57396 0.84158 0.00701 0.0
C2187 C 0.5819 0.84788 0.99088 0.0
C2188 C 0.57323 0.85979 0.98014 0.0
C2189 C 0.50201 0.94065 0.98722 0.0
C2190 C 0.51388 0.95347 0.00039 0.0
C2191 C 0.50837 0.92505 0.97909 0.0
C2192 C 0.52695 0.9223 0.98347 0.0
C2193 C 0.53857 0.93464 -0.00263 0.0
C2194 C 0.53202 0.95011 0.00589 0.0
C2195 C 0.53416 0.90682 0.97297 0.0
C2196 C 0.54232 0.89416 0.98328 0.0
C2197 C 0.5319 0.9039 0.95277 0.0
C2198 C 0.52507 0.91763 0.94092 0.0
C2199 C 0.53417 0.93612 0.94304 0.0
C2200 C 0.52764 0.94901 0.93192 0.0
C2201 C 0.51204 0.9436 0.91861 0.0
C2202 C 0.50296 0.92524 0.91634 0.0
C2203 C 0.50945 0.91227 0.92739 0.0
H2204 H 0.50702 0.95363 0.91005 0.0
H2205 H 0.5807 0.83236 0.01531 0.0
H2206 H 0.96399 0.75292 0.70695 0.0
H2207 H 0.93454 0.75836 0.71943 0.0
H2208 H 0.9107 0.76224 0.66235 0.0
H2209 H 0.94058 0.75758 0.64982 0.0
H2210 H 0.8993 0.78679 0.68608 0.0
H2211 H 0.90138 0.72201 0.68511 0.0
H2212 H 0.91474 0.69408 0.69173 0.0
H2213 H 0.91595 0.70945 0.752 0.0
H2214 H 0.90283 0.73762 0.74573 0.0
H2215 H 0.80301 0.76007 0.70279 0.0
H2216 H 0.83474 0.7647 0.69248 0.0
H2217 H 0.85794 0.76871 0.75104 0.0
H2218 H 0.82611 0.7641 0.76153 0.0
H2219 H 0.86994 0.74154 0.72746 0.0
H2220 H 0.86731 0.8068 0.7272 0.0
H2221 H 0.8532 0.83396 0.71927 0.0
H2222 H 0.8504 0.81537 0.65955 0.0
H2223 H 0.86482 0.78824 0.66714 0.0
C2224 C 0.9525 0.75498 0.69704 0.0
C2225 C 0.9545 0.75459 0.67737 0.0
C2226 C 0.93565 0.75804 0.7042 0.0
C2227 C 0.92025 0.76028 0.69179 0.0
C2228 C 0.92237 0.76046 0.67219 0.0
C2229 C 0.9394 0.75774 0.66503 0.0
C2230 C 0.90184 0.76186 0.69929 0.0
C2231 C 0.8928 0.77678 0.69497 0.0
C2232 C 0.89343 0.74897 0.71112 0.0
C2233 C 0.90131 0.73202 0.71495 0.0
C2234 C 0.90463 0.71951 0.69977 0.0
C2235 C 0.91214 0.70362 0.70346 0.0
C2236 C 0.91624 0.70002 0.72227 0.0
C2237 C 0.91279 0.71227 0.73744 0.0
C2238 C 0.90531 0.72819 0.73382 0.0
C2239 C 0.81486 0.76227 0.71352 0.0
C2240 C 0.8121 0.76152 0.73295 0.0
C2241 C 0.83299 0.76507 0.70761 0.0
C2242 C 0.84867 0.76706 0.721 0.0
C2243 C 0.84598 0.76724 0.74051 0.0
C2244 C 0.82782 0.76464 0.74647 0.0
C2245 C 0.86757 0.76653 0.71441 0.0
C2246 C 0.87659 0.75166 0.71876 0.0
C2247 C 0.87575 0.77926 0.70238 0.0
C2248 C 0.86702 0.79546 0.69774 0.0
C2249 C 0.86361 0.80847 0.71239 0.0
C2250 C 0.85563 0.82389 0.70795 0.0
C2251 C 0.85081 0.82634 0.68892 0.0
C2252 C 0.85413 0.81345 0.67428 0.0
C2253 C 0.86232 0.79812 0.67863 0.0
H2254 H 0.84452 0.83823 0.68553 0.0
H2255 H 0.92205 0.68771 0.7251 0.0
H2256 H 0.12525 0.00343 0.8412 0.0
H2257 H 0.11186 -0.00064 0.87175 0.0
H2258 H 0.05612 0.99691 0.84397 0.0
H2259 H 0.06948 0.00186 0.81382 0.0
H2260 H 0.05977 0.01966 0.8735 0.0
H2261 H 0.07374 0.95819 0.86176 0.0
H2262 H 0.09356 0.93438 0.85463 0.0
H2263 H 0.12946 0.9543 0.90583 0.0
H2264 H 0.10999 0.9784 0.91315 0.0
H2265 H 0.00761 0.99333 0.95058 0.0
H2266 H 0.02176 0.99171 0.92015 0.0
H2267 H 0.07709 0.0051 0.95009 0.0
H2268 H 0.06308 0.00689 0.98061 0.0
H2269 H 0.07399 0.97611 0.92016 0.0
H2270 H 0.06233 0.03985 0.92854 0.0
H2271 H 0.04408 0.06536 0.93361 0.0
H2272 H 0.0033 0.03989 0.88784 0.0
H2273 H 0.02159 0.01444 0.88224 0.0
C2274 C 0.11013 0.00182 0.84164 0.0
C2275 C 0.09841 0.00316 0.82521 0.0
C2276 C 0.10247 -0.00064 0.85907 0.0
C2277 C 0.08293 -0.00228 0.8602 0.0
C2278 C 0.07123 -0.00174 0.84355 0.0
C2279 C 0.07888 0.00111 0.8263 0.0
C2280 C 0.07464 0.99709 0.87886 0.0
C2281 C 0.06265 0.00983 0.88347 0.0
C2282 C 0.0788 0.98472 0.89225 0.0
C2283 C 0.09051 0.97022 0.8879 0.0
C2284 C 0.08595 0.95759 0.87143 0.0
C2285 C 0.0971 0.94402 0.86736 0.0
C2286 C 0.11279 0.94286 0.87974 0.0
C2287 C 0.11732 0.95523 0.89624 0.0
C2288 C 0.10622 0.96884 0.90036 0.0
C2289 C 0.02279 0.99577 0.95072 0.0
C2290 C 0.03422 0.00031 0.96801 0.0
C2291 C 0.03085 0.99493 0.93332 0.0
C2292 C 0.05046 -0.00156 0.93289 0.0
C2293 C 0.06193 0.00238 0.95013 0.0
C2294 C 0.05388 0.00344 0.96753 0.0
C2295 C 0.05897 -0.00156 0.91441 0.0
C2296 C 0.07105 0.98571 0.90996 0.0
C2297 C 0.05481 0.01067 0.90099 0.0
C2298 C 0.04317 0.0252 0.90514 0.0
C2299 C 0.04937 0.03962 0.91971 0.0
C2300 C 0.03911 0.05413 0.92255 0.0
C2301 C 0.0225 0.05421 0.91109 0.0
C2302 C 0.01615 0.0398 0.89671 0.0
C2303 C 0.0265 0.02539 0.89363 0.0
H2304 H 0.01456 0.06545 0.9133 0.0
H2305 H 0.12141 0.93235 0.87656 0.0
H2306 H 0.7747 0.36149 0.5759 0.0
H2307 H 0.78084 0.3429 0.60182 0.0
H2308 H 0.75934 0.29302 0.56474 0.0
H2309 H 0.75256 0.31165 0.53885 0.0
H2310 H 0.74388 0.29174 0.59641 0.0
H2311 H 0.80709 0.30472 0.58151 0.0
H2312 H 0.83648 0.3234 0.57406 0.0
H2313 H 0.84125 0.3547 0.62906 0.0
H2314 H 0.81173 0.33641 0.63675 0.0
H2315 H 0.76466 0.24469 0.67887 0.0
H2316 H 0.76895 0.25406 0.64667 0.0
H2317 H 0.77469 0.3114 0.66907 0.0
H2318 H 0.76991 0.30217 0.70095 0.0
H2319 H 0.80143 0.30253 0.64147 0.0
H2320 H 0.73456 0.2939 0.65185 0.0
H2321 H 0.70519 0.27528 0.65952 0.0
H2322 H 0.70834 0.23507 0.61229 0.0
H2323 H 0.73793 0.25335 0.60454 0.0
C2324 C 0.77154 0.34655 0.57317 0.0
C2325 C 0.76306 0.33803 0.55538 0.0
C2326 C 0.7752 0.33591 0.58797 0.0
C2327 C 0.77079 0.31652 0.58518 0.0
C2328 C 0.7629 0.30795 0.56721 0.0
C2329 C 0.75904 0.31861 0.55244 0.0
C2330 C 0.77269 0.30547 0.60158 0.0
C2331 C 0.75668 0.29371 0.60593 0.0
C2332 C 0.78929 0.30816 0.61419 0.0
C2333 C 0.8071 0.31923 0.60966 0.0
C2334 C 0.81432 0.31567 0.59197 0.0
C2335 C 0.83102 0.32618 0.58771 0.0
C2336 C 0.84071 0.34024 0.60107 0.0
C2337 C 0.83373 0.3438 0.61873 0.0
C2338 C 0.81702 0.33335 0.62306 0.0
C2339 C 0.76705 0.25927 0.67688 0.0
C2340 C 0.76678 0.27273 0.69224 0.0
C2341 C 0.76952 0.26458 0.65857 0.0
C2342 C 0.77216 0.2834 0.65563 0.0
C2343 C 0.77278 0.29683 0.67115 0.0
C2344 C 0.7699 0.29154 0.68927 0.0
C2345 C 0.77258 0.28934 0.63626 0.0
C2346 C 0.78894 0.30016 0.63149 0.0
C2347 C 0.75638 0.28575 0.6232 0.0
C2348 C 0.73857 0.27484 0.62779 0.0
C2349 C 0.72909 0.281 0.64322 0.0
C2350 C 0.71239 0.27053 0.64756 0.0
C2351 C 0.70494 0.25397 0.63644 0.0
C2352 C 0.71416 0.24787 0.62092 0.0
C2353 C 0.73089 0.25828 0.61655 0.0
H2354 H 0.692 0.24589 0.63981 0.0
H2355 H 0.85364 0.34836 0.59774 0.0
H2356 H 0.44077 0.05704 0.31818 0.0
H2357 H 0.45779 0.06339 0.35 0.0
H2358 H 0.41626 0.02324 0.37109 0.0
H2359 H 0.39855 0.01817 0.33972 0.0
H2360 H 0.42803 0.04701 0.39838 0.0
H2361 H 0.45983 0.01331 0.35236 0.0
H2362 H 0.47518 0.00827 0.32268 0.0
H2363 H 0.51639 0.05663 0.34008 0.0
H2364 H 0.50112 0.06206 0.36979 0.0
H2365 H 0.4754 0.00293 0.46358 0.0
H2366 H 0.46285 0.00966 0.43249 0.0
H2367 H 0.50289 0.06013 0.43683 0.0
H2368 H 0.51596 0.05318 0.46811 0.0
H2369 H 0.49477 0.03794 0.39836 0.0
H2370 H 0.4613 0.0668 0.44826 0.0
H2371 H 0.44671 0.06411 0.47857 0.0
H2372 H 0.40862 0.01601 0.45317 0.0
H2373 H 0.42284 0.0186 0.4226 0.0
C2374 C 0.43504 0.05012 0.32987 0.0
C2375 C 0.41844 0.03718 0.32672 0.0
C2376 C 0.44485 0.05355 0.34795 0.0
C2377 C 0.43869 0.04335 0.36284 0.0
C2378 C 0.42139 0.03128 0.35989 0.0
C2379 C 0.41125 0.02836 0.34199 0.0
C2380 C 0.45084 0.04383 0.38087 0.0
C2381 C 0.44264 0.04516 0.39826 0.0
C2382 C 0.47001 0.04147 0.38095 0.0
C2383 C 0.4792 0.03822 0.36314 0.0
C2384 C 0.47209 0.02292 0.34979 0.0
C2385 C 0.48078 0.01999 0.33297 0.0
C2386 C 0.49671 0.03216 0.32947 0.0
C2387 C 0.50402 0.04725 0.3428 0.0
C2388 C 0.49536 0.05026 0.35962 0.0
C2389 C 0.48173 0.01534 0.45783 0.0
C2390 C 0.49644 0.0277 0.46831 0.0
C2391 C 0.47457 0.01914 0.44007 0.0
C2392 C 0.48172 0.03556 0.43264 0.0
C2393 C 0.49718 0.04743 0.44247 0.0
C2394 C 0.50459 0.04347 0.46025 0.0
C2395 C 0.47175 0.04073 0.41543 0.0
C2396 C 0.48035 0.04045 0.39833 0.0
C2397 C 0.45279 0.04338 0.41546 0.0
C2398 C 0.44305 0.04296 0.43318 0.0
C2399 C 0.44969 0.05576 0.44912 0.0
C2400 C 0.44155 0.05419 0.46636 0.0
C2401 C 0.42683 0.0398 0.46783 0.0
C2402 C 0.42008 0.02709 0.45201 0.0
C2403 C 0.42802 0.02873 0.43467 0.0
H2404 H 0.42044 0.03861 0.4811 0.0
H2405 H 0.50342 0.02987 0.31644 0.0
H2406 H 0.73997 0.63307 0.07368 0.0
H2407 H 0.73954 0.65303 0.10296 0.0
H2408 H 0.76229 0.70053 0.07547 0.0
H2409 H 0.76317 0.68043 0.04595 0.0
H2410 H 0.77951 0.70164 0.11038 0.0
H2411 H 0.71617 0.69416 0.08487 0.0
H2412 H 0.68554 0.67778 0.06986 0.0
H2413 H 0.67848 0.64677 0.11821 0.0
H2414 H 0.70919 0.66275 0.13341 0.0
H2415 H 0.76451 0.75273 0.19845 0.0
H2416 H 0.75897 0.74282 0.16404 0.0
H2417 H 0.74765 0.68586 0.17595 0.0
H2418 H 0.75353 0.6956 0.21018 0.0
H2419 H 0.72246 0.69644 0.14593 0.0
H2420 H 0.78926 0.7009 0.16748 0.0
H2421 H 0.81938 0.71847 0.18258 0.0
H2422 H 0.81878 0.75731 0.14074 0.0
H2423 H 0.78846 0.74012 0.12559 0.0
C2424 C 0.74484 0.64776 0.07375 0.0
C2425 C 0.75152 0.65515 0.0574 0.0
C2426 C 0.74447 0.6592 0.09051 0.0
C2427 C 0.75052 0.67834 0.09131 0.0
C2428 C 0.75743 0.68581 0.07512 0.0
C2429 C 0.7579 0.67431 0.05827 0.0
C2430 C 0.75007 0.69021 0.10937 0.0
C2431 C 0.76691 0.70087 0.11792 0.0
C2432 C 0.73363 0.68924 0.11926 0.0
C2433 C 0.71506 0.67962 0.11025 0.0
C2434 C 0.70815 0.68377 0.09226 0.0
C2435 C 0.69076 0.67456 0.08372 0.0
C2436 C 0.68008 0.66123 0.09306 0.0
C2437 C 0.68676 0.6571 0.11099 0.0
C2438 C 0.70415 0.66626 0.11959 0.0
C2439 C 0.76048 0.73814 0.19369 0.0
C2440 C 0.75954 0.72488 0.20688 0.0
C2441 C 0.75739 0.73252 0.17409 0.0
C2442 C 0.75299 0.71364 0.16755 0.0
C2443 C 0.751 0.7005 0.18077 0.0
C2444 C 0.75444 0.70606 0.20028 0.0
C2445 C 0.75196 0.7072 0.14702 0.0
C2446 C 0.73487 0.69756 0.13808 0.0
C2447 C 0.76807 0.70931 0.13671 0.0
C2448 C 0.7865 0.71936 0.14555 0.0
C2449 C 0.79548 0.71326 0.16159 0.0
C2450 C 0.81259 0.72314 0.17014 0.0
C2451 C 0.82096 0.73903 0.16266 0.0
C2452 C 0.81226 0.74502 0.14655 0.0
C2453 C 0.79512 0.73522 0.13797 0.0
H2454 H 0.8342 0.74667 0.16931 0.0
H2455 H 0.66662 0.65411 0.08642 0.0
H2456 H 0.0881 -0.00081 0.72554 0.0
H2457 H 0.07356 0.00208 0.69389 0.0
H2458 H 0.12804 0.00781 0.67178 0.0
H2459 H 0.14278 0.00546 0.70364 0.0
H2460 H 0.10852 0.03217 0.65832 0.0
H2461 H 0.09641 0.96701 0.66323 0.0
H2462 H 0.08535 0.93852 0.67778 0.0
H2463 H 0.02922 0.95127 0.67495 0.0
H2464 H 0.04 0.97998 0.6606 0.0
H2465 H 0.07568 0.00812 0.5596 0.0
H2466 H 0.0906 0.01134 0.59217 0.0
H2467 H 0.03652 0.01176 0.6142 0.0
H2468 H 0.02151 0.00874 0.5816 0.0
H2469 H 0.05556 0.98518 0.62782 0.0
H2470 H 0.06831 0.04993 0.62069 0.0
H2471 H 0.08019 0.07783 0.60559 0.0
H2472 H 0.13617 0.06488 0.61141 0.0
H2473 H 0.12458 0.0367 0.62625 0.0
C2474 C 0.09699 0.00096 0.71393 0.0
C2475 C 0.11658 0.002 0.71705 0.0
C2476 C 0.08865 0.00257 0.69582 0.0
C2477 C 0.09967 0.00493 0.68039 0.0
C2478 C 0.11925 0.00599 0.68348 0.0
C2479 C 0.12764 0.00455 0.70165 0.0
C2480 C 0.09074 0.00637 0.66108 0.0
C2481 C 0.0971 0.02178 0.65153 0.0
C2482 C 0.07558 0.993 0.65239 0.0
C2483 C 0.06906 0.97574 0.66102 0.0
C2484 C 0.08174 0.96382 0.66585 0.0
C2485 C 0.07552 0.94762 0.67404 0.0
C2486 C 0.05661 0.94312 0.67734 0.0
C2487 C 0.04387 0.95479 0.67241 0.0
C2488 C 0.05002 0.97102 0.66424 0.0
C2489 C 0.06703 0.00932 0.57137 0.0
C2490 C 0.04743 0.00812 0.56804 0.0
C2491 C 0.07558 0.01119 0.58998 0.0
C2492 C 0.06465 0.01177 0.60558 0.0
C2493 C 0.04518 0.01134 0.60232 0.0
C2494 C 0.03664 0.00967 0.5837 0.0
C2495 C 0.07329 0.01099 0.6251 0.0
C2496 C 0.06692 0.99563 0.63466 0.0
C2497 C 0.08856 0.02428 0.63364 0.0
C2498 C 0.09553 0.0411 0.62446 0.0
C2499 C 0.08312 0.05291 0.61858 0.0
C2500 C 0.08981 0.06881 0.61011 0.0
C2501 C 0.10892 0.07314 0.60758 0.0
C2502 C 0.12137 0.06154 0.61343 0.0
C2503 C 0.11475 0.04559 0.62187 0.0
H2504 H 0.11408 0.08548 0.60105 0.0
H2505 H 0.05182 0.93056 0.68367 0.0
H2506 H 0.71183 0.32142 0.4691 0.0
H2507 H 0.70707 0.29803 0.44151 0.0
H2508 H 0.71223 0.34126 0.40383 0.0
H2509 H 0.71599 0.36458 0.43125 0.0
H2510 H 0.69044 0.31244 0.38616 0.0
H2511 H 0.75141 0.3237 0.42292 0.0
H2512 H 0.77269 0.325 0.45217 0.0
H2513 H 0.75387 0.26725 0.456 0.0
H2514 H 0.73232 0.26568 0.42686 0.0
H2515 H 0.76552 0.28348 0.32858 0.0
H2516 H 0.75449 0.2937 0.35894 0.0
H2517 H 0.70251 0.25566 0.34516 0.0
H2518 H 0.71375 0.24504 0.31462 0.0
H2519 H 0.74236 0.27544 0.38979 0.0
H2520 H 0.66809 0.285 0.36035 0.0
H2521 H 0.65104 0.28885 0.32972 0.0
H2522 H 0.70296 0.31194 0.30888 0.0
H2523 H 0.72015 0.30863 0.33937 0.0
C2524 C 0.71141 0.32588 0.45489 0.0
C2525 C 0.71464 0.34478 0.45228 0.0
C2526 C 0.7087 0.31252 0.43916 0.0
C2527 C 0.70984 0.3179 0.42065 0.0
C2528 C 0.71137 0.33675 0.41798 0.0
C2529 C 0.71362 0.3501 0.43368 0.0
C2530 C 0.71238 0.30447 0.40446 0.0
C2531 C 0.70151 0.30403 0.38705 0.0
C2532 C 0.72709 0.29375 0.4055 0.0
C2533 C 0.74011 0.29463 0.4229 0.0
C2534 C 0.75176 0.31131 0.43007 0.0
C2535 C 0.76386 0.3121 0.44662 0.0
C2536 C 0.76458 0.29623 0.45597 0.0
C2537 C 0.75325 0.27954 0.44876 0.0
C2538 C 0.74109 0.27869 0.43224 0.0
C2539 C 0.75184 0.27711 0.33212 0.0
C2540 C 0.74039 0.26359 0.31929 0.0
C2541 C 0.74562 0.28285 0.3495 0.0
C2542 C 0.7277 0.27544 0.3542 0.0
C2543 C 0.7164 0.26149 0.34171 0.0
C2544 C 0.72281 0.25545 0.32437 0.0
C2545 C 0.72062 0.28367 0.37152 0.0
C2546 C 0.73071 0.28316 0.38912 0.0
C2547 C 0.70571 0.29407 0.37045 0.0
C2548 C 0.69545 0.29615 0.352 0.0
C2549 C 0.67584 0.29086 0.34918 0.0
C2550 C 0.66614 0.293 0.33184 0.0
C2551 C 0.67592 0.30048 0.31726 0.0
C2552 C 0.6954 0.30591 0.32002 0.0
C2553 C 0.70513 0.3039 0.33734 0.0
H2554 H 0.6684 0.30218 0.30387 0.0
H2555 H 0.77395 0.29687 0.46878 0.0
H2556 H 0.42196 0.0202 0.23175 0.0
H2557 H 0.4366 0.01237 0.20278 0.0
H2558 H 0.38243 0.0039 0.1703 0.0
H2559 H 0.36751 0.01096 0.19959 0.0
H2560 H 0.40102 0.97775 0.15929 0.0
H2561 H 0.41604 0.04391 0.16978 0.0
H2562 H 0.42827 0.07413 0.18797 0.0
H2563 H 0.48323 0.05884 0.19476 0.0
H2564 H 0.47126 0.02841 0.17681 0.0
H2565 H 0.43146 0.99079 0.06753 0.0
H2566 H 0.41819 0.99132 0.09829 0.0
H2567 H 0.47299 0.99046 0.12662 0.0
H2568 H 0.48643 0.98976 0.09565 0.0
H2569 H 0.45566 0.01969 0.14061 0.0
H2570 H 0.43993 0.95369 0.12798 0.0
H2571 H 0.42674 0.92385 0.10949 0.0
H2572 H 0.37215 0.94021 0.10507 0.0
H2573 H 0.38501 0.97016 0.12355 0.0
C2574 C 0.41315 0.01675 0.21843 0.0
C2575 C 0.3936 0.01631 0.21788 0.0
C2576 C 0.42156 0.01233 0.20185 0.0
C2577 C 0.41068 0.00787 0.18429 0.0
C2578 C 0.39111 0.00734 0.1837 0.0
C2579 C 0.38261 0.01145 0.20039 0.0
C2580 C 0.41974 0.00362 0.1666 0.0
C2581 C 0.41282 0.98704 0.15509 0.0
C2582 C 0.43547 0.0155 0.16136 0.0
C2583 C 0.44271 0.03381 0.17212 0.0
C2584 C 0.4307 0.04694 0.17527 0.0
C2585 C 0.43759 0.06411 0.18552 0.0
C2586 C 0.4565 0.06838 0.19256 0.0
C2587 C 0.46858 0.0555 0.18932 0.0
C2588 C 0.46175 0.0383 0.1791 0.0
C2589 C 0.44066 0.99042 0.08027 0.0
C2590 C 0.46001 0.99039 0.07926 0.0
C2591 C 0.43302 0.99059 0.09782 0.0
C2592 C 0.4446 0.99087 0.11469 0.0
C2593 C 0.46383 0.99018 0.1137 0.0
C2594 C 0.47147 0.98974 0.09605 0.0
C2595 C 0.43686 0.99391 0.13331 0.0
C2596 C 0.44398 0.01034 0.14494 0.0
C2597 C 0.42117 0.98203 0.13849 0.0
C2598 C 0.41346 0.9642 0.12706 0.0
C2599 C 0.42514 0.95098 0.12295 0.0
C2600 C 0.4177 0.93401 0.11255 0.0
C2601 C 0.39861 0.93014 0.10613 0.0
C2602 C 0.38692 0.94322 0.11009 0.0
C2603 C 0.39426 0.96016 0.12058 0.0
H2604 H 0.39289 0.917 0.09806 0.0
H2605 H 0.46181 0.08169 0.20049 0.0
H2606 H 0.7692 0.64525 0.92642 0.0
H2607 H 0.77478 0.66465 0.90062 0.0
H2608 H 0.79315 0.71233 0.94173 0.0
H2609 H 0.78658 0.693 0.96772 0.0
H2610 H 0.77074 0.72118 0.91532 0.0
H2611 H 0.82524 0.69076 0.91276 0.0
H2612 H 0.84194 0.66384 0.91174 0.0
H2613 H 0.80895 0.64038 0.85972 0.0
H2614 H 0.79224 0.66716 0.86036 0.0
H2615 H 0.78971 0.77203 0.83461 0.0
H2616 H 0.79601 0.75835 0.86448 0.0
H2617 H 0.77198 0.70432 0.83669 0.0
H2618 H 0.76582 0.7177 0.8071 0.0
H2619 H 0.80347 0.70286 0.859 0.0
H2620 H 0.74624 0.72937 0.86374 0.0
H2621 H 0.72762 0.75484 0.86404 0.0
H2622 H 0.76387 0.78428 0.91153 0.0
H2623 H 0.78286 0.75906 0.91133 0.0
C2624 C 0.77465 0.65982 0.92999 0.0
C2625 C 0.77752 0.66759 0.9491 0.0
C2626 C 0.77799 0.67091 0.9152 0.0
C2627 C 0.78483 0.68994 0.91916 0.0
C2628 C 0.78799 0.69769 0.93828 0.0
C2629 C 0.78428 0.68663 0.95312 0.0
C2630 C 0.7874 0.70182 0.90327 0.0
C2631 C 0.77834 0.71743 0.90324 0.0
C2632 C 0.79701 0.69683 0.88729 0.0
C2633 C 0.80748 0.68096 0.88663 0.0
C2634 C 0.8216 0.67986 0.9011 0.0
C2635 C 0.8311 0.66464 0.90056 0.0
C2636 C 0.82659 0.65043 0.88563 0.0
C2637 C 0.8126 0.65144 0.87119 0.0
C2638 C 0.80316 0.66668 0.87159 0.0
C2639 C 0.78596 0.75723 0.83488 0.0
C2640 C 0.7771 0.74598 0.81857 0.0
C2641 C 0.78951 0.74945 0.85193 0.0
C2642 C 0.78432 0.73034 0.85282 0.0
C2643 C 0.77612 0.71908 0.83634 0.0
C2644 C 0.77249 0.7268 0.81945 0.0
C2645 C 0.78646 0.72185 0.87096 0.0
C2646 C 0.79638 0.70689 0.87137 0.0
C2647 C 0.77753 0.72735 0.8872 0.0
C2648 C 0.76611 0.74246 0.88736 0.0
C2649 C 0.75033 0.74135 0.87414 0.0
C2650 C 0.73969 0.75572 0.87431 0.0
C2651 C 0.7446 0.7712 0.88775 0.0
C2652 C 0.76012 0.77231 0.90109 0.0
C2653 C 0.77082 0.75798 0.90096 0.0
H2654 H 0.73634 0.78231 0.88787 0.0
H2655 H 0.8339 0.63862 0.88528 0.0
H2656 H 0.79745 0.05839 0.02232 0.0
H2657 H 0.82336 0.04425 0.01049 0.0
H2658 H 0.85184 0.09801 0.00016 0.0
H2659 H 0.82529 0.11207 0.01097 0.0
H2660 H 0.85814 0.07429 0.97344 0.0
H2661 H 0.86222 0.07626 0.0416 0.0
H2662 H 0.85151 0.0707 0.07325 0.0
H2663 H 0.84305 0.01205 0.05738 0.0
H2664 H 0.85349 0.01728 0.02553 0.0
H2665 H 0.95319 0.06402 0.99519 0.0
H2666 H 0.92133 0.07121 0.99175 0.0
H2667 H 0.89891 0.01292 0.98451 0.0
H2668 H 0.93105 0.00559 0.98751 0.0
H2669 H 0.8873 0.03469 0.0163 0.0
H2670 H 0.88983 0.03547 0.94877 0.0
H2671 H 0.90397 0.0441 0.91947 0.0
H2672 H 0.90452 0.10157 0.93746 0.0
H2673 H 0.89052 0.09331 0.96695 0.0
C2674 C 0.8092 0.06717 0.01742 0.0
C2675 C 0.80953 0.08635 0.01779 0.0
C2676 C 0.82403 0.05908 0.01071 0.0
C2677 C 0.8398 0.0701 0.00488 0.0
C2678 C 0.83986 0.08922 0.00464 0.0
C2679 C 0.82476 0.09726 0.0109 0.0
C2680 C 0.85655 0.06183 -0.0001 0.0
C2681 C 0.86455 0.0657 0.98287 0.0
C2682 C 0.86481 0.05036 0.01202 0.0
C2683 C 0.85839 0.04717 0.03111 0.0
C2684 C 0.85791 0.06219 0.04481 0.0
C2685 C 0.85192 0.05909 0.06279 0.0
C2686 C 0.84654 0.04104 0.0673 0.0
C2687 C 0.84718 0.02603 0.05385 0.0
C2688 C 0.85313 0.02905 0.03583 0.0
C2689 C 0.94148 0.05273 0.99236 0.0
C2690 C 0.94447 0.03427 0.99171 0.0
C2691 C 0.92332 0.05685 0.99027 0.0
C2692 C 0.90783 0.04259 0.98783 0.0
C2693 C 0.91076 0.02408 0.98623 0.0
C2694 C 0.92905 0.01992 0.9879 0.0
C2695 C 0.8889 0.04729 0.99002 0.0
C2696 C 0.88057 0.04289 0.00666 0.0
C2697 C 0.88077 0.05872 0.97787 0.0
C2698 C 0.88914 0.06376 0.96011 0.0
C2699 C 0.89305 0.04996 0.94653 0.0
C2700 C 0.90099 0.05478 0.92986 0.0
C2701 C 0.90508 0.07336 0.92658 0.0
C2702 C 0.90127 0.08717 0.93998 0.0
C2703 C 0.89328 0.08242 0.95666 0.0
H2704 H 0.91126 0.07707 0.91368 0.0
H2705 H 0.84192 0.03867 0.08123 0.0
H2706 H 0.30515 0.45122 0.04385 0.0
H2707 H 0.33814 0.46549 0.04946 0.0
H2708 H 0.35491 0.41173 0.0399 0.0
H2709 H 0.32172 0.39729 0.03537 0.0
H2710 H 0.37939 0.43248 0.06507 0.0
H2711 H 0.35172 0.44006 0.00348 0.0
H2712 H 0.3285 0.44863 0.97993 0.0
H2713 H 0.34138 0.50531 0.00416 0.0
H2714 H 0.36451 0.49701 0.02805 0.0
H2715 H 0.46551 0.46197 0.02468 0.0
H2716 H 0.43434 0.44815 0.03212 0.0
H2717 H 0.42232 0.50228 0.05083 0.0
H2718 H 0.45361 0.51631 0.04337 0.0
H2719 H 0.39595 0.48205 0.02313 0.0
H2720 H 0.42782 0.47214 0.08289 0.0
H2721 H 0.45258 0.46106 0.10258 0.0
H2722 H 0.43351 0.40546 0.077 0.0
H2723 H 0.40878 0.41625 0.05696 0.0
C2724 C 0.31589 0.44244 0.04333 0.0
C2725 C 0.311 0.42322 0.03894 0.0
C2726 C 0.33472 0.45059 0.04646 0.0
C2727 C 0.34901 0.43975 0.04451 0.0
C2728 C 0.34413 0.42039 0.04134 0.0
C2729 C 0.3252 0.41216 0.03872 0.0
C2730 C 0.36878 0.44876 0.0441 0.0
C2731 C 0.38303 0.44324 0.05583 0.0
C2732 C 0.37358 0.46282 0.03203 0.0
C2733 C 0.35968 0.46787 0.01769 0.0
C2734 C 0.34949 0.45432 0.00388 0.0
C2735 C 0.33636 0.45914 0.99046 0.0
C2736 C 0.33343 0.47749 0.99058 0.0
C2737 C 0.34365 0.49108 0.00411 0.0
C2738 C 0.35677 0.48634 0.01759 0.0
C2739 C 0.45633 0.47094 0.03059 0.0
C2740 C 0.46191 0.49024 0.03329 0.0
C2741 C 0.43858 0.46299 0.03498 0.0
C2742 C 0.42611 0.47419 0.04214 0.0
C2743 C 0.43184 0.49342 0.0454 0.0
C2744 C 0.44968 0.5014 0.04115 0.0
C2745 C 0.40648 0.46599 0.04427 0.0
C2746 C 0.39226 0.47153 0.03264 0.0
C2747 C 0.4019 0.4516 0.05596 0.0
C2748 C 0.41651 0.44503 0.06833 0.0
C2749 C 0.42896 0.45757 0.08138 0.0
C2750 C 0.44299 0.45133 0.09262 0.0
C2751 C 0.44464 0.43258 0.09101 0.0
C2752 C 0.43221 0.41999 0.07823 0.0
C2753 C 0.41817 0.42615 0.06695 0.0
H2754 H 0.45553 0.42779 0.09969 0.0
H2755 H 0.32326 0.48119 0.98018 0.0
H2756 H 0.32424 0.54286 0.74263 0.0
H2757 H 0.30633 0.56845 0.74605 0.0
H2758 H 0.35357 0.60203 0.7799 0.0
H2759 H 0.37168 0.5766 0.77633 0.0
H2760 H 0.29475 0.58952 0.77533 0.0
H2761 H 0.35771 0.64552 0.76609 0.0
H2762 H 0.38809 0.64838 0.75185 0.0
H2763 H 0.36675 0.60124 0.71147 0.0
H2764 H 0.33618 0.59827 0.72529 0.0
H2765 H 0.27267 0.68215 0.79103 0.0
H2766 H 0.28515 0.65298 0.79194 0.0
H2767 H 0.29077 0.65107 0.7314 0.0
H2768 H 0.27854 0.68012 0.73046 0.0
H2769 H 0.32267 0.64728 0.74992 0.0
H2770 H 0.25769 0.62065 0.74985 0.0
H2771 H 0.22607 0.61698 0.76141 0.0
H2772 H 0.24888 0.604 0.81551 0.0
H2773 H 0.28069 0.60785 0.80436 0.0
C2774 C 0.33076 0.55562 0.75098 0.0
C2775 C 0.34947 0.55779 0.75901 0.0
C2776 C 0.32046 0.57019 0.753 0.0
C2777 C 0.32869 0.5872 0.76302 0.0
C2778 C 0.34703 0.58909 0.77189 0.0
C2779 C 0.35735 0.57454 0.76985 0.0
C2780 C 0.31866 0.60336 0.76288 0.0
C2781 C 0.30086 0.6022 0.76987 0.0
C2782 C 0.32651 0.61978 0.75546 0.0
C2783 C 0.34475 0.62156 0.74688 0.0
C2784 C 0.3595 0.63581 0.75414 0.0
C2785 C 0.37674 0.63744 0.74614 0.0
C2786 C 0.37937 0.62496 0.73081 0.0
C2787 C 0.36472 0.61086 0.72339 0.0
C2788 C 0.34744 0.60918 0.73131 0.0
C2789 C 0.2762 0.67527 0.77787 0.0
C2790 C 0.27483 0.68349 0.76071 0.0
C2791 C 0.28333 0.65863 0.7784 0.0
C2792 C 0.28899 0.6499 0.76174 0.0
C2793 C 0.28666 0.65764 0.74445 0.0
C2794 C 0.27965 0.67424 0.74394 0.0
C2795 C 0.29869 0.63354 0.7624 0.0
C2796 C 0.31654 0.63468 0.75553 0.0
C2797 C 0.2907 0.61706 0.76961 0.0
C2798 C 0.2716 0.61473 0.77634 0.0
C2799 C 0.25599 0.61717 0.76427 0.0
C2800 C 0.23803 0.61503 0.77074 0.0
C2801 C 0.23548 0.61031 0.7892 0.0
C2802 C 0.25088 0.60768 0.80122 0.0
C2803 C 0.26887 0.60983 0.79483 0.0
H2804 H 0.22156 0.60865 0.79418 0.0
H2805 H 0.39273 0.62624 0.72466 0.0
H2806 H 0.20063 0.64195 0.52892 0.0
H2807 H 0.16787 0.62907 0.53236 0.0
H2808 H 0.18354 0.57504 0.53592 0.0
H2809 H 0.21605 0.58768 0.53182 0.0
H2810 H 0.15449 0.57242 0.51183 0.0
H2811 H 0.17134 0.60173 0.57539 0.0
H2812 H 0.18381 0.62737 0.60018 0.0
H2813 H 0.14132 0.65813 0.58099 0.0
H2814 H 0.12876 0.63278 0.55588 0.0
H2815 H 0.0669 0.52783 0.53234 0.0
H2816 H 0.09969 0.54231 0.54 0.0
H2817 H 0.08539 0.59485 0.52674 0.0
H2818 H 0.05256 0.58055 0.51908 0.0
H2819 H 0.11364 0.59779 0.5576 0.0
H2820 H 0.09876 0.56893 0.49262 0.0
H2821 H 0.08669 0.54311 0.46787 0.0
H2822 H 0.12633 0.51103 0.49072 0.0
H2823 H 0.13844 0.53658 0.51579 0.0
C2824 C 0.19706 0.62736 0.53055 0.0
C2825 C 0.21082 0.61578 0.52997 0.0
C2826 C 0.17838 0.62004 0.53266 0.0
C2827 C 0.17328 0.60111 0.53458 0.0
C2828 C 0.18714 0.58967 0.53442 0.0
C2829 C 0.20571 0.59691 0.53206 0.0
C2830 C 0.15335 0.59289 0.53543 0.0
C2831 C 0.14571 0.57779 0.5221 0.0
C2832 C 0.14172 0.60015 0.54852 0.0
C2833 C 0.14921 0.61541 0.56363 0.0
C2834 C 0.16474 0.61402 0.57635 0.0
C2835 C 0.17181 0.62849 0.59048 0.0
C2836 C 0.16339 0.64439 0.59212 0.0
C2837 C 0.14785 0.64582 0.57968 0.0
C2838 C 0.14073 0.63139 0.56551 0.0
C2839 C 0.07063 0.54255 0.53147 0.0
C2840 C 0.05723 0.55299 0.52475 0.0
C2841 C 0.08936 0.55079 0.53586 0.0
C2842 C 0.09492 0.56954 0.53361 0.0
C2843 C 0.08133 0.58033 0.52848 0.0
C2844 C 0.06261 0.5721 0.524 0.0
C2845 C 0.11507 0.57731 0.53418 0.0
C2846 C 0.12262 0.59236 0.54757 0.0
C2847 C 0.12672 0.56997 0.52124 0.0
C2848 C 0.11937 0.55459 0.5062 0.0
C2849 C 0.10478 0.5563 0.49247 0.0
C2850 C 0.09795 0.54173 0.47837 0.0
C2851 C 0.10573 0.52543 0.47775 0.0
C2852 C 0.12032 0.52366 0.49124 0.0
C2853 C 0.12717 0.53818 0.50539 0.0
H2854 H 0.10053 0.51419 0.46676 0.0
H2855 H 0.16889 0.65558 0.60307 0.0
H2856 H 0.69605 0.96754 0.76045 0.0
H2857 H 0.71973 0.94828 0.76833 0.0
H2858 H 0.67845 0.91183 0.79401 0.0
H2859 H 0.65465 0.931 0.78617 0.0
H2860 H 0.71442 0.91861 0.81469 0.0
H2861 H 0.68615 0.9007 0.74984 0.0
H2862 H 0.67708 0.90649 0.71683 0.0
H2863 H 0.73495 0.92523 0.70871 0.0
H2864 H 0.74433 0.91978 0.74179 0.0
H2865 H 0.74077 0.8303 0.80631 0.0
H2866 H 0.72766 0.85887 0.80773 0.0
H2867 H 0.77083 0.88298 0.77421 0.0
H2868 H 0.78372 0.85403 0.77217 0.0
H2869 H 0.73838 0.88668 0.75886 0.0
H2870 H 0.76746 0.89981 0.82206 0.0
H2871 H 0.77673 0.89394 0.85496 0.0
H2872 H 0.71876 0.88469 0.86671 0.0
H2873 H 0.70909 0.89024 0.83379 0.0
C2874 C 0.69206 0.95556 0.768 0.0
C2875 C 0.67343 0.95067 0.77252 0.0
C2876 C 0.70561 0.94459 0.77248 0.0
C2877 C 0.70077 0.92858 0.7816 0.0
C2878 C 0.68244 0.92416 0.78699 0.0
C2879 C 0.66885 0.93506 0.78241 0.0
C2880 C 0.7143 0.91558 0.78409 0.0
C2881 C 0.71966 0.91154 0.80254 0.0
C2882 C 0.72154 0.90684 0.76823 0.0
C2883 C 0.71591 0.91006 0.74834 0.0
C2884 C 0.69692 0.90621 0.74106 0.0
C2885 C 0.69172 0.9094 0.72234 0.0
C2886 C 0.70542 0.91628 0.7107 0.0
C2887 C 0.72435 0.91994 0.71776 0.0
C2888 C 0.72961 0.9168 0.73648 0.0
C2889 C 0.74778 0.84179 0.79959 0.0
C2890 C 0.76321 0.83982 0.78897 0.0
C2891 C 0.74031 0.85823 0.80053 0.0
C2892 C 0.74831 0.87318 0.79119 0.0
C2893 C 0.76441 0.87163 0.78153 0.0
C2894 C 0.77179 0.85509 0.78041 0.0
C2895 C 0.73844 0.88935 0.78955 0.0
C2896 C 0.73361 0.89397 0.77117 0.0
C2897 C 0.73182 0.89866 0.80552 0.0
C2898 C 0.73755 0.89535 0.82539 0.0
C2899 C 0.75667 0.8964 0.83161 0.0
C2900 C 0.762 0.89315 0.85028 0.0
C2901 C 0.74834 0.88892 0.86291 0.0
C2902 C 0.72932 0.88797 0.85691 0.0
C2903 C 0.72391 0.8912 0.83825 0.0
H2904 H 0.7525 0.8864 0.87736 0.0
H2905 H 0.70138 0.91874 0.69621 0.0
H2906 H 0.67442 0.8844 0.53776 0.0
H2907 H 0.64778 0.90111 0.53324 0.0
H2908 H 0.68592 0.94969 0.52286 0.0
H2909 H 0.71243 0.93342 0.52818 0.0
H2910 H 0.66288 0.95983 0.54535 0.0
H2911 H 0.65614 0.92089 0.48667 0.0
H2912 H 0.65287 0.89195 0.46526 0.0
H2913 H 0.60116 0.87165 0.48823 0.0
H2914 H 0.60427 0.90034 0.51001 0.0
H2915 H 0.58692 0.00484 0.50764 0.0
H2916 H 0.61461 0.98902 0.50781 0.0
H2917 H 0.58626 0.947 0.53908 0.0
H2918 H 0.55894 0.96265 0.53929 0.0
H2919 H 0.6046 0.93478 0.50367 0.0
H2920 H 0.6145 0.97369 0.56447 0.0
H2921 H 0.61772 0.00374 0.58402 0.0
H2922 H 0.66416 0.02529 0.55358 0.0
H2923 H 0.66101 0.99541 0.53364 0.0
C2924 C 0.67704 0.89863 0.53447 0.0
C2925 C 0.69546 0.90764 0.53341 0.0
C2926 C 0.66183 0.90813 0.53175 0.0
C2927 C 0.66482 0.92663 0.52749 0.0
C2928 C 0.68324 0.93548 0.5262 0.0
C2929 C 0.69839 0.92613 0.52923 0.0
C2930 C 0.64894 0.93712 0.52521 0.0
C2931 C 0.6503 0.95442 0.53594 0.0
C2932 C 0.63239 0.93008 0.5131 0.0
C2933 C 0.63057 0.9127 0.50015 0.0
C2934 C 0.64417 0.91018 0.48731 0.0
C2935 C 0.64233 0.89383 0.47507 0.0
C2936 C 0.62685 0.87994 0.47543 0.0
C2937 C 0.61317 0.8824 0.488 0.0
C2938 C 0.61496 0.8987 0.50029 0.0
C2939 C 0.58666 0.99226 0.51457 0.0
C2940 C 0.57077 0.98499 0.52345 0.0
C2941 C 0.6024 0.98326 0.51462 0.0
C2942 C 0.60228 0.96684 0.52335 0.0
C2943 C 0.58649 0.95961 0.53218 0.0
C2944 C 0.57093 0.96864 0.53233 0.0
C2945 C 0.61873 0.95722 0.52376 0.0
C2946 C 0.61737 0.94014 0.51278 0.0
C2947 C 0.63539 0.96454 0.53536 0.0
C2948 C 0.63736 0.98242 0.54741 0.0
C2949 C 0.62527 0.9849 0.56182 0.0
C2950 C 0.62711 0.00188 0.573 0.0
C2951 C 0.64109 0.01644 0.57 0.0
C2952 C 0.65331 0.01402 0.55585 0.0
C2953 C 0.6515 0.99706 0.54462 0.0
H2954 H 0.6425 0.02957 0.57867 0.0
H2955 H 0.62544 0.86731 0.46593 0.0
H2956 H 0.33401 0.464 0.73514 0.0
H2957 H 0.31272 0.43453 0.73383 0.0
H2958 H 0.35898 0.4051 0.72389 0.0
H2959 H 0.38014 0.43432 0.72463 0.0
H2960 H 0.32885 0.3884 0.70281 0.0
H2961 H 0.34315 0.41318 0.76911 0.0
H2962 H 0.34425 0.43654 0.79672 0.0
H2963 H 0.28422 0.43291 0.78915 0.0
H2964 H 0.28281 0.40968 0.76133 0.0
H2965 H 0.30948 0.30399 0.74322 0.0
H2966 H 0.32148 0.33528 0.73601 0.0
H2967 H 0.26592 0.3497 0.73769 0.0
H2968 H 0.25369 0.31822 0.7447 0.0
H2969 H 0.29492 0.37518 0.75984 0.0
H2970 H 0.28168 0.34464 0.69673 0.0
H2971 H 0.28237 0.32065 0.67016 0.0
H2972 H 0.3425 0.33466 0.67258 0.0
H2973 H 0.34224 0.3582 0.69957 0.0
C2974 C 0.3396 0.45125 0.73245 0.0
C2975 C 0.35882 0.45154 0.73014 0.0
C2976 C 0.32742 0.43442 0.73179 0.0
C2977 C 0.33431 0.41759 0.72908 0.0
C2978 C 0.35332 0.41789 0.72602 0.0
C2979 C 0.36544 0.43465 0.7265 0.0
C2980 C 0.32212 0.39961 0.73022 0.0
C2981 C 0.32149 0.38548 0.71531 0.0
C2982 C 0.31206 0.39595 0.7463 0.0
C2983 C 0.3129 0.40989 0.76301 0.0
C2984 C 0.33021 0.41748 0.77325 0.0
C2985 C 0.33089 0.43067 0.78895 0.0
C2986 C 0.31432 0.43625 0.79465 0.0
C2987 C 0.29704 0.42861 0.78469 0.0
C2988 C 0.29629 0.41543 0.76896 0.0
C2989 C 0.29978 0.31378 0.74196 0.0
C2990 C 0.28065 0.30868 0.74454 0.0
C2991 C 0.30664 0.33161 0.73775 0.0
C2992 C 0.29455 0.34472 0.7362 0.0
C2993 C 0.27543 0.33972 0.73875 0.0
C2994 C 0.26848 0.32175 0.74269 0.0
C2995 C 0.30224 0.36385 0.73272 0.0
C2996 C 0.30198 0.37819 0.74718 0.0
C2997 C 0.31175 0.36761 0.71637 0.0
C2998 C 0.31194 0.35313 0.70032 0.0
C2999 C 0.29508 0.34242 0.69179 0.0
C3000 C 0.29539 0.32887 0.67663 0.0
C3001 C 0.31247 0.32603 0.66973 0.0
C3002 C 0.32927 0.33673 0.67799 0.0
C3003 C 0.32905 0.35017 0.69324 0.0
H3004 H 0.31267 0.3156 0.65794 0.0
H3005 H 0.31488 0.44646 0.80681 0.0
H3006 H 0.17361 0.53736 0.24583 0.0
H3007 H 0.18947 0.56905 0.2445 0.0
H3008 H 0.13575 0.58654 0.23296 0.0
H3009 H 0.11993 0.55487 0.23355 0.0
H3010 H 0.15957 0.60365 0.21246 0.0
H3011 H 0.16038 0.59287 0.27868 0.0
H3012 H 0.16713 0.57679 0.30695 0.0
H3013 H 0.22615 0.58708 0.29954 0.0
H3014 H 0.21971 0.60303 0.27106 0.0
H3015 H 0.17991 0.69868 0.24928 0.0
H3016 H 0.1686 0.66562 0.24141 0.0
H3017 H 0.2257 0.65482 0.24638 0.0
H3018 H 0.23715 0.6879 0.25441 0.0
H3019 H 0.20296 0.63382 0.26798 0.0
H3020 H 0.2007 0.64895 0.20331 0.0
H3021 H 0.19213 0.66658 0.17681 0.0
H3022 H 0.13355 0.64962 0.18316 0.0
H3023 H 0.14175 0.63213 0.20991 0.0
C3024 C 0.1652 0.54795 0.24292 0.0
C3025 C 0.1455 0.54361 0.23991 0.0
C3026 C 0.17427 0.56608 0.24221 0.0
C3027 C 0.1638 0.58029 0.23894 0.0
C3028 C 0.14417 0.57586 0.23548 0.0
C3029 C 0.13512 0.55772 0.2359 0.0
C3030 C 0.17311 0.59989 0.23976 0.0
C3031 C 0.16897 0.61026 0.22466 0.0
C3032 C 0.18564 0.60852 0.25551 0.0
C3033 C 0.18954 0.59894 0.27261 0.0
C3034 C 0.17478 0.59157 0.283 0.0
C3035 C 0.17855 0.58251 0.29907 0.0
C3036 C 0.19705 0.58086 0.305 0.0
C3037 C 0.21183 0.58833 0.2949 0.0
C3038 C 0.20813 0.59739 0.2788 0.0
C3039 C 0.19009 0.68932 0.24839 0.0
C3040 C 0.20941 0.6959 0.2526 0.0
C3041 C 0.18361 0.67042 0.2438 0.0
C3042 C 0.19632 0.65776 0.24327 0.0
C3043 C 0.21567 0.66436 0.24671 0.0
C3044 C 0.22218 0.68328 0.25122 0.0
C3045 C 0.18927 0.63757 0.24081 0.0
C3046 C 0.19379 0.62711 0.25564 0.0
C3047 C 0.17684 0.62901 0.225 0.0
C3048 C 0.17186 0.63931 0.20871 0.0
C3049 C 0.18599 0.64907 0.19914 0.0
C3050 C 0.18119 0.65903 0.18406 0.0
C3051 C 0.16231 0.65923 0.17832 0.0
C3052 C 0.14817 0.64944 0.18762 0.0
C3053 C 0.15289 0.63948 0.20273 0.0
H3054 H 0.15862 0.66694 0.16664 0.0
H3055 H 0.19995 0.57385 0.31745 0.0
H3056 H 0.4771 0.68685 0.40627 0.0
H3057 H 0.47658 0.65946 0.42338 0.0
H3058 H 0.5082 0.69267 0.47207 0.0
H3059 H 0.50892 0.72025 0.45491 0.0
H3060 H 0.52388 0.66286 0.46168 0.0
H3061 H 0.46268 0.67358 0.47507 0.0
H3062 H 0.43038 0.67991 0.46871 0.0
H3063 H 0.41631 0.62949 0.43127 0.0
H3064 H 0.44862 0.62303 0.4371 0.0
H3065 H 0.51675 0.58098 0.51115 0.0
H3066 H 0.51501 0.61235 0.50284 0.0
H3067 H 0.48398 0.58978 0.44917 0.0
H3068 H 0.48558 0.55851 0.45732 0.0
H3069 H 0.46761 0.61647 0.46763 0.0
H3070 H 0.52984 0.6082 0.45096 0.0
H3071 H 0.56199 0.60149 0.45744 0.0
H3072 H 0.57384 0.64728 0.50116 0.0
H3073 H 0.54165 0.6541 0.4951 0.0
C3074 C 0.48371 0.68841 0.42073 0.0
C3075 C 0.49313 0.70569 0.42922 0.0
C3076 C 0.4833 0.67274 0.43054 0.0
C3077 C 0.49223 0.67405 0.44906 0.0
C3078 C 0.50117 0.69138 0.45781 0.0
C3079 C 0.50153 0.70712 0.44801 0.0
C3080 C 0.49359 0.657 0.45841 0.0
C3081 C 0.51155 0.65289 0.46339 0.0
C3082 C 0.47751 0.64387 0.4603 0.0
C3083 C 0.45813 0.64787 0.45646 0.0
C3084 C 0.45276 0.66393 0.46533 0.0
C3085 C 0.43443 0.66753 0.46184 0.0
C3086 C 0.42131 0.65512 0.44957 0.0
C3087 C 0.42649 0.6391 0.44075 0.0
C3088 C 0.44481 0.63546 0.44416 0.0
C3089 C 0.50975 0.58272 0.49749 0.0
C3090 C 0.50137 0.56727 0.48486 0.0
C3091 C 0.50874 0.60063 0.49279 0.0
C3092 C 0.49938 0.60335 0.47539 0.0
C3093 C 0.49121 0.58796 0.4627 0.0
C3094 C 0.49226 0.5701 0.46733 0.0
C3095 C 0.49787 0.62218 0.4703 0.0
C3096 C 0.47989 0.62659 0.46617 0.0
C3097 C 0.51391 0.63557 0.46914 0.0
C3098 C 0.53328 0.63152 0.47274 0.0
C3099 C 0.53925 0.61674 0.46206 0.0
C3100 C 0.55749 0.61293 0.46564 0.0
C3101 C 0.56993 0.62392 0.47975 0.0
C3102 C 0.56418 0.63876 0.49027 0.0
C3103 C 0.54594 0.64261 0.48676 0.0
H3104 H 0.58405 0.62095 0.48249 0.0
H3105 H 0.40712 0.65792 0.44691 0.0
H3106 H 0.59803 0.29918 0.64284 0.0
H3107 H 0.6275 0.29667 0.66103 0.0
H3108 H 0.60208 0.306 0.71368 0.0
H3109 H 0.57253 0.30854 0.69563 0.0
H3110 H 0.64173 0.32183 0.71494 0.0
H3111 H 0.59898 0.26415 0.69701 0.0
H3112 H 0.57863 0.2411 0.67387 0.0
H3113 H 0.62595 0.23378 0.64222 0.0
H3114 H 0.64652 0.25703 0.66501 0.0
H3115 H 0.70158 0.27505 0.77299 0.0
H3116 H 0.67476 0.28672 0.75762 0.0
H3117 H 0.69037 0.26766 0.70229 0.0
H3118 H 0.71648 0.25553 0.71741 0.0
H3119 H 0.65484 0.25759 0.70365 0.0
H3120 H 0.69801 0.31429 0.72048 0.0
H3121 H 0.71907 0.33811 0.74216 0.0
H3122 H 0.67277 0.34806 0.77431 0.0
H3123 H 0.65148 0.32409 0.75296 0.0
C3124 C 0.59885 0.3012 0.65828 0.0
C3125 C 0.58289 0.30371 0.66782 0.0
C3126 C 0.61568 0.29977 0.66864 0.0
C3127 C 0.61679 0.30088 0.68865 0.0
C3128 C 0.60144 0.30508 0.69824 0.0
C3129 C 0.58456 0.30642 0.68789 0.0
C3130 C 0.63284 0.29501 0.69931 0.0
C3131 C 0.64459 0.30777 0.71265 0.0
C3132 C 0.63655 0.2767 0.6961 0.0
C3133 C 0.62424 0.26246 0.68261 0.0
C3134 C 0.60501 0.25772 0.68504 0.0
C3135 C 0.59344 0.24461 0.67199 0.0
C3136 C 0.60099 0.23602 0.65655 0.0
C3137 C 0.62013 0.24047 0.65417 0.0
C3138 C 0.63174 0.2536 0.66715 0.0
C3139 C 0.69923 0.2734 0.75757 0.0
C3140 C 0.71102 0.26425 0.74644 0.0
C3141 C 0.684 0.28016 0.74879 0.0
C3142 C 0.68062 0.27815 0.72878 0.0
C3143 C 0.69261 0.26927 0.71774 0.0
C3144 C 0.70755 0.26232 0.72644 0.0
C3145 C 0.66421 0.28451 0.7191 0.0
C3146 C 0.65217 0.27171 0.706 0.0
C3147 C 0.66043 0.30282 0.72243 0.0
C3148 C 0.6732 0.31725 0.73525 0.0
C3149 C 0.69235 0.32144 0.73227 0.0
C3150 C 0.70432 0.33499 0.74448 0.0
C3151 C 0.69727 0.34455 0.75964 0.0
C3152 C 0.67822 0.34062 0.76258 0.0
C3153 C 0.66619 0.32706 0.75043 0.0
H3154 H 0.70656 0.35504 0.76907 0.0
H3155 H 0.59203 0.22588 0.64646 0.0
H3156 H 0.983 0.29713 0.92698 0.0
H3157 H 0.97867 0.32519 0.94674 0.0
H3158 H 0.02285 0.35705 0.92017 0.0
H3159 H 0.02692 0.32931 0.90007 0.0
H3160 H 0.02374 0.36263 0.96312 0.0
H3161 H 0.98349 0.36032 0.90341 0.0
H3162 H 0.95778 0.34512 0.87962 0.0
H3163 H 0.91929 0.34229 0.92319 0.0
H3164 H 0.94487 0.35725 0.94729 0.0
H3165 H 0.0009 0.45625 0.95148 0.0
H3166 H 0.99427 0.42312 0.94165 0.0
H3167 H -0.00404 0.41205 0.00066 0.0
H3168 H 0.00283 0.4454 0.01068 0.0
H3169 H 0.96847 0.39278 0.947 0.0
H3170 H 0.02121 0.37461 0.00264 0.0
H3171 H 0.04689 0.3896 0.0266 0.0
H3172 H 0.06052 0.43345 0.99127 0.0
H3173 H 0.03518 0.41852 0.96695 0.0
C3174 C 0.99184 0.31012 0.92545 0.0
C3175 C 0.00524 0.31109 0.91194 0.0
C3176 C 0.98935 0.32607 0.93672 0.0
C3177 C 0.00049 0.34307 0.93489 0.0
C3178 C 0.0142 0.34398 0.9218 0.0
C3179 C 0.01642 0.32817 0.91026 0.0
C3180 C -0.00254 0.36025 0.94589 0.0
C3181 C 0.01153 0.36912 0.95984 0.0
C3182 C 0.98146 0.36855 0.94167 0.0
C3183 C 0.96612 0.35966 0.92717 0.0
C3184 C 0.96958 0.35628 0.90794 0.0
C3185 C 0.95503 0.34775 0.8944 0.0
C3186 C 0.93693 0.34268 0.8999 0.0
C3187 C 0.93333 0.34618 0.91896 0.0
C3188 C 0.94784 0.35469 0.93256 0.0
C3189 C -0.00054 0.4468 0.96239 0.0
C3190 C 0.00267 0.45338 0.98183 0.0
C3191 C 0.99555 0.42786 0.95674 0.0
C3192 C 0.99489 0.41515 0.97042 0.0
C3193 C -0.00342 0.42167 0.98989 0.0
C3194 C 0.00044 0.4407 0.99558 0.0
C3195 C 0.99495 0.39543 0.96401 0.0
C3196 C 0.98037 0.38605 0.95081 0.0
C3197 C 0.01049 0.38663 0.96898 0.0
C3198 C 0.02615 0.39557 0.98312 0.0
C3199 C 0.02975 0.38741 -3e-05 0.0
C3200 C 0.04424 0.39588 0.0136 0.0
C3201 C 0.05527 0.41248 0.01048 0.0
C3202 C 0.05188 0.42064 0.99372 0.0
C3203 C 0.03749 0.41215 0.97997 0.0
H3204 H 0.06648 0.41893 0.02105 0.0
H3205 H 0.92568 0.33608 0.8894 0.0
H3206 H 0.95413 0.75283 0.14805 0.0
H3207 H 0.9232 0.75044 0.16059 0.0
H3208 H 0.9501 0.76584 0.2177 0.0
H3209 H 0.98082 0.76694 0.20535 0.0
H3210 H 0.92282 0.74152 0.22023 0.0
H3211 H 0.92963 0.79684 0.18813 0.0
H3212 H 0.93479 0.8154 0.16104 0.0
H3213 H 0.88603 0.78304 0.12913 0.0
H3214 H 0.88072 0.76413 0.15596 0.0
H3215 H 0.8356 0.79059 0.2369 0.0
H3216 H 0.86546 0.78884 0.2233 0.0
H3217 H 0.85655 0.72964 0.22553 0.0
H3218 H 0.82716 0.73157 0.2402 0.0
H3219 H 0.87401 0.77434 0.19229 0.0
H3220 H 0.89742 0.71333 0.22916 0.0
H3221 H 0.89434 0.6993 0.25946 0.0
H3222 H 0.88655 0.75144 0.28777 0.0
H3223 H 0.8898 0.76581 0.2577 0.0
C3224 C 0.95334 0.7556 0.16328 0.0
C3225 C 0.96979 0.76009 0.17575 0.0
C3226 C 0.93569 0.75434 0.17043 0.0
C3227 C 0.93424 0.75827 0.19009 0.0
C3228 C 0.95076 0.76265 0.20251 0.0
C3229 C 0.96833 0.76335 0.19544 0.0
C3230 C 0.91567 0.75807 0.19791 0.0
C3231 C 0.91216 0.74871 0.21409 0.0
C3232 C 0.90176 0.76759 0.1901 0.0
C3233 C 0.90492 0.77894 0.17396 0.0
C3234 C 0.9201 0.7936 0.17528 0.0
C3235 C 0.92304 0.80419 0.15998 0.0
C3236 C 0.91079 0.80036 0.14335 0.0
C3237 C 0.89554 0.78596 0.14201 0.0
C3238 C 0.89255 0.77531 0.15725 0.0
C3239 C 0.84019 0.77725 0.23473 0.0
C3240 C 0.82929 0.76125 0.23982 0.0
C3241 C 0.85717 0.77623 0.22683 0.0
C3242 C 0.86341 0.75913 0.22354 0.0
C3243 C 0.85233 0.74306 0.22838 0.0
C3244 C 0.83555 0.74416 0.23675 0.0
C3245 C 0.88142 0.75824 0.2149 0.0
C3246 C 0.88469 0.76717 0.19843 0.0
C3247 C 0.89546 0.74904 0.22295 0.0
C3248 C 0.89364 0.74057 0.24113 0.0
C3249 C 0.8951 0.7218 0.24187 0.0
C3250 C 0.89331 0.71379 0.259 0.0
C3251 C 0.89018 0.72445 0.27551 0.0
C3252 C 0.8889 0.74317 0.27495 0.0
C3253 C 0.89069 0.75125 0.25787 0.0
H3254 H 0.88879 0.71822 0.28875 0.0
H3255 H 0.91308 0.80857 0.13152 0.0
H3256 H 0.49229 0.31793 0.12066 0.0
H3257 H 0.49308 0.34534 0.10352 0.0
H3258 H 0.50606 0.31436 0.0527 0.0
H3259 H 0.50538 0.28675 0.06985 0.0
H3260 H 0.52932 0.34772 0.06072 0.0
H3261 H 0.46336 0.32611 0.05457 0.0
H3262 H 0.43228 0.31471 0.06507 0.0
H3263 H 0.43456 0.36537 0.10121 0.0
H3264 H 0.4658 0.37695 0.09121 0.0
H3265 H 0.52162 0.42991 0.01309 0.0
H3266 H 0.51824 0.39766 0.02066 0.0
H3267 H 0.5006 0.41423 0.07582 0.0
H3268 H 0.50358 0.44607 0.06831 0.0
H3269 H 0.47756 0.38492 0.05903 0.0
H3270 H 0.54519 0.404 0.06981 0.0
H3271 H 0.57665 0.41577 0.06037 0.0
H3272 H 0.57127 0.37041 0.01644 0.0
H3273 H 0.53966 0.35851 0.02548 0.0
C3274 C 0.49515 0.31687 0.10579 0.0
C3275 C 0.49876 0.30017 0.0966 0.0
C3276 C 0.49552 0.33254 0.09598 0.0
C3277 C 0.49944 0.33183 0.07678 0.0
C3278 C 0.50293 0.31516 0.0675 0.0
C3279 C 0.50248 0.29941 0.07729 0.0
C3280 C 0.50071 0.34882 0.06686 0.0
C3281 C 0.51788 0.35569 0.05997 0.0
C3282 C 0.48584 0.35929 0.06611 0.0
C3283 C 0.46703 0.35234 0.07223 0.0
C3284 C 0.45733 0.33476 0.06489 0.0
C3285 C 0.43966 0.32827 0.07074 0.0
C3286 C 0.43147 0.33929 0.08383 0.0
C3287 C 0.44092 0.35684 0.09109 0.0
C3288 C 0.45861 0.36337 0.08532 0.0
C3289 C 0.51717 0.42664 0.02687 0.0
C3290 C 0.51281 0.44051 0.04007 0.0
C3291 C 0.51525 0.40824 0.03118 0.0
C3292 C 0.50914 0.40355 0.04881 0.0
C3293 C 0.50518 0.41749 0.06207 0.0
C3294 C 0.50696 0.43573 0.05776 0.0
C3295 C 0.50642 0.38418 0.05366 0.0
C3296 C 0.48891 0.37681 0.05949 0.0
C3297 C 0.52101 0.37335 0.05358 0.0
C3298 C 0.53998 0.38051 0.04816 0.0
C3299 C 0.55066 0.39663 0.05803 0.0
C3300 C 0.56852 0.40331 0.05277 0.0
C3301 C 0.57593 0.39388 0.03777 0.0
C3302 C 0.5655 0.37772 0.02802 0.0
C3303 C 0.54761 0.371 0.03321 0.0
H3304 H 0.58976 0.39906 0.03372 0.0
H3305 H 0.41778 0.33425 0.08832 0.0
H3306 H 0.97123 0.28383 0.32813 0.0
H3307 H 0.93781 0.28379 0.31997 0.0
H3308 H 0.92564 0.26749 0.3755 0.0
H3309 H 0.959 0.26688 0.38353 0.0
H3310 H 0.90123 0.24827 0.34996 0.0
H3311 H 0.92518 0.3127 0.36359 0.0
H3312 H 0.94614 0.34207 0.36128 0.0
H3313 H 0.92798 0.33958 0.30169 0.0
H3314 H 0.90709 0.31006 0.30358 0.0
H3315 H 0.80748 0.26045 0.3411 0.0
H3316 H 0.84061 0.26953 0.35269 0.0
H3317 H 0.85486 0.27558 0.2951 0.0
H3318 H 0.82168 0.26683 0.28338 0.0
H3319 H 0.87769 0.30153 0.32334 0.0
H3320 H 0.85579 0.23492 0.31055 0.0
H3321 H 0.83202 0.20799 0.31469 0.0
H3322 H 0.84549 0.21668 0.37538 0.0
H3323 H 0.86921 0.24378 0.37163 0.0
C3324 C 0.96145 0.28024 0.33862 0.0
C3325 C 0.96777 0.27538 0.35649 0.0
C3326 C 0.94234 0.28035 0.33398 0.0
C3327 C 0.92923 0.27596 0.34725 0.0
C3328 C 0.9355 0.27097 0.36505 0.0
C3329 C 0.95458 0.27063 0.36962 0.0
C3330 C 0.90891 0.27603 0.34234 0.0
C3331 C 0.89614 0.26005 0.34442 0.0
C3332 C 0.90216 0.2913 0.33489 0.0
C3333 C 0.91469 0.30907 0.33369 0.0
C3334 C 0.92576 0.31834 0.34996 0.0
C3335 C 0.93761 0.33503 0.34873 0.0
C3336 C 0.93842 0.34266 0.33134 0.0
C3337 C 0.92735 0.33364 0.31515 0.0
C3338 C 0.91549 0.31694 0.31629 0.0
C3339 C 0.8176 0.26412 0.33094 0.0
C3340 C 0.81205 0.26258 0.3113 0.0
C3341 C 0.8365 0.26935 0.3376 0.0
C3342 C 0.85016 0.27287 0.32468 0.0
C3343 C 0.8445 0.27287 0.30526 0.0
C3344 C 0.82555 0.26778 0.2986 0.0
C3345 C 0.8703 0.27386 0.33098 0.0
C3346 C 0.88295 0.2899 0.32903 0.0
C3347 C 0.87697 0.25876 0.33874 0.0
C3348 C 0.86414 0.24143 0.34082 0.0
C3349 C 0.85374 0.23101 0.32476 0.0
C3350 C 0.84024 0.21577 0.32704 0.0
C3351 C 0.83713 0.21077 0.34529 0.0
C3352 C 0.84786 0.22066 0.36127 0.0
C3353 C 0.86136 0.23593 0.35908 0.0
H3354 H 0.82636 0.19927 0.34707 0.0
H3355 H 0.94761 0.35558 0.33042 0.0
H3356 H 0.99119 0.70316 0.58714 0.0
H3357 H 0.98674 0.6734 0.56743 0.0
H3358 H 0.98702 0.64501 0.6183 0.0
H3359 H 0.99198 0.67461 0.63801 0.0
H3360 H 0.00987 0.63269 0.5955 0.0
H3361 H 0.94632 0.64461 0.58804 0.0
H3362 H 0.92112 0.66247 0.57992 0.0
H3363 H 0.93615 0.66187 0.52219 0.0
H3364 H 0.96162 0.64421 0.53003 0.0
H3365 H 0.98215 0.54123 0.56002 0.0
H3366 H 0.97911 0.57187 0.5746 0.0
H3367 H 0.98611 0.59406 0.52067 0.0
H3368 H 0.98875 0.56314 0.50573 0.0
H3369 H 0.96027 0.61034 0.54255 0.0
H3370 H 0.02367 0.59706 0.55104 0.0
H3371 H 0.04749 0.57794 0.56011 0.0
H3372 H 0.03115 0.5803 0.61738 0.0
H3373 H 0.00711 0.59929 0.60865 0.0
C3374 C 0.99009 0.69056 0.59411 0.0
C3375 C 0.99208 0.69125 0.61415 0.0
C3376 C 0.98747 0.67355 0.58282 0.0
C3377 C 0.98648 0.65694 0.59138 0.0
C3378 C 0.98784 0.65764 0.61137 0.0
C3379 C 0.99066 0.67458 0.62263 0.0
C3380 C 0.9853 0.63888 0.57972 0.0
C3381 C -0.00113 0.62777 0.58407 0.0
C3382 C 0.97129 0.63263 0.56442 0.0
C3383 C 0.95602 0.64327 0.55968 0.0
C3384 C 0.94436 0.64843 0.57366 0.0
C3385 C 0.93001 0.65848 0.5691 0.0
C3386 C 0.92707 0.66335 0.55057 0.0
C3387 C 0.93846 0.65812 0.53654 0.0
C3388 C 0.95285 0.64808 0.54104 0.0
C3389 C 0.9827 0.55254 0.55115 0.0
C3390 C 0.986 0.54989 0.53181 0.0
C3391 C 0.98096 0.57002 0.55951 0.0
C3392 C 0.98282 0.58525 0.54882 0.0
C3393 C 0.98475 0.58246 0.52917 0.0
C3394 C 0.98627 0.56483 0.52067 0.0
C3395 C 0.98455 0.60415 0.55872 0.0
C3396 C 0.97125 0.61541 0.55394 0.0
C3397 C -0.00129 0.61055 0.5738 0.0
C3398 C 0.01351 0.59951 0.57916 0.0
C3399 C 0.02511 0.59345 0.56555 0.0
C3400 C 0.03865 0.58264 0.57062 0.0
C3401 C 0.04081 0.57789 0.58928 0.0
C3402 C 0.02948 0.58401 0.60293 0.0
C3403 C 0.01593 0.59483 0.59794 0.0
H3404 H 0.05128 0.56949 0.59315 0.0
H3405 H 0.91594 0.67113 0.54706 0.0
H3406 H 0.59211 0.75649 0.89257 0.0
H3407 H 0.61956 0.75656 0.87419 0.0
H3408 H 0.58309 0.73979 0.82241 0.0
H3409 H 0.55559 0.73969 0.84062 0.0
H3410 H 0.61546 0.72274 0.82372 0.0
H3411 H 0.59782 0.78348 0.83272 0.0
H3412 H 0.59019 0.81062 0.85194 0.0
H3413 H 0.64504 0.81918 0.88232 0.0
H3414 H 0.65288 0.79188 0.86346 0.0
H3415 H 0.68728 0.78885 0.77282 0.0
H3416 H 0.65782 0.78073 0.78726 0.0
H3417 H 0.68135 0.73912 0.81611 0.0
H3418 H 0.71081 0.74701 0.8016 0.0
H3419 H 0.65434 0.78473 0.82496 0.0
H3420 H 0.64504 0.70496 0.82364 0.0
H3421 H 0.65148 0.67805 0.80314 0.0
H3422 H 0.64867 0.70837 0.7541 0.0
H3423 H 0.64195 0.73536 0.77425 0.0
C3424 C 0.58994 0.75251 0.87732 0.0
C3425 C 0.57172 0.74832 0.86798 0.0
C3426 C 0.60562 0.75256 0.86686 0.0
C3427 C 0.60329 0.74837 0.84696 0.0
C3428 C 0.58515 0.74306 0.83777 0.0
C3429 C 0.56947 0.74312 0.84818 0.0
C3430 C 0.61958 0.75127 0.83549 0.0
C3431 C 0.62405 0.73624 0.82401 0.0
C3432 C 0.63046 0.769 0.83563 0.0
C3433 C 0.62586 0.78554 0.84682 0.0
C3434 C 0.6082 0.79107 0.84359 0.0
C3435 C 0.60384 0.80649 0.85441 0.0
C3436 C 0.61711 0.81659 0.86838 0.0
C3437 C 0.63477 0.81132 0.87152 0.0
C3438 C 0.63918 0.79589 0.86077 0.0
C3439 C 0.68609 0.77775 0.78196 0.0
C3440 C 0.70142 0.76867 0.78618 0.0
C3441 C 0.66927 0.77317 0.79024 0.0
C3442 C 0.66743 0.75936 0.80276 0.0
C3443 C 0.68242 0.7497 0.80634 0.0
C3444 C 0.69927 0.75428 0.79808 0.0
C3445 C 0.65045 0.75614 0.81326 0.0
C3446 C 0.64584 0.77117 0.82464 0.0
C3447 C 0.63936 0.73846 0.81281 0.0
C3448 C 0.64318 0.72224 0.80051 0.0
C3449 C 0.64573 0.70586 0.80847 0.0
C3450 C 0.64944 0.69059 0.79691 0.0
C3451 C 0.65054 0.69152 0.77734 0.0
C3452 C 0.64788 0.70769 0.76928 0.0
C3453 C 0.64416 0.72299 0.78077 0.0
H3454 H 0.65343 0.67969 0.76842 0.0
H3455 H 0.61371 0.82852 0.87674 0.0
H3456 H 0.44168 0.51767 0.71219 0.0
H3457 H 0.46161 0.52293 0.68621 0.0
H3458 H 0.41829 0.54659 0.65626 0.0
H3459 H 0.39783 0.54032 0.68189 0.0
H3460 H 0.43184 0.52607 0.63209 0.0
H3461 H 0.46064 0.57343 0.68028 0.0
H3462 H 0.47455 0.58717 0.71229 0.0
H3463 H 0.51849 0.55406 0.70872 0.0
H3464 H 0.5047 0.53992 0.67678 0.0
H3465 H 0.48948 0.55407 0.56219 0.0
H3466 H 0.47392 0.5591 0.59134 0.0
H3467 H 0.50835 0.52479 0.61956 0.0
H3468 H 0.52437 0.52022 0.59041 0.0
H3469 H 0.49925 0.55386 0.64427 0.0
H3470 H 0.467 0.5052 0.59592 0.0
H3471 H 0.45397 0.49483 0.56274 0.0
H3472 H 0.4163 0.53465 0.56616 0.0
H3473 H 0.42928 0.5454 0.59931 0.0
C3474 C 0.43644 0.52406 0.7001 0.0
C3475 C 0.41825 0.52867 0.69907 0.0
C3476 C 0.44791 0.52721 0.68529 0.0
C3477 C 0.44169 0.53558 0.66941 0.0
C3478 C 0.42347 0.54019 0.66838 0.0
C3479 C 0.4118 0.53663 0.68302 0.0
C3480 C 0.45394 0.5388 0.6536 0.0
C3481 C 0.44647 0.53247 0.63481 0.0
C3482 C 0.47315 0.547 0.657 0.0
C3483 C 0.48154 0.55551 0.67619 0.0
C3484 C 0.4732 0.56898 0.68637 0.0
C3485 C 0.48107 0.57686 0.7045 0.0
C3486 C 0.49737 0.57146 0.71255 0.0
C3487 C 0.50586 0.55821 0.70247 0.0
C3488 C 0.49803 0.55028 0.68434 0.0
C3489 C 0.49404 0.54802 0.57478 0.0
C3490 C 0.50782 0.53652 0.57407 0.0
C3491 C 0.48518 0.55091 0.5914 0.0
C3492 C 0.48964 0.5419 0.6074 0.0
C3493 C 0.50463 0.53176 0.60729 0.0
C3494 C 0.51376 0.52914 0.59068 0.0
C3495 C 0.47711 0.541 0.62308 0.0
C3496 C 0.48455 0.54767 0.64172 0.0
C3497 C 0.45779 0.53344 0.61954 0.0
C3498 C 0.44917 0.52616 0.60005 0.0
C3499 C 0.45591 0.51171 0.5896 0.0
C3500 C 0.44857 0.5058 0.57079 0.0
C3501 C 0.43434 0.5141 0.56234 0.0
C3502 C 0.42732 0.52823 0.57273 0.0
C3503 C 0.43464 0.53422 0.59154 0.0
H3504 H 0.42874 0.50958 0.54774 0.0
H3505 H 0.50344 0.57757 0.72658 0.0
H3506 H 0.74881 0.18177 0.99078 0.0
H3507 H 0.74612 0.19967 0.9633 0.0
H3508 H 0.77118 0.15989 0.92928 0.0
H3509 H 0.77346 0.14165 0.95648 0.0
H3510 H 0.7873 0.20156 0.93181 0.0
H3511 H 0.72976 0.1559 0.91928 0.0
H3512 H 0.6994 0.14031 0.92816 0.0
H3513 H 0.67956 0.19247 0.93488 0.0
H3514 H 0.70994 0.20841 0.92631 0.0
H3515 H 0.77656 0.20761 0.83445 0.0
H3516 H 0.77747 0.19977 0.86711 0.0
H3517 H 0.73794 0.23656 0.8801 0.0
H3518 H 0.73708 0.24474 0.84706 0.0
H3519 H 0.7278 0.20259 0.89235 0.0
H3520 H 0.78139 0.24832 0.90151 0.0
H3521 H 0.81204 0.26742 0.89872 0.0
H3522 H 0.8394 0.21981 0.9023 0.0
H3523 H 0.80891 0.20036 0.90494 0.0
C3524 C 0.75371 0.17683 0.97742 0.0
C3525 C 0.76139 0.16035 0.97573 0.0
C3526 C 0.75208 0.18702 0.96178 0.0
C3527 C 0.75839 0.181 0.94437 0.0
C3528 C 0.76619 0.16465 0.94266 0.0
C3529 C 0.76747 0.15427 0.95816 0.0
C3530 C 0.75753 0.19202 0.92799 0.0
C3531 C 0.77437 0.2017 0.923 0.0
C3532 C 0.74044 0.19298 0.91736 0.0
C3533 C 0.72219 0.18337 0.92241 0.0
C3534 C 0.719 0.16407 0.92286 0.0
C3535 C 0.70177 0.15516 0.92778 0.0
C3536 C 0.68758 0.1654 0.93215 0.0
C3537 C 0.69057 0.18456 0.93154 0.0
C3538 C 0.70779 0.19354 0.92664 0.0
C3539 C 0.76818 0.21425 0.84423 0.0
C3540 C 0.7568 0.22687 0.83815 0.0
C3541 C 0.76881 0.20981 0.86298 0.0
C3542 C 0.75802 0.2178 0.87614 0.0
C3543 C 0.74654 0.23039 0.87019 0.0
C3544 C 0.74604 0.23502 0.85134 0.0
C3545 C 0.75783 0.21157 0.8955 0.0
C3546 C 0.74078 0.20276 0.90118 0.0
C3547 C 0.77474 0.21173 0.90704 0.0
C3548 C 0.79282 0.22287 0.90338 0.0
C3549 C 0.79389 0.24185 0.90141 0.0
C3550 C 0.81127 0.25278 0.90003 0.0
C3551 C 0.82768 0.24487 0.90059 0.0
C3552 C 0.8267 0.22595 0.90209 0.0
C3553 C 0.80938 0.21497 0.90351 0.0
H3554 H 0.84113 0.25338 0.89966 0.0
H3555 H 0.67425 0.15848 0.93596 0.0
H3556 H 0.1322 0.47236 0.18357 0.0
H3557 H 0.11435 0.47365 0.15308 0.0
H3558 H 0.06341 0.44989 0.17581 0.0
H3559 H 0.0811 0.44873 0.20649 0.0
H3560 H 0.068 0.43951 0.13308 0.0
H3561 H 0.06853 0.49123 0.18208 0.0
H3562 H 0.08488 0.51538 0.20679 0.0
H3563 H 0.11932 0.53896 0.16534 0.0
H3564 H 0.1033 0.51478 0.14042 0.0
H3565 H 0.0043 0.47982 0.07197 0.0
H3566 H 0.01962 0.46849 0.09981 0.0
H3567 H 0.07207 0.50216 0.09109 0.0
H3568 H 0.05703 0.51361 0.06373 0.0
H3569 H 0.06494 0.50586 0.12752 0.0
H3570 H 0.06513 0.45636 0.07827 0.0
H3571 H 0.05117 0.43193 0.05272 0.0
H3572 H 0.01783 0.40415 0.09255 0.0
H3573 H 0.03143 0.42851 0.11833 0.0
C3574 C 0.11731 0.46687 0.18192 0.0
C3575 C 0.10796 0.46076 0.19749 0.0
C3576 C 0.10716 0.46757 0.16448 0.0
C3577 C 0.0876 0.462 0.16235 0.0
C3578 C 0.07852 0.45418 0.17723 0.0
C3579 C 0.08863 0.45366 0.19476 0.0
C3580 C 0.0764 0.46747 0.14613 0.0
C3581 C 0.06707 0.45395 0.13189 0.0
C3582 C 0.07551 0.48634 0.14459 0.0
C3583 C 0.08485 0.50111 0.15945 0.0
C3584 C 0.07968 0.50149 0.17828 0.0
C3585 C 0.08887 0.51519 0.19231 0.0
C3586 C 0.10318 0.52865 0.18765 0.0
C3587 C 0.10826 0.5285 0.16893 0.0
C3588 C 0.09911 0.51482 0.15484 0.0
C3589 C 0.01905 0.48487 0.07612 0.0
C3590 C 0.02942 0.49765 0.0657 0.0
C3591 C 0.02781 0.47829 0.09189 0.0
C3592 C 0.047 0.48442 0.09739 0.0
C3593 C 0.05725 0.49728 0.0871 0.0
C3594 C 0.04858 0.50381 0.07144 0.0
C3595 C 0.05659 0.47795 0.11413 0.0
C3596 C 0.06565 0.49135 0.12863 0.0
C3597 C 0.05737 0.459 0.11568 0.0
C3598 C 0.04913 0.44438 0.10019 0.0
C3599 C 0.05469 0.44514 0.08155 0.0
C3600 C 0.04688 0.43129 0.06703 0.0
C3601 C 0.03358 0.41655 0.07099 0.0
C3602 C 0.0281 0.4156 0.0895 0.0
C3603 C 0.03587 0.42941 0.10407 0.0
H3604 H 0.02756 0.40585 0.05973 0.0
H3605 H 0.11029 0.53924 0.19853 0.0
H3606 H 0.75345 0.83818 0.48499 0.0
H3607 H 0.7543 0.81871 0.45506 0.0
H3608 H 0.73961 0.86254 0.42312 0.0
H3609 H 0.73858 0.88191 0.45271 0.0
H3610 H 0.71844 0.82957 0.41029 0.0
H3611 H 0.78446 0.8538 0.42788 0.0
H3612 H 0.8139 0.85871 0.44904 0.0
H3613 H 0.81238 0.79995 0.44728 0.0
H3614 H 0.78278 0.7947 0.4263 0.0
H3615 H 0.74252 0.81773 0.31768 0.0
H3616 H 0.74293 0.82854 0.35133 0.0
H3617 H 0.75546 0.77603 0.36678 0.0
H3618 H 0.75513 0.76499 0.3328 0.0
H3619 H 0.77593 0.80675 0.39027 0.0
H3620 H 0.71193 0.78322 0.36814 0.0
H3621 H 0.68267 0.77913 0.34683 0.0
H3622 H 0.68023 0.83713 0.35709 0.0
H3623 H 0.70962 0.84166 0.37823 0.0
C3624 C 0.75041 0.84366 0.47159 0.0
C3625 C 0.74592 0.86161 0.47127 0.0
C3626 C 0.75097 0.83254 0.45451 0.0
C3627 C 0.74707 0.83921 0.43689 0.0
C3628 C 0.7426 0.85709 0.43658 0.0
C3629 C 0.74207 0.86818 0.45354 0.0
C3630 C 0.74731 0.82773 0.41857 0.0
C3631 C 0.73102 0.82462 0.40588 0.0
C3632 C 0.76353 0.82069 0.41314 0.0
C3633 C 0.78129 0.82385 0.42574 0.0
C3634 C 0.79032 0.84192 0.43216 0.0
C3635 C 0.80705 0.84477 0.44408 0.0
C3636 C 0.81497 0.82965 0.44955 0.0
C3637 C 0.8062 0.81165 0.44306 0.0
C3638 C 0.78945 0.80873 0.43115 0.0
C3639 C 0.74553 0.80848 0.32818 0.0
C3640 C 0.74862 0.79044 0.32258 0.0
C3641 C 0.74569 0.81467 0.34743 0.0
C3642 C 0.74881 0.80294 0.3615 0.0
C3643 C 0.75287 0.78522 0.35608 0.0
C3644 C 0.75272 0.77897 0.33671 0.0
C3645 C 0.74728 0.80933 0.38173 0.0
C3646 C 0.76324 0.81137 0.39481 0.0
C3647 C 0.73075 0.81548 0.38755 0.0
C3648 C 0.71308 0.8128 0.3747 0.0
C3649 C 0.70525 0.79514 0.36573 0.0
C3650 C 0.68862 0.79274 0.35369 0.0
C3651 C 0.67963 0.80787 0.35057 0.0
C3652 C 0.68722 0.82542 0.35951 0.0
C3653 C 0.70386 0.82791 0.37154 0.0
H3654 H 0.66678 0.80603 0.34123 0.0
H3655 H 0.82793 0.83188 0.45878 0.0
H3656 H 0.39226 0.51147 0.8117 0.0
H3657 H 0.39995 0.51087 0.84592 0.0
H3658 H 0.45219 0.49213 0.83453 0.0
H3659 H 0.44439 0.4922 0.80036 0.0
H3660 H 0.43639 0.47354 0.86078 0.0
H3661 H 0.45011 0.53781 0.85037 0.0
H3662 H 0.44329 0.56723 0.83948 0.0
H3663 H 0.39932 0.56777 0.87717 0.0
H3664 H 0.40572 0.53821 0.8881 0.0
H3665 H 0.48919 0.50043 0.9511 0.0
H3666 H 0.47649 0.49544 0.91765 0.0
H3667 H 0.42387 0.51024 0.93377 0.0
H3668 H 0.43645 0.51535 0.96721 0.0
H3669 H 0.43766 0.52975 0.90569 0.0
H3670 H 0.42633 0.46614 0.9179 0.0
H3671 H 0.4345 0.43728 0.92896 0.0
H3672 H 0.47557 0.43608 0.88809 0.0
H3673 H 0.46783 0.4651 0.87695 0.0
C3674 C 0.40539 0.50724 0.81648 0.0
C3675 C 0.41775 0.50197 0.8033 0.0
C3676 C 0.40978 0.50693 0.83606 0.0
C3677 C 0.42675 0.50165 0.84281 0.0
C3678 C 0.439 0.49622 0.82966 0.0
C3679 C 0.43455 0.49635 0.81011 0.0
C3680 C 0.43193 0.50195 0.86358 0.0
C3681 C 0.43684 0.48588 0.87058 0.0
C3682 C 0.43212 0.51793 0.87644 0.0
C3683 C 0.42826 0.5357 0.86988 0.0
C3684 C 0.43889 0.54413 0.85622 0.0
C3685 C 0.43512 0.56084 0.85006 0.0
C3686 C 0.42084 0.56933 0.85758 0.0
C3687 C 0.41035 0.56115 0.87132 0.0
C3688 C 0.41405 0.54443 0.87751 0.0
C3689 C 0.4748 0.50231 0.94757 0.0
C3690 C 0.46387 0.50839 0.9618 0.0
C3691 C 0.46755 0.49941 0.92845 0.0
C3692 C 0.44922 0.50245 0.92325 0.0
C3693 C 0.43806 0.50786 0.9375 0.0
C3694 C 0.44527 0.51072 0.95661 0.0
C3695 C 0.44224 0.50139 0.90286 0.0
C3696 C 0.43704 0.51735 0.89592 0.0
C3697 C 0.44195 0.48537 0.89007 0.0
C3698 C 0.4466 0.46789 0.8967 0.0
C3699 C 0.43721 0.45981 0.91137 0.0
C3700 C 0.44174 0.4434 0.91764 0.0
C3701 C 0.45557 0.43487 0.90926 0.0
C3702 C 0.46487 0.44271 0.89457 0.0
C3703 C 0.4604 0.45913 0.88826 0.0
H3704 H 0.45906 0.42217 0.91413 0.0
H3705 H 0.41795 0.58227 0.85281 0.0
H3706 H 0.79455 0.1789 0.06847 0.0
H3707 H 0.7988 0.20422 0.09436 0.0
H3708 H 0.7788 0.16557 0.13351 0.0
H3709 H 0.77474 0.14023 0.10805 0.0
H3710 H 0.75834 0.19946 0.12486 0.0
H3711 H 0.81821 0.17831 0.14327 0.0
H3712 H 0.85012 0.17278 0.13699 0.0
H3713 H 0.86565 0.22984 0.1278 0.0
H3714 H 0.8337 0.23563 0.13377 0.0
H3715 H 0.76197 0.21429 0.22085 0.0
H3716 H 0.76838 0.20471 0.18861 0.0
H3717 H 0.79418 0.2604 0.18203 0.0
H3718 H 0.78764 0.27041 0.21483 0.0
H3719 H 0.81427 0.2285 0.16829 0.0
H3720 H 0.75622 0.25088 0.15812 0.0
H3721 H 0.72429 0.25602 0.16481 0.0
H3722 H 0.70522 0.19737 0.15804 0.0
H3723 H 0.73699 0.19187 0.15139 0.0
C3724 C 0.79145 0.17573 0.08269 0.0
C3725 C 0.78411 0.15755 0.08616 0.0
C3726 C 0.79393 0.19021 0.09742 0.0
C3727 C 0.78905 0.18667 0.11571 0.0
C3728 C 0.78266 0.16848 0.11942 0.0
C3729 C 0.78035 0.15402 0.10484 0.0
C3730 C 0.78833 0.20187 0.13059 0.0
C3731 C 0.77057 0.20604 0.13424 0.0
C3732 C 0.80441 0.21086 0.14228 0.0
C3733 C 0.82351 0.20732 0.13864 0.0
C3734 C 0.82835 0.18961 0.13966 0.0
C3735 C 0.84647 0.18645 0.13623 0.0
C3736 C 0.85989 0.20093 0.13191 0.0
C3737 C 0.85523 0.21862 0.13108 0.0
C3738 C 0.83713 0.22185 0.13449 0.0
C3739 C 0.76904 0.22463 0.21269 0.0
C3740 C 0.77414 0.24319 0.22039 0.0
C3741 C 0.77269 0.21908 0.19423 0.0
C3742 C 0.78154 0.2319 0.18294 0.0
C3743 C 0.78725 0.25037 0.19059 0.0
C3744 C 0.78349 0.25603 0.20925 0.0
C3745 C 0.78412 0.22537 0.16308 0.0
C3746 C 0.80213 0.22268 0.15844 0.0
C3747 C 0.76825 0.21776 0.15033 0.0
C3748 C 0.74902 0.22097 0.15425 0.0
C3749 C 0.74523 0.23908 0.15815 0.0
C3750 C 0.72714 0.24205 0.16192 0.0
C3751 C 0.71272 0.22703 0.16191 0.0
C3752 C 0.71636 0.20901 0.15805 0.0
C3753 C 0.7344 0.20595 0.15419 0.0
H3754 H 0.69873 0.22935 0.16487 0.0
H3755 H 0.87391 0.19845 0.12927 0.0
H3756 H 0.06398 0.50503 0.29008 0.0
H3757 H 0.05295 0.51024 0.32166 0.0
H3758 H 0.1018 0.49141 0.34708 0.0
H3759 H 0.11296 0.48603 0.31549 0.0
H3760 H 0.06901 0.47636 0.36115 0.0
H3761 H 0.09988 0.53669 0.34958 0.0
H3762 H 0.10595 0.56374 0.33138 0.0
H3763 H 0.04883 0.57264 0.33455 0.0
H3764 H 0.04235 0.54546 0.35255 0.0
H3765 H 0.06635 0.50679 0.45714 0.0
H3766 H 0.07626 0.50422 0.42496 0.0
H3767 H 0.02634 0.52413 0.40373 0.0
H3768 H 0.01643 0.52715 0.43622 0.0
H3769 H 0.05786 0.5385 0.38682 0.0
H3770 H 0.02735 0.47944 0.40012 0.0
H3771 H 0.02108 0.45243 0.41832 0.0
H3772 H 0.07662 0.44045 0.41115 0.0
H3773 H 0.08349 0.46777 0.39351 0.0
C3774 C 0.0724 0.50195 0.30236 0.0
C3775 C 0.0894 0.49515 0.30026 0.0
C3776 C 0.0661 0.50502 0.3204 0.0
C3777 C 0.07667 0.50139 0.33668 0.0
C3778 C 0.09348 0.49433 0.33465 0.0
C3779 C 0.09984 0.49131 0.3166 0.0
C3780 C 0.07014 0.50487 0.35585 0.0
C3781 C 0.0668 0.48998 0.36689 0.0
C3782 C 0.06669 0.52254 0.363 0.0
C3783 C 0.07058 0.53893 0.35224 0.0
C3784 C 0.08857 0.54432 0.34626 0.0
C3785 C 0.09209 0.5597 0.33601 0.0
C3786 C 0.07777 0.56987 0.33177 0.0
C3787 C 0.0599 0.56472 0.33782 0.0
C3788 C 0.0563 0.54935 0.34806 0.0
C3789 C 0.05758 0.51092 0.44572 0.0
C3790 C 0.04055 0.51709 0.44921 0.0
C3791 C 0.06323 0.50933 0.4273 0.0
C3792 C 0.05185 0.51365 0.41195 0.0
C3793 C 0.03525 0.52064 0.41543 0.0
C3794 C 0.0296 0.52232 0.43396 0.0
C3795 C 0.05702 0.51005 0.39224 0.0
C3796 C 0.06003 0.52487 0.38108 0.0
C3797 C 0.06009 0.49227 0.38493 0.0
C3798 C 0.05601 0.47581 0.39563 0.0
C3799 C 0.03833 0.4712 0.40263 0.0
C3800 C 0.03466 0.45583 0.41287 0.0
C3801 C 0.04847 0.44478 0.41598 0.0
C3802 C 0.06597 0.44908 0.40886 0.0
C3803 C 0.06977 0.46453 0.39875 0.0
H3804 H 0.04555 0.43283 0.42381 0.0
H3805 H 0.08052 0.58177 0.32383 0.0
H3806 H 0.74519 0.8226 0.56835 0.0
H3807 H 0.74536 0.80468 0.59595 0.0
H3808 H 0.75423 0.85532 0.63379 0.0
H3809 H 0.75459 0.87325 0.60638 0.0
H3810 H 0.77569 0.83272 0.64644 0.0
H3811 H 0.71022 0.82741 0.62355 0.0
H3812 H 0.68278 0.8195 0.59969 0.0
H3813 H 0.69145 0.76284 0.59358 0.0
H3814 H 0.7191 0.77047 0.61725 0.0
H3815 H 0.7495 0.80648 0.73346 0.0
H3816 H 0.74781 0.81873 0.70255 0.0
H3817 H 0.74315 0.76355 0.67407 0.0
H3818 H 0.74414 0.75105 0.70519 0.0
H3819 H 0.72127 0.78499 0.65497 0.0
H3820 H 0.78599 0.79118 0.68109 0.0
H3821 H 0.81106 0.80024 0.70743 0.0
H3822 H 0.80215 0.85671 0.70882 0.0
H3823 H 0.77695 0.84803 0.6826 0.0
C3824 C 0.74728 0.82989 0.58257 0.0
C3825 C 0.74983 0.84934 0.5852 0.0
C3826 C 0.74727 0.81963 0.59832 0.0
C3827 C 0.74957 0.82864 0.61696 0.0
C3828 C 0.75245 0.84806 0.61956 0.0
C3829 C 0.75261 0.8583 0.60386 0.0
C3830 C 0.74885 0.81802 0.63388 0.0
C3831 C 0.76374 0.82234 0.64829 0.0
C3832 C 0.73346 0.80416 0.63618 0.0
C3833 C 0.71685 0.79955 0.62198 0.0
C3834 C 0.70636 0.81329 0.617 0.0
C3835 C 0.69076 0.80886 0.60353 0.0
C3836 C 0.68541 0.79069 0.59508 0.0
C3837 C 0.69563 0.77691 0.60011 0.0
C3838 C 0.71126 0.78128 0.61356 0.0
C3839 C 0.74783 0.79691 0.72061 0.0
C3840 C 0.74721 0.77785 0.72169 0.0
C3841 C 0.74694 0.80393 0.70297 0.0
C3842 C 0.74591 0.7921 0.68604 0.0
C3843 C 0.74412 0.77292 0.68699 0.0
C3844 C 0.74468 0.76581 0.70474 0.0
C3845 C 0.74787 0.80006 0.6676 0.0
C3846 C 0.73332 0.79516 0.65291 0.0
C3847 C 0.76349 0.81353 0.66507 0.0
C3848 C 0.7795 0.81893 0.67995 0.0
C3849 C 0.7894 0.80553 0.68699 0.0
C3850 C 0.80359 0.81058 0.70193 0.0
C3851 C 0.80805 0.82898 0.70988 0.0
C3852 C 0.79861 0.84245 0.70268 0.0
C3853 C 0.78442 0.83748 0.68774 0.0
H3854 H 0.81884 0.83283 0.72163 0.0
H3855 H 0.67333 0.78729 0.58466 0.0
H3856 H 0.67933 0.38121 0.52339 0.0
H3857 H 0.65513 0.40095 0.52661 0.0
H3858 H 0.69799 0.44831 0.54397 0.0
H3859 H 0.7224 0.42875 0.54025 0.0
H3860 H 0.65827 0.43963 0.56487 0.0
H3861 H 0.68873 0.45202 0.50625 0.0
H3862 H 0.70111 0.44136 0.47629 0.0
H3863 H 0.64688 0.41012 0.45644 0.0
H3864 H 0.6343 0.42032 0.48649 0.0
H3865 H 0.59519 0.50398 0.54994 0.0
H3866 H 0.62367 0.48975 0.55259 0.0
H3867 H 0.5985 0.44627 0.50893 0.0
H3868 H 0.57044 0.46058 0.50583 0.0
H3869 H 0.63249 0.45596 0.50266 0.0
H3870 H 0.60143 0.44033 0.55848 0.0
H3871 H 0.58681 0.44677 0.58837 0.0
H3872 H 0.6386 0.47967 0.61331 0.0
H3873 H 0.65346 0.47354 0.58349 0.0
C3874 C 0.68359 0.39573 0.52822 0.0
C3875 C 0.70269 0.40351 0.53141 0.0
C3876 C 0.66979 0.40697 0.53006 0.0
C3877 C 0.67491 0.42599 0.53545 0.0
C3878 C 0.69389 0.43361 0.53983 0.0
C3879 C 0.70773 0.42246 0.53762 0.0
C3880 C 0.6605 0.43806 0.53458 0.0
C3881 C 0.6528 0.44357 0.55138 0.0
C3882 C 0.65318 0.44263 0.51687 0.0
C3883 C 0.66066 0.43674 0.4987 0.0
C3884 C 0.67952 0.44272 0.49559 0.0
C3885 C 0.68655 0.43679 0.47857 0.0
C3886 C 0.67481 0.42502 0.46449 0.0
C3887 C 0.65598 0.4192 0.46738 0.0
C3888 C 0.64889 0.42505 0.48439 0.0
C3889 C 0.59579 0.4914 0.54092 0.0
C3890 C 0.58056 0.48335 0.52776 0.0
C3891 C 0.61201 0.48323 0.54251 0.0
C3892 C 0.6131 0.46677 0.53117 0.0
C3893 C 0.59799 0.45895 0.51784 0.0
C3894 C 0.5819 0.46713 0.51615 0.0
C3895 C 0.62987 0.45751 0.533 0.0
C3896 C 0.63806 0.45242 0.5163 0.0
C3897 C 0.63731 0.45299 0.55078 0.0
C3898 C 0.62846 0.45667 0.56871 0.0
C3899 C 0.60963 0.44906 0.5703 0.0
C3900 C 0.60132 0.45262 0.58722 0.0
C3901 C 0.61175 0.46369 0.60269 0.0
C3902 C 0.63053 0.47114 0.6013 0.0
C3903 C 0.63891 0.46761 0.5844 0.0
H3904 H 0.60529 0.46644 0.61579 0.0
H3905 H 0.68028 0.42045 0.45133 0.0
H3906 H 0.19969 0.07714 0.4607 0.0
H3907 H 0.16817 0.05943 0.46152 0.0
H3908 H 0.14919 0.10834 0.4863 0.0
H3909 H 0.18051 0.12623 0.48521 0.0
H3910 H 0.14454 0.0755 0.50758 0.0
H3911 H 0.13276 0.09451 0.4444 0.0
H3912 H 0.13918 0.09726 0.41089 0.0
H3913 H 0.13228 0.03809 0.39997 0.0
H3914 H 0.12608 0.03499 0.43353 0.0
H3915 H 0.0485 0.05491 0.51124 0.0
H3916 H 0.07943 0.06799 0.50295 0.0
H3917 H 0.08583 0.01525 0.47431 0.0
H3918 H 0.05452 0.00183 0.48259 0.0
H3919 H 0.09813 0.04621 0.45397 0.0
H3920 H 0.11049 0.02566 0.51471 0.0
H3921 H 0.1052 0.02053 0.54801 0.0
H3922 H 0.11221 0.07921 0.56329 0.0
H3923 H 0.1178 0.08469 0.53004 0.0
C3924 C 0.18868 0.08419 0.46596 0.0
C3925 C 0.19255 0.10302 0.47299 0.0
C3926 C 0.17073 0.07407 0.46639 0.0
C3927 C 0.15649 0.08262 0.47404 0.0
C3928 C 0.16009 0.10157 0.48036 0.0
C3929 C 0.17794 0.11176 0.47965 0.0
C3930 C 0.13834 0.07151 0.47704 0.0
C3931 C 0.13431 0.06926 0.49587 0.0
C3932 C 0.12548 0.06267 0.4617 0.0
C3933 C 0.12919 0.06453 0.44153 0.0
C3934 C 0.13281 0.08209 0.43491 0.0
C3935 C 0.13636 0.08371 0.41589 0.0
C3936 C 0.1362 0.06786 0.40332 0.0
C3937 C 0.13244 0.05035 0.40974 0.0
C3938 C 0.12889 0.04866 0.42875 0.0
C3939 C 0.05638 0.04601 0.50314 0.0
C3940 C 0.04911 0.02726 0.49772 0.0
C3941 C 0.07408 0.05354 0.49843 0.0
C3942 C 0.08495 0.04252 0.48823 0.0
C3943 C 0.0776 0.02393 0.48224 0.0
C3944 C 0.05979 0.0163 0.48703 0.0
C3945 C 0.10416 0.05066 0.48452 0.0
C3946 C 0.10845 0.05231 0.46564 0.0
C3947 C 0.11752 0.05865 0.49979 0.0
C3948 C 0.11441 0.05557 0.51987 0.0
C3949 C 0.11082 0.03747 0.52516 0.0
C3950 C 0.10779 0.0345 0.54402 0.0
C3951 C 0.10819 0.04952 0.55774 0.0
C3952 C 0.11186 0.06758 0.55265 0.0
C3953 C 0.11507 0.07063 0.53381 0.0
H3954 H 0.1057 0.04714 0.5723 0.0
H3955 H 0.13895 0.06914 0.3886 0.0
H3956 H 0.15155 0.94019 0.78937 0.0
H3957 H 0.16902 0.91426 0.78963 0.0
H3958 H 0.21769 0.94859 0.77276 0.0
H3959 H 0.20027 0.97473 0.77251 0.0
H3960 H 0.20856 0.91418 0.75089 0.0
H3961 H 0.21841 0.93773 0.81696 0.0
H3962 H 0.20916 0.94871 0.84838 0.0
H3963 H 0.17534 0.89586 0.85144 0.0
H3964 H 0.18414 0.88464 0.81991 0.0
H3965 H 0.26203 0.84013 0.7623 0.0
H3966 H 0.25235 0.87084 0.7645 0.0
H3967 H 0.20086 0.84809 0.787 0.0
H3968 H 0.21043 0.81774 0.78511 0.0
H3969 H 0.21621 0.87958 0.80733 0.0
H3970 H 0.2013 0.8575 0.74089 0.0
H3971 H 0.20812 0.84531 0.70888 0.0
H3972 H 0.24879 0.8939 0.70601 0.0
H3973 H 0.24236 0.90626 0.73814 0.0
C3974 C 0.16601 0.94229 0.78586 0.0
C3975 C 0.17454 0.95951 0.78094 0.0
C3976 C 0.176 0.92747 0.78608 0.0
C3977 C 0.19468 0.92956 0.78134 0.0
C3978 C 0.20329 0.94674 0.7765 0.0
C3979 C 0.19335 0.96165 0.77644 0.0
C3980 C 0.20485 0.91351 0.78082 0.0
C3981 C 0.21063 0.90683 0.76332 0.0
C3982 C 0.20711 0.9037 0.79695 0.0
C3983 C 0.20182 0.9104 0.81597 0.0
C3984 C 0.20887 0.92849 0.82425 0.0
C3985 C 0.20373 0.93475 0.8421 0.0
C3986 C 0.19163 0.92301 0.85188 0.0
C3987 C 0.18469 0.90496 0.84385 0.0
C3988 C 0.18977 0.89863 0.82599 0.0
C3989 C 0.24867 0.84174 0.76772 0.0
C3990 C 0.23705 0.82655 0.77364 0.0
C3991 C 0.24314 0.85925 0.76894 0.0
C3992 C 0.22588 0.86173 0.77595 0.0
C3993 C 0.21431 0.84654 0.78175 0.0
C3994 C 0.21981 0.82917 0.78061 0.0
C3995 C 0.21956 0.88004 0.77731 0.0
C3996 C 0.21449 0.88713 0.79498 0.0
C3997 C 0.21766 0.89005 0.76128 0.0
C3998 C 0.22154 0.88268 0.74199 0.0
C3999 C 0.21182 0.8655 0.73349 0.0
C4000 C 0.21558 0.85858 0.71532 0.0
C4001 C 0.22893 0.8688 0.70545 0.0
C4002 C 0.23849 0.88599 0.7137 0.0
C4003 C 0.23479 0.89296 0.73188 0.0
H4004 H 0.23182 0.86342 0.69138 0.0
H4005 H 0.18767 0.92788 0.8657 0.0
H4006 H 0.28475 0.93391 0.98221 0.0
H4007 H 0.31851 0.94258 0.98062 0.0
H4008 H 0.32746 0.88954 -0.00209 0.0
H4009 H 0.29371 0.88098 0.00011 0.0
H4010 H 0.35091 0.91556 0.01798 0.0
H4011 H 0.33254 0.90117 0.95136 0.0
H4012 H 0.31433 0.9023 0.92068 0.0
H4013 H 0.33422 0.96063 0.9229 0.0
H4014 H 0.35236 0.95991 0.95374 0.0
H4015 H 0.44686 0.92995 0.00749 0.0
H4016 H 0.41405 0.91683 -0.00225 0.0
H4017 H 0.40144 0.97138 0.9905 0.0
H4018 H 0.43436 0.98466 -1e-05 0.0
H4019 H 0.38051 0.94273 0.96352 0.0
H4020 H 0.39604 0.95665 0.03222 0.0
H4021 H 0.41632 0.95452 0.06137 0.0
H4022 H 0.40228 0.89528 0.05371 0.0
H4023 H 0.38206 0.89705 0.0244 0.0
C4024 C 0.29387 0.92401 0.9855 0.0
C4025 C 0.28655 0.90677 0.99135 0.0
C4026 C 0.31317 0.92894 0.98447 0.0
C4027 C 0.32551 0.91662 0.98891 0.0
C4028 C 0.3182 0.89926 0.9944 0.0
C4029 C 0.29891 0.89439 0.99564 0.0
C4030 C 0.34612 0.92235 0.98911 0.0
C4031 C 0.35735 0.92118 0.00591 0.0
C4032 C 0.35457 0.93001 0.97351 0.0
C4033 C 0.34369 0.93051 0.95495 0.0
C4034 C 0.33292 0.91427 0.94538 0.0
C4035 C 0.32263 0.91483 0.92795 0.0
C4036 C 0.32309 0.93154 0.91986 0.0
C4037 C 0.33387 0.94771 0.92918 0.0
C4038 C 0.34417 0.94722 0.94663 0.0
C4039 C 0.4372 0.93913 0.00344 0.0
C4040 C 0.44306 0.95836 0.00486 0.0
C4041 C 0.4185 0.9316 -0.00218 0.0
C4042 C 0.40534 0.9432 0.99376 0.0
C4043 C 0.41143 0.96224 0.99363 0.0
C4044 C 0.4302 0.96979 -0.00086 0.0
C4045 C 0.38502 0.93587 0.99229 0.0
C4046 C 0.37393 0.93689 0.97541 0.0
C4047 C 0.37664 0.92795 0.00773 0.0
C4048 C 0.3877 0.92697 0.02605 0.0
C4049 C 0.39728 0.94317 0.03677 0.0
C4050 C 0.40878 0.94204 0.05329 0.0
C4051 C 0.41071 0.92477 0.05926 0.0
C4052 C 0.40084 0.90863 0.04899 0.0
C4053 C 0.38932 0.90969 0.03245 0.0
H4054 H 0.41989 0.92389 0.07184 0.0
H4055 H 0.31511 0.93194 0.90636 0.0
H4056 H 0.86213 0.58319 0.78516 0.0
H4057 H 0.84293 0.60757 0.78424 0.0
H4058 H 0.79383 0.56708 0.76503 0.0
H4059 H 0.81318 0.54237 0.76565 0.0
H4060 H 0.79735 0.59657 0.74353 0.0
H4061 H 0.7967 0.58891 0.80986 0.0
H4062 H 0.81069 0.58457 0.84174 0.0
H4063 H 0.84693 0.63689 0.84383 0.0
H4064 H 0.83323 0.64152 0.81194 0.0
H4065 H 0.75405 0.68025 0.75005 0.0
H4066 H 0.75969 0.64838 0.75292 0.0
H4067 H 0.81671 0.6694 0.77602 0.0
H4068 H 0.81118 0.70085 0.77345 0.0
H4069 H 0.79994 0.64504 0.79774 0.0
H4070 H 0.80581 0.64937 0.72977 0.0
H4071 H 0.79398 0.65366 0.69708 0.0
H4072 H 0.74942 0.60784 0.69768 0.0
H4073 H 0.76088 0.60343 0.7305 0.0
C4074 C 0.84721 0.57937 0.78095 0.0
C4075 C 0.83917 0.56084 0.77551 0.0
C4076 C 0.83622 0.59335 0.78052 0.0
C4077 C 0.8169 0.58912 0.77481 0.0
C4078 C 0.8087 0.5706 0.76958 0.0
C4079 C 0.81975 0.55653 0.77002 0.0
C4080 C 0.80581 0.60439 0.77343 0.0
C4081 C 0.79742 0.60695 0.75549 0.0
C4082 C 0.80606 0.61796 0.78901 0.0
C4083 C 0.81394 0.61553 0.80848 0.0
C4084 C 0.80767 0.59948 0.81711 0.0
C4085 C 0.81555 0.59697 0.83518 0.0
C4086 C 0.82973 0.61042 0.84477 0.0
C4087 C 0.83598 0.62646 0.83636 0.0
C4088 C 0.82808 0.62909 0.81833 0.0
C4089 C 0.76782 0.67797 0.75551 0.0
C4090 C 0.78213 0.69303 0.76163 0.0
C4091 C 0.771 0.65981 0.7572 0.0
C4092 C 0.78858 0.65655 0.76485 0.0
C4093 C 0.80297 0.67159 0.77033 0.0
C4094 C 0.79979 0.68958 0.76877 0.0
C4095 C 0.79238 0.63768 0.76762 0.0
C4096 C 0.7993 0.63441 0.7859 0.0
C4097 C 0.7909 0.62356 0.75233 0.0
C4098 C 0.78403 0.62624 0.73265 0.0
C4099 C 0.79339 0.64032 0.72299 0.0
C4100 C 0.78677 0.64275 0.70443 0.0
C4101 C 0.77091 0.63108 0.69534 0.0
C4102 C 0.76167 0.61691 0.70477 0.0
C4103 C 0.76822 0.61443 0.72334 0.0
H4104 H 0.76582 0.63298 0.68096 0.0
H4105 H 0.83582 0.60845 0.85875 0.0
H4106 H 0.82029 0.6156 0.99507 0.0
H4107 H 0.85083 0.60509 -0.0016 0.0
H4108 H 0.82809 0.56358 0.03353 0.0
H4109 H 0.79756 0.57367 0.03001 0.0
H4110 H 0.87475 0.60371 0.0291 0.0
H4111 H 0.8478 0.52505 0.02543 0.0
H4112 H 0.8208 0.50216 0.01079 0.0
H4113 H 0.81215 0.53674 0.96616 0.0
H4114 H 0.83924 0.55971 0.98038 0.0
H4115 H 0.93606 0.52534 0.0415 0.0
H4116 H 0.90613 0.53722 0.04227 0.0
H4117 H 0.92537 0.57769 0.00454 0.0
H4118 H 0.95507 0.56596 0.0036 0.0
H4119 H 0.88051 0.53801 0.01168 0.0
H4120 H 0.90724 0.61682 0.01548 0.0
H4121 H 0.93362 0.64017 0.03065 0.0
H4122 H 0.94278 0.60533 0.0749 0.0
H4123 H 0.91642 0.58181 0.06006 0.0
C4124 C 0.82179 0.60421 0.00348 0.0
C4125 C 0.80643 0.59539 0.01215 0.0
C4126 C 0.83926 0.59826 0.00541 0.0
C4127 C 0.84166 0.5834 0.016 0.0
C4128 C 0.82646 0.57484 0.02498 0.0
C4129 C 0.80901 0.58069 0.02299 0.0
C4130 C 0.86003 0.57678 0.01771 0.0
C4131 C 0.87607 0.5894 0.02504 0.0
C4132 C 0.86163 0.55799 0.01291 0.0
C4133 C 0.84543 0.54418 0.00411 0.0
C4134 C 0.84017 0.52774 0.01246 0.0
C4135 C 0.82485 0.51476 0.00424 0.0
C4136 C 0.81473 0.51803 0.98759 0.0
C4137 C 0.81995 0.53426 0.97909 0.0
C4138 C 0.83527 0.54728 0.98725 0.0
C4139 C 0.93394 0.53685 0.03349 0.0
C4140 C 0.94793 0.54471 0.02252 0.0
C4141 C 0.91687 0.54361 0.03395 0.0
C4142 C 0.91366 0.55846 0.02364 0.0
C4143 C 0.92769 0.56643 0.01286 0.0
C4144 C 0.94463 0.55962 0.01227 0.0
C4145 C 0.89524 0.56494 0.02304 0.0
C4146 C 0.87918 0.5523 0.01583 0.0
C4147 C 0.89366 0.58371 0.02788 0.0
C4148 C 0.90992 0.59752 0.03658 0.0
C4149 C 0.91488 0.61415 0.02846 0.0
C4150 C 0.9298 0.62743 0.03702 0.0
C4151 C 0.93979 0.62428 0.05379 0.0
C4152 C 0.93498 0.60778 0.06195 0.0
C4153 C 0.92012 0.59443 0.05341 0.0
H4154 H 0.95136 0.63456 0.06037 0.0
H4155 H 0.80286 0.50797 0.98125 0.0
H4156 H 0.18872 0.05775 0.79359 0.0
H4157 H 0.21017 0.08718 0.79436 0.0
H4158 H 0.16426 0.11297 0.77292 0.0
H4159 H 0.14282 0.08391 0.77216 0.0
H4160 H 0.19538 0.1172 0.75156 0.0
H4161 H 0.18125 0.12315 0.81778 0.0
H4162 H 0.18015 0.11337 0.85022 0.0
H4163 H 0.24003 0.11529 0.85492 0.0
H4164 H 0.24145 0.12484 0.82237 0.0
H4165 H 0.21804 0.21222 0.76107 0.0
H4166 H 0.20526 0.18047 0.76523 0.0
H4167 H 0.26008 0.1711 0.78669 0.0
H4168 H 0.27321 0.20329 0.78257 0.0
H4169 H 0.23053 0.15596 0.80788 0.0
H4170 H 0.24553 0.15103 0.74303 0.0
H4171 H 0.24738 0.15942 0.71012 0.0
H4172 H 0.18726 0.15499 0.70283 0.0
H4173 H 0.18505 0.14624 0.73559 0.0
C4174 C 0.18315 0.06976 0.78928 0.0
C4175 C 0.16406 0.06841 0.78267 0.0
C4176 C 0.19542 0.08655 0.78977 0.0
C4177 C 0.18878 0.10219 0.78361 0.0
C4178 C 0.16966 0.10102 0.77764 0.0
C4179 C 0.15742 0.08436 0.77726 0.0
C4180 C 0.20174 0.11955 0.78204 0.0
C4181 C 0.20301 0.12569 0.7639 0.0
C4182 C 0.2123 0.13023 0.79803 0.0
C4183 C 0.21143 0.12447 0.81755 0.0
C4184 C 0.19416 0.1213 0.82565 0.0
C4185 C 0.19348 0.11584 0.84408 0.0
C4186 C 0.21 0.11364 0.8546 0.0
C4187 C 0.22724 0.11695 0.84674 0.0
C4188 C 0.22799 0.1224 0.82831 0.0
C4189 C 0.22748 0.20351 0.76669 0.0
C4190 C 0.24671 0.21028 0.77134 0.0
C4191 C 0.22012 0.1853 0.76901 0.0
C4192 C 0.23177 0.17336 0.77597 0.0
C4193 C 0.25089 0.18011 0.78119 0.0
C4194 C 0.25835 0.19846 0.77881 0.0
C4195 C 0.22358 0.15385 0.77748 0.0
C4196 C 0.22321 0.14727 0.79552 0.0
C4197 C 0.21393 0.14259 0.76139 0.0
C4198 C 0.21515 0.14811 0.74178 0.0
C4199 C 0.23272 0.15196 0.73443 0.0
C4200 C 0.23383 0.15673 0.71579 0.0
C4201 C 0.21746 0.15791 0.70444 0.0
C4202 C 0.19994 0.15413 0.71164 0.0
C4203 C 0.19874 0.14915 0.73021 0.0
H4204 H 0.21837 0.16167 0.69004 0.0
H4205 H 0.20944 0.10942 0.86886 0.0
H4206 H 0.38753 0.94798 0.28376 0.0
H4207 H 0.37275 0.91624 0.28598 0.0
H4208 H 0.31796 0.93272 0.2804 0.0
H4209 H 0.33274 0.96478 0.27864 0.0
H4210 H 0.31913 0.90693 0.30561 0.0
H4211 H 0.33558 0.91349 0.2418 0.0
H4212 H 0.35651 0.92227 0.21694 0.0
H4213 H 0.39282 0.8847 0.23465 0.0
H4214 H 0.37223 0.87588 0.2598 0.0
H4215 H 0.26958 0.81628 0.27008 0.0
H4216 H 0.2827 0.84912 0.27696 0.0
H4217 H 0.33868 0.83534 0.28211 0.0
H4218 H 0.32572 0.80256 0.27495 0.0
H4219 H 0.33591 0.86017 0.25744 0.0
H4220 H 0.31815 0.85288 0.32096 0.0
H4221 H 0.29641 0.84412 0.34514 0.0
H4222 H 0.26141 0.8827 0.32709 0.0
H4223 H 0.28281 0.89151 0.30261 0.0
C4224 C 0.37234 0.94493 0.28317 0.0
C4225 C 0.3613 0.95887 0.28075 0.0
C4226 C 0.3639 0.92676 0.28442 0.0
C4227 C 0.34424 0.92204 0.28295 0.0
C4228 C 0.33316 0.93605 0.28148 0.0
C4229 C 0.34162 0.95435 0.28042 0.0
C4230 C 0.3354 0.90233 0.28177 0.0
C4231 C 0.32262 0.89671 0.29497 0.0
C4232 C 0.34011 0.88898 0.268 0.0
C4233 C 0.35245 0.89416 0.25279 0.0
C4234 C 0.34809 0.9072 0.24048 0.0
C4235 C 0.35989 0.91217 0.22632 0.0
C4236 C 0.37601 0.90408 0.22425 0.0
C4237 C 0.38034 0.89097 0.23629 0.0
C4238 C 0.36861 0.88597 0.25048 0.0
C4239 C 0.28466 0.82022 0.27307 0.0
C4240 C 0.29664 0.80684 0.2718 0.0
C4241 C 0.29213 0.839 0.27706 0.0
C4242 C 0.31168 0.8447 0.28004 0.0
C4243 C 0.32356 0.83126 0.27977 0.0
C4244 C 0.31612 0.81253 0.27569 0.0
C4245 C 0.3199 0.8646 0.28153 0.0
C4246 C 0.33247 0.87032 0.26821 0.0
C4247 C 0.31485 0.87797 0.29508 0.0
C4248 C 0.302 0.87273 0.30983 0.0
C4249 C 0.30574 0.85939 0.32204 0.0
C4250 C 0.29349 0.85444 0.33582 0.0
C4251 C 0.27752 0.86281 0.33761 0.0
C4252 C 0.27378 0.8762 0.32566 0.0
C4253 C 0.28597 0.8812 0.31185 0.0
H4254 H 0.26805 0.85896 0.34829 0.0
H4255 H 0.38512 0.90795 0.21328 0.0
H4256 H 0.499 0.34175 0.62788 0.0
H4257 H 0.49228 0.36706 0.60992 0.0
H4258 H 0.5066 0.33814 0.55845 0.0
H4259 H 0.51384 0.31282 0.57656 0.0
H4260 H 0.52429 0.37201 0.5625 0.0
H4261 H 0.46066 0.34553 0.56395 0.0
H4262 H 0.43212 0.33143 0.57759 0.0
H4263 H 0.43326 0.38117 0.61485 0.0
H4264 H 0.46197 0.39551 0.60165 0.0
H4265 H 0.50963 0.45322 0.52028 0.0
H4266 H 0.50132 0.42044 0.52511 0.0
H4267 H 0.49662 0.43569 0.58479 0.0
H4268 H 0.50501 0.46832 0.58011 0.0
H4269 H 0.46972 0.40502 0.56886 0.0
H4270 H 0.53695 0.42825 0.57051 0.0
H4271 H 0.56542 0.44188 0.5564 0.0
H4272 H 0.55689 0.39654 0.5122 0.0
H4273 H 0.52795 0.38298 0.52565 0.0
C4274 C 0.50045 0.3406 0.61268 0.0
C4275 C 0.50704 0.32531 0.60367 0.0
C4276 C 0.49645 0.35505 0.60237 0.0
C4277 C 0.4987 0.35444 0.58275 0.0
C4278 C 0.50469 0.33889 0.57356 0.0
C4279 C 0.5088 0.32443 0.58391 0.0
C4280 C 0.49669 0.37092 0.57251 0.0
C4281 C 0.5121 0.37892 0.56342 0.0
C4282 C 0.48088 0.38009 0.57384 0.0
C4283 C 0.46356 0.37157 0.58184 0.0
C4284 C 0.45491 0.35343 0.57514 0.0
C4285 C 0.43868 0.3454 0.58279 0.0
C4286 C 0.43089 0.35539 0.59709 0.0
C4287 C 0.4393 0.37345 0.60376 0.0
C4288 C 0.45554 0.38155 0.59617 0.0
C4289 C 0.5063 0.44958 0.5343 0.0
C4290 C 0.50817 0.46326 0.54989 0.0
C4291 C 0.5016 0.43088 0.53703 0.0
C4292 C 0.49857 0.42568 0.55535 0.0
C4293 C 0.49891 0.43942 0.57056 0.0
C4294 C 0.50381 0.45805 0.56789 0.0
C4295 C 0.49747 0.40616 0.55943 0.0
C4296 C 0.48158 0.3977 0.56744 0.0
C4297 C 0.51277 0.39648 0.557 0.0
C4298 C 0.53013 0.40473 0.54893 0.0
C4299 C 0.541 0.4213 0.55765 0.0
C4300 C 0.55725 0.429 0.54979 0.0
C4301 C 0.56298 0.42005 0.53346 0.0
C4302 C 0.55241 0.40346 0.52485 0.0
C4303 C 0.53606 0.3958 0.53254 0.0
H4304 H 0.57565 0.42589 0.52751 0.0
H4305 H 0.41833 0.34914 0.60299 0.0
H4306 H 0.45289 0.74422 0.32189 0.0
H4307 H 0.42019 0.73713 0.30856 0.0
H4308 H 0.40181 0.74491 0.36512 0.0
H4309 H 0.43473 0.75094 0.37865 0.0
H4310 H 0.37818 0.71873 0.34512 0.0
H4311 H 0.40476 0.77992 0.33485 0.0
H4312 H 0.42781 0.80465 0.3247 0.0
H4313 H 0.41746 0.77975 0.26673 0.0
H4314 H 0.39452 0.75471 0.27658 0.0
H4315 H 0.29048 0.74518 0.31302 0.0
H4316 H 0.32128 0.74225 0.32793 0.0
H4317 H 0.33906 0.72626 0.2727 0.0
H4318 H 0.30827 0.72938 0.25756 0.0
H4319 H 0.36235 0.75581 0.29267 0.0
H4320 H 0.33229 0.69524 0.30569 0.0
H4321 H 0.30746 0.67405 0.31837 0.0
H4322 H 0.32233 0.70233 0.3746 0.0
H4323 H 0.34711 0.72385 0.36222 0.0
C4324 C 0.44186 0.74423 0.33149 0.0
C4325 C 0.44624 0.74839 0.35124 0.0
C4326 C 0.42319 0.74023 0.32387 0.0
C4327 C 0.40854 0.74103 0.33578 0.0
C4328 C 0.41288 0.74433 0.35565 0.0
C4329 C 0.43164 0.74784 0.36335 0.0
C4330 C 0.3889 0.73952 0.3273 0.0
C4331 C 0.37468 0.72694 0.33376 0.0
C4332 C 0.38429 0.75028 0.3125 0.0
C4333 C 0.39806 0.76533 0.30649 0.0
C4334 C 0.4075 0.77964 0.31996 0.0
C4335 C 0.42053 0.79372 0.31425 0.0
C4336 C 0.42414 0.79374 0.29509 0.0
C4337 C 0.41468 0.7797 0.28157 0.0
C4338 C 0.40165 0.76556 0.28721 0.0
C4339 C 0.30086 0.74081 0.30404 0.0
C4340 C 0.29705 0.73772 0.28408 0.0
C4341 C 0.31839 0.73899 0.31263 0.0
C4342 C 0.33238 0.73395 0.30142 0.0
C4343 C 0.32838 0.73011 0.28157 0.0
C4344 C 0.3108 0.73188 0.27296 0.0
C4345 C 0.35175 0.73473 0.31013 0.0
C4346 C 0.3659 0.74741 0.30385 0.0
C4347 C 0.35607 0.7245 0.32545 0.0
C4348 C 0.34149 0.71125 0.33299 0.0
C4349 C 0.33022 0.697 0.32074 0.0
C4350 C 0.31616 0.68492 0.32788 0.0
C4351 C 0.3133 0.68687 0.34727 0.0
C4352 C 0.32456 0.70084 0.35959 0.0
C4353 C 0.33864 0.71296 0.35252 0.0
H4354 H 0.30236 0.67753 0.35273 0.0
H4355 H 0.43423 0.80466 0.2907 0.0
H4356 H 0.03177 0.70056 0.13856 0.0
H4357 H 0.03441 0.67176 0.11992 0.0
H4358 H 0.02293 0.69609 0.06783 0.0
H4359 H 0.01976 0.72507 0.08655 0.0
H4360 H 0.0045 0.66179 0.06551 0.0
H4361 H 0.06779 0.68954 0.08155 0.0
H4362 H 0.09569 0.70574 0.10192 0.0
H4363 H 0.09365 0.66009 0.13596 0.0
H4364 H 0.06555 0.64371 0.11599 0.0
H4365 H 0.02154 0.57543 0.02203 0.0
H4366 H 0.02928 0.60902 0.03 0.0
H4367 H 0.0321 0.60151 0.08996 0.0
H4368 H 0.02446 0.56807 0.08217 0.0
H4369 H 0.0591 0.63045 0.08092 0.0
H4370 H 0.99199 0.6056 0.06585 0.0
H4371 H 0.96589 0.58918 0.04323 0.0
H4372 H 0.9766 0.63088 0.00487 0.0
H4373 H 0.00331 0.64716 0.02692 0.0
C4374 C 0.02981 0.69986 0.12314 0.0
C4375 C 0.02569 0.71518 0.11404 0.0
C4376 C 0.03144 0.68339 0.11248 0.0
C4377 C 0.02934 0.68191 0.09245 0.0
C4378 C 0.02478 0.697 0.08326 0.0
C4379 C 0.02296 0.71352 0.09398 0.0
C4380 C 0.03159 0.66435 0.08142 0.0
C4381 C 0.01664 0.65513 0.06854 0.0
C4382 C 0.04749 0.65568 0.08524 0.0
C4383 C 0.06448 0.66542 0.09729 0.0
C4384 C 0.07321 0.68299 0.09345 0.0
C4385 C 0.08907 0.69221 0.10492 0.0
C4386 C 0.09642 0.68396 0.12023 0.0
C4387 C 0.08794 0.66646 0.12408 0.0
C4388 C 0.07206 0.65719 0.11267 0.0
C4389 C 0.0243 0.58093 0.0369 0.0
C4390 C 0.02212 0.56918 0.05151 0.0
C4391 C 0.02869 0.6001 0.0414 0.0
C4392 C 0.03098 0.60769 0.06055 0.0
C4393 C 0.03033 0.59589 0.0751 0.0
C4394 C 0.02585 0.5768 0.07062 0.0
C4395 C 0.03173 0.62773 0.06575 0.0
C4396 C 0.04723 0.63738 0.07754 0.0
C4397 C 0.01646 0.63686 0.0607 0.0
C4398 C -0.00014 0.62745 0.04791 0.0
C4399 C 0.98893 0.61117 0.05251 0.0
C4400 C 0.97408 0.60183 0.03974 0.0
C4401 C 0.96966 0.60893 0.02257 0.0
C4402 C 0.98009 0.62536 0.01813 0.0
C4403 C 0.99515 0.6346 0.03072 0.0
H4404 H 0.95805 0.6018 0.01278 0.0
H4405 H 0.1087 0.69112 0.1291 0.0
H4406 H 0.07596 0.28 0.8889 0.0
H4407 H 0.10503 0.28693 0.87322 0.0
H4408 H 0.08485 0.24154 0.8298 0.0
H4409 H 0.05554 0.2353 0.84481 0.0
H4410 H 0.13225 0.27056 0.86635 0.0
H4411 H 0.09917 0.24851 0.78763 0.0
H4412 H 0.06959 0.24981 0.7684 0.0
H4413 H 0.05904 0.29479 0.80714 0.0
H4414 H 0.08869 0.29395 0.82646 0.0
H4415 H 0.19728 0.23979 0.81005 0.0
H4416 H 0.16902 0.24401 0.82548 0.0
H4417 H 0.16368 0.29145 0.79496 0.0
H4418 H 0.19207 0.28715 0.7791 0.0
H4419 H 0.1302 0.27077 0.79595 0.0
H4420 H 0.17924 0.29831 0.84057 0.0
H4421 H 0.20952 0.3023 0.85979 0.0
H4422 H 0.18913 0.25652 0.89043 0.0
H4423 H 0.15874 0.25187 0.87084 0.0
C4424 C 0.07783 0.27151 0.87604 0.0
C4425 C 0.06353 0.25721 0.86794 0.0
C4426 C 0.09439 0.2755 0.86706 0.0
C4427 C 0.09694 0.26507 0.85003 0.0
C4428 C 0.08296 0.25023 0.84252 0.0
C4429 C 0.0663 0.24653 0.85121 0.0
C4430 C 0.11437 0.26921 0.84028 0.0
C4431 C 0.13178 0.27072 0.85099 0.0
C4432 C 0.11387 0.27032 0.82031 0.0
C4433 C 0.09613 0.27108 0.80857 0.0
C4434 C 0.09061 0.25876 0.79199 0.0
C4435 C 0.07381 0.2594 0.78108 0.0
C4436 C 0.06242 0.27235 0.78657 0.0
C4437 C 0.06784 0.28473 0.80294 0.0
C4438 C 0.08464 0.28416 0.81388 0.0
C4439 C 0.19011 0.25112 0.80653 0.0
C4440 C 0.19698 0.26323 0.79346 0.0
C4441 C 0.17399 0.25356 0.81545 0.0
C4442 C 0.16448 0.26826 0.81166 0.0
C4443 C 0.17091 0.28009 0.79816 0.0
C4444 C 0.18709 0.27761 0.78912 0.0
C4445 C 0.14782 0.27099 0.82193 0.0
C4446 C 0.13061 0.27086 0.81134 0.0
C4447 C 0.14857 0.27199 0.84209 0.0
C4448 C 0.16674 0.27464 0.85409 0.0
C4449 C 0.18124 0.28896 0.85126 0.0
C4450 C 0.19847 0.29133 0.86224 0.0
C4451 C 0.20133 0.27965 0.87635 0.0
C4452 C 0.18691 0.26555 0.87948 0.0
C4453 C 0.16967 0.26302 0.8684 0.0
H4454 H 0.21468 0.28154 0.88489 0.0
H4455 H 0.04941 0.2728 0.77812 0.0
H4456 H 0.4949 0.69456 0.90582 0.0
H4457 H 0.48736 0.66819 0.9239 0.0
H4458 H 0.50322 0.70355 0.97662 0.0
H4459 H 0.51148 0.73004 0.95845 0.0
H4460 H 0.51862 0.67412 0.97785 0.0
H4461 H 0.45619 0.6837 0.96263 0.0
H4462 H 0.4289 0.68968 0.94244 0.0
H4463 H 0.42803 0.63835 0.90788 0.0
H4464 H 0.45548 0.63217 0.92768 0.0
H4465 H 0.4948 0.58908 0.02008 0.0
H4466 H 0.49105 0.62045 0.0127 0.0
H4467 H 0.48831 0.60261 0.95251 0.0
H4468 H 0.49229 0.57156 0.95972 0.0
H4469 H 0.46184 0.62627 0.96243 0.0
H4470 H 0.52867 0.62177 0.97361 0.0
H4471 H 0.55621 0.61589 0.99354 0.0
H4472 H 0.54778 0.6584 0.03642 0.0
H4473 H 0.52001 0.66434 0.01682 0.0
C4474 C 0.49657 0.6968 0.92127 0.0
C4475 C 0.50382 0.71437 0.93071 0.0
C4476 C 0.4921 0.68171 0.93162 0.0
C4477 C 0.49438 0.68391 0.95167 0.0
C4478 C 0.50124 0.70154 0.96117 0.0
C4479 C 0.50594 0.71665 0.95078 0.0
C4480 C 0.49115 0.66742 0.9624 0.0
C4481 C 0.50595 0.66393 0.97489 0.0
C4482 C 0.47468 0.654 0.95849 0.0
C4483 C 0.45797 0.65751 0.94664 0.0
C4484 C 0.45024 0.67372 0.95067 0.0
C4485 C 0.43474 0.67715 0.93929 0.0
C4486 C 0.42675 0.66442 0.92387 0.0
C4487 C 0.43423 0.6482 0.91984 0.0
C4488 C 0.44974 0.64471 0.93116 0.0
C4489 C 0.49314 0.59185 0.0053 0.0
C4490 C 0.49404 0.57799 0.99047 0.0
C4491 C 0.491 0.60971 0.00112 0.0
C4492 C 0.48943 0.61378 0.98207 0.0
C4493 C 0.48941 0.59971 0.96729 0.0
C4494 C 0.49185 0.58202 0.97144 0.0
C4495 C 0.48951 0.63293 0.97722 0.0
C4496 C 0.47417 0.63683 0.96583 0.0
C4497 C 0.50539 0.64679 0.98222 0.0
C4498 C 0.52215 0.64332 0.99389 0.0
C4499 C 0.53261 0.62975 0.98736 0.0
C4500 C 0.54827 0.62642 -0.00142 0.0
C4501 C 0.5537 0.63672 0.01627 0.0
C4502 C 0.54353 0.65041 0.02274 0.0
C4503 C 0.52783 0.65376 0.01159 0.0
H4504 H 0.56583 0.63413 0.02493 0.0
H4505 H 0.41477 0.66711 0.91506 0.0
H4506 H 0.07421 0.75718 0.63463 0.0
H4507 H 0.10529 0.75656 0.65056 0.0
H4508 H 0.08314 0.76311 0.70543 0.0
H4509 H 0.05212 0.76414 0.68962 0.0
H4510 H 0.11655 0.78409 0.70611 0.0
H4511 H 0.09091 0.72087 0.68652 0.0
H4512 H 0.07593 0.69399 0.66426 0.0
H4513 H 0.12274 0.70108 0.63005 0.0
H4514 H 0.13788 0.72819 0.65196 0.0
H4515 H 0.19637 0.76 0.75664 0.0
H4516 H 0.16367 0.75594 0.74286 0.0
H4517 H 0.1827 0.75917 0.6866 0.0
H4518 H 0.21537 0.76339 0.70024 0.0
H4519 H 0.15008 0.7317 0.68867 0.0
H4520 H 0.1743 0.79653 0.70798 0.0
H4521 H 0.18961 0.82219 0.73158 0.0
H4522 H 0.14498 0.81071 0.76782 0.0
H4523 H 0.12958 0.7847 0.74458 0.0
C4524 C 0.07599 0.75858 0.65009 0.0
C4525 C 0.06072 0.7606 0.66087 0.0
C4526 C 0.09372 0.75813 0.65917 0.0
C4527 C 0.09644 0.75946 0.67918 0.0
C4528 C 0.08133 0.76198 0.68998 0.0
C4529 C 0.06362 0.76254 0.68092 0.0
C4530 C 0.11503 0.75808 0.68881 0.0
C4531 C 0.12373 0.77249 0.70249 0.0
C4532 C 0.12449 0.743 0.684 0.0
C4533 C 0.11545 0.72667 0.6708 0.0
C4534 C 0.09794 0.71679 0.67417 0.0
C4535 C 0.08943 0.7015 0.66163 0.0
C4536 C 0.09835 0.69586 0.64573 0.0
C4537 C 0.11583 0.70548 0.64236 0.0
C4538 C 0.12439 0.7208 0.65484 0.0
C4539 C 0.19355 0.75945 0.7413 0.0
C4540 C 0.20835 0.76216 0.72949 0.0
C4541 C 0.17492 0.7572 0.73348 0.0
C4542 C 0.17089 0.75744 0.71377 0.0
C4543 C 0.18559 0.75897 0.70185 0.0
C4544 C 0.20421 0.76146 0.70966 0.0
C4545 C 0.15153 0.75775 0.7057 0.0
C4546 C 0.14274 0.74318 0.69234 0.0
C4547 C 0.14193 0.77257 0.71092 0.0
C4548 C 0.15087 0.78856 0.72462 0.0
C4549 C 0.1678 0.79941 0.72103 0.0
C4550 C 0.17649 0.81402 0.73433 0.0
C4551 C 0.16828 0.81808 0.75119 0.0
C4552 C 0.15133 0.80755 0.75475 0.0
C4553 C 0.1426 0.79287 0.74152 0.0
H4554 H 0.17501 0.82942 0.76145 0.0
H4555 H 0.09174 0.68401 0.63603 0.0
H4556 H 0.03169 0.31098 0.44434 0.0
H4557 H 0.03412 0.33929 0.46605 0.0
H4558 H 0.04703 0.37208 0.41965 0.0
H4559 H 0.04511 0.34396 0.39801 0.0
H4560 H 0.06752 0.38745 0.45139 0.0
H4561 H 0.00211 0.36294 0.43331 0.0
H4562 H 0.97359 0.33927 0.42993 0.0
H4563 H 0.97725 0.33715 0.49064 0.0
H4564 H 0.00595 0.36066 0.49434 0.0
H4565 H 0.02879 0.46917 0.47162 0.0
H4566 H 0.0372 0.43967 0.45937 0.0
H4567 H 0.03153 0.41961 0.51452 0.0
H4568 H 0.02329 0.44932 0.52702 0.0
H4569 H 0.01037 0.39657 0.48361 0.0
H4570 H 0.07299 0.4273 0.5007 0.0
H4571 H 0.09967 0.45279 0.50208 0.0
H4572 H 0.10017 0.44481 0.44116 0.0
H4573 H 0.07327 0.41944 0.43935 0.0
C4574 C 0.03524 0.32422 0.43879 0.0
C4575 C 0.038 0.3252 0.41938 0.0
C4576 C 0.03659 0.34038 0.45122 0.0
C4577 C 0.04049 0.3578 0.44441 0.0
C4578 C 0.04402 0.3588 0.42523 0.0
C4579 C 0.04282 0.34267 0.41284 0.0
C4580 C 0.03968 0.37501 0.4568 0.0
C4581 C 0.05503 0.38949 0.45841 0.0
C4582 C 0.02351 0.37751 0.46627 0.0
C4583 C 0.0063 0.36336 0.46407 0.0
C4584 C -0.00308 0.3573 0.44592 0.0
C4585 C 0.98071 0.34395 0.44394 0.0
C4586 C 0.97365 0.33667 0.46005 0.0
C4587 C 0.98276 0.34277 0.47817 0.0
C4588 C -0.001 0.35611 0.48022 0.0
C4589 C 0.0296 0.45858 0.48123 0.0
C4590 C 0.02533 0.46149 0.50025 0.0
C4591 C 0.03449 0.44178 0.47423 0.0
C4592 C 0.03506 0.42754 0.48609 0.0
C4593 C 0.03124 0.43052 0.50522 0.0
C4594 C 0.02661 0.44747 0.51233 0.0
C4595 C 0.03805 0.40911 0.47788 0.0
C4596 C 0.02306 0.39441 0.47698 0.0
C4597 C 0.05442 0.40657 0.46881 0.0
C4598 C 0.0709 0.42159 0.46986 0.0
C4599 C 0.07865 0.43107 0.48756 0.0
C4600 C 0.09384 0.44549 0.48842 0.0
C4601 C 0.10154 0.45047 0.4717 0.0
C4602 C 0.09413 0.44097 0.45409 0.0
C4603 C 0.07892 0.42656 0.45314 0.0
H4604 H 0.11329 0.46166 0.4724 0.0
H4605 H 0.9611 0.32633 0.4585 0.0
H4606 H 0.46149 0.24474 0.20048 0.0
H4607 H 0.43127 0.24778 0.21263 0.0
H4608 H 0.40807 0.25366 0.15583 0.0
H4609 H 0.43868 0.25147 0.14371 0.0
H4610 H 0.39443 0.27565 0.18047 0.0
H4611 H 0.40085 0.21166 0.17568 0.0
H4612 H 0.41612 0.18451 0.18083 0.0
H4613 H 0.41524 0.1959 0.24145 0.0
H4614 H 0.40019 0.22328 0.23668 0.0
H4615 H 0.29839 0.24457 0.1963 0.0
H4616 H 0.32994 0.24869 0.1853 0.0
H4617 H 0.35416 0.25194 0.24341 0.0
H4618 H 0.32262 0.24787 0.25459 0.0
H4619 H 0.36709 0.22612 0.21828 0.0
H4620 H 0.35742 0.28949 0.22124 0.0
H4621 H 0.33997 0.3147 0.21404 0.0
H4622 H 0.34485 0.30251 0.15418 0.0
H4623 H 0.36191 0.27688 0.16095 0.0
C4624 C 0.44998 0.24677 0.19058 0.0
C4625 C 0.45235 0.24763 0.1711 0.0
C4626 C 0.43269 0.24846 0.19754 0.0
C4627 C 0.41726 0.25049 0.18507 0.0
C4628 C 0.41976 0.25201 0.1657 0.0
C4629 C 0.43721 0.25069 0.15878 0.0
C4630 C 0.39841 0.25029 0.19218 0.0
C4631 C 0.38836 0.26472 0.18856 0.0
C4632 C 0.39054 0.23612 0.2029 0.0
C4633 C 0.39956 0.21963 0.20583 0.0
C4634 C 0.40404 0.20845 0.19012 0.0
C4635 C 0.41263 0.19301 0.19297 0.0
C4636 C 0.4167 0.18851 0.21146 0.0
C4637 C 0.41212 0.19942 0.22714 0.0
C4638 C 0.40354 0.2149 0.22437 0.0
C4639 C 0.31044 0.24629 0.20675 0.0
C4640 C 0.30809 0.24575 0.22629 0.0
C4641 C 0.32842 0.24876 0.20045 0.0
C4642 C 0.34431 0.25066 0.21356 0.0
C4643 C 0.34202 0.25051 0.23311 0.0
C4644 C 0.32404 0.24823 0.23946 0.0
C4645 C 0.36324 0.25152 0.20673 0.0
C4646 C 0.37324 0.23712 0.21031 0.0
C4647 C 0.37081 0.2655 0.19568 0.0
C4648 C 0.36081 0.28113 0.1916 0.0
C4649 C 0.35463 0.29206 0.20652 0.0
C4650 C 0.3448 0.30643 0.20251 0.0
C4651 C 0.34124 0.31016 0.18366 0.0
C4652 C 0.34759 0.29958 0.16878 0.0
C4653 C 0.35733 0.28512 0.17269 0.0
H4654 H 0.33361 0.32128 0.18058 0.0
H4655 H 0.42335 0.17655 0.21363 0.0
H4656 H 0.56367 0.49116 0.31677 0.0
H4657 H 0.55036 0.48665 0.34712 0.0
H4658 H 0.60585 0.50143 0.37674 0.0
H4659 H 0.61933 0.50471 0.34609 0.0
H4660 H 0.58685 0.47719 0.39478 0.0
H4661 H 0.57399 0.53356 0.37123 0.0
H4662 H 0.56222 0.55312 0.34798 0.0
H4663 H 0.50631 0.52317 0.34798 0.0
H4664 H 0.5178 0.50327 0.37106 0.0
H4665 H 0.5618 0.51651 0.48294 0.0
H4666 H 0.57337 0.51043 0.45181 0.0
H4667 H 0.51727 0.48636 0.42826 0.0
H4668 H 0.50546 0.49251 0.45954 0.0
H4669 H 0.535 0.51266 0.407 0.0
H4670 H 0.54969 0.45914 0.43563 0.0
H4671 H 0.56334 0.44341 0.46137 0.0
H4672 H 0.61839 0.47204 0.45425 0.0
H4673 H 0.60504 0.48824 0.42871 0.0
C4674 C 0.57304 0.49313 0.32975 0.0
C4675 C 0.59248 0.49847 0.32918 0.0
C4676 C 0.56542 0.49067 0.34711 0.0
C4677 C 0.577 0.49429 0.36434 0.0
C4678 C 0.59658 0.49867 0.36368 0.0
C4679 C 0.60428 0.50058 0.3462 0.0
C4680 C 0.56859 0.49472 0.38298 0.0
C4681 C 0.5756 0.48504 0.39748 0.0
C4682 C 0.55375 0.50483 0.38654 0.0
C4683 C 0.54679 0.5168 0.3727 0.0
C4684 C 0.55921 0.53107 0.36617 0.0
C4685 C 0.55258 0.54222 0.35304 0.0
C4686 C 0.53354 0.53935 0.34646 0.0
C4687 C 0.52106 0.52535 0.35305 0.0
C4688 C 0.52762 0.51414 0.36617 0.0
C4689 C 0.55189 0.50984 0.47118 0.0
C4690 C 0.53267 0.50505 0.47368 0.0
C4691 C 0.55858 0.50625 0.45343 0.0
C4692 C 0.54622 0.49776 0.43779 0.0
C4693 C 0.52704 0.49283 0.44021 0.0
C4694 C 0.52033 0.49632 0.45806 0.0
C4695 C 0.55325 0.49518 0.4187 0.0
C4696 C 0.54604 0.50456 0.40417 0.0
C4697 C 0.56819 0.48521 0.41535 0.0
C4698 C 0.57633 0.47501 0.4303 0.0
C4699 C 0.5647 0.46216 0.43961 0.0
C4700 C 0.57238 0.45316 0.45417 0.0
C4701 C 0.59171 0.45675 0.45946 0.0
C4702 C 0.60341 0.46929 0.45014 0.0
C4703 C 0.5958 0.47837 0.4356 0.0
H4704 H 0.59763 0.44979 0.47076 0.0
H4705 H 0.52844 0.548 0.3363 0.0
H4706 H 0.26767 0.86267 0.07339 0.0
H4707 H 0.27695 0.84486 0.09893 0.0
H4708 H 0.24588 0.79487 0.06795 0.0
H4709 H 0.23609 0.81277 0.04246 0.0
H4710 H 0.23764 0.7972 0.10341 0.0
H4711 H 0.29493 0.80258 0.07385 0.0
H4712 H 0.32218 0.81817 0.05924 0.0
H4713 H 0.34054 0.85218 0.11194 0.0
H4714 H 0.31326 0.83699 0.12681 0.0
H4715 H 0.26682 0.75159 0.18199 0.0
H4716 H 0.26734 0.75882 0.14874 0.0
H4717 H 0.28594 0.81649 0.16823 0.0
H4718 H 0.28521 0.80944 0.20132 0.0
H4719 H 0.30244 0.80377 0.13475 0.0
H4720 H 0.24161 0.80372 0.16055 0.0
H4721 H 0.21453 0.78896 0.17599 0.0
H4722 H 0.20329 0.74514 0.13013 0.0
H4723 H 0.23054 0.75957 0.11453 0.0
C4724 C 0.26296 0.84785 0.07189 0.0
C4725 C 0.2511 0.83913 0.05594 0.0
C4726 C 0.26841 0.83765 0.08645 0.0
C4727 C 0.26237 0.81846 0.08524 0.0
C4728 C 0.2508 0.80964 0.06914 0.0
C4729 C 0.24521 0.81988 0.05461 0.0
C4730 C 0.26687 0.80803 0.10155 0.0
C4731 C 0.25189 0.79821 0.1099 0.0
C4732 C 0.28543 0.80955 0.11026 0.0
C4733 C 0.30197 0.81868 0.10142 0.0
C4734 C 0.30471 0.81346 0.0823 0.0
C4735 C 0.32018 0.82222 0.07397 0.0
C4736 C 0.33307 0.83617 0.08465 0.0
C4737 C 0.33055 0.84137 0.10369 0.0
C4738 C 0.31509 0.83266 0.11209 0.0
C4739 C 0.2715 0.76571 0.17914 0.0
C4740 C 0.27577 0.78001 0.19415 0.0
C4741 C 0.27177 0.76981 0.16019 0.0
C4742 C 0.27656 0.7882 0.15611 0.0
C4743 C 0.28226 0.80222 0.17111 0.0
C4744 C 0.28171 0.79819 0.18999 0.0
C4745 C 0.27321 0.79339 0.13657 0.0
C4746 C 0.28833 0.8023 0.12777 0.0
C4747 C 0.25481 0.79107 0.12741 0.0
C4748 C 0.23822 0.78258 0.13651 0.0
C4749 C 0.23344 0.79087 0.15383 0.0
C4750 C 0.21805 0.78258 0.1626 0.0
C4751 C 0.20723 0.76608 0.15409 0.0
C4752 C 0.21172 0.7579 0.13673 0.0
C4753 C 0.22713 0.76613 0.12791 0.0
H4754 H 0.19535 0.75966 0.16092 0.0
H4755 H 0.34504 0.84294 0.07817 0.0
H4756 H 0.95243 0.53856 0.81266 0.0
H4757 H 0.96852 0.5449 0.84475 0.0
H4758 H 0.91571 0.53025 0.86879 0.0
H4759 H 0.89937 0.52472 0.83658 0.0
H4760 H 0.93848 0.55678 0.89215 0.0
H4761 H 0.94369 0.49779 0.85919 0.0
H4762 H 0.95108 0.47674 0.83259 0.0
H4763 H 0.00871 0.50339 0.83954 0.0
H4764 H 0.00159 0.52478 0.86604 0.0
H4765 H 0.9663 0.51578 0.97374 0.0
H4766 H 0.95334 0.52352 0.9433 0.0
H4767 H 0.00938 0.54084 0.92744 0.0
H4768 H 0.02262 0.53288 0.95803 0.0
H4769 H 0.98742 0.51678 0.90014 0.0
H4770 H 0.98157 0.57268 0.93787 0.0
H4771 H 0.97274 0.59058 0.9661 0.0
H4772 H 0.91473 0.56696 0.95186 0.0
H4773 H 0.92322 0.54867 0.92369 0.0
C4774 C 0.94421 0.53706 0.82482 0.0
C4775 C 0.92474 0.53084 0.82222 0.0
C4776 C 0.9534 0.54069 0.84312 0.0
C4777 C 0.94338 0.53756 0.85912 0.0
C4778 C 0.92372 0.53266 0.85663 0.0
C4779 C 0.91441 0.52943 0.83825 0.0
C4780 C 0.95365 0.53723 0.878 0.0
C4781 C 0.94915 0.54802 0.89394 0.0
C4782 C 0.96772 0.52592 0.88029 0.0
C4783 C 0.97206 0.51301 0.86444 0.0
C4784 C 0.95791 0.49924 0.85496 0.0
C4785 C 0.96205 0.48725 0.83991 0.0
C4786 C 0.98034 0.48877 0.83434 0.0
C4787 C 0.99454 0.50226 0.84385 0.0
C4788 C 0.99046 0.51432 0.85888 0.0
C4789 C 0.97594 0.52131 0.96385 0.0
C4790 C 0.99552 0.52361 0.96823 0.0
C4791 C 0.96847 0.5259 0.94653 0.0
C4792 C 0.9804 0.533 0.93327 0.0
C4793 C -4e-05 0.5355 0.93761 0.0
C4794 C 0.00749 0.53094 0.95503 0.0
C4795 C 0.9723 0.5363 0.9143 0.0
C4796 C 0.97709 0.5259 0.89832 0.0
C4797 C 0.95833 0.54771 0.91213 0.0
C4798 C 0.95306 0.55923 0.92867 0.0
C4799 C 0.96693 0.57125 0.94077 0.0
C4800 C 0.96199 0.58146 0.95678 0.0
C4801 C 0.94319 0.57989 0.96078 0.0
C4802 C 0.92928 0.56817 0.94873 0.0
C4803 C 0.93415 0.5579 0.93271 0.0
H4804 H 0.93941 0.58779 0.97319 0.0
H4805 H 0.98352 0.47946 0.82269 0.0
H4806 H 0.24698 0.17558 0.5401 0.0
H4807 H 0.24659 0.19445 0.57043 0.0
H4808 H 0.23255 0.14486 0.59822 0.0
H4809 H 0.23224 0.12604 0.56796 0.0
H4810 H 0.21303 0.16928 0.61101 0.0
H4811 H 0.27848 0.16999 0.60053 0.0
H4812 H 0.30677 0.17566 0.58303 0.0
H4813 H 0.30201 0.23327 0.58453 0.0
H4814 H 0.27354 0.22789 0.60185 0.0
H4815 H 0.25272 0.19235 0.70631 0.0
H4816 H 0.2437 0.18072 0.67287 0.0
H4817 H 0.2487 0.23673 0.65788 0.0
H4818 H 0.25762 0.24847 0.69148 0.0
H4819 H 0.26973 0.21397 0.63689 0.0
H4820 H 0.20696 0.21243 0.65388 0.0
H4821 H 0.1802 0.20519 0.67313 0.0
H4822 H 0.18133 0.1471 0.66109 0.0
H4823 H 0.20837 0.15397 0.6421 0.0
C4824 C 0.24376 0.16872 0.55268 0.0
C4825 C 0.23973 0.14931 0.55164 0.0
C4826 C 0.24358 0.17952 0.57001 0.0
C4827 C 0.23976 0.17108 0.58668 0.0
C4828 C 0.23547 0.15171 0.58557 0.0
C4829 C 0.23538 0.14095 0.56824 0.0
C4830 C 0.24068 0.18219 0.60547 0.0
C4831 C 0.22547 0.17899 0.6167 0.0
C4832 C 0.25669 0.19525 0.61272 0.0
C4833 C 0.27375 0.19849 0.60225 0.0
C4834 C 0.28338 0.18383 0.59698 0.0
C4835 C 0.29946 0.187 0.58712 0.0
C4836 C 0.30614 0.2048 0.58261 0.0
C4837 C 0.29679 0.21948 0.58799 0.0
C4838 C 0.28068 0.21638 0.59783 0.0
C4839 C 0.25151 0.20216 0.69595 0.0
C4840 C 0.25587 0.22126 0.70147 0.0
C4841 C 0.24629 0.19553 0.67688 0.0
C4842 C 0.24543 0.20788 0.66296 0.0
C4843 C 0.24921 0.227 0.66847 0.0
C4844 C 0.25422 0.23367 0.68764 0.0
C4845 C 0.24233 0.20062 0.64256 0.0
C4846 C 0.25714 0.20454 0.63103 0.0
C4847 C 0.22611 0.18796 0.63521 0.0
C4848 C 0.2098 0.18374 0.64663 0.0
C4849 C 0.20163 0.19811 0.65546 0.0
C4850 C 0.18638 0.19407 0.66632 0.0
C4851 C 0.17907 0.1757 0.66832 0.0
C4852 C 0.18698 0.16132 0.65947 0.0
C4853 C 0.20228 0.16529 0.64867 0.0
H4854 H 0.16727 0.1726 0.67674 0.0
H4855 H 0.3186 0.20723 0.57498 0.0
H4856 H 0.58301 0.5029 0.2284 0.0
H4857 H 0.56983 0.50717 0.19656 0.0
H4858 H 0.62497 0.51038 0.17612 0.0
H4859 H 0.63834 0.50666 0.20812 0.0
H4860 H 0.60734 0.53572 0.16191 0.0
H4861 H 0.5917 0.47063 0.16715 0.0
H4862 H 0.57847 0.44277 0.18164 0.0
H4863 H 0.52362 0.45847 0.17628 0.0
H4864 H 0.53657 0.48657 0.16198 0.0
H4865 H 0.58067 0.51171 0.0625 0.0
H4866 H 0.59305 0.51503 0.09595 0.0
H4867 H 0.53715 0.51589 0.11333 0.0
H4868 H 0.5246 0.51238 0.07985 0.0
H4869 H 0.55411 0.4901 0.12962 0.0
H4870 H 0.57033 0.55448 0.12173 0.0
H4871 H 0.58424 0.58111 0.10577 0.0
H4872 H 0.63885 0.56545 0.11454 0.0
H4873 H 0.62524 0.53859 0.1304 0.0
C4874 C 0.59232 0.50446 0.21712 0.0
C4875 C 0.61169 0.50431 0.22073 0.0
C4876 C 0.58477 0.50688 0.1989 0.0
C4877 C 0.59637 0.50886 0.18386 0.0
C4878 C 0.61575 0.50889 0.18749 0.0
C4879 C 0.62335 0.50666 0.20576 0.0
C4880 C 0.58825 0.51061 0.16429 0.0
C4881 C 0.59581 0.52565 0.15478 0.0
C4882 C 0.57296 0.49769 0.15509 0.0
C4883 C 0.56514 0.48081 0.1637 0.0
C4884 C 0.57684 0.46822 0.16921 0.0
C4885 C 0.56939 0.45237 0.17736 0.0
C4886 C 0.55023 0.44888 0.17993 0.0
C4887 C 0.53846 0.46121 0.17431 0.0
C4888 C 0.54585 0.47709 0.16617 0.0
C4889 C 0.57104 0.51295 0.07343 0.0
C4890 C 0.55163 0.51162 0.06853 0.0
C4891 C 0.57817 0.51493 0.09256 0.0
C4892 C 0.56602 0.51572 0.10713 0.0
C4893 C 0.54675 0.51529 0.10229 0.0
C4894 C 0.53962 0.51336 0.08315 0.0
C4895 C 0.57318 0.51518 0.12726 0.0
C4896 C 0.56549 0.50029 0.13684 0.0
C4897 C 0.58845 0.52813 0.13638 0.0
C4898 C 0.59674 0.54444 0.12714 0.0
C4899 C 0.58529 0.55665 0.12017 0.0
C4900 C 0.59312 0.5718 0.11116 0.0
C4901 C 0.61241 0.57495 0.10911 0.0
C4902 C 0.62391 0.56299 0.11614 0.0
C4903 C 0.61615 0.54782 0.12518 0.0
H4904 H 0.61843 0.58666 0.10208 0.0
H4905 H 0.54448 0.4366 0.18623 0.0
H4906 H 0.20213 0.82372 0.96426 0.0
H4907 H 0.19985 0.80213 0.93535 0.0
H4908 H 0.213 0.84819 0.90214 0.0
H4909 H 0.21409 0.86969 0.93065 0.0
H4910 H 0.19104 0.82334 0.88102 0.0
H4911 H 0.24738 0.82296 0.92245 0.0
H4912 H 0.26537 0.81883 0.95241 0.0
H4913 H 0.23833 0.76223 0.94886 0.0
H4914 H 0.22002 0.76611 0.91897 0.0
H4915 H 0.25393 0.79809 0.81624 0.0
H4916 H 0.23922 0.80974 0.84373 0.0
H4917 H 0.21281 0.75433 0.8506 0.0
H4918 H 0.2272 0.74241 0.82247 0.0
H4919 H 0.23433 0.77723 0.88466 0.0
H4920 H 0.18509 0.77927 0.83584 0.0
H4921 H 0.17171 0.78672 0.80488 0.0
H4922 H 0.191 0.84459 0.82127 0.0
H4923 H 0.20487 0.83748 0.85213 0.0
C4924 C 0.20411 0.82919 0.95069 0.0
C4925 C 0.20847 0.84836 0.94971 0.0
C4926 C 0.20292 0.81686 0.9342 0.0
C4927 C 0.20677 0.82348 0.9166 0.0
C4928 C 0.21 0.84267 0.9155 0.0
C4929 C 0.21068 0.85499 0.93185 0.0
C4930 C 0.20913 0.81072 0.89969 0.0
C4931 C 0.20048 0.81324 0.88184 0.0
C4932 C 0.22119 0.79725 0.90072 0.0
C4933 C 0.23216 0.79489 0.91866 0.0
C4934 C 0.24519 0.80967 0.92815 0.0
C4935 C 0.25545 0.80738 0.94509 0.0
C4936 C 0.25294 0.7903 0.95257 0.0
C4937 C 0.24022 0.77547 0.94308 0.0
C4938 C 0.22989 0.7777 0.92614 0.0
C4939 C 0.24497 0.7883 0.82349 0.0
C4940 C 0.24171 0.76929 0.81715 0.0
C4941 C 0.23648 0.79503 0.83914 0.0
C4942 C 0.22477 0.78291 0.84897 0.0
C4943 C 0.22169 0.76388 0.843 0.0
C4944 C 0.22993 0.75711 0.82701 0.0
C4945 C 0.21679 0.79041 0.86609 0.0
C4946 C 0.22443 0.78692 0.88395 0.0
C4947 C 0.2044 0.8035 0.86497 0.0
C4948 C 0.19608 0.80781 0.84633 0.0
C4949 C 0.18663 0.79357 0.83279 0.0
C4950 C 0.17893 0.79774 0.81526 0.0
C4951 C 0.18047 0.81611 0.81113 0.0
C4952 C 0.18978 0.83036 0.8245 0.0
C4953 C 0.19755 0.82626 0.84202 0.0
H4954 H 0.17448 0.81931 0.79756 0.0
H4955 H 0.2609 0.78854 0.96569 0.0
H4956 H 0.87119 0.50529 0.69724 0.0
H4957 H 0.88574 0.49719 0.66807 0.0
H4958 H 0.94061 0.51875 0.69669 0.0
H4959 H 0.92619 0.52725 0.72567 0.0
H4960 H 0.93829 0.52867 0.66182 0.0
H4961 H 0.92431 0.47226 0.69038 0.0
H4962 H 0.90445 0.44762 0.70451 0.0
H4963 H 0.86913 0.43449 0.65192 0.0
H4964 H 0.88861 0.45926 0.63755 0.0
H4965 H 0.98931 0.48968 0.59203 0.0
H4966 H 0.97637 0.49202 0.62309 0.0
H4967 H 0.92011 0.48034 0.59511 0.0
H4968 H 0.93289 0.4781 0.56404 0.0
H4969 H 0.92469 0.4642 0.63058 0.0
H4970 H 0.93777 0.52282 0.6036 0.0
H4971 H 0.95845 0.54686 0.58955 0.0
H4972 H -0.00327 0.55509 0.64019 0.0
H4973 H 0.97635 0.53084 0.65445 0.0
C4974 C 0.88633 0.50846 0.69723 0.0
C4975 C 0.89755 0.5168 0.71375 0.0
C4976 C 0.89463 0.50371 0.68062 0.0
C4977 C 0.91428 0.50705 0.68036 0.0
C4978 C 0.92544 0.51596 0.69663 0.0
C4979 C 0.91716 0.52081 0.71317 0.0
C4980 C 0.92328 0.50118 0.66316 0.0
C4981 C 0.93552 0.51451 0.65519 0.0
C4982 C 0.91952 0.48272 0.6544 0.0
C4983 C 0.90782 0.46774 0.66295 0.0
C4984 C 0.91222 0.46421 0.68187 0.0
C4985 C 0.90104 0.45021 0.68992 0.0
C4986 C 0.88551 0.43953 0.67913 0.0
C4987 C 0.88115 0.4428 0.66026 0.0
C4988 C 0.89226 0.45681 0.65215 0.0
C4989 C 0.9742 0.48712 0.59253 0.0
C4990 C 0.96208 0.48397 0.57566 0.0
C4991 C 0.96685 0.48849 0.61025 0.0
C4992 C 0.94733 0.48656 0.61127 0.0
C4993 C 0.93522 0.48188 0.59454 0.0
C4994 C 0.94254 0.48072 0.57684 0.0
C4995 C 0.93955 0.4917 0.62937 0.0
C4996 C 0.92754 0.47828 0.63742 0.0
C4997 C 0.94361 0.51003 0.63834 0.0
C4998 C 0.95565 0.52489 0.62999 0.0
C4999 C 0.95066 0.52967 0.61169 0.0
C5000 C 0.96233 0.54335 0.60369 0.0
C5001 C 0.97894 0.55247 0.61394 0.0
C5002 C 0.98387 0.54799 0.63226 0.0
C5003 C 0.97227 0.53429 0.64031 0.0
H5004 H 0.98797 0.56302 0.60773 0.0
H5005 H 0.87688 0.42869 0.68539 0.0
H5006 H 0.28071 0.18968 0.46375 0.0
H5007 H 0.28921 0.20906 0.43828 0.0
H5008 H 0.27108 0.162 0.39632 0.0
H5009 H 0.26357 0.1425 0.4217 0.0
H5010 H 0.29996 0.18099 0.38517 0.0
H5011 H 0.24265 0.19657 0.40942 0.0
H5012 H 0.2232 0.20732 0.4341 0.0
H5013 H 0.26089 0.25902 0.44478 0.0
H5014 H 0.28068 0.24847 0.42029 0.0
H5015 H 0.26235 0.21391 0.30378 0.0
H5016 H 0.26838 0.20101 0.33367 0.0
H5017 H 0.29696 0.25438 0.35924 0.0
H5018 H 0.29083 0.26761 0.32903 0.0
H5019 H 0.26988 0.23702 0.3813 0.0
H5020 H 0.32277 0.22157 0.35012 0.0
H5021 H 0.33822 0.20982 0.32261 0.0
H5022 H 0.30502 0.15613 0.3225 0.0
H5023 H 0.28917 0.16761 0.34989 0.0
C5024 C 0.27876 0.18347 0.44909 0.0
C5025 C 0.27136 0.16462 0.44469 0.0
C5026 C 0.28354 0.19457 0.43454 0.0
C5027 C 0.28045 0.18712 0.4153 0.0
C5028 C 0.27363 0.16813 0.41101 0.0
C5029 C 0.26926 0.15698 0.42554 0.0
C5030 C 0.2833 0.19903 0.39947 0.0
C5031 C 0.29337 0.19323 0.38436 0.0
C5032 C 0.27513 0.21531 0.39852 0.0
C5033 C 0.26326 0.22165 0.41323 0.0
C5034 C 0.24685 0.21018 0.41714 0.0
C5035 C 0.23576 0.21624 0.43107 0.0
C5036 C 0.24084 0.23382 0.44105 0.0
C5037 C 0.257 0.24539 0.43707 0.0
C5038 C 0.26816 0.23938 0.42317 0.0
C5039 C 0.26999 0.22297 0.31569 0.0
C5040 C 0.27605 0.24182 0.31406 0.0
C5041 C 0.27356 0.21551 0.33274 0.0
C5042 C 0.28331 0.22668 0.34859 0.0
C5043 C 0.28952 0.24552 0.34709 0.0
C5044 C 0.28606 0.25303 0.32986 0.0
C5045 C 0.28594 0.21857 0.36686 0.0
C5046 C 0.2769 0.22507 0.3824 0.0
C5047 C 0.29468 0.2027 0.36801 0.0
C5048 C 0.30473 0.19549 0.35204 0.0
C5049 C 0.31873 0.20727 0.34422 0.0
C5050 C 0.32756 0.20065 0.32865 0.0
C5051 C 0.32257 0.18226 0.3208 0.0
C5052 C 0.30887 0.17038 0.32862 0.0
C5053 C 0.29999 0.17692 0.3442 0.0
H5054 H 0.3293 0.17727 0.30864 0.0
H5055 H 0.23224 0.23849 0.45183 0.0
H5056 H 0.29187 0.56181 0.5109 0.0
H5057 H 0.31748 0.54576 0.50126 0.0
H5058 H 0.35572 0.59767 0.50987 0.0
H5059 H 0.32974 0.61384 0.51801 0.0
H5060 H 0.36622 0.57856 0.48257 0.0
H5061 H 0.34877 0.56471 0.54528 0.0
H5062 H 0.32731 0.55301 0.56863 0.0
H5063 H 0.31748 0.49916 0.53709 0.0
H5064 H 0.33875 0.51063 0.51343 0.0
H5065 H 0.44945 0.56122 0.52725 0.0
H5066 H 0.41781 0.5676 0.52039 0.0
H5067 H 0.40139 0.51323 0.49009 0.0
H5068 H 0.43357 0.50666 0.49668 0.0
H5069 H 0.37715 0.527 0.52055 0.0
H5070 H 0.40398 0.543 0.46289 0.0
H5071 H 0.42947 0.55742 0.4451 0.0
H5072 H 0.42544 0.61086 0.473 0.0
H5073 H 0.40011 0.59674 0.49118 0.0
C5074 C 0.30572 0.56975 0.51041 0.0
C5075 C 0.309 0.58897 0.51537 0.0
C5076 C 0.32035 0.56059 0.505 0.0
C5077 C 0.33869 0.57039 0.50535 0.0
C5078 C 0.34173 0.58975 0.50951 0.0
C5079 C 0.32694 0.599 0.51425 0.0
C5080 C 0.35496 0.56053 0.50284 0.0
C5081 C 0.36853 0.56724 0.49082 0.0
C5082 C 0.35791 0.54546 0.51331 0.0
C5083 C 0.34511 0.53858 0.52747 0.0
C5084 C 0.34192 0.55041 0.54327 0.0
C5085 C 0.32981 0.54382 0.55656 0.0
C5086 C 0.32098 0.52537 0.5543 0.0
C5087 C 0.32429 0.51346 0.53878 0.0
C5088 C 0.33636 0.51999 0.52543 0.0
C5089 C 0.4392 0.55054 0.51911 0.0
C5090 C 0.44402 0.53344 0.51242 0.0
C5091 C 0.42115 0.55427 0.51515 0.0
C5092 C 0.40747 0.54098 0.50454 0.0
C5093 C 0.41194 0.52368 0.49816 0.0
C5094 C 0.43023 0.51997 0.50192 0.0
C5095 C 0.38845 0.54549 0.50086 0.0
C5096 C 0.37442 0.53784 0.51176 0.0
C5097 C 0.38539 0.5601 0.48992 0.0
C5098 C 0.40013 0.56877 0.47844 0.0
C5099 C 0.40855 0.55782 0.46528 0.0
C5100 C 0.42298 0.56594 0.45512 0.0
C5101 C 0.42907 0.58504 0.45791 0.0
C5102 C 0.42068 0.59607 0.47081 0.0
C5103 C 0.40625 0.58802 0.48102 0.0
H5104 H 0.44029 0.59127 0.45008 0.0
H5105 H 0.31162 0.52029 0.56461 0.0
H5106 H 0.79623 0.9557 0.53782 0.0
H5107 H 0.82902 0.97049 0.54284 0.0
H5108 H 0.84639 0.91704 0.54503 0.0
H5109 H 0.81331 0.90215 0.54077 0.0
H5110 H 0.8689 0.94228 0.56927 0.0
H5111 H 0.84594 0.93772 0.50356 0.0
H5112 H 0.82439 0.94139 0.47593 0.0
H5113 H 0.83543 0.00041 0.48931 0.0
H5114 H 0.85685 0.99707 0.5172 0.0
H5115 H 0.95837 0.96455 0.5327 0.0
H5116 H 0.92658 0.95222 0.53973 0.0
H5117 H 0.913 0.00747 0.54564 0.0
H5118 H 0.94495 0.02001 0.53872 0.0
H5119 H 0.88883 0.98235 0.51913 0.0
H5120 H 0.91515 0.98528 0.58402 0.0
H5121 H 0.93802 0.97952 0.60957 0.0
H5122 H 0.92231 0.9209 0.59506 0.0
H5123 H 0.89951 0.92631 0.56924 0.0
C5124 C 0.80702 0.94711 0.5396 0.0
C5125 C 0.8023 0.92777 0.5386 0.0
C5126 C 0.82574 0.95557 0.54245 0.0
C5127 C 0.84016 0.94483 0.5438 0.0
C5128 C 0.83547 0.92557 0.5439 0.0
C5129 C 0.81661 0.91708 0.54142 0.0
C5130 C 0.86 0.95366 0.54369 0.0
C5131 C 0.87331 0.95092 0.55824 0.0
C5132 C 0.86571 0.96506 0.52936 0.0
C5133 C 0.85284 0.96713 0.51259 0.0
C5134 C 0.84366 0.95147 0.5007 0.0
C5135 C 0.83148 0.95349 0.48498 0.0
C5136 C 0.8285 0.97112 0.4809 0.0
C5137 C 0.83772 0.98676 0.49251 0.0
C5138 C 0.84989 0.98482 0.50827 0.0
C5139 C 0.94872 0.97412 0.53579 0.0
C5140 C 0.95407 0.99324 0.53503 0.0
C5141 C 0.93061 0.96705 0.53993 0.0
C5142 C 0.91753 0.97895 0.54329 0.0
C5143 C 0.92299 -0.0019 0.54317 0.0
C5144 C 0.94121 0.00523 0.53925 0.0
C5145 C 0.89767 0.97115 0.54479 0.0
C5146 C 0.88437 0.97394 0.53034 0.0
C5147 C 0.89214 0.95951 0.55894 0.0
C5148 C 0.90571 0.95621 0.5746 0.0
C5149 C 0.91666 0.97116 0.58618 0.0
C5150 C 0.92959 0.96796 0.60074 0.0
C5151 C 0.93164 0.94986 0.60391 0.0
C5152 C 0.92071 0.93492 0.59258 0.0
C5153 C 0.90776 0.93805 0.578 0.0
H5154 H 0.94167 0.94741 0.61518 0.0
H5155 H 0.81908 0.97265 0.46872 0.0
H5156 H 0.82314 0.03974 0.25532 0.0
H5157 H 0.8071 0.06628 0.26243 0.0
H5158 H 0.86078 0.10218 0.27252 0.0
H5159 H 0.87682 0.07571 0.26613 0.0
H5160 H 0.83942 0.11135 0.29831 0.0
H5161 H 0.83106 0.09841 0.22969 0.0
H5162 H 0.82086 0.07918 0.19915 0.0
H5163 H 0.76383 0.07126 0.21409 0.0
H5164 H 0.77375 0.09028 0.24483 0.0
H5165 H 0.81996 0.19917 0.27837 0.0
H5166 H 0.82975 0.16894 0.2792 0.0
H5167 H 0.77194 0.1434 0.2797 0.0
H5168 H 0.76198 0.17388 0.27913 0.0
H5169 H 0.79111 0.12677 0.25147 0.0
H5170 H 0.80022 0.14351 0.319 0.0
H5171 H 0.8116 0.16252 0.34941 0.0
H5172 H 0.86864 0.16446 0.33535 0.0
H5173 H 0.85761 0.1455 0.30483 0.0
C5174 C 0.8315 0.05329 0.25913 0.0
C5175 C 0.85124 0.05564 0.26012 0.0
C5176 C 0.82231 0.06847 0.2631 0.0
C5177 C 0.8327 0.08631 0.26777 0.0
C5178 C 0.85243 0.08858 0.26899 0.0
C5179 C 0.86159 0.07342 0.26528 0.0
C5180 C 0.82324 0.10276 0.27126 0.0
C5181 C 0.82896 0.11477 0.28798 0.0
C5182 C 0.80915 0.107 0.25809 0.0
C5183 C 0.80318 0.09556 0.23964 0.0
C5184 C 0.81637 0.09244 0.22652 0.0
C5185 C 0.81064 0.08161 0.20917 0.0
C5186 C 0.79172 0.07395 0.20471 0.0
C5187 C 0.77849 0.07717 0.21758 0.0
C5188 C 0.78415 0.08798 0.23496 0.0
C5189 C 0.80931 0.18717 0.27888 0.0
C5190 C 0.79018 0.18889 0.27862 0.0
C5191 C 0.81495 0.1699 0.27947 0.0
C5192 C 0.80159 0.15394 0.27964 0.0
C5193 C 0.78248 0.15559 0.27967 0.0
C5194 C 0.77681 0.17298 0.27937 0.0
C5195 C 0.80769 0.13553 0.27825 0.0
C5196 C 0.80136 0.12318 0.26192 0.0
C5197 C 0.82143 0.1311 0.29162 0.0
C5198 C 0.82807 0.14314 0.30959 0.0
C5199 C 0.81518 0.14813 0.32231 0.0
C5200 C 0.82157 0.1588 0.33961 0.0
C5201 C 0.84083 0.16461 0.34434 0.0
C5202 C 0.85373 0.15987 0.33171 0.0
C5203 C 0.84742 0.14913 0.31443 0.0
H5204 H 0.84575 0.17283 0.35777 0.0
H5205 H 0.78731 0.06557 0.19127 0.0
H5206 H 0.71454 0.07539 0.03334 0.0
H5207 H 0.68234 0.06057 0.03613 0.0
H5208 H 0.66326 0.11325 0.03394 0.0
H5209 H 0.69557 0.12826 0.03176 0.0
H5210 H 0.64552 0.09424 0.05924 0.0
H5211 H 0.65927 0.08168 0.99413 0.0
H5212 H 0.67714 0.07047 0.96827 0.0
H5213 H 0.66762 0.01575 0.98608 0.0
H5214 H 0.64988 0.02671 0.01222 0.0
H5215 H 0.55149 0.06827 0.01826 0.0
H5216 H 0.58463 0.08021 0.02784 0.0
H5217 H 0.59505 0.02483 0.03444 0.0
H5218 H 0.56187 0.01274 0.02483 0.0
H5219 H 0.61784 0.04262 0.01032 0.0
H5220 H 0.59887 0.05579 0.07266 0.0
H5221 H 0.57984 0.06825 0.09676 0.0
H5222 H 0.59798 0.12333 0.08257 0.0
H5223 H 0.61674 0.11118 0.05801 0.0
C5224 C 0.70349 0.08382 0.03354 0.0
C5225 C 0.7075 0.10294 0.03214 0.0
C5226 C 0.68511 0.07534 0.03512 0.0
C5227 C 0.67037 0.08576 0.03495 0.0
C5228 C 0.67443 0.10495 0.0341 0.0
C5229 C 0.69286 0.11349 0.03276 0.0
C5230 C 0.65063 0.07658 0.03477 0.0
C5231 C 0.6394 0.08303 0.04848 0.0
C5232 C 0.6428 0.06168 0.02097 0.0
C5233 C 0.65345 0.05506 0.00526 0.0
C5234 C 0.66112 0.06729 0.99262 0.0
C5235 C 0.6712 0.06098 0.9779 0.0
C5236 C 0.67357 0.04242 0.97557 0.0
C5237 C 0.66581 0.03013 0.98793 0.0
C5238 C 0.65573 0.03638 0.00269 0.0
C5239 C 0.56077 0.05869 0.02211 0.0
C5240 C 0.55416 0.03959 0.02065 0.0
C5241 C 0.57964 0.06554 0.02769 0.0
C5242 C 0.59222 0.05341 0.03189 0.0
C5243 C 0.58551 0.0344 0.03129 0.0
C5244 C 0.56656 0.02754 0.02585 0.0
C5245 C 0.61263 0.06041 0.03464 0.0
C5246 C 0.62401 0.0536 0.02132 0.0
C5247 C 0.62044 0.07515 0.04859 0.0
C5248 C 0.60914 0.08253 0.06337 0.0
C5249 C 0.59866 0.07054 0.07452 0.0
C5250 C 0.58792 0.07756 0.08829 0.0
C5251 C 0.58767 0.09657 0.09117 0.0
C5252 C 0.59819 0.10861 0.08032 0.0
C5253 C 0.60887 0.10166 0.06646 0.0
H5254 H 0.57935 0.10197 0.10183 0.0
H5255 H 0.68137 0.03755 0.96416 0.0
H5256 H 0.1524 0.42263 0.27353 0.0
H5257 H 0.175 0.40266 0.28182 0.0
H5258 H 0.21877 0.45029 0.2935 0.0
H5259 H 0.19624 0.47031 0.28416 0.0
H5260 H 0.23166 0.42635 0.27352 0.0
H5261 H 0.20092 0.42259 0.33003 0.0
H5262 H 0.17479 0.41882 0.35066 0.0
H5263 H 0.15671 0.36325 0.32457 0.0
H5264 H 0.1825 0.36679 0.30355 0.0
H5265 H 0.26238 0.33387 0.30664 0.0
H5266 H 0.25249 0.36396 0.3147 0.0
H5267 H 0.23816 0.36767 0.25491 0.0
H5268 H 0.24813 0.33804 0.24686 0.0
H5269 H 0.21789 0.37138 0.30906 0.0
H5270 H 0.24223 0.41031 0.24411 0.0
H5271 H 0.27021 0.41493 0.22606 0.0
H5272 H 0.30455 0.40274 0.27405 0.0
H5273 H 0.27684 0.39831 0.29251 0.0
C5274 C 0.16678 0.42891 0.27814 0.0
C5275 C 0.17256 0.44803 0.27813 0.0
C5276 C 0.1797 0.41746 0.28308 0.0
C5277 C 0.19862 0.42492 0.28865 0.0
C5278 C 0.20428 0.44416 0.2893 0.0
C5279 C 0.1914 0.4556 0.28398 0.0
C5280 C 0.21268 0.41238 0.29171 0.0
C5281 C 0.22875 0.41449 0.28154 0.0
C5282 C 0.20935 0.39716 0.30267 0.0
C5283 C 0.19366 0.39499 0.31518 0.0
C5284 C 0.1913 0.40961 0.3286 0.0
C5285 C 0.17654 0.40751 0.34037 0.0
C5286 C 0.16409 0.39081 0.33892 0.0
C5287 C 0.16635 0.37618 0.32568 0.0
C5288 C 0.18106 0.37822 0.31385 0.0
C5289 C 0.25761 0.3414 0.29523 0.0
C5290 C 0.25598 0.33361 0.27613 0.0
C5291 C 0.25187 0.35851 0.29985 0.0
C5292 C 0.24472 0.36816 0.2854 0.0
C5293 C 0.24395 0.36071 0.26629 0.0
C5294 C 0.24954 0.34367 0.26171 0.0
C5295 C 0.23609 0.38491 0.28999 0.0
C5296 C 0.22105 0.38356 0.30154 0.0
C5297 C 0.24061 0.40105 0.28068 0.0
C5298 C 0.2574 0.40393 0.26969 0.0
C5299 C 0.25576 0.40875 0.25089 0.0
C5300 C 0.27158 0.4113 0.24056 0.0
C5301 C 0.28915 0.40911 0.24889 0.0
C5302 C 0.29093 0.40439 0.26759 0.0
C5303 C 0.27517 0.40183 0.27798 0.0
H5304 H 0.30137 0.41107 0.24087 0.0
H5305 H 0.15269 0.3892 0.34807 0.0
H5306 H 0.21952 0.4309 0.0268 0.0
H5307 H 0.1927 0.44681 0.02153 0.0
H5308 H 0.15487 0.39561 0.02323 0.0
H5309 H 0.18187 0.37938 0.02777 0.0
H5310 H 0.14189 0.4134 -0.00355 0.0
H5311 H 0.16386 0.42971 0.06183 0.0
H5312 H 0.18663 0.44108 0.08969 0.0
H5313 H 0.19767 0.49433 0.06869 0.0
H5314 H 0.17514 0.4832 0.04055 0.0
H5315 H 0.06607 0.45578 0.0336 0.0
H5316 H 0.09452 0.44183 0.03303 0.0
H5317 H 0.11724 0.4809 0.9955 0.0
H5318 H 0.08844 0.49502 0.99571 0.0
H5319 H 0.13799 0.47049 0.03822 0.0
H5320 H 0.11277 0.45085 0.97176 0.0
H5321 H 0.08713 0.43716 0.94725 0.0
H5322 H 0.07906 0.38727 0.97496 0.0
H5323 H 0.10438 0.40086 -0.00011 0.0
C5324 C 0.20549 0.423 0.02607 0.0
C5325 C 0.20277 0.40391 0.02786 0.0
C5326 C 0.19016 0.43214 0.02311 0.0
C5327 C 0.17175 0.4225 0.02234 0.0
C5328 C 0.16896 0.40335 0.02382 0.0
C5329 C 0.18436 0.3941 0.02649 0.0
C5330 C 0.15548 0.43252 0.02017 0.0
C5331 C 0.14107 0.42585 0.00563 0.0
C5332 C 0.15434 0.44882 0.03211 0.0
C5333 C 0.16798 0.45555 0.04897 0.0
C5334 C 0.17127 0.4438 0.06306 0.0
C5335 C 0.1841 0.45021 0.07893 0.0
C5336 C 0.19363 0.4684 0.08093 0.0
C5337 C 0.19031 0.48023 0.0671 0.0
C5338 C 0.1775 0.47389 0.05119 0.0
C5339 C 0.07701 0.46141 0.0251 0.0
C5340 C 0.07494 0.47645 0.01459 0.0
C5341 C 0.0932 0.45335 0.02476 0.0
C5342 C 0.10769 0.46015 0.01397 0.0
C5343 C 0.10597 0.47535 0.00368 0.0
C5344 C 0.08959 0.48338 0.00384 0.0
C5345 C 0.12481 0.45155 0.01434 0.0
C5346 C 0.13918 0.4583 0.02878 0.0
C5347 C 0.12564 0.43508 0.0027 0.0
C5348 C 0.11033 0.42696 0.9878 0.0
C5349 C 0.10536 0.43707 0.97277 0.0
C5350 C 0.09094 0.42929 0.95876 0.0
C5351 C 0.0815 0.41134 0.95952 0.0
C5352 C 0.08644 0.40114 0.97433 0.0
C5353 C 0.1008 0.40889 0.98842 0.0
H5354 H 0.07031 0.40536 0.94868 0.0
H5355 H 0.20356 0.47334 0.09323 0.0
H5356 H 0.83059 0.95784 0.2291 0.0
H5357 H 0.8093 0.92843 0.22853 0.0
H5358 H 0.85702 0.90043 0.23798 0.0
H5359 H 0.87822 0.92945 0.23749 0.0
H5360 H 0.83321 0.87898 0.2153 0.0
H5361 H 0.82907 0.91505 0.27479 0.0
H5362 H 0.82335 0.94211 0.29554 0.0
H5363 H 0.7664 0.93495 0.27043 0.0
H5364 H 0.77187 0.90797 0.24935 0.0
H5365 H 0.80158 0.80656 0.26856 0.0
H5366 H 0.8148 0.83685 0.26003 0.0
H5367 H 0.76099 0.84286 0.23282 0.0
H5368 H 0.74748 0.81209 0.24109 0.0
H5369 H 0.78287 0.87522 0.25965 0.0
H5370 H 0.78888 0.83363 0.20408 0.0
H5371 H 0.79722 0.8048 0.18885 0.0
H5372 H 0.85445 0.82122 0.2125 0.0
H5373 H 0.8464 0.85003 0.22812 0.0
C5374 C 0.83649 0.94535 0.23086 0.0
C5375 C 0.85607 0.94596 0.23342 0.0
C5376 C 0.82432 0.92856 0.23063 0.0
C5377 C 0.83149 0.91219 0.23357 0.0
C5378 C 0.85107 0.91279 0.23563 0.0
C5379 C 0.86321 0.92944 0.23541 0.0
C5380 C 0.81883 0.89454 0.23527 0.0
C5381 C 0.82221 0.87824 0.225 0.0
C5382 C 0.80426 0.89344 0.24773 0.0
C5383 C 0.80095 0.90967 0.26033 0.0
C5384 C 0.81538 0.91935 0.27359 0.0
C5385 C 0.81217 0.93465 0.28543 0.0
C5386 C 0.79455 0.94029 0.28425 0.0
C5387 C 0.78007 0.9306 0.27128 0.0
C5388 C 0.7832 0.9153 0.25939 0.0
C5389 C 0.79244 0.81426 0.26082 0.0
C5390 C 0.77347 0.80684 0.25538 0.0
C5391 C 0.80007 0.83158 0.25594 0.0
C5392 C 0.78889 0.84194 0.24568 0.0
C5393 C 0.7698 0.83495 0.2407 0.0
C5394 C 0.76215 0.81741 0.24539 0.0
C5395 C 0.79761 0.85992 0.24002 0.0
C5396 C 0.79354 0.87618 0.24957 0.0
C5397 C 0.81195 0.86093 0.2274 0.0
C5398 C 0.81701 0.84398 0.21732 0.0
C5399 C 0.80324 0.83108 0.20607 0.0
C5400 C 0.80791 0.81473 0.19738 0.0
C5401 C 0.82635 0.81118 0.19972 0.0
C5402 C 0.84018 0.82401 0.21068 0.0
C5403 C 0.83557 0.84037 0.21943 0.0
H5404 H 0.82993 0.79848 0.19305 0.0
H5405 H 0.79209 0.95213 0.29343 0.0
H5406 H 0.67145 0.03562 0.74376 0.0
H5407 H 0.68889 0.06694 0.74462 0.0
H5408 H 0.63673 0.08803 0.73555 0.0
H5409 H 0.61926 0.05667 0.73397 0.0
H5410 H 0.66197 0.10589 0.71655 0.0
H5411 H 0.66048 0.08947 0.78092 0.0
H5412 H 0.66549 0.07043 0.80727 0.0
H5413 H 0.72476 0.07835 0.80093 0.0
H5414 H 0.72006 0.09725 0.77435 0.0
H5415 H 0.68672 0.19763 0.76214 0.0
H5416 H 0.67378 0.16519 0.75225 0.0
H5417 H 0.72987 0.1517 0.75324 0.0
H5418 H 0.74298 0.18425 0.76303 0.0
H5419 H 0.7055 0.12957 0.77415 0.0
H5420 H 0.70608 0.1499 0.71168 0.0
H5421 H 0.69967 0.17013 0.68681 0.0
H5422 H 0.64034 0.15617 0.69127 0.0
H5423 H 0.6464 0.13606 0.71638 0.0
C5424 C 0.66371 0.04692 0.74181 0.0
C5425 C 0.64396 0.0437 0.73898 0.0
C5426 C 0.67369 0.06482 0.74235 0.0
C5427 C 0.66411 0.07991 0.74055 0.0
C5428 C 0.64444 0.07663 0.73703 0.0
C5429 C 0.63446 0.05869 0.73618 0.0
C5430 C 0.67445 0.09918 0.74318 0.0
C5431 C 0.67139 0.11109 0.72921 0.0
C5432 C 0.68703 0.10592 0.75952 0.0
C5433 C 0.68989 0.09459 0.77551 0.0
C5434 C 0.67456 0.08703 0.78505 0.0
C5435 C 0.67735 0.07629 0.80004 0.0
C5436 C 0.69542 0.07313 0.80573 0.0
C5437 C 0.71076 0.08077 0.79648 0.0
C5438 C 0.70805 0.09151 0.78146 0.0
C5439 C 0.69632 0.18781 0.76006 0.0
C5440 C 0.71586 0.19346 0.76343 0.0
C5441 C 0.68891 0.1693 0.75431 0.0
C5442 C 0.70088 0.1561 0.75193 0.0
C5443 C 0.72042 0.16173 0.75495 0.0
C5444 C 0.72787 0.18031 0.76049 0.0
C5445 C 0.69286 0.13626 0.74765 0.0
C5446 C 0.6963 0.12427 0.76136 0.0
C5447 C 0.68042 0.12957 0.73124 0.0
C5448 C 0.67671 0.14157 0.71603 0.0
C5449 C 0.69167 0.15125 0.70747 0.0
C5450 C 0.6881 0.16268 0.69331 0.0
C5451 C 0.66961 0.16446 0.68749 0.0
C5452 C 0.65465 0.15478 0.69579 0.0
C5453 C 0.65815 0.14334 0.70998 0.0
H5454 H 0.66688 0.17332 0.67652 0.0
H5455 H 0.69755 0.06481 0.81734 0.0
loop_
_geom_bond_atom_site_label_1
_geom_bond_atom_site_label_2
_geom_bond_distance
_geom_bond_site_symmetry_2
_ccdc_geom_bond_type
C0 O1 1.306 . S
C0 O3 1.160 . S
O1 C0 1.306 . S
O1 Cd2 2.228 1_655 S
Cd2 O1 2.228 1_455 S
Cd2 O6 2.273 . S
Cd2 O10 2.277 . S
O3 C0 1.160 . S
O3 Cd4 2.203 1_655 S
Cd4 O3 2.203 1_455 S
Cd4 O6 2.411 . S
Cd4 O7 2.333 . S
Cd4 O8 2.352 . S
Cd4 O12 2.277 . S
Cd4 O13 2.356 . S
C5 O10 1.209 . S
C5 O12 1.226 . S
O6 Cd2 2.273 . S
O6 Cd4 2.411 . S
O6 C9 1.320 . S
O7 Cd4 2.333 . S
O7 C9 1.214 . S
O8 Cd4 2.352 . S
O8 C11 1.258 . S
C9 O6 1.320 . S
C9 O7 1.214 . S
O10 Cd2 2.277 . S
O10 C5 1.209 . S
C11 O8 1.258 . S
C11 O13 1.282 . S
O12 Cd4 2.277 . S
O12 C5 1.226 . S
O13 Cd4 2.356 . S
O13 C11 1.282 . S
C14 O15 1.306 . S
C14 O17 1.160 . S
O15 C14 1.306 . S
O15 Cd16 2.228 1_655 S
Cd16 O15 2.228 1_455 S
Cd16 O20 2.273 . S
Cd16 O24 2.277 . S
O17 C14 1.160 . S
O17 Cd18 2.203 1_655 S
Cd18 O17 2.203 1_455 S
Cd18 O20 2.411 . S
Cd18 O21 2.333 . S
Cd18 O22 2.352 . S
Cd18 O26 2.277 . S
Cd18 O27 2.356 . S
C19 O24 1.209 . S
C19 O26 1.226 . S
O20 Cd16 2.273 . S
O20 Cd18 2.411 . S
O20 C23 1.320 . S
O21 Cd18 2.333 . S
O21 C23 1.214 . S
O22 Cd18 2.352 . S
O22 C25 1.258 . S
C23 O20 1.320 . S
C23 O21 1.214 . S
O24 Cd16 2.277 . S
O24 C19 1.209 . S
C25 O22 1.258 . S
C25 O27 1.282 . S
O26 Cd18 2.277 . S
O26 C19 1.226 . S
O27 Cd18 2.356 . S
O27 C25 1.282 . S
C28 O29 1.306 . S
C28 O31 1.160 . S
O29 C28 1.306 . S
O29 Cd30 2.228 . S
Cd30 O29 2.228 . S
Cd30 O34 2.273 . S
Cd30 O38 2.277 . S
O31 C28 1.160 . S
O31 Cd32 2.203 . S
Cd32 O31 2.203 . S
Cd32 O34 2.411 . S
Cd32 O35 2.333 . S
Cd32 O36 2.352 . S
Cd32 O40 2.277 . S
Cd32 O41 2.356 . S
C33 O38 1.209 . S
C33 O40 1.226 . S
O34 Cd30 2.273 . S
O34 Cd32 2.411 . S
O34 C37 1.320 . S
O35 Cd32 2.333 . S
O35 C37 1.214 . S
O36 Cd32 2.352 . S
O36 C39 1.258 . S
C37 O34 1.320 . S
C37 O35 1.214 . S
O38 Cd30 2.277 . S
O38 C33 1.209 . S
C39 O36 1.258 . S
C39 O41 1.282 . S
O40 Cd32 2.277 . S
O40 C33 1.226 . S
O41 Cd32 2.356 . S
O41 C39 1.282 . S
C42 O43 1.306 . S
C42 O45 1.160 . S
O43 C42 1.306 . S
O43 Cd44 2.228 . S
Cd44 O43 2.228 . S
Cd44 O48 2.273 . S
Cd44 O52 2.277 . S
O45 C42 1.160 . S
O45 Cd46 2.203 . S
Cd46 O45 2.203 . S
Cd46 O48 2.411 . S
Cd46 O49 2.333 . S
Cd46 O50 2.352 . S
Cd46 O54 2.277 . S
Cd46 O55 2.356 . S
C47 O52 1.209 . S
C47 O54 1.226 . S
O48 Cd44 2.273 . S
O48 Cd46 2.411 . S
O48 C51 1.320 . S
O49 Cd46 2.333 . S
O49 C51 1.214 . S
O50 Cd46 2.352 . S
O50 C53 1.258 . S
C51 O48 1.320 . S
C51 O49 1.214 . S
O52 Cd44 2.277 . S
O52 C47 1.209 . S
C53 O50 1.258 . S
C53 O55 1.282 . S
O54 Cd46 2.277 . S
O54 C47 1.226 . S
O55 Cd46 2.356 . S
O55 C53 1.282 . S
C56 O57 1.287 1_655 S
C56 O59 1.160 . S
O57 C56 1.287 1_455 S
O57 Cd58 2.257 . S
Cd58 O57 2.257 . S
Cd58 O62 2.273 . S
Cd58 O66 2.277 . S
O59 C56 1.160 . S
O59 Cd60 2.203 1_655 S
Cd60 O59 2.203 1_455 S
Cd60 O62 2.411 . S
Cd60 O63 2.333 . S
Cd60 O64 2.352 . S
Cd60 O68 2.277 . S
Cd60 O69 2.356 . S
C61 O66 1.209 . S
C61 O68 1.226 . S
O62 Cd58 2.273 . S
O62 Cd60 2.411 . S
O62 C65 1.320 . S
O63 Cd60 2.333 . S
O63 C65 1.214 . S
O64 Cd60 2.352 . S
O64 C67 1.258 . S
C65 O62 1.320 . S
C65 O63 1.214 . S
O66 Cd58 2.277 . S
O66 C61 1.209 . S
C67 O64 1.258 . S
C67 O69 1.282 . S
O68 Cd60 2.277 . S
O68 C61 1.226 . S
O69 Cd60 2.356 . S
O69 C67 1.282 . S
C70 O71 1.306 . S
C70 O73 1.160 . S
O71 C70 1.306 . S
O71 Cd72 2.228 . S
Cd72 O71 2.228 . S
Cd72 O76 2.273 . S
Cd72 O80 2.277 . S
O73 C70 1.160 . S
O73 Cd74 2.203 . S
Cd74 O73 2.203 . S
Cd74 O76 2.411 . S
Cd74 O77 2.333 . S
Cd74 O78 2.352 . S
Cd74 O82 2.277 . S
Cd74 O83 2.356 . S
C75 O80 1.209 . S
C75 O82 1.226 . S
O76 Cd72 2.273 . S
O76 Cd74 2.411 . S
O76 C79 1.320 . S
O77 Cd74 2.333 . S
O77 C79 1.214 . S
O78 Cd74 2.352 . S
O78 C81 1.258 . S
C79 O76 1.320 . S
C79 O77 1.214 . S
O80 Cd72 2.277 . S
O80 C75 1.209 . S
C81 O78 1.258 . S
C81 O83 1.282 . S
O82 Cd74 2.277 . S
O82 C75 1.226 . S
O83 Cd74 2.356 . S
O83 C81 1.282 . S
C84 O85 1.306 . S
C84 O87 1.160 . S
O85 C84 1.306 . S
O85 Cd86 2.228 . S
Cd86 O85 2.228 . S
Cd86 O90 2.273 . S
Cd86 O94 2.277 . S
O87 C84 1.160 . S
O87 Cd88 2.203 . S
Cd88 O87 2.203 . S
Cd88 O90 2.411 . S
Cd88 O91 2.333 . S
Cd88 O92 2.352 . S
Cd88 O96 2.277 . S
Cd88 O97 2.356 . S
C89 O94 1.209 . S
C89 O96 1.226 . S
O90 Cd86 2.273 . S
O90 Cd88 2.411 . S
O90 C93 1.320 . S
O91 Cd88 2.333 . S
O91 C93 1.214 . S
O92 Cd88 2.352 . S
O92 C95 1.258 . S
C93 O90 1.320 . S
C93 O91 1.214 . S
O94 Cd86 2.277 . S
O94 C89 1.209 . S
C95 O92 1.258 . S
C95 O97 1.282 . S
O96 Cd88 2.277 . S
O96 C89 1.226 . S
O97 Cd88 2.356 . S
O97 C95 1.282 . S
C98 O99 1.306 . S
C98 O101 1.160 . S
O99 C98 1.306 . S
O99 Cd100 2.228 1_655 S
Cd100 O99 2.228 1_455 S
Cd100 O104 2.273 . S
Cd100 O108 2.277 . S
O101 C98 1.160 . S
O101 Cd102 2.203 1_655 S
Cd102 O101 2.203 1_455 S
Cd102 O104 2.411 . S
Cd102 O105 2.333 . S
Cd102 O106 2.352 1_455 S
Cd102 O110 2.277 . S
Cd102 O111 2.356 . S
C103 O108 1.209 . S
C103 O110 1.226 . S
O104 Cd100 2.273 . S
O104 Cd102 2.411 . S
O104 C107 1.320 . S
O105 Cd102 2.333 . S
O105 C107 1.214 . S
O106 Cd102 2.352 1_655 S
O106 C109 1.259 1_655 S
C107 O104 1.320 . S
C107 O105 1.214 . S
O108 Cd100 2.277 . S
O108 C103 1.209 . S
C109 O106 1.259 1_455 S
C109 O111 1.282 . S
O110 Cd102 2.277 . S
O110 C103 1.226 . S
O111 Cd102 2.356 . S
O111 C109 1.282 . S
C112 O113 1.306 . S
C112 O115 1.160 . S
O113 C112 1.306 . S
O113 Cd114 2.228 1_545 S
Cd114 O113 2.228 1_565 S
Cd114 O118 2.273 1_565 S
Cd114 O122 2.277 . S
O115 C112 1.160 . S
O115 Cd116 2.203 . S
Cd116 O115 2.203 . S
Cd116 O118 2.411 . S
Cd116 O119 2.333 . S
Cd116 O120 2.352 . S
Cd116 O124 2.277 1_545 S
Cd116 O125 2.356 . S
C117 O122 1.209 . S
C117 O124 1.226 . S
O118 Cd114 2.273 1_545 S
O118 Cd116 2.411 . S
O118 C121 1.320 . S
O119 Cd116 2.333 . S
O119 C121 1.214 . S
O120 Cd116 2.352 . S
O120 C123 1.258 . S
C121 O118 1.320 . S
C121 O119 1.214 . S
O122 Cd114 2.277 . S
O122 C117 1.209 . S
C123 O120 1.258 . S
C123 O125 1.282 . S
O124 Cd116 2.277 1_565 S
O124 C117 1.226 . S
O125 Cd116 2.356 . S
O125 C123 1.282 . S
C126 O127 1.306 . S
C126 O129 1.160 . S
O127 C126 1.306 . S
O127 Cd128 2.228 . S
Cd128 O127 2.228 . S
Cd128 O132 2.273 . S
Cd128 O136 2.277 . S
O129 C126 1.160 . S
O129 Cd130 2.203 . S
Cd130 O129 2.203 . S
Cd130 O132 2.411 . S
Cd130 O133 2.333 . S
Cd130 O134 2.352 . S
Cd130 O138 2.277 . S
Cd130 O139 2.356 . S
C131 O136 1.209 . S
C131 O138 1.226 . S
O132 Cd128 2.273 . S
O132 Cd130 2.411 . S
O132 C135 1.320 . S
O133 Cd130 2.333 . S
O133 C135 1.214 . S
O134 Cd130 2.352 . S
O134 C137 1.258 . S
C135 O132 1.320 . S
C135 O133 1.214 . S
O136 Cd128 2.277 . S
O136 C131 1.209 . S
C137 O134 1.258 . S
C137 O139 1.282 . S
O138 Cd130 2.277 . S
O138 C131 1.226 . S
O139 Cd130 2.356 . S
O139 C137 1.282 . S
C140 O141 1.306 . S
C140 O143 1.160 . S
O141 C140 1.306 . S
O141 Cd142 2.228 . S
Cd142 O141 2.228 . S
Cd142 O146 2.273 . S
Cd142 O150 2.277 . S
O143 C140 1.160 . S
O143 Cd144 2.203 . S
Cd144 O143 2.203 . S
Cd144 O146 2.411 . S
Cd144 O147 2.333 . S
Cd144 O148 2.352 1_545 S
Cd144 O152 2.277 . S
Cd144 O153 2.356 1_545 S
C145 O150 1.209 . S
C145 O152 1.226 . S
O146 Cd142 2.273 . S
O146 Cd144 2.411 . S
O146 C149 1.320 . S
O147 Cd144 2.333 . S
O147 C149 1.214 . S
O148 Cd144 2.352 1_565 S
O148 C151 1.258 . S
C149 O146 1.320 . S
C149 O147 1.214 . S
O150 Cd142 2.277 . S
O150 C145 1.209 . S
C151 O148 1.258 . S
C151 O153 1.282 . S
O152 Cd144 2.277 . S
O152 C145 1.226 . S
O153 Cd144 2.356 1_565 S
O153 C151 1.282 . S
C154 O155 1.306 . S
C154 O157 1.160 . S
O155 C154 1.306 . S
O155 Cd156 2.228 1_554 S
Cd156 O155 2.228 1_556 S
Cd156 O160 2.273 1_556 S
Cd156 O164 2.277 . S
O157 C154 1.160 . S
O157 Cd158 2.203 . S
Cd158 O157 2.203 . S
Cd158 O160 2.411 . S
Cd158 O161 2.333 . S
Cd158 O162 2.352 . S
Cd158 O166 2.277 1_554 S
Cd158 O167 2.356 . S
C159 O164 1.209 . S
C159 O166 1.226 . S
O160 Cd156 2.273 1_554 S
O160 Cd158 2.411 . S
O160 C163 1.320 . S
O161 Cd158 2.333 . S
O161 C163 1.214 . S
O162 Cd158 2.352 . S
O162 C165 1.258 . S
C163 O160 1.320 . S
C163 O161 1.214 . S
O164 Cd156 2.277 . S
O164 C159 1.209 . S
C165 O162 1.258 . S
C165 O167 1.282 . S
O166 Cd158 2.277 1_556 S
O166 C159 1.226 . S
O167 Cd158 2.356 . S
O167 C165 1.282 . S
C168 O169 1.306 . S
C168 O171 1.160 . S
O169 C168 1.306 . S
O169 Cd170 2.228 . S
Cd170 O169 2.228 . S
Cd170 O174 2.273 . S
Cd170 O178 2.277 . S
O171 C168 1.160 . S
O171 Cd172 2.203 . S
Cd172 O171 2.203 . S
Cd172 O174 2.411 . S
Cd172 O175 2.333 . S
Cd172 O176 2.352 . S
Cd172 O180 2.277 . S
Cd172 O181 2.356 . S
C173 O178 1.211 . S
C173 O180 1.258 . S
O174 Cd170 2.273 . S
O174 Cd172 2.411 . S
O174 C177 1.320 . S
O175 Cd172 2.333 . S
O175 C177 1.214 . S
O176 Cd172 2.352 . S
O176 C179 1.258 . S
C177 O174 1.320 . S
C177 O175 1.214 . S
O178 Cd170 2.277 . S
O178 C173 1.211 . S
C179 O176 1.258 . S
C179 O181 1.282 . S
O180 Cd172 2.277 . S
O180 C173 1.258 . S
O181 Cd172 2.356 . S
O181 C179 1.282 . S
C182 O183 1.306 . S
C182 O185 1.160 . S
O183 C182 1.306 . S
O183 Cd184 2.228 . S
Cd184 O183 2.228 . S
Cd184 O188 2.273 . S
Cd184 O192 2.277 . S
O185 C182 1.160 . S
O185 Cd186 2.203 . S
Cd186 O185 2.203 . S
Cd186 O188 2.411 . S
Cd186 O189 2.333 . S
Cd186 O190 2.352 1_554 S
Cd186 O194 2.277 . S
Cd186 O195 2.356 1_554 S
C187 O192 1.209 . S
C187 O194 1.226 . S
O188 Cd184 2.273 . S
O188 Cd186 2.411 . S
O188 C191 1.320 . S
O189 Cd186 2.333 . S
O189 C191 1.214 . S
O190 Cd186 2.352 1_556 S
O190 C193 1.258 . S
C191 O188 1.320 . S
C191 O189 1.214 . S
O192 Cd184 2.277 . S
O192 C187 1.209 . S
C193 O190 1.258 . S
C193 O195 1.282 . S
O194 Cd186 2.277 . S
O194 C187 1.226 . S
O195 Cd186 2.356 1_556 S
O195 C193 1.282 . S
C196 O197 1.306 . S
C196 O199 1.160 . S
O197 C196 1.306 . S
O197 Cd198 2.228 . S
Cd198 O197 2.228 . S
Cd198 O202 2.273 . S
Cd198 O206 2.277 . S
O199 C196 1.160 . S
O199 Cd200 2.203 . S
Cd200 O199 2.203 . S
Cd200 O202 2.411 . S
Cd200 O203 2.333 . S
Cd200 O204 2.352 . S
Cd200 O208 2.277 . S
Cd200 O209 2.356 . S
C201 O206 1.209 . S
C201 O208 1.226 . S
O202 Cd198 2.273 . S
O202 Cd200 2.411 . S
O202 C205 1.320 . S
O203 Cd200 2.333 . S
O203 C205 1.214 . S
O204 Cd200 2.352 . S
O204 C207 1.258 . S
C205 O202 1.320 . S
C205 O203 1.214 . S
O206 Cd198 2.277 . S
O206 C201 1.209 . S
C207 O204 1.258 . S
C207 O209 1.282 . S
O208 Cd200 2.277 . S
O208 C201 1.226 . S
O209 Cd200 2.356 . S
O209 C207 1.282 . S
C210 O211 1.306 . S
C210 O213 1.160 . S
O211 C210 1.306 . S
O211 Cd212 2.228 . S
Cd212 O211 2.228 . S
Cd212 O216 2.273 . S
Cd212 O220 2.277 . S
O213 C210 1.160 . S
O213 Cd214 2.203 . S
Cd214 O213 2.203 . S
Cd214 O216 2.411 . S
Cd214 O217 2.333 . S
Cd214 O218 2.352 . S
Cd214 O222 2.277 . S
Cd214 O223 2.356 . S
C215 O220 1.209 . S
C215 O222 1.226 . S
O216 Cd212 2.273 . S
O216 Cd214 2.411 . S
O216 C219 1.320 . S
O217 Cd214 2.333 . S
O217 C219 1.214 . S
O218 Cd214 2.352 . S
O218 C221 1.258 . S
C219 O216 1.320 . S
C219 O217 1.214 . S
O220 Cd212 2.277 . S
O220 C215 1.209 . S
C221 O218 1.258 . S
C221 O223 1.282 . S
O222 Cd214 2.277 . S
O222 C215 1.226 . S
O223 Cd214 2.356 . S
O223 C221 1.282 . S
C224 O225 1.306 . S
C224 O227 1.160 . S
O225 C224 1.306 . S
O225 Cd226 2.228 1_545 S
Cd226 O225 2.228 1_565 S
Cd226 O230 2.273 1_565 S
Cd226 O234 2.277 . S
O227 C224 1.160 . S
O227 Cd228 2.203 . S
Cd228 O227 2.203 . S
Cd228 O230 2.411 . S
Cd228 O231 2.333 . S
Cd228 O232 2.352 . S
Cd228 O236 2.277 1_545 S
Cd228 O237 2.356 . S
C229 O234 1.209 . S
C229 O236 1.226 . S
O230 Cd226 2.273 1_545 S
O230 Cd228 2.411 . S
O230 C233 1.320 . S
O231 Cd228 2.333 . S
O231 C233 1.214 . S
O232 Cd228 2.352 . S
O232 C235 1.258 . S
C233 O230 1.320 . S
C233 O231 1.214 . S
O234 Cd226 2.277 . S
O234 C229 1.209 . S
C235 O232 1.258 . S
C235 O237 1.282 . S
O236 Cd228 2.277 1_565 S
O236 C229 1.226 . S
O237 Cd228 2.356 . S
O237 C235 1.282 . S
C238 O239 1.306 . S
C238 O241 1.160 . S
O239 C238 1.306 . S
O239 Cd240 2.228 . S
Cd240 O239 2.228 . S
Cd240 O244 2.273 . S
Cd240 O248 2.277 . S
O241 C238 1.160 . S
O241 Cd242 2.203 . S
Cd242 O241 2.203 . S
Cd242 O244 2.411 . S
Cd242 O245 2.333 . S
Cd242 O246 2.352 . S
Cd242 O250 2.277 . S
Cd242 O251 2.356 . S
C243 O248 1.209 . S
C243 O250 1.226 . S
O244 Cd240 2.273 . S
O244 Cd242 2.411 . S
O244 C247 1.320 . S
O245 Cd242 2.333 . S
O245 C247 1.214 . S
O246 Cd242 2.352 . S
O246 C249 1.258 . S
C247 O244 1.320 . S
C247 O245 1.214 . S
O248 Cd240 2.277 . S
O248 C243 1.209 . S
C249 O246 1.258 . S
C249 O251 1.282 . S
O250 Cd242 2.277 . S
O250 C243 1.226 . S
O251 Cd242 2.356 . S
O251 C249 1.282 . S
C252 O253 1.306 . S
C252 O255 1.160 . S
O253 C252 1.306 . S
O253 Cd254 2.228 . S
Cd254 O253 2.228 . S
Cd254 O258 2.273 . S
Cd254 O262 2.277 . S
O255 C252 1.160 . S
O255 Cd256 2.203 . S
Cd256 O255 2.203 . S
Cd256 O258 2.411 . S
Cd256 O259 2.333 . S
Cd256 O260 2.352 . S
Cd256 O264 2.277 . S
Cd256 O265 2.356 . S
C257 O262 1.209 . S
C257 O264 1.226 . S
O258 Cd254 2.273 . S
O258 Cd256 2.411 . S
O258 C261 1.320 . S
O259 Cd256 2.333 . S
O259 C261 1.214 . S
O260 Cd256 2.352 . S
O260 C263 1.258 . S
C261 O258 1.320 . S
C261 O259 1.214 . S
O262 Cd254 2.277 . S
O262 C257 1.209 . S
C263 O260 1.258 . S
C263 O265 1.282 . S
O264 Cd256 2.277 . S
O264 C257 1.226 . S
O265 Cd256 2.356 . S
O265 C263 1.282 . S
C266 O267 1.306 . S
C266 O269 1.148 1_545 S
O267 C266 1.306 . S
O267 Cd268 2.228 . S
Cd268 O267 2.228 . S
Cd268 O272 2.273 1_545 S
Cd268 O276 2.277 . S
O269 C266 1.148 1_565 S
O269 Cd270 2.204 . S
Cd270 O269 2.204 . S
Cd270 O272 2.411 . S
Cd270 O273 2.333 . S
Cd270 O274 2.352 . S
Cd270 O278 2.277 1_565 S
Cd270 O279 2.356 . S
C271 O276 1.209 . S
C271 O278 1.226 . S
O272 Cd268 2.273 1_565 S
O272 Cd270 2.411 . S
O272 C275 1.320 . S
O273 Cd270 2.333 . S
O273 C275 1.214 . S
O274 Cd270 2.352 . S
O274 C277 1.258 . S
C275 O272 1.320 . S
C275 O273 1.214 . S
O276 Cd268 2.277 . S
O276 C271 1.209 . S
C277 O274 1.258 . S
C277 O279 1.282 . S
O278 Cd270 2.277 1_545 S
O278 C271 1.226 . S
O279 Cd270 2.356 . S
O279 C277 1.282 . S
C280 O281 1.306 . S
C280 O283 1.145 1_554 S
O281 C280 1.306 . S
O281 Cd282 2.228 . S
Cd282 O281 2.228 . S
Cd282 O286 2.238 1_554 S
Cd282 O290 2.277 . S
O283 C280 1.145 1_556 S
O283 Cd284 2.204 . S
Cd284 O283 2.204 . S
Cd284 O286 2.419 . S
Cd284 O287 2.333 . S
Cd284 O288 2.352 . S
Cd284 O292 2.277 1_556 S
Cd284 O293 2.356 . S
C285 O290 1.209 . S
C285 O292 1.226 . S
O286 Cd282 2.238 1_556 S
O286 Cd284 2.419 . S
O286 C289 1.324 . S
O287 Cd284 2.333 . S
O287 C289 1.214 . S
O288 Cd284 2.352 . S
O288 C291 1.258 . S
C289 O286 1.324 . S
C289 O287 1.214 . S
O290 Cd282 2.277 . S
O290 C285 1.209 . S
C291 O288 1.258 . S
C291 O293 1.282 . S
O292 Cd284 2.277 1_554 S
O292 C285 1.226 . S
O293 Cd284 2.356 . S
O293 C291 1.282 . S
C294 O295 1.306 . S
C294 O297 1.160 . S
O295 C294 1.306 . S
O295 Cd296 2.228 . S
Cd296 O295 2.228 . S
Cd296 O300 2.273 . S
Cd296 O304 2.277 . S
O297 C294 1.160 . S
O297 Cd298 2.203 . S
Cd298 O297 2.203 . S
Cd298 O300 2.411 . S
Cd298 O301 2.333 . S
Cd298 O302 2.352 . S
Cd298 O306 2.277 . S
Cd298 O307 2.356 . S
C299 O304 1.209 . S
C299 O306 1.226 . S
O300 Cd296 2.273 . S
O300 Cd298 2.411 . S
O300 C303 1.320 . S
O301 Cd298 2.333 . S
O301 C303 1.214 . S
O302 Cd298 2.352 . S
O302 C305 1.258 . S
C303 O300 1.320 . S
C303 O301 1.214 . S
O304 Cd296 2.277 . S
O304 C299 1.209 . S
C305 O302 1.258 . S
C305 O307 1.282 . S
O306 Cd298 2.277 . S
O306 C299 1.226 . S
O307 Cd298 2.356 . S
O307 C305 1.282 . S
C308 O309 1.306 . S
C308 O311 1.160 . S
O309 C308 1.306 . S
O309 Cd310 2.228 . S
Cd310 O309 2.228 . S
Cd310 O314 2.273 . S
Cd310 O318 2.277 . S
O311 C308 1.160 . S
O311 Cd312 2.203 . S
Cd312 O311 2.203 . S
Cd312 O314 2.411 . S
Cd312 O315 2.333 . S
Cd312 O316 2.352 . S
Cd312 O320 2.277 . S
Cd312 O321 2.356 . S
C313 O318 1.209 . S
C313 O320 1.226 . S
O314 Cd310 2.273 . S
O314 Cd312 2.411 . S
O314 C317 1.320 . S
O315 Cd312 2.333 . S
O315 C317 1.214 . S
O316 Cd312 2.352 . S
O316 C319 1.258 . S
C317 O314 1.320 . S
C317 O315 1.214 . S
O318 Cd310 2.277 . S
O318 C313 1.209 . S
C319 O316 1.258 . S
C319 O321 1.282 . S
O320 Cd312 2.277 . S
O320 C313 1.226 . S
O321 Cd312 2.356 . S
O321 C319 1.282 . S
C322 O323 1.306 . S
C322 O325 1.160 . S
O323 C322 1.306 . S
O323 Cd324 2.228 . S
Cd324 O323 2.228 . S
Cd324 O328 2.273 . S
Cd324 O332 2.277 . S
O325 C322 1.160 . S
O325 Cd326 2.203 . S
Cd326 O325 2.203 . S
Cd326 O328 2.411 . S
Cd326 O329 2.333 . S
Cd326 O330 2.352 . S
Cd326 O334 2.277 . S
Cd326 O335 2.356 . S
C327 O332 1.209 . S
C327 O334 1.226 . S
O328 Cd324 2.273 . S
O328 Cd326 2.411 . S
O328 C331 1.320 . S
O329 Cd326 2.333 . S
O329 C331 1.214 . S
O330 Cd326 2.352 . S
O330 C333 1.258 . S
C331 O328 1.320 . S
C331 O329 1.214 . S
O332 Cd324 2.277 . S
O332 C327 1.209 . S
C333 O330 1.258 . S
C333 O335 1.282 . S
O334 Cd326 2.277 . S
O334 C327 1.226 . S
O335 Cd326 2.356 . S
O335 C333 1.282 . S
Zn336 O342 1.969 . S
Zn336 O343 1.965 1_565 S
Zn336 O347 2.024 . S
Zn336 O352 1.969 1_565 S
Zn337 O344 1.969 1_654 S
Zn337 O350 1.966 1_554 S
Zn337 O351 1.965 . S
Zn337 O353 2.024 1_655 S
C338 O339 1.229 . S
C338 O347 1.058 . S
O339 C338 1.229 . S
C340 O341 1.213 1_454 S
C340 O353 1.058 . S
O341 C340 1.213 1_656 S
O342 Zn336 1.969 . S
O342 C345 1.267 . S
O343 Zn336 1.965 1_545 S
O343 C354 1.260 1_554 S
O344 Zn337 1.969 1_456 S
O344 C354 1.258 . S
C345 O342 1.267 . S
C345 O346 1.228 . S
O346 C345 1.228 . S
O347 Zn336 2.024 . S
O347 C338 1.058 . S
C348 O349 1.228 . S
C348 O350 1.262 1_554 S
O349 C348 1.228 . S
O350 Zn337 1.966 1_556 S
O350 C348 1.262 1_556 S
O351 Zn337 1.965 . S
O351 C355 1.260 1_655 S
O352 Zn336 1.969 1_545 S
O352 C355 1.258 . S
O353 Zn337 2.024 1_455 S
O353 C340 1.058 . S
C354 O343 1.260 1_556 S
C354 O344 1.258 . S
C355 O351 1.260 1_455 S
C355 O352 1.258 . S
Zn356 O362 1.969 . S
Zn356 O363 1.965 . S
Zn356 O367 2.024 . S
Zn356 O372 1.969 . S
Zn357 O364 1.969 . S
Zn357 O370 1.969 . S
Zn357 O371 1.965 . S
Zn357 O373 2.024 . S
C358 O359 1.229 . S
C358 O367 1.058 . S
O359 C358 1.229 . S
C360 O361 1.229 . S
C360 O373 1.058 . S
O361 C360 1.229 . S
O362 Zn356 1.969 . S
O362 C365 1.267 . S
O363 Zn356 1.965 . S
O363 C374 1.260 . S
O364 Zn357 1.969 . S
O364 C374 1.258 . S
C365 O362 1.267 . S
C365 O366 1.228 . S
O366 C365 1.228 . S
O367 Zn356 2.024 . S
O367 C358 1.058 . S
C368 O369 1.228 . S
C368 O370 1.267 . S
O369 C368 1.228 . S
O370 Zn357 1.969 . S
O370 C368 1.267 . S
O371 Zn357 1.965 . S
O371 C375 1.260 . S
O372 Zn356 1.969 . S
O372 C375 1.258 . S
O373 Zn357 2.024 . S
O373 C360 1.058 . S
C374 O363 1.260 . S
C374 O364 1.258 . S
C375 O371 1.260 . S
C375 O372 1.258 . S
Zn376 O382 1.969 . S
Zn376 O383 1.965 . S
Zn376 O387 2.024 . S
Zn376 O392 1.969 . S
Zn377 O384 1.969 . S
Zn377 O390 1.969 . S
Zn377 O391 1.965 1_565 S
Zn377 O393 2.024 . S
C378 O379 1.229 . S
C378 O387 1.058 . S
O379 C378 1.229 . S
C380 O381 1.229 . S
C380 O393 1.058 . S
O381 C380 1.229 . S
O382 Zn376 1.969 . S
O382 C385 1.267 . S
O383 Zn376 1.965 . S
O383 C394 1.260 . S
O384 Zn377 1.969 . S
O384 C394 1.258 1_565 S
C385 O382 1.267 . S
C385 O386 1.228 . S
O386 C385 1.228 . S
O387 Zn376 2.024 . S
O387 C378 1.058 . S
C388 O389 1.228 . S
C388 O390 1.267 . S
O389 C388 1.228 . S
O390 Zn377 1.969 . S
O390 C388 1.267 . S
O391 Zn377 1.965 1_545 S
O391 C395 1.260 . S
O392 Zn376 1.969 . S
O392 C395 1.258 . S
O393 Zn377 2.024 . S
O393 C380 1.058 . S
C394 O383 1.260 . S
C394 O384 1.258 1_545 S
C395 O391 1.260 . S
C395 O392 1.258 . S
Zn396 O402 1.969 . S
Zn396 O403 1.965 . S
Zn396 O407 2.024 . S
Zn396 O412 1.969 . S
Zn397 O404 1.969 . S
Zn397 O410 1.969 . S
Zn397 O411 1.965 . S
Zn397 O413 2.024 . S
C398 O399 1.229 . S
C398 O407 1.058 . S
O399 C398 1.229 . S
C400 O401 1.229 . S
C400 O413 1.058 . S
O401 C400 1.229 . S
O402 Zn396 1.969 . S
O402 C405 1.267 . S
O403 Zn396 1.965 . S
O403 C414 1.260 . S
O404 Zn397 1.969 . S
O404 C414 1.258 . S
C405 O402 1.267 . S
C405 O406 1.228 . S
O406 C405 1.228 . S
O407 Zn396 2.024 . S
O407 C398 1.058 . S
C408 O409 1.228 . S
C408 O410 1.267 . S
O409 C408 1.228 . S
O410 Zn397 1.969 . S
O410 C408 1.267 . S
O411 Zn397 1.965 . S
O411 C415 1.260 . S
O412 Zn396 1.969 . S
O412 C415 1.258 . S
O413 Zn397 2.024 . S
O413 C400 1.058 . S
C414 O403 1.260 . S
C414 O404 1.258 . S
C415 O411 1.260 . S
C415 O412 1.258 . S
Zn416 O422 1.969 . S
Zn416 O423 1.967 1_455 S
Zn416 O427 2.024 1_565 S
Zn416 O432 1.969 1_565 S
Zn417 O424 1.969 1_455 S
Zn417 O430 1.969 1_455 S
Zn417 O431 1.965 . S
Zn417 O433 2.024 . S
C418 O419 1.229 1_545 S
C418 O427 1.058 . S
O419 C418 1.229 1_565 S
C420 O421 1.229 . S
C420 O433 1.058 1_655 S
O421 C420 1.229 . S
O422 Zn416 1.969 . S
O422 C425 1.267 . S
O423 Zn416 1.967 1_655 S
O423 C434 1.288 . S
O424 Zn417 1.969 1_655 S
O424 C434 1.218 1_545 S
C425 O422 1.267 . S
C425 O426 1.228 . S
O426 C425 1.228 . S
O427 Zn416 2.024 1_545 S
O427 C418 1.058 . S
C428 O429 1.228 . S
C428 O430 1.267 1_455 S
O429 C428 1.228 . S
O430 Zn417 1.969 1_655 S
O430 C428 1.267 1_655 S
O431 Zn417 1.965 . S
O431 C435 1.260 . S
O432 Zn416 1.969 1_545 S
O432 C435 1.258 . S
O433 Zn417 2.024 . S
O433 C420 1.058 1_455 S
C434 O423 1.288 . S
C434 O424 1.218 1_565 S
C435 O431 1.260 . S
C435 O432 1.258 . S
Zn436 O442 1.969 . S
Zn436 O443 1.965 . S
Zn436 O447 2.024 . S
Zn436 O452 1.969 . S
Zn437 O444 1.969 . S
Zn437 O450 1.969 . S
Zn437 O451 1.965 . S
Zn437 O453 2.024 . S
C438 O439 1.229 . S
C438 O447 1.058 . S
O439 C438 1.229 . S
C440 O441 1.229 . S
C440 O453 1.058 . S
O441 C440 1.229 . S
O442 Zn436 1.969 . S
O442 C445 1.267 . S
O443 Zn436 1.965 . S
O443 C454 1.260 . S
O444 Zn437 1.969 . S
O444 C454 1.258 . S
C445 O442 1.267 . S
C445 O446 1.228 . S
O446 C445 1.228 . S
O447 Zn436 2.024 . S
O447 C438 1.058 . S
C448 O449 1.228 . S
C448 O450 1.267 . S
O449 C448 1.228 . S
O450 Zn437 1.969 . S
O450 C448 1.267 . S
O451 Zn437 1.965 . S
O451 C455 1.260 . S
O452 Zn436 1.969 . S
O452 C455 1.258 . S
O453 Zn437 2.024 . S
O453 C440 1.058 . S
C454 O443 1.260 . S
C454 O444 1.258 . S
C455 O451 1.260 . S
C455 O452 1.258 . S
Zn456 O462 1.961 1_554 S
Zn456 O463 1.963 1_545 S
Zn456 O467 2.028 . S
Zn456 O472 1.973 . S
Zn457 O464 1.969 1_545 S
Zn457 O470 1.969 1_545 S
Zn457 O471 1.965 . S
Zn457 O473 2.024 . S
C458 O459 1.229 . S
C458 O467 1.058 . S
O459 C458 1.229 . S
C460 O461 1.229 . S
C460 O473 1.058 1_565 S
O461 C460 1.229 . S
O462 Zn456 1.961 1_556 S
O462 C465 1.267 . S
O463 Zn456 1.963 1_565 S
O463 C474 1.272 . S
O464 Zn457 1.969 1_565 S
O464 C474 1.258 . S
C465 O462 1.267 . S
C465 O466 1.228 . S
O466 C465 1.228 . S
O467 Zn456 2.028 . S
O467 C458 1.058 . S
C468 O469 1.228 . S
C468 O470 1.267 1_545 S
O469 C468 1.228 . S
O470 Zn457 1.969 1_565 S
O470 C468 1.267 1_565 S
O471 Zn457 1.965 . S
O471 C475 1.260 . S
O472 Zn456 1.973 . S
O472 C475 1.258 . S
O473 Zn457 2.024 . S
O473 C460 1.058 1_545 S
C474 O463 1.272 . S
C474 O464 1.258 . S
C475 O471 1.260 . S
C475 O472 1.258 . S
Zn476 O482 1.969 . S
Zn476 O483 1.965 . S
Zn476 O487 2.024 . S
Zn476 O492 1.969 . S
Zn477 O484 1.969 . S
Zn477 O490 1.969 . S
Zn477 O491 1.965 . S
Zn477 O493 2.024 . S
C478 O479 1.229 . S
C478 O487 1.058 . S
O479 C478 1.229 . S
C480 O481 1.229 . S
C480 O493 1.058 . S
O481 C480 1.229 . S
O482 Zn476 1.969 . S
O482 C485 1.267 . S
O483 Zn476 1.965 . S
O483 C494 1.260 . S
O484 Zn477 1.969 . S
O484 C494 1.258 . S
C485 O482 1.267 . S
C485 O486 1.228 . S
O486 C485 1.228 . S
O487 Zn476 2.024 . S
O487 C478 1.058 . S
C488 O489 1.228 . S
C488 O490 1.267 . S
O489 C488 1.228 . S
O490 Zn477 1.969 . S
O490 C488 1.267 . S
O491 Zn477 1.965 . S
O491 C495 1.260 . S
O492 Zn476 1.969 . S
O492 C495 1.258 . S
O493 Zn477 2.024 . S
O493 C480 1.058 . S
C494 O483 1.260 . S
C494 O484 1.258 . S
C495 O491 1.260 . S
C495 O492 1.258 . S
Zn496 O502 1.969 . S
Zn496 O503 1.965 . S
Zn496 O507 2.024 . S
Zn496 O512 1.969 . S
Zn497 O504 1.969 1_556 S
Zn497 O510 1.969 1_556 S
Zn497 O511 1.965 1_556 S
Zn497 O513 2.024 . S
C498 O499 1.229 . S
C498 O507 1.058 . S
O499 C498 1.229 . S
C500 O501 1.229 . S
C500 O513 1.058 . S
O501 C500 1.229 . S
O502 Zn496 1.969 . S
O502 C505 1.267 . S
O503 Zn496 1.965 . S
O503 C514 1.260 . S
O504 Zn497 1.969 1_554 S
O504 C514 1.258 . S
C505 O502 1.267 . S
C505 O506 1.228 . S
O506 C505 1.228 . S
O507 Zn496 2.024 . S
O507 C498 1.058 . S
C508 O509 1.228 . S
C508 O510 1.267 1_556 S
O509 C508 1.228 . S
O510 Zn497 1.969 1_554 S
O510 C508 1.267 1_554 S
O511 Zn497 1.965 1_554 S
O511 C515 1.260 . S
O512 Zn496 1.969 . S
O512 C515 1.258 . S
O513 Zn497 2.024 . S
O513 C500 1.058 . S
C514 O503 1.260 . S
C514 O504 1.258 . S
C515 O511 1.260 . S
C515 O512 1.258 . S
Zn516 O522 1.969 . S
Zn516 O523 1.965 . S
Zn516 O527 2.024 . S
Zn516 O532 1.969 . S
Zn517 O524 1.969 . S
Zn517 O530 1.969 . S
Zn517 O531 1.965 . S
Zn517 O533 2.024 . S
C518 O519 1.229 . S
C518 O527 1.058 . S
O519 C518 1.229 . S
C520 O521 1.229 . S
C520 O533 1.058 . S
O521 C520 1.229 . S
O522 Zn516 1.969 . S
O522 C525 1.267 . S
O523 Zn516 1.965 . S
O523 C534 1.260 . S
O524 Zn517 1.969 . S
O524 C534 1.258 . S
C525 O522 1.267 . S
C525 O526 1.228 . S
O526 C525 1.228 . S
O527 Zn516 2.024 . S
O527 C518 1.058 . S
C528 O529 1.228 . S
C528 O530 1.267 . S
O529 C528 1.228 . S
O530 Zn517 1.969 . S
O530 C528 1.267 . S
O531 Zn517 1.965 . S
O531 C535 1.260 . S
O532 Zn516 1.969 . S
O532 C535 1.258 . S
O533 Zn517 2.024 . S
O533 C520 1.058 . S
C534 O523 1.260 . S
C534 O524 1.258 . S
C535 O531 1.260 . S
C535 O532 1.258 . S
Zn536 O542 1.969 . S
Zn536 O543 1.965 . S
Zn536 O547 2.024 . S
Zn536 O552 1.969 . S
Zn537 O544 1.955 1_655 S
Zn537 O550 1.969 . S
Zn537 O551 1.965 1_655 S
Zn537 O553 2.024 . S
C538 O539 1.229 . S
C538 O547 1.058 . S
O539 C538 1.229 . S
C540 O541 1.229 . S
C540 O553 1.058 . S
O541 C540 1.229 . S
O542 Zn536 1.969 . S
O542 C545 1.267 . S
O543 Zn536 1.965 . S
O543 C554 1.260 . S
O544 Zn537 1.955 1_455 S
O544 C554 1.276 . S
C545 O542 1.267 . S
C545 O546 1.228 . S
O546 C545 1.228 . S
O547 Zn536 2.024 . S
O547 C538 1.058 . S
C548 O549 1.228 . S
C548 O550 1.267 . S
O549 C548 1.228 . S
O550 Zn537 1.969 . S
O550 C548 1.267 . S
O551 Zn537 1.965 1_455 S
O551 C555 1.260 . S
O552 Zn536 1.969 . S
O552 C555 1.258 . S
O553 Zn537 2.024 . S
O553 C540 1.058 . S
C554 O543 1.260 . S
C554 O544 1.276 . S
C555 O551 1.260 . S
C555 O552 1.258 . S
Zn556 O562 1.969 . S
Zn556 O563 1.965 . S
Zn556 O567 2.024 . S
Zn556 O572 1.969 . S
Zn557 O564 1.969 . S
Zn557 O570 1.969 . S
Zn557 O571 1.965 . S
Zn557 O573 2.024 . S
C558 O559 1.229 . S
C558 O567 1.058 . S
O559 C558 1.229 . S
C560 O561 1.229 . S
C560 O573 1.058 . S
O561 C560 1.229 . S
O562 Zn556 1.969 . S
O562 C565 1.267 . S
O563 Zn556 1.965 . S
O563 C574 1.260 . S
O564 Zn557 1.969 . S
O564 C574 1.258 . S
C565 O562 1.267 . S
C565 O566 1.228 . S
O566 C565 1.228 . S
O567 Zn556 2.024 . S
O567 C558 1.058 . S
C568 O569 1.228 . S
C568 O570 1.267 . S
O569 C568 1.228 . S
O570 Zn557 1.969 . S
O570 C568 1.267 . S
O571 Zn557 1.965 . S
O571 C575 1.260 . S
O572 Zn556 1.969 . S
O572 C575 1.258 . S
O573 Zn557 2.024 . S
O573 C560 1.058 . S
C574 O563 1.260 . S
C574 O564 1.258 . S
C575 O571 1.260 . S
C575 O572 1.258 . S
Zn576 O582 1.969 . S
Zn576 O583 1.965 . S
Zn576 O587 2.024 . S
Zn576 O592 1.969 . S
Zn577 O584 1.969 . S
Zn577 O590 1.969 . S
Zn577 O591 1.965 . S
Zn577 O593 2.024 . S
C578 O579 1.229 . S
C578 O587 1.058 . S
O579 C578 1.229 . S
C580 O581 1.229 . S
C580 O593 1.058 . S
O581 C580 1.229 . S
O582 Zn576 1.969 . S
O582 C585 1.267 . S
O583 Zn576 1.965 . S
O583 C594 1.260 . S
O584 Zn577 1.969 . S
O584 C594 1.258 . S
C585 O582 1.267 . S
C585 O586 1.228 . S
O586 C585 1.228 . S
O587 Zn576 2.024 . S
O587 C578 1.058 . S
C588 O589 1.228 . S
C588 O590 1.267 . S
O589 C588 1.228 . S
O590 Zn577 1.969 . S
O590 C588 1.267 . S
O591 Zn577 1.965 . S
O591 C595 1.260 . S
O592 Zn576 1.969 . S
O592 C595 1.258 . S
O593 Zn577 2.024 . S
O593 C580 1.058 . S
C594 O583 1.260 . S
C594 O584 1.258 . S
C595 O591 1.260 . S
C595 O592 1.258 . S
Zn596 O602 1.969 . S
Zn596 O603 1.965 . S
Zn596 O607 2.024 . S
Zn596 O612 1.969 . S
Zn597 O604 1.969 . S
Zn597 O610 1.969 . S
Zn597 O611 1.965 . S
Zn597 O613 2.024 . S
C598 O599 1.229 . S
C598 O607 1.058 . S
O599 C598 1.229 . S
C600 O601 1.229 . S
C600 O613 1.058 . S
O601 C600 1.229 . S
O602 Zn596 1.969 . S
O602 C605 1.267 . S
O603 Zn596 1.965 . S
O603 C614 1.260 . S
O604 Zn597 1.969 . S
O604 C614 1.258 . S
C605 O602 1.267 . S
C605 O606 1.228 . S
O606 C605 1.228 . S
O607 Zn596 2.024 . S
O607 C598 1.058 . S
C608 O609 1.228 . S
C608 O610 1.267 . S
O609 C608 1.228 . S
O610 Zn597 1.969 . S
O610 C608 1.267 . S
O611 Zn597 1.965 . S
O611 C615 1.260 . S
O612 Zn596 1.969 . S
O612 C615 1.258 . S
O613 Zn597 2.024 . S
O613 C600 1.058 . S
C614 O603 1.260 . S
C614 O604 1.258 . S
C615 O611 1.260 . S
C615 O612 1.258 . S
Zn616 O622 1.969 . S
Zn616 O623 1.965 . S
Zn616 O627 2.024 . S
Zn616 O632 1.969 . S
Zn617 O624 1.969 . S
Zn617 O630 1.969 . S
Zn617 O631 1.965 . S
Zn617 O633 2.024 . S
C618 O619 1.229 . S
C618 O627 1.058 . S
O619 C618 1.229 . S
C620 O621 1.229 . S
C620 O633 1.058 . S
O621 C620 1.229 . S
O622 Zn616 1.969 . S
O622 C625 1.267 . S
O623 Zn616 1.965 . S
O623 C634 1.260 . S
O624 Zn617 1.969 . S
O624 C634 1.258 . S
C625 O622 1.267 . S
C625 O626 1.228 . S
O626 C625 1.228 . S
O627 Zn616 2.024 . S
O627 C618 1.058 . S
C628 O629 1.228 . S
C628 O630 1.267 . S
O629 C628 1.228 . S
O630 Zn617 1.969 . S
O630 C628 1.267 . S
O631 Zn617 1.965 . S
O631 C635 1.260 . S
O632 Zn616 1.969 . S
O632 C635 1.258 . S
O633 Zn617 2.024 . S
O633 C620 1.058 . S
C634 O623 1.260 . S
C634 O624 1.258 . S
C635 O631 1.260 . S
C635 O632 1.258 . S
Zn636 O642 1.969 . S
Zn636 O643 1.965 . S
Zn636 O647 2.024 1_655 S
Zn636 O652 1.969 1_655 S
Zn637 O644 1.969 1_554 S
Zn637 O650 1.969 . S
Zn637 O651 1.965 . S
Zn637 O653 2.024 . S
C638 O639 1.240 . S
C638 O647 1.058 . S
O639 C638 1.240 . S
C640 O641 1.229 1_554 S
C640 O653 1.058 . S
O641 C640 1.229 1_556 S
O642 Zn636 1.969 . S
O642 C645 1.267 . S
O643 Zn636 1.965 . S
O643 C654 1.260 1_654 S
O644 Zn637 1.969 1_556 S
O644 C654 1.258 . S
C645 O642 1.267 . S
C645 O646 1.228 . S
O646 C645 1.228 . S
O647 Zn636 2.024 1_455 S
O647 C638 1.058 . S
C648 O649 1.228 . S
C648 O650 1.267 . S
O649 C648 1.228 . S
O650 Zn637 1.969 . S
O650 C648 1.267 . S
O651 Zn637 1.965 . S
O651 C655 1.260 . S
O652 Zn636 1.969 1_455 S
O652 C655 1.258 . S
O653 Zn637 2.024 . S
O653 C640 1.058 . S
C654 O643 1.260 1_456 S
C654 O644 1.258 . S
C655 O651 1.260 . S
C655 O652 1.258 . S
H656 C674 0.951 . S
H657 C676 0.942 1_655 S
H658 C678 0.950 . S
H659 C679 0.950 . S
H660 C681 0.950 . S
H661 C684 0.950 . S
H662 C685 0.950 . S
H663 C687 0.950 . S
H664 C688 0.950 1_554 S
H665 C689 0.951 . S
H666 C691 0.951 . S
H667 C693 0.950 . S
H668 C694 0.950 . S
H669 C696 0.950 . S
H670 C699 0.950 . S
H671 C700 0.950 . S
H672 C702 0.950 . S
H673 C703 0.950 . S
C674 H656 0.951 . S
C674 C675 1.367 . S
C674 C676 1.379 1_655 S
C675 C674 1.367 . S
C675 C679 1.381 1_655 S
C676 H657 0.942 1_455 S
C676 C674 1.379 1_455 S
C676 C677 1.383 . S
C677 C676 1.383 . S
C677 C678 1.414 . S
C677 C680 1.499 . S
C678 H658 0.950 . S
C678 C677 1.414 . S
C678 C679 1.374 . S
C679 H659 0.950 . S
C679 C675 1.381 1_455 S
C679 C678 1.374 . S
C680 C677 1.499 . S
C680 C681 1.373 1_455 S
C680 C682 1.389 . S
C681 H660 0.950 . S
C681 C680 1.373 1_655 S
C681 C697 1.377 . S
C682 C680 1.389 . S
C682 C683 1.524 . S
C682 C696 1.377 . S
C683 C682 1.524 . S
C683 C684 1.397 . S
C683 C688 1.363 . S
C684 H661 0.950 . S
C684 C683 1.397 . S
C684 C685 1.334 . S
C685 H662 0.950 . S
C685 C684 1.334 . S
C685 C686 1.287 . S
C686 C685 1.287 . S
C686 C687 1.524 1_556 S
C686 H705 0.913 . S
C687 H663 0.950 . S
C687 C686 1.524 1_554 S
C687 C688 1.415 1_554 S
C688 H664 0.950 1_556 S
C688 C683 1.363 . S
C688 C687 1.415 1_556 S
C689 H665 0.951 . S
C689 C690 1.366 1_556 S
C689 C691 1.388 . S
C690 C689 1.366 1_554 S
C690 C694 1.385 . S
C691 H666 0.951 . S
C691 C689 1.388 . S
C691 C692 1.366 . S
C692 C691 1.366 . S
C692 C693 1.414 1_556 S
C692 C695 1.499 . S
C693 H667 0.950 . S
C693 C692 1.414 1_554 S
C693 C694 1.374 . S
C694 H668 0.950 . S
C694 C690 1.385 . S
C694 C693 1.374 . S
C695 C692 1.499 . S
C695 C696 1.373 . S
C695 C697 1.389 1_455 S
C696 H669 0.950 . S
C696 C682 1.377 . S
C696 C695 1.373 . S
C697 C681 1.377 . S
C697 C695 1.389 1_655 S
C697 C698 1.524 . S
C698 C697 1.524 . S
C698 C699 1.397 . S
C698 C703 1.363 . S
C699 H670 0.950 . S
C699 C698 1.397 . S
C699 C700 1.334 . S
C700 H671 0.950 . S
C700 C699 1.334 . S
C700 C701 1.287 . S
C701 C700 1.287 . S
C701 C702 1.524 . S
C701 H704 0.999 . S
C702 H672 0.950 . S
C702 C701 1.524 . S
C702 C703 1.415 . S
C703 H673 0.950 . S
C703 C698 1.363 . S
C703 C702 1.415 . S
H704 C701 0.999 . S
H705 C686 0.913 . S
H706 C724 0.951 . S
H707 C726 0.951 . S
H708 C728 0.950 . S
H709 C729 0.950 . S
H710 C731 0.950 . S
H711 C734 0.950 . S
H712 C735 0.950 . S
H713 C737 0.950 . S
H714 C738 0.950 . S
H715 C739 0.951 . S
H716 C741 0.951 . S
H717 C743 0.950 . S
H718 C744 0.950 . S
H719 C746 0.950 . S
H720 C749 0.950 . S
H721 C750 0.950 . S
H722 C752 0.950 . S
H723 C753 0.950 . S
C724 H706 0.951 . S
C724 C725 1.366 . S
C724 C726 1.388 . S
C725 C724 1.366 . S
C725 C729 1.385 . S
C726 H707 0.951 . S
C726 C724 1.388 . S
C726 C727 1.366 . S
C727 C726 1.366 . S
C727 C728 1.414 . S
C727 C730 1.499 . S
C728 H708 0.950 . S
C728 C727 1.414 . S
C728 C729 1.374 . S
C729 H709 0.950 . S
C729 C725 1.385 . S
C729 C728 1.374 . S
C730 C727 1.499 . S
C730 C731 1.373 . S
C730 C732 1.389 . S
C731 H710 0.950 . S
C731 C730 1.373 . S
C731 C747 1.377 . S
C732 C730 1.389 . S
C732 C733 1.524 . S
C732 C746 1.377 . S
C733 C732 1.524 . S
C733 C734 1.397 . S
C733 C738 1.363 . S
C734 H711 0.950 . S
C734 C733 1.397 . S
C734 C735 1.334 . S
C735 H712 0.950 . S
C735 C734 1.334 . S
C735 C736 1.287 . S
C736 C735 1.287 . S
C736 C737 1.524 . S
C736 H755 0.913 . S
C737 H713 0.950 . S
C737 C736 1.524 . S
C737 C738 1.415 . S
C738 H714 0.950 . S
C738 C733 1.363 . S
C738 C737 1.415 . S
C739 H715 0.951 . S
C739 C740 1.366 . S
C739 C741 1.388 . S
C740 C739 1.366 . S
C740 C744 1.385 . S
C741 H716 0.951 . S
C741 C739 1.388 . S
C741 C742 1.366 . S
C742 C741 1.366 . S
C742 C743 1.414 . S
C742 C745 1.499 . S
C743 H717 0.950 . S
C743 C742 1.414 . S
C743 C744 1.374 . S
C744 H718 0.950 . S
C744 C740 1.385 . S
C744 C743 1.374 . S
C745 C742 1.499 . S
C745 C746 1.373 . S
C745 C747 1.389 . S
C746 H719 0.950 . S
C746 C732 1.377 . S
C746 C745 1.373 . S
C747 C731 1.377 . S
C747 C745 1.389 . S
C747 C748 1.524 . S
C748 C747 1.524 . S
C748 C749 1.397 . S
C748 C753 1.363 . S
C749 H720 0.950 . S
C749 C748 1.397 . S
C749 C750 1.334 . S
C750 H721 0.950 . S
C750 C749 1.334 . S
C750 C751 1.287 . S
C751 C750 1.287 . S
C751 C752 1.524 . S
C751 H754 0.999 . S
C752 H722 0.950 . S
C752 C751 1.524 . S
C752 C753 1.415 . S
C753 H723 0.950 . S
C753 C748 1.363 . S
C753 C752 1.415 . S
H754 C751 0.999 . S
H755 C736 0.913 . S
H756 C774 0.951 . S
H757 C776 0.951 . S
H758 C778 0.950 . S
H759 C779 0.950 . S
H760 C781 0.950 . S
H761 C784 0.950 . S
H762 C785 0.950 . S
H763 C787 0.950 . S
H764 C788 0.950 . S
H765 C789 0.951 . S
H766 C791 0.951 . S
H767 C793 0.950 . S
H768 C794 0.950 . S
H769 C796 0.950 . S
H770 C799 0.950 . S
H771 C800 0.950 . S
H772 C802 0.950 . S
H773 C803 0.950 . S
C774 H756 0.951 . S
C774 C775 1.366 . S
C774 C776 1.388 . S
C775 C774 1.366 . S
C775 C779 1.385 . S
C776 H757 0.951 . S
C776 C774 1.388 . S
C776 C777 1.366 . S
C777 C776 1.366 . S
C777 C778 1.414 . S
C777 C780 1.499 . S
C778 H758 0.950 . S
C778 C777 1.414 . S
C778 C779 1.374 . S
C779 H759 0.950 . S
C779 C775 1.385 . S
C779 C778 1.374 . S
C780 C777 1.499 . S
C780 C781 1.373 . S
C780 C782 1.389 . S
C781 H760 0.950 . S
C781 C780 1.373 . S
C781 C797 1.377 . S
C782 C780 1.389 . S
C782 C783 1.524 . S
C782 C796 1.377 . S
C783 C782 1.524 . S
C783 C784 1.397 . S
C783 C788 1.363 . S
C784 H761 0.950 . S
C784 C783 1.397 . S
C784 C785 1.334 . S
C785 H762 0.950 . S
C785 C784 1.334 . S
C785 C786 1.287 . S
C786 C785 1.287 . S
C786 C787 1.524 . S
C786 H805 0.913 . S
C787 H763 0.950 . S
C787 C786 1.524 . S
C787 C788 1.415 . S
C788 H764 0.950 . S
C788 C783 1.363 . S
C788 C787 1.415 . S
C789 H765 0.951 . S
C789 C790 1.366 . S
C789 C791 1.388 . S
C790 C789 1.366 . S
C790 C794 1.385 . S
C791 H766 0.951 . S
C791 C789 1.388 . S
C791 C792 1.366 . S
C792 C791 1.366 . S
C792 C793 1.414 . S
C792 C795 1.499 . S
C793 H767 0.950 . S
C793 C792 1.414 . S
C793 C794 1.374 . S
C794 H768 0.950 . S
C794 C790 1.385 . S
C794 C793 1.374 . S
C795 C792 1.499 . S
C795 C796 1.373 . S
C795 C797 1.389 . S
C796 H769 0.950 . S
C796 C782 1.377 . S
C796 C795 1.373 . S
C797 C781 1.377 . S
C797 C795 1.389 . S
C797 C798 1.524 . S
C798 C797 1.524 . S
C798 C799 1.397 . S
C798 C803 1.363 . S
C799 H770 0.950 . S
C799 C798 1.397 . S
C799 C800 1.334 . S
C800 H771 0.950 . S
C800 C799 1.334 . S
C800 C801 1.287 . S
C801 C800 1.287 . S
C801 C802 1.524 . S
C801 H804 0.999 . S
C802 H772 0.950 . S
C802 C801 1.524 . S
C802 C803 1.415 . S
C803 H773 0.950 . S
C803 C798 1.363 . S
C803 C802 1.415 . S
H804 C801 0.999 . S
H805 C786 0.913 . S
H806 C824 0.951 . S
H807 C826 0.951 . S
H808 C828 0.950 . S
H809 C829 0.950 . S
H810 C831 0.950 . S
H811 C834 0.950 . S
H812 C835 0.950 . S
H813 C837 0.950 . S
H814 C838 0.950 . S
H815 C839 0.951 . S
H816 C841 0.951 . S
H817 C843 0.950 . S
H818 C844 0.950 . S
H819 C846 0.950 . S
H820 C849 0.950 . S
H821 C850 0.950 . S
H822 C852 0.950 . S
H823 C853 0.950 . S
C824 H806 0.951 . S
C824 C825 1.366 . S
C824 C826 1.388 . S
C825 C824 1.366 . S
C825 C829 1.385 . S
C826 H807 0.951 . S
C826 C824 1.388 . S
C826 C827 1.366 . S
C827 C826 1.366 . S
C827 C828 1.414 . S
C827 C830 1.499 . S
C828 H808 0.950 . S
C828 C827 1.414 . S
C828 C829 1.374 . S
C829 H809 0.950 . S
C829 C825 1.385 . S
C829 C828 1.374 . S
C830 C827 1.499 . S
C830 C831 1.373 . S
C830 C832 1.389 . S
C831 H810 0.950 . S
C831 C830 1.373 . S
C831 C847 1.377 . S
C832 C830 1.389 . S
C832 C833 1.524 . S
C832 C846 1.377 . S
C833 C832 1.524 . S
C833 C834 1.397 . S
C833 C838 1.363 . S
C834 H811 0.950 . S
C834 C833 1.397 . S
C834 C835 1.334 . S
C835 H812 0.950 . S
C835 C834 1.334 . S
C835 C836 1.287 . S
C836 C835 1.287 . S
C836 C837 1.524 . S
C836 H855 0.913 . S
C837 H813 0.950 . S
C837 C836 1.524 . S
C837 C838 1.415 . S
C838 H814 0.950 . S
C838 C833 1.363 . S
C838 C837 1.415 . S
C839 H815 0.951 . S
C839 C840 1.366 . S
C839 C841 1.388 . S
C840 C839 1.366 . S
C840 C844 1.385 . S
C841 H816 0.951 . S
C841 C839 1.388 . S
C841 C842 1.366 . S
C842 C841 1.366 . S
C842 C843 1.414 . S
C842 C845 1.499 . S
C843 H817 0.950 . S
C843 C842 1.414 . S
C843 C844 1.374 . S
C844 H818 0.950 . S
C844 C840 1.385 . S
C844 C843 1.374 . S
C845 C842 1.499 . S
C845 C846 1.373 . S
C845 C847 1.389 . S
C846 H819 0.950 . S
C846 C832 1.377 . S
C846 C845 1.373 . S
C847 C831 1.377 . S
C847 C845 1.389 . S
C847 C848 1.524 . S
C848 C847 1.524 . S
C848 C849 1.397 . S
C848 C853 1.363 . S
C849 H820 0.950 . S
C849 C848 1.397 . S
C849 C850 1.334 . S
C850 H821 0.950 . S
C850 C849 1.334 . S
C850 C851 1.287 . S
C851 C850 1.287 . S
C851 C852 1.524 . S
C851 H854 0.999 . S
C852 H822 0.950 . S
C852 C851 1.524 . S
C852 C853 1.415 . S
C853 H823 0.950 . S
C853 C848 1.363 . S
C853 C852 1.415 . S
H854 C851 0.999 . S
H855 C836 0.913 . S
H856 C874 0.961 . S
H857 C876 0.951 . S
H858 C878 0.950 . S
H859 C879 0.950 . S
H860 C881 0.950 . S
H861 C884 0.950 . S
H862 C885 0.950 . S
H863 C887 0.950 . S
H864 C888 0.950 . S
H865 C889 0.951 . S
H866 C891 0.951 . S
H867 C893 0.950 . S
H868 C894 0.950 . S
H869 C896 0.950 1_655 S
H870 C899 0.950 . S
H871 C900 0.950 . S
H872 C902 0.950 . S
H873 C903 0.950 . S
C874 H856 0.961 . S
C874 C875 1.366 . S
C874 C876 1.388 . S
C875 C874 1.366 . S
C875 C879 1.385 . S
C876 H857 0.951 . S
C876 C874 1.388 . S
C876 C877 1.366 . S
C877 C876 1.366 . S
C877 C878 1.414 . S
C877 C880 1.499 . S
C878 H858 0.950 . S
C878 C877 1.414 . S
C878 C879 1.374 . S
C879 H859 0.950 . S
C879 C875 1.385 . S
C879 C878 1.374 . S
C880 C877 1.499 . S
C880 C881 1.373 . S
C880 C882 1.339 1_455 S
C881 H860 0.950 . S
C881 C880 1.373 . S
C881 C897 1.377 . S
C882 C880 1.339 1_655 S
C882 C883 1.580 . S
C882 C896 1.377 1_655 S
C883 C882 1.580 . S
C883 C884 1.397 . S
C883 C888 1.363 . S
C884 H861 0.950 . S
C884 C883 1.397 . S
C884 C885 1.334 . S
C885 H862 0.950 . S
C885 C884 1.334 . S
C885 C886 1.287 . S
C886 C885 1.287 . S
C886 C887 1.524 . S
C886 H905 0.913 . S
C887 H863 0.950 . S
C887 C886 1.524 . S
C887 C888 1.415 . S
C888 H864 0.950 . S
C888 C883 1.363 . S
C888 C887 1.415 . S
C889 H865 0.951 . S
C889 C890 1.366 . S
C889 C891 1.388 . S
C890 C889 1.366 . S
C890 C894 1.385 . S
C891 H866 0.951 . S
C891 C889 1.388 . S
C891 C892 1.366 . S
C892 C891 1.366 . S
C892 C893 1.414 . S
C892 C895 1.499 . S
C893 H867 0.950 . S
C893 C892 1.414 . S
C893 C894 1.374 . S
C894 H868 0.950 . S
C894 C890 1.385 . S
C894 C893 1.374 . S
C895 C892 1.499 . S
C895 C896 1.373 . S
C895 C897 1.389 . S
C896 H869 0.950 1_455 S
C896 C882 1.377 1_455 S
C896 C895 1.373 . S
C897 C881 1.377 . S
C897 C895 1.389 . S
C897 C898 1.524 . S
C898 C897 1.524 . S
C898 C899 1.397 . S
C898 C903 1.363 . S
C899 H870 0.950 . S
C899 C898 1.397 . S
C899 C900 1.334 . S
C900 H871 0.950 . S
C900 C899 1.334 . S
C900 C901 1.287 . S
C901 C900 1.287 . S
C901 C902 1.524 . S
C901 H904 0.999 . S
C902 H872 0.950 . S
C902 C901 1.524 . S
C902 C903 1.415 . S
C903 H873 0.950 . S
C903 C898 1.363 . S
C903 C902 1.415 . S
H904 C901 0.999 . S
H905 C886 0.913 . S
H906 C924 0.951 . S
H907 C926 0.951 . S
H908 C928 0.950 . S
H909 C929 0.950 . S
H910 C931 0.950 . S
H911 C934 0.950 . S
H912 C935 0.950 . S
H913 C937 0.950 . S
H914 C938 0.950 . S
H915 C939 0.951 . S
H916 C941 0.951 . S
H917 C943 0.950 . S
H918 C944 0.950 . S
H919 C946 0.950 . S
H920 C949 0.950 . S
H921 C950 0.950 . S
H922 C952 0.950 . S
H923 C953 0.950 . S
C924 H906 0.951 . S
C924 C925 1.366 . S
C924 C926 1.388 . S
C925 C924 1.366 . S
C925 C929 1.385 . S
C926 H907 0.951 . S
C926 C924 1.388 . S
C926 C927 1.366 . S
C927 C926 1.366 . S
C927 C928 1.414 . S
C927 C930 1.499 . S
C928 H908 0.950 . S
C928 C927 1.414 . S
C928 C929 1.374 . S
C929 H909 0.950 . S
C929 C925 1.385 . S
C929 C928 1.374 . S
C930 C927 1.499 . S
C930 C931 1.373 . S
C930 C932 1.389 . S
C931 H910 0.950 . S
C931 C930 1.373 . S
C931 C947 1.377 . S
C932 C930 1.389 . S
C932 C933 1.524 . S
C932 C946 1.377 . S
C933 C932 1.524 . S
C933 C934 1.397 . S
C933 C938 1.363 . S
C934 H911 0.950 . S
C934 C933 1.397 . S
C934 C935 1.334 . S
C935 H912 0.950 . S
C935 C934 1.334 . S
C935 C936 1.287 . S
C936 C935 1.287 . S
C936 C937 1.524 . S
C936 H955 0.913 . S
C937 H913 0.950 . S
C937 C936 1.524 . S
C937 C938 1.415 . S
C938 H914 0.950 . S
C938 C933 1.363 . S
C938 C937 1.415 . S
C939 H915 0.951 . S
C939 C940 1.366 . S
C939 C941 1.388 . S
C940 C939 1.366 . S
C940 C944 1.385 . S
C941 H916 0.951 . S
C941 C939 1.388 . S
C941 C942 1.366 . S
C942 C941 1.366 . S
C942 C943 1.414 . S
C942 C945 1.499 . S
C943 H917 0.950 . S
C943 C942 1.414 . S
C943 C944 1.374 . S
C944 H918 0.950 . S
C944 C940 1.385 . S
C944 C943 1.374 . S
C945 C942 1.499 . S
C945 C946 1.373 . S
C945 C947 1.389 . S
C946 H919 0.950 . S
C946 C932 1.377 . S
C946 C945 1.373 . S
C947 C931 1.377 . S
C947 C945 1.389 . S
C947 C948 1.524 . S
C948 C947 1.524 . S
C948 C949 1.397 . S
C948 C953 1.363 . S
C949 H920 0.950 . S
C949 C948 1.397 . S
C949 C950 1.334 . S
C950 H921 0.950 . S
C950 C949 1.334 . S
C950 C951 1.287 . S
C951 C950 1.287 . S
C951 C952 1.524 . S
C951 H954 0.999 . S
C952 H922 0.950 . S
C952 C951 1.524 . S
C952 C953 1.415 . S
C953 H923 0.950 . S
C953 C948 1.363 . S
C953 C952 1.415 . S
H954 C951 0.999 . S
H955 C936 0.913 . S
H956 C974 0.951 . S
H957 C976 0.951 . S
H958 C978 0.950 . S
H959 C979 0.950 . S
H960 C981 0.950 . S
H961 C984 0.950 . S
H962 C985 0.950 . S
H963 C987 0.950 . S
H964 C988 0.950 . S
H965 C989 0.951 . S
H966 C991 0.951 . S
H967 C993 0.950 . S
H968 C994 0.950 . S
H969 C996 0.950 . S
H970 C999 0.950 . S
H971 C1000 0.950 . S
H972 C1002 0.950 . S
H973 C1003 0.950 . S
C974 H956 0.951 . S
C974 C975 1.366 . S
C974 C976 1.388 . S
C975 C974 1.366 . S
C975 C979 1.385 . S
C976 H957 0.951 . S
C976 C974 1.388 . S
C976 C977 1.366 . S
C977 C976 1.366 . S
C977 C978 1.414 . S
C977 C980 1.499 . S
C978 H958 0.950 . S
C978 C977 1.414 . S
C978 C979 1.374 . S
C979 H959 0.950 . S
C979 C975 1.385 . S
C979 C978 1.374 . S
C980 C977 1.499 . S
C980 C981 1.373 . S
C980 C982 1.389 . S
C981 H960 0.950 . S
C981 C980 1.373 . S
C981 C997 1.377 . S
C982 C980 1.389 . S
C982 C983 1.524 . S
C982 C996 1.377 . S
C983 C982 1.524 . S
C983 C984 1.397 . S
C983 C988 1.363 . S
C984 H961 0.950 . S
C984 C983 1.397 . S
C984 C985 1.334 . S
C985 H962 0.950 . S
C985 C984 1.334 . S
C985 C986 1.287 . S
C986 C985 1.287 . S
C986 C987 1.524 . S
C986 H1005 0.913 . S
C987 H963 0.950 . S
C987 C986 1.524 . S
C987 C988 1.415 . S
C988 H964 0.950 . S
C988 C983 1.363 . S
C988 C987 1.415 . S
C989 H965 0.951 . S
C989 C990 1.366 . S
C989 C991 1.388 . S
C990 C989 1.366 . S
C990 C994 1.385 . S
C991 H966 0.951 . S
C991 C989 1.388 . S
C991 C992 1.366 . S
C992 C991 1.366 . S
C992 C993 1.414 . S
C992 C995 1.499 . S
C993 H967 0.950 . S
C993 C992 1.414 . S
C993 C994 1.374 . S
C994 H968 0.950 . S
C994 C990 1.385 . S
C994 C993 1.374 . S
C995 C992 1.499 . S
C995 C996 1.373 . S
C995 C997 1.389 . S
C996 H969 0.950 . S
C996 C982 1.377 . S
C996 C995 1.373 . S
C997 C981 1.377 . S
C997 C995 1.389 . S
C997 C998 1.524 . S
C998 C997 1.524 . S
C998 C999 1.397 . S
C998 C1003 1.363 . S
C999 H970 0.950 . S
C999 C998 1.397 . S
C999 C1000 1.334 . S
C1000 H971 0.950 . S
C1000 C999 1.334 . S
C1000 C1001 1.287 . S
C1001 C1000 1.287 . S
C1001 C1002 1.524 . S
C1001 H1004 0.999 . S
C1002 H972 0.950 . S
C1002 C1001 1.524 . S
C1002 C1003 1.415 . S
C1003 H973 0.950 . S
C1003 C998 1.363 . S
C1003 C1002 1.415 . S
H1004 C1001 0.999 . S
H1005 C986 0.913 . S
H1006 C1024 0.951 . S
H1007 C1026 0.951 . S
H1008 C1028 0.950 . S
H1009 C1029 0.950 . S
H1010 C1031 0.950 . S
H1011 C1034 0.950 . S
H1012 C1035 0.950 . S
H1013 C1037 0.950 . S
H1014 C1038 0.950 . S
H1015 C1039 0.951 . S
H1016 C1041 0.951 . S
H1017 C1043 0.950 . S
H1018 C1044 0.950 . S
H1019 C1046 0.950 . S
H1020 C1049 0.950 . S
H1021 C1050 0.950 . S
H1022 C1052 0.950 . S
H1023 C1053 0.950 . S
C1024 H1006 0.951 . S
C1024 C1025 1.366 . S
C1024 C1026 1.388 . S
C1025 C1024 1.366 . S
C1025 C1029 1.385 . S
C1026 H1007 0.951 . S
C1026 C1024 1.388 . S
C1026 C1027 1.366 . S
C1027 C1026 1.366 . S
C1027 C1028 1.414 . S
C1027 C1030 1.499 . S
C1028 H1008 0.950 . S
C1028 C1027 1.414 . S
C1028 C1029 1.374 . S
C1029 H1009 0.950 . S
C1029 C1025 1.385 . S
C1029 C1028 1.374 . S
C1030 C1027 1.499 . S
C1030 C1031 1.373 . S
C1030 C1032 1.389 . S
C1031 H1010 0.950 . S
C1031 C1030 1.373 . S
C1031 C1047 1.377 . S
C1032 C1030 1.389 . S
C1032 C1033 1.524 . S
C1032 C1046 1.377 . S
C1033 C1032 1.524 . S
C1033 C1034 1.397 . S
C1033 C1038 1.363 . S
C1034 H1011 0.950 . S
C1034 C1033 1.397 . S
C1034 C1035 1.334 . S
C1035 H1012 0.950 . S
C1035 C1034 1.334 . S
C1035 C1036 1.287 . S
C1036 C1035 1.287 . S
C1036 C1037 1.524 . S
C1036 H1055 0.913 . S
C1037 H1013 0.950 . S
C1037 C1036 1.524 . S
C1037 C1038 1.415 . S
C1038 H1014 0.950 . S
C1038 C1033 1.363 . S
C1038 C1037 1.415 . S
C1039 H1015 0.951 . S
C1039 C1040 1.366 . S
C1039 C1041 1.388 . S
C1040 C1039 1.366 . S
C1040 C1044 1.385 . S
C1041 H1016 0.951 . S
C1041 C1039 1.388 . S
C1041 C1042 1.366 . S
C1042 C1041 1.366 . S
C1042 C1043 1.414 . S
C1042 C1045 1.499 . S
C1043 H1017 0.950 . S
C1043 C1042 1.414 . S
C1043 C1044 1.374 . S
C1044 H1018 0.950 . S
C1044 C1040 1.385 . S
C1044 C1043 1.374 . S
C1045 C1042 1.499 . S
C1045 C1046 1.373 . S
C1045 C1047 1.389 . S
C1046 H1019 0.950 . S
C1046 C1032 1.377 . S
C1046 C1045 1.373 . S
C1047 C1031 1.377 . S
C1047 C1045 1.389 . S
C1047 C1048 1.524 . S
C1048 C1047 1.524 . S
C1048 C1049 1.397 . S
C1048 C1053 1.363 . S
C1049 H1020 0.950 . S
C1049 C1048 1.397 . S
C1049 C1050 1.334 . S
C1050 H1021 0.950 . S
C1050 C1049 1.334 . S
C1050 C1051 1.287 . S
C1051 C1050 1.287 . S
C1051 C1052 1.524 . S
C1051 H1054 0.999 . S
C1052 H1022 0.950 . S
C1052 C1051 1.524 . S
C1052 C1053 1.415 . S
C1053 H1023 0.950 . S
C1053 C1048 1.363 . S
C1053 C1052 1.415 . S
H1054 C1051 0.999 . S
H1055 C1036 0.913 . S
H1056 C1074 0.951 . S
H1057 C1076 0.951 . S
H1058 C1078 0.950 . S
H1059 C1079 0.950 . S
H1060 C1081 0.950 . S
H1061 C1084 0.950 . S
H1062 C1085 0.950 . S
H1063 C1087 0.950 . S
H1064 C1088 0.969 . S
H1065 C1089 0.951 . S
H1066 C1091 0.951 . S
H1067 C1093 0.950 1_455 S
H1068 C1094 0.950 . S
H1069 C1096 0.950 . S
H1070 C1099 0.950 . S
H1071 C1100 0.950 . S
H1072 C1102 0.950 . S
H1073 C1103 0.950 1_545 S
C1074 H1056 0.951 . S
C1074 C1075 1.366 . S
C1074 C1076 1.388 . S
C1075 C1074 1.366 . S
C1075 C1079 1.385 . S
C1076 H1057 0.951 . S
C1076 C1074 1.388 . S
C1076 C1077 1.366 . S
C1077 C1076 1.366 . S
C1077 C1078 1.414 . S
C1077 C1080 1.499 . S
C1078 H1058 0.950 . S
C1078 C1077 1.414 . S
C1078 C1079 1.374 . S
C1079 H1059 0.950 . S
C1079 C1075 1.385 . S
C1079 C1078 1.374 . S
C1080 C1077 1.499 . S
C1080 C1081 1.373 . S
C1080 C1082 1.389 . S
C1081 H1060 0.950 . S
C1081 C1080 1.373 . S
C1081 C1097 1.377 . S
C1082 C1080 1.389 . S
C1082 C1083 1.524 . S
C1082 C1096 1.377 . S
C1083 C1082 1.524 . S
C1083 C1084 1.397 . S
C1083 C1088 1.363 . S
C1084 H1061 0.950 . S
C1084 C1083 1.397 . S
C1084 C1085 1.334 . S
C1085 H1062 0.950 . S
C1085 C1084 1.334 . S
C1085 C1086 1.287 . S
C1086 C1085 1.287 . S
C1086 C1087 1.524 1_655 S
C1086 H1105 0.913 . S
C1087 H1063 0.950 . S
C1087 C1086 1.524 1_455 S
C1087 C1088 1.415 1_455 S
C1088 H1064 0.969 . S
C1088 C1083 1.363 . S
C1088 C1087 1.415 1_655 S
C1089 H1065 0.951 . S
C1089 C1090 1.366 . S
C1089 C1091 1.388 . S
C1090 C1089 1.366 . S
C1090 C1094 1.385 1_655 S
C1091 H1066 0.951 . S
C1091 C1089 1.388 . S
C1091 C1092 1.366 . S
C1092 C1091 1.366 . S
C1092 C1093 1.414 . S
C1092 C1095 1.499 . S
C1093 H1067 0.950 1_655 S
C1093 C1092 1.414 . S
C1093 C1094 1.374 1_655 S
C1094 H1068 0.950 . S
C1094 C1090 1.385 1_455 S
C1094 C1093 1.374 1_455 S
C1095 C1092 1.499 . S
C1095 C1096 1.373 . S
C1095 C1097 1.389 . S
C1096 H1069 0.950 . S
C1096 C1082 1.377 . S
C1096 C1095 1.373 . S
C1097 C1081 1.377 . S
C1097 C1095 1.389 . S
C1097 C1098 1.524 1_545 S
C1098 C1097 1.524 1_565 S
C1098 C1099 1.397 . S
C1098 C1103 1.363 . S
C1099 H1070 0.950 . S
C1099 C1098 1.397 . S
C1099 C1100 1.334 . S
C1100 H1071 0.950 . S
C1100 C1099 1.334 . S
C1100 C1101 1.287 . S
C1101 C1100 1.287 . S
C1101 C1102 1.524 . S
C1101 H1104 0.999 . S
C1102 H1072 0.950 . S
C1102 C1101 1.524 . S
C1102 C1103 1.415 . S
C1103 H1073 0.950 1_565 S
C1103 C1098 1.363 . S
C1103 C1102 1.415 . S
H1104 C1101 0.999 . S
H1105 C1086 0.913 . S
H1106 C1124 0.951 . S
H1107 C1126 0.951 . S
H1108 C1128 0.950 . S
H1109 C1129 0.950 . S
H1110 C1131 0.950 . S
H1111 C1134 0.950 . S
H1112 C1135 0.950 . S
H1113 C1137 0.950 . S
H1114 C1138 0.950 . S
H1115 C1139 0.951 . S
H1116 C1141 0.951 . S
H1117 C1143 0.950 . S
H1118 C1144 0.950 . S
H1119 C1146 0.950 . S
H1120 C1149 0.950 . S
H1121 C1150 0.950 . S
H1122 C1152 0.950 . S
H1123 C1153 0.950 . S
C1124 H1106 0.951 . S
C1124 C1125 1.366 . S
C1124 C1126 1.388 . S
C1125 C1124 1.366 . S
C1125 C1129 1.385 . S
C1126 H1107 0.951 . S
C1126 C1124 1.388 . S
C1126 C1127 1.366 . S
C1127 C1126 1.366 . S
C1127 C1128 1.414 . S
C1127 C1130 1.499 . S
C1128 H1108 0.950 . S
C1128 C1127 1.414 . S
C1128 C1129 1.374 . S
C1129 H1109 0.950 . S
C1129 C1125 1.385 . S
C1129 C1128 1.374 . S
C1130 C1127 1.499 . S
C1130 C1131 1.373 . S
C1130 C1132 1.389 . S
C1131 H1110 0.950 . S
C1131 C1130 1.373 . S
C1131 C1147 1.377 . S
C1132 C1130 1.389 . S
C1132 C1133 1.524 . S
C1132 C1146 1.377 . S
C1133 C1132 1.524 . S
C1133 C1134 1.397 . S
C1133 C1138 1.363 . S
C1134 H1111 0.950 . S
C1134 C1133 1.397 . S
C1134 C1135 1.334 . S
C1135 H1112 0.950 . S
C1135 C1134 1.334 . S
C1135 C1136 1.287 . S
C1136 C1135 1.287 . S
C1136 C1137 1.524 . S
C1136 H1155 0.913 . S
C1137 H1113 0.950 . S
C1137 C1136 1.524 . S
C1137 C1138 1.415 . S
C1138 H1114 0.950 . S
C1138 C1133 1.363 . S
C1138 C1137 1.415 . S
C1139 H1115 0.951 . S
C1139 C1140 1.366 . S
C1139 C1141 1.388 . S
C1140 C1139 1.366 . S
C1140 C1144 1.385 . S
C1141 H1116 0.951 . S
C1141 C1139 1.388 . S
C1141 C1142 1.366 . S
C1142 C1141 1.366 . S
C1142 C1143 1.414 . S
C1142 C1145 1.499 . S
C1143 H1117 0.950 . S
C1143 C1142 1.414 . S
C1143 C1144 1.374 . S
C1144 H1118 0.950 . S
C1144 C1140 1.385 . S
C1144 C1143 1.374 . S
C1145 C1142 1.499 . S
C1145 C1146 1.373 . S
C1145 C1147 1.389 . S
C1146 H1119 0.950 . S
C1146 C1132 1.377 . S
C1146 C1145 1.373 . S
C1147 C1131 1.377 . S
C1147 C1145 1.389 . S
C1147 C1148 1.524 . S
C1148 C1147 1.524 . S
C1148 C1149 1.397 . S
C1148 C1153 1.363 . S
C1149 H1120 0.950 . S
C1149 C1148 1.397 . S
C1149 C1150 1.334 . S
C1150 H1121 0.950 . S
C1150 C1149 1.334 . S
C1150 C1151 1.287 . S
C1151 C1150 1.287 . S
C1151 C1152 1.524 . S
C1151 H1154 0.999 . S
C1152 H1122 0.950 . S
C1152 C1151 1.524 . S
C1152 C1153 1.415 . S
C1153 H1123 0.950 . S
C1153 C1148 1.363 . S
C1153 C1152 1.415 . S
H1154 C1151 0.999 . S
H1155 C1136 0.913 . S
H1156 C1174 0.951 . S
H1157 C1176 0.951 . S
H1158 C1178 0.950 . S
H1159 C1179 0.950 . S
H1160 C1181 0.950 . S
H1161 C1184 0.950 . S
H1162 C1185 0.950 . S
H1163 C1187 0.950 . S
H1164 C1188 0.950 . S
H1165 C1189 0.951 . S
H1166 C1191 0.951 . S
H1167 C1193 0.950 . S
H1168 C1194 0.950 . S
H1169 C1196 0.950 . S
H1170 C1199 0.950 . S
H1171 C1200 0.950 . S
H1172 C1202 0.950 . S
H1173 C1203 0.950 . S
C1174 H1156 0.951 . S
C1174 C1175 1.366 1_545 S
C1174 C1176 1.388 . S
C1175 C1174 1.366 1_565 S
C1175 C1179 1.385 . S
C1176 H1157 0.951 . S
C1176 C1174 1.388 . S
C1176 C1177 1.361 1_545 S
C1177 C1176 1.361 1_565 S
C1177 C1178 1.428 . S
C1177 C1180 1.494 1_565 S
C1178 H1158 0.950 . S
C1178 C1177 1.428 . S
C1178 C1179 1.374 . S
C1179 H1159 0.950 . S
C1179 C1175 1.385 . S
C1179 C1178 1.374 . S
C1180 C1177 1.494 1_545 S
C1180 C1181 1.377 1_545 S
C1180 C1182 1.385 . S
C1181 H1160 0.950 . S
C1181 C1180 1.377 1_565 S
C1181 C1197 1.377 . S
C1182 C1180 1.385 . S
C1182 C1183 1.524 . S
C1182 C1196 1.377 . S
C1183 C1182 1.524 . S
C1183 C1184 1.397 . S
C1183 C1188 1.363 . S
C1184 H1161 0.950 . S
C1184 C1183 1.397 . S
C1184 C1185 1.334 . S
C1185 H1162 0.950 . S
C1185 C1184 1.334 . S
C1185 C1186 1.287 . S
C1186 C1185 1.287 . S
C1186 C1187 1.524 . S
C1186 H1205 0.913 . S
C1187 H1163 0.950 . S
C1187 C1186 1.524 . S
C1187 C1188 1.415 . S
C1188 H1164 0.950 . S
C1188 C1183 1.363 . S
C1188 C1187 1.415 . S
C1189 H1165 0.951 . S
C1189 C1190 1.366 1_565 S
C1189 C1191 1.388 . S
C1190 C1189 1.366 1_545 S
C1190 C1194 1.385 . S
C1191 H1166 0.951 . S
C1191 C1189 1.388 . S
C1191 C1192 1.360 1_565 S
C1192 C1191 1.360 1_545 S
C1192 C1193 1.428 . S
C1192 C1195 1.494 1_545 S
C1193 H1167 0.950 . S
C1193 C1192 1.428 . S
C1193 C1194 1.374 . S
C1194 H1168 0.950 . S
C1194 C1190 1.385 . S
C1194 C1193 1.374 . S
C1195 C1192 1.494 1_565 S
C1195 C1196 1.378 1_565 S
C1195 C1197 1.384 . S
C1196 H1169 0.950 . S
C1196 C1182 1.377 . S
C1196 C1195 1.378 1_545 S
C1197 C1181 1.377 . S
C1197 C1195 1.384 . S
C1197 C1198 1.524 . S
C1198 C1197 1.524 . S
C1198 C1199 1.397 . S
C1198 C1203 1.363 . S
C1199 H1170 0.950 . S
C1199 C1198 1.397 . S
C1199 C1200 1.334 . S
C1200 H1171 0.950 . S
C1200 C1199 1.334 . S
C1200 C1201 1.287 . S
C1201 C1200 1.287 . S
C1201 C1202 1.524 . S
C1201 H1204 0.999 . S
C1202 H1172 0.950 . S
C1202 C1201 1.524 . S
C1202 C1203 1.415 . S
C1203 H1173 0.950 . S
C1203 C1198 1.363 . S
C1203 C1202 1.415 . S
H1204 C1201 0.999 . S
H1205 C1186 0.913 . S
H1206 C1224 0.951 . S
H1207 C1226 0.951 . S
H1208 C1228 0.950 . S
H1209 C1229 0.950 . S
H1210 C1231 0.950 . S
H1211 C1234 0.950 . S
H1212 C1235 0.950 . S
H1213 C1237 0.950 . S
H1214 C1238 0.950 . S
H1215 C1239 0.951 . S
H1216 C1241 0.951 . S
H1217 C1243 0.950 . S
H1218 C1244 0.950 . S
H1219 C1246 0.950 . S
H1220 C1249 0.950 . S
H1221 C1250 0.950 . S
H1222 C1252 0.950 . S
H1223 C1253 0.950 . S
C1224 H1206 0.951 . S
C1224 C1225 1.366 . S
C1224 C1226 1.388 . S
C1225 C1224 1.366 . S
C1225 C1229 1.385 . S
C1226 H1207 0.951 . S
C1226 C1224 1.388 . S
C1226 C1227 1.366 . S
C1227 C1226 1.366 . S
C1227 C1228 1.414 . S
C1227 C1230 1.499 . S
C1228 H1208 0.950 . S
C1228 C1227 1.414 . S
C1228 C1229 1.374 . S
C1229 H1209 0.950 . S
C1229 C1225 1.385 . S
C1229 C1228 1.374 . S
C1230 C1227 1.499 . S
C1230 C1231 1.373 . S
C1230 C1232 1.389 . S
C1231 H1210 0.950 . S
C1231 C1230 1.373 . S
C1231 C1247 1.377 . S
C1232 C1230 1.389 . S
C1232 C1233 1.524 . S
C1232 C1246 1.377 . S
C1233 C1232 1.524 . S
C1233 C1234 1.397 . S
C1233 C1238 1.363 . S
C1234 H1211 0.950 . S
C1234 C1233 1.397 . S
C1234 C1235 1.334 . S
C1235 H1212 0.950 . S
C1235 C1234 1.334 . S
C1235 C1236 1.287 . S
C1236 C1235 1.287 . S
C1236 C1237 1.524 . S
C1236 H1255 0.913 . S
C1237 H1213 0.950 . S
C1237 C1236 1.524 . S
C1237 C1238 1.415 . S
C1238 H1214 0.950 . S
C1238 C1233 1.363 . S
C1238 C1237 1.415 . S
C1239 H1215 0.951 . S
C1239 C1240 1.366 . S
C1239 C1241 1.388 . S
C1240 C1239 1.366 . S
C1240 C1244 1.385 . S
C1241 H1216 0.951 . S
C1241 C1239 1.388 . S
C1241 C1242 1.366 . S
C1242 C1241 1.366 . S
C1242 C1243 1.414 . S
C1242 C1245 1.499 . S
C1243 H1217 0.950 . S
C1243 C1242 1.414 . S
C1243 C1244 1.374 . S
C1244 H1218 0.950 . S
C1244 C1240 1.385 . S
C1244 C1243 1.374 . S
C1245 C1242 1.499 . S
C1245 C1246 1.373 . S
C1245 C1247 1.389 . S
C1246 H1219 0.950 . S
C1246 C1232 1.377 . S
C1246 C1245 1.373 . S
C1247 C1231 1.377 . S
C1247 C1245 1.389 . S
C1247 C1248 1.524 . S
C1248 C1247 1.524 . S
C1248 C1249 1.397 . S
C1248 C1253 1.363 . S
C1249 H1220 0.950 . S
C1249 C1248 1.397 . S
C1249 C1250 1.334 . S
C1250 H1221 0.950 . S
C1250 C1249 1.334 . S
C1250 C1251 1.287 . S
C1251 C1250 1.287 . S
C1251 C1252 1.524 . S
C1251 H1254 0.999 . S
C1252 H1222 0.950 . S
C1252 C1251 1.524 . S
C1252 C1253 1.415 . S
C1253 H1223 0.950 . S
C1253 C1248 1.363 . S
C1253 C1252 1.415 . S
H1254 C1251 0.999 . S
H1255 C1236 0.913 . S
H1256 C1274 0.951 . S
H1257 C1276 0.951 . S
H1258 C1278 0.950 . S
H1259 C1279 0.950 . S
H1260 C1281 0.950 . S
H1261 C1284 0.950 . S
H1262 C1285 0.950 . S
H1263 C1287 0.950 . S
H1264 C1288 0.950 . S
H1265 C1289 0.951 . S
H1266 C1291 0.951 . S
H1267 C1293 0.931 1_455 S
H1268 C1294 0.950 . S
H1269 C1296 0.948 1_565 S
H1270 C1299 0.950 . S
H1271 C1300 0.950 . S
H1272 C1302 0.950 . S
H1273 C1303 0.950 . S
C1274 H1256 0.951 . S
C1274 C1275 1.366 . S
C1274 C1276 1.388 . S
C1275 C1274 1.366 . S
C1275 C1279 1.385 . S
C1276 H1257 0.951 . S
C1276 C1274 1.388 . S
C1276 C1277 1.366 . S
C1277 C1276 1.366 . S
C1277 C1278 1.414 . S
C1277 C1280 1.499 . S
C1278 H1258 0.950 . S
C1278 C1277 1.414 . S
C1278 C1279 1.374 . S
C1279 H1259 0.950 . S
C1279 C1275 1.385 . S
C1279 C1278 1.374 . S
C1280 C1277 1.499 . S
C1280 C1281 1.373 . S
C1280 C1282 1.387 1_545 S
C1281 H1260 0.950 . S
C1281 C1280 1.373 . S
C1281 C1297 1.377 . S
C1282 C1280 1.387 1_565 S
C1282 C1283 1.526 . S
C1282 C1296 1.377 1_565 S
C1283 C1282 1.526 . S
C1283 C1284 1.397 . S
C1283 C1288 1.363 . S
C1284 H1261 0.950 . S
C1284 C1283 1.397 . S
C1284 C1285 1.334 . S
C1285 H1262 0.950 . S
C1285 C1284 1.334 . S
C1285 C1286 1.287 . S
C1286 C1285 1.287 . S
C1286 C1287 1.524 . S
C1286 H1305 0.913 . S
C1287 H1263 0.950 . S
C1287 C1286 1.524 . S
C1287 C1288 1.415 . S
C1288 H1264 0.950 . S
C1288 C1283 1.363 . S
C1288 C1287 1.415 . S
C1289 H1265 0.951 . S
C1289 C1290 1.366 . S
C1289 C1291 1.388 . S
C1290 C1289 1.366 . S
C1290 C1294 1.385 1_655 S
C1291 H1266 0.951 . S
C1291 C1289 1.388 . S
C1291 C1292 1.366 . S
C1292 C1291 1.366 . S
C1292 C1293 1.414 . S
C1292 C1295 1.499 . S
C1293 H1267 0.931 1_655 S
C1293 C1292 1.414 . S
C1293 C1294 1.374 1_655 S
C1294 H1268 0.950 . S
C1294 C1290 1.385 1_455 S
C1294 C1293 1.374 1_455 S
C1295 C1292 1.499 . S
C1295 C1296 1.375 . S
C1295 C1297 1.389 . S
C1296 H1269 0.948 1_545 S
C1296 C1282 1.377 1_545 S
C1296 C1295 1.375 . S
C1297 C1281 1.377 . S
C1297 C1295 1.389 . S
C1297 C1298 1.524 . S
C1298 C1297 1.524 . S
C1298 C1299 1.397 . S
C1298 C1303 1.363 . S
C1299 H1270 0.950 . S
C1299 C1298 1.397 . S
C1299 C1300 1.334 . S
C1300 H1271 0.950 . S
C1300 C1299 1.334 . S
C1300 C1301 1.287 . S
C1301 C1300 1.287 . S
C1301 C1302 1.524 . S
C1301 H1304 0.999 . S
C1302 H1272 0.950 . S
C1302 C1301 1.524 . S
C1302 C1303 1.415 . S
C1303 H1273 0.950 . S
C1303 C1298 1.363 . S
C1303 C1302 1.415 . S
H1304 C1301 0.999 . S
H1305 C1286 0.913 . S
H1306 C1324 0.951 . S
H1307 C1326 0.951 . S
H1308 C1328 0.950 . S
H1309 C1329 0.950 . S
H1310 C1331 0.950 . S
H1311 C1334 0.950 . S
H1312 C1335 0.950 . S
H1313 C1337 0.950 . S
H1314 C1338 0.950 . S
H1315 C1339 0.951 . S
H1316 C1341 0.951 . S
H1317 C1343 0.950 . S
H1318 C1344 0.950 . S
H1319 C1346 0.950 . S
H1320 C1349 0.950 . S
H1321 C1350 0.950 . S
H1322 C1352 0.950 . S
H1323 C1353 0.950 . S
C1324 H1306 0.951 . S
C1324 C1325 1.366 . S
C1324 C1326 1.388 . S
C1325 C1324 1.366 . S
C1325 C1329 1.385 . S
C1326 H1307 0.951 . S
C1326 C1324 1.388 . S
C1326 C1327 1.366 . S
C1327 C1326 1.366 . S
C1327 C1328 1.414 . S
C1327 C1330 1.499 . S
C1328 H1308 0.950 . S
C1328 C1327 1.414 . S
C1328 C1329 1.374 . S
C1329 H1309 0.950 . S
C1329 C1325 1.385 . S
C1329 C1328 1.374 . S
C1330 C1327 1.499 . S
C1330 C1331 1.373 . S
C1330 C1332 1.389 . S
C1331 H1310 0.950 . S
C1331 C1330 1.373 . S
C1331 C1347 1.377 . S
C1332 C1330 1.389 . S
C1332 C1333 1.524 . S
C1332 C1346 1.377 . S
C1333 C1332 1.524 . S
C1333 C1334 1.397 . S
C1333 C1338 1.363 . S
C1334 H1311 0.950 . S
C1334 C1333 1.397 . S
C1334 C1335 1.334 . S
C1335 H1312 0.950 . S
C1335 C1334 1.334 . S
C1335 C1336 1.287 . S
C1336 C1335 1.287 . S
C1336 C1337 1.524 . S
C1336 H1355 0.913 . S
C1337 H1313 0.950 . S
C1337 C1336 1.524 . S
C1337 C1338 1.415 . S
C1338 H1314 0.950 . S
C1338 C1333 1.363 . S
C1338 C1337 1.415 . S
C1339 H1315 0.951 . S
C1339 C1340 1.366 . S
C1339 C1341 1.388 . S
C1340 C1339 1.366 . S
C1340 C1344 1.385 . S
C1341 H1316 0.951 . S
C1341 C1339 1.388 . S
C1341 C1342 1.366 . S
C1342 C1341 1.366 . S
C1342 C1343 1.414 . S
C1342 C1345 1.499 . S
C1343 H1317 0.950 . S
C1343 C1342 1.414 . S
C1343 C1344 1.374 . S
C1344 H1318 0.950 . S
C1344 C1340 1.385 . S
C1344 C1343 1.374 . S
C1345 C1342 1.499 . S
C1345 C1346 1.373 . S
C1345 C1347 1.389 . S
C1346 H1319 0.950 . S
C1346 C1332 1.377 . S
C1346 C1345 1.373 . S
C1347 C1331 1.377 . S
C1347 C1345 1.389 . S
C1347 C1348 1.524 . S
C1348 C1347 1.524 . S
C1348 C1349 1.397 . S
C1348 C1353 1.363 . S
C1349 H1320 0.950 . S
C1349 C1348 1.397 . S
C1349 C1350 1.334 . S
C1350 H1321 0.950 . S
C1350 C1349 1.334 . S
C1350 C1351 1.287 . S
C1351 C1350 1.287 . S
C1351 C1352 1.524 . S
C1351 H1354 0.999 . S
C1352 H1322 0.950 . S
C1352 C1351 1.524 . S
C1352 C1353 1.415 . S
C1353 H1323 0.950 . S
C1353 C1348 1.363 . S
C1353 C1352 1.415 . S
H1354 C1351 0.999 . S
H1355 C1336 0.913 . S
H1356 C1374 0.951 . S
H1357 C1376 0.951 . S
H1358 C1378 0.950 . S
H1359 C1379 0.950 . S
H1360 C1381 0.950 . S
H1361 C1384 0.950 . S
H1362 C1385 0.950 . S
H1363 C1387 0.950 . S
H1364 C1388 0.950 . S
H1365 C1389 0.951 . S
H1366 C1391 0.951 . S
H1367 C1393 0.950 . S
H1368 C1394 0.950 . S
H1369 C1396 0.940 1_565 S
H1370 C1399 0.950 . S
H1371 C1400 0.950 . S
H1372 C1402 0.950 . S
H1373 C1403 0.950 . S
C1374 H1356 0.951 . S
C1374 C1375 1.366 . S
C1374 C1376 1.388 . S
C1375 C1374 1.366 . S
C1375 C1379 1.385 . S
C1376 H1357 0.951 . S
C1376 C1374 1.388 . S
C1376 C1377 1.366 . S
C1377 C1376 1.366 . S
C1377 C1378 1.414 . S
C1377 C1380 1.499 . S
C1378 H1358 0.950 . S
C1378 C1377 1.414 . S
C1378 C1379 1.374 . S
C1379 H1359 0.950 . S
C1379 C1375 1.385 . S
C1379 C1378 1.374 . S
C1380 C1377 1.499 . S
C1380 C1381 1.373 . S
C1380 C1382 1.389 1_545 S
C1381 H1360 0.950 . S
C1381 C1380 1.373 . S
C1381 C1397 1.377 . S
C1382 C1380 1.389 1_565 S
C1382 C1383 1.524 . S
C1382 C1396 1.374 1_565 S
C1383 C1382 1.524 . S
C1383 C1384 1.397 . S
C1383 C1388 1.363 . S
C1384 H1361 0.950 . S
C1384 C1383 1.397 . S
C1384 C1385 1.334 . S
C1385 H1362 0.950 . S
C1385 C1384 1.334 . S
C1385 C1386 1.287 . S
C1386 C1385 1.287 . S
C1386 C1387 1.524 . S
C1386 H1405 0.913 . S
C1387 H1363 0.950 . S
C1387 C1386 1.524 . S
C1387 C1388 1.415 . S
C1388 H1364 0.950 . S
C1388 C1383 1.363 . S
C1388 C1387 1.415 . S
C1389 H1365 0.951 . S
C1389 C1390 1.366 . S
C1389 C1391 1.388 . S
C1390 C1389 1.366 . S
C1390 C1394 1.385 . S
C1391 H1366 0.951 . S
C1391 C1389 1.388 . S
C1391 C1392 1.366 . S
C1392 C1391 1.366 . S
C1392 C1393 1.414 . S
C1392 C1395 1.499 . S
C1393 H1367 0.950 . S
C1393 C1392 1.414 . S
C1393 C1394 1.374 . S
C1394 H1368 0.950 . S
C1394 C1390 1.385 . S
C1394 C1393 1.374 . S
C1395 C1392 1.499 . S
C1395 C1396 1.386 . S
C1395 C1397 1.389 . S
C1396 H1369 0.940 1_545 S
C1396 C1382 1.374 1_545 S
C1396 C1395 1.386 . S
C1397 C1381 1.377 . S
C1397 C1395 1.389 . S
C1397 C1398 1.524 . S
C1398 C1397 1.524 . S
C1398 C1399 1.397 . S
C1398 C1403 1.363 . S
C1399 H1370 0.950 . S
C1399 C1398 1.397 . S
C1399 C1400 1.334 . S
C1400 H1371 0.950 . S
C1400 C1399 1.334 . S
C1400 C1401 1.287 . S
C1401 C1400 1.287 . S
C1401 C1402 1.524 . S
C1401 H1404 0.999 . S
C1402 H1372 0.950 . S
C1402 C1401 1.524 . S
C1402 C1403 1.415 . S
C1403 H1373 0.950 . S
C1403 C1398 1.363 . S
C1403 C1402 1.415 . S
H1404 C1401 0.999 . S
H1405 C1386 0.913 . S
H1406 C1424 0.951 . S
H1407 C1426 0.951 . S
H1408 C1428 0.950 . S
H1409 C1429 0.950 . S
H1410 C1431 0.950 . S
H1411 C1434 0.950 . S
H1412 C1435 0.950 . S
H1413 C1437 0.950 . S
H1414 C1438 0.950 . S
H1415 C1439 0.951 . S
H1416 C1441 0.951 . S
H1417 C1443 0.950 . S
H1418 C1444 0.950 . S
H1419 C1446 0.950 . S
H1420 C1449 0.950 . S
H1421 C1450 0.950 . S
H1422 C1452 0.950 . S
H1423 C1453 0.950 . S
C1424 H1406 0.951 . S
C1424 C1425 1.366 . S
C1424 C1426 1.388 . S
C1425 C1424 1.366 . S
C1425 C1429 1.385 . S
C1426 H1407 0.951 . S
C1426 C1424 1.388 . S
C1426 C1427 1.366 . S
C1427 C1426 1.366 . S
C1427 C1428 1.414 . S
C1427 C1430 1.499 . S
C1428 H1408 0.950 . S
C1428 C1427 1.414 . S
C1428 C1429 1.374 . S
C1429 H1409 0.950 . S
C1429 C1425 1.385 . S
C1429 C1428 1.374 . S
C1430 C1427 1.499 . S
C1430 C1431 1.373 . S
C1430 C1432 1.389 . S
C1431 H1410 0.950 . S
C1431 C1430 1.373 . S
C1431 C1447 1.377 . S
C1432 C1430 1.389 . S
C1432 C1433 1.524 . S
C1432 C1446 1.377 . S
C1433 C1432 1.524 . S
C1433 C1434 1.397 . S
C1433 C1438 1.363 . S
C1434 H1411 0.950 . S
C1434 C1433 1.397 . S
C1434 C1435 1.334 . S
C1435 H1412 0.950 . S
C1435 C1434 1.334 . S
C1435 C1436 1.287 . S
C1436 C1435 1.287 . S
C1436 C1437 1.524 . S
C1436 H1455 0.913 . S
C1437 H1413 0.950 . S
C1437 C1436 1.524 . S
C1437 C1438 1.415 . S
C1438 H1414 0.950 . S
C1438 C1433 1.363 . S
C1438 C1437 1.415 . S
C1439 H1415 0.951 . S
C1439 C1440 1.366 . S
C1439 C1441 1.388 . S
C1440 C1439 1.366 . S
C1440 C1444 1.385 . S
C1441 H1416 0.951 . S
C1441 C1439 1.388 . S
C1441 C1442 1.366 . S
C1442 C1441 1.366 . S
C1442 C1443 1.414 . S
C1442 C1445 1.499 . S
C1443 H1417 0.950 . S
C1443 C1442 1.414 . S
C1443 C1444 1.374 . S
C1444 H1418 0.950 . S
C1444 C1440 1.385 . S
C1444 C1443 1.374 . S
C1445 C1442 1.499 . S
C1445 C1446 1.373 . S
C1445 C1447 1.389 . S
C1446 H1419 0.950 . S
C1446 C1432 1.377 . S
C1446 C1445 1.373 . S
C1447 C1431 1.377 . S
C1447 C1445 1.389 . S
C1447 C1448 1.524 . S
C1448 C1447 1.524 . S
C1448 C1449 1.397 . S
C1448 C1453 1.363 . S
C1449 H1420 0.950 . S
C1449 C1448 1.397 . S
C1449 C1450 1.334 . S
C1450 H1421 0.950 . S
C1450 C1449 1.334 . S
C1450 C1451 1.287 . S
C1451 C1450 1.287 . S
C1451 C1452 1.524 . S
C1451 H1454 0.999 . S
C1452 H1422 0.950 . S
C1452 C1451 1.524 . S
C1452 C1453 1.415 . S
C1453 H1423 0.950 . S
C1453 C1448 1.363 . S
C1453 C1452 1.415 . S
H1454 C1451 0.999 . S
H1455 C1436 0.913 . S
H1456 C1474 0.951 . S
H1457 C1476 0.951 . S
H1458 C1478 0.950 . S
H1459 C1479 0.950 . S
H1460 C1481 0.950 . S
H1461 C1484 0.950 . S
H1462 C1485 0.950 . S
H1463 C1487 0.950 . S
H1464 C1488 0.950 . S
H1465 C1489 0.951 . S
H1466 C1491 0.951 . S
H1467 C1493 0.950 . S
H1468 C1494 0.950 1_545 S
H1469 C1496 0.950 . S
H1470 C1499 0.950 . S
H1471 C1500 0.950 . S
H1472 C1502 0.950 . S
H1473 C1503 0.915 1_554 S
C1474 H1456 0.951 . S
C1474 C1475 1.366 . S
C1474 C1476 1.388 . S
C1475 C1474 1.366 . S
C1475 C1479 1.385 . S
C1476 H1457 0.951 . S
C1476 C1474 1.388 . S
C1476 C1477 1.366 . S
C1477 C1476 1.366 . S
C1477 C1478 1.414 . S
C1477 C1480 1.499 . S
C1478 H1458 0.950 . S
C1478 C1477 1.414 . S
C1478 C1479 1.374 . S
C1479 H1459 0.950 . S
C1479 C1475 1.385 . S
C1479 C1478 1.374 . S
C1480 C1477 1.499 . S
C1480 C1481 1.373 . S
C1480 C1482 1.389 . S
C1481 H1460 0.950 . S
C1481 C1480 1.373 . S
C1481 C1497 1.377 . S
C1482 C1480 1.389 . S
C1482 C1483 1.524 . S
C1482 C1496 1.377 . S
C1483 C1482 1.524 . S
C1483 C1484 1.397 . S
C1483 C1488 1.363 . S
C1484 H1461 0.950 . S
C1484 C1483 1.397 . S
C1484 C1485 1.334 . S
C1485 H1462 0.950 . S
C1485 C1484 1.334 . S
C1485 C1486 1.287 . S
C1486 C1485 1.287 . S
C1486 C1487 1.524 . S
C1486 H1505 0.913 . S
C1487 H1463 0.950 . S
C1487 C1486 1.524 . S
C1487 C1488 1.415 . S
C1488 H1464 0.950 . S
C1488 C1483 1.363 . S
C1488 C1487 1.415 . S
C1489 H1465 0.951 . S
C1489 C1490 1.366 . S
C1489 C1491 1.388 . S
C1490 C1489 1.366 . S
C1490 C1494 1.385 . S
C1491 H1466 0.951 . S
C1491 C1489 1.388 . S
C1491 C1492 1.366 . S
C1492 C1491 1.366 . S
C1492 C1493 1.414 . S
C1492 C1495 1.499 . S
C1493 H1467 0.950 . S
C1493 C1492 1.414 . S
C1493 C1494 1.374 . S
C1494 H1468 0.950 1_565 S
C1494 C1490 1.385 . S
C1494 C1493 1.374 . S
C1495 C1492 1.499 . S
C1495 C1496 1.373 . S
C1495 C1497 1.389 . S
C1496 H1469 0.950 . S
C1496 C1482 1.377 . S
C1496 C1495 1.373 . S
C1497 C1481 1.377 . S
C1497 C1495 1.389 . S
C1497 C1498 1.557 . S
C1498 C1497 1.557 . S
C1498 C1499 1.361 1_554 S
C1498 C1503 1.370 1_554 S
C1499 H1470 0.950 . S
C1499 C1498 1.361 1_556 S
C1499 C1500 1.334 . S
C1500 H1471 0.950 . S
C1500 C1499 1.334 . S
C1500 C1501 1.287 . S
C1501 C1500 1.287 . S
C1501 C1502 1.524 . S
C1501 H1504 0.999 . S
C1502 H1472 0.950 . S
C1502 C1501 1.524 . S
C1502 C1503 1.451 . S
C1503 H1473 0.915 1_556 S
C1503 C1498 1.370 1_556 S
C1503 C1502 1.451 . S
H1504 C1501 0.999 . S
H1505 C1486 0.913 . S
H1506 C1524 0.951 . S
H1507 C1526 0.960 . S
H1508 C1528 0.950 . S
H1509 C1529 0.960 . S
H1510 C1531 0.950 . S
H1511 C1534 0.950 . S
H1512 C1535 0.950 . S
H1513 C1537 0.950 . S
H1514 C1538 0.950 . S
H1515 C1539 0.951 . S
H1516 C1541 0.951 . S
H1517 C1543 0.950 . S
H1518 C1544 0.950 . S
H1519 C1546 0.950 . S
H1520 C1549 0.950 . S
H1521 C1550 0.950 . S
H1522 C1552 0.950 . S
H1523 C1553 0.950 . S
C1524 H1506 0.951 . S
C1524 C1525 1.358 . S
C1524 C1526 1.380 1_556 S
C1525 C1524 1.358 . S
C1525 C1529 1.384 . S
C1526 H1507 0.960 . S
C1526 C1524 1.380 1_554 S
C1526 C1527 1.366 . S
C1527 C1526 1.366 . S
C1527 C1528 1.409 . S
C1527 C1530 1.508 . S
C1528 H1508 0.950 . S
C1528 C1527 1.409 . S
C1528 C1529 1.364 1_554 S
C1529 H1509 0.960 . S
C1529 C1525 1.384 . S
C1529 C1528 1.364 1_556 S
C1530 C1527 1.508 . S
C1530 C1531 1.373 . S
C1530 C1532 1.389 1_554 S
C1531 H1510 0.950 . S
C1531 C1530 1.373 . S
C1531 C1547 1.377 . S
C1532 C1530 1.389 1_556 S
C1532 C1533 1.524 . S
C1532 C1546 1.377 . S
C1533 C1532 1.524 . S
C1533 C1534 1.397 . S
C1533 C1538 1.363 . S
C1534 H1511 0.950 . S
C1534 C1533 1.397 . S
C1534 C1535 1.334 . S
C1535 H1512 0.950 . S
C1535 C1534 1.334 . S
C1535 C1536 1.287 . S
C1536 C1535 1.287 . S
C1536 C1537 1.524 . S
C1536 H1555 0.913 . S
C1537 H1513 0.950 . S
C1537 C1536 1.524 . S
C1537 C1538 1.415 . S
C1538 H1514 0.950 . S
C1538 C1533 1.363 . S
C1538 C1537 1.415 . S
C1539 H1515 0.951 . S
C1539 C1540 1.366 . S
C1539 C1541 1.388 . S
C1540 C1539 1.366 . S
C1540 C1544 1.385 . S
C1541 H1516 0.951 . S
C1541 C1539 1.388 . S
C1541 C1542 1.366 . S
C1542 C1541 1.366 . S
C1542 C1543 1.414 . S
C1542 C1545 1.499 . S
C1543 H1517 0.950 . S
C1543 C1542 1.414 . S
C1543 C1544 1.374 . S
C1544 H1518 0.950 . S
C1544 C1540 1.385 . S
C1544 C1543 1.374 . S
C1545 C1542 1.499 . S
C1545 C1546 1.373 1_554 S
C1545 C1547 1.389 . S
C1546 H1519 0.950 . S
C1546 C1532 1.377 . S
C1546 C1545 1.373 1_556 S
C1547 C1531 1.377 . S
C1547 C1545 1.389 . S
C1547 C1548 1.524 . S
C1548 C1547 1.524 . S
C1548 C1549 1.397 . S
C1548 C1553 1.363 . S
C1549 H1520 0.950 . S
C1549 C1548 1.397 . S
C1549 C1550 1.334 . S
C1550 H1521 0.950 . S
C1550 C1549 1.334 . S
C1550 C1551 1.287 . S
C1551 C1550 1.287 . S
C1551 C1552 1.524 . S
C1551 H1554 0.999 . S
C1552 H1522 0.950 . S
C1552 C1551 1.524 . S
C1552 C1553 1.415 . S
C1553 H1523 0.950 . S
C1553 C1548 1.363 . S
C1553 C1552 1.415 . S
H1554 C1551 0.999 . S
H1555 C1536 0.913 . S
H1556 C1574 0.951 . S
H1557 C1576 0.951 . S
H1558 C1578 0.950 . S
H1559 C1579 0.950 . S
H1560 C1581 0.950 . S
H1561 C1584 0.950 . S
H1562 C1585 0.950 . S
H1563 C1587 0.950 . S
H1564 C1588 0.950 . S
H1565 C1589 0.951 . S
H1566 C1591 0.951 . S
H1567 C1593 0.950 . S
H1568 C1594 0.950 . S
H1569 C1596 0.950 . S
H1570 C1599 0.950 . S
H1571 C1600 0.950 . S
H1572 C1602 0.950 . S
H1573 C1603 0.950 . S
C1574 H1556 0.951 . S
C1574 C1575 1.366 . S
C1574 C1576 1.388 . S
C1575 C1574 1.366 . S
C1575 C1579 1.385 . S
C1576 H1557 0.951 . S
C1576 C1574 1.388 . S
C1576 C1577 1.366 . S
C1577 C1576 1.366 . S
C1577 C1578 1.414 . S
C1577 C1580 1.499 . S
C1578 H1558 0.950 . S
C1578 C1577 1.414 . S
C1578 C1579 1.374 . S
C1579 H1559 0.950 . S
C1579 C1575 1.385 . S
C1579 C1578 1.374 . S
C1580 C1577 1.499 . S
C1580 C1581 1.373 . S
C1580 C1582 1.389 . S
C1581 H1560 0.950 . S
C1581 C1580 1.373 . S
C1581 C1597 1.377 . S
C1582 C1580 1.389 . S
C1582 C1583 1.524 . S
C1582 C1596 1.377 . S
C1583 C1582 1.524 . S
C1583 C1584 1.397 . S
C1583 C1588 1.363 . S
C1584 H1561 0.950 . S
C1584 C1583 1.397 . S
C1584 C1585 1.334 . S
C1585 H1562 0.950 . S
C1585 C1584 1.334 . S
C1585 C1586 1.287 . S
C1586 C1585 1.287 . S
C1586 C1587 1.524 . S
C1586 H1605 0.913 . S
C1587 H1563 0.950 . S
C1587 C1586 1.524 . S
C1587 C1588 1.415 . S
C1588 H1564 0.950 . S
C1588 C1583 1.363 . S
C1588 C1587 1.415 . S
C1589 H1565 0.951 . S
C1589 C1590 1.366 . S
C1589 C1591 1.388 . S
C1590 C1589 1.366 . S
C1590 C1594 1.385 . S
C1591 H1566 0.951 . S
C1591 C1589 1.388 . S
C1591 C1592 1.366 . S
C1592 C1591 1.366 . S
C1592 C1593 1.414 . S
C1592 C1595 1.499 . S
C1593 H1567 0.950 . S
C1593 C1592 1.414 . S
C1593 C1594 1.374 . S
C1594 H1568 0.950 . S
C1594 C1590 1.385 . S
C1594 C1593 1.374 . S
C1595 C1592 1.499 . S
C1595 C1596 1.373 . S
C1595 C1597 1.389 . S
C1596 H1569 0.950 . S
C1596 C1582 1.377 . S
C1596 C1595 1.373 . S
C1597 C1581 1.377 . S
C1597 C1595 1.389 . S
C1597 C1598 1.524 . S
C1598 C1597 1.524 . S
C1598 C1599 1.397 . S
C1598 C1603 1.363 . S
C1599 H1570 0.950 . S
C1599 C1598 1.397 . S
C1599 C1600 1.334 . S
C1600 H1571 0.950 . S
C1600 C1599 1.334 . S
C1600 C1601 1.287 . S
C1601 C1600 1.287 . S
C1601 C1602 1.524 . S
C1601 H1604 0.999 . S
C1602 H1572 0.950 . S
C1602 C1601 1.524 . S
C1602 C1603 1.415 . S
C1603 H1573 0.950 . S
C1603 C1598 1.363 . S
C1603 C1602 1.415 . S
H1604 C1601 0.999 . S
H1605 C1586 0.913 . S
H1606 C1624 0.951 . S
H1607 C1626 0.951 . S
H1608 C1628 0.950 . S
H1609 C1629 0.950 . S
H1610 C1631 0.950 . S
H1611 C1634 0.950 . S
H1612 C1635 0.950 . S
H1613 C1637 0.950 . S
H1614 C1638 0.950 . S
H1615 C1639 0.951 . S
H1616 C1641 0.951 . S
H1617 C1643 0.950 . S
H1618 C1644 0.950 . S
H1619 C1646 0.950 . S
H1620 C1649 0.950 . S
H1621 C1650 0.950 . S
H1622 C1652 0.950 . S
H1623 C1653 0.950 . S
C1624 H1606 0.951 . S
C1624 C1625 1.366 . S
C1624 C1626 1.388 . S
C1625 C1624 1.366 . S
C1625 C1629 1.385 . S
C1626 H1607 0.951 . S
C1626 C1624 1.388 . S
C1626 C1627 1.366 . S
C1627 C1626 1.366 . S
C1627 C1628 1.414 . S
C1627 C1630 1.499 . S
C1628 H1608 0.950 . S
C1628 C1627 1.414 . S
C1628 C1629 1.374 . S
C1629 H1609 0.950 . S
C1629 C1625 1.385 . S
C1629 C1628 1.374 . S
C1630 C1627 1.499 . S
C1630 C1631 1.373 . S
C1630 C1632 1.389 . S
C1631 H1610 0.950 . S
C1631 C1630 1.373 . S
C1631 C1647 1.377 . S
C1632 C1630 1.389 . S
C1632 C1633 1.524 . S
C1632 C1646 1.377 . S
C1633 C1632 1.524 . S
C1633 C1634 1.397 . S
C1633 C1638 1.363 . S
C1634 H1611 0.950 . S
C1634 C1633 1.397 . S
C1634 C1635 1.334 . S
C1635 H1612 0.950 . S
C1635 C1634 1.334 . S
C1635 C1636 1.287 . S
C1636 C1635 1.287 . S
C1636 C1637 1.524 . S
C1636 H1655 0.913 . S
C1637 H1613 0.950 . S
C1637 C1636 1.524 . S
C1637 C1638 1.415 . S
C1638 H1614 0.950 . S
C1638 C1633 1.363 . S
C1638 C1637 1.415 . S
C1639 H1615 0.951 . S
C1639 C1640 1.366 . S
C1639 C1641 1.388 . S
C1640 C1639 1.366 . S
C1640 C1644 1.385 . S
C1641 H1616 0.951 . S
C1641 C1639 1.388 . S
C1641 C1642 1.366 . S
C1642 C1641 1.366 . S
C1642 C1643 1.414 . S
C1642 C1645 1.499 . S
C1643 H1617 0.950 . S
C1643 C1642 1.414 . S
C1643 C1644 1.374 . S
C1644 H1618 0.950 . S
C1644 C1640 1.385 . S
C1644 C1643 1.374 . S
C1645 C1642 1.499 . S
C1645 C1646 1.373 . S
C1645 C1647 1.389 . S
C1646 H1619 0.950 . S
C1646 C1632 1.377 . S
C1646 C1645 1.373 . S
C1647 C1631 1.377 . S
C1647 C1645 1.389 . S
C1647 C1648 1.524 . S
C1648 C1647 1.524 . S
C1648 C1649 1.397 . S
C1648 C1653 1.363 . S
C1649 H1620 0.950 . S
C1649 C1648 1.397 . S
C1649 C1650 1.334 . S
C1650 H1621 0.950 . S
C1650 C1649 1.334 . S
C1650 C1651 1.287 . S
C1651 C1650 1.287 . S
C1651 C1652 1.524 . S
C1651 H1654 0.999 . S
C1652 H1622 0.950 . S
C1652 C1651 1.524 . S
C1652 C1653 1.415 . S
C1653 H1623 0.950 . S
C1653 C1648 1.363 . S
C1653 C1652 1.415 . S
H1654 C1651 0.999 . S
H1655 C1636 0.913 . S
H1656 C1674 0.951 . S
H1657 C1676 0.951 . S
H1658 C1678 0.950 . S
H1659 C1679 0.950 . S
H1660 C1681 0.950 . S
H1661 C1684 0.950 . S
H1662 C1685 0.950 . S
H1663 C1687 0.950 . S
H1664 C1688 0.950 . S
H1665 C1689 0.951 . S
H1666 C1691 0.951 . S
H1667 C1693 0.950 . S
H1668 C1694 0.950 . S
H1669 C1696 0.950 . S
H1670 C1699 0.950 . S
H1671 C1700 0.950 . S
H1672 C1702 0.950 . S
H1673 C1703 0.950 . S
C1674 H1656 0.951 . S
C1674 C1675 1.366 . S
C1674 C1676 1.388 . S
C1675 C1674 1.366 . S
C1675 C1679 1.385 . S
C1676 H1657 0.951 . S
C1676 C1674 1.388 . S
C1676 C1677 1.366 . S
C1677 C1676 1.366 . S
C1677 C1678 1.414 . S
C1677 C1680 1.499 . S
C1678 H1658 0.950 . S
C1678 C1677 1.414 . S
C1678 C1679 1.374 . S
C1679 H1659 0.950 . S
C1679 C1675 1.385 . S
C1679 C1678 1.374 . S
C1680 C1677 1.499 . S
C1680 C1681 1.373 . S
C1680 C1682 1.389 . S
C1681 H1660 0.950 . S
C1681 C1680 1.373 . S
C1681 C1697 1.377 . S
C1682 C1680 1.389 . S
C1682 C1683 1.524 . S
C1682 C1696 1.377 . S
C1683 C1682 1.524 . S
C1683 C1684 1.397 . S
C1683 C1688 1.363 . S
C1684 H1661 0.950 . S
C1684 C1683 1.397 . S
C1684 C1685 1.334 . S
C1685 H1662 0.950 . S
C1685 C1684 1.334 . S
C1685 C1686 1.287 . S
C1686 C1685 1.287 . S
C1686 C1687 1.524 . S
C1686 H1705 0.913 . S
C1687 H1663 0.950 . S
C1687 C1686 1.524 . S
C1687 C1688 1.415 . S
C1688 H1664 0.950 . S
C1688 C1683 1.363 . S
C1688 C1687 1.415 . S
C1689 H1665 0.951 . S
C1689 C1690 1.366 . S
C1689 C1691 1.388 . S
C1690 C1689 1.366 . S
C1690 C1694 1.385 . S
C1691 H1666 0.951 . S
C1691 C1689 1.388 . S
C1691 C1692 1.366 . S
C1692 C1691 1.366 . S
C1692 C1693 1.414 . S
C1692 C1695 1.499 . S
C1693 H1667 0.950 . S
C1693 C1692 1.414 . S
C1693 C1694 1.374 . S
C1694 H1668 0.950 . S
C1694 C1690 1.385 . S
C1694 C1693 1.374 . S
C1695 C1692 1.499 . S
C1695 C1696 1.373 . S
C1695 C1697 1.389 . S
C1696 H1669 0.950 . S
C1696 C1682 1.377 . S
C1696 C1695 1.373 . S
C1697 C1681 1.377 . S
C1697 C1695 1.389 . S
C1697 C1698 1.524 . S
C1698 C1697 1.524 . S
C1698 C1699 1.397 . S
C1698 C1703 1.363 . S
C1699 H1670 0.950 . S
C1699 C1698 1.397 . S
C1699 C1700 1.334 . S
C1700 H1671 0.950 . S
C1700 C1699 1.334 . S
C1700 C1701 1.287 . S
C1701 C1700 1.287 . S
C1701 C1702 1.524 . S
C1701 H1704 0.999 . S
C1702 H1672 0.950 . S
C1702 C1701 1.524 . S
C1702 C1703 1.415 . S
C1703 H1673 0.950 . S
C1703 C1698 1.363 . S
C1703 C1702 1.415 . S
H1704 C1701 0.999 . S
H1705 C1686 0.913 . S
H1706 C1724 0.951 . S
H1707 C1726 0.951 . S
H1708 C1728 0.950 . S
H1709 C1729 0.950 . S
H1710 C1731 0.950 . S
H1711 C1734 0.950 . S
H1712 C1735 0.950 . S
H1713 C1737 0.950 . S
H1714 C1738 0.950 . S
H1715 C1739 0.951 . S
H1716 C1741 0.951 . S
H1717 C1743 0.950 . S
H1718 C1744 0.950 . S
H1719 C1746 0.950 . S
H1720 C1749 0.950 . S
H1721 C1750 0.950 . S
H1722 C1752 0.950 . S
H1723 C1753 0.950 . S
C1724 H1706 0.951 . S
C1724 C1725 1.366 . S
C1724 C1726 1.388 . S
C1725 C1724 1.366 . S
C1725 C1729 1.385 . S
C1726 H1707 0.951 . S
C1726 C1724 1.388 . S
C1726 C1727 1.366 . S
C1727 C1726 1.366 . S
C1727 C1728 1.414 . S
C1727 C1730 1.499 . S
C1728 H1708 0.950 . S
C1728 C1727 1.414 . S
C1728 C1729 1.374 . S
C1729 H1709 0.950 . S
C1729 C1725 1.385 . S
C1729 C1728 1.374 . S
C1730 C1727 1.499 . S
C1730 C1731 1.373 . S
C1730 C1732 1.389 . S
C1731 H1710 0.950 . S
C1731 C1730 1.373 . S
C1731 C1747 1.377 . S
C1732 C1730 1.389 . S
C1732 C1733 1.524 . S
C1732 C1746 1.377 . S
C1733 C1732 1.524 . S
C1733 C1734 1.397 . S
C1733 C1738 1.363 . S
C1734 H1711 0.950 . S
C1734 C1733 1.397 . S
C1734 C1735 1.334 . S
C1735 H1712 0.950 . S
C1735 C1734 1.334 . S
C1735 C1736 1.287 . S
C1736 C1735 1.287 . S
C1736 C1737 1.524 . S
C1736 H1755 0.913 . S
C1737 H1713 0.950 . S
C1737 C1736 1.524 . S
C1737 C1738 1.415 . S
C1738 H1714 0.950 . S
C1738 C1733 1.363 . S
C1738 C1737 1.415 . S
C1739 H1715 0.951 . S
C1739 C1740 1.366 . S
C1739 C1741 1.388 . S
C1740 C1739 1.366 . S
C1740 C1744 1.385 . S
C1741 H1716 0.951 . S
C1741 C1739 1.388 . S
C1741 C1742 1.366 . S
C1742 C1741 1.366 . S
C1742 C1743 1.414 . S
C1742 C1745 1.499 . S
C1743 H1717 0.950 . S
C1743 C1742 1.414 . S
C1743 C1744 1.374 . S
C1744 H1718 0.950 . S
C1744 C1740 1.385 . S
C1744 C1743 1.374 . S
C1745 C1742 1.499 . S
C1745 C1746 1.373 . S
C1745 C1747 1.389 . S
C1746 H1719 0.950 . S
C1746 C1732 1.377 . S
C1746 C1745 1.373 . S
C1747 C1731 1.377 . S
C1747 C1745 1.389 . S
C1747 C1748 1.524 . S
C1748 C1747 1.524 . S
C1748 C1749 1.397 . S
C1748 C1753 1.363 . S
C1749 H1720 0.950 . S
C1749 C1748 1.397 . S
C1749 C1750 1.334 . S
C1750 H1721 0.950 . S
C1750 C1749 1.334 . S
C1750 C1751 1.287 . S
C1751 C1750 1.287 . S
C1751 C1752 1.524 . S
C1751 H1754 0.999 . S
C1752 H1722 0.950 . S
C1752 C1751 1.524 . S
C1752 C1753 1.415 . S
C1753 H1723 0.950 . S
C1753 C1748 1.363 . S
C1753 C1752 1.415 . S
H1754 C1751 0.999 . S
H1755 C1736 0.913 . S
H1756 C1774 0.951 . S
H1757 C1776 0.951 . S
H1758 C1778 0.950 . S
H1759 C1779 0.950 . S
H1760 C1781 0.950 . S
H1761 C1784 0.950 . S
H1762 C1785 0.950 . S
H1763 C1787 0.950 . S
H1764 C1788 0.950 . S
H1765 C1789 0.951 . S
H1766 C1791 0.951 . S
H1767 C1793 0.950 . S
H1768 C1794 0.950 . S
H1769 C1796 0.950 . S
H1770 C1799 0.950 . S
H1771 C1800 0.950 . S
H1772 C1802 0.950 . S
H1773 C1803 0.950 . S
C1774 H1756 0.951 . S
C1774 C1775 1.366 . S
C1774 C1776 1.388 . S
C1775 C1774 1.366 . S
C1775 C1779 1.385 . S
C1776 H1757 0.951 . S
C1776 C1774 1.388 . S
C1776 C1777 1.366 . S
C1777 C1776 1.366 . S
C1777 C1778 1.414 . S
C1777 C1780 1.499 . S
C1778 H1758 0.950 . S
C1778 C1777 1.414 . S
C1778 C1779 1.374 . S
C1779 H1759 0.950 . S
C1779 C1775 1.385 . S
C1779 C1778 1.374 . S
C1780 C1777 1.499 . S
C1780 C1781 1.373 . S
C1780 C1782 1.389 . S
C1781 H1760 0.950 . S
C1781 C1780 1.373 . S
C1781 C1797 1.377 . S
C1782 C1780 1.389 . S
C1782 C1783 1.524 . S
C1782 C1796 1.377 . S
C1783 C1782 1.524 . S
C1783 C1784 1.397 . S
C1783 C1788 1.363 . S
C1784 H1761 0.950 . S
C1784 C1783 1.397 . S
C1784 C1785 1.334 . S
C1785 H1762 0.950 . S
C1785 C1784 1.334 . S
C1785 C1786 1.287 . S
C1786 C1785 1.287 . S
C1786 C1787 1.524 . S
C1786 H1805 0.913 . S
C1787 H1763 0.950 . S
C1787 C1786 1.524 . S
C1787 C1788 1.415 . S
C1788 H1764 0.950 . S
C1788 C1783 1.363 . S
C1788 C1787 1.415 . S
C1789 H1765 0.951 . S
C1789 C1790 1.366 . S
C1789 C1791 1.388 . S
C1790 C1789 1.366 . S
C1790 C1794 1.385 . S
C1791 H1766 0.951 . S
C1791 C1789 1.388 . S
C1791 C1792 1.366 . S
C1792 C1791 1.366 . S
C1792 C1793 1.414 . S
C1792 C1795 1.499 . S
C1793 H1767 0.950 . S
C1793 C1792 1.414 . S
C1793 C1794 1.374 . S
C1794 H1768 0.950 . S
C1794 C1790 1.385 . S
C1794 C1793 1.374 . S
C1795 C1792 1.499 . S
C1795 C1796 1.373 . S
C1795 C1797 1.389 . S
C1796 H1769 0.950 . S
C1796 C1782 1.377 . S
C1796 C1795 1.373 . S
C1797 C1781 1.377 . S
C1797 C1795 1.389 . S
C1797 C1798 1.524 . S
C1798 C1797 1.524 . S
C1798 C1799 1.397 . S
C1798 C1803 1.363 . S
C1799 H1770 0.950 . S
C1799 C1798 1.397 . S
C1799 C1800 1.334 . S
C1800 H1771 0.950 . S
C1800 C1799 1.334 . S
C1800 C1801 1.287 . S
C1801 C1800 1.287 . S
C1801 C1802 1.524 . S
C1801 H1804 0.999 . S
C1802 H1772 0.950 . S
C1802 C1801 1.524 . S
C1802 C1803 1.415 . S
C1803 H1773 0.950 . S
C1803 C1798 1.363 . S
C1803 C1802 1.415 . S
H1804 C1801 0.999 . S
H1805 C1786 0.913 . S
H1806 C1824 0.951 . S
H1807 C1826 0.951 . S
H1808 C1828 0.950 . S
H1809 C1829 0.950 . S
H1810 C1831 0.950 . S
H1811 C1834 0.950 . S
H1812 C1835 0.950 . S
H1813 C1837 0.950 . S
H1814 C1838 0.950 . S
H1815 C1839 0.951 . S
H1816 C1841 0.951 . S
H1817 C1843 0.950 . S
H1818 C1844 0.950 . S
H1819 C1846 0.950 . S
H1820 C1849 0.950 . S
H1821 C1850 0.950 . S
H1822 C1852 0.950 . S
H1823 C1853 0.950 . S
C1824 H1806 0.951 . S
C1824 C1825 1.366 . S
C1824 C1826 1.388 . S
C1825 C1824 1.366 . S
C1825 C1829 1.385 . S
C1826 H1807 0.951 . S
C1826 C1824 1.388 . S
C1826 C1827 1.366 . S
C1827 C1826 1.366 . S
C1827 C1828 1.414 . S
C1827 C1830 1.499 . S
C1828 H1808 0.950 . S
C1828 C1827 1.414 . S
C1828 C1829 1.374 . S
C1829 H1809 0.950 . S
C1829 C1825 1.385 . S
C1829 C1828 1.374 . S
C1830 C1827 1.499 . S
C1830 C1831 1.373 . S
C1830 C1832 1.389 . S
C1831 H1810 0.950 . S
C1831 C1830 1.373 . S
C1831 C1847 1.377 . S
C1832 C1830 1.389 . S
C1832 C1833 1.524 . S
C1832 C1846 1.377 . S
C1833 C1832 1.524 . S
C1833 C1834 1.397 . S
C1833 C1838 1.363 . S
C1834 H1811 0.950 . S
C1834 C1833 1.397 . S
C1834 C1835 1.334 . S
C1835 H1812 0.950 . S
C1835 C1834 1.334 . S
C1835 C1836 1.287 . S
C1836 C1835 1.287 . S
C1836 C1837 1.524 . S
C1836 H1855 0.913 . S
C1837 H1813 0.950 . S
C1837 C1836 1.524 . S
C1837 C1838 1.415 . S
C1838 H1814 0.950 . S
C1838 C1833 1.363 . S
C1838 C1837 1.415 . S
C1839 H1815 0.951 . S
C1839 C1840 1.366 . S
C1839 C1841 1.388 . S
C1840 C1839 1.366 . S
C1840 C1844 1.385 . S
C1841 H1816 0.951 . S
C1841 C1839 1.388 . S
C1841 C1842 1.366 . S
C1842 C1841 1.366 . S
C1842 C1843 1.414 . S
C1842 C1845 1.499 . S
C1843 H1817 0.950 . S
C1843 C1842 1.414 . S
C1843 C1844 1.374 . S
C1844 H1818 0.950 . S
C1844 C1840 1.385 . S
C1844 C1843 1.374 . S
C1845 C1842 1.499 . S
C1845 C1846 1.373 . S
C1845 C1847 1.389 . S
C1846 H1819 0.950 . S
C1846 C1832 1.377 . S
C1846 C1845 1.373 . S
C1847 C1831 1.377 . S
C1847 C1845 1.389 . S
C1847 C1848 1.524 . S
C1848 C1847 1.524 . S
C1848 C1849 1.397 . S
C1848 C1853 1.363 . S
C1849 H1820 0.950 . S
C1849 C1848 1.397 . S
C1849 C1850 1.334 . S
C1850 H1821 0.950 . S
C1850 C1849 1.334 . S
C1850 C1851 1.287 . S
C1851 C1850 1.287 . S
C1851 C1852 1.524 . S
C1851 H1854 0.999 . S
C1852 H1822 0.950 . S
C1852 C1851 1.524 . S
C1852 C1853 1.415 . S
C1853 H1823 0.950 . S
C1853 C1848 1.363 . S
C1853 C1852 1.415 . S
H1854 C1851 0.999 . S
H1855 C1836 0.913 . S
H1856 C1874 0.911 1_655 S
H1857 C1876 0.951 1_655 S
H1858 C1878 0.950 . S
H1859 C1879 0.950 . S
H1860 C1881 0.950 . S
H1861 C1884 0.950 . S
H1862 C1885 0.950 . S
H1863 C1887 0.950 . S
H1864 C1888 0.950 . S
H1865 C1889 0.951 . S
H1866 C1891 0.951 . S
H1867 C1893 0.950 . S
H1868 C1894 0.950 . S
H1869 C1896 0.950 . S
H1870 C1899 0.950 1_655 S
H1871 C1900 0.950 . S
H1872 C1902 0.950 . S
H1873 C1903 0.950 . S
C1874 H1856 0.911 1_455 S
C1874 C1875 1.366 . S
C1874 C1876 1.388 . S
C1875 C1874 1.366 . S
C1875 C1879 1.385 . S
C1876 H1857 0.951 1_455 S
C1876 C1874 1.388 . S
C1876 C1877 1.366 . S
C1877 C1876 1.366 . S
C1877 C1878 1.414 . S
C1877 C1880 1.499 . S
C1878 H1858 0.950 . S
C1878 C1877 1.414 . S
C1878 C1879 1.374 . S
C1879 H1859 0.950 . S
C1879 C1875 1.385 . S
C1879 C1878 1.374 . S
C1880 C1877 1.499 . S
C1880 C1881 1.373 . S
C1880 C1882 1.389 . S
C1881 H1860 0.950 . S
C1881 C1880 1.373 . S
C1881 C1897 1.377 . S
C1882 C1880 1.389 . S
C1882 C1883 1.524 . S
C1882 C1896 1.377 . S
C1883 C1882 1.524 . S
C1883 C1884 1.397 . S
C1883 C1888 1.363 1_455 S
C1884 H1861 0.950 . S
C1884 C1883 1.397 . S
C1884 C1885 1.334 . S
C1885 H1862 0.950 . S
C1885 C1884 1.334 . S
C1885 C1886 1.287 . S
C1886 C1885 1.287 . S
C1886 C1887 1.524 1_455 S
C1886 H1905 0.913 . S
C1887 H1863 0.950 . S
C1887 C1886 1.524 1_655 S
C1887 C1888 1.415 . S
C1888 H1864 0.950 . S
C1888 C1883 1.363 1_655 S
C1888 C1887 1.415 . S
C1889 H1865 0.951 . S
C1889 C1890 1.366 . S
C1889 C1891 1.388 . S
C1890 C1889 1.366 . S
C1890 C1894 1.385 1_455 S
C1891 H1866 0.951 . S
C1891 C1889 1.388 . S
C1891 C1892 1.366 . S
C1892 C1891 1.366 . S
C1892 C1893 1.414 1_455 S
C1892 C1895 1.499 . S
C1893 H1867 0.950 . S
C1893 C1892 1.414 1_655 S
C1893 C1894 1.374 . S
C1894 H1868 0.950 . S
C1894 C1890 1.385 1_655 S
C1894 C1893 1.374 . S
C1895 C1892 1.499 . S
C1895 C1896 1.373 . S
C1895 C1897 1.389 . S
C1896 H1869 0.950 . S
C1896 C1882 1.377 . S
C1896 C1895 1.373 . S
C1897 C1881 1.377 . S
C1897 C1895 1.389 . S
C1897 C1898 1.524 . S
C1898 C1897 1.524 . S
C1898 C1899 1.397 . S
C1898 C1903 1.363 . S
C1899 H1870 0.950 1_455 S
C1899 C1898 1.397 . S
C1899 C1900 1.334 . S
C1900 H1871 0.950 . S
C1900 C1899 1.334 . S
C1900 C1901 1.287 . S
C1901 C1900 1.287 . S
C1901 C1902 1.524 . S
C1901 H1904 0.999 . S
C1902 H1872 0.950 . S
C1902 C1901 1.524 . S
C1902 C1903 1.415 . S
C1903 H1873 0.950 . S
C1903 C1898 1.363 . S
C1903 C1902 1.415 . S
H1904 C1901 0.999 . S
H1905 C1886 0.913 . S
H1906 C1924 0.951 . S
H1907 C1926 0.951 . S
H1908 C1928 0.950 . S
H1909 C1929 0.950 . S
H1910 C1931 0.950 . S
H1911 C1934 0.950 . S
H1912 C1935 0.950 . S
H1913 C1937 0.950 . S
H1914 C1938 0.950 . S
H1915 C1939 0.951 . S
H1916 C1941 0.951 . S
H1917 C1943 0.950 . S
H1918 C1944 0.950 . S
H1919 C1946 0.950 . S
H1920 C1949 0.950 . S
H1921 C1950 0.950 . S
H1922 C1952 0.950 . S
H1923 C1953 0.950 . S
C1924 H1906 0.951 . S
C1924 C1925 1.366 . S
C1924 C1926 1.388 . S
C1925 C1924 1.366 . S
C1925 C1929 1.385 . S
C1926 H1907 0.951 . S
C1926 C1924 1.388 . S
C1926 C1927 1.366 . S
C1927 C1926 1.366 . S
C1927 C1928 1.414 . S
C1927 C1930 1.499 . S
C1928 H1908 0.950 . S
C1928 C1927 1.414 . S
C1928 C1929 1.374 . S
C1929 H1909 0.950 . S
C1929 C1925 1.385 . S
C1929 C1928 1.374 . S
C1930 C1927 1.499 . S
C1930 C1931 1.373 . S
C1930 C1932 1.389 . S
C1931 H1910 0.950 . S
C1931 C1930 1.373 . S
C1931 C1947 1.377 . S
C1932 C1930 1.389 . S
C1932 C1933 1.524 . S
C1932 C1946 1.377 . S
C1933 C1932 1.524 . S
C1933 C1934 1.397 . S
C1933 C1938 1.363 . S
C1934 H1911 0.950 . S
C1934 C1933 1.397 . S
C1934 C1935 1.334 . S
C1935 H1912 0.950 . S
C1935 C1934 1.334 . S
C1935 C1936 1.287 . S
C1936 C1935 1.287 . S
C1936 C1937 1.524 . S
C1936 H1955 0.913 . S
C1937 H1913 0.950 . S
C1937 C1936 1.524 . S
C1937 C1938 1.415 . S
C1938 H1914 0.950 . S
C1938 C1933 1.363 . S
C1938 C1937 1.415 . S
C1939 H1915 0.951 . S
C1939 C1940 1.366 . S
C1939 C1941 1.388 . S
C1940 C1939 1.366 . S
C1940 C1944 1.385 . S
C1941 H1916 0.951 . S
C1941 C1939 1.388 . S
C1941 C1942 1.366 . S
C1942 C1941 1.366 . S
C1942 C1943 1.414 . S
C1942 C1945 1.499 . S
C1943 H1917 0.950 . S
C1943 C1942 1.414 . S
C1943 C1944 1.374 . S
C1944 H1918 0.950 . S
C1944 C1940 1.385 . S
C1944 C1943 1.374 . S
C1945 C1942 1.499 . S
C1945 C1946 1.373 . S
C1945 C1947 1.389 . S
C1946 H1919 0.950 . S
C1946 C1932 1.377 . S
C1946 C1945 1.373 . S
C1947 C1931 1.377 . S
C1947 C1945 1.389 . S
C1947 C1948 1.524 . S
C1948 C1947 1.524 . S
C1948 C1949 1.397 . S
C1948 C1953 1.363 . S
C1949 H1920 0.950 . S
C1949 C1948 1.397 . S
C1949 C1950 1.334 . S
C1950 H1921 0.950 . S
C1950 C1949 1.334 . S
C1950 C1951 1.287 . S
C1951 C1950 1.287 . S
C1951 C1952 1.524 . S
C1951 H1954 0.999 . S
C1952 H1922 0.950 . S
C1952 C1951 1.524 . S
C1952 C1953 1.415 . S
C1953 H1923 0.950 . S
C1953 C1948 1.363 . S
C1953 C1952 1.415 . S
H1954 C1951 0.999 . S
H1955 C1936 0.913 . S
H1956 C1974 0.951 . S
H1957 C1976 0.951 . S
H1958 C1978 0.950 . S
H1959 C1979 0.950 . S
H1960 C1981 0.950 . S
H1961 C1984 0.950 . S
H1962 C1985 0.950 . S
H1963 C1987 0.950 . S
H1964 C1988 0.950 . S
H1965 C1989 0.951 . S
H1966 C1991 0.951 . S
H1967 C1993 0.950 . S
H1968 C1994 0.950 . S
H1969 C1996 0.950 . S
H1970 C1999 0.950 . S
H1971 C2000 0.950 . S
H1972 C2002 0.950 . S
H1973 C2003 0.950 . S
C1974 H1956 0.951 . S
C1974 C1975 1.366 . S
C1974 C1976 1.388 . S
C1975 C1974 1.366 . S
C1975 C1979 1.385 . S
C1976 H1957 0.951 . S
C1976 C1974 1.388 . S
C1976 C1977 1.366 . S
C1977 C1976 1.366 . S
C1977 C1978 1.414 . S
C1977 C1980 1.499 . S
C1978 H1958 0.950 . S
C1978 C1977 1.414 . S
C1978 C1979 1.374 . S
C1979 H1959 0.950 . S
C1979 C1975 1.385 . S
C1979 C1978 1.374 . S
C1980 C1977 1.499 . S
C1980 C1981 1.373 . S
C1980 C1982 1.389 . S
C1981 H1960 0.950 . S
C1981 C1980 1.373 . S
C1981 C1997 1.377 . S
C1982 C1980 1.389 . S
C1982 C1983 1.524 . S
C1982 C1996 1.377 . S
C1983 C1982 1.524 . S
C1983 C1984 1.397 . S
C1983 C1988 1.363 . S
C1984 H1961 0.950 . S
C1984 C1983 1.397 . S
C1984 C1985 1.334 . S
C1985 H1962 0.950 . S
C1985 C1984 1.334 . S
C1985 C1986 1.287 . S
C1986 C1985 1.287 . S
C1986 C1987 1.524 . S
C1986 H2005 0.913 . S
C1987 H1963 0.950 . S
C1987 C1986 1.524 . S
C1987 C1988 1.415 . S
C1988 H1964 0.950 . S
C1988 C1983 1.363 . S
C1988 C1987 1.415 . S
C1989 H1965 0.951 . S
C1989 C1990 1.366 . S
C1989 C1991 1.388 . S
C1990 C1989 1.366 . S
C1990 C1994 1.385 . S
C1991 H1966 0.951 . S
C1991 C1989 1.388 . S
C1991 C1992 1.366 . S
C1992 C1991 1.366 . S
C1992 C1993 1.414 . S
C1992 C1995 1.499 . S
C1993 H1967 0.950 . S
C1993 C1992 1.414 . S
C1993 C1994 1.374 . S
C1994 H1968 0.950 . S
C1994 C1990 1.385 . S
C1994 C1993 1.374 . S
C1995 C1992 1.499 . S
C1995 C1996 1.373 . S
C1995 C1997 1.389 . S
C1996 H1969 0.950 . S
C1996 C1982 1.377 . S
C1996 C1995 1.373 . S
C1997 C1981 1.377 . S
C1997 C1995 1.389 . S
C1997 C1998 1.524 . S
C1998 C1997 1.524 . S
C1998 C1999 1.397 . S
C1998 C2003 1.363 . S
C1999 H1970 0.950 . S
C1999 C1998 1.397 . S
C1999 C2000 1.334 . S
C2000 H1971 0.950 . S
C2000 C1999 1.334 . S
C2000 C2001 1.287 . S
C2001 C2000 1.287 . S
C2001 C2002 1.524 . S
C2001 H2004 0.999 . S
C2002 H1972 0.950 . S
C2002 C2001 1.524 . S
C2002 C2003 1.415 . S
C2003 H1973 0.950 . S
C2003 C1998 1.363 . S
C2003 C2002 1.415 . S
H2004 C2001 0.999 . S
H2005 C1986 0.913 . S
H2006 C2024 0.951 . S
H2007 C2026 0.951 . S
H2008 C2028 0.950 . S
H2009 C2029 0.950 . S
H2010 C2031 0.950 . S
H2011 C2034 0.950 . S
H2012 C2035 0.950 . S
H2013 C2037 0.950 . S
H2014 C2038 0.950 . S
H2015 C2039 0.951 . S
H2016 C2041 0.951 . S
H2017 C2043 0.950 . S
H2018 C2044 0.950 . S
H2019 C2046 0.950 . S
H2020 C2049 0.950 . S
H2021 C2050 0.950 . S
H2022 C2052 0.950 . S
H2023 C2053 0.950 . S
C2024 H2006 0.951 . S
C2024 C2025 1.366 . S
C2024 C2026 1.388 . S
C2025 C2024 1.366 . S
C2025 C2029 1.385 . S
C2026 H2007 0.951 . S
C2026 C2024 1.388 . S
C2026 C2027 1.366 . S
C2027 C2026 1.366 . S
C2027 C2028 1.414 . S
C2027 C2030 1.499 . S
C2028 H2008 0.950 . S
C2028 C2027 1.414 . S
C2028 C2029 1.374 . S
C2029 H2009 0.950 . S
C2029 C2025 1.385 . S
C2029 C2028 1.374 . S
C2030 C2027 1.499 . S
C2030 C2031 1.373 . S
C2030 C2032 1.389 . S
C2031 H2010 0.950 . S
C2031 C2030 1.373 . S
C2031 C2047 1.377 . S
C2032 C2030 1.389 . S
C2032 C2033 1.524 . S
C2032 C2046 1.377 . S
C2033 C2032 1.524 . S
C2033 C2034 1.397 . S
C2033 C2038 1.363 . S
C2034 H2011 0.950 . S
C2034 C2033 1.397 . S
C2034 C2035 1.334 . S
C2035 H2012 0.950 . S
C2035 C2034 1.334 . S
C2035 C2036 1.287 . S
C2036 C2035 1.287 . S
C2036 C2037 1.524 . S
C2036 H2055 0.913 . S
C2037 H2013 0.950 . S
C2037 C2036 1.524 . S
C2037 C2038 1.415 . S
C2038 H2014 0.950 . S
C2038 C2033 1.363 . S
C2038 C2037 1.415 . S
C2039 H2015 0.951 . S
C2039 C2040 1.366 . S
C2039 C2041 1.388 . S
C2040 C2039 1.366 . S
C2040 C2044 1.385 . S
C2041 H2016 0.951 . S
C2041 C2039 1.388 . S
C2041 C2042 1.366 . S
C2042 C2041 1.366 . S
C2042 C2043 1.414 . S
C2042 C2045 1.499 . S
C2043 H2017 0.950 . S
C2043 C2042 1.414 . S
C2043 C2044 1.374 . S
C2044 H2018 0.950 . S
C2044 C2040 1.385 . S
C2044 C2043 1.374 . S
C2045 C2042 1.499 . S
C2045 C2046 1.373 . S
C2045 C2047 1.389 . S
C2046 H2019 0.950 . S
C2046 C2032 1.377 . S
C2046 C2045 1.373 . S
C2047 C2031 1.377 . S
C2047 C2045 1.389 . S
C2047 C2048 1.524 . S
C2048 C2047 1.524 . S
C2048 C2049 1.397 . S
C2048 C2053 1.363 . S
C2049 H2020 0.950 . S
C2049 C2048 1.397 . S
C2049 C2050 1.334 . S
C2050 H2021 0.950 . S
C2050 C2049 1.334 . S
C2050 C2051 1.287 . S
C2051 C2050 1.287 . S
C2051 C2052 1.524 . S
C2051 H2054 0.999 . S
C2052 H2022 0.950 . S
C2052 C2051 1.524 . S
C2052 C2053 1.415 . S
C2053 H2023 0.950 . S
C2053 C2048 1.363 . S
C2053 C2052 1.415 . S
H2054 C2051 0.999 . S
H2055 C2036 0.913 . S
H2056 C2074 0.951 . S
H2057 C2076 0.951 . S
H2058 C2078 0.950 . S
H2059 C2079 0.950 . S
H2060 C2081 0.965 . S
H2061 C2084 0.950 . S
H2062 C2085 0.950 . S
H2063 C2087 0.950 . S
H2064 C2088 0.950 . S
H2065 C2089 0.951 . S
H2066 C2091 0.951 . S
H2067 C2093 0.955 . S
H2068 C2094 0.950 . S
H2069 C2096 0.950 . S
H2070 C2099 0.950 . S
H2071 C2100 0.950 . S
H2072 C2102 0.950 . S
H2073 C2103 0.950 1_455 S
C2074 H2056 0.951 . S
C2074 C2075 1.366 . S
C2074 C2076 1.388 . S
C2075 C2074 1.366 . S
C2075 C2079 1.385 . S
C2076 H2057 0.951 . S
C2076 C2074 1.388 . S
C2076 C2077 1.366 . S
C2077 C2076 1.366 . S
C2077 C2078 1.414 . S
C2077 C2080 1.499 . S
C2078 H2058 0.950 . S
C2078 C2077 1.414 . S
C2078 C2079 1.374 . S
C2079 H2059 0.950 . S
C2079 C2075 1.385 . S
C2079 C2078 1.374 . S
C2080 C2077 1.499 . S
C2080 C2081 1.373 . S
C2080 C2082 1.389 . S
C2081 H2060 0.965 . S
C2081 C2080 1.373 . S
C2081 C2097 1.377 . S
C2082 C2080 1.389 . S
C2082 C2083 1.524 . S
C2082 C2096 1.377 . S
C2083 C2082 1.524 . S
C2083 C2084 1.397 . S
C2083 C2088 1.363 . S
C2084 H2061 0.950 . S
C2084 C2083 1.397 . S
C2084 C2085 1.334 . S
C2085 H2062 0.950 . S
C2085 C2084 1.334 . S
C2085 C2086 1.287 . S
C2086 C2085 1.287 . S
C2086 C2087 1.524 . S
C2086 H2105 0.913 . S
C2087 H2063 0.950 . S
C2087 C2086 1.524 . S
C2087 C2088 1.415 . S
C2088 H2064 0.950 . S
C2088 C2083 1.363 . S
C2088 C2087 1.415 . S
C2089 H2065 0.951 . S
C2089 C2090 1.366 . S
C2089 C2091 1.388 . S
C2090 C2089 1.366 . S
C2090 C2094 1.385 1_455 S
C2091 H2066 0.951 . S
C2091 C2089 1.388 . S
C2091 C2092 1.366 . S
C2092 C2091 1.366 . S
C2092 C2093 1.410 1_455 S
C2092 C2095 1.499 . S
C2093 H2067 0.955 . S
C2093 C2092 1.410 1_655 S
C2093 C2094 1.373 . S
C2094 H2068 0.950 . S
C2094 C2090 1.385 1_655 S
C2094 C2093 1.373 . S
C2095 C2092 1.499 . S
C2095 C2096 1.373 . S
C2095 C2097 1.389 . S
C2096 H2069 0.950 . S
C2096 C2082 1.377 . S
C2096 C2095 1.373 . S
C2097 C2081 1.377 . S
C2097 C2095 1.389 . S
C2097 C2098 1.524 1_455 S
C2098 C2097 1.524 1_655 S
C2098 C2099 1.397 . S
C2098 C2103 1.363 . S
C2099 H2070 0.950 . S
C2099 C2098 1.397 . S
C2099 C2100 1.334 . S
C2100 H2071 0.950 . S
C2100 C2099 1.334 . S
C2100 C2101 1.287 . S
C2101 C2100 1.287 . S
C2101 C2102 1.524 . S
C2101 H2104 0.999 . S
C2102 H2072 0.950 . S
C2102 C2101 1.524 . S
C2102 C2103 1.415 . S
C2103 H2073 0.950 1_655 S
C2103 C2098 1.363 . S
C2103 C2102 1.415 . S
H2104 C2101 0.999 . S
H2105 C2086 0.913 . S
H2106 C2124 0.951 . S
H2107 C2126 0.951 . S
H2108 C2128 0.950 . S
H2109 C2129 0.950 . S
H2110 C2131 0.950 . S
H2111 C2134 0.950 . S
H2112 C2135 0.950 . S
H2113 C2137 0.950 . S
H2114 C2138 0.950 . S
H2115 C2139 0.951 . S
H2116 C2141 0.951 . S
H2117 C2143 0.950 . S
H2118 C2144 0.950 . S
H2119 C2146 0.950 . S
H2120 C2149 0.950 . S
H2121 C2150 0.950 . S
H2122 C2152 0.950 . S
H2123 C2153 0.950 . S
C2124 H2106 0.951 . S
C2124 C2125 1.366 . S
C2124 C2126 1.388 . S
C2125 C2124 1.366 . S
C2125 C2129 1.385 . S
C2126 H2107 0.951 . S
C2126 C2124 1.388 . S
C2126 C2127 1.366 . S
C2127 C2126 1.366 . S
C2127 C2128 1.414 . S
C2127 C2130 1.499 . S
C2128 H2108 0.950 . S
C2128 C2127 1.414 . S
C2128 C2129 1.374 . S
C2129 H2109 0.950 . S
C2129 C2125 1.385 . S
C2129 C2128 1.374 . S
C2130 C2127 1.499 . S
C2130 C2131 1.373 . S
C2130 C2132 1.389 . S
C2131 H2110 0.950 . S
C2131 C2130 1.373 . S
C2131 C2147 1.377 . S
C2132 C2130 1.389 . S
C2132 C2133 1.524 . S
C2132 C2146 1.377 . S
C2133 C2132 1.524 . S
C2133 C2134 1.397 . S
C2133 C2138 1.363 . S
C2134 H2111 0.950 . S
C2134 C2133 1.397 . S
C2134 C2135 1.334 . S
C2135 H2112 0.950 . S
C2135 C2134 1.334 . S
C2135 C2136 1.287 . S
C2136 C2135 1.287 . S
C2136 C2137 1.524 . S
C2136 H2155 0.913 . S
C2137 H2113 0.950 . S
C2137 C2136 1.524 . S
C2137 C2138 1.415 . S
C2138 H2114 0.950 . S
C2138 C2133 1.363 . S
C2138 C2137 1.415 . S
C2139 H2115 0.951 . S
C2139 C2140 1.366 . S
C2139 C2141 1.388 . S
C2140 C2139 1.366 . S
C2140 C2144 1.385 . S
C2141 H2116 0.951 . S
C2141 C2139 1.388 . S
C2141 C2142 1.366 . S
C2142 C2141 1.366 . S
C2142 C2143 1.414 . S
C2142 C2145 1.499 . S
C2143 H2117 0.950 . S
C2143 C2142 1.414 . S
C2143 C2144 1.374 . S
C2144 H2118 0.950 . S
C2144 C2140 1.385 . S
C2144 C2143 1.374 . S
C2145 C2142 1.499 . S
C2145 C2146 1.373 . S
C2145 C2147 1.389 . S
C2146 H2119 0.950 . S
C2146 C2132 1.377 . S
C2146 C2145 1.373 . S
C2147 C2131 1.377 . S
C2147 C2145 1.389 . S
C2147 C2148 1.524 . S
C2148 C2147 1.524 . S
C2148 C2149 1.397 . S
C2148 C2153 1.363 . S
C2149 H2120 0.950 . S
C2149 C2148 1.397 . S
C2149 C2150 1.334 . S
C2150 H2121 0.950 . S
C2150 C2149 1.334 . S
C2150 C2151 1.287 . S
C2151 C2150 1.287 . S
C2151 C2152 1.524 . S
C2151 H2154 0.999 . S
C2152 H2122 0.950 . S
C2152 C2151 1.524 . S
C2152 C2153 1.415 . S
C2153 H2123 0.950 . S
C2153 C2148 1.363 . S
C2153 C2152 1.415 . S
H2154 C2151 0.999 . S
H2155 C2136 0.913 . S
H2156 C2174 0.951 . S
H2157 C2176 0.951 . S
H2158 C2178 0.950 . S
H2159 C2179 0.950 . S
H2160 C2181 0.950 . S
H2161 C2184 0.950 . S
H2162 C2185 0.950 . S
H2163 C2187 0.950 . S
H2164 C2188 0.950 . S
H2165 C2189 0.951 . S
H2166 C2191 0.951 . S
H2167 C2193 0.950 . S
H2168 C2194 0.950 . S
H2169 C2196 0.950 . S
H2170 C2199 0.950 . S
H2171 C2200 0.950 . S
H2172 C2202 0.950 . S
H2173 C2203 0.950 . S
C2174 H2156 0.951 . S
C2174 C2175 1.366 . S
C2174 C2176 1.388 . S
C2175 C2174 1.366 . S
C2175 C2179 1.385 . S
C2176 H2157 0.951 . S
C2176 C2174 1.388 . S
C2176 C2177 1.366 . S
C2177 C2176 1.366 . S
C2177 C2178 1.414 . S
C2177 C2180 1.499 . S
C2178 H2158 0.950 . S
C2178 C2177 1.414 . S
C2178 C2179 1.374 . S
C2179 H2159 0.950 . S
C2179 C2175 1.385 . S
C2179 C2178 1.374 . S
C2180 C2177 1.499 . S
C2180 C2181 1.373 . S
C2180 C2182 1.389 . S
C2181 H2160 0.950 . S
C2181 C2180 1.373 . S
C2181 C2197 1.377 . S
C2182 C2180 1.389 . S
C2182 C2183 1.524 . S
C2182 C2196 1.377 . S
C2183 C2182 1.524 . S
C2183 C2184 1.397 . S
C2183 C2188 1.363 . S
C2184 H2161 0.950 . S
C2184 C2183 1.397 . S
C2184 C2185 1.334 . S
C2185 H2162 0.950 . S
C2185 C2184 1.334 . S
C2185 C2186 1.287 . S
C2186 C2185 1.287 . S
C2186 C2187 1.524 . S
C2186 H2205 0.913 . S
C2187 H2163 0.950 . S
C2187 C2186 1.524 . S
C2187 C2188 1.415 . S
C2188 H2164 0.950 . S
C2188 C2183 1.363 . S
C2188 C2187 1.415 . S
C2189 H2165 0.951 . S
C2189 C2190 1.374 . S
C2189 C2191 1.388 1_554 S
C2190 C2189 1.374 . S
C2190 C2194 1.356 1_554 S
C2191 H2166 0.951 . S
C2191 C2189 1.388 1_556 S
C2191 C2192 1.366 . S
C2192 C2191 1.366 . S
C2192 C2193 1.414 . S
C2192 C2195 1.499 . S
C2193 H2167 0.950 . S
C2193 C2192 1.414 . S
C2193 C2194 1.374 . S
C2194 H2168 0.950 . S
C2194 C2190 1.356 1_556 S
C2194 C2193 1.374 . S
C2195 C2192 1.499 . S
C2195 C2196 1.373 . S
C2195 C2197 1.389 . S
C2196 H2169 0.950 . S
C2196 C2182 1.377 . S
C2196 C2195 1.373 . S
C2197 C2181 1.377 . S
C2197 C2195 1.389 . S
C2197 C2198 1.524 . S
C2198 C2197 1.524 . S
C2198 C2199 1.397 . S
C2198 C2203 1.363 . S
C2199 H2170 0.950 . S
C2199 C2198 1.397 . S
C2199 C2200 1.334 . S
C2200 H2171 0.950 . S
C2200 C2199 1.334 . S
C2200 C2201 1.287 . S
C2201 C2200 1.287 . S
C2201 C2202 1.524 . S
C2201 H2204 0.999 . S
C2202 H2172 0.950 . S
C2202 C2201 1.524 . S
C2202 C2203 1.415 . S
C2203 H2173 0.950 . S
C2203 C2198 1.363 . S
C2203 C2202 1.415 . S
H2204 C2201 0.999 . S
H2205 C2186 0.913 . S
H2206 C2224 0.951 . S
H2207 C2226 0.951 . S
H2208 C2228 0.950 . S
H2209 C2229 0.950 . S
H2210 C2231 0.950 . S
H2211 C2234 0.950 . S
H2212 C2235 0.950 . S
H2213 C2237 0.950 . S
H2214 C2238 0.950 . S
H2215 C2239 0.951 . S
H2216 C2241 0.951 . S
H2217 C2243 0.950 . S
H2218 C2244 0.950 . S
H2219 C2246 0.950 . S
H2220 C2249 0.950 . S
H2221 C2250 0.950 . S
H2222 C2252 0.950 . S
H2223 C2253 0.950 . S
C2224 H2206 0.951 . S
C2224 C2225 1.366 . S
C2224 C2226 1.388 . S
C2225 C2224 1.366 . S
C2225 C2229 1.385 . S
C2226 H2207 0.951 . S
C2226 C2224 1.388 . S
C2226 C2227 1.366 . S
C2227 C2226 1.366 . S
C2227 C2228 1.414 . S
C2227 C2230 1.499 . S
C2228 H2208 0.950 . S
C2228 C2227 1.414 . S
C2228 C2229 1.374 . S
C2229 H2209 0.950 . S
C2229 C2225 1.385 . S
C2229 C2228 1.374 . S
C2230 C2227 1.499 . S
C2230 C2231 1.373 . S
C2230 C2232 1.389 . S
C2231 H2210 0.950 . S
C2231 C2230 1.373 . S
C2231 C2247 1.377 . S
C2232 C2230 1.389 . S
C2232 C2233 1.524 . S
C2232 C2246 1.377 . S
C2233 C2232 1.524 . S
C2233 C2234 1.397 . S
C2233 C2238 1.363 . S
C2234 H2211 0.950 . S
C2234 C2233 1.397 . S
C2234 C2235 1.334 . S
C2235 H2212 0.950 . S
C2235 C2234 1.334 . S
C2235 C2236 1.287 . S
C2236 C2235 1.287 . S
C2236 C2237 1.524 . S
C2236 H2255 0.913 . S
C2237 H2213 0.950 . S
C2237 C2236 1.524 . S
C2237 C2238 1.415 . S
C2238 H2214 0.950 . S
C2238 C2233 1.363 . S
C2238 C2237 1.415 . S
C2239 H2215 0.951 . S
C2239 C2240 1.366 . S
C2239 C2241 1.388 . S
C2240 C2239 1.366 . S
C2240 C2244 1.385 . S
C2241 H2216 0.951 . S
C2241 C2239 1.388 . S
C2241 C2242 1.366 . S
C2242 C2241 1.366 . S
C2242 C2243 1.414 . S
C2242 C2245 1.499 . S
C2243 H2217 0.950 . S
C2243 C2242 1.414 . S
C2243 C2244 1.374 . S
C2244 H2218 0.950 . S
C2244 C2240 1.385 . S
C2244 C2243 1.374 . S
C2245 C2242 1.499 . S
C2245 C2246 1.373 . S
C2245 C2247 1.389 . S
C2246 H2219 0.950 . S
C2246 C2232 1.377 . S
C2246 C2245 1.373 . S
C2247 C2231 1.377 . S
C2247 C2245 1.389 . S
C2247 C2248 1.524 . S
C2248 C2247 1.524 . S
C2248 C2249 1.397 . S
C2248 C2253 1.363 . S
C2249 H2220 0.950 . S
C2249 C2248 1.397 . S
C2249 C2250 1.334 . S
C2250 H2221 0.950 . S
C2250 C2249 1.334 . S
C2250 C2251 1.287 . S
C2251 C2250 1.287 . S
C2251 C2252 1.524 . S
C2251 H2254 0.999 . S
C2252 H2222 0.950 . S
C2252 C2251 1.524 . S
C2252 C2253 1.415 . S
C2253 H2223 0.950 . S
C2253 C2248 1.363 . S
C2253 C2252 1.415 . S
H2254 C2251 0.999 . S
H2255 C2236 0.913 . S
H2256 C2274 0.951 . S
H2257 C2276 0.951 . S
H2258 C2278 0.950 . S
H2259 C2279 0.950 . S
H2260 C2281 0.950 . S
H2261 C2284 0.950 . S
H2262 C2285 0.950 . S
H2263 C2287 0.951 . S
H2264 C2288 0.950 . S
H2265 C2289 0.951 . S
H2266 C2291 0.951 . S
H2267 C2293 0.950 . S
H2268 C2294 0.950 . S
H2269 C2296 0.933 1_565 S
H2270 C2299 0.950 . S
H2271 C2300 0.950 . S
H2272 C2302 0.912 1_655 S
H2273 C2303 0.953 1_565 S
C2274 H2256 0.951 . S
C2274 C2275 1.366 . S
C2274 C2276 1.388 . S
C2275 C2274 1.366 . S
C2275 C2279 1.385 1_545 S
C2276 H2257 0.951 . S
C2276 C2274 1.388 . S
C2276 C2277 1.366 . S
C2277 C2276 1.366 . S
C2277 C2278 1.414 1_545 S
C2277 C2280 1.499 . S
C2278 H2258 0.950 . S
C2278 C2277 1.414 1_565 S
C2278 C2279 1.374 . S
C2279 H2259 0.950 . S
C2279 C2275 1.385 1_565 S
C2279 C2278 1.374 . S
C2280 C2277 1.499 . S
C2280 C2281 1.373 . S
C2280 C2282 1.389 . S
C2281 H2260 0.950 . S
C2281 C2280 1.373 . S
C2281 C2297 1.377 . S
C2282 C2280 1.389 . S
C2282 C2283 1.524 1_545 S
C2282 C2296 1.377 . S
C2283 C2282 1.524 1_565 S
C2283 C2284 1.397 . S
C2283 C2288 1.363 1_565 S
C2284 H2261 0.950 . S
C2284 C2283 1.397 . S
C2284 C2285 1.334 . S
C2285 H2262 0.950 . S
C2285 C2284 1.334 . S
C2285 C2286 1.287 . S
C2286 C2285 1.287 . S
C2286 C2287 1.524 . S
C2286 H2305 0.913 . S
C2287 H2263 0.951 . S
C2287 C2286 1.524 . S
C2287 C2288 1.415 1_565 S
C2288 H2264 0.950 . S
C2288 C2283 1.363 1_545 S
C2288 C2287 1.415 1_545 S
C2289 H2265 0.951 . S
C2289 C2290 1.366 1_565 S
C2289 C2291 1.388 . S
C2290 C2289 1.366 1_545 S
C2290 C2294 1.385 . S
C2291 H2266 0.951 . S
C2291 C2289 1.388 . S
C2291 C2292 1.366 1_565 S
C2292 C2291 1.366 1_545 S
C2292 C2293 1.414 . S
C2292 C2295 1.499 . S
C2293 H2267 0.950 . S
C2293 C2292 1.414 . S
C2293 C2294 1.374 . S
C2294 H2268 0.950 . S
C2294 C2290 1.385 . S
C2294 C2293 1.374 . S
C2295 C2292 1.499 . S
C2295 C2296 1.373 . S
C2295 C2297 1.389 . S
C2296 H2269 0.933 1_545 S
C2296 C2282 1.377 . S
C2296 C2295 1.373 . S
C2297 C2281 1.377 . S
C2297 C2295 1.389 . S
C2297 C2298 1.524 . S
C2298 C2297 1.524 . S
C2298 C2299 1.397 . S
C2298 C2303 1.363 . S
C2299 H2270 0.950 . S
C2299 C2298 1.397 . S
C2299 C2300 1.334 . S
C2300 H2271 0.950 . S
C2300 C2299 1.334 . S
C2300 C2301 1.324 . S
C2301 C2300 1.324 . S
C2301 C2302 1.524 . S
C2301 H2304 0.944 1_455 S
C2302 H2272 0.912 1_455 S
C2302 C2301 1.524 . S
C2302 C2303 1.469 . S
C2303 H2273 0.953 1_545 S
C2303 C2298 1.363 . S
C2303 C2302 1.469 . S
H2304 C2301 0.944 1_655 S
H2305 C2286 0.913 . S
H2306 C2324 0.951 . S
H2307 C2326 0.951 . S
H2308 C2328 0.950 . S
H2309 C2329 0.950 . S
H2310 C2331 0.950 . S
H2311 C2334 0.950 . S
H2312 C2335 0.950 . S
H2313 C2337 0.950 . S
H2314 C2338 0.950 . S
H2315 C2339 0.951 . S
H2316 C2341 0.951 . S
H2317 C2343 0.950 . S
H2318 C2344 0.950 . S
H2319 C2346 0.950 . S
H2320 C2349 0.950 . S
H2321 C2350 0.950 . S
H2322 C2352 0.950 . S
H2323 C2353 0.950 . S
C2324 H2306 0.951 . S
C2324 C2325 1.366 . S
C2324 C2326 1.388 . S
C2325 C2324 1.366 . S
C2325 C2329 1.385 . S
C2326 H2307 0.951 . S
C2326 C2324 1.388 . S
C2326 C2327 1.366 . S
C2327 C2326 1.366 . S
C2327 C2328 1.414 . S
C2327 C2330 1.499 . S
C2328 H2308 0.950 . S
C2328 C2327 1.414 . S
C2328 C2329 1.374 . S
C2329 H2309 0.950 . S
C2329 C2325 1.385 . S
C2329 C2328 1.374 . S
C2330 C2327 1.499 . S
C2330 C2331 1.373 . S
C2330 C2332 1.389 . S
C2331 H2310 0.950 . S
C2331 C2330 1.373 . S
C2331 C2347 1.377 . S
C2332 C2330 1.389 . S
C2332 C2333 1.524 . S
C2332 C2346 1.377 . S
C2333 C2332 1.524 . S
C2333 C2334 1.397 . S
C2333 C2338 1.363 . S
C2334 H2311 0.950 . S
C2334 C2333 1.397 . S
C2334 C2335 1.334 . S
C2335 H2312 0.950 . S
C2335 C2334 1.334 . S
C2335 C2336 1.287 . S
C2336 C2335 1.287 . S
C2336 C2337 1.524 . S
C2336 H2355 0.913 . S
C2337 H2313 0.950 . S
C2337 C2336 1.524 . S
C2337 C2338 1.415 . S
C2338 H2314 0.950 . S
C2338 C2333 1.363 . S
C2338 C2337 1.415 . S
C2339 H2315 0.951 . S
C2339 C2340 1.366 . S
C2339 C2341 1.388 . S
C2340 C2339 1.366 . S
C2340 C2344 1.385 . S
C2341 H2316 0.951 . S
C2341 C2339 1.388 . S
C2341 C2342 1.366 . S
C2342 C2341 1.366 . S
C2342 C2343 1.414 . S
C2342 C2345 1.499 . S
C2343 H2317 0.950 . S
C2343 C2342 1.414 . S
C2343 C2344 1.374 . S
C2344 H2318 0.950 . S
C2344 C2340 1.385 . S
C2344 C2343 1.374 . S
C2345 C2342 1.499 . S
C2345 C2346 1.373 . S
C2345 C2347 1.389 . S
C2346 H2319 0.950 . S
C2346 C2332 1.377 . S
C2346 C2345 1.373 . S
C2347 C2331 1.377 . S
C2347 C2345 1.389 . S
C2347 C2348 1.524 . S
C2348 C2347 1.524 . S
C2348 C2349 1.397 . S
C2348 C2353 1.363 . S
C2349 H2320 0.950 . S
C2349 C2348 1.397 . S
C2349 C2350 1.334 . S
C2350 H2321 0.950 . S
C2350 C2349 1.334 . S
C2350 C2351 1.287 . S
C2351 C2350 1.287 . S
C2351 C2352 1.524 . S
C2351 H2354 0.999 . S
C2352 H2322 0.950 . S
C2352 C2351 1.524 . S
C2352 C2353 1.415 . S
C2353 H2323 0.950 . S
C2353 C2348 1.363 . S
C2353 C2352 1.415 . S
H2354 C2351 0.999 . S
H2355 C2336 0.913 . S
H2356 C2374 0.951 . S
H2357 C2376 0.951 . S
H2358 C2378 0.950 1_565 S
H2359 C2379 0.950 1_565 S
H2360 C2381 0.950 . S
H2361 C2384 0.974 . S
H2362 C2385 0.950 . S
H2363 C2387 0.950 . S
H2364 C2388 0.950 . S
H2365 C2389 0.951 1_565 S
H2366 C2391 0.951 1_565 S
H2367 C2393 0.950 . S
H2368 C2394 0.950 . S
H2369 C2396 0.950 . S
H2370 C2399 0.950 . S
H2371 C2400 0.950 . S
H2372 C2402 0.950 . S
H2373 C2403 0.950 . S
C2374 H2356 0.951 . S
C2374 C2375 1.366 . S
C2374 C2376 1.388 . S
C2375 C2374 1.366 . S
C2375 C2379 1.385 . S
C2376 H2357 0.951 . S
C2376 C2374 1.388 . S
C2376 C2377 1.366 . S
C2377 C2376 1.366 . S
C2377 C2378 1.414 . S
C2377 C2380 1.499 . S
C2378 H2358 0.950 1_545 S
C2378 C2377 1.414 . S
C2378 C2379 1.374 . S
C2379 H2359 0.950 1_545 S
C2379 C2375 1.385 . S
C2379 C2378 1.374 . S
C2380 C2377 1.499 . S
C2380 C2381 1.373 . S
C2380 C2382 1.389 . S
C2381 H2360 0.950 . S
C2381 C2380 1.373 . S
C2381 C2397 1.377 . S
C2382 C2380 1.389 . S
C2382 C2383 1.524 . S
C2382 C2396 1.377 . S
C2383 C2382 1.524 . S
C2383 C2384 1.397 . S
C2383 C2388 1.363 . S
C2384 H2361 0.974 . S
C2384 C2383 1.397 . S
C2384 C2385 1.334 . S
C2385 H2362 0.950 . S
C2385 C2384 1.334 . S
C2385 C2386 1.287 . S
C2386 C2385 1.287 . S
C2386 C2387 1.524 . S
C2386 H2405 0.913 . S
C2387 H2363 0.950 . S
C2387 C2386 1.524 . S
C2387 C2388 1.415 . S
C2388 H2364 0.950 . S
C2388 C2383 1.363 . S
C2388 C2387 1.415 . S
C2389 H2365 0.951 1_545 S
C2389 C2390 1.366 . S
C2389 C2391 1.388 . S
C2390 C2389 1.366 . S
C2390 C2394 1.385 . S
C2391 H2366 0.951 1_545 S
C2391 C2389 1.388 . S
C2391 C2392 1.366 . S
C2392 C2391 1.366 . S
C2392 C2393 1.414 . S
C2392 C2395 1.499 . S
C2393 H2367 0.950 . S
C2393 C2392 1.414 . S
C2393 C2394 1.374 . S
C2394 H2368 0.950 . S
C2394 C2390 1.385 . S
C2394 C2393 1.374 . S
C2395 C2392 1.499 . S
C2395 C2396 1.373 . S
C2395 C2397 1.389 . S
C2396 H2369 0.950 . S
C2396 C2382 1.377 . S
C2396 C2395 1.373 . S
C2397 C2381 1.377 . S
C2397 C2395 1.389 . S
C2397 C2398 1.524 . S
C2398 C2397 1.524 . S
C2398 C2399 1.397 . S
C2398 C2403 1.363 1_545 S
C2399 H2370 0.950 . S
C2399 C2398 1.397 . S
C2399 C2400 1.334 . S
C2400 H2371 0.950 . S
C2400 C2399 1.334 . S
C2400 C2401 1.287 . S
C2401 C2400 1.287 . S
C2401 C2402 1.524 1_545 S
C2401 H2404 0.999 . S
C2402 H2372 0.950 . S
C2402 C2401 1.524 1_565 S
C2402 C2403 1.415 . S
C2403 H2373 0.950 . S
C2403 C2398 1.363 1_565 S
C2403 C2402 1.415 . S
H2404 C2401 0.999 . S
H2405 C2386 0.913 . S
H2406 C2424 0.951 . S
H2407 C2426 0.951 . S
H2408 C2428 0.950 . S
H2409 C2429 0.950 . S
H2410 C2431 0.950 . S
H2411 C2434 0.950 . S
H2412 C2435 0.950 . S
H2413 C2437 0.950 . S
H2414 C2438 0.950 . S
H2415 C2439 0.951 . S
H2416 C2441 0.951 . S
H2417 C2443 0.950 . S
H2418 C2444 0.950 . S
H2419 C2446 0.950 . S
H2420 C2449 0.950 . S
H2421 C2450 0.950 . S
H2422 C2452 0.950 . S
H2423 C2453 0.950 . S
C2424 H2406 0.951 . S
C2424 C2425 1.366 . S
C2424 C2426 1.388 . S
C2425 C2424 1.366 . S
C2425 C2429 1.385 . S
C2426 H2407 0.951 . S
C2426 C2424 1.388 . S
C2426 C2427 1.366 . S
C2427 C2426 1.366 . S
C2427 C2428 1.414 . S
C2427 C2430 1.499 . S
C2428 H2408 0.950 . S
C2428 C2427 1.414 . S
C2428 C2429 1.374 . S
C2429 H2409 0.950 . S
C2429 C2425 1.385 . S
C2429 C2428 1.374 . S
C2430 C2427 1.499 . S
C2430 C2431 1.373 . S
C2430 C2432 1.389 . S
C2431 H2410 0.950 . S
C2431 C2430 1.373 . S
C2431 C2447 1.377 . S
C2432 C2430 1.389 . S
C2432 C2433 1.524 . S
C2432 C2446 1.377 . S
C2433 C2432 1.524 . S
C2433 C2434 1.397 . S
C2433 C2438 1.363 . S
C2434 H2411 0.950 . S
C2434 C2433 1.397 . S
C2434 C2435 1.334 . S
C2435 H2412 0.950 . S
C2435 C2434 1.334 . S
C2435 C2436 1.287 . S
C2436 C2435 1.287 . S
C2436 C2437 1.524 . S
C2436 H2455 0.913 . S
C2437 H2413 0.950 . S
C2437 C2436 1.524 . S
C2437 C2438 1.415 . S
C2438 H2414 0.950 . S
C2438 C2433 1.363 . S
C2438 C2437 1.415 . S
C2439 H2415 0.951 . S
C2439 C2440 1.366 . S
C2439 C2441 1.388 . S
C2440 C2439 1.366 . S
C2440 C2444 1.385 . S
C2441 H2416 0.951 . S
C2441 C2439 1.388 . S
C2441 C2442 1.366 . S
C2442 C2441 1.366 . S
C2442 C2443 1.414 . S
C2442 C2445 1.499 . S
C2443 H2417 0.950 . S
C2443 C2442 1.414 . S
C2443 C2444 1.374 . S
C2444 H2418 0.950 . S
C2444 C2440 1.385 . S
C2444 C2443 1.374 . S
C2445 C2442 1.499 . S
C2445 C2446 1.373 . S
C2445 C2447 1.389 . S
C2446 H2419 0.950 . S
C2446 C2432 1.377 . S
C2446 C2445 1.373 . S
C2447 C2431 1.377 . S
C2447 C2445 1.389 . S
C2447 C2448 1.524 . S
C2448 C2447 1.524 . S
C2448 C2449 1.397 . S
C2448 C2453 1.363 . S
C2449 H2420 0.950 . S
C2449 C2448 1.397 . S
C2449 C2450 1.334 . S
C2450 H2421 0.950 . S
C2450 C2449 1.334 . S
C2450 C2451 1.287 . S
C2451 C2450 1.287 . S
C2451 C2452 1.524 . S
C2451 H2454 0.999 . S
C2452 H2422 0.950 . S
C2452 C2451 1.524 . S
C2452 C2453 1.415 . S
C2453 H2423 0.950 . S
C2453 C2448 1.363 . S
C2453 C2452 1.415 . S
H2454 C2451 0.999 . S
H2455 C2436 0.913 . S
H2456 C2474 0.951 . S
H2457 C2476 0.951 . S
H2458 C2478 0.950 . S
H2459 C2479 0.950 . S
H2460 C2481 0.950 . S
H2461 C2484 0.950 . S
H2462 C2485 0.950 . S
H2463 C2487 0.950 . S
H2464 C2488 0.950 . S
H2465 C2489 0.951 . S
H2466 C2491 0.951 . S
H2467 C2493 0.922 1_565 S
H2468 C2494 0.950 1_565 S
H2469 C2496 0.950 . S
H2470 C2499 0.950 . S
H2471 C2500 0.950 . S
H2472 C2502 0.950 . S
H2473 C2503 0.950 . S
C2474 H2456 0.951 . S
C2474 C2475 1.366 1_565 S
C2474 C2476 1.388 . S
C2475 C2474 1.366 1_545 S
C2475 C2479 1.385 . S
C2476 H2457 0.951 . S
C2476 C2474 1.388 . S
C2476 C2477 1.366 1_565 S
C2477 C2476 1.366 1_545 S
C2477 C2478 1.414 . S
C2477 C2480 1.499 . S
C2478 H2458 0.950 . S
C2478 C2477 1.414 . S
C2478 C2479 1.374 . S
C2479 H2459 0.950 . S
C2479 C2475 1.385 . S
C2479 C2478 1.374 . S
C2480 C2477 1.499 . S
C2480 C2481 1.373 . S
C2480 C2482 1.389 1_545 S
C2481 H2460 0.950 . S
C2481 C2480 1.373 . S
C2481 C2497 1.377 . S
C2482 C2480 1.389 1_565 S
C2482 C2483 1.524 . S
C2482 C2496 1.377 . S
C2483 C2482 1.524 . S
C2483 C2484 1.397 . S
C2483 C2488 1.363 . S
C2484 H2461 0.950 . S
C2484 C2483 1.397 . S
C2484 C2485 1.334 . S
C2485 H2462 0.950 . S
C2485 C2484 1.334 . S
C2485 C2486 1.287 . S
C2486 C2485 1.287 . S
C2486 C2487 1.524 . S
C2486 H2505 0.913 . S
C2487 H2463 0.950 . S
C2487 C2486 1.524 . S
C2487 C2488 1.415 . S
C2488 H2464 0.950 . S
C2488 C2483 1.363 . S
C2488 C2487 1.415 . S
C2489 H2465 0.951 . S
C2489 C2490 1.366 . S
C2489 C2491 1.388 . S
C2490 C2489 1.366 . S
C2490 C2494 1.385 . S
C2491 H2466 0.951 . S
C2491 C2489 1.388 . S
C2491 C2492 1.366 . S
C2492 C2491 1.366 . S
C2492 C2493 1.434 . S
C2492 C2495 1.499 . S
C2493 H2467 0.922 1_545 S
C2493 C2492 1.434 . S
C2493 C2494 1.387 . S
C2494 H2468 0.950 1_545 S
C2494 C2490 1.385 . S
C2494 C2493 1.387 . S
C2495 C2492 1.499 . S
C2495 C2496 1.373 1_545 S
C2495 C2497 1.389 . S
C2496 H2469 0.950 . S
C2496 C2482 1.377 . S
C2496 C2495 1.373 1_565 S
C2497 C2481 1.377 . S
C2497 C2495 1.389 . S
C2497 C2498 1.524 . S
C2498 C2497 1.524 . S
C2498 C2499 1.397 . S
C2498 C2503 1.363 . S
C2499 H2470 0.950 . S
C2499 C2498 1.397 . S
C2499 C2500 1.334 . S
C2500 H2471 0.950 . S
C2500 C2499 1.334 . S
C2500 C2501 1.287 . S
C2501 C2500 1.287 . S
C2501 C2502 1.524 . S
C2501 H2504 0.999 . S
C2502 H2472 0.950 . S
C2502 C2501 1.524 . S
C2502 C2503 1.415 . S
C2503 H2473 0.950 . S
C2503 C2498 1.363 . S
C2503 C2502 1.415 . S
H2504 C2501 0.999 . S
H2505 C2486 0.913 . S
H2506 C2524 0.951 . S
H2507 C2526 0.951 . S
H2508 C2528 0.950 . S
H2509 C2529 0.950 . S
H2510 C2531 0.950 . S
H2511 C2534 0.950 . S
H2512 C2535 0.950 . S
H2513 C2537 0.950 . S
H2514 C2538 0.950 . S
H2515 C2539 0.951 . S
H2516 C2541 0.951 . S
H2517 C2543 0.950 . S
H2518 C2544 0.950 . S
H2519 C2546 0.950 . S
H2520 C2549 0.950 . S
H2521 C2550 0.950 . S
H2522 C2552 0.950 . S
H2523 C2553 0.950 . S
C2524 H2506 0.951 . S
C2524 C2525 1.366 . S
C2524 C2526 1.388 . S
C2525 C2524 1.366 . S
C2525 C2529 1.385 . S
C2526 H2507 0.951 . S
C2526 C2524 1.388 . S
C2526 C2527 1.366 . S
C2527 C2526 1.366 . S
C2527 C2528 1.414 . S
C2527 C2530 1.499 . S
C2528 H2508 0.950 . S
C2528 C2527 1.414 . S
C2528 C2529 1.374 . S
C2529 H2509 0.950 . S
C2529 C2525 1.385 . S
C2529 C2528 1.374 . S
C2530 C2527 1.499 . S
C2530 C2531 1.373 . S
C2530 C2532 1.389 . S
C2531 H2510 0.950 . S
C2531 C2530 1.373 . S
C2531 C2547 1.377 . S
C2532 C2530 1.389 . S
C2532 C2533 1.524 . S
C2532 C2546 1.377 . S
C2533 C2532 1.524 . S
C2533 C2534 1.397 . S
C2533 C2538 1.363 . S
C2534 H2511 0.950 . S
C2534 C2533 1.397 . S
C2534 C2535 1.334 . S
C2535 H2512 0.950 . S
C2535 C2534 1.334 . S
C2535 C2536 1.287 . S
C2536 C2535 1.287 . S
C2536 C2537 1.524 . S
C2536 H2555 0.913 . S
C2537 H2513 0.950 . S
C2537 C2536 1.524 . S
C2537 C2538 1.415 . S
C2538 H2514 0.950 . S
C2538 C2533 1.363 . S
C2538 C2537 1.415 . S
C2539 H2515 0.951 . S
C2539 C2540 1.366 . S
C2539 C2541 1.388 . S
C2540 C2539 1.366 . S
C2540 C2544 1.385 . S
C2541 H2516 0.951 . S
C2541 C2539 1.388 . S
C2541 C2542 1.366 . S
C2542 C2541 1.366 . S
C2542 C2543 1.414 . S
C2542 C2545 1.499 . S
C2543 H2517 0.950 . S
C2543 C2542 1.414 . S
C2543 C2544 1.374 . S
C2544 H2518 0.950 . S
C2544 C2540 1.385 . S
C2544 C2543 1.374 . S
C2545 C2542 1.499 . S
C2545 C2546 1.373 . S
C2545 C2547 1.389 . S
C2546 H2519 0.950 . S
C2546 C2532 1.377 . S
C2546 C2545 1.373 . S
C2547 C2531 1.377 . S
C2547 C2545 1.389 . S
C2547 C2548 1.524 . S
C2548 C2547 1.524 . S
C2548 C2549 1.397 . S
C2548 C2553 1.363 . S
C2549 H2520 0.950 . S
C2549 C2548 1.397 . S
C2549 C2550 1.334 . S
C2550 H2521 0.950 . S
C2550 C2549 1.334 . S
C2550 C2551 1.287 . S
C2551 C2550 1.287 . S
C2551 C2552 1.524 . S
C2551 H2554 0.999 . S
C2552 H2522 0.950 . S
C2552 C2551 1.524 . S
C2552 C2553 1.415 . S
C2553 H2523 0.950 . S
C2553 C2548 1.363 . S
C2553 C2552 1.415 . S
H2554 C2551 0.999 . S
H2555 C2536 0.913 . S
H2556 C2574 0.951 . S
H2557 C2576 0.951 . S
H2558 C2578 0.950 . S
H2559 C2579 0.950 . S
H2560 C2581 0.950 . S
H2561 C2584 0.950 . S
H2562 C2585 0.950 . S
H2563 C2587 0.950 . S
H2564 C2588 0.950 . S
H2565 C2589 0.951 . S
H2566 C2591 0.951 . S
H2567 C2593 0.950 . S
H2568 C2594 0.950 . S
H2569 C2596 0.950 . S
H2570 C2599 0.950 . S
H2571 C2600 0.950 . S
H2572 C2602 0.950 . S
H2573 C2603 0.950 1_545 S
C2574 H2556 0.951 . S
C2574 C2575 1.366 . S
C2574 C2576 1.388 . S
C2575 C2574 1.366 . S
C2575 C2579 1.385 . S
C2576 H2557 0.951 . S
C2576 C2574 1.388 . S
C2576 C2577 1.366 . S
C2577 C2576 1.366 . S
C2577 C2578 1.414 . S
C2577 C2580 1.499 . S
C2578 H2558 0.950 . S
C2578 C2577 1.414 . S
C2578 C2579 1.374 . S
C2579 H2559 0.950 . S
C2579 C2575 1.385 . S
C2579 C2578 1.374 . S
C2580 C2577 1.499 . S
C2580 C2581 1.373 . S
C2580 C2582 1.389 . S
C2581 H2560 0.950 . S
C2581 C2580 1.373 . S
C2581 C2597 1.377 . S
C2582 C2580 1.389 . S
C2582 C2583 1.524 . S
C2582 C2596 1.377 . S
C2583 C2582 1.524 . S
C2583 C2584 1.397 . S
C2583 C2588 1.363 . S
C2584 H2561 0.950 . S
C2584 C2583 1.397 . S
C2584 C2585 1.334 . S
C2585 H2562 0.950 . S
C2585 C2584 1.334 . S
C2585 C2586 1.287 . S
C2586 C2585 1.287 . S
C2586 C2587 1.524 . S
C2586 H2605 0.913 . S
C2587 H2563 0.950 . S
C2587 C2586 1.524 . S
C2587 C2588 1.415 . S
C2588 H2564 0.950 . S
C2588 C2583 1.363 . S
C2588 C2587 1.415 . S
C2589 H2565 0.951 . S
C2589 C2590 1.366 . S
C2589 C2591 1.388 . S
C2590 C2589 1.366 . S
C2590 C2594 1.385 1_545 S
C2591 H2566 0.951 . S
C2591 C2589 1.388 . S
C2591 C2592 1.366 . S
C2592 C2591 1.366 . S
C2592 C2593 1.414 1_545 S
C2592 C2595 1.499 . S
C2593 H2567 0.950 . S
C2593 C2592 1.414 1_565 S
C2593 C2594 1.374 . S
C2594 H2568 0.950 . S
C2594 C2590 1.385 1_565 S
C2594 C2593 1.374 . S
C2595 C2592 1.499 . S
C2595 C2596 1.373 . S
C2595 C2597 1.389 . S
C2596 H2569 0.950 . S
C2596 C2582 1.377 . S
C2596 C2595 1.373 . S
C2597 C2581 1.377 . S
C2597 C2595 1.389 . S
C2597 C2598 1.524 1_545 S
C2598 C2597 1.524 1_565 S
C2598 C2599 1.397 . S
C2598 C2603 1.363 . S
C2599 H2570 0.950 . S
C2599 C2598 1.397 . S
C2599 C2600 1.334 . S
C2600 H2571 0.950 . S
C2600 C2599 1.334 . S
C2600 C2601 1.287 . S
C2601 C2600 1.287 . S
C2601 C2602 1.524 . S
C2601 H2604 0.999 . S
C2602 H2572 0.950 . S
C2602 C2601 1.524 . S
C2602 C2603 1.415 . S
C2603 H2573 0.950 1_565 S
C2603 C2598 1.363 . S
C2603 C2602 1.415 . S
H2604 C2601 0.999 . S
H2605 C2586 0.913 . S
H2606 C2624 0.951 . S
H2607 C2626 0.951 . S
H2608 C2628 0.950 . S
H2609 C2629 0.950 . S
H2610 C2631 0.950 . S
H2611 C2634 0.950 . S
H2612 C2635 0.950 . S
H2613 C2637 0.950 . S
H2614 C2638 0.950 . S
H2615 C2639 0.951 . S
H2616 C2641 0.951 . S
H2617 C2643 0.950 . S
H2618 C2644 0.950 . S
H2619 C2646 0.950 . S
H2620 C2649 0.950 . S
H2621 C2650 0.950 . S
H2622 C2652 0.950 . S
H2623 C2653 0.950 . S
C2624 H2606 0.951 . S
C2624 C2625 1.366 . S
C2624 C2626 1.388 . S
C2625 C2624 1.366 . S
C2625 C2629 1.385 . S
C2626 H2607 0.951 . S
C2626 C2624 1.388 . S
C2626 C2627 1.366 . S
C2627 C2626 1.366 . S
C2627 C2628 1.414 . S
C2627 C2630 1.499 . S
C2628 H2608 0.950 . S
C2628 C2627 1.414 . S
C2628 C2629 1.374 . S
C2629 H2609 0.950 . S
C2629 C2625 1.385 . S
C2629 C2628 1.374 . S
C2630 C2627 1.499 . S
C2630 C2631 1.373 . S
C2630 C2632 1.389 . S
C2631 H2610 0.950 . S
C2631 C2630 1.373 . S
C2631 C2647 1.377 . S
C2632 C2630 1.389 . S
C2632 C2633 1.524 . S
C2632 C2646 1.377 . S
C2633 C2632 1.524 . S
C2633 C2634 1.397 . S
C2633 C2638 1.363 . S
C2634 H2611 0.950 . S
C2634 C2633 1.397 . S
C2634 C2635 1.334 . S
C2635 H2612 0.950 . S
C2635 C2634 1.334 . S
C2635 C2636 1.287 . S
C2636 C2635 1.287 . S
C2636 C2637 1.524 . S
C2636 H2655 0.913 . S
C2637 H2613 0.950 . S
C2637 C2636 1.524 . S
C2637 C2638 1.415 . S
C2638 H2614 0.950 . S
C2638 C2633 1.363 . S
C2638 C2637 1.415 . S
C2639 H2615 0.951 . S
C2639 C2640 1.366 . S
C2639 C2641 1.388 . S
C2640 C2639 1.366 . S
C2640 C2644 1.385 . S
C2641 H2616 0.951 . S
C2641 C2639 1.388 . S
C2641 C2642 1.366 . S
C2642 C2641 1.366 . S
C2642 C2643 1.414 . S
C2642 C2645 1.499 . S
C2643 H2617 0.950 . S
C2643 C2642 1.414 . S
C2643 C2644 1.374 . S
C2644 H2618 0.950 . S
C2644 C2640 1.385 . S
C2644 C2643 1.374 . S
C2645 C2642 1.499 . S
C2645 C2646 1.373 . S
C2645 C2647 1.389 . S
C2646 H2619 0.950 . S
C2646 C2632 1.377 . S
C2646 C2645 1.373 . S
C2647 C2631 1.377 . S
C2647 C2645 1.389 . S
C2647 C2648 1.524 . S
C2648 C2647 1.524 . S
C2648 C2649 1.397 . S
C2648 C2653 1.363 . S
C2649 H2620 0.950 . S
C2649 C2648 1.397 . S
C2649 C2650 1.334 . S
C2650 H2621 0.950 . S
C2650 C2649 1.334 . S
C2650 C2651 1.287 . S
C2651 C2650 1.287 . S
C2651 C2652 1.524 . S
C2651 H2654 0.999 . S
C2652 H2622 0.950 . S
C2652 C2651 1.524 . S
C2652 C2653 1.415 . S
C2653 H2623 0.950 . S
C2653 C2648 1.363 . S
C2653 C2652 1.415 . S
H2654 C2651 0.999 . S
H2655 C2636 0.913 . S
H2656 C2674 0.951 . S
H2657 C2676 0.951 . S
H2658 C2678 0.950 1_556 S
H2659 C2679 0.950 . S
H2660 C2681 0.950 . S
H2661 C2684 0.950 . S
H2662 C2685 0.950 . S
H2663 C2687 0.950 . S
H2664 C2688 0.950 . S
H2665 C2689 0.951 . S
H2666 C2691 0.951 . S
H2667 C2693 0.950 . S
H2668 C2694 0.950 . S
H2669 C2696 0.950 . S
H2670 C2699 0.950 . S
H2671 C2700 0.950 . S
H2672 C2702 0.950 . S
H2673 C2703 0.950 . S
C2674 H2656 0.951 . S
C2674 C2675 1.366 . S
C2674 C2676 1.388 . S
C2675 C2674 1.366 . S
C2675 C2679 1.385 . S
C2676 H2657 0.951 . S
C2676 C2674 1.388 . S
C2676 C2677 1.366 . S
C2677 C2676 1.366 . S
C2677 C2678 1.414 . S
C2677 C2680 1.499 . S
C2678 H2658 0.950 1_554 S
C2678 C2677 1.414 . S
C2678 C2679 1.374 . S
C2679 H2659 0.950 . S
C2679 C2675 1.385 . S
C2679 C2678 1.374 . S
C2680 C2677 1.499 . S
C2680 C2681 1.373 1_554 S
C2680 C2682 1.389 . S
C2681 H2660 0.950 . S
C2681 C2680 1.373 1_556 S
C2681 C2697 1.377 . S
C2682 C2680 1.389 . S
C2682 C2683 1.524 . S
C2682 C2696 1.377 . S
C2683 C2682 1.524 . S
C2683 C2684 1.397 . S
C2683 C2688 1.363 . S
C2684 H2661 0.950 . S
C2684 C2683 1.397 . S
C2684 C2685 1.334 . S
C2685 H2662 0.950 . S
C2685 C2684 1.334 . S
C2685 C2686 1.287 . S
C2686 C2685 1.287 . S
C2686 C2687 1.524 . S
C2686 H2705 0.913 . S
C2687 H2663 0.950 . S
C2687 C2686 1.524 . S
C2687 C2688 1.415 . S
C2688 H2664 0.950 . S
C2688 C2683 1.363 . S
C2688 C2687 1.415 . S
C2689 H2665 0.951 . S
C2689 C2690 1.366 1_556 S
C2689 C2691 1.388 . S
C2690 C2689 1.366 1_554 S
C2690 C2694 1.385 . S
C2691 H2666 0.951 . S
C2691 C2689 1.388 . S
C2691 C2692 1.366 1_556 S
C2692 C2691 1.366 1_554 S
C2692 C2693 1.414 . S
C2692 C2695 1.499 . S
C2693 H2667 0.950 . S
C2693 C2692 1.414 . S
C2693 C2694 1.374 . S
C2694 H2668 0.950 . S
C2694 C2690 1.385 . S
C2694 C2693 1.374 . S
C2695 C2692 1.499 . S
C2695 C2696 1.373 . S
C2695 C2697 1.389 1_554 S
C2696 H2669 0.950 . S
C2696 C2682 1.377 . S
C2696 C2695 1.373 . S
C2697 C2681 1.377 . S
C2697 C2695 1.389 1_556 S
C2697 C2698 1.524 . S
C2698 C2697 1.524 . S
C2698 C2699 1.397 . S
C2698 C2703 1.363 . S
C2699 H2670 0.950 . S
C2699 C2698 1.397 . S
C2699 C2700 1.334 . S
C2700 H2671 0.950 . S
C2700 C2699 1.334 . S
C2700 C2701 1.287 . S
C2701 C2700 1.287 . S
C2701 C2702 1.524 . S
C2701 H2704 0.999 . S
C2702 H2672 0.950 . S
C2702 C2701 1.524 . S
C2702 C2703 1.415 . S
C2703 H2673 0.950 . S
C2703 C2698 1.363 . S
C2703 C2702 1.415 . S
H2704 C2701 0.999 . S
H2705 C2686 0.913 . S
H2706 C2724 0.951 . S
H2707 C2726 0.951 . S
H2708 C2728 0.950 . S
H2709 C2729 0.950 . S
H2710 C2731 0.950 . S
H2711 C2734 0.950 . S
H2712 C2735 0.950 . S
H2713 C2737 0.950 . S
H2714 C2738 0.950 1_554 S
H2715 C2739 0.951 . S
H2716 C2741 0.951 . S
H2717 C2743 0.950 . S
H2718 C2744 0.950 . S
H2719 C2746 0.950 . S
H2720 C2749 0.950 . S
H2721 C2750 0.950 . S
H2722 C2752 0.950 . S
H2723 C2753 0.950 . S
C2724 H2706 0.951 . S
C2724 C2725 1.366 . S
C2724 C2726 1.388 . S
C2725 C2724 1.366 . S
C2725 C2729 1.385 . S
C2726 H2707 0.951 . S
C2726 C2724 1.388 . S
C2726 C2727 1.366 . S
C2727 C2726 1.366 . S
C2727 C2728 1.414 . S
C2727 C2730 1.499 . S
C2728 H2708 0.950 . S
C2728 C2727 1.414 . S
C2728 C2729 1.374 . S
C2729 H2709 0.950 . S
C2729 C2725 1.385 . S
C2729 C2728 1.374 . S
C2730 C2727 1.499 . S
C2730 C2731 1.373 . S
C2730 C2732 1.389 . S
C2731 H2710 0.950 . S
C2731 C2730 1.373 . S
C2731 C2747 1.377 . S
C2732 C2730 1.389 . S
C2732 C2733 1.524 . S
C2732 C2746 1.377 . S
C2733 C2732 1.524 . S
C2733 C2734 1.397 1_554 S
C2733 C2738 1.363 1_554 S
C2734 H2711 0.950 . S
C2734 C2733 1.397 1_556 S
C2734 C2735 1.334 . S
C2735 H2712 0.950 . S
C2735 C2734 1.334 . S
C2735 C2736 1.287 . S
C2736 C2735 1.287 . S
C2736 C2737 1.524 . S
C2736 H2755 0.913 . S
C2737 H2713 0.950 . S
C2737 C2736 1.524 . S
C2737 C2738 1.415 . S
C2738 H2714 0.950 1_556 S
C2738 C2733 1.363 1_556 S
C2738 C2737 1.415 . S
C2739 H2715 0.951 . S
C2739 C2740 1.366 . S
C2739 C2741 1.388 . S
C2740 C2739 1.366 . S
C2740 C2744 1.385 . S
C2741 H2716 0.951 . S
C2741 C2739 1.388 . S
C2741 C2742 1.366 . S
C2742 C2741 1.366 . S
C2742 C2743 1.414 . S
C2742 C2745 1.499 . S
C2743 H2717 0.950 . S
C2743 C2742 1.414 . S
C2743 C2744 1.374 . S
C2744 H2718 0.950 . S
C2744 C2740 1.385 . S
C2744 C2743 1.374 . S
C2745 C2742 1.499 . S
C2745 C2746 1.373 . S
C2745 C2747 1.389 . S
C2746 H2719 0.950 . S
C2746 C2732 1.377 . S
C2746 C2745 1.373 . S
C2747 C2731 1.377 . S
C2747 C2745 1.389 . S
C2747 C2748 1.524 . S
C2748 C2747 1.524 . S
C2748 C2749 1.397 . S
C2748 C2753 1.363 . S
C2749 H2720 0.950 . S
C2749 C2748 1.397 . S
C2749 C2750 1.334 . S
C2750 H2721 0.950 . S
C2750 C2749 1.334 . S
C2750 C2751 1.287 . S
C2751 C2750 1.287 . S
C2751 C2752 1.524 . S
C2751 H2754 0.999 . S
C2752 H2722 0.950 . S
C2752 C2751 1.524 . S
C2752 C2753 1.415 . S
C2753 H2723 0.950 . S
C2753 C2748 1.363 . S
C2753 C2752 1.415 . S
H2754 C2751 0.999 . S
H2755 C2736 0.913 . S
H2756 C2774 0.951 . S
H2757 C2776 0.951 . S
H2758 C2778 0.950 . S
H2759 C2779 0.950 . S
H2760 C2781 0.950 . S
H2761 C2784 0.950 . S
H2762 C2785 0.950 . S
H2763 C2787 0.950 . S
H2764 C2788 0.950 . S
H2765 C2789 0.951 . S
H2766 C2791 0.951 . S
H2767 C2793 0.950 . S
H2768 C2794 0.950 . S
H2769 C2796 0.950 . S
H2770 C2799 0.950 . S
H2771 C2800 0.950 . S
H2772 C2802 0.950 . S
H2773 C2803 0.950 . S
C2774 H2756 0.951 . S
C2774 C2775 1.366 . S
C2774 C2776 1.388 . S
C2775 C2774 1.366 . S
C2775 C2779 1.385 . S
C2776 H2757 0.951 . S
C2776 C2774 1.388 . S
C2776 C2777 1.366 . S
C2777 C2776 1.366 . S
C2777 C2778 1.414 . S
C2777 C2780 1.499 . S
C2778 H2758 0.950 . S
C2778 C2777 1.414 . S
C2778 C2779 1.374 . S
C2779 H2759 0.950 . S
C2779 C2775 1.385 . S
C2779 C2778 1.374 . S
C2780 C2777 1.499 . S
C2780 C2781 1.373 . S
C2780 C2782 1.389 . S
C2781 H2760 0.950 . S
C2781 C2780 1.373 . S
C2781 C2797 1.377 . S
C2782 C2780 1.389 . S
C2782 C2783 1.524 . S
C2782 C2796 1.377 . S
C2783 C2782 1.524 . S
C2783 C2784 1.397 . S
C2783 C2788 1.363 . S
C2784 H2761 0.950 . S
C2784 C2783 1.397 . S
C2784 C2785 1.334 . S
C2785 H2762 0.950 . S
C2785 C2784 1.334 . S
C2785 C2786 1.287 . S
C2786 C2785 1.287 . S
C2786 C2787 1.524 . S
C2786 H2805 0.913 . S
C2787 H2763 0.950 . S
C2787 C2786 1.524 . S
C2787 C2788 1.415 . S
C2788 H2764 0.950 . S
C2788 C2783 1.363 . S
C2788 C2787 1.415 . S
C2789 H2765 0.951 . S
C2789 C2790 1.366 . S
C2789 C2791 1.388 . S
C2790 C2789 1.366 . S
C2790 C2794 1.385 . S
C2791 H2766 0.951 . S
C2791 C2789 1.388 . S
C2791 C2792 1.366 . S
C2792 C2791 1.366 . S
C2792 C2793 1.414 . S
C2792 C2795 1.499 . S
C2793 H2767 0.950 . S
C2793 C2792 1.414 . S
C2793 C2794 1.374 . S
C2794 H2768 0.950 . S
C2794 C2790 1.385 . S
C2794 C2793 1.374 . S
C2795 C2792 1.499 . S
C2795 C2796 1.373 . S
C2795 C2797 1.389 . S
C2796 H2769 0.950 . S
C2796 C2782 1.377 . S
C2796 C2795 1.373 . S
C2797 C2781 1.377 . S
C2797 C2795 1.389 . S
C2797 C2798 1.524 . S
C2798 C2797 1.524 . S
C2798 C2799 1.397 . S
C2798 C2803 1.363 . S
C2799 H2770 0.950 . S
C2799 C2798 1.397 . S
C2799 C2800 1.334 . S
C2800 H2771 0.950 . S
C2800 C2799 1.334 . S
C2800 C2801 1.287 . S
C2801 C2800 1.287 . S
C2801 C2802 1.524 . S
C2801 H2804 0.999 . S
C2802 H2772 0.950 . S
C2802 C2801 1.524 . S
C2802 C2803 1.415 . S
C2803 H2773 0.950 . S
C2803 C2798 1.363 . S
C2803 C2802 1.415 . S
H2804 C2801 0.999 . S
H2805 C2786 0.913 . S
H2806 C2824 0.951 . S
H2807 C2826 0.951 . S
H2808 C2828 0.950 . S
H2809 C2829 0.950 . S
H2810 C2831 0.950 . S
H2811 C2834 0.950 . S
H2812 C2835 0.950 . S
H2813 C2837 0.950 . S
H2814 C2838 0.950 . S
H2815 C2839 0.951 . S
H2816 C2841 0.951 . S
H2817 C2843 0.950 . S
H2818 C2844 0.950 . S
H2819 C2846 0.950 . S
H2820 C2849 0.950 . S
H2821 C2850 0.950 . S
H2822 C2852 0.950 . S
H2823 C2853 0.950 . S
C2824 H2806 0.951 . S
C2824 C2825 1.366 . S
C2824 C2826 1.388 . S
C2825 C2824 1.366 . S
C2825 C2829 1.385 . S
C2826 H2807 0.951 . S
C2826 C2824 1.388 . S
C2826 C2827 1.366 . S
C2827 C2826 1.366 . S
C2827 C2828 1.414 . S
C2827 C2830 1.499 . S
C2828 H2808 0.950 . S
C2828 C2827 1.414 . S
C2828 C2829 1.374 . S
C2829 H2809 0.950 . S
C2829 C2825 1.385 . S
C2829 C2828 1.374 . S
C2830 C2827 1.499 . S
C2830 C2831 1.373 . S
C2830 C2832 1.389 . S
C2831 H2810 0.950 . S
C2831 C2830 1.373 . S
C2831 C2847 1.377 . S
C2832 C2830 1.389 . S
C2832 C2833 1.524 . S
C2832 C2846 1.377 . S
C2833 C2832 1.524 . S
C2833 C2834 1.397 . S
C2833 C2838 1.363 . S
C2834 H2811 0.950 . S
C2834 C2833 1.397 . S
C2834 C2835 1.334 . S
C2835 H2812 0.950 . S
C2835 C2834 1.334 . S
C2835 C2836 1.287 . S
C2836 C2835 1.287 . S
C2836 C2837 1.524 . S
C2836 H2855 0.913 . S
C2837 H2813 0.950 . S
C2837 C2836 1.524 . S
C2837 C2838 1.415 . S
C2838 H2814 0.950 . S
C2838 C2833 1.363 . S
C2838 C2837 1.415 . S
C2839 H2815 0.951 . S
C2839 C2840 1.366 . S
C2839 C2841 1.388 . S
C2840 C2839 1.366 . S
C2840 C2844 1.385 . S
C2841 H2816 0.951 . S
C2841 C2839 1.388 . S
C2841 C2842 1.366 . S
C2842 C2841 1.366 . S
C2842 C2843 1.414 . S
C2842 C2845 1.499 . S
C2843 H2817 0.950 . S
C2843 C2842 1.414 . S
C2843 C2844 1.374 . S
C2844 H2818 0.950 . S
C2844 C2840 1.385 . S
C2844 C2843 1.374 . S
C2845 C2842 1.499 . S
C2845 C2846 1.373 . S
C2845 C2847 1.389 . S
C2846 H2819 0.950 . S
C2846 C2832 1.377 . S
C2846 C2845 1.373 . S
C2847 C2831 1.377 . S
C2847 C2845 1.389 . S
C2847 C2848 1.524 . S
C2848 C2847 1.524 . S
C2848 C2849 1.397 . S
C2848 C2853 1.363 . S
C2849 H2820 0.950 . S
C2849 C2848 1.397 . S
C2849 C2850 1.334 . S
C2850 H2821 0.950 . S
C2850 C2849 1.334 . S
C2850 C2851 1.287 . S
C2851 C2850 1.287 . S
C2851 C2852 1.524 . S
C2851 H2854 0.999 . S
C2852 H2822 0.950 . S
C2852 C2851 1.524 . S
C2852 C2853 1.415 . S
C2853 H2823 0.950 . S
C2853 C2848 1.363 . S
C2853 C2852 1.415 . S
H2854 C2851 0.999 . S
H2855 C2836 0.913 . S
H2856 C2874 0.951 . S
H2857 C2876 0.951 . S
H2858 C2878 0.950 . S
H2859 C2879 0.950 . S
H2860 C2881 0.950 . S
H2861 C2884 0.950 . S
H2862 C2885 0.950 . S
H2863 C2887 0.950 . S
H2864 C2888 0.950 . S
H2865 C2889 0.951 . S
H2866 C2891 0.951 . S
H2867 C2893 0.950 . S
H2868 C2894 0.950 . S
H2869 C2896 0.950 . S
H2870 C2899 0.950 . S
H2871 C2900 0.950 . S
H2872 C2902 0.950 . S
H2873 C2903 0.950 . S
C2874 H2856 0.951 . S
C2874 C2875 1.366 . S
C2874 C2876 1.388 . S
C2875 C2874 1.366 . S
C2875 C2879 1.385 . S
C2876 H2857 0.951 . S
C2876 C2874 1.388 . S
C2876 C2877 1.366 . S
C2877 C2876 1.366 . S
C2877 C2878 1.414 . S
C2877 C2880 1.499 . S
C2878 H2858 0.950 . S
C2878 C2877 1.414 . S
C2878 C2879 1.374 . S
C2879 H2859 0.950 . S
C2879 C2875 1.385 . S
C2879 C2878 1.374 . S
C2880 C2877 1.499 . S
C2880 C2881 1.373 . S
C2880 C2882 1.389 . S
C2881 H2860 0.950 . S
C2881 C2880 1.373 . S
C2881 C2897 1.377 . S
C2882 C2880 1.389 . S
C2882 C2883 1.524 . S
C2882 C2896 1.377 . S
C2883 C2882 1.524 . S
C2883 C2884 1.397 . S
C2883 C2888 1.363 . S
C2884 H2861 0.950 . S
C2884 C2883 1.397 . S
C2884 C2885 1.334 . S
C2885 H2862 0.950 . S
C2885 C2884 1.334 . S
C2885 C2886 1.287 . S
C2886 C2885 1.287 . S
C2886 C2887 1.524 . S
C2886 H2905 0.913 . S
C2887 H2863 0.950 . S
C2887 C2886 1.524 . S
C2887 C2888 1.415 . S
C2888 H2864 0.950 . S
C2888 C2883 1.363 . S
C2888 C2887 1.415 . S
C2889 H2865 0.951 . S
C2889 C2890 1.366 . S
C2889 C2891 1.388 . S
C2890 C2889 1.366 . S
C2890 C2894 1.385 . S
C2891 H2866 0.951 . S
C2891 C2889 1.388 . S
C2891 C2892 1.366 . S
C2892 C2891 1.366 . S
C2892 C2893 1.414 . S
C2892 C2895 1.499 . S
C2893 H2867 0.950 . S
C2893 C2892 1.414 . S
C2893 C2894 1.374 . S
C2894 H2868 0.950 . S
C2894 C2890 1.385 . S
C2894 C2893 1.374 . S
C2895 C2892 1.499 . S
C2895 C2896 1.373 . S
C2895 C2897 1.389 . S
C2896 H2869 0.950 . S
C2896 C2882 1.377 . S
C2896 C2895 1.373 . S
C2897 C2881 1.377 . S
C2897 C2895 1.389 . S
C2897 C2898 1.524 . S
C2898 C2897 1.524 . S
C2898 C2899 1.397 . S
C2898 C2903 1.363 . S
C2899 H2870 0.950 . S
C2899 C2898 1.397 . S
C2899 C2900 1.334 . S
C2900 H2871 0.950 . S
C2900 C2899 1.334 . S
C2900 C2901 1.287 . S
C2901 C2900 1.287 . S
C2901 C2902 1.524 . S
C2901 H2904 0.999 . S
C2902 H2872 0.950 . S
C2902 C2901 1.524 . S
C2902 C2903 1.415 . S
C2903 H2873 0.950 . S
C2903 C2898 1.363 . S
C2903 C2902 1.415 . S
H2904 C2901 0.999 . S
H2905 C2886 0.913 . S
H2906 C2924 0.951 . S
H2907 C2926 0.951 . S
H2908 C2928 0.950 . S
H2909 C2929 0.950 . S
H2910 C2931 0.950 . S
H2911 C2934 0.950 . S
H2912 C2935 0.950 . S
H2913 C2937 0.950 . S
H2914 C2938 0.950 . S
H2915 C2939 0.951 . S
H2916 C2941 0.951 . S
H2917 C2943 0.950 . S
H2918 C2944 0.950 . S
H2919 C2946 0.950 . S
H2920 C2949 0.950 . S
H2921 C2950 0.950 . S
H2922 C2952 0.950 . S
H2923 C2953 0.950 . S
C2924 H2906 0.951 . S
C2924 C2925 1.366 . S
C2924 C2926 1.388 . S
C2925 C2924 1.366 . S
C2925 C2929 1.385 . S
C2926 H2907 0.951 . S
C2926 C2924 1.388 . S
C2926 C2927 1.366 . S
C2927 C2926 1.366 . S
C2927 C2928 1.414 . S
C2927 C2930 1.499 . S
C2928 H2908 0.950 . S
C2928 C2927 1.414 . S
C2928 C2929 1.374 . S
C2929 H2909 0.950 . S
C2929 C2925 1.385 . S
C2929 C2928 1.374 . S
C2930 C2927 1.499 . S
C2930 C2931 1.373 . S
C2930 C2932 1.389 . S
C2931 H2910 0.950 . S
C2931 C2930 1.373 . S
C2931 C2947 1.377 . S
C2932 C2930 1.389 . S
C2932 C2933 1.524 . S
C2932 C2946 1.377 . S
C2933 C2932 1.524 . S
C2933 C2934 1.397 . S
C2933 C2938 1.363 . S
C2934 H2911 0.950 . S
C2934 C2933 1.397 . S
C2934 C2935 1.334 . S
C2935 H2912 0.950 . S
C2935 C2934 1.334 . S
C2935 C2936 1.287 . S
C2936 C2935 1.287 . S
C2936 C2937 1.524 . S
C2936 H2955 0.913 . S
C2937 H2913 0.950 . S
C2937 C2936 1.524 . S
C2937 C2938 1.415 . S
C2938 H2914 0.950 . S
C2938 C2933 1.363 . S
C2938 C2937 1.415 . S
C2939 H2915 0.951 . S
C2939 C2940 1.366 . S
C2939 C2941 1.388 . S
C2940 C2939 1.366 . S
C2940 C2944 1.385 . S
C2941 H2916 0.951 . S
C2941 C2939 1.388 . S
C2941 C2942 1.366 . S
C2942 C2941 1.366 . S
C2942 C2943 1.414 . S
C2942 C2945 1.499 . S
C2943 H2917 0.950 . S
C2943 C2942 1.414 . S
C2943 C2944 1.374 . S
C2944 H2918 0.950 . S
C2944 C2940 1.385 . S
C2944 C2943 1.374 . S
C2945 C2942 1.499 . S
C2945 C2946 1.373 . S
C2945 C2947 1.389 . S
C2946 H2919 0.950 . S
C2946 C2932 1.377 . S
C2946 C2945 1.373 . S
C2947 C2931 1.377 . S
C2947 C2945 1.389 . S
C2947 C2948 1.524 . S
C2948 C2947 1.524 . S
C2948 C2949 1.397 . S
C2948 C2953 1.363 . S
C2949 H2920 0.950 . S
C2949 C2948 1.397 . S
C2949 C2950 1.334 1_565 S
C2950 H2921 0.950 . S
C2950 C2949 1.334 1_545 S
C2950 C2951 1.287 . S
C2951 C2950 1.287 . S
C2951 C2952 1.524 . S
C2951 H2954 0.999 . S
C2952 H2922 0.950 . S
C2952 C2951 1.524 . S
C2952 C2953 1.415 1_545 S
C2953 H2923 0.950 . S
C2953 C2948 1.363 . S
C2953 C2952 1.415 1_565 S
H2954 C2951 0.999 . S
H2955 C2936 0.913 . S
H2956 C2974 0.951 . S
H2957 C2976 0.951 . S
H2958 C2978 0.950 . S
H2959 C2979 0.950 . S
H2960 C2981 0.950 . S
H2961 C2984 0.950 . S
H2962 C2985 0.950 . S
H2963 C2987 0.950 . S
H2964 C2988 0.950 . S
H2965 C2989 0.951 . S
H2966 C2991 0.951 . S
H2967 C2993 0.950 . S
H2968 C2994 0.950 . S
H2969 C2996 0.950 . S
H2970 C2999 0.950 . S
H2971 C3000 0.950 . S
H2972 C3002 0.950 . S
H2973 C3003 0.950 . S
C2974 H2956 0.951 . S
C2974 C2975 1.366 . S
C2974 C2976 1.388 . S
C2975 C2974 1.366 . S
C2975 C2979 1.385 . S
C2976 H2957 0.951 . S
C2976 C2974 1.388 . S
C2976 C2977 1.366 . S
C2977 C2976 1.366 . S
C2977 C2978 1.414 . S
C2977 C2980 1.499 . S
C2978 H2958 0.950 . S
C2978 C2977 1.414 . S
C2978 C2979 1.374 . S
C2979 H2959 0.950 . S
C2979 C2975 1.385 . S
C2979 C2978 1.374 . S
C2980 C2977 1.499 . S
C2980 C2981 1.373 . S
C2980 C2982 1.389 . S
C2981 H2960 0.950 . S
C2981 C2980 1.373 . S
C2981 C2997 1.377 . S
C2982 C2980 1.389 . S
C2982 C2983 1.524 . S
C2982 C2996 1.377 . S
C2983 C2982 1.524 . S
C2983 C2984 1.397 . S
C2983 C2988 1.363 . S
C2984 H2961 0.950 . S
C2984 C2983 1.397 . S
C2984 C2985 1.334 . S
C2985 H2962 0.950 . S
C2985 C2984 1.334 . S
C2985 C2986 1.287 . S
C2986 C2985 1.287 . S
C2986 C2987 1.524 . S
C2986 H3005 0.913 . S
C2987 H2963 0.950 . S
C2987 C2986 1.524 . S
C2987 C2988 1.415 . S
C2988 H2964 0.950 . S
C2988 C2983 1.363 . S
C2988 C2987 1.415 . S
C2989 H2965 0.951 . S
C2989 C2990 1.366 . S
C2989 C2991 1.388 . S
C2990 C2989 1.366 . S
C2990 C2994 1.385 . S
C2991 H2966 0.951 . S
C2991 C2989 1.388 . S
C2991 C2992 1.366 . S
C2992 C2991 1.366 . S
C2992 C2993 1.414 . S
C2992 C2995 1.499 . S
C2993 H2967 0.950 . S
C2993 C2992 1.414 . S
C2993 C2994 1.374 . S
C2994 H2968 0.950 . S
C2994 C2990 1.385 . S
C2994 C2993 1.374 . S
C2995 C2992 1.499 . S
C2995 C2996 1.373 . S
C2995 C2997 1.389 . S
C2996 H2969 0.950 . S
C2996 C2982 1.377 . S
C2996 C2995 1.373 . S
C2997 C2981 1.377 . S
C2997 C2995 1.389 . S
C2997 C2998 1.524 . S
C2998 C2997 1.524 . S
C2998 C2999 1.397 . S
C2998 C3003 1.363 . S
C2999 H2970 0.950 . S
C2999 C2998 1.397 . S
C2999 C3000 1.334 . S
C3000 H2971 0.950 . S
C3000 C2999 1.334 . S
C3000 C3001 1.287 . S
C3001 C3000 1.287 . S
C3001 C3002 1.524 . S
C3001 H3004 0.999 . S
C3002 H2972 0.950 . S
C3002 C3001 1.524 . S
C3002 C3003 1.415 . S
C3003 H2973 0.950 . S
C3003 C2998 1.363 . S
C3003 C3002 1.415 . S
H3004 C3001 0.999 . S
H3005 C2986 0.913 . S
H3006 C3024 0.951 . S
H3007 C3026 0.951 . S
H3008 C3028 0.950 . S
H3009 C3029 0.950 . S
H3010 C3031 0.950 . S
H3011 C3034 0.950 . S
H3012 C3035 0.950 . S
H3013 C3037 0.950 . S
H3014 C3038 0.950 . S
H3015 C3039 0.951 . S
H3016 C3041 0.951 . S
H3017 C3043 0.950 . S
H3018 C3044 0.950 . S
H3019 C3046 0.950 . S
H3020 C3049 0.950 . S
H3021 C3050 0.950 . S
H3022 C3052 0.950 . S
H3023 C3053 0.950 . S
C3024 H3006 0.951 . S
C3024 C3025 1.366 . S
C3024 C3026 1.388 . S
C3025 C3024 1.366 . S
C3025 C3029 1.385 . S
C3026 H3007 0.951 . S
C3026 C3024 1.388 . S
C3026 C3027 1.366 . S
C3027 C3026 1.366 . S
C3027 C3028 1.414 . S
C3027 C3030 1.499 . S
C3028 H3008 0.950 . S
C3028 C3027 1.414 . S
C3028 C3029 1.374 . S
C3029 H3009 0.950 . S
C3029 C3025 1.385 . S
C3029 C3028 1.374 . S
C3030 C3027 1.499 . S
C3030 C3031 1.373 . S
C3030 C3032 1.389 . S
C3031 H3010 0.950 . S
C3031 C3030 1.373 . S
C3031 C3047 1.377 . S
C3032 C3030 1.389 . S
C3032 C3033 1.524 . S
C3032 C3046 1.377 . S
C3033 C3032 1.524 . S
C3033 C3034 1.397 . S
C3033 C3038 1.363 . S
C3034 H3011 0.950 . S
C3034 C3033 1.397 . S
C3034 C3035 1.334 . S
C3035 H3012 0.950 . S
C3035 C3034 1.334 . S
C3035 C3036 1.287 . S
C3036 C3035 1.287 . S
C3036 C3037 1.524 . S
C3036 H3055 0.913 . S
C3037 H3013 0.950 . S
C3037 C3036 1.524 . S
C3037 C3038 1.415 . S
C3038 H3014 0.950 . S
C3038 C3033 1.363 . S
C3038 C3037 1.415 . S
C3039 H3015 0.951 . S
C3039 C3040 1.366 . S
C3039 C3041 1.388 . S
C3040 C3039 1.366 . S
C3040 C3044 1.385 . S
C3041 H3016 0.951 . S
C3041 C3039 1.388 . S
C3041 C3042 1.366 . S
C3042 C3041 1.366 . S
C3042 C3043 1.414 . S
C3042 C3045 1.499 . S
C3043 H3017 0.950 . S
C3043 C3042 1.414 . S
C3043 C3044 1.374 . S
C3044 H3018 0.950 . S
C3044 C3040 1.385 . S
C3044 C3043 1.374 . S
C3045 C3042 1.499 . S
C3045 C3046 1.373 . S
C3045 C3047 1.389 . S
C3046 H3019 0.950 . S
C3046 C3032 1.377 . S
C3046 C3045 1.373 . S
C3047 C3031 1.377 . S
C3047 C3045 1.389 . S
C3047 C3048 1.524 . S
C3048 C3047 1.524 . S
C3048 C3049 1.397 . S
C3048 C3053 1.363 . S
C3049 H3020 0.950 . S
C3049 C3048 1.397 . S
C3049 C3050 1.334 . S
C3050 H3021 0.950 . S
C3050 C3049 1.334 . S
C3050 C3051 1.287 . S
C3051 C3050 1.287 . S
C3051 C3052 1.524 . S
C3051 H3054 0.999 . S
C3052 H3022 0.950 . S
C3052 C3051 1.524 . S
C3052 C3053 1.415 . S
C3053 H3023 0.950 . S
C3053 C3048 1.363 . S
C3053 C3052 1.415 . S
H3054 C3051 0.999 . S
H3055 C3036 0.913 . S
H3056 C3074 0.951 . S
H3057 C3076 0.951 . S
H3058 C3078 0.950 . S
H3059 C3079 0.950 . S
H3060 C3081 0.950 . S
H3061 C3084 0.950 . S
H3062 C3085 0.950 . S
H3063 C3087 0.950 . S
H3064 C3088 0.950 . S
H3065 C3089 0.951 . S
H3066 C3091 0.951 . S
H3067 C3093 0.950 . S
H3068 C3094 0.950 . S
H3069 C3096 0.950 . S
H3070 C3099 0.950 . S
H3071 C3100 0.950 . S
H3072 C3102 0.950 . S
H3073 C3103 0.950 . S
C3074 H3056 0.951 . S
C3074 C3075 1.366 . S
C3074 C3076 1.388 . S
C3075 C3074 1.366 . S
C3075 C3079 1.385 . S
C3076 H3057 0.951 . S
C3076 C3074 1.388 . S
C3076 C3077 1.366 . S
C3077 C3076 1.366 . S
C3077 C3078 1.414 . S
C3077 C3080 1.499 . S
C3078 H3058 0.950 . S
C3078 C3077 1.414 . S
C3078 C3079 1.374 . S
C3079 H3059 0.950 . S
C3079 C3075 1.385 . S
C3079 C3078 1.374 . S
C3080 C3077 1.499 . S
C3080 C3081 1.373 . S
C3080 C3082 1.389 . S
C3081 H3060 0.950 . S
C3081 C3080 1.373 . S
C3081 C3097 1.377 . S
C3082 C3080 1.389 . S
C3082 C3083 1.524 . S
C3082 C3096 1.377 . S
C3083 C3082 1.524 . S
C3083 C3084 1.397 . S
C3083 C3088 1.363 . S
C3084 H3061 0.950 . S
C3084 C3083 1.397 . S
C3084 C3085 1.334 . S
C3085 H3062 0.950 . S
C3085 C3084 1.334 . S
C3085 C3086 1.287 . S
C3086 C3085 1.287 . S
C3086 C3087 1.524 . S
C3086 H3105 0.913 . S
C3087 H3063 0.950 . S
C3087 C3086 1.524 . S
C3087 C3088 1.415 . S
C3088 H3064 0.950 . S
C3088 C3083 1.363 . S
C3088 C3087 1.415 . S
C3089 H3065 0.951 . S
C3089 C3090 1.366 . S
C3089 C3091 1.388 . S
C3090 C3089 1.366 . S
C3090 C3094 1.385 . S
C3091 H3066 0.951 . S
C3091 C3089 1.388 . S
C3091 C3092 1.366 . S
C3092 C3091 1.366 . S
C3092 C3093 1.414 . S
C3092 C3095 1.499 . S
C3093 H3067 0.950 . S
C3093 C3092 1.414 . S
C3093 C3094 1.374 . S
C3094 H3068 0.950 . S
C3094 C3090 1.385 . S
C3094 C3093 1.374 . S
C3095 C3092 1.499 . S
C3095 C3096 1.373 . S
C3095 C3097 1.389 . S
C3096 H3069 0.950 . S
C3096 C3082 1.377 . S
C3096 C3095 1.373 . S
C3097 C3081 1.377 . S
C3097 C3095 1.389 . S
C3097 C3098 1.524 . S
C3098 C3097 1.524 . S
C3098 C3099 1.397 . S
C3098 C3103 1.363 . S
C3099 H3070 0.950 . S
C3099 C3098 1.397 . S
C3099 C3100 1.334 . S
C3100 H3071 0.950 . S
C3100 C3099 1.334 . S
C3100 C3101 1.287 . S
C3101 C3100 1.287 . S
C3101 C3102 1.524 . S
C3101 H3104 0.999 . S
C3102 H3072 0.950 . S
C3102 C3101 1.524 . S
C3102 C3103 1.415 . S
C3103 H3073 0.950 . S
C3103 C3098 1.363 . S
C3103 C3102 1.415 . S
H3104 C3101 0.999 . S
H3105 C3086 0.913 . S
H3106 C3124 0.951 . S
H3107 C3126 0.951 . S
H3108 C3128 0.950 . S
H3109 C3129 0.950 . S
H3110 C3131 0.950 . S
H3111 C3134 0.950 . S
H3112 C3135 0.950 . S
H3113 C3137 0.950 . S
H3114 C3138 0.950 . S
H3115 C3139 0.951 . S
H3116 C3141 0.951 . S
H3117 C3143 0.950 . S
H3118 C3144 0.950 . S
H3119 C3146 0.950 . S
H3120 C3149 0.950 . S
H3121 C3150 0.950 . S
H3122 C3152 0.950 . S
H3123 C3153 0.950 . S
C3124 H3106 0.951 . S
C3124 C3125 1.366 . S
C3124 C3126 1.388 . S
C3125 C3124 1.366 . S
C3125 C3129 1.385 . S
C3126 H3107 0.951 . S
C3126 C3124 1.388 . S
C3126 C3127 1.366 . S
C3127 C3126 1.366 . S
C3127 C3128 1.414 . S
C3127 C3130 1.499 . S
C3128 H3108 0.950 . S
C3128 C3127 1.414 . S
C3128 C3129 1.374 . S
C3129 H3109 0.950 . S
C3129 C3125 1.385 . S
C3129 C3128 1.374 . S
C3130 C3127 1.499 . S
C3130 C3131 1.373 . S
C3130 C3132 1.389 . S
C3131 H3110 0.950 . S
C3131 C3130 1.373 . S
C3131 C3147 1.377 . S
C3132 C3130 1.389 . S
C3132 C3133 1.524 . S
C3132 C3146 1.377 . S
C3133 C3132 1.524 . S
C3133 C3134 1.397 . S
C3133 C3138 1.363 . S
C3134 H3111 0.950 . S
C3134 C3133 1.397 . S
C3134 C3135 1.334 . S
C3135 H3112 0.950 . S
C3135 C3134 1.334 . S
C3135 C3136 1.287 . S
C3136 C3135 1.287 . S
C3136 C3137 1.524 . S
C3136 H3155 0.913 . S
C3137 H3113 0.950 . S
C3137 C3136 1.524 . S
C3137 C3138 1.415 . S
C3138 H3114 0.950 . S
C3138 C3133 1.363 . S
C3138 C3137 1.415 . S
C3139 H3115 0.951 . S
C3139 C3140 1.366 . S
C3139 C3141 1.388 . S
C3140 C3139 1.366 . S
C3140 C3144 1.385 . S
C3141 H3116 0.951 . S
C3141 C3139 1.388 . S
C3141 C3142 1.366 . S
C3142 C3141 1.366 . S
C3142 C3143 1.414 . S
C3142 C3145 1.499 . S
C3143 H3117 0.950 . S
C3143 C3142 1.414 . S
C3143 C3144 1.374 . S
C3144 H3118 0.950 . S
C3144 C3140 1.385 . S
C3144 C3143 1.374 . S
C3145 C3142 1.499 . S
C3145 C3146 1.373 . S
C3145 C3147 1.389 . S
C3146 H3119 0.950 . S
C3146 C3132 1.377 . S
C3146 C3145 1.373 . S
C3147 C3131 1.377 . S
C3147 C3145 1.389 . S
C3147 C3148 1.524 . S
C3148 C3147 1.524 . S
C3148 C3149 1.397 . S
C3148 C3153 1.363 . S
C3149 H3120 0.950 . S
C3149 C3148 1.397 . S
C3149 C3150 1.334 . S
C3150 H3121 0.950 . S
C3150 C3149 1.334 . S
C3150 C3151 1.287 . S
C3151 C3150 1.287 . S
C3151 C3152 1.524 . S
C3151 H3154 0.999 . S
C3152 H3122 0.950 . S
C3152 C3151 1.524 . S
C3152 C3153 1.415 . S
C3153 H3123 0.950 . S
C3153 C3148 1.363 . S
C3153 C3152 1.415 . S
H3154 C3151 0.999 . S
H3155 C3136 0.913 . S
H3156 C3174 0.951 . S
H3157 C3176 0.951 . S
H3158 C3178 0.950 . S
H3159 C3179 0.950 . S
H3160 C3181 0.950 . S
H3161 C3184 0.950 . S
H3162 C3185 0.950 . S
H3163 C3187 0.950 . S
H3164 C3188 0.950 . S
H3165 C3189 0.951 . S
H3166 C3191 0.951 . S
H3167 C3193 0.968 . S
H3168 C3194 0.950 . S
H3169 C3196 0.950 . S
H3170 C3199 0.950 1_554 S
H3171 C3200 0.950 . S
H3172 C3202 0.950 . S
H3173 C3203 0.950 . S
C3174 H3156 0.951 . S
C3174 C3175 1.366 1_655 S
C3174 C3176 1.388 . S
C3175 C3174 1.366 1_455 S
C3175 C3179 1.385 . S
C3176 H3157 0.951 . S
C3176 C3174 1.388 . S
C3176 C3177 1.366 1_655 S
C3177 C3176 1.366 1_455 S
C3177 C3178 1.414 . S
C3177 C3180 1.499 . S
C3178 H3158 0.950 . S
C3178 C3177 1.414 . S
C3178 C3179 1.374 . S
C3179 H3159 0.950 . S
C3179 C3175 1.385 . S
C3179 C3178 1.374 . S
C3180 C3177 1.499 . S
C3180 C3181 1.373 . S
C3180 C3182 1.389 1_455 S
C3181 H3160 0.950 . S
C3181 C3180 1.373 . S
C3181 C3197 1.377 . S
C3182 C3180 1.389 1_655 S
C3182 C3183 1.524 . S
C3182 C3196 1.377 . S
C3183 C3182 1.524 . S
C3183 C3184 1.397 . S
C3183 C3188 1.363 . S
C3184 H3161 0.950 . S
C3184 C3183 1.397 . S
C3184 C3185 1.334 . S
C3185 H3162 0.950 . S
C3185 C3184 1.334 . S
C3185 C3186 1.287 . S
C3186 C3185 1.287 . S
C3186 C3187 1.524 . S
C3186 H3205 0.913 . S
C3187 H3163 0.950 . S
C3187 C3186 1.524 . S
C3187 C3188 1.415 . S
C3188 H3164 0.950 . S
C3188 C3183 1.363 . S
C3188 C3187 1.415 . S
C3189 H3165 0.951 . S
C3189 C3190 1.348 1_556 S
C3189 C3191 1.388 . S
C3190 C3189 1.348 1_554 S
C3190 C3194 1.393 1_455 S
C3191 H3166 0.951 . S
C3191 C3189 1.388 . S
C3191 C3192 1.366 . S
C3192 C3191 1.366 . S
C3192 C3193 1.414 1_455 S
C3192 C3195 1.499 . S
C3193 H3167 0.968 . S
C3193 C3192 1.414 1_655 S
C3193 C3194 1.374 1_556 S
C3194 H3168 0.950 . S
C3194 C3190 1.393 1_655 S
C3194 C3193 1.374 1_554 S
C3195 C3192 1.499 . S
C3195 C3196 1.373 1_455 S
C3195 C3197 1.389 . S
C3196 H3169 0.950 . S
C3196 C3182 1.377 . S
C3196 C3195 1.373 1_655 S
C3197 C3181 1.377 . S
C3197 C3195 1.389 . S
C3197 C3198 1.524 . S
C3198 C3197 1.524 . S
C3198 C3199 1.397 . S
C3198 C3203 1.363 . S
C3199 H3170 0.950 1_556 S
C3199 C3198 1.397 . S
C3199 C3200 1.334 1_556 S
C3200 H3171 0.950 . S
C3200 C3199 1.334 1_554 S
C3200 C3201 1.287 1_554 S
C3201 C3200 1.287 1_556 S
C3201 C3202 1.524 . S
C3201 H3204 0.999 1_556 S
C3202 H3172 0.950 . S
C3202 C3201 1.524 . S
C3202 C3203 1.415 . S
C3203 H3173 0.950 . S
C3203 C3198 1.363 . S
C3203 C3202 1.415 . S
H3204 C3201 0.999 1_554 S
H3205 C3186 0.913 . S
H3206 C3224 0.951 . S
H3207 C3226 0.951 . S
H3208 C3228 0.950 . S
H3209 C3229 0.950 . S
H3210 C3231 0.950 . S
H3211 C3234 0.950 . S
H3212 C3235 0.950 . S
H3213 C3237 0.950 . S
H3214 C3238 0.950 . S
H3215 C3239 0.951 . S
H3216 C3241 0.951 . S
H3217 C3243 0.950 . S
H3218 C3244 0.950 . S
H3219 C3246 0.950 . S
H3220 C3249 0.950 . S
H3221 C3250 0.950 . S
H3222 C3252 0.950 . S
H3223 C3253 0.950 . S
C3224 H3206 0.951 . S
C3224 C3225 1.366 . S
C3224 C3226 1.388 . S
C3225 C3224 1.366 . S
C3225 C3229 1.385 . S
C3226 H3207 0.951 . S
C3226 C3224 1.388 . S
C3226 C3227 1.366 . S
C3227 C3226 1.366 . S
C3227 C3228 1.414 . S
C3227 C3230 1.499 . S
C3228 H3208 0.950 . S
C3228 C3227 1.414 . S
C3228 C3229 1.374 . S
C3229 H3209 0.950 . S
C3229 C3225 1.385 . S
C3229 C3228 1.374 . S
C3230 C3227 1.499 . S
C3230 C3231 1.373 . S
C3230 C3232 1.389 . S
C3231 H3210 0.950 . S
C3231 C3230 1.373 . S
C3231 C3247 1.377 . S
C3232 C3230 1.389 . S
C3232 C3233 1.524 . S
C3232 C3246 1.377 . S
C3233 C3232 1.524 . S
C3233 C3234 1.397 . S
C3233 C3238 1.363 . S
C3234 H3211 0.950 . S
C3234 C3233 1.397 . S
C3234 C3235 1.334 . S
C3235 H3212 0.950 . S
C3235 C3234 1.334 . S
C3235 C3236 1.287 . S
C3236 C3235 1.287 . S
C3236 C3237 1.524 . S
C3236 H3255 0.913 . S
C3237 H3213 0.950 . S
C3237 C3236 1.524 . S
C3237 C3238 1.415 . S
C3238 H3214 0.950 . S
C3238 C3233 1.363 . S
C3238 C3237 1.415 . S
C3239 H3215 0.951 . S
C3239 C3240 1.366 . S
C3239 C3241 1.388 . S
C3240 C3239 1.366 . S
C3240 C3244 1.385 . S
C3241 H3216 0.951 . S
C3241 C3239 1.388 . S
C3241 C3242 1.366 . S
C3242 C3241 1.366 . S
C3242 C3243 1.414 . S
C3242 C3245 1.499 . S
C3243 H3217 0.950 . S
C3243 C3242 1.414 . S
C3243 C3244 1.374 . S
C3244 H3218 0.950 . S
C3244 C3240 1.385 . S
C3244 C3243 1.374 . S
C3245 C3242 1.499 . S
C3245 C3246 1.373 . S
C3245 C3247 1.389 . S
C3246 H3219 0.950 . S
C3246 C3232 1.377 . S
C3246 C3245 1.373 . S
C3247 C3231 1.377 . S
C3247 C3245 1.389 . S
C3247 C3248 1.524 . S
C3248 C3247 1.524 . S
C3248 C3249 1.397 . S
C3248 C3253 1.363 . S
C3249 H3220 0.950 . S
C3249 C3248 1.397 . S
C3249 C3250 1.334 . S
C3250 H3221 0.950 . S
C3250 C3249 1.334 . S
C3250 C3251 1.287 . S
C3251 C3250 1.287 . S
C3251 C3252 1.524 . S
C3251 H3254 0.999 . S
C3252 H3222 0.950 . S
C3252 C3251 1.524 . S
C3252 C3253 1.415 . S
C3253 H3223 0.950 . S
C3253 C3248 1.363 . S
C3253 C3252 1.415 . S
H3254 C3251 0.999 . S
H3255 C3236 0.913 . S
H3256 C3274 0.951 . S
H3257 C3276 0.951 . S
H3258 C3278 0.950 . S
H3259 C3279 0.950 . S
H3260 C3281 0.950 . S
H3261 C3284 0.950 . S
H3262 C3285 0.950 . S
H3263 C3287 0.950 . S
H3264 C3288 0.950 . S
H3265 C3289 0.951 . S
H3266 C3291 0.951 . S
H3267 C3293 0.950 . S
H3268 C3294 0.950 . S
H3269 C3296 0.950 . S
H3270 C3299 0.950 . S
H3271 C3300 0.950 . S
H3272 C3302 0.950 . S
H3273 C3303 0.950 . S
C3274 H3256 0.951 . S
C3274 C3275 1.366 . S
C3274 C3276 1.388 . S
C3275 C3274 1.366 . S
C3275 C3279 1.385 . S
C3276 H3257 0.951 . S
C3276 C3274 1.388 . S
C3276 C3277 1.366 . S
C3277 C3276 1.366 . S
C3277 C3278 1.414 . S
C3277 C3280 1.499 . S
C3278 H3258 0.950 . S
C3278 C3277 1.414 . S
C3278 C3279 1.374 . S
C3279 H3259 0.950 . S
C3279 C3275 1.385 . S
C3279 C3278 1.374 . S
C3280 C3277 1.499 . S
C3280 C3281 1.373 . S
C3280 C3282 1.389 . S
C3281 H3260 0.950 . S
C3281 C3280 1.373 . S
C3281 C3297 1.377 . S
C3282 C3280 1.389 . S
C3282 C3283 1.524 . S
C3282 C3296 1.377 . S
C3283 C3282 1.524 . S
C3283 C3284 1.397 . S
C3283 C3288 1.363 . S
C3284 H3261 0.950 . S
C3284 C3283 1.397 . S
C3284 C3285 1.334 . S
C3285 H3262 0.950 . S
C3285 C3284 1.334 . S
C3285 C3286 1.287 . S
C3286 C3285 1.287 . S
C3286 C3287 1.524 . S
C3286 H3305 0.913 . S
C3287 H3263 0.950 . S
C3287 C3286 1.524 . S
C3287 C3288 1.415 . S
C3288 H3264 0.950 . S
C3288 C3283 1.363 . S
C3288 C3287 1.415 . S
C3289 H3265 0.951 . S
C3289 C3290 1.366 . S
C3289 C3291 1.388 . S
C3290 C3289 1.366 . S
C3290 C3294 1.385 . S
C3291 H3266 0.951 . S
C3291 C3289 1.388 . S
C3291 C3292 1.366 . S
C3292 C3291 1.366 . S
C3292 C3293 1.414 . S
C3292 C3295 1.499 . S
C3293 H3267 0.950 . S
C3293 C3292 1.414 . S
C3293 C3294 1.374 . S
C3294 H3268 0.950 . S
C3294 C3290 1.385 . S
C3294 C3293 1.374 . S
C3295 C3292 1.499 . S
C3295 C3296 1.373 . S
C3295 C3297 1.389 . S
C3296 H3269 0.950 . S
C3296 C3282 1.377 . S
C3296 C3295 1.373 . S
C3297 C3281 1.377 . S
C3297 C3295 1.389 . S
C3297 C3298 1.524 . S
C3298 C3297 1.524 . S
C3298 C3299 1.397 . S
C3298 C3303 1.363 . S
C3299 H3270 0.950 . S
C3299 C3298 1.397 . S
C3299 C3300 1.334 . S
C3300 H3271 0.950 . S
C3300 C3299 1.334 . S
C3300 C3301 1.287 . S
C3301 C3300 1.287 . S
C3301 C3302 1.524 . S
C3301 H3304 0.999 . S
C3302 H3272 0.950 . S
C3302 C3301 1.524 . S
C3302 C3303 1.415 . S
C3303 H3273 0.950 . S
C3303 C3298 1.363 . S
C3303 C3302 1.415 . S
H3304 C3301 0.999 . S
H3305 C3286 0.913 . S
H3306 C3324 0.951 . S
H3307 C3326 0.951 . S
H3308 C3328 0.950 . S
H3309 C3329 0.950 . S
H3310 C3331 0.950 . S
H3311 C3334 0.950 . S
H3312 C3335 0.950 . S
H3313 C3337 0.950 . S
H3314 C3338 0.950 . S
H3315 C3339 0.951 . S
H3316 C3341 0.951 . S
H3317 C3343 0.950 . S
H3318 C3344 0.950 . S
H3319 C3346 0.950 . S
H3320 C3349 0.950 . S
H3321 C3350 0.950 . S
H3322 C3352 0.950 . S
H3323 C3353 0.950 . S
C3324 H3306 0.951 . S
C3324 C3325 1.366 . S
C3324 C3326 1.388 . S
C3325 C3324 1.366 . S
C3325 C3329 1.385 . S
C3326 H3307 0.951 . S
C3326 C3324 1.388 . S
C3326 C3327 1.366 . S
C3327 C3326 1.366 . S
C3327 C3328 1.414 . S
C3327 C3330 1.499 . S
C3328 H3308 0.950 . S
C3328 C3327 1.414 . S
C3328 C3329 1.374 . S
C3329 H3309 0.950 . S
C3329 C3325 1.385 . S
C3329 C3328 1.374 . S
C3330 C3327 1.499 . S
C3330 C3331 1.373 . S
C3330 C3332 1.389 . S
C3331 H3310 0.950 . S
C3331 C3330 1.373 . S
C3331 C3347 1.377 . S
C3332 C3330 1.389 . S
C3332 C3333 1.524 . S
C3332 C3346 1.377 . S
C3333 C3332 1.524 . S
C3333 C3334 1.397 . S
C3333 C3338 1.363 . S
C3334 H3311 0.950 . S
C3334 C3333 1.397 . S
C3334 C3335 1.334 . S
C3335 H3312 0.950 . S
C3335 C3334 1.334 . S
C3335 C3336 1.287 . S
C3336 C3335 1.287 . S
C3336 C3337 1.524 . S
C3336 H3355 0.913 . S
C3337 H3313 0.950 . S
C3337 C3336 1.524 . S
C3337 C3338 1.415 . S
C3338 H3314 0.950 . S
C3338 C3333 1.363 . S
C3338 C3337 1.415 . S
C3339 H3315 0.951 . S
C3339 C3340 1.366 . S
C3339 C3341 1.388 . S
C3340 C3339 1.366 . S
C3340 C3344 1.385 . S
C3341 H3316 0.951 . S
C3341 C3339 1.388 . S
C3341 C3342 1.366 . S
C3342 C3341 1.366 . S
C3342 C3343 1.414 . S
C3342 C3345 1.499 . S
C3343 H3317 0.950 . S
C3343 C3342 1.414 . S
C3343 C3344 1.374 . S
C3344 H3318 0.950 . S
C3344 C3340 1.385 . S
C3344 C3343 1.374 . S
C3345 C3342 1.499 . S
C3345 C3346 1.373 . S
C3345 C3347 1.389 . S
C3346 H3319 0.950 . S
C3346 C3332 1.377 . S
C3346 C3345 1.373 . S
C3347 C3331 1.377 . S
C3347 C3345 1.389 . S
C3347 C3348 1.524 . S
C3348 C3347 1.524 . S
C3348 C3349 1.397 . S
C3348 C3353 1.363 . S
C3349 H3320 0.950 . S
C3349 C3348 1.397 . S
C3349 C3350 1.334 . S
C3350 H3321 0.950 . S
C3350 C3349 1.334 . S
C3350 C3351 1.287 . S
C3351 C3350 1.287 . S
C3351 C3352 1.524 . S
C3351 H3354 0.999 . S
C3352 H3322 0.950 . S
C3352 C3351 1.524 . S
C3352 C3353 1.415 . S
C3353 H3323 0.950 . S
C3353 C3348 1.363 . S
C3353 C3352 1.415 . S
H3354 C3351 0.999 . S
H3355 C3336 0.913 . S
H3356 C3374 0.951 . S
H3357 C3376 0.951 . S
H3358 C3378 0.950 . S
H3359 C3379 0.950 . S
H3360 C3381 0.950 . S
H3361 C3384 0.950 . S
H3362 C3385 0.950 . S
H3363 C3387 0.950 . S
H3364 C3388 0.950 . S
H3365 C3389 0.951 . S
H3366 C3391 0.951 . S
H3367 C3393 0.950 . S
H3368 C3394 0.950 . S
H3369 C3396 0.950 . S
H3370 C3399 0.950 . S
H3371 C3400 0.950 . S
H3372 C3402 0.950 . S
H3373 C3403 0.950 . S
C3374 H3356 0.951 . S
C3374 C3375 1.366 . S
C3374 C3376 1.388 . S
C3375 C3374 1.366 . S
C3375 C3379 1.385 . S
C3376 H3357 0.951 . S
C3376 C3374 1.388 . S
C3376 C3377 1.366 . S
C3377 C3376 1.366 . S
C3377 C3378 1.414 . S
C3377 C3380 1.499 . S
C3378 H3358 0.950 . S
C3378 C3377 1.414 . S
C3378 C3379 1.374 . S
C3379 H3359 0.950 . S
C3379 C3375 1.385 . S
C3379 C3378 1.374 . S
C3380 C3377 1.499 . S
C3380 C3381 1.373 . S
C3380 C3382 1.389 1_455 S
C3381 H3360 0.950 . S
C3381 C3380 1.373 . S
C3381 C3397 1.377 . S
C3382 C3380 1.389 1_655 S
C3382 C3383 1.524 . S
C3382 C3396 1.377 . S
C3383 C3382 1.524 . S
C3383 C3384 1.397 . S
C3383 C3388 1.363 . S
C3384 H3361 0.950 . S
C3384 C3383 1.397 . S
C3384 C3385 1.334 . S
C3385 H3362 0.950 . S
C3385 C3384 1.334 . S
C3385 C3386 1.287 . S
C3386 C3385 1.287 . S
C3386 C3387 1.524 . S
C3386 H3405 0.913 . S
C3387 H3363 0.950 . S
C3387 C3386 1.524 . S
C3387 C3388 1.415 . S
C3388 H3364 0.950 . S
C3388 C3383 1.363 . S
C3388 C3387 1.415 . S
C3389 H3365 0.951 . S
C3389 C3390 1.366 . S
C3389 C3391 1.388 . S
C3390 C3389 1.366 . S
C3390 C3394 1.385 . S
C3391 H3366 0.951 . S
C3391 C3389 1.388 . S
C3391 C3392 1.366 . S
C3392 C3391 1.366 . S
C3392 C3393 1.414 . S
C3392 C3395 1.499 . S
C3393 H3367 0.950 . S
C3393 C3392 1.414 . S
C3393 C3394 1.374 . S
C3394 H3368 0.950 . S
C3394 C3390 1.385 . S
C3394 C3393 1.374 . S
C3395 C3392 1.499 . S
C3395 C3396 1.373 1_455 S
C3395 C3397 1.389 . S
C3396 H3369 0.950 . S
C3396 C3382 1.377 . S
C3396 C3395 1.373 1_655 S
C3397 C3381 1.377 . S
C3397 C3395 1.389 . S
C3397 C3398 1.524 . S
C3398 C3397 1.524 . S
C3398 C3399 1.397 . S
C3398 C3403 1.363 . S
C3399 H3370 0.950 . S
C3399 C3398 1.397 . S
C3399 C3400 1.334 . S
C3400 H3371 0.950 . S
C3400 C3399 1.334 . S
C3400 C3401 1.287 . S
C3401 C3400 1.287 . S
C3401 C3402 1.524 . S
C3401 H3404 0.999 . S
C3402 H3372 0.950 . S
C3402 C3401 1.524 . S
C3402 C3403 1.415 . S
C3403 H3373 0.950 . S
C3403 C3398 1.363 . S
C3403 C3402 1.415 . S
H3404 C3401 0.999 . S
H3405 C3386 0.913 . S
H3406 C3424 0.951 . S
H3407 C3426 0.951 . S
H3408 C3428 0.950 . S
H3409 C3429 0.950 . S
H3410 C3431 0.950 . S
H3411 C3434 0.950 . S
H3412 C3435 0.950 . S
H3413 C3437 0.950 . S
H3414 C3438 0.950 . S
H3415 C3439 0.951 . S
H3416 C3441 0.951 . S
H3417 C3443 0.950 . S
H3418 C3444 0.950 . S
H3419 C3446 0.950 . S
H3420 C3449 0.950 . S
H3421 C3450 0.950 . S
H3422 C3452 0.950 . S
H3423 C3453 0.950 . S
C3424 H3406 0.951 . S
C3424 C3425 1.366 . S
C3424 C3426 1.388 . S
C3425 C3424 1.366 . S
C3425 C3429 1.385 . S
C3426 H3407 0.951 . S
C3426 C3424 1.388 . S
C3426 C3427 1.366 . S
C3427 C3426 1.366 . S
C3427 C3428 1.414 . S
C3427 C3430 1.499 . S
C3428 H3408 0.950 . S
C3428 C3427 1.414 . S
C3428 C3429 1.374 . S
C3429 H3409 0.950 . S
C3429 C3425 1.385 . S
C3429 C3428 1.374 . S
C3430 C3427 1.499 . S
C3430 C3431 1.373 . S
C3430 C3432 1.389 . S
C3431 H3410 0.950 . S
C3431 C3430 1.373 . S
C3431 C3447 1.377 . S
C3432 C3430 1.389 . S
C3432 C3433 1.524 . S
C3432 C3446 1.377 . S
C3433 C3432 1.524 . S
C3433 C3434 1.397 . S
C3433 C3438 1.363 . S
C3434 H3411 0.950 . S
C3434 C3433 1.397 . S
C3434 C3435 1.334 . S
C3435 H3412 0.950 . S
C3435 C3434 1.334 . S
C3435 C3436 1.287 . S
C3436 C3435 1.287 . S
C3436 C3437 1.524 . S
C3436 H3455 0.913 . S
C3437 H3413 0.950 . S
C3437 C3436 1.524 . S
C3437 C3438 1.415 . S
C3438 H3414 0.950 . S
C3438 C3433 1.363 . S
C3438 C3437 1.415 . S
C3439 H3415 0.951 . S
C3439 C3440 1.366 . S
C3439 C3441 1.388 . S
C3440 C3439 1.366 . S
C3440 C3444 1.385 . S
C3441 H3416 0.951 . S
C3441 C3439 1.388 . S
C3441 C3442 1.366 . S
C3442 C3441 1.366 . S
C3442 C3443 1.414 . S
C3442 C3445 1.499 . S
C3443 H3417 0.950 . S
C3443 C3442 1.414 . S
C3443 C3444 1.374 . S
C3444 H3418 0.950 . S
C3444 C3440 1.385 . S
C3444 C3443 1.374 . S
C3445 C3442 1.499 . S
C3445 C3446 1.373 . S
C3445 C3447 1.389 . S
C3446 H3419 0.950 . S
C3446 C3432 1.377 . S
C3446 C3445 1.373 . S
C3447 C3431 1.377 . S
C3447 C3445 1.389 . S
C3447 C3448 1.524 . S
C3448 C3447 1.524 . S
C3448 C3449 1.397 . S
C3448 C3453 1.363 . S
C3449 H3420 0.950 . S
C3449 C3448 1.397 . S
C3449 C3450 1.334 . S
C3450 H3421 0.950 . S
C3450 C3449 1.334 . S
C3450 C3451 1.287 . S
C3451 C3450 1.287 . S
C3451 C3452 1.524 . S
C3451 H3454 0.999 . S
C3452 H3422 0.950 . S
C3452 C3451 1.524 . S
C3452 C3453 1.415 . S
C3453 H3423 0.950 . S
C3453 C3448 1.363 . S
C3453 C3452 1.415 . S
H3454 C3451 0.999 . S
H3455 C3436 0.913 . S
H3456 C3474 0.951 . S
H3457 C3476 0.951 . S
H3458 C3478 0.950 . S
H3459 C3479 0.950 . S
H3460 C3481 0.950 . S
H3461 C3484 0.950 . S
H3462 C3485 0.950 . S
H3463 C3487 0.950 . S
H3464 C3488 0.950 . S
H3465 C3489 0.951 . S
H3466 C3491 0.951 . S
H3467 C3493 0.950 . S
H3468 C3494 0.950 . S
H3469 C3496 0.950 . S
H3470 C3499 0.950 . S
H3471 C3500 0.950 . S
H3472 C3502 0.950 . S
H3473 C3503 0.950 . S
C3474 H3456 0.951 . S
C3474 C3475 1.366 . S
C3474 C3476 1.388 . S
C3475 C3474 1.366 . S
C3475 C3479 1.385 . S
C3476 H3457 0.951 . S
C3476 C3474 1.388 . S
C3476 C3477 1.366 . S
C3477 C3476 1.366 . S
C3477 C3478 1.414 . S
C3477 C3480 1.499 . S
C3478 H3458 0.950 . S
C3478 C3477 1.414 . S
C3478 C3479 1.374 . S
C3479 H3459 0.950 . S
C3479 C3475 1.385 . S
C3479 C3478 1.374 . S
C3480 C3477 1.499 . S
C3480 C3481 1.373 . S
C3480 C3482 1.389 . S
C3481 H3460 0.950 . S
C3481 C3480 1.373 . S
C3481 C3497 1.377 . S
C3482 C3480 1.389 . S
C3482 C3483 1.524 . S
C3482 C3496 1.377 . S
C3483 C3482 1.524 . S
C3483 C3484 1.397 . S
C3483 C3488 1.363 . S
C3484 H3461 0.950 . S
C3484 C3483 1.397 . S
C3484 C3485 1.334 . S
C3485 H3462 0.950 . S
C3485 C3484 1.334 . S
C3485 C3486 1.287 . S
C3486 C3485 1.287 . S
C3486 C3487 1.524 . S
C3486 H3505 0.913 . S
C3487 H3463 0.950 . S
C3487 C3486 1.524 . S
C3487 C3488 1.415 . S
C3488 H3464 0.950 . S
C3488 C3483 1.363 . S
C3488 C3487 1.415 . S
C3489 H3465 0.951 . S
C3489 C3490 1.366 . S
C3489 C3491 1.388 . S
C3490 C3489 1.366 . S
C3490 C3494 1.385 . S
C3491 H3466 0.951 . S
C3491 C3489 1.388 . S
C3491 C3492 1.366 . S
C3492 C3491 1.366 . S
C3492 C3493 1.414 . S
C3492 C3495 1.499 . S
C3493 H3467 0.950 . S
C3493 C3492 1.414 . S
C3493 C3494 1.374 . S
C3494 H3468 0.950 . S
C3494 C3490 1.385 . S
C3494 C3493 1.374 . S
C3495 C3492 1.499 . S
C3495 C3496 1.373 . S
C3495 C3497 1.389 . S
C3496 H3469 0.950 . S
C3496 C3482 1.377 . S
C3496 C3495 1.373 . S
C3497 C3481 1.377 . S
C3497 C3495 1.389 . S
C3497 C3498 1.524 . S
C3498 C3497 1.524 . S
C3498 C3499 1.397 . S
C3498 C3503 1.363 . S
C3499 H3470 0.950 . S
C3499 C3498 1.397 . S
C3499 C3500 1.334 . S
C3500 H3471 0.950 . S
C3500 C3499 1.334 . S
C3500 C3501 1.287 . S
C3501 C3500 1.287 . S
C3501 C3502 1.524 . S
C3501 H3504 0.999 . S
C3502 H3472 0.950 . S
C3502 C3501 1.524 . S
C3502 C3503 1.415 . S
C3503 H3473 0.950 . S
C3503 C3498 1.363 . S
C3503 C3502 1.415 . S
H3504 C3501 0.999 . S
H3505 C3486 0.913 . S
H3506 C3524 0.951 . S
H3507 C3526 0.951 . S
H3508 C3528 0.950 . S
H3509 C3529 0.950 . S
H3510 C3531 0.950 . S
H3511 C3534 0.950 . S
H3512 C3535 0.950 . S
H3513 C3537 0.950 . S
H3514 C3538 0.950 . S
H3515 C3539 0.951 . S
H3516 C3541 0.951 . S
H3517 C3543 0.950 . S
H3518 C3544 0.950 . S
H3519 C3546 0.950 . S
H3520 C3549 0.950 . S
H3521 C3550 0.950 . S
H3522 C3552 0.950 . S
H3523 C3553 0.950 . S
C3524 H3506 0.951 . S
C3524 C3525 1.366 . S
C3524 C3526 1.388 . S
C3525 C3524 1.366 . S
C3525 C3529 1.385 . S
C3526 H3507 0.951 . S
C3526 C3524 1.388 . S
C3526 C3527 1.366 . S
C3527 C3526 1.366 . S
C3527 C3528 1.414 . S
C3527 C3530 1.499 . S
C3528 H3508 0.950 . S
C3528 C3527 1.414 . S
C3528 C3529 1.374 . S
C3529 H3509 0.950 . S
C3529 C3525 1.385 . S
C3529 C3528 1.374 . S
C3530 C3527 1.499 . S
C3530 C3531 1.373 . S
C3530 C3532 1.389 . S
C3531 H3510 0.950 . S
C3531 C3530 1.373 . S
C3531 C3547 1.377 . S
C3532 C3530 1.389 . S
C3532 C3533 1.524 . S
C3532 C3546 1.377 . S
C3533 C3532 1.524 . S
C3533 C3534 1.397 . S
C3533 C3538 1.363 . S
C3534 H3511 0.950 . S
C3534 C3533 1.397 . S
C3534 C3535 1.334 . S
C3535 H3512 0.950 . S
C3535 C3534 1.334 . S
C3535 C3536 1.287 . S
C3536 C3535 1.287 . S
C3536 C3537 1.524 . S
C3536 H3555 0.913 . S
C3537 H3513 0.950 . S
C3537 C3536 1.524 . S
C3537 C3538 1.415 . S
C3538 H3514 0.950 . S
C3538 C3533 1.363 . S
C3538 C3537 1.415 . S
C3539 H3515 0.951 . S
C3539 C3540 1.366 . S
C3539 C3541 1.388 . S
C3540 C3539 1.366 . S
C3540 C3544 1.385 . S
C3541 H3516 0.951 . S
C3541 C3539 1.388 . S
C3541 C3542 1.366 . S
C3542 C3541 1.366 . S
C3542 C3543 1.414 . S
C3542 C3545 1.499 . S
C3543 H3517 0.950 . S
C3543 C3542 1.414 . S
C3543 C3544 1.374 . S
C3544 H3518 0.950 . S
C3544 C3540 1.385 . S
C3544 C3543 1.374 . S
C3545 C3542 1.499 . S
C3545 C3546 1.373 . S
C3545 C3547 1.389 . S
C3546 H3519 0.950 . S
C3546 C3532 1.377 . S
C3546 C3545 1.373 . S
C3547 C3531 1.377 . S
C3547 C3545 1.389 . S
C3547 C3548 1.524 . S
C3548 C3547 1.524 . S
C3548 C3549 1.397 . S
C3548 C3553 1.363 . S
C3549 H3520 0.950 . S
C3549 C3548 1.397 . S
C3549 C3550 1.334 . S
C3550 H3521 0.950 . S
C3550 C3549 1.334 . S
C3550 C3551 1.287 . S
C3551 C3550 1.287 . S
C3551 C3552 1.524 . S
C3551 H3554 0.999 . S
C3552 H3522 0.950 . S
C3552 C3551 1.524 . S
C3552 C3553 1.415 . S
C3553 H3523 0.950 . S
C3553 C3548 1.363 . S
C3553 C3552 1.415 . S
H3554 C3551 0.999 . S
H3555 C3536 0.913 . S
H3556 C3574 0.951 . S
H3557 C3576 0.951 . S
H3558 C3578 0.950 . S
H3559 C3579 0.950 . S
H3560 C3581 0.950 . S
H3561 C3584 0.950 . S
H3562 C3585 0.950 . S
H3563 C3587 0.950 . S
H3564 C3588 0.950 . S
H3565 C3589 0.951 . S
H3566 C3591 0.951 . S
H3567 C3593 0.950 . S
H3568 C3594 0.950 . S
H3569 C3596 0.950 . S
H3570 C3599 0.950 . S
H3571 C3600 0.950 . S
H3572 C3602 0.950 1_655 S
H3573 C3603 0.950 . S
C3574 H3556 0.951 . S
C3574 C3575 1.366 . S
C3574 C3576 1.388 . S
C3575 C3574 1.366 . S
C3575 C3579 1.385 . S
C3576 H3557 0.951 . S
C3576 C3574 1.388 . S
C3576 C3577 1.366 . S
C3577 C3576 1.366 . S
C3577 C3578 1.414 . S
C3577 C3580 1.499 . S
C3578 H3558 0.950 . S
C3578 C3577 1.414 . S
C3578 C3579 1.374 . S
C3579 H3559 0.950 . S
C3579 C3575 1.385 . S
C3579 C3578 1.374 . S
C3580 C3577 1.499 . S
C3580 C3581 1.373 . S
C3580 C3582 1.389 . S
C3581 H3560 0.950 . S
C3581 C3580 1.373 . S
C3581 C3597 1.377 . S
C3582 C3580 1.389 . S
C3582 C3583 1.524 . S
C3582 C3596 1.377 . S
C3583 C3582 1.524 . S
C3583 C3584 1.397 . S
C3583 C3588 1.363 . S
C3584 H3561 0.950 . S
C3584 C3583 1.397 . S
C3584 C3585 1.334 . S
C3585 H3562 0.950 . S
C3585 C3584 1.334 . S
C3585 C3586 1.287 . S
C3586 C3585 1.287 . S
C3586 C3587 1.524 . S
C3586 H3605 0.913 . S
C3587 H3563 0.950 . S
C3587 C3586 1.524 . S
C3587 C3588 1.415 . S
C3588 H3564 0.950 . S
C3588 C3583 1.363 . S
C3588 C3587 1.415 . S
C3589 H3565 0.951 . S
C3589 C3590 1.366 . S
C3589 C3591 1.388 . S
C3590 C3589 1.366 . S
C3590 C3594 1.385 . S
C3591 H3566 0.951 . S
C3591 C3589 1.388 . S
C3591 C3592 1.366 . S
C3592 C3591 1.366 . S
C3592 C3593 1.414 . S
C3592 C3595 1.499 . S
C3593 H3567 0.950 . S
C3593 C3592 1.414 . S
C3593 C3594 1.374 . S
C3594 H3568 0.950 . S
C3594 C3590 1.385 . S
C3594 C3593 1.374 . S
C3595 C3592 1.499 . S
C3595 C3596 1.373 . S
C3595 C3597 1.389 . S
C3596 H3569 0.950 . S
C3596 C3582 1.377 . S
C3596 C3595 1.373 . S
C3597 C3581 1.377 . S
C3597 C3595 1.389 . S
C3597 C3598 1.524 . S
C3598 C3597 1.524 . S
C3598 C3599 1.397 . S
C3598 C3603 1.363 . S
C3599 H3570 0.950 . S
C3599 C3598 1.397 . S
C3599 C3600 1.334 . S
C3600 H3571 0.950 . S
C3600 C3599 1.334 . S
C3600 C3601 1.287 . S
C3601 C3600 1.287 . S
C3601 C3602 1.524 . S
C3601 H3604 0.999 1_455 S
C3602 H3572 0.950 1_455 S
C3602 C3601 1.524 . S
C3602 C3603 1.415 . S
C3603 H3573 0.950 . S
C3603 C3598 1.363 . S
C3603 C3602 1.415 . S
H3604 C3601 0.999 1_655 S
H3605 C3586 0.913 . S
H3606 C3624 0.951 . S
H3607 C3626 0.951 . S
H3608 C3628 0.950 . S
H3609 C3629 0.950 . S
H3610 C3631 0.950 . S
H3611 C3634 0.950 . S
H3612 C3635 0.950 . S
H3613 C3637 0.950 . S
H3614 C3638 0.950 . S
H3615 C3639 0.951 . S
H3616 C3641 0.951 . S
H3617 C3643 0.950 . S
H3618 C3644 0.950 . S
H3619 C3646 0.950 . S
H3620 C3649 0.950 . S
H3621 C3650 0.950 . S
H3622 C3652 0.950 . S
H3623 C3653 0.950 . S
C3624 H3606 0.951 . S
C3624 C3625 1.366 . S
C3624 C3626 1.388 . S
C3625 C3624 1.366 . S
C3625 C3629 1.385 . S
C3626 H3607 0.951 . S
C3626 C3624 1.388 . S
C3626 C3627 1.366 . S
C3627 C3626 1.366 . S
C3627 C3628 1.414 . S
C3627 C3630 1.499 . S
C3628 H3608 0.950 . S
C3628 C3627 1.414 . S
C3628 C3629 1.374 . S
C3629 H3609 0.950 . S
C3629 C3625 1.385 . S
C3629 C3628 1.374 . S
C3630 C3627 1.499 . S
C3630 C3631 1.373 . S
C3630 C3632 1.389 . S
C3631 H3610 0.950 . S
C3631 C3630 1.373 . S
C3631 C3647 1.377 . S
C3632 C3630 1.389 . S
C3632 C3633 1.524 . S
C3632 C3646 1.377 . S
C3633 C3632 1.524 . S
C3633 C3634 1.397 . S
C3633 C3638 1.363 . S
C3634 H3611 0.950 . S
C3634 C3633 1.397 . S
C3634 C3635 1.334 . S
C3635 H3612 0.950 . S
C3635 C3634 1.334 . S
C3635 C3636 1.287 . S
C3636 C3635 1.287 . S
C3636 C3637 1.524 . S
C3636 H3655 0.913 . S
C3637 H3613 0.950 . S
C3637 C3636 1.524 . S
C3637 C3638 1.415 . S
C3638 H3614 0.950 . S
C3638 C3633 1.363 . S
C3638 C3637 1.415 . S
C3639 H3615 0.951 . S
C3639 C3640 1.366 . S
C3639 C3641 1.388 . S
C3640 C3639 1.366 . S
C3640 C3644 1.385 . S
C3641 H3616 0.951 . S
C3641 C3639 1.388 . S
C3641 C3642 1.366 . S
C3642 C3641 1.366 . S
C3642 C3643 1.414 . S
C3642 C3645 1.499 . S
C3643 H3617 0.950 . S
C3643 C3642 1.414 . S
C3643 C3644 1.374 . S
C3644 H3618 0.950 . S
C3644 C3640 1.385 . S
C3644 C3643 1.374 . S
C3645 C3642 1.499 . S
C3645 C3646 1.373 . S
C3645 C3647 1.389 . S
C3646 H3619 0.950 . S
C3646 C3632 1.377 . S
C3646 C3645 1.373 . S
C3647 C3631 1.377 . S
C3647 C3645 1.389 . S
C3647 C3648 1.524 . S
C3648 C3647 1.524 . S
C3648 C3649 1.397 . S
C3648 C3653 1.363 . S
C3649 H3620 0.950 . S
C3649 C3648 1.397 . S
C3649 C3650 1.334 . S
C3650 H3621 0.950 . S
C3650 C3649 1.334 . S
C3650 C3651 1.287 . S
C3651 C3650 1.287 . S
C3651 C3652 1.524 . S
C3651 H3654 0.999 . S
C3652 H3622 0.950 . S
C3652 C3651 1.524 . S
C3652 C3653 1.415 . S
C3653 H3623 0.950 . S
C3653 C3648 1.363 . S
C3653 C3652 1.415 . S
H3654 C3651 0.999 . S
H3655 C3636 0.913 . S
H3656 C3674 0.951 . S
H3657 C3676 0.951 . S
H3658 C3678 0.950 . S
H3659 C3679 0.950 . S
H3660 C3681 0.950 . S
H3661 C3684 0.950 . S
H3662 C3685 0.950 . S
H3663 C3687 0.950 . S
H3664 C3688 0.950 . S
H3665 C3689 0.951 . S
H3666 C3691 0.951 . S
H3667 C3693 0.950 . S
H3668 C3694 0.950 . S
H3669 C3696 0.950 . S
H3670 C3699 0.950 . S
H3671 C3700 0.950 . S
H3672 C3702 0.950 . S
H3673 C3703 0.950 . S
C3674 H3656 0.951 . S
C3674 C3675 1.366 . S
C3674 C3676 1.388 . S
C3675 C3674 1.366 . S
C3675 C3679 1.385 . S
C3676 H3657 0.951 . S
C3676 C3674 1.388 . S
C3676 C3677 1.366 . S
C3677 C3676 1.366 . S
C3677 C3678 1.414 . S
C3677 C3680 1.499 . S
C3678 H3658 0.950 . S
C3678 C3677 1.414 . S
C3678 C3679 1.374 . S
C3679 H3659 0.950 . S
C3679 C3675 1.385 . S
C3679 C3678 1.374 . S
C3680 C3677 1.499 . S
C3680 C3681 1.373 . S
C3680 C3682 1.389 . S
C3681 H3660 0.950 . S
C3681 C3680 1.373 . S
C3681 C3697 1.377 . S
C3682 C3680 1.389 . S
C3682 C3683 1.524 . S
C3682 C3696 1.377 . S
C3683 C3682 1.524 . S
C3683 C3684 1.397 . S
C3683 C3688 1.363 . S
C3684 H3661 0.950 . S
C3684 C3683 1.397 . S
C3684 C3685 1.334 . S
C3685 H3662 0.950 . S
C3685 C3684 1.334 . S
C3685 C3686 1.287 . S
C3686 C3685 1.287 . S
C3686 C3687 1.524 . S
C3686 H3705 0.913 . S
C3687 H3663 0.950 . S
C3687 C3686 1.524 . S
C3687 C3688 1.415 . S
C3688 H3664 0.950 . S
C3688 C3683 1.363 . S
C3688 C3687 1.415 . S
C3689 H3665 0.951 . S
C3689 C3690 1.366 . S
C3689 C3691 1.388 . S
C3690 C3689 1.366 . S
C3690 C3694 1.385 . S
C3691 H3666 0.951 . S
C3691 C3689 1.388 . S
C3691 C3692 1.366 . S
C3692 C3691 1.366 . S
C3692 C3693 1.414 . S
C3692 C3695 1.499 . S
C3693 H3667 0.950 . S
C3693 C3692 1.414 . S
C3693 C3694 1.374 . S
C3694 H3668 0.950 . S
C3694 C3690 1.385 . S
C3694 C3693 1.374 . S
C3695 C3692 1.499 . S
C3695 C3696 1.373 . S
C3695 C3697 1.389 . S
C3696 H3669 0.950 . S
C3696 C3682 1.377 . S
C3696 C3695 1.373 . S
C3697 C3681 1.377 . S
C3697 C3695 1.389 . S
C3697 C3698 1.524 . S
C3698 C3697 1.524 . S
C3698 C3699 1.397 . S
C3698 C3703 1.363 . S
C3699 H3670 0.950 . S
C3699 C3698 1.397 . S
C3699 C3700 1.334 . S
C3700 H3671 0.950 . S
C3700 C3699 1.334 . S
C3700 C3701 1.287 . S
C3701 C3700 1.287 . S
C3701 C3702 1.524 . S
C3701 H3704 0.999 . S
C3702 H3672 0.950 . S
C3702 C3701 1.524 . S
C3702 C3703 1.415 . S
C3703 H3673 0.950 . S
C3703 C3698 1.363 . S
C3703 C3702 1.415 . S
H3704 C3701 0.999 . S
H3705 C3686 0.913 . S
H3706 C3724 0.951 . S
H3707 C3726 0.951 . S
H3708 C3728 0.950 . S
H3709 C3729 0.950 . S
H3710 C3731 0.950 . S
H3711 C3734 0.950 . S
H3712 C3735 0.950 . S
H3713 C3737 0.950 . S
H3714 C3738 0.950 . S
H3715 C3739 0.951 . S
H3716 C3741 0.951 . S
H3717 C3743 0.950 . S
H3718 C3744 0.950 . S
H3719 C3746 0.950 . S
H3720 C3749 0.950 . S
H3721 C3750 0.950 . S
H3722 C3752 0.950 . S
H3723 C3753 0.950 . S
C3724 H3706 0.951 . S
C3724 C3725 1.366 . S
C3724 C3726 1.388 . S
C3725 C3724 1.366 . S
C3725 C3729 1.385 . S
C3726 H3707 0.951 . S
C3726 C3724 1.388 . S
C3726 C3727 1.366 . S
C3727 C3726 1.366 . S
C3727 C3728 1.414 . S
C3727 C3730 1.499 . S
C3728 H3708 0.950 . S
C3728 C3727 1.414 . S
C3728 C3729 1.374 . S
C3729 H3709 0.950 . S
C3729 C3725 1.385 . S
C3729 C3728 1.374 . S
C3730 C3727 1.499 . S
C3730 C3731 1.373 . S
C3730 C3732 1.389 . S
C3731 H3710 0.950 . S
C3731 C3730 1.373 . S
C3731 C3747 1.377 . S
C3732 C3730 1.389 . S
C3732 C3733 1.524 . S
C3732 C3746 1.377 . S
C3733 C3732 1.524 . S
C3733 C3734 1.397 . S
C3733 C3738 1.363 . S
C3734 H3711 0.950 . S
C3734 C3733 1.397 . S
C3734 C3735 1.334 . S
C3735 H3712 0.950 . S
C3735 C3734 1.334 . S
C3735 C3736 1.287 . S
C3736 C3735 1.287 . S
C3736 C3737 1.524 . S
C3736 H3755 0.913 . S
C3737 H3713 0.950 . S
C3737 C3736 1.524 . S
C3737 C3738 1.415 . S
C3738 H3714 0.950 . S
C3738 C3733 1.363 . S
C3738 C3737 1.415 . S
C3739 H3715 0.951 . S
C3739 C3740 1.366 . S
C3739 C3741 1.388 . S
C3740 C3739 1.366 . S
C3740 C3744 1.385 . S
C3741 H3716 0.951 . S
C3741 C3739 1.388 . S
C3741 C3742 1.366 . S
C3742 C3741 1.366 . S
C3742 C3743 1.414 . S
C3742 C3745 1.499 . S
C3743 H3717 0.950 . S
C3743 C3742 1.414 . S
C3743 C3744 1.374 . S
C3744 H3718 0.950 . S
C3744 C3740 1.385 . S
C3744 C3743 1.374 . S
C3745 C3742 1.499 . S
C3745 C3746 1.373 . S
C3745 C3747 1.389 . S
C3746 H3719 0.950 . S
C3746 C3732 1.377 . S
C3746 C3745 1.373 . S
C3747 C3731 1.377 . S
C3747 C3745 1.389 . S
C3747 C3748 1.524 . S
C3748 C3747 1.524 . S
C3748 C3749 1.397 . S
C3748 C3753 1.363 . S
C3749 H3720 0.950 . S
C3749 C3748 1.397 . S
C3749 C3750 1.334 . S
C3750 H3721 0.950 . S
C3750 C3749 1.334 . S
C3750 C3751 1.287 . S
C3751 C3750 1.287 . S
C3751 C3752 1.524 . S
C3751 H3754 0.999 . S
C3752 H3722 0.950 . S
C3752 C3751 1.524 . S
C3752 C3753 1.415 . S
C3753 H3723 0.950 . S
C3753 C3748 1.363 . S
C3753 C3752 1.415 . S
H3754 C3751 0.999 . S
H3755 C3736 0.913 . S
H3756 C3774 0.951 . S
H3757 C3776 0.951 . S
H3758 C3778 0.950 . S
H3759 C3779 0.950 . S
H3760 C3781 0.950 . S
H3761 C3784 0.950 . S
H3762 C3785 0.950 . S
H3763 C3787 0.950 . S
H3764 C3788 0.950 . S
H3765 C3789 0.951 . S
H3766 C3791 0.951 . S
H3767 C3793 0.950 . S
H3768 C3794 0.950 . S
H3769 C3796 0.950 . S
H3770 C3799 0.950 . S
H3771 C3800 0.950 . S
H3772 C3802 0.950 . S
H3773 C3803 0.950 . S
C3774 H3756 0.951 . S
C3774 C3775 1.366 . S
C3774 C3776 1.388 . S
C3775 C3774 1.366 . S
C3775 C3779 1.385 . S
C3776 H3757 0.951 . S
C3776 C3774 1.388 . S
C3776 C3777 1.366 . S
C3777 C3776 1.366 . S
C3777 C3778 1.414 . S
C3777 C3780 1.499 . S
C3778 H3758 0.950 . S
C3778 C3777 1.414 . S
C3778 C3779 1.374 . S
C3779 H3759 0.950 . S
C3779 C3775 1.385 . S
C3779 C3778 1.374 . S
C3780 C3777 1.499 . S
C3780 C3781 1.373 . S
C3780 C3782 1.389 . S
C3781 H3760 0.950 . S
C3781 C3780 1.373 . S
C3781 C3797 1.377 . S
C3782 C3780 1.389 . S
C3782 C3783 1.524 . S
C3782 C3796 1.377 . S
C3783 C3782 1.524 . S
C3783 C3784 1.397 . S
C3783 C3788 1.363 . S
C3784 H3761 0.950 . S
C3784 C3783 1.397 . S
C3784 C3785 1.334 . S
C3785 H3762 0.950 . S
C3785 C3784 1.334 . S
C3785 C3786 1.287 . S
C3786 C3785 1.287 . S
C3786 C3787 1.524 . S
C3786 H3805 0.913 . S
C3787 H3763 0.950 . S
C3787 C3786 1.524 . S
C3787 C3788 1.415 . S
C3788 H3764 0.950 . S
C3788 C3783 1.363 . S
C3788 C3787 1.415 . S
C3789 H3765 0.951 . S
C3789 C3790 1.366 . S
C3789 C3791 1.388 . S
C3790 C3789 1.366 . S
C3790 C3794 1.385 . S
C3791 H3766 0.951 . S
C3791 C3789 1.388 . S
C3791 C3792 1.366 . S
C3792 C3791 1.366 . S
C3792 C3793 1.414 . S
C3792 C3795 1.499 . S
C3793 H3767 0.950 . S
C3793 C3792 1.414 . S
C3793 C3794 1.374 . S
C3794 H3768 0.950 . S
C3794 C3790 1.385 . S
C3794 C3793 1.374 . S
C3795 C3792 1.499 . S
C3795 C3796 1.373 . S
C3795 C3797 1.389 . S
C3796 H3769 0.950 . S
C3796 C3782 1.377 . S
C3796 C3795 1.373 . S
C3797 C3781 1.377 . S
C3797 C3795 1.389 . S
C3797 C3798 1.524 . S
C3798 C3797 1.524 . S
C3798 C3799 1.397 . S
C3798 C3803 1.363 . S
C3799 H3770 0.950 . S
C3799 C3798 1.397 . S
C3799 C3800 1.334 . S
C3800 H3771 0.950 . S
C3800 C3799 1.334 . S
C3800 C3801 1.287 . S
C3801 C3800 1.287 . S
C3801 C3802 1.524 . S
C3801 H3804 0.999 . S
C3802 H3772 0.950 . S
C3802 C3801 1.524 . S
C3802 C3803 1.415 . S
C3803 H3773 0.950 . S
C3803 C3798 1.363 . S
C3803 C3802 1.415 . S
H3804 C3801 0.999 . S
H3805 C3786 0.913 . S
H3806 C3824 0.951 . S
H3807 C3826 0.951 . S
H3808 C3828 0.950 . S
H3809 C3829 0.950 . S
H3810 C3831 0.950 . S
H3811 C3834 0.950 . S
H3812 C3835 0.950 . S
H3813 C3837 0.950 . S
H3814 C3838 0.950 . S
H3815 C3839 0.951 . S
H3816 C3841 0.951 . S
H3817 C3843 0.950 . S
H3818 C3844 0.950 . S
H3819 C3846 0.950 . S
H3820 C3849 0.950 . S
H3821 C3850 0.950 . S
H3822 C3852 0.950 . S
H3823 C3853 0.950 . S
C3824 H3806 0.951 . S
C3824 C3825 1.366 . S
C3824 C3826 1.388 . S
C3825 C3824 1.366 . S
C3825 C3829 1.385 . S
C3826 H3807 0.951 . S
C3826 C3824 1.388 . S
C3826 C3827 1.366 . S
C3827 C3826 1.366 . S
C3827 C3828 1.414 . S
C3827 C3830 1.499 . S
C3828 H3808 0.950 . S
C3828 C3827 1.414 . S
C3828 C3829 1.374 . S
C3829 H3809 0.950 . S
C3829 C3825 1.385 . S
C3829 C3828 1.374 . S
C3830 C3827 1.499 . S
C3830 C3831 1.373 . S
C3830 C3832 1.389 . S
C3831 H3810 0.950 . S
C3831 C3830 1.373 . S
C3831 C3847 1.377 . S
C3832 C3830 1.389 . S
C3832 C3833 1.524 . S
C3832 C3846 1.377 . S
C3833 C3832 1.524 . S
C3833 C3834 1.397 . S
C3833 C3838 1.363 . S
C3834 H3811 0.950 . S
C3834 C3833 1.397 . S
C3834 C3835 1.334 . S
C3835 H3812 0.950 . S
C3835 C3834 1.334 . S
C3835 C3836 1.287 . S
C3836 C3835 1.287 . S
C3836 C3837 1.524 . S
C3836 H3855 0.913 . S
C3837 H3813 0.950 . S
C3837 C3836 1.524 . S
C3837 C3838 1.415 . S
C3838 H3814 0.950 . S
C3838 C3833 1.363 . S
C3838 C3837 1.415 . S
C3839 H3815 0.951 . S
C3839 C3840 1.366 . S
C3839 C3841 1.388 . S
C3840 C3839 1.366 . S
C3840 C3844 1.385 . S
C3841 H3816 0.951 . S
C3841 C3839 1.388 . S
C3841 C3842 1.366 . S
C3842 C3841 1.366 . S
C3842 C3843 1.414 . S
C3842 C3845 1.499 . S
C3843 H3817 0.950 . S
C3843 C3842 1.414 . S
C3843 C3844 1.374 . S
C3844 H3818 0.950 . S
C3844 C3840 1.385 . S
C3844 C3843 1.374 . S
C3845 C3842 1.499 . S
C3845 C3846 1.373 . S
C3845 C3847 1.389 . S
C3846 H3819 0.950 . S
C3846 C3832 1.377 . S
C3846 C3845 1.373 . S
C3847 C3831 1.377 . S
C3847 C3845 1.389 . S
C3847 C3848 1.524 . S
C3848 C3847 1.524 . S
C3848 C3849 1.397 . S
C3848 C3853 1.363 . S
C3849 H3820 0.950 . S
C3849 C3848 1.397 . S
C3849 C3850 1.334 . S
C3850 H3821 0.950 . S
C3850 C3849 1.334 . S
C3850 C3851 1.287 . S
C3851 C3850 1.287 . S
C3851 C3852 1.524 . S
C3851 H3854 0.999 . S
C3852 H3822 0.950 . S
C3852 C3851 1.524 . S
C3852 C3853 1.415 . S
C3853 H3823 0.950 . S
C3853 C3848 1.363 . S
C3853 C3852 1.415 . S
H3854 C3851 0.999 . S
H3855 C3836 0.913 . S
H3856 C3874 0.951 . S
H3857 C3876 0.951 . S
H3858 C3878 0.950 . S
H3859 C3879 0.950 . S
H3860 C3881 0.950 . S
H3861 C3884 0.950 . S
H3862 C3885 0.950 . S
H3863 C3887 0.950 . S
H3864 C3888 0.950 . S
H3865 C3889 0.951 . S
H3866 C3891 0.951 . S
H3867 C3893 0.950 . S
H3868 C3894 0.950 . S
H3869 C3896 0.950 . S
H3870 C3899 0.950 . S
H3871 C3900 0.950 . S
H3872 C3902 0.950 . S
H3873 C3903 0.950 . S
C3874 H3856 0.951 . S
C3874 C3875 1.366 . S
C3874 C3876 1.388 . S
C3875 C3874 1.366 . S
C3875 C3879 1.385 . S
C3876 H3857 0.951 . S
C3876 C3874 1.388 . S
C3876 C3877 1.366 . S
C3877 C3876 1.366 . S
C3877 C3878 1.414 . S
C3877 C3880 1.499 . S
C3878 H3858 0.950 . S
C3878 C3877 1.414 . S
C3878 C3879 1.374 . S
C3879 H3859 0.950 . S
C3879 C3875 1.385 . S
C3879 C3878 1.374 . S
C3880 C3877 1.499 . S
C3880 C3881 1.373 . S
C3880 C3882 1.389 . S
C3881 H3860 0.950 . S
C3881 C3880 1.373 . S
C3881 C3897 1.377 . S
C3882 C3880 1.389 . S
C3882 C3883 1.524 . S
C3882 C3896 1.377 . S
C3883 C3882 1.524 . S
C3883 C3884 1.397 . S
C3883 C3888 1.363 . S
C3884 H3861 0.950 . S
C3884 C3883 1.397 . S
C3884 C3885 1.334 . S
C3885 H3862 0.950 . S
C3885 C3884 1.334 . S
C3885 C3886 1.287 . S
C3886 C3885 1.287 . S
C3886 C3887 1.524 . S
C3886 H3905 0.913 . S
C3887 H3863 0.950 . S
C3887 C3886 1.524 . S
C3887 C3888 1.415 . S
C3888 H3864 0.950 . S
C3888 C3883 1.363 . S
C3888 C3887 1.415 . S
C3889 H3865 0.951 . S
C3889 C3890 1.366 . S
C3889 C3891 1.388 . S
C3890 C3889 1.366 . S
C3890 C3894 1.385 . S
C3891 H3866 0.951 . S
C3891 C3889 1.388 . S
C3891 C3892 1.366 . S
C3892 C3891 1.366 . S
C3892 C3893 1.414 . S
C3892 C3895 1.499 . S
C3893 H3867 0.950 . S
C3893 C3892 1.414 . S
C3893 C3894 1.374 . S
C3894 H3868 0.950 . S
C3894 C3890 1.385 . S
C3894 C3893 1.374 . S
C3895 C3892 1.499 . S
C3895 C3896 1.373 . S
C3895 C3897 1.389 . S
C3896 H3869 0.950 . S
C3896 C3882 1.377 . S
C3896 C3895 1.373 . S
C3897 C3881 1.377 . S
C3897 C3895 1.389 . S
C3897 C3898 1.524 . S
C3898 C3897 1.524 . S
C3898 C3899 1.397 . S
C3898 C3903 1.363 . S
C3899 H3870 0.950 . S
C3899 C3898 1.397 . S
C3899 C3900 1.334 . S
C3900 H3871 0.950 . S
C3900 C3899 1.334 . S
C3900 C3901 1.287 . S
C3901 C3900 1.287 . S
C3901 C3902 1.524 . S
C3901 H3904 0.999 . S
C3902 H3872 0.950 . S
C3902 C3901 1.524 . S
C3902 C3903 1.415 . S
C3903 H3873 0.950 . S
C3903 C3898 1.363 . S
C3903 C3902 1.415 . S
H3904 C3901 0.999 . S
H3905 C3886 0.913 . S
H3906 C3924 0.951 . S
H3907 C3926 0.951 . S
H3908 C3928 0.950 . S
H3909 C3929 0.950 . S
H3910 C3931 0.950 . S
H3911 C3934 0.950 . S
H3912 C3935 0.950 . S
H3913 C3937 0.950 . S
H3914 C3938 0.950 . S
H3915 C3939 0.951 . S
H3916 C3941 0.951 . S
H3917 C3943 0.950 . S
H3918 C3944 0.950 . S
H3919 C3946 0.950 . S
H3920 C3949 0.950 . S
H3921 C3950 0.905 1_565 S
H3922 C3952 0.950 . S
H3923 C3953 0.950 . S
C3924 H3906 0.951 . S
C3924 C3925 1.366 . S
C3924 C3926 1.388 . S
C3925 C3924 1.366 . S
C3925 C3929 1.385 . S
C3926 H3907 0.951 . S
C3926 C3924 1.388 . S
C3926 C3927 1.366 . S
C3927 C3926 1.366 . S
C3927 C3928 1.414 . S
C3927 C3930 1.499 . S
C3928 H3908 0.950 . S
C3928 C3927 1.414 . S
C3928 C3929 1.374 . S
C3929 H3909 0.950 . S
C3929 C3925 1.385 . S
C3929 C3928 1.374 . S
C3930 C3927 1.499 . S
C3930 C3931 1.373 . S
C3930 C3932 1.389 . S
C3931 H3910 0.950 . S
C3931 C3930 1.373 . S
C3931 C3947 1.377 . S
C3932 C3930 1.389 . S
C3932 C3933 1.524 . S
C3932 C3946 1.377 . S
C3933 C3932 1.524 . S
C3933 C3934 1.397 . S
C3933 C3938 1.363 . S
C3934 H3911 0.950 . S
C3934 C3933 1.397 . S
C3934 C3935 1.334 . S
C3935 H3912 0.950 . S
C3935 C3934 1.334 . S
C3935 C3936 1.287 . S
C3936 C3935 1.287 . S
C3936 C3937 1.524 . S
C3936 H3955 0.913 . S
C3937 H3913 0.950 . S
C3937 C3936 1.524 . S
C3937 C3938 1.415 . S
C3938 H3914 0.950 . S
C3938 C3933 1.363 . S
C3938 C3937 1.415 . S
C3939 H3915 0.951 . S
C3939 C3940 1.366 . S
C3939 C3941 1.388 . S
C3940 C3939 1.366 . S
C3940 C3944 1.385 . S
C3941 H3916 0.951 . S
C3941 C3939 1.388 . S
C3941 C3942 1.366 . S
C3942 C3941 1.366 . S
C3942 C3943 1.414 . S
C3942 C3945 1.499 . S
C3943 H3917 0.950 . S
C3943 C3942 1.414 . S
C3943 C3944 1.374 . S
C3944 H3918 0.950 . S
C3944 C3940 1.385 . S
C3944 C3943 1.374 . S
C3945 C3942 1.499 . S
C3945 C3946 1.373 . S
C3945 C3947 1.389 . S
C3946 H3919 0.950 . S
C3946 C3932 1.377 . S
C3946 C3945 1.373 . S
C3947 C3931 1.377 . S
C3947 C3945 1.389 . S
C3947 C3948 1.524 . S
C3948 C3947 1.524 . S
C3948 C3949 1.397 . S
C3948 C3953 1.363 . S
C3949 H3920 0.950 . S
C3949 C3948 1.397 . S
C3949 C3950 1.334 . S
C3950 H3921 0.905 1_545 S
C3950 C3949 1.334 . S
C3950 C3951 1.287 . S
C3951 C3950 1.287 . S
C3951 C3952 1.524 . S
C3951 H3954 0.999 . S
C3952 H3922 0.950 . S
C3952 C3951 1.524 . S
C3952 C3953 1.415 . S
C3953 H3923 0.950 . S
C3953 C3948 1.363 . S
C3953 C3952 1.415 . S
H3954 C3951 0.999 . S
H3955 C3936 0.913 . S
H3956 C3974 0.951 . S
H3957 C3976 0.951 . S
H3958 C3978 0.950 . S
H3959 C3979 0.950 . S
H3960 C3981 0.950 . S
H3961 C3984 0.950 . S
H3962 C3985 0.950 . S
H3963 C3987 0.950 . S
H3964 C3988 0.950 . S
H3965 C3989 0.951 . S
H3966 C3991 0.951 . S
H3967 C3993 0.950 . S
H3968 C3994 0.950 . S
H3969 C3996 0.950 . S
H3970 C3999 0.950 . S
H3971 C4000 0.950 . S
H3972 C4002 0.950 . S
H3973 C4003 0.950 . S
C3974 H3956 0.951 . S
C3974 C3975 1.366 . S
C3974 C3976 1.388 . S
C3975 C3974 1.366 . S
C3975 C3979 1.385 . S
C3976 H3957 0.951 . S
C3976 C3974 1.388 . S
C3976 C3977 1.366 . S
C3977 C3976 1.366 . S
C3977 C3978 1.414 . S
C3977 C3980 1.499 . S
C3978 H3958 0.950 . S
C3978 C3977 1.414 . S
C3978 C3979 1.374 . S
C3979 H3959 0.950 . S
C3979 C3975 1.385 . S
C3979 C3978 1.374 . S
C3980 C3977 1.499 . S
C3980 C3981 1.373 . S
C3980 C3982 1.389 . S
C3981 H3960 0.950 . S
C3981 C3980 1.373 . S
C3981 C3997 1.377 . S
C3982 C3980 1.389 . S
C3982 C3983 1.524 . S
C3982 C3996 1.377 . S
C3983 C3982 1.524 . S
C3983 C3984 1.397 . S
C3983 C3988 1.363 . S
C3984 H3961 0.950 . S
C3984 C3983 1.397 . S
C3984 C3985 1.334 . S
C3985 H3962 0.950 . S
C3985 C3984 1.334 . S
C3985 C3986 1.287 . S
C3986 C3985 1.287 . S
C3986 C3987 1.524 . S
C3986 H4005 0.913 . S
C3987 H3963 0.950 . S
C3987 C3986 1.524 . S
C3987 C3988 1.415 . S
C3988 H3964 0.950 . S
C3988 C3983 1.363 . S
C3988 C3987 1.415 . S
C3989 H3965 0.951 . S
C3989 C3990 1.366 . S
C3989 C3991 1.388 . S
C3990 C3989 1.366 . S
C3990 C3994 1.385 . S
C3991 H3966 0.951 . S
C3991 C3989 1.388 . S
C3991 C3992 1.366 . S
C3992 C3991 1.366 . S
C3992 C3993 1.414 . S
C3992 C3995 1.499 . S
C3993 H3967 0.950 . S
C3993 C3992 1.414 . S
C3993 C3994 1.374 . S
C3994 H3968 0.950 . S
C3994 C3990 1.385 . S
C3994 C3993 1.374 . S
C3995 C3992 1.499 . S
C3995 C3996 1.373 . S
C3995 C3997 1.389 . S
C3996 H3969 0.950 . S
C3996 C3982 1.377 . S
C3996 C3995 1.373 . S
C3997 C3981 1.377 . S
C3997 C3995 1.389 . S
C3997 C3998 1.524 . S
C3998 C3997 1.524 . S
C3998 C3999 1.397 . S
C3998 C4003 1.363 . S
C3999 H3970 0.950 . S
C3999 C3998 1.397 . S
C3999 C4000 1.334 . S
C4000 H3971 0.950 . S
C4000 C3999 1.334 . S
C4000 C4001 1.287 . S
C4001 C4000 1.287 . S
C4001 C4002 1.524 . S
C4001 H4004 0.999 . S
C4002 H3972 0.950 . S
C4002 C4001 1.524 . S
C4002 C4003 1.415 . S
C4003 H3973 0.950 . S
C4003 C3998 1.363 . S
C4003 C4002 1.415 . S
H4004 C4001 0.999 . S
H4005 C3986 0.913 . S
H4006 C4024 0.951 . S
H4007 C4026 0.951 . S
H4008 C4028 0.950 . S
H4009 C4029 0.950 . S
H4010 C4031 0.950 . S
H4011 C4034 0.950 . S
H4012 C4035 0.950 . S
H4013 C4037 0.950 . S
H4014 C4038 0.950 . S
H4015 C4039 0.951 . S
H4016 C4041 0.951 . S
H4017 C4043 0.950 . S
H4018 C4044 0.950 1_545 S
H4019 C4046 0.950 1_556 S
H4020 C4049 0.950 . S
H4021 C4050 0.950 . S
H4022 C4052 0.950 . S
H4023 C4053 0.950 . S
C4024 H4006 0.951 . S
C4024 C4025 1.366 . S
C4024 C4026 1.388 . S
C4025 C4024 1.366 . S
C4025 C4029 1.385 . S
C4026 H4007 0.951 . S
C4026 C4024 1.388 . S
C4026 C4027 1.366 . S
C4027 C4026 1.366 . S
C4027 C4028 1.414 . S
C4027 C4030 1.499 . S
C4028 H4008 0.950 . S
C4028 C4027 1.414 . S
C4028 C4029 1.374 . S
C4029 H4009 0.950 . S
C4029 C4025 1.385 . S
C4029 C4028 1.374 . S
C4030 C4027 1.499 . S
C4030 C4031 1.373 . S
C4030 C4032 1.389 . S
C4031 H4010 0.950 . S
C4031 C4030 1.373 . S
C4031 C4047 1.377 . S
C4032 C4030 1.389 . S
C4032 C4033 1.524 1_554 S
C4032 C4046 1.377 . S
C4033 C4032 1.524 1_556 S
C4033 C4034 1.397 . S
C4033 C4038 1.363 . S
C4034 H4011 0.950 . S
C4034 C4033 1.397 . S
C4034 C4035 1.334 . S
C4035 H4012 0.950 . S
C4035 C4034 1.334 . S
C4035 C4036 1.287 . S
C4036 C4035 1.287 . S
C4036 C4037 1.524 . S
C4036 H4055 0.913 . S
C4037 H4013 0.950 . S
C4037 C4036 1.524 . S
C4037 C4038 1.415 . S
C4038 H4014 0.950 . S
C4038 C4033 1.363 . S
C4038 C4037 1.415 . S
C4039 H4015 0.951 . S
C4039 C4040 1.366 . S
C4039 C4041 1.388 . S
C4040 C4039 1.366 . S
C4040 C4044 1.385 . S
C4041 H4016 0.951 . S
C4041 C4039 1.388 . S
C4041 C4042 1.366 . S
C4042 C4041 1.366 . S
C4042 C4043 1.414 . S
C4042 C4045 1.499 . S
C4043 H4017 0.950 . S
C4043 C4042 1.414 . S
C4043 C4044 1.374 . S
C4044 H4018 0.950 1_565 S
C4044 C4040 1.385 . S
C4044 C4043 1.374 . S
C4045 C4042 1.499 . S
C4045 C4046 1.373 . S
C4045 C4047 1.389 . S
C4046 H4019 0.950 1_554 S
C4046 C4032 1.377 . S
C4046 C4045 1.373 . S
C4047 C4031 1.377 . S
C4047 C4045 1.389 . S
C4047 C4048 1.524 . S
C4048 C4047 1.524 . S
C4048 C4049 1.397 . S
C4048 C4053 1.363 . S
C4049 H4020 0.950 . S
C4049 C4048 1.397 . S
C4049 C4050 1.334 . S
C4050 H4021 0.950 . S
C4050 C4049 1.334 . S
C4050 C4051 1.287 . S
C4051 C4050 1.287 . S
C4051 C4052 1.524 . S
C4051 H4054 0.999 . S
C4052 H4022 0.950 . S
C4052 C4051 1.524 . S
C4052 C4053 1.415 . S
C4053 H4023 0.950 . S
C4053 C4048 1.363 . S
C4053 C4052 1.415 . S
H4054 C4051 0.999 . S
H4055 C4036 0.913 . S
H4056 C4074 0.951 . S
H4057 C4076 0.951 . S
H4058 C4078 0.950 . S
H4059 C4079 0.950 . S
H4060 C4081 0.950 . S
H4061 C4084 0.950 . S
H4062 C4085 0.950 . S
H4063 C4087 0.950 . S
H4064 C4088 0.950 . S
H4065 C4089 0.951 . S
H4066 C4091 0.951 . S
H4067 C4093 0.950 . S
H4068 C4094 0.950 . S
H4069 C4096 0.950 . S
H4070 C4099 0.950 . S
H4071 C4100 0.950 . S
H4072 C4102 0.950 . S
H4073 C4103 0.950 . S
C4074 H4056 0.951 . S
C4074 C4075 1.366 . S
C4074 C4076 1.388 . S
C4075 C4074 1.366 . S
C4075 C4079 1.385 . S
C4076 H4057 0.951 . S
C4076 C4074 1.388 . S
C4076 C4077 1.366 . S
C4077 C4076 1.366 . S
C4077 C4078 1.414 . S
C4077 C4080 1.499 . S
C4078 H4058 0.950 . S
C4078 C4077 1.414 . S
C4078 C4079 1.374 . S
C4079 H4059 0.950 . S
C4079 C4075 1.385 . S
C4079 C4078 1.374 . S
C4080 C4077 1.499 . S
C4080 C4081 1.373 . S
C4080 C4082 1.389 . S
C4081 H4060 0.950 . S
C4081 C4080 1.373 . S
C4081 C4097 1.377 . S
C4082 C4080 1.389 . S
C4082 C4083 1.524 . S
C4082 C4096 1.377 . S
C4083 C4082 1.524 . S
C4083 C4084 1.397 . S
C4083 C4088 1.363 . S
C4084 H4061 0.950 . S
C4084 C4083 1.397 . S
C4084 C4085 1.334 . S
C4085 H4062 0.950 . S
C4085 C4084 1.334 . S
C4085 C4086 1.287 . S
C4086 C4085 1.287 . S
C4086 C4087 1.524 . S
C4086 H4105 0.913 . S
C4087 H4063 0.950 . S
C4087 C4086 1.524 . S
C4087 C4088 1.415 . S
C4088 H4064 0.950 . S
C4088 C4083 1.363 . S
C4088 C4087 1.415 . S
C4089 H4065 0.951 . S
C4089 C4090 1.366 . S
C4089 C4091 1.388 . S
C4090 C4089 1.366 . S
C4090 C4094 1.385 . S
C4091 H4066 0.951 . S
C4091 C4089 1.388 . S
C4091 C4092 1.366 . S
C4092 C4091 1.366 . S
C4092 C4093 1.414 . S
C4092 C4095 1.499 . S
C4093 H4067 0.950 . S
C4093 C4092 1.414 . S
C4093 C4094 1.374 . S
C4094 H4068 0.950 . S
C4094 C4090 1.385 . S
C4094 C4093 1.374 . S
C4095 C4092 1.499 . S
C4095 C4096 1.373 . S
C4095 C4097 1.389 . S
C4096 H4069 0.950 . S
C4096 C4082 1.377 . S
C4096 C4095 1.373 . S
C4097 C4081 1.377 . S
C4097 C4095 1.389 . S
C4097 C4098 1.524 . S
C4098 C4097 1.524 . S
C4098 C4099 1.397 . S
C4098 C4103 1.363 . S
C4099 H4070 0.950 . S
C4099 C4098 1.397 . S
C4099 C4100 1.334 . S
C4100 H4071 0.950 . S
C4100 C4099 1.334 . S
C4100 C4101 1.287 . S
C4101 C4100 1.287 . S
C4101 C4102 1.524 . S
C4101 H4104 0.999 . S
C4102 H4072 0.950 . S
C4102 C4101 1.524 . S
C4102 C4103 1.415 . S
C4103 H4073 0.950 . S
C4103 C4098 1.363 . S
C4103 C4102 1.415 . S
H4104 C4101 0.999 . S
H4105 C4086 0.913 . S
H4106 C4124 0.951 . S
H4107 C4126 0.951 . S
H4108 C4128 0.950 . S
H4109 C4129 0.950 . S
H4110 C4131 0.950 . S
H4111 C4134 0.950 . S
H4112 C4135 0.950 . S
H4113 C4137 0.950 1_556 S
H4114 C4138 0.910 1_556 S
H4115 C4139 0.951 . S
H4116 C4141 0.951 . S
H4117 C4143 0.950 1_556 S
H4118 C4144 0.950 . S
H4119 C4146 0.950 . S
H4120 C4149 0.950 1_556 S
H4121 C4150 0.950 1_556 S
H4122 C4152 0.950 . S
H4123 C4153 0.950 . S
C4124 H4106 0.951 . S
C4124 C4125 1.366 1_556 S
C4124 C4126 1.388 . S
C4125 C4124 1.366 1_554 S
C4125 C4129 1.385 . S
C4126 H4107 0.951 . S
C4126 C4124 1.388 . S
C4126 C4127 1.366 1_556 S
C4127 C4126 1.366 1_554 S
C4127 C4128 1.414 . S
C4127 C4130 1.499 . S
C4128 H4108 0.950 . S
C4128 C4127 1.414 . S
C4128 C4129 1.374 . S
C4129 H4109 0.950 . S
C4129 C4125 1.385 . S
C4129 C4128 1.374 . S
C4130 C4127 1.499 . S
C4130 C4131 1.373 . S
C4130 C4132 1.389 . S
C4131 H4110 0.950 . S
C4131 C4130 1.373 . S
C4131 C4147 1.377 . S
C4132 C4130 1.389 . S
C4132 C4133 1.524 . S
C4132 C4146 1.377 . S
C4133 C4132 1.524 . S
C4133 C4134 1.397 . S
C4133 C4138 1.397 . S
C4134 H4111 0.950 . S
C4134 C4133 1.397 . S
C4134 C4135 1.334 . S
C4135 H4112 0.950 . S
C4135 C4134 1.334 . S
C4135 C4136 1.287 . S
C4136 C4135 1.287 . S
C4136 C4137 1.524 . S
C4136 H4155 0.913 . S
C4137 H4113 0.950 1_554 S
C4137 C4136 1.524 . S
C4137 C4138 1.424 . S
C4138 H4114 0.910 1_554 S
C4138 C4133 1.397 . S
C4138 C4137 1.424 . S
C4139 H4115 0.951 . S
C4139 C4140 1.366 . S
C4139 C4141 1.388 . S
C4140 C4139 1.366 . S
C4140 C4144 1.385 . S
C4141 H4116 0.951 . S
C4141 C4139 1.388 . S
C4141 C4142 1.366 . S
C4142 C4141 1.366 . S
C4142 C4143 1.414 . S
C4142 C4145 1.499 . S
C4143 H4117 0.950 1_554 S
C4143 C4142 1.414 . S
C4143 C4144 1.374 . S
C4144 H4118 0.950 . S
C4144 C4140 1.385 . S
C4144 C4143 1.374 . S
C4145 C4142 1.499 . S
C4145 C4146 1.373 . S
C4145 C4147 1.389 . S
C4146 H4119 0.950 . S
C4146 C4132 1.377 . S
C4146 C4145 1.373 . S
C4147 C4131 1.377 . S
C4147 C4145 1.389 . S
C4147 C4148 1.524 . S
C4148 C4147 1.524 . S
C4148 C4149 1.397 . S
C4148 C4153 1.363 . S
C4149 H4120 0.950 1_554 S
C4149 C4148 1.397 . S
C4149 C4150 1.334 . S
C4150 H4121 0.950 1_554 S
C4150 C4149 1.334 . S
C4150 C4151 1.287 . S
C4151 C4150 1.287 . S
C4151 C4152 1.524 . S
C4151 H4154 0.999 . S
C4152 H4122 0.950 . S
C4152 C4151 1.524 . S
C4152 C4153 1.415 . S
C4153 H4123 0.950 . S
C4153 C4148 1.363 . S
C4153 C4152 1.415 . S
H4154 C4151 0.999 . S
H4155 C4136 0.913 . S
H4156 C4174 0.951 . S
H4157 C4176 0.951 . S
H4158 C4178 0.950 . S
H4159 C4179 0.950 . S
H4160 C4181 0.950 . S
H4161 C4184 0.950 . S
H4162 C4185 0.950 . S
H4163 C4187 0.950 . S
H4164 C4188 0.950 . S
H4165 C4189 0.951 . S
H4166 C4191 0.951 . S
H4167 C4193 0.950 . S
H4168 C4194 0.950 . S
H4169 C4196 0.950 . S
H4170 C4199 0.950 . S
H4171 C4200 0.950 . S
H4172 C4202 0.950 . S
H4173 C4203 0.950 . S
C4174 H4156 0.951 . S
C4174 C4175 1.366 . S
C4174 C4176 1.388 . S
C4175 C4174 1.366 . S
C4175 C4179 1.385 . S
C4176 H4157 0.951 . S
C4176 C4174 1.388 . S
C4176 C4177 1.366 . S
C4177 C4176 1.366 . S
C4177 C4178 1.414 . S
C4177 C4180 1.499 . S
C4178 H4158 0.950 . S
C4178 C4177 1.414 . S
C4178 C4179 1.374 . S
C4179 H4159 0.950 . S
C4179 C4175 1.385 . S
C4179 C4178 1.374 . S
C4180 C4177 1.499 . S
C4180 C4181 1.373 . S
C4180 C4182 1.389 . S
C4181 H4160 0.950 . S
C4181 C4180 1.373 . S
C4181 C4197 1.377 . S
C4182 C4180 1.389 . S
C4182 C4183 1.524 . S
C4182 C4196 1.377 . S
C4183 C4182 1.524 . S
C4183 C4184 1.397 . S
C4183 C4188 1.363 . S
C4184 H4161 0.950 . S
C4184 C4183 1.397 . S
C4184 C4185 1.334 . S
C4185 H4162 0.950 . S
C4185 C4184 1.334 . S
C4185 C4186 1.287 . S
C4186 C4185 1.287 . S
C4186 C4187 1.524 . S
C4186 H4205 0.913 . S
C4187 H4163 0.950 . S
C4187 C4186 1.524 . S
C4187 C4188 1.415 . S
C4188 H4164 0.950 . S
C4188 C4183 1.363 . S
C4188 C4187 1.415 . S
C4189 H4165 0.951 . S
C4189 C4190 1.366 . S
C4189 C4191 1.388 . S
C4190 C4189 1.366 . S
C4190 C4194 1.385 . S
C4191 H4166 0.951 . S
C4191 C4189 1.388 . S
C4191 C4192 1.366 . S
C4192 C4191 1.366 . S
C4192 C4193 1.414 . S
C4192 C4195 1.499 . S
C4193 H4167 0.950 . S
C4193 C4192 1.414 . S
C4193 C4194 1.374 . S
C4194 H4168 0.950 . S
C4194 C4190 1.385 . S
C4194 C4193 1.374 . S
C4195 C4192 1.499 . S
C4195 C4196 1.373 . S
C4195 C4197 1.389 . S
C4196 H4169 0.950 . S
C4196 C4182 1.377 . S
C4196 C4195 1.373 . S
C4197 C4181 1.377 . S
C4197 C4195 1.389 . S
C4197 C4198 1.524 . S
C4198 C4197 1.524 . S
C4198 C4199 1.397 . S
C4198 C4203 1.363 . S
C4199 H4170 0.950 . S
C4199 C4198 1.397 . S
C4199 C4200 1.334 . S
C4200 H4171 0.950 . S
C4200 C4199 1.334 . S
C4200 C4201 1.287 . S
C4201 C4200 1.287 . S
C4201 C4202 1.524 . S
C4201 H4204 0.999 . S
C4202 H4172 0.950 . S
C4202 C4201 1.524 . S
C4202 C4203 1.415 . S
C4203 H4173 0.950 . S
C4203 C4198 1.363 . S
C4203 C4202 1.415 . S
H4204 C4201 0.999 . S
H4205 C4186 0.913 . S
H4206 C4224 0.951 . S
H4207 C4226 0.951 . S
H4208 C4228 0.950 . S
H4209 C4229 0.950 . S
H4210 C4231 0.950 . S
H4211 C4234 0.950 . S
H4212 C4235 0.950 . S
H4213 C4237 0.950 . S
H4214 C4238 0.950 . S
H4215 C4239 0.951 . S
H4216 C4241 0.951 . S
H4217 C4243 0.950 . S
H4218 C4244 0.950 . S
H4219 C4246 0.950 . S
H4220 C4249 0.950 . S
H4221 C4250 0.950 . S
H4222 C4252 0.950 . S
H4223 C4253 0.950 . S
C4224 H4206 0.951 . S
C4224 C4225 1.366 . S
C4224 C4226 1.388 . S
C4225 C4224 1.366 . S
C4225 C4229 1.385 . S
C4226 H4207 0.951 . S
C4226 C4224 1.388 . S
C4226 C4227 1.366 . S
C4227 C4226 1.366 . S
C4227 C4228 1.414 . S
C4227 C4230 1.499 . S
C4228 H4208 0.950 . S
C4228 C4227 1.414 . S
C4228 C4229 1.374 . S
C4229 H4209 0.950 . S
C4229 C4225 1.385 . S
C4229 C4228 1.374 . S
C4230 C4227 1.499 . S
C4230 C4231 1.373 . S
C4230 C4232 1.389 . S
C4231 H4210 0.950 . S
C4231 C4230 1.373 . S
C4231 C4247 1.377 . S
C4232 C4230 1.389 . S
C4232 C4233 1.524 . S
C4232 C4246 1.377 . S
C4233 C4232 1.524 . S
C4233 C4234 1.397 . S
C4233 C4238 1.363 . S
C4234 H4211 0.950 . S
C4234 C4233 1.397 . S
C4234 C4235 1.334 . S
C4235 H4212 0.950 . S
C4235 C4234 1.334 . S
C4235 C4236 1.287 . S
C4236 C4235 1.287 . S
C4236 C4237 1.524 . S
C4236 H4255 0.913 . S
C4237 H4213 0.950 . S
C4237 C4236 1.524 . S
C4237 C4238 1.415 . S
C4238 H4214 0.950 . S
C4238 C4233 1.363 . S
C4238 C4237 1.415 . S
C4239 H4215 0.951 . S
C4239 C4240 1.366 . S
C4239 C4241 1.388 . S
C4240 C4239 1.366 . S
C4240 C4244 1.385 . S
C4241 H4216 0.951 . S
C4241 C4239 1.388 . S
C4241 C4242 1.366 . S
C4242 C4241 1.366 . S
C4242 C4243 1.414 . S
C4242 C4245 1.499 . S
C4243 H4217 0.950 . S
C4243 C4242 1.414 . S
C4243 C4244 1.374 . S
C4244 H4218 0.950 . S
C4244 C4240 1.385 . S
C4244 C4243 1.374 . S
C4245 C4242 1.499 . S
C4245 C4246 1.373 . S
C4245 C4247 1.389 . S
C4246 H4219 0.950 . S
C4246 C4232 1.377 . S
C4246 C4245 1.373 . S
C4247 C4231 1.377 . S
C4247 C4245 1.389 . S
C4247 C4248 1.524 . S
C4248 C4247 1.524 . S
C4248 C4249 1.397 . S
C4248 C4253 1.363 . S
C4249 H4220 0.950 . S
C4249 C4248 1.397 . S
C4249 C4250 1.334 . S
C4250 H4221 0.950 . S
C4250 C4249 1.334 . S
C4250 C4251 1.287 . S
C4251 C4250 1.287 . S
C4251 C4252 1.524 . S
C4251 H4254 0.999 . S
C4252 H4222 0.950 . S
C4252 C4251 1.524 . S
C4252 C4253 1.415 . S
C4253 H4223 0.950 . S
C4253 C4248 1.363 . S
C4253 C4252 1.415 . S
H4254 C4251 0.999 . S
H4255 C4236 0.913 . S
H4256 C4274 0.951 . S
H4257 C4276 0.951 . S
H4258 C4278 0.950 . S
H4259 C4279 0.950 . S
H4260 C4281 0.950 . S
H4261 C4284 0.950 . S
H4262 C4285 0.950 . S
H4263 C4287 0.950 . S
H4264 C4288 0.950 . S
H4265 C4289 0.951 . S
H4266 C4291 0.951 . S
H4267 C4293 0.950 . S
H4268 C4294 0.950 . S
H4269 C4296 0.950 . S
H4270 C4299 0.950 . S
H4271 C4300 0.950 . S
H4272 C4302 0.950 . S
H4273 C4303 0.950 . S
C4274 H4256 0.951 . S
C4274 C4275 1.366 . S
C4274 C4276 1.388 . S
C4275 C4274 1.366 . S
C4275 C4279 1.385 . S
C4276 H4257 0.951 . S
C4276 C4274 1.388 . S
C4276 C4277 1.366 . S
C4277 C4276 1.366 . S
C4277 C4278 1.414 . S
C4277 C4280 1.499 . S
C4278 H4258 0.950 . S
C4278 C4277 1.414 . S
C4278 C4279 1.374 . S
C4279 H4259 0.950 . S
C4279 C4275 1.385 . S
C4279 C4278 1.374 . S
C4280 C4277 1.499 . S
C4280 C4281 1.373 . S
C4280 C4282 1.389 . S
C4281 H4260 0.950 . S
C4281 C4280 1.373 . S
C4281 C4297 1.377 . S
C4282 C4280 1.389 . S
C4282 C4283 1.524 . S
C4282 C4296 1.377 . S
C4283 C4282 1.524 . S
C4283 C4284 1.397 . S
C4283 C4288 1.363 . S
C4284 H4261 0.950 . S
C4284 C4283 1.397 . S
C4284 C4285 1.334 . S
C4285 H4262 0.950 . S
C4285 C4284 1.334 . S
C4285 C4286 1.287 . S
C4286 C4285 1.287 . S
C4286 C4287 1.524 . S
C4286 H4305 0.913 . S
C4287 H4263 0.950 . S
C4287 C4286 1.524 . S
C4287 C4288 1.415 . S
C4288 H4264 0.950 . S
C4288 C4283 1.363 . S
C4288 C4287 1.415 . S
C4289 H4265 0.951 . S
C4289 C4290 1.366 . S
C4289 C4291 1.388 . S
C4290 C4289 1.366 . S
C4290 C4294 1.385 . S
C4291 H4266 0.951 . S
C4291 C4289 1.388 . S
C4291 C4292 1.366 . S
C4292 C4291 1.366 . S
C4292 C4293 1.414 . S
C4292 C4295 1.499 . S
C4293 H4267 0.950 . S
C4293 C4292 1.414 . S
C4293 C4294 1.374 . S
C4294 H4268 0.950 . S
C4294 C4290 1.385 . S
C4294 C4293 1.374 . S
C4295 C4292 1.499 . S
C4295 C4296 1.373 . S
C4295 C4297 1.389 . S
C4296 H4269 0.950 . S
C4296 C4282 1.377 . S
C4296 C4295 1.373 . S
C4297 C4281 1.377 . S
C4297 C4295 1.389 . S
C4297 C4298 1.524 . S
C4298 C4297 1.524 . S
C4298 C4299 1.397 . S
C4298 C4303 1.363 . S
C4299 H4270 0.950 . S
C4299 C4298 1.397 . S
C4299 C4300 1.334 . S
C4300 H4271 0.950 . S
C4300 C4299 1.334 . S
C4300 C4301 1.287 . S
C4301 C4300 1.287 . S
C4301 C4302 1.524 . S
C4301 H4304 0.999 . S
C4302 H4272 0.950 . S
C4302 C4301 1.524 . S
C4302 C4303 1.415 . S
C4303 H4273 0.950 . S
C4303 C4298 1.363 . S
C4303 C4302 1.415 . S
H4304 C4301 0.999 . S
H4305 C4286 0.913 . S
H4306 C4324 0.951 . S
H4307 C4326 0.951 . S
H4308 C4328 0.950 . S
H4309 C4329 0.950 . S
H4310 C4331 0.950 . S
H4311 C4334 0.950 . S
H4312 C4335 0.950 . S
H4313 C4337 0.950 . S
H4314 C4338 0.950 . S
H4315 C4339 0.951 . S
H4316 C4341 0.951 . S
H4317 C4343 0.950 . S
H4318 C4344 0.950 . S
H4319 C4346 0.950 . S
H4320 C4349 0.950 . S
H4321 C4350 0.950 . S
H4322 C4352 0.950 . S
H4323 C4353 0.950 . S
C4324 H4306 0.951 . S
C4324 C4325 1.366 . S
C4324 C4326 1.388 . S
C4325 C4324 1.366 . S
C4325 C4329 1.385 . S
C4326 H4307 0.951 . S
C4326 C4324 1.388 . S
C4326 C4327 1.366 . S
C4327 C4326 1.366 . S
C4327 C4328 1.414 . S
C4327 C4330 1.499 . S
C4328 H4308 0.950 . S
C4328 C4327 1.414 . S
C4328 C4329 1.374 . S
C4329 H4309 0.950 . S
C4329 C4325 1.385 . S
C4329 C4328 1.374 . S
C4330 C4327 1.499 . S
C4330 C4331 1.373 . S
C4330 C4332 1.389 . S
C4331 H4310 0.950 . S
C4331 C4330 1.373 . S
C4331 C4347 1.377 . S
C4332 C4330 1.389 . S
C4332 C4333 1.524 . S
C4332 C4346 1.377 . S
C4333 C4332 1.524 . S
C4333 C4334 1.397 . S
C4333 C4338 1.363 . S
C4334 H4311 0.950 . S
C4334 C4333 1.397 . S
C4334 C4335 1.334 . S
C4335 H4312 0.950 . S
C4335 C4334 1.334 . S
C4335 C4336 1.287 . S
C4336 C4335 1.287 . S
C4336 C4337 1.524 . S
C4336 H4355 0.913 . S
C4337 H4313 0.950 . S
C4337 C4336 1.524 . S
C4337 C4338 1.415 . S
C4338 H4314 0.950 . S
C4338 C4333 1.363 . S
C4338 C4337 1.415 . S
C4339 H4315 0.951 . S
C4339 C4340 1.366 . S
C4339 C4341 1.388 . S
C4340 C4339 1.366 . S
C4340 C4344 1.385 . S
C4341 H4316 0.951 . S
C4341 C4339 1.388 . S
C4341 C4342 1.366 . S
C4342 C4341 1.366 . S
C4342 C4343 1.414 . S
C4342 C4345 1.499 . S
C4343 H4317 0.950 . S
C4343 C4342 1.414 . S
C4343 C4344 1.374 . S
C4344 H4318 0.950 . S
C4344 C4340 1.385 . S
C4344 C4343 1.374 . S
C4345 C4342 1.499 . S
C4345 C4346 1.373 . S
C4345 C4347 1.389 . S
C4346 H4319 0.950 . S
C4346 C4332 1.377 . S
C4346 C4345 1.373 . S
C4347 C4331 1.377 . S
C4347 C4345 1.389 . S
C4347 C4348 1.524 . S
C4348 C4347 1.524 . S
C4348 C4349 1.397 . S
C4348 C4353 1.363 . S
C4349 H4320 0.950 . S
C4349 C4348 1.397 . S
C4349 C4350 1.334 . S
C4350 H4321 0.950 . S
C4350 C4349 1.334 . S
C4350 C4351 1.287 . S
C4351 C4350 1.287 . S
C4351 C4352 1.524 . S
C4351 H4354 0.999 . S
C4352 H4322 0.950 . S
C4352 C4351 1.524 . S
C4352 C4353 1.415 . S
C4353 H4323 0.950 . S
C4353 C4348 1.363 . S
C4353 C4352 1.415 . S
H4354 C4351 0.999 . S
H4355 C4336 0.913 . S
H4356 C4374 0.951 . S
H4357 C4376 0.951 . S
H4358 C4378 0.950 . S
H4359 C4379 0.950 . S
H4360 C4381 0.950 . S
H4361 C4384 0.950 . S
H4362 C4385 0.950 . S
H4363 C4387 0.950 . S
H4364 C4388 0.950 . S
H4365 C4389 0.951 . S
H4366 C4391 0.951 . S
H4367 C4393 0.950 . S
H4368 C4394 0.950 . S
H4369 C4396 0.950 . S
H4370 C4399 0.950 . S
H4371 C4400 0.950 . S
H4372 C4402 0.950 1_556 S
H4373 C4403 0.950 . S
C4374 H4356 0.951 . S
C4374 C4375 1.366 . S
C4374 C4376 1.388 . S
C4375 C4374 1.366 . S
C4375 C4379 1.385 . S
C4376 H4357 0.951 . S
C4376 C4374 1.388 . S
C4376 C4377 1.366 . S
C4377 C4376 1.366 . S
C4377 C4378 1.414 . S
C4377 C4380 1.499 . S
C4378 H4358 0.950 . S
C4378 C4377 1.414 . S
C4378 C4379 1.374 . S
C4379 H4359 0.950 . S
C4379 C4375 1.385 . S
C4379 C4378 1.374 . S
C4380 C4377 1.499 . S
C4380 C4381 1.373 . S
C4380 C4382 1.389 . S
C4381 H4360 0.950 . S
C4381 C4380 1.373 . S
C4381 C4397 1.377 . S
C4382 C4380 1.389 . S
C4382 C4383 1.524 . S
C4382 C4396 1.377 . S
C4383 C4382 1.524 . S
C4383 C4384 1.397 . S
C4383 C4388 1.363 . S
C4384 H4361 0.950 . S
C4384 C4383 1.397 . S
C4384 C4385 1.334 . S
C4385 H4362 0.950 . S
C4385 C4384 1.334 . S
C4385 C4386 1.287 . S
C4386 C4385 1.287 . S
C4386 C4387 1.524 . S
C4386 H4405 0.913 . S
C4387 H4363 0.950 . S
C4387 C4386 1.524 . S
C4387 C4388 1.415 . S
C4388 H4364 0.950 . S
C4388 C4383 1.363 . S
C4388 C4387 1.415 . S
C4389 H4365 0.951 . S
C4389 C4390 1.366 . S
C4389 C4391 1.388 . S
C4390 C4389 1.366 . S
C4390 C4394 1.385 . S
C4391 H4366 0.951 . S
C4391 C4389 1.388 . S
C4391 C4392 1.366 . S
C4392 C4391 1.366 . S
C4392 C4393 1.414 . S
C4392 C4395 1.499 . S
C4393 H4367 0.950 . S
C4393 C4392 1.414 . S
C4393 C4394 1.374 . S
C4394 H4368 0.950 . S
C4394 C4390 1.385 . S
C4394 C4393 1.374 . S
C4395 C4392 1.499 . S
C4395 C4396 1.373 . S
C4395 C4397 1.389 . S
C4396 H4369 0.950 . S
C4396 C4382 1.377 . S
C4396 C4395 1.373 . S
C4397 C4381 1.377 . S
C4397 C4395 1.389 . S
C4397 C4398 1.515 1_455 S
C4398 C4397 1.515 1_655 S
C4398 C4399 1.413 . S
C4398 C4403 1.358 1_655 S
C4399 H4370 0.950 . S
C4399 C4398 1.413 . S
C4399 C4400 1.334 . S
C4400 H4371 0.950 . S
C4400 C4399 1.334 . S
C4400 C4401 1.287 . S
C4401 C4400 1.287 . S
C4401 C4402 1.524 . S
C4401 H4404 0.999 1_554 S
C4402 H4372 0.950 1_554 S
C4402 C4401 1.524 . S
C4402 C4403 1.415 1_655 S
C4403 H4373 0.950 . S
C4403 C4398 1.358 1_455 S
C4403 C4402 1.415 1_455 S
H4404 C4401 0.999 1_556 S
H4405 C4386 0.913 . S
H4406 C4424 0.951 . S
H4407 C4426 0.951 . S
H4408 C4428 0.950 . S
H4409 C4429 0.950 . S
H4410 C4431 0.950 . S
H4411 C4434 0.950 . S
H4412 C4435 0.950 . S
H4413 C4437 0.950 . S
H4414 C4438 0.950 . S
H4415 C4439 0.951 . S
H4416 C4441 0.951 . S
H4417 C4443 0.950 . S
H4418 C4444 0.950 . S
H4419 C4446 0.950 . S
H4420 C4449 0.950 . S
H4421 C4450 0.950 . S
H4422 C4452 0.950 . S
H4423 C4453 0.950 . S
C4424 H4406 0.951 . S
C4424 C4425 1.366 . S
C4424 C4426 1.388 . S
C4425 C4424 1.366 . S
C4425 C4429 1.385 . S
C4426 H4407 0.951 . S
C4426 C4424 1.388 . S
C4426 C4427 1.366 . S
C4427 C4426 1.366 . S
C4427 C4428 1.414 . S
C4427 C4430 1.499 . S
C4428 H4408 0.950 . S
C4428 C4427 1.414 . S
C4428 C4429 1.374 . S
C4429 H4409 0.950 . S
C4429 C4425 1.385 . S
C4429 C4428 1.374 . S
C4430 C4427 1.499 . S
C4430 C4431 1.373 . S
C4430 C4432 1.389 . S
C4431 H4410 0.950 . S
C4431 C4430 1.373 . S
C4431 C4447 1.377 . S
C4432 C4430 1.389 . S
C4432 C4433 1.524 . S
C4432 C4446 1.377 . S
C4433 C4432 1.524 . S
C4433 C4434 1.397 . S
C4433 C4438 1.363 . S
C4434 H4411 0.950 . S
C4434 C4433 1.397 . S
C4434 C4435 1.334 . S
C4435 H4412 0.950 . S
C4435 C4434 1.334 . S
C4435 C4436 1.287 . S
C4436 C4435 1.287 . S
C4436 C4437 1.524 . S
C4436 H4455 0.913 . S
C4437 H4413 0.950 . S
C4437 C4436 1.524 . S
C4437 C4438 1.415 . S
C4438 H4414 0.950 . S
C4438 C4433 1.363 . S
C4438 C4437 1.415 . S
C4439 H4415 0.951 . S
C4439 C4440 1.366 . S
C4439 C4441 1.388 . S
C4440 C4439 1.366 . S
C4440 C4444 1.385 . S
C4441 H4416 0.951 . S
C4441 C4439 1.388 . S
C4441 C4442 1.366 . S
C4442 C4441 1.366 . S
C4442 C4443 1.414 . S
C4442 C4445 1.499 . S
C4443 H4417 0.950 . S
C4443 C4442 1.414 . S
C4443 C4444 1.374 . S
C4444 H4418 0.950 . S
C4444 C4440 1.385 . S
C4444 C4443 1.374 . S
C4445 C4442 1.499 . S
C4445 C4446 1.373 . S
C4445 C4447 1.389 . S
C4446 H4419 0.950 . S
C4446 C4432 1.377 . S
C4446 C4445 1.373 . S
C4447 C4431 1.377 . S
C4447 C4445 1.389 . S
C4447 C4448 1.524 . S
C4448 C4447 1.524 . S
C4448 C4449 1.397 . S
C4448 C4453 1.363 . S
C4449 H4420 0.950 . S
C4449 C4448 1.397 . S
C4449 C4450 1.334 . S
C4450 H4421 0.950 . S
C4450 C4449 1.334 . S
C4450 C4451 1.287 . S
C4451 C4450 1.287 . S
C4451 C4452 1.524 . S
C4451 H4454 0.999 . S
C4452 H4422 0.950 . S
C4452 C4451 1.524 . S
C4452 C4453 1.415 . S
C4453 H4423 0.950 . S
C4453 C4448 1.363 . S
C4453 C4452 1.415 . S
H4454 C4451 0.999 . S
H4455 C4436 0.913 . S
H4456 C4474 0.951 . S
H4457 C4476 0.951 . S
H4458 C4478 0.950 . S
H4459 C4479 0.950 . S
H4460 C4481 0.950 . S
H4461 C4484 0.950 . S
H4462 C4485 0.950 . S
H4463 C4487 0.950 . S
H4464 C4488 0.950 . S
H4465 C4489 1.005 . S
H4466 C4491 0.966 . S
H4467 C4493 0.950 . S
H4468 C4494 0.950 . S
H4469 C4496 0.950 . S
H4470 C4499 0.950 . S
H4471 C4500 0.950 . S
H4472 C4502 0.950 . S
H4473 C4503 0.950 . S
C4474 H4456 0.951 . S
C4474 C4475 1.366 . S
C4474 C4476 1.388 . S
C4475 C4474 1.366 . S
C4475 C4479 1.385 . S
C4476 H4457 0.951 . S
C4476 C4474 1.388 . S
C4476 C4477 1.366 . S
C4477 C4476 1.366 . S
C4477 C4478 1.414 . S
C4477 C4480 1.499 . S
C4478 H4458 0.950 . S
C4478 C4477 1.414 . S
C4478 C4479 1.374 . S
C4479 H4459 0.950 . S
C4479 C4475 1.385 . S
C4479 C4478 1.374 . S
C4480 C4477 1.499 . S
C4480 C4481 1.373 . S
C4480 C4482 1.389 . S
C4481 H4460 0.950 . S
C4481 C4480 1.373 . S
C4481 C4497 1.377 . S
C4482 C4480 1.389 . S
C4482 C4483 1.524 . S
C4482 C4496 1.377 . S
C4483 C4482 1.524 . S
C4483 C4484 1.397 . S
C4483 C4488 1.363 . S
C4484 H4461 0.950 . S
C4484 C4483 1.397 . S
C4484 C4485 1.334 . S
C4485 H4462 0.950 . S
C4485 C4484 1.334 . S
C4485 C4486 1.287 . S
C4486 C4485 1.287 . S
C4486 C4487 1.524 . S
C4486 H4505 0.913 . S
C4487 H4463 0.950 . S
C4487 C4486 1.524 . S
C4487 C4488 1.415 . S
C4488 H4464 0.950 . S
C4488 C4483 1.363 . S
C4488 C4487 1.415 . S
C4489 H4465 1.005 . S
C4489 C4490 1.342 1_554 S
C4489 C4491 1.360 1_554 S
C4490 C4489 1.342 1_556 S
C4490 C4494 1.385 . S
C4491 H4466 0.966 . S
C4491 C4489 1.360 1_556 S
C4491 C4492 1.366 . S
C4492 C4491 1.366 . S
C4492 C4493 1.414 . S
C4492 C4495 1.499 . S
C4493 H4467 0.950 . S
C4493 C4492 1.414 . S
C4493 C4494 1.374 . S
C4494 H4468 0.950 . S
C4494 C4490 1.385 . S
C4494 C4493 1.374 . S
C4495 C4492 1.499 . S
C4495 C4496 1.373 . S
C4495 C4497 1.389 . S
C4496 H4469 0.950 . S
C4496 C4482 1.377 . S
C4496 C4495 1.373 . S
C4497 C4481 1.377 . S
C4497 C4495 1.389 . S
C4497 C4498 1.524 . S
C4498 C4497 1.524 . S
C4498 C4499 1.397 . S
C4498 C4503 1.363 1_556 S
C4499 H4470 0.950 . S
C4499 C4498 1.397 . S
C4499 C4500 1.334 1_556 S
C4500 H4471 0.950 . S
C4500 C4499 1.334 1_554 S
C4500 C4501 1.287 . S
C4501 C4500 1.287 . S
C4501 C4502 1.524 . S
C4501 H4504 0.999 . S
C4502 H4472 0.950 . S
C4502 C4501 1.524 . S
C4502 C4503 1.415 . S
C4503 H4473 0.950 . S
C4503 C4498 1.363 1_554 S
C4503 C4502 1.415 . S
H4504 C4501 0.999 . S
H4505 C4486 0.913 . S
H4506 C4524 0.951 . S
H4507 C4526 0.951 . S
H4508 C4528 0.950 . S
H4509 C4529 0.950 . S
H4510 C4531 0.950 . S
H4511 C4534 0.950 . S
H4512 C4535 0.950 . S
H4513 C4537 0.950 . S
H4514 C4538 0.950 . S
H4515 C4539 0.951 . S
H4516 C4541 0.951 . S
H4517 C4543 0.950 . S
H4518 C4544 0.950 . S
H4519 C4546 0.950 . S
H4520 C4549 0.950 . S
H4521 C4550 0.950 . S
H4522 C4552 0.950 . S
H4523 C4553 0.950 . S
C4524 H4506 0.951 . S
C4524 C4525 1.366 . S
C4524 C4526 1.388 . S
C4525 C4524 1.366 . S
C4525 C4529 1.385 . S
C4526 H4507 0.951 . S
C4526 C4524 1.388 . S
C4526 C4527 1.366 . S
C4527 C4526 1.366 . S
C4527 C4528 1.414 . S
C4527 C4530 1.499 . S
C4528 H4508 0.950 . S
C4528 C4527 1.414 . S
C4528 C4529 1.374 . S
C4529 H4509 0.950 . S
C4529 C4525 1.385 . S
C4529 C4528 1.374 . S
C4530 C4527 1.499 . S
C4530 C4531 1.373 . S
C4530 C4532 1.389 . S
C4531 H4510 0.950 . S
C4531 C4530 1.373 . S
C4531 C4547 1.377 . S
C4532 C4530 1.389 . S
C4532 C4533 1.524 . S
C4532 C4546 1.377 . S
C4533 C4532 1.524 . S
C4533 C4534 1.397 . S
C4533 C4538 1.363 . S
C4534 H4511 0.950 . S
C4534 C4533 1.397 . S
C4534 C4535 1.334 . S
C4535 H4512 0.950 . S
C4535 C4534 1.334 . S
C4535 C4536 1.287 . S
C4536 C4535 1.287 . S
C4536 C4537 1.524 . S
C4536 H4555 0.913 . S
C4537 H4513 0.950 . S
C4537 C4536 1.524 . S
C4537 C4538 1.415 . S
C4538 H4514 0.950 . S
C4538 C4533 1.363 . S
C4538 C4537 1.415 . S
C4539 H4515 0.951 . S
C4539 C4540 1.366 . S
C4539 C4541 1.388 . S
C4540 C4539 1.366 . S
C4540 C4544 1.385 . S
C4541 H4516 0.951 . S
C4541 C4539 1.388 . S
C4541 C4542 1.366 . S
C4542 C4541 1.366 . S
C4542 C4543 1.414 . S
C4542 C4545 1.499 . S
C4543 H4517 0.950 . S
C4543 C4542 1.414 . S
C4543 C4544 1.374 . S
C4544 H4518 0.950 . S
C4544 C4540 1.385 . S
C4544 C4543 1.374 . S
C4545 C4542 1.499 . S
C4545 C4546 1.373 . S
C4545 C4547 1.389 . S
C4546 H4519 0.950 . S
C4546 C4532 1.377 . S
C4546 C4545 1.373 . S
C4547 C4531 1.377 . S
C4547 C4545 1.389 . S
C4547 C4548 1.524 . S
C4548 C4547 1.524 . S
C4548 C4549 1.397 . S
C4548 C4553 1.363 . S
C4549 H4520 0.950 . S
C4549 C4548 1.397 . S
C4549 C4550 1.334 . S
C4550 H4521 0.950 . S
C4550 C4549 1.334 . S
C4550 C4551 1.287 . S
C4551 C4550 1.287 . S
C4551 C4552 1.524 . S
C4551 H4554 0.999 . S
C4552 H4522 0.950 . S
C4552 C4551 1.524 . S
C4552 C4553 1.415 . S
C4553 H4523 0.950 . S
C4553 C4548 1.363 . S
C4553 C4552 1.415 . S
H4554 C4551 0.999 . S
H4555 C4536 0.913 . S
H4556 C4574 0.951 . S
H4557 C4576 0.961 . S
H4558 C4578 0.950 . S
H4559 C4579 0.950 . S
H4560 C4581 0.950 . S
H4561 C4584 0.950 . S
H4562 C4585 0.950 . S
H4563 C4587 0.950 . S
H4564 C4588 0.950 . S
H4565 C4589 0.951 . S
H4566 C4591 0.951 . S
H4567 C4593 0.950 1_655 S
H4568 C4594 0.950 1_655 S
H4569 C4596 0.950 1_655 S
H4570 C4599 0.950 . S
H4571 C4600 0.950 . S
H4572 C4602 0.950 . S
H4573 C4603 0.950 . S
C4574 H4556 0.951 . S
C4574 C4575 1.366 . S
C4574 C4576 1.388 . S
C4575 C4574 1.366 . S
C4575 C4579 1.385 . S
C4576 H4557 0.961 . S
C4576 C4574 1.388 . S
C4576 C4577 1.366 . S
C4577 C4576 1.366 . S
C4577 C4578 1.414 . S
C4577 C4580 1.499 . S
C4578 H4558 0.950 . S
C4578 C4577 1.414 . S
C4578 C4579 1.374 . S
C4579 H4559 0.950 . S
C4579 C4575 1.385 . S
C4579 C4578 1.374 . S
C4580 C4577 1.499 . S
C4580 C4581 1.373 . S
C4580 C4582 1.389 . S
C4581 H4560 0.950 . S
C4581 C4580 1.373 . S
C4581 C4597 1.377 . S
C4582 C4580 1.389 . S
C4582 C4583 1.524 1_455 S
C4582 C4596 1.377 . S
C4583 C4582 1.524 1_655 S
C4583 C4584 1.397 . S
C4583 C4588 1.363 . S
C4584 H4561 0.950 . S
C4584 C4583 1.397 . S
C4584 C4585 1.334 . S
C4585 H4562 0.950 . S
C4585 C4584 1.334 . S
C4585 C4586 1.287 . S
C4586 C4585 1.287 . S
C4586 C4587 1.524 . S
C4586 H4605 0.913 . S
C4587 H4563 0.950 . S
C4587 C4586 1.524 . S
C4587 C4588 1.415 . S
C4588 H4564 0.950 . S
C4588 C4583 1.363 . S
C4588 C4587 1.415 . S
C4589 H4565 0.951 . S
C4589 C4590 1.366 . S
C4589 C4591 1.388 . S
C4590 C4589 1.366 . S
C4590 C4594 1.385 . S
C4591 H4566 0.951 . S
C4591 C4589 1.388 . S
C4591 C4592 1.366 . S
C4592 C4591 1.366 . S
C4592 C4593 1.414 . S
C4592 C4595 1.499 . S
C4593 H4567 0.950 1_455 S
C4593 C4592 1.414 . S
C4593 C4594 1.374 . S
C4594 H4568 0.950 1_455 S
C4594 C4590 1.385 . S
C4594 C4593 1.374 . S
C4595 C4592 1.499 . S
C4595 C4596 1.373 . S
C4595 C4597 1.389 . S
C4596 H4569 0.950 1_455 S
C4596 C4582 1.377 . S
C4596 C4595 1.373 . S
C4597 C4581 1.377 . S
C4597 C4595 1.389 . S
C4597 C4598 1.524 . S
C4598 C4597 1.524 . S
C4598 C4599 1.397 . S
C4598 C4603 1.363 . S
C4599 H4570 0.950 . S
C4599 C4598 1.397 . S
C4599 C4600 1.334 . S
C4600 H4571 0.950 . S
C4600 C4599 1.334 . S
C4600 C4601 1.287 . S
C4601 C4600 1.287 . S
C4601 C4602 1.524 . S
C4601 H4604 0.999 . S
C4602 H4572 0.950 . S
C4602 C4601 1.524 . S
C4602 C4603 1.415 . S
C4603 H4573 0.950 . S
C4603 C4598 1.363 . S
C4603 C4602 1.415 . S
H4604 C4601 0.999 . S
H4605 C4586 0.913 . S
H4606 C4624 0.951 . S
H4607 C4626 0.951 . S
H4608 C4628 0.950 . S
H4609 C4629 0.950 . S
H4610 C4631 0.950 . S
H4611 C4634 0.950 . S
H4612 C4635 0.950 . S
H4613 C4637 0.950 . S
H4614 C4638 0.950 . S
H4615 C4639 0.951 . S
H4616 C4641 0.951 . S
H4617 C4643 0.950 . S
H4618 C4644 0.950 . S
H4619 C4646 0.950 . S
H4620 C4649 0.950 . S
H4621 C4650 0.950 . S
H4622 C4652 0.950 . S
H4623 C4653 0.950 . S
C4624 H4606 0.951 . S
C4624 C4625 1.366 . S
C4624 C4626 1.388 . S
C4625 C4624 1.366 . S
C4625 C4629 1.385 . S
C4626 H4607 0.951 . S
C4626 C4624 1.388 . S
C4626 C4627 1.366 . S
C4627 C4626 1.366 . S
C4627 C4628 1.414 . S
C4627 C4630 1.499 . S
C4628 H4608 0.950 . S
C4628 C4627 1.414 . S
C4628 C4629 1.374 . S
C4629 H4609 0.950 . S
C4629 C4625 1.385 . S
C4629 C4628 1.374 . S
C4630 C4627 1.499 . S
C4630 C4631 1.373 . S
C4630 C4632 1.389 . S
C4631 H4610 0.950 . S
C4631 C4630 1.373 . S
C4631 C4647 1.377 . S
C4632 C4630 1.389 . S
C4632 C4633 1.524 . S
C4632 C4646 1.377 . S
C4633 C4632 1.524 . S
C4633 C4634 1.397 . S
C4633 C4638 1.363 . S
C4634 H4611 0.950 . S
C4634 C4633 1.397 . S
C4634 C4635 1.334 . S
C4635 H4612 0.950 . S
C4635 C4634 1.334 . S
C4635 C4636 1.287 . S
C4636 C4635 1.287 . S
C4636 C4637 1.524 . S
C4636 H4655 0.913 . S
C4637 H4613 0.950 . S
C4637 C4636 1.524 . S
C4637 C4638 1.415 . S
C4638 H4614 0.950 . S
C4638 C4633 1.363 . S
C4638 C4637 1.415 . S
C4639 H4615 0.951 . S
C4639 C4640 1.366 . S
C4639 C4641 1.388 . S
C4640 C4639 1.366 . S
C4640 C4644 1.385 . S
C4641 H4616 0.951 . S
C4641 C4639 1.388 . S
C4641 C4642 1.366 . S
C4642 C4641 1.366 . S
C4642 C4643 1.414 . S
C4642 C4645 1.499 . S
C4643 H4617 0.950 . S
C4643 C4642 1.414 . S
C4643 C4644 1.374 . S
C4644 H4618 0.950 . S
C4644 C4640 1.385 . S
C4644 C4643 1.374 . S
C4645 C4642 1.499 . S
C4645 C4646 1.373 . S
C4645 C4647 1.389 . S
C4646 H4619 0.950 . S
C4646 C4632 1.377 . S
C4646 C4645 1.373 . S
C4647 C4631 1.377 . S
C4647 C4645 1.389 . S
C4647 C4648 1.524 . S
C4648 C4647 1.524 . S
C4648 C4649 1.397 . S
C4648 C4653 1.363 . S
C4649 H4620 0.950 . S
C4649 C4648 1.397 . S
C4649 C4650 1.334 . S
C4650 H4621 0.950 . S
C4650 C4649 1.334 . S
C4650 C4651 1.287 . S
C4651 C4650 1.287 . S
C4651 C4652 1.524 . S
C4651 H4654 0.999 . S
C4652 H4622 0.950 . S
C4652 C4651 1.524 . S
C4652 C4653 1.415 . S
C4653 H4623 0.950 . S
C4653 C4648 1.363 . S
C4653 C4652 1.415 . S
H4654 C4651 0.999 . S
H4655 C4636 0.913 . S
H4656 C4674 0.951 . S
H4657 C4676 0.951 . S
H4658 C4678 0.950 . S
H4659 C4679 0.950 . S
H4660 C4681 0.950 . S
H4661 C4684 0.950 . S
H4662 C4685 0.950 . S
H4663 C4687 0.950 . S
H4664 C4688 0.950 . S
H4665 C4689 0.951 . S
H4666 C4691 0.951 . S
H4667 C4693 0.950 . S
H4668 C4694 0.950 . S
H4669 C4696 0.950 . S
H4670 C4699 0.950 . S
H4671 C4700 0.950 . S
H4672 C4702 0.950 . S
H4673 C4703 0.950 . S
C4674 H4656 0.951 . S
C4674 C4675 1.366 . S
C4674 C4676 1.388 . S
C4675 C4674 1.366 . S
C4675 C4679 1.385 . S
C4676 H4657 0.951 . S
C4676 C4674 1.388 . S
C4676 C4677 1.366 . S
C4677 C4676 1.366 . S
C4677 C4678 1.414 . S
C4677 C4680 1.499 . S
C4678 H4658 0.950 . S
C4678 C4677 1.414 . S
C4678 C4679 1.374 . S
C4679 H4659 0.950 . S
C4679 C4675 1.385 . S
C4679 C4678 1.374 . S
C4680 C4677 1.499 . S
C4680 C4681 1.373 . S
C4680 C4682 1.389 . S
C4681 H4660 0.950 . S
C4681 C4680 1.373 . S
C4681 C4697 1.377 . S
C4682 C4680 1.389 . S
C4682 C4683 1.524 . S
C4682 C4696 1.377 . S
C4683 C4682 1.524 . S
C4683 C4684 1.397 . S
C4683 C4688 1.363 . S
C4684 H4661 0.950 . S
C4684 C4683 1.397 . S
C4684 C4685 1.334 . S
C4685 H4662 0.950 . S
C4685 C4684 1.334 . S
C4685 C4686 1.287 . S
C4686 C4685 1.287 . S
C4686 C4687 1.524 . S
C4686 H4705 0.913 . S
C4687 H4663 0.950 . S
C4687 C4686 1.524 . S
C4687 C4688 1.415 . S
C4688 H4664 0.950 . S
C4688 C4683 1.363 . S
C4688 C4687 1.415 . S
C4689 H4665 0.951 . S
C4689 C4690 1.366 . S
C4689 C4691 1.388 . S
C4690 C4689 1.366 . S
C4690 C4694 1.385 . S
C4691 H4666 0.951 . S
C4691 C4689 1.388 . S
C4691 C4692 1.366 . S
C4692 C4691 1.366 . S
C4692 C4693 1.414 . S
C4692 C4695 1.499 . S
C4693 H4667 0.950 . S
C4693 C4692 1.414 . S
C4693 C4694 1.374 . S
C4694 H4668 0.950 . S
C4694 C4690 1.385 . S
C4694 C4693 1.374 . S
C4695 C4692 1.499 . S
C4695 C4696 1.373 . S
C4695 C4697 1.389 . S
C4696 H4669 0.950 . S
C4696 C4682 1.377 . S
C4696 C4695 1.373 . S
C4697 C4681 1.377 . S
C4697 C4695 1.389 . S
C4697 C4698 1.524 . S
C4698 C4697 1.524 . S
C4698 C4699 1.397 . S
C4698 C4703 1.363 . S
C4699 H4670 0.950 . S
C4699 C4698 1.397 . S
C4699 C4700 1.334 . S
C4700 H4671 0.950 . S
C4700 C4699 1.334 . S
C4700 C4701 1.287 . S
C4701 C4700 1.287 . S
C4701 C4702 1.524 . S
C4701 H4704 0.999 . S
C4702 H4672 0.950 . S
C4702 C4701 1.524 . S
C4702 C4703 1.415 . S
C4703 H4673 0.950 . S
C4703 C4698 1.363 . S
C4703 C4702 1.415 . S
H4704 C4701 0.999 . S
H4705 C4686 0.913 . S
H4706 C4724 0.951 . S
H4707 C4726 0.951 . S
H4708 C4728 0.950 . S
H4709 C4729 0.950 . S
H4710 C4731 0.950 . S
H4711 C4734 0.950 . S
H4712 C4735 0.950 . S
H4713 C4737 0.950 . S
H4714 C4738 0.950 . S
H4715 C4739 0.951 . S
H4716 C4741 0.951 . S
H4717 C4743 0.950 . S
H4718 C4744 0.950 . S
H4719 C4746 0.950 . S
H4720 C4749 0.950 . S
H4721 C4750 0.950 . S
H4722 C4752 0.950 . S
H4723 C4753 0.950 . S
C4724 H4706 0.951 . S
C4724 C4725 1.366 . S
C4724 C4726 1.388 . S
C4725 C4724 1.366 . S
C4725 C4729 1.385 . S
C4726 H4707 0.951 . S
C4726 C4724 1.388 . S
C4726 C4727 1.366 . S
C4727 C4726 1.366 . S
C4727 C4728 1.414 . S
C4727 C4730 1.499 . S
C4728 H4708 0.950 . S
C4728 C4727 1.414 . S
C4728 C4729 1.374 . S
C4729 H4709 0.950 . S
C4729 C4725 1.385 . S
C4729 C4728 1.374 . S
C4730 C4727 1.499 . S
C4730 C4731 1.373 . S
C4730 C4732 1.389 . S
C4731 H4710 0.950 . S
C4731 C4730 1.373 . S
C4731 C4747 1.377 . S
C4732 C4730 1.389 . S
C4732 C4733 1.524 . S
C4732 C4746 1.377 . S
C4733 C4732 1.524 . S
C4733 C4734 1.397 . S
C4733 C4738 1.363 . S
C4734 H4711 0.950 . S
C4734 C4733 1.397 . S
C4734 C4735 1.334 . S
C4735 H4712 0.950 . S
C4735 C4734 1.334 . S
C4735 C4736 1.287 . S
C4736 C4735 1.287 . S
C4736 C4737 1.524 . S
C4736 H4755 0.913 . S
C4737 H4713 0.950 . S
C4737 C4736 1.524 . S
C4737 C4738 1.415 . S
C4738 H4714 0.950 . S
C4738 C4733 1.363 . S
C4738 C4737 1.415 . S
C4739 H4715 0.951 . S
C4739 C4740 1.366 . S
C4739 C4741 1.388 . S
C4740 C4739 1.366 . S
C4740 C4744 1.385 . S
C4741 H4716 0.951 . S
C4741 C4739 1.388 . S
C4741 C4742 1.366 . S
C4742 C4741 1.366 . S
C4742 C4743 1.414 . S
C4742 C4745 1.499 . S
C4743 H4717 0.950 . S
C4743 C4742 1.414 . S
C4743 C4744 1.374 . S
C4744 H4718 0.950 . S
C4744 C4740 1.385 . S
C4744 C4743 1.374 . S
C4745 C4742 1.499 . S
C4745 C4746 1.373 . S
C4745 C4747 1.389 . S
C4746 H4719 0.950 . S
C4746 C4732 1.377 . S
C4746 C4745 1.373 . S
C4747 C4731 1.377 . S
C4747 C4745 1.389 . S
C4747 C4748 1.524 . S
C4748 C4747 1.524 . S
C4748 C4749 1.397 . S
C4748 C4753 1.363 . S
C4749 H4720 0.950 . S
C4749 C4748 1.397 . S
C4749 C4750 1.334 . S
C4750 H4721 0.950 . S
C4750 C4749 1.334 . S
C4750 C4751 1.287 . S
C4751 C4750 1.287 . S
C4751 C4752 1.524 . S
C4751 H4754 0.999 . S
C4752 H4722 0.950 . S
C4752 C4751 1.524 . S
C4752 C4753 1.415 . S
C4753 H4723 0.950 . S
C4753 C4748 1.363 . S
C4753 C4752 1.415 . S
H4754 C4751 0.999 . S
H4755 C4736 0.913 . S
H4756 C4774 0.951 . S
H4757 C4776 0.951 . S
H4758 C4778 0.950 . S
H4759 C4779 0.950 . S
H4760 C4781 0.950 . S
H4761 C4784 0.950 . S
H4762 C4785 0.950 . S
H4763 C4787 0.950 . S
H4764 C4788 0.926 1_455 S
H4765 C4789 0.951 . S
H4766 C4791 0.951 . S
H4767 C4793 0.950 1_455 S
H4768 C4794 0.950 . S
H4769 C4796 0.950 . S
H4770 C4799 0.950 . S
H4771 C4800 0.950 . S
H4772 C4802 0.950 . S
H4773 C4803 0.950 . S
C4774 H4756 0.951 . S
C4774 C4775 1.366 . S
C4774 C4776 1.388 . S
C4775 C4774 1.366 . S
C4775 C4779 1.385 . S
C4776 H4757 0.951 . S
C4776 C4774 1.388 . S
C4776 C4777 1.366 . S
C4777 C4776 1.366 . S
C4777 C4778 1.414 . S
C4777 C4780 1.499 . S
C4778 H4758 0.950 . S
C4778 C4777 1.414 . S
C4778 C4779 1.374 . S
C4779 H4759 0.950 . S
C4779 C4775 1.385 . S
C4779 C4778 1.374 . S
C4780 C4777 1.499 . S
C4780 C4781 1.373 . S
C4780 C4782 1.389 . S
C4781 H4760 0.950 . S
C4781 C4780 1.373 . S
C4781 C4797 1.377 . S
C4782 C4780 1.389 . S
C4782 C4783 1.524 . S
C4782 C4796 1.377 . S
C4783 C4782 1.524 . S
C4783 C4784 1.397 . S
C4783 C4788 1.363 . S
C4784 H4761 0.950 . S
C4784 C4783 1.397 . S
C4784 C4785 1.334 . S
C4785 H4762 0.950 . S
C4785 C4784 1.334 . S
C4785 C4786 1.287 . S
C4786 C4785 1.287 . S
C4786 C4787 1.524 1_655 S
C4786 H4805 0.913 . S
C4787 H4763 0.950 . S
C4787 C4786 1.524 1_455 S
C4787 C4788 1.415 1_455 S
C4788 H4764 0.926 1_655 S
C4788 C4783 1.363 . S
C4788 C4787 1.415 1_655 S
C4789 H4765 0.951 . S
C4789 C4790 1.366 . S
C4789 C4791 1.388 . S
C4790 C4789 1.366 . S
C4790 C4794 1.385 1_655 S
C4791 H4766 0.951 . S
C4791 C4789 1.388 . S
C4791 C4792 1.366 . S
C4792 C4791 1.366 . S
C4792 C4793 1.414 . S
C4792 C4795 1.499 . S
C4793 H4767 0.950 1_655 S
C4793 C4792 1.414 . S
C4793 C4794 1.374 1_655 S
C4794 H4768 0.950 . S
C4794 C4790 1.385 1_455 S
C4794 C4793 1.374 1_455 S
C4795 C4792 1.499 . S
C4795 C4796 1.373 . S
C4795 C4797 1.389 . S
C4796 H4769 0.950 . S
C4796 C4782 1.377 . S
C4796 C4795 1.373 . S
C4797 C4781 1.377 . S
C4797 C4795 1.389 . S
C4797 C4798 1.524 . S
C4798 C4797 1.524 . S
C4798 C4799 1.397 . S
C4798 C4803 1.363 . S
C4799 H4770 0.950 . S
C4799 C4798 1.397 . S
C4799 C4800 1.334 . S
C4800 H4771 0.950 . S
C4800 C4799 1.334 . S
C4800 C4801 1.287 . S
C4801 C4800 1.287 . S
C4801 C4802 1.524 . S
C4801 H4804 0.999 . S
C4802 H4772 0.950 . S
C4802 C4801 1.524 . S
C4802 C4803 1.415 . S
C4803 H4773 0.950 . S
C4803 C4798 1.363 . S
C4803 C4802 1.415 . S
H4804 C4801 0.999 . S
H4805 C4786 0.913 . S
H4806 C4824 0.951 . S
H4807 C4826 0.951 . S
H4808 C4828 0.950 . S
H4809 C4829 0.950 . S
H4810 C4831 0.950 . S
H4811 C4834 0.950 . S
H4812 C4835 0.950 . S
H4813 C4837 0.950 . S
H4814 C4838 0.950 . S
H4815 C4839 0.951 . S
H4816 C4841 0.951 . S
H4817 C4843 0.950 . S
H4818 C4844 0.950 . S
H4819 C4846 0.950 . S
H4820 C4849 0.950 . S
H4821 C4850 0.950 . S
H4822 C4852 0.950 . S
H4823 C4853 0.950 . S
C4824 H4806 0.951 . S
C4824 C4825 1.366 . S
C4824 C4826 1.388 . S
C4825 C4824 1.366 . S
C4825 C4829 1.385 . S
C4826 H4807 0.951 . S
C4826 C4824 1.388 . S
C4826 C4827 1.366 . S
C4827 C4826 1.366 . S
C4827 C4828 1.414 . S
C4827 C4830 1.499 . S
C4828 H4808 0.950 . S
C4828 C4827 1.414 . S
C4828 C4829 1.374 . S
C4829 H4809 0.950 . S
C4829 C4825 1.385 . S
C4829 C4828 1.374 . S
C4830 C4827 1.499 . S
C4830 C4831 1.373 . S
C4830 C4832 1.389 . S
C4831 H4810 0.950 . S
C4831 C4830 1.373 . S
C4831 C4847 1.377 . S
C4832 C4830 1.389 . S
C4832 C4833 1.524 . S
C4832 C4846 1.377 . S
C4833 C4832 1.524 . S
C4833 C4834 1.397 . S
C4833 C4838 1.363 . S
C4834 H4811 0.950 . S
C4834 C4833 1.397 . S
C4834 C4835 1.334 . S
C4835 H4812 0.950 . S
C4835 C4834 1.334 . S
C4835 C4836 1.287 . S
C4836 C4835 1.287 . S
C4836 C4837 1.524 . S
C4836 H4855 0.913 . S
C4837 H4813 0.950 . S
C4837 C4836 1.524 . S
C4837 C4838 1.415 . S
C4838 H4814 0.950 . S
C4838 C4833 1.363 . S
C4838 C4837 1.415 . S
C4839 H4815 0.951 . S
C4839 C4840 1.366 . S
C4839 C4841 1.388 . S
C4840 C4839 1.366 . S
C4840 C4844 1.385 . S
C4841 H4816 0.951 . S
C4841 C4839 1.388 . S
C4841 C4842 1.366 . S
C4842 C4841 1.366 . S
C4842 C4843 1.414 . S
C4842 C4845 1.499 . S
C4843 H4817 0.950 . S
C4843 C4842 1.414 . S
C4843 C4844 1.374 . S
C4844 H4818 0.950 . S
C4844 C4840 1.385 . S
C4844 C4843 1.374 . S
C4845 C4842 1.499 . S
C4845 C4846 1.373 . S
C4845 C4847 1.389 . S
C4846 H4819 0.950 . S
C4846 C4832 1.377 . S
C4846 C4845 1.373 . S
C4847 C4831 1.377 . S
C4847 C4845 1.389 . S
C4847 C4848 1.524 . S
C4848 C4847 1.524 . S
C4848 C4849 1.397 . S
C4848 C4853 1.363 . S
C4849 H4820 0.950 . S
C4849 C4848 1.397 . S
C4849 C4850 1.334 . S
C4850 H4821 0.950 . S
C4850 C4849 1.334 . S
C4850 C4851 1.287 . S
C4851 C4850 1.287 . S
C4851 C4852 1.524 . S
C4851 H4854 0.999 . S
C4852 H4822 0.950 . S
C4852 C4851 1.524 . S
C4852 C4853 1.415 . S
C4853 H4823 0.950 . S
C4853 C4848 1.363 . S
C4853 C4852 1.415 . S
H4854 C4851 0.999 . S
H4855 C4836 0.913 . S
H4856 C4874 0.951 . S
H4857 C4876 0.951 . S
H4858 C4878 0.950 . S
H4859 C4879 0.950 . S
H4860 C4881 0.950 . S
H4861 C4884 0.950 . S
H4862 C4885 0.950 . S
H4863 C4887 0.950 . S
H4864 C4888 0.950 . S
H4865 C4889 0.951 . S
H4866 C4891 0.951 . S
H4867 C4893 0.950 . S
H4868 C4894 0.950 . S
H4869 C4896 0.950 . S
H4870 C4899 0.950 . S
H4871 C4900 0.950 . S
H4872 C4902 0.950 . S
H4873 C4903 0.950 . S
C4874 H4856 0.951 . S
C4874 C4875 1.366 . S
C4874 C4876 1.388 . S
C4875 C4874 1.366 . S
C4875 C4879 1.385 . S
C4876 H4857 0.951 . S
C4876 C4874 1.388 . S
C4876 C4877 1.366 . S
C4877 C4876 1.366 . S
C4877 C4878 1.414 . S
C4877 C4880 1.499 . S
C4878 H4858 0.950 . S
C4878 C4877 1.414 . S
C4878 C4879 1.374 . S
C4879 H4859 0.950 . S
C4879 C4875 1.385 . S
C4879 C4878 1.374 . S
C4880 C4877 1.499 . S
C4880 C4881 1.373 . S
C4880 C4882 1.389 . S
C4881 H4860 0.950 . S
C4881 C4880 1.373 . S
C4881 C4897 1.377 . S
C4882 C4880 1.389 . S
C4882 C4883 1.524 . S
C4882 C4896 1.377 . S
C4883 C4882 1.524 . S
C4883 C4884 1.397 . S
C4883 C4888 1.363 . S
C4884 H4861 0.950 . S
C4884 C4883 1.397 . S
C4884 C4885 1.334 . S
C4885 H4862 0.950 . S
C4885 C4884 1.334 . S
C4885 C4886 1.287 . S
C4886 C4885 1.287 . S
C4886 C4887 1.524 . S
C4886 H4905 0.913 . S
C4887 H4863 0.950 . S
C4887 C4886 1.524 . S
C4887 C4888 1.415 . S
C4888 H4864 0.950 . S
C4888 C4883 1.363 . S
C4888 C4887 1.415 . S
C4889 H4865 0.951 . S
C4889 C4890 1.366 . S
C4889 C4891 1.388 . S
C4890 C4889 1.366 . S
C4890 C4894 1.385 . S
C4891 H4866 0.951 . S
C4891 C4889 1.388 . S
C4891 C4892 1.366 . S
C4892 C4891 1.366 . S
C4892 C4893 1.414 . S
C4892 C4895 1.499 . S
C4893 H4867 0.950 . S
C4893 C4892 1.414 . S
C4893 C4894 1.374 . S
C4894 H4868 0.950 . S
C4894 C4890 1.385 . S
C4894 C4893 1.374 . S
C4895 C4892 1.499 . S
C4895 C4896 1.373 . S
C4895 C4897 1.389 . S
C4896 H4869 0.950 . S
C4896 C4882 1.377 . S
C4896 C4895 1.373 . S
C4897 C4881 1.377 . S
C4897 C4895 1.389 . S
C4897 C4898 1.524 . S
C4898 C4897 1.524 . S
C4898 C4899 1.397 . S
C4898 C4903 1.363 . S
C4899 H4870 0.950 . S
C4899 C4898 1.397 . S
C4899 C4900 1.334 . S
C4900 H4871 0.950 . S
C4900 C4899 1.334 . S
C4900 C4901 1.287 . S
C4901 C4900 1.287 . S
C4901 C4902 1.524 . S
C4901 H4904 0.999 . S
C4902 H4872 0.950 . S
C4902 C4901 1.524 . S
C4902 C4903 1.415 . S
C4903 H4873 0.950 . S
C4903 C4898 1.363 . S
C4903 C4902 1.415 . S
H4904 C4901 0.999 . S
H4905 C4886 0.913 . S
H4906 C4924 0.951 . S
H4907 C4926 0.951 . S
H4908 C4928 0.950 . S
H4909 C4929 0.950 . S
H4910 C4931 0.950 . S
H4911 C4934 0.950 . S
H4912 C4935 0.950 . S
H4913 C4937 0.950 . S
H4914 C4938 0.950 . S
H4915 C4939 0.951 . S
H4916 C4941 0.951 . S
H4917 C4943 0.950 . S
H4918 C4944 0.950 . S
H4919 C4946 0.950 . S
H4920 C4949 0.950 . S
H4921 C4950 0.950 . S
H4922 C4952 0.950 . S
H4923 C4953 0.950 . S
C4924 H4906 0.951 . S
C4924 C4925 1.366 . S
C4924 C4926 1.388 . S
C4925 C4924 1.366 . S
C4925 C4929 1.385 . S
C4926 H4907 0.951 . S
C4926 C4924 1.388 . S
C4926 C4927 1.366 . S
C4927 C4926 1.366 . S
C4927 C4928 1.414 . S
C4927 C4930 1.499 . S
C4928 H4908 0.950 . S
C4928 C4927 1.414 . S
C4928 C4929 1.374 . S
C4929 H4909 0.950 . S
C4929 C4925 1.385 . S
C4929 C4928 1.374 . S
C4930 C4927 1.499 . S
C4930 C4931 1.373 . S
C4930 C4932 1.389 . S
C4931 H4910 0.950 . S
C4931 C4930 1.373 . S
C4931 C4947 1.377 . S
C4932 C4930 1.389 . S
C4932 C4933 1.524 . S
C4932 C4946 1.377 . S
C4933 C4932 1.524 . S
C4933 C4934 1.397 . S
C4933 C4938 1.363 . S
C4934 H4911 0.950 . S
C4934 C4933 1.397 . S
C4934 C4935 1.334 . S
C4935 H4912 0.950 . S
C4935 C4934 1.334 . S
C4935 C4936 1.287 . S
C4936 C4935 1.287 . S
C4936 C4937 1.524 . S
C4936 H4955 0.913 . S
C4937 H4913 0.950 . S
C4937 C4936 1.524 . S
C4937 C4938 1.415 . S
C4938 H4914 0.950 . S
C4938 C4933 1.363 . S
C4938 C4937 1.415 . S
C4939 H4915 0.951 . S
C4939 C4940 1.366 . S
C4939 C4941 1.388 . S
C4940 C4939 1.366 . S
C4940 C4944 1.385 . S
C4941 H4916 0.951 . S
C4941 C4939 1.388 . S
C4941 C4942 1.366 . S
C4942 C4941 1.366 . S
C4942 C4943 1.414 . S
C4942 C4945 1.499 . S
C4943 H4917 0.950 . S
C4943 C4942 1.414 . S
C4943 C4944 1.374 . S
C4944 H4918 0.950 . S
C4944 C4940 1.385 . S
C4944 C4943 1.374 . S
C4945 C4942 1.499 . S
C4945 C4946 1.373 . S
C4945 C4947 1.389 . S
C4946 H4919 0.950 . S
C4946 C4932 1.377 . S
C4946 C4945 1.373 . S
C4947 C4931 1.377 . S
C4947 C4945 1.389 . S
C4947 C4948 1.524 . S
C4948 C4947 1.524 . S
C4948 C4949 1.397 . S
C4948 C4953 1.363 . S
C4949 H4920 0.950 . S
C4949 C4948 1.397 . S
C4949 C4950 1.334 . S
C4950 H4921 0.950 . S
C4950 C4949 1.334 . S
C4950 C4951 1.287 . S
C4951 C4950 1.287 . S
C4951 C4952 1.524 . S
C4951 H4954 0.999 . S
C4952 H4922 0.950 . S
C4952 C4951 1.524 . S
C4952 C4953 1.415 . S
C4953 H4923 0.950 . S
C4953 C4948 1.363 . S
C4953 C4952 1.415 . S
H4954 C4951 0.999 . S
H4955 C4936 0.913 . S
H4956 C4974 0.951 . S
H4957 C4976 0.951 . S
H4958 C4978 0.950 . S
H4959 C4979 0.950 . S
H4960 C4981 0.950 . S
H4961 C4984 0.950 . S
H4962 C4985 0.950 . S
H4963 C4987 0.950 . S
H4964 C4988 0.950 . S
H4965 C4989 0.951 1_455 S
H4966 C4991 0.951 . S
H4967 C4993 0.950 . S
H4968 C4994 0.950 . S
H4969 C4996 0.950 . S
H4970 C4999 0.950 . S
H4971 C5000 0.950 . S
H4972 C5002 0.950 . S
H4973 C5003 0.950 . S
C4974 H4956 0.951 . S
C4974 C4975 1.366 . S
C4974 C4976 1.388 . S
C4975 C4974 1.366 . S
C4975 C4979 1.385 . S
C4976 H4957 0.951 . S
C4976 C4974 1.388 . S
C4976 C4977 1.366 . S
C4977 C4976 1.366 . S
C4977 C4978 1.414 . S
C4977 C4980 1.499 . S
C4978 H4958 0.950 . S
C4978 C4977 1.414 . S
C4978 C4979 1.374 . S
C4979 H4959 0.950 . S
C4979 C4975 1.385 . S
C4979 C4978 1.374 . S
C4980 C4977 1.499 . S
C4980 C4981 1.373 . S
C4980 C4982 1.389 . S
C4981 H4960 0.950 . S
C4981 C4980 1.373 . S
C4981 C4997 1.377 . S
C4982 C4980 1.389 . S
C4982 C4983 1.524 . S
C4982 C4996 1.377 . S
C4983 C4982 1.524 . S
C4983 C4984 1.397 . S
C4983 C4988 1.363 . S
C4984 H4961 0.950 . S
C4984 C4983 1.397 . S
C4984 C4985 1.334 . S
C4985 H4962 0.950 . S
C4985 C4984 1.334 . S
C4985 C4986 1.287 . S
C4986 C4985 1.287 . S
C4986 C4987 1.524 . S
C4986 H5005 0.913 . S
C4987 H4963 0.950 . S
C4987 C4986 1.524 . S
C4987 C4988 1.415 . S
C4988 H4964 0.950 . S
C4988 C4983 1.363 . S
C4988 C4987 1.415 . S
C4989 H4965 0.951 1_655 S
C4989 C4990 1.366 . S
C4989 C4991 1.388 . S
C4990 C4989 1.366 . S
C4990 C4994 1.385 . S
C4991 H4966 0.951 . S
C4991 C4989 1.388 . S
C4991 C4992 1.366 . S
C4992 C4991 1.366 . S
C4992 C4993 1.414 . S
C4992 C4995 1.499 . S
C4993 H4967 0.950 . S
C4993 C4992 1.414 . S
C4993 C4994 1.374 . S
C4994 H4968 0.950 . S
C4994 C4990 1.385 . S
C4994 C4993 1.374 . S
C4995 C4992 1.499 . S
C4995 C4996 1.373 . S
C4995 C4997 1.389 . S
C4996 H4969 0.950 . S
C4996 C4982 1.377 . S
C4996 C4995 1.373 . S
C4997 C4981 1.377 . S
C4997 C4995 1.389 . S
C4997 C4998 1.524 . S
C4998 C4997 1.524 . S
C4998 C4999 1.397 . S
C4998 C5003 1.363 . S
C4999 H4970 0.950 . S
C4999 C4998 1.397 . S
C4999 C5000 1.334 . S
C5000 H4971 0.950 . S
C5000 C4999 1.334 . S
C5000 C5001 1.287 1_655 S
C5001 C5000 1.287 1_455 S
C5001 C5002 1.524 . S
C5001 H5004 0.999 . S
C5002 H4972 0.950 . S
C5002 C5001 1.524 . S
C5002 C5003 1.415 1_455 S
C5003 H4973 0.950 . S
C5003 C4998 1.363 . S
C5003 C5002 1.415 1_655 S
H5004 C5001 0.999 . S
H5005 C4986 0.913 . S
H5006 C5024 0.951 . S
H5007 C5026 0.951 . S
H5008 C5028 0.950 . S
H5009 C5029 0.950 . S
H5010 C5031 0.950 . S
H5011 C5034 0.950 . S
H5012 C5035 0.950 . S
H5013 C5037 0.950 . S
H5014 C5038 0.950 . S
H5015 C5039 0.951 . S
H5016 C5041 0.951 . S
H5017 C5043 0.950 . S
H5018 C5044 0.950 . S
H5019 C5046 0.950 . S
H5020 C5049 0.950 . S
H5021 C5050 0.950 . S
H5022 C5052 0.950 . S
H5023 C5053 0.950 . S
C5024 H5006 0.951 . S
C5024 C5025 1.366 . S
C5024 C5026 1.388 . S
C5025 C5024 1.366 . S
C5025 C5029 1.385 . S
C5026 H5007 0.951 . S
C5026 C5024 1.388 . S
C5026 C5027 1.366 . S
C5027 C5026 1.366 . S
C5027 C5028 1.414 . S
C5027 C5030 1.499 . S
C5028 H5008 0.950 . S
C5028 C5027 1.414 . S
C5028 C5029 1.374 . S
C5029 H5009 0.950 . S
C5029 C5025 1.385 . S
C5029 C5028 1.374 . S
C5030 C5027 1.499 . S
C5030 C5031 1.373 . S
C5030 C5032 1.389 . S
C5031 H5010 0.950 . S
C5031 C5030 1.373 . S
C5031 C5047 1.377 . S
C5032 C5030 1.389 . S
C5032 C5033 1.524 . S
C5032 C5046 1.377 . S
C5033 C5032 1.524 . S
C5033 C5034 1.397 . S
C5033 C5038 1.363 . S
C5034 H5011 0.950 . S
C5034 C5033 1.397 . S
C5034 C5035 1.334 . S
C5035 H5012 0.950 . S
C5035 C5034 1.334 . S
C5035 C5036 1.287 . S
C5036 C5035 1.287 . S
C5036 C5037 1.524 . S
C5036 H5055 0.913 . S
C5037 H5013 0.950 . S
C5037 C5036 1.524 . S
C5037 C5038 1.415 . S
C5038 H5014 0.950 . S
C5038 C5033 1.363 . S
C5038 C5037 1.415 . S
C5039 H5015 0.951 . S
C5039 C5040 1.366 . S
C5039 C5041 1.388 . S
C5040 C5039 1.366 . S
C5040 C5044 1.385 . S
C5041 H5016 0.951 . S
C5041 C5039 1.388 . S
C5041 C5042 1.366 . S
C5042 C5041 1.366 . S
C5042 C5043 1.414 . S
C5042 C5045 1.499 . S
C5043 H5017 0.950 . S
C5043 C5042 1.414 . S
C5043 C5044 1.374 . S
C5044 H5018 0.950 . S
C5044 C5040 1.385 . S
C5044 C5043 1.374 . S
C5045 C5042 1.499 . S
C5045 C5046 1.373 . S
C5045 C5047 1.389 . S
C5046 H5019 0.950 . S
C5046 C5032 1.377 . S
C5046 C5045 1.373 . S
C5047 C5031 1.377 . S
C5047 C5045 1.389 . S
C5047 C5048 1.524 . S
C5048 C5047 1.524 . S
C5048 C5049 1.397 . S
C5048 C5053 1.363 . S
C5049 H5020 0.950 . S
C5049 C5048 1.397 . S
C5049 C5050 1.334 . S
C5050 H5021 0.950 . S
C5050 C5049 1.334 . S
C5050 C5051 1.287 . S
C5051 C5050 1.287 . S
C5051 C5052 1.524 . S
C5051 H5054 0.999 . S
C5052 H5022 0.950 . S
C5052 C5051 1.524 . S
C5052 C5053 1.415 . S
C5053 H5023 0.950 . S
C5053 C5048 1.363 . S
C5053 C5052 1.415 . S
H5054 C5051 0.999 . S
H5055 C5036 0.913 . S
H5056 C5074 0.951 . S
H5057 C5076 0.951 . S
H5058 C5078 0.950 . S
H5059 C5079 0.950 . S
H5060 C5081 0.950 . S
H5061 C5084 0.950 . S
H5062 C5085 0.950 . S
H5063 C5087 0.950 . S
H5064 C5088 0.950 . S
H5065 C5089 0.951 . S
H5066 C5091 0.951 . S
H5067 C5093 0.950 . S
H5068 C5094 0.950 . S
H5069 C5096 0.950 . S
H5070 C5099 0.950 . S
H5071 C5100 0.950 . S
H5072 C5102 0.950 . S
H5073 C5103 0.950 . S
C5074 H5056 0.951 . S
C5074 C5075 1.366 . S
C5074 C5076 1.388 . S
C5075 C5074 1.366 . S
C5075 C5079 1.385 . S
C5076 H5057 0.951 . S
C5076 C5074 1.388 . S
C5076 C5077 1.366 . S
C5077 C5076 1.366 . S
C5077 C5078 1.414 . S
C5077 C5080 1.499 . S
C5078 H5058 0.950 . S
C5078 C5077 1.414 . S
C5078 C5079 1.374 . S
C5079 H5059 0.950 . S
C5079 C5075 1.385 . S
C5079 C5078 1.374 . S
C5080 C5077 1.499 . S
C5080 C5081 1.373 . S
C5080 C5082 1.389 . S
C5081 H5060 0.950 . S
C5081 C5080 1.373 . S
C5081 C5097 1.377 . S
C5082 C5080 1.389 . S
C5082 C5083 1.524 . S
C5082 C5096 1.377 . S
C5083 C5082 1.524 . S
C5083 C5084 1.397 . S
C5083 C5088 1.363 . S
C5084 H5061 0.950 . S
C5084 C5083 1.397 . S
C5084 C5085 1.334 . S
C5085 H5062 0.950 . S
C5085 C5084 1.334 . S
C5085 C5086 1.287 . S
C5086 C5085 1.287 . S
C5086 C5087 1.524 . S
C5086 H5105 0.913 . S
C5087 H5063 0.950 . S
C5087 C5086 1.524 . S
C5087 C5088 1.415 . S
C5088 H5064 0.950 . S
C5088 C5083 1.363 . S
C5088 C5087 1.415 . S
C5089 H5065 0.951 . S
C5089 C5090 1.366 . S
C5089 C5091 1.388 . S
C5090 C5089 1.366 . S
C5090 C5094 1.385 . S
C5091 H5066 0.951 . S
C5091 C5089 1.388 . S
C5091 C5092 1.366 . S
C5092 C5091 1.366 . S
C5092 C5093 1.414 . S
C5092 C5095 1.499 . S
C5093 H5067 0.950 . S
C5093 C5092 1.414 . S
C5093 C5094 1.374 . S
C5094 H5068 0.950 . S
C5094 C5090 1.385 . S
C5094 C5093 1.374 . S
C5095 C5092 1.499 . S
C5095 C5096 1.373 . S
C5095 C5097 1.389 . S
C5096 H5069 0.950 . S
C5096 C5082 1.377 . S
C5096 C5095 1.373 . S
C5097 C5081 1.377 . S
C5097 C5095 1.389 . S
C5097 C5098 1.524 . S
C5098 C5097 1.524 . S
C5098 C5099 1.397 . S
C5098 C5103 1.363 . S
C5099 H5070 0.950 . S
C5099 C5098 1.397 . S
C5099 C5100 1.334 . S
C5100 H5071 0.950 . S
C5100 C5099 1.334 . S
C5100 C5101 1.287 . S
C5101 C5100 1.287 . S
C5101 C5102 1.524 . S
C5101 H5104 0.999 . S
C5102 H5072 0.950 . S
C5102 C5101 1.524 . S
C5102 C5103 1.415 . S
C5103 H5073 0.950 . S
C5103 C5098 1.363 . S
C5103 C5102 1.415 . S
H5104 C5101 0.999 . S
H5105 C5086 0.913 . S
H5106 C5124 0.951 . S
H5107 C5126 0.951 . S
H5108 C5128 0.950 . S
H5109 C5129 0.950 . S
H5110 C5131 0.950 . S
H5111 C5134 0.950 . S
H5112 C5135 0.950 . S
H5113 C5137 0.950 . S
H5114 C5138 0.950 . S
H5115 C5139 0.951 . S
H5116 C5141 0.951 . S
H5117 C5143 0.950 . S
H5118 C5144 0.950 1_545 S
H5119 C5146 0.950 . S
H5120 C5149 0.950 . S
H5121 C5150 0.950 . S
H5122 C5152 0.950 . S
H5123 C5153 0.950 . S
C5124 H5106 0.951 . S
C5124 C5125 1.366 . S
C5124 C5126 1.388 . S
C5125 C5124 1.366 . S
C5125 C5129 1.385 . S
C5126 H5107 0.951 . S
C5126 C5124 1.388 . S
C5126 C5127 1.366 . S
C5127 C5126 1.366 . S
C5127 C5128 1.414 . S
C5127 C5130 1.499 . S
C5128 H5108 0.950 . S
C5128 C5127 1.414 . S
C5128 C5129 1.374 . S
C5129 H5109 0.950 . S
C5129 C5125 1.385 . S
C5129 C5128 1.374 . S
C5130 C5127 1.499 . S
C5130 C5131 1.373 . S
C5130 C5132 1.389 . S
C5131 H5110 0.950 . S
C5131 C5130 1.373 . S
C5131 C5147 1.377 . S
C5132 C5130 1.389 . S
C5132 C5133 1.524 . S
C5132 C5146 1.377 . S
C5133 C5132 1.524 . S
C5133 C5134 1.397 . S
C5133 C5138 1.363 . S
C5134 H5111 0.950 . S
C5134 C5133 1.397 . S
C5134 C5135 1.334 . S
C5135 H5112 0.950 . S
C5135 C5134 1.334 . S
C5135 C5136 1.287 . S
C5136 C5135 1.287 . S
C5136 C5137 1.524 . S
C5136 H5155 0.913 . S
C5137 H5113 0.950 . S
C5137 C5136 1.524 . S
C5137 C5138 1.415 . S
C5138 H5114 0.950 . S
C5138 C5133 1.363 . S
C5138 C5137 1.415 . S
C5139 H5115 0.951 . S
C5139 C5140 1.366 . S
C5139 C5141 1.388 . S
C5140 C5139 1.366 . S
C5140 C5144 1.385 . S
C5141 H5116 0.951 . S
C5141 C5139 1.388 . S
C5141 C5142 1.366 . S
C5142 C5141 1.366 . S
C5142 C5143 1.414 . S
C5142 C5145 1.499 . S
C5143 H5117 0.950 . S
C5143 C5142 1.414 . S
C5143 C5144 1.374 . S
C5144 H5118 0.950 1_565 S
C5144 C5140 1.385 . S
C5144 C5143 1.374 . S
C5145 C5142 1.499 . S
C5145 C5146 1.373 . S
C5145 C5147 1.389 . S
C5146 H5119 0.950 . S
C5146 C5132 1.377 . S
C5146 C5145 1.373 . S
C5147 C5131 1.377 . S
C5147 C5145 1.389 . S
C5147 C5148 1.524 . S
C5148 C5147 1.524 . S
C5148 C5149 1.397 . S
C5148 C5153 1.363 . S
C5149 H5120 0.950 . S
C5149 C5148 1.397 . S
C5149 C5150 1.334 . S
C5150 H5121 0.950 . S
C5150 C5149 1.334 . S
C5150 C5151 1.287 . S
C5151 C5150 1.287 . S
C5151 C5152 1.524 . S
C5151 H5154 0.999 . S
C5152 H5122 0.950 . S
C5152 C5151 1.524 . S
C5152 C5153 1.415 . S
C5153 H5123 0.950 . S
C5153 C5148 1.363 . S
C5153 C5152 1.415 . S
H5154 C5151 0.999 . S
H5155 C5136 0.913 . S
H5156 C5174 0.951 . S
H5157 C5176 0.951 . S
H5158 C5178 0.950 . S
H5159 C5179 0.950 . S
H5160 C5181 0.950 . S
H5161 C5184 0.950 . S
H5162 C5185 0.950 . S
H5163 C5187 0.950 . S
H5164 C5188 0.950 . S
H5165 C5189 0.951 . S
H5166 C5191 0.951 . S
H5167 C5193 0.950 . S
H5168 C5194 0.950 . S
H5169 C5196 0.950 . S
H5170 C5199 0.950 . S
H5171 C5200 0.950 . S
H5172 C5202 0.950 . S
H5173 C5203 0.950 . S
C5174 H5156 0.951 . S
C5174 C5175 1.366 . S
C5174 C5176 1.388 . S
C5175 C5174 1.366 . S
C5175 C5179 1.385 . S
C5176 H5157 0.951 . S
C5176 C5174 1.388 . S
C5176 C5177 1.366 . S
C5177 C5176 1.366 . S
C5177 C5178 1.414 . S
C5177 C5180 1.499 . S
C5178 H5158 0.950 . S
C5178 C5177 1.414 . S
C5178 C5179 1.374 . S
C5179 H5159 0.950 . S
C5179 C5175 1.385 . S
C5179 C5178 1.374 . S
C5180 C5177 1.499 . S
C5180 C5181 1.373 . S
C5180 C5182 1.389 . S
C5181 H5160 0.950 . S
C5181 C5180 1.373 . S
C5181 C5197 1.377 . S
C5182 C5180 1.389 . S
C5182 C5183 1.524 . S
C5182 C5196 1.377 . S
C5183 C5182 1.524 . S
C5183 C5184 1.397 . S
C5183 C5188 1.363 . S
C5184 H5161 0.950 . S
C5184 C5183 1.397 . S
C5184 C5185 1.334 . S
C5185 H5162 0.950 . S
C5185 C5184 1.334 . S
C5185 C5186 1.287 . S
C5186 C5185 1.287 . S
C5186 C5187 1.524 . S
C5186 H5205 0.913 . S
C5187 H5163 0.950 . S
C5187 C5186 1.524 . S
C5187 C5188 1.415 . S
C5188 H5164 0.950 . S
C5188 C5183 1.363 . S
C5188 C5187 1.415 . S
C5189 H5165 0.951 . S
C5189 C5190 1.366 . S
C5189 C5191 1.388 . S
C5190 C5189 1.366 . S
C5190 C5194 1.385 . S
C5191 H5166 0.951 . S
C5191 C5189 1.388 . S
C5191 C5192 1.366 . S
C5192 C5191 1.366 . S
C5192 C5193 1.414 . S
C5192 C5195 1.499 . S
C5193 H5167 0.950 . S
C5193 C5192 1.414 . S
C5193 C5194 1.374 . S
C5194 H5168 0.950 . S
C5194 C5190 1.385 . S
C5194 C5193 1.374 . S
C5195 C5192 1.499 . S
C5195 C5196 1.373 . S
C5195 C5197 1.389 . S
C5196 H5169 0.950 . S
C5196 C5182 1.377 . S
C5196 C5195 1.373 . S
C5197 C5181 1.377 . S
C5197 C5195 1.389 . S
C5197 C5198 1.524 . S
C5198 C5197 1.524 . S
C5198 C5199 1.397 . S
C5198 C5203 1.363 . S
C5199 H5170 0.950 . S
C5199 C5198 1.397 . S
C5199 C5200 1.334 . S
C5200 H5171 0.950 . S
C5200 C5199 1.334 . S
C5200 C5201 1.287 . S
C5201 C5200 1.287 . S
C5201 C5202 1.524 . S
C5201 H5204 0.999 . S
C5202 H5172 0.950 . S
C5202 C5201 1.524 . S
C5202 C5203 1.415 . S
C5203 H5173 0.950 . S
C5203 C5198 1.363 . S
C5203 C5202 1.415 . S
H5204 C5201 0.999 . S
H5205 C5186 0.913 . S
H5206 C5224 0.951 . S
H5207 C5226 0.951 . S
H5208 C5228 0.950 . S
H5209 C5229 0.950 . S
H5210 C5231 0.950 . S
H5211 C5234 0.950 . S
H5212 C5235 0.950 . S
H5213 C5237 0.937 1_554 S
H5214 C5238 0.950 . S
H5215 C5239 0.951 . S
H5216 C5241 0.951 . S
H5217 C5243 0.950 . S
H5218 C5244 0.950 . S
H5219 C5246 0.950 . S
H5220 C5249 0.950 . S
H5221 C5250 0.950 . S
H5222 C5252 0.950 . S
H5223 C5253 0.950 . S
C5224 H5206 0.951 . S
C5224 C5225 1.366 . S
C5224 C5226 1.388 . S
C5225 C5224 1.366 . S
C5225 C5229 1.385 . S
C5226 H5207 0.951 . S
C5226 C5224 1.388 . S
C5226 C5227 1.366 . S
C5227 C5226 1.366 . S
C5227 C5228 1.414 . S
C5227 C5230 1.499 . S
C5228 H5208 0.950 . S
C5228 C5227 1.414 . S
C5228 C5229 1.374 . S
C5229 H5209 0.950 . S
C5229 C5225 1.385 . S
C5229 C5228 1.374 . S
C5230 C5227 1.499 . S
C5230 C5231 1.373 . S
C5230 C5232 1.389 . S
C5231 H5210 0.950 . S
C5231 C5230 1.373 . S
C5231 C5247 1.377 . S
C5232 C5230 1.389 . S
C5232 C5233 1.524 . S
C5232 C5246 1.377 . S
C5233 C5232 1.524 . S
C5233 C5234 1.397 1_554 S
C5233 C5238 1.363 . S
C5234 H5211 0.950 . S
C5234 C5233 1.397 1_556 S
C5234 C5235 1.334 . S
C5235 H5212 0.950 . S
C5235 C5234 1.334 . S
C5235 C5236 1.287 . S
C5236 C5235 1.287 . S
C5236 C5237 1.554 . S
C5236 H5255 0.913 . S
C5237 H5213 0.937 1_556 S
C5237 C5236 1.554 . S
C5237 C5238 1.400 1_556 S
C5238 H5214 0.950 . S
C5238 C5233 1.363 . S
C5238 C5237 1.400 1_554 S
C5239 H5215 0.951 . S
C5239 C5240 1.366 . S
C5239 C5241 1.388 . S
C5240 C5239 1.366 . S
C5240 C5244 1.385 . S
C5241 H5216 0.951 . S
C5241 C5239 1.388 . S
C5241 C5242 1.366 . S
C5242 C5241 1.366 . S
C5242 C5243 1.414 . S
C5242 C5245 1.499 . S
C5243 H5217 0.950 . S
C5243 C5242 1.414 . S
C5243 C5244 1.374 . S
C5244 H5218 0.950 . S
C5244 C5240 1.385 . S
C5244 C5243 1.374 . S
C5245 C5242 1.499 . S
C5245 C5246 1.373 . S
C5245 C5247 1.389 . S
C5246 H5219 0.950 . S
C5246 C5232 1.377 . S
C5246 C5245 1.373 . S
C5247 C5231 1.377 . S
C5247 C5245 1.389 . S
C5247 C5248 1.524 . S
C5248 C5247 1.524 . S
C5248 C5249 1.397 . S
C5248 C5253 1.363 . S
C5249 H5220 0.950 . S
C5249 C5248 1.397 . S
C5249 C5250 1.334 . S
C5250 H5221 0.950 . S
C5250 C5249 1.334 . S
C5250 C5251 1.287 . S
C5251 C5250 1.287 . S
C5251 C5252 1.524 . S
C5251 H5254 0.999 . S
C5252 H5222 0.950 . S
C5252 C5251 1.524 . S
C5252 C5253 1.415 . S
C5253 H5223 0.950 . S
C5253 C5248 1.363 . S
C5253 C5252 1.415 . S
H5254 C5251 0.999 . S
H5255 C5236 0.913 . S
H5256 C5274 0.951 . S
H5257 C5276 0.951 . S
H5258 C5278 0.950 . S
H5259 C5279 0.950 . S
H5260 C5281 0.950 . S
H5261 C5284 0.950 . S
H5262 C5285 0.950 . S
H5263 C5287 0.950 . S
H5264 C5288 0.950 . S
H5265 C5289 0.951 . S
H5266 C5291 0.951 . S
H5267 C5293 0.950 . S
H5268 C5294 0.950 . S
H5269 C5296 0.950 . S
H5270 C5299 0.950 . S
H5271 C5300 0.950 . S
H5272 C5302 0.950 . S
H5273 C5303 0.950 . S
C5274 H5256 0.951 . S
C5274 C5275 1.366 . S
C5274 C5276 1.388 . S
C5275 C5274 1.366 . S
C5275 C5279 1.385 . S
C5276 H5257 0.951 . S
C5276 C5274 1.388 . S
C5276 C5277 1.366 . S
C5277 C5276 1.366 . S
C5277 C5278 1.414 . S
C5277 C5280 1.499 . S
C5278 H5258 0.950 . S
C5278 C5277 1.414 . S
C5278 C5279 1.374 . S
C5279 H5259 0.950 . S
C5279 C5275 1.385 . S
C5279 C5278 1.374 . S
C5280 C5277 1.499 . S
C5280 C5281 1.373 . S
C5280 C5282 1.389 . S
C5281 H5260 0.950 . S
C5281 C5280 1.373 . S
C5281 C5297 1.377 . S
C5282 C5280 1.389 . S
C5282 C5283 1.524 . S
C5282 C5296 1.377 . S
C5283 C5282 1.524 . S
C5283 C5284 1.397 . S
C5283 C5288 1.363 . S
C5284 H5261 0.950 . S
C5284 C5283 1.397 . S
C5284 C5285 1.334 . S
C5285 H5262 0.950 . S
C5285 C5284 1.334 . S
C5285 C5286 1.287 . S
C5286 C5285 1.287 . S
C5286 C5287 1.524 . S
C5286 H5305 0.913 . S
C5287 H5263 0.950 . S
C5287 C5286 1.524 . S
C5287 C5288 1.415 . S
C5288 H5264 0.950 . S
C5288 C5283 1.363 . S
C5288 C5287 1.415 . S
C5289 H5265 0.951 . S
C5289 C5290 1.366 . S
C5289 C5291 1.388 . S
C5290 C5289 1.366 . S
C5290 C5294 1.385 . S
C5291 H5266 0.951 . S
C5291 C5289 1.388 . S
C5291 C5292 1.366 . S
C5292 C5291 1.366 . S
C5292 C5293 1.414 . S
C5292 C5295 1.499 . S
C5293 H5267 0.950 . S
C5293 C5292 1.414 . S
C5293 C5294 1.374 . S
C5294 H5268 0.950 . S
C5294 C5290 1.385 . S
C5294 C5293 1.374 . S
C5295 C5292 1.499 . S
C5295 C5296 1.373 . S
C5295 C5297 1.389 . S
C5296 H5269 0.950 . S
C5296 C5282 1.377 . S
C5296 C5295 1.373 . S
C5297 C5281 1.377 . S
C5297 C5295 1.389 . S
C5297 C5298 1.524 . S
C5298 C5297 1.524 . S
C5298 C5299 1.397 . S
C5298 C5303 1.363 . S
C5299 H5270 0.950 . S
C5299 C5298 1.397 . S
C5299 C5300 1.334 . S
C5300 H5271 0.950 . S
C5300 C5299 1.334 . S
C5300 C5301 1.287 . S
C5301 C5300 1.287 . S
C5301 C5302 1.524 . S
C5301 H5304 0.999 . S
C5302 H5272 0.950 . S
C5302 C5301 1.524 . S
C5302 C5303 1.415 . S
C5303 H5273 0.950 . S
C5303 C5298 1.363 . S
C5303 C5302 1.415 . S
H5304 C5301 0.999 . S
H5305 C5286 0.913 . S
H5306 C5324 0.951 . S
H5307 C5326 0.951 . S
H5308 C5328 0.950 . S
H5309 C5329 0.950 . S
H5310 C5331 0.950 1_556 S
H5311 C5334 0.950 . S
H5312 C5335 0.950 . S
H5313 C5337 0.950 . S
H5314 C5338 0.950 . S
H5315 C5339 0.951 1_556 S
H5316 C5341 0.951 . S
H5317 C5343 0.950 . S
H5318 C5344 0.950 . S
H5319 C5346 0.950 . S
H5320 C5349 0.950 . S
H5321 C5350 0.950 . S
H5322 C5352 0.950 . S
H5323 C5353 0.950 . S
C5324 H5306 0.951 . S
C5324 C5325 1.366 . S
C5324 C5326 1.388 . S
C5325 C5324 1.366 . S
C5325 C5329 1.385 . S
C5326 H5307 0.951 . S
C5326 C5324 1.388 . S
C5326 C5327 1.366 . S
C5327 C5326 1.366 . S
C5327 C5328 1.414 . S
C5327 C5330 1.499 . S
C5328 H5308 0.950 . S
C5328 C5327 1.414 . S
C5328 C5329 1.374 . S
C5329 H5309 0.950 . S
C5329 C5325 1.385 . S
C5329 C5328 1.374 . S
C5330 C5327 1.499 . S
C5330 C5331 1.373 . S
C5330 C5332 1.389 . S
C5331 H5310 0.950 1_554 S
C5331 C5330 1.373 . S
C5331 C5347 1.377 . S
C5332 C5330 1.389 . S
C5332 C5333 1.524 . S
C5332 C5346 1.377 . S
C5333 C5332 1.524 . S
C5333 C5334 1.397 . S
C5333 C5338 1.363 . S
C5334 H5311 0.950 . S
C5334 C5333 1.397 . S
C5334 C5335 1.334 . S
C5335 H5312 0.950 . S
C5335 C5334 1.334 . S
C5335 C5336 1.287 . S
C5336 C5335 1.287 . S
C5336 C5337 1.524 . S
C5336 H5355 0.913 . S
C5337 H5313 0.950 . S
C5337 C5336 1.524 . S
C5337 C5338 1.415 . S
C5338 H5314 0.950 . S
C5338 C5333 1.363 . S
C5338 C5337 1.415 . S
C5339 H5315 0.951 1_554 S
C5339 C5340 1.366 . S
C5339 C5341 1.388 . S
C5340 C5339 1.366 . S
C5340 C5344 1.385 . S
C5341 H5316 0.951 . S
C5341 C5339 1.388 . S
C5341 C5342 1.366 . S
C5342 C5341 1.366 . S
C5342 C5343 1.414 . S
C5342 C5345 1.499 . S
C5343 H5317 0.950 . S
C5343 C5342 1.414 . S
C5343 C5344 1.374 . S
C5344 H5318 0.950 . S
C5344 C5340 1.385 . S
C5344 C5343 1.374 . S
C5345 C5342 1.499 . S
C5345 C5346 1.373 . S
C5345 C5347 1.389 . S
C5346 H5319 0.950 . S
C5346 C5332 1.377 . S
C5346 C5345 1.373 . S
C5347 C5331 1.377 . S
C5347 C5345 1.389 . S
C5347 C5348 1.524 1_554 S
C5348 C5347 1.524 1_556 S
C5348 C5349 1.397 . S
C5348 C5353 1.363 . S
C5349 H5320 0.950 . S
C5349 C5348 1.397 . S
C5349 C5350 1.334 . S
C5350 H5321 0.950 . S
C5350 C5349 1.334 . S
C5350 C5351 1.287 . S
C5351 C5350 1.287 . S
C5351 C5352 1.524 . S
C5351 H5354 0.999 . S
C5352 H5322 0.950 . S
C5352 C5351 1.524 . S
C5352 C5353 1.415 . S
C5353 H5323 0.950 . S
C5353 C5348 1.363 . S
C5353 C5352 1.415 . S
H5354 C5351 0.999 . S
H5355 C5336 0.913 . S
H5356 C5374 0.951 . S
H5357 C5376 0.951 . S
H5358 C5378 0.950 . S
H5359 C5379 0.950 . S
H5360 C5381 0.950 . S
H5361 C5384 0.950 . S
H5362 C5385 0.950 . S
H5363 C5387 0.950 . S
H5364 C5388 0.950 . S
H5365 C5389 0.951 . S
H5366 C5391 0.951 . S
H5367 C5393 0.950 . S
H5368 C5394 0.950 . S
H5369 C5396 0.950 . S
H5370 C5399 0.950 . S
H5371 C5400 0.950 . S
H5372 C5402 0.950 . S
H5373 C5403 0.950 . S
C5374 H5356 0.951 . S
C5374 C5375 1.366 . S
C5374 C5376 1.388 . S
C5375 C5374 1.366 . S
C5375 C5379 1.385 . S
C5376 H5357 0.951 . S
C5376 C5374 1.388 . S
C5376 C5377 1.366 . S
C5377 C5376 1.366 . S
C5377 C5378 1.414 . S
C5377 C5380 1.499 . S
C5378 H5358 0.950 . S
C5378 C5377 1.414 . S
C5378 C5379 1.374 . S
C5379 H5359 0.950 . S
C5379 C5375 1.385 . S
C5379 C5378 1.374 . S
C5380 C5377 1.499 . S
C5380 C5381 1.373 . S
C5380 C5382 1.389 . S
C5381 H5360 0.950 . S
C5381 C5380 1.373 . S
C5381 C5397 1.377 . S
C5382 C5380 1.389 . S
C5382 C5383 1.524 . S
C5382 C5396 1.377 . S
C5383 C5382 1.524 . S
C5383 C5384 1.397 . S
C5383 C5388 1.363 . S
C5384 H5361 0.950 . S
C5384 C5383 1.397 . S
C5384 C5385 1.334 . S
C5385 H5362 0.950 . S
C5385 C5384 1.334 . S
C5385 C5386 1.287 . S
C5386 C5385 1.287 . S
C5386 C5387 1.524 . S
C5386 H5405 0.913 . S
C5387 H5363 0.950 . S
C5387 C5386 1.524 . S
C5387 C5388 1.415 . S
C5388 H5364 0.950 . S
C5388 C5383 1.363 . S
C5388 C5387 1.415 . S
C5389 H5365 0.951 . S
C5389 C5390 1.366 . S
C5389 C5391 1.388 . S
C5390 C5389 1.366 . S
C5390 C5394 1.385 . S
C5391 H5366 0.951 . S
C5391 C5389 1.388 . S
C5391 C5392 1.366 . S
C5392 C5391 1.366 . S
C5392 C5393 1.414 . S
C5392 C5395 1.499 . S
C5393 H5367 0.950 . S
C5393 C5392 1.414 . S
C5393 C5394 1.374 . S
C5394 H5368 0.950 . S
C5394 C5390 1.385 . S
C5394 C5393 1.374 . S
C5395 C5392 1.499 . S
C5395 C5396 1.373 . S
C5395 C5397 1.389 . S
C5396 H5369 0.950 . S
C5396 C5382 1.377 . S
C5396 C5395 1.373 . S
C5397 C5381 1.377 . S
C5397 C5395 1.389 . S
C5397 C5398 1.524 . S
C5398 C5397 1.524 . S
C5398 C5399 1.397 . S
C5398 C5403 1.363 . S
C5399 H5370 0.950 . S
C5399 C5398 1.397 . S
C5399 C5400 1.334 . S
C5400 H5371 0.950 . S
C5400 C5399 1.334 . S
C5400 C5401 1.287 . S
C5401 C5400 1.287 . S
C5401 C5402 1.524 . S
C5401 H5404 0.999 . S
C5402 H5372 0.950 . S
C5402 C5401 1.524 . S
C5402 C5403 1.415 . S
C5403 H5373 0.950 . S
C5403 C5398 1.363 . S
C5403 C5402 1.415 . S
H5404 C5401 0.999 . S
H5405 C5386 0.913 . S
H5406 C5424 0.951 . S
H5407 C5426 0.951 . S
H5408 C5428 0.950 . S
H5409 C5429 0.950 . S
H5410 C5431 0.950 . S
H5411 C5434 0.950 . S
H5412 C5435 0.950 . S
H5413 C5437 0.950 . S
H5414 C5438 0.950 . S
H5415 C5439 0.951 . S
H5416 C5441 0.951 . S
H5417 C5443 0.950 . S
H5418 C5444 0.950 . S
H5419 C5446 0.950 . S
H5420 C5449 0.950 . S
H5421 C5450 0.950 . S
H5422 C5452 0.950 . S
H5423 C5453 0.950 . S
C5424 H5406 0.951 . S
C5424 C5425 1.366 . S
C5424 C5426 1.388 . S
C5425 C5424 1.366 . S
C5425 C5429 1.385 . S
C5426 H5407 0.951 . S
C5426 C5424 1.388 . S
C5426 C5427 1.366 . S
C5427 C5426 1.366 . S
C5427 C5428 1.414 . S
C5427 C5430 1.499 . S
C5428 H5408 0.950 . S
C5428 C5427 1.414 . S
C5428 C5429 1.374 . S
C5429 H5409 0.950 . S
C5429 C5425 1.385 . S
C5429 C5428 1.374 . S
C5430 C5427 1.499 . S
C5430 C5431 1.373 . S
C5430 C5432 1.389 . S
C5431 H5410 0.950 . S
C5431 C5430 1.373 . S
C5431 C5447 1.377 . S
C5432 C5430 1.389 . S
C5432 C5433 1.524 . S
C5432 C5446 1.377 . S
C5433 C5432 1.524 . S
C5433 C5434 1.397 . S
C5433 C5438 1.363 . S
C5434 H5411 0.950 . S
C5434 C5433 1.397 . S
C5434 C5435 1.334 . S
C5435 H5412 0.950 . S
C5435 C5434 1.334 . S
C5435 C5436 1.287 . S
C5436 C5435 1.287 . S
C5436 C5437 1.524 . S
C5436 H5455 0.913 . S
C5437 H5413 0.950 . S
C5437 C5436 1.524 . S
C5437 C5438 1.415 . S
C5438 H5414 0.950 . S
C5438 C5433 1.363 . S
C5438 C5437 1.415 . S
C5439 H5415 0.951 . S
C5439 C5440 1.366 . S
C5439 C5441 1.388 . S
C5440 C5439 1.366 . S
C5440 C5444 1.385 . S
C5441 H5416 0.951 . S
C5441 C5439 1.388 . S
C5441 C5442 1.366 . S
C5442 C5441 1.366 . S
C5442 C5443 1.414 . S
C5442 C5445 1.499 . S
C5443 H5417 0.950 . S
C5443 C5442 1.414 . S
C5443 C5444 1.374 . S
C5444 H5418 0.950 . S
C5444 C5440 1.385 . S
C5444 C5443 1.374 . S
C5445 C5442 1.499 . S
C5445 C5446 1.373 . S
C5445 C5447 1.389 . S
C5446 H5419 0.950 . S
C5446 C5432 1.377 . S
C5446 C5445 1.373 . S
C5447 C5431 1.377 . S
C5447 C5445 1.389 . S
C5447 C5448 1.524 . S
C5448 C5447 1.524 . S
C5448 C5449 1.397 . S
C5448 C5453 1.363 . S
C5449 H5420 0.950 . S
C5449 C5448 1.397 . S
C5449 C5450 1.334 . S
C5450 H5421 0.950 . S
C5450 C5449 1.334 . S
C5450 C5451 1.287 . S
C5451 C5450 1.287 . S
C5451 C5452 1.524 . S
C5451 H5454 0.999 . S
C5452 H5422 0.950 . S
C5452 C5451 1.524 . S
C5452 C5453 1.415 . S
C5453 H5423 0.950 . S
C5453 C5448 1.363 . S
C5453 C5452 1.415 . S
H5454 C5451 0.999 . S
H5455 C5436 0.913 . S
C675 C109 1.288 1_655 S
C690 C340 1.152 . S
C725 C65 1.444 . S
C740 C375 1.403 . S
C775 C75 0.986 . S
C790 C380 0.922 . S
C840 C405 1.401 . S
C825 C84 1.476 . S
C875 C25 1.447 . S
C890 C425 1.368 . S
C940 C440 0.886 . S
C925 C28 0.937 . S
C990 C475 1.447 . S
C975 C47 1.486 . S
C1025 C9 1.321 . S
C1040 C480 1.179 . S
C1090 C355 1.497 1_655 S
C1075 C233 1.563 . S
C1125 C249 0.872 . S
C1140 C365 0.846 . S
C1190 C395 1.438 . S
C1175 C275 1.478 . S
C1240 C400 1.034 . S
C1225 C173 1.086 1_556 S
C1275 C224 1.153 . S
C1290 C420 1.070 . S
C1340 C455 1.415 . S
C1325 C243 1.455 . S
C1390 C465 0.875 . S
C1375 C266 0.902 . S
C1440 C495 1.352 . S
C1425 C179 1.406 . S
C1490 C345 1.288 . S
C1475 C163 1.397 . S
C1525 C289 1.746 . S
C1540 C515 1.690 . S
C1590 C525 1.350 . S
C1575 C333 1.435 . S
C1640 C540 0.875 . S
C1625 C308 0.917 . S
C1675 C123 1.359 . S
C1690 C485 1.259 . S
C1725 C126 1.524 . S
C1740 C385 1.441 . S
C1775 C327 1.770 . S
C1790 C575 1.732 . S
C1840 C580 0.967 . S
C1825 C299 1.041 . S
C1890 C338 1.166 . S
C1875 C67 1.302 . S
C1940 C594 1.435 . S
C1925 C98 1.460 . S
C1975 C89 1.013 . S
C1990 C378 0.942 . S
C2025 C79 1.531 . S
C2040 C568 1.450 . S
C2090 C428 1.402 . S
C2075 C11 1.481 . S
C2125 C51 0.974 . S
C2140 C518 0.913 . S
C2190 C474 1.511 . S
C2175 C33 1.533 . S
C2240 C598 1.182 . S
C2225 C14 1.319 . S
C2290 C354 1.486 . S
C2275 C140 1.543 . S
C2340 C588 0.865 . S
C2325 C319 0.894 . S
C2375 C112 1.486 . S
C2390 C394 1.459 . S
C2425 C285 1.145 . S
C2440 C558 1.050 . S
C2475 C149 1.199 . S
C2490 C418 1.104 . S
C2540 C534 1.462 . S
C2525 C313 1.502 . S
C2575 C121 0.979 . S
C2590 C468 0.939 . S
C2625 C291 1.442 . S
C2640 C614 1.398 . S
C2675 C182 1.392 . S
C2690 C348 1.291 . S
C2725 C168 1.744 . S
C2740 C514 1.720 . S
C2775 C263 1.483 . S
C2790 C448 1.393 . S
C2825 C247 0.975 . S
C2840 C538 0.918 . S
C2890 C608 1.269 . S
C2875 C277 1.374 . S
C2925 C219 1.578 . S
C2940 C388 1.474 . S
C2990 C414 1.779 . S
C2975 C257 1.818 . S
C3040 C358 0.976 . S
C3025 C201 1.050 . S
C3075 C81 1.287 . S
C3090 C620 1.151 . S
C3140 C595 1.402 . S
C3125 C93 1.444 . S
C3175 C103 0.986 . S
C3190 C640 0.923 . S
C3225 C56 1.476 . S
C3240 C565 1.400 . S
C3275 C53 1.447 . S
C3290 C505 1.367 . S
C3340 C520 0.888 . S
C3325 C0 0.938 . S
C3390 C555 1.447 . S
C3375 C19 1.486 . S
C3440 C600 1.177 . S
C3425 C37 1.320 . S
C3490 C635 1.497 . S
C3475 C261 1.563 . S
C3525 C193 0.872 . S
C3540 C585 0.847 . S
C3590 C655 1.438 . S
C3575 C205 1.479 . S
C3640 C560 1.035 . S
C3625 C215 1.121 . S
C3690 C500 1.068 . S
C3675 C252 1.152 . S
C3725 C187 1.455 . S
C3740 C535 1.416 . S
C3790 C545 0.877 . S
C3775 C196 0.903 . S
C3825 C221 1.406 . S
C3840 C615 1.353 . S
C3890 C625 1.286 . S
C3875 C317 1.396 . S
C3925 C135 1.734 . S
C3940 C435 1.692 . S
C3990 C445 1.349 . S
C3975 C151 1.435 . S
C4040 C460 0.875 . S
C4025 C154 0.917 . S
C4090 C605 1.259 . S
C4075 C305 1.359 . S
C4125 C280 1.524 . S
C4140 C645 1.442 . S
C4190 C415 1.733 . S
C4175 C145 1.770 . S
C4240 C360 0.965 . S
C4225 C117 1.041 . S
C4275 C95 1.302 . S
C4290 C618 1.166 . S
C4340 C374 1.435 . S
C4325 C70 1.460 . S
C4375 C61 1.014 . S
C4390 C638 0.944 . S
C4425 C107 1.531 . S
C4440 C408 1.450 . S
C4475 C39 1.480 . S
C4490 C508 1.401 . S
C4540 C438 0.915 . S
C4525 C23 0.974 . S
C4575 C5 1.533 . S
C4590 C554 1.493 . S
C4625 C42 1.319 . S
C4640 C478 1.183 . S
C4690 C634 1.485 . S
C4675 C322 1.544 . S
C4725 C165 0.894 . S
C4740 C368 0.865 . S
C4790 C654 1.459 1_655 S
C4775 C294 1.486 . S
C4825 C131 1.145 . S
C4840 C398 1.055 . S
C4875 C331 1.199 . S
C4890 C498 1.104 . S
C4940 C454 1.462 . S
C4925 C159 1.502 . S
C4975 C303 0.979 . S
C4990 C548 0.938 . S
C5040 C494 1.391 . S
C5025 C137 1.442 . S
C5090 C628 1.292 . S
C5075 C238 1.393 . S
C5140 C434 1.737 . S
C5125 C210 1.744 . S
C5175 C235 1.483 . S
C5190 C528 1.394 . S
C5240 C458 0.917 . S
C5225 C191 0.975 . S
C5275 C207 1.368 . S
C5290 C488 1.269 . S
C5325 C177 1.578 . S
C5340 C648 1.474 . S
C5390 C574 1.779 . S
C5375 C229 1.818 . S
C5440 C578 0.976 . S
C5425 C271 1.045 . S
