# Generated by pormake.
# Topology soc, (4,6)-cn, num edge types: 1
# Building blocks:
#     Node 0, Type 0, BuildingBlock: ESEHIV_clean_sbu_0, # of connection points: 4
#     Node 1, Type 0, BuildingBlock: ESEHIV_clean_sbu_0, # of connection points: 4
#     Node 2, Type 0, BuildingBlock: ESEHIV_clean_sbu_0, # of connection points: 4
#     Node 3, Type 0, BuildingBlock: ESEHIV_clean_sbu_0, # of connection points: 4
#     Node 4, Type 0, BuildingBlock: ESEHIV_clean_sbu_0, # of connection points: 4
#     Node 5, Type 0, BuildingBlock: ESEHIV_clean_sbu_0, # of connection points: 4
#     Node 6, Type 0, BuildingBlock: ESEHIV_clean_sbu_0, # of connection points: 4
#     Node 7, Type 0, BuildingBlock: ESEHIV_clean_sbu_0, # of connection points: 4
#     Node 8, Type 0, BuildingBlock: ESEHIV_clean_sbu_0, # of connection points: 4
#     Node 9, Type 0, BuildingBlock: ESEHIV_clean_sbu_0, # of connection points: 4
#     Node 10, Type 0, BuildingBlock: ESEHIV_clean_sbu_0, # of connection points: 4
#     Node 11, Type 0, BuildingBlock: ESEHIV_clean_sbu_0, # of connection points: 4
#     Node 12, Type 1, BuildingBlock: CUKXOW_clean_sbu_0, # of connection points: 6
#     Node 13, Type 1, BuildingBlock: CUKXOW_clean_sbu_0, # of connection points: 6
#     Node 14, Type 1, BuildingBlock: CUKXOW_clean_sbu_0, # of connection points: 6
#     Node 15, Type 1, BuildingBlock: CUKXOW_clean_sbu_0, # of connection points: 6
#     Node 16, Type 1, BuildingBlock: CUKXOW_clean_sbu_0, # of connection points: 6
#     Node 17, Type 1, BuildingBlock: CUKXOW_clean_sbu_0, # of connection points: 6
#     Node 18, Type 1, BuildingBlock: CUKXOW_clean_sbu_0, # of connection points: 6
#     Node 19, Type 1, BuildingBlock: CUKXOW_clean_sbu_0, # of connection points: 6
#     Edge 20, Type (0, 1), BuildingBlock: CIFDUS_clean_linker_0, # of connection points: 2
#     Edge 21, Type (0, 1), BuildingBlock: CIFDUS_clean_linker_0, # of connection points: 2
#     Edge 22, Type (0, 1), BuildingBlock: CIFDUS_clean_linker_0, # of connection points: 2
#     Edge 23, Type (0, 1), BuildingBlock: CIFDUS_clean_linker_0, # of connection points: 2
#     Edge 24, Type (0, 1), BuildingBlock: CIFDUS_clean_linker_0, # of connection points: 2
#     Edge 25, Type (0, 1), BuildingBlock: CIFDUS_clean_linker_0, # of connection points: 2
#     Edge 26, Type (0, 1), BuildingBlock: CIFDUS_clean_linker_0, # of connection points: 2
#     Edge 27, Type (0, 1), BuildingBlock: CIFDUS_clean_linker_0, # of connection points: 2
#     Edge 28, Type (0, 1), BuildingBlock: CIFDUS_clean_linker_0, # of connection points: 2
#     Edge 29, Type (0, 1), BuildingBlock: CIFDUS_clean_linker_0, # of connection points: 2
#     Edge 30, Type (0, 1), BuildingBlock: CIFDUS_clean_linker_0, # of connection points: 2
#     Edge 31, Type (0, 1), BuildingBlock: CIFDUS_clean_linker_0, # of connection points: 2
#     Edge 32, Type (0, 1), BuildingBlock: CIFDUS_clean_linker_0, # of connection points: 2
#     Edge 33, Type (0, 1), BuildingBlock: CIFDUS_clean_linker_0, # of connection points: 2
#     Edge 34, Type (0, 1), BuildingBlock: CIFDUS_clean_linker_0, # of connection points: 2
#     Edge 35, Type (0, 1), BuildingBlock: CIFDUS_clean_linker_0, # of connection points: 2
#     Edge 36, Type (0, 1), BuildingBlock: CIFDUS_clean_linker_0, # of connection points: 2
#     Edge 37, Type (0, 1), BuildingBlock: CIFDUS_clean_linker_0, # of connection points: 2
#     Edge 38, Type (0, 1), BuildingBlock: CIFDUS_clean_linker_0, # of connection points: 2
#     Edge 39, Type (0, 1), BuildingBlock: CIFDUS_clean_linker_0, # of connection points: 2
#     Edge 40, Type (0, 1), BuildingBlock: CIFDUS_clean_linker_0, # of connection points: 2
#     Edge 41, Type (0, 1), BuildingBlock: CIFDUS_clean_linker_0, # of connection points: 2
#     Edge 42, Type (0, 1), BuildingBlock: CIFDUS_clean_linker_0, # of connection points: 2
#     Edge 43, Type (0, 1), BuildingBlock: CIFDUS_clean_linker_0, # of connection points: 2
#     Edge 44, Type (0, 1), BuildingBlock: CIFDUS_clean_linker_0, # of connection points: 2
#     Edge 45, Type (0, 1), BuildingBlock: CIFDUS_clean_linker_0, # of connection points: 2
#     Edge 46, Type (0, 1), BuildingBlock: CIFDUS_clean_linker_0, # of connection points: 2
#     Edge 47, Type (0, 1), BuildingBlock: CIFDUS_clean_linker_0, # of connection points: 2
#     Edge 48, Type (0, 1), BuildingBlock: CIFDUS_clean_linker_0, # of connection points: 2
#     Edge 49, Type (0, 1), BuildingBlock: CIFDUS_clean_linker_0, # of connection points: 2
#     Edge 50, Type (0, 1), BuildingBlock: CIFDUS_clean_linker_0, # of connection points: 2
#     Edge 51, Type (0, 1), BuildingBlock: CIFDUS_clean_linker_0, # of connection points: 2
#     Edge 52, Type (0, 1), BuildingBlock: CIFDUS_clean_linker_0, # of connection points: 2
#     Edge 53, Type (0, 1), BuildingBlock: CIFDUS_clean_linker_0, # of connection points: 2
#     Edge 54, Type (0, 1), BuildingBlock: CIFDUS_clean_linker_0, # of connection points: 2
#     Edge 55, Type (0, 1), BuildingBlock: CIFDUS_clean_linker_0, # of connection points: 2
#     Edge 56, Type (0, 1), BuildingBlock: CIFDUS_clean_linker_0, # of connection points: 2
#     Edge 57, Type (0, 1), BuildingBlock: CIFDUS_clean_linker_0, # of connection points: 2
#     Edge 58, Type (0, 1), BuildingBlock: CIFDUS_clean_linker_0, # of connection points: 2
#     Edge 59, Type (0, 1), BuildingBlock: CIFDUS_clean_linker_0, # of connection points: 2
#     Edge 60, Type (0, 1), BuildingBlock: CIFDUS_clean_linker_0, # of connection points: 2
#     Edge 61, Type (0, 1), BuildingBlock: CIFDUS_clean_linker_0, # of connection points: 2
#     Edge 62, Type (0, 1), BuildingBlock: CIFDUS_clean_linker_0, # of connection points: 2
#     Edge 63, Type (0, 1), BuildingBlock: CIFDUS_clean_linker_0, # of connection points: 2
#     Edge 64, Type (0, 1), BuildingBlock: CIFDUS_clean_linker_0, # of connection points: 2
#     Edge 65, Type (0, 1), BuildingBlock: CIFDUS_clean_linker_0, # of connection points: 2
#     Edge 66, Type (0, 1), BuildingBlock: CIFDUS_clean_linker_0, # of connection points: 2
#     Edge 67, Type (0, 1), BuildingBlock: CIFDUS_clean_linker_0, # of connection points: 2
# Relax obj value: 0.094
# Max RMSD: 0.172
# Mean RMSD: 0.146
data_MOF--net-soc--node1-ESEHIV_clean_sbu_0--node2-CUKXOW_clean_sbu_0--edge1-CIFDUS_clean_linker_0
_symmetry_space_group_name_H-M    P1
_symmetry_Int_Tables_number       1
_symmetry_cell_setting            triclinic
loop_
_symmetry_equiv_pos_as_xyz
'x, y, z'
_cell_length_a     37.404369
_cell_length_b     39.216261
_cell_length_c     40.763298
_cell_angle_alpha  96.977287
_cell_angle_beta   93.896897
_cell_angle_gamma 88.220282
loop_
_atom_site_label
_atom_site_type_symbol
_atom_site_fract_x
_atom_site_fract_y
_atom_site_fract_z
_atom_type_partial_charge
Cu0 Cu 0.07636 0.03494 0.26977 0.0
N1 N 0.10116 0.06852 0.2991 0.0
N2 N 0.13794 0.11242 0.31545 0.0
C3 C 0.12457 0.09052 0.28968 0.0
C4 C 0.12217 0.10395 0.34209 0.0
C5 C 0.09934 0.07716 0.33193 0.0
O6 O 0.11342 1.00539 0.24838 0.0
C7 C 1.01983 0.07734 0.26297 0.0
O8 O 1.02143 0.0713 0.29405 0.0
H9 H 0.13207 0.09005 0.26445 0.0
H10 H 0.08238 0.06522 0.34743 0.0
N11 N 1.04785 1.00458 0.28907 0.0
N12 N 1.00846 0.96286 0.29154 0.0
C13 C 1.023 0.98372 0.27213 0.0
C14 C 1.04898 0.99668 0.32034 0.0
C15 C 1.0248 0.97114 0.32194 0.0
C16 C 0.13332 0.99134 0.26997 0.0
O17 O 0.12725 0.99965 0.30133 0.0
H18 H 1.01669 0.98309 0.24576 0.0
H19 H 0.06682 1.00785 0.34045 0.0
O20 O 1.0429 0.06224 0.24411 0.0
H21 H 0.12659 0.11646 0.36715 0.0
H22 H 1.01992 0.95943 0.34387 0.0
Cu23 Cu 0.06852 0.0278 0.72843 0.0
N24 N 1.03525 0.99931 0.70201 0.0
N25 N 0.99493 0.95739 0.69356 0.0
C26 C 1.02382 0.97019 0.71206 0.0
C27 C 0.98773 0.97924 0.67072 0.0
C28 C 1.01272 1.00505 0.6759 0.0
O29 O 1.03891 0.06409 0.75164 0.0
C30 C 0.11449 0.975 0.73058 0.0
O31 O 0.10872 0.97944 0.69921 0.0
H32 H 1.03518 0.9597 0.73394 0.0
H33 H 1.01321 0.02714 0.66248 0.0
N34 N 0.10208 0.05101 0.70707 0.0
N35 N 0.14734 0.08639 0.70314 0.0
C36 C 0.12638 0.07259 0.72362 0.0
C37 C 0.1078 0.05093 0.67483 0.0
C38 C 0.13561 0.07275 0.67234 0.0
C39 C 1.02647 0.085 0.73167 0.0
O40 O 1.03594 0.07998 0.70101 0.0
H41 H 0.12803 0.07853 0.75029 0.0
H42 H 0.09276 0.03618 0.65464 0.0
O43 O 0.09815 0.99526 0.75196 0.0
H44 H 0.96564 0.97707 0.65206 0.0
H45 H 0.14644 0.0779 0.64954 0.0
Cu46 Cu 0.36224 0.01567 0.00844 0.0
N47 N 0.33829 0.98132 0.98022 0.0
N48 N 0.32886 0.93909 0.93876 0.0
C49 C 0.35292 0.96068 0.95566 0.0
C50 C 0.2975 0.94747 0.95264 0.0
C51 C 0.30335 0.97358 0.97796 0.0
O52 O 0.39576 0.99534 0.03974 0.0
C53 C 0.3574 0.05727 0.95963 0.0
O54 O 0.32416 0.04787 0.96085 0.0
H55 H 0.38077 0.96172 0.95043 0.0
H56 H 0.28307 0.98669 -0.00732 0.0
N57 N 0.33009 0.04002 0.03575 0.0
N58 N 0.30899 0.08098 0.07256 0.0
C59 C 0.33324 0.07275 0.04973 0.0
C60 C 0.30361 0.027 0.05088 0.0
C61 C 0.2901 0.05242 0.07321 0.0
C62 C 0.40649 0.96406 0.03627 0.0
O63 O 0.40509 0.94677 0.00663 0.0
H64 H 0.35395 0.08961 0.04446 0.0
H65 H 0.29643 1.00028 0.04786 0.0
O66 O 0.38116 0.04677 0.98028 0.0
H67 H 0.27181 0.93632 0.94467 0.0
H68 H 0.26981 0.04951 0.09033 0.0
Cu69 Cu 0.06855 0.35239 0.97493 0.0
N70 N 0.09757 0.37587 0.95028 0.0
N71 N 0.13979 0.38161 0.91511 0.0
C72 C 0.12515 0.36068 0.93424 0.0
C73 C 0.1204 0.4113 0.91929 0.0
C74 C 0.0943 0.40767 0.94104 0.0
O75 O 0.10142 0.32508 0.00109 0.0
C76 C 1.00751 0.34245 0.9321 0.0
O77 O 1.00033 0.37378 0.94572 0.0
H78 H 0.13307 0.33406 0.93541 0.0
H79 H 0.07375 0.4264 0.94869 0.0
N80 N 1.04336 0.38189 0.00528 0.0
N81 N 1.00887 0.39462 0.04807 0.0
C82 C 1.01544 0.37245 0.02103 0.0
C83 C 1.05433 0.41165 0.02233 0.0
C84 C 1.03306 0.41962 0.04871 0.0
C85 C 0.09357 0.31372 0.02764 0.0
O86 O 0.0599 0.31356 0.03477 0.0
H87 H 1.00279 0.34786 0.01473 0.0
H88 H 0.07796 0.42502 0.0176 0.0
O89 O 1.03564 0.32674 0.94246 0.0
H90 H 0.12438 0.43383 0.90717 0.0
H91 H 1.03674 0.44095 0.06802 0.0
Cu92 Cu 0.85623 0.0521 0.0006 0.0
N93 N 0.88796 0.07448 0.97789 0.0
N94 N 0.90145 0.10647 0.9393 0.0
C95 C 0.878 0.08484 0.94848 0.0
C96 C 0.92742 0.11023 0.96394 0.0
C97 C 0.91929 0.08985 -0.0123 0.0
O98 O 0.83448 0.08778 0.03128 0.0
C99 C 0.84142 1.00741 0.94523 0.0
O100 O 0.8764 1.00446 0.94992 0.0
H101 H 0.85217 0.07937 0.93556 0.0
H102 H 0.93388 0.08837 0.01131 0.0
N103 N 0.8801 0.02022 0.02464 0.0
N104 N 0.8874 0.98011 0.0587 0.0
C105 C 0.86562 1.00501 0.04815 0.0
C106 C 0.91237 1.00476 0.02034 0.0
C107 C 0.91679 0.97957 0.04122 0.0
C108 C 0.85678 0.10106 0.05396 0.0
O109 O 0.88931 0.08761 0.05603 0.0
H110 H 0.8387 1.0106 0.05583 0.0
H111 H 0.93054 1.01031 0.00225 0.0
O112 O 0.82432 0.02727 0.96622 0.0
H113 H 0.94927 0.12795 0.96555 0.0
H114 H 0.93913 0.96146 0.04261 0.0
Cu115 Cu 0.05986 0.74341 0.01419 0.0
N116 N 1.02931 0.77177 -0.00897 0.0
N117 N 0.99326 0.78913 0.95009 0.0
C118 C 1.01859 0.76602 0.95864 0.0
C119 C 0.9877 0.81004 0.97818 0.0
C120 C 1.00965 0.79901 0.00347 0.0
O121 O 1.0276 0.72035 0.04019 0.0
C122 C 0.11141 0.7333 0.96854 0.0
O123 O 0.11656 0.76536 -0.01897 0.0
H124 H 1.02855 0.74485 0.94189 0.0
H125 H 1.00998 0.80913 0.02936 0.0
N126 N 0.09218 0.76971 0.04333 0.0
N127 N 0.14137 0.78393 0.07584 0.0
C128 C 0.12301 0.75823 0.05775 0.0
C129 C 0.09116 0.80387 0.05242 0.0
C130 C 0.12133 0.81268 0.07252 0.0
C131 C 1.03486 0.71323 0.06969 0.0
O132 O 0.06822 0.71434 0.08198 0.0
H133 H 0.13207 0.73163 0.05443 0.0
H134 H 0.07034 0.82137 0.04466 0.0
O135 O 0.0873 0.71647 0.98003 0.0
H136 H 0.96793 0.83081 -0.01942 0.0
H137 H 0.12777 0.83826 0.08407 0.0
Cu138 Cu 0.56506 0.52965 0.76764 0.0
N139 N 0.59483 0.5645 0.7893 0.0
N140 N 0.63629 0.60542 0.7934 0.0
C141 C 0.61824 0.58086 0.77324 0.0
C142 C 0.62358 0.60431 0.82354 0.0
C143 C 0.598 0.57915 0.82092 0.0
O144 O 0.59752 0.49702 0.74375 0.0
C145 C 0.50559 0.56976 0.76334 0.0
O146 O 0.51207 0.56855 0.79527 0.0
H147 H 0.62195 0.57459 0.74709 0.0
H148 H 0.58253 0.57243 0.84056 0.0
N149 N 0.54117 0.50224 0.79389 0.0
N150 N 0.50607 0.45913 0.80294 0.0
C151 C 0.5176 0.47832 0.78044 0.0
C152 C 0.54477 0.49845 0.8263 0.0
C153 C 0.52316 0.47198 0.83196 0.0
C154 C 0.62003 0.48493 0.76461 0.0
O155 O 0.61861 0.49696 0.79603 0.0
H156 H 0.50973 0.4749 0.75427 0.0
H157 H 0.56271 0.51294 0.84432 0.0
O158 O 0.52697 0.55346 0.74349 0.0
H159 H 0.63148 0.62101 0.8458 0.0
H160 H 0.52139 0.4623 0.85551 0.0
Cu161 Cu 0.57387 0.52988 0.21933 0.0
N162 N 0.54182 0.497 0.19733 0.0
N163 N 0.49709 0.45962 0.19521 0.0
C164 C 0.51131 0.48914 0.21043 0.0
C165 C 0.51942 0.44843 0.17134 0.0
C166 C 0.54693 0.47153 0.17265 0.0
O167 O 0.54346 0.56489 0.24237 0.0
C168 C 0.63084 0.48689 0.22521 0.0
O169 O 0.62739 0.49044 0.19354 0.0
H170 H 0.50109 0.50355 0.23232 0.0
H171 H 0.56998 0.46878 0.15784 0.0
N172 N 0.60125 0.55546 0.19401 0.0
N173 N 0.6418 0.59444 0.186 0.0
C174 C 0.62406 0.57973 0.20832 0.0
C175 C 0.60427 0.55468 0.16125 0.0
C176 C 0.62922 0.57863 0.15624 0.0
C177 C 0.52368 0.57945 0.22109 0.0
O178 O 0.52594 0.56813 0.18958 0.0
H179 H 0.62721 0.58644 0.23485 0.0
H180 H 0.58975 0.53769 0.14242 0.0
O181 O 0.60887 0.50331 0.24438 0.0
H182 H 0.5166 0.4248 0.15474 0.0
H183 H 0.6377 0.58347 0.13242 0.0
Cu184 Cu 0.80456 0.49762 0.47054 0.0
N185 N 0.78323 0.52606 0.44138 0.0
N186 N 0.78027 0.56452 0.40534 0.0
C187 C 0.80009 0.55135 0.42978 0.0
C188 C 0.74967 0.54676 0.40118 0.0
C189 C 0.75155 0.52295 0.42362 0.0
O190 O 0.81721 0.52416 0.51326 0.0
C191 C 0.85237 0.4423 0.45192 0.0
O192 O 0.84106 0.42917 0.47736 0.0
H193 H 0.82727 0.55857 0.43768 0.0
H194 H 0.73192 0.50385 0.4259 0.0
N195 N 0.7726 0.46479 0.47838 0.0
N196 N 0.76114 0.42138 0.50627 0.0
C197 C 0.77266 0.4538 0.50822 0.0
C198 C 0.75884 0.43912 0.4567 0.0
C199 C 0.75154 0.41221 0.47398 0.0
C200 C 0.83979 0.54809 0.5191 0.0
O201 O 0.85927 0.55516 0.49528 0.0
H202 H 0.78605 0.46732 0.53015 0.0
H203 H 0.75904 0.43806 0.43007 0.0
O204 O 0.84384 0.47328 0.44792 0.0
H205 H 0.72792 0.55033 0.3829 0.0
H206 H 0.74457 0.38649 0.46316 0.0
Cu207 Cu 0.57502 0.81505 0.48435 0.0
N208 N 0.60358 0.84129 0.46129 0.0
N209 N 0.6455 0.84814 0.4258 0.0
C210 C 0.63196 0.82712 0.44557 0.0
C211 C 0.6246 0.87694 0.42935 0.0
C212 C 0.5987 0.87261 0.45117 0.0
O213 O 0.60808 0.79031 0.51233 0.0
C214 C 0.5198 0.8047 0.43792 0.0
O215 O 0.51436 0.83673 0.45037 0.0
H216 H 0.64097 0.80084 0.44709 0.0
H217 H 0.57692 0.89032 0.45781 0.0
N218 N 0.54344 0.83833 0.5142 0.0
N219 N 0.50407 0.84239 0.55366 0.0
C220 C 0.52786 0.82203 0.53657 0.0
C221 C 0.5293 0.87052 0.51754 0.0
C222 C 0.5047 0.87298 0.54172 0.0
C223 C 0.62389 0.81124 0.53463 0.0
O224 O 0.61747 0.84433 0.53412 0.0
H225 H 0.53317 0.79525 0.53955 0.0
H226 H 0.53561 0.89047 0.50289 0.0
O227 O 0.54619 0.78773 0.4498 0.0
H228 H 0.62715 0.89923 0.41649 0.0
H229 H 0.4886 0.89543 0.54989 0.0
Cu230 Cu 0.30099 0.53761 0.50553 0.0
N231 N 0.32976 0.5618 0.48112 0.0
N232 N 0.34554 0.60187 0.45065 0.0
C233 C 0.31836 0.58785 0.46412 0.0
C234 C 0.37515 0.58352 0.45928 0.0
C235 C 0.36531 0.55881 0.47808 0.0
O236 O 0.26637 0.56957 0.52666 0.0
C237 C 0.30452 0.47603 0.46754 0.0
O238 O 0.33772 0.47977 0.47992 0.0
H239 H 0.2908 0.59709 0.46285 0.0
H240 H 0.38287 0.54034 0.48917 0.0
N241 N 0.32729 0.51943 0.54028 0.0
N242 N 0.34083 0.48473 0.57913 0.0
C243 C 0.31861 0.49093 0.55296 0.0
C244 C 0.35592 0.53197 0.55923 0.0
C245 C 0.36433 0.51057 0.58334 0.0
C246 C 0.28059 0.59707 0.54082 0.0
O247 O 0.31498 0.60116 0.53835 0.0
H248 H 0.29589 0.47541 0.54349 0.0
H249 H 0.36946 0.55518 0.556 0.0
O250 O 0.28132 0.49955 0.47537 0.0
H251 H 0.40205 0.58758 0.45256 0.0
H252 H 0.38611 0.5136 0.60227 0.0
Cu253 Cu 0.5853 0.20682 0.51074 0.0
N254 N 0.61645 0.18022 0.48336 0.0
N255 N 0.65561 0.17103 0.44409 0.0
C256 C 0.63271 0.19364 0.45965 0.0
C257 C 0.65379 0.14199 0.45849 0.0
C258 C 0.62922 0.14761 0.48259 0.0
O259 O 0.61398 0.23694 0.54358 0.0
C260 C 0.53595 0.20651 0.45936 0.0
O261 O 0.54099 0.17397 0.46361 0.0
H262 H 0.62856 0.21999 0.45459 0.0
H263 H 0.62196 0.12948 0.49879 0.0
N264 N 0.5574 0.18211 0.5355 0.0
N265 N 0.51531 0.17624 0.57085 0.0
C266 C 0.52756 0.19568 0.54902 0.0
C267 C 0.56457 0.15293 0.54923 0.0
C268 C 0.53853 0.14915 0.57095 0.0
C269 C 0.6425 0.22331 0.55584 0.0
O270 O 0.65151 0.19171 0.54443 0.0
H271 H 0.51669 0.22074 0.54465 0.0
H272 H 0.58812 0.13667 0.54543 0.0
O273 O 0.55265 0.22886 0.47965 0.0
H274 H 0.66908 0.11852 0.45207 0.0
H275 H 0.53765 0.12874 0.58649 0.0
Tb276 Tb 0.34315 0.28071 0.28039 0.0
C277 C 0.32535 0.24063 0.21103 0.0
Tb278 Tb 0.28012 0.30759 0.23528 0.0
O279 O 0.31287 0.24392 0.30411 0.0
O280 O 0.28816 0.27283 0.27042 0.0
O281 O 0.35187 0.24927 0.23359 0.0
C282 C 0.22606 0.31172 0.1894 0.0
O283 O 0.29389 0.25714 0.21068 0.0
C284 C 0.34089 0.34138 0.23888 0.0
C285 C 0.28996 0.34136 0.30824 0.0
O286 O 0.25989 0.31247 0.18446 0.0
O287 O 0.22245 0.30956 0.22062 0.0
O288 O 0.30917 0.35505 0.23405 0.0
O289 O 0.33758 0.30942 0.23896 0.0
O290 O 0.26662 0.33565 0.28224 0.0
O291 O 0.32216 0.32603 0.31016 0.0
C292 C 0.40479 0.27357 0.31657 0.0
O293 O 0.38866 0.30271 0.31223 0.0
O294 O 0.38683 0.24888 0.29948 0.0
C295 C 0.28251 0.2498 0.28826 0.0
Tb296 Tb 0.79631 0.26541 0.25835 0.0
C297 C 0.87355 0.22884 0.25153 0.0
Tb298 Tb 0.85256 0.2971 0.22131 0.0
O299 O 0.76723 0.24549 0.21146 0.0
O300 O 0.82137 0.25252 0.21343 0.0
O301 O 0.84421 0.23343 0.26859 0.0
C302 C 0.88589 0.31999 0.17247 0.0
O303 O 0.8803 0.24849 0.22838 0.0
C304 C 0.8569 0.31454 0.28585 0.0
C305 C 0.77772 0.3363 0.23238 0.0
O306 O 0.89581 0.32541 0.20377 0.0
O307 O 0.85743 0.30148 0.16871 0.0
O308 O 0.88383 0.31496 0.26734 0.0
O309 O 0.82888 0.30901 0.26729 0.0
O310 O 0.80537 0.33062 0.21344 0.0
O311 O 0.77243 0.31672 0.25591 0.0
C312 C 0.75568 0.24113 0.30143 0.0
O313 O 0.74408 0.25388 0.27474 0.0
O314 O 0.79044 0.24198 0.30408 0.0
C315 C 0.79475 0.24511 0.19378 0.0
Tb316 Tb 0.81283 0.80831 0.21083 0.0
C317 C 0.77844 0.80801 0.27954 0.0
Tb318 Tb 0.83532 0.74897 0.25264 0.0
O319 O 0.78089 0.7729 0.17543 0.0
O320 O 0.78917 0.76366 0.22424 0.0
O321 O 0.78155 0.82499 0.25351 0.0
C322 C 0.83087 0.6916 0.28041 0.0
O323 O 0.7954 0.77804 0.28296 0.0
C324 C 0.88247 0.79891 0.2639 0.0
C325 C 0.87191 0.75355 0.18591 0.0
O326 O 0.84101 0.72105 0.2956 0.0
O327 O 0.82424 0.69404 0.24903 0.0
O328 O 0.88491 0.7708 0.27797 0.0
O329 O 0.85463 0.7966 0.24463 0.0
O330 O 0.86279 0.73245 0.20707 0.0
O331 O 0.86001 0.78589 0.18726 0.0
C332 C 0.80939 0.86553 0.18161 0.0
O333 O 0.80068 0.83519 0.16778 0.0
O334 O 0.81882 0.86402 0.21266 0.0
C335 C 0.77671 0.75089 0.19609 0.0
Tb336 Tb 0.35291 0.81029 0.2223 0.0
C337 C 0.38215 0.73653 0.23202 0.0
Tb338 Tb 0.31978 0.77052 0.27335 0.0
O339 O 0.4042 0.81144 0.25235 0.0
O340 O 0.35571 0.81092 0.27423 0.0
O341 O 0.37481 0.75843 0.20994 0.0
C342 C 0.30982 0.74319 0.32867 0.0
O343 O 0.36731 0.73964 0.26078 0.0
C344 C 0.29629 0.75411 0.21085 0.0
C345 C 0.28653 0.84367 0.26159 0.0
O346 O 0.28483 0.74765 0.30558 0.0
O347 O 0.33957 0.75522 0.32089 0.0
O348 O 0.29663 0.73327 0.23337 0.0
O349 O 0.30588 0.78284 0.22505 0.0
O350 O 0.28862 0.81855 0.28107 0.0
O351 O 0.30734 0.84456 0.23635 0.0
C352 C 0.3689 0.8426 0.17158 0.0
O353 O 0.37118 0.85573 0.2025 0.0
O354 O 0.35706 0.81151 0.16925 0.0
C355 C 0.38906 0.80954 0.27971 0.0
Tb356 Tb 0.26664 0.74254 0.76472 0.0
C357 C 0.34115 0.70289 0.75012 0.0
Tb358 Tb 0.32144 0.77281 0.72178 0.0
O359 O 0.23366 0.72036 0.72092 0.0
O360 O 0.28742 0.73033 0.71781 0.0
O361 O 0.31427 0.70858 0.77017 0.0
C362 C 0.36024 0.795 0.67559 0.0
O363 O 0.34492 0.72156 0.72546 0.0
C364 C 0.32642 0.79427 0.78598 0.0
C365 C 0.24561 0.81021 0.73233 0.0
O366 O 0.37273 0.77949 0.70041 0.0
O367 O 0.32562 0.79799 0.6766 0.0
O368 O 0.35243 0.7953 0.76672 0.0
O369 O 0.29912 0.7859 0.76784 0.0
O370 O 0.27253 0.80351 0.71247 0.0
O371 O 0.24136 0.7926 0.75773 0.0
C372 C 0.23649 0.72597 0.81855 0.0
O373 O 0.22027 0.72634 0.78934 0.0
O374 O 0.26961 0.73435 0.81707 0.0
C375 C 0.25882 0.72292 0.70087 0.0
Tb376 Tb 0.33112 0.29171 0.73771 0.0
C377 C 0.29303 0.29356 0.80519 0.0
Tb378 Tb 0.35054 0.23524 0.78518 0.0
O379 O 0.28345 0.26782 0.7109 0.0
O380 O 0.31135 0.24484 0.74775 0.0
O381 O 0.30216 0.3115 0.7814 0.0
C382 C 0.3551 0.17933 0.81701 0.0
O383 O 0.30527 0.26184 0.80824 0.0
C384 C 0.38414 0.29411 0.79793 0.0
C385 C 0.38601 0.23022 0.71623 0.0
O386 O 0.37979 0.20213 0.8183 0.0
O387 O 0.32844 0.18775 0.7973 0.0
O388 O 0.37735 0.27483 0.82044 0.0
O389 O 0.37471 0.27864 0.76995 0.0
O390 O 0.37934 0.21415 0.74206 0.0
O391 O 0.37294 0.26143 0.71185 0.0
C392 C 0.33496 0.34697 0.70605 0.0
O393 O 0.328 0.3161 0.69232 0.0
O394 O 0.33938 0.34702 0.738 0.0
C395 C 0.28499 0.24093 0.72675 0.0
Tb396 Tb 0.83671 0.3017 0.7151 0.0
C397 C 0.87751 0.23592 0.73355 0.0
Tb398 Tb 0.81112 0.26923 0.77299 0.0
O399 O 0.88776 0.31496 0.74297 0.0
O400 O 0.84037 0.31274 0.76702 0.0
O401 O 0.86866 0.25449 0.70894 0.0
C402 C 0.81385 0.24042 0.82878 0.0
O403 O 0.86094 0.24016 0.7616 0.0
C404 C 0.77437 0.25514 0.71655 0.0
C405 C 0.77192 0.33671 0.75674 0.0
O406 O 0.80082 0.22653 0.8001 0.0
O407 O 0.82332 0.2715 0.82633 0.0
O408 O 0.76 0.25695 0.74493 0.0
O409 O 0.80781 0.25806 0.72116 0.0
O410 O 0.77847 0.31567 0.77975 0.0
O411 O 0.78985 0.33456 0.72937 0.0
C412 C 0.8346 0.32505 0.65649 0.0
O413 O 0.85679 0.33506 0.68149 0.0
O414 O 0.8142 0.30174 0.66445 0.0
C415 C 0.87372 0.31618 0.77146 0.0
Tb416 Tb 0.82746 0.75109 0.71645 0.0
C417 C 0.86627 0.76843 0.78584 0.0
Tb418 Tb 0.79789 0.80874 0.76233 0.0
O419 O 0.87738 0.77864 0.71652 0.0
O420 O 0.82896 0.80597 0.72032 0.0
O421 O 0.85724 0.74232 0.76313 0.0
C422 C 0.78303 0.86878 0.79829 0.0
O423 O 0.85011 0.79886 0.78584 0.0
C424 C 0.78069 0.74672 0.77499 0.0
C425 C 0.75715 0.79205 0.69276 0.0
O426 O 0.81101 0.86177 0.78133 0.0
O427 O 0.76263 0.84216 0.7941 0.0
O428 O 0.78686 0.77282 0.79713 0.0
O429 O 0.78281 0.75653 0.74679 0.0
O430 O 0.75986 0.81365 0.72049 0.0
O431 O 0.77942 0.76527 0.68685 0.0
C432 C 0.84132 0.69938 0.66923 0.0
O433 O 0.84523 0.73179 0.66766 0.0
O434 O 0.82944 0.69562 0.69786 0.0
C435 C 0.86249 0.80898 0.72021 0.0
H436 H 0.14716 0.15367 0.26771 0.0
H437 H 0.19007 0.12875 0.363 0.0
H438 H 0.23711 0.1705 0.36343 0.0
H439 H 0.26765 0.2124 0.33619 0.0
H440 H 0.22529 0.23987 0.2418 0.0
H441 H 0.17633 0.19926 0.24155 0.0
C442 C 0.16687 0.15744 0.28849 0.0
C443 C 0.16511 0.13793 0.31529 0.0
C444 C 0.19383 0.18206 0.28877 0.0
C445 C 0.19057 0.1435 0.34225 0.0
C446 C 0.21759 0.16732 0.34245 0.0
C447 C 0.24746 0.20979 0.31569 0.0
C448 C 0.25007 0.2291 0.28905 0.0
C449 C 0.21961 0.18657 0.31584 0.0
C450 C 0.22369 0.22553 0.26272 0.0
C451 C 0.19588 0.20209 0.26251 0.0
H452 H 0.96247 0.1014 0.29536 0.0
H453 H 1.01749 0.11225 0.20771 0.0
H454 H 0.97669 0.16037 0.19613 0.0
H455 H 0.92717 0.20114 0.21305 0.0
H456 H 0.87418 0.18917 0.30181 0.0
H457 H 0.91292 0.13984 0.31101 0.0
C458 C 0.96561 0.1141 0.27356 0.0
C459 C 0.9932 0.10338 0.25254 0.0
C460 C 0.94267 0.14183 0.26753 0.0
C461 C 0.99643 0.11992 0.22422 0.0
C462 C 0.97327 0.14758 0.21779 0.0
C463 C 0.92422 0.18782 0.23448 0.0
C464 C 0.89789 0.19914 0.25687 0.0
C465 C 0.94666 0.15915 0.23965 0.0
C466 C 0.89416 0.18122 0.28422 0.0
C467 C 0.9163 0.15292 0.2895 0.0
H468 H 1.00106 0.90531 0.32037 0.0
H469 H 0.95756 0.95923 0.24009 0.0
H470 H 0.91416 0.91365 0.22381 0.0
H471 H 0.88831 0.85761 0.23273 0.0
H472 H 0.93356 0.8052 0.31356 0.0
H473 H 0.97598 0.85088 0.32925 0.0
C474 C 0.9819 0.90745 0.29953 0.0
C475 C 0.98266 0.93597 0.28171 0.0
C476 C 0.9571 0.88117 0.29032 0.0
C477 C 0.95793 0.93757 0.25423 0.0
C478 C 0.93292 0.91151 0.24497 0.0
C479 C 0.90728 0.85643 0.25386 0.0
C480 C 0.90746 0.828 0.27205 0.0
C481 C 0.93218 0.88307 0.26285 0.0
C482 C 0.93268 0.82667 0.29909 0.0
C483 C 0.95706 0.85286 0.30818 0.0
H484 H 0.16742 0.95077 0.31132 0.0
H485 H 0.16342 0.9725 0.20987 0.0
H486 H 0.21161 0.9294 0.19841 0.0
H487 H 0.25479 0.88523 0.2178 0.0
H488 H 0.25555 0.86374 0.3193 0.0
H489 H 0.20874 0.90737 0.33015 0.0
C490 C 0.17701 0.94634 0.28661 0.0
C491 C 0.16187 0.96509 0.26152 0.0
C492 C 0.20426 0.92156 0.28028 0.0
C493 C 0.17455 0.95848 0.22964 0.0
C494 C 0.20216 0.93389 0.22315 0.0
C495 C 0.24486 0.89032 0.24234 0.0
C496 C 0.25885 0.87126 0.26778 0.0
C497 C 0.21729 0.91528 0.24836 0.0
C498 C 0.2453 0.87786 0.29927 0.0
C499 C 0.21851 0.90286 0.30553 0.0
H500 H 0.15994 0.93993 0.69027 0.0
H501 H 0.12301 0.94444 0.78872 0.0
H502 H 0.15993 0.89292 0.79792 0.0
H503 H 0.2018 0.84582 0.77677 0.0
H504 H 0.2369 0.84339 0.67764 0.0
H505 H 0.20094 0.89479 0.66981 0.0
C506 C 0.15978 0.92981 0.71388 0.0
C507 C 0.13853 0.94596 0.73874 0.0
C508 C 0.18051 0.90034 0.71868 0.0
C509 C 0.13921 0.93259 0.76922 0.0
C510 C 0.16013 0.90303 0.77435 0.0
C511 C 0.20132 0.85642 0.75338 0.0
C512 C 0.22197 0.84056 0.72773 0.0
C513 C 0.18064 0.88646 0.74905 0.0
C514 C 0.22139 0.85493 0.69777 0.0
C515 C 0.20084 0.88441 0.69326 0.0
H516 H 0.17126 0.13182 0.66531 0.0
H517 H 0.18683 0.09773 0.76202 0.0
H518 H 0.2321 0.14134 0.77815 0.0
H519 H 0.26613 0.19132 0.76525 0.0
H520 H 0.24912 0.22435 0.66818 0.0
H521 H 0.2062 0.17915 0.65184 0.0
C522 C 0.18479 0.1335 0.68978 0.0
C523 C 0.17528 0.11135 0.7123 0.0
C524 C 0.21079 0.15872 0.69895 0.0
C525 C 0.19301 0.11459 0.74416 0.0
C526 C 0.21915 0.13951 0.75341 0.0
C527 C 0.25353 0.18811 0.7404 0.0
C528 C 0.26117 0.21109 0.71792 0.0
C529 C 0.22815 0.162 0.7311 0.0
C530 C 0.2438 0.20711 0.68603 0.0
C531 C 0.21915 0.18121 0.67659 0.0
H532 H 1.00567 0.1349 0.69452 0.0
H533 H 0.98758 0.09874 0.78772 0.0
H534 H 0.93998 0.143 0.797 0.0
H535 H 0.90183 0.19032 0.77678 0.0
H536 H 0.92063 0.22335 0.68212 0.0
H537 H 0.96951 0.18142 0.67519 0.0
C538 C 0.99152 0.13653 0.71703 0.0
C539 C 1.00013 0.11329 0.74032 0.0
C540 C 0.96405 0.16131 0.72174 0.0
C541 C 0.9816 0.1163 0.76942 0.0
C542 C 0.95426 0.14148 0.77459 0.0
C543 C 0.91663 0.18836 0.75464 0.0
C544 C 0.90726 0.21 0.72988 0.0
C545 C 0.94491 0.16384 0.75063 0.0
C546 C 0.9269 0.20707 0.70147 0.0
C547 C 0.95501 0.1831 0.69749 0.0
H548 H 0.92282 0.9508 0.69012 0.0
H549 H 1.02285 0.89736 0.70992 0.0
H550 H 0.9906 0.84698 0.72069 0.0
H551 H 0.93406 0.81779 0.72401 0.0
H552 H 0.83346 0.87142 0.70703 0.0
H553 H 0.86554 0.92208 0.69599 0.0
C554 C 0.93741 0.92798 0.69655 0.0
C555 C 0.97522 0.92765 0.69892 0.0
C556 C 0.91855 0.89926 0.70345 0.0
C557 C 0.99383 0.89819 0.70795 0.0
C558 C 0.97538 0.8694 0.7141 0.0
C559 C 0.91915 0.84063 0.71801 0.0
C560 C 0.88143 0.84077 0.71611 0.0
C561 C 0.93778 0.86963 0.71194 0.0
C562 C 0.86249 0.87066 0.70864 0.0
C563 C 0.88086 0.89957 0.70218 0.0
H564 H 0.36408 0.11532 0.10552 0.0
H565 H 0.24896 0.11465 0.09094 0.0
H566 H 0.24414 0.16485 0.13248 0.0
H567 H 0.27237 0.20716 0.17365 0.0
H568 H 0.38752 0.20732 0.19114 0.0
H569 H 0.39283 0.1586 0.14774 0.0
C570 C 0.33809 0.12661 0.11124 0.0
C571 C 0.30684 0.11178 0.09521 0.0
C572 C 0.33561 0.15489 0.13573 0.0
C573 C 0.27319 0.1259 0.10312 0.0
C574 C 0.2705 0.15443 0.1268 0.0
C575 C 0.29876 0.19679 0.16795 0.0
C576 C 0.32956 0.21097 0.18547 0.0
C577 C 0.3015 0.16887 0.14342 0.0
C578 C 0.36342 0.19679 0.17803 0.0
C579 C 0.36644 0.16906 0.15317 0.0
H580 H 0.94889 0.3574 0.04205 0.0
H581 H 1.02004 0.416 0.11383 0.0
H582 H 0.98751 0.39884 0.15874 0.0
H583 H 0.94109 0.36413 0.17798 0.0
H584 H 0.87061 0.30474 0.10629 0.0
H585 H 0.90095 0.3247 0.06111 0.0
C586 C 0.95724 0.36648 0.06751 0.0
C587 C 0.98703 0.38787 0.07439 0.0
C588 C 0.93878 0.35598 0.09332 0.0
C589 C 0.99705 0.39987 0.1076 0.0
C590 C 0.97865 0.38975 0.13341 0.0
C591 C 0.93238 0.35566 0.15244 0.0
C592 C 0.90387 0.33284 0.14541 0.0
C593 C 0.94987 0.36734 0.12659 0.0
C594 C 0.8926 0.32223 0.11228 0.0
C595 C 0.90991 0.33365 0.08645 0.0
H596 H 0.85711 0.99329 0.11663 0.0
H597 H 0.89486 0.91168 0.04605 0.0
H598 H 0.87155 0.86885 0.07745 0.0
H599 H 0.8393 0.85498 0.12387 0.0
H600 H 0.80634 0.93536 0.19813 0.0
H601 H 0.82851 0.97888 0.16626 0.0
C602 C 0.86039 0.96607 0.10853 0.0
C603 C 0.87754 0.95535 0.07928 0.0
C604 C 0.84737 0.94174 0.12698 0.0
C605 C 0.88208 0.92021 0.06876 0.0
C606 C 0.86848 0.89587 0.08648 0.0
C607 C 0.8366 0.88209 0.13286 0.0
C608 C 0.82044 0.89233 0.16264 0.0
C609 C 0.85076 0.90641 0.11534 0.0
C610 C 0.81818 0.92724 0.17484 0.0
C611 C 0.831 0.95194 0.15677 0.0
H612 H 0.16727 0.72901 0.10481 0.0
H613 H 0.19081 0.8332 0.09119 0.0
H614 H 0.24398 0.83142 0.12907 0.0
H615 H 0.28041 0.80233 0.1699 0.0
H616 H 0.2565 0.69871 0.18496 0.0
H617 H 0.20751 0.69775 0.14184 0.0
C618 C 0.18437 0.75109 0.10962 0.0
C619 C 0.17468 0.78139 0.09553 0.0
C620 C 0.21488 0.74996 0.13165 0.0
C621 C 0.19712 0.80985 0.10227 0.0
C622 C 0.22768 0.80878 0.12378 0.0
C623 C 0.26492 0.77929 0.1633 0.0
C624 C 0.27179 0.75073 0.18074 0.0
C625 C 0.23631 0.77929 0.1392 0.0
C626 C 0.2516 0.72104 0.17192 0.0
C627 C 0.22346 0.72058 0.14743 0.0
H628 H 0.28556 0.88676 0.91467 0.0
H629 H 0.38733 0.93102 0.90165 0.0
H630 H 0.39771 0.88681 0.85605 0.0
H631 H 0.37612 0.83792 0.81707 0.0
H632 H 0.27109 0.79901 0.82604 0.0
H633 H 0.26401 0.83846 0.87615 0.0
C634 C 0.3099 0.88717 0.90184 0.0
C635 C 0.33536 0.91265 0.91181 0.0
C636 C 0.31533 0.86225 0.87492 0.0
C637 C 0.36715 0.91184 0.89502 0.0
C638 C 0.37316 0.88653 0.86869 0.0
C639 C 0.35198 0.83774 0.83036 0.0
C640 C 0.32449 0.81509 0.81833 0.0
C641 C 0.34724 0.86187 0.85816 0.0
C642 C 0.29305 0.8155 0.83535 0.0
C643 C 0.28876 0.83842 0.86375 0.0
H644 H 0.19205 0.33392 0.92193 0.0
H645 H 0.1519 0.40873 0.8585 0.0
H646 H 0.19733 0.38966 0.81935 0.0
H647 H 0.24641 0.34889 0.80149 0.0
H648 H 0.2836 0.27286 0.86506 0.0
H649 H 0.24112 0.2949 0.90531 0.0
C650 C 0.19298 0.34597 0.89947 0.0
C651 C 0.16821 0.37246 0.89311 0.0
C652 C 0.2186 0.33444 0.87683 0.0
C653 C 0.17065 0.38839 0.86422 0.0
C654 C 0.19651 0.37731 0.84166 0.0
C655 C 0.24535 0.33734 0.82425 0.0
C656 C 0.26804 0.30901 0.82996 0.0
C657 C 0.22034 0.34996 0.84746 0.0
C658 C 0.26625 0.29437 0.85965 0.0
C659 C 0.24198 0.30702 0.88286 0.0
H660 H 0.89512 0.17493 0.94694 0.0
H661 H 0.88572 0.08478 0.87565 0.0
H662 H 0.85513 0.11865 0.83508 0.0
H663 H 0.82737 0.17268 0.82181 0.0
H664 H 0.83709 0.26388 0.89214 0.0
H665 H 0.87038 0.23069 0.93203 0.0
C666 C 0.88737 0.16321 0.9221 0.0
C667 C 0.89296 0.12777 0.91374 0.0
C668 C 0.86872 0.18265 0.89951 0.0
C669 C 0.88205 0.11224 0.88201 0.0
C670 C 0.86413 0.13143 0.85918 0.0
C671 C 0.83628 0.18519 0.84608 0.0
C672 C 0.8291 0.22033 0.85457 0.0
C673 C 0.85639 0.16637 0.86807 0.0
C674 C 0.84171 0.23657 0.88557 0.0
C675 C 0.86109 0.21775 0.9081 0.0
H676 H 0.97264 0.73498 0.90589 0.0
H677 H 0.9704 0.8457 0.92328 0.0
H678 H 0.93339 0.84855 0.87203 0.0
H679 H 0.89896 0.82009 0.82478 0.0
H680 H 0.89746 0.70937 0.80707 0.0
H681 H 0.93952 0.70589 0.85568 0.0
C682 C 0.96443 0.75966 0.89811 0.0
C683 C 0.97401 0.79017 0.91841 0.0
C684 C 0.94255 0.76105 0.86874 0.0
C685 C 0.96294 0.82197 0.90828 0.0
C686 C 0.94191 0.82359 0.87897 0.0
C687 C 0.90777 0.79503 0.83132 0.0
C688 C 0.89468 0.76498 0.8125 0.0
C689 C 0.93104 0.79334 0.85942 0.0
C690 C 0.90706 0.73288 0.82116 0.0
C691 C 0.93094 0.73093 0.84904 0.0
H692 H 0.0864 0.30864 0.09294 0.0
H693 H 0.16575 0.30737 0.02063 0.0
H694 H 0.2136 0.30637 0.06441 0.0
H695 H 0.23294 0.30907 0.1235 0.0
H696 H 0.15389 0.3113 0.196 0.0
H697 H 0.10582 0.30902 0.15188 0.0
C698 C 0.11415 0.30759 0.08662 0.0
C699 C 0.1224 0.30804 0.05343 0.0
C700 C 0.14156 0.30775 0.11204 0.0
C701 C 0.15857 0.30701 0.04589 0.0
C702 C 0.18598 0.30662 0.07095 0.0
C703 C 0.20516 0.30909 0.12963 0.0
C704 C 0.19689 0.31069 0.16295 0.0
C705 C 0.17778 0.30764 0.10415 0.0
C706 C 0.16087 0.31036 0.17054 0.0
C707 C 0.13342 0.30893 0.14531 0.0
H708 H 0.1817 0.73945 0.96217 0.0
H709 H 0.08561 0.6992 0.90927 0.0
H710 H 0.11647 0.69134 0.85741 0.0
H711 H 0.16929 0.70262 0.82629 0.0
H712 H 0.26525 0.74169 0.88093 0.0
H713 H 0.23615 0.7432 0.93279 0.0
C714 C 0.16783 0.72805 0.93941 0.0
C715 C 0.13154 0.71977 0.9395 0.0
C716 C 0.18564 0.72396 0.90987 0.0
C717 C 0.11373 0.70523 0.90989 0.0
C718 C 0.13128 0.7012 0.88018 0.0
C719 C 0.18389 0.71096 0.84963 0.0
C720 C 0.21931 0.72237 0.84969 0.0
C721 C 0.16696 0.71149 0.87969 0.0
C722 C 0.23801 0.73287 0.88013 0.0
C723 C 0.22135 0.73381 0.90986 0.0
H724 H 0.31773 0.06508 0.90344 0.0
H725 H 0.41594 0.09808 0.95796 0.0
H726 H 0.42563 0.13737 0.91695 0.0
H727 H 0.40337 0.1652 0.86745 0.0
H728 H 0.30465 0.13112 0.81431 0.0
H729 H 0.29811 0.08916 0.85282 0.0
C730 C 0.34138 0.08076 0.9064 0.0
C731 C 0.36584 0.07902 0.93397 0.0
C732 C 0.34662 0.10311 0.88292 0.0
C733 C 0.39665 0.09905 0.93702 0.0
C734 C 0.4021 0.12156 0.91362 0.0
C735 C 0.38076 0.14821 0.86413 0.0
C736 C 0.35441 0.15134 0.83818 0.0
C737 C 0.37692 0.12422 0.88672 0.0
C738 C 0.3252 0.12927 0.83412 0.0
C739 C 0.32138 0.10533 0.85619 0.0
H740 H 0.93705 0.35421 0.91796 0.0
H741 H 1.02995 0.30083 0.87818 0.0
H742 H 0.99666 0.28768 0.82442 0.0
H743 H 0.94221 0.29563 0.78751 0.0
H744 H 0.84863 0.34615 0.82888 0.0
H745 H 0.88099 0.35628 0.8832 0.0
C746 C 0.9498 0.33922 0.89764 0.0
C747 C 0.98591 0.32869 0.90191 0.0
C748 C 0.9305 0.33174 0.86697 0.0
C749 C 1.00208 0.30903 0.87554 0.0
C750 C 0.98316 0.30182 0.84471 0.0
C751 C 0.92906 0.30884 0.8085 0.0
C752 C 0.89341 0.3208 0.80423 0.0
C753 C 0.94762 0.31381 0.83991 0.0
C754 C 0.87621 0.33708 0.83163 0.0
C755 C 0.89466 0.34282 0.86266 0.0
H756 H 0.78426 0.96423 0.93382 0.0
H757 H 0.86293 0.0146 0.88528 0.0
H758 H 0.84778 0.97897 0.83325 0.0
H759 H 0.8195 0.92759 0.80411 0.0
H760 H 0.74181 0.8752 0.85178 0.0
H761 H 0.74865 0.91749 0.90117 0.0
C762 C 0.79711 0.96802 0.91152 0.0
C763 C 0.82475 0.99182 0.91328 0.0
C764 C 0.78886 0.94665 0.88164 0.0
C765 C 0.84167 0.99629 0.88442 0.0
C766 C 0.83315 0.97582 0.8547 0.0
C767 C 0.80342 0.92595 0.82502 0.0
C768 C 0.7805 0.89821 0.82449 0.0
C769 C 0.80793 0.94998 0.85338 0.0
C770 C 0.75966 0.8964 0.85163 0.0
C771 C 0.76378 0.92045 0.87998 0.0
H772 H 0.96532 0.73535 0.06176 0.0
H773 H 1.03879 0.6875 0.12942 0.0
H774 H 0.9935 0.69205 0.17045 0.0
H775 H 0.93457 0.71494 0.18934 0.0
H776 H 0.86398 0.76698 0.12257 0.0
H777 H 0.90607 0.75527 0.07922 0.0
C778 C 0.97123 0.72522 0.08518 0.0
C779 C 1.00549 0.71095 0.09231 0.0
C780 C 0.94546 0.729 0.10913 0.0
C781 C 1.01269 0.69855 0.12315 0.0
C782 C 0.98679 0.70127 0.14673 0.0
C783 C 0.92822 0.72305 0.16507 0.0
C784 C 0.89611 0.7417 0.15916 0.0
C785 C 0.9533 0.7172 0.14036 0.0
C786 C 0.88852 0.75262 0.12777 0.0
C787 C 0.91262 0.74598 0.10293 0.0
H788 H 0.39991 0.89556 0.03699 0.0
H789 H 0.41659 0.99011 0.10163 0.0
H790 H 0.40821 0.96024 0.14978 0.0
H791 H 0.39052 0.90834 0.1729 0.0
H792 H 0.37012 0.81517 0.10729 0.0
H793 H 0.38527 0.8435 0.06007 0.0
C794 C 0.4025 0.90957 0.06163 0.0
C795 C 0.40891 0.94506 0.06566 0.0
C796 C 0.39626 0.89258 0.08899 0.0
C797 C 0.41175 0.96278 0.09782 0.0
C798 C 0.40668 0.94576 0.12535 0.0
C799 C 0.38959 0.89427 0.14826 0.0
C800 C 0.37899 0.85984 0.14346 0.0
C801 C 0.39792 0.91089 0.12113 0.0
C802 C 0.37796 0.84179 0.11151 0.0
C803 C 0.38673 0.85793 0.08453 0.0
H804 H 0.79108 0.12654 0.07402 0.0
H805 H 0.90448 0.14627 0.08455 0.0
H806 H 0.89444 0.19521 0.12556 0.0
H807 H 0.85494 0.22928 0.16213 0.0
H808 H 0.74186 0.2094 0.15533 0.0
H809 H 0.75007 0.16437 0.10892 0.0
C810 C 0.81341 0.14186 0.08506 0.0
C811 C 0.84851 0.13241 0.07652 0.0
C812 C 0.80756 0.16999 0.10937 0.0
C813 C 0.87724 0.15254 0.09102 0.0
C814 C 0.87158 0.1807 0.11445 0.0
C815 C 0.83195 0.21552 0.15018 0.0
C816 C 0.79793 0.22247 0.16227 0.0
C817 C 0.83705 0.18918 0.12436 0.0
C818 C 0.76839 0.20444 0.14646 0.0
C819 C 0.77312 0.17854 0.12007 0.0
H820 H 0.68801 0.63922 0.83346 0.0
H821 H 0.64399 0.62444 0.73227 0.0
H822 H 0.68688 0.6642 0.71676 0.0
H823 H 0.73519 0.70604 0.73235 0.0
H824 H 0.77743 0.72227 0.83394 0.0
H825 H 0.73733 0.67934 0.84867 0.0
C826 C 0.6876 0.64474 0.80804 0.0
C827 C 0.66246 0.62862 0.78422 0.0
C828 C 0.71227 0.66805 0.79923 0.0
C829 C 0.66304 0.63592 0.75124 0.0
C830 C 0.68757 0.65892 0.74229 0.0
C831 C 0.73594 0.69978 0.75758 0.0
C832 C 0.75931 0.71739 0.78202 0.0
C833 C 0.71216 0.6754 0.76609 0.0
C834 C 0.7597 0.70915 0.81467 0.0
C835 C 0.73664 0.68466 0.82315 0.0
H836 H 0.44725 0.58788 0.79693 0.0
H837 H 0.49444 0.59968 0.70547 0.0
H838 H 0.44643 0.64111 0.69243 0.0
H839 H 0.3936 0.67705 0.70948 0.0
H840 H 0.34755 0.66412 0.80146 0.0
H841 H 0.39273 0.62 0.8118 0.0
C842 C 0.44698 0.5993 0.77397 0.0
C843 C 0.4746 0.59102 0.75235 0.0
C844 C 0.41965 0.62309 0.7669 0.0
C845 C 0.47349 0.60561 0.72249 0.0
C846 C 0.44617 0.62945 0.71518 0.0
C847 C 0.39329 0.66446 0.73171 0.0
C848 C 0.36725 0.67425 0.75482 0.0
C849 C 0.41952 0.63892 0.73758 0.0
C850 C 0.36717 0.65732 0.78328 0.0
C851 C 0.39308 0.63206 0.78927 0.0
H852 H 0.47383 0.4267 0.84822 0.0
H853 H 0.48445 0.42419 0.74301 0.0
H854 H 0.44642 0.37465 0.7323 0.0
H855 H 0.41196 0.32973 0.75243 0.0
H856 H 0.4026 0.33081 0.85736 0.0
H857 H 0.43857 0.3825 0.86833 0.0
C858 C 0.46817 0.41539 0.82292 0.0
C859 C 0.48255 0.42979 0.79666 0.0
C860 C 0.44647 0.38617 0.81673 0.0
C861 C 0.47396 0.41449 0.76402 0.0
C862 C 0.45218 0.38574 0.75771 0.0
C863 C 0.41754 0.34148 0.77767 0.0
C864 C 0.40455 0.32643 0.80404 0.0
C865 C 0.43852 0.37114 0.78384 0.0
C866 C 0.41229 0.34182 0.83661 0.0
C867 C 0.4329 0.37141 0.84291 0.0
H868 H 0.65634 0.44694 0.80657 0.0
H869 H 0.64361 0.46016 0.70286 0.0
H870 H 0.69029 0.4155 0.69101 0.0
H871 H 0.73544 0.37322 0.71104 0.0
H872 H 0.74527 0.36135 0.81533 0.0
H873 H 0.699 0.40533 0.82598 0.0
C874 C 0.66367 0.44029 0.78125 0.0
C875 C 0.64669 0.45713 0.75565 0.0
C876 C 0.69015 0.41488 0.7748 0.0
C877 C 0.65629 0.44761 0.72302 0.0
C878 C 0.68304 0.42218 0.71631 0.0
C879 C 0.72752 0.38043 0.73609 0.0
C880 C 0.74397 0.36402 0.76238 0.0
C881 C 0.70034 0.40577 0.74212 0.0
C882 C 0.73309 0.37336 0.79461 0.0
C883 C 0.70661 0.39859 0.80078 0.0
H884 H 0.69022 0.46693 0.19455 0.0
H885 H 0.63319 0.45067 0.27955 0.0
H886 H 0.6746 0.40261 0.29003 0.0
H887 H 0.72424 0.36255 0.27183 0.0
H888 H 0.77881 0.37969 0.18532 0.0
H889 H 0.74062 0.42987 0.1784 0.0
C890 C 0.68691 0.45309 0.2156 0.0
C891 C 0.65849 0.46211 0.23609 0.0
C892 C 0.71005 0.42532 0.22084 0.0
C893 C 0.65495 0.44429 0.26351 0.0
C894 C 0.67841 0.41663 0.26925 0.0
C895 C 0.72778 0.37728 0.25148 0.0
C896 C 0.75426 0.36703 0.22894 0.0
C897 C 0.70555 0.40639 0.24754 0.0
C898 C 0.75865 0.3867 0.20294 0.0
C899 C 0.73685 0.41553 0.19897 0.0
H900 H 0.66663 0.63451 0.14272 0.0
H901 H 0.67828 0.61532 0.24509 0.0
H902 H 0.72079 0.66145 0.2573 0.0
H903 H 0.75401 0.70891 0.23951 0.0
H904 H 0.74454 0.72603 0.13675 0.0
H905 H 0.70232 0.67926 0.12433 0.0
C906 C 0.67856 0.64 0.16768 0.0
C907 C 0.66838 0.62121 0.19285 0.0
C908 C 0.70364 0.66652 0.17463 0.0
C909 C 0.68451 0.62939 0.22508 0.0
C910 C 0.70923 0.65583 0.23217 0.0
C911 C 0.74309 0.70208 0.21434 0.0
C912 C 0.7526 0.72099 0.18909 0.0
C913 C 0.71885 0.6748 0.20723 0.0
C914 C 0.73775 0.712 0.15668 0.0
C915 C 0.71352 0.6852 0.14953 0.0
H916 H 0.49094 0.62039 0.17936 0.0
H917 H 0.5008 0.60471 0.28259 0.0
H918 H 0.45755 0.65221 0.29507 0.0
H919 H 0.41626 0.69731 0.276 0.0
H920 H 0.4081 0.7124 0.17248 0.0
H921 H 0.4516 0.66563 0.16074 0.0
C922 C 0.4837 0.62719 0.20468 0.0
C923 C 0.49889 0.60881 0.23002 0.0
C924 C 0.45909 0.65431 0.21152 0.0
C925 C 0.48948 0.6184 0.26267 0.0
C926 C 0.4647 0.64547 0.26973 0.0
C927 C 0.42387 0.69027 0.25082 0.0
C928 C 0.40867 0.7082 0.22505 0.0
C929 C 0.44916 0.66344 0.24427 0.0
C930 C 0.41928 0.69907 0.19272 0.0
C931 C 0.44414 0.6723 0.18599 0.0
H932 H 0.48946 0.39144 0.19742 0.0
H933 H 0.43516 0.48982 0.21468 0.0
H934 H 0.38237 0.46208 0.23076 0.0
H935 H 0.35097 0.40965 0.23881 0.0
H936 H 0.40599 0.3113 0.22443 0.0
H937 H 0.45909 0.339 0.20871 0.0
C938 C 0.46596 0.40669 0.20454 0.0
C939 C 0.4661 0.44268 0.20451 0.0
C940 C 0.43588 0.39053 0.21448 0.0
C941 C 0.43571 0.46217 0.21448 0.0
C942 C 0.40552 0.44629 0.22366 0.0
C943 C 0.37469 0.39431 0.23246 0.0
C944 C 0.37439 0.3584 0.23262 0.0
C945 C 0.40523 0.41049 0.22368 0.0
C946 C 0.40546 0.33895 0.22455 0.0
C947 C 0.4358 0.3548 0.21539 0.0
H948 H 0.87287 0.60925 0.5352 0.0
H949 H 0.80866 0.53709 0.57578 0.0
H950 H 0.8056 0.57616 0.62711 0.0
H951 H 0.81778 0.63303 0.65926 0.0
H952 H 0.87951 0.70557 0.61663 0.0
H953 H 0.88709 0.66428 0.56775 0.0
C954 C 0.85856 0.60182 0.55538 0.0
C955 C 0.84096 0.57027 0.55147 0.0
C956 C 0.85628 0.6247 0.58459 0.0
C957 C 0.82238 0.56127 0.57796 0.0
C958 C 0.82056 0.58365 0.60738 0.0
C959 C 0.83323 0.6395 0.63941 0.0
C960 C 0.84801 0.67232 0.64154 0.0
C961 C 0.83688 0.61575 0.6108 0.0
C962 C 0.86774 0.68052 0.61554 0.0
C963 C 0.87209 0.65693 0.58752 0.0
H964 H 0.43447 0.85944 0.56261 0.0
H965 H 0.52511 0.8028 0.60116 0.0
H966 H 0.48872 0.78356 0.64272 0.0
H967 H 0.43087 0.78193 0.66761 0.0
H968 H 0.33895 0.83594 0.62776 0.0
H969 H 0.37578 0.85707 0.58729 0.0
C970 C 0.44619 0.84316 0.58035 0.0
C971 C 0.48247 0.83262 0.57891 0.0
C972 C 0.42478 0.83156 0.60381 0.0
C973 C 0.49724 0.81106 0.60169 0.0
C974 C 0.47645 0.8001 0.62547 0.0
C975 C 0.41891 0.79836 0.65007 0.0
C976 C 0.38226 0.80744 0.65072 0.0
C977 C 0.44014 0.80998 0.62664 0.0
C978 C 0.3671 0.82856 0.62772 0.0
C979 C 0.38818 0.8407 0.60462 0.0
H980 H 0.35793 0.48461 0.64462 0.0
H981 H 0.32019 0.42062 0.55625 0.0
H982 H 0.31496 0.37243 0.58805 0.0
H983 H 0.32046 0.34852 0.64077 0.0
H984 H 0.35749 0.41161 0.72989 0.0
H985 H 0.36384 0.46016 0.6981 0.0
C986 C 0.34888 0.46001 0.63239 0.0
C987 C 0.33931 0.45622 0.59815 0.0
C988 C 0.34569 0.43237 0.65096 0.0
C989 C 0.32723 0.42431 0.58262 0.0
C990 C 0.32437 0.39671 0.60076 0.0
C991 C 0.32989 0.37293 0.65326 0.0
C992 C 0.33836 0.37665 0.68756 0.0
C993 C 0.3333 0.40051 0.63491 0.0
C994 C 0.35058 0.40831 0.70347 0.0
C995 C 0.3543 0.43598 0.6853 0.0
H996 H 0.71321 0.21606 0.56978 0.0
H997 H 0.61806 0.2658 0.60863 0.0
H998 H 0.65087 0.28086 0.66248 0.0
H999 H 0.70548 0.27452 0.69991 0.0
H1000 H 0.80033 0.22555 0.65946 0.0
H1001 H 0.7688 0.21529 0.60486 0.0
C1002 C 0.69984 0.23079 0.58988 0.0
C1003 C 0.6633 0.23967 0.5854 0.0
C1004 C 0.71868 0.23886 0.62062 0.0
C1005 C 0.64629 0.25895 0.61146 0.0
C1006 C 0.66493 0.26715 0.64234 0.0
C1007 C 0.71908 0.26163 0.67904 0.0
C1008 C 0.75493 0.25024 0.68366 0.0
C1009 C 0.70087 0.25629 0.64748 0.0
C1010 C 0.77265 0.23423 0.65645 0.0
C1011 C 0.75468 0.22845 0.62525 0.0
H1012 H 0.82455 0.3809 0.42942 0.0
H1013 H 0.9027 0.45245 0.40858 0.0
H1014 H 0.91426 0.41653 0.35653 0.0
H1015 H 0.89806 0.36724 0.31483 0.0
H1016 H 0.8135 0.30112 0.33291 0.0
H1017 H 0.80854 0.33209 0.38824 0.0
C1018 C 0.84473 0.38819 0.41382 0.0
C1019 C 0.86331 0.41887 0.423 0.0
C1020 C 0.84973 0.36845 0.38331 0.0
C1021 C 0.88846 0.42869 0.40211 0.0
C1022 C 0.89488 0.40826 0.37234 0.0
C1023 C 0.87899 0.35936 0.33118 0.0
C1024 C 0.85646 0.33164 0.32012 0.0
C1025 C 0.87513 0.37843 0.36236 0.0
C1026 C 0.83128 0.32213 0.34109 0.0
C1027 C 0.82839 0.33992 0.37265 0.0
H1028 H 0.65641 0.87554 0.36908 0.0
H1029 H 0.69946 0.80115 0.43195 0.0
H1030 H 0.74438 0.78265 0.39267 0.0
H1031 H 0.77047 0.78588 0.33958 0.0
H1032 H 0.72893 0.86104 0.27693 0.0
H1033 H 0.68506 0.88112 0.31714 0.0
C1034 C 0.67586 0.85562 0.37448 0.0
C1035 C 0.67395 0.83954 0.40347 0.0
C1036 C 0.70204 0.84508 0.35169 0.0
C1037 C 0.69952 0.81358 0.40967 0.0
C1038 C 0.72548 0.80304 0.38722 0.0
C1039 C 0.75194 0.80675 0.33466 0.0
C1040 C 0.75306 0.82168 0.30498 0.0
C1041 C 0.72672 0.81826 0.35795 0.0
C1042 C 0.72887 0.84893 0.29943 0.0
C1043 C 0.70362 0.86044 0.32245 0.0
H1044 H 0.2875 0.62486 0.41568 0.0
H1045 H 0.39885 0.64527 0.44393 0.0
H1046 H 0.39621 0.69336 0.41116 0.0
H1047 H 0.36345 0.72755 0.37212 0.0
H1048 H 0.25253 0.70699 0.34273 0.0
H1049 H 0.25343 0.66177 0.37938 0.0
C1050 C 0.31108 0.64006 0.4151 0.0
C1051 C 0.34345 0.63107 0.43209 0.0
C1052 C 0.30935 0.66786 0.39623 0.0
C1053 C 0.3738 0.651 0.43063 0.0
C1054 C 0.37224 0.67875 0.4121 0.0
C1055 C 0.33928 0.71355 0.37415 0.0
C1056 C 0.30796 0.72047 0.35477 0.0
C1057 C 0.34032 0.68711 0.39449 0.0
C1058 C 0.27689 0.70215 0.35754 0.0
C1059 C 0.27751 0.67614 0.37827 0.0
H1060 H 0.51501 0.27058 0.44155 0.0
H1061 H 0.50493 0.16164 0.41105 0.0
H1062 H 0.46663 0.17307 0.36321 0.0
H1063 H 0.43354 0.21307 0.33085 0.0
H1064 H 0.44018 0.32207 0.36033 0.0
H1065 H 0.48244 0.31163 0.40709 0.0
C1066 C 0.50445 0.24944 0.42438 0.0
C1067 C 0.51281 0.21529 0.43028 0.0
C1068 C 0.48187 0.25613 0.39649 0.0
C1069 C 0.49892 0.18821 0.40757 0.0
C1070 C 0.47698 0.19464 0.37996 0.0
C1071 C 0.44457 0.23461 0.34724 0.0
C1072 C 0.43384 0.26824 0.34212 0.0
C1073 C 0.46803 0.22838 0.37431 0.0
C1074 C 0.44822 0.29588 0.36368 0.0
C1075 C 0.4722 0.28989 0.39055 0.0
H1076 H 0.63957 0.84748 0.59364 0.0
H1077 H 0.66122 0.74972 0.53697 0.0
H1078 H 0.70393 0.73443 0.5817 0.0
H1079 H 0.73703 0.75059 0.63585 0.0
H1080 H 0.7134 0.84872 0.69161 0.0
H1081 H 0.66936 0.86204 0.6481 0.0
C1082 C 0.65359 0.82275 0.59098 0.0
C1083 C 0.64766 0.79991 0.56189 0.0
C1084 C 0.67776 0.81429 0.61659 0.0
C1085 C 0.66546 0.76774 0.55913 0.0
C1086 C 0.68992 0.75911 0.58463 0.0
C1087 C 0.72215 0.77483 0.63855 0.0
C1088 C 0.72883 0.79873 0.66695 0.0
C1089 C 0.69662 0.78243 0.61332 0.0
C1090 C 0.70899 0.82985 0.67011 0.0
C1091 C 0.68379 0.83757 0.64519 0.0
H1092 H 0.63687 0.20705 0.39387 0.0
H1093 H 0.72472 0.15059 0.43718 0.0
H1094 H 0.76439 0.16738 0.39658 0.0
H1095 H 0.77431 0.20054 0.34998 0.0
H1096 H 0.68486 0.25465 0.30581 0.0
H1097 H 0.64558 0.23672 0.34562 0.0
C1098 C 0.6647 0.19839 0.39427 0.0
C1099 C 0.67805 0.1779 0.41849 0.0
C1100 C 0.68703 0.20797 0.37087 0.0
C1101 C 0.71393 0.16625 0.41856 0.0
C1102 C 0.73659 0.17605 0.39554 0.0
C1103 C 0.7462 0.20828 0.34916 0.0
C1104 C 0.73248 0.22909 0.32527 0.0
C1105 C 0.72353 0.19729 0.37181 0.0
C1106 C 0.69599 0.23868 0.32406 0.0
C1107 C 0.67351 0.22845 0.3468 0.0
H1108 H 0.76734 0.56715 0.33983 0.0
H1109 H 0.81901 0.61963 0.42872 0.0
H1110 H 0.84149 0.66242 0.39706 0.0
H1111 H 0.84573 0.68531 0.34458 0.0
H1112 H 0.79428 0.63395 0.25503 0.0
H1113 H 0.77268 0.5899 0.28628 0.0
C1114 C 0.78321 0.58819 0.35215 0.0
C1115 C 0.79147 0.59045 0.3865 0.0
C1116 C 0.79638 0.61251 0.33366 0.0
C1117 C 0.81256 0.61741 0.40226 0.0
C1118 C 0.82539 0.64181 0.3842 0.0
C1119 C 0.83013 0.66424 0.33185 0.0
C1120 C 0.8217 0.66262 0.29768 0.0
C1121 C 0.81755 0.63954 0.34995 0.0
C1122 C 0.80138 0.63537 0.28137 0.0
C1123 C 0.7888 0.61042 0.29925 0.0
H1124 H 0.44924 0.81399 0.42732 0.0
H1125 H 0.54237 0.76909 0.38075 0.0
H1126 H 0.50899 0.76485 0.32643 0.0
H1127 H 0.45556 0.78173 0.29184 0.0
H1128 H 0.36311 0.82691 0.33972 0.0
H1129 H 0.3939 0.82341 0.39399 0.0
C1130 C 0.46185 0.80235 0.40534 0.0
C1131 C 0.49806 0.79194 0.40778 0.0
C1132 C 0.44285 0.80088 0.37445 0.0
C1133 C 0.51432 0.77688 0.37935 0.0
C1134 C 0.49541 0.77499 0.34831 0.0
C1135 C 0.44228 0.79063 0.31425 0.0
C1136 C 0.40749 0.80518 0.31202 0.0
C1137 C 0.46011 0.78826 0.34545 0.0
C1138 C 0.39006 0.81597 0.34101 0.0
C1139 C 0.40759 0.81389 0.37199 0.0
H1140 H 0.26055 0.47121 0.41075 0.0
H1141 H 0.33087 0.41225 0.47188 0.0
H1142 H 0.32883 0.36342 0.42881 0.0
H1143 H 0.31406 0.34048 0.37163 0.0
H1144 H 0.24589 0.39882 0.30829 0.0
H1145 H 0.2396 0.44472 0.35434 0.0
C1146 C 0.27455 0.4473 0.41481 0.0
C1147 C 0.29606 0.44526 0.44421 0.0
C1148 C 0.2741 0.41949 0.38939 0.0
C1149 C 0.31441 0.41438 0.44926 0.0
C1150 C 0.31336 0.38651 0.42464 0.0
C1151 C 0.29749 0.36309 0.36796 0.0
C1152 C 0.28101 0.36663 0.33656 0.0
C1153 C 0.29448 0.38929 0.39421 0.0
C1154 C 0.25899 0.39565 0.33229 0.0
C1155 C 0.25555 0.42193 0.35856 0.0
H1156 H 0.50718 0.15567 0.63117 0.0
H1157 H 0.45813 0.21811 0.55943 0.0
H1158 H 0.41344 0.23966 0.59794 0.0
H1159 H 0.39002 0.24328 0.65286 0.0
H1160 H 0.43704 0.17964 0.72435 0.0
H1161 H 0.48033 0.15563 0.68483 0.0
C1162 C 0.48641 0.17352 0.62368 0.0
C1163 C 0.48659 0.18563 0.59249 0.0
C1164 C 0.46044 0.18575 0.64598 0.0
C1165 C 0.45934 0.20893 0.58347 0.0
C1166 C 0.43358 0.22119 0.60546 0.0
C1167 C 0.40967 0.22408 0.65982 0.0
C1168 C 0.41054 0.21359 0.69167 0.0
C1169 C 0.43428 0.21029 0.63697 0.0
C1170 C 0.43579 0.18823 0.70002 0.0
C1171 C 0.46063 0.17456 0.67745 0.0
H1172 H 0.82208 0.42114 0.54457 0.0
H1173 H 0.72224 0.36896 0.52105 0.0
H1174 H 0.73809 0.33121 0.5641 0.0
H1175 H 0.77875 0.31651 0.61087 0.0
H1176 H 0.87706 0.37151 0.63518 0.0
H1177 H 0.86345 0.40506 0.58896 0.0
C1178 C 0.80352 0.40182 0.54911 0.0
C1179 C 0.77054 0.39835 0.53046 0.0
C1180 C 0.8127 0.38082 0.57379 0.0
C1181 C 0.74751 0.37222 0.53555 0.0
C1182 C 0.75659 0.35079 0.56005 0.0
C1183 C 0.79737 0.33554 0.60569 0.0
C1184 C 0.82879 0.34179 0.62627 0.0
C1185 C 0.7889 0.35528 0.57966 0.0
C1186 C 0.85272 0.36645 0.61958 0.0
C1187 C 0.84489 0.38566 0.59332 0.0
H1188 H 0.29829 0.66222 0.55971 0.0
H1189 H 0.22169 0.58688 0.57535 0.0
H1190 H 0.20308 0.62336 0.62486 0.0
H1191 H 0.21708 0.67166 0.6689 0.0
H1192 H 0.29992 0.74142 0.65499 0.0
H1193 H 0.30761 0.71253 0.59963 0.0
C1194 C 0.27698 0.65405 0.57357 0.0
C1195 C 0.26183 0.62174 0.56436 0.0
C1196 C 0.26797 0.67411 0.60264 0.0
C1197 C 0.23382 0.61169 0.58209 0.0
C1198 C 0.2235 0.63237 0.61058 0.0
C1199 C 0.23611 0.6809 0.65329 0.0
C1200 C 0.258 0.70866 0.6658 0.0
C1201 C 0.24164 0.66287 0.62195 0.0
C1202 C 0.28284 0.72026 0.64573 0.0
C1203 C 0.28733 0.70362 0.61414 0.0
loop_
_geom_bond_atom_site_label_1
_geom_bond_atom_site_label_2
_geom_bond_distance
_geom_bond_site_symmetry_2
_ccdc_geom_bond_type
Cu0 N1 1.999 . S
Cu0 O6 1.974 1_545 S
Cu0 N11 1.985 1_445 S
Cu0 O20 1.959 1_455 S
N1 Cu0 1.999 . S
N1 C3 1.263 . S
N1 C5 1.389 . S
N2 C3 1.358 . S
N2 C4 1.400 . S
C3 N1 1.263 . S
C3 N2 1.358 . S
C3 H9 0.930 . S
C4 N2 1.400 . S
C4 C5 1.351 . S
C4 H21 0.930 . S
C5 N1 1.389 . S
C5 C4 1.351 . S
C5 H10 0.930 . S
O6 Cu0 1.974 1_565 S
O6 C16 1.282 . S
C7 O8 1.261 . S
C7 O20 1.251 . S
O8 C7 1.261 . S
H9 C3 0.930 . S
H10 C5 0.930 . S
N11 Cu0 1.985 1_665 S
N11 C13 1.335 . S
N11 C14 1.390 . S
N12 C13 1.345 . S
N12 C15 1.336 . S
C13 N11 1.335 . S
C13 N12 1.345 . S
C13 H18 0.930 1_565 S
C14 N11 1.390 . S
C14 C15 1.346 . S
C14 H19 0.930 1_655 S
C15 N12 1.336 . S
C15 C14 1.346 . S
C15 H22 0.929 . S
C16 O6 1.282 . S
C16 O17 1.216 . S
O17 C16 1.216 . S
H18 C13 0.930 1_545 S
H19 C14 0.930 1_455 S
O20 Cu0 1.959 1_655 S
O20 C7 1.251 . S
H21 C4 0.930 . S
H22 C15 0.929 . S
Cu23 N24 1.999 1_445 S
Cu23 O29 1.974 1_455 S
Cu23 N34 1.985 . S
Cu23 O43 1.959 1_545 S
N24 Cu23 1.999 1_665 S
N24 C26 1.263 . S
N24 C28 1.389 . S
N25 C26 1.358 . S
N25 C27 1.400 . S
C26 N24 1.263 . S
C26 N25 1.358 . S
C26 H32 0.930 . S
C27 N25 1.400 . S
C27 C28 1.351 . S
C27 H44 0.930 . S
C28 N24 1.389 . S
C28 C27 1.351 . S
C28 H33 0.930 1_655 S
O29 Cu23 1.974 1_655 S
O29 C39 1.282 . S
C30 O31 1.261 . S
C30 O43 1.251 . S
O31 C30 1.261 . S
H32 C26 0.930 . S
H33 C28 0.930 1_455 S
N34 Cu23 1.985 . S
N34 C36 1.335 . S
N34 C37 1.390 . S
N35 C36 1.345 . S
N35 C38 1.336 . S
C36 N34 1.335 . S
C36 N35 1.345 . S
C36 H41 0.930 . S
C37 N34 1.390 . S
C37 C38 1.346 . S
C37 H42 0.930 . S
C38 N35 1.336 . S
C38 C37 1.346 . S
C38 H45 0.929 . S
C39 O29 1.282 . S
C39 O40 1.216 . S
O40 C39 1.216 . S
H41 C36 0.930 . S
H42 C37 0.930 . S
O43 Cu23 1.959 1_565 S
O43 C30 1.251 . S
H44 C27 0.930 . S
H45 C38 0.929 . S
Cu46 N47 1.996 1_544 S
Cu46 O52 1.970 1_545 S
Cu46 N57 1.988 . S
Cu46 O66 1.963 1_554 S
N47 Cu46 1.996 1_566 S
N47 C49 1.263 . S
N47 C51 1.389 . S
N48 C49 1.358 . S
N48 C50 1.400 . S
C49 N47 1.263 . S
C49 N48 1.358 . S
C49 H55 0.930 . S
C50 N48 1.400 . S
C50 C51 1.351 . S
C50 H67 0.930 . S
C51 N47 1.389 . S
C51 C50 1.351 . S
C51 H56 0.930 . S
O52 Cu46 1.970 1_565 S
O52 C62 1.282 . S
C53 O54 1.261 . S
C53 O66 1.251 . S
O54 C53 1.261 . S
H55 C49 0.930 . S
H56 C51 0.930 . S
N57 Cu46 1.988 . S
N57 C59 1.335 . S
N57 C60 1.390 . S
N58 C59 1.345 . S
N58 C61 1.336 . S
C59 N57 1.335 . S
C59 N58 1.345 . S
C59 H64 0.930 . S
C60 N57 1.390 . S
C60 C61 1.346 . S
C60 H65 0.930 . S
C61 N58 1.336 . S
C61 C60 1.346 . S
C61 H68 0.929 . S
C62 O52 1.282 . S
C62 O63 1.216 . S
O63 C62 1.216 . S
H64 C59 0.930 . S
H65 C60 0.930 . S
O66 Cu46 1.963 1_556 S
O66 C53 1.251 . S
H67 C50 0.930 . S
H68 C61 0.929 . S
Cu69 N70 1.999 1_554 S
Cu69 O75 1.974 . S
Cu69 N80 1.985 1_455 S
Cu69 O89 1.959 1_454 S
N70 Cu69 1.999 1_556 S
N70 C72 1.263 . S
N70 C74 1.389 . S
N71 C72 1.358 . S
N71 C73 1.400 . S
C72 N70 1.263 . S
C72 N71 1.358 . S
C72 H78 0.930 . S
C73 N71 1.400 . S
C73 C74 1.351 . S
C73 H90 0.930 . S
C74 N70 1.389 . S
C74 C73 1.351 . S
C74 H79 0.930 . S
O75 Cu69 1.974 . S
O75 C85 1.282 . S
C76 O77 1.261 . S
C76 O89 1.251 . S
O77 C76 1.261 . S
H78 C72 0.930 . S
H79 C74 0.930 . S
N80 Cu69 1.985 1_655 S
N80 C82 1.335 . S
N80 C83 1.390 . S
N81 C82 1.345 . S
N81 C84 1.336 . S
C82 N80 1.335 . S
C82 N81 1.345 . S
C82 H87 0.930 . S
C83 N80 1.390 . S
C83 C84 1.346 . S
C83 H88 0.930 1_655 S
C84 N81 1.336 . S
C84 C83 1.346 . S
C84 H91 0.929 . S
C85 O75 1.282 . S
C85 O86 1.216 . S
O86 C85 1.216 . S
H87 C82 0.930 . S
H88 C83 0.930 1_455 S
O89 Cu69 1.959 1_656 S
O89 C76 1.251 . S
H90 C73 0.930 . S
H91 C84 0.929 . S
Cu92 N93 1.999 1_554 S
Cu92 O98 1.974 . S
Cu92 N103 1.985 . S
Cu92 O112 1.959 1_554 S
N93 Cu92 1.999 1_556 S
N93 C95 1.263 . S
N93 C97 1.389 . S
N94 C95 1.358 . S
N94 C96 1.400 . S
C95 N93 1.263 . S
C95 N94 1.358 . S
C95 H101 0.930 1_556 S
C96 N94 1.400 . S
C96 C97 1.351 . S
C96 H113 0.930 . S
C97 N93 1.389 . S
C97 C96 1.351 . S
C97 H102 0.930 . S
O98 Cu92 1.974 . S
O98 C108 1.282 . S
C99 O100 1.261 1_565 S
C99 O112 1.251 1_565 S
O100 C99 1.261 1_545 S
H101 C95 0.930 1_554 S
H102 C97 0.930 . S
N103 Cu92 1.985 . S
N103 C105 1.335 1_545 S
N103 C106 1.390 . S
N104 C105 1.345 . S
N104 C107 1.361 . S
C105 N103 1.335 1_565 S
C105 N104 1.345 . S
C105 H110 0.930 . S
C106 N103 1.390 . S
C106 C107 1.315 1_545 S
C106 H111 0.930 . S
C107 N104 1.361 . S
C107 C106 1.315 1_565 S
C107 H114 0.936 . S
C108 O98 1.282 . S
C108 O109 1.216 . S
O109 C108 1.216 . S
H110 C105 0.930 . S
H111 C106 0.930 . S
O112 Cu92 1.959 1_556 S
O112 C99 1.251 1_545 S
H113 C96 0.930 . S
H114 C107 0.936 . S
Cu115 N116 1.999 1_454 S
Cu115 O121 1.974 1_455 S
Cu115 N126 1.985 . S
Cu115 O135 1.959 1_554 S
N116 Cu115 1.999 1_656 S
N116 C118 1.263 . S
N116 C120 1.389 . S
N117 C118 1.358 . S
N117 C119 1.400 . S
C118 N116 1.263 . S
C118 N117 1.358 . S
C118 H124 0.930 . S
C119 N117 1.400 . S
C119 C120 1.351 . S
C119 H136 0.930 . S
C120 N116 1.389 . S
C120 C119 1.351 . S
C120 H125 0.930 1_655 S
O121 Cu115 1.974 1_655 S
O121 C131 1.282 . S
C122 O123 1.261 . S
C122 O135 1.251 . S
O123 C122 1.261 . S
H124 C118 0.930 . S
H125 C120 0.930 1_455 S
N126 Cu115 1.985 . S
N126 C128 1.335 . S
N126 C129 1.390 . S
N127 C128 1.345 . S
N127 C130 1.336 . S
C128 N126 1.335 . S
C128 N127 1.345 . S
C128 H133 0.930 . S
C129 N126 1.390 . S
C129 C130 1.346 . S
C129 H134 0.930 . S
C130 N127 1.336 . S
C130 C129 1.346 . S
C130 H137 0.929 . S
C131 O121 1.282 . S
C131 O132 1.216 . S
O132 C131 1.216 . S
H133 C128 0.930 . S
H134 C129 0.930 . S
O135 Cu115 1.959 1_556 S
O135 C122 1.251 . S
H136 C119 0.930 . S
H137 C130 0.929 . S
Cu138 N139 1.999 . S
Cu138 O144 1.974 . S
Cu138 N149 1.985 . S
Cu138 O158 1.959 . S
N139 Cu138 1.999 . S
N139 C141 1.263 . S
N139 C143 1.389 . S
N140 C141 1.358 . S
N140 C142 1.400 . S
C141 N139 1.263 . S
C141 N140 1.358 . S
C141 H147 0.930 . S
C142 N140 1.400 . S
C142 C143 1.351 . S
C142 H159 0.930 . S
C143 N139 1.389 . S
C143 C142 1.351 . S
C143 H148 0.930 . S
O144 Cu138 1.974 . S
O144 C154 1.282 . S
C145 O146 1.261 . S
C145 O158 1.251 . S
O146 C145 1.261 . S
H147 C141 0.930 . S
H148 C143 0.930 . S
N149 Cu138 1.985 . S
N149 C151 1.335 . S
N149 C152 1.390 . S
N150 C151 1.345 . S
N150 C153 1.336 . S
C151 N149 1.335 . S
C151 N150 1.345 . S
C151 H156 0.930 . S
C152 N149 1.390 . S
C152 C153 1.346 . S
C152 H157 0.930 . S
C153 N150 1.336 . S
C153 C152 1.346 . S
C153 H160 0.929 . S
C154 O144 1.282 . S
C154 O155 1.216 . S
O155 C154 1.216 . S
H156 C151 0.930 . S
H157 C152 0.930 . S
O158 Cu138 1.959 . S
O158 C145 1.251 . S
H159 C142 0.930 . S
H160 C153 0.929 . S
Cu161 N162 1.999 . S
Cu161 O167 1.974 . S
Cu161 N172 1.985 . S
Cu161 O181 1.959 . S
N162 Cu161 1.999 . S
N162 C164 1.263 . S
N162 C166 1.389 . S
N163 C164 1.358 . S
N163 C165 1.400 . S
C164 N162 1.263 . S
C164 N163 1.358 . S
C164 H170 0.930 . S
C165 N163 1.400 . S
C165 C166 1.351 . S
C165 H182 0.930 . S
C166 N162 1.389 . S
C166 C165 1.351 . S
C166 H171 0.930 . S
O167 Cu161 1.974 . S
O167 C177 1.282 . S
C168 O169 1.261 . S
C168 O181 1.251 . S
O169 C168 1.261 . S
H170 C164 0.930 . S
H171 C166 0.930 . S
N172 Cu161 1.985 . S
N172 C174 1.335 . S
N172 C175 1.390 . S
N173 C174 1.345 . S
N173 C176 1.336 . S
C174 N172 1.335 . S
C174 N173 1.345 . S
C174 H179 0.930 . S
C175 N172 1.390 . S
C175 C176 1.346 . S
C175 H180 0.930 . S
C176 N173 1.336 . S
C176 C175 1.346 . S
C176 H183 0.929 . S
C177 O167 1.282 . S
C177 O178 1.216 . S
O178 C177 1.216 . S
H179 C174 0.930 . S
H180 C175 0.930 . S
O181 Cu161 1.959 . S
O181 C168 1.251 . S
H182 C165 0.930 . S
H183 C176 0.929 . S
Cu184 N185 1.999 . S
Cu184 O190 1.974 . S
Cu184 N195 1.985 . S
Cu184 O204 1.959 . S
N185 Cu184 1.999 . S
N185 C187 1.263 . S
N185 C189 1.389 . S
N186 C187 1.358 . S
N186 C188 1.400 . S
C187 N185 1.263 . S
C187 N186 1.358 . S
C187 H193 0.930 . S
C188 N186 1.400 . S
C188 C189 1.351 . S
C188 H205 0.930 . S
C189 N185 1.389 . S
C189 C188 1.351 . S
C189 H194 0.930 . S
O190 Cu184 1.974 . S
O190 C200 1.282 . S
C191 O192 1.261 . S
C191 O204 1.251 . S
O192 C191 1.261 . S
H193 C187 0.930 . S
H194 C189 0.930 . S
N195 Cu184 1.985 . S
N195 C197 1.335 . S
N195 C198 1.390 . S
N196 C197 1.345 . S
N196 C199 1.336 . S
C197 N195 1.335 . S
C197 N196 1.345 . S
C197 H202 0.930 . S
C198 N195 1.390 . S
C198 C199 1.346 . S
C198 H203 0.930 . S
C199 N196 1.336 . S
C199 C198 1.346 . S
C199 H206 0.929 . S
C200 O190 1.282 . S
C200 O201 1.216 . S
O201 C200 1.216 . S
H202 C197 0.930 . S
H203 C198 0.930 . S
O204 Cu184 1.959 . S
O204 C191 1.251 . S
H205 C188 0.930 . S
H206 C199 0.929 . S
Cu207 N208 1.999 . S
Cu207 O213 1.974 . S
Cu207 N218 1.985 . S
Cu207 O227 1.959 . S
N208 Cu207 1.999 . S
N208 C210 1.263 . S
N208 C212 1.389 . S
N209 C210 1.358 . S
N209 C211 1.400 . S
C210 N208 1.263 . S
C210 N209 1.358 . S
C210 H216 0.930 . S
C211 N209 1.400 . S
C211 C212 1.351 . S
C211 H228 0.930 . S
C212 N208 1.389 . S
C212 C211 1.351 . S
C212 H217 0.930 . S
O213 Cu207 1.974 . S
O213 C223 1.282 . S
C214 O215 1.261 . S
C214 O227 1.251 . S
O215 C214 1.261 . S
H216 C210 0.930 . S
H217 C212 0.930 . S
N218 Cu207 1.985 . S
N218 C220 1.335 . S
N218 C221 1.390 . S
N219 C220 1.345 . S
N219 C222 1.336 . S
C220 N218 1.335 . S
C220 N219 1.345 . S
C220 H225 0.930 . S
C221 N218 1.390 . S
C221 C222 1.346 . S
C221 H226 0.930 . S
C222 N219 1.336 . S
C222 C221 1.346 . S
C222 H229 0.929 . S
C223 O213 1.282 . S
C223 O224 1.216 . S
O224 C223 1.216 . S
H225 C220 0.930 . S
H226 C221 0.930 . S
O227 Cu207 1.959 . S
O227 C214 1.251 . S
H228 C211 0.930 . S
H229 C222 0.929 . S
Cu230 N231 1.999 . S
Cu230 O236 1.974 . S
Cu230 N241 1.985 . S
Cu230 O250 1.959 . S
N231 Cu230 1.999 . S
N231 C233 1.263 . S
N231 C235 1.389 . S
N232 C233 1.358 . S
N232 C234 1.400 . S
C233 N231 1.263 . S
C233 N232 1.358 . S
C233 H239 0.930 . S
C234 N232 1.400 . S
C234 C235 1.351 . S
C234 H251 0.930 . S
C235 N231 1.389 . S
C235 C234 1.351 . S
C235 H240 0.930 . S
O236 Cu230 1.974 . S
O236 C246 1.282 . S
C237 O238 1.261 . S
C237 O250 1.251 . S
O238 C237 1.261 . S
H239 C233 0.930 . S
H240 C235 0.930 . S
N241 Cu230 1.985 . S
N241 C243 1.335 . S
N241 C244 1.390 . S
N242 C243 1.345 . S
N242 C245 1.336 . S
C243 N241 1.335 . S
C243 N242 1.345 . S
C243 H248 0.930 . S
C244 N241 1.390 . S
C244 C245 1.346 . S
C244 H249 0.930 . S
C245 N242 1.336 . S
C245 C244 1.346 . S
C245 H252 0.929 . S
C246 O236 1.282 . S
C246 O247 1.216 . S
O247 C246 1.216 . S
H248 C243 0.930 . S
H249 C244 0.930 . S
O250 Cu230 1.959 . S
O250 C237 1.251 . S
H251 C234 0.930 . S
H252 C245 0.929 . S
Cu253 N254 1.999 . S
Cu253 O259 1.974 . S
Cu253 N264 1.985 . S
Cu253 O273 1.959 . S
N254 Cu253 1.999 . S
N254 C256 1.263 . S
N254 C258 1.389 . S
N255 C256 1.358 . S
N255 C257 1.400 . S
C256 N254 1.263 . S
C256 N255 1.358 . S
C256 H262 0.930 . S
C257 N255 1.400 . S
C257 C258 1.351 . S
C257 H274 0.930 . S
C258 N254 1.389 . S
C258 C257 1.351 . S
C258 H263 0.930 . S
O259 Cu253 1.974 . S
O259 C269 1.282 . S
C260 O261 1.261 . S
C260 O273 1.251 . S
O261 C260 1.261 . S
H262 C256 0.930 . S
H263 C258 0.930 . S
N264 Cu253 1.985 . S
N264 C266 1.335 . S
N264 C267 1.390 . S
N265 C266 1.345 . S
N265 C268 1.336 . S
C266 N264 1.335 . S
C266 N265 1.345 . S
C266 H271 0.930 . S
C267 N264 1.390 . S
C267 C268 1.346 . S
C267 H272 0.930 . S
C268 N265 1.336 . S
C268 C267 1.346 . S
C268 H275 0.929 . S
C269 O259 1.282 . S
C269 O270 1.216 . S
O270 C269 1.216 . S
H271 C266 0.930 . S
H272 C267 0.930 . S
O273 Cu253 1.959 . S
O273 C260 1.251 . S
H274 C257 0.930 . S
H275 C268 0.929 . S
Tb276 O279 2.453 . S
Tb276 O280 2.596 . S
Tb276 O281 2.374 . S
Tb276 O289 2.343 . S
Tb276 O291 2.353 . S
Tb276 O293 2.427 . S
Tb276 O294 2.513 . S
C277 O281 1.251 . S
C277 O283 1.263 . S
Tb278 O280 2.343 . S
Tb278 O283 2.353 . S
Tb278 O286 2.427 . S
Tb278 O287 2.513 . S
Tb278 O288 2.453 . S
Tb278 O289 2.596 . S
Tb278 O290 2.374 . S
O279 Tb276 2.453 . S
O279 C295 1.245 . S
O280 Tb276 2.596 . S
O280 Tb278 2.343 . S
O280 C295 1.259 . S
O281 Tb276 2.374 . S
O281 C277 1.251 . S
C282 O286 1.275 . S
C282 O287 1.246 . S
O283 C277 1.263 . S
O283 Tb278 2.353 . S
C284 O288 1.245 . S
C284 O289 1.259 . S
C285 O290 1.250 . S
C285 O291 1.263 . S
O286 Tb278 2.427 . S
O286 C282 1.275 . S
O287 Tb278 2.513 . S
O287 C282 1.246 . S
O288 Tb278 2.453 . S
O288 C284 1.245 . S
O289 Tb276 2.343 . S
O289 Tb278 2.596 . S
O289 C284 1.259 . S
O290 Tb278 2.374 . S
O290 C285 1.250 . S
O291 Tb276 2.353 . S
O291 C285 1.263 . S
C292 O293 1.275 . S
C292 O294 1.246 . S
O293 Tb276 2.427 . S
O293 C292 1.275 . S
O294 Tb276 2.513 . S
O294 C292 1.246 . S
C295 O279 1.245 . S
C295 O280 1.259 . S
Tb296 O299 2.453 . S
Tb296 O300 2.596 . S
Tb296 O301 2.374 . S
Tb296 O309 2.343 . S
Tb296 O311 2.353 . S
Tb296 O313 2.427 . S
Tb296 O314 2.513 . S
C297 O301 1.251 . S
C297 O303 1.263 . S
Tb298 O300 2.343 . S
Tb298 O303 2.353 . S
Tb298 O306 2.427 . S
Tb298 O307 2.513 . S
Tb298 O308 2.453 . S
Tb298 O309 2.596 . S
Tb298 O310 2.374 . S
O299 Tb296 2.453 . S
O299 C315 1.245 . S
O300 Tb296 2.596 . S
O300 Tb298 2.343 . S
O300 C315 1.259 . S
O301 Tb296 2.374 . S
O301 C297 1.251 . S
C302 O306 1.275 . S
C302 O307 1.246 . S
O303 C297 1.263 . S
O303 Tb298 2.353 . S
C304 O308 1.245 . S
C304 O309 1.259 . S
C305 O310 1.250 . S
C305 O311 1.263 . S
O306 Tb298 2.427 . S
O306 C302 1.275 . S
O307 Tb298 2.513 . S
O307 C302 1.246 . S
O308 Tb298 2.453 . S
O308 C304 1.245 . S
O309 Tb296 2.343 . S
O309 Tb298 2.596 . S
O309 C304 1.259 . S
O310 Tb298 2.374 . S
O310 C305 1.250 . S
O311 Tb296 2.353 . S
O311 C305 1.263 . S
C312 O313 1.275 . S
C312 O314 1.246 . S
O313 Tb296 2.427 . S
O313 C312 1.275 . S
O314 Tb296 2.513 . S
O314 C312 1.246 . S
C315 O299 1.245 . S
C315 O300 1.259 . S
Tb316 O319 2.453 . S
Tb316 O320 2.596 . S
Tb316 O321 2.374 . S
Tb316 O329 2.343 . S
Tb316 O331 2.353 . S
Tb316 O333 2.427 . S
Tb316 O334 2.513 . S
C317 O321 1.251 . S
C317 O323 1.263 . S
Tb318 O320 2.343 . S
Tb318 O323 2.353 . S
Tb318 O326 2.427 . S
Tb318 O327 2.513 . S
Tb318 O328 2.453 . S
Tb318 O329 2.596 . S
Tb318 O330 2.374 . S
O319 Tb316 2.453 . S
O319 C335 1.245 . S
O320 Tb316 2.596 . S
O320 Tb318 2.343 . S
O320 C335 1.259 . S
O321 Tb316 2.374 . S
O321 C317 1.251 . S
C322 O326 1.275 . S
C322 O327 1.246 . S
O323 C317 1.263 . S
O323 Tb318 2.353 . S
C324 O328 1.245 . S
C324 O329 1.259 . S
C325 O330 1.250 . S
C325 O331 1.263 . S
O326 Tb318 2.427 . S
O326 C322 1.275 . S
O327 Tb318 2.513 . S
O327 C322 1.246 . S
O328 Tb318 2.453 . S
O328 C324 1.245 . S
O329 Tb316 2.343 . S
O329 Tb318 2.596 . S
O329 C324 1.259 . S
O330 Tb318 2.374 . S
O330 C325 1.250 . S
O331 Tb316 2.353 . S
O331 C325 1.263 . S
C332 O333 1.275 . S
C332 O334 1.246 . S
O333 Tb316 2.427 . S
O333 C332 1.275 . S
O334 Tb316 2.513 . S
O334 C332 1.246 . S
C335 O319 1.245 . S
C335 O320 1.259 . S
Tb336 O339 2.453 . S
Tb336 O340 2.596 . S
Tb336 O341 2.374 . S
Tb336 O349 2.343 . S
Tb336 O351 2.353 . S
Tb336 O353 2.427 . S
Tb336 O354 2.513 . S
C337 O341 1.251 . S
C337 O343 1.263 . S
Tb338 O340 2.343 . S
Tb338 O343 2.353 . S
Tb338 O346 2.427 . S
Tb338 O347 2.513 . S
Tb338 O348 2.453 . S
Tb338 O349 2.596 . S
Tb338 O350 2.374 . S
O339 Tb336 2.453 . S
O339 C355 1.245 . S
O340 Tb336 2.596 . S
O340 Tb338 2.343 . S
O340 C355 1.259 . S
O341 Tb336 2.374 . S
O341 C337 1.251 . S
C342 O346 1.275 . S
C342 O347 1.246 . S
O343 C337 1.263 . S
O343 Tb338 2.353 . S
C344 O348 1.245 . S
C344 O349 1.259 . S
C345 O350 1.250 . S
C345 O351 1.263 . S
O346 Tb338 2.427 . S
O346 C342 1.275 . S
O347 Tb338 2.513 . S
O347 C342 1.246 . S
O348 Tb338 2.453 . S
O348 C344 1.245 . S
O349 Tb336 2.343 . S
O349 Tb338 2.596 . S
O349 C344 1.259 . S
O350 Tb338 2.374 . S
O350 C345 1.250 . S
O351 Tb336 2.353 . S
O351 C345 1.263 . S
C352 O353 1.275 . S
C352 O354 1.246 . S
O353 Tb336 2.427 . S
O353 C352 1.275 . S
O354 Tb336 2.513 . S
O354 C352 1.246 . S
C355 O339 1.245 . S
C355 O340 1.259 . S
Tb356 O359 2.453 . S
Tb356 O360 2.596 . S
Tb356 O361 2.374 . S
Tb356 O369 2.343 . S
Tb356 O371 2.353 . S
Tb356 O373 2.427 . S
Tb356 O374 2.513 . S
C357 O361 1.251 . S
C357 O363 1.263 . S
Tb358 O360 2.343 . S
Tb358 O363 2.353 . S
Tb358 O366 2.427 . S
Tb358 O367 2.513 . S
Tb358 O368 2.453 . S
Tb358 O369 2.596 . S
Tb358 O370 2.374 . S
O359 Tb356 2.453 . S
O359 C375 1.245 . S
O360 Tb356 2.596 . S
O360 Tb358 2.343 . S
O360 C375 1.259 . S
O361 Tb356 2.374 . S
O361 C357 1.251 . S
C362 O366 1.275 . S
C362 O367 1.246 . S
O363 C357 1.263 . S
O363 Tb358 2.353 . S
C364 O368 1.245 . S
C364 O369 1.259 . S
C365 O370 1.250 . S
C365 O371 1.263 . S
O366 Tb358 2.427 . S
O366 C362 1.275 . S
O367 Tb358 2.513 . S
O367 C362 1.246 . S
O368 Tb358 2.453 . S
O368 C364 1.245 . S
O369 Tb356 2.343 . S
O369 Tb358 2.596 . S
O369 C364 1.259 . S
O370 Tb358 2.374 . S
O370 C365 1.250 . S
O371 Tb356 2.353 . S
O371 C365 1.263 . S
C372 O373 1.275 . S
C372 O374 1.246 . S
O373 Tb356 2.427 . S
O373 C372 1.275 . S
O374 Tb356 2.513 . S
O374 C372 1.246 . S
C375 O359 1.245 . S
C375 O360 1.259 . S
Tb376 O379 2.453 . S
Tb376 O380 2.596 . S
Tb376 O381 2.374 . S
Tb376 O389 2.343 . S
Tb376 O391 2.353 . S
Tb376 O393 2.427 . S
Tb376 O394 2.513 . S
C377 O381 1.251 . S
C377 O383 1.263 . S
Tb378 O380 2.343 . S
Tb378 O383 2.353 . S
Tb378 O386 2.427 . S
Tb378 O387 2.513 . S
Tb378 O388 2.453 . S
Tb378 O389 2.596 . S
Tb378 O390 2.374 . S
O379 Tb376 2.453 . S
O379 C395 1.245 . S
O380 Tb376 2.596 . S
O380 Tb378 2.343 . S
O380 C395 1.259 . S
O381 Tb376 2.374 . S
O381 C377 1.251 . S
C382 O386 1.275 . S
C382 O387 1.246 . S
O383 C377 1.263 . S
O383 Tb378 2.353 . S
C384 O388 1.245 . S
C384 O389 1.259 . S
C385 O390 1.250 . S
C385 O391 1.263 . S
O386 Tb378 2.427 . S
O386 C382 1.275 . S
O387 Tb378 2.513 . S
O387 C382 1.246 . S
O388 Tb378 2.453 . S
O388 C384 1.245 . S
O389 Tb376 2.343 . S
O389 Tb378 2.596 . S
O389 C384 1.259 . S
O390 Tb378 2.374 . S
O390 C385 1.250 . S
O391 Tb376 2.353 . S
O391 C385 1.263 . S
C392 O393 1.275 . S
C392 O394 1.246 . S
O393 Tb376 2.427 . S
O393 C392 1.275 . S
O394 Tb376 2.513 . S
O394 C392 1.246 . S
C395 O379 1.245 . S
C395 O380 1.259 . S
Tb396 O399 2.453 . S
Tb396 O400 2.596 . S
Tb396 O401 2.374 . S
Tb396 O409 2.343 . S
Tb396 O411 2.353 . S
Tb396 O413 2.427 . S
Tb396 O414 2.513 . S
C397 O401 1.251 . S
C397 O403 1.263 . S
Tb398 O400 2.343 . S
Tb398 O403 2.353 . S
Tb398 O406 2.427 . S
Tb398 O407 2.513 . S
Tb398 O408 2.453 . S
Tb398 O409 2.596 . S
Tb398 O410 2.374 . S
O399 Tb396 2.453 . S
O399 C415 1.245 . S
O400 Tb396 2.596 . S
O400 Tb398 2.343 . S
O400 C415 1.259 . S
O401 Tb396 2.374 . S
O401 C397 1.251 . S
C402 O406 1.275 . S
C402 O407 1.246 . S
O403 C397 1.263 . S
O403 Tb398 2.353 . S
C404 O408 1.245 . S
C404 O409 1.259 . S
C405 O410 1.250 . S
C405 O411 1.263 . S
O406 Tb398 2.427 . S
O406 C402 1.275 . S
O407 Tb398 2.513 . S
O407 C402 1.246 . S
O408 Tb398 2.453 . S
O408 C404 1.245 . S
O409 Tb396 2.343 . S
O409 Tb398 2.596 . S
O409 C404 1.259 . S
O410 Tb398 2.374 . S
O410 C405 1.250 . S
O411 Tb396 2.353 . S
O411 C405 1.263 . S
C412 O413 1.275 . S
C412 O414 1.246 . S
O413 Tb396 2.427 . S
O413 C412 1.275 . S
O414 Tb396 2.513 . S
O414 C412 1.246 . S
C415 O399 1.245 . S
C415 O400 1.259 . S
Tb416 O419 2.453 . S
Tb416 O420 2.596 . S
Tb416 O421 2.374 . S
Tb416 O429 2.343 . S
Tb416 O431 2.353 . S
Tb416 O433 2.427 . S
Tb416 O434 2.513 . S
C417 O421 1.251 . S
C417 O423 1.263 . S
Tb418 O420 2.343 . S
Tb418 O423 2.353 . S
Tb418 O426 2.427 . S
Tb418 O427 2.513 . S
Tb418 O428 2.453 . S
Tb418 O429 2.596 . S
Tb418 O430 2.374 . S
O419 Tb416 2.453 . S
O419 C435 1.245 . S
O420 Tb416 2.596 . S
O420 Tb418 2.343 . S
O420 C435 1.259 . S
O421 Tb416 2.374 . S
O421 C417 1.251 . S
C422 O426 1.275 . S
C422 O427 1.246 . S
O423 C417 1.263 . S
O423 Tb418 2.353 . S
C424 O428 1.245 . S
C424 O429 1.259 . S
C425 O430 1.250 . S
C425 O431 1.263 . S
O426 Tb418 2.427 . S
O426 C422 1.275 . S
O427 Tb418 2.513 . S
O427 C422 1.246 . S
O428 Tb418 2.453 . S
O428 C424 1.245 . S
O429 Tb416 2.343 . S
O429 Tb418 2.596 . S
O429 C424 1.259 . S
O430 Tb418 2.374 . S
O430 C425 1.250 . S
O431 Tb416 2.353 . S
O431 C425 1.263 . S
C432 O433 1.275 . S
C432 O434 1.246 . S
O433 Tb416 2.427 . S
O433 C432 1.275 . S
O434 Tb416 2.513 . S
O434 C432 1.246 . S
C435 O419 1.245 . S
C435 O420 1.259 . S
H436 C442 0.930 . S
H437 C445 0.930 . S
H438 C446 0.930 . S
H439 C447 0.930 . S
H440 C450 0.930 . S
H441 C451 0.930 . S
C442 H436 0.930 . S
C442 C443 1.355 . S
C442 C444 1.415 . S
C443 C442 1.355 . S
C443 C445 1.419 . S
C444 C442 1.415 . S
C444 C449 1.425 . S
C444 C451 1.409 . S
C445 H437 0.930 . S
C445 C443 1.419 . S
C445 C446 1.362 . S
C446 H438 0.930 . S
C446 C445 1.362 . S
C446 C449 1.409 . S
C447 H439 0.930 . S
C447 C448 1.355 . S
C447 C449 1.415 . S
C448 C447 1.355 . S
C448 C450 1.419 . S
C449 C444 1.425 . S
C449 C446 1.409 . S
C449 C447 1.415 . S
C450 H440 0.930 . S
C450 C448 1.419 . S
C450 C451 1.362 . S
C451 H441 0.930 . S
C451 C444 1.409 . S
C451 C450 1.362 . S
H452 C458 0.930 . S
H453 C461 0.930 . S
H454 C462 0.930 . S
H455 C463 0.930 . S
H456 C466 0.930 . S
H457 C467 0.930 . S
C458 H452 0.930 . S
C458 C459 1.355 . S
C458 C460 1.415 . S
C459 C458 1.355 . S
C459 C461 1.419 . S
C460 C458 1.415 . S
C460 C465 1.425 . S
C460 C467 1.409 . S
C461 H453 0.930 . S
C461 C459 1.419 . S
C461 C462 1.362 . S
C462 H454 0.930 . S
C462 C461 1.362 . S
C462 C465 1.409 . S
C463 H455 0.930 . S
C463 C464 1.355 . S
C463 C465 1.415 . S
C464 C463 1.355 . S
C464 C466 1.419 . S
C465 C460 1.425 . S
C465 C462 1.409 . S
C465 C463 1.415 . S
C466 H456 0.930 . S
C466 C464 1.419 . S
C466 C467 1.362 . S
C467 H457 0.930 . S
C467 C460 1.409 . S
C467 C466 1.362 . S
H468 C474 0.930 . S
H469 C477 0.930 . S
H470 C478 0.930 . S
H471 C479 0.930 . S
H472 C482 0.930 . S
H473 C483 0.930 . S
C474 H468 0.930 . S
C474 C475 1.355 . S
C474 C476 1.415 . S
C475 C474 1.355 . S
C475 C477 1.419 . S
C476 C474 1.415 . S
C476 C481 1.425 . S
C476 C483 1.409 . S
C477 H469 0.930 . S
C477 C475 1.419 . S
C477 C478 1.362 . S
C478 H470 0.930 . S
C478 C477 1.362 . S
C478 C481 1.409 . S
C479 H471 0.930 . S
C479 C480 1.355 . S
C479 C481 1.415 . S
C480 C479 1.355 . S
C480 C482 1.419 . S
C481 C476 1.425 . S
C481 C478 1.409 . S
C481 C479 1.415 . S
C482 H472 0.930 . S
C482 C480 1.419 . S
C482 C483 1.362 . S
C483 H473 0.930 . S
C483 C476 1.409 . S
C483 C482 1.362 . S
H484 C490 0.930 . S
H485 C493 0.930 . S
H486 C494 0.930 . S
H487 C495 0.930 . S
H488 C498 0.930 . S
H489 C499 0.930 . S
C490 H484 0.930 . S
C490 C491 1.355 . S
C490 C492 1.415 . S
C491 C490 1.355 . S
C491 C493 1.419 . S
C492 C490 1.415 . S
C492 C497 1.425 . S
C492 C499 1.409 . S
C493 H485 0.930 . S
C493 C491 1.419 . S
C493 C494 1.362 . S
C494 H486 0.930 . S
C494 C493 1.362 . S
C494 C497 1.409 . S
C495 H487 0.930 . S
C495 C496 1.355 . S
C495 C497 1.415 . S
C496 C495 1.355 . S
C496 C498 1.419 . S
C497 C492 1.425 . S
C497 C494 1.409 . S
C497 C495 1.415 . S
C498 H488 0.930 . S
C498 C496 1.419 . S
C498 C499 1.362 . S
C499 H489 0.930 . S
C499 C492 1.409 . S
C499 C498 1.362 . S
H500 C506 0.930 . S
H501 C509 0.930 . S
H502 C510 0.930 . S
H503 C511 0.930 . S
H504 C514 0.930 . S
H505 C515 0.930 . S
C506 H500 0.930 . S
C506 C507 1.355 . S
C506 C508 1.415 . S
C507 C506 1.355 . S
C507 C509 1.419 . S
C508 C506 1.415 . S
C508 C513 1.425 . S
C508 C515 1.409 . S
C509 H501 0.930 . S
C509 C507 1.419 . S
C509 C510 1.362 . S
C510 H502 0.930 . S
C510 C509 1.362 . S
C510 C513 1.409 . S
C511 H503 0.930 . S
C511 C512 1.355 . S
C511 C513 1.415 . S
C512 C511 1.355 . S
C512 C514 1.419 . S
C513 C508 1.425 . S
C513 C510 1.409 . S
C513 C511 1.415 . S
C514 H504 0.930 . S
C514 C512 1.419 . S
C514 C515 1.362 . S
C515 H505 0.930 . S
C515 C508 1.409 . S
C515 C514 1.362 . S
H516 C522 0.930 . S
H517 C525 0.930 . S
H518 C526 0.930 . S
H519 C527 0.930 . S
H520 C530 0.930 . S
H521 C531 0.930 . S
C522 H516 0.930 . S
C522 C523 1.355 . S
C522 C524 1.415 . S
C523 C522 1.355 . S
C523 C525 1.419 . S
C524 C522 1.415 . S
C524 C529 1.425 . S
C524 C531 1.409 . S
C525 H517 0.930 . S
C525 C523 1.419 . S
C525 C526 1.362 . S
C526 H518 0.930 . S
C526 C525 1.362 . S
C526 C529 1.409 . S
C527 H519 0.930 . S
C527 C528 1.355 . S
C527 C529 1.415 . S
C528 C527 1.355 . S
C528 C530 1.419 . S
C529 C524 1.425 . S
C529 C526 1.409 . S
C529 C527 1.415 . S
C530 H520 0.930 . S
C530 C528 1.419 . S
C530 C531 1.362 . S
C531 H521 0.930 . S
C531 C524 1.409 . S
C531 C530 1.362 . S
H532 C538 0.930 . S
H533 C541 0.930 . S
H534 C542 0.930 . S
H535 C543 0.930 . S
H536 C546 0.930 . S
H537 C547 0.930 . S
C538 H532 0.930 . S
C538 C539 1.355 . S
C538 C540 1.415 . S
C539 C538 1.355 . S
C539 C541 1.419 . S
C540 C538 1.415 . S
C540 C545 1.425 . S
C540 C547 1.409 . S
C541 H533 0.930 . S
C541 C539 1.419 . S
C541 C542 1.362 . S
C542 H534 0.930 . S
C542 C541 1.362 . S
C542 C545 1.409 . S
C543 H535 0.930 . S
C543 C544 1.355 . S
C543 C545 1.415 . S
C544 C543 1.355 . S
C544 C546 1.419 . S
C545 C540 1.425 . S
C545 C542 1.409 . S
C545 C543 1.415 . S
C546 H536 0.930 . S
C546 C544 1.419 . S
C546 C547 1.362 . S
C547 H537 0.930 . S
C547 C540 1.409 . S
C547 C546 1.362 . S
H548 C554 0.930 . S
H549 C557 0.930 . S
H550 C558 0.930 . S
H551 C559 0.930 . S
H552 C562 0.930 . S
H553 C563 0.930 . S
C554 H548 0.930 . S
C554 C555 1.355 . S
C554 C556 1.415 . S
C555 C554 1.355 . S
C555 C557 1.419 . S
C556 C554 1.415 . S
C556 C561 1.425 . S
C556 C563 1.409 . S
C557 H549 0.930 . S
C557 C555 1.419 . S
C557 C558 1.362 . S
C558 H550 0.930 . S
C558 C557 1.362 . S
C558 C561 1.409 . S
C559 H551 0.930 . S
C559 C560 1.355 . S
C559 C561 1.415 . S
C560 C559 1.355 . S
C560 C562 1.419 . S
C561 C556 1.425 . S
C561 C558 1.409 . S
C561 C559 1.415 . S
C562 H552 0.930 . S
C562 C560 1.419 . S
C562 C563 1.362 . S
C563 H553 0.930 . S
C563 C556 1.409 . S
C563 C562 1.362 . S
H564 C570 0.930 . S
H565 C573 0.930 . S
H566 C574 0.930 . S
H567 C575 0.930 . S
H568 C578 0.930 . S
H569 C579 0.930 . S
C570 H564 0.930 . S
C570 C571 1.355 . S
C570 C572 1.415 . S
C571 C570 1.355 . S
C571 C573 1.419 . S
C572 C570 1.415 . S
C572 C577 1.425 . S
C572 C579 1.409 . S
C573 H565 0.930 . S
C573 C571 1.419 . S
C573 C574 1.362 . S
C574 H566 0.930 . S
C574 C573 1.362 . S
C574 C577 1.409 . S
C575 H567 0.930 . S
C575 C576 1.355 . S
C575 C577 1.415 . S
C576 C575 1.355 . S
C576 C578 1.419 . S
C577 C572 1.425 . S
C577 C574 1.409 . S
C577 C575 1.415 . S
C578 H568 0.930 . S
C578 C576 1.419 . S
C578 C579 1.362 . S
C579 H569 0.930 . S
C579 C572 1.409 . S
C579 C578 1.362 . S
H580 C586 0.930 . S
H581 C589 0.930 . S
H582 C590 0.930 . S
H583 C591 0.930 . S
H584 C594 0.930 . S
H585 C595 0.930 . S
C586 H580 0.930 . S
C586 C587 1.355 . S
C586 C588 1.415 . S
C587 C586 1.355 . S
C587 C589 1.419 . S
C588 C586 1.415 . S
C588 C593 1.425 . S
C588 C595 1.409 . S
C589 H581 0.930 . S
C589 C587 1.419 . S
C589 C590 1.362 . S
C590 H582 0.930 . S
C590 C589 1.362 . S
C590 C593 1.409 . S
C591 H583 0.930 . S
C591 C592 1.355 . S
C591 C593 1.415 . S
C592 C591 1.355 . S
C592 C594 1.419 . S
C593 C588 1.425 . S
C593 C590 1.409 . S
C593 C591 1.415 . S
C594 H584 0.930 . S
C594 C592 1.419 . S
C594 C595 1.362 . S
C595 H585 0.930 . S
C595 C588 1.409 . S
C595 C594 1.362 . S
H596 C602 0.930 . S
H597 C605 0.930 . S
H598 C606 0.930 . S
H599 C607 0.930 . S
H600 C610 0.930 . S
H601 C611 0.930 . S
C602 H596 0.930 . S
C602 C603 1.355 . S
C602 C604 1.415 . S
C603 C602 1.355 . S
C603 C605 1.419 . S
C604 C602 1.415 . S
C604 C609 1.425 . S
C604 C611 1.409 . S
C605 H597 0.930 . S
C605 C603 1.419 . S
C605 C606 1.362 . S
C606 H598 0.930 . S
C606 C605 1.362 . S
C606 C609 1.409 . S
C607 H599 0.930 . S
C607 C608 1.355 . S
C607 C609 1.415 . S
C608 C607 1.355 . S
C608 C610 1.419 . S
C609 C604 1.425 . S
C609 C606 1.409 . S
C609 C607 1.415 . S
C610 H600 0.930 . S
C610 C608 1.419 . S
C610 C611 1.362 . S
C611 H601 0.930 . S
C611 C604 1.409 . S
C611 C610 1.362 . S
H612 C618 0.930 . S
H613 C621 0.930 . S
H614 C622 0.930 . S
H615 C623 0.930 . S
H616 C626 0.930 . S
H617 C627 0.930 . S
C618 H612 0.930 . S
C618 C619 1.355 . S
C618 C620 1.415 . S
C619 C618 1.355 . S
C619 C621 1.419 . S
C620 C618 1.415 . S
C620 C625 1.425 . S
C620 C627 1.409 . S
C621 H613 0.930 . S
C621 C619 1.419 . S
C621 C622 1.362 . S
C622 H614 0.930 . S
C622 C621 1.362 . S
C622 C625 1.409 . S
C623 H615 0.930 . S
C623 C624 1.355 . S
C623 C625 1.415 . S
C624 C623 1.355 . S
C624 C626 1.419 . S
C625 C620 1.425 . S
C625 C622 1.409 . S
C625 C623 1.415 . S
C626 H616 0.930 . S
C626 C624 1.419 . S
C626 C627 1.362 . S
C627 H617 0.930 . S
C627 C620 1.409 . S
C627 C626 1.362 . S
H628 C634 0.930 . S
H629 C637 0.930 . S
H630 C638 0.930 . S
H631 C639 0.930 . S
H632 C642 0.930 . S
H633 C643 0.930 . S
C634 H628 0.930 . S
C634 C635 1.355 . S
C634 C636 1.415 . S
C635 C634 1.355 . S
C635 C637 1.419 . S
C636 C634 1.415 . S
C636 C641 1.425 . S
C636 C643 1.409 . S
C637 H629 0.930 . S
C637 C635 1.419 . S
C637 C638 1.362 . S
C638 H630 0.930 . S
C638 C637 1.362 . S
C638 C641 1.409 . S
C639 H631 0.930 . S
C639 C640 1.355 . S
C639 C641 1.415 . S
C640 C639 1.355 . S
C640 C642 1.419 . S
C641 C636 1.425 . S
C641 C638 1.409 . S
C641 C639 1.415 . S
C642 H632 0.930 . S
C642 C640 1.419 . S
C642 C643 1.362 . S
C643 H633 0.930 . S
C643 C636 1.409 . S
C643 C642 1.362 . S
H644 C650 0.930 . S
H645 C653 0.930 . S
H646 C654 0.930 . S
H647 C655 0.930 . S
H648 C658 0.930 . S
H649 C659 0.930 . S
C650 H644 0.930 . S
C650 C651 1.355 . S
C650 C652 1.415 . S
C651 C650 1.355 . S
C651 C653 1.419 . S
C652 C650 1.415 . S
C652 C657 1.425 . S
C652 C659 1.409 . S
C653 H645 0.930 . S
C653 C651 1.419 . S
C653 C654 1.362 . S
C654 H646 0.930 . S
C654 C653 1.362 . S
C654 C657 1.409 . S
C655 H647 0.930 . S
C655 C656 1.355 . S
C655 C657 1.415 . S
C656 C655 1.355 . S
C656 C658 1.419 . S
C657 C652 1.425 . S
C657 C654 1.409 . S
C657 C655 1.415 . S
C658 H648 0.930 . S
C658 C656 1.419 . S
C658 C659 1.362 . S
C659 H649 0.930 . S
C659 C652 1.409 . S
C659 C658 1.362 . S
H660 C666 0.930 . S
H661 C669 0.930 . S
H662 C670 0.930 . S
H663 C671 0.930 . S
H664 C674 0.930 . S
H665 C675 0.930 . S
C666 H660 0.930 . S
C666 C667 1.355 . S
C666 C668 1.415 . S
C667 C666 1.355 . S
C667 C669 1.419 . S
C668 C666 1.415 . S
C668 C673 1.425 . S
C668 C675 1.409 . S
C669 H661 0.930 . S
C669 C667 1.419 . S
C669 C670 1.362 . S
C670 H662 0.930 . S
C670 C669 1.362 . S
C670 C673 1.409 . S
C671 H663 0.930 . S
C671 C672 1.355 . S
C671 C673 1.415 . S
C672 C671 1.355 . S
C672 C674 1.419 . S
C673 C668 1.425 . S
C673 C670 1.409 . S
C673 C671 1.415 . S
C674 H664 0.930 . S
C674 C672 1.419 . S
C674 C675 1.362 . S
C675 H665 0.930 . S
C675 C668 1.409 . S
C675 C674 1.362 . S
H676 C682 0.930 . S
H677 C685 0.930 . S
H678 C686 0.930 . S
H679 C687 0.930 . S
H680 C690 0.930 . S
H681 C691 0.930 . S
C682 H676 0.930 . S
C682 C683 1.355 . S
C682 C684 1.415 . S
C683 C682 1.355 . S
C683 C685 1.419 . S
C684 C682 1.415 . S
C684 C689 1.425 . S
C684 C691 1.409 . S
C685 H677 0.930 . S
C685 C683 1.419 . S
C685 C686 1.362 . S
C686 H678 0.930 . S
C686 C685 1.362 . S
C686 C689 1.409 . S
C687 H679 0.930 . S
C687 C688 1.355 . S
C687 C689 1.415 . S
C688 C687 1.355 . S
C688 C690 1.419 . S
C689 C684 1.425 . S
C689 C686 1.409 . S
C689 C687 1.415 . S
C690 H680 0.930 . S
C690 C688 1.419 . S
C690 C691 1.362 . S
C691 H681 0.930 . S
C691 C684 1.409 . S
C691 C690 1.362 . S
H692 C698 0.930 . S
H693 C701 0.930 . S
H694 C702 0.930 . S
H695 C703 0.930 . S
H696 C706 0.930 . S
H697 C707 0.930 . S
C698 H692 0.930 . S
C698 C699 1.355 . S
C698 C700 1.415 . S
C699 C698 1.355 . S
C699 C701 1.419 . S
C700 C698 1.415 . S
C700 C705 1.425 . S
C700 C707 1.409 . S
C701 H693 0.930 . S
C701 C699 1.419 . S
C701 C702 1.362 . S
C702 H694 0.930 . S
C702 C701 1.362 . S
C702 C705 1.409 . S
C703 H695 0.930 . S
C703 C704 1.355 . S
C703 C705 1.415 . S
C704 C703 1.355 . S
C704 C706 1.419 . S
C705 C700 1.425 . S
C705 C702 1.409 . S
C705 C703 1.415 . S
C706 H696 0.930 . S
C706 C704 1.419 . S
C706 C707 1.362 . S
C707 H697 0.930 . S
C707 C700 1.409 . S
C707 C706 1.362 . S
H708 C714 0.930 . S
H709 C717 0.930 . S
H710 C718 0.930 . S
H711 C719 0.930 . S
H712 C722 0.930 . S
H713 C723 0.930 . S
C714 H708 0.930 . S
C714 C715 1.355 . S
C714 C716 1.415 . S
C715 C714 1.355 . S
C715 C717 1.419 . S
C716 C714 1.415 . S
C716 C721 1.425 . S
C716 C723 1.409 . S
C717 H709 0.930 . S
C717 C715 1.419 . S
C717 C718 1.362 . S
C718 H710 0.930 . S
C718 C717 1.362 . S
C718 C721 1.409 . S
C719 H711 0.930 . S
C719 C720 1.355 . S
C719 C721 1.415 . S
C720 C719 1.355 . S
C720 C722 1.419 . S
C721 C716 1.425 . S
C721 C718 1.409 . S
C721 C719 1.415 . S
C722 H712 0.930 . S
C722 C720 1.419 . S
C722 C723 1.362 . S
C723 H713 0.930 . S
C723 C716 1.409 . S
C723 C722 1.362 . S
H724 C730 0.930 . S
H725 C733 0.930 . S
H726 C734 0.930 . S
H727 C735 0.930 . S
H728 C738 0.930 . S
H729 C739 0.930 . S
C730 H724 0.930 . S
C730 C731 1.355 . S
C730 C732 1.415 . S
C731 C730 1.355 . S
C731 C733 1.419 . S
C732 C730 1.415 . S
C732 C737 1.425 . S
C732 C739 1.409 . S
C733 H725 0.930 . S
C733 C731 1.419 . S
C733 C734 1.362 . S
C734 H726 0.930 . S
C734 C733 1.362 . S
C734 C737 1.409 . S
C735 H727 0.930 . S
C735 C736 1.355 . S
C735 C737 1.415 . S
C736 C735 1.355 . S
C736 C738 1.419 . S
C737 C732 1.425 . S
C737 C734 1.409 . S
C737 C735 1.415 . S
C738 H728 0.930 . S
C738 C736 1.419 . S
C738 C739 1.362 . S
C739 H729 0.930 . S
C739 C732 1.409 . S
C739 C738 1.362 . S
H740 C746 0.930 . S
H741 C749 0.930 . S
H742 C750 0.930 . S
H743 C751 0.930 . S
H744 C754 0.930 . S
H745 C755 0.930 . S
C746 H740 0.930 . S
C746 C747 1.355 . S
C746 C748 1.415 . S
C747 C746 1.355 . S
C747 C749 1.419 . S
C748 C746 1.415 . S
C748 C753 1.425 . S
C748 C755 1.409 . S
C749 H741 0.930 . S
C749 C747 1.419 . S
C749 C750 1.362 . S
C750 H742 0.930 . S
C750 C749 1.362 . S
C750 C753 1.409 . S
C751 H743 0.930 . S
C751 C752 1.355 . S
C751 C753 1.415 . S
C752 C751 1.355 . S
C752 C754 1.419 . S
C753 C748 1.425 . S
C753 C750 1.409 . S
C753 C751 1.415 . S
C754 H744 0.930 . S
C754 C752 1.419 . S
C754 C755 1.362 . S
C755 H745 0.930 . S
C755 C748 1.409 . S
C755 C754 1.362 . S
H756 C762 0.930 . S
H757 C765 0.930 1_545 S
H758 C766 0.930 . S
H759 C767 0.930 . S
H760 C770 0.930 . S
H761 C771 0.930 . S
C762 H756 0.930 . S
C762 C763 1.355 . S
C762 C764 1.415 . S
C763 C762 1.355 . S
C763 C765 1.419 . S
C764 C762 1.415 . S
C764 C769 1.425 . S
C764 C771 1.409 . S
C765 H757 0.930 1_565 S
C765 C763 1.419 . S
C765 C766 1.362 . S
C766 H758 0.930 . S
C766 C765 1.362 . S
C766 C769 1.409 . S
C767 H759 0.930 . S
C767 C768 1.355 . S
C767 C769 1.415 . S
C768 C767 1.355 . S
C768 C770 1.419 . S
C769 C764 1.425 . S
C769 C766 1.409 . S
C769 C767 1.415 . S
C770 H760 0.930 . S
C770 C768 1.419 . S
C770 C771 1.362 . S
C771 H761 0.930 . S
C771 C764 1.409 . S
C771 C770 1.362 . S
H772 C778 0.930 . S
H773 C781 0.930 . S
H774 C782 0.930 . S
H775 C783 0.930 . S
H776 C786 0.930 . S
H777 C787 0.930 . S
C778 H772 0.930 . S
C778 C779 1.355 . S
C778 C780 1.415 . S
C779 C778 1.355 . S
C779 C781 1.419 . S
C780 C778 1.415 . S
C780 C785 1.425 . S
C780 C787 1.409 . S
C781 H773 0.930 . S
C781 C779 1.419 . S
C781 C782 1.362 . S
C782 H774 0.930 . S
C782 C781 1.362 . S
C782 C785 1.409 . S
C783 H775 0.930 . S
C783 C784 1.355 . S
C783 C785 1.415 . S
C784 C783 1.355 . S
C784 C786 1.419 . S
C785 C780 1.425 . S
C785 C782 1.409 . S
C785 C783 1.415 . S
C786 H776 0.930 . S
C786 C784 1.419 . S
C786 C787 1.362 . S
C787 H777 0.930 . S
C787 C780 1.409 . S
C787 C786 1.362 . S
H788 C794 0.930 . S
H789 C797 0.930 . S
H790 C798 0.930 . S
H791 C799 0.930 . S
H792 C802 0.930 . S
H793 C803 0.930 . S
C794 H788 0.930 . S
C794 C795 1.355 . S
C794 C796 1.415 . S
C795 C794 1.355 . S
C795 C797 1.419 . S
C796 C794 1.415 . S
C796 C801 1.425 . S
C796 C803 1.409 . S
C797 H789 0.930 . S
C797 C795 1.419 . S
C797 C798 1.362 . S
C798 H790 0.930 . S
C798 C797 1.362 . S
C798 C801 1.409 . S
C799 H791 0.930 . S
C799 C800 1.355 . S
C799 C801 1.415 . S
C800 C799 1.355 . S
C800 C802 1.419 . S
C801 C796 1.425 . S
C801 C798 1.409 . S
C801 C799 1.415 . S
C802 H792 0.930 . S
C802 C800 1.419 . S
C802 C803 1.362 . S
C803 H793 0.930 . S
C803 C796 1.409 . S
C803 C802 1.362 . S
H804 C810 0.930 . S
H805 C813 0.930 . S
H806 C814 0.930 . S
H807 C815 0.930 . S
H808 C818 0.930 . S
H809 C819 0.930 . S
C810 H804 0.930 . S
C810 C811 1.355 . S
C810 C812 1.415 . S
C811 C810 1.355 . S
C811 C813 1.419 . S
C812 C810 1.415 . S
C812 C817 1.425 . S
C812 C819 1.409 . S
C813 H805 0.930 . S
C813 C811 1.419 . S
C813 C814 1.362 . S
C814 H806 0.930 . S
C814 C813 1.362 . S
C814 C817 1.409 . S
C815 H807 0.930 . S
C815 C816 1.355 . S
C815 C817 1.415 . S
C816 C815 1.355 . S
C816 C818 1.419 . S
C817 C812 1.425 . S
C817 C814 1.409 . S
C817 C815 1.415 . S
C818 H808 0.930 . S
C818 C816 1.419 . S
C818 C819 1.362 . S
C819 H809 0.930 . S
C819 C812 1.409 . S
C819 C818 1.362 . S
H820 C826 0.930 . S
H821 C829 0.930 . S
H822 C830 0.930 . S
H823 C831 0.930 . S
H824 C834 0.930 . S
H825 C835 0.930 . S
C826 H820 0.930 . S
C826 C827 1.355 . S
C826 C828 1.415 . S
C827 C826 1.355 . S
C827 C829 1.419 . S
C828 C826 1.415 . S
C828 C833 1.425 . S
C828 C835 1.409 . S
C829 H821 0.930 . S
C829 C827 1.419 . S
C829 C830 1.362 . S
C830 H822 0.930 . S
C830 C829 1.362 . S
C830 C833 1.409 . S
C831 H823 0.930 . S
C831 C832 1.355 . S
C831 C833 1.415 . S
C832 C831 1.355 . S
C832 C834 1.419 . S
C833 C828 1.425 . S
C833 C830 1.409 . S
C833 C831 1.415 . S
C834 H824 0.930 . S
C834 C832 1.419 . S
C834 C835 1.362 . S
C835 H825 0.930 . S
C835 C828 1.409 . S
C835 C834 1.362 . S
H836 C842 0.930 . S
H837 C845 0.930 . S
H838 C846 0.930 . S
H839 C847 0.930 . S
H840 C850 0.930 . S
H841 C851 0.930 . S
C842 H836 0.930 . S
C842 C843 1.355 . S
C842 C844 1.415 . S
C843 C842 1.355 . S
C843 C845 1.419 . S
C844 C842 1.415 . S
C844 C849 1.425 . S
C844 C851 1.409 . S
C845 H837 0.930 . S
C845 C843 1.419 . S
C845 C846 1.362 . S
C846 H838 0.930 . S
C846 C845 1.362 . S
C846 C849 1.409 . S
C847 H839 0.930 . S
C847 C848 1.355 . S
C847 C849 1.415 . S
C848 C847 1.355 . S
C848 C850 1.419 . S
C849 C844 1.425 . S
C849 C846 1.409 . S
C849 C847 1.415 . S
C850 H840 0.930 . S
C850 C848 1.419 . S
C850 C851 1.362 . S
C851 H841 0.930 . S
C851 C844 1.409 . S
C851 C850 1.362 . S
H852 C858 0.930 . S
H853 C861 0.930 . S
H854 C862 0.930 . S
H855 C863 0.930 . S
H856 C866 0.930 . S
H857 C867 0.930 . S
C858 H852 0.930 . S
C858 C859 1.355 . S
C858 C860 1.415 . S
C859 C858 1.355 . S
C859 C861 1.419 . S
C860 C858 1.415 . S
C860 C865 1.425 . S
C860 C867 1.409 . S
C861 H853 0.930 . S
C861 C859 1.419 . S
C861 C862 1.362 . S
C862 H854 0.930 . S
C862 C861 1.362 . S
C862 C865 1.409 . S
C863 H855 0.930 . S
C863 C864 1.355 . S
C863 C865 1.415 . S
C864 C863 1.355 . S
C864 C866 1.419 . S
C865 C860 1.425 . S
C865 C862 1.409 . S
C865 C863 1.415 . S
C866 H856 0.930 . S
C866 C864 1.419 . S
C866 C867 1.362 . S
C867 H857 0.930 . S
C867 C860 1.409 . S
C867 C866 1.362 . S
H868 C874 0.930 . S
H869 C877 0.930 . S
H870 C878 0.930 . S
H871 C879 0.930 . S
H872 C882 0.930 . S
H873 C883 0.930 . S
C874 H868 0.930 . S
C874 C875 1.355 . S
C874 C876 1.415 . S
C875 C874 1.355 . S
C875 C877 1.419 . S
C876 C874 1.415 . S
C876 C881 1.425 . S
C876 C883 1.409 . S
C877 H869 0.930 . S
C877 C875 1.419 . S
C877 C878 1.362 . S
C878 H870 0.930 . S
C878 C877 1.362 . S
C878 C881 1.409 . S
C879 H871 0.930 . S
C879 C880 1.355 . S
C879 C881 1.415 . S
C880 C879 1.355 . S
C880 C882 1.419 . S
C881 C876 1.425 . S
C881 C878 1.409 . S
C881 C879 1.415 . S
C882 H872 0.930 . S
C882 C880 1.419 . S
C882 C883 1.362 . S
C883 H873 0.930 . S
C883 C876 1.409 . S
C883 C882 1.362 . S
H884 C890 0.930 . S
H885 C893 0.930 . S
H886 C894 0.930 . S
H887 C895 0.930 . S
H888 C898 0.930 . S
H889 C899 0.930 . S
C890 H884 0.930 . S
C890 C891 1.355 . S
C890 C892 1.415 . S
C891 C890 1.355 . S
C891 C893 1.419 . S
C892 C890 1.415 . S
C892 C897 1.425 . S
C892 C899 1.409 . S
C893 H885 0.930 . S
C893 C891 1.419 . S
C893 C894 1.362 . S
C894 H886 0.930 . S
C894 C893 1.362 . S
C894 C897 1.409 . S
C895 H887 0.930 . S
C895 C896 1.355 . S
C895 C897 1.415 . S
C896 C895 1.355 . S
C896 C898 1.419 . S
C897 C892 1.425 . S
C897 C894 1.409 . S
C897 C895 1.415 . S
C898 H888 0.930 . S
C898 C896 1.419 . S
C898 C899 1.362 . S
C899 H889 0.930 . S
C899 C892 1.409 . S
C899 C898 1.362 . S
H900 C906 0.930 . S
H901 C909 0.930 . S
H902 C910 0.930 . S
H903 C911 0.930 . S
H904 C914 0.930 . S
H905 C915 0.930 . S
C906 H900 0.930 . S
C906 C907 1.355 . S
C906 C908 1.415 . S
C907 C906 1.355 . S
C907 C909 1.419 . S
C908 C906 1.415 . S
C908 C913 1.425 . S
C908 C915 1.409 . S
C909 H901 0.930 . S
C909 C907 1.419 . S
C909 C910 1.362 . S
C910 H902 0.930 . S
C910 C909 1.362 . S
C910 C913 1.409 . S
C911 H903 0.930 . S
C911 C912 1.355 . S
C911 C913 1.415 . S
C912 C911 1.355 . S
C912 C914 1.419 . S
C913 C908 1.425 . S
C913 C910 1.409 . S
C913 C911 1.415 . S
C914 H904 0.930 . S
C914 C912 1.419 . S
C914 C915 1.362 . S
C915 H905 0.930 . S
C915 C908 1.409 . S
C915 C914 1.362 . S
H916 C922 0.930 . S
H917 C925 0.930 . S
H918 C926 0.930 . S
H919 C927 0.930 . S
H920 C930 0.930 . S
H921 C931 0.930 . S
C922 H916 0.930 . S
C922 C923 1.355 . S
C922 C924 1.415 . S
C923 C922 1.355 . S
C923 C925 1.419 . S
C924 C922 1.415 . S
C924 C929 1.425 . S
C924 C931 1.409 . S
C925 H917 0.930 . S
C925 C923 1.419 . S
C925 C926 1.362 . S
C926 H918 0.930 . S
C926 C925 1.362 . S
C926 C929 1.409 . S
C927 H919 0.930 . S
C927 C928 1.355 . S
C927 C929 1.415 . S
C928 C927 1.355 . S
C928 C930 1.419 . S
C929 C924 1.425 . S
C929 C926 1.409 . S
C929 C927 1.415 . S
C930 H920 0.930 . S
C930 C928 1.419 . S
C930 C931 1.362 . S
C931 H921 0.930 . S
C931 C924 1.409 . S
C931 C930 1.362 . S
H932 C938 0.930 . S
H933 C941 0.930 . S
H934 C942 0.930 . S
H935 C943 0.930 . S
H936 C946 0.930 . S
H937 C947 0.930 . S
C938 H932 0.930 . S
C938 C939 1.355 . S
C938 C940 1.415 . S
C939 C938 1.355 . S
C939 C941 1.419 . S
C940 C938 1.415 . S
C940 C945 1.425 . S
C940 C947 1.409 . S
C941 H933 0.930 . S
C941 C939 1.419 . S
C941 C942 1.362 . S
C942 H934 0.930 . S
C942 C941 1.362 . S
C942 C945 1.409 . S
C943 H935 0.930 . S
C943 C944 1.355 . S
C943 C945 1.415 . S
C944 C943 1.355 . S
C944 C946 1.419 . S
C945 C940 1.425 . S
C945 C942 1.409 . S
C945 C943 1.415 . S
C946 H936 0.930 . S
C946 C944 1.419 . S
C946 C947 1.362 . S
C947 H937 0.930 . S
C947 C940 1.409 . S
C947 C946 1.362 . S
H948 C954 0.930 . S
H949 C957 0.930 . S
H950 C958 0.930 . S
H951 C959 0.930 . S
H952 C962 0.930 . S
H953 C963 0.930 . S
C954 H948 0.930 . S
C954 C955 1.355 . S
C954 C956 1.415 . S
C955 C954 1.355 . S
C955 C957 1.419 . S
C956 C954 1.415 . S
C956 C961 1.425 . S
C956 C963 1.409 . S
C957 H949 0.930 . S
C957 C955 1.419 . S
C957 C958 1.362 . S
C958 H950 0.930 . S
C958 C957 1.362 . S
C958 C961 1.409 . S
C959 H951 0.930 . S
C959 C960 1.355 . S
C959 C961 1.415 . S
C960 C959 1.355 . S
C960 C962 1.419 . S
C961 C956 1.425 . S
C961 C958 1.409 . S
C961 C959 1.415 . S
C962 H952 0.930 . S
C962 C960 1.419 . S
C962 C963 1.362 . S
C963 H953 0.930 . S
C963 C956 1.409 . S
C963 C962 1.362 . S
H964 C970 0.930 . S
H965 C973 0.930 . S
H966 C974 0.930 . S
H967 C975 0.930 . S
H968 C978 0.930 . S
H969 C979 0.930 . S
C970 H964 0.930 . S
C970 C971 1.355 . S
C970 C972 1.415 . S
C971 C970 1.355 . S
C971 C973 1.419 . S
C972 C970 1.415 . S
C972 C977 1.425 . S
C972 C979 1.409 . S
C973 H965 0.930 . S
C973 C971 1.419 . S
C973 C974 1.362 . S
C974 H966 0.930 . S
C974 C973 1.362 . S
C974 C977 1.409 . S
C975 H967 0.930 . S
C975 C976 1.355 . S
C975 C977 1.415 . S
C976 C975 1.355 . S
C976 C978 1.419 . S
C977 C972 1.425 . S
C977 C974 1.409 . S
C977 C975 1.415 . S
C978 H968 0.930 . S
C978 C976 1.419 . S
C978 C979 1.362 . S
C979 H969 0.930 . S
C979 C972 1.409 . S
C979 C978 1.362 . S
H980 C986 0.930 . S
H981 C989 0.930 . S
H982 C990 0.930 . S
H983 C991 0.930 . S
H984 C994 0.930 . S
H985 C995 0.930 . S
C986 H980 0.930 . S
C986 C987 1.355 . S
C986 C988 1.415 . S
C987 C986 1.355 . S
C987 C989 1.419 . S
C988 C986 1.415 . S
C988 C993 1.425 . S
C988 C995 1.409 . S
C989 H981 0.930 . S
C989 C987 1.419 . S
C989 C990 1.362 . S
C990 H982 0.930 . S
C990 C989 1.362 . S
C990 C993 1.409 . S
C991 H983 0.930 . S
C991 C992 1.355 . S
C991 C993 1.415 . S
C992 C991 1.355 . S
C992 C994 1.419 . S
C993 C988 1.425 . S
C993 C990 1.409 . S
C993 C991 1.415 . S
C994 H984 0.930 . S
C994 C992 1.419 . S
C994 C995 1.362 . S
C995 H985 0.930 . S
C995 C988 1.409 . S
C995 C994 1.362 . S
H996 C1002 0.930 . S
H997 C1005 0.930 . S
H998 C1006 0.930 . S
H999 C1007 0.930 . S
H1000 C1010 0.930 . S
H1001 C1011 0.930 . S
C1002 H996 0.930 . S
C1002 C1003 1.355 . S
C1002 C1004 1.415 . S
C1003 C1002 1.355 . S
C1003 C1005 1.419 . S
C1004 C1002 1.415 . S
C1004 C1009 1.425 . S
C1004 C1011 1.409 . S
C1005 H997 0.930 . S
C1005 C1003 1.419 . S
C1005 C1006 1.362 . S
C1006 H998 0.930 . S
C1006 C1005 1.362 . S
C1006 C1009 1.409 . S
C1007 H999 0.930 . S
C1007 C1008 1.355 . S
C1007 C1009 1.415 . S
C1008 C1007 1.355 . S
C1008 C1010 1.419 . S
C1009 C1004 1.425 . S
C1009 C1006 1.409 . S
C1009 C1007 1.415 . S
C1010 H1000 0.930 . S
C1010 C1008 1.419 . S
C1010 C1011 1.362 . S
C1011 H1001 0.930 . S
C1011 C1004 1.409 . S
C1011 C1010 1.362 . S
H1012 C1018 0.930 . S
H1013 C1021 0.930 . S
H1014 C1022 0.930 . S
H1015 C1023 0.930 . S
H1016 C1026 0.930 . S
H1017 C1027 0.930 . S
C1018 H1012 0.930 . S
C1018 C1019 1.355 . S
C1018 C1020 1.415 . S
C1019 C1018 1.355 . S
C1019 C1021 1.419 . S
C1020 C1018 1.415 . S
C1020 C1025 1.425 . S
C1020 C1027 1.409 . S
C1021 H1013 0.930 . S
C1021 C1019 1.419 . S
C1021 C1022 1.362 . S
C1022 H1014 0.930 . S
C1022 C1021 1.362 . S
C1022 C1025 1.409 . S
C1023 H1015 0.930 . S
C1023 C1024 1.355 . S
C1023 C1025 1.415 . S
C1024 C1023 1.355 . S
C1024 C1026 1.419 . S
C1025 C1020 1.425 . S
C1025 C1022 1.409 . S
C1025 C1023 1.415 . S
C1026 H1016 0.930 . S
C1026 C1024 1.419 . S
C1026 C1027 1.362 . S
C1027 H1017 0.930 . S
C1027 C1020 1.409 . S
C1027 C1026 1.362 . S
H1028 C1034 0.930 . S
H1029 C1037 0.930 . S
H1030 C1038 0.930 . S
H1031 C1039 0.930 . S
H1032 C1042 0.930 . S
H1033 C1043 0.930 . S
C1034 H1028 0.930 . S
C1034 C1035 1.355 . S
C1034 C1036 1.415 . S
C1035 C1034 1.355 . S
C1035 C1037 1.419 . S
C1036 C1034 1.415 . S
C1036 C1041 1.425 . S
C1036 C1043 1.409 . S
C1037 H1029 0.930 . S
C1037 C1035 1.419 . S
C1037 C1038 1.362 . S
C1038 H1030 0.930 . S
C1038 C1037 1.362 . S
C1038 C1041 1.409 . S
C1039 H1031 0.930 . S
C1039 C1040 1.355 . S
C1039 C1041 1.415 . S
C1040 C1039 1.355 . S
C1040 C1042 1.419 . S
C1041 C1036 1.425 . S
C1041 C1038 1.409 . S
C1041 C1039 1.415 . S
C1042 H1032 0.930 . S
C1042 C1040 1.419 . S
C1042 C1043 1.362 . S
C1043 H1033 0.930 . S
C1043 C1036 1.409 . S
C1043 C1042 1.362 . S
H1044 C1050 0.930 . S
H1045 C1053 0.930 . S
H1046 C1054 0.930 . S
H1047 C1055 0.930 . S
H1048 C1058 0.930 . S
H1049 C1059 0.930 . S
C1050 H1044 0.930 . S
C1050 C1051 1.355 . S
C1050 C1052 1.415 . S
C1051 C1050 1.355 . S
C1051 C1053 1.419 . S
C1052 C1050 1.415 . S
C1052 C1057 1.425 . S
C1052 C1059 1.409 . S
C1053 H1045 0.930 . S
C1053 C1051 1.419 . S
C1053 C1054 1.362 . S
C1054 H1046 0.930 . S
C1054 C1053 1.362 . S
C1054 C1057 1.409 . S
C1055 H1047 0.930 . S
C1055 C1056 1.355 . S
C1055 C1057 1.415 . S
C1056 C1055 1.355 . S
C1056 C1058 1.419 . S
C1057 C1052 1.425 . S
C1057 C1054 1.409 . S
C1057 C1055 1.415 . S
C1058 H1048 0.930 . S
C1058 C1056 1.419 . S
C1058 C1059 1.362 . S
C1059 H1049 0.930 . S
C1059 C1052 1.409 . S
C1059 C1058 1.362 . S
H1060 C1066 0.930 . S
H1061 C1069 0.930 . S
H1062 C1070 0.930 . S
H1063 C1071 0.930 . S
H1064 C1074 0.930 . S
H1065 C1075 0.930 . S
C1066 H1060 0.930 . S
C1066 C1067 1.355 . S
C1066 C1068 1.415 . S
C1067 C1066 1.355 . S
C1067 C1069 1.419 . S
C1068 C1066 1.415 . S
C1068 C1073 1.425 . S
C1068 C1075 1.409 . S
C1069 H1061 0.930 . S
C1069 C1067 1.419 . S
C1069 C1070 1.362 . S
C1070 H1062 0.930 . S
C1070 C1069 1.362 . S
C1070 C1073 1.409 . S
C1071 H1063 0.930 . S
C1071 C1072 1.355 . S
C1071 C1073 1.415 . S
C1072 C1071 1.355 . S
C1072 C1074 1.419 . S
C1073 C1068 1.425 . S
C1073 C1070 1.409 . S
C1073 C1071 1.415 . S
C1074 H1064 0.930 . S
C1074 C1072 1.419 . S
C1074 C1075 1.362 . S
C1075 H1065 0.930 . S
C1075 C1068 1.409 . S
C1075 C1074 1.362 . S
H1076 C1082 0.930 . S
H1077 C1085 0.930 . S
H1078 C1086 0.930 . S
H1079 C1087 0.930 . S
H1080 C1090 0.930 . S
H1081 C1091 0.930 . S
C1082 H1076 0.930 . S
C1082 C1083 1.355 . S
C1082 C1084 1.415 . S
C1083 C1082 1.355 . S
C1083 C1085 1.419 . S
C1084 C1082 1.415 . S
C1084 C1089 1.425 . S
C1084 C1091 1.409 . S
C1085 H1077 0.930 . S
C1085 C1083 1.419 . S
C1085 C1086 1.362 . S
C1086 H1078 0.930 . S
C1086 C1085 1.362 . S
C1086 C1089 1.409 . S
C1087 H1079 0.930 . S
C1087 C1088 1.355 . S
C1087 C1089 1.415 . S
C1088 C1087 1.355 . S
C1088 C1090 1.419 . S
C1089 C1084 1.425 . S
C1089 C1086 1.409 . S
C1089 C1087 1.415 . S
C1090 H1080 0.930 . S
C1090 C1088 1.419 . S
C1090 C1091 1.362 . S
C1091 H1081 0.930 . S
C1091 C1084 1.409 . S
C1091 C1090 1.362 . S
H1092 C1098 0.930 . S
H1093 C1101 0.930 . S
H1094 C1102 0.930 . S
H1095 C1103 0.930 . S
H1096 C1106 0.930 . S
H1097 C1107 0.930 . S
C1098 H1092 0.930 . S
C1098 C1099 1.355 . S
C1098 C1100 1.415 . S
C1099 C1098 1.355 . S
C1099 C1101 1.419 . S
C1100 C1098 1.415 . S
C1100 C1105 1.425 . S
C1100 C1107 1.409 . S
C1101 H1093 0.930 . S
C1101 C1099 1.419 . S
C1101 C1102 1.362 . S
C1102 H1094 0.930 . S
C1102 C1101 1.362 . S
C1102 C1105 1.409 . S
C1103 H1095 0.930 . S
C1103 C1104 1.355 . S
C1103 C1105 1.415 . S
C1104 C1103 1.355 . S
C1104 C1106 1.419 . S
C1105 C1100 1.425 . S
C1105 C1102 1.409 . S
C1105 C1103 1.415 . S
C1106 H1096 0.930 . S
C1106 C1104 1.419 . S
C1106 C1107 1.362 . S
C1107 H1097 0.930 . S
C1107 C1100 1.409 . S
C1107 C1106 1.362 . S
H1108 C1114 0.930 . S
H1109 C1117 0.930 . S
H1110 C1118 0.930 . S
H1111 C1119 0.930 . S
H1112 C1122 0.930 . S
H1113 C1123 0.930 . S
C1114 H1108 0.930 . S
C1114 C1115 1.355 . S
C1114 C1116 1.415 . S
C1115 C1114 1.355 . S
C1115 C1117 1.419 . S
C1116 C1114 1.415 . S
C1116 C1121 1.425 . S
C1116 C1123 1.409 . S
C1117 H1109 0.930 . S
C1117 C1115 1.419 . S
C1117 C1118 1.362 . S
C1118 H1110 0.930 . S
C1118 C1117 1.362 . S
C1118 C1121 1.409 . S
C1119 H1111 0.930 . S
C1119 C1120 1.355 . S
C1119 C1121 1.415 . S
C1120 C1119 1.355 . S
C1120 C1122 1.419 . S
C1121 C1116 1.425 . S
C1121 C1118 1.409 . S
C1121 C1119 1.415 . S
C1122 H1112 0.930 . S
C1122 C1120 1.419 . S
C1122 C1123 1.362 . S
C1123 H1113 0.930 . S
C1123 C1116 1.409 . S
C1123 C1122 1.362 . S
H1124 C1130 0.930 . S
H1125 C1133 0.930 . S
H1126 C1134 0.930 . S
H1127 C1135 0.930 . S
H1128 C1138 0.930 . S
H1129 C1139 0.930 . S
C1130 H1124 0.930 . S
C1130 C1131 1.355 . S
C1130 C1132 1.415 . S
C1131 C1130 1.355 . S
C1131 C1133 1.419 . S
C1132 C1130 1.415 . S
C1132 C1137 1.425 . S
C1132 C1139 1.409 . S
C1133 H1125 0.930 . S
C1133 C1131 1.419 . S
C1133 C1134 1.362 . S
C1134 H1126 0.930 . S
C1134 C1133 1.362 . S
C1134 C1137 1.409 . S
C1135 H1127 0.930 . S
C1135 C1136 1.355 . S
C1135 C1137 1.415 . S
C1136 C1135 1.355 . S
C1136 C1138 1.419 . S
C1137 C1132 1.425 . S
C1137 C1134 1.409 . S
C1137 C1135 1.415 . S
C1138 H1128 0.930 . S
C1138 C1136 1.419 . S
C1138 C1139 1.362 . S
C1139 H1129 0.930 . S
C1139 C1132 1.409 . S
C1139 C1138 1.362 . S
H1140 C1146 0.930 . S
H1141 C1149 0.930 . S
H1142 C1150 0.930 . S
H1143 C1151 0.930 . S
H1144 C1154 0.930 . S
H1145 C1155 0.930 . S
C1146 H1140 0.930 . S
C1146 C1147 1.355 . S
C1146 C1148 1.415 . S
C1147 C1146 1.355 . S
C1147 C1149 1.419 . S
C1148 C1146 1.415 . S
C1148 C1153 1.425 . S
C1148 C1155 1.409 . S
C1149 H1141 0.930 . S
C1149 C1147 1.419 . S
C1149 C1150 1.362 . S
C1150 H1142 0.930 . S
C1150 C1149 1.362 . S
C1150 C1153 1.409 . S
C1151 H1143 0.930 . S
C1151 C1152 1.355 . S
C1151 C1153 1.415 . S
C1152 C1151 1.355 . S
C1152 C1154 1.419 . S
C1153 C1148 1.425 . S
C1153 C1150 1.409 . S
C1153 C1151 1.415 . S
C1154 H1144 0.930 . S
C1154 C1152 1.419 . S
C1154 C1155 1.362 . S
C1155 H1145 0.930 . S
C1155 C1148 1.409 . S
C1155 C1154 1.362 . S
H1156 C1162 0.930 . S
H1157 C1165 0.930 . S
H1158 C1166 0.930 . S
H1159 C1167 0.930 . S
H1160 C1170 0.930 . S
H1161 C1171 0.930 . S
C1162 H1156 0.930 . S
C1162 C1163 1.355 . S
C1162 C1164 1.415 . S
C1163 C1162 1.355 . S
C1163 C1165 1.419 . S
C1164 C1162 1.415 . S
C1164 C1169 1.425 . S
C1164 C1171 1.409 . S
C1165 H1157 0.930 . S
C1165 C1163 1.419 . S
C1165 C1166 1.362 . S
C1166 H1158 0.930 . S
C1166 C1165 1.362 . S
C1166 C1169 1.409 . S
C1167 H1159 0.930 . S
C1167 C1168 1.355 . S
C1167 C1169 1.415 . S
C1168 C1167 1.355 . S
C1168 C1170 1.419 . S
C1169 C1164 1.425 . S
C1169 C1166 1.409 . S
C1169 C1167 1.415 . S
C1170 H1160 0.930 . S
C1170 C1168 1.419 . S
C1170 C1171 1.362 . S
C1171 H1161 0.930 . S
C1171 C1164 1.409 . S
C1171 C1170 1.362 . S
H1172 C1178 0.930 . S
H1173 C1181 0.930 . S
H1174 C1182 0.930 . S
H1175 C1183 0.930 . S
H1176 C1186 0.930 . S
H1177 C1187 0.930 . S
C1178 H1172 0.930 . S
C1178 C1179 1.355 . S
C1178 C1180 1.415 . S
C1179 C1178 1.355 . S
C1179 C1181 1.419 . S
C1180 C1178 1.415 . S
C1180 C1185 1.425 . S
C1180 C1187 1.409 . S
C1181 H1173 0.930 . S
C1181 C1179 1.419 . S
C1181 C1182 1.362 . S
C1182 H1174 0.930 . S
C1182 C1181 1.362 . S
C1182 C1185 1.409 . S
C1183 H1175 0.930 . S
C1183 C1184 1.355 . S
C1183 C1185 1.415 . S
C1184 C1183 1.355 . S
C1184 C1186 1.419 . S
C1185 C1180 1.425 . S
C1185 C1182 1.409 . S
C1185 C1183 1.415 . S
C1186 H1176 0.930 . S
C1186 C1184 1.419 . S
C1186 C1187 1.362 . S
C1187 H1177 0.930 . S
C1187 C1180 1.409 . S
C1187 C1186 1.362 . S
H1188 C1194 0.930 . S
H1189 C1197 0.930 . S
H1190 C1198 0.930 . S
H1191 C1199 0.930 . S
H1192 C1202 0.930 . S
H1193 C1203 0.930 . S
C1194 H1188 0.930 . S
C1194 C1195 1.355 . S
C1194 C1196 1.415 . S
C1195 C1194 1.355 . S
C1195 C1197 1.419 . S
C1196 C1194 1.415 . S
C1196 C1201 1.425 . S
C1196 C1203 1.409 . S
C1197 H1189 0.930 . S
C1197 C1195 1.419 . S
C1197 C1198 1.362 . S
C1198 H1190 0.930 . S
C1198 C1197 1.362 . S
C1198 C1201 1.409 . S
C1199 H1191 0.930 . S
C1199 C1200 1.355 . S
C1199 C1201 1.415 . S
C1200 C1199 1.355 . S
C1200 C1202 1.419 . S
C1201 C1196 1.425 . S
C1201 C1198 1.409 . S
C1201 C1199 1.415 . S
C1202 H1192 0.930 . S
C1202 C1200 1.419 . S
C1202 C1203 1.362 . S
C1203 H1193 0.930 . S
C1203 C1196 1.409 . S
C1203 C1202 1.362 . S
C448 C295 1.925 . S
C443 N2 2.029 . S
C464 C297 1.903 . S
C459 C7 1.885 . S
C480 C324 1.739 . S
C475 N12 1.695 . S
C491 C16 2.133 . S
C496 C345 2.169 . S
C512 C365 2.070 . S
C507 C30 2.055 . S
C528 C395 1.552 . S
C523 N35 1.642 . S
C539 C39 2.064 . S
C544 C397 2.056 . S
C560 C435 1.819 . S
C555 N25 1.790 . S
C576 C277 1.367 . S
C571 N58 1.335 . S
C587 N81 1.105 . S
C592 C302 1.178 . S
C608 C332 1.074 . S
C603 N104 1.081 . S
C619 N127 1.631 . S
C624 C344 1.513 . S
C640 C364 0.939 . S
C635 N48 1.085 . S
C656 C377 1.599 . S
C651 N71 1.569 . S
C667 N94 0.604 . S
C672 C402 0.727 . S
C688 C417 1.714 . S
C683 N117 1.695 . S
C699 C85 1.686 . S
C704 C282 1.657 . S
C715 C122 1.674 . S
C720 C372 1.626 . S
C731 C53 1.543 . S
C736 C382 1.518 . S
C752 C415 1.533 . S
C747 C76 1.633 . S
C768 C422 1.507 . S
C763 C99 1.568 . S
C784 C325 1.904 . S
C779 C131 1.876 . S
C800 C352 1.067 . S
C795 C62 1.099 . S
C811 C108 1.002 . S
C816 C315 0.913 . S
C832 C424 1.931 . S
C827 N140 2.115 . S
C843 C145 2.008 . S
C848 C357 2.009 . S
C864 C384 1.654 . S
C859 N150 1.609 . S
C875 C154 2.010 . S
C880 C405 2.042 . S
C896 C305 1.899 . S
C891 C168 1.891 . S
C907 N173 1.604 . S
C912 C335 1.566 . S
C928 C337 2.208 . S
C923 C177 2.214 . S
C944 C284 1.860 . S
C939 N163 1.910 . S
C960 C432 1.398 . S
C955 C200 1.471 . S
C976 C362 1.601 . S
C971 N219 1.555 . S
C987 N242 1.230 . S
C992 C392 1.239 . S
C1008 C404 1.556 . S
C1003 C269 1.663 . S
C1024 C304 0.880 . S
C1019 C191 0.884 . S
C1035 N209 1.769 . S
C1040 C317 1.791 . S
C1051 N232 1.091 . S
C1056 C342 1.004 . S
C1067 C260 1.777 . S
C1072 C292 1.704 . S
C1083 C223 1.779 . S
C1088 C425 1.798 . S
C1099 N255 1.176 . S
C1104 C312 1.160 . S
C1115 N186 1.208 . S
C1120 C322 1.207 . S
C1136 C355 1.575 . S
C1131 C214 1.680 . S
C1152 C285 1.614 . S
C1147 C237 1.618 . S
C1168 C385 1.536 . S
C1163 N265 1.514 . S
C1184 C412 0.695 . S
C1179 N196 0.822 . S
C1200 C375 0.999 . S
C1195 C246 0.967 . S
