# Generated by pormake.
# Topology ocu, (6,8)-cn, num edge types: 1
# Building blocks:
#     Node 0, Type 0, BuildingBlock: KUMBUR_clean_sbu_0, # of connection points: 6
#     Node 1, Type 0, BuildingBlock: KUMBUR_clean_sbu_0, # of connection points: 6
#     Node 2, Type 0, BuildingBlock: KUMBUR_clean_sbu_0, # of connection points: 6
#     Node 3, Type 0, BuildingBlock: KUMBUR_clean_sbu_0, # of connection points: 6
#     Node 4, Type 0, BuildingBlock: KUMBUR_clean_sbu_0, # of connection points: 6
#     Node 5, Type 0, BuildingBlock: KUMBUR_clean_sbu_0, # of connection points: 6
#     Node 6, Type 0, BuildingBlock: KUMBUR_clean_sbu_0, # of connection points: 6
#     Node 7, Type 0, BuildingBlock: KUMBUR_clean_sbu_0, # of connection points: 6
#     Node 8, Type 1, BuildingBlock: AJUNOK_clean_sbu_0, # of connection points: 8
#     Node 9, Type 1, BuildingBlock: AJUNOK_clean_sbu_0, # of connection points: 8
#     Node 10, Type 1, BuildingBlock: AJUNOK_clean_sbu_0, # of connection points: 8
#     Node 11, Type 1, BuildingBlock: AJUNOK_clean_sbu_0, # of connection points: 8
#     Node 12, Type 1, BuildingBlock: AJUNOK_clean_sbu_0, # of connection points: 8
#     Node 13, Type 1, BuildingBlock: AJUNOK_clean_sbu_0, # of connection points: 8
#     Edge 14, Type (0, 1), BuildingBlock: OJICUG_clean_linker_0, # of connection points: 2
#     Edge 15, Type (0, 1), BuildingBlock: OJICUG_clean_linker_0, # of connection points: 2
#     Edge 16, Type (0, 1), BuildingBlock: OJICUG_clean_linker_0, # of connection points: 2
#     Edge 17, Type (0, 1), BuildingBlock: OJICUG_clean_linker_0, # of connection points: 2
#     Edge 18, Type (0, 1), BuildingBlock: OJICUG_clean_linker_0, # of connection points: 2
#     Edge 19, Type (0, 1), BuildingBlock: OJICUG_clean_linker_0, # of connection points: 2
#     Edge 20, Type (0, 1), BuildingBlock: OJICUG_clean_linker_0, # of connection points: 2
#     Edge 21, Type (0, 1), BuildingBlock: OJICUG_clean_linker_0, # of connection points: 2
#     Edge 22, Type (0, 1), BuildingBlock: OJICUG_clean_linker_0, # of connection points: 2
#     Edge 23, Type (0, 1), BuildingBlock: OJICUG_clean_linker_0, # of connection points: 2
#     Edge 24, Type (0, 1), BuildingBlock: OJICUG_clean_linker_0, # of connection points: 2
#     Edge 25, Type (0, 1), BuildingBlock: OJICUG_clean_linker_0, # of connection points: 2
#     Edge 26, Type (0, 1), BuildingBlock: OJICUG_clean_linker_0, # of connection points: 2
#     Edge 27, Type (0, 1), BuildingBlock: OJICUG_clean_linker_0, # of connection points: 2
#     Edge 28, Type (0, 1), BuildingBlock: OJICUG_clean_linker_0, # of connection points: 2
#     Edge 29, Type (0, 1), BuildingBlock: OJICUG_clean_linker_0, # of connection points: 2
#     Edge 30, Type (0, 1), BuildingBlock: OJICUG_clean_linker_0, # of connection points: 2
#     Edge 31, Type (0, 1), BuildingBlock: OJICUG_clean_linker_0, # of connection points: 2
#     Edge 32, Type (0, 1), BuildingBlock: OJICUG_clean_linker_0, # of connection points: 2
#     Edge 33, Type (0, 1), BuildingBlock: OJICUG_clean_linker_0, # of connection points: 2
#     Edge 34, Type (0, 1), BuildingBlock: OJICUG_clean_linker_0, # of connection points: 2
#     Edge 35, Type (0, 1), BuildingBlock: OJICUG_clean_linker_0, # of connection points: 2
#     Edge 36, Type (0, 1), BuildingBlock: OJICUG_clean_linker_0, # of connection points: 2
#     Edge 37, Type (0, 1), BuildingBlock: OJICUG_clean_linker_0, # of connection points: 2
#     Edge 38, Type (0, 1), BuildingBlock: OJICUG_clean_linker_0, # of connection points: 2
#     Edge 39, Type (0, 1), BuildingBlock: OJICUG_clean_linker_0, # of connection points: 2
#     Edge 40, Type (0, 1), BuildingBlock: OJICUG_clean_linker_0, # of connection points: 2
#     Edge 41, Type (0, 1), BuildingBlock: OJICUG_clean_linker_0, # of connection points: 2
#     Edge 42, Type (0, 1), BuildingBlock: OJICUG_clean_linker_0, # of connection points: 2
#     Edge 43, Type (0, 1), BuildingBlock: OJICUG_clean_linker_0, # of connection points: 2
#     Edge 44, Type (0, 1), BuildingBlock: OJICUG_clean_linker_0, # of connection points: 2
#     Edge 45, Type (0, 1), BuildingBlock: OJICUG_clean_linker_0, # of connection points: 2
#     Edge 46, Type (0, 1), BuildingBlock: OJICUG_clean_linker_0, # of connection points: 2
#     Edge 47, Type (0, 1), BuildingBlock: OJICUG_clean_linker_0, # of connection points: 2
#     Edge 48, Type (0, 1), BuildingBlock: OJICUG_clean_linker_0, # of connection points: 2
#     Edge 49, Type (0, 1), BuildingBlock: OJICUG_clean_linker_0, # of connection points: 2
#     Edge 50, Type (0, 1), BuildingBlock: OJICUG_clean_linker_0, # of connection points: 2
#     Edge 51, Type (0, 1), BuildingBlock: OJICUG_clean_linker_0, # of connection points: 2
#     Edge 52, Type (0, 1), BuildingBlock: OJICUG_clean_linker_0, # of connection points: 2
#     Edge 53, Type (0, 1), BuildingBlock: OJICUG_clean_linker_0, # of connection points: 2
#     Edge 54, Type (0, 1), BuildingBlock: OJICUG_clean_linker_0, # of connection points: 2
#     Edge 55, Type (0, 1), BuildingBlock: OJICUG_clean_linker_0, # of connection points: 2
#     Edge 56, Type (0, 1), BuildingBlock: OJICUG_clean_linker_0, # of connection points: 2
#     Edge 57, Type (0, 1), BuildingBlock: OJICUG_clean_linker_0, # of connection points: 2
#     Edge 58, Type (0, 1), BuildingBlock: OJICUG_clean_linker_0, # of connection points: 2
#     Edge 59, Type (0, 1), BuildingBlock: OJICUG_clean_linker_0, # of connection points: 2
#     Edge 60, Type (0, 1), BuildingBlock: OJICUG_clean_linker_0, # of connection points: 2
#     Edge 61, Type (0, 1), BuildingBlock: OJICUG_clean_linker_0, # of connection points: 2
# Relax obj value: 0.173
# Max RMSD: 0.268
# Mean RMSD: 0.197
data_MOF--net-ocu--node1-KUMBUR_clean_sbu_0--node2-AJUNOK_clean_sbu_0--edge1-OJICUG_clean_linker_0
_symmetry_space_group_name_H-M    P1
_symmetry_Int_Tables_number       1
_symmetry_cell_setting            triclinic
loop_
_symmetry_equiv_pos_as_xyz
'x, y, z'
_cell_length_a     34.431624
_cell_length_b     33.846411
_cell_length_c     30.779864
_cell_angle_alpha  86.106599
_cell_angle_beta   107.7181
_cell_angle_gamma 118.79948
loop_
_atom_site_label
_atom_site_type_symbol
_atom_site_fract_x
_atom_site_fract_y
_atom_site_fract_z
_atom_type_partial_charge
Tb0 Tb 0.25331 0.21166 0.19639 0.0
C1 C 0.39281 0.34927 0.36495 0.0
C2 C 0.397 0.30323 0.42792 0.0
C3 C 0.46162 0.37883 0.43231 0.0
C4 C 0.37327 0.30903 0.38375 0.0
C5 C 0.43673 0.38515 0.38942 0.0
C6 C 0.44167 0.33796 0.45164 0.0
C7 C 0.4252 0.43268 0.33045 0.0
N8 N 0.36716 0.35443 0.32411 0.0
C9 C 0.38156 0.39622 0.3079 0.0
C10 C 0.45334 0.42689 0.37097 0.0
Tb11 Tb 0.29592 0.29347 0.28923 0.0
N12 N 0.33001 0.2764 0.35968 0.0
C13 C 0.30774 0.23772 0.3795 0.0
C14 C 0.37469 0.26325 0.44745 0.0
C15 C 0.32966 0.23058 0.42326 0.0
H16 H 0.36002 0.40128 0.27679 0.0
H17 H 0.31161 0.19984 0.43838 0.0
H18 H 0.46057 0.33395 0.48537 0.0
H19 H 0.43703 0.46522 0.31659 0.0
H20 H 0.27291 0.21182 0.36246 0.0
H21 H 0.23958 0.31025 0.05183 0.0
H22 H 0.3915 0.25768 0.48145 0.0
H23 H 0.18385 0.10535 0.21078 0.0
H24 H 0.27868 0.29473 0.12616 0.0
H25 H 0.10522 0.04358 0.17063 0.0
H26 H 0.49559 0.40583 0.45143 0.0
H27 H 0.15853 0.25472 0.00884 0.0
H28 H 0.08847 0.17866 0.00326 0.0
H29 H 0.48698 0.45525 0.38858 0.0
H30 H 0.05175 0.10616 0.03564 0.0
N31 N 0.21999 0.23104 0.1276 0.0
C32 C 0.24319 0.26997 0.1087 0.0
C33 C 0.17538 0.24772 0.04201 0.0
C34 C 0.15239 0.20715 0.06045 0.0
C35 C 0.22111 0.27909 0.06613 0.0
C36 C 0.17598 0.19968 0.10374 0.0
H37 H 0.05777 0.05543 0.09794 0.0
N38 N 0.18019 0.15266 0.16251 0.0
C39 C 0.11878 0.07599 0.15665 0.0
C40 C 0.15534 0.15908 0.12184 0.0
C41 C 0.16331 0.11112 0.17932 0.0
C42 C 0.09208 0.08283 0.11567 0.0
C43 C 0.11054 0.12451 0.09737 0.0
O44 O 0.26887 0.1591 0.19416 0.0
O45 O 0.30392 0.23871 0.26518 0.0
O46 O 0.35621 0.31485 0.26538 0.0
O47 O 0.31559 0.27372 0.19356 0.0
O48 O 0.2611 0.17131 0.25299 0.0
O49 O 0.2848 0.20988 0.14744 0.0
O50 O 0.27439 0.34234 0.28835 0.0
O51 O 0.24627 0.26645 0.22038 0.0
O52 O 0.1941 0.19284 0.22053 0.0
O53 O 0.23725 0.22905 0.29372 0.0
O54 O 0.28899 0.33412 0.23232 0.0
O55 O 0.26186 0.29284 0.33648 0.0
C56 C 0.29786 0.20149 0.28266 0.0
C57 C 0.27632 0.13834 0.12674 0.0
C58 C 0.30288 0.09641 0.09208 0.0
C59 C 0.31278 0.13246 0.12166 0.0
C60 C 0.25628 0.06622 0.06798 0.0
C61 C 0.23005 0.10761 0.1022 0.0
C62 C 0.22019 0.07179 0.0731 0.0
C63 C 0.35364 0.30547 0.22321 0.0
C64 C 0.28698 0.17356 0.16125 0.0
C65 C 0.08627 0.13221 0.05491 0.0
C66 C 0.10717 0.17348 0.03647 0.0
C67 C 0.25301 0.30345 0.20246 0.0
C68 C 0.26761 0.36298 0.35603 0.0
C69 C 0.23142 0.36968 0.36044 0.0
C70 C 0.24152 0.40493 0.39129 0.0
C71 C 0.28818 0.4337 0.41682 0.0
C72 C 0.31375 0.39218 0.38218 0.0
C73 C 0.32392 0.42743 0.4121 0.0
C74 C 0.19877 0.19829 0.26408 0.0
C75 C 0.25716 0.32772 0.32177 0.0
H76 H 0.3486 0.15523 0.14136 0.0
H77 H 0.24779 0.03773 0.04587 0.0
H78 H 0.20149 0.11074 0.10611 0.0
H79 H 0.18434 0.04783 0.05487 0.0
H80 H 0.19568 0.34767 0.33997 0.0
H81 H 0.29711 0.46168 0.4399 0.0
H82 H 0.34206 0.38816 0.37924 0.0
H83 H 0.35975 0.4502 0.43156 0.0
Tb84 Tb 0.80221 0.22233 0.24034 0.0
C85 C 0.69522 0.27533 0.32389 0.0
C86 C 0.61579 0.21309 0.30008 0.0
C87 C 0.64463 0.25964 0.37097 0.0
C88 C 0.65929 0.23961 0.29201 0.0
C89 C 0.68738 0.28659 0.36273 0.0
C90 C 0.60909 0.2228 0.33993 0.0
C91 C 0.76212 0.35416 0.37969 0.0
N92 N 0.73662 0.30088 0.31554 0.0
C93 C 0.76824 0.34188 0.34091 0.0
C94 C 0.72191 0.32591 0.39122 0.0
Tb95 Tb 0.74051 0.28081 0.24758 0.0
N96 N 0.66636 0.23145 0.25295 0.0
C97 C 0.62997 0.19704 0.22081 0.0
C98 C 0.57987 0.17757 0.26783 0.0
C99 C 0.58703 0.16962 0.22808 0.0
H100 H 0.79888 0.36498 0.33167 0.0
H101 H 0.55929 0.14222 0.20272 0.0
H102 H 0.57608 0.20253 0.34657 0.0
H103 H 0.78811 0.38581 0.40021 0.0
H104 H 0.63202 0.18893 0.18893 0.0
H105 H 0.98405 0.35995 0.28665 0.0
H106 H 0.54639 0.15623 0.27318 0.0
H107 H 0.74209 0.14019 0.15375 0.0
H108 H 0.90974 0.31599 0.29808 0.0
H109 H 0.75328 0.11929 0.08559 0.0
H110 H 0.63833 0.26762 0.4008 0.0
H111 H 0.9985 0.3436 0.21821 0.0
H112 H 0.96928 0.29704 0.14513 0.0
H113 H 0.71693 0.33578 0.42101 0.0
H114 H 0.90648 0.2332 0.08976 0.0
N115 N 0.87699 0.27087 0.236 0.0
C116 C 0.91294 0.30592 0.26776 0.0
C117 C 0.96457 0.32299 0.22286 0.0
C118 C 0.92866 0.28767 0.1904 0.0
C119 C 0.95658 0.33217 0.26154 0.0
C120 C 0.88462 0.26206 0.19757 0.0
H121 H 0.82635 0.16729 0.06723 0.0
N122 N 0.80645 0.20249 0.1724 0.0
C123 C 0.78005 0.1501 0.10711 0.0
C124 C 0.84851 0.22697 0.16512 0.0
C125 C 0.77378 0.16241 0.14576 0.0
C126 C 0.82131 0.17721 0.09695 0.0
C127 C 0.85653 0.21552 0.1265 0.0
O128 O 0.76694 0.15101 0.23832 0.0
O129 O 0.73973 0.21687 0.25095 0.0
O130 O 0.78938 0.28593 0.31494 0.0
O131 O 0.84166 0.26471 0.30477 0.0
O132 O 0.77723 0.19195 0.29828 0.0
O133 O 0.84273 0.19047 0.26011 0.0
O134 O 0.7723 0.35185 0.24661 0.0
O135 O 0.80304 0.28619 0.23744 0.0
O136 O 0.75571 0.22037 0.17245 0.0
O137 O 0.70155 0.23761 0.18385 0.0
O138 O 0.76762 0.31316 0.19103 0.0
O139 O 0.69698 0.3095 0.22714 0.0
C140 C 0.74052 0.19614 0.2867 0.0
C141 C 0.80932 0.12587 0.2975 0.0
C142 C 0.85393 0.12924 0.37632 0.0
C143 C 0.83859 0.15037 0.33997 0.0
C144 C 0.83211 0.08147 0.37259 0.0
C145 C 0.78808 0.07856 0.29356 0.0
C146 C 0.79835 0.05632 0.33169 0.0
C147 C 0.8295 0.28565 0.32846 0.0
C148 C 0.80623 0.15058 0.25688 0.0
C149 C 0.89997 0.24138 0.11935 0.0
C150 C 0.93581 0.27751 0.15104 0.0
C151 C 0.80397 0.30841 0.20277 0.0
C152 C 0.72659 0.37034 0.18426 0.0
C153 C 0.69664 0.34202 0.14393 0.0
C154 C 0.68276 0.35991 0.10407 0.0
C155 C 0.70545 0.40728 0.10243 0.0
C156 C 0.74879 0.4174 0.18303 0.0
C157 C 0.73912 0.43579 0.14164 0.0
C158 C 0.71478 0.21876 0.15925 0.0
C159 C 0.73185 0.34973 0.2274 0.0
H160 H 0.85401 0.18695 0.34314 0.0
H161 H 0.84328 0.0636 0.39974 0.0
H162 H 0.76495 0.05913 0.26092 0.0
H163 H 0.7826 0.01977 0.32861 0.0
H164 H 0.67967 0.30551 0.14459 0.0
H165 H 0.69478 0.4224 0.07214 0.0
H166 H 0.77257 0.43967 0.21396 0.0
H167 H 0.75556 0.47217 0.14061 0.0
Tb168 Tb 0.73494 0.73442 0.28221 0.0
C169 C 0.8492 0.8483 0.15736 0.0
C170 C 0.79075 0.83906 0.08517 0.0
C171 C 0.86705 0.90631 0.10427 0.0
C172 C 0.80469 0.82352 0.12774 0.0
C173 C 0.8813 0.88957 0.14567 0.0
C174 C 0.82184 0.88104 0.07401 0.0
C175 C 0.94039 0.89196 0.21405 0.0
N176 N 0.8619 0.83039 0.19638 0.0
C177 C 0.90733 0.8507 0.2239 0.0
C178 C 0.92718 0.91182 0.17508 0.0
Tb179 Tb 0.80588 0.76216 0.20898 0.0
N180 N 0.7762 0.7827 0.13934 0.0
C181 C 0.73402 0.75448 0.10844 0.0
C182 C 0.74668 0.81118 0.05442 0.0
C183 C 0.71844 0.76846 0.06593 0.0
H184 H 0.91808 0.83573 0.25406 0.0
H185 H 0.68473 0.74613 0.04197 0.0
H186 H 0.8117 0.89366 0.04157 0.0
H187 H 0.97603 0.90841 0.23653 0.0
H188 H 0.71188 0.72108 0.11633 0.0
H189 H 0.8525 0.75541 0.45331 0.0
H190 H 0.73472 0.82176 0.0213 0.0
H191 H 0.62257 0.66209 0.23876 0.0
H192 H 0.828 0.77758 0.37694 0.0
H193 H 0.5644 0.58985 0.25661 0.0
H194 H 0.8911 0.93807 0.09476 0.0
H195 H 0.80253 0.68038 0.47485 0.0
H196 H 0.72676 0.60756 0.45411 0.0
H197 H 0.95291 0.94363 0.16738 0.0
H198 H 0.64823 0.56185 0.39998 0.0
N199 N 0.76406 0.71536 0.35334 0.0
C200 C 0.80542 0.74447 0.38487 0.0
C201 C 0.79148 0.68975 0.44076 0.0
C202 C 0.74847 0.66075 0.40923 0.0
C203 C 0.81966 0.73213 0.42877 0.0
C204 C 0.73543 0.67495 0.36552 0.0
H205 H 0.58713 0.55514 0.32633 0.0
N206 N 0.67883 0.667 0.29603 0.0
C207 C 0.60007 0.60613 0.279 0.0
C208 C 0.69126 0.64966 0.33558 0.0
C209 C 0.63329 0.6471 0.26892 0.0
C210 C 0.61307 0.58657 0.31828 0.0
C211 C 0.65885 0.60895 0.34783 0.0
O212 O 0.68359 0.75357 0.27559 0.0
O213 O 0.75003 0.76823 0.22196 0.0
O214 O 0.82433 0.82702 0.2414 0.0
O215 O 0.80035 0.79754 0.3045 0.0
O216 O 0.68237 0.72871 0.21714 0.0
O217 O 0.74388 0.77767 0.3348 0.0
O218 O 0.85869 0.74575 0.21339 0.0
O219 O 0.79075 0.72817 0.2689 0.0
O220 O 0.7154 0.66915 0.25103 0.0
O221 O 0.74179 0.69647 0.18808 0.0
O222 O 0.85823 0.76697 0.27378 0.0
O223 O 0.79686 0.71945 0.15543 0.0
C224 C 0.70912 0.75711 0.19542 0.0
C225 C 0.6758 0.77278 0.3435 0.0
C226 C 0.63942 0.80395 0.37744 0.0
C227 C 0.67038 0.80963 0.35331 0.0
C228 C 0.61512 0.76141 0.39261 0.0
C229 C 0.65121 0.73078 0.35913 0.0
C230 C 0.62118 0.72524 0.38366 0.0
C231 C 0.82184 0.83216 0.28253 0.0
C232 C 0.70496 0.77794 0.31476 0.0
C233 C 0.67253 0.59317 0.39007 0.0
C234 C 0.71724 0.61917 0.42085 0.0
C235 C 0.83149 0.73843 0.29545 0.0
C236 C 0.8655 0.72612 0.14477 0.0
C237 C 0.87216 0.68981 0.13537 0.0
C238 C 0.90299 0.69588 0.11072 0.0
C239 C 0.92583 0.73834 0.09466 0.0
C240 C 0.88892 0.76798 0.12833 0.0
C241 C 0.91869 0.77391 0.10328 0.0
C242 C 0.7184 0.66302 0.21053 0.0
C243 C 0.83688 0.72082 0.17448 0.0
H244 H 0.68871 0.842 0.34065 0.0
H245 H 0.59108 0.75607 0.41117 0.0
H246 H 0.65471 0.70213 0.35198 0.0
H247 H 0.60201 0.69258 0.39525 0.0
H248 H 0.8549 0.6576 0.14874 0.0
H249 H 0.94955 0.74414 0.07554 0.0
H250 H 0.88474 0.79629 0.13531 0.0
H251 H 0.93685 0.80647 0.09099 0.0
Tb252 Tb 0.30516 0.72225 0.263 0.0
C253 C 0.21941 0.82776 0.13716 0.0
C254 C 0.28672 0.90171 0.14581 0.0
C255 C 0.22092 0.87747 0.07611 0.0
C256 C 0.26346 0.85959 0.1625 0.0
C257 C 0.19688 0.83675 0.09428 0.0
C258 C 0.26586 0.90996 0.10189 0.0
C259 C 0.12693 0.76736 0.09341 0.0
N260 N 0.19727 0.78931 0.15621 0.0
C261 C 0.15094 0.76003 0.13602 0.0
C262 C 0.15027 0.80547 0.07199 0.0
Tb263 Tb 0.23867 0.77967 0.22577 0.0
N264 N 0.28181 0.8507 0.20511 0.0
C265 C 0.32215 0.88434 0.23414 0.0
C266 C 0.32916 0.93498 0.17454 0.0
C267 C 0.34663 0.92651 0.21912 0.0
H268 H 0.13286 0.73026 0.15223 0.0
H269 H 0.37894 0.95247 0.24205 0.0
H270 H 0.28346 0.94194 0.08829 0.0
H271 H 0.09054 0.74353 0.07706 0.0
H272 H 0.33686 0.87915 0.26879 0.0
H273 H 0.17306 0.54392 0.23454 0.0
H274 H 0.34773 0.9678 0.16327 0.0
H275 H 0.40763 0.77235 0.34152 0.0
H276 H 0.21131 0.62041 0.21345 0.0
H277 H 0.44799 0.75765 0.41676 0.0
H278 H 0.20449 0.88482 0.04295 0.0
H279 H 0.20118 0.52565 0.31295 0.0
H280 H 0.26131 0.55097 0.39052 0.0
H281 H 0.13163 0.81115 0.03905 0.0
H282 H 0.33664 0.60954 0.44064 0.0
N283 N 0.26321 0.64829 0.27921 0.0
C284 C 0.22547 0.61442 0.24782 0.0
C285 C 0.21878 0.55997 0.30389 0.0
C286 C 0.2584 0.5938 0.33529 0.0
C287 C 0.20298 0.57012 0.25962 0.0
C288 C 0.28042 0.63783 0.32147 0.0
H289 H 0.40726 0.68635 0.45017 0.0
N290 N 0.34436 0.71045 0.33275 0.0
C291 C 0.41257 0.73283 0.39833 0.0
C292 C 0.32262 0.67026 0.34934 0.0
C293 C 0.38963 0.74094 0.35561 0.0
C294 C 0.38941 0.69267 0.41715 0.0
C295 C 0.34421 0.6603 0.39217 0.0
O296 O 0.37009 0.74017 0.25599 0.0
O297 O 0.29675 0.77353 0.22293 0.0
O298 O 0.22517 0.74307 0.16278 0.0
O299 O 0.25082 0.69247 0.19633 0.0
O300 O 0.36176 0.79109 0.26559 0.0
O301 O 0.30651 0.68284 0.2149 0.0
O302 O 0.17682 0.76505 0.23796 0.0
O303 O 0.24773 0.72886 0.26566 0.0
O304 O 0.31504 0.75715 0.32606 0.0
O305 O 0.29269 0.80971 0.29215 0.0
O306 O 0.1821 0.71156 0.22777 0.0
O307 O 0.24166 0.82664 0.26902 0.0
C308 C 0.33845 0.80464 0.23318 0.0
C309 C 0.37588 0.68135 0.22767 0.0
C310 C 0.39298 0.63865 0.18488 0.0
C311 C 0.36663 0.65845 0.18698 0.0
C312 C 0.42821 0.6404 0.22385 0.0
C313 C 0.41068 0.68316 0.26723 0.0
C314 C 0.43666 0.66231 0.26522 0.0
C315 C 0.22842 0.70595 0.16062 0.0
C316 C 0.35162 0.70666 0.22498 0.0
C317 C 0.32093 0.61767 0.40759 0.0
C318 C 0.27806 0.58437 0.3791 0.0
C319 C 0.20653 0.69777 0.25862 0.0
C320 C 0.17212 0.82624 0.26203 0.0
C321 C 0.17609 0.84348 0.30366 0.0
C322 C 0.14704 0.86021 0.30544 0.0
C323 C 0.11482 0.86147 0.26508 0.0
C324 C 0.14083 0.82793 0.22121 0.0
C325 C 0.11229 0.84592 0.22286 0.0
C326 C 0.31304 0.79507 0.32829 0.0
C327 C 0.19754 0.80223 0.2647 0.0
H328 H 0.34067 0.65831 0.15607 0.0
H329 H 0.44982 0.62607 0.2218 0.0
H330 H 0.41853 0.70146 0.29897 0.0
H331 H 0.46421 0.66432 0.29525 0.0
H332 H 0.1999 0.84137 0.33521 0.0
H333 H 0.09164 0.87413 0.26638 0.0
H334 H 0.13763 0.81445 0.18869 0.0
H335 H 0.08749 0.84677 0.1917 0.0
Tb336 Tb 0.30306 0.72241 0.74024 0.0
C337 C 0.19058 0.77523 0.81892 0.0
C338 C 0.11231 0.71128 0.7946 0.0
C339 C 0.13671 0.76101 0.86179 0.0
C340 C 0.15634 0.73831 0.78779 0.0
C341 C 0.18049 0.78756 0.85551 0.0
C342 C 0.10288 0.72274 0.83169 0.0
C343 C 0.25621 0.85394 0.87534 0.0
N344 N 0.23308 0.80001 0.81262 0.0
C345 C 0.26465 0.84055 0.83884 0.0
C346 C 0.21416 0.82703 0.88411 0.0
Tb347 Tb 0.23992 0.77983 0.74624 0.0
N348 N 0.16618 0.72842 0.75153 0.0
C349 C 0.13307 0.69006 0.72247 0.0
C350 C 0.07892 0.67304 0.76435 0.0
C351 C 0.08955 0.66224 0.7284 0.0
H352 H 0.2968 0.86288 0.83176 0.0
H353 H 0.06439 0.63194 0.7054 0.0
H354 H 0.06932 0.70234 0.8372 0.0
H355 H 0.28191 0.88547 0.89621 0.0
H356 H 0.13906 0.67846 0.69515 0.0
H357 H 0.48472 0.86142 0.79081 0.0
H358 H 0.04516 0.6512 0.76892 0.0
H359 H 0.24657 0.64145 0.65287 0.0
H360 H 0.41014 0.81571 0.80084 0.0
H361 H 0.25907 0.62354 0.58433 0.0
H362 H 0.12857 0.76996 0.88974 0.0
H363 H 0.5009 0.84774 0.72243 0.0
H364 H 0.47333 0.80349 0.6483 0.0
H365 H 0.20748 0.83774 0.91218 0.0
H366 H 0.41169 0.74069 0.59119 0.0
N367 N 0.3785 0.77223 0.73769 0.0
C368 C 0.41386 0.80684 0.7703 0.0
C369 C 0.46677 0.82637 0.72638 0.0
C370 C 0.43156 0.79157 0.69305 0.0
C371 C 0.45777 0.83408 0.76498 0.0
C372 C 0.3872 0.76491 0.69934 0.0
H373 H 0.33216 0.67401 0.56695 0.0
N374 N 0.30962 0.70481 0.67259 0.0
C375 C 0.28512 0.65422 0.60639 0.0
C376 C 0.35187 0.73039 0.66604 0.0
C377 C 0.27798 0.66496 0.64521 0.0
C378 C 0.3264 0.68268 0.59682 0.0
C379 C 0.36086 0.72057 0.62728 0.0
O380 O 0.26675 0.65108 0.73683 0.0
O381 O 0.24098 0.71683 0.75165 0.0
O382 O 0.2893 0.78653 0.81356 0.0
O383 O 0.34135 0.7639 0.80516 0.0
O384 O 0.27903 0.69244 0.79886 0.0
O385 O 0.3425 0.6893 0.75874 0.0
O386 O 0.2734 0.85101 0.74775 0.0
O387 O 0.30258 0.78563 0.73601 0.0
O388 O 0.25507 0.71887 0.67276 0.0
O389 O 0.20063 0.7373 0.68206 0.0
O390 O 0.2657 0.81063 0.68861 0.0
O391 O 0.19779 0.80995 0.72401 0.0
C392 C 0.2423 0.69656 0.78773 0.0
C393 C 0.30783 0.62479 0.79569 0.0
C394 C 0.35088 0.62817 0.87491 0.0
C395 C 0.33635 0.6493 0.83824 0.0
C396 C 0.32885 0.58046 0.87161 0.0
C397 C 0.28631 0.57745 0.79193 0.0
C398 C 0.29567 0.55524 0.83048 0.0
C399 C 0.32895 0.78534 0.82798 0.0
C400 C 0.30553 0.64972 0.75519 0.0
C401 C 0.40449 0.74756 0.62091 0.0
C402 C 0.43967 0.78307 0.65359 0.0
C403 C 0.30278 0.80712 0.70082 0.0
C404 C 0.23167 0.87427 0.68632 0.0
C405 C 0.20465 0.84901 0.64386 0.0
C406 C 0.19102 0.86937 0.60586 0.0
C407 C 0.21263 0.91712 0.6085 0.0
C408 C 0.25272 0.92156 0.6892 0.0
C409 C 0.24435 0.94302 0.64978 0.0
C410 C 0.21405 0.71724 0.65895 0.0
C411 C 0.23379 0.85029 0.72752 0.0
H412 H 0.35273 0.68598 0.84128 0.0
H413 H 0.33976 0.56285 0.89927 0.0
H414 H 0.26369 0.558 0.75919 0.0
H415 H 0.27979 0.51868 0.82759 0.0
H416 H 0.18924 0.81243 0.64156 0.0
H417 H 0.20255 0.9344 0.58005 0.0
H418 H 0.27434 0.94156 0.72185 0.0
H419 H 0.25988 0.97955 0.65193 0.0
Tb420 Tb 0.24006 0.2392 0.78048 0.0
C421 C 0.35399 0.35185 0.65364 0.0
C422 C 0.29465 0.34325 0.58249 0.0
C423 C 0.37123 0.41 0.60068 0.0
C424 C 0.30913 0.32747 0.62475 0.0
C425 C 0.38594 0.39301 0.64169 0.0
C426 C 0.32564 0.3851 0.57105 0.0
C427 C 0.44556 0.39508 0.70933 0.0
N428 N 0.36702 0.33391 0.69245 0.0
C429 C 0.41261 0.3539 0.71939 0.0
C430 C 0.43204 0.41505 0.67061 0.0
Tb431 Tb 0.31112 0.26694 0.7069 0.0
N432 N 0.28067 0.28692 0.6368 0.0
C433 C 0.23785 0.25916 0.60626 0.0
C434 C 0.25011 0.31585 0.55234 0.0
C435 C 0.22184 0.27336 0.56408 0.0
H436 H 0.42348 0.33876 0.74937 0.0
H437 H 0.18765 0.25137 0.54061 0.0
H438 H 0.31506 0.39793 0.53891 0.0
H439 H 0.48135 0.41134 0.73143 0.0
H440 H 0.21502 0.22603 0.61388 0.0
H441 H 0.36102 0.24941 0.94579 0.0
H442 H 0.23773 0.32666 0.51951 0.0
H443 H 0.12648 0.16764 0.73583 0.0
H444 H 0.3344 0.27697 0.87311 0.0
H445 H 0.06821 0.09419 0.75151 0.0
H446 H 0.39515 0.44172 0.591 0.0
H447 H 0.31 0.17333 0.9647 0.0
H448 H 0.23216 0.10264 0.9436 0.0
H449 H 0.45767 0.44681 0.66274 0.0
H450 H 0.15238 0.06027 0.89059 0.0
N451 N 0.26926 0.21622 0.84882 0.0
C452 C 0.31175 0.24334 0.88002 0.0
C453 C 0.29823 0.185 0.9322 0.0
C454 C 0.25384 0.15834 0.90138 0.0
C455 C 0.32706 0.22795 0.92169 0.0
C456 C 0.24014 0.17526 0.85961 0.0
H457 H 0.09086 0.05694 0.819 0.0
N458 N 0.18285 0.17089 0.79203 0.0
C459 C 0.10395 0.10981 0.77373 0.0
C460 C 0.19532 0.15173 0.83017 0.0
C461 C 0.13727 0.1514 0.76476 0.0
C462 C 0.11686 0.08888 0.81182 0.0
C463 C 0.16281 0.11022 0.84112 0.0
O464 O 0.19434 0.2655 0.77418 0.0
O465 O 0.25565 0.27364 0.7207 0.0
O466 O 0.33139 0.33191 0.73996 0.0
O467 O 0.3058 0.3028 0.80273 0.0
O468 O 0.18752 0.23539 0.7168 0.0
O469 O 0.24568 0.27493 0.83823 0.0
O470 O 0.36311 0.24899 0.71279 0.0
O471 O 0.29483 0.23171 0.76628 0.0
O472 O 0.2152 0.17544 0.74217 0.0
O473 O 0.24679 0.20416 0.68253 0.0
O474 O 0.36298 0.27145 0.77184 0.0
O475 O 0.3013 0.22226 0.65478 0.0
C476 C 0.21444 0.26287 0.69462 0.0
C477 C 0.17784 0.27771 0.83939 0.0
C478 C 0.14328 0.31187 0.87319 0.0
C479 C 0.17838 0.31639 0.85515 0.0
C480 C 0.10768 0.26795 0.87467 0.0
C481 C 0.14218 0.2346 0.84207 0.0
C482 C 0.1073 0.22984 0.85937 0.0
C483 C 0.32838 0.33709 0.78077 0.0
C484 C 0.21181 0.2829 0.81627 0.0
C485 C 0.17678 0.09218 0.88165 0.0
C486 C 0.22222 0.11627 0.91179 0.0
C487 C 0.33574 0.24227 0.79267 0.0
C488 C 0.36872 0.22455 0.64589 0.0
C489 C 0.36923 0.18497 0.63477 0.0
C490 C 0.39782 0.18665 0.60924 0.0
C491 C 0.42588 0.22861 0.59536 0.0
C492 C 0.39714 0.26581 0.63162 0.0
C493 C 0.42557 0.26774 0.60657 0.0
C494 C 0.21881 0.1713 0.70139 0.0
C495 C 0.34067 0.22265 0.67481 0.0
H496 H 0.20574 0.3498 0.85285 0.0
H497 H 0.07924 0.2629 0.88661 0.0
H498 H 0.14074 0.20459 0.83001 0.0
H499 H 0.07934 0.19639 0.86031 0.0
H500 H 0.34766 0.15308 0.6462 0.0
H501 H 0.4491 0.23145 0.57674 0.0
H502 H 0.39782 0.29662 0.64029 0.0
H503 H 0.4479 0.29985 0.59619 0.0
Tb504 Tb 0.80106 0.21853 0.75778 0.0
C505 C 0.716 0.32562 0.63809 0.0
C506 C 0.78217 0.39958 0.64264 0.0
C507 C 0.71514 0.37095 0.57362 0.0
C508 C 0.76018 0.35874 0.6618 0.0
C509 C 0.69246 0.33156 0.5941 0.0
C510 C 0.75982 0.40494 0.59791 0.0
C511 C 0.62461 0.26116 0.59583 0.0
N512 N 0.69529 0.2882 0.65913 0.0
C513 C 0.64936 0.25706 0.63968 0.0
C514 C 0.64651 0.29825 0.57258 0.0
Tb515 Tb 0.74018 0.28201 0.72844 0.0
N516 N 0.78035 0.35194 0.70473 0.0
C517 C 0.82144 0.38638 0.73172 0.0
C518 C 0.82509 0.43411 0.66957 0.0
C519 C 0.84445 0.42767 0.71448 0.0
H520 H 0.63215 0.22837 0.65745 0.0
H521 H 0.8772 0.45448 0.73588 0.0
H522 H 0.77601 0.43543 0.58195 0.0
H523 H 0.58871 0.23574 0.58001 0.0
H524 H 0.83741 0.38259 0.76653 0.0
H525 H 0.66266 0.04612 0.74809 0.0
H526 H 0.84298 0.46632 0.65679 0.0
H527 H 0.9077 0.27284 0.83082 0.0
H528 H 0.70318 0.1185 0.71839 0.0
H529 H 0.95081 0.26383 0.90773 0.0
H530 H 0.69798 0.37602 0.53955 0.0
H531 H 0.69668 0.03298 0.82721 0.0
H532 H 0.76428 0.0614 0.89995 0.0
H533 H 0.62729 0.30146 0.53865 0.0
H534 H 0.84213 0.12054 0.94396 0.0
N535 N 0.76026 0.14811 0.78035 0.0
C536 C 0.71909 0.11404 0.75297 0.0
C537 C 0.71487 0.06522 0.81433 0.0
C538 C 0.75809 0.09923 0.8413 0.0
C539 C 0.69564 0.07247 0.76968 0.0
C540 C 0.78024 0.14057 0.82298 0.0
H541 H 0.91236 0.1962 0.94697 0.0
N542 N 0.845 0.21176 0.82732 0.0
C543 C 0.91514 0.23826 0.89122 0.0
C544 C 0.82427 0.17356 0.84733 0.0
C545 C 0.89064 0.24323 0.84765 0.0
C546 C 0.89331 0.2001 0.91328 0.0
C547 C 0.84761 0.16675 0.89099 0.0
O548 O 0.86038 0.23178 0.74159 0.0
O549 O 0.79464 0.27229 0.72086 0.0
O550 O 0.72664 0.24772 0.66402 0.0
O551 O 0.74193 0.18991 0.69413 0.0
O552 O 0.85997 0.28412 0.75523 0.0
O553 O 0.79461 0.16984 0.71352 0.0
O554 O 0.68275 0.26642 0.74943 0.0
O555 O 0.74682 0.22827 0.76509 0.0
O556 O 0.81334 0.25245 0.82192 0.0
O557 O 0.80055 0.31116 0.79091 0.0
O558 O 0.68151 0.21586 0.72972 0.0
O559 O 0.74478 0.33204 0.76983 0.0
C560 C 0.83681 0.30132 0.72801 0.0
C561 C 0.86397 0.16945 0.71985 0.0
C562 C 0.88816 0.13424 0.67685 0.0
C563 C 0.85745 0.14862 0.67912 0.0
C564 C 0.92452 0.13851 0.71602 0.0
C565 C 0.89951 0.17328 0.75971 0.0
C566 C 0.92958 0.15731 0.75773 0.0
C567 C 0.7227 0.20733 0.66001 0.0
C568 C 0.83849 0.19361 0.7162 0.0
C569 C 0.82502 0.12646 0.91032 0.0
C570 C 0.78047 0.09276 0.88537 0.0
C571 C 0.70475 0.19875 0.75699 0.0
C572 C 0.6727 0.32649 0.76487 0.0
C573 C 0.68373 0.35704 0.80027 0.0
C574 C 0.65264 0.37194 0.80068 0.0
C575 C 0.61059 0.35704 0.7646 0.0
C576 C 0.63079 0.31153 0.7286 0.0
C577 C 0.59993 0.32708 0.72848 0.0
C578 C 0.81919 0.29366 0.8254 0.0
C579 C 0.70232 0.30613 0.77094 0.0
H580 H 0.83084 0.14707 0.64808 0.0
H581 H 0.94928 0.12822 0.71398 0.0
H582 H 0.90515 0.19009 0.79147 0.0
H583 H 0.95779 0.16111 0.78795 0.0
H584 H 0.71567 0.36765 0.8287 0.0
H585 H 0.58539 0.36729 0.76516 0.0
H586 H 0.62117 0.28687 0.70137 0.0
H587 H 0.56716 0.31488 0.70115 0.0
Tb588 Tb 0.75082 0.70565 0.69773 0.0
C589 C 0.88866 0.84028 0.86529 0.0
C590 C 0.88915 0.79326 0.92789 0.0
C591 C 0.95706 0.86665 0.93287 0.0
C592 C 0.86697 0.80015 0.88353 0.0
C593 C 0.93336 0.87467 0.89029 0.0
C594 C 0.93488 0.82602 0.95176 0.0
C595 C 0.92425 0.92484 0.8334 0.0
N596 N 0.86373 0.84747 0.82519 0.0
C597 C 0.87972 0.88987 0.81039 0.0
C598 C 0.95161 0.91695 0.87307 0.0
Tb599 Tb 0.79111 0.78883 0.78934 0.0
N600 N 0.82234 0.77006 0.85986 0.0
C601 C 0.79691 0.73367 0.88046 0.0
C602 C 0.86378 0.75509 0.94805 0.0
C603 C 0.81715 0.72576 0.92462 0.0
H604 H 0.85871 0.89641 0.77989 0.0
H605 H 0.79671 0.6968 0.94042 0.0
H606 H 0.95262 0.82109 0.98563 0.0
H607 H 0.93731 0.95789 0.82061 0.0
H608 H 0.76084 0.71018 0.86353 0.0
H609 H 0.74213 0.80742 0.55443 0.0
H610 H 0.87928 0.7489 0.98229 0.0
H611 H 0.6849 0.59722 0.70409 0.0
H612 H 0.77878 0.79088 0.62908 0.0
H613 H 0.60703 0.53527 0.66149 0.0
H614 H 0.99161 0.89245 0.95242 0.0
H615 H 0.66187 0.75243 0.50898 0.0
H616 H 0.59135 0.67631 0.50086 0.0
H617 H 0.98583 0.94425 0.8912 0.0
H618 H 0.55376 0.60246 0.53066 0.0
N619 N 0.7195 0.72673 0.62866 0.0
C620 C 0.74357 0.76616 0.61076 0.0
C621 C 0.67761 0.74492 0.5424 0.0
C622 C 0.65373 0.70394 0.55975 0.0
C623 C 0.72289 0.77597 0.5679 0.0
C624 C 0.67599 0.69567 0.60333 0.0
H625 H 0.5593 0.54945 0.59063 0.0
N626 N 0.6792 0.64677 0.66024 0.0
C627 C 0.61983 0.56874 0.64964 0.0
C628 C 0.65488 0.65436 0.61996 0.0
C629 C 0.6637 0.60392 0.67385 0.0
C630 C 0.59297 0.5769 0.60972 0.0
C631 C 0.61099 0.61978 0.59365 0.0
O632 O 0.77066 0.65567 0.69707 0.0
O633 O 0.79789 0.73358 0.76673 0.0
O634 O 0.85234 0.80827 0.76748 0.0
O635 O 0.81233 0.76772 0.69569 0.0
O636 O 0.76148 0.66581 0.75534 0.0
O637 O 0.78426 0.70637 0.65006 0.0
O638 O 0.77513 0.84178 0.78958 0.0
O639 O 0.74219 0.76081 0.72025 0.0
O640 O 0.69058 0.68196 0.72113 0.0
O641 O 0.72873 0.72617 0.79135 0.0
O642 O 0.78597 0.82855 0.73156 0.0
O643 O 0.75509 0.78941 0.83387 0.0
C644 C 0.79439 0.69799 0.78603 0.0
C645 C 0.77723 0.63644 0.62825 0.0
C646 C 0.80192 0.59324 0.59278 0.0
C647 C 0.81285 0.62881 0.62371 0.0
C648 C 0.7552 0.56612 0.56618 0.0
C649 C 0.73114 0.60912 0.60075 0.0
C650 C 0.72026 0.57417 0.57004 0.0
C651 C 0.85052 0.79817 0.72588 0.0
C652 C 0.78809 0.67084 0.66372 0.0
C653 C 0.58764 0.62847 0.55125 0.0
C654 C 0.60906 0.67048 0.53426 0.0
C655 C 0.74919 0.79799 0.70228 0.0
C656 C 0.76779 0.86116 0.85788 0.0
C657 C 0.73437 0.87237 0.86231 0.0
C658 C 0.74678 0.9061 0.89653 0.0
C659 C 0.79304 0.92751 0.9263 0.0
C660 C 0.81348 0.8839 0.88768 0.0
C661 C 0.82597 0.91684 0.9215 0.0
C662 C 0.69228 0.69231 0.76242 0.0
C663 C 0.75526 0.82693 0.82127 0.0
H664 H 0.84851 0.64935 0.64524 0.0
H665 H 0.74565 0.53846 0.5423 0.0
H666 H 0.7034 0.61439 0.60317 0.0
H667 H 0.68445 0.55292 0.5494 0.0
H668 H 0.69928 0.85555 0.8386 0.0
H669 H 0.80411 0.95251 0.95387 0.0
H670 H 0.83962 0.87616 0.88507 0.0
H671 H 0.86141 0.9341 0.94437 0.0
Cd672 Cd 0.97555 0.95877 0.54108 0.0
Cd673 Cd 0.07501 0.05 0.45554 0.0
C674 C 0.03435 0.91183 0.56632 0.0
N675 N 1.00133 0.91212 0.52887 0.0
C676 C 0.99707 0.85116 0.48966 0.0
C677 C 0.03131 0.85048 0.52801 0.0
C678 C 0.05013 0.88133 0.56656 0.0
C679 C 0.98176 0.8823 0.49114 0.0
H680 H 0.04794 0.93481 0.5964 0.0
H681 H 0.95417 0.88237 0.46261 0.0
C682 C 0.95957 0.97075 0.41813 0.0
C683 C 0.02605 0.10294 0.42629 0.0
C684 C 1.00741 0.13136 0.4223 0.0
C685 C 0.02358 0.16365 0.45861 0.0
C686 C 0.06042 0.16844 0.49747 0.0
C687 C 0.07955 0.13979 0.49923 0.0
N688 N 0.06057 0.10683 0.46454 0.0
H689 H 1.01172 0.07669 0.39913 0.0
H690 H 0.10815 0.14286 0.52844 0.0
C691 C 0.07971 0.97595 0.41788 0.0
N692 N 0.10275 0.0009 0.45895 0.0
C693 C 0.15118 0.96636 0.48059 0.0
C694 C 0.12746 0.9404 0.43795 0.0
C695 C 0.09154 0.9456 0.40659 0.0
C696 C 0.13781 0.99689 0.4907 0.0
H697 H 0.05299 0.98083 0.39296 0.0
H698 H 0.15604 0.01808 0.52278 0.0
C699 C 0.07608 0.03358 0.56812 0.0
C700 C 0.93796 0.90926 0.60613 0.0
N701 N 0.94849 0.00889 0.53198 0.0
C702 C 0.97294 0.04137 0.5676 0.0
C703 C 0.95742 0.0706 0.57346 0.0
C704 C 0.9154 0.06558 0.543 0.0
C705 C 0.89107 0.03262 0.50544 0.0
C706 C 0.90874 0.00429 0.50034 0.0
C707 C 0.11185 0.09152 0.38779 0.0
O708 O 0.95725 0.96119 0.45826 0.0
O709 O 0.9974 0.9991 0.41128 0.0
O710 O 0.06168 0.02562 0.5252 0.0
O711 O 0.04967 0.00854 0.59021 0.0
O712 O 0.91732 0.89444 0.56391 0.0
O713 O 0.97293 0.94848 0.61647 0.0
O714 O 0.13846 0.10073 0.42938 0.0
O715 O 0.06893 0.06271 0.37875 0.0
H716 H 1.00258 0.0424 0.59364 0.0
H717 H 0.88935 0.97703 0.47317 0.0
H718 H 0.98306 0.82851 0.45906 0.0
H719 H 0.07808 0.88294 0.59601 0.0
H720 H 0.97779 0.12552 0.39261 0.0
H721 H 0.07273 0.19249 0.52642 0.0
H722 H 0.1797 0.96349 0.50502 0.0
H723 H 0.07366 0.9274 0.37273 0.0
H724 H 0.97617 0.09438 0.60388 0.0
H725 H 0.85798 0.02746 0.48206 0.0
Cd726 Cd 0.50563 0.94097 0.05635 0.0
Cd727 Cd 0.54007 0.05959 0.9323 0.0
C728 C 0.59278 0.92161 0.11974 0.0
N729 N 0.55915 0.90743 0.07797 0.0
C730 C 0.58106 0.8514 0.06717 0.0
C731 C 0.61556 0.86434 0.11088 0.0
C732 C 0.62093 0.90078 0.13669 0.0
C733 C 0.55331 0.87288 0.05173 0.0
H734 H 0.59711 0.94859 0.14091 0.0
H735 H 0.52639 0.86115 0.01883 0.0
C736 C 0.46644 0.95188 0.93241 0.0
C737 C 0.45299 0.07876 0.86768 0.0
C738 C 0.42458 0.09935 0.85074 0.0
C739 C 0.42933 0.13518 0.87689 0.0
C740 C 0.46333 0.14783 0.92085 0.0
C741 C 0.4913 0.1266 0.93629 0.0
N742 N 0.48616 0.09264 0.90976 0.0
H743 H 0.4492 0.05223 0.84632 0.0
H744 H 0.51781 0.13802 0.96945 0.0
C745 C 0.5553 0.98021 0.89167 0.0
N746 N 0.57262 0.01177 0.9276 0.0
C747 C 0.63744 0.99822 0.9596 0.0
C748 C 0.62145 0.96676 0.92217 0.0
C749 C 0.57898 0.95689 0.88856 0.0
C750 C 0.61276 0.0206 0.96141 0.0
H751 H 0.52402 0.97424 0.86437 0.0
H752 H 0.62683 0.04651 0.98904 0.0
C753 C 0.58021 0.04961 0.05673 0.0
C754 C 0.44587 0.89118 0.10988 0.0
N755 N 0.47262 0.98884 0.05972 0.0
C756 C 0.48956 0.0174 0.09801 0.0
C757 C 0.468 0.04225 0.10264 0.0
C758 C 0.42833 0.03776 0.06771 0.0
C759 C 0.41234 0.00922 0.02792 0.0
C760 C 0.43474 0.98461 0.02486 0.0
C761 C 0.59988 0.10839 0.8794 0.0
O762 O 0.48654 0.95736 0.97535 0.0
O763 O 0.47669 0.98586 0.90889 0.0
O764 O 0.56021 0.0439 0.01372 0.0
O765 O 0.57004 0.01567 0.08043 0.0
O766 O 0.433 0.87793 0.0675 0.0
O767 O 0.4866 0.92445 0.12636 0.0
O768 O 0.61259 0.12201 0.92163 0.0
O769 O 0.55906 0.07534 0.86269 0.0
H770 H 0.51901 0.01986 0.12585 0.0
H771 H 0.42056 0.96077 -0.00471 0.0
H772 H 0.57484 0.82459 0.04444 0.0
H773 H 0.64573 0.91277 0.17064 0.0
H774 H 0.40008 0.0878 0.81658 0.0
H775 H 0.46886 0.17418 0.94372 0.0
H776 H 0.66982 0.0068 0.98656 0.0
H777 H 0.56557 0.93337 0.85881 0.0
H778 H 0.48138 0.06377 0.13395 0.0
H779 H 0.3813 0.00404 0.00056 0.0
Cd780 Cd 1.00886 0.44645 0.06259 0.0
Cd781 Cd 0.04114 0.55995 0.93198 0.0
C782 C 0.09661 0.42863 0.12437 0.0
N783 N 0.05973 0.41035 0.08523 0.0
C784 C 0.07878 0.35089 0.07887 0.0
C785 C 0.11761 0.36953 0.11894 0.0
C786 C 0.12569 0.40902 0.14159 0.0
C787 C 0.05046 0.3718 0.06262 0.0
H788 H 0.10338 0.45851 0.14284 0.0
H789 H 1.02079 0.35681 0.03196 0.0
C790 C 0.96766 0.44955 0.93641 0.0
C791 C 0.96324 0.58666 0.85985 0.0
C792 C 0.93518 0.60734 0.84169 0.0
C793 C 0.93069 0.63467 0.87038 0.0
C794 C 0.95554 0.64002 0.91747 0.0
C795 C 0.98381 0.61922 0.93419 0.0
N796 N 0.98724 0.59271 0.90552 0.0
H797 H 0.96624 0.56605 0.83703 0.0
H798 H 1.00347 0.62482 0.9702 0.0
C799 C 0.05726 0.48864 0.88072 0.0
N800 N 0.07033 0.51016 0.92264 0.0
C801 C 0.11818 0.47546 0.95514 0.0
C802 C 0.105 0.45276 0.91232 0.0
C803 C 0.07432 0.4599 0.87479 0.0
C804 C 0.10091 0.50455 0.95939 0.0
H805 H 0.03317 0.49347 0.85178 0.0
H806 H 0.11225 0.52275 0.99216 0.0
C807 C 0.08414 0.55153 0.0522 0.0
C808 C 0.9421 0.3919 0.10795 0.0
N809 N 0.98335 0.49856 0.07226 0.0
C810 C 1.0043 0.52662 0.11154 0.0
C811 C 0.98977 0.55735 0.11779 0.0
C812 C 0.95281 0.55917 0.08364 0.0
C813 C 0.93085 0.52889 0.04391 0.0
C814 C 0.94681 0.49881 0.03889 0.0
C815 C 0.10812 0.61502 0.88715 0.0
O816 O 0.98684 0.45665 0.97956 0.0
O817 O 0.97813 0.48223 0.91092 0.0
O818 O 0.05412 0.54123 0.01272 0.0
O819 O 0.07803 0.52212 0.08139 0.0
O820 O 0.93335 0.38257 0.06539 0.0
O821 O 0.98241 0.42397 0.12889 0.0
O822 O 0.11743 0.62404 0.92997 0.0
O823 O 0.06749 0.58357 0.86619 0.0
H824 H 0.03254 0.52526 0.1381 0.0
H825 H 0.92997 0.47565 0.00825 0.0
H826 H 0.0707 0.32078 0.05971 0.0
H827 H 0.15421 0.42467 0.17303 0.0
H828 H 0.91659 0.60144 0.80534 0.0
H829 H 0.95386 0.66089 0.94123 0.0
H830 H 0.14203 0.47119 0.98492 0.0
H831 H 0.06282 0.44263 0.84127 0.0
H832 H 1.00724 0.5794 0.14935 0.0
H833 H 0.90233 0.52907 0.01662 0.0
Cd834 Cd 0.48273 0.46736 0.03933 0.0
Cd835 Cd 0.57133 0.54085 0.95473 0.0
C836 C 0.54425 0.42372 0.05591 0.0
N837 N 0.50542 0.41895 0.02295 0.0
C838 C 0.49458 0.35231 0.98735 0.0
C839 C 0.53413 0.35633 0.02152 0.0
C840 C 0.55963 0.39291 0.05561 0.0
C841 C 0.48022 0.38418 0.98907 0.0
H842 H 0.56221 0.4506 0.0834 0.0
H843 H 0.44835 0.38013 0.96433 0.0
C844 C 0.44625 0.46009 0.93094 0.0
C845 C 0.5167 0.58937 0.92397 0.0
C846 C 0.50037 0.61998 0.91918 0.0
C847 C 0.51506 0.65088 0.95651 0.0
C848 C 0.54642 0.65058 -0.00207 0.0
C849 C 0.5627 0.6196 0.00093 0.0
N850 N 0.54673 0.58942 0.96435 0.0
H851 H 0.50562 0.56539 0.89542 0.0
H852 H 0.58779 0.6198 0.03224 0.0
C853 C 0.56803 0.44982 0.94297 0.0
N854 N 0.5967 0.48905 0.9704 0.0
C855 C 0.66324 0.48039 0.97944 0.0
C856 C 0.63549 0.44407 0.94573 0.0
C857 C 0.58695 0.42618 0.93032 0.0
C858 C 0.64288 0.50314 0.99117 0.0
H859 H 0.53201 0.44071 0.92566 0.0
H860 H 0.66551 0.53547 0.01117 0.0
C861 C 0.60508 0.54884 0.05833 0.0
C862 C 0.45523 0.4207 0.11214 0.0
N863 N 0.45624 0.51804 0.03208 0.0
C864 C 0.48453 0.5558 0.06166 0.0
C865 C 0.46686 0.58226 0.07073 0.0
C866 C 0.41987 0.56983 0.04833 0.0
C867 C 0.39256 0.533 0.01493 0.0
C868 C 0.41146 0.50681 0.00773 0.0
C869 C 0.59911 0.58103 0.87985 0.0
O870 O 0.43052 0.44402 0.96396 0.0
O871 O 0.48925 0.48786 0.93906 0.0
O872 O 0.62455 0.56946 0.02888 0.0
O873 O 0.56174 0.52151 0.04461 0.0
O874 O 0.43253 0.40624 0.07042 0.0
O875 O 0.49088 0.45987 0.12114 0.0
O876 O 0.61988 0.60016 0.92031 0.0
O877 O 0.56672 0.54025 0.87396 0.0
H878 H 0.51952 0.56307 0.08102 0.0
H879 H 0.38894 0.47561 0.98575 0.0
H880 H 0.47463 0.32448 0.96065 0.0
H881 H 0.59072 0.39706 0.08229 0.0
H882 H 0.47457 0.61788 0.88729 0.0
H883 H 0.55707 0.67311 0.02763 0.0
H884 H 0.70085 0.49507 0.99108 0.0
H885 H 0.56502 0.39846 0.90349 0.0
H886 H 0.48866 0.61003 0.09749 0.0
H887 H 0.35612 0.52251 -0.00241 0.0
Cd888 Cd 1.00588 0.44087 0.55569 0.0
Cd889 Cd 0.04188 0.5625 0.43445 0.0
C890 C 0.09281 0.42186 0.61938 0.0
N891 N 0.05912 0.40737 0.57767 0.0
C892 C 0.08202 0.35223 0.56667 0.0
C893 C 0.11686 0.36578 0.61016 0.0
C894 C 0.12161 0.40173 0.63615 0.0
C895 C 0.05361 0.37302 0.55141 0.0
H896 H 0.09682 0.44867 0.64053 0.0
H897 H 0.02662 0.36108 0.51856 0.0
C898 C 0.96791 0.45319 0.43199 0.0
C899 C 0.95221 0.57648 0.36909 0.0
C900 C 0.92266 0.59566 0.35151 0.0
C901 C 0.92757 0.63271 0.37595 0.0
C902 C 0.96301 0.6478 0.41912 0.0
C903 C 0.99148 0.62733 0.43559 0.0
N904 N 0.98615 0.59238 0.41053 0.0
H905 H 0.94845 0.54918 0.34889 0.0
H906 H 1.01887 0.64043 0.46812 0.0
C907 C 0.05629 0.48701 0.38716 0.0
N908 N 0.07443 0.5165 0.425 0.0
C909 C 0.13751 0.49991 0.45367 0.0
C910 C 0.11973 0.4692 0.41496 0.0
C911 C 0.07805 0.46259 0.38176 0.0
C912 C 0.1143 0.52315 0.45797 0.0
H913 H 0.02524 0.48284 0.36061 0.0
H914 H 0.12897 0.54761 0.48716 0.0
C915 C 0.08084 0.54799 0.55678 0.0
C916 C 0.94373 0.39127 0.60671 0.0
N917 N 0.97454 0.4898 0.55981 0.0
C918 C 0.99307 0.52197 0.59548 0.0
C919 C 0.97079 0.54666 0.59853 0.0
C920 C 0.92844 0.53737 0.5653 0.0
C921 C 0.91044 0.50461 0.52862 0.0
C922 C 0.93413 0.48123 0.52649 0.0
C923 C 0.1048 0.61734 0.38643 0.0
O924 O 0.98758 0.45831 0.47498 0.0
O925 O 0.97826 0.48757 0.40891 0.0
O926 O 0.05953 0.54208 0.5141 0.0
O927 O 0.07111 0.51419 0.58062 0.0
O928 O 0.93216 0.37794 0.5646 0.0
O929 O 0.98443 0.4243 0.62417 0.0
O930 O 0.11467 0.63024 0.42833 0.0
O931 O 0.06555 0.5828 0.36828 0.0
H932 H 0.02418 0.52736 0.62269 0.0
H933 H 0.91899 0.45462 0.49927 0.0
H934 H 0.0762 0.32562 0.54395 0.0
H935 H 0.14651 0.41392 0.67004 0.0
H936 H 0.89652 0.58115 0.3186 0.0
H937 H 0.97035 0.67612 0.44038 0.0
H938 H 0.17001 0.50734 0.47981 0.0
H939 H 0.06242 0.43907 0.35154 0.0
H940 H 0.98492 0.57065 0.62808 0.0
H941 H 0.87716 0.49564 0.50302 0.0
Cd942 Cd 0.50364 0.93946 0.55587 0.0
Cd943 Cd 0.5378 0.05375 0.42791 0.0
C944 C 0.58956 0.92194 0.62182 0.0
N945 N 0.55594 0.90531 0.58033 0.0
C946 C 0.57871 0.84855 0.5747 0.0
C947 C 0.61416 0.86535 0.61744 0.0
C948 C 0.61863 0.90265 0.64082 0.0
C949 C 0.55009 0.86891 0.55687 0.0
H950 H 0.59345 0.95002 0.64088 0.0
H951 H 0.52283 0.85512 0.52433 0.0
C952 C 0.46063 0.9484 0.43549 0.0
C953 C 0.44964 0.06856 0.36789 0.0
C954 C 0.42082 0.08786 0.34857 0.0
C955 C 0.42932 0.1293 0.36797 0.0
C956 C 0.46845 0.14922 0.40797 0.0
C957 C 0.49687 0.12875 0.42607 0.0
N958 N 0.48718 0.08892 0.4059 0.0
H959 H 0.44257 0.03749 0.35148 0.0
H960 H 0.52724 0.14534 0.45587 0.0
C961 C 0.5438 0.97707 0.37636 0.0
N962 N 0.5634 0.003 0.41686 0.0
C963 C 0.61434 0.97117 0.44514 0.0
C964 C 0.59361 0.9429 0.40416 0.0
C965 C 0.55836 0.94669 0.36932 0.0
C966 C 0.59863 0.00117 0.45076 0.0
H967 H 0.51661 0.97981 0.34954 0.0
H968 H 0.61448 0.02286 0.48233 0.0
C969 C 0.57846 0.04837 0.55222 0.0
C970 C 0.4371 0.8854 0.60134 0.0
N971 N 0.47471 0.98903 0.56548 0.0
C972 C 0.49034 0.01248 0.60687 0.0
C973 C 0.47376 0.04144 0.61335 0.0
C974 C 0.43989 0.04602 0.57721 0.0
C975 C 0.42368 0.02066 0.53503 0.0
C976 C 0.44144 0.99222 0.52999 0.0
C977 C 0.60414 0.10974 0.38295 0.0
O978 O 0.48998 0.95791 0.47524 0.0
O979 O 0.46799 0.9783 0.40682 0.0
O980 O 0.55766 0.03969 0.50948 0.0
O981 O 0.56863 0.01678 0.57895 0.0
O982 O 0.42708 0.87673 0.55831 0.0
O983 O 0.47833 0.91589 0.62221 0.0
O984 O 0.61308 0.11844 0.42571 0.0
O985 O 0.56394 0.07763 0.36187 0.0
H986 H 0.51633 0.00921 0.6349 0.0
H987 H 0.42819 0.97237 0.49772 0.0
H988 H 0.57334 0.82021 0.55476 0.0
H989 H 0.64406 0.91675 0.67429 0.0
H990 H 0.39277 0.06971 0.31781 0.0
H991 H 0.47781 0.18062 0.42548 0.0
H992 H 0.64153 0.96935 0.47294 0.0
H993 H 0.54205 0.92624 0.33682 0.0
H994 H 0.48818 0.06073 0.64628 0.0
H995 H 0.3971 0.02226 0.50627 0.0
C996 C 0.18815 0.13722 0.31355 0.0
C997 C 0.16854 0.16123 0.28466 0.0
H998 H 0.18634 0.09781 0.37091 0.0
C999 C 0.12711 0.15813 0.28643 0.0
H1000 H 0.22036 0.13946 0.31292 0.0
C1001 C 0.10716 0.13339 0.31922 0.0
C1002 C 0.12964 0.11323 0.35085 0.0
H1003 H 0.11223 0.17724 0.26493 0.0
H1004 H 0.07601 0.13239 0.32181 0.0
C1005 C 0.16932 0.11405 0.34715 0.0
C1006 C 0.93636 0.19205 0.39707 0.0
C1007 C 0.89988 0.15686 0.4111 0.0
H1008 H 1.00926 0.22582 0.40558 0.0
C1009 C 0.911 0.14175 0.45421 0.0
H1010 H 0.92976 0.20505 0.36409 0.0
C1011 C 0.95742 0.15427 0.47781 0.0
C1012 C 0.99249 0.18149 0.45853 0.0
H1013 H 0.88379 0.11575 0.46645 0.0
H1014 H 0.96494 0.13527 0.50545 0.0
C1015 C 0.98263 0.20488 0.4213 0.0
C1016 C 0.88992 0.91035 0.30044 0.0
C1017 C 0.8503 0.87614 0.30979 0.0
H1018 H 0.95693 0.96811 0.32848 0.0
C1019 C 0.84219 0.88065 0.35081 0.0
H1020 H 0.89581 0.90907 0.26821 0.0
C1021 C 0.87666 0.91407 0.38514 0.0
C1022 C 0.91937 0.94409 0.37854 0.0
H1023 H 0.81088 0.85612 0.35824 0.0
H1024 H 0.87103 0.91413 0.4179 0.0
C1025 C 0.92467 0.94422 0.33492 0.0
C1026 C 0.10804 0.8495 0.3631 0.0
C1027 C 0.14813 0.87302 0.35001 0.0
H1028 H 0.07031 0.85253 0.40413 0.0
C1029 C 0.18756 0.9105 0.37786 0.0
H1030 H 0.07805 0.81951 0.3426 0.0
C1031 C 0.18383 0.92908 0.41445 0.0
C1032 C 0.14061 0.91004 0.42231 0.0
H1033 H 0.21938 0.92786 0.36859 0.0
H1034 H 0.21224 0.96147 0.43192 0.0
C1035 C 0.10435 0.86775 0.39942 0.0
C1036 C 0.13579 0.856 0.52711 0.0
C1037 C 0.14566 0.84136 0.5707 0.0
H1038 H 0.08529 0.86812 0.47756 0.0
C1039 C 0.10805 0.80889 0.58532 0.0
H1040 H 0.16374 0.8796 0.51417 0.0
C1041 C 0.06298 0.80086 0.56241 0.0
C1042 C 0.0561 0.82614 0.52594 0.0
H1043 H 0.11361 0.79573 0.61835 0.0
H1044 H 0.03636 0.78316 0.57902 0.0
C1045 C 0.09061 0.84809 0.50478 0.0
C1046 C 0.19215 0.1049 0.6498 0.0
C1047 C 0.18199 0.1338 0.66902 0.0
H1048 H 0.1652 0.04955 0.5996 0.0
C1049 C 0.14045 0.13494 0.64829 0.0
H1050 H 0.22547 0.10574 0.66424 0.0
C1051 C 0.10796 0.10553 0.61012 0.0
C1052 C 0.11652 0.0744 0.5926 0.0
H1053 H 0.1335 0.15923 0.66087 0.0
H1054 H 0.0751 0.10555 0.59564 0.0
C1055 C 0.15892 0.07446 0.61201 0.0
C1056 C 0.91976 0.15051 0.61273 0.0
C1057 C 0.88579 0.12089 0.63207 0.0
H1058 H 0.95475 0.1564 0.56532 0.0
C1059 C 0.85102 0.07844 0.60934 0.0
H1060 H 0.94557 0.18419 0.62926 0.0
C1061 C 0.85524 0.06261 0.57139 0.0
C1062 C 0.89465 0.08924 0.55731 0.0
H1063 H 0.82342 0.05618 0.62339 0.0
H1064 H 0.83201 0.02746 0.55799 0.0
C1065 C 0.92386 0.13493 0.57492 0.0
C1066 C 0.88879 0.80725 0.66799 0.0
C1067 C 0.88813 0.82635 0.70675 0.0
H1068 H 0.90253 0.81895 0.60387 0.0
C1069 C 0.91247 0.87343 0.71652 0.0
H1070 H 0.87173 0.77087 0.66052 0.0
C1071 C 0.93074 0.90098 0.6843 0.0
C1072 C 0.92416 0.88126 0.64221 0.0
H1073 H 0.9137 0.88907 0.74647 0.0
H1074 H 0.94697 0.9374 0.6909 0.0
C1075 C 0.90558 0.83451 0.63524 0.0
C1076 C 0.35632 0.06361 0.12125 0.0
C1077 C 0.34004 0.08741 0.08834 0.0
H1078 H 0.39845 0.03106 0.14086 0.0
C1079 C 0.35521 0.09743 0.04938 0.0
H1080 H 0.34438 0.05459 0.15105 0.0
C1081 C 0.38496 0.08253 0.04283 0.0
C1082 C 0.40042 0.0578 0.07544 0.0
H1083 H 0.34297 0.11566 0.02345 0.0
H1084 H 0.39542 0.08984 0.01212 0.0
C1085 C 0.3867 0.04964 0.11515 0.0
C1086 C 0.88221 0.36619 0.1993 0.0
C1087 C 0.83956 0.32755 0.17897 0.0
H1088 H 0.94809 0.41626 0.19319 0.0
C1089 C 0.82937 0.31125 0.13387 0.0
H1090 H 0.88991 0.38082 0.23307 0.0
C1091 C 0.86285 0.33136 0.11079 0.0
C1092 C 0.9065 0.36904 0.13198 0.0
H1093 H 0.79583 0.28259 0.1167 0.0
H1094 H 0.85453 0.31751 0.07645 0.0
C1095 C 0.91541 0.38655 0.17625 0.0
C1096 C 0.65292 0.77088 0.13006 0.0
C1097 C 0.69285 0.78867 0.16893 0.0
H1098 H 0.59821 0.7787 0.08184 0.0
C1099 C 0.70882 0.83274 0.18747 0.0
H1100 H 0.63853 0.73662 0.11543 0.0
C1101 C 0.68508 0.85755 0.16831 0.0
C1102 C 0.64398 0.83932 0.12978 0.0
H1103 H 0.73832 0.84724 0.2184 0.0
H1104 H 0.699 0.89089 0.1847 0.0
C1105 C 0.62938 0.79556 0.11071 0.0
C1106 C 0.20513 0.63494 0.11678 0.0
C1107 C 0.19971 0.67322 0.11943 0.0
H1108 H 0.17146 0.56514 0.09226 0.0
C1109 C 0.16112 0.67449 0.0878 0.0
H1110 H 0.23543 0.63344 0.13904 0.0
C1111 C 0.12456 0.63527 0.06038 0.0
C1112 C 0.12699 0.59498 0.06423 0.0
H1113 H 0.15703 0.70412 0.08709 0.0
H1114 H 0.09266 0.63524 0.04027 0.0
C1115 C 0.16869 0.59585 0.08979 0.0
C1116 C 0.37829 0.86536 0.83614 0.0
C1117 C 0.36612 0.8252 0.85727 0.0
H1118 H 0.41732 0.9364 0.84351 0.0
C1119 C 0.38625 0.82569 0.90431 0.0
H1120 H 0.36253 0.86525 0.79977 0.0
C1121 C 0.41901 0.86733 0.93013 0.0
C1122 C 0.43048 0.90772 0.90853 0.0
H1123 H 0.37647 0.7945 0.92075 0.0
H1124 H 0.43533 0.86798 0.96642 0.0
C1125 C 0.40949 0.90613 0.86144 0.0
C1126 C 0.15018 0.3896 0.86193 0.0
C1127 C 0.14108 0.35201 0.88782 0.0
H1128 H 0.14591 0.45087 0.84942 0.0
C1129 C 0.12516 0.35098 0.9253 0.0
H1130 H 0.16256 0.39183 0.83299 0.0
C1131 C 0.11568 0.38486 0.93468 0.0
C1132 C 0.12157 0.42056 0.90666 0.0
H1133 H 0.11864 0.32314 0.94668 0.0
H1134 H 0.10158 0.38192 0.96251 0.0
C1135 C 0.14023 0.42327 0.87106 0.0
C1136 C 0.64037 0.13211 0.77481 0.0
C1137 C 0.68445 0.17028 0.79086 0.0
H1138 H 0.57965 0.08237 0.79026 0.0
C1139 C 0.70282 0.18614 0.83754 0.0
H1140 H 0.62538 0.11958 0.73888 0.0
C1141 C 0.67601 0.16557 0.86708 0.0
C1142 C 0.63065 0.12882 0.85024 0.0
H1143 H 0.73634 0.21624 0.8505 0.0
H1144 H 0.69004 0.17945 0.90249 0.0
C1145 C 0.614 0.11126 0.80423 0.0
C1146 C 0.86859 0.69555 0.79193 0.0
C1147 C 0.83517 0.69071 0.81245 0.0
H1148 H 0.92348 0.68118 0.79274 0.0
C1149 C 0.83473 0.66827 0.85279 0.0
H1150 H 0.86893 0.71059 0.75974 0.0
C1151 C 0.86724 0.65285 0.87281 0.0
C1152 C 0.89952 0.65617 0.8515 0.0
H1153 H 0.80763 0.66044 0.8679 0.0
H1154 H 0.86514 0.6357 0.9037 0.0
C1155 C 0.89966 0.67806 0.81067 0.0
C1156 C 0.23076 0.36342 0.17378 0.0
C1157 C 0.21641 0.31671 0.17572 0.0
H1158 H 0.21262 0.41585 0.15577 0.0
C1159 C 0.16824 0.28648 0.15629 0.0
H1160 H 0.26719 0.38835 0.18801 0.0
C1161 C 0.13609 0.30288 0.13635 0.0
C1162 C 0.15087 0.35001 0.1366 0.0
H1163 H 0.15521 0.25037 0.1573 0.0
H1164 H 0.09944 0.27862 0.12224 0.0
C1165 C 0.199 0.37956 0.15532 0.0
C1166 C 0.21739 0.69753 0.85623 0.0
C1167 C 0.20794 0.67763 0.81298 0.0
H1168 H 0.19231 0.69442 0.91316 0.0
C1169 C 0.1677 0.63593 0.79628 0.0
H1170 H 0.24937 0.72869 0.87087 0.0
C1171 C 0.13554 0.61609 0.8205 0.0
C1172 C 0.14327 0.63713 0.86252 0.0
H1173 H 0.161 0.61869 0.76427 0.0
H1174 H 0.1046 0.58396 0.80629 0.0
C1175 C 0.18495 0.67778 0.88056 0.0
C1176 C 0.39327 0.22928 0.85674 0.0
C1177 C 0.35207 0.21075 0.8192 0.0
H1178 H 0.44909 0.22204 0.90361 0.0
C1179 C 0.33482 0.16589 0.8019 0.0
H1180 H 0.40859 0.26407 0.87034 0.0
C1181 C 0.35863 0.14108 0.82097 0.0
C1182 C 0.40093 0.16013 0.85811 0.0
H1183 H 0.30421 0.15072 0.772 0.0
H1184 H 0.34391 0.10708 0.80571 0.0
C1185 C 0.41685 0.20466 0.87595 0.0
C1186 C 0.86127 0.33426 0.90416 0.0
C1187 C 0.86077 0.32641 0.85981 0.0
H1188 H 0.89756 0.38098 0.96499 0.0
C1189 C 0.89881 0.35512 0.84489 0.0
H1190 H 0.83198 0.31209 0.91607 0.0
C1191 C 0.93508 0.3936 0.87179 0.0
C1192 C 0.93409 0.40411 0.91436 0.0
H1193 H 0.89938 0.34972 0.81112 0.0
H1194 H 0.96265 0.41648 0.85801 0.0
C1195 C 0.89842 0.37329 0.93182 0.0
C1196 C 0.72944 0.9657 0.91653 0.0
C1197 C 0.71301 0.92045 0.9014 0.0
H1198 H 0.71412 0.01456 0.93641 0.0
C1199 C 0.66503 0.88981 0.89276 0.0
H1200 H 0.76556 0.99095 0.92232 0.0
C1201 C 0.63483 0.90425 0.89941 0.0
C1202 C 0.65211 0.94941 0.91563 0.0
H1203 H 0.65089 0.85457 0.88163 0.0
H1204 H 0.59823 0.87996 0.89263 0.0
C1205 C 0.69977 0.97959 0.92427 0.0
C1206 C 0.96138 0.67064 0.11438 0.0
C1207 C 0.91445 0.65978 0.10403 0.0
H1208 H 1.00994 0.64807 0.11554 0.0
C1209 C 0.87959 0.61527 0.08601 0.0
H1210 H 0.98912 0.70452 0.12835 0.0
C1211 C 0.89164 0.5826 0.07838 0.0
C1212 C 0.93881 0.59358 0.08944 0.0
H1213 H 0.84312 0.60597 0.07721 0.0
H1214 H 0.86412 0.5486 0.06457 0.0
C1215 C 0.97335 0.63812 0.1073 0.0
C1216 C 0.40493 0.86887 0.21453 0.0
C1217 C 0.36088 0.83053 0.19899 0.0
H1218 H 0.46563 0.91822 0.19864 0.0
C1219 C 0.34321 0.81322 0.15273 0.0
H1220 H 0.41943 0.8826 0.25007 0.0
C1221 C 0.37027 0.83298 0.12315 0.0
C1222 C 0.41527 0.87045 0.1394 0.0
H1223 H 0.30968 0.78307 0.14003 0.0
H1224 H 0.35652 0.81823 0.08808 0.0
C1225 C 0.43155 0.88887 0.18507 0.0
C1226 C 0.66479 0.17547 0.08219 0.0
C1227 C 0.67809 0.17834 0.13011 0.0
H1228 H 0.62179 0.13097 0.02009 0.0
C1229 C 0.6606 0.13958 0.1528 0.0
H1230 H 0.67942 0.20532 0.0645 0.0
C1231 C 0.62952 0.0981 0.12846 0.0
C1232 C 0.61502 0.09434 0.08048 0.0
H1233 H 0.67225 0.14125 0.1898 0.0
H1234 H 0.61688 0.06899 0.14767 0.0
C1235 C 0.63258 0.13326 0.05717 0.0
C1236 C 0.64767 0.6806 0.81523 0.0
C1237 C 0.65514 0.66201 0.78131 0.0
H1238 H 0.62392 0.66871 0.87361 0.0
C1239 C 0.63561 0.61481 0.77446 0.0
H1240 H 0.66188 0.71688 0.82078 0.0
C1241 C 0.61355 0.58706 0.80466 0.0
C1242 C 0.61161 0.60674 0.84192 0.0
H1243 H 0.6412 0.59963 0.74901 0.0
H1244 H 0.60183 0.55109 0.80124 0.0
C1245 C 0.62636 0.65318 0.8456 0.0
C1246 C 0.40808 0.64324 0.95295 0.0
C1247 C 0.39737 0.65551 0.90837 0.0
H1248 H 0.46101 0.63803 0.00667 0.0
C1249 C 0.43421 0.68623 0.89181 0.0
H1250 H 0.38067 0.62076 0.96713 0.0
C1251 C 0.47965 0.69568 0.91501 0.0
C1252 C 0.48787 0.67382 0.95412 0.0
H1253 H 0.42766 0.69713 0.8577 0.0
H1254 H 0.50581 0.71202 0.89765 0.0
C1255 C 0.45393 0.65375 0.97619 0.0
C1256 C 0.40269 0.40891 0.81085 0.0
C1257 C 0.35552 0.38133 0.80712 0.0
H1258 H 0.46984 0.45715 0.85452 0.0
C1259 C 0.3372 0.39 0.83794 0.0
H1260 H 0.41738 0.40326 0.78715 0.0
C1261 C 0.36693 0.42024 0.87647 0.0
C1262 C 0.4152 0.44242 0.8842 0.0
H1263 H 0.30056 0.36982 0.83494 0.0
H1264 H 0.35252 0.42286 0.90225 0.0
C1265 C 0.43269 0.43963 0.84952 0.0
C1266 C 0.67274 0.3844 0.88489 0.0
C1267 C 0.66171 0.39895 0.84115 0.0
H1268 H 0.6756 0.39013 0.95451 0.0
C1269 C 0.65415 0.43625 0.83584 0.0
H1270 H 0.67947 0.356 0.8898 0.0
C1271 C 0.65151 0.45501 0.87274 0.0
C1272 C 0.65609 0.43622 0.9148 0.0
H1273 H 0.64693 0.44861 0.80255 0.0
H1274 H 0.64138 0.48117 0.8673 0.0
C1275 C 0.67015 0.40338 0.92182 0.0
C1276 C 0.62748 0.33903 0.02505 0.0
C1277 C 0.6364 0.3312 0.07122 0.0
H1278 H 0.58023 0.34842 0.96754 0.0
C1279 C 0.59851 0.30732 0.08848 0.0
H1280 H 0.65591 0.35473 0.01093 0.0
C1281 C 0.55528 0.303 0.06376 0.0
C1282 C 0.55115 0.32402 0.02306 0.0
H1283 H 0.60375 0.29945 0.12382 0.0
H1284 H 0.52946 0.29323 0.0813 0.0
C1285 C 0.58415 0.33477 0.00036 0.0
C1286 C 0.64274 0.59336 0.17872 0.0
C1287 C 0.69083 0.61823 0.18544 0.0
H1288 H 0.57607 0.54881 0.13169 0.0
C1289 C 0.71006 0.60706 0.1574 0.0
H1290 H 0.6272 0.60087 0.20019 0.0
C1291 C 0.68092 0.57813 0.11787 0.0
C1292 C 0.63253 0.56006 0.1066 0.0
H1293 H 0.74731 0.62509 0.16282 0.0
H1294 H 0.69635 0.57438 0.09362 0.0
C1295 C 0.61339 0.5638 0.13922 0.0
C1296 C 0.35885 0.57748 0.12343 0.0
C1297 C 0.3886 0.62287 0.14032 0.0
H1298 H 0.3442 0.52469 0.07685 0.0
C1299 C 0.41755 0.65313 0.11638 0.0
H1300 H 0.33526 0.55436 0.14126 0.0
C1301 C 0.42252 0.63664 0.07971 0.0
C1302 C 0.39844 0.58981 0.06715 0.0
H1303 H 0.43951 0.6887 0.12872 0.0
H1304 H 0.44962 0.6598 0.06571 0.0
C1305 C 0.3634 0.56091 0.08624 0.0
C1306 C 0.42052 0.38059 0.21824 0.0
C1307 C 0.3917 0.3341 0.20431 0.0
H1308 H 0.46393 0.44574 0.19917 0.0
C1309 C 0.39256 0.31621 0.16501 0.0
H1310 H 0.42158 0.39516 0.24881 0.0
C1311 C 0.41611 0.34479 0.13669 0.0
C1312 C 0.44008 0.39174 0.14759 0.0
H1313 H 0.3719 0.2803 0.15404 0.0
H1314 H 0.41328 0.33023 0.10483 0.0
C1315 C 0.44474 0.40952 0.18984 0.0
C1316 C 0.87843 0.61334 0.57944 0.0
C1317 C 0.8376 0.58156 0.5894 0.0
H1318 H 0.93969 0.62438 0.56351 0.0
C1319 C 0.82852 0.53651 0.59254 0.0
H1320 H 0.88604 0.6482 0.57624 0.0
C1321 C 0.85825 0.52301 0.58424 0.0
C1322 C 0.89842 0.55413 0.57368 0.0
H1323 H 0.79781 0.51153 0.60084 0.0
H1324 H 0.8501 0.48797 0.58586 0.0
C1325 C 0.90884 0.59972 0.57183 0.0
C1326 C 0.38075 0.86284 0.69521 0.0
C1327 C 0.33723 0.82492 0.67571 0.0
H1328 H 0.44636 0.9112 0.68728 0.0
C1329 C 0.32511 0.80829 0.63019 0.0
H1330 H 0.38988 0.87779 0.72929 0.0
C1331 C 0.35758 0.82719 0.60588 0.0
C1332 C 0.40215 0.86397 0.62628 0.0
H1333 H 0.29085 0.78025 0.61368 0.0
H1334 H 0.34783 0.81306 0.57128 0.0
C1335 C 0.41293 0.88203 0.67092 0.0
C1336 C 0.15714 0.27464 0.62927 0.0
C1337 C 0.19797 0.29376 0.66721 0.0
H1338 H 0.10046 0.28032 0.5822 0.0
C1339 C 0.21341 0.33788 0.6851 0.0
H1340 H 0.14294 0.24013 0.61546 0.0
C1341 C 0.18839 0.36153 0.66617 0.0
C1342 C 0.14646 0.34197 0.62864 0.0
H1343 H 0.24338 0.35318 0.71555 0.0
H1344 H 0.20194 0.39501 0.682 0.0
C1345 C 0.13229 0.29814 0.61019 0.0
C1346 C 0.6869 0.16176 0.58445 0.0
C1347 C 0.68268 0.17456 0.62443 0.0
H1348 H 0.65497 0.11043 0.52813 0.0
C1349 C 0.64154 0.14923 0.63575 0.0
H1350 H 0.71883 0.18097 0.57565 0.0
C1351 C 0.60652 0.10941 0.61003 0.0
C1352 C 0.61172 0.09449 0.57212 0.0
H1353 H 0.63753 0.15796 0.6665 0.0
H1354 H 0.57645 0.08907 0.62139 0.0
C1355 C 0.65082 0.12173 0.55769 0.0
C1356 C 0.88712 0.32687 0.40438 0.0
C1357 C 0.86694 0.32593 0.35728 0.0
H1358 H 0.93626 0.3695 0.46623 0.0
C1359 C 0.87949 0.36592 0.33577 0.0
H1360 H 0.87708 0.29589 0.4212 0.0
C1361 C 0.91139 0.40693 0.3607 0.0
C1362 C 0.93219 0.40889 0.40789 0.0
H1363 H 0.86343 0.36552 0.29945 0.0
H1364 H 0.91969 0.4371 0.34257 0.0
C1365 C 0.9202 0.36864 0.42984 0.0
C1366 C 0.66465 0.88423 0.40409 0.0
C1367 C 0.62911 0.84065 0.38398 0.0
H1368 H 0.68142 0.95087 0.42703 0.0
C1369 C 0.58252 0.83128 0.37104 0.0
H1370 H 0.70086 0.89222 0.41473 0.0
C1371 C 0.57145 0.86444 0.3779 0.0
C1372 C 0.60664 0.90804 0.398 0.0
H1373 H 0.55442 0.79808 0.35533 0.0
H1374 H 0.53504 0.85569 0.36784 0.0
C1375 C 0.65348 0.91757 0.41146 0.0
C1376 C 0.19473 0.70405 0.33377 0.0
C1377 C 0.18842 0.67676 0.29681 0.0
H1378 H 0.17263 0.70695 0.39142 0.0
C1379 C 0.15757 0.63034 0.29238 0.0
H1380 H 0.21704 0.7404 0.33692 0.0
C1381 C 0.13349 0.61126 0.32396 0.0
C1382 C 0.13744 0.63852 0.35928 0.0
H1383 H 0.14993 0.60899 0.26309 0.0
H1384 H 0.10978 0.5751 0.31927 0.0
C1385 C 0.16928 0.68507 0.36484 0.0
C1386 C 0.32614 0.14428 0.2903 0.0
C1387 C 0.33502 0.18735 0.30497 0.0
H1388 H 0.3454 0.09363 0.29546 0.0
C1389 C 0.37708 0.21255 0.34048 0.0
H1390 H 0.29479 0.12259 0.26328 0.0
C1391 C 0.40737 0.19431 0.36138 0.0
C1392 C 0.39775 0.15062 0.34647 0.0
H1393 H 0.38674 0.2461 0.35258 0.0
H1394 H 0.43842 0.2151 0.38906 0.0
C1395 C 0.35641 0.12687 0.30973 0.0
C1396 C 0.7251 0.85841 0.6834 0.0
C1397 C 0.71249 0.81214 0.67781 0.0
H1398 H 0.7062 0.91053 0.67026 0.0
C1399 C 0.66604 0.78274 0.65122 0.0
H1400 H 0.75997 0.88299 0.70352 0.0
C1401 C 0.63431 0.79949 0.63059 0.0
C1402 C 0.64734 0.84592 0.63732 0.0
H1403 H 0.65394 0.7469 0.64658 0.0
H1404 H 0.59917 0.77571 0.61033 0.0
C1405 C 0.69355 0.87464 0.66426 0.0
C1406 C 0.71559 0.19249 0.35598 0.0
C1407 C 0.70527 0.17624 0.31082 0.0
H1408 H 0.69086 0.18544 0.41387 0.0
C1409 C 0.66313 0.137 0.2909 0.0
H1410 H 0.7488 0.22172 0.37276 0.0
C1411 C 0.63044 0.11592 0.31438 0.0
C1412 C 0.63937 0.13332 0.35868 0.0
H1413 H 0.65547 0.12224 0.25726 0.0
H1414 H 0.59816 0.0857 0.29773 0.0
C1415 C 0.68258 0.17163 0.37952 0.0
C1416 C 0.84274 0.67005 0.29201 0.0
C1417 C 0.84662 0.70498 0.31841 0.0
H1418 H 0.86503 0.62211 0.28698 0.0
C1419 C 0.87616 0.71484 0.36391 0.0
H1420 H 0.82239 0.66276 0.25608 0.0
C1421 C 0.89947 0.68996 0.38296 0.0
C1422 C 0.89757 0.65603 0.3564 0.0
H1423 H 0.88335 0.74351 0.38463 0.0
H1424 H 0.92029 0.69919 0.41851 0.0
C1425 C 0.86797 0.64656 0.31027 0.0
C1426 C 0.37876 0.82516 0.40247 0.0
C1427 C 0.34172 0.82778 0.36947 0.0
H1428 H 0.44734 0.86305 0.45042 0.0
C1429 C 0.33863 0.86766 0.37023 0.0
H1430 H 0.38065 0.79423 0.40495 0.0
C1431 C 0.37623 0.90665 0.39629 0.0
C1432 C 0.4167 0.90586 0.423 0.0
H1433 H 0.30945 0.87037 0.34702 0.0
H1434 H 0.37527 0.93826 0.39232 0.0
C1435 C 0.41657 0.86436 0.42904 0.0
C1436 C 0.17504 0.42158 0.3582 0.0
C1437 C 0.20466 0.41387 0.39632 0.0
H1438 H 0.12617 0.44609 0.33399 0.0
C1439 C 0.20277 0.42017 0.44016 0.0
H1440 H 0.17603 0.41739 0.32405 0.0
C1441 C 0.17362 0.4359 0.44601 0.0
C1442 C 0.14607 0.44659 0.4082 0.0
H1443 H 0.2249 0.41404 0.47017 0.0
H1444 H 0.17355 0.4406 0.48042 0.0
C1445 C 0.14633 0.43801 0.36406 0.0
C1446 C 0.40294 0.1373 0.55572 0.0
C1447 C 0.40119 0.14599 0.599 0.0
H1448 H 0.41654 0.09959 0.51482 0.0
C1449 C 0.40753 0.11835 0.63357 0.0
H1450 H 0.39749 0.1575 0.52807 0.0
C1451 C 0.41828 0.08486 0.62595 0.0
C1452 C 0.42288 0.07796 0.5835 0.0
H1453 H 0.40643 0.12403 0.66728 0.0
H1454 H 0.42396 0.06498 0.65379 0.0
C1455 C 0.41355 0.10374 0.54803 0.0
C1456 C 0.84017 0.3118 0.64756 0.0
C1457 C 0.85682 0.32934 0.69358 0.0
H1458 H 0.85497 0.31718 0.58365 0.0
C1459 C 0.89974 0.369 0.70909 0.0
H1460 H 0.80767 0.28054 0.63505 0.0
C1461 C 0.92664 0.38973 0.68008 0.0
C1462 C 0.91189 0.37068 0.63497 0.0
H1463 H 0.91361 0.38304 0.74441 0.0
H1464 H 0.96003 0.41986 0.69379 0.0
C1465 C 0.86758 0.33233 0.6184 0.0
C1466 C 0.1668 0.63666 0.65212 0.0
C1467 C 0.17793 0.67639 0.63026 0.0
H1468 H 0.12941 0.56545 0.64594 0.0
C1469 C 0.1583 0.67476 0.58294 0.0
H1470 H 0.18222 0.63758 0.68868 0.0
C1471 C 0.12679 0.63257 0.5577 0.0
C1472 C 0.11613 0.59266 0.5801 0.0
H1473 H 0.16743 0.70556 0.56584 0.0
H1474 H 0.1107 0.63112 0.52123 0.0
C1475 C 0.13678 0.59531 0.62741 0.0
loop_
_geom_bond_atom_site_label_1
_geom_bond_atom_site_label_2
_geom_bond_distance
_geom_bond_site_symmetry_2
_ccdc_geom_bond_type
Tb0 N31 2.660 . S
Tb0 N38 2.600 . S
Tb0 O44 2.546 . S
Tb0 O45 2.610 . S
Tb0 O47 2.320 . S
Tb0 O48 2.552 . S
Tb0 O49 2.413 . S
Tb0 O51 2.362 . S
Tb0 O52 2.421 . S
Tb0 C64 2.833 . S
C1 C4 1.432 . S
C1 C5 1.414 . S
C1 N8 1.359 . S
C2 C4 1.417 . S
C2 C6 1.432 . S
C2 C14 1.410 . S
C3 C5 1.444 . S
C3 C6 1.317 . S
C3 H26 0.929 . S
C4 C1 1.432 . S
C4 C2 1.417 . S
C4 N12 1.360 . S
C5 C1 1.414 . S
C5 C3 1.444 . S
C5 C10 1.385 . S
C6 C2 1.432 . S
C6 C3 1.317 . S
C6 H18 0.930 . S
C7 C9 1.392 . S
C7 C10 1.370 . S
C7 H19 0.931 . S
N8 C1 1.359 . S
N8 C9 1.327 . S
N8 Tb11 2.600 . S
C9 C7 1.392 . S
C9 N8 1.327 . S
C9 H16 0.930 . S
C10 C5 1.385 . S
C10 C7 1.370 . S
C10 H29 0.930 . S
Tb11 N8 2.600 . S
Tb11 N12 2.660 . S
Tb11 O45 2.362 . S
Tb11 O46 2.421 . S
Tb11 O50 2.546 . S
Tb11 O51 2.610 . S
Tb11 O53 2.320 . S
Tb11 O54 2.552 . S
Tb11 O55 2.413 . S
Tb11 C75 2.833 . S
N12 C4 1.360 . S
N12 Tb11 2.660 . S
N12 C13 1.305 . S
C13 N12 1.305 . S
C13 C15 1.407 . S
C13 H20 0.930 . S
C14 C2 1.410 . S
C14 C15 1.345 . S
C14 H22 0.930 . S
C15 C13 1.407 . S
C15 C14 1.345 . S
C15 H17 0.930 . S
H16 C9 0.930 . S
H17 C15 0.930 . S
H18 C6 0.930 . S
H19 C7 0.931 . S
H20 C13 0.930 . S
H21 C35 0.930 . S
H22 C14 0.930 . S
H23 C41 0.930 . S
H24 C32 0.930 . S
H25 C39 0.931 . S
H26 C3 0.929 . S
H27 C33 0.930 . S
H28 C66 0.930 . S
H29 C10 0.930 . S
H30 C65 0.929 . S
N31 Tb0 2.660 . S
N31 C32 1.305 . S
N31 C36 1.360 . S
C32 H24 0.930 . S
C32 N31 1.305 . S
C32 C35 1.407 . S
C33 H27 0.930 . S
C33 C34 1.410 . S
C33 C35 1.345 . S
C34 C33 1.410 . S
C34 C36 1.417 . S
C34 C66 1.432 . S
C35 H21 0.930 . S
C35 C32 1.407 . S
C35 C33 1.345 . S
C36 N31 1.360 . S
C36 C34 1.417 . S
C36 C40 1.432 . S
H37 C42 0.930 . S
N38 Tb0 2.600 . S
N38 C40 1.359 . S
N38 C41 1.327 . S
C39 H25 0.931 . S
C39 C41 1.392 . S
C39 C42 1.370 . S
C40 C36 1.432 . S
C40 N38 1.359 . S
C40 C43 1.414 . S
C41 H23 0.930 . S
C41 N38 1.327 . S
C41 C39 1.392 . S
C42 H37 0.930 . S
C42 C39 1.370 . S
C42 C43 1.385 . S
C43 C40 1.414 . S
C43 C42 1.385 . S
C43 C65 1.444 . S
O44 Tb0 2.546 . S
O44 C64 1.251 . S
O45 Tb0 2.610 . S
O45 Tb11 2.362 . S
O45 C56 1.283 . S
O46 Tb11 2.421 . S
O46 C63 1.262 . S
O47 Tb0 2.320 . S
O47 C63 1.260 . S
O48 Tb0 2.552 . S
O48 C56 1.243 . S
O49 Tb0 2.413 . S
O49 C64 1.256 . S
O50 Tb11 2.546 . S
O50 C75 1.251 . S
O51 Tb0 2.362 . S
O51 Tb11 2.610 . S
O51 C67 1.283 . S
O52 Tb0 2.421 . S
O52 C74 1.262 . S
O53 Tb11 2.320 . S
O53 C74 1.260 . S
O54 Tb11 2.552 . S
O54 C67 1.243 . S
O55 Tb11 2.413 . S
O55 C75 1.256 . S
C56 O45 1.283 . S
C56 O48 1.243 . S
C57 C59 1.382 . S
C57 C61 1.393 . S
C57 C64 1.500 . S
C58 C59 1.400 . S
C58 C60 1.384 . S
C59 C57 1.382 . S
C59 C58 1.400 . S
C59 H76 0.930 . S
C60 C58 1.384 . S
C60 C62 1.392 . S
C60 H77 0.931 . S
C61 C57 1.393 . S
C61 C62 1.401 . S
C61 H78 0.930 . S
C62 C60 1.392 . S
C62 C61 1.401 . S
C62 H79 0.930 . S
C63 O46 1.262 . S
C63 O47 1.260 . S
C64 Tb0 2.833 . S
C64 O44 1.251 . S
C64 O49 1.256 . S
C64 C57 1.500 . S
C65 H30 0.929 . S
C65 C43 1.444 . S
C65 C66 1.317 . S
C66 H28 0.930 . S
C66 C34 1.432 . S
C66 C65 1.317 . S
C67 O51 1.283 . S
C67 O54 1.243 . S
C68 C69 1.382 . S
C68 C72 1.393 . S
C68 C75 1.500 . S
C69 C68 1.382 . S
C69 C70 1.400 . S
C69 H80 0.930 . S
C70 C69 1.400 . S
C70 C71 1.384 . S
C71 C70 1.384 . S
C71 C73 1.392 . S
C71 H81 0.931 . S
C72 C68 1.393 . S
C72 C73 1.401 . S
C72 H82 0.930 . S
C73 C71 1.392 . S
C73 C72 1.401 . S
C73 H83 0.930 . S
C74 O52 1.262 . S
C74 O53 1.260 . S
C75 Tb11 2.833 . S
C75 O50 1.251 . S
C75 O55 1.256 . S
C75 C68 1.500 . S
H76 C59 0.930 . S
H77 C60 0.931 . S
H78 C61 0.930 . S
H79 C62 0.930 . S
H80 C69 0.930 . S
H81 C71 0.931 . S
H82 C72 0.930 . S
H83 C73 0.930 . S
Tb84 N115 2.660 . S
Tb84 N122 2.600 . S
Tb84 O128 2.546 . S
Tb84 O129 2.610 . S
Tb84 O131 2.320 . S
Tb84 O132 2.552 . S
Tb84 O133 2.413 . S
Tb84 O135 2.362 . S
Tb84 O136 2.421 . S
Tb84 C148 2.833 . S
C85 C88 1.432 . S
C85 C89 1.414 . S
C85 N92 1.359 . S
C86 C88 1.417 . S
C86 C90 1.432 . S
C86 C98 1.410 . S
C87 C89 1.444 . S
C87 C90 1.317 . S
C87 H110 0.929 . S
C88 C85 1.432 . S
C88 C86 1.417 . S
C88 N96 1.360 . S
C89 C85 1.414 . S
C89 C87 1.444 . S
C89 C94 1.385 . S
C90 C86 1.432 . S
C90 C87 1.317 . S
C90 H102 0.930 . S
C91 C93 1.392 . S
C91 C94 1.370 . S
C91 H103 0.931 . S
N92 C85 1.359 . S
N92 C93 1.327 . S
N92 Tb95 2.600 . S
C93 C91 1.392 . S
C93 N92 1.327 . S
C93 H100 0.930 . S
C94 C89 1.385 . S
C94 C91 1.370 . S
C94 H113 0.930 . S
Tb95 N92 2.600 . S
Tb95 N96 2.660 . S
Tb95 O129 2.362 . S
Tb95 O130 2.421 . S
Tb95 O134 2.546 . S
Tb95 O135 2.610 . S
Tb95 O137 2.320 . S
Tb95 O138 2.552 . S
Tb95 O139 2.413 . S
Tb95 C159 2.833 . S
N96 C88 1.360 . S
N96 Tb95 2.660 . S
N96 C97 1.305 . S
C97 N96 1.305 . S
C97 C99 1.407 . S
C97 H104 0.930 . S
C98 C86 1.410 . S
C98 C99 1.345 . S
C98 H106 0.930 . S
C99 C97 1.407 . S
C99 C98 1.345 . S
C99 H101 0.930 . S
H100 C93 0.930 . S
H101 C99 0.930 . S
H102 C90 0.930 . S
H103 C91 0.931 . S
H104 C97 0.930 . S
H105 C119 0.930 . S
H106 C98 0.930 . S
H107 C125 0.930 . S
H108 C116 0.930 . S
H109 C123 0.931 . S
H110 C87 0.929 . S
H111 C117 0.930 . S
H112 C150 0.930 . S
H113 C94 0.930 . S
H114 C149 0.929 . S
N115 Tb84 2.660 . S
N115 C116 1.305 . S
N115 C120 1.360 . S
C116 H108 0.930 . S
C116 N115 1.305 . S
C116 C119 1.407 . S
C117 H111 0.930 . S
C117 C118 1.410 . S
C117 C119 1.345 . S
C118 C117 1.410 . S
C118 C120 1.417 . S
C118 C150 1.432 . S
C119 H105 0.930 . S
C119 C116 1.407 . S
C119 C117 1.345 . S
C120 N115 1.360 . S
C120 C118 1.417 . S
C120 C124 1.432 . S
H121 C126 0.930 . S
N122 Tb84 2.600 . S
N122 C124 1.359 . S
N122 C125 1.327 . S
C123 H109 0.931 . S
C123 C125 1.392 . S
C123 C126 1.370 . S
C124 C120 1.432 . S
C124 N122 1.359 . S
C124 C127 1.414 . S
C125 H107 0.930 . S
C125 N122 1.327 . S
C125 C123 1.392 . S
C126 H121 0.930 . S
C126 C123 1.370 . S
C126 C127 1.385 . S
C127 C124 1.414 . S
C127 C126 1.385 . S
C127 C149 1.444 . S
O128 Tb84 2.546 . S
O128 C148 1.251 . S
O129 Tb84 2.610 . S
O129 Tb95 2.362 . S
O129 C140 1.283 . S
O130 Tb95 2.421 . S
O130 C147 1.262 . S
O131 Tb84 2.320 . S
O131 C147 1.260 . S
O132 Tb84 2.552 . S
O132 C140 1.243 . S
O133 Tb84 2.413 . S
O133 C148 1.256 . S
O134 Tb95 2.546 . S
O134 C159 1.251 . S
O135 Tb84 2.362 . S
O135 Tb95 2.610 . S
O135 C151 1.283 . S
O136 Tb84 2.421 . S
O136 C158 1.262 . S
O137 Tb95 2.320 . S
O137 C158 1.260 . S
O138 Tb95 2.552 . S
O138 C151 1.243 . S
O139 Tb95 2.413 . S
O139 C159 1.256 . S
C140 O129 1.283 . S
C140 O132 1.243 . S
C141 C143 1.382 . S
C141 C145 1.393 . S
C141 C148 1.500 . S
C142 C143 1.400 . S
C142 C144 1.384 . S
C143 C141 1.382 . S
C143 C142 1.400 . S
C143 H160 0.930 . S
C144 C142 1.384 . S
C144 C146 1.392 . S
C144 H161 0.931 . S
C145 C141 1.393 . S
C145 C146 1.401 . S
C145 H162 0.930 . S
C146 C144 1.392 . S
C146 C145 1.401 . S
C146 H163 0.930 . S
C147 O130 1.262 . S
C147 O131 1.260 . S
C148 Tb84 2.833 . S
C148 O128 1.251 . S
C148 O133 1.256 . S
C148 C141 1.500 . S
C149 H114 0.929 . S
C149 C127 1.444 . S
C149 C150 1.317 . S
C150 H112 0.930 . S
C150 C118 1.432 . S
C150 C149 1.317 . S
C151 O135 1.283 . S
C151 O138 1.243 . S
C152 C153 1.382 . S
C152 C156 1.393 . S
C152 C159 1.500 . S
C153 C152 1.382 . S
C153 C154 1.400 . S
C153 H164 0.930 . S
C154 C153 1.400 . S
C154 C155 1.384 . S
C155 C154 1.384 . S
C155 C157 1.392 . S
C155 H165 0.931 . S
C156 C152 1.393 . S
C156 C157 1.401 . S
C156 H166 0.930 . S
C157 C155 1.392 . S
C157 C156 1.401 . S
C157 H167 0.930 . S
C158 O136 1.262 . S
C158 O137 1.260 . S
C159 Tb95 2.833 . S
C159 O134 1.251 . S
C159 O139 1.256 . S
C159 C152 1.500 . S
H160 C143 0.930 . S
H161 C144 0.931 . S
H162 C145 0.930 . S
H163 C146 0.930 . S
H164 C153 0.930 . S
H165 C155 0.931 . S
H166 C156 0.930 . S
H167 C157 0.930 . S
Tb168 N199 2.660 . S
Tb168 N206 2.600 . S
Tb168 O212 2.546 . S
Tb168 O213 2.610 . S
Tb168 O215 2.320 . S
Tb168 O216 2.552 . S
Tb168 O217 2.413 . S
Tb168 O219 2.362 . S
Tb168 O220 2.421 . S
Tb168 C232 2.833 . S
C169 C172 1.432 . S
C169 C173 1.414 . S
C169 N176 1.359 . S
C170 C172 1.417 . S
C170 C174 1.432 . S
C170 C182 1.410 . S
C171 C173 1.444 . S
C171 C174 1.317 . S
C171 H194 0.929 . S
C172 C169 1.432 . S
C172 C170 1.417 . S
C172 N180 1.360 . S
C173 C169 1.414 . S
C173 C171 1.444 . S
C173 C178 1.385 . S
C174 C170 1.432 . S
C174 C171 1.317 . S
C174 H186 0.930 . S
C175 C177 1.392 . S
C175 C178 1.370 . S
C175 H187 0.931 . S
N176 C169 1.359 . S
N176 C177 1.327 . S
N176 Tb179 2.600 . S
C177 C175 1.392 . S
C177 N176 1.327 . S
C177 H184 0.930 . S
C178 C173 1.385 . S
C178 C175 1.370 . S
C178 H197 0.930 . S
Tb179 N176 2.600 . S
Tb179 N180 2.660 . S
Tb179 O213 2.362 . S
Tb179 O214 2.421 . S
Tb179 O218 2.546 . S
Tb179 O219 2.610 . S
Tb179 O221 2.320 . S
Tb179 O222 2.552 . S
Tb179 O223 2.413 . S
Tb179 C243 2.833 . S
N180 C172 1.360 . S
N180 Tb179 2.660 . S
N180 C181 1.305 . S
C181 N180 1.305 . S
C181 C183 1.407 . S
C181 H188 0.930 . S
C182 C170 1.410 . S
C182 C183 1.345 . S
C182 H190 0.930 . S
C183 C181 1.407 . S
C183 C182 1.345 . S
C183 H185 0.930 . S
H184 C177 0.930 . S
H185 C183 0.930 . S
H186 C174 0.930 . S
H187 C175 0.931 . S
H188 C181 0.930 . S
H189 C203 0.930 . S
H190 C182 0.930 . S
H191 C209 0.930 . S
H192 C200 0.930 . S
H193 C207 0.931 . S
H194 C171 0.929 . S
H195 C201 0.930 . S
H196 C234 0.930 . S
H197 C178 0.930 . S
H198 C233 0.929 . S
N199 Tb168 2.660 . S
N199 C200 1.305 . S
N199 C204 1.360 . S
C200 H192 0.930 . S
C200 N199 1.305 . S
C200 C203 1.407 . S
C201 H195 0.930 . S
C201 C202 1.410 . S
C201 C203 1.345 . S
C202 C201 1.410 . S
C202 C204 1.417 . S
C202 C234 1.432 . S
C203 H189 0.930 . S
C203 C200 1.407 . S
C203 C201 1.345 . S
C204 N199 1.360 . S
C204 C202 1.417 . S
C204 C208 1.432 . S
H205 C210 0.930 . S
N206 Tb168 2.600 . S
N206 C208 1.359 . S
N206 C209 1.327 . S
C207 H193 0.931 . S
C207 C209 1.392 . S
C207 C210 1.370 . S
C208 C204 1.432 . S
C208 N206 1.359 . S
C208 C211 1.414 . S
C209 H191 0.930 . S
C209 N206 1.327 . S
C209 C207 1.392 . S
C210 H205 0.930 . S
C210 C207 1.370 . S
C210 C211 1.385 . S
C211 C208 1.414 . S
C211 C210 1.385 . S
C211 C233 1.444 . S
O212 Tb168 2.546 . S
O212 C232 1.251 . S
O213 Tb168 2.610 . S
O213 Tb179 2.362 . S
O213 C224 1.283 . S
O214 Tb179 2.421 . S
O214 C231 1.262 . S
O215 Tb168 2.320 . S
O215 C231 1.260 . S
O216 Tb168 2.552 . S
O216 C224 1.243 . S
O217 Tb168 2.413 . S
O217 C232 1.256 . S
O218 Tb179 2.546 . S
O218 C243 1.251 . S
O219 Tb168 2.362 . S
O219 Tb179 2.610 . S
O219 C235 1.283 . S
O220 Tb168 2.421 . S
O220 C242 1.262 . S
O221 Tb179 2.320 . S
O221 C242 1.260 . S
O222 Tb179 2.552 . S
O222 C235 1.243 . S
O223 Tb179 2.413 . S
O223 C243 1.256 . S
C224 O213 1.283 . S
C224 O216 1.243 . S
C225 C227 1.382 . S
C225 C229 1.393 . S
C225 C232 1.500 . S
C226 C227 1.400 . S
C226 C228 1.384 . S
C227 C225 1.382 . S
C227 C226 1.400 . S
C227 H244 0.930 . S
C228 C226 1.384 . S
C228 C230 1.392 . S
C228 H245 0.931 . S
C229 C225 1.393 . S
C229 C230 1.401 . S
C229 H246 0.930 . S
C230 C228 1.392 . S
C230 C229 1.401 . S
C230 H247 0.930 . S
C231 O214 1.262 . S
C231 O215 1.260 . S
C232 Tb168 2.833 . S
C232 O212 1.251 . S
C232 O217 1.256 . S
C232 C225 1.500 . S
C233 H198 0.929 . S
C233 C211 1.444 . S
C233 C234 1.317 . S
C234 H196 0.930 . S
C234 C202 1.432 . S
C234 C233 1.317 . S
C235 O219 1.283 . S
C235 O222 1.243 . S
C236 C237 1.382 . S
C236 C240 1.393 . S
C236 C243 1.500 . S
C237 C236 1.382 . S
C237 C238 1.400 . S
C237 H248 0.930 . S
C238 C237 1.400 . S
C238 C239 1.384 . S
C239 C238 1.384 . S
C239 C241 1.392 . S
C239 H249 0.931 . S
C240 C236 1.393 . S
C240 C241 1.401 . S
C240 H250 0.930 . S
C241 C239 1.392 . S
C241 C240 1.401 . S
C241 H251 0.930 . S
C242 O220 1.262 . S
C242 O221 1.260 . S
C243 Tb179 2.833 . S
C243 O218 1.251 . S
C243 O223 1.256 . S
C243 C236 1.500 . S
H244 C227 0.930 . S
H245 C228 0.931 . S
H246 C229 0.930 . S
H247 C230 0.930 . S
H248 C237 0.930 . S
H249 C239 0.931 . S
H250 C240 0.930 . S
H251 C241 0.930 . S
Tb252 N283 2.660 . S
Tb252 N290 2.600 . S
Tb252 O296 2.546 . S
Tb252 O297 2.610 . S
Tb252 O299 2.320 . S
Tb252 O300 2.552 . S
Tb252 O301 2.413 . S
Tb252 O303 2.362 . S
Tb252 O304 2.421 . S
Tb252 C316 2.833 . S
C253 C256 1.432 . S
C253 C257 1.414 . S
C253 N260 1.359 . S
C254 C256 1.417 . S
C254 C258 1.432 . S
C254 C266 1.410 . S
C255 C257 1.444 . S
C255 C258 1.317 . S
C255 H278 0.929 . S
C256 C253 1.432 . S
C256 C254 1.417 . S
C256 N264 1.360 . S
C257 C253 1.414 . S
C257 C255 1.444 . S
C257 C262 1.385 . S
C258 C254 1.432 . S
C258 C255 1.317 . S
C258 H270 0.930 . S
C259 C261 1.392 . S
C259 C262 1.370 . S
C259 H271 0.931 . S
N260 C253 1.359 . S
N260 C261 1.327 . S
N260 Tb263 2.600 . S
C261 C259 1.392 . S
C261 N260 1.327 . S
C261 H268 0.930 . S
C262 C257 1.385 . S
C262 C259 1.370 . S
C262 H281 0.930 . S
Tb263 N260 2.600 . S
Tb263 N264 2.660 . S
Tb263 O297 2.362 . S
Tb263 O298 2.421 . S
Tb263 O302 2.546 . S
Tb263 O303 2.610 . S
Tb263 O305 2.320 . S
Tb263 O306 2.552 . S
Tb263 O307 2.413 . S
Tb263 C327 2.833 . S
N264 C256 1.360 . S
N264 Tb263 2.660 . S
N264 C265 1.305 . S
C265 N264 1.305 . S
C265 C267 1.407 . S
C265 H272 0.930 . S
C266 C254 1.410 . S
C266 C267 1.345 . S
C266 H274 0.930 . S
C267 C265 1.407 . S
C267 C266 1.345 . S
C267 H269 0.930 . S
H268 C261 0.930 . S
H269 C267 0.930 . S
H270 C258 0.930 . S
H271 C259 0.931 . S
H272 C265 0.930 . S
H273 C287 0.930 . S
H274 C266 0.930 . S
H275 C293 0.930 . S
H276 C284 0.930 . S
H277 C291 0.931 . S
H278 C255 0.929 . S
H279 C285 0.930 . S
H280 C318 0.930 . S
H281 C262 0.930 . S
H282 C317 0.929 . S
N283 Tb252 2.660 . S
N283 C284 1.305 . S
N283 C288 1.360 . S
C284 H276 0.930 . S
C284 N283 1.305 . S
C284 C287 1.407 . S
C285 H279 0.930 . S
C285 C286 1.410 . S
C285 C287 1.345 . S
C286 C285 1.410 . S
C286 C288 1.417 . S
C286 C318 1.432 . S
C287 H273 0.930 . S
C287 C284 1.407 . S
C287 C285 1.345 . S
C288 N283 1.360 . S
C288 C286 1.417 . S
C288 C292 1.432 . S
H289 C294 0.930 . S
N290 Tb252 2.600 . S
N290 C292 1.359 . S
N290 C293 1.327 . S
C291 H277 0.931 . S
C291 C293 1.392 . S
C291 C294 1.370 . S
C292 C288 1.432 . S
C292 N290 1.359 . S
C292 C295 1.414 . S
C293 H275 0.930 . S
C293 N290 1.327 . S
C293 C291 1.392 . S
C294 H289 0.930 . S
C294 C291 1.370 . S
C294 C295 1.385 . S
C295 C292 1.414 . S
C295 C294 1.385 . S
C295 C317 1.444 . S
O296 Tb252 2.546 . S
O296 C316 1.251 . S
O297 Tb252 2.610 . S
O297 Tb263 2.362 . S
O297 C308 1.283 . S
O298 Tb263 2.421 . S
O298 C315 1.262 . S
O299 Tb252 2.320 . S
O299 C315 1.260 . S
O300 Tb252 2.552 . S
O300 C308 1.243 . S
O301 Tb252 2.413 . S
O301 C316 1.256 . S
O302 Tb263 2.546 . S
O302 C327 1.251 . S
O303 Tb252 2.362 . S
O303 Tb263 2.610 . S
O303 C319 1.283 . S
O304 Tb252 2.421 . S
O304 C326 1.262 . S
O305 Tb263 2.320 . S
O305 C326 1.260 . S
O306 Tb263 2.552 . S
O306 C319 1.243 . S
O307 Tb263 2.413 . S
O307 C327 1.256 . S
C308 O297 1.283 . S
C308 O300 1.243 . S
C309 C311 1.382 . S
C309 C313 1.393 . S
C309 C316 1.500 . S
C310 C311 1.400 . S
C310 C312 1.384 . S
C311 C309 1.382 . S
C311 C310 1.400 . S
C311 H328 0.930 . S
C312 C310 1.384 . S
C312 C314 1.392 . S
C312 H329 0.931 . S
C313 C309 1.393 . S
C313 C314 1.401 . S
C313 H330 0.930 . S
C314 C312 1.392 . S
C314 C313 1.401 . S
C314 H331 0.930 . S
C315 O298 1.262 . S
C315 O299 1.260 . S
C316 Tb252 2.833 . S
C316 O296 1.251 . S
C316 O301 1.256 . S
C316 C309 1.500 . S
C317 H282 0.929 . S
C317 C295 1.444 . S
C317 C318 1.317 . S
C318 H280 0.930 . S
C318 C286 1.432 . S
C318 C317 1.317 . S
C319 O303 1.283 . S
C319 O306 1.243 . S
C320 C321 1.382 . S
C320 C324 1.393 . S
C320 C327 1.500 . S
C321 C320 1.382 . S
C321 C322 1.400 . S
C321 H332 0.930 . S
C322 C321 1.400 . S
C322 C323 1.384 . S
C323 C322 1.384 . S
C323 C325 1.392 . S
C323 H333 0.931 . S
C324 C320 1.393 . S
C324 C325 1.401 . S
C324 H334 0.930 . S
C325 C323 1.392 . S
C325 C324 1.401 . S
C325 H335 0.930 . S
C326 O304 1.262 . S
C326 O305 1.260 . S
C327 Tb263 2.833 . S
C327 O302 1.251 . S
C327 O307 1.256 . S
C327 C320 1.500 . S
H328 C311 0.930 . S
H329 C312 0.931 . S
H330 C313 0.930 . S
H331 C314 0.930 . S
H332 C321 0.930 . S
H333 C323 0.931 . S
H334 C324 0.930 . S
H335 C325 0.930 . S
Tb336 N367 2.660 . S
Tb336 N374 2.600 . S
Tb336 O380 2.546 . S
Tb336 O381 2.610 . S
Tb336 O383 2.320 . S
Tb336 O384 2.552 . S
Tb336 O385 2.413 . S
Tb336 O387 2.362 . S
Tb336 O388 2.421 . S
Tb336 C400 2.833 . S
C337 C340 1.432 . S
C337 C341 1.414 . S
C337 N344 1.359 . S
C338 C340 1.417 . S
C338 C342 1.432 . S
C338 C350 1.410 . S
C339 C341 1.444 . S
C339 C342 1.317 . S
C339 H362 0.929 . S
C340 C337 1.432 . S
C340 C338 1.417 . S
C340 N348 1.360 . S
C341 C337 1.414 . S
C341 C339 1.444 . S
C341 C346 1.385 . S
C342 C338 1.432 . S
C342 C339 1.317 . S
C342 H354 0.930 . S
C343 C345 1.392 . S
C343 C346 1.370 . S
C343 H355 0.931 . S
N344 C337 1.359 . S
N344 C345 1.327 . S
N344 Tb347 2.600 . S
C345 C343 1.392 . S
C345 N344 1.327 . S
C345 H352 0.930 . S
C346 C341 1.385 . S
C346 C343 1.370 . S
C346 H365 0.930 . S
Tb347 N344 2.600 . S
Tb347 N348 2.660 . S
Tb347 O381 2.362 . S
Tb347 O382 2.421 . S
Tb347 O386 2.546 . S
Tb347 O387 2.610 . S
Tb347 O389 2.320 . S
Tb347 O390 2.552 . S
Tb347 O391 2.413 . S
Tb347 C411 2.833 . S
N348 C340 1.360 . S
N348 Tb347 2.660 . S
N348 C349 1.305 . S
C349 N348 1.305 . S
C349 C351 1.407 . S
C349 H356 0.930 . S
C350 C338 1.410 . S
C350 C351 1.345 . S
C350 H358 0.930 . S
C351 C349 1.407 . S
C351 C350 1.345 . S
C351 H353 0.930 . S
H352 C345 0.930 . S
H353 C351 0.930 . S
H354 C342 0.930 . S
H355 C343 0.931 . S
H356 C349 0.930 . S
H357 C371 0.930 . S
H358 C350 0.930 . S
H359 C377 0.930 . S
H360 C368 0.930 . S
H361 C375 0.931 . S
H362 C339 0.929 . S
H363 C369 0.930 . S
H364 C402 0.930 . S
H365 C346 0.930 . S
H366 C401 0.929 . S
N367 Tb336 2.660 . S
N367 C368 1.305 . S
N367 C372 1.360 . S
C368 H360 0.930 . S
C368 N367 1.305 . S
C368 C371 1.407 . S
C369 H363 0.930 . S
C369 C370 1.410 . S
C369 C371 1.345 . S
C370 C369 1.410 . S
C370 C372 1.417 . S
C370 C402 1.432 . S
C371 H357 0.930 . S
C371 C368 1.407 . S
C371 C369 1.345 . S
C372 N367 1.360 . S
C372 C370 1.417 . S
C372 C376 1.432 . S
H373 C378 0.930 . S
N374 Tb336 2.600 . S
N374 C376 1.359 . S
N374 C377 1.327 . S
C375 H361 0.931 . S
C375 C377 1.392 . S
C375 C378 1.370 . S
C376 C372 1.432 . S
C376 N374 1.359 . S
C376 C379 1.414 . S
C377 H359 0.930 . S
C377 N374 1.327 . S
C377 C375 1.392 . S
C378 H373 0.930 . S
C378 C375 1.370 . S
C378 C379 1.385 . S
C379 C376 1.414 . S
C379 C378 1.385 . S
C379 C401 1.444 . S
O380 Tb336 2.546 . S
O380 C400 1.251 . S
O381 Tb336 2.610 . S
O381 Tb347 2.362 . S
O381 C392 1.283 . S
O382 Tb347 2.421 . S
O382 C399 1.262 . S
O383 Tb336 2.320 . S
O383 C399 1.260 . S
O384 Tb336 2.552 . S
O384 C392 1.243 . S
O385 Tb336 2.413 . S
O385 C400 1.256 . S
O386 Tb347 2.546 . S
O386 C411 1.251 . S
O387 Tb336 2.362 . S
O387 Tb347 2.610 . S
O387 C403 1.283 . S
O388 Tb336 2.421 . S
O388 C410 1.262 . S
O389 Tb347 2.320 . S
O389 C410 1.260 . S
O390 Tb347 2.552 . S
O390 C403 1.243 . S
O391 Tb347 2.413 . S
O391 C411 1.256 . S
C392 O381 1.283 . S
C392 O384 1.243 . S
C393 C395 1.382 . S
C393 C397 1.393 . S
C393 C400 1.500 . S
C394 C395 1.400 . S
C394 C396 1.384 . S
C395 C393 1.382 . S
C395 C394 1.400 . S
C395 H412 0.930 . S
C396 C394 1.384 . S
C396 C398 1.392 . S
C396 H413 0.931 . S
C397 C393 1.393 . S
C397 C398 1.401 . S
C397 H414 0.930 . S
C398 C396 1.392 . S
C398 C397 1.401 . S
C398 H415 0.930 . S
C399 O382 1.262 . S
C399 O383 1.260 . S
C400 Tb336 2.833 . S
C400 O380 1.251 . S
C400 O385 1.256 . S
C400 C393 1.500 . S
C401 H366 0.929 . S
C401 C379 1.444 . S
C401 C402 1.317 . S
C402 H364 0.930 . S
C402 C370 1.432 . S
C402 C401 1.317 . S
C403 O387 1.283 . S
C403 O390 1.243 . S
C404 C405 1.382 . S
C404 C408 1.393 . S
C404 C411 1.500 . S
C405 C404 1.382 . S
C405 C406 1.400 . S
C405 H416 0.930 . S
C406 C405 1.400 . S
C406 C407 1.384 . S
C407 C406 1.384 . S
C407 C409 1.392 . S
C407 H417 0.931 . S
C408 C404 1.393 . S
C408 C409 1.401 . S
C408 H418 0.930 . S
C409 C407 1.392 . S
C409 C408 1.401 . S
C409 H419 0.930 . S
C410 O388 1.262 . S
C410 O389 1.260 . S
C411 Tb347 2.833 . S
C411 O386 1.251 . S
C411 O391 1.256 . S
C411 C404 1.500 . S
H412 C395 0.930 . S
H413 C396 0.931 . S
H414 C397 0.930 . S
H415 C398 0.930 . S
H416 C405 0.930 . S
H417 C407 0.931 . S
H418 C408 0.930 . S
H419 C409 0.930 . S
Tb420 N451 2.660 . S
Tb420 N458 2.600 . S
Tb420 O464 2.546 . S
Tb420 O465 2.610 . S
Tb420 O467 2.320 . S
Tb420 O468 2.552 . S
Tb420 O469 2.413 . S
Tb420 O471 2.362 . S
Tb420 O472 2.421 . S
Tb420 C484 2.833 . S
C421 C424 1.432 . S
C421 C425 1.414 . S
C421 N428 1.359 . S
C422 C424 1.417 . S
C422 C426 1.432 . S
C422 C434 1.410 . S
C423 C425 1.444 . S
C423 C426 1.317 . S
C423 H446 0.929 . S
C424 C421 1.432 . S
C424 C422 1.417 . S
C424 N432 1.360 . S
C425 C421 1.414 . S
C425 C423 1.444 . S
C425 C430 1.385 . S
C426 C422 1.432 . S
C426 C423 1.317 . S
C426 H438 0.930 . S
C427 C429 1.392 . S
C427 C430 1.370 . S
C427 H439 0.931 . S
N428 C421 1.359 . S
N428 C429 1.327 . S
N428 Tb431 2.600 . S
C429 C427 1.392 . S
C429 N428 1.327 . S
C429 H436 0.930 . S
C430 C425 1.385 . S
C430 C427 1.370 . S
C430 H449 0.930 . S
Tb431 N428 2.600 . S
Tb431 N432 2.660 . S
Tb431 O465 2.362 . S
Tb431 O466 2.421 . S
Tb431 O470 2.546 . S
Tb431 O471 2.610 . S
Tb431 O473 2.320 . S
Tb431 O474 2.552 . S
Tb431 O475 2.413 . S
Tb431 C495 2.833 . S
N432 C424 1.360 . S
N432 Tb431 2.660 . S
N432 C433 1.305 . S
C433 N432 1.305 . S
C433 C435 1.407 . S
C433 H440 0.930 . S
C434 C422 1.410 . S
C434 C435 1.345 . S
C434 H442 0.930 . S
C435 C433 1.407 . S
C435 C434 1.345 . S
C435 H437 0.930 . S
H436 C429 0.930 . S
H437 C435 0.930 . S
H438 C426 0.930 . S
H439 C427 0.931 . S
H440 C433 0.930 . S
H441 C455 0.930 . S
H442 C434 0.930 . S
H443 C461 0.930 . S
H444 C452 0.930 . S
H445 C459 0.931 . S
H446 C423 0.929 . S
H447 C453 0.930 . S
H448 C486 0.930 . S
H449 C430 0.930 . S
H450 C485 0.929 . S
N451 Tb420 2.660 . S
N451 C452 1.305 . S
N451 C456 1.360 . S
C452 H444 0.930 . S
C452 N451 1.305 . S
C452 C455 1.407 . S
C453 H447 0.930 . S
C453 C454 1.410 . S
C453 C455 1.345 . S
C454 C453 1.410 . S
C454 C456 1.417 . S
C454 C486 1.432 . S
C455 H441 0.930 . S
C455 C452 1.407 . S
C455 C453 1.345 . S
C456 N451 1.360 . S
C456 C454 1.417 . S
C456 C460 1.432 . S
H457 C462 0.930 . S
N458 Tb420 2.600 . S
N458 C460 1.359 . S
N458 C461 1.327 . S
C459 H445 0.931 . S
C459 C461 1.392 . S
C459 C462 1.370 . S
C460 C456 1.432 . S
C460 N458 1.359 . S
C460 C463 1.414 . S
C461 H443 0.930 . S
C461 N458 1.327 . S
C461 C459 1.392 . S
C462 H457 0.930 . S
C462 C459 1.370 . S
C462 C463 1.385 . S
C463 C460 1.414 . S
C463 C462 1.385 . S
C463 C485 1.444 . S
O464 Tb420 2.546 . S
O464 C484 1.251 . S
O465 Tb420 2.610 . S
O465 Tb431 2.362 . S
O465 C476 1.283 . S
O466 Tb431 2.421 . S
O466 C483 1.262 . S
O467 Tb420 2.320 . S
O467 C483 1.260 . S
O468 Tb420 2.552 . S
O468 C476 1.243 . S
O469 Tb420 2.413 . S
O469 C484 1.256 . S
O470 Tb431 2.546 . S
O470 C495 1.251 . S
O471 Tb420 2.362 . S
O471 Tb431 2.610 . S
O471 C487 1.283 . S
O472 Tb420 2.421 . S
O472 C494 1.262 . S
O473 Tb431 2.320 . S
O473 C494 1.260 . S
O474 Tb431 2.552 . S
O474 C487 1.243 . S
O475 Tb431 2.413 . S
O475 C495 1.256 . S
C476 O465 1.283 . S
C476 O468 1.243 . S
C477 C479 1.382 . S
C477 C481 1.393 . S
C477 C484 1.500 . S
C478 C479 1.400 . S
C478 C480 1.384 . S
C479 C477 1.382 . S
C479 C478 1.400 . S
C479 H496 0.930 . S
C480 C478 1.384 . S
C480 C482 1.392 . S
C480 H497 0.931 . S
C481 C477 1.393 . S
C481 C482 1.401 . S
C481 H498 0.930 . S
C482 C480 1.392 . S
C482 C481 1.401 . S
C482 H499 0.930 . S
C483 O466 1.262 . S
C483 O467 1.260 . S
C484 Tb420 2.833 . S
C484 O464 1.251 . S
C484 O469 1.256 . S
C484 C477 1.500 . S
C485 H450 0.929 . S
C485 C463 1.444 . S
C485 C486 1.317 . S
C486 H448 0.930 . S
C486 C454 1.432 . S
C486 C485 1.317 . S
C487 O471 1.283 . S
C487 O474 1.243 . S
C488 C489 1.382 . S
C488 C492 1.393 . S
C488 C495 1.500 . S
C489 C488 1.382 . S
C489 C490 1.400 . S
C489 H500 0.930 . S
C490 C489 1.400 . S
C490 C491 1.384 . S
C491 C490 1.384 . S
C491 C493 1.392 . S
C491 H501 0.931 . S
C492 C488 1.393 . S
C492 C493 1.401 . S
C492 H502 0.930 . S
C493 C491 1.392 . S
C493 C492 1.401 . S
C493 H503 0.930 . S
C494 O472 1.262 . S
C494 O473 1.260 . S
C495 Tb431 2.833 . S
C495 O470 1.251 . S
C495 O475 1.256 . S
C495 C488 1.500 . S
H496 C479 0.930 . S
H497 C480 0.931 . S
H498 C481 0.930 . S
H499 C482 0.930 . S
H500 C489 0.930 . S
H501 C491 0.931 . S
H502 C492 0.930 . S
H503 C493 0.930 . S
Tb504 N535 2.660 . S
Tb504 N542 2.600 . S
Tb504 O548 2.546 . S
Tb504 O549 2.610 . S
Tb504 O551 2.320 . S
Tb504 O552 2.552 . S
Tb504 O553 2.413 . S
Tb504 O555 2.362 . S
Tb504 O556 2.421 . S
Tb504 C568 2.833 . S
C505 C508 1.432 . S
C505 C509 1.414 . S
C505 N512 1.359 . S
C506 C508 1.417 . S
C506 C510 1.432 . S
C506 C518 1.410 . S
C507 C509 1.444 . S
C507 C510 1.317 . S
C507 H530 0.929 . S
C508 C505 1.432 . S
C508 C506 1.417 . S
C508 N516 1.360 . S
C509 C505 1.414 . S
C509 C507 1.444 . S
C509 C514 1.385 . S
C510 C506 1.432 . S
C510 C507 1.317 . S
C510 H522 0.930 . S
C511 C513 1.392 . S
C511 C514 1.370 . S
C511 H523 0.931 . S
N512 C505 1.359 . S
N512 C513 1.327 . S
N512 Tb515 2.600 . S
C513 C511 1.392 . S
C513 N512 1.327 . S
C513 H520 0.930 . S
C514 C509 1.385 . S
C514 C511 1.370 . S
C514 H533 0.930 . S
Tb515 N512 2.600 . S
Tb515 N516 2.660 . S
Tb515 O549 2.362 . S
Tb515 O550 2.421 . S
Tb515 O554 2.546 . S
Tb515 O555 2.610 . S
Tb515 O557 2.320 . S
Tb515 O558 2.552 . S
Tb515 O559 2.413 . S
Tb515 C579 2.833 . S
N516 C508 1.360 . S
N516 Tb515 2.660 . S
N516 C517 1.305 . S
C517 N516 1.305 . S
C517 C519 1.407 . S
C517 H524 0.930 . S
C518 C506 1.410 . S
C518 C519 1.345 . S
C518 H526 0.930 . S
C519 C517 1.407 . S
C519 C518 1.345 . S
C519 H521 0.930 . S
H520 C513 0.930 . S
H521 C519 0.930 . S
H522 C510 0.930 . S
H523 C511 0.931 . S
H524 C517 0.930 . S
H525 C539 0.930 . S
H526 C518 0.930 . S
H527 C545 0.930 . S
H528 C536 0.930 . S
H529 C543 0.931 . S
H530 C507 0.929 . S
H531 C537 0.930 . S
H532 C570 0.930 . S
H533 C514 0.930 . S
H534 C569 0.929 . S
N535 Tb504 2.660 . S
N535 C536 1.305 . S
N535 C540 1.360 . S
C536 H528 0.930 . S
C536 N535 1.305 . S
C536 C539 1.407 . S
C537 H531 0.930 . S
C537 C538 1.410 . S
C537 C539 1.345 . S
C538 C537 1.410 . S
C538 C540 1.417 . S
C538 C570 1.432 . S
C539 H525 0.930 . S
C539 C536 1.407 . S
C539 C537 1.345 . S
C540 N535 1.360 . S
C540 C538 1.417 . S
C540 C544 1.432 . S
H541 C546 0.930 . S
N542 Tb504 2.600 . S
N542 C544 1.359 . S
N542 C545 1.327 . S
C543 H529 0.931 . S
C543 C545 1.392 . S
C543 C546 1.370 . S
C544 C540 1.432 . S
C544 N542 1.359 . S
C544 C547 1.414 . S
C545 H527 0.930 . S
C545 N542 1.327 . S
C545 C543 1.392 . S
C546 H541 0.930 . S
C546 C543 1.370 . S
C546 C547 1.385 . S
C547 C544 1.414 . S
C547 C546 1.385 . S
C547 C569 1.444 . S
O548 Tb504 2.546 . S
O548 C568 1.251 . S
O549 Tb504 2.610 . S
O549 Tb515 2.362 . S
O549 C560 1.283 . S
O550 Tb515 2.421 . S
O550 C567 1.262 . S
O551 Tb504 2.320 . S
O551 C567 1.260 . S
O552 Tb504 2.552 . S
O552 C560 1.243 . S
O553 Tb504 2.413 . S
O553 C568 1.256 . S
O554 Tb515 2.546 . S
O554 C579 1.251 . S
O555 Tb504 2.362 . S
O555 Tb515 2.610 . S
O555 C571 1.283 . S
O556 Tb504 2.421 . S
O556 C578 1.262 . S
O557 Tb515 2.320 . S
O557 C578 1.260 . S
O558 Tb515 2.552 . S
O558 C571 1.243 . S
O559 Tb515 2.413 . S
O559 C579 1.256 . S
C560 O549 1.283 . S
C560 O552 1.243 . S
C561 C563 1.382 . S
C561 C565 1.393 . S
C561 C568 1.500 . S
C562 C563 1.400 . S
C562 C564 1.384 . S
C563 C561 1.382 . S
C563 C562 1.400 . S
C563 H580 0.930 . S
C564 C562 1.384 . S
C564 C566 1.392 . S
C564 H581 0.931 . S
C565 C561 1.393 . S
C565 C566 1.401 . S
C565 H582 0.930 . S
C566 C564 1.392 . S
C566 C565 1.401 . S
C566 H583 0.930 . S
C567 O550 1.262 . S
C567 O551 1.260 . S
C568 Tb504 2.833 . S
C568 O548 1.251 . S
C568 O553 1.256 . S
C568 C561 1.500 . S
C569 H534 0.929 . S
C569 C547 1.444 . S
C569 C570 1.317 . S
C570 H532 0.930 . S
C570 C538 1.432 . S
C570 C569 1.317 . S
C571 O555 1.283 . S
C571 O558 1.243 . S
C572 C573 1.382 . S
C572 C576 1.393 . S
C572 C579 1.500 . S
C573 C572 1.382 . S
C573 C574 1.400 . S
C573 H584 0.930 . S
C574 C573 1.400 . S
C574 C575 1.384 . S
C575 C574 1.384 . S
C575 C577 1.392 . S
C575 H585 0.931 . S
C576 C572 1.393 . S
C576 C577 1.401 . S
C576 H586 0.930 . S
C577 C575 1.392 . S
C577 C576 1.401 . S
C577 H587 0.930 . S
C578 O556 1.262 . S
C578 O557 1.260 . S
C579 Tb515 2.833 . S
C579 O554 1.251 . S
C579 O559 1.256 . S
C579 C572 1.500 . S
H580 C563 0.930 . S
H581 C564 0.931 . S
H582 C565 0.930 . S
H583 C566 0.930 . S
H584 C573 0.930 . S
H585 C575 0.931 . S
H586 C576 0.930 . S
H587 C577 0.930 . S
Tb588 N619 2.660 . S
Tb588 N626 2.600 . S
Tb588 O632 2.546 . S
Tb588 O633 2.610 . S
Tb588 O635 2.320 . S
Tb588 O636 2.552 . S
Tb588 O637 2.413 . S
Tb588 O639 2.362 . S
Tb588 O640 2.421 . S
Tb588 C652 2.833 . S
C589 C592 1.432 . S
C589 C593 1.414 . S
C589 N596 1.359 . S
C590 C592 1.417 . S
C590 C594 1.432 . S
C590 C602 1.410 . S
C591 C593 1.444 . S
C591 C594 1.317 . S
C591 H614 0.929 . S
C592 C589 1.432 . S
C592 C590 1.417 . S
C592 N600 1.360 . S
C593 C589 1.414 . S
C593 C591 1.444 . S
C593 C598 1.385 . S
C594 C590 1.432 . S
C594 C591 1.317 . S
C594 H606 0.930 1_556 S
C595 C597 1.392 . S
C595 C598 1.370 . S
C595 H607 0.931 . S
N596 C589 1.359 . S
N596 C597 1.327 . S
N596 Tb599 2.600 . S
C597 C595 1.392 . S
C597 N596 1.327 . S
C597 H604 0.930 . S
C598 C593 1.385 . S
C598 C595 1.370 . S
C598 H617 0.930 . S
Tb599 N596 2.600 . S
Tb599 N600 2.660 . S
Tb599 O633 2.362 . S
Tb599 O634 2.421 . S
Tb599 O638 2.546 . S
Tb599 O639 2.610 . S
Tb599 O641 2.320 . S
Tb599 O642 2.552 . S
Tb599 O643 2.413 . S
Tb599 C663 2.833 . S
N600 C592 1.360 . S
N600 Tb599 2.660 . S
N600 C601 1.305 . S
C601 N600 1.305 . S
C601 C603 1.407 . S
C601 H608 0.930 . S
C602 C590 1.410 . S
C602 C603 1.345 . S
C602 H610 0.930 . S
C603 C601 1.407 . S
C603 C602 1.345 . S
C603 H605 0.930 . S
H604 C597 0.930 . S
H605 C603 0.930 . S
H606 C594 0.930 1_554 S
H607 C595 0.931 . S
H608 C601 0.930 . S
H609 C623 0.930 . S
H610 C602 0.930 . S
H611 C629 0.930 . S
H612 C620 0.930 . S
H613 C627 0.931 . S
H614 C591 0.929 . S
H615 C621 0.930 . S
H616 C654 0.930 . S
H617 C598 0.930 . S
H618 C653 0.929 . S
N619 Tb588 2.660 . S
N619 C620 1.305 . S
N619 C624 1.360 . S
C620 H612 0.930 . S
C620 N619 1.305 . S
C620 C623 1.407 . S
C621 H615 0.930 . S
C621 C622 1.410 . S
C621 C623 1.345 . S
C622 C621 1.410 . S
C622 C624 1.417 . S
C622 C654 1.432 . S
C623 H609 0.930 . S
C623 C620 1.407 . S
C623 C621 1.345 . S
C624 N619 1.360 . S
C624 C622 1.417 . S
C624 C628 1.432 . S
H625 C630 0.930 . S
N626 Tb588 2.600 . S
N626 C628 1.359 . S
N626 C629 1.327 . S
C627 H613 0.931 . S
C627 C629 1.392 . S
C627 C630 1.370 . S
C628 C624 1.432 . S
C628 N626 1.359 . S
C628 C631 1.414 . S
C629 H611 0.930 . S
C629 N626 1.327 . S
C629 C627 1.392 . S
C630 H625 0.930 . S
C630 C627 1.370 . S
C630 C631 1.385 . S
C631 C628 1.414 . S
C631 C630 1.385 . S
C631 C653 1.444 . S
O632 Tb588 2.546 . S
O632 C652 1.251 . S
O633 Tb588 2.610 . S
O633 Tb599 2.362 . S
O633 C644 1.283 . S
O634 Tb599 2.421 . S
O634 C651 1.262 . S
O635 Tb588 2.320 . S
O635 C651 1.260 . S
O636 Tb588 2.552 . S
O636 C644 1.243 . S
O637 Tb588 2.413 . S
O637 C652 1.256 . S
O638 Tb599 2.546 . S
O638 C663 1.251 . S
O639 Tb588 2.362 . S
O639 Tb599 2.610 . S
O639 C655 1.283 . S
O640 Tb588 2.421 . S
O640 C662 1.262 . S
O641 Tb599 2.320 . S
O641 C662 1.260 . S
O642 Tb599 2.552 . S
O642 C655 1.243 . S
O643 Tb599 2.413 . S
O643 C663 1.256 . S
C644 O633 1.283 . S
C644 O636 1.243 . S
C645 C647 1.382 . S
C645 C649 1.393 . S
C645 C652 1.500 . S
C646 C647 1.400 . S
C646 C648 1.384 . S
C647 C645 1.382 . S
C647 C646 1.400 . S
C647 H664 0.930 . S
C648 C646 1.384 . S
C648 C650 1.392 . S
C648 H665 0.931 . S
C649 C645 1.393 . S
C649 C650 1.401 . S
C649 H666 0.930 . S
C650 C648 1.392 . S
C650 C649 1.401 . S
C650 H667 0.930 . S
C651 O634 1.262 . S
C651 O635 1.260 . S
C652 Tb588 2.833 . S
C652 O632 1.251 . S
C652 O637 1.256 . S
C652 C645 1.500 . S
C653 H618 0.929 . S
C653 C631 1.444 . S
C653 C654 1.317 . S
C654 H616 0.930 . S
C654 C622 1.432 . S
C654 C653 1.317 . S
C655 O639 1.283 . S
C655 O642 1.243 . S
C656 C657 1.382 . S
C656 C660 1.393 . S
C656 C663 1.500 . S
C657 C656 1.382 . S
C657 C658 1.400 . S
C657 H668 0.930 . S
C658 C657 1.400 . S
C658 C659 1.384 . S
C659 C658 1.384 . S
C659 C661 1.392 . S
C659 H669 0.931 . S
C660 C656 1.393 . S
C660 C661 1.401 . S
C660 H670 0.930 . S
C661 C659 1.392 . S
C661 C660 1.401 . S
C661 H671 0.928 . S
C662 O640 1.262 . S
C662 O641 1.260 . S
C663 Tb599 2.833 . S
C663 O638 1.251 . S
C663 O643 1.256 . S
C663 C656 1.500 . S
H664 C647 0.930 . S
H665 C648 0.931 . S
H666 C649 0.930 . S
H667 C650 0.930 . S
H668 C657 0.930 . S
H669 C659 0.931 . S
H670 C660 0.930 . S
H671 C661 0.928 . S
Cd672 N675 2.334 1_655 S
Cd672 N701 2.304 1_565 S
Cd672 O708 2.268 . S
Cd672 O711 2.273 1_665 S
Cd672 O712 2.417 . S
Cd672 O713 2.330 . S
Cd673 N688 2.304 1_455 S
Cd673 N692 2.334 1_545 S
Cd673 O709 2.273 1_445 S
Cd673 O710 2.268 . S
Cd673 O714 2.417 . S
Cd673 O715 2.330 . S
C674 N675 1.332 . S
C674 C678 1.381 . S
C674 H680 0.931 . S
N675 Cd672 2.334 1_455 S
N675 C674 1.332 . S
N675 C679 1.328 . S
C676 C677 1.396 . S
C676 C679 1.378 . S
C676 H718 0.931 . S
C677 C676 1.396 . S
C677 C678 1.382 . S
C678 C674 1.381 . S
C678 C677 1.382 . S
C678 H719 0.930 . S
C679 N675 1.328 . S
C679 C676 1.378 . S
C679 H681 0.930 1_455 S
H680 C674 0.931 . S
H681 C679 0.930 1_655 S
C682 O708 1.238 . S
C682 O709 1.253 . S
C683 C684 1.379 . S
C683 N688 1.337 . S
C683 H689 0.929 . S
C684 C683 1.379 . S
C684 C685 1.380 . S
C684 H720 0.929 . S
C685 C684 1.380 . S
C685 C686 1.399 . S
C686 C685 1.399 . S
C686 C687 1.364 1_655 S
C686 H721 0.931 . S
C687 C686 1.364 1_455 S
C687 N688 1.343 1_455 S
C687 H690 0.937 . S
N688 Cd673 2.304 1_655 S
N688 C683 1.337 . S
N688 C687 1.343 1_655 S
H689 C683 0.929 . S
H690 C687 0.937 . S
C691 N692 1.332 . S
C691 C695 1.381 . S
C691 H697 0.931 . S
N692 Cd673 2.334 1_565 S
N692 C691 1.332 . S
N692 C696 1.328 1_565 S
C693 C694 1.396 . S
C693 C696 1.378 1_565 S
C693 H722 0.931 . S
C694 C693 1.396 . S
C694 C695 1.382 . S
C695 C691 1.381 . S
C695 C694 1.382 . S
C695 H723 0.930 . S
C696 N692 1.328 1_545 S
C696 C693 1.378 1_545 S
C696 H698 0.930 . S
H697 C691 0.931 . S
H698 C696 0.930 . S
C699 O710 1.238 . S
C699 O711 1.253 . S
C700 O712 1.239 . S
C700 O713 1.230 . S
N701 Cd672 2.304 1_545 S
N701 C702 1.337 . S
N701 C706 1.338 1_545 S
C702 N701 1.337 . S
C702 C703 1.379 . S
C702 H716 0.929 . S
C703 C702 1.379 . S
C703 C704 1.380 . S
C703 H724 0.929 . S
C704 C703 1.380 . S
C704 C705 1.399 . S
C705 C704 1.399 . S
C705 C706 1.376 1_545 S
C705 H725 0.931 . S
C706 N701 1.338 1_565 S
C706 C705 1.376 1_565 S
C706 H717 0.930 . S
C707 O714 1.239 . S
C707 O715 1.230 . S
O708 Cd672 2.268 . S
O708 C682 1.238 . S
O709 Cd673 2.273 1_665 S
O709 C682 1.253 . S
O710 Cd673 2.268 . S
O710 C699 1.238 . S
O711 Cd672 2.273 1_445 S
O711 C699 1.253 . S
O712 Cd672 2.417 . S
O712 C700 1.239 . S
O713 Cd672 2.330 . S
O713 C700 1.230 . S
O714 Cd673 2.417 . S
O714 C707 1.239 . S
O715 Cd673 2.330 . S
O715 C707 1.230 . S
H716 C702 0.929 . S
H717 C706 0.930 . S
H718 C676 0.931 . S
H719 C678 0.930 . S
H720 C684 0.929 . S
H721 C686 0.931 . S
H722 C693 0.931 . S
H723 C695 0.930 . S
H724 C703 0.929 . S
H725 C705 0.931 . S
Cd726 N729 2.334 . S
Cd726 N755 2.304 1_565 S
Cd726 O762 2.268 1_554 S
Cd726 O765 2.273 1_565 S
Cd726 O766 2.417 . S
Cd726 O767 2.330 . S
Cd727 N742 2.304 . S
Cd727 N746 2.334 1_545 S
Cd727 O763 2.273 1_545 S
Cd727 O764 2.268 1_556 S
Cd727 O768 2.417 . S
Cd727 O769 2.330 . S
C728 N729 1.332 . S
C728 C732 1.381 . S
C728 H734 0.931 . S
N729 Cd726 2.334 . S
N729 C728 1.332 . S
N729 C733 1.328 . S
C730 C731 1.396 . S
C730 C733 1.378 . S
C730 H772 0.931 . S
C731 C730 1.396 . S
C731 C732 1.382 . S
C732 C728 1.381 . S
C732 C731 1.382 . S
C732 H773 0.930 . S
C733 N729 1.328 . S
C733 C730 1.378 . S
C733 H735 0.921 1_554 S
H734 C728 0.931 . S
H735 C733 0.921 1_556 S
C736 O762 1.238 . S
C736 O763 1.253 . S
C737 C738 1.379 . S
C737 N742 1.337 . S
C737 H743 0.929 . S
C738 C737 1.379 . S
C738 C739 1.380 . S
C738 H774 0.929 . S
C739 C738 1.380 . S
C739 C740 1.399 . S
C740 C739 1.399 . S
C740 C741 1.376 . S
C740 H775 0.931 . S
C741 C740 1.376 . S
C741 N742 1.338 . S
C741 H744 0.930 1_556 S
N742 Cd727 2.304 . S
N742 C737 1.337 . S
N742 C741 1.338 . S
H743 C737 0.929 . S
H744 C741 0.930 1_554 S
C745 N746 1.332 . S
C745 C749 1.381 . S
C745 H751 0.931 . S
N746 Cd727 2.334 1_565 S
N746 C745 1.332 . S
N746 C750 1.328 1_565 S
C747 C748 1.396 1_554 S
C747 C750 1.378 1_564 S
C747 H776 0.931 . S
C748 C747 1.396 1_556 S
C748 C749 1.382 . S
C749 C745 1.381 . S
C749 C748 1.382 . S
C749 H777 0.930 . S
C750 N746 1.328 1_545 S
C750 C747 1.378 1_546 S
C750 H752 0.930 1_556 S
H751 C745 0.931 . S
H752 C750 0.930 1_554 S
C753 O764 1.238 . S
C753 O765 1.253 . S
C754 O766 1.239 . S
C754 O767 1.230 . S
N755 Cd726 2.304 1_545 S
N755 C756 1.337 . S
N755 C760 1.338 1_545 S
C756 N755 1.337 . S
C756 C757 1.379 . S
C756 H770 0.929 . S
C757 C756 1.379 . S
C757 C758 1.380 . S
C757 H778 0.929 . S
C758 C757 1.380 . S
C758 C759 1.399 1_554 S
C759 C758 1.399 1_556 S
C759 C760 1.376 1_546 S
C759 H779 0.931 . S
C760 N755 1.338 1_565 S
C760 C759 1.376 1_564 S
C760 H771 0.930 1_554 S
C761 O768 1.239 . S
C761 O769 1.230 . S
O762 Cd726 2.268 1_556 S
O762 C736 1.238 . S
O763 Cd727 2.273 1_565 S
O763 C736 1.253 . S
O764 Cd727 2.268 1_554 S
O764 C753 1.238 . S
O765 Cd726 2.273 1_545 S
O765 C753 1.253 . S
O766 Cd726 2.417 . S
O766 C754 1.239 . S
O767 Cd726 2.330 . S
O767 C754 1.230 . S
O768 Cd727 2.417 . S
O768 C761 1.239 . S
O769 Cd727 2.330 . S
O769 C761 1.230 . S
H770 C756 0.929 . S
H771 C760 0.930 1_556 S
H772 C730 0.931 . S
H773 C732 0.930 . S
H774 C738 0.929 . S
H775 C740 0.931 . S
H776 C747 0.931 . S
H777 C749 0.930 . S
H778 C757 0.929 . S
H779 C759 0.931 . S
Cd780 N783 2.334 1_655 S
Cd780 N809 2.304 . S
Cd780 O816 2.268 1_554 S
Cd780 O819 2.273 1_655 S
Cd780 O820 2.417 . S
Cd780 O821 2.330 . S
Cd781 N796 2.304 1_455 S
Cd781 N800 2.334 . S
Cd781 O817 2.273 1_455 S
Cd781 O818 2.268 1_556 S
Cd781 O822 2.417 . S
Cd781 O823 2.330 . S
C782 N783 1.332 . S
C782 C786 1.381 . S
C782 H788 0.931 . S
N783 Cd780 2.334 1_455 S
N783 C782 1.332 . S
N783 C787 1.328 . S
C784 C785 1.396 . S
C784 C787 1.378 . S
C784 H826 0.931 . S
C785 C784 1.396 . S
C785 C786 1.382 . S
C786 C782 1.381 . S
C786 C785 1.382 . S
C786 H827 0.930 . S
C787 N783 1.328 . S
C787 C784 1.378 . S
C787 H789 0.921 1_454 S
H788 C782 0.931 . S
H789 C787 0.921 1_656 S
C790 O816 1.238 . S
C790 O817 1.253 . S
C791 C792 1.379 . S
C791 N796 1.337 . S
C791 H797 0.929 . S
C792 C791 1.379 . S
C792 C793 1.380 . S
C792 H828 0.929 . S
C793 C792 1.380 . S
C793 C794 1.399 . S
C794 C793 1.399 . S
C794 C795 1.360 1_655 S
C794 H829 0.931 . S
C795 C794 1.360 1_455 S
C795 N796 1.344 1_455 S
C795 H798 0.940 1_556 S
N796 Cd781 2.304 1_655 S
N796 C791 1.337 . S
N796 C795 1.344 1_655 S
H797 C791 0.929 . S
H798 C795 0.940 1_554 S
C799 N800 1.332 . S
C799 C803 1.381 . S
C799 H805 0.931 . S
N800 Cd781 2.334 . S
N800 C799 1.332 . S
N800 C804 1.328 . S
C801 C802 1.396 1_554 S
C801 C804 1.378 1_554 S
C801 H830 0.931 . S
C802 C801 1.396 1_556 S
C802 C803 1.382 . S
C803 C799 1.381 . S
C803 C802 1.382 . S
C803 H831 0.930 . S
C804 N800 1.328 . S
C804 C801 1.378 1_556 S
C804 H806 0.930 1_556 S
H805 C799 0.931 . S
H806 C804 0.930 1_554 S
C807 O818 1.238 . S
C807 O819 1.253 . S
C808 O820 1.239 . S
C808 O821 1.230 . S
N809 Cd780 2.304 . S
N809 C810 1.337 . S
N809 C814 1.338 . S
C810 N809 1.337 . S
C810 C811 1.379 . S
C810 H824 0.929 . S
C811 C810 1.379 . S
C811 C812 1.380 . S
C811 H832 0.929 . S
C812 C811 1.380 . S
C812 C813 1.399 1_554 S
C813 C812 1.399 1_556 S
C813 C814 1.376 1_556 S
C813 H833 0.931 . S
C814 N809 1.338 . S
C814 C813 1.376 1_554 S
C814 H825 0.930 1_554 S
C815 O822 1.239 . S
C815 O823 1.230 . S
O816 Cd780 2.268 1_556 S
O816 C790 1.238 . S
O817 Cd781 2.273 1_655 S
O817 C790 1.253 . S
O818 Cd781 2.268 1_554 S
O818 C807 1.238 . S
O819 Cd780 2.273 1_455 S
O819 C807 1.253 . S
O820 Cd780 2.417 . S
O820 C808 1.239 . S
O821 Cd780 2.330 . S
O821 C808 1.230 . S
O822 Cd781 2.417 . S
O822 C815 1.239 . S
O823 Cd781 2.330 . S
O823 C815 1.230 . S
H824 C810 0.929 . S
H825 C814 0.930 1_556 S
H826 C784 0.931 . S
H827 C786 0.930 . S
H828 C792 0.929 . S
H829 C794 0.931 . S
H830 C801 0.931 . S
H831 C803 0.930 . S
H832 C811 0.929 . S
H833 C813 0.931 . S
Cd834 N837 2.334 . S
Cd834 N863 2.304 . S
Cd834 O870 2.268 1_554 S
Cd834 O873 2.273 . S
Cd834 O874 2.417 . S
Cd834 O875 2.330 . S
Cd835 N850 2.304 . S
Cd835 N854 2.334 . S
Cd835 O871 2.273 . S
Cd835 O872 2.268 1_556 S
Cd835 O876 2.417 . S
Cd835 O877 2.330 . S
C836 N837 1.332 . S
C836 C840 1.381 . S
C836 H842 0.931 . S
N837 Cd834 2.334 . S
N837 C836 1.332 . S
N837 C841 1.328 . S
C838 C839 1.396 . S
C838 C841 1.378 . S
C838 H880 0.931 . S
C839 C838 1.396 . S
C839 C840 1.382 . S
C840 C836 1.381 . S
C840 C839 1.382 . S
C840 H881 0.930 . S
C841 N837 1.328 . S
C841 C838 1.378 . S
C841 H843 0.920 1_554 S
H842 C836 0.931 . S
H843 C841 0.920 1_556 S
C844 O870 1.238 . S
C844 O871 1.253 . S
C845 C846 1.379 . S
C845 N850 1.337 . S
C845 H851 0.929 . S
C846 C845 1.379 . S
C846 C847 1.380 . S
C846 H882 0.929 . S
C847 C846 1.380 . S
C847 C848 1.399 . S
C848 C847 1.399 . S
C848 C849 1.376 . S
C848 H883 0.931 . S
C849 C848 1.376 . S
C849 N850 1.338 . S
C849 H852 0.930 1_556 S
N850 Cd835 2.304 . S
N850 C845 1.337 . S
N850 C849 1.338 . S
H851 C845 0.929 . S
H852 C849 0.930 1_554 S
C853 N854 1.332 . S
C853 C857 1.381 . S
C853 H859 0.931 . S
N854 Cd835 2.334 . S
N854 C853 1.332 . S
N854 C858 1.328 . S
C855 C856 1.396 1_554 S
C855 C858 1.378 1_554 S
C855 H884 0.931 . S
C856 C855 1.396 1_556 S
C856 C857 1.382 . S
C857 C853 1.381 . S
C857 C856 1.382 . S
C857 H885 0.930 . S
C858 N854 1.328 . S
C858 C855 1.378 1_556 S
C858 H860 0.930 1_556 S
H859 C853 0.931 . S
H860 C858 0.930 1_554 S
C861 O872 1.238 . S
C861 O873 1.253 . S
C862 O874 1.239 . S
C862 O875 1.230 . S
N863 Cd834 2.304 . S
N863 C864 1.337 . S
N863 C868 1.338 . S
C864 N863 1.337 . S
C864 C865 1.379 . S
C864 H878 0.929 . S
C865 C864 1.379 . S
C865 C866 1.380 . S
C865 H886 0.929 . S
C866 C865 1.380 . S
C866 C867 1.399 1_554 S
C867 C866 1.399 1_556 S
C867 C868 1.376 1_556 S
C867 H887 0.931 . S
C868 N863 1.338 . S
C868 C867 1.376 1_554 S
C868 H879 0.930 1_554 S
C869 O876 1.239 . S
C869 O877 1.230 . S
O870 Cd834 2.268 1_556 S
O870 C844 1.238 . S
O871 Cd835 2.273 . S
O871 C844 1.253 . S
O872 Cd835 2.268 1_554 S
O872 C861 1.238 . S
O873 Cd834 2.273 . S
O873 C861 1.253 . S
O874 Cd834 2.417 . S
O874 C862 1.239 . S
O875 Cd834 2.330 . S
O875 C862 1.230 . S
O876 Cd835 2.417 . S
O876 C869 1.239 . S
O877 Cd835 2.330 . S
O877 C869 1.230 . S
H878 C864 0.929 . S
H879 C868 0.930 1_556 S
H880 C838 0.931 . S
H881 C840 0.930 . S
H882 C846 0.929 . S
H883 C848 0.931 . S
H884 C855 0.931 . S
H885 C857 0.930 . S
H886 C865 0.929 . S
H887 C867 0.931 . S
Cd888 N891 2.334 1_655 S
Cd888 N917 2.304 . S
Cd888 O924 2.268 . S
Cd888 O927 2.273 1_655 S
Cd888 O928 2.417 . S
Cd888 O929 2.330 . S
Cd889 N904 2.304 1_455 S
Cd889 N908 2.334 . S
Cd889 O925 2.273 1_455 S
Cd889 O926 2.268 . S
Cd889 O930 2.417 . S
Cd889 O931 2.330 . S
C890 N891 1.332 . S
C890 C894 1.381 . S
C890 H896 0.931 . S
N891 Cd888 2.334 1_455 S
N891 C890 1.332 . S
N891 C895 1.328 . S
C892 C893 1.396 . S
C892 C895 1.378 . S
C892 H934 0.931 . S
C893 C892 1.396 . S
C893 C894 1.382 . S
C894 C890 1.381 . S
C894 C893 1.382 . S
C894 H935 0.930 . S
C895 N891 1.328 . S
C895 C892 1.378 . S
C895 H897 0.930 1_455 S
H896 C890 0.931 . S
H897 C895 0.930 1_655 S
C898 O924 1.238 . S
C898 O925 1.253 . S
C899 C900 1.379 . S
C899 N904 1.337 . S
C899 H905 0.929 . S
C900 C899 1.379 . S
C900 C901 1.380 . S
C900 H936 0.929 . S
C901 C900 1.380 . S
C901 C902 1.399 . S
C902 C901 1.399 . S
C902 C903 1.359 1_655 S
C902 H937 0.931 . S
C903 C902 1.359 1_455 S
C903 N904 1.345 1_455 S
C903 H906 0.941 . S
N904 Cd889 2.304 1_655 S
N904 C899 1.337 . S
N904 C903 1.345 1_655 S
H905 C899 0.929 . S
H906 C903 0.941 . S
C907 N908 1.332 . S
C907 C911 1.381 . S
C907 H913 0.931 . S
N908 Cd889 2.334 . S
N908 C907 1.332 . S
N908 C912 1.328 . S
C909 C910 1.396 . S
C909 C912 1.378 . S
C909 H938 0.931 . S
C910 C909 1.396 . S
C910 C911 1.382 . S
C911 C907 1.381 . S
C911 C910 1.382 . S
C911 H939 0.930 . S
C912 N908 1.328 . S
C912 C909 1.378 . S
C912 H914 0.930 . S
H913 C907 0.931 . S
H914 C912 0.930 . S
C915 O926 1.238 . S
C915 O927 1.253 . S
C916 O928 1.239 . S
C916 O929 1.230 . S
N917 Cd888 2.304 . S
N917 C918 1.337 . S
N917 C922 1.338 . S
C918 N917 1.337 . S
C918 C919 1.379 . S
C918 H932 0.929 . S
C919 C918 1.379 . S
C919 C920 1.380 . S
C919 H940 0.929 . S
C920 C919 1.380 . S
C920 C921 1.399 . S
C921 C920 1.399 . S
C921 C922 1.376 . S
C921 H941 0.931 . S
C922 N917 1.338 . S
C922 C921 1.376 . S
C922 H933 0.930 . S
C923 O930 1.239 . S
C923 O931 1.230 . S
O924 Cd888 2.268 . S
O924 C898 1.238 . S
O925 Cd889 2.273 1_655 S
O925 C898 1.253 . S
O926 Cd889 2.268 . S
O926 C915 1.238 . S
O927 Cd888 2.273 1_455 S
O927 C915 1.253 . S
O928 Cd888 2.417 . S
O928 C916 1.239 . S
O929 Cd888 2.330 . S
O929 C916 1.230 . S
O930 Cd889 2.417 . S
O930 C923 1.239 . S
O931 Cd889 2.330 . S
O931 C923 1.230 . S
H932 C918 0.929 . S
H933 C922 0.930 . S
H934 C892 0.931 . S
H935 C894 0.930 . S
H936 C900 0.929 . S
H937 C902 0.931 . S
H938 C909 0.931 . S
H939 C911 0.930 . S
H940 C919 0.929 . S
H941 C921 0.931 . S
Cd942 N945 2.334 . S
Cd942 N971 2.304 1_565 S
Cd942 O978 2.268 . S
Cd942 O981 2.273 1_565 S
Cd942 O982 2.417 . S
Cd942 O983 2.330 . S
Cd943 N958 2.304 . S
Cd943 N962 2.334 1_545 S
Cd943 O979 2.273 1_545 S
Cd943 O980 2.268 . S
Cd943 O984 2.417 . S
Cd943 O985 2.330 . S
C944 N945 1.332 . S
C944 C948 1.381 . S
C944 H950 0.931 . S
N945 Cd942 2.334 . S
N945 C944 1.332 . S
N945 C949 1.328 . S
C946 C947 1.396 . S
C946 C949 1.378 . S
C946 H988 0.931 . S
C947 C946 1.396 . S
C947 C948 1.382 . S
C948 C944 1.381 . S
C948 C947 1.382 . S
C948 H989 0.930 . S
C949 N945 1.328 . S
C949 C946 1.378 . S
C949 H951 0.930 . S
H950 C944 0.931 . S
H951 C949 0.930 . S
C952 O978 1.238 . S
C952 O979 1.253 . S
C953 C954 1.379 . S
C953 N958 1.337 . S
C953 H959 0.929 . S
C954 C953 1.379 . S
C954 C955 1.380 . S
C954 H990 0.929 . S
C955 C954 1.380 . S
C955 C956 1.399 . S
C956 C955 1.399 . S
C956 C957 1.376 . S
C956 H991 0.931 . S
C957 C956 1.376 . S
C957 N958 1.338 . S
C957 H960 0.930 . S
N958 Cd943 2.304 . S
N958 C953 1.337 . S
N958 C957 1.338 . S
H959 C953 0.929 . S
H960 C957 0.930 . S
C961 N962 1.332 . S
C961 C965 1.381 . S
C961 H967 0.931 . S
N962 Cd943 2.334 1_565 S
N962 C961 1.332 . S
N962 C966 1.328 1_565 S
C963 C964 1.396 . S
C963 C966 1.378 1_565 S
C963 H992 0.931 . S
C964 C963 1.396 . S
C964 C965 1.382 . S
C965 C961 1.381 . S
C965 C964 1.382 . S
C965 H993 0.930 . S
C966 N962 1.328 1_545 S
C966 C963 1.378 1_545 S
C966 H968 0.930 . S
H967 C961 0.931 . S
H968 C966 0.930 . S
C969 O980 1.238 . S
C969 O981 1.253 . S
C970 O982 1.239 . S
C970 O983 1.230 . S
N971 Cd942 2.304 1_545 S
N971 C972 1.337 . S
N971 C976 1.338 1_545 S
C972 N971 1.337 . S
C972 C973 1.379 . S
C972 H986 0.929 . S
C973 C972 1.379 . S
C973 C974 1.380 . S
C973 H994 0.929 . S
C974 C973 1.380 . S
C974 C975 1.399 . S
C975 C974 1.399 . S
C975 C976 1.376 1_545 S
C975 H995 0.931 . S
C976 N971 1.338 1_565 S
C976 C975 1.376 1_565 S
C976 H987 0.930 . S
C977 O984 1.239 . S
C977 O985 1.230 . S
O978 Cd942 2.268 . S
O978 C952 1.238 . S
O979 Cd943 2.273 1_565 S
O979 C952 1.253 . S
O980 Cd943 2.268 . S
O980 C969 1.238 . S
O981 Cd942 2.273 1_545 S
O981 C969 1.253 . S
O982 Cd942 2.417 . S
O982 C970 1.239 . S
O983 Cd942 2.330 . S
O983 C970 1.230 . S
O984 Cd943 2.417 . S
O984 C977 1.239 . S
O985 Cd943 2.330 . S
O985 C977 1.230 . S
H986 C972 0.929 . S
H987 C976 0.930 . S
H988 C946 0.931 . S
H989 C948 0.930 . S
H990 C954 0.929 . S
H991 C956 0.931 . S
H992 C963 0.931 . S
H993 C965 0.930 . S
H994 C973 0.929 . S
H995 C975 0.931 . S
C996 C997 1.387 . S
C996 H1000 0.950 . S
C996 C1005 1.390 . S
C997 C996 1.387 . S
C997 C999 1.387 . S
H998 C1005 0.950 . S
C999 C997 1.387 . S
C999 C1001 1.390 . S
C999 H1003 0.950 . S
H1000 C996 0.950 . S
C1001 C999 1.390 . S
C1001 C1002 1.387 . S
C1001 H1004 0.950 . S
C1002 C1001 1.387 . S
C1002 C1005 1.387 . S
H1003 C999 0.950 . S
H1004 C1001 0.950 . S
C1005 C996 1.390 . S
C1005 H998 0.950 . S
C1005 C1002 1.387 . S
C1006 C1007 1.387 . S
C1006 H1010 0.950 . S
C1006 C1015 1.390 . S
C1007 C1006 1.387 . S
C1007 C1009 1.387 . S
H1008 C1015 0.950 . S
C1009 C1007 1.387 . S
C1009 C1011 1.390 . S
C1009 H1013 0.950 . S
H1010 C1006 0.950 . S
C1011 C1009 1.390 . S
C1011 C1012 1.387 . S
C1011 H1014 0.950 . S
C1012 C1011 1.387 . S
C1012 C1015 1.387 . S
H1013 C1009 0.950 . S
H1014 C1011 0.950 . S
C1015 C1006 1.390 . S
C1015 H1008 0.950 . S
C1015 C1012 1.387 . S
C1016 C1017 1.387 . S
C1016 H1020 0.950 . S
C1016 C1025 1.390 . S
C1017 C1016 1.387 . S
C1017 C1019 1.387 . S
H1018 C1025 0.950 . S
C1019 C1017 1.387 . S
C1019 C1021 1.390 . S
C1019 H1023 0.950 . S
H1020 C1016 0.950 . S
C1021 C1019 1.390 . S
C1021 C1022 1.387 . S
C1021 H1024 0.950 . S
C1022 C1021 1.387 . S
C1022 C1025 1.387 . S
H1023 C1019 0.950 . S
H1024 C1021 0.950 . S
C1025 C1016 1.390 . S
C1025 H1018 0.950 . S
C1025 C1022 1.387 . S
C1026 C1027 1.387 . S
C1026 H1030 0.950 . S
C1026 C1035 1.390 . S
C1027 C1026 1.387 . S
C1027 C1029 1.387 . S
H1028 C1035 0.950 . S
C1029 C1027 1.387 . S
C1029 C1031 1.390 . S
C1029 H1033 0.950 . S
H1030 C1026 0.950 . S
C1031 C1029 1.390 . S
C1031 C1032 1.387 . S
C1031 H1034 0.950 . S
C1032 C1031 1.387 . S
C1032 C1035 1.387 . S
H1033 C1029 0.950 . S
H1034 C1031 0.950 . S
C1035 C1026 1.390 . S
C1035 H1028 0.950 . S
C1035 C1032 1.387 . S
C1036 C1037 1.387 . S
C1036 H1040 0.950 . S
C1036 C1045 1.390 . S
C1037 C1036 1.387 . S
C1037 C1039 1.387 . S
H1038 C1045 0.950 . S
C1039 C1037 1.387 . S
C1039 C1041 1.390 . S
C1039 H1043 0.950 . S
H1040 C1036 0.950 . S
C1041 C1039 1.390 . S
C1041 C1042 1.387 . S
C1041 H1044 0.950 . S
C1042 C1041 1.387 . S
C1042 C1045 1.387 . S
H1043 C1039 0.950 . S
H1044 C1041 0.950 . S
C1045 C1036 1.390 . S
C1045 H1038 0.950 . S
C1045 C1042 1.387 . S
C1046 C1047 1.387 . S
C1046 H1050 0.950 . S
C1046 C1055 1.390 . S
C1047 C1046 1.387 . S
C1047 C1049 1.387 . S
H1048 C1055 0.950 . S
C1049 C1047 1.387 . S
C1049 C1051 1.390 . S
C1049 H1053 0.950 . S
H1050 C1046 0.950 . S
C1051 C1049 1.390 . S
C1051 C1052 1.387 . S
C1051 H1054 0.950 . S
C1052 C1051 1.387 . S
C1052 C1055 1.387 . S
H1053 C1049 0.950 . S
H1054 C1051 0.950 . S
C1055 C1046 1.390 . S
C1055 H1048 0.950 . S
C1055 C1052 1.387 . S
C1056 C1057 1.387 . S
C1056 H1060 0.950 . S
C1056 C1065 1.390 . S
C1057 C1056 1.387 . S
C1057 C1059 1.387 . S
H1058 C1065 0.950 . S
C1059 C1057 1.387 . S
C1059 C1061 1.390 . S
C1059 H1063 0.950 . S
H1060 C1056 0.950 . S
C1061 C1059 1.390 . S
C1061 C1062 1.387 . S
C1061 H1064 0.950 . S
C1062 C1061 1.387 . S
C1062 C1065 1.387 . S
H1063 C1059 0.950 . S
H1064 C1061 0.950 . S
C1065 C1056 1.390 . S
C1065 H1058 0.950 . S
C1065 C1062 1.387 . S
C1066 C1067 1.387 . S
C1066 H1070 0.950 . S
C1066 C1075 1.390 . S
C1067 C1066 1.387 . S
C1067 C1069 1.387 . S
H1068 C1075 0.950 . S
C1069 C1067 1.387 . S
C1069 C1071 1.390 . S
C1069 H1073 0.950 . S
H1070 C1066 0.950 . S
C1071 C1069 1.390 . S
C1071 C1072 1.387 . S
C1071 H1074 0.950 . S
C1072 C1071 1.387 . S
C1072 C1075 1.387 . S
H1073 C1069 0.950 . S
H1074 C1071 0.950 . S
C1075 C1066 1.390 . S
C1075 H1068 0.950 . S
C1075 C1072 1.387 . S
C1076 C1077 1.387 . S
C1076 H1080 0.950 . S
C1076 C1085 1.390 . S
C1077 C1076 1.387 . S
C1077 C1079 1.387 . S
H1078 C1085 0.950 . S
C1079 C1077 1.387 . S
C1079 C1081 1.390 . S
C1079 H1083 0.950 . S
H1080 C1076 0.950 . S
C1081 C1079 1.390 . S
C1081 C1082 1.387 . S
C1081 H1084 0.950 . S
C1082 C1081 1.387 . S
C1082 C1085 1.387 . S
H1083 C1079 0.950 . S
H1084 C1081 0.950 . S
C1085 C1076 1.390 . S
C1085 H1078 0.950 . S
C1085 C1082 1.387 . S
C1086 C1087 1.387 . S
C1086 H1090 0.950 . S
C1086 C1095 1.390 . S
C1087 C1086 1.387 . S
C1087 C1089 1.387 . S
H1088 C1095 0.950 . S
C1089 C1087 1.387 . S
C1089 C1091 1.390 . S
C1089 H1093 0.950 . S
H1090 C1086 0.950 . S
C1091 C1089 1.390 . S
C1091 C1092 1.387 . S
C1091 H1094 0.950 . S
C1092 C1091 1.387 . S
C1092 C1095 1.387 . S
H1093 C1089 0.950 . S
H1094 C1091 0.950 . S
C1095 C1086 1.390 . S
C1095 H1088 0.950 . S
C1095 C1092 1.387 . S
C1096 C1097 1.387 . S
C1096 H1100 0.950 . S
C1096 C1105 1.390 . S
C1097 C1096 1.387 . S
C1097 C1099 1.387 . S
H1098 C1105 0.950 . S
C1099 C1097 1.387 . S
C1099 C1101 1.390 . S
C1099 H1103 0.950 . S
H1100 C1096 0.950 . S
C1101 C1099 1.390 . S
C1101 C1102 1.387 . S
C1101 H1104 0.950 . S
C1102 C1101 1.387 . S
C1102 C1105 1.387 . S
H1103 C1099 0.950 . S
H1104 C1101 0.950 . S
C1105 C1096 1.390 . S
C1105 H1098 0.950 . S
C1105 C1102 1.387 . S
C1106 C1107 1.387 . S
C1106 H1110 0.950 . S
C1106 C1115 1.390 . S
C1107 C1106 1.387 . S
C1107 C1109 1.387 . S
H1108 C1115 0.950 . S
C1109 C1107 1.387 . S
C1109 C1111 1.390 . S
C1109 H1113 0.950 . S
H1110 C1106 0.950 . S
C1111 C1109 1.390 . S
C1111 C1112 1.387 . S
C1111 H1114 0.950 . S
C1112 C1111 1.387 . S
C1112 C1115 1.387 . S
H1113 C1109 0.950 . S
H1114 C1111 0.950 . S
C1115 C1106 1.390 . S
C1115 H1108 0.950 . S
C1115 C1112 1.387 . S
C1116 C1117 1.387 . S
C1116 H1120 0.950 . S
C1116 C1125 1.390 . S
C1117 C1116 1.387 . S
C1117 C1119 1.387 . S
H1118 C1125 0.950 . S
C1119 C1117 1.387 . S
C1119 C1121 1.390 . S
C1119 H1123 0.950 . S
H1120 C1116 0.950 . S
C1121 C1119 1.390 . S
C1121 C1122 1.387 . S
C1121 H1124 0.950 . S
C1122 C1121 1.387 . S
C1122 C1125 1.387 . S
H1123 C1119 0.950 . S
H1124 C1121 0.950 . S
C1125 C1116 1.390 . S
C1125 H1118 0.950 . S
C1125 C1122 1.387 . S
C1126 C1127 1.387 . S
C1126 H1130 0.950 . S
C1126 C1135 1.390 . S
C1127 C1126 1.387 . S
C1127 C1129 1.387 . S
H1128 C1135 0.950 . S
C1129 C1127 1.387 . S
C1129 C1131 1.390 . S
C1129 H1133 0.950 . S
H1130 C1126 0.950 . S
C1131 C1129 1.390 . S
C1131 C1132 1.387 . S
C1131 H1134 0.950 . S
C1132 C1131 1.387 . S
C1132 C1135 1.387 . S
H1133 C1129 0.950 . S
H1134 C1131 0.950 . S
C1135 C1126 1.390 . S
C1135 H1128 0.950 . S
C1135 C1132 1.387 . S
C1136 C1137 1.387 . S
C1136 H1140 0.950 . S
C1136 C1145 1.390 . S
C1137 C1136 1.387 . S
C1137 C1139 1.387 . S
H1138 C1145 0.950 . S
C1139 C1137 1.387 . S
C1139 C1141 1.390 . S
C1139 H1143 0.950 . S
H1140 C1136 0.950 . S
C1141 C1139 1.390 . S
C1141 C1142 1.387 . S
C1141 H1144 0.950 . S
C1142 C1141 1.387 . S
C1142 C1145 1.387 . S
H1143 C1139 0.950 . S
H1144 C1141 0.950 . S
C1145 C1136 1.390 . S
C1145 H1138 0.950 . S
C1145 C1142 1.387 . S
C1146 C1147 1.387 . S
C1146 H1150 0.950 . S
C1146 C1155 1.390 . S
C1147 C1146 1.387 . S
C1147 C1149 1.387 . S
H1148 C1155 0.950 . S
C1149 C1147 1.387 . S
C1149 C1151 1.390 . S
C1149 H1153 0.950 . S
H1150 C1146 0.950 . S
C1151 C1149 1.390 . S
C1151 C1152 1.387 . S
C1151 H1154 0.950 . S
C1152 C1151 1.387 . S
C1152 C1155 1.387 . S
H1153 C1149 0.950 . S
H1154 C1151 0.950 . S
C1155 C1146 1.390 . S
C1155 H1148 0.950 . S
C1155 C1152 1.387 . S
C1156 C1157 1.387 . S
C1156 H1160 0.950 . S
C1156 C1165 1.390 . S
C1157 C1156 1.387 . S
C1157 C1159 1.387 . S
H1158 C1165 0.950 . S
C1159 C1157 1.387 . S
C1159 C1161 1.390 . S
C1159 H1163 0.950 . S
H1160 C1156 0.950 . S
C1161 C1159 1.390 . S
C1161 C1162 1.387 . S
C1161 H1164 0.950 . S
C1162 C1161 1.387 . S
C1162 C1165 1.387 . S
H1163 C1159 0.950 . S
H1164 C1161 0.950 . S
C1165 C1156 1.390 . S
C1165 H1158 0.950 . S
C1165 C1162 1.387 . S
C1166 C1167 1.387 . S
C1166 H1170 0.950 . S
C1166 C1175 1.390 . S
C1167 C1166 1.387 . S
C1167 C1169 1.387 . S
H1168 C1175 0.950 . S
C1169 C1167 1.387 . S
C1169 C1171 1.390 . S
C1169 H1173 0.950 . S
H1170 C1166 0.950 . S
C1171 C1169 1.390 . S
C1171 C1172 1.387 . S
C1171 H1174 0.950 . S
C1172 C1171 1.387 . S
C1172 C1175 1.387 . S
H1173 C1169 0.950 . S
H1174 C1171 0.950 . S
C1175 C1166 1.390 . S
C1175 H1168 0.950 . S
C1175 C1172 1.387 . S
C1176 C1177 1.387 . S
C1176 H1180 0.950 . S
C1176 C1185 1.390 . S
C1177 C1176 1.387 . S
C1177 C1179 1.387 . S
H1178 C1185 0.950 . S
C1179 C1177 1.387 . S
C1179 C1181 1.390 . S
C1179 H1183 0.950 . S
H1180 C1176 0.950 . S
C1181 C1179 1.390 . S
C1181 C1182 1.387 . S
C1181 H1184 0.950 . S
C1182 C1181 1.387 . S
C1182 C1185 1.387 . S
H1183 C1179 0.950 . S
H1184 C1181 0.950 . S
C1185 C1176 1.390 . S
C1185 H1178 0.950 . S
C1185 C1182 1.387 . S
C1186 C1187 1.387 . S
C1186 H1190 0.950 . S
C1186 C1195 1.390 . S
C1187 C1186 1.387 . S
C1187 C1189 1.387 . S
H1188 C1195 0.950 . S
C1189 C1187 1.387 . S
C1189 C1191 1.390 . S
C1189 H1193 0.950 . S
H1190 C1186 0.950 . S
C1191 C1189 1.390 . S
C1191 C1192 1.387 . S
C1191 H1194 0.950 . S
C1192 C1191 1.387 . S
C1192 C1195 1.387 . S
H1193 C1189 0.950 . S
H1194 C1191 0.950 . S
C1195 C1186 1.390 . S
C1195 H1188 0.950 . S
C1195 C1192 1.387 . S
C1196 C1197 1.387 . S
C1196 H1200 0.950 . S
C1196 C1205 1.390 . S
C1197 C1196 1.387 . S
C1197 C1199 1.387 . S
H1198 C1205 0.950 . S
C1199 C1197 1.387 . S
C1199 C1201 1.390 . S
C1199 H1203 0.950 . S
H1200 C1196 0.950 . S
C1201 C1199 1.390 . S
C1201 C1202 1.387 . S
C1201 H1204 0.950 . S
C1202 C1201 1.387 . S
C1202 C1205 1.387 . S
H1203 C1199 0.950 . S
H1204 C1201 0.950 . S
C1205 C1196 1.390 . S
C1205 H1198 0.950 . S
C1205 C1202 1.387 . S
C1206 C1207 1.387 . S
C1206 H1210 0.950 . S
C1206 C1215 1.390 . S
C1207 C1206 1.387 . S
C1207 C1209 1.387 . S
H1208 C1215 0.950 . S
C1209 C1207 1.387 . S
C1209 C1211 1.390 . S
C1209 H1213 0.950 . S
H1210 C1206 0.950 . S
C1211 C1209 1.390 . S
C1211 C1212 1.387 . S
C1211 H1214 0.950 . S
C1212 C1211 1.387 . S
C1212 C1215 1.387 . S
H1213 C1209 0.950 . S
H1214 C1211 0.950 . S
C1215 C1206 1.390 . S
C1215 H1208 0.950 . S
C1215 C1212 1.387 . S
C1216 C1217 1.387 . S
C1216 H1220 0.950 . S
C1216 C1225 1.390 . S
C1217 C1216 1.387 . S
C1217 C1219 1.387 . S
H1218 C1225 0.950 . S
C1219 C1217 1.387 . S
C1219 C1221 1.390 . S
C1219 H1223 0.950 . S
H1220 C1216 0.950 . S
C1221 C1219 1.390 . S
C1221 C1222 1.387 . S
C1221 H1224 0.950 . S
C1222 C1221 1.387 . S
C1222 C1225 1.387 . S
H1223 C1219 0.950 . S
H1224 C1221 0.950 . S
C1225 C1216 1.390 . S
C1225 H1218 0.950 . S
C1225 C1222 1.387 . S
C1226 C1227 1.387 . S
C1226 H1230 0.950 . S
C1226 C1235 1.390 . S
C1227 C1226 1.387 . S
C1227 C1229 1.387 . S
H1228 C1235 0.950 . S
C1229 C1227 1.387 . S
C1229 C1231 1.390 . S
C1229 H1233 0.950 . S
H1230 C1226 0.950 . S
C1231 C1229 1.390 . S
C1231 C1232 1.387 . S
C1231 H1234 0.950 . S
C1232 C1231 1.387 . S
C1232 C1235 1.387 . S
H1233 C1229 0.950 . S
H1234 C1231 0.950 . S
C1235 C1226 1.390 . S
C1235 H1228 0.950 . S
C1235 C1232 1.387 . S
C1236 C1237 1.387 . S
C1236 H1240 0.950 . S
C1236 C1245 1.390 . S
C1237 C1236 1.387 . S
C1237 C1239 1.387 . S
H1238 C1245 0.950 . S
C1239 C1237 1.387 . S
C1239 C1241 1.390 . S
C1239 H1243 0.950 . S
H1240 C1236 0.950 . S
C1241 C1239 1.390 . S
C1241 C1242 1.387 . S
C1241 H1244 0.950 . S
C1242 C1241 1.387 . S
C1242 C1245 1.387 . S
H1243 C1239 0.950 . S
H1244 C1241 0.950 . S
C1245 C1236 1.390 . S
C1245 H1238 0.950 . S
C1245 C1242 1.387 . S
C1246 C1247 1.387 . S
C1246 H1250 0.950 . S
C1246 C1255 1.390 . S
C1247 C1246 1.387 . S
C1247 C1249 1.387 . S
H1248 C1255 0.950 1_554 S
C1249 C1247 1.387 . S
C1249 C1251 1.390 . S
C1249 H1253 0.950 . S
H1250 C1246 0.950 . S
C1251 C1249 1.390 . S
C1251 C1252 1.387 . S
C1251 H1254 0.950 . S
C1252 C1251 1.387 . S
C1252 C1255 1.387 . S
H1253 C1249 0.950 . S
H1254 C1251 0.950 . S
C1255 C1246 1.390 . S
C1255 H1248 0.950 1_556 S
C1255 C1252 1.387 . S
C1256 C1257 1.387 . S
C1256 H1260 0.950 . S
C1256 C1265 1.390 . S
C1257 C1256 1.387 . S
C1257 C1259 1.387 . S
H1258 C1265 0.950 . S
C1259 C1257 1.387 . S
C1259 C1261 1.390 . S
C1259 H1263 0.950 . S
H1260 C1256 0.950 . S
C1261 C1259 1.390 . S
C1261 C1262 1.387 . S
C1261 H1264 0.950 . S
C1262 C1261 1.387 . S
C1262 C1265 1.387 . S
H1263 C1259 0.950 . S
H1264 C1261 0.950 . S
C1265 C1256 1.390 . S
C1265 H1258 0.950 . S
C1265 C1262 1.387 . S
C1266 C1267 1.387 . S
C1266 H1270 0.950 . S
C1266 C1275 1.390 . S
C1267 C1266 1.387 . S
C1267 C1269 1.387 . S
H1268 C1275 0.950 . S
C1269 C1267 1.387 . S
C1269 C1271 1.390 . S
C1269 H1273 0.950 . S
H1270 C1266 0.950 . S
C1271 C1269 1.390 . S
C1271 C1272 1.387 . S
C1271 H1274 0.950 . S
C1272 C1271 1.387 . S
C1272 C1275 1.387 . S
H1273 C1269 0.950 . S
H1274 C1271 0.950 . S
C1275 C1266 1.390 . S
C1275 H1268 0.950 . S
C1275 C1272 1.387 . S
C1276 C1277 1.387 . S
C1276 H1280 0.950 . S
C1276 C1285 1.390 . S
C1277 C1276 1.387 . S
C1277 C1279 1.387 . S
H1278 C1285 0.950 1_556 S
C1279 C1277 1.387 . S
C1279 C1281 1.390 . S
C1279 H1283 0.950 . S
H1280 C1276 0.950 . S
C1281 C1279 1.390 . S
C1281 C1282 1.387 . S
C1281 H1284 0.950 . S
C1282 C1281 1.387 . S
C1282 C1285 1.387 . S
H1283 C1279 0.950 . S
H1284 C1281 0.950 . S
C1285 C1276 1.390 . S
C1285 H1278 0.950 1_554 S
C1285 C1282 1.387 . S
C1286 C1287 1.387 . S
C1286 H1290 0.950 . S
C1286 C1295 1.390 . S
C1287 C1286 1.387 . S
C1287 C1289 1.387 . S
H1288 C1295 0.950 . S
C1289 C1287 1.387 . S
C1289 C1291 1.390 . S
C1289 H1293 0.950 . S
H1290 C1286 0.950 . S
C1291 C1289 1.390 . S
C1291 C1292 1.387 . S
C1291 H1294 0.950 . S
C1292 C1291 1.387 . S
C1292 C1295 1.387 . S
H1293 C1289 0.950 . S
H1294 C1291 0.950 . S
C1295 C1286 1.390 . S
C1295 H1288 0.950 . S
C1295 C1292 1.387 . S
C1296 C1297 1.387 . S
C1296 H1300 0.950 . S
C1296 C1305 1.390 . S
C1297 C1296 1.387 . S
C1297 C1299 1.387 . S
H1298 C1305 0.950 . S
C1299 C1297 1.387 . S
C1299 C1301 1.390 . S
C1299 H1303 0.950 . S
H1300 C1296 0.950 . S
C1301 C1299 1.390 . S
C1301 C1302 1.387 . S
C1301 H1304 0.950 . S
C1302 C1301 1.387 . S
C1302 C1305 1.387 . S
H1303 C1299 0.950 . S
H1304 C1301 0.950 . S
C1305 C1296 1.390 . S
C1305 H1298 0.950 . S
C1305 C1302 1.387 . S
C1306 C1307 1.387 . S
C1306 H1310 0.950 . S
C1306 C1315 1.390 . S
C1307 C1306 1.387 . S
C1307 C1309 1.387 . S
H1308 C1315 0.950 . S
C1309 C1307 1.387 . S
C1309 C1311 1.390 . S
C1309 H1313 0.950 . S
H1310 C1306 0.950 . S
C1311 C1309 1.390 . S
C1311 C1312 1.387 . S
C1311 H1314 0.950 . S
C1312 C1311 1.387 . S
C1312 C1315 1.387 . S
H1313 C1309 0.950 . S
H1314 C1311 0.950 . S
C1315 C1306 1.390 . S
C1315 H1308 0.950 . S
C1315 C1312 1.387 . S
C1316 C1317 1.387 . S
C1316 H1320 0.950 . S
C1316 C1325 1.390 . S
C1317 C1316 1.387 . S
C1317 C1319 1.387 . S
H1318 C1325 0.950 . S
C1319 C1317 1.387 . S
C1319 C1321 1.390 . S
C1319 H1323 0.950 . S
H1320 C1316 0.950 . S
C1321 C1319 1.390 . S
C1321 C1322 1.387 . S
C1321 H1324 0.950 . S
C1322 C1321 1.387 . S
C1322 C1325 1.387 . S
H1323 C1319 0.950 . S
H1324 C1321 0.950 . S
C1325 C1316 1.390 . S
C1325 H1318 0.950 . S
C1325 C1322 1.387 . S
C1326 C1327 1.387 . S
C1326 H1330 0.950 . S
C1326 C1335 1.390 . S
C1327 C1326 1.387 . S
C1327 C1329 1.387 . S
H1328 C1335 0.950 . S
C1329 C1327 1.387 . S
C1329 C1331 1.390 . S
C1329 H1333 0.950 . S
H1330 C1326 0.950 . S
C1331 C1329 1.390 . S
C1331 C1332 1.387 . S
C1331 H1334 0.950 . S
C1332 C1331 1.387 . S
C1332 C1335 1.387 . S
H1333 C1329 0.950 . S
H1334 C1331 0.950 . S
C1335 C1326 1.390 . S
C1335 H1328 0.950 . S
C1335 C1332 1.387 . S
C1336 C1337 1.387 . S
C1336 H1340 0.950 . S
C1336 C1345 1.390 . S
C1337 C1336 1.387 . S
C1337 C1339 1.387 . S
H1338 C1345 0.950 . S
C1339 C1337 1.387 . S
C1339 C1341 1.390 . S
C1339 H1343 0.950 . S
H1340 C1336 0.950 . S
C1341 C1339 1.390 . S
C1341 C1342 1.387 . S
C1341 H1344 0.950 . S
C1342 C1341 1.387 . S
C1342 C1345 1.387 . S
H1343 C1339 0.950 . S
H1344 C1341 0.950 . S
C1345 C1336 1.390 . S
C1345 H1338 0.950 . S
C1345 C1342 1.387 . S
C1346 C1347 1.387 . S
C1346 H1350 0.950 . S
C1346 C1355 1.390 . S
C1347 C1346 1.387 . S
C1347 C1349 1.387 . S
H1348 C1355 0.950 . S
C1349 C1347 1.387 . S
C1349 C1351 1.390 . S
C1349 H1353 0.950 . S
H1350 C1346 0.950 . S
C1351 C1349 1.390 . S
C1351 C1352 1.387 . S
C1351 H1354 0.950 . S
C1352 C1351 1.387 . S
C1352 C1355 1.387 . S
H1353 C1349 0.950 . S
H1354 C1351 0.950 . S
C1355 C1346 1.390 . S
C1355 H1348 0.950 . S
C1355 C1352 1.387 . S
C1356 C1357 1.387 . S
C1356 H1360 0.950 . S
C1356 C1365 1.390 . S
C1357 C1356 1.387 . S
C1357 C1359 1.387 . S
H1358 C1365 0.950 . S
C1359 C1357 1.387 . S
C1359 C1361 1.390 . S
C1359 H1363 0.950 . S
H1360 C1356 0.950 . S
C1361 C1359 1.390 . S
C1361 C1362 1.387 . S
C1361 H1364 0.950 . S
C1362 C1361 1.387 . S
C1362 C1365 1.387 . S
H1363 C1359 0.950 . S
H1364 C1361 0.950 . S
C1365 C1356 1.390 . S
C1365 H1358 0.950 . S
C1365 C1362 1.387 . S
C1366 C1367 1.387 . S
C1366 H1370 0.950 . S
C1366 C1375 1.390 . S
C1367 C1366 1.387 . S
C1367 C1369 1.387 . S
H1368 C1375 0.950 . S
C1369 C1367 1.387 . S
C1369 C1371 1.390 . S
C1369 H1373 0.950 . S
H1370 C1366 0.950 . S
C1371 C1369 1.390 . S
C1371 C1372 1.387 . S
C1371 H1374 0.950 . S
C1372 C1371 1.387 . S
C1372 C1375 1.387 . S
H1373 C1369 0.950 . S
H1374 C1371 0.950 . S
C1375 C1366 1.390 . S
C1375 H1368 0.950 . S
C1375 C1372 1.387 . S
C1376 C1377 1.387 . S
C1376 H1380 0.950 . S
C1376 C1385 1.390 . S
C1377 C1376 1.387 . S
C1377 C1379 1.387 . S
H1378 C1385 0.950 . S
C1379 C1377 1.387 . S
C1379 C1381 1.390 . S
C1379 H1383 0.950 . S
H1380 C1376 0.950 . S
C1381 C1379 1.390 . S
C1381 C1382 1.387 . S
C1381 H1384 0.950 . S
C1382 C1381 1.387 . S
C1382 C1385 1.387 . S
H1383 C1379 0.950 . S
H1384 C1381 0.950 . S
C1385 C1376 1.390 . S
C1385 H1378 0.950 . S
C1385 C1382 1.387 . S
C1386 C1387 1.387 . S
C1386 H1390 0.950 . S
C1386 C1395 1.390 . S
C1387 C1386 1.387 . S
C1387 C1389 1.387 . S
H1388 C1395 0.950 . S
C1389 C1387 1.387 . S
C1389 C1391 1.390 . S
C1389 H1393 0.950 . S
H1390 C1386 0.950 . S
C1391 C1389 1.390 . S
C1391 C1392 1.387 . S
C1391 H1394 0.950 . S
C1392 C1391 1.387 . S
C1392 C1395 1.387 . S
H1393 C1389 0.950 . S
H1394 C1391 0.950 . S
C1395 C1386 1.390 . S
C1395 H1388 0.950 . S
C1395 C1392 1.387 . S
C1396 C1397 1.387 . S
C1396 H1400 0.950 . S
C1396 C1405 1.390 . S
C1397 C1396 1.387 . S
C1397 C1399 1.387 . S
H1398 C1405 0.950 . S
C1399 C1397 1.387 . S
C1399 C1401 1.390 . S
C1399 H1403 0.950 . S
H1400 C1396 0.950 . S
C1401 C1399 1.390 . S
C1401 C1402 1.387 . S
C1401 H1404 0.950 . S
C1402 C1401 1.387 . S
C1402 C1405 1.387 . S
H1403 C1399 0.950 . S
H1404 C1401 0.950 . S
C1405 C1396 1.390 . S
C1405 H1398 0.950 . S
C1405 C1402 1.387 . S
C1406 C1407 1.387 . S
C1406 H1410 0.950 . S
C1406 C1415 1.390 . S
C1407 C1406 1.387 . S
C1407 C1409 1.387 . S
H1408 C1415 0.950 . S
C1409 C1407 1.387 . S
C1409 C1411 1.390 . S
C1409 H1413 0.950 . S
H1410 C1406 0.950 . S
C1411 C1409 1.390 . S
C1411 C1412 1.387 . S
C1411 H1414 0.950 . S
C1412 C1411 1.387 . S
C1412 C1415 1.387 . S
H1413 C1409 0.950 . S
H1414 C1411 0.950 . S
C1415 C1406 1.390 . S
C1415 H1408 0.950 . S
C1415 C1412 1.387 . S
C1416 C1417 1.387 . S
C1416 H1420 0.950 . S
C1416 C1425 1.390 . S
C1417 C1416 1.387 . S
C1417 C1419 1.387 . S
H1418 C1425 0.950 . S
C1419 C1417 1.387 . S
C1419 C1421 1.390 . S
C1419 H1423 0.950 . S
H1420 C1416 0.950 . S
C1421 C1419 1.390 . S
C1421 C1422 1.387 . S
C1421 H1424 0.950 . S
C1422 C1421 1.387 . S
C1422 C1425 1.387 . S
H1423 C1419 0.950 . S
H1424 C1421 0.950 . S
C1425 C1416 1.390 . S
C1425 H1418 0.950 . S
C1425 C1422 1.387 . S
C1426 C1427 1.387 . S
C1426 H1430 0.950 . S
C1426 C1435 1.390 . S
C1427 C1426 1.387 . S
C1427 C1429 1.387 . S
H1428 C1435 0.950 . S
C1429 C1427 1.387 . S
C1429 C1431 1.390 . S
C1429 H1433 0.950 . S
H1430 C1426 0.950 . S
C1431 C1429 1.390 . S
C1431 C1432 1.387 . S
C1431 H1434 0.950 . S
C1432 C1431 1.387 . S
C1432 C1435 1.387 . S
H1433 C1429 0.950 . S
H1434 C1431 0.950 . S
C1435 C1426 1.390 . S
C1435 H1428 0.950 . S
C1435 C1432 1.387 . S
C1436 C1437 1.387 . S
C1436 H1440 0.950 . S
C1436 C1445 1.390 . S
C1437 C1436 1.387 . S
C1437 C1439 1.387 . S
H1438 C1445 0.950 . S
C1439 C1437 1.387 . S
C1439 C1441 1.390 . S
C1439 H1443 0.950 . S
H1440 C1436 0.950 . S
C1441 C1439 1.390 . S
C1441 C1442 1.387 . S
C1441 H1444 0.950 . S
C1442 C1441 1.387 . S
C1442 C1445 1.387 . S
H1443 C1439 0.950 . S
H1444 C1441 0.950 . S
C1445 C1436 1.390 . S
C1445 H1438 0.950 . S
C1445 C1442 1.387 . S
C1446 C1447 1.387 . S
C1446 H1450 0.950 . S
C1446 C1455 1.390 . S
C1447 C1446 1.387 . S
C1447 C1449 1.387 . S
H1448 C1455 0.950 . S
C1449 C1447 1.387 . S
C1449 C1451 1.390 . S
C1449 H1453 0.950 . S
H1450 C1446 0.950 . S
C1451 C1449 1.390 . S
C1451 C1452 1.387 . S
C1451 H1454 0.950 . S
C1452 C1451 1.387 . S
C1452 C1455 1.387 . S
H1453 C1449 0.950 . S
H1454 C1451 0.950 . S
C1455 C1446 1.390 . S
C1455 H1448 0.950 . S
C1455 C1452 1.387 . S
C1456 C1457 1.387 . S
C1456 H1460 0.950 . S
C1456 C1465 1.390 . S
C1457 C1456 1.387 . S
C1457 C1459 1.387 . S
H1458 C1465 0.950 . S
C1459 C1457 1.387 . S
C1459 C1461 1.390 . S
C1459 H1463 0.950 . S
H1460 C1456 0.950 . S
C1461 C1459 1.390 . S
C1461 C1462 1.387 . S
C1461 H1464 0.950 . S
C1462 C1461 1.387 . S
C1462 C1465 1.387 . S
H1463 C1459 0.950 . S
H1464 C1461 0.950 . S
C1465 C1456 1.390 . S
C1465 H1458 0.950 . S
C1465 C1462 1.387 . S
C1466 C1467 1.387 . S
C1466 H1470 0.950 . S
C1466 C1475 1.390 . S
C1467 C1466 1.387 . S
C1467 C1469 1.387 . S
H1468 C1475 0.950 . S
C1469 C1467 1.387 . S
C1469 C1471 1.390 . S
C1469 H1473 0.950 . S
H1470 C1466 0.950 . S
C1471 C1469 1.390 . S
C1471 C1472 1.387 . S
C1471 H1474 0.950 . S
C1472 C1471 1.387 . S
C1472 C1475 1.387 . S
H1473 C1469 0.950 . S
H1474 C1471 0.950 . S
C1475 C1466 1.390 . S
C1475 H1468 0.950 . S
C1475 C1472 1.387 . S
C1002 C707 1.379 . S
C997 C74 1.284 . S
C1012 C685 0.303 . S
C1007 C142 0.864 . S
C1022 C682 1.058 . S
C1017 C231 1.012 . S
C1027 C322 1.584 . S
C1032 C694 1.536 . S
C1037 C406 0.869 . S
C1042 C677 0.304 . S
C1052 C699 1.056 . S
C1047 C494 1.012 . S
C1057 C562 1.595 . S
C1062 C704 1.544 . S
C1067 C651 1.290 . S
C1072 C700 1.380 . S
C1082 C758 1.576 . S
C1077 C58 1.547 . S
C1087 C151 1.478 . S
C1092 C808 1.524 . S
C1102 C731 2.773 . S
C1097 C224 2.641 . S
C1112 C807 1.064 . S
C1107 C315 1.008 . S
C1117 C399 1.024 . S
C1122 C736 1.106 . S
C1132 C802 1.589 . S
C1127 C478 1.591 . S
C1137 C571 1.365 . S
C1142 C761 1.486 . S
C1147 C644 2.650 . S
C1152 C793 2.751 . S
C1157 C67 2.650 . S
C1162 C785 2.753 . S
C1167 C392 1.481 . S
C1172 C815 1.525 . S
C1182 C739 2.793 . S
C1177 C487 2.649 . S
C1192 C790 1.076 . S
C1187 C578 1.017 . S
C1197 C658 1.551 . S
C1202 C748 1.577 . S
C1207 C238 1.606 . S
C1212 C812 1.607 . S
C1222 C754 1.500 . S
C1217 C308 1.377 . S
C1227 C158 1.033 . S
C1232 C753 1.115 . S
C1237 C662 1.283 . S
C1242 C869 1.379 . S
C1247 C394 0.867 . S
C1252 C847 0.296 . S
C1262 C844 1.058 . S
C1257 C483 1.012 . S
C1272 C856 1.535 . S
C1267 C574 1.584 . S
C1277 C154 0.869 . S
C1282 C839 0.304 . S
C1292 C861 1.059 . S
C1287 C242 1.017 . S
C1297 C310 1.592 . S
C1302 C866 1.548 . S
C1307 C63 1.286 . S
C1312 C862 1.380 . S
C1317 C646 1.545 . S
C1322 C920 1.574 . S
C1332 C970 1.524 . S
C1327 C403 1.478 . S
C1337 C476 2.641 . S
C1342 C893 2.773 . S
C1347 C567 1.005 . S
C1352 C969 1.064 . S
C1362 C898 1.104 . S
C1357 C147 1.028 . S
C1367 C226 1.589 . S
C1372 C964 1.589 . S
C1382 C923 1.488 . S
C1377 C319 1.369 . S
C1392 C955 2.750 . S
C1387 C56 2.650 . S
C1402 C947 2.752 . S
C1397 C655 2.650 . S
C1407 C140 1.480 . S
C1412 C977 1.525 . S
C1417 C235 2.652 . S
C1422 C901 2.793 . S
C1432 C952 1.076 . S
C1427 C326 1.018 . S
C1437 C70 1.550 . S
C1442 C910 1.578 . S
C1447 C490 1.608 . S
C1452 C974 1.608 . S
C1462 C916 1.499 . S
C1457 C560 1.373 . S
C1472 C915 1.112 . S
C1467 C410 1.034 . S
