# Generated by pormake.
# Topology gar, (4,6)-cn, num edge types: 1
# Building blocks:
#     Node 0, Type 0, BuildingBlock: CEKHIL_clean_sbu_0, # of connection points: 4
#     Node 1, Type 0, BuildingBlock: CEKHIL_clean_sbu_0, # of connection points: 4
#     Node 2, Type 0, BuildingBlock: CEKHIL_clean_sbu_0, # of connection points: 4
#     Node 3, Type 0, BuildingBlock: CEKHIL_clean_sbu_0, # of connection points: 4
#     Node 4, Type 0, BuildingBlock: CEKHIL_clean_sbu_0, # of connection points: 4
#     Node 5, Type 0, BuildingBlock: CEKHIL_clean_sbu_0, # of connection points: 4
#     Node 6, Type 0, BuildingBlock: CEKHIL_clean_sbu_0, # of connection points: 4
#     Node 7, Type 0, BuildingBlock: CEKHIL_clean_sbu_0, # of connection points: 4
#     Node 8, Type 0, BuildingBlock: CEKHIL_clean_sbu_0, # of connection points: 4
#     Node 9, Type 0, BuildingBlock: CEKHIL_clean_sbu_0, # of connection points: 4
#     Node 10, Type 0, BuildingBlock: CEKHIL_clean_sbu_0, # of connection points: 4
#     Node 11, Type 0, BuildingBlock: CEKHIL_clean_sbu_0, # of connection points: 4
#     Node 12, Type 0, BuildingBlock: CEKHIL_clean_sbu_0, # of connection points: 4
#     Node 13, Type 0, BuildingBlock: CEKHIL_clean_sbu_0, # of connection points: 4
#     Node 14, Type 0, BuildingBlock: CEKHIL_clean_sbu_0, # of connection points: 4
#     Node 15, Type 0, BuildingBlock: CEKHIL_clean_sbu_0, # of connection points: 4
#     Node 16, Type 0, BuildingBlock: CEKHIL_clean_sbu_0, # of connection points: 4
#     Node 17, Type 0, BuildingBlock: CEKHIL_clean_sbu_0, # of connection points: 4
#     Node 18, Type 0, BuildingBlock: CEKHIL_clean_sbu_0, # of connection points: 4
#     Node 19, Type 0, BuildingBlock: CEKHIL_clean_sbu_0, # of connection points: 4
#     Node 20, Type 0, BuildingBlock: CEKHIL_clean_sbu_0, # of connection points: 4
#     Node 21, Type 0, BuildingBlock: CEKHIL_clean_sbu_0, # of connection points: 4
#     Node 22, Type 0, BuildingBlock: CEKHIL_clean_sbu_0, # of connection points: 4
#     Node 23, Type 0, BuildingBlock: CEKHIL_clean_sbu_0, # of connection points: 4
#     Node 24, Type 1, BuildingBlock: BETDEL_clean_sbu_0, # of connection points: 6
#     Node 25, Type 1, BuildingBlock: BETDEL_clean_sbu_0, # of connection points: 6
#     Node 26, Type 1, BuildingBlock: BETDEL_clean_sbu_0, # of connection points: 6
#     Node 27, Type 1, BuildingBlock: BETDEL_clean_sbu_0, # of connection points: 6
#     Node 28, Type 1, BuildingBlock: BETDEL_clean_sbu_0, # of connection points: 6
#     Node 29, Type 1, BuildingBlock: BETDEL_clean_sbu_0, # of connection points: 6
#     Node 30, Type 1, BuildingBlock: BETDEL_clean_sbu_0, # of connection points: 6
#     Node 31, Type 1, BuildingBlock: BETDEL_clean_sbu_0, # of connection points: 6
#     Node 32, Type 1, BuildingBlock: BETDEL_clean_sbu_0, # of connection points: 6
#     Node 33, Type 1, BuildingBlock: BETDEL_clean_sbu_0, # of connection points: 6
#     Node 34, Type 1, BuildingBlock: BETDEL_clean_sbu_0, # of connection points: 6
#     Node 35, Type 1, BuildingBlock: BETDEL_clean_sbu_0, # of connection points: 6
#     Node 36, Type 1, BuildingBlock: BETDEL_clean_sbu_0, # of connection points: 6
#     Node 37, Type 1, BuildingBlock: BETDEL_clean_sbu_0, # of connection points: 6
#     Node 38, Type 1, BuildingBlock: BETDEL_clean_sbu_0, # of connection points: 6
#     Node 39, Type 1, BuildingBlock: BETDEL_clean_sbu_0, # of connection points: 6
#     Edge 40, Type (0, 1), BuildingBlock: XUDNAN_clean_linker_2, # of connection points: 2
#     Edge 41, Type (0, 1), BuildingBlock: XUDNAN_clean_linker_2, # of connection points: 2
#     Edge 42, Type (0, 1), BuildingBlock: XUDNAN_clean_linker_2, # of connection points: 2
#     Edge 43, Type (0, 1), BuildingBlock: XUDNAN_clean_linker_2, # of connection points: 2
#     Edge 44, Type (0, 1), BuildingBlock: XUDNAN_clean_linker_2, # of connection points: 2
#     Edge 45, Type (0, 1), BuildingBlock: XUDNAN_clean_linker_2, # of connection points: 2
#     Edge 46, Type (0, 1), BuildingBlock: XUDNAN_clean_linker_2, # of connection points: 2
#     Edge 47, Type (0, 1), BuildingBlock: XUDNAN_clean_linker_2, # of connection points: 2
#     Edge 48, Type (0, 1), BuildingBlock: XUDNAN_clean_linker_2, # of connection points: 2
#     Edge 49, Type (0, 1), BuildingBlock: XUDNAN_clean_linker_2, # of connection points: 2
#     Edge 50, Type (0, 1), BuildingBlock: XUDNAN_clean_linker_2, # of connection points: 2
#     Edge 51, Type (0, 1), BuildingBlock: XUDNAN_clean_linker_2, # of connection points: 2
#     Edge 52, Type (0, 1), BuildingBlock: XUDNAN_clean_linker_2, # of connection points: 2
#     Edge 53, Type (0, 1), BuildingBlock: XUDNAN_clean_linker_2, # of connection points: 2
#     Edge 54, Type (0, 1), BuildingBlock: XUDNAN_clean_linker_2, # of connection points: 2
#     Edge 55, Type (0, 1), BuildingBlock: XUDNAN_clean_linker_2, # of connection points: 2
#     Edge 56, Type (0, 1), BuildingBlock: XUDNAN_clean_linker_2, # of connection points: 2
#     Edge 57, Type (0, 1), BuildingBlock: XUDNAN_clean_linker_2, # of connection points: 2
#     Edge 58, Type (0, 1), BuildingBlock: XUDNAN_clean_linker_2, # of connection points: 2
#     Edge 59, Type (0, 1), BuildingBlock: XUDNAN_clean_linker_2, # of connection points: 2
#     Edge 60, Type (0, 1), BuildingBlock: XUDNAN_clean_linker_2, # of connection points: 2
#     Edge 61, Type (0, 1), BuildingBlock: XUDNAN_clean_linker_2, # of connection points: 2
#     Edge 62, Type (0, 1), BuildingBlock: XUDNAN_clean_linker_2, # of connection points: 2
#     Edge 63, Type (0, 1), BuildingBlock: XUDNAN_clean_linker_2, # of connection points: 2
#     Edge 64, Type (0, 1), BuildingBlock: XUDNAN_clean_linker_2, # of connection points: 2
#     Edge 65, Type (0, 1), BuildingBlock: XUDNAN_clean_linker_2, # of connection points: 2
#     Edge 66, Type (0, 1), BuildingBlock: XUDNAN_clean_linker_2, # of connection points: 2
#     Edge 67, Type (0, 1), BuildingBlock: XUDNAN_clean_linker_2, # of connection points: 2
#     Edge 68, Type (0, 1), BuildingBlock: XUDNAN_clean_linker_2, # of connection points: 2
#     Edge 69, Type (0, 1), BuildingBlock: XUDNAN_clean_linker_2, # of connection points: 2
#     Edge 70, Type (0, 1), BuildingBlock: XUDNAN_clean_linker_2, # of connection points: 2
#     Edge 71, Type (0, 1), BuildingBlock: XUDNAN_clean_linker_2, # of connection points: 2
#     Edge 72, Type (0, 1), BuildingBlock: XUDNAN_clean_linker_2, # of connection points: 2
#     Edge 73, Type (0, 1), BuildingBlock: XUDNAN_clean_linker_2, # of connection points: 2
#     Edge 74, Type (0, 1), BuildingBlock: XUDNAN_clean_linker_2, # of connection points: 2
#     Edge 75, Type (0, 1), BuildingBlock: XUDNAN_clean_linker_2, # of connection points: 2
#     Edge 76, Type (0, 1), BuildingBlock: XUDNAN_clean_linker_2, # of connection points: 2
#     Edge 77, Type (0, 1), BuildingBlock: XUDNAN_clean_linker_2, # of connection points: 2
#     Edge 78, Type (0, 1), BuildingBlock: XUDNAN_clean_linker_2, # of connection points: 2
#     Edge 79, Type (0, 1), BuildingBlock: XUDNAN_clean_linker_2, # of connection points: 2
#     Edge 80, Type (0, 1), BuildingBlock: XUDNAN_clean_linker_2, # of connection points: 2
#     Edge 81, Type (0, 1), BuildingBlock: XUDNAN_clean_linker_2, # of connection points: 2
#     Edge 82, Type (0, 1), BuildingBlock: XUDNAN_clean_linker_2, # of connection points: 2
#     Edge 83, Type (0, 1), BuildingBlock: XUDNAN_clean_linker_2, # of connection points: 2
#     Edge 84, Type (0, 1), BuildingBlock: XUDNAN_clean_linker_2, # of connection points: 2
#     Edge 85, Type (0, 1), BuildingBlock: XUDNAN_clean_linker_2, # of connection points: 2
#     Edge 86, Type (0, 1), BuildingBlock: XUDNAN_clean_linker_2, # of connection points: 2
#     Edge 87, Type (0, 1), BuildingBlock: XUDNAN_clean_linker_2, # of connection points: 2
#     Edge 88, Type (0, 1), BuildingBlock: XUDNAN_clean_linker_2, # of connection points: 2
#     Edge 89, Type (0, 1), BuildingBlock: XUDNAN_clean_linker_2, # of connection points: 2
#     Edge 90, Type (0, 1), BuildingBlock: XUDNAN_clean_linker_2, # of connection points: 2
#     Edge 91, Type (0, 1), BuildingBlock: XUDNAN_clean_linker_2, # of connection points: 2
#     Edge 92, Type (0, 1), BuildingBlock: XUDNAN_clean_linker_2, # of connection points: 2
#     Edge 93, Type (0, 1), BuildingBlock: XUDNAN_clean_linker_2, # of connection points: 2
#     Edge 94, Type (0, 1), BuildingBlock: XUDNAN_clean_linker_2, # of connection points: 2
#     Edge 95, Type (0, 1), BuildingBlock: XUDNAN_clean_linker_2, # of connection points: 2
#     Edge 96, Type (0, 1), BuildingBlock: XUDNAN_clean_linker_2, # of connection points: 2
#     Edge 97, Type (0, 1), BuildingBlock: XUDNAN_clean_linker_2, # of connection points: 2
#     Edge 98, Type (0, 1), BuildingBlock: XUDNAN_clean_linker_2, # of connection points: 2
#     Edge 99, Type (0, 1), BuildingBlock: XUDNAN_clean_linker_2, # of connection points: 2
#     Edge 100, Type (0, 1), BuildingBlock: XUDNAN_clean_linker_2, # of connection points: 2
#     Edge 101, Type (0, 1), BuildingBlock: XUDNAN_clean_linker_2, # of connection points: 2
#     Edge 102, Type (0, 1), BuildingBlock: XUDNAN_clean_linker_2, # of connection points: 2
#     Edge 103, Type (0, 1), BuildingBlock: XUDNAN_clean_linker_2, # of connection points: 2
#     Edge 104, Type (0, 1), BuildingBlock: XUDNAN_clean_linker_2, # of connection points: 2
#     Edge 105, Type (0, 1), BuildingBlock: XUDNAN_clean_linker_2, # of connection points: 2
#     Edge 106, Type (0, 1), BuildingBlock: XUDNAN_clean_linker_2, # of connection points: 2
#     Edge 107, Type (0, 1), BuildingBlock: XUDNAN_clean_linker_2, # of connection points: 2
#     Edge 108, Type (0, 1), BuildingBlock: XUDNAN_clean_linker_2, # of connection points: 2
#     Edge 109, Type (0, 1), BuildingBlock: XUDNAN_clean_linker_2, # of connection points: 2
#     Edge 110, Type (0, 1), BuildingBlock: XUDNAN_clean_linker_2, # of connection points: 2
#     Edge 111, Type (0, 1), BuildingBlock: XUDNAN_clean_linker_2, # of connection points: 2
#     Edge 112, Type (0, 1), BuildingBlock: XUDNAN_clean_linker_2, # of connection points: 2
#     Edge 113, Type (0, 1), BuildingBlock: XUDNAN_clean_linker_2, # of connection points: 2
#     Edge 114, Type (0, 1), BuildingBlock: XUDNAN_clean_linker_2, # of connection points: 2
#     Edge 115, Type (0, 1), BuildingBlock: XUDNAN_clean_linker_2, # of connection points: 2
#     Edge 116, Type (0, 1), BuildingBlock: XUDNAN_clean_linker_2, # of connection points: 2
#     Edge 117, Type (0, 1), BuildingBlock: XUDNAN_clean_linker_2, # of connection points: 2
#     Edge 118, Type (0, 1), BuildingBlock: XUDNAN_clean_linker_2, # of connection points: 2
#     Edge 119, Type (0, 1), BuildingBlock: XUDNAN_clean_linker_2, # of connection points: 2
#     Edge 120, Type (0, 1), BuildingBlock: XUDNAN_clean_linker_2, # of connection points: 2
#     Edge 121, Type (0, 1), BuildingBlock: XUDNAN_clean_linker_2, # of connection points: 2
#     Edge 122, Type (0, 1), BuildingBlock: XUDNAN_clean_linker_2, # of connection points: 2
#     Edge 123, Type (0, 1), BuildingBlock: XUDNAN_clean_linker_2, # of connection points: 2
#     Edge 124, Type (0, 1), BuildingBlock: XUDNAN_clean_linker_2, # of connection points: 2
#     Edge 125, Type (0, 1), BuildingBlock: XUDNAN_clean_linker_2, # of connection points: 2
#     Edge 126, Type (0, 1), BuildingBlock: XUDNAN_clean_linker_2, # of connection points: 2
#     Edge 127, Type (0, 1), BuildingBlock: XUDNAN_clean_linker_2, # of connection points: 2
#     Edge 128, Type (0, 1), BuildingBlock: XUDNAN_clean_linker_2, # of connection points: 2
#     Edge 129, Type (0, 1), BuildingBlock: XUDNAN_clean_linker_2, # of connection points: 2
#     Edge 130, Type (0, 1), BuildingBlock: XUDNAN_clean_linker_2, # of connection points: 2
#     Edge 131, Type (0, 1), BuildingBlock: XUDNAN_clean_linker_2, # of connection points: 2
#     Edge 132, Type (0, 1), BuildingBlock: XUDNAN_clean_linker_2, # of connection points: 2
#     Edge 133, Type (0, 1), BuildingBlock: XUDNAN_clean_linker_2, # of connection points: 2
#     Edge 134, Type (0, 1), BuildingBlock: XUDNAN_clean_linker_2, # of connection points: 2
#     Edge 135, Type (0, 1), BuildingBlock: XUDNAN_clean_linker_2, # of connection points: 2
# Relax obj value: 0.142
# Max RMSD: 0.266
# Mean RMSD: 0.142
data_MOF--net-gar--node1-CEKHIL_clean_sbu_0--node2-BETDEL_clean_sbu_0--edge1-XUDNAN_clean_linker_2
_symmetry_space_group_name_H-M    P1
_symmetry_Int_Tables_number       1
_symmetry_cell_setting            triclinic
loop_
_symmetry_equiv_pos_as_xyz
'x, y, z'
_cell_length_a     55.941202
_cell_length_b     52.648525
_cell_length_c     53.531838
_cell_angle_alpha  95.140571
_cell_angle_beta   92.47699
_cell_angle_gamma 100.14226
loop_
_atom_site_label
_atom_site_type_symbol
_atom_site_fract_x
_atom_site_fract_y
_atom_site_fract_z
_atom_type_partial_charge
Co0 Co 0.05059 0.28719 0.39433 0.0
O1 O 0.08444 0.28433 0.39975 0.0
O2 O 0.0622 0.27138 0.36419 0.0
C3 C 0.05371 0.32877 0.41057 0.0
O4 O 0.01595 0.28795 0.38089 0.0
Co5 Co 0.01832 0.29642 0.4386 0.0
O6 O 0.99336 0.29988 0.41212 0.0
C7 C 0.03287 0.24573 0.42888 0.0
C8 C 0.08314 0.27423 0.37659 0.0
C9 C 0.99613 0.29417 0.38891 0.0
O10 O 0.04026 0.25223 0.40746 0.0
O11 O 0.0258 0.26158 0.44527 0.0
O12 O 0.05971 0.32328 0.3878 0.0
O13 O 0.04861 0.30921 0.42364 0.0
Co14 Co 0.98915 0.78203 0.62965 0.0
O15 O 0.95568 0.78654 0.62523 0.0
O16 O 0.97136 0.7729 0.65902 0.0
C17 C 1.0043 0.82077 0.61549 0.0
O18 O 0.02258 0.77622 0.64274 0.0
Co19 Co 0.02494 0.78149 0.58755 0.0
O20 O 0.05077 0.78301 0.61443 0.0
C21 C 0.98846 0.73436 0.5932 0.0
C22 C 0.95275 0.77963 0.64774 0.0
C23 C 0.04475 0.77808 0.63637 0.0
O24 O 0.98098 0.74501 0.61333 0.0
O25 O 1.00452 0.74611 0.57988 0.0
O26 O 0.99888 0.81947 0.63876 0.0
O27 O 1.00013 0.79909 0.60141 0.0
Co28 Co 0.53375 0.78228 0.89087 0.0
O29 O 0.56804 0.78158 0.88821 0.0
O30 O 0.53939 0.76492 0.85861 0.0
C31 C 0.53831 0.82435 0.9065 0.0
O32 O 0.49686 0.78132 0.88571 0.0
Co33 Co 0.51263 0.79327 0.94288 0.0
O34 O 0.48458 0.79896 0.92167 0.0
C35 C 0.52812 0.74348 0.93006 0.0
C36 C 0.56237 0.7698 0.86584 0.0
C37 C 0.48086 0.791 0.89839 0.0
O38 O 0.52931 0.74807 0.9068 0.0
O39 O 0.52409 0.76006 0.94759 0.0
O40 O 0.53921 0.81835 0.88249 0.0
O41 O 0.53712 0.80524 0.92011 0.0
Co42 Co 0.50015 0.27909 0.12706 0.0
O43 O 0.46613 0.28098 0.13091 0.0
O44 O 0.4918 0.27552 0.1616 0.0
C45 C 0.50753 0.31403 0.1044 0.0
O46 O 0.53664 0.27699 0.13121 0.0
Co47 Co 0.52112 0.27123 0.07454 0.0
O48 O 0.55305 0.27823 0.09366 0.0
C49 C 0.48903 0.22797 0.09477 0.0
C50 C 0.46999 0.27845 0.15455 0.0
C51 C 0.55515 0.27796 0.11743 0.0
O52 O 0.49103 0.24024 0.11699 0.0
O53 O 0.49753 0.23806 0.0754 0.0
O54 O 0.50825 0.31733 0.12881 0.0
O55 O 0.50146 0.29036 0.09484 0.0
Co56 Co 0.04069 0.79733 0.14709 0.0
O57 O 1.00607 0.78658 0.13913 0.0
O58 O 0.0241 0.78874 0.17707 0.0
C59 C 0.04482 0.83269 0.12528 0.0
O60 O 0.0752 0.80794 0.16367 0.0
Co61 Co 0.07922 0.80081 0.10714 0.0
O62 O 0.1037 0.81324 0.13536 0.0
C63 C 0.05448 0.74949 0.11945 0.0
C64 C 1.00409 0.78389 0.16288 0.0
C65 C 0.09755 0.81358 0.15798 0.0
O66 O 0.04546 0.76022 0.13864 0.0
O67 O 0.06659 0.76254 0.10363 0.0
O68 O 0.03715 0.83384 0.14786 0.0
O69 O 0.04852 0.81024 0.11627 0.0
Co70 Co 0.51351 0.76931 0.37466 0.0
O71 O 0.54885 0.77714 0.376 0.0
O72 O 0.52538 0.75585 0.34382 0.0
C73 C 0.50831 0.80926 0.38967 0.0
O74 O 0.47719 0.75855 0.36449 0.0
Co75 Co 0.48185 0.77282 0.42016 0.0
O76 O 0.45497 0.77286 0.39473 0.0
C77 C 0.50805 0.72878 0.41208 0.0
C78 C 0.54716 0.76568 0.35328 0.0
C79 C 0.45688 0.76356 0.37229 0.0
O80 O 0.51476 0.73609 0.39069 0.0
O81 O 0.49591 0.7414 0.42687 0.0
O82 O 0.51189 0.80432 0.36603 0.0
O83 O 0.50924 0.79064 0.4036 0.0
Co84 Co 0.54008 0.29769 0.64793 0.0
O85 O 0.50477 0.28934 0.64666 0.0
O86 O 0.52914 0.29058 0.68058 0.0
C87 C 0.54184 0.33235 0.62512 0.0
O88 O 0.57628 0.30613 0.65855 0.0
Co89 Co 0.57209 0.29871 0.60227 0.0
O90 O 0.60011 0.3136 0.62646 0.0
C91 C 0.54763 0.24863 0.61812 0.0
C92 C 0.50712 0.28707 0.67062 0.0
C93 C 0.5973 0.31263 0.64984 0.0
O94 O 0.5423 0.26 0.63895 0.0
O95 O 0.55707 0.26088 0.60029 0.0
O96 O 0.53818 0.33482 0.64899 0.0
O97 O 0.54338 0.30929 0.61583 0.0
Co98 Co 0.01067 0.26716 0.86979 0.0
O99 O 0.04622 0.27362 0.87324 0.0
O100 O 0.02386 0.25755 0.83851 0.0
C101 C 1.00532 0.30529 0.88956 0.0
O102 O 0.97495 0.25892 0.85668 0.0
Co103 Co 0.97518 0.26467 0.91272 0.0
O104 O 0.94897 0.26445 0.88653 0.0
C105 C 1.00257 0.22205 0.90166 0.0
C106 C 0.04534 0.26532 0.84948 0.0
C107 C 0.95334 0.25998 0.86359 0.0
O108 O 0.00975 0.23133 0.88119 0.0
O109 O 0.99017 0.2334 0.91722 0.0
O110 O 0.01121 0.30401 0.8663 0.0
O111 O 1.00437 0.2843 0.90047 0.0
Co112 Co 0.41114 0.05054 0.29844 0.0
O113 O 0.403 0.08356 0.29203 0.0
O114 O 0.37728 0.04592 0.288 0.0
C115 C 0.43248 0.06468 0.33502 0.0
O116 O 0.41117 0.01292 0.30361 0.0
Co117 Co 0.46337 0.03879 0.30411 0.0
O118 O 0.44816 1.00316 0.31047 0.0
C119 C 0.4416 0.04465 0.25394 0.0
C120 C 0.38099 0.07077 0.28669 0.0
C121 C 0.42509 0.99677 0.30822 0.0
O122 O 0.42059 0.04502 0.26277 0.0
O123 O 0.46084 0.04435 0.26767 0.0
O124 O 0.40888 0.05853 0.33449 0.0
O125 O 0.44221 0.06312 0.3137 0.0
Co126 Co 0.27334 0.1524 0.48903 0.0
O127 O 0.30834 0.15308 0.49325 0.0
O128 O 0.27983 0.11988 0.49917 0.0
C129 C 0.2743 0.16982 0.45134 0.0
O130 O 0.23615 0.14189 0.48555 0.0
Co131 Co 0.24927 0.20002 0.48692 0.0
O132 O 0.21904 0.17522 0.47545 0.0
C133 C 0.26605 0.18709 0.53648 0.0
C134 C 0.30286 0.1293 0.49885 0.0
C135 C 0.21744 0.15139 0.47886 0.0
O136 O 0.27229 0.16655 0.52558 0.0
O137 O 0.25753 0.20365 0.52421 0.0
O138 O 0.27472 0.14537 0.45269 0.0
O139 O 0.27486 0.18349 0.4728 0.0
Co140 Co 0.1538 0.00864 0.79074 0.0
O141 O 0.14787 0.97119 0.78262 0.0
O142 O 0.18363 0.99657 0.78187 0.0
C143 C 0.13263 0.00809 0.82641 0.0
O144 O 0.16844 0.0473 0.79795 0.0
Co145 Co 0.11413 0.04243 0.79421 0.0
O146 O 0.14044 0.07292 0.80173 0.0
C147 C 0.12736 0.0226 0.7443 0.0
C148 C 0.17088 0.97329 0.77869 0.0
C149 C 0.16247 0.06987 0.80144 0.0
O150 O 0.14499 0.01328 0.75426 0.0
O151 O 0.11236 0.03325 0.75707 0.0
O152 O 0.15504 0.00446 0.82699 0.0
O153 O 0.12343 0.01086 0.80452 0.0
Co154 Co 0.25145 0.90335 0.99986 0.0
O155 O 0.2196 0.9102 0.00702 0.0
O156 O 0.25448 0.93577 0.02054 0.0
C157 C 0.24298 0.89207 0.95853 0.0
O158 O 0.28757 0.90428 0.99566 0.0
Co159 Co 0.26137 0.84991 0.97713 0.0
O160 O 0.29327 0.87017 0.96978 0.0
C161 C 0.24846 0.85778 0.03018 0.0
C162 C 0.23085 0.93185 0.01902 0.0
C163 C 0.30109 0.89229 0.98178 0.0
O164 O 0.25177 0.88263 0.02981 0.0
O165 O 0.24935 0.84203 0.01072 0.0
O166 O 0.24877 0.91645 0.96691 0.0
O167 O 0.24112 0.87588 0.97526 0.0
Co168 Co 0.26553 0.40168 0.02499 0.0
O169 O 0.23033 0.39135 0.02303 0.0
O170 O 0.25032 0.43076 0.03592 0.0
C171 C 0.27142 0.38299 0.98623 0.0
O172 O 0.30082 0.42136 0.0287 0.0
Co173 Co 0.30226 0.36393 0.02201 0.0
O174 O 0.32678 0.395 0.0175 0.0
C175 C 0.27596 0.37065 0.06856 0.0
C176 C 0.22959 0.41534 0.03072 0.0
C177 C 0.32228 0.41755 0.02348 0.0
O178 O 0.26737 0.38991 0.06042 0.0
O179 O 0.28857 0.35717 0.05522 0.0
O180 O 0.26463 0.40541 0.98866 0.0
O181 O 0.27292 0.37204 0.0067 0.0
Co182 Co 0.78414 0.1369 0.0141 0.0
O183 O 0.81813 0.13512 0.01175 0.0
O184 O 0.7909 0.1058 0.02729 0.0
C185 C 0.77907 0.14776 0.97478 0.0
O186 O 0.74779 0.13075 0.019 0.0
Co187 Co 0.76206 0.18616 0.00686 0.0
O188 O 0.73 0.16272 0.00612 0.0
C189 C 0.79241 0.18261 0.05284 0.0
C190 C 0.81311 0.11302 0.02114 0.0
C191 C 0.7288 0.14051 0.01419 0.0
O192 O 0.79121 0.15799 0.04782 0.0
O193 O 0.78428 0.19712 0.0378 0.0
O194 O 0.7777 0.12351 0.97859 0.0
O195 O 0.78407 0.16428 0.99429 0.0
Co196 Co 0.14798 0.51523 0.24245 0.0
O197 O 0.15485 0.48086 0.24424 0.0
O198 O 0.18231 0.51593 0.23986 0.0
C199 C 0.1238 0.51446 0.27502 0.0
O200 O 0.14877 0.55381 0.24096 0.0
Co201 Co 0.09582 0.52748 0.23394 0.0
O202 O 0.1116 0.56368 0.24533 0.0
C203 C 0.11981 0.50136 0.19317 0.0
C204 C 0.17749 0.49129 0.24239 0.0
C205 C 0.13456 0.57033 0.2446 0.0
O206 O 0.14089 0.50759 0.20497 0.0
O207 O 0.10001 0.50546 0.20256 0.0
O208 O 0.14731 0.52008 0.27923 0.0
O209 O 0.11612 0.50827 0.25193 0.0
Co210 Co 0.76363 0.89547 0.52445 0.0
O211 O 0.72856 0.88486 0.5208 0.0
O212 O 0.74758 0.92461 0.53353 0.0
C213 C 0.7719 0.87591 0.48712 0.0
O214 O 0.79908 0.91485 0.52935 0.0
Co215 Co 0.7994 0.85679 0.52657 0.0
O216 O 0.82441 0.88694 0.52082 0.0
C217 C 0.77114 0.86669 0.57064 0.0
C218 C 0.72709 0.90874 0.52807 0.0
C219 C 0.82048 0.90997 0.52513 0.0
O220 O 0.76322 0.8851 0.56027 0.0
O221 O 0.78471 0.85245 0.55975 0.0
O222 O 0.7648 0.89818 0.48819 0.0
O223 O 0.77182 0.86532 0.50797 0.0
Co224 Co 0.89375 0.0447 0.24474 0.0
O225 O 0.89257 0.08172 0.25001 0.0
O226 O 0.86175 0.05128 0.23518 0.0
C227 C 0.91353 0.04106 0.28222 0.0
O228 O 0.88596 0.00481 0.23839 0.0
Co229 Co 0.94169 0.02261 0.24284 0.0
O230 O 0.92003 0.98963 0.24744 0.0
C231 C 0.92559 0.04656 0.19909 0.0
C232 C 0.86981 0.0757 0.24195 0.0
C233 C 0.8971 0.98601 0.24269 0.0
O234 O 0.90524 0.04888 0.20903 0.0
O235 O 0.94275 0.03807 0.21029 0.0
O236 O 0.8903 0.04137 0.28107 0.0
O237 O 0.92403 0.04551 0.2617 0.0
Co238 Co 0.28161 0.63898 0.51356 0.0
O239 O 0.31611 0.63899 0.51201 0.0
O240 O 0.2877 0.60435 0.51461 0.0
C241 C 0.27824 0.66456 0.48265 0.0
O242 O 0.24496 0.62988 0.51442 0.0
Co243 Co 0.25837 0.68779 0.52572 0.0
O244 O 0.22637 0.66419 0.5202 0.0
C245 C 0.28795 0.66852 0.56396 0.0
C246 C 0.31046 0.61399 0.51268 0.0
C247 C 0.22567 0.63983 0.5165 0.0
O248 O 0.28531 0.64613 0.5513 0.0
O249 O 0.28188 0.68838 0.55505 0.0
O250 O 0.27861 0.64007 0.47701 0.0
O251 O 0.28162 0.67285 0.50608 0.0
Co252 Co 0.38724 0.54736 0.7483 0.0
O253 O 0.3858 0.58421 0.75372 0.0
O254 O 0.3551 0.55363 0.73883 0.0
C255 C 0.40653 0.54375 0.78588 0.0
O256 O 0.38024 0.5075 0.74194 0.0
Co257 Co 0.43634 0.52742 0.74681 0.0
O258 O 0.41531 0.49331 0.74894 0.0
C259 C 0.42077 0.55349 0.70467 0.0
C260 C 0.36294 0.578 0.74617 0.0
C261 C 0.39225 0.48907 0.74501 0.0
O262 O 0.399 0.55138 0.71269 0.0
O263 O 0.43872 0.54817 0.71747 0.0
O264 O 0.38329 0.54387 0.78448 0.0
O265 O 0.4173 0.54868 0.76562 0.0
Co266 Co 0.6331 0.00696 0.74609 0.0
O267 O 0.63049 0.97282 0.75655 0.0
O268 O 0.66064 0.99191 0.73537 0.0
C269 C 0.62462 0.02392 0.78418 0.0
O270 O 0.6427 0.04246 0.73358 0.0
Co271 Co 0.58973 0.03591 0.74733 0.0
O272 O 0.61515 0.06689 0.74517 0.0
C273 C 0.59037 0.99241 0.70871 0.0
C274 C 0.65154 0.97245 0.74749 0.0
C275 C 0.63561 0.0644 0.73671 0.0
O276 O 0.61313 0.99309 0.71403 0.0
O277 O 0.57739 0.00601 0.72136 0.0
O278 O 0.64662 0.02106 0.77961 0.0
O279 O 0.60844 0.01569 0.76601 0.0
Co280 Co 0.77726 0.65034 0.99448 0.0
O281 O 0.81222 0.65036 0.997 0.0
O282 O 0.78357 0.61829 0.00554 0.0
C283 C 0.776 0.66611 0.95623 0.0
O284 O 0.74053 0.64045 0.99388 0.0
Co285 Co 0.75202 0.69715 0.99141 0.0
O286 O 0.72036 0.67234 0.98667 0.0
C287 C 0.77299 0.68742 0.04053 0.0
C288 C 0.80654 0.62709 0.00401 0.0
C289 C 0.7206 0.64888 0.99054 0.0
O290 O 0.77776 0.66579 0.03058 0.0
O291 O 0.76471 0.70373 0.02771 0.0
O292 O 0.77638 0.64174 0.95815 0.0
O293 O 0.77772 0.68063 0.9773 0.0
Co294 Co 0.90365 0.54528 0.78516 0.0
O295 O 0.89847 0.57971 0.77991 0.0
O296 O 0.87196 0.54335 0.76917 0.0
C297 C 0.9192 0.55403 0.82491 0.0
O298 O 0.90069 0.50689 0.7882 0.0
Co299 Co 0.95353 0.52995 0.7959 0.0
O300 O 0.93443 0.49733 0.80621 0.0
C301 C 0.93925 0.54047 0.74465 0.0
C302 C 0.87714 0.56842 0.77001 0.0
C303 C 0.91215 0.49108 0.7985 0.0
O304 O 0.91786 0.54207 0.75164 0.0
O305 O 0.9566 0.53703 0.75966 0.0
O306 O 0.8958 0.55024 0.81995 0.0
O307 O 0.93252 0.55459 0.80573 0.0
Co308 Co 0.74877 0.40293 0.48588 0.0
O309 O 0.71613 0.40805 0.49236 0.0
O310 O 0.74884 0.43906 0.49486 0.0
C311 C 0.73878 0.37609 0.45041 0.0
O312 O 0.78479 0.40677 0.48028 0.0
Co313 Co 0.76668 0.35021 0.48226 0.0
O314 O 0.79569 0.36899 0.46737 0.0
C315 C 0.75908 0.37678 0.53189 0.0
C316 C 0.72561 0.43253 0.49702 0.0
C317 C 0.80031 0.39357 0.4715 0.0
O318 O 0.75445 0.39689 0.52201 0.0
O319 O 0.76316 0.3563 0.51929 0.0
O320 O 0.74155 0.40107 0.44955 0.0
O321 O 0.74098 0.3683 0.47237 0.0
Co322 Co 0.66026 0.51132 0.29669 0.0
O323 O 0.65937 0.47402 0.28951 0.0
O324 O 0.69121 0.50452 0.28604 0.0
C325 C 0.64208 0.50943 0.33398 0.0
O326 O 0.67056 0.55058 0.3031 0.0
Co327 Co 0.61621 0.53876 0.30216 0.0
O328 O 0.63965 0.57216 0.30787 0.0
C329 C 0.62789 0.51872 0.25177 0.0
C330 C 0.68216 0.47997 0.28458 0.0
C331 C 0.66227 0.57179 0.30684 0.0
O332 O 0.64843 0.51436 0.26075 0.0
O333 O 0.61166 0.52565 0.26567 0.0
O334 O 0.66506 0.50843 0.33272 0.0
O335 O 0.63045 0.50995 0.31269 0.0
Dy336 Dy 1.00295 0.02211 0.00853 0.0
C337 C 0.10392 0.03453 0.03546 0.0
C338 C 0.95643 0.03027 0.01138 0.0
Dy339 Dy 0.05665 0.03778 0.02372 0.0
O340 O 0.96221 0.00877 1.00142 0.0
O341 O 0.97583 0.04664 0.01958 0.0
O342 O 0.00855 0.99533 0.97507 0.0
O343 O 0.03585 0.02725 0.98749 0.0
C344 C 0.03096 0.00669 0.97269 0.0
C345 C 0.02592 0.0521 0.05762 0.0
O346 O 0.05461 0.07057 1.00055 0.0
O347 O 0.01238 0.06254 0.99607 0.0
O348 O 0.08527 0.02436 0.04696 0.0
O349 O 0.09694 0.04745 0.01775 0.0
O350 O 0.04686 0.06628 0.05445 0.0
O351 O 0.0237 0.03105 0.04404 0.0
O352 O 0.00895 0.98927 0.03074 0.0
O353 O 0.04905 0.99437 0.02096 0.0
C354 C 0.03383 0.07714 0.99311 0.0
C355 C 0.02965 0.98039 0.02942 0.0
Dy356 Dy 0.276 0.78642 0.24256 0.0
C357 C 0.27455 0.77488 0.34605 0.0
C358 C 0.2711 0.79731 0.19431 0.0
Dy359 Dy 0.27053 0.79102 0.29972 0.0
O360 O 0.2747 0.77511 0.20108 0.0
O361 O 0.27071 0.81368 0.21384 0.0
O362 O 0.3015 0.75791 0.24509 0.0
O363 O 0.29958 0.78531 0.27533 0.0
C364 C 0.30818 0.7654 0.26861 0.0
C365 C 0.23838 0.81189 0.2732 0.0
O366 O 0.29964 0.82578 0.29872 0.0
O367 O 0.29967 0.82536 0.25505 0.0
O368 O 0.26482 0.7948 0.34121 0.0
O369 O 0.28216 0.76436 0.32581 0.0
O370 O 0.24501 0.81962 0.29674 0.0
O371 O 0.24701 0.79194 0.26676 0.0
O372 O 0.24628 0.75198 0.24454 0.0
O373 O 0.2477 0.75192 0.28799 0.0
C374 C 0.30707 0.83625 0.27814 0.0
C375 C 0.23977 0.74109 0.26518 0.0
Dy376 Dy 0.54264 0.01609 0.52009 0.0
C377 C 0.44317 0.03944 0.51454 0.0
C378 C 0.58141 0.99148 0.5278 0.0
Dy379 Dy 0.48659 0.02217 0.51948 0.0
O380 O 0.58311 0.01446 0.51992 0.0
O381 O 0.5589 0.98267 0.53181 0.0
O382 O 0.54964 0.04364 0.4899 0.0
O383 O 0.51491 0.02207 0.49321 0.0
C384 C 0.52661 0.04024 0.4827 0.0
C385 C 0.50346 0.99809 0.55679 0.0
O386 O 0.48422 0.9883 0.49023 0.0
O387 O 0.52184 0.97782 0.50138 0.0
O388 O 0.46404 0.05169 0.50844 0.0
O389 O 0.44606 0.0177 0.52299 0.0
O390 O 0.48062 0.99369 0.54908 0.0
O391 O 0.51458 0.01666 0.54646 0.0
O392 O 0.54497 0.05145 0.54775 0.0
O393 O 0.50709 0.06132 0.53597 0.0
C394 C 0.49996 0.97206 0.48934 0.0
C395 C 0.52909 0.06762 0.54775 0.0
Dy396 Dy 0.25287 0.27839 0.76496 0.0
C397 C 0.35402 0.27576 0.75601 0.0
C398 C 0.20496 0.27399 0.77587 0.0
Dy399 Dy 0.3067 0.2717 0.76846 0.0
O400 O 0.21412 0.28297 0.75579 0.0
O401 O 0.2219 0.26721 0.78975 0.0
O402 O 0.26266 0.31502 0.74461 0.0
O403 O 0.28779 0.30388 0.76894 0.0
C404 C 0.28535 0.31937 0.75302 0.0
C405 C 0.27614 0.23241 0.7847 0.0
O406 O 0.30613 0.2958 0.80524 0.0
O407 O 0.26398 0.29132 0.806 0.0
O408 O 0.34532 0.2658 0.77586 0.0
O409 O 0.33701 0.28384 0.74338 0.0
O410 O 0.29898 0.23921 0.79232 0.0
O411 O 0.2715 0.24494 0.76643 0.0
O412 O 0.25349 0.25481 0.72753 0.0
O413 O 0.29538 0.25681 0.7283 0.0
C414 C 0.28618 0.2984 0.81718 0.0
C415 C 0.2735 0.25049 0.71658 0.0
Dy416 Dy 0.01406 0.01225 0.48573 0.0
C417 C 0.05223 0.05119 0.58484 0.0
C418 C 0.98864 0.99944 0.43992 0.0
Dy419 Dy 0.02872 0.04059 0.53772 0.0
O420 O 0.01 0.99415 0.44554 0.0
O421 O 0.98071 0.01044 0.45979 0.0
O422 O 0.0536 0.01167 0.47878 0.0
O423 O 0.04458 0.04182 0.50143 0.0
C424 C 0.06239 0.03265 0.49337 0.0
C425 C 0.98078 0.02359 0.52846 0.0
O426 O 0.02765 0.07644 0.51808 0.0
O427 O 1.00665 0.05274 0.48267 0.0
O428 O 0.02887 0.04536 0.57992 0.0
O429 O 0.06263 0.05286 0.56365 0.0
O430 O 0.98992 0.04507 0.54219 0.0
O431 O 0.99754 0.01169 0.52179 0.0
O432 O 0.01459 0.97714 0.50671 0.0
O433 O 0.03965 1.0015 0.53878 0.0
C434 C 0.0158 0.07528 0.49579 0.0
C435 C 0.02899 0.9787 0.52737 0.0
Dy436 Dy 0.29125 0.78887 0.76591 0.0
C437 C 0.19085 0.7486 0.73085 0.0
C438 C 0.33283 0.80286 0.79634 0.0
Dy439 Dy 0.2361 0.76141 0.75501 0.0
O440 O 0.33218 0.80155 0.77186 0.0
O441 O 0.31091 0.79747 0.80385 0.0
O442 O 0.29721 0.78682 0.72448 0.0
O443 O 0.27069 0.75977 0.73886 0.0
C444 C 0.27931 0.76717 0.7189 0.0
C445 C 0.24894 0.7846 0.80166 0.0
O446 O 0.25251 0.72573 0.75893 0.0
O447 O 0.29097 0.74708 0.77507 0.0
O448 O 0.1959 0.74502 0.75413 0.0
O449 O 0.21075 0.75788 0.72059 0.0
O450 O 0.23091 0.76513 0.79701 0.0
O451 O 0.25672 0.79107 0.78123 0.0
O452 O 0.27464 0.82434 0.75916 0.0
O453 O 0.23739 0.8011 0.74158 0.0
C454 C 0.27475 0.72529 0.76876 0.0
C455 C 0.25279 0.82338 0.74756 0.0
Dy456 Dy 0.50709 0.02479 0.03484 0.0
C457 C 0.52874 0.02907 0.93062 0.0
C458 C 0.49196 0.03568 0.0812 0.0
Dy459 Dy 0.5136 0.0336 0.97795 0.0
O460 O 0.50976 0.02308 0.07677 0.0
O461 O 0.4829 0.04214 0.0605 0.0
O462 O 0.50633 0.98167 0.02658 0.0
O463 O 0.52501 0.00833 0.00413 0.0
C464 C 0.51799 0.98458 0.00612 0.0
C465 C 0.49031 0.06631 0.00454 0.0
O466 O 0.48026 1.00311 0.97528 0.0
O467 O 0.4698 0.00973 0.01649 0.0
O468 O 0.51757 0.01024 0.94218 0.0
O469 O 0.53094 0.05098 0.94466 0.0
O470 O 0.48581 0.06033 0.98042 0.0
O471 O 0.50787 0.05642 0.01176 0.0
O472 O 0.5456 0.04661 0.03816 0.0
O473 O 0.55097 0.05032 0.99524 0.0
C474 C 0.46467 0.99931 0.993 0.0
C475 C 0.55909 0.05407 0.01928 0.0
Dy476 Dy 0.27545 0.3042 0.26978 0.0
C477 C 0.27788 0.19475 0.25097 0.0
C478 C 0.26873 0.35326 0.26413 0.0
Dy479 Dy 0.27376 0.24574 0.25439 0.0
O480 O 0.2837 0.34756 0.28126 0.0
O481 O 0.25815 0.33245 0.25055 0.0
O482 O 0.27667 0.29775 0.31094 0.0
O483 O 0.29145 0.27342 0.28491 0.0
C484 C 0.28568 0.27655 0.30744 0.0
C485 C 0.26122 0.27311 0.2172 0.0
O486 O 0.24036 0.24425 0.27676 0.0
O487 O 0.23761 0.28815 0.2797 0.0
O488 O 0.26462 0.20537 0.2667 0.0
O489 O 0.28792 0.21174 0.2368 0.0
O490 O 0.2701 0.25209 0.21326 0.0
O491 O 0.2568 0.2761 0.24001 0.0
O492 O 0.31026 0.30464 0.24961 0.0
O493 O 0.31348 0.26181 0.25352 0.0
C494 C 0.22898 0.26374 0.28343 0.0
C495 C 0.32251 0.28519 0.24729 0.0
Dy496 Dy 0.51091 0.51904 0.98627 0.0
C497 C 0.55829 0.54298 0.08636 0.0
C498 C 0.48299 0.50467 0.94262 0.0
Dy499 Dy 0.531 0.5374 0.0418 0.0
O500 O 0.50412 0.49835 0.9474 0.0
O501 O 0.47671 0.51793 0.96218 0.0
O502 O 0.54469 0.54104 0.97156 0.0
O503 O 0.54649 0.52641 0.00658 0.0
C504 C 0.55821 0.54052 0.99173 0.0
C505 C 0.48228 0.53046 0.03279 0.0
O506 O 0.53577 0.57506 0.02484 0.0
O507 O 0.50674 0.56096 0.99186 0.0
O508 O 0.56645 0.54982 0.06513 0.0
O509 O 0.53503 0.53423 0.08341 0.0
O510 O 0.49415 0.54783 0.04994 0.0
O511 O 0.49685 0.51746 0.02311 0.0
O512 O 0.51226 0.48001 1.00022 0.0
O513 O 0.53097 0.4948 0.04006 0.0
C514 C 0.52213 0.57972 0.00546 0.0
C515 C 0.52163 0.4758 0.02251 0.0
Dy516 Dy 0.79994 0.28879 0.26439 0.0
C517 C 0.70748 0.25866 0.2095 0.0
C518 C 0.84437 0.30007 0.2905 0.0
Dy519 Dy 0.74726 0.26498 0.2429 0.0
O520 O 0.83978 0.30597 0.26798 0.0
O521 O 0.82436 0.28866 0.2993 0.0
O522 O 0.80934 0.30024 0.22606 0.0
O523 O 0.78358 0.26729 0.22966 0.0
C524 C 0.79372 0.28144 0.21408 0.0
C525 C 0.7532 0.27171 0.29311 0.0
O526 O 0.76302 0.22821 0.24133 0.0
O527 O 0.79875 0.24557 0.26567 0.0
O528 O 0.7067 0.2528 0.23264 0.0
O529 O 0.72994 0.26678 0.20463 0.0
O530 O 0.73705 0.25328 0.28097 0.0
O531 O 0.76358 0.28606 0.27776 0.0
O532 O 0.78425 0.3254 0.2675 0.0
O533 O 0.74808 0.30842 0.2439 0.0
C534 C 0.78363 0.22544 0.25347 0.0
C535 C 0.7635 0.32836 0.25596 0.0
Dy536 Dy 1.00452 0.52827 0.52451 0.0
C537 C 0.02931 0.53794 0.42212 0.0
C538 C 0.98758 0.53579 0.57084 0.0
Dy539 Dy 0.01202 0.53668 0.46879 0.0
O540 O 1.00407 0.52184 0.56552 0.0
O541 O 0.98036 0.5453 0.55091 0.0
O542 O 0.02378 0.49365 0.52274 0.0
O543 O 1.00673 0.5037 0.49047 0.0
C544 C 0.02087 0.48973 0.49831 0.0
C545 C 0.99558 0.5747 0.49592 0.0
O546 O 0.97724 0.50804 0.46443 0.0
O547 O 0.96683 0.51315 0.50589 0.0
O548 O 1.00655 0.53147 0.42664 0.0
O549 O 0.04247 0.54401 0.443 0.0
O550 O 0.99067 0.56931 0.47192 0.0
O551 O 0.01096 0.5618 0.50316 0.0
O552 O 0.04252 0.55102 0.5273 0.0
O553 O 0.04964 0.5393 0.48585 0.0
C554 C 0.96113 0.50458 0.48184 0.0
C555 C 0.05749 0.54863 0.50908 0.0
Dy556 Dy 0.75418 0.77948 0.26795 0.0
C557 C 0.85116 0.76203 0.24946 0.0
C558 C 0.7067 0.77665 0.27981 0.0
Dy559 Dy 0.80709 0.76945 0.26675 0.0
O560 O 0.71516 0.78276 0.25846 0.0
O561 O 0.72416 0.77223 0.29463 0.0
O562 O 0.76353 0.81586 0.24722 0.0
O563 O 0.78998 0.80332 0.26887 0.0
C564 C 0.78672 0.81909 0.2534 0.0
C565 C 0.77582 0.73244 0.28576 0.0
O566 O 0.81005 0.79078 0.30552 0.0
O567 O 0.76837 0.79066 0.3081 0.0
O568 O 0.83059 0.7462 0.2449 0.0
O569 O 0.84799 0.7818 0.26455 0.0
O570 O 0.79894 0.73828 0.29227 0.0
O571 O 0.77098 0.74478 0.26749 0.0
O572 O 0.75306 0.75359 0.23221 0.0
O573 O 0.7935 0.76785 0.22625 0.0
C574 C 0.79103 0.79536 0.31827 0.0
C575 C 0.77155 0.75594 0.21748 0.0
Dy576 Dy 0.77339 0.28791 0.73626 0.0
C577 C 0.76018 0.24932 0.83365 0.0
C578 C 0.76478 0.30588 0.69133 0.0
Dy579 Dy 0.7645 0.27163 0.78965 0.0
O580 O 0.74816 0.29641 0.70577 0.0
O581 O 0.78625 0.30489 0.70106 0.0
O582 O 0.81217 0.28293 0.7377 0.0
O583 O 0.78734 0.26107 0.75972 0.0
C584 C 0.80965 0.26823 0.75604 0.0
C585 C 0.73046 0.29515 0.76856 0.0
O586 O 0.79302 0.30727 0.79902 0.0
O587 O 0.78869 0.32445 0.76074 0.0
O588 O 0.74296 0.24816 0.81646 0.0
O589 O 0.77988 0.26391 0.82748 0.0
O590 O 0.7255 0.27797 0.7843 0.0
O591 O 0.75303 0.30016 0.76699 0.0
O592 O 0.74847 0.24936 0.72733 0.0
O593 O 0.75454 0.23402 0.76591 0.0
C594 C 0.79817 0.32618 0.7842 0.0
C595 C 0.74511 0.23074 0.74254 0.0
Dy596 Dy 0.76308 0.79718 0.77413 0.0
C597 C 0.77167 0.69443 0.74903 0.0
C598 C 0.75477 0.84671 0.77846 0.0
Dy599 Dy 0.75639 0.74049 0.75131 0.0
O600 O 0.76046 0.8344 0.79725 0.0
O601 O 0.75424 0.83214 0.75756 0.0
O602 O 0.78326 0.78763 0.80882 0.0
O603 O 0.75633 0.75972 0.78871 0.0
C604 C 0.77241 0.76336 0.80652 0.0
C605 C 0.74523 0.77345 0.71937 0.0
O606 O 0.72009 0.73833 0.76837 0.0
O607 O 0.72258 0.78304 0.77525 0.0
O608 O 0.75309 0.6986 0.73534 0.0
O609 O 0.78085 0.71487 0.76395 0.0
O610 O 0.73536 0.74888 0.71699 0.0
O611 O 0.76204 0.77762 0.73647 0.0
O612 O 0.79974 0.79993 0.7583 0.0
O613 O 0.7959 0.75615 0.74449 0.0
C614 C 0.71013 0.75899 0.77471 0.0
C615 C 0.80876 0.78011 0.74783 0.0
Dy616 Dy 0.50026 0.52251 0.50656 0.0
C617 C 0.6003 0.53267 0.54155 0.0
C618 C 0.45392 0.53131 0.503 0.0
Dy619 Dy 0.5532 0.53703 0.53044 0.0
O620 O 0.46041 0.50987 0.4938 0.0
O621 O 0.47248 0.54714 0.51401 0.0
O622 O 0.51138 0.50153 0.47114 0.0
O623 O 0.5362 0.53039 0.49262 0.0
C624 C 0.53425 0.51254 0.47498 0.0
C625 C 0.51792 0.54657 0.56091 0.0
O626 O 0.55295 0.57225 0.50987 0.0
O627 O 0.51113 0.56488 0.50068 0.0
O628 O 0.58122 0.51815 0.54881 0.0
O629 O 0.59369 0.55071 0.52921 0.0
O630 O 0.54012 0.55958 0.56387 0.0
O631 O 0.51713 0.52801 0.54427 0.0
O632 O 0.50331 0.48742 0.5269 0.0
O633 O 0.54502 0.49357 0.52397 0.0
C634 C 0.53296 0.57981 0.50133 0.0
C635 C 0.52422 0.4788 0.52835 0.0
Dy636 Dy 0.04512 0.52109 0.01149 0.0
C637 C 0.94419 0.53441 0.02083 0.0
C638 C 0.08523 0.49904 0.02001 0.0
Dy639 Dy 0.98797 0.51801 0.02228 0.0
O640 O 0.08554 0.51981 0.00812 0.0
O641 O 0.06344 0.49105 0.02675 0.0
O642 O 0.0408 0.54253 0.97667 0.0
O643 O 0.01128 0.51975 0.9913 0.0
C644 C 0.01702 0.53576 0.9757 0.0
C645 C 0.01618 0.50141 0.05627 0.0
O646 O 0.98524 0.48122 0.99669 0.0
O647 O 0.02701 0.48082 0.9946 0.0
O648 O 0.94801 0.51313 0.02985 0.0
O649 O 0.96416 0.54641 0.01262 0.0
O650 O 0.99269 0.49307 0.05406 0.0
O651 O 0.02182 0.51941 0.04268 0.0
O652 O 0.04758 0.55908 0.03578 0.0
O653 O 1.00564 0.55828 0.03843 0.0
C654 C 1.0037 0.46964 0.99005 0.0
C655 C 0.02877 0.56993 0.0429 0.0
H656 H 0.97828 0.18707 0.93044 0.0
H657 H 0.04428 0.20361 0.89061 0.0
H658 H 0.05978 0.16798 0.90966 0.0
H659 H 1.0049 0.17431 0.98685 0.0
H660 H 0.98095 0.14824 0.99284 0.0
H661 H 0.97423 0.17339 0.97448 0.0
H662 H 0.95599 0.13908 0.93773 0.0
H663 H 0.96226 0.1138 0.95622 0.0
H664 H 0.97391 0.11603 0.92546 0.0
H665 H 0.06965 0.1335 0.937 0.0
H666 H 0.07077 0.09921 0.96556 0.0
H667 H 0.99755 0.10485 0.98606 0.0
C668 C 0.99581 0.18288 0.92531 0.0
C669 C 0.01011 0.19807 0.90904 0.0
C670 C 0.03293 0.19201 0.90281 0.0
C671 C 0.04194 0.17196 0.91371 0.0
C672 C 0.0277 0.15798 0.93043 0.0
C673 C 1.00487 0.16284 0.93573 0.0
C674 C 0.99323 0.14539 0.95453 0.0
C675 C 0.98804 0.16129 0.97859 0.0
C676 C 0.96998 0.12751 0.94278 0.0
C677 C 0.01327 0.13028 0.95945 0.0
C678 C 0.03308 0.13787 0.94552 0.0
C679 C 0.05412 0.12723 0.94776 0.0
C680 C 0.05468 0.10796 0.96421 0.0
C681 C 0.03425 0.0994 0.97803 0.0
C682 C 0.0134 0.11091 0.97566 0.0
H683 H 0.14347 0.8027 0.15595 0.0
H684 H 0.09555 0.83517 0.20636 0.0
H685 H 0.12788 0.84185 0.2407 0.0
H686 H 0.16755 0.76663 0.20024 0.0
H687 H 0.19767 0.77134 0.18872 0.0
H688 H 0.17177 0.77182 0.16776 0.0
H689 H 0.19183 0.81717 0.15644 0.0
H690 H 0.21754 0.81705 0.17781 0.0
H691 H 0.20079 0.84326 0.18107 0.0
H692 H 0.16573 0.84429 0.2698 0.0
H693 H 0.20362 0.83785 0.29211 0.0
H694 H 0.2247 0.80003 0.22337 0.0
C695 C 0.13992 0.81168 0.17409 0.0
C696 C 0.11712 0.81884 0.17839 0.0
C697 C 0.11295 0.82975 0.20261 0.0
C698 C 0.13124 0.8337 0.22217 0.0
C699 C 0.15349 0.82628 0.21732 0.0
C700 C 0.15775 0.8152 0.1939 0.0
C701 C 0.18234 0.80687 0.19402 0.0
C702 C 0.17966 0.77742 0.1873 0.0
C703 C 0.1991 0.82201 0.17627 0.0
C704 C 0.19115 0.81462 0.22125 0.0
C705 C 0.17454 0.82633 0.23428 0.0
C706 C 0.17883 0.83514 0.25974 0.0
C707 C 0.20043 0.83148 0.27225 0.0
C708 C 0.21716 0.81859 0.25943 0.0
C709 C 0.21242 0.81024 0.23358 0.0
H710 H 0.5201 0.83193 0.43711 0.0
H711 H 0.48495 0.84312 0.36622 0.0
H712 H 0.47566 0.88483 0.38517 0.0
H713 H 0.48086 0.86045 0.47884 0.0
H714 H 0.5055 0.87572 0.50099 0.0
H715 H 0.50762 0.84607 0.48233 0.0
H716 H 0.54816 0.8682 0.46569 0.0
H717 H 0.54625 0.89781 0.48444 0.0
H718 H 0.54913 0.89786 0.45104 0.0
H719 H 0.47012 0.92545 0.41265 0.0
H720 H 0.47365 0.96376 0.44403 0.0
H721 H 0.51525 0.92664 0.49536 0.0
C722 C 0.51026 0.84307 0.42565 0.0
C723 C 0.50298 0.83433 0.40033 0.0
C724 C 0.49062 0.8496 0.38569 0.0
C725 C 0.48516 0.87317 0.39634 0.0
C726 C 0.49256 0.88125 0.42148 0.0
C727 C 0.50521 0.8668 0.43578 0.0
C728 C 0.51285 0.88053 0.46168 0.0
C729 C 0.50099 0.86475 0.48217 0.0
C730 C 0.54075 0.88646 0.46595 0.0
C731 C 0.50257 0.90504 0.45981 0.0
C732 C 0.49052 0.90497 0.43669 0.0
C733 C 0.47955 0.92569 0.43078 0.0
C734 C 0.48149 0.94727 0.44874 0.0
C735 C 0.4947 0.94805 0.47204 0.0
C736 C 0.50505 0.92651 0.47767 0.0
H737 H 0.45997 0.29328 0.66001 0.0
H738 H 0.50682 0.2701 0.7172 0.0
H739 H 0.47276 0.26438 0.74516 0.0
H740 H 0.42875 0.33034 0.70238 0.0
H741 H 0.39965 0.32119 0.68514 0.0
H742 H 0.42724 0.32201 0.66887 0.0
H743 H 0.41289 0.27413 0.65085 0.0
H744 H 0.38517 0.27323 0.66692 0.0
H745 H 0.40431 0.24976 0.67202 0.0
H746 H 0.43379 0.26177 0.7673 0.0
H747 H 0.39253 0.26269 0.78194 0.0
H748 H 0.37145 0.28919 0.71121 0.0
C749 C 0.46293 0.28664 0.67827 0.0
C750 C 0.48601 0.28195 0.68637 0.0
C751 C 0.48929 0.27375 0.71058 0.0
C752 C 0.47005 0.27045 0.72661 0.0
C753 C 0.44764 0.27561 0.71827 0.0
C754 C 0.44396 0.28355 0.69468 0.0
C755 C 0.4183 0.28868 0.69071 0.0
C756 C 0.41851 0.31725 0.68653 0.0
C757 C 0.40434 0.27035 0.66883 0.0
C758 C 0.40818 0.28238 0.7157 0.0
C759 C 0.42536 0.27476 0.73129 0.0
C760 C 0.42019 0.26774 0.75527 0.0
C761 C 0.39676 0.26835 0.76345 0.0
C762 C 0.37892 0.27611 0.74777 0.0
C763 C 0.38481 0.28333 0.72366 0.0
H764 H 0.98935 0.83563 0.57061 0.0
H765 H 0.03747 0.86212 0.637 0.0
H766 H 0.05157 0.90371 0.61924 0.0
H767 H 0.02701 0.86693 0.52442 0.0
H768 H 1.0019 0.87596 0.50722 0.0
H769 H 0.99704 0.84745 0.52396 0.0
H770 H 0.96363 0.86523 0.54869 0.0
H771 H 0.96821 0.89346 0.53161 0.0
H772 H 0.97068 0.89714 0.56547 0.0
H773 H 0.06094 0.94165 0.59403 0.0
H774 H 0.06074 0.97664 0.56679 0.0
H775 H 1.003 0.92807 0.51833 0.0
C776 C 1.00308 0.85014 0.58122 0.0
C777 C 0.01273 0.84563 0.60498 0.0
C778 C 0.03007 0.86522 0.61871 0.0
C779 C 0.03822 0.88878 0.6087 0.0
C780 C 0.02842 0.89263 0.58518 0.0
C781 C 0.01085 0.8741 0.57183 0.0
C782 C 1.00177 0.88409 0.54803 0.0
C783 C 1.00726 0.86762 0.52451 0.0
C784 C 0.97446 0.88504 0.5485 0.0
C785 C 0.01702 0.91117 0.55006 0.0
C786 C 0.03259 0.91537 0.57141 0.0
C787 C 0.04866 0.93865 0.57742 0.0
C788 C 0.04833 0.95849 0.56174 0.0
C789 C 0.03159 0.95541 0.54048 0.0
C790 C 0.01608 0.93111 0.53431 0.0
H791 H 0.46403 0.78018 0.84779 0.0
H792 H 0.44393 0.80955 0.92102 0.0
H793 H 0.40598 0.8179 0.90197 0.0
H794 H 0.43897 0.8256 0.81199 0.0
H795 H 0.42739 0.80228 0.78563 0.0
H796 H 0.45367 0.79826 0.80452 0.0
H797 H 0.43218 0.75231 0.8128 0.0
H798 H 0.40596 0.7561 0.79372 0.0
H799 H 0.40261 0.74818 0.82559 0.0
H800 H 0.37006 0.82286 0.87642 0.0
H801 H 0.33639 0.82202 0.84496 0.0
H802 H 0.378 0.79046 0.78715 0.0
C803 C 0.45159 0.78824 0.85979 0.0
C804 C 0.45726 0.79417 0.88602 0.0
C805 C 0.44033 0.80476 0.90095 0.0
C806 C 0.41859 0.80971 0.89031 0.0
C807 C 0.41371 0.80401 0.86457 0.0
C808 C 0.42949 0.79332 0.84941 0.0
C809 C 0.41911 0.78865 0.82226 0.0
C810 C 0.43578 0.80465 0.80509 0.0
C811 C 0.4147 0.75958 0.81305 0.0
C812 C 0.39518 0.79845 0.82475 0.0
C813 C 0.39263 0.80722 0.84942 0.0
C814 C 0.37186 0.81624 0.85698 0.0
C815 C 0.35287 0.81576 0.83898 0.0
C816 C 0.35476 0.80659 0.81364 0.0
C817 C 0.37637 0.79819 0.80631 0.0
H818 H 0.50805 0.18623 0.1064 0.0
H819 H 0.44604 0.20898 0.06943 0.0
H820 H 0.43498 0.16538 0.04651 0.0
H821 H 0.5271 0.1569 0.05705 0.0
H822 H 0.53669 0.12996 0.07066 0.0
H823 H 0.5356 0.15921 0.09017 0.0
H824 H 0.5069 0.13356 0.11947 0.0
H825 H 0.50813 0.10389 0.1003 0.0
H826 H 0.47918 0.11292 0.10643 0.0
H827 H 0.43728 0.12475 0.0196 0.0
H828 H 0.4502 0.08811 0.99456 0.0
H829 H 0.51028 0.09108 0.04926 0.0
C830 C 0.49119 0.18129 0.09487 0.0
C831 C 0.47737 0.20053 0.09028 0.0
C832 C 0.4563 0.19412 0.0738 0.0
C833 C 0.45001 0.16945 0.06056 0.0
C834 C 0.4649 0.15131 0.06416 0.0
C835 C 0.48472 0.15664 0.08148 0.0
C836 C 0.49975 0.1353 0.07918 0.0
C837 C 0.52633 0.146 0.07394 0.0
C838 C 0.49841 0.12054 0.10275 0.0
C839 C 0.48646 0.11837 0.05668 0.0
C840 C 0.46613 0.12758 0.04854 0.0
C841 C 0.45269 0.11684 0.02629 0.0
C842 C 0.46022 0.0962 0.01206 0.0
C843 C 0.481 0.08662 0.02014 0.0
C844 C 0.49397 0.09765 0.04291 0.0
H845 H 0.10132 0.28904 0.33253 0.0
H846 H 0.11419 0.24478 0.39459 0.0
H847 H 0.15128 0.23416 0.37546 0.0
H848 H 0.12451 0.25002 0.28264 0.0
H849 H 0.13904 0.27776 0.26799 0.0
H850 H 0.11225 0.27955 0.28512 0.0
H851 H 0.13554 0.31977 0.31307 0.0
H852 H 0.16232 0.31816 0.29597 0.0
H853 H 0.1638 0.31777 0.32963 0.0
H854 H 0.18702 0.22835 0.34924 0.0
H855 H 0.22134 0.23254 0.32127 0.0
H856 H 0.18757 0.28457 0.27889 0.0
C857 C 0.11178 0.27675 0.34179 0.0
C858 C 0.10475 0.26721 0.36471 0.0
C859 C 0.11923 0.25197 0.37685 0.0
C860 C 0.14023 0.2458 0.36609 0.0
C861 C 0.14679 0.25556 0.34347 0.0
C862 C 0.13322 0.27112 0.3317 0.0
C863 C 0.14547 0.28121 0.30889 0.0
C864 C 0.12935 0.27155 0.28473 0.0
C865 C 0.15218 0.31099 0.3121 0.0
C866 C 0.16799 0.26885 0.30959 0.0
C867 C 0.16817 0.2537 0.32938 0.0
C868 C 0.18702 0.24015 0.33369 0.0
C869 C 0.20635 0.24248 0.31762 0.0
C870 C 0.20695 0.2587 0.29786 0.0
C871 C 0.18746 0.27195 0.2938 0.0
H872 H 0.92759 0.01455 0.15697 0.0
H873 H 0.93939 0.09541 0.18582 0.0
H874 H 0.96368 0.10686 0.14951 0.0
H875 H 0.98372 0.01252 0.13952 0.0
H876 H 0.97624 0.99128 0.11087 0.0
H877 H 0.95531 0.98987 0.13544 0.0
H878 H 0.92114 0.99837 0.10474 0.0
H879 H 0.94183 0.99909 0.07979 0.0
H880 H 0.92658 0.02606 0.08688 0.0
H881 H 0.99404 0.10789 0.11527 0.0
H882 H 0.02286 0.09911 0.08296 0.0
H883 H 0.98963 0.01779 0.07526 0.0
C884 C 0.93401 0.03481 0.15473 0.0
C885 C 0.93088 0.05423 0.17371 0.0
C886 C 0.94074 0.08041 0.17099 0.0
C887 C 0.95483 0.08701 0.15055 0.0
C888 C 0.95863 0.06722 0.13278 0.0
C889 C 0.94784 0.04168 0.13427 0.0
C890 C 0.9564 0.02375 0.11411 0.0
C891 C 0.96864 1.00316 0.12569 0.0
C892 C 0.93523 0.01107 0.09526 0.0
C893 C 0.97468 0.0429 0.10196 0.0
C894 C 0.97567 0.06792 0.11283 0.0
C895 C 0.99291 0.08846 0.10621 0.0
C896 C 0.00933 0.08331 0.08798 0.0
C897 C 0.00836 0.05785 0.07646 0.0
C898 C 0.99059 0.03754 0.08344 0.0
H899 H 0.29072 0.66408 0.43363 0.0
H900 H 0.25516 0.70547 0.49047 0.0
H901 H 0.25085 0.73864 0.46197 0.0
H902 H 0.32526 0.72051 0.41194 0.0
H903 H 0.32259 0.70771 0.37937 0.0
H904 H 0.32151 0.68602 0.40363 0.0
H905 H 0.27975 0.66076 0.38434 0.0
H906 H 0.28095 0.68233 0.35996 0.0
H907 H 0.25518 0.67809 0.37923 0.0
H908 H 0.25153 0.76822 0.42816 0.0
H909 H 0.25563 0.79118 0.3897 0.0
H910 H 0.29213 0.73176 0.3556 0.0
C911 C 0.2816 0.67986 0.43978 0.0
C912 C 0.27317 0.68219 0.46415 0.0
C913 C 0.2618 0.70335 0.47188 0.0
C914 C 0.25926 0.72233 0.45584 0.0
C915 C 0.26839 0.71998 0.4322 0.0
C916 C 0.27924 0.69928 0.42408 0.0
C917 C 0.28825 0.702 0.39805 0.0
C918 C 0.31605 0.70419 0.39829 0.0
C919 C 0.27525 0.67946 0.37929 0.0
C920 C 0.28068 0.72735 0.39293 0.0
C921 C 0.26925 0.73742 0.41285 0.0
C922 C 0.26044 0.76058 0.41237 0.0
C923 C 0.26294 0.77353 0.3906 0.0
C924 C 0.27419 0.76321 0.36989 0.0
C925 C 0.28349 0.7401 0.37127 0.0
H926 H 0.60457 1.00094 0.66249 0.0
H927 H 0.54916 0.95599 0.70243 0.0
H928 H 0.52338 0.94396 0.66304 0.0
H929 H 0.56697 0.03079 0.63364 0.0
H930 H 0.58114 0.03322 0.60414 0.0
H931 H 0.59902 0.03027 0.63195 0.0
H932 H 0.61263 0.98901 0.61092 0.0
H933 H 0.59566 0.9932 0.5827 0.0
H934 H 0.58993 0.96269 0.59618 0.0
H935 H 0.50002 0.94568 0.62285 0.0
H936 H 0.48126 0.96137 0.58576 0.0
H937 H 0.55063 0.00872 0.57385 0.0
C938 C 0.5877 0.98719 0.66242 0.0
C939 C 0.57903 0.97862 0.68503 0.0
C940 C 0.55623 0.96204 0.68496 0.0
C941 C 0.54152 0.95516 0.66269 0.0
C942 C 0.54982 0.96533 0.64082 0.0
C943 C 0.57254 0.98089 0.64049 0.0
C944 C 0.57514 0.994 0.61649 0.0
C945 C 0.58088 0.02381 0.62191 0.0
C946 C 0.59447 0.9841 0.60063 0.0
C947 C 0.54991 0.98477 0.6042 0.0
C948 C 0.53579 0.96755 0.61799 0.0
C949 C 0.51108 0.95859 0.61153 0.0
C950 C 0.50052 0.96771 0.5906 0.0
C951 C 0.51462 0.98597 0.57689 0.0
C952 C 0.5396 0.99422 0.58363 0.0
H953 H 0.24842 0.3794 0.93913 0.0
H954 H 0.3101 0.3589 0.97933 0.0
H955 H 0.32164 0.33715 0.94013 0.0
H956 H 0.23269 0.31825 0.90182 0.0
H957 H 0.22289 0.3315 0.87404 0.0
H958 H 0.22076 0.34796 0.90462 0.0
H959 H 0.24642 0.38989 0.89116 0.0
H960 H 0.24856 0.37356 0.8605 0.0
H961 H 0.27582 0.38882 0.879 0.0
H962 H 0.32672 0.31766 0.89661 0.0
H963 H 0.32273 0.29808 0.85255 0.0
H964 H 0.25547 0.32693 0.841 0.0
C965 C 0.26458 0.37071 0.93948 0.0
C966 C 0.2787 0.3713 0.96217 0.0
C967 C 0.29924 0.35898 0.96214 0.0
C968 C 0.30595 0.34657 0.93994 0.0
C969 C 0.29159 0.34606 0.91792 0.0
C970 C 0.27113 0.35747 0.91753 0.0
C971 C 0.25779 0.3522 0.89173 0.0
C972 C 0.23201 0.33654 0.89315 0.0
C973 C 0.25712 0.37763 0.8799 0.0
C974 C 0.27399 0.33614 0.87778 0.0
C975 C 0.2936 0.33322 0.89315 0.0
C976 C 0.31137 0.31968 0.88442 0.0
C977 C 0.30899 0.30868 0.85935 0.0
C978 C 0.28874 0.3108 0.84341 0.0
C979 C 0.27103 0.32474 0.85283 0.0
H980 H 0.90116 0.03868 0.33207 0.0
H981 H 0.95639 0.0234 0.28109 0.0
H982 H 0.97841 0.00691 0.31471 0.0
H983 H 0.94441 0.06294 0.38434 0.0
H984 H 0.92503 0.04983 0.40787 0.0
H985 H 0.9118 0.05814 0.37913 0.0
H986 H 0.88711 0.01144 0.37076 0.0
H987 H 0.90046 1.00293 0.3994 0.0
H988 H 0.90284 0.98431 0.36996 0.0
H989 H 0.99516 0.99219 0.35331 0.0
H990 H 0.00864 0.9859 0.39643 0.0
H991 H 0.94545 0.01373 0.42474 0.0
C992 C 0.91774 0.03159 0.32799 0.0
C993 C 0.92659 0.03181 0.30355 0.0
C994 C 0.94877 0.02304 0.29927 0.0
C995 C 0.96153 0.01354 0.31835 0.0
C996 C 0.95233 0.01337 0.34204 0.0
C997 C 0.93123 0.02262 0.34719 0.0
C998 C 0.9268 0.02235 0.37505 0.0
C999 C 0.92703 0.04996 0.38732 0.0
C1000 C 0.90288 1.00417 0.37902 0.0
C1001 C 0.94871 0.01161 0.38454 0.0
C1002 C 0.96289 0.00615 0.36498 0.0
C1003 C 0.98422 0.99637 0.36881 0.0
C1004 C 0.99169 0.99274 0.39338 0.0
C1005 C 0.97809 0.99918 0.41394 0.0
C1006 C 0.95609 0.00837 0.40936 0.0
H1007 H 0.3196 0.70727 0.58995 0.0
H1008 H 0.2665 0.63858 0.5983 0.0
H1009 H 0.26114 0.6556 0.64178 0.0
H1010 H 0.34378 0.72014 0.66017 0.0
H1011 H 0.34702 0.75454 0.65804 0.0
H1012 H 0.35213 0.73336 0.6312 0.0
H1013 H 0.32059 0.75206 0.605 0.0
H1014 H 0.31427 0.77221 0.63188 0.0
H1015 H 0.28988 0.74949 0.6148 0.0
H1016 H 0.25253 0.68514 0.67759 0.0
H1017 H 0.24886 0.72072 0.7094 0.0
H1018 H 0.3086 0.77041 0.67889 0.0
C1019 C 0.30816 0.6951 0.60163 0.0
C1020 C 0.29365 0.67158 0.59112 0.0
C1021 C 0.27816 0.65634 0.60634 0.0
C1022 C 0.27478 0.66607 0.63093 0.0
C1023 C 0.28754 0.69064 0.63992 0.0
C1024 C 0.30471 0.70453 0.62615 0.0
C1025 C 0.31379 0.73169 0.63877 0.0
C1026 C 0.34078 0.73513 0.64758 0.0
C1027 C 0.30935 0.75256 0.62157 0.0
C1028 C 0.29782 0.73151 0.66082 0.0
C1029 C 0.28291 0.70762 0.66118 0.0
C1030 C 0.26479 0.70356 0.67811 0.0
C1031 C 0.26267 0.72402 0.69593 0.0
C1032 C 0.27877 0.74816 0.69689 0.0
C1033 C 0.29623 0.75208 0.67876 0.0
H1034 H 0.60814 0.06218 0.81314 0.0
H1035 H 0.62159 0.98345 0.81105 0.0
H1036 H 0.59842 0.9767 0.84877 0.0
H1037 H 0.61267 0.07342 0.88453 0.0
H1038 H 0.58954 0.09331 0.8846 0.0
H1039 H 0.60933 0.0928 0.85893 0.0
H1040 H 0.57149 0.0802 0.82773 0.0
H1041 H 0.55159 0.07991 0.85328 0.0
H1042 H 0.54951 0.05148 0.8313 0.0
H1043 H 0.56764 0.97556 0.87999 0.0
H1044 H 0.53905 0.98326 0.91215 0.0
H1045 H 0.54948 0.0646 0.8993 0.0
C1046 C 0.60696 0.04398 0.82138 0.0
C1047 C 0.61676 0.02337 0.80972 0.0
C1048 C 0.6145 0.99949 0.82026 0.0
C1049 C 0.60124 0.99544 0.84146 0.0
C1050 C 0.59095 0.01573 0.8521 0.0
C1051 C 0.5944 0.03987 0.84316 0.0
C1052 C 0.58111 0.05815 0.85834 0.0
C1053 C 0.59924 0.08076 0.87244 0.0
C1054 C 0.56231 0.068 0.84166 0.0
C1055 C 0.56882 0.04006 0.87634 0.0
C1056 C 0.57453 0.01562 0.87199 0.0
C1057 C 0.56369 0.99482 0.88428 0.0
C1058 C 0.54736 0.99936 0.90238 0.0
C1059 C 0.54261 0.0246 0.90854 0.0
C1060 C 0.55318 0.0452 0.89514 0.0
H1061 H 0.30051 0.34015 0.09466 0.0
H1062 H 0.2404 0.38193 0.10056 0.0
H1063 H 0.23075 0.36342 0.14088 0.0
H1064 H 0.27207 0.28248 0.11559 0.0
H1065 H 0.29881 0.27662 0.13254 0.0
H1066 H 0.30192 0.29518 0.10588 0.0
H1067 H 0.3295 0.33247 0.1335 0.0
H1068 H 0.32581 0.31513 0.16104 0.0
H1069 H 0.31817 0.34693 0.16134 0.0
H1070 H 0.22647 0.33679 0.18 0.0
H1071 H 0.22839 0.30619 0.21252 0.0
H1072 H 0.29092 0.28219 0.17901 0.0
C1073 C 0.28539 0.34573 0.10441 0.0
C1074 C 0.27117 0.36253 0.09423 0.0
C1075 C 0.25169 0.36928 0.10794 0.0
C1076 C 0.24604 0.35874 0.13084 0.0
C1077 C 0.26015 0.34164 0.13988 0.0
C1078 C 0.27957 0.33546 0.12703 0.0
C1079 C 0.29168 0.31615 0.13988 0.0
C1080 C 0.29106 0.29113 0.12243 0.0
C1081 C 0.31785 0.3284 0.14948 0.0
C1082 C 0.2755 0.31141 0.16149 0.0
C1083 C 0.25763 0.32655 0.16162 0.0
C1084 C 0.24054 0.32507 0.18001 0.0
C1085 C 0.2418 0.30771 0.19847 0.0
C1086 C 0.2599 0.29197 0.19835 0.0
C1087 C 0.27685 0.29394 0.17955 0.0
H1088 H 0.18444 0.92583 0.03425 0.0
H1089 H 0.24664 0.98401 0.02145 0.0
H1090 H 0.22176 0.01824 0.0279 0.0
H1091 H 0.14047 0.95124 0.00308 0.0
H1092 H 0.11718 0.94398 0.02494 0.0
H1093 H 0.1405 0.92456 0.02197 0.0
H1094 H 0.15207 0.93409 0.06974 0.0
H1095 H 0.12855 0.95338 0.07283 0.0
H1096 H 0.15948 0.96722 0.08359 0.0
H1097 H 0.18791 0.04455 0.02774 0.0
H1098 H 0.14923 0.06168 0.02773 0.0
H1099 H 0.11092 0.98721 0.04561 0.0
C1100 C 0.19294 0.94587 0.0335 0.0
C1101 C 0.21739 0.95239 0.02743 0.0
C1102 C 0.22797 0.97872 0.02639 0.0
C1103 C 0.21396 0.99826 0.0299 0.0
C1104 C 0.18964 0.99114 0.03513 0.0
C1105 C 0.17942 0.96564 0.03764 0.0
C1106 C 0.15273 0.96293 0.04262 0.0
C1107 C 0.1368 0.9446 0.02191 0.0
C1108 C 0.14794 0.95388 0.06875 0.0
C1109 C 0.14933 0.99069 0.04157 0.0
C1110 C 0.17073 0.0067 0.03701 0.0
C1111 C 0.17123 0.03244 0.03218 0.0
C1112 C 0.14928 0.042 0.03213 0.0
C1113 C 0.12745 0.02595 0.03741 0.0
C1114 C 0.12761 1.00015 0.04246 0.0
H1115 H 0.67427 0.64703 0.96861 0.0
H1116 H 0.7151 0.61021 0.02107 0.0
H1117 H 0.67779 0.58011 0.02859 0.0
H1118 H 0.61745 0.64063 1.00104 0.0
H1119 H 0.59862 0.63318 0.97222 0.0
H1120 H 0.62827 0.65322 0.97254 0.0
H1121 H 0.63947 0.6216 0.93665 0.0
H1122 H 0.60989 0.60152 0.93681 0.0
H1123 H 0.63688 0.58769 0.94104 0.0
H1124 H 0.63615 0.55412 0.0311 0.0
H1125 H 0.59338 0.53118 0.02493 0.0
H1126 H 0.57963 0.58242 0.96902 0.0
C1127 C 0.67524 0.63274 0.98178 0.0
C1128 C 0.69763 0.63104 0.99428 0.0
C1129 C 0.69823 0.61182 0.01114 0.0
C1130 C 0.67708 0.5947 0.01569 0.0
C1131 C 0.65536 0.59674 0.00306 0.0
C1132 C 0.65426 0.61504 0.98622 0.0
C1133 C 0.62876 0.61185 0.97401 0.0
C1134 C 0.61763 0.63618 0.98035 0.0
C1135 C 0.62876 0.60527 0.94543 0.0
C1136 C 0.61588 0.58898 0.98662 0.0
C1137 C 0.63149 0.58084 0.0036 0.0
C1138 C 0.62375 0.56023 0.01777 0.0
C1139 C 0.59946 0.54737 0.01423 0.0
C1140 C 0.58338 0.55492 0.99642 0.0
C1141 C 0.59169 0.5761 0.98259 0.0
H1142 H 0.66893 0.42627 0.27517 0.0
H1143 H 0.73138 0.48898 0.28219 0.0
H1144 H 0.75861 0.45737 0.27547 0.0
H1145 H 0.6979 0.38052 0.30634 0.0
H1146 H 0.68331 0.35271 0.28565 0.0
H1147 H 0.6684 0.38019 0.2912 0.0
H1148 H 0.66469 0.38379 0.24326 0.0
H1149 H 0.6796 0.35633 0.23763 0.0
H1150 H 0.69164 0.38662 0.22568 0.0
H1151 H 0.77966 0.41897 0.27025 0.0
H1152 H 0.79252 0.37636 0.26345 0.0
H1153 H 0.71685 0.33827 0.25699 0.0
C1154 C 0.68831 0.43333 0.27516 0.0
C1155 C 0.69792 0.46024 0.27923 0.0
C1156 C 0.72345 0.46857 0.27905 0.0
C1157 C 0.73916 0.45072 0.27532 0.0
C1158 C 0.7292 0.42442 0.2715 0.0
C1159 C 0.70436 0.41568 0.27113 0.0
C1160 C 0.69852 0.38628 0.26627 0.0
C1161 C 0.68631 0.37422 0.2887 0.0
C1162 C 0.68267 0.37776 0.24175 0.0
C1163 C 0.72389 0.38 0.26389 0.0
C1164 C 0.74134 0.40229 0.26733 0.0
C1165 C 0.76613 0.40139 0.2672 0.0
C1166 C 0.77329 0.37711 0.26334 0.0
C1167 C 0.75575 0.35402 0.25922 0.0
C1168 C 0.73072 0.35562 0.25949 0.0
H1169 H 0.8248 0.43656 0.49961 0.0
H1170 H 0.83132 0.38192 0.43572 0.0
H1171 H 0.87264 0.40608 0.43005 0.0
H1172 H 0.85765 0.49433 0.47664 0.0
H1173 H 0.87232 0.50712 0.50692 0.0
H1174 H 0.84283 0.48649 0.50493 0.0
H1175 H 0.8596 0.45547 0.53332 0.0
H1176 H 0.8891 0.47603 0.53546 0.0
H1177 H 0.88594 0.44216 0.52447 0.0
H1178 H 0.91275 0.43658 0.43121 0.0
H1179 H 0.95067 0.46826 0.44146 0.0
H1180 H 0.91884 0.50116 0.50655 0.0
C1181 C 0.83485 0.42985 0.48426 0.0
C1182 C 0.8249 0.40761 0.46787 0.0
C1183 C 0.83871 0.39898 0.44839 0.0
C1184 C 0.86207 0.41263 0.44499 0.0
C1185 C 0.87134 0.43454 0.46149 0.0
C1186 C 0.85829 0.44288 0.48095 0.0
C1187 C 0.87294 0.46598 0.49704 0.0
C1188 C 0.8607 0.4899 0.49632 0.0
C1189 C 0.87715 0.45951 0.52417 0.0
C1190 C 0.89633 0.46941 0.48357 0.0
C1191 C 0.89488 0.45133 0.46291 0.0
C1192 C 0.91412 0.45078 0.44737 0.0
C1193 C 0.93553 0.46895 0.45331 0.0
C1194 C 0.93767 0.48715 0.47483 0.0
C1195 C 0.91773 0.48742 0.49004 0.0
H1196 H 0.38306 0.11408 0.262 0.0
H1197 H 0.33359 0.05699 0.29724 0.0
H1198 H 0.29996 0.0806 0.28899 0.0
H1199 H 0.36011 0.16908 0.28415 0.0
H1200 H 0.36364 0.18455 0.2555 0.0
H1201 H 0.38324 0.16243 0.26335 0.0
H1202 H 0.37047 0.13504 0.2206 0.0
H1203 H 0.35072 0.1571 0.21269 0.0
H1204 H 0.33867 0.12296 0.21223 0.0
H1205 H 0.2734 0.11398 0.28184 0.0
H1206 H 0.25525 0.15214 0.27248 0.0
H1207 H 0.32097 0.18376 0.23754 0.0
C1208 C 0.36508 0.10648 0.26775 0.0
C1209 C 0.3608 0.08393 0.28034 0.0
C1210 C 0.33708 0.07429 0.28747 0.0
C1211 C 0.31793 0.08755 0.28289 0.0
C1212 C 0.32276 0.10994 0.27057 0.0
C1213 C 0.34566 0.11903 0.26268 0.0
C1214 C 0.34618 0.14359 0.24999 0.0
C1215 C 0.36436 0.16624 0.2641 0.0
C1216 C 0.35184 0.13941 0.22223 0.0
C1217 C 0.3202 0.14731 0.25262 0.0
C1218 C 0.30695 0.12788 0.26472 0.0
C1219 C 0.28333 0.12891 0.27169 0.0
C1220 C 0.27316 0.15054 0.26633 0.0
C1221 C 0.2865 0.17035 0.25373 0.0
C1222 C 0.31006 0.16839 0.24642 0.0
H1223 H 0.35244 0.13939 0.49155 0.0
H1224 H 0.2954 0.08197 0.51677 0.0
H1225 H 0.32496 0.05325 0.52313 0.0
H1226 H 0.38351 0.09351 0.45767 0.0
H1227 H 0.41358 0.1117 0.4663 0.0
H1228 H 0.38813 0.1283 0.46405 0.0
H1229 H 0.39852 0.1492 0.50983 0.0
H1230 H 0.42397 0.13261 0.5121 0.0
H1231 H 0.40094 0.12868 0.53469 0.0
H1232 H 0.36006 0.03017 0.52626 0.0
H1233 H 0.39912 0.01452 0.52684 0.0
H1234 H 0.43431 0.08608 0.49955 0.0
C1235 C 0.34625 0.12087 0.49861 0.0
C1236 C 0.32151 0.11302 0.50374 0.0
C1237 C 0.31416 0.08849 0.51271 0.0
C1238 C 0.33084 0.07198 0.51638 0.0
C1239 C 0.35494 0.0801 0.51093 0.0
C1240 C 0.36275 0.10395 0.50228 0.0
C1241 C 0.38975 0.10761 0.49765 0.0
C1242 C 0.39398 0.11045 0.46976 0.0
C1243 C 0.40414 0.13091 0.51458 0.0
C1244 C 0.39582 0.08219 0.50519 0.0
C1245 C 0.37538 0.06663 0.51271 0.0
C1246 C 0.3762 0.0422 0.52045 0.0
C1247 C 0.39848 0.03345 0.52069 0.0
C1248 C 0.41976 0.04903 0.51326 0.0
C1249 C 0.41834 0.07372 0.50533 0.0
H1250 H 0.66029 0.6167 0.28444 0.0
H1251 H 0.70491 0.58176 0.33479 0.0
H1252 H 0.73687 0.62091 0.33733 0.0
H1253 H 0.70884 0.64384 0.24938 0.0
H1254 H 0.69764 0.67318 0.24442 0.0
H1255 H 0.67663 0.6441 0.24895 0.0
H1256 H 0.65922 0.66857 0.28607 0.0
H1257 H 0.68018 0.69778 0.28162 0.0
H1258 H 0.6795 0.68515 0.31183 0.0
H1259 H 0.76457 0.66206 0.33318 0.0
H1260 H 0.78829 0.70213 0.32041 0.0
H1261 H 0.72776 0.71073 0.27024 0.0
C1262 C 0.67656 0.6177 0.29648 0.0
C1263 C 0.68003 0.59645 0.30985 0.0
C1264 C 0.70186 0.59794 0.32467 0.0
C1265 C 0.72006 0.62011 0.32626 0.0
C1266 C 0.71633 0.64056 0.31262 0.0
C1267 C 0.69525 0.63961 0.29786 0.0
C1268 C 0.69706 0.66343 0.28335 0.0
C1269 C 0.69492 0.65566 0.25484 0.0
C1270 C 0.67784 0.67969 0.29119 0.0
C1271 C 0.72257 0.6776 0.29202 0.0
C1272 C 0.73305 0.66415 0.30923 0.0
C1273 C 0.75655 0.6728 0.31976 0.0
C1274 C 0.76991 0.69563 0.31233 0.0
C1275 C 0.75997 0.70953 0.29423 0.0
C1276 C 0.73582 0.70053 0.28413 0.0
H1277 H 0.86987 0.46765 0.77293 0.0
H1278 H 0.9233 0.45516 0.82961 0.0
H1279 H 0.89847 0.41213 0.8345 0.0
H1280 H 0.81668 0.4376 0.8012 0.0
H1281 H 0.80126 0.42374 0.77154 0.0
H1282 H 0.82303 0.45352 0.77315 0.0
H1283 H 0.84741 0.43311 0.73904 0.0
H1284 H 0.82558 0.4034 0.73713 0.0
H1285 H 0.85739 0.40303 0.74363 0.0
H1286 H 0.86692 0.37013 0.83283 0.0
H1287 H 0.83403 0.33202 0.82206 0.0
H1288 H 0.8026 0.37334 0.76621 0.0
C1289 C 0.87642 0.45598 0.78648 0.0
C1290 C 0.89847 0.46481 0.801 0.0
C1291 C 0.90648 0.44873 0.81825 0.0
C1292 C 0.89242 0.42437 0.82125 0.0
C1293 C 0.87056 0.41647 0.80678 0.0
C1294 C 0.86281 0.43179 0.78957 0.0
C1295 C 0.83924 0.41876 0.77551 0.0
C1296 C 0.81885 0.43434 0.78067 0.0
C1297 C 0.84262 0.4143 0.74716 0.0
C1298 C 0.83486 0.39354 0.78736 0.0
C1299 C 0.8529 0.39255 0.80555 0.0
C1300 C 0.85269 0.37078 0.81867 0.0
C1301 C 0.83387 0.34931 0.81256 0.0
C1302 C 0.81578 0.3498 0.79335 0.0
C1303 C 0.81617 0.37239 0.78099 0.0
H1304 H 0.02006 0.87368 0.12821 0.0
H1305 H 0.07346 0.84031 0.08605 0.0
H1306 H 0.07432 0.8738 0.05654 0.0
H1307 H 0.98629 0.88807 0.07464 0.0
H1308 H 0.97978 0.91816 0.0891 0.0
H1309 H 0.98433 0.89274 0.10822 0.0
H1310 H 0.01854 0.9243 0.13512 0.0
H1311 H 0.0138 0.94988 0.1163 0.0
H1312 H 0.04362 0.94165 0.11988 0.0
H1313 H 0.06952 0.91026 0.03158 0.0
H1314 H 0.05965 0.94836 0.01258 0.0
H1315 H 1.00744 0.95742 0.06888 0.0
C1316 C 0.03223 0.87377 0.11302 0.0
C1317 C 0.0469 0.85456 0.10952 0.0
C1318 C 0.06218 0.85491 0.08911 0.0
C1319 C 0.06275 0.87381 0.07223 0.0
C1320 C 0.04769 0.8921 0.0758 0.0
C1321 C 0.03272 0.89235 0.09566 0.0
C1322 C 0.0178 0.91376 0.09453 0.0
C1323 C 0.99042 0.9025 0.09143 0.0
C1324 C 0.02381 0.93357 0.11784 0.0
C1325 C 0.02679 0.92547 0.07098 0.0
C1326 C 0.04412 0.91267 0.06062 0.0
C1327 C 0.05583 0.92032 0.03938 0.0
C1328 C 0.05004 0.94193 0.02868 0.0
C1329 C 0.03252 0.95556 0.03901 0.0
C1330 C 0.02047 0.94696 0.06023 0.0
H1331 H 0.90537 0.26475 0.86952 0.0
H1332 H 0.9551 0.2469 0.8131 0.0
H1333 H 0.92213 0.24251 0.78016 0.0
H1334 H 0.8506 0.22094 0.83975 0.0
H1335 H 0.83085 0.24344 0.84845 0.0
H1336 H 0.85788 0.24297 0.86788 0.0
H1337 H 0.87217 0.29211 0.86417 0.0
H1338 H 0.84514 0.29237 0.8448 0.0
H1339 H 0.87465 0.30345 0.83342 0.0
H1340 H 0.88543 0.24424 0.75288 0.0
H1341 H 0.847 0.25194 0.73304 0.0
H1342 H 0.82015 0.26721 0.8065 0.0
C1343 C 0.90927 0.25954 0.85029 0.0
C1344 C 0.93294 0.25609 0.84402 0.0
C1345 C 0.93722 0.24961 0.81852 0.0
C1346 C 0.91855 0.24698 0.79962 0.0
C1347 C 0.89557 0.25071 0.80642 0.0
C1348 C 0.89078 0.25679 0.83112 0.0
C1349 C 0.86476 0.26118 0.83309 0.0
C1350 C 0.85015 0.24092 0.84818 0.0
C1351 C 0.86417 0.28893 0.84454 0.0
C1352 C 0.8559 0.25717 0.80557 0.0
C1353 C 0.87398 0.25101 0.79057 0.0
C1354 C 0.87096 0.2485 0.76444 0.0
C1355 C 0.84909 0.25287 0.75334 0.0
C1356 C 0.83039 0.25934 0.76828 0.0
C1357 C 0.8337 0.26113 0.79472 0.0
H1358 H 0.52591 0.21781 0.57715 0.0
H1359 H 0.56179 0.21548 0.65002 0.0
H1360 H 0.5615 0.16841 0.6401 0.0
H1361 H 0.48636 0.1536 0.5759 0.0
H1362 H 0.48801 0.14697 0.54246 0.0
H1363 H 0.49028 0.17988 0.55619 0.0
H1364 H 0.53133 0.19241 0.53576 0.0
H1365 H 0.52943 0.15946 0.52238 0.0
H1366 H 0.55574 0.17521 0.54212 0.0
H1367 H 0.56129 0.12243 0.61951 0.0
H1368 H 0.55496 0.08015 0.59329 0.0
H1369 H 0.51626 0.1126 0.53567 0.0
C1370 C 0.53325 0.20722 0.59119 0.0
C1371 C 0.54383 0.22007 0.61435 0.0
C1372 C 0.55336 0.20578 0.6323 0.0
C1373 C 0.55344 0.17915 0.62672 0.0
C1374 C 0.54343 0.16714 0.60334 0.0
C1375 C 0.53291 0.18063 0.58617 0.0
C1376 C 0.52308 0.16334 0.56253 0.0
C1377 C 0.49528 0.16079 0.55908 0.0
C1378 C 0.53565 0.1732 0.53934 0.0
C1379 C 0.53018 0.13812 0.56875 0.0
C1380 C 0.54217 0.14066 0.59222 0.0
C1381 C 0.55157 0.12015 0.6013 0.0
C1382 C 0.5481 0.09631 0.58623 0.0
C1383 C 0.53501 0.09318 0.5626 0.0
C1384 C 0.52611 0.11442 0.55381 0.0
H1385 H 0.59549 0.77205 0.36988 0.0
H1386 H 0.54744 0.75846 0.30233 0.0
H1387 H 0.58294 0.75999 0.27634 0.0
H1388 H 0.64402 0.81573 0.34676 0.0
H1389 H 0.66799 0.80283 0.36198 0.0
H1390 H 0.63886 0.80072 0.3755 0.0
H1391 H 0.6352 0.75091 0.37491 0.0
H1392 H 0.66439 0.75292 0.36152 0.0
H1393 H 0.63809 0.73191 0.34582 0.0
H1394 H 0.62367 0.7657 0.25752 0.0
H1395 H 0.66686 0.77078 0.24725 0.0
H1396 H 0.68863 0.77735 0.32664 0.0
C1397 C 0.59248 0.76931 0.34962 0.0
C1398 C 0.56869 0.76524 0.33812 0.0
C1399 C 0.56548 0.76152 0.31156 0.0
C1400 C 0.58554 0.76246 0.29662 0.0
C1401 C 0.60875 0.76671 0.30848 0.0
C1402 C 0.61235 0.76967 0.33437 0.0
C1403 C 0.63923 0.77328 0.34228 0.0
C1404 C 0.64803 0.79971 0.35753 0.0
C1405 C 0.64453 0.75092 0.357 0.0
C1406 C 0.65013 0.7723 0.31681 0.0
C1407 C 0.63222 0.76873 0.29757 0.0
C1408 C 0.63783 0.76821 0.27241 0.0
C1409 C 0.66239 0.77121 0.26675 0.0
C1410 C 0.68098 0.77428 0.28612 0.0
C1411 C 0.67472 0.77477 0.31145 0.0
H1412 H 0.03488 0.22697 0.47519 0.0
H1413 H 0.02673 0.20269 0.39514 0.0
H1414 H 0.02073 0.15691 0.40414 0.0
H1415 H 0.0688 0.17663 0.49125 0.0
H1416 H 0.05496 0.17264 0.52077 0.0
H1417 H 0.05866 0.20359 0.50812 0.0
H1418 H 0.01246 0.20326 0.51061 0.0
H1419 H 0.00858 0.17219 0.52302 0.0
H1420 H 0.99102 0.17626 0.4951 0.0
H1421 H 0.01277 0.11433 0.42143 0.0
H1422 H 0.00861 0.07659 0.44549 0.0
H1423 H 0.02487 0.12734 0.51507 0.0
C1424 C 0.03193 0.21199 0.45957 0.0
C1425 C 0.0311 0.21839 0.43441 0.0
C1426 C 0.02749 0.19827 0.4145 0.0
C1427 C 0.02395 0.17222 0.41944 0.0
C1428 C 0.02449 0.16658 0.44439 0.0
C1429 C 0.02886 0.18582 0.46416 0.0
C1430 C 0.02922 0.17429 0.4892 0.0
C1431 C 0.05441 0.18226 0.50315 0.0
C1432 C 0.00912 0.18196 0.50544 0.0
C1433 C 0.02396 0.14552 0.48039 0.0
C1434 C 0.02105 0.14169 0.45446 0.0
C1435 C 0.01524 0.11706 0.44171 0.0
C1436 C 0.01274 0.0957 0.45571 0.0
C1437 C 0.01636 0.09886 0.48233 0.0
C1438 C 0.02202 0.12423 0.49481 0.0
H1439 H 0.56904 0.26693 0.16572 0.0
H1440 H 0.59795 0.28755 0.0947 0.0
H1441 H 0.63866 0.28331 0.11042 0.0
H1442 H 0.62248 0.30121 0.2052 0.0
H1443 H 0.62084 0.27683 0.22696 0.0
H1444 H 0.59352 0.28193 0.21058 0.0
H1445 H 0.5841 0.23336 0.19374 0.0
H1446 H 0.61155 0.2282 0.20984 0.0
H1447 H 0.60644 0.2195 0.17645 0.0
H1448 H 0.67597 0.2756 0.13221 0.0
H1449 H 0.70915 0.26823 0.1608 0.0
H1450 H 0.65827 0.25308 0.21897 0.0
C1451 C 0.58399 0.27083 0.1536 0.0
C1452 C 0.57998 0.27747 0.12879 0.0
C1453 C 0.60019 0.28227 0.11363 0.0
C1454 C 0.62354 0.27989 0.12239 0.0
C1455 C 0.62677 0.27278 0.14652 0.0
C1456 C 0.60773 0.26858 0.16213 0.0
C1457 C 0.61669 0.26128 0.18737 0.0
C1458 C 0.61317 0.28152 0.2088 0.0
C1459 C 0.60393 0.23396 0.19213 0.0
C1460 C 0.6436 0.26195 0.18328 0.0
C1461 C 0.64881 0.26853 0.15946 0.0
C1462 C 0.67217 0.27051 0.15095 0.0
C1463 C 0.69091 0.26619 0.16735 0.0
C1464 C 0.68637 0.25999 0.19209 0.0
C1465 C 0.66227 0.25754 0.20008 0.0
H1466 H 0.51589 0.83857 0.94863 0.0
H1467 H 0.55881 0.87 0.88927 0.0
H1468 H 0.55916 0.91449 0.90904 0.0
H1469 H 0.47804 0.88807 0.95178 0.0
H1470 H 0.47562 0.88826 0.98526 0.0
H1471 H 0.4796 0.85909 0.96687 0.0
H1472 H 0.51772 0.85704 0.99539 0.0
H1473 H 0.51397 0.8863 0.01374 0.0
H1474 H 0.54234 0.8845 0.99955 0.0
H1475 H 0.55769 0.95497 0.93749 0.0
H1476 H 0.54846 0.98955 0.96787 0.0
H1477 H 0.50244 0.93196 0.00602 0.0
C1478 C 0.52531 0.8548 0.93975 0.0
C1479 C 0.53752 0.85092 0.91753 0.0
C1480 C 0.54939 0.87263 0.9063 0.0
C1481 C 0.54976 0.89791 0.91746 0.0
C1482 C 0.53768 0.90105 0.93949 0.0
C1483 C 0.52521 0.88011 0.9502 0.0
C1484 C 0.51259 0.88883 0.97311 0.0
C1485 C 0.48482 0.88057 0.969 0.0
C1486 C 0.52224 0.87855 0.99685 0.0
C1487 C 0.52023 0.91798 0.9739 0.0
C1488 C 0.53501 0.92455 0.95456 0.0
C1489 C 0.54547 0.95016 0.95217 0.0
C1490 C 0.54006 0.96965 0.96948 0.0
C1491 C 0.5241 0.9635 0.98877 0.0
C1492 C 0.51434 0.93726 0.99117 0.0
H1493 H 0.92826 0.74876 0.68139 0.0
H1494 H 0.92737 0.8184 0.64403 0.0
H1495 H 0.89237 0.82719 0.66774 0.0
H1496 H 0.86194 0.73027 0.67942 0.0
H1497 H 0.86169 0.71704 0.70935 0.0
H1498 H 0.88746 0.71671 0.69035 0.0
H1499 H 0.91588 0.74112 0.7276 0.0
H1500 H 0.89011 0.74173 0.74656 0.0
H1501 H 0.91004 0.77157 0.74192 0.0
H1502 H 0.85928 0.83011 0.69706 0.0
H1503 H 0.82515 0.82308 0.72476 0.0
H1504 H 0.84336 0.74896 0.74 0.0
C1505 C 0.92059 0.76579 0.67824 0.0
C1506 C 0.9306 0.78304 0.66098 0.0
C1507 C 0.91993 0.80492 0.65707 0.0
C1508 C 0.90015 0.81018 0.67059 0.0
C1509 C 0.89081 0.79303 0.6876 0.0
C1510 C 0.90019 0.7709 0.69104 0.0
C1511 C 0.88545 0.75487 0.70929 0.0
C1512 C 0.87342 0.72814 0.69632 0.0
C1513 C 0.90132 0.75217 0.73273 0.0
C1514 C 0.8666 0.77164 0.71571 0.0
C1515 C 0.87043 0.79381 0.70334 0.0
C1516 C 0.85599 0.81274 0.70671 0.0
C1517 C 0.83675 0.80867 0.72268 0.0
C1518 C 0.83163 0.78556 0.73464 0.0
C1519 C 0.8469 0.76686 0.73117 0.0
H1520 H 0.13609 0.03347 0.87469 0.0
H1521 H 0.09238 0.97149 0.82495 0.0
H1522 H 0.0634 0.96275 0.85797 0.0
H1523 H 0.12548 1.00405 0.93407 0.0
H1524 H 0.12296 0.03414 0.95178 0.0
H1525 H 0.14171 0.03432 0.92522 0.0
H1526 H 0.11776 0.066 0.90522 0.0
H1527 H 0.09895 0.0659 0.9317 0.0
H1528 H 0.08514 0.05737 0.90033 0.0
H1529 H 0.03858 0.96106 0.89546 0.0
H1530 H 0.0177 0.96847 0.93439 0.0
H1531 H 0.07542 0.0332 0.96009 0.0
C1532 C 0.12062 0.01781 0.87104 0.0
C1533 C 0.1166 1.00282 0.84741 0.0
C1534 C 0.09583 0.983 0.84299 0.0
C1535 C 0.07931 0.97786 0.86165 0.0
C1536 C 0.08352 0.993 0.88465 0.0
C1537 C 0.10351 0.01275 0.88944 0.0
C1538 C 0.10256 0.02722 0.91524 0.0
C1539 C 0.12448 0.02478 0.9326 0.0
C1540 C 0.10101 0.05582 0.91298 0.0
C1541 C 0.07898 0.01252 0.92403 0.0
C1542 C 0.06852 0.99269 0.90613 0.0
C1543 C 0.0466 0.97652 0.90963 0.0
C1544 C 0.03486 0.98088 0.93184 0.0
C1545 C 0.04483 1.00141 0.95029 0.0
C1546 C 0.06736 0.01729 0.94637 0.0
H1547 H 0.79431 0.36729 0.56401 0.0
H1548 H 0.72053 0.38189 0.55964 0.0
H1549 H 0.71461 0.36784 0.60224 0.0
H1550 H 0.78401 0.3119 0.59131 0.0
H1551 H 0.8109 0.31761 0.61231 0.0
H1552 H 0.8111 0.3332 0.58378 0.0
H1553 H 0.82363 0.3784 0.60883 0.0
H1554 H 0.82423 0.36293 0.63751 0.0
H1555 H 0.80589 0.38752 0.63436 0.0
H1556 H 0.71417 0.34319 0.64014 0.0
H1557 H 0.72165 0.31782 0.67536 0.0
H1558 H 0.79699 0.32305 0.65706 0.0
C1559 C 0.77733 0.36859 0.5726 0.0
C1560 C 0.75792 0.37584 0.559 0.0
C1561 C 0.73567 0.37682 0.57022 0.0
C1562 C 0.73214 0.36872 0.59424 0.0
C1563 C 0.75131 0.36044 0.60678 0.0
C1564 C 0.77376 0.3612 0.59673 0.0
C1565 C 0.79091 0.34993 0.61339 0.0
C1566 C 0.79973 0.32679 0.59934 0.0
C1567 C 0.81244 0.37095 0.62417 0.0
C1568 C 0.77418 0.34132 0.63361 0.0
C1569 C 0.75141 0.34752 0.62946 0.0
C1570 C 0.73216 0.3391 0.64413 0.0
C1571 C 0.73653 0.32461 0.66399 0.0
C1572 C 0.76001 0.31912 0.66917 0.0
C1573 C 0.779 0.32746 0.65372 0.0
H1574 H 0.42278 0.0467 0.38046 0.0
H1575 H 0.47748 0.09421 0.34142 0.0
H1576 H 0.50633 0.09872 0.37842 0.0
H1577 H 0.44173 0.07825 0.44647 0.0
H1578 H 0.43562 0.04709 0.45868 0.0
H1579 H 0.418 0.05309 0.43159 0.0
H1580 H 0.4297 0.01236 0.40732 0.0
H1581 H 0.44782 0.00715 0.43428 0.0
H1582 H 0.46141 0.01065 0.40457 0.0
H1583 H 0.53099 0.0929 0.41679 0.0
H1584 H 0.54956 0.07616 0.4534 0.0
H1585 H 0.47927 0.031 0.46608 0.0
C1586 C 0.44051 0.05885 0.38017 0.0
C1587 C 0.44791 0.07041 0.3584 0.0
C1588 C 0.47153 0.08538 0.35814 0.0
C1589 C 0.48797 0.08816 0.37907 0.0
C1590 C 0.48049 0.07577 0.40003 0.0
C1591 C 0.45728 0.06145 0.40078 0.0
C1592 C 0.45488 0.04712 0.42402 0.0
C1593 C 0.43647 0.05701 0.4412 0.0
C1594 C 0.44807 0.01759 0.41712 0.0
C1595 C 0.48055 0.05484 0.43565 0.0
C1596 C 0.49495 0.0718 0.42188 0.0
C1597 C 0.5198 0.08001 0.42804 0.0
C1598 C 0.53022 0.07037 0.44872 0.0
C1599 C 0.51578 0.05252 0.46256 0.0
C1600 C 0.49065 0.04502 0.4561 0.0
H1601 H 0.79054 0.73306 0.07003 0.0
H1602 H 0.75646 0.65294 0.07338 0.0
H1603 H 0.75165 0.66203 0.11885 0.0
H1604 H 0.8245 0.73905 0.13199 0.0
H1605 H 0.82151 0.77243 0.13898 0.0
H1606 H 0.82262 0.75936 0.10685 0.0
H1607 H 0.78175 0.77369 0.09587 0.0
H1608 H 0.78031 0.78639 0.12803 0.0
H1609 H 0.75551 0.7626 0.11304 0.0
H1610 H 0.7461 0.68122 0.16268 0.0
H1611 H 0.74753 0.70684 0.20399 0.0
H1612 H 0.78967 0.77317 0.17386 0.0
C1613 C 0.78247 0.71738 0.0805 0.0
C1614 C 0.77388 0.69227 0.06826 0.0
C1615 C 0.7634 0.67221 0.08248 0.0
C1616 C 0.76041 0.67726 0.10826 0.0
C1617 C 0.76857 0.70233 0.11969 0.0
C1618 C 0.78008 0.72188 0.10647 0.0
C1619 C 0.78793 0.74689 0.12353 0.0
C1620 C 0.81579 0.7549 0.12545 0.0
C1621 C 0.77564 0.76867 0.11457 0.0
C1622 C 0.77847 0.73853 0.14822 0.0
C1623 C 0.76698 0.71286 0.14545 0.0
C1624 C 0.75543 0.70119 0.16518 0.0
C1625 C 0.75613 0.71593 0.18848 0.0
C1626 C 0.76875 0.74187 0.19204 0.0
C1627 C 0.78004 0.75329 0.17162 0.0
H1628 H 0.13351 0.06126 0.71334 0.0
H1629 H 0.10762 0.97895 0.71464 0.0
H1630 H 0.0874 0.9771 0.67229 0.0
H1631 H 0.08302 0.07682 0.68612 0.0
H1632 H 0.09756 0.09978 0.66597 0.0
H1633 H 0.11348 0.09427 0.69433 0.0
H1634 H 0.14907 0.08247 0.66907 0.0
H1635 H 0.13361 0.08864 0.6406 0.0
H1636 H 0.14291 0.0578 0.64285 0.0
H1637 H 0.06333 0.98611 0.63472 0.0
H1638 H 0.04304 1.00339 0.59983 0.0
H1639 H 0.08746 0.07925 0.61972 0.0
C1640 C 0.12461 0.04266 0.70406 0.0
C1641 C 0.12257 0.02006 0.71684 0.0
C1642 C 0.10996 0.99622 0.70476 0.0
C1643 C 0.09824 0.9951 0.68085 0.0
C1644 C 0.09974 0.01793 0.66913 0.0
C1645 C 0.11329 0.04112 0.67991 0.0
C1646 C 0.111 0.06304 0.66379 0.0
C1647 C 0.10065 0.08475 0.67844 0.0
C1648 C 0.13561 0.07361 0.65346 0.0
C1649 C 0.09304 0.04883 0.64294 0.0
C1650 C 0.08674 0.02283 0.64652 0.0
C1651 C 0.06869 0.00621 0.63131 0.0
C1652 C 0.05715 0.01624 0.61166 0.0
C1653 C 0.06394 0.04249 0.60698 0.0
C1654 C 0.08221 0.05901 0.62275 0.0
H1655 H 0.75536 0.38409 0.40356 0.0
H1656 H 0.71824 0.32544 0.44741 0.0
H1657 H 0.71828 0.29195 0.41214 0.0
H1658 H 0.72557 0.35647 0.34208 0.0
H1659 H 0.75294 0.36466 0.32574 0.0
H1660 H 0.7481 0.38437 0.35369 0.0
H1661 H 0.78937 0.37769 0.37365 0.0
H1662 H 0.7941 0.35763 0.3459 0.0
H1663 H 0.79477 0.34523 0.37619 0.0
H1664 H 0.72282 0.2646 0.37249 0.0
H1665 H 0.73138 0.24557 0.33047 0.0
H1666 H 0.76796 0.32143 0.31393 0.0
C1667 C 0.74679 0.36429 0.40544 0.0
C1668 C 0.73658 0.3573 0.42801 0.0
C1669 C 0.72606 0.33113 0.43015 0.0
C1670 C 0.72601 0.31197 0.41027 0.0
C1671 C 0.73674 0.31929 0.38845 0.0
C1672 C 0.74688 0.3448 0.38583 0.0
C1673 C 0.75821 0.34717 0.36078 0.0
C1674 C 0.74544 0.36417 0.34462 0.0
C1675 C 0.78575 0.35754 0.36436 0.0
C1676 C 0.75294 0.31905 0.34994 0.0
C1677 C 0.74036 0.30329 0.36606 0.0
C1678 C 0.73278 0.2767 0.3597 0.0
C1679 C 0.73779 0.26603 0.33594 0.0
C1680 C 0.7505 0.28194 0.31913 0.0
C1681 C 0.75851 0.30866 0.3265 0.0
H1682 H 0.47701 0.02764 0.22732 0.0
H1683 H 0.41225 0.06182 0.21909 0.0
H1684 H 0.41887 0.06427 0.17384 0.0
H1685 H 0.51302 0.06506 0.18574 0.0
H1686 H 0.5269 0.03859 0.17328 0.0
H1687 H 0.51694 0.0394 0.20484 0.0
H1688 H 0.49014 0.99388 0.1944 0.0
H1689 H 0.50018 0.99283 0.16288 0.0
H1690 H 0.46813 0.98837 0.16798 0.0
H1691 H 0.43372 0.06458 0.13018 0.0
H1692 H 0.45322 0.05894 0.09012 0.0
H1693 H 0.50754 0.02323 0.12704 0.0
C1694 C 0.46417 0.03565 0.21604 0.0
C1695 C 0.44419 0.04471 0.22668 0.0
C1696 C 0.42763 0.05471 0.21124 0.0
C1697 C 0.43133 0.05631 0.18562 0.0
C1698 C 0.45149 0.04757 0.17587 0.0
C1699 C 0.46744 0.03713 0.19054 0.0
C1700 C 0.4874 0.02859 0.1755 0.0
C1701 C 0.51255 0.04383 0.18543 0.0
C1702 C 0.48639 0.99917 0.17517 0.0
C1703 C 0.48029 0.03594 0.14996 0.0
C1704 C 0.45964 0.04706 0.15063 0.0
C1705 C 0.44975 0.05572 0.1294 0.0
C1706 C 0.46099 0.05246 0.10678 0.0
C1707 C 0.48175 0.04049 0.1056 0.0
C1708 C 0.49165 0.03237 0.12749 0.0
H1709 H 0.78991 0.71651 0.94446 0.0
H1710 H 0.75732 0.63912 0.91177 0.0
H1711 H 0.75368 0.6556 0.87025 0.0
H1712 H 0.7545 0.75201 0.90712 0.0
H1713 H 0.77951 0.77792 0.90365 0.0
H1714 H 0.77905 0.76029 0.93101 0.0
H1715 H 0.8213 0.74932 0.92159 0.0
H1716 H 0.82184 0.76684 0.89414 0.0
H1717 H 0.82562 0.73342 0.8913 0.0
H1718 H 0.75134 0.6807 0.83288 0.0
H1719 H 0.75301 0.71204 0.80127 0.0
H1720 H 0.79096 0.77293 0.85623 0.0
C1721 C 0.78191 0.70309 0.92856 0.0
C1722 C 0.77371 0.67649 0.93142 0.0
C1723 C 0.76369 0.65951 0.91008 0.0
C1724 C 0.76152 0.66872 0.8864 0.0
C1725 C 0.76985 0.69494 0.88416 0.0
C1726 C 0.78009 0.71189 0.90457 0.0
C1727 C 0.7882 0.73903 0.89671 0.0
C1728 C 0.77449 0.75846 0.91044 0.0
C1729 C 0.81589 0.74766 0.9012 0.0
C1730 C 0.78071 0.73472 0.86877 0.0
C1731 C 0.76994 0.70916 0.86209 0.0
C1732 C 0.76019 0.70062 0.83779 0.0
C1733 C 0.76141 0.7186 0.81986 0.0
C1734 C 0.77284 0.7448 0.82592 0.0
C1735 C 0.7827 0.7529 0.85079 0.0
H1736 H 0.86256 0.12694 0.02186 0.0
H1737 H 0.80465 0.06044 0.02286 0.0
H1738 H 0.83488 0.0313 0.02034 0.0
H1739 H 0.89871 0.09873 0.97886 0.0
H1740 H 0.92736 0.11395 0.99485 0.0
H1741 H 0.90124 0.12948 0.99746 0.0
H1742 H 0.90584 0.13131 0.04607 0.0
H1743 H 0.93212 0.11601 0.04353 0.0
H1744 H 0.90685 0.10189 0.06061 0.0
H1745 H 0.87169 0.00921 0.01408 0.0
H1746 H 0.91237 0.99687 0.00981 0.0
H1747 H 0.94548 0.07823 0.01575 0.0
C1748 C 0.85628 0.10627 0.02183 0.0
C1749 C 0.83131 0.09591 0.02252 0.0
C1750 C 0.82376 0.06877 0.02252 0.0
C1751 C 0.84077 0.05206 0.02094 0.0
C1752 C 0.86526 0.06288 0.01981 0.0
C1753 C 0.87301 0.08941 0.02072 0.0
C1754 C 0.90032 0.09626 0.0196 0.0
C1755 C 0.9073 0.11043 0.99631 0.0
C1756 C 0.91196 0.11231 0.0439 0.0
C1757 C 0.90668 0.06945 0.01743 0.0
C1758 C 0.88629 0.05034 0.01736 0.0
C1759 C 0.88782 0.02403 0.01444 0.0
C1760 C 0.91088 0.01717 0.01189 0.0
C1761 C 0.9319 0.03661 0.01264 0.0
C1762 C 0.92967 0.06297 0.0154 0.0
H1763 H 0.36634 0.41959 1.0026 0.0
H1764 H 0.32506 0.46607 0.04874 0.0
H1765 H 0.36065 0.50193 0.05402 0.0
H1766 H 0.42237 0.43837 0.03705 0.0
H1767 H 0.44045 0.43886 0.00998 0.0
H1768 H 0.41127 0.41782 0.00867 0.0
H1769 H 0.39752 0.43848 0.96955 0.0
H1770 H 0.4267 0.45965 0.97077 0.0
H1771 H 0.39923 0.47312 0.97117 0.0
H1772 H 0.40282 0.53137 0.05726 0.0
H1773 H 0.44642 0.55153 0.05664 0.0
H1774 H 0.45835 0.4861 0.00661 0.0
C1775 C 0.36464 0.43737 0.01366 0.0
C1776 C 0.34288 0.43993 0.02534 0.0
C1777 C 0.34148 0.46364 0.03953 0.0
C1778 C 0.36163 0.48412 0.04265 0.0
C1779 C 0.38293 0.48078 0.03113 0.0
C1780 C 0.38439 0.45804 0.01666 0.0
C1781 C 0.4094 0.45887 0.0067 0.0
C1782 C 0.42158 0.4372 0.01618 0.0
C1783 C 0.40812 0.45745 0.97783 0.0
C1784 C 0.42204 0.48534 0.0183 0.0
C1785 C 0.4066 0.49782 0.03232 0.0
C1786 C 0.41492 0.52189 0.04601 0.0
C1787 C 0.43968 0.53324 0.04555 0.0
C1788 C 0.45571 0.52052 0.03144 0.0
C1789 C 0.44652 0.49651 0.01734 0.0
H1790 H 0.37357 0.63088 0.76126 0.0
H1791 H 0.31388 0.56844 0.73491 0.0
H1792 H 0.28504 0.59869 0.73992 0.0
H1793 H 0.34159 0.663 0.80783 0.0
H1794 H 0.35529 0.69533 0.80181 0.0
H1795 H 0.37159 0.66896 0.7961 0.0
H1796 H 0.37654 0.67948 0.75005 0.0
H1797 H 0.3605 0.70605 0.7558 0.0
H1798 H 0.34994 0.68115 0.73043 0.0
H1799 H 0.26226 0.63542 0.74836 0.0
H1800 H 0.24762 0.67671 0.75648 0.0
H1801 H 0.3217 0.71614 0.7771 0.0
C1802 C 0.35445 0.62361 0.7564 0.0
C1803 C 0.34608 0.59713 0.74767 0.0
C1804 C 0.32086 0.58852 0.74157 0.0
C1805 C 0.30426 0.60558 0.74446 0.0
C1806 C 0.31301 0.63139 0.75341 0.0
C1807 C 0.33754 0.64049 0.75907 0.0
C1808 C 0.34209 0.66933 0.76792 0.0
C1809 C 0.3533 0.67444 0.79503 0.0
C1810 C 0.35822 0.68492 0.74997 0.0
C1811 C 0.31631 0.67491 0.76646 0.0
C1812 C 0.29984 0.65269 0.75814 0.0
C1813 C 0.27501 0.65294 0.7549 0.0
C1814 C 0.26683 0.67657 0.75971 0.0
C1815 C 0.28334 0.69986 0.76766 0.0
C1816 C 0.30843 0.69876 0.77139 0.0
H1817 H 0.18119 0.65042 0.53038 0.0
H1818 H 0.21669 0.58839 0.49984 0.0
H1819 H 0.17802 0.55767 0.4987 0.0
H1820 H 0.14098 0.61108 0.5697 0.0
H1821 H 0.11568 0.62715 0.56379 0.0
H1822 H 0.1464 0.64455 0.56317 0.0
H1823 H 0.13721 0.65598 0.51807 0.0
H1824 H 0.10643 0.6389 0.5187 0.0
H1825 H 0.12516 0.63031 0.49385 0.0
H1826 H 0.13568 0.53429 0.49795 0.0
H1827 H 0.09119 0.51966 0.49706 0.0
H1828 H 0.08268 0.59556 0.53 0.0
C1829 C 0.18082 0.63039 0.52346 0.0
C1830 C 0.20203 0.62186 0.51522 0.0
C1831 C 0.20076 0.59543 0.50636 0.0
C1832 C 0.17888 0.57776 0.5057 0.0
C1833 C 0.15843 0.58671 0.51417 0.0
C1834 C 0.1591 0.61234 0.52287 0.0
C1835 C 0.13417 0.61689 0.53014 0.0
C1836 C 0.13433 0.62542 0.55838 0.0
C1837 C 0.12522 0.63669 0.51423 0.0
C1838 C 0.11935 0.58991 0.52363 0.0
C1839 C 0.13382 0.57282 0.51454 0.0
C1840 C 0.12419 0.5473 0.50545 0.0
C1841 C 0.099 0.53916 0.50506 0.0
C1842 C 0.08384 0.55637 0.51399 0.0
C1843 C 0.09411 0.58188 0.52387 0.0
H1844 H 0.6857 0.95012 0.72183 0.0
H1845 H 0.65112 0.95404 0.79276 0.0
H1846 H 0.67803 0.92682 0.81 0.0
H1847 H 0.68972 0.88252 0.722 0.0
H1848 H 0.71836 0.8857 0.70733 0.0
H1849 H 0.69775 0.90738 0.70121 0.0
H1850 H 0.73203 0.94658 0.71563 0.0
H1851 H 0.75258 0.9249 0.72225 0.0
H1852 H 0.74697 0.94883 0.74649 0.0
H1853 H 0.70861 0.89998 0.82008 0.0
H1854 H 0.73554 0.86749 0.8196 0.0
H1855 H 0.74816 0.87739 0.74138 0.0
C1856 C 0.6839 0.94517 0.74095 0.0
C1857 C 0.66646 0.95416 0.75602 0.0
C1858 C 0.66428 0.94713 0.78086 0.0
C1859 C 0.67967 0.93196 0.79095 0.0
C1860 C 0.69688 0.9236 0.77582 0.0
C1861 C 0.6987 0.9293 0.75115 0.0
C1862 C 0.71716 0.91557 0.73832 0.0
C1863 C 0.70502 0.89667 0.7159 0.0
C1864 C 0.73845 0.93515 0.7302 0.0
C1865 C 0.72521 0.90125 0.75962 0.0
C1866 C 0.71374 0.90674 0.78125 0.0
C1867 C 0.71778 0.8955 0.80329 0.0
C1868 C 0.73324 0.87726 0.80293 0.0
C1869 C 0.74392 0.87017 0.78052 0.0
C1870 C 0.74037 0.88278 0.75882 0.0
H1871 H 0.7168 0.9581 0.52606 0.0
H1872 H 0.68322 0.87859 0.53372 0.0
H1873 H 0.64313 0.89184 0.5361 0.0
H1874 H 0.67814 0.98977 0.56711 0.0
H1875 H 0.67645 0.01555 0.54747 0.0
H1876 H 0.70289 1.00033 0.54779 0.0
H1877 H 0.69708 0.98962 0.4995 0.0
H1878 H 0.67063 0.00481 0.49905 0.0
H1879 H 0.66835 0.9717 0.4858 0.0
H1880 H 0.60684 0.9133 0.53799 0.0
H1881 H 0.57575 0.94092 0.53602 0.0
H1882 H 0.63143 0.00673 0.52445 0.0
C1883 C 0.70101 0.94356 0.52848 0.0
C1884 C 0.70319 0.91728 0.52992 0.0
C1885 C 0.68204 0.89878 0.53261 0.0
C1886 C 0.65918 0.90615 0.53406 0.0
C1887 C 0.6576 0.9321 0.53248 0.0
C1888 C 0.67786 0.95054 0.52949 0.0
C1889 C 0.67074 0.97687 0.52699 0.0
C1890 C 0.68278 0.99681 0.54863 0.0
C1891 C 0.67708 0.9863 0.50131 0.0
C1892 C 0.64334 0.9703 0.52902 0.0
C1893 C 0.63631 0.94439 0.53249 0.0
C1894 C 0.61212 0.93357 0.53518 0.0
C1895 C 0.59457 0.94949 0.53405 0.0
C1896 C 0.60108 0.97598 0.52996 0.0
C1897 C 0.62588 0.98654 0.52751 0.0
H1898 H 0.34345 0.46715 0.73122 0.0
H1899 H 0.41166 0.44874 0.75997 0.0
H1900 H 0.39169 0.40405 0.76282 0.0
H1901 H 0.30463 0.42748 0.7697 0.0
H1902 H 0.28051 0.41632 0.74572 0.0
H1903 H 0.29994 0.44735 0.74483 0.0
H1904 H 0.31079 0.43345 0.69973 0.0
H1905 H 0.29138 0.40235 0.7005 0.0
H1906 H 0.32288 0.40407 0.69372 0.0
H1907 H 0.36501 0.36304 0.76659 0.0
H1908 H 0.33256 0.32558 0.76831 0.0
H1909 H 0.28071 0.36627 0.73389 0.0
C1910 C 0.35418 0.45363 0.73791 0.0
C1911 C 0.37929 0.46175 0.74527 0.0
C1912 C 0.39255 0.44332 0.75401 0.0
C1913 C 0.38135 0.41772 0.75578 0.0
C1914 C 0.35678 0.41041 0.74854 0.0
C1915 C 0.34325 0.42756 0.73955 0.0
C1916 C 0.31693 0.41404 0.73332 0.0
C1917 C 0.29947 0.42708 0.74935 0.0
C1918 C 0.3101 0.41344 0.70514 0.0
C1919 C 0.31793 0.38689 0.74066 0.0
C1920 C 0.34121 0.38557 0.74948 0.0
C1921 C 0.34683 0.36355 0.75911 0.0
C1922 C 0.32823 0.34219 0.75978 0.0
C1923 C 0.30426 0.34245 0.75032 0.0
C1924 C 0.29901 0.36518 0.74055 0.0
H1925 H 0.17582 0.59464 0.22492 0.0
H1926 H 0.11823 0.60844 0.27333 0.0
H1927 H 0.13831 0.65428 0.28254 0.0
H1928 H 0.22476 0.63432 0.26116 0.0
H1929 H 0.24045 0.64647 0.23476 0.0
H1930 H 0.22113 0.61503 0.23121 0.0
H1931 H 0.19634 0.62886 0.19439 0.0
H1932 H 0.21566 0.66035 0.19776 0.0
H1933 H 0.18318 0.65769 0.19909 0.0
H1934 H 0.16664 0.69691 0.28983 0.0
H1935 H 0.19935 0.73538 0.29137 0.0
H1936 H 0.23683 0.69532 0.2354 0.0
C1937 C 0.16735 0.60741 0.23728 0.0
C1938 C 0.14553 0.59809 0.2485 0.0
C1939 C 0.13486 0.6153 0.26445 0.0
C1940 C 0.14617 0.6413 0.26984 0.0
C1941 C 0.16783 0.64981 0.2587 0.0
C1942 C 0.1781 0.63353 0.24241 0.0
C1943 C 0.20146 0.64761 0.23293 0.0
C1944 C 0.22323 0.63511 0.24047 0.0
C1945 C 0.199 0.6487 0.20434 0.0
C1946 C 0.20303 0.67422 0.24691 0.0
C1947 C 0.18351 0.67495 0.26182 0.0
C1948 C 0.18176 0.69675 0.2779 0.0
C1949 C 0.20042 0.7184 0.27874 0.0
C1950 C 0.2203 0.71821 0.26331 0.0
C1951 C 0.22152 0.69598 0.247 0.0
H1952 H 0.48273 0.69455 0.44102 0.0
H1953 H 0.55047 0.71079 0.40409 0.0
H1954 H 0.56509 0.67529 0.42425 0.0
H1955 H 0.50648 0.67978 0.49894 0.0
H1956 H 0.48185 0.65359 0.50286 0.0
H1957 H 0.47652 0.67968 0.48504 0.0
H1958 H 0.45975 0.64675 0.44681 0.0
H1959 H 0.46486 0.62049 0.46453 0.0
H1960 H 0.47809 0.62408 0.43466 0.0
H1961 H 0.57336 0.64016 0.4515 0.0
H1962 H 0.57217 0.60381 0.478 0.0
H1963 H 0.498 0.60934 0.4949 0.0
C1964 C 0.50054 0.69043 0.43695 0.0
C1965 C 0.51554 0.70543 0.42108 0.0
C1966 C 0.53865 0.69938 0.41605 0.0
C1967 C 0.54715 0.67942 0.42758 0.0
C1968 C 0.53213 0.66545 0.44369 0.0
C1969 C 0.50907 0.67032 0.44787 0.0
C1970 C 0.49621 0.65214 0.46543 0.0
C1971 C 0.48991 0.66721 0.48949 0.0
C1972 C 0.47338 0.63484 0.45205 0.0
C1973 C 0.51579 0.63657 0.4709 0.0
C1974 C 0.53648 0.64468 0.45843 0.0
C1975 C 0.55717 0.63352 0.46116 0.0
C1976 C 0.55642 0.61306 0.47645 0.0
C1977 C 0.53502 0.6038 0.48852 0.0
C1978 C 0.51461 0.61599 0.48587 0.0
H1979 H 0.60392 0.28647 0.69059 0.0
H1980 H 0.64023 0.34683 0.6482 0.0
H1981 H 0.67714 0.35179 0.67687 0.0
H1982 H 0.63139 0.31191 0.7531 0.0
H1983 H 0.63442 0.28032 0.76187 0.0
H1984 H 0.6101 0.28363 0.73988 0.0
H1985 H 0.62429 0.25077 0.70737 0.0
H1986 H 0.64857 0.24732 0.72925 0.0
H1987 H 0.65532 0.2566 0.69837 0.0
H1988 H 0.71009 0.34994 0.71039 0.0
H1989 H 0.73865 0.33673 0.74116 0.0
H1990 H 0.6818 0.27515 0.75947 0.0
C1991 C 0.61947 0.30114 0.68769 0.0
C1992 C 0.61908 0.31671 0.66752 0.0
C1993 C 0.64008 0.33497 0.66373 0.0
C1994 C 0.66105 0.33797 0.67998 0.0
C1995 C 0.66083 0.32227 0.69969 0.0
C1996 C 0.6407 0.30391 0.70333 0.0
C1997 C 0.64595 0.28763 0.72421 0.0
C1998 C 0.62948 0.29109 0.74606 0.0
C1999 C 0.64338 0.25888 0.71419 0.0
C2000 C 0.67222 0.29959 0.73173 0.0
C2001 C 0.68031 0.3199 0.71773 0.0
C2002 C 0.70398 0.33391 0.72127 0.0
C2003 C 0.72007 0.32629 0.73879 0.0
C2004 C 0.71251 0.30473 0.7524 0.0
C2005 C 0.68809 0.29166 0.74925 0.0
H2006 H 0.03142 0.35469 0.89393 0.0
H2007 H 0.96563 0.30796 0.91637 0.0
H2008 H 0.95644 0.34592 0.94219 0.0
H2009 H 0.04802 0.38733 0.9543 0.0
H2010 H 0.06091 0.41797 0.9435 0.0
H2011 H 0.06063 0.38829 0.92389 0.0
H2012 H 0.03772 0.40565 0.88784 0.0
H2013 H 0.03808 0.43549 0.90731 0.0
H2014 H 0.00963 0.41686 0.89367 0.0
H2015 H 0.95507 0.3886 0.96667 0.0
H2016 H 0.96331 0.43195 0.99069 0.0
H2017 H 0.03196 0.44973 0.95558 0.0
C2018 C 0.01478 0.35276 0.90377 0.0
C2019 C 0.99887 0.32867 0.90275 0.0
C2020 C 0.97779 0.32641 0.91664 0.0
C2021 C 0.97243 0.34786 0.93133 0.0
C2022 C 0.98865 0.37131 0.93235 0.0
C2023 C 0.00953 0.37385 0.91915 0.0
C2024 C 0.02515 0.40044 0.92554 0.0
C2025 C 0.05015 0.39837 0.93752 0.0
C2026 C 0.02779 0.4155 0.9022 0.0
C2027 C 0.00985 0.41232 0.94445 0.0
C2028 C 0.98867 0.39537 0.94778 0.0
C2029 C 0.97161 0.40205 0.96424 0.0
C2030 C 0.97642 0.42668 0.97778 0.0
C2031 C 0.99831 0.44407 0.97513 0.0
C2032 C 0.01516 0.43673 0.95818 0.0
H2033 H 0.98765 0.80291 0.2071 0.0
H2034 H 0.96639 0.74758 0.14158 0.0
H2035 H 0.92601 0.73424 0.15831 0.0
H2036 H 0.95495 0.76627 0.25333 0.0
H2037 H 0.94556 0.7941 0.26944 0.0
H2038 H 0.97346 0.798 0.25342 0.0
H2039 H 0.95842 0.8319 0.22738 0.0
H2040 H 0.93053 0.82817 0.24338 0.0
H2041 H 0.92957 0.82339 0.20957 0.0
H2042 H 0.88847 0.72645 0.18225 0.0
H2043 H 0.85399 0.72813 0.20906 0.0
H2044 H 0.89758 0.79143 0.25757 0.0
C2045 C 0.97453 0.78777 0.1965 0.0
C2046 C 0.98015 0.7759 0.17324 0.0
C2047 C 0.9624 0.75673 0.15948 0.0
C2048 C 0.9395 0.74899 0.16889 0.0
C2049 C 0.93446 0.76104 0.19185 0.0
C2050 C 0.95127 0.78035 0.20529 0.0
C2051 C 0.94043 0.79155 0.22846 0.0
C2052 C 0.95444 0.78721 0.25259 0.0
C2053 C 0.9397 0.82046 0.22711 0.0
C2054 C 0.91499 0.77534 0.22605 0.0
C2055 C 0.91215 0.75762 0.20497 0.0
C2056 C 0.89045 0.74029 0.19875 0.0
C2057 C 0.87099 0.74134 0.21419 0.0
C2058 C 0.8731 0.75986 0.23543 0.0
C2059 C 0.89548 0.777 0.24151 0.0
H2060 H 0.51893 0.36699 0.11814 0.0
H2061 H 0.50476 0.30959 0.05331 0.0
H2062 H 0.50797 0.34439 0.0252 0.0
H2063 H 0.48501 0.4116 0.09434 0.0
H2064 H 0.50603 0.44023 0.10722 0.0
H2065 H 0.50375 0.41082 0.12242 0.0
H2066 H 0.55005 0.41213 0.11926 0.0
H2067 H 0.5524 0.44162 0.10413 0.0
H2068 H 0.56297 0.41399 0.08905 0.0
H2069 H 0.50978 0.38546 0.0039 0.0
H2070 H 0.5127 0.43004 0.99135 0.0
H2071 H 0.52713 0.46061 0.06967 0.0
C2072 C 0.51683 0.36179 0.09804 0.0
C2073 C 0.51161 0.33551 0.088 0.0
C2074 C 0.50881 0.32954 0.06153 0.0
C2075 C 0.51057 0.34919 0.04533 0.0
C2076 C 0.51535 0.37486 0.05577 0.0
C2077 C 0.5187 0.38125 0.08149 0.0
C2078 C 0.52326 0.41042 0.08778 0.0
C2079 C 0.50332 0.41875 0.10389 0.0
C2080 C 0.54868 0.4201 0.10082 0.0
C2081 C 0.52168 0.41928 0.06165 0.0
C2082 C 0.51702 0.39851 0.04342 0.0
C2083 C 0.51374 0.40193 0.01799 0.0
C2084 C 0.51538 0.4273 0.01101 0.0
C2085 C 0.52044 0.4489 0.02939 0.0
C2086 C 0.52366 0.44463 0.055 0.0
H2087 H 0.94704 0.2882 0.39618 0.0
H2088 H 0.99969 0.30353 0.3397 0.0
H2089 H 0.9667 0.30824 0.30922 0.0
H2090 H 0.8996 0.24966 0.35326 0.0
H2091 H 0.87525 0.26147 0.36892 0.0
H2092 H 0.90307 0.25987 0.38647 0.0
H2093 H 0.9079 0.30872 0.4017 0.0
H2094 H 0.88021 0.31052 0.384 0.0
H2095 H 0.90807 0.33194 0.37888 0.0
H2096 H 0.92847 0.31314 0.28545 0.0
H2097 H 0.88685 0.31298 0.2682 0.0
H2098 H 0.85811 0.29172 0.33893 0.0
C2099 C 0.95161 0.29255 0.3774 0.0
C2100 C 0.97601 0.29564 0.37036 0.0
C2101 C 0.98117 0.30099 0.3455 0.0
C2102 C 0.96257 0.30385 0.3281 0.0
C2103 C 0.93879 0.30093 0.33569 0.0
C2104 C 0.93317 0.29498 0.3596 0.0
C2105 C 0.90594 0.29183 0.36257 0.0
C2106 C 0.89534 0.26405 0.36813 0.0
C2107 C 0.9002 0.31195 0.383 0.0
C2108 C 0.89717 0.29716 0.33665 0.0
C2109 C 0.91651 0.30266 0.32158 0.0
C2110 C 0.91318 0.3087 0.29702 0.0
C2111 C 0.88946 0.30867 0.28743 0.0
C2112 C 0.86925 0.30233 0.3022 0.0
C2113 C 0.87322 0.29665 0.32721 0.0
H2114 H 0.01015 0.69335 0.6004 0.0
H2115 H 0.94744 0.71523 0.5638 0.0
H2116 H 0.93887 0.67275 0.53819 0.0
H2117 H 0.03154 0.66625 0.54972 0.0
H2118 H 0.04157 0.63943 0.56312 0.0
H2119 H 0.0395 0.66825 0.58294 0.0
H2120 H 0.01073 0.64133 0.61138 0.0
H2121 H 0.0131 0.61219 0.59192 0.0
H2122 H 0.98363 0.62012 0.59756 0.0
H2123 H 0.94278 0.63306 0.51049 0.0
H2124 H 0.95622 0.59677 0.48566 0.0
H2125 H 0.01555 0.59934 0.54117 0.0
C2126 C 0.99383 0.68846 0.58801 0.0
C2127 C 0.97894 0.70703 0.58452 0.0
C2128 C 0.95849 0.7008 0.56725 0.0
C2129 C 0.95362 0.6768 0.55255 0.0
C2130 C 0.96928 0.65923 0.55561 0.0
C2131 C 0.98864 0.66446 0.57341 0.0
C2132 C 1.00423 0.64359 0.57108 0.0
C2133 C 0.03076 0.65508 0.56643 0.0
C2134 C 1.00283 0.62841 0.59437 0.0
C2135 C 0.9916 0.6268 0.54819 0.0
C2136 C 0.97129 0.63594 0.53974 0.0
C2137 C 0.95821 0.62529 0.51735 0.0
C2138 C 0.96607 0.60484 0.50327 0.0
C2139 C 0.98675 0.5952 0.51165 0.0
C2140 C 0.9994 0.60607 0.5346 0.0
H2141 H 0.60833 0.79707 0.86356 0.0
H2142 H 0.55925 0.72819 0.83032 0.0
H2143 H 0.5916 0.71727 0.80315 0.0
H2144 H 0.63512 0.81333 0.80536 0.0
H2145 H 0.66488 0.82585 0.82029 0.0
H2146 H 0.63816 0.82743 0.83755 0.0
H2147 H 0.65507 0.80278 0.87214 0.0
H2148 H 0.68183 0.80116 0.85498 0.0
H2149 H 0.6636 0.77184 0.86359 0.0
H2150 H 0.63099 0.713 0.78116 0.0
H2151 H 0.67177 0.71814 0.76364 0.0
H2152 H 0.69296 0.792 0.80875 0.0
C2153 C 0.60444 0.77962 0.85063 0.0
C2154 C 0.58141 0.76327 0.84922 0.0
C2155 C 0.57682 0.7409 0.83172 0.0
C2156 C 0.59511 0.73455 0.81628 0.0
C2157 C 0.6177 0.7511 0.81815 0.0
C2158 C 0.62221 0.77342 0.83463 0.0
C2159 C 0.64751 0.78866 0.83231 0.0
C2160 C 0.64633 0.8154 0.82334 0.0
C2161 C 0.66291 0.79125 0.85724 0.0
C2162 C 0.65676 0.77126 0.8123 0.0
C2163 C 0.63947 0.74952 0.80449 0.0
C2164 C 0.6445 0.73015 0.78693 0.0
C2165 C 0.6677 0.73318 0.77709 0.0
C2166 C 0.68542 0.75563 0.78449 0.0
C2167 C 0.67967 0.77484 0.80228 0.0
H2168 H 0.46082 0.58372 0.68948 0.0
H2169 H 0.394 0.53266 0.66113 0.0
H2170 H 0.41021 0.52938 0.61881 0.0
H2171 H 0.47416 0.61606 0.62933 0.0
H2172 H 0.50633 0.61711 0.63506 0.0
H2173 H 0.48726 0.61989 0.66111 0.0
H2174 H 0.50273 0.58139 0.67925 0.0
H2175 H 0.52132 0.57798 0.65306 0.0
H2176 H 0.49921 0.55075 0.66024 0.0
H2177 H 0.43747 0.52378 0.58279 0.0
H2178 H 0.4709 0.52092 0.55466 0.0
H2179 H 0.51965 0.57741 0.60563 0.0
C2180 C 0.4491 0.57293 0.67403 0.0
C2181 C 0.42595 0.5588 0.67848 0.0
C2182 C 0.41145 0.5442 0.65802 0.0
C2183 C 0.42069 0.54203 0.63398 0.0
C2184 C 0.44426 0.55495 0.63064 0.0
C2185 C 0.458 0.57073 0.65001 0.0
C2186 C 0.48359 0.58057 0.64242 0.0
C2187 C 0.48809 0.61017 0.64195 0.0
C2188 C 0.50282 0.57216 0.65977 0.0
C2189 C 0.48257 0.56693 0.61614 0.0
C2190 C 0.45969 0.55233 0.60962 0.0
C2191 C 0.45514 0.53584 0.5874 0.0
C2192 C 0.4743 0.53435 0.57149 0.0
C2193 C 0.49775 0.54949 0.57755 0.0
C2194 C 0.50178 0.56613 0.60013 0.0
H2195 H 0.80162 0.19183 0.95772 0.0
H2196 H 0.74529 0.12443 0.93724 0.0
H2197 H 0.73401 0.14368 0.89868 0.0
H2198 H 0.77005 0.23896 0.93794 0.0
H2199 H 0.7959 0.25852 0.92581 0.0
H2200 H 0.80032 0.23899 0.95096 0.0
H2201 H 0.82967 0.21576 0.92476 0.0
H2202 H 0.82583 0.23609 0.90012 0.0
H2203 H 0.81983 0.20132 0.89335 0.0
H2204 H 0.72648 0.17254 0.86519 0.0
H2205 H 0.72697 0.20547 0.83514 0.0
H2206 H 0.79054 0.25256 0.876 0.0
C2207 C 0.78715 0.18096 0.94487 0.0
C2208 C 0.77422 0.15674 0.95023 0.0
C2209 C 0.75546 0.14293 0.93317 0.0
C2210 C 0.74888 0.1538 0.91142 0.0
C2211 C 0.76165 0.17812 0.907 0.0
C2212 C 0.78078 0.19123 0.92295 0.0
C2213 C 0.7917 0.21698 0.91396 0.0
C2214 C 0.78934 0.23969 0.93332 0.0
C2215 C 0.81833 0.21754 0.90766 0.0
C2216 C 0.77549 0.21657 0.89056 0.0
C2217 C 0.75807 0.19415 0.8871 0.0
C2218 C 0.74024 0.18996 0.86751 0.0
C2219 C 0.74056 0.20888 0.85069 0.0
C2220 C 0.75883 0.23147 0.85335 0.0
C2221 C 0.77645 0.23541 0.87358 0.0
H2222 H 0.12788 0.52734 0.15262 0.0
H2223 H 0.10176 0.45169 0.17635 0.0
H2224 H 0.07639 0.43948 0.13692 0.0
H2225 H 0.07727 0.53967 0.1354 0.0
H2226 H 0.08429 0.55599 0.10771 0.0
H2227 H 0.10792 0.55562 0.13124 0.0
H2228 H 0.13327 0.53528 0.09861 0.0
H2229 H 0.11005 0.53555 0.07422 0.0
H2230 H 0.12021 0.50574 0.07959 0.0
H2231 H 0.04399 0.44147 0.10446 0.0
H2232 H 0.01278 0.45474 0.0765 0.0
H2233 H 0.05974 0.52907 0.07369 0.0
C2234 C 0.11841 0.50752 0.14838 0.0
C2235 C 0.11711 0.4902 0.16699 0.0
C2236 C 0.10347 0.46486 0.16183 0.0
C2237 C 0.08879 0.45788 0.13956 0.0
C2238 C 0.08832 0.47641 0.1226 0.0
C2239 C 0.10352 0.50047 0.12626 0.0
C2240 C 0.09648 0.51852 0.10787 0.0
C2241 C 0.09117 0.5439 0.12139 0.0
C2242 C 0.11616 0.52409 0.08894 0.0
C2243 C 0.07361 0.50189 0.0953 0.0
C2244 C 0.06942 0.47746 0.10351 0.0
C2245 C 0.04756 0.46016 0.0971 0.0
C2246 C 0.02978 0.46794 0.0816 0.0
C2247 C 0.03408 0.49276 0.0729 0.0
C2248 C 0.05626 0.50976 0.07976 0.0
H2249 H 0.75512 0.87799 0.43866 0.0
H2250 H 0.80654 0.84533 0.48313 0.0
H2251 H 0.81954 0.82371 0.44441 0.0
H2252 H 0.73592 0.82064 0.39701 0.0
H2253 H 0.73167 0.83757 0.36982 0.0
H2254 H 0.72835 0.85261 0.4007 0.0
H2255 H 0.76064 0.89231 0.39261 0.0
H2256 H 0.76409 0.87734 0.36169 0.0
H2257 H 0.79027 0.88748 0.38341 0.0
H2258 H 0.82684 0.80539 0.40018 0.0
H2259 H 0.82423 0.78807 0.35522 0.0
H2260 H 0.76549 0.82959 0.34068 0.0
C2261 C 0.76938 0.86661 0.44015 0.0
C2262 C 0.78013 0.86366 0.46382 0.0
C2263 C 0.79822 0.84801 0.46515 0.0
C2264 C 0.80577 0.83572 0.44324 0.0
C2265 C 0.79472 0.83886 0.42015 0.0
C2266 C 0.77664 0.85362 0.41852 0.0
C2267 C 0.76615 0.85206 0.39174 0.0
C2268 C 0.73891 0.84 0.38971 0.0
C2269 C 0.77056 0.87889 0.38178 0.0
C2270 C 0.78112 0.83415 0.37858 0.0
C2271 C 0.79782 0.82708 0.39513 0.0
C2272 C 0.81376 0.81076 0.38708 0.0
C2273 C 0.81225 0.8011 0.36154 0.0
C2274 C 0.7946 0.80737 0.34457 0.0
C2275 C 0.77906 0.8243 0.35328 0.0
H2276 H 0.39534 0.54418 0.836 0.0
H2277 H 0.44729 0.52213 0.78403 0.0
H2278 H 0.46821 0.50447 0.81752 0.0
H2279 H 0.44091 0.56715 0.88585 0.0
H2280 H 0.42181 0.55698 0.91071 0.0
H2281 H 0.40841 0.5649 0.88189 0.0
H2282 H 0.38062 0.51962 0.87645 0.0
H2283 H 0.39418 0.51148 0.90515 0.0
H2284 H 0.39413 0.49094 0.87634 0.0
H2285 H 0.48448 0.48976 0.856 0.0
H2286 H 0.4994 0.48559 0.89914 0.0
H2287 H 0.44045 0.52068 0.92854 0.0
C2288 C 0.41089 0.53528 0.83168 0.0
C2289 C 0.41911 0.53389 0.80702 0.0
C2290 C 0.44008 0.52294 0.80238 0.0
C2291 C 0.45219 0.51273 0.82139 0.0
C2292 C 0.44363 0.51416 0.84533 0.0
C2293 C 0.42385 0.52568 0.85082 0.0
C2294 C 0.42046 0.52737 0.87892 0.0
C2295 C 0.42306 0.55578 0.88999 0.0
C2296 C 0.39588 0.5114 0.88454 0.0
C2297 C 0.44152 0.51519 0.88815 0.0
C2298 C 0.45422 0.50718 0.86827 0.0
C2299 C 0.4747 0.4959 0.87178 0.0
C2300 C 0.48299 0.49351 0.89636 0.0
C2301 C 0.47108 0.50274 0.91715 0.0
C2302 C 0.44976 0.51321 0.91296 0.0
H2303 H 0.77394 0.17327 0.09787 0.0
H2304 H 0.82995 0.22261 0.06224 0.0
H2305 H 0.83775 0.25296 0.10087 0.0
H2306 H 0.74852 0.22192 0.12516 0.0
H2307 H 0.74136 0.20832 0.15424 0.0
H2308 H 0.74346 0.18727 0.12635 0.0
H2309 H 0.77605 0.16657 0.14897 0.0
H2310 H 0.77343 0.18695 0.17725 0.0
H2311 H 0.80272 0.18716 0.16445 0.0
H2312 H 0.83508 0.28099 0.14038 0.0
H2313 H 0.82548 0.30247 0.18079 0.0
H2314 H 0.76996 0.23568 0.1899 0.0
C2315 C 0.78871 0.18974 0.09883 0.0
C2316 C 0.80189 0.19541 0.07756 0.0
C2317 C 0.8202 0.21779 0.07873 0.0
C2318 C 0.8246 0.23517 0.10048 0.0
C2319 C 0.81039 0.22987 0.12074 0.0
C2320 C 0.79311 0.20746 0.12035 0.0
C2321 C 0.77869 0.20771 0.14365 0.0
C2322 C 0.7514 0.20622 0.13693 0.0
C2323 C 0.78299 0.1858 0.15952 0.0
C2324 C 0.79004 0.23402 0.15669 0.0
C2325 C 0.8084 0.24642 0.1433 0.0
C2326 C 0.82099 0.27132 0.15126 0.0
C2327 C 0.81525 0.28348 0.17404 0.0
C2328 C 0.79703 0.27071 0.1884 0.0
C2329 C 0.784 0.24591 0.17931 0.0
H2330 H 0.13312 0.53099 0.32558 0.0
H2331 H 0.0747 0.50465 0.26795 0.0
H2332 H 0.04453 0.51007 0.29894 0.0
H2333 H 0.10254 0.49896 0.37491 0.0
H2334 H 0.11402 0.52476 0.39917 0.0
H2335 H 0.13144 0.51969 0.37225 0.0
H2336 H 0.13249 0.5674 0.36314 0.0
H2337 H 0.11493 0.57255 0.38997 0.0
H2338 H 0.10432 0.57921 0.35938 0.0
H2339 H 0.02044 0.51717 0.33559 0.0
H2340 H 1.00374 0.52434 0.37709 0.0
H2341 H 0.0771 0.54598 0.41141 0.0
C2342 C 0.11399 0.52645 0.31956 0.0
C2343 C 0.1063 0.51757 0.29434 0.0
C2344 C 0.08109 0.51166 0.28714 0.0
C2345 C 0.06374 0.51468 0.30458 0.0
C2346 C 0.07183 0.52359 0.3292 0.0
C2347 C 0.09629 0.5293 0.33682 0.0
C2348 C 0.09984 0.53785 0.36471 0.0
C2349 C 0.11271 0.5192 0.37857 0.0
C2350 C 0.11371 0.56593 0.36958 0.0
C2351 C 0.07357 0.53583 0.37143 0.0
C2352 C 0.05775 0.52769 0.3506 0.0
C2353 C 0.03258 0.5237 0.35208 0.0
C2354 C 0.02328 0.52784 0.37565 0.0
C2355 C 0.03916 0.53582 0.39724 0.0
C2356 C 0.06459 0.54011 0.39507 0.0
H2357 H 0.79871 0.85438 0.60956 0.0
H2358 H 0.72513 0.86186 0.58717 0.0
H2359 H 0.71024 0.84116 0.62478 0.0
H2360 H 0.78644 0.7943 0.63116 0.0
H2361 H 0.8081 0.80114 0.6579 0.0
H2362 H 0.8132 0.81901 0.63095 0.0
H2363 H 0.81623 0.86227 0.65911 0.0
H2364 H 0.81147 0.84442 0.68619 0.0
H2365 H 0.79188 0.86688 0.67906 0.0
H2366 H 0.70294 0.81238 0.66069 0.0
H2367 H 0.70462 0.7845 0.69557 0.0
H2368 H 0.78331 0.80009 0.69694 0.0
C2369 C 0.77957 0.85236 0.61303 0.0
C2370 C 0.76305 0.85983 0.59558 0.0
C2371 C 0.7381 0.85665 0.60052 0.0
C2372 C 0.7295 0.84473 0.62174 0.0
C2373 C 0.74618 0.83677 0.63816 0.0
C2374 C 0.77082 0.84119 0.63443 0.0
C2375 C 0.78496 0.83037 0.65452 0.0
C2376 C 0.79899 0.80999 0.64293 0.0
C2377 C 0.80215 0.8523 0.67068 0.0
C2378 C 0.76437 0.81808 0.66946 0.0
C2379 C 0.74209 0.82183 0.65971 0.0
C2380 C 0.72032 0.80997 0.66889 0.0
C2381 C 0.72139 0.79407 0.68856 0.0
C2382 C 0.74405 0.79061 0.69912 0.0
C2383 C 0.76576 0.80299 0.68958 0.0
H2384 H 0.68028 0.42464 0.51557 0.0
H2385 H 0.73787 0.48488 0.49599 0.0
H2386 H 0.71343 0.51809 0.50874 0.0
H2387 H 0.63049 0.45235 0.49428 0.0
H2388 H 0.61182 0.44262 0.51961 0.0
H2389 H 0.63422 0.42391 0.50939 0.0
H2390 H 0.65351 0.42933 0.55494 0.0
H2391 H 0.63127 0.44832 0.56515 0.0
H2392 H 0.66325 0.46143 0.57078 0.0
H2393 H 0.68113 0.5443 0.5202 0.0
H2394 H 0.64376 0.56128 0.53066 0.0
H2395 H 0.60915 0.48438 0.54607 0.0
C2396 C 0.68774 0.44482 0.51402 0.0
C2397 C 0.71089 0.45222 0.50472 0.0
C2398 C 0.72015 0.47883 0.50311 0.0
C2399 C 0.70643 0.49783 0.51034 0.0
C2400 C 0.68368 0.48992 0.51951 0.0
C2401 C 0.67447 0.46407 0.52154 0.0
C2402 C 0.64941 0.46066 0.5317 0.0
C2403 C 0.63037 0.44391 0.5126 0.0
C2404 C 0.64938 0.44927 0.55716 0.0
C2405 C 0.64582 0.48857 0.53465 0.0
C2406 C 0.66572 0.50519 0.52743 0.0
C2407 C 0.66564 0.53159 0.52643 0.0
C2408 C 0.64445 0.5411 0.53247 0.0
C2409 C 0.62392 0.52427 0.53974 0.0
C2410 C 0.62489 0.49786 0.54136 0.0
H2411 H 0.20225 0.10438 0.49818 0.0
H2412 H 0.17679 0.16051 0.45378 0.0
H2413 H 0.13537 0.13474 0.45109 0.0
H2414 H 0.16264 0.04639 0.46611 0.0
H2415 H 0.15719 0.03107 0.49464 0.0
H2416 H 0.18542 0.0529 0.49185 0.0
H2417 H 0.17784 0.0805 0.53225 0.0
H2418 H 0.14958 0.05882 0.53513 0.0
H2419 H 0.14989 0.093 0.53411 0.0
H2420 H 0.0965 0.10479 0.45478 0.0
H2421 H 0.06198 0.07198 0.46475 0.0
H2422 H 0.11117 0.03441 0.50707 0.0
C2423 C 0.18803 0.11102 0.48756 0.0
C2424 C 0.19291 0.13452 0.47608 0.0
C2425 C 0.17363 0.14269 0.46275 0.0
C2426 C 0.15 0.12812 0.46106 0.0
C2427 C 0.14573 0.10534 0.47283 0.0
C2428 C 0.16413 0.09673 0.48583 0.0
C2429 C 0.15415 0.07211 0.49771 0.0
C2430 C 0.16553 0.04926 0.48693 0.0
C2431 C 0.1581 0.07637 0.52651 0.0
C2432 C 0.12729 0.0684 0.48947 0.0
C2433 C 0.12299 0.08784 0.47504 0.0
C2434 C 0.09967 0.08936 0.46586 0.0
C2435 C 0.08018 0.07067 0.47164 0.0
C2436 C 0.08398 0.05062 0.48647 0.0
C2437 C 0.10787 0.04934 0.49539 0.0
H2438 H 0.21376 0.95892 0.7954 0.0
H2439 H 0.15187 0.93585 0.74159 0.0
H2440 H 0.16919 0.89814 0.72491 0.0
H2441 H 0.26032 0.93775 0.75702 0.0
H2442 H 0.27528 0.92496 0.78231 0.0
H2443 H 0.25937 0.95152 0.78896 0.0
H2444 H 0.23319 0.92525 0.8199 0.0
H2445 H 0.24923 0.89878 0.81355 0.0
H2446 H 0.21654 0.89332 0.80921 0.0
H2447 H 0.1928 0.86323 0.71383 0.0
H2448 H 0.2175 0.82895 0.71324 0.0
H2449 H 0.26318 0.87129 0.77645 0.0
C2450 C 0.20405 0.94599 0.77995 0.0
C2451 C 0.18159 0.95048 0.76948 0.0
C2452 C 0.16908 0.93283 0.74977 0.0
C2453 C 0.17888 0.91145 0.74008 0.0
C2454 C 0.20104 0.90757 0.75065 0.0
C2455 C 0.21326 0.92395 0.77053 0.0
C2456 C 0.23562 0.91376 0.77983 0.0
C2457 C 0.25903 0.93316 0.77685 0.0
C2458 C 0.23351 0.9074 0.80724 0.0
C2459 C 0.23408 0.88921 0.76197 0.0
C2460 C 0.21417 0.88641 0.74506 0.0
C2461 C 0.20841 0.86522 0.72699 0.0
C2462 C 0.22269 0.84584 0.72675 0.0
C2463 C 0.24249 0.84735 0.74464 0.0
C2464 C 0.24859 0.86976 0.76213 0.0
H2465 H 0.3283 0.93203 0.01313 0.0
H2466 H 0.33157 0.8813 0.94525 0.0
H2467 H 0.37354 0.90368 0.94043 0.0
H2468 H 0.36206 0.98988 0.99269 0.0
H2469 H 0.37777 1.00092 0.02287 0.0
H2470 H 0.34798 0.98093 0.02107 0.0
H2471 H 0.36474 0.94782 0.04685 0.0
H2472 H 0.39455 0.96778 0.04884 0.0
H2473 H 0.3904 0.93429 0.0362 0.0
H2474 H 0.41456 0.93247 0.94222 0.0
H2475 H 0.45294 0.96362 0.95207 0.0
H2476 H 0.42344 0.99463 0.0196 0.0
C2477 C 0.33783 0.92558 0.99725 0.0
C2478 C 0.32662 0.90492 0.97953 0.0
C2479 C 0.33982 0.89697 0.95914 0.0
C2480 C 0.36362 0.90964 0.95618 0.0
C2481 C 0.37404 0.93004 0.97389 0.0
C2482 C 0.36168 0.9378 0.99417 0.0
C2483 C 0.37722 0.95995 0.01078 0.0
C2484 C 0.36556 0.98436 0.0119 0.0
C2485 C 0.38201 0.95197 0.03723 0.0
C2486 C 0.40019 0.96355 0.99657 0.0
C2487 C 0.39791 0.94623 0.97525 0.0
C2488 C 0.41659 0.94607 0.9589 0.0
C2489 C 0.43828 0.96394 0.96461 0.0
C2490 C 0.44119 0.98158 0.9866 0.0
C2491 C 0.42181 0.98134 1.00271 0.0
H2492 H 0.87983 0.62086 0.77608 0.0
H2493 H 0.83345 0.54942 0.74416 0.0
H2494 H 0.80178 0.57413 0.73213 0.0
H2495 H 0.83409 0.6483 0.80367 0.0
H2496 H 0.84629 0.68108 0.79771 0.0
H2497 H 0.86633 0.65821 0.80094 0.0
H2498 H 0.88257 0.66679 0.75719 0.0
H2499 H 0.86263 0.68985 0.75394 0.0
H2500 H 0.86141 0.66308 0.73018 0.0
H2501 H 0.77399 0.60691 0.72592 0.0
H2502 H 0.75275 0.64478 0.72753 0.0
H2503 H 0.81744 0.69311 0.76501 0.0
C2504 C 0.86322 0.61047 0.76613 0.0
C2505 C 0.85911 0.58331 0.76096 0.0
C2506 C 0.83697 0.57031 0.74826 0.0
C2507 C 0.8189 0.58416 0.74127 0.0
C2508 C 0.82333 0.61094 0.7471 0.0
C2509 C 0.845 0.62393 0.7592 0.0
C2510 C 0.84471 0.65243 0.76503 0.0
C2511 C 0.84804 0.66045 0.79352 0.0
C2512 C 0.86397 0.669 0.75073 0.0
C2513 C 0.8193 0.65333 0.75494 0.0
C2514 C 0.80726 0.62941 0.74426 0.0
C2515 C 0.78329 0.62578 0.73413 0.0
C2516 C 0.77137 0.64725 0.73513 0.0
C2517 C 0.78344 0.67161 0.74658 0.0
C2518 C 0.80768 0.67459 0.75634 0.0
H2519 H 0.85541 0.63438 0.99391 0.0
H2520 H 0.79881 0.58222 0.02634 0.0
H2521 H 0.82767 0.5531 0.03412 0.0
H2522 H 0.88288 0.58441 0.96246 0.0
H2523 H 0.91363 0.6019 0.96829 0.0
H2524 H 0.88882 0.61937 0.96582 0.0
H2525 H 0.90206 0.64403 0.00969 0.0
H2526 H 0.92698 0.62672 0.01222 0.0
H2527 H 0.90537 0.62593 0.03628 0.0
H2528 H 0.86229 0.52899 0.03799 0.0
H2529 H 0.90086 0.51202 0.03799 0.0
H2530 H 0.93514 0.57904 1.0027 0.0
C2531 C 0.84919 0.61696 0.00285 0.0
C2532 C 0.82481 0.61068 0.00957 0.0
C2533 C 0.81735 0.58751 0.02099 0.0
C2534 C 0.83362 0.57078 0.02551 0.0
C2535 C 0.85739 0.57733 0.01845 0.0
C2536 C 0.86524 0.59984 0.00738 0.0
C2537 C 0.89172 0.60193 1.00124 0.0
C2538 C 0.89441 0.6019 0.97276 0.0
C2539 C 0.90746 0.62609 0.01572 0.0
C2540 C 0.89746 0.57718 0.01068 0.0
C2541 C 0.87738 0.56326 0.02052 0.0
C2542 C 0.87817 0.53973 0.03036 0.0
C2543 C 0.90011 0.53021 0.03026 0.0
C2544 C 0.92094 0.54419 0.02039 0.0
C2545 C 0.91949 0.56792 0.01041 0.0
H2546 H 0.16036 0.11734 0.78465 0.0
H2547 H 0.20877 0.07474 0.82196 0.0
H2548 H 0.24203 0.11268 0.82336 0.0
H2549 H 0.20444 0.14701 0.74511 0.0
H2550 H 0.19374 0.17742 0.74609 0.0
H2551 H 0.17293 0.14801 0.75005 0.0
H2552 H 0.1613 0.16872 0.7925 0.0
H2553 H 0.18207 0.19823 0.78864 0.0
H2554 H 0.18484 0.18196 0.81657 0.0
H2555 H 0.26987 0.15446 0.82058 0.0
H2556 H 0.29218 0.19662 0.81106 0.0
H2557 H 0.22719 0.21208 0.77238 0.0
C2558 C 0.17786 0.11622 0.79353 0.0
C2559 C 0.18192 0.09321 0.80359 0.0
C2560 C 0.20524 0.09219 0.81435 0.0
C2561 C 0.22419 0.11366 0.81526 0.0
C2562 C 0.21967 0.13592 0.805 0.0
C2563 C 0.19717 0.13736 0.79413 0.0
C2564 C 0.19779 0.16302 0.7829 0.0
C2565 C 0.19188 0.15859 0.75434 0.0
C2566 C 0.18047 0.17892 0.79593 0.0
C2567 C 0.2242 0.17569 0.78906 0.0
C2568 C 0.23627 0.15977 0.80216 0.0
C2569 C 0.26065 0.16705 0.81027 0.0
C2570 C 0.27316 0.19112 0.80474 0.0
C2571 C 0.26151 0.20764 0.79081 0.0
C2572 C 0.23661 0.19982 0.78293 0.0
H2573 H 0.38119 0.97692 0.32542 0.0
H2574 H 0.44248 0.95509 0.28736 0.0
H2575 H 0.41909 0.91072 0.27672 0.0
H2576 H 0.36153 0.9125 0.35059 0.0
H2577 H 0.32985 0.91486 0.34671 0.0
H2578 H 0.35253 0.94382 0.35368 0.0
H2579 H 0.33658 0.96222 0.31419 0.0
H2580 H 0.31426 0.93314 0.30675 0.0
H2581 H 0.33557 0.94392 0.28391 0.0
H2582 H 0.38672 0.87177 0.26392 0.0
H2583 H 0.35001 0.83749 0.25672 0.0
H2584 H 0.31091 0.88297 0.30634 0.0
C2585 C 0.38992 0.96251 0.31556 0.0
C2586 C 0.41363 0.96926 0.30729 0.0
C2587 C 0.42447 0.95012 0.29419 0.0
C2588 C 0.41125 0.92497 0.28789 0.0
C2589 C 0.38751 0.91922 0.29542 0.0
C2590 C 0.3772 0.93718 0.30967 0.0
C2591 C 0.35118 0.92623 0.31488 0.0
C2592 C 0.34863 0.92423 0.34315 0.0
C2593 C 0.33336 0.94234 0.30429 0.0
C2594 C 0.34813 0.89968 0.30045 0.0
C2595 C 0.36925 0.89613 0.28918 0.0
C2596 C 0.37027 0.87407 0.27311 0.0
C2597 C 0.34932 0.8549 0.2689 0.0
C2598 C 0.32786 0.85779 0.281 0.0
C2599 C 0.32726 0.88037 0.29705 0.0
H2600 H 0.51887 0.37493 0.62964 0.0
H2601 H 0.56629 0.33719 0.58276 0.0
H2602 H 0.56509 0.36928 0.55217 0.0
H2603 H 0.4808 0.38885 0.57876 0.0
H2604 H 0.4768 0.41999 0.59315 0.0
H2605 H 0.48227 0.39506 0.61251 0.0
H2606 H 0.51951 0.426 0.63527 0.0
H2607 H 0.51389 0.45114 0.61627 0.0
H2608 H 0.54323 0.44145 0.61703 0.0
H2609 H 0.55942 0.40527 0.52684 0.0
H2610 H 0.54999 0.44397 0.50842 0.0
H2611 H 0.50387 0.45758 0.56942 0.0
C2612 C 0.52931 0.37378 0.61314 0.0
C2613 C 0.5429 0.35369 0.60869 0.0
C2614 C 0.55587 0.35244 0.58661 0.0
C2615 C 0.55524 0.37054 0.56907 0.0
C2616 C 0.54126 0.3897 0.57362 0.0
C2617 C 0.52854 0.39156 0.59509 0.0
C2618 C 0.51449 0.4138 0.59489 0.0
C2619 C 0.48696 0.40382 0.59482 0.0
C2620 C 0.52331 0.43432 0.61719 0.0
C2621 C 0.52142 0.42412 0.57004 0.0
C2622 C 0.53698 0.4099 0.55821 0.0
C2623 C 0.54699 0.41634 0.53573 0.0
C2624 C 0.54142 0.43824 0.52532 0.0
C2625 C 0.52569 0.45326 0.5371 0.0
C2626 C 0.51525 0.44585 0.55956 0.0
H2627 H 0.4146 0.78317 0.37622 0.0
H2628 H 0.44982 0.73219 0.32787 0.0
H2629 H 0.4141 0.72443 0.2976 0.0
H2630 H 0.35203 0.74754 0.36341 0.0
H2631 H 0.33925 0.77665 0.36352 0.0
H2632 H 0.36659 0.7765 0.38256 0.0
H2633 H 0.38902 0.81548 0.36118 0.0
H2634 H 0.36174 0.81582 0.34223 0.0
H2635 H 0.38963 0.81314 0.32741 0.0
H2636 H 0.37497 0.72328 0.2718 0.0
H2637 H 0.33685 0.73132 0.25132 0.0
H2638 H 0.32823 0.78461 0.31554 0.0
C2639 C 0.41466 0.77004 0.35947 0.0
C2640 C 0.43499 0.7581 0.35457 0.0
C2641 C 0.43449 0.74151 0.33211 0.0
C2642 C 0.41422 0.73688 0.31483 0.0
C2643 C 0.39458 0.74908 0.32016 0.0
C2644 C 0.39468 0.76543 0.34188 0.0
C2645 C 0.37198 0.77751 0.34233 0.0
C2646 C 0.35656 0.76904 0.36426 0.0
C2647 C 0.37849 0.80725 0.34334 0.0
C2648 C 0.35933 0.76575 0.3173 0.0
C2649 C 0.37243 0.74906 0.30497 0.0
C2650 C 0.36452 0.73623 0.28133 0.0
C2651 C 0.34284 0.74089 0.26985 0.0
C2652 C 0.32953 0.75847 0.28187 0.0
C2653 C 0.33785 0.77082 0.306 0.0
H2654 H 0.07598 0.72029 0.085 0.0
H2655 H 0.02296 0.71354 0.14211 0.0
H2656 H 0.01345 0.66615 0.13079 0.0
H2657 H 0.04211 0.67517 0.0393 0.0
H2658 H 0.06763 0.66203 0.02772 0.0
H2659 H 0.07207 0.69495 0.0419 0.0
H2660 H 0.10467 0.68526 0.07376 0.0
H2661 H 0.1004 0.65227 0.05961 0.0
H2662 H 0.09711 0.65875 0.0928 0.0
H2663 H 1.00669 0.62066 0.11046 0.0
H2664 H 1.00385 0.57964 0.08359 0.0
H2665 H 0.06207 0.61518 0.04012 0.0
C2666 C 0.0626 0.70887 0.09545 0.0
C2667 C 0.05023 0.72075 0.11454 0.0
C2668 C 0.03281 0.70497 0.12758 0.0
C2669 C 0.02727 0.67802 0.12125 0.0
C2670 C 0.03951 0.6671 0.10204 0.0
C2671 C 0.05697 0.68198 0.08948 0.0
C2672 C 0.06662 0.66563 0.06875 0.0
C2673 C 0.06181 0.67501 0.04289 0.0
C2674 C 0.09382 0.66547 0.07406 0.0
C2675 C 0.05136 0.63925 0.07112 0.0
C2676 C 0.03594 0.64061 0.09056 0.0
C2677 C 0.01892 0.61931 0.09547 0.0
C2678 C 0.01739 0.59613 0.08001 0.0
C2679 C 0.03284 0.59424 0.05988 0.0
C2680 C 0.05037 0.61598 0.05565 0.0
H2681 H 0.09332 0.26632 0.86621 0.0
H2682 H 0.04688 0.26611 0.79907 0.0
H2683 H 0.08243 0.26832 0.77332 0.0
H2684 H 0.14562 0.30976 0.84818 0.0
H2685 H 0.16763 0.29238 0.86085 0.0
H2686 H 0.13862 0.2912 0.87448 0.0
H2687 H 0.13066 0.24101 0.86751 0.0
H2688 H 0.15968 0.24207 0.85389 0.0
H2689 H 0.13232 0.22527 0.83646 0.0
H2690 H 0.1229 0.2726 0.75475 0.0
H2691 H 0.16583 0.2752 0.7442 0.0
H2692 H 0.18638 0.26942 0.82226 0.0
C2693 C 0.09072 0.26677 0.84611 0.0
C2694 C 0.06728 0.26614 0.83469 0.0
C2695 C 0.06458 0.26649 0.80827 0.0
C2696 C 0.0847 0.26783 0.79344 0.0
C2697 C 0.1075 0.26842 0.80516 0.0
C2698 C 0.11067 0.26759 0.83082 0.0
C2699 C 0.13721 0.26768 0.83836 0.0
C2700 C 0.14789 0.29168 0.85654 0.0
C2701 C 0.14013 0.24251 0.84973 0.0
C2702 C 0.14834 0.26902 0.813 0.0
C2703 C 0.13086 0.26965 0.79416 0.0
C2704 C 0.13674 0.27185 0.76929 0.0
C2705 C 0.16115 0.27337 0.76347 0.0
C2706 C 0.17931 0.2723 0.78234 0.0
C2707 C 0.17277 0.26998 0.8074 0.0
H2708 H 0.49945 0.6948 0.92326 0.0
H2709 H 0.56803 0.738 0.95713 0.0
H2710 H 0.57426 0.70035 0.97937 0.0
H2711 H 0.48044 0.66488 0.97629 0.0
H2712 H 0.46666 0.63386 0.96022 0.0
H2713 H 0.46867 0.66268 0.94412 0.0
H2714 H 0.49161 0.64226 0.90881 0.0
H2715 H 0.48918 0.61313 0.92454 0.0
H2716 H 0.51858 0.62967 0.91688 0.0
H2717 H 0.57091 0.66068 1.00172 0.0
H2718 H 0.56074 0.61873 0.01922 0.0
H2719 H 0.4943 0.59996 0.97098 0.0
C2720 C 0.51616 0.69583 0.93461 0.0
C2721 C 0.53361 0.71898 0.93811 0.0
C2722 C 0.55479 0.72017 0.95388 0.0
C2723 C 0.55839 0.69897 0.96669 0.0
C2724 C 0.54055 0.67669 0.96359 0.0
C2725 C 0.52003 0.67469 0.94763 0.0
C2726 C 0.50319 0.64886 0.94882 0.0
C2727 C 0.47827 0.65282 0.95791 0.0
C2728 C 0.50049 0.63251 0.92324 0.0
C2729 C 0.51723 0.63701 0.96828 0.0
C2730 C 0.53868 0.65349 0.97655 0.0
C2731 C 0.5543 0.64745 0.99519 0.0
C2732 C 0.5482 0.62363 0.00523 0.0
C2733 C 0.52663 0.606 0.99663 0.0
C2734 C 0.51091 0.61297 0.97797 0.0
H2735 H 0.09413 0.78288 0.63115 0.0
H2736 H 0.03827 0.76021 0.6828 0.0
H2737 H 0.06915 0.74826 0.7117 0.0
H2738 H 0.12808 0.73251 0.64015 0.0
H2739 H 0.15733 0.75292 0.63853 0.0
H2740 H 0.13093 0.75997 0.62195 0.0
H2741 H 0.13874 0.80644 0.64487 0.0
H2742 H 0.16532 0.79962 0.66128 0.0
H2743 H 0.14166 0.81073 0.67872 0.0
H2744 H 0.10642 0.73823 0.73496 0.0
H2745 H 0.14732 0.73387 0.75171 0.0
H2746 H 0.17857 0.76301 0.68484 0.0
C2747 C 0.08833 0.7755 0.64857 0.0
C2748 C 0.06363 0.77249 0.65458 0.0
C2749 C 0.057 0.76281 0.67769 0.0
C2750 C 0.07442 0.75583 0.69422 0.0
C2751 C 0.09849 0.7587 0.6875 0.0
C2752 C 0.10548 0.76854 0.66532 0.0
C2753 C 0.13257 0.77013 0.66267 0.0
C2754 C 0.13751 0.75285 0.63945 0.0
C2755 C 0.14532 0.79841 0.66184 0.0
C2756 C 0.13975 0.75956 0.68677 0.0
C2757 C 0.11984 0.75299 0.70083 0.0
C2758 C 0.12211 0.74326 0.72406 0.0
C2759 C 0.14538 0.74072 0.73337 0.0
C2760 C 0.16607 0.74786 0.71949 0.0
C2761 C 0.16306 0.75706 0.69575 0.0
H2762 H 0.04761 0.34765 0.4591 0.0
H2763 H 0.05331 0.36979 0.3831 0.0
H2764 H 0.04747 0.41387 0.39792 0.0
H2765 H 1.00159 0.38359 0.47676 0.0
H2766 H 0.0141 0.39312 0.5085 0.0
H2767 H 0.01936 0.3634 0.49211 0.0
H2768 H 0.06587 0.37884 0.50018 0.0
H2769 H 0.06076 0.40866 0.51655 0.0
H2770 H 0.07992 0.40954 0.49031 0.0
H2771 H 0.03823 0.45431 0.42005 0.0
H2772 H 0.02789 0.48957 0.44874 0.0
H2773 H 0.0307 0.44293 0.5112 0.0
C2774 C 0.04776 0.36185 0.44564 0.0
C2775 C 0.05091 0.35531 0.41993 0.0
C2776 C 0.05102 0.37439 0.40288 0.0
C2777 C 0.0477 0.39948 0.41111 0.0
C2778 C 0.0446 0.40531 0.43652 0.0
C2779 C 0.04479 0.38716 0.45362 0.0
C2780 C 0.04087 0.39856 0.47987 0.0
C2781 C 0.0176 0.38379 0.48989 0.0
C2782 C 0.06319 0.39892 0.49778 0.0
C2783 C 0.03808 0.42581 0.47476 0.0
C2784 C 0.04022 0.42917 0.44957 0.0
C2785 C 0.03688 0.45205 0.43986 0.0
C2786 C 0.03101 0.47196 0.45628 0.0
C2787 C 0.02887 0.46905 0.48214 0.0
C2788 C 0.03275 0.4458 0.49157 0.0
H2789 H 0.42028 0.26714 0.14543 0.0
H2790 H 0.47656 0.29488 0.20469 0.0
H2791 H 0.44506 0.30174 0.23441 0.0
H2792 H 0.37803 0.30909 0.16279 0.0
H2793 H 0.35185 0.28372 0.15521 0.0
H2794 H 0.37934 0.28271 0.13924 0.0
H2795 H 0.37867 0.23639 0.15312 0.0
H2796 H 0.35166 0.23848 0.16974 0.0
H2797 H 0.37836 0.23182 0.18609 0.0
H2798 H 0.40715 0.30711 0.25741 0.0
H2799 H 0.36577 0.30565 0.27293 0.0
H2800 H 0.33414 0.27208 0.19953 0.0
C2801 C 0.42594 0.27462 0.16468 0.0
C2802 C 0.4509 0.28063 0.17273 0.0
C2803 C 0.45756 0.29005 0.19814 0.0
C2804 C 0.43979 0.29417 0.21511 0.0
C2805 C 0.41534 0.28834 0.20654 0.0
C2806 C 0.40838 0.27828 0.18203 0.0
C2807 C 0.38086 0.27228 0.17792 0.0
C2808 C 0.37202 0.28792 0.1576 0.0
C2809 C 0.37186 0.24301 0.17133 0.0
C2810 C 0.37341 0.28122 0.20373 0.0
C2811 C 0.39358 0.29054 0.21996 0.0
C2812 C 0.39126 0.29982 0.24485 0.0
C2813 C 0.36776 0.2991 0.25349 0.0
C2814 C 0.34696 0.28911 0.23732 0.0
C2815 C 0.34985 0.28015 0.21214 0.0
H2816 H 0.59296 0.50257 0.34114 0.0
H2817 H 0.66369 0.51747 0.3816 0.0
H2818 H 0.6437 0.51838 0.4219 0.0
H2819 H 0.56385 0.54299 0.3831 0.0
H2820 H 0.53499 0.52112 0.38031 0.0
H2821 H 0.55487 0.52169 0.35471 0.0
H2822 H 0.55393 0.47239 0.35534 0.0
H2823 H 0.53413 0.47169 0.38103 0.0
H2824 H 0.56241 0.45998 0.38411 0.0
H2825 H 0.61603 0.51948 0.45789 0.0
H2826 H 0.58269 0.51943 0.48677 0.0
H2827 H 0.52968 0.50142 0.42341 0.0
C2828 C 0.60425 0.50606 0.35848 0.0
C2829 C 0.62996 0.51006 0.35818 0.0
C2830 C 0.64401 0.51436 0.38132 0.0
C2831 C 0.6328 0.51491 0.40432 0.0
C2832 C 0.60745 0.51082 0.40396 0.0
C2833 C 0.59332 0.50633 0.38165 0.0
C2834 C 0.56641 0.50234 0.38652 0.0
C2835 C 0.55432 0.52328 0.37551 0.0
C2836 C 0.55346 0.47497 0.37613 0.0
C2837 C 0.56759 0.50552 0.41506 0.0
C2838 C 0.59148 0.51054 0.42471 0.0
C2839 C 0.59729 0.51536 0.4505 0.0
C2840 C 0.57826 0.51534 0.46678 0.0
C2841 C 0.55368 0.51022 0.45737 0.0
C2842 C 0.54831 0.50492 0.43116 0.0
H2843 H 0.26059 0.88061 0.07868 0.0
H2844 H 0.22803 0.80802 0.03542 0.0
H2845 H 0.22802 0.78549 0.07355 0.0
H2846 H 0.30033 0.85636 0.11616 0.0
H2847 H 0.29721 0.87556 0.14505 0.0
H2848 H 0.29137 0.88756 0.11539 0.0
H2849 H 0.24808 0.89293 0.12772 0.0
H2850 H 0.254 0.88144 0.15771 0.0
H2851 H 0.22782 0.86569 0.13781 0.0
H2852 H 0.23768 0.76931 0.11364 0.0
H2853 H 0.25147 0.76135 0.15622 0.0
H2854 H 0.27581 0.84403 0.17497 0.0
C2855 C 0.25276 0.86017 0.07744 0.0
C2856 C 0.24455 0.84605 0.05404 0.0
C2857 C 0.23471 0.81922 0.05309 0.0
C2858 C 0.23451 0.8062 0.07466 0.0
C2859 C 0.24384 0.82032 0.09717 0.0
C2860 C 0.25226 0.84679 0.09897 0.0
C2861 C 0.26256 0.85683 0.12538 0.0
C2862 C 0.28946 0.86983 0.12548 0.0
C2863 C 0.2472 0.87532 0.13789 0.0
C2864 C 0.25975 0.83166 0.13756 0.0
C2865 C 0.24877 0.81089 0.12093 0.0
C2866 C 0.24582 0.78542 0.12708 0.0
C2867 C 0.25395 0.78106 0.15111 0.0
C2868 C 0.26463 0.80209 0.16861 0.0
C2869 C 0.26753 0.82768 0.16182 0.0
H2870 H 0.96703 0.56875 0.84226 0.0
H2871 H 0.89497 0.53806 0.86522 0.0
H2872 H 0.91251 0.53351 0.9072 0.0
H2873 H 0.99876 0.52815 0.87336 0.0
H2874 H 0.02532 0.55231 0.88323 0.0
H2875 H 1.00719 0.55542 0.85544 0.0
H2876 H 1.00153 0.60107 0.87371 0.0
H2877 H 0.01979 0.59819 0.90155 0.0
H2878 H 0.98952 0.60511 0.90425 0.0
H2879 H 0.93757 0.52534 0.94294 0.0
H2880 H 0.96865 0.51906 0.974 0.0
H2881 H 0.02514 0.56024 0.93203 0.0
C2882 C 0.95496 0.56148 0.85631 0.0
C2883 C 0.92965 0.55371 0.85057 0.0
C2884 C 0.91437 0.54422 0.86929 0.0
C2885 C 0.92416 0.54155 0.89317 0.0
C2886 C 0.94918 0.54894 0.89812 0.0
C2887 C 0.96441 0.55914 0.8805 0.0
C2888 C 0.99077 0.56482 0.89076 0.0
C2889 C 1.00642 0.54924 0.87474 0.0
C2890 C 1.001 0.59404 0.89269 0.0
C2891 C 0.98797 0.5553 0.9166 0.0
C2892 C 0.96375 0.54615 0.92018 0.0
C2893 C 0.95647 0.53352 0.94095 0.0
C2894 C 0.97433 0.53035 0.95873 0.0
C2895 C 0.9992 0.54064 0.95637 0.0
C2896 C 1.00617 0.55323 0.93489 0.0
H2897 H 0.24498 0.22079 0.56737 0.0
H2898 H 0.29286 0.16433 0.56927 0.0
H2899 H 0.29788 0.17293 0.61549 0.0
H2900 H 0.27658 0.26652 0.61605 0.0
H2901 H 0.24952 0.27481 0.62922 0.0
H2902 H 0.2491 0.26376 0.59636 0.0
H2903 H 0.21264 0.22724 0.60166 0.0
H2904 H 0.21299 0.23814 0.63459 0.0
H2905 H 0.21518 0.20498 0.62493 0.0
H2906 H 0.29994 0.1896 0.66104 0.0
H2907 H 0.29793 0.21204 0.70312 0.0
H2908 H 0.24694 0.25633 0.67293 0.0
C2909 C 0.2565 0.21016 0.57747 0.0
C2910 C 0.26862 0.19189 0.56449 0.0
C2911 C 0.28335 0.17834 0.57861 0.0
C2912 C 0.28631 0.18311 0.60493 0.0
C2913 C 0.27418 0.20125 0.61704 0.0
C2914 C 0.2594 0.21444 0.60383 0.0
C2915 C 0.24854 0.23306 0.62151 0.0
C2916 C 0.25641 0.2612 0.61542 0.0
C2917 C 0.22068 0.22539 0.62061 0.0
C2918 C 0.25993 0.22869 0.64671 0.0
C2919 C 0.27466 0.21024 0.64358 0.0
C2920 C 0.28822 0.2038 0.66372 0.0
C2921 C 0.28697 0.2167 0.68757 0.0
C2922 C 0.27207 0.2357 0.69139 0.0
C2923 C 0.25807 0.2415 0.67068 0.0
H2924 H 0.58362 0.50955 0.22605 0.0
H2925 H 0.66093 0.52839 0.21555 0.0
H2926 H 0.65176 0.53612 0.17141 0.0
H2927 H 0.56558 0.47724 0.16187 0.0
H2928 H 0.53758 0.4897 0.16092 0.0
H2929 H 0.55067 0.48309 0.19047 0.0
H2930 H 0.55022 0.53038 0.20848 0.0
H2931 H 0.53766 0.5373 0.17887 0.0
H2932 H 0.56561 0.55686 0.1927 0.0
H2933 H 0.63349 0.54641 0.12957 0.0
H2934 H 0.60805 0.55347 0.09264 0.0
H2935 H 0.54298 0.52733 0.13119 0.0
C2936 C 0.59867 0.51474 0.21433 0.0
C2937 C 0.62302 0.51834 0.22425 0.0
C2938 C 0.64216 0.52522 0.20829 0.0
C2939 C 0.6371 0.52984 0.18325 0.0
C2940 C 0.61281 0.52712 0.17441 0.0
C2941 C 0.59394 0.51917 0.18938 0.0
C2942 C 0.56943 0.51833 0.17585 0.0
C2943 C 0.55497 0.49043 0.17205 0.0
C2944 C 0.55489 0.53682 0.18981 0.0
C2945 C 0.57735 0.5278 0.15114 0.0
C2946 C 0.60243 0.53273 0.15056 0.0
C2947 C 0.61386 0.54234 0.12979 0.0
C2948 C 0.59928 0.54649 0.10899 0.0
C2949 C 0.57357 0.54106 0.10913 0.0
C2950 C 0.56259 0.53175 0.13057 0.0
H2951 H 0.2206 0.84542 0.93631 0.0
H2952 H 0.26815 0.91634 0.92184 0.0
H2953 H 0.27512 0.89589 0.87987 0.0
H2954 H 0.25466 0.80209 0.90909 0.0
H2955 H 0.22901 0.77837 0.89575 0.0
H2956 H 0.22592 0.79914 0.92357 0.0
H2957 H 0.18988 0.81512 0.90164 0.0
H2958 H 0.19246 0.79392 0.87393 0.0
H2959 H 0.19371 0.8281 0.87173 0.0
H2960 H 0.28019 0.86621 0.84206 0.0
H2961 H 0.27861 0.83173 0.80769 0.0
H2962 H 0.22643 0.7803 0.84623 0.0
C2963 C 0.23206 0.85683 0.92406 0.0
C2964 C 0.2438 0.88243 0.93207 0.0
C2965 C 0.25877 0.89681 0.91576 0.0
C2966 C 0.26298 0.88528 0.89208 0.0
C2967 C 0.25181 0.85959 0.88514 0.0
C2968 C 0.23625 0.84573 0.90042 0.0
C2969 C 0.22685 0.8183 0.8888 0.0
C2970 C 0.23458 0.79831 0.90529 0.0
C2971 C 0.19908 0.81359 0.88371 0.0
C2972 C 0.23983 0.81869 0.86464 0.0
C2973 C 0.25428 0.84264 0.86305 0.0
C2974 C 0.26868 0.84753 0.84293 0.0
C2975 C 0.26772 0.8277 0.82354 0.0
C2976 C 0.25221 0.80337 0.8242 0.0
C2977 C 0.23839 0.7987 0.84523 0.0
H2978 H 0.97459 0.52293 0.71723 0.0
H2979 H 0.91404 0.56411 0.71186 0.0
H2980 H 0.92098 0.56865 0.66723 0.0
H2981 H 0.01317 0.5596 0.67519 0.0
H2982 H 0.02402 0.53164 0.66125 0.0
H2983 H 0.01515 0.53264 0.69323 0.0
H2984 H 0.98478 0.48941 0.68237 0.0
H2985 H 0.99357 0.48828 0.65038 0.0
H2986 H 0.96204 0.48684 0.65691 0.0
H2987 H 0.93413 0.56878 0.62354 0.0
H2988 H 0.95139 0.5622 0.58231 0.0
H2989 H 1.00237 0.51943 0.61519 0.0
C2990 C 0.96295 0.53309 0.7067 0.0
C2991 C 0.94384 0.54324 0.71801 0.0
C2992 C 0.92874 0.55609 0.70354 0.0
C2993 C 0.9326 0.55888 0.67822 0.0
C2994 C 0.95149 0.54856 0.6676 0.0
C2995 C 0.96633 0.53577 0.68126 0.0
C2996 C 0.98464 0.5255 0.66492 0.0
C2997 C 0.0108 0.53811 0.6742 0.0
C2998 C 0.98103 0.49574 0.66357 0.0
C2999 C 0.97766 0.53444 0.63995 0.0
C3000 C 0.95865 0.54793 0.64204 0.0
C3001 C 0.94898 0.55819 0.62161 0.0
C3002 C 0.95887 0.55434 0.59831 0.0
C3003 C 0.97804 0.54018 0.59567 0.0
C3004 C 0.98764 0.53024 0.61676 0.0
H3005 H 0.26475 0.21772 0.44028 0.0
H3006 H 0.28801 0.14856 0.40708 0.0
H3007 H 0.29351 0.16821 0.36708 0.0
H3008 H 0.2308 0.22906 0.38304 0.0
H3009 H 0.23884 0.26383 0.38881 0.0
H3010 H 0.2364 0.24422 0.41482 0.0
H3011 H 0.28042 0.26528 0.43094 0.0
H3012 H 0.283 0.2848 0.40489 0.0
H3013 H 0.3049 0.26423 0.41027 0.0
H3014 H 0.2989 0.19641 0.33114 0.0
H3015 H 0.30047 0.22966 0.30113 0.0
H3016 H 0.2713 0.27969 0.35612 0.0
C3017 C 0.27089 0.20669 0.42454 0.0
C3018 C 0.27605 0.18157 0.42694 0.0
C3019 C 0.28387 0.16775 0.40579 0.0
C3020 C 0.28713 0.17881 0.38295 0.0
C3021 C 0.28214 0.20364 0.38124 0.0
C3022 C 0.27381 0.21729 0.40133 0.0
C3023 C 0.26933 0.24348 0.39424 0.0
C3024 C 0.24223 0.24524 0.3953 0.0
C3025 C 0.28538 0.26576 0.41109 0.0
C3026 C 0.27705 0.24268 0.36732 0.0
C3027 C 0.28441 0.21951 0.36021 0.0
C3028 C 0.29292 0.2145 0.33646 0.0
C3029 C 0.29374 0.23351 0.31949 0.0
C3030 C 0.28582 0.25719 0.32611 0.0
C3031 C 0.27743 0.26176 0.35044 0.0
H3032 H 0.36019 0.62797 0.51732 0.0
H3033 H 0.30183 0.56139 0.50227 0.0
H3034 H 0.33203 0.53266 0.4966 0.0
H3035 H 0.40148 0.60699 0.47347 0.0
H3036 H 0.42814 0.61927 0.49408 0.0
H3037 H 0.40181 0.63454 0.49615 0.0
H3038 H 0.40065 0.62782 0.54359 0.0
H3039 H 0.42695 0.61253 0.54146 0.0
H3040 H 0.39947 0.59568 0.5532 0.0
H3041 H 0.36898 0.51115 0.49166 0.0
H3042 H 0.40984 0.49868 0.49135 0.0
H3043 H 0.44317 0.57916 0.51138 0.0
C3044 C 0.35378 0.60736 0.51279 0.0
C3045 C 0.3287 0.59692 0.51015 0.0
C3046 C 0.321 0.56981 0.50444 0.0
C3047 C 0.338 0.55333 0.50107 0.0
C3048 C 0.36262 0.56424 0.50368 0.0
C3049 C 0.37049 0.5906 0.50967 0.0
C3050 C 0.39795 0.59734 0.51235 0.0
C3051 C 0.40792 0.61561 0.49284 0.0
C3052 C 0.40676 0.60902 0.53925 0.0
C3053 C 0.40424 0.5707 0.50683 0.0
C3054 C 0.3837 0.55182 0.50164 0.0
C3055 C 0.38521 0.52576 0.49579 0.0
C3056 C 0.40838 0.51884 0.49556 0.0
C3057 C 0.42948 0.53794 0.50145 0.0
C3058 C 0.42728 0.56412 0.50696 0.0
H3059 H 0.86723 0.90701 0.51304 0.0
H3060 H 0.82202 0.96209 0.53872 0.0
H3061 H 0.85777 0.99754 0.54063 0.0
H3062 H 0.92022 0.93497 0.55163 0.0
H3063 H 0.94117 0.92872 0.52818 0.0
H3064 H 0.91197 0.90783 0.52797 0.0
H3065 H 0.90238 0.91619 0.48197 0.0
H3066 H 0.93164 0.93699 0.48195 0.0
H3067 H 0.90432 0.94904 0.47407 0.0
H3068 H 0.89925 0.02674 0.54156 0.0
H3069 H 0.94259 0.04713 0.54094 0.0
H3070 H 0.9601 0.97295 0.51358 0.0
C3071 C 0.8647 0.92651 0.51901 0.0
C3072 C 0.84167 0.93166 0.5258 0.0
C3073 C 0.83937 0.95756 0.53341 0.0
C3074 C 0.8596 0.97785 0.53454 0.0
C3075 C 0.882 0.97199 0.52784 0.0
C3076 C 0.88461 0.94693 0.52013 0.0
C3077 C 0.91068 0.94562 0.51426 0.0
C3078 C 0.92164 0.92826 0.53155 0.0
C3079 C 0.91234 0.93642 0.4864 0.0
C3080 C 0.92247 0.97383 0.52015 0.0
C3081 C 0.90565 0.98876 0.52795 0.0
C3082 C 0.91249 0.01524 0.53529 0.0
C3083 C 0.93714 0.02665 0.53489 0.0
C3084 C 0.95465 0.01166 0.5271 0.0
C3085 C 0.94708 0.98497 0.51937 0.0
H3086 H 0.87895 0.12764 0.26087 0.0
H3087 H 0.82332 0.06809 0.22117 0.0
H3088 H 0.79525 0.09931 0.2204 0.0
H3089 H 0.83848 0.15746 0.29983 0.0
H3090 H 0.8546 0.19008 0.29853 0.0
H3091 H 0.87071 0.1633 0.29554 0.0
H3092 H 0.88622 0.17735 0.2531 0.0
H3093 H 0.87027 0.20425 0.25607 0.0
H3094 H 0.86461 0.18135 0.22843 0.0
H3095 H 0.77291 0.13727 0.22369 0.0
H3096 H 0.75836 0.17885 0.23079 0.0
H3097 H 0.82785 0.2138 0.2693 0.0
C3098 C 0.86091 0.12121 0.2519 0.0
C3099 C 0.85345 0.09528 0.24101 0.0
C3100 C 0.82958 0.08774 0.22964 0.0
C3101 C 0.81343 0.10538 0.22911 0.0
C3102 C 0.82124 0.13066 0.24014 0.0
C3103 C 0.84442 0.13861 0.25134 0.0
C3104 C 0.8481 0.16688 0.26203 0.0
C3105 C 0.85328 0.16958 0.29069 0.0
C3106 C 0.86851 0.18343 0.24913 0.0
C3107 C 0.82341 0.17352 0.25513 0.0
C3108 C 0.8082 0.15237 0.24244 0.0
C3109 C 0.78465 0.15391 0.23374 0.0
C3110 C 0.77649 0.17766 0.23794 0.0
C3111 C 0.79173 0.19973 0.25085 0.0
C3112 C 0.8155 0.19736 0.25964 0.0
H3113 H 0.68417 0.14251 0.99173 0.0
H3114 H 0.71925 0.10501 0.04827 0.0
H3115 H 0.67924 0.08075 0.05769 0.0
H3116 H 0.6293 0.14788 0.02385 0.0
H3117 H 0.60976 0.14053 0.9955 0.0
H3118 H 0.64099 0.15611 0.99418 0.0
H3119 H 0.64802 0.11948 0.9611 0.0
H3120 H 0.6168 0.10391 0.9622 0.0
H3121 H 0.64093 0.08622 0.9681 0.0
H3122 H 0.63512 0.0611 0.0615 0.0
H3123 H 0.59087 0.0437 0.05567 0.0
H3124 H 0.58528 0.09173 0.99473 0.0
C3125 C 0.68339 0.12933 0.00622 0.0
C3126 C 0.70478 0.12578 0.01941 0.0
C3127 C 0.70308 0.10801 0.03791 0.0
C3128 C 0.68044 0.09426 0.04351 0.0
C3129 C 0.65968 0.09825 0.03023 0.0
C3130 C 0.66099 0.11508 0.01171 0.0
C3131 C 0.63614 0.11469 0.99915 0.0
C3132 C 0.62861 0.14139 0.00344 0.0
C3133 C 0.63544 0.10552 0.97097 0.0
C3134 C 0.6207 0.09489 0.01336 0.0
C3135 C 0.63451 0.086 0.03155 0.0
C3136 C 0.62412 0.06786 0.04726 0.0
C3137 C 0.59902 0.05819 0.04393 0.0
C3138 C 0.5848 0.06634 0.02473 0.0
C3139 C 0.5958 0.08508 0.00947 0.0
H3140 H 0.17576 0.44102 0.2247 0.0
H3141 H 0.22257 0.50722 0.26585 0.0
H3142 H 0.25329 0.47987 0.27425 0.0
H3143 H 0.18677 0.39407 0.26263 0.0
H3144 H 0.187 0.36901 0.23744 0.0
H3145 H 0.16984 0.3943 0.23324 0.0
H3146 H 0.19314 0.40585 0.1937 0.0
H3147 H 0.21028 0.38041 0.19774 0.0
H3148 H 0.22592 0.41314 0.19602 0.0
H3149 H 0.27614 0.44315 0.28282 0.0
H3150 H 0.29079 0.40159 0.28656 0.0
H3151 H 0.23029 0.36161 0.23633 0.0
C3152 C 0.19268 0.44979 0.2351 0.0
C3153 C 0.19692 0.47604 0.24472 0.0
C3154 C 0.21919 0.48707 0.25821 0.0
C3155 C 0.23666 0.4717 0.26311 0.0
C3156 C 0.23175 0.44562 0.25375 0.0
C3157 C 0.21051 0.43496 0.2395 0.0
C3158 C 0.20931 0.40647 0.23181 0.0
C3159 C 0.18691 0.39001 0.2419 0.0
C3160 C 0.20969 0.40117 0.20312 0.0
C3161 C 0.23265 0.40248 0.2448 0.0
C3162 C 0.24544 0.42514 0.25745 0.0
C3163 C 0.26656 0.4254 0.27251 0.0
C3164 C 0.27472 0.40181 0.27462 0.0
C3165 C 0.26181 0.3786 0.26152 0.0
C3166 C 0.24078 0.37916 0.24625 0.0
H3167 H 0.21825 0.45987 0.01411 0.0
H3168 H 0.18834 0.39208 0.05061 0.0
H3169 H 0.14926 0.40781 0.0536 0.0
H3170 H 0.18731 0.50668 0.047 0.0
H3171 H 0.18139 0.52249 0.01947 0.0
H3172 H 0.20758 0.50701 0.02169 0.0
H3173 H 0.19319 0.47909 0.97965 0.0
H3174 H 0.167 0.49454 0.97729 0.0
H3175 H 0.16306 0.45972 0.97618 0.0
H3176 H 0.11403 0.43086 0.05324 0.0
H3177 H 0.08271 0.45702 0.04568 0.0
H3178 H 0.13346 0.50899 0.00611 0.0
C3179 C 0.20349 0.44855 0.02296 0.0
C3180 C 0.20631 0.42494 0.03253 0.0
C3181 C 0.18651 0.41024 0.04334 0.0
C3182 C 0.16432 0.41909 0.04518 0.0
C3183 C 0.16206 0.4424 0.03555 0.0
C3184 C 0.18092 0.45675 0.02426 0.0
C3185 C 0.17294 0.4801 0.01376 0.0
C3186 C 0.18822 0.50558 0.02623 0.0
C3187 C 0.17412 0.47824 0.98501 0.0
C3188 C 0.14677 0.47687 0.02131 0.0
C3189 C 0.14109 0.45507 0.03406 0.0
C3190 C 0.11822 0.44783 0.04311 0.0
C3191 C 0.10051 0.46289 0.03865 0.0
C3192 C 0.10549 0.48498 0.02508 0.0
C3193 C 0.12908 0.49221 0.01648 0.0
H3194 H 0.84727 0.9664 0.23213 0.0
H3195 H 0.91587 0.94385 0.25374 0.0
H3196 H 0.89485 0.8995 0.25602 0.0
H3197 H 0.81051 0.92681 0.2721 0.0
H3198 H 0.78456 0.91731 0.24997 0.0
H3199 H 0.80472 0.9478 0.24858 0.0
H3200 H 0.81151 0.93466 0.20203 0.0
H3201 H 0.79136 0.9041 0.20329 0.0
H3202 H 0.82191 0.90468 0.19367 0.0
H3203 H 0.86766 0.85899 0.25951 0.0
H3204 H 0.83453 0.82255 0.26261 0.0
H3205 H 0.78202 0.86722 0.23669 0.0
C3206 C 0.85785 0.95205 0.2371 0.0
C3207 C 0.88339 0.95894 0.24268 0.0
C3208 C 0.89642 0.93944 0.24925 0.0
C3209 C 0.88464 0.91399 0.25062 0.0
C3210 C 0.85967 0.9079 0.2452 0.0
C3211 C 0.84628 0.92611 0.23841 0.0
C3212 C 0.8194 0.91381 0.23412 0.0
C3213 C 0.80388 0.92724 0.25228 0.0
C3214 C 0.81052 0.91435 0.20664 0.0
C3215 C 0.81997 0.88612 0.24016 0.0
C3216 C 0.84356 0.88346 0.24641 0.0
C3217 C 0.84915 0.86062 0.25414 0.0
C3218 C 0.83018 0.83986 0.2557 0.0
C3219 C 0.8058 0.84155 0.24925 0.0
C3220 C 0.80057 0.86506 0.24116 0.0
H3221 H 0.64557 0.11021 0.76551 0.0
H3222 H 0.66356 0.07082 0.69618 0.0
H3223 H 0.69203 0.11062 0.68793 0.0
H3224 H 0.64957 0.17464 0.74582 0.0
H3225 H 0.66379 0.19024 0.77543 0.0
H3226 H 0.64336 0.15957 0.77436 0.0
H3227 H 0.677 0.1399 0.79653 0.0
H3228 H 0.69746 0.17051 0.79772 0.0
H3229 H 0.70619 0.1416 0.78312 0.0
H3230 H 0.71843 0.15577 0.68762 0.0
H3231 H 0.74388 0.1996 0.69805 0.0
H3232 H 0.71053 0.20627 0.76933 0.0
C3233 C 0.65524 0.11015 0.7484 0.0
C3234 C 0.65219 0.08784 0.73121 0.0
C3235 C 0.66564 0.08799 0.70942 0.0
C3236 C 0.68171 0.11046 0.70457 0.0
C3237 C 0.68436 0.13227 0.722 0.0
C3238 C 0.67174 0.13205 0.74369 0.0
C3239 C 0.67926 0.15695 0.7606 0.0
C3240 C 0.65771 0.17119 0.76425 0.0
C3241 C 0.69066 0.15193 0.78598 0.0
C3242 C 0.698 0.17134 0.74505 0.0
C3243 C 0.7005 0.15714 0.72263 0.0
C3244 C 0.7167 0.16698 0.70519 0.0
C3245 C 0.73097 0.1918 0.71115 0.0
C3246 C 0.72918 0.20589 0.73452 0.0
C3247 C 0.71236 0.19561 0.75143 0.0
loop_
_geom_bond_atom_site_label_1
_geom_bond_atom_site_label_2
_geom_bond_distance
_geom_bond_site_symmetry_2
_ccdc_geom_bond_type
Co0 O1 2.216 . S
Co0 O2 2.091 . S
Co0 O4 2.004 1_455 S
Co0 O10 2.021 . S
Co0 O12 2.137 . S
Co0 O13 2.244 . S
O1 Co0 2.216 . S
O1 C8 1.247 . S
O2 Co0 2.091 . S
O2 C8 1.261 . S
C3 O12 1.247 . S
C3 O13 1.272 . S
O4 Co0 2.004 1_655 S
O4 C9 1.259 . S
Co5 O6 2.061 . S
Co5 O11 2.052 1_655 S
Co5 O13 2.135 1_655 S
O6 Co5 2.061 . S
O6 C9 1.235 . S
C7 O10 1.238 . S
C7 O11 1.241 . S
C8 O1 1.247 . S
C8 O2 1.261 . S
C9 O4 1.259 . S
C9 O6 1.235 . S
O10 Co0 2.021 . S
O10 C7 1.238 . S
O11 Co5 2.052 1_455 S
O11 C7 1.241 . S
O12 Co0 2.137 . S
O12 C3 1.247 . S
O13 Co0 2.244 . S
O13 C3 1.272 . S
O13 Co5 2.135 1_455 S
Co14 O15 2.216 1_455 S
Co14 O16 2.091 1_455 S
Co14 O18 2.004 . S
Co14 O24 2.016 . S
Co14 O26 2.137 . S
Co14 O27 2.244 . S
O15 Co14 2.216 1_655 S
O15 C22 1.247 . S
O16 Co14 2.091 1_655 S
O16 C22 1.261 . S
C17 O26 1.247 . S
C17 O27 1.272 . S
O18 Co14 2.004 . S
O18 C23 1.259 . S
Co19 O20 2.061 . S
Co19 O25 2.052 . S
Co19 O27 2.135 . S
O20 Co19 2.061 . S
O20 C23 1.235 . S
C21 O24 1.249 . S
C21 O25 1.241 . S
C22 O15 1.247 . S
C22 O16 1.261 . S
C23 O18 1.259 . S
C23 O20 1.235 . S
O24 Co14 2.016 . S
O24 C21 1.249 . S
O25 Co19 2.052 . S
O25 C21 1.241 . S
O26 Co14 2.137 . S
O26 C17 1.247 . S
O27 Co14 2.244 . S
O27 C17 1.272 . S
O27 Co19 2.135 . S
Co28 O29 2.216 . S
Co28 O30 2.091 . S
Co28 O32 2.004 . S
Co28 O38 2.021 . S
Co28 O40 2.137 . S
Co28 O41 2.244 . S
O29 Co28 2.216 . S
O29 C36 1.247 . S
O30 Co28 2.091 . S
O30 C36 1.261 . S
C31 O40 1.247 . S
C31 O41 1.272 . S
O32 Co28 2.004 . S
O32 C37 1.259 . S
Co33 O34 2.061 . S
Co33 O39 2.052 . S
Co33 O41 2.135 . S
O34 Co33 2.061 . S
O34 C37 1.235 . S
C35 O38 1.238 . S
C35 O39 1.241 . S
C36 O29 1.247 . S
C36 O30 1.261 . S
C37 O32 1.259 . S
C37 O34 1.235 . S
O38 Co28 2.021 . S
O38 C35 1.238 . S
O39 Co33 2.052 . S
O39 C35 1.241 . S
O40 Co28 2.137 . S
O40 C31 1.247 . S
O41 Co28 2.244 . S
O41 C31 1.272 . S
O41 Co33 2.135 . S
Co42 O43 2.216 . S
Co42 O44 2.091 . S
Co42 O46 2.004 . S
Co42 O52 2.021 . S
Co42 O54 2.137 . S
Co42 O55 2.244 . S
O43 Co42 2.216 . S
O43 C50 1.247 . S
O44 Co42 2.091 . S
O44 C50 1.261 . S
C45 O54 1.247 . S
C45 O55 1.272 . S
O46 Co42 2.004 . S
O46 C51 1.259 . S
Co47 O48 2.061 . S
Co47 O53 2.052 . S
Co47 O55 2.135 . S
O48 Co47 2.061 . S
O48 C51 1.235 . S
C49 O52 1.238 . S
C49 O53 1.241 . S
C50 O43 1.247 . S
C50 O44 1.261 . S
C51 O46 1.259 . S
C51 O48 1.235 . S
O52 Co42 2.021 . S
O52 C49 1.238 . S
O53 Co47 2.052 . S
O53 C49 1.241 . S
O54 Co42 2.137 . S
O54 C45 1.247 . S
O55 Co42 2.244 . S
O55 C45 1.272 . S
O55 Co47 2.135 . S
Co56 O57 2.216 1_455 S
Co56 O58 2.091 1_455 S
Co56 O60 2.004 . S
Co56 O66 2.021 . S
Co56 O68 2.137 . S
Co56 O69 2.244 . S
O57 Co56 2.216 1_655 S
O57 C64 1.247 . S
O58 Co56 2.091 1_655 S
O58 C64 1.261 . S
C59 O68 1.247 . S
C59 O69 1.272 . S
O60 Co56 2.004 . S
O60 C65 1.259 . S
Co61 O62 2.061 . S
Co61 O67 2.052 . S
Co61 O69 2.135 . S
O62 Co61 2.061 . S
O62 C65 1.235 . S
C63 O66 1.238 . S
C63 O67 1.241 . S
C64 O57 1.247 . S
C64 O58 1.261 . S
C65 O60 1.259 . S
C65 O62 1.235 . S
O66 Co56 2.021 . S
O66 C63 1.238 . S
O67 Co61 2.052 . S
O67 C63 1.241 . S
O68 Co56 2.137 . S
O68 C59 1.247 . S
O69 Co56 2.244 . S
O69 C59 1.272 . S
O69 Co61 2.135 . S
Co70 O71 2.216 . S
Co70 O72 2.091 . S
Co70 O74 2.004 . S
Co70 O80 2.021 . S
Co70 O82 2.137 . S
Co70 O83 2.244 . S
O71 Co70 2.216 . S
O71 C78 1.247 . S
O72 Co70 2.091 . S
O72 C78 1.261 . S
C73 O82 1.247 . S
C73 O83 1.272 . S
O74 Co70 2.004 . S
O74 C79 1.259 . S
Co75 O76 2.061 . S
Co75 O81 2.052 . S
Co75 O83 2.135 . S
O76 Co75 2.061 . S
O76 C79 1.235 . S
C77 O80 1.238 . S
C77 O81 1.241 . S
C78 O71 1.247 . S
C78 O72 1.261 . S
C79 O74 1.259 . S
C79 O76 1.235 . S
O80 Co70 2.021 . S
O80 C77 1.238 . S
O81 Co75 2.052 . S
O81 C77 1.241 . S
O82 Co70 2.137 . S
O82 C73 1.247 . S
O83 Co70 2.244 . S
O83 C73 1.272 . S
O83 Co75 2.135 . S
Co84 O85 2.216 . S
Co84 O86 2.091 . S
Co84 O88 2.004 . S
Co84 O94 2.021 . S
Co84 O96 2.137 . S
Co84 O97 2.244 . S
O85 Co84 2.216 . S
O85 C92 1.247 . S
O86 Co84 2.091 . S
O86 C92 1.261 . S
C87 O96 1.247 . S
C87 O97 1.272 . S
O88 Co84 2.004 . S
O88 C93 1.259 . S
Co89 O90 2.061 . S
Co89 O95 2.052 . S
Co89 O97 2.135 . S
O90 Co89 2.061 . S
O90 C93 1.235 . S
C91 O94 1.238 . S
C91 O95 1.241 . S
C92 O85 1.247 . S
C92 O86 1.261 . S
C93 O88 1.259 . S
C93 O90 1.235 . S
O94 Co84 2.021 . S
O94 C91 1.238 . S
O95 Co89 2.052 . S
O95 C91 1.241 . S
O96 Co84 2.137 . S
O96 C87 1.247 . S
O97 Co84 2.244 . S
O97 C87 1.272 . S
O97 Co89 2.135 . S
Co98 O99 2.216 . S
Co98 O100 2.091 . S
Co98 O102 2.004 1_455 S
Co98 O108 2.021 . S
Co98 O110 2.137 . S
Co98 O111 2.244 1_455 S
O99 Co98 2.216 . S
O99 C106 1.247 . S
O100 Co98 2.091 . S
O100 C106 1.261 . S
C101 O110 1.247 . S
C101 O111 1.272 1_455 S
O102 Co98 2.004 1_655 S
O102 C107 1.259 . S
Co103 O104 2.061 . S
Co103 O109 2.052 . S
Co103 O111 2.135 . S
O104 Co103 2.061 . S
O104 C107 1.235 . S
C105 O108 1.238 1_655 S
C105 O109 1.241 . S
C106 O99 1.247 . S
C106 O100 1.261 . S
C107 O102 1.259 . S
C107 O104 1.235 . S
O108 Co98 2.021 . S
O108 C105 1.238 1_455 S
O109 Co103 2.052 . S
O109 C105 1.241 . S
O110 Co98 2.137 . S
O110 C101 1.247 . S
O111 Co98 2.244 1_655 S
O111 C101 1.272 1_655 S
O111 Co103 2.135 . S
Co112 O113 2.216 . S
Co112 O114 2.091 . S
Co112 O116 2.004 1_545 S
Co112 O122 2.021 . S
Co112 O124 2.137 . S
Co112 O125 2.244 . S
O113 Co112 2.216 . S
O113 C120 1.247 . S
O114 Co112 2.091 . S
O114 C120 1.261 . S
C115 O124 1.247 . S
C115 O125 1.272 . S
O116 Co112 2.004 1_565 S
O116 C121 1.259 . S
Co117 O118 2.061 . S
Co117 O123 2.052 1_565 S
Co117 O125 2.135 1_565 S
O118 Co117 2.061 . S
O118 C121 1.235 . S
C119 O122 1.238 . S
C119 O123 1.241 . S
C120 O113 1.247 . S
C120 O114 1.261 . S
C121 O116 1.259 . S
C121 O118 1.235 . S
O122 Co112 2.021 . S
O122 C119 1.238 . S
O123 Co117 2.052 1_545 S
O123 C119 1.241 . S
O124 Co112 2.137 . S
O124 C115 1.247 . S
O125 Co112 2.244 . S
O125 C115 1.272 . S
O125 Co117 2.135 1_545 S
Co126 O127 2.216 . S
Co126 O128 2.091 . S
Co126 O130 2.004 . S
Co126 O136 2.021 . S
Co126 O138 2.137 . S
Co126 O139 2.244 . S
O127 Co126 2.216 . S
O127 C134 1.247 . S
O128 Co126 2.091 . S
O128 C134 1.261 . S
C129 O138 1.247 . S
C129 O139 1.272 . S
O130 Co126 2.004 . S
O130 C135 1.259 . S
Co131 O132 2.061 . S
Co131 O137 2.052 . S
Co131 O139 2.135 . S
O132 Co131 2.061 . S
O132 C135 1.235 . S
C133 O136 1.238 . S
C133 O137 1.241 . S
C134 O127 1.247 . S
C134 O128 1.261 . S
C135 O130 1.259 . S
C135 O132 1.235 . S
O136 Co126 2.021 . S
O136 C133 1.238 . S
O137 Co131 2.052 . S
O137 C133 1.241 . S
O138 Co126 2.137 . S
O138 C129 1.247 . S
O139 Co126 2.244 . S
O139 C129 1.272 . S
O139 Co131 2.135 . S
Co140 O141 2.216 . S
Co140 O142 2.091 . S
Co140 O144 2.004 1_565 S
Co140 O150 2.021 . S
Co140 O152 2.137 . S
Co140 O153 2.244 1_565 S
O141 Co140 2.216 . S
O141 C148 1.247 . S
O142 Co140 2.091 . S
O142 C148 1.261 . S
C143 O152 1.235 1_545 S
C143 O153 1.282 . S
O144 Co140 2.004 1_545 S
O144 C149 1.259 . S
Co145 O146 2.061 . S
Co145 O151 2.052 . S
Co145 O153 2.135 . S
O146 Co145 2.061 . S
O146 C149 1.235 . S
C147 O150 1.251 . S
C147 O151 1.223 1_565 S
C148 O141 1.247 . S
C148 O142 1.261 . S
C149 O144 1.259 . S
C149 O146 1.235 . S
O150 Co140 2.021 . S
O150 C147 1.251 . S
O151 Co145 2.052 . S
O151 C147 1.223 1_545 S
O152 Co140 2.137 . S
O152 C143 1.235 1_565 S
O153 Co140 2.244 1_545 S
O153 C143 1.282 . S
O153 Co145 2.135 . S
Co154 O155 2.216 . S
Co154 O156 2.091 . S
Co154 O158 2.004 . S
Co154 O164 2.021 . S
Co154 O166 2.137 1_554 S
Co154 O167 2.244 1_554 S
O155 Co154 2.216 . S
O155 C162 1.247 . S
O156 Co154 2.091 . S
O156 C162 1.261 . S
C157 O166 1.247 . S
C157 O167 1.272 . S
O158 Co154 2.004 . S
O158 C163 1.259 . S
Co159 O160 2.061 . S
Co159 O165 2.052 . S
Co159 O167 2.135 1_554 S
O160 Co159 2.061 . S
O160 C163 1.235 . S
C161 O164 1.238 . S
C161 O165 1.241 . S
C162 O155 1.247 . S
C162 O156 1.261 . S
C163 O158 1.259 . S
C163 O160 1.235 . S
O164 Co154 2.021 . S
O164 C161 1.238 . S
O165 Co159 2.052 . S
O165 C161 1.241 . S
O166 Co154 2.137 1_556 S
O166 C157 1.247 . S
O167 Co154 2.244 1_556 S
O167 C157 1.272 . S
O167 Co159 2.135 1_556 S
Co168 O169 2.216 . S
Co168 O170 2.091 . S
Co168 O172 2.004 . S
Co168 O178 2.021 . S
Co168 O180 2.137 1_554 S
Co168 O181 2.244 1_554 S
O169 Co168 2.216 . S
O169 C176 1.247 . S
O170 Co168 2.091 . S
O170 C176 1.261 . S
C171 O180 1.247 . S
C171 O181 1.272 . S
O172 Co168 2.004 . S
O172 C177 1.259 . S
Co173 O174 2.061 . S
Co173 O179 2.052 . S
Co173 O181 2.135 1_554 S
O174 Co173 2.061 . S
O174 C177 1.235 . S
C175 O178 1.238 . S
C175 O179 1.241 . S
C176 O169 1.247 . S
C176 O170 1.261 . S
C177 O172 1.259 . S
C177 O174 1.235 . S
O178 Co168 2.021 . S
O178 C175 1.238 . S
O179 Co173 2.052 . S
O179 C175 1.241 . S
O180 Co168 2.137 1_556 S
O180 C171 1.247 . S
O181 Co168 2.244 1_556 S
O181 C171 1.272 . S
O181 Co173 2.135 1_556 S
Co182 O183 2.217 . S
Co182 O184 2.091 . S
Co182 O186 2.004 . S
Co182 O192 2.021 1_556 S
Co182 O194 2.137 . S
Co182 O195 2.244 . S
O183 Co182 2.217 . S
O183 C190 1.243 . S
O184 Co182 2.091 . S
O184 C190 1.261 . S
C185 O194 1.247 . S
C185 O195 1.272 . S
O186 Co182 2.004 . S
O186 C191 1.259 . S
Co187 O188 2.060 . S
Co187 O193 2.052 . S
Co187 O195 2.135 1_554 S
O188 Co187 2.060 . S
O188 C191 1.234 1_554 S
C189 O192 1.238 . S
C189 O193 1.241 . S
C190 O183 1.243 . S
C190 O184 1.261 . S
C191 O186 1.259 . S
C191 O188 1.234 1_556 S
O192 Co182 2.021 1_554 S
O192 C189 1.238 . S
O193 Co187 2.052 . S
O193 C189 1.241 . S
O194 Co182 2.137 . S
O194 C185 1.247 . S
O195 Co182 2.244 . S
O195 C185 1.272 . S
O195 Co187 2.135 1_556 S
Co196 O197 2.216 . S
Co196 O198 2.091 . S
Co196 O200 2.004 . S
Co196 O206 2.021 . S
Co196 O208 2.137 . S
Co196 O209 2.244 . S
O197 Co196 2.216 . S
O197 C204 1.247 . S
O198 Co196 2.091 . S
O198 C204 1.261 . S
C199 O208 1.247 . S
C199 O209 1.272 . S
O200 Co196 2.004 . S
O200 C205 1.259 . S
Co201 O202 2.061 . S
Co201 O207 2.052 . S
Co201 O209 2.135 . S
O202 Co201 2.061 . S
O202 C205 1.235 . S
C203 O206 1.238 . S
C203 O207 1.241 . S
C204 O197 1.247 . S
C204 O198 1.261 . S
C205 O200 1.259 . S
C205 O202 1.235 . S
O206 Co196 2.021 . S
O206 C203 1.238 . S
O207 Co201 2.052 . S
O207 C203 1.241 . S
O208 Co196 2.137 . S
O208 C199 1.247 . S
O209 Co196 2.244 . S
O209 C199 1.272 . S
O209 Co201 2.135 . S
Co210 O211 2.216 . S
Co210 O212 2.091 . S
Co210 O214 2.004 . S
Co210 O220 2.021 . S
Co210 O222 2.137 . S
Co210 O223 2.244 . S
O211 Co210 2.216 . S
O211 C218 1.247 . S
O212 Co210 2.091 . S
O212 C218 1.261 . S
C213 O222 1.247 . S
C213 O223 1.272 . S
O214 Co210 2.004 . S
O214 C219 1.259 . S
Co215 O216 2.061 . S
Co215 O221 2.052 . S
Co215 O223 2.135 . S
O216 Co215 2.061 . S
O216 C219 1.235 . S
C217 O220 1.238 . S
C217 O221 1.241 . S
C218 O211 1.247 . S
C218 O212 1.261 . S
C219 O214 1.259 . S
C219 O216 1.235 . S
O220 Co210 2.021 . S
O220 C217 1.238 . S
O221 Co215 2.052 . S
O221 C217 1.241 . S
O222 Co210 2.137 . S
O222 C213 1.247 . S
O223 Co210 2.244 . S
O223 C213 1.272 . S
O223 Co215 2.135 . S
Co224 O225 2.216 . S
Co224 O226 2.091 . S
Co224 O228 2.004 . S
Co224 O234 2.021 . S
Co224 O236 2.137 . S
Co224 O237 2.244 . S
O225 Co224 2.216 . S
O225 C232 1.247 . S
O226 Co224 2.091 . S
O226 C232 1.261 . S
C227 O236 1.247 . S
C227 O237 1.272 . S
O228 Co224 2.004 . S
O228 C233 1.259 1_545 S
Co229 O230 2.061 1_545 S
Co229 O235 2.052 . S
Co229 O237 2.135 . S
O230 Co229 2.061 1_565 S
O230 C233 1.235 . S
C231 O234 1.238 . S
C231 O235 1.241 . S
C232 O225 1.247 . S
C232 O226 1.261 . S
C233 O228 1.259 1_565 S
C233 O230 1.235 . S
O234 Co224 2.021 . S
O234 C231 1.238 . S
O235 Co229 2.052 . S
O235 C231 1.241 . S
O236 Co224 2.137 . S
O236 C227 1.247 . S
O237 Co224 2.244 . S
O237 C227 1.272 . S
O237 Co229 2.135 . S
Co238 O239 2.216 . S
Co238 O240 2.091 . S
Co238 O242 2.004 . S
Co238 O248 2.021 . S
Co238 O250 2.137 . S
Co238 O251 2.244 . S
O239 Co238 2.216 . S
O239 C246 1.247 . S
O240 Co238 2.091 . S
O240 C246 1.261 . S
C241 O250 1.247 . S
C241 O251 1.272 . S
O242 Co238 2.004 . S
O242 C247 1.259 . S
Co243 O244 2.061 . S
Co243 O249 2.052 . S
Co243 O251 2.135 . S
O244 Co243 2.061 . S
O244 C247 1.235 . S
C245 O248 1.238 . S
C245 O249 1.241 . S
C246 O239 1.247 . S
C246 O240 1.261 . S
C247 O242 1.259 . S
C247 O244 1.235 . S
O248 Co238 2.021 . S
O248 C245 1.238 . S
O249 Co243 2.052 . S
O249 C245 1.241 . S
O250 Co238 2.137 . S
O250 C241 1.247 . S
O251 Co238 2.244 . S
O251 C241 1.272 . S
O251 Co243 2.135 . S
Co252 O253 2.216 . S
Co252 O254 2.091 . S
Co252 O256 2.004 . S
Co252 O262 2.021 . S
Co252 O264 2.137 . S
Co252 O265 2.244 . S
O253 Co252 2.216 . S
O253 C260 1.247 . S
O254 Co252 2.091 . S
O254 C260 1.261 . S
C255 O264 1.247 . S
C255 O265 1.272 . S
O256 Co252 2.004 . S
O256 C261 1.259 . S
Co257 O258 2.061 . S
Co257 O263 2.052 . S
Co257 O265 2.135 . S
O258 Co257 2.061 . S
O258 C261 1.235 . S
C259 O262 1.238 . S
C259 O263 1.241 . S
C260 O253 1.247 . S
C260 O254 1.261 . S
C261 O256 1.259 . S
C261 O258 1.235 . S
O262 Co252 2.021 . S
O262 C259 1.238 . S
O263 Co257 2.052 . S
O263 C259 1.241 . S
O264 Co252 2.137 . S
O264 C255 1.247 . S
O265 Co252 2.244 . S
O265 C255 1.272 . S
O265 Co257 2.135 . S
Co266 O267 2.216 1_545 S
Co266 O268 2.088 . S
Co266 O270 2.004 . S
Co266 O276 2.021 . S
Co266 O278 2.137 . S
Co266 O279 2.244 . S
O267 Co266 2.216 1_565 S
O267 C274 1.247 . S
O268 Co266 2.088 . S
O268 C274 1.264 1_545 S
C269 O278 1.247 . S
C269 O279 1.272 . S
O270 Co266 2.004 . S
O270 C275 1.259 . S
Co271 O272 2.061 . S
Co271 O277 2.052 . S
Co271 O279 2.135 . S
O272 Co271 2.061 . S
O272 C275 1.235 . S
C273 O276 1.238 . S
C273 O277 1.241 . S
C274 O267 1.247 . S
C274 O268 1.264 1_565 S
C275 O270 1.259 . S
C275 O272 1.235 . S
O276 Co266 2.021 . S
O276 C273 1.238 . S
O277 Co271 2.052 . S
O277 C273 1.241 . S
O278 Co266 2.137 . S
O278 C269 1.247 . S
O279 Co266 2.244 . S
O279 C269 1.272 . S
O279 Co271 2.135 . S
Co280 O281 2.216 . S
Co280 O282 2.091 . S
Co280 O284 2.005 . S
Co280 O290 2.021 . S
Co280 O292 2.137 1_554 S
Co280 O293 2.244 1_554 S
O281 Co280 2.216 . S
O281 C288 1.247 . S
O282 Co280 2.091 . S
O282 C288 1.261 . S
C283 O292 1.247 . S
C283 O293 1.272 . S
O284 Co280 2.005 . S
O284 C289 1.259 . S
Co285 O286 2.061 . S
Co285 O291 2.052 . S
Co285 O293 2.135 1_554 S
O286 Co285 2.061 . S
O286 C289 1.235 . S
C287 O290 1.238 . S
C287 O291 1.241 . S
C288 O281 1.247 . S
C288 O282 1.261 . S
C289 O284 1.259 . S
C289 O286 1.235 . S
O290 Co280 2.021 . S
O290 C287 1.238 . S
O291 Co285 2.052 . S
O291 C287 1.241 . S
O292 Co280 2.137 1_556 S
O292 C283 1.247 . S
O293 Co280 2.244 1_556 S
O293 C283 1.272 . S
O293 Co285 2.135 1_556 S
Co294 O295 2.216 . S
Co294 O296 2.091 . S
Co294 O298 2.004 . S
Co294 O304 2.021 . S
Co294 O306 2.137 . S
Co294 O307 2.244 . S
O295 Co294 2.216 . S
O295 C302 1.247 . S
O296 Co294 2.091 . S
O296 C302 1.261 . S
C297 O306 1.247 . S
C297 O307 1.272 . S
O298 Co294 2.004 . S
O298 C303 1.259 . S
Co299 O300 2.061 . S
Co299 O305 2.052 . S
Co299 O307 2.135 . S
O300 Co299 2.061 . S
O300 C303 1.235 . S
C301 O304 1.238 . S
C301 O305 1.241 . S
C302 O295 1.247 . S
C302 O296 1.261 . S
C303 O298 1.259 . S
C303 O300 1.235 . S
O304 Co294 2.021 . S
O304 C301 1.238 . S
O305 Co299 2.052 . S
O305 C301 1.241 . S
O306 Co294 2.137 . S
O306 C297 1.247 . S
O307 Co294 2.244 . S
O307 C297 1.272 . S
O307 Co299 2.135 . S
Co308 O309 2.216 . S
Co308 O310 2.091 . S
Co308 O312 2.004 . S
Co308 O318 2.021 . S
Co308 O320 2.137 . S
Co308 O321 2.244 . S
O309 Co308 2.216 . S
O309 C316 1.247 . S
O310 Co308 2.091 . S
O310 C316 1.261 . S
C311 O320 1.247 . S
C311 O321 1.272 . S
O312 Co308 2.004 . S
O312 C317 1.259 . S
Co313 O314 2.061 . S
Co313 O319 2.052 . S
Co313 O321 2.135 . S
O314 Co313 2.061 . S
O314 C317 1.235 . S
C315 O318 1.238 . S
C315 O319 1.241 . S
C316 O309 1.247 . S
C316 O310 1.261 . S
C317 O312 1.259 . S
C317 O314 1.235 . S
O318 Co308 2.021 . S
O318 C315 1.238 . S
O319 Co313 2.052 . S
O319 C315 1.241 . S
O320 Co308 2.137 . S
O320 C311 1.247 . S
O321 Co308 2.244 . S
O321 C311 1.272 . S
O321 Co313 2.135 . S
Co322 O323 2.216 . S
Co322 O324 2.091 . S
Co322 O326 2.004 . S
Co322 O332 2.021 . S
Co322 O334 2.137 . S
Co322 O335 2.244 . S
O323 Co322 2.216 . S
O323 C330 1.247 . S
O324 Co322 2.091 . S
O324 C330 1.261 . S
C325 O334 1.247 . S
C325 O335 1.272 . S
O326 Co322 2.004 . S
O326 C331 1.259 . S
Co327 O328 2.061 . S
Co327 O333 2.052 . S
Co327 O335 2.135 . S
O328 Co327 2.061 . S
O328 C331 1.235 . S
C329 O332 1.238 . S
C329 O333 1.241 . S
C330 O323 1.247 . S
C330 O324 1.261 . S
C331 O326 1.259 . S
C331 O328 1.235 . S
O332 Co322 2.021 . S
O332 C329 1.238 . S
O333 Co327 2.052 . S
O333 C329 1.241 . S
O334 Co322 2.137 . S
O334 C325 1.247 . S
O335 Co322 2.244 . S
O335 C325 1.272 . S
O335 Co327 2.135 . S
Dy336 O340 2.398 . S
Dy336 O341 2.491 1_556 S
Dy336 O342 2.403 . S
Dy336 O343 2.664 1_655 S
Dy336 O347 2.326 . S
Dy336 O351 2.310 1_656 S
Dy336 O352 2.351 1_546 S
C337 O348 1.185 . S
C337 O349 1.355 . S
C338 O340 1.185 . S
C338 O341 1.355 1_556 S
Dy339 O343 2.310 1_554 S
Dy339 O346 2.351 . S
Dy339 O348 2.398 . S
Dy339 O349 2.491 . S
Dy339 O350 2.403 . S
Dy339 O351 2.664 . S
Dy339 O353 2.326 1_545 S
O340 Dy336 2.398 . S
O340 C338 1.185 . S
O341 Dy336 2.491 1_554 S
O341 C338 1.355 1_554 S
O342 Dy336 2.403 . S
O342 C344 1.254 1_655 S
O343 Dy336 2.664 1_455 S
O343 Dy339 2.310 1_556 S
O343 C344 1.268 . S
C344 O342 1.254 1_455 S
C344 O343 1.268 . S
C345 O350 1.254 . S
C345 O351 1.268 . S
O346 Dy339 2.351 . S
O346 C354 1.258 . S
O347 Dy336 2.326 . S
O347 C354 1.260 1_656 S
O348 C337 1.185 . S
O348 Dy339 2.398 . S
O349 C337 1.355 . S
O349 Dy339 2.491 . S
O350 Dy339 2.403 . S
O350 C345 1.254 . S
O351 Dy336 2.310 1_454 S
O351 Dy339 2.664 . S
O351 C345 1.268 . S
O352 Dy336 2.351 1_564 S
O352 C355 1.249 1_655 S
O353 Dy339 2.326 1_565 S
O353 C355 1.267 . S
C354 O346 1.258 . S
C354 O347 1.260 1_454 S
C355 O352 1.249 1_455 S
C355 O353 1.267 . S
Dy356 O360 2.398 . S
Dy356 O361 2.491 . S
Dy356 O362 2.403 . S
Dy356 O363 2.664 . S
Dy356 O367 2.326 . S
Dy356 O371 2.310 . S
Dy356 O372 2.351 . S
C357 O368 1.185 . S
C357 O369 1.355 . S
C358 O360 1.185 . S
C358 O361 1.355 . S
Dy359 O363 2.310 . S
Dy359 O366 2.351 . S
Dy359 O368 2.398 . S
Dy359 O369 2.491 . S
Dy359 O370 2.403 . S
Dy359 O371 2.664 . S
Dy359 O373 2.326 . S
O360 Dy356 2.398 . S
O360 C358 1.185 . S
O361 Dy356 2.491 . S
O361 C358 1.355 . S
O362 Dy356 2.403 . S
O362 C364 1.254 . S
O363 Dy356 2.664 . S
O363 Dy359 2.310 . S
O363 C364 1.268 . S
C364 O362 1.254 . S
C364 O363 1.268 . S
C365 O370 1.254 . S
C365 O371 1.268 . S
O366 Dy359 2.351 . S
O366 C374 1.249 . S
O367 Dy356 2.326 . S
O367 C374 1.267 . S
O368 C357 1.185 . S
O368 Dy359 2.398 . S
O369 C357 1.355 . S
O369 Dy359 2.491 . S
O370 Dy359 2.403 . S
O370 C365 1.254 . S
O371 Dy356 2.310 . S
O371 Dy359 2.664 . S
O371 C365 1.268 . S
O372 Dy356 2.351 . S
O372 C375 1.249 . S
O373 Dy359 2.326 . S
O373 C375 1.267 . S
C374 O366 1.249 . S
C374 O367 1.267 . S
C375 O372 1.249 . S
C375 O373 1.267 . S
Dy376 O380 2.398 . S
Dy376 O381 2.491 1_545 S
Dy376 O382 2.403 . S
Dy376 O383 2.664 . S
Dy376 O387 2.326 1_545 S
Dy376 O391 2.310 . S
Dy376 O392 2.351 . S
C377 O388 1.185 . S
C377 O389 1.355 . S
C378 O380 1.185 1_565 S
C378 O381 1.355 . S
Dy379 O383 2.310 . S
Dy379 O386 2.351 1_545 S
Dy379 O388 2.398 . S
Dy379 O389 2.491 . S
Dy379 O390 2.403 . S
Dy379 O391 2.664 . S
Dy379 O393 2.326 . S
O380 Dy376 2.398 . S
O380 C378 1.185 1_545 S
O381 Dy376 2.491 1_565 S
O381 C378 1.355 . S
O382 Dy376 2.403 . S
O382 C384 1.254 . S
O383 Dy376 2.664 . S
O383 Dy379 2.310 . S
O383 C384 1.268 . S
C384 O382 1.254 . S
C384 O383 1.268 . S
C385 O390 1.254 . S
C385 O391 1.268 . S
O386 Dy379 2.351 1_565 S
O386 C394 1.249 . S
O387 Dy376 2.326 1_565 S
O387 C394 1.267 . S
O388 C377 1.185 . S
O388 Dy379 2.398 . S
O389 C377 1.355 . S
O389 Dy379 2.491 . S
O390 Dy379 2.403 . S
O390 C385 1.254 . S
O391 Dy376 2.310 . S
O391 Dy379 2.664 . S
O391 C385 1.268 . S
O392 Dy376 2.351 . S
O392 C395 1.249 . S
O393 Dy379 2.326 . S
O393 C395 1.267 . S
C394 O386 1.249 . S
C394 O387 1.267 . S
C395 O392 1.249 . S
C395 O393 1.267 . S
Dy396 O400 2.398 . S
Dy396 O401 2.491 . S
Dy396 O402 2.403 . S
Dy396 O403 2.664 . S
Dy396 O407 2.326 . S
Dy396 O411 2.310 . S
Dy396 O412 2.351 . S
C397 O408 1.185 . S
C397 O409 1.355 . S
C398 O400 1.185 . S
C398 O401 1.355 . S
Dy399 O403 2.310 . S
Dy399 O406 2.351 . S
Dy399 O408 2.398 . S
Dy399 O409 2.491 . S
Dy399 O410 2.403 . S
Dy399 O411 2.664 . S
Dy399 O413 2.326 . S
O400 Dy396 2.398 . S
O400 C398 1.185 . S
O401 Dy396 2.491 . S
O401 C398 1.355 . S
O402 Dy396 2.403 . S
O402 C404 1.254 . S
O403 Dy396 2.664 . S
O403 Dy399 2.310 . S
O403 C404 1.268 . S
C404 O402 1.254 . S
C404 O403 1.268 . S
C405 O410 1.254 . S
C405 O411 1.268 . S
O406 Dy399 2.351 . S
O406 C414 1.249 . S
O407 Dy396 2.326 . S
O407 C414 1.267 . S
O408 C397 1.185 . S
O408 Dy399 2.398 . S
O409 C397 1.355 . S
O409 Dy399 2.491 . S
O410 Dy399 2.403 . S
O410 C405 1.254 . S
O411 Dy396 2.310 . S
O411 Dy399 2.664 . S
O411 C405 1.268 . S
O412 Dy396 2.351 . S
O412 C415 1.249 . S
O413 Dy399 2.326 . S
O413 C415 1.267 . S
C414 O406 1.249 . S
C414 O407 1.267 . S
C415 O412 1.249 . S
C415 O413 1.267 . S
Dy416 O420 2.398 . S
Dy416 O421 2.491 1_455 S
Dy416 O422 2.403 . S
Dy416 O423 2.664 . S
Dy416 O427 2.326 . S
Dy416 O431 2.310 1_455 S
Dy416 O432 2.351 1_545 S
C417 O428 1.185 . S
C417 O429 1.355 . S
C418 O420 1.185 1_655 S
C418 O421 1.355 . S
Dy419 O423 2.310 . S
Dy419 O426 2.351 . S
Dy419 O428 2.398 . S
Dy419 O429 2.491 . S
Dy419 O430 2.403 1_455 S
Dy419 O431 2.664 1_455 S
Dy419 O433 2.326 1_545 S
O420 Dy416 2.398 . S
O420 C418 1.185 1_455 S
O421 Dy416 2.491 1_655 S
O421 C418 1.355 . S
O422 Dy416 2.403 . S
O422 C424 1.254 . S
O423 Dy416 2.664 . S
O423 Dy419 2.310 . S
O423 C424 1.268 . S
C424 O422 1.254 . S
C424 O423 1.268 . S
C425 O430 1.254 . S
C425 O431 1.268 . S
O426 Dy419 2.351 . S
O426 C434 1.249 . S
O427 Dy416 2.326 . S
O427 C434 1.267 . S
O428 C417 1.185 . S
O428 Dy419 2.398 . S
O429 C417 1.355 . S
O429 Dy419 2.491 . S
O430 Dy419 2.403 1_655 S
O430 C425 1.254 . S
O431 Dy416 2.310 1_655 S
O431 Dy419 2.664 1_655 S
O431 C425 1.268 . S
O432 Dy416 2.351 1_565 S
O432 C435 1.249 . S
O433 Dy419 2.326 1_565 S
O433 C435 1.267 . S
C434 O426 1.249 . S
C434 O427 1.267 . S
C435 O432 1.249 . S
C435 O433 1.267 . S
Dy436 O440 2.398 . S
Dy436 O441 2.491 . S
Dy436 O442 2.403 . S
Dy436 O443 2.664 . S
Dy436 O447 2.326 . S
Dy436 O451 2.310 . S
Dy436 O452 2.351 . S
C437 O448 1.185 . S
C437 O449 1.355 . S
C438 O440 1.185 . S
C438 O441 1.355 . S
Dy439 O443 2.310 . S
Dy439 O446 2.351 . S
Dy439 O448 2.398 . S
Dy439 O449 2.491 . S
Dy439 O450 2.403 . S
Dy439 O451 2.664 . S
Dy439 O453 2.326 . S
O440 Dy436 2.398 . S
O440 C438 1.185 . S
O441 Dy436 2.491 . S
O441 C438 1.355 . S
O442 Dy436 2.403 . S
O442 C444 1.254 . S
O443 Dy436 2.664 . S
O443 Dy439 2.310 . S
O443 C444 1.268 . S
C444 O442 1.254 . S
C444 O443 1.268 . S
C445 O450 1.254 . S
C445 O451 1.268 . S
O446 Dy439 2.351 . S
O446 C454 1.249 . S
O447 Dy436 2.326 . S
O447 C454 1.267 . S
O448 C437 1.185 . S
O448 Dy439 2.398 . S
O449 C437 1.355 . S
O449 Dy439 2.491 . S
O450 Dy439 2.403 . S
O450 C445 1.254 . S
O451 Dy436 2.310 . S
O451 Dy439 2.664 . S
O451 C445 1.268 . S
O452 Dy436 2.351 . S
O452 C455 1.249 . S
O453 Dy439 2.326 . S
O453 C455 1.267 . S
C454 O446 1.249 . S
C454 O447 1.267 . S
C455 O452 1.249 . S
C455 O453 1.267 . S
Dy456 O460 2.398 1_545 S
Dy456 O461 2.491 . S
Dy456 O462 2.403 1_545 S
Dy456 O463 2.665 1_554 S
Dy456 O467 2.326 1_545 S
Dy456 O471 2.310 . S
Dy456 O472 2.351 . S
C457 O468 1.185 . S
C457 O469 1.355 . S
C458 O460 1.185 1_545 S
C458 O461 1.355 . S
Dy459 O463 2.314 . S
Dy459 O466 2.351 . S
Dy459 O468 2.398 . S
Dy459 O469 2.491 . S
Dy459 O470 2.403 . S
Dy459 O471 2.664 1_556 S
Dy459 O473 2.326 . S
O460 Dy456 2.398 1_565 S
O460 C458 1.185 1_565 S
O461 Dy456 2.491 . S
O461 C458 1.355 . S
O462 Dy456 2.403 1_565 S
O462 C464 1.254 . S
O463 Dy456 2.665 1_556 S
O463 Dy459 2.314 . S
O463 C464 1.263 1_546 S
C464 O462 1.254 . S
C464 O463 1.263 1_564 S
C465 O470 1.254 1_554 S
C465 O471 1.268 . S
O466 Dy459 2.351 . S
O466 C474 1.249 1_556 S
O467 Dy456 2.326 1_565 S
O467 C474 1.266 1_565 S
O468 C457 1.185 . S
O468 Dy459 2.398 . S
O469 C457 1.355 . S
O469 Dy459 2.491 . S
O470 Dy459 2.403 . S
O470 C465 1.254 1_556 S
O471 Dy456 2.310 . S
O471 Dy459 2.664 1_554 S
O471 C465 1.268 . S
O472 Dy456 2.351 . S
O472 C475 1.249 . S
O473 Dy459 2.326 . S
O473 C475 1.267 1_556 S
C474 O466 1.249 1_554 S
C474 O467 1.266 1_545 S
C475 O472 1.249 . S
C475 O473 1.267 1_554 S
Dy476 O480 2.398 . S
Dy476 O481 2.491 . S
Dy476 O482 2.403 . S
Dy476 O483 2.664 . S
Dy476 O487 2.326 . S
Dy476 O491 2.310 . S
Dy476 O492 2.351 . S
C477 O488 1.185 . S
C477 O489 1.355 . S
C478 O480 1.185 . S
C478 O481 1.355 . S
Dy479 O483 2.310 . S
Dy479 O486 2.351 . S
Dy479 O488 2.398 . S
Dy479 O489 2.491 . S
Dy479 O490 2.403 . S
Dy479 O491 2.664 . S
Dy479 O493 2.326 . S
O480 Dy476 2.398 . S
O480 C478 1.185 . S
O481 Dy476 2.491 . S
O481 C478 1.355 . S
O482 Dy476 2.403 . S
O482 C484 1.254 . S
O483 Dy476 2.664 . S
O483 Dy479 2.310 . S
O483 C484 1.268 . S
C484 O482 1.254 . S
C484 O483 1.268 . S
C485 O490 1.254 . S
C485 O491 1.268 . S
O486 Dy479 2.351 . S
O486 C494 1.249 . S
O487 Dy476 2.326 . S
O487 C494 1.267 . S
O488 C477 1.185 . S
O488 Dy479 2.398 . S
O489 C477 1.355 . S
O489 Dy479 2.491 . S
O490 Dy479 2.403 . S
O490 C485 1.254 . S
O491 Dy476 2.310 . S
O491 Dy479 2.664 . S
O491 C485 1.268 . S
O492 Dy476 2.351 . S
O492 C495 1.249 . S
O493 Dy479 2.326 . S
O493 C495 1.267 . S
C494 O486 1.249 . S
C494 O487 1.267 . S
C495 O492 1.249 . S
C495 O493 1.267 . S
Dy496 O500 2.398 . S
Dy496 O501 2.491 . S
Dy496 O502 2.403 . S
Dy496 O503 2.664 1_556 S
Dy496 O507 2.326 . S
Dy496 O511 2.310 1_556 S
Dy496 O512 2.334 1_556 S
C497 O508 1.185 . S
C497 O509 1.355 . S
C498 O500 1.185 . S
C498 O501 1.355 . S
Dy499 O503 2.310 . S
Dy499 O506 2.351 . S
Dy499 O508 2.398 . S
Dy499 O509 2.491 . S
Dy499 O510 2.403 . S
Dy499 O511 2.664 . S
Dy499 O513 2.326 . S
O500 Dy496 2.398 . S
O500 C498 1.185 . S
O501 Dy496 2.491 . S
O501 C498 1.355 . S
O502 Dy496 2.403 . S
O502 C504 1.254 . S
O503 Dy496 2.664 1_554 S
O503 Dy499 2.310 . S
O503 C504 1.268 1_554 S
C504 O502 1.254 . S
C504 O503 1.268 1_556 S
C505 O510 1.254 . S
C505 O511 1.268 . S
O506 Dy499 2.351 . S
O506 C514 1.249 1_554 S
O507 Dy496 2.326 . S
O507 C514 1.267 . S
O508 C497 1.185 . S
O508 Dy499 2.398 . S
O509 C497 1.355 . S
O509 Dy499 2.491 . S
O510 Dy499 2.403 . S
O510 C505 1.254 . S
O511 Dy496 2.310 1_554 S
O511 Dy499 2.664 . S
O511 C505 1.268 . S
O512 Dy496 2.334 1_554 S
O512 C515 1.274 . S
O513 Dy499 2.326 . S
O513 C515 1.267 . S
C514 O506 1.249 1_556 S
C514 O507 1.267 . S
C515 O512 1.274 . S
C515 O513 1.267 . S
Dy516 O520 2.398 . S
Dy516 O521 2.491 . S
Dy516 O522 2.403 . S
Dy516 O523 2.664 . S
Dy516 O527 2.326 . S
Dy516 O531 2.310 . S
Dy516 O532 2.351 . S
C517 O528 1.185 . S
C517 O529 1.355 . S
C518 O520 1.185 . S
C518 O521 1.355 . S
Dy519 O523 2.310 . S
Dy519 O526 2.351 . S
Dy519 O528 2.398 . S
Dy519 O529 2.491 . S
Dy519 O530 2.403 . S
Dy519 O531 2.664 . S
Dy519 O533 2.326 . S
O520 Dy516 2.398 . S
O520 C518 1.185 . S
O521 Dy516 2.491 . S
O521 C518 1.355 . S
O522 Dy516 2.403 . S
O522 C524 1.254 . S
O523 Dy516 2.664 . S
O523 Dy519 2.310 . S
O523 C524 1.268 . S
C524 O522 1.254 . S
C524 O523 1.268 . S
C525 O530 1.254 . S
C525 O531 1.268 . S
O526 Dy519 2.351 . S
O526 C534 1.249 . S
O527 Dy516 2.326 . S
O527 C534 1.267 . S
O528 C517 1.185 . S
O528 Dy519 2.398 . S
O529 C517 1.355 . S
O529 Dy519 2.491 . S
O530 Dy519 2.403 . S
O530 C525 1.254 . S
O531 Dy516 2.310 . S
O531 Dy519 2.664 . S
O531 C525 1.268 . S
O532 Dy516 2.351 . S
O532 C535 1.249 . S
O533 Dy519 2.326 . S
O533 C535 1.267 . S
C534 O526 1.249 . S
C534 O527 1.267 . S
C535 O532 1.249 . S
C535 O533 1.267 . S
Dy536 O540 2.398 1_455 S
Dy536 O541 2.491 1_455 S
Dy536 O542 2.403 . S
Dy536 O543 2.664 . S
Dy536 O547 2.326 1_455 S
Dy536 O551 2.310 . S
Dy536 O552 2.351 . S
C537 O548 1.185 . S
C537 O549 1.355 . S
C538 O540 1.185 . S
C538 O541 1.355 . S
Dy539 O543 2.310 . S
Dy539 O546 2.351 1_455 S
Dy539 O548 2.398 . S
Dy539 O549 2.491 . S
Dy539 O550 2.403 . S
Dy539 O551 2.664 . S
Dy539 O553 2.326 . S
O540 Dy536 2.398 1_655 S
O540 C538 1.185 . S
O541 Dy536 2.491 1_655 S
O541 C538 1.355 . S
O542 Dy536 2.403 . S
O542 C544 1.254 . S
O543 Dy536 2.664 . S
O543 Dy539 2.310 . S
O543 C544 1.268 . S
C544 O542 1.254 . S
C544 O543 1.268 . S
C545 O550 1.254 . S
C545 O551 1.268 . S
O546 Dy539 2.351 1_655 S
O546 C554 1.249 . S
O547 Dy536 2.326 1_655 S
O547 C554 1.267 . S
O548 C537 1.185 . S
O548 Dy539 2.398 . S
O549 C537 1.355 . S
O549 Dy539 2.491 . S
O550 Dy539 2.403 . S
O550 C545 1.254 . S
O551 Dy536 2.310 . S
O551 Dy539 2.664 . S
O551 C545 1.268 . S
O552 Dy536 2.351 . S
O552 C555 1.249 . S
O553 Dy539 2.326 . S
O553 C555 1.267 . S
C554 O546 1.249 . S
C554 O547 1.267 . S
C555 O552 1.249 . S
C555 O553 1.267 . S
Dy556 O560 2.398 . S
Dy556 O561 2.491 . S
Dy556 O562 2.403 . S
Dy556 O563 2.664 . S
Dy556 O567 2.326 . S
Dy556 O571 2.310 . S
Dy556 O572 2.351 . S
C557 O568 1.185 . S
C557 O569 1.355 . S
C558 O560 1.185 . S
C558 O561 1.355 . S
Dy559 O563 2.310 . S
Dy559 O566 2.351 . S
Dy559 O568 2.398 . S
Dy559 O569 2.491 . S
Dy559 O570 2.403 . S
Dy559 O571 2.664 . S
Dy559 O573 2.326 . S
O560 Dy556 2.398 . S
O560 C558 1.185 . S
O561 Dy556 2.491 . S
O561 C558 1.355 . S
O562 Dy556 2.403 . S
O562 C564 1.254 . S
O563 Dy556 2.664 . S
O563 Dy559 2.310 . S
O563 C564 1.268 . S
C564 O562 1.254 . S
C564 O563 1.268 . S
C565 O570 1.254 . S
C565 O571 1.268 . S
O566 Dy559 2.351 . S
O566 C574 1.249 . S
O567 Dy556 2.326 . S
O567 C574 1.267 . S
O568 C557 1.185 . S
O568 Dy559 2.398 . S
O569 C557 1.355 . S
O569 Dy559 2.491 . S
O570 Dy559 2.403 . S
O570 C565 1.254 . S
O571 Dy556 2.310 . S
O571 Dy559 2.664 . S
O571 C565 1.268 . S
O572 Dy556 2.351 . S
O572 C575 1.249 . S
O573 Dy559 2.326 . S
O573 C575 1.267 . S
C574 O566 1.249 . S
C574 O567 1.267 . S
C575 O572 1.249 . S
C575 O573 1.267 . S
Dy576 O580 2.398 . S
Dy576 O581 2.491 . S
Dy576 O582 2.403 . S
Dy576 O583 2.664 . S
Dy576 O587 2.326 . S
Dy576 O591 2.310 . S
Dy576 O592 2.351 . S
C577 O588 1.185 . S
C577 O589 1.355 . S
C578 O580 1.185 . S
C578 O581 1.355 . S
Dy579 O583 2.310 . S
Dy579 O586 2.351 . S
Dy579 O588 2.398 . S
Dy579 O589 2.491 . S
Dy579 O590 2.403 . S
Dy579 O591 2.664 . S
Dy579 O593 2.326 . S
O580 Dy576 2.398 . S
O580 C578 1.185 . S
O581 Dy576 2.491 . S
O581 C578 1.355 . S
O582 Dy576 2.403 . S
O582 C584 1.254 . S
O583 Dy576 2.664 . S
O583 Dy579 2.310 . S
O583 C584 1.268 . S
C584 O582 1.254 . S
C584 O583 1.268 . S
C585 O590 1.254 . S
C585 O591 1.268 . S
O586 Dy579 2.351 . S
O586 C594 1.249 . S
O587 Dy576 2.326 . S
O587 C594 1.267 . S
O588 C577 1.185 . S
O588 Dy579 2.398 . S
O589 C577 1.355 . S
O589 Dy579 2.491 . S
O590 Dy579 2.403 . S
O590 C585 1.254 . S
O591 Dy576 2.310 . S
O591 Dy579 2.664 . S
O591 C585 1.268 . S
O592 Dy576 2.351 . S
O592 C595 1.249 . S
O593 Dy579 2.326 . S
O593 C595 1.267 . S
C594 O586 1.249 . S
C594 O587 1.267 . S
C595 O592 1.249 . S
C595 O593 1.267 . S
Dy596 O600 2.398 . S
Dy596 O601 2.491 . S
Dy596 O602 2.403 . S
Dy596 O603 2.664 . S
Dy596 O607 2.326 . S
Dy596 O611 2.310 . S
Dy596 O612 2.351 . S
C597 O608 1.185 . S
C597 O609 1.355 . S
C598 O600 1.185 . S
C598 O601 1.355 . S
Dy599 O603 2.310 . S
Dy599 O606 2.351 . S
Dy599 O608 2.398 . S
Dy599 O609 2.491 . S
Dy599 O610 2.403 . S
Dy599 O611 2.664 . S
Dy599 O613 2.326 . S
O600 Dy596 2.398 . S
O600 C598 1.185 . S
O601 Dy596 2.491 . S
O601 C598 1.355 . S
O602 Dy596 2.403 . S
O602 C604 1.254 . S
O603 Dy596 2.664 . S
O603 Dy599 2.310 . S
O603 C604 1.268 . S
C604 O602 1.254 . S
C604 O603 1.268 . S
C605 O610 1.254 . S
C605 O611 1.268 . S
O606 Dy599 2.351 . S
O606 C614 1.249 . S
O607 Dy596 2.326 . S
O607 C614 1.267 . S
O608 C597 1.185 . S
O608 Dy599 2.398 . S
O609 C597 1.355 . S
O609 Dy599 2.491 . S
O610 Dy599 2.403 . S
O610 C605 1.254 . S
O611 Dy596 2.310 . S
O611 Dy599 2.664 . S
O611 C605 1.268 . S
O612 Dy596 2.351 . S
O612 C615 1.249 . S
O613 Dy599 2.326 . S
O613 C615 1.267 . S
C614 O606 1.249 . S
C614 O607 1.267 . S
C615 O612 1.249 . S
C615 O613 1.267 . S
Dy616 O620 2.398 . S
Dy616 O621 2.491 . S
Dy616 O622 2.403 . S
Dy616 O623 2.664 . S
Dy616 O627 2.326 . S
Dy616 O631 2.310 . S
Dy616 O632 2.351 . S
C617 O628 1.185 . S
C617 O629 1.355 . S
C618 O620 1.185 . S
C618 O621 1.355 . S
Dy619 O623 2.310 . S
Dy619 O626 2.351 . S
Dy619 O628 2.398 . S
Dy619 O629 2.491 . S
Dy619 O630 2.403 . S
Dy619 O631 2.664 . S
Dy619 O633 2.326 . S
O620 Dy616 2.398 . S
O620 C618 1.185 . S
O621 Dy616 2.491 . S
O621 C618 1.355 . S
O622 Dy616 2.403 . S
O622 C624 1.254 . S
O623 Dy616 2.664 . S
O623 Dy619 2.310 . S
O623 C624 1.268 . S
C624 O622 1.254 . S
C624 O623 1.268 . S
C625 O630 1.254 . S
C625 O631 1.268 . S
O626 Dy619 2.351 . S
O626 C634 1.249 . S
O627 Dy616 2.326 . S
O627 C634 1.267 . S
O628 C617 1.185 . S
O628 Dy619 2.398 . S
O629 C617 1.355 . S
O629 Dy619 2.491 . S
O630 Dy619 2.403 . S
O630 C625 1.254 . S
O631 Dy616 2.310 . S
O631 Dy619 2.664 . S
O631 C625 1.268 . S
O632 Dy616 2.351 . S
O632 C635 1.249 . S
O633 Dy619 2.326 . S
O633 C635 1.267 . S
C634 O626 1.249 . S
C634 O627 1.267 . S
C635 O632 1.249 . S
C635 O633 1.267 . S
Dy636 O640 2.398 1_554 S
Dy636 O641 2.491 . S
Dy636 O642 2.403 1_554 S
Dy636 O643 2.673 1_554 S
Dy636 O647 2.326 1_554 S
Dy636 O651 2.310 . S
Dy636 O652 2.351 . S
C637 O648 1.185 . S
C637 O649 1.355 . S
C638 O640 1.185 . S
C638 O641 1.355 1_556 S
Dy639 O643 2.304 1_654 S
Dy639 O646 2.351 . S
Dy639 O648 2.398 . S
Dy639 O649 2.491 . S
Dy639 O650 2.403 . S
Dy639 O651 2.664 1_655 S
Dy639 O653 2.330 . S
O640 Dy636 2.398 1_556 S
O640 C638 1.185 . S
O641 Dy636 2.491 . S
O641 C638 1.355 1_554 S
O642 Dy636 2.403 1_556 S
O642 C644 1.254 . S
O643 Dy636 2.673 1_556 S
O643 Dy639 2.304 1_456 S
O643 C644 1.271 . S
C644 O642 1.254 . S
C644 O643 1.271 . S
C645 O650 1.254 1_455 S
C645 O651 1.268 . S
O646 Dy639 2.351 . S
O646 C654 1.249 1_654 S
O647 Dy636 2.326 1_556 S
O647 C654 1.267 . S
O648 C637 1.185 . S
O648 Dy639 2.398 . S
O649 C637 1.355 . S
O649 Dy639 2.491 . S
O650 Dy639 2.403 . S
O650 C645 1.254 1_655 S
O651 Dy636 2.310 . S
O651 Dy639 2.664 1_455 S
O651 C645 1.268 . S
O652 Dy636 2.351 . S
O652 C655 1.249 . S
O653 Dy639 2.330 . S
O653 C655 1.259 1_655 S
C654 O646 1.249 1_456 S
C654 O647 1.267 . S
C655 O652 1.249 . S
C655 O653 1.259 1_455 S
H656 C668 0.930 . S
H657 C670 0.930 . S
H658 C671 0.930 . S
H659 C675 0.959 . S
H660 C675 0.959 . S
H661 C675 0.961 . S
H662 C676 0.960 . S
H663 C676 0.961 1_554 S
H664 C676 0.959 . S
H665 C679 0.929 . S
H666 C680 0.931 . S
H667 C682 0.893 1_554 S
C668 H656 0.930 . S
C668 C669 1.399 . S
C668 C673 1.398 . S
C669 C668 1.399 . S
C669 C670 1.367 1_655 S
C670 H657 0.930 . S
C670 C669 1.367 1_455 S
C670 C671 1.398 . S
C671 H658 0.930 . S
C671 C670 1.398 . S
C671 C672 1.390 . S
C672 C671 1.390 . S
C672 C673 1.395 1_455 S
C672 C678 1.465 . S
C673 C668 1.398 . S
C673 C672 1.395 1_655 S
C673 C674 1.516 . S
C674 C673 1.516 . S
C674 C675 1.502 1_656 S
C674 C676 1.561 . S
C674 C677 1.526 1_655 S
C675 H659 0.959 . S
C675 H660 0.959 . S
C675 H661 0.961 . S
C675 C674 1.502 1_454 S
C676 H662 0.960 . S
C676 H663 0.961 1_556 S
C676 H664 0.959 . S
C676 C674 1.561 . S
C677 C674 1.526 1_455 S
C677 C678 1.396 . S
C677 C682 1.417 . S
C678 C672 1.465 . S
C678 C677 1.396 . S
C678 C679 1.399 . S
C679 H665 0.929 . S
C679 C678 1.399 . S
C679 C680 1.385 . S
C680 H666 0.931 . S
C680 C679 1.385 . S
C680 C681 1.389 . S
C681 C680 1.389 . S
C681 C682 1.397 . S
C682 H667 0.893 1_556 S
C682 C677 1.417 . S
C682 C681 1.397 . S
H683 C695 0.930 . S
H684 C697 0.930 . S
H685 C698 0.930 . S
H686 C702 0.959 . S
H687 C702 0.959 . S
H688 C702 0.961 . S
H689 C703 0.960 . S
H690 C703 0.961 . S
H691 C703 0.959 . S
H692 C706 0.929 . S
H693 C707 0.931 . S
H694 C709 0.930 . S
C695 H683 0.930 . S
C695 C696 1.399 . S
C695 C700 1.399 . S
C696 C695 1.399 . S
C696 C697 1.376 . S
C697 H684 0.930 . S
C697 C696 1.376 . S
C697 C698 1.388 . S
C698 H685 0.930 . S
C698 C697 1.388 . S
C698 C699 1.390 . S
C699 C698 1.390 . S
C699 C700 1.394 . S
C699 C705 1.465 . S
C700 C695 1.399 . S
C700 C699 1.394 . S
C700 C701 1.516 . S
C701 C700 1.516 . S
C701 C702 1.502 . S
C701 C703 1.561 . S
C701 C704 1.526 . S
C702 H686 0.959 . S
C702 H687 0.959 . S
C702 H688 0.961 . S
C702 C701 1.502 . S
C703 H689 0.960 . S
C703 H690 0.961 . S
C703 H691 0.959 . S
C703 C701 1.561 . S
C704 C701 1.526 . S
C704 C705 1.396 . S
C704 C709 1.390 . S
C705 C699 1.465 . S
C705 C704 1.396 . S
C705 C706 1.399 . S
C706 H692 0.929 . S
C706 C705 1.399 . S
C706 C707 1.385 . S
C707 H693 0.931 . S
C707 C706 1.385 . S
C707 C708 1.389 . S
C708 C707 1.389 . S
C708 C709 1.387 . S
C709 H694 0.930 . S
C709 C704 1.390 . S
C709 C708 1.387 . S
H710 C722 0.930 . S
H711 C724 0.930 . S
H712 C725 0.930 . S
H713 C729 0.959 . S
H714 C729 0.959 . S
H715 C729 0.961 . S
H716 C730 0.960 . S
H717 C730 0.961 . S
H718 C730 0.959 . S
H719 C733 0.929 . S
H720 C734 0.931 . S
H721 C736 0.930 . S
C722 H710 0.930 . S
C722 C723 1.399 . S
C722 C727 1.399 . S
C723 C722 1.399 . S
C723 C724 1.376 . S
C724 H711 0.930 . S
C724 C723 1.376 . S
C724 C725 1.388 . S
C725 H712 0.930 . S
C725 C724 1.388 . S
C725 C726 1.390 . S
C726 C725 1.390 . S
C726 C727 1.394 . S
C726 C732 1.465 . S
C727 C722 1.399 . S
C727 C726 1.394 . S
C727 C728 1.516 . S
C728 C727 1.516 . S
C728 C729 1.502 . S
C728 C730 1.561 . S
C728 C731 1.526 . S
C729 H713 0.959 . S
C729 H714 0.959 . S
C729 H715 0.961 . S
C729 C728 1.502 . S
C730 H716 0.960 . S
C730 H717 0.961 . S
C730 H718 0.959 . S
C730 C728 1.561 . S
C731 C728 1.526 . S
C731 C732 1.396 . S
C731 C736 1.390 . S
C732 C726 1.465 . S
C732 C731 1.396 . S
C732 C733 1.399 . S
C733 H719 0.929 . S
C733 C732 1.399 . S
C733 C734 1.385 . S
C734 H720 0.931 . S
C734 C733 1.385 . S
C734 C735 1.389 . S
C735 C734 1.389 . S
C735 C736 1.387 . S
C736 H721 0.930 . S
C736 C731 1.390 . S
C736 C735 1.387 . S
H737 C749 0.930 . S
H738 C751 0.930 . S
H739 C752 0.930 . S
H740 C756 0.959 . S
H741 C756 0.959 . S
H742 C756 0.961 . S
H743 C757 0.960 . S
H744 C757 0.961 . S
H745 C757 0.959 . S
H746 C760 0.929 . S
H747 C761 0.931 . S
H748 C763 0.930 . S
C749 H737 0.930 . S
C749 C750 1.399 . S
C749 C754 1.399 . S
C750 C749 1.399 . S
C750 C751 1.376 . S
C751 H738 0.930 . S
C751 C750 1.376 . S
C751 C752 1.388 . S
C752 H739 0.930 . S
C752 C751 1.388 . S
C752 C753 1.390 . S
C753 C752 1.390 . S
C753 C754 1.394 . S
C753 C759 1.465 . S
C754 C749 1.399 . S
C754 C753 1.394 . S
C754 C755 1.516 . S
C755 C754 1.516 . S
C755 C756 1.502 . S
C755 C757 1.561 . S
C755 C758 1.526 . S
C756 H740 0.959 . S
C756 H741 0.959 . S
C756 H742 0.961 . S
C756 C755 1.502 . S
C757 H743 0.960 . S
C757 H744 0.961 . S
C757 H745 0.959 . S
C757 C755 1.561 . S
C758 C755 1.526 . S
C758 C759 1.396 . S
C758 C763 1.390 . S
C759 C753 1.465 . S
C759 C758 1.396 . S
C759 C760 1.399 . S
C760 H746 0.929 . S
C760 C759 1.399 . S
C760 C761 1.385 . S
C761 H747 0.931 . S
C761 C760 1.385 . S
C761 C762 1.389 . S
C762 C761 1.389 . S
C762 C763 1.387 . S
C763 H748 0.930 . S
C763 C758 1.390 . S
C763 C762 1.387 . S
H764 C776 0.930 . S
H765 C778 0.930 . S
H766 C779 0.930 . S
H767 C783 0.959 . S
H768 C783 0.959 . S
H769 C783 0.961 . S
H770 C784 0.960 . S
H771 C784 0.961 . S
H772 C784 0.959 . S
H773 C787 0.929 . S
H774 C788 0.931 . S
H775 C790 0.930 . S
C776 H764 0.930 . S
C776 C777 1.399 . S
C776 C781 1.399 . S
C777 C776 1.399 . S
C777 C778 1.376 . S
C778 H765 0.930 . S
C778 C777 1.376 . S
C778 C779 1.388 . S
C779 H766 0.930 . S
C779 C778 1.388 . S
C779 C780 1.390 . S
C780 C779 1.390 . S
C780 C781 1.394 . S
C780 C786 1.465 . S
C781 C776 1.399 . S
C781 C780 1.394 . S
C781 C782 1.516 . S
C782 C781 1.516 . S
C782 C783 1.502 . S
C782 C784 1.561 1_455 S
C782 C785 1.526 . S
C783 H767 0.959 . S
C783 H768 0.959 . S
C783 H769 0.961 . S
C783 C782 1.502 . S
C784 H770 0.960 . S
C784 H771 0.961 . S
C784 H772 0.959 . S
C784 C782 1.561 1_655 S
C785 C782 1.526 . S
C785 C786 1.396 . S
C785 C790 1.390 . S
C786 C780 1.465 . S
C786 C785 1.396 . S
C786 C787 1.399 . S
C787 H773 0.929 . S
C787 C786 1.399 . S
C787 C788 1.385 . S
C788 H774 0.931 . S
C788 C787 1.385 . S
C788 C789 1.389 . S
C789 C788 1.389 . S
C789 C790 1.387 . S
C790 H775 0.930 . S
C790 C785 1.390 . S
C790 C789 1.387 . S
H791 C803 0.930 . S
H792 C805 0.930 . S
H793 C806 0.930 . S
H794 C810 0.959 . S
H795 C810 0.959 . S
H796 C810 0.961 . S
H797 C811 0.960 . S
H798 C811 0.961 . S
H799 C811 0.959 . S
H800 C814 0.929 . S
H801 C815 0.931 . S
H802 C817 0.930 . S
C803 H791 0.930 . S
C803 C804 1.399 . S
C803 C808 1.399 . S
C804 C803 1.399 . S
C804 C805 1.376 . S
C805 H792 0.930 . S
C805 C804 1.376 . S
C805 C806 1.388 . S
C806 H793 0.930 . S
C806 C805 1.388 . S
C806 C807 1.390 . S
C807 C806 1.390 . S
C807 C808 1.394 . S
C807 C813 1.465 . S
C808 C803 1.399 . S
C808 C807 1.394 . S
C808 C809 1.516 . S
C809 C808 1.516 . S
C809 C810 1.502 . S
C809 C811 1.561 . S
C809 C812 1.526 . S
C810 H794 0.959 . S
C810 H795 0.959 . S
C810 H796 0.961 . S
C810 C809 1.502 . S
C811 H797 0.960 . S
C811 H798 0.961 . S
C811 H799 0.959 . S
C811 C809 1.561 . S
C812 C809 1.526 . S
C812 C813 1.396 . S
C812 C817 1.390 . S
C813 C807 1.465 . S
C813 C812 1.396 . S
C813 C814 1.399 . S
C814 H800 0.929 . S
C814 C813 1.399 . S
C814 C815 1.385 . S
C815 H801 0.931 . S
C815 C814 1.385 . S
C815 C816 1.389 . S
C816 C815 1.389 . S
C816 C817 1.387 . S
C817 H802 0.930 . S
C817 C812 1.390 . S
C817 C816 1.387 . S
H818 C830 0.930 . S
H819 C832 0.930 . S
H820 C833 0.930 . S
H821 C837 0.959 . S
H822 C837 0.959 . S
H823 C837 0.961 . S
H824 C838 0.960 . S
H825 C838 0.961 . S
H826 C838 0.959 . S
H827 C841 0.929 . S
H828 C842 0.931 1_556 S
H829 C844 0.930 . S
C830 H818 0.930 . S
C830 C831 1.399 . S
C830 C835 1.399 . S
C831 C830 1.399 . S
C831 C832 1.376 . S
C832 H819 0.930 . S
C832 C831 1.376 . S
C832 C833 1.388 . S
C833 H820 0.930 . S
C833 C832 1.388 . S
C833 C834 1.390 . S
C834 C833 1.390 . S
C834 C835 1.394 . S
C834 C840 1.465 . S
C835 C830 1.399 . S
C835 C834 1.394 . S
C835 C836 1.516 . S
C836 C835 1.516 . S
C836 C837 1.502 . S
C836 C838 1.561 . S
C836 C839 1.526 . S
C837 H821 0.959 . S
C837 H822 0.959 . S
C837 H823 0.961 . S
C837 C836 1.502 . S
C838 H824 0.960 . S
C838 H825 0.961 . S
C838 H826 0.959 . S
C838 C836 1.561 . S
C839 C836 1.526 . S
C839 C840 1.396 . S
C839 C844 1.390 . S
C840 C834 1.465 . S
C840 C839 1.396 . S
C840 C841 1.399 . S
C841 H827 0.929 . S
C841 C840 1.399 . S
C841 C842 1.385 . S
C842 H828 0.931 1_554 S
C842 C841 1.385 . S
C842 C843 1.389 . S
C843 C842 1.389 . S
C843 C844 1.387 . S
C844 H829 0.930 . S
C844 C839 1.390 . S
C844 C843 1.387 . S
H845 C857 0.930 . S
H846 C859 0.930 . S
H847 C860 0.930 . S
H848 C864 0.959 . S
H849 C864 0.959 . S
H850 C864 0.961 . S
H851 C865 0.960 . S
H852 C865 0.961 . S
H853 C865 0.959 . S
H854 C868 0.929 . S
H855 C869 0.931 . S
H856 C871 0.930 . S
C857 H845 0.930 . S
C857 C858 1.399 . S
C857 C862 1.399 . S
C858 C857 1.399 . S
C858 C859 1.376 . S
C859 H846 0.930 . S
C859 C858 1.376 . S
C859 C860 1.388 . S
C860 H847 0.930 . S
C860 C859 1.388 . S
C860 C861 1.390 . S
C861 C860 1.390 . S
C861 C862 1.394 . S
C861 C867 1.465 . S
C862 C857 1.399 . S
C862 C861 1.394 . S
C862 C863 1.516 . S
C863 C862 1.516 . S
C863 C864 1.502 . S
C863 C865 1.561 . S
C863 C866 1.526 . S
C864 H848 0.959 . S
C864 H849 0.959 . S
C864 H850 0.961 . S
C864 C863 1.502 . S
C865 H851 0.960 . S
C865 H852 0.961 . S
C865 H853 0.959 . S
C865 C863 1.561 . S
C866 C863 1.526 . S
C866 C867 1.396 . S
C866 C871 1.390 . S
C867 C861 1.465 . S
C867 C866 1.396 . S
C867 C868 1.399 . S
C868 H854 0.929 . S
C868 C867 1.399 . S
C868 C869 1.385 . S
C869 H855 0.931 . S
C869 C868 1.385 . S
C869 C870 1.389 . S
C870 C869 1.389 . S
C870 C871 1.387 . S
C871 H856 0.930 . S
C871 C866 1.390 . S
C871 C870 1.387 . S
H872 C884 0.930 . S
H873 C886 0.930 . S
H874 C887 0.930 . S
H875 C891 0.959 . S
H876 C891 0.959 1_565 S
H877 C891 0.963 1_565 S
H878 C892 0.960 . S
H879 C892 0.961 . S
H880 C892 0.959 . S
H881 C895 0.929 . S
H882 C896 0.931 . S
H883 C898 0.930 . S
C884 H872 0.930 . S
C884 C885 1.399 . S
C884 C889 1.399 . S
C885 C884 1.399 . S
C885 C886 1.376 . S
C886 H873 0.930 . S
C886 C885 1.376 . S
C886 C887 1.388 . S
C887 H874 0.930 . S
C887 C886 1.388 . S
C887 C888 1.390 . S
C888 C887 1.390 . S
C888 C889 1.394 . S
C888 C894 1.465 . S
C889 C884 1.399 . S
C889 C888 1.394 . S
C889 C890 1.516 . S
C890 C889 1.516 . S
C890 C891 1.502 . S
C890 C892 1.561 1_545 S
C890 C893 1.526 . S
C891 H875 0.959 . S
C891 H876 0.959 1_545 S
C891 H877 0.963 1_545 S
C891 C890 1.502 . S
C892 H878 0.960 . S
C892 H879 0.961 . S
C892 H880 0.959 . S
C892 C890 1.561 1_565 S
C893 C890 1.526 . S
C893 C894 1.396 . S
C893 C898 1.390 . S
C894 C888 1.465 . S
C894 C893 1.396 . S
C894 C895 1.399 . S
C895 H881 0.929 . S
C895 C894 1.399 . S
C895 C896 1.385 . S
C896 H882 0.931 . S
C896 C895 1.385 . S
C896 C897 1.389 . S
C897 C896 1.389 . S
C897 C898 1.387 . S
C898 H883 0.930 . S
C898 C893 1.390 . S
C898 C897 1.387 . S
H899 C911 0.930 . S
H900 C913 0.930 . S
H901 C914 0.930 . S
H902 C918 0.959 . S
H903 C918 0.959 . S
H904 C918 0.961 . S
H905 C919 0.960 . S
H906 C919 0.961 . S
H907 C919 0.959 . S
H908 C922 0.929 . S
H909 C923 0.931 . S
H910 C925 0.930 . S
C911 H899 0.930 . S
C911 C912 1.399 . S
C911 C916 1.399 . S
C912 C911 1.399 . S
C912 C913 1.376 . S
C913 H900 0.930 . S
C913 C912 1.376 . S
C913 C914 1.388 . S
C914 H901 0.930 . S
C914 C913 1.388 . S
C914 C915 1.390 . S
C915 C914 1.390 . S
C915 C916 1.394 . S
C915 C921 1.465 . S
C916 C911 1.399 . S
C916 C915 1.394 . S
C916 C917 1.516 . S
C917 C916 1.516 . S
C917 C918 1.502 . S
C917 C919 1.561 . S
C917 C920 1.526 . S
C918 H902 0.959 . S
C918 H903 0.959 . S
C918 H904 0.961 . S
C918 C917 1.502 . S
C919 H905 0.960 . S
C919 H906 0.961 . S
C919 H907 0.959 . S
C919 C917 1.561 . S
C920 C917 1.526 . S
C920 C921 1.396 . S
C920 C925 1.390 . S
C921 C915 1.465 . S
C921 C920 1.396 . S
C921 C922 1.399 . S
C922 H908 0.929 . S
C922 C921 1.399 . S
C922 C923 1.385 . S
C923 H909 0.931 . S
C923 C922 1.385 . S
C923 C924 1.389 . S
C924 C923 1.389 . S
C924 C925 1.387 . S
C925 H910 0.930 . S
C925 C920 1.390 . S
C925 C924 1.387 . S
H926 C938 0.930 . S
H927 C940 0.930 . S
H928 C941 0.930 . S
H929 C945 0.959 . S
H930 C945 0.959 . S
H931 C945 0.961 . S
H932 C946 0.960 . S
H933 C946 0.961 . S
H934 C946 0.959 . S
H935 C949 0.929 . S
H936 C950 0.931 . S
H937 C952 0.930 . S
C938 H926 0.930 . S
C938 C939 1.399 . S
C938 C943 1.399 . S
C939 C938 1.399 . S
C939 C940 1.376 1_545 S
C940 H927 0.930 . S
C940 C939 1.376 1_565 S
C940 C941 1.388 . S
C941 H928 0.930 . S
C941 C940 1.388 . S
C941 C942 1.390 1_565 S
C942 C941 1.390 1_545 S
C942 C943 1.394 . S
C942 C948 1.465 . S
C943 C938 1.399 . S
C943 C942 1.394 . S
C943 C944 1.516 . S
C944 C943 1.516 . S
C944 C945 1.502 . S
C944 C946 1.561 . S
C944 C947 1.526 . S
C945 H929 0.959 . S
C945 H930 0.959 . S
C945 H931 0.961 . S
C945 C944 1.502 . S
C946 H932 0.960 . S
C946 H933 0.961 . S
C946 H934 0.959 . S
C946 C944 1.561 . S
C947 C944 1.526 . S
C947 C948 1.396 . S
C947 C952 1.390 . S
C948 C942 1.465 . S
C948 C947 1.396 . S
C948 C949 1.399 1_545 S
C949 H935 0.929 . S
C949 C948 1.399 1_565 S
C949 C950 1.385 . S
C950 H936 0.931 . S
C950 C949 1.385 . S
C950 C951 1.389 1_565 S
C951 C950 1.389 1_545 S
C951 C952 1.387 . S
C952 H937 0.930 . S
C952 C947 1.390 . S
C952 C951 1.387 . S
H953 C965 0.930 . S
H954 C967 0.930 . S
H955 C968 0.930 . S
H956 C972 0.959 . S
H957 C972 0.959 . S
H958 C972 0.961 . S
H959 C973 0.960 . S
H960 C973 0.961 . S
H961 C973 0.959 . S
H962 C976 0.929 . S
H963 C977 0.931 . S
H964 C979 0.930 . S
C965 H953 0.930 . S
C965 C966 1.399 . S
C965 C970 1.399 . S
C966 C965 1.399 . S
C966 C967 1.376 . S
C967 H954 0.930 . S
C967 C966 1.376 . S
C967 C968 1.388 . S
C968 H955 0.930 . S
C968 C967 1.388 . S
C968 C969 1.390 . S
C969 C968 1.390 . S
C969 C970 1.394 . S
C969 C975 1.465 . S
C970 C965 1.399 . S
C970 C969 1.394 . S
C970 C971 1.516 . S
C971 C970 1.516 . S
C971 C972 1.502 . S
C971 C973 1.561 . S
C971 C974 1.526 . S
C972 H956 0.959 . S
C972 H957 0.959 . S
C972 H958 0.961 . S
C972 C971 1.502 . S
C973 H959 0.960 . S
C973 H960 0.961 . S
C973 H961 0.959 . S
C973 C971 1.561 . S
C974 C971 1.526 . S
C974 C975 1.396 . S
C974 C979 1.390 . S
C975 C969 1.465 . S
C975 C974 1.396 . S
C975 C976 1.399 . S
C976 H962 0.929 . S
C976 C975 1.399 . S
C976 C977 1.385 . S
C977 H963 0.931 . S
C977 C976 1.385 . S
C977 C978 1.389 . S
C978 C977 1.389 . S
C978 C979 1.387 . S
C979 H964 0.930 . S
C979 C974 1.390 . S
C979 C978 1.387 . S
H980 C992 0.930 . S
H981 C994 0.930 . S
H982 C995 0.930 . S
H983 C999 0.959 . S
H984 C999 0.959 . S
H985 C999 0.961 . S
H986 C1000 0.960 . S
H987 C1000 0.961 . S
H988 C1000 0.959 1_545 S
H989 C1003 0.929 . S
H990 C1004 0.931 . S
H991 C1006 0.930 1_565 S
C992 H980 0.930 . S
C992 C993 1.399 . S
C992 C997 1.399 . S
C993 C992 1.399 . S
C993 C994 1.376 . S
C994 H981 0.930 . S
C994 C993 1.376 . S
C994 C995 1.388 . S
C995 H982 0.930 . S
C995 C994 1.388 . S
C995 C996 1.390 . S
C996 C995 1.390 . S
C996 C997 1.394 . S
C996 C1002 1.465 . S
C997 C992 1.399 . S
C997 C996 1.394 . S
C997 C998 1.516 . S
C998 C997 1.516 . S
C998 C999 1.502 1_545 S
C998 C1000 1.561 1_545 S
C998 C1001 1.526 . S
C999 H983 0.959 . S
C999 H984 0.959 . S
C999 H985 0.961 . S
C999 C998 1.502 1_565 S
C1000 H986 0.960 . S
C1000 H987 0.961 . S
C1000 H988 0.959 1_565 S
C1000 C998 1.561 1_565 S
C1001 C998 1.526 . S
C1001 C1002 1.396 . S
C1001 C1006 1.390 . S
C1002 C996 1.465 . S
C1002 C1001 1.396 . S
C1002 C1003 1.399 . S
C1003 H989 0.929 . S
C1003 C1002 1.399 . S
C1003 C1004 1.385 . S
C1004 H990 0.931 . S
C1004 C1003 1.385 . S
C1004 C1005 1.389 . S
C1005 C1004 1.389 . S
C1005 C1006 1.387 . S
C1006 H991 0.930 1_545 S
C1006 C1001 1.390 . S
C1006 C1005 1.387 . S
H1007 C1019 0.930 . S
H1008 C1021 0.930 . S
H1009 C1022 0.930 . S
H1010 C1026 0.959 . S
H1011 C1026 0.959 . S
H1012 C1026 0.961 . S
H1013 C1027 0.960 . S
H1014 C1027 0.961 . S
H1015 C1027 0.959 . S
H1016 C1030 0.929 . S
H1017 C1031 0.931 . S
H1018 C1033 0.930 . S
C1019 H1007 0.930 . S
C1019 C1020 1.399 . S
C1019 C1024 1.399 . S
C1020 C1019 1.399 . S
C1020 C1021 1.376 . S
C1021 H1008 0.930 . S
C1021 C1020 1.376 . S
C1021 C1022 1.388 . S
C1022 H1009 0.930 . S
C1022 C1021 1.388 . S
C1022 C1023 1.390 . S
C1023 C1022 1.390 . S
C1023 C1024 1.394 . S
C1023 C1029 1.465 . S
C1024 C1019 1.399 . S
C1024 C1023 1.394 . S
C1024 C1025 1.516 . S
C1025 C1024 1.516 . S
C1025 C1026 1.502 . S
C1025 C1027 1.561 . S
C1025 C1028 1.526 . S
C1026 H1010 0.959 . S
C1026 H1011 0.959 . S
C1026 H1012 0.961 . S
C1026 C1025 1.502 . S
C1027 H1013 0.960 . S
C1027 H1014 0.961 . S
C1027 H1015 0.959 . S
C1027 C1025 1.561 . S
C1028 C1025 1.526 . S
C1028 C1029 1.396 . S
C1028 C1033 1.390 . S
C1029 C1023 1.465 . S
C1029 C1028 1.396 . S
C1029 C1030 1.399 . S
C1030 H1016 0.929 . S
C1030 C1029 1.399 . S
C1030 C1031 1.385 . S
C1031 H1017 0.931 . S
C1031 C1030 1.385 . S
C1031 C1032 1.389 . S
C1032 C1031 1.389 . S
C1032 C1033 1.387 . S
C1033 H1018 0.930 . S
C1033 C1028 1.390 . S
C1033 C1032 1.387 . S
H1034 C1046 0.930 . S
H1035 C1048 0.898 1_565 S
H1036 C1049 0.967 . S
H1037 C1053 0.959 . S
H1038 C1053 0.959 . S
H1039 C1053 0.961 . S
H1040 C1054 0.960 . S
H1041 C1054 0.961 . S
H1042 C1054 0.959 . S
H1043 C1057 0.929 1_565 S
H1044 C1058 0.931 . S
H1045 C1060 0.930 . S
C1046 H1034 0.930 . S
C1046 C1047 1.399 . S
C1046 C1051 1.399 . S
C1047 C1046 1.399 . S
C1047 C1048 1.410 . S
C1048 H1035 0.898 1_545 S
C1048 C1047 1.410 . S
C1048 C1049 1.387 1_545 S
C1049 H1036 0.967 . S
C1049 C1048 1.387 1_565 S
C1049 C1050 1.354 1_565 S
C1050 C1049 1.354 1_545 S
C1050 C1051 1.394 . S
C1050 C1056 1.465 . S
C1051 C1046 1.399 . S
C1051 C1050 1.394 . S
C1051 C1052 1.516 . S
C1052 C1051 1.516 . S
C1052 C1053 1.502 . S
C1052 C1054 1.561 . S
C1052 C1055 1.526 . S
C1053 H1037 0.959 . S
C1053 H1038 0.959 . S
C1053 H1039 0.961 . S
C1053 C1052 1.502 . S
C1054 H1040 0.960 . S
C1054 H1041 0.961 . S
C1054 H1042 0.959 . S
C1054 C1052 1.561 . S
C1055 C1052 1.526 . S
C1055 C1056 1.396 . S
C1055 C1060 1.390 . S
C1056 C1050 1.465 . S
C1056 C1055 1.396 . S
C1056 C1057 1.399 . S
C1057 H1043 0.929 1_545 S
C1057 C1056 1.399 . S
C1057 C1058 1.385 . S
C1058 H1044 0.931 . S
C1058 C1057 1.385 . S
C1058 C1059 1.389 . S
C1059 C1058 1.389 . S
C1059 C1060 1.387 . S
C1060 H1045 0.930 . S
C1060 C1055 1.390 . S
C1060 C1059 1.387 . S
H1061 C1073 0.930 . S
H1062 C1075 0.930 . S
H1063 C1076 0.930 . S
H1064 C1080 0.959 . S
H1065 C1080 0.959 . S
H1066 C1080 0.961 . S
H1067 C1081 0.960 . S
H1068 C1081 0.961 . S
H1069 C1081 0.959 . S
H1070 C1084 0.929 . S
H1071 C1085 0.931 . S
H1072 C1087 0.930 . S
C1073 H1061 0.930 . S
C1073 C1074 1.399 . S
C1073 C1078 1.399 . S
C1074 C1073 1.399 . S
C1074 C1075 1.376 . S
C1075 H1062 0.930 . S
C1075 C1074 1.376 . S
C1075 C1076 1.388 . S
C1076 H1063 0.930 . S
C1076 C1075 1.388 . S
C1076 C1077 1.390 . S
C1077 C1076 1.390 . S
C1077 C1078 1.394 . S
C1077 C1083 1.465 . S
C1078 C1073 1.399 . S
C1078 C1077 1.394 . S
C1078 C1079 1.516 . S
C1079 C1078 1.516 . S
C1079 C1080 1.502 . S
C1079 C1081 1.561 . S
C1079 C1082 1.526 . S
C1080 H1064 0.959 . S
C1080 H1065 0.959 . S
C1080 H1066 0.961 . S
C1080 C1079 1.502 . S
C1081 H1067 0.960 . S
C1081 H1068 0.961 . S
C1081 H1069 0.959 . S
C1081 C1079 1.561 . S
C1082 C1079 1.526 . S
C1082 C1083 1.396 . S
C1082 C1087 1.390 . S
C1083 C1077 1.465 . S
C1083 C1082 1.396 . S
C1083 C1084 1.399 . S
C1084 H1070 0.929 . S
C1084 C1083 1.399 . S
C1084 C1085 1.385 . S
C1085 H1071 0.931 . S
C1085 C1084 1.385 . S
C1085 C1086 1.389 . S
C1086 C1085 1.389 . S
C1086 C1087 1.387 . S
C1087 H1072 0.930 . S
C1087 C1082 1.390 . S
C1087 C1086 1.387 . S
H1088 C1100 0.930 . S
H1089 C1102 0.930 . S
H1090 C1103 0.930 . S
H1091 C1107 0.959 . S
H1092 C1107 0.959 . S
H1093 C1107 0.961 . S
H1094 C1108 0.960 . S
H1095 C1108 0.961 . S
H1096 C1108 0.959 1_545 S
H1097 C1111 0.929 1_556 S
H1098 C1112 0.931 1_556 S
H1099 C1114 0.930 . S
C1100 H1088 0.930 . S
C1100 C1101 1.399 . S
C1100 C1105 1.399 . S
C1101 C1100 1.399 . S
C1101 C1102 1.376 1_554 S
C1102 H1089 0.930 . S
C1102 C1101 1.376 1_556 S
C1102 C1103 1.388 . S
C1103 H1090 0.930 . S
C1103 C1102 1.388 . S
C1103 C1104 1.390 1_556 S
C1104 C1103 1.390 1_554 S
C1104 C1105 1.394 . S
C1104 C1110 1.465 . S
C1105 C1100 1.399 . S
C1105 C1104 1.394 . S
C1105 C1106 1.516 . S
C1106 C1105 1.516 . S
C1106 C1107 1.502 . S
C1106 C1108 1.561 . S
C1106 C1109 1.526 . S
C1107 H1091 0.959 . S
C1107 H1092 0.959 . S
C1107 H1093 0.961 . S
C1107 C1106 1.502 . S
C1108 H1094 0.960 . S
C1108 H1095 0.961 . S
C1108 H1096 0.959 1_565 S
C1108 C1106 1.561 . S
C1109 C1106 1.526 . S
C1109 C1110 1.396 . S
C1109 C1114 1.390 . S
C1110 C1104 1.465 . S
C1110 C1109 1.396 . S
C1110 C1111 1.399 . S
C1111 H1097 0.929 1_554 S
C1111 C1110 1.399 . S
C1111 C1112 1.385 . S
C1112 H1098 0.931 1_554 S
C1112 C1111 1.385 . S
C1112 C1113 1.389 . S
C1113 C1112 1.389 . S
C1113 C1114 1.387 . S
C1114 H1099 0.930 . S
C1114 C1109 1.390 . S
C1114 C1113 1.387 . S
H1115 C1127 0.930 . S
H1116 C1129 0.930 . S
H1117 C1130 0.930 . S
H1118 C1134 0.959 . S
H1119 C1134 0.959 . S
H1120 C1134 0.961 . S
H1121 C1135 0.960 . S
H1122 C1135 0.961 . S
H1123 C1135 0.959 . S
H1124 C1138 0.929 . S
H1125 C1139 0.931 . S
H1126 C1141 0.930 . S
C1127 H1115 0.930 . S
C1127 C1128 1.399 1_556 S
C1127 C1132 1.399 . S
C1128 C1127 1.399 1_554 S
C1128 C1129 1.376 . S
C1129 H1116 0.930 . S
C1129 C1128 1.376 . S
C1129 C1130 1.388 . S
C1130 H1117 0.930 . S
C1130 C1129 1.388 . S
C1130 C1131 1.390 . S
C1131 C1130 1.390 . S
C1131 C1132 1.394 1_554 S
C1131 C1137 1.465 . S
C1132 C1127 1.399 . S
C1132 C1131 1.394 1_556 S
C1132 C1133 1.516 . S
C1133 C1132 1.516 . S
C1133 C1134 1.502 . S
C1133 C1135 1.561 . S
C1133 C1136 1.526 . S
C1134 H1118 0.959 . S
C1134 H1119 0.959 . S
C1134 H1120 0.961 . S
C1134 C1133 1.502 . S
C1135 H1121 0.960 . S
C1135 H1122 0.961 . S
C1135 H1123 0.959 . S
C1135 C1133 1.561 . S
C1136 C1133 1.526 . S
C1136 C1137 1.396 1_556 S
C1136 C1141 1.390 . S
C1137 C1131 1.465 . S
C1137 C1136 1.396 1_554 S
C1137 C1138 1.399 . S
C1138 H1124 0.929 . S
C1138 C1137 1.399 . S
C1138 C1139 1.385 . S
C1139 H1125 0.931 . S
C1139 C1138 1.385 . S
C1139 C1140 1.389 . S
C1140 C1139 1.389 . S
C1140 C1141 1.387 1_554 S
C1141 H1126 0.930 . S
C1141 C1136 1.390 . S
C1141 C1140 1.387 1_556 S
H1142 C1154 0.930 . S
H1143 C1156 0.930 . S
H1144 C1157 0.930 . S
H1145 C1161 0.959 . S
H1146 C1161 0.959 . S
H1147 C1161 0.961 . S
H1148 C1162 0.960 . S
H1149 C1162 0.961 . S
H1150 C1162 0.959 . S
H1151 C1165 0.929 . S
H1152 C1166 0.931 . S
H1153 C1168 0.930 . S
C1154 H1142 0.930 . S
C1154 C1155 1.399 . S
C1154 C1159 1.399 . S
C1155 C1154 1.399 . S
C1155 C1156 1.376 . S
C1156 H1143 0.930 . S
C1156 C1155 1.376 . S
C1156 C1157 1.388 . S
C1157 H1144 0.930 . S
C1157 C1156 1.388 . S
C1157 C1158 1.390 . S
C1158 C1157 1.390 . S
C1158 C1159 1.394 . S
C1158 C1164 1.465 . S
C1159 C1154 1.399 . S
C1159 C1158 1.394 . S
C1159 C1160 1.516 . S
C1160 C1159 1.516 . S
C1160 C1161 1.502 . S
C1160 C1162 1.561 . S
C1160 C1163 1.526 . S
C1161 H1145 0.959 . S
C1161 H1146 0.959 . S
C1161 H1147 0.961 . S
C1161 C1160 1.502 . S
C1162 H1148 0.960 . S
C1162 H1149 0.961 . S
C1162 H1150 0.959 . S
C1162 C1160 1.561 . S
C1163 C1160 1.526 . S
C1163 C1164 1.396 . S
C1163 C1168 1.390 . S
C1164 C1158 1.465 . S
C1164 C1163 1.396 . S
C1164 C1165 1.399 . S
C1165 H1151 0.929 . S
C1165 C1164 1.399 . S
C1165 C1166 1.385 . S
C1166 H1152 0.931 . S
C1166 C1165 1.385 . S
C1166 C1167 1.389 . S
C1167 C1166 1.389 . S
C1167 C1168 1.387 . S
C1168 H1153 0.930 . S
C1168 C1163 1.390 . S
C1168 C1167 1.387 . S
H1169 C1181 0.930 . S
H1170 C1183 0.930 . S
H1171 C1184 0.930 . S
H1172 C1188 0.959 . S
H1173 C1188 0.959 . S
H1174 C1188 0.961 . S
H1175 C1189 0.960 . S
H1176 C1189 0.961 . S
H1177 C1189 0.959 . S
H1178 C1192 0.929 . S
H1179 C1193 0.931 . S
H1180 C1195 0.930 . S
C1181 H1169 0.930 . S
C1181 C1182 1.399 . S
C1181 C1186 1.399 . S
C1182 C1181 1.399 . S
C1182 C1183 1.376 . S
C1183 H1170 0.930 . S
C1183 C1182 1.376 . S
C1183 C1184 1.388 . S
C1184 H1171 0.930 . S
C1184 C1183 1.388 . S
C1184 C1185 1.390 . S
C1185 C1184 1.390 . S
C1185 C1186 1.394 . S
C1185 C1191 1.465 . S
C1186 C1181 1.399 . S
C1186 C1185 1.394 . S
C1186 C1187 1.516 . S
C1187 C1186 1.516 . S
C1187 C1188 1.502 . S
C1187 C1189 1.561 . S
C1187 C1190 1.526 . S
C1188 H1172 0.959 . S
C1188 H1173 0.959 . S
C1188 H1174 0.961 . S
C1188 C1187 1.502 . S
C1189 H1175 0.960 . S
C1189 H1176 0.961 . S
C1189 H1177 0.959 . S
C1189 C1187 1.561 . S
C1190 C1187 1.526 . S
C1190 C1191 1.396 . S
C1190 C1195 1.390 . S
C1191 C1185 1.465 . S
C1191 C1190 1.396 . S
C1191 C1192 1.399 . S
C1192 H1178 0.929 . S
C1192 C1191 1.399 . S
C1192 C1193 1.385 . S
C1193 H1179 0.931 . S
C1193 C1192 1.385 . S
C1193 C1194 1.389 . S
C1194 C1193 1.389 . S
C1194 C1195 1.387 . S
C1195 H1180 0.930 . S
C1195 C1190 1.390 . S
C1195 C1194 1.387 . S
H1196 C1208 0.930 . S
H1197 C1210 0.930 . S
H1198 C1211 0.930 . S
H1199 C1215 0.959 . S
H1200 C1215 0.959 . S
H1201 C1215 0.961 . S
H1202 C1216 0.960 . S
H1203 C1216 0.961 . S
H1204 C1216 0.959 . S
H1205 C1219 0.929 . S
H1206 C1220 0.931 . S
H1207 C1222 0.930 . S
C1208 H1196 0.930 . S
C1208 C1209 1.399 . S
C1208 C1213 1.399 . S
C1209 C1208 1.399 . S
C1209 C1210 1.376 . S
C1210 H1197 0.930 . S
C1210 C1209 1.376 . S
C1210 C1211 1.388 . S
C1211 H1198 0.930 . S
C1211 C1210 1.388 . S
C1211 C1212 1.390 . S
C1212 C1211 1.390 . S
C1212 C1213 1.394 . S
C1212 C1218 1.465 . S
C1213 C1208 1.399 . S
C1213 C1212 1.394 . S
C1213 C1214 1.516 . S
C1214 C1213 1.516 . S
C1214 C1215 1.502 . S
C1214 C1216 1.561 . S
C1214 C1217 1.526 . S
C1215 H1199 0.959 . S
C1215 H1200 0.959 . S
C1215 H1201 0.961 . S
C1215 C1214 1.502 . S
C1216 H1202 0.960 . S
C1216 H1203 0.961 . S
C1216 H1204 0.959 . S
C1216 C1214 1.561 . S
C1217 C1214 1.526 . S
C1217 C1218 1.396 . S
C1217 C1222 1.390 . S
C1218 C1212 1.465 . S
C1218 C1217 1.396 . S
C1218 C1219 1.399 . S
C1219 H1205 0.929 . S
C1219 C1218 1.399 . S
C1219 C1220 1.385 . S
C1220 H1206 0.931 . S
C1220 C1219 1.385 . S
C1220 C1221 1.389 . S
C1221 C1220 1.389 . S
C1221 C1222 1.387 . S
C1222 H1207 0.930 . S
C1222 C1217 1.390 . S
C1222 C1221 1.387 . S
H1223 C1235 0.930 . S
H1224 C1237 0.930 . S
H1225 C1238 0.930 . S
H1226 C1242 0.959 . S
H1227 C1242 0.959 . S
H1228 C1242 0.961 . S
H1229 C1243 0.960 . S
H1230 C1243 0.961 . S
H1231 C1243 0.959 . S
H1232 C1246 0.929 . S
H1233 C1247 0.931 . S
H1234 C1249 0.930 . S
C1235 H1223 0.930 . S
C1235 C1236 1.399 . S
C1235 C1240 1.399 . S
C1236 C1235 1.399 . S
C1236 C1237 1.376 . S
C1237 H1224 0.930 . S
C1237 C1236 1.376 . S
C1237 C1238 1.388 . S
C1238 H1225 0.930 . S
C1238 C1237 1.388 . S
C1238 C1239 1.390 . S
C1239 C1238 1.390 . S
C1239 C1240 1.394 . S
C1239 C1245 1.465 . S
C1240 C1235 1.399 . S
C1240 C1239 1.394 . S
C1240 C1241 1.516 . S
C1241 C1240 1.516 . S
C1241 C1242 1.502 . S
C1241 C1243 1.561 . S
C1241 C1244 1.526 . S
C1242 H1226 0.959 . S
C1242 H1227 0.959 . S
C1242 H1228 0.961 . S
C1242 C1241 1.502 . S
C1243 H1229 0.960 . S
C1243 H1230 0.961 . S
C1243 H1231 0.959 . S
C1243 C1241 1.561 . S
C1244 C1241 1.526 . S
C1244 C1245 1.396 . S
C1244 C1249 1.390 . S
C1245 C1239 1.465 . S
C1245 C1244 1.396 . S
C1245 C1246 1.399 . S
C1246 H1232 0.929 . S
C1246 C1245 1.399 . S
C1246 C1247 1.385 . S
C1247 H1233 0.931 . S
C1247 C1246 1.385 . S
C1247 C1248 1.389 . S
C1248 C1247 1.389 . S
C1248 C1249 1.387 . S
C1249 H1234 0.930 . S
C1249 C1244 1.390 . S
C1249 C1248 1.387 . S
H1250 C1262 0.930 . S
H1251 C1264 0.930 . S
H1252 C1265 0.930 . S
H1253 C1269 0.959 . S
H1254 C1269 0.959 . S
H1255 C1269 0.961 . S
H1256 C1270 0.960 . S
H1257 C1270 0.961 . S
H1258 C1270 0.959 . S
H1259 C1273 0.929 . S
H1260 C1274 0.931 . S
H1261 C1276 0.930 . S
C1262 H1250 0.930 . S
C1262 C1263 1.399 . S
C1262 C1267 1.399 . S
C1263 C1262 1.399 . S
C1263 C1264 1.376 . S
C1264 H1251 0.930 . S
C1264 C1263 1.376 . S
C1264 C1265 1.388 . S
C1265 H1252 0.930 . S
C1265 C1264 1.388 . S
C1265 C1266 1.390 . S
C1266 C1265 1.390 . S
C1266 C1267 1.394 . S
C1266 C1272 1.465 . S
C1267 C1262 1.399 . S
C1267 C1266 1.394 . S
C1267 C1268 1.516 . S
C1268 C1267 1.516 . S
C1268 C1269 1.502 . S
C1268 C1270 1.561 . S
C1268 C1271 1.526 . S
C1269 H1253 0.959 . S
C1269 H1254 0.959 . S
C1269 H1255 0.961 . S
C1269 C1268 1.502 . S
C1270 H1256 0.960 . S
C1270 H1257 0.961 . S
C1270 H1258 0.959 . S
C1270 C1268 1.561 . S
C1271 C1268 1.526 . S
C1271 C1272 1.396 . S
C1271 C1276 1.390 . S
C1272 C1266 1.465 . S
C1272 C1271 1.396 . S
C1272 C1273 1.399 . S
C1273 H1259 0.929 . S
C1273 C1272 1.399 . S
C1273 C1274 1.385 . S
C1274 H1260 0.931 . S
C1274 C1273 1.385 . S
C1274 C1275 1.389 . S
C1275 C1274 1.389 . S
C1275 C1276 1.387 . S
C1276 H1261 0.930 . S
C1276 C1271 1.390 . S
C1276 C1275 1.387 . S
H1277 C1289 0.930 . S
H1278 C1291 0.930 . S
H1279 C1292 0.930 . S
H1280 C1296 0.959 . S
H1281 C1296 0.959 . S
H1282 C1296 0.961 . S
H1283 C1297 0.960 . S
H1284 C1297 0.961 . S
H1285 C1297 0.959 . S
H1286 C1300 0.929 . S
H1287 C1301 0.931 . S
H1288 C1303 0.930 . S
C1289 H1277 0.930 . S
C1289 C1290 1.399 . S
C1289 C1294 1.399 . S
C1290 C1289 1.399 . S
C1290 C1291 1.376 . S
C1291 H1278 0.930 . S
C1291 C1290 1.376 . S
C1291 C1292 1.388 . S
C1292 H1279 0.930 . S
C1292 C1291 1.388 . S
C1292 C1293 1.390 . S
C1293 C1292 1.390 . S
C1293 C1294 1.394 . S
C1293 C1299 1.465 . S
C1294 C1289 1.399 . S
C1294 C1293 1.394 . S
C1294 C1295 1.516 . S
C1295 C1294 1.516 . S
C1295 C1296 1.502 . S
C1295 C1297 1.561 . S
C1295 C1298 1.526 . S
C1296 H1280 0.959 . S
C1296 H1281 0.959 . S
C1296 H1282 0.961 . S
C1296 C1295 1.502 . S
C1297 H1283 0.960 . S
C1297 H1284 0.961 . S
C1297 H1285 0.959 . S
C1297 C1295 1.561 . S
C1298 C1295 1.526 . S
C1298 C1299 1.396 . S
C1298 C1303 1.390 . S
C1299 C1293 1.465 . S
C1299 C1298 1.396 . S
C1299 C1300 1.399 . S
C1300 H1286 0.929 . S
C1300 C1299 1.399 . S
C1300 C1301 1.385 . S
C1301 H1287 0.931 . S
C1301 C1300 1.385 . S
C1301 C1302 1.389 . S
C1302 C1301 1.389 . S
C1302 C1303 1.387 . S
C1303 H1288 0.930 . S
C1303 C1298 1.390 . S
C1303 C1302 1.387 . S
H1304 C1316 0.930 . S
H1305 C1318 0.930 . S
H1306 C1319 0.930 . S
H1307 C1323 0.959 . S
H1308 C1323 0.959 . S
H1309 C1323 0.961 . S
H1310 C1324 0.960 . S
H1311 C1324 0.961 . S
H1312 C1324 0.959 . S
H1313 C1327 0.929 . S
H1314 C1328 0.931 . S
H1315 C1330 0.900 1_655 S
C1316 H1304 0.930 . S
C1316 C1317 1.399 . S
C1316 C1321 1.399 . S
C1317 C1316 1.399 . S
C1317 C1318 1.376 . S
C1318 H1305 0.930 . S
C1318 C1317 1.376 . S
C1318 C1319 1.388 . S
C1319 H1306 0.930 . S
C1319 C1318 1.388 . S
C1319 C1320 1.390 . S
C1320 C1319 1.390 . S
C1320 C1321 1.394 . S
C1320 C1326 1.465 . S
C1321 C1316 1.399 . S
C1321 C1320 1.394 . S
C1321 C1322 1.516 . S
C1322 C1321 1.516 . S
C1322 C1323 1.502 1_455 S
C1322 C1324 1.561 . S
C1322 C1325 1.526 . S
C1323 H1307 0.959 . S
C1323 H1308 0.959 . S
C1323 H1309 0.961 . S
C1323 C1322 1.502 1_655 S
C1324 H1310 0.960 . S
C1324 H1311 0.961 . S
C1324 H1312 0.959 . S
C1324 C1322 1.561 . S
C1325 C1322 1.526 . S
C1325 C1326 1.396 . S
C1325 C1330 1.390 . S
C1326 C1320 1.465 . S
C1326 C1325 1.396 . S
C1326 C1327 1.399 . S
C1327 H1313 0.929 . S
C1327 C1326 1.399 . S
C1327 C1328 1.385 . S
C1328 H1314 0.931 . S
C1328 C1327 1.385 . S
C1328 C1329 1.389 . S
C1329 C1328 1.389 . S
C1329 C1330 1.387 . S
C1330 H1315 0.900 1_455 S
C1330 C1325 1.390 . S
C1330 C1329 1.387 . S
H1331 C1343 0.930 . S
H1332 C1345 0.930 . S
H1333 C1346 0.930 . S
H1334 C1350 0.959 . S
H1335 C1350 0.959 . S
H1336 C1350 0.961 . S
H1337 C1351 0.960 . S
H1338 C1351 0.961 . S
H1339 C1351 0.959 . S
H1340 C1354 0.929 . S
H1341 C1355 0.931 . S
H1342 C1357 0.930 . S
C1343 H1331 0.930 . S
C1343 C1344 1.399 . S
C1343 C1348 1.399 . S
C1344 C1343 1.399 . S
C1344 C1345 1.376 . S
C1345 H1332 0.930 . S
C1345 C1344 1.376 . S
C1345 C1346 1.388 . S
C1346 H1333 0.930 . S
C1346 C1345 1.388 . S
C1346 C1347 1.390 . S
C1347 C1346 1.390 . S
C1347 C1348 1.394 . S
C1347 C1353 1.465 . S
C1348 C1343 1.399 . S
C1348 C1347 1.394 . S
C1348 C1349 1.516 . S
C1349 C1348 1.516 . S
C1349 C1350 1.502 . S
C1349 C1351 1.561 . S
C1349 C1352 1.526 . S
C1350 H1334 0.959 . S
C1350 H1335 0.959 . S
C1350 H1336 0.961 . S
C1350 C1349 1.502 . S
C1351 H1337 0.960 . S
C1351 H1338 0.961 . S
C1351 H1339 0.959 . S
C1351 C1349 1.561 . S
C1352 C1349 1.526 . S
C1352 C1353 1.396 . S
C1352 C1357 1.390 . S
C1353 C1347 1.465 . S
C1353 C1352 1.396 . S
C1353 C1354 1.399 . S
C1354 H1340 0.929 . S
C1354 C1353 1.399 . S
C1354 C1355 1.385 . S
C1355 H1341 0.931 . S
C1355 C1354 1.385 . S
C1355 C1356 1.389 . S
C1356 C1355 1.389 . S
C1356 C1357 1.387 . S
C1357 H1342 0.930 . S
C1357 C1352 1.390 . S
C1357 C1356 1.387 . S
H1358 C1370 0.930 . S
H1359 C1372 0.930 . S
H1360 C1373 0.930 . S
H1361 C1377 0.959 . S
H1362 C1377 0.959 . S
H1363 C1377 0.961 . S
H1364 C1378 0.960 . S
H1365 C1378 0.961 . S
H1366 C1378 0.959 . S
H1367 C1381 0.929 . S
H1368 C1382 0.931 . S
H1369 C1384 0.930 . S
C1370 H1358 0.930 . S
C1370 C1371 1.399 . S
C1370 C1375 1.399 . S
C1371 C1370 1.399 . S
C1371 C1372 1.376 . S
C1372 H1359 0.930 . S
C1372 C1371 1.376 . S
C1372 C1373 1.388 . S
C1373 H1360 0.930 . S
C1373 C1372 1.388 . S
C1373 C1374 1.390 . S
C1374 C1373 1.390 . S
C1374 C1375 1.394 . S
C1374 C1380 1.465 . S
C1375 C1370 1.399 . S
C1375 C1374 1.394 . S
C1375 C1376 1.516 . S
C1376 C1375 1.516 . S
C1376 C1377 1.502 . S
C1376 C1378 1.561 . S
C1376 C1379 1.526 . S
C1377 H1361 0.959 . S
C1377 H1362 0.959 . S
C1377 H1363 0.961 . S
C1377 C1376 1.502 . S
C1378 H1364 0.960 . S
C1378 H1365 0.961 . S
C1378 H1366 0.959 . S
C1378 C1376 1.561 . S
C1379 C1376 1.526 . S
C1379 C1380 1.396 . S
C1379 C1384 1.390 . S
C1380 C1374 1.465 . S
C1380 C1379 1.396 . S
C1380 C1381 1.399 . S
C1381 H1367 0.929 . S
C1381 C1380 1.399 . S
C1381 C1382 1.385 . S
C1382 H1368 0.931 . S
C1382 C1381 1.385 . S
C1382 C1383 1.389 . S
C1383 C1382 1.389 . S
C1383 C1384 1.387 . S
C1384 H1369 0.930 . S
C1384 C1379 1.390 . S
C1384 C1383 1.387 . S
H1385 C1397 0.930 . S
H1386 C1399 0.930 . S
H1387 C1400 0.930 . S
H1388 C1404 0.959 . S
H1389 C1404 0.959 . S
H1390 C1404 0.961 . S
H1391 C1405 0.960 . S
H1392 C1405 0.961 . S
H1393 C1405 0.959 . S
H1394 C1408 0.929 . S
H1395 C1409 0.931 . S
H1396 C1411 0.930 . S
C1397 H1385 0.930 . S
C1397 C1398 1.399 . S
C1397 C1402 1.399 . S
C1398 C1397 1.399 . S
C1398 C1399 1.376 . S
C1399 H1386 0.930 . S
C1399 C1398 1.376 . S
C1399 C1400 1.388 . S
C1400 H1387 0.930 . S
C1400 C1399 1.388 . S
C1400 C1401 1.390 . S
C1401 C1400 1.390 . S
C1401 C1402 1.394 . S
C1401 C1407 1.465 . S
C1402 C1397 1.399 . S
C1402 C1401 1.394 . S
C1402 C1403 1.516 . S
C1403 C1402 1.516 . S
C1403 C1404 1.502 . S
C1403 C1405 1.561 . S
C1403 C1406 1.526 . S
C1404 H1388 0.959 . S
C1404 H1389 0.959 . S
C1404 H1390 0.961 . S
C1404 C1403 1.502 . S
C1405 H1391 0.960 . S
C1405 H1392 0.961 . S
C1405 H1393 0.959 . S
C1405 C1403 1.561 . S
C1406 C1403 1.526 . S
C1406 C1407 1.396 . S
C1406 C1411 1.390 . S
C1407 C1401 1.465 . S
C1407 C1406 1.396 . S
C1407 C1408 1.399 . S
C1408 H1394 0.929 . S
C1408 C1407 1.399 . S
C1408 C1409 1.385 . S
C1409 H1395 0.931 . S
C1409 C1408 1.385 . S
C1409 C1410 1.389 . S
C1410 C1409 1.389 . S
C1410 C1411 1.387 . S
C1411 H1396 0.930 . S
C1411 C1406 1.390 . S
C1411 C1410 1.387 . S
H1412 C1424 0.930 . S
H1413 C1426 0.922 1_655 S
H1414 C1427 0.930 . S
H1415 C1431 0.959 . S
H1416 C1431 0.959 . S
H1417 C1431 0.961 . S
H1418 C1432 0.960 . S
H1419 C1432 0.961 . S
H1420 C1432 0.959 . S
H1421 C1435 0.929 . S
H1422 C1436 0.931 . S
H1423 C1438 0.930 . S
C1424 H1412 0.930 . S
C1424 C1425 1.399 . S
C1424 C1429 1.399 . S
C1425 C1424 1.399 . S
C1425 C1426 1.376 . S
C1426 H1413 0.922 1_455 S
C1426 C1425 1.376 . S
C1426 C1427 1.388 1_455 S
C1427 H1414 0.930 . S
C1427 C1426 1.388 1_655 S
C1427 C1428 1.390 1_655 S
C1428 C1427 1.390 1_455 S
C1428 C1429 1.394 . S
C1428 C1434 1.465 . S
C1429 C1424 1.399 . S
C1429 C1428 1.394 . S
C1429 C1430 1.516 . S
C1430 C1429 1.516 . S
C1430 C1431 1.502 . S
C1430 C1432 1.561 1_455 S
C1430 C1433 1.526 . S
C1431 H1415 0.959 . S
C1431 H1416 0.959 . S
C1431 H1417 0.961 . S
C1431 C1430 1.502 . S
C1432 H1418 0.960 . S
C1432 H1419 0.961 . S
C1432 H1420 0.959 . S
C1432 C1430 1.561 1_655 S
C1433 C1430 1.526 . S
C1433 C1434 1.396 . S
C1433 C1438 1.390 . S
C1434 C1428 1.465 . S
C1434 C1433 1.396 . S
C1434 C1435 1.399 1_455 S
C1435 H1421 0.929 . S
C1435 C1434 1.399 1_655 S
C1435 C1436 1.385 . S
C1436 H1422 0.931 . S
C1436 C1435 1.385 . S
C1436 C1437 1.389 1_655 S
C1437 C1436 1.389 1_455 S
C1437 C1438 1.387 . S
C1438 H1423 0.930 . S
C1438 C1433 1.390 . S
C1438 C1437 1.387 . S
H1439 C1451 0.930 . S
H1440 C1453 0.930 . S
H1441 C1454 0.930 . S
H1442 C1458 0.959 . S
H1443 C1458 0.959 . S
H1444 C1458 0.961 . S
H1445 C1459 0.960 . S
H1446 C1459 0.961 . S
H1447 C1459 0.959 . S
H1448 C1462 0.929 . S
H1449 C1463 0.931 . S
H1450 C1465 0.930 . S
C1451 H1439 0.930 . S
C1451 C1452 1.399 . S
C1451 C1456 1.399 . S
C1452 C1451 1.399 . S
C1452 C1453 1.376 . S
C1453 H1440 0.930 . S
C1453 C1452 1.376 . S
C1453 C1454 1.388 . S
C1454 H1441 0.930 . S
C1454 C1453 1.388 . S
C1454 C1455 1.390 . S
C1455 C1454 1.390 . S
C1455 C1456 1.394 . S
C1455 C1461 1.465 . S
C1456 C1451 1.399 . S
C1456 C1455 1.394 . S
C1456 C1457 1.516 . S
C1457 C1456 1.516 . S
C1457 C1458 1.502 . S
C1457 C1459 1.561 . S
C1457 C1460 1.526 . S
C1458 H1442 0.959 . S
C1458 H1443 0.959 . S
C1458 H1444 0.961 . S
C1458 C1457 1.502 . S
C1459 H1445 0.960 . S
C1459 H1446 0.961 . S
C1459 H1447 0.959 . S
C1459 C1457 1.561 . S
C1460 C1457 1.526 . S
C1460 C1461 1.396 . S
C1460 C1465 1.390 . S
C1461 C1455 1.465 . S
C1461 C1460 1.396 . S
C1461 C1462 1.399 . S
C1462 H1448 0.929 . S
C1462 C1461 1.399 . S
C1462 C1463 1.385 . S
C1463 H1449 0.931 . S
C1463 C1462 1.385 . S
C1463 C1464 1.389 . S
C1464 C1463 1.389 . S
C1464 C1465 1.387 . S
C1465 H1450 0.930 . S
C1465 C1460 1.390 . S
C1465 C1464 1.387 . S
H1466 C1478 0.930 . S
H1467 C1480 0.930 . S
H1468 C1481 0.930 . S
H1469 C1485 0.959 . S
H1470 C1485 0.959 . S
H1471 C1485 0.961 . S
H1472 C1486 0.960 . S
H1473 C1486 0.961 1_554 S
H1474 C1486 0.959 . S
H1475 C1489 0.929 . S
H1476 C1490 0.931 . S
H1477 C1492 0.930 1_554 S
C1478 H1466 0.930 . S
C1478 C1479 1.399 . S
C1478 C1483 1.399 . S
C1479 C1478 1.399 . S
C1479 C1480 1.376 . S
C1480 H1467 0.930 . S
C1480 C1479 1.376 . S
C1480 C1481 1.388 . S
C1481 H1468 0.930 . S
C1481 C1480 1.388 . S
C1481 C1482 1.390 . S
C1482 C1481 1.390 . S
C1482 C1483 1.394 . S
C1482 C1488 1.465 . S
C1483 C1478 1.399 . S
C1483 C1482 1.394 . S
C1483 C1484 1.516 . S
C1484 C1483 1.516 . S
C1484 C1485 1.502 . S
C1484 C1486 1.561 . S
C1484 C1487 1.526 . S
C1485 H1469 0.959 . S
C1485 H1470 0.959 . S
C1485 H1471 0.961 . S
C1485 C1484 1.502 . S
C1486 H1472 0.960 . S
C1486 H1473 0.961 1_556 S
C1486 H1474 0.959 . S
C1486 C1484 1.561 . S
C1487 C1484 1.526 . S
C1487 C1488 1.396 . S
C1487 C1492 1.390 . S
C1488 C1482 1.465 . S
C1488 C1487 1.396 . S
C1488 C1489 1.399 . S
C1489 H1475 0.929 . S
C1489 C1488 1.399 . S
C1489 C1490 1.385 . S
C1490 H1476 0.931 . S
C1490 C1489 1.385 . S
C1490 C1491 1.389 . S
C1491 C1490 1.389 . S
C1491 C1492 1.387 . S
C1492 H1477 0.930 1_556 S
C1492 C1487 1.390 . S
C1492 C1491 1.387 . S
H1493 C1505 0.930 . S
H1494 C1507 0.930 . S
H1495 C1508 0.930 . S
H1496 C1512 0.959 . S
H1497 C1512 0.959 . S
H1498 C1512 0.961 . S
H1499 C1513 0.960 . S
H1500 C1513 0.961 . S
H1501 C1513 0.959 . S
H1502 C1516 0.929 . S
H1503 C1517 0.931 . S
H1504 C1519 0.930 . S
C1505 H1493 0.930 . S
C1505 C1506 1.399 . S
C1505 C1510 1.399 . S
C1506 C1505 1.399 . S
C1506 C1507 1.376 . S
C1507 H1494 0.930 . S
C1507 C1506 1.376 . S
C1507 C1508 1.388 . S
C1508 H1495 0.930 . S
C1508 C1507 1.388 . S
C1508 C1509 1.390 . S
C1509 C1508 1.390 . S
C1509 C1510 1.394 . S
C1509 C1515 1.465 . S
C1510 C1505 1.399 . S
C1510 C1509 1.394 . S
C1510 C1511 1.516 . S
C1511 C1510 1.516 . S
C1511 C1512 1.502 . S
C1511 C1513 1.561 . S
C1511 C1514 1.526 . S
C1512 H1496 0.959 . S
C1512 H1497 0.959 . S
C1512 H1498 0.961 . S
C1512 C1511 1.502 . S
C1513 H1499 0.960 . S
C1513 H1500 0.961 . S
C1513 H1501 0.959 . S
C1513 C1511 1.561 . S
C1514 C1511 1.526 . S
C1514 C1515 1.396 . S
C1514 C1519 1.390 . S
C1515 C1509 1.465 . S
C1515 C1514 1.396 . S
C1515 C1516 1.399 . S
C1516 H1502 0.929 . S
C1516 C1515 1.399 . S
C1516 C1517 1.385 . S
C1517 H1503 0.931 . S
C1517 C1516 1.385 . S
C1517 C1518 1.389 . S
C1518 C1517 1.389 . S
C1518 C1519 1.387 . S
C1519 H1504 0.930 . S
C1519 C1514 1.390 . S
C1519 C1518 1.387 . S
H1520 C1532 0.930 . S
H1521 C1534 0.930 . S
H1522 C1535 0.930 . S
H1523 C1539 0.959 . S
H1524 C1539 0.959 . S
H1525 C1539 0.961 . S
H1526 C1540 0.960 . S
H1527 C1540 0.961 . S
H1528 C1540 0.959 . S
H1529 C1543 0.929 . S
H1530 C1544 0.931 . S
H1531 C1546 0.930 . S
C1532 H1520 0.930 . S
C1532 C1533 1.404 . S
C1532 C1537 1.399 . S
C1533 C1532 1.404 . S
C1533 C1534 1.372 1_545 S
C1534 H1521 0.930 . S
C1534 C1533 1.372 1_565 S
C1534 C1535 1.388 . S
C1535 H1522 0.930 . S
C1535 C1534 1.388 . S
C1535 C1536 1.390 . S
C1536 C1535 1.390 . S
C1536 C1537 1.394 1_565 S
C1536 C1542 1.465 . S
C1537 C1532 1.399 . S
C1537 C1536 1.394 1_545 S
C1537 C1538 1.516 . S
C1538 C1537 1.516 . S
C1538 C1539 1.502 . S
C1538 C1540 1.561 . S
C1538 C1541 1.526 . S
C1539 H1523 0.959 . S
C1539 H1524 0.959 . S
C1539 H1525 0.961 . S
C1539 C1538 1.502 . S
C1540 H1526 0.960 . S
C1540 H1527 0.961 . S
C1540 H1528 0.959 . S
C1540 C1538 1.561 . S
C1541 C1538 1.526 . S
C1541 C1542 1.396 1_545 S
C1541 C1546 1.390 . S
C1542 C1536 1.465 . S
C1542 C1541 1.396 1_565 S
C1542 C1543 1.399 . S
C1543 H1529 0.929 . S
C1543 C1542 1.399 . S
C1543 C1544 1.385 . S
C1544 H1530 0.931 . S
C1544 C1543 1.385 . S
C1544 C1545 1.389 1_565 S
C1545 C1544 1.389 1_545 S
C1545 C1546 1.387 . S
C1546 H1531 0.930 . S
C1546 C1541 1.390 . S
C1546 C1545 1.387 . S
H1547 C1559 0.930 . S
H1548 C1561 0.930 . S
H1549 C1562 0.930 . S
H1550 C1566 0.959 . S
H1551 C1566 0.959 . S
H1552 C1566 0.961 . S
H1553 C1567 0.960 . S
H1554 C1567 0.961 . S
H1555 C1567 0.959 . S
H1556 C1570 0.929 . S
H1557 C1571 0.931 . S
H1558 C1573 0.930 . S
C1559 H1547 0.930 . S
C1559 C1560 1.399 . S
C1559 C1564 1.399 . S
C1560 C1559 1.399 . S
C1560 C1561 1.376 . S
C1561 H1548 0.930 . S
C1561 C1560 1.376 . S
C1561 C1562 1.388 . S
C1562 H1549 0.930 . S
C1562 C1561 1.388 . S
C1562 C1563 1.390 . S
C1563 C1562 1.390 . S
C1563 C1564 1.394 . S
C1563 C1569 1.465 . S
C1564 C1559 1.399 . S
C1564 C1563 1.394 . S
C1564 C1565 1.516 . S
C1565 C1564 1.516 . S
C1565 C1566 1.502 . S
C1565 C1567 1.561 . S
C1565 C1568 1.526 . S
C1566 H1550 0.959 . S
C1566 H1551 0.959 . S
C1566 H1552 0.961 . S
C1566 C1565 1.502 . S
C1567 H1553 0.960 . S
C1567 H1554 0.961 . S
C1567 H1555 0.959 . S
C1567 C1565 1.561 . S
C1568 C1565 1.526 . S
C1568 C1569 1.396 . S
C1568 C1573 1.390 . S
C1569 C1563 1.465 . S
C1569 C1568 1.396 . S
C1569 C1570 1.399 . S
C1570 H1556 0.929 . S
C1570 C1569 1.399 . S
C1570 C1571 1.385 . S
C1571 H1557 0.931 . S
C1571 C1570 1.385 . S
C1571 C1572 1.389 . S
C1572 C1571 1.389 . S
C1572 C1573 1.387 . S
C1573 H1558 0.930 . S
C1573 C1568 1.390 . S
C1573 C1572 1.387 . S
H1574 C1586 0.930 1_565 S
H1575 C1588 0.930 . S
H1576 C1589 0.930 . S
H1577 C1593 0.959 1_545 S
H1578 C1593 0.959 . S
H1579 C1593 0.961 . S
H1580 C1594 0.960 . S
H1581 C1594 0.961 . S
H1582 C1594 0.959 . S
H1583 C1597 0.929 . S
H1584 C1598 0.931 . S
H1585 C1600 0.902 1_565 S
C1586 H1574 0.930 1_545 S
C1586 C1587 1.399 . S
C1586 C1591 1.399 . S
C1587 C1586 1.399 . S
C1587 C1588 1.376 . S
C1588 H1575 0.930 . S
C1588 C1587 1.376 . S
C1588 C1589 1.388 . S
C1589 H1576 0.930 . S
C1589 C1588 1.388 . S
C1589 C1590 1.390 . S
C1590 C1589 1.390 . S
C1590 C1591 1.394 . S
C1590 C1596 1.465 . S
C1591 C1586 1.399 . S
C1591 C1590 1.394 . S
C1591 C1592 1.502 1_545 S
C1592 C1591 1.502 1_565 S
C1592 C1593 1.504 . S
C1592 C1594 1.583 . S
C1592 C1595 1.517 1_565 S
C1593 H1577 0.959 1_565 S
C1593 H1578 0.959 . S
C1593 H1579 0.961 . S
C1593 C1592 1.504 . S
C1594 H1580 0.960 . S
C1594 H1581 0.961 . S
C1594 H1582 0.959 . S
C1594 C1592 1.583 . S
C1595 C1592 1.517 1_545 S
C1595 C1596 1.396 . S
C1595 C1600 1.390 . S
C1596 C1590 1.465 . S
C1596 C1595 1.396 . S
C1596 C1597 1.399 . S
C1597 H1583 0.929 . S
C1597 C1596 1.399 . S
C1597 C1598 1.385 . S
C1598 H1584 0.931 . S
C1598 C1597 1.385 . S
C1598 C1599 1.389 . S
C1599 C1598 1.389 . S
C1599 C1600 1.387 . S
C1600 H1585 0.902 1_545 S
C1600 C1595 1.390 . S
C1600 C1599 1.387 . S
H1601 C1613 0.930 . S
H1602 C1615 0.930 . S
H1603 C1616 0.930 . S
H1604 C1620 0.959 . S
H1605 C1620 0.959 . S
H1606 C1620 0.961 . S
H1607 C1621 0.960 . S
H1608 C1621 0.961 . S
H1609 C1621 0.959 . S
H1610 C1624 0.929 . S
H1611 C1625 0.931 . S
H1612 C1627 0.930 . S
C1613 H1601 0.930 . S
C1613 C1614 1.399 . S
C1613 C1618 1.399 . S
C1614 C1613 1.399 . S
C1614 C1615 1.376 . S
C1615 H1602 0.930 . S
C1615 C1614 1.376 . S
C1615 C1616 1.388 . S
C1616 H1603 0.930 . S
C1616 C1615 1.388 . S
C1616 C1617 1.390 . S
C1617 C1616 1.390 . S
C1617 C1618 1.394 . S
C1617 C1623 1.465 . S
C1618 C1613 1.399 . S
C1618 C1617 1.394 . S
C1618 C1619 1.516 . S
C1619 C1618 1.516 . S
C1619 C1620 1.502 . S
C1619 C1621 1.561 . S
C1619 C1622 1.526 . S
C1620 H1604 0.959 . S
C1620 H1605 0.959 . S
C1620 H1606 0.961 . S
C1620 C1619 1.502 . S
C1621 H1607 0.960 . S
C1621 H1608 0.961 . S
C1621 H1609 0.959 . S
C1621 C1619 1.561 . S
C1622 C1619 1.526 . S
C1622 C1623 1.396 . S
C1622 C1627 1.390 . S
C1623 C1617 1.465 . S
C1623 C1622 1.396 . S
C1623 C1624 1.399 . S
C1624 H1610 0.929 . S
C1624 C1623 1.399 . S
C1624 C1625 1.385 . S
C1625 H1611 0.931 . S
C1625 C1624 1.385 . S
C1625 C1626 1.389 . S
C1626 C1625 1.389 . S
C1626 C1627 1.387 . S
C1627 H1612 0.930 . S
C1627 C1622 1.390 . S
C1627 C1626 1.387 . S
H1628 C1640 0.930 . S
H1629 C1642 0.930 . S
H1630 C1643 0.930 . S
H1631 C1647 0.959 . S
H1632 C1647 0.959 . S
H1633 C1647 0.961 . S
H1634 C1648 0.960 . S
H1635 C1648 0.961 . S
H1636 C1648 0.959 . S
H1637 C1651 0.929 . S
H1638 C1652 0.931 . S
H1639 C1654 0.930 . S
C1640 H1628 0.930 . S
C1640 C1641 1.399 . S
C1640 C1645 1.399 . S
C1641 C1640 1.399 . S
C1641 C1642 1.367 1_565 S
C1642 H1629 0.930 . S
C1642 C1641 1.367 1_545 S
C1642 C1643 1.399 . S
C1643 H1630 0.930 . S
C1643 C1642 1.399 . S
C1643 C1644 1.390 . S
C1644 C1643 1.390 . S
C1644 C1645 1.394 1_545 S
C1644 C1650 1.465 . S
C1645 C1640 1.399 . S
C1645 C1644 1.394 1_565 S
C1645 C1646 1.516 . S
C1646 C1645 1.516 . S
C1646 C1647 1.502 1_565 S
C1646 C1648 1.561 . S
C1646 C1649 1.526 1_565 S
C1647 H1631 0.959 . S
C1647 H1632 0.959 . S
C1647 H1633 0.961 . S
C1647 C1646 1.502 1_545 S
C1648 H1634 0.960 . S
C1648 H1635 0.961 . S
C1648 H1636 0.959 . S
C1648 C1646 1.561 . S
C1649 C1646 1.526 1_545 S
C1649 C1650 1.396 . S
C1649 C1654 1.390 . S
C1650 C1644 1.465 . S
C1650 C1649 1.396 . S
C1650 C1651 1.399 . S
C1651 H1637 0.929 . S
C1651 C1650 1.399 . S
C1651 C1652 1.385 . S
C1652 H1638 0.931 . S
C1652 C1651 1.385 . S
C1652 C1653 1.389 . S
C1653 C1652 1.389 . S
C1653 C1654 1.387 . S
C1654 H1639 0.930 . S
C1654 C1649 1.390 . S
C1654 C1653 1.387 . S
H1655 C1667 0.930 . S
H1656 C1669 0.930 . S
H1657 C1670 0.930 . S
H1658 C1674 0.959 . S
H1659 C1674 0.959 . S
H1660 C1674 0.961 . S
H1661 C1675 0.960 . S
H1662 C1675 0.961 . S
H1663 C1675 0.959 . S
H1664 C1678 0.929 . S
H1665 C1679 0.931 . S
H1666 C1681 0.930 . S
C1667 H1655 0.930 . S
C1667 C1668 1.399 . S
C1667 C1672 1.399 . S
C1668 C1667 1.399 . S
C1668 C1669 1.376 . S
C1669 H1656 0.930 . S
C1669 C1668 1.376 . S
C1669 C1670 1.388 . S
C1670 H1657 0.930 . S
C1670 C1669 1.388 . S
C1670 C1671 1.390 . S
C1671 C1670 1.390 . S
C1671 C1672 1.394 . S
C1671 C1677 1.465 . S
C1672 C1667 1.399 . S
C1672 C1671 1.394 . S
C1672 C1673 1.516 . S
C1673 C1672 1.516 . S
C1673 C1674 1.502 . S
C1673 C1675 1.561 . S
C1673 C1676 1.526 . S
C1674 H1658 0.959 . S
C1674 H1659 0.959 . S
C1674 H1660 0.961 . S
C1674 C1673 1.502 . S
C1675 H1661 0.960 . S
C1675 H1662 0.961 . S
C1675 H1663 0.959 . S
C1675 C1673 1.561 . S
C1676 C1673 1.526 . S
C1676 C1677 1.396 . S
C1676 C1681 1.390 . S
C1677 C1671 1.465 . S
C1677 C1676 1.396 . S
C1677 C1678 1.399 . S
C1678 H1664 0.929 . S
C1678 C1677 1.399 . S
C1678 C1679 1.385 . S
C1679 H1665 0.931 . S
C1679 C1678 1.385 . S
C1679 C1680 1.389 . S
C1680 C1679 1.389 . S
C1680 C1681 1.387 . S
C1681 H1666 0.930 . S
C1681 C1676 1.390 . S
C1681 C1680 1.387 . S
H1682 C1694 0.928 1_565 S
H1683 C1696 0.930 . S
H1684 C1697 0.930 . S
H1685 C1701 0.959 1_545 S
H1686 C1701 0.959 . S
H1687 C1701 0.961 . S
H1688 C1702 0.960 . S
H1689 C1702 0.961 . S
H1690 C1702 0.959 . S
H1691 C1705 0.929 . S
H1692 C1706 0.931 . S
H1693 C1708 0.930 . S
C1694 H1682 0.928 1_545 S
C1694 C1695 1.399 . S
C1694 C1699 1.399 . S
C1695 C1694 1.399 . S
C1695 C1696 1.376 . S
C1696 H1683 0.930 . S
C1696 C1695 1.376 . S
C1696 C1697 1.388 . S
C1697 H1684 0.930 . S
C1697 C1696 1.388 . S
C1697 C1698 1.390 . S
C1698 C1697 1.390 . S
C1698 C1699 1.394 . S
C1698 C1704 1.465 . S
C1699 C1694 1.399 . S
C1699 C1698 1.394 . S
C1699 C1700 1.516 1_545 S
C1700 C1699 1.516 1_565 S
C1700 C1701 1.502 . S
C1700 C1702 1.561 . S
C1700 C1703 1.530 . S
C1701 H1685 0.959 1_565 S
C1701 H1686 0.959 . S
C1701 H1687 0.961 . S
C1701 C1700 1.502 . S
C1702 H1688 0.960 . S
C1702 H1689 0.961 . S
C1702 H1690 0.959 . S
C1702 C1700 1.561 . S
C1703 C1700 1.530 . S
C1703 C1704 1.388 1_565 S
C1703 C1708 1.393 . S
C1704 C1698 1.465 . S
C1704 C1703 1.388 1_545 S
C1704 C1705 1.399 . S
C1705 H1691 0.929 . S
C1705 C1704 1.399 . S
C1705 C1706 1.385 . S
C1706 H1692 0.931 . S
C1706 C1705 1.385 . S
C1706 C1707 1.389 . S
C1707 C1706 1.389 . S
C1707 C1708 1.387 1_545 S
C1708 H1693 0.930 . S
C1708 C1703 1.393 . S
C1708 C1707 1.387 1_565 S
H1709 C1721 0.930 . S
H1710 C1723 0.930 . S
H1711 C1724 0.930 . S
H1712 C1728 0.959 . S
H1713 C1728 0.959 . S
H1714 C1728 0.961 . S
H1715 C1729 0.960 . S
H1716 C1729 0.961 . S
H1717 C1729 0.959 . S
H1718 C1732 0.929 . S
H1719 C1733 0.931 . S
H1720 C1735 0.930 . S
C1721 H1709 0.930 . S
C1721 C1722 1.399 . S
C1721 C1726 1.399 . S
C1722 C1721 1.399 . S
C1722 C1723 1.376 . S
C1723 H1710 0.930 . S
C1723 C1722 1.376 . S
C1723 C1724 1.388 . S
C1724 H1711 0.930 . S
C1724 C1723 1.388 . S
C1724 C1725 1.390 . S
C1725 C1724 1.390 . S
C1725 C1726 1.394 . S
C1725 C1731 1.465 . S
C1726 C1721 1.399 . S
C1726 C1725 1.394 . S
C1726 C1727 1.516 . S
C1727 C1726 1.516 . S
C1727 C1728 1.502 . S
C1727 C1729 1.561 . S
C1727 C1730 1.526 . S
C1728 H1712 0.959 . S
C1728 H1713 0.959 . S
C1728 H1714 0.961 . S
C1728 C1727 1.502 . S
C1729 H1715 0.960 . S
C1729 H1716 0.961 . S
C1729 H1717 0.959 . S
C1729 C1727 1.561 . S
C1730 C1727 1.526 . S
C1730 C1731 1.396 . S
C1730 C1735 1.390 . S
C1731 C1725 1.465 . S
C1731 C1730 1.396 . S
C1731 C1732 1.399 . S
C1732 H1718 0.929 . S
C1732 C1731 1.399 . S
C1732 C1733 1.385 . S
C1733 H1719 0.931 . S
C1733 C1732 1.385 . S
C1733 C1734 1.389 . S
C1734 C1733 1.389 . S
C1734 C1735 1.387 . S
C1735 H1720 0.930 . S
C1735 C1730 1.390 . S
C1735 C1734 1.387 . S
H1736 C1748 0.930 . S
H1737 C1750 0.930 . S
H1738 C1751 0.930 . S
H1739 C1755 0.959 . S
H1740 C1755 0.959 . S
H1741 C1755 0.961 . S
H1742 C1756 0.960 . S
H1743 C1756 0.961 . S
H1744 C1756 0.959 . S
H1745 C1759 0.929 . S
H1746 C1760 0.931 . S
H1747 C1762 0.930 . S
C1748 H1736 0.930 . S
C1748 C1749 1.399 1_554 S
C1748 C1753 1.399 . S
C1749 C1748 1.399 1_556 S
C1749 C1750 1.376 . S
C1750 H1737 0.930 . S
C1750 C1749 1.376 . S
C1750 C1751 1.388 . S
C1751 H1738 0.930 . S
C1751 C1750 1.388 . S
C1751 C1752 1.390 . S
C1752 C1751 1.390 . S
C1752 C1753 1.394 1_556 S
C1752 C1758 1.465 . S
C1753 C1748 1.399 . S
C1753 C1752 1.394 1_554 S
C1753 C1754 1.516 . S
C1754 C1753 1.516 . S
C1754 C1755 1.502 . S
C1754 C1756 1.561 . S
C1754 C1757 1.526 . S
C1755 H1739 0.959 . S
C1755 H1740 0.959 . S
C1755 H1741 0.961 . S
C1755 C1754 1.502 . S
C1756 H1742 0.960 . S
C1756 H1743 0.961 . S
C1756 H1744 0.959 . S
C1756 C1754 1.561 . S
C1757 C1754 1.526 . S
C1757 C1758 1.396 1_554 S
C1757 C1762 1.390 . S
C1758 C1752 1.465 . S
C1758 C1757 1.396 1_556 S
C1758 C1759 1.399 . S
C1759 H1745 0.929 . S
C1759 C1758 1.399 . S
C1759 C1760 1.385 . S
C1760 H1746 0.931 . S
C1760 C1759 1.385 . S
C1760 C1761 1.389 . S
C1761 C1760 1.389 . S
C1761 C1762 1.387 1_556 S
C1762 H1747 0.930 . S
C1762 C1757 1.390 . S
C1762 C1761 1.387 1_554 S
H1763 C1775 0.930 . S
H1764 C1777 0.930 . S
H1765 C1778 0.930 . S
H1766 C1782 0.959 . S
H1767 C1782 0.959 . S
H1768 C1782 0.961 . S
H1769 C1783 0.960 . S
H1770 C1783 0.961 . S
H1771 C1783 0.959 . S
H1772 C1786 0.929 . S
H1773 C1787 0.931 . S
H1774 C1789 0.930 . S
C1775 H1763 0.930 . S
C1775 C1776 1.399 1_556 S
C1775 C1780 1.399 1_556 S
C1776 C1775 1.399 1_554 S
C1776 C1777 1.376 . S
C1777 H1764 0.930 . S
C1777 C1776 1.376 . S
C1777 C1778 1.388 . S
C1778 H1765 0.930 . S
C1778 C1777 1.388 . S
C1778 C1779 1.390 . S
C1779 C1778 1.390 . S
C1779 C1780 1.394 . S
C1779 C1785 1.465 . S
C1780 C1775 1.399 1_554 S
C1780 C1779 1.394 . S
C1780 C1781 1.516 1_554 S
C1781 C1780 1.516 1_556 S
C1781 C1782 1.502 . S
C1781 C1783 1.561 . S
C1781 C1784 1.526 1_556 S
C1782 H1766 0.959 . S
C1782 H1767 0.959 . S
C1782 H1768 0.961 . S
C1782 C1781 1.502 . S
C1783 H1769 0.960 . S
C1783 H1770 0.961 . S
C1783 H1771 0.959 . S
C1783 C1781 1.561 . S
C1784 C1781 1.526 1_554 S
C1784 C1785 1.396 . S
C1784 C1789 1.390 1_554 S
C1785 C1779 1.465 . S
C1785 C1784 1.396 . S
C1785 C1786 1.399 . S
C1786 H1772 0.929 . S
C1786 C1785 1.399 . S
C1786 C1787 1.385 . S
C1787 H1773 0.931 . S
C1787 C1786 1.385 . S
C1787 C1788 1.389 . S
C1788 C1787 1.389 . S
C1788 C1789 1.387 1_554 S
C1789 H1774 0.930 . S
C1789 C1784 1.390 1_556 S
C1789 C1788 1.387 1_556 S
H1790 C1802 0.930 . S
H1791 C1804 0.930 . S
H1792 C1805 0.930 . S
H1793 C1809 0.959 . S
H1794 C1809 0.959 . S
H1795 C1809 0.961 . S
H1796 C1810 0.960 . S
H1797 C1810 0.961 . S
H1798 C1810 0.959 . S
H1799 C1813 0.929 . S
H1800 C1814 0.931 . S
H1801 C1816 0.930 . S
C1802 H1790 0.930 . S
C1802 C1803 1.399 . S
C1802 C1807 1.399 . S
C1803 C1802 1.399 . S
C1803 C1804 1.376 . S
C1804 H1791 0.930 . S
C1804 C1803 1.376 . S
C1804 C1805 1.388 . S
C1805 H1792 0.930 . S
C1805 C1804 1.388 . S
C1805 C1806 1.390 . S
C1806 C1805 1.390 . S
C1806 C1807 1.394 . S
C1806 C1812 1.465 . S
C1807 C1802 1.399 . S
C1807 C1806 1.394 . S
C1807 C1808 1.516 . S
C1808 C1807 1.516 . S
C1808 C1809 1.502 . S
C1808 C1810 1.561 . S
C1808 C1811 1.526 . S
C1809 H1793 0.959 . S
C1809 H1794 0.959 . S
C1809 H1795 0.961 . S
C1809 C1808 1.502 . S
C1810 H1796 0.960 . S
C1810 H1797 0.961 . S
C1810 H1798 0.959 . S
C1810 C1808 1.561 . S
C1811 C1808 1.526 . S
C1811 C1812 1.396 . S
C1811 C1816 1.390 . S
C1812 C1806 1.465 . S
C1812 C1811 1.396 . S
C1812 C1813 1.399 . S
C1813 H1799 0.929 . S
C1813 C1812 1.399 . S
C1813 C1814 1.385 . S
C1814 H1800 0.931 . S
C1814 C1813 1.385 . S
C1814 C1815 1.389 . S
C1815 C1814 1.389 . S
C1815 C1816 1.387 . S
C1816 H1801 0.930 . S
C1816 C1811 1.390 . S
C1816 C1815 1.387 . S
H1817 C1829 0.930 . S
H1818 C1831 0.930 . S
H1819 C1832 0.930 . S
H1820 C1836 0.959 . S
H1821 C1836 0.959 . S
H1822 C1836 0.961 . S
H1823 C1837 0.960 . S
H1824 C1837 0.961 . S
H1825 C1837 0.959 . S
H1826 C1840 0.929 . S
H1827 C1841 0.931 . S
H1828 C1843 0.930 . S
C1829 H1817 0.930 . S
C1829 C1830 1.399 . S
C1829 C1834 1.399 . S
C1830 C1829 1.399 . S
C1830 C1831 1.376 . S
C1831 H1818 0.930 . S
C1831 C1830 1.376 . S
C1831 C1832 1.388 . S
C1832 H1819 0.930 . S
C1832 C1831 1.388 . S
C1832 C1833 1.390 . S
C1833 C1832 1.390 . S
C1833 C1834 1.394 . S
C1833 C1839 1.465 . S
C1834 C1829 1.399 . S
C1834 C1833 1.394 . S
C1834 C1835 1.516 . S
C1835 C1834 1.516 . S
C1835 C1836 1.502 . S
C1835 C1837 1.561 . S
C1835 C1838 1.526 . S
C1836 H1820 0.959 . S
C1836 H1821 0.959 . S
C1836 H1822 0.961 . S
C1836 C1835 1.502 . S
C1837 H1823 0.960 . S
C1837 H1824 0.961 . S
C1837 H1825 0.959 . S
C1837 C1835 1.561 . S
C1838 C1835 1.526 . S
C1838 C1839 1.396 . S
C1838 C1843 1.390 . S
C1839 C1833 1.465 . S
C1839 C1838 1.396 . S
C1839 C1840 1.399 . S
C1840 H1826 0.929 . S
C1840 C1839 1.399 . S
C1840 C1841 1.385 . S
C1841 H1827 0.931 . S
C1841 C1840 1.385 . S
C1841 C1842 1.389 . S
C1842 C1841 1.389 . S
C1842 C1843 1.387 . S
C1843 H1828 0.930 . S
C1843 C1838 1.390 . S
C1843 C1842 1.387 . S
H1844 C1856 0.930 . S
H1845 C1858 0.930 . S
H1846 C1859 0.930 . S
H1847 C1863 0.959 . S
H1848 C1863 0.959 . S
H1849 C1863 0.961 . S
H1850 C1864 0.960 . S
H1851 C1864 0.961 . S
H1852 C1864 0.959 . S
H1853 C1867 0.929 . S
H1854 C1868 0.931 . S
H1855 C1870 0.930 . S
C1856 H1844 0.930 . S
C1856 C1857 1.399 . S
C1856 C1861 1.399 . S
C1857 C1856 1.399 . S
C1857 C1858 1.376 . S
C1858 H1845 0.930 . S
C1858 C1857 1.376 . S
C1858 C1859 1.388 . S
C1859 H1846 0.930 . S
C1859 C1858 1.388 . S
C1859 C1860 1.390 . S
C1860 C1859 1.390 . S
C1860 C1861 1.394 . S
C1860 C1866 1.465 . S
C1861 C1856 1.399 . S
C1861 C1860 1.394 . S
C1861 C1862 1.516 . S
C1862 C1861 1.516 . S
C1862 C1863 1.502 . S
C1862 C1864 1.561 . S
C1862 C1865 1.526 . S
C1863 H1847 0.959 . S
C1863 H1848 0.959 . S
C1863 H1849 0.961 . S
C1863 C1862 1.502 . S
C1864 H1850 0.960 . S
C1864 H1851 0.961 . S
C1864 H1852 0.959 . S
C1864 C1862 1.561 . S
C1865 C1862 1.526 . S
C1865 C1866 1.396 . S
C1865 C1870 1.390 . S
C1866 C1860 1.465 . S
C1866 C1865 1.396 . S
C1866 C1867 1.399 . S
C1867 H1853 0.929 . S
C1867 C1866 1.399 . S
C1867 C1868 1.385 . S
C1868 H1854 0.931 . S
C1868 C1867 1.385 . S
C1868 C1869 1.389 . S
C1869 C1868 1.389 . S
C1869 C1870 1.387 . S
C1870 H1855 0.930 . S
C1870 C1865 1.390 . S
C1870 C1869 1.387 . S
H1871 C1883 0.930 . S
H1872 C1885 0.930 . S
H1873 C1886 0.930 . S
H1874 C1890 0.959 . S
H1875 C1890 0.959 . S
H1876 C1890 0.961 . S
H1877 C1891 0.960 . S
H1878 C1891 0.961 . S
H1879 C1891 0.959 . S
H1880 C1894 0.929 . S
H1881 C1895 0.931 . S
H1882 C1897 0.930 . S
C1883 H1871 0.930 . S
C1883 C1884 1.399 . S
C1883 C1888 1.399 . S
C1884 C1883 1.399 . S
C1884 C1885 1.376 . S
C1885 H1872 0.930 . S
C1885 C1884 1.376 . S
C1885 C1886 1.388 . S
C1886 H1873 0.930 . S
C1886 C1885 1.388 . S
C1886 C1887 1.390 . S
C1887 C1886 1.390 . S
C1887 C1888 1.394 . S
C1887 C1893 1.465 . S
C1888 C1883 1.399 . S
C1888 C1887 1.394 . S
C1888 C1889 1.516 . S
C1889 C1888 1.516 . S
C1889 C1890 1.502 . S
C1889 C1891 1.561 . S
C1889 C1892 1.526 . S
C1890 H1874 0.959 . S
C1890 H1875 0.959 . S
C1890 H1876 0.961 . S
C1890 C1889 1.502 . S
C1891 H1877 0.960 . S
C1891 H1878 0.961 . S
C1891 H1879 0.959 . S
C1891 C1889 1.561 . S
C1892 C1889 1.526 . S
C1892 C1893 1.396 . S
C1892 C1897 1.390 . S
C1893 C1887 1.465 . S
C1893 C1892 1.396 . S
C1893 C1894 1.399 . S
C1894 H1880 0.929 . S
C1894 C1893 1.399 . S
C1894 C1895 1.385 . S
C1895 H1881 0.931 . S
C1895 C1894 1.385 . S
C1895 C1896 1.389 . S
C1896 C1895 1.389 . S
C1896 C1897 1.387 . S
C1897 H1882 0.930 . S
C1897 C1892 1.390 . S
C1897 C1896 1.387 . S
H1898 C1910 0.930 . S
H1899 C1912 0.930 . S
H1900 C1913 0.930 . S
H1901 C1917 0.959 . S
H1902 C1917 0.959 . S
H1903 C1917 0.961 . S
H1904 C1918 0.960 . S
H1905 C1918 0.961 . S
H1906 C1918 0.959 . S
H1907 C1921 0.929 . S
H1908 C1922 0.931 . S
H1909 C1924 0.930 . S
C1910 H1898 0.930 . S
C1910 C1911 1.399 . S
C1910 C1915 1.399 . S
C1911 C1910 1.399 . S
C1911 C1912 1.376 . S
C1912 H1899 0.930 . S
C1912 C1911 1.376 . S
C1912 C1913 1.388 . S
C1913 H1900 0.930 . S
C1913 C1912 1.388 . S
C1913 C1914 1.390 . S
C1914 C1913 1.390 . S
C1914 C1915 1.394 . S
C1914 C1920 1.465 . S
C1915 C1910 1.399 . S
C1915 C1914 1.394 . S
C1915 C1916 1.516 . S
C1916 C1915 1.516 . S
C1916 C1917 1.502 . S
C1916 C1918 1.561 . S
C1916 C1919 1.526 . S
C1917 H1901 0.959 . S
C1917 H1902 0.959 . S
C1917 H1903 0.961 . S
C1917 C1916 1.502 . S
C1918 H1904 0.960 . S
C1918 H1905 0.961 . S
C1918 H1906 0.959 . S
C1918 C1916 1.561 . S
C1919 C1916 1.526 . S
C1919 C1920 1.396 . S
C1919 C1924 1.390 . S
C1920 C1914 1.465 . S
C1920 C1919 1.396 . S
C1920 C1921 1.399 . S
C1921 H1907 0.929 . S
C1921 C1920 1.399 . S
C1921 C1922 1.385 . S
C1922 H1908 0.931 . S
C1922 C1921 1.385 . S
C1922 C1923 1.389 . S
C1923 C1922 1.389 . S
C1923 C1924 1.387 . S
C1924 H1909 0.930 . S
C1924 C1919 1.390 . S
C1924 C1923 1.387 . S
H1925 C1937 0.930 . S
H1926 C1939 0.930 . S
H1927 C1940 0.930 . S
H1928 C1944 0.959 . S
H1929 C1944 0.959 . S
H1930 C1944 0.961 . S
H1931 C1945 0.960 . S
H1932 C1945 0.961 . S
H1933 C1945 0.959 . S
H1934 C1948 0.929 . S
H1935 C1949 0.931 . S
H1936 C1951 0.930 . S
C1937 H1925 0.930 . S
C1937 C1938 1.399 . S
C1937 C1942 1.399 . S
C1938 C1937 1.399 . S
C1938 C1939 1.376 . S
C1939 H1926 0.930 . S
C1939 C1938 1.376 . S
C1939 C1940 1.388 . S
C1940 H1927 0.930 . S
C1940 C1939 1.388 . S
C1940 C1941 1.390 . S
C1941 C1940 1.390 . S
C1941 C1942 1.394 . S
C1941 C1947 1.465 . S
C1942 C1937 1.399 . S
C1942 C1941 1.394 . S
C1942 C1943 1.516 . S
C1943 C1942 1.516 . S
C1943 C1944 1.502 . S
C1943 C1945 1.561 . S
C1943 C1946 1.526 . S
C1944 H1928 0.959 . S
C1944 H1929 0.959 . S
C1944 H1930 0.961 . S
C1944 C1943 1.502 . S
C1945 H1931 0.960 . S
C1945 H1932 0.961 . S
C1945 H1933 0.959 . S
C1945 C1943 1.561 . S
C1946 C1943 1.526 . S
C1946 C1947 1.396 . S
C1946 C1951 1.390 . S
C1947 C1941 1.465 . S
C1947 C1946 1.396 . S
C1947 C1948 1.399 . S
C1948 H1934 0.929 . S
C1948 C1947 1.399 . S
C1948 C1949 1.385 . S
C1949 H1935 0.931 . S
C1949 C1948 1.385 . S
C1949 C1950 1.389 . S
C1950 C1949 1.389 . S
C1950 C1951 1.387 . S
C1951 H1936 0.930 . S
C1951 C1946 1.390 . S
C1951 C1950 1.387 . S
H1952 C1964 0.930 . S
H1953 C1966 0.930 . S
H1954 C1967 0.930 . S
H1955 C1971 0.959 . S
H1956 C1971 0.959 . S
H1957 C1971 0.961 . S
H1958 C1972 0.960 . S
H1959 C1972 0.961 . S
H1960 C1972 0.959 . S
H1961 C1975 0.929 . S
H1962 C1976 0.931 . S
H1963 C1978 0.930 . S
C1964 H1952 0.930 . S
C1964 C1965 1.399 . S
C1964 C1969 1.399 . S
C1965 C1964 1.399 . S
C1965 C1966 1.376 . S
C1966 H1953 0.930 . S
C1966 C1965 1.376 . S
C1966 C1967 1.388 . S
C1967 H1954 0.930 . S
C1967 C1966 1.388 . S
C1967 C1968 1.390 . S
C1968 C1967 1.390 . S
C1968 C1969 1.394 . S
C1968 C1974 1.465 . S
C1969 C1964 1.399 . S
C1969 C1968 1.394 . S
C1969 C1970 1.516 . S
C1970 C1969 1.516 . S
C1970 C1971 1.502 . S
C1970 C1972 1.561 . S
C1970 C1973 1.526 . S
C1971 H1955 0.959 . S
C1971 H1956 0.959 . S
C1971 H1957 0.961 . S
C1971 C1970 1.502 . S
C1972 H1958 0.960 . S
C1972 H1959 0.961 . S
C1972 H1960 0.959 . S
C1972 C1970 1.561 . S
C1973 C1970 1.526 . S
C1973 C1974 1.396 . S
C1973 C1978 1.390 . S
C1974 C1968 1.465 . S
C1974 C1973 1.396 . S
C1974 C1975 1.399 . S
C1975 H1961 0.929 . S
C1975 C1974 1.399 . S
C1975 C1976 1.385 . S
C1976 H1962 0.931 . S
C1976 C1975 1.385 . S
C1976 C1977 1.389 . S
C1977 C1976 1.389 . S
C1977 C1978 1.387 . S
C1978 H1963 0.930 . S
C1978 C1973 1.390 . S
C1978 C1977 1.387 . S
H1979 C1991 0.930 . S
H1980 C1993 0.930 . S
H1981 C1994 0.930 . S
H1982 C1998 0.959 . S
H1983 C1998 0.959 . S
H1984 C1998 0.961 . S
H1985 C1999 0.960 . S
H1986 C1999 0.961 . S
H1987 C1999 0.959 . S
H1988 C2002 0.929 . S
H1989 C2003 0.931 . S
H1990 C2005 0.930 . S
C1991 H1979 0.930 . S
C1991 C1992 1.399 . S
C1991 C1996 1.399 . S
C1992 C1991 1.399 . S
C1992 C1993 1.376 . S
C1993 H1980 0.930 . S
C1993 C1992 1.376 . S
C1993 C1994 1.388 . S
C1994 H1981 0.930 . S
C1994 C1993 1.388 . S
C1994 C1995 1.390 . S
C1995 C1994 1.390 . S
C1995 C1996 1.394 . S
C1995 C2001 1.465 . S
C1996 C1991 1.399 . S
C1996 C1995 1.394 . S
C1996 C1997 1.516 . S
C1997 C1996 1.516 . S
C1997 C1998 1.502 . S
C1997 C1999 1.561 . S
C1997 C2000 1.526 . S
C1998 H1982 0.959 . S
C1998 H1983 0.959 . S
C1998 H1984 0.961 . S
C1998 C1997 1.502 . S
C1999 H1985 0.960 . S
C1999 H1986 0.961 . S
C1999 H1987 0.959 . S
C1999 C1997 1.561 . S
C2000 C1997 1.526 . S
C2000 C2001 1.396 . S
C2000 C2005 1.390 . S
C2001 C1995 1.465 . S
C2001 C2000 1.396 . S
C2001 C2002 1.399 . S
C2002 H1988 0.929 . S
C2002 C2001 1.399 . S
C2002 C2003 1.385 . S
C2003 H1989 0.931 . S
C2003 C2002 1.385 . S
C2003 C2004 1.389 . S
C2004 C2003 1.389 . S
C2004 C2005 1.387 . S
C2005 H1990 0.930 . S
C2005 C2000 1.390 . S
C2005 C2004 1.387 . S
H2006 C2018 0.930 . S
H2007 C2020 0.930 . S
H2008 C2021 0.930 . S
H2009 C2025 0.959 . S
H2010 C2025 0.959 . S
H2011 C2025 0.961 . S
H2012 C2026 0.960 . S
H2013 C2026 0.960 1_455 S
H2014 C2026 0.959 . S
H2015 C2029 0.929 . S
H2016 C2030 0.931 . S
H2017 C2032 0.930 . S
C2018 H2006 0.930 . S
C2018 C2019 1.399 . S
C2018 C2023 1.399 . S
C2019 C2018 1.399 . S
C2019 C2020 1.376 1_455 S
C2020 H2007 0.930 . S
C2020 C2019 1.376 1_655 S
C2020 C2021 1.388 . S
C2021 H2008 0.930 . S
C2021 C2020 1.388 . S
C2021 C2022 1.391 . S
C2022 C2021 1.391 . S
C2022 C2023 1.391 1_655 S
C2022 C2028 1.470 1_655 S
C2023 C2018 1.399 . S
C2023 C2022 1.391 1_455 S
C2023 C2024 1.516 . S
C2024 C2023 1.516 . S
C2024 C2025 1.502 . S
C2024 C2026 1.561 1_455 S
C2024 C2027 1.526 . S
C2025 H2009 0.959 . S
C2025 H2010 0.959 . S
C2025 H2011 0.961 . S
C2025 C2024 1.502 . S
C2026 H2012 0.960 . S
C2026 H2013 0.960 1_655 S
C2026 H2014 0.959 . S
C2026 C2024 1.561 1_655 S
C2027 C2024 1.526 . S
C2027 C2028 1.401 . S
C2027 C2032 1.390 . S
C2028 C2022 1.470 1_455 S
C2028 C2027 1.401 . S
C2028 C2029 1.392 1_456 S
C2029 H2015 0.929 . S
C2029 C2028 1.392 1_654 S
C2029 C2030 1.385 . S
C2030 H2016 0.931 . S
C2030 C2029 1.385 . S
C2030 C2031 1.389 1_654 S
C2031 C2030 1.389 1_456 S
C2031 C2032 1.387 . S
C2032 H2017 0.930 . S
C2032 C2027 1.390 . S
C2032 C2031 1.387 . S
H2033 C2045 0.930 . S
H2034 C2047 0.930 . S
H2035 C2048 0.930 . S
H2036 C2052 0.959 . S
H2037 C2052 0.959 . S
H2038 C2052 0.961 . S
H2039 C2053 0.960 . S
H2040 C2053 0.961 . S
H2041 C2053 0.959 . S
H2042 C2056 0.929 . S
H2043 C2057 0.931 . S
H2044 C2059 0.930 . S
C2045 H2033 0.930 . S
C2045 C2046 1.399 . S
C2045 C2050 1.399 . S
C2046 C2045 1.399 . S
C2046 C2047 1.376 . S
C2047 H2034 0.930 . S
C2047 C2046 1.376 . S
C2047 C2048 1.388 . S
C2048 H2035 0.930 . S
C2048 C2047 1.388 . S
C2048 C2049 1.390 . S
C2049 C2048 1.390 . S
C2049 C2050 1.394 . S
C2049 C2055 1.465 . S
C2050 C2045 1.399 . S
C2050 C2049 1.394 . S
C2050 C2051 1.516 . S
C2051 C2050 1.516 . S
C2051 C2052 1.502 . S
C2051 C2053 1.561 . S
C2051 C2054 1.526 . S
C2052 H2036 0.959 . S
C2052 H2037 0.959 . S
C2052 H2038 0.961 . S
C2052 C2051 1.502 . S
C2053 H2039 0.960 . S
C2053 H2040 0.961 . S
C2053 H2041 0.959 . S
C2053 C2051 1.561 . S
C2054 C2051 1.526 . S
C2054 C2055 1.396 . S
C2054 C2059 1.390 . S
C2055 C2049 1.465 . S
C2055 C2054 1.396 . S
C2055 C2056 1.399 . S
C2056 H2042 0.929 . S
C2056 C2055 1.399 . S
C2056 C2057 1.385 . S
C2057 H2043 0.931 . S
C2057 C2056 1.385 . S
C2057 C2058 1.389 . S
C2058 C2057 1.389 . S
C2058 C2059 1.387 . S
C2059 H2044 0.930 . S
C2059 C2054 1.390 . S
C2059 C2058 1.387 . S
H2060 C2072 0.930 . S
H2061 C2074 0.930 . S
H2062 C2075 0.930 . S
H2063 C2079 0.959 . S
H2064 C2079 0.959 . S
H2065 C2079 0.961 . S
H2066 C2080 0.960 . S
H2067 C2080 0.961 . S
H2068 C2080 0.959 . S
H2069 C2083 0.929 . S
H2070 C2084 0.931 . S
H2071 C2086 0.930 . S
C2072 H2060 0.930 . S
C2072 C2073 1.399 . S
C2072 C2077 1.399 . S
C2073 C2072 1.399 . S
C2073 C2074 1.376 . S
C2074 H2061 0.930 . S
C2074 C2073 1.376 . S
C2074 C2075 1.388 . S
C2075 H2062 0.930 . S
C2075 C2074 1.388 . S
C2075 C2076 1.390 . S
C2076 C2075 1.390 . S
C2076 C2077 1.394 . S
C2076 C2082 1.465 . S
C2077 C2072 1.399 . S
C2077 C2076 1.394 . S
C2077 C2078 1.516 . S
C2078 C2077 1.516 . S
C2078 C2079 1.502 . S
C2078 C2080 1.561 . S
C2078 C2081 1.526 . S
C2079 H2063 0.959 . S
C2079 H2064 0.959 . S
C2079 H2065 0.961 . S
C2079 C2078 1.502 . S
C2080 H2066 0.960 . S
C2080 H2067 0.961 . S
C2080 H2068 0.959 . S
C2080 C2078 1.561 . S
C2081 C2078 1.526 . S
C2081 C2082 1.396 . S
C2081 C2086 1.390 . S
C2082 C2076 1.465 . S
C2082 C2081 1.396 . S
C2082 C2083 1.399 . S
C2083 H2069 0.929 . S
C2083 C2082 1.399 . S
C2083 C2084 1.385 . S
C2084 H2070 0.931 . S
C2084 C2083 1.385 . S
C2084 C2085 1.389 . S
C2085 C2084 1.389 . S
C2085 C2086 1.387 . S
C2086 H2071 0.930 . S
C2086 C2081 1.390 . S
C2086 C2085 1.387 . S
H2087 C2099 0.930 . S
H2088 C2101 0.930 . S
H2089 C2102 0.930 . S
H2090 C2106 0.959 . S
H2091 C2106 0.959 . S
H2092 C2106 0.961 . S
H2093 C2107 0.960 . S
H2094 C2107 0.961 . S
H2095 C2107 0.959 . S
H2096 C2110 0.929 . S
H2097 C2111 0.931 . S
H2098 C2113 0.930 . S
C2099 H2087 0.930 . S
C2099 C2100 1.399 . S
C2099 C2104 1.399 . S
C2100 C2099 1.399 . S
C2100 C2101 1.376 . S
C2101 H2088 0.930 . S
C2101 C2100 1.376 . S
C2101 C2102 1.388 . S
C2102 H2089 0.930 . S
C2102 C2101 1.388 . S
C2102 C2103 1.390 . S
C2103 C2102 1.390 . S
C2103 C2104 1.394 . S
C2103 C2109 1.465 . S
C2104 C2099 1.399 . S
C2104 C2103 1.394 . S
C2104 C2105 1.516 . S
C2105 C2104 1.516 . S
C2105 C2106 1.502 . S
C2105 C2107 1.561 . S
C2105 C2108 1.526 . S
C2106 H2090 0.959 . S
C2106 H2091 0.959 . S
C2106 H2092 0.961 . S
C2106 C2105 1.502 . S
C2107 H2093 0.960 . S
C2107 H2094 0.961 . S
C2107 H2095 0.959 . S
C2107 C2105 1.561 . S
C2108 C2105 1.526 . S
C2108 C2109 1.396 . S
C2108 C2113 1.390 . S
C2109 C2103 1.465 . S
C2109 C2108 1.396 . S
C2109 C2110 1.399 . S
C2110 H2096 0.929 . S
C2110 C2109 1.399 . S
C2110 C2111 1.385 . S
C2111 H2097 0.931 . S
C2111 C2110 1.385 . S
C2111 C2112 1.389 . S
C2112 C2111 1.389 . S
C2112 C2113 1.387 . S
C2113 H2098 0.930 . S
C2113 C2108 1.390 . S
C2113 C2112 1.387 . S
H2114 C2126 0.930 . S
H2115 C2128 0.930 . S
H2116 C2129 0.930 . S
H2117 C2133 0.959 1_455 S
H2118 C2133 0.959 . S
H2119 C2133 0.961 . S
H2120 C2134 0.960 . S
H2121 C2134 0.961 . S
H2122 C2134 0.959 . S
H2123 C2137 0.929 . S
H2124 C2138 0.931 . S
H2125 C2140 0.930 . S
C2126 H2114 0.930 . S
C2126 C2127 1.396 1_655 S
C2126 C2131 1.399 . S
C2127 C2126 1.396 1_455 S
C2127 C2128 1.387 . S
C2128 H2115 0.930 . S
C2128 C2127 1.387 . S
C2128 C2129 1.388 . S
C2129 H2116 0.930 . S
C2129 C2128 1.388 . S
C2129 C2130 1.390 . S
C2130 C2129 1.390 . S
C2130 C2131 1.394 1_455 S
C2130 C2136 1.465 . S
C2131 C2126 1.399 . S
C2131 C2130 1.394 1_655 S
C2131 C2132 1.516 . S
C2132 C2131 1.516 . S
C2132 C2133 1.502 . S
C2132 C2134 1.561 . S
C2132 C2135 1.526 . S
C2133 H2117 0.959 1_655 S
C2133 H2118 0.959 . S
C2133 H2119 0.961 . S
C2133 C2132 1.502 . S
C2134 H2120 0.960 . S
C2134 H2121 0.961 . S
C2134 H2122 0.959 . S
C2134 C2132 1.561 . S
C2135 C2132 1.526 . S
C2135 C2136 1.396 1_655 S
C2135 C2140 1.390 . S
C2136 C2130 1.465 . S
C2136 C2135 1.396 1_455 S
C2136 C2137 1.399 . S
C2137 H2123 0.929 . S
C2137 C2136 1.399 . S
C2137 C2138 1.385 . S
C2138 H2124 0.931 . S
C2138 C2137 1.385 . S
C2138 C2139 1.389 . S
C2139 C2138 1.389 . S
C2139 C2140 1.387 1_455 S
C2140 H2125 0.930 . S
C2140 C2135 1.390 . S
C2140 C2139 1.387 1_655 S
H2141 C2153 0.930 . S
H2142 C2155 0.930 . S
H2143 C2156 0.930 . S
H2144 C2160 0.959 . S
H2145 C2160 0.959 . S
H2146 C2160 0.961 . S
H2147 C2161 0.960 . S
H2148 C2161 0.961 . S
H2149 C2161 0.959 . S
H2150 C2164 0.929 . S
H2151 C2165 0.931 . S
H2152 C2167 0.930 . S
C2153 H2141 0.930 . S
C2153 C2154 1.399 . S
C2153 C2158 1.399 . S
C2154 C2153 1.399 . S
C2154 C2155 1.376 . S
C2155 H2142 0.930 . S
C2155 C2154 1.376 . S
C2155 C2156 1.388 . S
C2156 H2143 0.930 . S
C2156 C2155 1.388 . S
C2156 C2157 1.390 . S
C2157 C2156 1.390 . S
C2157 C2158 1.394 . S
C2157 C2163 1.465 . S
C2158 C2153 1.399 . S
C2158 C2157 1.394 . S
C2158 C2159 1.516 . S
C2159 C2158 1.516 . S
C2159 C2160 1.502 . S
C2159 C2161 1.561 . S
C2159 C2162 1.526 . S
C2160 H2144 0.959 . S
C2160 H2145 0.959 . S
C2160 H2146 0.961 . S
C2160 C2159 1.502 . S
C2161 H2147 0.960 . S
C2161 H2148 0.961 . S
C2161 H2149 0.959 . S
C2161 C2159 1.561 . S
C2162 C2159 1.526 . S
C2162 C2163 1.396 . S
C2162 C2167 1.390 . S
C2163 C2157 1.465 . S
C2163 C2162 1.396 . S
C2163 C2164 1.399 . S
C2164 H2150 0.929 . S
C2164 C2163 1.399 . S
C2164 C2165 1.385 . S
C2165 H2151 0.931 . S
C2165 C2164 1.385 . S
C2165 C2166 1.389 . S
C2166 C2165 1.389 . S
C2166 C2167 1.387 . S
C2167 H2152 0.930 . S
C2167 C2162 1.390 . S
C2167 C2166 1.387 . S
H2168 C2180 0.930 . S
H2169 C2182 0.930 . S
H2170 C2183 0.930 . S
H2171 C2187 0.959 . S
H2172 C2187 0.959 . S
H2173 C2187 0.961 . S
H2174 C2188 0.960 . S
H2175 C2188 0.961 . S
H2176 C2188 0.959 . S
H2177 C2191 0.929 . S
H2178 C2192 0.931 . S
H2179 C2194 0.930 . S
C2180 H2168 0.930 . S
C2180 C2181 1.399 . S
C2180 C2185 1.399 . S
C2181 C2180 1.399 . S
C2181 C2182 1.376 . S
C2182 H2169 0.930 . S
C2182 C2181 1.376 . S
C2182 C2183 1.388 . S
C2183 H2170 0.930 . S
C2183 C2182 1.388 . S
C2183 C2184 1.390 . S
C2184 C2183 1.390 . S
C2184 C2185 1.394 . S
C2184 C2190 1.465 . S
C2185 C2180 1.399 . S
C2185 C2184 1.394 . S
C2185 C2186 1.516 . S
C2186 C2185 1.516 . S
C2186 C2187 1.502 . S
C2186 C2188 1.561 . S
C2186 C2189 1.526 . S
C2187 H2171 0.959 . S
C2187 H2172 0.959 . S
C2187 H2173 0.961 . S
C2187 C2186 1.502 . S
C2188 H2174 0.960 . S
C2188 H2175 0.961 . S
C2188 H2176 0.959 . S
C2188 C2186 1.561 . S
C2189 C2186 1.526 . S
C2189 C2190 1.396 . S
C2189 C2194 1.390 . S
C2190 C2184 1.465 . S
C2190 C2189 1.396 . S
C2190 C2191 1.399 . S
C2191 H2177 0.929 . S
C2191 C2190 1.399 . S
C2191 C2192 1.385 . S
C2192 H2178 0.931 . S
C2192 C2191 1.385 . S
C2192 C2193 1.389 . S
C2193 C2192 1.389 . S
C2193 C2194 1.387 . S
C2194 H2179 0.930 . S
C2194 C2189 1.390 . S
C2194 C2193 1.387 . S
H2195 C2207 0.930 . S
H2196 C2209 0.930 . S
H2197 C2210 0.930 . S
H2198 C2214 0.959 . S
H2199 C2214 0.959 . S
H2200 C2214 0.961 . S
H2201 C2215 0.960 . S
H2202 C2215 0.961 . S
H2203 C2215 0.959 . S
H2204 C2218 0.929 . S
H2205 C2219 0.931 . S
H2206 C2221 0.930 . S
C2207 H2195 0.930 . S
C2207 C2208 1.399 . S
C2207 C2212 1.399 . S
C2208 C2207 1.399 . S
C2208 C2209 1.376 . S
C2209 H2196 0.930 . S
C2209 C2208 1.376 . S
C2209 C2210 1.388 . S
C2210 H2197 0.930 . S
C2210 C2209 1.388 . S
C2210 C2211 1.390 . S
C2211 C2210 1.390 . S
C2211 C2212 1.394 . S
C2211 C2217 1.465 . S
C2212 C2207 1.399 . S
C2212 C2211 1.394 . S
C2212 C2213 1.516 . S
C2213 C2212 1.516 . S
C2213 C2214 1.502 . S
C2213 C2215 1.561 . S
C2213 C2216 1.526 . S
C2214 H2198 0.959 . S
C2214 H2199 0.959 . S
C2214 H2200 0.961 . S
C2214 C2213 1.502 . S
C2215 H2201 0.960 . S
C2215 H2202 0.961 . S
C2215 H2203 0.959 . S
C2215 C2213 1.561 . S
C2216 C2213 1.526 . S
C2216 C2217 1.396 . S
C2216 C2221 1.390 . S
C2217 C2211 1.465 . S
C2217 C2216 1.396 . S
C2217 C2218 1.399 . S
C2218 H2204 0.929 . S
C2218 C2217 1.399 . S
C2218 C2219 1.385 . S
C2219 H2205 0.931 . S
C2219 C2218 1.385 . S
C2219 C2220 1.389 . S
C2220 C2219 1.389 . S
C2220 C2221 1.387 . S
C2221 H2206 0.930 . S
C2221 C2216 1.390 . S
C2221 C2220 1.387 . S
H2222 C2234 0.930 . S
H2223 C2236 0.930 . S
H2224 C2237 0.930 . S
H2225 C2241 0.959 . S
H2226 C2241 0.959 . S
H2227 C2241 0.961 . S
H2228 C2242 0.960 . S
H2229 C2242 0.961 . S
H2230 C2242 0.959 . S
H2231 C2245 0.929 . S
H2232 C2246 0.931 . S
H2233 C2248 0.930 . S
C2234 H2222 0.930 . S
C2234 C2235 1.399 . S
C2234 C2239 1.399 . S
C2235 C2234 1.399 . S
C2235 C2236 1.376 . S
C2236 H2223 0.930 . S
C2236 C2235 1.376 . S
C2236 C2237 1.388 . S
C2237 H2224 0.930 . S
C2237 C2236 1.388 . S
C2237 C2238 1.390 . S
C2238 C2237 1.390 . S
C2238 C2239 1.394 . S
C2238 C2244 1.465 . S
C2239 C2234 1.399 . S
C2239 C2238 1.394 . S
C2239 C2240 1.516 . S
C2240 C2239 1.516 . S
C2240 C2241 1.502 . S
C2240 C2242 1.561 . S
C2240 C2243 1.526 . S
C2241 H2225 0.959 . S
C2241 H2226 0.959 . S
C2241 H2227 0.961 . S
C2241 C2240 1.502 . S
C2242 H2228 0.960 . S
C2242 H2229 0.961 . S
C2242 H2230 0.959 . S
C2242 C2240 1.561 . S
C2243 C2240 1.526 . S
C2243 C2244 1.396 . S
C2243 C2248 1.390 . S
C2244 C2238 1.465 . S
C2244 C2243 1.396 . S
C2244 C2245 1.399 . S
C2245 H2231 0.929 . S
C2245 C2244 1.399 . S
C2245 C2246 1.385 . S
C2246 H2232 0.931 . S
C2246 C2245 1.385 . S
C2246 C2247 1.389 . S
C2247 C2246 1.389 . S
C2247 C2248 1.387 . S
C2248 H2233 0.930 . S
C2248 C2243 1.390 . S
C2248 C2247 1.387 . S
H2249 C2261 0.930 . S
H2250 C2263 0.930 . S
H2251 C2264 0.930 . S
H2252 C2268 0.959 . S
H2253 C2268 0.959 . S
H2254 C2268 0.961 . S
H2255 C2269 0.960 . S
H2256 C2269 0.961 . S
H2257 C2269 0.959 . S
H2258 C2272 0.929 . S
H2259 C2273 0.931 . S
H2260 C2275 0.930 . S
C2261 H2249 0.930 . S
C2261 C2262 1.399 . S
C2261 C2266 1.399 . S
C2262 C2261 1.399 . S
C2262 C2263 1.376 . S
C2263 H2250 0.930 . S
C2263 C2262 1.376 . S
C2263 C2264 1.388 . S
C2264 H2251 0.930 . S
C2264 C2263 1.388 . S
C2264 C2265 1.390 . S
C2265 C2264 1.390 . S
C2265 C2266 1.394 . S
C2265 C2271 1.465 . S
C2266 C2261 1.399 . S
C2266 C2265 1.394 . S
C2266 C2267 1.516 . S
C2267 C2266 1.516 . S
C2267 C2268 1.502 . S
C2267 C2269 1.561 . S
C2267 C2270 1.526 . S
C2268 H2252 0.959 . S
C2268 H2253 0.959 . S
C2268 H2254 0.961 . S
C2268 C2267 1.502 . S
C2269 H2255 0.960 . S
C2269 H2256 0.961 . S
C2269 H2257 0.959 . S
C2269 C2267 1.561 . S
C2270 C2267 1.526 . S
C2270 C2271 1.396 . S
C2270 C2275 1.390 . S
C2271 C2265 1.465 . S
C2271 C2270 1.396 . S
C2271 C2272 1.399 . S
C2272 H2258 0.929 . S
C2272 C2271 1.399 . S
C2272 C2273 1.385 . S
C2273 H2259 0.931 . S
C2273 C2272 1.385 . S
C2273 C2274 1.389 . S
C2274 C2273 1.389 . S
C2274 C2275 1.387 . S
C2275 H2260 0.930 . S
C2275 C2270 1.390 . S
C2275 C2274 1.387 . S
H2276 C2288 0.930 . S
H2277 C2290 0.930 . S
H2278 C2291 0.930 . S
H2279 C2295 0.959 . S
H2280 C2295 0.959 . S
H2281 C2295 0.961 . S
H2282 C2296 0.960 . S
H2283 C2296 0.961 . S
H2284 C2296 0.959 . S
H2285 C2299 0.929 . S
H2286 C2300 0.931 . S
H2287 C2302 0.930 . S
C2288 H2276 0.930 . S
C2288 C2289 1.399 . S
C2288 C2293 1.399 . S
C2289 C2288 1.399 . S
C2289 C2290 1.376 . S
C2290 H2277 0.930 . S
C2290 C2289 1.376 . S
C2290 C2291 1.388 . S
C2291 H2278 0.930 . S
C2291 C2290 1.388 . S
C2291 C2292 1.390 . S
C2292 C2291 1.390 . S
C2292 C2293 1.394 . S
C2292 C2298 1.465 . S
C2293 C2288 1.399 . S
C2293 C2292 1.394 . S
C2293 C2294 1.516 . S
C2294 C2293 1.516 . S
C2294 C2295 1.502 . S
C2294 C2296 1.561 . S
C2294 C2297 1.526 . S
C2295 H2279 0.959 . S
C2295 H2280 0.959 . S
C2295 H2281 0.961 . S
C2295 C2294 1.502 . S
C2296 H2282 0.960 . S
C2296 H2283 0.961 . S
C2296 H2284 0.959 . S
C2296 C2294 1.561 . S
C2297 C2294 1.526 . S
C2297 C2298 1.396 . S
C2297 C2302 1.390 . S
C2298 C2292 1.465 . S
C2298 C2297 1.396 . S
C2298 C2299 1.399 . S
C2299 H2285 0.929 . S
C2299 C2298 1.399 . S
C2299 C2300 1.385 . S
C2300 H2286 0.931 . S
C2300 C2299 1.385 . S
C2300 C2301 1.389 . S
C2301 C2300 1.389 . S
C2301 C2302 1.387 . S
C2302 H2287 0.930 . S
C2302 C2297 1.390 . S
C2302 C2301 1.387 . S
H2303 C2315 0.930 . S
H2304 C2317 0.930 . S
H2305 C2318 0.930 . S
H2306 C2322 0.959 . S
H2307 C2322 0.959 . S
H2308 C2322 0.961 . S
H2309 C2323 0.960 . S
H2310 C2323 0.961 . S
H2311 C2323 0.959 . S
H2312 C2326 0.929 . S
H2313 C2327 0.931 . S
H2314 C2329 0.930 . S
C2315 H2303 0.930 . S
C2315 C2316 1.399 . S
C2315 C2320 1.399 . S
C2316 C2315 1.399 . S
C2316 C2317 1.376 . S
C2317 H2304 0.930 . S
C2317 C2316 1.376 . S
C2317 C2318 1.388 . S
C2318 H2305 0.930 . S
C2318 C2317 1.388 . S
C2318 C2319 1.390 . S
C2319 C2318 1.390 . S
C2319 C2320 1.394 . S
C2319 C2325 1.465 . S
C2320 C2315 1.399 . S
C2320 C2319 1.394 . S
C2320 C2321 1.516 . S
C2321 C2320 1.516 . S
C2321 C2322 1.502 . S
C2321 C2323 1.561 . S
C2321 C2324 1.526 . S
C2322 H2306 0.959 . S
C2322 H2307 0.959 . S
C2322 H2308 0.961 . S
C2322 C2321 1.502 . S
C2323 H2309 0.960 . S
C2323 H2310 0.961 . S
C2323 H2311 0.959 . S
C2323 C2321 1.561 . S
C2324 C2321 1.526 . S
C2324 C2325 1.396 . S
C2324 C2329 1.390 . S
C2325 C2319 1.465 . S
C2325 C2324 1.396 . S
C2325 C2326 1.399 . S
C2326 H2312 0.929 . S
C2326 C2325 1.399 . S
C2326 C2327 1.385 . S
C2327 H2313 0.931 . S
C2327 C2326 1.385 . S
C2327 C2328 1.389 . S
C2328 C2327 1.389 . S
C2328 C2329 1.387 . S
C2329 H2314 0.930 . S
C2329 C2324 1.390 . S
C2329 C2328 1.387 . S
H2330 C2342 0.930 . S
H2331 C2344 0.930 . S
H2332 C2345 0.930 . S
H2333 C2349 0.959 . S
H2334 C2349 0.959 . S
H2335 C2349 0.961 . S
H2336 C2350 0.960 . S
H2337 C2350 0.961 . S
H2338 C2350 0.959 . S
H2339 C2353 0.929 . S
H2340 C2354 0.931 . S
H2341 C2356 0.930 . S
C2342 H2330 0.930 . S
C2342 C2343 1.399 . S
C2342 C2347 1.399 . S
C2343 C2342 1.399 . S
C2343 C2344 1.376 . S
C2344 H2331 0.930 . S
C2344 C2343 1.376 . S
C2344 C2345 1.388 . S
C2345 H2332 0.930 . S
C2345 C2344 1.388 . S
C2345 C2346 1.390 . S
C2346 C2345 1.390 . S
C2346 C2347 1.394 . S
C2346 C2352 1.465 . S
C2347 C2342 1.399 . S
C2347 C2346 1.394 . S
C2347 C2348 1.516 . S
C2348 C2347 1.516 . S
C2348 C2349 1.502 . S
C2348 C2350 1.561 . S
C2348 C2351 1.526 . S
C2349 H2333 0.959 . S
C2349 H2334 0.959 . S
C2349 H2335 0.961 . S
C2349 C2348 1.502 . S
C2350 H2336 0.960 . S
C2350 H2337 0.961 . S
C2350 H2338 0.959 . S
C2350 C2348 1.561 . S
C2351 C2348 1.526 . S
C2351 C2352 1.396 . S
C2351 C2356 1.390 . S
C2352 C2346 1.465 . S
C2352 C2351 1.396 . S
C2352 C2353 1.399 . S
C2353 H2339 0.929 . S
C2353 C2352 1.399 . S
C2353 C2354 1.385 . S
C2354 H2340 0.931 . S
C2354 C2353 1.385 . S
C2354 C2355 1.389 . S
C2355 C2354 1.389 . S
C2355 C2356 1.387 . S
C2356 H2341 0.930 . S
C2356 C2351 1.390 . S
C2356 C2355 1.387 . S
H2357 C2369 0.930 . S
H2358 C2371 0.930 . S
H2359 C2372 0.930 . S
H2360 C2376 0.959 . S
H2361 C2376 0.959 . S
H2362 C2376 0.961 . S
H2363 C2377 0.960 . S
H2364 C2377 0.961 . S
H2365 C2377 0.959 . S
H2366 C2380 0.929 . S
H2367 C2381 0.931 . S
H2368 C2383 0.930 . S
C2369 H2357 0.930 . S
C2369 C2370 1.399 . S
C2369 C2374 1.399 . S
C2370 C2369 1.399 . S
C2370 C2371 1.376 . S
C2371 H2358 0.930 . S
C2371 C2370 1.376 . S
C2371 C2372 1.388 . S
C2372 H2359 0.930 . S
C2372 C2371 1.388 . S
C2372 C2373 1.390 . S
C2373 C2372 1.390 . S
C2373 C2374 1.394 . S
C2373 C2379 1.465 . S
C2374 C2369 1.399 . S
C2374 C2373 1.394 . S
C2374 C2375 1.516 . S
C2375 C2374 1.516 . S
C2375 C2376 1.502 . S
C2375 C2377 1.561 . S
C2375 C2378 1.526 . S
C2376 H2360 0.959 . S
C2376 H2361 0.959 . S
C2376 H2362 0.961 . S
C2376 C2375 1.502 . S
C2377 H2363 0.960 . S
C2377 H2364 0.961 . S
C2377 H2365 0.959 . S
C2377 C2375 1.561 . S
C2378 C2375 1.526 . S
C2378 C2379 1.396 . S
C2378 C2383 1.390 . S
C2379 C2373 1.465 . S
C2379 C2378 1.396 . S
C2379 C2380 1.399 . S
C2380 H2366 0.929 . S
C2380 C2379 1.399 . S
C2380 C2381 1.385 . S
C2381 H2367 0.931 . S
C2381 C2380 1.385 . S
C2381 C2382 1.389 . S
C2382 C2381 1.389 . S
C2382 C2383 1.387 . S
C2383 H2368 0.930 . S
C2383 C2378 1.390 . S
C2383 C2382 1.387 . S
H2384 C2396 0.930 . S
H2385 C2398 0.930 . S
H2386 C2399 0.930 . S
H2387 C2403 0.959 . S
H2388 C2403 0.959 . S
H2389 C2403 0.961 . S
H2390 C2404 0.960 . S
H2391 C2404 0.961 . S
H2392 C2404 0.959 . S
H2393 C2407 0.929 . S
H2394 C2408 0.931 . S
H2395 C2410 0.930 . S
C2396 H2384 0.930 . S
C2396 C2397 1.399 . S
C2396 C2401 1.399 . S
C2397 C2396 1.399 . S
C2397 C2398 1.376 . S
C2398 H2385 0.930 . S
C2398 C2397 1.376 . S
C2398 C2399 1.388 . S
C2399 H2386 0.930 . S
C2399 C2398 1.388 . S
C2399 C2400 1.390 . S
C2400 C2399 1.390 . S
C2400 C2401 1.394 . S
C2400 C2406 1.465 . S
C2401 C2396 1.399 . S
C2401 C2400 1.394 . S
C2401 C2402 1.516 . S
C2402 C2401 1.516 . S
C2402 C2403 1.502 . S
C2402 C2404 1.561 . S
C2402 C2405 1.526 . S
C2403 H2387 0.959 . S
C2403 H2388 0.959 . S
C2403 H2389 0.961 . S
C2403 C2402 1.502 . S
C2404 H2390 0.960 . S
C2404 H2391 0.961 . S
C2404 H2392 0.959 . S
C2404 C2402 1.561 . S
C2405 C2402 1.526 . S
C2405 C2406 1.396 . S
C2405 C2410 1.390 . S
C2406 C2400 1.465 . S
C2406 C2405 1.396 . S
C2406 C2407 1.399 . S
C2407 H2393 0.929 . S
C2407 C2406 1.399 . S
C2407 C2408 1.385 . S
C2408 H2394 0.931 . S
C2408 C2407 1.385 . S
C2408 C2409 1.389 . S
C2409 C2408 1.389 . S
C2409 C2410 1.387 . S
C2410 H2395 0.930 . S
C2410 C2405 1.390 . S
C2410 C2409 1.387 . S
H2411 C2423 0.930 . S
H2412 C2425 0.930 . S
H2413 C2426 0.930 . S
H2414 C2430 0.959 . S
H2415 C2430 0.959 . S
H2416 C2430 0.961 . S
H2417 C2431 0.960 . S
H2418 C2431 0.961 . S
H2419 C2431 0.959 . S
H2420 C2434 0.929 . S
H2421 C2435 0.931 . S
H2422 C2437 0.930 . S
C2423 H2411 0.930 . S
C2423 C2424 1.399 . S
C2423 C2428 1.399 . S
C2424 C2423 1.399 . S
C2424 C2425 1.376 . S
C2425 H2412 0.930 . S
C2425 C2424 1.376 . S
C2425 C2426 1.388 . S
C2426 H2413 0.930 . S
C2426 C2425 1.388 . S
C2426 C2427 1.390 . S
C2427 C2426 1.390 . S
C2427 C2428 1.394 . S
C2427 C2433 1.465 . S
C2428 C2423 1.399 . S
C2428 C2427 1.394 . S
C2428 C2429 1.516 . S
C2429 C2428 1.516 . S
C2429 C2430 1.502 . S
C2429 C2431 1.561 . S
C2429 C2432 1.526 . S
C2430 H2414 0.959 . S
C2430 H2415 0.959 . S
C2430 H2416 0.961 . S
C2430 C2429 1.502 . S
C2431 H2417 0.960 . S
C2431 H2418 0.961 . S
C2431 H2419 0.959 . S
C2431 C2429 1.561 . S
C2432 C2429 1.526 . S
C2432 C2433 1.396 . S
C2432 C2437 1.390 . S
C2433 C2427 1.465 . S
C2433 C2432 1.396 . S
C2433 C2434 1.399 . S
C2434 H2420 0.929 . S
C2434 C2433 1.399 . S
C2434 C2435 1.385 . S
C2435 H2421 0.931 . S
C2435 C2434 1.385 . S
C2435 C2436 1.389 . S
C2436 C2435 1.389 . S
C2436 C2437 1.387 . S
C2437 H2422 0.930 . S
C2437 C2432 1.390 . S
C2437 C2436 1.387 . S
H2438 C2450 0.930 . S
H2439 C2452 0.930 . S
H2440 C2453 0.930 . S
H2441 C2457 0.959 . S
H2442 C2457 0.959 . S
H2443 C2457 0.961 . S
H2444 C2458 0.960 . S
H2445 C2458 0.961 . S
H2446 C2458 0.959 . S
H2447 C2461 0.929 . S
H2448 C2462 0.931 . S
H2449 C2464 0.930 . S
C2450 H2438 0.930 . S
C2450 C2451 1.399 . S
C2450 C2455 1.399 . S
C2451 C2450 1.399 . S
C2451 C2452 1.376 . S
C2452 H2439 0.930 . S
C2452 C2451 1.376 . S
C2452 C2453 1.388 . S
C2453 H2440 0.930 . S
C2453 C2452 1.388 . S
C2453 C2454 1.390 . S
C2454 C2453 1.390 . S
C2454 C2455 1.394 . S
C2454 C2460 1.465 . S
C2455 C2450 1.399 . S
C2455 C2454 1.394 . S
C2455 C2456 1.516 . S
C2456 C2455 1.516 . S
C2456 C2457 1.502 . S
C2456 C2458 1.561 . S
C2456 C2459 1.526 . S
C2457 H2441 0.959 . S
C2457 H2442 0.959 . S
C2457 H2443 0.961 . S
C2457 C2456 1.502 . S
C2458 H2444 0.960 . S
C2458 H2445 0.961 . S
C2458 H2446 0.959 . S
C2458 C2456 1.561 . S
C2459 C2456 1.526 . S
C2459 C2460 1.396 . S
C2459 C2464 1.390 . S
C2460 C2454 1.465 . S
C2460 C2459 1.396 . S
C2460 C2461 1.399 . S
C2461 H2447 0.929 . S
C2461 C2460 1.399 . S
C2461 C2462 1.385 . S
C2462 H2448 0.931 . S
C2462 C2461 1.385 . S
C2462 C2463 1.389 . S
C2463 C2462 1.389 . S
C2463 C2464 1.387 . S
C2464 H2449 0.930 . S
C2464 C2459 1.390 . S
C2464 C2463 1.387 . S
H2465 C2477 0.930 . S
H2466 C2479 0.930 1_556 S
H2467 C2480 0.957 . S
H2468 C2484 0.959 . S
H2469 C2484 0.959 . S
H2470 C2484 0.961 . S
H2471 C2485 0.960 . S
H2472 C2485 0.961 1_545 S
H2473 C2485 0.959 . S
H2474 C2488 0.929 . S
H2475 C2489 0.931 . S
H2476 C2491 0.930 . S
C2477 H2465 0.930 . S
C2477 C2478 1.399 . S
C2477 C2482 1.399 . S
C2478 C2477 1.399 . S
C2478 C2479 1.376 . S
C2479 H2466 0.930 1_554 S
C2479 C2478 1.376 . S
C2479 C2480 1.377 1_554 S
C2480 H2467 0.957 . S
C2480 C2479 1.377 1_556 S
C2480 C2481 1.376 1_556 S
C2481 C2480 1.376 1_554 S
C2481 C2482 1.394 . S
C2481 C2487 1.465 . S
C2482 C2477 1.399 . S
C2482 C2481 1.394 . S
C2482 C2483 1.516 . S
C2483 C2482 1.516 . S
C2483 C2484 1.502 1_565 S
C2483 C2485 1.561 . S
C2483 C2486 1.526 . S
C2484 H2468 0.959 . S
C2484 H2469 0.959 . S
C2484 H2470 0.961 . S
C2484 C2483 1.502 1_545 S
C2485 H2471 0.960 . S
C2485 H2472 0.961 1_565 S
C2485 H2473 0.959 . S
C2485 C2483 1.561 . S
C2486 C2483 1.526 . S
C2486 C2487 1.396 . S
C2486 C2491 1.390 1_565 S
C2487 C2481 1.465 . S
C2487 C2486 1.396 . S
C2487 C2488 1.399 1_554 S
C2488 H2474 0.929 . S
C2488 C2487 1.399 1_556 S
C2488 C2489 1.385 . S
C2489 H2475 0.931 . S
C2489 C2488 1.385 . S
C2489 C2490 1.389 1_566 S
C2490 C2489 1.389 1_544 S
C2490 C2491 1.387 . S
C2491 H2476 0.930 . S
C2491 C2486 1.390 1_545 S
C2491 C2490 1.387 . S
H2492 C2504 0.930 . S
H2493 C2506 0.930 . S
H2494 C2507 0.930 . S
H2495 C2511 0.959 . S
H2496 C2511 0.959 . S
H2497 C2511 0.961 . S
H2498 C2512 0.960 . S
H2499 C2512 0.961 . S
H2500 C2512 0.959 . S
H2501 C2515 0.929 . S
H2502 C2516 0.931 . S
H2503 C2518 0.930 . S
C2504 H2492 0.930 . S
C2504 C2505 1.399 . S
C2504 C2509 1.399 . S
C2505 C2504 1.399 . S
C2505 C2506 1.376 . S
C2506 H2493 0.930 . S
C2506 C2505 1.376 . S
C2506 C2507 1.388 . S
C2507 H2494 0.930 . S
C2507 C2506 1.388 . S
C2507 C2508 1.390 . S
C2508 C2507 1.390 . S
C2508 C2509 1.394 . S
C2508 C2514 1.465 . S
C2509 C2504 1.399 . S
C2509 C2508 1.394 . S
C2509 C2510 1.516 . S
C2510 C2509 1.516 . S
C2510 C2511 1.502 . S
C2510 C2512 1.561 . S
C2510 C2513 1.526 . S
C2511 H2495 0.959 . S
C2511 H2496 0.959 . S
C2511 H2497 0.961 . S
C2511 C2510 1.502 . S
C2512 H2498 0.960 . S
C2512 H2499 0.961 . S
C2512 H2500 0.959 . S
C2512 C2510 1.561 . S
C2513 C2510 1.526 . S
C2513 C2514 1.396 . S
C2513 C2518 1.390 . S
C2514 C2508 1.465 . S
C2514 C2513 1.396 . S
C2514 C2515 1.399 . S
C2515 H2501 0.929 . S
C2515 C2514 1.399 . S
C2515 C2516 1.385 . S
C2516 H2502 0.931 . S
C2516 C2515 1.385 . S
C2516 C2517 1.389 . S
C2517 C2516 1.389 . S
C2517 C2518 1.387 . S
C2518 H2503 0.930 . S
C2518 C2513 1.390 . S
C2518 C2517 1.387 . S
H2519 C2531 0.930 . S
H2520 C2533 0.930 . S
H2521 C2534 0.930 . S
H2522 C2538 0.959 . S
H2523 C2538 0.959 . S
H2524 C2538 0.961 . S
H2525 C2539 0.960 . S
H2526 C2539 0.961 . S
H2527 C2539 0.959 1_554 S
H2528 C2542 0.929 . S
H2529 C2543 0.931 . S
H2530 C2545 0.935 . S
C2531 H2519 0.930 . S
C2531 C2532 1.399 1_556 S
C2531 C2536 1.399 1_556 S
C2532 C2531 1.399 1_554 S
C2532 C2533 1.376 . S
C2533 H2520 0.930 . S
C2533 C2532 1.376 . S
C2533 C2534 1.388 . S
C2534 H2521 0.930 . S
C2534 C2533 1.388 . S
C2534 C2535 1.390 . S
C2535 C2534 1.390 . S
C2535 C2536 1.394 . S
C2535 C2541 1.465 . S
C2536 C2531 1.399 1_554 S
C2536 C2535 1.394 . S
C2536 C2537 1.516 1_554 S
C2537 C2536 1.516 1_556 S
C2537 C2538 1.502 . S
C2537 C2539 1.561 . S
C2537 C2540 1.526 1_556 S
C2538 H2522 0.959 . S
C2538 H2523 0.959 . S
C2538 H2524 0.961 . S
C2538 C2537 1.502 . S
C2539 H2525 0.960 . S
C2539 H2526 0.961 . S
C2539 H2527 0.959 1_556 S
C2539 C2537 1.561 . S
C2540 C2537 1.526 1_554 S
C2540 C2541 1.396 . S
C2540 C2545 1.390 . S
C2541 C2535 1.465 . S
C2541 C2540 1.396 . S
C2541 C2542 1.399 . S
C2542 H2528 0.929 . S
C2542 C2541 1.399 . S
C2542 C2543 1.385 . S
C2543 H2529 0.931 . S
C2543 C2542 1.385 . S
C2543 C2544 1.389 . S
C2544 C2543 1.389 . S
C2544 C2545 1.387 . S
C2545 H2530 0.935 . S
C2545 C2540 1.390 . S
C2545 C2544 1.387 . S
H2546 C2558 0.930 . S
H2547 C2560 0.930 . S
H2548 C2561 0.930 . S
H2549 C2565 0.959 . S
H2550 C2565 0.959 . S
H2551 C2565 0.961 . S
H2552 C2566 0.960 . S
H2553 C2566 0.961 . S
H2554 C2566 0.959 . S
H2555 C2569 0.929 . S
H2556 C2570 0.931 . S
H2557 C2572 0.930 . S
C2558 H2546 0.930 . S
C2558 C2559 1.399 . S
C2558 C2563 1.399 . S
C2559 C2558 1.399 . S
C2559 C2560 1.376 . S
C2560 H2547 0.930 . S
C2560 C2559 1.376 . S
C2560 C2561 1.388 . S
C2561 H2548 0.930 . S
C2561 C2560 1.388 . S
C2561 C2562 1.390 . S
C2562 C2561 1.390 . S
C2562 C2563 1.394 . S
C2562 C2568 1.465 . S
C2563 C2558 1.399 . S
C2563 C2562 1.394 . S
C2563 C2564 1.516 . S
C2564 C2563 1.516 . S
C2564 C2565 1.502 . S
C2564 C2566 1.561 . S
C2564 C2567 1.526 . S
C2565 H2549 0.959 . S
C2565 H2550 0.959 . S
C2565 H2551 0.961 . S
C2565 C2564 1.502 . S
C2566 H2552 0.960 . S
C2566 H2553 0.961 . S
C2566 H2554 0.959 . S
C2566 C2564 1.561 . S
C2567 C2564 1.526 . S
C2567 C2568 1.396 . S
C2567 C2572 1.390 . S
C2568 C2562 1.465 . S
C2568 C2567 1.396 . S
C2568 C2569 1.399 . S
C2569 H2555 0.929 . S
C2569 C2568 1.399 . S
C2569 C2570 1.385 . S
C2570 H2556 0.931 . S
C2570 C2569 1.385 . S
C2570 C2571 1.389 . S
C2571 C2570 1.389 . S
C2571 C2572 1.387 . S
C2572 H2557 0.930 . S
C2572 C2567 1.390 . S
C2572 C2571 1.387 . S
H2573 C2585 0.930 . S
H2574 C2587 0.930 . S
H2575 C2588 0.930 . S
H2576 C2592 0.959 . S
H2577 C2592 0.959 . S
H2578 C2592 0.961 . S
H2579 C2593 0.960 . S
H2580 C2593 0.961 . S
H2581 C2593 0.959 . S
H2582 C2596 0.929 . S
H2583 C2597 0.931 . S
H2584 C2599 0.930 . S
C2585 H2573 0.930 . S
C2585 C2586 1.399 . S
C2585 C2590 1.399 . S
C2586 C2585 1.399 . S
C2586 C2587 1.376 . S
C2587 H2574 0.930 . S
C2587 C2586 1.376 . S
C2587 C2588 1.388 . S
C2588 H2575 0.930 . S
C2588 C2587 1.388 . S
C2588 C2589 1.390 . S
C2589 C2588 1.390 . S
C2589 C2590 1.394 . S
C2589 C2595 1.465 . S
C2590 C2585 1.399 . S
C2590 C2589 1.394 . S
C2590 C2591 1.516 . S
C2591 C2590 1.516 . S
C2591 C2592 1.502 . S
C2591 C2593 1.561 . S
C2591 C2594 1.526 . S
C2592 H2576 0.959 . S
C2592 H2577 0.959 . S
C2592 H2578 0.961 . S
C2592 C2591 1.502 . S
C2593 H2579 0.960 . S
C2593 H2580 0.961 . S
C2593 H2581 0.959 . S
C2593 C2591 1.561 . S
C2594 C2591 1.526 . S
C2594 C2595 1.396 . S
C2594 C2599 1.390 . S
C2595 C2589 1.465 . S
C2595 C2594 1.396 . S
C2595 C2596 1.399 . S
C2596 H2582 0.929 . S
C2596 C2595 1.399 . S
C2596 C2597 1.385 . S
C2597 H2583 0.931 . S
C2597 C2596 1.385 . S
C2597 C2598 1.389 . S
C2598 C2597 1.389 . S
C2598 C2599 1.387 . S
C2599 H2584 0.930 . S
C2599 C2594 1.390 . S
C2599 C2598 1.387 . S
H2600 C2612 0.930 . S
H2601 C2614 0.930 . S
H2602 C2615 0.930 . S
H2603 C2619 0.959 . S
H2604 C2619 0.959 . S
H2605 C2619 0.961 . S
H2606 C2620 0.960 . S
H2607 C2620 0.961 . S
H2608 C2620 0.959 . S
H2609 C2623 0.929 . S
H2610 C2624 0.931 . S
H2611 C2626 0.930 . S
C2612 H2600 0.930 . S
C2612 C2613 1.399 . S
C2612 C2617 1.399 . S
C2613 C2612 1.399 . S
C2613 C2614 1.376 . S
C2614 H2601 0.930 . S
C2614 C2613 1.376 . S
C2614 C2615 1.388 . S
C2615 H2602 0.930 . S
C2615 C2614 1.388 . S
C2615 C2616 1.390 . S
C2616 C2615 1.390 . S
C2616 C2617 1.394 . S
C2616 C2622 1.465 . S
C2617 C2612 1.399 . S
C2617 C2616 1.394 . S
C2617 C2618 1.516 . S
C2618 C2617 1.516 . S
C2618 C2619 1.502 . S
C2618 C2620 1.561 . S
C2618 C2621 1.526 . S
C2619 H2603 0.959 . S
C2619 H2604 0.959 . S
C2619 H2605 0.961 . S
C2619 C2618 1.502 . S
C2620 H2606 0.960 . S
C2620 H2607 0.961 . S
C2620 H2608 0.959 . S
C2620 C2618 1.561 . S
C2621 C2618 1.526 . S
C2621 C2622 1.396 . S
C2621 C2626 1.390 . S
C2622 C2616 1.465 . S
C2622 C2621 1.396 . S
C2622 C2623 1.399 . S
C2623 H2609 0.929 . S
C2623 C2622 1.399 . S
C2623 C2624 1.385 . S
C2624 H2610 0.931 . S
C2624 C2623 1.385 . S
C2624 C2625 1.389 . S
C2625 C2624 1.389 . S
C2625 C2626 1.387 . S
C2626 H2611 0.930 . S
C2626 C2621 1.390 . S
C2626 C2625 1.387 . S
H2627 C2639 0.930 . S
H2628 C2641 0.930 . S
H2629 C2642 0.930 . S
H2630 C2646 0.959 . S
H2631 C2646 0.959 . S
H2632 C2646 0.961 . S
H2633 C2647 0.960 . S
H2634 C2647 0.961 . S
H2635 C2647 0.959 . S
H2636 C2650 0.929 . S
H2637 C2651 0.931 . S
H2638 C2653 0.930 . S
C2639 H2627 0.930 . S
C2639 C2640 1.399 . S
C2639 C2644 1.399 . S
C2640 C2639 1.399 . S
C2640 C2641 1.376 . S
C2641 H2628 0.930 . S
C2641 C2640 1.376 . S
C2641 C2642 1.388 . S
C2642 H2629 0.930 . S
C2642 C2641 1.388 . S
C2642 C2643 1.390 . S
C2643 C2642 1.390 . S
C2643 C2644 1.394 . S
C2643 C2649 1.465 . S
C2644 C2639 1.399 . S
C2644 C2643 1.394 . S
C2644 C2645 1.516 . S
C2645 C2644 1.516 . S
C2645 C2646 1.502 . S
C2645 C2647 1.561 . S
C2645 C2648 1.526 . S
C2646 H2630 0.959 . S
C2646 H2631 0.959 . S
C2646 H2632 0.961 . S
C2646 C2645 1.502 . S
C2647 H2633 0.960 . S
C2647 H2634 0.961 . S
C2647 H2635 0.959 . S
C2647 C2645 1.561 . S
C2648 C2645 1.526 . S
C2648 C2649 1.396 . S
C2648 C2653 1.390 . S
C2649 C2643 1.465 . S
C2649 C2648 1.396 . S
C2649 C2650 1.399 . S
C2650 H2636 0.929 . S
C2650 C2649 1.399 . S
C2650 C2651 1.385 . S
C2651 H2637 0.931 . S
C2651 C2650 1.385 . S
C2651 C2652 1.389 . S
C2652 C2651 1.389 . S
C2652 C2653 1.387 . S
C2653 H2638 0.930 . S
C2653 C2648 1.390 . S
C2653 C2652 1.387 . S
H2654 C2666 0.930 . S
H2655 C2668 0.930 . S
H2656 C2669 0.930 . S
H2657 C2673 0.959 . S
H2658 C2673 0.959 . S
H2659 C2673 0.961 . S
H2660 C2674 0.960 . S
H2661 C2674 0.961 . S
H2662 C2674 0.959 . S
H2663 C2677 0.929 . S
H2664 C2678 0.931 1_556 S
H2665 C2680 0.930 . S
C2666 H2654 0.930 . S
C2666 C2667 1.399 . S
C2666 C2671 1.399 . S
C2667 C2666 1.399 . S
C2667 C2668 1.376 . S
C2668 H2655 0.930 . S
C2668 C2667 1.376 . S
C2668 C2669 1.388 . S
C2669 H2656 0.930 . S
C2669 C2668 1.388 . S
C2669 C2670 1.390 . S
C2670 C2669 1.390 . S
C2670 C2671 1.394 . S
C2670 C2676 1.465 . S
C2671 C2666 1.399 . S
C2671 C2670 1.394 . S
C2671 C2672 1.516 . S
C2672 C2671 1.516 . S
C2672 C2673 1.502 . S
C2672 C2674 1.561 1_455 S
C2672 C2675 1.526 . S
C2673 H2657 0.959 . S
C2673 H2658 0.959 . S
C2673 H2659 0.961 . S
C2673 C2672 1.502 . S
C2674 H2660 0.960 . S
C2674 H2661 0.961 . S
C2674 H2662 0.959 . S
C2674 C2672 1.561 1_655 S
C2675 C2672 1.526 . S
C2675 C2676 1.396 . S
C2675 C2680 1.390 . S
C2676 C2670 1.465 . S
C2676 C2675 1.396 . S
C2676 C2677 1.399 . S
C2677 H2663 0.929 . S
C2677 C2676 1.399 . S
C2677 C2678 1.385 . S
C2678 H2664 0.931 1_554 S
C2678 C2677 1.385 . S
C2678 C2679 1.389 . S
C2679 C2678 1.389 . S
C2679 C2680 1.387 . S
C2680 H2665 0.930 . S
C2680 C2675 1.390 . S
C2680 C2679 1.387 . S
H2681 C2693 0.930 . S
H2682 C2695 0.930 . S
H2683 C2696 0.930 . S
H2684 C2700 0.959 . S
H2685 C2700 0.959 . S
H2686 C2700 0.961 . S
H2687 C2701 0.960 . S
H2688 C2701 0.961 . S
H2689 C2701 0.959 . S
H2690 C2704 0.929 . S
H2691 C2705 0.931 . S
H2692 C2707 0.930 . S
C2693 H2681 0.930 . S
C2693 C2694 1.399 . S
C2693 C2698 1.399 . S
C2694 C2693 1.399 . S
C2694 C2695 1.376 . S
C2695 H2682 0.930 . S
C2695 C2694 1.376 . S
C2695 C2696 1.388 . S
C2696 H2683 0.930 . S
C2696 C2695 1.388 . S
C2696 C2697 1.390 . S
C2697 C2696 1.390 . S
C2697 C2698 1.394 . S
C2697 C2703 1.465 . S
C2698 C2693 1.399 . S
C2698 C2697 1.394 . S
C2698 C2699 1.516 . S
C2699 C2698 1.516 . S
C2699 C2700 1.502 . S
C2699 C2701 1.561 . S
C2699 C2702 1.526 . S
C2700 H2684 0.959 . S
C2700 H2685 0.959 . S
C2700 H2686 0.961 . S
C2700 C2699 1.502 . S
C2701 H2687 0.960 . S
C2701 H2688 0.961 . S
C2701 H2689 0.959 . S
C2701 C2699 1.561 . S
C2702 C2699 1.526 . S
C2702 C2703 1.396 . S
C2702 C2707 1.390 . S
C2703 C2697 1.465 . S
C2703 C2702 1.396 . S
C2703 C2704 1.399 . S
C2704 H2690 0.929 . S
C2704 C2703 1.399 . S
C2704 C2705 1.385 . S
C2705 H2691 0.931 . S
C2705 C2704 1.385 . S
C2705 C2706 1.389 . S
C2706 C2705 1.389 . S
C2706 C2707 1.387 . S
C2707 H2692 0.930 . S
C2707 C2702 1.390 . S
C2707 C2706 1.387 . S
H2708 C2720 0.930 . S
H2709 C2722 0.930 . S
H2710 C2723 0.930 . S
H2711 C2727 0.959 . S
H2712 C2727 0.959 . S
H2713 C2727 0.961 . S
H2714 C2728 0.960 . S
H2715 C2728 0.961 . S
H2716 C2728 0.959 . S
H2717 C2731 0.917 1_554 S
H2718 C2732 0.931 1_554 S
H2719 C2734 0.930 . S
C2720 H2708 0.930 . S
C2720 C2721 1.399 . S
C2720 C2725 1.399 . S
C2721 C2720 1.399 . S
C2721 C2722 1.376 . S
C2722 H2709 0.930 . S
C2722 C2721 1.376 . S
C2722 C2723 1.388 . S
C2723 H2710 0.930 . S
C2723 C2722 1.388 . S
C2723 C2724 1.390 . S
C2724 C2723 1.390 . S
C2724 C2725 1.394 . S
C2724 C2730 1.465 . S
C2725 C2720 1.399 . S
C2725 C2724 1.394 . S
C2725 C2726 1.516 . S
C2726 C2725 1.516 . S
C2726 C2727 1.502 . S
C2726 C2728 1.561 . S
C2726 C2729 1.526 . S
C2727 H2711 0.959 . S
C2727 H2712 0.959 . S
C2727 H2713 0.961 . S
C2727 C2726 1.502 . S
C2728 H2714 0.960 . S
C2728 H2715 0.961 . S
C2728 H2716 0.959 . S
C2728 C2726 1.561 . S
C2729 C2726 1.526 . S
C2729 C2730 1.396 . S
C2729 C2734 1.390 . S
C2730 C2724 1.465 . S
C2730 C2729 1.396 . S
C2730 C2731 1.399 . S
C2731 H2717 0.917 1_556 S
C2731 C2730 1.399 . S
C2731 C2732 1.385 . S
C2732 H2718 0.931 1_556 S
C2732 C2731 1.385 . S
C2732 C2733 1.389 . S
C2733 C2732 1.389 . S
C2733 C2734 1.387 . S
C2734 H2719 0.930 . S
C2734 C2729 1.390 . S
C2734 C2733 1.387 . S
H2735 C2747 0.930 . S
H2736 C2749 0.930 . S
H2737 C2750 0.930 . S
H2738 C2754 0.959 . S
H2739 C2754 0.959 . S
H2740 C2754 0.961 . S
H2741 C2755 0.960 . S
H2742 C2755 0.961 . S
H2743 C2755 0.959 . S
H2744 C2758 0.929 . S
H2745 C2759 0.931 . S
H2746 C2761 0.930 . S
C2747 H2735 0.930 . S
C2747 C2748 1.399 . S
C2747 C2752 1.399 . S
C2748 C2747 1.399 . S
C2748 C2749 1.376 . S
C2749 H2736 0.930 . S
C2749 C2748 1.376 . S
C2749 C2750 1.388 . S
C2750 H2737 0.930 . S
C2750 C2749 1.388 . S
C2750 C2751 1.390 . S
C2751 C2750 1.390 . S
C2751 C2752 1.394 . S
C2751 C2757 1.465 . S
C2752 C2747 1.399 . S
C2752 C2751 1.394 . S
C2752 C2753 1.516 . S
C2753 C2752 1.516 . S
C2753 C2754 1.502 . S
C2753 C2755 1.561 . S
C2753 C2756 1.526 . S
C2754 H2738 0.959 . S
C2754 H2739 0.959 . S
C2754 H2740 0.961 . S
C2754 C2753 1.502 . S
C2755 H2741 0.960 . S
C2755 H2742 0.961 . S
C2755 H2743 0.959 . S
C2755 C2753 1.561 . S
C2756 C2753 1.526 . S
C2756 C2757 1.396 . S
C2756 C2761 1.390 . S
C2757 C2751 1.465 . S
C2757 C2756 1.396 . S
C2757 C2758 1.399 . S
C2758 H2744 0.929 . S
C2758 C2757 1.399 . S
C2758 C2759 1.385 . S
C2759 H2745 0.931 . S
C2759 C2758 1.385 . S
C2759 C2760 1.389 . S
C2760 C2759 1.389 . S
C2760 C2761 1.387 . S
C2761 H2746 0.930 . S
C2761 C2756 1.390 . S
C2761 C2760 1.387 . S
H2762 C2774 0.930 . S
H2763 C2776 0.930 . S
H2764 C2777 0.930 . S
H2765 C2781 0.959 . S
H2766 C2781 0.959 . S
H2767 C2781 0.961 . S
H2768 C2782 0.960 . S
H2769 C2782 0.961 . S
H2770 C2782 0.959 . S
H2771 C2785 0.929 . S
H2772 C2786 0.931 . S
H2773 C2788 0.930 . S
C2774 H2762 0.930 . S
C2774 C2775 1.399 . S
C2774 C2779 1.399 . S
C2775 C2774 1.399 . S
C2775 C2776 1.376 1_455 S
C2776 H2763 0.930 . S
C2776 C2775 1.376 1_655 S
C2776 C2777 1.388 . S
C2777 H2764 0.930 . S
C2777 C2776 1.388 . S
C2777 C2778 1.390 1_655 S
C2778 C2777 1.390 1_455 S
C2778 C2779 1.394 . S
C2778 C2784 1.465 . S
C2779 C2774 1.399 . S
C2779 C2778 1.394 . S
C2779 C2780 1.516 . S
C2780 C2779 1.516 . S
C2780 C2781 1.502 . S
C2780 C2782 1.561 . S
C2780 C2783 1.526 . S
C2781 H2765 0.959 . S
C2781 H2766 0.959 . S
C2781 H2767 0.961 . S
C2781 C2780 1.502 . S
C2782 H2768 0.960 . S
C2782 H2769 0.961 . S
C2782 H2770 0.959 . S
C2782 C2780 1.561 . S
C2783 C2780 1.526 . S
C2783 C2784 1.396 . S
C2783 C2788 1.390 . S
C2784 C2778 1.465 . S
C2784 C2783 1.396 . S
C2784 C2785 1.399 1_455 S
C2785 H2771 0.929 . S
C2785 C2784 1.399 1_655 S
C2785 C2786 1.385 . S
C2786 H2772 0.931 . S
C2786 C2785 1.385 . S
C2786 C2787 1.389 1_655 S
C2787 C2786 1.389 1_455 S
C2787 C2788 1.387 . S
C2788 H2773 0.930 . S
C2788 C2783 1.390 . S
C2788 C2787 1.387 . S
H2789 C2801 0.930 . S
H2790 C2803 0.930 . S
H2791 C2804 0.930 . S
H2792 C2808 0.959 . S
H2793 C2808 0.959 . S
H2794 C2808 0.961 . S
H2795 C2809 0.960 . S
H2796 C2809 0.961 . S
H2797 C2809 0.959 . S
H2798 C2812 0.929 . S
H2799 C2813 0.931 . S
H2800 C2815 0.930 . S
C2801 H2789 0.930 . S
C2801 C2802 1.399 . S
C2801 C2806 1.399 . S
C2802 C2801 1.399 . S
C2802 C2803 1.376 . S
C2803 H2790 0.930 . S
C2803 C2802 1.376 . S
C2803 C2804 1.388 . S
C2804 H2791 0.930 . S
C2804 C2803 1.388 . S
C2804 C2805 1.390 . S
C2805 C2804 1.390 . S
C2805 C2806 1.394 . S
C2805 C2811 1.465 . S
C2806 C2801 1.399 . S
C2806 C2805 1.394 . S
C2806 C2807 1.516 . S
C2807 C2806 1.516 . S
C2807 C2808 1.502 . S
C2807 C2809 1.561 . S
C2807 C2810 1.526 . S
C2808 H2792 0.959 . S
C2808 H2793 0.959 . S
C2808 H2794 0.961 . S
C2808 C2807 1.502 . S
C2809 H2795 0.960 . S
C2809 H2796 0.961 . S
C2809 H2797 0.959 . S
C2809 C2807 1.561 . S
C2810 C2807 1.526 . S
C2810 C2811 1.396 . S
C2810 C2815 1.390 . S
C2811 C2805 1.465 . S
C2811 C2810 1.396 . S
C2811 C2812 1.399 . S
C2812 H2798 0.929 . S
C2812 C2811 1.399 . S
C2812 C2813 1.385 . S
C2813 H2799 0.931 . S
C2813 C2812 1.385 . S
C2813 C2814 1.389 . S
C2814 C2813 1.389 . S
C2814 C2815 1.387 . S
C2815 H2800 0.930 . S
C2815 C2810 1.390 . S
C2815 C2814 1.387 . S
H2816 C2828 0.930 . S
H2817 C2830 0.930 . S
H2818 C2831 0.930 . S
H2819 C2835 0.959 . S
H2820 C2835 0.959 . S
H2821 C2835 0.961 . S
H2822 C2836 0.960 . S
H2823 C2836 0.961 . S
H2824 C2836 0.959 . S
H2825 C2839 0.929 . S
H2826 C2840 0.931 . S
H2827 C2842 0.930 . S
C2828 H2816 0.930 . S
C2828 C2829 1.399 . S
C2828 C2833 1.399 . S
C2829 C2828 1.399 . S
C2829 C2830 1.376 . S
C2830 H2817 0.930 . S
C2830 C2829 1.376 . S
C2830 C2831 1.388 . S
C2831 H2818 0.930 . S
C2831 C2830 1.388 . S
C2831 C2832 1.390 . S
C2832 C2831 1.390 . S
C2832 C2833 1.394 . S
C2832 C2838 1.465 . S
C2833 C2828 1.399 . S
C2833 C2832 1.394 . S
C2833 C2834 1.516 . S
C2834 C2833 1.516 . S
C2834 C2835 1.502 . S
C2834 C2836 1.561 . S
C2834 C2837 1.526 . S
C2835 H2819 0.959 . S
C2835 H2820 0.959 . S
C2835 H2821 0.961 . S
C2835 C2834 1.502 . S
C2836 H2822 0.960 . S
C2836 H2823 0.961 . S
C2836 H2824 0.959 . S
C2836 C2834 1.561 . S
C2837 C2834 1.526 . S
C2837 C2838 1.396 . S
C2837 C2842 1.390 . S
C2838 C2832 1.465 . S
C2838 C2837 1.396 . S
C2838 C2839 1.399 . S
C2839 H2825 0.929 . S
C2839 C2838 1.399 . S
C2839 C2840 1.385 . S
C2840 H2826 0.931 . S
C2840 C2839 1.385 . S
C2840 C2841 1.389 . S
C2841 C2840 1.389 . S
C2841 C2842 1.387 . S
C2842 H2827 0.930 . S
C2842 C2837 1.390 . S
C2842 C2841 1.387 . S
H2843 C2855 0.930 . S
H2844 C2857 0.930 . S
H2845 C2858 0.930 . S
H2846 C2862 0.959 . S
H2847 C2862 0.959 . S
H2848 C2862 0.961 . S
H2849 C2863 0.960 . S
H2850 C2863 0.961 . S
H2851 C2863 0.959 . S
H2852 C2866 0.929 . S
H2853 C2867 0.931 . S
H2854 C2869 0.930 . S
C2855 H2843 0.930 . S
C2855 C2856 1.399 . S
C2855 C2860 1.399 . S
C2856 C2855 1.399 . S
C2856 C2857 1.376 . S
C2857 H2844 0.930 . S
C2857 C2856 1.376 . S
C2857 C2858 1.388 . S
C2858 H2845 0.930 . S
C2858 C2857 1.388 . S
C2858 C2859 1.390 . S
C2859 C2858 1.390 . S
C2859 C2860 1.394 . S
C2859 C2865 1.465 . S
C2860 C2855 1.399 . S
C2860 C2859 1.394 . S
C2860 C2861 1.516 . S
C2861 C2860 1.516 . S
C2861 C2862 1.502 . S
C2861 C2863 1.561 . S
C2861 C2864 1.526 . S
C2862 H2846 0.959 . S
C2862 H2847 0.959 . S
C2862 H2848 0.961 . S
C2862 C2861 1.502 . S
C2863 H2849 0.960 . S
C2863 H2850 0.961 . S
C2863 H2851 0.959 . S
C2863 C2861 1.561 . S
C2864 C2861 1.526 . S
C2864 C2865 1.396 . S
C2864 C2869 1.390 . S
C2865 C2859 1.465 . S
C2865 C2864 1.396 . S
C2865 C2866 1.399 . S
C2866 H2852 0.929 . S
C2866 C2865 1.399 . S
C2866 C2867 1.385 . S
C2867 H2853 0.931 . S
C2867 C2866 1.385 . S
C2867 C2868 1.389 . S
C2868 C2867 1.389 . S
C2868 C2869 1.387 . S
C2869 H2854 0.930 . S
C2869 C2864 1.390 . S
C2869 C2868 1.387 . S
H2870 C2882 0.930 . S
H2871 C2884 0.930 . S
H2872 C2885 0.930 . S
H2873 C2889 0.959 . S
H2874 C2889 0.959 . S
H2875 C2889 0.961 . S
H2876 C2890 0.960 . S
H2877 C2890 0.961 . S
H2878 C2890 0.959 . S
H2879 C2893 0.929 . S
H2880 C2894 0.931 . S
H2881 C2896 0.930 . S
C2882 H2870 0.930 . S
C2882 C2883 1.399 . S
C2882 C2887 1.399 . S
C2883 C2882 1.399 . S
C2883 C2884 1.376 . S
C2884 H2871 0.930 . S
C2884 C2883 1.376 . S
C2884 C2885 1.388 . S
C2885 H2872 0.930 . S
C2885 C2884 1.388 . S
C2885 C2886 1.390 . S
C2886 C2885 1.390 . S
C2886 C2887 1.394 . S
C2886 C2892 1.465 . S
C2887 C2882 1.399 . S
C2887 C2886 1.394 . S
C2887 C2888 1.516 . S
C2888 C2887 1.516 . S
C2888 C2889 1.502 . S
C2888 C2890 1.561 . S
C2888 C2891 1.526 . S
C2889 H2873 0.959 . S
C2889 H2874 0.959 . S
C2889 H2875 0.961 . S
C2889 C2888 1.502 . S
C2890 H2876 0.960 . S
C2890 H2877 0.961 . S
C2890 H2878 0.959 . S
C2890 C2888 1.561 . S
C2891 C2888 1.526 . S
C2891 C2892 1.396 . S
C2891 C2896 1.390 . S
C2892 C2886 1.465 . S
C2892 C2891 1.396 . S
C2892 C2893 1.399 . S
C2893 H2879 0.929 . S
C2893 C2892 1.399 . S
C2893 C2894 1.385 . S
C2894 H2880 0.931 . S
C2894 C2893 1.385 . S
C2894 C2895 1.389 . S
C2895 C2894 1.389 . S
C2895 C2896 1.387 . S
C2896 H2881 0.930 . S
C2896 C2891 1.390 . S
C2896 C2895 1.387 . S
H2897 C2909 0.930 . S
H2898 C2911 0.930 . S
H2899 C2912 0.930 . S
H2900 C2916 0.959 . S
H2901 C2916 0.959 . S
H2902 C2916 0.961 . S
H2903 C2917 0.960 . S
H2904 C2917 0.961 . S
H2905 C2917 0.959 . S
H2906 C2920 0.929 . S
H2907 C2921 0.931 . S
H2908 C2923 0.930 . S
C2909 H2897 0.930 . S
C2909 C2910 1.399 . S
C2909 C2914 1.399 . S
C2910 C2909 1.399 . S
C2910 C2911 1.376 . S
C2911 H2898 0.930 . S
C2911 C2910 1.376 . S
C2911 C2912 1.388 . S
C2912 H2899 0.930 . S
C2912 C2911 1.388 . S
C2912 C2913 1.390 . S
C2913 C2912 1.390 . S
C2913 C2914 1.394 . S
C2913 C2919 1.465 . S
C2914 C2909 1.399 . S
C2914 C2913 1.394 . S
C2914 C2915 1.516 . S
C2915 C2914 1.516 . S
C2915 C2916 1.502 . S
C2915 C2917 1.561 . S
C2915 C2918 1.526 . S
C2916 H2900 0.959 . S
C2916 H2901 0.959 . S
C2916 H2902 0.961 . S
C2916 C2915 1.502 . S
C2917 H2903 0.960 . S
C2917 H2904 0.961 . S
C2917 H2905 0.959 . S
C2917 C2915 1.561 . S
C2918 C2915 1.526 . S
C2918 C2919 1.396 . S
C2918 C2923 1.390 . S
C2919 C2913 1.465 . S
C2919 C2918 1.396 . S
C2919 C2920 1.399 . S
C2920 H2906 0.929 . S
C2920 C2919 1.399 . S
C2920 C2921 1.385 . S
C2921 H2907 0.931 . S
C2921 C2920 1.385 . S
C2921 C2922 1.389 . S
C2922 C2921 1.389 . S
C2922 C2923 1.387 . S
C2923 H2908 0.930 . S
C2923 C2918 1.390 . S
C2923 C2922 1.387 . S
H2924 C2936 0.930 . S
H2925 C2938 0.930 . S
H2926 C2939 0.930 . S
H2927 C2943 0.959 . S
H2928 C2943 0.959 . S
H2929 C2943 0.961 . S
H2930 C2944 0.960 . S
H2931 C2944 0.961 . S
H2932 C2944 0.959 . S
H2933 C2947 0.929 . S
H2934 C2948 0.931 . S
H2935 C2950 0.930 . S
C2936 H2924 0.930 . S
C2936 C2937 1.399 . S
C2936 C2941 1.399 . S
C2937 C2936 1.399 . S
C2937 C2938 1.376 . S
C2938 H2925 0.930 . S
C2938 C2937 1.376 . S
C2938 C2939 1.388 . S
C2939 H2926 0.930 . S
C2939 C2938 1.388 . S
C2939 C2940 1.390 . S
C2940 C2939 1.390 . S
C2940 C2941 1.394 . S
C2940 C2946 1.465 . S
C2941 C2936 1.399 . S
C2941 C2940 1.394 . S
C2941 C2942 1.516 . S
C2942 C2941 1.516 . S
C2942 C2943 1.502 . S
C2942 C2944 1.561 . S
C2942 C2945 1.526 . S
C2943 H2927 0.959 . S
C2943 H2928 0.959 . S
C2943 H2929 0.961 . S
C2943 C2942 1.502 . S
C2944 H2930 0.960 . S
C2944 H2931 0.961 . S
C2944 H2932 0.959 . S
C2944 C2942 1.561 . S
C2945 C2942 1.526 . S
C2945 C2946 1.396 . S
C2945 C2950 1.390 . S
C2946 C2940 1.465 . S
C2946 C2945 1.396 . S
C2946 C2947 1.399 . S
C2947 H2933 0.929 . S
C2947 C2946 1.399 . S
C2947 C2948 1.385 . S
C2948 H2934 0.931 . S
C2948 C2947 1.385 . S
C2948 C2949 1.389 . S
C2949 C2948 1.389 . S
C2949 C2950 1.387 . S
C2950 H2935 0.930 . S
C2950 C2945 1.390 . S
C2950 C2949 1.387 . S
H2951 C2963 0.930 . S
H2952 C2965 0.930 . S
H2953 C2966 0.930 . S
H2954 C2970 0.959 . S
H2955 C2970 0.959 . S
H2956 C2970 0.961 . S
H2957 C2971 0.960 . S
H2958 C2971 0.961 . S
H2959 C2971 0.959 . S
H2960 C2974 0.929 . S
H2961 C2975 0.931 . S
H2962 C2977 0.930 . S
C2963 H2951 0.930 . S
C2963 C2964 1.399 . S
C2963 C2968 1.399 . S
C2964 C2963 1.399 . S
C2964 C2965 1.376 . S
C2965 H2952 0.930 . S
C2965 C2964 1.376 . S
C2965 C2966 1.388 . S
C2966 H2953 0.930 . S
C2966 C2965 1.388 . S
C2966 C2967 1.390 . S
C2967 C2966 1.390 . S
C2967 C2968 1.394 . S
C2967 C2973 1.465 . S
C2968 C2963 1.399 . S
C2968 C2967 1.394 . S
C2968 C2969 1.516 . S
C2969 C2968 1.516 . S
C2969 C2970 1.502 . S
C2969 C2971 1.561 . S
C2969 C2972 1.526 . S
C2970 H2954 0.959 . S
C2970 H2955 0.959 . S
C2970 H2956 0.961 . S
C2970 C2969 1.502 . S
C2971 H2957 0.960 . S
C2971 H2958 0.961 . S
C2971 H2959 0.959 . S
C2971 C2969 1.561 . S
C2972 C2969 1.526 . S
C2972 C2973 1.396 . S
C2972 C2977 1.390 . S
C2973 C2967 1.465 . S
C2973 C2972 1.396 . S
C2973 C2974 1.399 . S
C2974 H2960 0.929 . S
C2974 C2973 1.399 . S
C2974 C2975 1.385 . S
C2975 H2961 0.931 . S
C2975 C2974 1.385 . S
C2975 C2976 1.389 . S
C2976 C2975 1.389 . S
C2976 C2977 1.387 . S
C2977 H2962 0.930 . S
C2977 C2972 1.390 . S
C2977 C2976 1.387 . S
H2978 C2990 0.930 . S
H2979 C2992 0.930 . S
H2980 C2993 0.930 . S
H2981 C2997 0.959 . S
H2982 C2997 0.959 . S
H2983 C2997 0.961 . S
H2984 C2998 0.960 . S
H2985 C2998 0.961 . S
H2986 C2998 0.959 . S
H2987 C3001 0.929 . S
H2988 C3002 0.931 . S
H2989 C3004 0.930 . S
C2990 H2978 0.930 . S
C2990 C2991 1.399 . S
C2990 C2995 1.399 . S
C2991 C2990 1.399 . S
C2991 C2992 1.376 . S
C2992 H2979 0.930 . S
C2992 C2991 1.376 . S
C2992 C2993 1.388 . S
C2993 H2980 0.930 . S
C2993 C2992 1.388 . S
C2993 C2994 1.390 . S
C2994 C2993 1.390 . S
C2994 C2995 1.394 . S
C2994 C3000 1.465 . S
C2995 C2990 1.399 . S
C2995 C2994 1.394 . S
C2995 C2996 1.516 . S
C2996 C2995 1.516 . S
C2996 C2997 1.502 . S
C2996 C2998 1.561 . S
C2996 C2999 1.526 . S
C2997 H2981 0.959 . S
C2997 H2982 0.959 . S
C2997 H2983 0.961 . S
C2997 C2996 1.502 . S
C2998 H2984 0.960 . S
C2998 H2985 0.961 . S
C2998 H2986 0.959 . S
C2998 C2996 1.561 . S
C2999 C2996 1.526 . S
C2999 C3000 1.396 . S
C2999 C3004 1.390 . S
C3000 C2994 1.465 . S
C3000 C2999 1.396 . S
C3000 C3001 1.399 . S
C3001 H2987 0.929 . S
C3001 C3000 1.399 . S
C3001 C3002 1.385 . S
C3002 H2988 0.931 . S
C3002 C3001 1.385 . S
C3002 C3003 1.389 . S
C3003 C3002 1.389 . S
C3003 C3004 1.387 . S
C3004 H2989 0.930 . S
C3004 C2999 1.390 . S
C3004 C3003 1.387 . S
H3005 C3017 0.930 . S
H3006 C3019 0.930 . S
H3007 C3020 0.930 . S
H3008 C3024 0.959 . S
H3009 C3024 0.959 . S
H3010 C3024 0.961 . S
H3011 C3025 0.960 . S
H3012 C3025 0.961 . S
H3013 C3025 0.959 . S
H3014 C3028 0.929 . S
H3015 C3029 0.931 . S
H3016 C3031 0.930 . S
C3017 H3005 0.930 . S
C3017 C3018 1.399 . S
C3017 C3022 1.399 . S
C3018 C3017 1.399 . S
C3018 C3019 1.376 . S
C3019 H3006 0.930 . S
C3019 C3018 1.376 . S
C3019 C3020 1.388 . S
C3020 H3007 0.930 . S
C3020 C3019 1.388 . S
C3020 C3021 1.390 . S
C3021 C3020 1.390 . S
C3021 C3022 1.394 . S
C3021 C3027 1.465 . S
C3022 C3017 1.399 . S
C3022 C3021 1.394 . S
C3022 C3023 1.516 . S
C3023 C3022 1.516 . S
C3023 C3024 1.502 . S
C3023 C3025 1.561 . S
C3023 C3026 1.526 . S
C3024 H3008 0.959 . S
C3024 H3009 0.959 . S
C3024 H3010 0.961 . S
C3024 C3023 1.502 . S
C3025 H3011 0.960 . S
C3025 H3012 0.961 . S
C3025 H3013 0.959 . S
C3025 C3023 1.561 . S
C3026 C3023 1.526 . S
C3026 C3027 1.396 . S
C3026 C3031 1.390 . S
C3027 C3021 1.465 . S
C3027 C3026 1.396 . S
C3027 C3028 1.399 . S
C3028 H3014 0.929 . S
C3028 C3027 1.399 . S
C3028 C3029 1.385 . S
C3029 H3015 0.931 . S
C3029 C3028 1.385 . S
C3029 C3030 1.389 . S
C3030 C3029 1.389 . S
C3030 C3031 1.387 . S
C3031 H3016 0.930 . S
C3031 C3026 1.390 . S
C3031 C3030 1.387 . S
H3032 C3044 0.930 . S
H3033 C3046 0.930 . S
H3034 C3047 0.930 . S
H3035 C3051 0.959 . S
H3036 C3051 0.959 . S
H3037 C3051 0.961 . S
H3038 C3052 0.960 . S
H3039 C3052 0.961 . S
H3040 C3052 0.959 . S
H3041 C3055 0.929 . S
H3042 C3056 0.931 . S
H3043 C3058 0.930 . S
C3044 H3032 0.930 . S
C3044 C3045 1.399 . S
C3044 C3049 1.399 . S
C3045 C3044 1.399 . S
C3045 C3046 1.376 . S
C3046 H3033 0.930 . S
C3046 C3045 1.376 . S
C3046 C3047 1.388 . S
C3047 H3034 0.930 . S
C3047 C3046 1.388 . S
C3047 C3048 1.390 . S
C3048 C3047 1.390 . S
C3048 C3049 1.394 . S
C3048 C3054 1.465 . S
C3049 C3044 1.399 . S
C3049 C3048 1.394 . S
C3049 C3050 1.516 . S
C3050 C3049 1.516 . S
C3050 C3051 1.502 . S
C3050 C3052 1.561 . S
C3050 C3053 1.526 . S
C3051 H3035 0.959 . S
C3051 H3036 0.959 . S
C3051 H3037 0.961 . S
C3051 C3050 1.502 . S
C3052 H3038 0.960 . S
C3052 H3039 0.961 . S
C3052 H3040 0.959 . S
C3052 C3050 1.561 . S
C3053 C3050 1.526 . S
C3053 C3054 1.396 . S
C3053 C3058 1.390 . S
C3054 C3048 1.465 . S
C3054 C3053 1.396 . S
C3054 C3055 1.399 . S
C3055 H3041 0.929 . S
C3055 C3054 1.399 . S
C3055 C3056 1.385 . S
C3056 H3042 0.931 . S
C3056 C3055 1.385 . S
C3056 C3057 1.389 . S
C3057 C3056 1.389 . S
C3057 C3058 1.387 . S
C3058 H3043 0.930 . S
C3058 C3053 1.390 . S
C3058 C3057 1.387 . S
H3059 C3071 0.930 . S
H3060 C3073 0.930 . S
H3061 C3074 0.930 . S
H3062 C3078 0.959 . S
H3063 C3078 0.959 . S
H3064 C3078 0.961 . S
H3065 C3079 0.960 . S
H3066 C3079 0.961 . S
H3067 C3079 0.959 . S
H3068 C3082 0.929 . S
H3069 C3083 0.922 1_545 S
H3070 C3085 0.930 . S
C3071 H3059 0.930 . S
C3071 C3072 1.399 . S
C3071 C3076 1.399 . S
C3072 C3071 1.399 . S
C3072 C3073 1.376 . S
C3073 H3060 0.930 . S
C3073 C3072 1.376 . S
C3073 C3074 1.388 . S
C3074 H3061 0.930 . S
C3074 C3073 1.388 . S
C3074 C3075 1.390 . S
C3075 C3074 1.390 . S
C3075 C3076 1.394 . S
C3075 C3081 1.465 . S
C3076 C3071 1.399 . S
C3076 C3075 1.394 . S
C3076 C3077 1.516 . S
C3077 C3076 1.516 . S
C3077 C3078 1.502 . S
C3077 C3079 1.561 . S
C3077 C3080 1.526 . S
C3078 H3062 0.959 . S
C3078 H3063 0.959 . S
C3078 H3064 0.961 . S
C3078 C3077 1.502 . S
C3079 H3065 0.960 . S
C3079 H3066 0.961 . S
C3079 H3067 0.959 . S
C3079 C3077 1.561 . S
C3080 C3077 1.526 . S
C3080 C3081 1.396 . S
C3080 C3085 1.390 . S
C3081 C3075 1.465 . S
C3081 C3080 1.396 . S
C3081 C3082 1.399 . S
C3082 H3068 0.929 . S
C3082 C3081 1.399 . S
C3082 C3083 1.391 . S
C3083 H3069 0.922 1_565 S
C3083 C3082 1.391 . S
C3083 C3084 1.393 . S
C3084 C3083 1.393 . S
C3084 C3085 1.387 . S
C3085 H3070 0.930 . S
C3085 C3080 1.390 . S
C3085 C3084 1.387 . S
H3086 C3098 0.930 . S
H3087 C3100 0.930 . S
H3088 C3101 0.930 . S
H3089 C3105 0.959 . S
H3090 C3105 0.959 . S
H3091 C3105 0.961 . S
H3092 C3106 0.960 . S
H3093 C3106 0.961 . S
H3094 C3106 0.959 . S
H3095 C3109 0.929 . S
H3096 C3110 0.931 . S
H3097 C3112 0.930 . S
C3098 H3086 0.930 . S
C3098 C3099 1.399 . S
C3098 C3103 1.399 . S
C3099 C3098 1.399 . S
C3099 C3100 1.376 . S
C3100 H3087 0.930 . S
C3100 C3099 1.376 . S
C3100 C3101 1.388 . S
C3101 H3088 0.930 . S
C3101 C3100 1.388 . S
C3101 C3102 1.390 . S
C3102 C3101 1.390 . S
C3102 C3103 1.394 . S
C3102 C3108 1.465 . S
C3103 C3098 1.399 . S
C3103 C3102 1.394 . S
C3103 C3104 1.516 . S
C3104 C3103 1.516 . S
C3104 C3105 1.502 . S
C3104 C3106 1.561 . S
C3104 C3107 1.526 . S
C3105 H3089 0.959 . S
C3105 H3090 0.959 . S
C3105 H3091 0.961 . S
C3105 C3104 1.502 . S
C3106 H3092 0.960 . S
C3106 H3093 0.961 . S
C3106 H3094 0.959 . S
C3106 C3104 1.561 . S
C3107 C3104 1.526 . S
C3107 C3108 1.396 . S
C3107 C3112 1.390 . S
C3108 C3102 1.465 . S
C3108 C3107 1.396 . S
C3108 C3109 1.399 . S
C3109 H3095 0.929 . S
C3109 C3108 1.399 . S
C3109 C3110 1.385 . S
C3110 H3096 0.931 . S
C3110 C3109 1.385 . S
C3110 C3111 1.389 . S
C3111 C3110 1.389 . S
C3111 C3112 1.387 . S
C3112 H3097 0.930 . S
C3112 C3107 1.390 . S
C3112 C3111 1.387 . S
H3113 C3125 0.930 . S
H3114 C3127 0.930 . S
H3115 C3128 0.930 . S
H3116 C3132 0.959 . S
H3117 C3132 0.959 . S
H3118 C3132 0.961 . S
H3119 C3133 0.960 . S
H3120 C3133 0.961 . S
H3121 C3133 0.959 . S
H3122 C3136 0.929 . S
H3123 C3137 0.931 . S
H3124 C3139 0.930 . S
C3125 H3113 0.930 . S
C3125 C3126 1.399 1_554 S
C3125 C3130 1.399 . S
C3126 C3125 1.399 1_556 S
C3126 C3127 1.376 . S
C3127 H3114 0.930 . S
C3127 C3126 1.376 . S
C3127 C3128 1.388 . S
C3128 H3115 0.930 . S
C3128 C3127 1.388 . S
C3128 C3129 1.390 . S
C3129 C3128 1.390 . S
C3129 C3130 1.394 1_556 S
C3129 C3135 1.465 . S
C3130 C3125 1.399 . S
C3130 C3129 1.394 1_554 S
C3130 C3131 1.516 . S
C3131 C3130 1.516 . S
C3131 C3132 1.502 . S
C3131 C3133 1.561 . S
C3131 C3134 1.526 . S
C3132 H3116 0.959 . S
C3132 H3117 0.959 . S
C3132 H3118 0.961 . S
C3132 C3131 1.502 . S
C3133 H3119 0.960 . S
C3133 H3120 0.961 . S
C3133 H3121 0.959 . S
C3133 C3131 1.561 . S
C3134 C3131 1.526 . S
C3134 C3135 1.396 1_554 S
C3134 C3139 1.390 . S
C3135 C3129 1.465 . S
C3135 C3134 1.396 1_556 S
C3135 C3136 1.399 . S
C3136 H3122 0.929 . S
C3136 C3135 1.399 . S
C3136 C3137 1.385 . S
C3137 H3123 0.931 . S
C3137 C3136 1.385 . S
C3137 C3138 1.389 1_556 S
C3138 C3137 1.389 1_554 S
C3138 C3139 1.387 . S
C3139 H3124 0.930 . S
C3139 C3134 1.390 . S
C3139 C3138 1.387 . S
H3140 C3152 0.930 . S
H3141 C3154 0.930 . S
H3142 C3155 0.930 . S
H3143 C3159 0.959 . S
H3144 C3159 0.959 . S
H3145 C3159 0.961 . S
H3146 C3160 0.960 . S
H3147 C3160 0.961 . S
H3148 C3160 0.959 . S
H3149 C3163 0.929 . S
H3150 C3164 0.931 . S
H3151 C3166 0.930 . S
C3152 H3140 0.930 . S
C3152 C3153 1.399 . S
C3152 C3157 1.399 . S
C3153 C3152 1.399 . S
C3153 C3154 1.376 . S
C3154 H3141 0.930 . S
C3154 C3153 1.376 . S
C3154 C3155 1.388 . S
C3155 H3142 0.930 . S
C3155 C3154 1.388 . S
C3155 C3156 1.390 . S
C3156 C3155 1.390 . S
C3156 C3157 1.394 . S
C3156 C3162 1.465 . S
C3157 C3152 1.399 . S
C3157 C3156 1.394 . S
C3157 C3158 1.516 . S
C3158 C3157 1.516 . S
C3158 C3159 1.502 . S
C3158 C3160 1.561 . S
C3158 C3161 1.526 . S
C3159 H3143 0.959 . S
C3159 H3144 0.959 . S
C3159 H3145 0.961 . S
C3159 C3158 1.502 . S
C3160 H3146 0.960 . S
C3160 H3147 0.961 . S
C3160 H3148 0.959 . S
C3160 C3158 1.561 . S
C3161 C3158 1.526 . S
C3161 C3162 1.396 . S
C3161 C3166 1.390 . S
C3162 C3156 1.465 . S
C3162 C3161 1.396 . S
C3162 C3163 1.399 . S
C3163 H3149 0.929 . S
C3163 C3162 1.399 . S
C3163 C3164 1.385 . S
C3164 H3150 0.931 . S
C3164 C3163 1.385 . S
C3164 C3165 1.389 . S
C3165 C3164 1.389 . S
C3165 C3166 1.387 . S
C3166 H3151 0.930 . S
C3166 C3161 1.390 . S
C3166 C3165 1.387 . S
H3167 C3179 0.930 . S
H3168 C3181 0.930 . S
H3169 C3182 0.930 . S
H3170 C3186 0.959 . S
H3171 C3186 0.959 . S
H3172 C3186 0.961 . S
H3173 C3187 0.960 . S
H3174 C3187 0.961 . S
H3175 C3187 0.959 . S
H3176 C3190 0.929 . S
H3177 C3191 0.931 . S
H3178 C3193 0.930 . S
C3179 H3167 0.930 . S
C3179 C3180 1.399 1_556 S
C3179 C3184 1.399 . S
C3180 C3179 1.399 1_554 S
C3180 C3181 1.376 . S
C3181 H3168 0.930 . S
C3181 C3180 1.376 . S
C3181 C3182 1.388 . S
C3182 H3169 0.930 . S
C3182 C3181 1.388 . S
C3182 C3183 1.390 . S
C3183 C3182 1.390 . S
C3183 C3184 1.394 1_554 S
C3183 C3189 1.465 . S
C3184 C3179 1.399 . S
C3184 C3183 1.394 1_556 S
C3184 C3185 1.516 . S
C3185 C3184 1.516 . S
C3185 C3186 1.502 . S
C3185 C3187 1.561 . S
C3185 C3188 1.526 . S
C3186 H3170 0.959 . S
C3186 H3171 0.959 . S
C3186 H3172 0.961 . S
C3186 C3185 1.502 . S
C3187 H3173 0.960 . S
C3187 H3174 0.961 . S
C3187 H3175 0.959 . S
C3187 C3185 1.561 . S
C3188 C3185 1.526 . S
C3188 C3189 1.396 1_556 S
C3188 C3193 1.390 . S
C3189 C3183 1.465 . S
C3189 C3188 1.396 1_554 S
C3189 C3190 1.399 . S
C3190 H3176 0.929 . S
C3190 C3189 1.399 . S
C3190 C3191 1.385 . S
C3191 H3177 0.931 . S
C3191 C3190 1.385 . S
C3191 C3192 1.389 1_554 S
C3192 C3191 1.389 1_556 S
C3192 C3193 1.387 . S
C3193 H3178 0.930 . S
C3193 C3188 1.390 . S
C3193 C3192 1.387 . S
H3194 C3206 0.930 . S
H3195 C3208 0.930 . S
H3196 C3209 0.930 . S
H3197 C3213 0.959 . S
H3198 C3213 0.959 . S
H3199 C3213 0.961 . S
H3200 C3214 0.960 . S
H3201 C3214 0.961 . S
H3202 C3214 0.959 . S
H3203 C3217 0.929 . S
H3204 C3218 0.931 . S
H3205 C3220 0.930 . S
C3206 H3194 0.930 . S
C3206 C3207 1.399 . S
C3206 C3211 1.399 . S
C3207 C3206 1.399 . S
C3207 C3208 1.376 . S
C3208 H3195 0.930 . S
C3208 C3207 1.376 . S
C3208 C3209 1.388 . S
C3209 H3196 0.930 . S
C3209 C3208 1.388 . S
C3209 C3210 1.390 . S
C3210 C3209 1.390 . S
C3210 C3211 1.394 . S
C3210 C3216 1.465 . S
C3211 C3206 1.399 . S
C3211 C3210 1.394 . S
C3211 C3212 1.516 . S
C3212 C3211 1.516 . S
C3212 C3213 1.502 . S
C3212 C3214 1.561 . S
C3212 C3215 1.526 . S
C3213 H3197 0.959 . S
C3213 H3198 0.959 . S
C3213 H3199 0.961 . S
C3213 C3212 1.502 . S
C3214 H3200 0.960 . S
C3214 H3201 0.961 . S
C3214 H3202 0.959 . S
C3214 C3212 1.561 . S
C3215 C3212 1.526 . S
C3215 C3216 1.396 . S
C3215 C3220 1.390 . S
C3216 C3210 1.465 . S
C3216 C3215 1.396 . S
C3216 C3217 1.399 . S
C3217 H3203 0.929 . S
C3217 C3216 1.399 . S
C3217 C3218 1.385 . S
C3218 H3204 0.931 . S
C3218 C3217 1.385 . S
C3218 C3219 1.389 . S
C3219 C3218 1.389 . S
C3219 C3220 1.387 . S
C3220 H3205 0.930 . S
C3220 C3215 1.390 . S
C3220 C3219 1.387 . S
H3221 C3233 0.930 . S
H3222 C3235 0.930 . S
H3223 C3236 0.930 . S
H3224 C3240 0.959 . S
H3225 C3240 0.959 . S
H3226 C3240 0.961 . S
H3227 C3241 0.960 . S
H3228 C3241 0.961 . S
H3229 C3241 0.959 . S
H3230 C3244 0.929 . S
H3231 C3245 0.931 . S
H3232 C3247 0.930 . S
C3233 H3221 0.930 . S
C3233 C3234 1.399 . S
C3233 C3238 1.399 . S
C3234 C3233 1.399 . S
C3234 C3235 1.376 . S
C3235 H3222 0.930 . S
C3235 C3234 1.376 . S
C3235 C3236 1.388 . S
C3236 H3223 0.930 . S
C3236 C3235 1.388 . S
C3236 C3237 1.390 . S
C3237 C3236 1.390 . S
C3237 C3238 1.394 . S
C3237 C3243 1.465 . S
C3238 C3233 1.399 . S
C3238 C3237 1.394 . S
C3238 C3239 1.516 . S
C3239 C3238 1.516 . S
C3239 C3240 1.502 . S
C3239 C3241 1.561 . S
C3239 C3242 1.526 . S
C3240 H3224 0.959 . S
C3240 H3225 0.959 . S
C3240 H3226 0.961 . S
C3240 C3239 1.502 . S
C3241 H3227 0.960 . S
C3241 H3228 0.961 . S
C3241 H3229 0.959 . S
C3241 C3239 1.561 . S
C3242 C3239 1.526 . S
C3242 C3243 1.396 . S
C3242 C3247 1.390 . S
C3243 C3237 1.465 . S
C3243 C3242 1.396 . S
C3243 C3244 1.399 . S
C3244 H3230 0.929 . S
C3244 C3243 1.399 . S
C3244 C3245 1.385 . S
C3245 H3231 0.931 . S
C3245 C3244 1.385 . S
C3245 C3246 1.389 . S
C3246 C3245 1.389 . S
C3246 C3247 1.387 . S
C3247 H3232 0.930 . S
C3247 C3242 1.390 . S
C3247 C3246 1.387 . S
C669 C105 1.607 . S
C681 C354 1.517 1_556 S
C696 C65 1.638 . S
C708 C365 1.633 . S
C723 C73 1.047 . S
C735 C394 0.971 . S
C762 C397 1.461 . S
C750 C92 1.457 . S
C777 C17 1.674 . S
C789 C435 1.599 . S
C816 C438 0.995 . S
C804 C37 0.984 . S
C843 C465 1.480 . S
C831 C49 1.440 . S
C858 C8 1.660 . S
C870 C494 1.568 . S
C897 C345 1.573 1_655 S
C885 C231 1.551 . S
C912 C241 0.880 . S
C924 C357 0.934 . S
C951 C385 1.590 . S
C939 C273 1.575 . S
C978 C414 1.147 . S
C966 C171 1.134 . S
C993 C227 1.038 . S
C1005 C418 1.027 . S
C1032 C444 1.620 . S
C1020 C245 1.574 . S
C1059 C457 0.733 . S
C1047 C269 0.798 . S
C1086 C485 1.593 . S
C1074 C175 1.582 . S
C1113 C337 1.489 1_565 S
C1101 C162 1.530 . S
C1128 C289 1.744 . S
C1140 C504 1.739 1_554 S
C1167 C535 1.503 . S
C1155 C330 1.580 . S
C1194 C554 0.903 . S
C1182 C317 0.930 . S
C1209 C120 1.328 . S
C1221 C477 1.316 . S
C1236 C134 1.486 . S
C1248 C377 1.473 . S
C1263 C331 1.562 . S
C1275 C565 1.541 . S
C1302 C594 0.869 . S
C1290 C303 0.898 . S
C1329 C355 1.607 . S
C1317 C59 1.637 . S
C1356 C584 1.657 . S
C1344 C107 1.654 . S
C1371 C91 1.066 . S
C1383 C395 1.015 . S
C1398 C78 1.458 . S
C1410 C558 1.476 . S
C1437 C434 1.652 . S
C1425 C7 1.661 . S
C1452 C51 1.026 . S
C1464 C517 1.020 . S
C1491 C464 1.536 1_556 S
C1479 C31 1.535 . S
C1518 C615 1.615 . S
C1506 C22 1.654 . S
C1545 C344 1.578 . S
C1533 C143 1.590 . S
C1572 C578 0.882 . S
C1560 C315 0.913 . S
C1587 C115 1.614 . S
C1599 C384 1.594 . S
C1614 C287 1.111 . S
C1626 C575 1.130 . S
C1641 C147 0.979 . S
C1653 C417 1.063 . S
C1680 C525 1.645 . S
C1668 C311 1.653 . S
C1695 C119 0.861 . S
C1707 C458 0.812 . S
C1722 C283 1.634 . S
C1734 C604 1.616 . S
C1749 C190 1.526 . S
C1761 C338 1.545 . S
C1776 C177 1.771 . S
C1788 C505 1.719 . S
C1803 C260 1.624 . S
C1815 C454 1.510 . S
C1830 C247 1.005 . S
C1842 C555 1.000 . S
C1869 C598 1.367 . S
C1857 C274 1.321 . S
C1884 C218 1.530 . S
C1896 C378 1.493 . S
C1923 C404 1.595 . S
C1911 C261 1.568 . S
C1950 C375 0.886 . S
C1938 C205 0.946 . S
C1965 C77 1.598 . S
C1977 C634 1.531 . S
C2004 C585 1.644 . S
C1992 C93 1.640 . S
C2019 C101 1.051 . S
C2031 C654 1.065 . S
C2046 C64 1.464 . S
C2058 C557 1.464 . S
C2073 C45 1.674 . S
C2085 C515 1.644 . S
C2112 C518 1.006 . S
C2100 C9 0.977 . S
C2139 C545 1.481 . S
C2127 C21 1.419 . S
C2166 C614 1.554 . S
C2154 C36 1.666 . S
C2193 C625 1.556 . S
C2181 C259 1.479 . S
C2208 C185 0.907 . S
C2220 C577 0.905 . S
C2247 C645 1.590 . S
C2235 C203 1.575 . S
C2274 C574 1.135 . S
C2262 C213 1.145 . S
C2301 C498 1.010 . S
C2289 C255 0.991 . S
C2316 C189 1.585 . S
C2328 C524 1.602 . S
C2355 C537 0.730 . S
C2343 C199 0.794 . S
C2370 C217 1.601 . S
C2382 C605 1.607 . S
C2409 C617 1.489 . S
C2397 C316 1.525 . S
C2424 C135 1.738 . S
C2436 C424 1.696 . S
C2463 C455 1.529 . S
C2451 C148 1.620 . S
C2490 C474 0.899 . S
C2478 C163 0.932 . S
C2517 C597 1.318 . S
C2505 C302 1.326 . S
C2532 C288 1.491 . S
C2544 C637 1.514 . S
C2571 C405 1.551 . S
C2559 C149 1.551 . S
C2598 C374 0.912 . S
C2586 C121 0.933 . S
C2613 C87 1.635 . S
C2625 C635 1.612 . S
C2652 C364 1.660 . S
C2640 C79 1.672 . S
C2667 C63 1.065 . S
C2679 C655 1.111 . S
C2694 C106 1.458 . S
C2706 C398 1.473 . S
C2721 C35 1.642 . S
C2733 C514 1.654 . S
C2760 C437 1.040 . S
C2748 C23 1.048 . S
C2775 C3 1.525 . S
C2787 C544 1.530 . S
C2802 C50 1.653 . S
C2814 C495 1.623 . S
C2841 C624 1.589 . S
C2829 C325 1.590 . S
C2856 C161 0.907 . S
C2868 C358 0.885 . S
C2895 C644 1.602 1_655 S
C2883 C297 1.607 . S
C2910 C133 1.171 . S
C2922 C415 1.187 . S
C2937 C329 0.933 . S
C2949 C497 1.046 . S
C2976 C445 1.615 . S
C2964 C157 1.649 . S
C2991 C301 0.866 . S
C3003 C538 0.805 . S
C3030 C484 1.640 . S
C3018 C129 1.630 . S
C3057 C618 1.545 . S
C3045 C246 1.525 . S
C3084 C425 1.725 1_565 S
C3072 C219 1.773 . S
C3099 C232 1.575 . S
C3111 C534 1.588 . S
C3138 C475 0.981 . S
C3126 C191 0.995 . S
C3153 C204 1.351 . S
C3165 C478 1.371 . S
C3180 C176 1.529 . S
C3192 C638 1.492 . S
C3219 C564 1.597 . S
C3207 C233 1.569 . S
C3246 C595 0.942 . S
C3234 C275 0.945 . S
