# Generated by pormake.
# Topology gar, (4,6)-cn, num edge types: 1
# Building blocks:
#     Node 0, Type 0, BuildingBlock: TATPOV_clean_sbu_0, # of connection points: 4
#     Node 1, Type 0, BuildingBlock: TATPOV_clean_sbu_0, # of connection points: 4
#     Node 2, Type 0, BuildingBlock: TATPOV_clean_sbu_0, # of connection points: 4
#     Node 3, Type 0, BuildingBlock: TATPOV_clean_sbu_0, # of connection points: 4
#     Node 4, Type 0, BuildingBlock: TATPOV_clean_sbu_0, # of connection points: 4
#     Node 5, Type 0, BuildingBlock: TATPOV_clean_sbu_0, # of connection points: 4
#     Node 6, Type 0, BuildingBlock: TATPOV_clean_sbu_0, # of connection points: 4
#     Node 7, Type 0, BuildingBlock: TATPOV_clean_sbu_0, # of connection points: 4
#     Node 8, Type 0, BuildingBlock: TATPOV_clean_sbu_0, # of connection points: 4
#     Node 9, Type 0, BuildingBlock: TATPOV_clean_sbu_0, # of connection points: 4
#     Node 10, Type 0, BuildingBlock: TATPOV_clean_sbu_0, # of connection points: 4
#     Node 11, Type 0, BuildingBlock: TATPOV_clean_sbu_0, # of connection points: 4
#     Node 12, Type 0, BuildingBlock: TATPOV_clean_sbu_0, # of connection points: 4
#     Node 13, Type 0, BuildingBlock: TATPOV_clean_sbu_0, # of connection points: 4
#     Node 14, Type 0, BuildingBlock: TATPOV_clean_sbu_0, # of connection points: 4
#     Node 15, Type 0, BuildingBlock: TATPOV_clean_sbu_0, # of connection points: 4
#     Node 16, Type 0, BuildingBlock: TATPOV_clean_sbu_0, # of connection points: 4
#     Node 17, Type 0, BuildingBlock: TATPOV_clean_sbu_0, # of connection points: 4
#     Node 18, Type 0, BuildingBlock: TATPOV_clean_sbu_0, # of connection points: 4
#     Node 19, Type 0, BuildingBlock: TATPOV_clean_sbu_0, # of connection points: 4
#     Node 20, Type 0, BuildingBlock: TATPOV_clean_sbu_0, # of connection points: 4
#     Node 21, Type 0, BuildingBlock: TATPOV_clean_sbu_0, # of connection points: 4
#     Node 22, Type 0, BuildingBlock: TATPOV_clean_sbu_0, # of connection points: 4
#     Node 23, Type 0, BuildingBlock: TATPOV_clean_sbu_0, # of connection points: 4
#     Node 24, Type 1, BuildingBlock: KUMBUR_clean_sbu_1, # of connection points: 6
#     Node 25, Type 1, BuildingBlock: KUMBUR_clean_sbu_1, # of connection points: 6
#     Node 26, Type 1, BuildingBlock: KUMBUR_clean_sbu_1, # of connection points: 6
#     Node 27, Type 1, BuildingBlock: KUMBUR_clean_sbu_1, # of connection points: 6
#     Node 28, Type 1, BuildingBlock: KUMBUR_clean_sbu_1, # of connection points: 6
#     Node 29, Type 1, BuildingBlock: KUMBUR_clean_sbu_1, # of connection points: 6
#     Node 30, Type 1, BuildingBlock: KUMBUR_clean_sbu_1, # of connection points: 6
#     Node 31, Type 1, BuildingBlock: KUMBUR_clean_sbu_1, # of connection points: 6
#     Node 32, Type 1, BuildingBlock: KUMBUR_clean_sbu_1, # of connection points: 6
#     Node 33, Type 1, BuildingBlock: KUMBUR_clean_sbu_1, # of connection points: 6
#     Node 34, Type 1, BuildingBlock: KUMBUR_clean_sbu_1, # of connection points: 6
#     Node 35, Type 1, BuildingBlock: KUMBUR_clean_sbu_1, # of connection points: 6
#     Node 36, Type 1, BuildingBlock: KUMBUR_clean_sbu_1, # of connection points: 6
#     Node 37, Type 1, BuildingBlock: KUMBUR_clean_sbu_1, # of connection points: 6
#     Node 38, Type 1, BuildingBlock: KUMBUR_clean_sbu_1, # of connection points: 6
#     Node 39, Type 1, BuildingBlock: KUMBUR_clean_sbu_1, # of connection points: 6
#     Edge 40, Type (0, 1), BuildingBlock: MIFKUJ_clean_linker_0, # of connection points: 2
#     Edge 41, Type (0, 1), BuildingBlock: MIFKUJ_clean_linker_0, # of connection points: 2
#     Edge 42, Type (0, 1), BuildingBlock: MIFKUJ_clean_linker_0, # of connection points: 2
#     Edge 43, Type (0, 1), BuildingBlock: MIFKUJ_clean_linker_0, # of connection points: 2
#     Edge 44, Type (0, 1), BuildingBlock: MIFKUJ_clean_linker_0, # of connection points: 2
#     Edge 45, Type (0, 1), BuildingBlock: MIFKUJ_clean_linker_0, # of connection points: 2
#     Edge 46, Type (0, 1), BuildingBlock: MIFKUJ_clean_linker_0, # of connection points: 2
#     Edge 47, Type (0, 1), BuildingBlock: MIFKUJ_clean_linker_0, # of connection points: 2
#     Edge 48, Type (0, 1), BuildingBlock: MIFKUJ_clean_linker_0, # of connection points: 2
#     Edge 49, Type (0, 1), BuildingBlock: MIFKUJ_clean_linker_0, # of connection points: 2
#     Edge 50, Type (0, 1), BuildingBlock: MIFKUJ_clean_linker_0, # of connection points: 2
#     Edge 51, Type (0, 1), BuildingBlock: MIFKUJ_clean_linker_0, # of connection points: 2
#     Edge 52, Type (0, 1), BuildingBlock: MIFKUJ_clean_linker_0, # of connection points: 2
#     Edge 53, Type (0, 1), BuildingBlock: MIFKUJ_clean_linker_0, # of connection points: 2
#     Edge 54, Type (0, 1), BuildingBlock: MIFKUJ_clean_linker_0, # of connection points: 2
#     Edge 55, Type (0, 1), BuildingBlock: MIFKUJ_clean_linker_0, # of connection points: 2
#     Edge 56, Type (0, 1), BuildingBlock: MIFKUJ_clean_linker_0, # of connection points: 2
#     Edge 57, Type (0, 1), BuildingBlock: MIFKUJ_clean_linker_0, # of connection points: 2
#     Edge 58, Type (0, 1), BuildingBlock: MIFKUJ_clean_linker_0, # of connection points: 2
#     Edge 59, Type (0, 1), BuildingBlock: MIFKUJ_clean_linker_0, # of connection points: 2
#     Edge 60, Type (0, 1), BuildingBlock: MIFKUJ_clean_linker_0, # of connection points: 2
#     Edge 61, Type (0, 1), BuildingBlock: MIFKUJ_clean_linker_0, # of connection points: 2
#     Edge 62, Type (0, 1), BuildingBlock: MIFKUJ_clean_linker_0, # of connection points: 2
#     Edge 63, Type (0, 1), BuildingBlock: MIFKUJ_clean_linker_0, # of connection points: 2
#     Edge 64, Type (0, 1), BuildingBlock: MIFKUJ_clean_linker_0, # of connection points: 2
#     Edge 65, Type (0, 1), BuildingBlock: MIFKUJ_clean_linker_0, # of connection points: 2
#     Edge 66, Type (0, 1), BuildingBlock: MIFKUJ_clean_linker_0, # of connection points: 2
#     Edge 67, Type (0, 1), BuildingBlock: MIFKUJ_clean_linker_0, # of connection points: 2
#     Edge 68, Type (0, 1), BuildingBlock: MIFKUJ_clean_linker_0, # of connection points: 2
#     Edge 69, Type (0, 1), BuildingBlock: MIFKUJ_clean_linker_0, # of connection points: 2
#     Edge 70, Type (0, 1), BuildingBlock: MIFKUJ_clean_linker_0, # of connection points: 2
#     Edge 71, Type (0, 1), BuildingBlock: MIFKUJ_clean_linker_0, # of connection points: 2
#     Edge 72, Type (0, 1), BuildingBlock: MIFKUJ_clean_linker_0, # of connection points: 2
#     Edge 73, Type (0, 1), BuildingBlock: MIFKUJ_clean_linker_0, # of connection points: 2
#     Edge 74, Type (0, 1), BuildingBlock: MIFKUJ_clean_linker_0, # of connection points: 2
#     Edge 75, Type (0, 1), BuildingBlock: MIFKUJ_clean_linker_0, # of connection points: 2
#     Edge 76, Type (0, 1), BuildingBlock: MIFKUJ_clean_linker_0, # of connection points: 2
#     Edge 77, Type (0, 1), BuildingBlock: MIFKUJ_clean_linker_0, # of connection points: 2
#     Edge 78, Type (0, 1), BuildingBlock: MIFKUJ_clean_linker_0, # of connection points: 2
#     Edge 79, Type (0, 1), BuildingBlock: MIFKUJ_clean_linker_0, # of connection points: 2
#     Edge 80, Type (0, 1), BuildingBlock: MIFKUJ_clean_linker_0, # of connection points: 2
#     Edge 81, Type (0, 1), BuildingBlock: MIFKUJ_clean_linker_0, # of connection points: 2
#     Edge 82, Type (0, 1), BuildingBlock: MIFKUJ_clean_linker_0, # of connection points: 2
#     Edge 83, Type (0, 1), BuildingBlock: MIFKUJ_clean_linker_0, # of connection points: 2
#     Edge 84, Type (0, 1), BuildingBlock: MIFKUJ_clean_linker_0, # of connection points: 2
#     Edge 85, Type (0, 1), BuildingBlock: MIFKUJ_clean_linker_0, # of connection points: 2
#     Edge 86, Type (0, 1), BuildingBlock: MIFKUJ_clean_linker_0, # of connection points: 2
#     Edge 87, Type (0, 1), BuildingBlock: MIFKUJ_clean_linker_0, # of connection points: 2
#     Edge 88, Type (0, 1), BuildingBlock: MIFKUJ_clean_linker_0, # of connection points: 2
#     Edge 89, Type (0, 1), BuildingBlock: MIFKUJ_clean_linker_0, # of connection points: 2
#     Edge 90, Type (0, 1), BuildingBlock: MIFKUJ_clean_linker_0, # of connection points: 2
#     Edge 91, Type (0, 1), BuildingBlock: MIFKUJ_clean_linker_0, # of connection points: 2
#     Edge 92, Type (0, 1), BuildingBlock: MIFKUJ_clean_linker_0, # of connection points: 2
#     Edge 93, Type (0, 1), BuildingBlock: MIFKUJ_clean_linker_0, # of connection points: 2
#     Edge 94, Type (0, 1), BuildingBlock: MIFKUJ_clean_linker_0, # of connection points: 2
#     Edge 95, Type (0, 1), BuildingBlock: MIFKUJ_clean_linker_0, # of connection points: 2
#     Edge 96, Type (0, 1), BuildingBlock: MIFKUJ_clean_linker_0, # of connection points: 2
#     Edge 97, Type (0, 1), BuildingBlock: MIFKUJ_clean_linker_0, # of connection points: 2
#     Edge 98, Type (0, 1), BuildingBlock: MIFKUJ_clean_linker_0, # of connection points: 2
#     Edge 99, Type (0, 1), BuildingBlock: MIFKUJ_clean_linker_0, # of connection points: 2
#     Edge 100, Type (0, 1), BuildingBlock: MIFKUJ_clean_linker_0, # of connection points: 2
#     Edge 101, Type (0, 1), BuildingBlock: MIFKUJ_clean_linker_0, # of connection points: 2
#     Edge 102, Type (0, 1), BuildingBlock: MIFKUJ_clean_linker_0, # of connection points: 2
#     Edge 103, Type (0, 1), BuildingBlock: MIFKUJ_clean_linker_0, # of connection points: 2
#     Edge 104, Type (0, 1), BuildingBlock: MIFKUJ_clean_linker_0, # of connection points: 2
#     Edge 105, Type (0, 1), BuildingBlock: MIFKUJ_clean_linker_0, # of connection points: 2
#     Edge 106, Type (0, 1), BuildingBlock: MIFKUJ_clean_linker_0, # of connection points: 2
#     Edge 107, Type (0, 1), BuildingBlock: MIFKUJ_clean_linker_0, # of connection points: 2
#     Edge 108, Type (0, 1), BuildingBlock: MIFKUJ_clean_linker_0, # of connection points: 2
#     Edge 109, Type (0, 1), BuildingBlock: MIFKUJ_clean_linker_0, # of connection points: 2
#     Edge 110, Type (0, 1), BuildingBlock: MIFKUJ_clean_linker_0, # of connection points: 2
#     Edge 111, Type (0, 1), BuildingBlock: MIFKUJ_clean_linker_0, # of connection points: 2
#     Edge 112, Type (0, 1), BuildingBlock: MIFKUJ_clean_linker_0, # of connection points: 2
#     Edge 113, Type (0, 1), BuildingBlock: MIFKUJ_clean_linker_0, # of connection points: 2
#     Edge 114, Type (0, 1), BuildingBlock: MIFKUJ_clean_linker_0, # of connection points: 2
#     Edge 115, Type (0, 1), BuildingBlock: MIFKUJ_clean_linker_0, # of connection points: 2
#     Edge 116, Type (0, 1), BuildingBlock: MIFKUJ_clean_linker_0, # of connection points: 2
#     Edge 117, Type (0, 1), BuildingBlock: MIFKUJ_clean_linker_0, # of connection points: 2
#     Edge 118, Type (0, 1), BuildingBlock: MIFKUJ_clean_linker_0, # of connection points: 2
#     Edge 119, Type (0, 1), BuildingBlock: MIFKUJ_clean_linker_0, # of connection points: 2
#     Edge 120, Type (0, 1), BuildingBlock: MIFKUJ_clean_linker_0, # of connection points: 2
#     Edge 121, Type (0, 1), BuildingBlock: MIFKUJ_clean_linker_0, # of connection points: 2
#     Edge 122, Type (0, 1), BuildingBlock: MIFKUJ_clean_linker_0, # of connection points: 2
#     Edge 123, Type (0, 1), BuildingBlock: MIFKUJ_clean_linker_0, # of connection points: 2
#     Edge 124, Type (0, 1), BuildingBlock: MIFKUJ_clean_linker_0, # of connection points: 2
#     Edge 125, Type (0, 1), BuildingBlock: MIFKUJ_clean_linker_0, # of connection points: 2
#     Edge 126, Type (0, 1), BuildingBlock: MIFKUJ_clean_linker_0, # of connection points: 2
#     Edge 127, Type (0, 1), BuildingBlock: MIFKUJ_clean_linker_0, # of connection points: 2
#     Edge 128, Type (0, 1), BuildingBlock: MIFKUJ_clean_linker_0, # of connection points: 2
#     Edge 129, Type (0, 1), BuildingBlock: MIFKUJ_clean_linker_0, # of connection points: 2
#     Edge 130, Type (0, 1), BuildingBlock: MIFKUJ_clean_linker_0, # of connection points: 2
#     Edge 131, Type (0, 1), BuildingBlock: MIFKUJ_clean_linker_0, # of connection points: 2
#     Edge 132, Type (0, 1), BuildingBlock: MIFKUJ_clean_linker_0, # of connection points: 2
#     Edge 133, Type (0, 1), BuildingBlock: MIFKUJ_clean_linker_0, # of connection points: 2
#     Edge 134, Type (0, 1), BuildingBlock: MIFKUJ_clean_linker_0, # of connection points: 2
#     Edge 135, Type (0, 1), BuildingBlock: MIFKUJ_clean_linker_0, # of connection points: 2
# Relax obj value: 0.072
# Max RMSD: 0.176
# Mean RMSD: 0.127
data_MOF--net-gar--node1-TATPOV_clean_sbu_0--node2-KUMBUR_clean_sbu_1--edge1-MIFKUJ_clean_linker_0
_symmetry_space_group_name_H-M    P1
_symmetry_Int_Tables_number       1
_symmetry_cell_setting            triclinic
loop_
_symmetry_equiv_pos_as_xyz
'x, y, z'
_cell_length_a     76.400801
_cell_length_b     76.461512
_cell_length_c     72.425603
_cell_angle_alpha  95.866521
_cell_angle_beta   96.277258
_cell_angle_gamma 102.3844
loop_
_atom_site_label
_atom_site_type_symbol
_atom_site_fract_x
_atom_site_fract_y
_atom_site_fract_z
_atom_type_partial_charge
Zn0 Zn 0.02055 0.29467 0.37583 0.0
Zn1 Zn 0.04114 0.29933 0.35479 0.0
O2 O 0.0462 0.32586 0.37258 0.0
O3 O 0.02119 0.31942 0.38518 0.0
O4 O 0.06251 0.2971 0.33791 0.0
O5 O 0.0289 0.28019 0.39425 0.0
O6 O 0.0414 0.27546 0.36887 0.0
C7 C 0.035 0.33096 0.38298 0.0
C8 C 1.00007 0.28899 0.34153 0.0
O9 O 0.01552 0.29677 0.33733 0.0
O10 O 0.99952 0.28299 0.35711 0.0
C11 C 0.07782 0.30812 0.33801 0.0
O12 O 0.08069 0.32408 0.34793 0.0
C13 C 0.0371 0.27079 0.38463 0.0
Zn14 Zn 0.01276 0.72507 0.69898 0.0
Zn15 Zn 0.01553 0.75129 0.67791 0.0
O16 O 0.99191 0.75281 0.69127 0.0
O17 O 0.98918 0.73018 0.70793 0.0
O18 O 0.01869 0.77346 0.66354 0.0
O19 O 0.03883 0.73461 0.71245 0.0
O20 O 0.04173 0.75557 0.69364 0.0
C21 C 0.98308 0.74315 0.70219 0.0
C22 C 0.01105 0.71192 0.65944 0.0
O23 O 0.01185 0.7285 0.65735 0.0
O24 O 0.01123 0.70712 0.67569 0.0
C25 C 0.00872 0.77441 0.64854 0.0
O26 O 0.9956 0.76042 0.64149 0.0
C27 C 0.04876 0.74773 0.70639 0.0
Zn28 Zn 0.52189 0.79789 0.87915 0.0
Zn29 Zn 0.54217 0.80041 0.8564 0.0
O30 O 0.54704 0.82668 0.8735 0.0
O31 O 0.52387 0.82298 0.88945 0.0
O32 O 0.56617 0.80083 0.84297 0.0
O33 O 0.53009 0.78179 0.89596 0.0
O34 O 0.54176 0.7765 0.87015 0.0
C35 C 0.53754 0.83318 0.88494 0.0
C36 C 0.50133 0.79151 0.84327 0.0
O37 O 0.51686 0.79746 0.83803 0.0
O38 O 0.50082 0.78775 0.85983 0.0
C39 C 0.56872 0.79672 0.82598 0.0
O40 O 0.55461 0.79249 0.81293 0.0
C41 C 0.53762 0.77195 0.88598 0.0
Zn42 Zn 0.51312 0.22671 0.20046 0.0
Zn43 Zn 0.51635 0.25078 0.17668 0.0
O44 O 0.49268 0.25349 0.19006 0.0
O45 O 0.48984 0.2326 0.20895 0.0
O46 O 0.5203 0.27141 0.16008 0.0
O47 O 0.53916 0.23701 0.21436 0.0
O48 O 0.54263 0.25418 0.19189 0.0
C49 C 0.48388 0.24504 0.20189 0.0
C50 C 0.51024 0.21104 0.16093 0.0
O51 O 0.51191 0.2274 0.15772 0.0
O52 O 0.5103 0.20741 0.17767 0.0
C53 C 0.50779 0.27884 0.15396 0.0
O54 O 0.49136 0.27304 0.15797 0.0
C55 C 0.54948 0.24808 0.20615 0.0
Zn56 Zn 0.0736 0.78675 0.08452 0.0
Zn57 Zn 0.0473 0.7838 0.10538 0.0
O58 O 0.0466 0.80769 0.09205 0.0
O59 O 0.06803 0.80956 0.07405 0.0
O60 O 0.02474 0.7818 0.11921 0.0
O61 O 0.06435 0.76038 0.07203 0.0
O62 O 0.04266 0.75743 0.08983 0.0
C63 C 0.05563 0.81611 0.08041 0.0
C64 C 0.08686 0.78872 0.12414 0.0
O65 O 0.07007 0.7868 0.12594 0.0
O66 O 0.09187 0.7895 0.10807 0.0
C67 C 0.02498 0.78535 0.13685 0.0
O68 O 0.04066 0.79058 0.14757 0.0
C69 C 0.05107 0.75035 0.07776 0.0
Zn70 Zn 0.47686 0.75513 0.44882 0.0
Zn71 Zn 0.50125 0.75821 0.42547 0.0
O72 O 0.50658 0.78464 0.44052 0.0
O73 O 0.48801 0.78126 0.46174 0.0
O74 O 0.52143 0.75812 0.40842 0.0
O75 O 0.48274 0.73231 0.45844 0.0
O76 O 0.50391 0.73533 0.44005 0.0
C77 C 0.5 0.79143 0.45438 0.0
C78 C 0.46067 0.75337 0.40997 0.0
O79 O 0.47714 0.75538 0.40687 0.0
O80 O 0.45695 0.75224 0.42652 0.0
C81 C 0.5345 0.77146 0.40762 0.0
O82 O 0.53508 0.78701 0.41751 0.0
C83 C 0.49559 0.72666 0.45201 0.0
Zn84 Zn 0.57158 0.2854 0.58217 0.0
Zn85 Zn 0.54727 0.28305 0.60497 0.0
O86 O 0.54659 0.30726 0.59206 0.0
O87 O 0.56454 0.30714 0.57044 0.0
O88 O 0.52505 0.28109 0.61918 0.0
O89 O 0.56302 0.25851 0.57078 0.0
O90 O 0.54229 0.25641 0.58971 0.0
C91 C 0.55379 0.31471 0.57875 0.0
C92 C 0.58694 0.28911 0.62216 0.0
O93 O 0.57036 0.2863 0.62496 0.0
O94 O 0.59074 0.29016 0.6056 0.0
C95 C 0.5254 0.28592 0.63661 0.0
O96 O 0.5411 0.29259 0.64699 0.0
C97 C 0.55 0.24888 0.57726 0.0
Zn98 Zn 0.97696 0.25394 0.94896 0.0
Zn99 Zn 1.00094 0.2579 0.92519 0.0
O100 O 0.00673 0.28416 0.94084 0.0
O101 O 0.98721 0.28034 0.96107 0.0
O102 O 0.02033 0.25795 0.90716 0.0
O103 O 0.98412 0.23184 0.95919 0.0
O104 O 0.00378 0.23465 0.93909 0.0
C105 C 0.99948 0.29076 0.95429 0.0
C106 C 0.96013 0.25274 0.91058 0.0
O107 O 0.97659 0.2556 0.90736 0.0
O108 O 0.95657 0.25043 0.927 0.0
C109 C 0.03486 0.27015 0.90848 0.0
O110 O 0.03742 0.2843 0.92122 0.0
C111 C 0.99648 0.22619 0.95178 0.0
Zn112 Zn 0.40368 0.9871 0.29527 0.0
Zn113 Zn 0.38831 0.0164 0.28519 0.0
O114 O 0.39717 0.02294 0.31161 0.0
O115 O 0.38712 0.99474 0.31394 0.0
O116 O 0.37582 0.03443 0.27885 0.0
O117 O 0.40581 0.98955 0.26692 0.0
O118 O 0.40789 0.01878 0.2702 0.0
C119 C 0.39281 0.01075 0.32179 0.0
C120 C 0.37127 0.97804 0.27192 0.0
O121 O 0.36954 0.99321 0.27924 0.0
O122 O 0.38703 0.97531 0.27106 0.0
C123 C 0.36211 0.03441 0.28714 0.0
O124 O 0.35749 0.02226 0.29837 0.0
C125 C 0.40944 0.00464 0.26061 0.0
Zn126 Zn 0.24862 0.19017 0.50443 0.0
Zn127 Zn 0.26973 0.16849 0.50562 0.0
O128 O 0.27295 0.18106 0.48118 0.0
O129 O 0.25712 0.2019 0.48284 0.0
O130 O 0.29039 0.15543 0.50702 0.0
O131 O 0.25638 0.2026 0.53039 0.0
O132 O 0.2741 0.18355 0.53254 0.0
C133 C 0.26744 0.19403 0.47438 0.0
C134 C 0.22976 0.15223 0.49948 0.0
O135 O 0.24557 0.14915 0.50203 0.0
O136 O 0.22793 0.16832 0.49962 0.0
C137 C 0.28982 0.14007 0.49804 0.0
O138 O 0.27486 0.13146 0.48726 0.0
C139 C 0.26779 0.19634 0.54008 0.0
Zn140 Zn 0.10926 0.04976 0.77818 0.0
Zn141 Zn 0.13 0.0285 0.77727 0.0
O142 O 0.1173 0.02505 0.80201 0.0
O143 O 0.0982 0.04277 0.8004 0.0
O144 O 0.145 0.00935 0.77522 0.0
O145 O 0.09605 0.04211 0.75261 0.0
O146 O 0.11472 0.02409 0.7502 0.0
C147 C 0.10516 0.03186 0.80903 0.0
C148 C 0.14622 0.06872 0.78242 0.0
O149 O 0.14902 0.05281 0.78057 0.0
O150 O 0.13024 0.07088 0.78203 0.0
C151 C 0.14802 0.99952 0.78785 0.0
O152 O 0.14149 0.00173 0.80374 0.0
C153 C 0.10203 0.03071 0.74275 0.0
Zn154 Zn 0.32355 0.9027 0.00335 0.0
Zn155 Zn 0.28519 0.91463 -0.00168 0.0
O156 O 0.28373 0.90405 0.97278 0.0
O157 O 0.30999 0.8962 0.97721 0.0
O158 O 0.26363 0.92307 -0.00018 0.0
O159 O 0.31212 0.89788 0.02648 0.0
O160 O 0.28344 0.89641 0.01573 0.0
C161 C 0.29585 0.89703 0.96675 0.0
C162 C 0.31939 0.93675 0.01388 0.0
O163 O 0.30508 0.93656 0.00338 0.0
O164 O 0.31995 0.92302 0.02197 0.0
C165 C 0.26168 0.93546 0.9901 0.0
O166 O 0.27385 0.94128 0.97931 0.0
C167 C 0.29538 0.89298 0.02738 0.0
Zn168 Zn 0.30507 0.35729 0.03022 0.0
Zn169 Zn 0.2828 0.3769 0.02946 0.0
O170 O 0.27799 0.36176 0.00273 0.0
O171 O 0.29641 0.34339 0.00539 0.0
O172 O 0.26186 0.38947 0.02993 0.0
O173 O 0.29983 0.3462 0.0526 0.0
O174 O 0.28051 0.36368 0.05355 0.0
C175 C 0.28451 0.34894 0.99563 0.0
C176 C 0.32261 0.3945 0.0331 0.0
O177 O 0.30651 0.39689 0.03184 0.0
O178 O 0.3253 0.37874 0.03283 0.0
C179 C 0.25889 0.40108 0.01933 0.0
O180 O 0.2701 0.4058 0.00724 0.0
C181 C 0.28812 0.35214 0.06074 0.0
Zn182 Zn 0.73012 0.13757 0.04364 0.0
Zn183 Zn 0.76635 0.12491 0.04007 0.0
O184 O 0.76532 0.13554 0.0169 0.0
O185 O 0.74039 0.14549 0.01966 0.0
O186 O 0.78778 0.11645 0.04264 0.0
O187 O 0.74511 0.1493 0.06767 0.0
O188 O 0.77117 0.14269 0.06218 0.0
C189 C 0.75366 0.14384 0.01095 0.0
C190 C 0.73539 0.10396 0.05018 0.0
O191 O 0.74677 0.10335 0.039 0.0
O192 O 0.73671 0.1188 0.06001 0.0
C193 C 0.78811 0.10291 0.0314 0.0
O194 O 0.7746 0.09633 0.01793 0.0
C195 C 0.76189 0.1506 0.07205 0.0
Zn196 Zn 0.14733 0.56912 0.25434 0.0
Zn197 Zn 0.17258 0.52944 0.2439 0.0
O198 O 0.16397 0.52305 0.26864 0.0
O199 O 0.15577 0.54711 0.26232 0.0
O200 O 0.18076 0.5089 0.23341 0.0
O201 O 0.13594 0.55706 0.22806 0.0
O202 O 0.15249 0.53583 0.22602 0.0
C203 C 0.1557 0.5351 0.27311 0.0
C204 C 0.18665 0.56339 0.25183 0.0
O205 O 0.19426 0.5506 0.24843 0.0
O206 O 0.17001 0.55926 0.25335 0.0
C207 C 0.19337 0.50761 0.24571 0.0
O208 O 0.19836 0.51988 0.26053 0.0
C209 C 0.14037 0.54355 0.21924 0.0
Zn210 Zn 0.80441 0.85612 0.53115 0.0
Zn211 Zn 0.78263 0.87669 0.52904 0.0
O212 O 0.77766 0.86132 0.50229 0.0
O213 O 0.79643 0.8434 0.50567 0.0
O214 O 0.76228 0.88993 0.52979 0.0
O215 O 0.79685 0.8442 0.55277 0.0
O216 O 0.77953 0.86378 0.55305 0.0
C217 C 0.78471 0.84877 0.49545 0.0
C218 C 0.82256 0.89337 0.53287 0.0
O219 O 0.80661 0.89613 0.53117 0.0
O220 O 0.82496 0.87763 0.53405 0.0
C221 C 0.75731 0.89902 0.51729 0.0
O222 O 0.76603 0.90065 0.50267 0.0
C223 C 0.78548 0.85129 0.56029 0.0
Zn224 Zn 0.94014 0.99193 0.25052 0.0
Zn225 Zn 0.91923 0.01327 0.25159 0.0
O226 O 0.93435 0.01859 0.27875 0.0
O227 O 0.95166 0.99914 0.27659 0.0
O228 O 0.90337 0.03173 0.24994 0.0
O229 O 0.953 1.00029 0.23 0.0
O230 O 0.93291 0.01698 0.22795 0.0
C231 C 0.94639 0.0112 0.28629 0.0
C232 C 0.90369 0.97283 0.24631 0.0
O233 O 0.90095 0.9887 0.24911 0.0
O234 O 0.9195 0.97065 0.24527 0.0
C235 C 0.90386 0.04407 0.26329 0.0
O236 O 0.91419 0.04452 0.27914 0.0
C237 C 0.94596 0.01129 0.22164 0.0
Zn238 Zn 0.23559 0.64369 0.52916 0.0
Zn239 Zn 0.2702 0.63083 0.54093 0.0
O240 O 0.27287 0.63753 0.51591 0.0
O241 O 0.24384 0.62783 0.5085 0.0
O242 O 0.28959 0.61951 0.54745 0.0
O243 O 0.24602 0.6535 0.55703 0.0
O244 O 0.27482 0.65252 0.55863 0.0
C245 C 0.25916 0.63364 0.50362 0.0
C246 C 0.23388 0.61562 0.54973 0.0
O247 O 0.24747 0.6126 0.54253 0.0
O248 O 0.23267 0.63186 0.5533 0.0
C249 C 0.28811 0.60409 0.53854 0.0
O250 O 0.27343 0.59667 0.52675 0.0
C251 C 0.26225 0.65839 0.56508 0.0
Zn252 Zn 0.44102 0.49279 0.75216 0.0
Zn253 Zn 0.42097 0.51432 0.75324 0.0
O254 O 0.43651 0.51921 0.77988 0.0
O255 O 0.45437 0.50034 0.77739 0.0
O256 O 0.40856 0.53546 0.75361 0.0
O257 O 0.45286 0.4992 0.73049 0.0
O258 O 0.43399 0.51717 0.72903 0.0
C259 C 0.44911 0.51237 0.78711 0.0
C260 C 0.40399 0.4743 0.74875 0.0
O261 O 0.40119 0.49024 0.75072 0.0
O262 O 0.41991 0.47215 0.74849 0.0
C263 C 0.39243 0.53533 0.75661 0.0
O264 O 0.38198 0.52027 0.75991 0.0
C265 C 0.44623 0.51047 0.72217 0.0
Zn266 Zn 0.65221 0.06139 0.75305 0.0
Zn267 Zn 0.66728 0.02843 0.74436 0.0
O268 O 0.66096 0.0267 0.76949 0.0
O269 O 0.66864 0.05606 0.77529 0.0
O270 O 0.67903 0.00927 0.73844 0.0
O271 O 0.64597 0.05109 0.72476 0.0
O272 O 0.64528 0.0224 0.72658 0.0
C273 C 0.66406 0.04088 0.78103 0.0
C274 C 0.68195 0.06469 0.73481 0.0
O275 O 0.68525 0.05135 0.74239 0.0
O276 O 0.66555 0.06504 0.73001 0.0
C277 C 0.69486 0.01076 0.7465 0.0
O278 O 0.70274 0.02527 0.75827 0.0
C279 C 0.64105 0.03457 0.71783 0.0
Zn280 Zn 0.7458 0.68812 0.00394 0.0
Zn281 Zn 0.7697 0.6688 0.00561 0.0
O282 O 0.77204 0.68126 0.98111 0.0
O283 O 0.75547 0.7014 0.98337 0.0
O284 O 0.79071 0.65625 0.00687 0.0
O285 O 0.75203 0.69809 0.03125 0.0
O286 O 0.77453 0.68427 0.03207 0.0
C287 C 0.76607 0.69412 0.97463 0.0
C288 C 0.72988 0.64996 -0.00139 0.0
O289 O 0.74614 0.64866 0.00314 0.0
O290 O 0.72647 0.66523 -0.00321 0.0
C291 C 0.78978 0.64025 -0.00068 0.0
O292 O 0.77438 0.63083 0.98994 0.0
C293 C 0.76568 0.69445 0.04021 0.0
Zn294 Zn 0.90128 0.48221 0.79229 0.0
Zn295 Zn 0.88606 0.51529 0.78492 0.0
O296 O 0.89758 0.51968 0.81088 0.0
O297 O 0.88726 0.49122 0.81267 0.0
O298 O 0.87209 0.53295 0.78207 0.0
O299 O 0.91058 0.49237 0.76868 0.0
O300 O 0.9036 0.51891 0.76768 0.0
C301 C 0.89377 0.50708 0.82073 0.0
C302 C 0.87014 0.47789 0.76922 0.0
O303 O 0.86794 0.49209 0.77834 0.0
O304 O 0.88599 0.47663 0.76667 0.0
C305 C 0.86123 0.53396 0.79386 0.0
O306 O 0.86057 0.52402 0.80761 0.0
C307 C 0.91166 0.50713 0.7618 0.0
Zn308 Zn 0.81546 0.40552 0.50301 0.0
Zn309 Zn 0.78598 0.41449 0.49954 0.0
O310 O 0.78058 0.39623 0.47766 0.0
O311 O 0.80947 0.40187 0.47465 0.0
O312 O 0.7649 0.42413 0.49985 0.0
O313 O 0.80595 0.38592 0.51752 0.0
O314 O 0.7888 0.40493 0.52366 0.0
C315 C 0.79308 0.39596 0.46765 0.0
C316 C 0.81871 0.44076 0.50683 0.0
O317 O 0.80471 0.43518 0.49513 0.0
O318 O 0.82253 0.43037 0.51827 0.0
C319 C 0.76232 0.43438 0.48773 0.0
O320 O 0.77334 0.43777 0.4752 0.0
C321 C 0.79567 0.39195 0.52781 0.0
Zn322 Zn 0.60819 0.54858 0.27743 0.0
Zn323 Zn 0.6289 0.52701 0.27775 0.0
O324 O 0.61583 0.52442 0.30199 0.0
O325 O 0.59609 0.54136 0.29921 0.0
O326 O 0.64147 0.50585 0.27724 0.0
O327 O 0.59624 0.54136 0.25122 0.0
O328 O 0.61415 0.52236 0.25048 0.0
C329 C 0.60319 0.53084 0.30833 0.0
C330 C 0.6458 0.5672 0.28213 0.0
O331 O 0.64868 0.55126 0.28065 0.0
O332 O 0.62976 0.56923 0.2817 0.0
C333 C 0.65787 0.50682 0.28367 0.0
O334 O 0.66811 0.52247 0.29143 0.0
C335 C 0.60214 0.52932 0.24224 0.0
Tb336 Tb 0.05505 0.03405 0.03115 0.0
C337 C 0.99055 0.97375 0.9879 0.0
N338 N 0.9997 0.98984 0.98361 0.0
C339 C 0.99734 0.97684 0.95151 0.0
C340 C 0.98463 0.95852 0.97413 0.0
C341 C 0.00241 0.99171 0.96546 0.0
C342 C 0.98856 0.96013 0.95588 0.0
C343 C 0.97458 0.95709 0.01021 0.0
C344 C 0.98558 0.97297 0.00573 0.0
C345 C 0.96896 0.94187 -0.00338 0.0
C346 C 0.97409 0.94252 0.97868 0.0
Tb347 Tb 0.00486 0.01346 0.00724 0.0
N348 N 0.99053 0.98819 0.01829 0.0
C349 C 0.96879 0.95728 0.0279 0.0
C350 C 0.9838 0.98882 0.03502 0.0
C351 C 0.97328 0.97329 0.0403 0.0
H352 H 0.00764 0.00475 0.96132 0.0
H353 H 0.96832 0.97377 0.05373 0.0
H354 H 0.04841 0.04668 0.07507 0.0
H355 H 0.08711 0.07145 0.97946 0.0
H356 H 0.98642 0.00134 0.04418 0.0
H357 H 0.96034 0.94534 0.03186 0.0
H358 H 0.07097 0.04444 0.99104 0.0
H359 H 0.99962 0.97845 0.93723 0.0
H360 H 0.96012 0.92975 -0.00034 0.0
H361 H 0.96928 0.93076 0.96824 0.0
H362 H 0.05716 0.07413 0.09756 0.0
H363 H 0.98418 0.94878 0.9449 0.0
H364 H 0.09652 0.10041 0.00037 0.0
N365 N 0.05891 0.05922 0.05237 0.0
C366 C 0.06914 0.07441 0.04732 0.0
C367 C 0.06029 0.07452 0.08337 0.0
C368 C 0.07497 0.0904 0.06008 0.0
C369 C 0.05486 0.05899 0.0703 0.0
C370 C 0.07033 0.09031 0.07824 0.0
N371 N 0.06866 0.05807 0.01745 0.0
C372 C 0.07363 0.05705 -0.0001 0.0
C373 C 0.08428 0.08952 0.02356 0.0
C374 C 0.07399 0.07388 0.02929 0.0
C375 C 0.0887 0.08866 0.00531 0.0
C376 C 0.08333 0.07236 0.99344 0.0
H377 H 0.07473 0.10226 0.08849 0.0
H378 H 0.0902 0.11819 0.06413 0.0
H379 H 0.09812 0.11751 0.03213 0.0
O380 O 0.08311 0.03678 0.03198 0.0
O381 O 0.03777 0.05355 0.02451 0.0
O382 O 0.0176 0.03951 -0.0015 0.0
O383 O 0.06975 0.02999 0.05587 0.0
O384 O 0.05266 0.01886 0.00313 0.0
O385 O 0.02505 0.02172 0.98871 0.0
O386 O 0.9841 0.02497 0.01611 0.0
O387 O 0.01769 0.99568 0.02406 0.0
O388 O 0.04837 0.00423 0.02301 0.0
O389 O 0.98103 0.0099 0.98865 0.0
O390 O 0.0103 0.03032 0.03429 0.0
O391 O 0.03535 0.02346 0.0492 0.0
C392 C 0.02667 0.05437 0.00935 0.0
C393 C 0.09781 0.02227 0.05455 0.0
C394 C 0.1204 0.0056 0.04741 0.0
C395 C 0.12426 0.00413 0.06653 0.0
C396 C 0.1019 0.02081 0.07364 0.0
C397 C 0.11504 0.01173 0.07957 0.0
C398 C 0.1072 0.01471 0.04142 0.0
C399 C 0.04118 0.01842 0.98801 0.0
C400 C 0.08506 0.03328 0.0492 0.0
C401 C 0.08548 0.10585 0.05446 0.0
C402 C 0.09003 0.10545 0.03624 0.0
C403 C 0.03387 0.99204 0.02534 0.0
C404 C 0.96462 0.03243 0.99233 0.0
C405 C 0.94036 0.04796 0.99416 0.0
C406 C 0.94297 0.05375 0.97667 0.0
C407 C 0.96742 0.03837 0.97494 0.0
C408 C 0.95136 0.03754 0.00199 0.0
C409 C 0.95667 0.04917 0.96723 0.0
C410 C 0.01934 0.02701 0.04943 0.0
C411 C 0.97385 0.0195 0.00013 0.0
H412 H 0.13471 0.99742 0.07139 0.0
H413 H 0.09512 0.02699 0.08403 0.0
H414 H 0.11826 0.01081 0.09431 0.0
H415 H 0.10443 0.01602 0.02668 0.0
H416 H 0.93441 0.06174 0.97035 0.0
H417 H 0.9776 0.03442 0.96719 0.0
H418 H 0.94899 0.03261 0.01526 0.0
H419 H 0.9587 0.05366 0.95377 0.0
Tb420 Tb 0.25887 0.77631 0.29694 0.0
C421 C 0.29853 0.7443 0.22647 0.0
N422 N 0.30516 0.7577 0.24086 0.0
C423 C 0.3319 0.7463 0.24662 0.0
C424 C 0.30817 0.73105 0.22179 0.0
C425 C 0.32177 0.75908 0.25074 0.0
C426 C 0.325 0.73212 0.23218 0.0
C427 C 0.27479 0.73057 0.20104 0.0
C428 C 0.2821 0.74407 0.21636 0.0
C429 C 0.2842 0.71718 0.19639 0.0
C430 C 0.30082 0.71737 0.20681 0.0
Tb431 Tb 0.28715 0.77706 0.2478 0.0
N432 N 0.27364 0.75747 0.22117 0.0
C433 C 0.25848 0.73116 0.19061 0.0
C434 C 0.25843 0.75882 0.21002 0.0
C435 C 0.2504 0.74549 0.19498 0.0
H436 H 0.32736 0.77009 0.26174 0.0
H437 H 0.23812 0.74646 0.18656 0.0
H438 H 0.21731 0.78246 0.28565 0.0
H439 H 0.31266 0.81051 0.35234 0.0
H440 H 0.2524 0.77023 0.21218 0.0
H441 H 0.25233 0.72097 0.17884 0.0
H442 H 0.29705 0.78585 0.32811 0.0
H443 H 0.34502 0.74742 0.25458 0.0
H444 H 0.27891 0.7068 0.18457 0.0
H445 H 0.30799 0.70704 0.203 0.0
H446 H 0.20004 0.8051 0.29412 0.0
H447 H 0.33286 0.72223 0.22902 0.0
H448 H 0.2978 0.83502 0.36201 0.0
N449 N 0.24043 0.79491 0.30557 0.0
C450 C 0.24758 0.80836 0.3199 0.0
C451 C 0.21345 0.80624 0.30142 0.0
C452 C 0.23824 0.82176 0.32501 0.0
C453 C 0.22338 0.79346 0.29659 0.0
C454 C 0.22099 0.82057 0.31554 0.0
N455 N 0.27347 0.79631 0.32288 0.0
C456 C 0.29027 0.79639 0.3317 0.0
C457 C 0.27316 0.82348 0.34301 0.0
C458 C 0.26467 0.80908 0.32895 0.0
C459 C 0.29073 0.8241 0.35129 0.0
C460 C 0.2992 0.81035 0.34578 0.0
H461 H 0.21338 0.8306 0.31903 0.0
H462 H 0.2397 0.84662 0.34306 0.0
H463 H 0.27039 0.84825 0.35865 0.0
O464 O 0.26032 0.75614 0.31428 0.0
O465 O 0.27209 0.80382 0.29432 0.0
O466 O 0.27768 0.78771 0.27113 0.0
O467 O 0.23464 0.7605 0.30279 0.0
O468 O 0.28617 0.7693 0.29858 0.0
O469 O 0.30368 0.78181 0.27593 0.0
O470 O 0.28668 0.79814 0.23185 0.0
O471 O 0.27974 0.75087 0.2571 0.0
O472 O 0.25732 0.75932 0.27058 0.0
O473 O 0.31198 0.79417 0.24479 0.0
O474 O 0.25893 0.78133 0.24339 0.0
O475 O 0.24257 0.77812 0.26964 0.0
C476 C 0.27942 0.8037 0.27937 0.0
C477 C 0.23524 0.7471 0.33073 0.0
C478 C 0.23847 0.73696 0.36134 0.0
C479 C 0.21972 0.73437 0.3615 0.0
C480 C 0.21648 0.74441 0.33105 0.0
C481 C 0.2088 0.73812 0.3464 0.0
C482 C 0.24617 0.7433 0.34595 0.0
C483 C 0.30182 0.77422 0.29165 0.0
C484 C 0.24281 0.7513 0.31351 0.0
C485 C 0.24656 0.83607 0.33911 0.0
C486 C 0.26403 0.83699 0.34801 0.0
C487 C 0.26706 0.74756 0.2678 0.0
C488 C 0.31126 0.80481 0.21518 0.0
C489 C 0.3068 0.81249 0.18363 0.0
C490 C 0.32321 0.80816 0.18023 0.0
C491 C 0.32778 0.80068 0.21183 0.0
C492 C 0.30102 0.81095 0.20109 0.0
C493 C 0.33371 0.8024 0.19437 0.0
C494 C 0.24413 0.78103 0.25186 0.0
C495 C 0.3042 0.80284 0.23307 0.0
H496 H 0.21347 0.72894 0.37306 0.0
H497 H 0.20768 0.7467 0.3192 0.0
H498 H 0.19432 0.73578 0.34643 0.0
H499 H 0.26058 0.74481 0.3457 0.0
H500 H 0.32805 0.80964 0.16684 0.0
H501 H 0.33606 0.7961 0.22258 0.0
H502 H 0.28835 0.81441 0.20362 0.0
H503 H 0.34647 0.79929 0.19181 0.0
Tb504 Tb 0.49861 0.01695 0.52654 0.0
C505 C 0.56288 0.05905 0.49368 0.0
N506 N 0.55268 0.04213 0.48752 0.0
C507 C 0.55084 0.0493 0.4559 0.0
C508 C 0.56668 0.07202 0.48126 0.0
C509 C 0.54812 0.03677 0.46868 0.0
C510 C 0.55978 0.06715 0.46229 0.0
C511 C 0.58436 0.0789 0.51821 0.0
C512 C 0.57157 0.06256 0.51194 0.0
C513 C 0.58721 0.09231 0.50628 0.0
C514 C 0.57831 0.08891 0.48786 0.0
Tb515 Tb 0.549 0.0231 0.51014 0.0
N516 N 0.56875 0.04919 0.523 0.0
C517 C 0.59467 0.08078 0.53583 0.0
C518 C 0.57999 0.0502 0.53924 0.0
C519 C 0.59275 0.0662 0.54621 0.0
H520 H 0.54305 0.02272 0.46333 0.0
H521 H 0.60133 0.06714 0.55936 0.0
H522 H 0.50602 0.01721 0.57323 0.0
H523 H 0.45491 0.96935 0.47152 0.0
H524 H 0.57915 0.03854 0.54661 0.0
H525 H 0.60476 0.09306 0.5411 0.0
H526 H 0.4765 0.99786 0.48462 0.0
H527 H 0.54666 0.04502 0.44107 0.0
H528 H 0.59687 0.10504 0.51089 0.0
H529 H 0.58129 0.09906 0.47854 0.0
H530 H 0.49718 0.99608 0.59571 0.0
H531 H 0.56239 0.0767 0.45229 0.0
H532 H 0.44475 0.94655 0.49231 0.0
N533 N 0.49236 0.99883 0.54923 0.0
C534 C 0.48035 0.98284 0.54301 0.0
C535 C 0.49254 0.99209 0.5809 0.0
C536 C 0.47454 0.97054 0.55556 0.0
C537 C 0.49781 0.00392 0.568 0.0
C538 C 0.48103 0.97524 0.57465 0.0
N539 N 0.47924 0.99108 0.5122 0.0
C540 C 0.47257 0.98793 0.49366 0.0
C541 C 0.46102 0.96247 0.5172 0.0
C542 C 0.4735 0.9789 0.52401 0.0
C543 C 0.45441 0.959 0.49807 0.0
C544 C 0.46017 0.97181 0.48627 0.0
H545 H 0.47687 0.96616 0.58472 0.0
H546 H 0.45759 0.94453 0.5582 0.0
H547 H 0.44584 0.93743 0.52467 0.0
O548 O 0.47236 0.02199 0.51972 0.0
O549 O 0.50886 0.99187 0.51977 0.0
O550 O 0.53017 0.99701 0.49887 0.0
O551 O 0.48879 0.03184 0.54708 0.0
O552 O 0.50539 0.02806 0.50142 0.0
O553 O 0.52596 0.01493 0.48796 0.0
O554 O 0.56666 0.00691 0.5197 0.0
O555 O 0.54289 0.04592 0.52835 0.0
O556 O 0.51259 0.04338 0.51916 0.0
O557 O 0.57145 0.02169 0.49651 0.0
O558 O 0.54297 0.01136 0.53558 0.0
O559 O 0.52189 0.02547 0.54713 0.0
C560 C 0.51844 0.98604 0.50714 0.0
C561 C 0.45938 0.03876 0.54368 0.0
C562 C 0.43458 0.05408 0.53959 0.0
C563 C 0.43381 0.05525 0.55893 0.0
C564 C 0.45835 0.04011 0.56301 0.0
C565 C 0.44561 0.04826 0.57055 0.0
C566 C 0.44732 0.04569 0.53188 0.0
C567 C 0.51057 0.02004 0.48698 0.0
C568 C 0.47366 0.03087 0.5364 0.0
C569 C 0.46218 0.95414 0.54876 0.0
C570 C 0.45545 0.95011 0.52966 0.0
C571 C 0.52877 0.05335 0.52622 0.0
C572 C 0.58367 0.99608 0.49706 0.0
C573 C 0.60777 0.97974 0.49539 0.0
C574 C 0.60173 0.97444 0.47619 0.0
C575 C 0.57743 0.98997 0.47803 0.0
C576 C 0.59857 0.99052 0.50582 0.0
C577 C 0.58652 0.97932 0.46767 0.0
C578 C 0.53442 0.01645 0.54919 0.0
C579 C 0.57702 0.01064 0.50689 0.0
H580 H 0.42409 0.0617 0.56505 0.0
H581 H 0.46747 0.03489 0.57236 0.0
H582 H 0.44495 0.04927 0.58546 0.0
H583 H 0.44809 0.04494 0.51698 0.0
H584 H 0.60868 0.96629 0.46782 0.0
H585 H 0.56603 0.99412 0.47097 0.0
H586 H 0.60363 0.99543 0.52043 0.0
H587 H 0.58195 0.97507 0.45289 0.0
Tb588 Tb 0.30167 0.26294 0.77239 0.0
C589 C 0.23584 0.28663 0.72765 0.0
N590 N 0.2469 0.29543 0.74331 0.0
C591 C 0.24861 0.32364 0.73102 0.0
C592 C 0.23084 0.29602 0.71291 0.0
C593 C 0.25312 0.31374 0.74528 0.0
C594 C 0.23747 0.31475 0.71472 0.0
C595 C 0.21821 0.2584 0.71034 0.0
C596 C 0.22969 0.26807 0.72635 0.0
C597 C 0.21311 0.26769 0.69562 0.0
C598 C 0.21944 0.28645 0.69689 0.0
Tb599 Tb 0.25325 0.27786 0.76567 0.0
N600 N 0.2353 0.25949 0.7407 0.0
C601 C 0.21213 0.23971 0.70964 0.0
C602 C 0.22875 0.2414 0.74042 0.0
C603 C 0.21731 0.23121 0.72483 0.0
H604 H 0.26102 0.32081 0.75812 0.0
H605 H 0.2123 0.21682 0.72464 0.0
H606 H 0.29317 0.22028 0.78107 0.0
H607 H 0.34459 0.32393 0.81171 0.0
H608 H 0.23189 0.23478 0.75226 0.0
H609 H 0.20325 0.23178 0.69761 0.0
H610 H 0.32456 0.30575 0.78454 0.0
H611 H 0.25358 0.33816 0.7327 0.0
H612 H 0.20428 0.2605 0.6832 0.0
H613 H 0.21541 0.29343 0.68542 0.0
H614 H 0.30035 0.20336 0.80696 0.0
H615 H 0.23394 0.32247 0.7037 0.0
H616 H 0.35327 0.30945 0.83924 0.0
N617 N 0.30782 0.24574 0.79526 0.0
C618 C 0.31915 0.25465 0.81071 0.0
C619 C 0.30562 0.21781 0.80827 0.0
C620 C 0.32404 0.24548 0.82569 0.0
C621 C 0.30126 0.2275 0.79374 0.0
C622 C 0.31703 0.22685 0.82436 0.0
N623 N 0.32031 0.28146 0.7969 0.0
C624 C 0.32741 0.29937 0.79664 0.0
C625 C 0.33754 0.28289 0.82727 0.0
C626 C 0.32572 0.27311 0.81151 0.0
C627 C 0.34412 0.30145 0.82743 0.0
C628 C 0.33916 0.30968 0.81196 0.0
H629 H 0.32046 0.2193 0.83556 0.0
H630 H 0.33969 0.24837 0.85311 0.0
H631 H 0.35157 0.28112 0.85446 0.0
O632 O 0.32394 0.27139 0.75703 0.0
O633 O 0.28986 0.26979 0.79801 0.0
O634 O 0.27328 0.29031 0.78976 0.0
O635 O 0.31697 0.24443 0.76509 0.0
O636 O 0.30037 0.28757 0.75937 0.0
O637 O 0.27787 0.29952 0.77151 0.0
O638 O 0.2306 0.26852 0.78028 0.0
O639 O 0.26534 0.27147 0.74007 0.0
O640 O 0.28149 0.25073 0.74827 0.0
O641 O 0.23757 0.29589 0.77337 0.0
O642 O 0.25492 0.2537 0.77926 0.0
O643 O 0.27691 0.2415 0.76657 0.0
C644 C 0.28112 0.28238 0.80245 0.0
C645 C 0.3425 0.24964 0.74767 0.0
C646 C 0.36904 0.25472 0.73087 0.0
C647 C 0.36968 0.23656 0.7312 0.0
C648 C 0.34362 0.2315 0.74763 0.0
C649 C 0.35706 0.22506 0.73947 0.0
C650 C 0.35533 0.26135 0.7391 0.0
C651 C 0.29285 0.30121 0.76363 0.0
C652 C 0.32769 0.25552 0.75666 0.0
C653 C 0.33574 0.25518 0.84146 0.0
C654 C 0.34249 0.27383 0.84224 0.0
C655 C 0.27436 0.25913 0.73557 0.0
C656 C 0.21131 0.2896 0.78972 0.0
C657 C 0.18424 0.28371 0.80578 0.0
C658 C 0.18259 0.30147 0.8044 0.0
C659 C 0.20928 0.3074 0.78902 0.0
C660 C 0.1987 0.27766 0.79837 0.0
C661 C 0.19507 0.31322 0.79625 0.0
C662 C 0.26231 0.24 0.77503 0.0
C663 C 0.22661 0.2843 0.78106 0.0
H664 H 0.38005 0.23123 0.72498 0.0
H665 H 0.33405 0.22211 0.75392 0.0
H666 H 0.35771 0.21107 0.73958 0.0
H667 H 0.35475 0.27537 0.73894 0.0
H668 H 0.17169 0.30637 0.80999 0.0
H669 H 0.21866 0.31698 0.78271 0.0
H670 H 0.20006 0.26395 0.79929 0.0
H671 H 0.19373 0.32695 0.79553 0.0
Tb672 Tb 0.03454 0.9971 0.50951 0.0
C673 C 0.00951 0.06557 0.5521 0.0
N674 N 1.00098 0.0557 0.53572 0.0
C675 C 0.97222 0.05711 0.54547 0.0
C676 C 0.99974 0.0712 0.56612 0.0
C677 C 0.98257 0.05191 0.53198 0.0
C678 C 0.98083 0.0666 0.56272 0.0
C679 C 0.03769 0.08081 0.57126 0.0
C680 C 0.02815 0.0702 0.55467 0.0
C681 C 0.02809 0.08615 0.58549 0.0
C682 C 0.00913 0.08129 0.58295 0.0
Tb683 Tb 0.01902 0.0456 0.51582 0.0
N684 N 0.03691 0.06417 0.54085 0.0
C685 C 0.05655 0.08578 0.57295 0.0
C686 C 0.05523 0.06976 0.54209 0.0
C687 C 0.06531 0.08043 0.55817 0.0
H688 H 0.97577 0.04452 0.5187 0.0
H689 H 0.07982 0.08454 0.5591 0.0
H690 H 0.0778 0.00603 0.50289 0.0
H691 H 0.97385 0.96078 0.46385 0.0
H692 H 0.06218 0.06632 0.53071 0.0
H693 H 0.06442 0.094 0.58541 0.0
H694 H 0.99093 0.98172 0.49091 0.0
H695 H 0.9576 0.05368 0.54257 0.0
H696 H 0.03518 0.09415 0.59842 0.0
H697 H 0.00188 0.08559 0.59397 0.0
H698 H 0.09601 0.99743 0.47893 0.0
H699 H 0.9728 0.07054 0.57316 0.0
H700 H 0.99006 0.94768 0.44021 0.0
N701 N 0.05282 0.99066 0.48807 0.0
C702 C 0.04449 0.97882 0.47278 0.0
C703 C 0.08151 0.99217 0.47696 0.0
C704 C 0.05441 0.97315 0.45892 0.0
C705 C 0.07111 0.99732 0.49037 0.0
C706 C 0.07314 0.98 0.46118 0.0
N707 N 0.0167 0.97994 0.48366 0.0
C708 C 0.99825 0.97576 0.48123 0.0
C709 C 0.01658 0.96131 0.45459 0.0
C710 C 0.02583 0.973 0.47065 0.0
C711 C 0.99768 0.95663 0.45235 0.0
C712 C 0.98848 0.96401 0.46566 0.0
H713 H 0.08124 0.976 0.45083 0.0
H714 H 0.05271 0.95649 0.43242 0.0
H715 H 0.01958 0.94609 0.42864 0.0
O716 O 0.02524 0.97406 0.52371 0.0
O717 O 0.02847 0.00898 0.48371 0.0
O718 O 0.00763 0.02337 0.49362 0.0
O719 O 0.05286 0.98193 0.51776 0.0
O720 O 0.0092 0.99679 0.52144 0.0
O721 O 0.99688 0.02168 0.5154 0.0
O722 O 0.02913 0.06861 0.5024 0.0
O723 O 0.02554 0.03428 0.54207 0.0
O724 O 0.04555 0.01731 0.5339 0.0
O725 O 1.0007 0.05675 0.5001 0.0
O726 O 0.04373 0.04381 0.50318 0.0
O727 O 0.05586 0.02194 0.51633 0.0
C728 C 0.01628 0.0184 0.48019 0.0
C729 C 0.04673 0.95499 0.53288 0.0
C730 C 0.04264 0.92971 0.55159 0.0
C731 C 0.05945 0.92673 0.54773 0.0
C732 C 0.06347 0.95145 0.52932 0.0
C733 C 0.06972 0.93747 0.53666 0.0
C734 C 0.03612 0.94386 0.544 0.0
C735 C 0.996 0.00555 0.52108 0.0
C736 C 0.04122 0.97047 0.52481 0.0
C737 C 0.04531 0.96109 0.44317 0.0
C738 C 0.02644 0.95514 0.44103 0.0
C739 C 0.03685 0.02404 0.54649 0.0
C740 C 0.00818 0.08674 0.49224 0.0
C741 C 0.01179 0.11361 0.4758 0.0
C742 C 0.99505 0.11604 0.48042 0.0
C743 C 0.9916 0.08984 0.49692 0.0
C744 C 0.01837 0.09887 0.4817 0.0
C745 C 0.98511 0.10432 0.49098 0.0
C746 C 0.05753 0.03666 0.50798 0.0
C747 C 0.01296 0.06926 0.4951 0.0
H748 H 0.06465 0.91595 0.55333 0.0
H749 H 0.0719 0.95954 0.52077 0.0
H750 H 0.08264 0.93498 0.53378 0.0
H751 H 0.02319 0.94631 0.54695 0.0
H752 H 0.98958 0.12703 0.4757 0.0
H753 H 0.98323 0.08067 0.50458 0.0
H754 H 0.03091 0.09644 0.47748 0.0
H755 H 0.97212 0.10626 0.49426 0.0
Tb756 Tb 0.28178 0.79905 0.7551 0.0
C757 C 0.24135 0.73237 0.79508 0.0
N758 N 0.25706 0.74507 0.80051 0.0
C759 C 0.24998 0.74795 0.83207 0.0
C760 C 0.22914 0.72735 0.80793 0.0
C761 C 0.2618 0.7523 0.81894 0.0
C762 C 0.2335 0.73556 0.82652 0.0
C763 C 0.22197 0.71014 0.77081 0.0
C764 C 0.23782 0.72374 0.77675 0.0
C765 C 0.20964 0.7054 0.78349 0.0
C766 C 0.21322 0.71397 0.80198 0.0
Tb767 Tb 0.2755 0.74937 0.77766 0.0
N768 N 0.24999 0.72865 0.76475 0.0
C769 C 0.21913 0.70151 0.75238 0.0
C770 C 0.24759 0.71991 0.74697 0.0
C771 C 0.23206 0.70633 0.74046 0.0
H772 H 0.27496 0.76088 0.82392 0.0
H773 H 0.23011 0.69954 0.72627 0.0
H774 H 0.28391 0.78985 0.70904 0.0
H775 H 0.32406 0.84827 0.80863 0.0
H776 H 0.25764 0.72334 0.73789 0.0
H777 H 0.20714 0.69096 0.7473 0.0
H778 H 0.29721 0.82486 0.79531 0.0
H779 H 0.25379 0.75385 0.84657 0.0
H780 H 0.1974 0.69497 0.77919 0.0
H781 H 0.2037 0.70996 0.81167 0.0
H782 H 0.30611 0.79817 0.68754 0.0
H783 H 0.2245 0.73202 0.8368 0.0
H784 H 0.34913 0.8566 0.78995 0.0
N785 N 0.30127 0.8041 0.73342 0.0
C786 C 0.31706 0.81641 0.74001 0.0
C787 C 0.30951 0.80309 0.70233 0.0
C788 C 0.32987 0.82213 0.72798 0.0
C789 C 0.29711 0.79795 0.71471 0.0
C790 C 0.32604 0.81507 0.70901 0.0
N791 N 0.30717 0.81871 0.76993 0.0
C792 C 0.30833 0.82754 0.78746 0.0
C793 C 0.33566 0.83764 0.76568 0.0
C794 C 0.31997 0.82414 0.75871 0.0
C795 C 0.33744 0.84595 0.78414 0.0
C796 C 0.3235 0.84113 0.79489 0.0
H797 H 0.33547 0.81925 0.6993 0.0
H798 H 0.35577 0.83969 0.72601 0.0
H799 H 0.36081 0.85324 0.75898 0.0
O800 O 0.27095 0.8213 0.76491 0.0
O801 O 0.30674 0.7909 0.7665 0.0
O802 O 0.3024 0.76786 0.78593 0.0
O803 O 0.27646 0.81679 0.73649 0.0
O804 O 0.26955 0.79143 0.7796 0.0
O805 O 0.28297 0.77355 0.79694 0.0
O806 O 0.28681 0.72702 0.76842 0.0
O807 O 0.25023 0.75627 0.76462 0.0
O808 O 0.25405 0.78224 0.74881 0.0
O809 O 0.2846 0.73472 0.79769 0.0
O810 O 0.2874 0.75812 0.75344 0.0
O811 O 0.27413 0.77497 0.73481 0.0
C812 C 0.31276 0.7808 0.77848 0.0
C813 C 0.25631 0.83591 0.74137 0.0
C814 C 0.24182 0.86152 0.7443 0.0
C815 C 0.23579 0.85813 0.72499 0.0
C816 C 0.2495 0.83251 0.72215 0.0
C817 C 0.23946 0.84363 0.71406 0.0
C818 C 0.25205 0.85031 0.75253 0.0
C819 C 0.2784 0.78879 0.79506 0.0
C820 C 0.27075 0.82719 0.74862 0.0
C821 C 0.34579 0.83517 0.73507 0.0
C822 C 0.34867 0.8429 0.75385 0.0
C823 C 0.24403 0.7678 0.75444 0.0
C824 C 0.29872 0.70975 0.79244 0.0
C825 C 0.31515 0.68587 0.78778 0.0
C826 C 0.31729 0.68516 0.80715 0.0
C827 C 0.30101 0.70861 0.81183 0.0
C828 C 0.30579 0.69816 0.78033 0.0
C829 C 0.31019 0.69642 0.81907 0.0
C830 C 0.27859 0.7597 0.7375 0.0
C831 C 0.29008 0.72399 0.78572 0.0
H832 H 0.22805 0.86667 0.71834 0.0
H833 H 0.25262 0.82175 0.71308 0.0
H834 H 0.2347 0.84115 0.69919 0.0
H835 H 0.25746 0.85338 0.76726 0.0
H836 H 0.3245 0.67582 0.81306 0.0
H837 H 0.29588 0.71735 0.82158 0.0
H838 H 0.30434 0.69889 0.7654 0.0
H839 H 0.31194 0.6958 0.834 0.0
Tb840 Tb 0.51951 0.04124 0.98556 0.0
C841 C 0.55444 0.00363 0.05772 0.0
N842 N 0.53967 0.99614 0.04503 0.0
C843 C 0.54881 0.96796 0.04245 0.0
C844 C 0.5673 0.9937 0.06302 0.0
C845 C 0.53652 0.97845 0.03756 0.0
C846 C 0.56436 0.97566 0.05512 0.0
C847 C 0.57173 0.02974 0.07868 0.0
C848 C 0.5566 0.02134 0.06535 0.0
C849 C 0.58483 0.02008 0.08378 0.0
C850 C 0.58261 0.00208 0.07596 0.0
Tb851 Tb 0.52154 0.01476 0.03605 0.0
N852 N 0.54376 0.03026 0.05978 0.0
C853 C 0.57317 0.04752 0.08659 0.0
C854 C 0.54479 0.04739 0.06813 0.0
C855 C 0.5595 0.05629 0.08146 0.0
H856 H 0.52462 0.97235 0.02766 0.0
H857 H 0.56024 0.06992 0.08781 0.0
H858 H 0.51178 0.08173 -0.00113 0.0
H859 H 0.4878 0.99065 0.92675 0.0
H860 H 0.53437 0.05441 0.06495 0.0
H861 H 0.58456 0.05447 0.09687 0.0
H862 H 0.51229 0.00629 0.95166 0.0
H863 H 0.54634 0.95399 0.03634 0.0
H864 H 0.59662 0.02635 0.09387 0.0
H865 H 0.59274 0.99473 0.0801 0.0
H866 H 0.48809 0.09827 0.992 0.0
H867 H 0.57392 0.96755 0.0588 0.0
H868 H 0.46132 0.00377 0.91941 0.0
N869 N 0.4991 0.05867 0.97927 0.0
C870 C 0.48546 0.05162 0.96502 0.0
C871 C 0.48704 0.08502 0.98448 0.0
C872 C 0.47157 0.0606 0.96055 0.0
C873 C 0.50034 0.07544 0.98858 0.0
C874 C 0.47244 0.07747 0.97058 0.0
N875 N 0.49896 0.02692 0.96009 0.0
C876 C 0.50045 0.01169 0.94937 0.0
C877 C 0.47128 0.02703 0.94052 0.0
C878 C 0.48537 0.03516 0.95506 0.0
C879 C 0.47192 0.01053 0.93063 0.0
C880 C 0.48678 0.00302 0.93483 0.0
H881 H 0.4621 0.08488 0.96752 0.0
H882 H 0.44639 0.05905 0.94276 0.0
H883 H 0.44607 0.02956 0.92532 0.0
O884 O 0.53847 0.0394 0.96689 0.0
O885 O 0.49254 0.02856 0.99001 0.0
O886 O 0.51009 0.02261 0.01202 0.0
O887 O 0.53152 0.06511 0.97537 0.0
O888 O 0.5251 0.01332 0.98344 0.0
O889 O 0.51896 0.9968 0.00929 0.0
O890 O 0.50391 0.016 0.05604 0.0
O891 O 0.54694 0.02169 0.02529 0.0
O892 O 0.53878 0.04395 0.01083 0.0
O893 O 0.50207 0.99131 0.03792 0.0
O894 O 0.51407 0.04145 0.03821 0.0
O895 O 0.52242 0.05837 0.01343 0.0
C896 C 0.49367 0.02094 0.00472 0.0
C897 C 0.55319 0.06545 0.95347 0.0
C898 C 0.56684 0.06407 0.92495 0.0
C899 C 0.57409 0.08279 0.9285 0.0
C900 C 0.56042 0.08414 0.95699 0.0
C901 C 0.57097 0.09275 0.94456 0.0
C902 C 0.55665 0.05542 0.93762 0.0
C903 C 0.52303 0.99833 0.99194 0.0
C904 C 0.54078 0.05652 0.96528 0.0
C905 C 0.4573 0.05245 0.94627 0.0
C906 C 0.45712 0.03567 0.93633 0.0
C907 C 0.55017 0.03368 0.01369 0.0
C908 C 0.49314 0.98874 0.06801 0.0
C909 C 0.48458 0.98779 0.09941 0.0
C910 C 0.48318 0.96896 0.09709 0.0
C911 C 0.49167 0.97001 0.06603 0.0
C912 C 0.48989 0.99756 0.08481 0.0
C913 C 0.48688 0.96024 0.08062 0.0
C914 C 0.51679 0.05667 0.03024 0.0
C915 C 0.49614 0.99891 0.0521 0.0
H916 H 0.58224 0.08967 0.91893 0.0
H917 H 0.55777 0.09207 0.96921 0.0
H918 H 0.57657 0.10716 0.94727 0.0
H919 H 0.55079 0.04102 0.9347 0.0
H920 H 0.47846 0.96068 0.10758 0.0
H921 H 0.49383 0.96283 0.05311 0.0
H922 H 0.49115 0.01203 0.08628 0.0
H923 H 0.48547 0.94576 0.07894 0.0
Tb924 Tb 0.26271 0.24194 0.2501 0.0
C925 C 0.32495 0.3084 0.29338 0.0
N926 N 0.30943 0.29857 0.29819 0.0
C927 C 0.32358 0.30163 0.33002 0.0
C928 C 0.34046 0.3151 0.30674 0.0
C929 C 0.30847 0.2955 0.31636 0.0
C930 C 0.33967 0.3114 0.32519 0.0
C931 C 0.34062 0.32326 0.2698 0.0
C932 C 0.32503 0.3125 0.27514 0.0
C933 C 0.35615 0.32973 0.28301 0.0
C934 C 0.35606 0.32567 0.30143 0.0
Tb935 Tb 0.28517 0.29176 0.27505 0.0
N936 N 0.30974 0.30606 0.26269 0.0
C937 C 0.34001 0.3275 0.25144 0.0
C938 C 0.30877 0.31121 0.24519 0.0
C939 C 0.32395 0.32158 0.23913 0.0
H940 H 0.29589 0.28928 0.32067 0.0
H941 H 0.32309 0.32542 0.22515 0.0
H942 H 0.25201 0.24934 0.20553 0.0
H943 H 0.2221 0.21277 0.30067 0.0
H944 H 0.29619 0.30814 0.23614 0.0
H945 H 0.35168 0.33577 0.2468 0.0
H946 H 0.24979 0.2291 0.29039 0.0
H947 H 0.32265 0.29922 0.34439 0.0
H948 H 0.36822 0.33808 0.27919 0.0
H949 H 0.36806 0.331 0.31154 0.0
H950 H 0.22513 0.24107 0.18207 0.0
H951 H 0.35126 0.3164 0.33589 0.0
H952 H 0.19418 0.20237 0.27808 0.0
N953 N 0.23841 0.23878 0.2276 0.0
C954 C 0.22269 0.22903 0.23213 0.0
C955 C 0.22417 0.23787 0.19615 0.0
C956 C 0.20711 0.2233 0.21871 0.0
C957 C 0.23935 0.24309 0.20979 0.0
C958 C 0.208 0.2279 0.20059 0.0
N959 N 0.23756 0.23013 0.26294 0.0
C960 C 0.23763 0.22582 0.28075 0.0
C961 C 0.20621 0.21438 0.25535 0.0
C962 C 0.22228 0.2245 0.25028 0.0
C963 C 0.20618 0.21028 0.27372 0.0
C964 C 0.22192 0.21614 0.2865 0.0
H965 H 0.19637 0.2236 0.18984 0.0
H966 H 0.1792 0.20823 0.21347 0.0
H967 H 0.17838 0.20056 0.24555 0.0
O968 O 0.26456 0.21564 0.25496 0.0
O969 O 0.2441 0.25983 0.25728 0.0
O970 O 0.25875 0.27945 0.28343 0.0
O971 O 0.25951 0.22229 0.22705 0.0
O972 O 0.27841 0.24441 0.27802 0.0
O973 O 0.27662 0.27181 0.29361 0.0
O974 O 0.27491 0.31344 0.26634 0.0
O975 O 0.3054 0.27753 0.26462 0.0
O976 O 0.29193 0.24944 0.24733 0.0
O977 O 0.28801 0.3146 0.29456 0.0
O978 O 0.26886 0.28641 0.24742 0.0
O979 O 0.27471 0.26102 0.23235 0.0
C980 C 0.2437 0.27082 0.27253 0.0
C981 C 0.27404 0.19857 0.23011 0.0
C982 C 0.29191 0.17646 0.23526 0.0
C983 C 0.29369 0.17438 0.21611 0.0
C984 C 0.27574 0.19625 0.2109 0.0
C985 C 0.28563 0.18428 0.204 0.0
C986 C 0.28217 0.18861 0.2422 0.0
C987 C 0.27879 0.25519 0.29355 0.0
C988 C 0.26227 0.20984 0.23709 0.0
C989 C 0.19122 0.21293 0.22368 0.0
C990 C 0.19076 0.20853 0.24194 0.0
C991 C 0.30633 0.2625 0.25427 0.0
C992 C 0.26587 0.33138 0.29031 0.0
C993 C 0.24987 0.35529 0.28838 0.0
C994 C 0.24343 0.35195 0.3054 0.0
C995 C 0.25941 0.32797 0.30735 0.0
C996 C 0.26084 0.34482 0.2808 0.0
C997 C 0.24805 0.33814 0.31473 0.0
C998 C 0.27214 0.27736 0.23235 0.0
C999 C 0.27934 0.32265 0.28298 0.0
H1000 H 0.30087 0.16474 0.21044 0.0
H1001 H 0.26917 0.20342 0.20113 0.0
H1002 H 0.28675 0.18242 0.1892 0.0
H1003 H 0.28066 0.19004 0.25696 0.0
H1004 H 0.23496 0.36006 0.31145 0.0
H1005 H 0.26338 0.31773 0.31508 0.0
H1006 H 0.26621 0.34776 0.2679 0.0
H1007 H 0.24314 0.33559 0.32789 0.0
Tb1008 Tb 0.53336 0.49691 0.01183 0.0
C1009 C 0.51121 0.56195 0.05554 0.0
N1010 N 0.50244 0.55044 0.04014 0.0
C1011 C 0.47449 0.54772 0.05315 0.0
C1012 C 0.50205 0.56624 0.07067 0.0
C1013 C 0.48409 0.54414 0.03839 0.0
C1014 C 0.48355 0.5586 0.06949 0.0
C1015 C 0.53856 0.58312 0.07084 0.0
C1016 C 0.52917 0.57041 0.05562 0.0
C1017 C 0.52968 0.58695 0.08623 0.0
C1018 C 0.51146 0.57854 0.08614 0.0
Tb1019 Tb 0.5198 0.54622 0.01683 0.0
N1020 N 0.53736 0.56634 0.04053 0.0
C1021 C 0.55652 0.59177 0.06999 0.0
C1022 C 0.55449 0.5755 0.0391 0.0
C1023 C 0.56447 0.58801 0.054 0.0
H1024 H 0.47655 0.537 0.0254 0.0
H1025 H 0.57826 0.59478 0.05314 0.0
H1026 H 0.57662 0.50651 0.00478 0.0
H1027 H 0.47379 0.45219 0.97145 0.0
H1028 H 0.56047 0.57302 0.02655 0.0
H1029 H 0.56424 0.60158 0.08144 0.0
H1030 H 0.49075 0.47283 -0.00127 0.0
H1031 H 0.46 0.54247 0.0517 0.0
H1032 H 0.53668 0.59664 0.09811 0.0
H1033 H 0.50466 0.58195 0.09791 0.0
H1034 H 0.59424 0.49992 0.97956 0.0
H1035 H 0.47601 0.5616 0.08078 0.0
H1036 H 0.48933 0.4441 0.94477 0.0
N1037 N 0.55134 0.49189 0.98964 0.0
C1038 C 0.54292 0.48033 0.97416 0.0
C1039 C 0.57977 0.49449 0.97776 0.0
C1040 C 0.55257 0.47588 0.95952 0.0
C1041 C 0.56964 0.49847 0.99193 0.0
C1042 C 0.57119 0.48328 0.96141 0.0
N1043 N 0.51559 0.47773 0.98732 0.0
C1044 C 0.49765 0.47018 0.987 0.0
C1045 C 0.51528 0.46102 0.95708 0.0
C1046 C 0.52448 0.47299 0.97296 0.0
C1047 C 0.49681 0.45361 0.95653 0.0
C1048 C 0.48799 0.45817 0.97158 0.0
H1049 H 0.57909 0.48019 0.95049 0.0
H1050 H 0.55056 0.4606 0.93216 0.0
H1051 H 0.51791 0.4476 0.93001 0.0
O1052 O 0.52808 0.46993 0.01839 0.0
O1053 O 0.52814 0.50945 0.98608 0.0
O1054 O 0.50706 0.52514 0.99397 0.0
O1055 O 0.55411 0.48868 0.02793 0.0
O1056 O 0.50754 0.49723 0.02237 0.0
O1057 O 0.4971 0.52191 0.01265 0.0
O1058 O 0.52704 0.56513 -0.00294 0.0
O1059 O 0.53758 0.53985 0.04015 0.0
O1060 O 0.52644 0.50956 0.03759 0.0
O1061 O 0.50405 0.56467 0.01221 0.0
O1062 O 0.5436 0.54302 0.00367 0.0
O1063 O 0.5553 0.52147 0.0182 0.0
C1064 C 0.51536 0.51797 0.98135 0.0
C1065 C 0.55091 0.45837 0.03711 0.0
C1066 C 0.54646 0.43066 0.05224 0.0
C1067 C 0.56517 0.4318 0.0536 0.0
C1068 C 0.56953 0.4591 0.03891 0.0
C1069 C 0.57654 0.44585 0.04695 0.0
C1070 C 0.53928 0.44406 0.04393 0.0
C1071 C 0.49454 0.50585 0.01872 0.0
C1072 C 0.54412 0.47252 0.02779 0.0
C1073 C 0.54339 0.46413 0.94357 0.0
C1074 C 0.52479 0.45671 0.94236 0.0
C1075 C 0.53584 0.52458 0.04734 0.0
C1076 C 0.50684 0.58616 0.99018 0.0
C1077 C 0.51094 0.61188 0.9721 0.0
C1078 C 0.49276 0.61238 0.97272 0.0
C1079 C 0.48863 0.58705 0.99033 0.0
C1080 C 0.5181 0.59874 0.98096 0.0
C1081 C 0.48173 0.60007 0.98176 0.0
C1082 C 0.55728 0.53635 0.01004 0.0
C1083 C 0.51349 0.5723 0.00022 0.0
H1084 H 0.57103 0.42176 0.05995 0.0
H1085 H 0.57872 0.46984 0.03381 0.0
H1086 H 0.59092 0.4465 0.0481 0.0
H1087 H 0.52486 0.44329 0.04267 0.0
H1088 H 0.48707 0.6224 0.96614 0.0
H1089 H 0.47961 0.57766 -0.0028 0.0
H1090 H 0.53216 0.59834 0.98067 0.0
H1091 H 0.46773 0.60063 0.98213 0.0
Tb1092 Tb 0.7806 0.29826 0.25562 0.0
C1093 C 0.74307 0.23319 0.29722 0.0
N1094 N 0.75878 0.24588 0.30234 0.0
C1095 C 0.75242 0.24908 0.33405 0.0
C1096 C 0.73127 0.22807 0.31037 0.0
C1097 C 0.76377 0.25362 0.32054 0.0
C1098 C 0.73608 0.23629 0.32894 0.0
C1099 C 0.72278 0.21191 0.27285 0.0
C1100 C 0.73885 0.22522 0.27868 0.0
C1101 C 0.71096 0.20678 0.2859 0.0
C1102 C 0.71519 0.21485 0.3046 0.0
Tb1103 Tb 0.77633 0.25113 0.27913 0.0
N1104 N 0.75046 0.23073 0.26634 0.0
C1105 C 0.71917 0.20406 0.25411 0.0
C1106 C 0.74742 0.22253 0.24832 0.0
C1107 C 0.73162 0.20932 0.24185 0.0
H1108 H 0.77671 0.26294 0.32478 0.0
H1109 H 0.7292 0.20304 0.22748 0.0
H1110 H 0.78478 0.28639 0.21091 0.0
H1111 H 0.8227 0.34757 0.30988 0.0
H1112 H 0.75729 0.22573 0.23907 0.0
H1113 H 0.70699 0.19374 0.24905 0.0
H1114 H 0.79532 0.32452 0.29582 0.0
H1115 H 0.75639 0.25527 0.34844 0.0
H1116 H 0.69855 0.19654 0.28169 0.0
H1117 H 0.70597 0.2107 0.31451 0.0
H1118 H 0.80774 0.29378 0.18984 0.0
H1119 H 0.72738 0.23272 0.33948 0.0
H1120 H 0.8477 0.35628 0.29116 0.0
N1121 N 0.8006 0.30365 0.23452 0.0
C1122 C 0.81605 0.31637 0.24095 0.0
C1123 C 0.81031 0.30012 0.20423 0.0
C1124 C 0.8294 0.32129 0.22928 0.0
C1125 C 0.79742 0.29573 0.21633 0.0
C1126 C 0.8264 0.3129 0.21074 0.0
N1127 N 0.80549 0.31892 0.27038 0.0
C1128 C 0.80654 0.3275 0.28802 0.0
C1129 C 0.83424 0.33772 0.26662 0.0
C1130 C 0.81852 0.32437 0.25944 0.0
C1131 C 0.83588 0.34586 0.28513 0.0
C1132 C 0.82186 0.34089 0.29579 0.0
H1133 H 0.83632 0.31631 0.2013 0.0
H1134 H 0.85563 0.3384 0.22768 0.0
H1135 H 0.85981 0.35287 0.26031 0.0
O1136 O 0.76909 0.32053 0.26337 0.0
O1137 O 0.80593 0.28876 0.26285 0.0
O1138 O 0.80171 0.2719 0.28758 0.0
O1139 O 0.77222 0.31242 0.23436 0.0
O1140 O 0.77022 0.29632 0.28232 0.0
O1141 O 0.78485 0.27673 0.29615 0.0
O1142 O 0.78802 0.22909 0.2699 0.0
O1143 O 0.75042 0.2596 0.27131 0.0
O1144 O 0.75436 0.27868 0.24813 0.0
O1145 O 0.78629 0.23701 0.29931 0.0
O1146 O 0.78668 0.25552 0.25302 0.0
O1147 O 0.77144 0.27331 0.23704 0.0
C1148 C 0.81233 0.28122 0.277 0.0
C1149 C 0.75857 0.33806 0.23947 0.0
C1150 C 0.74573 0.36446 0.24517 0.0
C1151 C 0.74325 0.36521 0.22579 0.0
C1152 C 0.75587 0.33915 0.22014 0.0
C1153 C 0.74822 0.35259 0.21339 0.0
C1154 C 0.75325 0.3507 0.25205 0.0
C1155 C 0.77496 0.28858 0.29677 0.0
C1156 C 0.7667 0.3235 0.24598 0.0
C1157 C 0.84522 0.33443 0.23644 0.0
C1158 C 0.84761 0.34265 0.25504 0.0
C1159 C 0.74402 0.2684 0.25819 0.0
C1160 C 0.79981 0.21154 0.29363 0.0
C1161 C 0.81595 0.18735 0.28877 0.0
C1162 C 0.8165 0.18542 0.30788 0.0
C1163 C 0.8006 0.20916 0.31271 0.0
C1164 C 0.80742 0.20037 0.28152 0.0
C1165 C 0.80884 0.1962 0.31971 0.0
C1166 C 0.77784 0.25881 0.23786 0.0
C1167 C 0.7913 0.226 0.28721 0.0
H1168 H 0.73724 0.37551 0.2202 0.0
H1169 H 0.75963 0.32955 0.21014 0.0
H1170 H 0.74612 0.35324 0.19848 0.0
H1171 H 0.75508 0.34999 0.26699 0.0
H1172 H 0.82292 0.17547 0.31367 0.0
H1173 H 0.79487 0.21738 0.32238 0.0
H1174 H 0.80704 0.20201 0.26681 0.0
H1175 H 0.80936 0.19458 0.33442 0.0
Tb1176 Tb 0.02235 0.54085 0.48677 0.0
C1177 C 0.05449 0.50231 0.55726 0.0
N1178 N 0.04055 0.49503 0.54352 0.0
C1179 C 0.05242 0.46862 0.53819 0.0
C1180 C 0.06845 0.49337 0.56155 0.0
C1181 C 0.03914 0.47826 0.53416 0.0
C1182 C 0.06729 0.47631 0.55177 0.0
C1183 C 0.06894 0.52712 0.58122 0.0
C1184 C 0.05471 0.51887 0.56686 0.0
C1185 C 0.08331 0.51867 0.58516 0.0
C1186 C 0.08303 0.50178 0.57538 0.0
Tb1187 Tb 0.02096 0.51272 0.53594 0.0
N1188 N 0.04065 0.52661 0.56238 0.0
C1189 C 0.0681 0.5434 0.5914 0.0
C1190 C 0.03897 0.54158 0.5735 0.0
C1191 C 0.05283 0.55042 0.58781 0.0
H1192 H 0.0278 0.47226 0.52354 0.0
H1193 H 0.05165 0.56259 0.59615 0.0
H1194 H 0.01629 0.58234 0.49752 0.0
H1195 H 0.9874 0.48642 0.43242 0.0
H1196 H 0.02698 0.54683 0.57172 0.0
H1197 H 0.0788 0.55026 0.60248 0.0
H1198 H 0.01176 0.50175 0.45719 0.0
H1199 H 0.05122 0.45534 0.53073 0.0
H1200 H 0.0945 0.52491 0.59597 0.0
H1201 H 0.09404 0.49527 0.57873 0.0
H1202 H 0.99422 0.59997 0.48793 0.0
H1203 H 0.07767 0.46892 0.55469 0.0
H1204 H 0.96369 0.50187 0.4214 0.0
N1205 N 0.00387 0.55926 0.47767 0.0
C1206 C 0.99056 0.55214 0.46313 0.0
C1207 C 0.99298 0.58648 0.4809 0.0
C1208 C 0.97751 0.5617 0.45735 0.0
C1209 C 0.00541 0.57635 0.48637 0.0
C1210 C 0.97887 0.57908 0.46644 0.0
N1211 N 0.00186 0.52572 0.46142 0.0
C1212 C 1.00152 0.50875 0.45308 0.0
C1213 C 0.97532 0.52648 0.44027 0.0
C1214 C 0.98955 0.53481 0.45463 0.0
C1215 C 0.97446 0.50879 0.43239 0.0
C1216 C 0.98775 0.49999 0.43867 0.0
H1217 H 0.96911 0.58687 0.46242 0.0
H1218 H 0.95308 0.56055 0.43852 0.0
H1219 H 0.9511 0.52967 0.42362 0.0
O1220 O 0.04154 0.5391 0.4684 0.0
O1221 O 0.99459 0.52943 0.49024 0.0
O1222 O 0.01118 0.52178 0.51191 0.0
O1223 O 0.03768 0.56486 0.47992 0.0
O1224 O 0.03003 0.51388 0.48579 0.0
O1225 O 0.01685 0.49618 0.50796 0.0
O1226 O 0.99934 0.51327 0.55114 0.0
O1227 O 0.04705 0.52023 0.52687 0.0
O1228 O 0.04016 0.54354 0.51316 0.0
O1229 O 0.00412 0.48797 0.53954 0.0
O1230 O 0.01653 0.54078 0.53999 0.0
O1231 O 0.02114 0.55735 0.51398 0.0
C1232 C 0.99504 0.52132 0.50469 0.0
C1233 C 0.04817 0.56347 0.45045 0.0
C1234 C 0.05702 0.55993 0.41932 0.0
C1235 C 0.05703 0.57814 0.4179 0.0
C1236 C 0.04832 0.58168 0.44886 0.0
C1237 C 0.05265 0.58891 0.4326 0.0
C1238 C 0.05251 0.55266 0.43559 0.0
C1239 C 0.02508 0.49819 0.49269 0.0
C1240 C 0.04596 0.55652 0.46841 0.0
C1241 C 0.96334 0.55349 0.44301 0.0
C1242 C 0.96222 0.5359 0.43452 0.0
C1243 C 0.05151 0.53344 0.51696 0.0
C1244 C 0.99341 0.48939 0.56901 0.0
C1245 C 0.985 0.4941 0.60013 0.0
C1246 C 0.99049 0.4785 0.60455 0.0
C1247 C 0.99872 0.47362 0.57341 0.0
C1248 C 0.98637 0.49942 0.58241 0.0
C1249 C 0.99723 0.46824 0.59115 0.0
C1250 C 0.01748 0.55567 0.53152 0.0
C1251 C 0.99515 0.49582 0.55074 0.0
H1252 H 0.06104 0.58422 0.40569 0.0
H1253 H 0.04555 0.59047 0.46035 0.0
H1254 H 0.05305 0.60301 0.43157 0.0
H1255 H 0.0529 0.53873 0.43685 0.0
H1256 H 0.98915 0.47405 0.61816 0.0
H1257 H 0.00403 0.46551 0.56323 0.0
H1258 H 0.98186 0.5114 0.57909 0.0
H1259 H 1.00124 0.45606 0.59449 0.0
Tb1260 Tb 0.80253 0.76349 0.2719 0.0
C1261 C 0.73852 0.78599 0.22666 0.0
N1262 N 0.74949 0.79439 0.24257 0.0
C1263 C 0.7524 0.82282 0.23034 0.0
C1264 C 0.73466 0.79559 0.21166 0.0
C1265 C 0.75549 0.81278 0.24495 0.0
C1266 C 0.74219 0.81414 0.21348 0.0
C1267 C 0.71742 0.75906 0.21042 0.0
C1268 C 0.72989 0.76803 0.22606 0.0
C1269 C 0.71415 0.76834 0.1951 0.0
C1270 C 0.72275 0.78657 0.19572 0.0
Tb1271 Tb 0.75285 0.77645 0.26573 0.0
N1272 N 0.73326 0.75952 0.24119 0.0
C1273 C 0.70823 0.74122 0.21093 0.0
C1274 C 0.72356 0.74252 0.24225 0.0
C1275 C 0.71117 0.73298 0.227 0.0
H1276 H 0.76193 0.81998 0.25835 0.0
H1277 H 0.70378 0.71936 0.22772 0.0
H1278 H 0.79562 0.72064 0.27952 0.0
H1279 H 0.84567 0.8245 0.31122 0.0
H1280 H 0.72554 0.73633 0.2548 0.0
H1281 H 0.69851 0.73386 0.19921 0.0
H1282 H 0.82568 0.80656 0.28402 0.0
H1283 H 0.75744 0.83733 0.23231 0.0
H1284 H 0.70465 0.76168 0.18292 0.0
H1285 H 0.71967 0.79371 0.18405 0.0
H1286 H 0.80317 0.7036 0.30516 0.0
H1287 H 0.73949 0.82202 0.20233 0.0
H1288 H 0.85427 0.80988 0.33862 0.0
N1289 N 0.80874 0.74625 0.29454 0.0
C1290 C 0.81997 0.75521 0.31004 0.0
C1291 C 0.80778 0.71815 0.30683 0.0
C1292 C 0.82502 0.746 0.32493 0.0
C1293 C 0.80319 0.72789 0.29244 0.0
C1294 C 0.81859 0.72726 0.32325 0.0
N1295 N 0.82136 0.7821 0.29619 0.0
C1296 C 0.82842 0.80006 0.29607 0.0
C1297 C 0.83824 0.78347 0.32674 0.0
C1298 C 0.8265 0.77372 0.3109 0.0
C1299 C 0.84497 0.80198 0.32689 0.0
C1300 C 0.84012 0.81028 0.31145 0.0
H1301 H 0.82218 0.71967 0.33435 0.0
H1302 H 0.84042 0.7489 0.35248 0.0
H1303 H 0.85196 0.78172 0.35409 0.0
O1304 O 0.82954 0.76923 0.26559 0.0
O1305 O 0.78968 0.76852 0.29741 0.0
O1306 O 0.77366 0.78924 0.28896 0.0
O1307 O 0.81123 0.74294 0.25617 0.0
O1308 O 0.80153 0.78872 0.2603 0.0
O1309 O 0.77719 0.79907 0.27057 0.0
O1310 O 0.7332 0.76904 0.28472 0.0
O1311 O 0.7595 0.75834 0.24305 0.0
O1312 O 0.78982 0.76966 0.24559 0.0
O1313 O 0.73443 0.79226 0.26976 0.0
O1314 O 0.75595 0.7527 0.2792 0.0
O1315 O 0.77826 0.74101 0.26619 0.0
C1316 C 0.78079 0.78103 0.30182 0.0
C1317 C 0.84168 0.74687 0.24724 0.0
C1318 C 0.86874 0.75186 0.23119 0.0
C1319 C 0.8688 0.73351 0.23107 0.0
C1320 C 0.84201 0.72854 0.24652 0.0
C1321 C 0.85554 0.72197 0.23862 0.0
C1322 C 0.85514 0.75863 0.23944 0.0
C1323 C 0.79294 0.80167 0.26397 0.0
C1324 C 0.82726 0.75324 0.25632 0.0
C1325 C 0.83645 0.75573 0.34086 0.0
C1326 C 0.84304 0.77441 0.34177 0.0
C1327 C 0.77477 0.76014 0.2359 0.0
C1328 C 0.71124 0.78868 0.2899 0.0
C1329 C 0.68612 0.78523 0.3088 0.0
C1330 C 0.68337 0.80205 0.30462 0.0
C1331 C 0.70798 0.80554 0.28623 0.0
C1332 C 0.70009 0.77836 0.30125 0.0
C1333 C 0.69418 0.81207 0.29345 0.0
C1334 C 0.76285 0.73902 0.27342 0.0
C1335 C 0.72634 0.78278 0.28145 0.0
H1336 H 0.87911 0.72803 0.22489 0.0
H1337 H 0.8319 0.71927 0.25234 0.0
H1338 H 0.8557 0.70782 0.23828 0.0
H1339 H 0.85503 0.7728 0.23977 0.0
H1340 H 0.67269 0.8075 0.31004 0.0
H1341 H 0.71614 0.81387 0.27768 0.0
H1342 H 0.70233 0.76539 0.30433 0.0
H1343 H 0.69187 0.82502 0.2904 0.0
Tb1344 Tb 0.75813 0.27427 0.79642 0.0
C1345 C 0.79825 0.24439 0.72662 0.0
N1346 N 0.80531 0.25887 0.73975 0.0
C1347 C 0.83303 0.24896 0.7445 0.0
C1348 C 0.80808 0.23122 0.72231 0.0
C1349 C 0.82257 0.26145 0.74854 0.0
C1350 C 0.82571 0.23368 0.73143 0.0
C1351 C 0.77258 0.22729 0.70483 0.0
C1352 C 0.78083 0.24253 0.71803 0.0
C1353 C 0.78215 0.21394 0.70065 0.0
C1354 C 0.7999 0.21593 0.70933 0.0
Tb1355 Tb 0.78639 0.27694 0.74797 0.0
N1356 N 0.7719 0.25551 0.72298 0.0
C1357 C 0.75494 0.22589 0.69634 0.0
C1358 C 0.755 0.25457 0.71383 0.0
C1359 C 0.74625 0.23974 0.70067 0.0
H1360 H 0.82829 0.27307 0.75884 0.0
H1361 H 0.73277 0.23903 0.69387 0.0
H1362 H 0.7171 0.28148 0.78581 0.0
H1363 H 0.81228 0.30624 0.85276 0.0
H1364 H 0.74798 0.26509 0.71628 0.0
H1365 H 0.74803 0.21436 0.68625 0.0
H1366 H 0.79693 0.28301 0.82719 0.0
H1367 H 0.84666 0.25101 0.75163 0.0
H1368 H 0.77596 0.20207 0.6907 0.0
H1369 H 0.80715 0.20555 0.70597 0.0
H1370 H 0.69955 0.30321 0.79622 0.0
H1371 H 0.83373 0.22388 0.72854 0.0
H1372 H 0.79701 0.32965 0.86462 0.0
N1373 N 0.74007 0.29281 0.8061 0.0
C1374 C 0.74712 0.3053 0.8213 0.0
C1375 C 0.71299 0.30405 0.80332 0.0
C1376 C 0.73761 0.31812 0.82769 0.0
C1377 C 0.72308 0.29184 0.7973 0.0
C1378 C 0.72034 0.31736 0.81847 0.0
N1379 N 0.77329 0.29354 0.82274 0.0
C1380 C 0.79008 0.29328 0.83137 0.0
C1381 C 0.77256 0.31912 0.84507 0.0
C1382 C 0.76431 0.3057 0.82994 0.0
C1383 C 0.79013 0.31947 0.85309 0.0
C1384 C 0.79883 0.30636 0.84635 0.0
H1385 H 0.71258 0.32694 0.82296 0.0
H1386 H 0.73867 0.34146 0.84783 0.0
H1387 H 0.7693 0.34235 0.86304 0.0
O1388 O 0.75921 0.25364 0.81315 0.0
O1389 O 0.76932 0.30235 0.79397 0.0
O1390 O 0.77732 0.2867 0.772 0.0
O1391 O 0.73374 0.25911 0.80271 0.0
O1392 O 0.78552 0.26724 0.79784 0.0
O1393 O 0.80309 0.28076 0.7758 0.0
O1394 O 0.78553 0.29676 0.73039 0.0
O1395 O 0.77957 0.25055 0.75679 0.0
O1396 O 0.75624 0.25762 0.7697 0.0
O1397 O 0.81059 0.29578 0.74664 0.0
O1398 O 0.75897 0.28318 0.74427 0.0
O1399 O 0.74163 0.27518 0.76886 0.0
C1400 C 0.7778 0.30264 0.77982 0.0
C1401 C 0.73562 0.24829 0.83194 0.0
C1402 C 0.74068 0.24056 0.8634 0.0
C1403 C 0.72297 0.24169 0.86599 0.0
C1404 C 0.71787 0.24926 0.83457 0.0
C1405 C 0.71165 0.24608 0.8516 0.0
C1406 C 0.74695 0.24401 0.84646 0.0
C1407 C 0.80126 0.27261 0.79115 0.0
C1408 C 0.74182 0.25003 0.81363 0.0
C1409 C 0.7457 0.3314 0.84283 0.0
C1410 C 0.76314 0.3319 0.8515 0.0
C1411 C 0.76628 0.24618 0.76651 0.0
C1412 C 0.81236 0.30768 0.71781 0.0
C1413 C 0.81125 0.31623 0.68642 0.0
C1414 C 0.83024 0.31983 0.6882 0.0
C1415 C 0.83133 0.31138 0.7195 0.0
C1416 C 0.80245 0.30993 0.70116 0.0
C1417 C 0.84019 0.31728 0.70463 0.0
C1418 C 0.74354 0.28051 0.7519 0.0
C1419 C 0.80289 0.30351 0.73392 0.0
H1420 H 0.71768 0.23853 0.87884 0.0
H1421 H 0.70871 0.25214 0.82339 0.0
H1422 H 0.6979 0.24659 0.8535 0.0
H1423 H 0.76054 0.24283 0.84446 0.0
H1424 H 0.83742 0.32509 0.67713 0.0
H1425 H 0.8393 0.31006 0.73238 0.0
H1426 H 0.78781 0.30719 0.69977 0.0
H1427 H 0.85481 0.3203 0.70602 0.0
Tb1428 Tb 0.76289 0.74237 0.75071 0.0
C1429 C 0.82447 0.80854 0.79551 0.0
N1430 N 0.80861 0.79868 0.7996 0.0
C1431 C 0.82155 0.80138 0.83183 0.0
C1432 C 0.83952 0.81511 0.80947 0.0
C1433 C 0.80686 0.79554 0.81763 0.0
C1434 C 0.83798 0.81114 0.82772 0.0
C1435 C 0.84108 0.82404 0.77291 0.0
C1436 C 0.82529 0.81292 0.77746 0.0
C1437 C 0.85615 0.83041 0.78671 0.0
C1438 C 0.85539 0.82592 0.80493 0.0
Tb1439 Tb 0.78519 0.79225 0.77548 0.0
N1440 N 0.81049 0.80642 0.76437 0.0
C1441 C 0.84114 0.82862 0.75469 0.0
C1442 C 0.81026 0.81151 0.74687 0.0
C1443 C 0.82559 0.82242 0.74168 0.0
H1444 H 0.79398 0.78946 0.82145 0.0
H1445 H 0.82519 0.82642 0.7278 0.0
H1446 H 0.75146 0.74792 0.70581 0.0
H1447 H 0.7239 0.71208 0.80179 0.0
H1448 H 0.79815 0.80778 0.73711 0.0
H1449 H 0.85295 0.83721 0.75065 0.0
H1450 H 0.75112 0.72851 0.79081 0.0
H1451 H 0.82002 0.79883 0.84606 0.0
H1452 H 0.8684 0.83897 0.78349 0.0
H1453 H 0.86704 0.83115 0.81549 0.0
H1454 H 0.72429 0.73914 0.68261 0.0
H1455 H 0.84921 0.81598 0.83885 0.0
H1456 H 0.6955 0.70182 0.77993 0.0
N1457 N 0.73824 0.73809 0.72833 0.0
C1458 C 0.72261 0.72868 0.73334 0.0
C1459 C 0.72355 0.73638 0.6969 0.0
C1460 C 0.70682 0.72274 0.7202 0.0
C1461 C 0.73891 0.74184 0.71031 0.0
C1462 C 0.70744 0.72678 0.70184 0.0
N1463 N 0.73807 0.73022 0.76392 0.0
C1464 C 0.73868 0.72558 0.78163 0.0
C1465 C 0.70669 0.71437 0.75707 0.0
C1466 C 0.72254 0.72455 0.75162 0.0
C1467 C 0.70723 0.71002 0.77537 0.0
C1468 C 0.72325 0.71576 0.78773 0.0
H1469 H 0.69565 0.72228 0.69131 0.0
H1470 H 0.67887 0.70781 0.71568 0.0
H1471 H 0.67875 0.7005 0.74793 0.0
O1472 O 0.76691 0.71704 0.75677 0.0
O1473 O 0.7441 0.7601 0.75779 0.0
O1474 O 0.75867 0.78014 0.78373 0.0
O1475 O 0.75944 0.72174 0.7285 0.0
O1476 O 0.77905 0.7455 0.77852 0.0
O1477 O 0.77603 0.77237 0.79386 0.0
O1478 O 0.77531 0.8139 0.76611 0.0
O1479 O 0.80539 0.77803 0.76483 0.0
O1480 O 0.79164 0.75053 0.74654 0.0
O1481 O 0.78786 0.81535 0.79459 0.0
O1482 O 0.76906 0.78707 0.7477 0.0
O1483 O 0.774 0.76133 0.73231 0.0
C1484 C 0.74366 0.77135 0.77284 0.0
C1485 C 0.77781 0.70111 0.73241 0.0
C1486 C 0.79429 0.67773 0.73594 0.0
C1487 C 0.80042 0.67996 0.71859 0.0
C1488 C 0.78416 0.70352 0.71508 0.0
C1489 C 0.79549 0.69299 0.70828 0.0
C1490 C 0.78316 0.68835 0.74287 0.0
C1491 C 0.77883 0.75604 0.794 0.0
C1492 C 0.76444 0.71056 0.73908 0.0
C1493 C 0.69105 0.71262 0.72564 0.0
C1494 C 0.69099 0.70846 0.74401 0.0
C1495 C 0.80612 0.76329 0.75385 0.0
C1496 C 0.76636 0.83275 0.78941 0.0
C1497 C 0.75062 0.85665 0.78592 0.0
C1498 C 0.74485 0.85494 0.80349 0.0
C1499 C 0.76044 0.83083 0.80698 0.0
C1500 C 0.76118 0.8455 0.77885 0.0
C1501 C 0.74964 0.8419 0.81393 0.0
C1502 C 0.77201 0.77792 0.73249 0.0
C1503 C 0.77963 0.82338 0.78262 0.0
H1504 H 0.80892 0.67159 0.71306 0.0
H1505 H 0.78018 0.71326 0.70663 0.0
H1506 H 0.80021 0.69474 0.69488 0.0
H1507 H 0.77812 0.68617 0.75609 0.0
H1508 H 0.73689 0.86382 0.80917 0.0
H1509 H 0.76447 0.82116 0.8155 0.0
H1510 H 0.76603 0.84732 0.76547 0.0
H1511 H 0.74532 0.84063 0.82756 0.0
Tb1512 Tb 0.55231 0.53182 0.53138 0.0
C1513 C 0.48833 0.47198 0.4878 0.0
N1514 N 0.49838 0.48735 0.48293 0.0
C1515 C 0.49665 0.47285 0.4516 0.0
C1516 C 0.48185 0.45644 0.47455 0.0
C1517 C 0.50261 0.48801 0.46511 0.0
C1518 C 0.48616 0.45703 0.45629 0.0
C1519 C 0.47344 0.45631 0.5114 0.0
C1520 C 0.48422 0.4719 0.50612 0.0
C1521 C 0.46682 0.4409 0.49815 0.0
C1522 C 0.47103 0.44096 0.47981 0.0
Tb1523 Tb 0.50272 0.51173 0.50509 0.0
N1524 N 0.49048 0.48718 0.51858 0.0
C1525 C 0.46922 0.45682 0.52972 0.0
C1526 C 0.48633 0.48769 0.53645 0.0
C1527 C 0.47592 0.47247 0.54237 0.0
H1528 H 0.50965 0.50042 0.46088 0.0
H1529 H 0.47251 0.47304 0.5565 0.0
H1530 H 0.5471 0.54288 0.576 0.0
H1531 H 0.59356 0.56744 0.48539 0.0
H1532 H 0.49014 0.4999 0.54597 0.0
H1533 H 0.46043 0.44538 0.53411 0.0
H1534 H 0.57362 0.54142 0.49512 0.0
H1535 H 0.49976 0.47353 0.43742 0.0
H1536 H 0.45837 0.42887 0.50194 0.0
H1537 H 0.46574 0.42898 0.46974 0.0
H1538 H 0.55658 0.56946 0.59975 0.0
H1539 H 0.48129 0.44542 0.44568 0.0
H1540 H 0.60271 0.59643 0.50641 0.0
N1541 N 0.55869 0.55613 0.55433 0.0
C1542 C 0.56968 0.57133 0.55019 0.0
C1543 C 0.55997 0.57035 0.58575 0.0
C1544 C 0.57586 0.58681 0.56358 0.0
C1545 C 0.55418 0.55534 0.57202 0.0
C1546 C 0.57068 0.58623 0.58148 0.0
N1547 N 0.5697 0.55563 0.52045 0.0
C1548 C 0.57649 0.55413 0.50387 0.0
C1549 C 0.58741 0.58623 0.52805 0.0
C1550 C 0.5755 0.57102 0.53273 0.0
C1551 C 0.59349 0.58509 0.51053 0.0
C1552 C 0.5882 0.56885 0.49852 0.0
H1553 H 0.57533 0.59774 0.59224 0.0
H1554 H 0.59234 0.61414 0.569 0.0
H1555 H 0.60233 0.61367 0.53782 0.0
O1556 O 0.57381 0.51958 0.52542 0.0
O1557 O 0.53993 0.55331 0.52053 0.0
O1558 O 0.51125 0.54093 0.50383 0.0
O1559 O 0.57212 0.532 0.55362 0.0
O1560 O 0.54815 0.51753 0.50271 0.0
O1561 O 0.5224 0.52337 0.48756 0.0
O1562 O 0.47628 0.51297 0.50958 0.0
O1563 O 0.52043 0.49247 0.51085 0.0
O1564 O 0.53737 0.50584 0.53861 0.0
O1565 O 0.48372 0.51125 0.48179 0.0
O1566 O 0.50486 0.52797 0.53252 0.0
O1567 O 0.53085 0.52326 0.54792 0.0
C1568 C 0.52484 0.55482 0.51052 0.0
C1569 C 0.59743 0.51866 0.55069 0.0
C1570 C 0.62521 0.50982 0.54598 0.0
C1571 C 0.62969 0.51063 0.56542 0.0
C1572 C 0.60185 0.51939 0.57017 0.0
C1573 C 0.61794 0.5153 0.57747 0.0
C1574 C 0.60904 0.51366 0.53864 0.0
C1575 C 0.53897 0.52117 0.48768 0.0
C1576 C 0.58092 0.52342 0.543 0.0
C1577 C 0.58746 0.60213 0.55889 0.0
C1578 C 0.59318 0.60186 0.54115 0.0
C1579 C 0.53013 0.4912 0.52671 0.0
C1580 C 0.46151 0.52752 0.48747 0.0
C1581 C 0.43995 0.5453 0.49512 0.0
C1582 C 0.44135 0.55281 0.47834 0.0
C1583 C 0.46275 0.53503 0.47056 0.0
C1584 C 0.44998 0.53271 0.49968 0.0
C1585 C 0.45274 0.54766 0.4661 0.0
C1586 C 0.51572 0.52857 0.54804 0.0
C1587 C 0.4712 0.51349 0.49193 0.0
H1588 H 0.64216 0.50746 0.5712 0.0
H1589 H 0.59291 0.52311 0.57973 0.0
H1590 H 0.62132 0.51581 0.59245 0.0
H1591 H 0.60574 0.51312 0.5236 0.0
H1592 H 0.4333 0.56229 0.47456 0.0
H1593 H 0.47127 0.53103 0.46068 0.0
H1594 H 0.44846 0.5267 0.51252 0.0
H1595 H 0.4536 0.55325 0.45301 0.0
Tb1596 Tb 0.99858 0.51611 0.02821 0.0
C1597 C 0.06424 0.55858 0.98964 0.0
N1598 N 0.05213 0.54243 0.98423 0.0
C1599 C 0.04842 0.54969 0.9527 0.0
C1600 C 0.06843 0.57106 0.9768 0.0
C1601 C 0.04509 0.5375 0.96572 0.0
C1602 C 0.05993 0.56663 0.9583 0.0
C1603 C 0.087 0.57814 0.01343 0.0
C1604 C 0.07339 0.56223 0.00785 0.0
C1605 C 0.09079 0.59073 0.00079 0.0
C1606 C 0.08147 0.58725 0.98257 0.0
Tb1607 Tb 0.04928 0.52409 0.00744 0.0
N1608 N 0.06908 0.55008 0.02008 0.0
C1609 C 0.09651 0.58081 0.03153 0.0
C1610 C 0.07877 0.55224 0.03745 0.0
C1611 C 0.09246 0.56771 0.04349 0.0
H1612 H 0.03742 0.52402 0.96054 0.0
H1613 H 0.10002 0.5694 0.05726 0.0
H1614 H 0.01063 0.51271 0.07415 0.0
H1615 H 0.94667 0.47483 0.97618 0.0
H1616 H 0.07611 0.54192 0.04647 0.0
H1617 H 0.10716 0.59278 0.03631 0.0
H1618 H 0.97129 0.50112 0.98854 0.0
H1619 H 0.0425 0.54579 0.93819 0.0
H1620 H 0.10108 0.60311 0.00488 0.0
H1621 H 0.08481 0.59696 0.97287 0.0
H1622 H 0.00341 0.49007 0.09525 0.0
H1623 H 0.06277 0.57587 0.94805 0.0
H1624 H 0.93865 0.44998 0.99528 0.0
N1625 N 0.99443 0.49634 0.04994 0.0
C1626 C 0.98149 0.48093 0.04374 0.0
C1627 C 0.99739 0.48719 0.08071 0.0
C1628 C 0.97644 0.46784 0.05577 0.0
C1629 C 0.00183 0.49989 0.06841 0.0
C1630 C 0.9848 0.47103 0.07433 0.0
N1631 N 0.97758 0.49137 0.01415 0.0
C1632 C 0.96838 0.49022 -0.00328 0.0
C1633 C 0.95875 0.46302 0.01887 0.0
C1634 C 0.97267 0.47849 0.02544 0.0
C1635 C 0.94963 0.4615 0.00073 0.0
C1636 C 0.95427 0.47533 0.98977 0.0
H1637 H 0.98123 0.46134 0.08401 0.0
H1638 H 0.95888 0.44207 0.05815 0.0
H1639 H 0.94341 0.43788 0.0259 0.0
O1640 O 0.97492 0.52543 0.01927 0.0
O1641 O 0.00673 0.49115 0.01609 0.0
O1642 O 0.03269 0.49607 0.00033 0.0
O1643 O 0.98464 0.52545 0.04883 0.0
O1644 O 0.00724 0.52768 0.0037 0.0
O1645 O 0.02565 0.51492 0.98698 0.0
O1646 O 0.07054 0.51281 0.01874 0.0
O1647 O 0.04267 0.54884 0.02186 0.0
O1648 O 0.01331 0.54442 0.0303 0.0
O1649 O 0.06867 0.51938 0.99056 0.0
O1650 O 0.03957 0.51221 0.03121 0.0
O1651 O 0.02223 0.52505 0.04886 0.0
C1652 C 0.01849 0.4854 0.00589 0.0
C1653 C 0.95775 0.537 0.043 0.0
C1654 C 0.93383 0.5534 0.03799 0.0
C1655 C 0.93184 0.55389 0.05704 0.0
C1656 C 0.95535 0.53763 0.06203 0.0
C1657 C 0.94249 0.546 0.06895 0.0
C1658 C 0.94677 0.54484 0.03087 0.0
C1659 C 0.00985 0.5184 0.98857 0.0
C1660 C 0.97267 0.52937 0.03669 0.0
C1661 C 0.96288 0.45224 0.04909 0.0
C1662 C 0.95405 0.44984 0.03072 0.0
C1663 C 0.02908 0.55483 0.02835 0.0
C1664 C 0.08422 0.49657 -0.00354 0.0
C1665 C 0.10809 0.47986 -0.00143 0.0
C1666 C 0.10118 0.47068 0.9806 0.0
C1667 C 0.07722 0.48681 0.97868 0.0
C1668 C 0.09952 0.49276 0.00655 0.0
C1669 C 0.0857 0.47397 0.97085 0.0
C1670 C 0.03784 0.52144 0.04667 0.0
C1671 C 0.07758 0.51255 0.00318 0.0
H1672 H 0.92197 0.56044 0.06271 0.0
H1673 H 0.96359 0.53182 0.07172 0.0
H1674 H 0.94088 0.5465 0.08365 0.0
H1675 H 0.9485 0.54466 0.0162 0.0
H1676 H 0.10775 0.46086 0.97416 0.0
H1677 H 0.06557 0.48953 0.97053 0.0
H1678 H 0.1052 0.50035 0.02013 0.0
H1679 H 0.08047 0.4668 0.95701 0.0
H1680 H 0.02467 0.22223 0.97718 0.0
H1681 H 0.03053 0.19422 0.98782 0.0
H1682 H 0.98461 0.16327 0.94945 0.0
H1683 H 0.9785 0.19131 0.93937 0.0
H1684 H 0.98379 0.149 0.97962 0.0
H1685 H 0.03216 0.16588 0.94348 0.0
H1686 H 0.05839 0.18651 0.9344 0.0
H1687 H 0.0875 0.18994 0.98932 0.0
H1688 H 0.06133 0.16948 -0.00119 0.0
H1689 H 0.00318 0.06142 0.98073 0.0
H1690 H 0.99873 0.09045 0.97223 0.0
H1691 H 0.04029 0.11824 0.01696 0.0
H1692 H 0.04412 0.08918 0.02611 0.0
H1693 H 0.04427 0.13469 0.98502 0.0
H1694 H 0.99543 0.11721 0.02056 0.0
H1695 H 0.96788 0.09894 0.02998 0.0
H1696 H 0.9393 0.0971 0.97514 0.0
H1697 H 0.9667 0.11513 0.96529 0.0
C1698 C 0.01599 0.20942 0.97083 0.0
C1699 C 1.0013 0.20908 0.95711 0.0
C1700 C 0.01937 0.19327 0.97691 0.0
C1701 C 0.00827 0.17619 0.96934 0.0
C1702 C 0.99355 0.17599 0.95565 0.0
C1703 C 0.9901 0.19211 0.94972 0.0
C1704 C 0.01159 0.15863 0.97583 0.0
C1705 C 0.99702 0.14586 0.98045 0.0
C1706 C 0.02887 0.15431 0.97763 0.0
C1707 C 0.04475 0.16628 0.9719 0.0
C1708 C 0.04413 0.17109 0.95364 0.0
C1709 C 0.05898 0.18275 0.94842 0.0
C1710 C 0.07459 0.18956 0.96129 0.0
C1711 C 0.07539 0.18466 0.97938 0.0
C1712 C 0.06057 0.17302 0.98468 0.0
C1713 C 0.01134 0.07363 0.98893 0.0
C1714 C 0.02417 0.07257 0.00414 0.0
C1715 C 0.00876 0.09041 0.984 0.0
C1716 C 0.01911 0.1069 0.99386 0.0
C1717 C 0.03209 0.10592 0.00892 0.0
C1718 C 0.03436 0.08911 0.01414 0.0
C1719 C 0.01636 0.12497 0.98842 0.0
C1720 C 0.03105 0.13784 0.98408 0.0
C1721 C 0.99915 0.12936 0.9867 0.0
C1722 C 0.98313 0.11741 0.99216 0.0
C1723 C 0.98335 0.11266 0.01042 0.0
C1724 C 0.96777 0.1024 0.01585 0.0
C1725 C 0.95191 0.09692 0.00314 0.0
C1726 C 0.95163 0.10138 0.98492 0.0
C1727 C 0.96716 0.11161 0.97942 0.0
H1728 H 0.93974 0.08946 0.00745 0.0
H1729 H 0.08606 0.1986 0.95723 0.0
H1730 H 0.1049 0.81565 0.15214 0.0
H1731 H 0.13065 0.81465 0.17537 0.0
H1732 H 0.12616 0.75882 0.15422 0.0
H1733 H 0.10051 0.75988 0.13117 0.0
H1734 H 0.13335 0.76304 0.19122 0.0
H1735 H 0.15856 0.79331 0.14227 0.0
H1736 H 0.1636 0.81638 0.12079 0.0
H1737 H 0.18107 0.85802 0.16771 0.0
H1738 H 0.17592 0.8352 0.18948 0.0
H1739 H 0.22229 0.75439 0.22646 0.0
H1740 H 0.19431 0.75558 0.20685 0.0
H1741 H 0.19978 0.81071 0.23117 0.0
H1742 H 0.22778 0.80942 0.25083 0.0
H1743 H 0.19166 0.8073 0.19361 0.0
H1744 H 0.16775 0.77576 0.24256 0.0
H1745 H 0.16293 0.75195 0.26323 0.0
H1746 H 0.1435 0.71172 0.21533 0.0
H1747 H 0.14844 0.73525 0.19435 0.0
C1748 C 0.10923 0.8031 0.15276 0.0
C1749 C 0.10054 0.78776 0.14005 0.0
C1750 C 0.12408 0.80256 0.1659 0.0
C1751 C 0.13063 0.78669 0.16654 0.0
C1752 C 0.1215 0.77123 0.15416 0.0
C1753 C 0.10678 0.77182 0.141 0.0
C1754 C 0.14715 0.78617 0.1797 0.0
C1755 C 0.14614 0.77263 0.19158 0.0
C1756 C 0.1639 0.7988 0.18055 0.0
C1757 C 0.16661 0.81257 0.1675 0.0
C1758 C 0.16328 0.8074 0.14801 0.0
C1759 C 0.16621 0.82043 0.13578 0.0
C1760 C 0.17259 0.83866 0.14288 0.0
C1761 C 0.17608 0.8439 0.16223 0.0
C1762 C 0.17316 0.83092 0.17452 0.0
C1763 C 0.2175 0.76676 0.22754 0.0
C1764 C 0.22728 0.78189 0.23997 0.0
C1765 C 0.20141 0.7674 0.21645 0.0
C1766 C 0.19471 0.78321 0.21751 0.0
C1767 C 0.20456 0.79834 0.23001 0.0
C1768 C 0.22056 0.79763 0.24124 0.0
C1769 C 0.17786 0.7842 0.20517 0.0
C1770 C 0.17884 0.79779 0.19337 0.0
C1771 C 0.16115 0.7715 0.20428 0.0
C1772 C 0.15867 0.75727 0.21686 0.0
C1773 C 0.16266 0.76181 0.23642 0.0
C1774 C 0.15985 0.74837 0.2482 0.0
C1775 C 0.15296 0.73033 0.2406 0.0
C1776 C 0.14887 0.72569 0.2212 0.0
C1777 C 0.15166 0.73908 0.20936 0.0
H1778 H 0.15075 0.71995 0.24974 0.0
H1779 H 0.17488 0.84872 0.1334 0.0
H1780 H 0.50024 0.80932 0.4894 0.0
H1781 H 0.50418 0.84174 0.49873 0.0
H1782 H 0.51189 0.85155 0.44224 0.0
H1783 H 0.50927 0.81921 0.43331 0.0
H1784 H 0.53194 0.87772 0.46254 0.0
H1785 H 0.46924 0.85118 0.46495 0.0
H1786 H 0.44406 0.83 0.47515 0.0
H1787 H 0.4632 0.85199 0.53256 0.0
H1788 H 0.48859 0.87319 0.5227 0.0
H1789 H 0.52084 0.9681 0.47296 0.0
H1790 H 0.51743 0.93578 0.46393 0.0
H1791 H 0.50779 0.92597 0.51998 0.0
H1792 H 0.50978 0.95829 0.52853 0.0
H1793 H 0.48854 0.89955 0.49998 0.0
H1794 H 0.55217 0.92508 0.49712 0.0
H1795 H 0.5792 0.94314 0.4867 0.0
H1796 H 0.55819 0.92224 0.42936 0.0
H1797 H 0.53112 0.9039 0.43951 0.0
C1798 C 0.50303 0.81841 0.47902 0.0
C1799 C 0.50447 0.8115 0.46058 0.0
C1800 C 0.50501 0.83707 0.4843 0.0
C1801 C 0.50772 0.84948 0.47115 0.0
C1802 C 0.5097 0.84258 0.45283 0.0
C1803 C 0.50825 0.82395 0.44768 0.0
C1804 C 0.50859 0.8695 0.47637 0.0
C1805 C 0.5222 0.88239 0.47049 0.0
C1806 C 0.49633 0.87608 0.48719 0.0
C1807 C 0.48085 0.86367 0.4931 0.0
C1808 C 0.46808 0.85146 0.47975 0.0
C1809 C 0.45378 0.83945 0.48547 0.0
C1810 C 0.45205 0.83963 0.50449 0.0
C1811 C 0.46456 0.85187 0.51783 0.0
C1812 C 0.47889 0.86391 0.51218 0.0
C1813 C 0.51797 0.95907 0.48339 0.0
C1814 C 0.51577 0.96599 0.50157 0.0
C1815 C 0.51625 0.94041 0.47826 0.0
C1816 C 0.51299 0.92797 0.49132 0.0
C1817 C 0.51042 0.93492 0.50944 0.0
C1818 C 0.5116 0.95355 0.51441 0.0
C1819 C 0.51196 0.90787 0.48613 0.0
C1820 C 0.49827 0.89493 0.49201 0.0
C1821 C 0.52409 0.9012 0.47518 0.0
C1822 C 0.53963 0.91325 0.46906 0.0
C1823 C 0.55324 0.92452 0.48229 0.0
C1824 C 0.5686 0.93474 0.47642 0.0
C1825 C 0.57042 0.93382 0.45735 0.0
C1826 C 0.55678 0.92289 0.44411 0.0
C1827 C 0.54147 0.91255 0.44992 0.0
H1828 H 0.58243 0.94142 0.45278 0.0
H1829 H 0.44099 0.8303 0.50889 0.0
H1830 H 0.49028 0.27938 0.61908 0.0
H1831 H 0.4625 0.27683 0.6338 0.0
H1832 H 0.49412 0.28558 0.68837 0.0
H1833 H 0.52182 0.28833 0.67386 0.0
H1834 H 0.46437 0.25671 0.68458 0.0
H1835 H 0.47768 0.31865 0.67224 0.0
H1836 H 0.48353 0.34284 0.65215 0.0
H1837 H 0.43115 0.32192 0.62005 0.0
H1838 H 0.42512 0.29737 0.63975 0.0
H1839 H 0.40365 0.26989 0.74604 0.0
H1840 H 0.4293 0.27843 0.72872 0.0
H1841 H 0.39256 0.27119 0.67749 0.0
H1842 H 0.36683 0.26278 0.69495 0.0
H1843 H 0.4233 0.29851 0.6772 0.0
H1844 H 0.40922 0.23733 0.68908 0.0
H1845 H 0.40287 0.21228 0.70803 0.0
H1846 H 0.45603 0.23027 0.73915 0.0
H1847 H 0.46257 0.25571 0.72066 0.0
C1848 C 0.49132 0.28076 0.63422 0.0
C1849 C 0.50835 0.28409 0.64527 0.0
C1850 C 0.47541 0.27936 0.64262 0.0
C1851 C 0.47618 0.2811 0.66224 0.0
C1852 C 0.49313 0.2842 0.67323 0.0
C1853 C 0.509 0.28582 0.66488 0.0
C1854 C 0.45944 0.27953 0.67149 0.0
C1855 C 0.45552 0.26599 0.68312 0.0
C1856 C 0.44748 0.29123 0.66911 0.0
C1857 C 0.45103 0.30604 0.65734 0.0
C1858 C 0.46747 0.31909 0.66079 0.0
C1859 C 0.47081 0.33289 0.64949 0.0
C1860 C 0.45774 0.33388 0.6348 0.0
C1861 C 0.44128 0.3211 0.63141 0.0
C1862 C 0.43789 0.30725 0.64264 0.0
C1863 C 0.40102 0.27097 0.73125 0.0
C1864 C 0.38324 0.26596 0.7219 0.0
C1865 C 0.4157 0.27562 0.72128 0.0
C1866 C 0.41294 0.27511 0.70169 0.0
C1867 C 0.39509 0.27166 0.69256 0.0
C1868 C 0.38036 0.267 0.70257 0.0
C1869 C 0.42855 0.276 0.69071 0.0
C1870 C 0.43215 0.28925 0.67866 0.0
C1871 C 0.44017 0.2639 0.6925 0.0
C1872 C 0.43631 0.24856 0.70361 0.0
C1873 C 0.4195 0.23606 0.70008 0.0
C1874 C 0.41587 0.22178 0.71073 0.0
C1875 C 0.42902 0.21971 0.72482 0.0
C1876 C 0.44584 0.23192 0.72826 0.0
C1877 C 0.44951 0.24628 0.71771 0.0
H1878 H 0.42619 0.20863 0.73303 0.0
H1879 H 0.46034 0.34458 0.62607 0.0
H1880 H 0.99086 0.77983 0.61551 0.0
H1881 H 0.9949 0.80719 0.60028 0.0
H1882 H 0.03699 0.83445 0.64485 0.0
H1883 H 0.03296 0.80701 0.6603 0.0
H1884 H 0.01388 0.85587 0.63604 0.0
H1885 H 0.04818 0.82159 0.60221 0.0
H1886 H 0.05419 0.79483 0.58424 0.0
H1887 H 0.01053 0.79488 0.54156 0.0
H1888 H 0.00417 0.82159 0.55937 0.0
H1889 H 0.05106 0.92999 0.5889 0.0
H1890 H 0.04274 0.90469 0.6066 0.0
H1891 H 0.00486 0.8757 0.55913 0.0
H1892 H 0.01378 0.901 0.54118 0.0
H1893 H 0.02544 0.85513 0.56994 0.0
H1894 H 0.99167 0.89051 0.60459 0.0
H1895 H 0.98686 0.91758 0.62314 0.0
H1896 H 0.03091 0.91595 0.66471 0.0
H1897 H 0.03602 0.88892 0.64636 0.0
C1898 C 1.00103 0.79159 0.62211 0.0
C1899 C 0.01158 0.79113 0.63918 0.0
C1900 C 0.00338 0.80726 0.6133 0.0
C1901 C 0.01635 0.82292 0.62128 0.0
C1902 C 0.02688 0.82257 0.63838 0.0
C1903 C 0.0246 0.80683 0.64718 0.0
C1904 C 0.01864 0.83965 0.61184 0.0
C1905 C 0.01661 0.85576 0.62164 0.0
C1906 C 0.02187 0.83954 0.59294 0.0
C1907 C 0.02559 0.82346 0.58221 0.0
C1908 C 0.03977 0.81581 0.58907 0.0
C1909 C 0.04327 0.80068 0.57889 0.0
C1910 C 0.03271 0.79313 0.5618 0.0
C1911 C 0.01868 0.80073 0.55481 0.0
C1912 C 0.01514 0.81588 0.56492 0.0
C1913 C 0.04037 0.91854 0.58255 0.0
C1914 C 0.03282 0.91762 0.56379 0.0
C1915 C 0.03562 0.90397 0.59268 0.0
C1916 C 0.02304 0.88812 0.58436 0.0
C1917 C 0.01458 0.8877 0.56596 0.0
C1918 C 0.01945 0.90228 0.55577 0.0
C1919 C 0.02038 0.87143 0.59399 0.0
C1920 C 0.02249 0.85528 0.58426 0.0
C1921 C 0.01735 0.87157 0.61299 0.0
C1922 C 0.0143 0.88779 0.62404 0.0
C1923 C 1.00039 0.896 0.61764 0.0
C1924 C 0.99759 0.9113 0.62813 0.0
C1925 C 0.0086 0.9185 0.64507 0.0
C1926 C 0.02239 0.91036 0.65159 0.0
C1927 C 0.02521 0.89502 0.64117 0.0
H1928 H 0.00643 0.93037 0.65316 0.0
H1929 H 0.03543 0.78141 0.55394 0.0
H1930 H 0.49076 0.7913 0.80437 0.0
H1931 H 0.45972 0.79004 0.78895 0.0
H1932 H 0.44066 0.79091 0.8428 0.0
H1933 H 0.4705 0.79206 0.85785 0.0
H1934 H 0.41969 0.76384 0.8185 0.0
H1935 H 0.44615 0.82762 0.82026 0.0
H1936 H 0.46736 0.85398 0.81214 0.0
H1937 H 0.44818 0.83715 0.75369 0.0
H1938 H 0.42699 0.81056 0.76148 0.0
H1939 H 0.33156 0.77838 0.81219 0.0
H1940 H 0.36408 0.78122 0.81993 0.0
H1941 H 0.37169 0.79124 0.76344 0.0
H1942 H 0.33928 0.7898 0.75619 0.0
H1943 H 0.39921 0.80993 0.78372 0.0
H1944 H 0.36955 0.74732 0.78357 0.0
H1945 H 0.34857 0.72163 0.79319 0.0
H1946 H 0.37449 0.73603 0.85002 0.0
H1947 H 0.39523 0.76213 0.84089 0.0
C1948 C 0.47991 0.79123 0.81282 0.0
C1949 C 0.48331 0.79134 0.83239 0.0
C1950 C 0.46217 0.79056 0.80402 0.0
C1951 C 0.44765 0.79014 0.81469 0.0
C1952 C 0.45135 0.79088 0.83412 0.0
C1953 C 0.46868 0.79147 0.84274 0.0
C1954 C 0.4283 0.78824 0.80638 0.0
C1955 C 0.41521 0.77393 0.81086 0.0
C1956 C 0.42233 0.80114 0.79611 0.0
C1957 C 0.43521 0.81696 0.79143 0.0
C1958 C 0.44661 0.82943 0.80567 0.0
C1959 C 0.45858 0.84444 0.80113 0.0
C1960 C 0.45917 0.8472 0.7824 0.0
C1961 C 0.44775 0.83497 0.76819 0.0
C1962 C 0.43576 0.81993 0.77265 0.0
C1963 C 0.3402 0.78132 0.80147 0.0
C1964 C 0.33276 0.78371 0.78353 0.0
C1965 C 0.35887 0.78274 0.80582 0.0
C1966 C 0.37059 0.78575 0.79212 0.0
C1967 C 0.36317 0.78873 0.77433 0.0
C1968 C 0.34455 0.78789 0.77016 0.0
C1969 C 0.39041 0.7857 0.7963 0.0
C1970 C 0.40357 0.7996 0.79103 0.0
C1971 C 0.39652 0.77243 0.80605 0.0
C1972 C 0.3839 0.75676 0.81153 0.0
C1973 C 0.3707 0.74508 0.79814 0.0
C1974 C 0.35885 0.73043 0.80351 0.0
C1975 C 0.36024 0.72715 0.82218 0.0
C1976 C 0.37342 0.73857 0.83556 0.0
C1977 C 0.38521 0.75331 0.8303 0.0
H1978 H 0.35112 0.71575 0.82629 0.0
H1979 H 0.46843 0.85884 0.77892 0.0
H1980 H 0.49937 0.17476 0.16183 0.0
H1981 H 0.50019 0.15012 0.13803 0.0
H1982 H 0.52028 0.18852 0.10134 0.0
H1983 H 0.519 0.21343 0.1251 0.0
H1984 H 0.49678 0.15958 0.08132 0.0
H1985 H 0.54927 0.16781 0.12656 0.0
H1986 H 0.56601 0.17174 0.15839 0.0
H1987 H 0.53632 0.11963 0.16744 0.0
H1988 H 0.51928 0.11546 0.13573 0.0
H1989 H 0.53096 0.09237 0.02634 0.0
H1990 H 0.52902 0.11947 0.04644 0.0
H1991 H 0.49947 0.08625 0.08249 0.0
H1992 H 0.50027 0.05914 0.06188 0.0
H1993 H 0.52972 0.114 0.10156 0.0
H1994 H 0.47708 0.10626 0.05605 0.0
H1995 H 0.46061 0.10262 0.02418 0.0
H1996 H 0.49132 0.15436 0.01532 0.0
H1997 H 0.50828 0.15814 0.04704 0.0
C1998 C 0.50384 0.17804 0.14866 0.0
C1999 C 0.50924 0.19616 0.1455 0.0
C2000 C 0.50439 0.16388 0.13503 0.0
C2001 C 0.5107 0.16735 0.11795 0.0
C2002 C 0.51545 0.18541 0.1144 0.0
C2003 C 0.51471 0.19967 0.12802 0.0
C2004 C 0.51282 0.15208 0.10427 0.0
C2005 C 0.50425 0.14981 0.08568 0.0
C2006 C 0.52241 0.13911 0.10988 0.0
C2007 C 0.53293 0.14137 0.1288 0.0
C2008 C 0.54628 0.15721 0.13536 0.0
C2009 C 0.55582 0.15949 0.15338 0.0
C2010 C 0.55221 0.14596 0.16494 0.0
C2011 C 0.5391 0.13009 0.15847 0.0
C2012 C 0.52953 0.12775 0.14046 0.0
C2013 C 0.52354 0.09077 0.03818 0.0
C2014 C 0.51543 0.07343 0.04214 0.0
C2015 C 0.52266 0.10633 0.04983 0.0
C2016 C 0.51407 0.10494 0.06599 0.0
C2017 C 0.50617 0.0877 0.07012 0.0
C2018 C 0.50664 0.07218 0.05825 0.0
C2019 C 0.51347 0.12138 0.07877 0.0
C2020 C 0.52239 0.12387 0.09718 0.0
C2021 C 0.50435 0.13458 0.07292 0.0
C2022 C 0.49414 0.13238 0.05386 0.0
C2023 C 0.48049 0.11678 0.04724 0.0
C2024 C 0.47103 0.1147 0.02922 0.0
C2025 C 0.47495 0.12823 0.01772 0.0
C2026 C 0.48832 0.14387 0.02424 0.0
C2027 C 0.49787 0.14599 0.04224 0.0
H2028 H 0.4676 0.1266 0.00377 0.0
H2029 H 0.55958 0.14775 0.17889 0.0
H2030 H 0.11368 0.32471 0.34527 0.0
H2031 H 0.1394 0.31656 0.33275 0.0
H2032 H 0.10387 0.27147 0.29703 0.0
H2033 H 0.07775 0.27911 0.31063 0.0
H2034 H 0.1329 0.26088 0.30681 0.0
H2035 H 0.12671 0.31392 0.28063 0.0
H2036 H 0.12256 0.34501 0.2803 0.0
H2037 H 0.17233 0.36537 0.3173 0.0
H2038 H 0.17668 0.33438 0.318 0.0
H2039 H 0.20879 0.25493 0.25477 0.0
H2040 H 0.1798 0.25881 0.26393 0.0
H2041 H 0.208 0.29753 0.3108 0.0
H2042 H 0.23694 0.29277 0.30239 0.0
H2043 H 0.1809 0.30991 0.29145 0.0
H2044 H 0.186 0.25464 0.31623 0.0
H2045 H 0.18886 0.22302 0.31452 0.0
H2046 H 0.13971 0.20621 0.27602 0.0
H2047 H 0.13672 0.23779 0.27724 0.0
C2048 C 0.11112 0.31307 0.33467 0.0
C2049 C 0.09332 0.30277 0.32899 0.0
C2050 C 0.12606 0.30845 0.32729 0.0
C2051 C 0.124 0.29363 0.31331 0.0
C2052 C 0.1062 0.28308 0.30764 0.0
C2053 C 0.09112 0.28752 0.3154 0.0
C2054 C 0.14049 0.28941 0.30506 0.0
C2055 C 0.14318 0.27164 0.30317 0.0
C2056 C 0.15431 0.30316 0.30013 0.0
C2057 C 0.15194 0.32183 0.29947 0.0
C2058 C 0.13673 0.32503 0.28875 0.0
C2059 C 0.13435 0.34263 0.28849 0.0
C2060 C 0.14715 0.35715 0.2988 0.0
C2061 C 0.16242 0.35411 0.30932 0.0
C2062 C 0.16487 0.33654 0.30962 0.0
C2063 C 0.20895 0.26398 0.26727 0.0
C2064 C 0.22559 0.27334 0.27787 0.0
C2065 C 0.19218 0.2663 0.27248 0.0
C2066 C 0.19138 0.27843 0.28824 0.0
C2067 C 0.20796 0.28803 0.29862 0.0
C2068 C 0.22467 0.28535 0.29371 0.0
C2069 C 0.1735 0.28157 0.29373 0.0
C2070 C 0.17055 0.29916 0.295 0.0
C2071 C 0.15933 0.26757 0.29759 0.0
C2072 C 0.16124 0.24862 0.29669 0.0
C2073 C 0.1759 0.24423 0.30725 0.0
C2074 C 0.17751 0.22631 0.30641 0.0
C2075 C 0.16445 0.21262 0.29519 0.0
C2076 C 0.1498 0.21683 0.28472 0.0
C2077 C 0.14814 0.23474 0.28548 0.0
H2078 H 0.16568 0.19874 0.29462 0.0
H2079 H 0.14526 0.37076 0.29863 0.0
H2080 H 0.9275 0.02144 0.19123 0.0
H2081 H 0.93829 0.02612 0.16088 0.0
H2082 H 0.98993 0.01669 0.18238 0.0
H2083 H 0.97936 0.01206 0.21237 0.0
H2084 H 0.99398 0.04552 0.16389 0.0
H2085 H 0.95972 0.98434 0.15491 0.0
H2086 H 0.93329 0.95892 0.15302 0.0
H2087 H 0.90483 0.98087 0.10993 0.0
H2088 H 0.93099 0.00662 0.1118 0.0
H2089 H 0.03142 0.01636 0.08255 0.0
H2090 H 0.01787 0.01712 0.11164 0.0
H2091 H 0.97544 0.03904 0.08535 0.0
H2092 H 0.98921 0.03902 0.05642 0.0
H2093 H 0.96482 0.00632 0.10498 0.0
H2094 H 0.00239 0.06665 0.11333 0.0
H2095 H 0.03066 0.0899 0.11533 0.0
H2096 H 0.0549 0.06654 0.16013 0.0
H2097 H 0.02689 0.04294 0.15816 0.0
C2098 C 0.94123 0.02069 0.1895 0.0
C2099 C 0.95262 0.01646 0.20414 0.0
C2100 C 0.9473 0.02316 0.17215 0.0
C2101 C 0.96487 0.02161 0.16938 0.0
C2102 C 0.97634 0.01794 0.18421 0.0
C2103 C 0.97027 0.01531 0.20135 0.0
C2104 C 0.97165 0.02384 0.15118 0.0
C2105 C 0.98762 0.03691 0.15102 0.0
C2106 C 0.96321 0.01271 0.13436 0.0
C2107 C 0.94719 0.99763 0.13378 0.0
C2108 C 0.94771 0.98394 0.14527 0.0
C2109 C 0.93281 0.96941 0.14414 0.0
C2110 C 0.91735 0.96833 0.13144 0.0
C2111 C 0.91678 0.98177 0.11983 0.0
C2112 C 0.93163 0.99634 0.12094 0.0
C2113 C 0.01935 0.02159 0.08302 0.0
C2114 C 0.01146 0.02774 0.0672 0.0
C2115 C 0.01163 0.02197 0.09962 0.0
C2116 C 0.99574 0.02821 0.10057 0.0
C2117 C 0.98774 0.03423 0.08482 0.0
C2118 C 0.99564 0.03419 0.06834 0.0
C2119 C 0.98716 0.02786 0.11786 0.0
C2120 C 0.97095 0.01511 0.11782 0.0
C2121 C 0.99556 0.039 0.13461 0.0
C2122 C 0.0126 0.05289 0.13543 0.0
C2123 C 0.01383 0.06631 0.12342 0.0
C2124 C 0.02979 0.0796 0.1246 0.0
C2125 C 0.04458 0.07967 0.13781 0.0
C2126 C 0.04345 0.06645 0.14987 0.0
C2127 C 0.02754 0.05311 0.14873 0.0
H2128 H 0.05691 0.09 0.13873 0.0
H2129 H 0.90586 0.95704 0.13054 0.0
H2130 H 0.28197 0.63464 0.47736 0.0
H2131 H 0.28508 0.65547 0.45355 0.0
H2132 H 0.24283 0.67867 0.47383 0.0
H2133 H 0.23911 0.65745 0.49667 0.0
H2134 H 0.23675 0.67013 0.43777 0.0
H2135 H 0.28698 0.70288 0.48286 0.0
H2136 H 0.31502 0.70547 0.50442 0.0
H2137 H 0.34154 0.68971 0.45826 0.0
H2138 H 0.31362 0.68701 0.43643 0.0
H2139 H 0.2403 0.74746 0.39846 0.0
H2140 H 0.25249 0.73288 0.42382 0.0
H2141 H 0.27347 0.69967 0.38399 0.0
H2142 H 0.26127 0.71423 0.35848 0.0
H2143 H 0.29308 0.71291 0.42868 0.0
H2144 H 0.23858 0.67862 0.38456 0.0
H2145 H 0.20866 0.6757 0.36626 0.0
H2146 H 0.1887 0.69564 0.41551 0.0
H2147 H 0.21862 0.69893 0.434 0.0
C2148 C 0.27321 0.64402 0.47633 0.0
C2149 C 0.25996 0.64424 0.48819 0.0
C2150 C 0.27518 0.65604 0.46309 0.0
C2151 C 0.26426 0.6686 0.46216 0.0
C2152 C 0.25126 0.66895 0.47432 0.0
C2153 C 0.24899 0.65672 0.48713 0.0
C2154 C 0.26514 0.68047 0.44755 0.0
C2155 C 0.24907 0.67953 0.43588 0.0
C2156 C 0.28127 0.69254 0.44508 0.0
C2157 C 0.29823 0.6947 0.45804 0.0
C2158 C 0.2988 0.69996 0.47732 0.0
C2159 C 0.31466 0.70146 0.48958 0.0
C2160 C 0.33005 0.69774 0.48271 0.0
C2161 C 0.32962 0.69262 0.46355 0.0
C2162 C 0.31381 0.69117 0.45122 0.0
C2163 C 0.24807 0.73751 0.39525 0.0
C2164 C 0.24962 0.73166 0.37665 0.0
C2165 C 0.2552 0.72939 0.40969 0.0
C2166 C 0.26377 0.71529 0.4056 0.0
C2167 C 0.26707 0.71074 0.38728 0.0
C2168 C 0.25999 0.71894 0.37278 0.0
C2169 C 0.26462 0.70254 0.41918 0.0
C2170 C 0.28091 0.70334 0.43058 0.0
C2171 C 0.24856 0.69051 0.42184 0.0
C2172 C 0.23089 0.68934 0.41053 0.0
C2173 C 0.2279 0.68268 0.39138 0.0
C2174 C 0.21092 0.68088 0.38101 0.0
C2175 C 0.19681 0.68557 0.38969 0.0
C2176 C 0.19966 0.6921 0.40877 0.0
C2177 C 0.21662 0.69395 0.41919 0.0
H2178 H 0.18366 0.68407 0.38166 0.0
H2179 H 0.3423 0.69884 0.49223 0.0
H2180 H 0.65623 0.05014 0.69006 0.0
H2181 H 0.6445 0.04353 0.65663 0.0
H2182 H 0.60051 0.0023 0.66896 0.0
H2183 H 0.6128 0.00824 0.70206 0.0
H2184 H 0.60882 0.9944 0.63482 0.0
H2185 H 0.60095 0.04956 0.6752 0.0
H2186 H 0.61235 0.08028 0.69234 0.0
H2187 H 0.63507 0.09839 0.64405 0.0
H2188 H 0.62398 0.06774 0.62676 0.0
H2189 H 0.53091 0.99172 0.57355 0.0
H2190 H 0.55056 0.99422 0.60317 0.0
H2191 H 0.58122 0.04575 0.59159 0.0
H2192 H 0.55813 0.04547 0.56599 0.0
H2193 H 0.58482 0.04811 0.62315 0.0
H2194 H 0.58929 0.99308 0.58003 0.0
H2195 H 0.57532 0.96264 0.56316 0.0
H2196 H 0.55885 0.94466 0.61419 0.0
H2197 H 0.57276 0.9749 0.6313 0.0
C2198 C 0.64422 0.0395 0.68539 0.0
C2199 C 0.6348 0.03003 0.6982 0.0
C2200 C 0.6378 0.03555 0.66645 0.0
C2201 C 0.62161 0.02269 0.66062 0.0
C2202 C 0.61312 0.01223 0.67334 0.0
C2203 C 0.61984 0.01581 0.69215 0.0
C2204 C 0.61109 0.02278 0.64275 0.0
C2205 C 0.60392 0.00621 0.63162 0.0
C2206 C 0.60471 0.03822 0.63905 0.0
C2207 C 0.61196 0.05635 0.64985 0.0
C2208 C 0.60856 0.06007 0.66835 0.0
C2209 C 0.61493 0.07746 0.67806 0.0
C2210 C 0.6245 0.09125 0.66932 0.0
C2211 C 0.62775 0.08768 0.65085 0.0
C2212 C 0.62147 0.07031 0.64111 0.0
C2213 C 0.54144 0.00382 0.57813 0.0
C2214 C 0.5439 0.01819 0.56756 0.0
C2215 C 0.55304 0.00499 0.59456 0.0
C2216 C 0.56825 0.01951 0.59897 0.0
C2217 C 0.56982 0.03421 0.5886 0.0
C2218 C 0.55701 0.03393 0.57364 0.0
C2219 C 0.58276 0.01978 0.61406 0.0
C2220 C 0.59039 0.0364 0.62506 0.0
C2221 C 0.58976 0.00444 0.61723 0.0
C2222 C 0.58204 0.9862 0.60689 0.0
C2223 C 0.58277 0.98258 0.58761 0.0
C2224 C 0.57484 0.96538 0.57803 0.0
C2225 C 0.56621 0.95174 0.58759 0.0
C2226 C 0.56557 0.95521 0.6068 0.0
C2227 C 0.57353 0.97234 0.61645 0.0
H2228 H 0.56001 0.93847 0.58013 0.0
H2229 H 0.62935 0.10472 0.67683 0.0
H2230 H 0.28822 0.31664 0.97956 0.0
H2231 H 0.28769 0.30702 0.94637 0.0
H2232 H 0.27169 0.35548 0.93283 0.0
H2233 H 0.27216 0.36527 0.96634 0.0
H2234 H 0.25376 0.32591 0.90862 0.0
H2235 H 0.31477 0.35365 0.9318 0.0
H2236 H 0.34354 0.3603 0.95305 0.0
H2237 H 0.34794 0.30538 0.94089 0.0
H2238 H 0.31907 0.29835 0.9197 0.0
H2239 H 0.27346 0.31412 0.81575 0.0
H2240 H 0.27405 0.32646 0.84814 0.0
H2241 H 0.29164 0.28044 0.86679 0.0
H2242 H 0.29161 0.26813 0.83414 0.0
H2243 H 0.30941 0.31105 0.8883 0.0
H2244 H 0.24631 0.28537 0.863 0.0
H2245 H 0.21852 0.28249 0.84101 0.0
H2246 H 0.21907 0.33827 0.85702 0.0
H2247 H 0.24718 0.34167 0.87862 0.0
C2248 C 0.2843 0.32516 0.96953 0.0
C2249 C 0.28032 0.34177 0.97555 0.0
C2250 C 0.28417 0.3197 0.95057 0.0
C2251 C 0.28014 0.33076 0.9372 0.0
C2252 C 0.27503 0.34685 0.943 0.0
C2253 C 0.27513 0.35235 0.96209 0.0
C2254 C 0.28142 0.32536 0.91724 0.0
C2255 C 0.26599 0.32291 0.90409 0.0
C2256 C 0.29739 0.32136 0.91142 0.0
C2257 C 0.31466 0.32543 0.92429 0.0
C2258 C 0.32178 0.34295 0.93379 0.0
C2259 C 0.33813 0.3468 0.94578 0.0
C2260 C 0.34754 0.33326 0.94835 0.0
C2261 C 0.34063 0.31585 0.9389 0.0
C2262 C 0.32429 0.31193 0.92687 0.0
C2263 C 0.2775 0.30656 0.82669 0.0
C2264 C 0.28232 0.29 0.82231 0.0
C2265 C 0.27775 0.31364 0.84525 0.0
C2266 C 0.28243 0.30418 0.85992 0.0
C2267 C 0.28781 0.28791 0.85568 0.0
C2268 C 0.28778 0.28087 0.83702 0.0
C2269 C 0.28158 0.31124 0.87963 0.0
C2270 C 0.29715 0.31403 0.89278 0.0
C2271 C 0.26585 0.31599 0.88535 0.0
C2272 C 0.24896 0.31381 0.87229 0.0
C2273 C 0.24061 0.29707 0.86169 0.0
C2274 C 0.22481 0.29536 0.84928 0.0
C2275 C 0.21708 0.31022 0.84764 0.0
C2276 C 0.22512 0.32681 0.85831 0.0
C2277 C 0.24101 0.32864 0.87058 0.0
H2278 H 0.20482 0.30895 0.83819 0.0
H2279 H 0.3602 0.33627 0.95763 0.0
H2280 H 0.97064 0.99578 0.30491 0.0
H2281 H 0.98013 0.99874 0.33829 0.0
H2282 H 0.94782 0.03774 0.3479 0.0
H2283 H 0.93779 0.03466 0.31392 0.0
H2284 H 0.98449 0.04685 0.36808 0.0
H2285 H 0.93191 0.99792 0.35834 0.0
H2286 H 0.91241 0.96922 0.34233 0.0
H2287 H 0.95477 0.94179 0.35554 0.0
H2288 H 0.97462 0.97037 0.37143 0.0
H2289 H 0.99324 0.0388 0.46731 0.0
H2290 H 0.98114 0.04003 0.43494 0.0
H2291 H 0.01005 0.0006 0.41576 0.0
H2292 H 0.02319 1.0002 0.44799 0.0
H2293 H 0.97232 0.99262 0.40104 0.0
H2294 H 0.02501 0.04007 0.41007 0.0
H2295 H 0.04695 0.06846 0.42265 0.0
H2296 H 0.00747 0.09864 0.40738 0.0
H2297 H 0.98491 0.0704 0.3958 0.0
C2298 C 0.96551 0.00512 0.31396 0.0
C2299 C 0.95333 0.01495 0.30662 0.0
C2300 C 0.97093 0.00669 0.33314 0.0
C2301 C 0.96445 0.0182 0.3456 0.0
C2302 C 0.95284 0.02864 0.33846 0.0
C2303 C 0.94718 0.02693 0.31908 0.0
C2304 C 0.97021 0.01916 0.36601 0.0
C2305 C 0.98144 0.0352 0.37554 0.0
C2306 C 0.9668 0.00363 0.37534 0.0
C2307 C 0.9548 0.98634 0.36601 0.0
C2308 C 0.93711 0.9858 0.35774 0.0
C2309 C 0.92598 0.96954 0.3487 0.0
C2310 C 0.93235 0.95369 0.3479 0.0
C2311 C 0.94985 0.95407 0.35618 0.0
C2312 C 0.96103 0.97029 0.36524 0.0
C2313 C 0.99729 0.03058 0.45626 0.0
C2314 C 0.00922 0.01937 0.4604 0.0
C2315 C 0.99028 0.03127 0.43771 0.0
C2316 C 0.99467 0.0204 0.42293 0.0
C2317 C 0.00646 0.0091 0.42697 0.0
C2318 C 0.01393 0.00884 0.44546 0.0
C2319 C 0.9866 0.02044 0.40329 0.0
C2320 C 0.97504 0.00448 0.39384 0.0
C2321 C 0.9899 0.03604 0.39399 0.0
C2322 C 0.00305 0.05299 0.40246 0.0
C2323 C 0.02076 0.05269 0.40996 0.0
C2324 C 0.03336 0.0688 0.41689 0.0
C2325 C 0.02854 0.08535 0.41607 0.0
C2326 C 0.0111 0.08582 0.40836 0.0
C2327 C 0.99837 0.06975 0.40171 0.0
H2328 H 0.03837 0.09783 0.42125 0.0
H2329 H 0.92372 0.94112 0.34088 0.0
H2330 H 0.25068 0.64195 0.59369 0.0
H2331 H 0.25846 0.65389 0.62699 0.0
H2332 H 0.28934 0.70363 0.61217 0.0
H2333 H 0.28247 0.69116 0.57903 0.0
H2334 H 0.30558 0.69574 0.64228 0.0
H2335 H 0.2445 0.69605 0.61695 0.0
H2336 H 0.213 0.68298 0.60268 0.0
H2337 H 0.20351 0.65418 0.64984 0.0
H2338 H 0.23516 0.66663 0.66413 0.0
H2339 H 0.26658 0.76094 0.70083 0.0
H2340 H 0.26965 0.74041 0.67394 0.0
H2341 H 0.29432 0.7091 0.71093 0.0
H2342 H 0.29446 0.73115 0.73727 0.0
H2343 H 0.25265 0.70195 0.67435 0.0
H2344 H 0.31957 0.70655 0.69767 0.0
H2345 H 0.34925 0.72691 0.70931 0.0
H2346 H 0.34558 0.75466 0.66089 0.0
H2347 H 0.31538 0.73505 0.64951 0.0
C2348 C 0.25908 0.65544 0.59776 0.0
C2349 C 0.26563 0.66611 0.58431 0.0
C2350 C 0.26367 0.66209 0.61659 0.0
C2351 C 0.27427 0.67961 0.62181 0.0
C2352 C 0.2812 0.69001 0.60826 0.0
C2353 C 0.27705 0.68314 0.58949 0.0
C2354 C 0.27653 0.68809 0.64108 0.0
C2355 C 0.29406 0.69686 0.64948 0.0
C2356 C 0.26135 0.68959 0.65017 0.0
C2357 C 0.24235 0.68193 0.6414 0.0
C2358 C 0.2358 0.68671 0.62415 0.0
C2359 C 0.2179 0.67943 0.61606 0.0
C2360 C 0.20629 0.66766 0.62529 0.0
C2361 C 0.21256 0.66319 0.64264 0.0
C2362 C 0.2305 0.67029 0.6507 0.0
C2363 C 0.27342 0.75019 0.70315 0.0
C2364 C 0.28023 0.74765 0.72119 0.0
C2365 C 0.27505 0.73847 0.68787 0.0
C2366 C 0.2827 0.72371 0.69067 0.0
C2367 C 0.28925 0.72097 0.70856 0.0
C2368 C 0.28872 0.7333 0.72366 0.0
C2369 C 0.28152 0.70996 0.67506 0.0
C2370 C 0.26419 0.70014 0.66746 0.0
C2371 C 0.29673 0.7082 0.66631 0.0
C2372 C 0.31498 0.71971 0.67307 0.0
C2373 C 0.32486 0.71729 0.68977 0.0
C2374 C 0.34181 0.72866 0.69629 0.0
C2375 C 0.34923 0.74217 0.68592 0.0
C2376 C 0.33974 0.7443 0.669 0.0
C2377 C 0.32266 0.73314 0.66258 0.0
H2378 H 0.36239 0.75091 0.69094 0.0
H2379 H 0.19242 0.6621 0.61904 0.0
H2380 H 0.64877 0.06636 0.79674 0.0
H2381 H 0.62794 0.06248 0.81971 0.0
H2382 H 0.63707 0.00935 0.82533 0.0
H2383 H 0.65745 0.01275 0.80129 0.0
H2384 H 0.60022 0.01139 0.82353 0.0
H2385 H 0.65876 0.04312 0.85672 0.0
H2386 H 0.68657 0.06706 0.8591 0.0
H2387 H 0.65546 0.10753 0.8631 0.0
H2388 H 0.62742 0.08384 0.86034 0.0
H2389 H 0.57885 0.03297 0.92263 0.0
H2390 H 0.58979 0.01928 0.89538 0.0
H2391 H 0.57254 0.05783 0.86226 0.0
H2392 H 0.56149 0.07147 0.8893 0.0
H2393 H 0.61426 0.05766 0.87959 0.0
H2394 H 0.55664 0.02805 0.84179 0.0
H2395 H 0.52762 0.00556 0.83504 0.0
H2396 H 0.55567 0.96267 0.83755 0.0
H2397 H 0.58489 0.98497 0.84472 0.0
C2398 C 0.64668 0.05398 0.80311 0.0
C2399 C 0.65493 0.03994 0.7976 0.0
C2400 C 0.6346 0.0517 0.816 0.0
C2401 C 0.63122 0.03571 0.82418 0.0
C2402 C 0.63962 0.02174 0.81901 0.0
C2403 C 0.65143 0.02383 0.80566 0.0
C2404 C 0.61969 0.03431 0.839 0.0
C2405 C 0.60337 0.0212 0.83605 0.0
C2406 C 0.62393 0.04737 0.85502 0.0
C2407 C 0.64097 0.06167 0.85838 0.0
C2408 C 0.65786 0.05713 0.85821 0.0
C2409 C 0.67365 0.07065 0.85953 0.0
C2410 C 0.67278 0.0888 0.86127 0.0
C2411 C 0.65612 0.09347 0.86181 0.0
C2412 C 0.64027 0.07999 0.8604 0.0
C2413 C 0.57677 0.03802 0.90931 0.0
C2414 C 0.56987 0.05354 0.908 0.0
C2415 C 0.58277 0.03005 0.89377 0.0
C2416 C 0.58173 0.03751 0.87694 0.0
C2417 C 0.57309 0.05177 0.87514 0.0
C2418 C 0.56716 0.05976 0.89062 0.0
C2419 C 0.59456 0.035 0.86399 0.0
C2420 C 0.61128 0.04746 0.86739 0.0
C2421 C 0.5905 0.02155 0.84836 0.0
C2422 C 0.57293 0.0082 0.84426 0.0
C2423 C 0.55662 0.01385 0.84129 0.0
C2424 C 0.54013 0.00113 0.83727 0.0
C2425 C 0.53979 0.9827 0.83601 0.0
C2426 C 0.55595 0.97695 0.83865 0.0
C2427 C 0.57248 0.98963 0.8427 0.0
H2428 H 0.52701 0.97287 0.83288 0.0
H2429 H 0.68501 0.09925 0.86218 0.0
H2430 H 0.26618 0.36346 0.0852 0.0
H2431 H 0.26058 0.35247 0.11533 0.0
H2432 H 0.29597 0.31617 0.10699 0.0
H2433 H 0.30141 0.32669 0.07731 0.0
H2434 H 0.26411 0.29917 0.11571 0.0
H2435 H 0.30968 0.35366 0.13713 0.0
H2436 H 0.32303 0.38639 0.14168 0.0
H2437 H 0.27936 0.39586 0.171 0.0
H2438 H 0.26558 0.36317 0.16635 0.0
H2439 H 0.28776 0.26901 0.20162 0.0
H2440 H 0.28705 0.28258 0.17253 0.0
H2441 H 0.25295 0.3162 0.19347 0.0
H2442 H 0.254 0.30295 0.22284 0.0
H2443 H 0.27951 0.33557 0.17839 0.0
H2444 H 0.23464 0.27937 0.15641 0.0
H2445 H 0.22242 0.24639 0.15024 0.0
H2446 H 0.26795 0.24014 0.12245 0.0
H2447 H 0.28016 0.27311 0.12795 0.0
C2448 C 0.27268 0.35311 0.08983 0.0
C2449 C 0.2841 0.34585 0.07878 0.0
C2450 C 0.26959 0.34696 0.10706 0.0
C2451 C 0.27788 0.33352 0.11332 0.0
C2452 C 0.28937 0.32648 0.10236 0.0
C2453 C 0.29244 0.33254 0.08534 0.0
C2454 C 0.27421 0.32585 0.1308 0.0
C2455 C 0.2675 0.30714 0.12943 0.0
C2456 C 0.27833 0.33632 0.14863 0.0
C2457 C 0.28642 0.35599 0.15109 0.0
C2458 C 0.30278 0.36273 0.14431 0.0
C2459 C 0.31046 0.38128 0.14696 0.0
C2460 C 0.302 0.39321 0.15654 0.0
C2461 C 0.28586 0.38661 0.16352 0.0
C2462 C 0.2781 0.36808 0.16087 0.0
C2463 C 0.27993 0.27913 0.19991 0.0
C2464 C 0.27083 0.28485 0.21439 0.0
C2465 C 0.27946 0.28683 0.18326 0.0
C2466 C 0.26966 0.30018 0.18068 0.0
C2467 C 0.26051 0.30586 0.19513 0.0
C2468 C 0.26111 0.29828 0.21187 0.0
C2469 C 0.26975 0.3088 0.16327 0.0
C2470 C 0.27577 0.32766 0.16465 0.0
C2471 C 0.26532 0.29848 0.14538 0.0
C2472 C 0.25837 0.27864 0.14275 0.0
C2473 C 0.2421 0.27092 0.14913 0.0
C2474 C 0.23516 0.25225 0.1457 0.0
C2475 C 0.24451 0.24116 0.13618 0.0
C2476 C 0.26075 0.24873 0.12989 0.0
C2477 C 0.26762 0.26741 0.13304 0.0
H2478 H 0.23911 0.22671 0.13358 0.0
H2479 H 0.30799 0.40756 0.15862 0.0
H2480 H 0.23393 0.92439 0.00951 0.0
H2481 H 0.20869 0.93838 0.01352 0.0
H2482 H 0.22955 0.97901 0.97932 0.0
H2483 H 0.25527 0.96521 0.97539 0.0
H2484 H 0.21844 0.99137 0.01429 0.0
H2485 H 0.19653 0.94624 0.95977 0.0
H2486 H 0.19265 0.91509 0.94441 0.0
H2487 H 0.16014 0.89493 0.98574 0.0
H2488 H 0.1641 0.92592 0.00157 0.0
H2489 H 0.13983 0.02347 0.02294 0.0
H2490 H 0.16227 0.01269 0.00578 0.0
H2491 H 0.14727 0.96084 0.02558 0.0
H2492 H 0.12473 0.97143 0.0423 0.0
H2493 H 0.15577 0.95624 0.99212 0.0
H2494 H 0.1796 0.99509 0.04932 0.0
H2495 H 0.18805 0.02237 0.07255 0.0
H2496 H 0.22029 0.05049 0.03509 0.0
H2497 H 0.21157 0.02353 0.01137 0.0
C2498 C 0.23317 0.93628 0.00278 0.0
C2499 C 0.24638 0.94368 0.99195 0.0
C2500 C 0.21877 0.94419 0.00508 0.0
C2501 C 0.2173 0.95941 -0.00361 0.0
C2502 C 0.23058 0.96709 0.98589 0.0
C2503 C 0.24509 0.95918 0.98359 0.0
C2504 C 0.20171 0.96718 -0.00161 0.0
C2505 C 0.20468 0.98409 0.00898 0.0
C2506 C 0.184 0.95696 0.99211 0.0
C2507 C 0.18054 0.93844 0.98181 0.0
C2508 C 0.1885 0.93517 0.96555 0.0
C2509 C 0.18634 0.91754 0.9568 0.0
C2510 C 0.17613 0.90305 0.96407 0.0
C2511 C 0.168 0.90617 0.98008 0.0
C2512 C 0.17016 0.92378 0.98893 0.0
C2513 C 0.14101 0.00961 0.02307 0.0
C2514 C 0.13091 0.99827 0.03407 0.0
C2515 C 0.15383 0.00354 0.01341 0.0
C2516 C 0.1566 0.98614 0.01479 0.0
C2517 C 0.14536 0.97434 0.02443 0.0
C2518 C 0.13261 0.9804 0.03405 0.0
C2519 C 0.17234 0.98069 0.00813 0.0
C2520 C 0.16945 0.96404 -0.00321 0.0
C2521 C 0.19021 0.99082 0.01449 0.0
C2522 C 0.1945 0.00741 0.02832 0.0
C2523 C 0.18813 0.0072 0.04583 0.0
C2524 C 0.19305 0.0226 0.05914 0.0
C2525 C 0.2046 0.0382 0.05525 0.0
C2526 C 0.21122 0.03845 0.03802 0.0
C2527 C 0.20622 0.02314 0.02461 0.0
H2528 H 0.2085 0.05006 0.06562 0.0
H2529 H 0.17453 0.8894 0.95731 0.0
H2530 H 0.72489 0.62231 0.02014 0.0
H2531 H 0.69627 0.60065 0.02112 0.0
H2532 H 0.67152 0.62085 0.97377 0.0
H2533 H 0.69975 0.64284 0.9733 0.0
H2534 H 0.65172 0.62112 0.00039 0.0
H2535 H 0.68027 0.57738 0.97155 0.0
H2536 H 0.70432 0.56073 0.9685 0.0
H2537 H 0.69638 0.54116 0.02117 0.0
H2538 H 0.67245 0.55791 0.02465 0.0
H2539 H 0.56685 0.55915 0.98446 0.0
H2540 H 0.59691 0.57671 0.98177 0.0
H2541 H 0.61933 0.55458 0.02897 0.0
H2542 H 0.58924 0.53643 0.0313 0.0
H2543 H 0.64064 0.55526 0.00343 0.0
H2544 H 0.61114 0.59952 0.03136 0.0
H2545 H 0.58812 0.61762 0.03391 0.0
H2546 H 0.59793 0.63657 0.98142 0.0
H2547 H 0.62096 0.61864 0.97849 0.0
C2548 C 0.71345 0.62172 0.00965 0.0
C2549 C 0.71446 0.63423 -0.00333 0.0
C2550 C 0.69709 0.60937 0.01022 0.0
C2551 C 0.68166 0.60914 -0.00245 0.0
C2552 C 0.68313 0.62087 0.98382 0.0
C2553 C 0.6993 0.63336 0.98347 0.0
C2554 C 0.66359 0.59797 -0.0005 0.0
C2555 C 0.64925 0.60666 0.00077 0.0
C2556 C 0.66043 0.57921 0.00058 0.0
C2557 C 0.67471 0.56905 -0.00155 0.0
C2558 C 0.68375 0.56964 0.98254 0.0
C2559 C 0.69734 0.56017 0.98073 0.0
C2560 C 0.70191 0.54994 0.99466 0.0
C2561 C 0.69285 0.54911 0.0104 0.0
C2562 C 0.67926 0.55858 0.0123 0.0
C2563 C 0.57819 0.55799 0.99426 0.0
C2564 C 0.57569 0.54641 0.0081 0.0
C2565 C 0.59538 0.56816 0.9928 0.0
C2566 C 0.6104 0.56731 0.00542 0.0
C2567 C 0.60796 0.55554 0.0191 0.0
C2568 C 0.59077 0.54515 0.02041 0.0
C2569 C 0.62869 0.57839 0.00408 0.0
C2570 C 0.6431 0.56972 0.00303 0.0
C2571 C 0.6319 0.5972 0.00303 0.0
C2572 C 0.61765 0.60757 0.00461 0.0
C2573 C 0.60826 0.60739 0.02027 0.0
C2574 C 0.59524 0.61764 0.0218 0.0
C2575 C 0.59149 0.62811 0.0078 0.0
C2576 C 0.6008 0.62841 0.99224 0.0
C2577 C 0.61386 0.61824 0.99065 0.0
H2578 H 0.58142 0.63604 0.00904 0.0
H2579 H 0.71244 0.54262 0.99323 0.0
H2580 H 0.69233 0.50597 0.27839 0.0
H2581 H 0.70548 0.47958 0.27413 0.0
H2582 H 0.65456 0.44479 0.28025 0.0
H2583 H 0.64108 0.47126 0.28391 0.0
H2584 H 0.68671 0.4382 0.30233 0.0
H2585 H 0.66373 0.44207 0.23945 0.0
H2586 H 0.65806 0.45551 0.21048 0.0
H2587 H 0.71514 0.47018 0.20786 0.0
H2588 H 0.72117 0.45704 0.23696 0.0
H2589 H 0.7183 0.35903 0.26644 0.0
H2590 H 0.70215 0.38192 0.27731 0.0
H2591 H 0.74374 0.4235 0.26184 0.0
H2592 H 0.75925 0.40058 0.25044 0.0
H2593 H 0.71201 0.42372 0.24398 0.0
H2594 H 0.73487 0.42018 0.30803 0.0
H2595 H 0.73977 0.40523 0.33612 0.0
H2596 H 0.68239 0.3887 0.33606 0.0
H2597 H 0.67712 0.40329 0.30776 0.0
C2598 C 0.68393 0.49272 0.27885 0.0
C2599 C 0.66569 0.49069 0.28147 0.0
C2600 C 0.69143 0.47764 0.27634 0.0
C2601 C 0.681 0.46023 0.27683 0.0
C2602 C 0.66284 0.45812 0.27979 0.0
C2603 C 0.65516 0.47321 0.28182 0.0
C2604 C 0.68936 0.44444 0.27431 0.0
C2605 C 0.69203 0.43479 0.28949 0.0
C2606 C 0.69642 0.44014 0.25762 0.0
C2607 C 0.69291 0.44877 0.24055 0.0
C2608 C 0.67509 0.4484 0.23287 0.0
C2609 C 0.67181 0.4559 0.21637 0.0
C2610 C 0.68623 0.46375 0.20737 0.0
C2611 C 0.70398 0.46413 0.21487 0.0
C2612 C 0.70733 0.45666 0.23136 0.0
C2613 C 0.72418 0.37313 0.26605 0.0
C2614 C 0.7398 0.37809 0.2575 0.0
C2615 C 0.715 0.38622 0.27223 0.0
C2616 C 0.72158 0.40447 0.27016 0.0
C2617 C 0.73826 0.40952 0.26339 0.0
C2618 C 0.74722 0.39646 0.25703 0.0
C2619 C 0.71019 0.41793 0.2723 0.0
C2620 C 0.70675 0.42705 0.25689 0.0
C2621 C 0.70243 0.42162 0.28875 0.0
C2622 C 0.7056 0.41265 0.30562 0.0
C2623 C 0.72329 0.41318 0.31387 0.0
C2624 C 0.72613 0.40481 0.32987 0.0
C2625 C 0.7114 0.39598 0.33784 0.0
C2626 C 0.69379 0.39552 0.32985 0.0
C2627 C 0.69087 0.40383 0.31383 0.0
H2628 H 0.71363 0.38954 0.35025 0.0
H2629 H 0.68366 0.46949 0.19457 0.0
H2630 H 0.83475 0.47591 0.51806 0.0
H2631 H 0.86596 0.48962 0.51374 0.0
H2632 H 0.86817 0.44148 0.47813 0.0
H2633 H 0.83701 0.42822 0.48169 0.0
H2634 H 0.89185 0.45275 0.51659 0.0
H2635 H 0.87677 0.46969 0.45652 0.0
H2636 H 0.85612 0.48128 0.43488 0.0
H2637 H 0.87054 0.53292 0.46896 0.0
H2638 H 0.89108 0.5215 0.491 0.0
H2639 H 0.98234 0.48566 0.50086 0.0
H2640 H 0.95109 0.47089 0.5022 0.0
H2641 H 0.94045 0.52204 0.52319 0.0
H2642 H 0.97192 0.53695 0.52155 0.0
H2643 H 0.92091 0.5067 0.48905 0.0
H2644 H 0.93489 0.48801 0.55028 0.0
H2645 H 0.95269 0.47434 0.57285 0.0
H2646 H 0.93992 0.42455 0.53584 0.0
H2647 H 0.92173 0.43775 0.51313 0.0
C2648 C 0.84169 0.46883 0.50857 0.0
C2649 C 0.83388 0.45131 0.50007 0.0
C2650 C 0.85933 0.47647 0.50619 0.0
C2651 C 0.86894 0.46627 0.49577 0.0
C2652 C 0.86063 0.44936 0.48607 0.0
C2653 C 0.84294 0.44195 0.48803 0.0
C2654 C 0.88831 0.47216 0.49767 0.0
C2655 C 0.89843 0.46432 0.51036 0.0
C2656 C 0.89628 0.4872 0.48952 0.0
C2657 C 0.88548 0.49476 0.47539 0.0
C2658 C 0.87561 0.48355 0.45934 0.0
C2659 C 0.86388 0.49006 0.44704 0.0
C2660 C 0.86202 0.50783 0.45054 0.0
C2661 C 0.87204 0.51917 0.46625 0.0
C2662 C 0.88377 0.5127 0.47863 0.0
C2663 C 0.97355 0.4935 0.5067 0.0
C2664 C 0.97911 0.5122 0.51132 0.0
C2665 C 0.95578 0.48512 0.50741 0.0
C2666 C 0.94374 0.49552 0.51277 0.0
C2667 C 0.94979 0.51399 0.51907 0.0
C2668 C 0.96757 0.5224 0.51822 0.0
C2669 C 0.92452 0.48772 0.50862 0.0
C2670 C 0.91446 0.49508 0.49527 0.0
C2671 C 0.91664 0.47205 0.51604 0.0
C2672 C 0.92701 0.46389 0.52998 0.0
C2673 C 0.93588 0.47414 0.54695 0.0
C2674 C 0.94604 0.4665 0.55976 0.0
C2675 C 0.94759 0.44869 0.55572 0.0
C2676 C 0.93874 0.43837 0.53894 0.0
C2677 C 0.92839 0.44587 0.52615 0.0
H2678 H 0.9556 0.44288 0.56562 0.0
H2679 H 0.85282 0.51282 0.44109 0.0
H2680 H 0.37051 0.06213 0.26689 0.0
H2681 H 0.35703 0.08808 0.26631 0.0
H2682 H 0.31988 0.06619 0.30342 0.0
H2683 H 0.33332 0.03986 0.30413 0.0
H2684 H 0.3051 0.0782 0.26993 0.0
H2685 H 0.35302 0.09949 0.322 0.0
H2686 H 0.3847 0.10373 0.33633 0.0
H2687 H 0.40263 0.13647 0.29425 0.0
H2688 H 0.37111 0.13222 0.27951 0.0
H2689 H 0.27464 0.15738 0.26033 0.0
H2690 H 0.28554 0.13528 0.27791 0.0
H2691 H 0.33617 0.14762 0.25533 0.0
H2692 H 0.32557 0.17009 0.23825 0.0
H2693 H 0.34179 0.14055 0.28978 0.0
H2694 H 0.30112 0.11593 0.23385 0.0
H2695 H 0.27323 0.10749 0.21128 0.0
H2696 H 0.24566 0.07741 0.25065 0.0
H2697 H 0.27326 0.08616 0.27373 0.0
C2698 C 0.35945 0.06276 0.27493 0.0
C2699 C 0.35299 0.04913 0.28571 0.0
C2700 C 0.35192 0.07763 0.27469 0.0
C2701 C 0.33793 0.07905 0.28527 0.0
C2702 C 0.33096 0.06524 0.29551 0.0
C2703 C 0.33854 0.05029 0.29582 0.0
C2704 C 0.33007 0.09471 0.2846 0.0
C2705 C 0.31272 0.0919 0.27484 0.0
C2706 C 0.34073 0.11232 0.2903 0.0
C2707 C 0.35965 0.1156 0.29971 0.0
C2708 C 0.36371 0.10761 0.31582 0.0
C2709 C 0.38165 0.10999 0.32399 0.0
C2710 C 0.39566 0.12039 0.31622 0.0
C2711 C 0.39176 0.12847 0.30029 0.0
C2712 C 0.37385 0.12613 0.29206 0.0
C2713 C 0.28828 0.1557 0.25957 0.0
C2714 C 0.29925 0.16511 0.24777 0.0
C2715 C 0.29442 0.14309 0.26954 0.0
C2716 C 0.31148 0.13973 0.26761 0.0
C2717 C 0.32293 0.15007 0.25692 0.0
C2718 C 0.31682 0.16269 0.24702 0.0
C2719 C 0.31674 0.12413 0.27478 0.0
C2720 C 0.33368 0.12692 0.28566 0.0
C2721 C 0.30609 0.10639 0.2692 0.0
C2722 C 0.28914 0.10217 0.25576 0.0
C2723 C 0.289 0.10791 0.2379 0.0
C2724 C 0.27326 0.10298 0.22496 0.0
C2725 C 0.25764 0.09204 0.22957 0.0
C2726 C 0.25772 0.08602 0.24715 0.0
C2727 C 0.27338 0.09104 0.26021 0.0
H2728 H 0.2455 0.08812 0.21948 0.0
H2729 H 0.40954 0.12217 0.32254 0.0
H2730 H 0.3251 0.15677 0.51149 0.0
H2731 H 0.3512 0.14285 0.51492 0.0
H2732 H 0.31668 0.09097 0.49251 0.0
H2733 H 0.29065 0.10477 0.48876 0.0
H2734 H 0.33882 0.0914 0.52681 0.0
H2735 H 0.3439 0.11194 0.46608 0.0
H2736 H 0.34727 0.13458 0.44403 0.0
H2737 H 0.3975 0.16341 0.47644 0.0
H2738 H 0.39427 0.14111 0.49888 0.0
H2739 H 0.40118 0.03767 0.52145 0.0
H2740 H 0.37761 0.05282 0.51016 0.0
H2741 H 0.41601 0.10426 0.52263 0.0
H2742 H 0.43965 0.0889 0.53309 0.0
H2743 H 0.39266 0.1054 0.49367 0.0
H2744 H 0.38901 0.08743 0.55431 0.0
H2745 H 0.38711 0.06665 0.57826 0.0
H2746 H 0.33579 0.03611 0.5496 0.0
H2747 H 0.33758 0.05647 0.52521 0.0
C2748 C 0.32309 0.14241 0.50723 0.0
C2749 C 0.30577 0.13186 0.49989 0.0
C2750 C 0.33803 0.1345 0.50911 0.0
C2751 C 0.33588 0.11589 0.50388 0.0
C2752 C 0.31863 0.10537 0.49657 0.0
C2753 C 0.30377 0.11329 0.49441 0.0
C2754 C 0.35135 0.1071 0.50679 0.0
C2755 C 0.35048 0.09426 0.51936 0.0
C2756 C 0.3669 0.11144 0.49767 0.0
C2757 C 0.36871 0.12497 0.4843 0.0
C2758 C 0.35555 0.12323 0.46864 0.0
C2759 C 0.35746 0.13598 0.45604 0.0
C2760 C 0.37256 0.15046 0.45886 0.0
C2761 C 0.38579 0.15221 0.47429 0.0
C2762 C 0.38392 0.13952 0.48695 0.0
C2763 C 0.40467 0.05211 0.52104 0.0
C2764 C 0.42213 0.06221 0.52808 0.0
C2765 C 0.3912 0.0608 0.51483 0.0
C2766 C 0.39489 0.07976 0.51606 0.0
C2767 C 0.41276 0.08967 0.52167 0.0
C2768 C 0.42626 0.08093 0.52765 0.0
C2769 C 0.37992 0.08931 0.51334 0.0
C2770 C 0.38096 0.10244 0.50103 0.0
C2771 C 0.36468 0.0856 0.52307 0.0
C2772 C 0.36353 0.07337 0.53779 0.0
C2773 C 0.37739 0.0762 0.55301 0.0
C2774 C 0.37633 0.06449 0.56668 0.0
C2775 C 0.36136 0.05005 0.56543 0.0
C2776 C 0.3474 0.04728 0.55052 0.0
C2777 C 0.34844 0.05889 0.53676 0.0
H2778 H 0.36055 0.04101 0.57604 0.0
H2779 H 0.37403 0.1603 0.44907 0.0
H2780 H 0.64222 0.60185 0.28588 0.0
H2781 H 0.6648 0.62921 0.28507 0.0
H2782 H 0.7055 0.59834 0.2803 0.0
H2783 H 0.68258 0.57027 0.28093 0.0
H2784 H 0.71567 0.633 0.307 0.0
H2785 H 0.69139 0.61078 0.24224 0.0
H2786 H 0.66662 0.59843 0.21634 0.0
H2787 H 0.6449 0.64532 0.22658 0.0
H2788 H 0.66944 0.65786 0.25267 0.0
H2789 H 0.7695 0.70612 0.2606 0.0
H2790 H 0.75252 0.67603 0.26458 0.0
H2791 H 0.71465 0.69983 0.29244 0.0
H2792 H 0.73229 0.72993 0.29011 0.0
H2793 H 0.70563 0.66734 0.25373 0.0
H2794 H 0.72545 0.68744 0.32032 0.0
H2795 H 0.74818 0.70024 0.34785 0.0
H2796 H 0.77591 0.65792 0.33633 0.0
H2797 H 0.75362 0.6452 0.30829 0.0
C2798 C 0.65595 0.60068 0.28477 0.0
C2799 C 0.6605 0.58372 0.28332 0.0
C2800 C 0.66887 0.61644 0.2843 0.0
C2801 C 0.68674 0.61579 0.2824 0.0
C2802 C 0.6917 0.59907 0.2817 0.0
C2803 C 0.67862 0.58308 0.28206 0.0
C2804 C 0.69976 0.63274 0.28048 0.0
C2805 C 0.71375 0.64034 0.29517 0.0
C2806 C 0.69682 0.64258 0.26534 0.0
C2807 C 0.6822 0.63521 0.24946 0.0
C2808 C 0.68128 0.61841 0.23903 0.0
C2809 C 0.66729 0.61139 0.2243 0.0
C2810 C 0.65418 0.62107 0.21983 0.0
C2811 C 0.65507 0.63783 0.23005 0.0
C2812 C 0.66903 0.64492 0.24478 0.0
C2813 C 0.75798 0.70505 0.26821 0.0
C2814 C 0.75266 0.72059 0.2755 0.0
C2815 C 0.74819 0.68781 0.2703 0.0
C2816 C 0.73264 0.68578 0.27924 0.0
C2817 C 0.72693 0.70115 0.286 0.0
C2818 C 0.73701 0.71837 0.28449 0.0
C2819 C 0.72153 0.66757 0.28021 0.0
C2820 C 0.7078 0.65983 0.26537 0.0
C2821 C 0.72449 0.6578 0.29536 0.0
C2822 C 0.73818 0.66569 0.31187 0.0
C2823 C 0.73666 0.68114 0.32334 0.0
C2824 C 0.7494 0.68832 0.33912 0.0
C2825 C 0.76357 0.67999 0.34375 0.0
C2826 C 0.76501 0.66444 0.33263 0.0
C2827 C 0.75235 0.65728 0.31676 0.0
H2828 H 0.77337 0.68551 0.35603 0.0
H2829 H 0.64335 0.6156 0.20845 0.0
H2830 H 0.87816 0.45458 0.79195 0.0
H2831 H 0.85856 0.42647 0.79712 0.0
H2832 H 0.81507 0.43698 0.7597 0.0
H2833 H 0.83467 0.46589 0.75509 0.0
H2834 H 0.80567 0.41608 0.79243 0.0
H2835 H 0.84099 0.41843 0.73941 0.0
H2836 H 0.86975 0.42735 0.72663 0.0
H2837 H 0.89454 0.39635 0.76347 0.0
H2838 H 0.86604 0.38762 0.7768 0.0
H2839 H 0.76214 0.32552 0.76229 0.0
H2840 H 0.77626 0.35735 0.76138 0.0
H2841 H 0.82736 0.34868 0.78602 0.0
H2842 H 0.81331 0.31689 0.78648 0.0
H2843 H 0.8319 0.36941 0.75981 0.0
H2844 H 0.80244 0.36935 0.81533 0.0
H2845 H 0.77781 0.36309 0.83475 0.0
H2846 H 0.74541 0.3889 0.79908 0.0
H2847 H 0.77004 0.39561 0.77963 0.0
C2848 C 0.86436 0.45095 0.78496 0.0
C2849 C 0.85796 0.46159 0.77233 0.0
C2850 C 0.85315 0.43519 0.78824 0.0
C2851 C 0.83569 0.42976 0.77845 0.0
C2852 C 0.82866 0.44117 0.76721 0.0
C2853 C 0.83984 0.45728 0.76426 0.0
C2854 C 0.82671 0.41083 0.77668 0.0
C2855 C 0.81109 0.4058 0.78504 0.0
C2856 C 0.83447 0.39769 0.76764 0.0
C2857 C 0.85142 0.40248 0.75917 0.0
C2858 C 0.85261 0.41361 0.74486 0.0
C2859 C 0.86887 0.41865 0.73753 0.0
C2860 C 0.88397 0.41244 0.74425 0.0
C2861 C 0.88284 0.40116 0.75829 0.0
C2862 C 0.86664 0.39617 0.76574 0.0
C2863 C 0.77653 0.33044 0.76681 0.0
C2864 C 0.78692 0.31915 0.77408 0.0
C2865 C 0.78444 0.3485 0.76663 0.0
C2866 C 0.80263 0.35523 0.77409 0.0
C2867 C 0.81325 0.3436 0.78032 0.0
C2868 C 0.80536 0.32552 0.78034 0.0
C2869 C 0.81066 0.37445 0.77547 0.0
C2870 C 0.82621 0.37959 0.76702 0.0
C2871 C 0.80313 0.38758 0.78491 0.0
C2872 C 0.78795 0.38276 0.79591 0.0
C2873 C 0.78998 0.3735 0.81152 0.0
C2874 C 0.77605 0.36995 0.82258 0.0
C2875 C 0.75998 0.37544 0.81807 0.0
C2876 C 0.75784 0.3846 0.80253 0.0
C2877 C 0.7718 0.38835 0.79153 0.0
H2878 H 0.74922 0.37269 0.82667 0.0
H2879 H 0.89654 0.41635 0.73854 0.0
H2880 H 0.07572 0.83935 0.05983 0.0
H2881 H 0.07173 0.86858 0.05159 0.0
H2882 H 0.02464 0.86343 0.08012 0.0
H2883 H 0.02863 0.834 0.0885 0.0
H2884 H 0.01807 0.87659 0.04782 0.0
H2885 H 0.06604 0.89315 0.09866 0.0
H2886 H 0.0955 0.8937 0.1167 0.0
H2887 H 0.1228 0.91386 0.07179 0.0
H2888 H 0.09348 0.91321 0.05337 0.0
H2889 H 0.01001 0.96762 0.04152 0.0
H2890 H 0.01278 0.93861 0.05101 0.0
H2891 H 0.06487 0.9453 0.03154 0.0
H2892 H 0.06231 0.97486 0.02262 0.0
H2893 H 0.06834 0.93109 0.06048 0.0
H2894 H 0.01975 0.91331 0.00899 0.0
H2895 H 0.98997 0.91038 0.99043 0.0
H2896 H 0.9635 0.89178 0.03646 0.0
H2897 H 0.99311 0.89471 0.05533 0.0
C2898 C 0.06445 0.84432 0.0644 0.0
C2899 C 0.05252 0.834 0.07492 0.0
C2900 C 0.06225 0.86128 0.05974 0.0
C2901 C 0.04799 0.8687 0.06534 0.0
C2902 C 0.03584 0.8583 0.07558 0.0
C2903 C 0.03814 0.84135 0.08041 0.0
C2904 C 0.04566 0.88702 0.0602 0.0
C2905 C 0.02902 0.88856 0.05086 0.0
C2906 C 0.05993 0.90282 0.06364 0.0
C2907 C 0.07755 0.90294 0.07455 0.0
C2908 C 0.07831 0.89753 0.09255 0.0
C2909 C 0.09499 0.89789 0.10286 0.0
C2910 C 0.11101 0.90376 0.09537 0.0
C2911 C 0.11038 0.90929 0.07756 0.0
C2912 C 0.09374 0.90893 0.06718 0.0
C2913 C 0.02198 0.96292 0.03896 0.0
C2914 C 0.03577 0.9738 0.03093 0.0
C2915 C 0.02355 0.94602 0.04439 0.0
C2916 C 0.03887 0.939 0.04171 0.0
C2917 C 0.05277 0.94997 0.03384 0.0
C2918 C 0.05129 0.96703 0.02863 0.0
C2919 C 0.04075 0.92074 0.04768 0.0
C2920 C 0.05733 0.91919 0.05731 0.0
C2921 C 0.02639 0.90491 0.0445 0.0
C2922 C 0.00865 0.90439 0.03362 0.0
C2923 C 0.00759 0.90884 0.01523 0.0
C2924 C 0.99073 0.90709 0.00464 0.0
C2925 C 0.97486 0.90085 0.01225 0.0
C2926 C 0.9758 0.89658 0.03057 0.0
C2927 C 0.99261 0.89827 0.04121 0.0
H2928 H 0.96183 0.89924 0.00394 0.0
H2929 H 0.12391 0.90406 0.10339 0.0
H2930 H 0.96142 0.27238 0.88063 0.0
H2931 H 0.93579 0.2764 0.85903 0.0
H2932 H 0.89909 0.23943 0.88596 0.0
H2933 H 0.92448 0.23568 0.90768 0.0
H2934 H 0.89114 0.23273 0.8477 0.0
H2935 H 0.90335 0.28393 0.89529 0.0
H2936 H 0.92155 0.31154 0.91469 0.0
H2937 H 0.92945 0.33733 0.86532 0.0
H2938 H 0.91152 0.30973 0.84557 0.0
H2939 H 0.80502 0.24961 0.81757 0.0
H2940 H 0.83284 0.24626 0.83574 0.0
H2941 H 0.86418 0.28714 0.80824 0.0
H2942 H 0.83642 0.29078 0.7903 0.0
H2943 H 0.8765 0.29258 0.84482 0.0
H2944 H 0.8634 0.24189 0.79727 0.0
H2945 H 0.84612 0.21394 0.7777 0.0
H2946 H 0.84065 0.18711 0.82673 0.0
H2947 H 0.85763 0.21498 0.84663 0.0
C2948 C 0.94791 0.26491 0.88176 0.0
C2949 C 0.94507 0.25361 0.89587 0.0
C2950 C 0.93321 0.26736 0.8695 0.0
C2951 C 0.91536 0.25833 0.87086 0.0
C2952 C 0.91264 0.2466 0.88455 0.0
C2953 C 0.92722 0.24444 0.89699 0.0
C2954 C 0.8994 0.26098 0.85821 0.0
C2955 C 0.88786 0.24581 0.84724 0.0
C2956 C 0.89528 0.27811 0.85709 0.0
C2957 C 0.90629 0.29464 0.86892 0.0
C2958 C 0.90915 0.2954 0.88854 0.0
C2959 C 0.91939 0.31107 0.89961 0.0
C2960 C 0.92672 0.32616 0.89124 0.0
C2961 C 0.9238 0.32561 0.87178 0.0
C2962 C 0.91361 0.30995 0.86064 0.0
C2963 C 0.81781 0.2579 0.81535 0.0
C2964 C 0.81831 0.27038 0.80228 0.0
C2965 C 0.83381 0.25589 0.82571 0.0
C2966 C 0.85084 0.26629 0.82334 0.0
C2967 C 0.85135 0.27888 0.81042 0.0
C2968 C 0.83537 0.28085 0.80001 0.0
C2969 C 0.86799 0.26422 0.83451 0.0
C2970 C 0.8798 0.2795 0.84518 0.0
C2971 C 0.87241 0.24718 0.83535 0.0
C2972 C 0.86162 0.2306 0.82347 0.0
C2973 C 0.85831 0.2301 0.80391 0.0
C2974 C 0.84862 0.21425 0.79275 0.0
C2975 C 0.84226 0.19877 0.80097 0.0
C2976 C 0.84555 0.19912 0.82038 0.0
C2977 C 0.8552 0.21494 0.83161 0.0
H2978 H 0.83482 0.18649 0.7923 0.0
H2979 H 0.93459 0.3383 0.89983 0.0
H2980 H 0.57127 0.22676 0.58878 0.0
H2981 H 0.56684 0.19407 0.58112 0.0
H2982 H 0.51638 0.19215 0.54699 0.0
H2983 H 0.52049 0.22501 0.55555 0.0
H2984 H 0.51215 0.16296 0.56332 0.0
H2985 H 0.55907 0.18988 0.5288 0.0
H2986 H 0.58807 0.20993 0.52511 0.0
H2987 H 0.61648 0.18236 0.56279 0.0
H2988 H 0.58762 0.16228 0.56685 0.0
H2989 H 0.50501 0.07429 0.51635 0.0
H2990 H 0.5078 0.10658 0.5248 0.0
H2991 H 0.55959 0.11061 0.55734 0.0
H2992 H 0.55702 0.07826 0.54836 0.0
H2993 H 0.56266 0.13881 0.54156 0.0
H2994 H 0.51611 0.11116 0.57557 0.0
H2995 H 0.48721 0.09155 0.58025 0.0
H2996 H 0.45809 0.1205 0.54489 0.0
H2997 H 0.48681 0.13995 0.53958 0.0
C2998 C 0.55915 0.21937 0.57972 0.0
C2999 C 0.54627 0.22862 0.5728 0.0
C3000 C 0.55667 0.20056 0.57515 0.0
C3001 C 0.54146 0.19026 0.56295 0.0
C3002 C 0.52833 0.19949 0.55632 0.0
C3003 C 0.53067 0.21837 0.56121 0.0
C3004 C 0.53947 0.1701 0.55709 0.0
C3005 C 0.52315 0.15777 0.5583 0.0
C3006 C 0.55382 0.16283 0.55092 0.0
C3007 C 0.57118 0.17468 0.54823 0.0
C3008 C 0.5715 0.18815 0.53634 0.0
C3009 C 0.58791 0.19951 0.53419 0.0
C3010 C 0.6041 0.19744 0.54374 0.0
C3011 C 0.60392 0.18396 0.55541 0.0
C3012 C 0.58755 0.17256 0.55762 0.0
C3013 C 0.51704 0.08198 0.52533 0.0
C3014 C 0.53081 0.07341 0.53157 0.0
C3015 C 0.51857 0.10062 0.53035 0.0
C3016 C 0.53376 0.11144 0.54218 0.0
C3017 C 0.54764 0.10289 0.54827 0.0
C3018 C 0.54619 0.08424 0.54307 0.0
C3019 C 0.53535 0.13155 0.54786 0.0
C3020 C 0.55162 0.14392 0.54658 0.0
C3021 C 0.52095 0.13879 0.55403 0.0
C3022 C 0.50365 0.12692 0.55704 0.0
C3023 C 0.50356 0.11322 0.56863 0.0
C3024 C 0.4872 0.10213 0.5714 0.0
C3025 C 0.47083 0.10474 0.56285 0.0
C3026 C 0.47078 0.11844 0.55147 0.0
C3027 C 0.48709 0.12949 0.54855 0.0
H3028 H 0.4582 0.0962 0.56511 0.0
H3029 H 0.61678 0.20628 0.54207 0.0
H3030 H 0.56523 0.79676 0.40562 0.0
H3031 H 0.59034 0.79376 0.38851 0.0
H3032 H 0.56341 0.73876 0.36704 0.0
H3033 H 0.5382 0.74154 0.3847 0.0
H3034 H 0.59903 0.74105 0.37631 0.0
H3035 H 0.56481 0.77288 0.33867 0.0
H3036 H 0.54802 0.79625 0.33221 0.0
H3037 H 0.59601 0.83772 0.35155 0.0
H3038 H 0.61304 0.81459 0.35832 0.0
H3039 H 0.65926 0.75423 0.29981 0.0
H3040 H 0.633 0.74587 0.31672 0.0
H3041 H 0.65805 0.78828 0.36157 0.0
H3042 H 0.68428 0.79633 0.34502 0.0
H3043 H 0.621 0.78827 0.3368 0.0
H3044 H 0.65426 0.75536 0.3764 0.0
H3045 H 0.6704 0.73141 0.38235 0.0
H3046 H 0.62323 0.691 0.35751 0.0
H3047 H 0.60691 0.71477 0.35109 0.0
C3048 C 0.56452 0.784 0.39724 0.0
C3049 C 0.54952 0.76944 0.39651 0.0
C3050 C 0.57894 0.78231 0.38735 0.0
C3051 C 0.57877 0.76613 0.37613 0.0
C3052 C 0.56392 0.75143 0.3755 0.0
C3053 C 0.54945 0.75308 0.38555 0.0
C3054 C 0.59409 0.76488 0.36511 0.0
C3055 C 0.60361 0.75121 0.36741 0.0
C3056 C 0.60026 0.77807 0.35344 0.0
C3057 C 0.59015 0.79201 0.34911 0.0
C3058 C 0.57175 0.78699 0.34162 0.0
C3059 C 0.5622 0.80019 0.33789 0.0
C3060 C 0.57093 0.81846 0.3415 0.0
C3061 C 0.58926 0.82356 0.34876 0.0
C3062 C 0.59888 0.81041 0.35252 0.0
C3063 C 0.65955 0.76109 0.31372 0.0
C3064 C 0.67393 0.7758 0.3212 0.0
C3065 C 0.64446 0.75644 0.32329 0.0
C3066 C 0.64353 0.76649 0.34041 0.0
C3067 C 0.65849 0.78026 0.34847 0.0
C3068 C 0.67356 0.78476 0.33906 0.0
C3069 C 0.62619 0.76486 0.34849 0.0
C3070 C 0.61624 0.77798 0.3455 0.0
C3071 C 0.61962 0.7511 0.35932 0.0
C3072 C 0.62948 0.73685 0.36296 0.0
C3073 C 0.64742 0.74139 0.37193 0.0
C3074 C 0.65658 0.72784 0.37546 0.0
C3075 C 0.64787 0.70969 0.37022 0.0
C3076 C 0.62998 0.70506 0.36149 0.0
C3077 C 0.62077 0.71857 0.3579 0.0
H3078 H 0.65498 0.69922 0.373 0.0
H3079 H 0.5635 0.82867 0.33864 0.0
H3080 H 0.02509 0.23658 0.36612 0.0
H3081 H 0.023 0.2082 0.37996 0.0
H3082 H 0.05101 0.23826 0.43236 0.0
H3083 H 0.05266 0.26651 0.41872 0.0
H3084 H 0.0638 0.20802 0.42257 0.0
H3085 H 0.00742 0.22374 0.42822 0.0
H3086 H 0.97802 0.23094 0.41899 0.0
H3087 H 0.95973 0.17952 0.38483 0.0
H3088 H 0.98916 0.17213 0.39358 0.0
H3089 H 0.03843 0.14403 0.48725 0.0
H3090 H 0.04708 0.16932 0.46924 0.0
H3091 H 0.01399 0.13769 0.41997 0.0
H3092 H 0.00498 0.11275 0.43824 0.0
H3093 H 0.00435 0.16832 0.42696 0.0
H3094 H 0.06164 0.15273 0.4228 0.0
H3095 H 0.09134 0.14657 0.43306 0.0
H3096 H 0.10775 0.19864 0.46623 0.0
H3097 H 0.07809 0.20503 0.45635 0.0
C3098 C 0.03127 0.23701 0.3804 0.0
C3099 C 0.0395 0.25367 0.39122 0.0
C3100 C 0.0298 0.22085 0.3884 0.0
C3101 C 0.03677 0.22108 0.40726 0.0
C3102 C 0.04557 0.2377 0.4178 0.0
C3103 C 0.04667 0.25382 0.40995 0.0
C3104 C 0.03499 0.20412 0.41614 0.0
C3105 C 0.05079 0.19938 0.42366 0.0
C3106 C 0.01802 0.19271 0.41735 0.0
C3107 C 1.00066 0.19753 0.41127 0.0
C3108 C 0.99727 0.21411 0.41845 0.0
C3109 C 0.98055 0.21819 0.41338 0.0
C3110 C 0.96704 0.20574 0.40125 0.0
C3111 C 0.97023 0.18919 0.39415 0.0
C3112 C 0.98694 0.18506 0.39914 0.0
C3113 C 0.03364 0.14227 0.47239 0.0
C3114 C 0.02133 0.12632 0.46399 0.0
C3115 C 0.03855 0.15675 0.46207 0.0
C3116 C 0.03122 0.15553 0.44315 0.0
C3117 C 0.01986 0.13907 0.43451 0.0
C3118 C 0.01489 0.12469 0.44485 0.0
C3119 C 0.03322 0.17194 0.43319 0.0
C3120 C 0.01741 0.17674 0.42563 0.0
C3121 C 0.05017 0.18352 0.43215 0.0
C3122 C 0.06755 0.17923 0.43903 0.0
C3123 C 0.07147 0.16274 0.43253 0.0
C3124 C 0.08834 0.15925 0.4382 0.0
C3125 C 0.1014 0.17218 0.45034 0.0
C3126 C 0.09761 0.18861 0.45687 0.0
C3127 C 0.08078 0.19217 0.45124 0.0
H3128 H 0.11448 0.16948 0.45464 0.0
H3129 H 0.95408 0.20889 0.39742 0.0
H3130 H 0.57605 0.24981 0.18333 0.0
H3131 H 0.60868 0.25291 0.19219 0.0
H3132 H 0.6015 0.25827 0.25049 0.0
H3133 H 0.56871 0.25434 0.24164 0.0
H3134 H 0.6321 0.28438 0.24139 0.0
H3135 H 0.60769 0.2207 0.2334 0.0
H3136 H 0.59039 0.19121 0.21701 0.0
H3137 H 0.62458 0.19577 0.17364 0.0
H3138 H 0.6419 0.22548 0.18962 0.0
H3139 H 0.71815 0.2696 0.28167 0.0
H3140 H 0.6856 0.26764 0.27297 0.0
H3141 H 0.69189 0.25867 0.2146 0.0
H3142 H 0.72445 0.26135 0.22324 0.0
H3143 H 0.6617 0.23464 0.22347 0.0
H3144 H 0.68628 0.29826 0.23143 0.0
H3145 H 0.7018 0.32897 0.24618 0.0
H3146 H 0.66684 0.32506 0.28887 0.0
H3147 H 0.6513 0.29422 0.27457 0.0
C3148 C 0.58142 0.25187 0.19805 0.0
C3149 C 0.56966 0.25201 0.21175 0.0
C3150 C 0.60014 0.2535 0.20312 0.0
C3151 C 0.60776 0.2558 0.22207 0.0
C3152 C 0.59611 0.25651 0.23578 0.0
C3153 C 0.5773 0.25429 0.2307 0.0
C3154 C 0.62777 0.2573 0.22754 0.0
C3155 C 0.6385 0.27338 0.23772 0.0
C3156 C 0.63642 0.24321 0.22236 0.0
C3157 C 0.62592 0.22546 0.21257 0.0
C3158 C 0.61137 0.21554 0.22024 0.0
C3159 C 0.60159 0.19875 0.21105 0.0
C3160 C 0.60632 0.19165 0.19425 0.0
C3161 C 0.62089 0.20131 0.18663 0.0
C3162 C 0.63069 0.21813 0.19575 0.0
C3163 C 0.71255 0.2671 0.26699 0.0
C3164 C 0.72394 0.26558 0.25317 0.0
C3165 C 0.69392 0.26612 0.26199 0.0
C3166 C 0.68608 0.26311 0.24305 0.0
C3167 C 0.69743 0.26108 0.22929 0.0
C3168 C 0.7161 0.26259 0.23425 0.0
C3169 C 0.66609 0.26171 0.23754 0.0
C3170 C 0.65534 0.24564 0.22725 0.0
C3171 C 0.65744 0.27585 0.24261 0.0
C3172 C 0.66778 0.29379 0.25207 0.0
C3173 C 0.68213 0.30379 0.24417 0.0
C3174 C 0.69088 0.32128 0.25241 0.0
C3175 C 0.68532 0.32894 0.26849 0.0
C3176 C 0.67114 0.31909 0.27645 0.0
C3177 C 0.66239 0.3016 0.2683 0.0
H3178 H 0.69186 0.34252 0.27479 0.0
H3179 H 0.59874 0.17864 0.18716 0.0
H3180 H 0.5623 0.8511 0.91465 0.0
H3181 H 0.56157 0.87974 0.93313 0.0
H3182 H 0.51813 0.88616 0.89296 0.0
H3183 H 0.51897 0.85769 0.87459 0.0
H3184 H 0.5406 0.91801 0.90429 0.0
H3185 H 0.5098 0.87003 0.93418 0.0
H3186 H 0.50565 0.8421 0.94907 0.0
H3187 H 0.54938 0.86733 0.9924 0.0
H3188 H 0.55395 0.89537 0.97762 0.0
H3189 H 0.50162 0.97801 0.96086 0.0
H3190 H 0.50671 0.95138 0.94221 0.0
H3191 H 0.55406 0.95266 0.98104 0.0
H3192 H 0.54947 0.97998 -0.00082 0.0
H3193 H 0.53114 0.91744 0.97092 0.0
H3194 H 0.56028 0.96641 0.94025 0.0
H3195 H 0.56353 0.99344 0.92389 0.0
H3196 H 0.52067 0.96529 0.88086 0.0
H3197 H 0.51698 0.93817 0.89712 0.0
C3198 C 0.55315 0.85905 0.90941 0.0
C3199 C 0.54117 0.8525 0.89279 0.0
C3200 C 0.55246 0.87525 0.92016 0.0
C3201 C 0.53964 0.88516 0.91463 0.0
C3202 C 0.52821 0.87894 0.89759 0.0
C3203 C 0.52885 0.86275 0.88693 0.0
C3204 C 0.53768 0.90166 0.92671 0.0
C3205 C 0.53835 0.91778 0.91881 0.0
C3206 C 0.53496 0.9016 0.94579 0.0
C3207 C 0.53238 0.88473 0.95465 0.0
C3208 C 0.51866 0.86957 0.94678 0.0
C3209 C 0.5162 0.85373 0.95522 0.0
C3210 C 0.52729 0.85292 0.97163 0.0
C3211 C 0.54083 0.86797 0.97966 0.0
C3212 C 0.54335 0.88384 0.97126 0.0
C3213 C 0.51344 0.973 0.96508 0.0
C3214 C 0.52554 0.98157 0.98107 0.0
C3215 C 0.51621 0.95757 0.95455 0.0
C3216 C 0.53097 0.95007 0.95996 0.0
C3217 C 0.54266 0.95819 0.97642 0.0
C3218 C 0.54003 0.97381 0.9868 0.0
C3219 C 0.53407 0.93377 0.94845 0.0
C3220 C 0.53351 0.91767 0.95644 0.0
C3221 C 0.53662 0.93375 0.92933 0.0
C3222 C 0.53821 0.95033 0.92004 0.0
C3223 C 0.55136 0.96607 0.92746 0.0
C3224 C 0.55333 0.98139 0.91816 0.0
C3225 C 0.54228 0.9811 0.90137 0.0
C3226 C 0.52919 0.96551 0.89389 0.0
C3227 C 0.52715 0.95017 0.90314 0.0
H3228 H 0.5439 0.99294 0.89414 0.0
H3229 H 0.52536 0.84065 0.97815 0.0
H3230 H 0.97104 0.77501 0.70759 0.0
H3231 H 0.94167 0.77885 0.71644 0.0
H3232 H 0.92448 0.72141 0.71644 0.0
H3233 H 0.95391 0.71762 0.70841 0.0
H3234 H 0.89741 0.73703 0.69722 0.0
H3235 H 0.93476 0.74517 0.75653 0.0
H3236 H 0.96171 0.75877 0.77955 0.0
H3237 H 0.94964 0.81098 0.77822 0.0
H3238 H 0.9227 0.7977 0.75497 0.0
H3239 H 0.81609 0.73258 0.7388 0.0
H3240 H 0.84552 0.72934 0.73047 0.0
H3241 H 0.86729 0.78625 0.74757 0.0
H3242 H 0.83823 0.7892 0.7566 0.0
H3243 H 0.89254 0.77141 0.75758 0.0
H3244 H 0.85529 0.76374 0.69812 0.0
H3245 H 0.8284 0.75034 0.67491 0.0
H3246 H 0.84035 0.69803 0.67582 0.0
H3247 H 0.86725 0.71111 0.69914 0.0
C3248 C 0.96103 0.76319 0.7095 0.0
C3249 C 0.96507 0.74599 0.70732 0.0
C3250 C 0.94416 0.7654 0.71461 0.0
C3251 C 0.93057 0.75043 0.71716 0.0
C3252 C 0.93451 0.73325 0.7146 0.0
C3253 C 0.9515 0.73111 0.71006 0.0
C3254 C 0.91241 0.75253 0.72266 0.0
C3255 C 0.89638 0.74444 0.7105 0.0
C3256 C 0.91075 0.76244 0.73981 0.0
C3257 C 0.92684 0.77048 0.75384 0.0
C3258 C 0.93794 0.75958 0.76102 0.0
C3259 C 0.95319 0.76722 0.77413 0.0
C3260 C 0.95742 0.78574 0.78029 0.0
C3261 C 0.94636 0.79665 0.7734 0.0
C3262 C 0.93109 0.78907 0.76026 0.0
C3263 C 0.82709 0.74447 0.74079 0.0
C3264 C 0.82439 0.76127 0.74848 0.0
C3265 C 0.84409 0.74263 0.73583 0.0
C3266 C 0.85903 0.7576 0.73789 0.0
C3267 C 0.85634 0.77433 0.7457 0.0
C3268 C 0.83945 0.77607 0.75091 0.0
C3269 C 0.87733 0.75594 0.73209 0.0
C3270 C 0.89345 0.7641 0.7442 0.0
C3271 C 0.87909 0.74621 0.71479 0.0
C3272 C 0.86319 0.73838 0.70047 0.0
C3273 C 0.85215 0.74937 0.6934 0.0
C3274 C 0.83691 0.74184 0.68022 0.0
C3275 C 0.83265 0.72334 0.67393 0.0
C3276 C 0.84367 0.71235 0.68072 0.0
C3277 C 0.85893 0.71983 0.69388 0.0
H3278 H 0.82082 0.71752 0.66376 0.0
H3279 H 0.96924 0.79164 0.79045 0.0
H3280 H 0.08055 0.04578 0.82653 0.0
H3281 H 0.07286 0.04301 0.85782 0.0
H3282 H 0.11004 0.0085 0.8664 0.0
H3283 H 0.11804 0.01127 0.83457 0.0
H3284 H 0.07675 0.99537 0.87798 0.0
H3285 H 0.12101 0.05174 0.88897 0.0
H3286 H 0.13551 0.08258 0.88372 0.0
H3287 H 0.08689 0.10014 0.89209 0.0
H3288 H 0.07205 0.06939 0.89725 0.0
H3289 H 0.06699 0.00141 0.9764 0.0
H3290 H 0.07947 0.00246 0.94654 0.0
H3291 H 0.04372 0.0359 0.92856 0.0
H3292 H 0.0311 0.03472 0.95812 0.0
H3293 H 0.07957 0.04944 0.92334 0.0
H3294 H 0.03434 0.9946 0.90951 0.0
H3295 H 0.01782 0.96414 0.91369 0.0
H3296 H 0.06581 0.94416 0.90922 0.0
H3297 H 0.0827 0.9746 0.90526 0.0
C3298 C 0.08717 0.03751 0.83492 0.0
C3299 C 0.09994 0.02869 0.82787 0.0
C3300 C 0.08283 0.0361 0.85298 0.0
C3301 C 0.09109 0.02584 0.86466 0.0
C3302 C 0.10359 0.01664 0.85767 0.0
C3303 C 0.10809 0.01815 0.83946 0.0
C3304 C 0.08584 0.02428 0.88376 0.0
C3305 C 0.0778 0.00716 0.8881 0.0
C3306 C 0.08656 0.03973 0.89672 0.0
C3307 C 0.09538 0.0582 0.89336 0.0
C3308 C 0.11336 0.06214 0.88954 0.0
C3309 C 0.12165 0.07962 0.88663 0.0
C3310 C 0.11211 0.0933 0.88754 0.0
C3311 C 0.09426 0.08953 0.89139 0.0
C3312 C 0.08592 0.07209 0.89435 0.0
C3313 C 0.06169 0.00882 0.96598 0.0
C3314 C 0.04796 0.01784 0.96955 0.0
C3315 C 0.06881 0.00941 0.94895 0.0
C3316 C 0.06253 0.01926 0.93531 0.0
C3317 C 0.04879 0.02823 0.93886 0.0
C3318 C 0.04149 0.02741 0.95571 0.0
C3319 C 0.07046 0.02055 0.91747 0.0
C3320 C 0.07887 0.03764 0.91337 0.0
C3321 C 0.06985 0.00513 0.90462 0.0
C3322 C 0.05985 0.98692 0.90738 0.0
C3323 C 0.04144 0.98377 0.90967 0.0
C3324 C 0.03199 0.9665 0.91194 0.0
C3325 C 0.04078 0.95225 0.91181 0.0
C3326 C 0.05903 0.95523 0.90938 0.0
C3327 C 0.06855 0.97249 0.90712 0.0
H3328 H 0.03343 0.93887 0.91353 0.0
H3329 H 0.11856 0.10682 0.88528 0.0
H3330 H 0.76985 0.39746 0.54895 0.0
H3331 H 0.76423 0.3855 0.57826 0.0
H3332 H 0.80896 0.35956 0.57539 0.0
H3333 H 0.81474 0.37138 0.54606 0.0
H3334 H 0.77268 0.3373 0.5758 0.0
H3335 H 0.81621 0.39186 0.60636 0.0
H3336 H 0.82602 0.42508 0.61196 0.0
H3337 H 0.77686 0.42814 0.63439 0.0
H3338 H 0.76666 0.3949 0.6287 0.0
H3339 H 0.81635 0.30935 0.65012 0.0
H3340 H 0.80248 0.32041 0.62338 0.0
H3341 H 0.76725 0.34172 0.65787 0.0
H3342 H 0.78222 0.33198 0.68518 0.0
H3343 H 0.78539 0.36695 0.64152 0.0
H3344 H 0.74839 0.30687 0.61571 0.0
H3345 H 0.74255 0.27391 0.60645 0.0
H3346 H 0.78591 0.28158 0.57288 0.0
H3347 H 0.79196 0.31445 0.58189 0.0
C3348 C 0.77857 0.38931 0.55467 0.0
C3349 C 0.79251 0.38496 0.54525 0.0
C3350 C 0.77541 0.3827 0.57138 0.0
C3351 C 0.7862 0.3718 0.57862 0.0
C3352 C 0.80057 0.36801 0.56968 0.0
C3353 C 0.80371 0.37455 0.55296 0.0
C3354 C 0.78126 0.36229 0.59419 0.0
C3355 C 0.77523 0.34362 0.59026 0.0
C3356 C 0.78406 0.37103 0.61264 0.0
C3357 C 0.79059 0.39092 0.61697 0.0
C3358 C 0.80746 0.39962 0.61244 0.0
C3359 C 0.8131 0.41845 0.61563 0.0
C3360 C 0.80205 0.42872 0.62348 0.0
C3361 C 0.7854 0.42017 0.6283 0.0
C3362 C 0.77969 0.40133 0.62512 0.0
C3363 C 0.80553 0.31622 0.65198 0.0
C3364 C 0.80061 0.32007 0.66974 0.0
C3365 C 0.79724 0.32213 0.63658 0.0
C3366 C 0.78351 0.33152 0.63857 0.0
C3367 C 0.77765 0.33427 0.65606 0.0
C3368 C 0.78621 0.32867 0.6716 0.0
C3369 C 0.77824 0.3414 0.62336 0.0
C3370 C 0.78198 0.3604 0.62718 0.0
C3371 C 0.77411 0.33292 0.60463 0.0
C3372 C 0.77058 0.31309 0.59949 0.0
C3373 C 0.7567 0.30149 0.60643 0.0
C3374 C 0.75334 0.28283 0.60117 0.0
C3375 C 0.76385 0.27566 0.58909 0.0
C3376 C 0.77774 0.28712 0.58219 0.0
C3377 C 0.78107 0.30576 0.5873 0.0
H3378 H 0.76124 0.26122 0.58508 0.0
H3379 H 0.80639 0.4433 0.62586 0.0
H3380 H 0.38355 0.013 0.35701 0.0
H3381 H 0.40441 0.01411 0.38592 0.0
H3382 H 0.44806 0.01257 0.35298 0.0
H3383 H 0.42762 0.01188 0.32452 0.0
H3384 H 0.44207 0.98689 0.38131 0.0
H3385 H 0.44973 0.05085 0.37031 0.0
H3386 H 0.43718 0.07749 0.36555 0.0
H3387 H 0.41487 0.07411 0.41735 0.0
H3388 H 0.4272 0.04737 0.42229 0.0
H3389 H 0.51599 0.00518 0.45254 0.0
H3390 H 0.49839 0.00597 0.42266 0.0
H3391 H 0.46184 0.03114 0.45186 0.0
H3392 H 0.48121 0.03383 0.48079 0.0
H3393 H 0.4648 0.04469 0.42337 0.0
H3394 H 0.45587 0.98129 0.43605 0.0
H3395 H 0.46757 0.95436 0.44188 0.0
H3396 H 0.48932 0.95475 0.38965 0.0
H3397 H 0.47783 0.98171 0.38359 0.0
C3398 C 0.39766 0.01313 0.35624 0.0
C3399 C 0.4044 0.01276 0.33909 0.0
C3400 C 0.40936 0.01358 0.37246 0.0
C3401 C 0.42746 0.01327 0.37113 0.0
C3402 C 0.43401 0.01268 0.35393 0.0
C3403 C 0.42251 0.01253 0.33791 0.0
C3404 C 0.44012 0.0145 0.38769 0.0
C3405 C 0.44703 0.99939 0.39075 0.0
C3406 C 0.44639 0.03092 0.39947 0.0
C3407 C 0.43922 0.04708 0.39657 0.0
C3408 C 0.44205 0.05575 0.3806 0.0
C3409 C 0.43501 0.07087 0.3779 0.0
C3410 C 0.4252 0.07746 0.39112 0.0
C3411 C 0.42246 0.06899 0.40711 0.0
C3412 C 0.42949 0.05387 0.40988 0.0
C3413 C 0.50481 0.01178 0.45238 0.0
C3414 C 0.50035 0.01997 0.46887 0.0
C3415 C 0.49444 0.0117 0.43541 0.0
C3416 C 0.47866 0.01829 0.43516 0.0
C3417 C 0.47412 0.0262 0.45169 0.0
C3418 C 0.48517 0.02757 0.46829 0.0
C3419 C 0.4663 0.0167 0.41799 0.0
C3420 C 0.45969 0.03194 0.41437 0.0
C3421 C 0.45991 1.00016 0.40609 0.0
C3422 C 0.46608 0.98352 0.40942 0.0
C3423 C 0.46311 0.97558 0.42581 0.0
C3424 C 0.46972 0.96034 0.42916 0.0
C3425 C 0.4792 0.95286 0.41616 0.0
C3426 C 0.48197 0.96054 0.39971 0.0
C3427 C 0.47538 0.97576 0.39628 0.0
H3428 H 0.48438 0.94112 0.41882 0.0
H3429 H 0.41974 0.08916 0.38899 0.0
H3430 H 0.74263 0.68536 0.0649 0.0
H3431 H 0.74643 0.69564 0.09843 0.0
H3432 H 0.80006 0.72673 0.09528 0.0
H3433 H 0.79653 0.7155 0.06158 0.0
H3434 H 0.79919 0.71267 0.12792 0.0
H3435 H 0.76323 0.74674 0.09488 0.0
H3436 H 0.73823 0.74988 0.0718 0.0
H3437 H 0.69967 0.72026 0.10272 0.0
H3438 H 0.72447 0.71675 0.12587 0.0
H3439 H 0.8024 0.76732 0.21474 0.0
H3440 H 0.80259 0.75615 0.18202 0.0
H3441 H 0.74785 0.72513 0.17921 0.0
H3442 H 0.74748 0.7366 0.21192 0.0
H3443 H 0.75074 0.74069 0.14914 0.0
H3444 H 0.78704 0.7063 0.18205 0.0
H3445 H 0.81226 0.70129 0.20365 0.0
H3446 H 0.85052 0.73121 0.17267 0.0
H3447 H 0.82554 0.73663 0.15103 0.0
C3448 C 0.75532 0.69423 0.07143 0.0
C3449 C 0.76923 0.69978 0.0607 0.0
C3450 C 0.75746 0.70018 0.09058 0.0
C3451 C 0.77333 0.71241 0.09938 0.0
C3452 C 0.78762 0.71742 0.08882 0.0
C3453 C 0.78562 0.71105 0.0696 0.0
C3454 C 0.77442 0.72046 0.1193 0.0
C3455 C 0.78876 0.71906 0.13253 0.0
C3456 C 0.76068 0.72858 0.12546 0.0
C3457 C 0.74571 0.73143 0.11207 0.0
C3458 C 0.74942 0.7409 0.09676 0.0
C3459 C 0.73528 0.74272 0.08365 0.0
C3460 C 0.71737 0.73526 0.08579 0.0
C3461 C 0.71355 0.72605 0.1011 0.0
C3462 C 0.72764 0.72417 0.11424 0.0
C3463 C 0.79038 0.75809 0.20721 0.0
C3464 C 0.77485 0.75297 0.21601 0.0
C3465 C 0.79056 0.7516 0.18845 0.0
C3466 C 0.77533 0.73955 0.17806 0.0
C3467 C 0.7598 0.73441 0.18684 0.0
C3468 C 0.75957 0.74101 0.20558 0.0
C3469 C 0.77539 0.73266 0.15795 0.0
C3470 C 0.76125 0.73437 0.14462 0.0
C3471 C 0.78938 0.72492 0.15175 0.0
C3472 C 0.8044 0.72197 0.16499 0.0
C3473 C 0.80082 0.71195 0.17994 0.0
C3474 C 0.81508 0.70902 0.19217 0.0
C3475 C 0.83296 0.7159 0.18949 0.0
C3476 C 0.83665 0.72587 0.17469 0.0
C3477 C 0.82246 0.72887 0.16244 0.0
H3478 H 0.84397 0.71339 0.19877 0.0
H3479 H 0.70645 0.73663 0.07559 0.0
H3480 H 0.1146 0.01142 0.71449 0.0
H3481 H 0.10455 0.00832 0.68058 0.0
H3482 H 0.06484 0.03926 0.6912 0.0
H3483 H 0.07424 0.04187 0.72457 0.0
H3484 H 0.05005 0.01239 0.66652 0.0
H3485 H 0.10652 0.05681 0.67561 0.0
H3486 H 0.13935 0.06857 0.68464 0.0
H3487 H 0.14987 0.0279 0.64467 0.0
H3488 H 0.11708 0.01571 0.6356 0.0
H3489 H 0.02655 0.04031 0.57814 0.0
H3490 H 0.03827 0.03984 0.61091 0.0
H3491 H 0.0735 0.00611 0.59322 0.0
H3492 H 0.06218 0.00677 0.56058 0.0
H3493 H 0.09147 0.03182 0.62062 0.0
H3494 H 0.03389 0.98859 0.61128 0.0
H3495 H 1.00084 0.97757 0.60334 0.0
H3496 H 0.99253 0.01819 0.64486 0.0
H3497 H 0.02552 0.02956 0.65289 0.0
C3498 C 0.10356 0.0173 0.70955 0.0
C3499 C 0.09523 0.02685 0.72233 0.0
C3500 C 0.09795 0.01571 0.69015 0.0
C3501 C 0.08403 0.02374 0.68322 0.0
C3502 C 0.07556 0.0329 0.69606 0.0
C3503 C 0.08101 0.03438 0.71526 0.0
C3504 C 0.07778 0.02263 0.66275 0.0
C3505 C 0.05915 0.01683 0.65656 0.0
C3506 C 0.08961 0.02798 0.64953 0.0
C3507 C 0.10933 0.03519 0.65512 0.0
C3508 C 0.11582 0.05025 0.66889 0.0
C3509 C 0.13443 0.05702 0.67399 0.0
C3510 C 0.14668 0.04894 0.66529 0.0
C3511 C 0.14036 0.03411 0.65144 0.0
C3512 C 0.12176 0.02726 0.64632 0.0
C3513 C 0.03683 0.03285 0.58119 0.0
C3514 C 0.04345 0.02369 0.5666 0.0
C3515 C 0.04347 0.03249 0.59999 0.0
C3516 C 0.05672 0.02281 0.60463 0.0
C3517 C 0.06335 0.01372 0.59008 0.0
C3518 C 0.05677 0.01409 0.57135 0.0
C3519 C 0.06368 0.02206 0.6246 0.0
C3520 C 0.08242 0.02737 0.63062 0.0
C3521 C 0.05196 0.01653 0.63781 0.0
C3522 C 0.03215 0.01003 0.63254 0.0
C3523 C 0.02501 0.99528 0.61856 0.0
C3524 C 0.00629 0.98894 0.61409 0.0
C3525 C 0.99459 0.9972 0.62356 0.0
C3526 C 1.0016 0.01182 0.63751 0.0
C3527 C 0.02029 0.01821 0.64203 0.0
H3528 H 0.98011 0.99224 0.62011 0.0
H3529 H 0.16108 0.05422 0.66923 0.0
H3530 H 0.76345 0.37031 0.45279 0.0
H3531 H 0.75869 0.35276 0.42187 0.0
H3532 H 0.8078 0.38573 0.40834 0.0
H3533 H 0.81286 0.40329 0.43945 0.0
H3534 H 0.7773 0.37574 0.37885 0.0
H3535 H 0.81338 0.35194 0.42298 0.0
H3536 H 0.82306 0.34022 0.45189 0.0
H3537 H 0.77637 0.29605 0.4406 0.0
H3538 H 0.76611 0.30779 0.41187 0.0
H3539 H 0.80407 0.30535 0.32072 0.0
H3540 H 0.80425 0.32513 0.3495 0.0
H3541 H 0.74586 0.31047 0.34279 0.0
H3542 H 0.7456 0.29197 0.31281 0.0
H3543 H 0.78084 0.3119 0.38148 0.0
H3544 H 0.74485 0.34038 0.33646 0.0
H3545 H 0.74006 0.35239 0.30647 0.0
H3546 H 0.79233 0.38871 0.31912 0.0
H3547 H 0.79777 0.37631 0.34884 0.0
C3548 C 0.77302 0.37402 0.44308 0.0
C3549 C 0.78872 0.3877 0.44839 0.0
C3550 C 0.7703 0.36404 0.42557 0.0
C3551 C 0.78313 0.36796 0.41336 0.0
C3552 C 0.79797 0.38263 0.41794 0.0
C3553 C 0.80086 0.39246 0.43558 0.0
C3554 C 0.78176 0.35564 0.39653 0.0
C3555 C 0.77805 0.36177 0.37932 0.0
C3556 C 0.78305 0.33761 0.39759 0.0
C3557 C 0.78876 0.331 0.41541 0.0
C3558 C 0.80494 0.33997 0.42684 0.0
C3559 C 0.81059 0.33326 0.44317 0.0
C3560 C 0.80029 0.31745 0.44814 0.0
C3561 C 0.7843 0.30834 0.4368 0.0
C3562 C 0.77853 0.31505 0.42051 0.0
C3563 C 0.79133 0.30652 0.32545 0.0
C3564 C 0.77479 0.29798 0.31474 0.0
C3565 C 0.79146 0.3177 0.34166 0.0
C3566 C 0.77504 0.31953 0.34745 0.0
C3567 C 0.75851 0.30959 0.33773 0.0
C3568 C 0.75836 0.29909 0.32095 0.0
C3569 C 0.77552 0.33178 0.36399 0.0
C3570 C 0.77958 0.32574 0.38112 0.0
C3571 C 0.77498 0.34995 0.3628 0.0
C3572 C 0.77191 0.35703 0.34466 0.0
C3573 C 0.75554 0.35054 0.33262 0.0
C3574 C 0.75266 0.3575 0.31571 0.0
C3575 C 0.76593 0.37123 0.31083 0.0
C3576 C 0.78212 0.37798 0.32284 0.0
C3577 C 0.78514 0.37093 0.33968 0.0
H3578 H 0.7636 0.37671 0.29781 0.0
H3579 H 0.80474 0.31222 0.46072 0.0
H3580 H 0.40957 0.03331 0.2415 0.0
H3581 H 0.41784 0.03617 0.21031 0.0
H3582 H 0.42285 0.98081 0.20427 0.0
H3583 H 0.41467 0.97772 0.23566 0.0
H3584 H 0.45563 0.01206 0.20983 0.0
H3585 H 0.39486 0.98931 0.17311 0.0
H3586 H 0.36332 0.99262 0.16819 0.0
H3587 H 0.38176 0.04733 0.15759 0.0
H3588 H 0.41343 0.04435 0.16256 0.0
H3589 H 0.48741 0.9783 0.13476 0.0
H3590 H 0.47284 0.98797 0.16018 0.0
H3591 H 0.45844 0.03018 0.13051 0.0
H3592 H 0.46982 0.01802 0.10309 0.0
H3593 H 0.43177 0.01757 0.14475 0.0
H3594 H 0.49299 0.03814 0.17622 0.0
H3595 H 0.52457 0.03632 0.18549 0.0
H3596 H 0.506 0.98829 0.21042 0.0
H3597 H 0.47442 0.98983 0.20137 0.0
C3598 C 0.41218 0.02163 0.23344 0.0
C3599 C 0.41234 0.00551 0.24118 0.0
C3600 C 0.41647 0.02322 0.21552 0.0
C3601 C 0.42094 0.00874 0.20531 0.0
C3602 C 0.41929 0.99204 0.21218 0.0
C3603 C 0.41498 0.99041 0.23013 0.0
C3604 C 0.43223 0.01239 0.19066 0.0
C3605 C 0.45055 0.01317 0.19549 0.0
C3606 C 0.42554 0.01535 0.1727 0.0
C3607 C 0.40649 0.01659 0.16813 0.0
C3608 C 0.39217 0.002 0.16962 0.0
C3609 C 0.37428 0.00383 0.16687 0.0
C3610 C 0.37054 0.02018 0.16257 0.0
C3611 C 0.38468 0.03466 0.16086 0.0
C3612 C 0.4026 0.03289 0.16356 0.0
C3613 C 0.48093 0.98944 0.13331 0.0
C3614 C 0.47939 0.99684 0.11646 0.0
C3615 C 0.47317 0.99554 0.14836 0.0
C3616 C 0.46511 0.01037 0.14774 0.0
C3617 C 0.46471 0.01881 0.13144 0.0
C3618 C 0.47153 0.01194 0.11581 0.0
C3619 C 0.45528 0.01522 0.16328 0.0
C3620 C 0.43722 0.01678 0.15902 0.0
C3621 C 0.46228 0.01466 0.18211 0.0
C3622 C 0.48136 0.01415 0.18811 0.0
C3623 C 0.49567 0.02723 0.1837 0.0
C3624 C 0.51357 0.02624 0.18893 0.0
C3625 C 0.51729 0.0122 0.19852 0.0
C3626 C 0.50313 0.9992 0.20306 0.0
C3627 C 0.48524 1.0002 0.198 0.0
H3628 H 0.53114 0.01138 0.20243 0.0
H3629 H 0.3567 0.02162 0.16059 0.0
H3630 H 0.76376 0.72588 0.96174 0.0
H3631 H 0.76625 0.73376 0.93021 0.0
H3632 H 0.77829 0.68233 0.91343 0.0
H3633 H 0.77631 0.67453 0.94534 0.0
H3634 H 0.79909 0.7085 0.89855 0.0
H3635 H 0.73495 0.69018 0.90053 0.0
H3636 H 0.70639 0.6902 0.91348 0.0
H3637 H 0.71351 0.74691 0.90968 0.0
H3638 H 0.74214 0.74723 0.89679 0.0
H3639 H 0.78855 0.72481 0.8025 0.0
H3640 H 0.7863 0.71146 0.83173 0.0
H3641 H 0.76762 0.75699 0.85582 0.0
H3642 H 0.76818 0.76937 0.82635 0.0
H3643 H 0.74869 0.72944 0.86531 0.0
H3644 H 0.81363 0.7491 0.86645 0.0
H3645 H 0.84253 0.75013 0.8539 0.0
H3646 H 0.83459 0.69265 0.85253 0.0
H3647 H 0.80556 0.69128 0.86494 0.0
C3648 C 0.76712 0.71629 0.95142 0.0
C3649 C 0.76983 0.69956 0.95608 0.0
C3650 C 0.76837 0.72075 0.9333 0.0
C3651 C 0.772 0.70847 0.91924 0.0
C3652 C 0.77535 0.69199 0.92399 0.0
C3653 C 0.77431 0.68758 0.94225 0.0
C3654 C 0.77236 0.71304 0.89971 0.0
C3655 C 0.78795 0.71281 0.89115 0.0
C3656 C 0.75796 0.71893 0.89008 0.0
C3657 C 0.74073 0.71874 0.8978 0.0
C3658 C 0.73046 0.70266 0.90255 0.0
C3659 C 0.71425 0.70261 0.90984 0.0
C3660 C 0.70815 0.71855 0.91243 0.0
C3661 C 0.71823 0.73457 0.90767 0.0
C3662 C 0.73442 0.73468 0.90032 0.0
C3663 C 0.78409 0.73201 0.8141 0.0
C3664 C 0.77908 0.74847 0.81217 0.0
C3665 C 0.7829 0.72441 0.83089 0.0
C3666 C 0.77714 0.73334 0.84628 0.0
C3667 C 0.7722 0.74978 0.8443 0.0
C3668 C 0.77289 0.75709 0.82745 0.0
C3669 C 0.77574 0.72561 0.86437 0.0
C3670 C 0.75984 0.72507 0.87261 0.0
C3671 C 0.78993 0.71924 0.87378 0.0
C3672 C 0.8074 0.72007 0.86646 0.0
C3673 C 0.81803 0.73668 0.86339 0.0
C3674 C 0.83443 0.73732 0.85632 0.0
C3675 C 0.84038 0.72146 0.85239 0.0
C3676 C 0.82996 0.70492 0.85557 0.0
C3677 C 0.81355 0.70421 0.86264 0.0
H3678 H 0.85308 0.72198 0.8469 0.0
H3679 H 0.69561 0.71849 0.9181 0.0
H3680 H 0.79824 0.08015 0.00581 0.0
H3681 H 0.82583 0.06896 0.00909 0.0
H3682 H 0.84039 0.09675 0.06551 0.0
H3683 H 0.81305 0.10841 0.06221 0.0
H3684 H 0.86744 0.10288 0.04236 0.0
H3685 H 0.82755 0.05238 0.06136 0.0
H3686 H 0.79734 0.03185 0.05725 0.0
H3687 H 0.80517 0.0109 0.00223 0.0
H3688 H 0.83535 0.03144 0.00592 0.0
H3689 H 0.94238 0.06237 0.03046 0.0
H3690 H 0.91748 0.06953 0.0463 0.0
H3691 H 0.88027 0.0481 0.99581 0.0
H3692 H 0.90507 0.0413 0.97988 0.0
H3693 H 0.86657 0.0378 0.02783 0.0
H3694 H 0.89638 0.09083 0.00261 0.0
H3695 H 0.92051 0.11654 -0.00186 0.0
H3696 H 0.92785 0.13559 0.05693 0.0
H3697 H 0.90359 0.11003 0.06172 0.0
C3698 C 0.80722 0.08365 0.01895 0.0
C3699 C 0.80369 0.09505 0.0337 0.0
C3700 C 0.82285 0.07726 0.02085 0.0
C3701 C 0.83474 0.08185 0.03769 0.0
C3702 C 0.83115 0.09304 0.05255 0.0
C3703 C 0.81562 0.09963 0.05059 0.0
C3704 C 0.85146 0.07564 0.03907 0.0
C3705 C 0.86756 0.08865 0.04002 0.0
C3706 C 0.85108 0.0571 0.03548 0.0
C3707 C 0.83385 0.04327 0.03404 0.0
C3708 C 0.82293 0.04322 0.04848 0.0
C3709 C 0.80576 0.03166 0.04618 0.0
C3710 C 0.79937 0.02003 0.02952 0.0
C3711 C 0.81019 0.01983 0.01518 0.0
C3712 C 0.82738 0.03136 0.01741 0.0
C3713 C 0.92881 0.0591 0.02288 0.0
C3714 C 0.92551 0.05172 0.0039 0.0
C3715 C 0.91472 0.06314 0.0319 0.0
C3716 C 0.89723 0.05931 0.02211 0.0
C3717 C 0.89378 0.0511 0.00348 0.0
C3718 C 0.9079 0.04744 0.99436 0.0
C3719 C 0.88257 0.06511 0.03053 0.0
C3720 C 0.86683 0.05199 0.03142 0.0
C3721 C 0.88311 0.08364 0.03522 0.0
C3722 C 0.89856 0.09823 0.03262 0.0
C3723 C 0.90337 0.1003 0.01465 0.0
C3724 C 0.91695 0.11494 0.01202 0.0
C3725 C 0.92589 0.12755 0.02728 0.0
C3726 C 0.92108 0.12568 0.04516 0.0
C3727 C 0.90739 0.11115 0.04784 0.0
H3728 H 0.93643 0.13885 0.02521 0.0
H3729 H 0.78601 0.0112 0.0277 0.0
H3730 H 0.35678 0.39454 0.04702 0.0
H3731 H 0.38423 0.41634 0.04449 0.0
H3732 H 0.35276 0.45031 0.019 0.0
H3733 H 0.32475 0.42787 0.02096 0.0
H3734 H 0.3814 0.44451 -0.00035 0.0
H3735 H 0.37427 0.46311 0.06417 0.0
H3736 H 0.36843 0.45671 0.09593 0.0
H3737 H 0.41448 0.43293 0.10168 0.0
H3738 H 0.42053 0.43909 0.06993 0.0
H3739 H 0.46262 0.51184 0.0023 0.0
H3740 H 0.43199 0.49548 0.00501 0.0
H3741 H 0.45396 0.46037 0.03948 0.0
H3742 H 0.48445 0.47736 0.03789 0.0
H3743 H 0.42825 0.46976 0.05437 0.0
H3744 H 0.43523 0.44707 0.99228 0.0
H3745 H 0.44151 0.44827 0.95967 0.0
H3746 H 0.39758 0.47407 0.94817 0.0
H3747 H 0.39105 0.4731 0.98073 0.0
C3748 C 0.35558 0.40672 0.04105 0.0
C3749 C 0.3386 0.40949 0.03414 0.0
C3750 C 0.37133 0.41923 0.0397 0.0
C3751 C 0.37053 0.43502 0.03175 0.0
C3752 C 0.3536 0.43819 0.02526 0.0
C3753 C 0.33766 0.42551 0.02656 0.0
C3754 C 0.38761 0.44762 0.02971 0.0
C3755 C 0.39153 0.45047 0.01161 0.0
C3756 C 0.40105 0.45461 0.04528 0.0
C3757 C 0.39784 0.45158 0.06468 0.0
C3758 C 0.38316 0.45654 0.07222 0.0
C3759 C 0.3798 0.45294 0.09021 0.0
C3760 C 0.39108 0.44442 0.10081 0.0
C3761 C 0.40579 0.43957 0.09348 0.0
C3762 C 0.40922 0.44317 0.07552 0.0
C3763 C 0.4609 0.50087 0.01078 0.0
C3764 C 0.47594 0.49616 0.02022 0.0
C3765 C 0.44339 0.49132 0.01203 0.0
C3766 C 0.44067 0.47662 0.02235 0.0
C3767 C 0.45571 0.47174 0.03153 0.0
C3768 C 0.47315 0.48145 0.03056 0.0
C3769 C 0.42221 0.46664 0.02426 0.0
C3770 C 0.41807 0.46419 0.04236 0.0
C3771 C 0.40882 0.45955 0.00862 0.0
C3772 C 0.4128 0.46024 0.98904 0.0
C3773 C 0.42701 0.45316 0.98286 0.0
C3774 C 0.4306 0.45376 0.96438 0.0
C3775 C 0.42004 0.46135 0.95191 0.0
C3776 C 0.40579 0.46825 0.95787 0.0
C3777 C 0.40211 0.46765 0.97632 0.0
H3778 H 0.42286 0.46182 0.93762 0.0
H3779 H 0.38841 0.44158 0.11471 0.0
H3780 H 0.35728 0.53842 0.75453 0.0
H3781 H 0.3459 0.566 0.75437 0.0
H3782 H 0.4004 0.59773 0.75823 0.0
H3783 H 0.41193 0.57016 0.75807 0.0
H3784 H 0.37932 0.61017 0.7849 0.0
H3785 H 0.37577 0.59519 0.71858 0.0
H3786 H 0.36772 0.57557 0.68827 0.0
H3787 H 0.31149 0.56637 0.69512 0.0
H3788 H 0.31922 0.58586 0.72555 0.0
H3789 H 0.35007 0.69051 0.78149 0.0
H3790 H 0.36489 0.66669 0.77066 0.0
H3791 H 0.31309 0.62881 0.75903 0.0
H3792 H 0.29826 0.65281 0.76951 0.0
H3793 H 0.33536 0.62108 0.7341 0.0
H3794 H 0.33852 0.63383 0.80091 0.0
H3795 H 0.34583 0.65273 0.83163 0.0
H3796 H 0.40213 0.6648 0.8249 0.0
H3797 H 0.3951 0.64622 0.79394 0.0
C3798 C 0.36686 0.55124 0.75525 0.0
C3799 C 0.38552 0.55206 0.75631 0.0
C3800 C 0.36032 0.56698 0.75504 0.0
C3801 C 0.37229 0.58389 0.75613 0.0
C3802 C 0.39093 0.58481 0.75728 0.0
C3803 C 0.39748 0.56903 0.75718 0.0
C3804 C 0.3653 0.60061 0.75709 0.0
C3805 C 0.37001 0.61278 0.77364 0.0
C3806 C 0.35281 0.60374 0.74258 0.0
C3807 C 0.34809 0.59185 0.72441 0.0
C3808 C 0.3617 0.58885 0.7137 0.0
C3809 C 0.35719 0.5778 0.69647 0.0
C3810 C 0.3391 0.56969 0.6898 0.0
C3811 C 0.32549 0.57265 0.70032 0.0
C3812 C 0.32992 0.58373 0.71753 0.0
C3813 C 0.34182 0.6773 0.77582 0.0
C3814 C 0.32304 0.67349 0.77603 0.0
C3815 C 0.35029 0.66364 0.76986 0.0
C3816 C 0.34014 0.64587 0.76438 0.0
C3817 C 0.3212 0.6424 0.76319 0.0
C3818 C 0.31271 0.65611 0.76907 0.0
C3819 C 0.3493 0.63062 0.76197 0.0
C3820 C 0.3449 0.61865 0.74523 0.0
C3821 C 0.36199 0.62756 0.77641 0.0
C3822 C 0.36625 0.63882 0.79499 0.0
C3823 C 0.35244 0.64065 0.80589 0.0
C3824 C 0.35653 0.65129 0.82336 0.0
C3825 C 0.37443 0.66001 0.83019 0.0
C3826 C 0.38827 0.65808 0.81957 0.0
C3827 C 0.38423 0.6475 0.80205 0.0
H3828 H 0.37758 0.66821 0.84373 0.0
H3829 H 0.33564 0.56114 0.67646 0.0
H3830 H 0.217 0.58603 0.56445 0.0
H3831 H 0.1863 0.56773 0.55265 0.0
H3832 H 0.18362 0.59884 0.50634 0.0
H3833 H 0.21339 0.61715 0.51817 0.0
H3834 H 0.15909 0.60142 0.53364 0.0
H3835 H 0.18047 0.55832 0.49283 0.0
H3836 H 0.19893 0.5362 0.48607 0.0
H3837 H 0.17508 0.50426 0.52624 0.0
H3838 H 0.15656 0.52624 0.53326 0.0
H3839 H 0.06693 0.56281 0.50139 0.0
H3840 H 0.09906 0.57499 0.50157 0.0
H3841 H 0.11102 0.53428 0.53511 0.0
H3842 H 0.07917 0.52069 0.53281 0.0
H3843 H 0.13137 0.53717 0.50996 0.0
H3844 H 0.11154 0.57995 0.55316 0.0
H3845 H 0.09417 0.60235 0.56255 0.0
H3846 H 0.11575 0.63542 0.52217 0.0
H3847 H 0.13307 0.61311 0.51239 0.0
C3848 C 0.20986 0.58855 0.55159 0.0
C3849 C 0.21715 0.60296 0.54226 0.0
C3850 C 0.19263 0.57809 0.54479 0.0
C3851 C 0.18309 0.58214 0.5287 0.0
C3852 C 0.19105 0.5956 0.51868 0.0
C3853 C 0.20796 0.60606 0.52552 0.0
C3854 C 0.16376 0.57526 0.52451 0.0
C3855 C 0.15287 0.58742 0.52826 0.0
C3856 C 0.15613 0.55707 0.51782 0.0
C3857 C 0.1673 0.54396 0.51367 0.0
C3858 C 0.1793 0.54664 0.5003 0.0
C3859 C 0.18972 0.53411 0.49639 0.0
C3860 C 0.18822 0.51886 0.50576 0.0
C3861 C 0.17624 0.51607 0.519 0.0
C3862 C 0.16576 0.52853 0.52292 0.0
C3863 C 0.07641 0.55605 0.50808 0.0
C3864 C 0.0706 0.54055 0.51658 0.0
C3865 C 0.09471 0.56327 0.50858 0.0
C3866 C 0.10723 0.55556 0.51848 0.0
C3867 C 0.10144 0.54025 0.52723 0.0
C3868 C 0.08325 0.53256 0.52596 0.0
C3869 C 0.12649 0.56314 0.51978 0.0
C3870 C 0.13745 0.55121 0.51527 0.0
C3871 C 0.13418 0.58154 0.52623 0.0
C3872 C 0.12341 0.59473 0.53187 0.0
C3873 C 0.11243 0.5919 0.54615 0.0
C3874 C 0.10263 0.60461 0.55157 0.0
C3875 C 0.10381 0.62026 0.54292 0.0
C3876 C 0.11481 0.62326 0.52883 0.0
C3877 C 0.12461 0.6106 0.52335 0.0
H3878 H 0.09624 0.6301 0.54716 0.0
H3879 H 0.19632 0.50918 0.50272 0.0
H3880 H 0.7263 0.00675 0.76537 0.0
H3881 H 0.73688 0.97874 0.76532 0.0
H3882 H 0.69171 0.95159 0.72384 0.0
H3883 H 0.68104 0.97934 0.72368 0.0
H3884 H 0.69611 0.93491 0.75691 0.0
H3885 H 0.73006 0.95887 0.7092 0.0
H3886 H 0.7492 0.98483 0.69802 0.0
H3887 H 0.79057 0.98792 0.74421 0.0
H3888 H 0.77154 0.96208 0.75579 0.0
H3889 H 0.72392 0.8541 0.75733 0.0
H3890 H 0.71625 0.87917 0.74192 0.0
H3891 H 0.76191 0.91614 0.77583 0.0
H3892 H 0.76965 0.89106 0.79093 0.0
H3893 H 0.75582 0.92656 0.74154 0.0
H3894 H 0.72238 0.90637 0.79129 0.0
H3895 H 0.70265 0.88422 0.80687 0.0
H3896 H 0.65983 0.87766 0.76134 0.0
H3897 H 0.67948 0.89939 0.7452 0.0
C3898 C 0.71884 0.9949 0.75601 0.0
C3899 C 0.70284 0.99511 0.74466 0.0
C3900 C 0.72485 0.979 0.75601 0.0
C3901 C 0.71495 0.96334 0.74456 0.0
C3902 C 0.69938 0.96367 0.73273 0.0
C3903 C 0.6934 0.97952 0.73266 0.0
C3904 C 0.72036 0.94631 0.74571 0.0
C3905 C 0.70892 0.93277 0.75311 0.0
C3906 C 0.73726 0.9441 0.74115 0.0
C3907 C 0.74944 0.95847 0.73329 0.0
C3908 C 0.7433 0.965 0.71689 0.0
C3909 C 0.75409 0.97974 0.71052 0.0
C3910 C 0.77111 0.988 0.72038 0.0
C3911 C 0.77741 0.98145 0.73655 0.0
C3912 C 0.76666 0.96671 0.74298 0.0
C3913 C 0.73238 0.86758 0.76115 0.0
C3914 C 0.74695 0.87106 0.77552 0.0
C3915 C 0.72814 0.88176 0.75231 0.0
C3916 C 0.7384 0.89943 0.75802 0.0
C3917 C 0.75386 0.90257 0.77132 0.0
C3918 C 0.7581 0.8884 0.7801 0.0
C3919 C 0.73148 0.9149 0.75268 0.0
C3920 C 0.74271 0.92832 0.74472 0.0
C3921 C 0.71441 0.91717 0.75704 0.0
C3922 C 0.70254 0.90421 0.76684 0.0
C3923 C 0.70883 0.90004 0.78448 0.0
C3924 C 0.69766 0.88758 0.79342 0.0
C3925 C 0.68006 0.87945 0.78502 0.0
C3926 C 0.67352 0.88387 0.76775 0.0
C3927 C 0.68469 0.89622 0.75867 0.0
H3928 H 0.67147 0.86975 0.79189 0.0
H3929 H 0.7794 0.99949 0.71551 0.0
H3930 H 0.73409 0.8956 0.54386 0.0
H3931 H 0.7086 0.91004 0.54678 0.0
H3932 H 0.71983 0.93604 0.49789 0.0
H3933 H 0.74522 0.92178 0.4949 0.0
H3934 H 0.71528 0.95955 0.5267 0.0
H3935 H 0.68529 0.89926 0.49645 0.0
H3936 H 0.67564 0.8661 0.4938 0.0
H3937 H 0.65006 0.87059 0.54345 0.0
H3938 H 0.65984 0.9038 0.54658 0.0
H3939 H 0.64038 0.98406 0.4828 0.0
H3940 H 0.66614 0.97224 0.49418 0.0
H3941 H 0.63809 0.95182 0.53888 0.0
H3942 H 0.61192 0.96348 0.52716 0.0
H3943 H 0.65125 0.92635 0.52139 0.0
H3944 H 0.67755 0.98683 0.54892 0.0
H3945 H 0.68659 0.02001 0.55094 0.0
H3946 H 0.71857 0.01521 0.50627 0.0
H3947 H 0.70962 0.98203 0.50388 0.0
C3948 C 0.73112 0.90439 0.53372 0.0
C3949 C 0.74175 0.90757 0.51915 0.0
C3950 C 0.71649 0.91256 0.53538 0.0
C3951 C 0.71227 0.92409 0.52253 0.0
C3952 C 0.72286 0.92723 0.508 0.0
C3953 C 0.73737 0.91903 0.50628 0.0
C3954 C 0.6972 0.93339 0.52419 0.0
C3955 C 0.70126 0.95229 0.52549 0.0
C3956 C 0.67898 0.92398 0.52354 0.0
C3957 C 0.6736 0.90401 0.52195 0.0
C3958 C 0.67786 0.89318 0.50697 0.0
C3959 C 0.6723 0.87437 0.50534 0.0
C3960 C 0.66232 0.86624 0.5185 0.0
C3961 C 0.65786 0.8769 0.53331 0.0
C3962 C 0.66342 0.89572 0.53503 0.0
C3963 C 0.63978 0.97724 0.49519 0.0
C3964 C 0.62413 0.97457 0.50402 0.0
C3965 C 0.65461 0.97064 0.50183 0.0
C3966 C 0.65421 0.9613 0.51756 0.0
C3967 C 0.63877 0.95908 0.5268 0.0
C3968 C 0.62388 0.9658 0.52017 0.0
C3969 C 0.66928 0.95248 0.5229 0.0
C3970 C 0.66528 0.93369 0.52307 0.0
C3971 C 0.68759 0.96196 0.52492 0.0
C3972 C 0.69285 0.98194 0.52619 0.0
C3973 C 0.68641 0.99285 0.53945 0.0
C3974 C 0.69156 0.01167 0.54068 0.0
C3975 C 0.70313 0.01972 0.52873 0.0
C3976 C 0.70962 0.00897 0.51553 0.0
C3977 C 0.70455 0.99016 0.51427 0.0
H3978 H 0.70709 0.03428 0.5297 0.0
H3979 H 0.65799 0.85168 0.51718 0.0
H3980 H 0.40643 0.43995 0.73909 0.0
H3981 H 0.38504 0.41236 0.74158 0.0
H3982 H 0.34681 0.44285 0.75862 0.0
H3983 H 0.3689 0.47121 0.75694 0.0
H3984 H 0.35093 0.41572 0.78095 0.0
H3985 H 0.33971 0.41905 0.71415 0.0
H3986 H 0.35036 0.42406 0.68375 0.0
H3987 H 0.37681 0.38 0.6864 0.0
H3988 H 0.36641 0.3748 0.71686 0.0
H3989 H 0.28667 0.33346 0.77837 0.0
H3990 H 0.30251 0.36369 0.77459 0.0
H3991 H 0.33989 0.34136 0.74406 0.0
H3992 H 0.32262 0.31095 0.74578 0.0
H3993 H 0.33339 0.36632 0.72781 0.0
H3994 H 0.34861 0.36312 0.79328 0.0
H3995 H 0.34315 0.3585 0.82557 0.0
H3996 H 0.315 0.40144 0.82799 0.0
H3997 H 0.32007 0.40617 0.79563 0.0
C3998 C 0.39345 0.44097 0.74325 0.0
C3999 C 0.38941 0.45786 0.74787 0.0
C4000 C 0.38116 0.42507 0.74456 0.0
C4001 C 0.36423 0.4255 0.75001 0.0
C4002 C 0.35982 0.44227 0.75429 0.0
C4003 C 0.37234 0.45841 0.75316 0.0
C4004 C 0.35165 0.40821 0.75165 0.0
C4005 C 0.34666 0.40499 0.76928 0.0
C4006 C 0.34686 0.39403 0.73658 0.0
C4007 C 0.35224 0.39652 0.71776 0.0
C4008 C 0.34774 0.4104 0.70821 0.0
C4009 C 0.35376 0.41329 0.69099 0.0
C4010 C 0.36425 0.40235 0.68315 0.0
C4011 C 0.36864 0.38843 0.69246 0.0
C4012 C 0.36263 0.38545 0.70966 0.0
C4013 C 0.29787 0.33491 0.77028 0.0
C4014 C 0.30293 0.31969 0.7618 0.0
C4015 C 0.30729 0.35231 0.76859 0.0
C4016 C 0.32264 0.35497 0.75928 0.0
C4017 C 0.32802 0.33977 0.75121 0.0
C4018 C 0.31816 0.32234 0.75226 0.0
C4019 C 0.33273 0.37351 0.75729 0.0
C4020 C 0.33731 0.37699 0.73955 0.0
C4021 C 0.33762 0.38773 0.77245 0.0
C4022 C 0.33455 0.38486 0.79193 0.0
C4023 C 0.34114 0.37149 0.80064 0.0
C4024 C 0.33813 0.36886 0.81897 0.0
C4025 C 0.32869 0.37963 0.8288 0.0
C4026 C 0.32228 0.39309 0.82035 0.0
C4027 C 0.32523 0.39575 0.80202 0.0
H4028 H 0.32638 0.37758 0.84298 0.0
H4029 H 0.36898 0.40468 0.66986 0.0
H4030 H 0.22248 0.57745 0.26161 0.0
H4031 H 0.23742 0.60962 0.26551 0.0
H4032 H 0.18632 0.62251 0.24778 0.0
H4033 H 0.17146 0.59065 0.24365 0.0
H4034 H 0.21404 0.63894 0.23067 0.0
H4035 H 0.19969 0.62825 0.29143 0.0
H4036 H 0.19897 0.61345 0.32009 0.0
H4037 H 0.25688 0.62962 0.33186 0.0
H4038 H 0.25797 0.64423 0.30303 0.0
H4039 H 0.23166 0.73171 0.26419 0.0
H4040 H 0.21882 0.69933 0.26121 0.0
H4041 H 0.27243 0.68961 0.27189 0.0
H4042 H 0.28551 0.72217 0.27458 0.0
H4043 H 0.24425 0.67158 0.29262 0.0
H4044 H 0.25595 0.67839 0.22686 0.0
H4045 H 0.25321 0.68949 0.1961 0.0
H4046 H 0.19579 0.68125 0.19521 0.0
H4047 H 0.19808 0.66948 0.22567 0.0
C4048 C 0.2146 0.58723 0.25842 0.0
C4049 C 0.19594 0.58195 0.25266 0.0
C4050 C 0.22302 0.6054 0.26077 0.0
C4051 C 0.21272 0.61805 0.2572 0.0
C4052 C 0.19424 0.61269 0.25074 0.0
C4053 C 0.18584 0.59464 0.2485 0.0
C4054 C 0.22116 0.63704 0.25991 0.0
C4055 C 0.22056 0.64616 0.24422 0.0
C4056 C 0.22953 0.64605 0.27765 0.0
C4057 C 0.22894 0.63709 0.2949 0.0
C4058 C 0.2123 0.62844 0.29998 0.0
C4059 C 0.21181 0.62012 0.31629 0.0
C4060 C 0.22788 0.62052 0.32775 0.0
C4061 C 0.24445 0.62927 0.32293 0.0
C4062 C 0.24501 0.63756 0.3066 0.0
C4063 C 0.24066 0.72267 0.26629 0.0
C4064 C 0.25948 0.72905 0.26957 0.0
C4065 C 0.23335 0.70433 0.26435 0.0
C4066 C 0.24487 0.6925 0.26597 0.0
C4067 C 0.26359 0.69887 0.27037 0.0
C4068 C 0.27095 0.71723 0.272 0.0
C4069 C 0.23724 0.67336 0.26333 0.0
C4070 C 0.23788 0.66425 0.27907 0.0
C4071 C 0.22837 0.66442 0.24575 0.0
C4072 C 0.22724 0.67342 0.22866 0.0
C4073 C 0.2428 0.67929 0.22026 0.0
C4074 C 0.24131 0.68557 0.20282 0.0
C4075 C 0.22441 0.68637 0.19383 0.0
C4076 C 0.2089 0.68077 0.20224 0.0
C4077 C 0.21026 0.6742 0.21953 0.0
H4078 H 0.22332 0.69116 0.18029 0.0
H4079 H 0.22748 0.6141 0.34039 0.0
H4080 H 0.52903 0.71804 0.45941 0.0
H4081 H 0.5355 0.69061 0.47073 0.0
H4082 H 0.47826 0.66825 0.46801 0.0
H4083 H 0.47203 0.69621 0.45836 0.0
H4084 H 0.49093 0.65756 0.49546 0.0
H4085 H 0.51131 0.6556 0.43474 0.0
H4086 H 0.52916 0.66715 0.41036 0.0
H4087 H 0.57838 0.67085 0.4469 0.0
H4088 H 0.5608 0.6595 0.47158 0.0
H4089 H 0.49406 0.56482 0.49601 0.0
H4090 H 0.49056 0.59399 0.48722 0.0
H4091 H 0.54743 0.61632 0.50456 0.0
H4092 H 0.55102 0.58702 0.51338 0.0
H4093 H 0.53669 0.62746 0.47129 0.0
H4094 H 0.5149 0.62766 0.53126 0.0
H4095 H 0.49614 0.61575 0.55482 0.0
H4096 H 0.44794 0.61392 0.51742 0.0
H4097 H 0.46643 0.62575 0.49361 0.0
C4098 C 0.51784 0.70724 0.46118 0.0
C4099 C 0.49997 0.70947 0.45786 0.0
C4100 C 0.52152 0.6913 0.46754 0.0
C4101 C 0.50744 0.67666 0.47001 0.0
C4102 C 0.48959 0.679 0.46647 0.0
C4103 C 0.48597 0.69511 0.46077 0.0
C4104 C 0.511 0.65915 0.47655 0.0
C4105 C 0.50077 0.65098 0.4898 0.0
C4106 C 0.52416 0.65027 0.46993 0.0
C4107 C 0.53474 0.65686 0.45505 0.0
C4108 C 0.52594 0.65894 0.43759 0.0
C4109 C 0.53601 0.66545 0.42372 0.0
C4110 C 0.55489 0.66977 0.4271 0.0
C4111 C 0.56375 0.66752 0.44432 0.0
C4112 C 0.55374 0.66104 0.45824 0.0
C4113 C 0.50592 0.57587 0.49806 0.0
C4114 C 0.52289 0.57324 0.50559 0.0
C4115 C 0.50384 0.59275 0.49306 0.0
C4116 C 0.51865 0.60775 0.49529 0.0
C4117 C 0.53566 0.60517 0.50265 0.0
C4118 C 0.53772 0.58828 0.50783 0.0
C4119 C 0.51633 0.62588 0.48973 0.0
C4120 C 0.52682 0.63413 0.47678 0.0
C4121 C 0.50319 0.63468 0.49635 0.0
C4122 C 0.49205 0.62746 0.5106 0.0
C4123 C 0.50031 0.62461 0.52802 0.0
C4124 C 0.48972 0.61791 0.54143 0.0
C4125 C 0.47086 0.61405 0.53761 0.0
C4126 C 0.46255 0.61692 0.52037 0.0
C4127 C 0.47307 0.62366 0.50693 0.0
H4128 H 0.46269 0.60886 0.548 0.0
H4129 H 0.56266 0.67483 0.41635 0.0
H4130 H 0.5851 0.28142 0.65872 0.0
H4131 H 0.61031 0.2802 0.68245 0.0
H4132 H 0.64815 0.29756 0.64435 0.0
H4133 H 0.62329 0.29858 0.62075 0.0
H4134 H 0.65621 0.26995 0.65846 0.0
H4135 H 0.64239 0.32507 0.6845 0.0
H4136 H 0.62381 0.3446 0.69773 0.0
H4137 H 0.61519 0.31191 0.74216 0.0
H4138 H 0.6335 0.29201 0.72902 0.0
H4139 H 0.74061 0.29612 0.71928 0.0
H4140 H 0.71311 0.29664 0.69868 0.0
H4141 H 0.6805 0.26871 0.73621 0.0
H4142 H 0.70786 0.26699 0.75618 0.0
H4143 H 0.66851 0.29985 0.72407 0.0
H4144 H 0.6808 0.24442 0.69802 0.0
H4145 H 0.69802 0.2236 0.68454 0.0
H4146 H 0.70914 0.25662 0.64077 0.0
H4147 H 0.69184 0.27758 0.65395 0.0
C4148 C 0.59881 0.28521 0.6555 0.0
C4149 C 0.60202 0.29005 0.63768 0.0
C4150 C 0.61328 0.28453 0.66913 0.0
C4151 C 0.63133 0.2888 0.66534 0.0
C4152 C 0.63448 0.29407 0.64774 0.0
C4153 C 0.62013 0.29471 0.63419 0.0
C4154 C 0.647 0.28699 0.67903 0.0
C4155 C 0.65895 0.27675 0.67272 0.0
C4156 C 0.65045 0.29521 0.69796 0.0
C4157 C 0.63908 0.30689 0.7056 0.0
C4158 C 0.63634 0.32191 0.69695 0.0
C4159 C 0.6259 0.33308 0.70447 0.0
C4160 C 0.61826 0.32946 0.72073 0.0
C4161 C 0.62106 0.31466 0.72953 0.0
C4162 C 0.63146 0.30343 0.72205 0.0
C4163 C 0.72763 0.29003 0.72321 0.0
C4164 C 0.72667 0.28177 0.73974 0.0
C4165 C 0.71186 0.29034 0.71135 0.0
C4166 C 0.69463 0.28277 0.71585 0.0
C4167 C 0.69357 0.27479 0.73245 0.0
C4168 C 0.70934 0.27404 0.74405 0.0
C4169 C 0.67781 0.28324 0.70324 0.0
C4170 C 0.66568 0.29312 0.70979 0.0
C4171 C 0.6741 0.27467 0.68452 0.0
C4172 C 0.68526 0.26267 0.6771 0.0
C4173 C 0.6871 0.24735 0.68565 0.0
C4174 C 0.69674 0.23545 0.67798 0.0
C4175 C 0.70473 0.23882 0.66184 0.0
C4176 C 0.70299 0.25405 0.65329 0.0
C4177 C 0.69322 0.26591 0.66081 0.0
H4178 H 0.71224 0.22962 0.65596 0.0
H4179 H 0.61022 0.33815 0.72655 0.0
H4180 H 0.9868 0.30846 0.98312 0.0
H4181 H 0.99034 0.34085 0.99168 0.0
H4182 H 0.02436 0.35156 0.94855 0.0
H4183 H 0.02102 0.31895 0.94 0.0
H4184 H 0.03759 0.37571 0.97831 0.0
H4185 H 0.979 0.35511 0.94338 0.0
H4186 H 0.9482 0.33607 0.93473 0.0
H4187 H 0.93442 0.35316 0.98851 0.0
H4188 H 0.96527 0.37214 -0.00239 0.0
H4189 H 0.03385 0.46809 0.97887 0.0
H4190 H 0.03118 0.43583 0.97051 0.0
H4191 H 0.99533 0.42427 0.01192 0.0
H4192 H 0.99778 0.45665 0.02018 0.0
H4193 H 0.98303 0.40039 0.98276 0.0
H4194 H 0.04328 0.42123 0.0171 0.0
H4195 H 0.07479 0.43905 0.02451 0.0
H4196 H 0.08535 0.4214 0.96948 0.0
H4197 H 0.05392 0.4036 0.96169 0.0
C4198 C 0.99521 0.31762 0.97549 0.0
C4199 C 0.00359 0.31082 0.96077 0.0
C4200 C 0.99709 0.3363 0.98033 0.0
C4201 C 0.00732 0.34896 0.97059 0.0
C4202 C 0.01628 0.34227 0.95633 0.0
C4203 C 0.0144 0.32351 0.95145 0.0
C4204 C 0.00855 0.36903 0.97525 0.0
C4205 C 0.0256 0.38107 0.97902 0.0
C4206 C 0.99304 0.37634 0.97659 0.0
C4207 C 0.9745 0.36491 0.97124 0.0
C4208 C 0.96945 0.3547 0.95343 0.0
C4209 C 0.95197 0.34394 0.94843 0.0
C4210 C 0.93936 0.34338 0.96107 0.0
C4211 C 0.94421 0.3536 0.97874 0.0
C4212 C 0.96169 0.36437 0.98382 0.0
C4213 C 0.02534 0.45877 0.98626 0.0
C4214 C 0.01597 0.4653 0.00023 0.0
C4215 C 0.02394 0.44014 0.98152 0.0
C4216 C 0.01333 0.42723 0.99075 0.0
C4217 C 0.00368 0.43369 0.00448 0.0
C4218 C 0.00501 0.45238 0.00917 0.0
C4219 C 0.01214 0.40715 0.98593 0.0
C4220 C 0.99504 0.39506 0.98212 0.0
C4221 C 0.02762 0.39983 0.98435 0.0
C4222 C 0.04624 0.41117 0.98879 0.0
C4223 C 0.05228 0.4213 0.00653 0.0
C4224 C 0.07013 0.43135 0.01081 0.0
C4225 C 0.08204 0.43126 -0.00252 0.0
C4226 C 0.07611 0.42137 0.97979 0.0
C4227 C 0.0583 0.4113 0.97545 0.0
H4228 H 0.0959 0.43874 0.00085 0.0
H4229 H 0.92583 0.33505 0.95716 0.0
H4230 H 0.99031 0.7828 0.11954 0.0
H4231 H 0.96249 0.78033 0.13424 0.0
H4232 H 0.99308 0.78114 0.1881 0.0
H4233 H 0.02082 0.78388 0.17365 0.0
H4234 H 0.96143 0.75364 0.18072 0.0
H4235 H 0.98031 0.8175 0.17799 0.0
H4236 H 0.98896 0.84417 0.16168 0.0
H4237 H 0.93668 0.83086 0.12845 0.0
H4238 H 0.92782 0.80387 0.14434 0.0
H4239 H 0.90396 0.7645 0.24589 0.0
H4240 H 0.92936 0.77422 0.22858 0.0
H4241 H 0.89204 0.77264 0.17897 0.0
H4242 H 0.86651 0.76302 0.19645 0.0
H4243 H 0.92517 0.80031 0.18139 0.0
H4244 H 0.90583 0.73709 0.18411 0.0
H4245 H 0.89698 0.70998 0.19968 0.0
H4246 H 0.94994 0.72119 0.23132 0.0
H4247 H 0.95897 0.74865 0.21626 0.0
C4248 C 0.9911 0.78245 0.13451 0.0
C4249 C 0.00786 0.78356 0.1454 0.0
C4250 C 0.97518 0.7811 0.14291 0.0
C4251 C 0.97565 0.78061 0.16233 0.0
C4252 C 0.99232 0.78149 0.17312 0.0
C4253 C 0.00822 0.78311 0.16481 0.0
C4254 C 0.9589 0.77898 0.17159 0.0
C4255 C 0.95363 0.76394 0.18098 0.0
C4256 C 0.94832 0.79214 0.17151 0.0
C4257 C 0.95347 0.80855 0.16221 0.0
C4258 C 0.9707 0.82017 0.1671 0.0
C4259 C 0.97564 0.83535 0.15795 0.0
C4260 C 0.96339 0.83918 0.144 0.0
C4261 C 0.94616 0.82785 0.13924 0.0
C4262 C 0.94117 0.81261 0.14832 0.0
C4263 C 0.90117 0.767 0.23153 0.0
C4264 C 0.88326 0.7632 0.22259 0.0
C4265 C 0.91571 0.77243 0.22157 0.0
C4266 C 0.91269 0.77393 0.20234 0.0
C4267 C 0.89477 0.77164 0.19376 0.0
C4268 C 0.88016 0.76621 0.20379 0.0
C4269 C 0.92803 0.77516 0.19091 0.0
C4270 C 0.93295 0.79 0.18105 0.0
C4271 C 0.93828 0.76173 0.19036 0.0
C4272 C 0.93302 0.74504 0.19919 0.0
C4273 C 0.91555 0.73387 0.1945 0.0
C4274 C 0.91049 0.71843 0.20323 0.0
C4275 C 0.92287 0.71389 0.21652 0.0
C4276 C 0.94035 0.72475 0.22106 0.0
C4277 C 0.94544 0.74026 0.21243 0.0
H4278 H 0.91894 0.70192 0.22326 0.0
H4279 H 0.96724 0.85094 0.13692 0.0
H4280 H 0.49659 0.30985 0.16048 0.0
H4281 H 0.50176 0.33623 0.14373 0.0
H4282 H 0.53216 0.31025 0.10711 0.0
H4283 H 0.52803 0.28421 0.12491 0.0
H4284 H 0.54722 0.34474 0.11338 0.0
H4285 H 0.48558 0.31184 0.0941 0.0
H4286 H 0.45564 0.29621 0.10081 0.0
H4287 H 0.44885 0.34556 0.13006 0.0
H4288 H 0.47884 0.36145 0.12365 0.0
H4289 H 0.54127 0.39516 0.03932 0.0
H4290 H 0.53125 0.36956 0.0563 0.0
H4291 H 0.51751 0.40522 0.09959 0.0
H4292 H 0.52771 0.43105 0.08254 0.0
H4293 H 0.49322 0.36673 0.09031 0.0
H4294 H 0.55494 0.3996 0.10878 0.0
H4295 H 0.58484 0.41486 0.10173 0.0
H4296 H 0.59147 0.36483 0.07385 0.0
H4297 H 0.56136 0.34936 0.08034 0.0
C4298 C 0.50447 0.30981 0.14892 0.0
C4299 C 0.51177 0.29493 0.14391 0.0
C4300 C 0.50733 0.32488 0.13923 0.0
C4301 C 0.51688 0.32516 0.12367 0.0
C4302 C 0.52463 0.31043 0.11894 0.0
C4303 C 0.52224 0.29552 0.12908 0.0
C4304 C 0.51829 0.34058 0.11218 0.0
C4305 C 0.53535 0.34933 0.1082 0.0
C4306 C 0.50292 0.34702 0.10558 0.0
C4307 C 0.48443 0.33782 0.1084 0.0
C4308 C 0.47765 0.31937 0.10189 0.0
C4309 C 0.46071 0.31046 0.10568 0.0
C4310 C 0.45035 0.31989 0.11586 0.0
C4311 C 0.45688 0.33829 0.12215 0.0
C4312 C 0.47382 0.34727 0.11839 0.0
C4313 C 0.53548 0.39745 0.0521 0.0
C4314 C 0.53522 0.4151 0.05956 0.0
C4315 C 0.52981 0.38281 0.06185 0.0
C4316 C 0.52379 0.38544 0.07934 0.0
C4317 C 0.52202 0.40282 0.08609 0.0
C4318 C 0.52777 0.41757 0.0763 0.0
C4319 C 0.52208 0.37065 0.09151 0.0
C4320 C 0.50503 0.36207 0.09557 0.0
C4321 C 0.53743 0.3643 0.09815 0.0
C4322 C 0.55584 0.37336 0.09491 0.0
C4323 C 0.56273 0.39187 0.10105 0.0
C4324 C 0.5797 0.40056 0.09715 0.0
C4325 C 0.59004 0.39082 0.08732 0.0
C4326 C 0.58344 0.37236 0.08144 0.0
C4327 C 0.56641 0.36362 0.08523 0.0
H4328 H 0.60318 0.39757 0.0843 0.0
H4329 H 0.43728 0.31294 0.11887 0.0
H4330 H 0.98982 0.29137 0.30333 0.0
H4331 H 0.95895 0.29121 0.28835 0.0
H4332 H 0.93978 0.28924 0.34208 0.0
H4333 H 0.96958 0.28921 0.3567 0.0
H4334 H 0.9189 0.26337 0.31678 0.0
H4335 H 0.94518 0.32725 0.32166 0.0
H4336 H 0.96664 0.35427 0.31523 0.0
H4337 H 0.94857 0.34029 0.25625 0.0
H4338 H 0.92714 0.31305 0.26233 0.0
H4339 H 0.83114 0.27865 0.31064 0.0
H4340 H 0.86351 0.28115 0.31841 0.0
H4341 H 0.87145 0.29116 0.26203 0.0
H4342 H 0.83902 0.28964 0.25449 0.0
H4343 H 0.89877 0.31067 0.28368 0.0
H4344 H 0.86944 0.24752 0.28098 0.0
H4345 H 0.84868 0.22097 0.28934 0.0
H4346 H 0.87342 0.23389 0.34667 0.0
H4347 H 0.89403 0.26076 0.33877 0.0
C4348 C 0.97897 0.29093 0.31184 0.0
C4349 C 0.98223 0.2898 0.33117 0.0
C4350 C 0.96135 0.29091 0.30331 0.0
C4351 C 0.94687 0.28997 0.31406 0.0
C4352 C 0.95047 0.28963 0.33335 0.0
C4353 C 0.96771 0.28952 0.3417 0.0
C4354 C 0.92762 0.2884 0.30582 0.0
C4355 C 0.9145 0.27375 0.30955 0.0
C4356 C 0.92179 0.30172 0.29608 0.0
C4357 C 0.93476 0.31798 0.29242 0.0
C4358 C 0.94593 0.32983 0.3073 0.0
C4359 C 0.95804 0.34521 0.30373 0.0
C4360 C 0.95902 0.34895 0.28534 0.0
C4361 C 0.94783 0.33735 0.27049 0.0
C4362 C 0.9357 0.32194 0.27399 0.0
C4363 C 0.83975 0.28144 0.29986 0.0
C4364 C 0.83234 0.28373 0.28184 0.0
C4365 C 0.85835 0.28272 0.30429 0.0
C4366 C 0.87012 0.28573 0.29068 0.0
C4367 C 0.86282 0.28863 0.27282 0.0
C4368 C 0.8442 0.28774 0.26849 0.0
C4369 C 0.88989 0.28578 0.2951 0.0
C4370 C 0.9031 0.30011 0.29063 0.0
C4371 C 0.89588 0.27224 0.30449 0.0
C4372 C 0.88319 0.25624 0.30927 0.0
C4373 C 0.87034 0.24479 0.2954 0.0
C4374 C 0.8586 0.22967 0.30006 0.0
C4375 C 0.85973 0.22574 0.31852 0.0
C4376 C 0.87255 0.23696 0.33238 0.0
C4377 C 0.88424 0.25214 0.32782 0.0
H4378 H 0.85071 0.21398 0.32208 0.0
H4379 H 0.96839 0.36088 0.2826 0.0
H4380 H 0.03585 0.69165 0.65723 0.0
H4381 H 0.03638 0.6669 0.63317 0.0
H4382 H 0.98805 0.67538 0.60226 0.0
H4383 H 0.98782 0.7007 0.62628 0.0
H4384 H 0.98677 0.63827 0.60761 0.0
H4385 H 0.02564 0.68657 0.5843 0.0
H4386 H 0.05114 0.71301 0.58663 0.0
H4387 H 0.08836 0.68094 0.60347 0.0
H4388 H 0.06305 0.65433 0.60145 0.0
H4389 H 0.98991 0.57333 0.52987 0.0
H4390 H 0.98811 0.60097 0.54949 0.0
H4391 H 0.04104 0.60359 0.57892 0.0
H4392 H 0.04288 0.57622 0.55908 0.0
H4393 H 0.03877 0.63625 0.57264 0.0
H4394 H 1.00128 0.58884 0.59809 0.0
H4395 H 0.97653 0.56222 0.59831 0.0
H4396 H 0.93758 0.59196 0.58001 0.0
H4397 H 0.96213 0.6187 0.57942 0.0
C4398 C 0.02548 0.68842 0.64515 0.0
C4399 C 0.01188 0.69823 0.64356 0.0
C4400 C 0.02579 0.67424 0.63139 0.0
C4401 C 0.01229 0.66919 0.61579 0.0
C4402 C 0.99866 0.67901 0.6141 0.0
C4403 C 0.99859 0.69356 0.62774 0.0
C4404 C 0.01229 0.65331 0.60174 0.0
C4405 C 0.99796 0.63797 0.59964 0.0
C4406 C 0.02715 0.65258 0.59179 0.0
C4407 C 0.04243 0.66849 0.59286 0.0
C4408 C 0.03925 0.68518 0.58863 0.0
C4409 C 0.05367 0.70019 0.58987 0.0
C4410 C 0.07135 0.69866 0.59524 0.0
C4411 C 0.07466 0.6821 0.59932 0.0
C4412 C 0.06028 0.66704 0.5981 0.0
C4413 C 1.0011 0.57983 0.54058 0.0
C4414 C 0.01636 0.57243 0.54324 0.0
C4415 C 1.00006 0.5956 0.55187 0.0
C4416 C 0.01432 0.60439 0.56603 0.0
C4417 C 0.02977 0.59715 0.56828 0.0
C4418 C 0.03076 0.58138 0.55704 0.0
C4419 C 0.01322 0.62106 0.57845 0.0
C4420 C 0.02743 0.63655 0.58037 0.0
C4421 C 0.99834 0.62184 0.58843 0.0
C4422 C 0.98357 0.6057 0.58848 0.0
C4423 C 0.98745 0.58965 0.59392 0.0
C4424 C 0.97346 0.57455 0.59415 0.0
C4425 C 0.9555 0.57538 0.58911 0.0
C4426 C 0.9515 0.59132 0.58386 0.0
C4427 C 0.96545 0.60645 0.58358 0.0
H4428 H 0.94468 0.56369 0.58934 0.0
H4429 H 0.0825 0.71031 0.5962 0.0
H4430 H 0.60289 0.80766 0.84739 0.0
H4431 H 0.63222 0.80396 0.83841 0.0
H4432 H 0.60578 0.77807 0.78389 0.0
H4433 H 0.57671 0.782 0.79256 0.0
H4434 H 0.62989 0.75919 0.79854 0.0
H4435 H 0.63061 0.82005 0.78889 0.0
H4436 H 0.62827 0.85134 0.79793 0.0
H4437 H 0.67415 0.85915 0.8403 0.0
H4438 H 0.67653 0.82775 0.83177 0.0
H4439 H 0.70903 0.75702 0.75384 0.0
H4440 H 0.68004 0.76118 0.76256 0.0
H4441 H 0.70772 0.7959 0.81254 0.0
H4442 H 0.73675 0.79179 0.80382 0.0
H4443 H 0.68256 0.81033 0.80007 0.0
H4444 H 0.68088 0.74911 0.81104 0.0
H4445 H 0.68131 0.71698 0.80428 0.0
H4446 H 0.63709 0.70961 0.76004 0.0
H4447 H 0.63629 0.74172 0.76668 0.0
C4448 C 0.60329 0.80127 0.83345 0.0
C4449 C 0.58715 0.79518 0.82078 0.0
C4450 C 0.62017 0.79916 0.82827 0.0
C4451 C 0.62149 0.79068 0.81035 0.0
C4452 C 0.60539 0.78458 0.79779 0.0
C4453 C 0.58864 0.78694 0.80282 0.0
C4454 C 0.63943 0.78798 0.80463 0.0
C4455 C 0.64132 0.77044 0.79869 0.0
C4456 C 0.65469 0.80246 0.80501 0.0
C4457 C 0.65354 0.82144 0.80992 0.0
C4458 C 0.64008 0.82837 0.80028 0.0
C4459 C 0.63873 0.84612 0.80531 0.0
C4460 C 0.65092 0.85716 0.81983 0.0
C4461 C 0.66462 0.85053 0.82917 0.0
C4462 C 0.66597 0.83275 0.82425 0.0
C4463 C 0.70905 0.76538 0.76682 0.0
C4464 C 0.72555 0.77384 0.77814 0.0
C4465 C 0.69225 0.76776 0.77189 0.0
C4466 C 0.69123 0.77868 0.78852 0.0
C4467 C 0.70775 0.78734 0.79968 0.0
C4468 C 0.72452 0.78493 0.79464 0.0
C4469 C 0.67319 0.78142 0.79416 0.0
C4470 C 0.67121 0.79902 0.79997 0.0
C4471 C 0.65782 0.76696 0.79369 0.0
C4472 C 0.6587 0.74786 0.78919 0.0
C4473 C 0.67138 0.74068 0.79974 0.0
C4474 C 0.67163 0.72246 0.79598 0.0
C4475 C 0.65931 0.71128 0.78165 0.0
C4476 C 0.64666 0.71829 0.7711 0.0
C4477 C 0.64626 0.73649 0.7749 0.0
H4478 H 0.65955 0.69716 0.77875 0.0
H4479 H 0.64988 0.87092 0.82369 0.0
H4480 H 0.43124 0.52835 0.69552 0.0
H4481 H 0.44146 0.53372 0.66507 0.0
H4482 H 0.48501 0.50728 0.67793 0.0
H4483 H 0.47521 0.50214 0.70801 0.0
H4484 H 0.49705 0.53814 0.66561 0.0
H4485 H 0.44837 0.48658 0.64809 0.0
H4486 H 0.41733 0.46782 0.64394 0.0
H4487 H 0.39898 0.50472 0.60971 0.0
H4488 H 0.42986 0.52395 0.614 0.0
H4489 H 0.52593 0.51442 0.57937 0.0
H4490 H 0.51362 0.51526 0.60884 0.0
H4491 H 0.47613 0.54556 0.58736 0.0
H4492 H 0.48865 0.54494 0.55747 0.0
H4493 H 0.45993 0.51632 0.60372 0.0
H4494 H 0.51202 0.5668 0.62169 0.0
H4495 H 0.54419 0.58272 0.6266 0.0
H4496 H 0.55734 0.54242 0.65936 0.0
H4497 H 0.52522 0.52642 0.65489 0.0
C4498 C 0.44306 0.52384 0.69185 0.0
C4499 C 0.45244 0.5149 0.70421 0.0
C4500 C 0.44877 0.52675 0.67442 0.0
C4501 C 0.46394 0.52081 0.66923 0.0
C4502 C 0.4733 0.51201 0.68164 0.0
C4503 C 0.46764 0.50908 0.69888 0.0
C4504 C 0.47079 0.52424 0.65129 0.0
C4505 C 0.48892 0.53332 0.65207 0.0
C4506 C 0.46012 0.5181 0.63365 0.0
C4507 C 0.44139 0.50694 0.63171 0.0
C4508 C 0.43767 0.4909 0.63998 0.0
C4509 C 0.42011 0.48013 0.63753 0.0
C4510 C 0.40617 0.48513 0.62667 0.0
C4511 C 0.40977 0.50091 0.61822 0.0
C4512 C 0.4273 0.51177 0.62068 0.0
C4513 C 0.51534 0.52165 0.58095 0.0
C4514 C 0.5085 0.52997 0.56617 0.0
C4515 C 0.50831 0.5221 0.59788 0.0
C4516 C 0.49422 0.53079 0.60043 0.0
C4517 C 0.48717 0.53897 0.58569 0.0
C4518 C 0.49429 0.5386 0.56867 0.0
C4519 C 0.48618 0.53016 0.61812 0.0
C4520 C 0.46789 0.5215 0.61728 0.0
C4521 C 0.49683 0.53615 0.63577 0.0
C4522 C 0.51624 0.54535 0.6378 0.0
C4523 C 0.5218 0.56126 0.62979 0.0
C4524 C 0.54001 0.57034 0.63259 0.0
C4525 C 0.55283 0.56351 0.64316 0.0
C4526 C 0.54743 0.54766 0.65111 0.0
C4527 C 0.52921 0.53864 0.64854 0.0
H4528 H 0.56692 0.57054 0.64524 0.0
H4529 H 0.3926 0.47673 0.62473 0.0
H4530 H 0.76978 0.13365 0.9812 0.0
H4531 H 0.77455 0.14958 0.95374 0.0
H4532 H 0.74956 0.19079 0.9772 0.0
H4533 H 0.74426 0.17476 0.00413 0.0
H4534 H 0.73492 0.17684 0.94204 0.0
H4535 H 0.79478 0.19879 0.97774 0.0
H4536 H 0.82325 0.1941 0.99384 0.0
H4537 H 0.83399 0.16776 0.94242 0.0
H4538 H 0.80545 0.17212 0.92606 0.0
H4539 H 0.74766 0.25189 0.9008 0.0
H4540 H 0.75918 0.23532 0.92471 0.0
H4541 H 0.76996 0.19725 0.88168 0.0
H4542 H 0.75852 0.21375 0.85768 0.0
H4543 H 0.79355 0.20467 0.92198 0.0
H4544 H 0.73175 0.18515 0.88698 0.0
H4545 H 0.70224 0.19007 0.8739 0.0
H4546 H 0.69489 0.21341 0.9282 0.0
H4547 H 0.72451 0.20894 0.94149 0.0
C4548 C 0.76532 0.14611 0.98036 0.0
C4549 C 0.75639 0.15293 0.99445 0.0
C4550 C 0.76818 0.15519 0.96485 0.0
C4551 C 0.76243 0.17128 0.96364 0.0
C4552 C 0.75395 0.17828 0.97796 0.0
C4553 C 0.75081 0.16909 0.99321 0.0
C4554 C 0.76385 0.18044 0.94694 0.0
C4555 C 0.74774 0.18289 0.93764 0.0
C4556 C 0.78059 0.18783 0.94105 0.0
C4557 C 0.79793 0.18563 0.95073 0.0
C4558 C 0.80318 0.19192 0.9699 0.0
C4559 C 0.81933 0.18934 0.97906 0.0
C4560 C 0.8304 0.1806 0.96917 0.0
C4561 C 0.82539 0.17451 0.95006 0.0
C4562 C 0.80924 0.17706 0.94083 0.0
C4563 C 0.75309 0.24037 0.89652 0.0
C4564 C 0.75184 0.23377 0.87754 0.0
C4565 C 0.75988 0.2311 0.91011 0.0
C4566 C 0.76515 0.21506 0.90476 0.0
C4567 C 0.76603 0.20971 0.88592 0.0
C4568 C 0.75935 0.21905 0.87228 0.0
C4569 C 0.76465 0.20182 0.91796 0.0
C4570 C 0.78078 0.19834 0.92627 0.0
C4571 C 0.74791 0.19367 0.92336 0.0
C4572 C 0.73042 0.19691 0.91515 0.0
C4573 C 0.72396 0.19157 0.89605 0.0
C4574 C 0.70719 0.19422 0.88862 0.0
C4575 C 0.69672 0.20209 0.9002 0.0
C4576 C 0.70302 0.20736 0.91923 0.0
C4577 C 0.7198 0.20479 0.92671 0.0
H4578 H 0.6837 0.20404 0.89444 0.0
H4579 H 0.84289 0.17858 0.9763 0.0
H4580 H 0.10582 0.54232 0.20534 0.0
H4581 H 0.09125 0.53067 0.17344 0.0
H4582 H 0.14078 0.51766 0.1591 0.0
H4583 H 0.15542 0.5291 0.19112 0.0
H4584 H 0.12535 0.54208 0.1378 0.0
H4585 H 0.10872 0.48268 0.15517 0.0
H4586 H 0.0982 0.46136 0.17713 0.0
H4587 H 0.04752 0.47736 0.17418 0.0
H4588 H 0.05777 0.49884 0.15226 0.0
H4589 H 0.06446 0.50298 0.04995 0.0
H4590 H 0.08541 0.5033 0.0778 0.0
H4591 H 0.05874 0.53809 0.10952 0.0
H4592 H 0.03869 0.53938 0.0812 0.0
H4593 H 0.06737 0.49677 0.11856 0.0
H4594 H 0.08643 0.56147 0.11395 0.0
H4595 H 0.09735 0.5887 0.09927 0.0
H4596 H 0.14246 0.56792 0.08408 0.0
H4597 H 0.13144 0.54025 0.09822 0.0
C4598 C 0.11348 0.53683 0.1954 0.0
C4599 C 0.1316 0.53656 0.20041 0.0
C4600 C 0.10516 0.52996 0.17741 0.0
C4601 C 0.11499 0.52302 0.16435 0.0
C4602 C 0.13306 0.52264 0.16931 0.0
C4603 C 0.14133 0.52925 0.18742 0.0
C4604 C 0.10691 0.51898 0.14492 0.0
C4605 C 0.11303 0.53175 0.13318 0.0
C4606 C 0.09063 0.50586 0.13958 0.0
C4607 C 0.084 0.49231 0.152 0.0
C4608 C 0.09532 0.48161 0.15916 0.0
C4609 C 0.08941 0.46951 0.17162 0.0
C4610 C 0.0722 0.46799 0.17703 0.0
C4611 C 0.06082 0.4785 0.16991 0.0
C4612 C 0.06664 0.49058 0.1574 0.0
C4613 C 0.06341 0.51123 0.06264 0.0
C4614 C 0.05031 0.52158 0.06336 0.0
C4615 C 0.07524 0.5112 0.07849 0.0
C4616 C 0.07364 0.52103 0.09526 0.0
C4617 C 0.06025 0.53085 0.09633 0.0
C4618 C 0.04881 0.53144 0.0803 0.0
C4619 C 0.08556 0.52029 0.11191 0.0
C4620 C 0.08011 0.50655 0.12283 0.0
C4621 C 0.1022 0.53291 0.11687 0.0
C4622 C 0.1078 0.54855 0.10662 0.0
C4623 C 0.09834 0.56243 0.10695 0.0
C4624 C 0.10468 0.57805 0.09894 0.0
C4625 C 0.12064 0.58008 0.09083 0.0
C4626 C 0.13011 0.56633 0.09039 0.0
C4627 C 0.12377 0.55063 0.09831 0.0
H4628 H 0.1256 0.59225 0.08475 0.0
H4629 H 0.06769 0.45869 0.18676 0.0
H4630 H 0.76405 0.85922 0.46647 0.0
H4631 H 0.76193 0.84884 0.43276 0.0
H4632 H 0.79589 0.8121 0.44539 0.0
H4633 H 0.79786 0.82197 0.47855 0.0
H4634 H 0.80761 0.83274 0.41836 0.0
H4635 H 0.75264 0.79649 0.43334 0.0
H4636 H 0.72321 0.79161 0.44526 0.0
H4637 H 0.70288 0.82049 0.40306 0.0
H4638 H 0.73237 0.82588 0.39112 0.0
H4639 H 0.79817 0.77223 0.33398 0.0
H4640 H 0.79815 0.78511 0.36639 0.0
H4641 H 0.76216 0.81784 0.3471 0.0
H4642 H 0.76229 0.80533 0.31488 0.0
H4643 H 0.75113 0.80198 0.37676 0.0
H4644 H 0.80639 0.83603 0.36041 0.0
H4645 H 0.83656 0.84173 0.35009 0.0
H4646 H 0.85687 0.81679 0.39576 0.0
H4647 H 0.82671 0.81049 0.40611 0.0
C4648 C 0.77079 0.84873 0.46203 0.0
C4649 C 0.78112 0.84146 0.47526 0.0
C4650 C 0.76966 0.84288 0.4428 0.0
C4651 C 0.77891 0.8298 0.4366 0.0
C4652 C 0.7888 0.82232 0.44983 0.0
C4653 C 0.7898 0.82795 0.46886 0.0
C4654 C 0.7787 0.82379 0.4164 0.0
C4655 C 0.79528 0.8259 0.40926 0.0
C4656 C 0.76258 0.8152 0.4045 0.0
C4657 C 0.74479 0.81181 0.4115 0.0
C4658 C 0.74196 0.80196 0.42672 0.0
C4659 C 0.72526 0.79909 0.43347 0.0
C4660 C 0.7112 0.8058 0.42497 0.0
C4661 C 0.71381 0.81535 0.40966 0.0
C4662 C 0.73051 0.81833 0.4029 0.0
C4663 C 0.79039 0.78226 0.3366 0.0
C4664 C 0.78049 0.78791 0.32172 0.0
C4665 C 0.79037 0.78962 0.35516 0.0
C4666 C 0.78029 0.8026 0.35917 0.0
C4667 C 0.77008 0.80791 0.34438 0.0
C4668 C 0.77024 0.80073 0.32591 0.0
C4669 C 0.78014 0.81058 0.37876 0.0
C4670 C 0.76347 0.80891 0.38577 0.0
C4671 C 0.79624 0.81947 0.39062 0.0
C4672 C 0.81421 0.82264 0.38394 0.0
C4673 C 0.81721 0.83154 0.36812 0.0
C4674 C 0.83434 0.83495 0.36231 0.0
C4675 C 0.84864 0.82974 0.37233 0.0
C4676 C 0.84579 0.82088 0.38805 0.0
C4677 C 0.82868 0.81735 0.39387 0.0
H4678 H 0.86193 0.83254 0.3679 0.0
H4679 H 0.69828 0.80355 0.43021 0.0
H4680 H 0.43686 0.53143 0.81558 0.0
H4681 H 0.44743 0.5342 0.84934 0.0
H4682 H 0.48849 0.5054 0.83742 0.0
H4683 H 0.47834 0.50277 0.80413 0.0
H4684 H 0.46773 0.49089 0.86344 0.0
H4685 H 0.50007 0.54866 0.85043 0.0
H4686 H 0.50233 0.57822 0.83898 0.0
H4687 H 0.47022 0.59368 0.88017 0.0
H4688 H 0.46744 0.56401 0.89162 0.0
H4689 H 0.52596 0.50207 0.94972 0.0
H4690 H 0.51371 0.50215 0.91703 0.0
H4691 H 0.4776 0.53473 0.93513 0.0
H4692 H 0.4896 0.53467 0.96761 0.0
H4693 H 0.49326 0.54754 0.90654 0.0
H4694 H 0.46219 0.48985 0.92047 0.0
H4695 H 0.45822 0.45939 0.93012 0.0
H4696 H 0.48751 0.44338 0.88647 0.0
H4697 H 0.49191 0.47382 0.87673 0.0
C4698 C 0.44835 0.52602 0.82019 0.0
C4699 C 0.45667 0.51679 0.80717 0.0
C4700 C 0.45431 0.52753 0.83944 0.0
C4701 C 0.46861 0.51981 0.84583 0.0
C4702 C 0.47731 0.51126 0.83279 0.0
C4703 C 0.4715 0.50986 0.81372 0.0
C4704 C 0.47441 0.51993 0.86605 0.0
C4705 C 0.47346 0.50327 0.87287 0.0
C4706 C 0.48144 0.53608 0.87835 0.0
C4707 C 0.48335 0.55403 0.87172 0.0
C4708 C 0.49335 0.55829 0.85693 0.0
C4709 C 0.49473 0.57507 0.85046 0.0
C4710 C 0.48637 0.5878 0.8588 0.0
C4711 C 0.47665 0.58379 0.87369 0.0
C4712 C 0.47516 0.56699 0.88018 0.0
C4713 C 0.51534 0.50912 0.94677 0.0
C4714 C 0.50863 0.51813 0.96137 0.0
C4715 C 0.50833 0.50916 0.92806 0.0
C4716 C 0.49459 0.5183 0.92364 0.0
C4717 C 0.48815 0.52756 0.93818 0.0
C4718 C 0.49503 0.52744 0.9568 0.0
C4719 C 0.48697 0.51843 0.90391 0.0
C4720 C 0.48748 0.53514 0.89718 0.0
C4721 C 0.47955 0.50228 0.89163 0.0
C4722 C 0.47752 0.48419 0.89798 0.0
C4723 C 0.46798 0.47991 0.91307 0.0
C4724 C 0.46558 0.46262 0.91851 0.0
C4725 C 0.47256 0.44945 0.90887 0.0
C4726 C 0.48209 0.45359 0.89389 0.0
C4727 C 0.48453 0.47085 0.88841 0.0
H4728 H 0.47057 0.43603 0.91299 0.0
H4729 H 0.48746 0.60079 0.85376 0.0
H4730 H 0.7629 0.18517 0.0793 0.0
H4731 H 0.77227 0.20334 0.10959 0.0
H4732 H 0.78967 0.15877 0.13245 0.0
H4733 H 0.7798 0.14026 0.10169 0.0
H4734 H 0.76287 0.17101 0.14912 0.0
H4735 H 0.82076 0.19733 0.13165 0.0
H4736 H 0.83948 0.20962 0.10826 0.0
H4737 H 0.81251 0.25335 0.10627 0.0
H4738 H 0.79344 0.24119 0.12943 0.0
H4739 H 0.79597 0.23239 0.23304 0.0
H4740 H 0.79442 0.21223 0.20453 0.0
H4741 H 0.75803 0.23943 0.1753 0.0
H4742 H 0.75848 0.25921 0.2042 0.0
H4743 H 0.79746 0.23472 0.16388 0.0
H4744 H 0.73652 0.2076 0.17195 0.0
H4745 H 0.71166 0.19473 0.18906 0.0
H4746 H 0.7391 0.15366 0.20392 0.0
H4747 H 0.76425 0.16642 0.18699 0.0
C4748 C 0.76923 0.17956 0.09072 0.0
C4749 C 0.77072 0.1617 0.08876 0.0
C4750 C 0.77477 0.18988 0.10782 0.0
C4751 C 0.78195 0.18233 0.12289 0.0
C4752 C 0.78445 0.16468 0.12066 0.0
C4753 C 0.77887 0.15427 0.10335 0.0
C4754 C 0.78346 0.19205 0.14132 0.0
C4755 C 0.77093 0.18472 0.15281 0.0
C4756 C 0.79323 0.21018 0.14513 0.0
C4757 C 0.80577 0.21841 0.13243 0.0
C4758 C 0.81891 0.20964 0.12633 0.0
C4759 C 0.82953 0.21654 0.11304 0.0
C4760 C 0.82722 0.23227 0.10582 0.0
C4761 C 0.81435 0.24121 0.11195 0.0
C4762 C 0.80368 0.23436 0.12522 0.0
C4763 C 0.78747 0.23402 0.22064 0.0
C4764 C 0.77743 0.24737 0.22064 0.0
C4765 C 0.78654 0.22247 0.20454 0.0
C4766 C 0.77595 0.2245 0.18836 0.0
C4767 C 0.76603 0.23783 0.18806 0.0
C4768 C 0.76653 0.24914 0.20436 0.0
C4769 C 0.77691 0.21362 0.17141 0.0
C4770 C 0.7899 0.22081 0.16043 0.0
C4771 C 0.76719 0.19556 0.16774 0.0
C4772 C 0.75242 0.18815 0.17847 0.0
C4773 C 0.7374 0.196 0.1791 0.0
C4774 C 0.72319 0.18864 0.18864 0.0
C4775 C 0.72381 0.1734 0.19759 0.0
C4776 C 0.73865 0.16548 0.197 0.0
C4777 C 0.75288 0.17276 0.18741 0.0
H4778 H 0.71281 0.16774 0.205 0.0
H4779 H 0.83538 0.23753 0.09544 0.0
H4780 H 0.13012 0.55342 0.27982 0.0
H4781 H 0.11459 0.55418 0.30736 0.0
H4782 H 0.14564 0.51901 0.33136 0.0
H4783 H 0.16083 0.51766 0.30333 0.0
H4784 H 0.11086 0.50792 0.33343 0.0
H4785 H 0.15432 0.56413 0.34787 0.0
H4786 H 0.17142 0.59366 0.34161 0.0
H4787 H 0.12231 0.61239 0.3344 0.0
H4788 H 0.10485 0.58289 0.34024 0.0
H4789 H 0.08157 0.53897 0.42366 0.0
H4790 H 0.09766 0.52784 0.39919 0.0
H4791 H 0.0636 0.54624 0.3575 0.0
H4792 H 0.04724 0.55711 0.38176 0.0
H4793 H 0.10374 0.56475 0.36814 0.0
H4794 H 0.06034 0.50781 0.34975 0.0
H4795 H 0.04278 0.47737 0.35247 0.0
H4796 H 0.09194 0.45987 0.36556 0.0
H4797 H 0.10982 0.49034 0.36333 0.0
C4798 C 0.13367 0.54591 0.29101 0.0
C4799 C 0.14655 0.53545 0.28962 0.0
C4800 C 0.12493 0.54648 0.30675 0.0
C4801 C 0.12932 0.53695 0.32145 0.0
C4802 C 0.14225 0.52653 0.32012 0.0
C4803 C 0.15081 0.52571 0.30418 0.0
C4804 C 0.11938 0.53696 0.33759 0.0
C4805 C 0.10962 0.52031 0.34141 0.0
C4806 C 0.11766 0.55323 0.34756 0.0
C4807 C 0.12824 0.57121 0.34446 0.0
C4808 C 0.14714 0.5745 0.34487 0.0
C4809 C 0.1569 0.59125 0.34138 0.0
C4810 C 0.14796 0.60488 0.3376 0.0
C4811 C 0.12923 0.60182 0.33735 0.0
C4812 C 0.11939 0.58509 0.34077 0.0
C4813 C 0.077 0.53992 0.40918 0.0
C4814 C 0.06344 0.54922 0.40453 0.0
C4815 C 0.08616 0.53351 0.39528 0.0
C4816 C 0.08175 0.53635 0.37673 0.0
C4817 C 0.06704 0.54394 0.37183 0.0
C4818 C 0.05786 0.55028 0.38567 0.0
C4819 C 0.09484 0.53573 0.36355 0.0
C4820 C 0.10532 0.55235 0.36046 0.0
C4821 C 0.09721 0.51946 0.35428 0.0
C4822 C 0.08642 0.50151 0.35683 0.0
C4823 C 0.06742 0.49762 0.35366 0.0
C4824 C 0.0574 0.48031 0.35499 0.0
C4825 C 0.06623 0.46672 0.35931 0.0
C4826 C 0.08511 0.47043 0.36233 0.0
C4827 C 0.09518 0.48773 0.36108 0.0
H4828 H 0.05845 0.4533 0.36022 0.0
H4829 H 0.15554 0.61782 0.33489 0.0
H4830 H 0.77526 0.81689 0.5673 0.0
H4831 H 0.77014 0.80645 0.59752 0.0
H4832 H 0.77941 0.86167 0.62321 0.0
H4833 H 0.78401 0.87218 0.59268 0.0
H4834 H 0.80107 0.8381 0.6408 0.0
H4835 H 0.73982 0.84067 0.62078 0.0
H4836 H 0.71267 0.83495 0.59728 0.0
H4837 H 0.70823 0.77781 0.59496 0.0
H4838 H 0.73555 0.7832 0.61826 0.0
H4839 H 0.76284 0.80968 0.72588 0.0
H4840 H 0.76359 0.82359 0.69691 0.0
H4841 H 0.77883 0.77755 0.66936 0.0
H4842 H 0.7797 0.76421 0.6986 0.0
H4843 H 0.74415 0.79914 0.65409 0.0
H4844 H 0.80818 0.79661 0.66811 0.0
H4845 H 0.83746 0.80179 0.68817 0.0
H4846 H 0.83826 0.85824 0.69907 0.0
H4847 H 0.80855 0.85321 0.67963 0.0
C4848 C 0.77581 0.82675 0.57933 0.0
C4849 C 0.77985 0.84528 0.57777 0.0
C4850 C 0.77294 0.82081 0.59654 0.0
C4851 C 0.77443 0.83331 0.61251 0.0
C4852 C 0.77817 0.85186 0.61096 0.0
C4853 C 0.78062 0.85782 0.59358 0.0
C4854 C 0.77289 0.82677 0.63088 0.0
C4855 C 0.78856 0.82987 0.6439 0.0
C4856 C 0.75666 0.81569 0.63458 0.0
C4857 C 0.73977 0.81234 0.62121 0.0
C4858 C 0.73308 0.82688 0.61522 0.0
C4859 C 0.71767 0.8237 0.60194 0.0
C4860 C 0.70874 0.80603 0.59462 0.0
C4861 C 0.71516 0.79149 0.60066 0.0
C4862 C 0.73059 0.7946 0.61394 0.0
C4863 C 0.76645 0.80252 0.7137 0.0
C4864 C 0.77119 0.78579 0.7146 0.0
C4865 C 0.76685 0.8105 0.69719 0.0
C4866 C 0.77155 0.80169 0.68119 0.0
C4867 C 0.77551 0.78468 0.68173 0.0
C4868 C 0.77577 0.77699 0.6984 0.0
C4869 C 0.7724 0.81032 0.66391 0.0
C4870 C 0.75658 0.80761 0.65113 0.0
C4871 C 0.78858 0.82157 0.66028 0.0
C4872 C 0.80587 0.82442 0.67288 0.0
C4873 C 0.8143 0.81002 0.67523 0.0
C4874 C 0.83107 0.81295 0.68635 0.0
C4875 C 0.83973 0.83034 0.69487 0.0
C4876 C 0.83153 0.84478 0.69247 0.0
C4877 C 0.81467 0.84186 0.6815 0.0
H4878 H 0.85276 0.83261 0.70339 0.0
H4879 H 0.69684 0.8036 0.58429 0.0
H4880 H 0.76449 0.46703 0.5063 0.0
H4881 H 0.73872 0.47931 0.51426 0.0
H4882 H 0.70201 0.43258 0.48186 0.0
H4883 H 0.72781 0.42048 0.4738 0.0
H4884 H 0.69426 0.46348 0.47392 0.0
H4885 H 0.70744 0.43605 0.52817 0.0
H4886 H 0.72492 0.42893 0.55594 0.0
H4887 H 0.73528 0.48418 0.58086 0.0
H4888 H 0.71818 0.49175 0.5531 0.0
H4889 H 0.61776 0.48138 0.51859 0.0
H4890 H 0.64003 0.46951 0.50215 0.0
H4891 H 0.68182 0.51539 0.52851 0.0
H4892 H 0.65972 0.52703 0.54522 0.0
H4893 H 0.68494 0.48193 0.53904 0.0
H4894 H 0.67303 0.50899 0.48263 0.0
H4895 H 0.65608 0.51501 0.4539 0.0
H4896 H 0.64275 0.45847 0.43315 0.0
H4897 H 0.65938 0.45207 0.46187 0.0
C4898 C 0.75087 0.45977 0.50054 0.0
C4899 C 0.74774 0.44327 0.48905 0.0
C4900 C 0.73629 0.46651 0.50536 0.0
C4901 C 0.71866 0.4566 0.49882 0.0
C4902 C 0.71563 0.44025 0.48703 0.0
C4903 C 0.7302 0.43353 0.48223 0.0
C4904 C 0.70334 0.46393 0.50322 0.0
C4905 C 0.69196 0.46727 0.48815 0.0
C4906 C 0.70079 0.46894 0.52185 0.0
C4907 C 0.71167 0.46452 0.53836 0.0
C4908 C 0.71366 0.44676 0.53942 0.0
C4909 C 0.72346 0.44263 0.55522 0.0
C4910 C 0.73126 0.45611 0.57013 0.0
C4911 C 0.72928 0.47376 0.56928 0.0
C4912 C 0.71953 0.47798 0.55351 0.0
C4913 C 0.63162 0.48911 0.52034 0.0
C4914 C 0.63738 0.50477 0.53335 0.0
C4915 C 0.6442 0.48246 0.51087 0.0
C4916 C 0.66242 0.49163 0.51431 0.0
C4917 C 0.66773 0.50825 0.52581 0.0
C4918 C 0.65525 0.51476 0.53542 0.0
C4919 C 0.67632 0.48216 0.5097 0.0
C4920 C 0.68724 0.47812 0.52481 0.0
C4921 C 0.67832 0.47631 0.49114 0.0
C4922 C 0.66717 0.48003 0.47458 0.0
C4923 C 0.66616 0.4978 0.47213 0.0
C4924 C 0.65671 0.50129 0.45578 0.0
C4925 C 0.64826 0.48712 0.44175 0.0
C4926 C 0.64922 0.46942 0.44406 0.0
C4927 C 0.65863 0.46586 0.46037 0.0
H4928 H 0.64105 0.48987 0.42906 0.0
H4929 H 0.73879 0.45286 0.58236 0.0
H4930 H 0.22627 0.11623 0.50443 0.0
H4931 H 0.19775 0.09372 0.50409 0.0
H4932 H 0.16752 0.13294 0.48914 0.0
H4933 H 0.19544 0.15514 0.48924 0.0
H4934 H 0.15887 0.11801 0.52146 0.0
H4935 H 0.16703 0.10041 0.45814 0.0
H4936 H 0.18267 0.0896 0.4328 0.0
H4937 H 0.18142 0.04003 0.45618 0.0
H4938 H 0.16606 0.05069 0.4819 0.0
H4939 H 0.06691 0.06597 0.48924 0.0
H4940 H 0.09735 0.08388 0.4879 0.0
H4941 H 0.12035 0.04891 0.52146 0.0
H4942 H 0.09005 0.03164 0.52398 0.0
H4943 H 0.13366 0.05968 0.481 0.0
H4944 H 0.12749 0.07951 0.54598 0.0
H4945 H 0.11371 0.09228 0.57188 0.0
H4946 H 0.1111 0.13874 0.54394 0.0
H4947 H 0.12501 0.12627 0.51793 0.0
C4948 C 0.21352 0.1199 0.50076 0.0
C4949 C 0.21315 0.13757 0.49714 0.0
C4950 C 0.19728 0.10705 0.50056 0.0
C4951 C 0.18057 0.11177 0.49673 0.0
C4952 C 0.18027 0.12908 0.49226 0.0
C4953 C 0.19631 0.14178 0.49237 0.0
C4954 C 0.16329 0.09951 0.4989 0.0
C4955 C 0.15335 0.10528 0.51255 0.0
C4956 C 0.15624 0.08282 0.48744 0.0
C4957 C 0.16567 0.07648 0.47214 0.0
C4958 C 0.17032 0.08731 0.45805 0.0
C4959 C 0.17908 0.08119 0.44357 0.0
C4960 C 0.18311 0.06418 0.44293 0.0
C4961 C 0.17835 0.05323 0.45674 0.0
C4962 C 0.16962 0.05932 0.47127 0.0
C4963 C 0.07842 0.06203 0.49631 0.0
C4964 C 0.07599 0.04701 0.5063 0.0
C4965 C 0.09578 0.0723 0.49554 0.0
C4966 C 0.11101 0.06759 0.50449 0.0
C4967 C 0.10871 0.05262 0.51436 0.0
C4968 C 0.09136 0.04263 0.51554 0.0
C4969 C 0.12934 0.07832 0.50348 0.0
C4970 C 0.13936 0.07232 0.49001 0.0
C4971 C 0.13649 0.09492 0.51498 0.0
C4972 C 0.12692 0.10178 0.52985 0.0
C4973 C 0.12368 0.09228 0.5452 0.0
C4974 C 0.11603 0.09957 0.56 0.0
C4975 C 0.1114 0.11625 0.5595 0.0
C4976 C 0.11456 0.12576 0.54426 0.0
C4977 C 0.12238 0.11862 0.52952 0.0
H4978 H 0.10544 0.12183 0.57095 0.0
H4979 H 0.18987 0.05944 0.43169 0.0
H4980 H 0.16872 0.99496 0.75979 0.0
H4981 H 0.18599 0.97179 0.75483 0.0
H4982 H 0.1674 0.94848 0.803 0.0
H4983 H 0.1508 0.97203 0.80846 0.0
H4984 H 0.2006 0.94893 0.8045 0.0
H4985 H 0.15113 0.92993 0.75473 0.0
H4986 H 0.13053 0.93134 0.72651 0.0
H4987 H 0.17535 0.94082 0.69504 0.0
H4988 H 0.19628 0.93982 0.72313 0.0
H4989 H 0.22111 0.8613 0.77282 0.0
H4990 H 0.20742 0.88598 0.78435 0.0
H4991 H 0.23814 0.92119 0.7507 0.0
H4992 H 0.25185 0.89672 0.73932 0.0
H4993 H 0.19851 0.91363 0.74268 0.0
H4994 H 0.2477 0.93302 0.79312 0.0
H4995 H 0.26778 0.93059 0.82133 0.0
H4996 H 0.22206 0.91852 0.85127 0.0
H4997 H 0.20166 0.92061 0.82314 0.0
C4998 C 0.1683 0.98487 0.76931 0.0
C4999 C 0.15837 0.98537 0.78454 0.0
C5000 C 0.17808 0.97151 0.76637 0.0
C5001 C 0.17783 0.95811 0.77835 0.0
C5002 C 0.16787 0.95861 0.79353 0.0
C5003 C 0.15834 0.9721 0.79664 0.0
C5004 C 0.18844 0.94397 0.77558 0.0
C5005 C 0.19986 0.94103 0.791 0.0
C5006 C 0.18786 0.93381 0.75791 0.0
C5007 C 0.17532 0.93504 0.74115 0.0
C5008 C 0.15664 0.93256 0.74187 0.0
C5009 C 0.14489 0.93324 0.72587 0.0
C5010 C 0.15163 0.93623 0.70901 0.0
C5011 C 0.17015 0.93857 0.70812 0.0
C5012 C 0.18196 0.93796 0.72408 0.0
C5013 C 0.22545 0.87453 0.76853 0.0
C5014 C 0.23748 0.87716 0.75518 0.0
C5015 C 0.21759 0.88858 0.77504 0.0
C5016 C 0.22171 0.90536 0.76827 0.0
C5017 C 0.23476 0.90834 0.75605 0.0
C5018 C 0.24261 0.89439 0.74961 0.0
C5019 C 0.21062 0.91884 0.77149 0.0
C5020 C 0.19907 0.92154 0.75614 0.0
C5021 C 0.21094 0.9286 0.7892 0.0
C5022 C 0.22312 0.92667 0.8059 0.0
C5023 C 0.24188 0.92954 0.80561 0.0
C5024 C 0.25334 0.92831 0.82162 0.0
C5025 C 0.24619 0.92431 0.83805 0.0
C5026 C 0.22758 0.92155 0.83851 0.0
C5027 C 0.21606 0.92275 0.82254 0.0
H5028 H 0.25509 0.92343 0.85045 0.0
H5029 H 0.14251 0.93669 0.69663 0.0
H5030 H 0.32851 0.97167 0.00761 0.0
H5031 H 0.35755 0.98706 -0.00126 0.0
H5032 H 0.37378 0.93635 0.99271 0.0
H5033 H 0.34748 0.9221 0.00471 0.0
H5034 H 0.38977 0.96036 0.02421 0.0
H5035 H 0.37671 0.95627 0.95782 0.0
H5036 H 0.35837 0.9598 0.92885 0.0
H5037 H 0.37129 0.0173 0.94416 0.0
H5038 H 0.38958 0.01409 0.97338 0.0
H5039 H 0.48139 0.98541 0.00448 0.0
H5040 H 0.44952 0.97113 0.00452 0.0
H5041 H 0.43807 0.02355 0.01774 0.0
H5042 H 0.47011 0.03777 0.01854 0.0
H5043 H 0.4195 1.00014 0.98132 0.0
H5044 H 0.43282 0.00072 0.04933 0.0
H5045 H 0.44738 0.99343 0.07875 0.0
H5046 H 0.43274 0.93702 0.05744 0.0
H5047 H 0.41819 0.94398 0.02782 0.0
C5048 C 0.33837 0.96395 0.00433 0.0
C5049 C 0.33578 0.94578 0.0072 0.0
C5050 C 0.35454 0.97255 -0.00129 0.0
C5051 C 0.36751 0.96263 0.99515 0.0
C5052 C 0.36369 0.94402 0.99532 0.0
C5053 C 0.34847 0.93587 0.00235 0.0
C5054 C 0.38645 0.97165 -0.00178 0.0
C5055 C 0.39636 0.96888 0.01468 0.0
C5056 C 0.39458 0.98282 0.98585 0.0
C5057 C 0.38441 0.98494 0.96787 0.0
C5058 C 0.3756 0.96967 0.95505 0.0
C5059 C 0.36522 0.97161 0.93857 0.0
C5060 C 0.36363 0.98876 0.93469 0.0
C5061 C 0.37254 0.00402 0.9472 0.0
C5062 C 0.38296 0.00216 0.9637 0.0
C5063 C 0.47223 0.99366 0.00862 0.0
C5064 C 0.47787 0.01245 0.01208 0.0
C5065 C 0.45412 0.98562 0.00824 0.0
C5066 C 0.44181 0.99651 0.01086 0.0
C5067 C 0.44765 0.01517 0.01564 0.0
C5068 C 0.4658 0.02316 0.0164 0.0
C5069 C 0.42267 0.98849 0.00715 0.0
C5070 C 0.4128 0.99154 0.99068 0.0
C5071 C 0.41454 0.97689 0.01913 0.0
C5072 C 0.42451 0.97289 0.03635 0.0
C5073 C 0.43297 0.9868 0.0508 0.0
C5074 C 0.44114 0.98271 0.06755 0.0
C5075 C 0.4409 0.96477 0.06998 0.0
C5076 C 0.43284 0.9509 0.05555 0.0
C5077 C 0.42462 0.95491 0.0388 0.0
H5078 H 0.44679 0.96158 0.08311 0.0
H5079 H 0.3555 0.99024 0.92198 0.0
H5080 H 0.86336 0.56293 0.81897 0.0
H5081 H 0.85121 0.58928 0.81283 0.0
H5082 H 0.82414 0.56114 0.75906 0.0
H5083 H 0.83701 0.53524 0.76488 0.0
H5084 H 0.84345 0.59419 0.75635 0.0
H5085 H 0.79989 0.56668 0.7944 0.0
H5086 H 0.79361 0.5524 0.82273 0.0
H5087 H 0.82073 0.60185 0.85733 0.0
H5088 H 0.82738 0.61636 0.82915 0.0
H5089 H 0.78259 0.64195 0.72581 0.0
H5090 H 0.79181 0.618 0.74179 0.0
H5091 H 0.82474 0.65795 0.78541 0.0
H5092 H 0.81516 0.68201 0.76956 0.0
H5093 H 0.8049 0.62159 0.79631 0.0
H5094 H 0.84658 0.64903 0.7554 0.0
H5095 H 0.8534 0.66066 0.72583 0.0
H5096 H 0.82911 0.60841 0.69519 0.0
H5097 H 0.82185 0.59656 0.72456 0.0
C5098 C 0.85433 0.56231 0.80617 0.0
C5099 C 0.85062 0.54727 0.79249 0.0
C5100 C 0.84758 0.57728 0.80261 0.0
C5101 C 0.8368 0.57695 0.78556 0.0
C5102 C 0.83251 0.56153 0.77225 0.0
C5103 C 0.83957 0.54676 0.77565 0.0
C5104 C 0.83033 0.59287 0.78123 0.0
C5105 C 0.83496 0.60015 0.76501 0.0
C5106 C 0.81961 0.60066 0.79285 0.0
C5107 C 0.81406 0.59263 0.80969 0.0
C5108 C 0.80436 0.57455 0.80805 0.0
C5109 C 0.80082 0.56639 0.82407 0.0
C5110 C 0.80675 0.57622 0.84182 0.0
C5111 C 0.8161 0.59428 0.84356 0.0
C5112 C 0.81972 0.6025 0.82757 0.0
C5113 C 0.79157 0.6455 0.73895 0.0
C5114 C 0.79861 0.66357 0.74639 0.0
C5115 C 0.79662 0.63193 0.74812 0.0
C5116 C 0.80896 0.63641 0.7646 0.0
C5117 C 0.81508 0.65441 0.77275 0.0
C5118 C 0.80984 0.66803 0.76364 0.0
C5119 C 0.81769 0.62258 0.77118 0.0
C5120 C 0.81357 0.61575 0.78782 0.0
C5121 C 0.82875 0.61497 0.7598 0.0
C5122 C 0.83355 0.62195 0.74217 0.0
C5123 C 0.84258 0.64006 0.74234 0.0
C5124 C 0.84654 0.64668 0.72562 0.0
C5125 C 0.84166 0.63529 0.70864 0.0
C5126 C 0.83287 0.61722 0.70835 0.0
C5127 C 0.82885 0.61054 0.72503 0.0
H5128 H 0.84472 0.64045 0.6957 0.0
H5129 H 0.80411 0.56984 0.85421 0.0
H5130 H 0.79064 0.60472 0.99175 0.0
H5131 H 0.81678 0.59116 0.99591 0.0
H5132 H 0.85136 0.64366 0.01559 0.0
H5133 H 0.82517 0.65739 0.01169 0.0
H5134 H 0.86585 0.62239 0.98917 0.0
H5135 H 0.84209 0.61811 0.04703 0.0
H5136 H 0.81917 0.61101 0.06826 0.0
H5137 H 0.80782 0.55495 0.04585 0.0
H5138 H 0.83054 0.56175 0.02431 0.0
H5139 H 0.93949 0.58877 0.03303 0.0
H5140 H 0.91624 0.6045 0.02227 0.0
H5141 H 0.87779 0.55331 0.0074 0.0
H5142 H 0.90106 0.53767 0.01832 0.0
H5143 H 0.86616 0.57552 0.03168 0.0
H5144 H 0.89096 0.58072 0.97353 0.0
H5145 H 0.91484 0.5888 0.95354 0.0
H5146 H 0.92556 0.6442 0.97813 0.0
H5147 H 0.90182 0.63642 -0.00163 0.0
C5148 C 0.80379 0.61343 -0.00307 0.0
C5149 C 0.80578 0.63214 0.00145 0.0
C5150 C 0.81872 0.60564 -0.00066 0.0
C5151 C 0.83599 0.61639 0.00614 0.0
C5152 C 0.83814 0.63513 0.01032 0.0
C5153 C 0.82315 0.64292 0.00815 0.0
C5154 C 0.85166 0.60788 0.00907 0.0
C5155 C 0.86606 0.61229 -0.00137 0.0
C5156 C 0.85182 0.59459 0.02125 0.0
C5157 C 0.83786 0.59047 0.03389 0.0
C5158 C 0.83456 0.6043 0.04647 0.0
C5159 C 0.82164 0.60032 0.0586 0.0
C5160 C 0.812 0.58255 0.05836 0.0
C5161 C 0.81527 0.56872 0.04599 0.0
C5162 C 0.82818 0.57262 0.03383 0.0
C5163 C 0.92628 0.5809 0.02668 0.0
C5164 C 0.92206 0.56204 0.02618 0.0
C5165 C 0.91297 0.58987 0.0206 0.0
C5166 C 0.89522 0.5801 0.01403 0.0
C5167 C 0.89138 0.56114 0.01239 0.0
C5168 C 0.90469 0.55218 0.01843 0.0
C5169 C 0.88021 0.58959 0.01138 0.0
C5170 C 0.86595 0.5855 0.02208 0.0
C5171 C 0.88033 0.60328 -0.00042 0.0
C5172 C 0.89473 0.60795 0.98759 0.0
C5173 C 0.89852 0.5946 0.97479 0.0
C5174 C 0.91199 0.59913 0.96338 0.0
C5175 C 0.92175 0.61699 0.9646 0.0
C5176 C 0.91801 0.63037 0.97721 0.0
C5177 C 0.90452 0.62591 0.98863 0.0
H5178 H 0.93217 0.62047 0.95575 0.0
H5179 H 0.80203 0.5795 0.06779 0.0
H5180 H 0.14458 0.10308 0.79369 0.0
H5181 H 0.16712 0.13059 0.7929 0.0
H5182 H 0.20416 0.09929 0.77449 0.0
H5183 H 0.18137 0.07124 0.77519 0.0
H5184 H 0.21977 0.1312 0.80291 0.0
H5185 H 0.18425 0.11523 0.74217 0.0
H5186 H 0.15578 0.1051 0.72047 0.0
H5187 H 0.13782 0.15175 0.74185 0.0
H5188 H 0.1661 0.16204 0.76385 0.0
H5189 H 0.2677 0.20741 0.76023 0.0
H5190 H 0.2506 0.1773 0.76355 0.0
H5191 H 0.21524 0.20078 0.79574 0.0
H5192 H 0.2331 0.23105 0.79382 0.0
H5193 H 0.20086 0.17142 0.75876 0.0
H5194 H 0.23462 0.18613 0.82087 0.0
H5195 H 0.26226 0.19616 0.84371 0.0
H5196 H 0.2828 0.15177 0.82082 0.0
H5197 H 0.25545 0.14176 0.79745 0.0
C5198 C 0.15755 0.10192 0.78961 0.0
C5199 C 0.1611 0.08496 0.78423 0.0
C5200 C 0.17042 0.1177 0.7892 0.0
C5201 C 0.18711 0.11692 0.78335 0.0
C5202 C 0.19125 0.10007 0.77896 0.0
C5203 C 0.17826 0.08412 0.77937 0.0
C5204 C 0.19955 0.13392 0.7809 0.0
C5205 C 0.21586 0.13985 0.793 0.0
C5206 C 0.19414 0.1453 0.76824 0.0
C5207 C 0.17726 0.13935 0.75474 0.0
C5208 C 0.17419 0.12328 0.74231 0.0
C5209 C 0.15809 0.11751 0.72995 0.0
C5210 C 0.14499 0.12776 0.7298 0.0
C5211 C 0.14799 0.14383 0.74197 0.0
C5212 C 0.16407 0.14965 0.75437 0.0
C5213 C 0.25674 0.20625 0.76865 0.0
C5214 C 0.25219 0.22169 0.77731 0.0
C5215 C 0.24686 0.18902 0.77029 0.0
C5216 C 0.2319 0.18695 0.78008 0.0
C5217 C 0.22695 0.20223 0.78833 0.0
C5218 C 0.23717 0.21948 0.78721 0.0
C5219 C 0.22094 0.16877 0.78092 0.0
C5220 C 0.2049 0.16264 0.76847 0.0
C5221 C 0.22658 0.15729 0.7933 0.0
C5222 C 0.24315 0.16342 0.80714 0.0
C5223 C 0.24517 0.17871 0.82044 0.0
C5224 C 0.26076 0.18435 0.83355 0.0
C5225 C 0.27433 0.17467 0.83365 0.0
C5226 C 0.27232 0.15931 0.82066 0.0
C5227 C 0.25679 0.15367 0.80746 0.0
H5228 H 0.28637 0.17903 0.84385 0.0
H5229 H 0.13252 0.12326 0.72024 0.0
H5230 H 0.37129 0.9613 0.30214 0.0
H5231 H 0.3512 0.93302 0.30613 0.0
H5232 H 0.32094 0.93229 0.25196 0.0
H5233 H 0.34091 0.96123 0.24818 0.0
H5234 H 0.30082 0.9152 0.28094 0.0
H5235 H 0.35701 0.91819 0.25186 0.0
H5236 H 0.39001 0.92715 0.25194 0.0
H5237 H 0.39856 0.90146 0.30111 0.0
H5238 H 0.36561 0.89272 0.30157 0.0
H5239 H 0.27048 0.82272 0.25218 0.0
H5240 H 0.28501 0.85437 0.25085 0.0
H5241 H 0.32579 0.85199 0.29637 0.0
H5242 H 0.31184 0.82028 0.29687 0.0
H5243 H 0.33995 0.87147 0.27345 0.0
H5244 H 0.28689 0.86638 0.30381 0.0
H5245 H 0.25467 0.85743 0.30771 0.0
H5246 H 0.24069 0.88628 0.26255 0.0
H5247 H 0.27279 0.89517 0.25815 0.0
C5248 C 0.35996 0.95536 0.2914 0.0
C5249 C 0.35762 0.9628 0.27466 0.0
C5250 C 0.34848 0.93943 0.29379 0.0
C5251 C 0.33499 0.93074 0.27919 0.0
C5252 C 0.33144 0.93907 0.26326 0.0
C5253 C 0.34288 0.95526 0.26097 0.0
C5254 C 0.32766 0.91158 0.27857 0.0
C5255 C 0.3092 0.9055 0.27919 0.0
C5256 C 0.33904 0.89933 0.27697 0.0
C5257 C 0.35887 0.90506 0.2769 0.0
C5258 C 0.36593 0.91469 0.26284 0.0
C5259 C 0.38463 0.91969 0.26277 0.0
C5260 C 0.39638 0.91493 0.27655 0.0
C5261 C 0.38946 0.9052 0.29048 0.0
C5262 C 0.37078 0.90026 0.29067 0.0
C5263 C 0.28305 0.8289 0.26116 0.0
C5264 C 0.29045 0.81955 0.27443 0.0
C5265 C 0.29107 0.84688 0.26068 0.0
C5266 C 0.30604 0.85541 0.27389 0.0
C5267 C 0.31414 0.84553 0.28617 0.0
C5268 C 0.30634 0.82754 0.28639 0.0
C5269 C 0.31292 0.87481 0.27567 0.0
C5270 C 0.33142 0.88102 0.27529 0.0
C5271 C 0.30164 0.88708 0.27819 0.0
C5272 C 0.28225 0.88127 0.28049 0.0
C5273 C 0.27694 0.87063 0.29455 0.0
C5274 C 0.25869 0.86561 0.29689 0.0
C5275 C 0.24563 0.87124 0.28537 0.0
C5276 C 0.2508 0.88189 0.27145 0.0
C5277 C 0.26902 0.88692 0.26902 0.0
H5278 H 0.23152 0.86739 0.28725 0.0
H5279 H 0.41085 0.91873 0.27641 0.0
H5280 H 0.55704 0.32849 0.54521 0.0
H5281 H 0.55282 0.35754 0.53668 0.0
H5282 H 0.54024 0.37167 0.59209 0.0
H5283 H 0.54326 0.34196 0.60016 0.0
H5284 H 0.52073 0.38552 0.57196 0.0
H5285 H 0.58391 0.39025 0.57226 0.0
H5286 H 0.61161 0.38133 0.56425 0.0
H5287 H 0.59526 0.38336 0.50602 0.0
H5288 H 0.56737 0.39213 0.51366 0.0
H5289 H 0.53609 0.48115 0.56202 0.0
H5290 H 0.53945 0.45175 0.57085 0.0
H5291 H 0.53221 0.43005 0.51258 0.0
H5292 H 0.52814 0.45932 0.50368 0.0
H5293 H 0.56264 0.42114 0.53477 0.0
H5294 H 0.49838 0.41492 0.53624 0.0
H5295 H 0.47054 0.42221 0.54573 0.0
H5296 H 0.49167 0.42514 0.60364 0.0
H5297 H 0.5194 0.41707 0.59444 0.0
C5298 C 0.55328 0.33771 0.55561 0.0
C5299 C 0.55048 0.33259 0.57344 0.0
C5300 C 0.55109 0.35465 0.55077 0.0
C5301 C 0.54667 0.36758 0.56376 0.0
C5302 C 0.54368 0.36234 0.58156 0.0
C5303 C 0.54542 0.34518 0.58625 0.0
C5304 C 0.54472 0.38616 0.55869 0.0
C5305 C 0.53022 0.3933 0.56412 0.0
C5306 C 0.55669 0.39679 0.54816 0.0
C5307 C 0.57348 0.39167 0.54351 0.0
C5308 C 0.58618 0.3887 0.55773 0.0
C5309 C 0.60192 0.38368 0.55327 0.0
C5310 C 0.60516 0.38172 0.53463 0.0
C5311 C 0.59271 0.38486 0.52044 0.0
C5312 C 0.57696 0.38988 0.52483 0.0
C5313 C 0.53513 0.47014 0.55101 0.0
C5314 C 0.53186 0.47286 0.53205 0.0
C5315 C 0.53702 0.45319 0.55613 0.0
C5316 C 0.53615 0.43835 0.54249 0.0
C5317 C 0.533 0.44107 0.52352 0.0
C5318 C 0.53061 0.45791 0.5184 0.0
C5319 C 0.53869 0.42021 0.54801 0.0
C5320 C 0.55332 0.41327 0.54271 0.0
C5321 C 0.52715 0.40996 0.55905 0.0
C5322 C 0.51103 0.41572 0.56467 0.0
C5323 C 0.49718 0.41736 0.551 0.0
C5324 C 0.4814 0.42159 0.55632 0.0
C5325 C 0.47947 0.42455 0.57527 0.0
C5326 C 0.49323 0.42301 0.58896 0.0
C5327 C 0.50893 0.41847 0.58371 0.0
H5328 H 0.46723 0.42786 0.57934 0.0
H5329 H 0.61734 0.37782 0.5312 0.0
H5330 H 0.42519 0.73559 0.40649 0.0
H5331 H 0.39986 0.73877 0.38426 0.0
H5332 H 0.43647 0.77619 0.35774 0.0
H5333 H 0.46207 0.77264 0.37975 0.0
H5334 H 0.40511 0.78866 0.36654 0.0
H5335 H 0.41879 0.73735 0.33354 0.0
H5336 H 0.42603 0.70738 0.33035 0.0
H5337 H 0.37462 0.68369 0.3464 0.0
H5338 H 0.36715 0.71361 0.34991 0.0
H5339 H 0.33697 0.79285 0.2916 0.0
H5340 H 0.3646 0.78907 0.30974 0.0
H5341 H 0.33306 0.74702 0.33567 0.0
H5342 H 0.30534 0.75068 0.31747 0.0
H5343 H 0.36338 0.73727 0.32546 0.0
H5344 H 0.3507 0.78903 0.36029 0.0
H5345 H 0.3448 0.81945 0.36614 0.0
H5346 H 0.39502 0.84255 0.34732 0.0
H5347 H 0.40124 0.81225 0.34137 0.0
C5348 C 0.42794 0.74427 0.39572 0.0
C5349 C 0.44575 0.75372 0.39484 0.0
C5350 C 0.41339 0.74611 0.38301 0.0
C5351 C 0.41613 0.75774 0.36923 0.0
C5352 C 0.43393 0.76711 0.36818 0.0
C5353 C 0.4486 0.76494 0.38068 0.0
C5354 C 0.40025 0.76038 0.35645 0.0
C5355 C 0.3962 0.77749 0.35727 0.0
C5356 C 0.38828 0.7458 0.34462 0.0
C5357 C 0.39247 0.72773 0.34213 0.0
C5358 C 0.40907 0.72576 0.33649 0.0
C5359 C 0.41321 0.70879 0.33461 0.0
C5360 C 0.40081 0.69365 0.33821 0.0
C5361 C 0.38421 0.69544 0.34362 0.0
C5362 C 0.38 0.7124 0.34553 0.0
C5363 C 0.33585 0.78273 0.30111 0.0
C5364 C 0.31878 0.77205 0.30296 0.0
C5365 C 0.35174 0.78066 0.31161 0.0
C5366 C 0.3511 0.76781 0.32428 0.0
C5367 C 0.33408 0.75703 0.32605 0.0
C5368 C 0.31816 0.75921 0.31566 0.0
C5369 C 0.36809 0.76559 0.33563 0.0
C5370 C 0.37235 0.74852 0.33456 0.0
C5371 C 0.3803 0.78024 0.34721 0.0
C5372 C 0.37631 0.79837 0.35014 0.0
C5373 C 0.36037 0.80058 0.35718 0.0
C5374 C 0.357 0.8178 0.36057 0.0
C5375 C 0.36945 0.8329 0.35697 0.0
C5376 C 0.38535 0.83083 0.35003 0.0
C5377 C 0.38883 0.81365 0.34669 0.0
H5378 H 0.36683 0.84623 0.35965 0.0
H5379 H 0.40406 0.68052 0.33679 0.0
H5380 H 0.0194 0.72409 0.07771 0.0
H5381 H 0.01425 0.69129 0.06904 0.0
H5382 H 0.0695 0.69786 0.05803 0.0
H5383 H 0.07417 0.73042 0.06534 0.0
H5384 H 0.05271 0.6743 0.0336 0.0
H5385 H 0.04825 0.67971 0.10016 0.0
H5386 H 0.03608 0.68732 0.12938 0.0
H5387 H 0.98365 0.6552 0.10566 0.0
H5388 H 0.99546 0.64758 0.07625 0.0
H5389 H 0.06008 0.58255 0.03444 0.0
H5390 H 0.06279 0.61498 0.04189 0.0
H5391 H 0.00523 0.60549 0.04273 0.0
H5392 H 0.0025 0.57311 0.03493 0.0
H5393 H 0.0216 0.62976 0.07126 0.0
H5394 H 0.02646 0.62341 0.00556 0.0
H5395 H 0.03895 0.61422 0.97706 0.0
H5396 H 0.09114 0.64731 3e-05 0.0
H5397 H 0.07903 0.65652 0.02878 0.0
C5398 C 0.03039 0.71853 0.07328 0.0
C5399 C 0.04716 0.73014 0.07208 0.0
C5400 C 0.02753 0.6996 0.06853 0.0
C5401 C 0.04154 0.69156 0.06306 0.0
C5402 C 0.05826 0.70328 0.06198 0.0
C5403 C 0.06096 0.72212 0.06621 0.0
C5404 C 0.03901 0.67123 0.058 0.0
C5405 C 0.04613 0.66472 0.04215 0.0
C5406 C 0.02991 0.65815 0.06848 0.0
C5407 C 0.02269 0.66329 0.08592 0.0
C5408 C 0.03408 0.67445 0.10111 0.0
C5409 C 0.02726 0.67872 0.11772 0.0
C5410 C 0.00909 0.6718 0.11935 0.0
C5411 C 0.9977 0.6606 0.10437 0.0
C5412 C 0.00445 0.65631 0.08773 0.0
C5413 C 0.04797 0.58729 0.03579 0.0
C5414 C 0.03111 0.57491 0.03359 0.0
C5415 C 0.04951 0.606 0.04021 0.0
C5416 C 0.03418 0.61304 0.04265 0.0
C5417 C 0.01735 0.60067 0.04089 0.0
C5418 C 0.01582 0.58199 0.03639 0.0
C5419 C 0.03564 0.63312 0.04727 0.0
C5420 C 0.02824 0.63949 0.06288 0.0
C5421 C 0.04456 0.64607 0.03667 0.0
C5422 C 0.05186 0.64054 0.01939 0.0
C5423 C 0.04063 0.62863 0.00459 0.0
C5424 C 0.04764 0.62343 0.98838 0.0
C5425 C 0.06583 0.63017 0.98675 0.0
C5426 C 0.07705 0.64211 0.00132 0.0
C5427 C 0.07012 0.64733 0.01757 0.0
H5428 H 0.07121 0.62617 0.97417 0.0
H5429 H 0.00385 0.67508 0.13223 0.0
H5430 H 0.03279 0.24829 0.87496 0.0
H5431 H 0.05751 0.24555 0.85659 0.0
H5432 H 0.09509 0.28337 0.89872 0.0
H5433 H 0.07048 0.28686 0.91632 0.0
H5434 H 0.10257 0.29234 0.86849 0.0
H5435 H 0.09092 0.23411 0.89 0.0
H5436 H 0.07349 0.20401 0.89421 0.0
H5437 H 0.06334 0.18904 0.83458 0.0
H5438 H 0.08047 0.21916 0.83 0.0
H5439 H 0.18561 0.28079 0.84309 0.0
H5440 H 0.15943 0.27355 0.85983 0.0
H5441 H 0.12478 0.2556 0.80726 0.0
H5442 H 0.15104 0.26343 0.79041 0.0
H5443 H 0.11518 0.23509 0.84066 0.0
H5444 H 0.12789 0.29479 0.82085 0.0
H5445 H 0.14668 0.32479 0.81848 0.0
H5446 H 0.15632 0.3365 0.87845 0.0
H5447 H 0.13788 0.3064 0.88119 0.0
C5448 C 0.04635 0.25601 0.88024 0.0
C5449 C 0.04959 0.2679 0.89708 0.0
C5450 C 0.06056 0.25431 0.86981 0.0
C5451 C 0.07842 0.26411 0.87622 0.0
C5452 C 0.08156 0.27571 0.89322 0.0
C5453 C 0.06739 0.27771 0.90335 0.0
C5454 C 0.09382 0.26331 0.86507 0.0
C5455 C 0.10535 0.27971 0.86274 0.0
C5456 C 0.09746 0.24695 0.85692 0.0
C5457 C 0.08679 0.22899 0.85965 0.0
C5458 C 0.0848 0.22448 0.87777 0.0
C5459 C 0.075 0.2074 0.88023 0.0
C5460 C 0.06726 0.19465 0.86467 0.0
C5461 C 0.0693 0.19895 0.84662 0.0
C5462 C 0.07905 0.21603 0.84409 0.0
C5463 C 0.17259 0.27459 0.83509 0.0
C5464 C 0.17049 0.2725 0.81539 0.0
C5465 C 0.15755 0.27055 0.8447 0.0
C5466 C 0.14007 0.26419 0.83482 0.0
C5467 C 0.13812 0.26042 0.81521 0.0
C5468 C 0.15317 0.26473 0.80557 0.0
C5469 C 0.12389 0.26403 0.84474 0.0
C5470 C 0.11226 0.24758 0.84664 0.0
C5471 C 0.12027 0.28029 0.85288 0.0
C5472 C 0.13173 0.29822 0.85122 0.0
C5473 C 0.13425 0.30364 0.83353 0.0
C5474 C 0.14479 0.32069 0.83213 0.0
C5475 C 0.15276 0.33251 0.8483 0.0
C5476 C 0.1502 0.32731 0.86593 0.0
C5477 C 0.13972 0.31025 0.86742 0.0
H5478 H 0.16087 0.34574 0.84718 0.0
H5479 H 0.05972 0.18141 0.8666 0.0
H5480 H 0.54896 0.76666 0.92124 0.0
H5481 H 0.54773 0.73791 0.93367 0.0
H5482 H 0.52816 0.70921 0.87835 0.0
H5483 H 0.52978 0.7382 0.86572 0.0
H5484 H 0.50749 0.69658 0.90852 0.0
H5485 H 0.56828 0.70845 0.89369 0.0
H5486 H 0.59822 0.72848 0.89364 0.0
H5487 H 0.60681 0.73542 0.95379 0.0
H5488 H 0.57676 0.71561 0.95419 0.0
H5489 H 0.50927 0.6115 0.93455 0.0
H5490 H 0.51795 0.6377 0.91796 0.0
H5491 H 0.54339 0.66992 0.9702 0.0
H5492 H 0.53475 0.64354 0.98681 0.0
H5493 H 0.56169 0.68026 0.94012 0.0
H5494 H 0.50154 0.66985 0.95572 0.0
H5495 H 0.47084 0.65207 0.9571 0.0
H5496 H 0.46008 0.64434 0.89703 0.0
H5497 H 0.49089 0.6618 0.89528 0.0
C5498 C 0.54481 0.75423 0.91164 0.0
C5499 C 0.53982 0.75467 0.89245 0.0
C5500 C 0.54399 0.73781 0.91878 0.0
C5501 C 0.53785 0.72138 0.90696 0.0
C5502 C 0.53297 0.72173 0.88772 0.0
C5503 C 0.53415 0.73826 0.88047 0.0
C5504 C 0.53649 0.704 0.91498 0.0
C5505 C 0.51936 0.69278 0.91505 0.0
C5506 C 0.55189 0.69938 0.92411 0.0
C5507 C 0.57028 0.71059 0.92397 0.0
C5508 C 0.57655 0.71427 0.90691 0.0
C5509 C 0.59352 0.72559 0.90682 0.0
C5510 C 0.60441 0.73322 0.92371 0.0
C5511 C 0.59836 0.72947 0.94072 0.0
C5512 C 0.58138 0.71817 0.94089 0.0
C5513 C 0.51742 0.62396 0.94235 0.0
C5514 C 0.52158 0.62543 0.96191 0.0
C5515 C 0.5222 0.63901 0.9329 0.0
C5516 C 0.53105 0.65592 0.94285 0.0
C5517 C 0.53657 0.65705 0.9622 0.0
C5518 C 0.53177 0.64194 0.97168 0.0
C5519 C 0.53268 0.67259 0.93341 0.0
C5520 C 0.54982 0.68383 0.9333 0.0
C5521 C 0.51722 0.67733 0.92438 0.0
C5522 C 0.49861 0.66696 0.92536 0.0
C5523 C 0.49269 0.66423 0.94279 0.0
C5524 C 0.47526 0.65422 0.94365 0.0
C5525 C 0.46353 0.64704 0.92716 0.0
C5526 C 0.4692 0.64988 0.90979 0.0
C5527 C 0.48665 0.65983 0.90885 0.0
H5528 H 0.45003 0.6393 0.92785 0.0
H5529 H 0.61753 0.74203 0.92361 0.0
H5530 H 0.07 0.72457 0.6987 0.0
H5531 H 0.10269 0.72883 0.70623 0.0
H5532 H 0.10612 0.7825 0.73363 0.0
H5533 H 0.07324 0.77856 0.72481 0.0
H5534 H 0.13466 0.78388 0.71771 0.0
H5535 H 0.10813 0.74219 0.75782 0.0
H5536 H 0.08778 0.71471 0.76489 0.0
H5537 H 0.11364 0.68174 0.73036 0.0
H5538 H 0.13401 0.70903 0.72293 0.0
H5539 H 0.22462 0.79285 0.76215 0.0
H5540 H 0.19207 0.79025 0.75532 0.0
H5541 H 0.18545 0.73553 0.72907 0.0
H5542 H 0.21801 0.73788 0.73717 0.0
H5543 H 0.15842 0.73549 0.74532 0.0
H5544 H 0.18526 0.77772 0.70529 0.0
H5545 H 0.20487 0.8055 0.69783 0.0
H5546 H 0.17852 0.8378 0.73251 0.0
H5547 H 0.15893 0.81024 0.74039 0.0
C5548 C 0.07771 0.73731 0.70633 0.0
C5549 C 0.06891 0.75113 0.71131 0.0
C5550 C 0.09652 0.73971 0.71083 0.0
C5551 C 0.1072 0.7558 0.72117 0.0
C5552 C 0.09843 0.76985 0.72582 0.0
C5553 C 0.07956 0.7676 0.72083 0.0
C5554 C 0.12734 0.75778 0.72703 0.0
C5555 C 0.13977 0.77336 0.72399 0.0
C5556 C 0.13446 0.74405 0.73495 0.0
C5557 C 0.1225 0.72764 0.73974 0.0
C5558 C 0.10943 0.72907 0.75171 0.0
C5559 C 0.09789 0.71353 0.75577 0.0
C5560 C 0.09939 0.69649 0.74805 0.0
C5561 C 0.11249 0.69495 0.73632 0.0
C5562 C 0.12405 0.71044 0.73221 0.0
C5563 C 0.21619 0.78023 0.75495 0.0
C5564 C 0.22398 0.76558 0.75018 0.0
C5565 C 0.19748 0.77879 0.75081 0.0
C5566 C 0.18594 0.76286 0.74102 0.0
C5567 C 0.19377 0.74807 0.73651 0.0
C5568 C 0.21248 0.74937 0.74116 0.0
C5569 C 0.16583 0.76149 0.73578 0.0
C5570 C 0.15337 0.74602 0.739 0.0
C5571 C 0.15873 0.77536 0.72808 0.0
C5572 C 0.17066 0.7919 0.72346 0.0
C5573 C 0.18372 0.79074 0.7114 0.0
C5574 C 0.19482 0.80645 0.7071 0.0
C5575 C 0.19284 0.82337 0.71462 0.0
C5576 C 0.17996 0.82466 0.72664 0.0
C5577 C 0.16885 0.80901 0.73102 0.0
H5578 H 0.20114 0.83551 0.711 0.0
H5579 H 0.09043 0.68448 0.75118 0.0
H5580 H 0.01236 0.34128 0.40599 0.0
H5581 H 0.01327 0.3702 0.42287 0.0
H5582 H 0.06225 0.39319 0.40128 0.0
H5583 H 0.06165 0.3633 0.38393 0.0
H5584 H 0.06301 0.40537 0.43978 0.0
H5585 H 0.02193 0.40205 0.3838 0.0
H5586 H 0.99626 0.38774 0.35946 0.0
H5587 H 0.96013 0.38371 0.40106 0.0
H5588 H 0.98562 0.39779 0.4257 0.0
H5589 H 0.05118 0.49498 0.47009 0.0
H5590 H 0.0551 0.46773 0.45147 0.0
H5591 H 0.00849 0.43627 0.4709 0.0
H5592 H 0.00478 0.46338 0.48991 0.0
H5593 H 0.00795 0.42988 0.43162 0.0
H5594 H 0.04757 0.4308 0.48736 0.0
H5595 H 0.07259 0.4427 0.51308 0.0
H5596 H 0.11052 0.44975 0.4734 0.0
H5597 H 0.08572 0.43803 0.44738 0.0
C5598 C 0.0235 0.35229 0.40455 0.0
C5599 C 0.03693 0.34964 0.39323 0.0
C5600 C 0.02387 0.36906 0.41434 0.0
C5601 C 0.03756 0.38418 0.4132 0.0
C5602 C 0.05138 0.38179 0.40231 0.0
C5603 C 0.05103 0.36469 0.39234 0.0
C5604 C 0.03693 0.40212 0.42358 0.0
C5605 C 0.05118 0.41099 0.43762 0.0
C5606 C 0.02117 0.4092 0.42145 0.0
C5607 C 0.00573 0.40092 0.40662 0.0
C5608 C 0.00853 0.39804 0.38778 0.0
C5609 C 0.994 0.38997 0.37392 0.0
C5610 C 0.97658 0.38481 0.37871 0.0
C5611 C 0.97364 0.38773 0.39737 0.0
C5612 C 0.98812 0.39579 0.41128 0.0
C5613 C 0.0418 0.48225 0.47048 0.0
C5614 C 0.02767 0.48146 0.48157 0.0
C5615 C 0.0441 0.46662 0.45985 0.0
C5616 C 0.03213 0.4498 0.45971 0.0
C5617 C 0.01794 0.449 0.4707 0.0
C5618 C 0.01587 0.46455 0.48165 0.0
C5619 C 0.03409 0.43322 0.44771 0.0
C5620 C 0.01997 0.4245 0.43351 0.0
C5621 C 0.04988 0.42624 0.44981 0.0
C5622 C 0.06474 0.4338 0.46538 0.0
C5623 C 0.06121 0.43514 0.48408 0.0
C5624 C 0.07535 0.44179 0.49872 0.0
C5625 C 0.0931 0.44709 0.49487 0.0
C5626 C 0.09675 0.44571 0.47636 0.0
C5627 C 0.08266 0.43904 0.46165 0.0
H5628 H 0.10403 0.4522 0.50623 0.0
H5629 H 0.96536 0.37856 0.36797 0.0
H5630 H 0.47542 0.27552 0.21982 0.0
H5631 H 0.44593 0.27875 0.22892 0.0
H5632 H 0.42164 0.22453 0.20277 0.0
H5633 H 0.45112 0.2211 0.19435 0.0
H5634 H 0.39969 0.24879 0.19408 0.0
H5635 H 0.42908 0.23141 0.24856 0.0
H5636 H 0.45353 0.23319 0.27438 0.0
H5637 H 0.44881 0.28637 0.29523 0.0
H5638 H 0.42443 0.28497 0.26938 0.0
H5639 H 0.31472 0.23584 0.22999 0.0
H5640 H 0.34419 0.23328 0.2212 0.0
H5641 H 0.36963 0.28253 0.25739 0.0
H5642 H 0.34041 0.2846 0.2669 0.0
H5643 H 0.39141 0.26134 0.26069 0.0
H5644 H 0.36143 0.27845 0.20597 0.0
H5645 H 0.33698 0.27622 0.18 0.0
H5646 H 0.34288 0.22342 0.15928 0.0
H5647 H 0.36724 0.22527 0.18526 0.0
C5648 C 0.46376 0.26435 0.21587 0.0
C5649 C 0.46573 0.24809 0.20616 0.0
C5650 C 0.44683 0.26615 0.2212 0.0
C5651 C 0.43124 0.25189 0.21663 0.0
C5652 C 0.43321 0.23582 0.20653 0.0
C5653 C 0.45017 0.23387 0.20167 0.0
C5654 C 0.41301 0.25352 0.22245 0.0
C5655 C 0.39791 0.25137 0.20868 0.0
C5656 C 0.41036 0.25717 0.24145 0.0
C5657 C 0.4251 0.25818 0.2569 0.0
C5658 C 0.43339 0.24356 0.25854 0.0
C5659 C 0.44719 0.24448 0.27321 0.0
C5660 C 0.45277 0.25991 0.28639 0.0
C5661 C 0.4445 0.27444 0.28497 0.0
C5662 C 0.43068 0.27359 0.27033 0.0
C5663 C 0.32653 0.24619 0.23615 0.0
C5664 C 0.32473 0.26068 0.24903 0.0
C5665 C 0.34356 0.24478 0.23092 0.0
C5666 C 0.35955 0.25791 0.23816 0.0
C5667 C 0.3578 0.27217 0.2513 0.0
C5668 C 0.34081 0.27349 0.25664 0.0
C5669 C 0.37796 0.25672 0.23229 0.0
C5670 C 0.39313 0.25889 0.24606 0.0
C5671 C 0.38068 0.25311 0.21325 0.0
C5672 C 0.36603 0.25193 0.19766 0.0
C5673 C 0.35742 0.26632 0.19595 0.0
C5674 C 0.3436 0.26513 0.18121 0.0
C5675 C 0.33835 0.24967 0.16802 0.0
C5676 C 0.34695 0.23538 0.16952 0.0
C5677 C 0.36077 0.2365 0.18423 0.0
H5678 H 0.32765 0.24878 0.15663 0.0
H5679 H 0.46346 0.26059 0.29775 0.0
H5680 H 0.61809 0.51319 0.33543 0.0
H5681 H 0.60987 0.51081 0.36716 0.0
H5682 H 0.5677 0.53912 0.35499 0.0
H5683 H 0.57573 0.54158 0.32372 0.0
H5684 H 0.58684 0.5529 0.38802 0.0
H5685 H 0.55855 0.49405 0.3556 0.0
H5686 H 0.55806 0.46511 0.33689 0.0
H5687 H 0.59365 0.45215 0.38091 0.0
H5688 H 0.59466 0.48124 0.39974 0.0
H5689 H 0.52881 0.53627 0.45681 0.0
H5690 H 0.54217 0.53733 0.4277 0.0
H5691 H 0.58063 0.50792 0.44891 0.0
H5692 H 0.56698 0.50643 0.47797 0.0
H5693 H 0.56744 0.49499 0.41329 0.0
H5694 H 0.59518 0.55579 0.44539 0.0
H5695 H 0.59598 0.58613 0.46154 0.0
H5696 H 0.55859 0.59487 0.41668 0.0
H5697 H 0.55798 0.5649 0.4 0.0
C5698 C 0.60694 0.5187 0.33948 0.0
C5699 C 0.59756 0.52754 0.32695 0.0
C5700 C 0.60229 0.51739 0.35763 0.0
C5701 C 0.58818 0.52485 0.36351 0.0
C5702 C 0.57872 0.53339 0.35089 0.0
C5703 C 0.58329 0.53467 0.3329 0.0
C5704 C 0.58303 0.52402 0.38274 0.0
C5705 C 0.58254 0.54021 0.3935 0.0
C5706 C 0.57771 0.50754 0.39009 0.0
C5707 C 0.57688 0.48992 0.37897 0.0
C5708 C 0.5664 0.4851 0.36123 0.0
C5709 C 0.56602 0.46867 0.35061 0.0
C5710 C 0.57587 0.45683 0.35768 0.0
C5711 C 0.58607 0.46137 0.37543 0.0
C5712 C 0.58656 0.47783 0.38608 0.0
C5713 C 0.54007 0.52996 0.45528 0.0
C5714 C 0.54687 0.52134 0.46978 0.0
C5715 C 0.54785 0.53075 0.43867 0.0
C5716 C 0.56271 0.52305 0.4362 0.0
C5717 C 0.5693 0.51411 0.45051 0.0
C5718 C 0.56149 0.51327 0.46713 0.0
C5719 C 0.57093 0.52388 0.41844 0.0
C5720 C 0.57201 0.5077 0.40795 0.0
C5721 C 0.57655 0.54037 0.41115 0.0
C5722 C 0.57641 0.55807 0.42155 0.0
C5723 C 0.58703 0.56414 0.43906 0.0
C5724 C 0.58749 0.58127 0.44827 0.0
C5725 C 0.57718 0.59229 0.44026 0.0
C5726 C 0.56652 0.5863 0.42291 0.0
C5727 C 0.56621 0.56931 0.41351 0.0
H5728 H 0.57754 0.60552 0.44744 0.0
H5729 H 0.57556 0.44411 0.34943 0.0
H5730 H 0.294 0.91196 0.05994 0.0
H5731 H 0.28835 0.89952 0.08919 0.0
H5732 H 0.28064 0.84552 0.06015 0.0
H5733 H 0.28561 0.85805 0.03088 0.0
H5734 H 0.25675 0.84695 0.08302 0.0
H5735 H 0.32072 0.86752 0.08454 0.0
H5736 H 0.34915 0.88954 0.08312 0.0
H5737 H 0.34038 0.92227 0.13149 0.0
H5738 H 0.3117 0.90059 0.13302 0.0
H5739 H 0.29499 0.79771 0.14751 0.0
H5740 H 0.28186 0.81234 0.12271 0.0
H5741 H 0.28126 0.85764 0.16323 0.0
H5742 H 0.29442 0.8431 0.18803 0.0
H5743 H 0.3052 0.86469 0.13732 0.0
H5744 H 0.24078 0.8377 0.13514 0.0
H5745 H 0.21319 0.81338 0.13264 0.0
H5746 H 0.22684 0.78803 0.08218 0.0
H5747 H 0.25443 0.81218 0.08438 0.0
C5748 C 0.29067 0.89745 0.05997 0.0
C5749 C 0.29 0.88569 0.0437 0.0
C5750 C 0.28761 0.89043 0.07649 0.0
C5751 C 0.28429 0.87172 0.07665 0.0
C5752 C 0.28312 0.86001 0.0601 0.0
C5753 C 0.28593 0.86704 0.04356 0.0
C5754 C 0.2827 0.86419 0.09417 0.0
C5755 C 0.26731 0.85076 0.09497 0.0
C5756 C 0.29652 0.86952 0.10957 0.0
C5757 C 0.31389 0.88254 0.10874 0.0
C5758 C 0.32475 0.87949 0.09478 0.0
C5759 C 0.34093 0.8919 0.09396 0.0
C5760 C 0.34653 0.90733 0.10716 0.0
C5761 C 0.33599 0.91034 0.12124 0.0
C5762 C 0.31977 0.89799 0.12209 0.0
C5763 C 0.29161 0.81058 0.1511 0.0
C5764 C 0.29607 0.81957 0.16941 0.0
C5765 C 0.28381 0.81874 0.13708 0.0
C5766 C 0.28059 0.83598 0.14129 0.0
C5767 C 0.28349 0.84422 0.15987 0.0
C5768 C 0.29116 0.83601 0.17392 0.0
C5769 C 0.27929 0.84705 0.12614 0.0
C5770 C 0.29433 0.86121 0.12567 0.0
C5771 C 0.26561 0.84176 0.11064 0.0
C5772 C 0.24971 0.82664 0.11005 0.0
C5773 C 0.238 0.8268 0.12367 0.0
C5774 C 0.22231 0.8131 0.12224 0.0
C5775 C 0.2183 0.79914 0.1073 0.0
C5776 C 0.22996 0.79883 0.09376 0.0
C5777 C 0.24559 0.81253 0.09507 0.0
H5778 H 0.20612 0.78859 0.10619 0.0
H5779 H 0.35906 0.91692 0.10651 0.0
H5780 H 0.89226 0.52738 0.85327 0.0
H5781 H 0.91358 0.5311 0.88226 0.0
H5782 H 0.94287 0.49589 0.85468 0.0
H5783 H 0.92128 0.49152 0.82641 0.0
H5784 H 0.93494 0.48582 0.88643 0.0
H5785 H 0.96059 0.54077 0.86343 0.0
H5786 H 0.96074 0.56988 0.85152 0.0
H5787 H 0.94452 0.5905 0.90276 0.0
H5788 H 0.9441 0.56144 0.91491 0.0
H5789 H 0.00966 0.49797 0.95583 0.0
H5790 H 0.99075 0.49737 0.92642 0.0
H5791 H 0.96317 0.53445 0.95364 0.0
H5792 H 0.98336 0.53664 0.98261 0.0
H5793 H 0.97064 0.54382 0.92167 0.0
H5794 H 0.9429 0.48442 0.9419 0.0
H5795 H 0.9433 0.45383 0.95028 0.0
H5796 H 0.96721 0.44175 0.90107 0.0
H5797 H 0.96644 0.47186 0.89206 0.0
C5798 C 0.9032 0.52039 0.85372 0.0
C5799 C 0.90519 0.50889 0.8382 0.0
C5800 C 0.91539 0.52268 0.86997 0.0
C5801 C 0.92969 0.51382 0.87031 0.0
C5802 C 0.93179 0.5027 0.85454 0.0
C5803 C 0.91946 0.5001 0.83859 0.0
C5804 C 0.94176 0.51482 0.88749 0.0
C5805 C 0.94287 0.49849 0.8941 0.0
C5806 C 0.9519 0.53138 0.89727 0.0
C5807 C 0.95211 0.54886 0.88999 0.0
C5808 C 0.9569 0.55146 0.87209 0.0
C5809 C 0.95708 0.56796 0.86532 0.0
C5810 C 0.95259 0.58201 0.87635 0.0
C5811 C 0.94797 0.5796 0.89421 0.0
C5812 C 0.94778 0.56313 0.90106 0.0
C5813 C 0.99968 0.50613 0.95545 0.0
C5814 C 0.99787 0.51735 0.97135 0.0
C5815 C 0.98874 0.50554 0.93878 0.0
C5816 C 0.97535 0.51549 0.93815 0.0
C5817 C 0.97345 0.52663 0.95403 0.0
C5818 C 0.98488 0.52779 0.97051 0.0
C5819 C 0.96361 0.51479 0.92075 0.0
C5820 C 0.9626 0.53118 0.91405 0.0
C5821 C 0.95385 0.49822 0.91056 0.0
C5822 C 0.95477 0.4804 0.91644 0.0
C5823 C 0.94835 0.47526 0.93297 0.0
C5824 C 0.9486 0.45803 0.9378 0.0
C5825 C 0.95548 0.44602 0.92638 0.0
C5826 C 0.96195 0.45109 0.90996 0.0
C5827 C 0.96149 0.46816 0.90491 0.0
H5828 H 0.95569 0.43274 0.93019 0.0
H5829 H 0.95272 0.59478 0.87108 0.0
H5830 H 0.26264 0.22759 0.55765 0.0
H5831 H 0.2658 0.23726 0.59112 0.0
H5832 H 0.2858 0.19027 0.60245 0.0
H5833 H 0.28243 0.18027 0.56858 0.0
H5834 H 0.25917 0.19585 0.62417 0.0
H5835 H 0.31473 0.23106 0.61033 0.0
H5836 H 0.33336 0.251 0.5917 0.0
H5837 H 0.30419 0.29206 0.60364 0.0
H5838 H 0.28525 0.27227 0.62219 0.0
H5839 H 0.28476 0.22905 0.72127 0.0
H5840 H 0.28494 0.21802 0.68852 0.0
H5841 H 0.26366 0.2626 0.67144 0.0
H5842 H 0.26341 0.27383 0.70435 0.0
H5843 H 0.29269 0.25722 0.65313 0.0
H5844 H 0.23686 0.222 0.66652 0.0
H5845 H 0.217 0.20164 0.6837 0.0
H5846 H 0.24573 0.1602 0.67182 0.0
H5847 H 0.26603 0.18045 0.65487 0.0
C5848 C 0.26794 0.21936 0.56719 0.0
C5849 C 0.27231 0.20314 0.56039 0.0
C5850 C 0.26977 0.22496 0.58638 0.0
C5851 C 0.27613 0.21457 0.59936 0.0
C5852 C 0.28088 0.19852 0.59269 0.0
C5853 C 0.27911 0.1929 0.57334 0.0
C5854 C 0.27716 0.22044 0.6198 0.0
C5855 C 0.26681 0.20911 0.63063 0.0
C5856 C 0.28672 0.23794 0.62811 0.0
C5857 C 0.29853 0.25016 0.61759 0.0
C5858 C 0.31227 0.24433 0.60896 0.0
C5859 C 0.32288 0.2556 0.59841 0.0
C5860 C 0.31995 0.27278 0.59647 0.0
C5861 C 0.30646 0.27875 0.60517 0.0
C5862 C 0.29581 0.26754 0.61575 0.0
C5863 C 0.28004 0.23655 0.71061 0.0
C5864 C 0.27402 0.25235 0.71551 0.0
C5865 C 0.28012 0.23015 0.69183 0.0
C5866 C 0.27424 0.23941 0.67748 0.0
C5867 C 0.26827 0.25523 0.68228 0.0
C5868 C 0.26805 0.26159 0.70111 0.0
C5869 C 0.27461 0.23266 0.65752 0.0
C5870 C 0.28521 0.24387 0.64677 0.0
C5871 C 0.26527 0.21503 0.64932 0.0
C5872 C 0.25313 0.20284 0.6596 0.0
C5873 C 0.23909 0.20862 0.66774 0.0
C5874 C 0.22772 0.19708 0.67741 0.0
C5875 C 0.23013 0.17965 0.67889 0.0
C5876 C 0.2439 0.17372 0.67069 0.0
C5877 C 0.25535 0.18523 0.66105 0.0
H5878 H 0.22129 0.17072 0.68635 0.0
H5879 H 0.32813 0.28146 0.58824 0.0
H5880 H 0.60872 0.55449 0.21924 0.0
H5881 H 0.59859 0.55191 0.18574 0.0
H5882 H 0.57408 0.49547 0.18529 0.0
H5883 H 0.58503 0.49794 0.21905 0.0
H5884 H 0.58895 0.50114 0.15346 0.0
H5885 H 0.5486 0.52771 0.18735 0.0
H5886 H 0.54109 0.54941 0.21109 0.0
H5887 H 0.56534 0.59342 0.18302 0.0
H5888 H 0.57322 0.57199 0.15923 0.0
H5889 H 0.53217 0.49573 0.06718 0.0
H5890 H 0.54417 0.49515 0.09967 0.0
H5891 H 0.56936 0.5519 0.1047 0.0
H5892 H 0.55732 0.55258 0.07214 0.0
H5893 H 0.55301 0.54481 0.13443 0.0
H5894 H 0.59386 0.51854 0.10095 0.0
H5895 H 0.60351 0.49724 0.07848 0.0
H5896 H 0.57894 0.45287 0.10589 0.0
H5897 H 0.56893 0.47388 0.12841 0.0
C5898 C 0.60138 0.54146 0.21192 0.0
C5899 C 0.59756 0.52643 0.22166 0.0
C5900 C 0.59549 0.54002 0.1928 0.0
C5901 C 0.58512 0.52362 0.18302 0.0
C5902 C 0.58195 0.5083 0.19255 0.0
C5903 C 0.58819 0.50968 0.21178 0.0
C5904 C 0.57711 0.52292 0.16313 0.0
C5905 C 0.58082 0.51046 0.14933 0.0
C5906 C 0.56681 0.53535 0.15762 0.0
C5907 C 0.56158 0.54824 0.17156 0.0
C5908 C 0.55237 0.54202 0.18626 0.0
C5909 C 0.54806 0.55427 0.19974 0.0
C5910 C 0.55276 0.57278 0.19858 0.0
C5911 C 0.56171 0.57907 0.18389 0.0
C5912 C 0.56607 0.56688 0.17039 0.0
C5913 C 0.54028 0.50813 0.07515 0.0
C5914 C 0.54359 0.52429 0.06703 0.0
C5915 C 0.54724 0.50773 0.09375 0.0
C5916 C 0.55783 0.52344 0.10469 0.0
C5917 C 0.56121 0.53959 0.09661 0.0
C5918 C 0.55426 0.53999 0.07796 0.0
C5919 C 0.56499 0.52312 0.12466 0.0
C5920 C 0.56105 0.53539 0.13852 0.0
C5921 C 0.57504 0.51049 0.13018 0.0
C5922 C 0.58055 0.49778 0.1163 0.0
C5923 C 0.59035 0.50422 0.10207 0.0
C5924 C 0.59592 0.49221 0.08936 0.0
C5925 C 0.5919 0.47374 0.09082 0.0
C5926 C 0.58209 0.4672 0.10483 0.0
C5927 C 0.57648 0.47915 0.11758 0.0
H5928 H 0.59651 0.46451 0.08119 0.0
H5929 H 0.54944 0.58225 0.20905 0.0
H5930 H 0.27469 0.90312 0.93627 0.0
H5931 H 0.26858 0.88484 0.90526 0.0
H5932 H 0.30249 0.8505 0.92575 0.0
H5933 H 0.30912 0.8687 0.95596 0.0
H5934 H 0.31208 0.86451 0.89518 0.0
H5935 H 0.25947 0.83584 0.92035 0.0
H5936 H 0.23087 0.83357 0.93369 0.0
H5937 H 0.20631 0.84955 0.88387 0.0
H5938 H 0.23491 0.85229 0.87038 0.0
H5939 H 0.29911 0.78926 0.82771 0.0
H5940 H 0.30006 0.8084 0.85674 0.0
H5941 H 0.262 0.83514 0.82933 0.0
H5942 H 0.25938 0.81458 0.80064 0.0
H5943 H 0.25369 0.82726 0.86201 0.0
H5944 H 0.31401 0.85937 0.84184 0.0
H5945 H 0.34515 0.86045 0.83451 0.0
H5946 H 0.35527 0.83084 0.88018 0.0
H5947 H 0.32467 0.83042 0.88838 0.0
C5948 C 0.28079 0.89167 0.93395 0.0
C5949 C 0.29249 0.88728 0.94816 0.0
C5950 C 0.27717 0.88127 0.91651 0.0
C5951 C 0.28507 0.8665 0.91365 0.0
C5952 C 0.2964 0.86198 0.92796 0.0
C5953 C 0.30029 0.87247 0.94506 0.0
C5954 C 0.28325 0.85648 0.89534 0.0
C5955 C 0.2993 0.85642 0.8878 0.0
C5956 C 0.26656 0.84596 0.88622 0.0
C5957 C 0.24946 0.84464 0.8945 0.0
C5958 C 0.24808 0.83917 0.91236 0.0
C5959 C 0.23184 0.83772 0.91992 0.0
C5960 C 0.21681 0.84151 0.90968 0.0
C5961 C 0.21799 0.8467 0.89183 0.0
C5962 C 0.23421 0.84823 0.88423 0.0
C5963 C 0.29072 0.79903 0.82797 0.0
C5964 C 0.27909 0.80052 0.81213 0.0
C5965 C 0.2916 0.81017 0.84439 0.0
C5966 C 0.28158 0.82345 0.84476 0.0
C5967 C 0.26994 0.82498 0.829 0.0
C5968 C 0.2685 0.81334 0.81273 0.0
C5969 C 0.28257 0.83528 0.86189 0.0
C5970 C 0.26637 0.8357 0.86918 0.0
C5971 C 0.29927 0.84549 0.87142 0.0
C5972 C 0.31702 0.84459 0.86547 0.0
C5973 C 0.32283 0.85292 0.85014 0.0
C5974 C 0.34039 0.85352 0.84592 0.0
C5975 C 0.352 0.84543 0.85662 0.0
C5976 C 0.34622 0.83697 0.87179 0.0
C5977 C 0.32886 0.8367 0.87634 0.0
H5978 H 0.36554 0.84588 0.85327 0.0
H5979 H 0.20424 0.84035 0.91555 0.0
H5980 H 0.9455 0.52021 0.75423 0.0
H5981 H 0.95407 0.52467 0.72305 0.0
H5982 H 0.89864 0.50235 0.69821 0.0
H5983 H 0.89028 0.49743 0.72929 0.0
H5984 H 0.9221 0.48769 0.68111 0.0
H5985 H 0.91555 0.54762 0.69916 0.0
H5986 H 0.91983 0.57461 0.72242 0.0
H5987 H 0.97745 0.58281 0.72461 0.0
H5988 H 0.97351 0.55581 0.70139 0.0
H5989 H 0.9509 0.49907 0.59549 0.0
H5990 H 0.93469 0.5097 0.62007 0.0
H5991 H 0.98403 0.5229 0.65893 0.0
H5992 H 1.00017 0.51165 0.6345 0.0
H5993 H 0.95771 0.54548 0.66572 0.0
H5994 H 0.965 0.48387 0.655 0.0
H5995 H 0.9627 0.45403 0.6373 0.0
H5996 H 0.905 0.44637 0.6264 0.0
H5997 H 0.90706 0.47655 0.64348 0.0
C5998 C 0.93534 0.51616 0.74199 0.0
C5999 C 0.91743 0.50838 0.74367 0.0
C6000 C 0.94008 0.51896 0.72437 0.0
C6001 C 0.92682 0.51424 0.70855 0.0
C6002 C 0.90892 0.50626 0.71036 0.0
C6003 C 0.90424 0.50334 0.72792 0.0
C6004 C 0.93205 0.51619 0.68993 0.0
C6005 C 0.92932 0.50042 0.6774 0.0
C6006 C 0.94179 0.53278 0.68556 0.0
C6007 C 0.94423 0.54976 0.69846 0.0
C6008 C 0.92913 0.55525 0.70452 0.0
C6009 C 0.9315 0.57052 0.71772 0.0
C6010 C 0.9489 0.58043 0.72497 0.0
C6011 C 0.96397 0.57516 0.71891 0.0
C6012 C 0.96168 0.55993 0.70566 0.0
C6013 C 0.95834 0.5047 0.60915 0.0
C6014 C 0.97653 0.50412 0.61349 0.0
C6015 C 0.94915 0.51096 0.62303 0.0
C6016 C 0.95822 0.51687 0.6412 0.0
C6017 C 0.97693 0.5184 0.6449 0.0
C6018 C 0.98603 0.51176 0.63111 0.0
C6019 C 0.94783 0.51689 0.65699 0.0
C6020 C 0.94971 0.53295 0.66903 0.0
C6021 C 0.93742 0.50045 0.66113 0.0
C6022 C 0.93625 0.48273 0.64998 0.0
C6023 C 0.95188 0.47607 0.64838 0.0
C6024 C 0.95061 0.45904 0.63855 0.0
C6025 C 0.93373 0.44837 0.63059 0.0
C6026 C 0.91809 0.45473 0.63242 0.0
C6027 C 0.91931 0.47184 0.64208 0.0
H6028 H 0.93276 0.43512 0.62313 0.0
H6029 H 0.95071 0.59218 0.73529 0.0
H6030 H 0.27046 0.22708 0.46296 0.0
H6031 H 0.27249 0.23495 0.43135 0.0
H6032 H 0.27409 0.18015 0.41181 0.0
H6033 H 0.27271 0.17235 0.44381 0.0
H6034 H 0.29689 0.20341 0.39568 0.0
H6035 H 0.2338 0.19592 0.40358 0.0
H6036 H 0.2082 0.20119 0.4197 0.0
H6037 H 0.22459 0.25807 0.41676 0.0
H6038 H 0.2503 0.25313 0.40068 0.0
H6039 H 0.28492 0.22225 0.30103 0.0
H6040 H 0.28219 0.20895 0.33013 0.0
H6041 H 0.27103 0.25793 0.35644 0.0
H6042 H 0.27121 0.27011 0.32693 0.0
H6043 H 0.25086 0.23342 0.36771 0.0
H6044 H 0.31534 0.24244 0.36338 0.0
H6045 H 0.34172 0.23838 0.34796 0.0
H6046 H 0.32414 0.18082 0.34535 0.0
H6047 H 0.29761 0.18457 0.36066 0.0
C6048 C 0.27151 0.21676 0.45198 0.0
C6049 C 0.27145 0.19911 0.45585 0.0
C6050 C 0.27246 0.22122 0.43386 0.0
C6051 C 0.27291 0.20803 0.41904 0.0
C6052 C 0.27361 0.19053 0.42298 0.0
C6053 C 0.27294 0.18611 0.44127 0.0
C6054 C 0.2727 0.21268 0.39956 0.0
C6055 C 0.28668 0.20976 0.38944 0.0
C6056 C 0.25956 0.22121 0.39146 0.0
C6057 C 0.24401 0.22415 0.40101 0.0
C6058 C 0.23197 0.20955 0.40644 0.0
C6059 C 0.21743 0.21248 0.41554 0.0
C6060 C 0.21478 0.22995 0.41927 0.0
C6061 C 0.22664 0.24453 0.41385 0.0
C6062 C 0.24116 0.24167 0.40469 0.0
C6063 C 0.282 0.23022 0.31307 0.0
C6064 C 0.27897 0.24759 0.3117 0.0
C6065 C 0.2806 0.22264 0.32983 0.0
C6066 C 0.27692 0.23255 0.34587 0.0
C6067 C 0.27401 0.24992 0.34446 0.0
C6068 C 0.27461 0.25714 0.32756 0.0
C6069 C 0.27557 0.22493 0.36403 0.0
C6070 C 0.26112 0.2271 0.37386 0.0
C6071 C 0.28846 0.21599 0.37198 0.0
C6072 C 0.30447 0.21378 0.36301 0.0
C6073 C 0.3171 0.22893 0.35946 0.0
C6074 C 0.33207 0.22669 0.35075 0.0
C6075 C 0.33458 0.20936 0.34565 0.0
C6076 C 0.32217 0.19424 0.3493 0.0
C6077 C 0.3072 0.19641 0.35802 0.0
H6078 H 0.34616 0.20765 0.33889 0.0
H6079 H 0.20354 0.23219 0.42635 0.0
H6080 H 0.32145 0.61939 0.55729 0.0
H6081 H 0.34907 0.60901 0.55436 0.0
H6082 H 0.31864 0.56177 0.51755 0.0
H6083 H 0.29075 0.57209 0.52023 0.0
H6084 H 0.34325 0.55534 0.54623 0.0
H6085 H 0.33997 0.59398 0.49864 0.0
H6086 H 0.33711 0.62206 0.48591 0.0
H6087 H 0.38615 0.65078 0.5205 0.0
H6088 H 0.38913 0.62291 0.53374 0.0
H6089 H 0.40645 0.52534 0.49496 0.0
H6090 H 0.38221 0.53447 0.51004 0.0
H6091 H 0.41968 0.58336 0.53707 0.0
H6092 H 0.44381 0.57442 0.52119 0.0
H6093 H 0.3928 0.59093 0.51734 0.0
H6094 H 0.39575 0.5496 0.56355 0.0
H6095 H 0.39572 0.52095 0.5765 0.0
H6096 H 0.34525 0.49607 0.54222 0.0
H6097 H 0.34505 0.52448 0.52901 0.0
C6098 C 0.32056 0.60667 0.54872 0.0
C6099 C 0.30403 0.59652 0.53885 0.0
C6100 C 0.33634 0.6009 0.547 0.0
C6101 C 0.33569 0.58489 0.53553 0.0
C6102 C 0.31917 0.57428 0.52634 0.0
C6103 C 0.30335 0.58012 0.52793 0.0
C6104 C 0.35234 0.5791 0.5333 0.0
C6105 C 0.35413 0.56295 0.53979 0.0
C6106 C 0.36643 0.58955 0.52537 0.0
C6107 C 0.36464 0.60637 0.51741 0.0
C6108 C 0.35004 0.60631 0.50373 0.0
C6109 C 0.34841 0.62219 0.49637 0.0
C6110 C 0.3614 0.63821 0.50245 0.0
C6111 C 0.37607 0.63837 0.51585 0.0
C6112 C 0.37773 0.62253 0.52329 0.0
C6113 C 0.4095 0.53778 0.50453 0.0
C6114 C 0.42669 0.54934 0.50695 0.0
C6115 C 0.39577 0.54289 0.51333 0.0
C6116 C 0.39921 0.55949 0.52486 0.0
C6117 C 0.41682 0.57045 0.52829 0.0
C6118 C 0.43051 0.56543 0.51925 0.0
C6119 C 0.3839 0.56679 0.53015 0.0
C6120 C 0.38222 0.58335 0.52415 0.0
C6121 C 0.3697 0.55652 0.53821 0.0
C6122 C 0.37051 0.53911 0.54518 0.0
C6123 C 0.3848 0.53794 0.55858 0.0
C6124 C 0.38477 0.52176 0.56604 0.0
C6125 C 0.37052 0.50669 0.56015 0.0
C6126 C 0.35629 0.50773 0.54676 0.0
C6127 C 0.35624 0.52386 0.5393 0.0
H6128 H 0.37048 0.49422 0.566 0.0
H6129 H 0.36013 0.65049 0.49672 0.0
H6130 H 0.85029 0.88862 0.51488 0.0
H6131 H 0.87831 0.9102 0.51342 0.0
H6132 H 0.85943 0.95166 0.54515 0.0
H6133 H 0.83064 0.92985 0.54625 0.0
H6134 H 0.87904 0.96313 0.51452 0.0
H6135 H 0.88717 0.93127 0.56845 0.0
H6136 H 0.88459 0.90357 0.58369 0.0
H6137 H 0.91724 0.88327 0.54583 0.0
H6138 H 0.91988 0.91078 0.53026 0.0
H6139 H 0.96759 0.01841 0.53262 0.0
H6140 H 0.93736 0.00159 0.535 0.0
H6141 H 0.95309 0.95185 0.51888 0.0
H6142 H 0.98373 0.9687 0.51786 0.0
H6143 H 0.93385 0.94608 0.54354 0.0
H6144 H 0.92514 0.97416 0.48797 0.0
H6145 H 0.92604 0.99881 0.46835 0.0
H6146 H 0.89388 0.02323 0.50368 0.0
H6147 H 0.89293 0.99883 0.52361 0.0
C6148 C 0.852 0.90235 0.5215 0.0
C6149 C 0.83849 0.90751 0.53103 0.0
C6150 C 0.86802 0.91467 0.52061 0.0
C6151 C 0.8711 0.93236 0.52956 0.0
C6152 C 0.85729 0.93796 0.53829 0.0
C6153 C 0.84094 0.92556 0.53895 0.0
C6154 C 0.88922 0.94436 0.53046 0.0
C6155 C 0.89107 0.95971 0.52118 0.0
C6156 C 0.90486 0.93937 0.53849 0.0
C6157 C 0.90371 0.92307 0.5482 0.0
C6158 C 0.89378 0.92088 0.56337 0.0
C6159 C 0.8923 0.90522 0.57206 0.0
C6160 C 0.90074 0.89167 0.56573 0.0
C6161 C 0.91074 0.89379 0.55074 0.0
C6162 C 0.91227 0.90943 0.54202 0.0
C6163 C 0.96463 0.00401 0.52936 0.0
C6164 C 0.97801 0.99515 0.52425 0.0
C6165 C 0.94721 0.9943 0.53066 0.0
C6166 C 0.9426 0.97543 0.52641 0.0
C6167 C 0.95614 0.96643 0.522 0.0
C6168 C 0.97371 0.97614 0.52132 0.0
C6169 C 0.92396 0.96498 0.52734 0.0
C6170 C 0.92195 0.9498 0.53698 0.0
C6171 C 0.90824 0.9699 0.51916 0.0
C6172 C 0.90915 0.98478 0.50741 0.0
C6173 C 0.91841 0.98488 0.49166 0.0
C6174 C 0.91889 0.99878 0.48045 0.0
C6175 C 0.91007 0.0126 0.4848 0.0
C6176 C 0.90073 0.01254 0.50035 0.0
C6177 C 0.90021 0.99867 0.51159 0.0
H6178 H 0.91043 0.02333 0.4761 0.0
H6179 H 0.89955 0.87954 0.57245 0.0
H6180 H 0.87293 0.04333 0.23922 0.0
H6181 H 0.85655 0.06766 0.23709 0.0
H6182 H 0.89752 0.10235 0.27865 0.0
H6183 H 0.91316 0.07806 0.28147 0.0
H6184 H 0.86708 0.10288 0.28847 0.0
H6185 H 0.89054 0.10705 0.22918 0.0
H6186 H 0.89476 0.09664 0.19694 0.0
H6187 H 0.83742 0.08558 0.18 0.0
H6188 H 0.83283 0.09571 0.2122 0.0
H6189 H 0.85167 0.18821 0.29116 0.0
H6190 H 0.86531 0.16363 0.28024 0.0
H6191 H 0.81353 0.13406 0.25104 0.0
H6192 H 0.79981 0.15896 0.26189 0.0
H6193 H 0.84502 0.12859 0.23268 0.0
H6194 H 0.82264 0.12569 0.29241 0.0
H6195 H 0.81926 0.13673 0.32474 0.0
H6196 H 0.87662 0.1459 0.3407 0.0
H6197 H 0.88037 0.1352 0.30839 0.0
C6198 C 0.87841 0.05622 0.24781 0.0
C6199 C 0.89419 0.05871 0.26074 0.0
C6200 C 0.86913 0.07017 0.24646 0.0
C6201 C 0.87576 0.08695 0.2577 0.0
C6202 C 0.89195 0.08954 0.26995 0.0
C6203 C 0.9009 0.07559 0.2716 0.0
C6204 C 0.86534 0.1014 0.25843 0.0
C6205 C 0.86253 0.10859 0.2762 0.0
C6206 C 0.85858 0.10844 0.24242 0.0
C6207 C 0.86132 0.1019 0.22318 0.0
C6208 C 0.87881 0.10218 0.21864 0.0
C6209 C 0.88127 0.09639 0.20035 0.0
C6210 C 0.86636 0.09039 0.18645 0.0
C6211 C 0.84895 0.09018 0.19079 0.0
C6212 C 0.84642 0.09595 0.20906 0.0
C6213 C 0.84337 0.17686 0.2817 0.0
C6214 C 0.82474 0.17554 0.27721 0.0
C6215 C 0.85113 0.16273 0.27559 0.0
C6216 C 0.84039 0.1469 0.26505 0.0
C6217 C 0.82207 0.14618 0.25913 0.0
C6218 C 0.81426 0.16042 0.26523 0.0
C6219 C 0.8478 0.13045 0.26274 0.0
C6220 C 0.84971 0.12278 0.24481 0.0
C6221 C 0.854 0.12297 0.27859 0.0
C6222 C 0.85179 0.12982 0.29793 0.0
C6223 C 0.83455 0.13027 0.30276 0.0
C6224 C 0.83257 0.13642 0.32109 0.0
C6225 C 0.84772 0.14205 0.33475 0.0
C6226 C 0.8649 0.14156 0.3301 0.0
C6227 C 0.86695 0.13546 0.31178 0.0
H6228 H 0.84615 0.14675 0.34896 0.0
H6229 H 0.8683 0.08595 0.17229 0.0
H6230 H 0.71522 0.11341 0.02223 0.0
H6231 H 0.68291 0.10169 0.01266 0.0
H6232 H 0.683 0.06118 0.05005 0.0
H6233 H 0.71538 0.07404 0.06102 0.0
H6234 H 0.66463 0.05256 0.00702 0.0
H6235 H 0.67073 0.08899 0.06743 0.0
H6236 H 0.68237 0.11689 0.08939 0.0
H6237 H 0.65417 0.14591 0.05325 0.0
H6238 H 0.64302 0.11832 0.03058 0.0
H6239 H 0.57753 0.01732 0.0216 0.0
H6240 H 0.60948 0.03067 0.02336 0.0
H6241 H 0.59731 0.07772 0.00123 0.0
H6242 H 0.56502 0.06486 0.0004 0.0
H6243 H 0.62192 0.08589 0.03326 0.0
H6244 H 0.61349 0.04924 0.97426 0.0
H6245 H 0.60121 0.02118 0.95257 0.0
H6246 H 0.63283 0.99301 0.98626 0.0
H6247 H 0.64502 0.0208 0.00836 0.0
C6248 C 0.70828 0.10209 0.02848 0.0
C6249 C 0.7173 0.09466 0.04253 0.0
C6250 C 0.69002 0.09541 0.02292 0.0
C6251 C 0.68094 0.08092 0.03097 0.0
C6252 C 0.69014 0.07257 0.04401 0.0
C6253 C 0.70839 0.07975 0.05014 0.0
C6254 C 0.66161 0.07493 0.02602 0.0
C6255 C 0.65518 0.05967 0.01278 0.0
C6256 C 0.64981 0.085 0.03319 0.0
C6257 C 0.65639 0.1016 0.047 0.0
C6258 C 0.66733 0.10137 0.06389 0.0
C6259 C 0.6738 0.11714 0.07653 0.0
C6260 C 0.66911 0.1332 0.07266 0.0
C6261 C 0.6579 0.13349 0.05617 0.0
C6262 C 0.65155 0.11779 0.04338 0.0
C6263 C 0.58159 0.03039 0.01683 0.0
C6264 C 0.56889 0.04014 0.01095 0.0
C6265 C 0.59981 0.03795 0.01779 0.0
C6266 C 0.60552 0.05502 0.01223 0.0
C6267 C 0.59293 0.06448 0.00549 0.0
C6268 C 0.57459 0.05703 0.00483 0.0
C6269 C 0.62479 0.06311 0.01456 0.0
C6270 C 0.63133 0.07891 0.02721 0.0
C6271 C 0.63676 0.05364 0.00679 0.0
C6272 C 0.63019 0.03713 0.99297 0.0
C6273 C 0.61783 0.03706 0.97704 0.0
C6274 C 0.61084 0.02119 0.9647 0.0
C6275 C 0.61624 0.00533 0.96803 0.0
C6276 C 0.62869 0.00532 0.98367 0.0
C6277 C 0.63567 0.02114 -0.0039 0.0
H6278 H 0.61077 0.99303 0.95849 0.0
H6279 H 0.67408 0.14538 0.08249 0.0
H6280 H 0.18697 0.48008 0.21702 0.0
H6281 H 0.19784 0.45216 0.21723 0.0
H6282 H 0.22593 0.47108 0.27311 0.0
H6283 H 0.21551 0.49883 0.27301 0.0
H6284 H 0.2468 0.45874 0.24885 0.0
H6285 H 0.18819 0.44206 0.26919 0.0
H6286 H 0.15508 0.43832 0.26615 0.0
H6287 H 0.14895 0.40158 0.21567 0.0
H6288 H 0.18209 0.40529 0.21831 0.0
H6289 H 0.25694 0.39032 0.30329 0.0
H6290 H 0.25093 0.41569 0.28767 0.0
H6291 H 0.22973 0.37965 0.23647 0.0
H6292 H 0.23561 0.35415 0.25218 0.0
H6293 H 0.20608 0.39877 0.24892 0.0
H6294 H 0.26903 0.41479 0.23583 0.0
H6295 H 0.30236 0.42241 0.24297 0.0
H6296 H 0.29977 0.4631 0.28743 0.0
H6297 H 0.2665 0.45576 0.28051 0.0
C6298 C 0.1956 0.47827 0.22924 0.0
C6299 C 0.20057 0.49154 0.24494 0.0
C6300 C 0.20165 0.4624 0.22935 0.0
C6301 C 0.2126 0.45985 0.24515 0.0
C6302 C 0.21758 0.47308 0.26076 0.0
C6303 C 0.21166 0.48889 0.26064 0.0
C6304 C 0.21927 0.44349 0.24571 0.0
C6305 C 0.23799 0.44552 0.24872 0.0
C6306 C 0.20753 0.42649 0.24533 0.0
C6307 C 0.18761 0.42416 0.24378 0.0
C6308 C 0.17979 0.43332 0.25734 0.0
C6309 C 0.16102 0.43117 0.25572 0.0
C6310 C 0.14992 0.41978 0.24068 0.0
C6311 C 0.15757 0.41044 0.22728 0.0
C6312 C 0.17634 0.41255 0.22884 0.0
C6313 C 0.25102 0.3879 0.28871 0.0
C6314 C 0.24633 0.37043 0.27895 0.0
C6315 C 0.24797 0.40237 0.27971 0.0
C6316 C 0.24021 0.39946 0.26087 0.0
C6317 C 0.23597 0.38206 0.25095 0.0
C6318 C 0.23914 0.36759 0.25993 0.0
C6319 C 0.23381 0.41405 0.25276 0.0
C6320 C 0.21502 0.41174 0.24829 0.0
C6321 C 0.24546 0.43109 0.25276 0.0
C6322 C 0.26532 0.4346 0.25774 0.0
C6323 C 0.27559 0.42518 0.24727 0.0
C6324 C 0.29446 0.42954 0.25121 0.0
C6325 C 0.30317 0.44319 0.26567 0.0
C6326 C 0.29303 0.45252 0.27625 0.0
C6327 C 0.27418 0.4483 0.27229 0.0
H6328 H 0.31778 0.44657 0.26865 0.0
H6329 H 0.1354 0.41814 0.23943 0.0
H6330 H 0.23039 0.39116 0.03911 0.0
H6331 H 0.20436 0.40491 0.04119 0.0
H6332 H 0.22533 0.44305 0.00461 0.0
H6333 H 0.25128 0.42942 0.00241 0.0
H6334 H 0.21489 0.45952 0.03529 0.0
H6335 H 0.19101 0.40745 0.98899 0.0
H6336 H 0.18219 0.37517 0.97633 0.0
H6337 H 0.14666 0.36507 0.01799 0.0
H6338 H 0.15554 0.39725 0.03115 0.0
H6339 H 0.14216 0.48952 0.99003 0.0
H6340 H 0.16815 0.47755 0.00104 0.0
H6341 H 0.13682 0.44836 0.03887 0.0
H6342 H 0.11094 0.46097 0.02829 0.0
H6343 H 0.1514 0.42645 0.0142 0.0
H6344 H 0.17273 0.47963 0.05782 0.0
H6345 H 0.18079 0.51226 0.06902 0.0
H6346 H 0.22033 0.52045 0.03106 0.0
H6347 H 0.21237 0.4879 0.01946 0.0
C6348 C 0.22946 0.40248 0.0315 0.0
C6349 C 0.24297 0.40921 0.02061 0.0
C6350 C 0.21452 0.41027 0.03266 0.0
C6351 C 0.21287 0.425 0.02303 0.0
C6352 C 0.22635 0.43173 0.0122 0.0
C6353 C 0.24116 0.42388 0.01091 0.0
C6354 C 0.19733 0.43372 0.0243 0.0
C6355 C 0.20101 0.45229 0.03061 0.0
C6356 C 0.17913 0.42417 0.01884 0.0
C6357 C 0.17422 0.40471 0.01129 0.0
C6358 C 0.18154 0.3983 0.99566 0.0
C6359 C 0.17648 0.38003 0.98834 0.0
C6360 C 0.16395 0.36806 -0.00359 0.0
C6361 C 0.15644 0.37434 0.01181 0.0
C6362 C 0.1615 0.39259 0.01921 0.0
C6363 C 0.14108 0.48104 0.00115 0.0
C6364 C 0.12464 0.47608 0.00831 0.0
C6365 C 0.15588 0.47418 0.00742 0.0
C6366 C 0.15441 0.46201 0.02074 0.0
C6367 C 0.13825 0.45775 0.02861 0.0
C6368 C 0.12354 0.46498 0.02263 0.0
C6369 C 0.16906 0.45233 0.02463 0.0
C6370 C 0.16524 0.43359 0.0193 0.0
C6371 C 0.18713 0.46171 0.03088 0.0
C6372 C 0.19186 0.48133 0.03768 0.0
C6373 C 0.18304 0.48841 0.05174 0.0
C6374 C 0.18762 0.50689 0.05819 0.0
C6375 C 0.20104 0.51842 0.05073 0.0
C6376 C 0.20993 0.5115 0.03682 0.0
C6377 C 0.20541 0.49303 0.03033 0.0
H6378 H 0.20457 0.53273 0.05575 0.0
H6379 H 0.16 0.35393 0.99068 0.0
H6380 H 0.90452 0.93834 0.23451 0.0
H6381 H 0.88287 0.91104 0.23798 0.0
H6382 H 0.84819 0.94286 0.26098 0.0
H6383 H 0.87031 0.97067 0.25802 0.0
H6384 H 0.85423 0.91463 0.28176 0.0
H6385 H 0.8355 0.92125 0.21706 0.0
H6386 H 0.84248 0.92739 0.18556 0.0
H6387 H 0.86675 0.8817 0.18068 0.0
H6388 H 0.86 0.87536 0.21219 0.0
H6389 H 0.78735 0.83356 0.28055 0.0
H6390 H 0.80347 0.86409 0.27734 0.0
H6391 H 0.83787 0.84205 0.24235 0.0
H6392 H 0.82084 0.81168 0.24415 0.0
H6393 H 0.82881 0.86756 0.22749 0.0
H6394 H 0.85205 0.86167 0.29051 0.0
H6395 H 0.85124 0.85635 0.32348 0.0
H6396 H 0.82392 0.89932 0.33294 0.0
H6397 H 0.82469 0.90503 0.30008 0.0
C6398 C 0.89222 0.93964 0.24013 0.0
C6399 C 0.88909 0.95667 0.24596 0.0
C6400 C 0.87984 0.92398 0.24207 0.0
C6401 C 0.8639 0.92497 0.24956 0.0
C6402 C 0.86045 0.94191 0.2551 0.0
C6403 C 0.87296 0.95772 0.25322 0.0
C6404 C 0.8512 0.90809 0.25179 0.0
C6405 C 0.84824 0.90443 0.26992 0.0
C6406 C 0.8441 0.89466 0.23635 0.0
C6407 C 0.8472 0.89782 0.21696 0.0
C6408 C 0.84226 0.91249 0.20923 0.0
C6409 C 0.84621 0.91602 0.19139 0.0
C6410 C 0.85505 0.90494 0.18112 0.0
C6411 C 0.85986 0.89024 0.18862 0.0
C6412 C 0.85591 0.88662 0.20644 0.0
C6413 C 0.79804 0.83525 0.27178 0.0
C6414 C 0.8025 0.82023 0.2622 0.0
C6415 C 0.80751 0.85271 0.2703 0.0
C6416 C 0.82199 0.85539 0.25973 0.0
C6417 C 0.82666 0.84036 0.25047 0.0
C6418 C 0.81693 0.82298 0.25156 0.0
C6419 C 0.83193 0.87379 0.2576 0.0
C6420 C 0.83441 0.87777 0.23943 0.0
C6421 C 0.83901 0.88729 0.2731 0.0
C6422 C 0.83822 0.88363 0.29276 0.0
C6423 C 0.84572 0.86988 0.29957 0.0
C6424 C 0.8453 0.86681 0.31825 0.0
C6425 C 0.83739 0.87737 0.33024 0.0
C6426 C 0.82998 0.8911 0.32362 0.0
C6427 C 0.83046 0.89431 0.30499 0.0
H6428 H 0.83709 0.87498 0.34469 0.0
H6429 H 0.85818 0.90776 0.16736 0.0
H6430 H 0.71633 0.07826 0.72789 0.0
H6431 H 0.73494 0.10859 0.74045 0.0
H6432 H 0.69294 0.11829 0.77279 0.0
H6433 H 0.67437 0.08883 0.76001 0.0
H6434 H 0.7009 0.13955 0.74252 0.0
H6435 H 0.72836 0.1195 0.79763 0.0
H6436 H 0.74609 0.10144 0.81488 0.0
H6437 H 0.79183 0.12137 0.78713 0.0
H6438 H 0.77431 0.13943 0.76963 0.0
H6439 H 0.73417 0.2308 0.77719 0.0
H6440 H 0.72179 0.19868 0.77691 0.0
H6441 H 0.77023 0.18703 0.75788 0.0
H6442 H 0.78326 0.21916 0.75941 0.0
H6443 H 0.75916 0.16637 0.78293 0.0
H6444 H 0.7321 0.18609 0.72735 0.0
H6445 H 0.7144 0.20316 0.70865 0.0
H6446 H 0.66773 0.18291 0.73489 0.0
H6447 H 0.68522 0.16594 0.75396 0.0
C6448 C 0.71132 0.08695 0.73779 0.0
C6449 C 0.69385 0.08181 0.74252 0.0
C6450 C 0.72196 0.10393 0.74517 0.0
C6451 C 0.71511 0.11533 0.75747 0.0
C6452 C 0.6983 0.10947 0.76335 0.0
C6453 C 0.68766 0.09284 0.75579 0.0
C6454 C 0.72308 0.13451 0.7607 0.0
C6455 C 0.71354 0.14556 0.75153 0.0
C6456 C 0.73966 0.14185 0.77206 0.0
C6457 C 0.74997 0.1306 0.78216 0.0
C6458 C 0.74212 0.11984 0.79504 0.0
C6459 C 0.75216 0.10967 0.80492 0.0
C6460 C 0.77005 0.1102 0.80205 0.0
C6461 C 0.77796 0.12093 0.78932 0.0
C6462 C 0.76799 0.13115 0.77943 0.0
C6463 C 0.74243 0.22143 0.77362 0.0
C6464 C 0.75968 0.22734 0.76849 0.0
C6465 C 0.73523 0.20315 0.77317 0.0
C6466 C 0.74507 0.19073 0.76708 0.0
C6467 C 0.76254 0.1966 0.7626 0.0
C6468 C 0.7699 0.21487 0.76343 0.0
C6469 C 0.73701 0.17151 0.76472 0.0
C6470 C 0.74648 0.16043 0.77398 0.0
C6471 C 0.72036 0.16408 0.75324 0.0
C6472 C 0.71008 0.17495 0.7423 0.0
C6473 C 0.71814 0.18548 0.72934 0.0
C6474 C 0.70812 0.19509 0.71861 0.0
C6475 C 0.68997 0.19417 0.72063 0.0
C6476 C 0.68181 0.18366 0.73339 0.0
C6477 C 0.69177 0.17406 0.74416 0.0
H6478 H 0.68222 0.20156 0.71226 0.0
H6479 H 0.77781 0.10234 0.80973 0.0
loop_
_geom_bond_atom_site_label_1
_geom_bond_atom_site_label_2
_geom_bond_distance
_geom_bond_site_symmetry_2
_ccdc_geom_bond_type
Zn0 O3 2.031 . S
Zn0 O5 2.049 . S
Zn0 O10 2.055 1_455 S
Zn1 O2 1.962 . S
Zn1 O4 1.986 . S
Zn1 O6 1.996 . S
Zn1 O9 1.943 . S
O2 Zn1 1.962 . S
O2 C7 1.254 . S
O3 Zn0 2.031 . S
O3 C7 1.269 . S
O4 Zn1 1.986 . S
O4 C11 1.262 . S
O5 Zn0 2.049 . S
O5 C13 1.260 . S
O6 Zn1 1.996 . S
O6 C13 1.257 . S
C7 O2 1.254 . S
C7 O3 1.269 . S
C8 O9 1.249 . S
C8 O10 1.252 1_455 S
O9 Zn1 1.943 . S
O9 C8 1.249 . S
O10 Zn0 2.055 1_655 S
O10 C8 1.252 1_655 S
C11 O4 1.262 . S
C11 O12 1.232 . S
O12 C11 1.232 . S
C13 O5 1.260 . S
C13 O6 1.257 . S
Zn14 O17 2.031 1_455 S
Zn14 O19 2.049 . S
Zn14 O24 2.067 . S
Zn15 O16 1.962 1_455 S
Zn15 O18 1.986 . S
Zn15 O20 1.996 . S
Zn15 O23 1.943 . S
O16 Zn15 1.962 1_655 S
O16 C21 1.254 . S
O17 Zn14 2.031 1_655 S
O17 C21 1.269 . S
O18 Zn15 1.986 . S
O18 C25 1.262 . S
O19 Zn14 2.049 . S
O19 C27 1.260 . S
O20 Zn15 1.996 . S
O20 C27 1.257 . S
C21 O16 1.254 . S
C21 O17 1.269 . S
C22 O23 1.249 . S
C22 O24 1.270 . S
O23 Zn15 1.943 . S
O23 C22 1.249 . S
O24 Zn14 2.067 . S
O24 C22 1.270 . S
C25 O18 1.262 . S
C25 O26 1.236 . S
O26 C25 1.236 . S
C27 O19 1.260 . S
C27 O20 1.257 . S
Zn28 O31 2.031 . S
Zn28 O33 2.049 . S
Zn28 O38 2.067 . S
Zn29 O30 1.962 . S
Zn29 O32 1.986 . S
Zn29 O34 1.996 . S
Zn29 O37 1.943 . S
O30 Zn29 1.962 . S
O30 C35 1.254 . S
O31 Zn28 2.031 . S
O31 C35 1.269 . S
O32 Zn29 1.986 . S
O32 C39 1.262 . S
O33 Zn28 2.049 . S
O33 C41 1.260 . S
O34 Zn29 1.996 . S
O34 C41 1.257 . S
C35 O30 1.254 . S
C35 O31 1.269 . S
C36 O37 1.249 . S
C36 O38 1.270 . S
O37 Zn29 1.943 . S
O37 C36 1.249 . S
O38 Zn28 2.067 . S
O38 C36 1.270 . S
C39 O32 1.262 . S
C39 O40 1.232 . S
O40 C39 1.232 . S
C41 O33 1.260 . S
C41 O34 1.257 . S
Zn42 O45 2.031 . S
Zn42 O47 2.049 . S
Zn42 O52 2.067 . S
Zn43 O44 1.962 . S
Zn43 O46 1.986 . S
Zn43 O48 1.996 . S
Zn43 O51 1.943 . S
O44 Zn43 1.962 . S
O44 C49 1.254 . S
O45 Zn42 2.031 . S
O45 C49 1.269 . S
O46 Zn43 1.986 . S
O46 C53 1.262 . S
O47 Zn42 2.049 . S
O47 C55 1.260 . S
O48 Zn43 1.996 . S
O48 C55 1.257 . S
C49 O44 1.254 . S
C49 O45 1.269 . S
C50 O51 1.249 . S
C50 O52 1.270 . S
O51 Zn43 1.943 . S
O51 C50 1.249 . S
O52 Zn42 2.067 . S
O52 C50 1.270 . S
C53 O46 1.262 . S
C53 O54 1.232 . S
O54 C53 1.232 . S
C55 O47 1.260 . S
C55 O48 1.257 . S
Zn56 O59 2.031 . S
Zn56 O61 2.049 . S
Zn56 O66 2.067 . S
Zn57 O58 1.962 . S
Zn57 O60 1.986 . S
Zn57 O62 1.996 . S
Zn57 O65 1.943 . S
O58 Zn57 1.962 . S
O58 C63 1.254 . S
O59 Zn56 2.031 . S
O59 C63 1.269 . S
O60 Zn57 1.986 . S
O60 C67 1.262 . S
O61 Zn56 2.049 . S
O61 C69 1.260 . S
O62 Zn57 1.996 . S
O62 C69 1.257 . S
C63 O58 1.254 . S
C63 O59 1.269 . S
C64 O65 1.249 . S
C64 O66 1.270 . S
O65 Zn57 1.943 . S
O65 C64 1.249 . S
O66 Zn56 2.067 . S
O66 C64 1.270 . S
C67 O60 1.262 . S
C67 O68 1.232 . S
O68 C67 1.232 . S
C69 O61 1.260 . S
C69 O62 1.257 . S
Zn70 O73 2.031 . S
Zn70 O75 2.049 . S
Zn70 O80 2.067 . S
Zn71 O72 1.962 . S
Zn71 O74 1.986 . S
Zn71 O76 1.996 . S
Zn71 O79 1.943 . S
O72 Zn71 1.962 . S
O72 C77 1.254 . S
O73 Zn70 2.031 . S
O73 C77 1.269 . S
O74 Zn71 1.986 . S
O74 C81 1.262 . S
O75 Zn70 2.049 . S
O75 C83 1.260 . S
O76 Zn71 1.996 . S
O76 C83 1.257 . S
C77 O72 1.254 . S
C77 O73 1.269 . S
C78 O79 1.249 . S
C78 O80 1.270 . S
O79 Zn71 1.943 . S
O79 C78 1.249 . S
O80 Zn70 2.067 . S
O80 C78 1.270 . S
C81 O74 1.262 . S
C81 O82 1.232 . S
O82 C81 1.232 . S
C83 O75 1.260 . S
C83 O76 1.257 . S
Zn84 O87 2.031 . S
Zn84 O89 2.049 . S
Zn84 O94 2.067 . S
Zn85 O86 1.962 . S
Zn85 O88 1.986 . S
Zn85 O90 1.996 . S
Zn85 O93 1.943 . S
O86 Zn85 1.962 . S
O86 C91 1.254 . S
O87 Zn84 2.031 . S
O87 C91 1.269 . S
O88 Zn85 1.986 . S
O88 C95 1.262 . S
O89 Zn84 2.049 . S
O89 C97 1.260 . S
O90 Zn85 1.996 . S
O90 C97 1.257 . S
C91 O86 1.254 . S
C91 O87 1.269 . S
C92 O93 1.249 . S
C92 O94 1.270 . S
O93 Zn85 1.943 . S
O93 C92 1.249 . S
O94 Zn84 2.067 . S
O94 C92 1.270 . S
C95 O88 1.262 . S
C95 O96 1.232 . S
O96 C95 1.232 . S
C97 O89 1.260 . S
C97 O90 1.257 . S
Zn98 O101 2.031 . S
Zn98 O103 2.049 . S
Zn98 O108 2.067 . S
Zn99 O100 1.962 . S
Zn99 O102 1.986 . S
Zn99 O104 1.996 . S
Zn99 O107 1.943 1_455 S
O100 Zn99 1.962 . S
O100 C105 1.278 . S
O101 Zn98 2.031 . S
O101 C105 1.247 1_655 S
O102 Zn99 1.986 . S
O102 C109 1.262 . S
O103 Zn98 2.049 . S
O103 C111 1.260 . S
O104 Zn99 1.996 . S
O104 C111 1.257 1_455 S
C105 O100 1.278 . S
C105 O101 1.247 1_455 S
C106 O107 1.249 . S
C106 O108 1.270 . S
O107 Zn99 1.943 1_655 S
O107 C106 1.249 . S
O108 Zn98 2.067 . S
O108 C106 1.270 . S
C109 O102 1.262 . S
C109 O110 1.232 . S
O110 C109 1.232 . S
C111 O103 1.260 . S
C111 O104 1.257 1_655 S
Zn112 O115 2.031 . S
Zn112 O117 2.049 . S
Zn112 O122 2.067 . S
Zn113 O114 1.962 . S
Zn113 O116 1.986 . S
Zn113 O118 1.996 . S
Zn113 O121 1.943 1_545 S
O114 Zn113 1.962 . S
O114 C119 1.254 . S
O115 Zn112 2.031 . S
O115 C119 1.269 1_565 S
O116 Zn113 1.986 . S
O116 C123 1.262 . S
O117 Zn112 2.049 . S
O117 C125 1.260 1_565 S
O118 Zn113 1.996 . S
O118 C125 1.257 . S
C119 O114 1.254 . S
C119 O115 1.269 1_545 S
C120 O121 1.249 . S
C120 O122 1.270 . S
O121 Zn113 1.943 1_565 S
O121 C120 1.249 . S
O122 Zn112 2.067 . S
O122 C120 1.270 . S
C123 O116 1.262 . S
C123 O124 1.232 . S
O124 C123 1.232 . S
C125 O117 1.260 1_545 S
C125 O118 1.257 . S
Zn126 O129 2.031 . S
Zn126 O131 2.049 . S
Zn126 O136 2.067 . S
Zn127 O128 1.962 . S
Zn127 O130 1.986 . S
Zn127 O132 1.996 . S
Zn127 O135 1.943 . S
O128 Zn127 1.962 . S
O128 C133 1.254 . S
O129 Zn126 2.031 . S
O129 C133 1.269 . S
O130 Zn127 1.986 . S
O130 C137 1.262 . S
O131 Zn126 2.049 . S
O131 C139 1.260 . S
O132 Zn127 1.996 . S
O132 C139 1.257 . S
C133 O128 1.254 . S
C133 O129 1.269 . S
C134 O135 1.249 . S
C134 O136 1.270 . S
O135 Zn127 1.943 . S
O135 C134 1.249 . S
O136 Zn126 2.067 . S
O136 C134 1.270 . S
C137 O130 1.262 . S
C137 O138 1.232 . S
O138 C137 1.232 . S
C139 O131 1.260 . S
C139 O132 1.257 . S
Zn140 O143 2.031 . S
Zn140 O145 2.049 . S
Zn140 O150 2.067 . S
Zn141 O142 1.962 . S
Zn141 O144 1.999 . S
Zn141 O146 1.996 . S
Zn141 O149 1.943 . S
O142 Zn141 1.962 . S
O142 C147 1.254 . S
O143 Zn140 2.031 . S
O143 C147 1.269 . S
O144 Zn141 1.999 . S
O144 C151 1.257 1_545 S
O145 Zn140 2.049 . S
O145 C153 1.260 . S
O146 Zn141 1.996 . S
O146 C153 1.257 . S
C147 O142 1.254 . S
C147 O143 1.269 . S
C148 O149 1.249 . S
C148 O150 1.270 . S
O149 Zn141 1.943 . S
O149 C148 1.249 . S
O150 Zn140 2.067 . S
O150 C148 1.270 . S
C151 O144 1.257 1_565 S
C151 O152 1.232 1_565 S
O152 C151 1.232 1_545 S
C153 O145 1.260 . S
C153 O146 1.257 . S
Zn154 O157 2.031 1_554 S
Zn154 O159 2.049 . S
Zn154 O164 2.067 . S
Zn155 O156 1.962 . S
Zn155 O158 1.986 1_556 S
Zn155 O160 1.996 1_556 S
Zn155 O163 1.943 1_556 S
O156 Zn155 1.962 . S
O156 C161 1.254 . S
O157 Zn154 2.031 1_556 S
O157 C161 1.269 . S
O158 Zn155 1.986 1_554 S
O158 C165 1.262 1_554 S
O159 Zn154 2.049 . S
O159 C167 1.260 . S
O160 Zn155 1.996 1_554 S
O160 C167 1.257 . S
C161 O156 1.254 . S
C161 O157 1.269 . S
C162 O163 1.249 . S
C162 O164 1.270 . S
O163 Zn155 1.943 1_554 S
O163 C162 1.249 . S
O164 Zn154 2.067 . S
O164 C162 1.270 . S
C165 O158 1.262 1_556 S
C165 O166 1.232 . S
O166 C165 1.232 . S
C167 O159 1.260 . S
C167 O160 1.257 . S
Zn168 O171 2.031 . S
Zn168 O173 2.049 . S
Zn168 O178 2.067 . S
Zn169 O170 1.962 . S
Zn169 O172 1.986 . S
Zn169 O174 1.996 . S
Zn169 O177 1.943 . S
O170 Zn169 1.962 . S
O170 C175 1.254 . S
O171 Zn168 2.031 . S
O171 C175 1.269 . S
O172 Zn169 1.986 . S
O172 C179 1.262 . S
O173 Zn168 2.049 . S
O173 C181 1.260 . S
O174 Zn169 1.996 . S
O174 C181 1.257 . S
C175 O170 1.254 . S
C175 O171 1.269 . S
C176 O177 1.249 . S
C176 O178 1.270 . S
O177 Zn169 1.943 . S
O177 C176 1.249 . S
O178 Zn168 2.067 . S
O178 C176 1.270 . S
C179 O172 1.262 . S
C179 O180 1.232 . S
O180 C179 1.232 . S
C181 O173 1.260 . S
C181 O174 1.257 . S
Zn182 O185 2.031 . S
Zn182 O187 2.049 . S
Zn182 O192 2.067 . S
Zn183 O184 1.962 . S
Zn183 O186 1.986 . S
Zn183 O188 1.996 . S
Zn183 O191 1.943 . S
O184 Zn183 1.962 . S
O184 C189 1.254 . S
O185 Zn182 2.031 . S
O185 C189 1.269 . S
O186 Zn183 1.986 . S
O186 C193 1.262 . S
O187 Zn182 2.049 . S
O187 C195 1.260 . S
O188 Zn183 1.996 . S
O188 C195 1.257 . S
C189 O184 1.254 . S
C189 O185 1.269 . S
C190 O191 1.249 . S
C190 O192 1.270 . S
O191 Zn183 1.943 . S
O191 C190 1.249 . S
O192 Zn182 2.067 . S
O192 C190 1.270 . S
C193 O186 1.262 . S
C193 O194 1.232 . S
O194 C193 1.232 . S
C195 O187 1.260 . S
C195 O188 1.257 . S
Zn196 O199 2.031 . S
Zn196 O201 2.049 . S
Zn196 O206 2.067 . S
Zn197 O198 1.962 . S
Zn197 O200 1.986 . S
Zn197 O202 1.996 . S
Zn197 O205 1.943 . S
O198 Zn197 1.962 . S
O198 C203 1.254 . S
O199 Zn196 2.031 . S
O199 C203 1.269 . S
O200 Zn197 1.986 . S
O200 C207 1.262 . S
O201 Zn196 2.049 . S
O201 C209 1.260 . S
O202 Zn197 1.996 . S
O202 C209 1.257 . S
C203 O198 1.254 . S
C203 O199 1.269 . S
C204 O205 1.249 . S
C204 O206 1.270 . S
O205 Zn197 1.943 . S
O205 C204 1.249 . S
O206 Zn196 2.067 . S
O206 C204 1.270 . S
C207 O200 1.262 . S
C207 O208 1.232 . S
O208 C207 1.232 . S
C209 O201 1.260 . S
C209 O202 1.257 . S
Zn210 O213 2.031 . S
Zn210 O215 2.049 . S
Zn210 O220 2.067 . S
Zn211 O212 1.962 . S
Zn211 O214 1.986 . S
Zn211 O216 1.996 . S
Zn211 O219 1.943 . S
O212 Zn211 1.962 . S
O212 C217 1.254 . S
O213 Zn210 2.031 . S
O213 C217 1.269 . S
O214 Zn211 1.986 . S
O214 C221 1.262 . S
O215 Zn210 2.049 . S
O215 C223 1.260 . S
O216 Zn211 1.996 . S
O216 C223 1.257 . S
C217 O212 1.254 . S
C217 O213 1.269 . S
C218 O219 1.249 . S
C218 O220 1.270 . S
O219 Zn211 1.943 . S
O219 C218 1.249 . S
O220 Zn210 2.067 . S
O220 C218 1.270 . S
C221 O214 1.262 . S
C221 O222 1.232 . S
O222 C221 1.232 . S
C223 O215 1.260 . S
C223 O216 1.257 . S
Zn224 O227 2.031 . S
Zn224 O229 2.049 . S
Zn224 O234 2.067 . S
Zn225 O226 1.962 . S
Zn225 O228 1.986 . S
Zn225 O230 1.996 . S
Zn225 O233 1.943 1_545 S
O226 Zn225 1.962 . S
O226 C231 1.254 . S
O227 Zn224 2.031 . S
O227 C231 1.269 1_565 S
O228 Zn225 1.986 . S
O228 C235 1.262 . S
O229 Zn224 2.049 . S
O229 C237 1.260 1_565 S
O230 Zn225 1.996 . S
O230 C237 1.257 . S
C231 O226 1.254 . S
C231 O227 1.269 1_545 S
C232 O233 1.249 . S
C232 O234 1.270 . S
O233 Zn225 1.943 1_565 S
O233 C232 1.249 . S
O234 Zn224 2.067 . S
O234 C232 1.270 . S
C235 O228 1.262 . S
C235 O236 1.232 . S
O236 C235 1.232 . S
C237 O229 1.260 1_545 S
C237 O230 1.257 . S
Zn238 O241 2.031 . S
Zn238 O243 2.049 . S
Zn238 O248 2.067 . S
Zn239 O240 1.962 . S
Zn239 O242 1.986 . S
Zn239 O244 1.996 . S
Zn239 O247 1.943 . S
O240 Zn239 1.962 . S
O240 C245 1.254 . S
O241 Zn238 2.031 . S
O241 C245 1.269 . S
O242 Zn239 1.986 . S
O242 C249 1.262 . S
O243 Zn238 2.049 . S
O243 C251 1.260 . S
O244 Zn239 1.996 . S
O244 C251 1.257 . S
C245 O240 1.254 . S
C245 O241 1.269 . S
C246 O247 1.249 . S
C246 O248 1.270 . S
O247 Zn239 1.943 . S
O247 C246 1.249 . S
O248 Zn238 2.067 . S
O248 C246 1.270 . S
C249 O242 1.262 . S
C249 O250 1.232 . S
O250 C249 1.232 . S
C251 O243 1.260 . S
C251 O244 1.257 . S
Zn252 O255 2.031 . S
Zn252 O257 2.049 . S
Zn252 O262 2.067 . S
Zn253 O254 1.962 . S
Zn253 O256 1.986 . S
Zn253 O258 1.996 . S
Zn253 O261 1.943 . S
O254 Zn253 1.962 . S
O254 C259 1.254 . S
O255 Zn252 2.031 . S
O255 C259 1.269 . S
O256 Zn253 1.986 . S
O256 C263 1.262 . S
O257 Zn252 2.049 . S
O257 C265 1.260 . S
O258 Zn253 1.996 . S
O258 C265 1.257 . S
C259 O254 1.254 . S
C259 O255 1.269 . S
C260 O261 1.249 . S
C260 O262 1.270 . S
O261 Zn253 1.943 . S
O261 C260 1.249 . S
O262 Zn252 2.067 . S
O262 C260 1.270 . S
C263 O256 1.262 . S
C263 O264 1.232 . S
O264 C263 1.232 . S
C265 O257 1.260 . S
C265 O258 1.257 . S
Zn266 O269 2.031 . S
Zn266 O271 2.049 . S
Zn266 O276 2.067 . S
Zn267 O268 1.962 . S
Zn267 O270 1.986 . S
Zn267 O272 1.996 . S
Zn267 O275 1.943 . S
O268 Zn267 1.962 . S
O268 C273 1.254 . S
O269 Zn266 2.031 . S
O269 C273 1.269 . S
O270 Zn267 1.986 . S
O270 C277 1.262 . S
O271 Zn266 2.049 . S
O271 C279 1.260 . S
O272 Zn267 1.996 . S
O272 C279 1.257 . S
C273 O268 1.254 . S
C273 O269 1.269 . S
C274 O275 1.249 . S
C274 O276 1.270 . S
O275 Zn267 1.943 . S
O275 C274 1.249 . S
O276 Zn266 2.067 . S
O276 C274 1.270 . S
C277 O270 1.262 . S
C277 O278 1.232 . S
O278 C277 1.232 . S
C279 O271 1.260 . S
C279 O272 1.257 . S
Zn280 O283 2.031 1_554 S
Zn280 O285 2.049 . S
Zn280 O290 2.067 . S
Zn281 O282 1.962 1_554 S
Zn281 O284 1.986 . S
Zn281 O286 1.996 . S
Zn281 O289 1.943 . S
O282 Zn281 1.962 1_556 S
O282 C287 1.254 . S
O283 Zn280 2.031 1_556 S
O283 C287 1.269 . S
O284 Zn281 1.986 . S
O284 C291 1.262 . S
O285 Zn280 2.049 . S
O285 C293 1.260 . S
O286 Zn281 1.996 . S
O286 C293 1.257 . S
C287 O282 1.254 . S
C287 O283 1.269 . S
C288 O289 1.249 . S
C288 O290 1.270 . S
O289 Zn281 1.943 . S
O289 C288 1.249 . S
O290 Zn280 2.067 . S
O290 C288 1.270 . S
C291 O284 1.262 . S
C291 O292 1.232 1_554 S
O292 C291 1.232 1_556 S
C293 O285 1.260 . S
C293 O286 1.257 . S
Zn294 O297 2.031 . S
Zn294 O299 2.049 . S
Zn294 O304 2.067 . S
Zn295 O296 1.962 . S
Zn295 O298 1.986 . S
Zn295 O300 1.996 . S
Zn295 O303 1.943 . S
O296 Zn295 1.962 . S
O296 C301 1.254 . S
O297 Zn294 2.031 . S
O297 C301 1.269 . S
O298 Zn295 1.986 . S
O298 C305 1.262 . S
O299 Zn294 2.049 . S
O299 C307 1.260 . S
O300 Zn295 1.996 . S
O300 C307 1.257 . S
C301 O296 1.254 . S
C301 O297 1.269 . S
C302 O303 1.249 . S
C302 O304 1.270 . S
O303 Zn295 1.943 . S
O303 C302 1.249 . S
O304 Zn294 2.067 . S
O304 C302 1.270 . S
C305 O298 1.262 . S
C305 O306 1.232 . S
O306 C305 1.232 . S
C307 O299 1.260 . S
C307 O300 1.257 . S
Zn308 O311 2.031 . S
Zn308 O313 2.049 . S
Zn308 O318 2.067 . S
Zn309 O310 1.962 . S
Zn309 O312 1.986 . S
Zn309 O314 1.996 . S
Zn309 O317 1.943 . S
O310 Zn309 1.962 . S
O310 C315 1.254 . S
O311 Zn308 2.031 . S
O311 C315 1.269 . S
O312 Zn309 1.986 . S
O312 C319 1.262 . S
O313 Zn308 2.049 . S
O313 C321 1.260 . S
O314 Zn309 1.996 . S
O314 C321 1.257 . S
C315 O310 1.254 . S
C315 O311 1.269 . S
C316 O317 1.249 . S
C316 O318 1.270 . S
O317 Zn309 1.943 . S
O317 C316 1.249 . S
O318 Zn308 2.067 . S
O318 C316 1.270 . S
C319 O312 1.262 . S
C319 O320 1.232 . S
O320 C319 1.232 . S
C321 O313 1.260 . S
C321 O314 1.257 . S
Zn322 O325 2.031 . S
Zn322 O327 2.049 . S
Zn322 O332 2.067 . S
Zn323 O324 1.962 . S
Zn323 O326 1.986 . S
Zn323 O328 1.996 . S
Zn323 O331 1.943 . S
O324 Zn323 1.962 . S
O324 C329 1.254 . S
O325 Zn322 2.031 . S
O325 C329 1.269 . S
O326 Zn323 1.986 . S
O326 C333 1.262 . S
O327 Zn322 2.049 . S
O327 C335 1.260 . S
O328 Zn323 1.996 . S
O328 C335 1.257 . S
C329 O324 1.254 . S
C329 O325 1.269 . S
C330 O331 1.249 . S
C330 O332 1.270 . S
O331 Zn323 1.943 . S
O331 C330 1.249 . S
O332 Zn322 2.067 . S
O332 C330 1.270 . S
C333 O326 1.262 . S
C333 O334 1.232 . S
O334 C333 1.232 . S
C335 O327 1.260 . S
C335 O328 1.257 . S
Tb336 N365 2.617 . S
Tb336 N371 2.572 . S
Tb336 O380 2.465 . S
Tb336 O381 2.387 . S
Tb336 O383 2.428 . S
Tb336 O384 2.308 . S
Tb336 O388 2.349 . S
Tb336 O391 2.393 . S
Tb336 C400 2.802 . S
C337 N338 1.379 . S
C337 C340 1.416 . S
C337 C344 1.424 1_556 S
N338 C337 1.379 . S
N338 C341 1.334 . S
N338 Tb347 2.613 1_666 S
C339 C341 1.390 . S
C339 C342 1.339 . S
C339 H359 0.930 . S
C340 C337 1.416 . S
C340 C342 1.416 . S
C340 C346 1.448 . S
C341 N338 1.334 . S
C341 C339 1.390 . S
C341 H352 0.930 . S
C342 C339 1.339 . S
C342 C340 1.416 . S
C342 H363 0.930 . S
C343 C344 1.413 . S
C343 C345 1.427 1_554 S
C343 C349 1.416 . S
C344 C337 1.424 1_554 S
C344 C343 1.413 . S
C344 N348 1.361 . S
C345 C343 1.427 1_556 S
C345 C346 1.328 . S
C345 H360 0.929 1_556 S
C346 C340 1.448 . S
C346 C345 1.328 . S
C346 H361 0.930 . S
Tb347 N338 2.613 1_444 S
Tb347 N348 2.558 1_445 S
Tb347 O382 2.353 . S
Tb347 O385 2.410 1_554 S
Tb347 O386 2.441 1_455 S
Tb347 O387 2.404 1_545 S
Tb347 O389 2.408 1_454 S
Tb347 O390 2.312 . S
Tb347 C411 2.778 1_455 S
N348 C344 1.361 . S
N348 Tb347 2.558 1_665 S
N348 C350 1.340 . S
C349 C343 1.416 . S
C349 C351 1.332 . S
C349 H357 0.931 . S
C350 N348 1.340 . S
C350 C351 1.407 . S
C350 H356 0.930 . S
C351 C349 1.332 . S
C351 C350 1.407 . S
C351 H353 0.929 . S
H352 C341 0.930 . S
H353 C351 0.929 . S
H354 C369 0.930 . S
H355 C376 0.929 1_556 S
H356 C350 0.930 . S
H357 C349 0.931 . S
H358 C372 0.930 . S
H359 C339 0.930 . S
H360 C345 0.929 1_554 S
H361 C346 0.930 . S
H362 C367 0.930 . S
H363 C342 0.930 . S
H364 C375 0.931 . S
N365 Tb336 2.617 . S
N365 C366 1.379 . S
N365 C369 1.334 . S
C366 N365 1.379 . S
C366 C368 1.416 . S
C366 C374 1.424 . S
C367 H362 0.930 . S
C367 C369 1.390 . S
C367 C370 1.339 . S
C368 C366 1.416 . S
C368 C370 1.416 . S
C368 C401 1.448 . S
C369 H354 0.930 . S
C369 N365 1.334 . S
C369 C367 1.390 . S
C370 C367 1.339 . S
C370 C368 1.416 . S
C370 H377 0.930 . S
N371 Tb336 2.572 . S
N371 C372 1.340 . S
N371 C374 1.361 . S
C372 H358 0.930 . S
C372 N371 1.340 . S
C372 C376 1.407 . S
C373 C374 1.413 . S
C373 C375 1.416 . S
C373 C402 1.427 . S
C374 C366 1.424 . S
C374 N371 1.361 . S
C374 C373 1.413 . S
C375 H364 0.931 . S
C375 C373 1.416 . S
C375 C376 1.332 . S
C376 H355 0.929 1_554 S
C376 C372 1.407 . S
C376 C375 1.332 . S
H377 C370 0.930 . S
H378 C401 0.930 . S
H379 C402 0.929 . S
O380 Tb336 2.465 . S
O380 C400 1.264 . S
O381 Tb336 2.387 . S
O381 C392 1.264 . S
O382 Tb347 2.353 . S
O382 C392 1.243 . S
O383 Tb336 2.428 . S
O383 C400 1.256 . S
O384 Tb336 2.308 . S
O384 C399 1.266 1_554 S
O385 Tb347 2.410 1_556 S
O385 C399 1.248 . S
O386 Tb347 2.441 1_655 S
O386 C411 1.264 . S
O387 Tb347 2.404 1_565 S
O387 C403 1.264 . S
O388 Tb336 2.349 . S
O388 C403 1.243 1_545 S
O389 Tb347 2.408 1_656 S
O389 C411 1.256 1_556 S
O390 Tb347 2.312 . S
O390 C410 1.266 . S
O391 Tb336 2.393 . S
O391 C410 1.248 . S
C392 O381 1.264 . S
C392 O382 1.243 . S
C393 C396 1.399 . S
C393 C398 1.383 . S
C393 C400 1.496 . S
C394 C395 1.399 . S
C394 C398 1.389 . S
C395 C394 1.399 . S
C395 C397 1.380 . S
C395 H412 0.921 1_545 S
C396 C393 1.399 . S
C396 C397 1.392 . S
C396 H413 0.929 . S
C397 C395 1.380 . S
C397 C396 1.392 . S
C397 H414 0.929 . S
C398 C393 1.383 . S
C398 C394 1.389 . S
C398 H415 0.931 . S
C399 O384 1.266 1_556 S
C399 O385 1.248 . S
C400 Tb336 2.802 . S
C400 O380 1.264 . S
C400 O383 1.256 . S
C400 C393 1.496 . S
C401 C368 1.448 . S
C401 H378 0.930 . S
C401 C402 1.328 . S
C402 C373 1.427 . S
C402 H379 0.929 . S
C402 C401 1.328 . S
C403 O387 1.264 . S
C403 O388 1.243 1_565 S
C404 C407 1.399 . S
C404 C408 1.384 1_556 S
C404 C411 1.496 1_556 S
C405 C406 1.399 1_554 S
C405 C408 1.389 . S
C406 C405 1.399 1_556 S
C406 C409 1.380 . S
C406 H416 0.929 . S
C407 C404 1.399 . S
C407 C409 1.392 . S
C407 H417 0.929 . S
C408 C404 1.384 1_554 S
C408 C405 1.389 . S
C408 H418 0.931 . S
C409 C406 1.380 . S
C409 C407 1.392 . S
C409 H419 0.929 . S
C410 O390 1.266 . S
C410 O391 1.248 . S
C411 Tb347 2.778 1_655 S
C411 O386 1.264 . S
C411 O389 1.256 1_554 S
C411 C404 1.496 1_554 S
H412 C395 0.921 1_565 S
H413 C396 0.929 . S
H414 C397 0.929 . S
H415 C398 0.931 . S
H416 C406 0.929 . S
H417 C407 0.929 . S
H418 C408 0.931 . S
H419 C409 0.929 . S
Tb420 N449 2.617 . S
Tb420 N455 2.572 . S
Tb420 O464 2.465 . S
Tb420 O465 2.387 . S
Tb420 O467 2.428 . S
Tb420 O468 2.308 . S
Tb420 O472 2.349 . S
Tb420 O475 2.393 . S
Tb420 C484 2.802 . S
C421 N422 1.379 . S
C421 C424 1.416 . S
C421 C428 1.424 . S
N422 C421 1.379 . S
N422 C425 1.334 . S
N422 Tb431 2.617 . S
C423 C425 1.390 . S
C423 C426 1.339 . S
C423 H443 0.930 . S
C424 C421 1.416 . S
C424 C426 1.416 . S
C424 C430 1.448 . S
C425 N422 1.334 . S
C425 C423 1.390 . S
C425 H436 0.930 . S
C426 C423 1.339 . S
C426 C424 1.416 . S
C426 H447 0.930 . S
C427 C428 1.413 . S
C427 C429 1.427 . S
C427 C433 1.416 . S
C428 C421 1.424 . S
C428 C427 1.413 . S
C428 N432 1.361 . S
C429 C427 1.427 . S
C429 C430 1.328 . S
C429 H444 0.929 . S
C430 C424 1.448 . S
C430 C429 1.328 . S
C430 H445 0.930 . S
Tb431 N422 2.617 . S
Tb431 N432 2.572 . S
Tb431 O466 2.349 . S
Tb431 O469 2.393 . S
Tb431 O470 2.465 . S
Tb431 O471 2.387 . S
Tb431 O473 2.428 . S
Tb431 O474 2.308 . S
Tb431 C495 2.802 . S
N432 C428 1.361 . S
N432 Tb431 2.572 . S
N432 C434 1.340 . S
C433 C427 1.416 . S
C433 C435 1.332 . S
C433 H441 0.931 . S
C434 N432 1.340 . S
C434 C435 1.407 . S
C434 H440 0.930 . S
C435 C433 1.332 . S
C435 C434 1.407 . S
C435 H437 0.929 . S
H436 C425 0.930 . S
H437 C435 0.929 . S
H438 C453 0.930 . S
H439 C460 0.929 . S
H440 C434 0.930 . S
H441 C433 0.931 . S
H442 C456 0.930 . S
H443 C423 0.930 . S
H444 C429 0.929 . S
H445 C430 0.930 . S
H446 C451 0.930 . S
H447 C426 0.930 . S
H448 C459 0.931 . S
N449 Tb420 2.617 . S
N449 C450 1.379 . S
N449 C453 1.334 . S
C450 N449 1.379 . S
C450 C452 1.416 . S
C450 C458 1.424 . S
C451 H446 0.930 . S
C451 C453 1.390 . S
C451 C454 1.339 . S
C452 C450 1.416 . S
C452 C454 1.416 . S
C452 C485 1.448 . S
C453 H438 0.930 . S
C453 N449 1.334 . S
C453 C451 1.390 . S
C454 C451 1.339 . S
C454 C452 1.416 . S
C454 H461 0.930 . S
N455 Tb420 2.572 . S
N455 C456 1.340 . S
N455 C458 1.361 . S
C456 H442 0.930 . S
C456 N455 1.340 . S
C456 C460 1.407 . S
C457 C458 1.413 . S
C457 C459 1.416 . S
C457 C486 1.427 . S
C458 C450 1.424 . S
C458 N455 1.361 . S
C458 C457 1.413 . S
C459 H448 0.931 . S
C459 C457 1.416 . S
C459 C460 1.332 . S
C460 H439 0.929 . S
C460 C456 1.407 . S
C460 C459 1.332 . S
H461 C454 0.930 . S
H462 C485 0.930 . S
H463 C486 0.929 . S
O464 Tb420 2.465 . S
O464 C484 1.264 . S
O465 Tb420 2.387 . S
O465 C476 1.264 . S
O466 Tb431 2.349 . S
O466 C476 1.243 . S
O467 Tb420 2.428 . S
O467 C484 1.256 . S
O468 Tb420 2.308 . S
O468 C483 1.266 . S
O469 Tb431 2.393 . S
O469 C483 1.248 . S
O470 Tb431 2.465 . S
O470 C495 1.264 . S
O471 Tb431 2.387 . S
O471 C487 1.264 . S
O472 Tb420 2.349 . S
O472 C487 1.243 . S
O473 Tb431 2.428 . S
O473 C495 1.256 . S
O474 Tb431 2.308 . S
O474 C494 1.266 . S
O475 Tb420 2.393 . S
O475 C494 1.248 . S
C476 O465 1.264 . S
C476 O466 1.243 . S
C477 C480 1.399 . S
C477 C482 1.383 . S
C477 C484 1.496 . S
C478 C479 1.399 . S
C478 C482 1.389 . S
C479 C478 1.399 . S
C479 C481 1.380 . S
C479 H496 0.929 . S
C480 C477 1.399 . S
C480 C481 1.392 . S
C480 H497 0.929 . S
C481 C479 1.380 . S
C481 C480 1.392 . S
C481 H498 0.929 . S
C482 C477 1.383 . S
C482 C478 1.389 . S
C482 H499 0.931 . S
C483 O468 1.266 . S
C483 O469 1.248 . S
C484 Tb420 2.802 . S
C484 O464 1.264 . S
C484 O467 1.256 . S
C484 C477 1.496 . S
C485 C452 1.448 . S
C485 H462 0.930 . S
C485 C486 1.328 . S
C486 C457 1.427 . S
C486 H463 0.929 . S
C486 C485 1.328 . S
C487 O471 1.264 . S
C487 O472 1.243 . S
C488 C491 1.399 . S
C488 C492 1.383 . S
C488 C495 1.496 . S
C489 C490 1.399 . S
C489 C492 1.389 . S
C490 C489 1.399 . S
C490 C493 1.380 . S
C490 H500 0.929 . S
C491 C488 1.399 . S
C491 C493 1.392 . S
C491 H501 0.929 . S
C492 C488 1.383 . S
C492 C489 1.389 . S
C492 H502 0.931 . S
C493 C490 1.380 . S
C493 C491 1.392 . S
C493 H503 0.929 . S
C494 O474 1.266 . S
C494 O475 1.248 . S
C495 Tb431 2.802 . S
C495 O470 1.264 . S
C495 O473 1.256 . S
C495 C488 1.496 . S
H496 C479 0.929 . S
H497 C480 0.929 . S
H498 C481 0.929 . S
H499 C482 0.931 . S
H500 C490 0.929 . S
H501 C491 0.929 . S
H502 C492 0.931 . S
H503 C493 0.929 . S
Tb504 N533 2.617 1_545 S
Tb504 N539 2.572 1_545 S
Tb504 O548 2.465 . S
Tb504 O549 2.387 1_545 S
Tb504 O551 2.428 . S
Tb504 O552 2.308 . S
Tb504 O556 2.349 . S
Tb504 O559 2.393 . S
Tb504 C568 2.802 . S
C505 N506 1.379 . S
C505 C508 1.416 . S
C505 C512 1.424 . S
N506 C505 1.379 . S
N506 C509 1.334 . S
N506 Tb515 2.617 . S
C507 C509 1.390 . S
C507 C510 1.339 . S
C507 H527 0.930 . S
C508 C505 1.416 . S
C508 C510 1.416 . S
C508 C514 1.448 . S
C509 N506 1.334 . S
C509 C507 1.390 . S
C509 H520 0.930 . S
C510 C507 1.339 . S
C510 C508 1.416 . S
C510 H531 0.930 . S
C511 C512 1.413 . S
C511 C513 1.427 . S
C511 C517 1.416 . S
C512 C505 1.424 . S
C512 C511 1.413 . S
C512 N516 1.361 . S
C513 C511 1.427 . S
C513 C514 1.328 . S
C513 H528 0.929 . S
C514 C508 1.448 . S
C514 C513 1.328 . S
C514 H529 0.930 . S
Tb515 N506 2.617 . S
Tb515 N516 2.572 . S
Tb515 O550 2.349 1_545 S
Tb515 O553 2.393 . S
Tb515 O554 2.465 . S
Tb515 O555 2.387 . S
Tb515 O557 2.428 . S
Tb515 O558 2.308 . S
Tb515 C579 2.802 . S
N516 C512 1.361 . S
N516 Tb515 2.572 . S
N516 C518 1.340 . S
C517 C511 1.416 . S
C517 C519 1.332 . S
C517 H525 0.931 . S
C518 N516 1.340 . S
C518 C519 1.407 . S
C518 H524 0.930 . S
C519 C517 1.332 . S
C519 C518 1.407 . S
C519 H521 0.929 . S
H520 C509 0.930 . S
H521 C519 0.929 . S
H522 C537 0.930 1_545 S
H523 C544 0.929 . S
H524 C518 0.930 . S
H525 C517 0.931 . S
H526 C540 0.930 . S
H527 C507 0.930 . S
H528 C513 0.929 . S
H529 C514 0.930 . S
H530 C535 0.930 . S
H531 C510 0.930 . S
H532 C543 0.931 . S
N533 Tb504 2.617 1_565 S
N533 C534 1.379 . S
N533 C537 1.334 . S
C534 N533 1.379 . S
C534 C536 1.416 . S
C534 C542 1.424 . S
C535 H530 0.930 . S
C535 C537 1.390 . S
C535 C538 1.339 . S
C536 C534 1.416 . S
C536 C538 1.416 . S
C536 C569 1.448 . S
C537 H522 0.930 1_565 S
C537 N533 1.334 . S
C537 C535 1.390 . S
C538 C535 1.339 . S
C538 C536 1.416 . S
C538 H545 0.930 . S
N539 Tb504 2.572 1_565 S
N539 C540 1.340 . S
N539 C542 1.361 . S
C540 H526 0.930 . S
C540 N539 1.340 . S
C540 C544 1.407 . S
C541 C542 1.413 . S
C541 C543 1.416 . S
C541 C570 1.427 . S
C542 C534 1.424 . S
C542 N539 1.361 . S
C542 C541 1.413 . S
C543 H532 0.931 . S
C543 C541 1.416 . S
C543 C544 1.332 . S
C544 H523 0.929 . S
C544 C540 1.407 . S
C544 C543 1.332 . S
H545 C538 0.930 . S
H546 C569 0.930 . S
H547 C570 0.929 . S
O548 Tb504 2.465 . S
O548 C568 1.264 . S
O549 Tb504 2.387 1_565 S
O549 C560 1.264 . S
O550 Tb515 2.349 1_565 S
O550 C560 1.243 . S
O551 Tb504 2.428 . S
O551 C568 1.256 . S
O552 Tb504 2.308 . S
O552 C567 1.266 . S
O553 Tb515 2.393 . S
O553 C567 1.248 . S
O554 Tb515 2.465 . S
O554 C579 1.264 . S
O555 Tb515 2.387 . S
O555 C571 1.264 . S
O556 Tb504 2.349 . S
O556 C571 1.243 . S
O557 Tb515 2.428 . S
O557 C579 1.256 . S
O558 Tb515 2.308 . S
O558 C578 1.266 . S
O559 Tb504 2.393 . S
O559 C578 1.248 . S
C560 O549 1.264 . S
C560 O550 1.243 . S
C561 C564 1.399 . S
C561 C566 1.383 . S
C561 C568 1.496 . S
C562 C563 1.399 . S
C562 C566 1.389 . S
C563 C562 1.399 . S
C563 C565 1.380 . S
C563 H580 0.929 . S
C564 C561 1.399 . S
C564 C565 1.392 . S
C564 H581 0.929 . S
C565 C563 1.380 . S
C565 C564 1.392 . S
C565 H582 0.929 . S
C566 C561 1.383 . S
C566 C562 1.389 . S
C566 H583 0.931 . S
C567 O552 1.266 . S
C567 O553 1.248 . S
C568 Tb504 2.802 . S
C568 O548 1.264 . S
C568 O551 1.256 . S
C568 C561 1.496 . S
C569 C536 1.448 . S
C569 H546 0.930 . S
C569 C570 1.328 . S
C570 C541 1.427 . S
C570 H547 0.929 . S
C570 C569 1.328 . S
C571 O555 1.264 . S
C571 O556 1.243 . S
C572 C575 1.399 . S
C572 C576 1.383 . S
C572 C579 1.496 1_565 S
C573 C574 1.399 . S
C573 C576 1.389 . S
C574 C573 1.399 . S
C574 C577 1.380 . S
C574 H584 0.929 . S
C575 C572 1.399 . S
C575 C577 1.392 . S
C575 H585 0.929 . S
C576 C572 1.383 . S
C576 C573 1.389 . S
C576 H586 0.931 . S
C577 C574 1.380 . S
C577 C575 1.392 . S
C577 H587 0.929 . S
C578 O558 1.266 . S
C578 O559 1.248 . S
C579 Tb515 2.802 . S
C579 O554 1.264 . S
C579 O557 1.256 . S
C579 C572 1.496 1_545 S
H580 C563 0.929 . S
H581 C564 0.929 . S
H582 C565 0.929 . S
H583 C566 0.931 . S
H584 C574 0.929 . S
H585 C575 0.929 . S
H586 C576 0.931 . S
H587 C577 0.929 . S
Tb588 N617 2.617 . S
Tb588 N623 2.572 . S
Tb588 O632 2.465 . S
Tb588 O633 2.387 . S
Tb588 O635 2.428 . S
Tb588 O636 2.308 . S
Tb588 O640 2.349 . S
Tb588 O643 2.393 . S
Tb588 C652 2.802 . S
C589 N590 1.379 . S
C589 C592 1.416 . S
C589 C596 1.424 . S
N590 C589 1.379 . S
N590 C593 1.334 . S
N590 Tb599 2.617 . S
C591 C593 1.390 . S
C591 C594 1.339 . S
C591 H611 0.930 . S
C592 C589 1.416 . S
C592 C594 1.416 . S
C592 C598 1.448 . S
C593 N590 1.334 . S
C593 C591 1.390 . S
C593 H604 0.930 . S
C594 C591 1.339 . S
C594 C592 1.416 . S
C594 H615 0.930 . S
C595 C596 1.413 . S
C595 C597 1.427 . S
C595 C601 1.416 . S
C596 C589 1.424 . S
C596 C595 1.413 . S
C596 N600 1.361 . S
C597 C595 1.427 . S
C597 C598 1.328 . S
C597 H612 0.929 . S
C598 C592 1.448 . S
C598 C597 1.328 . S
C598 H613 0.930 . S
Tb599 N590 2.617 . S
Tb599 N600 2.572 . S
Tb599 O634 2.349 . S
Tb599 O637 2.393 . S
Tb599 O638 2.465 . S
Tb599 O639 2.387 . S
Tb599 O641 2.428 . S
Tb599 O642 2.308 . S
Tb599 C663 2.802 . S
N600 C596 1.361 . S
N600 Tb599 2.572 . S
N600 C602 1.340 . S
C601 C595 1.416 . S
C601 C603 1.332 . S
C601 H609 0.931 . S
C602 N600 1.340 . S
C602 C603 1.407 . S
C602 H608 0.930 . S
C603 C601 1.332 . S
C603 C602 1.407 . S
C603 H605 0.929 . S
H604 C593 0.930 . S
H605 C603 0.929 . S
H606 C621 0.930 . S
H607 C628 0.929 . S
H608 C602 0.930 . S
H609 C601 0.931 . S
H610 C624 0.930 . S
H611 C591 0.930 . S
H612 C597 0.929 . S
H613 C598 0.930 . S
H614 C619 0.930 . S
H615 C594 0.930 . S
H616 C627 0.931 . S
N617 Tb588 2.617 . S
N617 C618 1.379 . S
N617 C621 1.334 . S
C618 N617 1.379 . S
C618 C620 1.416 . S
C618 C626 1.424 . S
C619 H614 0.930 . S
C619 C621 1.390 . S
C619 C622 1.339 . S
C620 C618 1.416 . S
C620 C622 1.416 . S
C620 C653 1.448 . S
C621 H606 0.930 . S
C621 N617 1.334 . S
C621 C619 1.390 . S
C622 C619 1.339 . S
C622 C620 1.416 . S
C622 H629 0.930 . S
N623 Tb588 2.572 . S
N623 C624 1.340 . S
N623 C626 1.361 . S
C624 H610 0.930 . S
C624 N623 1.340 . S
C624 C628 1.407 . S
C625 C626 1.413 . S
C625 C627 1.416 . S
C625 C654 1.427 . S
C626 C618 1.424 . S
C626 N623 1.361 . S
C626 C625 1.413 . S
C627 H616 0.931 . S
C627 C625 1.416 . S
C627 C628 1.332 . S
C628 H607 0.929 . S
C628 C624 1.407 . S
C628 C627 1.332 . S
H629 C622 0.930 . S
H630 C653 0.930 . S
H631 C654 0.929 . S
O632 Tb588 2.465 . S
O632 C652 1.264 . S
O633 Tb588 2.387 . S
O633 C644 1.264 . S
O634 Tb599 2.349 . S
O634 C644 1.243 . S
O635 Tb588 2.428 . S
O635 C652 1.256 . S
O636 Tb588 2.308 . S
O636 C651 1.266 . S
O637 Tb599 2.393 . S
O637 C651 1.248 . S
O638 Tb599 2.465 . S
O638 C663 1.264 . S
O639 Tb599 2.387 . S
O639 C655 1.264 . S
O640 Tb588 2.349 . S
O640 C655 1.243 . S
O641 Tb599 2.428 . S
O641 C663 1.256 . S
O642 Tb599 2.308 . S
O642 C662 1.266 . S
O643 Tb588 2.393 . S
O643 C662 1.248 . S
C644 O633 1.264 . S
C644 O634 1.243 . S
C645 C648 1.399 . S
C645 C650 1.383 . S
C645 C652 1.496 . S
C646 C647 1.399 . S
C646 C650 1.389 . S
C647 C646 1.399 . S
C647 C649 1.380 . S
C647 H664 0.929 . S
C648 C645 1.399 . S
C648 C649 1.392 . S
C648 H665 0.929 . S
C649 C647 1.380 . S
C649 C648 1.392 . S
C649 H666 0.929 . S
C650 C645 1.383 . S
C650 C646 1.389 . S
C650 H667 0.931 . S
C651 O636 1.266 . S
C651 O637 1.248 . S
C652 Tb588 2.802 . S
C652 O632 1.264 . S
C652 O635 1.256 . S
C652 C645 1.496 . S
C653 C620 1.448 . S
C653 H630 0.930 . S
C653 C654 1.328 . S
C654 C625 1.427 . S
C654 H631 0.929 . S
C654 C653 1.328 . S
C655 O639 1.264 . S
C655 O640 1.243 . S
C656 C659 1.399 . S
C656 C660 1.383 . S
C656 C663 1.496 . S
C657 C658 1.399 . S
C657 C660 1.389 . S
C658 C657 1.399 . S
C658 C661 1.380 . S
C658 H668 0.929 . S
C659 C656 1.399 . S
C659 C661 1.392 . S
C659 H669 0.929 . S
C660 C656 1.383 . S
C660 C657 1.389 . S
C660 H670 0.931 . S
C661 C658 1.380 . S
C661 C659 1.392 . S
C661 H671 0.929 . S
C662 O642 1.266 . S
C662 O643 1.248 . S
C663 Tb599 2.802 . S
C663 O638 1.264 . S
C663 O641 1.256 . S
C663 C656 1.496 . S
H664 C647 0.929 . S
H665 C648 0.929 . S
H666 C649 0.929 . S
H667 C650 0.931 . S
H668 C658 0.929 . S
H669 C659 0.929 . S
H670 C660 0.931 . S
H671 C661 0.929 . S
Tb672 N701 2.617 . S
Tb672 N707 2.572 . S
Tb672 O716 2.465 . S
Tb672 O717 2.387 1_565 S
Tb672 O719 2.428 . S
Tb672 O720 2.317 . S
Tb672 O724 2.349 1_565 S
Tb672 O727 2.393 1_565 S
Tb672 C736 2.802 . S
C673 N674 1.379 1_455 S
C673 C676 1.416 1_455 S
C673 C680 1.424 . S
N674 C673 1.379 1_655 S
N674 C677 1.334 . S
N674 Tb683 2.617 1_655 S
C675 C677 1.390 . S
C675 C678 1.339 . S
C675 H695 0.930 . S
C676 C673 1.416 1_655 S
C676 C678 1.416 . S
C676 C682 1.448 1_655 S
C677 N674 1.334 . S
C677 C675 1.390 . S
C677 H688 0.930 . S
C678 C675 1.339 . S
C678 C676 1.416 . S
C678 H699 0.930 . S
C679 C680 1.413 . S
C679 C681 1.427 . S
C679 C685 1.416 . S
C680 C673 1.424 . S
C680 C679 1.413 . S
C680 N684 1.361 . S
C681 C679 1.427 . S
C681 C682 1.328 . S
C681 H696 0.929 . S
C682 C676 1.448 1_455 S
C682 C681 1.328 . S
C682 H697 0.949 . S
Tb683 N674 2.617 1_455 S
Tb683 N684 2.572 . S
Tb683 O718 2.349 . S
Tb683 O721 2.393 1_455 S
Tb683 O722 2.465 . S
Tb683 O723 2.387 . S
Tb683 O725 2.428 1_455 S
Tb683 O726 2.308 . S
Tb683 C747 2.802 . S
N684 C680 1.361 . S
N684 Tb683 2.572 . S
N684 C686 1.340 . S
C685 C679 1.416 . S
C685 C687 1.332 . S
C685 H693 0.931 . S
C686 N684 1.340 . S
C686 C687 1.407 . S
C686 H692 0.930 . S
C687 C685 1.332 . S
C687 C686 1.407 . S
C687 H689 0.929 . S
H688 C677 0.930 . S
H689 C687 0.929 . S
H690 C705 0.930 1_545 S
H691 C712 0.929 . S
H692 C686 0.930 . S
H693 C685 0.931 . S
H694 C708 0.951 . S
H695 C675 0.930 . S
H696 C681 0.929 . S
H697 C682 0.949 . S
H698 C703 0.930 . S
H699 C678 0.930 . S
H700 C711 0.931 . S
N701 Tb672 2.617 . S
N701 C702 1.379 . S
N701 C705 1.334 . S
C702 N701 1.379 . S
C702 C704 1.416 . S
C702 C710 1.424 . S
C703 H698 0.930 . S
C703 C705 1.390 . S
C703 C706 1.339 . S
C704 C702 1.416 . S
C704 C706 1.416 . S
C704 C737 1.448 . S
C705 H690 0.930 1_565 S
C705 N701 1.334 . S
C705 C703 1.390 . S
C706 C703 1.339 . S
C706 C704 1.416 . S
C706 H713 0.930 . S
N707 Tb672 2.572 . S
N707 C708 1.309 1_455 S
N707 C710 1.361 . S
C708 H694 0.951 . S
C708 N707 1.309 1_655 S
C708 C712 1.419 . S
C709 C710 1.413 . S
C709 C711 1.416 1_455 S
C709 C738 1.427 . S
C710 C702 1.424 . S
C710 N707 1.361 . S
C710 C709 1.413 . S
C711 H700 0.931 . S
C711 C709 1.416 1_655 S
C711 C712 1.332 . S
C712 H691 0.929 . S
C712 C708 1.419 . S
C712 C711 1.332 . S
H713 C706 0.930 . S
H714 C737 0.930 . S
H715 C738 0.929 . S
O716 Tb672 2.465 . S
O716 C736 1.264 . S
O717 Tb672 2.387 1_545 S
O717 C728 1.264 . S
O718 Tb683 2.349 . S
O718 C728 1.243 . S
O719 Tb672 2.428 . S
O719 C736 1.256 . S
O720 Tb672 2.317 . S
O720 C735 1.253 1_465 S
O721 Tb683 2.393 1_655 S
O721 C735 1.248 . S
O722 Tb683 2.465 . S
O722 C747 1.264 . S
O723 Tb683 2.387 . S
O723 C739 1.264 . S
O724 Tb672 2.349 1_545 S
O724 C739 1.243 . S
O725 Tb683 2.428 1_655 S
O725 C747 1.256 1_655 S
O726 Tb683 2.308 . S
O726 C746 1.266 . S
O727 Tb672 2.393 1_545 S
O727 C746 1.248 . S
C728 O717 1.264 . S
C728 O718 1.243 . S
C729 C732 1.399 . S
C729 C734 1.383 . S
C729 C736 1.496 . S
C730 C731 1.399 . S
C730 C734 1.389 . S
C731 C730 1.399 . S
C731 C733 1.380 . S
C731 H748 0.929 . S
C732 C729 1.399 . S
C732 C733 1.392 . S
C732 H749 0.929 . S
C733 C731 1.380 . S
C733 C732 1.392 . S
C733 H750 0.929 . S
C734 C729 1.383 . S
C734 C730 1.389 . S
C734 H751 0.931 . S
C735 O720 1.253 1_645 S
C735 O721 1.248 . S
C736 Tb672 2.802 . S
C736 O716 1.264 . S
C736 O719 1.256 . S
C736 C729 1.496 . S
C737 C704 1.448 . S
C737 H714 0.930 . S
C737 C738 1.328 . S
C738 C709 1.427 . S
C738 H715 0.929 . S
C738 C737 1.328 . S
C739 O723 1.264 . S
C739 O724 1.243 . S
C740 C743 1.399 1_455 S
C740 C744 1.383 . S
C740 C747 1.496 . S
C741 C742 1.399 . S
C741 C744 1.389 . S
C742 C741 1.399 . S
C742 C745 1.380 1_455 S
C742 H752 0.928 1_455 S
C743 C740 1.399 1_655 S
C743 C745 1.392 . S
C743 H753 0.929 . S
C744 C740 1.383 . S
C744 C741 1.389 . S
C744 H754 0.931 . S
C745 C742 1.380 1_655 S
C745 C743 1.392 . S
C745 H755 0.929 . S
C746 O726 1.266 . S
C746 O727 1.248 . S
C747 Tb683 2.802 . S
C747 O722 1.264 . S
C747 O725 1.256 1_455 S
C747 C740 1.496 . S
H748 C731 0.929 . S
H749 C732 0.929 . S
H750 C733 0.929 . S
H751 C734 0.931 . S
H752 C742 0.928 1_655 S
H753 C743 0.929 . S
H754 C744 0.931 . S
H755 C745 0.929 . S
Tb756 N785 2.617 . S
Tb756 N791 2.572 . S
Tb756 O800 2.465 . S
Tb756 O801 2.387 . S
Tb756 O803 2.428 . S
Tb756 O804 2.308 . S
Tb756 O808 2.349 . S
Tb756 O811 2.393 . S
Tb756 C820 2.802 . S
C757 N758 1.379 . S
C757 C760 1.416 . S
C757 C764 1.424 . S
N758 C757 1.379 . S
N758 C761 1.334 . S
N758 Tb767 2.617 . S
C759 C761 1.390 . S
C759 C762 1.339 . S
C759 H779 0.930 . S
C760 C757 1.416 . S
C760 C762 1.416 . S
C760 C766 1.448 . S
C761 N758 1.334 . S
C761 C759 1.390 . S
C761 H772 0.930 . S
C762 C759 1.339 . S
C762 C760 1.416 . S
C762 H783 0.930 . S
C763 C764 1.413 . S
C763 C765 1.427 . S
C763 C769 1.416 . S
C764 C757 1.424 . S
C764 C763 1.413 . S
C764 N768 1.361 . S
C765 C763 1.427 . S
C765 C766 1.328 . S
C765 H780 0.929 . S
C766 C760 1.448 . S
C766 C765 1.328 . S
C766 H781 0.930 . S
Tb767 N758 2.617 . S
Tb767 N768 2.572 . S
Tb767 O802 2.349 . S
Tb767 O805 2.393 . S
Tb767 O806 2.465 . S
Tb767 O807 2.387 . S
Tb767 O809 2.428 . S
Tb767 O810 2.308 . S
Tb767 C831 2.802 . S
N768 C764 1.361 . S
N768 Tb767 2.572 . S
N768 C770 1.340 . S
C769 C763 1.416 . S
C769 C771 1.332 . S
C769 H777 0.931 . S
C770 N768 1.340 . S
C770 C771 1.407 . S
C770 H776 0.930 . S
C771 C769 1.332 . S
C771 C770 1.407 . S
C771 H773 0.929 . S
H772 C761 0.930 . S
H773 C771 0.929 . S
H774 C789 0.930 . S
H775 C796 0.929 . S
H776 C770 0.930 . S
H777 C769 0.931 . S
H778 C792 0.930 . S
H779 C759 0.930 . S
H780 C765 0.929 . S
H781 C766 0.930 . S
H782 C787 0.930 . S
H783 C762 0.930 . S
H784 C795 0.931 . S
N785 Tb756 2.617 . S
N785 C786 1.379 . S
N785 C789 1.334 . S
C786 N785 1.379 . S
C786 C788 1.416 . S
C786 C794 1.424 . S
C787 H782 0.930 . S
C787 C789 1.390 . S
C787 C790 1.339 . S
C788 C786 1.416 . S
C788 C790 1.416 . S
C788 C821 1.448 . S
C789 H774 0.930 . S
C789 N785 1.334 . S
C789 C787 1.390 . S
C790 C787 1.339 . S
C790 C788 1.416 . S
C790 H797 0.930 . S
N791 Tb756 2.572 . S
N791 C792 1.340 . S
N791 C794 1.361 . S
C792 H778 0.930 . S
C792 N791 1.340 . S
C792 C796 1.407 . S
C793 C794 1.413 . S
C793 C795 1.416 . S
C793 C822 1.427 . S
C794 C786 1.424 . S
C794 N791 1.361 . S
C794 C793 1.413 . S
C795 H784 0.931 . S
C795 C793 1.416 . S
C795 C796 1.332 . S
C796 H775 0.929 . S
C796 C792 1.407 . S
C796 C795 1.332 . S
H797 C790 0.930 . S
H798 C821 0.930 . S
H799 C822 0.929 . S
O800 Tb756 2.465 . S
O800 C820 1.264 . S
O801 Tb756 2.387 . S
O801 C812 1.264 . S
O802 Tb767 2.349 . S
O802 C812 1.243 . S
O803 Tb756 2.428 . S
O803 C820 1.256 . S
O804 Tb756 2.308 . S
O804 C819 1.266 . S
O805 Tb767 2.393 . S
O805 C819 1.248 . S
O806 Tb767 2.465 . S
O806 C831 1.264 . S
O807 Tb767 2.387 . S
O807 C823 1.264 . S
O808 Tb756 2.349 . S
O808 C823 1.243 . S
O809 Tb767 2.428 . S
O809 C831 1.256 . S
O810 Tb767 2.308 . S
O810 C830 1.266 . S
O811 Tb756 2.393 . S
O811 C830 1.248 . S
C812 O801 1.264 . S
C812 O802 1.243 . S
C813 C816 1.399 . S
C813 C818 1.383 . S
C813 C820 1.496 . S
C814 C815 1.399 . S
C814 C818 1.389 . S
C815 C814 1.399 . S
C815 C817 1.380 . S
C815 H832 0.929 . S
C816 C813 1.399 . S
C816 C817 1.392 . S
C816 H833 0.929 . S
C817 C815 1.380 . S
C817 C816 1.392 . S
C817 H834 0.929 . S
C818 C813 1.383 . S
C818 C814 1.389 . S
C818 H835 0.931 . S
C819 O804 1.266 . S
C819 O805 1.248 . S
C820 Tb756 2.802 . S
C820 O800 1.264 . S
C820 O803 1.256 . S
C820 C813 1.496 . S
C821 C788 1.448 . S
C821 H798 0.930 . S
C821 C822 1.328 . S
C822 C793 1.427 . S
C822 H799 0.929 . S
C822 C821 1.328 . S
C823 O807 1.264 . S
C823 O808 1.243 . S
C824 C827 1.399 . S
C824 C828 1.383 . S
C824 C831 1.496 . S
C825 C826 1.399 . S
C825 C828 1.389 . S
C826 C825 1.399 . S
C826 C829 1.380 . S
C826 H836 0.929 . S
C827 C824 1.399 . S
C827 C829 1.392 . S
C827 H837 0.929 . S
C828 C824 1.383 . S
C828 C825 1.389 . S
C828 H838 0.931 . S
C829 C826 1.380 . S
C829 C827 1.392 . S
C829 H839 0.929 . S
C830 O810 1.266 . S
C830 O811 1.248 . S
C831 Tb767 2.802 . S
C831 O806 1.264 . S
C831 O809 1.256 . S
C831 C824 1.496 . S
H832 C815 0.929 . S
H833 C816 0.929 . S
H834 C817 0.929 . S
H835 C818 0.931 . S
H836 C826 0.929 . S
H837 C827 0.929 . S
H838 C828 0.931 . S
H839 C829 0.929 . S
Tb840 N869 2.617 . S
Tb840 N875 2.572 . S
Tb840 O884 2.465 . S
Tb840 O885 2.387 1_556 S
Tb840 O887 2.428 . S
Tb840 O888 2.308 . S
Tb840 O892 2.349 1_556 S
Tb840 O895 2.393 1_556 S
Tb840 C904 2.802 . S
C841 N842 1.379 1_545 S
C841 C844 1.416 1_545 S
C841 C848 1.424 . S
N842 C841 1.379 1_565 S
N842 C845 1.334 . S
N842 Tb851 2.617 1_565 S
C843 C845 1.390 . S
C843 C846 1.339 . S
C843 H863 0.930 . S
C844 C841 1.416 1_565 S
C844 C846 1.416 . S
C844 C850 1.448 1_565 S
C845 N842 1.334 . S
C845 C843 1.390 . S
C845 H856 0.930 . S
C846 C843 1.339 . S
C846 C844 1.416 . S
C846 H867 0.930 . S
C847 C848 1.413 . S
C847 C849 1.427 . S
C847 C853 1.416 . S
C848 C841 1.424 . S
C848 C847 1.413 . S
C848 N852 1.361 . S
C849 C847 1.427 . S
C849 C850 1.328 . S
C849 H864 0.929 . S
C850 C844 1.448 1_545 S
C850 C849 1.328 . S
C850 H865 0.930 1_545 S
Tb851 N842 2.617 1_545 S
Tb851 N852 2.572 . S
Tb851 O886 2.349 . S
Tb851 O889 2.393 1_545 S
Tb851 O890 2.465 . S
Tb851 O891 2.387 . S
Tb851 O893 2.428 1_545 S
Tb851 O894 2.308 . S
Tb851 C915 2.802 . S
N852 C848 1.361 . S
N852 Tb851 2.572 . S
N852 C854 1.340 . S
C853 C847 1.416 . S
C853 C855 1.332 . S
C853 H861 0.931 . S
C854 N852 1.340 . S
C854 C855 1.407 . S
C854 H860 0.930 . S
C855 C853 1.332 . S
C855 C854 1.407 . S
C855 H857 0.929 . S
H856 C845 0.930 . S
H857 C855 0.929 . S
H858 C873 0.930 . S
H859 C880 0.929 . S
H860 C854 0.930 . S
H861 C853 0.931 . S
H862 C876 0.976 . S
H863 C843 0.930 . S
H864 C849 0.929 . S
H865 C850 0.930 1_565 S
H866 C871 0.930 . S
H867 C846 0.930 . S
H868 C879 0.916 1_565 S
N869 Tb840 2.617 . S
N869 C870 1.379 . S
N869 C873 1.334 . S
C870 N869 1.379 . S
C870 C872 1.416 . S
C870 C878 1.424 . S
C871 H866 0.930 . S
C871 C873 1.390 . S
C871 C874 1.339 . S
C872 C870 1.416 . S
C872 C874 1.416 . S
C872 C905 1.448 . S
C873 H858 0.930 . S
C873 N869 1.334 . S
C873 C871 1.390 . S
C874 C871 1.339 . S
C874 C872 1.416 . S
C874 H881 0.930 . S
N875 Tb840 2.572 . S
N875 C876 1.340 . S
N875 C878 1.361 . S
C876 H862 0.976 . S
C876 N875 1.340 . S
C876 C880 1.407 1_545 S
C877 C878 1.413 . S
C877 C879 1.416 . S
C877 C906 1.427 . S
C878 C870 1.424 . S
C878 N875 1.361 . S
C878 C877 1.413 . S
C879 H868 0.916 1_545 S
C879 C877 1.416 . S
C879 C880 1.332 1_545 S
C880 H859 0.929 . S
C880 C876 1.407 1_565 S
C880 C879 1.332 1_565 S
H881 C874 0.930 . S
H882 C905 0.930 . S
H883 C906 0.929 . S
O884 Tb840 2.465 . S
O884 C904 1.264 . S
O885 Tb840 2.387 1_554 S
O885 C896 1.264 . S
O886 Tb851 2.349 . S
O886 C896 1.243 . S
O887 Tb840 2.428 . S
O887 C904 1.256 . S
O888 Tb840 2.308 . S
O888 C903 1.276 1_545 S
O889 Tb851 2.393 1_565 S
O889 C903 1.224 1_554 S
O890 Tb851 2.465 . S
O890 C915 1.264 . S
O891 Tb851 2.387 . S
O891 C907 1.264 . S
O892 Tb840 2.349 1_554 S
O892 C907 1.243 . S
O893 Tb851 2.428 1_565 S
O893 C915 1.256 1_565 S
O894 Tb851 2.308 . S
O894 C914 1.266 . S
O895 Tb840 2.393 1_554 S
O895 C914 1.248 . S
C896 O885 1.264 . S
C896 O886 1.243 . S
C897 C900 1.399 . S
C897 C902 1.383 . S
C897 C904 1.496 . S
C898 C899 1.399 . S
C898 C902 1.389 . S
C899 C898 1.399 . S
C899 C901 1.380 . S
C899 H916 0.929 . S
C900 C897 1.399 . S
C900 C901 1.392 . S
C900 H917 0.929 . S
C901 C899 1.380 . S
C901 C900 1.392 . S
C901 H918 0.929 . S
C902 C897 1.383 . S
C902 C898 1.389 . S
C902 H919 0.931 . S
C903 O888 1.276 1_565 S
C903 O889 1.224 1_556 S
C904 Tb840 2.802 . S
C904 O884 1.264 . S
C904 O887 1.256 . S
C904 C897 1.496 . S
C905 C872 1.448 . S
C905 H882 0.930 . S
C905 C906 1.328 . S
C906 C877 1.427 . S
C906 H883 0.929 . S
C906 C905 1.328 . S
C907 O891 1.264 . S
C907 O892 1.243 . S
C908 C911 1.427 . S
C908 C912 1.363 1_565 S
C908 C915 1.489 1_565 S
C909 C910 1.399 1_545 S
C909 C912 1.389 . S
C910 C909 1.399 1_565 S
C910 C913 1.380 . S
C910 H920 0.929 . S
C911 C908 1.427 . S
C911 C913 1.392 . S
C911 H921 0.929 . S
C912 C908 1.363 1_545 S
C912 C909 1.389 . S
C912 H922 0.931 . S
C913 C910 1.380 . S
C913 C911 1.392 . S
C913 H923 0.929 . S
C914 O894 1.266 . S
C914 O895 1.248 . S
C915 Tb851 2.802 . S
C915 O890 1.264 . S
C915 O893 1.256 1_545 S
C915 C908 1.489 1_545 S
H916 C899 0.929 . S
H917 C900 0.929 . S
H918 C901 0.929 . S
H919 C902 0.931 . S
H920 C910 0.929 . S
H921 C911 0.929 . S
H922 C912 0.931 . S
H923 C913 0.929 . S
Tb924 N953 2.617 . S
Tb924 N959 2.572 . S
Tb924 O968 2.465 . S
Tb924 O969 2.387 . S
Tb924 O971 2.428 . S
Tb924 O972 2.308 . S
Tb924 O976 2.349 . S
Tb924 O979 2.393 . S
Tb924 C988 2.802 . S
C925 N926 1.379 . S
C925 C928 1.416 . S
C925 C932 1.424 . S
N926 C925 1.379 . S
N926 C929 1.334 . S
N926 Tb935 2.617 . S
C927 C929 1.390 . S
C927 C930 1.339 . S
C927 H947 0.930 . S
C928 C925 1.416 . S
C928 C930 1.416 . S
C928 C934 1.448 . S
C929 N926 1.334 . S
C929 C927 1.390 . S
C929 H940 0.930 . S
C930 C927 1.339 . S
C930 C928 1.416 . S
C930 H951 0.930 . S
C931 C932 1.413 . S
C931 C933 1.427 . S
C931 C937 1.416 . S
C932 C925 1.424 . S
C932 C931 1.413 . S
C932 N936 1.361 . S
C933 C931 1.427 . S
C933 C934 1.328 . S
C933 H948 0.929 . S
C934 C928 1.448 . S
C934 C933 1.328 . S
C934 H949 0.930 . S
Tb935 N926 2.617 . S
Tb935 N936 2.572 . S
Tb935 O970 2.349 . S
Tb935 O973 2.393 . S
Tb935 O974 2.465 . S
Tb935 O975 2.387 . S
Tb935 O977 2.428 . S
Tb935 O978 2.308 . S
Tb935 C999 2.802 . S
N936 C932 1.361 . S
N936 Tb935 2.572 . S
N936 C938 1.340 . S
C937 C931 1.416 . S
C937 C939 1.332 . S
C937 H945 0.931 . S
C938 N936 1.340 . S
C938 C939 1.407 . S
C938 H944 0.930 . S
C939 C937 1.332 . S
C939 C938 1.407 . S
C939 H941 0.929 . S
H940 C929 0.930 . S
H941 C939 0.929 . S
H942 C957 0.930 . S
H943 C964 0.929 . S
H944 C938 0.930 . S
H945 C937 0.931 . S
H946 C960 0.930 . S
H947 C927 0.930 . S
H948 C933 0.929 . S
H949 C934 0.930 . S
H950 C955 0.930 . S
H951 C930 0.930 . S
H952 C963 0.931 . S
N953 Tb924 2.617 . S
N953 C954 1.379 . S
N953 C957 1.334 . S
C954 N953 1.379 . S
C954 C956 1.416 . S
C954 C962 1.424 . S
C955 H950 0.930 . S
C955 C957 1.390 . S
C955 C958 1.339 . S
C956 C954 1.416 . S
C956 C958 1.416 . S
C956 C989 1.448 . S
C957 H942 0.930 . S
C957 N953 1.334 . S
C957 C955 1.390 . S
C958 C955 1.339 . S
C958 C956 1.416 . S
C958 H965 0.930 . S
N959 Tb924 2.572 . S
N959 C960 1.340 . S
N959 C962 1.361 . S
C960 H946 0.930 . S
C960 N959 1.340 . S
C960 C964 1.407 . S
C961 C962 1.413 . S
C961 C963 1.416 . S
C961 C990 1.427 . S
C962 C954 1.424 . S
C962 N959 1.361 . S
C962 C961 1.413 . S
C963 H952 0.931 . S
C963 C961 1.416 . S
C963 C964 1.332 . S
C964 H943 0.929 . S
C964 C960 1.407 . S
C964 C963 1.332 . S
H965 C958 0.930 . S
H966 C989 0.930 . S
H967 C990 0.929 . S
O968 Tb924 2.465 . S
O968 C988 1.264 . S
O969 Tb924 2.387 . S
O969 C980 1.264 . S
O970 Tb935 2.349 . S
O970 C980 1.243 . S
O971 Tb924 2.428 . S
O971 C988 1.256 . S
O972 Tb924 2.308 . S
O972 C987 1.266 . S
O973 Tb935 2.393 . S
O973 C987 1.248 . S
O974 Tb935 2.465 . S
O974 C999 1.264 . S
O975 Tb935 2.387 . S
O975 C991 1.264 . S
O976 Tb924 2.349 . S
O976 C991 1.243 . S
O977 Tb935 2.428 . S
O977 C999 1.256 . S
O978 Tb935 2.308 . S
O978 C998 1.266 . S
O979 Tb924 2.393 . S
O979 C998 1.248 . S
C980 O969 1.264 . S
C980 O970 1.243 . S
C981 C984 1.399 . S
C981 C986 1.383 . S
C981 C988 1.496 . S
C982 C983 1.399 . S
C982 C986 1.389 . S
C983 C982 1.399 . S
C983 C985 1.380 . S
C983 H1000 0.929 . S
C984 C981 1.399 . S
C984 C985 1.392 . S
C984 H1001 0.929 . S
C985 C983 1.380 . S
C985 C984 1.392 . S
C985 H1002 0.929 . S
C986 C981 1.383 . S
C986 C982 1.389 . S
C986 H1003 0.931 . S
C987 O972 1.266 . S
C987 O973 1.248 . S
C988 Tb924 2.802 . S
C988 O968 1.264 . S
C988 O971 1.256 . S
C988 C981 1.496 . S
C989 C956 1.448 . S
C989 H966 0.930 . S
C989 C990 1.328 . S
C990 C961 1.427 . S
C990 H967 0.929 . S
C990 C989 1.328 . S
C991 O975 1.264 . S
C991 O976 1.243 . S
C992 C995 1.399 . S
C992 C996 1.383 . S
C992 C999 1.496 . S
C993 C994 1.399 . S
C993 C996 1.389 . S
C994 C993 1.399 . S
C994 C997 1.380 . S
C994 H1004 0.929 . S
C995 C992 1.399 . S
C995 C997 1.392 . S
C995 H1005 0.929 . S
C996 C992 1.383 . S
C996 C993 1.389 . S
C996 H1006 0.931 . S
C997 C994 1.380 . S
C997 C995 1.392 . S
C997 H1007 0.929 . S
C998 O978 1.266 . S
C998 O979 1.248 . S
C999 Tb935 2.802 . S
C999 O974 1.264 . S
C999 O977 1.256 . S
C999 C992 1.496 . S
H1000 C983 0.929 . S
H1001 C984 0.929 . S
H1002 C985 0.929 . S
H1003 C986 0.931 . S
H1004 C994 0.929 . S
H1005 C995 0.929 . S
H1006 C996 0.931 . S
H1007 C997 0.929 . S
Tb1008 N1037 2.617 1_554 S
Tb1008 N1043 2.572 1_554 S
Tb1008 O1052 2.465 . S
Tb1008 O1053 2.387 1_554 S
Tb1008 O1055 2.428 . S
Tb1008 O1056 2.308 . S
Tb1008 O1060 2.349 . S
Tb1008 O1063 2.393 . S
Tb1008 C1072 2.802 . S
C1009 N1010 1.379 . S
C1009 C1012 1.416 . S
C1009 C1016 1.424 . S
N1010 C1009 1.379 . S
N1010 C1013 1.334 . S
N1010 Tb1019 2.617 . S
C1011 C1013 1.390 . S
C1011 C1014 1.339 . S
C1011 H1031 0.930 . S
C1012 C1009 1.416 . S
C1012 C1014 1.416 . S
C1012 C1018 1.448 . S
C1013 N1010 1.334 . S
C1013 C1011 1.390 . S
C1013 H1024 0.930 . S
C1014 C1011 1.339 . S
C1014 C1012 1.416 . S
C1014 H1035 0.930 . S
C1015 C1016 1.413 . S
C1015 C1017 1.427 . S
C1015 C1021 1.416 . S
C1016 C1009 1.424 . S
C1016 C1015 1.413 . S
C1016 N1020 1.361 . S
C1017 C1015 1.427 . S
C1017 C1018 1.328 . S
C1017 H1032 0.929 . S
C1018 C1012 1.448 . S
C1018 C1017 1.328 . S
C1018 H1033 0.930 . S
Tb1019 N1010 2.617 . S
Tb1019 N1020 2.572 . S
Tb1019 O1054 2.349 1_554 S
Tb1019 O1057 2.393 . S
Tb1019 O1058 2.465 . S
Tb1019 O1059 2.387 . S
Tb1019 O1061 2.428 . S
Tb1019 O1062 2.308 . S
Tb1019 C1083 2.802 . S
N1020 C1016 1.361 . S
N1020 Tb1019 2.572 . S
N1020 C1022 1.340 . S
C1021 C1015 1.416 . S
C1021 C1023 1.332 . S
C1021 H1029 0.931 . S
C1022 N1020 1.340 . S
C1022 C1023 1.407 . S
C1022 H1028 0.930 . S
C1023 C1021 1.332 . S
C1023 C1022 1.407 . S
C1023 H1025 0.929 . S
H1024 C1013 0.930 . S
H1025 C1023 0.929 . S
H1026 C1041 0.930 . S
H1027 C1048 0.929 . S
H1028 C1022 0.930 . S
H1029 C1021 0.931 . S
H1030 C1044 0.930 . S
H1031 C1011 0.930 . S
H1032 C1017 0.929 . S
H1033 C1018 0.930 . S
H1034 C1039 0.930 . S
H1035 C1014 0.930 . S
H1036 C1047 0.931 . S
N1037 Tb1008 2.617 1_556 S
N1037 C1038 1.379 . S
N1037 C1041 1.334 . S
C1038 N1037 1.379 . S
C1038 C1040 1.416 . S
C1038 C1046 1.424 . S
C1039 H1034 0.930 . S
C1039 C1041 1.390 . S
C1039 C1042 1.339 . S
C1040 C1038 1.416 . S
C1040 C1042 1.416 . S
C1040 C1073 1.448 . S
C1041 H1026 0.930 . S
C1041 N1037 1.334 . S
C1041 C1039 1.390 . S
C1042 C1039 1.339 . S
C1042 C1040 1.416 . S
C1042 H1049 0.930 . S
N1043 Tb1008 2.572 1_556 S
N1043 C1044 1.340 . S
N1043 C1046 1.361 . S
C1044 H1030 0.930 . S
C1044 N1043 1.340 . S
C1044 C1048 1.407 . S
C1045 C1046 1.413 . S
C1045 C1047 1.416 . S
C1045 C1074 1.427 . S
C1046 C1038 1.424 . S
C1046 N1043 1.361 . S
C1046 C1045 1.413 . S
C1047 H1036 0.931 . S
C1047 C1045 1.416 . S
C1047 C1048 1.332 . S
C1048 H1027 0.929 . S
C1048 C1044 1.407 . S
C1048 C1047 1.332 . S
H1049 C1042 0.930 . S
H1050 C1073 0.930 . S
H1051 C1074 0.929 . S
O1052 Tb1008 2.465 . S
O1052 C1072 1.264 . S
O1053 Tb1008 2.387 1_556 S
O1053 C1064 1.264 . S
O1054 Tb1019 2.349 1_556 S
O1054 C1064 1.243 . S
O1055 Tb1008 2.428 . S
O1055 C1072 1.256 . S
O1056 Tb1008 2.308 . S
O1056 C1071 1.266 . S
O1057 Tb1019 2.393 . S
O1057 C1071 1.248 . S
O1058 Tb1019 2.465 . S
O1058 C1083 1.264 . S
O1059 Tb1019 2.387 . S
O1059 C1075 1.264 . S
O1060 Tb1008 2.349 . S
O1060 C1075 1.243 . S
O1061 Tb1019 2.428 . S
O1061 C1083 1.256 . S
O1062 Tb1019 2.308 . S
O1062 C1082 1.266 . S
O1063 Tb1008 2.393 . S
O1063 C1082 1.248 . S
C1064 O1053 1.264 . S
C1064 O1054 1.243 . S
C1065 C1068 1.399 . S
C1065 C1070 1.383 . S
C1065 C1072 1.496 . S
C1066 C1067 1.399 . S
C1066 C1070 1.389 . S
C1067 C1066 1.399 . S
C1067 C1069 1.380 . S
C1067 H1084 0.929 . S
C1068 C1065 1.399 . S
C1068 C1069 1.392 . S
C1068 H1085 0.929 . S
C1069 C1067 1.380 . S
C1069 C1068 1.392 . S
C1069 H1086 0.929 . S
C1070 C1065 1.383 . S
C1070 C1066 1.389 . S
C1070 H1087 0.931 . S
C1071 O1056 1.266 . S
C1071 O1057 1.248 . S
C1072 Tb1008 2.802 . S
C1072 O1052 1.264 . S
C1072 O1055 1.256 . S
C1072 C1065 1.496 . S
C1073 C1040 1.448 . S
C1073 H1050 0.930 . S
C1073 C1074 1.328 . S
C1074 C1045 1.427 . S
C1074 H1051 0.929 . S
C1074 C1073 1.328 . S
C1075 O1059 1.264 . S
C1075 O1060 1.243 . S
C1076 C1079 1.399 . S
C1076 C1080 1.383 . S
C1076 C1083 1.496 1_556 S
C1077 C1078 1.399 . S
C1077 C1080 1.389 . S
C1078 C1077 1.399 . S
C1078 C1081 1.380 . S
C1078 H1088 0.929 . S
C1079 C1076 1.399 . S
C1079 C1081 1.392 . S
C1079 H1089 0.929 . S
C1080 C1076 1.383 . S
C1080 C1077 1.389 . S
C1080 H1090 0.931 . S
C1081 C1078 1.380 . S
C1081 C1079 1.392 . S
C1081 H1091 0.929 . S
C1082 O1062 1.266 . S
C1082 O1063 1.248 . S
C1083 Tb1019 2.802 . S
C1083 O1058 1.264 . S
C1083 O1061 1.256 . S
C1083 C1076 1.496 1_554 S
H1084 C1067 0.929 . S
H1085 C1068 0.929 . S
H1086 C1069 0.929 . S
H1087 C1070 0.931 . S
H1088 C1078 0.929 . S
H1089 C1079 0.929 . S
H1090 C1080 0.931 . S
H1091 C1081 0.929 . S
Tb1092 N1121 2.617 . S
Tb1092 N1127 2.572 . S
Tb1092 O1136 2.465 . S
Tb1092 O1137 2.387 . S
Tb1092 O1139 2.428 . S
Tb1092 O1140 2.308 . S
Tb1092 O1144 2.349 . S
Tb1092 O1147 2.393 . S
Tb1092 C1156 2.802 . S
C1093 N1094 1.379 . S
C1093 C1096 1.416 . S
C1093 C1100 1.424 . S
N1094 C1093 1.379 . S
N1094 C1097 1.334 . S
N1094 Tb1103 2.617 . S
C1095 C1097 1.390 . S
C1095 C1098 1.339 . S
C1095 H1115 0.930 . S
C1096 C1093 1.416 . S
C1096 C1098 1.416 . S
C1096 C1102 1.448 . S
C1097 N1094 1.334 . S
C1097 C1095 1.390 . S
C1097 H1108 0.930 . S
C1098 C1095 1.339 . S
C1098 C1096 1.416 . S
C1098 H1119 0.930 . S
C1099 C1100 1.413 . S
C1099 C1101 1.427 . S
C1099 C1105 1.416 . S
C1100 C1093 1.424 . S
C1100 C1099 1.413 . S
C1100 N1104 1.361 . S
C1101 C1099 1.427 . S
C1101 C1102 1.328 . S
C1101 H1116 0.929 . S
C1102 C1096 1.448 . S
C1102 C1101 1.328 . S
C1102 H1117 0.930 . S
Tb1103 N1094 2.617 . S
Tb1103 N1104 2.572 . S
Tb1103 O1138 2.349 . S
Tb1103 O1141 2.393 . S
Tb1103 O1142 2.465 . S
Tb1103 O1143 2.387 . S
Tb1103 O1145 2.428 . S
Tb1103 O1146 2.308 . S
Tb1103 C1167 2.802 . S
N1104 C1100 1.361 . S
N1104 Tb1103 2.572 . S
N1104 C1106 1.340 . S
C1105 C1099 1.416 . S
C1105 C1107 1.332 . S
C1105 H1113 0.931 . S
C1106 N1104 1.340 . S
C1106 C1107 1.407 . S
C1106 H1112 0.930 . S
C1107 C1105 1.332 . S
C1107 C1106 1.407 . S
C1107 H1109 0.929 . S
H1108 C1097 0.930 . S
H1109 C1107 0.929 . S
H1110 C1125 0.930 . S
H1111 C1132 0.929 . S
H1112 C1106 0.930 . S
H1113 C1105 0.931 . S
H1114 C1128 0.930 . S
H1115 C1095 0.930 . S
H1116 C1101 0.929 . S
H1117 C1102 0.930 . S
H1118 C1123 0.930 . S
H1119 C1098 0.930 . S
H1120 C1131 0.931 . S
N1121 Tb1092 2.617 . S
N1121 C1122 1.379 . S
N1121 C1125 1.334 . S
C1122 N1121 1.379 . S
C1122 C1124 1.416 . S
C1122 C1130 1.424 . S
C1123 H1118 0.930 . S
C1123 C1125 1.390 . S
C1123 C1126 1.339 . S
C1124 C1122 1.416 . S
C1124 C1126 1.416 . S
C1124 C1157 1.448 . S
C1125 H1110 0.930 . S
C1125 N1121 1.334 . S
C1125 C1123 1.390 . S
C1126 C1123 1.339 . S
C1126 C1124 1.416 . S
C1126 H1133 0.930 . S
N1127 Tb1092 2.572 . S
N1127 C1128 1.340 . S
N1127 C1130 1.361 . S
C1128 H1114 0.930 . S
C1128 N1127 1.340 . S
C1128 C1132 1.407 . S
C1129 C1130 1.413 . S
C1129 C1131 1.416 . S
C1129 C1158 1.427 . S
C1130 C1122 1.424 . S
C1130 N1127 1.361 . S
C1130 C1129 1.413 . S
C1131 H1120 0.931 . S
C1131 C1129 1.416 . S
C1131 C1132 1.332 . S
C1132 H1111 0.929 . S
C1132 C1128 1.407 . S
C1132 C1131 1.332 . S
H1133 C1126 0.930 . S
H1134 C1157 0.930 . S
H1135 C1158 0.929 . S
O1136 Tb1092 2.465 . S
O1136 C1156 1.264 . S
O1137 Tb1092 2.387 . S
O1137 C1148 1.264 . S
O1138 Tb1103 2.349 . S
O1138 C1148 1.243 . S
O1139 Tb1092 2.428 . S
O1139 C1156 1.256 . S
O1140 Tb1092 2.308 . S
O1140 C1155 1.266 . S
O1141 Tb1103 2.393 . S
O1141 C1155 1.248 . S
O1142 Tb1103 2.465 . S
O1142 C1167 1.264 . S
O1143 Tb1103 2.387 . S
O1143 C1159 1.264 . S
O1144 Tb1092 2.349 . S
O1144 C1159 1.243 . S
O1145 Tb1103 2.428 . S
O1145 C1167 1.256 . S
O1146 Tb1103 2.308 . S
O1146 C1166 1.266 . S
O1147 Tb1092 2.393 . S
O1147 C1166 1.248 . S
C1148 O1137 1.264 . S
C1148 O1138 1.243 . S
C1149 C1152 1.399 . S
C1149 C1154 1.383 . S
C1149 C1156 1.496 . S
C1150 C1151 1.399 . S
C1150 C1154 1.389 . S
C1151 C1150 1.399 . S
C1151 C1153 1.380 . S
C1151 H1168 0.929 . S
C1152 C1149 1.399 . S
C1152 C1153 1.392 . S
C1152 H1169 0.929 . S
C1153 C1151 1.380 . S
C1153 C1152 1.392 . S
C1153 H1170 0.929 . S
C1154 C1149 1.383 . S
C1154 C1150 1.389 . S
C1154 H1171 0.931 . S
C1155 O1140 1.266 . S
C1155 O1141 1.248 . S
C1156 Tb1092 2.802 . S
C1156 O1136 1.264 . S
C1156 O1139 1.256 . S
C1156 C1149 1.496 . S
C1157 C1124 1.448 . S
C1157 H1134 0.930 . S
C1157 C1158 1.328 . S
C1158 C1129 1.427 . S
C1158 H1135 0.929 . S
C1158 C1157 1.328 . S
C1159 O1143 1.264 . S
C1159 O1144 1.243 . S
C1160 C1163 1.399 . S
C1160 C1164 1.383 . S
C1160 C1167 1.496 . S
C1161 C1162 1.399 . S
C1161 C1164 1.389 . S
C1162 C1161 1.399 . S
C1162 C1165 1.380 . S
C1162 H1172 0.929 . S
C1163 C1160 1.399 . S
C1163 C1165 1.392 . S
C1163 H1173 0.929 . S
C1164 C1160 1.383 . S
C1164 C1161 1.389 . S
C1164 H1174 0.931 . S
C1165 C1162 1.380 . S
C1165 C1163 1.392 . S
C1165 H1175 0.929 . S
C1166 O1146 1.266 . S
C1166 O1147 1.248 . S
C1167 Tb1103 2.802 . S
C1167 O1142 1.264 . S
C1167 O1145 1.256 . S
C1167 C1160 1.496 . S
H1168 C1151 0.929 . S
H1169 C1152 0.929 . S
H1170 C1153 0.929 . S
H1171 C1154 0.931 . S
H1172 C1162 0.929 . S
H1173 C1163 0.929 . S
H1174 C1164 0.931 . S
H1175 C1165 0.929 . S
Tb1176 N1205 2.617 1_455 S
Tb1176 N1211 2.572 1_455 S
Tb1176 O1220 2.465 . S
Tb1176 O1221 2.387 1_455 S
Tb1176 O1223 2.428 . S
Tb1176 O1224 2.308 . S
Tb1176 O1228 2.349 . S
Tb1176 O1231 2.393 . S
Tb1176 C1240 2.802 . S
C1177 N1178 1.379 . S
C1177 C1180 1.416 . S
C1177 C1184 1.424 . S
N1178 C1177 1.379 . S
N1178 C1181 1.334 . S
N1178 Tb1187 2.617 . S
C1179 C1181 1.390 . S
C1179 C1182 1.339 . S
C1179 H1199 0.930 . S
C1180 C1177 1.416 . S
C1180 C1182 1.416 . S
C1180 C1186 1.448 . S
C1181 N1178 1.334 . S
C1181 C1179 1.390 . S
C1181 H1192 0.930 . S
C1182 C1179 1.339 . S
C1182 C1180 1.416 . S
C1182 H1203 0.930 . S
C1183 C1184 1.413 . S
C1183 C1185 1.427 . S
C1183 C1189 1.416 . S
C1184 C1177 1.424 . S
C1184 C1183 1.413 . S
C1184 N1188 1.361 . S
C1185 C1183 1.427 . S
C1185 C1186 1.328 . S
C1185 H1200 0.929 . S
C1186 C1180 1.448 . S
C1186 C1185 1.328 . S
C1186 H1201 0.930 . S
Tb1187 N1178 2.617 . S
Tb1187 N1188 2.572 . S
Tb1187 O1222 2.349 1_455 S
Tb1187 O1225 2.393 . S
Tb1187 O1226 2.465 . S
Tb1187 O1227 2.387 . S
Tb1187 O1229 2.428 . S
Tb1187 O1230 2.308 . S
Tb1187 C1251 2.802 . S
N1188 C1184 1.361 . S
N1188 Tb1187 2.572 . S
N1188 C1190 1.340 . S
C1189 C1183 1.416 . S
C1189 C1191 1.332 . S
C1189 H1197 0.931 . S
C1190 N1188 1.340 . S
C1190 C1191 1.407 . S
C1190 H1196 0.930 . S
C1191 C1189 1.332 . S
C1191 C1190 1.407 . S
C1191 H1193 0.929 . S
H1192 C1181 0.930 . S
H1193 C1191 0.929 . S
H1194 C1209 0.930 1_455 S
H1195 C1216 0.929 . S
H1196 C1190 0.930 . S
H1197 C1189 0.931 . S
H1198 C1212 0.882 1_455 S
H1199 C1179 0.930 . S
H1200 C1185 0.929 . S
H1201 C1186 0.930 . S
H1202 C1207 0.930 . S
H1203 C1182 0.930 . S
H1204 C1215 0.931 . S
N1205 Tb1176 2.617 1_655 S
N1205 C1206 1.379 . S
N1205 C1209 1.334 . S
C1206 N1205 1.379 . S
C1206 C1208 1.416 . S
C1206 C1214 1.424 . S
C1207 H1202 0.930 . S
C1207 C1209 1.390 . S
C1207 C1210 1.339 . S
C1208 C1206 1.416 . S
C1208 C1210 1.416 . S
C1208 C1241 1.448 . S
C1209 H1194 0.930 1_655 S
C1209 N1205 1.334 . S
C1209 C1207 1.390 . S
C1210 C1207 1.339 . S
C1210 C1208 1.416 . S
C1210 H1217 0.930 . S
N1211 Tb1176 2.572 1_655 S
N1211 C1212 1.340 . S
N1211 C1214 1.361 . S
C1212 H1198 0.882 1_655 S
C1212 N1211 1.340 . S
C1212 C1216 1.407 . S
C1213 C1214 1.413 . S
C1213 C1215 1.416 . S
C1213 C1242 1.427 . S
C1214 C1206 1.424 . S
C1214 N1211 1.361 . S
C1214 C1213 1.413 . S
C1215 H1204 0.931 . S
C1215 C1213 1.416 . S
C1215 C1216 1.332 . S
C1216 H1195 0.929 . S
C1216 C1212 1.407 . S
C1216 C1215 1.332 . S
H1217 C1210 0.930 . S
H1218 C1241 0.930 . S
H1219 C1242 0.929 . S
O1220 Tb1176 2.465 . S
O1220 C1240 1.264 . S
O1221 Tb1176 2.387 1_655 S
O1221 C1232 1.264 . S
O1222 Tb1187 2.349 1_655 S
O1222 C1232 1.243 . S
O1223 Tb1176 2.428 . S
O1223 C1240 1.256 . S
O1224 Tb1176 2.308 . S
O1224 C1239 1.266 . S
O1225 Tb1187 2.393 . S
O1225 C1239 1.248 . S
O1226 Tb1187 2.465 . S
O1226 C1251 1.264 . S
O1227 Tb1187 2.387 . S
O1227 C1243 1.264 . S
O1228 Tb1176 2.349 . S
O1228 C1243 1.243 . S
O1229 Tb1187 2.428 . S
O1229 C1251 1.256 . S
O1230 Tb1187 2.308 . S
O1230 C1250 1.266 . S
O1231 Tb1176 2.393 . S
O1231 C1250 1.248 . S
C1232 O1221 1.264 . S
C1232 O1222 1.243 . S
C1233 C1236 1.399 . S
C1233 C1238 1.383 . S
C1233 C1240 1.496 . S
C1234 C1235 1.399 . S
C1234 C1238 1.389 . S
C1235 C1234 1.399 . S
C1235 C1237 1.380 . S
C1235 H1252 0.929 . S
C1236 C1233 1.399 . S
C1236 C1237 1.392 . S
C1236 H1253 0.929 . S
C1237 C1235 1.380 . S
C1237 C1236 1.392 . S
C1237 H1254 0.929 . S
C1238 C1233 1.383 . S
C1238 C1234 1.389 . S
C1238 H1255 0.931 . S
C1239 O1224 1.266 . S
C1239 O1225 1.248 . S
C1240 Tb1176 2.802 . S
C1240 O1220 1.264 . S
C1240 O1223 1.256 . S
C1240 C1233 1.496 . S
C1241 C1208 1.448 . S
C1241 H1218 0.930 . S
C1241 C1242 1.328 . S
C1242 C1213 1.427 . S
C1242 H1219 0.929 . S
C1242 C1241 1.328 . S
C1243 O1227 1.264 . S
C1243 O1228 1.243 . S
C1244 C1247 1.399 . S
C1244 C1248 1.383 . S
C1244 C1251 1.496 1_655 S
C1245 C1246 1.399 . S
C1245 C1248 1.389 . S
C1246 C1245 1.399 . S
C1246 C1249 1.380 . S
C1246 H1256 0.929 . S
C1247 C1244 1.399 . S
C1247 C1249 1.392 . S
C1247 H1257 0.929 . S
C1248 C1244 1.383 . S
C1248 C1245 1.389 . S
C1248 H1258 0.931 . S
C1249 C1246 1.380 . S
C1249 C1247 1.392 . S
C1249 H1259 0.929 . S
C1250 O1230 1.266 . S
C1250 O1231 1.248 . S
C1251 Tb1187 2.802 . S
C1251 O1226 1.264 . S
C1251 O1229 1.256 . S
C1251 C1244 1.496 1_455 S
H1252 C1235 0.929 . S
H1253 C1236 0.929 . S
H1254 C1237 0.929 . S
H1255 C1238 0.931 . S
H1256 C1246 0.929 . S
H1257 C1247 0.929 . S
H1258 C1248 0.931 . S
H1259 C1249 0.929 . S
Tb1260 N1289 2.617 . S
Tb1260 N1295 2.572 . S
Tb1260 O1304 2.465 . S
Tb1260 O1305 2.387 . S
Tb1260 O1307 2.428 . S
Tb1260 O1308 2.308 . S
Tb1260 O1312 2.349 . S
Tb1260 O1315 2.393 . S
Tb1260 C1324 2.802 . S
C1261 N1262 1.379 . S
C1261 C1264 1.416 . S
C1261 C1268 1.424 . S
N1262 C1261 1.379 . S
N1262 C1265 1.334 . S
N1262 Tb1271 2.617 . S
C1263 C1265 1.390 . S
C1263 C1266 1.339 . S
C1263 H1283 0.930 . S
C1264 C1261 1.416 . S
C1264 C1266 1.416 . S
C1264 C1270 1.448 . S
C1265 N1262 1.334 . S
C1265 C1263 1.390 . S
C1265 H1276 0.930 . S
C1266 C1263 1.339 . S
C1266 C1264 1.416 . S
C1266 H1287 0.930 . S
C1267 C1268 1.413 . S
C1267 C1269 1.427 . S
C1267 C1273 1.416 . S
C1268 C1261 1.424 . S
C1268 C1267 1.413 . S
C1268 N1272 1.361 . S
C1269 C1267 1.427 . S
C1269 C1270 1.328 . S
C1269 H1284 0.929 . S
C1270 C1264 1.448 . S
C1270 C1269 1.328 . S
C1270 H1285 0.930 . S
Tb1271 N1262 2.617 . S
Tb1271 N1272 2.572 . S
Tb1271 O1306 2.349 . S
Tb1271 O1309 2.393 . S
Tb1271 O1310 2.465 . S
Tb1271 O1311 2.387 . S
Tb1271 O1313 2.428 . S
Tb1271 O1314 2.308 . S
Tb1271 C1335 2.802 . S
N1272 C1268 1.361 . S
N1272 Tb1271 2.572 . S
N1272 C1274 1.340 . S
C1273 C1267 1.416 . S
C1273 C1275 1.332 . S
C1273 H1281 0.931 . S
C1274 N1272 1.340 . S
C1274 C1275 1.407 . S
C1274 H1280 0.930 . S
C1275 C1273 1.332 . S
C1275 C1274 1.407 . S
C1275 H1277 0.929 . S
H1276 C1265 0.930 . S
H1277 C1275 0.929 . S
H1278 C1293 0.930 . S
H1279 C1300 0.929 . S
H1280 C1274 0.930 . S
H1281 C1273 0.931 . S
H1282 C1296 0.930 . S
H1283 C1263 0.930 . S
H1284 C1269 0.929 . S
H1285 C1270 0.930 . S
H1286 C1291 0.930 . S
H1287 C1266 0.930 . S
H1288 C1299 0.931 . S
N1289 Tb1260 2.617 . S
N1289 C1290 1.379 . S
N1289 C1293 1.334 . S
C1290 N1289 1.379 . S
C1290 C1292 1.416 . S
C1290 C1298 1.424 . S
C1291 H1286 0.930 . S
C1291 C1293 1.390 . S
C1291 C1294 1.339 . S
C1292 C1290 1.416 . S
C1292 C1294 1.416 . S
C1292 C1325 1.448 . S
C1293 H1278 0.930 . S
C1293 N1289 1.334 . S
C1293 C1291 1.390 . S
C1294 C1291 1.339 . S
C1294 C1292 1.416 . S
C1294 H1301 0.930 . S
N1295 Tb1260 2.572 . S
N1295 C1296 1.340 . S
N1295 C1298 1.361 . S
C1296 H1282 0.930 . S
C1296 N1295 1.340 . S
C1296 C1300 1.407 . S
C1297 C1298 1.413 . S
C1297 C1299 1.416 . S
C1297 C1326 1.427 . S
C1298 C1290 1.424 . S
C1298 N1295 1.361 . S
C1298 C1297 1.413 . S
C1299 H1288 0.931 . S
C1299 C1297 1.416 . S
C1299 C1300 1.332 . S
C1300 H1279 0.929 . S
C1300 C1296 1.407 . S
C1300 C1299 1.332 . S
H1301 C1294 0.930 . S
H1302 C1325 0.930 . S
H1303 C1326 0.929 . S
O1304 Tb1260 2.465 . S
O1304 C1324 1.264 . S
O1305 Tb1260 2.387 . S
O1305 C1316 1.264 . S
O1306 Tb1271 2.349 . S
O1306 C1316 1.243 . S
O1307 Tb1260 2.428 . S
O1307 C1324 1.256 . S
O1308 Tb1260 2.308 . S
O1308 C1323 1.266 . S
O1309 Tb1271 2.393 . S
O1309 C1323 1.248 . S
O1310 Tb1271 2.465 . S
O1310 C1335 1.264 . S
O1311 Tb1271 2.387 . S
O1311 C1327 1.264 . S
O1312 Tb1260 2.349 . S
O1312 C1327 1.243 . S
O1313 Tb1271 2.428 . S
O1313 C1335 1.256 . S
O1314 Tb1271 2.308 . S
O1314 C1334 1.266 . S
O1315 Tb1260 2.393 . S
O1315 C1334 1.248 . S
C1316 O1305 1.264 . S
C1316 O1306 1.243 . S
C1317 C1320 1.399 . S
C1317 C1322 1.383 . S
C1317 C1324 1.496 . S
C1318 C1319 1.399 . S
C1318 C1322 1.389 . S
C1319 C1318 1.399 . S
C1319 C1321 1.380 . S
C1319 H1336 0.929 . S
C1320 C1317 1.399 . S
C1320 C1321 1.392 . S
C1320 H1337 0.929 . S
C1321 C1319 1.380 . S
C1321 C1320 1.392 . S
C1321 H1338 0.929 . S
C1322 C1317 1.383 . S
C1322 C1318 1.389 . S
C1322 H1339 0.931 . S
C1323 O1308 1.266 . S
C1323 O1309 1.248 . S
C1324 Tb1260 2.802 . S
C1324 O1304 1.264 . S
C1324 O1307 1.256 . S
C1324 C1317 1.496 . S
C1325 C1292 1.448 . S
C1325 H1302 0.930 . S
C1325 C1326 1.328 . S
C1326 C1297 1.427 . S
C1326 H1303 0.929 . S
C1326 C1325 1.328 . S
C1327 O1311 1.264 . S
C1327 O1312 1.243 . S
C1328 C1331 1.399 . S
C1328 C1332 1.383 . S
C1328 C1335 1.496 . S
C1329 C1330 1.399 . S
C1329 C1332 1.389 . S
C1330 C1329 1.399 . S
C1330 C1333 1.380 . S
C1330 H1340 0.929 . S
C1331 C1328 1.399 . S
C1331 C1333 1.392 . S
C1331 H1341 0.929 . S
C1332 C1328 1.383 . S
C1332 C1329 1.389 . S
C1332 H1342 0.931 . S
C1333 C1330 1.380 . S
C1333 C1331 1.392 . S
C1333 H1343 0.929 . S
C1334 O1314 1.266 . S
C1334 O1315 1.248 . S
C1335 Tb1271 2.802 . S
C1335 O1310 1.264 . S
C1335 O1313 1.256 . S
C1335 C1328 1.496 . S
H1336 C1319 0.929 . S
H1337 C1320 0.929 . S
H1338 C1321 0.929 . S
H1339 C1322 0.931 . S
H1340 C1330 0.929 . S
H1341 C1331 0.929 . S
H1342 C1332 0.931 . S
H1343 C1333 0.929 . S
Tb1344 N1373 2.617 . S
Tb1344 N1379 2.572 . S
Tb1344 O1388 2.465 . S
Tb1344 O1389 2.387 . S
Tb1344 O1391 2.428 . S
Tb1344 O1392 2.308 . S
Tb1344 O1396 2.349 . S
Tb1344 O1399 2.393 . S
Tb1344 C1408 2.802 . S
C1345 N1346 1.379 . S
C1345 C1348 1.416 . S
C1345 C1352 1.424 . S
N1346 C1345 1.379 . S
N1346 C1349 1.334 . S
N1346 Tb1355 2.617 . S
C1347 C1349 1.390 . S
C1347 C1350 1.339 . S
C1347 H1367 0.930 . S
C1348 C1345 1.416 . S
C1348 C1350 1.416 . S
C1348 C1354 1.448 . S
C1349 N1346 1.334 . S
C1349 C1347 1.390 . S
C1349 H1360 0.930 . S
C1350 C1347 1.339 . S
C1350 C1348 1.416 . S
C1350 H1371 0.930 . S
C1351 C1352 1.413 . S
C1351 C1353 1.427 . S
C1351 C1357 1.416 . S
C1352 C1345 1.424 . S
C1352 C1351 1.413 . S
C1352 N1356 1.361 . S
C1353 C1351 1.427 . S
C1353 C1354 1.328 . S
C1353 H1368 0.929 . S
C1354 C1348 1.448 . S
C1354 C1353 1.328 . S
C1354 H1369 0.930 . S
Tb1355 N1346 2.617 . S
Tb1355 N1356 2.572 . S
Tb1355 O1390 2.349 . S
Tb1355 O1393 2.393 . S
Tb1355 O1394 2.465 . S
Tb1355 O1395 2.387 . S
Tb1355 O1397 2.428 . S
Tb1355 O1398 2.308 . S
Tb1355 C1419 2.802 . S
N1356 C1352 1.361 . S
N1356 Tb1355 2.572 . S
N1356 C1358 1.340 . S
C1357 C1351 1.416 . S
C1357 C1359 1.332 . S
C1357 H1365 0.931 . S
C1358 N1356 1.340 . S
C1358 C1359 1.407 . S
C1358 H1364 0.930 . S
C1359 C1357 1.332 . S
C1359 C1358 1.407 . S
C1359 H1361 0.929 . S
H1360 C1349 0.930 . S
H1361 C1359 0.929 . S
H1362 C1377 0.930 . S
H1363 C1384 0.929 . S
H1364 C1358 0.930 . S
H1365 C1357 0.931 . S
H1366 C1380 0.930 . S
H1367 C1347 0.930 . S
H1368 C1353 0.929 . S
H1369 C1354 0.930 . S
H1370 C1375 0.930 . S
H1371 C1350 0.930 . S
H1372 C1383 0.931 . S
N1373 Tb1344 2.617 . S
N1373 C1374 1.379 . S
N1373 C1377 1.334 . S
C1374 N1373 1.379 . S
C1374 C1376 1.416 . S
C1374 C1382 1.424 . S
C1375 H1370 0.930 . S
C1375 C1377 1.390 . S
C1375 C1378 1.339 . S
C1376 C1374 1.416 . S
C1376 C1378 1.416 . S
C1376 C1409 1.448 . S
C1377 H1362 0.930 . S
C1377 N1373 1.334 . S
C1377 C1375 1.390 . S
C1378 C1375 1.339 . S
C1378 C1376 1.416 . S
C1378 H1385 0.930 . S
N1379 Tb1344 2.572 . S
N1379 C1380 1.340 . S
N1379 C1382 1.361 . S
C1380 H1366 0.930 . S
C1380 N1379 1.340 . S
C1380 C1384 1.407 . S
C1381 C1382 1.413 . S
C1381 C1383 1.416 . S
C1381 C1410 1.427 . S
C1382 C1374 1.424 . S
C1382 N1379 1.361 . S
C1382 C1381 1.413 . S
C1383 H1372 0.931 . S
C1383 C1381 1.416 . S
C1383 C1384 1.332 . S
C1384 H1363 0.929 . S
C1384 C1380 1.407 . S
C1384 C1383 1.332 . S
H1385 C1378 0.930 . S
H1386 C1409 0.930 . S
H1387 C1410 0.929 . S
O1388 Tb1344 2.465 . S
O1388 C1408 1.264 . S
O1389 Tb1344 2.387 . S
O1389 C1400 1.264 . S
O1390 Tb1355 2.349 . S
O1390 C1400 1.243 . S
O1391 Tb1344 2.428 . S
O1391 C1408 1.256 . S
O1392 Tb1344 2.308 . S
O1392 C1407 1.266 . S
O1393 Tb1355 2.393 . S
O1393 C1407 1.248 . S
O1394 Tb1355 2.465 . S
O1394 C1419 1.264 . S
O1395 Tb1355 2.387 . S
O1395 C1411 1.264 . S
O1396 Tb1344 2.349 . S
O1396 C1411 1.243 . S
O1397 Tb1355 2.428 . S
O1397 C1419 1.256 . S
O1398 Tb1355 2.308 . S
O1398 C1418 1.266 . S
O1399 Tb1344 2.393 . S
O1399 C1418 1.248 . S
C1400 O1389 1.264 . S
C1400 O1390 1.243 . S
C1401 C1404 1.399 . S
C1401 C1406 1.383 . S
C1401 C1408 1.496 . S
C1402 C1403 1.399 . S
C1402 C1406 1.389 . S
C1403 C1402 1.399 . S
C1403 C1405 1.380 . S
C1403 H1420 0.929 . S
C1404 C1401 1.399 . S
C1404 C1405 1.392 . S
C1404 H1421 0.929 . S
C1405 C1403 1.380 . S
C1405 C1404 1.392 . S
C1405 H1422 0.929 . S
C1406 C1401 1.383 . S
C1406 C1402 1.389 . S
C1406 H1423 0.931 . S
C1407 O1392 1.266 . S
C1407 O1393 1.248 . S
C1408 Tb1344 2.802 . S
C1408 O1388 1.264 . S
C1408 O1391 1.256 . S
C1408 C1401 1.496 . S
C1409 C1376 1.448 . S
C1409 H1386 0.930 . S
C1409 C1410 1.328 . S
C1410 C1381 1.427 . S
C1410 H1387 0.929 . S
C1410 C1409 1.328 . S
C1411 O1395 1.264 . S
C1411 O1396 1.243 . S
C1412 C1415 1.399 . S
C1412 C1416 1.383 . S
C1412 C1419 1.496 . S
C1413 C1414 1.399 . S
C1413 C1416 1.389 . S
C1414 C1413 1.399 . S
C1414 C1417 1.380 . S
C1414 H1424 0.929 . S
C1415 C1412 1.399 . S
C1415 C1417 1.392 . S
C1415 H1425 0.929 . S
C1416 C1412 1.383 . S
C1416 C1413 1.389 . S
C1416 H1426 0.931 . S
C1417 C1414 1.380 . S
C1417 C1415 1.392 . S
C1417 H1427 0.929 . S
C1418 O1398 1.266 . S
C1418 O1399 1.248 . S
C1419 Tb1355 2.802 . S
C1419 O1394 1.264 . S
C1419 O1397 1.256 . S
C1419 C1412 1.496 . S
H1420 C1403 0.929 . S
H1421 C1404 0.929 . S
H1422 C1405 0.929 . S
H1423 C1406 0.931 . S
H1424 C1414 0.929 . S
H1425 C1415 0.929 . S
H1426 C1416 0.931 . S
H1427 C1417 0.929 . S
Tb1428 N1457 2.617 . S
Tb1428 N1463 2.572 . S
Tb1428 O1472 2.465 . S
Tb1428 O1473 2.387 . S
Tb1428 O1475 2.428 . S
Tb1428 O1476 2.308 . S
Tb1428 O1480 2.349 . S
Tb1428 O1483 2.393 . S
Tb1428 C1492 2.802 . S
C1429 N1430 1.379 . S
C1429 C1432 1.416 . S
C1429 C1436 1.424 . S
N1430 C1429 1.379 . S
N1430 C1433 1.334 . S
N1430 Tb1439 2.617 . S
C1431 C1433 1.390 . S
C1431 C1434 1.339 . S
C1431 H1451 0.930 . S
C1432 C1429 1.416 . S
C1432 C1434 1.416 . S
C1432 C1438 1.448 . S
C1433 N1430 1.334 . S
C1433 C1431 1.390 . S
C1433 H1444 0.930 . S
C1434 C1431 1.339 . S
C1434 C1432 1.416 . S
C1434 H1455 0.930 . S
C1435 C1436 1.413 . S
C1435 C1437 1.427 . S
C1435 C1441 1.416 . S
C1436 C1429 1.424 . S
C1436 C1435 1.413 . S
C1436 N1440 1.361 . S
C1437 C1435 1.427 . S
C1437 C1438 1.328 . S
C1437 H1452 0.929 . S
C1438 C1432 1.448 . S
C1438 C1437 1.328 . S
C1438 H1453 0.930 . S
Tb1439 N1430 2.617 . S
Tb1439 N1440 2.572 . S
Tb1439 O1474 2.349 . S
Tb1439 O1477 2.393 . S
Tb1439 O1478 2.465 . S
Tb1439 O1479 2.387 . S
Tb1439 O1481 2.428 . S
Tb1439 O1482 2.308 . S
Tb1439 C1503 2.802 . S
N1440 C1436 1.361 . S
N1440 Tb1439 2.572 . S
N1440 C1442 1.340 . S
C1441 C1435 1.416 . S
C1441 C1443 1.332 . S
C1441 H1449 0.931 . S
C1442 N1440 1.340 . S
C1442 C1443 1.407 . S
C1442 H1448 0.930 . S
C1443 C1441 1.332 . S
C1443 C1442 1.407 . S
C1443 H1445 0.929 . S
H1444 C1433 0.930 . S
H1445 C1443 0.929 . S
H1446 C1461 0.930 . S
H1447 C1468 0.929 . S
H1448 C1442 0.930 . S
H1449 C1441 0.931 . S
H1450 C1464 0.930 . S
H1451 C1431 0.930 . S
H1452 C1437 0.929 . S
H1453 C1438 0.930 . S
H1454 C1459 0.930 . S
H1455 C1434 0.930 . S
H1456 C1467 0.931 . S
N1457 Tb1428 2.617 . S
N1457 C1458 1.379 . S
N1457 C1461 1.334 . S
C1458 N1457 1.379 . S
C1458 C1460 1.416 . S
C1458 C1466 1.424 . S
C1459 H1454 0.930 . S
C1459 C1461 1.390 . S
C1459 C1462 1.339 . S
C1460 C1458 1.416 . S
C1460 C1462 1.416 . S
C1460 C1493 1.448 . S
C1461 H1446 0.930 . S
C1461 N1457 1.334 . S
C1461 C1459 1.390 . S
C1462 C1459 1.339 . S
C1462 C1460 1.416 . S
C1462 H1469 0.930 . S
N1463 Tb1428 2.572 . S
N1463 C1464 1.340 . S
N1463 C1466 1.361 . S
C1464 H1450 0.930 . S
C1464 N1463 1.340 . S
C1464 C1468 1.407 . S
C1465 C1466 1.413 . S
C1465 C1467 1.416 . S
C1465 C1494 1.427 . S
C1466 C1458 1.424 . S
C1466 N1463 1.361 . S
C1466 C1465 1.413 . S
C1467 H1456 0.931 . S
C1467 C1465 1.416 . S
C1467 C1468 1.332 . S
C1468 H1447 0.929 . S
C1468 C1464 1.407 . S
C1468 C1467 1.332 . S
H1469 C1462 0.930 . S
H1470 C1493 0.930 . S
H1471 C1494 0.929 . S
O1472 Tb1428 2.465 . S
O1472 C1492 1.264 . S
O1473 Tb1428 2.387 . S
O1473 C1484 1.264 . S
O1474 Tb1439 2.349 . S
O1474 C1484 1.243 . S
O1475 Tb1428 2.428 . S
O1475 C1492 1.256 . S
O1476 Tb1428 2.308 . S
O1476 C1491 1.266 . S
O1477 Tb1439 2.393 . S
O1477 C1491 1.248 . S
O1478 Tb1439 2.465 . S
O1478 C1503 1.264 . S
O1479 Tb1439 2.387 . S
O1479 C1495 1.264 . S
O1480 Tb1428 2.349 . S
O1480 C1495 1.243 . S
O1481 Tb1439 2.428 . S
O1481 C1503 1.256 . S
O1482 Tb1439 2.308 . S
O1482 C1502 1.266 . S
O1483 Tb1428 2.393 . S
O1483 C1502 1.248 . S
C1484 O1473 1.264 . S
C1484 O1474 1.243 . S
C1485 C1488 1.399 . S
C1485 C1490 1.383 . S
C1485 C1492 1.496 . S
C1486 C1487 1.399 . S
C1486 C1490 1.389 . S
C1487 C1486 1.399 . S
C1487 C1489 1.380 . S
C1487 H1504 0.929 . S
C1488 C1485 1.399 . S
C1488 C1489 1.392 . S
C1488 H1505 0.929 . S
C1489 C1487 1.380 . S
C1489 C1488 1.392 . S
C1489 H1506 0.929 . S
C1490 C1485 1.383 . S
C1490 C1486 1.389 . S
C1490 H1507 0.931 . S
C1491 O1476 1.266 . S
C1491 O1477 1.248 . S
C1492 Tb1428 2.802 . S
C1492 O1472 1.264 . S
C1492 O1475 1.256 . S
C1492 C1485 1.496 . S
C1493 C1460 1.448 . S
C1493 H1470 0.930 . S
C1493 C1494 1.328 . S
C1494 C1465 1.427 . S
C1494 H1471 0.929 . S
C1494 C1493 1.328 . S
C1495 O1479 1.264 . S
C1495 O1480 1.243 . S
C1496 C1499 1.399 . S
C1496 C1500 1.383 . S
C1496 C1503 1.496 . S
C1497 C1498 1.399 . S
C1497 C1500 1.389 . S
C1498 C1497 1.399 . S
C1498 C1501 1.380 . S
C1498 H1508 0.929 . S
C1499 C1496 1.399 . S
C1499 C1501 1.392 . S
C1499 H1509 0.929 . S
C1500 C1496 1.383 . S
C1500 C1497 1.389 . S
C1500 H1510 0.931 . S
C1501 C1498 1.380 . S
C1501 C1499 1.392 . S
C1501 H1511 0.929 . S
C1502 O1482 1.266 . S
C1502 O1483 1.248 . S
C1503 Tb1439 2.802 . S
C1503 O1478 1.264 . S
C1503 O1481 1.256 . S
C1503 C1496 1.496 . S
H1504 C1487 0.929 . S
H1505 C1488 0.929 . S
H1506 C1489 0.929 . S
H1507 C1490 0.931 . S
H1508 C1498 0.929 . S
H1509 C1499 0.929 . S
H1510 C1500 0.931 . S
H1511 C1501 0.929 . S
Tb1512 N1541 2.617 . S
Tb1512 N1547 2.572 . S
Tb1512 O1556 2.465 . S
Tb1512 O1557 2.387 . S
Tb1512 O1559 2.428 . S
Tb1512 O1560 2.308 . S
Tb1512 O1564 2.349 . S
Tb1512 O1567 2.393 . S
Tb1512 C1576 2.802 . S
C1513 N1514 1.379 . S
C1513 C1516 1.416 . S
C1513 C1520 1.424 . S
N1514 C1513 1.379 . S
N1514 C1517 1.334 . S
N1514 Tb1523 2.617 . S
C1515 C1517 1.390 . S
C1515 C1518 1.339 . S
C1515 H1535 0.930 . S
C1516 C1513 1.416 . S
C1516 C1518 1.416 . S
C1516 C1522 1.448 . S
C1517 N1514 1.334 . S
C1517 C1515 1.390 . S
C1517 H1528 0.930 . S
C1518 C1515 1.339 . S
C1518 C1516 1.416 . S
C1518 H1539 0.930 . S
C1519 C1520 1.413 . S
C1519 C1521 1.427 . S
C1519 C1525 1.416 . S
C1520 C1513 1.424 . S
C1520 C1519 1.413 . S
C1520 N1524 1.361 . S
C1521 C1519 1.427 . S
C1521 C1522 1.328 . S
C1521 H1536 0.929 . S
C1522 C1516 1.448 . S
C1522 C1521 1.328 . S
C1522 H1537 0.930 . S
Tb1523 N1514 2.617 . S
Tb1523 N1524 2.572 . S
Tb1523 O1558 2.349 . S
Tb1523 O1561 2.393 . S
Tb1523 O1562 2.465 . S
Tb1523 O1563 2.387 . S
Tb1523 O1565 2.428 . S
Tb1523 O1566 2.308 . S
Tb1523 C1587 2.802 . S
N1524 C1520 1.361 . S
N1524 Tb1523 2.572 . S
N1524 C1526 1.340 . S
C1525 C1519 1.416 . S
C1525 C1527 1.332 . S
C1525 H1533 0.931 . S
C1526 N1524 1.340 . S
C1526 C1527 1.407 . S
C1526 H1532 0.930 . S
C1527 C1525 1.332 . S
C1527 C1526 1.407 . S
C1527 H1529 0.929 . S
H1528 C1517 0.930 . S
H1529 C1527 0.929 . S
H1530 C1545 0.930 . S
H1531 C1552 0.929 . S
H1532 C1526 0.930 . S
H1533 C1525 0.931 . S
H1534 C1548 0.930 . S
H1535 C1515 0.930 . S
H1536 C1521 0.929 . S
H1537 C1522 0.930 . S
H1538 C1543 0.930 . S
H1539 C1518 0.930 . S
H1540 C1551 0.931 . S
N1541 Tb1512 2.617 . S
N1541 C1542 1.379 . S
N1541 C1545 1.334 . S
C1542 N1541 1.379 . S
C1542 C1544 1.416 . S
C1542 C1550 1.424 . S
C1543 H1538 0.930 . S
C1543 C1545 1.390 . S
C1543 C1546 1.339 . S
C1544 C1542 1.416 . S
C1544 C1546 1.416 . S
C1544 C1577 1.448 . S
C1545 H1530 0.930 . S
C1545 N1541 1.334 . S
C1545 C1543 1.390 . S
C1546 C1543 1.339 . S
C1546 C1544 1.416 . S
C1546 H1553 0.930 . S
N1547 Tb1512 2.572 . S
N1547 C1548 1.340 . S
N1547 C1550 1.361 . S
C1548 H1534 0.930 . S
C1548 N1547 1.340 . S
C1548 C1552 1.407 . S
C1549 C1550 1.413 . S
C1549 C1551 1.416 . S
C1549 C1578 1.427 . S
C1550 C1542 1.424 . S
C1550 N1547 1.361 . S
C1550 C1549 1.413 . S
C1551 H1540 0.931 . S
C1551 C1549 1.416 . S
C1551 C1552 1.332 . S
C1552 H1531 0.929 . S
C1552 C1548 1.407 . S
C1552 C1551 1.332 . S
H1553 C1546 0.930 . S
H1554 C1577 0.930 . S
H1555 C1578 0.929 . S
O1556 Tb1512 2.465 . S
O1556 C1576 1.264 . S
O1557 Tb1512 2.387 . S
O1557 C1568 1.264 . S
O1558 Tb1523 2.349 . S
O1558 C1568 1.243 . S
O1559 Tb1512 2.428 . S
O1559 C1576 1.256 . S
O1560 Tb1512 2.308 . S
O1560 C1575 1.266 . S
O1561 Tb1523 2.393 . S
O1561 C1575 1.248 . S
O1562 Tb1523 2.465 . S
O1562 C1587 1.264 . S
O1563 Tb1523 2.387 . S
O1563 C1579 1.264 . S
O1564 Tb1512 2.349 . S
O1564 C1579 1.243 . S
O1565 Tb1523 2.428 . S
O1565 C1587 1.256 . S
O1566 Tb1523 2.308 . S
O1566 C1586 1.266 . S
O1567 Tb1512 2.393 . S
O1567 C1586 1.248 . S
C1568 O1557 1.264 . S
C1568 O1558 1.243 . S
C1569 C1572 1.399 . S
C1569 C1574 1.383 . S
C1569 C1576 1.496 . S
C1570 C1571 1.399 . S
C1570 C1574 1.389 . S
C1571 C1570 1.399 . S
C1571 C1573 1.380 . S
C1571 H1588 0.929 . S
C1572 C1569 1.399 . S
C1572 C1573 1.392 . S
C1572 H1589 0.929 . S
C1573 C1571 1.380 . S
C1573 C1572 1.392 . S
C1573 H1590 0.929 . S
C1574 C1569 1.383 . S
C1574 C1570 1.389 . S
C1574 H1591 0.931 . S
C1575 O1560 1.266 . S
C1575 O1561 1.248 . S
C1576 Tb1512 2.802 . S
C1576 O1556 1.264 . S
C1576 O1559 1.256 . S
C1576 C1569 1.496 . S
C1577 C1544 1.448 . S
C1577 H1554 0.930 . S
C1577 C1578 1.328 . S
C1578 C1549 1.427 . S
C1578 H1555 0.929 . S
C1578 C1577 1.328 . S
C1579 O1563 1.264 . S
C1579 O1564 1.243 . S
C1580 C1583 1.399 . S
C1580 C1584 1.383 . S
C1580 C1587 1.496 . S
C1581 C1582 1.399 . S
C1581 C1584 1.389 . S
C1582 C1581 1.399 . S
C1582 C1585 1.380 . S
C1582 H1592 0.929 . S
C1583 C1580 1.399 . S
C1583 C1585 1.392 . S
C1583 H1593 0.929 . S
C1584 C1580 1.383 . S
C1584 C1581 1.389 . S
C1584 H1594 0.931 . S
C1585 C1582 1.380 . S
C1585 C1583 1.392 . S
C1585 H1595 0.929 . S
C1586 O1566 1.266 . S
C1586 O1567 1.248 . S
C1587 Tb1523 2.802 . S
C1587 O1562 1.264 . S
C1587 O1565 1.256 . S
C1587 C1580 1.496 . S
H1588 C1571 0.929 . S
H1589 C1572 0.929 . S
H1590 C1573 0.929 . S
H1591 C1574 0.931 . S
H1592 C1582 0.929 . S
H1593 C1583 0.929 . S
H1594 C1584 0.931 . S
H1595 C1585 0.929 . S
Tb1596 N1625 2.617 . S
Tb1596 N1631 2.572 . S
Tb1596 O1640 2.465 . S
Tb1596 O1641 2.387 1_655 S
Tb1596 O1643 2.428 . S
Tb1596 O1644 2.307 . S
Tb1596 O1648 2.349 1_655 S
Tb1596 O1651 2.393 1_655 S
Tb1596 C1660 2.802 . S
C1597 N1598 1.379 . S
C1597 C1600 1.416 . S
C1597 C1604 1.424 1_556 S
N1598 C1597 1.379 . S
N1598 C1601 1.334 . S
N1598 Tb1607 2.617 1_556 S
C1599 C1601 1.390 . S
C1599 C1602 1.339 . S
C1599 H1619 0.930 . S
C1600 C1597 1.416 . S
C1600 C1602 1.416 . S
C1600 C1606 1.448 . S
C1601 N1598 1.334 . S
C1601 C1599 1.390 . S
C1601 H1612 0.930 . S
C1602 C1599 1.339 . S
C1602 C1600 1.416 . S
C1602 H1623 0.930 . S
C1603 C1604 1.413 . S
C1603 C1605 1.427 . S
C1603 C1609 1.416 . S
C1604 C1597 1.424 1_554 S
C1604 C1603 1.413 . S
C1604 N1608 1.361 . S
C1605 C1603 1.427 . S
C1605 C1606 1.328 1_554 S
C1605 H1620 0.929 . S
C1606 C1600 1.448 . S
C1606 C1605 1.328 1_556 S
C1606 H1621 0.930 . S
Tb1607 N1598 2.617 1_554 S
Tb1607 N1608 2.572 . S
Tb1607 O1642 2.349 . S
Tb1607 O1645 2.393 1_554 S
Tb1607 O1646 2.465 . S
Tb1607 O1647 2.387 . S
Tb1607 O1649 2.428 1_554 S
Tb1607 O1650 2.308 . S
Tb1607 C1671 2.802 . S
N1608 C1604 1.361 . S
N1608 Tb1607 2.572 . S
N1608 C1610 1.340 . S
C1609 C1603 1.416 . S
C1609 C1611 1.332 . S
C1609 H1617 0.931 . S
C1610 N1608 1.340 . S
C1610 C1611 1.407 . S
C1610 H1616 0.930 . S
C1611 C1609 1.332 . S
C1611 C1610 1.407 . S
C1611 H1613 0.929 . S
H1612 C1601 0.930 . S
H1613 C1611 0.929 . S
H1614 C1629 0.930 1_455 S
H1615 C1636 0.929 . S
H1616 C1610 0.930 . S
H1617 C1609 0.931 . S
H1618 C1632 0.930 1_556 S
H1619 C1599 0.930 . S
H1620 C1605 0.929 . S
H1621 C1606 0.930 . S
H1622 C1627 0.930 . S
H1623 C1602 0.930 . S
H1624 C1635 0.931 . S
N1625 Tb1596 2.617 . S
N1625 C1626 1.379 . S
N1625 C1629 1.334 . S
C1626 N1625 1.379 . S
C1626 C1628 1.416 . S
C1626 C1634 1.424 . S
C1627 H1622 0.930 . S
C1627 C1629 1.390 . S
C1627 C1630 1.339 . S
C1628 C1626 1.416 . S
C1628 C1630 1.416 . S
C1628 C1661 1.448 . S
C1629 H1614 0.930 1_655 S
C1629 N1625 1.334 . S
C1629 C1627 1.390 . S
C1630 C1627 1.339 . S
C1630 C1628 1.416 . S
C1630 H1637 0.930 . S
N1631 Tb1596 2.572 . S
N1631 C1632 1.340 . S
N1631 C1634 1.361 . S
C1632 H1618 0.930 1_554 S
C1632 N1631 1.340 . S
C1632 C1636 1.407 1_554 S
C1633 C1634 1.413 . S
C1633 C1635 1.416 . S
C1633 C1662 1.427 . S
C1634 C1626 1.424 . S
C1634 N1631 1.361 . S
C1634 C1633 1.413 . S
C1635 H1624 0.931 . S
C1635 C1633 1.416 . S
C1635 C1636 1.332 1_554 S
C1636 H1615 0.929 . S
C1636 C1632 1.407 1_556 S
C1636 C1635 1.332 1_556 S
H1637 C1630 0.930 . S
H1638 C1661 0.930 . S
H1639 C1662 0.929 . S
O1640 Tb1596 2.465 . S
O1640 C1660 1.264 . S
O1641 Tb1596 2.387 1_455 S
O1641 C1652 1.264 . S
O1642 Tb1607 2.349 . S
O1642 C1652 1.243 . S
O1643 Tb1596 2.428 . S
O1643 C1660 1.256 . S
O1644 Tb1596 2.307 . S
O1644 C1659 1.269 1_654 S
O1645 Tb1607 2.393 1_556 S
O1645 C1659 1.248 . S
O1646 Tb1607 2.465 . S
O1646 C1671 1.264 . S
O1647 Tb1607 2.387 . S
O1647 C1663 1.264 . S
O1648 Tb1596 2.349 1_455 S
O1648 C1663 1.243 . S
O1649 Tb1607 2.428 1_556 S
O1649 C1671 1.256 1_556 S
O1650 Tb1607 2.308 . S
O1650 C1670 1.266 . S
O1651 Tb1596 2.393 1_455 S
O1651 C1670 1.248 . S
C1652 O1641 1.264 . S
C1652 O1642 1.243 . S
C1653 C1656 1.399 . S
C1653 C1658 1.383 . S
C1653 C1660 1.496 . S
C1654 C1655 1.399 . S
C1654 C1658 1.389 . S
C1655 C1654 1.399 . S
C1655 C1657 1.380 . S
C1655 H1672 0.929 . S
C1656 C1653 1.399 . S
C1656 C1657 1.392 . S
C1656 H1673 0.929 . S
C1657 C1655 1.380 . S
C1657 C1656 1.392 . S
C1657 H1674 0.929 . S
C1658 C1653 1.383 . S
C1658 C1654 1.389 . S
C1658 H1675 0.931 . S
C1659 O1644 1.269 1_456 S
C1659 O1645 1.248 . S
C1660 Tb1596 2.802 . S
C1660 O1640 1.264 . S
C1660 O1643 1.256 . S
C1660 C1653 1.496 . S
C1661 C1628 1.448 . S
C1661 H1638 0.930 . S
C1661 C1662 1.328 . S
C1662 C1633 1.427 . S
C1662 H1639 0.929 . S
C1662 C1661 1.328 . S
C1663 O1647 1.264 . S
C1663 O1648 1.243 . S
C1664 C1667 1.399 . S
C1664 C1668 1.383 1_556 S
C1664 C1671 1.496 1_556 S
C1665 C1666 1.399 1_554 S
C1665 C1668 1.389 . S
C1666 C1665 1.399 1_556 S
C1666 C1669 1.380 . S
C1666 H1676 0.929 . S
C1667 C1664 1.399 . S
C1667 C1669 1.392 . S
C1667 H1677 0.929 . S
C1668 C1664 1.383 1_554 S
C1668 C1665 1.389 . S
C1668 H1678 0.931 . S
C1669 C1666 1.380 . S
C1669 C1667 1.392 . S
C1669 H1679 0.929 . S
C1670 O1650 1.266 . S
C1670 O1651 1.248 . S
C1671 Tb1607 2.802 . S
C1671 O1646 1.264 . S
C1671 O1649 1.256 1_554 S
C1671 C1664 1.496 1_554 S
H1672 C1655 0.929 . S
H1673 C1656 0.929 . S
H1674 C1657 0.929 . S
H1675 C1658 0.931 . S
H1676 C1666 0.929 . S
H1677 C1667 0.929 . S
H1678 C1668 0.931 . S
H1679 C1669 0.929 . S
H1680 C1698 0.951 . S
H1681 C1700 0.951 . S
H1682 C1702 0.950 . S
H1683 C1703 0.950 . S
H1684 C1705 0.950 . S
H1685 C1708 0.950 . S
H1686 C1709 0.950 . S
H1687 C1711 0.950 . S
H1688 C1712 0.950 1_554 S
H1689 C1713 0.951 . S
H1690 C1715 0.951 1_655 S
H1691 C1717 0.950 . S
H1692 C1718 0.950 . S
H1693 C1720 0.950 . S
H1694 C1723 0.950 . S
H1695 C1724 0.950 . S
H1696 C1726 0.950 . S
H1697 C1727 0.950 . S
C1698 H1680 0.951 . S
C1698 C1699 1.366 1_455 S
C1698 C1700 1.388 . S
C1699 C1698 1.366 1_655 S
C1699 C1703 1.385 . S
C1700 H1681 0.951 . S
C1700 C1698 1.388 . S
C1700 C1701 1.366 . S
C1701 C1700 1.366 . S
C1701 C1702 1.414 1_455 S
C1701 C1704 1.499 . S
C1702 H1682 0.950 . S
C1702 C1701 1.414 1_655 S
C1702 C1703 1.374 . S
C1703 H1683 0.950 . S
C1703 C1699 1.385 . S
C1703 C1702 1.374 . S
C1704 C1701 1.499 . S
C1704 C1705 1.373 1_455 S
C1704 C1706 1.389 . S
C1705 H1684 0.950 . S
C1705 C1704 1.373 1_655 S
C1705 C1721 1.377 . S
C1706 C1704 1.389 . S
C1706 C1707 1.524 . S
C1706 C1720 1.377 . S
C1707 C1706 1.524 . S
C1707 C1708 1.397 . S
C1707 C1712 1.363 . S
C1708 H1685 0.950 . S
C1708 C1707 1.397 . S
C1708 C1709 1.334 . S
C1709 H1686 0.950 . S
C1709 C1708 1.334 . S
C1709 C1710 1.287 . S
C1710 C1709 1.287 . S
C1710 C1711 1.524 . S
C1710 H1729 0.913 . S
C1711 H1687 0.950 . S
C1711 C1710 1.524 . S
C1711 C1712 1.415 . S
C1712 H1688 0.950 1_556 S
C1712 C1707 1.363 . S
C1712 C1711 1.415 . S
C1713 H1689 0.951 . S
C1713 C1714 1.366 1_556 S
C1713 C1715 1.388 . S
C1714 C1713 1.366 1_554 S
C1714 C1718 1.385 . S
C1715 H1690 0.951 1_455 S
C1715 C1713 1.388 . S
C1715 C1716 1.364 . S
C1716 C1715 1.364 . S
C1716 C1717 1.417 1_556 S
C1716 C1719 1.497 . S
C1717 H1691 0.950 . S
C1717 C1716 1.417 1_554 S
C1717 C1718 1.374 . S
C1718 H1692 0.950 . S
C1718 C1714 1.385 . S
C1718 C1717 1.374 . S
C1719 C1716 1.497 . S
C1719 C1720 1.373 . S
C1719 C1721 1.389 1_455 S
C1720 H1693 0.950 . S
C1720 C1706 1.377 . S
C1720 C1719 1.373 . S
C1721 C1705 1.377 . S
C1721 C1719 1.389 1_655 S
C1721 C1722 1.524 . S
C1722 C1721 1.524 . S
C1722 C1723 1.397 1_556 S
C1722 C1727 1.363 . S
C1723 H1694 0.950 . S
C1723 C1722 1.397 1_554 S
C1723 C1724 1.334 . S
C1724 H1695 0.950 . S
C1724 C1723 1.334 . S
C1724 C1725 1.287 . S
C1725 C1724 1.287 . S
C1725 C1726 1.524 1_554 S
C1725 H1728 0.999 . S
C1726 H1696 0.950 . S
C1726 C1725 1.524 1_556 S
C1726 C1727 1.415 . S
C1727 H1697 0.950 . S
C1727 C1722 1.363 . S
C1727 C1726 1.415 . S
H1728 C1725 0.999 . S
H1729 C1710 0.913 . S
H1730 C1748 0.951 . S
H1731 C1750 0.951 . S
H1732 C1752 0.950 . S
H1733 C1753 0.950 . S
H1734 C1755 0.950 . S
H1735 C1758 0.950 . S
H1736 C1759 0.950 . S
H1737 C1761 0.950 . S
H1738 C1762 0.950 . S
H1739 C1763 0.951 . S
H1740 C1765 0.951 . S
H1741 C1767 0.950 . S
H1742 C1768 0.950 . S
H1743 C1770 0.950 . S
H1744 C1773 0.950 . S
H1745 C1774 0.950 . S
H1746 C1776 0.950 . S
H1747 C1777 0.950 . S
C1748 H1730 0.951 . S
C1748 C1749 1.366 . S
C1748 C1750 1.388 . S
C1749 C1748 1.366 . S
C1749 C1753 1.385 . S
C1750 H1731 0.951 . S
C1750 C1748 1.388 . S
C1750 C1751 1.366 . S
C1751 C1750 1.366 . S
C1751 C1752 1.414 . S
C1751 C1754 1.499 . S
C1752 H1732 0.950 . S
C1752 C1751 1.414 . S
C1752 C1753 1.374 . S
C1753 H1733 0.950 . S
C1753 C1749 1.385 . S
C1753 C1752 1.374 . S
C1754 C1751 1.499 . S
C1754 C1755 1.373 . S
C1754 C1756 1.389 . S
C1755 H1734 0.950 . S
C1755 C1754 1.373 . S
C1755 C1771 1.377 . S
C1756 C1754 1.389 . S
C1756 C1757 1.524 . S
C1756 C1770 1.377 . S
C1757 C1756 1.524 . S
C1757 C1758 1.397 . S
C1757 C1762 1.363 . S
C1758 H1735 0.950 . S
C1758 C1757 1.397 . S
C1758 C1759 1.334 . S
C1759 H1736 0.950 . S
C1759 C1758 1.334 . S
C1759 C1760 1.287 . S
C1760 C1759 1.287 . S
C1760 C1761 1.524 . S
C1760 H1779 0.913 . S
C1761 H1737 0.950 . S
C1761 C1760 1.524 . S
C1761 C1762 1.415 . S
C1762 H1738 0.950 . S
C1762 C1757 1.363 . S
C1762 C1761 1.415 . S
C1763 H1739 0.951 . S
C1763 C1764 1.366 . S
C1763 C1765 1.388 . S
C1764 C1763 1.366 . S
C1764 C1768 1.385 . S
C1765 H1740 0.951 . S
C1765 C1763 1.388 . S
C1765 C1766 1.366 . S
C1766 C1765 1.366 . S
C1766 C1767 1.414 . S
C1766 C1769 1.499 . S
C1767 H1741 0.950 . S
C1767 C1766 1.414 . S
C1767 C1768 1.374 . S
C1768 H1742 0.950 . S
C1768 C1764 1.385 . S
C1768 C1767 1.374 . S
C1769 C1766 1.499 . S
C1769 C1770 1.373 . S
C1769 C1771 1.389 . S
C1770 H1743 0.950 . S
C1770 C1756 1.377 . S
C1770 C1769 1.373 . S
C1771 C1755 1.377 . S
C1771 C1769 1.389 . S
C1771 C1772 1.524 . S
C1772 C1771 1.524 . S
C1772 C1773 1.397 . S
C1772 C1777 1.363 . S
C1773 H1744 0.950 . S
C1773 C1772 1.397 . S
C1773 C1774 1.334 . S
C1774 H1745 0.950 . S
C1774 C1773 1.334 . S
C1774 C1775 1.287 . S
C1775 C1774 1.287 . S
C1775 C1776 1.524 . S
C1775 H1778 0.999 . S
C1776 H1746 0.950 . S
C1776 C1775 1.524 . S
C1776 C1777 1.415 . S
C1777 H1747 0.950 . S
C1777 C1772 1.363 . S
C1777 C1776 1.415 . S
H1778 C1775 0.999 . S
H1779 C1760 0.913 . S
H1780 C1798 0.951 . S
H1781 C1800 0.951 . S
H1782 C1802 0.950 . S
H1783 C1803 0.950 . S
H1784 C1805 0.950 . S
H1785 C1808 0.950 . S
H1786 C1809 0.950 . S
H1787 C1811 0.950 . S
H1788 C1812 0.950 . S
H1789 C1813 0.951 . S
H1790 C1815 0.951 . S
H1791 C1817 0.950 . S
H1792 C1818 0.950 . S
H1793 C1820 0.950 . S
H1794 C1823 0.950 . S
H1795 C1824 0.950 . S
H1796 C1826 0.950 . S
H1797 C1827 0.950 . S
C1798 H1780 0.951 . S
C1798 C1799 1.366 . S
C1798 C1800 1.388 . S
C1799 C1798 1.366 . S
C1799 C1803 1.385 . S
C1800 H1781 0.951 . S
C1800 C1798 1.388 . S
C1800 C1801 1.366 . S
C1801 C1800 1.366 . S
C1801 C1802 1.414 . S
C1801 C1804 1.499 . S
C1802 H1782 0.950 . S
C1802 C1801 1.414 . S
C1802 C1803 1.374 . S
C1803 H1783 0.950 . S
C1803 C1799 1.385 . S
C1803 C1802 1.374 . S
C1804 C1801 1.499 . S
C1804 C1805 1.373 . S
C1804 C1806 1.389 . S
C1805 H1784 0.950 . S
C1805 C1804 1.373 . S
C1805 C1821 1.377 . S
C1806 C1804 1.389 . S
C1806 C1807 1.524 . S
C1806 C1820 1.377 . S
C1807 C1806 1.524 . S
C1807 C1808 1.397 . S
C1807 C1812 1.363 . S
C1808 H1785 0.950 . S
C1808 C1807 1.397 . S
C1808 C1809 1.334 . S
C1809 H1786 0.950 . S
C1809 C1808 1.334 . S
C1809 C1810 1.287 . S
C1810 C1809 1.287 . S
C1810 C1811 1.524 . S
C1810 H1829 0.913 . S
C1811 H1787 0.950 . S
C1811 C1810 1.524 . S
C1811 C1812 1.415 . S
C1812 H1788 0.950 . S
C1812 C1807 1.363 . S
C1812 C1811 1.415 . S
C1813 H1789 0.951 . S
C1813 C1814 1.366 . S
C1813 C1815 1.388 . S
C1814 C1813 1.366 . S
C1814 C1818 1.385 . S
C1815 H1790 0.951 . S
C1815 C1813 1.388 . S
C1815 C1816 1.366 . S
C1816 C1815 1.366 . S
C1816 C1817 1.414 . S
C1816 C1819 1.499 . S
C1817 H1791 0.950 . S
C1817 C1816 1.414 . S
C1817 C1818 1.374 . S
C1818 H1792 0.950 . S
C1818 C1814 1.385 . S
C1818 C1817 1.374 . S
C1819 C1816 1.499 . S
C1819 C1820 1.373 . S
C1819 C1821 1.389 . S
C1820 H1793 0.950 . S
C1820 C1806 1.377 . S
C1820 C1819 1.373 . S
C1821 C1805 1.377 . S
C1821 C1819 1.389 . S
C1821 C1822 1.524 . S
C1822 C1821 1.524 . S
C1822 C1823 1.397 . S
C1822 C1827 1.363 . S
C1823 H1794 0.950 . S
C1823 C1822 1.397 . S
C1823 C1824 1.334 . S
C1824 H1795 0.950 . S
C1824 C1823 1.334 . S
C1824 C1825 1.287 . S
C1825 C1824 1.287 . S
C1825 C1826 1.524 . S
C1825 H1828 0.999 . S
C1826 H1796 0.950 . S
C1826 C1825 1.524 . S
C1826 C1827 1.415 . S
C1827 H1797 0.950 . S
C1827 C1822 1.363 . S
C1827 C1826 1.415 . S
H1828 C1825 0.999 . S
H1829 C1810 0.913 . S
H1830 C1848 0.951 . S
H1831 C1850 0.951 . S
H1832 C1852 0.950 . S
H1833 C1853 0.950 . S
H1834 C1855 0.950 . S
H1835 C1858 0.950 . S
H1836 C1859 0.950 . S
H1837 C1861 0.950 . S
H1838 C1862 0.950 . S
H1839 C1863 0.951 . S
H1840 C1865 0.951 . S
H1841 C1867 0.950 . S
H1842 C1868 0.950 . S
H1843 C1870 0.950 . S
H1844 C1873 0.950 . S
H1845 C1874 0.950 . S
H1846 C1876 0.950 . S
H1847 C1877 0.950 . S
C1848 H1830 0.951 . S
C1848 C1849 1.366 . S
C1848 C1850 1.388 . S
C1849 C1848 1.366 . S
C1849 C1853 1.385 . S
C1850 H1831 0.951 . S
C1850 C1848 1.388 . S
C1850 C1851 1.366 . S
C1851 C1850 1.366 . S
C1851 C1852 1.414 . S
C1851 C1854 1.499 . S
C1852 H1832 0.950 . S
C1852 C1851 1.414 . S
C1852 C1853 1.374 . S
C1853 H1833 0.950 . S
C1853 C1849 1.385 . S
C1853 C1852 1.374 . S
C1854 C1851 1.499 . S
C1854 C1855 1.373 . S
C1854 C1856 1.389 . S
C1855 H1834 0.950 . S
C1855 C1854 1.373 . S
C1855 C1871 1.377 . S
C1856 C1854 1.389 . S
C1856 C1857 1.524 . S
C1856 C1870 1.377 . S
C1857 C1856 1.524 . S
C1857 C1858 1.397 . S
C1857 C1862 1.363 . S
C1858 H1835 0.950 . S
C1858 C1857 1.397 . S
C1858 C1859 1.334 . S
C1859 H1836 0.950 . S
C1859 C1858 1.334 . S
C1859 C1860 1.287 . S
C1860 C1859 1.287 . S
C1860 C1861 1.524 . S
C1860 H1879 0.913 . S
C1861 H1837 0.950 . S
C1861 C1860 1.524 . S
C1861 C1862 1.415 . S
C1862 H1838 0.950 . S
C1862 C1857 1.363 . S
C1862 C1861 1.415 . S
C1863 H1839 0.951 . S
C1863 C1864 1.366 . S
C1863 C1865 1.388 . S
C1864 C1863 1.366 . S
C1864 C1868 1.385 . S
C1865 H1840 0.951 . S
C1865 C1863 1.388 . S
C1865 C1866 1.366 . S
C1866 C1865 1.366 . S
C1866 C1867 1.414 . S
C1866 C1869 1.499 . S
C1867 H1841 0.950 . S
C1867 C1866 1.414 . S
C1867 C1868 1.374 . S
C1868 H1842 0.950 . S
C1868 C1864 1.385 . S
C1868 C1867 1.374 . S
C1869 C1866 1.499 . S
C1869 C1870 1.373 . S
C1869 C1871 1.389 . S
C1870 H1843 0.950 . S
C1870 C1856 1.377 . S
C1870 C1869 1.373 . S
C1871 C1855 1.377 . S
C1871 C1869 1.389 . S
C1871 C1872 1.524 . S
C1872 C1871 1.524 . S
C1872 C1873 1.397 . S
C1872 C1877 1.363 . S
C1873 H1844 0.950 . S
C1873 C1872 1.397 . S
C1873 C1874 1.334 . S
C1874 H1845 0.950 . S
C1874 C1873 1.334 . S
C1874 C1875 1.287 . S
C1875 C1874 1.287 . S
C1875 C1876 1.524 . S
C1875 H1878 0.999 . S
C1876 H1846 0.950 . S
C1876 C1875 1.524 . S
C1876 C1877 1.415 . S
C1877 H1847 0.950 . S
C1877 C1872 1.363 . S
C1877 C1876 1.415 . S
H1878 C1875 0.999 . S
H1879 C1860 0.913 . S
H1880 C1898 0.951 1_655 S
H1881 C1900 0.947 1_655 S
H1882 C1902 0.950 . S
H1883 C1903 0.950 . S
H1884 C1905 0.950 . S
H1885 C1908 0.950 . S
H1886 C1909 0.950 . S
H1887 C1911 0.950 . S
H1888 C1912 0.950 . S
H1889 C1913 0.951 . S
H1890 C1915 0.951 . S
H1891 C1917 0.950 . S
H1892 C1918 0.950 . S
H1893 C1920 0.950 . S
H1894 C1923 0.950 1_655 S
H1895 C1924 0.950 . S
H1896 C1926 0.950 . S
H1897 C1927 0.950 . S
C1898 H1880 0.951 1_455 S
C1898 C1899 1.366 . S
C1898 C1900 1.388 . S
C1899 C1898 1.366 . S
C1899 C1903 1.385 . S
C1900 H1881 0.947 1_455 S
C1900 C1898 1.388 . S
C1900 C1901 1.366 . S
C1901 C1900 1.366 . S
C1901 C1902 1.414 . S
C1901 C1904 1.499 . S
C1902 H1882 0.950 . S
C1902 C1901 1.414 . S
C1902 C1903 1.374 . S
C1903 H1883 0.950 . S
C1903 C1899 1.385 . S
C1903 C1902 1.374 . S
C1904 C1901 1.499 . S
C1904 C1905 1.373 . S
C1904 C1906 1.389 . S
C1905 H1884 0.950 . S
C1905 C1904 1.373 . S
C1905 C1921 1.377 . S
C1906 C1904 1.389 . S
C1906 C1907 1.524 . S
C1906 C1920 1.377 . S
C1907 C1906 1.524 . S
C1907 C1908 1.397 . S
C1907 C1912 1.363 . S
C1908 H1885 0.950 . S
C1908 C1907 1.397 . S
C1908 C1909 1.334 . S
C1909 H1886 0.950 . S
C1909 C1908 1.334 . S
C1909 C1910 1.287 . S
C1910 C1909 1.287 . S
C1910 C1911 1.524 . S
C1910 H1929 0.913 . S
C1911 H1887 0.950 . S
C1911 C1910 1.524 . S
C1911 C1912 1.415 . S
C1912 H1888 0.950 . S
C1912 C1907 1.363 . S
C1912 C1911 1.415 . S
C1913 H1889 0.951 . S
C1913 C1914 1.366 . S
C1913 C1915 1.388 . S
C1914 C1913 1.366 . S
C1914 C1918 1.385 . S
C1915 H1890 0.951 . S
C1915 C1913 1.388 . S
C1915 C1916 1.366 . S
C1916 C1915 1.366 . S
C1916 C1917 1.414 . S
C1916 C1919 1.499 . S
C1917 H1891 0.950 . S
C1917 C1916 1.414 . S
C1917 C1918 1.374 . S
C1918 H1892 0.950 . S
C1918 C1914 1.385 . S
C1918 C1917 1.374 . S
C1919 C1916 1.499 . S
C1919 C1920 1.373 . S
C1919 C1921 1.389 . S
C1920 H1893 0.950 . S
C1920 C1906 1.377 . S
C1920 C1919 1.373 . S
C1921 C1905 1.377 . S
C1921 C1919 1.389 . S
C1921 C1922 1.524 . S
C1922 C1921 1.524 . S
C1922 C1923 1.397 . S
C1922 C1927 1.363 . S
C1923 H1894 0.950 1_455 S
C1923 C1922 1.397 . S
C1923 C1924 1.334 1_455 S
C1924 H1895 0.950 . S
C1924 C1923 1.334 1_655 S
C1924 C1925 1.287 1_655 S
C1925 C1924 1.287 1_455 S
C1925 C1926 1.524 . S
C1925 H1928 0.999 . S
C1926 H1896 0.950 . S
C1926 C1925 1.524 . S
C1926 C1927 1.415 . S
C1927 H1897 0.950 . S
C1927 C1922 1.363 . S
C1927 C1926 1.415 . S
H1928 C1925 0.999 . S
H1929 C1910 0.913 . S
H1930 C1948 0.951 . S
H1931 C1950 0.951 . S
H1932 C1952 0.950 . S
H1933 C1953 0.950 . S
H1934 C1955 0.950 . S
H1935 C1958 0.950 . S
H1936 C1959 0.950 . S
H1937 C1961 0.950 . S
H1938 C1962 0.950 . S
H1939 C1963 0.951 . S
H1940 C1965 0.951 . S
H1941 C1967 0.950 . S
H1942 C1968 0.950 . S
H1943 C1970 0.950 . S
H1944 C1973 0.950 . S
H1945 C1974 0.950 . S
H1946 C1976 0.950 . S
H1947 C1977 0.950 . S
C1948 H1930 0.951 . S
C1948 C1949 1.366 . S
C1948 C1950 1.388 . S
C1949 C1948 1.366 . S
C1949 C1953 1.385 . S
C1950 H1931 0.951 . S
C1950 C1948 1.388 . S
C1950 C1951 1.366 . S
C1951 C1950 1.366 . S
C1951 C1952 1.414 . S
C1951 C1954 1.499 . S
C1952 H1932 0.950 . S
C1952 C1951 1.414 . S
C1952 C1953 1.374 . S
C1953 H1933 0.950 . S
C1953 C1949 1.385 . S
C1953 C1952 1.374 . S
C1954 C1951 1.499 . S
C1954 C1955 1.373 . S
C1954 C1956 1.389 . S
C1955 H1934 0.950 . S
C1955 C1954 1.373 . S
C1955 C1971 1.377 . S
C1956 C1954 1.389 . S
C1956 C1957 1.524 . S
C1956 C1970 1.377 . S
C1957 C1956 1.524 . S
C1957 C1958 1.397 . S
C1957 C1962 1.363 . S
C1958 H1935 0.950 . S
C1958 C1957 1.397 . S
C1958 C1959 1.334 . S
C1959 H1936 0.950 . S
C1959 C1958 1.334 . S
C1959 C1960 1.287 . S
C1960 C1959 1.287 . S
C1960 C1961 1.524 . S
C1960 H1979 0.913 . S
C1961 H1937 0.950 . S
C1961 C1960 1.524 . S
C1961 C1962 1.415 . S
C1962 H1938 0.950 . S
C1962 C1957 1.363 . S
C1962 C1961 1.415 . S
C1963 H1939 0.951 . S
C1963 C1964 1.366 . S
C1963 C1965 1.388 . S
C1964 C1963 1.366 . S
C1964 C1968 1.385 . S
C1965 H1940 0.951 . S
C1965 C1963 1.388 . S
C1965 C1966 1.366 . S
C1966 C1965 1.366 . S
C1966 C1967 1.414 . S
C1966 C1969 1.499 . S
C1967 H1941 0.950 . S
C1967 C1966 1.414 . S
C1967 C1968 1.374 . S
C1968 H1942 0.950 . S
C1968 C1964 1.385 . S
C1968 C1967 1.374 . S
C1969 C1966 1.499 . S
C1969 C1970 1.373 . S
C1969 C1971 1.389 . S
C1970 H1943 0.950 . S
C1970 C1956 1.377 . S
C1970 C1969 1.373 . S
C1971 C1955 1.377 . S
C1971 C1969 1.389 . S
C1971 C1972 1.524 . S
C1972 C1971 1.524 . S
C1972 C1973 1.397 . S
C1972 C1977 1.363 . S
C1973 H1944 0.950 . S
C1973 C1972 1.397 . S
C1973 C1974 1.334 . S
C1974 H1945 0.950 . S
C1974 C1973 1.334 . S
C1974 C1975 1.287 . S
C1975 C1974 1.287 . S
C1975 C1976 1.524 . S
C1975 H1978 0.999 . S
C1976 H1946 0.950 . S
C1976 C1975 1.524 . S
C1976 C1977 1.415 . S
C1977 H1947 0.950 . S
C1977 C1972 1.363 . S
C1977 C1976 1.415 . S
H1978 C1975 0.999 . S
H1979 C1960 0.913 . S
H1980 C1998 0.951 . S
H1981 C2000 0.951 . S
H1982 C2002 0.950 . S
H1983 C2003 0.950 . S
H1984 C2005 0.950 . S
H1985 C2008 0.950 . S
H1986 C2009 0.950 . S
H1987 C2011 0.950 . S
H1988 C2012 0.950 . S
H1989 C2013 0.951 . S
H1990 C2015 0.951 . S
H1991 C2017 0.950 . S
H1992 C2018 0.950 . S
H1993 C2020 0.950 . S
H1994 C2023 0.950 . S
H1995 C2024 0.950 . S
H1996 C2026 0.950 . S
H1997 C2027 0.950 . S
C1998 H1980 0.951 . S
C1998 C1999 1.366 . S
C1998 C2000 1.388 . S
C1999 C1998 1.366 . S
C1999 C2003 1.385 . S
C2000 H1981 0.951 . S
C2000 C1998 1.388 . S
C2000 C2001 1.366 . S
C2001 C2000 1.366 . S
C2001 C2002 1.414 . S
C2001 C2004 1.499 . S
C2002 H1982 0.950 . S
C2002 C2001 1.414 . S
C2002 C2003 1.374 . S
C2003 H1983 0.950 . S
C2003 C1999 1.385 . S
C2003 C2002 1.374 . S
C2004 C2001 1.499 . S
C2004 C2005 1.373 . S
C2004 C2006 1.389 . S
C2005 H1984 0.950 . S
C2005 C2004 1.373 . S
C2005 C2021 1.377 . S
C2006 C2004 1.389 . S
C2006 C2007 1.524 . S
C2006 C2020 1.377 . S
C2007 C2006 1.524 . S
C2007 C2008 1.397 . S
C2007 C2012 1.363 . S
C2008 H1985 0.950 . S
C2008 C2007 1.397 . S
C2008 C2009 1.334 . S
C2009 H1986 0.950 . S
C2009 C2008 1.334 . S
C2009 C2010 1.287 . S
C2010 C2009 1.287 . S
C2010 C2011 1.524 . S
C2010 H2029 0.913 . S
C2011 H1987 0.950 . S
C2011 C2010 1.524 . S
C2011 C2012 1.415 . S
C2012 H1988 0.950 . S
C2012 C2007 1.363 . S
C2012 C2011 1.415 . S
C2013 H1989 0.951 . S
C2013 C2014 1.366 . S
C2013 C2015 1.388 . S
C2014 C2013 1.366 . S
C2014 C2018 1.385 . S
C2015 H1990 0.951 . S
C2015 C2013 1.388 . S
C2015 C2016 1.366 . S
C2016 C2015 1.366 . S
C2016 C2017 1.414 . S
C2016 C2019 1.499 . S
C2017 H1991 0.950 . S
C2017 C2016 1.414 . S
C2017 C2018 1.374 . S
C2018 H1992 0.950 . S
C2018 C2014 1.385 . S
C2018 C2017 1.374 . S
C2019 C2016 1.499 . S
C2019 C2020 1.373 . S
C2019 C2021 1.389 . S
C2020 H1993 0.950 . S
C2020 C2006 1.377 . S
C2020 C2019 1.373 . S
C2021 C2005 1.377 . S
C2021 C2019 1.389 . S
C2021 C2022 1.524 . S
C2022 C2021 1.524 . S
C2022 C2023 1.397 . S
C2022 C2027 1.363 . S
C2023 H1994 0.950 . S
C2023 C2022 1.397 . S
C2023 C2024 1.334 . S
C2024 H1995 0.950 . S
C2024 C2023 1.334 . S
C2024 C2025 1.287 . S
C2025 C2024 1.287 . S
C2025 C2026 1.524 . S
C2025 H2028 0.999 . S
C2026 H1996 0.950 . S
C2026 C2025 1.524 . S
C2026 C2027 1.415 . S
C2027 H1997 0.950 . S
C2027 C2022 1.363 . S
C2027 C2026 1.415 . S
H2028 C2025 0.999 . S
H2029 C2010 0.913 . S
H2030 C2048 0.951 . S
H2031 C2050 0.951 . S
H2032 C2052 0.950 . S
H2033 C2053 0.950 . S
H2034 C2055 0.950 . S
H2035 C2058 0.950 . S
H2036 C2059 0.950 . S
H2037 C2061 0.950 . S
H2038 C2062 0.950 . S
H2039 C2063 0.951 . S
H2040 C2065 0.951 . S
H2041 C2067 0.950 . S
H2042 C2068 0.950 . S
H2043 C2070 0.950 . S
H2044 C2073 0.950 . S
H2045 C2074 0.950 . S
H2046 C2076 0.950 . S
H2047 C2077 0.950 . S
C2048 H2030 0.951 . S
C2048 C2049 1.366 . S
C2048 C2050 1.388 . S
C2049 C2048 1.366 . S
C2049 C2053 1.385 . S
C2050 H2031 0.951 . S
C2050 C2048 1.388 . S
C2050 C2051 1.366 . S
C2051 C2050 1.366 . S
C2051 C2052 1.414 . S
C2051 C2054 1.499 . S
C2052 H2032 0.950 . S
C2052 C2051 1.414 . S
C2052 C2053 1.374 . S
C2053 H2033 0.950 . S
C2053 C2049 1.385 . S
C2053 C2052 1.374 . S
C2054 C2051 1.499 . S
C2054 C2055 1.373 . S
C2054 C2056 1.389 . S
C2055 H2034 0.950 . S
C2055 C2054 1.373 . S
C2055 C2071 1.377 . S
C2056 C2054 1.389 . S
C2056 C2057 1.524 . S
C2056 C2070 1.377 . S
C2057 C2056 1.524 . S
C2057 C2058 1.397 . S
C2057 C2062 1.363 . S
C2058 H2035 0.950 . S
C2058 C2057 1.397 . S
C2058 C2059 1.334 . S
C2059 H2036 0.950 . S
C2059 C2058 1.334 . S
C2059 C2060 1.287 . S
C2060 C2059 1.287 . S
C2060 C2061 1.524 . S
C2060 H2079 0.913 . S
C2061 H2037 0.950 . S
C2061 C2060 1.524 . S
C2061 C2062 1.415 . S
C2062 H2038 0.950 . S
C2062 C2057 1.363 . S
C2062 C2061 1.415 . S
C2063 H2039 0.951 . S
C2063 C2064 1.366 . S
C2063 C2065 1.388 . S
C2064 C2063 1.366 . S
C2064 C2068 1.385 . S
C2065 H2040 0.951 . S
C2065 C2063 1.388 . S
C2065 C2066 1.366 . S
C2066 C2065 1.366 . S
C2066 C2067 1.414 . S
C2066 C2069 1.499 . S
C2067 H2041 0.950 . S
C2067 C2066 1.414 . S
C2067 C2068 1.374 . S
C2068 H2042 0.950 . S
C2068 C2064 1.385 . S
C2068 C2067 1.374 . S
C2069 C2066 1.499 . S
C2069 C2070 1.373 . S
C2069 C2071 1.389 . S
C2070 H2043 0.950 . S
C2070 C2056 1.377 . S
C2070 C2069 1.373 . S
C2071 C2055 1.377 . S
C2071 C2069 1.389 . S
C2071 C2072 1.524 . S
C2072 C2071 1.524 . S
C2072 C2073 1.397 . S
C2072 C2077 1.363 . S
C2073 H2044 0.950 . S
C2073 C2072 1.397 . S
C2073 C2074 1.334 . S
C2074 H2045 0.950 . S
C2074 C2073 1.334 . S
C2074 C2075 1.287 . S
C2075 C2074 1.287 . S
C2075 C2076 1.524 . S
C2075 H2078 0.999 . S
C2076 H2046 0.950 . S
C2076 C2075 1.524 . S
C2076 C2077 1.415 . S
C2077 H2047 0.950 . S
C2077 C2072 1.363 . S
C2077 C2076 1.415 . S
H2078 C2075 0.999 . S
H2079 C2060 0.913 . S
H2080 C2098 0.951 . S
H2081 C2100 0.951 . S
H2082 C2102 0.950 . S
H2083 C2103 0.950 . S
H2084 C2105 0.950 . S
H2085 C2108 0.950 . S
H2086 C2109 0.950 . S
H2087 C2111 0.950 . S
H2088 C2112 0.950 1_545 S
H2089 C2113 0.951 . S
H2090 C2115 0.951 . S
H2091 C2117 0.950 . S
H2092 C2118 0.950 . S
H2093 C2120 0.950 . S
H2094 C2123 0.926 1_655 S
H2095 C2124 0.950 . S
H2096 C2126 0.950 . S
H2097 C2127 0.950 . S
C2098 H2080 0.951 . S
C2098 C2099 1.366 . S
C2098 C2100 1.388 . S
C2099 C2098 1.366 . S
C2099 C2103 1.385 . S
C2100 H2081 0.951 . S
C2100 C2098 1.388 . S
C2100 C2101 1.366 . S
C2101 C2100 1.366 . S
C2101 C2102 1.414 . S
C2101 C2104 1.499 . S
C2102 H2082 0.950 . S
C2102 C2101 1.414 . S
C2102 C2103 1.374 . S
C2103 H2083 0.950 . S
C2103 C2099 1.385 . S
C2103 C2102 1.374 . S
C2104 C2101 1.499 . S
C2104 C2105 1.373 . S
C2104 C2106 1.389 . S
C2105 H2084 0.950 . S
C2105 C2104 1.373 . S
C2105 C2121 1.377 . S
C2106 C2104 1.389 . S
C2106 C2107 1.524 1_545 S
C2106 C2120 1.377 . S
C2107 C2106 1.524 1_565 S
C2107 C2108 1.397 . S
C2107 C2112 1.363 . S
C2108 H2085 0.950 . S
C2108 C2107 1.397 . S
C2108 C2109 1.334 . S
C2109 H2086 0.950 . S
C2109 C2108 1.334 . S
C2109 C2110 1.287 . S
C2110 C2109 1.287 . S
C2110 C2111 1.524 . S
C2110 H2129 0.913 . S
C2111 H2087 0.950 . S
C2111 C2110 1.524 . S
C2111 C2112 1.415 . S
C2112 H2088 0.950 1_565 S
C2112 C2107 1.363 . S
C2112 C2111 1.415 . S
C2113 H2089 0.951 . S
C2113 C2114 1.366 . S
C2113 C2115 1.388 . S
C2114 C2113 1.366 . S
C2114 C2118 1.385 1_455 S
C2115 H2090 0.951 . S
C2115 C2113 1.388 . S
C2115 C2116 1.366 1_455 S
C2116 C2115 1.366 1_655 S
C2116 C2117 1.414 . S
C2116 C2119 1.499 . S
C2117 H2091 0.950 . S
C2117 C2116 1.414 . S
C2117 C2118 1.374 . S
C2118 H2092 0.950 . S
C2118 C2114 1.385 1_655 S
C2118 C2117 1.374 . S
C2119 C2116 1.499 . S
C2119 C2120 1.373 . S
C2119 C2121 1.389 . S
C2120 H2093 0.950 . S
C2120 C2106 1.377 . S
C2120 C2119 1.373 . S
C2121 C2105 1.377 . S
C2121 C2119 1.389 . S
C2121 C2122 1.524 1_655 S
C2122 C2121 1.524 1_455 S
C2122 C2123 1.397 . S
C2122 C2127 1.363 . S
C2123 H2094 0.926 1_455 S
C2123 C2122 1.397 . S
C2123 C2124 1.334 . S
C2124 H2095 0.950 . S
C2124 C2123 1.334 . S
C2124 C2125 1.287 . S
C2125 C2124 1.287 . S
C2125 C2126 1.524 . S
C2125 H2128 0.999 . S
C2126 H2096 0.950 . S
C2126 C2125 1.524 . S
C2126 C2127 1.415 . S
C2127 H2097 0.950 . S
C2127 C2122 1.363 . S
C2127 C2126 1.415 . S
H2128 C2125 0.999 . S
H2129 C2110 0.913 . S
H2130 C2148 0.951 . S
H2131 C2150 0.951 . S
H2132 C2152 0.950 . S
H2133 C2153 0.950 . S
H2134 C2155 0.950 . S
H2135 C2158 0.950 . S
H2136 C2159 0.950 . S
H2137 C2161 0.950 . S
H2138 C2162 0.950 . S
H2139 C2163 0.951 . S
H2140 C2165 0.951 . S
H2141 C2167 0.950 . S
H2142 C2168 0.950 . S
H2143 C2170 0.950 . S
H2144 C2173 0.950 . S
H2145 C2174 0.950 . S
H2146 C2176 0.950 . S
H2147 C2177 0.950 . S
C2148 H2130 0.951 . S
C2148 C2149 1.366 . S
C2148 C2150 1.388 . S
C2149 C2148 1.366 . S
C2149 C2153 1.385 . S
C2150 H2131 0.951 . S
C2150 C2148 1.388 . S
C2150 C2151 1.366 . S
C2151 C2150 1.366 . S
C2151 C2152 1.414 . S
C2151 C2154 1.499 . S
C2152 H2132 0.950 . S
C2152 C2151 1.414 . S
C2152 C2153 1.374 . S
C2153 H2133 0.950 . S
C2153 C2149 1.385 . S
C2153 C2152 1.374 . S
C2154 C2151 1.499 . S
C2154 C2155 1.373 . S
C2154 C2156 1.389 . S
C2155 H2134 0.950 . S
C2155 C2154 1.373 . S
C2155 C2171 1.377 . S
C2156 C2154 1.389 . S
C2156 C2157 1.524 . S
C2156 C2170 1.377 . S
C2157 C2156 1.524 . S
C2157 C2158 1.397 . S
C2157 C2162 1.363 . S
C2158 H2135 0.950 . S
C2158 C2157 1.397 . S
C2158 C2159 1.334 . S
C2159 H2136 0.950 . S
C2159 C2158 1.334 . S
C2159 C2160 1.287 . S
C2160 C2159 1.287 . S
C2160 C2161 1.524 . S
C2160 H2179 0.913 . S
C2161 H2137 0.950 . S
C2161 C2160 1.524 . S
C2161 C2162 1.415 . S
C2162 H2138 0.950 . S
C2162 C2157 1.363 . S
C2162 C2161 1.415 . S
C2163 H2139 0.951 . S
C2163 C2164 1.366 . S
C2163 C2165 1.388 . S
C2164 C2163 1.366 . S
C2164 C2168 1.385 . S
C2165 H2140 0.951 . S
C2165 C2163 1.388 . S
C2165 C2166 1.366 . S
C2166 C2165 1.366 . S
C2166 C2167 1.414 . S
C2166 C2169 1.499 . S
C2167 H2141 0.950 . S
C2167 C2166 1.414 . S
C2167 C2168 1.374 . S
C2168 H2142 0.950 . S
C2168 C2164 1.385 . S
C2168 C2167 1.374 . S
C2169 C2166 1.499 . S
C2169 C2170 1.373 . S
C2169 C2171 1.389 . S
C2170 H2143 0.950 . S
C2170 C2156 1.377 . S
C2170 C2169 1.373 . S
C2171 C2155 1.377 . S
C2171 C2169 1.389 . S
C2171 C2172 1.524 . S
C2172 C2171 1.524 . S
C2172 C2173 1.397 . S
C2172 C2177 1.363 . S
C2173 H2144 0.950 . S
C2173 C2172 1.397 . S
C2173 C2174 1.334 . S
C2174 H2145 0.950 . S
C2174 C2173 1.334 . S
C2174 C2175 1.287 . S
C2175 C2174 1.287 . S
C2175 C2176 1.524 . S
C2175 H2178 0.999 . S
C2176 H2146 0.950 . S
C2176 C2175 1.524 . S
C2176 C2177 1.415 . S
C2177 H2147 0.950 . S
C2177 C2172 1.363 . S
C2177 C2176 1.415 . S
H2178 C2175 0.999 . S
H2179 C2160 0.913 . S
H2180 C2198 0.951 . S
H2181 C2200 0.951 . S
H2182 C2202 0.950 . S
H2183 C2203 0.950 . S
H2184 C2205 0.950 1_565 S
H2185 C2208 0.950 . S
H2186 C2209 0.950 . S
H2187 C2211 0.950 . S
H2188 C2212 0.950 . S
H2189 C2213 0.965 . S
H2190 C2215 0.951 . S
H2191 C2217 0.950 . S
H2192 C2218 0.950 . S
H2193 C2220 0.950 . S
H2194 C2223 0.950 . S
H2195 C2224 0.950 . S
H2196 C2226 0.950 . S
H2197 C2227 0.950 . S
C2198 H2180 0.951 . S
C2198 C2199 1.366 . S
C2198 C2200 1.388 . S
C2199 C2198 1.366 . S
C2199 C2203 1.385 . S
C2200 H2181 0.951 . S
C2200 C2198 1.388 . S
C2200 C2201 1.366 . S
C2201 C2200 1.366 . S
C2201 C2202 1.414 . S
C2201 C2204 1.499 . S
C2202 H2182 0.950 . S
C2202 C2201 1.414 . S
C2202 C2203 1.374 . S
C2203 H2183 0.950 . S
C2203 C2199 1.385 . S
C2203 C2202 1.374 . S
C2204 C2201 1.499 . S
C2204 C2205 1.373 . S
C2204 C2206 1.389 . S
C2205 H2184 0.950 1_545 S
C2205 C2204 1.373 . S
C2205 C2221 1.377 . S
C2206 C2204 1.389 . S
C2206 C2207 1.524 . S
C2206 C2220 1.377 . S
C2207 C2206 1.524 . S
C2207 C2208 1.397 . S
C2207 C2212 1.363 . S
C2208 H2185 0.950 . S
C2208 C2207 1.397 . S
C2208 C2209 1.334 . S
C2209 H2186 0.950 . S
C2209 C2208 1.334 . S
C2209 C2210 1.287 . S
C2210 C2209 1.287 . S
C2210 C2211 1.524 . S
C2210 H2229 0.913 . S
C2211 H2187 0.950 . S
C2211 C2210 1.524 . S
C2211 C2212 1.415 . S
C2212 H2188 0.950 . S
C2212 C2207 1.363 . S
C2212 C2211 1.415 . S
C2213 H2189 0.965 . S
C2213 C2214 1.366 . S
C2213 C2215 1.388 . S
C2214 C2213 1.366 . S
C2214 C2218 1.385 . S
C2215 H2190 0.951 . S
C2215 C2213 1.388 . S
C2215 C2216 1.366 . S
C2216 C2215 1.366 . S
C2216 C2217 1.414 . S
C2216 C2219 1.499 . S
C2217 H2191 0.950 . S
C2217 C2216 1.414 . S
C2217 C2218 1.374 . S
C2218 H2192 0.950 . S
C2218 C2214 1.385 . S
C2218 C2217 1.374 . S
C2219 C2216 1.499 . S
C2219 C2220 1.373 . S
C2219 C2221 1.389 . S
C2220 H2193 0.950 . S
C2220 C2206 1.377 . S
C2220 C2219 1.373 . S
C2221 C2205 1.377 . S
C2221 C2219 1.389 . S
C2221 C2222 1.524 1_545 S
C2222 C2221 1.524 1_565 S
C2222 C2223 1.397 . S
C2222 C2227 1.363 . S
C2223 H2194 0.950 . S
C2223 C2222 1.397 . S
C2223 C2224 1.334 . S
C2224 H2195 0.950 . S
C2224 C2223 1.334 . S
C2224 C2225 1.287 . S
C2225 C2224 1.287 . S
C2225 C2226 1.524 . S
C2225 H2228 0.999 . S
C2226 H2196 0.950 . S
C2226 C2225 1.524 . S
C2226 C2227 1.415 . S
C2227 H2197 0.950 . S
C2227 C2222 1.363 . S
C2227 C2226 1.415 . S
H2228 C2225 0.999 . S
H2229 C2210 0.913 . S
H2230 C2248 0.951 . S
H2231 C2250 0.951 . S
H2232 C2252 0.950 . S
H2233 C2253 0.950 . S
H2234 C2255 0.950 . S
H2235 C2258 0.950 . S
H2236 C2259 0.950 . S
H2237 C2261 0.950 . S
H2238 C2262 0.950 . S
H2239 C2263 0.951 . S
H2240 C2265 0.951 . S
H2241 C2267 0.950 . S
H2242 C2268 0.950 . S
H2243 C2270 0.950 . S
H2244 C2273 0.950 . S
H2245 C2274 0.950 . S
H2246 C2276 0.950 . S
H2247 C2277 0.950 . S
C2248 H2230 0.951 . S
C2248 C2249 1.366 . S
C2248 C2250 1.388 . S
C2249 C2248 1.366 . S
C2249 C2253 1.385 . S
C2250 H2231 0.951 . S
C2250 C2248 1.388 . S
C2250 C2251 1.366 . S
C2251 C2250 1.366 . S
C2251 C2252 1.414 . S
C2251 C2254 1.499 . S
C2252 H2232 0.950 . S
C2252 C2251 1.414 . S
C2252 C2253 1.374 . S
C2253 H2233 0.950 . S
C2253 C2249 1.385 . S
C2253 C2252 1.374 . S
C2254 C2251 1.499 . S
C2254 C2255 1.373 . S
C2254 C2256 1.389 . S
C2255 H2234 0.950 . S
C2255 C2254 1.373 . S
C2255 C2271 1.377 . S
C2256 C2254 1.389 . S
C2256 C2257 1.524 . S
C2256 C2270 1.377 . S
C2257 C2256 1.524 . S
C2257 C2258 1.397 . S
C2257 C2262 1.363 . S
C2258 H2235 0.950 . S
C2258 C2257 1.397 . S
C2258 C2259 1.334 . S
C2259 H2236 0.950 . S
C2259 C2258 1.334 . S
C2259 C2260 1.287 . S
C2260 C2259 1.287 . S
C2260 C2261 1.524 . S
C2260 H2279 0.913 . S
C2261 H2237 0.950 . S
C2261 C2260 1.524 . S
C2261 C2262 1.415 . S
C2262 H2238 0.950 . S
C2262 C2257 1.363 . S
C2262 C2261 1.415 . S
C2263 H2239 0.951 . S
C2263 C2264 1.366 . S
C2263 C2265 1.388 . S
C2264 C2263 1.366 . S
C2264 C2268 1.385 . S
C2265 H2240 0.951 . S
C2265 C2263 1.388 . S
C2265 C2266 1.366 . S
C2266 C2265 1.366 . S
C2266 C2267 1.414 . S
C2266 C2269 1.499 . S
C2267 H2241 0.950 . S
C2267 C2266 1.414 . S
C2267 C2268 1.374 . S
C2268 H2242 0.950 . S
C2268 C2264 1.385 . S
C2268 C2267 1.374 . S
C2269 C2266 1.499 . S
C2269 C2270 1.373 . S
C2269 C2271 1.389 . S
C2270 H2243 0.950 . S
C2270 C2256 1.377 . S
C2270 C2269 1.373 . S
C2271 C2255 1.377 . S
C2271 C2269 1.389 . S
C2271 C2272 1.524 . S
C2272 C2271 1.524 . S
C2272 C2273 1.397 . S
C2272 C2277 1.363 . S
C2273 H2244 0.950 . S
C2273 C2272 1.397 . S
C2273 C2274 1.334 . S
C2274 H2245 0.950 . S
C2274 C2273 1.334 . S
C2274 C2275 1.287 . S
C2275 C2274 1.287 . S
C2275 C2276 1.524 . S
C2275 H2278 0.999 . S
C2276 H2246 0.950 . S
C2276 C2275 1.524 . S
C2276 C2277 1.415 . S
C2277 H2247 0.950 . S
C2277 C2272 1.363 . S
C2277 C2276 1.415 . S
H2278 C2275 0.999 . S
H2279 C2260 0.913 . S
H2280 C2298 0.951 1_565 S
H2281 C2300 0.951 1_565 S
H2282 C2302 0.950 . S
H2283 C2303 0.950 . S
H2284 C2305 0.950 . S
H2285 C2308 0.950 . S
H2286 C2309 0.950 . S
H2287 C2311 0.950 . S
H2288 C2312 0.950 . S
H2289 C2313 0.951 . S
H2290 C2315 0.951 . S
H2291 C2317 0.950 1_565 S
H2292 C2318 0.950 1_565 S
H2293 C2320 0.950 1_565 S
H2294 C2323 0.950 . S
H2295 C2324 0.950 . S
H2296 C2326 0.950 . S
H2297 C2327 0.950 . S
C2298 H2280 0.951 1_545 S
C2298 C2299 1.366 . S
C2298 C2300 1.388 . S
C2299 C2298 1.366 . S
C2299 C2303 1.385 . S
C2300 H2281 0.951 1_545 S
C2300 C2298 1.388 . S
C2300 C2301 1.366 . S
C2301 C2300 1.366 . S
C2301 C2302 1.414 . S
C2301 C2304 1.499 . S
C2302 H2282 0.950 . S
C2302 C2301 1.414 . S
C2302 C2303 1.374 . S
C2303 H2283 0.950 . S
C2303 C2299 1.385 . S
C2303 C2302 1.374 . S
C2304 C2301 1.499 . S
C2304 C2305 1.373 . S
C2304 C2306 1.439 . S
C2305 H2284 0.950 . S
C2305 C2304 1.373 . S
C2305 C2321 1.377 . S
C2306 C2304 1.439 . S
C2306 C2307 1.485 1_545 S
C2306 C2320 1.368 . S
C2307 C2306 1.485 1_565 S
C2307 C2308 1.397 . S
C2307 C2312 1.363 . S
C2308 H2285 0.950 . S
C2308 C2307 1.397 . S
C2308 C2309 1.334 . S
C2309 H2286 0.950 . S
C2309 C2308 1.334 . S
C2309 C2310 1.287 . S
C2310 C2309 1.287 . S
C2310 C2311 1.524 . S
C2310 H2329 0.913 . S
C2311 H2287 0.950 . S
C2311 C2310 1.524 . S
C2311 C2312 1.415 . S
C2312 H2288 0.950 . S
C2312 C2307 1.363 . S
C2312 C2311 1.415 . S
C2313 H2289 0.951 . S
C2313 C2314 1.366 1_655 S
C2313 C2315 1.388 . S
C2314 C2313 1.366 1_455 S
C2314 C2318 1.385 . S
C2315 H2290 0.951 . S
C2315 C2313 1.388 . S
C2315 C2316 1.366 . S
C2316 C2315 1.366 . S
C2316 C2317 1.414 1_655 S
C2316 C2319 1.499 . S
C2317 H2291 0.950 1_545 S
C2317 C2316 1.414 1_455 S
C2317 C2318 1.374 . S
C2318 H2292 0.950 1_545 S
C2318 C2314 1.385 . S
C2318 C2317 1.374 . S
C2319 C2316 1.499 . S
C2319 C2320 1.373 . S
C2319 C2321 1.389 . S
C2320 H2293 0.950 1_545 S
C2320 C2306 1.368 . S
C2320 C2319 1.373 . S
C2321 C2305 1.377 . S
C2321 C2319 1.389 . S
C2321 C2322 1.524 . S
C2322 C2321 1.524 . S
C2322 C2323 1.399 1_655 S
C2322 C2327 1.362 . S
C2323 H2294 0.950 . S
C2323 C2322 1.399 1_455 S
C2323 C2324 1.334 . S
C2324 H2295 0.950 . S
C2324 C2323 1.334 . S
C2324 C2325 1.287 . S
C2325 C2324 1.287 . S
C2325 C2326 1.524 . S
C2325 H2328 0.999 . S
C2326 H2296 0.950 . S
C2326 C2325 1.524 . S
C2326 C2327 1.415 1_455 S
C2327 H2297 0.950 . S
C2327 C2322 1.362 . S
C2327 C2326 1.415 1_655 S
H2328 C2325 0.999 . S
H2329 C2310 0.913 . S
H2330 C2348 0.951 . S
H2331 C2350 0.951 . S
H2332 C2352 0.950 . S
H2333 C2353 0.950 . S
H2334 C2355 0.950 . S
H2335 C2358 0.950 . S
H2336 C2359 0.950 . S
H2337 C2361 0.950 . S
H2338 C2362 0.950 . S
H2339 C2363 0.951 . S
H2340 C2365 0.951 . S
H2341 C2367 0.950 . S
H2342 C2368 0.950 . S
H2343 C2370 0.950 . S
H2344 C2373 0.950 . S
H2345 C2374 0.950 . S
H2346 C2376 0.950 . S
H2347 C2377 0.950 . S
C2348 H2330 0.951 . S
C2348 C2349 1.366 . S
C2348 C2350 1.388 . S
C2349 C2348 1.366 . S
C2349 C2353 1.385 . S
C2350 H2331 0.951 . S
C2350 C2348 1.388 . S
C2350 C2351 1.366 . S
C2351 C2350 1.366 . S
C2351 C2352 1.414 . S
C2351 C2354 1.499 . S
C2352 H2332 0.950 . S
C2352 C2351 1.414 . S
C2352 C2353 1.374 . S
C2353 H2333 0.950 . S
C2353 C2349 1.385 . S
C2353 C2352 1.374 . S
C2354 C2351 1.499 . S
C2354 C2355 1.373 . S
C2354 C2356 1.389 . S
C2355 H2334 0.950 . S
C2355 C2354 1.373 . S
C2355 C2371 1.377 . S
C2356 C2354 1.389 . S
C2356 C2357 1.524 . S
C2356 C2370 1.377 . S
C2357 C2356 1.524 . S
C2357 C2358 1.397 . S
C2357 C2362 1.363 . S
C2358 H2335 0.950 . S
C2358 C2357 1.397 . S
C2358 C2359 1.334 . S
C2359 H2336 0.950 . S
C2359 C2358 1.334 . S
C2359 C2360 1.287 . S
C2360 C2359 1.287 . S
C2360 C2361 1.524 . S
C2360 H2379 0.913 . S
C2361 H2337 0.950 . S
C2361 C2360 1.524 . S
C2361 C2362 1.415 . S
C2362 H2338 0.950 . S
C2362 C2357 1.363 . S
C2362 C2361 1.415 . S
C2363 H2339 0.951 . S
C2363 C2364 1.366 . S
C2363 C2365 1.388 . S
C2364 C2363 1.366 . S
C2364 C2368 1.385 . S
C2365 H2340 0.951 . S
C2365 C2363 1.388 . S
C2365 C2366 1.366 . S
C2366 C2365 1.366 . S
C2366 C2367 1.414 . S
C2366 C2369 1.499 . S
C2367 H2341 0.950 . S
C2367 C2366 1.414 . S
C2367 C2368 1.374 . S
C2368 H2342 0.950 . S
C2368 C2364 1.385 . S
C2368 C2367 1.374 . S
C2369 C2366 1.499 . S
C2369 C2370 1.373 . S
C2369 C2371 1.389 . S
C2370 H2343 0.950 . S
C2370 C2356 1.377 . S
C2370 C2369 1.373 . S
C2371 C2355 1.377 . S
C2371 C2369 1.389 . S
C2371 C2372 1.524 . S
C2372 C2371 1.524 . S
C2372 C2373 1.397 . S
C2372 C2377 1.363 . S
C2373 H2344 0.950 . S
C2373 C2372 1.397 . S
C2373 C2374 1.334 . S
C2374 H2345 0.950 . S
C2374 C2373 1.334 . S
C2374 C2375 1.287 . S
C2375 C2374 1.287 . S
C2375 C2376 1.524 . S
C2375 H2378 0.999 . S
C2376 H2346 0.950 . S
C2376 C2375 1.524 . S
C2376 C2377 1.415 . S
C2377 H2347 0.950 . S
C2377 C2372 1.363 . S
C2377 C2376 1.415 . S
H2378 C2375 0.999 . S
H2379 C2360 0.913 . S
H2380 C2398 0.951 . S
H2381 C2400 0.951 . S
H2382 C2402 0.950 . S
H2383 C2403 0.950 . S
H2384 C2405 0.950 . S
H2385 C2408 0.950 . S
H2386 C2409 0.950 . S
H2387 C2411 0.950 . S
H2388 C2412 0.950 . S
H2389 C2413 0.951 . S
H2390 C2415 0.951 . S
H2391 C2417 0.950 . S
H2392 C2418 0.950 . S
H2393 C2420 0.950 . S
H2394 C2423 0.950 . S
H2395 C2424 0.950 . S
H2396 C2426 0.950 . S
H2397 C2427 0.950 . S
C2398 H2380 0.951 . S
C2398 C2399 1.366 . S
C2398 C2400 1.388 . S
C2399 C2398 1.366 . S
C2399 C2403 1.385 . S
C2400 H2381 0.951 . S
C2400 C2398 1.388 . S
C2400 C2401 1.366 . S
C2401 C2400 1.366 . S
C2401 C2402 1.414 . S
C2401 C2404 1.499 . S
C2402 H2382 0.950 . S
C2402 C2401 1.414 . S
C2402 C2403 1.374 . S
C2403 H2383 0.950 . S
C2403 C2399 1.385 . S
C2403 C2402 1.374 . S
C2404 C2401 1.499 . S
C2404 C2405 1.373 . S
C2404 C2406 1.389 . S
C2405 H2384 0.950 . S
C2405 C2404 1.373 . S
C2405 C2421 1.377 . S
C2406 C2404 1.389 . S
C2406 C2407 1.524 . S
C2406 C2420 1.377 . S
C2407 C2406 1.524 . S
C2407 C2408 1.397 . S
C2407 C2412 1.363 . S
C2408 H2385 0.950 . S
C2408 C2407 1.397 . S
C2408 C2409 1.334 . S
C2409 H2386 0.950 . S
C2409 C2408 1.334 . S
C2409 C2410 1.287 . S
C2410 C2409 1.287 . S
C2410 C2411 1.524 . S
C2410 H2429 0.913 . S
C2411 H2387 0.950 . S
C2411 C2410 1.524 . S
C2411 C2412 1.415 . S
C2412 H2388 0.950 . S
C2412 C2407 1.363 . S
C2412 C2411 1.415 . S
C2413 H2389 0.951 . S
C2413 C2414 1.366 . S
C2413 C2415 1.388 . S
C2414 C2413 1.366 . S
C2414 C2418 1.385 . S
C2415 H2390 0.951 . S
C2415 C2413 1.388 . S
C2415 C2416 1.366 . S
C2416 C2415 1.366 . S
C2416 C2417 1.414 . S
C2416 C2419 1.499 . S
C2417 H2391 0.950 . S
C2417 C2416 1.414 . S
C2417 C2418 1.374 . S
C2418 H2392 0.950 . S
C2418 C2414 1.385 . S
C2418 C2417 1.374 . S
C2419 C2416 1.499 . S
C2419 C2420 1.373 . S
C2419 C2421 1.389 . S
C2420 H2393 0.950 . S
C2420 C2406 1.377 . S
C2420 C2419 1.373 . S
C2421 C2405 1.377 . S
C2421 C2419 1.389 . S
C2421 C2422 1.524 . S
C2422 C2421 1.524 . S
C2422 C2423 1.397 . S
C2422 C2427 1.363 1_545 S
C2423 H2394 0.950 . S
C2423 C2422 1.397 . S
C2423 C2424 1.334 . S
C2424 H2395 0.950 . S
C2424 C2423 1.334 . S
C2424 C2425 1.287 1_545 S
C2425 C2424 1.287 1_565 S
C2425 C2426 1.524 . S
C2425 H2428 0.999 . S
C2426 H2396 0.950 . S
C2426 C2425 1.524 . S
C2426 C2427 1.415 . S
C2427 H2397 0.950 . S
C2427 C2422 1.363 1_565 S
C2427 C2426 1.415 . S
H2428 C2425 0.999 . S
H2429 C2410 0.913 . S
H2430 C2448 0.951 . S
H2431 C2450 0.951 . S
H2432 C2452 0.950 . S
H2433 C2453 0.950 . S
H2434 C2455 0.950 . S
H2435 C2458 0.950 . S
H2436 C2459 0.950 . S
H2437 C2461 0.950 . S
H2438 C2462 0.950 . S
H2439 C2463 0.951 . S
H2440 C2465 0.951 . S
H2441 C2467 0.950 . S
H2442 C2468 0.950 . S
H2443 C2470 0.950 . S
H2444 C2473 0.950 . S
H2445 C2474 0.950 . S
H2446 C2476 0.950 . S
H2447 C2477 0.950 . S
C2448 H2430 0.951 . S
C2448 C2449 1.366 . S
C2448 C2450 1.388 . S
C2449 C2448 1.366 . S
C2449 C2453 1.385 . S
C2450 H2431 0.951 . S
C2450 C2448 1.388 . S
C2450 C2451 1.366 . S
C2451 C2450 1.366 . S
C2451 C2452 1.414 . S
C2451 C2454 1.499 . S
C2452 H2432 0.950 . S
C2452 C2451 1.414 . S
C2452 C2453 1.374 . S
C2453 H2433 0.950 . S
C2453 C2449 1.385 . S
C2453 C2452 1.374 . S
C2454 C2451 1.499 . S
C2454 C2455 1.373 . S
C2454 C2456 1.389 . S
C2455 H2434 0.950 . S
C2455 C2454 1.373 . S
C2455 C2471 1.377 . S
C2456 C2454 1.389 . S
C2456 C2457 1.524 . S
C2456 C2470 1.377 . S
C2457 C2456 1.524 . S
C2457 C2458 1.397 . S
C2457 C2462 1.363 . S
C2458 H2435 0.950 . S
C2458 C2457 1.397 . S
C2458 C2459 1.334 . S
C2459 H2436 0.950 . S
C2459 C2458 1.334 . S
C2459 C2460 1.287 . S
C2460 C2459 1.287 . S
C2460 C2461 1.524 . S
C2460 H2479 0.913 . S
C2461 H2437 0.950 . S
C2461 C2460 1.524 . S
C2461 C2462 1.415 . S
C2462 H2438 0.950 . S
C2462 C2457 1.363 . S
C2462 C2461 1.415 . S
C2463 H2439 0.951 . S
C2463 C2464 1.366 . S
C2463 C2465 1.388 . S
C2464 C2463 1.366 . S
C2464 C2468 1.385 . S
C2465 H2440 0.951 . S
C2465 C2463 1.388 . S
C2465 C2466 1.366 . S
C2466 C2465 1.366 . S
C2466 C2467 1.414 . S
C2466 C2469 1.499 . S
C2467 H2441 0.950 . S
C2467 C2466 1.414 . S
C2467 C2468 1.374 . S
C2468 H2442 0.950 . S
C2468 C2464 1.385 . S
C2468 C2467 1.374 . S
C2469 C2466 1.499 . S
C2469 C2470 1.373 . S
C2469 C2471 1.389 . S
C2470 H2443 0.950 . S
C2470 C2456 1.377 . S
C2470 C2469 1.373 . S
C2471 C2455 1.377 . S
C2471 C2469 1.389 . S
C2471 C2472 1.524 . S
C2472 C2471 1.524 . S
C2472 C2473 1.397 . S
C2472 C2477 1.363 . S
C2473 H2444 0.950 . S
C2473 C2472 1.397 . S
C2473 C2474 1.334 . S
C2474 H2445 0.950 . S
C2474 C2473 1.334 . S
C2474 C2475 1.287 . S
C2475 C2474 1.287 . S
C2475 C2476 1.524 . S
C2475 H2478 0.999 . S
C2476 H2446 0.950 . S
C2476 C2475 1.524 . S
C2476 C2477 1.415 . S
C2477 H2447 0.950 . S
C2477 C2472 1.363 . S
C2477 C2476 1.415 . S
H2478 C2475 0.999 . S
H2479 C2460 0.913 . S
H2480 C2498 0.951 . S
H2481 C2500 0.951 . S
H2482 C2502 0.950 . S
H2483 C2503 0.950 . S
H2484 C2505 0.950 . S
H2485 C2508 0.950 . S
H2486 C2509 0.950 . S
H2487 C2511 0.950 . S
H2488 C2512 0.950 1_554 S
H2489 C2513 0.951 . S
H2490 C2515 0.951 . S
H2491 C2517 0.950 . S
H2492 C2518 0.950 . S
H2493 C2520 0.950 . S
H2494 C2523 0.950 1_565 S
H2495 C2524 0.950 . S
H2496 C2526 0.950 . S
H2497 C2527 0.950 . S
C2498 H2480 0.951 . S
C2498 C2499 1.371 . S
C2498 C2500 1.388 . S
C2499 C2498 1.371 . S
C2499 C2503 1.381 1_554 S
C2500 H2481 0.951 . S
C2500 C2498 1.388 . S
C2500 C2501 1.366 . S
C2501 C2500 1.366 . S
C2501 C2502 1.414 1_554 S
C2501 C2504 1.499 . S
C2502 H2482 0.950 . S
C2502 C2501 1.414 1_556 S
C2502 C2503 1.374 . S
C2503 H2483 0.950 . S
C2503 C2499 1.381 1_556 S
C2503 C2502 1.374 . S
C2504 C2501 1.499 . S
C2504 C2505 1.373 . S
C2504 C2506 1.389 . S
C2505 H2484 0.950 . S
C2505 C2504 1.373 . S
C2505 C2521 1.377 . S
C2506 C2504 1.389 . S
C2506 C2507 1.524 1_554 S
C2506 C2520 1.377 . S
C2507 C2506 1.524 1_556 S
C2507 C2508 1.397 . S
C2507 C2512 1.363 . S
C2508 H2485 0.950 . S
C2508 C2507 1.397 . S
C2508 C2509 1.334 . S
C2509 H2486 0.950 . S
C2509 C2508 1.334 . S
C2509 C2510 1.287 . S
C2510 C2509 1.287 . S
C2510 C2511 1.524 . S
C2510 H2529 0.913 . S
C2511 H2487 0.950 . S
C2511 C2510 1.524 . S
C2511 C2512 1.415 . S
C2512 H2488 0.950 1_556 S
C2512 C2507 1.363 . S
C2512 C2511 1.415 . S
C2513 H2489 0.951 . S
C2513 C2514 1.341 1_545 S
C2513 C2515 1.388 . S
C2514 C2513 1.341 1_565 S
C2514 C2518 1.449 . S
C2515 H2490 0.951 . S
C2515 C2513 1.388 . S
C2515 C2516 1.366 1_545 S
C2516 C2515 1.366 1_565 S
C2516 C2517 1.414 . S
C2516 C2519 1.499 . S
C2517 H2491 0.950 . S
C2517 C2516 1.414 . S
C2517 C2518 1.374 . S
C2518 H2492 0.950 . S
C2518 C2514 1.449 . S
C2518 C2517 1.374 . S
C2519 C2516 1.499 . S
C2519 C2520 1.373 . S
C2519 C2521 1.389 . S
C2520 H2493 0.950 . S
C2520 C2506 1.377 . S
C2520 C2519 1.373 . S
C2521 C2505 1.377 . S
C2521 C2519 1.389 . S
C2521 C2522 1.524 1_565 S
C2522 C2521 1.524 1_545 S
C2522 C2523 1.397 . S
C2522 C2527 1.363 . S
C2523 H2494 0.950 1_545 S
C2523 C2522 1.397 . S
C2523 C2524 1.334 . S
C2524 H2495 0.950 . S
C2524 C2523 1.334 . S
C2524 C2525 1.287 . S
C2525 C2524 1.287 . S
C2525 C2526 1.524 . S
C2525 H2528 0.999 . S
C2526 H2496 0.950 . S
C2526 C2525 1.524 . S
C2526 C2527 1.415 . S
C2527 H2497 0.950 . S
C2527 C2522 1.363 . S
C2527 C2526 1.415 . S
H2528 C2525 0.999 . S
H2529 C2510 0.913 . S
H2530 C2548 0.951 . S
H2531 C2550 0.951 . S
H2532 C2552 0.950 . S
H2533 C2553 0.950 . S
H2534 C2555 0.950 . S
H2535 C2558 0.950 . S
H2536 C2559 0.950 . S
H2537 C2561 0.950 . S
H2538 C2562 0.950 . S
H2539 C2563 0.951 . S
H2540 C2565 0.951 . S
H2541 C2567 0.950 . S
H2542 C2568 0.950 . S
H2543 C2570 0.950 . S
H2544 C2573 0.950 . S
H2545 C2574 0.950 . S
H2546 C2576 0.950 . S
H2547 C2577 0.950 . S
C2548 H2530 0.951 . S
C2548 C2549 1.366 . S
C2548 C2550 1.388 . S
C2549 C2548 1.366 . S
C2549 C2553 1.385 1_554 S
C2550 H2531 0.951 . S
C2550 C2548 1.388 . S
C2550 C2551 1.366 . S
C2551 C2550 1.366 . S
C2551 C2552 1.414 1_554 S
C2551 C2554 1.499 . S
C2552 H2532 0.950 . S
C2552 C2551 1.414 1_556 S
C2552 C2553 1.374 . S
C2553 H2533 0.950 . S
C2553 C2549 1.385 1_556 S
C2553 C2552 1.374 . S
C2554 C2551 1.499 . S
C2554 C2555 1.373 . S
C2554 C2556 1.389 . S
C2555 H2534 0.950 . S
C2555 C2554 1.373 . S
C2555 C2571 1.377 . S
C2556 C2554 1.389 . S
C2556 C2557 1.524 . S
C2556 C2570 1.377 . S
C2557 C2556 1.524 . S
C2557 C2558 1.397 1_554 S
C2557 C2562 1.363 . S
C2558 H2535 0.950 . S
C2558 C2557 1.397 1_556 S
C2558 C2559 1.334 . S
C2559 H2536 0.950 . S
C2559 C2558 1.334 . S
C2559 C2560 1.287 . S
C2560 C2559 1.287 . S
C2560 C2561 1.524 1_556 S
C2560 H2579 0.913 . S
C2561 H2537 0.950 . S
C2561 C2560 1.524 1_554 S
C2561 C2562 1.415 . S
C2562 H2538 0.950 . S
C2562 C2557 1.363 . S
C2562 C2561 1.415 . S
C2563 H2539 0.951 . S
C2563 C2564 1.366 1_556 S
C2563 C2565 1.388 . S
C2564 C2563 1.366 1_554 S
C2564 C2568 1.385 . S
C2565 H2540 0.951 . S
C2565 C2563 1.388 . S
C2565 C2566 1.366 1_556 S
C2566 C2565 1.366 1_554 S
C2566 C2567 1.414 . S
C2566 C2569 1.499 . S
C2567 H2541 0.950 . S
C2567 C2566 1.414 . S
C2567 C2568 1.374 . S
C2568 H2542 0.950 . S
C2568 C2564 1.385 . S
C2568 C2567 1.374 . S
C2569 C2566 1.499 . S
C2569 C2570 1.373 . S
C2569 C2571 1.389 . S
C2570 H2543 0.950 . S
C2570 C2556 1.377 . S
C2570 C2569 1.373 . S
C2571 C2555 1.377 . S
C2571 C2569 1.389 . S
C2571 C2572 1.524 . S
C2572 C2571 1.524 . S
C2572 C2573 1.397 . S
C2572 C2577 1.363 1_554 S
C2573 H2544 0.950 . S
C2573 C2572 1.397 . S
C2573 C2574 1.334 . S
C2574 H2545 0.950 . S
C2574 C2573 1.334 . S
C2574 C2575 1.287 . S
C2575 C2574 1.287 . S
C2575 C2576 1.524 1_554 S
C2575 H2578 0.999 . S
C2576 H2546 0.950 . S
C2576 C2575 1.524 1_556 S
C2576 C2577 1.415 . S
C2577 H2547 0.950 . S
C2577 C2572 1.363 1_556 S
C2577 C2576 1.415 . S
H2578 C2575 0.999 . S
H2579 C2560 0.913 . S
H2580 C2598 0.951 . S
H2581 C2600 0.951 . S
H2582 C2602 0.950 . S
H2583 C2603 0.950 . S
H2584 C2605 0.950 . S
H2585 C2608 0.950 . S
H2586 C2609 0.950 . S
H2587 C2611 0.950 . S
H2588 C2612 0.950 . S
H2589 C2613 0.951 . S
H2590 C2615 0.951 . S
H2591 C2617 0.950 . S
H2592 C2618 0.950 . S
H2593 C2620 0.950 . S
H2594 C2623 0.950 . S
H2595 C2624 0.950 . S
H2596 C2626 0.950 . S
H2597 C2627 0.950 . S
C2598 H2580 0.951 . S
C2598 C2599 1.366 . S
C2598 C2600 1.388 . S
C2599 C2598 1.366 . S
C2599 C2603 1.385 . S
C2600 H2581 0.951 . S
C2600 C2598 1.388 . S
C2600 C2601 1.366 . S
C2601 C2600 1.366 . S
C2601 C2602 1.414 . S
C2601 C2604 1.499 . S
C2602 H2582 0.950 . S
C2602 C2601 1.414 . S
C2602 C2603 1.374 . S
C2603 H2583 0.950 . S
C2603 C2599 1.385 . S
C2603 C2602 1.374 . S
C2604 C2601 1.499 . S
C2604 C2605 1.373 . S
C2604 C2606 1.389 . S
C2605 H2584 0.950 . S
C2605 C2604 1.373 . S
C2605 C2621 1.377 . S
C2606 C2604 1.389 . S
C2606 C2607 1.524 . S
C2606 C2620 1.377 . S
C2607 C2606 1.524 . S
C2607 C2608 1.397 . S
C2607 C2612 1.363 . S
C2608 H2585 0.950 . S
C2608 C2607 1.397 . S
C2608 C2609 1.334 . S
C2609 H2586 0.950 . S
C2609 C2608 1.334 . S
C2609 C2610 1.287 . S
C2610 C2609 1.287 . S
C2610 C2611 1.524 . S
C2610 H2629 0.913 . S
C2611 H2587 0.950 . S
C2611 C2610 1.524 . S
C2611 C2612 1.415 . S
C2612 H2588 0.950 . S
C2612 C2607 1.363 . S
C2612 C2611 1.415 . S
C2613 H2589 0.951 . S
C2613 C2614 1.366 . S
C2613 C2615 1.388 . S
C2614 C2613 1.366 . S
C2614 C2618 1.385 . S
C2615 H2590 0.951 . S
C2615 C2613 1.388 . S
C2615 C2616 1.366 . S
C2616 C2615 1.366 . S
C2616 C2617 1.414 . S
C2616 C2619 1.499 . S
C2617 H2591 0.950 . S
C2617 C2616 1.414 . S
C2617 C2618 1.374 . S
C2618 H2592 0.950 . S
C2618 C2614 1.385 . S
C2618 C2617 1.374 . S
C2619 C2616 1.499 . S
C2619 C2620 1.373 . S
C2619 C2621 1.389 . S
C2620 H2593 0.950 . S
C2620 C2606 1.377 . S
C2620 C2619 1.373 . S
C2621 C2605 1.377 . S
C2621 C2619 1.389 . S
C2621 C2622 1.524 . S
C2622 C2621 1.524 . S
C2622 C2623 1.397 . S
C2622 C2627 1.363 . S
C2623 H2594 0.950 . S
C2623 C2622 1.397 . S
C2623 C2624 1.334 . S
C2624 H2595 0.950 . S
C2624 C2623 1.334 . S
C2624 C2625 1.287 . S
C2625 C2624 1.287 . S
C2625 C2626 1.524 . S
C2625 H2628 0.999 . S
C2626 H2596 0.950 . S
C2626 C2625 1.524 . S
C2626 C2627 1.415 . S
C2627 H2597 0.950 . S
C2627 C2622 1.363 . S
C2627 C2626 1.415 . S
H2628 C2625 0.999 . S
H2629 C2610 0.913 . S
H2630 C2648 0.951 . S
H2631 C2650 0.951 . S
H2632 C2652 0.950 . S
H2633 C2653 0.950 . S
H2634 C2655 0.950 . S
H2635 C2658 0.950 . S
H2636 C2659 0.950 . S
H2637 C2661 0.950 . S
H2638 C2662 0.950 . S
H2639 C2663 0.951 . S
H2640 C2665 0.951 . S
H2641 C2667 0.950 . S
H2642 C2668 0.950 . S
H2643 C2670 0.950 . S
H2644 C2673 0.950 . S
H2645 C2674 0.950 . S
H2646 C2676 0.950 . S
H2647 C2677 0.950 . S
C2648 H2630 0.951 . S
C2648 C2649 1.366 . S
C2648 C2650 1.388 . S
C2649 C2648 1.366 . S
C2649 C2653 1.385 . S
C2650 H2631 0.951 . S
C2650 C2648 1.388 . S
C2650 C2651 1.366 . S
C2651 C2650 1.366 . S
C2651 C2652 1.414 . S
C2651 C2654 1.499 . S
C2652 H2632 0.950 . S
C2652 C2651 1.414 . S
C2652 C2653 1.374 . S
C2653 H2633 0.950 . S
C2653 C2649 1.385 . S
C2653 C2652 1.374 . S
C2654 C2651 1.499 . S
C2654 C2655 1.373 . S
C2654 C2656 1.389 . S
C2655 H2634 0.950 . S
C2655 C2654 1.373 . S
C2655 C2671 1.377 . S
C2656 C2654 1.389 . S
C2656 C2657 1.524 . S
C2656 C2670 1.377 . S
C2657 C2656 1.524 . S
C2657 C2658 1.397 . S
C2657 C2662 1.363 . S
C2658 H2635 0.950 . S
C2658 C2657 1.397 . S
C2658 C2659 1.334 . S
C2659 H2636 0.950 . S
C2659 C2658 1.334 . S
C2659 C2660 1.287 . S
C2660 C2659 1.287 . S
C2660 C2661 1.524 . S
C2660 H2679 0.913 . S
C2661 H2637 0.950 . S
C2661 C2660 1.524 . S
C2661 C2662 1.415 . S
C2662 H2638 0.950 . S
C2662 C2657 1.363 . S
C2662 C2661 1.415 . S
C2663 H2639 0.951 . S
C2663 C2664 1.366 . S
C2663 C2665 1.388 . S
C2664 C2663 1.366 . S
C2664 C2668 1.385 . S
C2665 H2640 0.951 . S
C2665 C2663 1.388 . S
C2665 C2666 1.366 . S
C2666 C2665 1.366 . S
C2666 C2667 1.414 . S
C2666 C2669 1.499 . S
C2667 H2641 0.950 . S
C2667 C2666 1.414 . S
C2667 C2668 1.374 . S
C2668 H2642 0.950 . S
C2668 C2664 1.385 . S
C2668 C2667 1.374 . S
C2669 C2666 1.499 . S
C2669 C2670 1.373 . S
C2669 C2671 1.389 . S
C2670 H2643 0.950 . S
C2670 C2656 1.377 . S
C2670 C2669 1.373 . S
C2671 C2655 1.377 . S
C2671 C2669 1.389 . S
C2671 C2672 1.524 . S
C2672 C2671 1.524 . S
C2672 C2673 1.397 . S
C2672 C2677 1.363 . S
C2673 H2644 0.950 . S
C2673 C2672 1.397 . S
C2673 C2674 1.334 . S
C2674 H2645 0.950 . S
C2674 C2673 1.334 . S
C2674 C2675 1.287 . S
C2675 C2674 1.287 . S
C2675 C2676 1.524 . S
C2675 H2678 0.999 . S
C2676 H2646 0.950 . S
C2676 C2675 1.524 . S
C2676 C2677 1.415 . S
C2677 H2647 0.950 . S
C2677 C2672 1.363 . S
C2677 C2676 1.415 . S
H2678 C2675 0.999 . S
H2679 C2660 0.913 . S
H2680 C2698 0.951 . S
H2681 C2700 0.951 . S
H2682 C2702 0.950 . S
H2683 C2703 0.950 . S
H2684 C2705 0.950 . S
H2685 C2708 0.950 . S
H2686 C2709 0.950 . S
H2687 C2711 0.950 . S
H2688 C2712 0.950 . S
H2689 C2713 0.951 . S
H2690 C2715 0.951 . S
H2691 C2717 0.950 . S
H2692 C2718 0.950 . S
H2693 C2720 0.950 . S
H2694 C2723 0.950 . S
H2695 C2724 0.950 . S
H2696 C2726 0.950 . S
H2697 C2727 0.950 . S
C2698 H2680 0.951 . S
C2698 C2699 1.366 . S
C2698 C2700 1.388 . S
C2699 C2698 1.366 . S
C2699 C2703 1.385 . S
C2700 H2681 0.951 . S
C2700 C2698 1.388 . S
C2700 C2701 1.366 . S
C2701 C2700 1.366 . S
C2701 C2702 1.414 . S
C2701 C2704 1.499 . S
C2702 H2682 0.950 . S
C2702 C2701 1.414 . S
C2702 C2703 1.374 . S
C2703 H2683 0.950 . S
C2703 C2699 1.385 . S
C2703 C2702 1.374 . S
C2704 C2701 1.499 . S
C2704 C2705 1.373 . S
C2704 C2706 1.389 . S
C2705 H2684 0.950 . S
C2705 C2704 1.373 . S
C2705 C2721 1.377 . S
C2706 C2704 1.389 . S
C2706 C2707 1.524 . S
C2706 C2720 1.377 . S
C2707 C2706 1.524 . S
C2707 C2708 1.397 . S
C2707 C2712 1.363 . S
C2708 H2685 0.950 . S
C2708 C2707 1.397 . S
C2708 C2709 1.334 . S
C2709 H2686 0.950 . S
C2709 C2708 1.334 . S
C2709 C2710 1.287 . S
C2710 C2709 1.287 . S
C2710 C2711 1.524 . S
C2710 H2729 0.913 . S
C2711 H2687 0.950 . S
C2711 C2710 1.524 . S
C2711 C2712 1.415 . S
C2712 H2688 0.950 . S
C2712 C2707 1.363 . S
C2712 C2711 1.415 . S
C2713 H2689 0.951 . S
C2713 C2714 1.366 . S
C2713 C2715 1.388 . S
C2714 C2713 1.366 . S
C2714 C2718 1.385 . S
C2715 H2690 0.951 . S
C2715 C2713 1.388 . S
C2715 C2716 1.366 . S
C2716 C2715 1.366 . S
C2716 C2717 1.414 . S
C2716 C2719 1.499 . S
C2717 H2691 0.950 . S
C2717 C2716 1.414 . S
C2717 C2718 1.374 . S
C2718 H2692 0.950 . S
C2718 C2714 1.385 . S
C2718 C2717 1.374 . S
C2719 C2716 1.499 . S
C2719 C2720 1.373 . S
C2719 C2721 1.389 . S
C2720 H2693 0.950 . S
C2720 C2706 1.377 . S
C2720 C2719 1.373 . S
C2721 C2705 1.377 . S
C2721 C2719 1.389 . S
C2721 C2722 1.524 . S
C2722 C2721 1.524 . S
C2722 C2723 1.397 . S
C2722 C2727 1.363 . S
C2723 H2694 0.950 . S
C2723 C2722 1.397 . S
C2723 C2724 1.334 . S
C2724 H2695 0.950 . S
C2724 C2723 1.334 . S
C2724 C2725 1.287 . S
C2725 C2724 1.287 . S
C2725 C2726 1.524 . S
C2725 H2728 0.999 . S
C2726 H2696 0.950 . S
C2726 C2725 1.524 . S
C2726 C2727 1.415 . S
C2727 H2697 0.950 . S
C2727 C2722 1.363 . S
C2727 C2726 1.415 . S
H2728 C2725 0.999 . S
H2729 C2710 0.913 . S
H2730 C2748 0.951 . S
H2731 C2750 0.951 . S
H2732 C2752 0.950 . S
H2733 C2753 0.950 . S
H2734 C2755 0.950 . S
H2735 C2758 0.950 . S
H2736 C2759 0.950 . S
H2737 C2761 0.950 . S
H2738 C2762 0.950 . S
H2739 C2763 0.951 . S
H2740 C2765 0.951 . S
H2741 C2767 0.950 . S
H2742 C2768 0.950 . S
H2743 C2770 0.950 . S
H2744 C2773 0.950 . S
H2745 C2774 0.950 . S
H2746 C2776 0.950 . S
H2747 C2777 0.950 . S
C2748 H2730 0.951 . S
C2748 C2749 1.366 . S
C2748 C2750 1.388 . S
C2749 C2748 1.366 . S
C2749 C2753 1.385 . S
C2750 H2731 0.951 . S
C2750 C2748 1.388 . S
C2750 C2751 1.366 . S
C2751 C2750 1.366 . S
C2751 C2752 1.414 . S
C2751 C2754 1.499 . S
C2752 H2732 0.950 . S
C2752 C2751 1.414 . S
C2752 C2753 1.374 . S
C2753 H2733 0.950 . S
C2753 C2749 1.385 . S
C2753 C2752 1.374 . S
C2754 C2751 1.499 . S
C2754 C2755 1.373 . S
C2754 C2756 1.389 . S
C2755 H2734 0.950 . S
C2755 C2754 1.373 . S
C2755 C2771 1.377 . S
C2756 C2754 1.389 . S
C2756 C2757 1.524 . S
C2756 C2770 1.377 . S
C2757 C2756 1.524 . S
C2757 C2758 1.397 . S
C2757 C2762 1.363 . S
C2758 H2735 0.950 . S
C2758 C2757 1.397 . S
C2758 C2759 1.334 . S
C2759 H2736 0.950 . S
C2759 C2758 1.334 . S
C2759 C2760 1.287 . S
C2760 C2759 1.287 . S
C2760 C2761 1.524 . S
C2760 H2779 0.913 . S
C2761 H2737 0.950 . S
C2761 C2760 1.524 . S
C2761 C2762 1.415 . S
C2762 H2738 0.950 . S
C2762 C2757 1.363 . S
C2762 C2761 1.415 . S
C2763 H2739 0.951 . S
C2763 C2764 1.366 . S
C2763 C2765 1.388 . S
C2764 C2763 1.366 . S
C2764 C2768 1.385 . S
C2765 H2740 0.951 . S
C2765 C2763 1.388 . S
C2765 C2766 1.366 . S
C2766 C2765 1.366 . S
C2766 C2767 1.414 . S
C2766 C2769 1.499 . S
C2767 H2741 0.950 . S
C2767 C2766 1.414 . S
C2767 C2768 1.374 . S
C2768 H2742 0.950 . S
C2768 C2764 1.385 . S
C2768 C2767 1.374 . S
C2769 C2766 1.499 . S
C2769 C2770 1.373 . S
C2769 C2771 1.389 . S
C2770 H2743 0.950 . S
C2770 C2756 1.377 . S
C2770 C2769 1.373 . S
C2771 C2755 1.377 . S
C2771 C2769 1.389 . S
C2771 C2772 1.524 . S
C2772 C2771 1.524 . S
C2772 C2773 1.397 . S
C2772 C2777 1.363 . S
C2773 H2744 0.950 . S
C2773 C2772 1.397 . S
C2773 C2774 1.334 . S
C2774 H2745 0.950 . S
C2774 C2773 1.334 . S
C2774 C2775 1.287 . S
C2775 C2774 1.287 . S
C2775 C2776 1.524 . S
C2775 H2778 0.999 . S
C2776 H2746 0.950 . S
C2776 C2775 1.524 . S
C2776 C2777 1.415 . S
C2777 H2747 0.950 . S
C2777 C2772 1.363 . S
C2777 C2776 1.415 . S
H2778 C2775 0.999 . S
H2779 C2760 0.913 . S
H2780 C2798 0.951 . S
H2781 C2800 0.951 . S
H2782 C2802 0.950 . S
H2783 C2803 0.950 . S
H2784 C2805 0.950 . S
H2785 C2808 0.950 . S
H2786 C2809 0.950 . S
H2787 C2811 0.950 . S
H2788 C2812 0.950 . S
H2789 C2813 0.951 . S
H2790 C2815 0.951 . S
H2791 C2817 0.950 . S
H2792 C2818 0.950 . S
H2793 C2820 0.950 . S
H2794 C2823 0.950 . S
H2795 C2824 0.950 . S
H2796 C2826 0.950 . S
H2797 C2827 0.950 . S
C2798 H2780 0.951 . S
C2798 C2799 1.366 . S
C2798 C2800 1.388 . S
C2799 C2798 1.366 . S
C2799 C2803 1.385 . S
C2800 H2781 0.951 . S
C2800 C2798 1.388 . S
C2800 C2801 1.366 . S
C2801 C2800 1.366 . S
C2801 C2802 1.414 . S
C2801 C2804 1.499 . S
C2802 H2782 0.950 . S
C2802 C2801 1.414 . S
C2802 C2803 1.374 . S
C2803 H2783 0.950 . S
C2803 C2799 1.385 . S
C2803 C2802 1.374 . S
C2804 C2801 1.499 . S
C2804 C2805 1.373 . S
C2804 C2806 1.389 . S
C2805 H2784 0.950 . S
C2805 C2804 1.373 . S
C2805 C2821 1.377 . S
C2806 C2804 1.389 . S
C2806 C2807 1.524 . S
C2806 C2820 1.377 . S
C2807 C2806 1.524 . S
C2807 C2808 1.397 . S
C2807 C2812 1.363 . S
C2808 H2785 0.950 . S
C2808 C2807 1.397 . S
C2808 C2809 1.334 . S
C2809 H2786 0.950 . S
C2809 C2808 1.334 . S
C2809 C2810 1.287 . S
C2810 C2809 1.287 . S
C2810 C2811 1.524 . S
C2810 H2829 0.913 . S
C2811 H2787 0.950 . S
C2811 C2810 1.524 . S
C2811 C2812 1.415 . S
C2812 H2788 0.950 . S
C2812 C2807 1.363 . S
C2812 C2811 1.415 . S
C2813 H2789 0.951 . S
C2813 C2814 1.366 . S
C2813 C2815 1.388 . S
C2814 C2813 1.366 . S
C2814 C2818 1.385 . S
C2815 H2790 0.951 . S
C2815 C2813 1.388 . S
C2815 C2816 1.366 . S
C2816 C2815 1.366 . S
C2816 C2817 1.414 . S
C2816 C2819 1.499 . S
C2817 H2791 0.950 . S
C2817 C2816 1.414 . S
C2817 C2818 1.374 . S
C2818 H2792 0.950 . S
C2818 C2814 1.385 . S
C2818 C2817 1.374 . S
C2819 C2816 1.499 . S
C2819 C2820 1.373 . S
C2819 C2821 1.389 . S
C2820 H2793 0.950 . S
C2820 C2806 1.377 . S
C2820 C2819 1.373 . S
C2821 C2805 1.377 . S
C2821 C2819 1.389 . S
C2821 C2822 1.524 . S
C2822 C2821 1.524 . S
C2822 C2823 1.397 . S
C2822 C2827 1.363 . S
C2823 H2794 0.950 . S
C2823 C2822 1.397 . S
C2823 C2824 1.334 . S
C2824 H2795 0.950 . S
C2824 C2823 1.334 . S
C2824 C2825 1.287 . S
C2825 C2824 1.287 . S
C2825 C2826 1.524 . S
C2825 H2828 0.999 . S
C2826 H2796 0.950 . S
C2826 C2825 1.524 . S
C2826 C2827 1.415 . S
C2827 H2797 0.950 . S
C2827 C2822 1.363 . S
C2827 C2826 1.415 . S
H2828 C2825 0.999 . S
H2829 C2810 0.913 . S
H2830 C2848 0.951 . S
H2831 C2850 0.951 . S
H2832 C2852 0.950 . S
H2833 C2853 0.950 . S
H2834 C2855 0.950 . S
H2835 C2858 0.950 . S
H2836 C2859 0.950 . S
H2837 C2861 0.950 . S
H2838 C2862 0.950 . S
H2839 C2863 0.951 . S
H2840 C2865 0.951 . S
H2841 C2867 0.950 . S
H2842 C2868 0.950 . S
H2843 C2870 0.950 . S
H2844 C2873 0.950 . S
H2845 C2874 0.950 . S
H2846 C2876 0.950 . S
H2847 C2877 0.950 . S
C2848 H2830 0.951 . S
C2848 C2849 1.366 . S
C2848 C2850 1.388 . S
C2849 C2848 1.366 . S
C2849 C2853 1.385 . S
C2850 H2831 0.951 . S
C2850 C2848 1.388 . S
C2850 C2851 1.366 . S
C2851 C2850 1.366 . S
C2851 C2852 1.414 . S
C2851 C2854 1.499 . S
C2852 H2832 0.950 . S
C2852 C2851 1.414 . S
C2852 C2853 1.374 . S
C2853 H2833 0.950 . S
C2853 C2849 1.385 . S
C2853 C2852 1.374 . S
C2854 C2851 1.499 . S
C2854 C2855 1.373 . S
C2854 C2856 1.389 . S
C2855 H2834 0.950 . S
C2855 C2854 1.373 . S
C2855 C2871 1.377 . S
C2856 C2854 1.389 . S
C2856 C2857 1.524 . S
C2856 C2870 1.377 . S
C2857 C2856 1.524 . S
C2857 C2858 1.397 . S
C2857 C2862 1.363 . S
C2858 H2835 0.950 . S
C2858 C2857 1.397 . S
C2858 C2859 1.334 . S
C2859 H2836 0.950 . S
C2859 C2858 1.334 . S
C2859 C2860 1.287 . S
C2860 C2859 1.287 . S
C2860 C2861 1.524 . S
C2860 H2879 0.913 . S
C2861 H2837 0.950 . S
C2861 C2860 1.524 . S
C2861 C2862 1.415 . S
C2862 H2838 0.950 . S
C2862 C2857 1.363 . S
C2862 C2861 1.415 . S
C2863 H2839 0.951 . S
C2863 C2864 1.366 . S
C2863 C2865 1.388 . S
C2864 C2863 1.366 . S
C2864 C2868 1.385 . S
C2865 H2840 0.951 . S
C2865 C2863 1.388 . S
C2865 C2866 1.366 . S
C2866 C2865 1.366 . S
C2866 C2867 1.414 . S
C2866 C2869 1.499 . S
C2867 H2841 0.950 . S
C2867 C2866 1.414 . S
C2867 C2868 1.374 . S
C2868 H2842 0.950 . S
C2868 C2864 1.385 . S
C2868 C2867 1.374 . S
C2869 C2866 1.499 . S
C2869 C2870 1.373 . S
C2869 C2871 1.389 . S
C2870 H2843 0.950 . S
C2870 C2856 1.377 . S
C2870 C2869 1.373 . S
C2871 C2855 1.377 . S
C2871 C2869 1.389 . S
C2871 C2872 1.524 . S
C2872 C2871 1.524 . S
C2872 C2873 1.397 . S
C2872 C2877 1.363 . S
C2873 H2844 0.950 . S
C2873 C2872 1.397 . S
C2873 C2874 1.334 . S
C2874 H2845 0.950 . S
C2874 C2873 1.334 . S
C2874 C2875 1.287 . S
C2875 C2874 1.287 . S
C2875 C2876 1.524 . S
C2875 H2878 0.999 . S
C2876 H2846 0.950 . S
C2876 C2875 1.524 . S
C2876 C2877 1.415 . S
C2877 H2847 0.950 . S
C2877 C2872 1.363 . S
C2877 C2876 1.415 . S
H2878 C2875 0.999 . S
H2879 C2860 0.913 . S
H2880 C2898 0.951 . S
H2881 C2900 0.951 . S
H2882 C2902 0.950 . S
H2883 C2903 0.950 . S
H2884 C2905 0.950 . S
H2885 C2908 0.950 . S
H2886 C2909 0.950 . S
H2887 C2911 0.950 . S
H2888 C2912 0.950 . S
H2889 C2913 0.951 . S
H2890 C2915 0.951 . S
H2891 C2917 0.950 . S
H2892 C2918 0.950 . S
H2893 C2920 0.950 . S
H2894 C2923 0.950 . S
H2895 C2924 0.950 1_556 S
H2896 C2926 0.950 . S
H2897 C2927 0.950 . S
C2898 H2880 0.951 . S
C2898 C2899 1.366 . S
C2898 C2900 1.388 . S
C2899 C2898 1.366 . S
C2899 C2903 1.385 . S
C2900 H2881 0.951 . S
C2900 C2898 1.388 . S
C2900 C2901 1.366 . S
C2901 C2900 1.366 . S
C2901 C2902 1.414 . S
C2901 C2904 1.499 . S
C2902 H2882 0.950 . S
C2902 C2901 1.414 . S
C2902 C2903 1.374 . S
C2903 H2883 0.950 . S
C2903 C2899 1.385 . S
C2903 C2902 1.374 . S
C2904 C2901 1.499 . S
C2904 C2905 1.373 . S
C2904 C2906 1.389 . S
C2905 H2884 0.950 . S
C2905 C2904 1.373 . S
C2905 C2921 1.377 . S
C2906 C2904 1.389 . S
C2906 C2907 1.524 . S
C2906 C2920 1.377 . S
C2907 C2906 1.524 . S
C2907 C2908 1.397 . S
C2907 C2912 1.363 . S
C2908 H2885 0.950 . S
C2908 C2907 1.397 . S
C2908 C2909 1.334 . S
C2909 H2886 0.950 . S
C2909 C2908 1.334 . S
C2909 C2910 1.287 . S
C2910 C2909 1.287 . S
C2910 C2911 1.524 . S
C2910 H2929 0.913 . S
C2911 H2887 0.950 . S
C2911 C2910 1.524 . S
C2911 C2912 1.415 . S
C2912 H2888 0.950 . S
C2912 C2907 1.363 . S
C2912 C2911 1.415 . S
C2913 H2889 0.951 . S
C2913 C2914 1.366 . S
C2913 C2915 1.388 . S
C2914 C2913 1.366 . S
C2914 C2918 1.385 . S
C2915 H2890 0.951 . S
C2915 C2913 1.388 . S
C2915 C2916 1.366 . S
C2916 C2915 1.366 . S
C2916 C2917 1.414 . S
C2916 C2919 1.499 . S
C2917 H2891 0.950 . S
C2917 C2916 1.414 . S
C2917 C2918 1.374 . S
C2918 H2892 0.950 . S
C2918 C2914 1.385 . S
C2918 C2917 1.374 . S
C2919 C2916 1.499 . S
C2919 C2920 1.373 . S
C2919 C2921 1.389 . S
C2920 H2893 0.950 . S
C2920 C2906 1.377 . S
C2920 C2919 1.373 . S
C2921 C2905 1.377 . S
C2921 C2919 1.389 . S
C2921 C2922 1.524 . S
C2922 C2921 1.524 . S
C2922 C2923 1.397 . S
C2922 C2927 1.363 1_455 S
C2923 H2894 0.950 . S
C2923 C2922 1.397 . S
C2923 C2924 1.334 1_455 S
C2924 H2895 0.950 1_554 S
C2924 C2923 1.334 1_655 S
C2924 C2925 1.287 . S
C2925 C2924 1.287 . S
C2925 C2926 1.524 . S
C2925 H2928 0.999 . S
C2926 H2896 0.950 . S
C2926 C2925 1.524 . S
C2926 C2927 1.415 . S
C2927 H2897 0.950 . S
C2927 C2922 1.363 1_655 S
C2927 C2926 1.415 . S
H2928 C2925 0.999 . S
H2929 C2910 0.913 . S
H2930 C2948 0.951 . S
H2931 C2950 0.951 . S
H2932 C2952 0.950 . S
H2933 C2953 0.950 . S
H2934 C2955 0.950 . S
H2935 C2958 0.950 . S
H2936 C2959 0.950 . S
H2937 C2961 0.950 . S
H2938 C2962 0.950 . S
H2939 C2963 0.951 . S
H2940 C2965 0.951 . S
H2941 C2967 0.950 . S
H2942 C2968 0.950 . S
H2943 C2970 0.950 . S
H2944 C2973 0.950 . S
H2945 C2974 0.950 . S
H2946 C2976 0.950 . S
H2947 C2977 0.950 . S
C2948 H2930 0.951 . S
C2948 C2949 1.366 . S
C2948 C2950 1.388 . S
C2949 C2948 1.366 . S
C2949 C2953 1.385 . S
C2950 H2931 0.951 . S
C2950 C2948 1.388 . S
C2950 C2951 1.366 . S
C2951 C2950 1.366 . S
C2951 C2952 1.414 . S
C2951 C2954 1.499 . S
C2952 H2932 0.950 . S
C2952 C2951 1.414 . S
C2952 C2953 1.374 . S
C2953 H2933 0.950 . S
C2953 C2949 1.385 . S
C2953 C2952 1.374 . S
C2954 C2951 1.499 . S
C2954 C2955 1.373 . S
C2954 C2956 1.389 . S
C2955 H2934 0.950 . S
C2955 C2954 1.373 . S
C2955 C2971 1.377 . S
C2956 C2954 1.389 . S
C2956 C2957 1.524 . S
C2956 C2970 1.377 . S
C2957 C2956 1.524 . S
C2957 C2958 1.397 . S
C2957 C2962 1.363 . S
C2958 H2935 0.950 . S
C2958 C2957 1.397 . S
C2958 C2959 1.334 . S
C2959 H2936 0.950 . S
C2959 C2958 1.334 . S
C2959 C2960 1.287 . S
C2960 C2959 1.287 . S
C2960 C2961 1.524 . S
C2960 H2979 0.913 . S
C2961 H2937 0.950 . S
C2961 C2960 1.524 . S
C2961 C2962 1.415 . S
C2962 H2938 0.950 . S
C2962 C2957 1.363 . S
C2962 C2961 1.415 . S
C2963 H2939 0.951 . S
C2963 C2964 1.366 . S
C2963 C2965 1.388 . S
C2964 C2963 1.366 . S
C2964 C2968 1.385 . S
C2965 H2940 0.951 . S
C2965 C2963 1.388 . S
C2965 C2966 1.366 . S
C2966 C2965 1.366 . S
C2966 C2967 1.414 . S
C2966 C2969 1.499 . S
C2967 H2941 0.950 . S
C2967 C2966 1.414 . S
C2967 C2968 1.374 . S
C2968 H2942 0.950 . S
C2968 C2964 1.385 . S
C2968 C2967 1.374 . S
C2969 C2966 1.499 . S
C2969 C2970 1.373 . S
C2969 C2971 1.389 . S
C2970 H2943 0.950 . S
C2970 C2956 1.377 . S
C2970 C2969 1.373 . S
C2971 C2955 1.377 . S
C2971 C2969 1.389 . S
C2971 C2972 1.524 . S
C2972 C2971 1.524 . S
C2972 C2973 1.397 . S
C2972 C2977 1.363 . S
C2973 H2944 0.950 . S
C2973 C2972 1.397 . S
C2973 C2974 1.334 . S
C2974 H2945 0.950 . S
C2974 C2973 1.334 . S
C2974 C2975 1.287 . S
C2975 C2974 1.287 . S
C2975 C2976 1.524 . S
C2975 H2978 0.999 . S
C2976 H2946 0.950 . S
C2976 C2975 1.524 . S
C2976 C2977 1.415 . S
C2977 H2947 0.950 . S
C2977 C2972 1.363 . S
C2977 C2976 1.415 . S
H2978 C2975 0.999 . S
H2979 C2960 0.913 . S
H2980 C2998 0.951 . S
H2981 C3000 0.951 . S
H2982 C3002 0.950 . S
H2983 C3003 0.950 . S
H2984 C3005 0.950 . S
H2985 C3008 0.950 . S
H2986 C3009 0.950 . S
H2987 C3011 0.950 . S
H2988 C3012 0.950 . S
H2989 C3013 0.951 . S
H2990 C3015 0.951 . S
H2991 C3017 0.950 . S
H2992 C3018 0.950 . S
H2993 C3020 0.950 . S
H2994 C3023 0.950 . S
H2995 C3024 0.950 . S
H2996 C3026 0.950 . S
H2997 C3027 0.950 . S
C2998 H2980 0.951 . S
C2998 C2999 1.366 . S
C2998 C3000 1.388 . S
C2999 C2998 1.366 . S
C2999 C3003 1.385 . S
C3000 H2981 0.951 . S
C3000 C2998 1.388 . S
C3000 C3001 1.366 . S
C3001 C3000 1.366 . S
C3001 C3002 1.414 . S
C3001 C3004 1.499 . S
C3002 H2982 0.950 . S
C3002 C3001 1.414 . S
C3002 C3003 1.374 . S
C3003 H2983 0.950 . S
C3003 C2999 1.385 . S
C3003 C3002 1.374 . S
C3004 C3001 1.499 . S
C3004 C3005 1.373 . S
C3004 C3006 1.389 . S
C3005 H2984 0.950 . S
C3005 C3004 1.373 . S
C3005 C3021 1.377 . S
C3006 C3004 1.389 . S
C3006 C3007 1.524 . S
C3006 C3020 1.377 . S
C3007 C3006 1.524 . S
C3007 C3008 1.397 . S
C3007 C3012 1.363 . S
C3008 H2985 0.950 . S
C3008 C3007 1.397 . S
C3008 C3009 1.334 . S
C3009 H2986 0.950 . S
C3009 C3008 1.334 . S
C3009 C3010 1.287 . S
C3010 C3009 1.287 . S
C3010 C3011 1.524 . S
C3010 H3029 0.913 . S
C3011 H2987 0.950 . S
C3011 C3010 1.524 . S
C3011 C3012 1.415 . S
C3012 H2988 0.950 . S
C3012 C3007 1.363 . S
C3012 C3011 1.415 . S
C3013 H2989 0.951 . S
C3013 C3014 1.366 . S
C3013 C3015 1.388 . S
C3014 C3013 1.366 . S
C3014 C3018 1.385 . S
C3015 H2990 0.951 . S
C3015 C3013 1.388 . S
C3015 C3016 1.366 . S
C3016 C3015 1.366 . S
C3016 C3017 1.414 . S
C3016 C3019 1.499 . S
C3017 H2991 0.950 . S
C3017 C3016 1.414 . S
C3017 C3018 1.374 . S
C3018 H2992 0.950 . S
C3018 C3014 1.385 . S
C3018 C3017 1.374 . S
C3019 C3016 1.499 . S
C3019 C3020 1.373 . S
C3019 C3021 1.389 . S
C3020 H2993 0.950 . S
C3020 C3006 1.377 . S
C3020 C3019 1.373 . S
C3021 C3005 1.377 . S
C3021 C3019 1.389 . S
C3021 C3022 1.524 . S
C3022 C3021 1.524 . S
C3022 C3023 1.397 . S
C3022 C3027 1.363 . S
C3023 H2994 0.950 . S
C3023 C3022 1.397 . S
C3023 C3024 1.334 . S
C3024 H2995 0.950 . S
C3024 C3023 1.334 . S
C3024 C3025 1.287 . S
C3025 C3024 1.287 . S
C3025 C3026 1.524 . S
C3025 H3028 0.999 . S
C3026 H2996 0.950 . S
C3026 C3025 1.524 . S
C3026 C3027 1.415 . S
C3027 H2997 0.950 . S
C3027 C3022 1.363 . S
C3027 C3026 1.415 . S
H3028 C3025 0.999 . S
H3029 C3010 0.913 . S
H3030 C3048 0.951 . S
H3031 C3050 0.951 . S
H3032 C3052 0.950 . S
H3033 C3053 0.950 . S
H3034 C3055 0.950 . S
H3035 C3058 0.950 . S
H3036 C3059 0.950 . S
H3037 C3061 0.950 . S
H3038 C3062 0.950 . S
H3039 C3063 0.951 . S
H3040 C3065 0.951 . S
H3041 C3067 0.950 . S
H3042 C3068 0.950 . S
H3043 C3070 0.950 . S
H3044 C3073 0.950 . S
H3045 C3074 0.950 . S
H3046 C3076 0.950 . S
H3047 C3077 0.950 . S
C3048 H3030 0.951 . S
C3048 C3049 1.366 . S
C3048 C3050 1.388 . S
C3049 C3048 1.366 . S
C3049 C3053 1.385 . S
C3050 H3031 0.951 . S
C3050 C3048 1.388 . S
C3050 C3051 1.366 . S
C3051 C3050 1.366 . S
C3051 C3052 1.414 . S
C3051 C3054 1.499 . S
C3052 H3032 0.950 . S
C3052 C3051 1.414 . S
C3052 C3053 1.374 . S
C3053 H3033 0.950 . S
C3053 C3049 1.385 . S
C3053 C3052 1.374 . S
C3054 C3051 1.499 . S
C3054 C3055 1.373 . S
C3054 C3056 1.389 . S
C3055 H3034 0.950 . S
C3055 C3054 1.373 . S
C3055 C3071 1.377 . S
C3056 C3054 1.389 . S
C3056 C3057 1.524 . S
C3056 C3070 1.377 . S
C3057 C3056 1.524 . S
C3057 C3058 1.397 . S
C3057 C3062 1.363 . S
C3058 H3035 0.950 . S
C3058 C3057 1.397 . S
C3058 C3059 1.334 . S
C3059 H3036 0.950 . S
C3059 C3058 1.334 . S
C3059 C3060 1.287 . S
C3060 C3059 1.287 . S
C3060 C3061 1.524 . S
C3060 H3079 0.913 . S
C3061 H3037 0.950 . S
C3061 C3060 1.524 . S
C3061 C3062 1.415 . S
C3062 H3038 0.950 . S
C3062 C3057 1.363 . S
C3062 C3061 1.415 . S
C3063 H3039 0.951 . S
C3063 C3064 1.366 . S
C3063 C3065 1.388 . S
C3064 C3063 1.366 . S
C3064 C3068 1.385 . S
C3065 H3040 0.951 . S
C3065 C3063 1.388 . S
C3065 C3066 1.366 . S
C3066 C3065 1.366 . S
C3066 C3067 1.414 . S
C3066 C3069 1.499 . S
C3067 H3041 0.950 . S
C3067 C3066 1.414 . S
C3067 C3068 1.374 . S
C3068 H3042 0.950 . S
C3068 C3064 1.385 . S
C3068 C3067 1.374 . S
C3069 C3066 1.499 . S
C3069 C3070 1.373 . S
C3069 C3071 1.389 . S
C3070 H3043 0.950 . S
C3070 C3056 1.377 . S
C3070 C3069 1.373 . S
C3071 C3055 1.377 . S
C3071 C3069 1.389 . S
C3071 C3072 1.524 . S
C3072 C3071 1.524 . S
C3072 C3073 1.397 . S
C3072 C3077 1.363 . S
C3073 H3044 0.950 . S
C3073 C3072 1.397 . S
C3073 C3074 1.334 . S
C3074 H3045 0.950 . S
C3074 C3073 1.334 . S
C3074 C3075 1.287 . S
C3075 C3074 1.287 . S
C3075 C3076 1.524 . S
C3075 H3078 0.999 . S
C3076 H3046 0.950 . S
C3076 C3075 1.524 . S
C3076 C3077 1.415 . S
C3077 H3047 0.950 . S
C3077 C3072 1.363 . S
C3077 C3076 1.415 . S
H3078 C3075 0.999 . S
H3079 C3060 0.913 . S
H3080 C3098 0.951 . S
H3081 C3100 0.951 . S
H3082 C3102 0.950 . S
H3083 C3103 0.950 . S
H3084 C3105 0.950 . S
H3085 C3108 0.950 1_455 S
H3086 C3109 0.950 . S
H3087 C3111 0.950 . S
H3088 C3112 0.950 . S
H3089 C3113 0.951 . S
H3090 C3115 0.951 . S
H3091 C3117 0.950 . S
H3092 C3118 0.950 . S
H3093 C3120 0.950 . S
H3094 C3123 0.950 . S
H3095 C3124 0.950 . S
H3096 C3126 0.950 . S
H3097 C3127 0.950 . S
C3098 H3080 0.951 . S
C3098 C3099 1.366 . S
C3098 C3100 1.388 . S
C3099 C3098 1.366 . S
C3099 C3103 1.385 . S
C3100 H3081 0.951 . S
C3100 C3098 1.388 . S
C3100 C3101 1.366 . S
C3101 C3100 1.366 . S
C3101 C3102 1.414 . S
C3101 C3104 1.499 . S
C3102 H3082 0.950 . S
C3102 C3101 1.414 . S
C3102 C3103 1.374 . S
C3103 H3083 0.950 . S
C3103 C3099 1.385 . S
C3103 C3102 1.374 . S
C3104 C3101 1.499 . S
C3104 C3105 1.373 . S
C3104 C3106 1.389 . S
C3105 H3084 0.950 . S
C3105 C3104 1.373 . S
C3105 C3121 1.377 . S
C3106 C3104 1.389 . S
C3106 C3107 1.524 1_455 S
C3106 C3120 1.377 . S
C3107 C3106 1.524 1_655 S
C3107 C3108 1.397 . S
C3107 C3112 1.363 . S
C3108 H3085 0.950 1_655 S
C3108 C3107 1.397 . S
C3108 C3109 1.334 . S
C3109 H3086 0.950 . S
C3109 C3108 1.334 . S
C3109 C3110 1.287 . S
C3110 C3109 1.287 . S
C3110 C3111 1.524 . S
C3110 H3129 0.913 . S
C3111 H3087 0.950 . S
C3111 C3110 1.524 . S
C3111 C3112 1.415 . S
C3112 H3088 0.950 . S
C3112 C3107 1.363 . S
C3112 C3111 1.415 . S
C3113 H3089 0.951 . S
C3113 C3114 1.366 . S
C3113 C3115 1.388 . S
C3114 C3113 1.366 . S
C3114 C3118 1.385 . S
C3115 H3090 0.951 . S
C3115 C3113 1.388 . S
C3115 C3116 1.366 . S
C3116 C3115 1.366 . S
C3116 C3117 1.414 . S
C3116 C3119 1.499 . S
C3117 H3091 0.950 . S
C3117 C3116 1.414 . S
C3117 C3118 1.374 . S
C3118 H3092 0.950 . S
C3118 C3114 1.385 . S
C3118 C3117 1.374 . S
C3119 C3116 1.499 . S
C3119 C3120 1.373 . S
C3119 C3121 1.389 . S
C3120 H3093 0.950 . S
C3120 C3106 1.377 . S
C3120 C3119 1.373 . S
C3121 C3105 1.377 . S
C3121 C3119 1.389 . S
C3121 C3122 1.524 . S
C3122 C3121 1.524 . S
C3122 C3123 1.397 . S
C3122 C3127 1.363 . S
C3123 H3094 0.950 . S
C3123 C3122 1.397 . S
C3123 C3124 1.334 . S
C3124 H3095 0.950 . S
C3124 C3123 1.334 . S
C3124 C3125 1.287 . S
C3125 C3124 1.287 . S
C3125 C3126 1.524 . S
C3125 H3128 0.999 . S
C3126 H3096 0.950 . S
C3126 C3125 1.524 . S
C3126 C3127 1.415 . S
C3127 H3097 0.950 . S
C3127 C3122 1.363 . S
C3127 C3126 1.415 . S
H3128 C3125 0.999 . S
H3129 C3110 0.913 . S
H3130 C3148 0.951 . S
H3131 C3150 0.951 . S
H3132 C3152 0.950 . S
H3133 C3153 0.950 . S
H3134 C3155 0.950 . S
H3135 C3158 0.950 . S
H3136 C3159 0.950 . S
H3137 C3161 0.950 . S
H3138 C3162 0.950 . S
H3139 C3163 0.951 . S
H3140 C3165 0.951 . S
H3141 C3167 0.950 . S
H3142 C3168 0.950 . S
H3143 C3170 0.950 . S
H3144 C3173 0.950 . S
H3145 C3174 0.950 . S
H3146 C3176 0.950 . S
H3147 C3177 0.950 . S
C3148 H3130 0.951 . S
C3148 C3149 1.366 . S
C3148 C3150 1.388 . S
C3149 C3148 1.366 . S
C3149 C3153 1.385 . S
C3150 H3131 0.951 . S
C3150 C3148 1.388 . S
C3150 C3151 1.366 . S
C3151 C3150 1.366 . S
C3151 C3152 1.414 . S
C3151 C3154 1.499 . S
C3152 H3132 0.950 . S
C3152 C3151 1.414 . S
C3152 C3153 1.374 . S
C3153 H3133 0.950 . S
C3153 C3149 1.385 . S
C3153 C3152 1.374 . S
C3154 C3151 1.499 . S
C3154 C3155 1.373 . S
C3154 C3156 1.389 . S
C3155 H3134 0.950 . S
C3155 C3154 1.373 . S
C3155 C3171 1.377 . S
C3156 C3154 1.389 . S
C3156 C3157 1.524 . S
C3156 C3170 1.377 . S
C3157 C3156 1.524 . S
C3157 C3158 1.397 . S
C3157 C3162 1.363 . S
C3158 H3135 0.950 . S
C3158 C3157 1.397 . S
C3158 C3159 1.334 . S
C3159 H3136 0.950 . S
C3159 C3158 1.334 . S
C3159 C3160 1.287 . S
C3160 C3159 1.287 . S
C3160 C3161 1.524 . S
C3160 H3179 0.913 . S
C3161 H3137 0.950 . S
C3161 C3160 1.524 . S
C3161 C3162 1.415 . S
C3162 H3138 0.950 . S
C3162 C3157 1.363 . S
C3162 C3161 1.415 . S
C3163 H3139 0.951 . S
C3163 C3164 1.366 . S
C3163 C3165 1.388 . S
C3164 C3163 1.366 . S
C3164 C3168 1.385 . S
C3165 H3140 0.951 . S
C3165 C3163 1.388 . S
C3165 C3166 1.366 . S
C3166 C3165 1.366 . S
C3166 C3167 1.414 . S
C3166 C3169 1.499 . S
C3167 H3141 0.950 . S
C3167 C3166 1.414 . S
C3167 C3168 1.374 . S
C3168 H3142 0.950 . S
C3168 C3164 1.385 . S
C3168 C3167 1.374 . S
C3169 C3166 1.499 . S
C3169 C3170 1.373 . S
C3169 C3171 1.389 . S
C3170 H3143 0.950 . S
C3170 C3156 1.377 . S
C3170 C3169 1.373 . S
C3171 C3155 1.377 . S
C3171 C3169 1.389 . S
C3171 C3172 1.524 . S
C3172 C3171 1.524 . S
C3172 C3173 1.397 . S
C3172 C3177 1.363 . S
C3173 H3144 0.950 . S
C3173 C3172 1.397 . S
C3173 C3174 1.334 . S
C3174 H3145 0.950 . S
C3174 C3173 1.334 . S
C3174 C3175 1.287 . S
C3175 C3174 1.287 . S
C3175 C3176 1.524 . S
C3175 H3178 0.999 . S
C3176 H3146 0.950 . S
C3176 C3175 1.524 . S
C3176 C3177 1.415 . S
C3177 H3147 0.950 . S
C3177 C3172 1.363 . S
C3177 C3176 1.415 . S
H3178 C3175 0.999 . S
H3179 C3160 0.913 . S
H3180 C3198 0.951 . S
H3181 C3200 0.951 . S
H3182 C3202 0.950 . S
H3183 C3203 0.950 . S
H3184 C3205 0.950 . S
H3185 C3208 0.950 . S
H3186 C3209 0.950 . S
H3187 C3211 0.950 . S
H3188 C3212 0.950 . S
H3189 C3213 0.951 . S
H3190 C3215 0.951 . S
H3191 C3217 0.950 . S
H3192 C3218 0.950 1_554 S
H3193 C3220 0.950 . S
H3194 C3223 0.950 . S
H3195 C3224 0.950 . S
H3196 C3226 0.950 . S
H3197 C3227 0.950 . S
C3198 H3180 0.951 . S
C3198 C3199 1.366 . S
C3198 C3200 1.388 . S
C3199 C3198 1.366 . S
C3199 C3203 1.385 . S
C3200 H3181 0.951 . S
C3200 C3198 1.388 . S
C3200 C3201 1.366 . S
C3201 C3200 1.366 . S
C3201 C3202 1.414 . S
C3201 C3204 1.499 . S
C3202 H3182 0.950 . S
C3202 C3201 1.414 . S
C3202 C3203 1.374 . S
C3203 H3183 0.950 . S
C3203 C3199 1.385 . S
C3203 C3202 1.374 . S
C3204 C3201 1.499 . S
C3204 C3205 1.373 . S
C3204 C3206 1.389 . S
C3205 H3184 0.950 . S
C3205 C3204 1.373 . S
C3205 C3221 1.377 . S
C3206 C3204 1.389 . S
C3206 C3207 1.524 . S
C3206 C3220 1.377 . S
C3207 C3206 1.524 . S
C3207 C3208 1.397 . S
C3207 C3212 1.363 . S
C3208 H3185 0.950 . S
C3208 C3207 1.397 . S
C3208 C3209 1.334 . S
C3209 H3186 0.950 . S
C3209 C3208 1.334 . S
C3209 C3210 1.287 . S
C3210 C3209 1.287 . S
C3210 C3211 1.524 . S
C3210 H3229 0.913 . S
C3211 H3187 0.950 . S
C3211 C3210 1.524 . S
C3211 C3212 1.415 . S
C3212 H3188 0.950 . S
C3212 C3207 1.363 . S
C3212 C3211 1.415 . S
C3213 H3189 0.951 . S
C3213 C3214 1.366 . S
C3213 C3215 1.388 . S
C3214 C3213 1.366 . S
C3214 C3218 1.385 . S
C3215 H3190 0.951 . S
C3215 C3213 1.388 . S
C3215 C3216 1.366 . S
C3216 C3215 1.366 . S
C3216 C3217 1.414 . S
C3216 C3219 1.499 . S
C3217 H3191 0.950 . S
C3217 C3216 1.414 . S
C3217 C3218 1.374 . S
C3218 H3192 0.950 1_556 S
C3218 C3214 1.385 . S
C3218 C3217 1.374 . S
C3219 C3216 1.499 . S
C3219 C3220 1.373 . S
C3219 C3221 1.389 . S
C3220 H3193 0.950 . S
C3220 C3206 1.377 . S
C3220 C3219 1.373 . S
C3221 C3205 1.377 . S
C3221 C3219 1.389 . S
C3221 C3222 1.524 . S
C3222 C3221 1.524 . S
C3222 C3223 1.397 . S
C3222 C3227 1.363 . S
C3223 H3194 0.950 . S
C3223 C3222 1.397 . S
C3223 C3224 1.334 . S
C3224 H3195 0.950 . S
C3224 C3223 1.334 . S
C3224 C3225 1.287 . S
C3225 C3224 1.287 . S
C3225 C3226 1.524 . S
C3225 H3228 0.999 . S
C3226 H3196 0.950 . S
C3226 C3225 1.524 . S
C3226 C3227 1.415 . S
C3227 H3197 0.950 . S
C3227 C3222 1.363 . S
C3227 C3226 1.415 . S
H3228 C3225 0.999 . S
H3229 C3210 0.913 . S
H3230 C3248 0.951 . S
H3231 C3250 0.951 . S
H3232 C3252 0.950 . S
H3233 C3253 0.950 . S
H3234 C3255 0.950 . S
H3235 C3258 0.950 . S
H3236 C3259 0.950 . S
H3237 C3261 0.950 . S
H3238 C3262 0.950 . S
H3239 C3263 0.951 . S
H3240 C3265 0.951 . S
H3241 C3267 0.950 . S
H3242 C3268 0.950 . S
H3243 C3270 0.950 . S
H3244 C3273 0.950 . S
H3245 C3274 0.950 . S
H3246 C3276 0.950 . S
H3247 C3277 0.950 . S
C3248 H3230 0.951 . S
C3248 C3249 1.366 . S
C3248 C3250 1.388 . S
C3249 C3248 1.366 . S
C3249 C3253 1.385 . S
C3250 H3231 0.951 . S
C3250 C3248 1.388 . S
C3250 C3251 1.366 . S
C3251 C3250 1.366 . S
C3251 C3252 1.414 . S
C3251 C3254 1.499 . S
C3252 H3232 0.950 . S
C3252 C3251 1.414 . S
C3252 C3253 1.374 . S
C3253 H3233 0.950 . S
C3253 C3249 1.385 . S
C3253 C3252 1.374 . S
C3254 C3251 1.499 . S
C3254 C3255 1.373 . S
C3254 C3256 1.389 . S
C3255 H3234 0.950 . S
C3255 C3254 1.373 . S
C3255 C3271 1.377 . S
C3256 C3254 1.389 . S
C3256 C3257 1.524 . S
C3256 C3270 1.377 . S
C3257 C3256 1.524 . S
C3257 C3258 1.397 . S
C3257 C3262 1.363 . S
C3258 H3235 0.950 . S
C3258 C3257 1.397 . S
C3258 C3259 1.334 . S
C3259 H3236 0.950 . S
C3259 C3258 1.334 . S
C3259 C3260 1.287 . S
C3260 C3259 1.287 . S
C3260 C3261 1.524 . S
C3260 H3279 0.913 . S
C3261 H3237 0.950 . S
C3261 C3260 1.524 . S
C3261 C3262 1.415 . S
C3262 H3238 0.950 . S
C3262 C3257 1.363 . S
C3262 C3261 1.415 . S
C3263 H3239 0.951 . S
C3263 C3264 1.366 . S
C3263 C3265 1.388 . S
C3264 C3263 1.366 . S
C3264 C3268 1.385 . S
C3265 H3240 0.951 . S
C3265 C3263 1.388 . S
C3265 C3266 1.366 . S
C3266 C3265 1.366 . S
C3266 C3267 1.414 . S
C3266 C3269 1.499 . S
C3267 H3241 0.950 . S
C3267 C3266 1.414 . S
C3267 C3268 1.374 . S
C3268 H3242 0.950 . S
C3268 C3264 1.385 . S
C3268 C3267 1.374 . S
C3269 C3266 1.499 . S
C3269 C3270 1.373 . S
C3269 C3271 1.389 . S
C3270 H3243 0.950 . S
C3270 C3256 1.377 . S
C3270 C3269 1.373 . S
C3271 C3255 1.377 . S
C3271 C3269 1.389 . S
C3271 C3272 1.524 . S
C3272 C3271 1.524 . S
C3272 C3273 1.397 . S
C3272 C3277 1.363 . S
C3273 H3244 0.950 . S
C3273 C3272 1.397 . S
C3273 C3274 1.334 . S
C3274 H3245 0.950 . S
C3274 C3273 1.334 . S
C3274 C3275 1.287 . S
C3275 C3274 1.287 . S
C3275 C3276 1.524 . S
C3275 H3278 0.999 . S
C3276 H3246 0.950 . S
C3276 C3275 1.524 . S
C3276 C3277 1.415 . S
C3277 H3247 0.950 . S
C3277 C3272 1.363 . S
C3277 C3276 1.415 . S
H3278 C3275 0.999 . S
H3279 C3260 0.913 . S
H3280 C3298 0.951 . S
H3281 C3300 0.951 . S
H3282 C3302 0.950 . S
H3283 C3303 0.950 . S
H3284 C3305 0.900 1_565 S
H3285 C3308 0.950 . S
H3286 C3309 0.950 . S
H3287 C3311 0.950 . S
H3288 C3312 0.950 . S
H3289 C3313 0.993 . S
H3290 C3315 0.951 . S
H3291 C3317 0.950 . S
H3292 C3318 0.950 . S
H3293 C3320 0.950 . S
H3294 C3323 0.950 . S
H3295 C3324 0.950 . S
H3296 C3326 0.950 . S
H3297 C3327 0.950 . S
C3298 H3280 0.951 . S
C3298 C3299 1.366 . S
C3298 C3300 1.388 . S
C3299 C3298 1.366 . S
C3299 C3303 1.385 . S
C3300 H3281 0.951 . S
C3300 C3298 1.388 . S
C3300 C3301 1.366 . S
C3301 C3300 1.366 . S
C3301 C3302 1.414 . S
C3301 C3304 1.499 . S
C3302 H3282 0.950 . S
C3302 C3301 1.414 . S
C3302 C3303 1.374 . S
C3303 H3283 0.950 . S
C3303 C3299 1.385 . S
C3303 C3302 1.374 . S
C3304 C3301 1.499 . S
C3304 C3305 1.373 . S
C3304 C3306 1.389 . S
C3305 H3284 0.900 1_545 S
C3305 C3304 1.373 . S
C3305 C3321 1.377 . S
C3306 C3304 1.389 . S
C3306 C3307 1.524 . S
C3306 C3320 1.377 . S
C3307 C3306 1.524 . S
C3307 C3308 1.397 . S
C3307 C3312 1.363 . S
C3308 H3285 0.950 . S
C3308 C3307 1.397 . S
C3308 C3309 1.334 . S
C3309 H3286 0.950 . S
C3309 C3308 1.334 . S
C3309 C3310 1.287 . S
C3310 C3309 1.287 . S
C3310 C3311 1.524 . S
C3310 H3329 0.913 . S
C3311 H3287 0.950 . S
C3311 C3310 1.524 . S
C3311 C3312 1.415 . S
C3312 H3288 0.950 . S
C3312 C3307 1.363 . S
C3312 C3311 1.415 . S
C3313 H3289 0.993 . S
C3313 C3314 1.366 . S
C3313 C3315 1.388 . S
C3314 C3313 1.366 . S
C3314 C3318 1.385 . S
C3315 H3290 0.951 . S
C3315 C3313 1.388 . S
C3315 C3316 1.366 . S
C3316 C3315 1.366 . S
C3316 C3317 1.414 . S
C3316 C3319 1.499 . S
C3317 H3291 0.950 . S
C3317 C3316 1.414 . S
C3317 C3318 1.374 . S
C3318 H3292 0.950 . S
C3318 C3314 1.385 . S
C3318 C3317 1.374 . S
C3319 C3316 1.499 . S
C3319 C3320 1.373 . S
C3319 C3321 1.389 . S
C3320 H3293 0.950 . S
C3320 C3306 1.377 . S
C3320 C3319 1.373 . S
C3321 C3305 1.377 . S
C3321 C3319 1.389 . S
C3321 C3322 1.524 1_545 S
C3322 C3321 1.524 1_565 S
C3322 C3323 1.397 . S
C3322 C3327 1.363 . S
C3323 H3294 0.950 . S
C3323 C3322 1.397 . S
C3323 C3324 1.334 . S
C3324 H3295 0.950 . S
C3324 C3323 1.334 . S
C3324 C3325 1.287 . S
C3325 C3324 1.287 . S
C3325 C3326 1.524 . S
C3325 H3328 0.999 . S
C3326 H3296 0.950 . S
C3326 C3325 1.524 . S
C3326 C3327 1.415 . S
C3327 H3297 0.950 . S
C3327 C3322 1.363 . S
C3327 C3326 1.415 . S
H3328 C3325 0.999 . S
H3329 C3310 0.913 . S
H3330 C3348 0.951 . S
H3331 C3350 0.951 . S
H3332 C3352 0.950 . S
H3333 C3353 0.950 . S
H3334 C3355 0.950 . S
H3335 C3358 0.950 . S
H3336 C3359 0.950 . S
H3337 C3361 0.950 . S
H3338 C3362 0.950 . S
H3339 C3363 0.951 . S
H3340 C3365 0.951 . S
H3341 C3367 0.950 . S
H3342 C3368 0.950 . S
H3343 C3370 0.950 . S
H3344 C3373 0.950 . S
H3345 C3374 0.950 . S
H3346 C3376 0.950 . S
H3347 C3377 0.950 . S
C3348 H3330 0.951 . S
C3348 C3349 1.366 . S
C3348 C3350 1.388 . S
C3349 C3348 1.366 . S
C3349 C3353 1.385 . S
C3350 H3331 0.951 . S
C3350 C3348 1.388 . S
C3350 C3351 1.366 . S
C3351 C3350 1.366 . S
C3351 C3352 1.414 . S
C3351 C3354 1.499 . S
C3352 H3332 0.950 . S
C3352 C3351 1.414 . S
C3352 C3353 1.374 . S
C3353 H3333 0.950 . S
C3353 C3349 1.385 . S
C3353 C3352 1.374 . S
C3354 C3351 1.499 . S
C3354 C3355 1.373 . S
C3354 C3356 1.389 . S
C3355 H3334 0.950 . S
C3355 C3354 1.373 . S
C3355 C3371 1.377 . S
C3356 C3354 1.389 . S
C3356 C3357 1.524 . S
C3356 C3370 1.377 . S
C3357 C3356 1.524 . S
C3357 C3358 1.397 . S
C3357 C3362 1.363 . S
C3358 H3335 0.950 . S
C3358 C3357 1.397 . S
C3358 C3359 1.334 . S
C3359 H3336 0.950 . S
C3359 C3358 1.334 . S
C3359 C3360 1.287 . S
C3360 C3359 1.287 . S
C3360 C3361 1.524 . S
C3360 H3379 0.913 . S
C3361 H3337 0.950 . S
C3361 C3360 1.524 . S
C3361 C3362 1.415 . S
C3362 H3338 0.950 . S
C3362 C3357 1.363 . S
C3362 C3361 1.415 . S
C3363 H3339 0.951 . S
C3363 C3364 1.366 . S
C3363 C3365 1.388 . S
C3364 C3363 1.366 . S
C3364 C3368 1.385 . S
C3365 H3340 0.951 . S
C3365 C3363 1.388 . S
C3365 C3366 1.366 . S
C3366 C3365 1.366 . S
C3366 C3367 1.414 . S
C3366 C3369 1.499 . S
C3367 H3341 0.950 . S
C3367 C3366 1.414 . S
C3367 C3368 1.374 . S
C3368 H3342 0.950 . S
C3368 C3364 1.385 . S
C3368 C3367 1.374 . S
C3369 C3366 1.499 . S
C3369 C3370 1.373 . S
C3369 C3371 1.389 . S
C3370 H3343 0.950 . S
C3370 C3356 1.377 . S
C3370 C3369 1.373 . S
C3371 C3355 1.377 . S
C3371 C3369 1.389 . S
C3371 C3372 1.524 . S
C3372 C3371 1.524 . S
C3372 C3373 1.397 . S
C3372 C3377 1.363 . S
C3373 H3344 0.950 . S
C3373 C3372 1.397 . S
C3373 C3374 1.334 . S
C3374 H3345 0.950 . S
C3374 C3373 1.334 . S
C3374 C3375 1.287 . S
C3375 C3374 1.287 . S
C3375 C3376 1.524 . S
C3375 H3378 0.999 . S
C3376 H3346 0.950 . S
C3376 C3375 1.524 . S
C3376 C3377 1.415 . S
C3377 H3347 0.950 . S
C3377 C3372 1.363 . S
C3377 C3376 1.415 . S
H3378 C3375 0.999 . S
H3379 C3360 0.913 . S
H3380 C3398 0.951 . S
H3381 C3400 0.951 . S
H3382 C3402 0.950 . S
H3383 C3403 0.950 . S
H3384 C3405 0.940 1_565 S
H3385 C3408 0.950 . S
H3386 C3409 0.950 . S
H3387 C3411 0.950 . S
H3388 C3412 0.950 . S
H3389 C3413 0.951 . S
H3390 C3415 0.951 . S
H3391 C3417 0.950 . S
H3392 C3418 0.950 . S
H3393 C3420 0.950 . S
H3394 C3423 0.950 . S
H3395 C3424 0.950 . S
H3396 C3426 0.950 . S
H3397 C3427 0.950 . S
C3398 H3380 0.951 . S
C3398 C3399 1.366 . S
C3398 C3400 1.388 . S
C3399 C3398 1.366 . S
C3399 C3403 1.385 . S
C3400 H3381 0.951 . S
C3400 C3398 1.388 . S
C3400 C3401 1.366 . S
C3401 C3400 1.366 . S
C3401 C3402 1.414 . S
C3401 C3404 1.499 . S
C3402 H3382 0.950 . S
C3402 C3401 1.414 . S
C3402 C3403 1.374 . S
C3403 H3383 0.950 . S
C3403 C3399 1.385 . S
C3403 C3402 1.374 . S
C3404 C3401 1.499 . S
C3404 C3405 1.386 . S
C3404 C3406 1.389 . S
C3405 H3384 0.940 1_545 S
C3405 C3404 1.386 . S
C3405 C3421 1.383 . S
C3406 C3404 1.389 . S
C3406 C3407 1.524 . S
C3406 C3420 1.377 . S
C3407 C3406 1.524 . S
C3407 C3408 1.397 . S
C3407 C3412 1.363 . S
C3408 H3385 0.950 . S
C3408 C3407 1.397 . S
C3408 C3409 1.334 . S
C3409 H3386 0.950 . S
C3409 C3408 1.334 . S
C3409 C3410 1.287 . S
C3410 C3409 1.287 . S
C3410 C3411 1.524 . S
C3410 H3429 0.913 . S
C3411 H3387 0.950 . S
C3411 C3410 1.524 . S
C3411 C3412 1.415 . S
C3412 H3388 0.950 . S
C3412 C3407 1.363 . S
C3412 C3411 1.415 . S
C3413 H3389 0.951 . S
C3413 C3414 1.366 . S
C3413 C3415 1.388 . S
C3414 C3413 1.366 . S
C3414 C3418 1.385 . S
C3415 H3390 0.951 . S
C3415 C3413 1.388 . S
C3415 C3416 1.366 . S
C3416 C3415 1.366 . S
C3416 C3417 1.414 . S
C3416 C3419 1.499 . S
C3417 H3391 0.950 . S
C3417 C3416 1.414 . S
C3417 C3418 1.374 . S
C3418 H3392 0.950 . S
C3418 C3414 1.385 . S
C3418 C3417 1.374 . S
C3419 C3416 1.499 . S
C3419 C3420 1.373 . S
C3419 C3421 1.420 . S
C3420 H3393 0.950 . S
C3420 C3406 1.377 . S
C3420 C3419 1.373 . S
C3421 C3405 1.383 . S
C3421 C3419 1.420 . S
C3421 C3422 1.483 1_545 S
C3422 C3421 1.483 1_565 S
C3422 C3423 1.397 . S
C3422 C3427 1.363 . S
C3423 H3394 0.950 . S
C3423 C3422 1.397 . S
C3423 C3424 1.334 . S
C3424 H3395 0.950 . S
C3424 C3423 1.334 . S
C3424 C3425 1.287 . S
C3425 C3424 1.287 . S
C3425 C3426 1.524 . S
C3425 H3428 0.999 . S
C3426 H3396 0.950 . S
C3426 C3425 1.524 . S
C3426 C3427 1.415 . S
C3427 H3397 0.950 . S
C3427 C3422 1.363 . S
C3427 C3426 1.415 . S
H3428 C3425 0.999 . S
H3429 C3410 0.913 . S
H3430 C3448 0.951 . S
H3431 C3450 0.951 . S
H3432 C3452 0.950 . S
H3433 C3453 0.950 . S
H3434 C3455 0.950 . S
H3435 C3458 0.950 . S
H3436 C3459 0.950 . S
H3437 C3461 0.950 . S
H3438 C3462 0.950 . S
H3439 C3463 0.951 . S
H3440 C3465 0.951 . S
H3441 C3467 0.950 . S
H3442 C3468 0.950 . S
H3443 C3470 0.950 . S
H3444 C3473 0.950 . S
H3445 C3474 0.950 . S
H3446 C3476 0.950 . S
H3447 C3477 0.950 . S
C3448 H3430 0.951 . S
C3448 C3449 1.366 . S
C3448 C3450 1.388 . S
C3449 C3448 1.366 . S
C3449 C3453 1.385 . S
C3450 H3431 0.951 . S
C3450 C3448 1.388 . S
C3450 C3451 1.366 . S
C3451 C3450 1.366 . S
C3451 C3452 1.414 . S
C3451 C3454 1.499 . S
C3452 H3432 0.950 . S
C3452 C3451 1.414 . S
C3452 C3453 1.374 . S
C3453 H3433 0.950 . S
C3453 C3449 1.385 . S
C3453 C3452 1.374 . S
C3454 C3451 1.499 . S
C3454 C3455 1.373 . S
C3454 C3456 1.389 . S
C3455 H3434 0.950 . S
C3455 C3454 1.373 . S
C3455 C3471 1.377 . S
C3456 C3454 1.389 . S
C3456 C3457 1.524 . S
C3456 C3470 1.377 . S
C3457 C3456 1.524 . S
C3457 C3458 1.397 . S
C3457 C3462 1.363 . S
C3458 H3435 0.950 . S
C3458 C3457 1.397 . S
C3458 C3459 1.334 . S
C3459 H3436 0.950 . S
C3459 C3458 1.334 . S
C3459 C3460 1.287 . S
C3460 C3459 1.287 . S
C3460 C3461 1.524 . S
C3460 H3479 0.913 . S
C3461 H3437 0.950 . S
C3461 C3460 1.524 . S
C3461 C3462 1.415 . S
C3462 H3438 0.950 . S
C3462 C3457 1.363 . S
C3462 C3461 1.415 . S
C3463 H3439 0.951 . S
C3463 C3464 1.366 . S
C3463 C3465 1.388 . S
C3464 C3463 1.366 . S
C3464 C3468 1.385 . S
C3465 H3440 0.951 . S
C3465 C3463 1.388 . S
C3465 C3466 1.366 . S
C3466 C3465 1.366 . S
C3466 C3467 1.414 . S
C3466 C3469 1.499 . S
C3467 H3441 0.950 . S
C3467 C3466 1.414 . S
C3467 C3468 1.374 . S
C3468 H3442 0.950 . S
C3468 C3464 1.385 . S
C3468 C3467 1.374 . S
C3469 C3466 1.499 . S
C3469 C3470 1.373 . S
C3469 C3471 1.389 . S
C3470 H3443 0.950 . S
C3470 C3456 1.377 . S
C3470 C3469 1.373 . S
C3471 C3455 1.377 . S
C3471 C3469 1.389 . S
C3471 C3472 1.524 . S
C3472 C3471 1.524 . S
C3472 C3473 1.397 . S
C3472 C3477 1.363 . S
C3473 H3444 0.950 . S
C3473 C3472 1.397 . S
C3473 C3474 1.334 . S
C3474 H3445 0.950 . S
C3474 C3473 1.334 . S
C3474 C3475 1.287 . S
C3475 C3474 1.287 . S
C3475 C3476 1.524 . S
C3475 H3478 0.999 . S
C3476 H3446 0.950 . S
C3476 C3475 1.524 . S
C3476 C3477 1.415 . S
C3477 H3447 0.950 . S
C3477 C3472 1.363 . S
C3477 C3476 1.415 . S
H3478 C3475 0.999 . S
H3479 C3460 0.913 . S
H3480 C3498 0.951 . S
H3481 C3500 0.951 . S
H3482 C3502 0.950 . S
H3483 C3503 0.950 . S
H3484 C3505 0.950 . S
H3485 C3508 0.950 . S
H3486 C3509 0.950 . S
H3487 C3511 0.950 . S
H3488 C3512 0.950 . S
H3489 C3513 0.951 . S
H3490 C3515 0.951 . S
H3491 C3517 0.950 . S
H3492 C3518 0.950 . S
H3493 C3520 0.950 . S
H3494 C3523 0.950 . S
H3495 C3524 0.950 . S
H3496 C3526 0.950 1_655 S
H3497 C3527 0.950 . S
C3498 H3480 0.951 . S
C3498 C3499 1.366 . S
C3498 C3500 1.388 . S
C3499 C3498 1.366 . S
C3499 C3503 1.385 . S
C3500 H3481 0.951 . S
C3500 C3498 1.388 . S
C3500 C3501 1.366 . S
C3501 C3500 1.366 . S
C3501 C3502 1.414 . S
C3501 C3504 1.499 . S
C3502 H3482 0.950 . S
C3502 C3501 1.414 . S
C3502 C3503 1.374 . S
C3503 H3483 0.950 . S
C3503 C3499 1.385 . S
C3503 C3502 1.374 . S
C3504 C3501 1.499 . S
C3504 C3505 1.373 . S
C3504 C3506 1.389 . S
C3505 H3484 0.950 . S
C3505 C3504 1.373 . S
C3505 C3521 1.377 . S
C3506 C3504 1.389 . S
C3506 C3507 1.524 . S
C3506 C3520 1.377 . S
C3507 C3506 1.524 . S
C3507 C3508 1.397 . S
C3507 C3512 1.363 . S
C3508 H3485 0.950 . S
C3508 C3507 1.397 . S
C3508 C3509 1.334 . S
C3509 H3486 0.950 . S
C3509 C3508 1.334 . S
C3509 C3510 1.287 . S
C3510 C3509 1.287 . S
C3510 C3511 1.524 . S
C3510 H3529 0.913 . S
C3511 H3487 0.950 . S
C3511 C3510 1.524 . S
C3511 C3512 1.415 . S
C3512 H3488 0.950 . S
C3512 C3507 1.363 . S
C3512 C3511 1.415 . S
C3513 H3489 0.951 . S
C3513 C3514 1.366 . S
C3513 C3515 1.388 . S
C3514 C3513 1.366 . S
C3514 C3518 1.385 . S
C3515 H3490 0.951 . S
C3515 C3513 1.388 . S
C3515 C3516 1.366 . S
C3516 C3515 1.366 . S
C3516 C3517 1.414 . S
C3516 C3519 1.499 . S
C3517 H3491 0.950 . S
C3517 C3516 1.414 . S
C3517 C3518 1.374 . S
C3518 H3492 0.950 . S
C3518 C3514 1.385 . S
C3518 C3517 1.374 . S
C3519 C3516 1.499 . S
C3519 C3520 1.373 . S
C3519 C3521 1.389 . S
C3520 H3493 0.950 . S
C3520 C3506 1.377 . S
C3520 C3519 1.373 . S
C3521 C3505 1.377 . S
C3521 C3519 1.389 . S
C3521 C3522 1.524 . S
C3522 C3521 1.524 . S
C3522 C3523 1.397 1_545 S
C3522 C3527 1.363 . S
C3523 H3494 0.950 . S
C3523 C3522 1.397 1_565 S
C3523 C3524 1.334 . S
C3524 H3495 0.950 . S
C3524 C3523 1.334 . S
C3524 C3525 1.287 1_455 S
C3525 C3524 1.287 1_655 S
C3525 C3526 1.524 1_665 S
C3525 H3528 0.999 . S
C3526 H3496 0.950 1_455 S
C3526 C3525 1.524 1_445 S
C3526 C3527 1.415 . S
C3527 H3497 0.950 . S
C3527 C3522 1.363 . S
C3527 C3526 1.415 . S
H3528 C3525 0.999 . S
H3529 C3510 0.913 . S
H3530 C3548 0.951 . S
H3531 C3550 0.951 . S
H3532 C3552 0.950 . S
H3533 C3553 0.950 . S
H3534 C3555 0.950 . S
H3535 C3558 0.950 . S
H3536 C3559 0.950 . S
H3537 C3561 0.950 . S
H3538 C3562 0.950 . S
H3539 C3563 0.951 . S
H3540 C3565 0.951 . S
H3541 C3567 0.950 . S
H3542 C3568 0.950 . S
H3543 C3570 0.950 . S
H3544 C3573 0.950 . S
H3545 C3574 0.950 . S
H3546 C3576 0.950 . S
H3547 C3577 0.950 . S
C3548 H3530 0.951 . S
C3548 C3549 1.366 . S
C3548 C3550 1.388 . S
C3549 C3548 1.366 . S
C3549 C3553 1.385 . S
C3550 H3531 0.951 . S
C3550 C3548 1.388 . S
C3550 C3551 1.366 . S
C3551 C3550 1.366 . S
C3551 C3552 1.414 . S
C3551 C3554 1.499 . S
C3552 H3532 0.950 . S
C3552 C3551 1.414 . S
C3552 C3553 1.374 . S
C3553 H3533 0.950 . S
C3553 C3549 1.385 . S
C3553 C3552 1.374 . S
C3554 C3551 1.499 . S
C3554 C3555 1.373 . S
C3554 C3556 1.389 . S
C3555 H3534 0.950 . S
C3555 C3554 1.373 . S
C3555 C3571 1.377 . S
C3556 C3554 1.389 . S
C3556 C3557 1.524 . S
C3556 C3570 1.377 . S
C3557 C3556 1.524 . S
C3557 C3558 1.397 . S
C3557 C3562 1.363 . S
C3558 H3535 0.950 . S
C3558 C3557 1.397 . S
C3558 C3559 1.334 . S
C3559 H3536 0.950 . S
C3559 C3558 1.334 . S
C3559 C3560 1.287 . S
C3560 C3559 1.287 . S
C3560 C3561 1.524 . S
C3560 H3579 0.913 . S
C3561 H3537 0.950 . S
C3561 C3560 1.524 . S
C3561 C3562 1.415 . S
C3562 H3538 0.950 . S
C3562 C3557 1.363 . S
C3562 C3561 1.415 . S
C3563 H3539 0.951 . S
C3563 C3564 1.366 . S
C3563 C3565 1.388 . S
C3564 C3563 1.366 . S
C3564 C3568 1.385 . S
C3565 H3540 0.951 . S
C3565 C3563 1.388 . S
C3565 C3566 1.366 . S
C3566 C3565 1.366 . S
C3566 C3567 1.414 . S
C3566 C3569 1.499 . S
C3567 H3541 0.950 . S
C3567 C3566 1.414 . S
C3567 C3568 1.374 . S
C3568 H3542 0.950 . S
C3568 C3564 1.385 . S
C3568 C3567 1.374 . S
C3569 C3566 1.499 . S
C3569 C3570 1.373 . S
C3569 C3571 1.389 . S
C3570 H3543 0.950 . S
C3570 C3556 1.377 . S
C3570 C3569 1.373 . S
C3571 C3555 1.377 . S
C3571 C3569 1.389 . S
C3571 C3572 1.524 . S
C3572 C3571 1.524 . S
C3572 C3573 1.397 . S
C3572 C3577 1.363 . S
C3573 H3544 0.950 . S
C3573 C3572 1.397 . S
C3573 C3574 1.334 . S
C3574 H3545 0.950 . S
C3574 C3573 1.334 . S
C3574 C3575 1.287 . S
C3575 C3574 1.287 . S
C3575 C3576 1.524 . S
C3575 H3578 0.999 . S
C3576 H3546 0.950 . S
C3576 C3575 1.524 . S
C3576 C3577 1.415 . S
C3577 H3547 0.950 . S
C3577 C3572 1.363 . S
C3577 C3576 1.415 . S
H3578 C3575 0.999 . S
H3579 C3560 0.913 . S
H3580 C3598 0.951 . S
H3581 C3600 0.951 . S
H3582 C3602 0.950 . S
H3583 C3603 0.950 . S
H3584 C3605 0.963 . S
H3585 C3608 0.950 1_565 S
H3586 C3609 0.950 1_565 S
H3587 C3611 0.950 . S
H3588 C3612 0.950 . S
H3589 C3613 0.951 . S
H3590 C3615 0.951 . S
H3591 C3617 0.950 . S
H3592 C3618 0.950 . S
H3593 C3620 0.950 . S
H3594 C3623 0.950 . S
H3595 C3624 0.950 . S
H3596 C3626 0.950 . S
H3597 C3627 0.950 . S
C3598 H3580 0.951 . S
C3598 C3599 1.366 . S
C3598 C3600 1.388 . S
C3599 C3598 1.366 . S
C3599 C3603 1.385 1_545 S
C3600 H3581 0.951 . S
C3600 C3598 1.388 . S
C3600 C3601 1.366 . S
C3601 C3600 1.366 . S
C3601 C3602 1.414 1_545 S
C3601 C3604 1.499 . S
C3602 H3582 0.950 . S
C3602 C3601 1.414 1_565 S
C3602 C3603 1.374 . S
C3603 H3583 0.950 . S
C3603 C3599 1.385 1_565 S
C3603 C3602 1.374 . S
C3604 C3601 1.499 . S
C3604 C3605 1.373 . S
C3604 C3606 1.389 . S
C3605 H3584 0.963 . S
C3605 C3604 1.373 . S
C3605 C3621 1.377 . S
C3606 C3604 1.389 . S
C3606 C3607 1.524 . S
C3606 C3620 1.377 . S
C3607 C3606 1.524 . S
C3607 C3608 1.397 . S
C3607 C3612 1.363 . S
C3608 H3585 0.950 1_545 S
C3608 C3607 1.397 . S
C3608 C3609 1.334 . S
C3609 H3586 0.950 1_545 S
C3609 C3608 1.334 . S
C3609 C3610 1.287 . S
C3610 C3609 1.287 . S
C3610 C3611 1.524 . S
C3610 H3629 0.913 . S
C3611 H3587 0.950 . S
C3611 C3610 1.524 . S
C3611 C3612 1.415 . S
C3612 H3588 0.950 . S
C3612 C3607 1.363 . S
C3612 C3611 1.415 . S
C3613 H3589 0.951 . S
C3613 C3614 1.366 1_565 S
C3613 C3615 1.388 . S
C3614 C3613 1.366 1_545 S
C3614 C3618 1.385 . S
C3615 H3590 0.951 . S
C3615 C3613 1.388 . S
C3615 C3616 1.366 1_565 S
C3616 C3615 1.366 1_545 S
C3616 C3617 1.414 . S
C3616 C3619 1.499 . S
C3617 H3591 0.950 . S
C3617 C3616 1.414 . S
C3617 C3618 1.374 . S
C3618 H3592 0.950 . S
C3618 C3614 1.385 . S
C3618 C3617 1.374 . S
C3619 C3616 1.499 . S
C3619 C3620 1.373 . S
C3619 C3621 1.389 . S
C3620 H3593 0.950 . S
C3620 C3606 1.377 . S
C3620 C3619 1.373 . S
C3621 C3605 1.377 . S
C3621 C3619 1.389 . S
C3621 C3622 1.524 . S
C3622 C3621 1.524 . S
C3622 C3623 1.397 . S
C3622 C3627 1.363 1_545 S
C3623 H3594 0.950 . S
C3623 C3622 1.397 . S
C3623 C3624 1.334 . S
C3624 H3595 0.950 . S
C3624 C3623 1.334 . S
C3624 C3625 1.287 . S
C3625 C3624 1.287 . S
C3625 C3626 1.524 1_545 S
C3625 H3628 1.010 . S
C3626 H3596 0.950 . S
C3626 C3625 1.524 1_565 S
C3626 C3627 1.415 . S
C3627 H3597 0.950 . S
C3627 C3622 1.363 1_565 S
C3627 C3626 1.415 . S
H3628 C3625 1.010 . S
H3629 C3610 0.913 . S
H3630 C3648 0.951 . S
H3631 C3650 0.951 . S
H3632 C3652 0.950 . S
H3633 C3653 0.950 . S
H3634 C3655 0.950 . S
H3635 C3658 0.950 . S
H3636 C3659 0.950 . S
H3637 C3661 0.950 . S
H3638 C3662 0.950 . S
H3639 C3663 0.951 . S
H3640 C3665 0.951 . S
H3641 C3667 0.950 . S
H3642 C3668 0.950 . S
H3643 C3670 0.950 . S
H3644 C3673 0.950 . S
H3645 C3674 0.950 . S
H3646 C3676 0.950 . S
H3647 C3677 0.950 . S
C3648 H3630 0.951 . S
C3648 C3649 1.366 . S
C3648 C3650 1.388 . S
C3649 C3648 1.366 . S
C3649 C3653 1.385 . S
C3650 H3631 0.951 . S
C3650 C3648 1.388 . S
C3650 C3651 1.366 . S
C3651 C3650 1.366 . S
C3651 C3652 1.414 . S
C3651 C3654 1.499 . S
C3652 H3632 0.950 . S
C3652 C3651 1.414 . S
C3652 C3653 1.374 . S
C3653 H3633 0.950 . S
C3653 C3649 1.385 . S
C3653 C3652 1.374 . S
C3654 C3651 1.499 . S
C3654 C3655 1.373 . S
C3654 C3656 1.389 . S
C3655 H3634 0.950 . S
C3655 C3654 1.373 . S
C3655 C3671 1.377 . S
C3656 C3654 1.389 . S
C3656 C3657 1.524 . S
C3656 C3670 1.377 . S
C3657 C3656 1.524 . S
C3657 C3658 1.397 . S
C3657 C3662 1.363 . S
C3658 H3635 0.950 . S
C3658 C3657 1.397 . S
C3658 C3659 1.334 . S
C3659 H3636 0.950 . S
C3659 C3658 1.334 . S
C3659 C3660 1.287 . S
C3660 C3659 1.287 . S
C3660 C3661 1.524 . S
C3660 H3679 0.913 . S
C3661 H3637 0.950 . S
C3661 C3660 1.524 . S
C3661 C3662 1.415 . S
C3662 H3638 0.950 . S
C3662 C3657 1.363 . S
C3662 C3661 1.415 . S
C3663 H3639 0.951 . S
C3663 C3664 1.366 . S
C3663 C3665 1.388 . S
C3664 C3663 1.366 . S
C3664 C3668 1.385 . S
C3665 H3640 0.951 . S
C3665 C3663 1.388 . S
C3665 C3666 1.366 . S
C3666 C3665 1.366 . S
C3666 C3667 1.414 . S
C3666 C3669 1.499 . S
C3667 H3641 0.950 . S
C3667 C3666 1.414 . S
C3667 C3668 1.374 . S
C3668 H3642 0.950 . S
C3668 C3664 1.385 . S
C3668 C3667 1.374 . S
C3669 C3666 1.499 . S
C3669 C3670 1.373 . S
C3669 C3671 1.389 . S
C3670 H3643 0.950 . S
C3670 C3656 1.377 . S
C3670 C3669 1.373 . S
C3671 C3655 1.377 . S
C3671 C3669 1.389 . S
C3671 C3672 1.524 . S
C3672 C3671 1.524 . S
C3672 C3673 1.397 . S
C3672 C3677 1.363 . S
C3673 H3644 0.950 . S
C3673 C3672 1.397 . S
C3673 C3674 1.334 . S
C3674 H3645 0.950 . S
C3674 C3673 1.334 . S
C3674 C3675 1.287 . S
C3675 C3674 1.287 . S
C3675 C3676 1.524 . S
C3675 H3678 0.999 . S
C3676 H3646 0.950 . S
C3676 C3675 1.524 . S
C3676 C3677 1.415 . S
C3677 H3647 0.950 . S
C3677 C3672 1.363 . S
C3677 C3676 1.415 . S
H3678 C3675 0.999 . S
H3679 C3660 0.913 . S
H3680 C3698 0.951 . S
H3681 C3700 0.951 . S
H3682 C3702 0.950 . S
H3683 C3703 0.950 . S
H3684 C3705 0.950 . S
H3685 C3708 0.950 . S
H3686 C3709 0.950 . S
H3687 C3711 0.950 . S
H3688 C3712 0.950 . S
H3689 C3713 0.951 . S
H3690 C3715 0.951 . S
H3691 C3717 0.947 1_556 S
H3692 C3718 0.950 1_556 S
H3693 C3720 0.950 . S
H3694 C3723 0.950 . S
H3695 C3724 0.950 . S
H3696 C3726 0.950 . S
H3697 C3727 0.950 . S
C3698 H3680 0.951 . S
C3698 C3699 1.366 . S
C3698 C3700 1.388 . S
C3699 C3698 1.366 . S
C3699 C3703 1.385 . S
C3700 H3681 0.951 . S
C3700 C3698 1.388 . S
C3700 C3701 1.366 . S
C3701 C3700 1.366 . S
C3701 C3702 1.414 . S
C3701 C3704 1.499 . S
C3702 H3682 0.950 . S
C3702 C3701 1.414 . S
C3702 C3703 1.374 . S
C3703 H3683 0.950 . S
C3703 C3699 1.385 . S
C3703 C3702 1.374 . S
C3704 C3701 1.499 . S
C3704 C3705 1.373 . S
C3704 C3706 1.389 . S
C3705 H3684 0.950 . S
C3705 C3704 1.373 . S
C3705 C3721 1.377 . S
C3706 C3704 1.389 . S
C3706 C3707 1.524 . S
C3706 C3720 1.377 . S
C3707 C3706 1.524 . S
C3707 C3708 1.397 . S
C3707 C3712 1.363 . S
C3708 H3685 0.950 . S
C3708 C3707 1.397 . S
C3708 C3709 1.334 . S
C3709 H3686 0.950 . S
C3709 C3708 1.334 . S
C3709 C3710 1.287 . S
C3710 C3709 1.287 . S
C3710 C3711 1.524 . S
C3710 H3729 0.913 . S
C3711 H3687 0.950 . S
C3711 C3710 1.524 . S
C3711 C3712 1.415 . S
C3712 H3688 0.950 . S
C3712 C3707 1.363 . S
C3712 C3711 1.415 . S
C3713 H3689 0.951 . S
C3713 C3714 1.366 . S
C3713 C3715 1.388 . S
C3714 C3713 1.366 . S
C3714 C3718 1.385 . S
C3715 H3690 0.951 . S
C3715 C3713 1.388 . S
C3715 C3716 1.366 . S
C3716 C3715 1.366 . S
C3716 C3717 1.414 . S
C3716 C3719 1.499 . S
C3717 H3691 0.947 1_554 S
C3717 C3716 1.414 . S
C3717 C3718 1.374 . S
C3718 H3692 0.950 1_554 S
C3718 C3714 1.385 . S
C3718 C3717 1.374 . S
C3719 C3716 1.499 . S
C3719 C3720 1.373 . S
C3719 C3721 1.389 . S
C3720 H3693 0.950 . S
C3720 C3706 1.377 . S
C3720 C3719 1.373 . S
C3721 C3705 1.377 . S
C3721 C3719 1.389 . S
C3721 C3722 1.524 . S
C3722 C3721 1.524 . S
C3722 C3723 1.397 . S
C3722 C3727 1.363 . S
C3723 H3694 0.950 . S
C3723 C3722 1.397 . S
C3723 C3724 1.334 . S
C3724 H3695 0.950 . S
C3724 C3723 1.334 . S
C3724 C3725 1.287 . S
C3725 C3724 1.287 . S
C3725 C3726 1.524 . S
C3725 H3728 0.999 . S
C3726 H3696 0.950 . S
C3726 C3725 1.524 . S
C3726 C3727 1.415 . S
C3727 H3697 0.950 . S
C3727 C3722 1.363 . S
C3727 C3726 1.415 . S
H3728 C3725 0.999 . S
H3729 C3710 0.913 . S
H3730 C3748 0.951 . S
H3731 C3750 0.951 . S
H3732 C3752 0.950 . S
H3733 C3753 0.950 . S
H3734 C3755 0.950 . S
H3735 C3758 0.950 . S
H3736 C3759 0.950 . S
H3737 C3761 0.950 . S
H3738 C3762 0.950 . S
H3739 C3763 0.951 . S
H3740 C3765 0.951 . S
H3741 C3767 0.950 . S
H3742 C3768 0.950 . S
H3743 C3770 0.950 . S
H3744 C3773 0.950 . S
H3745 C3774 0.950 . S
H3746 C3776 0.950 . S
H3747 C3777 0.950 . S
C3748 H3730 0.951 . S
C3748 C3749 1.366 . S
C3748 C3750 1.388 . S
C3749 C3748 1.366 . S
C3749 C3753 1.385 . S
C3750 H3731 0.951 . S
C3750 C3748 1.388 . S
C3750 C3751 1.366 . S
C3751 C3750 1.366 . S
C3751 C3752 1.414 . S
C3751 C3754 1.499 . S
C3752 H3732 0.950 . S
C3752 C3751 1.414 . S
C3752 C3753 1.374 . S
C3753 H3733 0.950 . S
C3753 C3749 1.385 . S
C3753 C3752 1.374 . S
C3754 C3751 1.499 . S
C3754 C3755 1.373 . S
C3754 C3756 1.389 . S
C3755 H3734 0.950 . S
C3755 C3754 1.373 . S
C3755 C3771 1.377 . S
C3756 C3754 1.389 . S
C3756 C3757 1.524 . S
C3756 C3770 1.377 . S
C3757 C3756 1.524 . S
C3757 C3758 1.397 . S
C3757 C3762 1.363 . S
C3758 H3735 0.950 . S
C3758 C3757 1.397 . S
C3758 C3759 1.334 . S
C3759 H3736 0.950 . S
C3759 C3758 1.334 . S
C3759 C3760 1.287 . S
C3760 C3759 1.287 . S
C3760 C3761 1.524 . S
C3760 H3779 0.913 . S
C3761 H3737 0.950 . S
C3761 C3760 1.524 . S
C3761 C3762 1.415 . S
C3762 H3738 0.950 . S
C3762 C3757 1.363 . S
C3762 C3761 1.415 . S
C3763 H3739 0.951 . S
C3763 C3764 1.366 . S
C3763 C3765 1.388 . S
C3764 C3763 1.366 . S
C3764 C3768 1.385 . S
C3765 H3740 0.951 . S
C3765 C3763 1.388 . S
C3765 C3766 1.366 . S
C3766 C3765 1.366 . S
C3766 C3767 1.414 . S
C3766 C3769 1.499 . S
C3767 H3741 0.950 . S
C3767 C3766 1.414 . S
C3767 C3768 1.374 . S
C3768 H3742 0.950 . S
C3768 C3764 1.385 . S
C3768 C3767 1.374 . S
C3769 C3766 1.499 . S
C3769 C3770 1.373 . S
C3769 C3771 1.389 . S
C3770 H3743 0.950 . S
C3770 C3756 1.377 . S
C3770 C3769 1.373 . S
C3771 C3755 1.377 . S
C3771 C3769 1.389 . S
C3771 C3772 1.524 1_554 S
C3772 C3771 1.524 1_556 S
C3772 C3773 1.397 . S
C3772 C3777 1.363 . S
C3773 H3744 0.950 . S
C3773 C3772 1.397 . S
C3773 C3774 1.334 . S
C3774 H3745 0.950 . S
C3774 C3773 1.334 . S
C3774 C3775 1.287 . S
C3775 C3774 1.287 . S
C3775 C3776 1.524 . S
C3775 H3778 0.999 . S
C3776 H3746 0.950 . S
C3776 C3775 1.524 . S
C3776 C3777 1.415 . S
C3777 H3747 0.950 . S
C3777 C3772 1.363 . S
C3777 C3776 1.415 . S
H3778 C3775 0.999 . S
H3779 C3760 0.913 . S
H3780 C3798 0.951 . S
H3781 C3800 0.951 . S
H3782 C3802 0.950 . S
H3783 C3803 0.950 . S
H3784 C3805 0.950 . S
H3785 C3808 0.950 . S
H3786 C3809 0.950 . S
H3787 C3811 0.950 . S
H3788 C3812 0.950 . S
H3789 C3813 0.951 . S
H3790 C3815 0.951 . S
H3791 C3817 0.950 . S
H3792 C3818 0.950 . S
H3793 C3820 0.950 . S
H3794 C3823 0.950 . S
H3795 C3824 0.950 . S
H3796 C3826 0.950 . S
H3797 C3827 0.950 . S
C3798 H3780 0.951 . S
C3798 C3799 1.366 . S
C3798 C3800 1.388 . S
C3799 C3798 1.366 . S
C3799 C3803 1.385 . S
C3800 H3781 0.951 . S
C3800 C3798 1.388 . S
C3800 C3801 1.366 . S
C3801 C3800 1.366 . S
C3801 C3802 1.414 . S
C3801 C3804 1.499 . S
C3802 H3782 0.950 . S
C3802 C3801 1.414 . S
C3802 C3803 1.374 . S
C3803 H3783 0.950 . S
C3803 C3799 1.385 . S
C3803 C3802 1.374 . S
C3804 C3801 1.499 . S
C3804 C3805 1.373 . S
C3804 C3806 1.389 . S
C3805 H3784 0.950 . S
C3805 C3804 1.373 . S
C3805 C3821 1.377 . S
C3806 C3804 1.389 . S
C3806 C3807 1.524 . S
C3806 C3820 1.377 . S
C3807 C3806 1.524 . S
C3807 C3808 1.397 . S
C3807 C3812 1.363 . S
C3808 H3785 0.950 . S
C3808 C3807 1.397 . S
C3808 C3809 1.334 . S
C3809 H3786 0.950 . S
C3809 C3808 1.334 . S
C3809 C3810 1.287 . S
C3810 C3809 1.287 . S
C3810 C3811 1.524 . S
C3810 H3829 0.913 . S
C3811 H3787 0.950 . S
C3811 C3810 1.524 . S
C3811 C3812 1.415 . S
C3812 H3788 0.950 . S
C3812 C3807 1.363 . S
C3812 C3811 1.415 . S
C3813 H3789 0.951 . S
C3813 C3814 1.366 . S
C3813 C3815 1.388 . S
C3814 C3813 1.366 . S
C3814 C3818 1.385 . S
C3815 H3790 0.951 . S
C3815 C3813 1.388 . S
C3815 C3816 1.366 . S
C3816 C3815 1.366 . S
C3816 C3817 1.414 . S
C3816 C3819 1.499 . S
C3817 H3791 0.950 . S
C3817 C3816 1.414 . S
C3817 C3818 1.374 . S
C3818 H3792 0.950 . S
C3818 C3814 1.385 . S
C3818 C3817 1.374 . S
C3819 C3816 1.499 . S
C3819 C3820 1.373 . S
C3819 C3821 1.389 . S
C3820 H3793 0.950 . S
C3820 C3806 1.377 . S
C3820 C3819 1.373 . S
C3821 C3805 1.377 . S
C3821 C3819 1.389 . S
C3821 C3822 1.524 . S
C3822 C3821 1.524 . S
C3822 C3823 1.397 . S
C3822 C3827 1.363 . S
C3823 H3794 0.950 . S
C3823 C3822 1.397 . S
C3823 C3824 1.334 . S
C3824 H3795 0.950 . S
C3824 C3823 1.334 . S
C3824 C3825 1.287 . S
C3825 C3824 1.287 . S
C3825 C3826 1.524 . S
C3825 H3828 0.999 . S
C3826 H3796 0.950 . S
C3826 C3825 1.524 . S
C3826 C3827 1.415 . S
C3827 H3797 0.950 . S
C3827 C3822 1.363 . S
C3827 C3826 1.415 . S
H3828 C3825 0.999 . S
H3829 C3810 0.913 . S
H3830 C3848 0.951 . S
H3831 C3850 0.951 . S
H3832 C3852 0.950 . S
H3833 C3853 0.950 . S
H3834 C3855 0.950 . S
H3835 C3858 0.950 . S
H3836 C3859 0.950 . S
H3837 C3861 0.950 . S
H3838 C3862 0.950 . S
H3839 C3863 0.951 . S
H3840 C3865 0.951 . S
H3841 C3867 0.950 . S
H3842 C3868 0.950 . S
H3843 C3870 0.950 . S
H3844 C3873 0.950 . S
H3845 C3874 0.950 . S
H3846 C3876 0.950 . S
H3847 C3877 0.950 . S
C3848 H3830 0.951 . S
C3848 C3849 1.366 . S
C3848 C3850 1.388 . S
C3849 C3848 1.366 . S
C3849 C3853 1.385 . S
C3850 H3831 0.951 . S
C3850 C3848 1.388 . S
C3850 C3851 1.366 . S
C3851 C3850 1.366 . S
C3851 C3852 1.414 . S
C3851 C3854 1.499 . S
C3852 H3832 0.950 . S
C3852 C3851 1.414 . S
C3852 C3853 1.374 . S
C3853 H3833 0.950 . S
C3853 C3849 1.385 . S
C3853 C3852 1.374 . S
C3854 C3851 1.499 . S
C3854 C3855 1.373 . S
C3854 C3856 1.389 . S
C3855 H3834 0.950 . S
C3855 C3854 1.373 . S
C3855 C3871 1.377 . S
C3856 C3854 1.389 . S
C3856 C3857 1.524 . S
C3856 C3870 1.377 . S
C3857 C3856 1.524 . S
C3857 C3858 1.397 . S
C3857 C3862 1.363 . S
C3858 H3835 0.950 . S
C3858 C3857 1.397 . S
C3858 C3859 1.334 . S
C3859 H3836 0.950 . S
C3859 C3858 1.334 . S
C3859 C3860 1.287 . S
C3860 C3859 1.287 . S
C3860 C3861 1.524 . S
C3860 H3879 0.913 . S
C3861 H3837 0.950 . S
C3861 C3860 1.524 . S
C3861 C3862 1.415 . S
C3862 H3838 0.950 . S
C3862 C3857 1.363 . S
C3862 C3861 1.415 . S
C3863 H3839 0.951 . S
C3863 C3864 1.366 . S
C3863 C3865 1.388 . S
C3864 C3863 1.366 . S
C3864 C3868 1.385 . S
C3865 H3840 0.951 . S
C3865 C3863 1.388 . S
C3865 C3866 1.366 . S
C3866 C3865 1.366 . S
C3866 C3867 1.414 . S
C3866 C3869 1.499 . S
C3867 H3841 0.950 . S
C3867 C3866 1.414 . S
C3867 C3868 1.374 . S
C3868 H3842 0.950 . S
C3868 C3864 1.385 . S
C3868 C3867 1.374 . S
C3869 C3866 1.499 . S
C3869 C3870 1.373 . S
C3869 C3871 1.389 . S
C3870 H3843 0.950 . S
C3870 C3856 1.377 . S
C3870 C3869 1.373 . S
C3871 C3855 1.377 . S
C3871 C3869 1.389 . S
C3871 C3872 1.524 . S
C3872 C3871 1.524 . S
C3872 C3873 1.397 . S
C3872 C3877 1.363 . S
C3873 H3844 0.950 . S
C3873 C3872 1.397 . S
C3873 C3874 1.334 . S
C3874 H3845 0.950 . S
C3874 C3873 1.334 . S
C3874 C3875 1.287 . S
C3875 C3874 1.287 . S
C3875 C3876 1.524 . S
C3875 H3878 0.999 . S
C3876 H3846 0.950 . S
C3876 C3875 1.524 . S
C3876 C3877 1.415 . S
C3877 H3847 0.950 . S
C3877 C3872 1.363 . S
C3877 C3876 1.415 . S
H3878 C3875 0.999 . S
H3879 C3860 0.913 . S
H3880 C3898 0.951 1_545 S
H3881 C3900 0.951 . S
H3882 C3902 0.950 . S
H3883 C3903 0.950 . S
H3884 C3905 0.950 . S
H3885 C3908 0.950 . S
H3886 C3909 0.950 . S
H3887 C3911 0.950 . S
H3888 C3912 0.950 . S
H3889 C3913 0.951 . S
H3890 C3915 0.951 . S
H3891 C3917 0.950 . S
H3892 C3918 0.950 . S
H3893 C3920 0.950 . S
H3894 C3923 0.950 . S
H3895 C3924 0.950 . S
H3896 C3926 0.950 . S
H3897 C3927 0.950 . S
C3898 H3880 0.951 1_565 S
C3898 C3899 1.366 . S
C3898 C3900 1.388 . S
C3899 C3898 1.366 . S
C3899 C3903 1.385 . S
C3900 H3881 0.951 . S
C3900 C3898 1.388 . S
C3900 C3901 1.366 . S
C3901 C3900 1.366 . S
C3901 C3902 1.414 . S
C3901 C3904 1.499 . S
C3902 H3882 0.950 . S
C3902 C3901 1.414 . S
C3902 C3903 1.374 . S
C3903 H3883 0.950 . S
C3903 C3899 1.385 . S
C3903 C3902 1.374 . S
C3904 C3901 1.499 . S
C3904 C3905 1.373 . S
C3904 C3906 1.389 . S
C3905 H3884 0.950 . S
C3905 C3904 1.373 . S
C3905 C3921 1.377 . S
C3906 C3904 1.389 . S
C3906 C3907 1.524 . S
C3906 C3920 1.377 . S
C3907 C3906 1.524 . S
C3907 C3908 1.397 . S
C3907 C3912 1.363 . S
C3908 H3885 0.950 . S
C3908 C3907 1.397 . S
C3908 C3909 1.334 . S
C3909 H3886 0.950 . S
C3909 C3908 1.334 . S
C3909 C3910 1.287 . S
C3910 C3909 1.287 . S
C3910 C3911 1.524 . S
C3910 H3929 0.913 . S
C3911 H3887 0.950 . S
C3911 C3910 1.524 . S
C3911 C3912 1.415 . S
C3912 H3888 0.950 . S
C3912 C3907 1.363 . S
C3912 C3911 1.415 . S
C3913 H3889 0.951 . S
C3913 C3914 1.366 . S
C3913 C3915 1.388 . S
C3914 C3913 1.366 . S
C3914 C3918 1.385 . S
C3915 H3890 0.951 . S
C3915 C3913 1.388 . S
C3915 C3916 1.366 . S
C3916 C3915 1.366 . S
C3916 C3917 1.414 . S
C3916 C3919 1.499 . S
C3917 H3891 0.950 . S
C3917 C3916 1.414 . S
C3917 C3918 1.374 . S
C3918 H3892 0.950 . S
C3918 C3914 1.385 . S
C3918 C3917 1.374 . S
C3919 C3916 1.499 . S
C3919 C3920 1.373 . S
C3919 C3921 1.389 . S
C3920 H3893 0.950 . S
C3920 C3906 1.377 . S
C3920 C3919 1.373 . S
C3921 C3905 1.377 . S
C3921 C3919 1.389 . S
C3921 C3922 1.524 . S
C3922 C3921 1.524 . S
C3922 C3923 1.397 . S
C3922 C3927 1.363 . S
C3923 H3894 0.950 . S
C3923 C3922 1.397 . S
C3923 C3924 1.334 . S
C3924 H3895 0.950 . S
C3924 C3923 1.334 . S
C3924 C3925 1.287 . S
C3925 C3924 1.287 . S
C3925 C3926 1.524 . S
C3925 H3928 0.999 . S
C3926 H3896 0.950 . S
C3926 C3925 1.524 . S
C3926 C3927 1.415 . S
C3927 H3897 0.950 . S
C3927 C3922 1.363 . S
C3927 C3926 1.415 . S
H3928 C3925 0.999 . S
H3929 C3910 0.913 . S
H3930 C3948 0.951 . S
H3931 C3950 0.951 . S
H3932 C3952 0.950 . S
H3933 C3953 0.950 . S
H3934 C3955 0.950 . S
H3935 C3958 0.950 . S
H3936 C3959 0.950 . S
H3937 C3961 0.950 . S
H3938 C3962 0.950 . S
H3939 C3963 0.951 . S
H3940 C3965 0.951 . S
H3941 C3967 0.950 . S
H3942 C3968 0.950 . S
H3943 C3970 0.950 . S
H3944 C3973 0.950 . S
H3945 C3974 0.950 . S
H3946 C3976 0.950 . S
H3947 C3977 0.950 . S
C3948 H3930 0.951 . S
C3948 C3949 1.366 . S
C3948 C3950 1.388 . S
C3949 C3948 1.366 . S
C3949 C3953 1.385 . S
C3950 H3931 0.951 . S
C3950 C3948 1.388 . S
C3950 C3951 1.366 . S
C3951 C3950 1.366 . S
C3951 C3952 1.414 . S
C3951 C3954 1.499 . S
C3952 H3932 0.950 . S
C3952 C3951 1.414 . S
C3952 C3953 1.374 . S
C3953 H3933 0.950 . S
C3953 C3949 1.385 . S
C3953 C3952 1.374 . S
C3954 C3951 1.499 . S
C3954 C3955 1.373 . S
C3954 C3956 1.389 . S
C3955 H3934 0.950 . S
C3955 C3954 1.373 . S
C3955 C3971 1.377 . S
C3956 C3954 1.389 . S
C3956 C3957 1.524 . S
C3956 C3970 1.377 . S
C3957 C3956 1.524 . S
C3957 C3958 1.397 . S
C3957 C3962 1.363 . S
C3958 H3935 0.950 . S
C3958 C3957 1.397 . S
C3958 C3959 1.334 . S
C3959 H3936 0.950 . S
C3959 C3958 1.334 . S
C3959 C3960 1.287 . S
C3960 C3959 1.287 . S
C3960 C3961 1.524 . S
C3960 H3979 0.913 . S
C3961 H3937 0.950 . S
C3961 C3960 1.524 . S
C3961 C3962 1.415 . S
C3962 H3938 0.950 . S
C3962 C3957 1.363 . S
C3962 C3961 1.415 . S
C3963 H3939 0.951 . S
C3963 C3964 1.366 . S
C3963 C3965 1.388 . S
C3964 C3963 1.366 . S
C3964 C3968 1.385 . S
C3965 H3940 0.951 . S
C3965 C3963 1.388 . S
C3965 C3966 1.366 . S
C3966 C3965 1.366 . S
C3966 C3967 1.414 . S
C3966 C3969 1.499 . S
C3967 H3941 0.950 . S
C3967 C3966 1.414 . S
C3967 C3968 1.374 . S
C3968 H3942 0.950 . S
C3968 C3964 1.385 . S
C3968 C3967 1.374 . S
C3969 C3966 1.499 . S
C3969 C3970 1.373 . S
C3969 C3971 1.389 . S
C3970 H3943 0.950 . S
C3970 C3956 1.377 . S
C3970 C3969 1.373 . S
C3971 C3955 1.377 . S
C3971 C3969 1.389 . S
C3971 C3972 1.524 . S
C3972 C3971 1.524 . S
C3972 C3973 1.397 . S
C3972 C3977 1.363 . S
C3973 H3944 0.950 . S
C3973 C3972 1.397 . S
C3973 C3974 1.334 1_565 S
C3974 H3945 0.950 . S
C3974 C3973 1.334 1_545 S
C3974 C3975 1.287 . S
C3975 C3974 1.287 . S
C3975 C3976 1.524 . S
C3975 H3978 0.999 . S
C3976 H3946 0.950 . S
C3976 C3975 1.524 . S
C3976 C3977 1.415 1_545 S
C3977 H3947 0.950 . S
C3977 C3972 1.363 . S
C3977 C3976 1.415 1_565 S
H3978 C3975 0.999 . S
H3979 C3960 0.913 . S
H3980 C3998 0.951 . S
H3981 C4000 0.951 . S
H3982 C4002 0.950 . S
H3983 C4003 0.950 . S
H3984 C4005 0.950 . S
H3985 C4008 0.950 . S
H3986 C4009 0.950 . S
H3987 C4011 0.950 . S
H3988 C4012 0.950 . S
H3989 C4013 0.951 . S
H3990 C4015 0.951 . S
H3991 C4017 0.950 . S
H3992 C4018 0.950 . S
H3993 C4020 0.950 . S
H3994 C4023 0.950 . S
H3995 C4024 0.950 . S
H3996 C4026 0.950 . S
H3997 C4027 0.950 . S
C3998 H3980 0.951 . S
C3998 C3999 1.366 . S
C3998 C4000 1.388 . S
C3999 C3998 1.366 . S
C3999 C4003 1.385 . S
C4000 H3981 0.951 . S
C4000 C3998 1.388 . S
C4000 C4001 1.366 . S
C4001 C4000 1.366 . S
C4001 C4002 1.414 . S
C4001 C4004 1.499 . S
C4002 H3982 0.950 . S
C4002 C4001 1.414 . S
C4002 C4003 1.374 . S
C4003 H3983 0.950 . S
C4003 C3999 1.385 . S
C4003 C4002 1.374 . S
C4004 C4001 1.499 . S
C4004 C4005 1.373 . S
C4004 C4006 1.389 . S
C4005 H3984 0.950 . S
C4005 C4004 1.373 . S
C4005 C4021 1.377 . S
C4006 C4004 1.389 . S
C4006 C4007 1.524 . S
C4006 C4020 1.377 . S
C4007 C4006 1.524 . S
C4007 C4008 1.397 . S
C4007 C4012 1.363 . S
C4008 H3985 0.950 . S
C4008 C4007 1.397 . S
C4008 C4009 1.334 . S
C4009 H3986 0.950 . S
C4009 C4008 1.334 . S
C4009 C4010 1.287 . S
C4010 C4009 1.287 . S
C4010 C4011 1.524 . S
C4010 H4029 0.913 . S
C4011 H3987 0.950 . S
C4011 C4010 1.524 . S
C4011 C4012 1.415 . S
C4012 H3988 0.950 . S
C4012 C4007 1.363 . S
C4012 C4011 1.415 . S
C4013 H3989 0.951 . S
C4013 C4014 1.366 . S
C4013 C4015 1.388 . S
C4014 C4013 1.366 . S
C4014 C4018 1.385 . S
C4015 H3990 0.951 . S
C4015 C4013 1.388 . S
C4015 C4016 1.366 . S
C4016 C4015 1.366 . S
C4016 C4017 1.414 . S
C4016 C4019 1.499 . S
C4017 H3991 0.950 . S
C4017 C4016 1.414 . S
C4017 C4018 1.374 . S
C4018 H3992 0.950 . S
C4018 C4014 1.385 . S
C4018 C4017 1.374 . S
C4019 C4016 1.499 . S
C4019 C4020 1.373 . S
C4019 C4021 1.389 . S
C4020 H3993 0.950 . S
C4020 C4006 1.377 . S
C4020 C4019 1.373 . S
C4021 C4005 1.377 . S
C4021 C4019 1.389 . S
C4021 C4022 1.524 . S
C4022 C4021 1.524 . S
C4022 C4023 1.397 . S
C4022 C4027 1.363 . S
C4023 H3994 0.950 . S
C4023 C4022 1.397 . S
C4023 C4024 1.334 . S
C4024 H3995 0.950 . S
C4024 C4023 1.334 . S
C4024 C4025 1.287 . S
C4025 C4024 1.287 . S
C4025 C4026 1.524 . S
C4025 H4028 0.999 . S
C4026 H3996 0.950 . S
C4026 C4025 1.524 . S
C4026 C4027 1.415 . S
C4027 H3997 0.950 . S
C4027 C4022 1.363 . S
C4027 C4026 1.415 . S
H4028 C4025 0.999 . S
H4029 C4010 0.913 . S
H4030 C4048 0.951 . S
H4031 C4050 0.951 . S
H4032 C4052 0.950 . S
H4033 C4053 0.950 . S
H4034 C4055 0.950 . S
H4035 C4058 0.950 . S
H4036 C4059 0.950 . S
H4037 C4061 0.950 . S
H4038 C4062 0.950 . S
H4039 C4063 0.951 . S
H4040 C4065 0.951 . S
H4041 C4067 0.950 . S
H4042 C4068 0.950 . S
H4043 C4070 0.950 . S
H4044 C4073 0.950 . S
H4045 C4074 0.950 . S
H4046 C4076 0.950 . S
H4047 C4077 0.950 . S
C4048 H4030 0.951 . S
C4048 C4049 1.366 . S
C4048 C4050 1.388 . S
C4049 C4048 1.366 . S
C4049 C4053 1.385 . S
C4050 H4031 0.951 . S
C4050 C4048 1.388 . S
C4050 C4051 1.366 . S
C4051 C4050 1.366 . S
C4051 C4052 1.414 . S
C4051 C4054 1.499 . S
C4052 H4032 0.950 . S
C4052 C4051 1.414 . S
C4052 C4053 1.374 . S
C4053 H4033 0.950 . S
C4053 C4049 1.385 . S
C4053 C4052 1.374 . S
C4054 C4051 1.499 . S
C4054 C4055 1.373 . S
C4054 C4056 1.389 . S
C4055 H4034 0.950 . S
C4055 C4054 1.373 . S
C4055 C4071 1.377 . S
C4056 C4054 1.389 . S
C4056 C4057 1.524 . S
C4056 C4070 1.377 . S
C4057 C4056 1.524 . S
C4057 C4058 1.397 . S
C4057 C4062 1.363 . S
C4058 H4035 0.950 . S
C4058 C4057 1.397 . S
C4058 C4059 1.334 . S
C4059 H4036 0.950 . S
C4059 C4058 1.334 . S
C4059 C4060 1.287 . S
C4060 C4059 1.287 . S
C4060 C4061 1.524 . S
C4060 H4079 0.913 . S
C4061 H4037 0.950 . S
C4061 C4060 1.524 . S
C4061 C4062 1.415 . S
C4062 H4038 0.950 . S
C4062 C4057 1.363 . S
C4062 C4061 1.415 . S
C4063 H4039 0.951 . S
C4063 C4064 1.366 . S
C4063 C4065 1.388 . S
C4064 C4063 1.366 . S
C4064 C4068 1.385 . S
C4065 H4040 0.951 . S
C4065 C4063 1.388 . S
C4065 C4066 1.366 . S
C4066 C4065 1.366 . S
C4066 C4067 1.414 . S
C4066 C4069 1.499 . S
C4067 H4041 0.950 . S
C4067 C4066 1.414 . S
C4067 C4068 1.374 . S
C4068 H4042 0.950 . S
C4068 C4064 1.385 . S
C4068 C4067 1.374 . S
C4069 C4066 1.499 . S
C4069 C4070 1.373 . S
C4069 C4071 1.389 . S
C4070 H4043 0.950 . S
C4070 C4056 1.377 . S
C4070 C4069 1.373 . S
C4071 C4055 1.377 . S
C4071 C4069 1.389 . S
C4071 C4072 1.524 . S
C4072 C4071 1.524 . S
C4072 C4073 1.397 . S
C4072 C4077 1.363 . S
C4073 H4044 0.950 . S
C4073 C4072 1.397 . S
C4073 C4074 1.334 . S
C4074 H4045 0.950 . S
C4074 C4073 1.334 . S
C4074 C4075 1.287 . S
C4075 C4074 1.287 . S
C4075 C4076 1.524 . S
C4075 H4078 0.999 . S
C4076 H4046 0.950 . S
C4076 C4075 1.524 . S
C4076 C4077 1.415 . S
C4077 H4047 0.950 . S
C4077 C4072 1.363 . S
C4077 C4076 1.415 . S
H4078 C4075 0.999 . S
H4079 C4060 0.913 . S
H4080 C4098 0.951 . S
H4081 C4100 0.951 . S
H4082 C4102 0.950 . S
H4083 C4103 0.950 . S
H4084 C4105 0.950 . S
H4085 C4108 0.950 . S
H4086 C4109 0.950 . S
H4087 C4111 0.950 . S
H4088 C4112 0.950 . S
H4089 C4113 0.951 . S
H4090 C4115 0.951 . S
H4091 C4117 0.950 . S
H4092 C4118 0.950 . S
H4093 C4120 0.950 . S
H4094 C4123 0.950 . S
H4095 C4124 0.950 . S
H4096 C4126 0.950 . S
H4097 C4127 0.950 . S
C4098 H4080 0.951 . S
C4098 C4099 1.366 . S
C4098 C4100 1.388 . S
C4099 C4098 1.366 . S
C4099 C4103 1.385 . S
C4100 H4081 0.951 . S
C4100 C4098 1.388 . S
C4100 C4101 1.366 . S
C4101 C4100 1.366 . S
C4101 C4102 1.414 . S
C4101 C4104 1.499 . S
C4102 H4082 0.950 . S
C4102 C4101 1.414 . S
C4102 C4103 1.374 . S
C4103 H4083 0.950 . S
C4103 C4099 1.385 . S
C4103 C4102 1.374 . S
C4104 C4101 1.499 . S
C4104 C4105 1.373 . S
C4104 C4106 1.389 . S
C4105 H4084 0.950 . S
C4105 C4104 1.373 . S
C4105 C4121 1.377 . S
C4106 C4104 1.389 . S
C4106 C4107 1.524 . S
C4106 C4120 1.377 . S
C4107 C4106 1.524 . S
C4107 C4108 1.397 . S
C4107 C4112 1.363 . S
C4108 H4085 0.950 . S
C4108 C4107 1.397 . S
C4108 C4109 1.334 . S
C4109 H4086 0.950 . S
C4109 C4108 1.334 . S
C4109 C4110 1.287 . S
C4110 C4109 1.287 . S
C4110 C4111 1.524 . S
C4110 H4129 0.913 . S
C4111 H4087 0.950 . S
C4111 C4110 1.524 . S
C4111 C4112 1.415 . S
C4112 H4088 0.950 . S
C4112 C4107 1.363 . S
C4112 C4111 1.415 . S
C4113 H4089 0.951 . S
C4113 C4114 1.366 . S
C4113 C4115 1.388 . S
C4114 C4113 1.366 . S
C4114 C4118 1.385 . S
C4115 H4090 0.951 . S
C4115 C4113 1.388 . S
C4115 C4116 1.366 . S
C4116 C4115 1.366 . S
C4116 C4117 1.414 . S
C4116 C4119 1.499 . S
C4117 H4091 0.950 . S
C4117 C4116 1.414 . S
C4117 C4118 1.374 . S
C4118 H4092 0.950 . S
C4118 C4114 1.385 . S
C4118 C4117 1.374 . S
C4119 C4116 1.499 . S
C4119 C4120 1.373 . S
C4119 C4121 1.389 . S
C4120 H4093 0.950 . S
C4120 C4106 1.377 . S
C4120 C4119 1.373 . S
C4121 C4105 1.377 . S
C4121 C4119 1.389 . S
C4121 C4122 1.524 . S
C4122 C4121 1.524 . S
C4122 C4123 1.397 . S
C4122 C4127 1.363 . S
C4123 H4094 0.950 . S
C4123 C4122 1.397 . S
C4123 C4124 1.334 . S
C4124 H4095 0.950 . S
C4124 C4123 1.334 . S
C4124 C4125 1.287 . S
C4125 C4124 1.287 . S
C4125 C4126 1.524 . S
C4125 H4128 0.999 . S
C4126 H4096 0.950 . S
C4126 C4125 1.524 . S
C4126 C4127 1.415 . S
C4127 H4097 0.950 . S
C4127 C4122 1.363 . S
C4127 C4126 1.415 . S
H4128 C4125 0.999 . S
H4129 C4110 0.913 . S
H4130 C4148 0.951 . S
H4131 C4150 0.951 . S
H4132 C4152 0.950 . S
H4133 C4153 0.950 . S
H4134 C4155 0.950 . S
H4135 C4158 0.950 . S
H4136 C4159 0.950 . S
H4137 C4161 0.950 . S
H4138 C4162 0.950 . S
H4139 C4163 0.951 . S
H4140 C4165 0.951 . S
H4141 C4167 0.950 . S
H4142 C4168 0.950 . S
H4143 C4170 0.950 . S
H4144 C4173 0.950 . S
H4145 C4174 0.950 . S
H4146 C4176 0.950 . S
H4147 C4177 0.950 . S
C4148 H4130 0.951 . S
C4148 C4149 1.366 . S
C4148 C4150 1.388 . S
C4149 C4148 1.366 . S
C4149 C4153 1.385 . S
C4150 H4131 0.951 . S
C4150 C4148 1.388 . S
C4150 C4151 1.366 . S
C4151 C4150 1.366 . S
C4151 C4152 1.414 . S
C4151 C4154 1.499 . S
C4152 H4132 0.950 . S
C4152 C4151 1.414 . S
C4152 C4153 1.374 . S
C4153 H4133 0.950 . S
C4153 C4149 1.385 . S
C4153 C4152 1.374 . S
C4154 C4151 1.499 . S
C4154 C4155 1.373 . S
C4154 C4156 1.389 . S
C4155 H4134 0.950 . S
C4155 C4154 1.373 . S
C4155 C4171 1.377 . S
C4156 C4154 1.389 . S
C4156 C4157 1.524 . S
C4156 C4170 1.377 . S
C4157 C4156 1.524 . S
C4157 C4158 1.397 . S
C4157 C4162 1.363 . S
C4158 H4135 0.950 . S
C4158 C4157 1.397 . S
C4158 C4159 1.334 . S
C4159 H4136 0.950 . S
C4159 C4158 1.334 . S
C4159 C4160 1.287 . S
C4160 C4159 1.287 . S
C4160 C4161 1.524 . S
C4160 H4179 0.913 . S
C4161 H4137 0.950 . S
C4161 C4160 1.524 . S
C4161 C4162 1.415 . S
C4162 H4138 0.950 . S
C4162 C4157 1.363 . S
C4162 C4161 1.415 . S
C4163 H4139 0.951 . S
C4163 C4164 1.366 . S
C4163 C4165 1.388 . S
C4164 C4163 1.366 . S
C4164 C4168 1.385 . S
C4165 H4140 0.951 . S
C4165 C4163 1.388 . S
C4165 C4166 1.366 . S
C4166 C4165 1.366 . S
C4166 C4167 1.414 . S
C4166 C4169 1.499 . S
C4167 H4141 0.950 . S
C4167 C4166 1.414 . S
C4167 C4168 1.374 . S
C4168 H4142 0.950 . S
C4168 C4164 1.385 . S
C4168 C4167 1.374 . S
C4169 C4166 1.499 . S
C4169 C4170 1.373 . S
C4169 C4171 1.389 . S
C4170 H4143 0.950 . S
C4170 C4156 1.377 . S
C4170 C4169 1.373 . S
C4171 C4155 1.377 . S
C4171 C4169 1.389 . S
C4171 C4172 1.524 . S
C4172 C4171 1.524 . S
C4172 C4173 1.397 . S
C4172 C4177 1.363 . S
C4173 H4144 0.950 . S
C4173 C4172 1.397 . S
C4173 C4174 1.334 . S
C4174 H4145 0.950 . S
C4174 C4173 1.334 . S
C4174 C4175 1.287 . S
C4175 C4174 1.287 . S
C4175 C4176 1.524 . S
C4175 H4178 0.999 . S
C4176 H4146 0.950 . S
C4176 C4175 1.524 . S
C4176 C4177 1.415 . S
C4177 H4147 0.950 . S
C4177 C4172 1.363 . S
C4177 C4176 1.415 . S
H4178 C4175 0.999 . S
H4179 C4160 0.913 . S
H4180 C4198 0.951 . S
H4181 C4200 0.951 . S
H4182 C4202 0.950 . S
H4183 C4203 0.950 . S
H4184 C4205 0.950 . S
H4185 C4208 0.950 . S
H4186 C4209 0.950 . S
H4187 C4211 0.950 . S
H4188 C4212 0.899 1_554 S
H4189 C4213 0.951 . S
H4190 C4215 0.951 . S
H4191 C4217 0.950 1_655 S
H4192 C4218 0.950 1_655 S
H4193 C4220 0.950 . S
H4194 C4223 0.950 . S
H4195 C4224 0.950 . S
H4196 C4226 0.950 . S
H4197 C4227 0.950 . S
C4198 H4180 0.951 . S
C4198 C4199 1.366 1_655 S
C4198 C4200 1.388 . S
C4199 C4198 1.366 1_455 S
C4199 C4203 1.385 . S
C4200 H4181 0.951 . S
C4200 C4198 1.388 . S
C4200 C4201 1.366 1_655 S
C4201 C4200 1.366 1_455 S
C4201 C4202 1.414 . S
C4201 C4204 1.499 . S
C4202 H4182 0.950 . S
C4202 C4201 1.414 . S
C4202 C4203 1.374 . S
C4203 H4183 0.950 . S
C4203 C4199 1.385 . S
C4203 C4202 1.374 . S
C4204 C4201 1.499 . S
C4204 C4205 1.373 . S
C4204 C4206 1.389 1_455 S
C4205 H4184 0.950 . S
C4205 C4204 1.373 . S
C4205 C4221 1.377 . S
C4206 C4204 1.389 1_655 S
C4206 C4207 1.524 . S
C4206 C4220 1.377 . S
C4207 C4206 1.524 . S
C4207 C4208 1.397 . S
C4207 C4212 1.363 . S
C4208 H4185 0.950 . S
C4208 C4207 1.397 . S
C4208 C4209 1.334 . S
C4209 H4186 0.950 . S
C4209 C4208 1.334 . S
C4209 C4210 1.287 . S
C4210 C4209 1.287 . S
C4210 C4211 1.524 . S
C4210 H4229 0.913 . S
C4211 H4187 0.950 . S
C4211 C4210 1.524 . S
C4211 C4212 1.415 . S
C4212 H4188 0.899 1_556 S
C4212 C4207 1.363 . S
C4212 C4211 1.415 . S
C4213 H4189 0.951 . S
C4213 C4214 1.366 1_556 S
C4213 C4215 1.388 . S
C4214 C4213 1.366 1_554 S
C4214 C4218 1.385 . S
C4215 H4190 0.951 . S
C4215 C4213 1.388 . S
C4215 C4216 1.366 . S
C4216 C4215 1.366 . S
C4216 C4217 1.414 1_556 S
C4216 C4219 1.499 . S
C4217 H4191 0.950 1_455 S
C4217 C4216 1.414 1_554 S
C4217 C4218 1.374 . S
C4218 H4192 0.950 1_455 S
C4218 C4214 1.385 . S
C4218 C4217 1.374 . S
C4219 C4216 1.499 . S
C4219 C4220 1.373 1_455 S
C4219 C4221 1.389 . S
C4220 H4193 0.950 . S
C4220 C4206 1.377 . S
C4220 C4219 1.373 1_655 S
C4221 C4205 1.377 . S
C4221 C4219 1.389 . S
C4221 C4222 1.524 . S
C4222 C4221 1.524 . S
C4222 C4223 1.397 1_556 S
C4222 C4227 1.363 . S
C4223 H4194 0.950 . S
C4223 C4222 1.397 1_554 S
C4223 C4224 1.334 . S
C4224 H4195 0.950 . S
C4224 C4223 1.334 . S
C4224 C4225 1.287 . S
C4225 C4224 1.287 . S
C4225 C4226 1.524 1_554 S
C4225 H4228 0.999 . S
C4226 H4196 0.950 . S
C4226 C4225 1.524 1_556 S
C4226 C4227 1.415 . S
C4227 H4197 0.950 . S
C4227 C4222 1.363 . S
C4227 C4226 1.415 . S
H4228 C4225 0.999 . S
H4229 C4210 0.913 . S
H4230 C4248 0.951 . S
H4231 C4250 0.951 . S
H4232 C4252 0.950 . S
H4233 C4253 0.950 . S
H4234 C4255 0.950 . S
H4235 C4258 0.950 . S
H4236 C4259 0.950 . S
H4237 C4261 0.950 . S
H4238 C4262 0.950 . S
H4239 C4263 0.951 . S
H4240 C4265 0.951 . S
H4241 C4267 0.950 . S
H4242 C4268 0.950 . S
H4243 C4270 0.950 . S
H4244 C4273 0.950 . S
H4245 C4274 0.950 . S
H4246 C4276 0.950 . S
H4247 C4277 0.950 . S
C4248 H4230 0.951 . S
C4248 C4249 1.366 1_655 S
C4248 C4250 1.388 . S
C4249 C4248 1.366 1_455 S
C4249 C4253 1.385 . S
C4250 H4231 0.951 . S
C4250 C4248 1.388 . S
C4250 C4251 1.366 . S
C4251 C4250 1.366 . S
C4251 C4252 1.414 . S
C4251 C4254 1.499 . S
C4252 H4232 0.950 . S
C4252 C4251 1.414 . S
C4252 C4253 1.374 1_655 S
C4253 H4233 0.950 . S
C4253 C4249 1.385 . S
C4253 C4252 1.374 1_455 S
C4254 C4251 1.499 . S
C4254 C4255 1.373 . S
C4254 C4256 1.389 . S
C4255 H4234 0.950 . S
C4255 C4254 1.373 . S
C4255 C4271 1.377 . S
C4256 C4254 1.389 . S
C4256 C4257 1.524 . S
C4256 C4270 1.377 . S
C4257 C4256 1.524 . S
C4257 C4258 1.397 . S
C4257 C4262 1.363 . S
C4258 H4235 0.950 . S
C4258 C4257 1.397 . S
C4258 C4259 1.334 . S
C4259 H4236 0.950 . S
C4259 C4258 1.334 . S
C4259 C4260 1.287 . S
C4260 C4259 1.287 . S
C4260 C4261 1.524 . S
C4260 H4279 0.913 . S
C4261 H4237 0.950 . S
C4261 C4260 1.524 . S
C4261 C4262 1.415 . S
C4262 H4238 0.950 . S
C4262 C4257 1.363 . S
C4262 C4261 1.415 . S
C4263 H4239 0.951 . S
C4263 C4264 1.366 . S
C4263 C4265 1.388 . S
C4264 C4263 1.366 . S
C4264 C4268 1.385 . S
C4265 H4240 0.951 . S
C4265 C4263 1.388 . S
C4265 C4266 1.366 . S
C4266 C4265 1.366 . S
C4266 C4267 1.414 . S
C4266 C4269 1.499 . S
C4267 H4241 0.950 . S
C4267 C4266 1.414 . S
C4267 C4268 1.374 . S
C4268 H4242 0.950 . S
C4268 C4264 1.385 . S
C4268 C4267 1.374 . S
C4269 C4266 1.499 . S
C4269 C4270 1.373 . S
C4269 C4271 1.389 . S
C4270 H4243 0.950 . S
C4270 C4256 1.377 . S
C4270 C4269 1.373 . S
C4271 C4255 1.377 . S
C4271 C4269 1.389 . S
C4271 C4272 1.524 . S
C4272 C4271 1.524 . S
C4272 C4273 1.397 . S
C4272 C4277 1.363 . S
C4273 H4244 0.950 . S
C4273 C4272 1.397 . S
C4273 C4274 1.334 . S
C4274 H4245 0.950 . S
C4274 C4273 1.334 . S
C4274 C4275 1.287 . S
C4275 C4274 1.287 . S
C4275 C4276 1.524 . S
C4275 H4278 0.999 . S
C4276 H4246 0.950 . S
C4276 C4275 1.524 . S
C4276 C4277 1.415 . S
C4277 H4247 0.950 . S
C4277 C4272 1.363 . S
C4277 C4276 1.415 . S
H4278 C4275 0.999 . S
H4279 C4260 0.913 . S
H4280 C4298 0.951 . S
H4281 C4300 0.951 . S
H4282 C4302 0.950 . S
H4283 C4303 0.950 . S
H4284 C4305 0.950 . S
H4285 C4308 0.950 . S
H4286 C4309 0.950 . S
H4287 C4311 0.950 . S
H4288 C4312 0.950 . S
H4289 C4313 0.951 . S
H4290 C4315 0.951 . S
H4291 C4317 0.950 . S
H4292 C4318 0.950 . S
H4293 C4320 0.950 . S
H4294 C4323 0.950 . S
H4295 C4324 0.950 . S
H4296 C4326 0.950 . S
H4297 C4327 0.950 . S
C4298 H4280 0.951 . S
C4298 C4299 1.366 . S
C4298 C4300 1.388 . S
C4299 C4298 1.366 . S
C4299 C4303 1.385 . S
C4300 H4281 0.951 . S
C4300 C4298 1.388 . S
C4300 C4301 1.366 . S
C4301 C4300 1.366 . S
C4301 C4302 1.414 . S
C4301 C4304 1.499 . S
C4302 H4282 0.950 . S
C4302 C4301 1.414 . S
C4302 C4303 1.374 . S
C4303 H4283 0.950 . S
C4303 C4299 1.385 . S
C4303 C4302 1.374 . S
C4304 C4301 1.499 . S
C4304 C4305 1.373 . S
C4304 C4306 1.389 . S
C4305 H4284 0.950 . S
C4305 C4304 1.373 . S
C4305 C4321 1.377 . S
C4306 C4304 1.389 . S
C4306 C4307 1.524 . S
C4306 C4320 1.377 . S
C4307 C4306 1.524 . S
C4307 C4308 1.397 . S
C4307 C4312 1.363 . S
C4308 H4285 0.950 . S
C4308 C4307 1.397 . S
C4308 C4309 1.334 . S
C4309 H4286 0.950 . S
C4309 C4308 1.334 . S
C4309 C4310 1.287 . S
C4310 C4309 1.287 . S
C4310 C4311 1.524 . S
C4310 H4329 0.913 . S
C4311 H4287 0.950 . S
C4311 C4310 1.524 . S
C4311 C4312 1.415 . S
C4312 H4288 0.950 . S
C4312 C4307 1.363 . S
C4312 C4311 1.415 . S
C4313 H4289 0.951 . S
C4313 C4314 1.366 . S
C4313 C4315 1.388 . S
C4314 C4313 1.366 . S
C4314 C4318 1.385 . S
C4315 H4290 0.951 . S
C4315 C4313 1.388 . S
C4315 C4316 1.366 . S
C4316 C4315 1.366 . S
C4316 C4317 1.414 . S
C4316 C4319 1.499 . S
C4317 H4291 0.950 . S
C4317 C4316 1.414 . S
C4317 C4318 1.374 . S
C4318 H4292 0.950 . S
C4318 C4314 1.385 . S
C4318 C4317 1.374 . S
C4319 C4316 1.499 . S
C4319 C4320 1.373 . S
C4319 C4321 1.389 . S
C4320 H4293 0.950 . S
C4320 C4306 1.377 . S
C4320 C4319 1.373 . S
C4321 C4305 1.377 . S
C4321 C4319 1.389 . S
C4321 C4322 1.524 . S
C4322 C4321 1.524 . S
C4322 C4323 1.397 . S
C4322 C4327 1.363 . S
C4323 H4294 0.950 . S
C4323 C4322 1.397 . S
C4323 C4324 1.334 . S
C4324 H4295 0.950 . S
C4324 C4323 1.334 . S
C4324 C4325 1.287 . S
C4325 C4324 1.287 . S
C4325 C4326 1.524 . S
C4325 H4328 0.999 . S
C4326 H4296 0.950 . S
C4326 C4325 1.524 . S
C4326 C4327 1.415 . S
C4327 H4297 0.950 . S
C4327 C4322 1.363 . S
C4327 C4326 1.415 . S
H4328 C4325 0.999 . S
H4329 C4310 0.913 . S
H4330 C4348 0.951 . S
H4331 C4350 0.951 . S
H4332 C4352 0.950 . S
H4333 C4353 0.950 . S
H4334 C4355 0.950 . S
H4335 C4358 0.950 . S
H4336 C4359 0.950 . S
H4337 C4361 0.950 . S
H4338 C4362 0.950 . S
H4339 C4363 0.951 . S
H4340 C4365 0.951 . S
H4341 C4367 0.950 . S
H4342 C4368 0.950 . S
H4343 C4370 0.950 . S
H4344 C4373 0.950 . S
H4345 C4374 0.950 . S
H4346 C4376 0.950 . S
H4347 C4377 0.950 . S
C4348 H4330 0.951 . S
C4348 C4349 1.366 . S
C4348 C4350 1.388 . S
C4349 C4348 1.366 . S
C4349 C4353 1.385 . S
C4350 H4331 0.951 . S
C4350 C4348 1.388 . S
C4350 C4351 1.366 . S
C4351 C4350 1.366 . S
C4351 C4352 1.414 . S
C4351 C4354 1.499 . S
C4352 H4332 0.950 . S
C4352 C4351 1.414 . S
C4352 C4353 1.374 . S
C4353 H4333 0.950 . S
C4353 C4349 1.385 . S
C4353 C4352 1.374 . S
C4354 C4351 1.499 . S
C4354 C4355 1.373 . S
C4354 C4356 1.389 . S
C4355 H4334 0.950 . S
C4355 C4354 1.373 . S
C4355 C4371 1.377 . S
C4356 C4354 1.389 . S
C4356 C4357 1.524 . S
C4356 C4370 1.377 . S
C4357 C4356 1.524 . S
C4357 C4358 1.397 . S
C4357 C4362 1.363 . S
C4358 H4335 0.950 . S
C4358 C4357 1.397 . S
C4358 C4359 1.334 . S
C4359 H4336 0.950 . S
C4359 C4358 1.334 . S
C4359 C4360 1.287 . S
C4360 C4359 1.287 . S
C4360 C4361 1.524 . S
C4360 H4379 0.913 . S
C4361 H4337 0.950 . S
C4361 C4360 1.524 . S
C4361 C4362 1.415 . S
C4362 H4338 0.950 . S
C4362 C4357 1.363 . S
C4362 C4361 1.415 . S
C4363 H4339 0.951 . S
C4363 C4364 1.366 . S
C4363 C4365 1.388 . S
C4364 C4363 1.366 . S
C4364 C4368 1.385 . S
C4365 H4340 0.951 . S
C4365 C4363 1.388 . S
C4365 C4366 1.366 . S
C4366 C4365 1.366 . S
C4366 C4367 1.414 . S
C4366 C4369 1.499 . S
C4367 H4341 0.950 . S
C4367 C4366 1.414 . S
C4367 C4368 1.374 . S
C4368 H4342 0.950 . S
C4368 C4364 1.385 . S
C4368 C4367 1.374 . S
C4369 C4366 1.499 . S
C4369 C4370 1.373 . S
C4369 C4371 1.389 . S
C4370 H4343 0.950 . S
C4370 C4356 1.377 . S
C4370 C4369 1.373 . S
C4371 C4355 1.377 . S
C4371 C4369 1.389 . S
C4371 C4372 1.524 . S
C4372 C4371 1.524 . S
C4372 C4373 1.397 . S
C4372 C4377 1.363 . S
C4373 H4344 0.950 . S
C4373 C4372 1.397 . S
C4373 C4374 1.334 . S
C4374 H4345 0.950 . S
C4374 C4373 1.334 . S
C4374 C4375 1.287 . S
C4375 C4374 1.287 . S
C4375 C4376 1.524 . S
C4375 H4378 0.999 . S
C4376 H4346 0.950 . S
C4376 C4375 1.524 . S
C4376 C4377 1.415 . S
C4377 H4347 0.950 . S
C4377 C4372 1.363 . S
C4377 C4376 1.415 . S
H4378 C4375 0.999 . S
H4379 C4360 0.913 . S
H4380 C4398 0.951 . S
H4381 C4400 0.951 . S
H4382 C4402 0.950 . S
H4383 C4403 0.950 . S
H4384 C4405 0.950 . S
H4385 C4408 0.950 . S
H4386 C4409 0.950 . S
H4387 C4411 0.950 . S
H4388 C4412 0.950 . S
H4389 C4413 0.950 1_655 S
H4390 C4415 1.010 . S
H4391 C4417 0.950 . S
H4392 C4418 0.950 . S
H4393 C4420 0.950 . S
H4394 C4423 0.950 . S
H4395 C4424 0.950 . S
H4396 C4426 0.950 . S
H4397 C4427 0.950 . S
C4398 H4380 0.951 . S
C4398 C4399 1.366 . S
C4398 C4400 1.388 . S
C4399 C4398 1.366 . S
C4399 C4403 1.385 1_455 S
C4400 H4381 0.951 . S
C4400 C4398 1.388 . S
C4400 C4401 1.366 . S
C4401 C4400 1.366 . S
C4401 C4402 1.414 1_455 S
C4401 C4404 1.499 . S
C4402 H4382 0.950 . S
C4402 C4401 1.414 1_655 S
C4402 C4403 1.374 . S
C4403 H4383 0.950 . S
C4403 C4399 1.385 1_655 S
C4403 C4402 1.374 . S
C4404 C4401 1.499 . S
C4404 C4405 1.373 1_455 S
C4404 C4406 1.389 . S
C4405 H4384 0.950 . S
C4405 C4404 1.373 1_655 S
C4405 C4421 1.377 . S
C4406 C4404 1.389 . S
C4406 C4407 1.524 . S
C4406 C4420 1.377 . S
C4407 C4406 1.524 . S
C4407 C4408 1.397 . S
C4407 C4412 1.363 . S
C4408 H4385 0.950 . S
C4408 C4407 1.397 . S
C4408 C4409 1.334 . S
C4409 H4386 0.950 . S
C4409 C4408 1.334 . S
C4409 C4410 1.287 . S
C4410 C4409 1.287 . S
C4410 C4411 1.524 . S
C4410 H4429 0.913 . S
C4411 H4387 0.950 . S
C4411 C4410 1.524 . S
C4411 C4412 1.415 . S
C4412 H4388 0.950 . S
C4412 C4407 1.363 . S
C4412 C4411 1.415 . S
C4413 H4389 0.950 1_455 S
C4413 C4414 1.367 . S
C4413 C4415 1.368 1_455 S
C4414 C4413 1.367 . S
C4414 C4418 1.385 . S
C4415 H4390 1.010 . S
C4415 C4413 1.368 1_655 S
C4415 C4416 1.329 1_655 S
C4416 C4415 1.329 1_455 S
C4416 C4417 1.414 . S
C4416 C4419 1.499 . S
C4417 H4391 0.950 . S
C4417 C4416 1.414 . S
C4417 C4418 1.374 . S
C4418 H4392 0.950 . S
C4418 C4414 1.385 . S
C4418 C4417 1.374 . S
C4419 C4416 1.499 . S
C4419 C4420 1.373 . S
C4419 C4421 1.389 1_455 S
C4420 H4393 0.950 . S
C4420 C4406 1.377 . S
C4420 C4419 1.373 . S
C4421 C4405 1.377 . S
C4421 C4419 1.389 1_655 S
C4421 C4422 1.524 . S
C4422 C4421 1.524 . S
C4422 C4423 1.397 . S
C4422 C4427 1.363 . S
C4423 H4394 0.950 . S
C4423 C4422 1.397 . S
C4423 C4424 1.334 . S
C4424 H4395 0.950 . S
C4424 C4423 1.334 . S
C4424 C4425 1.287 . S
C4425 C4424 1.287 . S
C4425 C4426 1.524 . S
C4425 H4428 0.999 . S
C4426 H4396 0.950 . S
C4426 C4425 1.524 . S
C4426 C4427 1.415 . S
C4427 H4397 0.950 . S
C4427 C4422 1.363 . S
C4427 C4426 1.415 . S
H4428 C4425 0.999 . S
H4429 C4410 0.913 . S
H4430 C4448 0.951 . S
H4431 C4450 0.951 . S
H4432 C4452 0.950 . S
H4433 C4453 0.950 . S
H4434 C4455 0.950 . S
H4435 C4458 0.950 . S
H4436 C4459 0.950 . S
H4437 C4461 0.950 . S
H4438 C4462 0.950 . S
H4439 C4463 0.951 . S
H4440 C4465 0.951 . S
H4441 C4467 0.950 . S
H4442 C4468 0.950 . S
H4443 C4470 0.950 . S
H4444 C4473 0.950 . S
H4445 C4474 0.950 . S
H4446 C4476 0.950 . S
H4447 C4477 0.950 . S
C4448 H4430 0.951 . S
C4448 C4449 1.366 . S
C4448 C4450 1.388 . S
C4449 C4448 1.366 . S
C4449 C4453 1.385 . S
C4450 H4431 0.951 . S
C4450 C4448 1.388 . S
C4450 C4451 1.366 . S
C4451 C4450 1.366 . S
C4451 C4452 1.414 . S
C4451 C4454 1.499 . S
C4452 H4432 0.950 . S
C4452 C4451 1.414 . S
C4452 C4453 1.374 . S
C4453 H4433 0.950 . S
C4453 C4449 1.385 . S
C4453 C4452 1.374 . S
C4454 C4451 1.499 . S
C4454 C4455 1.373 . S
C4454 C4456 1.389 . S
C4455 H4434 0.950 . S
C4455 C4454 1.373 . S
C4455 C4471 1.377 . S
C4456 C4454 1.389 . S
C4456 C4457 1.524 . S
C4456 C4470 1.377 . S
C4457 C4456 1.524 . S
C4457 C4458 1.397 . S
C4457 C4462 1.363 . S
C4458 H4435 0.950 . S
C4458 C4457 1.397 . S
C4458 C4459 1.334 . S
C4459 H4436 0.950 . S
C4459 C4458 1.334 . S
C4459 C4460 1.287 . S
C4460 C4459 1.287 . S
C4460 C4461 1.524 . S
C4460 H4479 0.913 . S
C4461 H4437 0.950 . S
C4461 C4460 1.524 . S
C4461 C4462 1.415 . S
C4462 H4438 0.950 . S
C4462 C4457 1.363 . S
C4462 C4461 1.415 . S
C4463 H4439 0.951 . S
C4463 C4464 1.366 . S
C4463 C4465 1.388 . S
C4464 C4463 1.366 . S
C4464 C4468 1.385 . S
C4465 H4440 0.951 . S
C4465 C4463 1.388 . S
C4465 C4466 1.366 . S
C4466 C4465 1.366 . S
C4466 C4467 1.414 . S
C4466 C4469 1.499 . S
C4467 H4441 0.950 . S
C4467 C4466 1.414 . S
C4467 C4468 1.374 . S
C4468 H4442 0.950 . S
C4468 C4464 1.385 . S
C4468 C4467 1.374 . S
C4469 C4466 1.499 . S
C4469 C4470 1.373 . S
C4469 C4471 1.389 . S
C4470 H4443 0.950 . S
C4470 C4456 1.377 . S
C4470 C4469 1.373 . S
C4471 C4455 1.377 . S
C4471 C4469 1.389 . S
C4471 C4472 1.524 . S
C4472 C4471 1.524 . S
C4472 C4473 1.397 . S
C4472 C4477 1.363 . S
C4473 H4444 0.950 . S
C4473 C4472 1.397 . S
C4473 C4474 1.334 . S
C4474 H4445 0.950 . S
C4474 C4473 1.334 . S
C4474 C4475 1.287 . S
C4475 C4474 1.287 . S
C4475 C4476 1.524 . S
C4475 H4478 0.999 . S
C4476 H4446 0.950 . S
C4476 C4475 1.524 . S
C4476 C4477 1.415 . S
C4477 H4447 0.950 . S
C4477 C4472 1.363 . S
C4477 C4476 1.415 . S
H4478 C4475 0.999 . S
H4479 C4460 0.913 . S
H4480 C4498 0.951 . S
H4481 C4500 0.951 . S
H4482 C4502 0.950 . S
H4483 C4503 0.950 . S
H4484 C4505 0.950 . S
H4485 C4508 0.950 . S
H4486 C4509 0.950 . S
H4487 C4511 0.950 . S
H4488 C4512 0.950 . S
H4489 C4513 0.951 . S
H4490 C4515 0.951 . S
H4491 C4517 0.950 . S
H4492 C4518 0.950 . S
H4493 C4520 0.950 . S
H4494 C4523 0.950 . S
H4495 C4524 0.950 . S
H4496 C4526 0.950 . S
H4497 C4527 0.950 . S
C4498 H4480 0.951 . S
C4498 C4499 1.366 . S
C4498 C4500 1.388 . S
C4499 C4498 1.366 . S
C4499 C4503 1.385 . S
C4500 H4481 0.951 . S
C4500 C4498 1.388 . S
C4500 C4501 1.366 . S
C4501 C4500 1.366 . S
C4501 C4502 1.414 . S
C4501 C4504 1.499 . S
C4502 H4482 0.950 . S
C4502 C4501 1.414 . S
C4502 C4503 1.374 . S
C4503 H4483 0.950 . S
C4503 C4499 1.385 . S
C4503 C4502 1.374 . S
C4504 C4501 1.499 . S
C4504 C4505 1.373 . S
C4504 C4506 1.389 . S
C4505 H4484 0.950 . S
C4505 C4504 1.373 . S
C4505 C4521 1.377 . S
C4506 C4504 1.389 . S
C4506 C4507 1.524 . S
C4506 C4520 1.377 . S
C4507 C4506 1.524 . S
C4507 C4508 1.397 . S
C4507 C4512 1.363 . S
C4508 H4485 0.950 . S
C4508 C4507 1.397 . S
C4508 C4509 1.334 . S
C4509 H4486 0.950 . S
C4509 C4508 1.334 . S
C4509 C4510 1.287 . S
C4510 C4509 1.287 . S
C4510 C4511 1.524 . S
C4510 H4529 0.913 . S
C4511 H4487 0.950 . S
C4511 C4510 1.524 . S
C4511 C4512 1.415 . S
C4512 H4488 0.950 . S
C4512 C4507 1.363 . S
C4512 C4511 1.415 . S
C4513 H4489 0.951 . S
C4513 C4514 1.366 . S
C4513 C4515 1.388 . S
C4514 C4513 1.366 . S
C4514 C4518 1.385 . S
C4515 H4490 0.951 . S
C4515 C4513 1.388 . S
C4515 C4516 1.366 . S
C4516 C4515 1.366 . S
C4516 C4517 1.414 . S
C4516 C4519 1.499 . S
C4517 H4491 0.950 . S
C4517 C4516 1.414 . S
C4517 C4518 1.374 . S
C4518 H4492 0.950 . S
C4518 C4514 1.385 . S
C4518 C4517 1.374 . S
C4519 C4516 1.499 . S
C4519 C4520 1.373 . S
C4519 C4521 1.389 . S
C4520 H4493 0.950 . S
C4520 C4506 1.377 . S
C4520 C4519 1.373 . S
C4521 C4505 1.377 . S
C4521 C4519 1.389 . S
C4521 C4522 1.524 . S
C4522 C4521 1.524 . S
C4522 C4523 1.397 . S
C4522 C4527 1.363 . S
C4523 H4494 0.950 . S
C4523 C4522 1.397 . S
C4523 C4524 1.334 . S
C4524 H4495 0.950 . S
C4524 C4523 1.334 . S
C4524 C4525 1.287 . S
C4525 C4524 1.287 . S
C4525 C4526 1.524 . S
C4525 H4528 0.999 . S
C4526 H4496 0.950 . S
C4526 C4525 1.524 . S
C4526 C4527 1.415 . S
C4527 H4497 0.950 . S
C4527 C4522 1.363 . S
C4527 C4526 1.415 . S
H4528 C4525 0.999 . S
H4529 C4510 0.913 . S
H4530 C4548 0.951 . S
H4531 C4550 0.951 . S
H4532 C4552 0.950 . S
H4533 C4553 0.950 . S
H4534 C4555 0.950 . S
H4535 C4558 0.950 . S
H4536 C4559 0.950 . S
H4537 C4561 0.950 . S
H4538 C4562 0.950 . S
H4539 C4563 0.951 . S
H4540 C4565 0.951 . S
H4541 C4567 0.950 . S
H4542 C4568 0.950 . S
H4543 C4570 0.950 . S
H4544 C4573 0.950 . S
H4545 C4574 0.950 . S
H4546 C4576 0.950 . S
H4547 C4577 0.950 . S
C4548 H4530 0.951 . S
C4548 C4549 1.366 1_556 S
C4548 C4550 1.388 . S
C4549 C4548 1.366 1_554 S
C4549 C4553 1.385 . S
C4550 H4531 0.951 . S
C4550 C4548 1.388 . S
C4550 C4551 1.366 . S
C4551 C4550 1.366 . S
C4551 C4552 1.414 . S
C4551 C4554 1.499 . S
C4552 H4532 0.950 . S
C4552 C4551 1.414 . S
C4552 C4553 1.374 1_556 S
C4553 H4533 0.950 . S
C4553 C4549 1.385 . S
C4553 C4552 1.374 1_554 S
C4554 C4551 1.499 . S
C4554 C4555 1.373 . S
C4554 C4556 1.389 . S
C4555 H4534 0.950 . S
C4555 C4554 1.373 . S
C4555 C4571 1.377 . S
C4556 C4554 1.389 . S
C4556 C4557 1.524 . S
C4556 C4570 1.377 . S
C4557 C4556 1.524 . S
C4557 C4558 1.397 . S
C4557 C4562 1.363 . S
C4558 H4535 0.950 . S
C4558 C4557 1.397 . S
C4558 C4559 1.334 . S
C4559 H4536 0.950 . S
C4559 C4558 1.334 . S
C4559 C4560 1.287 . S
C4560 C4559 1.287 . S
C4560 C4561 1.524 . S
C4560 H4579 0.913 . S
C4561 H4537 0.950 . S
C4561 C4560 1.524 . S
C4561 C4562 1.415 . S
C4562 H4538 0.950 . S
C4562 C4557 1.363 . S
C4562 C4561 1.415 . S
C4563 H4539 0.951 . S
C4563 C4564 1.366 . S
C4563 C4565 1.388 . S
C4564 C4563 1.366 . S
C4564 C4568 1.385 . S
C4565 H4540 0.951 . S
C4565 C4563 1.388 . S
C4565 C4566 1.366 . S
C4566 C4565 1.366 . S
C4566 C4567 1.414 . S
C4566 C4569 1.499 . S
C4567 H4541 0.950 . S
C4567 C4566 1.414 . S
C4567 C4568 1.374 . S
C4568 H4542 0.950 . S
C4568 C4564 1.385 . S
C4568 C4567 1.374 . S
C4569 C4566 1.499 . S
C4569 C4570 1.373 . S
C4569 C4571 1.389 . S
C4570 H4543 0.950 . S
C4570 C4556 1.377 . S
C4570 C4569 1.373 . S
C4571 C4555 1.377 . S
C4571 C4569 1.389 . S
C4571 C4572 1.524 . S
C4572 C4571 1.524 . S
C4572 C4573 1.397 . S
C4572 C4577 1.363 . S
C4573 H4544 0.950 . S
C4573 C4572 1.397 . S
C4573 C4574 1.334 . S
C4574 H4545 0.950 . S
C4574 C4573 1.334 . S
C4574 C4575 1.287 . S
C4575 C4574 1.287 . S
C4575 C4576 1.524 . S
C4575 H4578 0.999 . S
C4576 H4546 0.950 . S
C4576 C4575 1.524 . S
C4576 C4577 1.415 . S
C4577 H4547 0.950 . S
C4577 C4572 1.363 . S
C4577 C4576 1.415 . S
H4578 C4575 0.999 . S
H4579 C4560 0.913 . S
H4580 C4598 0.951 . S
H4581 C4600 0.951 . S
H4582 C4602 0.950 . S
H4583 C4603 0.950 . S
H4584 C4605 0.950 . S
H4585 C4608 0.950 . S
H4586 C4609 0.950 . S
H4587 C4611 0.950 . S
H4588 C4612 0.950 . S
H4589 C4613 0.951 . S
H4590 C4615 0.951 . S
H4591 C4617 0.950 . S
H4592 C4618 0.950 . S
H4593 C4620 0.950 . S
H4594 C4623 0.950 . S
H4595 C4624 0.950 . S
H4596 C4626 0.950 . S
H4597 C4627 0.950 . S
C4598 H4580 0.951 . S
C4598 C4599 1.366 . S
C4598 C4600 1.388 . S
C4599 C4598 1.366 . S
C4599 C4603 1.385 . S
C4600 H4581 0.951 . S
C4600 C4598 1.388 . S
C4600 C4601 1.366 . S
C4601 C4600 1.366 . S
C4601 C4602 1.414 . S
C4601 C4604 1.499 . S
C4602 H4582 0.950 . S
C4602 C4601 1.414 . S
C4602 C4603 1.374 . S
C4603 H4583 0.950 . S
C4603 C4599 1.385 . S
C4603 C4602 1.374 . S
C4604 C4601 1.499 . S
C4604 C4605 1.373 . S
C4604 C4606 1.389 . S
C4605 H4584 0.950 . S
C4605 C4604 1.373 . S
C4605 C4621 1.377 . S
C4606 C4604 1.389 . S
C4606 C4607 1.524 . S
C4606 C4620 1.377 . S
C4607 C4606 1.524 . S
C4607 C4608 1.397 . S
C4607 C4612 1.363 . S
C4608 H4585 0.950 . S
C4608 C4607 1.397 . S
C4608 C4609 1.334 . S
C4609 H4586 0.950 . S
C4609 C4608 1.334 . S
C4609 C4610 1.287 . S
C4610 C4609 1.287 . S
C4610 C4611 1.524 . S
C4610 H4629 0.913 . S
C4611 H4587 0.950 . S
C4611 C4610 1.524 . S
C4611 C4612 1.415 . S
C4612 H4588 0.950 . S
C4612 C4607 1.363 . S
C4612 C4611 1.415 . S
C4613 H4589 0.951 . S
C4613 C4614 1.366 . S
C4613 C4615 1.388 . S
C4614 C4613 1.366 . S
C4614 C4618 1.385 . S
C4615 H4590 0.951 . S
C4615 C4613 1.388 . S
C4615 C4616 1.366 . S
C4616 C4615 1.366 . S
C4616 C4617 1.414 . S
C4616 C4619 1.499 . S
C4617 H4591 0.950 . S
C4617 C4616 1.414 . S
C4617 C4618 1.374 . S
C4618 H4592 0.950 . S
C4618 C4614 1.385 . S
C4618 C4617 1.374 . S
C4619 C4616 1.499 . S
C4619 C4620 1.373 . S
C4619 C4621 1.389 . S
C4620 H4593 0.950 . S
C4620 C4606 1.377 . S
C4620 C4619 1.373 . S
C4621 C4605 1.377 . S
C4621 C4619 1.389 . S
C4621 C4622 1.524 . S
C4622 C4621 1.524 . S
C4622 C4623 1.397 . S
C4622 C4627 1.363 . S
C4623 H4594 0.950 . S
C4623 C4622 1.397 . S
C4623 C4624 1.334 . S
C4624 H4595 0.950 . S
C4624 C4623 1.334 . S
C4624 C4625 1.287 . S
C4625 C4624 1.287 . S
C4625 C4626 1.524 . S
C4625 H4628 0.999 . S
C4626 H4596 0.950 . S
C4626 C4625 1.524 . S
C4626 C4627 1.415 . S
C4627 H4597 0.950 . S
C4627 C4622 1.363 . S
C4627 C4626 1.415 . S
H4628 C4625 0.999 . S
H4629 C4610 0.913 . S
H4630 C4648 0.951 . S
H4631 C4650 0.951 . S
H4632 C4652 0.950 . S
H4633 C4653 0.950 . S
H4634 C4655 0.950 . S
H4635 C4658 0.950 . S
H4636 C4659 0.950 . S
H4637 C4661 0.950 . S
H4638 C4662 0.950 . S
H4639 C4663 0.951 . S
H4640 C4665 0.951 . S
H4641 C4667 0.950 . S
H4642 C4668 0.950 . S
H4643 C4670 0.950 . S
H4644 C4673 0.950 . S
H4645 C4674 0.950 . S
H4646 C4676 0.950 . S
H4647 C4677 0.950 . S
C4648 H4630 0.951 . S
C4648 C4649 1.366 . S
C4648 C4650 1.388 . S
C4649 C4648 1.366 . S
C4649 C4653 1.385 . S
C4650 H4631 0.951 . S
C4650 C4648 1.388 . S
C4650 C4651 1.366 . S
C4651 C4650 1.366 . S
C4651 C4652 1.414 . S
C4651 C4654 1.499 . S
C4652 H4632 0.950 . S
C4652 C4651 1.414 . S
C4652 C4653 1.374 . S
C4653 H4633 0.950 . S
C4653 C4649 1.385 . S
C4653 C4652 1.374 . S
C4654 C4651 1.499 . S
C4654 C4655 1.373 . S
C4654 C4656 1.389 . S
C4655 H4634 0.950 . S
C4655 C4654 1.373 . S
C4655 C4671 1.377 . S
C4656 C4654 1.389 . S
C4656 C4657 1.524 . S
C4656 C4670 1.377 . S
C4657 C4656 1.524 . S
C4657 C4658 1.397 . S
C4657 C4662 1.363 . S
C4658 H4635 0.950 . S
C4658 C4657 1.397 . S
C4658 C4659 1.334 . S
C4659 H4636 0.950 . S
C4659 C4658 1.334 . S
C4659 C4660 1.287 . S
C4660 C4659 1.287 . S
C4660 C4661 1.524 . S
C4660 H4679 0.913 . S
C4661 H4637 0.950 . S
C4661 C4660 1.524 . S
C4661 C4662 1.415 . S
C4662 H4638 0.950 . S
C4662 C4657 1.363 . S
C4662 C4661 1.415 . S
C4663 H4639 0.951 . S
C4663 C4664 1.366 . S
C4663 C4665 1.388 . S
C4664 C4663 1.366 . S
C4664 C4668 1.385 . S
C4665 H4640 0.951 . S
C4665 C4663 1.388 . S
C4665 C4666 1.366 . S
C4666 C4665 1.366 . S
C4666 C4667 1.414 . S
C4666 C4669 1.499 . S
C4667 H4641 0.950 . S
C4667 C4666 1.414 . S
C4667 C4668 1.374 . S
C4668 H4642 0.950 . S
C4668 C4664 1.385 . S
C4668 C4667 1.374 . S
C4669 C4666 1.499 . S
C4669 C4670 1.373 . S
C4669 C4671 1.389 . S
C4670 H4643 0.950 . S
C4670 C4656 1.377 . S
C4670 C4669 1.373 . S
C4671 C4655 1.377 . S
C4671 C4669 1.389 . S
C4671 C4672 1.524 . S
C4672 C4671 1.524 . S
C4672 C4673 1.397 . S
C4672 C4677 1.363 . S
C4673 H4644 0.950 . S
C4673 C4672 1.397 . S
C4673 C4674 1.334 . S
C4674 H4645 0.950 . S
C4674 C4673 1.334 . S
C4674 C4675 1.287 . S
C4675 C4674 1.287 . S
C4675 C4676 1.524 . S
C4675 H4678 0.999 . S
C4676 H4646 0.950 . S
C4676 C4675 1.524 . S
C4676 C4677 1.415 . S
C4677 H4647 0.950 . S
C4677 C4672 1.363 . S
C4677 C4676 1.415 . S
H4678 C4675 0.999 . S
H4679 C4660 0.913 . S
H4680 C4698 0.951 . S
H4681 C4700 0.951 . S
H4682 C4702 0.950 . S
H4683 C4703 0.950 . S
H4684 C4705 0.950 . S
H4685 C4708 0.950 . S
H4686 C4709 0.950 . S
H4687 C4711 0.950 . S
H4688 C4712 0.950 . S
H4689 C4713 0.951 . S
H4690 C4715 0.951 . S
H4691 C4717 0.950 . S
H4692 C4718 0.950 . S
H4693 C4720 0.950 . S
H4694 C4723 0.950 . S
H4695 C4724 0.950 . S
H4696 C4726 0.950 . S
H4697 C4727 0.950 . S
C4698 H4680 0.951 . S
C4698 C4699 1.366 . S
C4698 C4700 1.388 . S
C4699 C4698 1.366 . S
C4699 C4703 1.385 . S
C4700 H4681 0.951 . S
C4700 C4698 1.388 . S
C4700 C4701 1.366 . S
C4701 C4700 1.366 . S
C4701 C4702 1.414 . S
C4701 C4704 1.499 . S
C4702 H4682 0.950 . S
C4702 C4701 1.414 . S
C4702 C4703 1.374 . S
C4703 H4683 0.950 . S
C4703 C4699 1.385 . S
C4703 C4702 1.374 . S
C4704 C4701 1.499 . S
C4704 C4705 1.373 . S
C4704 C4706 1.389 . S
C4705 H4684 0.950 . S
C4705 C4704 1.373 . S
C4705 C4721 1.377 . S
C4706 C4704 1.389 . S
C4706 C4707 1.524 . S
C4706 C4720 1.377 . S
C4707 C4706 1.524 . S
C4707 C4708 1.397 . S
C4707 C4712 1.363 . S
C4708 H4685 0.950 . S
C4708 C4707 1.397 . S
C4708 C4709 1.334 . S
C4709 H4686 0.950 . S
C4709 C4708 1.334 . S
C4709 C4710 1.287 . S
C4710 C4709 1.287 . S
C4710 C4711 1.524 . S
C4710 H4729 0.913 . S
C4711 H4687 0.950 . S
C4711 C4710 1.524 . S
C4711 C4712 1.415 . S
C4712 H4688 0.950 . S
C4712 C4707 1.363 . S
C4712 C4711 1.415 . S
C4713 H4689 0.951 . S
C4713 C4714 1.366 . S
C4713 C4715 1.388 . S
C4714 C4713 1.366 . S
C4714 C4718 1.385 . S
C4715 H4690 0.951 . S
C4715 C4713 1.388 . S
C4715 C4716 1.366 . S
C4716 C4715 1.366 . S
C4716 C4717 1.414 . S
C4716 C4719 1.499 . S
C4717 H4691 0.950 . S
C4717 C4716 1.414 . S
C4717 C4718 1.374 . S
C4718 H4692 0.950 . S
C4718 C4714 1.385 . S
C4718 C4717 1.374 . S
C4719 C4716 1.499 . S
C4719 C4720 1.373 . S
C4719 C4721 1.389 . S
C4720 H4693 0.950 . S
C4720 C4706 1.377 . S
C4720 C4719 1.373 . S
C4721 C4705 1.377 . S
C4721 C4719 1.389 . S
C4721 C4722 1.524 . S
C4722 C4721 1.524 . S
C4722 C4723 1.397 . S
C4722 C4727 1.363 . S
C4723 H4694 0.950 . S
C4723 C4722 1.397 . S
C4723 C4724 1.334 . S
C4724 H4695 0.950 . S
C4724 C4723 1.334 . S
C4724 C4725 1.287 . S
C4725 C4724 1.287 . S
C4725 C4726 1.524 . S
C4725 H4728 0.999 . S
C4726 H4696 0.950 . S
C4726 C4725 1.524 . S
C4726 C4727 1.415 . S
C4727 H4697 0.950 . S
C4727 C4722 1.363 . S
C4727 C4726 1.415 . S
H4728 C4725 0.999 . S
H4729 C4710 0.913 . S
H4730 C4748 0.951 . S
H4731 C4750 0.951 . S
H4732 C4752 0.950 . S
H4733 C4753 0.950 . S
H4734 C4755 0.950 . S
H4735 C4758 0.950 . S
H4736 C4759 0.950 . S
H4737 C4761 0.950 . S
H4738 C4762 0.950 . S
H4739 C4763 0.951 . S
H4740 C4765 0.951 . S
H4741 C4767 0.950 . S
H4742 C4768 0.950 . S
H4743 C4770 0.950 . S
H4744 C4773 0.950 . S
H4745 C4774 0.950 . S
H4746 C4776 0.950 . S
H4747 C4777 0.950 . S
C4748 H4730 0.951 . S
C4748 C4749 1.366 . S
C4748 C4750 1.388 . S
C4749 C4748 1.366 . S
C4749 C4753 1.385 . S
C4750 H4731 0.951 . S
C4750 C4748 1.388 . S
C4750 C4751 1.366 . S
C4751 C4750 1.366 . S
C4751 C4752 1.414 . S
C4751 C4754 1.499 . S
C4752 H4732 0.950 . S
C4752 C4751 1.414 . S
C4752 C4753 1.374 . S
C4753 H4733 0.950 . S
C4753 C4749 1.385 . S
C4753 C4752 1.374 . S
C4754 C4751 1.499 . S
C4754 C4755 1.373 . S
C4754 C4756 1.389 . S
C4755 H4734 0.950 . S
C4755 C4754 1.373 . S
C4755 C4771 1.377 . S
C4756 C4754 1.389 . S
C4756 C4757 1.524 . S
C4756 C4770 1.377 . S
C4757 C4756 1.524 . S
C4757 C4758 1.397 . S
C4757 C4762 1.363 . S
C4758 H4735 0.950 . S
C4758 C4757 1.397 . S
C4758 C4759 1.334 . S
C4759 H4736 0.950 . S
C4759 C4758 1.334 . S
C4759 C4760 1.287 . S
C4760 C4759 1.287 . S
C4760 C4761 1.524 . S
C4760 H4779 0.913 . S
C4761 H4737 0.950 . S
C4761 C4760 1.524 . S
C4761 C4762 1.415 . S
C4762 H4738 0.950 . S
C4762 C4757 1.363 . S
C4762 C4761 1.415 . S
C4763 H4739 0.951 . S
C4763 C4764 1.366 . S
C4763 C4765 1.388 . S
C4764 C4763 1.366 . S
C4764 C4768 1.385 . S
C4765 H4740 0.951 . S
C4765 C4763 1.388 . S
C4765 C4766 1.366 . S
C4766 C4765 1.366 . S
C4766 C4767 1.414 . S
C4766 C4769 1.499 . S
C4767 H4741 0.950 . S
C4767 C4766 1.414 . S
C4767 C4768 1.374 . S
C4768 H4742 0.950 . S
C4768 C4764 1.385 . S
C4768 C4767 1.374 . S
C4769 C4766 1.499 . S
C4769 C4770 1.373 . S
C4769 C4771 1.389 . S
C4770 H4743 0.950 . S
C4770 C4756 1.377 . S
C4770 C4769 1.373 . S
C4771 C4755 1.377 . S
C4771 C4769 1.389 . S
C4771 C4772 1.524 . S
C4772 C4771 1.524 . S
C4772 C4773 1.397 . S
C4772 C4777 1.363 . S
C4773 H4744 0.950 . S
C4773 C4772 1.397 . S
C4773 C4774 1.334 . S
C4774 H4745 0.950 . S
C4774 C4773 1.334 . S
C4774 C4775 1.287 . S
C4775 C4774 1.287 . S
C4775 C4776 1.524 . S
C4775 H4778 0.999 . S
C4776 H4746 0.950 . S
C4776 C4775 1.524 . S
C4776 C4777 1.415 . S
C4777 H4747 0.950 . S
C4777 C4772 1.363 . S
C4777 C4776 1.415 . S
H4778 C4775 0.999 . S
H4779 C4760 0.913 . S
H4780 C4798 0.951 . S
H4781 C4800 0.951 . S
H4782 C4802 0.950 . S
H4783 C4803 0.950 . S
H4784 C4805 0.950 . S
H4785 C4808 0.950 . S
H4786 C4809 0.950 . S
H4787 C4811 0.950 . S
H4788 C4812 0.950 . S
H4789 C4813 0.951 . S
H4790 C4815 0.951 . S
H4791 C4817 0.950 . S
H4792 C4818 0.950 . S
H4793 C4820 0.950 . S
H4794 C4823 0.950 . S
H4795 C4824 0.950 . S
H4796 C4826 0.950 . S
H4797 C4827 0.950 . S
C4798 H4780 0.951 . S
C4798 C4799 1.366 . S
C4798 C4800 1.388 . S
C4799 C4798 1.366 . S
C4799 C4803 1.385 . S
C4800 H4781 0.951 . S
C4800 C4798 1.388 . S
C4800 C4801 1.366 . S
C4801 C4800 1.366 . S
C4801 C4802 1.414 . S
C4801 C4804 1.499 . S
C4802 H4782 0.950 . S
C4802 C4801 1.414 . S
C4802 C4803 1.374 . S
C4803 H4783 0.950 . S
C4803 C4799 1.385 . S
C4803 C4802 1.374 . S
C4804 C4801 1.499 . S
C4804 C4805 1.373 . S
C4804 C4806 1.389 . S
C4805 H4784 0.950 . S
C4805 C4804 1.373 . S
C4805 C4821 1.377 . S
C4806 C4804 1.389 . S
C4806 C4807 1.524 . S
C4806 C4820 1.377 . S
C4807 C4806 1.524 . S
C4807 C4808 1.397 . S
C4807 C4812 1.363 . S
C4808 H4785 0.950 . S
C4808 C4807 1.397 . S
C4808 C4809 1.334 . S
C4809 H4786 0.950 . S
C4809 C4808 1.334 . S
C4809 C4810 1.287 . S
C4810 C4809 1.287 . S
C4810 C4811 1.524 . S
C4810 H4829 0.913 . S
C4811 H4787 0.950 . S
C4811 C4810 1.524 . S
C4811 C4812 1.415 . S
C4812 H4788 0.950 . S
C4812 C4807 1.363 . S
C4812 C4811 1.415 . S
C4813 H4789 0.951 . S
C4813 C4814 1.366 . S
C4813 C4815 1.388 . S
C4814 C4813 1.366 . S
C4814 C4818 1.385 . S
C4815 H4790 0.951 . S
C4815 C4813 1.388 . S
C4815 C4816 1.366 . S
C4816 C4815 1.366 . S
C4816 C4817 1.414 . S
C4816 C4819 1.499 . S
C4817 H4791 0.950 . S
C4817 C4816 1.414 . S
C4817 C4818 1.374 . S
C4818 H4792 0.950 . S
C4818 C4814 1.385 . S
C4818 C4817 1.374 . S
C4819 C4816 1.499 . S
C4819 C4820 1.373 . S
C4819 C4821 1.389 . S
C4820 H4793 0.950 . S
C4820 C4806 1.377 . S
C4820 C4819 1.373 . S
C4821 C4805 1.377 . S
C4821 C4819 1.389 . S
C4821 C4822 1.524 . S
C4822 C4821 1.524 . S
C4822 C4823 1.397 . S
C4822 C4827 1.363 . S
C4823 H4794 0.950 . S
C4823 C4822 1.397 . S
C4823 C4824 1.334 . S
C4824 H4795 0.950 . S
C4824 C4823 1.334 . S
C4824 C4825 1.287 . S
C4825 C4824 1.287 . S
C4825 C4826 1.524 . S
C4825 H4828 0.999 . S
C4826 H4796 0.950 . S
C4826 C4825 1.524 . S
C4826 C4827 1.415 . S
C4827 H4797 0.950 . S
C4827 C4822 1.363 . S
C4827 C4826 1.415 . S
H4828 C4825 0.999 . S
H4829 C4810 0.913 . S
H4830 C4848 0.951 . S
H4831 C4850 0.951 . S
H4832 C4852 0.950 . S
H4833 C4853 0.950 . S
H4834 C4855 0.950 . S
H4835 C4858 0.950 . S
H4836 C4859 0.950 . S
H4837 C4861 0.950 . S
H4838 C4862 0.950 . S
H4839 C4863 0.951 . S
H4840 C4865 0.951 . S
H4841 C4867 0.950 . S
H4842 C4868 0.950 . S
H4843 C4870 0.950 . S
H4844 C4873 0.950 . S
H4845 C4874 0.950 . S
H4846 C4876 0.950 . S
H4847 C4877 0.950 . S
C4848 H4830 0.951 . S
C4848 C4849 1.366 . S
C4848 C4850 1.388 . S
C4849 C4848 1.366 . S
C4849 C4853 1.385 . S
C4850 H4831 0.951 . S
C4850 C4848 1.388 . S
C4850 C4851 1.366 . S
C4851 C4850 1.366 . S
C4851 C4852 1.414 . S
C4851 C4854 1.499 . S
C4852 H4832 0.950 . S
C4852 C4851 1.414 . S
C4852 C4853 1.374 . S
C4853 H4833 0.950 . S
C4853 C4849 1.385 . S
C4853 C4852 1.374 . S
C4854 C4851 1.499 . S
C4854 C4855 1.373 . S
C4854 C4856 1.389 . S
C4855 H4834 0.950 . S
C4855 C4854 1.373 . S
C4855 C4871 1.377 . S
C4856 C4854 1.389 . S
C4856 C4857 1.524 . S
C4856 C4870 1.377 . S
C4857 C4856 1.524 . S
C4857 C4858 1.397 . S
C4857 C4862 1.363 . S
C4858 H4835 0.950 . S
C4858 C4857 1.397 . S
C4858 C4859 1.334 . S
C4859 H4836 0.950 . S
C4859 C4858 1.334 . S
C4859 C4860 1.287 . S
C4860 C4859 1.287 . S
C4860 C4861 1.524 . S
C4860 H4879 0.913 . S
C4861 H4837 0.950 . S
C4861 C4860 1.524 . S
C4861 C4862 1.415 . S
C4862 H4838 0.950 . S
C4862 C4857 1.363 . S
C4862 C4861 1.415 . S
C4863 H4839 0.951 . S
C4863 C4864 1.366 . S
C4863 C4865 1.388 . S
C4864 C4863 1.366 . S
C4864 C4868 1.385 . S
C4865 H4840 0.951 . S
C4865 C4863 1.388 . S
C4865 C4866 1.366 . S
C4866 C4865 1.366 . S
C4866 C4867 1.414 . S
C4866 C4869 1.499 . S
C4867 H4841 0.950 . S
C4867 C4866 1.414 . S
C4867 C4868 1.374 . S
C4868 H4842 0.950 . S
C4868 C4864 1.385 . S
C4868 C4867 1.374 . S
C4869 C4866 1.499 . S
C4869 C4870 1.373 . S
C4869 C4871 1.389 . S
C4870 H4843 0.950 . S
C4870 C4856 1.377 . S
C4870 C4869 1.373 . S
C4871 C4855 1.377 . S
C4871 C4869 1.389 . S
C4871 C4872 1.524 . S
C4872 C4871 1.524 . S
C4872 C4873 1.397 . S
C4872 C4877 1.363 . S
C4873 H4844 0.950 . S
C4873 C4872 1.397 . S
C4873 C4874 1.334 . S
C4874 H4845 0.950 . S
C4874 C4873 1.334 . S
C4874 C4875 1.287 . S
C4875 C4874 1.287 . S
C4875 C4876 1.524 . S
C4875 H4878 0.999 . S
C4876 H4846 0.950 . S
C4876 C4875 1.524 . S
C4876 C4877 1.415 . S
C4877 H4847 0.950 . S
C4877 C4872 1.363 . S
C4877 C4876 1.415 . S
H4878 C4875 0.999 . S
H4879 C4860 0.913 . S
H4880 C4898 0.951 . S
H4881 C4900 0.951 . S
H4882 C4902 0.950 . S
H4883 C4903 0.950 . S
H4884 C4905 0.950 . S
H4885 C4908 0.950 . S
H4886 C4909 0.950 . S
H4887 C4911 0.950 . S
H4888 C4912 0.950 . S
H4889 C4913 0.951 . S
H4890 C4915 0.951 . S
H4891 C4917 0.950 . S
H4892 C4918 0.950 . S
H4893 C4920 0.950 . S
H4894 C4923 0.950 . S
H4895 C4924 0.950 . S
H4896 C4926 0.950 . S
H4897 C4927 0.950 . S
C4898 H4880 0.951 . S
C4898 C4899 1.366 . S
C4898 C4900 1.388 . S
C4899 C4898 1.366 . S
C4899 C4903 1.385 . S
C4900 H4881 0.951 . S
C4900 C4898 1.388 . S
C4900 C4901 1.366 . S
C4901 C4900 1.366 . S
C4901 C4902 1.414 . S
C4901 C4904 1.499 . S
C4902 H4882 0.950 . S
C4902 C4901 1.414 . S
C4902 C4903 1.374 . S
C4903 H4883 0.950 . S
C4903 C4899 1.385 . S
C4903 C4902 1.374 . S
C4904 C4901 1.499 . S
C4904 C4905 1.373 . S
C4904 C4906 1.389 . S
C4905 H4884 0.950 . S
C4905 C4904 1.373 . S
C4905 C4921 1.377 . S
C4906 C4904 1.389 . S
C4906 C4907 1.524 . S
C4906 C4920 1.377 . S
C4907 C4906 1.524 . S
C4907 C4908 1.397 . S
C4907 C4912 1.363 . S
C4908 H4885 0.950 . S
C4908 C4907 1.397 . S
C4908 C4909 1.334 . S
C4909 H4886 0.950 . S
C4909 C4908 1.334 . S
C4909 C4910 1.287 . S
C4910 C4909 1.287 . S
C4910 C4911 1.524 . S
C4910 H4929 0.913 . S
C4911 H4887 0.950 . S
C4911 C4910 1.524 . S
C4911 C4912 1.415 . S
C4912 H4888 0.950 . S
C4912 C4907 1.363 . S
C4912 C4911 1.415 . S
C4913 H4889 0.951 . S
C4913 C4914 1.366 . S
C4913 C4915 1.388 . S
C4914 C4913 1.366 . S
C4914 C4918 1.385 . S
C4915 H4890 0.951 . S
C4915 C4913 1.388 . S
C4915 C4916 1.366 . S
C4916 C4915 1.366 . S
C4916 C4917 1.414 . S
C4916 C4919 1.499 . S
C4917 H4891 0.950 . S
C4917 C4916 1.414 . S
C4917 C4918 1.374 . S
C4918 H4892 0.950 . S
C4918 C4914 1.385 . S
C4918 C4917 1.374 . S
C4919 C4916 1.499 . S
C4919 C4920 1.373 . S
C4919 C4921 1.389 . S
C4920 H4893 0.950 . S
C4920 C4906 1.377 . S
C4920 C4919 1.373 . S
C4921 C4905 1.377 . S
C4921 C4919 1.389 . S
C4921 C4922 1.524 . S
C4922 C4921 1.524 . S
C4922 C4923 1.397 . S
C4922 C4927 1.363 . S
C4923 H4894 0.950 . S
C4923 C4922 1.397 . S
C4923 C4924 1.334 . S
C4924 H4895 0.950 . S
C4924 C4923 1.334 . S
C4924 C4925 1.287 . S
C4925 C4924 1.287 . S
C4925 C4926 1.524 . S
C4925 H4928 0.999 . S
C4926 H4896 0.950 . S
C4926 C4925 1.524 . S
C4926 C4927 1.415 . S
C4927 H4897 0.950 . S
C4927 C4922 1.363 . S
C4927 C4926 1.415 . S
H4928 C4925 0.999 . S
H4929 C4910 0.913 . S
H4930 C4948 0.951 . S
H4931 C4950 0.951 . S
H4932 C4952 0.950 . S
H4933 C4953 0.950 . S
H4934 C4955 0.950 . S
H4935 C4958 0.950 . S
H4936 C4959 0.950 . S
H4937 C4961 0.950 . S
H4938 C4962 0.950 . S
H4939 C4963 0.951 . S
H4940 C4965 0.951 . S
H4941 C4967 0.950 . S
H4942 C4968 0.950 . S
H4943 C4970 0.950 . S
H4944 C4973 0.950 . S
H4945 C4974 0.950 . S
H4946 C4976 0.950 . S
H4947 C4977 0.950 . S
C4948 H4930 0.951 . S
C4948 C4949 1.366 . S
C4948 C4950 1.388 . S
C4949 C4948 1.366 . S
C4949 C4953 1.385 . S
C4950 H4931 0.951 . S
C4950 C4948 1.388 . S
C4950 C4951 1.366 . S
C4951 C4950 1.366 . S
C4951 C4952 1.414 . S
C4951 C4954 1.499 . S
C4952 H4932 0.950 . S
C4952 C4951 1.414 . S
C4952 C4953 1.374 . S
C4953 H4933 0.950 . S
C4953 C4949 1.385 . S
C4953 C4952 1.374 . S
C4954 C4951 1.499 . S
C4954 C4955 1.373 . S
C4954 C4956 1.389 . S
C4955 H4934 0.950 . S
C4955 C4954 1.373 . S
C4955 C4971 1.377 . S
C4956 C4954 1.389 . S
C4956 C4957 1.524 . S
C4956 C4970 1.377 . S
C4957 C4956 1.524 . S
C4957 C4958 1.397 . S
C4957 C4962 1.363 . S
C4958 H4935 0.950 . S
C4958 C4957 1.397 . S
C4958 C4959 1.334 . S
C4959 H4936 0.950 . S
C4959 C4958 1.334 . S
C4959 C4960 1.287 . S
C4960 C4959 1.287 . S
C4960 C4961 1.524 . S
C4960 H4979 0.913 . S
C4961 H4937 0.950 . S
C4961 C4960 1.524 . S
C4961 C4962 1.415 . S
C4962 H4938 0.950 . S
C4962 C4957 1.363 . S
C4962 C4961 1.415 . S
C4963 H4939 0.951 . S
C4963 C4964 1.366 . S
C4963 C4965 1.388 . S
C4964 C4963 1.366 . S
C4964 C4968 1.385 . S
C4965 H4940 0.951 . S
C4965 C4963 1.388 . S
C4965 C4966 1.366 . S
C4966 C4965 1.366 . S
C4966 C4967 1.414 . S
C4966 C4969 1.499 . S
C4967 H4941 0.950 . S
C4967 C4966 1.414 . S
C4967 C4968 1.374 . S
C4968 H4942 0.950 . S
C4968 C4964 1.385 . S
C4968 C4967 1.374 . S
C4969 C4966 1.499 . S
C4969 C4970 1.373 . S
C4969 C4971 1.389 . S
C4970 H4943 0.950 . S
C4970 C4956 1.377 . S
C4970 C4969 1.373 . S
C4971 C4955 1.377 . S
C4971 C4969 1.389 . S
C4971 C4972 1.524 . S
C4972 C4971 1.524 . S
C4972 C4973 1.397 . S
C4972 C4977 1.363 . S
C4973 H4944 0.950 . S
C4973 C4972 1.397 . S
C4973 C4974 1.334 . S
C4974 H4945 0.950 . S
C4974 C4973 1.334 . S
C4974 C4975 1.287 . S
C4975 C4974 1.287 . S
C4975 C4976 1.524 . S
C4975 H4978 0.999 . S
C4976 H4946 0.950 . S
C4976 C4975 1.524 . S
C4976 C4977 1.415 . S
C4977 H4947 0.950 . S
C4977 C4972 1.363 . S
C4977 C4976 1.415 . S
H4978 C4975 0.999 . S
H4979 C4960 0.913 . S
H4980 C4998 0.951 . S
H4981 C5000 0.951 . S
H4982 C5002 0.950 . S
H4983 C5003 0.950 . S
H4984 C5005 0.950 . S
H4985 C5008 0.950 . S
H4986 C5009 0.950 . S
H4987 C5011 0.950 . S
H4988 C5012 0.950 . S
H4989 C5013 0.951 . S
H4990 C5015 0.951 . S
H4991 C5017 0.950 . S
H4992 C5018 0.950 . S
H4993 C5020 0.950 . S
H4994 C5023 0.950 . S
H4995 C5024 0.950 . S
H4996 C5026 0.950 . S
H4997 C5027 0.950 . S
C4998 H4980 0.951 . S
C4998 C4999 1.366 . S
C4998 C5000 1.388 . S
C4999 C4998 1.366 . S
C4999 C5003 1.385 . S
C5000 H4981 0.951 . S
C5000 C4998 1.388 . S
C5000 C5001 1.366 . S
C5001 C5000 1.366 . S
C5001 C5002 1.414 . S
C5001 C5004 1.499 . S
C5002 H4982 0.950 . S
C5002 C5001 1.414 . S
C5002 C5003 1.374 . S
C5003 H4983 0.950 . S
C5003 C4999 1.385 . S
C5003 C5002 1.374 . S
C5004 C5001 1.499 . S
C5004 C5005 1.373 . S
C5004 C5006 1.389 . S
C5005 H4984 0.950 . S
C5005 C5004 1.373 . S
C5005 C5021 1.377 . S
C5006 C5004 1.389 . S
C5006 C5007 1.524 . S
C5006 C5020 1.377 . S
C5007 C5006 1.524 . S
C5007 C5008 1.397 . S
C5007 C5012 1.363 . S
C5008 H4985 0.950 . S
C5008 C5007 1.397 . S
C5008 C5009 1.334 . S
C5009 H4986 0.950 . S
C5009 C5008 1.334 . S
C5009 C5010 1.287 . S
C5010 C5009 1.287 . S
C5010 C5011 1.524 . S
C5010 H5029 0.913 . S
C5011 H4987 0.950 . S
C5011 C5010 1.524 . S
C5011 C5012 1.415 . S
C5012 H4988 0.950 . S
C5012 C5007 1.363 . S
C5012 C5011 1.415 . S
C5013 H4989 0.951 . S
C5013 C5014 1.366 . S
C5013 C5015 1.388 . S
C5014 C5013 1.366 . S
C5014 C5018 1.385 . S
C5015 H4990 0.951 . S
C5015 C5013 1.388 . S
C5015 C5016 1.366 . S
C5016 C5015 1.366 . S
C5016 C5017 1.414 . S
C5016 C5019 1.499 . S
C5017 H4991 0.950 . S
C5017 C5016 1.414 . S
C5017 C5018 1.374 . S
C5018 H4992 0.950 . S
C5018 C5014 1.385 . S
C5018 C5017 1.374 . S
C5019 C5016 1.499 . S
C5019 C5020 1.373 . S
C5019 C5021 1.389 . S
C5020 H4993 0.950 . S
C5020 C5006 1.377 . S
C5020 C5019 1.373 . S
C5021 C5005 1.377 . S
C5021 C5019 1.389 . S
C5021 C5022 1.524 . S
C5022 C5021 1.524 . S
C5022 C5023 1.397 . S
C5022 C5027 1.363 . S
C5023 H4994 0.950 . S
C5023 C5022 1.397 . S
C5023 C5024 1.334 . S
C5024 H4995 0.950 . S
C5024 C5023 1.334 . S
C5024 C5025 1.287 . S
C5025 C5024 1.287 . S
C5025 C5026 1.524 . S
C5025 H5028 0.999 . S
C5026 H4996 0.950 . S
C5026 C5025 1.524 . S
C5026 C5027 1.415 . S
C5027 H4997 0.950 . S
C5027 C5022 1.363 . S
C5027 C5026 1.415 . S
H5028 C5025 0.999 . S
H5029 C5010 0.913 . S
H5030 C5048 0.949 1_556 S
H5031 C5050 0.964 . S
H5032 C5052 0.950 . S
H5033 C5053 0.950 . S
H5034 C5055 0.950 . S
H5035 C5058 0.950 . S
H5036 C5059 0.950 . S
H5037 C5061 0.933 1_545 S
H5038 C5062 0.950 1_545 S
H5039 C5063 0.951 . S
H5040 C5065 0.951 . S
H5041 C5067 0.950 . S
H5042 C5068 0.950 . S
H5043 C5070 0.950 . S
H5044 C5073 0.950 . S
H5045 C5074 0.950 . S
H5046 C5076 0.950 . S
H5047 C5077 0.950 . S
C5048 H5030 0.949 1_554 S
C5048 C5049 1.378 . S
C5048 C5050 1.382 . S
C5049 C5048 1.378 . S
C5049 C5053 1.385 . S
C5050 H5031 0.964 . S
C5050 C5048 1.382 . S
C5050 C5051 1.366 . S
C5051 C5050 1.366 . S
C5051 C5052 1.414 . S
C5051 C5054 1.499 . S
C5052 H5032 0.950 . S
C5052 C5051 1.414 . S
C5052 C5053 1.374 . S
C5053 H5033 0.950 . S
C5053 C5049 1.385 . S
C5053 C5052 1.374 . S
C5054 C5051 1.499 . S
C5054 C5055 1.373 . S
C5054 C5056 1.389 1_554 S
C5055 H5034 0.950 . S
C5055 C5054 1.373 . S
C5055 C5071 1.377 . S
C5056 C5054 1.389 1_556 S
C5056 C5057 1.524 . S
C5056 C5070 1.377 . S
C5057 C5056 1.524 . S
C5057 C5058 1.397 . S
C5057 C5062 1.363 . S
C5058 H5035 0.950 . S
C5058 C5057 1.397 . S
C5058 C5059 1.334 . S
C5059 H5036 0.950 . S
C5059 C5058 1.334 . S
C5059 C5060 1.287 . S
C5060 C5059 1.287 . S
C5060 C5061 1.537 . S
C5060 H5079 0.913 . S
C5061 H5037 0.933 1_565 S
C5061 C5060 1.537 . S
C5061 C5062 1.421 . S
C5062 H5038 0.950 1_565 S
C5062 C5057 1.363 . S
C5062 C5061 1.421 . S
C5063 H5039 0.951 . S
C5063 C5064 1.366 1_565 S
C5063 C5065 1.388 . S
C5064 C5063 1.366 1_545 S
C5064 C5068 1.385 . S
C5065 H5040 0.951 . S
C5065 C5063 1.388 . S
C5065 C5066 1.366 . S
C5066 C5065 1.366 . S
C5066 C5067 1.414 1_565 S
C5066 C5069 1.499 . S
C5067 H5041 0.950 . S
C5067 C5066 1.414 1_545 S
C5067 C5068 1.374 . S
C5068 H5042 0.950 . S
C5068 C5064 1.385 . S
C5068 C5067 1.374 . S
C5069 C5066 1.499 . S
C5069 C5070 1.373 1_554 S
C5069 C5071 1.389 . S
C5070 H5043 0.950 . S
C5070 C5056 1.377 . S
C5070 C5069 1.373 1_556 S
C5071 C5055 1.377 . S
C5071 C5069 1.389 . S
C5071 C5072 1.524 . S
C5072 C5071 1.524 . S
C5072 C5073 1.397 . S
C5072 C5077 1.363 . S
C5073 H5044 0.950 . S
C5073 C5072 1.397 . S
C5073 C5074 1.334 . S
C5074 H5045 0.950 . S
C5074 C5073 1.334 . S
C5074 C5075 1.287 . S
C5075 C5074 1.287 . S
C5075 C5076 1.524 . S
C5075 H5078 0.999 . S
C5076 H5046 0.950 . S
C5076 C5075 1.524 . S
C5076 C5077 1.415 . S
C5077 H5047 0.950 . S
C5077 C5072 1.363 . S
C5077 C5076 1.415 . S
H5078 C5075 0.999 . S
H5079 C5060 0.913 . S
H5080 C5098 0.951 . S
H5081 C5100 0.951 . S
H5082 C5102 0.950 . S
H5083 C5103 0.950 . S
H5084 C5105 0.950 . S
H5085 C5108 0.950 . S
H5086 C5109 0.950 . S
H5087 C5111 0.950 . S
H5088 C5112 0.950 . S
H5089 C5113 0.951 . S
H5090 C5115 0.951 . S
H5091 C5117 0.950 . S
H5092 C5118 0.950 . S
H5093 C5120 0.950 . S
H5094 C5123 0.950 . S
H5095 C5124 0.950 . S
H5096 C5126 0.950 . S
H5097 C5127 0.950 . S
C5098 H5080 0.951 . S
C5098 C5099 1.366 . S
C5098 C5100 1.388 . S
C5099 C5098 1.366 . S
C5099 C5103 1.385 . S
C5100 H5081 0.951 . S
C5100 C5098 1.388 . S
C5100 C5101 1.366 . S
C5101 C5100 1.366 . S
C5101 C5102 1.414 . S
C5101 C5104 1.499 . S
C5102 H5082 0.950 . S
C5102 C5101 1.414 . S
C5102 C5103 1.374 . S
C5103 H5083 0.950 . S
C5103 C5099 1.385 . S
C5103 C5102 1.374 . S
C5104 C5101 1.499 . S
C5104 C5105 1.373 . S
C5104 C5106 1.389 . S
C5105 H5084 0.950 . S
C5105 C5104 1.373 . S
C5105 C5121 1.377 . S
C5106 C5104 1.389 . S
C5106 C5107 1.524 . S
C5106 C5120 1.377 . S
C5107 C5106 1.524 . S
C5107 C5108 1.397 . S
C5107 C5112 1.363 . S
C5108 H5085 0.950 . S
C5108 C5107 1.397 . S
C5108 C5109 1.334 . S
C5109 H5086 0.950 . S
C5109 C5108 1.334 . S
C5109 C5110 1.287 . S
C5110 C5109 1.287 . S
C5110 C5111 1.524 . S
C5110 H5129 0.913 . S
C5111 H5087 0.950 . S
C5111 C5110 1.524 . S
C5111 C5112 1.415 . S
C5112 H5088 0.950 . S
C5112 C5107 1.363 . S
C5112 C5111 1.415 . S
C5113 H5089 0.951 . S
C5113 C5114 1.366 . S
C5113 C5115 1.388 . S
C5114 C5113 1.366 . S
C5114 C5118 1.385 . S
C5115 H5090 0.951 . S
C5115 C5113 1.388 . S
C5115 C5116 1.366 . S
C5116 C5115 1.366 . S
C5116 C5117 1.414 . S
C5116 C5119 1.499 . S
C5117 H5091 0.950 . S
C5117 C5116 1.414 . S
C5117 C5118 1.374 . S
C5118 H5092 0.950 . S
C5118 C5114 1.385 . S
C5118 C5117 1.374 . S
C5119 C5116 1.499 . S
C5119 C5120 1.373 . S
C5119 C5121 1.389 . S
C5120 H5093 0.950 . S
C5120 C5106 1.377 . S
C5120 C5119 1.373 . S
C5121 C5105 1.377 . S
C5121 C5119 1.389 . S
C5121 C5122 1.524 . S
C5122 C5121 1.524 . S
C5122 C5123 1.397 . S
C5122 C5127 1.363 . S
C5123 H5094 0.950 . S
C5123 C5122 1.397 . S
C5123 C5124 1.334 . S
C5124 H5095 0.950 . S
C5124 C5123 1.334 . S
C5124 C5125 1.287 . S
C5125 C5124 1.287 . S
C5125 C5126 1.524 . S
C5125 H5128 0.999 . S
C5126 H5096 0.950 . S
C5126 C5125 1.524 . S
C5126 C5127 1.415 . S
C5127 H5097 0.950 . S
C5127 C5122 1.363 . S
C5127 C5126 1.415 . S
H5128 C5125 0.999 . S
H5129 C5110 0.913 . S
H5130 C5148 0.951 . S
H5131 C5150 0.951 . S
H5132 C5152 0.950 . S
H5133 C5153 0.950 . S
H5134 C5155 0.922 1_556 S
H5135 C5158 0.950 . S
H5136 C5159 0.950 . S
H5137 C5161 0.950 . S
H5138 C5162 0.950 . S
H5139 C5163 0.951 . S
H5140 C5165 0.951 . S
H5141 C5167 0.950 . S
H5142 C5168 0.950 . S
H5143 C5170 0.950 . S
H5144 C5173 0.950 . S
H5145 C5174 0.950 . S
H5146 C5176 0.950 . S
H5147 C5177 0.950 1_554 S
C5148 H5130 0.951 . S
C5148 C5149 1.366 . S
C5148 C5150 1.388 . S
C5149 C5148 1.366 . S
C5149 C5153 1.385 . S
C5150 H5131 0.951 . S
C5150 C5148 1.388 . S
C5150 C5151 1.366 . S
C5151 C5150 1.366 . S
C5151 C5152 1.414 . S
C5151 C5154 1.499 . S
C5152 H5132 0.950 . S
C5152 C5151 1.414 . S
C5152 C5153 1.374 . S
C5153 H5133 0.950 . S
C5153 C5149 1.385 . S
C5153 C5152 1.374 . S
C5154 C5151 1.499 . S
C5154 C5155 1.373 . S
C5154 C5156 1.389 . S
C5155 H5134 0.922 1_554 S
C5155 C5154 1.373 . S
C5155 C5171 1.377 . S
C5156 C5154 1.389 . S
C5156 C5157 1.524 . S
C5156 C5170 1.377 . S
C5157 C5156 1.524 . S
C5157 C5158 1.397 . S
C5157 C5162 1.363 . S
C5158 H5135 0.950 . S
C5158 C5157 1.397 . S
C5158 C5159 1.334 . S
C5159 H5136 0.950 . S
C5159 C5158 1.334 . S
C5159 C5160 1.287 . S
C5160 C5159 1.287 . S
C5160 C5161 1.524 . S
C5160 H5179 0.913 . S
C5161 H5137 0.950 . S
C5161 C5160 1.524 . S
C5161 C5162 1.415 . S
C5162 H5138 0.950 . S
C5162 C5157 1.363 . S
C5162 C5161 1.415 . S
C5163 H5139 0.951 . S
C5163 C5164 1.366 . S
C5163 C5165 1.388 . S
C5164 C5163 1.366 . S
C5164 C5168 1.385 . S
C5165 H5140 0.951 . S
C5165 C5163 1.388 . S
C5165 C5166 1.366 . S
C5166 C5165 1.366 . S
C5166 C5167 1.414 . S
C5166 C5169 1.499 . S
C5167 H5141 0.950 . S
C5167 C5166 1.414 . S
C5167 C5168 1.374 . S
C5168 H5142 0.950 . S
C5168 C5164 1.385 . S
C5168 C5167 1.374 . S
C5169 C5166 1.499 . S
C5169 C5170 1.373 . S
C5169 C5171 1.389 . S
C5170 H5143 0.950 . S
C5170 C5156 1.377 . S
C5170 C5169 1.373 . S
C5171 C5155 1.377 . S
C5171 C5169 1.389 . S
C5171 C5172 1.524 1_554 S
C5172 C5171 1.524 1_556 S
C5172 C5173 1.397 . S
C5172 C5177 1.363 . S
C5173 H5144 0.950 . S
C5173 C5172 1.397 . S
C5173 C5174 1.334 . S
C5174 H5145 0.950 . S
C5174 C5173 1.334 . S
C5174 C5175 1.287 . S
C5175 C5174 1.287 . S
C5175 C5176 1.524 . S
C5175 H5178 0.999 . S
C5176 H5146 0.950 . S
C5176 C5175 1.524 . S
C5176 C5177 1.415 . S
C5177 H5147 0.950 1_556 S
C5177 C5172 1.363 . S
C5177 C5176 1.415 . S
H5178 C5175 0.999 . S
H5179 C5160 0.913 . S
H5180 C5198 0.951 . S
H5181 C5200 0.951 . S
H5182 C5202 0.950 . S
H5183 C5203 0.950 . S
H5184 C5205 0.950 . S
H5185 C5208 0.950 . S
H5186 C5209 0.950 . S
H5187 C5211 0.950 . S
H5188 C5212 0.950 . S
H5189 C5213 0.951 . S
H5190 C5215 0.951 . S
H5191 C5217 0.950 . S
H5192 C5218 0.950 . S
H5193 C5220 0.950 . S
H5194 C5223 0.950 . S
H5195 C5224 0.950 . S
H5196 C5226 0.950 . S
H5197 C5227 0.950 . S
C5198 H5180 0.951 . S
C5198 C5199 1.366 . S
C5198 C5200 1.388 . S
C5199 C5198 1.366 . S
C5199 C5203 1.385 . S
C5200 H5181 0.951 . S
C5200 C5198 1.388 . S
C5200 C5201 1.366 . S
C5201 C5200 1.366 . S
C5201 C5202 1.414 . S
C5201 C5204 1.499 . S
C5202 H5182 0.950 . S
C5202 C5201 1.414 . S
C5202 C5203 1.374 . S
C5203 H5183 0.950 . S
C5203 C5199 1.385 . S
C5203 C5202 1.374 . S
C5204 C5201 1.499 . S
C5204 C5205 1.373 . S
C5204 C5206 1.389 . S
C5205 H5184 0.950 . S
C5205 C5204 1.373 . S
C5205 C5221 1.377 . S
C5206 C5204 1.389 . S
C5206 C5207 1.524 . S
C5206 C5220 1.377 . S
C5207 C5206 1.524 . S
C5207 C5208 1.397 . S
C5207 C5212 1.363 . S
C5208 H5185 0.950 . S
C5208 C5207 1.397 . S
C5208 C5209 1.334 . S
C5209 H5186 0.950 . S
C5209 C5208 1.334 . S
C5209 C5210 1.287 . S
C5210 C5209 1.287 . S
C5210 C5211 1.524 . S
C5210 H5229 0.913 . S
C5211 H5187 0.950 . S
C5211 C5210 1.524 . S
C5211 C5212 1.415 . S
C5212 H5188 0.950 . S
C5212 C5207 1.363 . S
C5212 C5211 1.415 . S
C5213 H5189 0.951 . S
C5213 C5214 1.366 . S
C5213 C5215 1.388 . S
C5214 C5213 1.366 . S
C5214 C5218 1.385 . S
C5215 H5190 0.951 . S
C5215 C5213 1.388 . S
C5215 C5216 1.366 . S
C5216 C5215 1.366 . S
C5216 C5217 1.414 . S
C5216 C5219 1.499 . S
C5217 H5191 0.950 . S
C5217 C5216 1.414 . S
C5217 C5218 1.374 . S
C5218 H5192 0.950 . S
C5218 C5214 1.385 . S
C5218 C5217 1.374 . S
C5219 C5216 1.499 . S
C5219 C5220 1.373 . S
C5219 C5221 1.389 . S
C5220 H5193 0.950 . S
C5220 C5206 1.377 . S
C5220 C5219 1.373 . S
C5221 C5205 1.377 . S
C5221 C5219 1.389 . S
C5221 C5222 1.524 . S
C5222 C5221 1.524 . S
C5222 C5223 1.397 . S
C5222 C5227 1.363 . S
C5223 H5194 0.950 . S
C5223 C5222 1.397 . S
C5223 C5224 1.334 . S
C5224 H5195 0.950 . S
C5224 C5223 1.334 . S
C5224 C5225 1.287 . S
C5225 C5224 1.287 . S
C5225 C5226 1.524 . S
C5225 H5228 0.999 . S
C5226 H5196 0.950 . S
C5226 C5225 1.524 . S
C5226 C5227 1.415 . S
C5227 H5197 0.950 . S
C5227 C5222 1.363 . S
C5227 C5226 1.415 . S
H5228 C5225 0.999 . S
H5229 C5210 0.913 . S
H5230 C5248 0.951 . S
H5231 C5250 0.951 . S
H5232 C5252 0.950 . S
H5233 C5253 0.950 . S
H5234 C5255 0.950 . S
H5235 C5258 0.950 . S
H5236 C5259 0.950 . S
H5237 C5261 0.950 . S
H5238 C5262 0.950 . S
H5239 C5263 0.951 . S
H5240 C5265 0.951 . S
H5241 C5267 0.950 . S
H5242 C5268 0.950 . S
H5243 C5270 0.950 . S
H5244 C5273 0.950 . S
H5245 C5274 0.950 . S
H5246 C5276 0.950 . S
H5247 C5277 0.950 . S
C5248 H5230 0.951 . S
C5248 C5249 1.366 . S
C5248 C5250 1.388 . S
C5249 C5248 1.366 . S
C5249 C5253 1.385 . S
C5250 H5231 0.951 . S
C5250 C5248 1.388 . S
C5250 C5251 1.366 . S
C5251 C5250 1.366 . S
C5251 C5252 1.414 . S
C5251 C5254 1.499 . S
C5252 H5232 0.950 . S
C5252 C5251 1.414 . S
C5252 C5253 1.374 . S
C5253 H5233 0.950 . S
C5253 C5249 1.385 . S
C5253 C5252 1.374 . S
C5254 C5251 1.499 . S
C5254 C5255 1.373 . S
C5254 C5256 1.389 . S
C5255 H5234 0.950 . S
C5255 C5254 1.373 . S
C5255 C5271 1.377 . S
C5256 C5254 1.389 . S
C5256 C5257 1.524 . S
C5256 C5270 1.377 . S
C5257 C5256 1.524 . S
C5257 C5258 1.397 . S
C5257 C5262 1.363 . S
C5258 H5235 0.950 . S
C5258 C5257 1.397 . S
C5258 C5259 1.334 . S
C5259 H5236 0.950 . S
C5259 C5258 1.334 . S
C5259 C5260 1.287 . S
C5260 C5259 1.287 . S
C5260 C5261 1.524 . S
C5260 H5279 0.913 . S
C5261 H5237 0.950 . S
C5261 C5260 1.524 . S
C5261 C5262 1.415 . S
C5262 H5238 0.950 . S
C5262 C5257 1.363 . S
C5262 C5261 1.415 . S
C5263 H5239 0.951 . S
C5263 C5264 1.366 . S
C5263 C5265 1.388 . S
C5264 C5263 1.366 . S
C5264 C5268 1.385 . S
C5265 H5240 0.951 . S
C5265 C5263 1.388 . S
C5265 C5266 1.366 . S
C5266 C5265 1.366 . S
C5266 C5267 1.414 . S
C5266 C5269 1.499 . S
C5267 H5241 0.950 . S
C5267 C5266 1.414 . S
C5267 C5268 1.374 . S
C5268 H5242 0.950 . S
C5268 C5264 1.385 . S
C5268 C5267 1.374 . S
C5269 C5266 1.499 . S
C5269 C5270 1.373 . S
C5269 C5271 1.389 . S
C5270 H5243 0.950 . S
C5270 C5256 1.377 . S
C5270 C5269 1.373 . S
C5271 C5255 1.377 . S
C5271 C5269 1.389 . S
C5271 C5272 1.524 . S
C5272 C5271 1.524 . S
C5272 C5273 1.397 . S
C5272 C5277 1.363 . S
C5273 H5244 0.950 . S
C5273 C5272 1.397 . S
C5273 C5274 1.334 . S
C5274 H5245 0.950 . S
C5274 C5273 1.334 . S
C5274 C5275 1.287 . S
C5275 C5274 1.287 . S
C5275 C5276 1.524 . S
C5275 H5278 0.999 . S
C5276 H5246 0.950 . S
C5276 C5275 1.524 . S
C5276 C5277 1.415 . S
C5277 H5247 0.950 . S
C5277 C5272 1.363 . S
C5277 C5276 1.415 . S
H5278 C5275 0.999 . S
H5279 C5260 0.913 . S
H5280 C5298 0.951 . S
H5281 C5300 0.951 . S
H5282 C5302 0.950 . S
H5283 C5303 0.950 . S
H5284 C5305 0.950 . S
H5285 C5308 0.950 . S
H5286 C5309 0.950 . S
H5287 C5311 0.950 . S
H5288 C5312 0.950 . S
H5289 C5313 0.951 . S
H5290 C5315 0.951 . S
H5291 C5317 0.950 . S
H5292 C5318 0.950 . S
H5293 C5320 0.950 . S
H5294 C5323 0.950 . S
H5295 C5324 0.950 . S
H5296 C5326 0.950 . S
H5297 C5327 0.950 . S
C5298 H5280 0.951 . S
C5298 C5299 1.366 . S
C5298 C5300 1.388 . S
C5299 C5298 1.366 . S
C5299 C5303 1.385 . S
C5300 H5281 0.951 . S
C5300 C5298 1.388 . S
C5300 C5301 1.366 . S
C5301 C5300 1.366 . S
C5301 C5302 1.414 . S
C5301 C5304 1.499 . S
C5302 H5282 0.950 . S
C5302 C5301 1.414 . S
C5302 C5303 1.374 . S
C5303 H5283 0.950 . S
C5303 C5299 1.385 . S
C5303 C5302 1.374 . S
C5304 C5301 1.499 . S
C5304 C5305 1.373 . S
C5304 C5306 1.389 . S
C5305 H5284 0.950 . S
C5305 C5304 1.373 . S
C5305 C5321 1.377 . S
C5306 C5304 1.389 . S
C5306 C5307 1.524 . S
C5306 C5320 1.377 . S
C5307 C5306 1.524 . S
C5307 C5308 1.397 . S
C5307 C5312 1.363 . S
C5308 H5285 0.950 . S
C5308 C5307 1.397 . S
C5308 C5309 1.334 . S
C5309 H5286 0.950 . S
C5309 C5308 1.334 . S
C5309 C5310 1.287 . S
C5310 C5309 1.287 . S
C5310 C5311 1.524 . S
C5310 H5329 0.913 . S
C5311 H5287 0.950 . S
C5311 C5310 1.524 . S
C5311 C5312 1.415 . S
C5312 H5288 0.950 . S
C5312 C5307 1.363 . S
C5312 C5311 1.415 . S
C5313 H5289 0.951 . S
C5313 C5314 1.366 . S
C5313 C5315 1.388 . S
C5314 C5313 1.366 . S
C5314 C5318 1.385 . S
C5315 H5290 0.951 . S
C5315 C5313 1.388 . S
C5315 C5316 1.366 . S
C5316 C5315 1.366 . S
C5316 C5317 1.414 . S
C5316 C5319 1.499 . S
C5317 H5291 0.950 . S
C5317 C5316 1.414 . S
C5317 C5318 1.374 . S
C5318 H5292 0.950 . S
C5318 C5314 1.385 . S
C5318 C5317 1.374 . S
C5319 C5316 1.499 . S
C5319 C5320 1.373 . S
C5319 C5321 1.389 . S
C5320 H5293 0.950 . S
C5320 C5306 1.377 . S
C5320 C5319 1.373 . S
C5321 C5305 1.377 . S
C5321 C5319 1.389 . S
C5321 C5322 1.524 . S
C5322 C5321 1.524 . S
C5322 C5323 1.397 . S
C5322 C5327 1.363 . S
C5323 H5294 0.950 . S
C5323 C5322 1.397 . S
C5323 C5324 1.334 . S
C5324 H5295 0.950 . S
C5324 C5323 1.334 . S
C5324 C5325 1.287 . S
C5325 C5324 1.287 . S
C5325 C5326 1.524 . S
C5325 H5328 0.999 . S
C5326 H5296 0.950 . S
C5326 C5325 1.524 . S
C5326 C5327 1.415 . S
C5327 H5297 0.950 . S
C5327 C5322 1.363 . S
C5327 C5326 1.415 . S
H5328 C5325 0.999 . S
H5329 C5310 0.913 . S
H5330 C5348 0.951 . S
H5331 C5350 0.951 . S
H5332 C5352 0.950 . S
H5333 C5353 0.950 . S
H5334 C5355 0.950 . S
H5335 C5358 0.950 . S
H5336 C5359 0.950 . S
H5337 C5361 0.950 . S
H5338 C5362 0.950 . S
H5339 C5363 0.951 . S
H5340 C5365 0.951 . S
H5341 C5367 0.950 . S
H5342 C5368 0.950 . S
H5343 C5370 0.950 . S
H5344 C5373 0.950 . S
H5345 C5374 0.950 . S
H5346 C5376 0.950 . S
H5347 C5377 0.950 . S
C5348 H5330 0.951 . S
C5348 C5349 1.366 . S
C5348 C5350 1.388 . S
C5349 C5348 1.366 . S
C5349 C5353 1.385 . S
C5350 H5331 0.951 . S
C5350 C5348 1.388 . S
C5350 C5351 1.366 . S
C5351 C5350 1.366 . S
C5351 C5352 1.414 . S
C5351 C5354 1.499 . S
C5352 H5332 0.950 . S
C5352 C5351 1.414 . S
C5352 C5353 1.374 . S
C5353 H5333 0.950 . S
C5353 C5349 1.385 . S
C5353 C5352 1.374 . S
C5354 C5351 1.499 . S
C5354 C5355 1.373 . S
C5354 C5356 1.389 . S
C5355 H5334 0.950 . S
C5355 C5354 1.373 . S
C5355 C5371 1.377 . S
C5356 C5354 1.389 . S
C5356 C5357 1.524 . S
C5356 C5370 1.377 . S
C5357 C5356 1.524 . S
C5357 C5358 1.397 . S
C5357 C5362 1.363 . S
C5358 H5335 0.950 . S
C5358 C5357 1.397 . S
C5358 C5359 1.334 . S
C5359 H5336 0.950 . S
C5359 C5358 1.334 . S
C5359 C5360 1.287 . S
C5360 C5359 1.287 . S
C5360 C5361 1.524 . S
C5360 H5379 0.913 . S
C5361 H5337 0.950 . S
C5361 C5360 1.524 . S
C5361 C5362 1.415 . S
C5362 H5338 0.950 . S
C5362 C5357 1.363 . S
C5362 C5361 1.415 . S
C5363 H5339 0.951 . S
C5363 C5364 1.366 . S
C5363 C5365 1.388 . S
C5364 C5363 1.366 . S
C5364 C5368 1.385 . S
C5365 H5340 0.951 . S
C5365 C5363 1.388 . S
C5365 C5366 1.366 . S
C5366 C5365 1.366 . S
C5366 C5367 1.414 . S
C5366 C5369 1.499 . S
C5367 H5341 0.950 . S
C5367 C5366 1.414 . S
C5367 C5368 1.374 . S
C5368 H5342 0.950 . S
C5368 C5364 1.385 . S
C5368 C5367 1.374 . S
C5369 C5366 1.499 . S
C5369 C5370 1.373 . S
C5369 C5371 1.389 . S
C5370 H5343 0.950 . S
C5370 C5356 1.377 . S
C5370 C5369 1.373 . S
C5371 C5355 1.377 . S
C5371 C5369 1.389 . S
C5371 C5372 1.524 . S
C5372 C5371 1.524 . S
C5372 C5373 1.397 . S
C5372 C5377 1.363 . S
C5373 H5344 0.950 . S
C5373 C5372 1.397 . S
C5373 C5374 1.334 . S
C5374 H5345 0.950 . S
C5374 C5373 1.334 . S
C5374 C5375 1.287 . S
C5375 C5374 1.287 . S
C5375 C5376 1.524 . S
C5375 H5378 0.999 . S
C5376 H5346 0.950 . S
C5376 C5375 1.524 . S
C5376 C5377 1.415 . S
C5377 H5347 0.950 . S
C5377 C5372 1.363 . S
C5377 C5376 1.415 . S
H5378 C5375 0.999 . S
H5379 C5360 0.913 . S
H5380 C5398 0.951 . S
H5381 C5400 0.951 . S
H5382 C5402 0.950 . S
H5383 C5403 0.950 . S
H5384 C5405 0.950 . S
H5385 C5408 0.950 . S
H5386 C5409 0.950 . S
H5387 C5411 0.950 . S
H5388 C5412 0.950 1_655 S
H5389 C5413 0.951 . S
H5390 C5415 0.951 . S
H5391 C5417 0.950 . S
H5392 C5418 0.950 . S
H5393 C5420 0.950 . S
H5394 C5423 0.950 . S
H5395 C5424 0.950 . S
H5396 C5426 0.950 . S
H5397 C5427 0.950 . S
C5398 H5380 0.951 . S
C5398 C5399 1.366 . S
C5398 C5400 1.388 . S
C5399 C5398 1.366 . S
C5399 C5403 1.385 . S
C5400 H5381 0.951 . S
C5400 C5398 1.388 . S
C5400 C5401 1.366 . S
C5401 C5400 1.366 . S
C5401 C5402 1.414 . S
C5401 C5404 1.499 . S
C5402 H5382 0.950 . S
C5402 C5401 1.414 . S
C5402 C5403 1.374 . S
C5403 H5383 0.950 . S
C5403 C5399 1.385 . S
C5403 C5402 1.374 . S
C5404 C5401 1.499 . S
C5404 C5405 1.373 . S
C5404 C5406 1.389 . S
C5405 H5384 0.950 . S
C5405 C5404 1.373 . S
C5405 C5421 1.377 . S
C5406 C5404 1.389 . S
C5406 C5407 1.524 . S
C5406 C5420 1.377 . S
C5407 C5406 1.524 . S
C5407 C5408 1.397 . S
C5407 C5412 1.363 . S
C5408 H5385 0.950 . S
C5408 C5407 1.397 . S
C5408 C5409 1.334 . S
C5409 H5386 0.950 . S
C5409 C5408 1.334 . S
C5409 C5410 1.287 . S
C5410 C5409 1.287 . S
C5410 C5411 1.524 1_455 S
C5410 H5429 0.913 . S
C5411 H5387 0.950 . S
C5411 C5410 1.524 1_655 S
C5411 C5412 1.415 1_655 S
C5412 H5388 0.950 1_455 S
C5412 C5407 1.363 . S
C5412 C5411 1.415 1_455 S
C5413 H5389 0.951 . S
C5413 C5414 1.366 . S
C5413 C5415 1.388 . S
C5414 C5413 1.366 . S
C5414 C5418 1.385 . S
C5415 H5390 0.951 . S
C5415 C5413 1.388 . S
C5415 C5416 1.366 . S
C5416 C5415 1.366 . S
C5416 C5417 1.414 . S
C5416 C5419 1.499 . S
C5417 H5391 0.950 . S
C5417 C5416 1.414 . S
C5417 C5418 1.374 . S
C5418 H5392 0.950 . S
C5418 C5414 1.385 . S
C5418 C5417 1.374 . S
C5419 C5416 1.499 . S
C5419 C5420 1.373 . S
C5419 C5421 1.389 . S
C5420 H5393 0.950 . S
C5420 C5406 1.377 . S
C5420 C5419 1.373 . S
C5421 C5405 1.377 . S
C5421 C5419 1.389 . S
C5421 C5422 1.524 . S
C5422 C5421 1.524 . S
C5422 C5423 1.397 . S
C5422 C5427 1.363 . S
C5423 H5394 0.950 . S
C5423 C5422 1.397 . S
C5423 C5424 1.334 1_554 S
C5424 H5395 0.950 . S
C5424 C5423 1.334 1_556 S
C5424 C5425 1.287 . S
C5425 C5424 1.287 . S
C5425 C5426 1.524 1_556 S
C5425 H5428 0.999 . S
C5426 H5396 0.950 . S
C5426 C5425 1.524 1_554 S
C5426 C5427 1.415 . S
C5427 H5397 0.950 . S
C5427 C5422 1.363 . S
C5427 C5426 1.415 . S
H5428 C5425 0.999 . S
H5429 C5410 0.913 . S
H5430 C5448 0.951 . S
H5431 C5450 0.951 . S
H5432 C5452 0.950 . S
H5433 C5453 0.950 . S
H5434 C5455 0.950 . S
H5435 C5458 0.950 . S
H5436 C5459 0.950 . S
H5437 C5461 0.950 . S
H5438 C5462 0.950 . S
H5439 C5463 0.951 . S
H5440 C5465 0.951 . S
H5441 C5467 0.950 . S
H5442 C5468 0.950 . S
H5443 C5470 0.950 . S
H5444 C5473 0.950 . S
H5445 C5474 0.950 . S
H5446 C5476 0.950 . S
H5447 C5477 0.950 . S
C5448 H5430 0.951 . S
C5448 C5449 1.366 . S
C5448 C5450 1.388 . S
C5449 C5448 1.366 . S
C5449 C5453 1.385 . S
C5450 H5431 0.951 . S
C5450 C5448 1.388 . S
C5450 C5451 1.366 . S
C5451 C5450 1.366 . S
C5451 C5452 1.414 . S
C5451 C5454 1.499 . S
C5452 H5432 0.950 . S
C5452 C5451 1.414 . S
C5452 C5453 1.374 . S
C5453 H5433 0.950 . S
C5453 C5449 1.385 . S
C5453 C5452 1.374 . S
C5454 C5451 1.499 . S
C5454 C5455 1.373 . S
C5454 C5456 1.389 . S
C5455 H5434 0.950 . S
C5455 C5454 1.373 . S
C5455 C5471 1.377 . S
C5456 C5454 1.389 . S
C5456 C5457 1.524 . S
C5456 C5470 1.377 . S
C5457 C5456 1.524 . S
C5457 C5458 1.397 . S
C5457 C5462 1.363 . S
C5458 H5435 0.950 . S
C5458 C5457 1.397 . S
C5458 C5459 1.334 . S
C5459 H5436 0.950 . S
C5459 C5458 1.334 . S
C5459 C5460 1.287 . S
C5460 C5459 1.287 . S
C5460 C5461 1.524 . S
C5460 H5479 0.913 . S
C5461 H5437 0.950 . S
C5461 C5460 1.524 . S
C5461 C5462 1.415 . S
C5462 H5438 0.950 . S
C5462 C5457 1.363 . S
C5462 C5461 1.415 . S
C5463 H5439 0.951 . S
C5463 C5464 1.366 . S
C5463 C5465 1.388 . S
C5464 C5463 1.366 . S
C5464 C5468 1.385 . S
C5465 H5440 0.951 . S
C5465 C5463 1.388 . S
C5465 C5466 1.366 . S
C5466 C5465 1.366 . S
C5466 C5467 1.414 . S
C5466 C5469 1.499 . S
C5467 H5441 0.950 . S
C5467 C5466 1.414 . S
C5467 C5468 1.374 . S
C5468 H5442 0.950 . S
C5468 C5464 1.385 . S
C5468 C5467 1.374 . S
C5469 C5466 1.499 . S
C5469 C5470 1.373 . S
C5469 C5471 1.389 . S
C5470 H5443 0.950 . S
C5470 C5456 1.377 . S
C5470 C5469 1.373 . S
C5471 C5455 1.377 . S
C5471 C5469 1.389 . S
C5471 C5472 1.524 . S
C5472 C5471 1.524 . S
C5472 C5473 1.397 . S
C5472 C5477 1.363 . S
C5473 H5444 0.950 . S
C5473 C5472 1.397 . S
C5473 C5474 1.334 . S
C5474 H5445 0.950 . S
C5474 C5473 1.334 . S
C5474 C5475 1.287 . S
C5475 C5474 1.287 . S
C5475 C5476 1.524 . S
C5475 H5478 0.999 . S
C5476 H5446 0.950 . S
C5476 C5475 1.524 . S
C5476 C5477 1.415 . S
C5477 H5447 0.950 . S
C5477 C5472 1.363 . S
C5477 C5476 1.415 . S
H5478 C5475 0.999 . S
H5479 C5460 0.913 . S
H5480 C5498 0.951 . S
H5481 C5500 0.951 . S
H5482 C5502 0.950 . S
H5483 C5503 0.950 . S
H5484 C5505 0.950 . S
H5485 C5508 0.950 . S
H5486 C5509 0.950 . S
H5487 C5511 0.950 . S
H5488 C5512 0.950 . S
H5489 C5513 0.951 . S
H5490 C5515 0.951 . S
H5491 C5517 0.950 . S
H5492 C5518 0.950 . S
H5493 C5520 0.950 . S
H5494 C5523 0.950 . S
H5495 C5524 0.950 . S
H5496 C5526 0.950 . S
H5497 C5527 0.950 . S
C5498 H5480 0.951 . S
C5498 C5499 1.366 . S
C5498 C5500 1.388 . S
C5499 C5498 1.366 . S
C5499 C5503 1.385 . S
C5500 H5481 0.951 . S
C5500 C5498 1.388 . S
C5500 C5501 1.366 . S
C5501 C5500 1.366 . S
C5501 C5502 1.414 . S
C5501 C5504 1.499 . S
C5502 H5482 0.950 . S
C5502 C5501 1.414 . S
C5502 C5503 1.374 . S
C5503 H5483 0.950 . S
C5503 C5499 1.385 . S
C5503 C5502 1.374 . S
C5504 C5501 1.499 . S
C5504 C5505 1.373 . S
C5504 C5506 1.389 . S
C5505 H5484 0.950 . S
C5505 C5504 1.373 . S
C5505 C5521 1.377 . S
C5506 C5504 1.389 . S
C5506 C5507 1.524 . S
C5506 C5520 1.377 . S
C5507 C5506 1.524 . S
C5507 C5508 1.397 . S
C5507 C5512 1.363 . S
C5508 H5485 0.950 . S
C5508 C5507 1.397 . S
C5508 C5509 1.334 . S
C5509 H5486 0.950 . S
C5509 C5508 1.334 . S
C5509 C5510 1.287 . S
C5510 C5509 1.287 . S
C5510 C5511 1.524 . S
C5510 H5529 0.913 . S
C5511 H5487 0.950 . S
C5511 C5510 1.524 . S
C5511 C5512 1.415 . S
C5512 H5488 0.950 . S
C5512 C5507 1.363 . S
C5512 C5511 1.415 . S
C5513 H5489 0.951 . S
C5513 C5514 1.366 . S
C5513 C5515 1.388 . S
C5514 C5513 1.366 . S
C5514 C5518 1.385 . S
C5515 H5490 0.951 . S
C5515 C5513 1.388 . S
C5515 C5516 1.366 . S
C5516 C5515 1.366 . S
C5516 C5517 1.414 . S
C5516 C5519 1.499 . S
C5517 H5491 0.950 . S
C5517 C5516 1.414 . S
C5517 C5518 1.374 . S
C5518 H5492 0.950 . S
C5518 C5514 1.385 . S
C5518 C5517 1.374 . S
C5519 C5516 1.499 . S
C5519 C5520 1.373 . S
C5519 C5521 1.389 . S
C5520 H5493 0.950 . S
C5520 C5506 1.377 . S
C5520 C5519 1.373 . S
C5521 C5505 1.377 . S
C5521 C5519 1.389 . S
C5521 C5522 1.524 . S
C5522 C5521 1.524 . S
C5522 C5523 1.397 . S
C5522 C5527 1.363 . S
C5523 H5494 0.950 . S
C5523 C5522 1.397 . S
C5523 C5524 1.334 . S
C5524 H5495 0.950 . S
C5524 C5523 1.334 . S
C5524 C5525 1.287 . S
C5525 C5524 1.287 . S
C5525 C5526 1.524 . S
C5525 H5528 0.999 . S
C5526 H5496 0.950 . S
C5526 C5525 1.524 . S
C5526 C5527 1.415 . S
C5527 H5497 0.950 . S
C5527 C5522 1.363 . S
C5527 C5526 1.415 . S
H5528 C5525 0.999 . S
H5529 C5510 0.913 . S
H5530 C5548 0.951 . S
H5531 C5550 0.951 . S
H5532 C5552 0.950 . S
H5533 C5553 0.950 . S
H5534 C5555 0.950 . S
H5535 C5558 0.950 . S
H5536 C5559 0.950 . S
H5537 C5561 0.950 . S
H5538 C5562 0.950 . S
H5539 C5563 0.951 . S
H5540 C5565 0.951 . S
H5541 C5567 0.950 . S
H5542 C5568 0.950 . S
H5543 C5570 0.950 . S
H5544 C5573 0.950 . S
H5545 C5574 0.950 . S
H5546 C5576 0.950 . S
H5547 C5577 0.950 . S
C5548 H5530 0.951 . S
C5548 C5549 1.366 . S
C5548 C5550 1.388 . S
C5549 C5548 1.366 . S
C5549 C5553 1.385 . S
C5550 H5531 0.951 . S
C5550 C5548 1.388 . S
C5550 C5551 1.366 . S
C5551 C5550 1.366 . S
C5551 C5552 1.414 . S
C5551 C5554 1.499 . S
C5552 H5532 0.950 . S
C5552 C5551 1.414 . S
C5552 C5553 1.374 . S
C5553 H5533 0.950 . S
C5553 C5549 1.385 . S
C5553 C5552 1.374 . S
C5554 C5551 1.499 . S
C5554 C5555 1.373 . S
C5554 C5556 1.389 . S
C5555 H5534 0.950 . S
C5555 C5554 1.373 . S
C5555 C5571 1.377 . S
C5556 C5554 1.389 . S
C5556 C5557 1.524 . S
C5556 C5570 1.377 . S
C5557 C5556 1.524 . S
C5557 C5558 1.397 . S
C5557 C5562 1.363 . S
C5558 H5535 0.950 . S
C5558 C5557 1.397 . S
C5558 C5559 1.334 . S
C5559 H5536 0.950 . S
C5559 C5558 1.334 . S
C5559 C5560 1.287 . S
C5560 C5559 1.287 . S
C5560 C5561 1.524 . S
C5560 H5579 0.913 . S
C5561 H5537 0.950 . S
C5561 C5560 1.524 . S
C5561 C5562 1.415 . S
C5562 H5538 0.950 . S
C5562 C5557 1.363 . S
C5562 C5561 1.415 . S
C5563 H5539 0.951 . S
C5563 C5564 1.366 . S
C5563 C5565 1.388 . S
C5564 C5563 1.366 . S
C5564 C5568 1.385 . S
C5565 H5540 0.951 . S
C5565 C5563 1.388 . S
C5565 C5566 1.366 . S
C5566 C5565 1.366 . S
C5566 C5567 1.414 . S
C5566 C5569 1.499 . S
C5567 H5541 0.950 . S
C5567 C5566 1.414 . S
C5567 C5568 1.374 . S
C5568 H5542 0.950 . S
C5568 C5564 1.385 . S
C5568 C5567 1.374 . S
C5569 C5566 1.499 . S
C5569 C5570 1.373 . S
C5569 C5571 1.389 . S
C5570 H5543 0.950 . S
C5570 C5556 1.377 . S
C5570 C5569 1.373 . S
C5571 C5555 1.377 . S
C5571 C5569 1.389 . S
C5571 C5572 1.524 . S
C5572 C5571 1.524 . S
C5572 C5573 1.397 . S
C5572 C5577 1.363 . S
C5573 H5544 0.950 . S
C5573 C5572 1.397 . S
C5573 C5574 1.334 . S
C5574 H5545 0.950 . S
C5574 C5573 1.334 . S
C5574 C5575 1.287 . S
C5575 C5574 1.287 . S
C5575 C5576 1.524 . S
C5575 H5578 0.999 . S
C5576 H5546 0.950 . S
C5576 C5575 1.524 . S
C5576 C5577 1.415 . S
C5577 H5547 0.950 . S
C5577 C5572 1.363 . S
C5577 C5576 1.415 . S
H5578 C5575 0.999 . S
H5579 C5560 0.913 . S
H5580 C5598 0.951 . S
H5581 C5600 0.951 . S
H5582 C5602 0.950 . S
H5583 C5603 0.950 . S
H5584 C5605 0.950 . S
H5585 C5608 0.950 . S
H5586 C5609 0.950 . S
H5587 C5611 0.950 . S
H5588 C5612 0.950 . S
H5589 C5613 0.951 . S
H5590 C5615 0.951 . S
H5591 C5617 0.950 . S
H5592 C5618 0.950 . S
H5593 C5620 0.950 . S
H5594 C5623 0.950 . S
H5595 C5624 0.950 . S
H5596 C5626 0.950 . S
H5597 C5627 0.950 . S
C5598 H5580 0.951 . S
C5598 C5599 1.366 . S
C5598 C5600 1.388 . S
C5599 C5598 1.366 . S
C5599 C5603 1.385 . S
C5600 H5581 0.951 . S
C5600 C5598 1.388 . S
C5600 C5601 1.366 . S
C5601 C5600 1.366 . S
C5601 C5602 1.414 . S
C5601 C5604 1.499 . S
C5602 H5582 0.950 . S
C5602 C5601 1.414 . S
C5602 C5603 1.374 . S
C5603 H5583 0.950 . S
C5603 C5599 1.385 . S
C5603 C5602 1.374 . S
C5604 C5601 1.499 . S
C5604 C5605 1.373 . S
C5604 C5606 1.389 . S
C5605 H5584 0.950 . S
C5605 C5604 1.373 . S
C5605 C5621 1.377 . S
C5606 C5604 1.389 . S
C5606 C5607 1.524 . S
C5606 C5620 1.377 . S
C5607 C5606 1.524 . S
C5607 C5608 1.397 . S
C5607 C5612 1.363 1_455 S
C5608 H5585 0.950 . S
C5608 C5607 1.397 . S
C5608 C5609 1.334 1_455 S
C5609 H5586 0.950 . S
C5609 C5608 1.334 1_655 S
C5609 C5610 1.287 . S
C5610 C5609 1.287 . S
C5610 C5611 1.524 . S
C5610 H5629 0.913 . S
C5611 H5587 0.950 . S
C5611 C5610 1.524 . S
C5611 C5612 1.415 . S
C5612 H5588 0.950 . S
C5612 C5607 1.363 1_655 S
C5612 C5611 1.415 . S
C5613 H5589 0.951 . S
C5613 C5614 1.366 . S
C5613 C5615 1.388 . S
C5614 C5613 1.366 . S
C5614 C5618 1.385 . S
C5615 H5590 0.951 . S
C5615 C5613 1.388 . S
C5615 C5616 1.366 . S
C5616 C5615 1.366 . S
C5616 C5617 1.414 . S
C5616 C5619 1.499 . S
C5617 H5591 0.950 . S
C5617 C5616 1.414 . S
C5617 C5618 1.374 . S
C5618 H5592 0.950 . S
C5618 C5614 1.385 . S
C5618 C5617 1.374 . S
C5619 C5616 1.499 . S
C5619 C5620 1.373 . S
C5619 C5621 1.389 . S
C5620 H5593 0.950 . S
C5620 C5606 1.377 . S
C5620 C5619 1.373 . S
C5621 C5605 1.377 . S
C5621 C5619 1.389 . S
C5621 C5622 1.524 . S
C5622 C5621 1.524 . S
C5622 C5623 1.397 . S
C5622 C5627 1.363 . S
C5623 H5594 0.950 . S
C5623 C5622 1.397 . S
C5623 C5624 1.334 . S
C5624 H5595 0.950 . S
C5624 C5623 1.334 . S
C5624 C5625 1.287 . S
C5625 C5624 1.287 . S
C5625 C5626 1.524 . S
C5625 H5628 0.999 . S
C5626 H5596 0.950 . S
C5626 C5625 1.524 . S
C5626 C5627 1.415 . S
C5627 H5597 0.950 . S
C5627 C5622 1.363 . S
C5627 C5626 1.415 . S
H5628 C5625 0.999 . S
H5629 C5610 0.913 . S
H5630 C5648 0.951 . S
H5631 C5650 0.951 . S
H5632 C5652 0.950 . S
H5633 C5653 0.950 . S
H5634 C5655 0.950 . S
H5635 C5658 0.950 . S
H5636 C5659 0.950 . S
H5637 C5661 0.950 . S
H5638 C5662 0.950 . S
H5639 C5663 0.951 . S
H5640 C5665 0.951 . S
H5641 C5667 0.950 . S
H5642 C5668 0.950 . S
H5643 C5670 0.950 . S
H5644 C5673 0.950 . S
H5645 C5674 0.950 . S
H5646 C5676 0.950 . S
H5647 C5677 0.950 . S
C5648 H5630 0.951 . S
C5648 C5649 1.366 . S
C5648 C5650 1.388 . S
C5649 C5648 1.366 . S
C5649 C5653 1.385 . S
C5650 H5631 0.951 . S
C5650 C5648 1.388 . S
C5650 C5651 1.366 . S
C5651 C5650 1.366 . S
C5651 C5652 1.414 . S
C5651 C5654 1.499 . S
C5652 H5632 0.950 . S
C5652 C5651 1.414 . S
C5652 C5653 1.374 . S
C5653 H5633 0.950 . S
C5653 C5649 1.385 . S
C5653 C5652 1.374 . S
C5654 C5651 1.499 . S
C5654 C5655 1.373 . S
C5654 C5656 1.389 . S
C5655 H5634 0.950 . S
C5655 C5654 1.373 . S
C5655 C5671 1.377 . S
C5656 C5654 1.389 . S
C5656 C5657 1.524 . S
C5656 C5670 1.377 . S
C5657 C5656 1.524 . S
C5657 C5658 1.397 . S
C5657 C5662 1.363 . S
C5658 H5635 0.950 . S
C5658 C5657 1.397 . S
C5658 C5659 1.334 . S
C5659 H5636 0.950 . S
C5659 C5658 1.334 . S
C5659 C5660 1.287 . S
C5660 C5659 1.287 . S
C5660 C5661 1.524 . S
C5660 H5679 0.913 . S
C5661 H5637 0.950 . S
C5661 C5660 1.524 . S
C5661 C5662 1.415 . S
C5662 H5638 0.950 . S
C5662 C5657 1.363 . S
C5662 C5661 1.415 . S
C5663 H5639 0.951 . S
C5663 C5664 1.366 . S
C5663 C5665 1.388 . S
C5664 C5663 1.366 . S
C5664 C5668 1.385 . S
C5665 H5640 0.951 . S
C5665 C5663 1.388 . S
C5665 C5666 1.366 . S
C5666 C5665 1.366 . S
C5666 C5667 1.414 . S
C5666 C5669 1.499 . S
C5667 H5641 0.950 . S
C5667 C5666 1.414 . S
C5667 C5668 1.374 . S
C5668 H5642 0.950 . S
C5668 C5664 1.385 . S
C5668 C5667 1.374 . S
C5669 C5666 1.499 . S
C5669 C5670 1.373 . S
C5669 C5671 1.389 . S
C5670 H5643 0.950 . S
C5670 C5656 1.377 . S
C5670 C5669 1.373 . S
C5671 C5655 1.377 . S
C5671 C5669 1.389 . S
C5671 C5672 1.524 . S
C5672 C5671 1.524 . S
C5672 C5673 1.397 . S
C5672 C5677 1.363 . S
C5673 H5644 0.950 . S
C5673 C5672 1.397 . S
C5673 C5674 1.334 . S
C5674 H5645 0.950 . S
C5674 C5673 1.334 . S
C5674 C5675 1.287 . S
C5675 C5674 1.287 . S
C5675 C5676 1.524 . S
C5675 H5678 0.999 . S
C5676 H5646 0.950 . S
C5676 C5675 1.524 . S
C5676 C5677 1.415 . S
C5677 H5647 0.950 . S
C5677 C5672 1.363 . S
C5677 C5676 1.415 . S
H5678 C5675 0.999 . S
H5679 C5660 0.913 . S
H5680 C5698 0.951 . S
H5681 C5700 0.951 . S
H5682 C5702 0.950 . S
H5683 C5703 0.950 . S
H5684 C5705 0.950 . S
H5685 C5708 0.950 . S
H5686 C5709 0.950 . S
H5687 C5711 0.950 . S
H5688 C5712 0.950 . S
H5689 C5713 0.951 . S
H5690 C5715 0.951 . S
H5691 C5717 0.950 . S
H5692 C5718 0.950 . S
H5693 C5720 0.950 . S
H5694 C5723 0.950 . S
H5695 C5724 0.950 . S
H5696 C5726 0.950 . S
H5697 C5727 0.950 . S
C5698 H5680 0.951 . S
C5698 C5699 1.366 . S
C5698 C5700 1.388 . S
C5699 C5698 1.366 . S
C5699 C5703 1.385 . S
C5700 H5681 0.951 . S
C5700 C5698 1.388 . S
C5700 C5701 1.366 . S
C5701 C5700 1.366 . S
C5701 C5702 1.414 . S
C5701 C5704 1.499 . S
C5702 H5682 0.950 . S
C5702 C5701 1.414 . S
C5702 C5703 1.374 . S
C5703 H5683 0.950 . S
C5703 C5699 1.385 . S
C5703 C5702 1.374 . S
C5704 C5701 1.499 . S
C5704 C5705 1.373 . S
C5704 C5706 1.389 . S
C5705 H5684 0.950 . S
C5705 C5704 1.373 . S
C5705 C5721 1.377 . S
C5706 C5704 1.389 . S
C5706 C5707 1.524 . S
C5706 C5720 1.377 . S
C5707 C5706 1.524 . S
C5707 C5708 1.397 . S
C5707 C5712 1.363 . S
C5708 H5685 0.950 . S
C5708 C5707 1.397 . S
C5708 C5709 1.334 . S
C5709 H5686 0.950 . S
C5709 C5708 1.334 . S
C5709 C5710 1.287 . S
C5710 C5709 1.287 . S
C5710 C5711 1.524 . S
C5710 H5729 0.913 . S
C5711 H5687 0.950 . S
C5711 C5710 1.524 . S
C5711 C5712 1.415 . S
C5712 H5688 0.950 . S
C5712 C5707 1.363 . S
C5712 C5711 1.415 . S
C5713 H5689 0.951 . S
C5713 C5714 1.366 . S
C5713 C5715 1.388 . S
C5714 C5713 1.366 . S
C5714 C5718 1.385 . S
C5715 H5690 0.951 . S
C5715 C5713 1.388 . S
C5715 C5716 1.366 . S
C5716 C5715 1.366 . S
C5716 C5717 1.414 . S
C5716 C5719 1.499 . S
C5717 H5691 0.950 . S
C5717 C5716 1.414 . S
C5717 C5718 1.374 . S
C5718 H5692 0.950 . S
C5718 C5714 1.385 . S
C5718 C5717 1.374 . S
C5719 C5716 1.499 . S
C5719 C5720 1.373 . S
C5719 C5721 1.389 . S
C5720 H5693 0.950 . S
C5720 C5706 1.377 . S
C5720 C5719 1.373 . S
C5721 C5705 1.377 . S
C5721 C5719 1.389 . S
C5721 C5722 1.524 . S
C5722 C5721 1.524 . S
C5722 C5723 1.397 . S
C5722 C5727 1.363 . S
C5723 H5694 0.950 . S
C5723 C5722 1.397 . S
C5723 C5724 1.334 . S
C5724 H5695 0.950 . S
C5724 C5723 1.334 . S
C5724 C5725 1.287 . S
C5725 C5724 1.287 . S
C5725 C5726 1.524 . S
C5725 H5728 0.999 . S
C5726 H5696 0.950 . S
C5726 C5725 1.524 . S
C5726 C5727 1.415 . S
C5727 H5697 0.950 . S
C5727 C5722 1.363 . S
C5727 C5726 1.415 . S
H5728 C5725 0.999 . S
H5729 C5710 0.913 . S
H5730 C5748 0.951 . S
H5731 C5750 0.951 . S
H5732 C5752 0.950 . S
H5733 C5753 0.950 . S
H5734 C5755 0.950 . S
H5735 C5758 0.950 . S
H5736 C5759 0.950 . S
H5737 C5761 0.950 . S
H5738 C5762 0.950 . S
H5739 C5763 0.951 . S
H5740 C5765 0.951 . S
H5741 C5767 0.950 . S
H5742 C5768 0.950 . S
H5743 C5770 0.950 . S
H5744 C5773 0.950 . S
H5745 C5774 0.950 . S
H5746 C5776 0.950 . S
H5747 C5777 0.950 . S
C5748 H5730 0.951 . S
C5748 C5749 1.366 . S
C5748 C5750 1.388 . S
C5749 C5748 1.366 . S
C5749 C5753 1.385 . S
C5750 H5731 0.951 . S
C5750 C5748 1.388 . S
C5750 C5751 1.366 . S
C5751 C5750 1.366 . S
C5751 C5752 1.414 . S
C5751 C5754 1.499 . S
C5752 H5732 0.950 . S
C5752 C5751 1.414 . S
C5752 C5753 1.374 . S
C5753 H5733 0.950 . S
C5753 C5749 1.385 . S
C5753 C5752 1.374 . S
C5754 C5751 1.499 . S
C5754 C5755 1.373 . S
C5754 C5756 1.389 . S
C5755 H5734 0.950 . S
C5755 C5754 1.373 . S
C5755 C5771 1.377 . S
C5756 C5754 1.389 . S
C5756 C5757 1.524 . S
C5756 C5770 1.377 . S
C5757 C5756 1.524 . S
C5757 C5758 1.397 . S
C5757 C5762 1.363 . S
C5758 H5735 0.950 . S
C5758 C5757 1.397 . S
C5758 C5759 1.334 . S
C5759 H5736 0.950 . S
C5759 C5758 1.334 . S
C5759 C5760 1.287 . S
C5760 C5759 1.287 . S
C5760 C5761 1.524 . S
C5760 H5779 0.913 . S
C5761 H5737 0.950 . S
C5761 C5760 1.524 . S
C5761 C5762 1.415 . S
C5762 H5738 0.950 . S
C5762 C5757 1.363 . S
C5762 C5761 1.415 . S
C5763 H5739 0.951 . S
C5763 C5764 1.366 . S
C5763 C5765 1.388 . S
C5764 C5763 1.366 . S
C5764 C5768 1.385 . S
C5765 H5740 0.951 . S
C5765 C5763 1.388 . S
C5765 C5766 1.366 . S
C5766 C5765 1.366 . S
C5766 C5767 1.414 . S
C5766 C5769 1.499 . S
C5767 H5741 0.950 . S
C5767 C5766 1.414 . S
C5767 C5768 1.374 . S
C5768 H5742 0.950 . S
C5768 C5764 1.385 . S
C5768 C5767 1.374 . S
C5769 C5766 1.499 . S
C5769 C5770 1.373 . S
C5769 C5771 1.389 . S
C5770 H5743 0.950 . S
C5770 C5756 1.377 . S
C5770 C5769 1.373 . S
C5771 C5755 1.377 . S
C5771 C5769 1.389 . S
C5771 C5772 1.524 . S
C5772 C5771 1.524 . S
C5772 C5773 1.397 . S
C5772 C5777 1.363 . S
C5773 H5744 0.950 . S
C5773 C5772 1.397 . S
C5773 C5774 1.334 . S
C5774 H5745 0.950 . S
C5774 C5773 1.334 . S
C5774 C5775 1.287 . S
C5775 C5774 1.287 . S
C5775 C5776 1.524 . S
C5775 H5778 0.999 . S
C5776 H5746 0.950 . S
C5776 C5775 1.524 . S
C5776 C5777 1.415 . S
C5777 H5747 0.950 . S
C5777 C5772 1.363 . S
C5777 C5776 1.415 . S
H5778 C5775 0.999 . S
H5779 C5760 0.913 . S
H5780 C5798 0.951 . S
H5781 C5800 0.951 . S
H5782 C5802 0.950 . S
H5783 C5803 0.950 . S
H5784 C5805 0.950 . S
H5785 C5808 0.950 . S
H5786 C5809 0.950 . S
H5787 C5811 0.950 . S
H5788 C5812 0.950 . S
H5789 C5813 0.894 1_455 S
H5790 C5815 0.951 . S
H5791 C5817 0.950 . S
H5792 C5818 0.950 . S
H5793 C5820 0.950 . S
H5794 C5823 0.950 . S
H5795 C5824 0.950 . S
H5796 C5826 0.950 . S
H5797 C5827 0.950 . S
C5798 H5780 0.951 . S
C5798 C5799 1.366 . S
C5798 C5800 1.388 . S
C5799 C5798 1.366 . S
C5799 C5803 1.385 . S
C5800 H5781 0.951 . S
C5800 C5798 1.388 . S
C5800 C5801 1.366 . S
C5801 C5800 1.366 . S
C5801 C5802 1.414 . S
C5801 C5804 1.499 . S
C5802 H5782 0.950 . S
C5802 C5801 1.414 . S
C5802 C5803 1.374 . S
C5803 H5783 0.950 . S
C5803 C5799 1.385 . S
C5803 C5802 1.374 . S
C5804 C5801 1.499 . S
C5804 C5805 1.373 . S
C5804 C5806 1.389 . S
C5805 H5784 0.950 . S
C5805 C5804 1.373 . S
C5805 C5821 1.377 . S
C5806 C5804 1.389 . S
C5806 C5807 1.524 . S
C5806 C5820 1.377 . S
C5807 C5806 1.524 . S
C5807 C5808 1.397 . S
C5807 C5812 1.363 . S
C5808 H5785 0.950 . S
C5808 C5807 1.397 . S
C5808 C5809 1.334 . S
C5809 H5786 0.950 . S
C5809 C5808 1.334 . S
C5809 C5810 1.287 . S
C5810 C5809 1.287 . S
C5810 C5811 1.524 . S
C5810 H5829 0.913 . S
C5811 H5787 0.950 . S
C5811 C5810 1.524 . S
C5811 C5812 1.415 . S
C5812 H5788 0.950 . S
C5812 C5807 1.363 . S
C5812 C5811 1.415 . S
C5813 H5789 0.894 1_655 S
C5813 C5814 1.390 . S
C5813 C5815 1.423 . S
C5814 C5813 1.390 . S
C5814 C5818 1.385 . S
C5815 H5790 0.951 . S
C5815 C5813 1.423 . S
C5815 C5816 1.366 . S
C5816 C5815 1.366 . S
C5816 C5817 1.414 . S
C5816 C5819 1.499 . S
C5817 H5791 0.950 . S
C5817 C5816 1.414 . S
C5817 C5818 1.374 . S
C5818 H5792 0.950 . S
C5818 C5814 1.385 . S
C5818 C5817 1.374 . S
C5819 C5816 1.499 . S
C5819 C5820 1.373 . S
C5819 C5821 1.389 . S
C5820 H5793 0.950 . S
C5820 C5806 1.377 . S
C5820 C5819 1.373 . S
C5821 C5805 1.377 . S
C5821 C5819 1.389 . S
C5821 C5822 1.524 . S
C5822 C5821 1.524 . S
C5822 C5823 1.397 . S
C5822 C5827 1.363 . S
C5823 H5794 0.950 . S
C5823 C5822 1.397 . S
C5823 C5824 1.334 . S
C5824 H5795 0.950 . S
C5824 C5823 1.334 . S
C5824 C5825 1.287 . S
C5825 C5824 1.287 . S
C5825 C5826 1.524 . S
C5825 H5828 0.999 . S
C5826 H5796 0.950 . S
C5826 C5825 1.524 . S
C5826 C5827 1.415 . S
C5827 H5797 0.950 . S
C5827 C5822 1.363 . S
C5827 C5826 1.415 . S
H5828 C5825 0.999 . S
H5829 C5810 0.913 . S
H5830 C5848 0.951 . S
H5831 C5850 0.951 . S
H5832 C5852 0.950 . S
H5833 C5853 0.950 . S
H5834 C5855 0.950 . S
H5835 C5858 0.950 . S
H5836 C5859 0.950 . S
H5837 C5861 0.950 . S
H5838 C5862 0.950 . S
H5839 C5863 0.951 . S
H5840 C5865 0.951 . S
H5841 C5867 0.950 . S
H5842 C5868 0.950 . S
H5843 C5870 0.950 . S
H5844 C5873 0.950 . S
H5845 C5874 0.950 . S
H5846 C5876 0.950 . S
H5847 C5877 0.950 . S
C5848 H5830 0.951 . S
C5848 C5849 1.366 . S
C5848 C5850 1.388 . S
C5849 C5848 1.366 . S
C5849 C5853 1.385 . S
C5850 H5831 0.951 . S
C5850 C5848 1.388 . S
C5850 C5851 1.366 . S
C5851 C5850 1.366 . S
C5851 C5852 1.414 . S
C5851 C5854 1.499 . S
C5852 H5832 0.950 . S
C5852 C5851 1.414 . S
C5852 C5853 1.374 . S
C5853 H5833 0.950 . S
C5853 C5849 1.385 . S
C5853 C5852 1.374 . S
C5854 C5851 1.499 . S
C5854 C5855 1.373 . S
C5854 C5856 1.389 . S
C5855 H5834 0.950 . S
C5855 C5854 1.373 . S
C5855 C5871 1.377 . S
C5856 C5854 1.389 . S
C5856 C5857 1.524 . S
C5856 C5870 1.377 . S
C5857 C5856 1.524 . S
C5857 C5858 1.397 . S
C5857 C5862 1.363 . S
C5858 H5835 0.950 . S
C5858 C5857 1.397 . S
C5858 C5859 1.334 . S
C5859 H5836 0.950 . S
C5859 C5858 1.334 . S
C5859 C5860 1.287 . S
C5860 C5859 1.287 . S
C5860 C5861 1.524 . S
C5860 H5879 0.913 . S
C5861 H5837 0.950 . S
C5861 C5860 1.524 . S
C5861 C5862 1.415 . S
C5862 H5838 0.950 . S
C5862 C5857 1.363 . S
C5862 C5861 1.415 . S
C5863 H5839 0.951 . S
C5863 C5864 1.366 . S
C5863 C5865 1.388 . S
C5864 C5863 1.366 . S
C5864 C5868 1.385 . S
C5865 H5840 0.951 . S
C5865 C5863 1.388 . S
C5865 C5866 1.366 . S
C5866 C5865 1.366 . S
C5866 C5867 1.414 . S
C5866 C5869 1.499 . S
C5867 H5841 0.950 . S
C5867 C5866 1.414 . S
C5867 C5868 1.374 . S
C5868 H5842 0.950 . S
C5868 C5864 1.385 . S
C5868 C5867 1.374 . S
C5869 C5866 1.499 . S
C5869 C5870 1.373 . S
C5869 C5871 1.389 . S
C5870 H5843 0.950 . S
C5870 C5856 1.377 . S
C5870 C5869 1.373 . S
C5871 C5855 1.377 . S
C5871 C5869 1.389 . S
C5871 C5872 1.524 . S
C5872 C5871 1.524 . S
C5872 C5873 1.397 . S
C5872 C5877 1.363 . S
C5873 H5844 0.950 . S
C5873 C5872 1.397 . S
C5873 C5874 1.334 . S
C5874 H5845 0.950 . S
C5874 C5873 1.334 . S
C5874 C5875 1.287 . S
C5875 C5874 1.287 . S
C5875 C5876 1.524 . S
C5875 H5878 0.999 . S
C5876 H5846 0.950 . S
C5876 C5875 1.524 . S
C5876 C5877 1.415 . S
C5877 H5847 0.950 . S
C5877 C5872 1.363 . S
C5877 C5876 1.415 . S
H5878 C5875 0.999 . S
H5879 C5860 0.913 . S
H5880 C5898 0.951 . S
H5881 C5900 0.951 . S
H5882 C5902 0.950 . S
H5883 C5903 0.950 . S
H5884 C5905 0.950 . S
H5885 C5908 0.950 . S
H5886 C5909 0.950 . S
H5887 C5911 0.950 . S
H5888 C5912 0.950 . S
H5889 C5913 0.951 . S
H5890 C5915 0.951 . S
H5891 C5917 0.950 . S
H5892 C5918 0.950 . S
H5893 C5920 0.950 . S
H5894 C5923 0.950 . S
H5895 C5924 0.950 . S
H5896 C5926 0.950 . S
H5897 C5927 0.950 . S
C5898 H5880 0.951 . S
C5898 C5899 1.366 . S
C5898 C5900 1.388 . S
C5899 C5898 1.366 . S
C5899 C5903 1.385 . S
C5900 H5881 0.951 . S
C5900 C5898 1.388 . S
C5900 C5901 1.366 . S
C5901 C5900 1.366 . S
C5901 C5902 1.414 . S
C5901 C5904 1.499 . S
C5902 H5882 0.950 . S
C5902 C5901 1.414 . S
C5902 C5903 1.374 . S
C5903 H5883 0.950 . S
C5903 C5899 1.385 . S
C5903 C5902 1.374 . S
C5904 C5901 1.499 . S
C5904 C5905 1.373 . S
C5904 C5906 1.389 . S
C5905 H5884 0.950 . S
C5905 C5904 1.373 . S
C5905 C5921 1.377 . S
C5906 C5904 1.389 . S
C5906 C5907 1.524 . S
C5906 C5920 1.377 . S
C5907 C5906 1.524 . S
C5907 C5908 1.397 . S
C5907 C5912 1.363 . S
C5908 H5885 0.950 . S
C5908 C5907 1.397 . S
C5908 C5909 1.334 . S
C5909 H5886 0.950 . S
C5909 C5908 1.334 . S
C5909 C5910 1.287 . S
C5910 C5909 1.287 . S
C5910 C5911 1.524 . S
C5910 H5929 0.913 . S
C5911 H5887 0.950 . S
C5911 C5910 1.524 . S
C5911 C5912 1.415 . S
C5912 H5888 0.950 . S
C5912 C5907 1.363 . S
C5912 C5911 1.415 . S
C5913 H5889 0.951 . S
C5913 C5914 1.366 . S
C5913 C5915 1.388 . S
C5914 C5913 1.366 . S
C5914 C5918 1.385 . S
C5915 H5890 0.951 . S
C5915 C5913 1.388 . S
C5915 C5916 1.366 . S
C5916 C5915 1.366 . S
C5916 C5917 1.414 . S
C5916 C5919 1.499 . S
C5917 H5891 0.950 . S
C5917 C5916 1.414 . S
C5917 C5918 1.374 . S
C5918 H5892 0.950 . S
C5918 C5914 1.385 . S
C5918 C5917 1.374 . S
C5919 C5916 1.499 . S
C5919 C5920 1.373 . S
C5919 C5921 1.389 . S
C5920 H5893 0.950 . S
C5920 C5906 1.377 . S
C5920 C5919 1.373 . S
C5921 C5905 1.377 . S
C5921 C5919 1.389 . S
C5921 C5922 1.524 . S
C5922 C5921 1.524 . S
C5922 C5923 1.397 . S
C5922 C5927 1.363 . S
C5923 H5894 0.950 . S
C5923 C5922 1.397 . S
C5923 C5924 1.334 . S
C5924 H5895 0.950 . S
C5924 C5923 1.334 . S
C5924 C5925 1.287 . S
C5925 C5924 1.287 . S
C5925 C5926 1.524 . S
C5925 H5928 0.999 . S
C5926 H5896 0.950 . S
C5926 C5925 1.524 . S
C5926 C5927 1.415 . S
C5927 H5897 0.950 . S
C5927 C5922 1.363 . S
C5927 C5926 1.415 . S
H5928 C5925 0.999 . S
H5929 C5910 0.913 . S
H5930 C5948 0.951 . S
H5931 C5950 0.951 . S
H5932 C5952 0.950 . S
H5933 C5953 0.950 . S
H5934 C5955 0.950 . S
H5935 C5958 0.950 . S
H5936 C5959 0.950 . S
H5937 C5961 0.950 . S
H5938 C5962 0.950 . S
H5939 C5963 0.951 . S
H5940 C5965 0.951 . S
H5941 C5967 0.950 . S
H5942 C5968 0.950 . S
H5943 C5970 0.950 . S
H5944 C5973 0.950 . S
H5945 C5974 0.950 . S
H5946 C5976 0.950 . S
H5947 C5977 0.950 . S
C5948 H5930 0.951 . S
C5948 C5949 1.366 . S
C5948 C5950 1.388 . S
C5949 C5948 1.366 . S
C5949 C5953 1.385 . S
C5950 H5931 0.951 . S
C5950 C5948 1.388 . S
C5950 C5951 1.366 . S
C5951 C5950 1.366 . S
C5951 C5952 1.414 . S
C5951 C5954 1.499 . S
C5952 H5932 0.950 . S
C5952 C5951 1.414 . S
C5952 C5953 1.374 . S
C5953 H5933 0.950 . S
C5953 C5949 1.385 . S
C5953 C5952 1.374 . S
C5954 C5951 1.499 . S
C5954 C5955 1.373 . S
C5954 C5956 1.389 . S
C5955 H5934 0.950 . S
C5955 C5954 1.373 . S
C5955 C5971 1.377 . S
C5956 C5954 1.389 . S
C5956 C5957 1.524 . S
C5956 C5970 1.377 . S
C5957 C5956 1.524 . S
C5957 C5958 1.397 . S
C5957 C5962 1.363 . S
C5958 H5935 0.950 . S
C5958 C5957 1.397 . S
C5958 C5959 1.334 . S
C5959 H5936 0.950 . S
C5959 C5958 1.334 . S
C5959 C5960 1.287 . S
C5960 C5959 1.287 . S
C5960 C5961 1.524 . S
C5960 H5979 0.913 . S
C5961 H5937 0.950 . S
C5961 C5960 1.524 . S
C5961 C5962 1.415 . S
C5962 H5938 0.950 . S
C5962 C5957 1.363 . S
C5962 C5961 1.415 . S
C5963 H5939 0.951 . S
C5963 C5964 1.366 . S
C5963 C5965 1.388 . S
C5964 C5963 1.366 . S
C5964 C5968 1.385 . S
C5965 H5940 0.951 . S
C5965 C5963 1.388 . S
C5965 C5966 1.366 . S
C5966 C5965 1.366 . S
C5966 C5967 1.414 . S
C5966 C5969 1.499 . S
C5967 H5941 0.950 . S
C5967 C5966 1.414 . S
C5967 C5968 1.374 . S
C5968 H5942 0.950 . S
C5968 C5964 1.385 . S
C5968 C5967 1.374 . S
C5969 C5966 1.499 . S
C5969 C5970 1.373 . S
C5969 C5971 1.389 . S
C5970 H5943 0.950 . S
C5970 C5956 1.377 . S
C5970 C5969 1.373 . S
C5971 C5955 1.377 . S
C5971 C5969 1.389 . S
C5971 C5972 1.524 . S
C5972 C5971 1.524 . S
C5972 C5973 1.397 . S
C5972 C5977 1.363 . S
C5973 H5944 0.950 . S
C5973 C5972 1.397 . S
C5973 C5974 1.334 . S
C5974 H5945 0.950 . S
C5974 C5973 1.334 . S
C5974 C5975 1.287 . S
C5975 C5974 1.287 . S
C5975 C5976 1.524 . S
C5975 H5978 0.999 . S
C5976 H5946 0.950 . S
C5976 C5975 1.524 . S
C5976 C5977 1.415 . S
C5977 H5947 0.950 . S
C5977 C5972 1.363 . S
C5977 C5976 1.415 . S
H5978 C5975 0.999 . S
H5979 C5960 0.913 . S
H5980 C5998 0.951 . S
H5981 C6000 0.951 . S
H5982 C6002 0.950 . S
H5983 C6003 0.950 . S
H5984 C6005 0.950 . S
H5985 C6008 0.950 . S
H5986 C6009 0.950 . S
H5987 C6011 0.950 . S
H5988 C6012 0.950 . S
H5989 C6013 0.951 . S
H5990 C6015 0.951 . S
H5991 C6017 0.950 . S
H5992 C6018 0.950 . S
H5993 C6020 0.950 . S
H5994 C6023 0.950 . S
H5995 C6024 0.950 . S
H5996 C6026 0.950 . S
H5997 C6027 0.950 . S
C5998 H5980 0.951 . S
C5998 C5999 1.366 . S
C5998 C6000 1.388 . S
C5999 C5998 1.366 . S
C5999 C6003 1.385 . S
C6000 H5981 0.951 . S
C6000 C5998 1.388 . S
C6000 C6001 1.366 . S
C6001 C6000 1.366 . S
C6001 C6002 1.414 . S
C6001 C6004 1.499 . S
C6002 H5982 0.950 . S
C6002 C6001 1.414 . S
C6002 C6003 1.374 . S
C6003 H5983 0.950 . S
C6003 C5999 1.385 . S
C6003 C6002 1.374 . S
C6004 C6001 1.499 . S
C6004 C6005 1.373 . S
C6004 C6006 1.389 . S
C6005 H5984 0.950 . S
C6005 C6004 1.373 . S
C6005 C6021 1.377 . S
C6006 C6004 1.389 . S
C6006 C6007 1.524 . S
C6006 C6020 1.377 . S
C6007 C6006 1.524 . S
C6007 C6008 1.397 . S
C6007 C6012 1.363 . S
C6008 H5985 0.950 . S
C6008 C6007 1.397 . S
C6008 C6009 1.334 . S
C6009 H5986 0.950 . S
C6009 C6008 1.334 . S
C6009 C6010 1.287 . S
C6010 C6009 1.287 . S
C6010 C6011 1.524 . S
C6010 H6029 0.913 . S
C6011 H5987 0.950 . S
C6011 C6010 1.524 . S
C6011 C6012 1.415 . S
C6012 H5988 0.950 . S
C6012 C6007 1.363 . S
C6012 C6011 1.415 . S
C6013 H5989 0.951 . S
C6013 C6014 1.366 . S
C6013 C6015 1.388 . S
C6014 C6013 1.366 . S
C6014 C6018 1.385 . S
C6015 H5990 0.951 . S
C6015 C6013 1.388 . S
C6015 C6016 1.366 . S
C6016 C6015 1.366 . S
C6016 C6017 1.414 . S
C6016 C6019 1.499 . S
C6017 H5991 0.950 . S
C6017 C6016 1.414 . S
C6017 C6018 1.374 . S
C6018 H5992 0.950 . S
C6018 C6014 1.385 . S
C6018 C6017 1.374 . S
C6019 C6016 1.499 . S
C6019 C6020 1.373 . S
C6019 C6021 1.389 . S
C6020 H5993 0.950 . S
C6020 C6006 1.377 . S
C6020 C6019 1.373 . S
C6021 C6005 1.377 . S
C6021 C6019 1.389 . S
C6021 C6022 1.524 . S
C6022 C6021 1.524 . S
C6022 C6023 1.397 . S
C6022 C6027 1.363 . S
C6023 H5994 0.950 . S
C6023 C6022 1.397 . S
C6023 C6024 1.334 . S
C6024 H5995 0.950 . S
C6024 C6023 1.334 . S
C6024 C6025 1.287 . S
C6025 C6024 1.287 . S
C6025 C6026 1.524 . S
C6025 H6028 0.999 . S
C6026 H5996 0.950 . S
C6026 C6025 1.524 . S
C6026 C6027 1.415 . S
C6027 H5997 0.950 . S
C6027 C6022 1.363 . S
C6027 C6026 1.415 . S
H6028 C6025 0.999 . S
H6029 C6010 0.913 . S
H6030 C6048 0.951 . S
H6031 C6050 0.951 . S
H6032 C6052 0.950 . S
H6033 C6053 0.950 . S
H6034 C6055 0.950 . S
H6035 C6058 0.950 . S
H6036 C6059 0.950 . S
H6037 C6061 0.950 . S
H6038 C6062 0.950 . S
H6039 C6063 0.951 . S
H6040 C6065 0.951 . S
H6041 C6067 0.950 . S
H6042 C6068 0.950 . S
H6043 C6070 0.950 . S
H6044 C6073 0.950 . S
H6045 C6074 0.950 . S
H6046 C6076 0.950 . S
H6047 C6077 0.950 . S
C6048 H6030 0.951 . S
C6048 C6049 1.366 . S
C6048 C6050 1.388 . S
C6049 C6048 1.366 . S
C6049 C6053 1.385 . S
C6050 H6031 0.951 . S
C6050 C6048 1.388 . S
C6050 C6051 1.366 . S
C6051 C6050 1.366 . S
C6051 C6052 1.414 . S
C6051 C6054 1.499 . S
C6052 H6032 0.950 . S
C6052 C6051 1.414 . S
C6052 C6053 1.374 . S
C6053 H6033 0.950 . S
C6053 C6049 1.385 . S
C6053 C6052 1.374 . S
C6054 C6051 1.499 . S
C6054 C6055 1.373 . S
C6054 C6056 1.389 . S
C6055 H6034 0.950 . S
C6055 C6054 1.373 . S
C6055 C6071 1.377 . S
C6056 C6054 1.389 . S
C6056 C6057 1.524 . S
C6056 C6070 1.377 . S
C6057 C6056 1.524 . S
C6057 C6058 1.397 . S
C6057 C6062 1.363 . S
C6058 H6035 0.950 . S
C6058 C6057 1.397 . S
C6058 C6059 1.334 . S
C6059 H6036 0.950 . S
C6059 C6058 1.334 . S
C6059 C6060 1.287 . S
C6060 C6059 1.287 . S
C6060 C6061 1.524 . S
C6060 H6079 0.913 . S
C6061 H6037 0.950 . S
C6061 C6060 1.524 . S
C6061 C6062 1.415 . S
C6062 H6038 0.950 . S
C6062 C6057 1.363 . S
C6062 C6061 1.415 . S
C6063 H6039 0.951 . S
C6063 C6064 1.366 . S
C6063 C6065 1.388 . S
C6064 C6063 1.366 . S
C6064 C6068 1.385 . S
C6065 H6040 0.951 . S
C6065 C6063 1.388 . S
C6065 C6066 1.366 . S
C6066 C6065 1.366 . S
C6066 C6067 1.414 . S
C6066 C6069 1.499 . S
C6067 H6041 0.950 . S
C6067 C6066 1.414 . S
C6067 C6068 1.374 . S
C6068 H6042 0.950 . S
C6068 C6064 1.385 . S
C6068 C6067 1.374 . S
C6069 C6066 1.499 . S
C6069 C6070 1.373 . S
C6069 C6071 1.389 . S
C6070 H6043 0.950 . S
C6070 C6056 1.377 . S
C6070 C6069 1.373 . S
C6071 C6055 1.377 . S
C6071 C6069 1.389 . S
C6071 C6072 1.524 . S
C6072 C6071 1.524 . S
C6072 C6073 1.397 . S
C6072 C6077 1.363 . S
C6073 H6044 0.950 . S
C6073 C6072 1.397 . S
C6073 C6074 1.334 . S
C6074 H6045 0.950 . S
C6074 C6073 1.334 . S
C6074 C6075 1.287 . S
C6075 C6074 1.287 . S
C6075 C6076 1.524 . S
C6075 H6078 0.999 . S
C6076 H6046 0.950 . S
C6076 C6075 1.524 . S
C6076 C6077 1.415 . S
C6077 H6047 0.950 . S
C6077 C6072 1.363 . S
C6077 C6076 1.415 . S
H6078 C6075 0.999 . S
H6079 C6060 0.913 . S
H6080 C6098 0.951 . S
H6081 C6100 0.951 . S
H6082 C6102 0.950 . S
H6083 C6103 0.950 . S
H6084 C6105 0.950 . S
H6085 C6108 0.950 . S
H6086 C6109 0.950 . S
H6087 C6111 0.950 . S
H6088 C6112 0.950 . S
H6089 C6113 0.951 . S
H6090 C6115 0.951 . S
H6091 C6117 0.950 . S
H6092 C6118 0.950 . S
H6093 C6120 0.950 . S
H6094 C6123 0.950 . S
H6095 C6124 0.950 . S
H6096 C6126 0.950 . S
H6097 C6127 0.950 . S
C6098 H6080 0.951 . S
C6098 C6099 1.366 . S
C6098 C6100 1.388 . S
C6099 C6098 1.366 . S
C6099 C6103 1.385 . S
C6100 H6081 0.951 . S
C6100 C6098 1.388 . S
C6100 C6101 1.366 . S
C6101 C6100 1.366 . S
C6101 C6102 1.414 . S
C6101 C6104 1.499 . S
C6102 H6082 0.950 . S
C6102 C6101 1.414 . S
C6102 C6103 1.374 . S
C6103 H6083 0.950 . S
C6103 C6099 1.385 . S
C6103 C6102 1.374 . S
C6104 C6101 1.499 . S
C6104 C6105 1.373 . S
C6104 C6106 1.389 . S
C6105 H6084 0.950 . S
C6105 C6104 1.373 . S
C6105 C6121 1.377 . S
C6106 C6104 1.389 . S
C6106 C6107 1.524 . S
C6106 C6120 1.377 . S
C6107 C6106 1.524 . S
C6107 C6108 1.397 . S
C6107 C6112 1.363 . S
C6108 H6085 0.950 . S
C6108 C6107 1.397 . S
C6108 C6109 1.334 . S
C6109 H6086 0.950 . S
C6109 C6108 1.334 . S
C6109 C6110 1.287 . S
C6110 C6109 1.287 . S
C6110 C6111 1.524 . S
C6110 H6129 0.913 . S
C6111 H6087 0.950 . S
C6111 C6110 1.524 . S
C6111 C6112 1.415 . S
C6112 H6088 0.950 . S
C6112 C6107 1.363 . S
C6112 C6111 1.415 . S
C6113 H6089 0.951 . S
C6113 C6114 1.366 . S
C6113 C6115 1.388 . S
C6114 C6113 1.366 . S
C6114 C6118 1.385 . S
C6115 H6090 0.951 . S
C6115 C6113 1.388 . S
C6115 C6116 1.366 . S
C6116 C6115 1.366 . S
C6116 C6117 1.414 . S
C6116 C6119 1.499 . S
C6117 H6091 0.950 . S
C6117 C6116 1.414 . S
C6117 C6118 1.374 . S
C6118 H6092 0.950 . S
C6118 C6114 1.385 . S
C6118 C6117 1.374 . S
C6119 C6116 1.499 . S
C6119 C6120 1.373 . S
C6119 C6121 1.389 . S
C6120 H6093 0.950 . S
C6120 C6106 1.377 . S
C6120 C6119 1.373 . S
C6121 C6105 1.377 . S
C6121 C6119 1.389 . S
C6121 C6122 1.524 . S
C6122 C6121 1.524 . S
C6122 C6123 1.397 . S
C6122 C6127 1.363 . S
C6123 H6094 0.950 . S
C6123 C6122 1.397 . S
C6123 C6124 1.334 . S
C6124 H6095 0.950 . S
C6124 C6123 1.334 . S
C6124 C6125 1.287 . S
C6125 C6124 1.287 . S
C6125 C6126 1.524 . S
C6125 H6128 0.999 . S
C6126 H6096 0.950 . S
C6126 C6125 1.524 . S
C6126 C6127 1.415 . S
C6127 H6097 0.950 . S
C6127 C6122 1.363 . S
C6127 C6126 1.415 . S
H6128 C6125 0.999 . S
H6129 C6110 0.913 . S
H6130 C6148 0.951 . S
H6131 C6150 0.951 . S
H6132 C6152 0.950 . S
H6133 C6153 0.950 . S
H6134 C6155 0.950 . S
H6135 C6158 0.950 . S
H6136 C6159 0.950 . S
H6137 C6161 0.950 . S
H6138 C6162 0.950 . S
H6139 C6163 0.895 1_545 S
H6140 C6165 0.951 . S
H6141 C6167 0.950 . S
H6142 C6168 0.950 . S
H6143 C6170 0.950 . S
H6144 C6173 0.950 . S
H6145 C6174 0.950 . S
H6146 C6176 0.950 . S
H6147 C6177 0.950 . S
C6148 H6130 0.951 . S
C6148 C6149 1.366 . S
C6148 C6150 1.388 . S
C6149 C6148 1.366 . S
C6149 C6153 1.385 . S
C6150 H6131 0.951 . S
C6150 C6148 1.388 . S
C6150 C6151 1.366 . S
C6151 C6150 1.366 . S
C6151 C6152 1.414 . S
C6151 C6154 1.499 . S
C6152 H6132 0.950 . S
C6152 C6151 1.414 . S
C6152 C6153 1.374 . S
C6153 H6133 0.950 . S
C6153 C6149 1.385 . S
C6153 C6152 1.374 . S
C6154 C6151 1.499 . S
C6154 C6155 1.373 . S
C6154 C6156 1.389 . S
C6155 H6134 0.950 . S
C6155 C6154 1.373 . S
C6155 C6171 1.377 . S
C6156 C6154 1.389 . S
C6156 C6157 1.524 . S
C6156 C6170 1.377 . S
C6157 C6156 1.524 . S
C6157 C6158 1.397 . S
C6157 C6162 1.363 . S
C6158 H6135 0.950 . S
C6158 C6157 1.397 . S
C6158 C6159 1.334 . S
C6159 H6136 0.950 . S
C6159 C6158 1.334 . S
C6159 C6160 1.287 . S
C6160 C6159 1.287 . S
C6160 C6161 1.524 . S
C6160 H6179 0.913 . S
C6161 H6137 0.950 . S
C6161 C6160 1.524 . S
C6161 C6162 1.415 . S
C6162 H6138 0.950 . S
C6162 C6157 1.363 . S
C6162 C6161 1.415 . S
C6163 H6139 0.895 1_565 S
C6163 C6164 1.401 . S
C6163 C6165 1.410 . S
C6164 C6163 1.401 . S
C6164 C6168 1.385 . S
C6165 H6140 0.951 . S
C6165 C6163 1.410 . S
C6165 C6166 1.366 . S
C6166 C6165 1.366 . S
C6166 C6167 1.414 . S
C6166 C6169 1.499 . S
C6167 H6141 0.950 . S
C6167 C6166 1.414 . S
C6167 C6168 1.374 . S
C6168 H6142 0.950 . S
C6168 C6164 1.385 . S
C6168 C6167 1.374 . S
C6169 C6166 1.499 . S
C6169 C6170 1.373 . S
C6169 C6171 1.389 . S
C6170 H6143 0.950 . S
C6170 C6156 1.377 . S
C6170 C6169 1.373 . S
C6171 C6155 1.377 . S
C6171 C6169 1.389 . S
C6171 C6172 1.524 . S
C6172 C6171 1.524 . S
C6172 C6173 1.397 . S
C6172 C6177 1.363 . S
C6173 H6144 0.950 . S
C6173 C6172 1.397 . S
C6173 C6174 1.334 . S
C6174 H6145 0.950 . S
C6174 C6173 1.334 . S
C6174 C6175 1.287 1_565 S
C6175 C6174 1.287 1_545 S
C6175 C6176 1.524 . S
C6175 H6178 0.999 . S
C6176 H6146 0.950 . S
C6176 C6175 1.524 . S
C6176 C6177 1.415 1_545 S
C6177 H6147 0.950 . S
C6177 C6172 1.363 . S
C6177 C6176 1.415 1_565 S
H6178 C6175 0.999 . S
H6179 C6160 0.913 . S
H6180 C6198 0.951 . S
H6181 C6200 0.951 . S
H6182 C6202 0.950 . S
H6183 C6203 0.950 . S
H6184 C6205 0.950 . S
H6185 C6208 0.950 . S
H6186 C6209 0.950 . S
H6187 C6211 0.950 . S
H6188 C6212 0.950 . S
H6189 C6213 0.951 . S
H6190 C6215 0.951 . S
H6191 C6217 0.950 . S
H6192 C6218 0.950 . S
H6193 C6220 0.950 . S
H6194 C6223 0.950 . S
H6195 C6224 0.950 . S
H6196 C6226 0.950 . S
H6197 C6227 0.950 . S
C6198 H6180 0.951 . S
C6198 C6199 1.366 . S
C6198 C6200 1.388 . S
C6199 C6198 1.366 . S
C6199 C6203 1.385 . S
C6200 H6181 0.951 . S
C6200 C6198 1.388 . S
C6200 C6201 1.366 . S
C6201 C6200 1.366 . S
C6201 C6202 1.414 . S
C6201 C6204 1.499 . S
C6202 H6182 0.950 . S
C6202 C6201 1.414 . S
C6202 C6203 1.374 . S
C6203 H6183 0.950 . S
C6203 C6199 1.385 . S
C6203 C6202 1.374 . S
C6204 C6201 1.499 . S
C6204 C6205 1.373 . S
C6204 C6206 1.389 . S
C6205 H6184 0.950 . S
C6205 C6204 1.373 . S
C6205 C6221 1.377 . S
C6206 C6204 1.389 . S
C6206 C6207 1.524 . S
C6206 C6220 1.377 . S
C6207 C6206 1.524 . S
C6207 C6208 1.397 . S
C6207 C6212 1.363 . S
C6208 H6185 0.950 . S
C6208 C6207 1.397 . S
C6208 C6209 1.334 . S
C6209 H6186 0.950 . S
C6209 C6208 1.334 . S
C6209 C6210 1.287 . S
C6210 C6209 1.287 . S
C6210 C6211 1.524 . S
C6210 H6229 0.913 . S
C6211 H6187 0.950 . S
C6211 C6210 1.524 . S
C6211 C6212 1.415 . S
C6212 H6188 0.950 . S
C6212 C6207 1.363 . S
C6212 C6211 1.415 . S
C6213 H6189 0.951 . S
C6213 C6214 1.366 . S
C6213 C6215 1.388 . S
C6214 C6213 1.366 . S
C6214 C6218 1.385 . S
C6215 H6190 0.951 . S
C6215 C6213 1.388 . S
C6215 C6216 1.366 . S
C6216 C6215 1.366 . S
C6216 C6217 1.414 . S
C6216 C6219 1.499 . S
C6217 H6191 0.950 . S
C6217 C6216 1.414 . S
C6217 C6218 1.374 . S
C6218 H6192 0.950 . S
C6218 C6214 1.385 . S
C6218 C6217 1.374 . S
C6219 C6216 1.499 . S
C6219 C6220 1.373 . S
C6219 C6221 1.389 . S
C6220 H6193 0.950 . S
C6220 C6206 1.377 . S
C6220 C6219 1.373 . S
C6221 C6205 1.377 . S
C6221 C6219 1.389 . S
C6221 C6222 1.524 . S
C6222 C6221 1.524 . S
C6222 C6223 1.397 . S
C6222 C6227 1.363 . S
C6223 H6194 0.950 . S
C6223 C6222 1.397 . S
C6223 C6224 1.334 . S
C6224 H6195 0.950 . S
C6224 C6223 1.334 . S
C6224 C6225 1.287 . S
C6225 C6224 1.287 . S
C6225 C6226 1.524 . S
C6225 H6228 0.999 . S
C6226 H6196 0.950 . S
C6226 C6225 1.524 . S
C6226 C6227 1.415 . S
C6227 H6197 0.950 . S
C6227 C6222 1.363 . S
C6227 C6226 1.415 . S
H6228 C6225 0.999 . S
H6229 C6210 0.913 . S
H6230 C6248 0.951 . S
H6231 C6250 0.951 . S
H6232 C6252 0.950 . S
H6233 C6253 0.950 . S
H6234 C6255 0.950 . S
H6235 C6258 0.950 . S
H6236 C6259 0.950 . S
H6237 C6261 0.950 . S
H6238 C6262 0.950 . S
H6239 C6263 0.951 . S
H6240 C6265 0.951 . S
H6241 C6267 0.950 . S
H6242 C6268 0.950 . S
H6243 C6270 0.950 . S
H6244 C6273 0.950 . S
H6245 C6274 0.950 . S
H6246 C6276 0.950 1_565 S
H6247 C6277 0.950 . S
C6248 H6230 0.951 . S
C6248 C6249 1.366 . S
C6248 C6250 1.388 . S
C6249 C6248 1.366 . S
C6249 C6253 1.385 . S
C6250 H6231 0.951 . S
C6250 C6248 1.388 . S
C6250 C6251 1.366 . S
C6251 C6250 1.366 . S
C6251 C6252 1.414 . S
C6251 C6254 1.499 . S
C6252 H6232 0.950 . S
C6252 C6251 1.414 . S
C6252 C6253 1.374 . S
C6253 H6233 0.950 . S
C6253 C6249 1.385 . S
C6253 C6252 1.374 . S
C6254 C6251 1.499 . S
C6254 C6255 1.373 . S
C6254 C6256 1.389 . S
C6255 H6234 0.950 . S
C6255 C6254 1.373 . S
C6255 C6271 1.377 . S
C6256 C6254 1.389 . S
C6256 C6257 1.524 . S
C6256 C6270 1.377 . S
C6257 C6256 1.524 . S
C6257 C6258 1.397 . S
C6257 C6262 1.363 . S
C6258 H6235 0.950 . S
C6258 C6257 1.397 . S
C6258 C6259 1.334 . S
C6259 H6236 0.950 . S
C6259 C6258 1.334 . S
C6259 C6260 1.287 . S
C6260 C6259 1.287 . S
C6260 C6261 1.524 . S
C6260 H6279 0.913 . S
C6261 H6237 0.950 . S
C6261 C6260 1.524 . S
C6261 C6262 1.415 . S
C6262 H6238 0.950 . S
C6262 C6257 1.363 . S
C6262 C6261 1.415 . S
C6263 H6239 0.951 . S
C6263 C6264 1.366 . S
C6263 C6265 1.388 . S
C6264 C6263 1.366 . S
C6264 C6268 1.385 . S
C6265 H6240 0.951 . S
C6265 C6263 1.388 . S
C6265 C6266 1.366 . S
C6266 C6265 1.366 . S
C6266 C6267 1.414 . S
C6266 C6269 1.499 . S
C6267 H6241 0.950 . S
C6267 C6266 1.414 . S
C6267 C6268 1.374 . S
C6268 H6242 0.950 . S
C6268 C6264 1.385 . S
C6268 C6267 1.374 . S
C6269 C6266 1.499 . S
C6269 C6270 1.373 . S
C6269 C6271 1.389 . S
C6270 H6243 0.950 . S
C6270 C6256 1.377 . S
C6270 C6269 1.373 . S
C6271 C6255 1.377 . S
C6271 C6269 1.389 . S
C6271 C6272 1.524 . S
C6272 C6271 1.524 . S
C6272 C6273 1.397 1_554 S
C6272 C6277 1.363 . S
C6273 H6244 0.950 . S
C6273 C6272 1.397 1_556 S
C6273 C6274 1.334 . S
C6274 H6245 0.950 . S
C6274 C6273 1.334 . S
C6274 C6275 1.287 . S
C6275 C6274 1.287 . S
C6275 C6276 1.524 . S
C6275 H6278 0.994 . S
C6276 H6246 0.950 1_545 S
C6276 C6275 1.524 . S
C6276 C6277 1.415 1_556 S
C6277 H6247 0.950 . S
C6277 C6272 1.363 . S
C6277 C6276 1.415 1_554 S
H6278 C6275 0.994 . S
H6279 C6260 0.913 . S
H6280 C6298 0.951 . S
H6281 C6300 0.951 . S
H6282 C6302 0.950 . S
H6283 C6303 0.950 . S
H6284 C6305 0.950 . S
H6285 C6308 0.950 . S
H6286 C6309 0.950 . S
H6287 C6311 0.950 . S
H6288 C6312 0.950 . S
H6289 C6313 0.951 . S
H6290 C6315 0.951 . S
H6291 C6317 0.950 . S
H6292 C6318 0.950 . S
H6293 C6320 0.950 . S
H6294 C6323 0.950 . S
H6295 C6324 0.950 . S
H6296 C6326 0.950 . S
H6297 C6327 0.950 . S
C6298 H6280 0.951 . S
C6298 C6299 1.366 . S
C6298 C6300 1.388 . S
C6299 C6298 1.366 . S
C6299 C6303 1.385 . S
C6300 H6281 0.951 . S
C6300 C6298 1.388 . S
C6300 C6301 1.366 . S
C6301 C6300 1.366 . S
C6301 C6302 1.414 . S
C6301 C6304 1.499 . S
C6302 H6282 0.950 . S
C6302 C6301 1.414 . S
C6302 C6303 1.374 . S
C6303 H6283 0.950 . S
C6303 C6299 1.385 . S
C6303 C6302 1.374 . S
C6304 C6301 1.499 . S
C6304 C6305 1.373 . S
C6304 C6306 1.389 . S
C6305 H6284 0.950 . S
C6305 C6304 1.373 . S
C6305 C6321 1.377 . S
C6306 C6304 1.389 . S
C6306 C6307 1.524 . S
C6306 C6320 1.377 . S
C6307 C6306 1.524 . S
C6307 C6308 1.397 . S
C6307 C6312 1.363 . S
C6308 H6285 0.950 . S
C6308 C6307 1.397 . S
C6308 C6309 1.334 . S
C6309 H6286 0.950 . S
C6309 C6308 1.334 . S
C6309 C6310 1.287 . S
C6310 C6309 1.287 . S
C6310 C6311 1.524 . S
C6310 H6329 0.913 . S
C6311 H6287 0.950 . S
C6311 C6310 1.524 . S
C6311 C6312 1.415 . S
C6312 H6288 0.950 . S
C6312 C6307 1.363 . S
C6312 C6311 1.415 . S
C6313 H6289 0.951 . S
C6313 C6314 1.366 . S
C6313 C6315 1.388 . S
C6314 C6313 1.366 . S
C6314 C6318 1.385 . S
C6315 H6290 0.951 . S
C6315 C6313 1.388 . S
C6315 C6316 1.366 . S
C6316 C6315 1.366 . S
C6316 C6317 1.414 . S
C6316 C6319 1.499 . S
C6317 H6291 0.950 . S
C6317 C6316 1.414 . S
C6317 C6318 1.374 . S
C6318 H6292 0.950 . S
C6318 C6314 1.385 . S
C6318 C6317 1.374 . S
C6319 C6316 1.499 . S
C6319 C6320 1.373 . S
C6319 C6321 1.389 . S
C6320 H6293 0.950 . S
C6320 C6306 1.377 . S
C6320 C6319 1.373 . S
C6321 C6305 1.377 . S
C6321 C6319 1.389 . S
C6321 C6322 1.524 . S
C6322 C6321 1.524 . S
C6322 C6323 1.397 . S
C6322 C6327 1.363 . S
C6323 H6294 0.950 . S
C6323 C6322 1.397 . S
C6323 C6324 1.334 . S
C6324 H6295 0.950 . S
C6324 C6323 1.334 . S
C6324 C6325 1.287 . S
C6325 C6324 1.287 . S
C6325 C6326 1.524 . S
C6325 H6328 0.999 . S
C6326 H6296 0.950 . S
C6326 C6325 1.524 . S
C6326 C6327 1.415 . S
C6327 H6297 0.950 . S
C6327 C6322 1.363 . S
C6327 C6326 1.415 . S
H6328 C6325 0.999 . S
H6329 C6310 0.913 . S
H6330 C6348 0.951 . S
H6331 C6350 0.951 . S
H6332 C6352 0.950 . S
H6333 C6353 0.950 . S
H6334 C6355 0.950 . S
H6335 C6358 0.963 . S
H6336 C6359 0.950 . S
H6337 C6361 0.950 . S
H6338 C6362 0.950 . S
H6339 C6363 0.951 . S
H6340 C6365 0.951 . S
H6341 C6367 0.950 . S
H6342 C6368 0.950 . S
H6343 C6370 0.950 . S
H6344 C6373 0.950 . S
H6345 C6374 0.950 . S
H6346 C6376 0.950 . S
H6347 C6377 0.950 . S
C6348 H6330 0.951 . S
C6348 C6349 1.366 . S
C6348 C6350 1.388 . S
C6349 C6348 1.366 . S
C6349 C6353 1.385 . S
C6350 H6331 0.951 . S
C6350 C6348 1.388 . S
C6350 C6351 1.366 . S
C6351 C6350 1.366 . S
C6351 C6352 1.414 . S
C6351 C6354 1.499 . S
C6352 H6332 0.950 . S
C6352 C6351 1.414 . S
C6352 C6353 1.374 . S
C6353 H6333 0.950 . S
C6353 C6349 1.385 . S
C6353 C6352 1.374 . S
C6354 C6351 1.499 . S
C6354 C6355 1.373 . S
C6354 C6356 1.389 . S
C6355 H6334 0.950 . S
C6355 C6354 1.373 . S
C6355 C6371 1.377 . S
C6356 C6354 1.389 . S
C6356 C6357 1.524 . S
C6356 C6370 1.377 . S
C6357 C6356 1.524 . S
C6357 C6358 1.377 1_554 S
C6357 C6362 1.363 . S
C6358 H6335 0.963 . S
C6358 C6357 1.377 1_556 S
C6358 C6359 1.341 . S
C6359 H6336 0.950 . S
C6359 C6358 1.341 . S
C6359 C6360 1.287 . S
C6360 C6359 1.287 . S
C6360 C6361 1.524 1_556 S
C6360 H6379 0.913 . S
C6361 H6337 0.950 . S
C6361 C6360 1.524 1_554 S
C6361 C6362 1.415 . S
C6362 H6338 0.950 . S
C6362 C6357 1.363 . S
C6362 C6361 1.415 . S
C6363 H6339 0.951 . S
C6363 C6364 1.366 . S
C6363 C6365 1.388 . S
C6364 C6363 1.366 . S
C6364 C6368 1.385 . S
C6365 H6340 0.951 . S
C6365 C6363 1.388 . S
C6365 C6366 1.366 . S
C6366 C6365 1.366 . S
C6366 C6367 1.414 . S
C6366 C6369 1.499 . S
C6367 H6341 0.950 . S
C6367 C6366 1.414 . S
C6367 C6368 1.374 . S
C6368 H6342 0.950 . S
C6368 C6364 1.385 . S
C6368 C6367 1.374 . S
C6369 C6366 1.499 . S
C6369 C6370 1.373 . S
C6369 C6371 1.389 . S
C6370 H6343 0.950 . S
C6370 C6356 1.377 . S
C6370 C6369 1.373 . S
C6371 C6355 1.377 . S
C6371 C6369 1.389 . S
C6371 C6372 1.524 . S
C6372 C6371 1.524 . S
C6372 C6373 1.397 . S
C6372 C6377 1.363 . S
C6373 H6344 0.950 . S
C6373 C6372 1.397 . S
C6373 C6374 1.334 . S
C6374 H6345 0.950 . S
C6374 C6373 1.334 . S
C6374 C6375 1.287 . S
C6375 C6374 1.287 . S
C6375 C6376 1.524 . S
C6375 H6378 0.999 . S
C6376 H6346 0.950 . S
C6376 C6375 1.524 . S
C6376 C6377 1.415 . S
C6377 H6347 0.950 . S
C6377 C6372 1.363 . S
C6377 C6376 1.415 . S
H6378 C6375 0.999 . S
H6379 C6360 0.913 . S
H6380 C6398 0.951 . S
H6381 C6400 0.951 . S
H6382 C6402 0.950 . S
H6383 C6403 0.950 . S
H6384 C6405 0.950 . S
H6385 C6408 0.950 . S
H6386 C6409 0.950 . S
H6387 C6411 0.950 . S
H6388 C6412 0.950 . S
H6389 C6413 0.951 . S
H6390 C6415 0.951 . S
H6391 C6417 0.950 . S
H6392 C6418 0.950 . S
H6393 C6420 0.950 . S
H6394 C6423 0.950 . S
H6395 C6424 0.950 . S
H6396 C6426 0.950 . S
H6397 C6427 0.950 . S
C6398 H6380 0.951 . S
C6398 C6399 1.366 . S
C6398 C6400 1.388 . S
C6399 C6398 1.366 . S
C6399 C6403 1.385 . S
C6400 H6381 0.951 . S
C6400 C6398 1.388 . S
C6400 C6401 1.366 . S
C6401 C6400 1.366 . S
C6401 C6402 1.414 . S
C6401 C6404 1.499 . S
C6402 H6382 0.950 . S
C6402 C6401 1.414 . S
C6402 C6403 1.374 . S
C6403 H6383 0.950 . S
C6403 C6399 1.385 . S
C6403 C6402 1.374 . S
C6404 C6401 1.499 . S
C6404 C6405 1.373 . S
C6404 C6406 1.389 . S
C6405 H6384 0.950 . S
C6405 C6404 1.373 . S
C6405 C6421 1.377 . S
C6406 C6404 1.389 . S
C6406 C6407 1.524 . S
C6406 C6420 1.377 . S
C6407 C6406 1.524 . S
C6407 C6408 1.397 . S
C6407 C6412 1.363 . S
C6408 H6385 0.950 . S
C6408 C6407 1.397 . S
C6408 C6409 1.334 . S
C6409 H6386 0.950 . S
C6409 C6408 1.334 . S
C6409 C6410 1.287 . S
C6410 C6409 1.287 . S
C6410 C6411 1.524 . S
C6410 H6429 0.913 . S
C6411 H6387 0.950 . S
C6411 C6410 1.524 . S
C6411 C6412 1.415 . S
C6412 H6388 0.950 . S
C6412 C6407 1.363 . S
C6412 C6411 1.415 . S
C6413 H6389 0.951 . S
C6413 C6414 1.366 . S
C6413 C6415 1.388 . S
C6414 C6413 1.366 . S
C6414 C6418 1.385 . S
C6415 H6390 0.951 . S
C6415 C6413 1.388 . S
C6415 C6416 1.366 . S
C6416 C6415 1.366 . S
C6416 C6417 1.414 . S
C6416 C6419 1.499 . S
C6417 H6391 0.950 . S
C6417 C6416 1.414 . S
C6417 C6418 1.374 . S
C6418 H6392 0.950 . S
C6418 C6414 1.385 . S
C6418 C6417 1.374 . S
C6419 C6416 1.499 . S
C6419 C6420 1.373 . S
C6419 C6421 1.389 . S
C6420 H6393 0.950 . S
C6420 C6406 1.377 . S
C6420 C6419 1.373 . S
C6421 C6405 1.377 . S
C6421 C6419 1.389 . S
C6421 C6422 1.524 . S
C6422 C6421 1.524 . S
C6422 C6423 1.397 . S
C6422 C6427 1.363 . S
C6423 H6394 0.950 . S
C6423 C6422 1.397 . S
C6423 C6424 1.334 . S
C6424 H6395 0.950 . S
C6424 C6423 1.334 . S
C6424 C6425 1.287 . S
C6425 C6424 1.287 . S
C6425 C6426 1.524 . S
C6425 H6428 0.999 . S
C6426 H6396 0.950 . S
C6426 C6425 1.524 . S
C6426 C6427 1.415 . S
C6427 H6397 0.950 . S
C6427 C6422 1.363 . S
C6427 C6426 1.415 . S
H6428 C6425 0.999 . S
H6429 C6410 0.913 . S
H6430 C6448 0.951 . S
H6431 C6450 0.951 . S
H6432 C6452 0.950 . S
H6433 C6453 0.950 . S
H6434 C6455 0.950 . S
H6435 C6458 0.950 . S
H6436 C6459 0.950 . S
H6437 C6461 0.950 . S
H6438 C6462 0.950 . S
H6439 C6463 0.951 . S
H6440 C6465 0.951 . S
H6441 C6467 0.950 . S
H6442 C6468 0.950 . S
H6443 C6470 0.950 . S
H6444 C6473 0.950 . S
H6445 C6474 0.950 . S
H6446 C6476 0.950 . S
H6447 C6477 0.950 . S
C6448 H6430 0.951 . S
C6448 C6449 1.366 . S
C6448 C6450 1.388 . S
C6449 C6448 1.366 . S
C6449 C6453 1.385 . S
C6450 H6431 0.951 . S
C6450 C6448 1.388 . S
C6450 C6451 1.366 . S
C6451 C6450 1.366 . S
C6451 C6452 1.414 . S
C6451 C6454 1.499 . S
C6452 H6432 0.950 . S
C6452 C6451 1.414 . S
C6452 C6453 1.374 . S
C6453 H6433 0.950 . S
C6453 C6449 1.385 . S
C6453 C6452 1.374 . S
C6454 C6451 1.499 . S
C6454 C6455 1.373 . S
C6454 C6456 1.389 . S
C6455 H6434 0.950 . S
C6455 C6454 1.373 . S
C6455 C6471 1.377 . S
C6456 C6454 1.389 . S
C6456 C6457 1.524 . S
C6456 C6470 1.377 . S
C6457 C6456 1.524 . S
C6457 C6458 1.397 . S
C6457 C6462 1.363 . S
C6458 H6435 0.950 . S
C6458 C6457 1.397 . S
C6458 C6459 1.334 . S
C6459 H6436 0.950 . S
C6459 C6458 1.334 . S
C6459 C6460 1.287 . S
C6460 C6459 1.287 . S
C6460 C6461 1.524 . S
C6460 H6479 0.913 . S
C6461 H6437 0.950 . S
C6461 C6460 1.524 . S
C6461 C6462 1.415 . S
C6462 H6438 0.950 . S
C6462 C6457 1.363 . S
C6462 C6461 1.415 . S
C6463 H6439 0.951 . S
C6463 C6464 1.366 . S
C6463 C6465 1.388 . S
C6464 C6463 1.366 . S
C6464 C6468 1.385 . S
C6465 H6440 0.951 . S
C6465 C6463 1.388 . S
C6465 C6466 1.366 . S
C6466 C6465 1.366 . S
C6466 C6467 1.414 . S
C6466 C6469 1.499 . S
C6467 H6441 0.950 . S
C6467 C6466 1.414 . S
C6467 C6468 1.374 . S
C6468 H6442 0.950 . S
C6468 C6464 1.385 . S
C6468 C6467 1.374 . S
C6469 C6466 1.499 . S
C6469 C6470 1.373 . S
C6469 C6471 1.389 . S
C6470 H6443 0.950 . S
C6470 C6456 1.377 . S
C6470 C6469 1.373 . S
C6471 C6455 1.377 . S
C6471 C6469 1.389 . S
C6471 C6472 1.524 . S
C6472 C6471 1.524 . S
C6472 C6473 1.397 . S
C6472 C6477 1.363 . S
C6473 H6444 0.950 . S
C6473 C6472 1.397 . S
C6473 C6474 1.334 . S
C6474 H6445 0.950 . S
C6474 C6473 1.334 . S
C6474 C6475 1.287 . S
C6475 C6474 1.287 . S
C6475 C6476 1.524 . S
C6475 H6478 0.999 . S
C6476 H6446 0.950 . S
C6476 C6475 1.524 . S
C6476 C6477 1.415 . S
C6477 H6447 0.950 . S
C6477 C6472 1.363 . S
C6477 C6476 1.415 . S
H6478 C6475 0.999 . S
H6479 C6460 0.913 . S
C1699 C111 1.883 . S
C1714 C392 1.910 . S
C1749 C64 1.787 . S
C1764 C494 1.840 . S
C1799 C77 1.680 . S
C1814 C560 1.681 . S
C1864 C646 1.269 . S
C1849 C95 1.373 . S
C1899 C25 1.386 . S
C1914 C730 1.278 . S
C1964 C812 1.778 . S
C1949 C36 1.686 . S
C2014 C914 1.818 . S
C1999 C50 1.768 . S
C2049 C11 1.826 . S
C2064 C980 1.835 . S
C2114 C410 1.435 . S
C2099 C237 1.412 . S
C2149 C245 0.806 . S
C2164 C478 0.794 . S
C2214 C578 0.951 . S
C2199 C279 0.914 . S
C2264 C644 1.497 . S
C2249 C175 1.497 1_556 S
C2299 C231 1.453 . S
C2314 C728 1.453 . S
C2364 C830 0.953 . S
C2349 C251 0.914 . S
C2414 C898 0.822 . S
C2399 C273 0.841 . S
C2464 C998 1.438 . S
C2449 C181 1.414 . S
C2514 C394 0.751 1_565 S
C2499 C165 0.774 1_554 S
C2549 C288 1.619 . S
C2564 C1082 1.661 . S
C2614 C1150 1.214 . S
C2599 C333 1.296 . S
C2664 C1232 0.740 . S
C2649 C316 0.740 . S
C2699 C123 0.745 . S
C2714 C982 0.747 . S
C2749 C137 1.255 . S
C2764 C562 1.180 . S
C2799 C330 1.622 . S
C2814 C1334 1.662 . S
C2864 C1400 0.747 . S
C2849 C302 0.749 . S
C2914 C403 2.076 . S
C2899 C63 2.074 . S
C2964 C1407 1.901 . S
C2949 C106 1.904 . S
C2999 C97 1.720 . S
C3014 C571 1.785 . S
C3049 C81 1.447 . S
C3064 C1329 1.333 . S
C3114 C741 1.400 . S
C3099 C13 1.444 . S
C3149 C55 1.720 . S
C3164 C1159 1.786 . S
C3214 C903 1.823 . S
C3199 C35 1.806 . S
C3264 C1495 2.075 . S
C3249 C21 2.073 . S
C3314 C399 1.597 . S
C3299 C147 1.639 . S
C3364 C1413 0.819 . S
C3349 C321 0.826 . S
C3399 C119 1.033 . S
C3414 C567 1.026 . S
C3449 C293 1.544 . S
C3464 C1327 1.626 . S
C3499 C153 1.545 . S
C3514 C739 1.628 . S
C3564 C1155 1.034 . S
C3549 C315 1.041 . S
C3599 C125 0.834 . S
C3614 C909 0.827 . S
C3649 C287 1.631 . S
C3664 C1491 1.587 . S
C3699 C193 0.849 . S
C3714 C405 0.837 . S
C3749 C176 1.694 . S
C3764 C1071 1.701 . S
C3799 C263 1.270 . S
C3814 C825 1.208 . S
C3849 C246 0.901 . S
C3864 C1243 0.929 . S
C3914 C1497 0.841 . S
C3899 C277 0.855 1_565 S
C3949 C221 1.285 . S
C3964 C573 1.213 . S
C4014 C651 1.724 . S
C3999 C260 1.718 . S
C4064 C487 0.913 . S
C4049 C204 0.887 . S
C4099 C83 1.883 . S
C4114 C1568 1.911 . S
C4164 C1418 1.840 . S
C4149 C92 1.787 . S
C4199 C105 1.677 . S
C4214 C1652 1.681 . S
C4249 C67 1.373 . S
C4264 C1318 1.269 . S
C4299 C53 1.386 . S
C4314 C1066 1.279 . S
C4364 C1148 1.778 . S
C4349 C8 1.686 1_655 S
C4414 C1250 1.818 . S
C4399 C22 1.768 . S
C4464 C1484 1.836 . S
C4449 C39 1.826 . S
C4514 C1586 1.435 . S
C4499 C265 1.411 . S
C4549 C189 0.806 . S
C4564 C1402 0.794 . S
C4614 C1670 0.953 . S
C4599 C209 0.912 . S
C4664 C1316 1.497 . S
C4649 C217 1.497 . S
C4714 C1064 1.453 . S
C4699 C259 1.453 . S
C4749 C195 0.913 . S
C4764 C1166 0.954 . S
C4814 C1234 0.821 . S
C4799 C203 0.841 . S
C4849 C223 1.414 . S
C4864 C1502 1.438 . S
C4914 C1570 0.770 . S
C4899 C319 0.777 . S
C4949 C134 1.619 . S
C4964 C746 1.661 . S
C5014 C814 1.215 . S
C4999 C151 1.296 . S
C5064 C896 0.739 . S
C5049 C162 0.743 . S
C5114 C1486 0.747 . S
C5099 C305 0.744 . S
C5149 C291 1.255 . S
C5164 C1654 1.179 . S
C5214 C662 1.663 . S
C5199 C148 1.622 . S
C5264 C476 0.747 . S
C5249 C120 0.748 . S
C5299 C91 2.074 . S
C5314 C1579 2.076 . S
C5364 C483 1.901 . S
C5349 C78 1.901 . S
C5399 C69 1.719 . S
C5414 C1663 1.785 . S
C5449 C109 1.447 . S
C5464 C657 1.331 . S
C5499 C41 1.443 . S
C5514 C1077 1.402 . S
C5564 C823 1.787 . S
C5549 C27 1.720 . S
C5599 C7 1.806 . S
C5614 C1239 1.810 . S
C5649 C49 2.073 . S
C5664 C991 2.075 . S
C5714 C1575 1.598 . S
C5699 C329 1.640 . S
C5749 C167 0.827 . S
C5764 C489 0.814 . S
C5814 C1659 1.026 1_655 S
C5799 C301 1.034 . S
C5849 C139 1.543 . S
C5864 C655 1.626 . S
C5899 C335 1.545 . S
C5914 C1075 1.628 . S
C5964 C819 1.036 . S
C5949 C161 1.049 . S
C5999 C307 0.834 . S
C6014 C1245 0.828 . S
C6064 C987 1.587 . S
C6049 C133 1.631 . S
C6114 C1581 0.836 . S
C6099 C249 0.850 . S
C6164 C735 1.701 1_565 S
C6149 C218 1.695 . S
C6199 C235 1.270 . S
C6214 C1161 1.208 . S
C6264 C907 0.930 . S
C6249 C190 0.903 . S
C6299 C207 0.856 . S
C6314 C993 0.840 . S
C6349 C179 1.285 . S
C6364 C1665 1.213 . S
C6414 C1323 1.724 . S
C6399 C232 1.718 . S
C6464 C1411 0.913 . S
C6449 C274 0.887 . S
