# Generated by pormake.
# Topology scu, (8,4)-cn, num edge types: 1
# Building blocks:
#     Node 0, Type 0, BuildingBlock: VETTIZ_charged_sbu_0, # of connection points: 8
#     Node 1, Type 1, BuildingBlock: MUDLON_clean_sbu_0, # of connection points: 4
#     Node 2, Type 1, BuildingBlock: MUDLON_clean_sbu_0, # of connection points: 4
#     Edge 3, Type (0, 1), BuildingBlock: FUNLAD_clean_linker_1, # of connection points: 2
#     Edge 4, Type (0, 1), BuildingBlock: FUNLAD_clean_linker_1, # of connection points: 2
#     Edge 5, Type (0, 1), BuildingBlock: FUNLAD_clean_linker_1, # of connection points: 2
#     Edge 6, Type (0, 1), BuildingBlock: FUNLAD_clean_linker_1, # of connection points: 2
#     Edge 7, Type (0, 1), BuildingBlock: FUNLAD_clean_linker_1, # of connection points: 2
#     Edge 8, Type (0, 1), BuildingBlock: FUNLAD_clean_linker_1, # of connection points: 2
#     Edge 9, Type (0, 1), BuildingBlock: FUNLAD_clean_linker_1, # of connection points: 2
#     Edge 10, Type (0, 1), BuildingBlock: FUNLAD_clean_linker_1, # of connection points: 2
# Relax obj value: 0.036
# Max RMSD: 0.093
# Mean RMSD: 0.083
data_MOF--net-scu--node1-VETTIZ_charged_sbu_0--node2-MUDLON_clean_sbu_0--edge1-FUNLAD_clean_linker_1
_symmetry_space_group_name_H-M    P1
_symmetry_Int_Tables_number       1
_symmetry_cell_setting            triclinic
loop_
_symmetry_equiv_pos_as_xyz
'x, y, z'
_cell_length_a     25.543592
_cell_length_b     26.235296
_cell_length_c     21.21471
_cell_angle_alpha  90.171786
_cell_angle_beta   90.277072
_cell_angle_gamma 91.04026
loop_
_atom_site_label
_atom_site_type_symbol
_atom_site_fract_x
_atom_site_fract_y
_atom_site_fract_z
_atom_type_partial_charge
Fe0 Fe 0.02712 0.99866 0.0859 0.0
O1 O 0.021 0.05056 0.01751 0.0
Fe2 Fe 0.08868 0.89838 1.00753 0.0
Fe3 Fe 0.96564 0.10164 0.01507 0.0
O4 O 0.03412 0.94953 0.01436 0.0
O5 O 0.03324 0.94934 0.00838 0.0
O6 O 0.02105 0.05067 0.01108 0.0
Fe7 Fe 0.02538 1.00078 0.94 0.0
C8 C 0.91309 0.01771 0.09637 0.0
O9 O 1.01781 0.05785 0.15232 0.0
O10 O 1.00679 0.1299 0.09186 0.0
O11 O 0.10519 0.01292 0.93563 0.0
O12 O 0.1305 0.93238 0.93558 0.0
O13 O 0.13768 0.93422 0.07267 0.0
O14 O 0.10658 0.01218 0.09063 0.0
O15 O 1.0101 0.133 0.94322 0.0
O16 O 0.01858 0.06286 0.87773 0.0
C17 C 0.14268 0.97947 0.09436 0.0
O18 O 0.02899 0.93992 0.87471 0.0
O19 O 0.04146 0.86861 0.93672 0.0
O20 O 0.9479 0.98495 0.08543 0.0
O21 O 0.91869 0.06447 0.08088 0.0
C22 C 1.01466 0.10708 0.1453 0.0
C23 C 0.02142 0.11172 0.88952 0.0
C24 C 0.9126 0.0233 0.92753 0.0
O25 O 0.92102 0.0695 0.94345 0.0
O26 O 0.94536 0.98877 0.93961 0.0
C27 C 0.13771 0.97891 0.92084 0.0
O28 O 0.0502 0.86767 0.08402 0.0
O29 O 0.0343 0.93685 0.14848 0.0
C30 C 0.02694 0.89082 0.88484 0.0
C31 C 0.03916 0.88816 0.13805 0.0
Mg32 Mg 0.99115 0.49463 0.50456 0.0
C33 C 0.94865 0.43522 0.39205 0.0
O34 O 0.96438 0.47628 0.36189 0.0
C35 C 0.97357 0.58309 0.58365 0.0
O36 O 1.01814 0.59205 0.55481 0.0
C37 C 0.02798 0.40995 0.57888 0.0
O38 O 0.97977 0.39785 0.56212 0.0
O39 O 0.04751 0.45229 0.56044 0.0
O40 O 0.94895 0.43519 0.45195 0.0
O41 O 0.02017 0.54949 0.43621 0.0
C42 C 0.06619 0.56707 0.42742 0.0
O43 O 0.10567 0.54885 0.45953 0.0
O44 O 0.94901 0.54137 0.57224 0.0
Mg45 Mg 0.52399 0.02147 0.50287 0.0
C46 C 0.44857 0.04069 0.40498 0.0
O47 O 0.4644 0.99368 0.39744 0.0
C48 C 0.59559 0.02559 0.61077 0.0
O49 O 0.5797 0.97773 0.60726 0.0
C50 C 0.44498 1.00374 0.596 0.0
O51 O 0.45394 0.05321 0.59384 0.0
O52 O 0.47105 0.97503 0.55978 0.0
O53 O 0.4691 0.06745 0.44912 0.0
O54 O 0.57146 0.98607 0.4298 0.0
C55 C 0.62118 0.98603 0.43296 0.0
O56 O 0.64459 1.0005 0.48542 0.0
O57 O 0.57737 0.05731 0.57133 0.0
H58 H 1.01418 0.12041 0.24869 0.0
C59 C 1.01302 0.139 0.203 0.0
H60 H 1.00003 0.20757 0.15396 0.0
H61 H 0.85618 0.32017 0.33802 0.0
H62 H 0.79193 0.28709 0.26278 0.0
H63 H 0.8164 0.22305 0.18327 0.0
H64 H 0.905 0.19147 0.1787 0.0
C65 C 1.00349 0.18927 0.19964 0.0
C66 C 0.98726 0.22023 0.25485 0.0
C67 C 0.93534 0.2385 0.2567 0.0
C68 C 0.9213 0.27577 0.30204 0.0
C69 C 0.86905 0.29274 0.30347 0.0
C70 C 0.83178 0.27384 0.26086 0.0
C71 C 0.84556 0.23781 0.21608 0.0
C72 C 0.89665 0.22022 0.21376 0.0
H73 H 0.94176 0.38931 0.30537 0.0
C74 C 0.94283 0.38697 0.35653 0.0
H75 H 0.95276 0.33854 0.43488 0.0
H76 H 0.08869 0.18977 0.26807 0.0
H77 H 0.15095 0.21865 0.34771 0.0
H78 H 0.12626 0.28241 0.4274 0.0
H79 H 0.0394 0.31802 0.42762 0.0
C80 C 0.94838 0.34116 0.38403 0.0
C81 C 0.95937 0.29524 0.34494 0.0
C82 C 1.00994 0.27361 0.34683 0.0
C83 C 0.02407 0.23633 0.30131 0.0
C84 C 0.0756 0.21741 0.30215 0.0
C85 C 0.11181 0.2338 0.34751 0.0
C86 C 0.09793 0.26974 0.39234 0.0
C87 C 0.04781 0.28983 0.39197 0.0
H88 H 0.87054 0.96402 0.15807 0.0
C89 C 0.86916 1.00183 0.13728 0.0
H90 H 0.83067 0.07218 0.13612 0.0
H91 H 0.68168 0.90454 0.30145 0.0
H92 H 0.67409 0.85512 0.205 0.0
H93 H 0.71988 0.88273 0.10848 0.0
H94 H 0.77476 0.95918 0.10844 0.0
C95 C 0.83145 0.0338 0.15521 0.0
C96 C 0.79658 0.02129 0.20952 0.0
C97 C 0.76204 0.97828 0.20766 0.0
C98 C 0.73293 0.96415 0.26223 0.0
C99 C 0.70235 0.91861 0.26052 0.0
C100 C 0.69801 0.88961 0.20556 0.0
C101 C 0.72398 0.90502 0.15131 0.0
C102 C 0.75567 0.94878 0.15206 0.0
H103 H 0.63062 0.98447 0.32964 0.0
C104 C 0.65163 0.98195 0.37418 0.0
H105 H 0.72503 0.98073 0.41939 0.0
H106 H 0.86015 0.10535 0.23032 0.0
H107 H 0.86336 0.15774 0.32437 0.0
H108 H 0.8065 0.13828 0.41487 0.0
H109 H 0.74722 0.06542 0.41285 0.0
C110 C 0.7043 0.9823 0.37459 0.0
C111 C 0.73554 0.99512 0.31721 0.0
C112 C 0.76857 0.03931 0.31812 0.0
C113 C 0.79977 0.05184 0.26478 0.0
C114 C 0.83434 0.09473 0.26852 0.0
C115 C 0.83674 0.12522 0.32232 0.0
C116 C 0.80488 0.11413 0.37341 0.0
C117 C 0.77114 0.07186 0.37164 0.0
H118 H 1.00851 0.86312 0.23118 0.0
C119 C 0.03304 0.85271 0.19165 0.0
H120 H 0.08257 0.79811 0.15149 0.0
H121 H 0.06887 0.70523 0.4411 0.0
H122 H 0.10566 0.78585 0.47788 0.0
H123 H 0.11834 0.85783 0.40493 0.0
H124 H 0.09388 0.84996 0.2946 0.0
C125 C 0.05769 0.80772 0.19109 0.0
C126 C 0.04782 0.76635 0.23754 0.0
C127 C 0.06444 0.77123 0.30124 0.0
C128 C 0.05901 0.72902 0.34293 0.0
C129 C 0.07365 0.73546 0.40696 0.0
C130 C 0.09464 0.78162 0.42878 0.0
C131 C 0.10172 0.8222 0.38764 0.0
C132 C 0.08714 0.81724 0.32449 0.0
H133 H 0.11361 0.6241 0.37459 0.0
C134 C 0.07397 0.61138 0.38551 0.0
H135 H 0.99307 0.62442 0.37338 0.0
H136 H 1.00848 0.74516 0.11958 0.0
H137 H 0.9727 0.6642 0.08285 0.0
H138 H 0.9671 0.59009 0.15395 0.0
H139 H 0.99707 0.59664 0.26229 0.0
C140 C 0.03281 0.63721 0.36304 0.0
C141 C 0.03888 0.68162 0.3202 0.0
C142 C 0.0216 0.67703 0.25687 0.0
C143 C 0.02577 0.71946 0.21564 0.0
C144 C 1.00737 0.71392 0.15275 0.0
C145 C 0.98645 0.66768 0.13105 0.0
C146 C 0.98321 0.62601 0.17109 0.0
C147 C 1.00048 0.63037 0.23327 0.0
H148 H 0.22055 0.96273 0.13312 0.0
C149 C 0.19084 0.99185 0.13059 0.0
H150 H 0.16806 0.06418 0.16455 0.0
H151 H 0.32646 0.96986 0.38408 0.0
H152 H 0.25297 0.91287 0.40637 0.0
H153 H 0.17277 0.91457 0.34116 0.0
H154 H 0.16557 0.97283 0.2534 0.0
C155 C 0.19688 0.03425 0.16601 0.0
C156 C 0.24157 0.03934 0.21132 0.0
C157 C 0.24437 0.00627 0.26398 0.0
C158 C 0.2903 0.0059 0.30206 0.0
C159 C 0.29258 0.97153 0.35337 0.0
C160 C 0.2506 0.9388 0.36691 0.0
C161 C 0.20545 0.93972 0.33023 0.0
C162 C 0.20203 0.97311 0.27956 0.0
H163 H 0.38496 0.09417 0.38035 0.0
C164 C 0.40391 0.05904 0.36699 0.0
H165 H 0.40282 0.99452 0.30735 0.0
H166 H 0.24519 0.11287 0.12057 0.0
H167 H 0.31695 0.17294 0.10154 0.0
H168 H 0.39672 0.17226 0.16759 0.0
H169 H 0.40525 0.1117 0.25336 0.0
C170 C 0.38433 0.03021 0.31943 0.0
C171 C 0.33299 0.03927 0.28834 0.0
C172 C 0.32839 0.07533 0.23911 0.0
C173 C 0.28244 0.07551 0.2007 0.0
C174 C 0.27923 0.11117 0.15102 0.0
C175 C 0.3201 0.14578 0.13962 0.0
C176 C 0.36504 0.1454 0.17684 0.0
C177 C 0.36946 0.1105 0.2259 0.0
H178 H 1.01733 0.86909 0.78446 0.0
C179 C 1.00963 0.85716 0.83259 0.0
H180 H 0.97873 0.80041 0.89247 0.0
H181 H 0.9123 0.72674 0.59792 0.0
H182 H 0.8625 0.80467 0.59103 0.0
H183 H 0.86389 0.86697 0.67836 0.0
H184 H 0.91594 0.85253 0.77242 0.0
C185 C 0.987 0.81138 0.84411 0.0
C186 C 0.97994 0.77163 0.79425 0.0
C187 C 0.94797 0.78009 0.74052 0.0
C188 C 0.9459 0.74343 0.69091 0.0
C189 C 0.91505 0.75338 0.63691 0.0
C190 C 0.88616 0.79778 0.63251 0.0
C191 C 0.88704 0.83295 0.68163 0.0
C192 C 0.9174 0.82436 0.73518 0.0
H193 H 0.92671 0.6065 0.66656 0.0
C194 C 0.9563 0.61884 0.63301 0.0
H195 H 1.00944 0.67727 0.60548 0.0
H196 H 0.04186 0.74105 0.89318 0.0
H197 H 0.08713 0.66131 0.90197 0.0
H198 H 0.08176 0.59718 0.81688 0.0
H199 H 0.03093 0.61255 0.72254 0.0
C200 C 0.98064 0.66452 0.63982 0.0
C201 C 0.97433 0.69776 0.696 0.0
C202 C 1.0034 0.68771 0.75155 0.0
C203 C 1.00628 0.72468 0.8007 0.0
C204 C 0.03729 0.71425 0.85466 0.0
C205 C 0.06384 0.66859 0.8603 0.0
C206 C 0.06085 0.63252 0.8124 0.0
C207 C 0.03135 0.64186 0.75845 0.0
H208 H 0.18864 0.03306 0.8684 0.0
C209 C 0.18208 0.99303 0.87951 0.0
H210 H 0.20589 0.91737 0.86299 0.0
H211 H 0.29736 0.03729 0.60995 0.0
H212 H 0.20635 0.05173 0.58341 0.0
H213 H 0.13586 0.02753 0.65713 0.0
H214 H 0.15586 0.98937 0.75795 0.0
C215 C 0.21171 0.95746 0.85179 0.0
C216 C 0.25376 0.97081 0.80592 0.0
C217 C 0.24112 0.99206 0.7464 0.0
C218 C 0.28169 0.00497 0.70325 0.0
C219 C 0.2681 0.0268 0.64452 0.0
C220 C 0.21601 0.03507 0.62852 0.0
C221 C 0.17633 0.0215 0.67006 0.0
C222 C 0.18845 1.00002 0.72816 0.0
H223 H 0.39828 0.9418 0.64135 0.0
C224 C 0.40502 0.98277 0.63949 0.0
H225 H 0.38238 0.05507 0.67293 0.0
H226 H 0.29125 0.92825 0.91443 0.0
H227 H 0.38211 0.91184 0.93957 0.0
H228 H 0.45232 0.93397 0.8645 0.0
H229 H 0.4321 0.9724 0.7637 0.0
C230 C 0.37686 0.01399 0.67614 0.0
C231 C 0.33464 0.99541 0.71882 0.0
C232 C 0.34716 0.97266 0.77739 0.0
C233 C 0.30665 0.96018 0.82087 0.0
C234 C 0.32035 0.93817 0.87944 0.0
C235 C 0.37239 0.92869 0.89459 0.0
C236 C 0.41191 0.94115 0.85232 0.0
C237 C 0.39972 0.96307 0.79448 0.0
H238 H 0.02311 0.13435 0.78937 0.0
C239 C 0.03459 0.146 0.83675 0.0
H240 H 0.06987 0.20262 0.89407 0.0
H241 H 0.10165 0.27129 0.58932 0.0
H242 H 0.15281 0.19459 0.5771 0.0
H243 H 0.1644 0.1355 0.66614 0.0
H244 H 0.12392 0.15187 0.76741 0.0
C245 C 0.05776 0.19183 0.84663 0.0
C246 C 0.06022 0.23143 0.79638 0.0
C247 C 0.08585 0.22212 0.73835 0.0
C248 C 0.08055 0.25699 0.68758 0.0
C249 C 0.10469 0.24598 0.62933 0.0
C250 C 0.1343 0.2023 0.62184 0.0
C251 C 0.14071 0.16894 0.67194 0.0
C252 C 0.11696 0.17858 0.72966 0.0
H253 H 0.08909 0.39277 0.65031 0.0
C254 C 0.05533 0.37747 0.62475 0.0
H255 H 1.00179 0.31576 0.61312 0.0
H256 H 1.01152 0.26456 0.9041 0.0
H257 H 0.96601 0.34372 0.91769 0.0
H258 H 0.95882 0.40492 0.83024 0.0
H259 H 0.99721 0.38712 0.72866 0.0
C260 C 0.03494 0.33139 0.63955 0.0
C261 C 0.05129 0.30181 0.6956 0.0
C262 C 0.02981 0.31347 0.75532 0.0
C263 C 0.0342 0.27822 0.8058 0.0
C264 C 1.01032 0.28999 0.86418 0.0
C265 C 0.98377 0.33537 0.87269 0.0
C266 C 0.97969 0.36979 0.82346 0.0
C267 C 1.00204 0.35905 0.76531 0.0
H268 H 0.8582 0.97065 0.8765 0.0
C269 C 0.86626 0.01043 0.88803 0.0
H270 H 0.84384 0.0868 0.87445 0.0
H271 H 0.73559 0.97568 0.6232 0.0
H272 H 0.82401 0.95514 0.59206 0.0
H273 H 0.89884 0.97306 0.66311 0.0
H274 H 0.88578 0.01087 0.76585 0.0
C275 C 0.83638 0.04699 0.86261 0.0
C276 C 0.7916 0.03555 0.81907 0.0
C277 C 0.80027 0.01444 0.75834 0.0
C278 C 0.75725 0.0053 0.71662 0.0
C279 C 0.76684 0.98351 0.65668 0.0
C280 C 0.81742 0.97173 0.63806 0.0
C281 C 0.85953 0.98176 0.6781 0.0
C282 C 0.85136 1.00309 0.73737 0.0
H283 H 0.64952 0.08058 0.65908 0.0
C284 C 0.63708 0.04081 0.65638 0.0
H285 H 0.65001 0.96571 0.68813 0.0
H286 H 0.76121 0.0771 0.93136 0.0
H287 H 0.67295 0.09927 0.96116 0.0
H288 H 0.59878 0.08456 0.88805 0.0
H289 H 0.61244 0.04768 0.78456 0.0
C290 C 0.66092 0.0058 0.69235 0.0
C291 C 0.70591 0.01868 0.73473 0.0
C292 C 0.69736 0.04065 0.79481 0.0
C293 C 0.74021 0.04911 0.83698 0.0
C294 C 0.73029 0.07035 0.89714 0.0
C295 C 0.67976 0.08308 0.91499 0.0
C296 C 0.63799 0.07478 0.87383 0.0
C297 C 0.64641 0.05368 0.81449 0.0
loop_
_geom_bond_atom_site_label_1
_geom_bond_atom_site_label_2
_geom_bond_distance
_geom_bond_site_symmetry_2
_ccdc_geom_bond_type
Fe0 O1 1.906 . S
Fe0 O4 1.694 1_645 S
Fe0 O9 2.098 1_655 S
Fe0 O14 1.923 1_655 S
Fe0 O20 2.093 1_545 S
Fe0 O29 1.916 1_545 S
O1 Fe0 1.906 . S
O1 Fe3 1.715 . S
Fe2 O4 1.886 . S
Fe2 O5 1.715 1_554 S
Fe2 O12 1.935 1_554 S
Fe2 O13 2.077 . S
Fe2 O19 1.935 1_554 S
Fe2 O28 2.077 . S
Fe3 O1 1.715 . S
Fe3 O6 1.886 1_554 S
Fe3 O10 1.935 . S
Fe3 O15 2.077 1_554 S
Fe3 O21 1.935 . S
Fe3 O25 2.077 1_554 S
O4 Fe0 1.694 1_465 S
O4 Fe2 1.886 . S
O5 Fe2 1.715 1_556 S
O5 Fe7 1.906 . S
O6 Fe3 1.886 1_556 S
O6 Fe7 1.694 1_645 S
Fe7 O5 1.906 . S
Fe7 O6 1.694 1_465 S
Fe7 O11 2.098 1_565 S
Fe7 O16 1.923 1_565 S
Fe7 O18 2.093 1_455 S
Fe7 O26 1.916 1_455 S
C8 O20 1.381 1_545 S
C8 O21 1.421 . S
O9 Fe0 2.098 1_455 S
O9 C22 1.381 1_455 S
O10 Fe3 1.935 . S
O10 C22 1.421 . S
O11 Fe7 2.098 1_545 S
O11 C27 1.381 1_545 S
O12 Fe2 1.935 1_556 S
O12 C27 1.421 . S
O13 Fe2 2.077 . S
O13 C17 1.381 . S
O14 Fe0 1.923 1_455 S
O14 C17 1.421 1_545 S
O15 Fe3 2.077 1_556 S
O15 C23 1.381 . S
O16 Fe7 1.923 1_545 S
O16 C23 1.421 1_455 S
C17 O13 1.381 . S
C17 O14 1.421 1_565 S
O18 Fe7 2.093 1_655 S
O18 C30 1.381 1_655 S
O19 Fe2 1.935 1_556 S
O19 C30 1.421 . S
O20 Fe0 2.093 1_565 S
O20 C8 1.381 1_565 S
O21 Fe3 1.935 . S
O21 C8 1.421 . S
C22 O9 1.381 1_655 S
C22 O10 1.421 . S
C23 O15 1.381 . S
C23 O16 1.421 1_655 S
C24 O25 1.381 . S
C24 O26 1.421 1_545 S
O25 Fe3 2.077 1_556 S
O25 C24 1.381 . S
O26 Fe7 1.916 1_655 S
O26 C24 1.421 1_565 S
C27 O11 1.381 1_565 S
C27 O12 1.421 . S
O28 Fe2 2.077 . S
O28 C31 1.381 . S
O29 Fe0 1.916 1_565 S
O29 C31 1.421 1_655 S
C30 O18 1.381 1_455 S
C30 O19 1.421 . S
C31 O28 1.381 . S
C31 O29 1.421 1_455 S
Mg32 O39 2.141 . S
Mg32 O40 2.048 . S
Mg32 O41 2.048 . S
Mg32 O44 2.141 . S
C33 O34 1.313 . S
C33 O40 1.195 1_455 S
O34 C33 1.313 . S
C35 O36 1.245 . S
C35 O44 1.289 1_455 S
O36 C35 1.245 . S
C37 O38 1.245 . S
C37 O39 1.289 1_455 S
O38 C37 1.245 . S
O39 Mg32 2.141 . S
O39 C37 1.289 1_655 S
O40 Mg32 2.048 . S
O40 C33 1.195 1_655 S
O41 Mg32 2.048 . S
O41 C42 1.195 1_655 S
C42 O41 1.195 1_455 S
C42 O43 1.313 . S
O43 C42 1.313 . S
O44 Mg32 2.141 . S
O44 C35 1.289 1_655 S
Mg45 O52 2.141 . S
Mg45 O53 2.048 . S
Mg45 O54 2.048 . S
Mg45 O57 2.141 . S
C46 O47 1.313 . S
C46 O53 1.195 1_565 S
O47 C46 1.313 . S
C48 O49 1.245 . S
C48 O57 1.289 1_565 S
O49 C48 1.245 . S
C50 O51 1.245 . S
C50 O52 1.289 1_565 S
O51 C50 1.245 . S
O52 Mg45 2.141 . S
O52 C50 1.289 1_545 S
O53 Mg45 2.048 . S
O53 C46 1.195 1_545 S
O54 Mg45 2.048 . S
O54 C55 1.195 1_545 S
C55 O54 1.195 1_565 S
C55 O56 1.313 . S
O56 C55 1.313 . S
O57 Mg45 2.141 . S
O57 C48 1.289 1_545 S
H58 C59 0.951 . S
C59 H58 0.951 . S
C59 C65 1.265 1_655 S
H60 C65 0.950 . S
H61 C69 0.949 . S
H62 C70 0.950 . S
H63 C71 0.951 . S
H64 C72 0.951 . S
C65 C59 1.265 1_455 S
C65 H60 0.950 . S
C65 C66 1.478 . S
C66 C65 1.478 . S
C66 C67 1.397 1_455 S
C66 C83 1.394 . S
C67 C66 1.397 1_655 S
C67 C68 1.438 . S
C67 C72 1.429 . S
C68 C67 1.438 . S
C68 C69 1.428 . S
C68 C81 1.394 . S
C69 H61 0.949 . S
C69 C68 1.428 . S
C69 C70 1.345 . S
C70 H62 0.950 . S
C70 C69 1.345 . S
C70 C71 1.424 . S
C71 H63 0.951 . S
C71 C70 1.424 . S
C71 C72 1.347 . S
C72 H64 0.951 . S
C72 C67 1.429 . S
C72 C71 1.347 . S
H73 C74 0.951 . S
C74 H73 0.951 . S
C74 C80 1.265 1_455 S
H75 C80 0.950 . S
H76 C84 0.949 . S
H77 C85 0.950 . S
H78 C86 0.951 . S
H79 C87 0.951 . S
C80 C74 1.265 1_655 S
C80 H75 0.950 . S
C80 C81 1.478 . S
C81 C68 1.394 . S
C81 C80 1.478 . S
C81 C82 1.397 1_655 S
C82 C81 1.397 1_455 S
C82 C83 1.438 . S
C82 C87 1.429 . S
C83 C66 1.394 . S
C83 C82 1.438 . S
C83 C84 1.428 . S
C84 H76 0.949 . S
C84 C83 1.428 . S
C84 C85 1.345 . S
C85 H77 0.950 . S
C85 C84 1.345 . S
C85 C86 1.424 . S
C86 H78 0.951 . S
C86 C85 1.424 . S
C86 C87 1.347 . S
C87 H79 0.951 . S
C87 C82 1.429 . S
C87 C86 1.347 . S
H88 C89 0.951 . S
C89 H88 0.951 . S
C89 C95 1.265 1_565 S
H90 C95 0.950 . S
H91 C99 0.949 . S
H92 C100 0.950 . S
H93 C101 0.951 . S
H94 C102 0.951 . S
C95 C89 1.265 1_545 S
C95 H90 0.950 . S
C95 C96 1.478 . S
C96 C95 1.478 . S
C96 C97 1.397 1_545 S
C96 C113 1.394 . S
C97 C96 1.397 1_565 S
C97 C98 1.438 . S
C97 C102 1.429 . S
C98 C97 1.438 . S
C98 C99 1.428 . S
C98 C111 1.394 . S
C99 H91 0.949 . S
C99 C98 1.428 . S
C99 C100 1.345 . S
C100 H92 0.950 . S
C100 C99 1.345 . S
C100 C101 1.424 . S
C101 H93 0.951 . S
C101 C100 1.424 . S
C101 C102 1.347 . S
C102 H94 0.951 . S
C102 C97 1.429 . S
C102 C101 1.347 . S
H103 C104 0.951 . S
C104 H103 0.951 . S
C104 C110 1.265 1_545 S
H105 C110 0.950 . S
H106 C114 0.949 . S
H107 C115 0.950 . S
H108 C116 0.951 . S
H109 C117 0.951 . S
C110 C104 1.265 1_565 S
C110 H105 0.950 . S
C110 C111 1.478 . S
C111 C98 1.394 . S
C111 C110 1.478 . S
C111 C112 1.397 1_565 S
C112 C111 1.397 1_545 S
C112 C113 1.438 . S
C112 C117 1.429 . S
C113 C96 1.394 . S
C113 C112 1.438 . S
C113 C114 1.428 . S
C114 H106 0.949 . S
C114 C113 1.428 . S
C114 C115 1.345 . S
C115 H107 0.950 . S
C115 C114 1.345 . S
C115 C116 1.424 . S
C116 H108 0.951 . S
C116 C115 1.424 . S
C116 C117 1.347 . S
C117 H109 0.951 . S
C117 C112 1.429 . S
C117 C116 1.347 . S
H118 C119 0.951 . S
C119 H118 0.951 . S
C119 C125 1.265 1_655 S
H120 C125 0.950 . S
H121 C129 0.949 . S
H122 C130 0.950 . S
H123 C131 0.951 . S
H124 C132 0.951 . S
C125 C119 1.265 1_455 S
C125 H120 0.950 . S
C125 C126 1.478 . S
C126 C125 1.478 . S
C126 C127 1.397 . S
C126 C143 1.394 1_455 S
C127 C126 1.397 . S
C127 C128 1.438 . S
C127 C132 1.429 . S
C128 C127 1.438 . S
C128 C129 1.428 . S
C128 C141 1.394 1_455 S
C129 H121 0.949 . S
C129 C128 1.428 . S
C129 C130 1.345 . S
C130 H122 0.950 . S
C130 C129 1.345 . S
C130 C131 1.424 . S
C131 H123 0.951 . S
C131 C130 1.424 . S
C131 C132 1.347 . S
C132 H124 0.951 . S
C132 C127 1.429 . S
C132 C131 1.347 . S
H133 C134 0.951 . S
C134 H133 0.951 . S
C134 C140 1.265 1_455 S
H135 C140 0.950 . S
H136 C144 0.949 . S
H137 C145 0.950 . S
H138 C146 0.951 . S
H139 C147 0.951 . S
C140 C134 1.265 1_655 S
C140 H135 0.950 . S
C140 C141 1.478 . S
C141 C128 1.394 1_655 S
C141 C140 1.478 . S
C141 C142 1.397 . S
C142 C141 1.397 . S
C142 C143 1.438 . S
C142 C147 1.429 . S
C143 C126 1.394 1_655 S
C143 C142 1.438 . S
C143 C144 1.428 . S
C144 H136 0.949 . S
C144 C143 1.428 . S
C144 C145 1.345 . S
C145 H137 0.950 . S
C145 C144 1.345 . S
C145 C146 1.424 . S
C146 H138 0.951 . S
C146 C145 1.424 . S
C146 C147 1.347 . S
C147 H139 0.951 . S
C147 C142 1.429 . S
C147 C146 1.347 . S
H148 C149 0.951 . S
C149 H148 0.951 . S
C149 C155 1.265 1_545 S
H150 C155 0.950 . S
H151 C159 0.949 . S
H152 C160 0.950 . S
H153 C161 0.951 . S
H154 C162 0.951 . S
C155 C149 1.265 1_565 S
C155 H150 0.950 . S
C155 C156 1.478 . S
C156 C155 1.478 . S
C156 C157 1.410 . S
C156 C173 1.380 1_565 S
C157 C156 1.410 . S
C157 C158 1.438 . S
C157 C162 1.429 . S
C158 C157 1.438 . S
C158 C159 1.428 . S
C158 C171 1.394 1_565 S
C159 H151 0.949 . S
C159 C158 1.428 . S
C159 C160 1.345 . S
C160 H152 0.950 . S
C160 C159 1.345 . S
C160 C161 1.424 . S
C161 H153 0.951 . S
C161 C160 1.424 . S
C161 C162 1.347 . S
C162 H154 0.951 . S
C162 C157 1.429 . S
C162 C161 1.347 . S
H163 C164 0.951 1_565 S
C164 H163 0.951 1_545 S
C164 C170 1.265 . S
H165 C170 0.950 . S
H166 C174 0.949 . S
H167 C175 0.950 . S
H168 C176 0.951 . S
H169 C177 0.951 . S
C170 C164 1.265 . S
C170 H165 0.950 . S
C170 C171 1.478 . S
C171 C158 1.394 1_545 S
C171 C170 1.478 . S
C171 C172 1.397 . S
C172 C171 1.397 . S
C172 C173 1.438 . S
C172 C177 1.429 . S
C173 C156 1.380 1_545 S
C173 C172 1.438 . S
C173 C174 1.428 . S
C174 H166 0.949 . S
C174 C173 1.428 . S
C174 C175 1.345 . S
C175 H167 0.950 . S
C175 C174 1.345 . S
C175 C176 1.424 . S
C176 H168 0.951 . S
C176 C175 1.424 . S
C176 C177 1.347 . S
C177 H169 0.951 . S
C177 C172 1.429 . S
C177 C176 1.347 . S
H178 C179 0.951 . S
C179 H178 0.951 . S
C179 C185 1.265 1_455 S
H180 C185 0.950 . S
H181 C189 0.949 . S
H182 C190 0.950 . S
H183 C191 0.951 . S
H184 C192 0.951 . S
C185 C179 1.265 1_655 S
C185 H180 0.950 . S
C185 C186 1.478 . S
C186 C185 1.478 . S
C186 C187 1.397 . S
C186 C203 1.394 . S
C187 C186 1.397 . S
C187 C188 1.438 1_655 S
C187 C192 1.429 . S
C188 C187 1.438 1_455 S
C188 C189 1.428 . S
C188 C201 1.394 . S
C189 H181 0.949 . S
C189 C188 1.428 . S
C189 C190 1.345 . S
C190 H182 0.950 . S
C190 C189 1.345 . S
C190 C191 1.424 1_455 S
C191 H183 0.951 . S
C191 C190 1.424 1_655 S
C191 C192 1.347 . S
C192 H184 0.951 . S
C192 C187 1.429 . S
C192 C191 1.347 . S
H193 C194 0.951 . S
C194 H193 0.951 . S
C194 C200 1.265 1_655 S
H195 C200 0.950 . S
H196 C204 0.949 . S
H197 C205 0.950 . S
H198 C206 0.951 . S
H199 C207 0.951 . S
C200 C194 1.265 1_455 S
C200 H195 0.950 . S
C200 C201 1.478 . S
C201 C188 1.394 . S
C201 C200 1.478 . S
C201 C202 1.397 . S
C202 C201 1.397 . S
C202 C203 1.438 1_455 S
C202 C207 1.429 . S
C203 C186 1.394 . S
C203 C202 1.438 1_655 S
C203 C204 1.428 . S
C204 H196 0.949 . S
C204 C203 1.428 . S
C204 C205 1.345 . S
C205 H197 0.950 . S
C205 C204 1.345 . S
C205 C206 1.424 1_655 S
C206 H198 0.951 . S
C206 C205 1.424 1_455 S
C206 C207 1.347 . S
C207 H199 0.951 . S
C207 C202 1.429 . S
C207 C206 1.347 . S
H208 C209 0.951 . S
C209 H208 0.951 . S
C209 C215 1.265 1_565 S
H210 C215 0.950 . S
H211 C219 0.949 . S
H212 C220 0.950 . S
H213 C221 0.951 . S
H214 C222 0.951 . S
C215 C209 1.265 1_545 S
C215 H210 0.950 . S
C215 C216 1.478 . S
C216 C215 1.478 . S
C216 C217 1.397 . S
C216 C233 1.394 1_545 S
C217 C216 1.397 . S
C217 C218 1.438 . S
C217 C222 1.429 . S
C218 C217 1.438 . S
C218 C219 1.428 . S
C218 C231 1.394 1_545 S
C219 H211 0.949 . S
C219 C218 1.428 . S
C219 C220 1.345 . S
C220 H212 0.950 . S
C220 C219 1.345 . S
C220 C221 1.424 . S
C221 H213 0.951 . S
C221 C220 1.424 . S
C221 C222 1.347 . S
C222 H214 0.951 . S
C222 C217 1.429 . S
C222 C221 1.347 . S
H223 C224 0.952 . S
C224 H223 0.952 . S
C224 C230 1.264 1_545 S
H225 C230 0.950 . S
H226 C234 0.949 . S
H227 C235 0.950 . S
H228 C236 0.951 . S
H229 C237 0.951 . S
C230 C224 1.264 1_565 S
C230 H225 0.950 . S
C230 C231 1.478 . S
C231 C218 1.394 1_565 S
C231 C230 1.478 . S
C231 C232 1.397 . S
C232 C231 1.397 . S
C232 C233 1.438 . S
C232 C237 1.429 . S
C233 C216 1.394 1_565 S
C233 C232 1.438 . S
C233 C234 1.428 . S
C234 H226 0.949 . S
C234 C233 1.428 . S
C234 C235 1.345 . S
C235 H227 0.950 . S
C235 C234 1.345 . S
C235 C236 1.424 . S
C236 H228 0.951 . S
C236 C235 1.424 . S
C236 C237 1.347 . S
C237 H229 0.951 . S
C237 C232 1.429 . S
C237 C236 1.347 . S
H238 C239 0.951 . S
C239 H238 0.951 . S
C239 C245 1.265 1_655 S
H240 C245 0.950 . S
H241 C249 0.949 . S
H242 C250 0.950 . S
H243 C251 0.951 . S
H244 C252 0.951 . S
C245 C239 1.265 1_455 S
C245 H240 0.950 . S
C245 C246 1.478 . S
C246 C245 1.478 . S
C246 C247 1.397 . S
C246 C263 1.394 1_455 S
C247 C246 1.397 . S
C247 C248 1.438 . S
C247 C252 1.429 . S
C248 C247 1.438 . S
C248 C249 1.428 . S
C248 C261 1.394 1_455 S
C249 H241 0.949 . S
C249 C248 1.428 . S
C249 C250 1.345 . S
C250 H242 0.950 . S
C250 C249 1.345 . S
C250 C251 1.424 . S
C251 H243 0.951 . S
C251 C250 1.424 . S
C251 C252 1.347 . S
C252 H244 0.951 . S
C252 C247 1.429 . S
C252 C251 1.347 . S
H253 C254 0.951 . S
C254 H253 0.951 . S
C254 C260 1.265 1_455 S
H255 C260 0.950 . S
H256 C264 0.949 . S
H257 C265 0.950 . S
H258 C266 0.951 . S
H259 C267 0.951 . S
C260 C254 1.265 1_655 S
C260 H255 0.950 . S
C260 C261 1.478 . S
C261 C248 1.394 1_655 S
C261 C260 1.478 . S
C261 C262 1.397 . S
C262 C261 1.397 . S
C262 C263 1.438 . S
C262 C267 1.429 . S
C263 C246 1.394 1_655 S
C263 C262 1.438 . S
C263 C264 1.428 . S
C264 H256 0.949 . S
C264 C263 1.428 . S
C264 C265 1.345 . S
C265 H257 0.950 . S
C265 C264 1.345 . S
C265 C266 1.424 . S
C266 H258 0.951 . S
C266 C265 1.424 . S
C266 C267 1.347 . S
C267 H259 0.951 . S
C267 C262 1.429 . S
C267 C266 1.347 . S
H268 C269 0.951 1_545 S
C269 H268 0.951 1_565 S
C269 C275 1.265 . S
H270 C275 0.950 . S
H271 C279 0.949 . S
H272 C280 0.950 . S
H273 C281 0.951 . S
H274 C282 0.951 . S
C275 C269 1.265 . S
C275 H270 0.950 . S
C275 C276 1.479 . S
C276 C275 1.479 . S
C276 C277 1.411 . S
C276 C293 1.379 1_565 S
C277 C276 1.411 . S
C277 C278 1.438 . S
C277 C282 1.429 . S
C278 C277 1.438 . S
C278 C279 1.428 . S
C278 C291 1.379 1_565 S
C279 H271 0.949 . S
C279 C278 1.428 . S
C279 C280 1.345 . S
C280 H272 0.950 . S
C280 C279 1.345 . S
C280 C281 1.424 . S
C281 H273 0.951 . S
C281 C280 1.424 . S
C281 C282 1.347 . S
C282 H274 0.951 . S
C282 C277 1.429 . S
C282 C281 1.347 . S
H283 C284 0.951 1_565 S
C284 H283 0.951 1_545 S
C284 C290 1.265 . S
H285 C290 0.950 . S
H286 C294 0.949 . S
H287 C295 0.950 . S
H288 C296 0.951 . S
H289 C297 0.951 . S
C290 C284 1.265 . S
C290 H285 0.950 . S
C290 C291 1.479 . S
C291 C278 1.379 1_545 S
C291 C290 1.479 . S
C291 C292 1.411 . S
C292 C291 1.411 . S
C292 C293 1.438 . S
C292 C297 1.429 . S
C293 C276 1.379 1_545 S
C293 C292 1.438 . S
C293 C294 1.428 . S
C294 H286 0.949 . S
C294 C293 1.428 . S
C294 C295 1.345 . S
C295 H287 0.950 . S
C295 C294 1.345 . S
C295 C296 1.424 . S
C296 H288 0.951 . S
C296 C295 1.424 . S
C296 C297 1.347 . S
C297 H289 0.951 . S
C297 C292 1.429 . S
C297 C296 1.347 . S
C59 C22 1.370 . S
C74 C33 1.449 . S
C89 C8 1.402 1_565 S
C104 C55 1.464 1_545 S
C119 C31 1.422 1_655 S
C134 C42 1.444 . S
C149 C17 1.440 1_545 S
C164 C46 1.449 1_545 S
C179 C30 1.305 . S
C194 C35 1.399 1_655 S
C209 C27 1.358 . S
C224 C50 1.373 1_545 S
C254 C37 1.356 . S
C239 C23 1.294 . S
C269 C24 1.373 1_565 S
C284 C48 1.377 1_545 S
