# Generated by pormake.
# Topology ocu, (6,8)-cn, num edge types: 1
# Building blocks:
#     Node 0, Type 0, BuildingBlock: CUKXOW_clean_sbu_0, # of connection points: 6
#     Node 1, Type 0, BuildingBlock: CUKXOW_clean_sbu_0, # of connection points: 6
#     Node 2, Type 0, BuildingBlock: CUKXOW_clean_sbu_0, # of connection points: 6
#     Node 3, Type 0, BuildingBlock: CUKXOW_clean_sbu_0, # of connection points: 6
#     Node 4, Type 0, BuildingBlock: CUKXOW_clean_sbu_0, # of connection points: 6
#     Node 5, Type 0, BuildingBlock: CUKXOW_clean_sbu_0, # of connection points: 6
#     Node 6, Type 0, BuildingBlock: CUKXOW_clean_sbu_0, # of connection points: 6
#     Node 7, Type 0, BuildingBlock: CUKXOW_clean_sbu_0, # of connection points: 6
#     Node 8, Type 1, BuildingBlock: GIZVER_clean_sbu_0, # of connection points: 8
#     Node 9, Type 1, BuildingBlock: GIZVER_clean_sbu_0, # of connection points: 8
#     Node 10, Type 1, BuildingBlock: GIZVER_clean_sbu_0, # of connection points: 8
#     Node 11, Type 1, BuildingBlock: GIZVER_clean_sbu_0, # of connection points: 8
#     Node 12, Type 1, BuildingBlock: GIZVER_clean_sbu_0, # of connection points: 8
#     Node 13, Type 1, BuildingBlock: GIZVER_clean_sbu_0, # of connection points: 8
#     Edge 14, Type (0, 1), BuildingBlock: ZUJKAS_clean_linker_0, # of connection points: 2
#     Edge 15, Type (0, 1), BuildingBlock: ZUJKAS_clean_linker_0, # of connection points: 2
#     Edge 16, Type (0, 1), BuildingBlock: ZUJKAS_clean_linker_0, # of connection points: 2
#     Edge 17, Type (0, 1), BuildingBlock: ZUJKAS_clean_linker_0, # of connection points: 2
#     Edge 18, Type (0, 1), BuildingBlock: ZUJKAS_clean_linker_0, # of connection points: 2
#     Edge 19, Type (0, 1), BuildingBlock: ZUJKAS_clean_linker_0, # of connection points: 2
#     Edge 20, Type (0, 1), BuildingBlock: ZUJKAS_clean_linker_0, # of connection points: 2
#     Edge 21, Type (0, 1), BuildingBlock: ZUJKAS_clean_linker_0, # of connection points: 2
#     Edge 22, Type (0, 1), BuildingBlock: ZUJKAS_clean_linker_0, # of connection points: 2
#     Edge 23, Type (0, 1), BuildingBlock: ZUJKAS_clean_linker_0, # of connection points: 2
#     Edge 24, Type (0, 1), BuildingBlock: ZUJKAS_clean_linker_0, # of connection points: 2
#     Edge 25, Type (0, 1), BuildingBlock: ZUJKAS_clean_linker_0, # of connection points: 2
#     Edge 26, Type (0, 1), BuildingBlock: ZUJKAS_clean_linker_0, # of connection points: 2
#     Edge 27, Type (0, 1), BuildingBlock: ZUJKAS_clean_linker_0, # of connection points: 2
#     Edge 28, Type (0, 1), BuildingBlock: ZUJKAS_clean_linker_0, # of connection points: 2
#     Edge 29, Type (0, 1), BuildingBlock: ZUJKAS_clean_linker_0, # of connection points: 2
#     Edge 30, Type (0, 1), BuildingBlock: ZUJKAS_clean_linker_0, # of connection points: 2
#     Edge 31, Type (0, 1), BuildingBlock: ZUJKAS_clean_linker_0, # of connection points: 2
#     Edge 32, Type (0, 1), BuildingBlock: ZUJKAS_clean_linker_0, # of connection points: 2
#     Edge 33, Type (0, 1), BuildingBlock: ZUJKAS_clean_linker_0, # of connection points: 2
#     Edge 34, Type (0, 1), BuildingBlock: ZUJKAS_clean_linker_0, # of connection points: 2
#     Edge 35, Type (0, 1), BuildingBlock: ZUJKAS_clean_linker_0, # of connection points: 2
#     Edge 36, Type (0, 1), BuildingBlock: ZUJKAS_clean_linker_0, # of connection points: 2
#     Edge 37, Type (0, 1), BuildingBlock: ZUJKAS_clean_linker_0, # of connection points: 2
#     Edge 38, Type (0, 1), BuildingBlock: ZUJKAS_clean_linker_0, # of connection points: 2
#     Edge 39, Type (0, 1), BuildingBlock: ZUJKAS_clean_linker_0, # of connection points: 2
#     Edge 40, Type (0, 1), BuildingBlock: ZUJKAS_clean_linker_0, # of connection points: 2
#     Edge 41, Type (0, 1), BuildingBlock: ZUJKAS_clean_linker_0, # of connection points: 2
#     Edge 42, Type (0, 1), BuildingBlock: ZUJKAS_clean_linker_0, # of connection points: 2
#     Edge 43, Type (0, 1), BuildingBlock: ZUJKAS_clean_linker_0, # of connection points: 2
#     Edge 44, Type (0, 1), BuildingBlock: ZUJKAS_clean_linker_0, # of connection points: 2
#     Edge 45, Type (0, 1), BuildingBlock: ZUJKAS_clean_linker_0, # of connection points: 2
#     Edge 46, Type (0, 1), BuildingBlock: ZUJKAS_clean_linker_0, # of connection points: 2
#     Edge 47, Type (0, 1), BuildingBlock: ZUJKAS_clean_linker_0, # of connection points: 2
#     Edge 48, Type (0, 1), BuildingBlock: ZUJKAS_clean_linker_0, # of connection points: 2
#     Edge 49, Type (0, 1), BuildingBlock: ZUJKAS_clean_linker_0, # of connection points: 2
#     Edge 50, Type (0, 1), BuildingBlock: ZUJKAS_clean_linker_0, # of connection points: 2
#     Edge 51, Type (0, 1), BuildingBlock: ZUJKAS_clean_linker_0, # of connection points: 2
#     Edge 52, Type (0, 1), BuildingBlock: ZUJKAS_clean_linker_0, # of connection points: 2
#     Edge 53, Type (0, 1), BuildingBlock: ZUJKAS_clean_linker_0, # of connection points: 2
#     Edge 54, Type (0, 1), BuildingBlock: ZUJKAS_clean_linker_0, # of connection points: 2
#     Edge 55, Type (0, 1), BuildingBlock: ZUJKAS_clean_linker_0, # of connection points: 2
#     Edge 56, Type (0, 1), BuildingBlock: ZUJKAS_clean_linker_0, # of connection points: 2
#     Edge 57, Type (0, 1), BuildingBlock: ZUJKAS_clean_linker_0, # of connection points: 2
#     Edge 58, Type (0, 1), BuildingBlock: ZUJKAS_clean_linker_0, # of connection points: 2
#     Edge 59, Type (0, 1), BuildingBlock: ZUJKAS_clean_linker_0, # of connection points: 2
#     Edge 60, Type (0, 1), BuildingBlock: ZUJKAS_clean_linker_0, # of connection points: 2
#     Edge 61, Type (0, 1), BuildingBlock: ZUJKAS_clean_linker_0, # of connection points: 2
# Relax obj value: 0.135
# Max RMSD: 0.287
# Mean RMSD: 0.177
data_MOF--net-ocu--node1-CUKXOW_clean_sbu_0--node2-GIZVER_clean_sbu_0--edge1-ZUJKAS_clean_linker_0
_symmetry_space_group_name_H-M    P1
_symmetry_Int_Tables_number       1
_symmetry_cell_setting            triclinic
loop_
_symmetry_equiv_pos_as_xyz
'x, y, z'
_cell_length_a     50.435289
_cell_length_b     54.630706
_cell_length_c     38.854708
_cell_angle_alpha  91.284755
_cell_angle_beta   92.263025
_cell_angle_gamma 97.612462
loop_
_atom_site_label
_atom_site_type_symbol
_atom_site_fract_x
_atom_site_fract_y
_atom_site_fract_z
_atom_type_partial_charge
Tb0 Tb 0.27132 0.23977 0.22231 0.0
C1 C 0.30667 0.29245 0.22231 0.0
Tb2 Tb 0.26367 0.27783 0.2797 0.0
O3 O 0.2408 0.24974 0.18402 0.0
O4 O 0.24729 0.26728 0.23086 0.0
O5 O 0.30443 0.26884 0.21161 0.0
C6 C 0.2518 0.31724 0.31316 0.0
O7 O 0.29176 0.29999 0.247 0.0
C8 C 0.29279 0.24342 0.29817 0.0
C9 C 0.22761 0.22582 0.27923 0.0
O10 O 0.27321 0.30702 0.31958 0.0
O11 O 0.23709 0.30515 0.28869 0.0
O12 O 0.27841 0.25465 0.31884 0.0
O13 O 0.29256 0.25345 0.26898 0.0
O14 O 0.22991 0.24944 0.28973 0.0
O15 O 0.24296 0.21806 0.25524 0.0
C16 C 0.2852 0.20072 0.18922 0.0
O17 O 0.27819 0.20114 0.22096 0.0
O18 O 0.28504 0.22243 0.17636 0.0
C19 C 0.23393 0.26756 0.20293 0.0
Tb20 Tb 0.74618 0.24947 0.28433 0.0
C21 C 0.73126 0.22341 0.20998 0.0
Tb22 Tb 0.78131 0.2653 0.21877 0.0
O23 O 0.71479 0.27357 0.27255 0.0
O24 O 0.74567 0.27121 0.24117 0.0
O25 O 0.72912 0.22242 0.24413 0.0
C26 C 0.79827 0.29687 0.17113 0.0
O27 O 0.74861 0.23977 0.19457 0.0
C28 C 0.80287 0.23316 0.25843 0.0
C29 C 0.79589 0.2917 0.29283 0.0
O30 O 0.79989 0.27323 0.16937 0.0
O31 O 0.78703 0.30224 0.19923 0.0
O32 O 0.81277 0.24127 0.22961 0.0
O33 O 0.78206 0.24326 0.262 0.0
O34 O 0.79867 0.29183 0.25892 0.0
O35 O 0.77848 0.2756 0.30846 0.0
C36 C 0.72667 0.22505 0.33793 0.0
O37 O 0.72658 0.24853 0.33341 0.0
O38 O 0.73792 0.2154 0.31232 0.0
C39 C 0.72508 0.28158 0.24406 0.0
Tb40 Tb 0.76299 0.77618 0.22867 0.0
C41 C 0.72429 0.72605 0.23597 0.0
Tb42 Tb 0.77321 0.73977 0.2892 0.0
O43 O 0.78489 0.75889 0.18864 0.0
O44 O 0.78372 0.74567 0.23749 0.0
O45 O 0.7276 0.74874 0.22368 0.0
C46 C 0.79167 0.70798 0.33163 0.0
O47 O 0.7408 0.71792 0.25934 0.0
C48 C 0.74171 0.77337 0.30784 0.0
C49 C 0.81199 0.78847 0.28045 0.0
O50 O 0.77761 0.7018 0.30322 0.0
O51 O 0.79558 0.73181 0.33555 0.0
O52 O 0.74768 0.75555 0.32698 0.0
O53 O 0.75313 0.77051 0.28013 0.0
O54 O 0.81045 0.76477 0.28794 0.0
O55 O 0.79287 0.79759 0.26253 0.0
C56 C 0.74712 0.81337 0.1945 0.0
O57 O 0.77182 0.81124 0.20301 0.0
O58 O 0.73137 0.79454 0.20511 0.0
C59 C 0.79274 0.74199 0.20822 0.0
Tb60 Tb 0.27922 0.77257 0.23315 0.0
C61 C 0.3073 0.78153 0.30613 0.0
Tb62 Tb 0.25597 0.74203 0.28965 0.0
O63 O 0.27056 0.80634 0.25884 0.0
O64 O 0.24516 0.77351 0.2643 0.0
O65 O 0.3107 0.78305 0.27253 0.0
C66 C 0.2285 0.72423 0.3433 0.0
O67 O 0.28643 0.76765 0.31872 0.0
C68 C 0.28551 0.7186 0.24837 0.0
C69 C 0.22894 0.73291 0.21646 0.0
O70 O 0.2489 0.71537 0.3309 0.0
O71 O 0.22417 0.74339 0.32603 0.0
O72 O 0.26516 0.70808 0.2644 0.0
O73 O 0.2901 0.74107 0.25835 0.0
O74 O 0.22457 0.73275 0.24981 0.0
O75 O 0.251 0.74496 0.20433 0.0
C76 C 0.29981 0.79357 0.17705 0.0
O77 O 0.27591 0.79471 0.18748 0.0
O78 O 0.31206 0.78018 0.198 0.0
C79 C 0.25005 0.79592 0.27449 0.0
Tb80 Tb 0.25016 0.75608 0.78536 0.0
C81 C 0.24079 0.72345 0.7155 0.0
Tb82 Tb 0.28717 0.76767 0.72461 0.0
O83 O 0.23508 0.79162 0.77867 0.0
O84 O 0.2473 0.77272 0.73632 0.0
O85 O 0.23707 0.7252 0.7491 0.0
C86 C 0.30821 0.79102 0.67093 0.0
O87 O 0.25771 0.73959 0.69942 0.0
C88 C 0.30752 0.73649 0.7666 0.0
C89 C 0.30032 0.79589 0.7977 0.0
O90 O 0.309 0.76785 0.67715 0.0
O91 O 0.29548 0.80093 0.69486 0.0
O92 O 0.31842 0.74435 0.73844 0.0
O93 O 0.28634 0.74629 0.76863 0.0
O94 O 0.30311 0.79607 0.76374 0.0
O95 O 0.28218 0.78019 0.81258 0.0
C96 C 0.22036 0.73256 0.83271 0.0
O97 O 0.24615 0.73383 0.83143 0.0
O98 O 0.21153 0.74517 0.80787 0.0
C99 C 0.23883 0.7925 0.74573 0.0
Tb100 Tb 0.26348 0.27736 0.72345 0.0
C101 C 0.22579 0.22664 0.72313 0.0
Tb102 Tb 0.27028 0.23916 0.78296 0.0
O103 O 0.28739 0.26076 0.68492 0.0
O104 O 0.28234 0.24572 0.73225 0.0
O105 O 0.22936 0.24956 0.71202 0.0
C106 C 0.28385 0.20202 0.81921 0.0
O107 O 0.24096 0.21812 0.74756 0.0
C108 C 0.24104 0.27398 0.80247 0.0
C109 C 0.3082 0.28986 0.78291 0.0
O110 O 0.25947 0.20554 0.81118 0.0
O111 O 0.30064 0.2193 0.80659 0.0
O112 O 0.24704 0.25625 0.82184 0.0
O113 O 0.25148 0.27065 0.77409 0.0
O114 O 0.30536 0.2665 0.79264 0.0
O115 O 0.29219 0.29851 0.75944 0.0
C116 C 0.24586 0.31257 0.68675 0.0
O117 O 0.27085 0.3093 0.69071 0.0
O118 O 0.23096 0.29629 0.70386 0.0
C119 C 0.29312 0.24274 0.70396 0.0
Tb120 Tb 0.77703 0.27258 0.72161 0.0
C121 C 0.80434 0.28208 0.79469 0.0
Tb122 Tb 0.75379 0.24237 0.77859 0.0
O123 O 0.76808 0.30675 0.74624 0.0
O124 O 0.74306 0.27388 0.7532 0.0
O125 O 0.80838 0.2822 0.76127 0.0
C126 C 0.73281 0.22188 0.83481 0.0
O127 O 0.78253 0.26979 0.80717 0.0
C128 C 0.78284 0.2189 0.73727 0.0
C129 C 0.72572 0.23317 0.70539 0.0
O130 O 0.75653 0.22008 0.82423 0.0
O131 O 0.72096 0.23562 0.81394 0.0
O132 O 0.76238 0.20847 0.75302 0.0
O133 O 0.78769 0.24129 0.74743 0.0
O134 O 0.7224 0.23166 0.73904 0.0
O135 O 0.74651 0.24704 0.69267 0.0
C136 C 0.80519 0.29022 0.66849 0.0
O137 O 0.7846 0.29908 0.68032 0.0
O138 O 0.80921 0.27102 0.68588 0.0
C139 C 0.74786 0.29646 0.7627 0.0
Tb140 Tb 0.77072 0.73873 0.7211 0.0
C141 C 0.80422 0.79292 0.72 0.0
Tb142 Tb 0.76286 0.77884 0.7799 0.0
O143 O 0.74142 0.75037 0.6827 0.0
O144 O 0.7492 0.76814 0.72948 0.0
O145 O 0.80138 0.76946 0.70834 0.0
C146 C 0.74592 0.81652 0.81224 0.0
O147 O 0.79021 0.80053 0.74571 0.0
C148 C 0.79634 0.74747 0.80026 0.0
C149 C 0.73054 0.72461 0.78227 0.0
O150 O 0.76981 0.81031 0.81606 0.0
O151 O 0.7314 0.80131 0.79067 0.0
O152 O 0.78921 0.76489 0.81986 0.0
O153 O 0.78489 0.74959 0.77128 0.0
O154 O 0.73164 0.7484 0.792 0.0
O155 O 0.74596 0.71691 0.75811 0.0
C156 C 0.78926 0.70299 0.6864 0.0
O157 O 0.76414 0.70379 0.69182 0.0
O158 O 0.80388 0.72218 0.7007 0.0
C159 C 0.73556 0.7686 0.7018 0.0
Co160 Co 0.05487 0.96165 0.48842 0.0
Co161 Co 0.05415 0.97879 0.54945 0.0
Co162 Co 0.01664 0.0095 0.50163 0.0
O163 O 0.05145 0.99433 0.50775 0.0
H164 H 0.06711 1.00619 0.5046 0.0
O165 O 0.98163 0.02458 0.49601 0.0
Co166 Co 0.97751 0.05662 0.51727 0.0
Co167 Co 0.97829 0.04114 0.45551 0.0
H168 H 0.96609 0.01248 0.4986 0.0
O169 O 0.08685 0.9774 0.57089 0.0
O170 O 0.06338 0.9482 0.53546 0.0
O171 O 0.0222 0.97253 0.57492 0.0
O172 O 0.99512 0.98647 0.53537 0.0
O173 O 0.02954 0.03408 0.53889 0.0
O174 O 0.97209 0.08464 0.53784 0.0
O175 O 0.94137 0.05161 0.52592 0.0
O176 O 1.01456 0.06612 0.51374 0.0
O177 O 0.03811 0.03274 0.46769 0.0
O178 O 1.01025 0.04896 0.43132 0.0
O179 O 0.96888 0.07123 0.47126 0.0
O180 O 0.94536 0.04306 0.43449 0.0
C181 C 0.0843 0.94313 0.46735 0.0
C182 C 1.00274 0.96147 0.46916 0.0
C183 C 0.99884 0.97442 0.56292 0.0
C184 C 0.08348 0.95506 0.55771 0.0
C185 C 0.94763 0.07398 0.53941 0.0
C186 C 0.03033 0.05729 0.53515 0.0
C187 C 0.03381 0.04636 0.44181 0.0
C188 C 0.94873 0.065 0.44894 0.0
O189 O 0.05971 0.93284 0.46929 0.0
O190 O 0.09089 0.96575 0.47976 0.0
O191 O 1.00395 0.98467 0.46445 0.0
O192 O 0.01765 0.9532 0.49225 0.0
Co193 Co 0.5548 0.96746 0.01966 0.0
Co194 Co 0.54124 0.98881 0.07545 0.0
Co195 Co 0.51423 0.0097 0.00796 0.0
O196 O 0.5457 0.99903 0.03087 0.0
H197 H 0.56098 0.01171 0.03066 0.0
O198 O 0.48265 0.02018 0.98507 0.0
Co199 Co 0.47176 0.05052 0.99879 0.0
Co200 Co 0.48626 0.03208 0.94145 0.0
H201 H 0.46786 1.00695 0.98421 0.0
O202 O 0.57068 0.99275 0.10552 0.0
O203 O 0.55632 0.96033 0.06934 0.0
O204 O 0.50523 0.98066 0.08911 0.0
O205 O 0.48756 0.99194 0.03933 0.0
O206 O 0.5198 0.03925 0.03957 0.0
O207 O 0.45785 0.07711 0.01161 0.0
O208 O 0.43684 0.0389 0.99783 0.0
O209 O 0.50781 0.06651 1.00328 0.0
O210 O 0.54074 0.02762 0.97641 0.0
O211 O 0.52228 0.04149 0.92859 0.0
O212 O 0.46999 0.05954 0.95009 0.0
O213 O 0.45624 0.02836 0.91175 0.0
C214 C 0.58938 0.95413 0.01078 0.0
C215 C 0.5042 0.95862 0.98891 0.0
C216 C 0.48521 0.98211 0.06878 0.0
C217 C 0.57399 0.97149 0.09185 0.0
C218 C 0.43605 0.06135 0.00936 0.0
C219 C 0.52326 0.06087 0.02766 0.0
C220 C 0.5426 0.03883 0.94785 0.0
C221 C 0.45234 0.04879 0.92737 0.0
O222 O 0.56678 0.93951 0.00936 0.0
O223 O 0.5902 0.97727 0.02019 0.0
O224 O 0.50882 0.98006 0.97658 0.0
O225 O 0.51799 0.95314 0.01514 0.0
Co226 Co 0.05223 0.45953 0.98682 0.0
Co227 Co 0.05399 0.47638 0.04812 0.0
Co228 Co 0.01676 0.50926 1.001 0.0
O229 O 0.05033 0.49229 0.00665 0.0
H230 H 0.06634 0.50356 1.00289 0.0
O231 O 0.98303 0.52602 0.99614 0.0
Co232 Co 0.98103 0.55898 0.0152 0.0
Co233 Co 0.97784 0.5405 0.95451 0.0
H234 H 0.96722 0.51477 1.00082 0.0
O235 O 0.08719 0.47374 0.06841 0.0
O236 O 0.06229 0.44575 0.03273 0.0
O237 O 0.02209 0.47045 0.07383 0.0
O238 O 0.99772 0.49184 0.03954 0.0
O239 O 0.03447 0.53666 0.03249 0.0
O240 O 0.97678 0.58812 0.0347 0.0
O241 O 0.94576 0.55476 0.02723 0.0
O242 O 0.01785 0.56783 0.00724 0.0
O243 O 0.0356 0.52669 0.96194 0.0
O244 O 1.00835 0.54438 0.92642 0.0
O245 O 0.97061 0.57176 0.96872 0.0
O246 O 0.94403 0.54284 0.93621 0.0
C247 C 0.08067 0.44127 0.96276 0.0
C248 C 0.99685 0.45908 0.97727 0.0
C249 C 1.00002 0.47769 0.06482 0.0
C250 C 0.0829 0.45169 0.05433 0.0
C251 C 0.9526 0.57743 0.03924 0.0
C252 C 0.03607 0.55958 0.02553 0.0
C253 C 0.03133 0.53888 0.93502 0.0
C254 C 0.9492 0.56535 0.94858 0.0
O255 O 0.05635 0.43068 0.96658 0.0
O256 O 0.08755 0.46381 0.97526 0.0
O257 O 0.999 0.48184 0.96939 0.0
O258 O 1.01539 0.4506 0.99466 0.0
Co259 Co 0.55548 0.4615 0.98638 0.0
Co260 Co 0.55677 0.4774 0.0484 0.0
Co261 Co 0.51829 0.50964 0.00438 0.0
O262 O 0.55285 0.49381 0.00779 0.0
H263 H 0.5685 0.50559 0.00444 0.0
O264 O 0.48373 0.52551 1.00099 0.0
Co265 Co 0.48099 0.55772 0.02282 0.0
Co266 Co 0.47997 0.54233 0.96071 0.0
H267 H 0.46803 0.51367 1.00409 0.0
O268 O 0.59008 0.47482 0.06757 0.0
O269 O 0.56469 0.44694 0.03212 0.0
O270 O 0.52565 0.47074 0.07504 0.0
O271 O 0.49747 0.48647 0.0387 0.0
O272 O 0.53265 0.53378 0.04176 0.0
O273 O 0.4766 0.58608 0.04418 0.0
O274 O 0.44512 0.55353 0.03304 0.0
O275 O 0.51814 0.56631 0.01754 0.0
O276 O 0.53918 0.53279 0.97006 0.0
O277 O 0.5112 0.54929 0.93432 0.0
O278 O 0.47165 0.57257 0.97726 0.0
O279 O 0.44674 0.54469 0.94128 0.0
C280 C 0.58439 0.4432 0.96292 0.0
C281 C 0.50214 0.46208 0.97122 0.0
C282 C 0.50199 0.47341 0.06504 0.0
C283 C 0.58557 0.45281 0.05337 0.0
C284 C 0.45202 0.57581 0.04658 0.0
C285 C 0.53418 0.55712 0.03825 0.0
C286 C 0.53479 0.54619 0.94403 0.0
C287 C 0.45091 0.56662 0.95575 0.0
O288 O 0.5598 0.43299 0.96538 0.0
O289 O 0.59132 0.46555 0.97622 0.0
O290 O 0.50387 0.48538 0.96706 0.0
O291 O 0.51839 0.45303 0.99177 0.0
Co292 Co 0.07488 0.49057 0.4882 0.0
Co293 Co 0.04041 0.49326 0.4361 0.0
Co294 Co 0.0164 0.50791 0.5071 0.0
O295 O 0.03708 0.48568 0.48236 0.0
H296 H 0.02962 0.46861 0.48415 0.0
O297 O 0.99568 0.53001 0.53211 0.0
Co298 Co 0.95786 0.52559 0.52658 0.0
Co299 Co 0.9927 0.52263 0.57861 0.0
H300 H 1.00329 0.54715 0.53033 0.0
O301 O 0.0475 0.46891 0.40502 0.0
O302 O 0.07717 0.49453 0.43815 0.0
O303 O 0.03348 0.52538 0.42283 0.0
O304 O 0.02634 0.53707 0.47659 0.0
O305 O 0.98508 0.49489 0.47576 0.0
O306 O 0.92272 0.52523 0.52162 0.0
O307 O 0.95483 0.55749 0.53343 0.0
O308 O 0.95618 0.4913 0.51687 0.0
O309 O 1.00642 0.47883 0.53776 0.0
O310 O 1.00241 0.49146 0.59198 0.0
O311 O 0.95564 0.51893 0.57596 0.0
O312 O 0.98264 0.54527 0.61096 0.0
C313 C 0.10367 0.46817 0.49119 0.0
C314 C 0.069 0.53196 0.52474 0.0
C315 C 0.03145 0.54214 0.44535 0.0
C316 C 0.07201 0.47636 0.41575 0.0
C317 C 0.92985 0.54893 0.52591 0.0
C318 C 0.96361 0.48419 0.48789 0.0
C319 C 1.00323 0.47432 0.56964 0.0
C320 C 0.95869 0.53591 0.60012 0.0
O321 O 0.1099 0.49202 0.49347 0.0
O322 O 0.07887 0.45854 0.48444 0.0
O323 O 0.04802 0.52104 0.53793 0.0
O324 O 0.07562 0.52492 0.49524 0.0
Co325 Co 0.56974 0.97509 0.51544 0.0
Co326 Co 0.55532 0.97947 0.45479 0.0
Co327 Co 0.51615 0.00849 0.50229 0.0
O328 O 0.53537 0.97875 0.4931 0.0
H329 H 0.52316 0.96354 0.49305 0.0
O330 O 0.49705 0.03826 0.51142 0.0
Co331 Co 0.46276 0.04221 0.48915 0.0
Co332 Co 0.47718 0.03758 0.54976 0.0
H333 H 0.50933 0.05343 0.51156 0.0
O334 O 0.55538 0.95132 0.42901 0.0
O335 O 0.58649 0.96743 0.46999 0.0
O336 O 0.56236 0.01116 0.43488 0.0
O337 O 0.53316 0.02932 0.46502 0.0
O338 O 0.48634 0.99335 0.47007 0.0
O339 O 0.43284 0.04836 0.46683 0.0
O340 O 0.46955 0.07528 0.48082 0.0
O341 O 0.45124 1.00748 0.49281 0.0
O342 O 0.49913 0.98764 0.53958 0.0
O343 O 0.46993 1.00585 0.56963 0.0
O344 O 0.44619 0.04996 0.53474 0.0
O345 O 0.47752 0.06569 0.57571 0.0
C346 C 0.58705 0.94693 0.5389 0.0
C347 C 0.57053 0.02683 0.52735 0.0
C348 C 0.55095 0.02982 0.44243 0.0
C349 C 0.57856 0.95116 0.44488 0.0
C350 C 0.44566 0.07061 0.46575 0.0
C351 C 0.46169 0.99034 0.47759 0.0
C352 C 0.4813 0.98716 0.56213 0.0
C353 C 0.45431 0.06605 0.55999 0.0
O354 O 0.59962 0.96927 0.53801 0.0
O355 O 0.5633 0.94199 0.52354 0.0
O356 O 0.54585 0.02365 0.53463 0.0
O357 O 0.58107 0.00988 0.51182 0.0
H358 H 0.21577 0.17612 0.26312 0.0
H359 H 0.18541 0.14486 0.29128 0.0
H360 H 0.16494 0.20039 0.36218 0.0
H361 H 0.19534 0.23199 0.33405 0.0
H362 H 0.17679 0.15324 0.39352 0.0
H363 H 0.10154 0.1384 0.28421 0.0
H364 H 0.13593 0.13832 0.27358 0.0
H365 H 0.12514 0.16624 0.28972 0.0
C366 C 0.20476 0.18188 0.28457 0.0
C367 C 0.20807 0.20687 0.29594 0.0
C368 C 0.18732 0.16384 0.30072 0.0
C369 C 0.17263 0.17009 0.32889 0.0
C370 C 0.17598 0.19495 0.34056 0.0
H371 H 0.02987 0.08788 0.40559 0.0
H372 H 0.06453 0.11603 0.38058 0.0
C373 C 0.19333 0.21309 0.32424 0.0
C374 C 0.15359 0.15077 0.34566 0.0
H375 H 0.09503 0.11182 0.33074 0.0
C376 C 0.15889 0.14417 0.37982 0.0
C377 C 0.13009 0.1389 0.32805 0.0
C378 C 0.12256 0.14584 0.29195 0.0
C379 C 0.14145 0.12622 0.39672 0.0
C380 C 0.118 0.11409 0.37893 0.0
C381 C 0.11291 0.12074 0.34466 0.0
C382 C 0.09723 0.09613 0.39576 0.0
C383 C 0.14799 0.12107 0.43384 0.0
C384 C 0.10347 0.07501 0.41321 0.0
C385 C 0.08329 0.05867 0.4284 0.0
C386 C 0.05625 0.06268 0.42574 0.0
C387 C 0.05025 0.08367 0.40796 0.0
C388 C 0.07025 0.10003 0.39349 0.0
H389 H 0.16239 0.13616 0.44621 0.0
H390 H 0.12965 0.11866 0.44896 0.0
H391 H 0.15731 0.1038 0.43501 0.0
H392 H 0.12389 0.07093 0.41483 0.0
H393 H 0.08881 0.0428 0.44179 0.0
H394 H 0.79121 0.22152 0.32579 0.0
H395 H 0.81439 0.19525 0.36437 0.0
H396 H 0.86582 0.1803 0.2826 0.0
H397 H 0.84311 0.20657 0.24453 0.0
H398 H 0.82152 0.14689 0.36266 0.0
H399 H 0.92094 0.20249 0.35809 0.0
H400 H 0.89082 0.21343 0.34164 0.0
H401 H 0.90767 0.19306 0.31568 0.0
C402 C 0.80729 0.21243 0.31602 0.0
C403 C 0.81522 0.21614 0.28199 0.0
C404 C 0.82069 0.19749 0.33817 0.0
C405 C 0.84244 0.18609 0.32687 0.0
C406 C 0.84976 0.18934 0.29255 0.0
H407 H 0.90792 0.05777 0.39975 0.0
H408 H 0.88194 0.08782 0.37462 0.0
C409 C 0.83651 0.20426 0.27059 0.0
C410 C 0.85733 0.17049 0.35034 0.0
H411 H 0.92049 0.16121 0.37836 0.0
C412 C 0.84313 0.15023 0.36633 0.0
C413 C 0.88557 0.17491 0.35611 0.0
C414 C 0.9021 0.19731 0.34229 0.0
C415 C 0.85635 0.1338 0.38625 0.0
C416 C 0.88476 0.13722 0.38991 0.0
C417 C 0.89883 0.15816 0.37535 0.0
C418 C 0.90024 0.11869 0.407 0.0
C419 C 0.83959 0.11295 0.40334 0.0
C420 C 0.91998 0.12577 0.4334 0.0
C421 C 0.93531 0.10842 0.44784 0.0
C422 C 0.93146 0.08357 0.43604 0.0
C423 C 0.91153 0.0766 0.40986 0.0
C424 C 0.89635 0.09385 0.39549 0.0
H425 H 0.81938 0.11777 0.40854 0.0
H426 H 0.8369 0.09638 0.38588 0.0
H427 H 0.84926 0.10817 0.42801 0.0
H428 H 0.92363 0.14479 0.44275 0.0
H429 H 0.95044 0.11458 0.46785 0.0
H430 H 0.85169 0.77899 0.32633 0.0
H431 H 0.8866 0.80912 0.35422 0.0
H432 H 0.85926 0.86696 0.29399 0.0
H433 H 0.82422 0.83719 0.26614 0.0
H434 H 0.92827 0.84425 0.32587 0.0
H435 H 0.85234 0.88844 0.39634 0.0
H436 H 0.84489 0.85831 0.37548 0.0
H437 H 0.8468 0.88565 0.35036 0.0
C438 C 0.85329 0.79806 0.31871 0.0
C439 C 0.83497 0.80578 0.2944 0.0
C440 C 0.87323 0.81519 0.33463 0.0
C441 C 0.87506 0.8402 0.32646 0.0
C442 C 0.85776 0.84775 0.30095 0.0
H443 H 0.96786 0.97213 0.41777 0.0
H444 H 0.93794 0.94278 0.38097 0.0
C445 C 0.8378 0.83069 0.28508 0.0
C446 C 0.89409 0.85862 0.34595 0.0
H447 H 0.89722 0.9071 0.40338 0.0
C448 C 0.92158 0.85802 0.34283 0.0
C449 C 0.88508 0.87646 0.36796 0.0
C450 C 0.85568 0.87724 0.37307 0.0
C451 C 0.94047 0.8751 0.36109 0.0
C452 C 0.93144 0.8928 0.3833 0.0
C453 C 0.90395 0.89349 0.38618 0.0
C454 C 0.95015 0.91037 0.40468 0.0
C455 C 0.96987 0.87426 0.3562 0.0
C456 C 0.96651 0.90171 0.43039 0.0
C457 C 0.98356 0.91836 0.45146 0.0
C458 C 0.98437 0.94394 0.44723 0.0
C459 C 0.96773 0.95253 0.4216 0.0
C460 C 0.95068 0.93584 0.40054 0.0
H461 H 0.97327 0.86412 0.33201 0.0
H462 H 0.98102 0.89319 0.35569 0.0
H463 H 0.97828 0.86458 0.37806 0.0
H464 H 0.96586 0.88209 0.4344 0.0
H465 H 0.99604 0.91114 0.47106 0.0
H466 H 0.19972 0.78127 0.29936 0.0
H467 H 0.17305 0.80629 0.33441 0.0
H468 H 0.23698 0.8671 0.33553 0.0
H469 H 0.26341 0.84243 0.30076 0.0
H470 H 0.18354 0.83013 0.39993 0.0
H471 H 0.17341 0.89944 0.29988 0.0
H472 H 0.18473 0.87011 0.2905 0.0
H473 H 0.20744 0.89511 0.31024 0.0
C474 C 0.20809 0.79991 0.3073 0.0
C475 C 0.23364 0.80986 0.29705 0.0
C476 C 0.19281 0.81426 0.32726 0.0
C477 C 0.20269 0.83888 0.33712 0.0
C478 C 0.22851 0.84847 0.32763 0.0
H479 H 0.13663 0.95833 0.44923 0.0
H480 H 0.16677 0.93345 0.41978 0.0
C481 C 0.24369 0.83423 0.30781 0.0
C482 C 0.18629 0.85467 0.35732 0.0
H483 H 0.1592 0.909 0.35551 0.0
C484 C 0.17813 0.8473 0.39011 0.0
C485 C 0.17932 0.87729 0.34482 0.0
C486 C 0.18644 0.8859 0.30932 0.0
C487 C 0.16359 0.86194 0.41075 0.0
C488 C 0.15643 0.88447 0.39813 0.0
C489 C 0.16476 0.89191 0.36544 0.0
C490 C 0.13886 0.89967 0.4174 0.0
C491 C 0.15644 0.85331 0.44623 0.0
C492 C 0.11308 0.88921 0.42575 0.0
C493 C 0.09595 0.90331 0.44243 0.0
C494 C 0.1039 0.92849 0.4512 0.0
C495 C 0.12982 0.93904 0.44307 0.0
C496 C 0.14705 0.92481 0.42613 0.0
H497 H 0.17025 0.84062 0.4562 0.0
H498 H 0.15698 0.86915 0.46479 0.0
H499 H 0.13589 0.84307 0.44494 0.0
H500 H 0.10589 0.87012 0.41871 0.0
H501 H 0.07618 0.89439 0.44809 0.0
H502 H 0.21658 0.83383 0.76317 0.0
H503 H 0.19199 0.85943 0.72568 0.0
H504 H 0.20592 0.81428 0.63766 0.0
H505 H 0.23087 0.78865 0.67506 0.0
H506 H 0.21437 0.88235 0.65137 0.0
H507 H 0.11792 0.81948 0.65076 0.0
H508 H 0.14119 0.8216 0.68763 0.0
H509 H 0.14929 0.80711 0.64833 0.0
C510 C 0.21464 0.82943 0.73579 0.0
C511 C 0.22575 0.80913 0.72221 0.0
C512 C 0.2005 0.84409 0.71437 0.0
C513 C 0.19687 0.83875 0.67882 0.0
C514 C 0.20832 0.81875 0.665 0.0
H515 H 0.08754 0.90693 0.53532 0.0
H516 H 0.11591 0.87804 0.56089 0.0
C517 C 0.22267 0.80415 0.68642 0.0
C518 C 0.18097 0.85407 0.65649 0.0
H519 H 0.11763 0.85736 0.62314 0.0
C520 C 0.19326 0.87681 0.64501 0.0
C521 C 0.1535 0.84678 0.64768 0.0
C522 C 0.13945 0.82243 0.65911 0.0
C523 C 0.17882 0.89259 0.62556 0.0
C524 C 0.15092 0.88594 0.61817 0.0
C525 C 0.13886 0.86274 0.62876 0.0
C526 C 0.13377 0.90342 0.60159 0.0
C527 C 0.19384 0.91616 0.61286 0.0
C528 C 0.13382 0.92728 0.61587 0.0
C529 C 0.11792 0.9438 0.60116 0.0
C530 C 0.10086 0.93699 0.57189 0.0
C531 C 0.1004 0.91294 0.55772 0.0
C532 C 0.11664 0.89636 0.57242 0.0
H533 H 0.21525 0.91428 0.60938 0.0
H534 H 0.18499 0.92156 0.588 0.0
H535 H 0.19315 0.93126 0.63225 0.0
H536 H 0.14598 0.93314 0.63892 0.0
H537 H 0.11874 0.96193 0.61331 0.0
H538 H 0.21299 0.22181 0.65497 0.0
H539 H 0.17792 0.19234 0.62639 0.0
H540 H 0.15453 0.16413 0.72527 0.0
H541 H 0.19104 0.19246 0.75363 0.0
H542 H 0.15368 0.12796 0.68306 0.0
H543 H 0.10089 0.19694 0.61717 0.0
H544 H 0.13489 0.20002 0.60457 0.0
H545 H 0.12764 0.20575 0.64894 0.0
C546 C 0.20022 0.20935 0.67048 0.0
C547 C 0.20433 0.20938 0.70634 0.0
C548 C 0.18007 0.1927 0.65424 0.0
C549 C 0.16303 0.17657 0.67377 0.0
C550 C 0.1673 0.17655 0.70972 0.0
H551 H 0.02005 0.09854 0.56905 0.0
H552 H 0.05096 0.12625 0.60673 0.0
C553 C 0.18805 0.19268 0.72588 0.0
C554 C 0.14146 0.15912 0.65647 0.0
H555 H 0.09165 0.15526 0.59408 0.0
C556 C 0.13982 0.13397 0.66398 0.0
C557 C 0.12294 0.167 0.63221 0.0
C558 C 0.12149 0.19394 0.62561 0.0
C559 C 0.12073 0.11637 0.64706 0.0
C560 C 0.10381 0.12403 0.62062 0.0
C561 C 0.10492 0.14928 0.61391 0.0
C562 C 0.08485 0.10634 0.59939 0.0
C563 C 0.11871 0.08992 0.65824 0.0
C564 C 0.09359 0.08597 0.58267 0.0
C565 C 0.07568 0.06969 0.56209 0.0
C566 C 0.04914 0.0742 0.55681 0.0
C567 C 0.04053 0.09485 0.5727 0.0
C568 C 0.05816 0.11063 0.59421 0.0
H569 H 0.1254 0.08892 0.68571 0.0
H570 H 0.09791 0.08032 0.6549 0.0
H571 H 0.132 0.07989 0.64265 0.0
H572 H 0.1143 0.08279 0.58514 0.0
H573 H 0.08268 0.05394 0.54965 0.0
H574 H 0.83339 0.23328 0.71315 0.0
H575 H 0.85949 0.20868 0.67671 0.0
H576 H 0.79489 0.1484 0.67394 0.0
H577 H 0.7688 0.17288 0.7095 0.0
H578 H 0.87678 0.16345 0.69055 0.0
H579 H 0.81047 0.15332 0.57256 0.0
H580 H 0.80731 0.17576 0.60646 0.0
H581 H 0.79353 0.14394 0.6108 0.0
C582 C 0.82464 0.21495 0.70427 0.0
C583 C 0.79893 0.20514 0.71406 0.0
C584 C 0.83961 0.20082 0.68357 0.0
C585 C 0.82907 0.17671 0.67195 0.0
C586 C 0.80336 0.16706 0.68172 0.0
H587 H 0.89542 0.05792 0.55783 0.0
H588 H 0.86567 0.08182 0.58988 0.0
C589 C 0.7885 0.18107 0.70238 0.0
C590 C 0.84529 0.16111 0.65116 0.0
H591 H 0.84513 0.12765 0.57535 0.0
C592 C 0.86989 0.15579 0.66528 0.0
C593 C 0.83628 0.15074 0.61826 0.0
C594 C 0.81058 0.15638 0.60093 0.0
C595 C 0.88549 0.14033 0.64775 0.0
C596 C 0.87663 0.13013 0.61473 0.0
C597 C 0.85193 0.13527 0.60068 0.0
C598 C 0.89367 0.11553 0.59372 0.0
C599 C 0.91122 0.13473 0.66509 0.0
C600 C 0.91891 0.12658 0.58423 0.0
C601 C 0.93577 0.11308 0.56607 0.0
C602 C 0.92794 0.08801 0.55651 0.0
C603 C 0.90219 0.07709 0.56483 0.0
C604 C 0.88519 0.09075 0.5832 0.0
H605 H 0.91125 0.13765 0.69349 0.0
H606 H 0.9146 0.11541 0.65941 0.0
H607 H 0.92824 0.1473 0.65537 0.0
H608 H 0.92576 0.14576 0.59114 0.0
H609 H 0.95522 0.12241 0.55984 0.0
H610 H 0.83484 0.78689 0.66362 0.0
H611 H 0.86558 0.81803 0.63567 0.0
H612 H 0.84866 0.87332 0.70948 0.0
H613 H 0.81748 0.84245 0.73711 0.0
H614 H 0.85004 0.89207 0.6461 0.0
H615 H 0.94042 0.8459 0.6672 0.0
H616 H 0.91376 0.82681 0.64371 0.0
H617 H 0.9095 0.83602 0.68771 0.0
C618 C 0.83768 0.80562 0.67412 0.0
C619 C 0.8236 0.81187 0.70301 0.0
C620 C 0.8555 0.82351 0.65811 0.0
C621 C 0.86008 0.8482 0.67062 0.0
C622 C 0.84578 0.85452 0.69918 0.0
H623 H 0.99804 0.9553 0.62749 0.0
H624 H 0.96356 0.92616 0.65217 0.0
C625 C 0.82791 0.83669 0.71513 0.0
C626 C 0.87953 0.86743 0.65406 0.0
H627 H 0.94483 0.88064 0.63148 0.0
C628 C 0.87077 0.88952 0.64294 0.0
C629 C 0.90681 0.86454 0.6501 0.0
C630 C 0.91831 0.84217 0.6631 0.0
C631 C 0.88824 0.90845 0.62803 0.0
C632 C 0.91537 0.90529 0.62337 0.0
C633 C 0.9241 0.88324 0.63461 0.0
C634 C 0.93543 0.92486 0.60848 0.0
C635 C 0.87755 0.93199 0.61837 0.0
C636 C 0.93138 0.93456 0.57559 0.0
C637 C 0.9512 0.95168 0.56137 0.0
C638 C 0.97579 0.95936 0.57947 0.0
C639 C 0.97947 0.95 0.61262 0.0
C640 C 0.95969 0.93311 0.62682 0.0
H641 H 0.85908 0.93435 0.63205 0.0
H642 H 0.89268 0.94837 0.62433 0.0
H643 H 0.87249 0.93138 0.59029 0.0
H644 H 0.91324 0.92829 0.56031 0.0
H645 H 0.94772 0.95804 0.53559 0.0
H646 H 0.30094 0.19832 0.12352 0.0
H647 H 0.31246 0.16224 0.09233 0.0
H648 H 0.29341 0.11732 0.18029 0.0
H649 H 0.2824 0.15371 0.21201 0.0
H650 H 0.34158 0.11277 0.15909 0.0
H651 H 0.27233 0.10143 0.04519 0.0
H652 H 0.28701 0.13309 0.04958 0.0
H653 H 0.26612 0.11962 0.08275 0.0
C654 C 0.29892 0.18069 0.13604 0.0
C655 C 0.29101 0.17873 0.17014 0.0
C656 C 0.30507 0.15999 0.11802 0.0
C657 C 0.3031 0.13694 0.13367 0.0
C658 C 0.29465 0.13486 0.1676 0.0
H659 H 0.38851 0.03186 0.01794 0.0
H660 H 0.34995 0.04332 0.04835 0.0
C661 C 0.28859 0.15564 0.18572 0.0
C662 C 0.31391 0.11632 0.11628 0.0
H663 H 0.31771 0.09045 0.03624 0.0
C664 C 0.33575 0.10721 0.1326 0.0
C665 C 0.30605 0.10865 0.08194 0.0
C666 C 0.28137 0.11604 0.06408 0.0
C667 C 0.35189 0.09317 0.11412 0.0
C668 C 0.34605 0.08839 0.07861 0.0
C669 C 0.32244 0.09481 0.06332 0.0
C670 C 0.36691 0.08156 0.05635 0.0
C671 C 0.37644 0.08537 0.13189 0.0
C672 C 0.38842 0.09959 0.04984 0.0
C673 C 0.41024 0.09324 0.03257 0.0
C674 C 0.41094 0.06868 0.02166 0.0
C675 C 0.38854 0.05092 0.02624 0.0
C676 C 0.36658 0.05735 0.04361 0.0
H677 H 0.3745 0.08471 0.16025 0.0
H678 H 0.38013 0.06695 0.122 0.0
H679 H 0.39413 0.09891 0.1266 0.0
H680 H 0.38871 0.11846 0.05925 0.0
H681 H 0.42701 0.10741 0.02907 0.0
H682 H 0.80179 0.346 0.18146 0.0
H683 H 0.83121 0.37762 0.15411 0.0
H684 H 0.85401 0.32286 0.08316 0.0
H685 H 0.82554 0.29048 0.11252 0.0
H686 H 0.89595 0.34758 0.10903 0.0
H687 H 0.83158 0.41666 0.07137 0.0
H688 H 0.82663 0.41082 0.1159 0.0
H689 H 0.81765 0.38623 0.08399 0.0
C690 C 0.81258 0.3407 0.15952 0.0
C691 C 0.81161 0.31581 0.14919 0.0
C692 C 0.8292 0.35893 0.14354 0.0
C693 C 0.84454 0.35281 0.11608 0.0
C694 C 0.84227 0.32805 0.10423 0.0
H695 H 0.9507 0.47319 0.03295 0.0
H696 H 0.91277 0.44286 0.04395 0.0
C697 C 0.82599 0.30959 0.12085 0.0
C698 C 0.86555 0.37172 0.1037 0.0
H699 H 0.87819 0.43322 0.08807 0.0
C700 C 0.89194 0.36616 0.10364 0.0
C701 C 0.86045 0.39591 0.09598 0.0
C702 C 0.83245 0.40257 0.09143 0.0
C703 C 0.91345 0.38439 0.09792 0.0
C704 C 0.90859 0.40914 0.09414 0.0
C705 C 0.88208 0.41443 0.09228 0.0
C706 C 0.9306 0.42958 0.09034 0.0
C707 C 0.94103 0.37673 0.09559 0.0
C708 C 0.95285 0.43318 0.11377 0.0
C709 C 0.97512 0.45024 0.10707 0.0
C710 C 0.975 0.46453 0.0775 0.0
C711 C 0.95157 0.46259 0.0561 0.0
C712 C 0.92976 0.4451 0.06223 0.0
H713 H 0.93993 0.35695 0.08762 0.0
H714 H 0.95311 0.38798 0.07687 0.0
H715 H 0.95156 0.37916 0.12129 0.0
H716 H 0.95345 0.4221 0.13646 0.0
H717 H 0.99279 0.45146 0.12412 0.0
H718 H 0.77699 0.85711 0.18067 0.0
H719 H 0.76032 0.89408 0.15759 0.0
H720 H 0.68044 0.85437 0.14842 0.0
H721 H 0.69676 0.81766 0.17157 0.0
H722 H 0.70973 0.88912 0.0868 0.0
H723 H 0.69864 0.92817 0.21836 0.0
H724 H 0.72718 0.91316 0.20746 0.0
H725 H 0.69532 0.89503 0.21253 0.0
C726 C 0.75595 0.85629 0.17329 0.0
C727 C 0.73803 0.83473 0.17792 0.0
C728 C 0.74655 0.8773 0.16019 0.0
C729 C 0.71927 0.87671 0.15151 0.0
C730 C 0.7016 0.85496 0.15505 0.0
H731 H 0.58341 0.92417 0.07989 0.0
H732 H 0.62526 0.90724 0.09043 0.0
C733 C 0.71089 0.8341 0.16828 0.0
C734 C 0.70815 0.89887 0.14057 0.0
H735 H 0.67099 0.9408 0.17321 0.0
C736 C 0.70199 0.90112 0.10547 0.0
C737 C 0.69845 0.9145 0.1651 0.0
C738 C 0.70525 0.91283 0.20305 0.0
C739 C 0.68408 0.91711 0.09447 0.0
C740 C 0.67173 0.93053 0.11939 0.0
C741 C 0.68023 0.93024 0.15418 0.0
C742 C 0.64725 0.9416 0.1109 0.0
C743 C 0.67723 0.91809 0.05651 0.0
C744 C 0.64548 0.96625 0.1201 0.0
C745 C 0.62143 0.97588 0.11455 0.0
C746 C 0.59881 0.96092 0.09983 0.0
C747 C 0.60057 0.93616 0.09105 0.0
C748 C 0.62456 0.92656 0.09665 0.0
H749 H 0.69485 0.91567 0.04114 0.0
H750 H 0.66138 0.90255 0.04937 0.0
H751 H 0.66996 0.93576 0.04966 0.0
H752 H 0.66268 0.978 0.13163 0.0
H753 H 0.62068 0.9951 0.12138 0.0
H754 H 0.23822 0.71363 0.15323 0.0
H755 H 0.20765 0.68449 0.11691 0.0
H756 H 0.1456 0.68826 0.18945 0.0
H757 H 0.17641 0.7166 0.2265 0.0
H758 H 0.14918 0.64221 0.17287 0.0
H759 H 0.14671 0.69419 0.05219 0.0
H760 H 0.17993 0.68948 0.06612 0.0
H761 H 0.1613 0.70822 0.09221 0.0
C762 C 0.21791 0.70856 0.16114 0.0
C763 C 0.20966 0.71748 0.19266 0.0
C764 C 0.2004 0.69196 0.14026 0.0
C765 C 0.17413 0.68441 0.15012 0.0
C766 C 0.16574 0.6938 0.18124 0.0
H767 H 0.03948 0.60984 0.02963 0.0
H768 H 0.07469 0.63899 0.05821 0.0
C769 C 0.18334 0.71005 0.20237 0.0
C770 C 0.15581 0.66562 0.12932 0.0
H771 H 0.12649 0.65229 0.04911 0.0
C772 C 0.14417 0.64447 0.14582 0.0
C773 C 0.14915 0.66859 0.09404 0.0
C774 C 0.15971 0.69145 0.07517 0.0
C775 C 0.12583 0.62643 0.1283 0.0
C776 C 0.11963 0.6291 0.09284 0.0
C777 C 0.13148 0.65011 0.07618 0.0
C778 C 0.09945 0.61123 0.07326 0.0
C779 C 0.11255 0.6052 0.14841 0.0
C780 C 0.10192 0.58592 0.07133 0.0
C781 C 0.08153 0.56907 0.05542 0.0
C782 C 0.05855 0.57731 0.04054 0.0
C783 C 0.05682 0.60281 0.04097 0.0
C784 C 0.077 0.61955 0.05726 0.0
H785 H 0.11403 0.60939 0.17659 0.0
H786 H 0.09106 0.60061 0.14037 0.0
H787 H 0.12262 0.58865 0.14367 0.0
H788 H 0.11943 0.57913 0.08257 0.0
H789 H 0.08367 0.54959 0.05499 0.0
H790 H 0.3021 0.80108 0.86826 0.0
H791 H 0.33498 0.82766 0.905 0.0
H792 H 0.37437 0.85624 0.81502 0.0
H793 H 0.34178 0.82963 0.778 0.0
H794 H 0.40935 0.84096 0.86634 0.0
H795 H 0.34191 0.9031 0.92101 0.0
H796 H 0.3314 0.87059 0.92507 0.0
H797 H 0.33257 0.88368 0.88309 0.0
C798 C 0.31758 0.81318 0.85617 0.0
C799 C 0.31917 0.81321 0.82005 0.0
C800 C 0.33633 0.82844 0.87729 0.0
C801 C 0.35699 0.84411 0.86277 0.0
C802 C 0.35855 0.84433 0.82678 0.0
H803 H 0.4674 0.9674 0.93889 0.0
H804 H 0.43126 0.93836 0.91197 0.0
C805 C 0.3398 0.82913 0.80563 0.0
C806 C 0.37759 0.85971 0.88495 0.0
H807 H 0.38685 0.90861 0.94259 0.0
C808 C 0.40443 0.85567 0.88315 0.0
C809 C 0.37111 0.87893 0.9068 0.0
C810 C 0.34274 0.88456 0.90905 0.0
C811 C 0.42501 0.87051 0.90227 0.0
C812 C 0.41855 0.88978 0.92401 0.0
C813 C 0.39169 0.89366 0.92614 0.0
C814 C 0.43966 0.90739 0.94234 0.0
C815 C 0.45361 0.86601 0.89822 0.0
C816 C 0.45615 0.89973 0.96888 0.0
C817 C 0.47697 0.91637 0.98448 0.0
C818 C 0.48167 0.94092 0.97366 0.0
C819 C 0.4646 0.94859 0.94767 0.0
C820 C 0.4438 0.93204 0.9323 0.0
H821 H 0.45559 0.85305 0.87631 0.0
H822 H 0.46662 0.88367 0.89416 0.0
H823 H 0.46106 0.85797 0.92213 0.0
H824 H 0.45304 0.88084 0.97732 0.0
H825 H 0.48957 0.90992 0.00461 0.0
H826 H 0.23038 0.31649 0.76898 0.0
H827 H 0.20656 0.34962 0.79204 0.0
H828 H 0.19459 0.31009 0.88613 0.0
H829 H 0.21811 0.27749 0.86357 0.0
H830 H 0.15444 0.34867 0.81514 0.0
H831 H 0.22716 0.37799 0.92298 0.0
H832 H 0.23485 0.35863 0.88745 0.0
H833 H 0.21627 0.34537 0.92269 0.0
C834 C 0.22258 0.31492 0.7945 0.0
C835 C 0.22623 0.29433 0.8144 0.0
C836 C 0.20903 0.3339 0.80776 0.0
C837 C 0.19918 0.33274 0.84128 0.0
C838 C 0.20251 0.31192 0.86068 0.0
H839 H 0.07147 0.39375 0.93745 0.0
H840 H 0.10125 0.37042 0.90638 0.0
C841 C 0.21588 0.29311 0.84753 0.0
C842 C 0.18474 0.35262 0.85617 0.0
H843 H 0.18306 0.38962 0.9283 0.0
C844 C 0.16094 0.35787 0.83964 0.0
C845 C 0.19323 0.3651 0.88795 0.0
C846 C 0.21943 0.3617 0.90613 0.0
C847 C 0.14483 0.37409 0.85477 0.0
C848 C 0.15237 0.38518 0.88774 0.0
C849 C 0.17691 0.38098 0.90335 0.0
C850 C 0.13439 0.39996 0.90713 0.0
C851 C 0.11975 0.37908 0.83524 0.0
C852 C 0.14318 0.42428 0.91942 0.0
C853 C 0.12605 0.43782 0.9377 0.0
C854 C 0.09979 0.42726 0.94436 0.0
C855 C 0.09138 0.40274 0.93264 0.0
C856 C 0.10841 0.38932 0.91449 0.0
H857 H 0.12139 0.37629 0.80702 0.0
H858 H 0.10255 0.366 0.84339 0.0
H859 H 0.11545 0.3982 0.84038 0.0
H860 H 0.16322 0.43291 0.91452 0.0
H861 H 0.13331 0.45657 0.94638 0.0
H862 H 0.68144 0.22016 0.85467 0.0
H863 H 0.65668 0.18745 0.88721 0.0
H864 H 0.72897 0.15444 0.90471 0.0
H865 H 0.75383 0.18712 0.8722 0.0
H866 H 0.68751 0.1236 0.86994 0.0
H867 H 0.65165 0.16502 0.98783 0.0
H868 H 0.64604 0.18228 0.95002 0.0
H869 H 0.67975 0.17971 0.96498 0.0
C870 C 0.6922 0.20639 0.86644 0.0
C871 C 0.71944 0.20599 0.86076 0.0
C872 C 0.67808 0.18778 0.88516 0.0
C873 C 0.69106 0.16861 0.89847 0.0
C874 C 0.71867 0.16916 0.89479 0.0
H875 H 0.58745 0.04811 0.99044 0.0
H876 H 0.62793 0.07648 0.98078 0.0
C877 C 0.73282 0.18783 0.87623 0.0
C878 C 0.675 0.1462 0.91088 0.0
H879 H 0.62619 0.12685 0.96615 0.0
C880 C 0.67452 0.12414 0.89146 0.0
C881 C 0.65831 0.14689 0.93913 0.0
C882 C 0.65911 0.16969 0.96193 0.0
C883 C 0.65644 0.1032 0.89813 0.0
C884 C 0.63829 0.10453 0.92463 0.0
C885 C 0.64002 0.12601 0.94559 0.0
C886 C 0.61572 0.08485 0.92888 0.0
C887 C 0.65636 0.0801 0.87611 0.0
C888 C 0.59572 0.07987 0.90258 0.0
C889 C 0.57252 0.0637 0.90793 0.0
C890 C 0.56892 0.05227 0.93976 0.0
C891 C 0.58962 0.05643 0.96549 0.0
C892 C 0.61274 0.07275 0.96016 0.0
H893 H 0.67605 0.07945 0.8645 0.0
H894 H 0.65139 0.06326 0.89132 0.0
H895 H 0.64101 0.07986 0.85479 0.0
H896 H 0.59751 0.08937 0.87843 0.0
H897 H 0.55697 0.06097 0.88766 0.0
H898 H 0.81153 0.7072 0.7645 0.0
H899 H 0.83723 0.67537 0.78783 0.0
H900 H 0.84172 0.71162 0.88793 0.0
H901 H 0.81666 0.74329 0.86489 0.0
H902 H 0.89156 0.68302 0.82691 0.0
H903 H 0.80885 0.63767 0.90296 0.0
H904 H 0.80311 0.65668 0.86664 0.0
H905 H 0.81514 0.67079 0.90747 0.0
C906 C 0.81815 0.70841 0.79136 0.0
C907 C 0.81204 0.72784 0.81275 0.0
C908 C 0.83282 0.6902 0.80473 0.0
C909 C 0.84127 0.69093 0.83981 0.0
C910 C 0.83526 0.71043 0.86094 0.0
H911 H 0.95905 0.61631 0.9555 0.0
H912 H 0.93327 0.64668 0.929 0.0
C913 C 0.82092 0.7286 0.84762 0.0
C914 C 0.8563 0.67154 0.85488 0.0
H915 H 0.85194 0.62606 0.91448 0.0
C916 C 0.88285 0.67046 0.84588 0.0
C917 C 0.84501 0.65506 0.87964 0.0
C918 C 0.81639 0.65485 0.88967 0.0
C919 C 0.89848 0.65376 0.86146 0.0
C920 C 0.88741 0.63776 0.88698 0.0
C921 C 0.86064 0.63847 0.89531 0.0
C922 C 0.90289 0.61951 0.90435 0.0
C923 C 0.92666 0.65317 0.85017 0.0
C924 C 0.89409 0.59408 0.90044 0.0
C925 C 0.90875 0.57671 0.91556 0.0
C926 C 0.93258 0.58423 0.93541 0.0
C927 C 0.9409 0.60977 0.94036 0.0
C928 C 0.92627 0.62718 0.92494 0.0
H929 H 0.93014 0.66246 0.82529 0.0
H930 H 0.94098 0.66289 0.86997 0.0
H931 H 0.93105 0.63385 0.84745 0.0
H932 H 0.87607 0.58759 0.88499 0.0
H933 H 0.90153 0.55728 0.91123 0.0
H934 H 0.19614 0.26189 0.15067 0.0
H935 H 0.17068 0.29294 0.12595 0.0
H936 H 0.20827 0.34692 0.20143 0.0
H937 H 0.23431 0.31594 0.22562 0.0
H938 H 0.13424 0.32118 0.15375 0.0
H939 H 0.22319 0.38187 0.11095 0.0
H940 H 0.22487 0.35078 0.12482 0.0
H941 H 0.22411 0.37541 0.15607 0.0
C942 C 0.19882 0.28033 0.16223 0.0
C943 C 0.21693 0.28626 0.19059 0.0
C944 C 0.18422 0.29811 0.14802 0.0
C945 C 0.18762 0.32249 0.16142 0.0
C946 C 0.20541 0.32839 0.1902 0.0
H947 H 0.1232 0.45714 0.10449 0.0
H948 H 0.14768 0.42564 0.12912 0.0
C949 C 0.21997 0.31051 0.20454 0.0
C950 C 0.17274 0.34157 0.14489 0.0
H951 H 0.18139 0.3967 0.10372 0.0
C952 C 0.14458 0.33766 0.14275 0.0
C953 C 0.18607 0.36314 0.13034 0.0
C954 C 0.21622 0.36805 0.1303 0.0
C955 C 0.12949 0.35483 0.12731 0.0
C956 C 0.14281 0.3764 0.11266 0.0
C957 C 0.171 0.38025 0.11475 0.0
C958 C 0.12801 0.39564 0.09626 0.0
C959 C 0.09936 0.35001 0.12786 0.0
C960 C 0.10899 0.3897 0.06874 0.0
C961 C 0.09472 0.40783 0.05451 0.0
C962 C 0.09925 0.43246 0.06722 0.0
C963 C 0.11895 0.43845 0.09395 0.0
C964 C 0.13307 0.42036 0.10818 0.0
H965 H 0.0926 0.33671 0.14796 0.0
H966 H 0.09072 0.36738 0.13263 0.0
H967 H 0.09124 0.34194 0.10253 0.0
H968 H 0.10512 0.37099 0.05822 0.0
H969 H 0.07995 0.40249 0.03378 0.0
H970 H 0.23653 0.69828 0.87592 0.0
H971 H 0.20846 0.66166 0.8961 0.0
H972 H 0.13833 0.68795 0.8512 0.0
H973 H 0.16612 0.72453 0.83105 0.0
H974 H 0.15388 0.65715 0.93547 0.0
H975 H 0.1511 0.61833 0.8015 0.0
H976 H 0.17743 0.64176 0.81817 0.0
H977 H 0.14508 0.64995 0.80632 0.0
C978 C 0.21503 0.69657 0.87127 0.0
C979 C 0.20342 0.71406 0.85178 0.0
C980 C 0.19911 0.67566 0.88267 0.0
C981 C 0.17152 0.67212 0.8746 0.0
C982 C 0.15968 0.69042 0.85735 0.0
H983 H 0.03174 0.57055 0.88137 0.0
H984 H 0.06969 0.5998 0.86524 0.0
C985 C 0.17552 0.7113 0.84603 0.0
C986 C 0.15526 0.64846 0.88139 0.0
H987 H 0.12141 0.59723 0.84015 0.0
C988 C 0.14704 0.64379 0.91488 0.0
C989 C 0.14658 0.63125 0.85427 0.0
C990 C 0.15558 0.63536 0.81801 0.0
C991 C 0.12911 0.62274 0.92169 0.0
C992 C 0.11974 0.60586 0.89427 0.0
C993 C 0.12878 0.61017 0.86103 0.0
C994 C 0.09846 0.5851 0.89905 0.0
C995 C 0.11926 0.61939 0.95774 0.0
C996 C 0.10253 0.56622 0.92169 0.0
C997 C 0.08087 0.54941 0.93099 0.0
C998 C 0.05483 0.55131 0.91775 0.0
C999 C 0.05143 0.56869 0.89233 0.0
C1000 C 0.0731 0.58548 0.88312 0.0
H1001 H 0.12475 0.6363 0.9743 0.0
H1002 H 0.09716 0.61447 0.95711 0.0
H1003 H 0.1283 0.60409 0.96988 0.0
H1004 H 0.12216 0.56534 0.93359 0.0
H1005 H 0.08432 0.53608 0.95033 0.0
H1006 H 0.3336 0.19584 0.84253 0.0
H1007 H 0.34697 0.16043 0.87278 0.0
H1008 H 0.26474 0.12626 0.87072 0.0
H1009 H 0.25105 0.16199 0.84051 0.0
H1010 H 0.32063 0.1348 0.93977 0.0
H1011 H 0.31599 0.08029 0.81613 0.0
H1012 H 0.32069 0.11357 0.81475 0.0
H1013 H 0.28949 0.09766 0.82792 0.0
C1014 C 0.31834 0.18092 0.84883 0.0
C1015 C 0.2914 0.18141 0.83909 0.0
C1016 C 0.32594 0.16085 0.86623 0.0
C1017 C 0.30675 0.14097 0.87389 0.0
C1018 C 0.27968 0.14161 0.86505 0.0
H1019 H 0.40384 0.02314 0.90768 0.0
H1020 H 0.36076 0.03925 0.90303 0.0
C1021 C 0.27199 0.16188 0.84779 0.0
C1022 C 0.31619 0.11896 0.8883 0.0
H1023 H 0.3467 0.07099 0.85972 0.0
C1024 C 0.32556 0.12019 0.92276 0.0
C1025 C 0.32199 0.09976 0.86612 0.0
C1026 C 0.31149 0.09749 0.82914 0.0
C1027 C 0.34326 0.10425 0.93459 0.0
C1028 C 0.35226 0.08744 0.91092 0.0
C1029 C 0.34013 0.08417 0.87772 0.0
C1030 C 0.37734 0.07682 0.91758 0.0
C1031 C 0.35334 0.10656 0.97169 0.0
C1032 C 0.40095 0.09269 0.92662 0.0
C1033 C 0.42538 0.08358 0.92937 0.0
C1034 C 0.42678 0.05853 0.92226 0.0
C1035 C 0.40328 0.04263 0.91279 0.0
C1036 C 0.37868 0.05171 0.91058 0.0
H1037 H 0.33792 0.11253 0.98844 0.0
H1038 H 0.359 0.08878 0.98077 0.0
H1039 H 0.37113 0.12087 0.97441 0.0
H1040 H 0.40065 0.11233 0.93061 0.0
H1041 H 0.44325 0.09619 0.93669 0.0
H1042 H 0.80094 0.29162 0.86404 0.0
H1043 H 0.83147 0.32058 0.90095 0.0
H1044 H 0.88157 0.33774 0.81501 0.0
H1045 H 0.85161 0.30871 0.7782 0.0
H1046 H 0.91037 0.33053 0.87492 0.0
H1047 H 0.83701 0.3961 0.89747 0.0
H1048 H 0.8265 0.36472 0.90893 0.0
H1049 H 0.8315 0.3719 0.86457 0.0
C1050 C 0.81858 0.30139 0.85307 0.0
C1051 C 0.82375 0.29788 0.81809 0.0
C1052 C 0.83587 0.31811 0.87414 0.0
C1053 C 0.85852 0.33165 0.86056 0.0
C1054 C 0.86412 0.3276 0.82598 0.0
H1055 H 0.9607 0.46511 0.92456 0.0
H1056 H 0.92542 0.43386 0.89951 0.0
C1057 C 0.84693 0.31095 0.80496 0.0
C1058 C 0.8766 0.35011 0.88202 0.0
H1059 H 0.8798 0.40572 0.9252 0.0
C1060 C 0.90367 0.34689 0.88612 0.0
C1061 C 0.86783 0.37159 0.89622 0.0
C1062 C 0.83919 0.37651 0.89143 0.0
C1063 C 0.9223 0.36466 0.90369 0.0
C1064 C 0.91352 0.38605 0.91815 0.0
C1065 C 0.8864 0.38921 0.91432 0.0
C1066 C 0.93258 0.40579 0.93589 0.0
C1067 C 0.9514 0.36075 0.90554 0.0
C1068 C 0.94756 0.40066 0.96541 0.0
C1069 C 0.96784 0.41834 0.97953 0.0
C1070 C 0.97332 0.44162 0.96463 0.0
C1071 C 0.9571 0.44729 0.93645 0.0
C1072 C 0.93692 0.42947 0.92214 0.0
H1073 H 0.95568 0.34654 0.88638 0.0
H1074 H 0.96459 0.37823 0.90105 0.0
H1075 H 0.9566 0.35441 0.93157 0.0
H1076 H 0.94406 0.38272 0.97696 0.0
H1077 H 0.97959 0.41358 1.00173 0.0
H1078 H 0.76287 0.83455 0.87595 0.0
H1079 H 0.74172 0.86341 0.91149 0.0
H1080 H 0.68736 0.87375 0.82597 0.0
H1081 H 0.70722 0.84346 0.7913 0.0
H1082 H 0.73162 0.90958 0.91173 0.0
H1083 H 0.63597 0.84676 0.89489 0.0
H1084 H 0.66688 0.83868 0.87929 0.0
H1085 H 0.64774 0.8584 0.85474 0.0
C1086 C 0.74653 0.84319 0.86479 0.0
C1087 C 0.73611 0.83654 0.83141 0.0
C1088 C 0.73458 0.85972 0.88497 0.0
C1089 C 0.71246 0.87012 0.87166 0.0
C1090 C 0.70377 0.86521 0.83711 0.0
H1091 H 0.63116 0.97862 0.97802 0.0
H1092 H 0.66474 0.95961 0.9469 0.0
C1093 C 0.71513 0.84806 0.81732 0.0
C1094 C 0.697 0.88407 0.89482 0.0
H1095 H 0.63433 0.88489 0.92369 0.0
C1096 C 0.71036 0.90416 0.91459 0.0
C1097 C 0.66941 0.87658 0.89901 0.0
C1098 C 0.65423 0.85378 0.88115 0.0
C1099 C 0.69678 0.91705 0.93844 0.0
C1100 C 0.66896 0.91011 0.94155 0.0
C1101 C 0.65569 0.89017 0.92147 0.0
C1102 C 0.65269 0.9228 0.96531 0.0
C1103 C 0.71253 0.93746 0.96046 0.0
C1104 C 0.63497 0.90857 0.98631 0.0
C1105 C 0.61542 0.91925 1.00324 0.0
C1106 C 0.61351 0.94443 0.99988 0.0
C1107 C 0.63253 0.95917 0.98126 0.0
C1108 C 0.6518 0.94834 0.9636 0.0
H1109 H 0.73386 0.93454 0.96388 0.0
H1110 H 0.71201 0.9553 0.94752 0.0
H1111 H 0.70411 0.93889 0.98627 0.0
H1112 H 0.63541 0.88887 0.98827 0.0
H1113 H 0.60104 0.90757 0.01769 0.0
H1114 H 0.80948 0.73612 0.1439 0.0
H1115 H 0.83347 0.70425 0.12033 0.0
H1116 H 0.83415 0.66986 0.21907 0.0
H1117 H 0.81002 0.70245 0.24327 0.0
H1118 H 0.88327 0.67212 0.18874 0.0
H1119 H 0.8043 0.63391 0.09262 0.0
H1120 H 0.81253 0.66664 0.08874 0.0
H1121 H 0.79804 0.65448 0.12749 0.0
C1122 C 0.81454 0.72175 0.16077 0.0
C1123 C 0.80758 0.72183 0.19552 0.0
C1124 C 0.82818 0.70333 0.14705 0.0
C1125 C 0.8352 0.68411 0.16746 0.0
C1126 C 0.82874 0.68427 0.20252 0.0
H1127 H 0.90159 0.56104 0.06096 0.0
H1128 H 0.87247 0.58444 0.09453 0.0
C1129 C 0.81493 0.70289 0.2164 0.0
C1130 C 0.85003 0.66469 0.1519 0.0
H1131 H 0.84888 0.62514 0.08185 0.0
C1132 C 0.87554 0.66161 0.16565 0.0
C1133 C 0.84002 0.65046 0.122 0.0
C1134 C 0.8121 0.65132 0.10707 0.0
C1135 C 0.89169 0.64588 0.14947 0.0
C1136 C 0.88245 0.63308 0.11812 0.0
C1137 C 0.85636 0.63512 0.10544 0.0
C1138 C 0.89995 0.6185 0.09744 0.0
C1139 C 0.91858 0.64317 0.16627 0.0
C1140 C 0.92486 0.62977 0.08686 0.0
C1141 C 0.94148 0.61646 0.06777 0.0
C1142 C 0.93368 0.59141 0.05818 0.0
C1143 C 0.90837 0.58022 0.06787 0.0
C1144 C 0.89169 0.59363 0.08718 0.0
H1145 H 0.91881 0.64685 0.19453 0.0
H1146 H 0.92402 0.62438 0.16159 0.0
H1147 H 0.93412 0.65683 0.15549 0.0
H1148 H 0.93152 0.64906 0.09323 0.0
H1149 H 0.96061 0.62594 0.06059 0.0
H1150 H 0.27764 0.82757 0.13948 0.0
H1151 H 0.30168 0.86128 0.10795 0.0
H1152 H 0.37551 0.831 0.12675 0.0
H1153 H 0.35158 0.79725 0.15826 0.0
H1154 H 0.34145 0.89326 0.14378 0.0
H1155 H 0.38114 0.85414 0.0268 0.0
H1156 H 0.35319 0.83834 0.04881 0.0
H1157 H 0.38696 0.83699 0.06463 0.0
C1158 C 0.29885 0.82768 0.13591 0.0
C1159 C 0.31287 0.80998 0.15147 0.0
C1160 C 0.31252 0.84694 0.11793 0.0
C1161 C 0.34031 0.84855 0.11493 0.0
C1162 C 0.35398 0.82985 0.12828 0.0
H1163 H 0.47035 0.96053 0.12924 0.0
H1164 H 0.43039 0.93124 0.13785 0.0
C1165 C 0.34033 0.81064 0.1464 0.0
C1166 C 0.35565 0.87153 0.10311 0.0
H1167 H 0.40466 0.89294 0.04923 0.0
C1168 C 0.35487 0.89335 0.12262 0.0
C1169 C 0.37289 0.87164 0.07534 0.0
C1170 C 0.37344 0.84907 0.05245 0.0
C1171 C 0.37221 0.91489 0.11652 0.0
C1172 C 0.39091 0.91442 0.09051 0.0
C1173 C 0.39044 0.89313 0.06945 0.0
C1174 C 0.41277 0.93488 0.08682 0.0
C1175 C 0.37091 0.93773 0.13859 0.0
C1176 C 0.41585 0.94685 0.05544 0.0
C1177 C 0.43862 0.96367 0.05046 0.0
C1178 C 0.45892 0.96847 0.07664 0.0
C1179 C 0.45511 0.9573 0.10861 0.0
C1180 C 0.43223 0.94062 0.11362 0.0
H1181 H 0.35087 0.93758 0.14956 0.0
H1182 H 0.38592 0.93841 0.16038 0.0
H1183 H 0.37547 0.95475 0.12362 0.0
H1184 H 0.40108 0.94251 0.03442 0.0
H1185 H 0.44092 0.97181 0.02541 0.0
H1186 H 0.72606 0.22099 0.13927 0.0
H1187 H 0.69203 0.19511 0.10325 0.0
H1188 H 0.65893 0.16117 0.19394 0.0
H1189 H 0.69259 0.18707 0.23025 0.0
H1190 H 0.67919 0.14374 0.09563 0.0
H1191 H 0.59437 0.1865 0.14617 0.0
H1192 H 0.6288 0.20012 0.15345 0.0
H1193 H 0.61488 0.17512 0.17937 0.0
C1194 C 0.71165 0.20795 0.15165 0.0
C1195 C 0.71202 0.20632 0.1878 0.0
C1196 C 0.69219 0.19316 0.13094 0.0
C1197 C 0.67262 0.17655 0.14593 0.0
C1198 C 0.67347 0.17426 0.18186 0.0
H1199 H 0.56491 0.05171 0.07035 0.0
H1200 H 0.60213 0.0811 0.09411 0.0
C1201 C 0.69289 0.18902 0.20259 0.0
C1202 C 0.65114 0.16174 0.12416 0.0
H1203 H 0.58313 0.14895 0.11302 0.0
C1204 C 0.6582 0.14501 0.09923 0.0
C1205 C 0.62375 0.1638 0.1283 0.0
C1206 C 0.61494 0.18253 0.15301 0.0
C1207 C 0.63853 0.12948 0.07952 0.0
C1208 C 0.61117 0.13053 0.08521 0.0
C1209 C 0.60413 0.14801 0.10897 0.0
C1210 C 0.58958 0.11263 0.06845 0.0
C1211 C 0.64707 0.11198 0.05284 0.0
C1212 C 0.57004 0.12063 0.04624 0.0
C1213 C 0.54865 0.10381 0.03245 0.0
C1214 C 0.54622 0.07877 0.04116 0.0
C1215 C 0.56603 0.07086 0.06321 0.0
C1216 C 0.58748 0.0876 0.07663 0.0
H1217 H 0.66799 0.1177 0.04541 0.0
H1218 H 0.64589 0.09321 0.06351 0.0
H1219 H 0.63362 0.11089 0.02937 0.0
H1220 H 0.57124 0.13992 0.03978 0.0
H1221 H 0.53379 0.11049 0.01549 0.0
H1222 H 0.72686 0.67389 0.77638 0.0
H1223 H 0.69654 0.64265 0.80444 0.0
H1224 H 0.66057 0.69993 0.85574 0.0
H1225 H 0.69144 0.73142 0.82838 0.0
H1226 H 0.66646 0.66378 0.89962 0.0
H1227 H 0.61978 0.61989 0.77843 0.0
H1228 H 0.65535 0.6199 0.78097 0.0
H1229 H 0.64177 0.64875 0.77919 0.0
C1230 C 0.71247 0.67999 0.7935 0.0
C1231 C 0.71165 0.70544 0.79965 0.0
C1232 C 0.69489 0.66195 0.80949 0.0
C1233 C 0.67557 0.66863 0.83185 0.0
C1234 C 0.67503 0.69403 0.83855 0.0
H1235 H 0.5316 0.57489 0.88747 0.0
H1236 H 0.5664 0.60321 0.86254 0.0
C1237 C 0.69275 0.71213 0.82271 0.0
C1238 C 0.65611 0.64925 0.84821 0.0
H1239 H 0.60914 0.59879 0.82977 0.0
C1240 C 0.65392 0.6496 0.88426 0.0
C1241 C 0.6393 0.63071 0.82851 0.0
C1242 C 0.63891 0.62987 0.78964 0.0
C1243 C 0.63576 0.63216 0.90093 0.0
C1244 C 0.61946 0.61321 0.88126 0.0
C1245 C 0.62167 0.61292 0.84521 0.0
C1246 C 0.59854 0.59475 0.89689 0.0
C1247 C 0.6336 0.63483 0.93941 0.0
C1248 C 0.60457 0.57967 0.92445 0.0
C1249 C 0.58432 0.56324 0.9392 0.0
C1250 C 0.55749 0.56121 0.92657 0.0
C1251 C 0.55184 0.57571 0.89822 0.0
C1252 C 0.57191 0.5921 0.88375 0.0
H1253 H 0.64183 0.65369 0.94918 0.0
H1254 H 0.61247 0.63086 0.94685 0.0
H1255 H 0.64525 0.62154 0.95235 0.0
H1256 H 0.62495 0.58061 0.93471 0.0
H1257 H 0.58962 0.55252 0.96093 0.0
H1258 H 0.34668 0.70873 0.75347 0.0
H1259 H 0.36835 0.68205 0.79196 0.0
H1260 H 0.31795 0.6997 0.87357 0.0
H1261 H 0.29581 0.72634 0.83451 0.0
H1262 H 0.39768 0.69264 0.84986 0.0
H1263 H 0.30941 0.62549 0.87887 0.0
H1264 H 0.30843 0.64747 0.84505 0.0
H1265 H 0.30617 0.65711 0.88926 0.0
C1266 C 0.33994 0.70677 0.77952 0.0
C1267 C 0.31916 0.71943 0.79069 0.0
C1268 C 0.35248 0.69151 0.80164 0.0
C1269 C 0.34476 0.68843 0.83579 0.0
C1270 C 0.32398 0.70115 0.84719 0.0
H1271 H 0.45328 0.61595 0.97616 0.0
H1272 H 0.42707 0.64685 0.95191 0.0
C1273 C 0.31124 0.71641 0.82482 0.0
C1274 C 0.35916 0.67237 0.85906 0.0
H1275 H 0.3505 0.62021 0.90695 0.0
C1276 C 0.38729 0.6769 0.86252 0.0
C1277 C 0.34581 0.65163 0.87553 0.0
C1278 C 0.31583 0.64491 0.87185 0.0
C1279 C 0.40236 0.66114 0.88103 0.0
C1280 C 0.38904 0.64038 0.8975 0.0
C1281 C 0.36086 0.63616 0.8947 0.0
C1282 C 0.40393 0.62158 0.91482 0.0
C1283 C 0.43251 0.66629 0.8813 0.0
C1284 C 0.39906 0.59675 0.90342 0.0
C1285 C 0.41375 0.57906 0.91751 0.0
C1286 C 0.43391 0.58555 0.94355 0.0
C1287 C 0.43818 0.61025 0.95594 0.0
C1288 C 0.42328 0.62802 0.94185 0.0
H1289 H 0.43954 0.67923 0.86089 0.0
H1290 H 0.44012 0.67486 0.90655 0.0
H1291 H 0.44144 0.64895 0.87756 0.0
H1292 H 0.38428 0.59109 0.88281 0.0
H1293 H 0.40962 0.56029 0.90726 0.0
H1294 H 0.34498 0.28053 0.833 0.0
H1295 H 0.37774 0.31061 0.86461 0.0
H1296 H 0.35154 0.36929 0.80502 0.0
H1297 H 0.31898 0.33948 0.77292 0.0
H1298 H 0.40757 0.37117 0.8127 0.0
H1299 H 0.35809 0.36021 0.93774 0.0
H1300 H 0.36542 0.3319 0.91817 0.0
H1301 H 0.34157 0.34897 0.89728 0.0
C1302 C 0.34623 0.2998 0.82646 0.0
C1303 C 0.32922 0.30761 0.80058 0.0
C1304 C 0.36484 0.31695 0.8447 0.0
C1305 C 0.3666 0.34212 0.83748 0.0
C1306 C 0.35027 0.34991 0.81104 0.0
H1307 H 0.46514 0.47392 0.9231 0.0
H1308 H 0.43137 0.44541 0.89025 0.0
C1309 C 0.33169 0.33281 0.79275 0.0
C1310 C 0.38551 0.36042 0.85749 0.0
H1311 H 0.40073 0.38461 0.93861 0.0
C1312 C 0.40604 0.37425 0.84018 0.0
C1313 C 0.38323 0.36436 0.89327 0.0
C1314 C 0.36076 0.35076 0.91273 0.0
C1315 C 0.42491 0.39158 0.858 0.0
C1316 C 0.42281 0.39528 0.89383 0.0
C1317 C 0.40214 0.38163 0.91108 0.0
C1318 C 0.4425 0.41264 0.91415 0.0
C1319 C 0.44732 0.40534 0.83861 0.0
C1320 C 0.45932 0.40356 0.9389 0.0
C1321 C 0.47852 0.4197 0.9577 0.0
C1322 C 0.4811 0.44524 0.95215 0.0
C1323 C 0.46375 0.45434 0.92781 0.0
C1324 C 0.44455 0.43812 0.90895 0.0
H1325 H 0.44907 0.39687 0.81267 0.0
H1326 H 0.44343 0.42469 0.83526 0.0
H1327 H 0.46675 0.40583 0.85327 0.0
H1328 H 0.45784 0.38391 0.94329 0.0
H1329 H 0.49148 0.4121 0.97636 0.0
H1330 H 0.75947 0.34426 0.78519 0.0
H1331 H 0.73346 0.36849 0.8213 0.0
H1332 H 0.673 0.3053 0.8278 0.0
H1333 H 0.69948 0.28071 0.79201 0.0
H1334 H 0.6853 0.38224 0.81078 0.0
H1335 H 0.68269 0.32612 0.92781 0.0
H1336 H 0.70434 0.32146 0.89306 0.0
H1337 H 0.66951 0.30874 0.88979 0.0
C1338 C 0.7407 0.3354 0.79445 0.0
C1339 C 0.73163 0.31046 0.78565 0.0
C1340 C 0.72576 0.34936 0.81516 0.0
C1341 C 0.70124 0.33887 0.82792 0.0
C1342 C 0.69207 0.31387 0.81915 0.0
H1343 H 0.57591 0.39474 0.94166 0.0
H1344 H 0.60513 0.37096 0.91027 0.0
C1345 C 0.70716 0.29979 0.79844 0.0
C1346 C 0.68517 0.35449 0.84927 0.0
H1347 H 0.65476 0.35794 0.92633 0.0
C1348 C 0.67881 0.37693 0.83615 0.0
C1349 C 0.6766 0.34786 0.88256 0.0
C1350 C 0.68383 0.32487 0.89934 0.0
C1351 C 0.66376 0.39242 0.85472 0.0
C1352 C 0.65498 0.38567 0.88783 0.0
C1353 C 0.66144 0.36331 0.90107 0.0
C1354 C 0.63779 0.40073 0.90825 0.0
C1355 C 0.65667 0.41554 0.83816 0.0
C1356 C 0.64632 0.42558 0.91849 0.0
C1357 C 0.62945 0.43946 0.93677 0.0
C1358 C 0.60361 0.42882 0.94521 0.0
C1359 C 0.59551 0.40381 0.93554 0.0
C1360 C 0.61231 0.39002 0.91754 0.0
H1361 H 0.65943 0.41518 0.80993 0.0
H1362 H 0.6356 0.41808 0.84274 0.0
H1363 H 0.66986 0.43179 0.84964 0.0
H1364 H 0.66606 0.43428 0.91238 0.0
H1365 H 0.6365 0.45856 0.94385 0.0
H1366 H 0.68686 0.3104 0.25784 0.0
H1367 H 0.66515 0.33699 0.21909 0.0
H1368 H 0.71403 0.31755 0.13681 0.0
H1369 H 0.73612 0.29093 0.17599 0.0
H1370 H 0.70969 0.36658 0.13706 0.0
H1371 H 0.60837 0.3152 0.14528 0.0
H1372 H 0.62256 0.32489 0.18719 0.0
H1373 H 0.63793 0.30321 0.16156 0.0
C1374 C 0.69309 0.31182 0.23152 0.0
C1375 C 0.71339 0.29865 0.22012 0.0
C1376 C 0.68044 0.3269 0.20921 0.0
C1377 C 0.68737 0.32898 0.1746 0.0
C1378 C 0.70811 0.31623 0.16327 0.0
H1379 H 0.58141 0.40306 0.03483 0.0
H1380 H 0.60726 0.37195 0.05928 0.0
C1381 C 0.72091 0.30114 0.18576 0.0
C1382 C 0.67312 0.34475 0.15081 0.0
H1383 H 0.61058 0.35632 0.12383 0.0
C1384 C 0.68803 0.36412 0.1339 0.0
C1385 C 0.64483 0.3414 0.14573 0.0
C1386 C 0.62752 0.31988 0.16059 0.0
C1387 C 0.67548 0.38084 0.11373 0.0
C1388 C 0.6471 0.37859 0.11083 0.0
C1389 C 0.63226 0.35845 0.12627 0.0
C1390 C 0.63244 0.39764 0.09381 0.0
C1391 C 0.69289 0.40072 0.09564 0.0
C1392 C 0.63774 0.42253 0.10483 0.0
C1393 C 0.62312 0.4403 0.09082 0.0
C1394 C 0.60238 0.43376 0.06556 0.0
C1395 C 0.5972 0.40886 0.05414 0.0
C1396 C 0.61198 0.39101 0.06821 0.0
H1397 H 0.71256 0.39482 0.08998 0.0
H1398 H 0.68311 0.40562 0.07111 0.0
H1399 H 0.6968 0.4175 0.11265 0.0
H1400 H 0.65277 0.42823 0.12512 0.0
H1401 H 0.62775 0.45917 0.10056 0.0
H1402 H 0.68443 0.73573 0.19068 0.0
H1403 H 0.65078 0.70587 0.16047 0.0
H1404 H 0.68001 0.64669 0.21595 0.0
H1405 H 0.71369 0.67639 0.24665 0.0
H1406 H 0.66487 0.66693 0.11869 0.0
H1407 H 0.59787 0.6324 0.22239 0.0
H1408 H 0.62028 0.66108 0.22668 0.0
H1409 H 0.63304 0.63213 0.23158 0.0
C1410 C 0.68351 0.71643 0.19692 0.0
C1411 C 0.70188 0.70843 0.22095 0.0
C1412 C 0.66425 0.69942 0.17962 0.0
C1413 C 0.66292 0.67419 0.18618 0.0
C1414 C 0.68053 0.66617 0.21098 0.0
H1415 H 0.57024 0.54458 0.08699 0.0
H1416 H 0.60263 0.5726 0.12257 0.0
C1417 C 0.69981 0.68318 0.22838 0.0
C1418 C 0.64463 0.65616 0.16488 0.0
H1419 H 0.59061 0.61169 0.16789 0.0
C1420 C 0.64857 0.65489 0.12938 0.0
C1421 C 0.62362 0.64042 0.17912 0.0
C1422 C 0.61821 0.64161 0.21699 0.0
C1423 C 0.63198 0.63818 0.10759 0.0
C1424 C 0.61075 0.62267 0.12173 0.0
C1425 C 0.60699 0.62368 0.15729 0.0
C1426 C 0.59168 0.6058 0.0998 0.0
C1427 C 0.63744 0.63706 0.0697 0.0
C1428 C 0.57487 0.61536 0.07547 0.0
C1429 C 0.55639 0.5995 0.05513 0.0
C1430 C 0.55437 0.5738 0.05897 0.0
C1431 C 0.57135 0.56429 0.08338 0.0
C1432 C 0.5898 0.58021 0.10375 0.0
H1433 H 0.65813 0.64549 0.06456 0.0
H1434 H 0.63445 0.61767 0.05958 0.0
H1435 H 0.6233 0.64739 0.05526 0.0
H1436 H 0.57583 0.63513 0.0725 0.0
H1437 H 0.54355 0.60743 0.03667 0.0
H1438 H 0.33409 0.735 0.22005 0.0
H1439 H 0.36096 0.71109 0.18364 0.0
H1440 H 0.30115 0.64732 0.18879 0.0
H1441 H 0.27439 0.671 0.22467 0.0
H1442 H 0.38293 0.66776 0.19852 0.0
H1443 H 0.31182 0.64999 0.08566 0.0
H1444 H 0.30851 0.67307 0.11863 0.0
H1445 H 0.29737 0.64099 0.1257 0.0
C1446 C 0.32661 0.71595 0.21315 0.0
C1447 C 0.30203 0.70497 0.22532 0.0
C1448 C 0.34201 0.70223 0.19236 0.0
C1449 C 0.33303 0.67735 0.18282 0.0
C1450 C 0.30843 0.66652 0.19495 0.0
H1451 H 0.40031 0.56004 0.06701 0.0
H1452 H 0.37118 0.58402 0.09987 0.0
C1453 C 0.29318 0.68011 0.21579 0.0
C1454 C 0.34969 0.66233 0.16152 0.0
H1455 H 0.34876 0.62701 0.08716 0.0
C1456 C 0.37547 0.65903 0.17406 0.0
C1457 C 0.34006 0.65056 0.12965 0.0
C1458 C 0.31303 0.65396 0.11389 0.0
C1459 C 0.39155 0.64414 0.15615 0.0
C1460 C 0.38204 0.6325 0.12413 0.0
C1461 C 0.3562 0.63573 0.11163 0.0
C1462 C 0.39906 0.61782 0.10283 0.0
C1463 C 0.41841 0.64053 0.17232 0.0
C1464 C 0.42414 0.62878 0.09246 0.0
C1465 C 0.44075 0.61515 0.07388 0.0
C1466 C 0.43281 0.59005 0.06457 0.0
C1467 C 0.40722 0.57922 0.07377 0.0
C1468 C 0.39054 0.59297 0.09263 0.0
H1469 H 0.41911 0.64385 0.20068 0.0
H1470 H 0.42316 0.62158 0.16696 0.0
H1471 H 0.43419 0.65392 0.16151 0.0
H1472 H 0.43104 0.64802 0.09886 0.0
H1473 H 0.46006 0.62441 0.06696 0.0
H1474 H 0.31119 0.34302 0.22965 0.0
H1475 H 0.3415 0.37436 0.20188 0.0
H1476 H 0.37749 0.31721 0.15023 0.0
H1477 H 0.34646 0.28564 0.17714 0.0
H1478 H 0.39248 0.38703 0.20529 0.0
H1479 H 0.36647 0.35854 0.0695 0.0
H1480 H 0.34734 0.34558 0.10453 0.0
H1481 H 0.37787 0.33404 0.09354 0.0
C1482 C 0.32546 0.33697 0.21232 0.0
C1483 C 0.32612 0.31155 0.20576 0.0
C1484 C 0.34292 0.35507 0.19632 0.0
C1485 C 0.36175 0.3485 0.17316 0.0
C1486 C 0.36278 0.32309 0.16701 0.0
H1487 H 0.50545 0.44543 0.12225 0.0
H1488 H 0.47104 0.41673 0.14717 0.0
C1489 C 0.34509 0.30492 0.18279 0.0
C1490 C 0.38068 0.36827 0.15666 0.0
H1491 H 0.40579 0.38781 0.07957 0.0
C1492 C 0.39517 0.38715 0.17773 0.0
C1493 C 0.38413 0.36916 0.12055 0.0
C1494 C 0.36792 0.35091 0.09567 0.0
C1495 C 0.41318 0.4062 0.16414 0.0
C1496 C 0.41777 0.4063 0.1283 0.0
C1497 C 0.40276 0.38783 0.10704 0.0
C1498 C 0.43871 0.42473 0.11277 0.0
C1499 C 0.42671 0.42633 0.18854 0.0
C1500 C 0.43268 0.43879 0.08412 0.0
C1501 C 0.45273 0.45534 0.06924 0.0
C1502 C 0.47945 0.45821 0.0825 0.0
C1503 C 0.48522 0.44419 0.1113 0.0
C1504 C 0.46534 0.42768 0.12591 0.0
H1505 H 0.41447 0.42866 0.21125 0.0
H1506 H 0.44619 0.42123 0.19819 0.0
H1507 H 0.43041 0.44432 0.17566 0.0
H1508 H 0.41243 0.43688 0.0731 0.0
H1509 H 0.44742 0.46543 0.04687 0.0
H1510 H 0.84102 0.70056 0.67365 0.0
H1511 H 0.85974 0.66607 0.64767 0.0
H1512 H 0.78046 0.6257 0.63208 0.0
H1513 H 0.76147 0.66038 0.65872 0.0
H1514 H 0.81701 0.59989 0.66675 0.0
H1515 H 0.86199 0.64003 0.54958 0.0
H1516 H 0.86804 0.66084 0.58613 0.0
H1517 H 0.83422 0.65168 0.56961 0.0
C1518 C 0.82754 0.68451 0.66419 0.0
C1519 C 0.7999 0.68298 0.66813 0.0
C1520 C 0.83819 0.66495 0.64902 0.0
C1521 C 0.82137 0.64365 0.63726 0.0
C1522 C 0.79363 0.6422 0.64057 0.0
H1523 H 0.90616 0.51641 0.59135 0.0
H1524 H 0.86739 0.53853 0.59768 0.0
C1525 C 0.7829 0.6619 0.6558 0.0
C1526 C 0.83362 0.6221 0.62567 0.0
H1527 H 0.88445 0.60847 0.57695 0.0
C1528 C 0.83109 0.6012 0.64626 0.0
C1529 C 0.85176 0.62395 0.59882 0.0
C1530 C 0.85397 0.64524 0.57454 0.0
C1531 C 0.84841 0.58332 0.64301 0.0
C1532 C 0.86838 0.58662 0.61853 0.0
C1533 C 0.86918 0.60625 0.59584 0.0
C1534 C 0.89073 0.57194 0.6187 0.0
C1535 C 0.84683 0.56221 0.66752 0.0
C1536 C 0.91639 0.58337 0.62922 0.0
C1537 C 0.93852 0.57094 0.6255 0.0
C1538 C 0.93521 0.54696 0.61094 0.0
C1539 C 0.90924 0.53497 0.60248 0.0
C1540 C 0.8871 0.54749 0.60609 0.0
H1541 H 0.83088 0.56302 0.68628 0.0
H1542 H 0.8427 0.54441 0.65272 0.0
H1543 H 0.86632 0.56243 0.68194 0.0
H1544 H 0.91939 0.6023 0.63909 0.0
H1545 H 0.95826 0.58063 0.63218 0.0
H1546 H 0.30496 0.83809 0.65279 0.0
H1547 H 0.33738 0.86451 0.62048 0.0
H1548 H 0.37995 0.80259 0.60007 0.0
H1549 H 0.34732 0.77594 0.63242 0.0
H1550 H 0.41043 0.8421 0.63551 0.0
H1551 H 0.35916 0.87507 0.5208 0.0
H1552 H 0.33973 0.87693 0.55825 0.0
H1553 H 0.3463 0.84721 0.54226 0.0
C1554 C 0.32073 0.82995 0.64046 0.0
C1555 C 0.32387 0.80513 0.64523 0.0
C1556 C 0.33912 0.84499 0.62179 0.0
C1557 C 0.36092 0.83542 0.6077 0.0
C1558 C 0.3631 0.81021 0.61053 0.0
H1559 H 0.49527 0.94196 0.54429 0.0
H1560 H 0.46952 0.90174 0.55363 0.0
C1561 C 0.3445 0.79505 0.62896 0.0
C1562 C 0.38344 0.85273 0.59582 0.0
H1563 H 0.39639 0.90349 0.54676 0.0
C1564 C 0.40774 0.85507 0.61534 0.0
C1565 C 0.37985 0.86955 0.56949 0.0
C1566 C 0.35492 0.8669 0.54627 0.0
C1567 C 0.42767 0.87509 0.61111 0.0
C1568 C 0.42299 0.893 0.58691 0.0
C1569 C 0.39962 0.88973 0.56564 0.0
C1570 C 0.44084 0.91643 0.5854 0.0
C1571 C 0.45281 0.87798 0.63398 0.0
C1572 C 0.43355 0.93769 0.60126 0.0
C1573 C 0.44816 0.96072 0.59611 0.0
C1574 C 0.47017 0.96278 0.57478 0.0
C1575 C 0.47844 0.9411 0.56088 0.0
C1576 C 0.46374 0.91808 0.56601 0.0
H1577 H 0.45374 0.86202 0.65099 0.0
H1578 H 0.47065 0.87998 0.61791 0.0
H1579 H 0.45378 0.89507 0.65026 0.0
H1580 H 0.41587 0.93655 0.61642 0.0
H1581 H 0.44124 0.97697 0.60722 0.0
H1582 H 0.1942 0.31998 0.67686 0.0
H1583 H 0.17615 0.34753 0.63601 0.0
H1584 H 0.25585 0.37229 0.60353 0.0
H1585 H 0.27412 0.34448 0.64437 0.0
H1586 H 0.19097 0.39984 0.63478 0.0
H1587 H 0.21025 0.35143 0.51233 0.0
H1588 H 0.20972 0.33642 0.55332 0.0
H1589 H 0.23784 0.35841 0.54338 0.0
C1590 C 0.20787 0.33133 0.66106 0.0
C1591 C 0.23549 0.33021 0.66363 0.0
C1592 C 0.19756 0.34695 0.63772 0.0
C1593 C 0.21469 0.36157 0.61655 0.0
C1594 C 0.24236 0.36076 0.61933 0.0
H1595 H 0.15564 0.48296 0.51167 0.0
H1596 H 0.187 0.4573 0.53668 0.0
C1597 C 0.25273 0.34511 0.64279 0.0
C1598 C 0.20332 0.37835 0.5927 0.0
H1599 H 0.18871 0.38714 0.50769 0.0
C1600 C 0.19068 0.39727 0.60698 0.0
C1601 C 0.20293 0.37464 0.55655 0.0
C1602 C 0.21574 0.35405 0.54028 0.0
C1603 C 0.17701 0.41233 0.58606 0.0
C1604 C 0.17645 0.40859 0.5499 0.0
C1605 C 0.18949 0.38996 0.53546 0.0
C1606 C 0.16073 0.423 0.52732 0.0
C1607 C 0.1624 0.43154 0.60289 0.0
C1608 C 0.1363 0.41187 0.51207 0.0
C1609 C 0.11822 0.42648 0.49779 0.0
C1610 C 0.12449 0.45232 0.49867 0.0
C1611 C 0.15006 0.46312 0.51106 0.0
C1612 C 0.16804 0.44853 0.52533 0.0
H1613 H 0.16077 0.42891 0.63104 0.0
H1614 H 0.17341 0.45018 0.59906 0.0
H1615 H 0.14192 0.43098 0.59102 0.0
H1616 H 0.13047 0.39212 0.51338 0.0
H1617 H 0.09881 0.41765 0.48802 0.0
H1618 H 0.73038 0.22408 0.6362 0.0
H1619 H 0.70431 0.19158 0.59995 0.0
H1620 H 0.65404 0.17112 0.68465 0.0
H1621 H 0.68006 0.20331 0.72116 0.0
H1622 H 0.67565 0.13169 0.65535 0.0
H1623 H 0.62868 0.18434 0.55424 0.0
H1624 H 0.66431 0.19198 0.56088 0.0
H1625 H 0.64267 0.19854 0.59453 0.0
C1626 C 0.7134 0.21306 0.64694 0.0
C1627 C 0.70737 0.21639 0.6817 0.0
C1628 C 0.69848 0.19448 0.6261 0.0
C1629 C 0.67711 0.17897 0.63948 0.0
C1630 C 0.67043 0.18286 0.67373 0.0
H1631 H 0.55382 0.06881 0.55344 0.0
H1632 H 0.58135 0.10607 0.5768 0.0
C1633 C 0.68532 0.20137 0.69458 0.0
C1634 C 0.66302 0.15742 0.61899 0.0
H1635 H 0.62275 0.14074 0.5471 0.0
C1636 C 0.66415 0.13368 0.63163 0.0
C1637 C 0.64803 0.16003 0.58801 0.0
C1638 C 0.64558 0.18508 0.57364 0.0
C1639 C 0.65048 0.11254 0.61446 0.0
C1640 C 0.63546 0.11512 0.58355 0.0
C1641 C 0.63448 0.13881 0.57065 0.0
C1642 C 0.61909 0.0935 0.56587 0.0
C1643 C 0.65153 0.08763 0.63012 0.0
C1644 C 0.63116 0.07429 0.55106 0.0
C1645 C 0.61545 0.05285 0.53762 0.0
C1646 C 0.58736 0.05021 0.53892 0.0
C1647 C 0.57538 0.07001 0.55244 0.0
C1648 C 0.59108 0.09142 0.56566 0.0
H1649 H 0.66004 0.08927 0.65701 0.0
H1650 H 0.6312 0.07694 0.63002 0.0
H1651 H 0.66427 0.07698 0.61455 0.0
H1652 H 0.65277 0.07568 0.55052 0.0
H1653 H 0.62535 0.03812 0.52708 0.0
H1654 H 0.79281 0.3038 0.36152 0.0
H1655 H 0.82134 0.33622 0.39535 0.0
H1656 H 0.86778 0.35426 0.30636 0.0
H1657 H 0.8392 0.32251 0.27226 0.0
H1658 H 0.87506 0.34238 0.41105 0.0
H1659 H 0.84925 0.42117 0.33506 0.0
H1660 H 0.83048 0.3907 0.33042 0.0
H1661 H 0.86147 0.39789 0.30905 0.0
C1662 C 0.80906 0.3147 0.34912 0.0
C1663 C 0.81351 0.31066 0.31406 0.0
C1664 C 0.82534 0.33323 0.3685 0.0
C1665 C 0.84634 0.34803 0.35318 0.0
C1666 C 0.85124 0.34358 0.31848 0.0
H1667 H 0.971 0.46592 0.42313 0.0
H1668 H 0.94318 0.43198 0.3913 0.0
C1669 C 0.83491 0.32525 0.29906 0.0
C1670 C 0.86351 0.36784 0.37353 0.0
H1671 H 0.88663 0.42956 0.37497 0.0
C1672 C 0.87748 0.36146 0.40326 0.0
C1673 C 0.86659 0.39277 0.36343 0.0
C1674 C 0.85094 0.40112 0.33295 0.0
C1675 C 0.89491 0.37922 0.42271 0.0
C1676 C 0.89827 0.40405 0.41229 0.0
C1677 C 0.88421 0.41046 0.38269 0.0
C1678 C 0.91572 0.42385 0.43216 0.0
C1679 C 0.90964 0.37111 0.45408 0.0
C1680 C 0.90939 0.43056 0.46558 0.0
C1681 C 0.92513 0.44997 0.48378 0.0
C1682 C 0.94751 0.46311 0.46884 0.0
C1683 C 0.95393 0.45619 0.43541 0.0
C1684 C 0.93807 0.43682 0.41717 0.0
H1685 H 0.91224 0.35127 0.45185 0.0
H1686 H 0.92964 0.38217 0.45848 0.0
H1687 H 0.89764 0.37353 0.47692 0.0
H1688 H 0.89198 0.42102 0.47737 0.0
H1689 H 0.91959 0.45479 0.50946 0.0
H1690 H 0.71674 0.77573 0.36777 0.0
H1691 H 0.69052 0.80687 0.38878 0.0
H1692 H 0.70227 0.84635 0.29461 0.0
H1693 H 0.72928 0.81496 0.27343 0.0
H1694 H 0.70866 0.87797 0.35426 0.0
H1695 H 0.61413 0.81419 0.35854 0.0
H1696 H 0.64137 0.80305 0.38171 0.0
H1697 H 0.6425 0.80639 0.33579 0.0
C1698 C 0.71367 0.79091 0.35126 0.0
C1699 C 0.72492 0.7926 0.31865 0.0
C1700 C 0.6985 0.80876 0.36336 0.0
C1701 C 0.69384 0.82891 0.34323 0.0
C1702 C 0.70534 0.83094 0.31068 0.0
H1703 H 0.56925 0.91977 0.38864 0.0
H1704 H 0.59797 0.89202 0.36453 0.0
C1705 C 0.72065 0.81291 0.29844 0.0
C1706 C 0.67704 0.84757 0.35671 0.0
H1707 H 0.61577 0.85262 0.38927 0.0
C1708 C 0.68828 0.87245 0.36167 0.0
C1709 C 0.65029 0.84064 0.36628 0.0
C1710 C 0.63624 0.81468 0.36001 0.0
C1711 C 0.67381 0.89028 0.37647 0.0
C1712 C 0.6474 0.8831 0.38727 0.0
C1713 C 0.63607 0.8583 0.38162 0.0
C1714 C 0.63046 0.90102 0.40258 0.0
C1715 C 0.68682 0.91676 0.37975 0.0
C1716 C 0.6387 0.91556 0.43258 0.0
C1717 C 0.6221 0.93182 0.44664 0.0
C1718 C 0.59673 0.9338 0.4312 0.0
C1719 C 0.58855 0.91897 0.40148 0.0
C1720 C 0.60507 0.90293 0.38749 0.0
H1721 H 0.70376 0.92044 0.36233 0.0
H1722 H 0.67213 0.92968 0.3738 0.0
H1723 H 0.69481 0.9207 0.4066 0.0
H1724 H 0.65784 0.91414 0.44544 0.0
H1725 H 0.62908 0.94271 0.46964 0.0
H1726 H 0.18548 0.74148 0.37043 0.0
H1727 H 0.14858 0.71741 0.39889 0.0
H1728 H 0.19012 0.65332 0.3943 0.0
H1729 H 0.22734 0.67753 0.36688 0.0
H1730 H 0.11779 0.67975 0.36864 0.0
H1731 H 0.16151 0.64671 0.4887 0.0
H1732 H 0.17845 0.67182 0.4651 0.0
H1733 H 0.18054 0.64021 0.45244 0.0
C1734 C 0.18707 0.72246 0.37654 0.0
C1735 C 0.20922 0.71132 0.36653 0.0
C1736 C 0.16595 0.70871 0.39267 0.0
C1737 C 0.1666 0.68358 0.39903 0.0
C1738 C 0.18938 0.6728 0.39052 0.0
H1739 H 0.04738 0.56047 0.38336 0.0
H1740 H 0.07647 0.59882 0.37463 0.0
C1741 C 0.21063 0.68662 0.37467 0.0
C1742 C 0.14227 0.66792 0.41021 0.0
H1743 H 0.12107 0.62221 0.46514 0.0
C1744 C 0.11838 0.66752 0.39019 0.0
C1745 C 0.14279 0.65221 0.43862 0.0
C1746 C 0.16714 0.65295 0.46265 0.0
C1747 C 0.09557 0.65085 0.39649 0.0
C1748 C 0.09683 0.63371 0.42305 0.0
C1749 C 0.12015 0.63514 0.44446 0.0
C1750 C 0.07535 0.61274 0.42711 0.0
C1751 C 0.0705 0.65154 0.37423 0.0
C1752 C 0.06454 0.6079 0.45937 0.0
C1753 C 0.0479 0.58582 0.46452 0.0
C1754 C 0.04203 0.56799 0.43757 0.0
C1755 C 0.05135 0.57374 0.40468 0.0
C1756 C 0.06798 0.59579 0.39959 0.0
H1757 H 0.06935 0.67044 0.36478 0.0
H1758 H 0.07086 0.63909 0.35134 0.0
H1759 H 0.05219 0.64545 0.38839 0.0
H1760 H 0.07002 0.62067 0.48101 0.0
H1761 H 0.04125 0.58204 0.49027 0.0
H1762 H 0.29111 0.22095 0.35937 0.0
H1763 H 0.32087 0.19348 0.38339 0.0
H1764 H 0.3646 0.19714 0.29012 0.0
H1765 H 0.33417 0.2247 0.26542 0.0
H1766 H 0.35665 0.14981 0.31472 0.0
H1767 H 0.3963 0.21418 0.42176 0.0
H1768 H 0.36045 0.20837 0.42085 0.0
H1769 H 0.37705 0.22369 0.38549 0.0
C1770 C 0.30705 0.21597 0.34382 0.0
C1771 C 0.31043 0.22531 0.31058 0.0
C1772 C 0.32425 0.20034 0.35778 0.0
C1773 C 0.34561 0.19371 0.33914 0.0
C1774 C 0.34853 0.20223 0.30531 0.0
H1775 H 0.46727 0.11825 0.45056 0.0
H1776 H 0.44567 0.14866 0.41757 0.0
C1777 C 0.33112 0.21794 0.29115 0.0
C1778 C 0.36431 0.17763 0.35527 0.0
H1779 H 0.40259 0.17167 0.42869 0.0
C1780 C 0.36696 0.15476 0.33942 0.0
C1781 C 0.37834 0.18409 0.38727 0.0
C1782 C 0.37815 0.20904 0.40465 0.0
C1783 C 0.38198 0.1378 0.35542 0.0
C1784 C 0.39435 0.14353 0.38861 0.0
C1785 C 0.39286 0.16693 0.40359 0.0
C1786 C 0.40782 0.12517 0.40877 0.0
C1787 C 0.38443 0.11386 0.33644 0.0
C1788 C 0.39371 0.10201 0.41577 0.0
C1789 C 0.40599 0.08466 0.4345 0.0
C1790 C 0.43274 0.08998 0.44725 0.0
C1791 C 0.44671 0.11344 0.44112 0.0
C1792 C 0.43436 0.13085 0.42216 0.0
H1793 H 0.38209 0.11579 0.30811 0.0
H1794 H 0.40406 0.10748 0.34245 0.0
H1795 H 0.36832 0.09945 0.34419 0.0
H1796 H 0.373 0.09732 0.40687 0.0
H1797 H 0.39438 0.06696 0.43893 0.0
H1798 H 0.69658 0.76178 0.65139 0.0
H1799 H 0.66962 0.79203 0.6277 0.0
H1800 H 0.7075 0.84692 0.70171 0.0
H1801 H 0.73463 0.81648 0.7257 0.0
H1802 H 0.63372 0.8241 0.66421 0.0
H1803 H 0.72075 0.87514 0.60098 0.0
H1804 H 0.72033 0.84355 0.61398 0.0
H1805 H 0.72495 0.86819 0.6458 0.0
C1806 C 0.69892 0.7802 0.66299 0.0
C1807 C 0.71756 0.78667 0.69066 0.0
C1808 C 0.68346 0.79747 0.6494 0.0
C1809 C 0.68656 0.8218 0.66275 0.0
C1810 C 0.70478 0.82826 0.69093 0.0
H1811 H 0.63019 0.95441 0.58414 0.0
H1812 H 0.65252 0.92397 0.61472 0.0
C1813 C 0.72009 0.81081 0.70486 0.0
C1814 C 0.67154 0.84045 0.64594 0.0
H1815 H 0.6793 0.8898 0.59299 0.0
C1816 C 0.64366 0.83856 0.64874 0.0
C1817 C 0.68446 0.85924 0.62565 0.0
C1818 C 0.71425 0.86175 0.62108 0.0
C1819 C 0.62844 0.8552 0.63232 0.0
C1820 C 0.6413 0.87383 0.61147 0.0
C1821 C 0.66926 0.87561 0.60877 0.0
C1822 C 0.62654 0.89219 0.5931 0.0
C1823 C 0.59887 0.85301 0.63834 0.0
C1824 C 0.60429 0.88476 0.57034 0.0
C1825 C 0.5911 0.90235 0.55296 0.0
C1826 C 0.60018 0.92776 0.55742 0.0
C1827 C 0.62259 0.93505 0.57989 0.0
C1828 C 0.63547 0.91758 0.59749 0.0
H1829 H 0.59383 0.8432 0.66245 0.0
H1830 H 0.59196 0.87145 0.6399 0.0
H1831 H 0.58763 0.84221 0.61665 0.0
H1832 H 0.59733 0.86534 0.56555 0.0
H1833 H 0.5741 0.89604 0.53563 0.0
H1834 H 0.72683 0.17659 0.35102 0.0
H1835 H 0.69315 0.1504 0.38196 0.0
H1836 H 0.65696 0.21444 0.41186 0.0
H1837 H 0.69081 0.24088 0.38104 0.0
H1838 H 0.66986 0.15206 0.45382 0.0
H1839 H 0.60308 0.16922 0.34124 0.0
H1840 H 0.63904 0.17552 0.33958 0.0
H1841 H 0.62132 0.19512 0.36523 0.0
C1842 C 0.71221 0.18516 0.36511 0.0
C1843 C 0.71106 0.2106 0.36333 0.0
C1844 C 0.69308 0.17023 0.38283 0.0
C1845 C 0.67253 0.18057 0.39873 0.0
C1846 C 0.6727 0.20625 0.39958 0.0
H1847 H 0.53579 0.07485 0.45878 0.0
H1848 H 0.56177 0.11521 0.45082 0.0
C1849 C 0.69201 0.22126 0.38203 0.0
C1850 C 0.64901 0.16396 0.4091 0.0
H1851 H 0.58857 0.13602 0.37601 0.0
C1852 C 0.65174 0.14896 0.43747 0.0
C1853 C 0.6255 0.16004 0.38748 0.0
C1854 C 0.62186 0.1757 0.35657 0.0
C1855 C 0.63205 0.12912 0.44362 0.0
C1856 C 0.6096 0.12414 0.42044 0.0
C1857 C 0.60598 0.14006 0.3935 0.0
C1858 C 0.59179 0.10066 0.42122 0.0
C1859 C 0.63593 0.11272 0.47364 0.0
C1860 C 0.59965 0.07953 0.40572 0.0
C1861 C 0.58491 0.05645 0.41 0.0
C1862 C 0.56217 0.05423 0.43005 0.0
C1863 C 0.55327 0.07584 0.44328 0.0
C1864 C 0.56808 0.09892 0.43896 0.0
H1865 H 0.65217 0.12113 0.49209 0.0
H1866 H 0.61707 0.10889 0.48755 0.0
H1867 H 0.6411 0.09476 0.46393 0.0
H1868 H 0.61789 0.08078 0.39165 0.0
H1869 H 0.59231 0.04028 0.39939 0.0
H1870 H 0.81761 0.7204 0.39295 0.0
H1871 H 0.83533 0.69288 0.43414 0.0
H1872 H 0.80518 0.63 0.36821 0.0
H1873 H 0.78713 0.65756 0.32663 0.0
H1874 H 0.80013 0.63374 0.45655 0.0
H1875 H 0.8984 0.64929 0.39384 0.0
H1876 H 0.87904 0.67456 0.39853 0.0
H1877 H 0.86719 0.64925 0.36939 0.0
C1878 C 0.81453 0.70069 0.38734 0.0
C1879 C 0.80123 0.69102 0.35658 0.0
C1880 C 0.82448 0.68506 0.41097 0.0
C1881 C 0.82131 0.65957 0.40414 0.0
C1882 C 0.80748 0.6497 0.37387 0.0
H1883 H 0.87716 0.53735 0.5057 0.0
H1884 H 0.84792 0.56559 0.48236 0.0
C1885 C 0.79741 0.66539 0.35015 0.0
C1886 C 0.83497 0.64375 0.42703 0.0
H1887 H 0.8958 0.62494 0.44266 0.0
C1888 C 0.82104 0.6317 0.45369 0.0
C1889 C 0.8622 0.64151 0.42314 0.0
C1890 C 0.87776 0.65423 0.39469 0.0
C1891 C 0.83389 0.61726 0.47685 0.0
C1892 C 0.8612 0.61483 0.47276 0.0
C1893 C 0.87498 0.62708 0.44606 0.0
C1894 C 0.87589 0.59859 0.49411 0.0
C1895 C 0.81808 0.60495 0.50535 0.0
C1896 C 0.90104 0.60782 0.50931 0.0
C1897 C 0.91795 0.59169 0.52231 0.0
C1898 C 0.91001 0.56607 0.52004 0.0
C1899 C 0.88392 0.55702 0.50756 0.0
C1900 C 0.86706 0.57316 0.49445 0.0
H1901 H 0.80273 0.61632 0.51391 0.0
H1902 H 0.80744 0.58692 0.49546 0.0
H1903 H 0.83105 0.60154 0.52798 0.0
H1904 H 0.90815 0.62743 0.50946 0.0
H1905 H 0.9378 0.59925 0.53221 0.0
H1906 H 0.30262 0.79061 0.37538 0.0
H1907 H 0.32806 0.82382 0.41124 0.0
H1908 H 0.37803 0.84448 0.32637 0.0
H1909 H 0.35281 0.81155 0.29032 0.0
H1910 H 0.38495 0.83722 0.4298 0.0
H1911 H 0.34259 0.90699 0.35033 0.0
H1912 H 0.32871 0.87475 0.34891 0.0
H1913 H 0.35823 0.88496 0.32595 0.0
C1914 C 0.31935 0.80188 0.36449 0.0
C1915 C 0.32547 0.79847 0.32979 0.0
C1916 C 0.33383 0.82091 0.38505 0.0
C1917 C 0.3546 0.8369 0.37126 0.0
C1918 C 0.36177 0.83261 0.33735 0.0
H1919 H 0.47831 0.94757 0.45408 0.0
H1920 H 0.4507 0.90961 0.43334 0.0
C1921 C 0.34737 0.81366 0.31681 0.0
C1922 C 0.36781 0.85895 0.39138 0.0
H1923 H 0.37857 0.92197 0.38986 0.0
C1924 C 0.38343 0.85576 0.42126 0.0
C1925 C 0.36533 0.88316 0.38064 0.0
C1926 C 0.34761 0.88779 0.3499 0.0
C1927 C 0.39761 0.87616 0.43977 0.0
C1928 C 0.39631 0.9003 0.42784 0.0
C1929 C 0.37976 0.90347 0.39884 0.0
C1930 C 0.41297 0.92248 0.44375 0.0
C1931 C 0.41393 0.87169 0.47183 0.0
C1932 C 0.40099 0.94244 0.45646 0.0
C1933 C 0.41675 0.96429 0.46831 0.0
C1934 C 0.44483 0.96673 0.46717 0.0
C1935 C 0.45676 0.94646 0.45511 0.0
C1936 C 0.441 0.9246 0.44352 0.0
H1937 H 0.40589 0.85415 0.4839 0.0
H1938 H 0.4348 0.87026 0.46481 0.0
H1939 H 0.41443 0.88707 0.49109 0.0
H1940 H 0.37938 0.94125 0.45672 0.0
H1941 H 0.4069 0.97948 0.47751 0.0
H1942 H 0.2452 0.32472 0.3814 0.0
H1943 H 0.21989 0.35603 0.40578 0.0
H1944 H 0.21747 0.39029 0.30687 0.0
H1945 H 0.24126 0.35833 0.28222 0.0
H1946 H 0.21993 0.40794 0.41047 0.0
H1947 H 0.1398 0.36106 0.32116 0.0
H1948 H 0.17098 0.34906 0.3294 0.0
H1949 H 0.169 0.37326 0.29905 0.0
C1950 C 0.23998 0.3395 0.36538 0.0
C1951 C 0.24469 0.33929 0.33009 0.0
C1952 C 0.2256 0.35728 0.37922 0.0
C1953 C 0.21634 0.37496 0.35777 0.0
C1954 C 0.22404 0.37642 0.32353 0.0
H1955 H 0.12432 0.49328 0.40631 0.0
H1956 H 0.16026 0.4684 0.39522 0.0
C1957 C 0.23766 0.35833 0.30955 0.0
C1958 C 0.19522 0.3891 0.36904 0.0
H1959 H 0.13145 0.39868 0.34755 0.0
C1960 C 0.20049 0.40591 0.39698 0.0
C1961 C 0.16963 0.38566 0.35204 0.0
C1962 C 0.16188 0.36608 0.32402 0.0
C1963 C 0.18095 0.42016 0.40761 0.0
C1964 C 0.15598 0.41797 0.38897 0.0
C1965 C 0.15065 0.4006 0.36165 0.0
C1966 C 0.13479 0.43325 0.39698 0.0
C1967 C 0.1872 0.43695 0.43898 0.0
C1968 C 0.10841 0.42184 0.40021 0.0
C1969 C 0.08779 0.43603 0.40475 0.0
C1970 C 0.09333 0.46184 0.40704 0.0
C1971 C 0.11969 0.47334 0.40431 0.0
C1972 C 0.14024 0.45915 0.39865 0.0
H1973 H 0.20142 0.42955 0.45732 0.0
H1974 H 0.19672 0.45531 0.43096 0.0
H1975 H 0.1688 0.4394 0.45252 0.0
H1976 H 0.10372 0.40189 0.3991 0.0
H1977 H 0.06766 0.42677 0.40761 0.0
H1978 H 0.31302 0.23808 0.64114 0.0
H1979 H 0.33807 0.20662 0.61867 0.0
H1980 H 0.33407 0.17049 0.71622 0.0
H1981 H 0.30805 0.20212 0.73883 0.0
H1982 H 0.38581 0.19574 0.63751 0.0
H1983 H 0.31211 0.11195 0.65058 0.0
H1984 H 0.30333 0.14277 0.6556 0.0
H1985 H 0.3209 0.12941 0.69005 0.0
C1986 C 0.31729 0.22341 0.65796 0.0
C1987 C 0.30847 0.22275 0.69191 0.0
C1988 C 0.33173 0.20533 0.64497 0.0
C1989 C 0.33795 0.1858 0.66537 0.0
C1990 C 0.3292 0.18498 0.6995 0.0
H1991 H 0.46515 0.09902 0.61432 0.0
H1992 H 0.43662 0.12671 0.63913 0.0
C1993 C 0.3145 0.20322 0.7126 0.0
C1994 C 0.35442 0.16727 0.65065 0.0
H1995 H 0.35483 0.1057 0.63119 0.0
C1996 C 0.37894 0.17606 0.63625 0.0
C1997 C 0.34553 0.14149 0.64829 0.0
C1998 C 0.31893 0.13077 0.66164 0.0
C1999 C 0.39467 0.1601 0.61992 0.0
C2000 C 0.38615 0.13428 0.61829 0.0
C2001 C 0.36154 0.1254 0.63241 0.0
C2002 C 0.40306 0.11639 0.60305 0.0
C2003 C 0.4201 0.17122 0.60386 0.0
C2004 C 0.39375 0.1006 0.57466 0.0
C2005 C 0.41021 0.0844 0.56019 0.0
C2006 C 0.43633 0.08345 0.57398 0.0
C2007 C 0.44533 0.09915 0.60261 0.0
C2008 C 0.42897 0.1152 0.61693 0.0
H2009 H 0.41978 0.19104 0.59828 0.0
H2010 H 0.43736 0.16996 0.62205 0.0
H2011 H 0.42338 0.1612 0.57953 0.0
H2012 H 0.37383 0.10102 0.5634 0.0
H2013 H 0.40247 0.07262 0.53829 0.0
H2014 H 0.849 0.27342 0.64262 0.0
H2015 H 0.88727 0.29832 0.61795 0.0
H2016 H 0.84598 0.36251 0.62365 0.0
H2017 H 0.80737 0.3375 0.64707 0.0
H2018 H 0.87431 0.36272 0.56705 0.0
H2019 H 0.93805 0.34379 0.68069 0.0
H2020 H 0.92407 0.31671 0.6559 0.0
H2021 H 0.90234 0.33471 0.67814 0.0
C2022 C 0.84788 0.29271 0.63775 0.0
C2023 C 0.82537 0.30363 0.64695 0.0
C2024 C 0.86986 0.30697 0.62405 0.0
C2025 C 0.86983 0.33243 0.61997 0.0
C2026 C 0.84656 0.34293 0.62686 0.0
H2027 H 0.98613 0.45817 0.63221 0.0
H2028 H 0.95747 0.4198 0.64241 0.0
C2029 C 0.82445 0.32862 0.64013 0.0
C2030 C 0.8944 0.34859 0.61069 0.0
H2031 H 0.95855 0.36974 0.63912 0.0
C2032 C 0.89285 0.36404 0.58252 0.0
C2033 C 0.91843 0.35062 0.63138 0.0
C2034 C 0.92086 0.33578 0.66341 0.0
C2035 C 0.91432 0.38192 0.57504 0.0
C2036 C 0.93842 0.38378 0.5955 0.0
C2037 C 0.94025 0.36791 0.6231 0.0
C2038 C 0.96044 0.4042 0.59125 0.0
C2039 C 0.91038 0.39984 0.54686 0.0
C2040 C 0.97309 0.40746 0.55984 0.0
C2041 C 0.98935 0.42959 0.55371 0.0
C2042 C 0.99344 0.44866 0.57912 0.0
C2043 C 0.98322 0.44405 0.61189 0.0
C2044 C 0.96677 0.42207 0.61781 0.0
H2045 H 0.88923 0.39813 0.53693 0.0
H2046 H 0.91659 0.41913 0.55643 0.0
H2047 H 0.92302 0.39632 0.52508 0.0
H2048 H 0.96911 0.39353 0.53934 0.0
H2049 H 0.99714 0.43235 0.5283 0.0
H2050 H 0.20126 0.68917 0.73822 0.0
H2051 H 0.17253 0.65732 0.70438 0.0
H2052 H 0.21357 0.67998 0.61274 0.0
H2053 H 0.24225 0.71237 0.64633 0.0
H2054 H 0.15852 0.67343 0.60259 0.0
H2055 H 0.19158 0.59238 0.66675 0.0
H2056 H 0.18064 0.61421 0.69642 0.0
H2057 H 0.20985 0.62303 0.67209 0.0
C2058 C 0.20442 0.68734 0.71092 0.0
C2059 C 0.22423 0.70332 0.69507 0.0
C2060 C 0.18799 0.66899 0.69163 0.0
C2061 C 0.19118 0.66599 0.65614 0.0
C2062 C 0.21087 0.68189 0.64015 0.0
H2063 H 0.10916 0.564 0.49905 0.0
H2064 H 0.13804 0.59749 0.52994 0.0
C2065 C 0.22729 0.70035 0.65943 0.0
C2066 C 0.17338 0.64671 0.63566 0.0
H2067 H 0.152 0.58471 0.63045 0.0
C2068 C 0.15724 0.654 0.60847 0.0
C2069 C 0.17175 0.62138 0.64339 0.0
C2070 C 0.18956 0.61221 0.67102 0.0
C2071 C 0.13899 0.63668 0.5894 0.0
C2072 C 0.13707 0.61144 0.59758 0.0
C2073 C 0.15338 0.60413 0.62448 0.0
C2074 C 0.11849 0.59217 0.5783 0.0
C2075 C 0.12137 0.64555 0.56129 0.0
C2076 C 0.098 0.57798 0.59531 0.0
C2077 C 0.08144 0.55875 0.57775 0.0
C2078 C 0.08537 0.55318 0.54297 0.0
C2079 C 0.1057 0.5677 0.5259 0.0
C2080 C 0.12212 0.58699 0.54342 0.0
H2081 H 0.12135 0.66587 0.56295 0.0
H2082 H 0.12878 0.64081 0.53582 0.0
H2083 H 0.10046 0.63631 0.56254 0.0
H2084 H 0.09497 0.58167 0.62228 0.0
H2085 H 0.06597 0.54794 0.59161 0.0
loop_
_geom_bond_atom_site_label_1
_geom_bond_atom_site_label_2
_geom_bond_distance
_geom_bond_site_symmetry_2
_ccdc_geom_bond_type
Tb0 O3 2.453 . S
Tb0 O4 2.596 . S
Tb0 O5 2.374 . S
Tb0 O13 2.343 . S
Tb0 O15 2.353 . S
Tb0 O17 2.427 . S
Tb0 O18 2.513 . S
C1 O5 1.251 . S
C1 O7 1.263 . S
Tb2 O4 2.343 . S
Tb2 O7 2.353 . S
Tb2 O10 2.427 . S
Tb2 O11 2.513 . S
Tb2 O12 2.453 . S
Tb2 O13 2.596 . S
Tb2 O14 2.374 . S
O3 Tb0 2.453 . S
O3 C19 1.245 . S
O4 Tb0 2.596 . S
O4 Tb2 2.343 . S
O4 C19 1.259 . S
O5 Tb0 2.374 . S
O5 C1 1.251 . S
C6 O10 1.275 . S
C6 O11 1.246 . S
O7 C1 1.263 . S
O7 Tb2 2.353 . S
C8 O12 1.245 . S
C8 O13 1.259 . S
C9 O14 1.250 . S
C9 O15 1.263 . S
O10 Tb2 2.427 . S
O10 C6 1.275 . S
O11 Tb2 2.513 . S
O11 C6 1.246 . S
O12 Tb2 2.453 . S
O12 C8 1.245 . S
O13 Tb0 2.343 . S
O13 Tb2 2.596 . S
O13 C8 1.259 . S
O14 Tb2 2.374 . S
O14 C9 1.250 . S
O15 Tb0 2.353 . S
O15 C9 1.263 . S
C16 O17 1.275 . S
C16 O18 1.246 . S
O17 Tb0 2.427 . S
O17 C16 1.275 . S
O18 Tb0 2.513 . S
O18 C16 1.246 . S
C19 O3 1.245 . S
C19 O4 1.259 . S
Tb20 O23 2.453 . S
Tb20 O24 2.596 . S
Tb20 O25 2.374 . S
Tb20 O33 2.343 . S
Tb20 O35 2.353 . S
Tb20 O37 2.427 . S
Tb20 O38 2.513 . S
C21 O25 1.251 . S
C21 O27 1.263 . S
Tb22 O24 2.343 . S
Tb22 O27 2.353 . S
Tb22 O30 2.427 . S
Tb22 O31 2.513 . S
Tb22 O32 2.453 . S
Tb22 O33 2.596 . S
Tb22 O34 2.374 . S
O23 Tb20 2.453 . S
O23 C39 1.245 . S
O24 Tb20 2.596 . S
O24 Tb22 2.343 . S
O24 C39 1.259 . S
O25 Tb20 2.374 . S
O25 C21 1.251 . S
C26 O30 1.275 . S
C26 O31 1.246 . S
O27 C21 1.263 . S
O27 Tb22 2.353 . S
C28 O32 1.245 . S
C28 O33 1.259 . S
C29 O34 1.250 . S
C29 O35 1.263 . S
O30 Tb22 2.427 . S
O30 C26 1.275 . S
O31 Tb22 2.513 . S
O31 C26 1.246 . S
O32 Tb22 2.453 . S
O32 C28 1.245 . S
O33 Tb20 2.343 . S
O33 Tb22 2.596 . S
O33 C28 1.259 . S
O34 Tb22 2.374 . S
O34 C29 1.250 . S
O35 Tb20 2.353 . S
O35 C29 1.263 . S
C36 O37 1.275 . S
C36 O38 1.246 . S
O37 Tb20 2.427 . S
O37 C36 1.275 . S
O38 Tb20 2.513 . S
O38 C36 1.246 . S
C39 O23 1.245 . S
C39 O24 1.259 . S
Tb40 O43 2.453 . S
Tb40 O44 2.596 . S
Tb40 O45 2.374 . S
Tb40 O53 2.343 . S
Tb40 O55 2.353 . S
Tb40 O57 2.427 . S
Tb40 O58 2.513 . S
C41 O45 1.251 . S
C41 O47 1.263 . S
Tb42 O44 2.343 . S
Tb42 O47 2.353 . S
Tb42 O50 2.427 . S
Tb42 O51 2.513 . S
Tb42 O52 2.453 . S
Tb42 O53 2.596 . S
Tb42 O54 2.374 . S
O43 Tb40 2.453 . S
O43 C59 1.245 . S
O44 Tb40 2.596 . S
O44 Tb42 2.343 . S
O44 C59 1.259 . S
O45 Tb40 2.374 . S
O45 C41 1.251 . S
C46 O50 1.275 . S
C46 O51 1.246 . S
O47 C41 1.263 . S
O47 Tb42 2.353 . S
C48 O52 1.245 . S
C48 O53 1.259 . S
C49 O54 1.250 . S
C49 O55 1.263 . S
O50 Tb42 2.427 . S
O50 C46 1.275 . S
O51 Tb42 2.513 . S
O51 C46 1.246 . S
O52 Tb42 2.453 . S
O52 C48 1.245 . S
O53 Tb40 2.343 . S
O53 Tb42 2.596 . S
O53 C48 1.259 . S
O54 Tb42 2.374 . S
O54 C49 1.250 . S
O55 Tb40 2.353 . S
O55 C49 1.263 . S
C56 O57 1.275 . S
C56 O58 1.246 . S
O57 Tb40 2.427 . S
O57 C56 1.275 . S
O58 Tb40 2.513 . S
O58 C56 1.246 . S
C59 O43 1.245 . S
C59 O44 1.259 . S
Tb60 O63 2.453 . S
Tb60 O64 2.596 . S
Tb60 O65 2.374 . S
Tb60 O73 2.343 . S
Tb60 O75 2.353 . S
Tb60 O77 2.427 . S
Tb60 O78 2.513 . S
C61 O65 1.251 . S
C61 O67 1.263 . S
Tb62 O64 2.343 . S
Tb62 O67 2.353 . S
Tb62 O70 2.427 . S
Tb62 O71 2.513 . S
Tb62 O72 2.453 . S
Tb62 O73 2.596 . S
Tb62 O74 2.374 . S
O63 Tb60 2.453 . S
O63 C79 1.245 . S
O64 Tb60 2.596 . S
O64 Tb62 2.343 . S
O64 C79 1.259 . S
O65 Tb60 2.374 . S
O65 C61 1.251 . S
C66 O70 1.275 . S
C66 O71 1.246 . S
O67 C61 1.263 . S
O67 Tb62 2.353 . S
C68 O72 1.245 . S
C68 O73 1.259 . S
C69 O74 1.250 . S
C69 O75 1.263 . S
O70 Tb62 2.427 . S
O70 C66 1.275 . S
O71 Tb62 2.513 . S
O71 C66 1.246 . S
O72 Tb62 2.453 . S
O72 C68 1.245 . S
O73 Tb60 2.343 . S
O73 Tb62 2.596 . S
O73 C68 1.259 . S
O74 Tb62 2.374 . S
O74 C69 1.250 . S
O75 Tb60 2.353 . S
O75 C69 1.263 . S
C76 O77 1.275 . S
C76 O78 1.246 . S
O77 Tb60 2.427 . S
O77 C76 1.275 . S
O78 Tb60 2.513 . S
O78 C76 1.246 . S
C79 O63 1.245 . S
C79 O64 1.259 . S
Tb80 O83 2.453 . S
Tb80 O84 2.596 . S
Tb80 O85 2.374 . S
Tb80 O93 2.343 . S
Tb80 O95 2.353 . S
Tb80 O97 2.427 . S
Tb80 O98 2.513 . S
C81 O85 1.251 . S
C81 O87 1.263 . S
Tb82 O84 2.343 . S
Tb82 O87 2.353 . S
Tb82 O90 2.427 . S
Tb82 O91 2.513 . S
Tb82 O92 2.453 . S
Tb82 O93 2.596 . S
Tb82 O94 2.374 . S
O83 Tb80 2.453 . S
O83 C99 1.245 . S
O84 Tb80 2.596 . S
O84 Tb82 2.343 . S
O84 C99 1.259 . S
O85 Tb80 2.374 . S
O85 C81 1.251 . S
C86 O90 1.275 . S
C86 O91 1.246 . S
O87 C81 1.263 . S
O87 Tb82 2.353 . S
C88 O92 1.245 . S
C88 O93 1.259 . S
C89 O94 1.250 . S
C89 O95 1.263 . S
O90 Tb82 2.427 . S
O90 C86 1.275 . S
O91 Tb82 2.513 . S
O91 C86 1.246 . S
O92 Tb82 2.453 . S
O92 C88 1.245 . S
O93 Tb80 2.343 . S
O93 Tb82 2.596 . S
O93 C88 1.259 . S
O94 Tb82 2.374 . S
O94 C89 1.250 . S
O95 Tb80 2.353 . S
O95 C89 1.263 . S
C96 O97 1.275 . S
C96 O98 1.246 . S
O97 Tb80 2.427 . S
O97 C96 1.275 . S
O98 Tb80 2.513 . S
O98 C96 1.246 . S
C99 O83 1.245 . S
C99 O84 1.259 . S
Tb100 O103 2.453 . S
Tb100 O104 2.596 . S
Tb100 O105 2.374 . S
Tb100 O113 2.343 . S
Tb100 O115 2.353 . S
Tb100 O117 2.427 . S
Tb100 O118 2.513 . S
C101 O105 1.251 . S
C101 O107 1.263 . S
Tb102 O104 2.343 . S
Tb102 O107 2.353 . S
Tb102 O110 2.427 . S
Tb102 O111 2.513 . S
Tb102 O112 2.453 . S
Tb102 O113 2.596 . S
Tb102 O114 2.374 . S
O103 Tb100 2.453 . S
O103 C119 1.245 . S
O104 Tb100 2.596 . S
O104 Tb102 2.343 . S
O104 C119 1.259 . S
O105 Tb100 2.374 . S
O105 C101 1.251 . S
C106 O110 1.275 . S
C106 O111 1.246 . S
O107 C101 1.263 . S
O107 Tb102 2.353 . S
C108 O112 1.245 . S
C108 O113 1.259 . S
C109 O114 1.250 . S
C109 O115 1.263 . S
O110 Tb102 2.427 . S
O110 C106 1.275 . S
O111 Tb102 2.513 . S
O111 C106 1.246 . S
O112 Tb102 2.453 . S
O112 C108 1.245 . S
O113 Tb100 2.343 . S
O113 Tb102 2.596 . S
O113 C108 1.259 . S
O114 Tb102 2.374 . S
O114 C109 1.250 . S
O115 Tb100 2.353 . S
O115 C109 1.263 . S
C116 O117 1.275 . S
C116 O118 1.246 . S
O117 Tb100 2.427 . S
O117 C116 1.275 . S
O118 Tb100 2.513 . S
O118 C116 1.246 . S
C119 O103 1.245 . S
C119 O104 1.259 . S
Tb120 O123 2.453 . S
Tb120 O124 2.596 . S
Tb120 O125 2.374 . S
Tb120 O133 2.343 . S
Tb120 O135 2.353 . S
Tb120 O137 2.427 . S
Tb120 O138 2.513 . S
C121 O125 1.251 . S
C121 O127 1.263 . S
Tb122 O124 2.343 . S
Tb122 O127 2.353 . S
Tb122 O130 2.427 . S
Tb122 O131 2.513 . S
Tb122 O132 2.453 . S
Tb122 O133 2.596 . S
Tb122 O134 2.374 . S
O123 Tb120 2.453 . S
O123 C139 1.245 . S
O124 Tb120 2.596 . S
O124 Tb122 2.343 . S
O124 C139 1.259 . S
O125 Tb120 2.374 . S
O125 C121 1.251 . S
C126 O130 1.275 . S
C126 O131 1.246 . S
O127 C121 1.263 . S
O127 Tb122 2.353 . S
C128 O132 1.245 . S
C128 O133 1.259 . S
C129 O134 1.250 . S
C129 O135 1.263 . S
O130 Tb122 2.427 . S
O130 C126 1.275 . S
O131 Tb122 2.513 . S
O131 C126 1.246 . S
O132 Tb122 2.453 . S
O132 C128 1.245 . S
O133 Tb120 2.343 . S
O133 Tb122 2.596 . S
O133 C128 1.259 . S
O134 Tb122 2.374 . S
O134 C129 1.250 . S
O135 Tb120 2.353 . S
O135 C129 1.263 . S
C136 O137 1.275 . S
C136 O138 1.246 . S
O137 Tb120 2.427 . S
O137 C136 1.275 . S
O138 Tb120 2.513 . S
O138 C136 1.246 . S
C139 O123 1.245 . S
C139 O124 1.259 . S
Tb140 O143 2.453 . S
Tb140 O144 2.596 . S
Tb140 O145 2.374 . S
Tb140 O153 2.343 . S
Tb140 O155 2.353 . S
Tb140 O157 2.427 . S
Tb140 O158 2.513 . S
C141 O145 1.251 . S
C141 O147 1.263 . S
Tb142 O144 2.343 . S
Tb142 O147 2.353 . S
Tb142 O150 2.427 . S
Tb142 O151 2.513 . S
Tb142 O152 2.453 . S
Tb142 O153 2.596 . S
Tb142 O154 2.374 . S
O143 Tb140 2.453 . S
O143 C159 1.245 . S
O144 Tb140 2.596 . S
O144 Tb142 2.343 . S
O144 C159 1.259 . S
O145 Tb140 2.374 . S
O145 C141 1.251 . S
C146 O150 1.275 . S
C146 O151 1.246 . S
O147 C141 1.263 . S
O147 Tb142 2.353 . S
C148 O152 1.245 . S
C148 O153 1.259 . S
C149 O154 1.250 . S
C149 O155 1.263 . S
O150 Tb142 2.427 . S
O150 C146 1.275 . S
O151 Tb142 2.513 . S
O151 C146 1.246 . S
O152 Tb142 2.453 . S
O152 C148 1.245 . S
O153 Tb140 2.343 . S
O153 Tb142 2.596 . S
O153 C148 1.259 . S
O154 Tb142 2.374 . S
O154 C149 1.250 . S
O155 Tb140 2.353 . S
O155 C149 1.263 . S
C156 O157 1.275 . S
C156 O158 1.246 . S
O157 Tb140 2.427 . S
O157 C156 1.275 . S
O158 Tb140 2.513 . S
O158 C156 1.246 . S
C159 O143 1.245 . S
C159 O144 1.259 . S
Co160 O163 2.042 . S
Co160 O170 2.264 . S
Co160 O189 2.286 . S
Co160 O190 2.069 . S
Co160 O192 2.015 1_455 S
Co161 O163 2.122 . S
Co161 O169 2.073 . S
Co161 O170 2.327 . S
Co161 O171 1.976 1_455 S
Co162 O163 2.078 1_545 S
Co162 O165 2.096 1_455 S
Co162 O172 2.108 1_445 S
Co162 O173 2.150 . S
Co162 O177 2.115 . S
Co162 O191 2.137 1_445 S
O163 Co160 2.042 . S
O163 Co161 2.122 . S
O163 Co162 2.078 1_565 S
O163 H164 0.980 . S
H164 O163 0.980 . S
O165 Co162 2.096 1_655 S
O165 Co166 2.042 . S
O165 Co167 2.122 . S
O165 H168 0.980 . S
Co166 O165 2.042 . S
Co166 O174 2.286 . S
Co166 O175 2.069 . S
Co166 O176 2.015 1_655 S
Co166 O179 2.264 . S
Co167 O165 2.122 . S
Co167 O178 1.976 1_655 S
Co167 O179 2.327 . S
Co167 O180 2.073 . S
H168 O165 0.980 . S
O169 Co161 2.073 . S
O169 C184 1.245 . S
O170 Co160 2.264 . S
O170 Co161 2.327 . S
O170 C184 1.257 . S
O171 Co161 1.976 1_655 S
O171 C183 1.251 . S
O172 Co162 2.108 1_665 S
O172 C183 1.274 . S
O173 Co162 2.150 . S
O173 C186 1.246 . S
O174 Co166 2.286 . S
O174 C185 1.259 . S
O175 Co166 2.069 . S
O175 C185 1.289 . S
O176 Co166 2.015 1_455 S
O176 C186 1.257 . S
O177 Co162 2.115 . S
O177 C187 1.274 . S
O178 Co167 1.976 1_455 S
O178 C187 1.251 . S
O179 Co166 2.264 . S
O179 Co167 2.327 . S
O179 C188 1.257 . S
O180 Co167 2.073 . S
O180 C188 1.245 . S
C181 O189 1.259 . S
C181 O190 1.289 . S
C182 O191 1.246 . S
C182 O192 1.257 . S
C183 O171 1.251 . S
C183 O172 1.274 . S
C184 O169 1.245 . S
C184 O170 1.257 . S
C185 O174 1.259 . S
C185 O175 1.289 . S
C186 O173 1.246 . S
C186 O176 1.257 . S
C187 O177 1.274 . S
C187 O178 1.251 . S
C188 O179 1.257 . S
C188 O180 1.245 . S
O189 Co160 2.286 . S
O189 C181 1.259 . S
O190 Co160 2.069 . S
O190 C181 1.289 . S
O191 Co162 2.137 1_665 S
O191 C182 1.246 . S
O192 Co160 2.015 1_655 S
O192 C182 1.257 . S
Co193 O196 2.042 1_556 S
Co193 O203 2.264 1_556 S
Co193 O222 2.286 . S
Co193 O223 2.069 . S
Co193 O225 2.015 . S
Co194 O196 2.122 . S
Co194 O202 2.073 . S
Co194 O203 2.327 . S
Co194 O204 1.976 . S
Co195 O196 2.078 1_545 S
Co195 O198 2.096 1_554 S
Co195 O205 2.108 1_545 S
Co195 O206 2.150 . S
Co195 O210 2.115 1_554 S
Co195 O224 2.137 1_544 S
O196 Co193 2.042 1_554 S
O196 Co194 2.122 . S
O196 Co195 2.078 1_565 S
O196 H197 0.980 . S
H197 O196 0.980 . S
O198 Co195 2.096 1_556 S
O198 Co199 2.042 1_556 S
O198 Co200 2.122 . S
O198 H201 0.980 . S
Co199 O198 2.042 1_554 S
Co199 O207 2.286 . S
Co199 O208 2.069 . S
Co199 O209 2.015 . S
Co199 O212 2.264 1_554 S
Co200 O198 2.122 . S
Co200 O211 1.976 . S
Co200 O212 2.327 . S
Co200 O213 2.073 . S
H201 O198 0.980 . S
O202 Co194 2.073 . S
O202 C217 1.245 . S
O203 Co193 2.264 1_554 S
O203 Co194 2.327 . S
O203 C217 1.257 . S
O204 Co194 1.976 . S
O204 C216 1.251 . S
O205 Co195 2.108 1_565 S
O205 C216 1.274 . S
O206 Co195 2.150 . S
O206 C219 1.246 . S
O207 Co199 2.286 . S
O207 C218 1.259 . S
O208 Co199 2.069 . S
O208 C218 1.289 . S
O209 Co199 2.015 . S
O209 C219 1.257 . S
O210 Co195 2.115 1_556 S
O210 C220 1.274 . S
O211 Co200 1.976 . S
O211 C220 1.251 . S
O212 Co199 2.264 1_556 S
O212 Co200 2.327 . S
O212 C221 1.257 . S
O213 Co200 2.073 . S
O213 C221 1.245 . S
C214 O222 1.259 . S
C214 O223 1.289 . S
C215 O224 1.246 . S
C215 O225 1.257 . S
C216 O204 1.251 . S
C216 O205 1.274 . S
C217 O202 1.245 . S
C217 O203 1.257 . S
C218 O207 1.259 . S
C218 O208 1.289 . S
C219 O206 1.246 . S
C219 O209 1.257 . S
C220 O210 1.274 . S
C220 O211 1.251 . S
C221 O212 1.257 . S
C221 O213 1.245 . S
O222 Co193 2.286 . S
O222 C214 1.259 . S
O223 Co193 2.069 . S
O223 C214 1.289 . S
O224 Co195 2.137 1_566 S
O224 C215 1.246 . S
O225 Co193 2.015 . S
O225 C215 1.257 . S
Co226 O229 2.042 1_556 S
Co226 O236 2.264 1_556 S
Co226 O255 2.286 . S
Co226 O256 2.069 . S
Co226 O258 2.015 1_455 S
Co227 O229 2.122 . S
Co227 O235 2.073 . S
Co227 O236 2.327 . S
Co227 O237 1.976 1_455 S
Co228 O229 2.087 . S
Co228 O231 2.087 1_454 S
Co228 O238 2.111 1_455 S
Co228 O239 2.143 . S
Co228 O243 2.111 1_554 S
Co228 O257 2.143 1_454 S
O229 Co226 2.042 1_554 S
O229 Co227 2.122 . S
O229 Co228 2.087 . S
O229 H230 0.980 . S
H230 O229 0.980 . S
O231 Co228 2.087 1_656 S
O231 Co232 2.042 1_556 S
O231 Co233 2.122 . S
O231 H234 0.980 . S
Co232 O231 2.042 1_554 S
Co232 O240 2.286 . S
Co232 O241 2.069 . S
Co232 O242 2.015 1_655 S
Co232 O245 2.264 1_554 S
Co233 O231 2.122 . S
Co233 O244 1.976 1_655 S
Co233 O245 2.327 . S
Co233 O246 2.073 . S
H234 O231 0.980 . S
O235 Co227 2.073 . S
O235 C250 1.245 . S
O236 Co226 2.264 1_554 S
O236 Co227 2.327 . S
O236 C250 1.257 . S
O237 Co227 1.976 1_655 S
O237 C249 1.251 . S
O238 Co228 2.111 1_655 S
O238 C249 1.274 . S
O239 Co228 2.143 . S
O239 C252 1.246 . S
O240 Co232 2.286 . S
O240 C251 1.259 . S
O241 Co232 2.069 . S
O241 C251 1.289 . S
O242 Co232 2.015 1_455 S
O242 C252 1.257 . S
O243 Co228 2.111 1_556 S
O243 C253 1.274 . S
O244 Co233 1.976 1_455 S
O244 C253 1.251 . S
O245 Co232 2.264 1_556 S
O245 Co233 2.327 . S
O245 C254 1.257 . S
O246 Co233 2.073 . S
O246 C254 1.245 . S
C247 O255 1.259 . S
C247 O256 1.289 . S
C248 O257 1.246 . S
C248 O258 1.257 . S
C249 O237 1.251 . S
C249 O238 1.274 . S
C250 O235 1.245 . S
C250 O236 1.257 . S
C251 O240 1.259 . S
C251 O241 1.289 . S
C252 O239 1.246 . S
C252 O242 1.257 . S
C253 O243 1.274 . S
C253 O244 1.251 . S
C254 O245 1.257 . S
C254 O246 1.245 . S
O255 Co226 2.286 . S
O255 C247 1.259 . S
O256 Co226 2.069 . S
O256 C247 1.289 . S
O257 Co228 2.143 1_656 S
O257 C248 1.246 . S
O258 Co226 2.015 1_655 S
O258 C248 1.257 . S
Co259 O262 2.042 1_556 S
Co259 O269 2.264 1_556 S
Co259 O288 2.286 . S
Co259 O289 2.069 . S
Co259 O291 2.015 . S
Co260 O262 2.122 . S
Co260 O268 2.073 . S
Co260 O269 2.327 . S
Co260 O270 1.976 . S
Co261 O262 2.087 . S
Co261 O264 2.087 1_554 S
Co261 O271 2.111 . S
Co261 O272 2.143 . S
Co261 O276 2.111 1_554 S
Co261 O290 2.143 1_554 S
O262 Co259 2.042 1_554 S
O262 Co260 2.122 . S
O262 Co261 2.087 . S
O262 H263 0.980 . S
H263 O262 0.980 . S
O264 Co261 2.087 1_556 S
O264 Co265 2.042 1_556 S
O264 Co266 2.122 . S
O264 H267 0.980 . S
Co265 O264 2.042 1_554 S
Co265 O273 2.286 . S
Co265 O274 2.069 . S
Co265 O275 2.015 . S
Co265 O278 2.264 1_554 S
Co266 O264 2.122 . S
Co266 O277 1.976 . S
Co266 O278 2.327 . S
Co266 O279 2.073 . S
H267 O264 0.980 . S
O268 Co260 2.073 . S
O268 C283 1.245 . S
O269 Co259 2.264 1_554 S
O269 Co260 2.327 . S
O269 C283 1.257 . S
O270 Co260 1.976 . S
O270 C282 1.251 . S
O271 Co261 2.111 . S
O271 C282 1.274 . S
O272 Co261 2.143 . S
O272 C285 1.246 . S
O273 Co265 2.286 . S
O273 C284 1.259 . S
O274 Co265 2.069 . S
O274 C284 1.289 . S
O275 Co265 2.015 . S
O275 C285 1.257 . S
O276 Co261 2.111 1_556 S
O276 C286 1.274 . S
O277 Co266 1.976 . S
O277 C286 1.251 . S
O278 Co265 2.264 1_556 S
O278 Co266 2.327 . S
O278 C287 1.257 . S
O279 Co266 2.073 . S
O279 C287 1.245 . S
C280 O288 1.259 . S
C280 O289 1.289 . S
C281 O290 1.246 . S
C281 O291 1.257 . S
C282 O270 1.251 . S
C282 O271 1.274 . S
C283 O268 1.245 . S
C283 O269 1.257 . S
C284 O273 1.259 . S
C284 O274 1.289 . S
C285 O272 1.246 . S
C285 O275 1.257 . S
C286 O276 1.274 . S
C286 O277 1.251 . S
C287 O278 1.257 . S
C287 O279 1.245 . S
O288 Co259 2.286 . S
O288 C280 1.259 . S
O289 Co259 2.069 . S
O289 C280 1.289 . S
O290 Co261 2.143 1_556 S
O290 C281 1.246 . S
O291 Co259 2.015 . S
O291 C281 1.257 . S
Co292 O295 2.042 . S
Co292 O302 2.264 . S
Co292 O321 2.286 . S
Co292 O322 2.069 . S
Co292 O324 2.015 . S
Co293 O295 2.122 . S
Co293 O301 2.073 . S
Co293 O302 2.327 . S
Co293 O303 1.976 . S
Co294 O295 2.087 . S
Co294 O297 2.087 1_455 S
Co294 O304 2.111 . S
Co294 O305 2.143 1_455 S
Co294 O309 2.111 1_455 S
Co294 O323 2.143 . S
O295 Co292 2.042 . S
O295 Co293 2.122 . S
O295 Co294 2.087 . S
O295 H296 0.980 . S
H296 O295 0.980 . S
O297 Co294 2.087 1_655 S
O297 Co298 2.042 . S
O297 Co299 2.122 . S
O297 H300 0.980 . S
Co298 O297 2.042 . S
Co298 O306 2.286 . S
Co298 O307 2.069 . S
Co298 O308 2.015 . S
Co298 O311 2.264 . S
Co299 O297 2.122 . S
Co299 O310 1.976 . S
Co299 O311 2.327 . S
Co299 O312 2.073 . S
H300 O297 0.980 . S
O301 Co293 2.073 . S
O301 C316 1.245 . S
O302 Co292 2.264 . S
O302 Co293 2.327 . S
O302 C316 1.257 . S
O303 Co293 1.976 . S
O303 C315 1.251 . S
O304 Co294 2.111 . S
O304 C315 1.274 . S
O305 Co294 2.143 1_655 S
O305 C318 1.246 . S
O306 Co298 2.286 . S
O306 C317 1.259 . S
O307 Co298 2.069 . S
O307 C317 1.289 . S
O308 Co298 2.015 . S
O308 C318 1.257 . S
O309 Co294 2.111 1_655 S
O309 C319 1.274 . S
O310 Co299 1.976 . S
O310 C319 1.251 . S
O311 Co298 2.264 . S
O311 Co299 2.327 . S
O311 C320 1.257 . S
O312 Co299 2.073 . S
O312 C320 1.245 . S
C313 O321 1.259 . S
C313 O322 1.289 . S
C314 O323 1.246 . S
C314 O324 1.257 . S
C315 O303 1.251 . S
C315 O304 1.274 . S
C316 O301 1.245 . S
C316 O302 1.257 . S
C317 O306 1.259 . S
C317 O307 1.289 . S
C318 O305 1.246 . S
C318 O308 1.257 . S
C319 O309 1.274 . S
C319 O310 1.251 . S
C320 O311 1.257 . S
C320 O312 1.245 . S
O321 Co292 2.286 . S
O321 C313 1.259 . S
O322 Co292 2.069 . S
O322 C313 1.289 . S
O323 Co294 2.143 . S
O323 C314 1.246 . S
O324 Co292 2.015 . S
O324 C314 1.257 . S
Co325 O328 2.042 . S
Co325 O335 2.264 . S
Co325 O354 2.286 . S
Co325 O355 2.069 . S
Co325 O357 2.015 1_565 S
Co326 O328 2.122 . S
Co326 O334 2.073 . S
Co326 O335 2.327 . S
Co326 O336 1.976 1_565 S
Co327 O328 2.078 1_545 S
Co327 O330 2.096 . S
Co327 O337 2.118 . S
Co327 O338 2.139 1_545 S
Co327 O342 2.104 1_545 S
Co327 O356 2.148 . S
O328 Co325 2.042 . S
O328 Co326 2.122 . S
O328 Co327 2.078 1_565 S
O328 H329 0.980 . S
H329 O328 0.980 . S
O330 Co327 2.096 . S
O330 Co331 2.042 . S
O330 Co332 2.122 . S
O330 H333 0.980 . S
Co331 O330 2.042 . S
Co331 O339 2.286 . S
Co331 O340 2.069 . S
Co331 O341 2.015 1_545 S
Co331 O344 2.264 . S
Co332 O330 2.122 . S
Co332 O343 1.976 1_545 S
Co332 O344 2.327 . S
Co332 O345 2.073 . S
H333 O330 0.980 . S
O334 Co326 2.073 . S
O334 C349 1.245 . S
O335 Co325 2.264 . S
O335 Co326 2.327 . S
O335 C349 1.257 . S
O336 Co326 1.976 1_545 S
O336 C348 1.251 . S
O337 Co327 2.118 . S
O337 C348 1.274 . S
O338 Co327 2.139 1_565 S
O338 C351 1.246 . S
O339 Co331 2.286 . S
O339 C350 1.259 . S
O340 Co331 2.069 . S
O340 C350 1.289 . S
O341 Co331 2.015 1_565 S
O341 C351 1.257 . S
O342 Co327 2.104 1_565 S
O342 C352 1.274 . S
O343 Co332 1.976 1_565 S
O343 C352 1.251 . S
O344 Co331 2.264 . S
O344 Co332 2.327 . S
O344 C353 1.257 . S
O345 Co332 2.073 . S
O345 C353 1.245 . S
C346 O354 1.259 . S
C346 O355 1.289 . S
C347 O356 1.246 . S
C347 O357 1.257 . S
C348 O336 1.251 . S
C348 O337 1.274 . S
C349 O334 1.245 . S
C349 O335 1.257 . S
C350 O339 1.259 . S
C350 O340 1.289 . S
C351 O338 1.246 . S
C351 O341 1.257 . S
C352 O342 1.274 . S
C352 O343 1.251 . S
C353 O344 1.257 . S
C353 O345 1.245 . S
O354 Co325 2.286 . S
O354 C346 1.259 . S
O355 Co325 2.069 . S
O355 C346 1.289 . S
O356 Co327 2.148 . S
O356 C347 1.246 . S
O357 Co325 2.015 1_545 S
O357 C347 1.257 . S
H358 C366 0.929 . S
H359 C368 0.930 . S
H360 C370 0.930 . S
H361 C373 0.929 . S
H362 C376 0.930 . S
H363 C378 0.960 . S
H364 C378 0.960 . S
H365 C378 0.960 . S
C366 H358 0.929 . S
C366 C367 1.377 . S
C366 C368 1.384 . S
C367 C366 1.377 . S
C367 C373 1.390 . S
C368 H359 0.930 . S
C368 C366 1.384 . S
C368 C369 1.372 . S
C369 C368 1.372 . S
C369 C370 1.400 . S
C369 C374 1.490 . S
C370 H360 0.930 . S
C370 C369 1.400 . S
C370 C373 1.386 . S
H371 C387 0.930 . S
H372 C388 0.931 . S
C373 H361 0.929 . S
C373 C367 1.390 . S
C373 C370 1.386 . S
C374 C369 1.490 . S
C374 C376 1.395 . S
C374 C377 1.403 . S
H375 C381 0.930 . S
C376 H362 0.930 . S
C376 C374 1.395 . S
C376 C379 1.403 . S
C377 C374 1.403 . S
C377 C378 1.524 . S
C377 C381 1.400 . S
C378 H363 0.960 . S
C378 H364 0.960 . S
C378 H365 0.960 . S
C378 C377 1.524 . S
C379 C376 1.403 . S
C379 C380 1.392 . S
C379 C383 1.495 . S
C380 C379 1.392 . S
C380 C381 1.385 . S
C380 C382 1.478 . S
C381 H375 0.930 . S
C381 C377 1.400 . S
C381 C380 1.385 . S
C382 C380 1.478 . S
C382 C384 1.381 . S
C382 C388 1.383 . S
C383 C379 1.495 . S
C383 H389 0.959 . S
C383 H390 0.961 . S
C383 H391 0.960 . S
C384 C382 1.381 . S
C384 C385 1.394 . S
C384 H392 0.930 . S
C385 C384 1.394 . S
C385 C386 1.383 . S
C385 H393 0.929 . S
C386 C385 1.383 . S
C386 C387 1.377 . S
C387 H371 0.930 . S
C387 C386 1.377 . S
C387 C388 1.379 . S
C388 H372 0.931 . S
C388 C382 1.383 . S
C388 C387 1.379 . S
H389 C383 0.959 . S
H390 C383 0.961 . S
H391 C383 0.960 . S
H392 C384 0.930 . S
H393 C385 0.929 . S
H394 C402 0.929 . S
H395 C404 0.930 . S
H396 C406 0.930 . S
H397 C409 0.929 . S
H398 C412 0.930 . S
H399 C414 0.960 . S
H400 C414 0.960 . S
H401 C414 0.960 . S
C402 H394 0.929 . S
C402 C403 1.377 . S
C402 C404 1.384 . S
C403 C402 1.377 . S
C403 C409 1.390 . S
C404 H395 0.930 . S
C404 C402 1.384 . S
C404 C405 1.372 . S
C405 C404 1.372 . S
C405 C406 1.400 . S
C405 C410 1.490 . S
C406 H396 0.930 . S
C406 C405 1.400 . S
C406 C409 1.386 . S
H407 C423 0.930 . S
H408 C424 0.931 . S
C409 H397 0.929 . S
C409 C403 1.390 . S
C409 C406 1.386 . S
C410 C405 1.490 . S
C410 C412 1.395 . S
C410 C413 1.403 . S
H411 C417 0.930 . S
C412 H398 0.930 . S
C412 C410 1.395 . S
C412 C415 1.403 . S
C413 C410 1.403 . S
C413 C414 1.524 . S
C413 C417 1.400 . S
C414 H399 0.960 . S
C414 H400 0.960 . S
C414 H401 0.960 . S
C414 C413 1.524 . S
C415 C412 1.403 . S
C415 C416 1.392 . S
C415 C419 1.495 . S
C416 C415 1.392 . S
C416 C417 1.385 . S
C416 C418 1.478 . S
C417 H411 0.930 . S
C417 C413 1.400 . S
C417 C416 1.385 . S
C418 C416 1.478 . S
C418 C420 1.381 . S
C418 C424 1.383 . S
C419 C415 1.495 . S
C419 H425 0.959 . S
C419 H426 0.961 . S
C419 H427 0.960 . S
C420 C418 1.381 . S
C420 C421 1.394 . S
C420 H428 0.930 . S
C421 C420 1.394 . S
C421 C422 1.383 . S
C421 H429 0.929 . S
C422 C421 1.383 . S
C422 C423 1.377 . S
C423 H407 0.930 . S
C423 C422 1.377 . S
C423 C424 1.379 . S
C424 H408 0.931 . S
C424 C418 1.383 . S
C424 C423 1.379 . S
H425 C419 0.959 . S
H426 C419 0.961 . S
H427 C419 0.960 . S
H428 C420 0.930 . S
H429 C421 0.929 . S
H430 C438 0.929 . S
H431 C440 0.930 . S
H432 C442 0.930 . S
H433 C445 0.929 . S
H434 C448 0.930 . S
H435 C450 0.960 . S
H436 C450 0.960 . S
H437 C450 0.960 . S
C438 H430 0.929 . S
C438 C439 1.377 . S
C438 C440 1.384 . S
C439 C438 1.377 . S
C439 C445 1.390 . S
C440 H431 0.930 . S
C440 C438 1.384 . S
C440 C441 1.372 . S
C441 C440 1.372 . S
C441 C442 1.400 . S
C441 C446 1.490 . S
C442 H432 0.930 . S
C442 C441 1.400 . S
C442 C445 1.386 . S
H443 C459 0.930 . S
H444 C460 0.931 . S
C445 H433 0.929 . S
C445 C439 1.390 . S
C445 C442 1.386 . S
C446 C441 1.490 . S
C446 C448 1.395 . S
C446 C449 1.403 . S
H447 C453 0.930 . S
C448 H434 0.930 . S
C448 C446 1.395 . S
C448 C451 1.403 . S
C449 C446 1.403 . S
C449 C450 1.524 . S
C449 C453 1.400 . S
C450 H435 0.960 . S
C450 H436 0.960 . S
C450 H437 0.960 . S
C450 C449 1.524 . S
C451 C448 1.403 . S
C451 C452 1.392 . S
C451 C455 1.495 . S
C452 C451 1.392 . S
C452 C453 1.385 . S
C452 C454 1.478 . S
C453 H447 0.930 . S
C453 C449 1.400 . S
C453 C452 1.385 . S
C454 C452 1.478 . S
C454 C456 1.381 . S
C454 C460 1.383 . S
C455 C451 1.495 . S
C455 H461 0.959 . S
C455 H462 0.961 . S
C455 H463 0.960 . S
C456 C454 1.381 . S
C456 C457 1.394 . S
C456 H464 0.930 . S
C457 C456 1.394 . S
C457 C458 1.383 . S
C457 H465 0.929 . S
C458 C457 1.383 . S
C458 C459 1.377 . S
C459 H443 0.930 . S
C459 C458 1.377 . S
C459 C460 1.379 . S
C460 H444 0.931 . S
C460 C454 1.383 . S
C460 C459 1.379 . S
H461 C455 0.959 . S
H462 C455 0.961 . S
H463 C455 0.960 . S
H464 C456 0.930 . S
H465 C457 0.929 . S
H466 C474 0.929 . S
H467 C476 0.930 . S
H468 C478 0.930 . S
H469 C481 0.929 . S
H470 C484 0.930 . S
H471 C486 0.960 . S
H472 C486 0.960 . S
H473 C486 0.960 . S
C474 H466 0.929 . S
C474 C475 1.377 . S
C474 C476 1.384 . S
C475 C474 1.377 . S
C475 C481 1.390 . S
C476 H467 0.930 . S
C476 C474 1.384 . S
C476 C477 1.372 . S
C477 C476 1.372 . S
C477 C478 1.400 . S
C477 C482 1.490 . S
C478 H468 0.930 . S
C478 C477 1.400 . S
C478 C481 1.386 . S
H479 C495 0.930 . S
H480 C496 0.931 . S
C481 H469 0.929 . S
C481 C475 1.390 . S
C481 C478 1.386 . S
C482 C477 1.490 . S
C482 C484 1.395 . S
C482 C485 1.403 . S
H483 C489 0.930 . S
C484 H470 0.930 . S
C484 C482 1.395 . S
C484 C487 1.403 . S
C485 C482 1.403 . S
C485 C486 1.524 . S
C485 C489 1.400 . S
C486 H471 0.960 . S
C486 H472 0.960 . S
C486 H473 0.960 . S
C486 C485 1.524 . S
C487 C484 1.403 . S
C487 C488 1.392 . S
C487 C491 1.495 . S
C488 C487 1.392 . S
C488 C489 1.385 . S
C488 C490 1.478 . S
C489 H483 0.930 . S
C489 C485 1.400 . S
C489 C488 1.385 . S
C490 C488 1.478 . S
C490 C492 1.381 . S
C490 C496 1.383 . S
C491 C487 1.495 . S
C491 H497 0.959 . S
C491 H498 0.961 . S
C491 H499 0.960 . S
C492 C490 1.381 . S
C492 C493 1.394 . S
C492 H500 0.930 . S
C493 C492 1.394 . S
C493 C494 1.383 . S
C493 H501 0.929 . S
C494 C493 1.383 . S
C494 C495 1.377 . S
C495 H479 0.930 . S
C495 C494 1.377 . S
C495 C496 1.379 . S
C496 H480 0.931 . S
C496 C490 1.383 . S
C496 C495 1.379 . S
H497 C491 0.959 . S
H498 C491 0.961 . S
H499 C491 0.960 . S
H500 C492 0.930 . S
H501 C493 0.929 . S
H502 C510 0.929 . S
H503 C512 0.930 . S
H504 C514 0.930 . S
H505 C517 0.929 . S
H506 C520 0.930 . S
H507 C522 0.960 . S
H508 C522 0.960 . S
H509 C522 0.960 . S
C510 H502 0.929 . S
C510 C511 1.377 . S
C510 C512 1.384 . S
C511 C510 1.377 . S
C511 C517 1.390 . S
C512 H503 0.930 . S
C512 C510 1.384 . S
C512 C513 1.372 . S
C513 C512 1.372 . S
C513 C514 1.400 . S
C513 C518 1.490 . S
C514 H504 0.930 . S
C514 C513 1.400 . S
C514 C517 1.386 . S
H515 C531 0.930 . S
H516 C532 0.931 . S
C517 H505 0.929 . S
C517 C511 1.390 . S
C517 C514 1.386 . S
C518 C513 1.490 . S
C518 C520 1.395 . S
C518 C521 1.403 . S
H519 C525 0.930 . S
C520 H506 0.930 . S
C520 C518 1.395 . S
C520 C523 1.403 . S
C521 C518 1.403 . S
C521 C522 1.524 . S
C521 C525 1.400 . S
C522 H507 0.960 . S
C522 H508 0.960 . S
C522 H509 0.960 . S
C522 C521 1.524 . S
C523 C520 1.403 . S
C523 C524 1.392 . S
C523 C527 1.495 . S
C524 C523 1.392 . S
C524 C525 1.385 . S
C524 C526 1.478 . S
C525 H519 0.930 . S
C525 C521 1.400 . S
C525 C524 1.385 . S
C526 C524 1.478 . S
C526 C528 1.381 . S
C526 C532 1.383 . S
C527 C523 1.495 . S
C527 H533 0.959 . S
C527 H534 0.961 . S
C527 H535 0.960 . S
C528 C526 1.381 . S
C528 C529 1.394 . S
C528 H536 0.930 . S
C529 C528 1.394 . S
C529 C530 1.383 . S
C529 H537 0.929 . S
C530 C529 1.383 . S
C530 C531 1.377 . S
C531 H515 0.930 . S
C531 C530 1.377 . S
C531 C532 1.379 . S
C532 H516 0.931 . S
C532 C526 1.383 . S
C532 C531 1.379 . S
H533 C527 0.959 . S
H534 C527 0.961 . S
H535 C527 0.960 . S
H536 C528 0.930 . S
H537 C529 0.929 . S
H538 C546 0.929 . S
H539 C548 0.930 . S
H540 C550 0.930 . S
H541 C553 0.929 . S
H542 C556 0.930 . S
H543 C558 0.960 . S
H544 C558 0.960 . S
H545 C558 0.960 . S
C546 H538 0.929 . S
C546 C547 1.377 . S
C546 C548 1.384 . S
C547 C546 1.377 . S
C547 C553 1.390 . S
C548 H539 0.930 . S
C548 C546 1.384 . S
C548 C549 1.372 . S
C549 C548 1.372 . S
C549 C550 1.400 . S
C549 C554 1.490 . S
C550 H540 0.930 . S
C550 C549 1.400 . S
C550 C553 1.386 . S
H551 C567 0.930 . S
H552 C568 0.931 . S
C553 H541 0.929 . S
C553 C547 1.390 . S
C553 C550 1.386 . S
C554 C549 1.490 . S
C554 C556 1.395 . S
C554 C557 1.403 . S
H555 C561 0.930 . S
C556 H542 0.930 . S
C556 C554 1.395 . S
C556 C559 1.403 . S
C557 C554 1.403 . S
C557 C558 1.524 . S
C557 C561 1.400 . S
C558 H543 0.960 . S
C558 H544 0.960 . S
C558 H545 0.960 . S
C558 C557 1.524 . S
C559 C556 1.403 . S
C559 C560 1.392 . S
C559 C563 1.495 . S
C560 C559 1.392 . S
C560 C561 1.385 . S
C560 C562 1.478 . S
C561 H555 0.930 . S
C561 C557 1.400 . S
C561 C560 1.385 . S
C562 C560 1.478 . S
C562 C564 1.381 . S
C562 C568 1.383 . S
C563 C559 1.495 . S
C563 H569 0.959 . S
C563 H570 0.961 . S
C563 H571 0.960 . S
C564 C562 1.381 . S
C564 C565 1.394 . S
C564 H572 0.930 . S
C565 C564 1.394 . S
C565 C566 1.383 . S
C565 H573 0.929 . S
C566 C565 1.383 . S
C566 C567 1.377 . S
C567 H551 0.930 . S
C567 C566 1.377 . S
C567 C568 1.379 . S
C568 H552 0.931 . S
C568 C562 1.383 . S
C568 C567 1.379 . S
H569 C563 0.959 . S
H570 C563 0.961 . S
H571 C563 0.960 . S
H572 C564 0.930 . S
H573 C565 0.929 . S
H574 C582 0.929 . S
H575 C584 0.930 . S
H576 C586 0.930 . S
H577 C589 0.929 . S
H578 C592 0.930 . S
H579 C594 0.960 . S
H580 C594 0.960 . S
H581 C594 0.960 . S
C582 H574 0.929 . S
C582 C583 1.377 . S
C582 C584 1.384 . S
C583 C582 1.377 . S
C583 C589 1.390 . S
C584 H575 0.930 . S
C584 C582 1.384 . S
C584 C585 1.372 . S
C585 C584 1.372 . S
C585 C586 1.400 . S
C585 C590 1.490 . S
C586 H576 0.930 . S
C586 C585 1.400 . S
C586 C589 1.386 . S
H587 C603 0.930 . S
H588 C604 0.931 . S
C589 H577 0.929 . S
C589 C583 1.390 . S
C589 C586 1.386 . S
C590 C585 1.490 . S
C590 C592 1.395 . S
C590 C593 1.403 . S
H591 C597 0.930 . S
C592 H578 0.930 . S
C592 C590 1.395 . S
C592 C595 1.403 . S
C593 C590 1.403 . S
C593 C594 1.524 . S
C593 C597 1.400 . S
C594 H579 0.960 . S
C594 H580 0.960 . S
C594 H581 0.960 . S
C594 C593 1.524 . S
C595 C592 1.403 . S
C595 C596 1.392 . S
C595 C599 1.495 . S
C596 C595 1.392 . S
C596 C597 1.385 . S
C596 C598 1.478 . S
C597 H591 0.930 . S
C597 C593 1.400 . S
C597 C596 1.385 . S
C598 C596 1.478 . S
C598 C600 1.381 . S
C598 C604 1.383 . S
C599 C595 1.495 . S
C599 H605 0.959 . S
C599 H606 0.961 . S
C599 H607 0.960 . S
C600 C598 1.381 . S
C600 C601 1.394 . S
C600 H608 0.930 . S
C601 C600 1.394 . S
C601 C602 1.383 . S
C601 H609 0.929 . S
C602 C601 1.383 . S
C602 C603 1.377 . S
C603 H587 0.930 . S
C603 C602 1.377 . S
C603 C604 1.379 . S
C604 H588 0.931 . S
C604 C598 1.383 . S
C604 C603 1.379 . S
H605 C599 0.959 . S
H606 C599 0.961 . S
H607 C599 0.960 . S
H608 C600 0.930 . S
H609 C601 0.929 . S
H610 C618 0.929 . S
H611 C620 0.930 . S
H612 C622 0.930 . S
H613 C625 0.929 . S
H614 C628 0.930 . S
H615 C630 0.960 . S
H616 C630 0.960 . S
H617 C630 0.960 . S
C618 H610 0.929 . S
C618 C619 1.377 . S
C618 C620 1.384 . S
C619 C618 1.377 . S
C619 C625 1.390 . S
C620 H611 0.930 . S
C620 C618 1.384 . S
C620 C621 1.372 . S
C621 C620 1.372 . S
C621 C622 1.400 . S
C621 C626 1.490 . S
C622 H612 0.930 . S
C622 C621 1.400 . S
C622 C625 1.386 . S
H623 C639 0.930 . S
H624 C640 0.931 . S
C625 H613 0.929 . S
C625 C619 1.390 . S
C625 C622 1.386 . S
C626 C621 1.490 . S
C626 C628 1.395 . S
C626 C629 1.403 . S
H627 C633 0.930 . S
C628 H614 0.930 . S
C628 C626 1.395 . S
C628 C631 1.403 . S
C629 C626 1.403 . S
C629 C630 1.524 . S
C629 C633 1.400 . S
C630 H615 0.960 . S
C630 H616 0.960 . S
C630 H617 0.960 . S
C630 C629 1.524 . S
C631 C628 1.403 . S
C631 C632 1.392 . S
C631 C635 1.495 . S
C632 C631 1.392 . S
C632 C633 1.385 . S
C632 C634 1.478 . S
C633 H627 0.930 . S
C633 C629 1.400 . S
C633 C632 1.385 . S
C634 C632 1.478 . S
C634 C636 1.381 . S
C634 C640 1.383 . S
C635 C631 1.495 . S
C635 H641 0.959 . S
C635 H642 0.961 . S
C635 H643 0.960 . S
C636 C634 1.381 . S
C636 C637 1.394 . S
C636 H644 0.930 . S
C637 C636 1.394 . S
C637 C638 1.383 . S
C637 H645 0.929 . S
C638 C637 1.383 . S
C638 C639 1.377 . S
C639 H623 0.930 . S
C639 C638 1.377 . S
C639 C640 1.379 . S
C640 H624 0.931 . S
C640 C634 1.383 . S
C640 C639 1.379 . S
H641 C635 0.959 . S
H642 C635 0.961 . S
H643 C635 0.960 . S
H644 C636 0.930 . S
H645 C637 0.929 . S
H646 C654 0.929 . S
H647 C656 0.930 . S
H648 C658 0.930 . S
H649 C661 0.929 . S
H650 C664 0.930 . S
H651 C666 0.960 . S
H652 C666 0.960 . S
H653 C666 0.960 . S
C654 H646 0.929 . S
C654 C655 1.377 . S
C654 C656 1.384 . S
C655 C654 1.377 . S
C655 C661 1.390 . S
C656 H647 0.930 . S
C656 C654 1.384 . S
C656 C657 1.372 . S
C657 C656 1.372 . S
C657 C658 1.400 . S
C657 C662 1.490 . S
C658 H648 0.930 . S
C658 C657 1.400 . S
C658 C661 1.386 . S
H659 C675 0.930 . S
H660 C676 0.931 . S
C661 H649 0.929 . S
C661 C655 1.390 . S
C661 C658 1.386 . S
C662 C657 1.490 . S
C662 C664 1.395 . S
C662 C665 1.403 . S
H663 C669 0.930 . S
C664 H650 0.930 . S
C664 C662 1.395 . S
C664 C667 1.403 . S
C665 C662 1.403 . S
C665 C666 1.524 . S
C665 C669 1.400 . S
C666 H651 0.960 . S
C666 H652 0.960 . S
C666 H653 0.960 . S
C666 C665 1.524 . S
C667 C664 1.403 . S
C667 C668 1.392 . S
C667 C671 1.495 . S
C668 C667 1.392 . S
C668 C669 1.385 . S
C668 C670 1.478 . S
C669 H663 0.930 . S
C669 C665 1.400 . S
C669 C668 1.385 . S
C670 C668 1.478 . S
C670 C672 1.381 . S
C670 C676 1.383 . S
C671 C667 1.495 . S
C671 H677 0.959 . S
C671 H678 0.961 . S
C671 H679 0.960 . S
C672 C670 1.381 . S
C672 C673 1.394 . S
C672 H680 0.930 . S
C673 C672 1.394 . S
C673 C674 1.383 . S
C673 H681 0.929 . S
C674 C673 1.383 . S
C674 C675 1.377 . S
C675 H659 0.930 . S
C675 C674 1.377 . S
C675 C676 1.379 . S
C676 H660 0.931 . S
C676 C670 1.383 . S
C676 C675 1.379 . S
H677 C671 0.959 . S
H678 C671 0.961 . S
H679 C671 0.960 . S
H680 C672 0.930 . S
H681 C673 0.929 . S
H682 C690 0.929 . S
H683 C692 0.930 . S
H684 C694 0.930 . S
H685 C697 0.929 . S
H686 C700 0.930 . S
H687 C702 0.960 . S
H688 C702 0.960 . S
H689 C702 0.960 . S
C690 H682 0.929 . S
C690 C691 1.377 . S
C690 C692 1.384 . S
C691 C690 1.377 . S
C691 C697 1.390 . S
C692 H683 0.930 . S
C692 C690 1.384 . S
C692 C693 1.372 . S
C693 C692 1.372 . S
C693 C694 1.400 . S
C693 C698 1.490 . S
C694 H684 0.930 . S
C694 C693 1.400 . S
C694 C697 1.386 . S
H695 C711 0.930 . S
H696 C712 0.931 . S
C697 H685 0.929 . S
C697 C691 1.390 . S
C697 C694 1.386 . S
C698 C693 1.490 . S
C698 C700 1.395 . S
C698 C701 1.403 . S
H699 C705 0.930 . S
C700 H686 0.930 . S
C700 C698 1.395 . S
C700 C703 1.403 . S
C701 C698 1.403 . S
C701 C702 1.524 . S
C701 C705 1.400 . S
C702 H687 0.960 . S
C702 H688 0.960 . S
C702 H689 0.960 . S
C702 C701 1.524 . S
C703 C700 1.403 . S
C703 C704 1.392 . S
C703 C707 1.495 . S
C704 C703 1.392 . S
C704 C705 1.385 . S
C704 C706 1.478 . S
C705 H699 0.930 . S
C705 C701 1.400 . S
C705 C704 1.385 . S
C706 C704 1.478 . S
C706 C708 1.381 . S
C706 C712 1.383 . S
C707 C703 1.495 . S
C707 H713 0.959 . S
C707 H714 0.961 . S
C707 H715 0.960 . S
C708 C706 1.381 . S
C708 C709 1.394 . S
C708 H716 0.930 . S
C709 C708 1.394 . S
C709 C710 1.383 . S
C709 H717 0.929 . S
C710 C709 1.383 . S
C710 C711 1.377 . S
C711 H695 0.930 . S
C711 C710 1.377 . S
C711 C712 1.379 . S
C712 H696 0.931 . S
C712 C706 1.383 . S
C712 C711 1.379 . S
H713 C707 0.959 . S
H714 C707 0.961 . S
H715 C707 0.960 . S
H716 C708 0.930 . S
H717 C709 0.929 . S
H718 C726 0.929 . S
H719 C728 0.930 . S
H720 C730 0.930 . S
H721 C733 0.929 . S
H722 C736 0.930 . S
H723 C738 0.960 . S
H724 C738 0.960 . S
H725 C738 0.960 . S
C726 H718 0.929 . S
C726 C727 1.377 . S
C726 C728 1.384 . S
C727 C726 1.377 . S
C727 C733 1.390 . S
C728 H719 0.930 . S
C728 C726 1.384 . S
C728 C729 1.372 . S
C729 C728 1.372 . S
C729 C730 1.400 . S
C729 C734 1.490 . S
C730 H720 0.930 . S
C730 C729 1.400 . S
C730 C733 1.386 . S
H731 C747 0.930 . S
H732 C748 0.931 . S
C733 H721 0.929 . S
C733 C727 1.390 . S
C733 C730 1.386 . S
C734 C729 1.490 . S
C734 C736 1.395 . S
C734 C737 1.403 . S
H735 C741 0.930 . S
C736 H722 0.930 . S
C736 C734 1.395 . S
C736 C739 1.403 . S
C737 C734 1.403 . S
C737 C738 1.524 . S
C737 C741 1.400 . S
C738 H723 0.960 . S
C738 H724 0.960 . S
C738 H725 0.960 . S
C738 C737 1.524 . S
C739 C736 1.403 . S
C739 C740 1.392 . S
C739 C743 1.495 . S
C740 C739 1.392 . S
C740 C741 1.385 . S
C740 C742 1.478 . S
C741 H735 0.930 . S
C741 C737 1.400 . S
C741 C740 1.385 . S
C742 C740 1.478 . S
C742 C744 1.381 . S
C742 C748 1.383 . S
C743 C739 1.495 . S
C743 H749 0.959 . S
C743 H750 0.961 . S
C743 H751 0.960 . S
C744 C742 1.381 . S
C744 C745 1.394 . S
C744 H752 0.930 . S
C745 C744 1.394 . S
C745 C746 1.383 . S
C745 H753 0.929 . S
C746 C745 1.383 . S
C746 C747 1.377 . S
C747 H731 0.930 . S
C747 C746 1.377 . S
C747 C748 1.379 . S
C748 H732 0.931 . S
C748 C742 1.383 . S
C748 C747 1.379 . S
H749 C743 0.959 . S
H750 C743 0.961 . S
H751 C743 0.960 . S
H752 C744 0.930 . S
H753 C745 0.929 . S
H754 C762 0.929 . S
H755 C764 0.930 . S
H756 C766 0.930 . S
H757 C769 0.929 . S
H758 C772 0.930 . S
H759 C774 0.960 . S
H760 C774 0.960 . S
H761 C774 0.960 . S
C762 H754 0.929 . S
C762 C763 1.377 . S
C762 C764 1.384 . S
C763 C762 1.377 . S
C763 C769 1.390 . S
C764 H755 0.930 . S
C764 C762 1.384 . S
C764 C765 1.372 . S
C765 C764 1.372 . S
C765 C766 1.400 . S
C765 C770 1.490 . S
C766 H756 0.930 . S
C766 C765 1.400 . S
C766 C769 1.386 . S
H767 C783 0.930 . S
H768 C784 0.931 . S
C769 H757 0.929 . S
C769 C763 1.390 . S
C769 C766 1.386 . S
C770 C765 1.490 . S
C770 C772 1.395 . S
C770 C773 1.403 . S
H771 C777 0.930 . S
C772 H758 0.930 . S
C772 C770 1.395 . S
C772 C775 1.403 . S
C773 C770 1.403 . S
C773 C774 1.524 . S
C773 C777 1.400 . S
C774 H759 0.960 . S
C774 H760 0.960 . S
C774 H761 0.960 . S
C774 C773 1.524 . S
C775 C772 1.403 . S
C775 C776 1.392 . S
C775 C779 1.495 . S
C776 C775 1.392 . S
C776 C777 1.385 . S
C776 C778 1.478 . S
C777 H771 0.930 . S
C777 C773 1.400 . S
C777 C776 1.385 . S
C778 C776 1.478 . S
C778 C780 1.381 . S
C778 C784 1.383 . S
C779 C775 1.495 . S
C779 H785 0.959 . S
C779 H786 0.961 . S
C779 H787 0.960 . S
C780 C778 1.381 . S
C780 C781 1.394 . S
C780 H788 0.930 . S
C781 C780 1.394 . S
C781 C782 1.383 . S
C781 H789 0.929 . S
C782 C781 1.383 . S
C782 C783 1.377 . S
C783 H767 0.930 . S
C783 C782 1.377 . S
C783 C784 1.379 . S
C784 H768 0.931 . S
C784 C778 1.383 . S
C784 C783 1.379 . S
H785 C779 0.959 . S
H786 C779 0.961 . S
H787 C779 0.960 . S
H788 C780 0.930 . S
H789 C781 0.929 . S
H790 C798 0.929 . S
H791 C800 0.930 . S
H792 C802 0.930 . S
H793 C805 0.929 . S
H794 C808 0.930 . S
H795 C810 0.960 . S
H796 C810 0.960 . S
H797 C810 0.960 . S
C798 H790 0.929 . S
C798 C799 1.377 . S
C798 C800 1.384 . S
C799 C798 1.377 . S
C799 C805 1.390 . S
C800 H791 0.930 . S
C800 C798 1.384 . S
C800 C801 1.372 . S
C801 C800 1.372 . S
C801 C802 1.400 . S
C801 C806 1.490 . S
C802 H792 0.930 . S
C802 C801 1.400 . S
C802 C805 1.386 . S
H803 C819 0.930 . S
H804 C820 0.931 . S
C805 H793 0.929 . S
C805 C799 1.390 . S
C805 C802 1.386 . S
C806 C801 1.490 . S
C806 C808 1.395 . S
C806 C809 1.403 . S
H807 C813 0.930 . S
C808 H794 0.930 . S
C808 C806 1.395 . S
C808 C811 1.403 . S
C809 C806 1.403 . S
C809 C810 1.524 . S
C809 C813 1.400 . S
C810 H795 0.960 . S
C810 H796 0.960 . S
C810 H797 0.960 . S
C810 C809 1.524 . S
C811 C808 1.403 . S
C811 C812 1.392 . S
C811 C815 1.495 . S
C812 C811 1.392 . S
C812 C813 1.385 . S
C812 C814 1.478 . S
C813 H807 0.930 . S
C813 C809 1.400 . S
C813 C812 1.385 . S
C814 C812 1.478 . S
C814 C816 1.381 . S
C814 C820 1.383 . S
C815 C811 1.495 . S
C815 H821 0.959 . S
C815 H822 0.961 . S
C815 H823 0.960 . S
C816 C814 1.381 . S
C816 C817 1.394 . S
C816 H824 0.930 . S
C817 C816 1.394 . S
C817 C818 1.383 . S
C817 H825 0.929 . S
C818 C817 1.383 . S
C818 C819 1.377 . S
C819 H803 0.930 . S
C819 C818 1.377 . S
C819 C820 1.379 . S
C820 H804 0.931 . S
C820 C814 1.383 . S
C820 C819 1.379 . S
H821 C815 0.959 . S
H822 C815 0.961 . S
H823 C815 0.960 . S
H824 C816 0.930 . S
H825 C817 0.929 . S
H826 C834 0.929 . S
H827 C836 0.930 . S
H828 C838 0.930 . S
H829 C841 0.929 . S
H830 C844 0.930 . S
H831 C846 0.960 . S
H832 C846 0.960 . S
H833 C846 0.960 . S
C834 H826 0.929 . S
C834 C835 1.377 . S
C834 C836 1.384 . S
C835 C834 1.377 . S
C835 C841 1.390 . S
C836 H827 0.930 . S
C836 C834 1.384 . S
C836 C837 1.372 . S
C837 C836 1.372 . S
C837 C838 1.400 . S
C837 C842 1.490 . S
C838 H828 0.930 . S
C838 C837 1.400 . S
C838 C841 1.386 . S
H839 C855 0.930 . S
H840 C856 0.931 . S
C841 H829 0.929 . S
C841 C835 1.390 . S
C841 C838 1.386 . S
C842 C837 1.490 . S
C842 C844 1.395 . S
C842 C845 1.403 . S
H843 C849 0.930 . S
C844 H830 0.930 . S
C844 C842 1.395 . S
C844 C847 1.403 . S
C845 C842 1.403 . S
C845 C846 1.524 . S
C845 C849 1.400 . S
C846 H831 0.960 . S
C846 H832 0.960 . S
C846 H833 0.960 . S
C846 C845 1.524 . S
C847 C844 1.403 . S
C847 C848 1.392 . S
C847 C851 1.495 . S
C848 C847 1.392 . S
C848 C849 1.385 . S
C848 C850 1.478 . S
C849 H843 0.930 . S
C849 C845 1.400 . S
C849 C848 1.385 . S
C850 C848 1.478 . S
C850 C852 1.381 . S
C850 C856 1.383 . S
C851 C847 1.495 . S
C851 H857 0.959 . S
C851 H858 0.961 . S
C851 H859 0.960 . S
C852 C850 1.381 . S
C852 C853 1.394 . S
C852 H860 0.930 . S
C853 C852 1.394 . S
C853 C854 1.383 . S
C853 H861 0.929 . S
C854 C853 1.383 . S
C854 C855 1.377 . S
C855 H839 0.930 . S
C855 C854 1.377 . S
C855 C856 1.379 . S
C856 H840 0.931 . S
C856 C850 1.383 . S
C856 C855 1.379 . S
H857 C851 0.959 . S
H858 C851 0.961 . S
H859 C851 0.960 . S
H860 C852 0.930 . S
H861 C853 0.929 . S
H862 C870 0.929 . S
H863 C872 0.930 . S
H864 C874 0.930 . S
H865 C877 0.929 . S
H866 C880 0.930 . S
H867 C882 0.960 . S
H868 C882 0.960 . S
H869 C882 0.960 . S
C870 H862 0.929 . S
C870 C871 1.377 . S
C870 C872 1.384 . S
C871 C870 1.377 . S
C871 C877 1.390 . S
C872 H863 0.930 . S
C872 C870 1.384 . S
C872 C873 1.372 . S
C873 C872 1.372 . S
C873 C874 1.400 . S
C873 C878 1.490 . S
C874 H864 0.930 . S
C874 C873 1.400 . S
C874 C877 1.386 . S
H875 C891 0.930 . S
H876 C892 0.931 . S
C877 H865 0.929 . S
C877 C871 1.390 . S
C877 C874 1.386 . S
C878 C873 1.490 . S
C878 C880 1.395 . S
C878 C881 1.403 . S
H879 C885 0.930 . S
C880 H866 0.930 . S
C880 C878 1.395 . S
C880 C883 1.403 . S
C881 C878 1.403 . S
C881 C882 1.524 . S
C881 C885 1.400 . S
C882 H867 0.960 . S
C882 H868 0.960 . S
C882 H869 0.960 . S
C882 C881 1.524 . S
C883 C880 1.403 . S
C883 C884 1.392 . S
C883 C887 1.495 . S
C884 C883 1.392 . S
C884 C885 1.385 . S
C884 C886 1.478 . S
C885 H879 0.930 . S
C885 C881 1.400 . S
C885 C884 1.385 . S
C886 C884 1.478 . S
C886 C888 1.381 . S
C886 C892 1.383 . S
C887 C883 1.495 . S
C887 H893 0.959 . S
C887 H894 0.961 . S
C887 H895 0.960 . S
C888 C886 1.381 . S
C888 C889 1.394 . S
C888 H896 0.930 . S
C889 C888 1.394 . S
C889 C890 1.383 . S
C889 H897 0.929 1_556 S
C890 C889 1.383 . S
C890 C891 1.377 . S
C891 H875 0.930 . S
C891 C890 1.377 . S
C891 C892 1.379 . S
C892 H876 0.931 . S
C892 C886 1.383 . S
C892 C891 1.379 . S
H893 C887 0.959 . S
H894 C887 0.961 . S
H895 C887 0.960 . S
H896 C888 0.930 . S
H897 C889 0.929 1_554 S
H898 C906 0.929 . S
H899 C908 0.930 . S
H900 C910 0.930 . S
H901 C913 0.929 . S
H902 C916 0.930 . S
H903 C918 0.960 . S
H904 C918 0.960 . S
H905 C918 0.960 . S
C906 H898 0.929 . S
C906 C907 1.377 . S
C906 C908 1.384 . S
C907 C906 1.377 . S
C907 C913 1.390 . S
C908 H899 0.930 . S
C908 C906 1.384 . S
C908 C909 1.372 . S
C909 C908 1.372 . S
C909 C910 1.400 . S
C909 C914 1.490 . S
C910 H900 0.930 . S
C910 C909 1.400 . S
C910 C913 1.386 . S
H911 C927 0.930 . S
H912 C928 0.931 . S
C913 H901 0.929 . S
C913 C907 1.390 . S
C913 C910 1.386 . S
C914 C909 1.490 . S
C914 C916 1.395 . S
C914 C917 1.403 . S
H915 C921 0.930 . S
C916 H902 0.930 . S
C916 C914 1.395 . S
C916 C919 1.403 . S
C917 C914 1.403 . S
C917 C918 1.524 . S
C917 C921 1.400 . S
C918 H903 0.960 . S
C918 H904 0.960 . S
C918 H905 0.960 . S
C918 C917 1.524 . S
C919 C916 1.403 . S
C919 C920 1.392 . S
C919 C923 1.495 . S
C920 C919 1.392 . S
C920 C921 1.385 . S
C920 C922 1.478 . S
C921 H915 0.930 . S
C921 C917 1.400 . S
C921 C920 1.385 . S
C922 C920 1.478 . S
C922 C924 1.381 . S
C922 C928 1.383 . S
C923 C919 1.495 . S
C923 H929 0.959 . S
C923 H930 0.961 . S
C923 H931 0.960 . S
C924 C922 1.381 . S
C924 C925 1.394 . S
C924 H932 0.930 . S
C925 C924 1.394 . S
C925 C926 1.383 . S
C925 H933 0.929 . S
C926 C925 1.383 . S
C926 C927 1.377 . S
C927 H911 0.930 . S
C927 C926 1.377 . S
C927 C928 1.379 . S
C928 H912 0.931 . S
C928 C922 1.383 . S
C928 C927 1.379 . S
H929 C923 0.959 . S
H930 C923 0.961 . S
H931 C923 0.960 . S
H932 C924 0.930 . S
H933 C925 0.929 . S
H934 C942 0.929 . S
H935 C944 0.930 . S
H936 C946 0.930 . S
H937 C949 0.929 . S
H938 C952 0.930 . S
H939 C954 0.960 . S
H940 C954 0.960 . S
H941 C954 0.960 . S
C942 H934 0.929 . S
C942 C943 1.377 . S
C942 C944 1.384 . S
C943 C942 1.377 . S
C943 C949 1.390 . S
C944 H935 0.930 . S
C944 C942 1.384 . S
C944 C945 1.372 . S
C945 C944 1.372 . S
C945 C946 1.400 . S
C945 C950 1.490 . S
C946 H936 0.930 . S
C946 C945 1.400 . S
C946 C949 1.386 . S
H947 C963 0.930 . S
H948 C964 0.931 . S
C949 H937 0.929 . S
C949 C943 1.390 . S
C949 C946 1.386 . S
C950 C945 1.490 . S
C950 C952 1.395 . S
C950 C953 1.403 . S
H951 C957 0.930 . S
C952 H938 0.930 . S
C952 C950 1.395 . S
C952 C955 1.403 . S
C953 C950 1.403 . S
C953 C954 1.524 . S
C953 C957 1.400 . S
C954 H939 0.960 . S
C954 H940 0.960 . S
C954 H941 0.960 . S
C954 C953 1.524 . S
C955 C952 1.403 . S
C955 C956 1.392 . S
C955 C959 1.495 . S
C956 C955 1.392 . S
C956 C957 1.385 . S
C956 C958 1.478 . S
C957 H951 0.930 . S
C957 C953 1.400 . S
C957 C956 1.385 . S
C958 C956 1.478 . S
C958 C960 1.381 . S
C958 C964 1.383 . S
C959 C955 1.495 . S
C959 H965 0.959 . S
C959 H966 0.961 . S
C959 H967 0.960 . S
C960 C958 1.381 . S
C960 C961 1.394 . S
C960 H968 0.930 . S
C961 C960 1.394 . S
C961 C962 1.383 . S
C961 H969 0.929 . S
C962 C961 1.383 . S
C962 C963 1.377 . S
C963 H947 0.930 . S
C963 C962 1.377 . S
C963 C964 1.379 . S
C964 H948 0.931 . S
C964 C958 1.383 . S
C964 C963 1.379 . S
H965 C959 0.959 . S
H966 C959 0.961 . S
H967 C959 0.960 . S
H968 C960 0.930 . S
H969 C961 0.929 . S
H970 C978 0.929 . S
H971 C980 0.930 . S
H972 C982 0.930 . S
H973 C985 0.929 . S
H974 C988 0.930 . S
H975 C990 0.960 . S
H976 C990 0.960 . S
H977 C990 0.960 . S
C978 H970 0.929 . S
C978 C979 1.377 . S
C978 C980 1.384 . S
C979 C978 1.377 . S
C979 C985 1.390 . S
C980 H971 0.930 . S
C980 C978 1.384 . S
C980 C981 1.372 . S
C981 C980 1.372 . S
C981 C982 1.400 . S
C981 C986 1.490 . S
C982 H972 0.930 . S
C982 C981 1.400 . S
C982 C985 1.386 . S
H983 C999 0.930 . S
H984 C1000 0.931 . S
C985 H973 0.929 . S
C985 C979 1.390 . S
C985 C982 1.386 . S
C986 C981 1.490 . S
C986 C988 1.395 . S
C986 C989 1.403 . S
H987 C993 0.930 . S
C988 H974 0.930 . S
C988 C986 1.395 . S
C988 C991 1.403 . S
C989 C986 1.403 . S
C989 C990 1.524 . S
C989 C993 1.400 . S
C990 H975 0.960 . S
C990 H976 0.960 . S
C990 H977 0.960 . S
C990 C989 1.524 . S
C991 C988 1.403 . S
C991 C992 1.392 . S
C991 C995 1.495 . S
C992 C991 1.392 . S
C992 C993 1.385 . S
C992 C994 1.478 . S
C993 H987 0.930 . S
C993 C989 1.400 . S
C993 C992 1.385 . S
C994 C992 1.478 . S
C994 C996 1.381 . S
C994 C1000 1.383 . S
C995 C991 1.495 . S
C995 H1001 0.959 . S
C995 H1002 0.961 . S
C995 H1003 0.960 . S
C996 C994 1.381 . S
C996 C997 1.394 . S
C996 H1004 0.930 . S
C997 C996 1.394 . S
C997 C998 1.383 . S
C997 H1005 0.929 . S
C998 C997 1.383 . S
C998 C999 1.377 . S
C999 H983 0.930 . S
C999 C998 1.377 . S
C999 C1000 1.379 . S
C1000 H984 0.931 . S
C1000 C994 1.383 . S
C1000 C999 1.379 . S
H1001 C995 0.959 . S
H1002 C995 0.961 . S
H1003 C995 0.960 . S
H1004 C996 0.930 . S
H1005 C997 0.929 . S
H1006 C1014 0.929 . S
H1007 C1016 0.930 . S
H1008 C1018 0.930 . S
H1009 C1021 0.929 . S
H1010 C1024 0.930 . S
H1011 C1026 0.960 . S
H1012 C1026 0.960 . S
H1013 C1026 0.960 . S
C1014 H1006 0.929 . S
C1014 C1015 1.377 . S
C1014 C1016 1.384 . S
C1015 C1014 1.377 . S
C1015 C1021 1.390 . S
C1016 H1007 0.930 . S
C1016 C1014 1.384 . S
C1016 C1017 1.372 . S
C1017 C1016 1.372 . S
C1017 C1018 1.400 . S
C1017 C1022 1.490 . S
C1018 H1008 0.930 . S
C1018 C1017 1.400 . S
C1018 C1021 1.386 . S
H1019 C1035 0.930 . S
H1020 C1036 0.931 . S
C1021 H1009 0.929 . S
C1021 C1015 1.390 . S
C1021 C1018 1.386 . S
C1022 C1017 1.490 . S
C1022 C1024 1.395 . S
C1022 C1025 1.403 . S
H1023 C1029 0.930 . S
C1024 H1010 0.930 . S
C1024 C1022 1.395 . S
C1024 C1027 1.403 . S
C1025 C1022 1.403 . S
C1025 C1026 1.524 . S
C1025 C1029 1.400 . S
C1026 H1011 0.960 . S
C1026 H1012 0.960 . S
C1026 H1013 0.960 . S
C1026 C1025 1.524 . S
C1027 C1024 1.403 . S
C1027 C1028 1.392 . S
C1027 C1031 1.495 . S
C1028 C1027 1.392 . S
C1028 C1029 1.385 . S
C1028 C1030 1.478 . S
C1029 H1023 0.930 . S
C1029 C1025 1.400 . S
C1029 C1028 1.385 . S
C1030 C1028 1.478 . S
C1030 C1032 1.381 . S
C1030 C1036 1.383 . S
C1031 C1027 1.495 . S
C1031 H1037 0.959 . S
C1031 H1038 0.961 . S
C1031 H1039 0.960 . S
C1032 C1030 1.381 . S
C1032 C1033 1.394 . S
C1032 H1040 0.930 . S
C1033 C1032 1.394 . S
C1033 C1034 1.383 . S
C1033 H1041 0.929 . S
C1034 C1033 1.383 . S
C1034 C1035 1.377 . S
C1035 H1019 0.930 . S
C1035 C1034 1.377 . S
C1035 C1036 1.379 . S
C1036 H1020 0.931 . S
C1036 C1030 1.383 . S
C1036 C1035 1.379 . S
H1037 C1031 0.959 . S
H1038 C1031 0.961 . S
H1039 C1031 0.960 . S
H1040 C1032 0.930 . S
H1041 C1033 0.929 . S
H1042 C1050 0.929 . S
H1043 C1052 0.930 . S
H1044 C1054 0.930 . S
H1045 C1057 0.929 . S
H1046 C1060 0.930 . S
H1047 C1062 0.960 . S
H1048 C1062 0.960 . S
H1049 C1062 0.960 . S
C1050 H1042 0.929 . S
C1050 C1051 1.377 . S
C1050 C1052 1.384 . S
C1051 C1050 1.377 . S
C1051 C1057 1.390 . S
C1052 H1043 0.930 . S
C1052 C1050 1.384 . S
C1052 C1053 1.372 . S
C1053 C1052 1.372 . S
C1053 C1054 1.400 . S
C1053 C1058 1.490 . S
C1054 H1044 0.930 . S
C1054 C1053 1.400 . S
C1054 C1057 1.386 . S
H1055 C1071 0.930 . S
H1056 C1072 0.931 . S
C1057 H1045 0.929 . S
C1057 C1051 1.390 . S
C1057 C1054 1.386 . S
C1058 C1053 1.490 . S
C1058 C1060 1.395 . S
C1058 C1061 1.403 . S
H1059 C1065 0.930 . S
C1060 H1046 0.930 . S
C1060 C1058 1.395 . S
C1060 C1063 1.403 . S
C1061 C1058 1.403 . S
C1061 C1062 1.524 . S
C1061 C1065 1.400 . S
C1062 H1047 0.960 . S
C1062 H1048 0.960 . S
C1062 H1049 0.960 . S
C1062 C1061 1.524 . S
C1063 C1060 1.403 . S
C1063 C1064 1.392 . S
C1063 C1067 1.495 . S
C1064 C1063 1.392 . S
C1064 C1065 1.385 . S
C1064 C1066 1.478 . S
C1065 H1059 0.930 . S
C1065 C1061 1.400 . S
C1065 C1064 1.385 . S
C1066 C1064 1.478 . S
C1066 C1068 1.381 . S
C1066 C1072 1.383 . S
C1067 C1063 1.495 . S
C1067 H1073 0.959 . S
C1067 H1074 0.961 . S
C1067 H1075 0.960 . S
C1068 C1066 1.381 . S
C1068 C1069 1.394 . S
C1068 H1076 0.930 . S
C1069 C1068 1.394 . S
C1069 C1070 1.383 . S
C1069 H1077 0.929 . S
C1070 C1069 1.383 . S
C1070 C1071 1.377 . S
C1071 H1055 0.930 . S
C1071 C1070 1.377 . S
C1071 C1072 1.379 . S
C1072 H1056 0.931 . S
C1072 C1066 1.383 . S
C1072 C1071 1.379 . S
H1073 C1067 0.959 . S
H1074 C1067 0.961 . S
H1075 C1067 0.960 . S
H1076 C1068 0.930 . S
H1077 C1069 0.929 . S
H1078 C1086 0.929 . S
H1079 C1088 0.930 . S
H1080 C1090 0.930 . S
H1081 C1093 0.929 . S
H1082 C1096 0.930 . S
H1083 C1098 0.960 . S
H1084 C1098 0.960 . S
H1085 C1098 0.960 . S
C1086 H1078 0.929 . S
C1086 C1087 1.377 . S
C1086 C1088 1.384 . S
C1087 C1086 1.377 . S
C1087 C1093 1.390 . S
C1088 H1079 0.930 . S
C1088 C1086 1.384 . S
C1088 C1089 1.372 . S
C1089 C1088 1.372 . S
C1089 C1090 1.400 . S
C1089 C1094 1.490 . S
C1090 H1080 0.930 . S
C1090 C1089 1.400 . S
C1090 C1093 1.386 . S
H1091 C1107 0.930 . S
H1092 C1108 0.931 . S
C1093 H1081 0.929 . S
C1093 C1087 1.390 . S
C1093 C1090 1.386 . S
C1094 C1089 1.490 . S
C1094 C1096 1.395 . S
C1094 C1097 1.403 . S
H1095 C1101 0.930 . S
C1096 H1082 0.930 . S
C1096 C1094 1.395 . S
C1096 C1099 1.403 . S
C1097 C1094 1.403 . S
C1097 C1098 1.524 . S
C1097 C1101 1.400 . S
C1098 H1083 0.960 . S
C1098 H1084 0.960 . S
C1098 H1085 0.960 . S
C1098 C1097 1.524 . S
C1099 C1096 1.403 . S
C1099 C1100 1.392 . S
C1099 C1103 1.495 . S
C1100 C1099 1.392 . S
C1100 C1101 1.385 . S
C1100 C1102 1.478 . S
C1101 H1095 0.930 . S
C1101 C1097 1.400 . S
C1101 C1100 1.385 . S
C1102 C1100 1.478 . S
C1102 C1104 1.381 . S
C1102 C1108 1.383 . S
C1103 C1099 1.495 . S
C1103 H1109 0.959 . S
C1103 H1110 0.961 . S
C1103 H1111 0.960 . S
C1104 C1102 1.381 . S
C1104 C1105 1.394 . S
C1104 H1112 0.930 . S
C1105 C1104 1.394 . S
C1105 C1106 1.383 . S
C1105 H1113 0.929 . S
C1106 C1105 1.383 . S
C1106 C1107 1.377 . S
C1107 H1091 0.930 . S
C1107 C1106 1.377 . S
C1107 C1108 1.379 . S
C1108 H1092 0.931 . S
C1108 C1102 1.383 . S
C1108 C1107 1.379 . S
H1109 C1103 0.959 . S
H1110 C1103 0.961 . S
H1111 C1103 0.960 . S
H1112 C1104 0.930 . S
H1113 C1105 0.929 . S
H1114 C1122 0.929 . S
H1115 C1124 0.930 . S
H1116 C1126 0.930 . S
H1117 C1129 0.929 . S
H1118 C1132 0.930 . S
H1119 C1134 0.960 . S
H1120 C1134 0.960 . S
H1121 C1134 0.960 . S
C1122 H1114 0.929 . S
C1122 C1123 1.377 . S
C1122 C1124 1.384 . S
C1123 C1122 1.377 . S
C1123 C1129 1.390 . S
C1124 H1115 0.930 . S
C1124 C1122 1.384 . S
C1124 C1125 1.372 . S
C1125 C1124 1.372 . S
C1125 C1126 1.400 . S
C1125 C1130 1.490 . S
C1126 H1116 0.930 . S
C1126 C1125 1.400 . S
C1126 C1129 1.386 . S
H1127 C1143 0.930 . S
H1128 C1144 0.931 . S
C1129 H1117 0.929 . S
C1129 C1123 1.390 . S
C1129 C1126 1.386 . S
C1130 C1125 1.490 . S
C1130 C1132 1.395 . S
C1130 C1133 1.403 . S
H1131 C1137 0.930 . S
C1132 H1118 0.930 . S
C1132 C1130 1.395 . S
C1132 C1135 1.403 . S
C1133 C1130 1.403 . S
C1133 C1134 1.524 . S
C1133 C1137 1.400 . S
C1134 H1119 0.960 . S
C1134 H1120 0.960 . S
C1134 H1121 0.960 . S
C1134 C1133 1.524 . S
C1135 C1132 1.403 . S
C1135 C1136 1.392 . S
C1135 C1139 1.495 . S
C1136 C1135 1.392 . S
C1136 C1137 1.385 . S
C1136 C1138 1.478 . S
C1137 H1131 0.930 . S
C1137 C1133 1.400 . S
C1137 C1136 1.385 . S
C1138 C1136 1.478 . S
C1138 C1140 1.381 . S
C1138 C1144 1.383 . S
C1139 C1135 1.495 . S
C1139 H1145 0.959 . S
C1139 H1146 0.961 . S
C1139 H1147 0.960 . S
C1140 C1138 1.381 . S
C1140 C1141 1.394 . S
C1140 H1148 0.930 . S
C1141 C1140 1.394 . S
C1141 C1142 1.383 . S
C1141 H1149 0.929 . S
C1142 C1141 1.383 . S
C1142 C1143 1.377 . S
C1143 H1127 0.930 . S
C1143 C1142 1.377 . S
C1143 C1144 1.379 . S
C1144 H1128 0.931 . S
C1144 C1138 1.383 . S
C1144 C1143 1.379 . S
H1145 C1139 0.959 . S
H1146 C1139 0.961 . S
H1147 C1139 0.960 . S
H1148 C1140 0.930 . S
H1149 C1141 0.929 . S
H1150 C1158 0.929 . S
H1151 C1160 0.930 . S
H1152 C1162 0.930 . S
H1153 C1165 0.929 . S
H1154 C1168 0.930 . S
H1155 C1170 0.960 . S
H1156 C1170 0.960 . S
H1157 C1170 0.960 . S
C1158 H1150 0.929 . S
C1158 C1159 1.377 . S
C1158 C1160 1.384 . S
C1159 C1158 1.377 . S
C1159 C1165 1.390 . S
C1160 H1151 0.930 . S
C1160 C1158 1.384 . S
C1160 C1161 1.372 . S
C1161 C1160 1.372 . S
C1161 C1162 1.400 . S
C1161 C1166 1.490 . S
C1162 H1152 0.930 . S
C1162 C1161 1.400 . S
C1162 C1165 1.386 . S
H1163 C1179 0.930 . S
H1164 C1180 0.931 . S
C1165 H1153 0.929 . S
C1165 C1159 1.390 . S
C1165 C1162 1.386 . S
C1166 C1161 1.490 . S
C1166 C1168 1.395 . S
C1166 C1169 1.403 . S
H1167 C1173 0.930 . S
C1168 H1154 0.930 . S
C1168 C1166 1.395 . S
C1168 C1171 1.403 . S
C1169 C1166 1.403 . S
C1169 C1170 1.524 . S
C1169 C1173 1.400 . S
C1170 H1155 0.960 . S
C1170 H1156 0.960 . S
C1170 H1157 0.960 . S
C1170 C1169 1.524 . S
C1171 C1168 1.403 . S
C1171 C1172 1.392 . S
C1171 C1175 1.495 . S
C1172 C1171 1.392 . S
C1172 C1173 1.385 . S
C1172 C1174 1.478 . S
C1173 H1167 0.930 . S
C1173 C1169 1.400 . S
C1173 C1172 1.385 . S
C1174 C1172 1.478 . S
C1174 C1176 1.381 . S
C1174 C1180 1.383 . S
C1175 C1171 1.495 . S
C1175 H1181 0.959 . S
C1175 H1182 0.961 . S
C1175 H1183 0.960 . S
C1176 C1174 1.381 . S
C1176 C1177 1.394 . S
C1176 H1184 0.930 . S
C1177 C1176 1.394 . S
C1177 C1178 1.383 . S
C1177 H1185 0.929 . S
C1178 C1177 1.383 . S
C1178 C1179 1.377 . S
C1179 H1163 0.930 . S
C1179 C1178 1.377 . S
C1179 C1180 1.379 . S
C1180 H1164 0.931 . S
C1180 C1174 1.383 . S
C1180 C1179 1.379 . S
H1181 C1175 0.959 . S
H1182 C1175 0.961 . S
H1183 C1175 0.960 . S
H1184 C1176 0.930 . S
H1185 C1177 0.929 . S
H1186 C1194 0.929 . S
H1187 C1196 0.930 . S
H1188 C1198 0.930 . S
H1189 C1201 0.929 . S
H1190 C1204 0.930 . S
H1191 C1206 0.960 . S
H1192 C1206 0.960 . S
H1193 C1206 0.960 . S
C1194 H1186 0.929 . S
C1194 C1195 1.377 . S
C1194 C1196 1.384 . S
C1195 C1194 1.377 . S
C1195 C1201 1.390 . S
C1196 H1187 0.930 . S
C1196 C1194 1.384 . S
C1196 C1197 1.372 . S
C1197 C1196 1.372 . S
C1197 C1198 1.400 . S
C1197 C1202 1.490 . S
C1198 H1188 0.930 . S
C1198 C1197 1.400 . S
C1198 C1201 1.386 . S
H1199 C1215 0.930 . S
H1200 C1216 0.931 . S
C1201 H1189 0.929 . S
C1201 C1195 1.390 . S
C1201 C1198 1.386 . S
C1202 C1197 1.490 . S
C1202 C1204 1.395 . S
C1202 C1205 1.403 . S
H1203 C1209 0.930 . S
C1204 H1190 0.930 . S
C1204 C1202 1.395 . S
C1204 C1207 1.403 . S
C1205 C1202 1.403 . S
C1205 C1206 1.524 . S
C1205 C1209 1.400 . S
C1206 H1191 0.960 . S
C1206 H1192 0.960 . S
C1206 H1193 0.960 . S
C1206 C1205 1.524 . S
C1207 C1204 1.403 . S
C1207 C1208 1.392 . S
C1207 C1211 1.495 . S
C1208 C1207 1.392 . S
C1208 C1209 1.385 . S
C1208 C1210 1.478 . S
C1209 H1203 0.930 . S
C1209 C1205 1.400 . S
C1209 C1208 1.385 . S
C1210 C1208 1.478 . S
C1210 C1212 1.381 . S
C1210 C1216 1.383 . S
C1211 C1207 1.495 . S
C1211 H1217 0.959 . S
C1211 H1218 0.961 . S
C1211 H1219 0.960 . S
C1212 C1210 1.381 . S
C1212 C1213 1.394 . S
C1212 H1220 0.930 . S
C1213 C1212 1.394 . S
C1213 C1214 1.383 . S
C1213 H1221 0.929 . S
C1214 C1213 1.383 . S
C1214 C1215 1.377 . S
C1215 H1199 0.930 . S
C1215 C1214 1.377 . S
C1215 C1216 1.379 . S
C1216 H1200 0.931 . S
C1216 C1210 1.383 . S
C1216 C1215 1.379 . S
H1217 C1211 0.959 . S
H1218 C1211 0.961 . S
H1219 C1211 0.960 . S
H1220 C1212 0.930 . S
H1221 C1213 0.929 . S
H1222 C1230 0.929 . S
H1223 C1232 0.930 . S
H1224 C1234 0.930 . S
H1225 C1237 0.929 . S
H1226 C1240 0.930 . S
H1227 C1242 0.960 . S
H1228 C1242 0.960 . S
H1229 C1242 0.960 . S
C1230 H1222 0.929 . S
C1230 C1231 1.377 . S
C1230 C1232 1.384 . S
C1231 C1230 1.377 . S
C1231 C1237 1.390 . S
C1232 H1223 0.930 . S
C1232 C1230 1.384 . S
C1232 C1233 1.372 . S
C1233 C1232 1.372 . S
C1233 C1234 1.400 . S
C1233 C1238 1.490 . S
C1234 H1224 0.930 . S
C1234 C1233 1.400 . S
C1234 C1237 1.386 . S
H1235 C1251 0.930 . S
H1236 C1252 0.931 . S
C1237 H1225 0.929 . S
C1237 C1231 1.390 . S
C1237 C1234 1.386 . S
C1238 C1233 1.490 . S
C1238 C1240 1.395 . S
C1238 C1241 1.403 . S
H1239 C1245 0.930 . S
C1240 H1226 0.930 . S
C1240 C1238 1.395 . S
C1240 C1243 1.403 . S
C1241 C1238 1.403 . S
C1241 C1242 1.524 . S
C1241 C1245 1.400 . S
C1242 H1227 0.960 . S
C1242 H1228 0.960 . S
C1242 H1229 0.960 . S
C1242 C1241 1.524 . S
C1243 C1240 1.403 . S
C1243 C1244 1.392 . S
C1243 C1247 1.495 . S
C1244 C1243 1.392 . S
C1244 C1245 1.385 . S
C1244 C1246 1.478 . S
C1245 H1239 0.930 . S
C1245 C1241 1.400 . S
C1245 C1244 1.385 . S
C1246 C1244 1.478 . S
C1246 C1248 1.381 . S
C1246 C1252 1.383 . S
C1247 C1243 1.495 . S
C1247 H1253 0.959 . S
C1247 H1254 0.961 . S
C1247 H1255 0.960 . S
C1248 C1246 1.381 . S
C1248 C1249 1.394 . S
C1248 H1256 0.930 . S
C1249 C1248 1.394 . S
C1249 C1250 1.383 . S
C1249 H1257 0.929 . S
C1250 C1249 1.383 . S
C1250 C1251 1.377 . S
C1251 H1235 0.930 . S
C1251 C1250 1.377 . S
C1251 C1252 1.379 . S
C1252 H1236 0.931 . S
C1252 C1246 1.383 . S
C1252 C1251 1.379 . S
H1253 C1247 0.959 . S
H1254 C1247 0.961 . S
H1255 C1247 0.960 . S
H1256 C1248 0.930 . S
H1257 C1249 0.929 . S
H1258 C1266 0.929 . S
H1259 C1268 0.930 . S
H1260 C1270 0.930 . S
H1261 C1273 0.929 . S
H1262 C1276 0.930 . S
H1263 C1278 0.960 . S
H1264 C1278 0.960 . S
H1265 C1278 0.960 . S
C1266 H1258 0.929 . S
C1266 C1267 1.377 . S
C1266 C1268 1.384 . S
C1267 C1266 1.377 . S
C1267 C1273 1.390 . S
C1268 H1259 0.930 . S
C1268 C1266 1.384 . S
C1268 C1269 1.372 . S
C1269 C1268 1.372 . S
C1269 C1270 1.400 . S
C1269 C1274 1.490 . S
C1270 H1260 0.930 . S
C1270 C1269 1.400 . S
C1270 C1273 1.386 . S
H1271 C1287 0.930 . S
H1272 C1288 0.931 . S
C1273 H1261 0.929 . S
C1273 C1267 1.390 . S
C1273 C1270 1.386 . S
C1274 C1269 1.490 . S
C1274 C1276 1.395 . S
C1274 C1277 1.403 . S
H1275 C1281 0.930 . S
C1276 H1262 0.930 . S
C1276 C1274 1.395 . S
C1276 C1279 1.403 . S
C1277 C1274 1.403 . S
C1277 C1278 1.524 . S
C1277 C1281 1.400 . S
C1278 H1263 0.960 . S
C1278 H1264 0.960 . S
C1278 H1265 0.960 . S
C1278 C1277 1.524 . S
C1279 C1276 1.403 . S
C1279 C1280 1.392 . S
C1279 C1283 1.495 . S
C1280 C1279 1.392 . S
C1280 C1281 1.385 . S
C1280 C1282 1.478 . S
C1281 H1275 0.930 . S
C1281 C1277 1.400 . S
C1281 C1280 1.385 . S
C1282 C1280 1.478 . S
C1282 C1284 1.381 . S
C1282 C1288 1.383 . S
C1283 C1279 1.495 . S
C1283 H1289 0.959 . S
C1283 H1290 0.961 . S
C1283 H1291 0.960 . S
C1284 C1282 1.381 . S
C1284 C1285 1.394 . S
C1284 H1292 0.930 . S
C1285 C1284 1.394 . S
C1285 C1286 1.383 . S
C1285 H1293 0.929 . S
C1286 C1285 1.383 . S
C1286 C1287 1.377 . S
C1287 H1271 0.930 . S
C1287 C1286 1.377 . S
C1287 C1288 1.379 . S
C1288 H1272 0.931 . S
C1288 C1282 1.383 . S
C1288 C1287 1.379 . S
H1289 C1283 0.959 . S
H1290 C1283 0.961 . S
H1291 C1283 0.960 . S
H1292 C1284 0.930 . S
H1293 C1285 0.929 . S
H1294 C1302 0.929 . S
H1295 C1304 0.930 . S
H1296 C1306 0.930 . S
H1297 C1309 0.929 . S
H1298 C1312 0.930 . S
H1299 C1314 0.960 . S
H1300 C1314 0.960 . S
H1301 C1314 0.960 . S
C1302 H1294 0.929 . S
C1302 C1303 1.377 . S
C1302 C1304 1.384 . S
C1303 C1302 1.377 . S
C1303 C1309 1.390 . S
C1304 H1295 0.930 . S
C1304 C1302 1.384 . S
C1304 C1305 1.372 . S
C1305 C1304 1.372 . S
C1305 C1306 1.400 . S
C1305 C1310 1.490 . S
C1306 H1296 0.930 . S
C1306 C1305 1.400 . S
C1306 C1309 1.386 . S
H1307 C1323 0.930 . S
H1308 C1324 0.931 . S
C1309 H1297 0.929 . S
C1309 C1303 1.390 . S
C1309 C1306 1.386 . S
C1310 C1305 1.490 . S
C1310 C1312 1.395 . S
C1310 C1313 1.403 . S
H1311 C1317 0.930 . S
C1312 H1298 0.930 . S
C1312 C1310 1.395 . S
C1312 C1315 1.403 . S
C1313 C1310 1.403 . S
C1313 C1314 1.524 . S
C1313 C1317 1.400 . S
C1314 H1299 0.960 . S
C1314 H1300 0.960 . S
C1314 H1301 0.960 . S
C1314 C1313 1.524 . S
C1315 C1312 1.403 . S
C1315 C1316 1.392 . S
C1315 C1319 1.495 . S
C1316 C1315 1.392 . S
C1316 C1317 1.385 . S
C1316 C1318 1.478 . S
C1317 H1311 0.930 . S
C1317 C1313 1.400 . S
C1317 C1316 1.385 . S
C1318 C1316 1.478 . S
C1318 C1320 1.381 . S
C1318 C1324 1.383 . S
C1319 C1315 1.495 . S
C1319 H1325 0.959 . S
C1319 H1326 0.961 . S
C1319 H1327 0.960 . S
C1320 C1318 1.381 . S
C1320 C1321 1.394 . S
C1320 H1328 0.930 . S
C1321 C1320 1.394 . S
C1321 C1322 1.383 . S
C1321 H1329 0.929 . S
C1322 C1321 1.383 . S
C1322 C1323 1.377 . S
C1323 H1307 0.930 . S
C1323 C1322 1.377 . S
C1323 C1324 1.379 . S
C1324 H1308 0.931 . S
C1324 C1318 1.383 . S
C1324 C1323 1.379 . S
H1325 C1319 0.959 . S
H1326 C1319 0.961 . S
H1327 C1319 0.960 . S
H1328 C1320 0.930 . S
H1329 C1321 0.929 . S
H1330 C1338 0.929 . S
H1331 C1340 0.930 . S
H1332 C1342 0.930 . S
H1333 C1345 0.929 . S
H1334 C1348 0.930 . S
H1335 C1350 0.960 . S
H1336 C1350 0.960 . S
H1337 C1350 0.960 . S
C1338 H1330 0.929 . S
C1338 C1339 1.377 . S
C1338 C1340 1.384 . S
C1339 C1338 1.377 . S
C1339 C1345 1.390 . S
C1340 H1331 0.930 . S
C1340 C1338 1.384 . S
C1340 C1341 1.372 . S
C1341 C1340 1.372 . S
C1341 C1342 1.400 . S
C1341 C1346 1.490 . S
C1342 H1332 0.930 . S
C1342 C1341 1.400 . S
C1342 C1345 1.386 . S
H1343 C1359 0.930 . S
H1344 C1360 0.931 . S
C1345 H1333 0.929 . S
C1345 C1339 1.390 . S
C1345 C1342 1.386 . S
C1346 C1341 1.490 . S
C1346 C1348 1.395 . S
C1346 C1349 1.403 . S
H1347 C1353 0.930 . S
C1348 H1334 0.930 . S
C1348 C1346 1.395 . S
C1348 C1351 1.403 . S
C1349 C1346 1.403 . S
C1349 C1350 1.524 . S
C1349 C1353 1.400 . S
C1350 H1335 0.960 . S
C1350 H1336 0.960 . S
C1350 H1337 0.960 . S
C1350 C1349 1.524 . S
C1351 C1348 1.403 . S
C1351 C1352 1.392 . S
C1351 C1355 1.495 . S
C1352 C1351 1.392 . S
C1352 C1353 1.385 . S
C1352 C1354 1.478 . S
C1353 H1347 0.930 . S
C1353 C1349 1.400 . S
C1353 C1352 1.385 . S
C1354 C1352 1.478 . S
C1354 C1356 1.381 . S
C1354 C1360 1.383 . S
C1355 C1351 1.495 . S
C1355 H1361 0.959 . S
C1355 H1362 0.961 . S
C1355 H1363 0.960 . S
C1356 C1354 1.381 . S
C1356 C1357 1.394 . S
C1356 H1364 0.930 . S
C1357 C1356 1.394 . S
C1357 C1358 1.383 . S
C1357 H1365 0.929 . S
C1358 C1357 1.383 . S
C1358 C1359 1.377 . S
C1359 H1343 0.930 . S
C1359 C1358 1.377 . S
C1359 C1360 1.379 . S
C1360 H1344 0.931 . S
C1360 C1354 1.383 . S
C1360 C1359 1.379 . S
H1361 C1355 0.959 . S
H1362 C1355 0.961 . S
H1363 C1355 0.960 . S
H1364 C1356 0.930 . S
H1365 C1357 0.929 . S
H1366 C1374 0.929 . S
H1367 C1376 0.930 . S
H1368 C1378 0.930 . S
H1369 C1381 0.929 . S
H1370 C1384 0.930 . S
H1371 C1386 0.960 . S
H1372 C1386 0.960 . S
H1373 C1386 0.960 . S
C1374 H1366 0.929 . S
C1374 C1375 1.377 . S
C1374 C1376 1.384 . S
C1375 C1374 1.377 . S
C1375 C1381 1.390 . S
C1376 H1367 0.930 . S
C1376 C1374 1.384 . S
C1376 C1377 1.372 . S
C1377 C1376 1.372 . S
C1377 C1378 1.400 . S
C1377 C1382 1.490 . S
C1378 H1368 0.930 . S
C1378 C1377 1.400 . S
C1378 C1381 1.386 . S
H1379 C1395 0.930 . S
H1380 C1396 0.931 . S
C1381 H1369 0.929 . S
C1381 C1375 1.390 . S
C1381 C1378 1.386 . S
C1382 C1377 1.490 . S
C1382 C1384 1.395 . S
C1382 C1385 1.403 . S
H1383 C1389 0.930 . S
C1384 H1370 0.930 . S
C1384 C1382 1.395 . S
C1384 C1387 1.403 . S
C1385 C1382 1.403 . S
C1385 C1386 1.524 . S
C1385 C1389 1.400 . S
C1386 H1371 0.960 . S
C1386 H1372 0.960 . S
C1386 H1373 0.960 . S
C1386 C1385 1.524 . S
C1387 C1384 1.403 . S
C1387 C1388 1.392 . S
C1387 C1391 1.495 . S
C1388 C1387 1.392 . S
C1388 C1389 1.385 . S
C1388 C1390 1.478 . S
C1389 H1383 0.930 . S
C1389 C1385 1.400 . S
C1389 C1388 1.385 . S
C1390 C1388 1.478 . S
C1390 C1392 1.381 . S
C1390 C1396 1.383 . S
C1391 C1387 1.495 . S
C1391 H1397 0.959 . S
C1391 H1398 0.961 . S
C1391 H1399 0.960 . S
C1392 C1390 1.381 . S
C1392 C1393 1.394 . S
C1392 H1400 0.930 . S
C1393 C1392 1.394 . S
C1393 C1394 1.383 . S
C1393 H1401 0.929 . S
C1394 C1393 1.383 . S
C1394 C1395 1.377 . S
C1395 H1379 0.930 . S
C1395 C1394 1.377 . S
C1395 C1396 1.379 . S
C1396 H1380 0.931 . S
C1396 C1390 1.383 . S
C1396 C1395 1.379 . S
H1397 C1391 0.959 . S
H1398 C1391 0.961 . S
H1399 C1391 0.960 . S
H1400 C1392 0.930 . S
H1401 C1393 0.929 . S
H1402 C1410 0.929 . S
H1403 C1412 0.930 . S
H1404 C1414 0.930 . S
H1405 C1417 0.929 . S
H1406 C1420 0.930 . S
H1407 C1422 0.960 . S
H1408 C1422 0.960 . S
H1409 C1422 0.960 . S
C1410 H1402 0.929 . S
C1410 C1411 1.377 . S
C1410 C1412 1.384 . S
C1411 C1410 1.377 . S
C1411 C1417 1.390 . S
C1412 H1403 0.930 . S
C1412 C1410 1.384 . S
C1412 C1413 1.372 . S
C1413 C1412 1.372 . S
C1413 C1414 1.400 . S
C1413 C1418 1.490 . S
C1414 H1404 0.930 . S
C1414 C1413 1.400 . S
C1414 C1417 1.386 . S
H1415 C1431 0.930 . S
H1416 C1432 0.931 . S
C1417 H1405 0.929 . S
C1417 C1411 1.390 . S
C1417 C1414 1.386 . S
C1418 C1413 1.490 . S
C1418 C1420 1.395 . S
C1418 C1421 1.403 . S
H1419 C1425 0.930 . S
C1420 H1406 0.930 . S
C1420 C1418 1.395 . S
C1420 C1423 1.403 . S
C1421 C1418 1.403 . S
C1421 C1422 1.524 . S
C1421 C1425 1.400 . S
C1422 H1407 0.960 . S
C1422 H1408 0.960 . S
C1422 H1409 0.960 . S
C1422 C1421 1.524 . S
C1423 C1420 1.403 . S
C1423 C1424 1.392 . S
C1423 C1427 1.495 . S
C1424 C1423 1.392 . S
C1424 C1425 1.385 . S
C1424 C1426 1.478 . S
C1425 H1419 0.930 . S
C1425 C1421 1.400 . S
C1425 C1424 1.385 . S
C1426 C1424 1.478 . S
C1426 C1428 1.381 . S
C1426 C1432 1.383 . S
C1427 C1423 1.495 . S
C1427 H1433 0.959 . S
C1427 H1434 0.961 . S
C1427 H1435 0.960 . S
C1428 C1426 1.381 . S
C1428 C1429 1.394 . S
C1428 H1436 0.930 . S
C1429 C1428 1.394 . S
C1429 C1430 1.383 . S
C1429 H1437 0.929 . S
C1430 C1429 1.383 . S
C1430 C1431 1.377 . S
C1431 H1415 0.930 . S
C1431 C1430 1.377 . S
C1431 C1432 1.379 . S
C1432 H1416 0.931 . S
C1432 C1426 1.383 . S
C1432 C1431 1.379 . S
H1433 C1427 0.959 . S
H1434 C1427 0.961 . S
H1435 C1427 0.960 . S
H1436 C1428 0.930 . S
H1437 C1429 0.929 . S
H1438 C1446 0.929 . S
H1439 C1448 0.930 . S
H1440 C1450 0.930 . S
H1441 C1453 0.929 . S
H1442 C1456 0.930 . S
H1443 C1458 0.960 . S
H1444 C1458 0.960 . S
H1445 C1458 0.960 . S
C1446 H1438 0.929 . S
C1446 C1447 1.377 . S
C1446 C1448 1.384 . S
C1447 C1446 1.377 . S
C1447 C1453 1.390 . S
C1448 H1439 0.930 . S
C1448 C1446 1.384 . S
C1448 C1449 1.372 . S
C1449 C1448 1.372 . S
C1449 C1450 1.400 . S
C1449 C1454 1.490 . S
C1450 H1440 0.930 . S
C1450 C1449 1.400 . S
C1450 C1453 1.386 . S
H1451 C1467 0.930 . S
H1452 C1468 0.931 . S
C1453 H1441 0.929 . S
C1453 C1447 1.390 . S
C1453 C1450 1.386 . S
C1454 C1449 1.490 . S
C1454 C1456 1.395 . S
C1454 C1457 1.403 . S
H1455 C1461 0.930 . S
C1456 H1442 0.930 . S
C1456 C1454 1.395 . S
C1456 C1459 1.403 . S
C1457 C1454 1.403 . S
C1457 C1458 1.524 . S
C1457 C1461 1.400 . S
C1458 H1443 0.960 . S
C1458 H1444 0.960 . S
C1458 H1445 0.960 . S
C1458 C1457 1.524 . S
C1459 C1456 1.403 . S
C1459 C1460 1.392 . S
C1459 C1463 1.495 . S
C1460 C1459 1.392 . S
C1460 C1461 1.385 . S
C1460 C1462 1.478 . S
C1461 H1455 0.930 . S
C1461 C1457 1.400 . S
C1461 C1460 1.385 . S
C1462 C1460 1.478 . S
C1462 C1464 1.381 . S
C1462 C1468 1.383 . S
C1463 C1459 1.495 . S
C1463 H1469 0.959 . S
C1463 H1470 0.961 . S
C1463 H1471 0.960 . S
C1464 C1462 1.381 . S
C1464 C1465 1.394 . S
C1464 H1472 0.930 . S
C1465 C1464 1.394 . S
C1465 C1466 1.383 . S
C1465 H1473 0.929 . S
C1466 C1465 1.383 . S
C1466 C1467 1.377 . S
C1467 H1451 0.930 . S
C1467 C1466 1.377 . S
C1467 C1468 1.379 . S
C1468 H1452 0.931 . S
C1468 C1462 1.383 . S
C1468 C1467 1.379 . S
H1469 C1463 0.959 . S
H1470 C1463 0.961 . S
H1471 C1463 0.960 . S
H1472 C1464 0.930 . S
H1473 C1465 0.929 . S
H1474 C1482 0.929 . S
H1475 C1484 0.930 . S
H1476 C1486 0.930 . S
H1477 C1489 0.929 . S
H1478 C1492 0.930 . S
H1479 C1494 0.960 . S
H1480 C1494 0.960 . S
H1481 C1494 0.960 . S
C1482 H1474 0.929 . S
C1482 C1483 1.377 . S
C1482 C1484 1.384 . S
C1483 C1482 1.377 . S
C1483 C1489 1.390 . S
C1484 H1475 0.930 . S
C1484 C1482 1.384 . S
C1484 C1485 1.372 . S
C1485 C1484 1.372 . S
C1485 C1486 1.400 . S
C1485 C1490 1.490 . S
C1486 H1476 0.930 . S
C1486 C1485 1.400 . S
C1486 C1489 1.386 . S
H1487 C1503 0.930 . S
H1488 C1504 0.931 . S
C1489 H1477 0.929 . S
C1489 C1483 1.390 . S
C1489 C1486 1.386 . S
C1490 C1485 1.490 . S
C1490 C1492 1.395 . S
C1490 C1493 1.403 . S
H1491 C1497 0.930 . S
C1492 H1478 0.930 . S
C1492 C1490 1.395 . S
C1492 C1495 1.403 . S
C1493 C1490 1.403 . S
C1493 C1494 1.524 . S
C1493 C1497 1.400 . S
C1494 H1479 0.960 . S
C1494 H1480 0.960 . S
C1494 H1481 0.960 . S
C1494 C1493 1.524 . S
C1495 C1492 1.403 . S
C1495 C1496 1.392 . S
C1495 C1499 1.495 . S
C1496 C1495 1.392 . S
C1496 C1497 1.385 . S
C1496 C1498 1.478 . S
C1497 H1491 0.930 . S
C1497 C1493 1.400 . S
C1497 C1496 1.385 . S
C1498 C1496 1.478 . S
C1498 C1500 1.381 . S
C1498 C1504 1.383 . S
C1499 C1495 1.495 . S
C1499 H1505 0.959 . S
C1499 H1506 0.961 . S
C1499 H1507 0.960 . S
C1500 C1498 1.381 . S
C1500 C1501 1.394 . S
C1500 H1508 0.930 . S
C1501 C1500 1.394 . S
C1501 C1502 1.383 . S
C1501 H1509 0.929 . S
C1502 C1501 1.383 . S
C1502 C1503 1.377 . S
C1503 H1487 0.930 . S
C1503 C1502 1.377 . S
C1503 C1504 1.379 . S
C1504 H1488 0.931 . S
C1504 C1498 1.383 . S
C1504 C1503 1.379 . S
H1505 C1499 0.959 . S
H1506 C1499 0.961 . S
H1507 C1499 0.960 . S
H1508 C1500 0.930 . S
H1509 C1501 0.929 . S
H1510 C1518 0.929 . S
H1511 C1520 0.930 . S
H1512 C1522 0.930 . S
H1513 C1525 0.929 . S
H1514 C1528 0.930 . S
H1515 C1530 0.960 . S
H1516 C1530 0.960 . S
H1517 C1530 0.960 . S
C1518 H1510 0.929 . S
C1518 C1519 1.377 . S
C1518 C1520 1.384 . S
C1519 C1518 1.377 . S
C1519 C1525 1.390 . S
C1520 H1511 0.930 . S
C1520 C1518 1.384 . S
C1520 C1521 1.372 . S
C1521 C1520 1.372 . S
C1521 C1522 1.400 . S
C1521 C1526 1.490 . S
C1522 H1512 0.930 . S
C1522 C1521 1.400 . S
C1522 C1525 1.386 . S
H1523 C1539 0.930 . S
H1524 C1540 0.931 . S
C1525 H1513 0.929 . S
C1525 C1519 1.390 . S
C1525 C1522 1.386 . S
C1526 C1521 1.490 . S
C1526 C1528 1.395 . S
C1526 C1529 1.403 . S
H1527 C1533 0.930 . S
C1528 H1514 0.930 . S
C1528 C1526 1.395 . S
C1528 C1531 1.403 . S
C1529 C1526 1.403 . S
C1529 C1530 1.524 . S
C1529 C1533 1.400 . S
C1530 H1515 0.960 . S
C1530 H1516 0.960 . S
C1530 H1517 0.960 . S
C1530 C1529 1.524 . S
C1531 C1528 1.403 . S
C1531 C1532 1.392 . S
C1531 C1535 1.495 . S
C1532 C1531 1.392 . S
C1532 C1533 1.385 . S
C1532 C1534 1.478 . S
C1533 H1527 0.930 . S
C1533 C1529 1.400 . S
C1533 C1532 1.385 . S
C1534 C1532 1.478 . S
C1534 C1536 1.381 . S
C1534 C1540 1.383 . S
C1535 C1531 1.495 . S
C1535 H1541 0.959 . S
C1535 H1542 0.961 . S
C1535 H1543 0.960 . S
C1536 C1534 1.381 . S
C1536 C1537 1.394 . S
C1536 H1544 0.930 . S
C1537 C1536 1.394 . S
C1537 C1538 1.383 . S
C1537 H1545 0.929 . S
C1538 C1537 1.383 . S
C1538 C1539 1.377 . S
C1539 H1523 0.930 . S
C1539 C1538 1.377 . S
C1539 C1540 1.379 . S
C1540 H1524 0.931 . S
C1540 C1534 1.383 . S
C1540 C1539 1.379 . S
H1541 C1535 0.959 . S
H1542 C1535 0.961 . S
H1543 C1535 0.960 . S
H1544 C1536 0.930 . S
H1545 C1537 0.929 . S
H1546 C1554 0.929 . S
H1547 C1556 0.930 . S
H1548 C1558 0.930 . S
H1549 C1561 0.929 . S
H1550 C1564 0.930 . S
H1551 C1566 0.960 . S
H1552 C1566 0.960 . S
H1553 C1566 0.960 . S
C1554 H1546 0.929 . S
C1554 C1555 1.377 . S
C1554 C1556 1.384 . S
C1555 C1554 1.377 . S
C1555 C1561 1.390 . S
C1556 H1547 0.930 . S
C1556 C1554 1.384 . S
C1556 C1557 1.372 . S
C1557 C1556 1.372 . S
C1557 C1558 1.400 . S
C1557 C1562 1.490 . S
C1558 H1548 0.930 . S
C1558 C1557 1.400 . S
C1558 C1561 1.386 . S
H1559 C1575 0.930 . S
H1560 C1576 0.931 . S
C1561 H1549 0.929 . S
C1561 C1555 1.390 . S
C1561 C1558 1.386 . S
C1562 C1557 1.490 . S
C1562 C1564 1.395 . S
C1562 C1565 1.403 . S
H1563 C1569 0.930 . S
C1564 H1550 0.930 . S
C1564 C1562 1.395 . S
C1564 C1567 1.403 . S
C1565 C1562 1.403 . S
C1565 C1566 1.524 . S
C1565 C1569 1.400 . S
C1566 H1551 0.960 . S
C1566 H1552 0.960 . S
C1566 H1553 0.960 . S
C1566 C1565 1.524 . S
C1567 C1564 1.403 . S
C1567 C1568 1.392 . S
C1567 C1571 1.495 . S
C1568 C1567 1.392 . S
C1568 C1569 1.385 . S
C1568 C1570 1.478 . S
C1569 H1563 0.930 . S
C1569 C1565 1.400 . S
C1569 C1568 1.385 . S
C1570 C1568 1.478 . S
C1570 C1572 1.381 . S
C1570 C1576 1.383 . S
C1571 C1567 1.495 . S
C1571 H1577 0.959 . S
C1571 H1578 0.961 . S
C1571 H1579 0.960 . S
C1572 C1570 1.381 . S
C1572 C1573 1.394 . S
C1572 H1580 0.930 . S
C1573 C1572 1.394 . S
C1573 C1574 1.383 . S
C1573 H1581 0.929 . S
C1574 C1573 1.383 . S
C1574 C1575 1.377 . S
C1575 H1559 0.930 . S
C1575 C1574 1.377 . S
C1575 C1576 1.379 . S
C1576 H1560 0.931 . S
C1576 C1570 1.383 . S
C1576 C1575 1.379 . S
H1577 C1571 0.959 . S
H1578 C1571 0.961 . S
H1579 C1571 0.960 . S
H1580 C1572 0.930 . S
H1581 C1573 0.929 . S
H1582 C1590 0.929 . S
H1583 C1592 0.930 . S
H1584 C1594 0.930 . S
H1585 C1597 0.929 . S
H1586 C1600 0.930 . S
H1587 C1602 0.960 . S
H1588 C1602 0.960 . S
H1589 C1602 0.960 . S
C1590 H1582 0.929 . S
C1590 C1591 1.377 . S
C1590 C1592 1.384 . S
C1591 C1590 1.377 . S
C1591 C1597 1.390 . S
C1592 H1583 0.930 . S
C1592 C1590 1.384 . S
C1592 C1593 1.372 . S
C1593 C1592 1.372 . S
C1593 C1594 1.400 . S
C1593 C1598 1.490 . S
C1594 H1584 0.930 . S
C1594 C1593 1.400 . S
C1594 C1597 1.386 . S
H1595 C1611 0.930 . S
H1596 C1612 0.931 . S
C1597 H1585 0.929 . S
C1597 C1591 1.390 . S
C1597 C1594 1.386 . S
C1598 C1593 1.490 . S
C1598 C1600 1.395 . S
C1598 C1601 1.403 . S
H1599 C1605 0.930 . S
C1600 H1586 0.930 . S
C1600 C1598 1.395 . S
C1600 C1603 1.403 . S
C1601 C1598 1.403 . S
C1601 C1602 1.524 . S
C1601 C1605 1.400 . S
C1602 H1587 0.960 . S
C1602 H1588 0.960 . S
C1602 H1589 0.960 . S
C1602 C1601 1.524 . S
C1603 C1600 1.403 . S
C1603 C1604 1.392 . S
C1603 C1607 1.495 . S
C1604 C1603 1.392 . S
C1604 C1605 1.385 . S
C1604 C1606 1.478 . S
C1605 H1599 0.930 . S
C1605 C1601 1.400 . S
C1605 C1604 1.385 . S
C1606 C1604 1.478 . S
C1606 C1608 1.381 . S
C1606 C1612 1.383 . S
C1607 C1603 1.495 . S
C1607 H1613 0.959 . S
C1607 H1614 0.961 . S
C1607 H1615 0.960 . S
C1608 C1606 1.381 . S
C1608 C1609 1.394 . S
C1608 H1616 0.930 . S
C1609 C1608 1.394 . S
C1609 C1610 1.383 . S
C1609 H1617 0.929 . S
C1610 C1609 1.383 . S
C1610 C1611 1.377 . S
C1611 H1595 0.930 . S
C1611 C1610 1.377 . S
C1611 C1612 1.379 . S
C1612 H1596 0.931 . S
C1612 C1606 1.383 . S
C1612 C1611 1.379 . S
H1613 C1607 0.959 . S
H1614 C1607 0.961 . S
H1615 C1607 0.960 . S
H1616 C1608 0.930 . S
H1617 C1609 0.929 . S
H1618 C1626 0.929 . S
H1619 C1628 0.930 . S
H1620 C1630 0.930 . S
H1621 C1633 0.929 . S
H1622 C1636 0.930 . S
H1623 C1638 0.960 . S
H1624 C1638 0.960 . S
H1625 C1638 0.960 . S
C1626 H1618 0.929 . S
C1626 C1627 1.377 . S
C1626 C1628 1.384 . S
C1627 C1626 1.377 . S
C1627 C1633 1.390 . S
C1628 H1619 0.930 . S
C1628 C1626 1.384 . S
C1628 C1629 1.372 . S
C1629 C1628 1.372 . S
C1629 C1630 1.400 . S
C1629 C1634 1.490 . S
C1630 H1620 0.930 . S
C1630 C1629 1.400 . S
C1630 C1633 1.386 . S
H1631 C1647 0.930 . S
H1632 C1648 0.931 . S
C1633 H1621 0.929 . S
C1633 C1627 1.390 . S
C1633 C1630 1.386 . S
C1634 C1629 1.490 . S
C1634 C1636 1.395 . S
C1634 C1637 1.403 . S
H1635 C1641 0.930 . S
C1636 H1622 0.930 . S
C1636 C1634 1.395 . S
C1636 C1639 1.403 . S
C1637 C1634 1.403 . S
C1637 C1638 1.524 . S
C1637 C1641 1.400 . S
C1638 H1623 0.960 . S
C1638 H1624 0.960 . S
C1638 H1625 0.960 . S
C1638 C1637 1.524 . S
C1639 C1636 1.403 . S
C1639 C1640 1.392 . S
C1639 C1643 1.495 . S
C1640 C1639 1.392 . S
C1640 C1641 1.385 . S
C1640 C1642 1.478 . S
C1641 H1635 0.930 . S
C1641 C1637 1.400 . S
C1641 C1640 1.385 . S
C1642 C1640 1.478 . S
C1642 C1644 1.381 . S
C1642 C1648 1.383 . S
C1643 C1639 1.495 . S
C1643 H1649 0.959 . S
C1643 H1650 0.961 . S
C1643 H1651 0.960 . S
C1644 C1642 1.381 . S
C1644 C1645 1.394 . S
C1644 H1652 0.930 . S
C1645 C1644 1.394 . S
C1645 C1646 1.383 . S
C1645 H1653 0.929 . S
C1646 C1645 1.383 . S
C1646 C1647 1.377 . S
C1647 H1631 0.930 . S
C1647 C1646 1.377 . S
C1647 C1648 1.379 . S
C1648 H1632 0.931 . S
C1648 C1642 1.383 . S
C1648 C1647 1.379 . S
H1649 C1643 0.959 . S
H1650 C1643 0.961 . S
H1651 C1643 0.960 . S
H1652 C1644 0.930 . S
H1653 C1645 0.929 . S
H1654 C1662 0.929 . S
H1655 C1664 0.930 . S
H1656 C1666 0.930 . S
H1657 C1669 0.929 . S
H1658 C1672 0.930 . S
H1659 C1674 0.960 . S
H1660 C1674 0.960 . S
H1661 C1674 0.960 . S
C1662 H1654 0.929 . S
C1662 C1663 1.377 . S
C1662 C1664 1.384 . S
C1663 C1662 1.377 . S
C1663 C1669 1.390 . S
C1664 H1655 0.930 . S
C1664 C1662 1.384 . S
C1664 C1665 1.372 . S
C1665 C1664 1.372 . S
C1665 C1666 1.400 . S
C1665 C1670 1.490 . S
C1666 H1656 0.930 . S
C1666 C1665 1.400 . S
C1666 C1669 1.386 . S
H1667 C1683 0.930 . S
H1668 C1684 0.931 . S
C1669 H1657 0.929 . S
C1669 C1663 1.390 . S
C1669 C1666 1.386 . S
C1670 C1665 1.490 . S
C1670 C1672 1.395 . S
C1670 C1673 1.403 . S
H1671 C1677 0.930 . S
C1672 H1658 0.930 . S
C1672 C1670 1.395 . S
C1672 C1675 1.403 . S
C1673 C1670 1.403 . S
C1673 C1674 1.524 . S
C1673 C1677 1.400 . S
C1674 H1659 0.960 . S
C1674 H1660 0.960 . S
C1674 H1661 0.960 . S
C1674 C1673 1.524 . S
C1675 C1672 1.403 . S
C1675 C1676 1.392 . S
C1675 C1679 1.495 . S
C1676 C1675 1.392 . S
C1676 C1677 1.385 . S
C1676 C1678 1.478 . S
C1677 H1671 0.930 . S
C1677 C1673 1.400 . S
C1677 C1676 1.385 . S
C1678 C1676 1.478 . S
C1678 C1680 1.381 . S
C1678 C1684 1.383 . S
C1679 C1675 1.495 . S
C1679 H1685 0.959 . S
C1679 H1686 0.961 . S
C1679 H1687 0.960 . S
C1680 C1678 1.381 . S
C1680 C1681 1.394 . S
C1680 H1688 0.930 . S
C1681 C1680 1.394 . S
C1681 C1682 1.383 . S
C1681 H1689 0.929 . S
C1682 C1681 1.383 . S
C1682 C1683 1.377 . S
C1683 H1667 0.930 . S
C1683 C1682 1.377 . S
C1683 C1684 1.379 . S
C1684 H1668 0.931 . S
C1684 C1678 1.383 . S
C1684 C1683 1.379 . S
H1685 C1679 0.959 . S
H1686 C1679 0.961 . S
H1687 C1679 0.960 . S
H1688 C1680 0.930 . S
H1689 C1681 0.929 . S
H1690 C1698 0.929 . S
H1691 C1700 0.930 . S
H1692 C1702 0.930 . S
H1693 C1705 0.929 . S
H1694 C1708 0.930 . S
H1695 C1710 0.960 . S
H1696 C1710 0.960 . S
H1697 C1710 0.960 . S
C1698 H1690 0.929 . S
C1698 C1699 1.377 . S
C1698 C1700 1.384 . S
C1699 C1698 1.377 . S
C1699 C1705 1.390 . S
C1700 H1691 0.930 . S
C1700 C1698 1.384 . S
C1700 C1701 1.372 . S
C1701 C1700 1.372 . S
C1701 C1702 1.400 . S
C1701 C1706 1.490 . S
C1702 H1692 0.930 . S
C1702 C1701 1.400 . S
C1702 C1705 1.386 . S
H1703 C1719 0.930 . S
H1704 C1720 0.931 . S
C1705 H1693 0.929 . S
C1705 C1699 1.390 . S
C1705 C1702 1.386 . S
C1706 C1701 1.490 . S
C1706 C1708 1.395 . S
C1706 C1709 1.403 . S
H1707 C1713 0.930 . S
C1708 H1694 0.930 . S
C1708 C1706 1.395 . S
C1708 C1711 1.403 . S
C1709 C1706 1.403 . S
C1709 C1710 1.524 . S
C1709 C1713 1.400 . S
C1710 H1695 0.960 . S
C1710 H1696 0.960 . S
C1710 H1697 0.960 . S
C1710 C1709 1.524 . S
C1711 C1708 1.403 . S
C1711 C1712 1.392 . S
C1711 C1715 1.495 . S
C1712 C1711 1.392 . S
C1712 C1713 1.385 . S
C1712 C1714 1.478 . S
C1713 H1707 0.930 . S
C1713 C1709 1.400 . S
C1713 C1712 1.385 . S
C1714 C1712 1.478 . S
C1714 C1716 1.381 . S
C1714 C1720 1.383 . S
C1715 C1711 1.495 . S
C1715 H1721 0.959 . S
C1715 H1722 0.961 . S
C1715 H1723 0.960 . S
C1716 C1714 1.381 . S
C1716 C1717 1.394 . S
C1716 H1724 0.930 . S
C1717 C1716 1.394 . S
C1717 C1718 1.383 . S
C1717 H1725 0.929 . S
C1718 C1717 1.383 . S
C1718 C1719 1.377 . S
C1719 H1703 0.930 . S
C1719 C1718 1.377 . S
C1719 C1720 1.379 . S
C1720 H1704 0.931 . S
C1720 C1714 1.383 . S
C1720 C1719 1.379 . S
H1721 C1715 0.959 . S
H1722 C1715 0.961 . S
H1723 C1715 0.960 . S
H1724 C1716 0.930 . S
H1725 C1717 0.929 . S
H1726 C1734 0.929 . S
H1727 C1736 0.930 . S
H1728 C1738 0.930 . S
H1729 C1741 0.929 . S
H1730 C1744 0.930 . S
H1731 C1746 0.960 . S
H1732 C1746 0.960 . S
H1733 C1746 0.960 . S
C1734 H1726 0.929 . S
C1734 C1735 1.377 . S
C1734 C1736 1.384 . S
C1735 C1734 1.377 . S
C1735 C1741 1.390 . S
C1736 H1727 0.930 . S
C1736 C1734 1.384 . S
C1736 C1737 1.372 . S
C1737 C1736 1.372 . S
C1737 C1738 1.400 . S
C1737 C1742 1.490 . S
C1738 H1728 0.930 . S
C1738 C1737 1.400 . S
C1738 C1741 1.386 . S
H1739 C1755 0.930 . S
H1740 C1756 0.931 . S
C1741 H1729 0.929 . S
C1741 C1735 1.390 . S
C1741 C1738 1.386 . S
C1742 C1737 1.490 . S
C1742 C1744 1.395 . S
C1742 C1745 1.403 . S
H1743 C1749 0.930 . S
C1744 H1730 0.930 . S
C1744 C1742 1.395 . S
C1744 C1747 1.403 . S
C1745 C1742 1.403 . S
C1745 C1746 1.524 . S
C1745 C1749 1.400 . S
C1746 H1731 0.960 . S
C1746 H1732 0.960 . S
C1746 H1733 0.960 . S
C1746 C1745 1.524 . S
C1747 C1744 1.403 . S
C1747 C1748 1.392 . S
C1747 C1751 1.495 . S
C1748 C1747 1.392 . S
C1748 C1749 1.385 . S
C1748 C1750 1.478 . S
C1749 H1743 0.930 . S
C1749 C1745 1.400 . S
C1749 C1748 1.385 . S
C1750 C1748 1.478 . S
C1750 C1752 1.381 . S
C1750 C1756 1.383 . S
C1751 C1747 1.495 . S
C1751 H1757 0.959 . S
C1751 H1758 0.961 . S
C1751 H1759 0.960 . S
C1752 C1750 1.381 . S
C1752 C1753 1.394 . S
C1752 H1760 0.930 . S
C1753 C1752 1.394 . S
C1753 C1754 1.383 . S
C1753 H1761 0.929 . S
C1754 C1753 1.383 . S
C1754 C1755 1.377 . S
C1755 H1739 0.930 . S
C1755 C1754 1.377 . S
C1755 C1756 1.379 . S
C1756 H1740 0.931 . S
C1756 C1750 1.383 . S
C1756 C1755 1.379 . S
H1757 C1751 0.959 . S
H1758 C1751 0.961 . S
H1759 C1751 0.960 . S
H1760 C1752 0.930 . S
H1761 C1753 0.929 . S
H1762 C1770 0.929 . S
H1763 C1772 0.930 . S
H1764 C1774 0.930 . S
H1765 C1777 0.929 . S
H1766 C1780 0.930 . S
H1767 C1782 0.960 . S
H1768 C1782 0.960 . S
H1769 C1782 0.960 . S
C1770 H1762 0.929 . S
C1770 C1771 1.377 . S
C1770 C1772 1.384 . S
C1771 C1770 1.377 . S
C1771 C1777 1.390 . S
C1772 H1763 0.930 . S
C1772 C1770 1.384 . S
C1772 C1773 1.372 . S
C1773 C1772 1.372 . S
C1773 C1774 1.400 . S
C1773 C1778 1.490 . S
C1774 H1764 0.930 . S
C1774 C1773 1.400 . S
C1774 C1777 1.386 . S
H1775 C1791 0.930 . S
H1776 C1792 0.931 . S
C1777 H1765 0.929 . S
C1777 C1771 1.390 . S
C1777 C1774 1.386 . S
C1778 C1773 1.490 . S
C1778 C1780 1.395 . S
C1778 C1781 1.403 . S
H1779 C1785 0.930 . S
C1780 H1766 0.930 . S
C1780 C1778 1.395 . S
C1780 C1783 1.403 . S
C1781 C1778 1.403 . S
C1781 C1782 1.524 . S
C1781 C1785 1.400 . S
C1782 H1767 0.960 . S
C1782 H1768 0.960 . S
C1782 H1769 0.960 . S
C1782 C1781 1.524 . S
C1783 C1780 1.403 . S
C1783 C1784 1.392 . S
C1783 C1787 1.495 . S
C1784 C1783 1.392 . S
C1784 C1785 1.385 . S
C1784 C1786 1.478 . S
C1785 H1779 0.930 . S
C1785 C1781 1.400 . S
C1785 C1784 1.385 . S
C1786 C1784 1.478 . S
C1786 C1788 1.381 . S
C1786 C1792 1.383 . S
C1787 C1783 1.495 . S
C1787 H1793 0.959 . S
C1787 H1794 0.961 . S
C1787 H1795 0.960 . S
C1788 C1786 1.381 . S
C1788 C1789 1.394 . S
C1788 H1796 0.930 . S
C1789 C1788 1.394 . S
C1789 C1790 1.383 . S
C1789 H1797 0.929 . S
C1790 C1789 1.383 . S
C1790 C1791 1.377 . S
C1791 H1775 0.930 . S
C1791 C1790 1.377 . S
C1791 C1792 1.379 . S
C1792 H1776 0.931 . S
C1792 C1786 1.383 . S
C1792 C1791 1.379 . S
H1793 C1787 0.959 . S
H1794 C1787 0.961 . S
H1795 C1787 0.960 . S
H1796 C1788 0.930 . S
H1797 C1789 0.929 . S
H1798 C1806 0.929 . S
H1799 C1808 0.930 . S
H1800 C1810 0.930 . S
H1801 C1813 0.929 . S
H1802 C1816 0.930 . S
H1803 C1818 0.960 . S
H1804 C1818 0.960 . S
H1805 C1818 0.960 . S
C1806 H1798 0.929 . S
C1806 C1807 1.377 . S
C1806 C1808 1.384 . S
C1807 C1806 1.377 . S
C1807 C1813 1.390 . S
C1808 H1799 0.930 . S
C1808 C1806 1.384 . S
C1808 C1809 1.372 . S
C1809 C1808 1.372 . S
C1809 C1810 1.400 . S
C1809 C1814 1.490 . S
C1810 H1800 0.930 . S
C1810 C1809 1.400 . S
C1810 C1813 1.386 . S
H1811 C1827 0.930 . S
H1812 C1828 0.931 . S
C1813 H1801 0.929 . S
C1813 C1807 1.390 . S
C1813 C1810 1.386 . S
C1814 C1809 1.490 . S
C1814 C1816 1.395 . S
C1814 C1817 1.403 . S
H1815 C1821 0.930 . S
C1816 H1802 0.930 . S
C1816 C1814 1.395 . S
C1816 C1819 1.403 . S
C1817 C1814 1.403 . S
C1817 C1818 1.524 . S
C1817 C1821 1.400 . S
C1818 H1803 0.960 . S
C1818 H1804 0.960 . S
C1818 H1805 0.960 . S
C1818 C1817 1.524 . S
C1819 C1816 1.403 . S
C1819 C1820 1.392 . S
C1819 C1823 1.495 . S
C1820 C1819 1.392 . S
C1820 C1821 1.385 . S
C1820 C1822 1.478 . S
C1821 H1815 0.930 . S
C1821 C1817 1.400 . S
C1821 C1820 1.385 . S
C1822 C1820 1.478 . S
C1822 C1824 1.381 . S
C1822 C1828 1.383 . S
C1823 C1819 1.495 . S
C1823 H1829 0.959 . S
C1823 H1830 0.961 . S
C1823 H1831 0.960 . S
C1824 C1822 1.381 . S
C1824 C1825 1.394 . S
C1824 H1832 0.930 . S
C1825 C1824 1.394 . S
C1825 C1826 1.383 . S
C1825 H1833 0.929 . S
C1826 C1825 1.383 . S
C1826 C1827 1.377 . S
C1827 H1811 0.930 . S
C1827 C1826 1.377 . S
C1827 C1828 1.379 . S
C1828 H1812 0.931 . S
C1828 C1822 1.383 . S
C1828 C1827 1.379 . S
H1829 C1823 0.959 . S
H1830 C1823 0.961 . S
H1831 C1823 0.960 . S
H1832 C1824 0.930 . S
H1833 C1825 0.929 . S
H1834 C1842 0.929 . S
H1835 C1844 0.930 . S
H1836 C1846 0.930 . S
H1837 C1849 0.929 . S
H1838 C1852 0.930 . S
H1839 C1854 0.960 . S
H1840 C1854 0.960 . S
H1841 C1854 0.960 . S
C1842 H1834 0.929 . S
C1842 C1843 1.377 . S
C1842 C1844 1.384 . S
C1843 C1842 1.377 . S
C1843 C1849 1.390 . S
C1844 H1835 0.930 . S
C1844 C1842 1.384 . S
C1844 C1845 1.372 . S
C1845 C1844 1.372 . S
C1845 C1846 1.400 . S
C1845 C1850 1.490 . S
C1846 H1836 0.930 . S
C1846 C1845 1.400 . S
C1846 C1849 1.386 . S
H1847 C1863 0.930 . S
H1848 C1864 0.931 . S
C1849 H1837 0.929 . S
C1849 C1843 1.390 . S
C1849 C1846 1.386 . S
C1850 C1845 1.490 . S
C1850 C1852 1.395 . S
C1850 C1853 1.403 . S
H1851 C1857 0.930 . S
C1852 H1838 0.930 . S
C1852 C1850 1.395 . S
C1852 C1855 1.403 . S
C1853 C1850 1.403 . S
C1853 C1854 1.524 . S
C1853 C1857 1.400 . S
C1854 H1839 0.960 . S
C1854 H1840 0.960 . S
C1854 H1841 0.960 . S
C1854 C1853 1.524 . S
C1855 C1852 1.403 . S
C1855 C1856 1.392 . S
C1855 C1859 1.495 . S
C1856 C1855 1.392 . S
C1856 C1857 1.385 . S
C1856 C1858 1.478 . S
C1857 H1851 0.930 . S
C1857 C1853 1.400 . S
C1857 C1856 1.385 . S
C1858 C1856 1.478 . S
C1858 C1860 1.381 . S
C1858 C1864 1.383 . S
C1859 C1855 1.495 . S
C1859 H1865 0.959 . S
C1859 H1866 0.961 . S
C1859 H1867 0.960 . S
C1860 C1858 1.381 . S
C1860 C1861 1.394 . S
C1860 H1868 0.930 . S
C1861 C1860 1.394 . S
C1861 C1862 1.383 . S
C1861 H1869 0.929 . S
C1862 C1861 1.383 . S
C1862 C1863 1.377 . S
C1863 H1847 0.930 . S
C1863 C1862 1.377 . S
C1863 C1864 1.379 . S
C1864 H1848 0.931 . S
C1864 C1858 1.383 . S
C1864 C1863 1.379 . S
H1865 C1859 0.959 . S
H1866 C1859 0.961 . S
H1867 C1859 0.960 . S
H1868 C1860 0.930 . S
H1869 C1861 0.929 . S
H1870 C1878 0.929 . S
H1871 C1880 0.930 . S
H1872 C1882 0.930 . S
H1873 C1885 0.929 . S
H1874 C1888 0.930 . S
H1875 C1890 0.960 . S
H1876 C1890 0.960 . S
H1877 C1890 0.960 . S
C1878 H1870 0.929 . S
C1878 C1879 1.377 . S
C1878 C1880 1.384 . S
C1879 C1878 1.377 . S
C1879 C1885 1.390 . S
C1880 H1871 0.930 . S
C1880 C1878 1.384 . S
C1880 C1881 1.372 . S
C1881 C1880 1.372 . S
C1881 C1882 1.400 . S
C1881 C1886 1.490 . S
C1882 H1872 0.930 . S
C1882 C1881 1.400 . S
C1882 C1885 1.386 . S
H1883 C1899 0.930 . S
H1884 C1900 0.931 . S
C1885 H1873 0.929 . S
C1885 C1879 1.390 . S
C1885 C1882 1.386 . S
C1886 C1881 1.490 . S
C1886 C1888 1.395 . S
C1886 C1889 1.403 . S
H1887 C1893 0.930 . S
C1888 H1874 0.930 . S
C1888 C1886 1.395 . S
C1888 C1891 1.403 . S
C1889 C1886 1.403 . S
C1889 C1890 1.524 . S
C1889 C1893 1.400 . S
C1890 H1875 0.960 . S
C1890 H1876 0.960 . S
C1890 H1877 0.960 . S
C1890 C1889 1.524 . S
C1891 C1888 1.403 . S
C1891 C1892 1.392 . S
C1891 C1895 1.495 . S
C1892 C1891 1.392 . S
C1892 C1893 1.385 . S
C1892 C1894 1.478 . S
C1893 H1887 0.930 . S
C1893 C1889 1.400 . S
C1893 C1892 1.385 . S
C1894 C1892 1.478 . S
C1894 C1896 1.381 . S
C1894 C1900 1.383 . S
C1895 C1891 1.495 . S
C1895 H1901 0.959 . S
C1895 H1902 0.961 . S
C1895 H1903 0.960 . S
C1896 C1894 1.381 . S
C1896 C1897 1.394 . S
C1896 H1904 0.930 . S
C1897 C1896 1.394 . S
C1897 C1898 1.383 . S
C1897 H1905 0.929 . S
C1898 C1897 1.383 . S
C1898 C1899 1.377 . S
C1899 H1883 0.930 . S
C1899 C1898 1.377 . S
C1899 C1900 1.379 . S
C1900 H1884 0.931 . S
C1900 C1894 1.383 . S
C1900 C1899 1.379 . S
H1901 C1895 0.959 . S
H1902 C1895 0.961 . S
H1903 C1895 0.960 . S
H1904 C1896 0.930 . S
H1905 C1897 0.929 . S
H1906 C1914 0.929 . S
H1907 C1916 0.930 . S
H1908 C1918 0.930 . S
H1909 C1921 0.929 . S
H1910 C1924 0.930 . S
H1911 C1926 0.960 . S
H1912 C1926 0.960 . S
H1913 C1926 0.960 . S
C1914 H1906 0.929 . S
C1914 C1915 1.377 . S
C1914 C1916 1.384 . S
C1915 C1914 1.377 . S
C1915 C1921 1.390 . S
C1916 H1907 0.930 . S
C1916 C1914 1.384 . S
C1916 C1917 1.372 . S
C1917 C1916 1.372 . S
C1917 C1918 1.400 . S
C1917 C1922 1.490 . S
C1918 H1908 0.930 . S
C1918 C1917 1.400 . S
C1918 C1921 1.386 . S
H1919 C1935 0.930 . S
H1920 C1936 0.931 . S
C1921 H1909 0.929 . S
C1921 C1915 1.390 . S
C1921 C1918 1.386 . S
C1922 C1917 1.490 . S
C1922 C1924 1.395 . S
C1922 C1925 1.403 . S
H1923 C1929 0.930 . S
C1924 H1910 0.930 . S
C1924 C1922 1.395 . S
C1924 C1927 1.403 . S
C1925 C1922 1.403 . S
C1925 C1926 1.524 . S
C1925 C1929 1.400 . S
C1926 H1911 0.960 . S
C1926 H1912 0.960 . S
C1926 H1913 0.960 . S
C1926 C1925 1.524 . S
C1927 C1924 1.403 . S
C1927 C1928 1.392 . S
C1927 C1931 1.495 . S
C1928 C1927 1.392 . S
C1928 C1929 1.385 . S
C1928 C1930 1.478 . S
C1929 H1923 0.930 . S
C1929 C1925 1.400 . S
C1929 C1928 1.385 . S
C1930 C1928 1.478 . S
C1930 C1932 1.381 . S
C1930 C1936 1.383 . S
C1931 C1927 1.495 . S
C1931 H1937 0.959 . S
C1931 H1938 0.961 . S
C1931 H1939 0.960 . S
C1932 C1930 1.381 . S
C1932 C1933 1.394 . S
C1932 H1940 0.930 . S
C1933 C1932 1.394 . S
C1933 C1934 1.383 . S
C1933 H1941 0.929 . S
C1934 C1933 1.383 . S
C1934 C1935 1.377 . S
C1935 H1919 0.930 . S
C1935 C1934 1.377 . S
C1935 C1936 1.379 . S
C1936 H1920 0.931 . S
C1936 C1930 1.383 . S
C1936 C1935 1.379 . S
H1937 C1931 0.959 . S
H1938 C1931 0.961 . S
H1939 C1931 0.960 . S
H1940 C1932 0.930 . S
H1941 C1933 0.929 . S
H1942 C1950 0.929 . S
H1943 C1952 0.930 . S
H1944 C1954 0.930 . S
H1945 C1957 0.929 . S
H1946 C1960 0.930 . S
H1947 C1962 0.960 . S
H1948 C1962 0.960 . S
H1949 C1962 0.960 . S
C1950 H1942 0.929 . S
C1950 C1951 1.377 . S
C1950 C1952 1.384 . S
C1951 C1950 1.377 . S
C1951 C1957 1.390 . S
C1952 H1943 0.930 . S
C1952 C1950 1.384 . S
C1952 C1953 1.372 . S
C1953 C1952 1.372 . S
C1953 C1954 1.400 . S
C1953 C1958 1.490 . S
C1954 H1944 0.930 . S
C1954 C1953 1.400 . S
C1954 C1957 1.386 . S
H1955 C1971 0.930 . S
H1956 C1972 0.931 . S
C1957 H1945 0.929 . S
C1957 C1951 1.390 . S
C1957 C1954 1.386 . S
C1958 C1953 1.490 . S
C1958 C1960 1.395 . S
C1958 C1961 1.403 . S
H1959 C1965 0.930 . S
C1960 H1946 0.930 . S
C1960 C1958 1.395 . S
C1960 C1963 1.403 . S
C1961 C1958 1.403 . S
C1961 C1962 1.524 . S
C1961 C1965 1.400 . S
C1962 H1947 0.960 . S
C1962 H1948 0.960 . S
C1962 H1949 0.960 . S
C1962 C1961 1.524 . S
C1963 C1960 1.403 . S
C1963 C1964 1.392 . S
C1963 C1967 1.495 . S
C1964 C1963 1.392 . S
C1964 C1965 1.385 . S
C1964 C1966 1.478 . S
C1965 H1959 0.930 . S
C1965 C1961 1.400 . S
C1965 C1964 1.385 . S
C1966 C1964 1.478 . S
C1966 C1968 1.381 . S
C1966 C1972 1.383 . S
C1967 C1963 1.495 . S
C1967 H1973 0.959 . S
C1967 H1974 0.961 . S
C1967 H1975 0.960 . S
C1968 C1966 1.381 . S
C1968 C1969 1.394 . S
C1968 H1976 0.930 . S
C1969 C1968 1.394 . S
C1969 C1970 1.383 . S
C1969 H1977 0.929 . S
C1970 C1969 1.383 . S
C1970 C1971 1.377 . S
C1971 H1955 0.930 . S
C1971 C1970 1.377 . S
C1971 C1972 1.379 . S
C1972 H1956 0.931 . S
C1972 C1966 1.383 . S
C1972 C1971 1.379 . S
H1973 C1967 0.959 . S
H1974 C1967 0.961 . S
H1975 C1967 0.960 . S
H1976 C1968 0.930 . S
H1977 C1969 0.929 . S
H1978 C1986 0.929 . S
H1979 C1988 0.930 . S
H1980 C1990 0.930 . S
H1981 C1993 0.929 . S
H1982 C1996 0.930 . S
H1983 C1998 0.960 . S
H1984 C1998 0.960 . S
H1985 C1998 0.960 . S
C1986 H1978 0.929 . S
C1986 C1987 1.377 . S
C1986 C1988 1.384 . S
C1987 C1986 1.377 . S
C1987 C1993 1.390 . S
C1988 H1979 0.930 . S
C1988 C1986 1.384 . S
C1988 C1989 1.372 . S
C1989 C1988 1.372 . S
C1989 C1990 1.400 . S
C1989 C1994 1.490 . S
C1990 H1980 0.930 . S
C1990 C1989 1.400 . S
C1990 C1993 1.386 . S
H1991 C2007 0.930 . S
H1992 C2008 0.931 . S
C1993 H1981 0.929 . S
C1993 C1987 1.390 . S
C1993 C1990 1.386 . S
C1994 C1989 1.490 . S
C1994 C1996 1.395 . S
C1994 C1997 1.403 . S
H1995 C2001 0.930 . S
C1996 H1982 0.930 . S
C1996 C1994 1.395 . S
C1996 C1999 1.403 . S
C1997 C1994 1.403 . S
C1997 C1998 1.524 . S
C1997 C2001 1.400 . S
C1998 H1983 0.960 . S
C1998 H1984 0.960 . S
C1998 H1985 0.960 . S
C1998 C1997 1.524 . S
C1999 C1996 1.403 . S
C1999 C2000 1.392 . S
C1999 C2003 1.495 . S
C2000 C1999 1.392 . S
C2000 C2001 1.385 . S
C2000 C2002 1.478 . S
C2001 H1995 0.930 . S
C2001 C1997 1.400 . S
C2001 C2000 1.385 . S
C2002 C2000 1.478 . S
C2002 C2004 1.381 . S
C2002 C2008 1.383 . S
C2003 C1999 1.495 . S
C2003 H2009 0.959 . S
C2003 H2010 0.961 . S
C2003 H2011 0.960 . S
C2004 C2002 1.381 . S
C2004 C2005 1.394 . S
C2004 H2012 0.930 . S
C2005 C2004 1.394 . S
C2005 C2006 1.383 . S
C2005 H2013 0.929 . S
C2006 C2005 1.383 . S
C2006 C2007 1.377 . S
C2007 H1991 0.930 . S
C2007 C2006 1.377 . S
C2007 C2008 1.379 . S
C2008 H1992 0.931 . S
C2008 C2002 1.383 . S
C2008 C2007 1.379 . S
H2009 C2003 0.959 . S
H2010 C2003 0.961 . S
H2011 C2003 0.960 . S
H2012 C2004 0.930 . S
H2013 C2005 0.929 . S
H2014 C2022 0.929 . S
H2015 C2024 0.930 . S
H2016 C2026 0.930 . S
H2017 C2029 0.929 . S
H2018 C2032 0.930 . S
H2019 C2034 0.960 . S
H2020 C2034 0.960 . S
H2021 C2034 0.960 . S
C2022 H2014 0.929 . S
C2022 C2023 1.377 . S
C2022 C2024 1.384 . S
C2023 C2022 1.377 . S
C2023 C2029 1.390 . S
C2024 H2015 0.930 . S
C2024 C2022 1.384 . S
C2024 C2025 1.372 . S
C2025 C2024 1.372 . S
C2025 C2026 1.400 . S
C2025 C2030 1.490 . S
C2026 H2016 0.930 . S
C2026 C2025 1.400 . S
C2026 C2029 1.386 . S
H2027 C2043 0.930 . S
H2028 C2044 0.931 . S
C2029 H2017 0.929 . S
C2029 C2023 1.390 . S
C2029 C2026 1.386 . S
C2030 C2025 1.490 . S
C2030 C2032 1.395 . S
C2030 C2033 1.403 . S
H2031 C2037 0.930 . S
C2032 H2018 0.930 . S
C2032 C2030 1.395 . S
C2032 C2035 1.403 . S
C2033 C2030 1.403 . S
C2033 C2034 1.524 . S
C2033 C2037 1.400 . S
C2034 H2019 0.960 . S
C2034 H2020 0.960 . S
C2034 H2021 0.960 . S
C2034 C2033 1.524 . S
C2035 C2032 1.403 . S
C2035 C2036 1.392 . S
C2035 C2039 1.495 . S
C2036 C2035 1.392 . S
C2036 C2037 1.385 . S
C2036 C2038 1.478 . S
C2037 H2031 0.930 . S
C2037 C2033 1.400 . S
C2037 C2036 1.385 . S
C2038 C2036 1.478 . S
C2038 C2040 1.381 . S
C2038 C2044 1.383 . S
C2039 C2035 1.495 . S
C2039 H2045 0.959 . S
C2039 H2046 0.961 . S
C2039 H2047 0.960 . S
C2040 C2038 1.381 . S
C2040 C2041 1.394 . S
C2040 H2048 0.930 . S
C2041 C2040 1.394 . S
C2041 C2042 1.383 . S
C2041 H2049 0.929 . S
C2042 C2041 1.383 . S
C2042 C2043 1.377 . S
C2043 H2027 0.930 . S
C2043 C2042 1.377 . S
C2043 C2044 1.379 . S
C2044 H2028 0.931 . S
C2044 C2038 1.383 . S
C2044 C2043 1.379 . S
H2045 C2039 0.959 . S
H2046 C2039 0.961 . S
H2047 C2039 0.960 . S
H2048 C2040 0.930 . S
H2049 C2041 0.929 . S
H2050 C2058 0.929 . S
H2051 C2060 0.930 . S
H2052 C2062 0.930 . S
H2053 C2065 0.929 . S
H2054 C2068 0.930 . S
H2055 C2070 0.960 . S
H2056 C2070 0.960 . S
H2057 C2070 0.960 . S
C2058 H2050 0.929 . S
C2058 C2059 1.377 . S
C2058 C2060 1.384 . S
C2059 C2058 1.377 . S
C2059 C2065 1.390 . S
C2060 H2051 0.930 . S
C2060 C2058 1.384 . S
C2060 C2061 1.372 . S
C2061 C2060 1.372 . S
C2061 C2062 1.400 . S
C2061 C2066 1.490 . S
C2062 H2052 0.930 . S
C2062 C2061 1.400 . S
C2062 C2065 1.386 . S
H2063 C2079 0.930 . S
H2064 C2080 0.931 . S
C2065 H2053 0.929 . S
C2065 C2059 1.390 . S
C2065 C2062 1.386 . S
C2066 C2061 1.490 . S
C2066 C2068 1.395 . S
C2066 C2069 1.403 . S
H2067 C2073 0.930 . S
C2068 H2054 0.930 . S
C2068 C2066 1.395 . S
C2068 C2071 1.403 . S
C2069 C2066 1.403 . S
C2069 C2070 1.524 . S
C2069 C2073 1.400 . S
C2070 H2055 0.960 . S
C2070 H2056 0.960 . S
C2070 H2057 0.960 . S
C2070 C2069 1.524 . S
C2071 C2068 1.403 . S
C2071 C2072 1.392 . S
C2071 C2075 1.495 . S
C2072 C2071 1.392 . S
C2072 C2073 1.385 . S
C2072 C2074 1.478 . S
C2073 H2067 0.930 . S
C2073 C2069 1.400 . S
C2073 C2072 1.385 . S
C2074 C2072 1.478 . S
C2074 C2076 1.381 . S
C2074 C2080 1.383 . S
C2075 C2071 1.495 . S
C2075 H2081 0.959 . S
C2075 H2082 0.961 . S
C2075 H2083 0.960 . S
C2076 C2074 1.381 . S
C2076 C2077 1.394 . S
C2076 H2084 0.930 . S
C2077 C2076 1.394 . S
C2077 C2078 1.383 . S
C2077 H2085 0.929 . S
C2078 C2077 1.383 . S
C2078 C2079 1.377 . S
C2079 H2063 0.930 . S
C2079 C2078 1.377 . S
C2079 C2080 1.379 . S
C2080 H2064 0.931 . S
C2080 C2074 1.383 . S
C2080 C2079 1.379 . S
H2081 C2075 0.959 . S
H2082 C2075 0.961 . S
H2083 C2075 0.960 . S
H2084 C2076 0.930 . S
H2085 C2077 0.929 . S
C386 C187 1.549 . S
C367 C9 1.615 . S
C422 C188 2.353 . S
C403 C28 2.340 . S
C458 C182 0.990 . S
C439 C49 1.028 . S
C475 C79 1.666 . S
C494 C181 1.719 . S
C511 C99 2.337 . S
C530 C184 2.325 . S
C566 C186 1.038 . S
C547 C101 1.023 . S
C583 C128 1.676 . S
C602 C185 1.715 . S
C619 C141 1.613 . S
C638 C183 1.537 . S
C674 C218 1.299 . S
C655 C16 1.287 . S
C691 C26 1.135 . S
C710 C249 1.140 . S
C746 C217 1.178 . S
C727 C56 1.177 . S
C782 C252 0.966 . S
C763 C69 0.934 . S
C799 C89 1.194 . S
C818 C215 1.160 . S
C854 C247 2.072 . S
C835 C108 2.046 . S
C871 C126 0.948 . S
C890 C220 0.916 . S
C907 C148 1.975 . S
C926 C254 1.915 . S
C943 C19 1.971 . S
C962 C250 1.925 . S
C979 C96 1.146 . S
C998 C253 1.168 . S
C1034 C221 1.134 . S
C1015 C106 1.180 . S
C1070 C248 0.891 . S
C1051 C121 0.940 . S
C1087 C146 1.288 . S
C1106 C214 1.323 . S
C1123 C59 2.042 . S
C1142 C251 2.076 . S
C1178 C216 0.944 . S
C1159 C76 0.943 . S
C1195 C21 1.195 . S
C1214 C219 1.222 . S
C1231 C149 1.572 . S
C1250 C286 1.514 . S
C1267 C88 1.828 . S
C1286 C287 1.775 . S
C1322 C281 0.961 . S
C1303 C109 0.990 . S
C1358 C280 2.223 . S
C1339 C139 2.138 . S
C1375 C39 1.824 . S
C1394 C283 1.806 . S
C1430 C285 1.015 . S
C1411 C41 0.986 . S
C1447 C68 2.136 . S
C1466 C284 2.212 . S
C1483 C1 1.574 . S
C1502 C282 1.441 . S
C1519 C156 1.404 . S
C1538 C320 1.329 . S
C1574 C352 0.927 . S
C1555 C86 0.922 . S
C1591 C116 1.093 . S
C1610 C313 1.087 . S
C1627 C129 1.213 . S
C1646 C347 1.194 . S
C1682 C318 0.975 . S
C1663 C29 0.950 . S
C1699 C48 2.215 . S
C1718 C349 2.161 . S
C1754 C315 1.229 . S
C1735 C66 1.181 . S
C1790 C350 1.916 . S
C1771 C8 1.890 . S
C1826 C346 1.921 . S
C1807 C159 1.891 . S
C1843 C36 0.918 . S
C1862 C348 0.955 . S
C1879 C46 1.087 . S
C1898 C317 1.102 . S
C1934 C351 1.240 . S
C1915 C61 1.213 . S
C1951 C6 1.400 . S
C1970 C316 1.365 . S
C1987 C119 2.217 . S
C2006 C353 2.177 . S
C2042 C319 1.258 . S
C2023 C136 1.170 . S
C2078 C314 1.004 . S
C2059 C81 0.952 . S
