# Generated by pormake.
# Topology iac, (4,6)-cn, num edge types: 1
# Building blocks:
#     Node 0, Type 0, BuildingBlock: CEKHIL_clean_sbu_0, # of connection points: 4
#     Node 1, Type 0, BuildingBlock: CEKHIL_clean_sbu_0, # of connection points: 4
#     Node 2, Type 0, BuildingBlock: CEKHIL_clean_sbu_0, # of connection points: 4
#     Node 3, Type 0, BuildingBlock: CEKHIL_clean_sbu_0, # of connection points: 4
#     Node 4, Type 0, BuildingBlock: CEKHIL_clean_sbu_0, # of connection points: 4
#     Node 5, Type 0, BuildingBlock: CEKHIL_clean_sbu_0, # of connection points: 4
#     Node 6, Type 0, BuildingBlock: CEKHIL_clean_sbu_0, # of connection points: 4
#     Node 7, Type 0, BuildingBlock: CEKHIL_clean_sbu_0, # of connection points: 4
#     Node 8, Type 0, BuildingBlock: CEKHIL_clean_sbu_0, # of connection points: 4
#     Node 9, Type 0, BuildingBlock: CEKHIL_clean_sbu_0, # of connection points: 4
#     Node 10, Type 0, BuildingBlock: CEKHIL_clean_sbu_0, # of connection points: 4
#     Node 11, Type 0, BuildingBlock: CEKHIL_clean_sbu_0, # of connection points: 4
#     Node 12, Type 0, BuildingBlock: CEKHIL_clean_sbu_0, # of connection points: 4
#     Node 13, Type 0, BuildingBlock: CEKHIL_clean_sbu_0, # of connection points: 4
#     Node 14, Type 0, BuildingBlock: CEKHIL_clean_sbu_0, # of connection points: 4
#     Node 15, Type 0, BuildingBlock: CEKHIL_clean_sbu_0, # of connection points: 4
#     Node 16, Type 0, BuildingBlock: CEKHIL_clean_sbu_0, # of connection points: 4
#     Node 17, Type 0, BuildingBlock: CEKHIL_clean_sbu_0, # of connection points: 4
#     Node 18, Type 0, BuildingBlock: CEKHIL_clean_sbu_0, # of connection points: 4
#     Node 19, Type 0, BuildingBlock: CEKHIL_clean_sbu_0, # of connection points: 4
#     Node 20, Type 0, BuildingBlock: CEKHIL_clean_sbu_0, # of connection points: 4
#     Node 21, Type 0, BuildingBlock: CEKHIL_clean_sbu_0, # of connection points: 4
#     Node 22, Type 0, BuildingBlock: CEKHIL_clean_sbu_0, # of connection points: 4
#     Node 23, Type 0, BuildingBlock: CEKHIL_clean_sbu_0, # of connection points: 4
#     Node 24, Type 1, BuildingBlock: VOLQOD_clean_sbu_1, # of connection points: 6
#     Node 25, Type 1, BuildingBlock: VOLQOD_clean_sbu_1, # of connection points: 6
#     Node 26, Type 1, BuildingBlock: VOLQOD_clean_sbu_1, # of connection points: 6
#     Node 27, Type 1, BuildingBlock: VOLQOD_clean_sbu_1, # of connection points: 6
#     Node 28, Type 1, BuildingBlock: VOLQOD_clean_sbu_1, # of connection points: 6
#     Node 29, Type 1, BuildingBlock: VOLQOD_clean_sbu_1, # of connection points: 6
#     Node 30, Type 1, BuildingBlock: VOLQOD_clean_sbu_1, # of connection points: 6
#     Node 31, Type 1, BuildingBlock: VOLQOD_clean_sbu_1, # of connection points: 6
#     Node 32, Type 1, BuildingBlock: VOLQOD_clean_sbu_1, # of connection points: 6
#     Node 33, Type 1, BuildingBlock: VOLQOD_clean_sbu_1, # of connection points: 6
#     Node 34, Type 1, BuildingBlock: VOLQOD_clean_sbu_1, # of connection points: 6
#     Node 35, Type 1, BuildingBlock: VOLQOD_clean_sbu_1, # of connection points: 6
#     Node 36, Type 1, BuildingBlock: VOLQOD_clean_sbu_1, # of connection points: 6
#     Node 37, Type 1, BuildingBlock: VOLQOD_clean_sbu_1, # of connection points: 6
#     Node 38, Type 1, BuildingBlock: VOLQOD_clean_sbu_1, # of connection points: 6
#     Node 39, Type 1, BuildingBlock: VOLQOD_clean_sbu_1, # of connection points: 6
#     Edge 40, Type (0, 1), BuildingBlock: XIVTED_clean_linker_0, # of connection points: 2
#     Edge 41, Type (0, 1), BuildingBlock: XIVTED_clean_linker_0, # of connection points: 2
#     Edge 42, Type (0, 1), BuildingBlock: XIVTED_clean_linker_0, # of connection points: 2
#     Edge 43, Type (0, 1), BuildingBlock: XIVTED_clean_linker_0, # of connection points: 2
#     Edge 44, Type (0, 1), BuildingBlock: XIVTED_clean_linker_0, # of connection points: 2
#     Edge 45, Type (0, 1), BuildingBlock: XIVTED_clean_linker_0, # of connection points: 2
#     Edge 46, Type (0, 1), BuildingBlock: XIVTED_clean_linker_0, # of connection points: 2
#     Edge 47, Type (0, 1), BuildingBlock: XIVTED_clean_linker_0, # of connection points: 2
#     Edge 48, Type (0, 1), BuildingBlock: XIVTED_clean_linker_0, # of connection points: 2
#     Edge 49, Type (0, 1), BuildingBlock: XIVTED_clean_linker_0, # of connection points: 2
#     Edge 50, Type (0, 1), BuildingBlock: XIVTED_clean_linker_0, # of connection points: 2
#     Edge 51, Type (0, 1), BuildingBlock: XIVTED_clean_linker_0, # of connection points: 2
#     Edge 52, Type (0, 1), BuildingBlock: XIVTED_clean_linker_0, # of connection points: 2
#     Edge 53, Type (0, 1), BuildingBlock: XIVTED_clean_linker_0, # of connection points: 2
#     Edge 54, Type (0, 1), BuildingBlock: XIVTED_clean_linker_0, # of connection points: 2
#     Edge 55, Type (0, 1), BuildingBlock: XIVTED_clean_linker_0, # of connection points: 2
#     Edge 56, Type (0, 1), BuildingBlock: XIVTED_clean_linker_0, # of connection points: 2
#     Edge 57, Type (0, 1), BuildingBlock: XIVTED_clean_linker_0, # of connection points: 2
#     Edge 58, Type (0, 1), BuildingBlock: XIVTED_clean_linker_0, # of connection points: 2
#     Edge 59, Type (0, 1), BuildingBlock: XIVTED_clean_linker_0, # of connection points: 2
#     Edge 60, Type (0, 1), BuildingBlock: XIVTED_clean_linker_0, # of connection points: 2
#     Edge 61, Type (0, 1), BuildingBlock: XIVTED_clean_linker_0, # of connection points: 2
#     Edge 62, Type (0, 1), BuildingBlock: XIVTED_clean_linker_0, # of connection points: 2
#     Edge 63, Type (0, 1), BuildingBlock: XIVTED_clean_linker_0, # of connection points: 2
#     Edge 64, Type (0, 1), BuildingBlock: XIVTED_clean_linker_0, # of connection points: 2
#     Edge 65, Type (0, 1), BuildingBlock: XIVTED_clean_linker_0, # of connection points: 2
#     Edge 66, Type (0, 1), BuildingBlock: XIVTED_clean_linker_0, # of connection points: 2
#     Edge 67, Type (0, 1), BuildingBlock: XIVTED_clean_linker_0, # of connection points: 2
#     Edge 68, Type (0, 1), BuildingBlock: XIVTED_clean_linker_0, # of connection points: 2
#     Edge 69, Type (0, 1), BuildingBlock: XIVTED_clean_linker_0, # of connection points: 2
#     Edge 70, Type (0, 1), BuildingBlock: XIVTED_clean_linker_0, # of connection points: 2
#     Edge 71, Type (0, 1), BuildingBlock: XIVTED_clean_linker_0, # of connection points: 2
#     Edge 72, Type (0, 1), BuildingBlock: XIVTED_clean_linker_0, # of connection points: 2
#     Edge 73, Type (0, 1), BuildingBlock: XIVTED_clean_linker_0, # of connection points: 2
#     Edge 74, Type (0, 1), BuildingBlock: XIVTED_clean_linker_0, # of connection points: 2
#     Edge 75, Type (0, 1), BuildingBlock: XIVTED_clean_linker_0, # of connection points: 2
#     Edge 76, Type (0, 1), BuildingBlock: XIVTED_clean_linker_0, # of connection points: 2
#     Edge 77, Type (0, 1), BuildingBlock: XIVTED_clean_linker_0, # of connection points: 2
#     Edge 78, Type (0, 1), BuildingBlock: XIVTED_clean_linker_0, # of connection points: 2
#     Edge 79, Type (0, 1), BuildingBlock: XIVTED_clean_linker_0, # of connection points: 2
#     Edge 80, Type (0, 1), BuildingBlock: XIVTED_clean_linker_0, # of connection points: 2
#     Edge 81, Type (0, 1), BuildingBlock: XIVTED_clean_linker_0, # of connection points: 2
#     Edge 82, Type (0, 1), BuildingBlock: XIVTED_clean_linker_0, # of connection points: 2
#     Edge 83, Type (0, 1), BuildingBlock: XIVTED_clean_linker_0, # of connection points: 2
#     Edge 84, Type (0, 1), BuildingBlock: XIVTED_clean_linker_0, # of connection points: 2
#     Edge 85, Type (0, 1), BuildingBlock: XIVTED_clean_linker_0, # of connection points: 2
#     Edge 86, Type (0, 1), BuildingBlock: XIVTED_clean_linker_0, # of connection points: 2
#     Edge 87, Type (0, 1), BuildingBlock: XIVTED_clean_linker_0, # of connection points: 2
#     Edge 88, Type (0, 1), BuildingBlock: XIVTED_clean_linker_0, # of connection points: 2
#     Edge 89, Type (0, 1), BuildingBlock: XIVTED_clean_linker_0, # of connection points: 2
#     Edge 90, Type (0, 1), BuildingBlock: XIVTED_clean_linker_0, # of connection points: 2
#     Edge 91, Type (0, 1), BuildingBlock: XIVTED_clean_linker_0, # of connection points: 2
#     Edge 92, Type (0, 1), BuildingBlock: XIVTED_clean_linker_0, # of connection points: 2
#     Edge 93, Type (0, 1), BuildingBlock: XIVTED_clean_linker_0, # of connection points: 2
#     Edge 94, Type (0, 1), BuildingBlock: XIVTED_clean_linker_0, # of connection points: 2
#     Edge 95, Type (0, 1), BuildingBlock: XIVTED_clean_linker_0, # of connection points: 2
#     Edge 96, Type (0, 1), BuildingBlock: XIVTED_clean_linker_0, # of connection points: 2
#     Edge 97, Type (0, 1), BuildingBlock: XIVTED_clean_linker_0, # of connection points: 2
#     Edge 98, Type (0, 1), BuildingBlock: XIVTED_clean_linker_0, # of connection points: 2
#     Edge 99, Type (0, 1), BuildingBlock: XIVTED_clean_linker_0, # of connection points: 2
#     Edge 100, Type (0, 1), BuildingBlock: XIVTED_clean_linker_0, # of connection points: 2
#     Edge 101, Type (0, 1), BuildingBlock: XIVTED_clean_linker_0, # of connection points: 2
#     Edge 102, Type (0, 1), BuildingBlock: XIVTED_clean_linker_0, # of connection points: 2
#     Edge 103, Type (0, 1), BuildingBlock: XIVTED_clean_linker_0, # of connection points: 2
#     Edge 104, Type (0, 1), BuildingBlock: XIVTED_clean_linker_0, # of connection points: 2
#     Edge 105, Type (0, 1), BuildingBlock: XIVTED_clean_linker_0, # of connection points: 2
#     Edge 106, Type (0, 1), BuildingBlock: XIVTED_clean_linker_0, # of connection points: 2
#     Edge 107, Type (0, 1), BuildingBlock: XIVTED_clean_linker_0, # of connection points: 2
#     Edge 108, Type (0, 1), BuildingBlock: XIVTED_clean_linker_0, # of connection points: 2
#     Edge 109, Type (0, 1), BuildingBlock: XIVTED_clean_linker_0, # of connection points: 2
#     Edge 110, Type (0, 1), BuildingBlock: XIVTED_clean_linker_0, # of connection points: 2
#     Edge 111, Type (0, 1), BuildingBlock: XIVTED_clean_linker_0, # of connection points: 2
#     Edge 112, Type (0, 1), BuildingBlock: XIVTED_clean_linker_0, # of connection points: 2
#     Edge 113, Type (0, 1), BuildingBlock: XIVTED_clean_linker_0, # of connection points: 2
#     Edge 114, Type (0, 1), BuildingBlock: XIVTED_clean_linker_0, # of connection points: 2
#     Edge 115, Type (0, 1), BuildingBlock: XIVTED_clean_linker_0, # of connection points: 2
#     Edge 116, Type (0, 1), BuildingBlock: XIVTED_clean_linker_0, # of connection points: 2
#     Edge 117, Type (0, 1), BuildingBlock: XIVTED_clean_linker_0, # of connection points: 2
#     Edge 118, Type (0, 1), BuildingBlock: XIVTED_clean_linker_0, # of connection points: 2
#     Edge 119, Type (0, 1), BuildingBlock: XIVTED_clean_linker_0, # of connection points: 2
#     Edge 120, Type (0, 1), BuildingBlock: XIVTED_clean_linker_0, # of connection points: 2
#     Edge 121, Type (0, 1), BuildingBlock: XIVTED_clean_linker_0, # of connection points: 2
#     Edge 122, Type (0, 1), BuildingBlock: XIVTED_clean_linker_0, # of connection points: 2
#     Edge 123, Type (0, 1), BuildingBlock: XIVTED_clean_linker_0, # of connection points: 2
#     Edge 124, Type (0, 1), BuildingBlock: XIVTED_clean_linker_0, # of connection points: 2
#     Edge 125, Type (0, 1), BuildingBlock: XIVTED_clean_linker_0, # of connection points: 2
#     Edge 126, Type (0, 1), BuildingBlock: XIVTED_clean_linker_0, # of connection points: 2
#     Edge 127, Type (0, 1), BuildingBlock: XIVTED_clean_linker_0, # of connection points: 2
#     Edge 128, Type (0, 1), BuildingBlock: XIVTED_clean_linker_0, # of connection points: 2
#     Edge 129, Type (0, 1), BuildingBlock: XIVTED_clean_linker_0, # of connection points: 2
#     Edge 130, Type (0, 1), BuildingBlock: XIVTED_clean_linker_0, # of connection points: 2
#     Edge 131, Type (0, 1), BuildingBlock: XIVTED_clean_linker_0, # of connection points: 2
#     Edge 132, Type (0, 1), BuildingBlock: XIVTED_clean_linker_0, # of connection points: 2
#     Edge 133, Type (0, 1), BuildingBlock: XIVTED_clean_linker_0, # of connection points: 2
#     Edge 134, Type (0, 1), BuildingBlock: XIVTED_clean_linker_0, # of connection points: 2
#     Edge 135, Type (0, 1), BuildingBlock: XIVTED_clean_linker_0, # of connection points: 2
# Relax obj value: 0.303
# Max RMSD: 0.289
# Mean RMSD: 0.141
data_MOF--net-iac--node1-CEKHIL_clean_sbu_0--node2-VOLQOD_clean_sbu_1--edge1-XIVTED_clean_linker_0
_symmetry_space_group_name_H-M    P1
_symmetry_Int_Tables_number       1
_symmetry_cell_setting            triclinic
loop_
_symmetry_equiv_pos_as_xyz
'x, y, z'
_cell_length_a     55.169339
_cell_length_b     54.588858
_cell_length_c     53.849187
_cell_angle_alpha  90.057862
_cell_angle_beta   90.30861
_cell_angle_gamma 90.711461
loop_
_atom_site_label
_atom_site_type_symbol
_atom_site_fract_x
_atom_site_fract_y
_atom_site_fract_z
_atom_type_partial_charge
Co0 Co 0.96127 0.28261 0.11836 0.0
O1 O 0.92654 0.28138 0.11652 0.0
O2 O 0.94862 0.2666 0.14751 0.0
C3 C 0.96765 0.32139 0.10652 0.0
O4 O 0.99726 0.28136 0.12659 0.0
Co5 Co 0.99032 0.2893 0.06955 0.0
O6 O 0.01802 0.29391 0.09294 0.0
C7 C 0.96457 0.2432 0.07885 0.0
C8 C 0.9274 0.26921 0.13722 0.0
C9 C 0.01708 0.288 0.11584 0.0
O10 O 0.96212 0.24995 0.10148 0.0
O11 O 0.97346 0.25724 0.06209 0.0
O12 O 0.96144 0.31667 0.12933 0.0
O13 O 0.96605 0.30316 0.09125 0.0
Co14 Co 0.03438 0.74469 0.39305 0.0
O15 O 0.06908 0.74773 0.39496 0.0
O16 O 0.04867 0.73087 0.36361 0.0
C17 C 0.02576 0.78296 0.40528 0.0
O18 O -0.00109 0.73932 0.38389 0.0
Co19 Co 0.00223 0.74984 0.44004 0.0
O20 O 0.97519 0.75081 0.41557 0.0
C21 C 0.03316 0.70682 0.43376 0.0
C22 C 0.06946 0.73705 0.3734 0.0
C23 C 0.978 0.74407 0.3931 0.0
O24 O 0.03603 0.71217 0.41067 0.0
O25 O 0.02242 0.72088 0.4491 0.0
O26 O 0.03179 0.77892 0.38233 0.0
O27 O 0.02758 0.76454 0.42011 0.0
Co28 Co 0.47334 0.79862 0.62983 0.0
O29 O 0.43873 0.80083 0.62993 0.0
O30 O 0.46045 0.77937 0.65684 0.0
C31 C 0.48335 0.83796 0.62404 0.0
O32 O 0.50938 0.79298 0.63523 0.0
Co33 Co 0.49964 0.80942 0.58025 0.0
O34 O 0.52884 0.8084 0.60193 0.0
C35 C 0.47222 0.7639 0.58511 0.0
C36 C 0.43922 0.78539 0.64826 0.0
C37 C 0.52891 0.79951 0.62383 0.0
O38 O 0.4703 0.76882 0.60826 0.0
O39 O 0.48184 0.77878 0.56958 0.0
O40 O 0.47728 0.83031 0.64606 0.0
O41 O 0.47898 0.82273 0.60605 0.0
Co42 Co 0.52584 0.23578 0.87078 0.0
O43 O 0.55494 0.24953 0.85676 0.0
O44 O 0.53005 0.2232 0.83771 0.0
C45 C 0.51155 0.27069 0.88686 0.0
O46 O 0.49376 0.21886 0.87783 0.0
Co47 Co 0.51436 0.23608 0.92717 0.0
O48 O 0.48053 0.2296 0.91559 0.0
C49 C 0.55229 0.20402 0.90749 0.0
C50 C 0.54952 0.23677 0.83704 0.0
C51 C 0.47688 0.22055 0.89406 0.0
O52 O 0.54465 0.20769 0.88518 0.0
O53 O 0.54422 0.21563 0.92632 0.0
O54 O 0.50845 0.26613 0.86333 0.0
O55 O 0.52473 0.2554 0.89893 0.0
Co56 Co 0.1281 0.01991 0.27318 0.0
O57 O 0.12719 0.98469 0.27171 0.0
O58 O 0.15543 0.00835 0.25455 0.0
C59 C 0.1199 0.02397 0.31379 0.0
O60 O 0.13601 0.05642 0.27164 0.0
Co61 Co 0.08221 0.04966 0.28644 0.0
O62 O 0.10583 0.07719 0.28959 0.0
C63 C 0.0847 0.02356 0.23884 0.0
C64 C 0.14687 0.98644 0.25862 0.0
C65 C 0.12712 0.07623 0.28058 0.0
O66 O 0.10769 0.02098 0.24199 0.0
O67 O 0.07094 0.03265 0.25543 0.0
O68 O 0.14187 0.01904 0.30686 0.0
O69 O 0.10366 0.02362 0.29649 0.0
Co70 Co 0.28158 0.88422 0.50471 0.0
O71 O 0.24751 0.87998 0.49888 0.0
O72 O 0.26409 0.90812 0.5237 0.0
C73 C 0.29359 0.88123 0.46533 0.0
O74 O 0.31592 0.89433 0.51426 0.0
Co75 Co 0.31615 0.84111 0.49331 0.0
O76 O 0.34177 0.86617 0.49976 0.0
C77 C 0.27899 0.83697 0.53162 0.0
C78 C 0.24461 0.89776 0.51458 0.0
C79 C 0.3375 0.88687 0.50973 0.0
O80 O 0.27897 0.86043 0.53285 0.0
O81 O 0.2911 0.82535 0.51529 0.0
O82 O 0.28539 0.90199 0.47346 0.0
O83 O 0.29161 0.86285 0.48024 0.0
Co84 Co 0.36711 0.9653 0.76109 0.0
O85 O 0.37215 0.00032 0.76128 0.0
O86 O 0.33903 0.98119 0.7475 0.0
C87 C 0.38125 0.95893 0.79977 0.0
O88 O 0.35402 0.93023 0.75873 0.0
Co89 Co 0.40839 0.92779 0.76628 0.0
O90 O 0.38212 0.90315 0.77044 0.0
C91 C 0.40608 0.96238 0.72423 0.0
C92 C 0.35066 0.00168 0.75138 0.0
C93 C 0.3604 0.90837 0.76458 0.0
O94 O 0.3831 0.96423 0.72765 0.0
O95 O 0.41962 0.95002 0.73885 0.0
O96 O 0.359 0.96599 0.79643 0.0
O97 O 0.39421 0.95723 0.78004 0.0
Co98 Co 0.26341 0.15043 0.01084 0.0
O99 O 0.29717 0.15173 0.00278 0.0
O100 O 0.28061 0.12584 0.02965 0.0
C101 C 0.24885 0.15188 0.972 0.0
O102 O 0.22885 0.14343 0.02235 0.0
Co103 Co 0.23197 0.19582 -0.00226 0.0
O104 O 0.20515 0.1729 0.00627 0.0
C105 C 0.26663 0.19873 0.03896 0.0
C106 C 0.29994 0.13379 0.01825 0.0
C107 C 0.20789 0.15258 0.01759 0.0
O108 O 0.26907 0.17532 0.03809 0.0
O109 O 0.25467 0.21075 0.02272 0.0
O110 O 0.25631 0.13119 0.98095 0.0
O111 O 0.25345 0.17098 0.98543 0.0
Co112 Co 0.76696 0.3758 0.00023 0.0
O113 O 0.73389 0.36637 0.00609 0.0
O114 O 0.75132 0.40095 0.01916 0.0
C115 C 0.76703 0.36524 0.96002 0.0
O116 O 0.79997 0.39229 -0.00297 0.0
Co117 Co 0.80526 0.33772 0.98568 0.0
O118 O 0.82698 0.36653 0.98062 0.0
C119 C 0.78013 0.3356 0.03356 0.0
C120 C 0.73213 0.38688 0.01813 0.0
C121 C 0.82104 0.38775 0.98819 0.0
O122 O 0.77649 0.35865 0.03145 0.0
O123 O 0.78967 0.32304 0.01614 0.0
O124 O 0.75868 0.38642 0.96675 0.0
O125 O 0.77348 0.35081 0.97779 0.0
Co126 Co 0.8702 0.45681 0.271 0.0
O127 O 0.87556 0.49163 0.27061 0.0
O128 O 0.84231 0.47266 0.25686 0.0
C129 C 0.88363 0.45048 0.30981 0.0
O130 O 0.8576 0.42172 0.26926 0.0
Co131 Co 0.91271 0.4208 0.27576 0.0
O132 O 0.88692 0.3954 0.27966 0.0
C133 C 0.9085 0.45409 0.23322 0.0
C134 C 0.85431 0.49305 0.26024 0.0
C135 C 0.86485 0.40004 0.2746 0.0
O136 O 0.88567 0.45494 0.2375 0.0
O137 O 0.92315 0.44288 0.24767 0.0
O138 O 0.86156 0.45782 0.30599 0.0
O139 O 0.89719 0.44917 0.29039 0.0
Co140 Co 0.75762 0.64495 0.50817 0.0
O141 O 0.79234 0.64389 0.50754 0.0
O142 O 0.76886 0.61834 0.52881 0.0
C143 C 0.75157 0.64945 0.4672 0.0
O144 O 0.72115 0.6399 0.51204 0.0
Co145 Co 0.7311 0.69226 0.4915 0.0
O146 O 0.70231 0.67013 0.49143 0.0
C147 C 0.75819 0.69174 0.5386 0.0
C148 C 0.7906 0.62529 0.52245 0.0
C149 C 0.70197 0.64955 0.50262 0.0
O150 O 0.75952 0.66825 0.53726 0.0
O151 O 0.74949 0.70489 0.5211 0.0
O152 O 0.7555 0.62778 0.47627 0.0
O153 O 0.75424 0.66745 0.48255 0.0
Co154 Co 0.64232 0.529 0.77985 0.0
O155 O 0.63767 0.49568 0.76882 0.0
O156 O 0.6684 0.52002 0.75824 0.0
C157 C 0.63416 0.5223 0.82004 0.0
O158 O 0.65452 0.56341 0.78766 0.0
Co159 Co 0.60163 0.56024 0.80305 0.0
O160 O 0.62812 0.58382 0.81122 0.0
C161 C 0.59975 0.54665 0.74998 0.0
C162 C 0.65775 0.49874 0.75659 0.0
C163 C 0.64875 0.58199 0.80094 0.0
O164 O 0.6222 0.5405 0.7509 0.0
O165 O 0.58782 0.55313 0.76918 0.0
O166 O 0.65557 0.51743 0.81149 0.0
O167 O 0.6182 0.52912 0.80401 0.0
Co168 Co 0.00398 0.78257 0.8811 0.0
O169 O 0.03364 0.76434 0.88086 0.0
O170 O 0.0058 0.76387 0.85097 0.0
C171 C 0.02188 0.81774 0.89323 0.0
O172 O 0.97217 0.79887 0.87321 0.0
Co173 Co 0.98215 0.80836 0.92663 0.0
O174 O 0.95773 0.82232 0.90367 0.0
C175 C 0.97753 0.75437 0.92108 0.0
C176 C 0.02698 0.75711 0.85881 0.0
C177 C 0.95645 0.81377 0.88172 0.0
O178 O 0.98664 0.75531 0.8991 0.0
O179 O 0.97594 0.7731 0.9353 0.0
O180 O 0.02169 0.81158 0.86992 0.0
O181 O 0.01185 0.80247 0.90844 0.0
Co182 Co 0.9981 0.24612 0.65704 0.0
O183 O 0.96578 0.23328 0.65686 0.0
O184 O 0.9895 0.23543 0.69013 0.0
C185 C 0.98752 0.28 0.63613 0.0
O186 O 0.03221 0.25844 0.66451 0.0
Co187 Co 0.02627 0.25741 0.6089 0.0
O188 O 0.0506 0.27352 0.6307 0.0
C189 C 0.02393 0.20654 0.629 0.0
C190 C 0.96814 0.23088 0.68069 0.0
C191 C 0.05033 0.269 0.65387 0.0
O192 O 0.0114 0.21337 0.6478 0.0
O193 O 0.03034 0.22097 0.61139 0.0
O194 O 0.98543 0.27895 0.66007 0.0
O195 O 0.99547 0.26053 0.62537 0.0
Co196 Co 0.49125 0.28411 0.38865 0.0
O197 O 0.52434 0.27328 0.38968 0.0
O198 O 0.49966 0.2699 0.35718 0.0
C199 C 0.49994 0.32066 0.40604 0.0
O200 O 0.45684 0.29343 0.37935 0.0
Co201 Co 0.46121 0.2985 0.43441 0.0
O202 O 0.43661 0.31058 0.41068 0.0
C203 C 0.47017 0.2461 0.42318 0.0
C204 C 0.52114 0.26695 0.36661 0.0
C205 C 0.43807 0.30408 0.38805 0.0
O206 O 0.47977 0.2517 0.40216 0.0
O207 O 0.46324 0.26209 0.43897 0.0
O208 O 0.50259 0.31745 0.3823 0.0
O209 O 0.49256 0.30184 0.41852 0.0
Co210 Co 0.51312 0.75201 0.11319 0.0
O211 O 0.47858 0.75226 0.11186 0.0
O212 O 0.50008 0.7427 0.14524 0.0
C213 C 0.51562 0.78922 0.09549 0.0
O214 O 0.54909 0.75036 0.12149 0.0
Co215 Co 0.54334 0.7548 0.06581 0.0
O216 O 0.5715 0.75964 0.0881 0.0
C217 C 0.52144 0.70749 0.08135 0.0
C218 C 0.47899 0.747 0.13527 0.0
C219 C 0.56965 0.75448 0.11105 0.0
O220 O 0.51331 0.71736 0.10123 0.0
O221 O 0.5326 0.71954 0.06441 0.0
O222 O 0.51358 0.78678 0.11932 0.0
O223 O 0.51613 0.76907 0.0828 0.0
Co224 Co 0.88473 0.04447 0.75425 0.0
O225 O 0.8916 0.07373 0.73537 0.0
O226 O 0.85774 0.0516 0.73301 0.0
C227 C 0.89774 0.06067 0.79043 0.0
O228 O 0.8693 0.01501 0.77035 0.0
Co229 Co 0.92116 0.0146 0.78565 0.0
O230 O 0.89371 0.99234 0.79411 0.0
C231 C 0.91703 0.00671 0.73097 0.0
C232 C 0.86953 0.07138 0.72692 0.0
C233 C 0.87313 0.99654 0.78435 0.0
O234 O 0.89976 0.02232 0.72873 0.0
O235 O 0.92839 0.00286 0.75136 0.0
O236 O 0.87593 0.06497 0.78252 0.0
O237 O 0.91099 0.04723 0.77642 0.0
Co238 Co 0.78688 0.1455 0.48472 0.0
O239 O 0.82037 0.14181 0.4767 0.0
O240 O 0.80274 0.12693 0.51049 0.0
C241 C 0.77334 0.13522 0.44685 0.0
O242 O 0.75274 0.14481 0.49867 0.0
Co243 Co 0.75625 0.18445 0.45814 0.0
O244 O 0.72873 0.16985 0.47677 0.0
C245 C 0.78887 0.19967 0.49868 0.0
C246 C 0.82209 0.129 0.49687 0.0
C247 C 0.73197 0.15427 0.49405 0.0
O248 O 0.79403 0.17707 0.50259 0.0
O249 O 0.77564 0.20669 0.48051 0.0
O250 O 0.7783 0.1183 0.4629 0.0
O251 O 0.7783 0.15752 0.45339 0.0
Co252 Co 0.61556 0.95688 0.27582 0.0
O253 O 0.62043 0.92263 0.28218 0.0
O254 O 0.64338 0.9459 0.25781 0.0
C255 C 0.60995 0.96731 0.31576 0.0
O256 O 0.61723 0.99223 0.26508 0.0
Co257 Co 0.56766 0.9833 0.28867 0.0
O258 O 0.58376 0.01303 0.27476 0.0
C259 C 0.57159 0.95545 0.2417 0.0
C260 C 0.63946 0.92476 0.26821 0.0
C261 C 0.60459 0.01178 0.26476 0.0
O262 O 0.59379 0.95002 0.24647 0.0
O263 O 0.55779 0.96624 0.2572 0.0
O264 O 0.63172 0.96515 0.30707 0.0
O265 O 0.59245 0.96158 0.30078 0.0
Co266 Co 0.74269 0.86293 0.01699 0.0
O267 O 0.7118 0.85389 0.03066 0.0
O268 O 0.73366 0.88617 0.04224 0.0
C269 C 0.72901 0.85882 0.97782 0.0
O270 O 0.77454 0.87895 0.00684 0.0
Co271 Co 0.7717 0.82892 0.9828 0.0
O272 O 0.79365 0.85741 0.97758 0.0
C273 C 0.77411 0.82266 0.03751 0.0
C274 C 0.71301 0.87438 0.04285 0.0
C275 C 0.79216 0.87608 0.99165 0.0
O276 O 0.76063 0.84147 0.04099 0.0
O277 O 0.77891 0.81396 0.01601 0.0
O278 O 0.72604 0.87908 0.98989 0.0
O279 O 0.73981 0.84146 0.98967 0.0
Co280 Co 0.27518 0.62718 0.98974 0.0
O281 O 0.30923 0.62371 0.98445 0.0
O282 O 0.28749 0.60115 0.0105 0.0
C283 C 0.26622 0.62838 0.949 0.0
O284 O 0.23968 0.62523 -0.00057 0.0
Co285 Co 0.24897 0.67361 0.97068 0.0
O286 O 0.21933 0.65676 0.98289 0.0
C287 C 0.27675 0.67556 0.01771 0.0
C288 C 0.30824 0.6055 -0.00017 0.0
C289 C 0.22007 0.63724 0.99582 0.0
O290 O 0.28092 0.65242 0.0165 0.0
O291 O 0.26651 0.68757 0.00023 0.0
O292 O 0.26841 0.60749 0.96018 0.0
O293 O 0.27075 0.64759 0.96227 0.0
Co294 Co 0.13125 0.46934 0.78407 0.0
O295 O 0.13708 0.43888 0.80105 0.0
O296 O 0.16128 0.45594 0.77301 0.0
C297 C 0.12039 0.49097 0.81763 0.0
O298 O 0.13225 0.49998 0.76312 0.0
Co299 Co 0.08036 0.49354 0.7828 0.0
O300 O 0.09615 0.51851 0.76116 0.0
C301 C 0.08952 0.45012 0.75341 0.0
C302 C 0.15727 0.43834 0.78873 0.0
C303 C 0.11832 0.51679 0.75483 0.0
O304 O 0.11259 0.4525 0.75655 0.0
O305 O 0.07426 0.46044 0.76768 0.0
O306 O 0.14324 0.48771 0.8131 0.0
O307 O 0.10538 0.47943 0.8033 0.0
Co308 Co 0.24177 0.36673 0.52442 0.0
O309 O 0.20973 0.35545 0.53276 0.0
O310 O 0.22779 0.3883 0.54875 0.0
C311 C 0.23443 0.36316 0.48333 0.0
O312 O 0.27386 0.38492 0.52025 0.0
Co313 Co 0.27757 0.33538 0.49507 0.0
O314 O 0.29936 0.36446 0.49577 0.0
C315 C 0.27168 0.32736 0.54904 0.0
C316 C 0.20816 0.37503 0.54627 0.0
C317 C 0.29433 0.38287 0.50924 0.0
O318 O 0.257 0.34547 0.5505 0.0
O319 O 0.28019 0.31943 0.52851 0.0
O320 O 0.22857 0.38282 0.4953 0.0
O321 O 0.24431 0.34608 0.49641 0.0
Co322 Co 0.38827 0.53391 0.26013 0.0
O323 O 0.40881 0.56247 0.25592 0.0
O324 O 0.3761 0.55343 0.23351 0.0
C325 C 0.386 0.53736 0.30147 0.0
O326 O 0.36154 0.50839 0.25903 0.0
Co327 Co 0.40146 0.48811 0.29126 0.0
O328 O 0.36645 0.47952 0.28813 0.0
C329 C 0.42022 0.49377 0.24011 0.0
C330 C 0.39295 0.56923 0.23939 0.0
C331 C 0.35396 0.48968 0.27115 0.0
O332 O 0.40799 0.5135 0.23691 0.0
O333 O 0.42145 0.48227 0.26079 0.0
O334 O 0.37232 0.55073 0.28742 0.0
O335 O 0.40138 0.52355 0.29039 0.0
O336 O 0.9811 0.07373 0.01577 0.0
Zn337 Zn 0.00274 0.05186 -0.00262 0.0
O338 O 0.99733 0.01896 0.00987 0.0
Zn339 Zn 0.02816 0.00487 0.0195 0.0
Zn340 Zn 0.97382 0.0178 0.03708 0.0
Zn341 Zn 0.98433 0.00087 0.98258 0.0
O342 O 0.03792 0.97759 -0.00371 0.0
O343 O 0.00974 0.98072 0.96684 0.0
O344 O 0.03702 0.06345 0.00323 0.0
O345 O 0.05472 0.0305 0.01876 0.0
O346 O 0.02685 0.9938 0.05496 0.0
O347 O 0.99113 0.00687 0.06828 0.0
O348 O 0.94595 0.99382 0.02936 0.0
O349 O 0.99227 0.05693 0.96176 0.0
O350 O 0.95729 0.979 0.99289 0.0
O351 O 0.97021 0.02301 0.95739 0.0
C352 C 0.96515 0.07201 0.0326 0.0
C353 C 0.02945 0.97184 0.97497 0.0
C354 C 0.0117 -0.00284 0.07238 0.0
C355 C 0.05559 0.05286 0.01211 0.0
C356 C 0.94282 0.97909 0.01116 0.0
C357 C 0.97629 0.04433 0.95019 0.0
O358 O 0.96011 0.05173 0.04324 0.0
O359 O 0.25135 0.74447 0.19962 0.0
Zn360 Zn 0.25765 0.74785 0.23623 0.0
O361 O 0.27194 0.7798 0.2435 0.0
Zn362 Zn 0.30243 0.77601 0.26129 0.0
Zn363 Zn 0.2761 0.79971 0.21362 0.0
Zn364 Zn 0.25067 0.79665 0.26491 0.0
O365 O 0.30421 0.79534 0.29306 0.0
O366 O 0.26916 0.81474 0.29108 0.0
O367 O 0.28272 0.72238 0.24285 0.0
O368 O 0.31167 0.74065 0.26517 0.0
O369 O 0.32874 0.78894 0.24023 0.0
O370 O 0.31173 0.80708 0.20777 0.0
O371 O 0.25512 0.83042 0.21408 0.0
O372 O 0.22767 0.74035 0.25722 0.0
O373 O 0.23176 0.82128 0.24636 0.0
O374 O 0.2277 0.77354 0.28117 0.0
C375 C 0.25711 0.75791 0.18118 0.0
C376 C 0.28984 0.81161 0.301 0.0
C377 C 0.33049 0.80054 0.2199 0.0
C378 C 0.30282 0.72167 0.25454 0.0
C379 C 0.23665 0.8345 0.22759 0.0
C380 C 0.21943 0.75238 0.2756 0.0
O381 O 0.26648 0.77916 0.18417 0.0
O382 O 0.54995 0.98616 0.55581 0.0
Zn383 Zn 0.53383 0.00732 0.53128 0.0
O384 O 0.53253 0.04069 0.54318 0.0
Zn385 Zn 0.49867 0.05106 0.54473 0.0
Zn386 Zn 0.54824 0.04315 0.57612 0.0
Zn387 Zn 0.54936 0.06081 0.51923 0.0
O388 O 0.49187 0.08032 0.52287 0.0
O389 O 0.52677 0.08388 0.50278 0.0
O390 O 0.50074 0.99299 0.52652 0.0
O391 O 0.47605 0.0238 0.53407 0.0
O392 O 0.48914 0.05697 0.57998 0.0
O393 O 0.52302 0.05177 0.60171 0.0
O394 O 0.57679 0.06757 0.57563 0.0
O395 O 0.55127 0.00408 0.49935 0.0
O396 O 0.57478 0.08041 0.5364 0.0
O397 O 0.56503 0.04156 0.49176 0.0
C398 C 0.55881 0.98892 0.57745 0.0
C399 C 0.50496 0.09026 0.50617 0.0
C400 C 0.5003 0.05577 0.60069 0.0
C401 C 0.4795 0.00157 0.52808 0.0
C402 C 0.58419 0.08133 0.55799 0.0
C403 C 0.56327 0.01901 0.48602 0.0
O404 O 0.55951 0.0098 0.58802 0.0
O405 O 0.24507 0.21872 0.81404 0.0
Zn406 Zn 0.26928 0.23922 0.796 0.0
O407 O 0.26914 0.22982 0.76094 0.0
Zn408 Zn 0.30125 0.22017 0.74991 0.0
Zn409 Zn 0.24568 0.20289 0.75472 0.0
Zn410 Zn 0.26026 0.25843 0.74253 0.0
O411 O 0.31368 0.23975 0.72032 0.0
O412 O 0.28388 0.26644 0.71663 0.0
O413 O 0.3022 0.23297 0.81107 0.0
O414 O 0.32447 0.22186 0.77869 0.0
O415 O 0.30048 0.18518 0.73947 0.0
O416 O 0.26196 0.17294 0.74009 0.0
O417 O 0.21762 0.21484 0.73364 0.0
O418 O 0.26023 0.27461 0.80217 0.0
O419 O 0.22813 0.25363 0.72649 0.0
O420 O 0.25756 0.288 0.76348 0.0
C421 C 0.23164 0.20038 0.80857 0.0
C422 C 0.30407 0.25808 0.7097 0.0
C423 C 0.28429 0.16872 0.73604 0.0
C424 C 0.3223 0.22632 0.80181 0.0
C425 C 0.21322 0.23582 0.72434 0.0
C426 C 0.25703 0.29186 0.78669 0.0
O427 O 0.23089 0.19134 0.78681 0.0
O428 O 0.03065 0.00969 0.47886 0.0
Zn429 Zn 0.00752 0.99232 0.50128 0.0
O430 O 0.0225 0.98824 0.53403 0.0
Zn431 Zn 0.02546 0.95356 0.54294 0.0
Zn432 Zn 0.05407 0.00478 0.53516 0.0
Zn433 Zn 0.00204 0.00328 0.55809 0.0
O434 O 0.00492 0.94352 0.57268 0.0
O435 O 0.98585 0.97857 0.57865 0.0
O436 O 0.00045 0.95941 0.48543 0.0
O437 O 0.01325 0.93343 0.51441 0.0
O438 O 0.06061 0.94498 0.54886 0.0
O439 O 0.07953 0.98089 0.54444 0.0
O440 O 0.05494 0.03212 0.5604 0.0
O441 O 0.97703 0.01271 0.5025 0.0
O442 O 0.02003 0.02661 0.57997 0.0
O443 O 0.97552 0.02185 0.54256 0.0
C444 C 0.05197 0.01862 0.48096 0.0
C445 C 0.98865 0.95604 0.58329 0.0
C446 C 0.07995 0.95802 0.54895 0.0
C447 C 0.0039 0.93769 0.4932 0.0
C448 C 0.0404 0.0375 0.57783 0.0
C449 C 0.96713 0.02362 0.52068 0.0
O450 O 0.06353 0.01803 0.50147 0.0
O451 O 0.2832 0.70539 0.71738 0.0
Zn452 Zn 0.25467 0.71027 0.73888 0.0
O453 O 0.22498 0.70724 0.71998 0.0
Zn454 Zn 0.20794 0.73871 0.71991 0.0
Zn455 Zn 0.23228 0.69583 0.68631 0.0
Zn456 Zn 0.20518 0.68284 0.73601 0.0
O457 O 0.17611 0.73638 0.73899 0.0
O458 O 0.17677 0.69777 0.75193 0.0
O459 O 0.25922 0.74415 0.75225 0.0
O460 O 0.22912 0.76532 0.73566 0.0
O461 O 0.20199 0.74959 0.68465 0.0
O462 O 0.21874 0.71995 0.66245 0.0
O463 O 0.21657 0.66274 0.67813 0.0
O464 O 0.25662 0.68622 0.76641 0.0
O465 O 0.19295 0.65905 0.71131 0.0
O466 O 0.22262 0.6645 0.76286 0.0
C467 C 0.28645 0.70058 0.69459 0.0
C468 C 0.16692 0.71865 0.75134 0.0
C469 C 0.20758 0.74017 0.66381 0.0
C470 C 0.24862 0.76437 0.74843 0.0
C471 C 0.1994 0.65215 0.68985 0.0
C472 C 0.24293 0.66867 0.77337 0.0
O473 O 0.26863 0.69636 0.67995 0.0
O474 O 0.53777 0.02089 0.06006 0.0
Zn475 Zn 0.53994 0.01783 0.02272 0.0
O476 O 0.50996 0.0051 0.00837 0.0
Zn477 Zn 0.51607 0.97524 0.98961 0.0
Zn478 Zn 0.48579 -8e-05 0.03381 0.0
Zn479 Zn 0.49746 0.0287 0.98594 0.0
O480 O 0.50265 0.97649 0.9544 0.0
O481 O 0.48276 0.0115 0.95691 0.0
O482 O 0.56538 0.99273 0.01893 0.0
O483 O 0.55102 0.96383 0.99361 0.0
O484 O 0.49665 0.9487 0.00487 0.0
O485 O 0.47275 0.96543 0.03308 0.0
O486 O 0.4588 0.02433 0.03185 0.0
O487 O 0.55242 0.04782 0.00433 0.0
O488 O 0.47084 0.04863 0.00116 0.0
O489 O 0.52465 0.0499 0.97426 0.0
C490 C 0.52194 0.01192 0.07478 0.0
C491 C 0.48715 0.99148 0.94581 0.0
C492 C 0.47996 0.9469 0.02094 0.0
C493 C 0.56796 0.97268 0.00732 0.0
C494 C 0.4561 0.04342 0.01858 0.0
C495 C 0.54493 0.05644 0.9837 0.0
O496 O 0.50191 0.00315 0.06677 0.0
O497 O 0.16848 0.29644 0.24144 0.0
Zn498 Zn 0.19477 0.2911 0.26676 0.0
O499 O 0.22609 0.30203 0.25374 0.0
Zn500 Zn 0.24909 0.2747 0.25312 0.0
Zn501 Zn 0.22238 0.31664 0.22058 0.0
Zn502 Zn 0.23822 0.32699 0.27573 0.0
O503 O 0.27861 0.28183 0.27499 0.0
O504 O 0.27102 0.31927 0.28878 0.0
O505 O 0.19571 0.25528 0.27298 0.0
O506 O 0.23275 0.24272 0.2637 0.0
O507 O 0.26117 0.26973 0.21833 0.0
O508 O 0.24381 0.29926 0.19636 0.0
O509 O 0.23086 0.35318 0.21963 0.0
O510 O 0.1859 0.30659 0.29973 0.0
O511 O 0.23974 0.35895 0.25942 0.0
O512 O 0.21732 0.33181 0.30464 0.0
C513 C 0.16844 0.30421 0.21913 0.0
C514 C 0.28472 0.30077 0.28756 0.0
C515 C 0.25786 0.28096 0.19789 0.0
C516 C 0.21124 0.23836 0.27118 0.0
C517 C 0.23666 0.36721 0.23767 0.0
C518 C 0.19729 0.323 0.31205 0.0
O519 O 0.18779 0.31209 0.20883 0.0
O520 O 0.52024 0.48218 0.97013 0.0
Zn521 Zn 0.49502 0.46931 0.99411 0.0
O522 O 0.5084 0.46739 0.02764 0.0
Zn523 Zn 0.51365 0.43365 0.03843 0.0
Zn524 Zn 0.53868 0.48547 0.02919 0.0
Zn525 Zn 0.48596 0.48264 0.04966 0.0
O526 O 0.49783 0.42635 0.07173 0.0
O527 O 0.47919 0.46162 0.0784 0.0
O528 O 0.48679 0.43546 0.98233 0.0
O529 O 0.5 0.41073 0.01227 0.0
O530 O 0.5495 0.42768 0.04333 0.0
O531 O 0.56451 0.46562 0.04498 0.0
O532 O 0.53547 0.51715 0.04703 0.0
O533 O 0.46408 0.48949 0.99299 0.0
O534 O 0.49807 0.5153 0.06172 0.0
O535 O 0.45472 0.48918 0.03304 0.0
C536 C 0.5415 0.49098 0.9735 0.0
C537 C 0.48456 0.44004 0.08495 0.0
C538 C 0.56701 0.44262 0.04752 0.0
C539 C 0.4899 0.4141 0.99117 0.0
C540 C 0.51814 0.52663 0.05898 0.0
C541 C 0.44923 0.49357 0.01058 0.0
O542 O 0.55059 0.49344 0.99511 0.0
O543 O 0.77561 0.19852 0.221 0.0
Zn544 Zn 0.7495 0.20478 0.24508 0.0
O545 O 0.71861 0.2063 0.22819 0.0
Zn546 Zn 0.70646 0.2398 0.22826 0.0
Zn547 Zn 0.72188 0.19306 0.19456 0.0
Zn548 Zn 0.6962 0.18618 0.24618 0.0
O549 O 0.67437 0.24269 0.24679 0.0
O550 O 0.67232 0.20594 0.26436 0.0
O551 O 0.75856 0.23704 0.26056 0.0
O552 O 0.73074 0.2621 0.24545 0.0
O553 O 0.70414 0.25203 0.19303 0.0
O554 O 0.71229 0.21901 0.17047 0.0
O555 O 0.70064 0.16257 0.18898 0.0
O556 O 0.75036 0.17801 0.27013 0.0
O557 O 0.67801 0.16496 0.22294 0.0
O558 O 0.71242 0.16423 0.27079 0.0
C559 C 0.77655 0.19185 0.19845 0.0
C560 C 0.66452 0.22759 0.26186 0.0
C561 C 0.70695 0.24159 0.17206 0.0
C562 C 0.75011 0.25847 0.25786 0.0
C563 C 0.68231 0.15583 0.20174 0.0
C564 C 0.73428 0.1632 0.27821 0.0
O565 O 0.7573 0.18774 0.18582 0.0
O566 O 0.02511 0.5053 0.58091 0.0
Zn567 Zn 0.0233 0.50411 0.54377 0.0
O568 O 0.99254 0.49021 0.53267 0.0
Zn569 Zn 0.9974 0.45926 0.51543 0.0
Zn570 Zn 0.9706 0.48619 0.56073 0.0
Zn571 Zn 0.97868 0.51264 0.50986 0.0
O572 O 0.98362 0.45942 0.48041 0.0
O573 O 0.96424 0.49483 0.48108 0.0
O574 O 0.04973 0.48074 0.53618 0.0
O575 O 0.03254 0.44871 0.51737 0.0
O576 O 0.97836 0.43345 0.53292 0.0
O577 O 0.9558 0.45238 0.5609 0.0
O578 O 0.9441 0.51189 0.56108 0.0
O579 O 0.03169 0.53641 0.52711 0.0
O580 O 0.9524 0.53157 0.52597 0.0
O581 O 0.00347 0.5364 0.4975 0.0
C582 C 0.01172 0.49533 0.59735 0.0
C583 C 0.96872 0.47441 0.47081 0.0
C584 C 0.96209 0.433 0.54958 0.0
C585 C 0.05114 0.45948 0.52668 0.0
C586 C 0.93999 0.5291 0.54567 0.0
C587 C 0.02282 0.54515 0.50714 0.0
O588 O 0.9906 0.48714 0.59205 0.0
O589 O 0.75661 0.71883 0.29799 0.0
Zn590 Zn 0.77679 0.73944 0.27555 0.0
O591 O 0.77739 0.72432 0.24269 0.0
Zn592 Zn 0.81022 0.7144 0.23383 0.0
Zn593 Zn 0.7548 0.6961 0.24102 0.0
Zn594 Zn 0.76758 0.74887 0.21943 0.0
O595 O 0.82276 0.73063 0.20229 0.0
O596 O 0.79367 0.75775 0.19643 0.0
O597 O 0.81053 0.74116 0.29018 0.0
O598 O 0.83319 0.72295 0.26172 0.0
O599 O 0.81102 0.67804 0.22904 0.0
O600 O 0.77261 0.66546 0.23113 0.0
O601 O 0.72691 0.70258 0.217 0.0
O602 O 0.76155 0.77303 0.27574 0.0
O603 O 0.7393 0.73741 0.19962 0.0
O604 O 0.75696 0.77952 0.23545 0.0
C605 C 0.74359 0.69957 0.29569 0.0
C606 C 0.81406 0.74893 0.19084 0.0
C607 C 0.79503 0.66104 0.22797 0.0
C608 C 0.83099 0.7335 0.2827 0.0
C609 C 0.72423 0.7197 0.20114 0.0
C610 C 0.75495 0.78657 0.25777 0.0
O611 O 0.74114 0.68852 0.27498 0.0
O612 O 0.73876 0.25713 0.66913 0.0
Zn613 Zn 0.73195 0.25205 0.70527 0.0
O614 O 0.74556 0.27975 0.72392 0.0
Zn615 Zn 0.76573 0.26697 0.75034 0.0
Zn616 Zn 0.76402 0.30258 0.7029 0.0
Zn617 Zn 0.71994 0.29766 0.73885 0.0
O618 O 0.75615 0.27871 0.78388 0.0
O619 O 0.7265 0.30439 0.77507 0.0
O620 O 0.75002 0.22121 0.7134 0.0
O621 O 0.76882 0.23054 0.7487 0.0
O622 O 0.79977 0.27774 0.74543 0.0
O623 O 0.79966 0.30144 0.71197 0.0
O624 O 0.75055 0.33737 0.70327 0.0
O625 O 0.69587 0.24669 0.71212 0.0
O626 O 0.71571 0.32957 0.72236 0.0
O627 O 0.68893 0.27958 0.73531 0.0
C628 C 0.75188 0.27238 0.65712 0.0
C629 C 0.74104 0.29479 0.79059 0.0
C630 C 0.81096 0.29048 0.72936 0.0
C631 C 0.76362 0.2153 0.73153 0.0
C632 C 0.72949 0.34386 0.71014 0.0
C633 C 0.68156 0.26017 0.72449 0.0
O634 O 0.76246 0.29045 0.66772 0.0
O635 O 0.68709 0.792 0.73759 0.0
Zn636 Zn 0.71105 0.78929 0.76502 0.0
O637 O 0.74215 0.80235 0.75457 0.0
Zn638 Zn 0.76634 0.77628 0.7541 0.0
Zn639 Zn 0.73959 0.81794 0.72194 0.0
Zn640 Zn 0.75139 0.82679 0.77852 0.0
O641 O 0.79639 0.78696 0.77336 0.0
O642 O 0.78305 0.81908 0.79442 0.0
O643 O 0.71432 0.75463 0.7752 0.0
O644 O 0.75292 0.74493 0.76945 0.0
O645 O 0.77526 0.76827 0.71871 0.0
O646 O 0.75822 0.79832 0.69722 0.0
O647 O 0.75342 0.85289 0.7221 0.0
O648 O 0.69706 0.80608 0.79485 0.0
O649 O 0.7566 0.85866 0.76278 0.0
O650 O 0.72678 0.83213 0.80424 0.0
C651 C 0.6863 0.80417 0.71747 0.0
C652 C 0.79959 0.80382 0.78953 0.0
C653 C 0.77092 0.77901 0.69819 0.0
C654 C 0.73156 0.73948 0.77668 0.0
C655 C 0.75796 0.86662 0.74076 0.0
C656 C 0.70591 0.82309 0.80832 0.0
O657 O 0.70457 0.81657 0.70982 0.0
O658 O 0.47527 0.58551 0.52209 0.0
Zn659 Zn 0.48988 0.55709 0.50549 0.0
O660 O 0.48597 0.52918 0.52736 0.0
Zn661 Zn 0.51694 0.51468 0.53528 0.0
Zn662 Zn 0.46659 0.53628 0.5568 0.0
Zn663 Zn 0.469 0.50552 0.50859 0.0
O664 O 0.52249 0.48195 0.51801 0.0
O665 O 0.4912 0.48288 0.492 0.0
O666 O 0.52538 0.56539 0.50037 0.0
O667 O 0.54336 0.5373 0.5237 0.0
O668 O 0.52079 0.51267 0.57217 0.0
O669 O 0.48811 0.53109 0.58715 0.0
O670 O 0.43656 0.51323 0.55866 0.0
O671 O 0.47067 0.55388 0.47334 0.0
O672 O 0.44672 0.48645 0.52951 0.0
O673 O 0.44917 0.52061 0.48242 0.0
C674 C 0.46239 0.58944 0.54115 0.0
C675 C 0.51121 0.47388 0.49892 0.0
C676 C 0.50872 0.52108 0.59035 0.0
C677 C 0.54444 0.55616 0.50985 0.0
C678 C 0.43329 0.49281 0.5474 0.0
C679 C 0.45312 0.53912 0.46876 0.0
O680 O 0.45685 0.5723 0.55633 0.0
O681 O 0.01985 0.48558 0.02957 0.0
Zn682 Zn 0.00761 0.51465 0.01132 0.0
O683 O 0.00812 0.54317 0.03266 0.0
Zn684 Zn 0.97488 0.55366 0.03932 0.0
Zn685 Zn 0.02604 0.53628 0.06308 0.0
Zn686 Zn 0.02536 0.56873 0.01566 0.0
O687 O 0.96767 0.58687 0.02367 0.0
O688 O 0.00222 0.5932 0.00339 0.0
O689 O 0.97389 0.50539 0.00139 0.0
O690 O 0.9508 0.52972 0.02397 0.0
O691 O 0.96885 0.55263 0.07626 0.0
O692 O 0.00476 0.54305 0.09234 0.0
O693 O 0.05778 0.55574 0.06499 0.0
O694 O 0.02721 0.51948 0.98074 0.0
O695 O 0.05018 0.58471 0.0372 0.0
O696 O 0.04315 0.55667 0.9857 0.0
C697 C 0.02862 0.48222 0.05116 0.0
C698 C 0.98052 0.59896 0.00822 0.0
C699 C 0.98238 0.54798 0.09493 0.0
C700 C 0.95312 0.51207 0.0087 0.0
C701 C 0.06331 0.57593 0.05441 0.0
C702 C 0.04101 0.53684 0.97351 0.0
O703 O 0.03235 0.50004 0.06603 0.0
H704 H 0.95044 0.20638 0.11034 0.0
H705 H 0.94918 0.1074 0.00203 0.0
H706 H 0.96163 0.22225 0.03261 0.0
H707 H 0.95532 0.08861 0.07952 0.0
H708 H 0.94099 0.14966 0.01354 0.0
H709 H 0.94115 0.16384 0.09958 0.0
C710 C 0.9508 0.20101 0.09098 0.0
C711 C 0.95735 0.21784 0.07235 0.0
C712 C 0.94364 0.13626 0.02809 0.0
C713 C 0.94639 0.16926 0.06003 0.0
C714 C 0.94817 0.11214 0.02154 0.0
C715 C 0.95331 0.09478 0.03991 0.0
C716 C 0.94468 0.14309 0.05318 0.0
C717 C 0.95155 0.10161 0.06488 0.0
C718 C 0.9454 0.17672 0.0849 0.0
C719 C 0.95714 0.20986 0.04762 0.0
N720 N 0.94789 0.12551 0.07085 0.0
N721 N 0.95195 0.18608 0.04221 0.0
H722 H 0.11514 0.74379 0.39169 0.0
H723 H 0.1805 0.72358 0.26105 0.0
H724 H 0.07642 0.721 0.32558 0.0
H725 H 0.21285 0.75934 0.32477 0.0
H726 H 0.14437 0.71405 0.28614 0.0
H727 H 0.15312 0.74099 0.36913 0.0
C728 C 0.11464 0.73804 0.37243 0.0
C729 C 0.09256 0.733 0.36038 0.0
C730 C 0.15957 0.72366 0.29465 0.0
C731 C 0.13608 0.7299 0.3343 0.0
C732 C 0.18018 0.72894 0.28042 0.0
C733 C 0.19945 0.74252 0.29083 0.0
C734 C 0.15855 0.73182 0.31941 0.0
C735 C 0.1982 0.74915 0.31594 0.0
C736 C 0.13636 0.73642 0.35954 0.0
C737 C 0.09306 0.72529 0.33549 0.0
N738 N 0.17806 0.74387 0.32929 0.0
N739 N 0.11449 0.72424 0.32314 0.0
H740 H 0.49611 0.87253 0.65882 0.0
H741 H 0.57715 0.94585 0.56137 0.0
H742 H 0.50705 0.85257 0.58215 0.0
H743 H 0.54599 0.98035 0.62557 0.0
H744 H 0.5641 0.906 0.57723 0.0
H745 H 0.52404 0.90747 0.65329 0.0
C746 C 0.50438 0.87548 0.64086 0.0
C747 C 0.49908 0.85977 0.62082 0.0
C748 C 0.56073 0.92221 0.58823 0.0
C749 C 0.53149 0.89901 0.61472 0.0
C750 C 0.5685 0.94491 0.57938 0.0
C751 C 0.56212 0.96637 0.59193 0.0
C752 C 0.54637 0.92111 0.60963 0.0
C753 C 0.55104 0.96419 0.61523 0.0
C754 C 0.52043 0.89524 0.63782 0.0
C755 C 0.51045 0.86427 0.59805 0.0
N756 N 0.54281 0.94192 0.62305 0.0
N757 N 0.52611 0.88345 0.59564 0.0
H758 H 0.46326 0.18961 0.8567 0.0
H759 H 0.32807 0.24004 0.85071 0.0
H760 H 0.43399 0.23774 0.91233 0.0
H761 H 0.36441 0.20318 0.79073 0.0
H762 H 0.36364 0.23331 0.87724 0.0
H763 H 0.42351 0.18704 0.83696 0.0
C764 C 0.44833 0.19929 0.86503 0.0
C765 C 0.45201 0.21424 0.88594 0.0
C766 C 0.36369 0.22661 0.8583 0.0
C767 C 0.40653 0.21182 0.8631 0.0
C768 C 0.34346 0.23051 0.84313 0.0
C769 C 0.34339 0.22247 0.81834 0.0
C770 C 0.38382 0.21441 0.84864 0.0
C771 C 0.36375 0.21004 0.80958 0.0
C772 C 0.42565 0.19793 0.85367 0.0
C773 C 0.43194 0.22611 0.89614 0.0
N774 N 0.38311 0.20647 0.82468 0.0
N775 N 0.41008 0.225 0.88435 0.0
H776 H 0.02749 0.82812 0.38245 0.0
H777 H 0.98607 0.89346 0.50703 0.0
H778 H 0.00206 0.79118 0.44835 0.0
H779 H 0.01007 0.93403 0.44286 0.0
H780 H 0.9846 0.85627 0.48214 0.0
H781 H 0.01506 0.86735 0.40067 0.0
C782 C 0.01901 0.82823 0.40054 0.0
C783 C 0.01619 0.80647 0.41411 0.0
C784 C 0.98992 0.87329 0.47328 0.0
C785 C 0.00187 0.85088 0.43486 0.0
C786 C 0.9907 0.89451 0.48752 0.0
C787 C 0.9985 0.91664 0.477 0.0
C788 C 0.99764 0.87403 0.44846 0.0
C789 C 0.00404 0.91719 0.4516 0.0
C790 C 0.01191 0.85056 0.4109 0.0
C791 C 0.00498 0.80752 0.43737 0.0
N792 N 0.00401 0.89601 0.43823 0.0
N793 N 0.99843 0.82932 0.44703 0.0
H794 H 0.39427 0.78895 0.62756 0.0
H795 H 0.32957 0.6957 0.7189 0.0
H796 H 0.43362 0.75091 0.68499 0.0
H797 H 0.29891 0.7171 0.64843 0.0
H798 H 0.36815 0.71456 0.7069 0.0
H799 H 0.35878 0.76343 0.63611 0.0
C800 C 0.39537 0.77541 0.64221 0.0
C801 C 0.41692 0.77217 0.65572 0.0
C802 C 0.35315 0.7147 0.69385 0.0
C803 C 0.37634 0.74259 0.66533 0.0
C804 C 0.33118 0.70379 0.70061 0.0
C805 C 0.31098 0.705 0.68469 0.0
C806 C 0.35478 0.72728 0.67121 0.0
C807 C 0.31403 0.7157 0.66124 0.0
C808 C 0.37516 0.76063 0.64685 0.0
C809 C 0.41732 0.75414 0.67427 0.0
N810 N 0.33539 0.72688 0.6554 0.0
N811 N 0.39727 0.74006 0.67861 0.0
H812 H 0.56023 0.16374 0.87825 0.0
H813 H 0.57715 0.09083 0.00215 0.0
H814 H 0.57995 0.19599 0.94884 0.0
H815 H 0.5466 0.06256 0.93385 0.0
H816 H 0.59451 0.12544 0.97893 0.0
H817 H 0.57304 0.12395 0.8938 0.0
C818 C 0.56799 0.16263 0.89673 0.0
C819 C 0.56789 0.18288 0.91274 0.0
C820 C 0.58452 0.11131 0.96895 0.0
C821 C 0.582 0.1375 0.93077 0.0
C822 C 0.57458 0.09164 0.98221 0.0
C823 C 0.55967 0.07448 0.96998 0.0
C824 C 0.57943 0.11361 0.94342 0.0
C825 C 0.55725 0.076 0.9441 0.0
C826 C 0.57521 0.13986 0.90567 0.0
C827 C 0.57871 0.18052 0.93627 0.0
N828 N 0.56664 0.09548 0.93174 0.0
N829 N 0.58465 0.15805 0.94489 0.0
H830 H 0.06227 0.30261 0.10045 0.0
H831 H 0.12358 0.28859 0.23456 0.0
H832 H 0.0235 0.27755 0.16533 0.0
H833 H 0.1614 0.31623 0.17017 0.0
H834 H 0.0868 0.28426 0.20951 0.0
H835 H 0.09888 0.30702 0.12562 0.0
C836 C 0.06142 0.29792 0.11997 0.0
C837 C 0.03968 0.28968 0.13076 0.0
C838 C 0.10313 0.29134 0.20088 0.0
C839 C 0.08168 0.29486 0.15976 0.0
C840 C 0.12416 0.29388 0.21519 0.0
C841 C 0.14568 0.3028 0.20448 0.0
C842 C 0.10357 0.29772 0.17564 0.0
C843 C 0.14526 0.3093 0.17926 0.0
C844 C 0.08238 0.30052 0.13436 0.0
C845 C 0.0398 0.28395 0.15618 0.0
N846 N 0.12457 0.30657 0.1657 0.0
N847 N 0.06046 0.28668 0.16981 0.0
H848 H 0.10636 0.00144 0.19891 0.0
H849 H 0.98657 0.00574 0.11532 0.0
H850 H 0.03709 0.02693 0.22483 0.0
H851 H 0.05562 0.98042 0.08869 0.0
H852 H 0.00342 0.00779 0.15724 0.0
H853 H 0.08707 0.98899 0.15985 0.0
C854 C 0.08712 0.00444 0.19643 0.0
C855 C 0.07343 0.01559 0.21511 0.0
C856 C 0.0148 0.00149 0.14228 0.0
C857 C 0.05121 0.00117 0.17051 0.0
C858 C 0.00514 0.00019 0.11831 0.0
C859 C 0.01982 0.99335 0.09832 0.0
C860 C 0.03935 0.99605 0.14626 0.0
C861 C 0.0437 0.98615 0.10344 0.0
C862 C 0.07609 -0.0028 0.17416 0.0
C863 C 0.04849 0.01867 0.21091 0.0
N864 N 0.05282 0.98805 0.12684 0.0
N865 N 0.03824 0.01166 0.18904 0.0
H866 H 0.32432 0.84647 0.44891 0.0
H867 H 0.26989 0.8548 0.31517 0.0
H868 H 0.28204 0.90777 0.42406 0.0
H869 H 0.32616 0.80401 0.33497 0.0
H870 H 0.27866 0.87803 0.35284 0.0
H871 H 0.33075 0.83466 0.40584 0.0
C872 C 0.31679 0.85771 0.43428 0.0
C873 C 0.30217 0.87775 0.43989 0.0
C874 C 0.28937 0.86204 0.3488 0.0
C875 C 0.30897 0.86411 0.39069 0.0
C876 C 0.28423 0.84863 0.32739 0.0
C877 C 0.29692 0.82709 0.3223 0.0
C878 C 0.30703 0.85361 0.36545 0.0
C879 C 0.31568 0.82029 0.33842 0.0
C880 C 0.32049 0.851 0.40969 0.0
C881 C 0.29318 0.892 0.4204 0.0
N882 N 0.31987 0.83327 0.35957 0.0
N883 N 0.29622 0.88454 0.39656 0.0
H884 H 0.38583 0.996 0.69209 0.0
H885 H 0.51615 0.04346 0.64732 0.0
H886 H 0.45438 0.96498 0.714 0.0
H887 H 0.45078 0.05807 0.60565 0.0
H888 H 0.49174 0.02329 0.67901 0.0
H889 H 0.40783 0.02503 0.66529 0.0
C890 C 0.4054 0.99504 0.69108 0.0
C891 C 0.41821 0.97784 0.70526 0.0
C892 C 0.4827 0.03126 0.6631 0.0
C893 C 0.44338 0.0115 0.67544 0.0
C894 C 0.49662 0.0431 0.64511 0.0
C895 C 0.48562 0.05194 0.62338 0.0
C896 C 0.45761 0.02833 0.65944 0.0
C897 C 0.46013 0.0511 0.62184 0.0
C898 C 0.41792 0.01178 0.676 0.0
C899 C 0.44362 0.97776 0.70343 0.0
N900 N 0.44699 0.03903 0.6394 0.0
N901 N 0.45529 0.99437 0.68896 0.0
H902 H 0.24458 0.11756 0.93501 0.0
H903 H 0.20422 0.22136 0.84398 0.0
H904 H 0.22163 0.18992 0.95599 0.0
H905 H 0.23158 0.15177 0.8198 0.0
H906 H 0.19579 0.20381 0.88467 0.0
H907 H 0.22704 0.12392 0.8936 0.0
C908 C 0.23548 0.13459 0.93103 0.0
C909 C 0.23523 0.15358 0.94856 0.0
C910 C 0.20306 0.1921 0.87035 0.0
C911 C 0.21504 0.16086 0.90166 0.0
C912 C 0.20773 0.20212 0.84712 0.0
C913 C 0.21906 0.18805 0.82896 0.0
C914 C 0.21077 0.1682 0.87561 0.0
C915 C 0.22307 0.1632 0.83361 0.0
C916 C 0.22539 0.13816 0.90748 0.0
C917 C 0.22286 0.17508 0.94275 0.0
N918 N 0.21965 0.15418 0.85686 0.0
N919 N 0.21358 0.17827 0.91968 0.0
H920 H 0.08427 0.05448 0.32836 0.0
H921 H 0.03017 0.03663 0.43976 0.0
H922 H 0.14122 0.00915 0.35741 0.0
H923 H 0.10065 0.02079 0.47041 0.0
H924 H 0.04855 0.04441 0.39988 0.0
H925 H 0.07034 0.06193 0.37022 0.0
C926 C 0.09382 0.046 0.34362 0.0
C927 C 0.11359 0.03073 0.3394 0.0
C928 C 0.06033 0.04012 0.41533 0.0
C929 C 0.09669 0.03786 0.38756 0.0
C930 C 0.04969 0.0354 0.43818 0.0
C931 C 0.06388 0.0279 0.45835 0.0
C932 C 0.08546 0.03726 0.41248 0.0
C933 C 0.08909 0.02659 0.45527 0.0
C934 C 0.08565 0.05003 0.36761 0.0
C935 C 0.12567 0.02078 0.35994 0.0
N936 N 0.09907 0.03076 0.43257 0.0
N937 N 0.11672 0.02413 0.38321 0.0
H938 H 0.26861 0.78787 0.53088 0.0
H939 H 0.20099 0.78972 0.65986 0.0
H940 H 0.25299 0.85436 0.57102 0.0
H941 H 0.21128 0.72455 0.61586 0.0
H942 H 0.21248 0.81461 0.62409 0.0
H943 H 0.24221 0.76522 0.55895 0.0
C944 C 0.25974 0.79771 0.54568 0.0
C945 C 0.26346 0.82298 0.54891 0.0
C946 C 0.21169 0.79488 0.62209 0.0
C947 C 0.23292 0.79714 0.58103 0.0
C948 C 0.2049 0.78064 0.64246 0.0
C949 C 0.20593 0.75501 0.64103 0.0
C950 C 0.21962 0.7833 0.60034 0.0
C951 C 0.21091 0.74427 0.61796 0.0
C952 C 0.24443 0.78479 0.56156 0.0
C953 C 0.251 0.83482 0.56808 0.0
N954 N 0.21812 0.75846 0.59867 0.0
N955 N 0.23649 0.82174 0.5836 0.0
H956 H 0.36721 0.98086 0.84301 0.0
H957 H 0.49158 0.95209 0.91408 0.0
H958 H 0.42257 0.93511 0.81191 0.0
H959 H 0.44674 0.01465 0.92916 0.0
H960 H 0.46328 0.93989 0.88081 0.0
H961 H 0.39235 0.98638 0.88033 0.0
C962 C 0.38435 0.97148 0.84432 0.0
C963 C 0.393 0.95775 0.82434 0.0
C964 C 0.45974 0.95628 0.89148 0.0
C965 C 0.42189 0.96421 0.86656 0.0
C966 C 0.47593 0.96332 0.91033 0.0
C967 C 0.47169 0.98454 0.92431 0.0
C968 C 0.43904 0.97036 0.88689 0.0
C969 C 0.45096 -0.00172 0.91877 0.0
C970 C 0.39881 0.97484 0.86545 0.0
C971 C 0.41541 0.94608 0.82687 0.0
N972 N 0.43541 0.9909 0.9006 0.0
N973 N 0.42922 0.94974 0.84751 0.0
H974 H 0.27139 0.24833 0.04466 0.0
H975 H 0.28118 0.23733 0.19144 0.0
H976 H 0.28239 0.18016 0.08353 0.0
H977 H 0.25938 0.30236 0.15199 0.0
H978 H 0.29254 0.21874 0.15195 0.0
H979 H 0.27825 0.27048 0.08337 0.0
C980 C 0.27558 0.238 0.06127 0.0
C981 C 0.27563 0.21229 0.06099 0.0
C982 C 0.28563 0.23722 0.15202 0.0
C983 C 0.28331 0.2376 0.10544 0.0
C984 C 0.27916 0.24788 0.17455 0.0
C985 C 0.26875 0.27123 0.17496 0.0
C986 C 0.28169 0.25002 0.12979 0.0
C987 C 0.26684 0.28411 0.15252 0.0
C988 C 0.27951 0.25069 0.08338 0.0
C989 C 0.28175 0.19996 0.08297 0.0
N990 N 0.27292 0.27321 0.13082 0.0
N991 N 0.28489 0.21273 0.10445 0.0
H992 H 0.16168 0.16937 0.02042 0.0
H993 H 0.10038 0.03606 0.02614 0.0
H994 H 0.20329 0.10322 0.02726 0.0
H995 H 0.06262 0.10223 0.00667 0.0
H996 H 0.13756 0.06033 0.03228 0.0
H997 H 0.12454 0.14503 0.02231 0.0
C998 C 0.16302 0.14971 0.02262 0.0
C999 C 0.18567 0.13829 0.02333 0.0
C1000 C 0.1211 0.06949 0.02672 0.0
C1001 C 0.14303 0.1102 0.02519 0.0
C1002 C 0.09988 0.05566 0.02315 0.0
C1003 C 0.07835 0.06709 0.01566 0.0
C1004 C 0.12074 0.09492 0.02295 0.0
C1005 C 0.07878 0.09256 0.01221 0.0
C1006 C 0.14176 0.1358 0.0236 0.0
C1007 C 0.18623 0.11278 0.02655 0.0
N1008 N 0.09961 0.10557 0.01586 0.0
N1009 N 0.16518 0.09952 0.02706 0.0
H1010 H 0.72347 0.42653 0.04778 0.0
H1011 H 0.60716 0.46893 0.06166 0.0
H1012 H 0.68864 0.36284 0.01531 0.0
H1013 H 0.58294 0.39527 0.04465 0.0
H1014 H 0.64862 0.45528 0.06164 0.0
H1015 H 0.68455 0.43925 0.06407 0.0
C1016 C 0.70754 0.4153 0.044 0.0
C1017 C 0.70914 0.39395 0.02967 0.0
C1018 C 0.63445 0.44177 0.05858 0.0
C1019 C 0.66422 0.40872 0.04753 0.0
C1020 C 0.61057 0.44969 0.05843 0.0
C1021 C 0.59155 0.43332 0.05262 0.0
C1022 C 0.63941 0.41722 0.05285 0.0
C1023 C 0.59705 0.40859 0.04892 0.0
C1024 C 0.68518 0.42265 0.05317 0.0
C1025 C 0.68813 0.3797 0.02588 0.0
N1026 N 0.62052 0.4014 0.04867 0.0
N1027 N 0.66651 0.38751 0.0345 0.0
H1028 H 0.81628 0.40204 0.26377 0.0
H1029 H 0.79401 0.25822 0.28197 0.0
H1030 H 0.87195 0.35178 0.28676 0.0
H1031 H 0.74014 0.30732 0.25269 0.0
H1032 H 0.82104 0.2932 0.28927 0.0
H1033 H 0.78683 0.36836 0.26422 0.0
C1034 C 0.82236 0.38395 0.26893 0.0
C1035 C 0.84675 0.37975 0.275 0.0
C1036 C 0.80321 0.29635 0.28148 0.0
C1037 C 0.81296 0.34107 0.27569 0.0
C1038 C 0.78768 0.27638 0.2774 0.0
C1039 C 0.76483 0.27976 0.26639 0.0
C1040 C 0.79589 0.31991 0.27447 0.0
C1041 C 0.75765 0.30378 0.26102 0.0
C1042 C 0.80547 0.36472 0.26924 0.0
C1043 C 0.85342 0.3559 0.28172 0.0
N1044 N 0.77322 0.32289 0.26487 0.0
N1045 N 0.83664 0.33746 0.28179 0.0
H1046 H 0.79383 0.58271 0.54963 0.0
H1047 H 0.93673 0.57606 0.52986 0.0
H1048 H 0.83749 0.63927 0.51529 0.0
H1049 H 0.89653 0.52007 0.56902 0.0
H1050 H 0.90079 0.60137 0.52905 0.0
H1051 H 0.83108 0.56107 0.56097 0.0
C1052 C 0.81122 0.59066 0.54467 0.0
C1053 C 0.81257 0.61265 0.53123 0.0
C1054 C 0.89976 0.58369 0.5381 0.0
C1055 C 0.85507 0.58815 0.54414 0.0
C1056 C 0.92034 0.56923 0.53859 0.0
C1057 C 0.9195 0.54585 0.54929 0.0
C1058 C 0.87794 0.57458 0.54799 0.0
C1059 C 0.89788 0.53801 0.56056 0.0
C1060 C 0.83245 0.57834 0.55117 0.0
C1061 C 0.83554 0.62222 0.52539 0.0
N1062 N 0.87776 0.5522 0.55926 0.0
N1063 N 0.8558 0.60985 0.53172 0.0
H1064 H 0.17138 0.08477 0.25836 0.0
H1065 H 0.17536 0.22464 0.30254 0.0
H1066 H 0.11731 0.1194 0.30378 0.0
H1067 H 0.22821 0.19483 0.25245 0.0
H1068 H 0.15736 0.18411 0.30723 0.0
H1069 H 0.19523 0.12302 0.25911 0.0
C1070 C 0.16453 0.10034 0.26851 0.0
C1071 C 0.14214 0.09891 0.2808 0.0
C1072 C 0.17299 0.18626 0.29531 0.0
C1073 C 0.16942 0.1425 0.28192 0.0
C1074 C 0.18332 0.20944 0.29267 0.0
C1075 C 0.2031 0.21314 0.27684 0.0
C1076 C 0.18227 0.16652 0.28178 0.0
C1077 C 0.21291 0.19273 0.2648 0.0
C1078 C 0.17819 0.12212 0.26896 0.0
C1079 C 0.13427 0.11962 0.29377 0.0
N1080 N 0.20215 0.17025 0.26725 0.0
N1081 N 0.14784 0.14048 0.29392 0.0
H1082 H 0.33655 0.93436 0.52656 0.0
H1083 H 0.47996 0.95336 0.51438 0.0
H1084 H 0.38581 0.87757 0.50423 0.0
H1085 H 0.43125 0.01147 0.53428 0.0
H1086 H 0.44551 0.92523 0.51143 0.0
H1087 H 0.37101 0.96255 0.53121 0.0
C1088 C 0.35459 0.92773 0.52284 0.0
C1089 C 0.35824 0.90355 0.51488 0.0
C1090 C 0.44231 0.94414 0.51638 0.0
C1091 C 0.39769 0.9358 0.51995 0.0
C1092 C 0.462 0.96027 0.51799 0.0
C1093 C 0.45851 0.98486 0.52455 0.0
C1094 C 0.41892 0.95259 0.52139 0.0
C1095 C 0.43479 0.9927 0.52907 0.0
C1096 C 0.37425 0.94388 0.52539 0.0
C1097 C 0.38205 0.89604 0.5103 0.0
N1098 N 0.41588 0.97658 0.52746 0.0
N1099 N 0.40083 0.91213 0.51282 0.0
H1100 H 0.80792 0.50393 0.24574 0.0
H1101 H 0.84113 0.64476 0.22079 0.0
H1102 H 0.87927 0.53602 0.25524 0.0
H1103 H 0.76757 0.61872 0.23092 0.0
H1104 H 0.85524 0.60285 0.22463 0.0
H1105 H 0.79284 0.54406 0.23264 0.0
C1106 C 0.8204 0.51939 0.24499 0.0
C1107 C 0.84479 0.51678 0.25187 0.0
C1108 C 0.83599 0.60628 0.2258 0.0
C1109 C 0.82783 0.56239 0.23663 0.0
C1110 C 0.82787 0.63021 0.2235 0.0
C1111 C 0.80313 0.63537 0.22595 0.0
C1112 C 0.8193 0.58728 0.23057 0.0
C1113 C 0.78683 0.61565 0.22916 0.0
C1114 C 0.8118 0.54222 0.23751 0.0
C1115 C 0.86025 0.5373 0.25042 0.0
N1116 N 0.79524 0.59246 0.23165 0.0
N1117 N 0.8515 0.55922 0.24299 0.0
H1118 H 0.70405 0.49567 0.73887 0.0
H1119 H 0.68379 0.35647 0.6982 0.0
H1120 H 0.63595 0.45606 0.74179 0.0
H1121 H 0.75457 0.38764 0.71311 0.0
H1122 H 0.66621 0.39698 0.70213 0.0
H1123 H 0.72255 0.46009 0.71898 0.0
C1124 C 0.69292 0.47961 0.73502 0.0
C1125 C 0.66852 0.4786 0.7423 0.0
C1126 C 0.68564 0.39512 0.70413 0.0
C1127 C 0.68946 0.43816 0.71942 0.0
C1128 C 0.6957 0.37204 0.70174 0.0
C1129 C 0.72058 0.36877 0.70572 0.0
C1130 C 0.70051 0.41507 0.71092 0.0
C1131 C 0.73528 0.38949 0.71001 0.0
C1132 C 0.7035 0.45937 0.7237 0.0
C1133 C 0.6549 0.45746 0.73681 0.0
N1134 N 0.72493 0.41182 0.71303 0.0
N1135 N 0.6656 0.43803 0.72583 0.0
H1136 H 0.03157 0.85961 0.86684 0.0
H1137 H 0.05728 0.934 0.99159 0.0
H1138 H 0.037 0.82802 0.94005 0.0
H1139 H 0.02697 0.96534 0.92493 0.0
H1140 H 0.0658 0.8965 0.96841 0.0
H1141 H 0.04481 0.89926 0.88412 0.0
C1142 C 0.03592 0.86096 0.88644 0.0
C1143 C 0.0326 0.84084 0.90223 0.0
C1144 C 0.05785 0.91186 0.95875 0.0
C1145 C 0.04803 0.88561 0.92188 0.0
C1146 C 0.05309 0.93326 0.97192 0.0
C1147 C 0.04075 0.9524 0.96027 0.0
C1148 C 0.05024 0.9098 0.93388 0.0
C1149 C 0.0359 0.95064 0.93472 0.0
C1150 C 0.04353 0.88348 0.89624 0.0
C1151 C 0.03875 0.84334 0.9274 0.0
N1152 N 0.04026 0.92948 0.92244 0.0
N1153 N 0.04594 0.86541 0.93651 0.0
H1154 H 0.92361 0.21399 0.66731 0.0
H1155 H 0.84303 0.27777 0.76617 0.0
H1156 H 0.96222 0.24915 0.72774 0.0
H1157 H 0.83824 0.29257 0.68755 0.0
H1158 H 0.88272 0.25878 0.75945 0.0
H1159 H 0.88577 0.23028 0.68331 0.0
C1160 C 0.92401 0.22431 0.68452 0.0
C1161 C 0.94608 0.23071 0.69592 0.0
C1162 C 0.87304 0.26666 0.74389 0.0
C1163 C 0.90309 0.24957 0.71395 0.0
C1164 C 0.85062 0.27768 0.74765 0.0
C1165 C 0.83729 0.2867 0.72733 0.0
C1166 C 0.88161 0.26412 0.71963 0.0
C1167 C 0.84785 0.28598 0.70375 0.0
C1168 C 0.9025 0.23385 0.69339 0.0
C1169 C 0.94555 0.24398 0.71831 0.0
N1170 N 0.86914 0.27431 0.70046 0.0
N1171 N 0.92431 0.25351 0.72642 0.0
H1172 H 0.44374 0.22595 0.461 0.0
H1173 H 0.52222 0.10579 0.46158 0.0
H1174 H 0.49355 0.20701 0.40264 0.0
H1175 H 0.46518 0.11895 0.51434 0.0
H1176 H 0.50846 0.14042 0.43714 0.0
H1177 H 0.44735 0.18472 0.47781 0.0
C1178 C 0.4552 0.21301 0.4515 0.0
C1179 C 0.46878 0.22011 0.43066 0.0
C1180 C 0.49875 0.13564 0.4539 0.0
C1181 C 0.47312 0.17293 0.44998 0.0
C1182 C 0.50668 0.11593 0.46797 0.0
C1183 C 0.49508 0.10978 0.49028 0.0
C1184 C 0.47927 0.14959 0.46234 0.0
C1185 C 0.47477 0.12324 0.49738 0.0
C1186 C 0.45721 0.18944 0.46111 0.0
C1187 C 0.48297 0.20245 0.4189 0.0
N1188 N 0.46772 0.1428 0.48363 0.0
N1189 N 0.48509 0.17978 0.42898 0.0
H1190 H 0.57452 0.73299 0.15685 0.0
H1191 H 0.71894 0.7435 0.15722 0.0
H1192 H 0.61623 0.76572 0.09758 0.0
H1193 H 0.67915 0.69982 0.21031 0.0
H1194 H 0.68124 0.7519 0.13536 0.0
H1195 H 0.61232 0.72208 0.17778 0.0
C1196 C 0.59159 0.73814 0.14835 0.0
C1197 C 0.59217 0.7503 0.12538 0.0
C1198 C 0.6807 0.74028 0.15163 0.0
C1199 C 0.63543 0.73756 0.14911 0.0
C1200 C 0.70225 0.73539 0.16409 0.0
C1201 C 0.70214 0.72101 0.18567 0.0
C1202 C 0.65875 0.73097 0.16095 0.0
C1203 C 0.68003 0.71091 0.19367 0.0
C1204 C 0.61315 0.73168 0.16022 0.0
C1205 C 0.61485 0.75631 0.11521 0.0
N1206 N 0.65911 0.71632 0.18145 0.0
N1207 N 0.63553 0.74986 0.12713 0.0
H1208 H 0.06044 0.18805 0.60104 0.0
H1209 H 0.01625 0.0515 0.61963 0.0
H1210 H 0.00554 0.16658 0.65387 0.0
H1211 H 0.0754 0.073 0.57184 0.0
H1212 H 0.01759 0.09199 0.63868 0.0
H1213 H 0.07105 0.14528 0.59584 0.0
C1214 C 0.05063 0.17431 0.61162 0.0
C1215 C 0.03164 0.18082 0.62745 0.0
C1216 C 0.0306 0.08772 0.62436 0.0
C1217 C 0.04377 0.1317 0.62158 0.0
C1218 C 0.02987 0.06458 0.61347 0.0
C1219 C 0.04528 0.05912 0.5936 0.0
C1220 C 0.04667 0.10558 0.6151 0.0
C1221 C 0.06287 0.07657 0.58678 0.0
C1222 C 0.05685 0.14987 0.60879 0.0
C1223 C 0.02004 0.16232 0.64118 0.0
N1224 N 0.06273 0.09922 0.59716 0.0
N1225 N 0.02602 0.1385 0.6376 0.0
H1226 H 0.56416 0.24805 0.38214 0.0
H1227 H 0.62946 0.2616 0.25152 0.0
H1228 H 0.52494 0.26915 0.31616 0.0
H1229 H 0.6522 0.20954 0.30698 0.0
H1230 H 0.59364 0.27056 0.27691 0.0
H1231 H 0.59944 0.23902 0.35643 0.0
C1232 C 0.56295 0.2506 0.36222 0.0
C1233 C 0.54164 0.25921 0.3512 0.0
C1234 C 0.60657 0.25721 0.28342 0.0
C1235 C 0.58194 0.24956 0.32188 0.0
C1236 C 0.62702 0.25226 0.26909 0.0
C1237 C 0.64369 0.23477 0.27716 0.0
C1238 C 0.60321 0.24495 0.30611 0.0
C1239 C 0.63966 0.22304 0.29999 0.0
C1240 C 0.58304 0.24549 0.3476 0.0
C1241 C 0.541 0.26231 0.32533 0.0
N1242 N 0.61991 0.22843 0.31372 0.0
N1243 N 0.56099 0.25773 0.31151 0.0
H1244 H 0.50434 0.83192 0.11854 0.0
H1245 H 0.48147 0.90463 0.99415 0.0
H1246 H 0.51001 0.79882 0.04595 0.0
H1247 H 0.46467 0.9328 0.06688 0.0
H1248 H 0.48624 0.86397 0.01202 0.0
H1249 H 0.48703 0.86815 0.09954 0.0
C1250 C 0.5022 0.83239 0.09853 0.0
C1251 C 0.50875 0.8124 0.08375 0.0
C1252 C 0.48094 0.8789 0.024 0.0
C1253 C 0.48852 0.85368 0.06192 0.0
C1254 C 0.47799 0.90206 0.01377 0.0
C1255 C 0.47331 0.92214 0.02922 0.0
C1256 C 0.47947 0.87603 0.04983 0.0
C1257 C 0.46863 0.91784 0.05438 0.0
C1258 C 0.49198 0.85296 0.08773 0.0
C1259 C 0.50537 0.81393 0.05798 0.0
N1260 N 0.47247 0.89529 0.06407 0.0
N1261 N 0.49553 0.8343 0.04784 0.0
H1262 H 0.91422 0.83678 0.89482 0.0
H1263 H 0.84269 0.78222 0.77793 0.0
H1264 H 0.94884 0.80042 0.83342 0.0
H1265 H 0.81051 0.8325 0.82984 0.0
H1266 H 0.88182 0.78861 0.79852 0.0
H1267 H 0.87622 0.83665 0.87114 0.0
C1268 C 0.91398 0.82916 0.87624 0.0
C1269 C 0.93468 0.81824 0.86629 0.0
C1270 C 0.8662 0.79831 0.80535 0.0
C1271 C 0.89124 0.81764 0.83934 0.0
C1272 C 0.84382 0.7945 0.79372 0.0
C1273 C 0.82327 0.80672 0.80224 0.0
C1274 C 0.86801 0.81425 0.82582 0.0
C1275 C 0.82587 0.82264 0.82265 0.0
C1276 C 0.89225 0.82897 0.86278 0.0
C1277 C 0.93327 0.8087 0.84206 0.0
N1278 N 0.8478 0.82584 0.83383 0.0
N1279 N 0.91187 0.80833 0.82958 0.0
H1280 H 0.87227 0.06512 0.83366 0.0
H1281 H 0.9935 0.07658 0.91517 0.0
H1282 H 0.9438 0.073 0.80255 0.0
H1283 H 0.92956 0.0359 0.93707 0.0
H1284 H 0.97201 0.08968 0.87736 0.0
H1285 H 0.89005 0.06937 0.87546 0.0
C1286 C 0.89158 0.06843 0.83566 0.0
C1287 C 0.90674 0.06828 0.81492 0.0
C1288 C 0.96266 0.07823 0.89074 0.0
C1289 C 0.92698 0.07327 0.86206 0.0
C1290 C 0.97487 0.07075 0.91217 0.0
C1291 C 0.96341 0.05471 0.92879 0.0
C1292 C 0.93878 0.06993 0.88638 0.0
C1293 C 0.9392 0.04781 0.92432 0.0
C1294 C 0.9017 0.07075 0.85938 0.0
C1295 C 0.93164 0.07259 0.81827 0.0
N1296 N 0.92771 0.05534 0.90344 0.0
N1297 N 0.94107 0.07467 0.84147 0.0
H1298 H 0.81512 0.19207 0.54113 0.0
H1299 H 0.76533 0.30334 0.61908 0.0
H1300 H 0.77408 0.24751 0.50278 0.0
H1301 H 0.75597 0.22695 0.63792 0.0
H1302 H 0.78196 0.29089 0.57848 0.0
H1303 H 0.8102 0.21477 0.57971 0.0
C1304 C 0.80575 0.20938 0.54058 0.0
C1305 C 0.79412 0.21736 0.51886 0.0
C1306 C 0.77621 0.27706 0.59168 0.0
C1307 C 0.78862 0.24327 0.56287 0.0
C1308 C 0.76659 0.28405 0.61458 0.0
C1309 C 0.75894 0.26611 0.63162 0.0
C1310 C 0.77899 0.25208 0.58653 0.0
C1311 C 0.76121 0.24138 0.62517 0.0
C1312 C 0.8029 0.22224 0.56264 0.0
C1313 C 0.78276 0.24031 0.51925 0.0
N1314 N 0.77127 0.23511 0.60325 0.0
N1315 N 0.77972 0.25226 0.54116 0.0
H1316 H 0.63976 0.99377 0.34699 0.0
H1317 H 0.55364 0.97557 0.46297 0.0
H1318 H 0.56941 0.95854 0.34254 0.0
H1319 H 0.59604 0.0422 0.4553 0.0
H1320 H 0.56712 0.96261 0.4221 0.0
H1321 H 0.6308 0.0061 0.38999 0.0
C1322 C 0.62252 0.98861 0.3551 0.0
C1323 C 0.60523 0.97521 0.34133 0.0
C1324 C 0.57358 0.98 0.42948 0.0
C1325 C 0.59526 0.98864 0.39008 0.0
C1326 C 0.56602 0.98738 0.45284 0.0
C1327 C 0.57353 0.01016 0.46246 0.0
C1328 C 0.58903 0.99527 0.41572 0.0
C1329 C 0.58964 0.02462 0.44844 0.0
C1330 C 0.61744 0.99567 0.37947 0.0
C1331 C 0.58315 0.96898 0.35252 0.0
N1332 N 0.59688 0.01693 0.42564 0.0
N1333 N 0.57887 0.97558 0.37633 0.0
H1334 H 0.79547 0.77768 0.04018 0.0
H1335 H 0.82791 0.79573 0.18287 0.0
H1336 H 0.78159 0.84256 0.08355 0.0
H1337 H 0.82293 0.72496 0.1477 0.0
H1338 H 0.82572 0.8152 0.14218 0.0
H1339 H 0.81709 0.76026 0.07567 0.0
C1340 C 0.79695 0.78827 0.05715 0.0
C1341 C 0.7863 0.81145 0.05907 0.0
C1342 C 0.82591 0.79539 0.14323 0.0
C1343 C 0.81155 0.79187 0.09936 0.0
C1344 C 0.82762 0.7843 0.1664 0.0
C1345 C 0.82535 0.7588 0.16845 0.0
C1346 C 0.82152 0.7808 0.12218 0.0
C1347 C 0.82472 0.74471 0.14672 0.0
C1348 C 0.80946 0.77838 0.07728 0.0
C1349 C 0.78906 0.82444 0.08139 0.0
N1350 N 0.82207 0.75594 0.12437 0.0
N1351 N 0.80134 0.81443 0.10068 0.0
H1352 H 0.95167 0.97141 0.7298 0.0
H1353 H 0.9399 0.9552 0.5846 0.0
H1354 H 0.89745 0.00576 0.68372 0.0
H1355 H 0.00325 0.93641 0.62721 0.0
H1356 H 0.91693 0.95907 0.62298 0.0
H1357 H 0.96371 0.94655 0.6947 0.0
C1358 C 0.94221 0.97379 0.71231 0.0
C1359 C 0.92387 0.99129 0.70958 0.0
C1360 C 0.93561 0.95324 0.62395 0.0
C1361 C 0.93755 0.96237 0.66933 0.0
C1362 C 0.9486 0.95065 0.60206 0.0
C1363 C 0.97349 0.94586 0.60298 0.0
C1364 C 0.94781 0.9513 0.64674 0.0
C1365 C 0.98408 0.94024 0.62588 0.0
C1366 C 0.94903 0.95934 0.69233 0.0
C1367 C 0.91202 0.99295 0.68656 0.0
N1368 N 0.97132 0.94382 0.64705 0.0
N1369 N 0.91929 0.97887 0.66721 0.0
H1370 H 0.73447 0.11067 0.4266 0.0
H1371 H 0.77944 0.14857 0.29191 0.0
H1372 H 0.80231 0.1462 0.40865 0.0
H1373 H 0.70388 0.13988 0.3109 0.0
H1374 H 0.79053 0.13037 0.33161 0.0
H1375 H 0.72586 0.10595 0.38179 0.0
C1376 C 0.74766 0.117 0.41315 0.0
C1377 C 0.76882 0.12926 0.42087 0.0
C1378 C 0.77151 0.13198 0.32685 0.0
C1379 C 0.7596 0.12348 0.37046 0.0
C1380 C 0.76517 0.14239 0.30424 0.0
C1381 C 0.74075 0.14657 0.29861 0.0
C1382 C 0.7533 0.12612 0.34403 0.0
C1383 C 0.72297 0.13752 0.31487 0.0
C1384 C 0.74284 0.11426 0.38778 0.0
C1385 C 0.78558 0.13707 0.40314 0.0
N1386 N 0.72961 0.12827 0.33726 0.0
N1387 N 0.78055 0.13418 0.37871 0.0
H1388 H 0.59934 0.95359 0.19979 0.0
H1389 H 0.49168 0.00133 0.11334 0.0
H1390 H 0.52507 0.95843 0.22407 0.0
H1391 H 0.56748 0.00848 0.0948 0.0
H1392 H 0.50303 0.98275 0.15286 0.0
H1393 H 0.58695 0.96785 0.15878 0.0
C1394 C 0.58029 0.95686 0.19632 0.0
C1395 C 0.56327 0.95515 0.21557 0.0
C1396 C 0.51719 0.98858 0.14025 0.0
C1397 C 0.54915 0.97219 0.16887 0.0
C1398 C 0.51074 -0.00056 0.1178 0.0
C1399 C 0.52866 0.00651 0.10075 0.0
C1400 C 0.54174 0.98454 0.14562 0.0
C1401 C 0.55306 0.00351 0.10747 0.0
C1402 C 0.57331 0.96544 0.17299 0.0
C1403 C 0.53887 0.95977 0.2099 0.0
N1404 N 0.55888 0.99252 0.12929 0.0
N1405 N 0.53259 0.96843 0.18717 0.0
H1406 H 0.70986 0.89294 0.94666 0.0
H1407 H 0.68408 0.79317 0.84199 0.0
H1408 H 0.72111 0.81519 0.95441 0.0
H1409 H 0.7022 0.86882 0.82733 0.0
H1410 H 0.67991 0.80312 0.88613 0.0
H1411 H 0.69134 0.8855 0.90584 0.0
C1412 C 0.70832 0.87432 0.9398 0.0
C1413 C 0.71756 0.85468 0.95351 0.0
C1414 C 0.68394 0.81767 0.87308 0.0
C1415 C 0.6959 0.84608 0.9075 0.0
C1416 C 0.68606 0.81207 0.84792 0.0
C1417 C 0.69402 0.83017 0.83137 0.0
C1418 C 0.68971 0.84147 0.88131 0.0
C1419 C 0.69648 0.85435 0.83982 0.0
C1420 C 0.69757 0.8701 0.9167 0.0
C1421 C 0.71474 0.83088 0.94409 0.0
N1422 N 0.69482 0.85926 0.8644 0.0
N1423 N 0.70431 0.82725 0.92152 0.0
H1424 H 0.79828 0.91578 0.02252 0.0
H1425 H 0.93463 0.94122 0.97908 0.0
H1426 H 0.83381 0.87588 0.96404 0.0
H1427 H 0.90125 0.98039 0.03935 0.0
H1428 H 0.89748 0.91749 0.97338 0.0
H1429 H 0.83494 0.94077 0.02805 0.0
C1430 C 0.81365 0.91243 0.01061 0.0
C1431 C 0.81292 0.89355 0.99283 0.0
C1432 C 0.89823 0.9312 0.98793 0.0
C1433 C 0.85509 0.92197 -0.00065 0.0
C1434 C 0.91952 0.94475 0.99127 0.0
C1435 C 0.92109 0.96294 0.00971 0.0
C1436 C 0.87817 0.9358 0.00305 0.0
C1437 C 0.90089 0.96653 0.02497 0.0
C1438 C 0.83464 0.92664 0.01392 0.0
C1439 C 0.83347 0.89012 0.97802 0.0
N1440 N 0.88019 0.95315 0.02122 0.0
N1441 N 0.85371 0.90409 0.98172 0.0
H1442 H 0.35141 0.60888 0.97586 0.0
H1443 H 0.40833 0.49092 0.03839 0.0
H1444 H 0.31219 0.56402 0.02845 0.0
H1445 H 0.43791 0.52529 0.9729 0.0
H1446 H 0.37311 0.51736 0.03551 0.0
H1447 H 0.38407 0.57933 0.97609 0.0
C1448 C 0.34975 0.5929 0.98767 0.0
C1449 C 0.32904 0.58893 0.00224 0.0
C1450 C 0.38712 0.51892 0.02157 0.0
C1451 C 0.36639 0.55485 0.00233 0.0
C1452 C 0.40721 0.50381 0.02315 0.0
C1453 C 0.42612 0.50606 0.00592 0.0
C1454 C 0.38609 0.53669 0.00284 0.0
C1455 C 0.4237 0.52293 0.98651 0.0
C1456 C 0.36834 0.57592 0.98759 0.0
C1457 C 0.32788 0.56784 0.01704 0.0
N1458 N 0.40418 0.53788 0.98569 0.0
N1459 N 0.34635 0.55156 0.01674 0.0
H1460 H 0.09546 0.55467 0.73097 0.0
H1461 H 0.21943 0.60769 0.68167 0.0
H1462 H 0.16403 0.5175 0.73543 0.0
H1463 H 0.15191 0.64632 0.67922 0.0
H1464 H 0.19694 0.56934 0.68811 0.0
H1465 H 0.11336 0.58348 0.70141 0.0
C1466 C 0.11424 0.55252 0.72574 0.0
C1467 C 0.12843 0.53406 0.73631 0.0
C1468 C 0.18693 0.58605 0.68525 0.0
C1469 C 0.14896 0.56678 0.70222 0.0
C1470 C 0.19979 0.60785 0.68111 0.0
C1471 C 0.1874 0.63003 0.68031 0.0
C1472 C 0.1617 0.58681 0.68891 0.0
C1473 C 0.16201 0.62945 0.68002 0.0
C1474 C 0.1244 0.56883 0.70865 0.0
C1475 C 0.15251 0.53181 0.7283 0.0
N1476 N 0.14996 0.60826 0.68505 0.0
N1477 N 0.16208 0.54817 0.71203 0.0
H1478 H 0.19748 0.42012 0.56543 0.0
H1479 H 0.06015 0.41082 0.51752 0.0
H1480 H 0.16391 0.35302 0.53923 0.0
H1481 H 0.09443 0.47748 0.5441 0.0
H1482 H 0.09711 0.38856 0.52783 0.0
H1483 H 0.15826 0.44018 0.56261 0.0
C1484 C 0.18175 0.4094 0.55974 0.0
C1485 C 0.18407 0.38495 0.55221 0.0
C1486 C 0.09651 0.40807 0.53137 0.0
C1487 C 0.13925 0.40797 0.54821 0.0
C1488 C 0.0755 0.42084 0.52522 0.0
C1489 C 0.07417 0.44611 0.52979 0.0
C1490 C 0.11633 0.42066 0.54213 0.0
C1491 C 0.09458 0.45804 0.54014 0.0
C1492 C 0.15938 0.42095 0.55783 0.0
C1493 C 0.16302 0.37199 0.54497 0.0
N1494 N 0.11475 0.44523 0.54595 0.0
N1495 N 0.14157 0.38377 0.54275 0.0
H1496 H 0.82436 0.00214 0.78781 0.0
H1497 H 0.80037 0.87596 0.71759 0.0
H1498 H 0.87947 0.94804 0.77628 0.0
H1499 H 0.7445 0.9098 0.76088 0.0
H1500 H 0.82859 0.90879 0.73017 0.0
H1501 H 0.79369 0.9728 0.77252 0.0
C1502 C 0.82983 0.98379 0.78282 0.0
C1503 C 0.85435 0.97729 0.78362 0.0
C1504 C 0.80995 0.90934 0.73637 0.0
C1505 C 0.81983 0.94443 0.76479 0.0
C1506 C 0.79373 0.89101 0.72867 0.0
C1507 C 0.77013 0.89041 0.7381 0.0
C1508 C 0.80229 0.9272 0.75328 0.0
C1509 C 0.76255 0.90988 0.75307 0.0
C1510 C 0.81245 0.96727 0.77375 0.0
C1511 C 0.86068 0.95355 0.77641 0.0
N1512 N 0.77869 0.92743 0.76047 0.0
N1513 N 0.84355 0.93807 0.76687 0.0
H1514 H 0.68768 0.17607 0.49635 0.0
H1515 H 0.62845 0.06981 0.57762 0.0
H1516 H 0.72865 0.1167 0.52791 0.0
H1517 H 0.58889 0.12831 0.54306 0.0
H1518 H 0.66655 0.09155 0.56814 0.0
H1519 H 0.65276 0.16318 0.52065 0.0
C1520 C 0.68937 0.1603 0.5084 0.0
C1521 C 0.71103 0.14716 0.50967 0.0
C1522 C 0.6495 0.09995 0.56326 0.0
C1523 C 0.67093 0.13225 0.53772 0.0
C1524 C 0.62779 0.0877 0.56898 0.0
C1525 C 0.60566 0.09728 0.56089 0.0
C1526 C 0.64882 0.12178 0.54939 0.0
C1527 C 0.60569 0.1203 0.54941 0.0
C1528 C 0.66942 0.15303 0.52244 0.0
C1529 C 0.71222 0.12719 0.52608 0.0
N1530 N 0.62694 0.13158 0.54365 0.0
N1531 N 0.69233 0.12014 0.53922 0.0
H1532 H 0.20177 0.4346 0.7675 0.0
H1533 H 0.22808 0.30332 0.82609 0.0
H1534 H 0.1542 0.3986 0.81978 0.0
H1535 H 0.26766 0.33549 0.7652 0.0
H1536 H 0.20667 0.34211 0.83156 0.0
H1537 H 0.23112 0.40214 0.77338 0.0
C1538 C 0.1975 0.41985 0.78025 0.0
C1539 C 0.17533 0.41905 0.79283 0.0
C1540 C 0.22044 0.34081 0.81737 0.0
C1541 C 0.20894 0.38181 0.79975 0.0
C1542 C 0.23282 0.3188 0.81444 0.0
C1543 C 0.24936 0.31623 0.79496 0.0
C1544 C 0.22485 0.3602 0.80077 0.0
C1545 C 0.25476 0.3367 0.78023 0.0
C1546 C 0.21433 0.40137 0.7837 0.0
C1547 C 0.17095 0.39971 0.80944 0.0
N1548 N 0.24231 0.35773 0.78323 0.0
N1549 N 0.18753 0.38169 0.81225 0.0
H1550 H 0.41128 0.60917 0.2643 0.0
H1551 H 0.29301 0.68086 0.22679 0.0
H1552 H 0.36417 0.58856 0.20337 0.0
H1553 H 0.34762 0.71261 0.27526 0.0
H1554 H 0.32006 0.64731 0.21782 0.0
H1555 H 0.39133 0.64886 0.26632 0.0
C1556 C 0.39742 0.61334 0.25068 0.0
C1557 C 0.38898 0.59534 0.23397 0.0
C1558 C 0.32621 0.66161 0.2304 0.0
C1559 C 0.36563 0.64027 0.23676 0.0
C1560 C 0.31059 0.68066 0.23583 0.0
C1561 C 0.31793 0.6996 0.25196 0.0
C1562 C 0.34935 0.66116 0.24134 0.0
C1563 C 0.34111 0.69834 0.26284 0.0
C1564 C 0.38579 0.6359 0.25209 0.0
C1565 C 0.37094 0.60175 0.21683 0.0
N1566 N 0.35598 0.67938 0.25741 0.0
N1567 N 0.35948 0.62347 0.21904 0.0
H1568 H 0.4485 0.72901 0.61246 0.0
H1569 H 0.46098 0.62684 0.50791 0.0
H1570 H 0.47683 0.74262 0.53902 0.0
H1571 H 0.44815 0.61043 0.58519 0.0
H1572 H 0.45708 0.67027 0.51694 0.0
H1573 H 0.43917 0.68693 0.60043 0.0
C1574 C 0.45264 0.72325 0.59371 0.0
C1575 C 0.46399 0.73931 0.57685 0.0
C1576 C 0.45484 0.65719 0.53189 0.0
C1577 C 0.45312 0.69106 0.56303 0.0
C1578 C 0.45704 0.63235 0.52678 0.0
C1579 C 0.45541 0.61501 0.54598 0.0
C1580 C 0.45106 0.66483 0.55638 0.0
C1581 C 0.44977 0.6232 0.56991 0.0
C1582 C 0.44723 0.69918 0.5869 0.0
C1583 C 0.4684 0.73084 0.55273 0.0
N1584 N 0.44816 0.64763 0.57453 0.0
N1585 N 0.46318 0.7072 0.54662 0.0
H1586 H 0.55918 0.20027 0.80372 0.0
H1587 H 0.64281 0.28973 0.7239 0.0
H1588 H 0.57365 0.27652 0.8196 0.0
H1589 H 0.66314 0.21469 0.73618 0.0
H1590 H 0.60477 0.2819 0.74556 0.0
H1591 H 0.58652 0.20315 0.76765 0.0
C1592 C 0.56788 0.21764 0.79939 0.0
C1593 C 0.56456 0.23816 0.81468 0.0
C1594 C 0.61724 0.26695 0.74289 0.0
C1595 C 0.5947 0.24169 0.77347 0.0
C1596 C 0.63882 0.27134 0.73041 0.0
C1597 C 0.65619 0.25291 0.72875 0.0
C1598 C 0.61314 0.24406 0.75391 0.0
C1599 C 0.65017 0.22937 0.73728 0.0
C1600 C 0.58333 0.21923 0.77892 0.0
C1601 C 0.57608 0.26024 0.80844 0.0
N1602 N 0.62924 0.22569 0.75014 0.0
N1603 N 0.5906 0.26144 0.78826 0.0
H1604 H 0.98003 0.36015 0.13655 0.0
H1605 H 0.03066 0.44005 0.02403 0.0
H1606 H 0.98422 0.33465 0.06082 0.0
H1607 H 0.02745 0.46659 0.09946 0.0
H1608 H 0.02006 0.39911 0.03867 0.0
H1609 H 0.00194 0.39755 0.12457 0.0
C1610 C 0.98549 0.36246 0.1174 0.0
C1611 C 0.98006 0.34443 0.09958 0.0
C1612 C 0.02207 0.41377 0.05212 0.0
C1613 C 0.00537 0.38691 0.08583 0.0
C1614 C 0.0283 0.43714 0.04377 0.0
C1615 C 0.02953 0.45684 0.06049 0.0
C1616 C 0.01674 0.41013 0.07732 0.0
C1617 C 0.02653 0.45195 0.08589 0.0
C1618 C 0.99816 0.3837 0.11061 0.0
C1619 C 0.98784 0.34818 0.07512 0.0
N1620 N 0.01977 0.42915 0.0935 0.0
N1621 N -2e-05 0.36904 0.06895 0.0
H1622 H 0.97573 0.72843 0.34472 0.0
H1623 H 0.83336 0.75173 0.33022 0.0
H1624 H 0.93085 0.75516 0.40415 0.0
H1625 H 0.8778 0.72091 0.27255 0.0
H1626 H 0.86901 0.75423 0.35726 0.0
H1627 H 0.94009 0.72633 0.31782 0.0
C1628 C 0.95839 0.73381 0.35217 0.0
C1629 C 0.95635 0.74198 0.37679 0.0
C1630 C 0.87095 0.74696 0.33867 0.0
C1631 C 0.91538 0.7397 0.34595 0.0
C1632 C 0.8506 0.74558 0.32318 0.0
C1633 C 0.85254 0.73608 0.29904 0.0
C1634 C 0.89342 0.73882 0.32997 0.0
C1635 C 0.87538 0.72834 0.291 0.0
C1636 C 0.93802 0.73262 0.33676 0.0
C1637 C 0.93334 0.7487 0.38533 0.0
N1638 N 0.89489 0.72987 0.30643 0.0
N1639 N 0.91378 0.74745 0.36992 0.0
H1640 H 0.49495 0.31452 0.86834 0.0
H1641 H 0.48335 0.36667 0.00588 0.0
H1642 H 0.5009 0.27242 0.93581 0.0
H1643 H 0.48252 0.41283 0.94084 0.0
H1644 H 0.47983 0.3308 0.97916 0.0
H1645 H 0.48112 0.34958 0.89317 0.0
C1646 C 0.49289 0.3125 0.88822 0.0
C1647 C 0.49952 0.29074 0.9001 0.0
C1648 C 0.48014 0.34877 0.97067 0.0
C1649 C 0.48373 0.33026 0.92838 0.0
C1650 C 0.48217 0.36925 0.98597 0.0
C1651 C 0.48376 0.39269 0.97554 0.0
C1652 C 0.4802 0.3517 0.94472 0.0
C1653 C 0.48165 0.39502 0.94962 0.0
C1654 C 0.48506 0.33244 0.90236 0.0
C1655 C 0.49644 0.28893 0.92586 0.0
N1656 N 0.48047 0.37472 0.93502 0.0
N1657 N 0.48899 0.30845 0.93909 0.0
H1658 H 0.9233 0.24083 0.179 0.0
H1659 H 0.7856 0.20231 0.14962 0.0
H1660 H 0.88258 0.26642 0.11566 0.0
H1661 H 0.82138 0.18802 0.21948 0.0
H1662 H 0.82385 0.21854 0.13328 0.0
H1663 H 0.88821 0.21594 0.19144 0.0
C1664 C 0.90692 0.24139 0.16785 0.0
C1665 C 0.90577 0.25594 0.14643 0.0
C1666 C 0.82342 0.21143 0.15205 0.0
C1667 C 0.8658 0.22711 0.1602 0.0
C1668 C 0.80167 0.20183 0.16125 0.0
C1669 C 0.80026 0.1941 0.18604 0.0
C1670 C 0.84382 0.2132 0.16774 0.0
C1671 C 0.82162 0.19409 0.20035 0.0
C1672 C 0.88698 0.22703 0.17483 0.0
C1673 C 0.8842 0.25569 0.13247 0.0
N1674 N 0.84245 0.20384 0.19111 0.0
N1675 N 0.86508 0.24151 0.13959 0.0
H1676 H 0.04126 0.66497 0.40696 0.0
H1677 H 0.04886 0.58247 0.52916 0.0
H1678 H 0.04294 0.69384 0.48164 0.0
H1679 H 0.02183 0.55706 0.45821 0.0
H1680 H 0.06016 0.62168 0.50983 0.0
H1681 H 0.04763 0.62386 0.42381 0.0
C1682 C 0.04342 0.66274 0.42683 0.0
C1683 C 0.04098 0.68271 0.44298 0.0
C1684 C 0.05218 0.60729 0.49846 0.0
C1685 C 0.04836 0.63596 0.46226 0.0
C1686 C 0.04583 0.58495 0.50943 0.0
C1687 C 0.03397 0.5668 0.49532 0.0
C1688 C 0.04684 0.61122 0.47323 0.0
C1689 C 0.0305 0.57084 0.46983 0.0
C1690 C 0.047 0.63931 0.43642 0.0
C1691 C 0.04413 0.67882 0.46857 0.0
N1692 N 0.03668 0.59272 0.45963 0.0
N1693 N 0.04739 0.65584 0.47745 0.0
H1694 H 0.53831 0.77991 0.66978 0.0
H1695 H 0.67721 0.82424 0.67151 0.0
H1696 H 0.57321 0.81607 0.60796 0.0
H1697 H 0.64353 0.78197 0.73 0.0
H1698 H 0.63923 0.82176 0.64786 0.0
H1699 H 0.57697 0.78039 0.69205 0.0
C1700 C 0.55409 0.78781 0.66082 0.0
C1701 C 0.55244 0.798 0.63698 0.0
C1702 C 0.64022 0.81301 0.66587 0.0
C1703 C 0.59673 0.7988 0.66244 0.0
C1704 C 0.66187 0.8145 0.6794 0.0
C1705 C 0.66358 0.80336 0.70281 0.0
C1706 C 0.62017 0.8004 0.67589 0.0
C1707 C 0.64311 0.79087 0.71206 0.0
C1708 C 0.57617 0.78811 0.67355 0.0
C1709 C 0.57357 0.80798 0.6263 0.0
N1710 N 0.62229 0.78978 0.69861 0.0
N1711 N 0.59479 0.80824 0.63916 0.0
H1712 H 0.55389 0.56224 0.73899 0.0
H1713 H 0.55167 0.50052 0.60428 0.0
H1714 H 0.61492 0.52522 0.70672 0.0
H1715 H 0.49311 0.54399 0.63278 0.0
H1716 H 0.57378 0.50696 0.64303 0.0
H1717 H 0.53069 0.55446 0.70105 0.0
C1718 C 0.56252 0.55264 0.72387 0.0
C1719 C 0.58646 0.54438 0.7261 0.0
C1720 C 0.55605 0.515 0.64088 0.0
C1721 C 0.55977 0.53514 0.68267 0.0
C1722 C 0.5433 0.51122 0.61877 0.0
C1723 C 0.5205 0.52187 0.61513 0.0
C1724 C 0.546 0.52956 0.65958 0.0
C1725 C 0.51062 0.53545 0.63471 0.0
C1726 C 0.54919 0.54813 0.70223 0.0
C1727 C 0.5966 0.53205 0.70584 0.0
N1728 N 0.5235 0.53903 0.65603 0.0
N1729 N 0.58316 0.52771 0.68504 0.0
H1730 H 0.78596 0.32344 0.94131 0.0
H1731 H 0.71873 0.33513 0.81 0.0
H1732 H 0.74322 0.38598 0.92067 0.0
H1733 H 0.76693 0.27634 0.82951 0.0
H1734 H 0.72561 0.35317 0.85107 0.0
H1735 H 0.77846 0.30571 0.90043 0.0
C1736 C 0.77518 0.33356 0.92804 0.0
C1737 C 0.76514 0.35617 0.93435 0.0
C1738 C 0.73458 0.33627 0.84636 0.0
C1739 C 0.75618 0.33583 0.88761 0.0
C1740 C 0.73052 0.32585 0.823 0.0
C1741 C 0.74238 0.30425 0.81625 0.0
C1742 C 0.75054 0.32494 0.86306 0.0
C1743 C 0.75751 0.29308 0.83382 0.0
C1744 C 0.77081 0.32338 0.90473 0.0
C1745 C 0.75134 0.36852 0.91647 0.0
N1746 N 0.76122 0.30361 0.85635 0.0
N1747 N 0.74711 0.35809 0.8939 0.0
H1748 H 0.88371 0.48158 0.19898 0.0
H1749 H 0.00485 0.53645 0.13879 0.0
H1750 H 0.95619 0.46167 0.22125 0.0
H1751 H 0.93386 0.54556 0.10608 0.0
H1752 H 0.98619 0.51554 0.1739 0.0
H1753 H 0.90099 0.50964 0.16826 0.0
C1754 C 0.90324 0.48287 0.19726 0.0
C1755 C 0.9185 0.46901 0.21263 0.0
C1756 C 0.97466 0.5224 0.1592 0.0
C1757 C 0.93834 0.50159 0.1779 0.0
C1758 C 0.98528 0.53459 0.13922 0.0
C1759 C 0.97097 0.54237 0.11914 0.0
C1760 C 0.94955 0.51796 0.15916 0.0
C1761 C 0.94568 0.53964 0.12097 0.0
C1762 C 0.91307 0.49907 0.17986 0.0
C1763 C 0.94367 0.47176 0.20972 0.0
N1764 N 0.93579 0.5273 0.14043 0.0
N1765 N 0.95277 0.48775 0.19277 0.0
H1766 H 0.74971 0.61669 0.42839 0.0
H1767 H 0.72206 0.72383 0.3332 0.0
H1768 H 0.73324 0.69131 0.44799 0.0
H1769 H 0.7429 0.65154 0.30998 0.0
H1770 H 0.71554 0.70845 0.37509 0.0
H1771 H 0.73843 0.62568 0.38516 0.0
C1772 C 0.74346 0.63484 0.42366 0.0
C1773 C 0.74287 0.65343 0.44164 0.0
C1774 C 0.72112 0.69574 0.36083 0.0
C1775 C 0.72973 0.66371 0.39263 0.0
C1776 C 0.7247 0.70453 0.3369 0.0
C1777 C 0.73333 0.68896 0.31839 0.0
C1778 C 0.72694 0.67137 0.36643 0.0
C1779 C 0.73631 0.66409 0.32392 0.0
C1780 C 0.73696 0.63993 0.39906 0.0
C1781 C 0.7344 0.67653 0.43467 0.0
N1782 N 0.73371 0.65612 0.3477 0.0
N1783 N 0.72838 0.68104 0.41073 0.0
H1784 H 0.63375 0.47943 0.84538 0.0
H1785 H 0.5736 0.52905 0.96846 0.0
H1786 H 0.61716 0.55604 0.85231 0.0
H1787 H 0.54478 0.46552 0.93023 0.0
H1788 H 0.60053 0.53704 0.93298 0.0
H1789 H 0.61273 0.4716 0.88489 0.0
C1790 C 0.62639 0.49466 0.85569 0.0
C1791 C 0.62721 0.51839 0.84593 0.0
C1792 C 0.58831 0.52136 0.93253 0.0
C1793 C 0.60343 0.50969 0.89053 0.0
C1794 C 0.57297 0.51684 0.95258 0.0
C1795 C 0.55681 0.49681 0.95197 0.0
C1796 C 0.58801 0.5052 0.91229 0.0
C1797 C 0.55674 0.48138 0.93115 0.0
C1798 C 0.61424 0.49017 0.87794 0.0
C1799 C 0.61695 0.53753 0.85949 0.0
N1800 N 0.57231 0.48576 0.91216 0.0
N1801 N 0.60546 0.53279 0.88123 0.0
H1802 H 0.75927 0.35567 0.0749 0.0
H1803 H 0.71148 0.22598 0.12409 0.0
H1804 H 0.77576 0.28617 0.04085 0.0
H1805 H 0.71001 0.29173 0.16874 0.0
H1806 H 0.72809 0.24979 0.08983 0.0
H1807 H 0.73651 0.33393 0.10706 0.0
C1808 C 0.7584 0.33584 0.07433 0.0
C1809 C 0.76957 0.32273 0.05515 0.0
C1810 C 0.72386 0.25907 0.10703 0.0
C1811 C 0.74301 0.29789 0.09152 0.0
C1812 C 0.71412 0.24553 0.12654 0.0
C1813 C 0.70977 0.25677 0.14953 0.0
C1814 C 0.72925 0.28402 0.11047 0.0
C1815 C 0.71329 0.28224 0.15145 0.0
C1816 C 0.74522 0.32349 0.09259 0.0
C1817 C 0.76762 0.29707 0.05531 0.0
N1818 N 0.7232 0.29498 0.13227 0.0
N1819 N 0.75447 0.28552 0.07312 0.0
H1820 H 0.92726 0.43102 0.32269 0.0
H1821 H 0.92643 0.49385 0.45459 0.0
H1822 H 0.8637 0.46424 0.35388 0.0
H1823 H 0.97953 0.43956 0.43565 0.0
H1824 H 0.90373 0.48339 0.41718 0.0
H1825 H 0.94693 0.43312 0.36349 0.0
C1826 C 0.91732 0.43842 0.33822 0.0
C1827 C 0.89395 0.44778 0.33491 0.0
C1828 C 0.92025 0.47361 0.42124 0.0
C1829 C 0.91642 0.45053 0.38136 0.0
C1830 C 0.93337 0.47973 0.44249 0.0
C1831 C 0.95507 0.46773 0.4481 0.0
C1832 C 0.92901 0.45561 0.40514 0.0
C1833 C 0.96295 0.44933 0.43193 0.0
C1834 C 0.92855 0.43958 0.36148 0.0
C1835 C 0.88179 0.45698 0.35562 0.0
N1836 N 0.95004 0.444 0.41095 0.0
N1837 N 0.89333 0.45848 0.37791 0.0
H1838 H 0.77302 0.67126 0.58278 0.0
H1839 H 0.77351 0.80009 0.65234 0.0
H1840 H 0.7624 0.74104 0.54677 0.0
H1841 H 0.78369 0.73124 0.69013 0.0
H1842 H 0.77669 0.77899 0.61266 0.0
H1843 H 0.78337 0.69294 0.62129 0.0
C1844 C 0.77302 0.69111 0.58288 0.0
C1845 C 0.76636 0.70431 0.56159 0.0
C1846 C 0.77855 0.76849 0.6296 0.0
C1847 C 0.7783 0.72918 0.60552 0.0
C1848 C 0.77679 0.78056 0.65229 0.0
C1849 C 0.7779 0.76733 0.67457 0.0
C1850 C 0.78111 0.74292 0.62913 0.0
C1851 C 0.78253 0.74212 0.67338 0.0
C1852 C 0.77899 0.70346 0.60487 0.0
C1853 C 0.76698 0.73001 0.56279 0.0
N1854 N 0.78352 0.73063 0.651 0.0
N1855 N 0.7726 0.74155 0.5844 0.0
H1856 H 0.65774 0.66381 0.48484 0.0
H1857 H 0.58891 0.54076 0.52576 0.0
H1858 H 0.69281 0.60414 0.52284 0.0
H1859 H 0.55424 0.60001 0.48674 0.0
H1860 H 0.62732 0.56316 0.52377 0.0
H1861 H 0.61985 0.6405 0.48504 0.0
C1862 C 0.65751 0.64584 0.49335 0.0
C1863 C 0.6786 0.63597 0.5039 0.0
C1864 C 0.61135 0.57122 0.51553 0.0
C1865 C 0.63508 0.60905 0.50399 0.0
C1866 C 0.58937 0.55841 0.51658 0.0
C1867 C 0.56822 0.56855 0.50648 0.0
C1868 C 0.61226 0.59441 0.50435 0.0
C1869 C 0.57004 0.59146 0.49479 0.0
C1870 C 0.63581 0.6325 0.49336 0.0
C1871 C 0.67705 0.61255 0.51456 0.0
N1872 N 0.59165 0.60368 0.49417 0.0
N1873 N 0.65567 0.59989 0.51431 0.0
H1874 H 0.20187 0.87495 0.50307 0.0
H1875 H 0.09028 0.90895 0.54742 0.0
H1876 H 0.23174 0.93581 0.5449 0.0
H1877 H 0.12412 0.98031 0.55554 0.0
H1878 H 0.13039 0.89101 0.54329 0.0
H1879 H 0.1615 0.88612 0.51643 0.0
C1880 C 0.19993 0.8906 0.51525 0.0
C1881 C 0.22017 0.90459 0.52276 0.0
C1882 C 0.12904 0.9106 0.54584 0.0
C1883 C 0.17392 0.91708 0.53886 0.0
C1884 C 0.10614 0.92082 0.54858 0.0
C1885 C 0.10382 0.94625 0.55121 0.0
C1886 C 0.14966 0.926 0.54558 0.0
C1887 C 0.12502 0.96067 0.55297 0.0
C1888 C 0.17683 0.89674 0.52324 0.0
C1889 C 0.21658 0.92461 0.53859 0.0
N1890 N 0.14704 0.95037 0.54985 0.0
N1891 N 0.19383 0.93043 0.54591 0.0
H1892 H 0.31346 0.90967 0.74704 0.0
H1893 H 0.28708 0.76904 0.78027 0.0
H1894 H 0.36482 0.86169 0.78242 0.0
H1895 H 0.2395 0.81176 0.73395 0.0
H1896 H 0.31245 0.80526 0.78696 0.0
H1897 H 0.28351 0.87615 0.74692 0.0
C1898 C 0.31845 0.89215 0.75484 0.0
C1899 C 0.34183 0.88848 0.76454 0.0
C1900 C 0.29635 0.80682 0.77551 0.0
C1901 C 0.30754 0.85016 0.76467 0.0
C1902 C 0.28175 0.78614 0.77175 0.0
C1903 C 0.26125 0.78724 0.75624 0.0
C1904 C 0.29055 0.82887 0.76361 0.0
C1905 C 0.25518 0.81002 0.74596 0.0
C1906 C 0.30132 0.87304 0.75477 0.0
C1907 C 0.34717 0.86538 0.77449 0.0
N1908 N 0.26994 0.82989 0.74959 0.0
N1909 N 0.3302 0.84715 0.77424 0.0
H1910 H 0.34261 0.14845 -0.00241 0.0
H1911 H 0.41814 0.03569 0.05049 0.0
H1912 H 0.31208 0.09377 0.04654 0.0
H1913 H 0.44473 0.08632 0.99507 0.0
H1914 H 0.38097 0.05939 0.05341 0.0
H1915 H 0.38172 0.12854 0.00064 0.0
C1916 C 0.34415 0.1323 0.00913 0.0
C1917 C 0.32398 0.12263 0.02169 0.0
C1918 C 0.39502 0.06538 0.04074 0.0
C1919 C 0.36886 0.09963 0.02518 0.0
C1920 C 0.4163 0.05191 0.0391 0.0
C1921 C 0.43455 0.05888 0.02233 0.0
C1922 C 0.39197 0.08602 0.02557 0.0
C1923 C 0.43112 0.08011 0.00812 0.0
C1924 C 0.36654 0.12092 0.01084 0.0
C1925 C 0.32715 0.10175 0.03647 0.0
N1926 N 0.4102 0.09282 0.00997 0.0
N1927 N 0.34917 0.09083 0.03769 0.0
H1928 H 0.69241 0.58797 0.77723 0.0
H1929 H 0.70015 0.7287 0.81351 0.0
H1930 H 0.64494 0.62341 0.82931 0.0
H1931 H 0.74978 0.69496 0.76262 0.0
H1932 H 0.68488 0.68837 0.82519 0.0
H1933 H 0.71815 0.62471 0.7769 0.0
C1934 C 0.68751 0.60333 0.78883 0.0
C1935 C 0.66614 0.60277 0.80292 0.0
C1936 C 0.69932 0.68963 0.81169 0.0
C1937 C 0.69558 0.64483 0.8026 0.0
C1938 C 0.70803 0.71267 0.80503 0.0
C1939 C 0.72591 0.71506 0.78678 0.0
C1940 C 0.70815 0.66879 0.79963 0.0
C1941 C 0.73584 0.69379 0.77666 0.0
C1942 C 0.70227 0.6243 0.78863 0.0
C1943 C 0.66095 0.62313 0.81779 0.0
N1944 N 0.72645 0.67145 0.78286 0.0
N1945 N 0.6754 0.64339 0.817 0.0
H1946 H 0.86612 0.38744 0.96696 0.0
H1947 H 0.90582 0.51706 0.02351 0.0
H1948 H 0.81756 0.43401 0.00768 0.0
H1949 H 0.95156 0.47306 0.97684 0.0
H1950 H 0.87213 0.48866 0.01516 0.0
H1951 H 0.89668 0.42008 0.968 0.0
C1952 C 0.86182 0.40454 0.97606 0.0
C1953 C 0.83929 0.40784 0.98748 0.0
C1954 C 0.88948 0.48539 0.00654 0.0
C1955 C 0.87429 0.44536 0.98876 0.0
C1956 C 0.90872 0.50164 0.01126 0.0
C1957 C 0.93166 0.49729 0.00113 0.0
C1958 C 0.89327 0.4646 0.99171 0.0
C1959 C 0.93429 0.47704 0.98529 0.0
C1960 C 0.87928 0.42323 0.97658 0.0
C1961 C 0.83472 0.43054 -0.00124 0.0
N1962 N 0.91542 0.46133 0.98131 0.0
N1963 N 0.85214 0.44834 -0.0007 0.0
H1964 H 0.30326 0.01143 0.7402 0.0
H1965 H 0.32933 0.15453 0.72168 0.0
H1966 H 0.37379 0.0459 0.74717 0.0
H1967 H 0.25808 0.12545 0.73825 0.0
H1968 H 0.34491 0.11304 0.72099 0.0
H1969 H 0.28583 0.05152 0.73072 0.0
C1970 C 0.31509 0.02741 0.73958 0.0
C1971 C 0.33997 0.02544 0.74473 0.0
C1972 C 0.32581 0.1157 0.72452 0.0
C1973 C 0.32025 0.07108 0.73361 0.0
C1974 C 0.31683 0.1394 0.72481 0.0
C1975 C 0.29241 0.14356 0.73048 0.0
C1976 C 0.31031 0.09589 0.72991 0.0
C1977 C 0.27707 0.12313 0.734 0.0
C1978 C 0.30513 0.05022 0.73419 0.0
C1979 C 0.35448 0.04665 0.74361 0.0
N1980 N 0.28635 0.10013 0.73397 0.0
N1981 N 0.3444 0.06858 0.73819 0.0
H1982 H 0.18992 0.98379 0.2335 0.0
H1983 H 0.1885 0.83771 0.23597 0.0
H1984 H 0.13093 0.93904 0.26108 0.0
H1985 H 0.24993 0.88021 0.21062 0.0
H1986 H 0.1648 0.87493 0.23828 0.0
H1987 H 0.21013 0.94663 0.21923 0.0
C1988 C 0.18116 0.96617 0.23643 0.0
C1989 C 0.15886 0.96445 0.24878 0.0
C1990 C 0.18335 0.87621 0.23188 0.0
C1991 C 0.18175 0.922 0.23238 0.0
C1992 C 0.19685 0.85492 0.23045 0.0
C1993 C 0.22126 0.85599 0.22336 0.0
C1994 C 0.19441 0.89888 0.22658 0.0
C1995 C 0.23115 0.87867 0.21619 0.0
C1996 C 0.19267 0.945 0.22822 0.0
C1997 C 0.14824 0.94122 0.25191 0.0
N1998 N 0.21779 0.89938 0.21842 0.0
N1999 N 0.15984 0.92093 0.24391 0.0
H2000 H 0.51162 0.36495 0.38512 0.0
H2001 H 0.52931 0.43089 0.5169 0.0
H2002 H 0.50501 0.32819 0.45575 0.0
H2003 H 0.51178 0.46885 0.4491 0.0
H2004 H 0.53283 0.39267 0.49306 0.0
H2005 H 0.52284 0.40282 0.40712 0.0
C2006 C 0.5126 0.36485 0.40522 0.0
C2007 C 0.50697 0.34361 0.41868 0.0
C2008 C 0.52876 0.40952 0.48338 0.0
C2009 C 0.52018 0.38648 0.44381 0.0
C2010 C 0.52701 0.43128 0.49692 0.0
C2011 C 0.51999 0.45278 0.48487 0.0
C2012 C 0.52362 0.40956 0.45775 0.0
C2013 C 0.51696 0.45245 0.459 0.0
C2014 C 0.5191 0.38637 0.41773 0.0
C2015 C 0.50881 0.34432 0.44468 0.0
N2016 N 0.51853 0.4311 0.44631 0.0
N2017 N 0.51516 0.36546 0.45642 0.0
H2018 H 0.47561 0.75527 0.18545 0.0
H2019 H 0.34046 0.80474 0.17038 0.0
H2020 H 0.43287 0.75019 0.11822 0.0
H2021 H 0.37482 0.79513 0.2419 0.0
H2022 H 0.37755 0.7912 0.15042 0.0
H2023 H 0.44066 0.77299 0.20666 0.0
C2024 C 0.45872 0.75729 0.17535 0.0
C2025 C 0.45711 0.75131 0.15006 0.0
C2026 C 0.37708 0.79236 0.17049 0.0
C2027 C 0.41762 0.77233 0.17377 0.0
C2028 C 0.35603 0.80052 0.18188 0.0
C2029 C 0.35442 0.80069 0.20784 0.0
C2030 C 0.3966 0.78444 0.18518 0.0
C2031 C 0.3752 0.79492 0.22179 0.0
C2032 C 0.43894 0.76774 0.18733 0.0
C2033 C 0.43493 0.75465 0.13773 0.0
N2034 N 0.39535 0.78666 0.2103 0.0
N2035 N 0.41615 0.76515 0.14962 0.0
H2036 H 0.97868 0.70935 0.89837 0.0
H2037 H 0.95319 0.63754 0.02473 0.0
H2038 H 0.95789 0.74466 0.96675 0.0
H2039 H 0.98518 0.60639 0.9592 0.0
H2040 H 0.9443 0.6749 0.00088 0.0
H2041 H 0.97051 0.66967 0.91751 0.0
C2042 C 0.97218 0.70882 0.9173 0.0
C2043 C 0.96959 0.73039 0.93114 0.0
C2044 C 0.95282 0.65965 0.99165 0.0
C2045 C 0.96033 0.68498 0.95323 0.0
C2046 C 0.95775 0.63838 0.0052 0.0
C2047 C 0.97028 0.61925 0.99391 0.0
C2048 C 0.96038 0.66142 0.96676 0.0
C2049 C 0.97587 0.62105 0.96862 0.0
C2050 C 0.96748 0.68613 0.92824 0.0
C2051 C 0.96066 0.7285 0.9555 0.0
N2052 N 0.97112 0.64185 0.95597 0.0
N2053 N 0.95671 0.70618 0.96591 0.0
H2054 H 0.09259 0.29219 0.63993 0.0
H2055 H 0.1707 0.21033 0.73077 0.0
H2056 H 0.06121 0.2488 0.69892 0.0
H2057 H 0.20131 0.27318 0.6931 0.0
H2058 H 0.13046 0.22217 0.71617 0.0
H2059 H 0.13278 0.28523 0.65773 0.0
C2060 C 0.09406 0.28167 0.6569 0.0
C2061 C 0.07348 0.27078 0.66772 0.0
C2062 C 0.14602 0.23335 0.71112 0.0
C2063 C 0.11937 0.26222 0.68768 0.0
C2064 C 0.169 0.22641 0.71915 0.0
C2065 C 0.18935 0.24077 0.7131 0.0
C2066 C 0.14345 0.25459 0.69667 0.0
C2067 C 0.18606 0.26162 0.69823 0.0
C2068 C 0.11702 0.27759 0.66695 0.0
C2069 C 0.07652 0.25742 0.68978 0.0
N2070 N 0.16354 0.26787 0.69045 0.0
N2071 N 0.09908 0.25312 0.69876 0.0
H2072 H 0.49197 0.67566 0.10698 0.0
H2073 H 0.55631 0.55799 0.05155 0.0
H2074 H 0.54736 0.6782 0.05058 0.0
H2075 H 0.48498 0.55411 0.08424 0.0
H2076 H 0.5571 0.60202 0.05862 0.0
H2077 H 0.49214 0.63081 0.10478 0.0
C2078 C 0.50405 0.66681 0.09406 0.0
C2079 C 0.51964 0.68067 0.07888 0.0
C2080 C 0.54135 0.59148 0.06437 0.0
C2081 C 0.52022 0.62968 0.07671 0.0
C2082 C 0.54093 0.56631 0.06053 0.0
C2083 C 0.52039 0.55238 0.067 0.0
C2084 C 0.52117 0.6028 0.07491 0.0
C2085 C 0.50109 0.5642 0.07873 0.0
C2086 C 0.50415 0.64129 0.09288 0.0
C2087 C 0.53492 0.66829 0.0625 0.0
N2088 N 0.50187 0.58885 0.08218 0.0
N2089 N 0.53493 0.64349 0.06197 0.0
H2090 H 0.02594 0.75727 0.80826 0.0
H2091 H 0.15318 0.69283 0.79208 0.0
H2092 H 0.06802 0.73211 0.87081 0.0
H2093 H 0.13043 0.75192 0.74444 0.0
H2094 H 0.11693 0.69838 0.81717 0.0
H2095 H 0.05902 0.74582 0.78056 0.0
C2096 C 0.04188 0.74878 0.8161 0.0
C2097 C 0.04437 0.7457 0.84186 0.0
C2098 C 0.11986 0.71003 0.80117 0.0
C2099 C 0.08201 0.73271 0.81037 0.0
C2100 C 0.14047 0.7069 0.7868 0.0
C2101 C 0.14485 0.72208 0.76622 0.0
C2102 C 0.10326 0.72814 0.79465 0.0
C2103 C 0.12781 0.74002 0.76029 0.0
C2104 C 0.06078 0.74253 0.80031 0.0
C2105 C 0.06548 0.73486 0.85107 0.0
N2106 N 0.10762 0.74251 0.77443 0.0
N2107 N 0.08357 0.72876 0.8353 0.0
H2108 H 0.98668 0.28552 0.58579 0.0
H2109 H 0.94058 0.42252 0.59412 0.0
H2110 H 0.96698 0.3216 0.65401 0.0
H2111 H 0.96612 0.38855 0.52687 0.0
H2112 H 0.94012 0.38249 0.61423 0.0
H2113 H 0.97106 0.32028 0.56244 0.0
C2114 C 0.9791 0.30079 0.59584 0.0
C2115 C 0.97851 0.30095 0.62185 0.0
C2116 C 0.94535 0.38373 0.59491 0.0
C2117 C 0.96038 0.34059 0.59532 0.0
C2118 C 0.9454 0.40656 0.58334 0.0
C2119 C 0.95413 0.40893 0.55903 0.0
C2120 C 0.95413 0.36331 0.58204 0.0
C2121 C 0.95989 0.3876 0.54588 0.0
C2122 C 0.97 0.32053 0.58252 0.0
C2123 C 0.96813 0.32096 0.63396 0.0
N2124 N 0.96029 0.36572 0.55772 0.0
N2125 N 0.95965 0.34011 0.62059 0.0
H2126 H 0.39682 0.33047 0.39636 0.0
H2127 H 0.32369 0.27011 0.28321 0.0
H2128 H 0.42998 0.28263 0.34275 0.0
H2129 H 0.29884 0.33353 0.32327 0.0
H2130 H 0.36201 0.27255 0.3064 0.0
H2131 H 0.35995 0.33049 0.37097 0.0
C2132 C 0.39644 0.32014 0.37917 0.0
C2133 C 0.41653 0.30647 0.37175 0.0
C2134 C 0.34816 0.28596 0.31 0.0
C2135 C 0.37427 0.30613 0.3428 0.0
C2136 C 0.32626 0.2845 0.29688 0.0
C2137 C 0.30801 0.30161 0.30131 0.0
C2138 C 0.35167 0.30447 0.32788 0.0
C2139 C 0.31239 0.31996 0.31917 0.0
C2140 C 0.37538 0.32015 0.36469 0.0
C2141 C 0.41498 0.29347 0.34923 0.0
N2142 N 0.33369 0.32081 0.33187 0.0
N2143 N 0.39414 0.29342 0.33569 0.0
H2144 H 0.38603 0.50028 0.33453 0.0
H2145 H 0.45337 0.57704 0.43499 0.0
H2146 H 0.38816 0.57903 0.32911 0.0
H2147 H 0.41672 0.50888 0.45264 0.0
H2148 H 0.42936 0.57931 0.39657 0.0
H2149 H 0.39625 0.50344 0.37858 0.0
C2150 C 0.38809 0.51825 0.3429 0.0
C2151 C 0.3863 0.53942 0.32849 0.0
C2152 C 0.42636 0.56413 0.40916 0.0
C2153 C 0.39888 0.54324 0.37833 0.0
C2154 C 0.44017 0.56272 0.43093 0.0
C2155 C 0.43744 0.54249 0.44677 0.0
C2156 C 0.4101 0.545 0.40316 0.0
C2157 C 0.4198 0.52462 0.44081 0.0
C2158 C 0.39392 0.5201 0.36796 0.0
C2159 C 0.38926 0.56234 0.3399 0.0
N2160 N 0.40711 0.5261 0.41929 0.0
N2161 N 0.39605 0.56369 0.36417 0.0
H2162 H 0.28236 0.65502 0.06372 0.0
H2163 H 0.26478 0.78098 0.13666 0.0
H2164 H 0.27693 0.72494 0.02673 0.0
H2165 H 0.25129 0.70961 0.16868 0.0
H2166 H 0.27297 0.76138 0.0968 0.0
H2167 H 0.27717 0.67565 0.10354 0.0
C2168 C 0.28066 0.67477 0.06397 0.0
C2169 C 0.27982 0.68823 0.0418 0.0
C2170 C 0.26802 0.75006 0.11252 0.0
C2171 C 0.27334 0.71183 0.08726 0.0
C2172 C 0.26315 0.76124 0.13523 0.0
C2173 C 0.25733 0.74694 0.15608 0.0
C2174 C 0.26734 0.72441 0.11073 0.0
C2175 C 0.25559 0.72141 0.15313 0.0
C2176 C 0.27734 0.68648 0.0867 0.0
C2177 C 0.27744 0.71379 0.04333 0.0
N2178 N 0.26081 0.71096 0.13094 0.0
N2179 N 0.27407 0.72474 0.06567 0.0
H2180 H 0.14514 0.50716 0.85927 0.0
H2181 H 0.02466 0.51262 0.93296 0.0
H2182 H 0.07492 0.5077 0.82354 0.0
H2183 H 0.08565 0.55527 0.96012 0.0
H2184 H 0.04524 0.50757 0.89348 0.0
H2185 H 0.12646 0.52369 0.89716 0.0
C2186 C 0.12598 0.51127 0.85921 0.0
C2187 C 0.11139 0.50553 0.83854 0.0
C2188 C 0.0541 0.5182 0.90799 0.0
C2189 C 0.09019 0.52393 0.88133 0.0
C2190 C 0.04246 0.52088 0.93056 0.0
C2191 C 0.05359 0.53425 0.94972 0.0
C2192 C 0.07729 0.52847 0.9047 0.0
C2193 C 0.07656 0.54484 0.94563 0.0
C2194 C 0.11539 0.52066 0.88074 0.0
C2195 C 0.08673 0.51129 0.83926 0.0
N2196 N 0.08794 0.54141 0.92355 0.0
N2197 N 0.07684 0.51976 0.86045 0.0
H2198 H 0.29443 0.28333 0.55514 0.0
H2199 H 0.31265 0.30583 0.70018 0.0
H2200 H 0.27149 0.34733 0.59551 0.0
H2201 H 0.31551 0.23405 0.6671 0.0
H2202 H 0.31085 0.32394 0.65883 0.0
H2203 H 0.31236 0.26731 0.59346 0.0
C2204 C 0.2931 0.29398 0.57205 0.0
C2205 C 0.28112 0.31656 0.57222 0.0
C2206 C 0.31255 0.30427 0.66053 0.0
C2207 C 0.30217 0.29866 0.61575 0.0
C2208 C 0.31398 0.29399 0.68409 0.0
C2209 C 0.31404 0.26849 0.68686 0.0
C2210 C 0.31077 0.28885 0.63973 0.0
C2211 C 0.31554 0.25383 0.66558 0.0
C2212 C 0.30349 0.28489 0.59381 0.0
C2213 C 0.28015 0.32966 0.59458 0.0
N2214 N 0.31321 0.2642 0.64275 0.0
N2215 N 0.29053 0.32051 0.61542 0.0
H2216 H 0.40528 0.49774 0.19224 0.0
H2217 H 0.51071 0.43335 0.12726 0.0
H2218 H 0.45855 0.46214 0.23833 0.0
H2219 H 0.4381 0.43218 0.0975 0.0
H2220 H 0.49419 0.44154 0.16869 0.0
H2221 H 0.41977 0.47483 0.15662 0.0
C2222 C 0.42025 0.48532 0.1948 0.0
C2223 C 0.43088 0.48198 0.2182 0.0
C2224 C 0.48185 0.43844 0.15326 0.0
C2225 C 0.44731 0.4554 0.17755 0.0
C2226 C 0.49123 0.43342 0.12975 0.0
C2227 C 0.47562 0.4322 0.10916 0.0
C2228 C 0.45692 0.44267 0.15566 0.0
C2229 C 0.45061 0.43303 0.11306 0.0
C2230 C 0.42822 0.47192 0.17456 0.0
C2231 C 0.44996 0.46528 0.22051 0.0
N2232 N 0.44202 0.4389 0.13578 0.0
N2233 N 0.45783 0.45275 0.2003 0.0
H2234 H 0.24415 0.5954 0.91733 0.0
H2235 H 0.28564 0.67126 0.79888 0.0
H2236 H 0.2817 0.66522 0.91955 0.0
H2237 H 0.21551 0.63507 0.79942 0.0
H2238 H 0.29306 0.6563 0.84077 0.0
H2239 H 0.24079 0.59922 0.87172 0.0
C2240 C 0.25166 0.61144 0.9082 0.0
C2241 C 0.26298 0.63017 0.92204 0.0
C2242 C 0.27623 0.65133 0.83149 0.0
C2243 C 0.26008 0.63406 0.87064 0.0
C2244 C 0.27196 0.65981 0.8076 0.0
C2245 C 0.24961 0.65502 0.79594 0.0
C2246 C 0.25812 0.63792 0.84375 0.0
C2247 C 0.23281 0.63958 0.80796 0.0
C2248 C 0.24981 0.61353 0.88238 0.0
C2249 C 0.27257 0.65053 0.90955 0.0
N2250 N 0.23723 0.63185 0.83153 0.0
N2251 N 0.27104 0.65185 0.88453 0.0
H2252 H 0.04395 0.43387 0.74097 0.0
H2253 H 0.05885 0.50221 0.61218 0.0
H2254 H 0.11313 0.45337 0.7091 0.0
H2255 H 0.99074 0.47068 0.63633 0.0
H2256 H 0.07891 0.48324 0.64748 0.0
H2257 H 0.02444 0.44263 0.70123 0.0
C2258 C 0.05517 0.43903 0.72532 0.0
C2259 C 0.08013 0.44349 0.72855 0.0
C2260 C 0.05957 0.48046 0.64508 0.0
C2261 C 0.05784 0.45442 0.68338 0.0
C2262 C 0.04799 0.49164 0.62511 0.0
C2263 C 0.02298 0.48816 0.62124 0.0
C2264 C 0.04609 0.4658 0.66152 0.0
C2265 C 0.01001 0.47401 0.63859 0.0
C2266 C 0.04396 0.4444 0.70273 0.0
C2267 C 0.0938 0.44997 0.7076 0.0
N2268 N 0.02172 0.46336 0.65797 0.0
N2269 N 0.08238 0.45594 0.68609 0.0
H2270 H 0.21548 0.39595 0.45047 0.0
H2271 H 0.18422 0.29259 0.34977 0.0
H2272 H 0.2306 0.31908 0.45969 0.0
H2273 H 0.19563 0.36867 0.33139 0.0
H2274 H 0.18796 0.30308 0.39395 0.0
H2275 H 0.19713 0.38679 0.40991 0.0
C2276 C 0.21502 0.37718 0.44391 0.0
C2277 C 0.2249 0.35829 0.45821 0.0
C2278 C 0.18893 0.31755 0.38024 0.0
C2279 C 0.20337 0.34766 0.41241 0.0
C2280 C 0.1864 0.31163 0.35513 0.0
C2281 C 0.18983 0.32982 0.33714 0.0
C2282 C 0.19471 0.34178 0.38712 0.0
C2283 C 0.19303 0.35418 0.34488 0.0
C2284 C 0.20439 0.37197 0.42092 0.0
C2285 C 0.22355 0.33425 0.44904 0.0
N2286 N 0.19578 0.35944 0.36934 0.0
N2287 N 0.21298 0.32961 0.42669 0.0
H2288 H 0.34257 0.37923 0.49898 0.0
H2289 H 0.38605 0.50631 0.55528 0.0
H2290 H 0.29103 0.42694 0.53404 0.0
H2291 H 0.43195 0.44344 0.54754 0.0
H2292 H 0.35039 0.47965 0.54764 0.0
H2293 H 0.37534 0.40559 0.51387 0.0
C2294 C 0.33806 0.39542 0.50955 0.0
C2295 C 0.31392 0.4008 0.51525 0.0
C2296 C 0.36826 0.47167 0.54826 0.0
C2297 C 0.35164 0.43105 0.53274 0.0
C2298 C 0.38853 0.48678 0.55296 0.0
C2299 C 0.41191 0.47701 0.55189 0.0
C2300 C 0.37167 0.44688 0.54224 0.0
C2301 C 0.41421 0.4517 0.54835 0.0
C2302 C 0.35686 0.41034 0.51834 0.0
C2303 C 0.30937 0.42207 0.52921 0.0
N2304 N 0.39443 0.43762 0.54321 0.0
N2305 N 0.32808 0.4365 0.53745 0.0
H2306 H 0.83297 0.10191 0.53828 0.0
H2307 H 0.95001 0.04295 0.47703 0.0
H2308 H 0.86164 0.12468 0.46737 0.0
H2309 H 0.93529 0.03915 0.55563 0.0
H2310 H 0.91508 0.06981 0.47195 0.0
H2311 H 0.86859 0.07612 0.54431 0.0
C2312 C 0.84685 0.10166 0.52413 0.0
C2313 C 0.84437 0.1154 0.50231 0.0
C2314 C 0.91957 0.06308 0.4903 0.0
C2315 C 0.88472 0.08575 0.50882 0.0
C2316 C 0.93937 0.04765 0.49315 0.0
C2317 C 0.94559 0.03889 0.51676 0.0
C2318 C 0.90578 0.06947 0.51115 0.0
C2319 C 0.93124 0.04563 0.53709 0.0
C2320 C 0.86711 0.08693 0.52753 0.0
C2321 C 0.86283 0.11439 0.4845 0.0
N2322 N 0.91196 0.06046 0.5338 0.0
N2323 N 0.88213 0.09964 0.48805 0.0
H2324 H 0.58191 0.05506 0.25384 0.0
H2325 H 0.69806 0.11091 0.18746 0.0
H2326 H 0.64804 0.01557 0.24081 0.0
H2327 H 0.63349 0.15164 0.20302 0.0
H2328 H 0.67583 0.07288 0.19637 0.0
H2329 H 0.59716 0.08815 0.22746 0.0
C2330 C 0.59967 0.05338 0.24558 0.0
C2331 C 0.61388 0.03268 0.24999 0.0
C2332 C 0.66628 0.09007 0.19708 0.0
C2333 C 0.63125 0.07027 0.21936 0.0
C2334 C 0.67888 0.11172 0.19153 0.0
C2335 C 0.66761 0.1343 0.19495 0.0
C2336 C 0.64246 0.0913 0.2062 0.0
C2337 C 0.64281 0.13447 0.20052 0.0
C2338 C 0.60825 0.07215 0.23027 0.0
C2339 C 0.63655 0.03132 0.23831 0.0
N2340 N 0.63118 0.11332 0.20661 0.0
N2341 N 0.64459 0.04992 0.22372 0.0
H2342 H 0.66677 0.85585 0.04146 0.0
H2343 H 0.61061 0.98934 0.02727 0.0
H2344 H 0.70726 0.92272 0.05511 0.0
H2345 H 0.57488 0.92316 0.00156 0.0
H2346 H 0.64429 0.96498 0.04249 0.0
H2347 H 0.63039 0.87991 0.0344 0.0
C2348 C 0.66788 0.87555 0.04378 0.0
C2349 C 0.69026 0.8873 0.04843 0.0
C2350 C 0.62915 0.95576 0.03344 0.0
C2351 C 0.64875 0.91496 0.03974 0.0
C2352 C 0.60996 0.96967 0.02455 0.0
C2353 C 0.58991 0.9583 0.01293 0.0
C2354 C 0.62833 0.9302 0.03091 0.0
C2355 C 0.59008 0.93274 0.0101 0.0
C2356 C 0.64714 0.88929 0.03937 0.0
C2357 C 0.69049 0.91286 0.05134 0.0
N2358 N 0.60895 0.91954 0.01912 0.0
N2359 N 0.67015 0.92587 0.0465 0.0
H2360 H 0.33584 0.4868 0.22416 0.0
H2361 H 0.22408 0.4047 0.26728 0.0
H2362 H 0.32009 0.4665 0.29985 0.0
H2363 H 0.2643 0.38813 0.20107 0.0
H2364 H 0.24788 0.44239 0.27234 0.0
H2365 H 0.2996 0.46391 0.21035 0.0
C2366 C 0.32446 0.47794 0.2379 0.0
C2367 C 0.33097 0.47823 0.26316 0.0
C2368 C 0.25088 0.43094 0.25622 0.0
C2369 C 0.28951 0.45289 0.24757 0.0
C2370 C 0.23723 0.4096 0.25319 0.0
C2371 C 0.24269 0.39318 0.23403 0.0
C2372 C 0.27005 0.43579 0.23997 0.0
C2373 C 0.25973 0.40032 0.21617 0.0
C2374 C 0.30389 0.46498 0.22998 0.0
C2375 C 0.31579 0.46643 0.2802 0.0
N2376 N 0.27338 0.42094 0.21992 0.0
N2377 N 0.29572 0.45417 0.27207 0.0
H2378 H 0.17786 0.66237 0.00068 0.0
H2379 H 0.10601 0.55321 0.06555 0.0
H2380 H 0.21159 0.5943 0.02131 0.0
H2381 H 0.07578 0.62392 0.04927 0.0
H2382 H 0.14643 0.56969 0.05614 0.0
H2383 H 0.14172 0.64989 0.02311 0.0
C2384 C 0.17765 0.64469 0.0098 0.0
C2385 C 0.19774 0.62921 0.00875 0.0
C2386 C 0.13102 0.58175 0.05523 0.0
C2387 C 0.15621 0.61483 0.03483 0.0
C2388 C 0.10798 0.57243 0.06091 0.0
C2389 C 0.08754 0.58715 0.05776 0.0
C2390 C 0.13342 0.60587 0.04634 0.0
C2391 C 0.09108 0.61187 0.05155 0.0
C2392 C 0.15702 0.63767 0.02286 0.0
C2393 C 0.19645 0.60672 0.0214 0.0
N2394 N 0.1135 0.62033 0.0456 0.0
N2395 N 0.17594 0.6001 0.03373 0.0
H2396 H 0.67804 0.92174 0.23679 0.0
H2397 H 0.72907 0.79958 0.29893 0.0
H2398 H 0.64162 0.88302 0.29596 0.0
H2399 H 0.75096 0.82557 0.22667 0.0
H2400 H 0.70176 0.8345 0.30238 0.0
H2401 H 0.70902 0.89006 0.23632 0.0
C2402 C 0.67649 0.90649 0.24957 0.0
C2403 C 0.65717 0.90487 0.26631 0.0
C2404 C 0.71276 0.83265 0.2859 0.0
C2405 C 0.69272 0.86893 0.26622 0.0
C2406 C 0.72852 0.81291 0.28405 0.0
C2407 C 0.74212 0.80963 0.2624 0.0
C2408 C 0.71087 0.84926 0.26609 0.0
C2409 C 0.74059 0.82732 0.24358 0.0
C2410 C 0.6942 0.8885 0.24936 0.0
C2411 C 0.65611 0.88483 0.28259 0.0
N2412 N 0.72514 0.84631 0.2458 0.0
N2413 N 0.67371 0.86767 0.28221 0.0
H2414 H 0.8245 0.07185 0.70527 0.0
H2415 H 0.80384 0.2034 0.75826 0.0
H2416 H 0.88331 0.11947 0.72879 0.0
H2417 H 0.75607 0.17551 0.70071 0.0
H2418 H 0.83091 0.16939 0.75091 0.0
H2419 H 0.7977 0.10733 0.70383 0.0
C2420 C 0.83198 0.08986 0.70935 0.0
C2421 C 0.85609 0.09268 0.71751 0.0
C2422 C 0.81448 0.17069 0.73991 0.0
C2423 C 0.82543 0.13291 0.71674 0.0
C2424 C 0.79877 0.18991 0.74435 0.0
C2425 C 0.77755 0.19235 0.7301 0.0
C2426 C 0.80885 0.15344 0.72139 0.0
C2427 C 0.7722 0.17431 0.71216 0.0
C2428 C 0.81662 0.11002 0.7087 0.0
C2429 C 0.86483 0.1164 0.72256 0.0
N2430 N 0.78773 0.15548 0.70836 0.0
N2431 N 0.84934 0.13552 0.72271 0.0
loop_
_geom_bond_atom_site_label_1
_geom_bond_atom_site_label_2
_geom_bond_distance
_geom_bond_site_symmetry_2
_ccdc_geom_bond_type
Co0 O1 2.212 1_455 S
Co0 O2 2.088 1_455 S
Co0 O4 2.008 . S
Co0 O10 2.021 . S
Co0 O12 2.137 1_455 S
Co0 O13 2.245 . S
O1 Co0 2.212 1_655 S
O1 C8 1.247 . S
O2 Co0 2.088 1_655 S
O2 C8 1.261 . S
C3 O12 1.247 1_455 S
C3 O13 1.272 . S
O4 Co0 2.008 . S
O4 C9 1.259 . S
Co5 O6 2.061 . S
Co5 O11 2.052 . S
Co5 O13 2.135 . S
O6 Co5 2.061 . S
O6 C9 1.235 . S
C7 O10 1.238 . S
C7 O11 1.241 . S
C8 O1 1.247 . S
C8 O2 1.261 . S
C9 O4 1.259 . S
C9 O6 1.235 . S
O10 Co0 2.021 . S
O10 C7 1.238 . S
O11 Co5 2.052 . S
O11 C7 1.241 . S
O12 Co0 2.137 1_655 S
O12 C3 1.247 1_655 S
O13 Co0 2.245 . S
O13 C3 1.272 . S
O13 Co5 2.135 . S
Co14 O15 2.216 . S
Co14 O16 2.091 . S
Co14 O18 2.004 1_455 S
Co14 O24 2.021 . S
Co14 O26 2.137 . S
Co14 O27 2.244 1_455 S
O15 Co14 2.216 . S
O15 C22 1.247 . S
O16 Co14 2.091 . S
O16 C22 1.261 . S
C17 O26 1.247 . S
C17 O27 1.272 1_455 S
O18 Co14 2.004 1_655 S
O18 C23 1.259 . S
Co19 O20 2.061 . S
Co19 O25 2.052 . S
Co19 O27 2.135 . S
O20 Co19 2.061 . S
O20 C23 1.235 . S
C21 O24 1.238 . S
C21 O25 1.241 1_455 S
C22 O15 1.247 . S
C22 O16 1.261 . S
C23 O18 1.259 . S
C23 O20 1.235 . S
O24 Co14 2.021 . S
O24 C21 1.238 . S
O25 Co19 2.052 . S
O25 C21 1.241 1_655 S
O26 Co14 2.137 . S
O26 C17 1.247 . S
O27 Co14 2.244 1_655 S
O27 C17 1.272 1_655 S
O27 Co19 2.135 . S
Co28 O29 2.216 . S
Co28 O30 2.091 . S
Co28 O32 2.004 . S
Co28 O38 2.021 . S
Co28 O40 2.137 . S
Co28 O41 2.244 . S
O29 Co28 2.216 . S
O29 C36 1.247 . S
O30 Co28 2.091 . S
O30 C36 1.261 . S
C31 O40 1.247 . S
C31 O41 1.272 . S
O32 Co28 2.004 . S
O32 C37 1.259 . S
Co33 O34 2.061 . S
Co33 O39 2.052 . S
Co33 O41 2.135 . S
O34 Co33 2.061 . S
O34 C37 1.235 . S
C35 O38 1.238 . S
C35 O39 1.241 . S
C36 O29 1.247 . S
C36 O30 1.261 . S
C37 O32 1.259 . S
C37 O34 1.235 . S
O38 Co28 2.021 . S
O38 C35 1.238 . S
O39 Co33 2.052 . S
O39 C35 1.241 . S
O40 Co28 2.137 . S
O40 C31 1.247 . S
O41 Co28 2.244 . S
O41 C31 1.272 . S
O41 Co33 2.135 . S
Co42 O43 2.216 . S
Co42 O44 2.091 . S
Co42 O46 2.004 . S
Co42 O52 2.021 . S
Co42 O54 2.137 . S
Co42 O55 2.244 . S
O43 Co42 2.216 . S
O43 C50 1.247 . S
O44 Co42 2.091 . S
O44 C50 1.261 . S
C45 O54 1.247 . S
C45 O55 1.272 . S
O46 Co42 2.004 . S
O46 C51 1.259 . S
Co47 O48 2.061 . S
Co47 O53 2.052 . S
Co47 O55 2.135 . S
O48 Co47 2.061 . S
O48 C51 1.235 . S
C49 O52 1.238 . S
C49 O53 1.241 . S
C50 O43 1.247 . S
C50 O44 1.261 . S
C51 O46 1.259 . S
C51 O48 1.235 . S
O52 Co42 2.021 . S
O52 C49 1.238 . S
O53 Co47 2.052 . S
O53 C49 1.241 . S
O54 Co42 2.137 . S
O54 C45 1.247 . S
O55 Co42 2.244 . S
O55 C45 1.272 . S
O55 Co47 2.135 . S
Co56 O57 2.216 1_545 S
Co56 O58 2.091 1_545 S
Co56 O60 2.004 . S
Co56 O66 2.021 . S
Co56 O68 2.137 . S
Co56 O69 2.244 . S
O57 Co56 2.216 1_565 S
O57 C64 1.247 . S
O58 Co56 2.091 1_565 S
O58 C64 1.261 . S
C59 O68 1.247 . S
C59 O69 1.272 . S
O60 Co56 2.004 . S
O60 C65 1.259 . S
Co61 O62 2.061 . S
Co61 O67 2.052 . S
Co61 O69 2.135 . S
O62 Co61 2.061 . S
O62 C65 1.235 . S
C63 O66 1.238 . S
C63 O67 1.241 . S
C64 O57 1.247 . S
C64 O58 1.261 . S
C65 O60 1.259 . S
C65 O62 1.235 . S
O66 Co56 2.021 . S
O66 C63 1.238 . S
O67 Co61 2.052 . S
O67 C63 1.241 . S
O68 Co56 2.137 . S
O68 C59 1.247 . S
O69 Co56 2.244 . S
O69 C59 1.272 . S
O69 Co61 2.135 . S
Co70 O71 2.216 . S
Co70 O72 2.091 . S
Co70 O74 2.004 . S
Co70 O80 2.021 . S
Co70 O82 2.137 . S
Co70 O83 2.244 . S
O71 Co70 2.216 . S
O71 C78 1.247 . S
O72 Co70 2.091 . S
O72 C78 1.261 . S
C73 O82 1.247 . S
C73 O83 1.272 . S
O74 Co70 2.004 . S
O74 C79 1.259 . S
Co75 O76 2.061 . S
Co75 O81 2.052 . S
Co75 O83 2.135 . S
O76 Co75 2.061 . S
O76 C79 1.235 . S
C77 O80 1.238 . S
C77 O81 1.241 . S
C78 O71 1.247 . S
C78 O72 1.261 . S
C79 O74 1.259 . S
C79 O76 1.235 . S
O80 Co70 2.021 . S
O80 C77 1.238 . S
O81 Co75 2.052 . S
O81 C77 1.241 . S
O82 Co70 2.137 . S
O82 C73 1.247 . S
O83 Co70 2.244 . S
O83 C73 1.272 . S
O83 Co75 2.135 . S
Co84 O85 2.216 . S
Co84 O86 2.091 . S
Co84 O88 2.004 1_545 S
Co84 O94 2.021 . S
Co84 O96 2.137 . S
Co84 O97 2.244 1_545 S
O85 Co84 2.216 . S
O85 C92 1.247 . S
O86 Co84 2.091 . S
O86 C92 1.261 . S
C87 O96 1.250 . S
C87 O97 1.269 1_545 S
O88 Co84 2.004 1_565 S
O88 C93 1.259 . S
Co89 O90 2.061 . S
Co89 O95 2.052 . S
Co89 O97 2.135 . S
O90 Co89 2.061 . S
O90 C93 1.235 . S
C91 O94 1.238 1_565 S
C91 O95 1.241 . S
C92 O85 1.247 . S
C92 O86 1.261 . S
C93 O88 1.259 . S
C93 O90 1.235 . S
O94 Co84 2.021 . S
O94 C91 1.238 1_545 S
O95 Co89 2.052 . S
O95 C91 1.241 . S
O96 Co84 2.137 . S
O96 C87 1.250 . S
O97 Co84 2.244 1_565 S
O97 C87 1.269 1_565 S
O97 Co89 2.135 . S
Co98 O99 2.216 . S
Co98 O100 2.091 . S
Co98 O102 2.004 . S
Co98 O108 2.021 . S
Co98 O110 2.137 1_554 S
Co98 O111 2.244 1_554 S
O99 Co98 2.216 . S
O99 C106 1.247 . S
O100 Co98 2.091 . S
O100 C106 1.261 . S
C101 O110 1.247 . S
C101 O111 1.272 . S
O102 Co98 2.004 . S
O102 C107 1.259 . S
Co103 O104 2.061 . S
Co103 O109 2.052 . S
Co103 O111 2.135 1_554 S
O104 Co103 2.061 . S
O104 C107 1.235 . S
C105 O108 1.238 . S
C105 O109 1.241 . S
C106 O99 1.247 . S
C106 O100 1.261 . S
C107 O102 1.259 . S
C107 O104 1.235 . S
O108 Co98 2.021 . S
O108 C105 1.238 . S
O109 Co103 2.052 . S
O109 C105 1.241 . S
O110 Co98 2.137 1_556 S
O110 C101 1.247 . S
O111 Co98 2.244 1_556 S
O111 C101 1.272 . S
O111 Co103 2.135 1_556 S
Co112 O113 2.216 . S
Co112 O114 2.091 . S
Co112 O116 2.004 . S
Co112 O122 2.021 . S
Co112 O124 2.137 1_554 S
Co112 O125 2.244 1_554 S
O113 Co112 2.216 . S
O113 C120 1.247 . S
O114 Co112 2.091 . S
O114 C120 1.261 . S
C115 O124 1.247 . S
C115 O125 1.272 . S
O116 Co112 2.004 . S
O116 C121 1.259 . S
Co117 O118 2.061 . S
Co117 O123 2.052 . S
Co117 O125 2.135 1_554 S
O118 Co117 2.061 . S
O118 C121 1.235 . S
C119 O122 1.238 . S
C119 O123 1.241 . S
C120 O113 1.247 . S
C120 O114 1.261 . S
C121 O116 1.259 . S
C121 O118 1.235 . S
O122 Co112 2.021 . S
O122 C119 1.238 . S
O123 Co117 2.052 . S
O123 C119 1.241 . S
O124 Co112 2.137 1_556 S
O124 C115 1.247 . S
O125 Co112 2.244 1_556 S
O125 C115 1.272 . S
O125 Co117 2.135 1_556 S
Co126 O127 2.216 . S
Co126 O128 2.091 . S
Co126 O130 2.004 . S
Co126 O136 2.021 . S
Co126 O138 2.137 . S
Co126 O139 2.244 . S
O127 Co126 2.216 . S
O127 C134 1.247 . S
O128 Co126 2.091 . S
O128 C134 1.261 . S
C129 O138 1.247 . S
C129 O139 1.272 . S
O130 Co126 2.004 . S
O130 C135 1.259 . S
Co131 O132 2.061 . S
Co131 O137 2.052 . S
Co131 O139 2.135 . S
O132 Co131 2.061 . S
O132 C135 1.235 . S
C133 O136 1.238 . S
C133 O137 1.241 . S
C134 O127 1.247 . S
C134 O128 1.261 . S
C135 O130 1.259 . S
C135 O132 1.235 . S
O136 Co126 2.021 . S
O136 C133 1.238 . S
O137 Co131 2.052 . S
O137 C133 1.241 . S
O138 Co126 2.137 . S
O138 C129 1.247 . S
O139 Co126 2.244 . S
O139 C129 1.272 . S
O139 Co131 2.135 . S
Co140 O141 2.216 . S
Co140 O142 2.091 . S
Co140 O144 2.004 . S
Co140 O150 2.021 . S
Co140 O152 2.137 . S
Co140 O153 2.244 . S
O141 Co140 2.216 . S
O141 C148 1.247 . S
O142 Co140 2.091 . S
O142 C148 1.261 . S
C143 O152 1.247 . S
C143 O153 1.272 . S
O144 Co140 2.004 . S
O144 C149 1.259 . S
Co145 O146 2.061 . S
Co145 O151 2.052 . S
Co145 O153 2.135 . S
O146 Co145 2.061 . S
O146 C149 1.235 . S
C147 O150 1.238 . S
C147 O151 1.241 . S
C148 O141 1.247 . S
C148 O142 1.261 . S
C149 O144 1.259 . S
C149 O146 1.235 . S
O150 Co140 2.021 . S
O150 C147 1.238 . S
O151 Co145 2.052 . S
O151 C147 1.241 . S
O152 Co140 2.137 . S
O152 C143 1.247 . S
O153 Co140 2.244 . S
O153 C143 1.272 . S
O153 Co145 2.135 . S
Co154 O155 2.216 . S
Co154 O156 2.091 . S
Co154 O158 2.004 . S
Co154 O164 2.021 . S
Co154 O166 2.137 . S
Co154 O167 2.244 . S
O155 Co154 2.216 . S
O155 C162 1.247 . S
O156 Co154 2.091 . S
O156 C162 1.261 . S
C157 O166 1.247 . S
C157 O167 1.272 . S
O158 Co154 2.004 . S
O158 C163 1.259 . S
Co159 O160 2.061 . S
Co159 O165 2.052 . S
Co159 O167 2.135 . S
O160 Co159 2.061 . S
O160 C163 1.235 . S
C161 O164 1.238 . S
C161 O165 1.241 . S
C162 O155 1.247 . S
C162 O156 1.261 . S
C163 O158 1.259 . S
C163 O160 1.235 . S
O164 Co154 2.021 . S
O164 C161 1.238 . S
O165 Co159 2.052 . S
O165 C161 1.241 . S
O166 Co154 2.137 . S
O166 C157 1.247 . S
O167 Co154 2.244 . S
O167 C157 1.272 . S
O167 Co159 2.135 . S
Co168 O169 2.216 . S
Co168 O170 2.091 . S
Co168 O172 2.004 1_455 S
Co168 O178 2.021 . S
Co168 O180 2.137 . S
Co168 O181 2.244 1_455 S
O169 Co168 2.216 . S
O169 C176 1.247 . S
O170 Co168 2.091 . S
O170 C176 1.261 . S
C171 O180 1.247 . S
C171 O181 1.272 1_455 S
O172 Co168 2.004 1_655 S
O172 C177 1.259 . S
Co173 O174 2.061 . S
Co173 O179 2.052 . S
Co173 O181 2.135 . S
O174 Co173 2.061 . S
O174 C177 1.235 . S
C175 O178 1.250 . S
C175 O179 1.222 1_455 S
C176 O169 1.247 . S
C176 O170 1.261 . S
C177 O172 1.259 . S
C177 O174 1.235 . S
O178 Co168 2.021 . S
O178 C175 1.250 . S
O179 Co173 2.052 . S
O179 C175 1.222 1_655 S
O180 Co168 2.137 . S
O180 C171 1.247 . S
O181 Co168 2.244 1_655 S
O181 C171 1.272 1_655 S
O181 Co173 2.135 . S
Co182 O183 2.175 1_455 S
Co182 O184 2.064 1_455 S
Co182 O186 2.041 . S
Co182 O192 2.024 . S
Co182 O194 2.135 1_455 S
Co182 O195 2.257 . S
O183 Co182 2.175 1_655 S
O183 C190 1.247 . S
O184 Co182 2.064 1_655 S
O184 C190 1.261 . S
C185 O194 1.247 1_455 S
C185 O195 1.272 . S
O186 Co182 2.041 . S
O186 C191 1.259 . S
Co187 O188 2.061 . S
Co187 O193 2.052 . S
Co187 O195 2.135 . S
O188 Co187 2.061 . S
O188 C191 1.235 . S
C189 O192 1.238 . S
C189 O193 1.241 . S
C190 O183 1.247 . S
C190 O184 1.261 . S
C191 O186 1.259 . S
C191 O188 1.235 . S
O192 Co182 2.024 . S
O192 C189 1.238 . S
O193 Co187 2.052 . S
O193 C189 1.241 . S
O194 Co182 2.135 1_655 S
O194 C185 1.247 1_655 S
O195 Co182 2.257 . S
O195 C185 1.272 . S
O195 Co187 2.135 . S
Co196 O197 2.216 . S
Co196 O198 2.091 . S
Co196 O200 2.004 . S
Co196 O206 2.021 . S
Co196 O208 2.137 . S
Co196 O209 2.244 . S
O197 Co196 2.216 . S
O197 C204 1.247 . S
O198 Co196 2.091 . S
O198 C204 1.261 . S
C199 O208 1.247 . S
C199 O209 1.272 . S
O200 Co196 2.004 . S
O200 C205 1.259 . S
Co201 O202 2.061 . S
Co201 O207 2.052 . S
Co201 O209 2.135 . S
O202 Co201 2.061 . S
O202 C205 1.235 . S
C203 O206 1.238 . S
C203 O207 1.241 . S
C204 O197 1.247 . S
C204 O198 1.261 . S
C205 O200 1.259 . S
C205 O202 1.235 . S
O206 Co196 2.021 . S
O206 C203 1.238 . S
O207 Co201 2.052 . S
O207 C203 1.241 . S
O208 Co196 2.137 . S
O208 C199 1.247 . S
O209 Co196 2.244 . S
O209 C199 1.272 . S
O209 Co201 2.135 . S
Co210 O211 2.216 . S
Co210 O212 2.091 . S
Co210 O214 2.004 . S
Co210 O220 2.021 . S
Co210 O222 2.137 . S
Co210 O223 2.244 . S
O211 Co210 2.216 . S
O211 C218 1.247 . S
O212 Co210 2.091 . S
O212 C218 1.261 . S
C213 O222 1.247 . S
C213 O223 1.272 . S
O214 Co210 2.004 . S
O214 C219 1.259 . S
Co215 O216 2.061 . S
Co215 O221 2.052 . S
Co215 O223 2.135 . S
O216 Co215 2.061 . S
O216 C219 1.235 . S
C217 O220 1.238 . S
C217 O221 1.241 . S
C218 O211 1.247 . S
C218 O212 1.261 . S
C219 O214 1.259 . S
C219 O216 1.235 . S
O220 Co210 2.021 . S
O220 C217 1.238 . S
O221 Co215 2.052 . S
O221 C217 1.241 . S
O222 Co210 2.137 . S
O222 C213 1.247 . S
O223 Co210 2.244 . S
O223 C213 1.272 . S
O223 Co215 2.135 . S
Co224 O225 2.216 . S
Co224 O226 2.091 . S
Co224 O228 2.004 1_545 S
Co224 O234 2.021 . S
Co224 O236 2.137 . S
Co224 O237 2.244 . S
O225 Co224 2.216 . S
O225 C232 1.247 . S
O226 Co224 2.091 . S
O226 C232 1.261 . S
C227 O236 1.247 . S
C227 O237 1.272 . S
O228 Co224 2.004 1_565 S
O228 C233 1.259 . S
Co229 O230 2.061 . S
Co229 O235 2.052 1_565 S
Co229 O237 2.135 1_565 S
O230 Co229 2.061 . S
O230 C233 1.235 . S
C231 O234 1.238 . S
C231 O235 1.241 . S
C232 O225 1.247 . S
C232 O226 1.261 . S
C233 O228 1.259 . S
C233 O230 1.235 . S
O234 Co224 2.021 . S
O234 C231 1.238 . S
O235 Co229 2.052 1_545 S
O235 C231 1.241 . S
O236 Co224 2.137 . S
O236 C227 1.247 . S
O237 Co224 2.244 . S
O237 C227 1.272 . S
O237 Co229 2.135 1_545 S
Co238 O239 2.216 . S
Co238 O240 2.091 . S
Co238 O242 2.004 . S
Co238 O248 2.021 . S
Co238 O250 2.137 . S
Co238 O251 2.244 . S
O239 Co238 2.216 . S
O239 C246 1.247 . S
O240 Co238 2.091 . S
O240 C246 1.261 . S
C241 O250 1.247 . S
C241 O251 1.272 . S
O242 Co238 2.004 . S
O242 C247 1.259 . S
Co243 O244 2.061 . S
Co243 O249 2.052 . S
Co243 O251 2.135 . S
O244 Co243 2.061 . S
O244 C247 1.235 . S
C245 O248 1.238 . S
C245 O249 1.241 . S
C246 O239 1.247 . S
C246 O240 1.261 . S
C247 O242 1.259 . S
C247 O244 1.235 . S
O248 Co238 2.021 . S
O248 C245 1.238 . S
O249 Co243 2.052 . S
O249 C245 1.241 . S
O250 Co238 2.137 . S
O250 C241 1.247 . S
O251 Co238 2.244 . S
O251 C241 1.272 . S
O251 Co243 2.135 . S
Co252 O253 2.216 . S
Co252 O254 2.091 . S
Co252 O256 2.004 1_565 S
Co252 O262 2.021 . S
Co252 O264 2.137 . S
Co252 O265 2.244 1_565 S
O253 Co252 2.216 . S
O253 C260 1.247 . S
O254 Co252 2.091 . S
O254 C260 1.261 . S
C255 O264 1.247 1_545 S
C255 O265 1.272 . S
O256 Co252 2.004 1_545 S
O256 C261 1.259 . S
Co257 O258 2.061 . S
Co257 O263 2.052 . S
Co257 O265 2.135 . S
O258 Co257 2.061 . S
O258 C261 1.235 . S
C259 O262 1.238 1_545 S
C259 O263 1.241 . S
C260 O253 1.247 . S
C260 O254 1.261 . S
C261 O256 1.259 . S
C261 O258 1.235 . S
O262 Co252 2.021 . S
O262 C259 1.238 1_565 S
O263 Co257 2.052 . S
O263 C259 1.241 . S
O264 Co252 2.137 . S
O264 C255 1.247 1_565 S
O265 Co252 2.244 1_545 S
O265 C255 1.272 . S
O265 Co257 2.135 . S
Co266 O267 2.215 1_556 S
Co266 O268 2.087 1_556 S
Co266 O270 2.004 . S
Co266 O276 1.987 1_556 S
Co266 O278 2.173 . S
Co266 O279 2.260 . S
O267 Co266 2.215 1_554 S
O267 C274 1.248 . S
O268 Co266 2.087 1_554 S
O268 C274 1.261 . S
C269 O278 1.247 . S
C269 O279 1.272 . S
O270 Co266 2.004 . S
O270 C275 1.254 1_556 S
Co271 O272 2.061 . S
Co271 O277 2.052 . S
Co271 O279 2.135 1_554 S
O272 Co271 2.061 . S
O272 C275 1.235 . S
C273 O276 1.238 . S
C273 O277 1.241 . S
C274 O267 1.248 . S
C274 O268 1.261 . S
C275 O270 1.254 1_554 S
C275 O272 1.235 . S
O276 Co266 1.987 1_554 S
O276 C273 1.238 . S
O277 Co271 2.052 . S
O277 C273 1.241 . S
O278 Co266 2.173 . S
O278 C269 1.247 . S
O279 Co266 2.260 . S
O279 C269 1.272 . S
O279 Co271 2.135 1_556 S
Co280 O281 2.216 . S
Co280 O282 2.091 1_556 S
Co280 O284 2.004 . S
Co280 O290 2.021 1_556 S
Co280 O292 2.137 . S
Co280 O293 2.244 . S
O281 Co280 2.216 . S
O281 C288 1.246 1_556 S
O282 Co280 2.091 1_554 S
O282 C288 1.261 . S
C283 O292 1.247 . S
C283 O293 1.272 . S
O284 Co280 2.004 . S
O284 C289 1.259 1_556 S
Co285 O286 2.061 . S
Co285 O291 2.052 . S
Co285 O293 2.135 1_554 S
O286 Co285 2.061 . S
O286 C289 1.235 . S
C287 O290 1.238 . S
C287 O291 1.241 . S
C288 O281 1.246 1_554 S
C288 O282 1.261 . S
C289 O284 1.259 1_554 S
C289 O286 1.235 . S
O290 Co280 2.021 1_554 S
O290 C287 1.238 . S
O291 Co285 2.052 . S
O291 C287 1.241 . S
O292 Co280 2.137 . S
O292 C283 1.247 . S
O293 Co280 2.244 . S
O293 C283 1.272 . S
O293 Co285 2.135 1_556 S
Co294 O295 2.216 . S
Co294 O296 2.091 . S
Co294 O298 2.004 . S
Co294 O304 2.021 . S
Co294 O306 2.137 . S
Co294 O307 2.244 . S
O295 Co294 2.216 . S
O295 C302 1.247 . S
O296 Co294 2.091 . S
O296 C302 1.261 . S
C297 O306 1.247 . S
C297 O307 1.272 . S
O298 Co294 2.004 . S
O298 C303 1.259 . S
Co299 O300 2.061 . S
Co299 O305 2.052 . S
Co299 O307 2.135 . S
O300 Co299 2.061 . S
O300 C303 1.235 . S
C301 O304 1.238 . S
C301 O305 1.241 . S
C302 O295 1.247 . S
C302 O296 1.261 . S
C303 O298 1.259 . S
C303 O300 1.235 . S
O304 Co294 2.021 . S
O304 C301 1.238 . S
O305 Co299 2.052 . S
O305 C301 1.241 . S
O306 Co294 2.137 . S
O306 C297 1.247 . S
O307 Co294 2.244 . S
O307 C297 1.272 . S
O307 Co299 2.135 . S
Co308 O309 2.216 . S
Co308 O310 2.091 . S
Co308 O312 2.004 . S
Co308 O318 2.021 . S
Co308 O320 2.137 . S
Co308 O321 2.244 . S
O309 Co308 2.216 . S
O309 C316 1.247 . S
O310 Co308 2.091 . S
O310 C316 1.261 . S
C311 O320 1.247 . S
C311 O321 1.272 . S
O312 Co308 2.004 . S
O312 C317 1.259 . S
Co313 O314 2.061 . S
Co313 O319 2.052 . S
Co313 O321 2.135 . S
O314 Co313 2.061 . S
O314 C317 1.235 . S
C315 O318 1.238 . S
C315 O319 1.241 . S
C316 O309 1.247 . S
C316 O310 1.261 . S
C317 O312 1.259 . S
C317 O314 1.235 . S
O318 Co308 2.021 . S
O318 C315 1.238 . S
O319 Co313 2.052 . S
O319 C315 1.241 . S
O320 Co308 2.137 . S
O320 C311 1.247 . S
O321 Co308 2.244 . S
O321 C311 1.272 . S
O321 Co313 2.135 . S
Co322 O323 2.216 . S
Co322 O324 2.091 . S
Co322 O326 2.004 . S
Co322 O332 2.021 . S
Co322 O334 2.137 . S
Co322 O335 2.244 . S
O323 Co322 2.216 . S
O323 C330 1.247 . S
O324 Co322 2.091 . S
O324 C330 1.261 . S
C325 O334 1.247 . S
C325 O335 1.272 . S
O326 Co322 2.004 . S
O326 C331 1.259 . S
Co327 O328 2.061 . S
Co327 O333 2.052 . S
Co327 O335 2.135 . S
O328 Co327 2.061 . S
O328 C331 1.235 . S
C329 O332 1.238 . S
C329 O333 1.241 . S
C330 O323 1.247 . S
C330 O324 1.261 . S
C331 O326 1.259 . S
C331 O328 1.235 . S
O332 Co322 2.021 . S
O332 C329 1.238 . S
O333 Co327 2.052 . S
O333 C329 1.241 . S
O334 Co322 2.137 . S
O334 C325 1.247 . S
O335 Co322 2.244 . S
O335 C325 1.272 . S
O335 Co327 2.135 . S
O336 Zn337 1.953 . S
O336 C352 1.225 1_455 S
Zn337 O336 1.953 . S
Zn337 O338 1.954 . S
Zn337 O344 1.919 1_554 S
Zn337 O349 1.924 1_454 S
O338 Zn337 1.954 . S
O338 Zn339 1.935 1_545 S
O338 Zn340 1.941 1_455 S
O338 Zn341 1.937 1_444 S
Zn339 O338 1.935 1_565 S
Zn339 O342 1.933 . S
Zn339 O345 1.941 1_565 S
Zn339 O346 1.965 . S
Zn340 O338 1.941 1_655 S
Zn340 O347 1.938 . S
Zn340 O348 1.906 1_545 S
Zn340 O358 1.953 . S
Zn341 O338 1.937 1_666 S
Zn341 O343 1.932 . S
Zn341 O350 1.977 1_556 S
Zn341 O351 1.910 1_565 S
O342 Zn339 1.933 . S
O342 C353 1.226 1_554 S
O343 Zn341 1.932 . S
O343 C353 1.307 1_655 S
O344 Zn337 1.919 1_556 S
O344 C355 1.253 1_556 S
O345 Zn339 1.941 1_545 S
O345 C355 1.283 . S
O346 Zn339 1.965 . S
O346 C354 1.301 1_565 S
O347 Zn340 1.938 . S
O347 C354 1.248 1_655 S
O348 Zn340 1.906 1_565 S
O348 C356 1.304 . S
O349 Zn337 1.924 1_656 S
O349 C357 1.311 . S
O350 Zn341 1.977 1_554 S
O350 C356 1.272 . S
O351 Zn341 1.910 1_545 S
O351 C357 1.231 . S
C352 O336 1.225 1_655 S
C352 O358 1.298 . S
C353 O342 1.226 1_556 S
C353 O343 1.307 1_455 S
C354 O346 1.301 1_545 S
C354 O347 1.248 1_455 S
C355 O344 1.253 1_554 S
C355 O345 1.283 . S
C356 O348 1.304 . S
C356 O350 1.272 . S
C357 O349 1.311 . S
C357 O351 1.231 . S
O358 Zn340 1.953 . S
O358 C352 1.298 . S
O359 Zn360 1.953 . S
O359 C375 1.225 . S
Zn360 O359 1.953 . S
Zn360 O361 1.949 . S
Zn360 O367 1.919 . S
Zn360 O372 1.924 . S
O361 Zn360 1.949 . S
O361 Zn362 1.923 . S
O361 Zn363 1.950 . S
O361 Zn364 1.945 . S
Zn362 O361 1.923 . S
Zn362 O365 1.933 . S
Zn362 O368 1.941 . S
Zn362 O369 1.965 . S
Zn363 O361 1.950 . S
Zn363 O370 1.938 . S
Zn363 O371 1.906 . S
Zn363 O381 1.953 . S
Zn364 O361 1.945 . S
Zn364 O366 1.932 . S
Zn364 O373 1.977 . S
Zn364 O374 1.910 . S
O365 Zn362 1.933 . S
O365 C376 1.226 . S
O366 Zn364 1.932 . S
O366 C376 1.307 . S
O367 Zn360 1.919 . S
O367 C378 1.253 . S
O368 Zn362 1.941 . S
O368 C378 1.283 . S
O369 Zn362 1.965 . S
O369 C377 1.303 . S
O370 Zn363 1.938 . S
O370 C377 1.247 . S
O371 Zn363 1.906 . S
O371 C379 1.304 . S
O372 Zn360 1.924 . S
O372 C380 1.311 . S
O373 Zn364 1.977 . S
O373 C379 1.272 . S
O374 Zn364 1.910 . S
O374 C380 1.231 . S
C375 O359 1.225 . S
C375 O381 1.298 . S
C376 O365 1.226 . S
C376 O366 1.307 . S
C377 O369 1.303 . S
C377 O370 1.247 . S
C378 O367 1.253 . S
C378 O368 1.283 . S
C379 O371 1.304 . S
C379 O373 1.272 . S
C380 O372 1.311 . S
C380 O374 1.231 . S
O381 Zn363 1.953 . S
O381 C375 1.298 . S
O382 Zn383 1.953 . S
O382 C398 1.225 . S
Zn383 O382 1.953 . S
Zn383 O384 1.949 1_565 S
Zn383 O390 1.919 . S
Zn383 O395 1.924 . S
O384 Zn383 1.949 1_545 S
O384 Zn385 1.923 . S
O384 Zn386 1.950 . S
O384 Zn387 1.945 . S
Zn385 O384 1.923 . S
Zn385 O388 1.933 . S
Zn385 O391 1.941 . S
Zn385 O392 1.965 . S
Zn386 O384 1.950 . S
Zn386 O393 1.938 . S
Zn386 O394 1.906 . S
Zn386 O404 1.953 1_545 S
Zn387 O384 1.945 . S
Zn387 O389 1.932 . S
Zn387 O396 1.977 . S
Zn387 O397 1.910 . S
O388 Zn385 1.933 . S
O388 C399 1.226 . S
O389 Zn387 1.932 . S
O389 C399 1.307 . S
O390 Zn383 1.919 . S
O390 C401 1.253 . S
O391 Zn385 1.941 . S
O391 C401 1.283 1_545 S
O392 Zn385 1.965 . S
O392 C400 1.303 . S
O393 Zn386 1.938 . S
O393 C400 1.247 . S
O394 Zn386 1.906 . S
O394 C402 1.304 . S
O395 Zn383 1.924 . S
O395 C403 1.311 . S
O396 Zn387 1.977 . S
O396 C402 1.272 . S
O397 Zn387 1.910 . S
O397 C403 1.231 1_545 S
C398 O382 1.225 . S
C398 O404 1.298 . S
C399 O388 1.226 . S
C399 O389 1.307 . S
C400 O392 1.303 . S
C400 O393 1.247 . S
C401 O390 1.253 . S
C401 O391 1.283 1_565 S
C402 O394 1.304 . S
C402 O396 1.272 . S
C403 O395 1.311 . S
C403 O397 1.231 1_565 S
O404 Zn386 1.953 1_565 S
O404 C398 1.298 . S
O405 Zn406 1.953 . S
O405 C421 1.225 . S
Zn406 O405 1.953 . S
Zn406 O407 1.949 . S
Zn406 O413 1.919 . S
Zn406 O418 1.924 . S
O407 Zn406 1.949 . S
O407 Zn408 1.923 . S
O407 Zn409 1.950 . S
O407 Zn410 1.945 . S
Zn408 O407 1.923 . S
Zn408 O411 1.933 . S
Zn408 O414 1.941 . S
Zn408 O415 1.965 . S
Zn409 O407 1.950 . S
Zn409 O416 1.938 . S
Zn409 O417 1.906 . S
Zn409 O427 1.953 . S
Zn410 O407 1.945 . S
Zn410 O412 1.932 . S
Zn410 O419 1.977 . S
Zn410 O420 1.910 . S
O411 Zn408 1.933 . S
O411 C422 1.226 . S
O412 Zn410 1.932 . S
O412 C422 1.307 . S
O413 Zn406 1.919 . S
O413 C424 1.253 . S
O414 Zn408 1.941 . S
O414 C424 1.283 . S
O415 Zn408 1.965 . S
O415 C423 1.303 . S
O416 Zn409 1.938 . S
O416 C423 1.247 . S
O417 Zn409 1.906 . S
O417 C425 1.304 . S
O418 Zn406 1.924 . S
O418 C426 1.311 . S
O419 Zn410 1.977 . S
O419 C425 1.272 . S
O420 Zn410 1.910 . S
O420 C426 1.231 . S
C421 O405 1.225 . S
C421 O427 1.298 . S
C422 O411 1.226 . S
C422 O412 1.307 . S
C423 O415 1.303 . S
C423 O416 1.247 . S
C424 O413 1.253 . S
C424 O414 1.283 . S
C425 O417 1.304 . S
C425 O419 1.272 . S
C426 O418 1.311 . S
C426 O420 1.231 . S
O427 Zn409 1.953 . S
O427 C421 1.298 . S
O428 Zn429 1.953 1_455 S
O428 C444 1.225 . S
Zn429 O428 1.953 1_655 S
Zn429 O430 1.949 1_655 S
Zn429 O436 1.919 1_545 S
Zn429 O441 1.924 . S
O430 Zn429 1.949 1_455 S
O430 Zn431 1.923 1_545 S
O430 Zn432 1.950 . S
O430 Zn433 1.945 1_455 S
Zn431 O430 1.923 1_565 S
Zn431 O434 1.933 . S
Zn431 O437 1.941 . S
Zn431 O438 1.965 . S
Zn432 O430 1.950 . S
Zn432 O439 1.938 . S
Zn432 O440 1.906 . S
Zn432 O450 1.953 . S
Zn433 O430 1.945 1_655 S
Zn433 O435 1.932 . S
Zn433 O442 1.977 . S
Zn433 O443 1.910 . S
O434 Zn431 1.933 . S
O434 C445 1.226 1_455 S
O435 Zn433 1.932 . S
O435 C445 1.307 1_545 S
O436 Zn429 1.919 1_565 S
O436 C447 1.253 . S
O437 Zn431 1.941 . S
O437 C447 1.283 1_455 S
O438 Zn431 1.965 . S
O438 C446 1.303 . S
O439 Zn432 1.938 . S
O439 C446 1.247 1_545 S
O440 Zn432 1.906 . S
O440 C448 1.304 . S
O441 Zn429 1.924 . S
O441 C449 1.311 . S
O442 Zn433 1.977 . S
O442 C448 1.272 1_655 S
O443 Zn433 1.910 . S
O443 C449 1.231 . S
C444 O428 1.225 . S
C444 O450 1.298 . S
C445 O434 1.226 1_655 S
C445 O435 1.307 1_565 S
C446 O438 1.303 . S
C446 O439 1.247 1_565 S
C447 O436 1.253 . S
C447 O437 1.283 1_655 S
C448 O440 1.304 . S
C448 O442 1.272 1_455 S
C449 O441 1.311 . S
C449 O443 1.231 . S
O450 Zn432 1.953 . S
O450 C444 1.298 . S
O451 Zn452 1.953 . S
O451 C467 1.225 . S
Zn452 O451 1.953 . S
Zn452 O453 1.949 . S
Zn452 O459 1.919 . S
Zn452 O464 1.924 . S
O453 Zn452 1.949 . S
O453 Zn454 1.923 . S
O453 Zn455 1.950 . S
O453 Zn456 1.945 . S
Zn454 O453 1.923 . S
Zn454 O457 1.933 . S
Zn454 O460 1.941 . S
Zn454 O461 1.965 . S
Zn455 O453 1.950 . S
Zn455 O462 1.938 . S
Zn455 O463 1.906 . S
Zn455 O473 1.953 . S
Zn456 O453 1.945 . S
Zn456 O458 1.932 . S
Zn456 O465 1.977 . S
Zn456 O466 1.910 . S
O457 Zn454 1.933 . S
O457 C468 1.226 . S
O458 Zn456 1.932 . S
O458 C468 1.307 . S
O459 Zn452 1.919 . S
O459 C470 1.253 . S
O460 Zn454 1.941 . S
O460 C470 1.283 . S
O461 Zn454 1.965 . S
O461 C469 1.303 . S
O462 Zn455 1.938 . S
O462 C469 1.247 . S
O463 Zn455 1.906 . S
O463 C471 1.304 . S
O464 Zn452 1.924 . S
O464 C472 1.311 . S
O465 Zn456 1.977 . S
O465 C471 1.272 . S
O466 Zn456 1.910 . S
O466 C472 1.231 . S
C467 O451 1.225 . S
C467 O473 1.298 . S
C468 O457 1.226 . S
C468 O458 1.307 . S
C469 O461 1.303 . S
C469 O462 1.247 . S
C470 O459 1.253 . S
C470 O460 1.283 . S
C471 O463 1.304 . S
C471 O465 1.272 . S
C472 O464 1.311 . S
C472 O466 1.231 . S
O473 Zn455 1.953 . S
O473 C467 1.298 . S
O474 Zn475 1.953 . S
O474 C490 1.225 . S
Zn475 O474 1.953 . S
Zn475 O476 1.949 . S
Zn475 O482 1.919 1_545 S
Zn475 O487 1.924 . S
O476 Zn475 1.949 . S
O476 Zn477 1.932 1_545 S
O476 Zn478 1.950 . S
O476 Zn479 1.945 1_554 S
Zn477 O476 1.932 1_565 S
Zn477 O480 1.914 1_554 S
Zn477 O483 1.939 1_554 S
Zn477 O484 1.978 . S
Zn478 O476 1.950 . S
Zn478 O485 1.938 1_545 S
Zn478 O486 1.906 . S
Zn478 O496 1.953 . S
Zn479 O476 1.945 1_556 S
Zn479 O481 1.932 . S
Zn479 O488 1.977 1_556 S
Zn479 O489 1.910 . S
O480 Zn477 1.914 1_556 S
O480 C491 1.226 . S
O481 Zn479 1.932 . S
O481 C491 1.307 1_545 S
O482 Zn475 1.919 1_565 S
O482 C493 1.253 1_554 S
O483 Zn477 1.939 1_556 S
O483 C493 1.283 . S
O484 Zn477 1.978 . S
O484 C492 1.303 . S
O485 Zn478 1.938 1_565 S
O485 C492 1.247 . S
O486 Zn478 1.906 . S
O486 C494 1.304 . S
O487 Zn475 1.924 . S
O487 C495 1.311 . S
O488 Zn479 1.977 1_554 S
O488 C494 1.272 . S
O489 Zn479 1.910 . S
O489 C495 1.231 1_556 S
C490 O474 1.225 . S
C490 O496 1.298 . S
C491 O480 1.226 . S
C491 O481 1.307 1_565 S
C492 O484 1.303 . S
C492 O485 1.247 . S
C493 O482 1.253 1_556 S
C493 O483 1.283 . S
C494 O486 1.304 . S
C494 O488 1.272 . S
C495 O487 1.311 . S
C495 O489 1.231 1_554 S
O496 Zn478 1.953 . S
O496 C490 1.298 . S
O497 Zn498 1.953 . S
O497 C513 1.225 . S
Zn498 O497 1.953 . S
Zn498 O499 1.949 . S
Zn498 O505 1.919 . S
Zn498 O510 1.924 . S
O499 Zn498 1.949 . S
O499 Zn500 1.923 . S
O499 Zn501 1.950 . S
O499 Zn502 1.945 . S
Zn500 O499 1.923 . S
Zn500 O503 1.933 . S
Zn500 O506 1.941 . S
Zn500 O507 1.965 . S
Zn501 O499 1.950 . S
Zn501 O508 1.938 . S
Zn501 O509 1.906 . S
Zn501 O519 1.953 . S
Zn502 O499 1.945 . S
Zn502 O504 1.932 . S
Zn502 O511 1.977 . S
Zn502 O512 1.910 . S
O503 Zn500 1.933 . S
O503 C514 1.226 . S
O504 Zn502 1.932 . S
O504 C514 1.307 . S
O505 Zn498 1.919 . S
O505 C516 1.253 . S
O506 Zn500 1.941 . S
O506 C516 1.283 . S
O507 Zn500 1.965 . S
O507 C515 1.303 . S
O508 Zn501 1.938 . S
O508 C515 1.247 . S
O509 Zn501 1.906 . S
O509 C517 1.304 . S
O510 Zn498 1.924 . S
O510 C518 1.311 . S
O511 Zn502 1.977 . S
O511 C517 1.272 . S
O512 Zn502 1.910 . S
O512 C518 1.231 . S
C513 O497 1.225 . S
C513 O519 1.298 . S
C514 O503 1.226 . S
C514 O504 1.307 . S
C515 O507 1.303 . S
C515 O508 1.247 . S
C516 O505 1.253 . S
C516 O506 1.283 . S
C517 O509 1.304 . S
C517 O511 1.272 . S
C518 O510 1.311 . S
C518 O512 1.231 . S
O519 Zn501 1.953 . S
O519 C513 1.298 . S
O520 Zn521 1.953 . S
O520 C536 1.225 . S
Zn521 O520 1.953 . S
Zn521 O522 1.949 1_556 S
Zn521 O528 1.919 . S
Zn521 O533 1.924 . S
O522 Zn521 1.949 1_554 S
O522 Zn523 1.923 . S
O522 Zn524 1.950 . S
O522 Zn525 1.945 . S
Zn523 O522 1.923 . S
Zn523 O526 1.933 . S
Zn523 O529 1.941 . S
Zn523 O530 1.965 . S
Zn524 O522 1.950 . S
Zn524 O531 1.938 . S
Zn524 O532 1.906 . S
Zn524 O542 1.953 1_554 S
Zn525 O522 1.945 . S
Zn525 O527 1.932 . S
Zn525 O534 1.977 . S
Zn525 O535 1.910 . S
O526 Zn523 1.933 . S
O526 C537 1.226 . S
O527 Zn525 1.932 . S
O527 C537 1.307 . S
O528 Zn521 1.919 . S
O528 C539 1.253 1_556 S
O529 Zn523 1.941 . S
O529 C539 1.283 . S
O530 Zn523 1.965 . S
O530 C538 1.303 . S
O531 Zn524 1.938 . S
O531 C538 1.247 . S
O532 Zn524 1.906 . S
O532 C540 1.304 . S
O533 Zn521 1.924 . S
O533 C541 1.311 . S
O534 Zn525 1.977 . S
O534 C540 1.272 . S
O535 Zn525 1.910 . S
O535 C541 1.231 1_554 S
C536 O520 1.225 . S
C536 O542 1.298 . S
C537 O526 1.226 . S
C537 O527 1.307 . S
C538 O530 1.303 . S
C538 O531 1.247 . S
C539 O528 1.253 1_554 S
C539 O529 1.283 . S
C540 O532 1.304 . S
C540 O534 1.272 . S
C541 O533 1.311 . S
C541 O535 1.231 1_556 S
O542 Zn524 1.953 1_556 S
O542 C536 1.298 . S
O543 Zn544 1.953 . S
O543 C559 1.225 . S
Zn544 O543 1.953 . S
Zn544 O545 1.949 . S
Zn544 O551 1.919 . S
Zn544 O556 1.924 . S
O545 Zn544 1.949 . S
O545 Zn546 1.923 . S
O545 Zn547 1.950 . S
O545 Zn548 1.945 . S
Zn546 O545 1.923 . S
Zn546 O549 1.933 . S
Zn546 O552 1.941 . S
Zn546 O553 1.965 . S
Zn547 O545 1.950 . S
Zn547 O554 1.938 . S
Zn547 O555 1.906 . S
Zn547 O565 1.953 . S
Zn548 O545 1.945 . S
Zn548 O550 1.932 . S
Zn548 O557 1.977 . S
Zn548 O558 1.910 . S
O549 Zn546 1.933 . S
O549 C560 1.226 . S
O550 Zn548 1.932 . S
O550 C560 1.307 . S
O551 Zn544 1.919 . S
O551 C562 1.253 . S
O552 Zn546 1.941 . S
O552 C562 1.283 . S
O553 Zn546 1.965 . S
O553 C561 1.303 . S
O554 Zn547 1.938 . S
O554 C561 1.247 . S
O555 Zn547 1.906 . S
O555 C563 1.304 . S
O556 Zn544 1.924 . S
O556 C564 1.311 . S
O557 Zn548 1.977 . S
O557 C563 1.272 . S
O558 Zn548 1.910 . S
O558 C564 1.231 . S
C559 O543 1.225 . S
C559 O565 1.298 . S
C560 O549 1.226 . S
C560 O550 1.307 . S
C561 O553 1.303 . S
C561 O554 1.247 . S
C562 O551 1.253 . S
C562 O552 1.283 . S
C563 O555 1.304 . S
C563 O557 1.272 . S
C564 O556 1.311 . S
C564 O558 1.231 . S
O565 Zn547 1.953 . S
O565 C559 1.298 . S
O566 Zn567 1.953 . S
O566 C582 1.225 . S
Zn567 O566 1.953 . S
Zn567 O568 1.958 . S
Zn567 O574 1.919 . S
Zn567 O579 1.924 . S
O568 Zn567 1.958 . S
O568 Zn569 1.923 . S
O568 Zn570 1.945 1_455 S
O568 Zn571 1.940 1_455 S
Zn569 O568 1.923 . S
Zn569 O572 1.933 1_455 S
Zn569 O575 1.941 . S
Zn569 O576 1.965 1_455 S
Zn570 O568 1.945 1_655 S
Zn570 O577 1.938 . S
Zn570 O578 1.906 . S
Zn570 O588 1.931 1_655 S
Zn571 O568 1.940 1_655 S
Zn571 O573 1.932 . S
Zn571 O580 1.977 . S
Zn571 O581 1.894 1_655 S
O572 Zn569 1.933 1_655 S
O572 C583 1.226 . S
O573 Zn571 1.932 . S
O573 C583 1.307 . S
O574 Zn567 1.919 . S
O574 C585 1.253 . S
O575 Zn569 1.941 . S
O575 C585 1.283 . S
O576 Zn569 1.965 1_655 S
O576 C584 1.303 . S
O577 Zn570 1.938 . S
O577 C584 1.247 . S
O578 Zn570 1.906 . S
O578 C586 1.304 . S
O579 Zn567 1.924 . S
O579 C587 1.311 . S
O580 Zn571 1.977 . S
O580 C586 1.272 . S
O581 Zn571 1.894 1_455 S
O581 C587 1.263 . S
C582 O566 1.225 . S
C582 O588 1.341 . S
C583 O572 1.226 . S
C583 O573 1.307 . S
C584 O576 1.303 . S
C584 O577 1.247 . S
C585 O574 1.253 . S
C585 O575 1.283 . S
C586 O578 1.304 . S
C586 O580 1.272 . S
C587 O579 1.311 . S
C587 O581 1.263 . S
O588 Zn570 1.931 1_455 S
O588 C582 1.341 . S
O589 Zn590 1.953 . S
O589 C605 1.225 . S
Zn590 O589 1.953 . S
Zn590 O591 1.949 . S
Zn590 O597 1.919 . S
Zn590 O602 1.924 . S
O591 Zn590 1.949 . S
O591 Zn592 1.923 . S
O591 Zn593 1.950 . S
O591 Zn594 1.945 . S
Zn592 O591 1.923 . S
Zn592 O595 1.933 . S
Zn592 O598 1.941 . S
Zn592 O599 1.965 . S
Zn593 O591 1.950 . S
Zn593 O600 1.938 . S
Zn593 O601 1.906 . S
Zn593 O611 1.953 . S
Zn594 O591 1.945 . S
Zn594 O596 1.932 . S
Zn594 O603 1.977 . S
Zn594 O604 1.910 . S
O595 Zn592 1.933 . S
O595 C606 1.226 . S
O596 Zn594 1.932 . S
O596 C606 1.307 . S
O597 Zn590 1.919 . S
O597 C608 1.253 . S
O598 Zn592 1.941 . S
O598 C608 1.283 . S
O599 Zn592 1.965 . S
O599 C607 1.303 . S
O600 Zn593 1.938 . S
O600 C607 1.247 . S
O601 Zn593 1.906 . S
O601 C609 1.304 . S
O602 Zn590 1.924 . S
O602 C610 1.311 . S
O603 Zn594 1.977 . S
O603 C609 1.272 . S
O604 Zn594 1.910 . S
O604 C610 1.231 . S
C605 O589 1.225 . S
C605 O611 1.298 . S
C606 O595 1.226 . S
C606 O596 1.307 . S
C607 O599 1.303 . S
C607 O600 1.247 . S
C608 O597 1.253 . S
C608 O598 1.283 . S
C609 O601 1.304 . S
C609 O603 1.272 . S
C610 O602 1.311 . S
C610 O604 1.231 . S
O611 Zn593 1.953 . S
O611 C605 1.298 . S
O612 Zn613 1.953 . S
O612 C628 1.225 . S
Zn613 O612 1.953 . S
Zn613 O614 1.949 . S
Zn613 O620 1.919 . S
Zn613 O625 1.924 . S
O614 Zn613 1.949 . S
O614 Zn615 1.923 . S
O614 Zn616 1.950 . S
O614 Zn617 1.945 . S
Zn615 O614 1.923 . S
Zn615 O618 1.933 . S
Zn615 O621 1.941 . S
Zn615 O622 1.965 . S
Zn616 O614 1.950 . S
Zn616 O623 1.938 . S
Zn616 O624 1.906 . S
Zn616 O634 1.953 . S
Zn617 O614 1.945 . S
Zn617 O619 1.932 . S
Zn617 O626 1.977 . S
Zn617 O627 1.910 . S
O618 Zn615 1.933 . S
O618 C629 1.226 . S
O619 Zn617 1.932 . S
O619 C629 1.307 . S
O620 Zn613 1.919 . S
O620 C631 1.253 . S
O621 Zn615 1.941 . S
O621 C631 1.283 . S
O622 Zn615 1.965 . S
O622 C630 1.303 . S
O623 Zn616 1.938 . S
O623 C630 1.247 . S
O624 Zn616 1.906 . S
O624 C632 1.304 . S
O625 Zn613 1.924 . S
O625 C633 1.311 . S
O626 Zn617 1.977 . S
O626 C632 1.272 . S
O627 Zn617 1.910 . S
O627 C633 1.231 . S
C628 O612 1.225 . S
C628 O634 1.298 . S
C629 O618 1.226 . S
C629 O619 1.307 . S
C630 O622 1.303 . S
C630 O623 1.247 . S
C631 O620 1.253 . S
C631 O621 1.283 . S
C632 O624 1.304 . S
C632 O626 1.272 . S
C633 O625 1.311 . S
C633 O627 1.231 . S
O634 Zn616 1.953 . S
O634 C628 1.298 . S
O635 Zn636 1.953 . S
O635 C651 1.225 . S
Zn636 O635 1.953 . S
Zn636 O637 1.949 . S
Zn636 O643 1.919 . S
Zn636 O648 1.924 . S
O637 Zn636 1.949 . S
O637 Zn638 1.923 . S
O637 Zn639 1.950 . S
O637 Zn640 1.945 . S
Zn638 O637 1.923 . S
Zn638 O641 1.933 . S
Zn638 O644 1.941 . S
Zn638 O645 1.965 . S
Zn639 O637 1.950 . S
Zn639 O646 1.938 . S
Zn639 O647 1.906 . S
Zn639 O657 1.953 . S
Zn640 O637 1.945 . S
Zn640 O642 1.932 . S
Zn640 O649 1.977 . S
Zn640 O650 1.910 . S
O641 Zn638 1.933 . S
O641 C652 1.226 . S
O642 Zn640 1.932 . S
O642 C652 1.307 . S
O643 Zn636 1.919 . S
O643 C654 1.253 . S
O644 Zn638 1.941 . S
O644 C654 1.283 . S
O645 Zn638 1.965 . S
O645 C653 1.303 . S
O646 Zn639 1.938 . S
O646 C653 1.247 . S
O647 Zn639 1.906 . S
O647 C655 1.304 . S
O648 Zn636 1.924 . S
O648 C656 1.311 . S
O649 Zn640 1.977 . S
O649 C655 1.272 . S
O650 Zn640 1.910 . S
O650 C656 1.231 . S
C651 O635 1.225 . S
C651 O657 1.298 . S
C652 O641 1.226 . S
C652 O642 1.307 . S
C653 O645 1.303 . S
C653 O646 1.247 . S
C654 O643 1.253 . S
C654 O644 1.283 . S
C655 O647 1.304 . S
C655 O649 1.272 . S
C656 O648 1.311 . S
C656 O650 1.231 . S
O657 Zn639 1.953 . S
O657 C651 1.298 . S
O658 Zn659 1.953 . S
O658 C674 1.225 . S
Zn659 O658 1.953 . S
Zn659 O660 1.949 . S
Zn659 O666 1.919 . S
Zn659 O671 1.924 . S
O660 Zn659 1.949 . S
O660 Zn661 1.923 . S
O660 Zn662 1.950 . S
O660 Zn663 1.945 . S
Zn661 O660 1.923 . S
Zn661 O664 1.933 . S
Zn661 O667 1.941 . S
Zn661 O668 1.965 . S
Zn662 O660 1.950 . S
Zn662 O669 1.938 . S
Zn662 O670 1.906 . S
Zn662 O680 1.953 . S
Zn663 O660 1.945 . S
Zn663 O665 1.932 . S
Zn663 O672 1.977 . S
Zn663 O673 1.910 . S
O664 Zn661 1.933 . S
O664 C675 1.226 . S
O665 Zn663 1.932 . S
O665 C675 1.307 . S
O666 Zn659 1.919 . S
O666 C677 1.253 . S
O667 Zn661 1.941 . S
O667 C677 1.283 . S
O668 Zn661 1.965 . S
O668 C676 1.303 . S
O669 Zn662 1.938 . S
O669 C676 1.247 . S
O670 Zn662 1.906 . S
O670 C678 1.304 . S
O671 Zn659 1.924 . S
O671 C679 1.311 . S
O672 Zn663 1.977 . S
O672 C678 1.272 . S
O673 Zn663 1.910 . S
O673 C679 1.231 . S
C674 O658 1.225 . S
C674 O680 1.298 . S
C675 O664 1.226 . S
C675 O665 1.307 . S
C676 O668 1.303 . S
C676 O669 1.247 . S
C677 O666 1.253 . S
C677 O667 1.283 . S
C678 O670 1.304 . S
C678 O672 1.272 . S
C679 O671 1.311 . S
C679 O673 1.231 . S
O680 Zn662 1.953 . S
O680 C674 1.298 . S
O681 Zn682 1.953 1_455 S
O681 C697 1.225 . S
Zn682 O681 1.953 1_655 S
Zn682 O683 1.949 1_655 S
Zn682 O689 1.919 1_554 S
Zn682 O694 1.924 1_654 S
O683 Zn682 1.949 1_455 S
O683 Zn684 1.923 1_455 S
O683 Zn685 1.950 . S
O683 Zn686 1.945 1_554 S
Zn684 O683 1.923 1_655 S
Zn684 O687 1.933 . S
Zn684 O690 1.941 . S
Zn684 O691 1.965 . S
Zn685 O683 1.950 . S
Zn685 O692 1.938 . S
Zn685 O693 1.906 . S
Zn685 O703 1.953 . S
Zn686 O683 1.945 1_556 S
Zn686 O688 1.932 . S
Zn686 O695 1.977 1_556 S
Zn686 O696 1.910 . S
O687 Zn684 1.933 . S
O687 C698 1.226 1_554 S
O688 Zn686 1.932 . S
O688 C698 1.307 1_455 S
O689 Zn682 1.919 1_556 S
O689 C700 1.253 1_556 S
O690 Zn684 1.941 . S
O690 C700 1.283 . S
O691 Zn684 1.965 . S
O691 C699 1.303 . S
O692 Zn685 1.938 . S
O692 C699 1.247 1_455 S
O693 Zn685 1.906 . S
O693 C701 1.304 . S
O694 Zn682 1.924 1_456 S
O694 C702 1.311 . S
O695 Zn686 1.977 1_554 S
O695 C701 1.272 . S
O696 Zn686 1.910 . S
O696 C702 1.231 . S
C697 O681 1.225 . S
C697 O703 1.298 . S
C698 O687 1.226 1_556 S
C698 O688 1.307 1_655 S
C699 O691 1.303 . S
C699 O692 1.247 1_655 S
C700 O689 1.253 1_554 S
C700 O690 1.283 . S
C701 O693 1.304 . S
C701 O695 1.272 . S
C702 O694 1.311 . S
C702 O696 1.231 . S
O703 Zn685 1.953 . S
O703 C697 1.298 . S
H704 C710 0.930 . S
H705 C714 0.930 . S
H706 C719 0.929 . S
H707 C717 0.929 . S
H708 C712 0.929 . S
H709 C718 0.929 . S
C710 H704 0.930 . S
C710 C711 1.367 1_655 S
C710 C718 1.378 . S
C711 C710 1.367 1_455 S
C711 C719 1.433 . S
C712 H708 0.929 . S
C712 C714 1.378 . S
C712 C716 1.350 1_455 S
C713 C716 1.463 . S
C713 C718 1.350 . S
C713 N721 1.427 1_655 S
C714 H705 0.930 . S
C714 C712 1.378 . S
C714 C715 1.367 1_455 S
C715 C714 1.367 1_655 S
C715 C717 1.433 . S
C716 C712 1.350 1_655 S
C716 C713 1.463 . S
C716 N720 1.427 . S
C717 H707 0.929 . S
C717 C715 1.433 . S
C717 N720 1.384 . S
C718 H709 0.929 . S
C718 C710 1.378 . S
C718 C713 1.350 . S
C719 H706 0.929 . S
C719 C711 1.433 . S
C719 N721 1.384 . S
N720 C716 1.427 . S
N720 C717 1.384 . S
N721 C713 1.427 1_455 S
N721 C719 1.384 . S
H722 C728 0.930 . S
H723 C732 0.930 . S
H724 C737 0.929 . S
H725 C735 0.929 . S
H726 C730 0.929 . S
H727 C736 0.929 . S
C728 H722 0.930 . S
C728 C729 1.367 . S
C728 C736 1.378 . S
C729 C728 1.367 . S
C729 C737 1.433 . S
C730 H726 0.929 . S
C730 C732 1.378 . S
C730 C734 1.350 . S
C731 C734 1.463 . S
C731 C736 1.350 . S
C731 N739 1.427 . S
C732 H723 0.930 . S
C732 C730 1.378 . S
C732 C733 1.367 . S
C733 C732 1.367 . S
C733 C735 1.433 . S
C734 C730 1.350 . S
C734 C731 1.463 . S
C734 N738 1.427 . S
C735 H725 0.929 . S
C735 C733 1.433 . S
C735 N738 1.384 . S
C736 H727 0.929 . S
C736 C728 1.378 . S
C736 C731 1.350 . S
C737 H724 0.929 . S
C737 C729 1.433 . S
C737 N739 1.384 . S
N738 C734 1.427 . S
N738 C735 1.384 . S
N739 C731 1.427 . S
N739 C737 1.384 . S
H740 C746 0.930 . S
H741 C750 0.930 . S
H742 C755 0.929 . S
H743 C753 0.929 . S
H744 C748 0.929 . S
H745 C754 0.929 . S
C746 H740 0.930 . S
C746 C747 1.367 . S
C746 C754 1.378 . S
C747 C746 1.367 . S
C747 C755 1.433 . S
C748 H744 0.929 . S
C748 C750 1.378 . S
C748 C752 1.350 . S
C749 C752 1.463 . S
C749 C754 1.350 . S
C749 N757 1.427 . S
C750 H741 0.930 . S
C750 C748 1.378 . S
C750 C751 1.367 . S
C751 C750 1.367 . S
C751 C753 1.433 . S
C752 C748 1.350 . S
C752 C749 1.463 . S
C752 N756 1.427 . S
C753 H743 0.929 . S
C753 C751 1.433 . S
C753 N756 1.384 . S
C754 H745 0.929 . S
C754 C746 1.378 . S
C754 C749 1.350 . S
C755 H742 0.929 . S
C755 C747 1.433 . S
C755 N757 1.384 . S
N756 C752 1.427 . S
N756 C753 1.384 . S
N757 C749 1.427 . S
N757 C755 1.384 . S
H758 C764 0.930 . S
H759 C768 0.930 . S
H760 C773 0.929 . S
H761 C771 0.929 . S
H762 C766 0.929 . S
H763 C772 0.929 . S
C764 H758 0.930 . S
C764 C765 1.367 . S
C764 C772 1.378 . S
C765 C764 1.367 . S
C765 C773 1.433 . S
C766 H762 0.929 . S
C766 C768 1.378 . S
C766 C770 1.350 . S
C767 C770 1.463 . S
C767 C772 1.350 . S
C767 N775 1.427 . S
C768 H759 0.930 . S
C768 C766 1.378 . S
C768 C769 1.367 . S
C769 C768 1.367 . S
C769 C771 1.433 . S
C770 C766 1.350 . S
C770 C767 1.463 . S
C770 N774 1.427 . S
C771 H761 0.929 . S
C771 C769 1.433 . S
C771 N774 1.384 . S
C772 H763 0.929 . S
C772 C764 1.378 . S
C772 C767 1.350 . S
C773 H760 0.929 . S
C773 C765 1.433 . S
C773 N775 1.384 . S
N774 C770 1.427 . S
N774 C771 1.384 . S
N775 C767 1.427 . S
N775 C773 1.384 . S
H776 C782 0.930 . S
H777 C786 0.930 . S
H778 C791 0.929 . S
H779 C789 0.929 . S
H780 C784 0.929 . S
H781 C790 0.929 . S
C782 H776 0.930 . S
C782 C783 1.367 1_655 S
C782 C790 1.378 . S
C783 C782 1.367 1_455 S
C783 C791 1.433 . S
C784 H780 0.929 . S
C784 C786 1.378 . S
C784 C788 1.350 1_455 S
C785 C788 1.463 . S
C785 C790 1.350 . S
C785 N793 1.427 1_655 S
C786 H777 0.930 . S
C786 C784 1.378 . S
C786 C787 1.367 1_455 S
C787 C786 1.367 1_655 S
C787 C789 1.433 . S
C788 C784 1.350 1_655 S
C788 C785 1.463 . S
C788 N792 1.427 . S
C789 H779 0.929 . S
C789 C787 1.433 . S
C789 N792 1.384 . S
C790 H781 0.929 . S
C790 C782 1.378 . S
C790 C785 1.350 . S
C791 H778 0.929 . S
C791 C783 1.433 . S
C791 N793 1.384 . S
N792 C788 1.427 . S
N792 C789 1.384 . S
N793 C785 1.427 1_455 S
N793 C791 1.384 . S
H794 C800 0.930 . S
H795 C804 0.930 . S
H796 C809 0.929 . S
H797 C807 0.929 . S
H798 C802 0.929 . S
H799 C808 0.929 . S
C800 H794 0.930 . S
C800 C801 1.367 . S
C800 C808 1.378 . S
C801 C800 1.367 . S
C801 C809 1.433 . S
C802 H798 0.929 . S
C802 C804 1.378 . S
C802 C806 1.350 . S
C803 C806 1.463 . S
C803 C808 1.350 . S
C803 N811 1.427 . S
C804 H795 0.930 . S
C804 C802 1.378 . S
C804 C805 1.367 . S
C805 C804 1.367 . S
C805 C807 1.433 . S
C806 C802 1.350 . S
C806 C803 1.463 . S
C806 N810 1.427 . S
C807 H797 0.929 . S
C807 C805 1.433 . S
C807 N810 1.384 . S
C808 H799 0.929 . S
C808 C800 1.378 . S
C808 C803 1.350 . S
C809 H796 0.929 . S
C809 C801 1.433 . S
C809 N811 1.384 . S
N810 C806 1.427 . S
N810 C807 1.384 . S
N811 C803 1.427 . S
N811 C809 1.384 . S
H812 C818 0.930 . S
H813 C822 0.930 . S
H814 C827 0.929 . S
H815 C825 0.929 . S
H816 C820 0.929 . S
H817 C826 0.929 . S
C818 H812 0.930 . S
C818 C819 1.367 . S
C818 C826 1.378 . S
C819 C818 1.367 . S
C819 C827 1.433 . S
C820 H816 0.929 . S
C820 C822 1.378 1_556 S
C820 C824 1.350 . S
C821 C824 1.463 . S
C821 C826 1.350 . S
C821 N829 1.427 . S
C822 H813 0.930 . S
C822 C820 1.378 1_554 S
C822 C823 1.367 1_554 S
C823 C822 1.367 1_556 S
C823 C825 1.433 . S
C824 C820 1.350 . S
C824 C821 1.463 . S
C824 N828 1.427 . S
C825 H815 0.929 . S
C825 C823 1.433 . S
C825 N828 1.384 . S
C826 H817 0.929 . S
C826 C818 1.378 . S
C826 C821 1.350 . S
C827 H814 0.929 . S
C827 C819 1.433 . S
C827 N829 1.384 . S
N828 C824 1.427 . S
N828 C825 1.384 . S
N829 C821 1.427 . S
N829 C827 1.384 . S
H830 C836 0.930 . S
H831 C840 0.930 . S
H832 C845 0.929 . S
H833 C843 0.929 . S
H834 C838 0.929 . S
H835 C844 0.929 . S
C836 H830 0.930 . S
C836 C837 1.367 . S
C836 C844 1.378 . S
C837 C836 1.367 . S
C837 C845 1.433 . S
C838 H834 0.929 . S
C838 C840 1.378 . S
C838 C842 1.350 . S
C839 C842 1.463 . S
C839 C844 1.350 . S
C839 N847 1.427 . S
C840 H831 0.930 . S
C840 C838 1.378 . S
C840 C841 1.367 . S
C841 C840 1.367 . S
C841 C843 1.433 . S
C842 C838 1.350 . S
C842 C839 1.463 . S
C842 N846 1.427 . S
C843 H833 0.929 . S
C843 C841 1.433 . S
C843 N846 1.384 . S
C844 H835 0.929 . S
C844 C836 1.378 . S
C844 C839 1.350 . S
C845 H832 0.929 . S
C845 C837 1.433 . S
C845 N847 1.384 . S
N846 C842 1.427 . S
N846 C843 1.384 . S
N847 C839 1.427 . S
N847 C845 1.384 . S
H848 C854 0.930 . S
H849 C858 0.930 . S
H850 C863 0.929 . S
H851 C861 0.929 . S
H852 C856 0.929 . S
H853 C862 0.929 . S
C854 H848 0.930 . S
C854 C855 1.367 1_565 S
C854 C862 1.378 . S
C855 C854 1.367 1_545 S
C855 C863 1.433 . S
C856 H852 0.929 . S
C856 C858 1.378 . S
C856 C860 1.350 . S
C857 C860 1.463 . S
C857 C862 1.350 1_545 S
C857 N865 1.427 . S
C858 H849 0.930 . S
C858 C856 1.378 . S
C858 C859 1.367 . S
C859 C858 1.367 . S
C859 C861 1.433 1_545 S
C860 C856 1.350 . S
C860 C857 1.463 . S
C860 N864 1.427 1_545 S
C861 H851 0.929 . S
C861 C859 1.433 1_565 S
C861 N864 1.384 . S
C862 H853 0.929 . S
C862 C854 1.378 . S
C862 C857 1.350 1_565 S
C863 H850 0.929 . S
C863 C855 1.433 . S
C863 N865 1.384 . S
N864 C860 1.427 1_565 S
N864 C861 1.384 . S
N865 C857 1.427 . S
N865 C863 1.384 . S
H866 C872 0.930 . S
H867 C876 0.930 . S
H868 C881 0.929 . S
H869 C879 0.929 . S
H870 C874 0.929 . S
H871 C880 0.929 . S
C872 H866 0.930 . S
C872 C873 1.367 . S
C872 C880 1.378 . S
C873 C872 1.367 . S
C873 C881 1.433 . S
C874 H870 0.929 . S
C874 C876 1.378 . S
C874 C878 1.350 . S
C875 C878 1.463 . S
C875 C880 1.350 . S
C875 N883 1.427 . S
C876 H867 0.930 . S
C876 C874 1.378 . S
C876 C877 1.367 . S
C877 C876 1.367 . S
C877 C879 1.433 . S
C878 C874 1.350 . S
C878 C875 1.463 . S
C878 N882 1.427 . S
C879 H869 0.929 . S
C879 C877 1.433 . S
C879 N882 1.384 . S
C880 H871 0.929 . S
C880 C872 1.378 . S
C880 C875 1.350 . S
C881 H868 0.929 . S
C881 C873 1.433 . S
C881 N883 1.384 . S
N882 C878 1.427 . S
N882 C879 1.384 . S
N883 C875 1.427 . S
N883 C881 1.384 . S
H884 C890 0.928 1_565 S
H885 C894 0.930 . S
H886 C899 0.929 . S
H887 C897 0.929 . S
H888 C892 0.929 . S
H889 C898 0.929 . S
C890 H884 0.928 1_545 S
C890 C891 1.367 . S
C890 C898 1.378 . S
C891 C890 1.367 . S
C891 C899 1.433 . S
C892 H888 0.929 . S
C892 C894 1.378 . S
C892 C896 1.350 . S
C893 C896 1.463 . S
C893 C898 1.350 . S
C893 N901 1.427 . S
C894 H885 0.930 . S
C894 C892 1.378 . S
C894 C895 1.367 . S
C895 C894 1.367 . S
C895 C897 1.433 . S
C896 C892 1.350 . S
C896 C893 1.463 . S
C896 N900 1.427 . S
C897 H887 0.929 . S
C897 C895 1.433 . S
C897 N900 1.384 . S
C898 H889 0.929 . S
C898 C890 1.378 . S
C898 C893 1.350 . S
C899 H886 0.929 . S
C899 C891 1.433 . S
C899 N901 1.384 . S
N900 C896 1.427 . S
N900 C897 1.384 . S
N901 C893 1.427 . S
N901 C899 1.384 . S
H902 C908 0.930 . S
H903 C912 0.930 . S
H904 C917 0.929 . S
H905 C915 0.929 . S
H906 C910 0.929 . S
H907 C916 0.929 . S
C908 H902 0.930 . S
C908 C909 1.367 . S
C908 C916 1.378 . S
C909 C908 1.367 . S
C909 C917 1.433 . S
C910 H906 0.929 . S
C910 C912 1.378 . S
C910 C914 1.350 . S
C911 C914 1.463 . S
C911 C916 1.350 . S
C911 N919 1.427 . S
C912 H903 0.930 . S
C912 C910 1.378 . S
C912 C913 1.367 . S
C913 C912 1.367 . S
C913 C915 1.433 . S
C914 C910 1.350 . S
C914 C911 1.463 . S
C914 N918 1.427 . S
C915 H905 0.929 . S
C915 C913 1.433 . S
C915 N918 1.384 . S
C916 H907 0.929 . S
C916 C908 1.378 . S
C916 C911 1.350 . S
C917 H904 0.929 . S
C917 C909 1.433 . S
C917 N919 1.384 . S
N918 C914 1.427 . S
N918 C915 1.384 . S
N919 C911 1.427 . S
N919 C917 1.384 . S
H920 C926 0.930 . S
H921 C930 0.930 1_565 S
H922 C935 0.930 1_565 S
H923 C933 0.929 . S
H924 C928 0.929 1_565 S
H925 C934 0.929 . S
C926 H920 0.930 . S
C926 C927 1.367 . S
C926 C934 1.378 . S
C927 C926 1.367 . S
C927 C935 1.433 . S
C928 H924 0.929 1_545 S
C928 C930 1.378 . S
C928 C932 1.350 . S
C929 C932 1.463 . S
C929 C934 1.350 . S
C929 N937 1.427 . S
C930 H921 0.930 1_545 S
C930 C928 1.378 . S
C930 C931 1.367 . S
C931 C930 1.367 . S
C931 C933 1.433 . S
C932 C928 1.350 . S
C932 C929 1.463 . S
C932 N936 1.427 . S
C933 H923 0.929 . S
C933 C931 1.433 . S
C933 N936 1.384 . S
C934 H925 0.929 . S
C934 C926 1.378 . S
C934 C929 1.350 . S
C935 H922 0.930 1_545 S
C935 C927 1.433 . S
C935 N937 1.384 . S
N936 C932 1.427 . S
N936 C933 1.384 . S
N937 C929 1.427 . S
N937 C935 1.384 . S
H938 C944 0.930 . S
H939 C948 0.930 . S
H940 C953 0.929 . S
H941 C951 0.929 . S
H942 C946 0.929 . S
H943 C952 0.929 . S
C944 H938 0.930 . S
C944 C945 1.367 . S
C944 C952 1.378 . S
C945 C944 1.367 . S
C945 C953 1.433 . S
C946 H942 0.929 . S
C946 C948 1.378 . S
C946 C950 1.350 . S
C947 C950 1.463 . S
C947 C952 1.350 . S
C947 N955 1.427 . S
C948 H939 0.930 . S
C948 C946 1.378 . S
C948 C949 1.367 . S
C949 C948 1.367 . S
C949 C951 1.433 . S
C950 C946 1.350 . S
C950 C947 1.463 . S
C950 N954 1.427 . S
C951 H941 0.929 . S
C951 C949 1.433 . S
C951 N954 1.384 . S
C952 H943 0.929 . S
C952 C944 1.378 . S
C952 C947 1.350 . S
C953 H940 0.929 . S
C953 C945 1.433 . S
C953 N955 1.384 . S
N954 C950 1.427 . S
N954 C951 1.384 . S
N955 C947 1.427 . S
N955 C953 1.384 . S
H956 C962 0.930 . S
H957 C966 0.930 . S
H958 C971 0.929 . S
H959 C969 0.929 . S
H960 C964 0.929 . S
H961 C970 0.929 . S
C962 H956 0.930 . S
C962 C963 1.346 1_545 S
C962 C970 1.378 . S
C963 C962 1.346 1_565 S
C963 C971 1.458 . S
C964 H960 0.929 . S
C964 C966 1.378 . S
C964 C968 1.350 . S
C965 C968 1.463 . S
C965 C970 1.350 1_565 S
C965 N973 1.427 . S
C966 H957 0.930 . S
C966 C964 1.378 . S
C966 C967 1.367 . S
C967 C966 1.367 . S
C967 C969 1.433 1_565 S
C968 C964 1.350 . S
C968 C965 1.463 . S
C968 N972 1.427 1_565 S
C969 H959 0.929 . S
C969 C967 1.433 1_545 S
C969 N972 1.384 . S
C970 H961 0.929 . S
C970 C962 1.378 . S
C970 C965 1.350 1_545 S
C971 H958 0.929 . S
C971 C963 1.458 . S
C971 N973 1.384 . S
N972 C968 1.427 1_545 S
N972 C969 1.384 . S
N973 C965 1.427 . S
N973 C971 1.384 . S
H974 C980 0.930 . S
H975 C984 0.930 . S
H976 C989 0.929 . S
H977 C987 0.929 . S
H978 C982 0.929 . S
H979 C988 0.929 . S
C980 H974 0.930 . S
C980 C981 1.367 . S
C980 C988 1.378 . S
C981 C980 1.367 . S
C981 C989 1.433 . S
C982 H978 0.929 . S
C982 C984 1.378 . S
C982 C986 1.350 . S
C983 C986 1.463 . S
C983 C988 1.350 . S
C983 N991 1.427 . S
C984 H975 0.930 . S
C984 C982 1.378 . S
C984 C985 1.367 . S
C985 C984 1.367 . S
C985 C987 1.433 . S
C986 C982 1.350 . S
C986 C983 1.463 . S
C986 N990 1.427 . S
C987 H977 0.929 . S
C987 C985 1.433 . S
C987 N990 1.384 . S
C988 H979 0.929 . S
C988 C980 1.378 . S
C988 C983 1.350 . S
C989 H976 0.929 . S
C989 C981 1.433 . S
C989 N991 1.384 . S
N990 C986 1.427 . S
N990 C987 1.384 . S
N991 C983 1.427 . S
N991 C989 1.384 . S
H992 C998 0.930 . S
H993 C1002 0.930 1_565 S
H994 C1007 0.929 . S
H995 C1005 0.929 . S
H996 C1000 0.929 . S
H997 C1006 0.929 1_556 S
C998 H992 0.930 . S
C998 C999 1.367 . S
C998 C1006 1.378 . S
C999 C998 1.367 . S
C999 C1007 1.433 . S
C1000 H996 0.929 . S
C1000 C1002 1.378 . S
C1000 C1004 1.350 . S
C1001 C1004 1.463 . S
C1001 C1006 1.350 . S
C1001 N1009 1.427 . S
C1002 H993 0.930 1_545 S
C1002 C1000 1.378 . S
C1002 C1003 1.367 1_554 S
C1003 C1002 1.367 1_556 S
C1003 C1005 1.433 . S
C1004 C1000 1.350 . S
C1004 C1001 1.463 . S
C1004 N1008 1.427 1_554 S
C1005 H995 0.929 . S
C1005 C1003 1.433 . S
C1005 N1008 1.384 . S
C1006 H997 0.929 1_554 S
C1006 C998 1.378 . S
C1006 C1001 1.350 . S
C1007 H994 0.929 . S
C1007 C999 1.433 . S
C1007 N1009 1.384 . S
N1008 C1004 1.427 1_556 S
N1008 C1005 1.384 . S
N1009 C1001 1.427 . S
N1009 C1007 1.384 . S
H1010 C1016 0.930 . S
H1011 C1020 0.930 . S
H1012 C1025 0.929 . S
H1013 C1023 0.929 . S
H1014 C1018 0.929 . S
H1015 C1024 0.929 . S
C1016 H1010 0.930 . S
C1016 C1017 1.367 . S
C1016 C1024 1.378 . S
C1017 C1016 1.367 . S
C1017 C1025 1.433 1_554 S
C1018 H1014 0.929 . S
C1018 C1020 1.378 . S
C1018 C1022 1.350 1_556 S
C1019 C1022 1.463 . S
C1019 C1024 1.350 . S
C1019 N1027 1.427 1_554 S
C1020 H1011 0.930 . S
C1020 C1018 1.378 . S
C1020 C1021 1.367 1_556 S
C1021 C1020 1.367 1_554 S
C1021 C1023 1.433 . S
C1022 C1018 1.350 1_554 S
C1022 C1019 1.463 . S
C1022 N1026 1.427 . S
C1023 H1013 0.929 . S
C1023 C1021 1.433 . S
C1023 N1026 1.384 . S
C1024 H1015 0.929 . S
C1024 C1016 1.378 . S
C1024 C1019 1.350 . S
C1025 H1012 0.929 . S
C1025 C1017 1.433 1_556 S
C1025 N1027 1.384 . S
N1026 C1022 1.427 . S
N1026 C1023 1.384 . S
N1027 C1019 1.427 1_556 S
N1027 C1025 1.384 . S
H1028 C1034 0.930 . S
H1029 C1038 0.930 . S
H1030 C1043 0.929 . S
H1031 C1041 0.929 . S
H1032 C1036 0.929 . S
H1033 C1042 0.929 . S
C1034 H1028 0.930 . S
C1034 C1035 1.367 . S
C1034 C1042 1.378 . S
C1035 C1034 1.367 . S
C1035 C1043 1.433 . S
C1036 H1032 0.929 . S
C1036 C1038 1.378 . S
C1036 C1040 1.350 . S
C1037 C1040 1.463 . S
C1037 C1042 1.350 . S
C1037 N1045 1.427 . S
C1038 H1029 0.930 . S
C1038 C1036 1.378 . S
C1038 C1039 1.367 . S
C1039 C1038 1.367 . S
C1039 C1041 1.433 . S
C1040 C1036 1.350 . S
C1040 C1037 1.463 . S
C1040 N1044 1.427 . S
C1041 H1031 0.929 . S
C1041 C1039 1.433 . S
C1041 N1044 1.384 . S
C1042 H1033 0.929 . S
C1042 C1034 1.378 . S
C1042 C1037 1.350 . S
C1043 H1030 0.929 . S
C1043 C1035 1.433 . S
C1043 N1045 1.384 . S
N1044 C1040 1.427 . S
N1044 C1041 1.384 . S
N1045 C1037 1.427 . S
N1045 C1043 1.384 . S
H1046 C1052 0.930 . S
H1047 C1056 0.930 . S
H1048 C1061 0.929 . S
H1049 C1059 0.929 . S
H1050 C1054 0.929 . S
H1051 C1060 0.929 . S
C1052 H1046 0.930 . S
C1052 C1053 1.367 . S
C1052 C1060 1.378 . S
C1053 C1052 1.367 . S
C1053 C1061 1.433 . S
C1054 H1050 0.929 . S
C1054 C1056 1.378 . S
C1054 C1058 1.350 . S
C1055 C1058 1.463 . S
C1055 C1060 1.350 . S
C1055 N1063 1.427 . S
C1056 H1047 0.930 . S
C1056 C1054 1.378 . S
C1056 C1057 1.367 . S
C1057 C1056 1.367 . S
C1057 C1059 1.433 . S
C1058 C1054 1.350 . S
C1058 C1055 1.463 . S
C1058 N1062 1.427 . S
C1059 H1049 0.929 . S
C1059 C1057 1.433 . S
C1059 N1062 1.384 . S
C1060 H1051 0.929 . S
C1060 C1052 1.378 . S
C1060 C1055 1.350 . S
C1061 H1048 0.929 . S
C1061 C1053 1.433 . S
C1061 N1063 1.384 . S
N1062 C1058 1.427 . S
N1062 C1059 1.384 . S
N1063 C1055 1.427 . S
N1063 C1061 1.384 . S
H1064 C1070 0.930 . S
H1065 C1074 0.930 . S
H1066 C1079 0.929 . S
H1067 C1077 0.929 . S
H1068 C1072 0.929 . S
H1069 C1078 0.929 . S
C1070 H1064 0.930 . S
C1070 C1071 1.367 . S
C1070 C1078 1.378 . S
C1071 C1070 1.367 . S
C1071 C1079 1.433 . S
C1072 H1068 0.929 . S
C1072 C1074 1.378 . S
C1072 C1076 1.350 . S
C1073 C1076 1.463 . S
C1073 C1078 1.350 . S
C1073 N1081 1.427 . S
C1074 H1065 0.930 . S
C1074 C1072 1.378 . S
C1074 C1075 1.367 . S
C1075 C1074 1.367 . S
C1075 C1077 1.433 . S
C1076 C1072 1.350 . S
C1076 C1073 1.463 . S
C1076 N1080 1.427 . S
C1077 H1067 0.929 . S
C1077 C1075 1.433 . S
C1077 N1080 1.384 . S
C1078 H1069 0.929 . S
C1078 C1070 1.378 . S
C1078 C1073 1.350 . S
C1079 H1066 0.929 . S
C1079 C1071 1.433 . S
C1079 N1081 1.384 . S
N1080 C1076 1.427 . S
N1080 C1077 1.384 . S
N1081 C1073 1.427 . S
N1081 C1079 1.384 . S
H1082 C1088 0.930 . S
H1083 C1092 0.930 1_545 S
H1084 C1097 0.929 . S
H1085 C1095 0.929 . S
H1086 C1090 0.929 . S
H1087 C1096 0.929 . S
C1088 H1082 0.930 . S
C1088 C1089 1.367 . S
C1088 C1096 1.378 . S
C1089 C1088 1.367 . S
C1089 C1097 1.433 . S
C1090 H1086 0.929 . S
C1090 C1092 1.378 . S
C1090 C1094 1.350 . S
C1091 C1094 1.463 . S
C1091 C1096 1.350 . S
C1091 N1099 1.427 . S
C1092 H1083 0.930 1_565 S
C1092 C1090 1.378 . S
C1092 C1093 1.367 . S
C1093 C1092 1.367 . S
C1093 C1095 1.433 . S
C1094 C1090 1.350 . S
C1094 C1091 1.463 . S
C1094 N1098 1.427 . S
C1095 H1085 0.929 . S
C1095 C1093 1.433 . S
C1095 N1098 1.384 . S
C1096 H1087 0.929 . S
C1096 C1088 1.378 . S
C1096 C1091 1.350 . S
C1097 H1084 0.929 . S
C1097 C1089 1.433 . S
C1097 N1099 1.384 . S
N1098 C1094 1.427 . S
N1098 C1095 1.384 . S
N1099 C1091 1.427 . S
N1099 C1097 1.384 . S
H1100 C1106 0.930 . S
H1101 C1110 0.930 . S
H1102 C1115 0.929 . S
H1103 C1113 0.929 . S
H1104 C1108 0.929 . S
H1105 C1114 0.929 . S
C1106 H1100 0.930 . S
C1106 C1107 1.367 . S
C1106 C1114 1.378 . S
C1107 C1106 1.367 . S
C1107 C1115 1.433 . S
C1108 H1104 0.929 . S
C1108 C1110 1.378 . S
C1108 C1112 1.350 . S
C1109 C1112 1.463 . S
C1109 C1114 1.350 . S
C1109 N1117 1.427 . S
C1110 H1101 0.930 . S
C1110 C1108 1.378 . S
C1110 C1111 1.367 . S
C1111 C1110 1.367 . S
C1111 C1113 1.433 . S
C1112 C1108 1.350 . S
C1112 C1109 1.463 . S
C1112 N1116 1.427 . S
C1113 H1103 0.929 . S
C1113 C1111 1.433 . S
C1113 N1116 1.384 . S
C1114 H1105 0.929 . S
C1114 C1106 1.378 . S
C1114 C1109 1.350 . S
C1115 H1102 0.929 . S
C1115 C1107 1.433 . S
C1115 N1117 1.384 . S
N1116 C1112 1.427 . S
N1116 C1113 1.384 . S
N1117 C1109 1.427 . S
N1117 C1115 1.384 . S
H1118 C1124 0.930 . S
H1119 C1128 0.930 . S
H1120 C1133 0.929 . S
H1121 C1131 0.929 . S
H1122 C1126 0.929 . S
H1123 C1132 0.929 . S
C1124 H1118 0.930 . S
C1124 C1125 1.367 . S
C1124 C1132 1.378 . S
C1125 C1124 1.367 . S
C1125 C1133 1.433 . S
C1126 H1122 0.929 . S
C1126 C1128 1.378 . S
C1126 C1130 1.350 . S
C1127 C1130 1.463 . S
C1127 C1132 1.350 . S
C1127 N1135 1.427 . S
C1128 H1119 0.930 . S
C1128 C1126 1.378 . S
C1128 C1129 1.367 . S
C1129 C1128 1.367 . S
C1129 C1131 1.433 . S
C1130 C1126 1.350 . S
C1130 C1127 1.463 . S
C1130 N1134 1.427 . S
C1131 H1121 0.929 . S
C1131 C1129 1.433 . S
C1131 N1134 1.384 . S
C1132 H1123 0.929 . S
C1132 C1124 1.378 . S
C1132 C1127 1.350 . S
C1133 H1120 0.929 . S
C1133 C1125 1.433 . S
C1133 N1135 1.384 . S
N1134 C1130 1.427 . S
N1134 C1131 1.384 . S
N1135 C1127 1.427 . S
N1135 C1133 1.384 . S
H1136 C1142 0.930 . S
H1137 C1146 0.930 1_554 S
H1138 C1151 0.922 1_655 S
H1139 C1149 0.929 . S
H1140 C1144 0.929 . S
H1141 C1150 0.929 . S
C1142 H1136 0.930 . S
C1142 C1143 1.367 . S
C1142 C1150 1.378 . S
C1143 C1142 1.367 . S
C1143 C1151 1.439 . S
C1144 H1140 0.929 . S
C1144 C1146 1.378 . S
C1144 C1148 1.350 . S
C1145 C1148 1.463 . S
C1145 C1150 1.350 . S
C1145 N1153 1.427 . S
C1146 H1137 0.930 1_556 S
C1146 C1144 1.378 . S
C1146 C1147 1.367 . S
C1147 C1146 1.367 . S
C1147 C1149 1.433 . S
C1148 C1144 1.350 . S
C1148 C1145 1.463 . S
C1148 N1152 1.427 . S
C1149 H1139 0.929 . S
C1149 C1147 1.433 . S
C1149 N1152 1.384 . S
C1150 H1141 0.929 . S
C1150 C1142 1.378 . S
C1150 C1145 1.350 . S
C1151 H1138 0.922 1_455 S
C1151 C1143 1.439 . S
C1151 N1153 1.387 . S
N1152 C1148 1.427 . S
N1152 C1149 1.384 . S
N1153 C1145 1.427 . S
N1153 C1151 1.387 . S
H1154 C1160 0.930 . S
H1155 C1164 0.930 . S
H1156 C1169 0.929 . S
H1157 C1167 0.929 . S
H1158 C1162 0.929 . S
H1159 C1168 0.929 . S
C1160 H1154 0.930 . S
C1160 C1161 1.367 . S
C1160 C1168 1.378 . S
C1161 C1160 1.367 . S
C1161 C1169 1.433 . S
C1162 H1158 0.929 . S
C1162 C1164 1.378 . S
C1162 C1166 1.350 . S
C1163 C1166 1.463 . S
C1163 C1168 1.350 . S
C1163 N1171 1.427 . S
C1164 H1155 0.930 . S
C1164 C1162 1.378 . S
C1164 C1165 1.367 . S
C1165 C1164 1.367 . S
C1165 C1167 1.433 . S
C1166 C1162 1.350 . S
C1166 C1163 1.463 . S
C1166 N1170 1.427 . S
C1167 H1157 0.929 . S
C1167 C1165 1.433 . S
C1167 N1170 1.384 . S
C1168 H1159 0.929 . S
C1168 C1160 1.378 . S
C1168 C1163 1.350 . S
C1169 H1156 0.929 . S
C1169 C1161 1.433 . S
C1169 N1171 1.384 . S
N1170 C1166 1.427 . S
N1170 C1167 1.384 . S
N1171 C1163 1.427 . S
N1171 C1169 1.384 . S
H1172 C1178 0.930 . S
H1173 C1182 0.930 . S
H1174 C1187 0.929 . S
H1175 C1185 0.929 . S
H1176 C1180 0.929 . S
H1177 C1186 0.929 . S
C1178 H1172 0.930 . S
C1178 C1179 1.367 . S
C1178 C1186 1.378 . S
C1179 C1178 1.367 . S
C1179 C1187 1.433 . S
C1180 H1176 0.929 . S
C1180 C1182 1.378 . S
C1180 C1184 1.350 . S
C1181 C1184 1.463 . S
C1181 C1186 1.350 . S
C1181 N1189 1.427 . S
C1182 H1173 0.930 . S
C1182 C1180 1.378 . S
C1182 C1183 1.367 . S
C1183 C1182 1.367 . S
C1183 C1185 1.433 . S
C1184 C1180 1.350 . S
C1184 C1181 1.463 . S
C1184 N1188 1.427 . S
C1185 H1175 0.929 . S
C1185 C1183 1.433 . S
C1185 N1188 1.384 . S
C1186 H1177 0.929 . S
C1186 C1178 1.378 . S
C1186 C1181 1.350 . S
C1187 H1174 0.929 . S
C1187 C1179 1.433 . S
C1187 N1189 1.384 . S
N1188 C1184 1.427 . S
N1188 C1185 1.384 . S
N1189 C1181 1.427 . S
N1189 C1187 1.384 . S
H1190 C1196 0.930 . S
H1191 C1200 0.930 . S
H1192 C1205 0.929 . S
H1193 C1203 0.929 . S
H1194 C1198 0.929 . S
H1195 C1204 0.929 . S
C1196 H1190 0.930 . S
C1196 C1197 1.367 . S
C1196 C1204 1.378 . S
C1197 C1196 1.367 . S
C1197 C1205 1.433 . S
C1198 H1194 0.929 . S
C1198 C1200 1.378 . S
C1198 C1202 1.350 . S
C1199 C1202 1.463 . S
C1199 C1204 1.350 . S
C1199 N1207 1.427 . S
C1200 H1191 0.930 . S
C1200 C1198 1.378 . S
C1200 C1201 1.367 . S
C1201 C1200 1.367 . S
C1201 C1203 1.433 . S
C1202 C1198 1.350 . S
C1202 C1199 1.463 . S
C1202 N1206 1.427 . S
C1203 H1193 0.929 . S
C1203 C1201 1.433 . S
C1203 N1206 1.384 . S
C1204 H1195 0.929 . S
C1204 C1196 1.378 . S
C1204 C1199 1.350 . S
C1205 H1192 0.929 . S
C1205 C1197 1.433 . S
C1205 N1207 1.384 . S
N1206 C1202 1.427 . S
N1206 C1203 1.384 . S
N1207 C1199 1.427 . S
N1207 C1205 1.384 . S
H1208 C1214 0.930 . S
H1209 C1218 0.930 1_655 S
H1210 C1223 0.929 . S
H1211 C1221 0.929 . S
H1212 C1216 0.939 . S
H1213 C1222 0.929 . S
C1214 H1208 0.930 . S
C1214 C1215 1.367 . S
C1214 C1222 1.378 . S
C1215 C1214 1.367 . S
C1215 C1223 1.433 1_455 S
C1216 H1212 0.939 . S
C1216 C1218 1.376 1_655 S
C1216 C1220 1.342 1_655 S
C1217 C1220 1.463 . S
C1217 C1222 1.350 . S
C1217 N1225 1.427 1_455 S
C1218 H1209 0.930 1_455 S
C1218 C1216 1.376 1_455 S
C1218 C1219 1.367 . S
C1219 C1218 1.367 . S
C1219 C1221 1.433 . S
C1220 C1216 1.342 1_455 S
C1220 C1217 1.463 . S
C1220 N1224 1.427 . S
C1221 H1211 0.929 . S
C1221 C1219 1.433 . S
C1221 N1224 1.384 . S
C1222 H1213 0.929 . S
C1222 C1214 1.378 . S
C1222 C1217 1.350 . S
C1223 H1210 0.929 . S
C1223 C1215 1.433 1_655 S
C1223 N1225 1.384 . S
N1224 C1220 1.427 . S
N1224 C1221 1.384 . S
N1225 C1217 1.427 1_655 S
N1225 C1223 1.384 . S
H1226 C1232 0.930 . S
H1227 C1236 0.930 . S
H1228 C1241 0.929 . S
H1229 C1239 0.929 . S
H1230 C1234 0.929 . S
H1231 C1240 0.929 . S
C1232 H1226 0.930 . S
C1232 C1233 1.367 . S
C1232 C1240 1.378 . S
C1233 C1232 1.367 . S
C1233 C1241 1.433 . S
C1234 H1230 0.929 . S
C1234 C1236 1.378 . S
C1234 C1238 1.350 . S
C1235 C1238 1.463 . S
C1235 C1240 1.350 . S
C1235 N1243 1.427 . S
C1236 H1227 0.930 . S
C1236 C1234 1.378 . S
C1236 C1237 1.367 . S
C1237 C1236 1.367 . S
C1237 C1239 1.433 . S
C1238 C1234 1.350 . S
C1238 C1235 1.463 . S
C1238 N1242 1.427 . S
C1239 H1229 0.929 . S
C1239 C1237 1.433 . S
C1239 N1242 1.384 . S
C1240 H1231 0.929 . S
C1240 C1232 1.378 . S
C1240 C1235 1.350 . S
C1241 H1228 0.929 . S
C1241 C1233 1.433 . S
C1241 N1243 1.384 . S
N1242 C1238 1.427 . S
N1242 C1239 1.384 . S
N1243 C1235 1.427 . S
N1243 C1241 1.384 . S
H1244 C1250 0.930 . S
H1245 C1254 0.930 . S
H1246 C1259 0.929 . S
H1247 C1257 0.929 . S
H1248 C1252 0.929 . S
H1249 C1258 0.929 . S
C1250 H1244 0.930 . S
C1250 C1251 1.367 . S
C1250 C1258 1.378 . S
C1251 C1250 1.367 . S
C1251 C1259 1.433 . S
C1252 H1248 0.929 . S
C1252 C1254 1.378 . S
C1252 C1256 1.350 . S
C1253 C1256 1.463 . S
C1253 C1258 1.350 . S
C1253 N1261 1.427 . S
C1254 H1245 0.930 . S
C1254 C1252 1.378 . S
C1254 C1255 1.367 . S
C1255 C1254 1.367 . S
C1255 C1257 1.433 . S
C1256 C1252 1.350 . S
C1256 C1253 1.463 . S
C1256 N1260 1.427 . S
C1257 H1247 0.929 . S
C1257 C1255 1.433 . S
C1257 N1260 1.384 . S
C1258 H1249 0.929 . S
C1258 C1250 1.378 . S
C1258 C1253 1.350 . S
C1259 H1246 0.929 . S
C1259 C1251 1.433 . S
C1259 N1261 1.384 . S
N1260 C1256 1.427 . S
N1260 C1257 1.384 . S
N1261 C1253 1.427 . S
N1261 C1259 1.384 . S
H1262 C1268 0.930 . S
H1263 C1272 0.930 . S
H1264 C1277 0.929 . S
H1265 C1275 0.929 . S
H1266 C1270 0.929 . S
H1267 C1276 0.929 . S
C1268 H1262 0.930 . S
C1268 C1269 1.367 . S
C1268 C1276 1.378 . S
C1269 C1268 1.367 . S
C1269 C1277 1.433 . S
C1270 H1266 0.929 . S
C1270 C1272 1.378 . S
C1270 C1274 1.350 . S
C1271 C1274 1.463 . S
C1271 C1276 1.350 . S
C1271 N1279 1.427 . S
C1272 H1263 0.930 . S
C1272 C1270 1.378 . S
C1272 C1273 1.367 . S
C1273 C1272 1.367 . S
C1273 C1275 1.433 . S
C1274 C1270 1.350 . S
C1274 C1271 1.463 . S
C1274 N1278 1.427 . S
C1275 H1265 0.929 . S
C1275 C1273 1.433 . S
C1275 N1278 1.384 . S
C1276 H1267 0.929 . S
C1276 C1268 1.378 . S
C1276 C1271 1.350 . S
C1277 H1264 0.929 . S
C1277 C1269 1.433 . S
C1277 N1279 1.384 . S
N1278 C1274 1.427 . S
N1278 C1275 1.384 . S
N1279 C1271 1.427 . S
N1279 C1277 1.384 . S
H1280 C1286 0.914 1_565 S
H1281 C1290 0.930 . S
H1282 C1295 0.929 . S
H1283 C1293 0.929 . S
H1284 C1288 0.929 . S
H1285 C1294 0.929 . S
C1286 H1280 0.914 1_545 S
C1286 C1287 1.367 . S
C1286 C1294 1.378 . S
C1287 C1286 1.367 . S
C1287 C1295 1.433 . S
C1288 H1284 0.929 . S
C1288 C1290 1.378 . S
C1288 C1292 1.350 . S
C1289 C1292 1.463 . S
C1289 C1294 1.350 . S
C1289 N1297 1.427 . S
C1290 H1281 0.930 . S
C1290 C1288 1.378 . S
C1290 C1291 1.367 . S
C1291 C1290 1.367 . S
C1291 C1293 1.433 . S
C1292 C1288 1.350 . S
C1292 C1289 1.463 . S
C1292 N1296 1.427 . S
C1293 H1283 0.929 . S
C1293 C1291 1.433 . S
C1293 N1296 1.384 . S
C1294 H1285 0.929 . S
C1294 C1286 1.378 . S
C1294 C1289 1.350 . S
C1295 H1282 0.929 . S
C1295 C1287 1.433 . S
C1295 N1297 1.384 . S
N1296 C1292 1.427 . S
N1296 C1293 1.384 . S
N1297 C1289 1.427 . S
N1297 C1295 1.384 . S
H1298 C1304 0.930 . S
H1299 C1308 0.930 . S
H1300 C1313 0.929 . S
H1301 C1311 0.929 . S
H1302 C1306 0.929 . S
H1303 C1312 0.929 . S
C1304 H1298 0.930 . S
C1304 C1305 1.367 . S
C1304 C1312 1.378 . S
C1305 C1304 1.367 . S
C1305 C1313 1.433 . S
C1306 H1302 0.929 . S
C1306 C1308 1.378 . S
C1306 C1310 1.350 . S
C1307 C1310 1.463 . S
C1307 C1312 1.350 . S
C1307 N1315 1.427 . S
C1308 H1299 0.930 . S
C1308 C1306 1.378 . S
C1308 C1309 1.367 . S
C1309 C1308 1.367 . S
C1309 C1311 1.433 . S
C1310 C1306 1.350 . S
C1310 C1307 1.463 . S
C1310 N1314 1.427 . S
C1311 H1301 0.929 . S
C1311 C1309 1.433 . S
C1311 N1314 1.384 . S
C1312 H1303 0.929 . S
C1312 C1304 1.378 . S
C1312 C1307 1.350 . S
C1313 H1300 0.929 . S
C1313 C1305 1.433 . S
C1313 N1315 1.384 . S
N1314 C1310 1.427 . S
N1314 C1311 1.384 . S
N1315 C1307 1.427 . S
N1315 C1313 1.384 . S
H1316 C1322 0.930 . S
H1317 C1326 0.930 1_545 S
H1318 C1331 0.929 . S
H1319 C1329 0.929 . S
H1320 C1324 0.904 1_545 S
H1321 C1330 0.929 . S
C1322 H1316 0.930 . S
C1322 C1323 1.342 1_565 S
C1322 C1330 1.378 . S
C1323 C1322 1.342 1_545 S
C1323 C1331 1.453 . S
C1324 H1320 0.904 1_565 S
C1324 C1326 1.386 . S
C1324 C1328 1.369 . S
C1325 C1328 1.463 . S
C1325 C1330 1.350 . S
C1325 N1333 1.427 1_565 S
C1326 H1317 0.930 1_565 S
C1326 C1324 1.386 . S
C1326 C1327 1.367 . S
C1327 C1326 1.367 . S
C1327 C1329 1.433 . S
C1328 C1324 1.369 . S
C1328 C1325 1.463 . S
C1328 N1332 1.427 . S
C1329 H1319 0.929 . S
C1329 C1327 1.433 . S
C1329 N1332 1.384 . S
C1330 H1321 0.929 . S
C1330 C1322 1.378 . S
C1330 C1325 1.350 . S
C1331 H1318 0.929 . S
C1331 C1323 1.453 . S
C1331 N1333 1.384 . S
N1332 C1328 1.427 . S
N1332 C1329 1.384 . S
N1333 C1325 1.427 1_545 S
N1333 C1331 1.384 . S
H1334 C1340 0.930 . S
H1335 C1344 0.930 . S
H1336 C1349 0.929 . S
H1337 C1347 0.929 . S
H1338 C1342 0.929 . S
H1339 C1348 0.929 . S
C1340 H1334 0.930 . S
C1340 C1341 1.367 . S
C1340 C1348 1.378 . S
C1341 C1340 1.367 . S
C1341 C1349 1.433 . S
C1342 H1338 0.929 . S
C1342 C1344 1.378 . S
C1342 C1346 1.350 . S
C1343 C1346 1.463 . S
C1343 C1348 1.350 . S
C1343 N1351 1.427 . S
C1344 H1335 0.930 . S
C1344 C1342 1.378 . S
C1344 C1345 1.367 . S
C1345 C1344 1.367 . S
C1345 C1347 1.433 . S
C1346 C1342 1.350 . S
C1346 C1343 1.463 . S
C1346 N1350 1.427 . S
C1347 H1337 0.929 . S
C1347 C1345 1.433 . S
C1347 N1350 1.384 . S
C1348 H1339 0.929 . S
C1348 C1340 1.378 . S
C1348 C1343 1.350 . S
C1349 H1336 0.929 . S
C1349 C1341 1.433 . S
C1349 N1351 1.384 . S
N1350 C1346 1.427 . S
N1350 C1347 1.384 . S
N1351 C1343 1.427 . S
N1351 C1349 1.384 . S
H1352 C1358 0.930 . S
H1353 C1362 0.930 . S
H1354 C1367 0.929 . S
H1355 C1365 0.929 . S
H1356 C1360 0.929 . S
H1357 C1366 0.929 . S
C1358 H1352 0.930 . S
C1358 C1359 1.367 . S
C1358 C1366 1.378 . S
C1359 C1358 1.367 . S
C1359 C1367 1.433 1_545 S
C1360 H1356 0.929 . S
C1360 C1362 1.378 . S
C1360 C1364 1.350 1_565 S
C1361 C1364 1.463 . S
C1361 C1366 1.350 . S
C1361 N1369 1.427 1_545 S
C1362 H1353 0.930 . S
C1362 C1360 1.378 . S
C1362 C1363 1.367 . S
C1363 C1362 1.367 . S
C1363 C1365 1.433 1_565 S
C1364 C1360 1.350 1_545 S
C1364 C1361 1.463 . S
C1364 N1368 1.427 . S
C1365 H1355 0.929 . S
C1365 C1363 1.433 1_545 S
C1365 N1368 1.384 . S
C1366 H1357 0.929 . S
C1366 C1358 1.378 . S
C1366 C1361 1.350 . S
C1367 H1354 0.929 . S
C1367 C1359 1.433 1_565 S
C1367 N1369 1.384 . S
N1368 C1364 1.427 . S
N1368 C1365 1.384 . S
N1369 C1361 1.427 1_565 S
N1369 C1367 1.384 . S
H1370 C1376 0.930 . S
H1371 C1380 0.930 . S
H1372 C1385 0.929 . S
H1373 C1383 0.929 . S
H1374 C1378 0.929 . S
H1375 C1384 0.929 . S
C1376 H1370 0.930 . S
C1376 C1377 1.367 . S
C1376 C1384 1.378 . S
C1377 C1376 1.367 . S
C1377 C1385 1.433 . S
C1378 H1374 0.929 . S
C1378 C1380 1.378 . S
C1378 C1382 1.350 . S
C1379 C1382 1.463 . S
C1379 C1384 1.350 . S
C1379 N1387 1.427 . S
C1380 H1371 0.930 . S
C1380 C1378 1.378 . S
C1380 C1381 1.367 . S
C1381 C1380 1.367 . S
C1381 C1383 1.433 . S
C1382 C1378 1.350 . S
C1382 C1379 1.463 . S
C1382 N1386 1.427 . S
C1383 H1373 0.929 . S
C1383 C1381 1.433 . S
C1383 N1386 1.384 . S
C1384 H1375 0.929 . S
C1384 C1376 1.378 . S
C1384 C1379 1.350 . S
C1385 H1372 0.929 . S
C1385 C1377 1.433 . S
C1385 N1387 1.384 . S
N1386 C1382 1.427 . S
N1386 C1383 1.384 . S
N1387 C1379 1.427 . S
N1387 C1385 1.384 . S
H1388 C1394 0.930 . S
H1389 C1398 0.930 . S
H1390 C1403 0.929 . S
H1391 C1401 0.929 . S
H1392 C1396 0.929 . S
H1393 C1402 0.929 . S
C1394 H1388 0.930 . S
C1394 C1395 1.338 1_565 S
C1394 C1402 1.378 . S
C1395 C1394 1.338 1_545 S
C1395 C1403 1.469 . S
C1396 H1392 0.929 . S
C1396 C1398 1.378 . S
C1396 C1400 1.350 . S
C1397 C1400 1.463 . S
C1397 C1402 1.350 1_545 S
C1397 N1405 1.427 . S
C1398 H1389 0.930 . S
C1398 C1396 1.378 . S
C1398 C1399 1.367 . S
C1399 C1398 1.367 . S
C1399 C1401 1.433 1_545 S
C1400 C1396 1.350 . S
C1400 C1397 1.463 . S
C1400 N1404 1.427 1_545 S
C1401 H1391 0.929 . S
C1401 C1399 1.433 1_565 S
C1401 N1404 1.384 . S
C1402 H1393 0.929 . S
C1402 C1394 1.378 . S
C1402 C1397 1.350 1_565 S
C1403 H1390 0.929 . S
C1403 C1395 1.469 . S
C1403 N1405 1.384 . S
N1404 C1400 1.427 1_565 S
N1404 C1401 1.384 . S
N1405 C1397 1.427 . S
N1405 C1403 1.384 . S
H1406 C1412 0.930 . S
H1407 C1416 0.930 . S
H1408 C1421 0.929 . S
H1409 C1419 0.929 . S
H1410 C1414 0.929 . S
H1411 C1420 0.929 . S
C1412 H1406 0.930 . S
C1412 C1413 1.367 . S
C1412 C1420 1.378 . S
C1413 C1412 1.367 . S
C1413 C1421 1.433 . S
C1414 H1410 0.929 . S
C1414 C1416 1.378 . S
C1414 C1418 1.350 . S
C1415 C1418 1.463 . S
C1415 C1420 1.350 . S
C1415 N1423 1.427 . S
C1416 H1407 0.930 . S
C1416 C1414 1.378 . S
C1416 C1417 1.367 . S
C1417 C1416 1.367 . S
C1417 C1419 1.433 . S
C1418 C1414 1.350 . S
C1418 C1415 1.463 . S
C1418 N1422 1.427 . S
C1419 H1409 0.929 . S
C1419 C1417 1.433 . S
C1419 N1422 1.384 . S
C1420 H1411 0.929 . S
C1420 C1412 1.378 . S
C1420 C1415 1.350 . S
C1421 H1408 0.929 . S
C1421 C1413 1.433 . S
C1421 N1423 1.384 . S
N1422 C1418 1.427 . S
N1422 C1419 1.384 . S
N1423 C1415 1.427 . S
N1423 C1421 1.384 . S
H1424 C1430 0.930 . S
H1425 C1434 0.930 1_556 S
H1426 C1439 0.929 . S
H1427 C1437 0.929 . S
H1428 C1432 0.929 1_556 S
H1429 C1438 0.929 . S
C1430 H1424 0.930 . S
C1430 C1431 1.367 . S
C1430 C1438 1.378 . S
C1431 C1430 1.367 . S
C1431 C1439 1.433 1_554 S
C1432 H1428 0.929 1_554 S
C1432 C1434 1.378 . S
C1432 C1436 1.350 . S
C1433 C1436 1.463 . S
C1433 C1438 1.350 . S
C1433 N1441 1.427 1_554 S
C1434 H1425 0.930 1_554 S
C1434 C1432 1.378 . S
C1434 C1435 1.367 . S
C1435 C1434 1.367 . S
C1435 C1437 1.433 . S
C1436 C1432 1.350 . S
C1436 C1433 1.463 . S
C1436 N1440 1.427 . S
C1437 H1427 0.929 . S
C1437 C1435 1.433 . S
C1437 N1440 1.384 . S
C1438 H1429 0.929 . S
C1438 C1430 1.378 . S
C1438 C1433 1.350 . S
C1439 H1426 0.929 . S
C1439 C1431 1.433 1_556 S
C1439 N1441 1.384 . S
N1440 C1436 1.427 . S
N1440 C1437 1.384 . S
N1441 C1433 1.427 1_556 S
N1441 C1439 1.384 . S
H1442 C1448 0.930 . S
H1443 C1452 0.932 . S
H1444 C1457 0.929 . S
H1445 C1455 0.929 . S
H1446 C1450 0.929 . S
H1447 C1456 0.929 . S
C1448 H1442 0.930 . S
C1448 C1449 1.367 1_556 S
C1448 C1456 1.378 . S
C1449 C1448 1.367 1_554 S
C1449 C1457 1.433 . S
C1450 H1446 0.929 . S
C1450 C1452 1.378 . S
C1450 C1454 1.350 1_554 S
C1451 C1454 1.463 . S
C1451 C1456 1.350 . S
C1451 N1459 1.427 1_556 S
C1452 H1443 0.932 . S
C1452 C1450 1.378 . S
C1452 C1453 1.364 1_554 S
C1453 C1452 1.364 1_556 S
C1453 C1455 1.433 . S
C1454 C1450 1.350 1_556 S
C1454 C1451 1.463 . S
C1454 N1458 1.427 . S
C1455 H1445 0.929 . S
C1455 C1453 1.433 . S
C1455 N1458 1.384 . S
C1456 H1447 0.929 . S
C1456 C1448 1.378 . S
C1456 C1451 1.350 . S
C1457 H1444 0.929 . S
C1457 C1449 1.433 . S
C1457 N1459 1.384 . S
N1458 C1454 1.427 . S
N1458 C1455 1.384 . S
N1459 C1451 1.427 1_554 S
N1459 C1457 1.384 . S
H1460 C1466 0.930 . S
H1461 C1470 0.930 . S
H1462 C1475 0.929 . S
H1463 C1473 0.929 . S
H1464 C1468 0.929 . S
H1465 C1474 0.929 . S
C1466 H1460 0.930 . S
C1466 C1467 1.367 . S
C1466 C1474 1.378 . S
C1467 C1466 1.367 . S
C1467 C1475 1.433 . S
C1468 H1464 0.929 . S
C1468 C1470 1.378 . S
C1468 C1472 1.350 . S
C1469 C1472 1.463 . S
C1469 C1474 1.350 . S
C1469 N1477 1.427 . S
C1470 H1461 0.930 . S
C1470 C1468 1.378 . S
C1470 C1471 1.367 . S
C1471 C1470 1.367 . S
C1471 C1473 1.433 . S
C1472 C1468 1.350 . S
C1472 C1469 1.463 . S
C1472 N1476 1.427 . S
C1473 H1463 0.929 . S
C1473 C1471 1.433 . S
C1473 N1476 1.384 . S
C1474 H1465 0.929 . S
C1474 C1466 1.378 . S
C1474 C1469 1.350 . S
C1475 H1462 0.929 . S
C1475 C1467 1.433 . S
C1475 N1477 1.384 . S
N1476 C1472 1.427 . S
N1476 C1473 1.384 . S
N1477 C1469 1.427 . S
N1477 C1475 1.384 . S
H1478 C1484 0.930 . S
H1479 C1488 0.930 . S
H1480 C1493 0.929 . S
H1481 C1491 0.929 . S
H1482 C1486 0.929 . S
H1483 C1492 0.929 . S
C1484 H1478 0.930 . S
C1484 C1485 1.367 . S
C1484 C1492 1.378 . S
C1485 C1484 1.367 . S
C1485 C1493 1.433 . S
C1486 H1482 0.929 . S
C1486 C1488 1.378 . S
C1486 C1490 1.350 . S
C1487 C1490 1.463 . S
C1487 C1492 1.350 . S
C1487 N1495 1.427 . S
C1488 H1479 0.930 . S
C1488 C1486 1.378 . S
C1488 C1489 1.367 . S
C1489 C1488 1.367 . S
C1489 C1491 1.433 . S
C1490 C1486 1.350 . S
C1490 C1487 1.463 . S
C1490 N1494 1.427 . S
C1491 H1481 0.929 . S
C1491 C1489 1.433 . S
C1491 N1494 1.384 . S
C1492 H1483 0.929 . S
C1492 C1484 1.378 . S
C1492 C1487 1.350 . S
C1493 H1480 0.929 . S
C1493 C1485 1.433 . S
C1493 N1495 1.384 . S
N1494 C1490 1.427 . S
N1494 C1491 1.384 . S
N1495 C1487 1.427 . S
N1495 C1493 1.384 . S
H1496 C1502 0.930 . S
H1497 C1506 0.930 . S
H1498 C1511 0.929 . S
H1499 C1509 0.929 . S
H1500 C1504 0.929 . S
H1501 C1510 0.929 . S
C1502 H1496 0.930 . S
C1502 C1503 1.367 . S
C1502 C1510 1.378 . S
C1503 C1502 1.367 . S
C1503 C1511 1.433 . S
C1504 H1500 0.929 . S
C1504 C1506 1.378 . S
C1504 C1508 1.350 . S
C1505 C1508 1.463 . S
C1505 C1510 1.350 . S
C1505 N1513 1.427 . S
C1506 H1497 0.930 . S
C1506 C1504 1.378 . S
C1506 C1507 1.367 . S
C1507 C1506 1.367 . S
C1507 C1509 1.433 . S
C1508 C1504 1.350 . S
C1508 C1505 1.463 . S
C1508 N1512 1.427 . S
C1509 H1499 0.929 . S
C1509 C1507 1.433 . S
C1509 N1512 1.384 . S
C1510 H1501 0.929 . S
C1510 C1502 1.378 . S
C1510 C1505 1.350 . S
C1511 H1498 0.929 . S
C1511 C1503 1.433 . S
C1511 N1513 1.384 . S
N1512 C1508 1.427 . S
N1512 C1509 1.384 . S
N1513 C1505 1.427 . S
N1513 C1511 1.384 . S
H1514 C1520 0.930 . S
H1515 C1524 0.930 . S
H1516 C1529 0.929 . S
H1517 C1527 0.929 . S
H1518 C1522 0.929 . S
H1519 C1528 0.929 . S
C1520 H1514 0.930 . S
C1520 C1521 1.367 . S
C1520 C1528 1.378 . S
C1521 C1520 1.367 . S
C1521 C1529 1.433 . S
C1522 H1518 0.929 . S
C1522 C1524 1.378 . S
C1522 C1526 1.350 . S
C1523 C1526 1.463 . S
C1523 C1528 1.350 . S
C1523 N1531 1.427 . S
C1524 H1515 0.930 . S
C1524 C1522 1.378 . S
C1524 C1525 1.367 . S
C1525 C1524 1.367 . S
C1525 C1527 1.433 . S
C1526 C1522 1.350 . S
C1526 C1523 1.463 . S
C1526 N1530 1.427 . S
C1527 H1517 0.929 . S
C1527 C1525 1.433 . S
C1527 N1530 1.384 . S
C1528 H1519 0.929 . S
C1528 C1520 1.378 . S
C1528 C1523 1.350 . S
C1529 H1516 0.929 . S
C1529 C1521 1.433 . S
C1529 N1531 1.384 . S
N1530 C1526 1.427 . S
N1530 C1527 1.384 . S
N1531 C1523 1.427 . S
N1531 C1529 1.384 . S
H1532 C1538 0.930 . S
H1533 C1542 0.930 . S
H1534 C1547 0.929 . S
H1535 C1545 0.929 . S
H1536 C1540 0.929 . S
H1537 C1546 0.929 . S
C1538 H1532 0.930 . S
C1538 C1539 1.367 . S
C1538 C1546 1.378 . S
C1539 C1538 1.367 . S
C1539 C1547 1.433 . S
C1540 H1536 0.929 . S
C1540 C1542 1.378 . S
C1540 C1544 1.350 . S
C1541 C1544 1.463 . S
C1541 C1546 1.350 . S
C1541 N1549 1.427 . S
C1542 H1533 0.930 . S
C1542 C1540 1.378 . S
C1542 C1543 1.367 . S
C1543 C1542 1.367 . S
C1543 C1545 1.433 . S
C1544 C1540 1.350 . S
C1544 C1541 1.463 . S
C1544 N1548 1.427 . S
C1545 H1535 0.929 . S
C1545 C1543 1.433 . S
C1545 N1548 1.384 . S
C1546 H1537 0.929 . S
C1546 C1538 1.378 . S
C1546 C1541 1.350 . S
C1547 H1534 0.929 . S
C1547 C1539 1.433 . S
C1547 N1549 1.384 . S
N1548 C1544 1.427 . S
N1548 C1545 1.384 . S
N1549 C1541 1.427 . S
N1549 C1547 1.384 . S
H1550 C1556 0.930 . S
H1551 C1560 0.930 . S
H1552 C1565 0.929 . S
H1553 C1563 0.929 . S
H1554 C1558 0.929 . S
H1555 C1564 0.929 . S
C1556 H1550 0.930 . S
C1556 C1557 1.367 . S
C1556 C1564 1.378 . S
C1557 C1556 1.367 . S
C1557 C1565 1.433 . S
C1558 H1554 0.929 . S
C1558 C1560 1.378 . S
C1558 C1562 1.350 . S
C1559 C1562 1.463 . S
C1559 C1564 1.350 . S
C1559 N1567 1.427 . S
C1560 H1551 0.930 . S
C1560 C1558 1.378 . S
C1560 C1561 1.367 . S
C1561 C1560 1.367 . S
C1561 C1563 1.433 . S
C1562 C1558 1.350 . S
C1562 C1559 1.463 . S
C1562 N1566 1.427 . S
C1563 H1553 0.929 . S
C1563 C1561 1.433 . S
C1563 N1566 1.384 . S
C1564 H1555 0.929 . S
C1564 C1556 1.378 . S
C1564 C1559 1.350 . S
C1565 H1552 0.929 . S
C1565 C1557 1.433 . S
C1565 N1567 1.384 . S
N1566 C1562 1.427 . S
N1566 C1563 1.384 . S
N1567 C1559 1.427 . S
N1567 C1565 1.384 . S
H1568 C1574 0.930 . S
H1569 C1578 0.930 . S
H1570 C1583 0.929 . S
H1571 C1581 0.929 . S
H1572 C1576 0.929 . S
H1573 C1582 0.929 . S
C1574 H1568 0.930 . S
C1574 C1575 1.367 . S
C1574 C1582 1.378 . S
C1575 C1574 1.367 . S
C1575 C1583 1.433 . S
C1576 H1572 0.929 . S
C1576 C1578 1.378 . S
C1576 C1580 1.350 . S
C1577 C1580 1.463 . S
C1577 C1582 1.350 . S
C1577 N1585 1.427 . S
C1578 H1569 0.930 . S
C1578 C1576 1.378 . S
C1578 C1579 1.367 . S
C1579 C1578 1.367 . S
C1579 C1581 1.433 . S
C1580 C1576 1.350 . S
C1580 C1577 1.463 . S
C1580 N1584 1.427 . S
C1581 H1571 0.929 . S
C1581 C1579 1.433 . S
C1581 N1584 1.384 . S
C1582 H1573 0.929 . S
C1582 C1574 1.378 . S
C1582 C1577 1.350 . S
C1583 H1570 0.929 . S
C1583 C1575 1.433 . S
C1583 N1585 1.384 . S
N1584 C1580 1.427 . S
N1584 C1581 1.384 . S
N1585 C1577 1.427 . S
N1585 C1583 1.384 . S
H1586 C1592 0.930 . S
H1587 C1596 0.930 . S
H1588 C1601 0.929 . S
H1589 C1599 0.929 . S
H1590 C1594 0.929 . S
H1591 C1600 0.929 . S
C1592 H1586 0.930 . S
C1592 C1593 1.367 . S
C1592 C1600 1.378 . S
C1593 C1592 1.367 . S
C1593 C1601 1.433 . S
C1594 H1590 0.929 . S
C1594 C1596 1.378 . S
C1594 C1598 1.350 . S
C1595 C1598 1.463 . S
C1595 C1600 1.350 . S
C1595 N1603 1.427 . S
C1596 H1587 0.930 . S
C1596 C1594 1.378 . S
C1596 C1597 1.367 . S
C1597 C1596 1.367 . S
C1597 C1599 1.433 . S
C1598 C1594 1.350 . S
C1598 C1595 1.463 . S
C1598 N1602 1.427 . S
C1599 H1589 0.929 . S
C1599 C1597 1.433 . S
C1599 N1602 1.384 . S
C1600 H1591 0.929 . S
C1600 C1592 1.378 . S
C1600 C1595 1.350 . S
C1601 H1588 0.929 . S
C1601 C1593 1.433 . S
C1601 N1603 1.384 . S
N1602 C1598 1.427 . S
N1602 C1599 1.384 . S
N1603 C1595 1.427 . S
N1603 C1601 1.384 . S
H1604 C1610 0.930 . S
H1605 C1614 0.930 1_655 S
H1606 C1619 0.929 . S
H1607 C1617 0.929 . S
H1608 C1612 0.944 . S
H1609 C1618 0.929 . S
C1610 H1604 0.930 . S
C1610 C1611 1.367 . S
C1610 C1618 1.378 . S
C1611 C1610 1.367 . S
C1611 C1619 1.433 1_455 S
C1612 H1608 0.944 . S
C1612 C1614 1.376 1_655 S
C1612 C1616 1.337 1_655 S
C1613 C1616 1.463 . S
C1613 C1618 1.350 . S
C1613 N1621 1.427 1_455 S
C1614 H1605 0.930 1_455 S
C1614 C1612 1.376 1_455 S
C1614 C1615 1.367 . S
C1615 C1614 1.367 . S
C1615 C1617 1.433 . S
C1616 C1612 1.337 1_455 S
C1616 C1613 1.463 . S
C1616 N1620 1.427 . S
C1617 H1607 0.929 . S
C1617 C1615 1.433 . S
C1617 N1620 1.384 . S
C1618 H1609 0.929 . S
C1618 C1610 1.378 . S
C1618 C1613 1.350 . S
C1619 H1606 0.929 . S
C1619 C1611 1.433 1_655 S
C1619 N1621 1.384 . S
N1620 C1616 1.427 . S
N1620 C1617 1.384 . S
N1621 C1613 1.427 1_655 S
N1621 C1619 1.384 . S
H1622 C1628 0.930 . S
H1623 C1632 0.930 . S
H1624 C1637 0.929 . S
H1625 C1635 0.929 . S
H1626 C1630 0.929 . S
H1627 C1636 0.929 . S
C1628 H1622 0.930 . S
C1628 C1629 1.367 . S
C1628 C1636 1.378 . S
C1629 C1628 1.367 . S
C1629 C1637 1.433 . S
C1630 H1626 0.929 . S
C1630 C1632 1.378 . S
C1630 C1634 1.350 . S
C1631 C1634 1.463 . S
C1631 C1636 1.350 . S
C1631 N1639 1.427 . S
C1632 H1623 0.930 . S
C1632 C1630 1.378 . S
C1632 C1633 1.367 . S
C1633 C1632 1.367 . S
C1633 C1635 1.433 . S
C1634 C1630 1.350 . S
C1634 C1631 1.463 . S
C1634 N1638 1.427 . S
C1635 H1625 0.929 . S
C1635 C1633 1.433 . S
C1635 N1638 1.384 . S
C1636 H1627 0.929 . S
C1636 C1628 1.378 . S
C1636 C1631 1.350 . S
C1637 H1624 0.929 . S
C1637 C1629 1.433 . S
C1637 N1639 1.384 . S
N1638 C1634 1.427 . S
N1638 C1635 1.384 . S
N1639 C1631 1.427 . S
N1639 C1637 1.384 . S
H1640 C1646 0.930 . S
H1641 C1650 0.930 . S
H1642 C1655 0.929 . S
H1643 C1653 0.931 . S
H1644 C1648 0.929 . S
H1645 C1654 0.929 . S
C1646 H1640 0.930 . S
C1646 C1647 1.367 . S
C1646 C1654 1.378 . S
C1647 C1646 1.367 . S
C1647 C1655 1.433 . S
C1648 H1644 0.929 . S
C1648 C1650 1.378 . S
C1648 C1652 1.350 . S
C1649 C1652 1.463 . S
C1649 C1654 1.350 . S
C1649 N1657 1.427 . S
C1650 H1641 0.930 . S
C1650 C1648 1.378 . S
C1650 C1651 1.367 . S
C1651 C1650 1.367 . S
C1651 C1653 1.433 . S
C1652 C1648 1.350 . S
C1652 C1649 1.463 . S
C1652 N1656 1.427 . S
C1653 H1643 0.931 . S
C1653 C1651 1.433 . S
C1653 N1656 1.384 . S
C1654 H1645 0.929 . S
C1654 C1646 1.378 . S
C1654 C1649 1.350 . S
C1655 H1642 0.929 . S
C1655 C1647 1.433 . S
C1655 N1657 1.384 . S
N1656 C1652 1.427 . S
N1656 C1653 1.384 . S
N1657 C1649 1.427 . S
N1657 C1655 1.384 . S
H1658 C1664 0.930 . S
H1659 C1668 0.930 . S
H1660 C1673 0.929 . S
H1661 C1671 0.929 . S
H1662 C1666 0.929 . S
H1663 C1672 0.929 . S
C1664 H1658 0.930 . S
C1664 C1665 1.367 . S
C1664 C1672 1.378 . S
C1665 C1664 1.367 . S
C1665 C1673 1.433 . S
C1666 H1662 0.929 . S
C1666 C1668 1.378 . S
C1666 C1670 1.350 . S
C1667 C1670 1.463 . S
C1667 C1672 1.350 . S
C1667 N1675 1.427 . S
C1668 H1659 0.930 . S
C1668 C1666 1.378 . S
C1668 C1669 1.367 . S
C1669 C1668 1.367 . S
C1669 C1671 1.433 . S
C1670 C1666 1.350 . S
C1670 C1667 1.463 . S
C1670 N1674 1.427 . S
C1671 H1661 0.929 . S
C1671 C1669 1.433 . S
C1671 N1674 1.384 . S
C1672 H1663 0.929 . S
C1672 C1664 1.378 . S
C1672 C1667 1.350 . S
C1673 H1660 0.929 . S
C1673 C1665 1.433 . S
C1673 N1675 1.384 . S
N1674 C1670 1.427 . S
N1674 C1671 1.384 . S
N1675 C1667 1.427 . S
N1675 C1673 1.384 . S
H1676 C1682 0.930 . S
H1677 C1686 0.930 . S
H1678 C1691 0.929 1_655 S
H1679 C1689 0.929 . S
H1680 C1684 0.929 . S
H1681 C1690 0.929 . S
C1682 H1676 0.930 . S
C1682 C1683 1.367 . S
C1682 C1690 1.378 . S
C1683 C1682 1.367 . S
C1683 C1691 1.433 . S
C1684 H1680 0.929 . S
C1684 C1686 1.378 . S
C1684 C1688 1.350 . S
C1685 C1688 1.463 . S
C1685 C1690 1.350 . S
C1685 N1693 1.427 . S
C1686 H1677 0.930 . S
C1686 C1684 1.378 . S
C1686 C1687 1.367 . S
C1687 C1686 1.367 . S
C1687 C1689 1.433 . S
C1688 C1684 1.350 . S
C1688 C1685 1.463 . S
C1688 N1692 1.427 . S
C1689 H1679 0.929 . S
C1689 C1687 1.433 . S
C1689 N1692 1.384 . S
C1690 H1681 0.929 . S
C1690 C1682 1.378 . S
C1690 C1685 1.350 . S
C1691 H1678 0.929 1_455 S
C1691 C1683 1.433 . S
C1691 N1693 1.384 . S
N1692 C1688 1.427 . S
N1692 C1689 1.384 . S
N1693 C1685 1.427 . S
N1693 C1691 1.384 . S
H1694 C1700 0.930 . S
H1695 C1704 0.930 . S
H1696 C1709 0.929 . S
H1697 C1707 0.929 . S
H1698 C1702 0.929 . S
H1699 C1708 0.929 . S
C1700 H1694 0.930 . S
C1700 C1701 1.367 . S
C1700 C1708 1.378 . S
C1701 C1700 1.367 . S
C1701 C1709 1.433 . S
C1702 H1698 0.929 . S
C1702 C1704 1.378 . S
C1702 C1706 1.350 . S
C1703 C1706 1.463 . S
C1703 C1708 1.350 . S
C1703 N1711 1.427 . S
C1704 H1695 0.930 . S
C1704 C1702 1.378 . S
C1704 C1705 1.367 . S
C1705 C1704 1.367 . S
C1705 C1707 1.433 . S
C1706 C1702 1.350 . S
C1706 C1703 1.463 . S
C1706 N1710 1.427 . S
C1707 H1697 0.929 . S
C1707 C1705 1.433 . S
C1707 N1710 1.384 . S
C1708 H1699 0.929 . S
C1708 C1700 1.378 . S
C1708 C1703 1.350 . S
C1709 H1696 0.929 . S
C1709 C1701 1.433 . S
C1709 N1711 1.384 . S
N1710 C1706 1.427 . S
N1710 C1707 1.384 . S
N1711 C1703 1.427 . S
N1711 C1709 1.384 . S
H1712 C1718 0.930 . S
H1713 C1722 0.930 . S
H1714 C1727 0.929 . S
H1715 C1725 0.929 . S
H1716 C1720 0.929 . S
H1717 C1726 0.929 . S
C1718 H1712 0.930 . S
C1718 C1719 1.367 . S
C1718 C1726 1.378 . S
C1719 C1718 1.367 . S
C1719 C1727 1.433 . S
C1720 H1716 0.929 . S
C1720 C1722 1.378 . S
C1720 C1724 1.350 . S
C1721 C1724 1.463 . S
C1721 C1726 1.350 . S
C1721 N1729 1.427 . S
C1722 H1713 0.930 . S
C1722 C1720 1.378 . S
C1722 C1723 1.367 . S
C1723 C1722 1.367 . S
C1723 C1725 1.433 . S
C1724 C1720 1.350 . S
C1724 C1721 1.463 . S
C1724 N1728 1.427 . S
C1725 H1715 0.929 . S
C1725 C1723 1.433 . S
C1725 N1728 1.384 . S
C1726 H1717 0.929 . S
C1726 C1718 1.378 . S
C1726 C1721 1.350 . S
C1727 H1714 0.929 . S
C1727 C1719 1.433 . S
C1727 N1729 1.384 . S
N1728 C1724 1.427 . S
N1728 C1725 1.384 . S
N1729 C1721 1.427 . S
N1729 C1727 1.384 . S
H1730 C1736 0.930 . S
H1731 C1740 0.930 . S
H1732 C1745 0.929 . S
H1733 C1743 0.929 . S
H1734 C1738 0.929 . S
H1735 C1744 0.929 . S
C1736 H1730 0.930 . S
C1736 C1737 1.367 . S
C1736 C1744 1.378 . S
C1737 C1736 1.367 . S
C1737 C1745 1.433 . S
C1738 H1734 0.929 . S
C1738 C1740 1.378 . S
C1738 C1742 1.350 . S
C1739 C1742 1.463 . S
C1739 C1744 1.350 . S
C1739 N1747 1.427 . S
C1740 H1731 0.930 . S
C1740 C1738 1.378 . S
C1740 C1741 1.367 . S
C1741 C1740 1.367 . S
C1741 C1743 1.433 . S
C1742 C1738 1.350 . S
C1742 C1739 1.463 . S
C1742 N1746 1.427 . S
C1743 H1733 0.929 . S
C1743 C1741 1.433 . S
C1743 N1746 1.384 . S
C1744 H1735 0.929 . S
C1744 C1736 1.378 . S
C1744 C1739 1.350 . S
C1745 H1732 0.929 . S
C1745 C1737 1.433 . S
C1745 N1747 1.384 . S
N1746 C1742 1.427 . S
N1746 C1743 1.384 . S
N1747 C1739 1.427 . S
N1747 C1745 1.384 . S
H1748 C1754 0.930 . S
H1749 C1758 0.930 . S
H1750 C1763 0.929 . S
H1751 C1761 0.929 . S
H1752 C1756 0.929 . S
H1753 C1762 0.929 . S
C1754 H1748 0.930 . S
C1754 C1755 1.367 . S
C1754 C1762 1.378 . S
C1755 C1754 1.367 . S
C1755 C1763 1.433 . S
C1756 H1752 0.929 . S
C1756 C1758 1.378 . S
C1756 C1760 1.350 . S
C1757 C1760 1.463 . S
C1757 C1762 1.350 . S
C1757 N1765 1.427 . S
C1758 H1749 0.930 . S
C1758 C1756 1.378 . S
C1758 C1759 1.367 . S
C1759 C1758 1.367 . S
C1759 C1761 1.433 . S
C1760 C1756 1.350 . S
C1760 C1757 1.463 . S
C1760 N1764 1.427 . S
C1761 H1751 0.929 . S
C1761 C1759 1.433 . S
C1761 N1764 1.384 . S
C1762 H1753 0.929 . S
C1762 C1754 1.378 . S
C1762 C1757 1.350 . S
C1763 H1750 0.929 . S
C1763 C1755 1.433 . S
C1763 N1765 1.384 . S
N1764 C1760 1.427 . S
N1764 C1761 1.384 . S
N1765 C1757 1.427 . S
N1765 C1763 1.384 . S
H1766 C1772 0.930 . S
H1767 C1776 0.930 . S
H1768 C1781 0.929 . S
H1769 C1779 0.929 . S
H1770 C1774 0.929 . S
H1771 C1780 0.929 . S
C1772 H1766 0.930 . S
C1772 C1773 1.367 . S
C1772 C1780 1.378 . S
C1773 C1772 1.367 . S
C1773 C1781 1.433 . S
C1774 H1770 0.929 . S
C1774 C1776 1.378 . S
C1774 C1778 1.350 . S
C1775 C1778 1.463 . S
C1775 C1780 1.350 . S
C1775 N1783 1.427 . S
C1776 H1767 0.930 . S
C1776 C1774 1.378 . S
C1776 C1777 1.367 . S
C1777 C1776 1.367 . S
C1777 C1779 1.433 . S
C1778 C1774 1.350 . S
C1778 C1775 1.463 . S
C1778 N1782 1.427 . S
C1779 H1769 0.929 . S
C1779 C1777 1.433 . S
C1779 N1782 1.384 . S
C1780 H1771 0.929 . S
C1780 C1772 1.378 . S
C1780 C1775 1.350 . S
C1781 H1768 0.929 . S
C1781 C1773 1.433 . S
C1781 N1783 1.384 . S
N1782 C1778 1.427 . S
N1782 C1779 1.384 . S
N1783 C1775 1.427 . S
N1783 C1781 1.384 . S
H1784 C1790 0.930 . S
H1785 C1794 0.930 . S
H1786 C1799 0.929 . S
H1787 C1797 0.929 . S
H1788 C1792 0.929 . S
H1789 C1798 0.929 . S
C1790 H1784 0.930 . S
C1790 C1791 1.367 . S
C1790 C1798 1.378 . S
C1791 C1790 1.367 . S
C1791 C1799 1.433 . S
C1792 H1788 0.929 . S
C1792 C1794 1.378 . S
C1792 C1796 1.350 . S
C1793 C1796 1.463 . S
C1793 C1798 1.350 . S
C1793 N1801 1.427 . S
C1794 H1785 0.930 . S
C1794 C1792 1.378 . S
C1794 C1795 1.367 . S
C1795 C1794 1.367 . S
C1795 C1797 1.433 . S
C1796 C1792 1.350 . S
C1796 C1793 1.463 . S
C1796 N1800 1.427 . S
C1797 H1787 0.929 . S
C1797 C1795 1.433 . S
C1797 N1800 1.384 . S
C1798 H1789 0.929 . S
C1798 C1790 1.378 . S
C1798 C1793 1.350 . S
C1799 H1786 0.929 . S
C1799 C1791 1.433 . S
C1799 N1801 1.384 . S
N1800 C1796 1.427 . S
N1800 C1797 1.384 . S
N1801 C1793 1.427 . S
N1801 C1799 1.384 . S
H1802 C1808 0.930 . S
H1803 C1812 0.930 . S
H1804 C1817 0.929 . S
H1805 C1815 0.929 . S
H1806 C1810 0.929 . S
H1807 C1816 0.929 . S
C1808 H1802 0.930 . S
C1808 C1809 1.367 . S
C1808 C1816 1.378 . S
C1809 C1808 1.367 . S
C1809 C1817 1.433 . S
C1810 H1806 0.929 . S
C1810 C1812 1.378 . S
C1810 C1814 1.350 . S
C1811 C1814 1.463 . S
C1811 C1816 1.350 . S
C1811 N1819 1.427 . S
C1812 H1803 0.930 . S
C1812 C1810 1.378 . S
C1812 C1813 1.367 . S
C1813 C1812 1.367 . S
C1813 C1815 1.433 . S
C1814 C1810 1.350 . S
C1814 C1811 1.463 . S
C1814 N1818 1.427 . S
C1815 H1805 0.929 . S
C1815 C1813 1.433 . S
C1815 N1818 1.384 . S
C1816 H1807 0.929 . S
C1816 C1808 1.378 . S
C1816 C1811 1.350 . S
C1817 H1804 0.929 . S
C1817 C1809 1.433 . S
C1817 N1819 1.384 . S
N1818 C1814 1.427 . S
N1818 C1815 1.384 . S
N1819 C1811 1.427 . S
N1819 C1817 1.384 . S
H1820 C1826 0.930 . S
H1821 C1830 0.930 . S
H1822 C1835 0.929 . S
H1823 C1833 0.929 . S
H1824 C1828 0.929 . S
H1825 C1834 0.929 . S
C1826 H1820 0.930 . S
C1826 C1827 1.367 . S
C1826 C1834 1.378 . S
C1827 C1826 1.367 . S
C1827 C1835 1.433 . S
C1828 H1824 0.929 . S
C1828 C1830 1.378 . S
C1828 C1832 1.350 . S
C1829 C1832 1.463 . S
C1829 C1834 1.350 . S
C1829 N1837 1.427 . S
C1830 H1821 0.930 . S
C1830 C1828 1.378 . S
C1830 C1831 1.367 . S
C1831 C1830 1.367 . S
C1831 C1833 1.433 . S
C1832 C1828 1.350 . S
C1832 C1829 1.463 . S
C1832 N1836 1.427 . S
C1833 H1823 0.929 . S
C1833 C1831 1.433 . S
C1833 N1836 1.384 . S
C1834 H1825 0.929 . S
C1834 C1826 1.378 . S
C1834 C1829 1.350 . S
C1835 H1822 0.929 . S
C1835 C1827 1.433 . S
C1835 N1837 1.384 . S
N1836 C1832 1.427 . S
N1836 C1833 1.384 . S
N1837 C1829 1.427 . S
N1837 C1835 1.384 . S
H1838 C1844 0.930 . S
H1839 C1848 0.930 . S
H1840 C1853 0.929 . S
H1841 C1851 0.929 . S
H1842 C1846 0.929 . S
H1843 C1852 0.929 . S
C1844 H1838 0.930 . S
C1844 C1845 1.367 . S
C1844 C1852 1.378 . S
C1845 C1844 1.367 . S
C1845 C1853 1.433 . S
C1846 H1842 0.929 . S
C1846 C1848 1.378 . S
C1846 C1850 1.350 . S
C1847 C1850 1.463 . S
C1847 C1852 1.350 . S
C1847 N1855 1.427 . S
C1848 H1839 0.930 . S
C1848 C1846 1.378 . S
C1848 C1849 1.367 . S
C1849 C1848 1.367 . S
C1849 C1851 1.433 . S
C1850 C1846 1.350 . S
C1850 C1847 1.463 . S
C1850 N1854 1.427 . S
C1851 H1841 0.929 . S
C1851 C1849 1.433 . S
C1851 N1854 1.384 . S
C1852 H1843 0.929 . S
C1852 C1844 1.378 . S
C1852 C1847 1.350 . S
C1853 H1840 0.929 . S
C1853 C1845 1.433 . S
C1853 N1855 1.384 . S
N1854 C1850 1.427 . S
N1854 C1851 1.384 . S
N1855 C1847 1.427 . S
N1855 C1853 1.384 . S
H1856 C1862 0.930 . S
H1857 C1866 0.930 . S
H1858 C1871 0.929 . S
H1859 C1869 0.929 . S
H1860 C1864 0.929 . S
H1861 C1870 0.929 . S
C1862 H1856 0.930 . S
C1862 C1863 1.367 . S
C1862 C1870 1.378 . S
C1863 C1862 1.367 . S
C1863 C1871 1.433 . S
C1864 H1860 0.929 . S
C1864 C1866 1.378 . S
C1864 C1868 1.350 . S
C1865 C1868 1.463 . S
C1865 C1870 1.350 . S
C1865 N1873 1.427 . S
C1866 H1857 0.930 . S
C1866 C1864 1.378 . S
C1866 C1867 1.367 . S
C1867 C1866 1.367 . S
C1867 C1869 1.433 . S
C1868 C1864 1.350 . S
C1868 C1865 1.463 . S
C1868 N1872 1.427 . S
C1869 H1859 0.929 . S
C1869 C1867 1.433 . S
C1869 N1872 1.384 . S
C1870 H1861 0.929 . S
C1870 C1862 1.378 . S
C1870 C1865 1.350 . S
C1871 H1858 0.929 . S
C1871 C1863 1.433 . S
C1871 N1873 1.384 . S
N1872 C1868 1.427 . S
N1872 C1869 1.384 . S
N1873 C1865 1.427 . S
N1873 C1871 1.384 . S
H1874 C1880 0.930 . S
H1875 C1884 0.930 . S
H1876 C1889 0.929 . S
H1877 C1887 0.929 . S
H1878 C1882 0.929 . S
H1879 C1888 0.929 . S
C1880 H1874 0.930 . S
C1880 C1881 1.367 . S
C1880 C1888 1.378 . S
C1881 C1880 1.367 . S
C1881 C1889 1.433 . S
C1882 H1878 0.929 . S
C1882 C1884 1.378 . S
C1882 C1886 1.350 . S
C1883 C1886 1.463 . S
C1883 C1888 1.350 . S
C1883 N1891 1.427 . S
C1884 H1875 0.930 . S
C1884 C1882 1.378 . S
C1884 C1885 1.367 . S
C1885 C1884 1.367 . S
C1885 C1887 1.433 . S
C1886 C1882 1.350 . S
C1886 C1883 1.463 . S
C1886 N1890 1.427 . S
C1887 H1877 0.929 . S
C1887 C1885 1.433 . S
C1887 N1890 1.384 . S
C1888 H1879 0.929 . S
C1888 C1880 1.378 . S
C1888 C1883 1.350 . S
C1889 H1876 0.929 . S
C1889 C1881 1.433 . S
C1889 N1891 1.384 . S
N1890 C1886 1.427 . S
N1890 C1887 1.384 . S
N1891 C1883 1.427 . S
N1891 C1889 1.384 . S
H1892 C1898 0.930 . S
H1893 C1902 0.930 . S
H1894 C1907 0.929 . S
H1895 C1905 0.929 . S
H1896 C1900 0.929 . S
H1897 C1906 0.929 . S
C1898 H1892 0.930 . S
C1898 C1899 1.367 . S
C1898 C1906 1.378 . S
C1899 C1898 1.367 . S
C1899 C1907 1.433 . S
C1900 H1896 0.929 . S
C1900 C1902 1.378 . S
C1900 C1904 1.350 . S
C1901 C1904 1.463 . S
C1901 C1906 1.350 . S
C1901 N1909 1.427 . S
C1902 H1893 0.930 . S
C1902 C1900 1.378 . S
C1902 C1903 1.367 . S
C1903 C1902 1.367 . S
C1903 C1905 1.433 . S
C1904 C1900 1.350 . S
C1904 C1901 1.463 . S
C1904 N1908 1.427 . S
C1905 H1895 0.929 . S
C1905 C1903 1.433 . S
C1905 N1908 1.384 . S
C1906 H1897 0.929 . S
C1906 C1898 1.378 . S
C1906 C1901 1.350 . S
C1907 H1894 0.929 . S
C1907 C1899 1.433 . S
C1907 N1909 1.384 . S
N1908 C1904 1.427 . S
N1908 C1905 1.384 . S
N1909 C1901 1.427 . S
N1909 C1907 1.384 . S
H1910 C1916 0.930 . S
H1911 C1920 0.930 . S
H1912 C1925 0.929 . S
H1913 C1923 0.966 . S
H1914 C1918 0.929 . S
H1915 C1924 0.929 . S
C1916 H1910 0.930 . S
C1916 C1917 1.367 1_556 S
C1916 C1924 1.378 . S
C1917 C1916 1.367 1_554 S
C1917 C1925 1.433 . S
C1918 H1914 0.929 . S
C1918 C1920 1.378 . S
C1918 C1922 1.350 . S
C1919 C1922 1.463 . S
C1919 C1924 1.350 1_554 S
C1919 N1927 1.427 . S
C1920 H1911 0.930 . S
C1920 C1918 1.378 . S
C1920 C1921 1.367 . S
C1921 C1920 1.367 . S
C1921 C1923 1.391 1_554 S
C1922 C1918 1.350 . S
C1922 C1919 1.463 . S
C1922 N1926 1.427 1_554 S
C1923 H1913 0.966 . S
C1923 C1921 1.391 1_556 S
C1923 N1926 1.388 . S
C1924 H1915 0.929 . S
C1924 C1916 1.378 . S
C1924 C1919 1.350 1_556 S
C1925 H1912 0.929 . S
C1925 C1917 1.433 . S
C1925 N1927 1.384 . S
N1926 C1922 1.427 1_556 S
N1926 C1923 1.388 . S
N1927 C1919 1.427 . S
N1927 C1925 1.384 . S
H1928 C1934 0.930 . S
H1929 C1938 0.930 . S
H1930 C1943 0.929 . S
H1931 C1941 0.929 . S
H1932 C1936 0.929 . S
H1933 C1942 0.929 . S
C1934 H1928 0.930 . S
C1934 C1935 1.367 . S
C1934 C1942 1.378 . S
C1935 C1934 1.367 . S
C1935 C1943 1.433 . S
C1936 H1932 0.929 . S
C1936 C1938 1.378 . S
C1936 C1940 1.350 . S
C1937 C1940 1.463 . S
C1937 C1942 1.350 . S
C1937 N1945 1.427 . S
C1938 H1929 0.930 . S
C1938 C1936 1.378 . S
C1938 C1939 1.367 . S
C1939 C1938 1.367 . S
C1939 C1941 1.433 . S
C1940 C1936 1.350 . S
C1940 C1937 1.463 . S
C1940 N1944 1.427 . S
C1941 H1931 0.929 . S
C1941 C1939 1.433 . S
C1941 N1944 1.384 . S
C1942 H1933 0.929 . S
C1942 C1934 1.378 . S
C1942 C1937 1.350 . S
C1943 H1930 0.929 . S
C1943 C1935 1.433 . S
C1943 N1945 1.384 . S
N1944 C1940 1.427 . S
N1944 C1941 1.384 . S
N1945 C1937 1.427 . S
N1945 C1943 1.384 . S
H1946 C1952 0.930 . S
H1947 C1956 0.930 . S
H1948 C1961 0.929 . S
H1949 C1959 0.933 . S
H1950 C1954 0.929 . S
H1951 C1960 0.929 . S
C1952 H1946 0.930 . S
C1952 C1953 1.367 . S
C1952 C1960 1.378 . S
C1953 C1952 1.367 . S
C1953 C1961 1.433 . S
C1954 H1950 0.929 . S
C1954 C1956 1.378 . S
C1954 C1958 1.350 1_556 S
C1955 C1958 1.463 . S
C1955 C1960 1.350 . S
C1955 N1963 1.427 . S
C1956 H1947 0.930 . S
C1956 C1954 1.378 . S
C1956 C1957 1.367 . S
C1957 C1956 1.367 . S
C1957 C1959 1.428 1_556 S
C1958 C1954 1.350 1_554 S
C1958 C1955 1.463 . S
C1958 N1962 1.427 . S
C1959 H1949 0.933 . S
C1959 C1957 1.428 1_554 S
C1959 N1962 1.388 . S
C1960 H1951 0.929 . S
C1960 C1952 1.378 . S
C1960 C1955 1.350 . S
C1961 H1948 0.929 . S
C1961 C1953 1.433 . S
C1961 N1963 1.384 . S
N1962 C1958 1.427 . S
N1962 C1959 1.388 . S
N1963 C1955 1.427 . S
N1963 C1961 1.384 . S
H1964 C1970 0.930 . S
H1965 C1974 0.930 . S
H1966 C1979 0.929 . S
H1967 C1977 0.929 . S
H1968 C1972 0.929 . S
H1969 C1978 0.929 . S
C1970 H1964 0.930 . S
C1970 C1971 1.367 . S
C1970 C1978 1.378 . S
C1971 C1970 1.367 . S
C1971 C1979 1.433 . S
C1972 H1968 0.929 . S
C1972 C1974 1.378 . S
C1972 C1976 1.350 . S
C1973 C1976 1.463 . S
C1973 C1978 1.350 . S
C1973 N1981 1.427 . S
C1974 H1965 0.930 . S
C1974 C1972 1.378 . S
C1974 C1975 1.367 . S
C1975 C1974 1.367 . S
C1975 C1977 1.433 . S
C1976 C1972 1.350 . S
C1976 C1973 1.463 . S
C1976 N1980 1.427 . S
C1977 H1967 0.929 . S
C1977 C1975 1.433 . S
C1977 N1980 1.384 . S
C1978 H1969 0.929 . S
C1978 C1970 1.378 . S
C1978 C1973 1.350 . S
C1979 H1966 0.929 . S
C1979 C1971 1.433 . S
C1979 N1981 1.384 . S
N1980 C1976 1.427 . S
N1980 C1977 1.384 . S
N1981 C1973 1.427 . S
N1981 C1979 1.384 . S
H1982 C1988 0.930 . S
H1983 C1992 0.930 . S
H1984 C1997 0.929 . S
H1985 C1995 0.929 . S
H1986 C1990 0.929 . S
H1987 C1996 0.929 . S
C1988 H1982 0.930 . S
C1988 C1989 1.367 . S
C1988 C1996 1.378 . S
C1989 C1988 1.367 . S
C1989 C1997 1.433 . S
C1990 H1986 0.929 . S
C1990 C1992 1.378 . S
C1990 C1994 1.350 . S
C1991 C1994 1.463 . S
C1991 C1996 1.350 . S
C1991 N1999 1.427 . S
C1992 H1983 0.930 . S
C1992 C1990 1.378 . S
C1992 C1993 1.367 . S
C1993 C1992 1.367 . S
C1993 C1995 1.433 . S
C1994 C1990 1.350 . S
C1994 C1991 1.463 . S
C1994 N1998 1.427 . S
C1995 H1985 0.929 . S
C1995 C1993 1.433 . S
C1995 N1998 1.384 . S
C1996 H1987 0.929 . S
C1996 C1988 1.378 . S
C1996 C1991 1.350 . S
C1997 H1984 0.929 . S
C1997 C1989 1.433 . S
C1997 N1999 1.384 . S
N1998 C1994 1.427 . S
N1998 C1995 1.384 . S
N1999 C1991 1.427 . S
N1999 C1997 1.384 . S
H2000 C2006 0.930 . S
H2001 C2010 0.930 . S
H2002 C2015 0.929 . S
H2003 C2013 0.929 . S
H2004 C2008 0.929 . S
H2005 C2014 0.929 . S
C2006 H2000 0.930 . S
C2006 C2007 1.367 . S
C2006 C2014 1.378 . S
C2007 C2006 1.367 . S
C2007 C2015 1.433 . S
C2008 H2004 0.929 . S
C2008 C2010 1.378 . S
C2008 C2012 1.350 . S
C2009 C2012 1.463 . S
C2009 C2014 1.350 . S
C2009 N2017 1.427 . S
C2010 H2001 0.930 . S
C2010 C2008 1.378 . S
C2010 C2011 1.367 . S
C2011 C2010 1.367 . S
C2011 C2013 1.433 . S
C2012 C2008 1.350 . S
C2012 C2009 1.463 . S
C2012 N2016 1.427 . S
C2013 H2003 0.929 . S
C2013 C2011 1.433 . S
C2013 N2016 1.384 . S
C2014 H2005 0.929 . S
C2014 C2006 1.378 . S
C2014 C2009 1.350 . S
C2015 H2002 0.929 . S
C2015 C2007 1.433 . S
C2015 N2017 1.384 . S
N2016 C2012 1.427 . S
N2016 C2013 1.384 . S
N2017 C2009 1.427 . S
N2017 C2015 1.384 . S
H2018 C2024 0.930 . S
H2019 C2028 0.930 . S
H2020 C2033 0.929 . S
H2021 C2031 0.929 . S
H2022 C2026 0.929 . S
H2023 C2032 0.929 . S
C2024 H2018 0.930 . S
C2024 C2025 1.367 . S
C2024 C2032 1.378 . S
C2025 C2024 1.367 . S
C2025 C2033 1.433 . S
C2026 H2022 0.929 . S
C2026 C2028 1.378 . S
C2026 C2030 1.350 . S
C2027 C2030 1.463 . S
C2027 C2032 1.350 . S
C2027 N2035 1.427 . S
C2028 H2019 0.930 . S
C2028 C2026 1.378 . S
C2028 C2029 1.367 . S
C2029 C2028 1.367 . S
C2029 C2031 1.433 . S
C2030 C2026 1.350 . S
C2030 C2027 1.463 . S
C2030 N2034 1.427 . S
C2031 H2021 0.929 . S
C2031 C2029 1.433 . S
C2031 N2034 1.384 . S
C2032 H2023 0.929 . S
C2032 C2024 1.378 . S
C2032 C2027 1.350 . S
C2033 H2020 0.929 . S
C2033 C2025 1.433 . S
C2033 N2035 1.384 . S
N2034 C2030 1.427 . S
N2034 C2031 1.384 . S
N2035 C2027 1.427 . S
N2035 C2033 1.384 . S
H2036 C2042 0.930 . S
H2037 C2046 0.930 . S
H2038 C2051 0.929 . S
H2039 C2049 0.929 . S
H2040 C2044 0.929 . S
H2041 C2050 0.929 . S
C2042 H2036 0.930 . S
C2042 C2043 1.367 . S
C2042 C2050 1.378 . S
C2043 C2042 1.367 . S
C2043 C2051 1.433 1_455 S
C2044 H2040 0.929 . S
C2044 C2046 1.378 . S
C2044 C2048 1.350 . S
C2045 C2048 1.465 . S
C2045 C2050 1.335 1_655 S
C2045 N2053 1.441 . S
C2046 H2037 0.930 . S
C2046 C2044 1.378 . S
C2046 C2047 1.367 . S
C2047 C2046 1.367 . S
C2047 C2049 1.433 1_655 S
C2048 C2044 1.350 . S
C2048 C2045 1.465 . S
C2048 N2052 1.427 1_655 S
C2049 H2039 0.929 . S
C2049 C2047 1.433 1_455 S
C2049 N2052 1.384 . S
C2050 H2041 0.929 . S
C2050 C2042 1.378 . S
C2050 C2045 1.335 1_455 S
C2051 H2038 0.929 . S
C2051 C2043 1.433 1_655 S
C2051 N2053 1.384 . S
N2052 C2048 1.427 1_455 S
N2052 C2049 1.384 . S
N2053 C2045 1.441 . S
N2053 C2051 1.384 . S
H2054 C2060 0.930 . S
H2055 C2064 0.930 . S
H2056 C2069 0.929 . S
H2057 C2067 0.929 . S
H2058 C2062 0.929 . S
H2059 C2068 0.929 . S
C2060 H2054 0.930 . S
C2060 C2061 1.367 . S
C2060 C2068 1.378 . S
C2061 C2060 1.367 . S
C2061 C2069 1.433 . S
C2062 H2058 0.929 . S
C2062 C2064 1.378 . S
C2062 C2066 1.350 . S
C2063 C2066 1.463 . S
C2063 C2068 1.350 . S
C2063 N2071 1.427 . S
C2064 H2055 0.930 . S
C2064 C2062 1.378 . S
C2064 C2065 1.367 . S
C2065 C2064 1.367 . S
C2065 C2067 1.433 . S
C2066 C2062 1.350 . S
C2066 C2063 1.463 . S
C2066 N2070 1.427 . S
C2067 H2057 0.929 . S
C2067 C2065 1.433 . S
C2067 N2070 1.384 . S
C2068 H2059 0.929 . S
C2068 C2060 1.378 . S
C2068 C2063 1.350 . S
C2069 H2056 0.929 . S
C2069 C2061 1.433 . S
C2069 N2071 1.384 . S
N2070 C2066 1.427 . S
N2070 C2067 1.384 . S
N2071 C2063 1.427 . S
N2071 C2069 1.384 . S
H2072 C2078 0.930 . S
H2073 C2082 0.930 . S
H2074 C2087 0.929 . S
H2075 C2085 0.929 . S
H2076 C2080 0.929 . S
H2077 C2086 0.929 . S
C2078 H2072 0.930 . S
C2078 C2079 1.367 . S
C2078 C2086 1.378 . S
C2079 C2078 1.367 . S
C2079 C2087 1.433 . S
C2080 H2076 0.929 . S
C2080 C2082 1.378 . S
C2080 C2084 1.350 . S
C2081 C2084 1.463 . S
C2081 C2086 1.350 . S
C2081 N2089 1.427 . S
C2082 H2073 0.930 . S
C2082 C2080 1.378 . S
C2082 C2083 1.367 . S
C2083 C2082 1.367 . S
C2083 C2085 1.433 . S
C2084 C2080 1.350 . S
C2084 C2081 1.463 . S
C2084 N2088 1.427 . S
C2085 H2075 0.929 . S
C2085 C2083 1.433 . S
C2085 N2088 1.384 . S
C2086 H2077 0.929 . S
C2086 C2078 1.378 . S
C2086 C2081 1.350 . S
C2087 H2074 0.929 . S
C2087 C2079 1.433 . S
C2087 N2089 1.384 . S
N2088 C2084 1.427 . S
N2088 C2085 1.384 . S
N2089 C2081 1.427 . S
N2089 C2087 1.384 . S
H2090 C2096 0.930 . S
H2091 C2100 0.930 . S
H2092 C2105 0.929 . S
H2093 C2103 0.929 . S
H2094 C2098 0.929 . S
H2095 C2104 0.929 . S
C2096 H2090 0.930 . S
C2096 C2097 1.367 . S
C2096 C2104 1.378 . S
C2097 C2096 1.367 . S
C2097 C2105 1.433 . S
C2098 H2094 0.929 . S
C2098 C2100 1.378 . S
C2098 C2102 1.350 . S
C2099 C2102 1.463 . S
C2099 C2104 1.350 . S
C2099 N2107 1.427 . S
C2100 H2091 0.930 . S
C2100 C2098 1.378 . S
C2100 C2101 1.367 . S
C2101 C2100 1.367 . S
C2101 C2103 1.433 . S
C2102 C2098 1.350 . S
C2102 C2099 1.463 . S
C2102 N2106 1.427 . S
C2103 H2093 0.929 . S
C2103 C2101 1.433 . S
C2103 N2106 1.384 . S
C2104 H2095 0.929 . S
C2104 C2096 1.378 . S
C2104 C2099 1.350 . S
C2105 H2092 0.929 . S
C2105 C2097 1.433 . S
C2105 N2107 1.384 . S
N2106 C2102 1.427 . S
N2106 C2103 1.384 . S
N2107 C2099 1.427 . S
N2107 C2105 1.384 . S
H2108 C2114 0.930 . S
H2109 C2118 0.930 . S
H2110 C2123 0.929 . S
H2111 C2121 0.929 . S
H2112 C2116 0.929 . S
H2113 C2122 0.929 . S
C2114 H2108 0.930 . S
C2114 C2115 1.367 1_655 S
C2114 C2122 1.378 . S
C2115 C2114 1.367 1_455 S
C2115 C2123 1.433 . S
C2116 H2112 0.929 . S
C2116 C2118 1.378 . S
C2116 C2120 1.350 1_455 S
C2117 C2120 1.465 . S
C2117 C2122 1.364 . S
C2117 N2125 1.410 1_655 S
C2118 H2109 0.930 . S
C2118 C2116 1.378 . S
C2118 C2119 1.367 1_455 S
C2119 C2118 1.367 1_655 S
C2119 C2121 1.433 . S
C2120 C2116 1.350 1_655 S
C2120 C2117 1.465 . S
C2120 N2124 1.427 . S
C2121 H2111 0.929 . S
C2121 C2119 1.433 . S
C2121 N2124 1.384 . S
C2122 H2113 0.929 . S
C2122 C2114 1.378 . S
C2122 C2117 1.364 . S
C2123 H2110 0.929 . S
C2123 C2115 1.433 . S
C2123 N2125 1.384 . S
N2124 C2120 1.427 . S
N2124 C2121 1.384 . S
N2125 C2117 1.410 1_455 S
N2125 C2123 1.384 . S
H2126 C2132 0.930 . S
H2127 C2136 0.930 . S
H2128 C2141 0.929 . S
H2129 C2139 0.929 . S
H2130 C2134 0.929 . S
H2131 C2140 0.929 . S
C2132 H2126 0.930 . S
C2132 C2133 1.367 . S
C2132 C2140 1.378 . S
C2133 C2132 1.367 . S
C2133 C2141 1.433 . S
C2134 H2130 0.929 . S
C2134 C2136 1.378 . S
C2134 C2138 1.350 . S
C2135 C2138 1.463 . S
C2135 C2140 1.350 . S
C2135 N2143 1.427 . S
C2136 H2127 0.930 . S
C2136 C2134 1.378 . S
C2136 C2137 1.367 . S
C2137 C2136 1.367 . S
C2137 C2139 1.433 . S
C2138 C2134 1.350 . S
C2138 C2135 1.463 . S
C2138 N2142 1.427 . S
C2139 H2129 0.929 . S
C2139 C2137 1.433 . S
C2139 N2142 1.384 . S
C2140 H2131 0.929 . S
C2140 C2132 1.378 . S
C2140 C2135 1.350 . S
C2141 H2128 0.929 . S
C2141 C2133 1.433 . S
C2141 N2143 1.384 . S
N2142 C2138 1.427 . S
N2142 C2139 1.384 . S
N2143 C2135 1.427 . S
N2143 C2141 1.384 . S
H2144 C2150 0.930 . S
H2145 C2154 0.930 . S
H2146 C2159 0.929 . S
H2147 C2157 0.929 . S
H2148 C2152 0.929 . S
H2149 C2158 0.929 . S
C2150 H2144 0.930 . S
C2150 C2151 1.367 . S
C2150 C2158 1.378 . S
C2151 C2150 1.367 . S
C2151 C2159 1.433 . S
C2152 H2148 0.929 . S
C2152 C2154 1.378 . S
C2152 C2156 1.350 . S
C2153 C2156 1.463 . S
C2153 C2158 1.350 . S
C2153 N2161 1.427 . S
C2154 H2145 0.930 . S
C2154 C2152 1.378 . S
C2154 C2155 1.367 . S
C2155 C2154 1.367 . S
C2155 C2157 1.433 . S
C2156 C2152 1.350 . S
C2156 C2153 1.463 . S
C2156 N2160 1.427 . S
C2157 H2147 0.929 . S
C2157 C2155 1.433 . S
C2157 N2160 1.384 . S
C2158 H2149 0.929 . S
C2158 C2150 1.378 . S
C2158 C2153 1.350 . S
C2159 H2146 0.929 . S
C2159 C2151 1.433 . S
C2159 N2161 1.384 . S
N2160 C2156 1.427 . S
N2160 C2157 1.384 . S
N2161 C2153 1.427 . S
N2161 C2159 1.384 . S
H2162 C2168 0.930 . S
H2163 C2172 0.930 . S
H2164 C2177 0.929 . S
H2165 C2175 0.929 . S
H2166 C2170 0.929 . S
H2167 C2176 0.929 . S
C2168 H2162 0.930 . S
C2168 C2169 1.367 . S
C2168 C2176 1.378 . S
C2169 C2168 1.367 . S
C2169 C2177 1.433 . S
C2170 H2166 0.929 . S
C2170 C2172 1.378 . S
C2170 C2174 1.350 . S
C2171 C2174 1.463 . S
C2171 C2176 1.350 . S
C2171 N2179 1.427 . S
C2172 H2163 0.930 . S
C2172 C2170 1.378 . S
C2172 C2173 1.367 . S
C2173 C2172 1.367 . S
C2173 C2175 1.433 . S
C2174 C2170 1.350 . S
C2174 C2171 1.463 . S
C2174 N2178 1.427 . S
C2175 H2165 0.929 . S
C2175 C2173 1.433 . S
C2175 N2178 1.384 . S
C2176 H2167 0.929 . S
C2176 C2168 1.378 . S
C2176 C2171 1.350 . S
C2177 H2164 0.929 . S
C2177 C2169 1.433 . S
C2177 N2179 1.384 . S
N2178 C2174 1.427 . S
N2178 C2175 1.384 . S
N2179 C2171 1.427 . S
N2179 C2177 1.384 . S
H2180 C2186 0.930 . S
H2181 C2190 0.930 . S
H2182 C2195 0.929 . S
H2183 C2193 0.929 . S
H2184 C2188 0.929 . S
H2185 C2194 0.929 . S
C2186 H2180 0.930 . S
C2186 C2187 1.367 . S
C2186 C2194 1.378 . S
C2187 C2186 1.367 . S
C2187 C2195 1.433 . S
C2188 H2184 0.929 . S
C2188 C2190 1.378 . S
C2188 C2192 1.350 . S
C2189 C2192 1.463 . S
C2189 C2194 1.350 . S
C2189 N2197 1.427 . S
C2190 H2181 0.930 . S
C2190 C2188 1.378 . S
C2190 C2191 1.367 . S
C2191 C2190 1.367 . S
C2191 C2193 1.433 . S
C2192 C2188 1.350 . S
C2192 C2189 1.463 . S
C2192 N2196 1.427 . S
C2193 H2183 0.929 . S
C2193 C2191 1.433 . S
C2193 N2196 1.384 . S
C2194 H2185 0.929 . S
C2194 C2186 1.378 . S
C2194 C2189 1.350 . S
C2195 H2182 0.929 . S
C2195 C2187 1.433 . S
C2195 N2197 1.384 . S
N2196 C2192 1.427 . S
N2196 C2193 1.384 . S
N2197 C2189 1.427 . S
N2197 C2195 1.384 . S
H2198 C2204 0.930 . S
H2199 C2208 0.930 . S
H2200 C2213 0.929 . S
H2201 C2211 0.929 . S
H2202 C2206 0.929 . S
H2203 C2212 0.929 . S
C2204 H2198 0.930 . S
C2204 C2205 1.367 . S
C2204 C2212 1.378 . S
C2205 C2204 1.367 . S
C2205 C2213 1.433 . S
C2206 H2202 0.929 . S
C2206 C2208 1.378 . S
C2206 C2210 1.350 . S
C2207 C2210 1.463 . S
C2207 C2212 1.350 . S
C2207 N2215 1.427 . S
C2208 H2199 0.930 . S
C2208 C2206 1.378 . S
C2208 C2209 1.367 . S
C2209 C2208 1.367 . S
C2209 C2211 1.433 . S
C2210 C2206 1.350 . S
C2210 C2207 1.463 . S
C2210 N2214 1.427 . S
C2211 H2201 0.929 . S
C2211 C2209 1.433 . S
C2211 N2214 1.384 . S
C2212 H2203 0.929 . S
C2212 C2204 1.378 . S
C2212 C2207 1.350 . S
C2213 H2200 0.929 . S
C2213 C2205 1.433 . S
C2213 N2215 1.384 . S
N2214 C2210 1.427 . S
N2214 C2211 1.384 . S
N2215 C2207 1.427 . S
N2215 C2213 1.384 . S
H2216 C2222 0.930 . S
H2217 C2226 0.930 . S
H2218 C2231 0.929 . S
H2219 C2229 0.929 . S
H2220 C2224 0.929 . S
H2221 C2230 0.929 . S
C2222 H2216 0.930 . S
C2222 C2223 1.367 . S
C2222 C2230 1.378 . S
C2223 C2222 1.367 . S
C2223 C2231 1.433 . S
C2224 H2220 0.929 . S
C2224 C2226 1.378 . S
C2224 C2228 1.350 . S
C2225 C2228 1.463 . S
C2225 C2230 1.350 . S
C2225 N2233 1.427 . S
C2226 H2217 0.930 . S
C2226 C2224 1.378 . S
C2226 C2227 1.367 . S
C2227 C2226 1.367 . S
C2227 C2229 1.433 . S
C2228 C2224 1.350 . S
C2228 C2225 1.463 . S
C2228 N2232 1.427 . S
C2229 H2219 0.929 . S
C2229 C2227 1.433 . S
C2229 N2232 1.384 . S
C2230 H2221 0.929 . S
C2230 C2222 1.378 . S
C2230 C2225 1.350 . S
C2231 H2218 0.929 . S
C2231 C2223 1.433 . S
C2231 N2233 1.384 . S
N2232 C2228 1.427 . S
N2232 C2229 1.384 . S
N2233 C2225 1.427 . S
N2233 C2231 1.384 . S
H2234 C2240 0.930 . S
H2235 C2244 0.930 . S
H2236 C2249 0.929 . S
H2237 C2247 0.929 . S
H2238 C2242 0.929 . S
H2239 C2248 0.929 . S
C2240 H2234 0.930 . S
C2240 C2241 1.367 . S
C2240 C2248 1.378 . S
C2241 C2240 1.367 . S
C2241 C2249 1.433 . S
C2242 H2238 0.929 . S
C2242 C2244 1.378 . S
C2242 C2246 1.350 . S
C2243 C2246 1.463 . S
C2243 C2248 1.350 . S
C2243 N2251 1.427 . S
C2244 H2235 0.930 . S
C2244 C2242 1.378 . S
C2244 C2245 1.367 . S
C2245 C2244 1.367 . S
C2245 C2247 1.433 . S
C2246 C2242 1.350 . S
C2246 C2243 1.463 . S
C2246 N2250 1.427 . S
C2247 H2237 0.929 . S
C2247 C2245 1.433 . S
C2247 N2250 1.384 . S
C2248 H2239 0.929 . S
C2248 C2240 1.378 . S
C2248 C2243 1.350 . S
C2249 H2236 0.929 . S
C2249 C2241 1.433 . S
C2249 N2251 1.384 . S
N2250 C2246 1.427 . S
N2250 C2247 1.384 . S
N2251 C2243 1.427 . S
N2251 C2249 1.384 . S
H2252 C2258 0.930 . S
H2253 C2262 0.930 . S
H2254 C2267 0.929 . S
H2255 C2265 0.929 . S
H2256 C2260 0.929 . S
H2257 C2266 0.929 . S
C2258 H2252 0.930 . S
C2258 C2259 1.367 . S
C2258 C2266 1.378 . S
C2259 C2258 1.367 . S
C2259 C2267 1.433 . S
C2260 H2256 0.929 . S
C2260 C2262 1.378 . S
C2260 C2264 1.350 . S
C2261 C2264 1.463 . S
C2261 C2266 1.350 . S
C2261 N2269 1.427 . S
C2262 H2253 0.930 . S
C2262 C2260 1.378 . S
C2262 C2263 1.367 . S
C2263 C2262 1.367 . S
C2263 C2265 1.433 . S
C2264 C2260 1.350 . S
C2264 C2261 1.463 . S
C2264 N2268 1.427 . S
C2265 H2255 0.929 . S
C2265 C2263 1.433 . S
C2265 N2268 1.384 . S
C2266 H2257 0.929 . S
C2266 C2258 1.378 . S
C2266 C2261 1.350 . S
C2267 H2254 0.929 . S
C2267 C2259 1.433 . S
C2267 N2269 1.384 . S
N2268 C2264 1.427 . S
N2268 C2265 1.384 . S
N2269 C2261 1.427 . S
N2269 C2267 1.384 . S
H2270 C2276 0.930 . S
H2271 C2280 0.930 . S
H2272 C2285 0.929 . S
H2273 C2283 0.929 . S
H2274 C2278 0.929 . S
H2275 C2284 0.929 . S
C2276 H2270 0.930 . S
C2276 C2277 1.367 . S
C2276 C2284 1.378 . S
C2277 C2276 1.367 . S
C2277 C2285 1.433 . S
C2278 H2274 0.929 . S
C2278 C2280 1.378 . S
C2278 C2282 1.350 . S
C2279 C2282 1.463 . S
C2279 C2284 1.350 . S
C2279 N2287 1.427 . S
C2280 H2271 0.930 . S
C2280 C2278 1.378 . S
C2280 C2281 1.367 . S
C2281 C2280 1.367 . S
C2281 C2283 1.433 . S
C2282 C2278 1.350 . S
C2282 C2279 1.463 . S
C2282 N2286 1.427 . S
C2283 H2273 0.929 . S
C2283 C2281 1.433 . S
C2283 N2286 1.384 . S
C2284 H2275 0.929 . S
C2284 C2276 1.378 . S
C2284 C2279 1.350 . S
C2285 H2272 0.929 . S
C2285 C2277 1.433 . S
C2285 N2287 1.384 . S
N2286 C2282 1.427 . S
N2286 C2283 1.384 . S
N2287 C2279 1.427 . S
N2287 C2285 1.384 . S
H2288 C2294 0.930 . S
H2289 C2298 0.930 . S
H2290 C2303 0.929 . S
H2291 C2301 0.929 . S
H2292 C2296 0.929 . S
H2293 C2302 0.929 . S
C2294 H2288 0.930 . S
C2294 C2295 1.367 . S
C2294 C2302 1.378 . S
C2295 C2294 1.367 . S
C2295 C2303 1.433 . S
C2296 H2292 0.929 . S
C2296 C2298 1.378 . S
C2296 C2300 1.350 . S
C2297 C2300 1.463 . S
C2297 C2302 1.350 . S
C2297 N2305 1.427 . S
C2298 H2289 0.930 . S
C2298 C2296 1.378 . S
C2298 C2299 1.367 . S
C2299 C2298 1.367 . S
C2299 C2301 1.433 . S
C2300 C2296 1.350 . S
C2300 C2297 1.463 . S
C2300 N2304 1.427 . S
C2301 H2291 0.929 . S
C2301 C2299 1.433 . S
C2301 N2304 1.384 . S
C2302 H2293 0.929 . S
C2302 C2294 1.378 . S
C2302 C2297 1.350 . S
C2303 H2290 0.929 . S
C2303 C2295 1.433 . S
C2303 N2305 1.384 . S
N2304 C2300 1.427 . S
N2304 C2301 1.384 . S
N2305 C2297 1.427 . S
N2305 C2303 1.384 . S
H2306 C2312 0.930 . S
H2307 C2316 0.930 . S
H2308 C2321 0.929 . S
H2309 C2319 0.929 . S
H2310 C2314 0.929 . S
H2311 C2320 0.929 . S
C2312 H2306 0.930 . S
C2312 C2313 1.367 . S
C2312 C2320 1.378 . S
C2313 C2312 1.367 . S
C2313 C2321 1.433 . S
C2314 H2310 0.929 . S
C2314 C2316 1.378 . S
C2314 C2318 1.350 . S
C2315 C2318 1.463 . S
C2315 C2320 1.350 . S
C2315 N2323 1.427 . S
C2316 H2307 0.930 . S
C2316 C2314 1.378 . S
C2316 C2317 1.367 . S
C2317 C2316 1.367 . S
C2317 C2319 1.433 . S
C2318 C2314 1.350 . S
C2318 C2315 1.463 . S
C2318 N2322 1.427 . S
C2319 H2309 0.929 . S
C2319 C2317 1.433 . S
C2319 N2322 1.384 . S
C2320 H2311 0.929 . S
C2320 C2312 1.378 . S
C2320 C2315 1.350 . S
C2321 H2308 0.929 . S
C2321 C2313 1.433 . S
C2321 N2323 1.384 . S
N2322 C2318 1.427 . S
N2322 C2319 1.384 . S
N2323 C2315 1.427 . S
N2323 C2321 1.384 . S
H2324 C2330 0.930 . S
H2325 C2334 0.930 . S
H2326 C2339 0.929 . S
H2327 C2337 0.929 . S
H2328 C2332 0.929 . S
H2329 C2338 0.929 . S
C2330 H2324 0.930 . S
C2330 C2331 1.367 . S
C2330 C2338 1.378 . S
C2331 C2330 1.367 . S
C2331 C2339 1.433 . S
C2332 H2328 0.929 . S
C2332 C2334 1.378 . S
C2332 C2336 1.350 . S
C2333 C2336 1.463 . S
C2333 C2338 1.350 . S
C2333 N2341 1.427 . S
C2334 H2325 0.930 . S
C2334 C2332 1.378 . S
C2334 C2335 1.367 . S
C2335 C2334 1.367 . S
C2335 C2337 1.433 . S
C2336 C2332 1.350 . S
C2336 C2333 1.463 . S
C2336 N2340 1.427 . S
C2337 H2327 0.929 . S
C2337 C2335 1.433 . S
C2337 N2340 1.384 . S
C2338 H2329 0.929 . S
C2338 C2330 1.378 . S
C2338 C2333 1.350 . S
C2339 H2326 0.929 . S
C2339 C2331 1.433 . S
C2339 N2341 1.384 . S
N2340 C2336 1.427 . S
N2340 C2337 1.384 . S
N2341 C2333 1.427 . S
N2341 C2339 1.384 . S
H2342 C2348 0.930 . S
H2343 C2352 0.930 . S
H2344 C2357 0.929 . S
H2345 C2355 0.929 . S
H2346 C2350 0.929 . S
H2347 C2356 0.929 . S
C2348 H2342 0.930 . S
C2348 C2349 1.367 1_556 S
C2348 C2356 1.378 . S
C2349 C2348 1.367 1_554 S
C2349 C2357 1.433 . S
C2350 H2346 0.929 . S
C2350 C2352 1.378 . S
C2350 C2354 1.350 1_554 S
C2351 C2354 1.463 . S
C2351 C2356 1.350 . S
C2351 N2359 1.427 1_556 S
C2352 H2343 0.930 . S
C2352 C2350 1.378 . S
C2352 C2353 1.367 1_554 S
C2353 C2352 1.367 1_556 S
C2353 C2355 1.433 . S
C2354 C2350 1.350 1_556 S
C2354 C2351 1.463 . S
C2354 N2358 1.427 . S
C2355 H2345 0.929 . S
C2355 C2353 1.433 . S
C2355 N2358 1.384 . S
C2356 H2347 0.929 . S
C2356 C2348 1.378 . S
C2356 C2351 1.350 . S
C2357 H2344 0.929 . S
C2357 C2349 1.433 . S
C2357 N2359 1.384 . S
N2358 C2354 1.427 . S
N2358 C2355 1.384 . S
N2359 C2351 1.427 1_554 S
N2359 C2357 1.384 . S
H2360 C2366 0.930 . S
H2361 C2370 0.930 . S
H2362 C2375 0.929 . S
H2363 C2373 0.929 . S
H2364 C2368 0.929 . S
H2365 C2374 0.929 . S
C2366 H2360 0.930 . S
C2366 C2367 1.367 . S
C2366 C2374 1.378 . S
C2367 C2366 1.367 . S
C2367 C2375 1.433 . S
C2368 H2364 0.929 . S
C2368 C2370 1.378 . S
C2368 C2372 1.350 . S
C2369 C2372 1.463 . S
C2369 C2374 1.350 . S
C2369 N2377 1.427 . S
C2370 H2361 0.930 . S
C2370 C2368 1.378 . S
C2370 C2371 1.367 . S
C2371 C2370 1.367 . S
C2371 C2373 1.433 . S
C2372 C2368 1.350 . S
C2372 C2369 1.463 . S
C2372 N2376 1.427 . S
C2373 H2363 0.929 . S
C2373 C2371 1.433 . S
C2373 N2376 1.384 . S
C2374 H2365 0.929 . S
C2374 C2366 1.378 . S
C2374 C2369 1.350 . S
C2375 H2362 0.929 . S
C2375 C2367 1.433 . S
C2375 N2377 1.384 . S
N2376 C2372 1.427 . S
N2376 C2373 1.384 . S
N2377 C2369 1.427 . S
N2377 C2375 1.384 . S
H2378 C2384 0.930 . S
H2379 C2388 0.930 . S
H2380 C2393 0.929 . S
H2381 C2391 0.929 . S
H2382 C2386 0.929 1_556 S
H2383 C2392 0.929 . S
C2384 H2378 0.930 . S
C2384 C2385 1.367 . S
C2384 C2392 1.378 . S
C2385 C2384 1.367 . S
C2385 C2393 1.433 1_554 S
C2386 H2382 0.929 1_554 S
C2386 C2388 1.378 . S
C2386 C2390 1.350 . S
C2387 C2390 1.463 . S
C2387 C2392 1.350 . S
C2387 N2395 1.427 1_554 S
C2388 H2379 0.930 . S
C2388 C2386 1.378 . S
C2388 C2389 1.367 . S
C2389 C2388 1.367 . S
C2389 C2391 1.433 . S
C2390 C2386 1.350 . S
C2390 C2387 1.463 . S
C2390 N2394 1.427 . S
C2391 H2381 0.929 . S
C2391 C2389 1.433 . S
C2391 N2394 1.384 . S
C2392 H2383 0.929 . S
C2392 C2384 1.378 . S
C2392 C2387 1.350 . S
C2393 H2380 0.929 . S
C2393 C2385 1.433 1_556 S
C2393 N2395 1.384 . S
N2394 C2390 1.427 . S
N2394 C2391 1.384 . S
N2395 C2387 1.427 1_556 S
N2395 C2393 1.384 . S
H2396 C2402 0.930 . S
H2397 C2406 0.930 . S
H2398 C2411 0.929 . S
H2399 C2409 0.929 . S
H2400 C2404 0.929 . S
H2401 C2410 0.929 . S
C2402 H2396 0.930 . S
C2402 C2403 1.367 . S
C2402 C2410 1.378 . S
C2403 C2402 1.367 . S
C2403 C2411 1.433 . S
C2404 H2400 0.929 . S
C2404 C2406 1.378 . S
C2404 C2408 1.350 . S
C2405 C2408 1.463 . S
C2405 C2410 1.350 . S
C2405 N2413 1.427 . S
C2406 H2397 0.930 . S
C2406 C2404 1.378 . S
C2406 C2407 1.367 . S
C2407 C2406 1.367 . S
C2407 C2409 1.433 . S
C2408 C2404 1.350 . S
C2408 C2405 1.463 . S
C2408 N2412 1.427 . S
C2409 H2399 0.929 . S
C2409 C2407 1.433 . S
C2409 N2412 1.384 . S
C2410 H2401 0.929 . S
C2410 C2402 1.378 . S
C2410 C2405 1.350 . S
C2411 H2398 0.929 . S
C2411 C2403 1.433 . S
C2411 N2413 1.384 . S
N2412 C2408 1.427 . S
N2412 C2409 1.384 . S
N2413 C2405 1.427 . S
N2413 C2411 1.384 . S
H2414 C2420 0.930 . S
H2415 C2424 0.930 . S
H2416 C2429 0.929 . S
H2417 C2427 0.929 . S
H2418 C2422 0.929 . S
H2419 C2428 0.929 . S
C2420 H2414 0.930 . S
C2420 C2421 1.367 . S
C2420 C2428 1.378 . S
C2421 C2420 1.367 . S
C2421 C2429 1.433 . S
C2422 H2418 0.929 . S
C2422 C2424 1.378 . S
C2422 C2426 1.350 . S
C2423 C2426 1.463 . S
C2423 C2428 1.350 . S
C2423 N2431 1.427 . S
C2424 H2415 0.930 . S
C2424 C2422 1.378 . S
C2424 C2425 1.367 . S
C2425 C2424 1.367 . S
C2425 C2427 1.433 . S
C2426 C2422 1.350 . S
C2426 C2423 1.463 . S
C2426 N2430 1.427 . S
C2427 H2417 0.929 . S
C2427 C2425 1.433 . S
C2427 N2430 1.384 . S
C2428 H2419 0.929 . S
C2428 C2420 1.378 . S
C2428 C2423 1.350 . S
C2429 H2416 0.929 . S
C2429 C2421 1.433 . S
C2429 N2431 1.384 . S
N2430 C2426 1.427 . S
N2430 C2427 1.384 . S
N2431 C2423 1.427 . S
N2431 C2429 1.384 . S
C715 C352 1.162 . S
C711 C7 1.182 . S
C729 C22 1.415 . S
C733 C380 1.318 . S
C747 C31 1.185 . S
C751 C398 1.163 . S
C769 C424 1.324 . S
C765 C51 1.480 . S
C783 C17 1.506 . S
C787 C447 1.354 . S
C805 C467 1.102 . S
C801 C36 1.129 . S
C823 C495 1.382 1_556 S
C819 C49 1.458 . S
C837 C9 1.157 . S
C841 C513 1.138 . S
C855 C63 1.375 . S
C859 C354 1.409 . S
C873 C73 1.123 . S
C877 C376 1.100 . S
C895 C400 1.423 . S
C891 C91 1.395 1_545 S
C913 C421 1.136 . S
C909 C101 1.159 . S
C927 C59 1.172 . S
C931 C444 1.143 . S
C949 C469 1.407 . S
C945 C77 1.371 . S
C967 C491 1.098 . S
C963 C87 1.118 1_565 S
C985 C515 1.409 . S
C981 C105 1.379 . S
C1003 C355 1.001 1_556 S
C999 C107 1.071 . S
C1021 C538 1.193 . S
C1017 C120 1.189 . S
C1035 C135 1.073 . S
C1039 C562 0.975 . S
C1057 C586 1.138 . S
C1053 C148 1.167 . S
C1071 C65 1.041 . S
C1075 C516 0.950 . S
C1093 C401 1.031 . S
C1089 C79 1.107 . S
C1107 C134 1.141 . S
C1111 C607 1.143 . S
C1129 C632 1.098 . S
C1125 C162 1.128 . S
C1143 C171 1.174 . S
C1147 C353 1.160 . S
C1165 C630 1.033 . S
C1161 C190 1.031 . S
C1179 C203 1.142 . S
C1183 C399 1.163 . S
C1197 C219 1.020 . S
C1201 C609 1.002 . S
C1219 C448 1.011 . S
C1215 C189 1.009 . S
C1237 C560 1.112 . S
C1233 C204 1.125 . S
C1255 C492 1.086 . S
C1251 C213 1.083 . S
C1273 C652 1.147 . S
C1269 C177 1.157 . S
C1291 C357 0.947 . S
C1287 C227 0.992 . S
C1305 C245 1.301 . S
C1309 C628 1.316 . S
C1327 C403 0.940 . S
C1323 C255 0.998 . S
C1341 C273 1.269 . S
C1345 C606 1.289 . S
C1359 C231 1.292 . S
C1363 C445 1.310 . S
C1377 C241 0.987 . S
C1381 C564 0.930 . S
C1399 C490 1.313 . S
C1395 C259 1.304 . S
C1413 C269 0.986 . S
C1417 C656 0.934 . S
C1431 C275 1.341 . S
C1435 C356 1.295 . S
C1449 C288 1.241 . S
C1453 C541 1.163 . S
C1467 C303 1.309 . S
C1471 C471 1.263 . S
C1485 C316 1.237 . S
C1489 C585 1.127 . S
C1507 C655 1.272 . S
C1503 C233 1.307 . S
C1525 C402 1.318 . S
C1521 C247 1.356 . S
C1543 C426 1.149 . S
C1539 C302 1.202 . S
C1561 C378 1.095 . S
C1557 C330 1.203 . S
C1575 C35 1.183 . S
C1579 C674 1.164 . S
C1597 C633 1.305 . S
C1593 C50 1.411 . S
C1615 C697 1.159 . S
C1611 C3 1.186 . S
C1629 C23 1.481 . S
C1633 C608 1.325 . S
C1647 C45 1.506 . S
C1651 C539 1.349 1_556 S
C1669 C559 1.106 . S
C1665 C8 1.128 . S
C1687 C587 1.380 . S
C1683 C21 1.459 . S
C1705 C651 1.153 . S
C1701 C37 1.164 . S
C1723 C676 1.405 . S
C1719 C161 1.370 . S
C1737 C115 1.124 . S
C1741 C629 1.104 . S
C1755 C133 1.388 . S
C1759 C699 1.422 . S
C1777 C605 1.137 . S
C1773 C143 1.159 . S
C1795 C536 1.158 . S
C1791 C157 1.174 . S
C1809 C119 1.385 . S
C1813 C561 1.412 . S
C1831 C583 1.090 . S
C1827 C129 1.119 . S
C1845 C147 1.383 . S
C1849 C653 1.411 . S
C1867 C677 0.981 . S
C1863 C149 1.070 . S
C1885 C446 1.189 . S
C1881 C78 1.190 . S
C1903 C470 0.998 . S
C1899 C93 1.074 . S
C1917 C106 1.168 . S
C1921 C494 1.143 . S
C1939 C654 0.974 . S
C1935 C163 1.042 . S
C1953 C121 1.104 . S
C1957 C700 1.029 1_556 S
C1975 C423 1.145 . S
C1971 C92 1.140 . S
C1993 C379 1.095 . S
C1989 C64 1.127 . S
C2007 C199 1.178 . S
C2011 C675 1.166 . S
C2029 C377 1.036 . S
C2025 C218 1.028 . S
C2047 C698 1.172 . S
C2043 C175 1.162 . S
C2061 C191 1.016 . S
C2065 C425 1.001 . S
C2079 C217 1.028 . S
C2083 C540 1.017 . S
C2097 C176 1.122 . S
C2101 C468 1.115 . S
C2115 C185 1.085 . S
C2119 C584 1.092 . S
C2133 C205 1.156 . S
C2137 C514 1.145 . S
C2155 C679 0.927 . S
C2151 C325 0.986 . S
C2169 C287 1.291 . S
C2173 C375 1.307 . S
C2191 C702 0.936 . S
C2187 C297 0.995 . S
C2205 C315 1.269 . S
C2209 C422 1.287 . S
C2223 C329 1.294 . S
C2227 C537 1.310 . S
C2245 C472 0.950 . S
C2241 C283 0.994 . S
C2259 C301 1.285 . S
C2263 C582 1.303 . S
C2281 C518 0.946 . S
C2277 C311 0.990 . S
C2299 C678 1.297 . S
C2295 C317 1.340 . S
C2317 C449 1.183 . S
C2313 C246 1.243 . S
C2331 C261 1.308 . S
C2335 C563 1.258 . S
C2353 C493 1.127 . S
C2349 C274 1.239 . S
C2371 C517 1.256 . S
C2367 C331 1.301 . S
C2385 C289 1.349 . S
C2389 C701 1.301 . S
C2407 C610 1.144 . S
C2403 C260 1.203 . S
C2425 C631 1.122 . S
C2421 C232 1.208 . S
