# Generated by pormake.
# Topology pth, (4,4)-cn, num edge types: 1
# Building blocks:
#     Node 0, Type 0, BuildingBlock: GALJAG_clean_sbu_0, # of connection points: 4
#     Node 1, Type 0, BuildingBlock: GALJAG_clean_sbu_0, # of connection points: 4
#     Node 2, Type 0, BuildingBlock: GALJAG_clean_sbu_0, # of connection points: 4
#     Node 3, Type 1, BuildingBlock: MUDLON_clean_sbu_0, # of connection points: 4
#     Node 4, Type 1, BuildingBlock: MUDLON_clean_sbu_0, # of connection points: 4
#     Node 5, Type 1, BuildingBlock: MUDLON_clean_sbu_0, # of connection points: 4
#     Edge 6, Type (0, 1), BuildingBlock: UVAHIK_clean_linker_0, # of connection points: 2
#     Edge 7, Type (0, 1), BuildingBlock: UVAHIK_clean_linker_0, # of connection points: 2
#     Edge 8, Type (0, 1), BuildingBlock: UVAHIK_clean_linker_0, # of connection points: 2
#     Edge 9, Type (0, 1), BuildingBlock: UVAHIK_clean_linker_0, # of connection points: 2
#     Edge 10, Type (0, 1), BuildingBlock: UVAHIK_clean_linker_0, # of connection points: 2
#     Edge 11, Type (0, 1), BuildingBlock: UVAHIK_clean_linker_0, # of connection points: 2
#     Edge 12, Type (0, 1), BuildingBlock: UVAHIK_clean_linker_0, # of connection points: 2
#     Edge 13, Type (0, 1), BuildingBlock: UVAHIK_clean_linker_0, # of connection points: 2
#     Edge 14, Type (0, 1), BuildingBlock: UVAHIK_clean_linker_0, # of connection points: 2
#     Edge 15, Type (0, 1), BuildingBlock: UVAHIK_clean_linker_0, # of connection points: 2
#     Edge 16, Type (0, 1), BuildingBlock: UVAHIK_clean_linker_0, # of connection points: 2
#     Edge 17, Type (0, 1), BuildingBlock: UVAHIK_clean_linker_0, # of connection points: 2
# Relax obj value: 0.043
# Max RMSD: 0.088
# Mean RMSD: 0.080
data_MOF--net-pth--node1-GALJAG_clean_sbu_0--node2-MUDLON_clean_sbu_0--edge1-UVAHIK_clean_linker_0
_symmetry_space_group_name_H-M    P1
_symmetry_Int_Tables_number       1
_symmetry_cell_setting            triclinic
loop_
_symmetry_equiv_pos_as_xyz
'x, y, z'
_cell_length_a     30.076024
_cell_length_b     30.037076
_cell_length_c     75.038328
_cell_angle_alpha  90.167558
_cell_angle_beta   90.105223
_cell_angle_gamma 120.04559
loop_
_atom_site_label
_atom_site_type_symbol
_atom_site_fract_x
_atom_site_fract_y
_atom_site_fract_z
_atom_type_partial_charge
In0 In 0.0106 0.00931 0.09736 0.0
O1 O 0.97377 0.05562 0.10738 0.0
O2 O 0.0448 0.06994 0.11884 0.0
C3 C 0.94518 0.93796 0.07419 0.0
C4 C 0.08136 0.0779 0.07503 0.0
C5 C 0.00712 0.94316 0.12216 0.0
O6 O 0.93063 0.96115 0.08475 0.0
O7 O 0.99208 0.95121 0.07536 0.0
O8 O 0.04286 0.96259 0.11075 0.0
O9 O 0.97423 0.95737 0.12095 0.0
C10 C 0.00963 0.08122 0.11847 0.0
O11 O 0.09326 0.05622 0.08711 0.0
O12 O 0.03427 0.06411 0.07419 0.0
In13 In 0.004 0.01006 0.4308 0.0
O14 O 0.03809 0.09093 0.41875 0.0
O15 O 0.97122 0.02877 0.40683 0.0
C16 C 0.07042 0.01114 0.45511 0.0
C17 C 0.93297 0.01169 0.45209 0.0
C18 C 0.0062 0.93904 0.40946 0.0
O19 O 0.0851 0.0445 0.44286 0.0
O20 O 0.02304 0.97862 0.45504 0.0
O21 O 0.96997 0.92736 0.42041 0.0
O22 O 0.04028 0.98601 0.4093 0.0
C23 C 0.00399 0.07614 0.40667 0.0
O24 O 0.92164 0.97503 0.44126 0.0
O25 O 0.97961 0.04659 0.45212 0.0
In26 In 0.00382 0.01197 0.7642 0.0
O27 O 0.95715 0.92986 0.7749 0.0
O28 O 0.93917 0.98641 0.78398 0.0
C29 C 0.07785 0.01439 0.74351 0.0
C30 C 0.94044 0.01329 0.73915 0.0
C31 C 0.06714 0.0762 0.78948 0.0
O32 O 0.05017 0.97628 0.75341 0.0
O33 O 0.06787 0.0505 0.74414 0.0
O34 O 0.05008 0.09214 0.77706 0.0
O35 O 0.05177 0.02869 0.78906 0.0
C36 C 0.92914 0.9403 0.78464 0.0
O37 O 0.95793 0.04635 0.75162 0.0
O38 O 0.95555 0.98097 0.73936 0.0
Mg39 Mg 0.99611 0.5083 0.26559 0.0
C40 C 0.94338 0.39872 0.27958 0.0
O41 O 0.94855 0.38842 0.26295 0.0
C42 C 0.94855 0.57252 0.25401 0.0
O43 O 0.9622 0.59191 0.27014 0.0
C44 C 0.00836 0.46578 0.23176 0.0
O45 O 0.9668 0.46895 0.22934 0.0
O46 O 0.03317 0.48265 0.24633 0.0
O47 O 0.95425 0.44417 0.28373 0.0
O48 O 0.04459 0.5749 0.2823 0.0
C49 C 0.0444 0.56837 0.29905 0.0
O50 O 0.02443 0.52133 0.30517 0.0
O51 O 0.9525 0.53371 0.24969 0.0
Mg52 Mg 0.50151 0.00125 0.59668 0.0
C53 C 0.39158 0.95157 0.58318 0.0
O54 O 0.38346 0.96146 0.59953 0.0
C55 C 0.56564 0.95385 0.60848 0.0
O56 O 0.58558 0.96821 0.59253 0.0
C57 C 0.46853 0.02271 0.63139 0.0
O58 O 0.47971 0.98696 0.63543 0.0
O59 O 0.47788 0.041 0.61567 0.0
O60 O 0.43564 0.9585 0.57913 0.0
O61 O 0.56703 0.04734 0.57938 0.0
C62 C 0.55946 0.0429 0.56261 0.0
O63 O 0.51203 0.01996 0.55663 0.0
O64 O 0.5264 0.95717 0.61259 0.0
Mg65 Mg 0.5093 0.50034 0.93261 0.0
C66 C 0.44365 0.38885 0.92077 0.0
O67 O 0.42554 0.38329 0.93703 0.0
C68 C 0.6186 0.55449 0.94737 0.0
O69 O 0.62996 0.5716 0.93097 0.0
C70 C 0.44925 0.4885 0.96591 0.0
O71 O 0.49617 0.51462 0.97229 0.0
O72 O 0.44301 0.48305 0.94911 0.0
O73 O 0.48234 0.43149 0.91636 0.0
O74 O 0.53579 0.5634 0.91357 0.0
C75 C 0.55517 0.55593 0.89959 0.0
O76 O 0.55462 0.51214 0.89789 0.0
O77 O 0.57272 0.52029 0.951 0.0
C78 C 0.97808 0.14127 0.12739 0.0
C79 C 0.0117 0.12217 0.13002 0.0
C80 C 0.98222 0.18166 0.13799 0.0
C81 C 0.03065 0.24599 0.18129 0.0
H82 H 0.02655 0.36017 0.15903 0.0
C83 C 0.0554 0.41954 0.22278 0.0
C84 C 0.02045 0.43621 0.21875 0.0
C85 C 0.06066 0.38557 0.21128 0.0
C86 C 0.02739 0.32842 0.16549 0.0
H87 H 0.07544 0.12976 0.14596 0.0
H88 H 0.08221 0.19963 0.16449 0.0
H89 H 0.01969 0.28992 0.14062 0.0
H90 H 0.96558 0.43236 0.19908 0.0
H91 H 0.97404 0.37309 0.1794 0.0
H92 H 0.03692 0.28355 0.2062 0.0
C93 C 0.05272 0.18353 0.15428 0.0
C94 C 0.02338 0.28816 0.15493 0.0
C95 C 0.04893 0.14364 0.1436 0.0
C96 C 0.99278 0.42019 0.20264 0.0
C97 C 0.99792 0.38635 0.19124 0.0
C98 C 0.03421 0.28604 0.19189 0.0
C99 C 0.01967 0.20324 0.15153 0.0
C100 C 0.02456 0.24632 0.16272 0.0
C101 C 0.03112 0.36773 0.19555 0.0
C102 C 0.03211 0.32754 0.18414 0.0
H103 H 0.94907 0.12551 0.11702 0.0
H104 H 0.95588 0.19577 0.13569 0.0
H105 H 0.03131 0.21405 0.18769 0.0
H106 H 0.07729 0.43122 0.23508 0.0
H107 H 0.08719 0.37261 0.21488 0.0
C108 C 0.91177 0.04941 0.47814 0.0
C109 C 0.89498 0.01477 0.46372 0.0
C110 C 0.87652 0.05429 0.48885 0.0
C111 C 0.73707 0.98963 0.50001 0.0
H112 H 0.77471 0.12385 0.51949 0.0
C113 C 0.58969 0.03215 0.53277 0.0
C114 C 0.60152 0.0513 0.55032 0.0
C115 C 0.62695 0.03116 0.52199 0.0
C116 C 0.76388 0.08616 0.51419 0.0
H117 H 0.82814 0.95805 0.44918 0.0
H118 H 0.76643 0.96776 0.46745 0.0
H119 H 0.83577 0.11384 0.50095 0.0
H120 H 0.66278 0.08735 0.56989 0.0
H121 H 0.72852 0.08701 0.5507 0.0
H122 H 0.66448 0.96262 0.51284 0.0
C123 C 0.80678 0.99027 0.47085 0.0
C124 C 0.7989 0.08019 0.50364 0.0
C125 C 0.84212 0.9848 0.46029 0.0
C126 C 0.65242 0.07239 0.55644 0.0
C127 C 0.69001 0.07215 0.54549 0.0
C128 C 0.70183 0.99584 0.51028 0.0
C129 C 0.82351 0.02526 0.48526 0.0
C130 C 0.78606 0.03177 0.49643 0.0
C131 C 0.67714 0.0501 0.52837 0.0
C132 C 0.7149 0.04412 0.51748 0.0
H133 H 0.95233 0.07276 0.4812 0.0
H134 H 0.89101 0.08071 0.50003 0.0
H135 H 0.72599 0.95155 0.49508 0.0
H136 H 0.55096 0.01562 0.52758 0.0
H137 H 0.61624 0.01455 0.50876 0.0
C138 C 0.8631 0.91798 0.80831 0.0
C139 C 0.88753 0.90197 0.796 0.0
C140 C 0.82338 0.88222 0.81902 0.0
C141 C 0.72502 0.74577 0.82151 0.0
H142 H 0.72676 0.77126 0.87228 0.0
C143 C 0.6024 0.58565 0.8709 0.0
C144 C 0.58357 0.59702 0.88635 0.0
C145 C 0.63434 0.62449 0.85921 0.0
C146 C 0.72503 0.76394 0.85809 0.0
H147 H 0.88946 0.83597 0.78523 0.0
H148 H 0.81954 0.77318 0.8039 0.0
H149 H 0.79383 0.83563 0.85333 0.0
H150 H 0.58179 0.65803 0.90125 0.0
H151 H 0.6372 0.72628 0.88053 0.0
H152 H 0.65629 0.67425 0.82617 0.0
C153 C 0.83117 0.8135 0.8052 0.0
C154 C 0.76366 0.80074 0.84725 0.0
C155 C 0.87135 0.8494 0.79459 0.0
C156 C 0.59573 0.64806 0.88946 0.0
C157 C 0.62782 0.68717 0.87768 0.0
C158 C 0.68614 0.7092 0.83231 0.0
C159 C 0.80684 0.82959 0.81753 0.0
C160 C 0.76452 0.79164 0.8289 0.0
C161 C 0.64822 0.6759 0.86256 0.0
C162 C 0.68617 0.71736 0.8508 0.0
H163 H 0.87472 0.95828 0.8097 0.0
H164 H 0.80511 0.8957 0.8283 0.0
H165 H 0.72416 0.73816 0.80736 0.0
H166 H 0.59376 0.54674 0.86805 0.0
H167 H 0.64979 0.6143 0.8479 0.0
C168 C 0.97358 0.89955 0.15123 0.0
C169 C 0.00266 0.90591 0.13583 0.0
C170 C 0.96649 0.86268 0.1639 0.0
C171 C 0.95653 0.7388 0.1692 0.0
H172 H 0.98866 0.77674 0.21895 0.0
C173 C 0.95077 0.59629 0.22199 0.0
C174 C 0.94154 0.60284 0.2399 0.0
C175 C 0.95412 0.63108 0.209 0.0
C176 C 0.97833 0.76505 0.2052 0.0
H177 H 0.04716 0.8788 0.12156 0.0
H178 H 0.03344 0.81283 0.14366 0.0
H179 H 0.00512 0.84269 0.19698 0.0
H180 H 0.92475 0.64876 0.25799 0.0
H181 H 0.92762 0.70781 0.23521 0.0
H182 H 0.92788 0.66101 0.17732 0.0
C183 C 0.01673 0.837 0.14591 0.0
C184 C 0.98838 0.80309 0.1926 0.0
C185 C 0.02482 0.87482 0.13337 0.0
C186 C 0.93231 0.64293 0.24432 0.0
C187 C 0.93465 0.67719 0.23126 0.0
C188 C 0.94549 0.70051 0.18185 0.0
C189 C 0.98743 0.83066 0.16127 0.0
C190 C 0.97786 0.79036 0.17449 0.0
C191 C 0.94735 0.67283 0.21352 0.0
C192 C 0.95649 0.71309 0.20005 0.0
H193 H 0.9561 0.92305 0.15347 0.0
H194 H 0.94358 0.85836 0.17559 0.0
H195 H 0.94742 0.72799 0.15532 0.0
H196 H 0.95847 0.56603 0.21811 0.0
H197 H 0.96453 0.62647 0.19561 0.0
C198 C 0.1576 0.02765 0.46451 0.0
C199 C 0.10537 0.00801 0.46825 0.0
C200 C 0.18876 0.01922 0.47634 0.0
C201 C 0.17871 0.93425 0.51436 0.0
H202 H 0.32292 0.03444 0.52083 0.0
C203 C 0.30528 0.93571 0.57314 0.0
C204 C 0.35466 0.94488 0.56887 0.0
C205 C 0.27369 0.93844 0.55998 0.0
C206 C 0.28277 0.00591 0.51901 0.0
H207 H 0.04529 0.96655 0.4876 0.0
H208 H 0.09971 0.95421 0.50857 0.0
H209 H 0.27139 0.0525 0.50012 0.0
H210 H 0.40845 0.96152 0.5472 0.0
H211 H 0.35359 0.96718 0.52438 0.0
H212 H 0.19005 0.8888 0.53388 0.0
C213 C 0.11655 0.97411 0.49624 0.0
C214 C 0.25319 0.01613 0.50709 0.0
C215 C 0.08536 0.98168 0.4843 0.0
C216 C 0.37071 0.95433 0.55099 0.0
C217 C 0.3395 0.95795 0.53792 0.0
C218 C 0.20811 0.9245 0.52649 0.0
C219 C 0.16844 0.9917 0.49228 0.0
C220 C 0.20061 0.98056 0.50466 0.0
C221 C 0.29117 0.95114 0.54237 0.0
C222 C 0.26037 0.96026 0.52896 0.0
H223 H 0.17386 0.04775 0.45215 0.0
H224 H 0.22834 0.03298 0.47269 0.0
H225 H 0.13876 0.90521 0.51257 0.0
H226 H 0.29174 0.92832 0.58677 0.0
H227 H 0.23657 0.93307 0.56377 0.0
C228 C 0.10829 0.08836 0.81926 0.0
C229 C 0.10383 0.10992 0.80323 0.0
C230 C 0.1454 0.11863 0.83189 0.0
C231 C 0.27205 0.23021 0.83638 0.0
H232 H 0.23635 0.22904 0.88606 0.0
C233 C 0.41849 0.36685 0.88877 0.0
C234 C 0.41215 0.35152 0.9067 0.0
C235 C 0.3828 0.33566 0.87585 0.0
C236 C 0.24735 0.22909 0.87233 0.0
H237 H 0.13437 0.18004 0.78786 0.0
H238 H 0.20059 0.23311 0.80994 0.0
H239 H 0.16909 0.18 0.86426 0.0
H240 H 0.36557 0.28973 0.92491 0.0
H241 H 0.30476 0.23404 0.90226 0.0
H242 H 0.35039 0.27769 0.84438 0.0
C243 C 0.17483 0.19277 0.81269 0.0
C244 C 0.2086 0.20137 0.85982 0.0
C245 C 0.13684 0.1626 0.80016 0.0
C246 C 0.37127 0.3028 0.91123 0.0
C247 C 0.33603 0.27116 0.89824 0.0
C248 C 0.311 0.25726 0.84894 0.0
C249 C 0.17952 0.1709 0.82863 0.0
C250 C 0.22055 0.20182 0.84174 0.0
C251 C 0.34029 0.2879 0.88048 0.0
C252 C 0.29921 0.25724 0.86711 0.0
H253 H 0.08331 0.04784 0.82197 0.0
H254 H 0.14839 0.10079 0.84402 0.0
H255 H 0.2823 0.23052 0.82253 0.0
H256 H 0.44938 0.40432 0.88482 0.0
H257 H 0.38736 0.35035 0.86242 0.0
C258 C 0.89843 0.98456 0.70948 0.0
C259 C 0.9032 0.01017 0.72566 0.0
C260 C 0.86037 0.9769 0.69719 0.0
C261 C 0.76506 0.01749 0.68574 0.0
H262 H 0.70451 0.89151 0.65783 0.0
C263 C 0.58741 0.95405 0.64071 0.0
C264 C 0.5957 0.94682 0.62274 0.0
C265 C 0.62183 0.95755 0.65392 0.0
C266 C 0.72116 0.92682 0.66553 0.0
H267 H 0.87241 0.04848 0.74164 0.0
H268 H 0.80437 0.03349 0.72047 0.0
H269 H 0.77104 0.90795 0.67972 0.0
H270 H 0.64469 0.93419 0.60475 0.0
H271 H 0.70391 0.93856 0.62803 0.0
H272 H 0.71368 0.03526 0.67176 0.0
C273 C 0.83088 0.02043 0.71699 0.0
C274 C 0.75964 0.93661 0.678 0.0
C275 C 0.86978 0.02898 0.72918 0.0
C276 C 0.63726 0.93978 0.61846 0.0
C277 C 0.67115 0.9423 0.63176 0.0
C278 C 0.72589 0.00719 0.6735 0.0
C279 C 0.82524 0.99365 0.7009 0.0
C280 C 0.78271 0.98245 0.68812 0.0
C281 C 0.66459 0.95281 0.64951 0.0
C282 C 0.70398 0.96203 0.66316 0.0
H283 H 0.92404 0.97006 0.70636 0.0
H284 H 0.85852 0.9576 0.68477 0.0
H285 H 0.78222 0.05351 0.69302 0.0
H286 H 0.55591 0.95979 0.64449 0.0
H287 H 0.6157 0.96516 0.66755 0.0
C288 C 0.93116 0.88506 0.0469 0.0
C289 C 0.91049 0.8975 0.06157 0.0
C290 C 0.89941 0.84519 0.03532 0.0
C291 C 0.76216 0.76034 0.02223 0.0
H292 H 0.81674 0.68119 0.99985 0.0
C293 C 0.63702 0.57959 0.97956 0.0
C294 C 0.65501 0.58323 0.96202 0.0
C295 C 0.6687 0.61385 0.99274 0.0
C296 C 0.80109 0.70301 1.00603 0.0
H297 H 0.84041 0.8781 0.07567 0.0
H298 H 0.78482 0.80687 0.05588 0.0
H299 H 0.86962 0.74922 0.02102 0.0
H300 H 0.72152 0.6233 0.94493 0.0
H301 H 0.77739 0.68208 0.96818 0.0
H302 H 0.69307 0.71274 1.00747 0.0
C303 C 0.82545 0.82882 0.05295 0.0
C304 C 0.83145 0.74236 0.01805 0.0
C305 C 0.85726 0.86953 0.06437 0.0
C306 C 0.70648 0.61954 0.95829 0.0
C307 C 0.73846 0.65318 0.97158 0.0
C308 C 0.73151 0.72032 1.01046 0.0
C309 C 0.84615 0.81587 0.0383 0.0
C310 C 0.81273 0.77217 0.02614 0.0
C311 C 0.71932 0.65168 0.98876 0.0
C312 C 0.75089 0.6917 1.0021 0.0
H313 H 0.97207 0.90634 0.04432 0.0
H314 H 0.91683 0.83764 0.02396 0.0
H315 H 0.74649 0.78275 0.02788 0.0
H316 H 0.59764 0.55208 0.98293 0.0
H317 H 0.65325 0.61162 1.00595 0.0
C318 C 0.04247 0.91779 0.38306 0.0
C319 C 0.00994 0.90107 0.39794 0.0
C320 C 0.04844 0.88275 0.37252 0.0
C321 C 0.99027 0.74228 0.36312 0.0
H322 H 0.12287 0.78599 0.34146 0.0
C323 C 0.03832 0.59959 0.32936 0.0
C324 C 0.05365 0.61073 0.31146 0.0
C325 C 0.03724 0.63659 0.34037 0.0
C326 C 0.08566 0.77342 0.3474 0.0
H327 H 0.95812 0.83462 0.41352 0.0
H328 H 0.96992 0.77342 0.39559 0.0
H329 H 0.11096 0.84626 0.35991 0.0
H330 H 0.08325 0.67074 0.29147 0.0
H331 H 0.08275 0.73603 0.31098 0.0
H332 H 0.96575 0.66889 0.35098 0.0
C333 C 0.9898 0.81342 0.39166 0.0
C334 C 0.07856 0.80797 0.35788 0.0
C335 C 0.98313 0.84848 0.40203 0.0
C336 C 0.07124 0.6609 0.30518 0.0
C337 C 0.07092 0.69825 0.31632 0.0
C338 C 0.9977 0.70755 0.35292 0.0
C339 C 0.02277 0.83009 0.37679 0.0
C340 C 0.03063 0.793 0.36582 0.0
C341 C 0.05232 0.68585 0.33383 0.0
C342 C 0.04537 0.72282 0.34492 0.0
H343 H 0.06333 0.95812 0.37951 0.0
H344 H 0.07309 0.89711 0.36097 0.0
H345 H 0.95254 0.72942 0.36863 0.0
H346 H 0.0246 0.56143 0.33469 0.0
H347 H 0.02336 0.62631 0.35389 0.0
C348 C 0.13711 0.98262 0.73413 0.0
C349 C 0.11902 0.0172 0.73201 0.0
C350 C 0.17697 0.98652 0.72343 0.0
C351 C 0.28141 0.07676 0.69298 0.0
H352 H 0.28066 0.95235 0.67862 0.0
C353 C 0.41491 0.06314 0.63902 0.0
C354 C 0.43708 0.0334 0.64399 0.0
C355 C 0.37882 0.06584 0.65013 0.0
C356 C 0.28147 0.98744 0.68261 0.0
H357 H 0.12774 0.08246 0.71686 0.0
H358 H 0.1957 0.08813 0.69781 0.0
H359 H 0.21097 0.94615 0.69684 0.0
H360 H 0.44098 0.9858 0.66499 0.0
H361 H 0.37806 0.99015 0.68404 0.0
H362 H 0.35157 0.11768 0.67818 0.0
C363 C 0.18045 0.05891 0.70804 0.0
C364 C 0.24169 0.98397 0.69316 0.0
C365 C 0.14113 0.05541 0.71888 0.0
C366 C 0.42441 0.0087 0.66063 0.0
C367 C 0.38815 0.01094 0.67155 0.0
C368 C 0.32091 0.08015 0.68219 0.0
C369 C 0.19913 0.02467 0.7102 0.0
C370 C 0.24127 0.02857 0.69865 0.0
C371 C 0.36404 0.0384 0.66623 0.0
C372 C 0.32155 0.03551 0.67708 0.0
H373 H 0.12102 0.95303 0.74423 0.0
H374 H 0.19084 0.96 0.72574 0.0
H375 H 0.28292 0.11204 0.69713 0.0
H376 H 0.42381 0.08257 0.62629 0.0
H377 H 0.36075 0.08736 0.64575 0.0
C378 C 0.17154 0.14643 0.06793 0.0
C379 C 0.1193 0.1184 0.06325 0.0
C380 C 0.20614 0.18798 0.05749 0.0
C381 C 0.22677 0.24243 0.01264 0.0
H382 H 0.31369 0.37348 0.03596 0.0
C383 C 0.3567 0.42274 0.97133 0.0
C384 C 0.4065 0.45512 0.978 0.0
C385 C 0.319 0.38461 0.98212 0.0
C386 C 0.29022 0.3371 0.02921 0.0
H387 H 0.06256 0.11061 0.04373 0.0
H388 H 0.12315 0.18216 0.0253 0.0
H389 H 0.25605 0.29875 0.05373 0.0
H390 H 0.45482 0.47451 1.00155 0.0
H391 H 0.3901 0.40764 0.02005 0.0
H392 H 0.26176 0.27977 0.98822 0.0
C393 C 0.13728 0.1724 0.03709 0.0
C394 C 0.25717 0.29432 0.03943 0.0
C395 C 0.10263 0.13156 0.04766 0.0
C396 C 0.41687 0.45035 0.99595 0.0
C397 C 0.37946 0.41191 1.00664 0.0
C398 C 0.26035 0.28497 1.00245 0.0
C399 C 0.18921 0.20152 0.04203 0.0
C400 C 0.22515 0.24658 0.03124 0.0
C401 C 0.33038 0.37759 0.99976 0.0
C402 C 0.29263 0.33297 1.01058 0.0
H403 H 0.18535 0.13724 0.07993 0.0
H404 H 0.24611 0.20962 0.06151 0.0
H405 H 0.20269 0.20596 1.00601 0.0
H406 H 0.34734 0.42554 0.95759 0.0
H407 H 0.28127 0.35985 0.97646 0.0
C408 C 0.02375 0.16407 0.3968 0.0
C409 C 0.00072 0.11098 0.39354 0.0
C410 C 0.0164 0.19564 0.38485 0.0
C411 C 0.98458 0.20452 0.33836 0.0
H412 H 0.93377 0.29207 0.35608 0.0
C413 C 0.9238 0.31115 0.28945 0.0
C414 C 0.93748 0.36196 0.29379 0.0
C415 C 0.92733 0.27916 0.3022 0.0
C416 C 0.94859 0.26842 0.35089 0.0
H417 H 0.95337 0.04953 0.37506 0.0
H418 H 0.9418 0.10473 0.35406 0.0
H419 H 0.95348 0.24213 0.377 0.0
H420 H 0.96296 0.41808 0.31524 0.0
H421 H 0.97073 0.36323 0.33722 0.0
H422 H 0.98139 0.23146 0.31237 0.0
C423 C 0.96504 0.12191 0.36587 0.0
C424 C 0.95983 0.2398 0.3629 0.0
C425 C 0.97156 0.09033 0.37793 0.0
C426 C 0.95205 0.37913 0.31143 0.0
C427 C 0.95636 0.34744 0.3241 0.0
C428 C 0.97412 0.23364 0.32638 0.0
C429 C 0.98681 0.17474 0.3693 0.0
C430 C 0.9776 0.20733 0.35673 0.0
C431 C 0.94541 0.29746 0.31954 0.0
C432 C 0.95559 0.26575 0.33243 0.0
H433 H 0.04619 0.1809 0.40878 0.0
H434 H 0.03384 0.23636 0.38773 0.0
H435 H 0.99869 0.18012 0.33327 0.0
H436 H 0.91198 0.29657 0.27602 0.0
H437 H 0.917 0.24042 0.29829 0.0
loop_
_geom_bond_atom_site_label_1
_geom_bond_atom_site_label_2
_geom_bond_distance
_geom_bond_site_symmetry_2
_ccdc_geom_bond_type
In0 O1 2.294 1_455 S
In0 O2 2.326 . S
In0 O6 2.266 1_445 S
In0 O7 2.326 1_445 S
In0 O8 2.266 1_545 S
In0 O9 2.326 1_445 S
In0 O11 2.294 . S
In0 O12 2.326 . S
O1 In0 2.294 1_655 S
O1 C10 1.240 1_655 S
O2 In0 2.326 . S
O2 C10 1.252 . S
C3 O6 1.252 . S
C3 O7 1.260 . S
C4 O11 1.240 . S
C4 O12 1.252 . S
C5 O8 1.251 . S
C5 O9 1.261 1_455 S
O6 In0 2.266 1_665 S
O6 C3 1.252 . S
O7 In0 2.326 1_665 S
O7 C3 1.260 . S
O8 In0 2.266 1_565 S
O8 C5 1.251 . S
O9 In0 2.326 1_665 S
O9 C5 1.261 1_655 S
C10 O1 1.240 1_455 S
C10 O2 1.252 . S
O11 In0 2.294 . S
O11 C4 1.240 . S
O12 In0 2.326 . S
O12 C4 1.252 . S
In13 O14 2.294 . S
In13 O15 2.326 1_455 S
In13 O19 2.266 . S
In13 O20 2.326 1_545 S
In13 O21 2.266 1_445 S
In13 O22 2.326 1_545 S
In13 O24 2.294 1_445 S
In13 O25 2.326 1_455 S
O14 In13 2.294 . S
O14 C23 1.240 1_455 S
O15 In13 2.326 1_655 S
O15 C23 1.252 . S
C16 O19 1.252 . S
C16 O20 1.260 1_545 S
C17 O24 1.240 1_545 S
C17 O25 1.252 . S
C18 O21 1.252 1_455 S
C18 O22 1.260 . S
O19 In13 2.266 . S
O19 C16 1.252 . S
O20 In13 2.326 1_565 S
O20 C16 1.260 1_565 S
O21 In13 2.266 1_665 S
O21 C18 1.252 1_655 S
O22 In13 2.326 1_565 S
O22 C18 1.260 . S
C23 O14 1.240 1_655 S
C23 O15 1.252 . S
O24 In13 2.294 1_665 S
O24 C17 1.240 1_565 S
O25 In13 2.326 1_655 S
O25 C17 1.252 . S
In26 O27 2.294 1_445 S
In26 O28 2.326 1_445 S
In26 O32 2.266 1_545 S
In26 O33 2.326 . S
In26 O34 2.266 . S
In26 O35 2.326 . S
In26 O37 2.294 1_455 S
In26 O38 2.326 1_445 S
O27 In26 2.294 1_665 S
O27 C36 1.240 . S
O28 In26 2.326 1_665 S
O28 C36 1.252 . S
C29 O32 1.252 1_545 S
C29 O33 1.260 . S
C30 O37 1.240 1_565 S
C30 O38 1.252 . S
C31 O34 1.252 . S
C31 O35 1.260 . S
O32 In26 2.266 1_565 S
O32 C29 1.252 1_565 S
O33 In26 2.326 . S
O33 C29 1.260 . S
O34 In26 2.266 . S
O34 C31 1.252 . S
O35 In26 2.326 . S
O35 C31 1.260 . S
C36 O27 1.240 . S
C36 O28 1.252 . S
O37 In26 2.294 1_655 S
O37 C30 1.240 1_545 S
O38 In26 2.326 1_665 S
O38 C30 1.252 . S
Mg39 O46 2.141 . S
Mg39 O47 2.048 . S
Mg39 O48 2.048 . S
Mg39 O51 2.141 . S
C40 O41 1.313 . S
C40 O47 1.195 1_655 S
O41 C40 1.313 . S
C42 O43 1.245 . S
C42 O51 1.289 1_655 S
O43 C42 1.245 . S
C44 O45 1.245 . S
C44 O46 1.289 1_655 S
O45 C44 1.245 . S
O46 Mg39 2.141 . S
O46 C44 1.289 1_455 S
O47 Mg39 2.048 . S
O47 C40 1.195 1_455 S
O48 Mg39 2.048 . S
O48 C49 1.195 1_455 S
C49 O48 1.195 1_655 S
C49 O50 1.313 . S
O50 C49 1.313 . S
O51 Mg39 2.141 . S
O51 C42 1.289 1_455 S
Mg52 O59 2.141 . S
Mg52 O60 2.048 . S
Mg52 O61 2.048 . S
Mg52 O64 2.141 . S
C53 O54 1.313 . S
C53 O60 1.195 1_565 S
O54 C53 1.313 . S
C55 O56 1.245 . S
C55 O64 1.289 1_565 S
O56 C55 1.245 . S
C57 O58 1.245 . S
C57 O59 1.289 1_565 S
O58 C57 1.245 . S
O59 Mg52 2.141 . S
O59 C57 1.289 1_545 S
O60 Mg52 2.048 . S
O60 C53 1.195 1_545 S
O61 Mg52 2.048 . S
O61 C62 1.195 1_545 S
C62 O61 1.195 1_565 S
C62 O63 1.313 . S
O63 C62 1.313 . S
O64 Mg52 2.141 . S
O64 C55 1.289 1_545 S
Mg65 O72 2.141 . S
Mg65 O73 2.048 . S
Mg65 O74 2.048 . S
Mg65 O77 2.141 . S
C66 O67 1.313 . S
C66 O73 1.195 . S
O67 C66 1.313 . S
C68 O69 1.245 . S
C68 O77 1.289 . S
O69 C68 1.245 . S
C70 O71 1.245 . S
C70 O72 1.289 . S
O71 C70 1.245 . S
O72 Mg65 2.141 . S
O72 C70 1.289 . S
O73 Mg65 2.048 . S
O73 C66 1.195 . S
O74 Mg65 2.048 . S
O74 C75 1.195 . S
C75 O74 1.195 . S
C75 O76 1.313 . S
O76 C75 1.313 . S
O77 Mg65 2.141 . S
O77 C68 1.289 . S
C78 C79 1.349 1_655 S
C78 C80 1.327 . S
C78 H103 0.950 . S
C79 C78 1.349 1_455 S
C79 C95 1.349 . S
C80 C78 1.327 . S
C80 C99 1.429 1_655 S
C80 H104 0.950 . S
C81 C98 1.574 . S
C81 C100 1.368 . S
C81 H105 0.949 . S
H82 C86 0.949 . S
C83 C84 1.349 . S
C83 C85 1.327 . S
C83 H106 0.950 . S
C84 C83 1.349 . S
C84 C96 1.349 1_455 S
C85 C83 1.327 . S
C85 C101 1.429 . S
C85 H107 0.950 . S
C86 H82 0.949 . S
C86 C94 1.574 . S
C86 C102 1.368 1_655 S
H87 C95 0.950 . S
H88 C93 0.950 . S
H89 C94 0.949 . S
H90 C96 0.950 . S
H91 C97 0.950 . S
H92 C98 0.949 . S
C93 H88 0.950 . S
C93 C95 1.327 . S
C93 C99 1.429 . S
C94 C86 1.574 . S
C94 H89 0.949 . S
C94 C100 1.368 1_655 S
C95 C79 1.349 . S
C95 H87 0.950 . S
C95 C93 1.327 . S
C96 C84 1.349 1_655 S
C96 H90 0.950 . S
C96 C97 1.327 . S
C97 H91 0.950 . S
C97 C96 1.327 . S
C97 C101 1.429 1_655 S
C98 C81 1.574 . S
C98 H92 0.949 . S
C98 C102 1.368 . S
C99 C80 1.429 1_455 S
C99 C93 1.429 . S
C99 C100 1.523 . S
C100 C81 1.368 . S
C100 C94 1.368 1_455 S
C100 C99 1.523 . S
C101 C85 1.429 . S
C101 C97 1.429 1_455 S
C101 C102 1.523 . S
C102 C86 1.368 1_455 S
C102 C98 1.368 . S
C102 C101 1.523 . S
H103 C78 0.950 . S
H104 C80 0.950 . S
H105 C81 0.949 . S
H106 C83 0.950 . S
H107 C85 0.950 . S
C108 C109 1.349 . S
C108 C110 1.327 . S
C108 H133 0.950 . S
C109 C108 1.349 . S
C109 C125 1.349 1_545 S
C110 C108 1.327 . S
C110 C129 1.429 . S
C110 H134 0.950 . S
C111 C128 1.574 . S
C111 C130 1.368 1_565 S
C111 H135 0.949 . S
H112 C116 0.949 . S
C113 C114 1.349 1_565 S
C113 C115 1.327 . S
C113 H136 0.950 . S
C114 C113 1.349 1_545 S
C114 C126 1.349 . S
C115 C113 1.327 . S
C115 C131 1.429 1_565 S
C115 H137 0.950 . S
C116 H112 0.949 . S
C116 C124 1.574 . S
C116 C132 1.368 . S
H117 C125 0.950 . S
H118 C123 0.950 . S
H119 C124 0.949 . S
H120 C126 0.950 . S
H121 C127 0.950 . S
H122 C128 0.949 . S
C123 H118 0.950 . S
C123 C125 1.327 . S
C123 C129 1.429 1_565 S
C124 C116 1.574 . S
C124 H119 0.949 . S
C124 C130 1.368 . S
C125 C109 1.349 1_565 S
C125 H117 0.950 . S
C125 C123 1.327 . S
C126 C114 1.349 . S
C126 H120 0.950 . S
C126 C127 1.327 . S
C127 H121 0.950 . S
C127 C126 1.327 . S
C127 C131 1.429 . S
C128 C111 1.574 . S
C128 H122 0.949 . S
C128 C132 1.368 1_565 S
C129 C110 1.429 . S
C129 C123 1.429 1_545 S
C129 C130 1.523 . S
C130 C111 1.368 1_545 S
C130 C124 1.368 . S
C130 C129 1.523 . S
C131 C115 1.429 1_545 S
C131 C127 1.429 . S
C131 C132 1.523 . S
C132 C116 1.368 . S
C132 C128 1.368 1_545 S
C132 C131 1.523 . S
H133 C108 0.950 . S
H134 C110 0.950 . S
H135 C111 0.949 . S
H136 C113 0.950 . S
H137 C115 0.950 . S
C138 C139 1.349 . S
C138 C140 1.327 . S
C138 H163 0.950 . S
C139 C138 1.349 . S
C139 C155 1.349 . S
C140 C138 1.327 . S
C140 C159 1.429 . S
C140 H164 0.950 . S
C141 C158 1.574 . S
C141 C160 1.368 . S
C141 H165 0.949 . S
H142 C146 0.949 . S
C143 C144 1.349 . S
C143 C145 1.327 . S
C143 H166 0.950 . S
C144 C143 1.349 . S
C144 C156 1.349 . S
C145 C143 1.327 . S
C145 C161 1.429 . S
C145 H167 0.950 . S
C146 H142 0.949 . S
C146 C154 1.574 . S
C146 C162 1.368 . S
H147 C155 0.950 . S
H148 C153 0.950 . S
H149 C154 0.949 . S
H150 C156 0.950 . S
H151 C157 0.950 . S
H152 C158 0.949 . S
C153 H148 0.950 . S
C153 C155 1.327 . S
C153 C159 1.429 . S
C154 C146 1.574 . S
C154 H149 0.949 . S
C154 C160 1.368 . S
C155 C139 1.349 . S
C155 H147 0.950 . S
C155 C153 1.327 . S
C156 C144 1.349 . S
C156 H150 0.950 . S
C156 C157 1.327 . S
C157 H151 0.950 . S
C157 C156 1.327 . S
C157 C161 1.429 . S
C158 C141 1.574 . S
C158 H152 0.949 . S
C158 C162 1.368 . S
C159 C140 1.429 . S
C159 C153 1.429 . S
C159 C160 1.523 . S
C160 C141 1.368 . S
C160 C154 1.368 . S
C160 C159 1.523 . S
C161 C145 1.429 . S
C161 C157 1.429 . S
C161 C162 1.523 . S
C162 C146 1.368 . S
C162 C158 1.368 . S
C162 C161 1.523 . S
H163 C138 0.950 . S
H164 C140 0.950 . S
H165 C141 0.949 . S
H166 C143 0.950 . S
H167 C145 0.950 . S
C168 C169 1.345 1_655 S
C168 C170 1.327 . S
C168 H193 0.950 . S
C169 C168 1.345 1_455 S
C169 C185 1.357 . S
C170 C168 1.327 . S
C170 C189 1.429 1_655 S
C170 H194 0.950 . S
C171 C188 1.574 . S
C171 C190 1.368 . S
C171 H195 0.949 . S
H172 C176 0.949 . S
C173 C174 1.349 . S
C173 C175 1.327 . S
C173 H196 0.950 . S
C174 C173 1.349 . S
C174 C186 1.349 1_455 S
C175 C173 1.327 . S
C175 C191 1.429 . S
C175 H197 0.950 . S
C176 H172 0.949 . S
C176 C184 1.574 . S
C176 C192 1.368 1_655 S
H177 C185 0.950 . S
H178 C183 0.950 . S
H179 C184 0.949 . S
H180 C186 0.950 . S
H181 C187 0.950 . S
H182 C188 0.949 . S
C183 H178 0.950 . S
C183 C185 1.327 . S
C183 C189 1.429 . S
C184 C176 1.574 . S
C184 H179 0.949 . S
C184 C190 1.368 1_655 S
C185 C169 1.357 . S
C185 H177 0.950 . S
C185 C183 1.327 . S
C186 C174 1.349 1_655 S
C186 H180 0.950 . S
C186 C187 1.327 . S
C187 H181 0.950 . S
C187 C186 1.327 . S
C187 C191 1.429 1_655 S
C188 C171 1.574 . S
C188 H182 0.949 . S
C188 C192 1.368 . S
C189 C170 1.429 1_455 S
C189 C183 1.429 . S
C189 C190 1.523 . S
C190 C171 1.368 . S
C190 C184 1.368 1_455 S
C190 C189 1.523 . S
C191 C175 1.429 . S
C191 C187 1.429 1_455 S
C191 C192 1.523 . S
C192 C176 1.368 1_455 S
C192 C188 1.368 . S
C192 C191 1.523 . S
H193 C168 0.950 . S
H194 C170 0.950 . S
H195 C171 0.949 . S
H196 C173 0.950 . S
H197 C175 0.950 . S
C198 C199 1.355 . S
C198 C200 1.327 . S
C198 H223 0.950 . S
C199 C198 1.355 . S
C199 C215 1.339 1_545 S
C200 C198 1.327 . S
C200 C219 1.429 . S
C200 H224 0.950 . S
C201 C218 1.574 . S
C201 C220 1.368 1_565 S
C201 H225 0.949 . S
H202 C206 0.949 . S
C203 C204 1.349 1_565 S
C203 C205 1.327 . S
C203 H226 0.950 . S
C204 C203 1.349 1_545 S
C204 C216 1.349 . S
C205 C203 1.327 . S
C205 C221 1.429 1_565 S
C205 H227 0.950 . S
C206 H202 0.949 . S
C206 C214 1.574 . S
C206 C222 1.368 . S
H207 C215 0.950 . S
H208 C213 0.950 . S
H209 C214 0.949 . S
H210 C216 0.950 . S
H211 C217 0.950 . S
H212 C218 0.949 . S
C213 H208 0.950 . S
C213 C215 1.327 . S
C213 C219 1.429 1_565 S
C214 C206 1.574 . S
C214 H209 0.949 . S
C214 C220 1.368 . S
C215 C199 1.339 1_565 S
C215 H207 0.950 . S
C215 C213 1.327 . S
C216 C204 1.349 . S
C216 H210 0.950 . S
C216 C217 1.327 . S
C217 H211 0.950 . S
C217 C216 1.327 . S
C217 C221 1.429 . S
C218 C201 1.574 . S
C218 H212 0.949 . S
C218 C222 1.368 1_565 S
C219 C200 1.429 . S
C219 C213 1.429 1_545 S
C219 C220 1.523 . S
C220 C201 1.368 1_545 S
C220 C214 1.368 . S
C220 C219 1.523 . S
C221 C205 1.429 1_545 S
C221 C217 1.429 . S
C221 C222 1.523 . S
C222 C206 1.368 . S
C222 C218 1.368 1_545 S
C222 C221 1.523 . S
H223 C198 0.950 . S
H224 C200 0.950 . S
H225 C201 0.949 . S
H226 C203 0.950 . S
H227 C205 0.950 . S
C228 C229 1.349 . S
C228 C230 1.327 . S
C228 H253 0.950 . S
C229 C228 1.349 . S
C229 C245 1.349 . S
C230 C228 1.327 . S
C230 C249 1.429 . S
C230 H254 0.950 . S
C231 C248 1.574 . S
C231 C250 1.368 . S
C231 H255 0.949 . S
H232 C236 0.949 . S
C233 C234 1.349 . S
C233 C235 1.327 . S
C233 H256 0.950 . S
C234 C233 1.349 . S
C234 C246 1.349 . S
C235 C233 1.327 . S
C235 C251 1.429 . S
C235 H257 0.950 . S
C236 H232 0.949 . S
C236 C244 1.574 . S
C236 C252 1.368 . S
H237 C245 0.950 . S
H238 C243 0.950 . S
H239 C244 0.949 . S
H240 C246 0.950 . S
H241 C247 0.950 . S
H242 C248 0.949 . S
C243 H238 0.950 . S
C243 C245 1.327 . S
C243 C249 1.429 . S
C244 C236 1.574 . S
C244 H239 0.949 . S
C244 C250 1.368 . S
C245 C229 1.349 . S
C245 H237 0.950 . S
C245 C243 1.327 . S
C246 C234 1.349 . S
C246 H240 0.950 . S
C246 C247 1.327 . S
C247 H241 0.950 . S
C247 C246 1.327 . S
C247 C251 1.429 . S
C248 C231 1.574 . S
C248 H242 0.949 . S
C248 C252 1.368 . S
C249 C230 1.429 . S
C249 C243 1.429 . S
C249 C250 1.523 . S
C250 C231 1.368 . S
C250 C244 1.368 . S
C250 C249 1.523 . S
C251 C235 1.429 . S
C251 C247 1.429 . S
C251 C252 1.523 . S
C252 C236 1.368 . S
C252 C248 1.368 . S
C252 C251 1.523 . S
H253 C228 0.950 . S
H254 C230 0.950 . S
H255 C231 0.949 . S
H256 C233 0.950 . S
H257 C235 0.950 . S
C258 C259 1.349 . S
C258 C260 1.327 . S
C258 H283 0.950 . S
C259 C258 1.349 . S
C259 C275 1.349 1_565 S
C260 C258 1.327 . S
C260 C279 1.429 . S
C260 H284 0.950 . S
C261 C278 1.574 . S
C261 C280 1.354 1_545 S
C261 H285 0.949 . S
H262 C266 0.949 . S
C263 C264 1.349 . S
C263 C265 1.327 . S
C263 H286 0.950 . S
C264 C263 1.349 . S
C264 C276 1.349 1_545 S
C265 C263 1.327 . S
C265 C281 1.429 . S
C265 H287 0.950 . S
C266 H262 0.949 . S
C266 C274 1.574 . S
C266 C282 1.362 1_565 S
H267 C275 0.950 . S
H268 C273 0.950 . S
H269 C274 0.949 . S
H270 C276 0.950 . S
H271 C277 0.950 . S
H272 C278 0.949 . S
C273 H268 0.950 . S
C273 C275 1.327 . S
C273 C279 1.429 1_545 S
C274 C266 1.574 . S
C274 H269 0.949 . S
C274 C280 1.376 . S
C275 C259 1.349 1_545 S
C275 H267 0.950 . S
C275 C273 1.327 . S
C276 C264 1.349 1_565 S
C276 H270 0.950 . S
C276 C277 1.327 . S
C277 H271 0.950 . S
C277 C276 1.327 . S
C277 C281 1.429 1_565 S
C278 C261 1.574 . S
C278 H272 0.949 . S
C278 C282 1.372 . S
C279 C260 1.429 . S
C279 C273 1.429 1_565 S
C279 C280 1.532 . S
C280 C261 1.354 1_565 S
C280 C274 1.376 . S
C280 C279 1.532 . S
C281 C265 1.429 . S
C281 C277 1.429 1_545 S
C281 C282 1.527 . S
C282 C266 1.362 1_545 S
C282 C278 1.372 . S
C282 C281 1.527 . S
H283 C258 0.950 . S
H284 C260 0.950 . S
H285 C261 0.949 . S
H286 C263 0.950 . S
H287 C265 0.950 . S
C288 C289 1.349 . S
C288 C290 1.327 . S
C288 H313 0.950 . S
C289 C288 1.349 . S
C289 C305 1.349 . S
C290 C288 1.327 . S
C290 C309 1.429 . S
C290 H314 0.950 . S
C291 C308 1.574 1_554 S
C291 C310 1.368 . S
C291 H315 0.949 . S
H292 C296 0.949 . S
C293 C294 1.349 . S
C293 C295 1.327 . S
C293 H316 0.950 . S
C294 C293 1.349 . S
C294 C306 1.349 . S
C295 C293 1.327 . S
C295 C311 1.429 . S
C295 H317 0.950 . S
C296 H292 0.949 . S
C296 C304 1.574 . S
C296 C312 1.368 1_554 S
H297 C305 0.950 . S
H298 C303 0.950 . S
H299 C304 0.949 . S
H300 C306 0.950 . S
H301 C307 0.950 . S
H302 C308 0.949 . S
C303 H298 0.950 . S
C303 C305 1.327 . S
C303 C309 1.429 . S
C304 C296 1.574 . S
C304 H299 0.949 . S
C304 C310 1.368 . S
C305 C289 1.349 . S
C305 H297 0.950 . S
C305 C303 1.327 . S
C306 C294 1.349 . S
C306 H300 0.950 . S
C306 C307 1.327 . S
C307 H301 0.950 . S
C307 C306 1.327 . S
C307 C311 1.429 . S
C308 C291 1.574 1_556 S
C308 H302 0.949 . S
C308 C312 1.368 . S
C309 C290 1.429 . S
C309 C303 1.429 . S
C309 C310 1.523 . S
C310 C291 1.368 . S
C310 C304 1.368 . S
C310 C309 1.523 . S
C311 C295 1.429 . S
C311 C307 1.429 . S
C311 C312 1.523 . S
C312 C296 1.368 1_556 S
C312 C308 1.368 . S
C312 C311 1.523 . S
H313 C288 0.950 . S
H314 C290 0.950 . S
H315 C291 0.949 . S
H316 C293 0.950 . S
H317 C295 0.950 . S
C318 C319 1.349 . S
C318 C320 1.327 . S
C318 H343 0.950 . S
C319 C318 1.349 . S
C319 C335 1.349 1_455 S
C320 C318 1.327 . S
C320 C339 1.429 . S
C320 H344 0.950 . S
C321 C338 1.574 . S
C321 C340 1.368 1_655 S
C321 H345 0.949 . S
H322 C326 0.949 . S
C323 C324 1.349 1_655 S
C323 C325 1.327 . S
C323 H346 0.950 . S
C324 C323 1.349 1_455 S
C324 C336 1.349 . S
C325 C323 1.327 . S
C325 C341 1.429 1_655 S
C325 H347 0.950 . S
C326 H322 0.949 . S
C326 C334 1.574 . S
C326 C342 1.368 . S
H327 C335 0.950 . S
H328 C333 0.950 . S
H329 C334 0.949 . S
H330 C336 0.950 . S
H331 C337 0.950 . S
H332 C338 0.949 . S
C333 H328 0.950 . S
C333 C335 1.327 . S
C333 C339 1.429 1_655 S
C334 C326 1.574 . S
C334 H329 0.949 . S
C334 C340 1.368 . S
C335 C319 1.349 1_655 S
C335 H327 0.950 . S
C335 C333 1.327 . S
C336 C324 1.349 . S
C336 H330 0.950 . S
C336 C337 1.327 . S
C337 H331 0.950 . S
C337 C336 1.327 . S
C337 C341 1.429 . S
C338 C321 1.574 . S
C338 H332 0.949 . S
C338 C342 1.368 1_655 S
C339 C320 1.429 . S
C339 C333 1.429 1_455 S
C339 C340 1.523 . S
C340 C321 1.368 1_455 S
C340 C334 1.368 . S
C340 C339 1.523 . S
C341 C325 1.429 1_455 S
C341 C337 1.429 . S
C341 C342 1.523 . S
C342 C326 1.368 . S
C342 C338 1.368 1_455 S
C342 C341 1.523 . S
H343 C318 0.950 . S
H344 C320 0.950 . S
H345 C321 0.949 . S
H346 C323 0.950 . S
H347 C325 0.950 . S
C348 C349 1.349 1_565 S
C348 C350 1.327 . S
C348 H373 0.950 . S
C349 C348 1.349 1_545 S
C349 C365 1.349 . S
C350 C348 1.327 . S
C350 C369 1.429 1_565 S
C350 H374 0.950 . S
C351 C368 1.574 . S
C351 C370 1.368 . S
C351 H375 0.949 . S
H352 C356 0.949 . S
C353 C354 1.349 . S
C353 C355 1.327 . S
C353 H376 0.950 . S
C354 C353 1.349 . S
C354 C366 1.349 1_545 S
C355 C353 1.327 . S
C355 C371 1.429 . S
C355 H377 0.950 . S
C356 H352 0.949 . S
C356 C364 1.574 . S
C356 C372 1.368 1_565 S
H357 C365 0.950 . S
H358 C363 0.950 . S
H359 C364 0.949 . S
H360 C366 0.950 . S
H361 C367 0.950 . S
H362 C368 0.949 . S
C363 H358 0.950 . S
C363 C365 1.327 . S
C363 C369 1.429 . S
C364 C356 1.574 . S
C364 H359 0.949 . S
C364 C370 1.368 1_565 S
C365 C349 1.349 . S
C365 H357 0.950 . S
C365 C363 1.327 . S
C366 C354 1.349 1_565 S
C366 H360 0.950 . S
C366 C367 1.327 . S
C367 H361 0.950 . S
C367 C366 1.327 . S
C367 C371 1.429 1_565 S
C368 C351 1.574 . S
C368 H362 0.949 . S
C368 C372 1.368 . S
C369 C350 1.429 1_545 S
C369 C363 1.429 . S
C369 C370 1.523 . S
C370 C351 1.368 . S
C370 C364 1.368 1_545 S
C370 C369 1.523 . S
C371 C355 1.429 . S
C371 C367 1.429 1_545 S
C371 C372 1.523 . S
C372 C356 1.368 1_545 S
C372 C368 1.368 . S
C372 C371 1.523 . S
H373 C348 0.950 . S
H374 C350 0.950 . S
H375 C351 0.949 . S
H376 C353 0.950 . S
H377 C355 0.950 . S
C378 C379 1.349 . S
C378 C380 1.327 . S
C378 H403 0.950 . S
C379 C378 1.349 . S
C379 C395 1.349 . S
C380 C378 1.327 . S
C380 C399 1.429 . S
C380 H404 0.950 . S
C381 C398 1.574 1_554 S
C381 C400 1.368 . S
C381 H405 0.949 . S
H382 C386 0.949 . S
C383 C384 1.349 . S
C383 C385 1.327 . S
C383 H406 0.950 . S
C384 C383 1.349 . S
C384 C396 1.349 . S
C385 C383 1.327 . S
C385 C401 1.429 . S
C385 H407 0.950 . S
C386 H382 0.949 . S
C386 C394 1.574 . S
C386 C402 1.368 1_554 S
H387 C395 0.950 . S
H388 C393 0.950 . S
H389 C394 0.949 . S
H390 C396 0.950 . S
H391 C397 0.950 . S
H392 C398 0.949 . S
C393 H388 0.950 . S
C393 C395 1.327 . S
C393 C399 1.429 . S
C394 C386 1.574 . S
C394 H389 0.949 . S
C394 C400 1.368 . S
C395 C379 1.349 . S
C395 H387 0.950 . S
C395 C393 1.327 . S
C396 C384 1.349 . S
C396 H390 0.950 . S
C396 C397 1.327 . S
C397 H391 0.950 . S
C397 C396 1.327 . S
C397 C401 1.429 . S
C398 C381 1.574 1_556 S
C398 H392 0.949 . S
C398 C402 1.368 . S
C399 C380 1.429 . S
C399 C393 1.429 . S
C399 C400 1.523 . S
C400 C381 1.368 . S
C400 C394 1.368 . S
C400 C399 1.523 . S
C401 C385 1.429 . S
C401 C397 1.429 . S
C401 C402 1.523 . S
C402 C386 1.368 1_556 S
C402 C398 1.368 . S
C402 C401 1.523 . S
H403 C378 0.950 . S
H404 C380 0.950 . S
H405 C381 0.949 . S
H406 C383 0.950 . S
H407 C385 0.950 . S
C408 C409 1.349 1_455 S
C408 C410 1.327 . S
C408 H433 0.950 . S
C409 C408 1.349 1_655 S
C409 C425 1.349 . S
C410 C408 1.327 . S
C410 C429 1.429 1_455 S
C410 H434 0.950 . S
C411 C428 1.574 . S
C411 C430 1.381 . S
C411 H435 0.949 . S
H412 C416 0.949 . S
C413 C414 1.349 1_655 S
C413 C415 1.327 . S
C413 H436 0.950 . S
C414 C413 1.349 1_455 S
C414 C426 1.349 . S
C415 C413 1.327 . S
C415 C431 1.429 1_655 S
C415 H437 0.950 . S
C416 H412 0.949 . S
C416 C424 1.574 . S
C416 C432 1.380 . S
H417 C425 0.950 . S
H418 C423 0.950 . S
H419 C424 0.949 . S
H420 C426 0.950 . S
H421 C427 0.950 . S
H422 C428 0.949 . S
C423 H418 0.950 . S
C423 C425 1.327 . S
C423 C429 1.429 . S
C424 C416 1.574 . S
C424 H419 0.949 . S
C424 C430 1.361 1_455 S
C425 C409 1.349 . S
C425 H417 0.950 . S
C425 C423 1.327 . S
C426 C414 1.349 . S
C426 H420 0.950 . S
C426 C427 1.327 . S
C427 H421 0.950 . S
C427 C426 1.327 . S
C427 C431 1.429 . S
C428 C411 1.574 . S
C428 H422 0.949 . S
C428 C432 1.361 1_655 S
C429 C410 1.429 1_655 S
C429 C423 1.429 . S
C429 C430 1.517 . S
C430 C411 1.381 . S
C430 C424 1.361 1_655 S
C430 C429 1.517 . S
C431 C415 1.429 1_455 S
C431 C427 1.429 . S
C431 C432 1.518 . S
C432 C416 1.380 . S
C432 C428 1.361 1_455 S
C432 C431 1.518 . S
H433 C408 0.950 . S
H434 C410 0.950 . S
H435 C411 0.949 . S
H436 C413 0.950 . S
H437 C415 0.950 . S
C84 C44 1.432 1_455 S
C79 C10 1.441 . S
C109 C17 1.517 . S
C114 C62 1.512 1_545 S
C139 C36 1.524 . S
C144 C75 1.519 . S
C169 C5 1.440 . S
C174 C42 1.434 1_455 S
C204 C53 1.513 1_545 S
C199 C16 1.523 . S
C229 C31 1.526 . S
C234 C66 1.521 . S
C264 C55 1.425 1_545 S
C259 C30 1.435 . S
C289 C3 1.445 . S
C294 C68 1.435 . S
C324 C49 1.515 1_455 S
C319 C18 1.520 . S
C354 C57 1.428 1_545 S
C349 C29 1.437 . S
C384 C70 1.434 . S
C379 C4 1.443 . S
C409 C23 1.517 . S
C414 C40 1.511 1_455 S
