# Generated by pormake.
# Topology zzz, (3,6)-cn, num edge types: 1
# Building blocks:
#     Node 0, Type 0, BuildingBlock: OLANEW_clean_sbu_2, # of connection points: 3
#     Node 1, Type 0, BuildingBlock: OLANEW_clean_sbu_2, # of connection points: 3
#     Node 2, Type 0, BuildingBlock: OLANEW_clean_sbu_2, # of connection points: 3
#     Node 3, Type 0, BuildingBlock: OLANEW_clean_sbu_2, # of connection points: 3
#     Node 4, Type 0, BuildingBlock: OLANEW_clean_sbu_2, # of connection points: 3
#     Node 5, Type 0, BuildingBlock: OLANEW_clean_sbu_2, # of connection points: 3
#     Node 6, Type 0, BuildingBlock: OLANEW_clean_sbu_2, # of connection points: 3
#     Node 7, Type 0, BuildingBlock: OLANEW_clean_sbu_2, # of connection points: 3
#     Node 8, Type 1, BuildingBlock: NUHQIS_clean_sbu_0, # of connection points: 6
#     Node 9, Type 1, BuildingBlock: NUHQIS_clean_sbu_0, # of connection points: 6
#     Node 10, Type 1, BuildingBlock: NUHQIS_clean_sbu_0, # of connection points: 6
#     Node 11, Type 1, BuildingBlock: NUHQIS_clean_sbu_0, # of connection points: 6
#     Edge 12, Type (0, 1), BuildingBlock: XUDNAN_clean_linker_2, # of connection points: 2
#     Edge 13, Type (0, 1), BuildingBlock: XUDNAN_clean_linker_2, # of connection points: 2
#     Edge 14, Type (0, 1), BuildingBlock: XUDNAN_clean_linker_2, # of connection points: 2
#     Edge 15, Type (0, 1), BuildingBlock: XUDNAN_clean_linker_2, # of connection points: 2
#     Edge 16, Type (0, 1), BuildingBlock: XUDNAN_clean_linker_2, # of connection points: 2
#     Edge 17, Type (0, 1), BuildingBlock: XUDNAN_clean_linker_2, # of connection points: 2
#     Edge 18, Type (0, 1), BuildingBlock: XUDNAN_clean_linker_2, # of connection points: 2
#     Edge 19, Type (0, 1), BuildingBlock: XUDNAN_clean_linker_2, # of connection points: 2
#     Edge 20, Type (0, 1), BuildingBlock: XUDNAN_clean_linker_2, # of connection points: 2
#     Edge 21, Type (0, 1), BuildingBlock: XUDNAN_clean_linker_2, # of connection points: 2
#     Edge 22, Type (0, 1), BuildingBlock: XUDNAN_clean_linker_2, # of connection points: 2
#     Edge 23, Type (0, 1), BuildingBlock: XUDNAN_clean_linker_2, # of connection points: 2
#     Edge 24, Type (0, 1), BuildingBlock: XUDNAN_clean_linker_2, # of connection points: 2
#     Edge 25, Type (0, 1), BuildingBlock: XUDNAN_clean_linker_2, # of connection points: 2
#     Edge 26, Type (0, 1), BuildingBlock: XUDNAN_clean_linker_2, # of connection points: 2
#     Edge 27, Type (0, 1), BuildingBlock: XUDNAN_clean_linker_2, # of connection points: 2
#     Edge 28, Type (0, 1), BuildingBlock: XUDNAN_clean_linker_2, # of connection points: 2
#     Edge 29, Type (0, 1), BuildingBlock: XUDNAN_clean_linker_2, # of connection points: 2
#     Edge 30, Type (0, 1), BuildingBlock: XUDNAN_clean_linker_2, # of connection points: 2
#     Edge 31, Type (0, 1), BuildingBlock: XUDNAN_clean_linker_2, # of connection points: 2
#     Edge 32, Type (0, 1), BuildingBlock: XUDNAN_clean_linker_2, # of connection points: 2
#     Edge 33, Type (0, 1), BuildingBlock: XUDNAN_clean_linker_2, # of connection points: 2
#     Edge 34, Type (0, 1), BuildingBlock: XUDNAN_clean_linker_2, # of connection points: 2
#     Edge 35, Type (0, 1), BuildingBlock: XUDNAN_clean_linker_2, # of connection points: 2
# Relax obj value: 0.227
# Max RMSD: 0.158
# Mean RMSD: 0.148
data_MOF--net-zzz--node1-OLANEW_clean_sbu_2--node2-NUHQIS_clean_sbu_0--edge1-XUDNAN_clean_linker_2
_symmetry_space_group_name_H-M    P1
_symmetry_Int_Tables_number       1
_symmetry_cell_setting            triclinic
loop_
_symmetry_equiv_pos_as_xyz
'x, y, z'
_cell_length_a     56.290653
_cell_length_b     56.300093
_cell_length_c     15.818957
_cell_angle_alpha  89.804032
_cell_angle_beta   89.981921
_cell_angle_gamma 90.014412
loop_
_atom_site_label
_atom_site_type_symbol
_atom_site_fract_x
_atom_site_fract_y
_atom_site_fract_z
_atom_type_partial_charge
O0 O 0.74224 0.53911 0.36809 0.0
Cd1 Cd 0.70055 0.54923 0.39153 0.0
O2 O 0.73433 0.50104 0.3535 0.0
Cd3 Cd 0.74996 0.46569 0.34482 0.0
O4 O 0.78513 0.45293 0.37941 0.0
C5 C 0.79253 0.46 0.45093 0.0
O6 O 0.77791 0.47191 0.49977 0.0
C7 C 0.74921 0.51805 0.35414 0.0
C8 C 0.67174 0.53654 0.25569 0.0
O9 O 0.68429 0.55552 0.25374 0.0
O10 O 0.67279 0.52339 0.32188 0.0
O11 O 0.95085 0.75496 0.11494 0.0
Cd12 Cd 0.92241 0.72249 0.132 0.0
O13 O 0.94841 0.75903 0.2521 0.0
Cd14 Cd 0.95286 0.77906 0.36855 0.0
O15 O 0.95198 0.80817 0.45817 0.0
C16 C 0.97091 0.81703 0.48827 0.0
O17 O 0.99148 0.80765 0.4677 0.0
C18 C 0.9568 0.76597 0.18156 0.0
C19 C 0.93297 0.68301 0.03355 0.0
O20 O 0.92065 0.70027 0.00384 0.0
O21 O 0.94048 0.68452 0.10984 0.0
O22 O 0.7556 0.93961 0.08259 0.0
Cd23 Cd 0.792 0.91721 0.10833 0.0
O24 O 0.75306 0.9366 0.22003 0.0
Cd25 Cd 0.7345 0.94071 0.33977 0.0
O26 O 0.70728 0.95203 0.42793 0.0
C27 C 0.68586 0.9506 0.40335 0.0
O28 O 0.68132 0.94148 0.3287 0.0
C29 C 0.74468 0.94443 0.15062 0.0
C30 C 0.83209 0.94454 0.07482 0.0
O31 O 0.82494 0.92885 0.02209 0.0
O32 O 0.82036 0.94729 0.14349 0.0
O33 O 0.54256 0.75978 0.16069 0.0
Cd34 Cd 0.56624 0.7958 0.14365 0.0
O35 O 0.55302 0.75564 0.29372 0.0
Cd36 Cd 0.55509 0.73341 0.40701 0.0
O37 O 0.54832 0.70202 0.48442 0.0
C38 C 0.54321 0.70322 0.56249 0.0
O39 O 0.54263 0.72408 0.59946 0.0
C40 C 0.54172 0.74812 0.22949 0.0
C41 C 0.54179 0.83128 0.05693 0.0
O42 O 0.55109 0.81374 0.01759 0.0
O43 O 0.54394 0.83211 0.13751 0.0
O44 O 0.26808 0.5193 0.1675 0.0
Cd45 Cd 0.30953 0.5118 0.13112 0.0
O46 O 0.25437 0.49138 0.08441 0.0
Cd47 Cd 0.22797 0.47134 0.01181 0.0
O48 O 0.22563 0.45221 0.89178 0.0
C49 C 0.20821 0.45035 0.84112 0.0
O50 O 0.21159 0.43992 0.76796 0.0
C51 C 0.25057 0.50799 0.13687 0.0
C52 C 0.33762 0.51325 0.276 0.0
O53 O 0.33128 0.53236 0.23806 0.0
O54 O 0.33093 0.49333 0.24504 0.0
O55 O 0.98783 0.27142 0.08922 0.0
Cd56 Cd 0.98872 0.31445 0.07645 0.0
O57 O 0.02452 0.27131 0.13681 0.0
Cd58 Cd 0.05574 0.25027 0.1701 0.0
O59 O 0.06607 0.21581 0.12059 0.0
C60 C 0.06907 0.21572 0.04104 0.0
O61 O 0.06812 0.23601 0.99988 0.0
C62 C 0.00558 0.26013 0.11821 0.0
C63 C 0.99544 0.3337 0.23627 0.0
O64 O 0.97492 0.32668 0.21188 0.0
O65 O 0.01289 0.33204 0.18456 0.0
O66 O 0.22269 0.92631 0.14436 0.0
Cd67 Cd 0.18418 0.9342 0.07944 0.0
O68 O 0.22964 0.96271 0.10388 0.0
Cd69 Cd 0.24786 0.99659 0.08579 0.0
O70 O 0.27757 0.01836 0.04413 0.0
C71 C 0.28744 0.01239 0.97522 0.0
O72 O 0.27809 0.99503 0.93094 0.0
C73 C 0.23677 0.94393 0.14136 0.0
C74 C 0.15679 0.95913 0.19554 0.0
O75 O 0.15362 0.93681 0.18447 0.0
O76 O 0.17242 0.96974 0.15029 0.0
O77 O 0.52402 0.26051 0.11705 0.0
Cd78 Cd 0.5283 0.21853 0.08285 0.0
O79 O 0.49009 0.25692 0.05124 0.0
Cd80 Cd 0.45671 0.26875 0.99493 0.0
O81 O 0.42848 0.27118 0.90051 0.0
C82 C 0.42512 0.28962 0.85556 0.0
O83 O 0.40953 0.2889 0.79384 0.0
C84 C 0.50452 0.26966 0.0931 0.0
C85 C 0.51953 0.19051 0.22498 0.0
O86 O 0.54083 0.19408 0.19931 0.0
O87 O 0.50245 0.19998 0.18344 0.0
Tb88 Tb 0.0331 0.00556 0.82624 0.0
Eu89 Eu 0.9979 0.03128 0.68687 0.0
C90 C 0.05067 0.01471 0.6431 0.0
C91 C 0.03418 0.0605 0.7989 0.0
C92 C 0.05296 0.95925 0.97109 0.0
C93 C 0.04457 0.93462 0.09425 0.0
C94 C 0.05152 0.95641 0.05911 0.0
C95 C 0.0481 0.93968 0.91884 0.0
C96 C 0.04138 0.91792 0.95384 0.0
C97 C 0.03899 0.91522 0.04188 0.0
C98 C 0.0571 0.98304 0.93417 0.0
O99 O 0.99693 -0.00026 0.869 0.0
O100 O 0.97956 0.03299 0.81338 0.0
O101 O 0.98438 0.99401 0.70077 0.0
O102 O 0.01962 0.97744 0.74452 0.0
C103 C 0.97956 0.01523 0.86715 0.0
O104 O 0.97542 0.06113 0.65039 0.0
O105 O 0.98048 0.03187 0.56366 0.0
O106 O 0.02857 0.015 0.61711 0.0
O107 O 0.05616 0.01705 0.72333 0.0
O108 O 0.03323 0.04339 0.85552 0.0
O109 O 0.02637 0.05733 0.72171 0.0
C110 C 0.99805 0.97544 0.71319 0.0
O111 O 0.06233 0.98374 0.85384 0.0
O112 O 0.04144 0.99916 0.95401 0.0
C113 C 0.97673 0.07015 0.50541 0.0
C114 C 0.98526 0.10446 0.37899 0.0
C115 C 0.96237 0.09495 0.39062 0.0
C116 C 0.95815 0.07794 0.45347 0.0
C117 C -0.00027 0.07906 0.49274 0.0
C118 C 0.00396 0.0961 0.43006 0.0
C119 C 0.97194 0.0532 0.57396 0.0
H120 H 0.04272 0.9333 0.16223 0.0
H121 H 0.05498 0.97129 0.10059 0.0
H122 H 0.04887 0.94127 0.85063 0.0
H123 H 0.03774 0.90327 0.91154 0.0
H124 H 0.94753 0.10124 0.35316 0.0
H125 H 0.94029 0.0712 0.46255 0.0
H126 H 0.01431 0.0731 0.53219 0.0
H127 H 0.02183 0.10289 0.42209 0.0
Tb128 Tb 0.50528 0.03241 0.79838 0.0
Eu129 Eu 0.48179 0.01004 0.62248 0.0
C130 C 0.49895 0.06316 0.63837 0.0
C131 C 0.44938 0.03207 0.77236 0.0
C132 C 0.54725 0.03727 0.97241 0.0
C133 C 0.58334 0.04372 0.05327 0.0
C134 C 0.56217 0.05238 0.01837 0.0
C135 C 0.55357 0.01331 0.96273 0.0
C136 C 0.57458 0.00461 0.99793 0.0
C137 C 0.58992 0.01976 0.04268 0.0
C138 C 0.52592 0.04665 0.93007 0.0
O139 O 0.50762 0.99396 0.80663 0.0
O140 O 0.47558 0.9834 0.72585 0.0
O141 O 0.51984 0.99822 0.62052 0.0
O142 O 0.5355 0.02429 0.71805 0.0
C143 C 0.49132 0.97852 0.78445 0.0
O144 O 0.47391 0.98087 0.53617 0.0
O145 O 0.46351 0.01684 0.50354 0.0
O146 O 0.50147 0.04379 0.59373 0.0
O147 O 0.49391 0.06205 0.71926 0.0
O148 O 0.46751 0.03219 0.82462 0.0
O149 O 0.45143 0.02724 0.69147 0.0
C150 C 0.53798 0.00823 0.65859 0.0
O151 O 0.52949 0.0559 0.85543 0.0
O152 O 0.50743 0.03269 0.93076 0.0
C153 C 0.43841 0.98558 0.4557 0.0
C154 C 0.39415 0.96869 0.39628 0.0
C155 C 0.41213 0.9527 0.4203 0.0
C156 C 0.43405 0.96106 0.44929 0.0
C157 C 0.42041 0.00156 0.43159 0.0
C158 C 0.39854 0.9932 0.40239 0.0
C159 C 0.46191 0.99436 0.48415 0.0
H160 H 0.59487 0.05595 0.08638 0.0
H161 H 0.5577 0.07098 0.02578 0.0
H162 H 0.54242 0.00132 0.92695 0.0
H163 H 0.57883 0.986 0.98965 0.0
H164 H 0.40939 0.93372 0.41534 0.0
H165 H 0.44766 0.9483 0.46618 0.0
H166 H 0.4232 0.02056 0.435 0.0
H167 H 0.38497 0.00598 0.38534 0.0
Tb168 Tb 0.48579 0.50417 0.89306 0.0
Eu169 Eu 0.50898 0.48867 0.70875 0.0
C170 C 0.45465 0.49765 0.72954 0.0
C171 C 0.48848 0.45041 0.84253 0.0
C172 C 0.47596 0.53994 0.08075 0.0
C173 C 0.4647 0.5741 0.16503 0.0
C174 C 0.45908 0.5521 0.12931 0.0
C175 C 0.49881 0.54954 0.07106 0.0
C176 C 0.50443 0.57146 0.1066 0.0
C177 C 0.48724 0.58429 0.152 0.0
C178 C 0.46889 0.51923 0.03059 0.0
O179 O 0.52261 0.49431 0.91835 0.0
O180 O 0.53961 0.50074 0.78824 0.0
O181 O 0.50393 0.5285 0.7077 0.0
O182 O 0.50517 0.5352 0.85052 0.0
C183 C 0.54131 0.4984 0.87056 0.0
O184 O 0.5338 0.46842 0.63095 0.0
O185 O 0.50906 0.49293 0.57195 0.0
O186 O 0.46992 0.482 0.70232 0.0
O187 O 0.45995 0.51156 0.79328 0.0
O188 O 0.47614 0.46711 0.88027 0.0
O189 O 0.50457 0.455 0.78446 0.0
C190 C 0.50652 0.5429 0.77235 0.0
O191 O 0.46017 0.52446 0.95672 0.0
O192 O 0.4843 0.50202 0.02578 0.0
C193 C 0.51818 0.45752 0.49722 0.0
C194 C 0.50642 0.42132 0.38093 0.0
C195 C 0.5284 0.42113 0.42338 0.0
C196 C 0.53425 0.43909 0.48042 0.0
C197 C 0.4963 0.45795 0.45417 0.0
C198 C 0.49052 0.44007 0.39655 0.0
C199 C 0.52442 0.47589 0.56012 0.0
H200 H 0.45105 0.58365 0.19915 0.0
H201 H 0.44127 0.54507 0.13647 0.0
H202 H 0.51205 0.54054 0.03311 0.0
H203 H 0.52205 0.57867 0.09656 0.0
H204 H 0.54094 0.40678 0.41431 0.0
H205 H 0.55124 0.43837 0.5125 0.0
H206 H 0.48352 0.47197 0.46528 0.0
H207 H 0.47358 0.44097 0.36429 0.0
Tb208 Tb 0.98511 0.4767 0.83547 0.0
Eu209 Eu 0.00776 0.49803 0.65735 0.0
C210 C 0.00907 0.44308 0.69834 0.0
C211 C 0.03972 0.48765 0.81906 0.0
C212 C 0.94639 0.46841 0.02504 0.0
C213 C 0.90696 0.48548 0.03935 0.0
C214 C 0.92675 0.48009 0.9895 0.0
C215 C 0.94612 0.46251 0.11122 0.0
C216 C 0.92638 0.46803 0.1613 0.0
C217 C 0.90651 0.47944 0.12579 0.0
C218 C 0.96715 0.46217 0.97306 0.0
O219 O 0.98536 0.51533 0.84506 0.0
O220 O 0.98134 0.52449 0.70521 0.0
O221 O 0.97367 0.47988 0.62487 0.0
O222 O 0.95467 0.48347 0.75267 0.0
C223 C 0.97923 0.53023 0.78491 0.0
O224 O 0.02377 0.5278 0.58953 0.0
O225 O 0.01609 0.495 0.52333 0.0
O226 O 0.0217 0.46092 0.66917 0.0
O227 O 0.99212 0.44618 0.75465 0.0
O228 O 0.0235 0.47283 0.84748 0.0
O229 O 0.03509 0.50301 0.75877 0.0
C230 C 0.9543 0.4792 0.67081 0.0
O231 O 0.96264 0.45293 0.89941 0.0
O232 O 0.98391 0.47807 0.96841 0.0
C233 C 0.04887 0.51752 0.47654 0.0
C234 C 0.09301 0.52166 0.39444 0.0
C235 C 0.07387 0.53628 0.37094 0.0
C236 C 0.05197 0.53419 0.41164 0.0
C237 C 0.06786 0.50282 0.50041 0.0
C238 C 0.08979 0.5048 0.45932 0.0
C239 C 0.02578 0.51601 0.51903 0.0
H240 H 0.89209 0.49461 0.01039 0.0
H241 H 0.92669 0.48499 0.92318 0.0
H242 H 0.96115 0.45351 0.13972 0.0
H243 H 0.92652 0.46301 0.22747 0.0
H244 H 0.07577 0.54923 0.32059 0.0
H245 H 0.03745 0.54565 0.39255 0.0
H246 H 0.06575 0.48994 0.55093 0.0
H247 H 0.10432 0.49349 0.47923 0.0
H248 H 0.11181 0.95022 0.25282 0.0
H249 H 0.17232 0.9969 0.28722 0.0
H250 H 0.15164 0.01672 0.40559 0.0
H251 H 0.06709 0.99565 0.29494 0.0
H252 H 0.0473 0.97517 0.34732 0.0
H253 H 0.06693 0.96475 0.26549 0.0
H254 H 0.08414 0.93335 0.36846 0.0
H255 H 0.06471 0.9437 0.45088 0.0
H256 H 0.09634 0.94276 0.46828 0.0
H257 H 0.12582 0.02873 0.52869 0.0
H258 H 0.09438 0.03572 0.63573 0.0
H259 H 0.04942 0.98398 0.51148 0.0
C260 C 0.1206 0.9647 0.28509 0.0
C261 C 0.14366 0.972 0.2616 0.0
C262 C 0.15459 0.99115 0.30435 0.0
C263 C 0.14304 0.00242 0.37176 0.0
C264 C 0.1204 0.99463 0.39415 0.0
C265 C 0.10909 0.97654 0.35102 0.0
C266 C 0.08451 0.97196 0.38626 0.0
C267 C 0.06532 0.97721 0.31953 0.0
C268 C 0.08232 0.94643 0.42051 0.0
C269 C 0.08397 0.98997 0.45704 0.0
C270 C 0.10494 0.00268 0.46131 0.0
C271 C 0.10915 0.01921 0.52512 0.0
C272 C 0.09133 0.02298 0.58571 0.0
C273 C 0.06953 0.01062 0.58063 0.0
C274 C 0.06582 0.994 0.51544 0.0
H275 H 0.54203 0.1496 0.2708 0.0
H276 H 0.48565 0.19757 0.34529 0.0
H277 H 0.47676 0.17196 0.46898 0.0
H278 H 0.50966 0.09736 0.3157 0.0
H279 H 0.53502 0.08056 0.35142 0.0
H280 H 0.53889 0.10418 0.27579 0.0
H281 H 0.56962 0.1242 0.37463 0.0
H282 H 0.56577 0.10063 0.45077 0.0
H283 H 0.56141 0.13108 0.48197 0.0
H284 H 0.47379 0.14062 0.58352 0.0
H285 H 0.47333 0.10351 0.66837 0.0
H286 H 0.52894 0.07446 0.50975 0.0
C287 C 0.52811 0.15487 0.31415 0.0
C288 C 0.51473 0.17565 0.29979 0.0
C289 C 0.49615 0.18172 0.35596 0.0
C290 C 0.49109 0.16738 0.42644 0.0
C291 C 0.50451 0.14685 0.43869 0.0
C292 C 0.5224 0.14041 0.38332 0.0
C293 C 0.53251 0.11628 0.40549 0.0
C294 C 0.52878 0.09856 0.33279 0.0
C295 C 0.55889 0.11818 0.42967 0.0
C296 C 0.51736 0.11004 0.4814 0.0
C297 C 0.50171 0.12812 0.50093 0.0
C298 C 0.48595 0.12634 0.56877 0.0
C299 C 0.48586 0.1053 0.61675 0.0
C300 C 0.50101 0.08624 0.59507 0.0
C301 C 0.5171 0.08879 0.52723 0.0
H302 H 0.36831 0.47949 0.33636 0.0
H303 H 0.33984 0.54945 0.38971 0.0
H304 H 0.36413 0.5514 0.51965 0.0
H305 H 0.37333 0.45842 0.55362 0.0
H306 H 0.40123 0.44359 0.53545 0.0
H307 H 0.38016 0.44675 0.45043 0.0
H308 H 0.41225 0.46747 0.35839 0.0
H309 H 0.43339 0.46416 0.4429 0.0
H310 H 0.42748 0.49317 0.39919 0.0
H311 H 0.39204 0.5461 0.6419 0.0
H312 H 0.42465 0.53584 0.73969 0.0
H313 H 0.43636 0.47017 0.60256 0.0
C314 C 0.367 0.49508 0.37604 0.0
C315 C 0.35206 0.51424 0.35372 0.0
C316 C 0.35117 0.53458 0.40596 0.0
C317 C 0.36478 0.53578 0.48004 0.0
C318 C 0.37938 0.51661 0.5003 0.0
C319 C 0.38082 0.49677 0.4493 0.0
C320 C 0.39928 0.47944 0.48189 0.0
C321 C 0.3878 0.45564 0.50684 0.0
C322 C 0.41928 0.47587 0.41673 0.0
C323 C 0.40806 0.49272 0.55885 0.0
C324 C 0.39611 0.51394 0.5691 0.0
C325 C 0.40149 0.5295 0.6347 0.0
C326 C 0.41999 0.52346 0.69014 0.0
C327 C 0.43306 0.50221 0.67883 0.0
C328 C 0.42666 0.48651 0.61311 0.0
H329 H 0.02701 0.36791 0.28476 0.0
H330 H 0.97043 0.32265 0.37826 0.0
H331 H 0.97367 0.34134 0.51883 0.0
H332 H 0.06161 0.37298 0.48655 0.0
H333 H 0.06796 0.40395 0.46788 0.0
H334 H 0.06463 0.38395 0.37987 0.0
H335 H 0.03186 0.41108 0.31669 0.0
H336 H 0.03527 0.43114 0.4039 0.0
H337 H 0.00649 0.41874 0.38065 0.0
H338 H 0.97961 0.36766 0.64254 0.0
H339 H 0.98446 0.40238 0.73504 0.0
H340 H 0.0362 0.43187 0.56001 0.0
C341 C 0.01583 0.36151 0.33569 0.0
C342 C 0.99869 0.34368 0.32143 0.0
C343 C 0.98374 0.33625 0.38837 0.0
C344 C 0.98561 0.3466 0.4685 0.0
C345 C 0.00241 0.36446 0.48037 0.0
C346 C 0.01715 0.37201 0.41564 0.0
C347 C 0.0312 0.39378 0.44126 0.0
C348 C 0.05794 0.38833 0.44407 0.0
C349 C 0.02587 0.41492 0.38215 0.0
C350 C 0.02139 0.39781 0.52921 0.0
C351 C 0.00529 0.38032 0.55138 0.0
C352 C 0.99243 0.38128 0.62651 0.0
C353 C 0.99533 0.40111 0.67873 0.0
C354 C 0.01071 0.4199 0.65491 0.0
C355 C 0.02455 0.41769 0.58075 0.0
H356 H 0.87209 0.93098 0.99094 0.0
H357 H 0.83958 0.99078 0.11839 0.0
H358 H 0.87444 0.01575 0.08247 0.0
H359 H 0.93227 0.94375 0.06258 0.0
H360 H 0.94568 0.93383 0.96542 0.0
H361 H 0.91813 0.92091 0.0008 0.0
H362 H 0.89834 0.93205 0.85783 0.0
H363 H 0.92594 0.94476 0.82242 0.0
H364 H 0.89927 0.96246 0.82174 0.0
H365 H 0.91142 0.03493 0.02042 0.0
H366 H 0.94966 0.04546 0.95129 0.0
H367 H 0.95929 0.97189 0.87914 0.0
C368 C 0.87237 0.94933 0.0113 0.0
C369 C 0.85319 0.95912 0.0566 0.0
C370 C 0.85421 0.98305 0.08352 0.0
C371 C 0.87386 0.99733 0.06329 0.0
C372 C 0.8925 0.98717 0.01801 0.0
C373 C 0.8921 0.96359 0.99377 0.0
C374 C 0.91462 0.95675 0.94774 0.0
C375 C 0.92849 0.93769 0.99711 0.0
C376 C 0.9092 0.94854 0.85706 0.0
C377 C 0.92752 0.9803 0.94818 0.0
C378 C 0.91443 0.99773 0.98812 0.0
C379 C 0.92206 0.02132 0.99055 0.0
C380 C 0.94368 0.02717 0.9512 0.0
C381 C 0.95748 0.00937 0.91201 0.0
C382 C 0.94933 0.98569 0.91103 0.0
H383 H 0.54072 0.87856 0.09424 0.0
H384 H 0.51574 0.82671 0.91278 0.0
H385 H 0.49632 0.85873 0.83053 0.0
H386 H 0.48997 0.91947 0.08405 0.0
H387 H 0.50851 0.94552 0.08975 0.0
H388 H 0.51786 0.9183 0.13993 0.0
H389 H 0.55733 0.91959 0.05545 0.0
H390 H 0.54809 0.94679 0.00533 0.0
H391 H 0.55638 0.92161 0.94173 0.0
H392 H 0.48089 0.8965 0.76569 0.0
H393 H 0.47428 0.9375 0.71451 0.0
H394 H 0.5119 0.96479 0.93307 0.0
C395 C 0.53075 0.87396 0.03807 0.0
C396 C 0.52936 0.85022 0.01021 0.0
C397 C 0.51683 0.84484 0.93515 0.0
C398 C 0.50567 0.86286 0.88841 0.0
C399 C 0.50755 0.88617 0.91707 0.0
C400 C 0.52002 0.8918 0.98961 0.0
C401 C 0.52139 0.91843 0.00204 0.0
C402 C 0.50867 0.92586 0.0838 0.0
C403 C 0.54733 0.9271 0.00103 0.0
C404 C 0.50799 0.92687 0.92465 0.0
C405 C 0.49973 0.908 0.87737 0.0
C406 C 0.4872 0.91143 0.80231 0.0
C407 C 0.48346 0.93476 0.7739 0.0
C408 C 0.49262 0.95427 0.81977 0.0
C409 C 0.50473 0.9502 0.89665 0.0
H410 H 0.6304 0.51089 0.26004 0.0
H411 H 0.67773 0.54881 0.0903 0.0
H412 H 0.65101 0.53992 0.97056 0.0
H413 H 0.61078 0.46486 0.11207 0.0
H414 H 0.58055 0.46541 0.14964 0.0
H415 H 0.60458 0.47251 0.22044 0.0
H416 H 0.58476 0.51294 0.25425 0.0
H417 H 0.5607 0.50593 0.18373 0.0
H418 H 0.57742 0.53292 0.16885 0.0
H419 H 0.61864 0.52824 0.8707 0.0
H420 H 0.58126 0.51752 0.79917 0.0
H421 H 0.55378 0.48912 0.03538 0.0
C422 C 0.63531 0.51694 0.19735 0.0
C423 C 0.65623 0.5303 0.18396 0.0
C424 C 0.6618 0.53848 0.10162 0.0
C425 C 0.64681 0.53342 0.03327 0.0
C426 C 0.62619 0.5204 0.04861 0.0
C427 C 0.62029 0.51245 0.1287 0.0
C428 C 0.5961 0.50061 0.12923 0.0
C429 C 0.59814 0.47428 0.15432 0.0
C430 C 0.57873 0.5139 0.18745 0.0
C431 C 0.58926 0.50337 0.03714 0.0
C432 C 0.60703 0.51448 0.99152 0.0
C433 C 0.60463 0.51942 0.90563 0.0
C434 C 0.58333 0.5132 0.86552 0.0
C435 C 0.56458 0.50244 0.91157 0.0
C436 C 0.56779 0.49725 0.99833 0.0
H437 H 0.9532 0.64102 0.08474 0.0
H438 H 0.92434 0.67722 0.86476 0.0
H439 H 0.93274 0.6419 0.77767 0.0
H440 H 0.00056 0.61077 0.97782 0.0
H441 H 0.99773 0.58396 0.03965 0.0
H442 H 0.98952 0.61212 0.0847 0.0
H443 H 0.94756 0.59566 0.11855 0.0
H444 H 0.95563 0.56747 0.07342 0.0
H445 H 0.92989 0.58312 0.03477 0.0
H446 H 0.94477 0.60305 0.71418 0.0
H447 H 0.95907 0.56291 0.67866 0.0
H448 H 0.97924 0.55162 0.94078 0.0
C449 C 0.94869 0.64155 0.01821 0.0
C450 C 0.93817 0.6619 0.98144 0.0
C451 C 0.9324 0.66182 0.89428 0.0
C452 C 0.93711 0.64186 0.84429 0.0
C453 C 0.94744 0.62209 0.88255 0.0
C454 C 0.9531 0.62172 0.96753 0.0
C455 C 0.96392 0.59814 0.99311 0.0
C456 C 0.98945 0.60146 0.02572 0.0
C457 C 0.94831 0.58535 0.05885 0.0
C458 C 0.96359 0.58536 0.90908 0.0
C459 C 0.95405 0.59952 0.84615 0.0
C460 C 0.95222 0.59176 0.76293 0.0
C461 C 0.96042 0.56894 0.74341 0.0
C462 C 0.97026 0.55409 0.80692 0.0
C463 C 0.97171 0.56247 0.89087 0.0
H464 H 0.02264 0.23548 0.25309 0.0
H465 H 0.98271 0.2271 0.02104 0.0
H466 H 0.97643 0.18453 0.05509 0.0
H467 H 0.05102 0.17534 0.25309 0.0
H468 H 0.04874 0.17334 0.36645 0.0
H469 H 0.05253 0.20189 0.31625 0.0
H470 H 0.01454 0.21683 0.39287 0.0
H471 H 0.01048 0.18817 0.44115 0.0
H472 H 0.98698 0.20102 0.37861 0.0
H473 H 0.97118 0.14404 0.12282 0.0
H474 H 0.96753 0.10917 0.21764 0.0
H475 H 0.01131 0.14476 0.40399 0.0
C476 C 0.01345 0.22446 0.20764 0.0
C477 C 0.00377 0.23431 0.13323 0.0
C478 C 0.99057 0.2197 0.0778 0.0
C479 C 0.98701 0.19554 0.09647 0.0
C480 C 0.99675 0.18639 0.17085 0.0
C481 C 0.00985 0.20041 0.22521 0.0
C482 C 0.01675 0.18697 0.30438 0.0
C483 C 0.04387 0.18423 0.31035 0.0
C484 C 0.00657 0.19896 0.38389 0.0
C485 C 0.00486 0.1634 0.28755 0.0
C486 C 0.99357 0.16327 0.20997 0.0
C487 C 0.98016 0.14387 0.1833 0.0
C488 C 0.97808 0.12421 0.2377 0.0
C489 C 0.98924 0.12419 0.31802 0.0
C490 C 0.00304 0.14397 0.34227 0.0
H491 H 0.27752 0.97031 0.1101 0.0
H492 H 0.24963 0.91373 0.26832 0.0
H493 H 0.28764 0.91228 0.34589 0.0
H494 H 0.33803 0.95154 0.10009 0.0
H495 H 0.34994 0.98117 0.10838 0.0
H496 H 0.32113 0.97655 0.06188 0.0
H497 H 0.30241 0.00584 0.17128 0.0
H498 H 0.33152 0.01057 0.21465 0.0
H499 H 0.30752 0.00097 0.28212 0.0
H500 H 0.32797 0.91848 0.41147 0.0
H501 H 0.36742 0.93203 0.46009 0.0
H502 H 0.36809 0.98571 0.26251 0.0
C503 C 0.279 0.95808 0.16232 0.0
C504 C 0.2602 0.94262 0.18435 0.0
C505 C 0.26371 0.92584 0.25025 0.0
C506 C 0.28522 0.92491 0.29491 0.0
C507 C 0.3031 0.9409 0.27308 0.0
C508 C 0.3002 0.95723 0.20852 0.0
C509 C 0.32182 0.97311 0.19988 0.0
C510 C 0.33341 0.97041 0.11237 0.0
C511 C 0.31544 0.99916 0.21806 0.0
C512 C 0.33739 0.96302 0.2692 0.0
C513 C 0.3263 0.94445 0.31072 0.0
C514 C 0.3369 0.93289 0.37902 0.0
C515 C 0.35934 0.94065 0.40599 0.0
C516 C 0.37087 0.9599 0.36507 0.0
C517 C 0.3597 0.97104 0.29544 0.0
H518 H 0.53459 0.30745 0.10573 0.0
H519 H 0.46117 0.28647 0.14074 0.0
H520 H 0.45225 0.32571 0.2025 0.0
H521 H 0.54201 0.33639 0.2919 0.0
H522 H 0.56007 0.36041 0.25223 0.0
H523 H 0.55984 0.33238 0.19828 0.0
H524 H 0.5474 0.35338 0.059 0.0
H525 H 0.54776 0.38162 0.11244 0.0
H526 H 0.52138 0.37204 0.05769 0.0
H527 H 0.45289 0.36453 0.27964 0.0
H528 H 0.46274 0.40007 0.36312 0.0
H529 H 0.53534 0.39696 0.27092 0.0
C530 C 0.5165 0.31145 0.12415 0.0
C531 C 0.49847 0.29416 0.11749 0.0
C532 C 0.47509 0.29972 0.14349 0.0
C533 C 0.4699 0.32191 0.17906 0.0
C534 C 0.48817 0.33851 0.18604 0.0
C535 C 0.51093 0.33368 0.15804 0.0
C536 C 0.52776 0.35384 0.17848 0.0
C537 C 0.54863 0.34523 0.2335 0.0
C538 C 0.53659 0.36594 0.09705 0.0
C539 C 0.51129 0.37003 0.22724 0.0
C540 C 0.48842 0.36112 0.22949 0.0
C541 C 0.47059 0.37199 0.27662 0.0
C542 C 0.47636 0.39226 0.3237 0.0
C543 C 0.49982 0.40145 0.32362 0.0
C544 C 0.51727 0.39037 0.27293 0.0
H545 H 0.21332 0.47844 0.17412 0.0
H546 H 0.23399 0.55257 0.16183 0.0
H547 H 0.19504 0.56423 0.22049 0.0
H548 H 0.14972 0.48658 0.12795 0.0
H549 H 0.14074 0.46406 0.20268 0.0
H550 H 0.16914 0.46187 0.15063 0.0
H551 H 0.18986 0.45935 0.29664 0.0
H552 H 0.16159 0.46195 0.34909 0.0
H553 H 0.18508 0.48265 0.37269 0.0
H554 H 0.155 0.56777 0.28652 0.0
H555 H 0.11637 0.56297 0.3585 0.0
H556 H 0.12223 0.48642 0.33477 0.0
C557 C 0.20932 0.49713 0.18181 0.0
C558 C 0.22636 0.51469 0.16234 0.0
C559 C 0.22097 0.53893 0.17582 0.0
C560 C 0.19895 0.5457 0.20903 0.0
C561 C 0.18269 0.52796 0.22954 0.0
C562 C 0.18758 0.50417 0.21677 0.0
C563 C 0.16769 0.48864 0.25036 0.0
C564 C 0.15613 0.47444 0.17862 0.0
C565 C 0.1766 0.47218 0.32141 0.0
C566 C 0.15095 0.50741 0.28413 0.0
C567 C 0.15987 0.52997 0.27076 0.0
C568 C 0.14774 0.5502 0.2969 0.0
C569 C 0.12581 0.54731 0.33746 0.0
C570 C 0.11632 0.52435 0.35195 0.0
C571 C 0.12915 0.50417 0.32506 0.0
H572 H 0.95737 0.79916 0.05545 0.0
H573 H 0.99072 0.78075 0.29387 0.0
H574 H 0.01531 0.81711 0.28546 0.0
H575 H 0.00939 0.82298 0.95377 0.0
H576 H 0.99347 0.84648 0.90083 0.0
H577 H 0.97859 0.81903 0.92596 0.0
H578 H 0.94621 0.84233 0.00775 0.0
H579 H 0.96102 0.86982 0.98272 0.0
H580 H 0.95492 0.8622 0.09133 0.0
H581 H 0.03672 0.8554 0.24911 0.0
H582 H 0.05267 0.89273 0.18919 0.0
H583 H 0.00415 0.88639 0.97698 0.0
C584 C 0.96993 0.80276 0.10568 0.0
C585 C 0.97193 0.78737 0.17598 0.0
C586 C 0.98849 0.79266 0.2406 0.0
C587 C 0.00267 0.81314 0.23595 0.0
C588 C 7e-05 0.82811 0.16618 0.0
C589 C 0.98406 0.82319 0.1023 0.0
C590 C 0.9844 0.84231 0.03478 0.0
C591 C 0.99192 0.83208 0.94877 0.0
C592 C 0.9602 0.85491 0.02885 0.0
C593 C 0.00327 0.85863 0.07019 0.0
C594 C 0.01214 0.85016 0.1459 0.0
C595 C 0.02983 0.86224 0.19 0.0
C596 C 0.03868 0.88352 0.15568 0.0
C597 C 0.02978 0.89256 0.07813 0.0
C598 C 0.01174 0.87985 0.03549 0.0
H599 H 0.71019 0.94429 0.0286 0.0
H600 H 0.72967 0.97722 0.26606 0.0
H601 H 0.69161 0.99901 0.26747 0.0
H602 H 0.68263 0.99666 0.93911 0.0
H603 H 0.65972 0.98016 0.88553 0.0
H604 H 0.68819 0.96664 0.905 0.0
H605 H 0.6674 0.93169 0.9824 0.0
H606 H 0.63888 0.94522 0.9637 0.0
H607 H 0.64784 0.93781 0.06994 0.0
H608 H 0.65078 0.01635 0.24471 0.0
H609 H 0.6118 0.03053 0.19342 0.0
H610 H 0.62042 0.98844 0.96587 0.0
C611 C 0.70641 0.95609 0.08083 0.0
C612 C 0.72243 0.95838 0.14894 0.0
C613 C 0.71712 0.97433 0.21534 0.0
C614 C 0.69568 0.98701 0.21614 0.0
C615 C 0.67991 0.98382 0.14934 0.0
C616 C 0.68515 0.96901 0.0823 0.0
C617 C 0.66546 0.96929 0.01709 0.0
C618 C 0.67455 0.97876 0.93164 0.0
C619 C 0.65423 0.94453 0.00778 0.0
C620 C 0.64837 0.98655 0.05797 0.0
C621 C 0.65691 0.99459 0.13452 0.0
C622 C 0.64403 0.0104 0.18433 0.0
C623 C 0.62196 0.01844 0.15447 0.0
C624 C 0.61302 0.01074 0.07537 0.0
C625 C 0.62652 0.9945 0.02701 0.0
H626 H 0.5408 0.71467 0.10588 0.0
H627 H 0.51463 0.7296 0.35794 0.0
H628 H 0.49735 0.68922 0.36611 0.0
H629 H 0.48973 0.67944 0.0375 0.0
H630 H 0.50781 0.65917 0.9774 0.0
H631 H 0.51717 0.68952 0.99077 0.0
H632 H 0.55723 0.67492 0.05263 0.0
H633 H 0.54791 0.64457 0.03986 0.0
H634 H 0.55719 0.65504 0.14224 0.0
H635 H 0.48419 0.64654 0.34777 0.0
H636 H 0.47589 0.60517 0.30385 0.0
H637 H 0.5099 0.61911 0.0624 0.0
C638 C 0.53115 0.70953 0.1623 0.0
C639 C 0.52947 0.72496 0.2321 0.0
C640 C 0.51674 0.71768 0.3049 0.0
C641 C 0.50667 0.69491 0.30971 0.0
C642 C 0.50923 0.67983 0.2406 0.0
C643 C 0.52099 0.68692 0.16798 0.0
C644 C 0.5218 0.6672 0.10334 0.0
C645 C 0.50831 0.67426 0.02249 0.0
C646 C 0.54757 0.66001 0.08341 0.0
C647 C 0.50893 0.64781 0.15131 0.0
C648 C 0.50169 0.65542 0.23016 0.0
C649 C 0.4897 0.64041 0.28604 0.0
C650 C 0.485 0.617 0.26051 0.0
C651 C 0.49236 0.60889 0.17997 0.0
C652 C 0.50438 0.62464 0.12493 0.0
H653 H 0.7681 0.49573 0.21821 0.0
H654 H 0.78711 0.53026 0.45286 0.0
H655 H 0.8297 0.52176 0.42512 0.0
H656 H 0.81275 0.44959 0.21823 0.0
H657 H 0.81812 0.45187 0.10631 0.0
H658 H 0.78931 0.45915 0.14857 0.0
H659 H 0.79171 0.50069 0.07815 0.0
H660 H 0.82052 0.4935 0.03592 0.0
H661 H 0.81678 0.51963 0.1001 0.0
H662 H 0.87024 0.50937 0.37003 0.0
H663 H 0.90557 0.49805 0.2862 0.0
H664 H 0.85962 0.47356 0.08429 0.0
C665 C 0.78129 0.50129 0.26391 0.0
C666 C 0.77453 0.51329 0.33817 0.0
C667 C 0.79212 0.52093 0.39581 0.0
C668 C 0.81625 0.5161 0.38068 0.0
C669 C 0.82238 0.5041 0.30674 0.0
C670 C 0.80539 0.4971 0.24879 0.0
C671 C 0.81663 0.48611 0.17134 0.0
C672 C 0.80874 0.46014 0.16055 0.0
C673 C 0.81108 0.50087 0.0917 0.0
C674 C 0.84262 0.4878 0.19485 0.0
C675 C 0.8456 0.49798 0.27353 0.0
C676 C 0.8681 0.50151 0.30815 0.0
C677 C 0.88805 0.49491 0.26028 0.0
C678 C 0.88537 0.48511 0.17838 0.0
C679 C 0.86228 0.48131 0.14613 0.0
H680 H 0.05985 0.17068 0.10005 0.0
H681 H 0.07955 0.21002 0.87413 0.0
H682 H 0.07594 0.17346 0.7899 0.0
H683 H 0.08969 0.11387 0.04057 0.0
H684 H 0.06617 0.0962 0.08592 0.0
H685 H 0.0733 0.12477 0.13035 0.0
H686 H 0.02977 0.13768 0.11195 0.0
H687 H 0.02221 0.10956 0.06562 0.0
H688 H 0.01614 0.13672 0.00887 0.0
H689 H 0.06572 0.1344 0.72766 0.0
H690 H 0.05124 0.09439 0.69163 0.0
H691 H 0.03876 0.07971 0.95763 0.0
C692 C 0.06408 0.17145 0.03335 0.0
C693 C 0.07014 0.19317 0.99372 0.0
C694 C 0.07497 0.19357 0.90588 0.0
C695 C 0.07301 0.17289 0.85749 0.0
C696 C 0.06636 0.15192 0.89799 0.0
C697 C 0.06223 0.15094 0.98405 0.0
C698 C 0.05378 0.12647 0.01077 0.0
C699 C 0.07182 0.11463 0.07042 0.0
C700 C 0.02899 0.12769 0.0516 0.0
C701 C 0.05307 0.11412 0.9258 0.0
C702 C 0.06059 0.12912 0.8618 0.0
C703 C 0.06017 0.12234 0.77727 0.0
C704 C 0.0518 0.09962 0.75743 0.0
C705 C 0.04403 0.08391 0.82187 0.0
C706 C 0.04495 0.09121 0.9072 0.0
H707 H 0.31223 0.00452 0.82921 0.0
H708 H 0.31569 0.04217 0.06796 0.0
H709 H 0.35662 0.05485 0.0347 0.0
H710 H 0.36933 0.98186 0.83455 0.0
H711 H 0.37502 0.98486 0.72287 0.0
H712 H 0.34506 0.98126 0.76024 0.0
H713 H 0.3327 0.02014 0.68384 0.0
H714 H 0.36267 0.0238 0.64582 0.0
H715 H 0.34866 0.04724 0.70508 0.0
H716 H 0.39853 0.05914 0.98399 0.0
H717 H 0.43804 0.0559 0.91707 0.0
H718 H 0.40691 0.01649 0.70941 0.0
C719 C 0.32138 0.01589 0.87368 0.0
C720 C 0.31072 0.02246 0.95099 0.0
C721 C 0.32342 0.03709 0.00799 0.0
C722 C 0.34668 0.04438 0.98966 0.0
C723 C 0.35684 0.03715 0.91365 0.0
C724 C 0.34452 0.02344 0.85612 0.0
C725 C 0.36002 0.01673 0.78166 0.0
C726 C 0.3625 0.98958 0.77448 0.0
C727 C 0.35044 0.02764 0.69922 0.0
C728 C 0.3832 0.0282 0.80754 0.0
C729 C 0.38096 0.04001 0.88361 0.0
C730 C 0.40041 0.05034 0.92363 0.0
C731 C 0.42278 0.04833 0.88533 0.0
C732 C 0.42546 0.03616 0.8077 0.0
C733 C 0.40531 0.02636 0.76781 0.0
H734 H 0.44342 0.32029 0.73881 0.0
H735 H 0.43573 0.30899 0.0086 0.0
H736 H 0.45444 0.34806 0.0354 0.0
H737 H 0.50168 0.35147 0.75066 0.0
H738 H 0.49412 0.37134 0.66522 0.0
H739 H 0.48204 0.34169 0.66776 0.0
H740 H 0.43946 0.35901 0.65848 0.0
H741 H 0.45139 0.38864 0.65637 0.0
H742 H 0.4299 0.38044 0.73578 0.0
H743 H 0.46935 0.38991 0.03234 0.0
H744 H 0.48132 0.43122 0.9986 0.0
H745 H 0.48231 0.41408 0.73175 0.0
C746 C 0.44618 0.32587 0.80354 0.0
C747 C 0.43846 0.31164 0.87179 0.0
C748 C 0.44206 0.31947 0.95567 0.0
C749 C 0.45262 0.34158 0.97149 0.0
C750 C 0.45994 0.35529 0.90279 0.0
C751 C 0.4572 0.34761 0.82045 0.0
C752 C 0.46566 0.36618 0.75783 0.0
C753 C 0.48716 0.35712 0.70741 0.0
C754 C 0.44539 0.37403 0.69868 0.0
C755 C 0.47273 0.38586 0.81771 0.0
C756 C 0.46932 0.37923 0.90111 0.0
C757 C 0.47255 0.39516 0.96743 0.0
C758 C 0.47924 0.41853 0.9478 0.0
C759 C 0.48301 0.42552 0.86288 0.0
C760 C 0.48008 0.4089 0.7973 0.0
H761 H 0.17768 0.47325 0.7361 0.0
H762 H 0.18483 0.44651 0.99198 0.0
H763 H 0.1423 0.45544 0.01825 0.0
H764 H 0.13621 0.52263 0.78784 0.0
H765 H 0.12004 0.5189 0.69042 0.0
H766 H 0.15128 0.51201 0.69474 0.0
H767 H 0.14232 0.46972 0.63925 0.0
H768 H 0.11108 0.47634 0.63599 0.0
H769 H 0.12155 0.45113 0.69575 0.0
H770 H 0.09815 0.46355 0.01124 0.0
H771 H 0.05623 0.47151 0.97207 0.0
H772 H 0.07929 0.49602 0.72514 0.0
C773 C 0.17045 0.47 0.79855 0.0
C774 C 0.18442 0.45942 0.86237 0.0
C775 C 0.17443 0.45505 0.94295 0.0
C776 C 0.15037 0.46011 0.95846 0.0
C777 C 0.13695 0.47036 0.89385 0.0
C778 C 0.14677 0.47565 0.81589 0.0
C779 C 0.12837 0.48558 0.75568 0.0
C780 C 0.13433 0.51132 0.73075 0.0
C781 C 0.12568 0.46974 0.67708 0.0
C782 C 0.1065 0.48447 0.81114 0.0
C783 C 0.11173 0.47558 0.89055 0.0
C784 C 0.09394 0.471 0.9499 0.0
C785 C 0.07022 0.47551 0.92716 0.0
C786 C 0.06463 0.48479 0.84633 0.0
C787 C 0.0831 0.48958 0.78832 0.0
H788 H 0.00804 0.84197 0.55725 0.0
H789 H 0.93127 0.84249 0.52985 0.0
H790 H 0.92964 0.8818 0.59741 0.0
H791 H 0.00945 0.87437 0.76409 0.0
H792 H 0.03607 0.89021 0.73518 0.0
H793 H 0.03098 0.86068 0.69535 0.0
H794 H 0.03606 0.87641 0.54196 0.0
H795 H 0.04093 0.90595 0.58126 0.0
H796 H 0.01763 0.90056 0.5056 0.0
H797 H 0.9366 0.92288 0.64988 0.0
H798 H 0.95174 0.96236 0.69065 0.0
H799 H 0.02381 0.93492 0.68763 0.0
C800 C 0.99083 0.8501 0.56722 0.0
C801 C 0.96979 0.83915 0.53815 0.0
C802 C 0.94764 0.85049 0.55167 0.0
C803 C 0.9465 0.87282 0.59018 0.0
C804 C 0.96763 0.88342 0.61588 0.0
C805 C 0.98936 0.87233 0.60612 0.0
C806 C 0.00952 0.88827 0.63427 0.0
C807 C 0.02225 0.87775 0.71183 0.0
C808 C 0.02705 0.89308 0.56143 0.0
C809 C 0.99578 0.9104 0.6575 0.0
C810 C 0.97162 0.90714 0.64739 0.0
C811 C 0.95545 0.92555 0.65933 0.0
C812 C 0.96422 0.94794 0.68184 0.0
C813 C 0.98893 0.95165 0.69224 0.0
C814 C 0.00481 0.93252 0.68102 0.0
H815 H 0.63871 0.95383 0.36236 0.0
H816 H 0.6891 0.96899 0.56298 0.0
H817 H 0.65668 0.98565 0.64954 0.0
H818 H 0.60355 0.00651 0.38792 0.0
H819 H 0.57582 0.99178 0.36573 0.0
H820 H 0.60299 0.98096 0.31962 0.0
H821 H 0.59509 0.93927 0.38383 0.0
H822 H 0.56788 0.94992 0.43004 0.0
H823 H 0.5902 0.93632 0.49603 0.0
H824 H 0.61905 0.00103 0.71334 0.0
H825 H 0.57839 0.01319 0.7521 0.0
H826 H 0.55244 0.98738 0.5107 0.0
C827 C 0.64294 0.96054 0.42465 0.0
C828 C 0.66642 0.96004 0.45608 0.0
C829 C 0.67123 0.96916 0.53766 0.0
C830 C 0.65295 0.97868 0.58726 0.0
C831 C 0.63002 0.97896 0.55423 0.0
C832 C 0.62494 0.97009 0.47494 0.0
C833 C 0.5988 0.97252 0.45427 0.0
C834 C 0.59508 0.98892 0.37736 0.0
C835 C 0.58732 0.94805 0.44025 0.0
C836 C 0.58992 0.98393 0.53482 0.0
C837 C 0.60826 0.98765 0.59134 0.0
C838 C 0.60453 0.99821 0.66968 0.0
C839 C 0.58139 0.0051 0.69096 0.0
C840 C 0.56228 0.0012 0.63438 0.0
C841 C 0.56667 0.99044 0.55542 0.0
H842 H 0.53674 0.65843 0.49939 0.0
H843 H 0.5365 0.69852 0.73348 0.0
H844 H 0.52683 0.66186 0.81273 0.0
H845 H 0.48779 0.62025 0.55122 0.0
H846 H 0.50047 0.59454 0.50074 0.0
H847 H 0.50762 0.62384 0.46259 0.0
H848 H 0.55241 0.6152 0.48121 0.0
H849 H 0.54555 0.5858 0.51917 0.0
H850 H 0.56338 0.60547 0.58265 0.0
H851 H 0.5178 0.62069 0.86637 0.0
H852 H 0.50935 0.57825 0.89055 0.0
H853 H 0.51495 0.56531 0.6206 0.0
C854 C 0.53474 0.65954 0.56737 0.0
C855 C 0.53748 0.68134 0.61035 0.0
C856 C 0.5345 0.68202 0.69924 0.0
C857 C 0.52902 0.66129 0.74478 0.0
C858 C 0.52647 0.6401 0.70037 0.0
C859 C 0.52916 0.63909 0.61364 0.0
C860 C 0.52538 0.61413 0.58092 0.0
C861 C 0.50403 0.61314 0.52033 0.0
C862 C 0.54803 0.6046 0.53851 0.0
C863 C 0.52022 0.6012 0.6629 0.0
C864 C 0.52097 0.61648 0.73108 0.0
C865 C 0.5171 0.60857 0.81344 0.0
C866 C 0.51235 0.58439 0.82647 0.0
C867 C 0.51146 0.56839 0.75743 0.0
C868 C 0.51541 0.57704 0.67468 0.0
H869 H 0.81397 0.47504 0.59668 0.0
H870 H 0.82863 0.44126 0.35589 0.0
H871 H 0.87149 0.44201 0.38776 0.0
H872 H 0.86336 0.51386 0.59501 0.0
H873 H 0.86913 0.51159 0.70685 0.0
H874 H 0.83942 0.50746 0.66732 0.0
H875 H 0.83728 0.46613 0.73953 0.0
H876 H 0.86692 0.47018 0.77999 0.0
H877 H 0.85994 0.44438 0.71753 0.0
H878 H 0.91255 0.44835 0.4419 0.0
H879 H 0.94947 0.45804 0.5174 0.0
H880 H 0.90838 0.48684 0.72574 0.0
C881 C 0.82614 0.46744 0.55117 0.0
C882 C 0.81792 0.45804 0.47373 0.0
C883 C 0.83447 0.44848 0.41564 0.0
C884 C 0.85886 0.44884 0.4332 0.0
C885 C 0.86636 0.45857 0.50952 0.0
C886 C 0.85052 0.46749 0.56798 0.0
C887 C 0.8633 0.4774 0.64449 0.0
C888 C 0.85852 0.50416 0.65393 0.0
C889 C 0.85645 0.4637 0.72515 0.0
C890 C 0.88885 0.4727 0.61979 0.0
C891 C 0.89016 0.46195 0.54146 0.0
C892 C 0.91177 0.45658 0.50358 0.0
C893 C 0.93264 0.46228 0.54697 0.0
C894 C 0.93181 0.47318 0.62764 0.0
C895 C 0.90957 0.47833 0.6646 0.0
loop_
_geom_bond_atom_site_label_1
_geom_bond_atom_site_label_2
_geom_bond_distance
_geom_bond_site_symmetry_2
_ccdc_geom_bond_type
O0 Cd1 2.300 . S
O0 C7 1.275 . S
Cd1 O0 2.300 . S
Cd1 O9 2.381 . S
Cd1 O10 2.378 . S
O2 Cd3 2.385 . S
O2 C7 1.255 . S
Cd3 O2 2.385 . S
Cd3 O4 2.317 . S
O4 Cd3 2.317 . S
O4 C5 1.232 . S
C5 O4 1.232 . S
C5 O6 1.218 . S
O6 C5 1.218 . S
C7 O0 1.275 . S
C7 O2 1.255 . S
C8 O9 1.258 . S
C8 O10 1.256 . S
O9 Cd1 2.381 . S
O9 C8 1.258 . S
O10 Cd1 2.378 . S
O10 C8 1.256 . S
O11 Cd12 2.300 1_655 S
O11 C18 1.275 1_655 S
Cd12 O11 2.300 1_455 S
Cd12 O20 2.381 1_455 S
Cd12 O21 2.378 . S
O13 Cd14 2.385 . S
O13 C18 1.255 . S
Cd14 O13 2.385 . S
Cd14 O15 2.317 . S
O15 Cd14 2.317 . S
O15 C16 1.232 . S
C16 O15 1.232 . S
C16 O17 1.218 . S
O17 C16 1.218 . S
C18 O11 1.275 1_455 S
C18 O13 1.255 . S
C19 O20 1.258 1_455 S
C19 O21 1.256 . S
O20 Cd12 2.381 1_655 S
O20 C19 1.258 1_655 S
O21 Cd12 2.378 . S
O21 C19 1.256 . S
O22 Cd23 2.300 1_565 S
O22 C29 1.275 1_565 S
Cd23 O22 2.300 1_545 S
Cd23 O31 2.381 1_545 S
Cd23 O32 2.378 . S
O24 Cd25 2.385 . S
O24 C29 1.255 . S
Cd25 O24 2.385 . S
Cd25 O26 2.317 . S
O26 Cd25 2.317 . S
O26 C27 1.232 . S
C27 O26 1.232 . S
C27 O28 1.218 . S
O28 C27 1.218 . S
C29 O22 1.275 1_545 S
C29 O24 1.255 . S
C30 O31 1.258 1_545 S
C30 O32 1.256 . S
O31 Cd23 2.381 1_565 S
O31 C30 1.258 1_565 S
O32 Cd23 2.378 . S
O32 C30 1.256 . S
O33 Cd34 2.300 . S
O33 C40 1.275 . S
Cd34 O33 2.300 . S
Cd34 O42 2.381 . S
Cd34 O43 2.378 . S
O35 Cd36 2.385 . S
O35 C40 1.255 . S
Cd36 O35 2.385 . S
Cd36 O37 2.317 . S
O37 Cd36 2.317 . S
O37 C38 1.232 . S
C38 O37 1.232 . S
C38 O39 1.218 . S
O39 C38 1.218 . S
C40 O33 1.275 . S
C40 O35 1.255 . S
C41 O42 1.258 . S
C41 O43 1.256 . S
O42 Cd34 2.381 . S
O42 C41 1.258 . S
O43 Cd34 2.378 . S
O43 C41 1.256 . S
O44 Cd45 2.300 . S
O44 C51 1.275 . S
Cd45 O44 2.300 . S
Cd45 O53 2.381 . S
Cd45 O54 2.378 . S
O46 Cd47 2.385 1_554 S
O46 C51 1.255 . S
Cd47 O46 2.385 1_556 S
Cd47 O48 2.317 . S
O48 Cd47 2.317 . S
O48 C49 1.232 . S
C49 O48 1.232 . S
C49 O50 1.218 . S
O50 C49 1.218 . S
C51 O44 1.275 . S
C51 O46 1.255 . S
C52 O53 1.258 . S
C52 O54 1.256 . S
O53 Cd45 2.381 . S
O53 C52 1.258 . S
O54 Cd45 2.378 . S
O54 C52 1.256 . S
O55 Cd56 2.300 1_655 S
O55 C62 1.275 1_655 S
Cd56 O55 2.300 1_455 S
Cd56 O64 2.381 1_455 S
Cd56 O65 2.378 . S
O57 Cd58 2.385 1_554 S
O57 C62 1.255 . S
Cd58 O57 2.385 1_556 S
Cd58 O59 2.317 . S
O59 Cd58 2.317 . S
O59 C60 1.232 . S
C60 O59 1.232 . S
C60 O61 1.218 . S
O61 C60 1.218 . S
C62 O55 1.275 1_455 S
C62 O57 1.255 . S
C63 O64 1.258 1_455 S
C63 O65 1.256 . S
O64 Cd56 2.381 1_655 S
O64 C63 1.258 1_655 S
O65 Cd56 2.378 . S
O65 C63 1.256 . S
O66 Cd67 2.300 1_565 S
O66 C73 1.275 1_565 S
Cd67 O66 2.300 1_545 S
Cd67 O75 2.381 1_545 S
Cd67 O76 2.378 . S
O68 Cd69 2.385 1_554 S
O68 C73 1.255 . S
Cd69 O68 2.385 1_556 S
Cd69 O70 2.317 . S
O70 Cd69 2.317 . S
O70 C71 1.232 . S
C71 O70 1.232 . S
C71 O72 1.218 . S
O72 C71 1.218 . S
C73 O66 1.275 1_545 S
C73 O68 1.255 . S
C74 O75 1.258 1_545 S
C74 O76 1.256 . S
O75 Cd67 2.381 1_565 S
O75 C74 1.258 1_565 S
O76 Cd67 2.378 . S
O76 C74 1.256 . S
O77 Cd78 2.300 . S
O77 C84 1.275 . S
Cd78 O77 2.300 . S
Cd78 O86 2.381 . S
Cd78 O87 2.378 . S
O79 Cd80 2.385 1_554 S
O79 C84 1.255 . S
Cd80 O79 2.385 1_556 S
Cd80 O81 2.317 . S
O81 Cd80 2.317 . S
O81 C82 1.232 . S
C82 O81 1.232 . S
C82 O83 1.218 . S
O83 C82 1.218 . S
C84 O77 1.275 . S
C84 O79 1.255 . S
C85 O86 1.258 . S
C85 O87 1.256 . S
O86 Cd78 2.381 . S
O86 C85 1.258 . S
O87 Cd78 2.378 . S
O87 C85 1.256 . S
Tb88 C98 2.825 . S
Tb88 O99 2.347 1_455 S
Tb88 O102 2.366 . S
Tb88 O107 2.418 . S
Tb88 O108 2.384 1_565 S
Tb88 O111 2.479 . S
Tb88 O112 2.471 . S
Eu89 O100 2.418 . S
Eu89 O101 2.384 1_545 S
Eu89 O104 2.479 . S
Eu89 O105 2.471 . S
Eu89 O106 2.347 1_655 S
Eu89 O109 2.366 . S
Eu89 C119 2.825 . S
C90 O106 1.259 1_565 S
C90 O107 1.265 . S
C91 O108 1.255 . S
C91 O109 1.265 1_455 S
C92 C94 1.380 . S
C92 C95 1.374 . S
C92 C98 1.507 . S
C93 C94 1.384 . S
C93 C97 1.387 1_556 S
C93 H120 0.930 1_556 S
C94 C92 1.380 . S
C94 C93 1.384 . S
C94 H121 0.931 . S
C95 C92 1.374 . S
C95 C96 1.390 . S
C95 H122 0.930 1_455 S
C96 C95 1.390 . S
C96 C97 1.391 1_556 S
C96 H123 0.930 1_456 S
C97 C93 1.387 1_554 S
C97 C96 1.391 1_554 S
C98 Tb88 2.825 . S
C98 C92 1.507 . S
C98 O111 1.238 . S
C98 O112 1.247 . S
O99 Tb88 2.347 1_655 S
O99 C103 1.259 1_565 S
O100 Eu89 2.418 . S
O100 C103 1.265 . S
O101 Eu89 2.384 1_565 S
O101 C110 1.255 . S
O102 Tb88 2.366 . S
O102 C110 1.265 1_455 S
C103 O99 1.259 1_545 S
C103 O100 1.265 . S
O104 Eu89 2.479 . S
O104 C119 1.238 . S
O105 Eu89 2.471 . S
O105 C119 1.247 . S
O106 Eu89 2.347 1_455 S
O106 C90 1.259 1_545 S
O107 Tb88 2.418 . S
O107 C90 1.265 . S
O108 Tb88 2.384 1_545 S
O108 C91 1.255 . S
O109 Eu89 2.366 . S
O109 C91 1.265 1_655 S
C110 O101 1.255 . S
C110 O102 1.265 1_655 S
O111 Tb88 2.479 . S
O111 C98 1.238 . S
O112 Tb88 2.471 . S
O112 C98 1.247 . S
C113 C116 1.380 . S
C113 C117 1.374 . S
C113 C119 1.507 . S
C114 C115 1.387 . S
C114 C118 1.391 . S
C115 C114 1.387 . S
C115 C116 1.384 . S
C115 H124 0.930 . S
C116 C113 1.380 . S
C116 C115 1.384 . S
C116 H125 0.931 . S
C117 C113 1.374 . S
C117 C118 1.390 . S
C117 H126 0.930 1_655 S
C118 C114 1.391 . S
C118 C117 1.390 . S
C118 H127 0.930 1_655 S
C119 Eu89 2.825 . S
C119 O104 1.238 . S
C119 O105 1.247 . S
C119 C113 1.507 . S
H120 C93 0.930 1_554 S
H121 C94 0.931 . S
H122 C95 0.930 1_655 S
H123 C96 0.930 1_654 S
H124 C115 0.930 . S
H125 C116 0.931 . S
H126 C117 0.930 1_455 S
H127 C118 0.930 1_455 S
Tb128 C138 2.825 . S
Tb128 O139 2.347 1_545 S
Tb128 O142 2.366 . S
Tb128 O147 2.418 . S
Tb128 O148 2.384 . S
Tb128 O151 2.479 . S
Tb128 O152 2.471 . S
Eu129 O140 2.418 . S
Eu129 O141 2.384 . S
Eu129 O144 2.479 . S
Eu129 O145 2.471 . S
Eu129 O146 2.347 1_565 S
Eu129 O149 2.366 . S
Eu129 C159 2.825 . S
C130 O146 1.259 . S
C130 O147 1.265 . S
C131 O148 1.255 . S
C131 O149 1.265 1_545 S
C132 C134 1.380 . S
C132 C135 1.374 . S
C132 C138 1.507 . S
C133 C134 1.384 . S
C133 C137 1.387 1_556 S
C133 H160 0.930 1_556 S
C134 C132 1.380 . S
C134 C133 1.384 . S
C134 H161 0.931 . S
C135 C132 1.374 . S
C135 C136 1.393 . S
C135 H162 0.930 1_545 S
C136 C135 1.393 . S
C136 C137 1.389 1_556 S
C136 H163 0.928 1_546 S
C137 C133 1.387 1_554 S
C137 C136 1.389 1_554 S
C138 Tb128 2.825 . S
C138 C132 1.507 . S
C138 O151 1.238 . S
C138 O152 1.247 . S
O139 Tb128 2.347 1_565 S
O139 C143 1.259 . S
O140 Eu129 2.418 . S
O140 C143 1.265 . S
O141 Eu129 2.384 . S
O141 C150 1.255 . S
O142 Tb128 2.366 . S
O142 C150 1.265 1_545 S
C143 O139 1.259 . S
C143 O140 1.265 . S
O144 Eu129 2.479 . S
O144 C159 1.238 . S
O145 Eu129 2.471 . S
O145 C159 1.247 . S
O146 Eu129 2.347 1_545 S
O146 C130 1.259 . S
O147 Tb128 2.418 . S
O147 C130 1.265 . S
O148 Tb128 2.384 . S
O148 C131 1.255 . S
O149 Eu129 2.366 . S
O149 C131 1.265 1_565 S
C150 O141 1.255 . S
C150 O142 1.265 1_565 S
O151 Tb128 2.479 . S
O151 C138 1.238 . S
O152 Tb128 2.471 . S
O152 C138 1.247 . S
C153 C156 1.380 . S
C153 C157 1.374 . S
C153 C159 1.507 . S
C154 C155 1.387 . S
C154 C158 1.391 . S
C155 C154 1.387 . S
C155 C156 1.384 . S
C155 H164 0.930 . S
C156 C153 1.380 . S
C156 C155 1.384 . S
C156 H165 0.931 . S
C157 C153 1.374 . S
C157 C158 1.390 . S
C157 H166 0.930 1_565 S
C158 C154 1.391 . S
C158 C157 1.390 . S
C158 H167 0.930 1_565 S
C159 Eu129 2.825 . S
C159 O144 1.238 . S
C159 O145 1.247 . S
C159 C153 1.507 . S
H160 C133 0.930 1_554 S
H161 C134 0.931 . S
H162 C135 0.930 1_565 S
H163 C136 0.928 1_564 S
H164 C155 0.930 . S
H165 C156 0.931 . S
H166 C157 0.930 1_545 S
H167 C158 0.930 1_545 S
Tb168 C178 2.825 . S
Tb168 O179 2.347 . S
Tb168 O182 2.366 . S
Tb168 O187 2.418 . S
Tb168 O188 2.384 . S
Tb168 O191 2.479 . S
Tb168 O192 2.471 . S
Eu169 O180 2.418 . S
Eu169 O181 2.384 . S
Eu169 O184 2.479 . S
Eu169 O185 2.471 . S
Eu169 O186 2.347 . S
Eu169 O189 2.366 . S
Eu169 C199 2.825 . S
C170 O186 1.259 . S
C170 O187 1.265 . S
C171 O188 1.255 . S
C171 O189 1.265 . S
C172 C174 1.380 . S
C172 C175 1.374 . S
C172 C178 1.507 . S
C173 C174 1.384 . S
C173 C177 1.387 1_556 S
C173 H200 0.930 1_556 S
C174 C172 1.380 . S
C174 C173 1.384 . S
C174 H201 0.931 . S
C175 C172 1.374 . S
C175 C176 1.387 1_556 S
C175 H202 0.930 . S
C176 C175 1.387 1_554 S
C176 C177 1.392 . S
C176 H203 0.932 . S
C177 C173 1.387 1_554 S
C177 C176 1.392 . S
C178 Tb168 2.825 . S
C178 C172 1.507 . S
C178 O191 1.238 . S
C178 O192 1.247 . S
O179 Tb168 2.347 . S
O179 C183 1.259 . S
O180 Eu169 2.418 . S
O180 C183 1.265 . S
O181 Eu169 2.384 . S
O181 C190 1.255 . S
O182 Tb168 2.366 . S
O182 C190 1.265 . S
C183 O179 1.259 . S
C183 O180 1.265 . S
O184 Eu169 2.479 . S
O184 C199 1.238 . S
O185 Eu169 2.471 . S
O185 C199 1.247 . S
O186 Eu169 2.347 . S
O186 C170 1.259 . S
O187 Tb168 2.418 . S
O187 C170 1.265 . S
O188 Tb168 2.384 . S
O188 C171 1.255 . S
O189 Eu169 2.366 . S
O189 C171 1.265 . S
C190 O181 1.255 . S
C190 O182 1.265 . S
O191 Tb168 2.479 . S
O191 C178 1.238 . S
O192 Tb168 2.471 . S
O192 C178 1.247 . S
C193 C196 1.380 . S
C193 C197 1.374 . S
C193 C199 1.507 . S
C194 C195 1.387 . S
C194 C198 1.391 . S
C195 C194 1.387 . S
C195 C196 1.384 . S
C195 H204 0.930 . S
C196 C193 1.380 . S
C196 C195 1.384 . S
C196 H205 0.931 . S
C197 C193 1.374 . S
C197 C198 1.390 . S
C197 H206 0.930 . S
C198 C194 1.391 . S
C198 C197 1.390 . S
C198 H207 0.930 . S
C199 Eu169 2.825 . S
C199 O184 1.238 . S
C199 O185 1.247 . S
C199 C193 1.507 . S
H200 C173 0.930 1_554 S
H201 C174 0.931 . S
H202 C175 0.930 . S
H203 C176 0.932 . S
H204 C195 0.930 . S
H205 C196 0.931 . S
H206 C197 0.930 . S
H207 C198 0.930 . S
Tb208 C218 2.825 . S
Tb208 O219 2.347 . S
Tb208 O222 2.366 . S
Tb208 O227 2.418 . S
Tb208 O228 2.384 1_655 S
Tb208 O231 2.479 . S
Tb208 O232 2.471 . S
Eu209 O220 2.418 . S
Eu209 O221 2.384 1_455 S
Eu209 O224 2.479 . S
Eu209 O225 2.471 . S
Eu209 O226 2.347 . S
Eu209 O229 2.366 . S
Eu209 C239 2.825 . S
C210 O226 1.259 1_655 S
C210 O227 1.265 . S
C211 O228 1.255 . S
C211 O229 1.265 . S
C212 C214 1.380 . S
C212 C215 1.374 . S
C212 C218 1.507 . S
C213 C214 1.384 . S
C213 C217 1.387 1_556 S
C213 H240 0.930 1_556 S
C214 C212 1.380 . S
C214 C213 1.384 . S
C214 H241 0.931 . S
C215 C212 1.374 . S
C215 C216 1.391 . S
C215 H242 0.930 . S
C216 C215 1.391 . S
C216 C217 1.390 1_556 S
C216 H243 0.930 1_556 S
C217 C213 1.387 1_554 S
C217 C216 1.390 1_554 S
C218 Tb208 2.825 . S
C218 C212 1.507 . S
C218 O231 1.238 . S
C218 O232 1.247 . S
O219 Tb208 2.347 . S
O219 C223 1.259 1_655 S
O220 Eu209 2.418 . S
O220 C223 1.265 . S
O221 Eu209 2.384 1_655 S
O221 C230 1.255 . S
O222 Tb208 2.366 . S
O222 C230 1.265 . S
C223 O219 1.259 1_455 S
C223 O220 1.265 . S
O224 Eu209 2.479 . S
O224 C239 1.238 . S
O225 Eu209 2.471 . S
O225 C239 1.247 . S
O226 Eu209 2.347 . S
O226 C210 1.259 1_455 S
O227 Tb208 2.418 . S
O227 C210 1.265 . S
O228 Tb208 2.384 1_455 S
O228 C211 1.255 . S
O229 Eu209 2.366 . S
O229 C211 1.265 . S
C230 O221 1.255 . S
C230 O222 1.265 . S
O231 Tb208 2.479 . S
O231 C218 1.238 . S
O232 Tb208 2.471 . S
O232 C218 1.247 . S
C233 C236 1.380 . S
C233 C237 1.374 . S
C233 C239 1.507 . S
C234 C235 1.387 . S
C234 C238 1.391 . S
C235 C234 1.387 . S
C235 C236 1.384 . S
C235 H244 0.930 . S
C236 C233 1.380 . S
C236 C235 1.384 . S
C236 H245 0.931 . S
C237 C233 1.374 . S
C237 C238 1.390 . S
C237 H246 0.930 . S
C238 C234 1.391 . S
C238 C237 1.390 . S
C238 H247 0.930 . S
C239 Eu209 2.825 . S
C239 O224 1.238 . S
C239 O225 1.247 . S
C239 C233 1.507 . S
H240 C213 0.930 1_554 S
H241 C214 0.931 . S
H242 C215 0.930 . S
H243 C216 0.930 1_554 S
H244 C235 0.930 . S
H245 C236 0.931 . S
H246 C237 0.930 . S
H247 C238 0.930 . S
H248 C260 0.930 . S
H249 C262 0.930 . S
H250 C263 0.930 . S
H251 C267 0.959 . S
H252 C267 0.959 . S
H253 C267 0.961 . S
H254 C268 0.960 . S
H255 C268 0.961 . S
H256 C268 0.959 . S
H257 C271 0.929 . S
H258 C272 0.931 . S
H259 C274 0.930 . S
C260 H248 0.930 . S
C260 C261 1.399 1_565 S
C260 C265 1.399 . S
C261 C260 1.399 1_545 S
C261 C262 1.376 . S
C262 H249 0.930 . S
C262 C261 1.376 . S
C262 C263 1.388 . S
C263 H250 0.930 . S
C263 C262 1.388 . S
C263 C264 1.390 . S
C264 C263 1.390 . S
C264 C265 1.394 1_545 S
C264 C270 1.465 . S
C265 C260 1.399 . S
C265 C264 1.394 1_565 S
C265 C266 1.516 . S
C266 C265 1.516 . S
C266 C267 1.502 . S
C266 C268 1.561 . S
C266 C269 1.526 . S
C267 H251 0.959 . S
C267 H252 0.959 . S
C267 H253 0.961 . S
C267 C266 1.502 . S
C268 H254 0.960 . S
C268 H255 0.961 . S
C268 H256 0.959 . S
C268 C266 1.561 . S
C269 C266 1.526 . S
C269 C270 1.396 1_565 S
C269 C274 1.390 . S
C270 C264 1.465 . S
C270 C269 1.396 1_545 S
C270 C271 1.399 . S
C271 H257 0.929 . S
C271 C270 1.399 . S
C271 C272 1.385 . S
C272 H258 0.931 . S
C272 C271 1.385 . S
C272 C273 1.389 . S
C273 C272 1.389 . S
C273 C274 1.387 1_545 S
C274 H259 0.930 . S
C274 C269 1.390 . S
C274 C273 1.387 1_565 S
H275 C287 0.930 . S
H276 C289 0.930 . S
H277 C290 0.930 . S
H278 C294 0.959 . S
H279 C294 0.959 . S
H280 C294 0.961 . S
H281 C295 0.960 . S
H282 C295 0.961 . S
H283 C295 0.959 . S
H284 C298 0.929 . S
H285 C299 0.931 . S
H286 C301 0.930 . S
C287 H275 0.930 . S
C287 C288 1.399 . S
C287 C292 1.399 . S
C288 C287 1.399 . S
C288 C289 1.376 . S
C289 H276 0.930 . S
C289 C288 1.376 . S
C289 C290 1.388 . S
C290 H277 0.930 . S
C290 C289 1.388 . S
C290 C291 1.390 . S
C291 C290 1.390 . S
C291 C292 1.394 . S
C291 C297 1.465 . S
C292 C287 1.399 . S
C292 C291 1.394 . S
C292 C293 1.516 . S
C293 C292 1.516 . S
C293 C294 1.502 . S
C293 C295 1.561 . S
C293 C296 1.526 . S
C294 H278 0.959 . S
C294 H279 0.959 . S
C294 H280 0.961 . S
C294 C293 1.502 . S
C295 H281 0.960 . S
C295 H282 0.961 . S
C295 H283 0.959 . S
C295 C293 1.561 . S
C296 C293 1.526 . S
C296 C297 1.396 . S
C296 C301 1.390 . S
C297 C291 1.465 . S
C297 C296 1.396 . S
C297 C298 1.399 . S
C298 H284 0.929 . S
C298 C297 1.399 . S
C298 C299 1.385 . S
C299 H285 0.931 . S
C299 C298 1.385 . S
C299 C300 1.389 . S
C300 C299 1.389 . S
C300 C301 1.387 . S
C301 H286 0.930 . S
C301 C296 1.390 . S
C301 C300 1.387 . S
H302 C314 0.930 . S
H303 C316 0.930 . S
H304 C317 0.930 . S
H305 C321 0.959 . S
H306 C321 0.959 . S
H307 C321 0.961 . S
H308 C322 0.960 . S
H309 C322 0.961 . S
H310 C322 0.959 . S
H311 C325 0.929 . S
H312 C326 0.931 . S
H313 C328 0.930 . S
C314 H302 0.930 . S
C314 C315 1.399 . S
C314 C319 1.399 . S
C315 C314 1.399 . S
C315 C316 1.376 . S
C316 H303 0.930 . S
C316 C315 1.376 . S
C316 C317 1.388 . S
C317 H304 0.930 . S
C317 C316 1.388 . S
C317 C318 1.390 . S
C318 C317 1.390 . S
C318 C319 1.394 . S
C318 C324 1.465 . S
C319 C314 1.399 . S
C319 C318 1.394 . S
C319 C320 1.516 . S
C320 C319 1.516 . S
C320 C321 1.502 . S
C320 C322 1.561 . S
C320 C323 1.526 . S
C321 H305 0.959 . S
C321 H306 0.959 . S
C321 H307 0.961 . S
C321 C320 1.502 . S
C322 H308 0.960 . S
C322 H309 0.961 . S
C322 H310 0.959 . S
C322 C320 1.561 . S
C323 C320 1.526 . S
C323 C324 1.396 . S
C323 C328 1.390 . S
C324 C318 1.465 . S
C324 C323 1.396 . S
C324 C325 1.399 . S
C325 H311 0.929 . S
C325 C324 1.399 . S
C325 C326 1.385 . S
C326 H312 0.931 . S
C326 C325 1.385 . S
C326 C327 1.389 . S
C327 C326 1.389 . S
C327 C328 1.387 . S
C328 H313 0.930 . S
C328 C323 1.390 . S
C328 C327 1.387 . S
H329 C341 0.930 . S
H330 C343 0.930 . S
H331 C344 0.930 . S
H332 C348 0.959 . S
H333 C348 0.959 . S
H334 C348 0.961 . S
H335 C349 0.960 . S
H336 C349 0.961 . S
H337 C349 0.959 1_655 S
H338 C352 0.929 . S
H339 C353 0.931 . S
H340 C355 0.930 . S
C341 H329 0.930 . S
C341 C342 1.399 1_455 S
C341 C346 1.399 . S
C342 C341 1.399 1_655 S
C342 C343 1.376 . S
C343 H330 0.930 . S
C343 C342 1.376 . S
C343 C344 1.388 . S
C344 H331 0.930 . S
C344 C343 1.388 . S
C344 C345 1.390 . S
C345 C344 1.390 . S
C345 C346 1.394 1_655 S
C345 C351 1.465 . S
C346 C341 1.399 . S
C346 C345 1.394 1_455 S
C346 C347 1.516 . S
C347 C346 1.516 . S
C347 C348 1.502 . S
C347 C349 1.561 . S
C347 C350 1.526 . S
C348 H332 0.959 . S
C348 H333 0.959 . S
C348 H334 0.961 . S
C348 C347 1.502 . S
C349 H335 0.960 . S
C349 H336 0.961 . S
C349 H337 0.959 1_455 S
C349 C347 1.561 . S
C350 C347 1.526 . S
C350 C351 1.396 1_455 S
C350 C355 1.390 . S
C351 C345 1.465 . S
C351 C350 1.396 1_655 S
C351 C352 1.399 . S
C352 H338 0.929 . S
C352 C351 1.399 . S
C352 C353 1.385 . S
C353 H339 0.931 . S
C353 C352 1.385 . S
C353 C354 1.411 . S
C354 C353 1.411 . S
C354 C355 1.372 1_655 S
C355 H340 0.930 . S
C355 C350 1.390 . S
C355 C354 1.372 1_455 S
H356 C368 0.930 . S
H357 C370 0.930 . S
H358 C371 0.930 . S
H359 C375 0.959 . S
H360 C375 0.959 . S
H361 C375 0.961 . S
H362 C376 0.960 . S
H363 C376 0.961 1_556 S
H364 C376 0.959 1_556 S
H365 C379 0.929 . S
H366 C380 0.931 . S
H367 C382 0.930 . S
C368 H356 0.930 . S
C368 C369 1.399 1_565 S
C368 C373 1.399 . S
C369 C368 1.399 1_545 S
C369 C370 1.376 . S
C370 H357 0.930 . S
C370 C369 1.376 . S
C370 C371 1.388 . S
C371 H358 0.930 . S
C371 C370 1.388 . S
C371 C372 1.390 . S
C372 C371 1.390 . S
C372 C373 1.394 1_545 S
C372 C378 1.465 . S
C373 C368 1.399 . S
C373 C372 1.394 1_565 S
C373 C374 1.516 . S
C374 C373 1.516 . S
C374 C375 1.502 . S
C374 C376 1.561 . S
C374 C377 1.526 1_554 S
C375 H359 0.959 . S
C375 H360 0.959 . S
C375 H361 0.961 . S
C375 C374 1.502 . S
C376 H362 0.960 . S
C376 H363 0.961 1_554 S
C376 H364 0.959 1_554 S
C376 C374 1.561 . S
C377 C374 1.526 1_556 S
C377 C378 1.396 1_566 S
C377 C382 1.390 . S
C378 C372 1.465 . S
C378 C377 1.396 1_544 S
C378 C379 1.399 1_554 S
C379 H365 0.929 . S
C379 C378 1.399 1_556 S
C379 C380 1.385 . S
C380 H366 0.931 . S
C380 C379 1.385 . S
C380 C381 1.389 . S
C381 C380 1.389 . S
C381 C382 1.387 1_545 S
C382 H367 0.930 . S
C382 C377 1.390 . S
C382 C381 1.387 1_565 S
H383 C395 0.930 . S
H384 C397 0.930 . S
H385 C398 0.930 . S
H386 C402 0.959 . S
H387 C402 0.959 . S
H388 C402 0.961 . S
H389 C403 0.960 . S
H390 C403 0.961 . S
H391 C403 0.959 . S
H392 C406 0.929 . S
H393 C407 0.931 . S
H394 C409 0.930 . S
C395 H383 0.930 . S
C395 C396 1.399 . S
C395 C400 1.399 . S
C396 C395 1.399 . S
C396 C397 1.376 . S
C397 H384 0.930 . S
C397 C396 1.376 . S
C397 C398 1.388 . S
C398 H385 0.930 . S
C398 C397 1.388 . S
C398 C399 1.390 . S
C399 C398 1.390 . S
C399 C400 1.394 . S
C399 C405 1.465 1_554 S
C400 C395 1.399 . S
C400 C399 1.394 . S
C400 C401 1.516 . S
C401 C400 1.516 . S
C401 C402 1.502 . S
C401 C403 1.561 . S
C401 C404 1.526 . S
C402 H386 0.959 . S
C402 H387 0.959 . S
C402 H388 0.961 . S
C402 C401 1.502 . S
C403 H389 0.960 . S
C403 H390 0.961 . S
C403 H391 0.959 . S
C403 C401 1.561 . S
C404 C401 1.526 . S
C404 C405 1.396 1_554 S
C404 C409 1.390 1_554 S
C405 C399 1.465 1_556 S
C405 C404 1.396 1_556 S
C405 C406 1.399 . S
C406 H392 0.929 . S
C406 C405 1.399 . S
C406 C407 1.385 . S
C407 H393 0.931 . S
C407 C406 1.385 . S
C407 C408 1.389 . S
C408 C407 1.389 . S
C408 C409 1.387 . S
C409 H394 0.930 . S
C409 C404 1.390 1_556 S
C409 C408 1.387 . S
H410 C422 0.930 . S
H411 C424 0.930 . S
H412 C425 0.930 . S
H413 C429 0.959 . S
H414 C429 0.959 . S
H415 C429 0.961 1_554 S
H416 C430 0.960 . S
H417 C430 0.961 . S
H418 C430 0.959 . S
H419 C433 0.929 1_554 S
H420 C434 0.931 . S
H421 C436 0.930 . S
C422 H410 0.930 . S
C422 C423 1.399 . S
C422 C427 1.399 . S
C423 C422 1.399 . S
C423 C424 1.376 . S
C424 H411 0.930 . S
C424 C423 1.376 . S
C424 C425 1.388 . S
C425 H412 0.930 . S
C425 C424 1.388 . S
C425 C426 1.390 . S
C426 C425 1.390 . S
C426 C427 1.394 . S
C426 C432 1.465 . S
C427 C422 1.399 . S
C427 C426 1.394 . S
C427 C428 1.516 . S
C428 C427 1.516 . S
C428 C429 1.502 1_554 S
C428 C430 1.561 . S
C428 C431 1.526 1_554 S
C429 H413 0.959 . S
C429 H414 0.959 . S
C429 H415 0.961 1_556 S
C429 C428 1.502 1_556 S
C430 H416 0.960 . S
C430 H417 0.961 . S
C430 H418 0.959 . S
C430 C428 1.561 . S
C431 C428 1.526 1_556 S
C431 C432 1.396 1_556 S
C431 C436 1.390 . S
C432 C426 1.465 . S
C432 C431 1.396 1_554 S
C432 C433 1.399 1_554 S
C433 H419 0.929 1_556 S
C433 C432 1.399 1_556 S
C433 C434 1.385 . S
C434 H420 0.931 . S
C434 C433 1.385 . S
C434 C435 1.389 . S
C435 C434 1.389 . S
C435 C436 1.387 . S
C436 H421 0.930 . S
C436 C431 1.390 . S
C436 C435 1.387 . S
H437 C449 0.930 . S
H438 C451 0.930 . S
H439 C452 0.930 . S
H440 C456 0.959 . S
H441 C456 0.959 . S
H442 C456 0.961 . S
H443 C457 0.960 . S
H444 C457 0.961 . S
H445 C457 0.959 1_655 S
H446 C460 0.929 . S
H447 C461 0.931 . S
H448 C463 0.930 . S
C449 H437 0.930 . S
C449 C450 1.399 1_455 S
C449 C454 1.399 . S
C450 C449 1.399 1_655 S
C450 C451 1.376 . S
C451 H438 0.930 . S
C451 C450 1.376 . S
C451 C452 1.388 . S
C452 H439 0.930 . S
C452 C451 1.388 . S
C452 C453 1.390 . S
C453 C452 1.390 . S
C453 C454 1.394 1_655 S
C453 C459 1.465 1_554 S
C454 C449 1.399 . S
C454 C453 1.394 1_455 S
C454 C455 1.516 . S
C455 C454 1.516 . S
C455 C456 1.502 . S
C455 C457 1.561 . S
C455 C458 1.526 . S
C456 H440 0.959 . S
C456 H441 0.959 . S
C456 H442 0.961 . S
C456 C455 1.502 . S
C457 H443 0.960 . S
C457 H444 0.961 . S
C457 H445 0.959 1_455 S
C457 C455 1.561 . S
C458 C455 1.526 . S
C458 C459 1.396 1_454 S
C458 C463 1.390 1_554 S
C459 C453 1.465 1_556 S
C459 C458 1.396 1_656 S
C459 C460 1.399 . S
C460 H446 0.929 . S
C460 C459 1.399 . S
C460 C461 1.385 . S
C461 H447 0.931 . S
C461 C460 1.385 . S
C461 C462 1.389 . S
C462 C461 1.389 . S
C462 C463 1.387 1_655 S
C463 H448 0.930 . S
C463 C458 1.390 1_556 S
C463 C462 1.387 1_455 S
H464 C476 0.930 . S
H465 C478 0.930 . S
H466 C479 0.930 . S
H467 C483 0.959 . S
H468 C483 0.959 . S
H469 C483 0.961 . S
H470 C484 0.960 . S
H471 C484 0.961 . S
H472 C484 0.959 1_655 S
H473 C487 0.929 . S
H474 C488 0.931 . S
H475 C490 0.918 1_455 S
C476 H464 0.930 . S
C476 C477 1.399 1_455 S
C476 C481 1.397 1_455 S
C477 C476 1.399 1_655 S
C477 C478 1.376 . S
C478 H465 0.930 . S
C478 C477 1.376 . S
C478 C479 1.388 . S
C479 H466 0.930 . S
C479 C478 1.388 . S
C479 C480 1.390 . S
C480 C479 1.390 . S
C480 C481 1.397 . S
C480 C486 1.465 . S
C481 C476 1.397 1_655 S
C481 C480 1.397 . S
C481 C482 1.515 1_655 S
C482 C481 1.515 1_455 S
C482 C483 1.502 . S
C482 C484 1.561 . S
C482 C485 1.526 1_455 S
C483 H467 0.959 . S
C483 H468 0.959 . S
C483 H469 0.961 . S
C483 C482 1.502 . S
C484 H470 0.960 . S
C484 H471 0.961 . S
C484 H472 0.959 1_455 S
C484 C482 1.561 . S
C485 C482 1.526 1_655 S
C485 C486 1.396 . S
C485 C490 1.390 . S
C486 C480 1.465 . S
C486 C485 1.396 . S
C486 C487 1.399 . S
C487 H473 0.929 . S
C487 C486 1.399 . S
C487 C488 1.385 . S
C488 H474 0.931 . S
C488 C487 1.385 . S
C488 C489 1.389 . S
C489 C488 1.389 . S
C489 C490 1.387 . S
C490 H475 0.918 1_655 S
C490 C485 1.390 . S
C490 C489 1.387 . S
H491 C503 0.932 . S
H492 C505 0.934 . S
H493 C506 0.930 . S
H494 C510 0.959 . S
H495 C510 0.959 . S
H496 C510 0.961 . S
H497 C511 0.960 . S
H498 C511 0.961 . S
H499 C511 0.959 . S
H500 C514 0.929 . S
H501 C515 0.931 . S
H502 C517 0.930 . S
C503 H491 0.932 . S
C503 C504 1.399 1_565 S
C503 C508 1.399 . S
C504 C503 1.399 1_545 S
C504 C505 1.378 . S
C505 H492 0.934 . S
C505 C504 1.378 . S
C505 C506 1.384 1_545 S
C506 H493 0.930 . S
C506 C505 1.384 1_565 S
C506 C507 1.390 . S
C507 C506 1.390 . S
C507 C508 1.394 . S
C507 C513 1.465 . S
C508 C503 1.399 . S
C508 C507 1.394 . S
C508 C509 1.516 . S
C509 C508 1.516 . S
C509 C510 1.502 . S
C509 C511 1.561 1_565 S
C509 C512 1.526 . S
C510 H494 0.959 . S
C510 H495 0.959 . S
C510 H496 0.961 . S
C510 C509 1.502 . S
C511 H497 0.960 . S
C511 H498 0.961 . S
C511 H499 0.959 . S
C511 C509 1.561 1_545 S
C512 C509 1.526 . S
C512 C513 1.396 . S
C512 C517 1.390 . S
C513 C507 1.465 . S
C513 C512 1.396 . S
C513 C514 1.399 . S
C514 H500 0.929 . S
C514 C513 1.399 . S
C514 C515 1.385 . S
C515 H501 0.931 . S
C515 C514 1.385 . S
C515 C516 1.389 . S
C516 C515 1.389 . S
C516 C517 1.387 . S
C517 H502 0.930 . S
C517 C512 1.390 . S
C517 C516 1.387 . S
H518 C530 0.930 . S
H519 C532 0.930 . S
H520 C533 0.930 . S
H521 C537 0.959 . S
H522 C537 0.959 . S
H523 C537 0.961 . S
H524 C538 0.960 . S
H525 C538 0.961 . S
H526 C538 0.959 . S
H527 C541 0.929 . S
H528 C542 0.931 . S
H529 C544 0.930 . S
C530 H518 0.930 . S
C530 C531 1.399 . S
C530 C535 1.399 . S
C531 C530 1.399 . S
C531 C532 1.376 . S
C532 H519 0.930 . S
C532 C531 1.376 . S
C532 C533 1.388 . S
C533 H520 0.930 . S
C533 C532 1.388 . S
C533 C534 1.390 . S
C534 C533 1.390 . S
C534 C535 1.394 . S
C534 C540 1.465 . S
C535 C530 1.399 . S
C535 C534 1.394 . S
C535 C536 1.516 . S
C536 C535 1.516 . S
C536 C537 1.502 . S
C536 C538 1.561 . S
C536 C539 1.526 . S
C537 H521 0.959 . S
C537 H522 0.959 . S
C537 H523 0.961 . S
C537 C536 1.502 . S
C538 H524 0.960 . S
C538 H525 0.961 . S
C538 H526 0.959 . S
C538 C536 1.561 . S
C539 C536 1.526 . S
C539 C540 1.396 . S
C539 C544 1.390 . S
C540 C534 1.465 . S
C540 C539 1.396 . S
C540 C541 1.399 . S
C541 H527 0.929 . S
C541 C540 1.399 . S
C541 C542 1.385 . S
C542 H528 0.931 . S
C542 C541 1.385 . S
C542 C543 1.389 . S
C543 C542 1.389 . S
C543 C544 1.387 . S
C544 H529 0.930 . S
C544 C539 1.390 . S
C544 C543 1.387 . S
H545 C557 0.930 . S
H546 C559 0.930 . S
H547 C560 0.930 . S
H548 C564 0.959 . S
H549 C564 0.959 . S
H550 C564 0.961 . S
H551 C565 0.960 . S
H552 C565 0.961 . S
H553 C565 0.959 . S
H554 C568 0.929 . S
H555 C569 0.931 . S
H556 C571 0.930 . S
C557 H545 0.930 . S
C557 C558 1.399 . S
C557 C562 1.399 . S
C558 C557 1.399 . S
C558 C559 1.376 . S
C559 H546 0.930 . S
C559 C558 1.376 . S
C559 C560 1.388 . S
C560 H547 0.930 . S
C560 C559 1.388 . S
C560 C561 1.390 . S
C561 C560 1.390 . S
C561 C562 1.394 . S
C561 C567 1.465 . S
C562 C557 1.399 . S
C562 C561 1.394 . S
C562 C563 1.516 . S
C563 C562 1.516 . S
C563 C564 1.502 . S
C563 C565 1.561 . S
C563 C566 1.526 . S
C564 H548 0.959 . S
C564 H549 0.959 . S
C564 H550 0.961 . S
C564 C563 1.502 . S
C565 H551 0.960 . S
C565 H552 0.961 . S
C565 H553 0.959 . S
C565 C563 1.561 . S
C566 C563 1.526 . S
C566 C567 1.396 . S
C566 C571 1.390 . S
C567 C561 1.465 . S
C567 C566 1.396 . S
C567 C568 1.399 . S
C568 H554 0.929 . S
C568 C567 1.399 . S
C568 C569 1.385 . S
C569 H555 0.931 . S
C569 C568 1.385 . S
C569 C570 1.389 . S
C570 C569 1.389 . S
C570 C571 1.387 . S
C571 H556 0.930 . S
C571 C566 1.390 . S
C571 C570 1.387 . S
H572 C584 0.930 . S
H573 C586 0.930 . S
H574 C587 0.930 . S
H575 C591 0.959 . S
H576 C591 0.959 . S
H577 C591 0.961 . S
H578 C592 0.960 1_655 S
H579 C592 0.961 1_655 S
H580 C592 0.959 . S
H581 C595 0.929 . S
H582 C596 0.931 1_556 S
H583 C598 0.930 . S
C584 H572 0.930 . S
C584 C585 1.399 1_655 S
C584 C589 1.399 1_655 S
C585 C584 1.399 1_455 S
C585 C586 1.376 . S
C586 H573 0.930 . S
C586 C585 1.376 . S
C586 C587 1.388 . S
C587 H574 0.930 . S
C587 C586 1.388 . S
C587 C588 1.390 . S
C588 C587 1.390 . S
C588 C589 1.394 . S
C588 C594 1.465 . S
C589 C584 1.399 1_455 S
C589 C588 1.394 . S
C589 C590 1.516 1_455 S
C590 C589 1.516 1_655 S
C590 C591 1.502 . S
C590 C592 1.561 1_655 S
C590 C593 1.526 1_655 S
C591 H575 0.959 . S
C591 H576 0.959 . S
C591 H577 0.961 . S
C591 C590 1.502 . S
C592 H578 0.960 1_455 S
C592 H579 0.961 1_455 S
C592 H580 0.959 . S
C592 C590 1.561 1_455 S
C593 C590 1.526 1_455 S
C593 C594 1.396 . S
C593 C598 1.390 . S
C594 C588 1.465 . S
C594 C593 1.396 . S
C594 C595 1.399 . S
C595 H581 0.929 . S
C595 C594 1.399 . S
C595 C596 1.385 . S
C596 H582 0.931 1_554 S
C596 C595 1.385 . S
C596 C597 1.389 . S
C597 C596 1.389 . S
C597 C598 1.387 . S
C598 H583 0.930 . S
C598 C593 1.390 . S
C598 C597 1.387 . S
H599 C611 0.930 . S
H600 C613 0.930 . S
H601 C614 0.930 . S
H602 C618 0.960 1_546 S
H603 C618 0.959 1_556 S
H604 C618 0.961 . S
H605 C619 0.960 . S
H606 C619 0.961 . S
H607 C619 0.959 . S
H608 C622 0.929 . S
H609 C623 0.931 . S
H610 C625 0.930 1_556 S
C611 H599 0.930 . S
C611 C612 1.400 1_565 S
C611 C616 1.400 . S
C612 C611 1.400 1_545 S
C612 C613 1.375 . S
C613 H600 0.930 . S
C613 C612 1.375 . S
C613 C614 1.388 . S
C614 H601 0.930 . S
C614 C613 1.388 . S
C614 C615 1.390 . S
C615 C614 1.390 . S
C615 C616 1.391 1_545 S
C615 C621 1.465 . S
C616 C611 1.400 . S
C616 C615 1.391 1_565 S
C616 C617 1.517 . S
C617 C616 1.517 . S
C617 C618 1.501 . S
C617 C619 1.561 . S
C617 C620 1.526 1_565 S
C618 H602 0.960 1_564 S
C618 H603 0.959 1_554 S
C618 H604 0.961 . S
C618 C617 1.501 . S
C619 H605 0.960 . S
C619 H606 0.961 . S
C619 H607 0.959 . S
C619 C617 1.561 . S
C620 C617 1.526 1_545 S
C620 C621 1.396 . S
C620 C625 1.390 . S
C621 C615 1.465 . S
C621 C620 1.396 . S
C621 C622 1.399 . S
C622 H608 0.929 . S
C622 C621 1.399 . S
C622 C623 1.385 . S
C623 H609 0.931 . S
C623 C622 1.385 . S
C623 C624 1.389 . S
C624 C623 1.389 . S
C624 C625 1.387 . S
C625 H610 0.930 1_554 S
C625 C620 1.390 . S
C625 C624 1.387 . S
H626 C638 0.930 . S
H627 C640 0.930 . S
H628 C641 0.930 . S
H629 C645 0.959 1_554 S
H630 C645 0.959 . S
H631 C645 0.961 . S
H632 C646 0.960 . S
H633 C646 0.961 . S
H634 C646 0.959 . S
H635 C649 0.929 . S
H636 C650 0.931 . S
H637 C652 0.930 1_556 S
C638 H626 0.930 . S
C638 C639 1.399 . S
C638 C643 1.399 . S
C639 C638 1.399 . S
C639 C640 1.376 . S
C640 H627 0.930 . S
C640 C639 1.376 . S
C640 C641 1.388 . S
C641 H628 0.930 . S
C641 C640 1.388 . S
C641 C642 1.390 . S
C642 C641 1.390 . S
C642 C643 1.394 . S
C642 C648 1.465 . S
C643 C638 1.399 . S
C643 C642 1.394 . S
C643 C644 1.516 . S
C644 C643 1.516 . S
C644 C645 1.502 1_554 S
C644 C646 1.561 . S
C644 C647 1.526 . S
C645 H629 0.959 1_556 S
C645 H630 0.959 . S
C645 H631 0.961 . S
C645 C644 1.502 1_556 S
C646 H632 0.960 . S
C646 H633 0.961 . S
C646 H634 0.959 . S
C646 C644 1.561 . S
C647 C644 1.526 . S
C647 C648 1.396 . S
C647 C652 1.390 . S
C648 C642 1.465 . S
C648 C647 1.396 . S
C648 C649 1.399 . S
C649 H635 0.929 . S
C649 C648 1.399 . S
C649 C650 1.385 . S
C650 H636 0.931 . S
C650 C649 1.385 . S
C650 C651 1.389 . S
C651 C650 1.389 . S
C651 C652 1.387 . S
C652 H637 0.930 1_554 S
C652 C647 1.390 . S
C652 C651 1.387 . S
H653 C665 0.930 . S
H654 C667 0.930 . S
H655 C668 0.930 . S
H656 C672 0.959 . S
H657 C672 0.959 . S
H658 C672 0.961 . S
H659 C673 0.960 . S
H660 C673 0.961 . S
H661 C673 0.959 . S
H662 C676 0.929 . S
H663 C677 0.931 1_556 S
H664 C679 0.930 . S
C665 H653 0.930 . S
C665 C666 1.399 . S
C665 C670 1.399 . S
C666 C665 1.399 . S
C666 C667 1.376 . S
C667 H654 0.930 . S
C667 C666 1.376 . S
C667 C668 1.388 . S
C668 H655 0.930 . S
C668 C667 1.388 . S
C668 C669 1.390 . S
C669 C668 1.390 . S
C669 C670 1.394 . S
C669 C675 1.465 . S
C670 C665 1.399 . S
C670 C669 1.394 . S
C670 C671 1.516 . S
C671 C670 1.516 . S
C671 C672 1.502 . S
C671 C673 1.561 . S
C671 C674 1.526 . S
C672 H656 0.959 . S
C672 H657 0.959 . S
C672 H658 0.961 . S
C672 C671 1.502 . S
C673 H659 0.960 . S
C673 H660 0.961 . S
C673 H661 0.959 . S
C673 C671 1.561 . S
C674 C671 1.526 . S
C674 C675 1.396 . S
C674 C679 1.390 . S
C675 C669 1.465 . S
C675 C674 1.396 . S
C675 C676 1.399 . S
C676 H662 0.929 . S
C676 C675 1.399 . S
C676 C677 1.385 . S
C677 H663 0.931 1_554 S
C677 C676 1.385 . S
C677 C678 1.389 . S
C678 C677 1.389 . S
C678 C679 1.387 . S
C679 H664 0.930 . S
C679 C674 1.390 . S
C679 C678 1.387 . S
H680 C692 0.930 . S
H681 C694 0.930 . S
H682 C695 0.930 . S
H683 C699 0.959 . S
H684 C699 0.959 . S
H685 C699 0.961 1_554 S
H686 C700 0.960 1_554 S
H687 C700 0.961 1_554 S
H688 C700 0.959 . S
H689 C703 0.929 . S
H690 C704 0.931 . S
H691 C706 0.930 . S
C692 H680 0.930 . S
C692 C693 1.399 1_455 S
C692 C697 1.399 . S
C693 C692 1.399 1_655 S
C693 C694 1.377 . S
C694 H681 0.930 . S
C694 C693 1.377 . S
C694 C695 1.388 . S
C695 H682 0.930 . S
C695 C694 1.388 . S
C695 C696 1.390 . S
C696 C695 1.390 . S
C696 C697 1.394 1_655 S
C696 C702 1.465 1_655 S
C697 C692 1.399 . S
C697 C696 1.394 1_455 S
C697 C698 1.516 . S
C698 C697 1.516 . S
C698 C699 1.502 . S
C698 C700 1.561 1_455 S
C698 C701 1.526 . S
C699 H683 0.959 . S
C699 H684 0.959 . S
C699 H685 0.961 1_556 S
C699 C698 1.502 . S
C700 H686 0.960 1_556 S
C700 H687 0.961 1_556 S
C700 H688 0.959 . S
C700 C698 1.561 1_655 S
C701 C698 1.526 . S
C701 C702 1.396 . S
C701 C706 1.390 . S
C702 C696 1.465 1_455 S
C702 C701 1.396 . S
C702 C703 1.399 1_455 S
C703 H689 0.929 . S
C703 C702 1.399 1_655 S
C703 C704 1.385 . S
C704 H690 0.931 . S
C704 C703 1.385 . S
C704 C705 1.389 1_655 S
C705 C704 1.389 1_455 S
C705 C706 1.387 . S
C706 H691 0.930 . S
C706 C701 1.390 . S
C706 C705 1.387 . S
H707 C719 0.930 . S
H708 C721 0.930 . S
H709 C722 0.930 . S
H710 C726 0.959 . S
H711 C726 0.959 . S
H712 C726 0.961 . S
H713 C727 0.960 . S
H714 C727 0.961 . S
H715 C727 0.959 . S
H716 C730 0.929 . S
H717 C731 0.931 . S
H718 C733 0.930 . S
C719 H707 0.930 . S
C719 C720 1.399 1_565 S
C719 C724 1.399 . S
C720 C719 1.399 1_545 S
C720 C721 1.376 . S
C721 H708 0.930 . S
C721 C720 1.376 . S
C721 C722 1.388 . S
C722 H709 0.930 . S
C722 C721 1.388 . S
C722 C723 1.390 . S
C723 C722 1.390 . S
C723 C724 1.394 1_545 S
C723 C729 1.465 . S
C724 C719 1.399 . S
C724 C723 1.394 1_565 S
C724 C725 1.516 . S
C725 C724 1.516 . S
C725 C726 1.502 . S
C725 C727 1.561 . S
C725 C728 1.526 . S
C726 H710 0.959 . S
C726 H711 0.959 . S
C726 H712 0.961 . S
C726 C725 1.502 . S
C727 H713 0.960 . S
C727 H714 0.961 . S
C727 H715 0.959 . S
C727 C725 1.561 . S
C728 C725 1.526 . S
C728 C729 1.396 1_565 S
C728 C733 1.390 . S
C729 C723 1.465 . S
C729 C728 1.396 1_545 S
C729 C730 1.399 . S
C730 H716 0.929 . S
C730 C729 1.399 . S
C730 C731 1.385 . S
C731 H717 0.931 . S
C731 C730 1.385 . S
C731 C732 1.389 . S
C732 C731 1.389 . S
C732 C733 1.387 1_545 S
C733 H718 0.930 . S
C733 C728 1.390 . S
C733 C732 1.387 1_565 S
H734 C746 0.930 . S
H735 C748 0.930 . S
H736 C749 0.930 . S
H737 C753 0.959 . S
H738 C753 0.959 . S
H739 C753 0.961 . S
H740 C754 0.960 . S
H741 C754 0.961 . S
H742 C754 0.959 . S
H743 C757 0.929 . S
H744 C758 0.931 . S
H745 C760 0.930 . S
C746 H734 0.930 . S
C746 C747 1.399 . S
C746 C751 1.399 . S
C747 C746 1.399 . S
C747 C748 1.376 . S
C748 H735 0.930 . S
C748 C747 1.376 . S
C748 C749 1.388 . S
C749 H736 0.930 . S
C749 C748 1.388 . S
C749 C750 1.390 . S
C750 C749 1.390 . S
C750 C751 1.394 . S
C750 C756 1.465 . S
C751 C746 1.399 . S
C751 C750 1.394 . S
C751 C752 1.516 . S
C752 C751 1.516 . S
C752 C753 1.502 . S
C752 C754 1.561 . S
C752 C755 1.526 . S
C753 H737 0.959 . S
C753 H738 0.959 . S
C753 H739 0.961 . S
C753 C752 1.502 . S
C754 H740 0.960 . S
C754 H741 0.961 . S
C754 H742 0.959 . S
C754 C752 1.561 . S
C755 C752 1.526 . S
C755 C756 1.396 . S
C755 C760 1.390 . S
C756 C750 1.465 . S
C756 C755 1.396 . S
C756 C757 1.399 . S
C757 H743 0.929 . S
C757 C756 1.399 . S
C757 C758 1.385 . S
C758 H744 0.931 . S
C758 C757 1.385 . S
C758 C759 1.389 . S
C759 C758 1.389 . S
C759 C760 1.387 . S
C760 H745 0.930 . S
C760 C755 1.390 . S
C760 C759 1.387 . S
H761 C773 0.930 . S
H762 C775 0.930 . S
H763 C776 0.930 . S
H764 C780 0.959 . S
H765 C780 0.959 . S
H766 C780 0.961 . S
H767 C781 0.960 . S
H768 C781 0.961 . S
H769 C781 0.959 . S
H770 C784 0.929 . S
H771 C785 0.931 . S
H772 C787 0.930 . S
C773 H761 0.930 . S
C773 C774 1.399 . S
C773 C778 1.399 . S
C774 C773 1.399 . S
C774 C775 1.376 . S
C775 H762 0.930 . S
C775 C774 1.376 . S
C775 C776 1.388 . S
C776 H763 0.930 . S
C776 C775 1.388 . S
C776 C777 1.390 . S
C777 C776 1.390 . S
C777 C778 1.394 . S
C777 C783 1.465 . S
C778 C773 1.399 . S
C778 C777 1.394 . S
C778 C779 1.516 . S
C779 C778 1.516 . S
C779 C780 1.502 . S
C779 C781 1.561 . S
C779 C782 1.526 . S
C780 H764 0.959 . S
C780 H765 0.959 . S
C780 H766 0.961 . S
C780 C779 1.502 . S
C781 H767 0.960 . S
C781 H768 0.961 . S
C781 H769 0.959 . S
C781 C779 1.561 . S
C782 C779 1.526 . S
C782 C783 1.396 . S
C782 C787 1.390 . S
C783 C777 1.465 . S
C783 C782 1.396 . S
C783 C784 1.399 . S
C784 H770 0.929 . S
C784 C783 1.399 . S
C784 C785 1.385 . S
C785 H771 0.931 . S
C785 C784 1.385 . S
C785 C786 1.389 . S
C786 C785 1.389 . S
C786 C787 1.387 . S
C787 H772 0.930 . S
C787 C782 1.390 . S
C787 C786 1.387 . S
H788 C800 0.930 . S
H789 C802 0.930 . S
H790 C803 0.930 . S
H791 C807 0.959 . S
H792 C807 0.959 . S
H793 C807 0.961 . S
H794 C808 0.960 . S
H795 C808 0.961 . S
H796 C808 0.959 . S
H797 C811 0.929 . S
H798 C812 0.931 . S
H799 C814 0.930 . S
C800 H788 0.930 . S
C800 C801 1.396 1_655 S
C800 C805 1.399 . S
C801 C800 1.396 1_455 S
C801 C802 1.380 . S
C802 H789 0.930 . S
C802 C801 1.380 . S
C802 C803 1.388 . S
C803 H790 0.930 . S
C803 C802 1.388 . S
C803 C804 1.390 . S
C804 C803 1.390 . S
C804 C805 1.394 1_455 S
C804 C810 1.468 . S
C805 C800 1.399 . S
C805 C804 1.394 1_655 S
C805 C806 1.516 . S
C806 C805 1.516 . S
C806 C807 1.502 . S
C806 C808 1.561 1_655 S
C806 C809 1.526 . S
C807 H791 0.959 . S
C807 H792 0.959 . S
C807 H793 0.961 . S
C807 C806 1.502 . S
C808 H794 0.960 . S
C808 H795 0.961 . S
C808 H796 0.959 . S
C808 C806 1.561 1_455 S
C809 C806 1.526 . S
C809 C810 1.383 1_655 S
C809 C814 1.390 . S
C810 C804 1.468 . S
C810 C809 1.383 1_455 S
C810 C811 1.408 . S
C811 H797 0.929 . S
C811 C810 1.408 . S
C811 C812 1.385 . S
C812 H798 0.931 . S
C812 C811 1.385 . S
C812 C813 1.389 1_455 S
C813 C812 1.389 1_655 S
C813 C814 1.387 . S
C814 H799 0.930 . S
C814 C809 1.390 . S
C814 C813 1.387 . S
H815 C827 0.930 . S
H816 C829 0.930 . S
H817 C830 0.930 . S
H818 C834 0.959 . S
H819 C834 0.959 . S
H820 C834 0.961 . S
H821 C835 0.960 . S
H822 C835 0.961 . S
H823 C835 0.959 . S
H824 C838 0.929 . S
H825 C839 0.931 . S
H826 C841 0.930 . S
C827 H815 0.930 . S
C827 C828 1.414 . S
C827 C832 1.399 . S
C828 C827 1.414 . S
C828 C829 1.361 1_565 S
C829 H816 0.930 . S
C829 C828 1.361 1_545 S
C829 C830 1.388 . S
C830 H817 0.930 . S
C830 C829 1.388 . S
C830 C831 1.390 . S
C831 C830 1.390 . S
C831 C832 1.394 1_545 S
C831 C837 1.465 . S
C832 C827 1.399 . S
C832 C831 1.394 1_565 S
C832 C833 1.516 . S
C833 C832 1.516 . S
C833 C834 1.502 . S
C833 C835 1.561 . S
C833 C836 1.526 . S
C834 H818 0.959 . S
C834 H819 0.959 . S
C834 H820 0.961 . S
C834 C833 1.502 . S
C835 H821 0.960 . S
C835 H822 0.961 . S
C835 H823 0.959 . S
C835 C833 1.561 . S
C836 C833 1.526 . S
C836 C837 1.396 1_565 S
C836 C841 1.390 . S
C837 C831 1.465 . S
C837 C836 1.396 1_545 S
C837 C838 1.399 . S
C838 H824 0.929 . S
C838 C837 1.399 . S
C838 C839 1.385 . S
C839 H825 0.931 . S
C839 C838 1.385 . S
C839 C840 1.389 1_545 S
C840 C839 1.389 1_565 S
C840 C841 1.387 . S
C841 H826 0.930 . S
C841 C836 1.390 . S
C841 C840 1.387 . S
H842 C854 0.930 . S
H843 C856 0.930 . S
H844 C857 0.930 . S
H845 C861 0.959 . S
H846 C861 0.959 . S
H847 C861 0.961 . S
H848 C862 0.960 . S
H849 C862 0.961 . S
H850 C862 0.959 . S
H851 C865 0.929 . S
H852 C866 0.931 . S
H853 C868 0.930 . S
C854 H842 0.930 . S
C854 C855 1.399 . S
C854 C859 1.399 . S
C855 C854 1.399 . S
C855 C856 1.376 . S
C856 H843 0.930 . S
C856 C855 1.376 . S
C856 C857 1.388 . S
C857 H844 0.930 . S
C857 C856 1.388 . S
C857 C858 1.390 . S
C858 C857 1.390 . S
C858 C859 1.394 . S
C858 C864 1.465 . S
C859 C854 1.399 . S
C859 C858 1.394 . S
C859 C860 1.516 . S
C860 C859 1.516 . S
C860 C861 1.502 . S
C860 C862 1.561 . S
C860 C863 1.526 . S
C861 H845 0.959 . S
C861 H846 0.959 . S
C861 H847 0.961 . S
C861 C860 1.502 . S
C862 H848 0.960 . S
C862 H849 0.961 . S
C862 H850 0.959 . S
C862 C860 1.561 . S
C863 C860 1.526 . S
C863 C864 1.396 . S
C863 C868 1.390 . S
C864 C858 1.465 . S
C864 C863 1.396 . S
C864 C865 1.399 . S
C865 H851 0.929 . S
C865 C864 1.399 . S
C865 C866 1.385 . S
C866 H852 0.931 . S
C866 C865 1.385 . S
C866 C867 1.389 . S
C867 C866 1.389 . S
C867 C868 1.387 . S
C868 H853 0.930 . S
C868 C863 1.390 . S
C868 C867 1.387 . S
H869 C881 0.930 . S
H870 C883 0.930 . S
H871 C884 0.930 . S
H872 C888 0.959 . S
H873 C888 0.959 . S
H874 C888 0.961 . S
H875 C889 0.960 . S
H876 C889 0.961 . S
H877 C889 0.959 . S
H878 C892 0.929 . S
H879 C893 0.931 . S
H880 C895 0.930 . S
C881 H869 0.930 . S
C881 C882 1.399 . S
C881 C886 1.399 . S
C882 C881 1.399 . S
C882 C883 1.376 . S
C883 H870 0.930 . S
C883 C882 1.376 . S
C883 C884 1.388 . S
C884 H871 0.930 . S
C884 C883 1.388 . S
C884 C885 1.390 . S
C885 C884 1.390 . S
C885 C886 1.394 . S
C885 C891 1.465 . S
C886 C881 1.399 . S
C886 C885 1.394 . S
C886 C887 1.516 . S
C887 C886 1.516 . S
C887 C888 1.502 . S
C887 C889 1.561 . S
C887 C890 1.526 . S
C888 H872 0.959 . S
C888 H873 0.959 . S
C888 H874 0.961 . S
C888 C887 1.502 . S
C889 H875 0.960 . S
C889 H876 0.961 . S
C889 H877 0.959 . S
C889 C887 1.561 . S
C890 C887 1.526 . S
C890 C891 1.396 . S
C890 C895 1.390 . S
C891 C885 1.465 . S
C891 C890 1.396 . S
C891 C892 1.399 . S
C892 H878 0.929 . S
C892 C891 1.399 . S
C892 C893 1.385 . S
C893 H879 0.931 . S
C893 C892 1.385 . S
C893 C894 1.389 . S
C894 C893 1.389 . S
C894 C895 1.387 . S
C895 H880 0.930 . S
C895 C890 1.390 . S
C895 C894 1.387 . S
C261 C74 1.748 . S
C273 C90 1.896 1_545 S
C300 C130 1.895 . S
C288 C85 1.760 . S
C327 C170 1.892 . S
C315 C52 1.788 . S
C354 C210 1.888 . S
C342 C63 1.783 1_655 S
C381 C103 1.881 . S
C369 C30 1.755 . S
C396 C41 1.773 . S
C408 C143 1.904 . S
C423 C8 1.832 . S
C435 C183 1.910 . S
C450 C19 1.785 1_655 S
C462 C223 1.903 1_655 S
C489 C114 0.621 . S
C477 C62 0.595 1_655 S
C516 C154 0.608 . S
C504 C73 0.546 . S
C543 C194 0.601 . S
C531 C84 0.550 . S
C558 C51 0.582 . S
C570 C234 0.634 . S
C585 C18 0.505 . S
C597 C97 0.638 . S
C624 C137 0.602 . S
C612 C29 0.620 . S
C651 C177 0.594 . S
C639 C40 0.650 . S
C666 C7 0.673 . S
C678 C217 0.551 . S
C693 C60 1.783 1_655 S
C705 C91 2.240 . S
C720 C71 1.663 . S
C732 C131 2.252 . S
C759 C171 2.246 . S
C747 C82 1.627 . S
C786 C211 2.261 . S
C774 C49 1.647 . S
C801 C16 1.723 . S
C813 C110 2.266 . S
C840 C150 2.229 . S
C828 C27 1.771 1_565 S
C867 C190 2.230 . S
C855 C38 1.828 . S
C882 C5 1.723 . S
C894 C230 2.259 . S
