# Generated by pormake.
# Topology myd, (4,6)-cn, num edge types: 1
# Building blocks:
#     Node 0, Type 0, BuildingBlock: KOZSID_clean_sbu_0, # of connection points: 4
#     Node 1, Type 0, BuildingBlock: KOZSID_clean_sbu_0, # of connection points: 4
#     Node 2, Type 0, BuildingBlock: KOZSID_clean_sbu_0, # of connection points: 4
#     Node 3, Type 0, BuildingBlock: KOZSID_clean_sbu_0, # of connection points: 4
#     Node 4, Type 0, BuildingBlock: KOZSID_clean_sbu_0, # of connection points: 4
#     Node 5, Type 0, BuildingBlock: KOZSID_clean_sbu_0, # of connection points: 4
#     Node 6, Type 0, BuildingBlock: KOZSID_clean_sbu_0, # of connection points: 4
#     Node 7, Type 0, BuildingBlock: KOZSID_clean_sbu_0, # of connection points: 4
#     Node 8, Type 0, BuildingBlock: KOZSID_clean_sbu_0, # of connection points: 4
#     Node 9, Type 0, BuildingBlock: KOZSID_clean_sbu_0, # of connection points: 4
#     Node 10, Type 0, BuildingBlock: KOZSID_clean_sbu_0, # of connection points: 4
#     Node 11, Type 0, BuildingBlock: KOZSID_clean_sbu_0, # of connection points: 4
#     Node 12, Type 1, BuildingBlock: JUFBIX_clean_sbu_0, # of connection points: 6
#     Node 13, Type 1, BuildingBlock: JUFBIX_clean_sbu_0, # of connection points: 6
#     Node 14, Type 1, BuildingBlock: JUFBIX_clean_sbu_0, # of connection points: 6
#     Node 15, Type 1, BuildingBlock: JUFBIX_clean_sbu_0, # of connection points: 6
#     Node 16, Type 1, BuildingBlock: JUFBIX_clean_sbu_0, # of connection points: 6
#     Node 17, Type 1, BuildingBlock: JUFBIX_clean_sbu_0, # of connection points: 6
#     Node 18, Type 1, BuildingBlock: JUFBIX_clean_sbu_0, # of connection points: 6
#     Node 19, Type 1, BuildingBlock: JUFBIX_clean_sbu_0, # of connection points: 6
#     Edge 20, Type (0, 1), BuildingBlock: OJICUG_clean_linker_0, # of connection points: 2
#     Edge 21, Type (0, 1), BuildingBlock: OJICUG_clean_linker_0, # of connection points: 2
#     Edge 22, Type (0, 1), BuildingBlock: OJICUG_clean_linker_0, # of connection points: 2
#     Edge 23, Type (0, 1), BuildingBlock: OJICUG_clean_linker_0, # of connection points: 2
#     Edge 24, Type (0, 1), BuildingBlock: OJICUG_clean_linker_0, # of connection points: 2
#     Edge 25, Type (0, 1), BuildingBlock: OJICUG_clean_linker_0, # of connection points: 2
#     Edge 26, Type (0, 1), BuildingBlock: OJICUG_clean_linker_0, # of connection points: 2
#     Edge 27, Type (0, 1), BuildingBlock: OJICUG_clean_linker_0, # of connection points: 2
#     Edge 28, Type (0, 1), BuildingBlock: OJICUG_clean_linker_0, # of connection points: 2
#     Edge 29, Type (0, 1), BuildingBlock: OJICUG_clean_linker_0, # of connection points: 2
#     Edge 30, Type (0, 1), BuildingBlock: OJICUG_clean_linker_0, # of connection points: 2
#     Edge 31, Type (0, 1), BuildingBlock: OJICUG_clean_linker_0, # of connection points: 2
#     Edge 32, Type (0, 1), BuildingBlock: OJICUG_clean_linker_0, # of connection points: 2
#     Edge 33, Type (0, 1), BuildingBlock: OJICUG_clean_linker_0, # of connection points: 2
#     Edge 34, Type (0, 1), BuildingBlock: OJICUG_clean_linker_0, # of connection points: 2
#     Edge 35, Type (0, 1), BuildingBlock: OJICUG_clean_linker_0, # of connection points: 2
#     Edge 36, Type (0, 1), BuildingBlock: OJICUG_clean_linker_0, # of connection points: 2
#     Edge 37, Type (0, 1), BuildingBlock: OJICUG_clean_linker_0, # of connection points: 2
#     Edge 38, Type (0, 1), BuildingBlock: OJICUG_clean_linker_0, # of connection points: 2
#     Edge 39, Type (0, 1), BuildingBlock: OJICUG_clean_linker_0, # of connection points: 2
#     Edge 40, Type (0, 1), BuildingBlock: OJICUG_clean_linker_0, # of connection points: 2
#     Edge 41, Type (0, 1), BuildingBlock: OJICUG_clean_linker_0, # of connection points: 2
#     Edge 42, Type (0, 1), BuildingBlock: OJICUG_clean_linker_0, # of connection points: 2
#     Edge 43, Type (0, 1), BuildingBlock: OJICUG_clean_linker_0, # of connection points: 2
#     Edge 44, Type (0, 1), BuildingBlock: OJICUG_clean_linker_0, # of connection points: 2
#     Edge 45, Type (0, 1), BuildingBlock: OJICUG_clean_linker_0, # of connection points: 2
#     Edge 46, Type (0, 1), BuildingBlock: OJICUG_clean_linker_0, # of connection points: 2
#     Edge 47, Type (0, 1), BuildingBlock: OJICUG_clean_linker_0, # of connection points: 2
#     Edge 48, Type (0, 1), BuildingBlock: OJICUG_clean_linker_0, # of connection points: 2
#     Edge 49, Type (0, 1), BuildingBlock: OJICUG_clean_linker_0, # of connection points: 2
#     Edge 50, Type (0, 1), BuildingBlock: OJICUG_clean_linker_0, # of connection points: 2
#     Edge 51, Type (0, 1), BuildingBlock: OJICUG_clean_linker_0, # of connection points: 2
#     Edge 52, Type (0, 1), BuildingBlock: OJICUG_clean_linker_0, # of connection points: 2
#     Edge 53, Type (0, 1), BuildingBlock: OJICUG_clean_linker_0, # of connection points: 2
#     Edge 54, Type (0, 1), BuildingBlock: OJICUG_clean_linker_0, # of connection points: 2
#     Edge 55, Type (0, 1), BuildingBlock: OJICUG_clean_linker_0, # of connection points: 2
#     Edge 56, Type (0, 1), BuildingBlock: OJICUG_clean_linker_0, # of connection points: 2
#     Edge 57, Type (0, 1), BuildingBlock: OJICUG_clean_linker_0, # of connection points: 2
#     Edge 58, Type (0, 1), BuildingBlock: OJICUG_clean_linker_0, # of connection points: 2
#     Edge 59, Type (0, 1), BuildingBlock: OJICUG_clean_linker_0, # of connection points: 2
#     Edge 60, Type (0, 1), BuildingBlock: OJICUG_clean_linker_0, # of connection points: 2
#     Edge 61, Type (0, 1), BuildingBlock: OJICUG_clean_linker_0, # of connection points: 2
#     Edge 62, Type (0, 1), BuildingBlock: OJICUG_clean_linker_0, # of connection points: 2
#     Edge 63, Type (0, 1), BuildingBlock: OJICUG_clean_linker_0, # of connection points: 2
#     Edge 64, Type (0, 1), BuildingBlock: OJICUG_clean_linker_0, # of connection points: 2
#     Edge 65, Type (0, 1), BuildingBlock: OJICUG_clean_linker_0, # of connection points: 2
#     Edge 66, Type (0, 1), BuildingBlock: OJICUG_clean_linker_0, # of connection points: 2
#     Edge 67, Type (0, 1), BuildingBlock: OJICUG_clean_linker_0, # of connection points: 2
# Relax obj value: 0.238
# Max RMSD: 0.232
# Mean RMSD: 0.150
data_MOF--net-myd--node1-KOZSID_clean_sbu_0--node2-JUFBIX_clean_sbu_0--edge1-OJICUG_clean_linker_0
_symmetry_space_group_name_H-M    P1
_symmetry_Int_Tables_number       1
_symmetry_cell_setting            triclinic
loop_
_symmetry_equiv_pos_as_xyz
'x, y, z'
_cell_length_a     36.995582
_cell_length_b     40.406142
_cell_length_c     39.607247
_cell_angle_alpha  92.252578
_cell_angle_beta   86.887882
_cell_angle_gamma 93.605838
loop_
_atom_site_label
_atom_site_type_symbol
_atom_site_fract_x
_atom_site_fract_y
_atom_site_fract_z
_atom_type_partial_charge
C0 C 0.99315 0.27304 0.36131 0.0
C1 C 0.9582 0.27939 0.37308 0.0
C2 C 0.9357 0.25423 0.35995 0.0
C3 C 0.95797 0.23398 0.34076 0.0
N4 N 0.99302 0.24479 0.34149 0.0
Co5 Co 0.03388 0.22605 0.31417 0.0
N6 N 1.00121 0.20448 0.28055 0.0
C7 C 0.96512 0.19866 0.2856 0.0
C8 C 0.94945 0.18309 0.25811 0.0
C9 C 0.97753 0.17833 0.23463 0.0
C10 C 1.00902 0.1911 0.24916 0.0
N11 N 0.07527 0.20735 0.28772 0.0
C12 C 0.077 0.19274 0.25629 0.0
C13 C 0.11115 0.18094 0.2489 0.0
C14 C 0.13109 0.1882 0.27675 0.0
C15 C 0.10821 0.2039 0.29967 0.0
N16 N 0.0659 0.24863 0.34739 0.0
C17 C 0.09983 0.24119 0.35314 0.0
C18 C 0.11594 0.2633 0.37593 0.0
C19 C 0.09053 0.28609 0.38461 0.0
C20 C 0.06035 0.27662 0.36653 0.0
N21 N 0.0293 0.1854 0.34035 0.0
C22 C 0.02985 0.12517 0.37386 0.0
C23 C 0.03034 0.15584 0.39218 0.0
C24 C 0.02953 0.1857 0.37493 0.0
C25 C 0.02685 0.12572 0.33888 0.0
C26 C 0.02778 0.15556 0.3228 0.0
N27 N 0.03869 0.26554 0.28754 0.0
C28 C 0.07574 0.30881 0.26043 0.0
C29 C 0.04457 0.32254 0.25029 0.0
C30 C 1.01059 0.30726 0.25867 0.0
C31 C 1.00824 0.27858 0.27699 0.0
C32 C 0.07217 0.28031 0.27942 0.0
H33 H 0.98173 0.26707 0.28278 0.0
H34 H 0.09639 0.27032 0.28771 0.0
H35 H 0.03018 0.20898 0.38934 0.0
H36 H 0.02831 0.15396 0.29575 0.0
C37 C 0.94669 0.21182 0.31461 0.0
C38 C 0.02628 0.2938 0.36868 0.0
C39 C 0.046 0.18619 0.23456 0.0
C40 C 0.11788 0.21927 0.33066 0.0
H41 H 0.94953 0.30041 0.38843 0.0
H42 H 0.90635 0.25268 0.36174 0.0
H43 H 0.92095 0.17649 0.25521 0.0
H44 H 0.97515 0.16605 0.21001 0.0
H45 H 0.12047 0.16766 0.22614 0.0
H46 H 0.15908 0.18305 0.27968 0.0
H47 H 0.14367 0.26421 0.38349 0.0
H48 H 0.09396 0.3075 0.40168 0.0
H49 H 0.03237 0.15695 0.41936 0.0
H50 H 0.02464 0.1031 0.32336 0.0
H51 H 0.1024 0.32026 0.2542 0.0
H52 H 0.98601 0.31728 0.2508 0.0
C53 C 0.99432 0.6783 0.11791 0.0
C54 C 0.95938 0.67046 0.10776 0.0
C55 C 0.93648 0.68569 0.1307 0.0
C56 C 0.95865 0.70186 0.15344 0.0
N57 N 0.9944 0.69839 0.14606 0.0
Co58 Co 0.03628 0.71717 0.17241 0.0
N59 N 1.00258 0.73635 0.20806 0.0
C60 C 0.96589 0.73329 0.20984 0.0
C61 C 0.95045 0.74886 0.23789 0.0
C62 C 0.97897 0.76296 0.25486 0.0
C63 C 1.01022 0.75522 0.23595 0.0
N64 N 0.07826 0.73635 0.19826 0.0
C65 C 0.07847 0.75594 0.22668 0.0
C66 C 0.1135 0.76495 0.23593 0.0
C67 C 0.13633 0.75063 0.21227 0.0
C68 C 0.11399 0.73393 0.19002 0.0
N69 N 0.06979 0.69736 0.13689 0.0
C70 C 0.10644 0.69965 0.13537 0.0
C71 C 0.12176 0.6822 0.10843 0.0
C72 C 0.09314 0.66735 0.09212 0.0
C73 C 0.06207 0.67673 0.11017 0.0
N74 N 0.03697 0.75923 0.14741 0.0
C75 C 0.038 0.82499 0.12479 0.0
C76 C 0.06998 0.80819 0.12512 0.0
C77 C 0.06882 0.77547 0.13621 0.0
C78 C 1.00541 0.80722 0.13344 0.0
C79 C 1.00551 0.77482 0.14444 0.0
N80 N 0.03536 0.67601 0.19887 0.0
C81 C 0.06538 0.64396 0.23841 0.0
C82 C 0.03194 0.63334 0.25382 0.0
C83 C 1.00057 0.64075 0.23825 0.0
C84 C 1.00291 0.66147 0.21071 0.0
C85 C 0.06645 0.66487 0.21073 0.0
H86 H 0.97788 0.66691 0.20078 0.0
H87 H 0.09263 0.67318 0.20046 0.0
H88 H 0.09412 0.76421 0.1366 0.0
H89 H 0.97973 0.76341 0.15155 0.0
C90 C 0.94671 0.71757 0.1837 0.0
C91 C 0.02608 0.66286 0.1028 0.0
C92 C 0.04632 0.76812 0.24434 0.0
C93 C 0.12564 0.71663 0.16068 0.0
H94 H 0.95109 0.65433 0.0868 0.0
H95 H 0.90713 0.68391 0.13159 0.0
H96 H 0.92188 0.7505 0.24472 0.0
H97 H 0.97705 0.77794 0.27808 0.0
H98 H 0.12173 0.78077 0.25718 0.0
H99 H 0.16568 0.75272 0.21103 0.0
H100 H 0.15031 0.67965 0.10211 0.0
H101 H 0.09476 0.65059 0.07016 0.0
H102 H 0.09599 0.82059 0.11824 0.0
H103 H 0.9797 0.81848 0.13243 0.0
H104 H 0.09049 0.63804 0.24897 0.0
H105 H 0.97407 0.63196 0.24842 0.0
C106 C 0.3722 0.96883 0.27438 0.0
C107 C 0.38377 0.93707 0.27642 0.0
C108 C 0.3741 0.92008 0.24716 0.0
C109 C 0.35727 0.94242 0.22893 0.0
N110 N 0.35609 0.97231 0.24485 0.0
Co111 Co 0.33179 0.01093 0.22946 0.0
N112 N 0.3012 0.98278 0.19844 0.0
C113 C 0.30811 0.95166 0.18753 0.0
C114 C 0.28431 0.93872 0.16439 0.0
C115 C 0.26141 0.96339 0.15992 0.0
C116 C 0.2724 0.99021 0.18076 0.0
N117 N 0.3076 0.05005 0.2146 0.0
C118 C 0.27764 0.05187 0.19654 0.0
C119 C 0.27 0.08475 0.19288 0.0
C120 C 0.29698 0.10399 0.20765 0.0
C121 C 0.31927 0.082 0.22001 0.0
N122 N 0.36273 0.03865 0.26044 0.0
C123 C 0.36961 0.07166 0.25948 0.0
C124 C 0.38993 0.0841 0.28565 0.0
C125 C 0.39587 0.05726 0.30436 0.0
C126 C 0.37894 0.0298 0.28839 0.0
N127 N 0.36907 0.0167 0.19166 0.0
C128 C 0.42011 0.02023 0.13562 0.0
C129 C 0.3831 0.02304 0.13169 0.0
C130 C 0.3584 0.02176 0.15974 0.0
C131 C 0.43123 0.0164 0.1686 0.0
C132 C 0.40529 0.01426 0.19616 0.0
N133 N 0.29454 1.00457 0.26672 0.0
C134 C 0.26102 0.0248 0.31676 0.0
C135 C 0.24502 0.99288 0.32277 0.0
C136 C 0.25406 0.96729 0.29935 0.0
C137 C 0.27872 0.97355 0.27193 0.0
C138 C 0.28543 0.03012 0.28865 0.0
H139 H 0.28529 0.95296 0.25512 0.0
H140 H 0.29739 0.05484 0.28501 0.0
H141 H 0.33046 0.0246 0.15518 0.0
H142 H 0.41447 1.01036 0.22104 0.0
C143 C 0.33511 0.93452 0.20178 0.0
C144 C 0.37816 0.99563 0.30003 0.0
C145 C 0.2584 0.02352 0.1792 0.0
C146 C 0.34894 0.09043 0.23979 0.0
H147 H 0.39728 0.92723 0.29706 0.0
H148 H 0.3769 0.894 0.24103 0.0
H149 H 0.28366 0.91427 0.15217 0.0
H150 H 0.24002 0.96214 0.14226 0.0
H151 H 0.24773 0.09401 0.18019 0.0
H152 H 0.29966 0.13081 0.20961 0.0
H153 H 0.3971 0.1099 0.29197 0.0
H154 H 0.41005 0.05823 0.32754 0.0
H155 H 0.37323 0.0268 0.10695 0.0
H156 H 0.45964 0.01446 0.17298 0.0
H157 H 0.2553 0.04556 0.3339 0.0
H158 H 0.24198 0.94236 0.30182 0.0
C159 C 0.67324 0.45664 0.26301 0.0
C160 C 0.66114 0.42466 0.25356 0.0
C161 C 0.67831 0.40391 0.273 0.0
C162 C 0.69991 0.42441 0.29298 0.0
N163 N 0.69677 0.45699 0.28812 0.0
Co164 Co 0.72643 0.49548 0.30795 0.0
N165 N 0.75904 0.46529 0.32904 0.0
C166 C 0.7555 0.43174 0.32877 0.0
C167 C 0.78113 0.41774 0.3464 0.0
C168 C 0.80235 0.44387 0.35862 0.0
C169 C 0.78861 0.4725 0.34748 0.0
N170 N 0.75619 0.5342 0.32722 0.0
C171 C 0.78689 0.53503 0.34457 0.0
C172 C 0.80029 0.56747 0.35099 0.0
C173 C 0.77677 0.58774 0.33816 0.0
C174 C 0.7507 0.56677 0.32421 0.0
N175 N 0.69392 0.52557 0.28673 0.0
C176 C 0.69424 0.559 0.28991 0.0
C177 C 0.66978 0.57257 0.27048 0.0
C178 C 0.6537 0.54626 0.25309 0.0
C179 C 0.66944 0.51821 0.26301 0.0
N180 N 0.69387 0.49512 0.35038 0.0
C181 C 0.64914 0.49563 0.41124 0.0
C182 C 0.65948 0.52484 0.39452 0.0
C183 C 0.68158 0.52405 0.3647 0.0
C184 C 0.66172 0.46606 0.39692 0.0
C185 C 0.68355 0.46633 0.3667 0.0
N186 N 0.75857 0.49577 0.26585 0.0
C187 C 0.79057 0.52531 0.21998 0.0
C188 C 0.80202 0.49569 0.20465 0.0
C189 C 0.79127 0.46612 0.22066 0.0
C190 C 0.77003 0.46674 0.25107 0.0
C191 C 0.76886 0.52479 0.25015 0.0
H192 H 0.76313 0.44341 0.2623 0.0
H193 H 0.76049 0.54813 0.26027 0.0
H194 H 0.68854 0.54738 0.354 0.0
H195 H 0.69173 0.44286 0.35725 0.0
C196 C 0.72777 0.41405 0.3118 0.0
C197 C 0.66433 0.48596 0.24581 0.0
C198 C 0.80421 0.50592 0.35553 0.0
C199 C 0.72153 0.57697 0.30701 0.0
H200 H 0.64309 0.41714 0.23369 0.0
H201 H 0.67715 0.37707 0.27105 0.0
H202 H 0.78392 0.39165 0.3501 0.0
H203 H 0.82519 0.44198 0.37422 0.0
H204 H 0.8247 0.57586 0.3634 0.0
H205 H 0.77878 0.6146 0.33846 0.0
H206 H 0.66598 0.59862 0.26748 0.0
H207 H 0.63434 0.54762 0.23372 0.0
H208 H 0.6512 0.54861 0.40477 0.0
H209 H 0.65444 0.44268 0.40873 0.0
H210 H 0.79802 0.54886 0.20858 0.0
H211 H 0.79996 0.44256 0.21022 0.0
C212 C 0.35536 0.42955 0.99826 0.0
C213 C 0.37069 0.44204 0.96834 0.0
C214 C 0.34706 0.43278 0.94371 0.0
C215 C 0.31877 0.41513 0.95995 0.0
N216 N 0.32237 0.41361 0.99359 0.0
Co217 Co 0.29179 0.38543 0.02582 0.0
N218 N 0.26452 0.36253 0.98867 0.0
C219 C 0.26529 0.37176 0.9562 0.0
C220 C 0.24206 0.35248 0.93672 0.0
C221 C 0.22554 0.3297 0.95812 0.0
C222 C 0.23988 0.33625 0.98952 0.0
N223 N 0.26352 0.35583 0.05844 0.0
C224 C 0.2409 0.32872 0.05268 0.0
C225 C 0.22969 0.31365 0.08279 0.0
C226 C 0.2451 0.33232 0.10828 0.0
C227 C 0.26529 0.35728 0.09247 0.0
N228 N 0.31853 0.40942 0.06303 0.0
C229 C 0.31035 0.4077 0.09655 0.0
C230 C 0.33518 0.42514 0.11595 0.0
C231 C 0.36127 0.43787 0.09349 0.0
C232 C 0.35076 0.42755 0.0615 0.0
N233 N 0.25234 0.41781 0.02999 0.0
C234 C 0.18029 0.43575 0.02336 0.0
C235 C 0.19135 0.42427 0.05381 0.0
C236 C 0.22739 0.41655 0.0569 0.0
C237 C 0.20746 0.44343 0.99844 0.0
C238 C 0.24332 0.43497 1.00263 0.0
N239 N 0.3289 0.35228 0.02066 0.0
C240 C 0.36619 0.31329 0.04469 0.0
C241 C 0.37413 0.29854 1.01263 0.0
C242 C 0.36038 0.31261 0.98463 0.0
C243 C 0.33847 0.33948 0.98914 0.0
C244 C 0.34349 0.33982 0.04815 0.0
H245 H 0.32856 0.34902 0.96682 0.0
H246 H 0.33732 0.34962 0.07324 0.0
H247 H 0.23382 0.40797 0.08081 0.0
H248 H 0.26279 0.44122 0.98269 0.0
C249 C 0.29116 0.39595 0.94411 0.0
C250 C 0.37344 0.43251 0.03048 0.0
C251 C 0.22961 0.31662 0.01926 0.0
C252 C 0.28612 0.38254 0.10872 0.0
H253 H 0.39678 0.45545 0.96461 0.0
H254 H 0.35113 0.4367 0.91686 0.0
H255 H 0.23832 0.35415 0.90994 0.0
H256 H 0.20551 0.31023 0.95136 0.0
H257 H 0.2124 0.2914 0.08639 0.0
H258 H 0.24226 0.32796 0.13511 0.0
H259 H 0.33619 0.4257 0.14324 0.0
H260 H 0.38614 0.45139 0.10017 0.0
H261 H 0.17194 0.42021 0.07495 0.0
H262 H 0.20085 0.4542 0.97511 0.0
H263 H 0.37703 0.30427 0.0672 0.0
H264 H 0.36534 0.30239 0.95926 0.0
C265 C 0.22903 0.64794 0.47296 0.0
C266 C 0.22776 0.63612 0.43966 0.0
C267 C 0.25567 0.6524 0.42195 0.0
C268 C 0.27231 0.67328 0.44527 0.0
N269 N 0.25713 0.67096 0.47698 0.0
Co270 Co 0.27115 0.69886 0.51796 0.0
N271 N 0.30763 0.72699 0.49073 0.0
C272 C 0.31636 0.72316 0.45725 0.0
C273 C 0.34295 0.74563 0.44561 0.0
C274 C 0.35167 0.76511 0.47327 0.0
C275 C 0.32962 0.75348 0.50031 0.0
N276 N 0.28487 0.72654 0.55905 0.0
C277 C 0.30862 0.75337 0.56225 0.0
C278 C 0.30903 0.76553 0.59554 0.0
C279 C 0.28524 0.74544 0.61405 0.0
C280 C 0.27144 0.72239 0.59115 0.0
N281 N 0.23423 0.67087 0.54499 0.0
C282 C 0.22736 0.67282 0.57885 0.0
C283 C 0.19957 0.65134 0.59015 0.0
C284 C 0.18739 0.63509 0.56173 0.0
C285 C 0.20846 0.64778 0.53463 0.0
N286 N 0.31048 0.66808 0.52678 0.0
C287 C 0.37339 0.63415 0.54092 0.0
C288 C 0.34646 0.64078 0.56617 0.0
C289 C 0.31566 0.65755 0.55867 0.0
C290 C 0.36693 0.64321 0.50812 0.0
C291 C 0.33559 0.65944 0.50164 0.0
N292 N 0.23296 0.73022 0.50919 0.0
C293 C 0.18561 0.76648 0.52934 0.0
C294 C 0.18211 0.77818 0.49679 0.0
C295 C 0.20426 0.76462 0.4706 0.0
C296 C 0.22911 0.74105 0.47724 0.0
C297 C 0.21073 0.74265 0.53488 0.0
H298 H 0.24537 0.73221 0.45611 0.0
H299 H 0.21198 0.73473 0.56023 0.0
H300 H 0.29685 0.66233 0.57934 0.0
H301 H 0.33278 0.66522 0.47603 0.0
C302 C 0.29931 0.69798 0.43751 0.0
C303 C 0.20179 0.63808 0.49946 0.0
C304 C 0.33079 0.76842 0.53456 0.0
C305 C 0.24509 0.69722 0.59885 0.0
H306 H 0.20803 0.61838 0.42897 0.0
H307 H 0.26199 0.65041 0.39497 0.0
H308 H 0.35472 0.74754 0.42009 0.0
H309 H 0.37209 0.78549 0.47351 0.0
H310 H 0.32464 0.78687 0.60555 0.0
H311 H 0.27848 0.74761 0.64095 0.0
H312 H 0.18854 0.64874 0.61585 0.0
H313 H 0.1649 0.61666 0.56088 0.0
H314 H 0.34966 0.63413 0.59201 0.0
H315 H 0.38611 0.63786 0.48728 0.0
H316 H 0.16887 0.77551 0.55058 0.0
H317 H 0.20326 0.77276 0.44497 0.0
C318 C 0.82112 0.89791 0.4658 0.0
C319 C 0.83239 0.90654 0.43321 0.0
C320 C 0.80513 0.89537 0.41275 0.0
C321 C 0.77883 0.88056 0.43394 0.0
N322 N 0.78713 0.88272 0.46674 0.0
Co323 Co 0.76053 0.85924 0.505 0.0
N324 N 0.72824 0.83262 0.47418 0.0
C325 C 0.72446 0.83828 0.44121 0.0
C326 C 0.69829 0.81755 0.42686 0.0
C327 C 0.68455 0.79769 0.45231 0.0
C328 C 0.70336 0.80729 0.48082 0.0
N329 N 0.73661 0.8342 0.5436 0.0
C330 C 0.71315 0.80705 0.54367 0.0
C331 C 0.70618 0.79587 0.57633 0.0
C332 C 0.72494 0.81727 0.59746 0.0
C333 C 0.74287 0.83982 0.57669 0.0
N334 N 0.79229 0.88705 0.53578 0.0
C335 C 0.78802 0.88989 0.56979 0.0
C336 C 0.8157 0.90853 0.58431 0.0
C337 C 0.83956 0.91714 0.55813 0.0
C338 C 0.82491 0.90351 0.5288 0.0
N339 N 0.72157 0.89243 0.50944 0.0
C340 C 0.64978 0.91353 0.50682 0.0
C341 C 0.66269 0.90262 0.53676 0.0
C342 C 0.6985 0.8933 0.5378 0.0
C343 C 0.67528 0.91853 0.47978 0.0
C344 C 0.71099 0.90843 0.48185 0.0
N345 N 0.79692 0.82532 0.49982 0.0
C346 C 0.83904 0.79051 0.52361 0.0
C347 C 0.8438 0.77262 0.49268 0.0
C348 C 0.82547 0.78268 0.4652 0.0
C349 C 0.80265 0.809 0.4692 0.0
C350 C 0.8155 0.81646 0.52667 0.0
H351 H 0.78921 0.81547 0.44734 0.0
H352 H 0.81219 0.82893 0.55098 0.0
H353 H 0.70615 0.88549 0.56162 0.0
H354 H 0.72902 0.91272 0.4603 0.0
C355 C 0.74874 0.86049 0.42375 0.0
C356 C 0.84375 0.90396 0.49517 0.0
C357 C 0.69667 0.79167 0.51357 0.0
C358 C 0.76529 0.86687 0.58732 0.0
H359 H 0.85814 0.91864 0.42503 0.0
H360 H 0.80549 0.89613 0.38545 0.0
H361 H 0.69071 0.81643 0.40081 0.0
H362 H 0.66324 0.77823 0.45014 0.0
H363 H 0.68942 0.77454 0.5845 0.0
H364 H 0.72562 0.81635 0.62469 0.0
H365 H 0.82013 0.91223 0.61103 0.0
H366 H 0.8657 0.93002 0.56106 0.0
H367 H 0.64482 0.90035 0.55926 0.0
H368 H 0.66733 0.92858 0.45654 0.0
H369 H 0.85327 0.78456 0.54554 0.0
H370 H 0.82778 0.7698 0.44076 0.0
C371 C 0.50973 0.79135 0.88426 0.0
C372 C 0.47691 0.79786 0.90101 0.0
C373 C 0.45436 0.76973 0.89693 0.0
C374 C 0.47442 0.74762 0.8778 0.0
N375 N 0.50817 0.76018 0.86988 0.0
Co376 Co 0.54489 0.73841 0.83966 0.0
N377 N 0.50775 0.70806 0.81829 0.0
C378 C 0.47389 0.7012 0.83141 0.0
C379 C 0.45419 0.67902 0.81143 0.0
C380 C 0.47729 0.67111 0.7844 0.0
C381 C 0.51009 0.68877 0.78946 0.0
N382 N 0.58219 0.71729 0.80969 0.0
C383 C 0.57856 0.69737 0.78153 0.0
C384 C 0.61208 0.68678 0.76957 0.0
C385 C 0.63723 0.7004 0.79115 0.0
C386 C 0.61788 0.71843 0.81514 0.0
N387 N 0.5815 0.76891 0.86114 0.0
C388 C 0.61716 0.76453 0.86157 0.0
C389 C 0.63585 0.79091 0.87708 0.0
C390 C 0.61025 0.81319 0.88671 0.0
C391 C 0.57732 0.79918 0.8764 0.0
N392 N 0.55019 0.70492 0.8734 0.0
C393 C 0.55156 0.65383 0.91921 0.0
C394 C 0.55254 0.64703 0.88439 0.0
C395 C 0.55187 0.67258 0.86219 0.0
C396 C 0.55148 0.68713 0.93087 0.0
C397 C 0.55061 0.71244 0.90741 0.0
N398 N 0.53925 0.77082 0.8057 0.0
C399 C 0.56486 0.80889 0.76452 0.0
C400 C 0.53006 0.81738 0.75758 0.0
C401 C 0.50002 0.80192 0.77467 0.0
C402 C 0.50519 0.77851 0.7984 0.0
C403 C 0.5689 0.78565 0.789 0.0
H404 H 0.48154 0.76683 0.81104 0.0
H405 H 0.59593 0.77984 0.79462 0.0
H406 H 0.55193 0.66569 0.83576 0.0
H407 H 0.54963 0.73791 0.91666 0.0
C408 C 0.46027 0.71956 0.8597 0.0
C409 C 0.54233 0.81445 0.88251 0.0
C410 C 0.54369 0.68452 0.76825 0.0
C411 C 0.63254 0.73995 0.84033 0.0
H412 H 0.46952 0.82065 0.91402 0.0
H413 H 0.42589 0.76679 0.90478 0.0
H414 H 0.42608 0.6703 0.8155 0.0
H415 H 0.47077 0.65397 0.76363 0.0
H416 H 0.61769 0.67017 0.74809 0.0
H417 H 0.66623 0.69784 0.78921 0.0
H418 H 0.66489 0.79455 0.87918 0.0
H419 H 0.61522 0.83714 0.89937 0.0
H420 H 0.55362 0.62181 0.87415 0.0
H421 H 0.55114 0.69344 0.95771 0.0
H422 H 0.58864 0.82071 0.7518 0.0
H423 H 0.47271 0.8079 0.7697 0.0
C424 C 0.5579 0.28577 0.66089 0.0
C425 C 0.59104 0.29824 0.64716 0.0
C426 C 0.6156 0.27512 0.65185 0.0
C427 C 0.59635 0.24997 0.6684 0.0
N428 N 0.5607 0.2552 0.67367 0.0
Co429 Co 0.52436 0.22802 0.70223 0.0
N430 N 0.56235 0.19975 0.71821 0.0
C431 C 0.59748 0.20015 0.70676 0.0
C432 C 0.61758 0.17926 0.72351 0.0
C433 C 0.59402 0.16501 0.74732 0.0
C434 C 0.56064 0.17794 0.74373 0.0
N435 N 0.4881 0.20209 0.7319 0.0
C436 C 0.49327 0.18041 0.75639 0.0
C437 C 0.46058 0.16926 0.77213 0.0
C438 C 0.43398 0.18501 0.75772 0.0
C439 C 0.45177 0.20477 0.73398 0.0
N440 N 0.48638 0.25628 0.68645 0.0
C441 C 0.4501 0.25179 0.69251 0.0
C442 C 0.4311 0.27638 0.68021 0.0
C443 C 0.45684 0.29836 0.6664 0.0
C444 C 0.49022 0.286 0.67129 0.0
N445 N 0.51591 0.19556 0.66363 0.0
C446 C 0.50508 0.14281 0.61581 0.0
C447 C 0.47576 0.15636 0.63373 0.0
C448 C 0.48174 0.18249 0.6572 0.0
C449 C 0.53959 0.15762 0.62021 0.0
C450 C 0.54425 0.18405 0.64366 0.0
N451 N 0.53284 0.25977 0.73975 0.0
C452 C 0.51008 0.30233 0.77744 0.0
C453 C 0.54547 0.31429 0.78309 0.0
C454 C 0.57442 0.29716 0.76904 0.0
C455 C 0.56749 0.26987 0.74754 0.0
C456 C 0.50438 0.27473 0.75607 0.0
H457 H 0.59048 0.2581 0.73645 0.0
H458 H 0.47689 0.26655 0.75203 0.0
H459 H 0.45819 0.19076 0.67034 0.0
H460 H 0.57122 0.19401 0.64547 0.0
C461 C 0.61181 0.22411 0.68416 0.0
C462 C 0.52487 0.30447 0.6634 0.0
C463 C 0.52851 0.17017 0.76613 0.0
C464 C 0.43559 0.22803 0.71519 0.0
H465 H 0.59741 0.32216 0.63632 0.0
H466 H 0.64455 0.27751 0.64605 0.0
H467 H 0.64641 0.17613 0.72009 0.0
H468 H 0.60099 0.1479 0.76591 0.0
H469 H 0.45649 0.15199 0.79239 0.0
H470 H 0.40521 0.1831 0.76454 0.0
H471 H 0.4022 0.27926 0.6831 0.0
H472 H 0.45175 0.32165 0.65548 0.0
H473 H 0.4484 0.14569 0.6311 0.0
H474 H 0.56307 0.1483 0.60624 0.0
H475 H 0.48701 0.31447 0.78911 0.0
H476 H 0.60221 0.30549 0.77361 0.0
C477 C 0.8823 0.47299 0.78459 0.0
C478 C 0.89096 0.44123 0.79177 0.0
C479 C 0.87103 0.41992 0.77136 0.0
C480 C 0.85129 0.43983 0.75308 0.0
N481 N 0.85817 0.47258 0.75988 0.0
Co482 Co 0.83216 0.51008 0.74257 0.0
N483 N 0.79664 0.4789 0.71886 0.0
C484 C 0.79735 0.44545 0.71631 0.0
C485 C 0.77075 0.43056 0.69716 0.0
C486 C 0.75194 0.45596 0.68674 0.0
C487 C 0.76797 0.48511 0.70042 0.0
N488 N 0.80566 0.54779 0.72621 0.0
C489 C 0.7752 0.54767 0.70844 0.0
C490 C 0.7648 0.57972 0.7046 0.0
C491 C 0.78994 0.60074 0.71957 0.0
C492 C 0.81396 0.58055 0.73212 0.0
N493 N 0.86782 0.54124 0.76595 0.0
C494 C 0.87073 0.57468 0.76482 0.0
C495 C 0.8966 0.5893 0.78508 0.0
C496 C 0.91034 0.56368 0.80076 0.0
C497 C 0.8919 0.53493 0.78912 0.0
N498 N 0.86472 0.51057 0.70009 0.0
C499 C 0.90592 0.51212 0.63717 0.0
C500 C 0.8974 0.54128 0.65533 0.0
C501 C 0.87717 0.53997 0.68622 0.0
C502 C 0.89493 0.48207 0.65199 0.0
C503 C 0.87457 0.48187 0.68311 0.0
N504 N 0.80012 0.50938 0.78474 0.0
C505 C 0.77385 0.53738 0.83468 0.0
C506 C 0.75855 0.50737 0.84706 0.0
C507 C 0.76418 0.47846 0.82728 0.0
C508 C 0.78462 0.48003 0.79646 0.0
C509 C 0.79441 0.53782 0.80382 0.0
H510 H 0.78774 0.45714 0.7825 0.0
H511 H 0.80578 0.56142 0.79599 0.0
H512 H 0.8715 0.56325 0.69803 0.0
H513 H 0.86667 0.45806 0.69245 0.0
C514 C 0.82292 0.42869 0.73275 0.0
C515 C 0.89521 0.50274 0.80357 0.0
C516 C 0.75542 0.51806 0.6945 0.0
C517 C 0.8446 0.59163 0.74951 0.0
H518 H 0.90871 0.43411 0.81068 0.0
H519 H 0.86952 0.39308 0.77131 0.0
H520 H 0.76569 0.40433 0.69137 0.0
H521 H 0.72919 0.45326 0.6706 0.0
H522 H 0.74143 0.58731 0.69232 0.0
H523 H 0.79054 0.62757 0.72123 0.0
H524 H 0.90285 0.61555 0.78976 0.0
H525 H 0.93016 0.5659 0.81997 0.0
H526 H 0.90591 0.56534 0.6455 0.0
H527 H 0.9008 0.45873 0.63911 0.0
H528 H 0.77043 0.5605 0.84893 0.0
H529 H 0.75228 0.45465 0.83518 0.0
C530 C 0.18141 0.04079 0.84343 0.0
C531 C 0.17208 0.07263 0.85321 0.0
C532 C 0.18629 0.09312 0.82862 0.0
C533 C 0.20364 0.07284 0.80532 0.0
N534 N 0.20093 0.04046 0.8132 0.0
Co535 Co 0.22521 1.0033 0.78739 0.0
N536 N 0.24825 0.0339 0.75227 0.0
C537 C 0.24426 0.06689 0.75113 0.0
C538 C 0.26163 0.08128 0.72345 0.0
C539 C 0.27735 0.05594 0.7055 0.0
C540 C 0.26866 0.02739 0.72331 0.0
N541 N 0.25015 0.96629 0.76203 0.0
C542 C 0.27106 0.96613 0.73259 0.0
C543 C 0.28212 0.9346 0.72386 0.0
C544 C 0.26751 0.9141 0.74827 0.0
C545 C 0.24844 0.93412 0.77054 0.0
N546 N 0.20153 0.97257 0.82197 0.0
C547 C 0.2037 0.93929 0.82193 0.0
C548 C 0.18543 0.92469 0.84905 0.0
C549 C 0.17101 0.95018 0.86782 0.0
C550 C 0.1815 0.97905 0.85112 0.0
N551 N 0.18305 0.99515 0.75857 0.0
C552 C 0.13706 0.98481 0.70426 0.0
C553 C 0.14907 0.95797 0.72093 0.0
C554 C 0.17169 0.96368 0.74802 0.0
C555 C 0.14528 0.01671 0.71785 0.0
C556 C 0.16758 0.02119 0.7451 0.0
N557 N 0.26756 0.01154 0.81595 0.0
C558 C 0.30895 0.99224 0.85505 0.0
C559 C 0.32473 0.02433 0.85991 0.0
C560 C 0.31174 0.04973 0.84189 0.0
C561 C 0.28348 0.04286 0.82026 0.0
C562 C 0.28079 0.98643 0.83301 0.0
H563 H 0.27497 0.06336 0.80736 0.0
H564 H 0.26997 0.96145 0.83038 0.0
H565 H 0.18082 0.94229 0.75905 0.0
H566 H 0.1734 0.04613 0.7536 0.0
C567 C 0.22368 0.08354 0.77635 0.0
C568 C 0.17241 0.012 0.86451 0.0
C569 C 0.28035 0.99475 0.71139 0.0
C570 C 0.22619 0.92303 0.79801 0.0
H571 H 0.15723 0.08045 0.87612 0.0
H572 H 0.1849 0.11978 0.8282 0.0
H573 H 0.26242 0.10708 0.7169 0.0
H574 H 0.29311 0.05813 0.68177 0.0
H575 H 0.2984 0.92706 0.70168 0.0
H576 H 0.26963 0.88755 0.74912 0.0
H577 H 0.18384 0.89872 0.85509 0.0
H578 H 0.1552 0.9479 0.89151 0.0
H579 H 0.14223 0.93267 0.71241 0.0
H580 H 0.13659 0.03854 0.70637 0.0
H581 H 0.31797 0.97166 0.86843 0.0
H582 H 0.32365 0.07486 0.84399 0.0
C583 C 0.74771 0.17166 0.96383 0.0
C584 C 0.74304 0.16339 0.92996 0.0
C585 C 0.76873 0.18203 0.91184 0.0
C586 C 0.78753 0.20067 0.93552 0.0
N587 N 0.77582 0.19469 0.96777 0.0
Co588 Co 0.7937 0.21837 1.00989 0.0
N589 N 0.82719 0.2496 0.98311 0.0
C590 C 0.83238 0.24958 0.94902 0.0
C591 C 0.85818 0.273 0.93786 0.0
C592 C 0.87024 0.28895 0.9665 0.0
C593 C 0.85084 0.27443 0.99367 0.0
N594 N 0.81122 0.24172 0.05217 0.0
C595 C 0.83582 0.26772 0.05632 0.0
C596 C 0.83933 0.27646 0.09033 0.0
C597 C 0.81681 0.25485 0.10828 0.0
C598 C 0.80063 0.23441 0.08439 0.0
N599 N 0.75992 0.18715 0.0366 0.0
C600 C 0.7563 0.18556 0.07065 0.0
C601 C 0.7303 0.1623 0.08182 0.0
C602 C 0.7158 0.14859 0.05321 0.0
C603 C 0.73378 0.1645 0.02617 0.0
N604 N 0.83429 0.18747 1.01113 0.0
C605 C 0.90024 0.15526 0.01527 0.0
C606 C 0.8757 0.1582 0.04333 0.0
C607 C 0.84328 0.17426 0.04076 0.0
C608 C 0.88995 0.16691 0.9847 0.0
C609 C 0.85699 0.1821 0.98308 0.0
N610 N 0.75433 0.25014 1.00845 0.0
C611 C 0.70931 0.28457 0.0366 0.0
C612 C 0.7033 0.3 1.00638 0.0
C613 C 0.72274 0.28902 0.97717 0.0
C614 C 0.74762 0.2644 0.97873 0.0
C615 C 0.73451 0.25982 0.03704 0.0
H616 H 0.76167 0.25773 0.95552 0.0
H617 H 0.73791 0.24905 0.06082 0.0
H618 H 0.82636 0.17638 0.0633 0.0
H619 H 0.85097 0.18987 0.95882 0.0
C620 C 0.81347 0.22645 0.92826 0.0
C621 C 0.72359 0.15841 0.99127 0.0
C622 C 0.85617 0.28499 0.02896 0.0
C623 C 0.77543 0.20819 0.09146 0.0
H624 H 0.72251 0.14642 0.91937 0.0
H625 H 0.77221 0.18298 0.88457 0.0
H626 H 0.86752 0.27761 0.912 0.0
H627 H 0.89125 0.3088 0.96729 0.0
H628 H 0.85631 0.2964 0.10123 0.0
H629 H 0.81267 0.25415 0.13551 0.0
H630 H 0.72192 0.15685 0.10773 0.0
H631 H 0.69374 0.12971 0.05232 0.0
H632 H 0.88201 0.14914 0.06757 0.0
H633 H 0.90726 0.16427 0.96193 0.0
H634 H 0.69462 0.29147 0.05995 0.0
H635 H 0.71973 0.30006 0.95309 0.0
Co636 Co 0.07983 0.05302 0.06436 0.0
C637 C 0.0797 0.10842 0.11105 0.0
Co638 Co 0.11225 0.09804 0.04776 0.0
C639 C 0.06143 0.98443 0.08081 0.0
C640 C 1.01735 0.01537 0.09301 0.0
N641 N 0.05152 0.01605 0.07936 0.0
N642 N 0.03495 0.96408 0.09513 0.0
C643 C 1.0071 0.98361 0.10264 0.0
H644 H 0.08808 0.97679 0.07248 0.0
H645 H 1.00114 0.03674 0.0963 0.0
C646 C 0.11305 0.04445 0.99976 0.0
N647 N 0.14337 0.13297 0.03195 0.0
C648 C 0.14203 0.16638 0.03128 0.0
C649 C 0.17641 0.12682 0.01792 0.0
N650 N 0.1731 0.18105 0.01722 0.0
C651 C 0.19453 0.15586 1.00905 0.0
C652 C 0.14988 0.05382 0.08528 0.0
O653 O 0.09272 0.02886 0.02171 0.0
O654 O 0.12378 0.07416 1.00658 0.0
O655 O 0.15316 0.08068 0.06928 0.0
O656 O 0.11985 0.03698 0.08516 0.0
O657 O 0.10061 0.12197 0.08831 0.0
H658 H 0.18713 0.10253 0.01481 0.0
H659 H 0.11895 0.17953 0.04121 0.0
O660 O 0.06765 0.07828 0.10621 0.0
O661 O 0.03912 0.06975 0.04471 0.0
O662 O 0.07001 0.11504 0.02814 0.0
C663 C 0.03968 0.09801 0.03146 0.0
H664 H 0.98109 0.97566 0.1144 0.0
H665 H 0.22209 0.15797 0.99848 0.0
Co666 Co 0.97864 0.45969 0.08539 0.0
C667 C 0.99266 0.52637 0.06547 0.0
Co668 Co 0.95701 0.47369 0.0372 0.0
C669 C 1.01373 0.42587 0.13657 0.0
C670 C 1.00376 0.47622 0.15089 0.0
N671 N 1.00002 0.45329 0.1254 0.0
N672 N 0.0256 0.43079 0.16813 0.0
C673 C 1.01948 0.46249 0.17713 0.0
H674 H 1.01335 0.40234 0.12251 0.0
H675 H 0.99456 0.5011 0.15089 0.0
C676 C 0.94114 0.40733 0.05634 0.0
N677 N 0.93316 0.48009 0.9972 0.0
C678 C 0.94339 0.48981 0.96542 0.0
C679 C 0.89714 0.47248 0.99595 0.0
N680 N 0.91477 0.48909 0.94518 0.0
C681 C 0.8859 0.47813 0.96456 0.0
C682 C 0.02713 0.45117 0.03 0.0
O683 O 0.95842 0.41455 0.08288 0.0
O684 O 0.9395 0.42911 0.03441 0.0
O685 O 1.00292 0.46267 1.01238 0.0
O686 O 1.02039 0.44722 0.06131 0.0
O687 O 0.97412 0.51835 0.04003 0.0
H688 H 0.87986 0.46236 0.01639 0.0
H689 H 0.97104 0.49713 0.95728 0.0
O690 O 0.99782 0.50457 0.08672 0.0
O691 O 0.93743 0.47211 0.11065 0.0
O692 O 0.91268 0.48496 0.06443 0.0
C693 C 0.91082 0.48247 0.09649 0.0
H694 H 0.02493 0.4746 0.20135 0.0
H695 H 0.85858 0.47347 0.95623 0.0
Co696 Co 0.07234 0.95394 0.47279 0.0
C697 C 0.12887 0.95826 0.42145 0.0
Co698 Co 0.05984 0.92869 0.42445 0.0
C699 C 0.08463 0.96133 0.54464 0.0
C700 C 0.09508 1.00669 0.51862 0.0
N701 N 0.08483 0.97427 0.51367 0.0
N702 N 0.09368 0.98461 0.56858 0.0
C703 C 0.10025 0.01314 0.55235 0.0
H704 H 0.07763 0.9355 0.54965 0.0
H705 H 0.09865 0.0246 0.49894 0.0
C706 C 1.00125 0.92518 0.47259 0.0
N707 N 0.0462 0.91019 0.38392 0.0
C708 C 0.06115 0.88587 0.36483 0.0
C709 C 1.01735 0.91826 0.3672 0.0
N710 N 0.04275 0.87859 0.33681 0.0
C711 C 1.01525 0.89893 0.33812 0.0
C712 C 0.09145 0.88664 0.46651 0.0
O713 O 0.02354 0.94081 0.49203 0.0
O714 O 1.01239 0.91719 0.44276 0.0
O715 O 0.07666 0.88718 0.4382 0.0
O716 O 0.09151 0.91278 0.48568 0.0
O717 O 0.10638 0.93979 0.40527 0.0
H718 H 0.99848 0.93649 0.37601 0.0
H719 H 0.08476 0.87353 0.37152 0.0
O720 O 0.12025 0.96782 0.45185 0.0
O721 O 0.05428 0.9944 0.46007 0.0
O722 O 0.04481 0.9706 0.41075 0.0
C723 C 0.04461 0.99635 0.43016 0.0
H724 H 0.10904 0.03676 0.564 0.0
H725 H 0.99423 0.89879 0.32012 0.0
Co726 Co 0.98745 0.57861 0.45335 0.0
C727 C 0.06116 0.57487 0.46624 0.0
Co728 Co 1.00948 0.52941 0.43862 0.0
C729 C 0.94436 0.63886 0.46061 0.0
C730 C 0.97995 0.63257 0.5004 0.0
N731 N 0.96985 0.61897 0.47039 0.0
N732 N 0.9382 0.66381 0.48376 0.0
C733 C 0.96066 0.65981 0.50863 0.0
H734 H 0.92955 0.63434 0.43788 0.0
H735 H 0.99936 0.62259 0.5161 0.0
C736 C 0.93682 0.5347 0.42453 0.0
N737 N 0.02824 0.48832 0.42258 0.0
C738 C 1.01357 0.45651 0.41983 0.0
C739 C 0.0617 0.48667 0.40756 0.0
N740 N 0.03663 0.43548 0.40337 0.0
C741 C 0.06688 0.45473 0.39593 0.0
C742 C 0.97788 0.53144 0.50401 0.0
O743 O 0.94109 0.56351 0.43857 0.0
O744 O 0.96321 0.51577 0.42192 0.0
O745 O 0.99378 0.51123 0.48325 0.0
O746 O 0.975 0.56091 0.49528 0.0
O747 O 0.05651 0.54482 0.45537 0.0
H748 H 0.08102 0.50769 0.40442 0.0
H749 H 0.98613 0.44917 0.4286 0.0
O750 O 0.03436 0.59312 0.46744 0.0
O751 O 0.99928 0.59601 0.41094 0.0
O752 O 0.02322 0.54909 0.39466 0.0
C753 C 1.01505 0.57841 0.38798 0.0
H754 H 0.96256 0.6753 0.53149 0.0
H755 H 0.09126 0.44636 0.3828 0.0
Co756 Co 0.45377 0.94572 0.58246 0.0
C757 C 0.46768 0.01251 0.5631 0.0
Co758 Co 0.42748 0.96116 0.53696 0.0
C759 C 0.48786 0.91045 0.63398 0.0
C760 C 0.4829 0.96213 0.64609 0.0
N761 N 0.47676 0.93854 0.62159 0.0
N762 N 0.50028 0.91578 0.6653 0.0
C763 C 0.49734 0.94826 0.67286 0.0
H764 H 0.48504 0.88634 0.62117 0.0
H765 H 0.47581 0.98764 0.64531 0.0
C766 C 0.41209 0.89447 0.55557 0.0
N767 N 0.40266 0.96917 0.49729 0.0
C768 C 0.41381 0.97298 0.46419 0.0
C769 C 0.36616 0.9687 0.49706 0.0
N770 N 0.38556 0.97475 0.4437 0.0
C771 C 0.35577 0.97233 0.46479 0.0
C772 C 0.49793 0.93637 0.52524 0.0
O773 O 0.43186 0.90132 0.58062 0.0
O774 O 0.40839 0.91665 0.53436 0.0
O775 O 0.47258 0.94899 0.50982 0.0
O776 O 0.49351 0.93194 0.55666 0.0
O777 O 0.44596 1.00559 0.53976 0.0
H778 H 0.34768 0.96491 0.5188 0.0
H779 H 0.44195 0.97332 0.45514 0.0
O780 O 0.47481 0.99002 0.58285 0.0
O781 O 0.41468 0.95938 0.60975 0.0
O782 O 0.38443 0.97345 0.56738 0.0
C783 C 0.38652 0.97082 0.59938 0.0
H784 H 0.504 0.96083 0.69657 0.0
H785 H 0.32805 0.97297 0.45757 0.0
Co786 Co 0.55461 0.53631 0.60745 0.0
C787 C 0.5583 0.59529 0.64958 0.0
Co788 Co 0.58404 0.58064 0.58465 0.0
C789 C 0.53982 0.467 0.62492 0.0
C790 C 0.50062 0.49791 0.64926 0.0
N791 N 0.52976 0.49888 0.62731 0.0
N792 N 0.5184 0.44628 0.64468 0.0
C793 C 0.49367 0.46585 0.65997 0.0
H794 H 0.56336 0.45937 0.60987 0.0
H795 H 0.48585 0.51928 0.65757 0.0
C796 C 0.58133 0.52425 0.54129 0.0
N797 N 0.61292 0.61439 0.56325 0.0
C798 C 0.61009 0.6469 0.55701 0.0
C799 C 0.64522 0.6071 0.54822 0.0
N800 N 0.63946 0.65968 0.53855 0.0
C801 C 0.66142 0.63443 0.53345 0.0
C802 C 0.62747 0.54016 0.62077 0.0
O803 O 0.56414 0.50952 0.56573 0.0
O804 O 0.59144 0.55447 0.54524 0.0
O805 O 0.62746 0.56579 0.60317 0.0
O806 O 0.59799 0.5228 0.62543 0.0
O807 O 0.57612 0.60715 0.62394 0.0
H808 H 0.65655 0.58304 0.5478 0.0
H809 H 0.58698 0.66071 0.56558 0.0
O810 O 0.54635 0.56473 0.64842 0.0
O811 O 0.51028 0.55127 0.58981 0.0
O812 O 0.53998 0.59492 0.56752 0.0
C813 C 0.50996 0.57817 0.57368 0.0
H814 H 0.47204 0.45766 0.67778 0.0
H815 H 0.68802 0.63556 0.52065 0.0
Co816 Co 0.60209 0.48221 1.01267 0.0
C817 C 0.65165 0.48997 0.95641 0.0
Co818 Co 0.5817 0.46371 0.96445 0.0
C819 C 0.62044 0.48255 0.08343 0.0
C820 C 0.64212 0.52539 0.05726 0.0
N821 N 0.62113 0.49715 0.05323 0.0
N822 N 0.64063 0.5005 0.10589 0.0
C823 C 0.65413 0.52749 0.08948 0.0
H824 H 0.6065 0.45875 0.08844 0.0
H825 H 0.6489 0.54304 0.03772 0.0
C826 C 0.52981 0.45562 0.01705 0.0
N827 N 0.5625 0.45052 0.92463 0.0
C828 C 0.5768 0.43061 0.90028 0.0
C829 C 0.52997 0.4577 0.91399 0.0
N830 N 0.55419 0.42445 0.87499 0.0
C831 C 0.52475 0.44161 0.8834 0.0
C832 C 0.6164 0.41545 0.99663 0.0
O833 O 0.55354 0.47115 0.03519 0.0
O834 O 0.53835 0.44882 0.98641 0.0
O835 O 0.60124 0.42091 0.9694 0.0
O836 O 0.61759 0.43836 0.01964 0.0
O837 O 0.62449 0.47821 0.941 0.0
H838 H 0.51071 0.47259 0.92822 0.0
H839 H 0.60281 0.42006 0.90171 0.0
O840 O 0.64919 0.49322 0.98865 0.0
O841 O 0.58775 0.52606 1.00562 0.0
O842 O 0.56317 0.50615 0.9597 0.0
C843 C 0.56992 0.53057 0.97994 0.0
H844 H 0.67153 0.54737 0.10003 0.0
H845 H 0.50021 0.44083 0.86963 0.0
Co846 Co 0.50516 0.09938 0.96316 0.0
C847 C 0.58015 0.09561 0.96859 0.0
Co848 Co 0.52631 0.0517 0.94238 0.0
C849 C 0.46522 0.16055 0.97522 0.0
C850 C 0.49859 0.14902 0.01514 0.0
N851 N 0.48875 0.13838 0.984 0.0
N852 N 0.45983 0.18401 1.00006 0.0
C853 C 0.48077 0.17674 0.0251 0.0
H854 H 0.45153 0.15897 0.95168 0.0
H855 H 0.5172 0.13696 0.03007 0.0
C856 C 0.45254 0.05689 0.93499 0.0
N857 N 0.54356 0.01148 0.92264 0.0
C858 C 0.53049 0.9792 0.92434 0.0
C859 C 0.57303 1.01023 0.9012 0.0
N860 N 0.55056 0.95814 0.90447 0.0
C861 C 0.57733 0.97792 0.8901 0.0
C862 C 0.50167 0.04862 1.01044 0.0
O863 O 0.45747 0.08503 0.95036 0.0
O864 O 0.47905 0.03844 0.92973 0.0
O865 O 0.51557 0.03073 0.98629 0.0
O866 O 0.49621 0.07853 1.00507 0.0
O867 O 0.5749 0.06658 0.95513 0.0
H868 H 0.59028 0.03162 0.89381 0.0
H869 H 0.50625 0.97142 0.93922 0.0
O870 O 0.55308 0.11316 0.97475 0.0
O871 O 0.51366 0.12009 0.9213 0.0
O872 O 0.53499 0.07421 0.89878 0.0
C873 C 0.52675 0.10428 0.89553 0.0
H874 H 0.48292 0.19055 0.04897 0.0
H875 H 0.5989 0.96965 0.87284 0.0
C876 C 0.05105 0.06712 0.37081 0.0
C877 C 0.03389 0.09259 0.38972 0.0
H878 H 0.06637 0.01695 0.36826 0.0
C879 C 1.02035 0.08595 0.42288 0.0
H880 H 0.06357 0.0713 0.34589 0.0
C881 C 0.02342 0.05456 0.43629 0.0
C882 C 0.03915 0.02905 0.41645 0.0
H883 H 1.007 0.10473 0.43832 0.0
H884 H 1.01314 0.05009 0.46194 0.0
C885 C 0.05291 0.03574 0.38367 0.0
C886 C 0.04689 0.35285 0.35648 0.0
C887 C 0.02635 0.33054 0.37727 0.0
H888 H 0.06542 0.4032 0.34778 0.0
C889 C 1.00787 0.34358 0.40645 0.0
H890 H 0.06146 0.34375 0.33388 0.0
C891 C 1.00998 0.37805 0.41452 0.0
C892 C 0.03118 0.40029 0.39394 0.0
H893 H 0.99265 0.32708 0.42362 0.0
H894 H 0.99613 0.38713 0.43749 0.0
C895 C 0.04922 0.38705 0.3646 0.0
C896 C 1.01458 0.88175 0.13566 0.0
C897 C 0.03819 0.86099 0.11708 0.0
H898 H 0.99537 0.93028 0.14374 0.0
C899 C 0.06149 0.87505 0.09148 0.0
H900 H 0.9969 0.87216 0.15617 0.0
C901 C 0.06062 0.90879 0.08429 0.0
C902 C 0.03647 0.92933 0.10257 0.0
H903 H 0.07991 0.85985 0.07653 0.0
H904 H 0.07842 0.91858 0.06401 0.0
C905 C 1.01369 0.91528 0.1285 0.0
C906 C 1.00689 0.61948 0.05932 0.0
C907 C 0.02196 0.62797 0.09044 0.0
H908 H 0.98562 0.58021 0.02679 0.0
C909 C 0.03078 0.60297 0.11148 0.0
H910 H 1.00031 0.63864 0.04269 0.0
C911 C 0.02284 0.5698 0.10243 0.0
C912 C 1.00564 0.5611 0.07225 0.0
H913 H 0.04252 0.60919 0.13558 0.0
H914 H 0.0289 0.55109 0.11978 0.0
C915 C 0.9986 0.58619 0.05031 0.0
C916 C 0.44079 1.00286 0.07578 0.0
C917 C 0.44631 0.02284 0.10533 0.0
H918 H 0.45518 0.9943 0.02283 0.0
C919 C 0.47436 0.04797 0.10416 0.0
H920 H 0.41928 0.98339 0.07576 0.0
C921 C 0.49445 0.05453 0.0737 0.0
C922 C 0.48792 0.03549 0.04379 0.0
H923 H 0.4791 0.06404 0.12621 0.0
H924 H 0.51396 0.07568 0.07309 0.0
C925 C 0.46162 1.00886 0.0455 0.0
C926 C 0.68701 0.49872 0.18734 0.0
C927 C 0.65935 0.48479 0.20889 0.0
H928 H 0.70284 0.51416 0.13744 0.0
C929 C 0.62619 0.47352 0.19559 0.0
H930 H 0.71277 0.50758 0.19716 0.0
C931 C 0.62043 0.47726 0.16126 0.0
C932 C 0.64759 0.49276 0.14005 0.0
H933 H 0.60436 0.46309 0.21199 0.0
H934 H 0.59424 0.46955 0.1517 0.0
C935 C 0.68121 0.50269 0.1533 0.0
C936 C 0.35255 0.97274 0.35482 0.0
C937 C 0.38191 0.98826 0.33652 0.0
H938 H 0.33083 0.95556 0.4024 0.0
C939 C 0.41386 0.99705 0.35346 0.0
H940 H 0.32777 0.96526 0.34242 0.0
C941 C 0.41564 0.99196 0.38836 0.0
C942 C 0.38554 0.97772 0.40711 0.0
H943 H 0.43738 1.0082 0.33978 0.0
H944 H 0.4402 0.99995 0.40077 0.0
C945 C 0.35431 0.96751 0.38947 0.0
C946 C 0.6344 0.47896 0.47191 0.0
C947 C 0.62617 0.49673 0.44361 0.0
H948 H 0.62572 0.47314 0.5257 0.0
C949 C 0.59762 0.51819 0.44737 0.0
H950 H 0.6563 0.46231 0.47 0.0
C951 C 0.58006 0.52404 0.479 0.0
C952 C 0.59017 0.50836 0.50779 0.0
H953 H 0.58999 0.53181 0.42611 0.0
H954 H 0.56019 0.54271 0.48144 0.0
C955 C 0.61664 0.48485 0.50379 0.0
C956 C 0.11604 0.41183 0.02771 0.0
C957 C 0.14068 0.43806 0.0179 0.0
H958 H 0.0606 0.39502 0.03749 0.0
C959 C 0.12671 0.46636 1.00486 0.0
H960 H 0.12573 0.38938 0.03717 0.0
C961 C 0.08886 0.46943 1.00465 0.0
C962 C 0.06442 0.44405 0.01701 0.0
H963 H 0.14492 0.48697 0.99696 0.0
H964 H 0.07887 0.49267 0.99754 0.0
C965 C 0.07861 0.41479 0.02728 0.0
C966 C 0.1343 0.63823 0.4961 0.0
C967 C 0.16603 0.62108 0.4909 0.0
H968 H 0.07678 0.63721 0.49275 0.0
C969 C 0.16316 0.58787 0.47868 0.0
H970 H 0.1357 0.66372 0.50576 0.0
C971 C 0.12919 0.57239 0.47117 0.0
C972 C 0.09738 0.5898 0.47589 0.0
H973 H 0.18723 0.57396 0.47489 0.0
H974 H 0.12791 0.54698 0.46134 0.0
C975 C 0.10051 0.62288 0.48868 0.0
C976 C 0.90322 0.9387 0.50275 0.0
C977 C 0.88455 0.90939 0.49079 0.0
H978 H 0.95468 0.96607 0.50797 0.0
C979 C 0.9051 0.88493 0.47418 0.0
H980 H 0.88826 0.95872 0.51438 0.0
C981 C 0.94304 0.88959 0.46964 0.0
C982 C 0.9618 0.91856 0.4822 0.0
H983 H 0.8917 0.8622 0.46442 0.0
H984 H 0.95778 0.87056 0.45586 0.0
C985 C 0.94136 0.94296 0.4991 0.0
C986 C 0.40843 0.59262 0.57111 0.0
C987 C 0.40818 0.6188 0.5486 0.0
H988 H 0.44006 0.55891 0.59606 0.0
C989 C 0.44179 0.63062 0.53369 0.0
H990 H 0.38325 0.58258 0.58296 0.0
C991 C 0.47447 0.61721 0.54143 0.0
C992 C 0.47475 0.5911 0.56396 0.0
H993 H 0.443 0.65093 0.51654 0.0
H994 H 0.49966 0.62754 0.52983 0.0
C995 C 0.44111 0.57882 0.57844 0.0
C996 C 0.52702 0.59748 0.93538 0.0
C997 C 0.55068 0.62534 0.94195 0.0
H998 H 0.5146 0.54572 0.94233 0.0
C999 C 0.57702 0.62311 0.9659 0.0
H1000 H 0.50613 0.5986 0.91738 0.0
C1001 C 0.58164 0.59265 0.9806 0.0
C1002 C 0.56015 0.56408 0.97128 0.0
H1003 H 0.5957 0.64414 0.97131 0.0
H1004 H 0.60368 0.59094 0.99724 0.0
C1005 C 0.53188 0.56717 0.94963 0.0
C1006 C 0.55551 0.87255 0.86253 0.0
C1007 C 0.54124 0.85158 0.88807 0.0
H1008 H 0.56885 0.92229 0.84728 0.0
C1009 C 0.52871 0.86641 0.91901 0.0
H1010 H 0.56555 0.86203 0.83849 0.0
C1011 C 0.53045 0.9013 0.92414 0.0
C1012 C 0.54545 0.92227 0.8987 0.0
H1013 H 0.51862 0.85105 0.93967 0.0
H1014 H 0.52133 0.9118 0.94845 0.0
C1015 C 0.55754 0.90721 0.8677 0.0
C1016 C 0.5125 0.36254 0.6851 0.0
C1017 C 0.52566 0.34146 0.65873 0.0
H1018 H 0.50009 0.41198 0.70153 0.0
C1019 C 0.53692 0.35564 0.62767 0.0
H1020 H 0.50342 0.35243 0.70927 0.0
C1021 C 0.53537 0.38999 0.62326 0.0
C1022 C 0.52168 0.41102 0.64953 0.0
H1023 H 0.54625 0.34005 0.60652 0.0
H1024 H 0.54387 0.39994 0.59892 0.0
C1025 C 0.51042 0.3967 0.68056 0.0
C1026 C 0.52126 0.08474 0.60241 0.0
C1027 C 0.49989 0.11114 0.5962 0.0
H1028 H 0.52773 0.0326 0.59656 0.0
C1029 C 0.47086 0.1056 0.5748 0.0
H1030 H 0.5436 0.08825 0.61903 0.0
C1031 C 0.46196 0.0737 0.56162 0.0
C1032 C 0.48159 0.04687 0.57019 0.0
H1033 H 0.45413 0.12564 0.56951 0.0
H1034 H 0.43831 0.06972 0.54667 0.0
C1035 C 0.51204 0.05286 0.58971 0.0
C1036 C 0.95185 0.49351 0.59038 0.0
C1037 C 0.9236 0.51376 0.60217 0.0
H1038 H 0.99171 0.48278 0.54994 0.0
C1039 C 0.91209 0.53682 0.58014 0.0
H1040 H 0.96124 0.47527 0.60663 0.0
C1041 C 0.92919 0.54095 0.54827 0.0
C1042 C 0.95862 0.5222 0.53683 0.0
H1043 H 0.88978 0.5521 0.58763 0.0
H1044 H 0.9194 0.55954 0.53262 0.0
C1045 C 0.96928 0.49771 0.55792 0.0
C1046 C 0.09515 1.00297 0.66146 0.0
C1047 C 0.11965 0.98024 0.67116 0.0
H1048 H 0.06797 0.02222 0.62068 0.0
C1049 C 0.131 0.95578 0.6472 0.0
H1050 H 0.08488 0.02152 0.67933 0.0
C1051 C 0.12023 0.95566 0.61387 0.0
C1052 C 0.09851 0.98029 0.60378 0.0
H1053 H 0.15013 0.93805 0.65344 0.0
H1054 H 0.13096 0.93785 0.59541 0.0
C1055 C 0.08516 1.00328 0.62801 0.0
C1056 C 0.93438 0.48833 0.85087 0.0
C1057 C 0.90266 0.50125 0.84008 0.0
H1058 H 0.96353 0.47469 0.89341 0.0
C1059 C 0.87726 0.51311 0.86439 0.0
H1060 H 0.95461 0.47951 0.83246 0.0
C1061 C 0.8825 0.51072 0.89881 0.0
C1062 C 0.91331 0.49645 0.9099 0.0
H1063 H 0.85282 0.5235 0.85671 0.0
H1064 H 0.86184 0.51928 0.91692 0.0
C1065 C 0.93972 0.48599 0.8856 0.0
C1066 C 0.11913 0.02501 0.90507 0.0
C1067 C 0.15533 0.01636 0.89975 0.0
H1068 H 0.07697 0.03992 0.94115 0.0
C1069 C 0.1758 0.01313 0.92822 0.0
H1070 H 0.10272 0.02774 0.88363 0.0
C1071 C 0.161 0.0199 0.96109 0.0
C1072 C 0.12514 0.02944 0.96639 0.0
H1073 H 0.20375 1.00658 0.92493 0.0
H1074 H 0.17812 0.01902 0.98234 0.0
C1075 C 0.10425 0.03158 0.938 0.0
C1076 C 0.58464 0.89282 0.51583 0.0
C1077 C 0.60988 0.91787 0.50426 0.0
H1078 H 0.52929 0.87861 0.52971 0.0
C1079 C 0.59635 0.94707 0.4927 0.0
H1080 H 0.59387 0.8698 0.52441 0.0
C1081 C 0.55871 0.95209 0.49555 0.0
C1082 C 0.5339 0.92775 0.50948 0.0
H1083 H 0.61498 0.96688 0.48358 0.0
H1084 H 0.54947 0.97595 0.48947 0.0
C1085 C 0.54742 0.89766 0.51833 0.0
C1086 C 0.65575 0.15785 0.9952 0.0
C1087 C 0.68716 0.14183 0.98458 0.0
H1088 H 0.59783 0.15586 0.99888 0.0
C1089 C 0.68344 0.10972 0.96959 0.0
H1090 H 0.65787 0.18243 1.00715 0.0
C1091 C 0.64883 0.09419 0.96486 0.0
C1092 C 0.61727 0.11043 0.9752 0.0
H1093 H 0.70732 0.09665 0.96167 0.0
H1094 H 0.64681 0.06964 0.95285 0.0
C1095 C 0.62134 0.14243 0.99056 0.0
C1096 C 0.43593 0.41304 0.01698 0.0
C1097 C 0.41406 0.43761 0.03125 0.0
H1098 H 0.4897 0.39911 1.00267 0.0
C1099 C 0.43121 0.46683 0.04514 0.0
H1100 H 0.4236 0.3903 1.00614 0.0
C1101 C 0.4694 0.47167 0.04386 0.0
C1102 C 0.4912 0.44752 0.02831 0.0
H1103 H 0.41504 0.48646 0.05586 0.0
H1104 H 0.48171 0.49517 0.0529 0.0
C1105 C 0.47384 0.41795 0.01546 0.0
C1106 C 0.93807 0.11033 0.03454 0.0
C1107 C 0.93605 0.14008 0.01775 0.0
H1108 H 0.97158 0.07358 0.05109 0.0
C1109 C 0.96859 0.15531 1.00378 0.0
H1110 H 0.91369 0.09772 0.04534 0.0
C1111 C 1.00227 0.14162 1.00742 0.0
C1112 C 1.00422 0.11191 0.02448 0.0
H1113 H 0.9681 0.17836 0.99079 0.0
H1114 H 0.02678 0.15448 0.99721 0.0
C1115 C 0.97146 0.09634 0.03757 0.0
C1116 C 0.0405 0.13276 0.19922 0.0
C1117 C 0.05175 0.16666 0.20199 0.0
H1118 H 0.0402 0.08772 0.16841 0.0
C1119 C 0.07171 0.18116 0.17471 0.0
H1120 H 0.02572 0.12081 0.22022 0.0
C1121 C 0.08043 0.16224 0.14531 0.0
C1122 C 0.06946 0.12821 0.14241 0.0
H1123 H 0.08114 0.20707 0.17641 0.0
H1124 H 0.09611 0.17435 0.12491 0.0
C1125 C 0.04905 0.11378 0.16966 0.0
C1126 C 0.03102 0.38107 0.24482 0.0
C1127 C 0.0466 0.35265 0.23077 0.0
H1128 H 1.01219 0.4285 0.23569 0.0
C1129 C 0.05893 0.35159 0.19669 0.0
H1130 H 1.02117 0.38205 0.2711 0.0
C1131 C 0.05355 0.37804 0.17625 0.0
C1132 C 0.03607 0.40584 0.18983 0.0
H1133 H 0.07076 0.3296 0.18551 0.0
H1134 H 0.06189 0.37633 0.14965 0.0
C1135 C 0.02601 0.40758 0.22456 0.0
C1136 C 0.03978 0.82797 0.25642 0.0
C1137 C 0.04973 0.79742 0.26723 0.0
H1138 H 0.03034 0.87839 0.27057 0.0
C1139 C 0.06026 0.79437 0.3003 0.0
H1140 H 0.03165 0.83046 0.2308 0.0
C1141 C 0.05967 0.82163 0.3229 0.0
C1142 C 0.04813 0.85196 0.31261 0.0
H1143 H 0.06776 0.77071 0.30882 0.0
H1144 H 0.06648 0.81857 0.34879 0.0
C1145 C 0.03894 0.85512 0.27904 0.0
C1146 C 0.04829 0.59108 0.29568 0.0
C1147 C 0.02897 0.61851 0.28787 0.0
H1148 H 0.05873 0.55621 0.33336 0.0
C1149 C 1.00621 0.63262 0.31329 0.0
H1150 H 0.06611 0.57975 0.27659 0.0
C1151 C 1.00248 0.61971 0.34551 0.0
C1152 C 1.02105 0.59191 0.35345 0.0
H1153 H 0.99137 0.65405 0.30831 0.0
H1154 H 0.98446 0.63144 0.36416 0.0
C1155 C 0.04402 0.57761 0.3281 0.0
C1156 C 0.2406 0.05025 0.12614 0.0
C1157 C 0.23119 0.02977 0.15367 0.0
H1158 H 0.22242 0.07439 0.08325 0.0
C1159 C 0.19567 0.0155 0.15691 0.0
H1160 H 0.26803 0.06104 0.12257 0.0
C1161 C 0.16987 0.02231 0.13383 0.0
C1162 C 0.17876 0.04403 0.10718 0.0
H1163 H 0.18772 0.99945 0.17764 0.0
H1164 H 0.14253 0.01137 0.13761 0.0
C1165 C 0.21457 0.05772 0.10349 0.0
C1166 C 0.85696 0.51845 0.17076 0.0
C1167 C 0.82668 0.49566 0.17338 0.0
H1168 H 0.90723 0.5322 0.1438 0.0
C1169 C 0.82181 0.47152 0.14705 0.0
H1170 H 0.86184 0.53711 0.19064 0.0
C1171 C 0.84755 0.46924 0.11972 0.0
C1172 C 0.87877 0.49087 0.11834 0.0
H1173 H 0.79867 0.45372 0.14815 0.0
H1174 H 0.84427 0.4492 0.10093 0.0
C1175 C 0.88288 0.51581 0.1438 0.0
C1176 C 0.19433 1.00975 0.36505 0.0
C1177 C 0.21858 0.98602 0.35246 0.0
H1178 H 0.14738 0.01976 0.39757 0.0
C1179 C 0.2158 0.95467 0.36729 0.0
H1180 H 0.19506 0.03402 0.35433 0.0
C1181 C 0.18817 0.94652 0.39178 0.0
C1182 C 0.16315 0.96973 0.4031 0.0
H1183 H 0.23435 0.93587 0.35928 0.0
H1184 H 0.18544 0.92151 0.40093 0.0
C1185 C 0.16701 1.00169 0.39007 0.0
C1186 C 0.83725 0.52845 0.40618 0.0
C1187 C 0.83766 0.51052 0.37504 0.0
H1188 H 0.86864 0.55084 0.44598 0.0
C1189 C 0.87042 0.49843 0.36171 0.0
H1190 H 0.81219 0.53771 0.41711 0.0
C1191 C 0.9024 0.50494 0.37875 0.0
C1192 C 0.90233 0.52443 0.40893 0.0
H1193 H 0.8714 0.48461 0.33771 0.0
H1194 H 0.92747 0.49598 0.36752 0.0
C1195 C 0.86942 0.53589 0.42267 0.0
C1196 C 0.17809 0.27398 0.03172 0.0
C1197 C 0.2116 0.28281 0.01498 0.0
H1198 H 0.13979 0.23453 0.04646 0.0
C1199 C 0.22944 0.25865 0.99545 0.0
H1200 H 0.16332 0.29254 0.0462 0.0
C1201 C 0.21547 0.2258 0.99451 0.0
C1202 C 0.18375 0.21597 0.01394 0.0
H1203 H 0.25495 0.26497 0.98176 0.0
H1204 H 0.23045 0.20809 0.9792 0.0
C1205 C 0.16451 0.24077 0.03164 0.0
C1206 C 0.15089 0.83129 0.51366 0.0
C1207 C 0.15649 0.80471 0.49017 0.0
H1208 H 0.12629 0.8775 0.52491 0.0
C1209 C 0.13835 0.80448 0.45969 0.0
H1210 H 0.16448 0.8328 0.53725 0.0
C1211 C 0.11629 0.83027 0.45258 0.0
C1212 C 0.11162 0.8573 0.47565 0.0
H1213 H 0.14128 0.78436 0.44107 0.0
H1214 H 0.10356 0.82935 0.42855 0.0
C1215 C 0.12895 0.85715 0.50649 0.0
C1216 C 0.86946 0.7228 0.51691 0.0
C1217 C 0.86692 0.74333 0.48935 0.0
H1218 H 0.8938 0.68131 0.53642 0.0
C1219 C 0.88648 0.73535 0.45876 0.0
H1220 H 0.85415 0.72723 0.54054 0.0
C1221 C 0.90852 0.70818 0.45621 0.0
C1222 C 0.91194 0.68875 0.4843 0.0
H1223 H 0.88568 0.75062 0.437 0.0
H1224 H 0.92411 0.70321 0.43283 0.0
C1225 C 0.89186 0.69614 0.51447 0.0
C1226 C 0.38177 0.80287 0.56149 0.0
C1227 C 0.35214 0.80051 0.54049 0.0
H1228 H 0.4239 0.83467 0.58332 0.0
C1229 C 0.34257 0.82896 0.52487 0.0
H1230 H 0.38971 0.78111 0.57365 0.0
C1231 C 0.36228 0.85918 0.52986 0.0
C1232 C 0.39181 0.86186 0.55101 0.0
H1233 H 0.31977 0.82776 0.50872 0.0
H1234 H 0.35404 0.88061 0.5173 0.0
C1235 C 0.40126 0.83341 0.567 0.0
C1236 C 0.5561 0.67371 0.70604 0.0
C1237 C 0.54407 0.66152 0.7376 0.0
H1238 H 0.56975 0.66265 0.65389 0.0
C1239 C 0.53571 0.62716 0.74013 0.0
H1240 H 0.56313 0.69996 0.70346 0.0
C1241 C 0.53934 0.60548 0.71157 0.0
C1242 C 0.55203 0.61769 0.68002 0.0
H1243 H 0.52714 0.61699 0.76437 0.0
H1244 H 0.53313 0.57916 0.7144 0.0
C1245 C 0.56002 0.65217 0.6777 0.0
C1246 C 0.50533 0.87077 0.74512 0.0
C1247 C 0.52457 0.84335 0.7338 0.0
H1248 H 0.48243 0.91533 0.73192 0.0
C1249 C 0.53663 0.84023 0.69967 0.0
H1250 H 0.49582 0.87353 0.77139 0.0
C1251 C 0.52862 0.86401 0.67692 0.0
C1252 C 0.50916 0.89139 0.6883 0.0
H1253 H 0.55137 0.81904 0.69055 0.0
H1254 H 0.53766 0.86118 0.65056 0.0
C1255 C 0.49788 0.89467 0.72263 0.0
C1256 C 0.57433 0.3441 0.83124 0.0
C1257 C 0.55193 0.3444 0.80395 0.0
H1258 H 0.59239 0.36951 0.87573 0.0
C1259 C 0.53405 0.37294 0.79777 0.0
H1260 H 0.5883 0.32218 0.83629 0.0
C1261 C 0.53673 0.40029 0.82003 0.0
C1262 C 0.557 0.39921 0.84885 0.0
H1263 H 0.51725 0.37369 0.77625 0.0
H1264 H 0.52192 0.42179 0.8154 0.0
C1265 C 0.57679 0.37132 0.85364 0.0
C1266 C 0.53919 0.11967 0.80025 0.0
C1267 C 0.53117 0.15325 0.7991 0.0
H1268 H 0.54452 0.07777 0.83132 0.0
C1269 C 0.52325 0.17054 0.82976 0.0
H1270 H 0.54493 0.10556 0.77697 0.0
C1271 C 0.52286 0.15475 0.86072 0.0
C1272 C 0.53029 0.121 0.86214 0.0
H1273 H 0.51678 0.19632 0.82973 0.0
H1274 H 0.51608 0.16905 0.88363 0.0
C1275 C 0.53889 0.10375 0.8314 0.0
C1276 C 0.72599 0.53961 0.6442 0.0
C1277 C 0.72292 0.52164 0.67405 0.0
H1278 H 0.69834 0.55994 0.6042 0.0
C1279 C 0.68853 0.50819 0.68503 0.0
H1280 H 0.75221 0.55002 0.63498 0.0
C1281 C 0.65782 0.5131 0.66696 0.0
C1282 C 0.66064 0.53221 0.63784 0.0
H1283 H 0.68532 0.49434 0.70799 0.0
H1284 H 0.63164 0.50288 0.6765 0.0
C1285 C 0.69516 0.54521 0.62655 0.0
C1286 C 0.34393 0.99199 0.68656 0.0
C1287 C 0.30682 0.99156 0.68128 0.0
H1288 H 0.39745 0.98668 0.6652 0.0
C1289 C 0.29555 0.98676 0.64782 0.0
H1290 H 0.35344 0.99573 0.71191 0.0
C1291 C 0.32106 0.98147 0.62039 0.0
C1292 C 0.35827 0.98072 0.62604 0.0
H1293 H 0.26698 0.98633 0.64305 0.0
H1294 H 0.31157 0.9768 0.59516 0.0
C1295 C 0.36912 0.98672 0.65954 0.0
C1296 C 0.70986 0.53013 0.88704 0.0
C1297 C 0.73542 0.5062 0.87935 0.0
H1298 H 0.66354 0.54392 0.91828 0.0
C1299 C 0.73671 0.47987 0.90153 0.0
H1300 H 0.7077 0.55053 0.87047 0.0
C1301 C 0.71164 0.47645 0.92932 0.0
C1302 C 0.68484 0.49933 0.93562 0.0
H1303 H 0.75626 0.46117 0.89669 0.0
H1304 H 0.71164 0.4547 0.94447 0.0
C1305 C 0.68468 0.52653 0.91463 0.0
C1306 C 0.35871 0.06093 0.90202 0.0
C1307 C 0.3555 0.03118 0.88238 0.0
H1308 H 0.39169 0.09233 0.93445 0.0
C1309 C 0.38292 1.00872 0.88301 0.0
H1310 H 0.33774 0.0785 0.90263 0.0
C1311 C 0.41353 0.01645 0.90156 0.0
C1312 C 0.41759 0.04689 0.91986 0.0
H1313 H 0.38157 0.98573 0.868 0.0
H1314 H 0.43467 0.999 0.90047 0.0
C1315 C 0.38946 0.06873 0.92055 0.0
C1316 C 0.64611 0.753 0.53779 0.0
C1317 C 0.67677 0.75849 0.51562 0.0
H1318 H 0.61057 0.71698 0.56343 0.0
C1319 C 0.69063 0.73151 0.49713 0.0
H1320 H 0.63424 0.77368 0.55158 0.0
C1321 C 0.67626 0.69939 0.5028 0.0
C1322 C 0.6484 0.69324 0.52796 0.0
H1323 H 0.71371 0.73512 0.47933 0.0
H1324 H 0.68824 0.67928 0.48828 0.0
C1325 C 0.63237 0.72058 0.54436 0.0
C1326 C 0.65811 0.33215 0.9765 0.0
C1327 C 0.67821 0.32799 1.00519 0.0
H1328 H 0.62287 0.36233 0.95133 0.0
C1329 C 0.6755 0.3519 0.03195 0.0
H1330 H 0.65877 0.31414 0.95554 0.0
C1331 C 0.65451 0.3795 0.02962 0.0
C1332 C 0.63544 0.38417 1.00047 0.0
H1333 H 0.69069 0.35003 0.05433 0.0
H1334 H 0.65408 0.39772 0.05042 0.0
C1335 C 0.63714 0.35977 0.97416 0.0
C1336 C 0.41759 0.26203 0.97894 0.0
C1337 C 0.3955 0.26821 1.00847 0.0
H1338 H 0.45483 0.22971 0.95283 0.0
C1339 C 0.39349 0.24471 0.03393 0.0
H1340 H 0.42043 0.27958 0.95889 0.0
C1341 C 0.41383 0.21669 0.03056 0.0
C1342 C 0.43608 0.21091 1.00137 0.0
H1343 H 0.37612 0.24777 0.05657 0.0
H1344 H 0.41237 0.19945 0.05091 0.0
C1345 C 0.43736 0.23348 0.97531 0.0
C1346 C 0.86781 0.34618 0.02588 0.0
C1347 C 0.87859 0.31599 0.03678 0.0
H1348 H 0.87922 0.39838 0.02361 0.0
C1349 C 0.91 0.31571 0.05533 0.0
H1350 H 0.84352 0.34703 1.0119 0.0
C1351 C 0.93028 0.34543 0.06285 0.0
C1352 C 0.91977 0.37555 0.05114 0.0
H1353 H 0.91872 0.29255 0.06399 0.0
H1354 H 0.95446 0.34477 0.07699 0.0
C1355 C 0.88828 0.37552 0.0327 0.0
loop_
_geom_bond_atom_site_label_1
_geom_bond_atom_site_label_2
_geom_bond_distance
_geom_bond_site_symmetry_2
_ccdc_geom_bond_type
C0 C1 1.443 . S
C0 N4 1.376 . S
C0 C38 1.389 1_655 S
C1 C0 1.443 . S
C1 C2 1.340 . S
C1 H41 0.951 . S
C2 C1 1.340 . S
C2 C3 1.439 . S
C2 H42 0.950 . S
C3 C2 1.439 . S
C3 N4 1.374 . S
C3 C37 1.395 . S
N4 C0 1.376 . S
N4 C3 1.374 . S
N4 Co5 2.008 1_655 S
Co5 N4 2.008 1_455 S
Co5 N6 1.995 . S
Co5 N11 2.008 . S
Co5 N16 1.995 . S
Co5 N21 2.282 . S
Co5 N27 2.282 . S
N6 Co5 1.995 . S
N6 C7 1.376 1_455 S
N6 C10 1.383 . S
C7 N6 1.376 1_655 S
C7 C8 1.446 . S
C7 C37 1.391 . S
C8 C7 1.446 . S
C8 C9 1.339 . S
C8 H43 0.949 . S
C9 C8 1.339 . S
C9 C10 1.439 1_655 S
C9 H44 0.950 . S
C10 N6 1.383 . S
C10 C9 1.439 1_455 S
C10 C39 1.392 . S
N11 Co5 2.008 . S
N11 C12 1.376 . S
N11 C15 1.374 . S
C12 N11 1.376 . S
C12 C13 1.443 . S
C12 C39 1.389 . S
C13 C12 1.443 . S
C13 C14 1.340 . S
C13 H45 0.951 . S
C14 C13 1.340 . S
C14 C15 1.439 . S
C14 H46 0.950 . S
C15 N11 1.374 . S
C15 C14 1.439 . S
C15 C40 1.395 . S
N16 Co5 1.995 . S
N16 C17 1.376 . S
N16 C20 1.383 . S
C17 N16 1.376 . S
C17 C18 1.446 . S
C17 C40 1.391 . S
C18 C17 1.446 . S
C18 C19 1.339 . S
C18 H47 0.949 . S
C19 C18 1.339 . S
C19 C20 1.439 . S
C19 H48 0.950 . S
C20 N16 1.383 . S
C20 C19 1.439 . S
C20 C38 1.392 . S
N21 Co5 2.282 . S
N21 C24 1.332 . S
N21 C26 1.332 . S
C22 C23 1.386 . S
C22 C25 1.388 . S
C23 C22 1.386 . S
C23 C24 1.382 . S
C23 H49 0.950 . S
C24 N21 1.332 . S
C24 C23 1.382 . S
C24 H35 0.952 . S
C25 C22 1.388 . S
C25 C26 1.382 . S
C25 H50 0.950 . S
C26 N21 1.332 . S
C26 C25 1.382 . S
C26 H36 0.948 1_455 S
N27 Co5 2.282 . S
N27 C31 1.332 1_455 S
N27 C32 1.332 . S
C28 C29 1.388 . S
C28 C32 1.382 . S
C28 H51 0.950 . S
C29 C28 1.388 . S
C29 C30 1.386 1_455 S
C30 C29 1.386 1_655 S
C30 C31 1.382 . S
C30 H52 0.950 . S
C31 N27 1.332 1_655 S
C31 C30 1.382 . S
C31 H33 0.952 . S
C32 N27 1.332 . S
C32 C28 1.382 . S
C32 H34 0.948 . S
H33 C31 0.952 . S
H34 C32 0.948 . S
H35 C24 0.952 . S
H36 C26 0.948 1_655 S
C37 C3 1.395 . S
C37 C7 1.391 . S
C38 C0 1.389 1_455 S
C38 C20 1.392 . S
C39 C10 1.392 . S
C39 C12 1.389 . S
C40 C15 1.395 . S
C40 C17 1.391 . S
H41 C1 0.951 . S
H42 C2 0.950 . S
H43 C8 0.949 . S
H44 C9 0.950 . S
H45 C13 0.951 . S
H46 C14 0.950 . S
H47 C18 0.949 . S
H48 C19 0.950 . S
H49 C23 0.950 . S
H50 C25 0.950 . S
H51 C28 0.950 . S
H52 C30 0.950 . S
C53 C54 1.443 . S
C53 N57 1.376 . S
C53 C91 1.389 . S
C54 C53 1.443 . S
C54 C55 1.340 . S
C54 H94 0.951 . S
C55 C54 1.340 . S
C55 C56 1.439 . S
C55 H95 0.950 . S
C56 C55 1.439 . S
C56 N57 1.374 . S
C56 C90 1.395 . S
N57 C53 1.376 . S
N57 C56 1.374 . S
N57 Co58 2.008 1_655 S
Co58 N57 2.008 1_455 S
Co58 N59 1.995 1_455 S
Co58 N64 2.008 . S
Co58 N69 1.995 . S
Co58 N74 2.282 . S
Co58 N80 2.282 . S
N59 Co58 1.995 1_655 S
N59 C60 1.376 . S
N59 C63 1.383 . S
C60 N59 1.376 . S
C60 C61 1.446 . S
C60 C90 1.391 . S
C61 C60 1.446 . S
C61 C62 1.339 . S
C61 H96 0.949 . S
C62 C61 1.339 . S
C62 C63 1.439 . S
C62 H97 0.950 . S
C63 N59 1.383 . S
C63 C62 1.439 . S
C63 C92 1.392 1_655 S
N64 Co58 2.008 . S
N64 C65 1.376 . S
N64 C68 1.374 . S
C65 N64 1.376 . S
C65 C66 1.443 . S
C65 C92 1.389 . S
C66 C65 1.443 . S
C66 C67 1.340 . S
C66 H98 0.951 . S
C67 C66 1.340 . S
C67 C68 1.439 . S
C67 H99 0.950 . S
C68 N64 1.374 . S
C68 C67 1.439 . S
C68 C93 1.395 . S
N69 Co58 1.995 . S
N69 C70 1.376 . S
N69 C73 1.383 . S
C70 N69 1.376 . S
C70 C71 1.446 . S
C70 C93 1.391 . S
C71 C70 1.446 . S
C71 C72 1.339 . S
C71 H100 0.949 . S
C72 C71 1.339 . S
C72 C73 1.439 . S
C72 H101 0.950 . S
C73 N69 1.383 . S
C73 C72 1.439 . S
C73 C91 1.392 1_455 S
N74 Co58 2.282 . S
N74 C77 1.332 . S
N74 C79 1.332 1_455 S
C75 C76 1.386 . S
C75 C78 1.388 1_455 S
C76 C75 1.386 . S
C76 C77 1.382 . S
C76 H102 0.950 . S
C77 N74 1.332 . S
C77 C76 1.382 . S
C77 H88 0.952 . S
C78 C75 1.388 1_655 S
C78 C79 1.382 . S
C78 H103 0.950 . S
C79 N74 1.332 1_655 S
C79 C78 1.382 . S
C79 H89 0.948 . S
N80 Co58 2.282 . S
N80 C84 1.332 1_455 S
N80 C85 1.332 . S
C81 C82 1.388 1_455 S
C81 C85 1.382 . S
C81 H104 0.950 . S
C82 C81 1.388 1_655 S
C82 C83 1.386 . S
C83 C82 1.386 . S
C83 C84 1.382 . S
C83 H105 0.950 . S
C84 N80 1.332 1_655 S
C84 C83 1.382 . S
C84 H86 0.952 . S
C85 N80 1.332 . S
C85 C81 1.382 . S
C85 H87 0.948 . S
H86 C84 0.952 . S
H87 C85 0.948 . S
H88 C77 0.952 . S
H89 C79 0.948 . S
C90 C56 1.395 . S
C90 C60 1.391 . S
C91 C53 1.389 . S
C91 C73 1.392 1_655 S
C92 C63 1.392 1_455 S
C92 C65 1.389 . S
C93 C68 1.395 . S
C93 C70 1.391 . S
H94 C54 0.951 . S
H95 C55 0.950 . S
H96 C61 0.949 . S
H97 C62 0.950 . S
H98 C66 0.951 . S
H99 C67 0.950 . S
H100 C71 0.949 . S
H101 C72 0.950 . S
H102 C76 0.950 . S
H103 C78 0.950 . S
H104 C81 0.950 . S
H105 C83 0.950 . S
C106 C107 1.443 . S
C106 N110 1.376 . S
C106 C144 1.389 . S
C107 C106 1.443 . S
C107 C108 1.340 . S
C107 H147 0.951 . S
C108 C107 1.340 . S
C108 C109 1.439 . S
C108 H148 0.950 . S
C109 C108 1.439 . S
C109 N110 1.374 . S
C109 C143 1.395 . S
N110 C106 1.376 . S
N110 C109 1.374 . S
N110 Co111 2.008 1_565 S
Co111 N110 2.008 1_545 S
Co111 N112 1.995 1_545 S
Co111 N117 2.008 . S
Co111 N122 1.995 . S
Co111 N127 2.282 . S
Co111 N133 2.282 . S
N112 Co111 1.995 1_565 S
N112 C113 1.376 . S
N112 C116 1.383 1_565 S
C113 N112 1.376 . S
C113 C114 1.446 . S
C113 C143 1.391 . S
C114 C113 1.446 . S
C114 C115 1.339 . S
C114 H149 0.949 . S
C115 C114 1.339 . S
C115 C116 1.439 1_565 S
C115 H150 0.950 . S
C116 N112 1.383 1_545 S
C116 C115 1.439 1_545 S
C116 C145 1.392 . S
N117 Co111 2.008 . S
N117 C118 1.376 . S
N117 C121 1.374 . S
C118 N117 1.376 . S
C118 C119 1.443 . S
C118 C145 1.389 . S
C119 C118 1.443 . S
C119 C120 1.340 . S
C119 H151 0.951 . S
C120 C119 1.340 . S
C120 C121 1.439 . S
C120 H152 0.950 . S
C121 N117 1.374 . S
C121 C120 1.439 . S
C121 C146 1.395 . S
N122 Co111 1.995 . S
N122 C123 1.376 . S
N122 C126 1.383 . S
C123 N122 1.376 . S
C123 C124 1.446 . S
C123 C146 1.391 . S
C124 C123 1.446 . S
C124 C125 1.339 . S
C124 H153 0.949 . S
C125 C124 1.339 . S
C125 C126 1.439 . S
C125 H154 0.950 . S
C126 N122 1.383 . S
C126 C125 1.439 . S
C126 C144 1.392 1_545 S
N127 Co111 2.282 . S
N127 C130 1.332 . S
N127 C132 1.332 . S
C128 C129 1.386 . S
C128 C131 1.388 . S
C129 C128 1.386 . S
C129 C130 1.382 . S
C129 H155 0.950 . S
C130 N127 1.332 . S
C130 C129 1.382 . S
C130 H141 0.952 . S
C131 C128 1.388 . S
C131 C132 1.382 . S
C131 H156 0.929 1_545 S
C132 N127 1.332 . S
C132 C131 1.382 . S
C132 H142 0.948 1_545 S
N133 Co111 2.282 . S
N133 C137 1.332 1_545 S
N133 C138 1.332 . S
C134 C135 1.388 1_545 S
C134 C138 1.382 . S
C134 H157 0.950 . S
C135 C134 1.388 1_565 S
C135 C136 1.386 . S
C136 C135 1.386 . S
C136 C137 1.382 . S
C136 H158 0.950 . S
C137 N133 1.332 1_565 S
C137 C136 1.382 . S
C137 H139 0.952 . S
C138 N133 1.332 . S
C138 C134 1.382 . S
C138 H140 0.948 . S
H139 C137 0.952 . S
H140 C138 0.948 . S
H141 C130 0.952 . S
H142 C132 0.948 1_565 S
C143 C109 1.395 . S
C143 C113 1.391 . S
C144 C106 1.389 . S
C144 C126 1.392 1_565 S
C145 C116 1.392 . S
C145 C118 1.389 . S
C146 C121 1.395 . S
C146 C123 1.391 . S
H147 C107 0.951 . S
H148 C108 0.950 . S
H149 C114 0.949 . S
H150 C115 0.950 . S
H151 C119 0.951 . S
H152 C120 0.950 . S
H153 C124 0.949 . S
H154 C125 0.950 . S
H155 C129 0.950 . S
H156 C131 0.929 1_565 S
H157 C134 0.950 . S
H158 C136 0.950 . S
C159 C160 1.443 . S
C159 N163 1.376 . S
C159 C197 1.389 . S
C160 C159 1.443 . S
C160 C161 1.340 . S
C160 H200 0.951 . S
C161 C160 1.340 . S
C161 C162 1.439 . S
C161 H201 0.950 . S
C162 C161 1.439 . S
C162 N163 1.374 . S
C162 C196 1.395 . S
N163 C159 1.376 . S
N163 C162 1.374 . S
N163 Co164 2.008 . S
Co164 N163 2.008 . S
Co164 N165 1.995 . S
Co164 N170 2.008 . S
Co164 N175 1.995 . S
Co164 N180 2.282 . S
Co164 N186 2.282 . S
N165 Co164 1.995 . S
N165 C166 1.376 . S
N165 C169 1.383 . S
C166 N165 1.376 . S
C166 C167 1.446 . S
C166 C196 1.391 . S
C167 C166 1.446 . S
C167 C168 1.339 . S
C167 H202 0.949 . S
C168 C167 1.339 . S
C168 C169 1.439 . S
C168 H203 0.950 . S
C169 N165 1.383 . S
C169 C168 1.439 . S
C169 C198 1.392 . S
N170 Co164 2.008 . S
N170 C171 1.376 . S
N170 C174 1.374 . S
C171 N170 1.376 . S
C171 C172 1.443 . S
C171 C198 1.389 . S
C172 C171 1.443 . S
C172 C173 1.340 . S
C172 H204 0.951 . S
C173 C172 1.340 . S
C173 C174 1.439 . S
C173 H205 0.950 . S
C174 N170 1.374 . S
C174 C173 1.439 . S
C174 C199 1.395 . S
N175 Co164 1.995 . S
N175 C176 1.376 . S
N175 C179 1.383 . S
C176 N175 1.376 . S
C176 C177 1.446 . S
C176 C199 1.391 . S
C177 C176 1.446 . S
C177 C178 1.339 . S
C177 H206 0.949 . S
C178 C177 1.339 . S
C178 C179 1.439 . S
C178 H207 0.950 . S
C179 N175 1.383 . S
C179 C178 1.439 . S
C179 C197 1.392 . S
N180 Co164 2.282 . S
N180 C183 1.332 . S
N180 C185 1.332 . S
C181 C182 1.386 . S
C181 C184 1.388 . S
C182 C181 1.386 . S
C182 C183 1.382 . S
C182 H208 0.950 . S
C183 N180 1.332 . S
C183 C182 1.382 . S
C183 H194 0.952 . S
C184 C181 1.388 . S
C184 C185 1.382 . S
C184 H209 0.950 . S
C185 N180 1.332 . S
C185 C184 1.382 . S
C185 H195 0.948 . S
N186 Co164 2.282 . S
N186 C190 1.332 . S
N186 C191 1.332 . S
C187 C188 1.388 . S
C187 C191 1.382 . S
C187 H210 0.950 . S
C188 C187 1.388 . S
C188 C189 1.386 . S
C189 C188 1.386 . S
C189 C190 1.382 . S
C189 H211 0.950 . S
C190 N186 1.332 . S
C190 C189 1.382 . S
C190 H192 0.952 . S
C191 N186 1.332 . S
C191 C187 1.382 . S
C191 H193 0.948 . S
H192 C190 0.952 . S
H193 C191 0.948 . S
H194 C183 0.952 . S
H195 C185 0.948 . S
C196 C162 1.395 . S
C196 C166 1.391 . S
C197 C159 1.389 . S
C197 C179 1.392 . S
C198 C169 1.392 . S
C198 C171 1.389 . S
C199 C174 1.395 . S
C199 C176 1.391 . S
H200 C160 0.951 . S
H201 C161 0.950 . S
H202 C167 0.949 . S
H203 C168 0.950 . S
H204 C172 0.951 . S
H205 C173 0.950 . S
H206 C177 0.949 . S
H207 C178 0.950 . S
H208 C182 0.950 . S
H209 C184 0.950 . S
H210 C187 0.950 . S
H211 C189 0.950 . S
C212 C213 1.443 . S
C212 N216 1.376 . S
C212 C250 1.389 1_556 S
C213 C212 1.443 . S
C213 C214 1.340 . S
C213 H253 0.951 . S
C214 C213 1.340 . S
C214 C215 1.439 . S
C214 H254 0.950 . S
C215 C214 1.439 . S
C215 N216 1.374 . S
C215 C249 1.395 . S
N216 C212 1.376 . S
N216 C215 1.374 . S
N216 Co217 2.008 1_556 S
Co217 N216 2.008 1_554 S
Co217 N218 1.995 1_554 S
Co217 N223 2.008 . S
Co217 N228 1.995 . S
Co217 N233 2.282 . S
Co217 N239 2.282 . S
N218 Co217 1.995 1_556 S
N218 C219 1.376 . S
N218 C222 1.383 . S
C219 N218 1.376 . S
C219 C220 1.446 . S
C219 C249 1.391 . S
C220 C219 1.446 . S
C220 C221 1.339 . S
C220 H255 0.949 . S
C221 C220 1.339 . S
C221 C222 1.439 . S
C221 H256 0.950 . S
C222 N218 1.383 . S
C222 C221 1.439 . S
C222 C251 1.392 1_556 S
N223 Co217 2.008 . S
N223 C224 1.376 . S
N223 C227 1.374 . S
C224 N223 1.376 . S
C224 C225 1.443 . S
C224 C251 1.389 . S
C225 C224 1.443 . S
C225 C226 1.340 . S
C225 H257 0.951 . S
C226 C225 1.340 . S
C226 C227 1.439 . S
C226 H258 0.950 . S
C227 N223 1.374 . S
C227 C226 1.439 . S
C227 C252 1.395 . S
N228 Co217 1.995 . S
N228 C229 1.376 . S
N228 C232 1.383 . S
C229 N228 1.376 . S
C229 C230 1.446 . S
C229 C252 1.391 . S
C230 C229 1.446 . S
C230 C231 1.339 . S
C230 H259 0.949 . S
C231 C230 1.339 . S
C231 C232 1.439 . S
C231 H260 0.950 . S
C232 N228 1.383 . S
C232 C231 1.439 . S
C232 C250 1.392 . S
N233 Co217 2.282 . S
N233 C236 1.332 . S
N233 C238 1.332 . S
C234 C235 1.386 . S
C234 C237 1.388 . S
C235 C234 1.386 . S
C235 C236 1.382 . S
C235 H261 0.950 . S
C236 N233 1.332 . S
C236 C235 1.382 . S
C236 H247 0.952 . S
C237 C234 1.388 . S
C237 C238 1.382 . S
C237 H262 0.950 1_554 S
C238 N233 1.332 . S
C238 C237 1.382 . S
C238 H248 0.948 1_554 S
N239 Co217 2.282 . S
N239 C243 1.332 1_554 S
N239 C244 1.332 . S
C240 C241 1.388 1_554 S
C240 C244 1.382 . S
C240 H263 0.950 . S
C241 C240 1.388 1_556 S
C241 C242 1.386 . S
C242 C241 1.386 . S
C242 C243 1.382 . S
C242 H264 0.950 . S
C243 N239 1.332 1_556 S
C243 C242 1.382 . S
C243 H245 0.952 . S
C244 N239 1.332 . S
C244 C240 1.382 . S
C244 H246 0.948 . S
H245 C243 0.952 . S
H246 C244 0.948 . S
H247 C236 0.952 . S
H248 C238 0.948 1_556 S
C249 C215 1.395 . S
C249 C219 1.391 . S
C250 C212 1.389 1_554 S
C250 C232 1.392 . S
C251 C222 1.392 1_554 S
C251 C224 1.389 . S
C252 C227 1.395 . S
C252 C229 1.391 . S
H253 C213 0.951 . S
H254 C214 0.950 . S
H255 C220 0.949 . S
H256 C221 0.950 . S
H257 C225 0.951 . S
H258 C226 0.950 . S
H259 C230 0.949 . S
H260 C231 0.950 . S
H261 C235 0.950 . S
H262 C237 0.950 1_556 S
H263 C240 0.950 . S
H264 C242 0.950 . S
C265 C266 1.443 . S
C265 N269 1.376 . S
C265 C303 1.389 . S
C266 C265 1.443 . S
C266 C267 1.340 . S
C266 H306 0.951 . S
C267 C266 1.340 . S
C267 C268 1.439 . S
C267 H307 0.950 . S
C268 C267 1.439 . S
C268 N269 1.374 . S
C268 C302 1.395 . S
N269 C265 1.376 . S
N269 C268 1.374 . S
N269 Co270 2.008 . S
Co270 N269 2.008 . S
Co270 N271 1.995 . S
Co270 N276 2.008 . S
Co270 N281 1.995 . S
Co270 N286 2.282 . S
Co270 N292 2.282 . S
N271 Co270 1.995 . S
N271 C272 1.376 . S
N271 C275 1.383 . S
C272 N271 1.376 . S
C272 C273 1.446 . S
C272 C302 1.391 . S
C273 C272 1.446 . S
C273 C274 1.339 . S
C273 H308 0.949 . S
C274 C273 1.339 . S
C274 C275 1.439 . S
C274 H309 0.950 . S
C275 N271 1.383 . S
C275 C274 1.439 . S
C275 C304 1.392 . S
N276 Co270 2.008 . S
N276 C277 1.376 . S
N276 C280 1.374 . S
C277 N276 1.376 . S
C277 C278 1.443 . S
C277 C304 1.389 . S
C278 C277 1.443 . S
C278 C279 1.340 . S
C278 H310 0.951 . S
C279 C278 1.340 . S
C279 C280 1.439 . S
C279 H311 0.950 . S
C280 N276 1.374 . S
C280 C279 1.439 . S
C280 C305 1.395 . S
N281 Co270 1.995 . S
N281 C282 1.376 . S
N281 C285 1.383 . S
C282 N281 1.376 . S
C282 C283 1.446 . S
C282 C305 1.391 . S
C283 C282 1.446 . S
C283 C284 1.339 . S
C283 H312 0.949 . S
C284 C283 1.339 . S
C284 C285 1.439 . S
C284 H313 0.950 . S
C285 N281 1.383 . S
C285 C284 1.439 . S
C285 C303 1.392 . S
N286 Co270 2.282 . S
N286 C289 1.332 . S
N286 C291 1.332 . S
C287 C288 1.386 . S
C287 C290 1.388 . S
C288 C287 1.386 . S
C288 C289 1.382 . S
C288 H314 0.950 . S
C289 N286 1.332 . S
C289 C288 1.382 . S
C289 H300 0.952 . S
C290 C287 1.388 . S
C290 C291 1.382 . S
C290 H315 0.950 . S
C291 N286 1.332 . S
C291 C290 1.382 . S
C291 H301 0.948 . S
N292 Co270 2.282 . S
N292 C296 1.332 . S
N292 C297 1.332 . S
C293 C294 1.388 . S
C293 C297 1.382 . S
C293 H316 0.950 . S
C294 C293 1.388 . S
C294 C295 1.386 . S
C295 C294 1.386 . S
C295 C296 1.382 . S
C295 H317 0.950 . S
C296 N292 1.332 . S
C296 C295 1.382 . S
C296 H298 0.952 . S
C297 N292 1.332 . S
C297 C293 1.382 . S
C297 H299 0.948 . S
H298 C296 0.952 . S
H299 C297 0.948 . S
H300 C289 0.952 . S
H301 C291 0.948 . S
C302 C268 1.395 . S
C302 C272 1.391 . S
C303 C265 1.389 . S
C303 C285 1.392 . S
C304 C275 1.392 . S
C304 C277 1.389 . S
C305 C280 1.395 . S
C305 C282 1.391 . S
H306 C266 0.951 . S
H307 C267 0.950 . S
H308 C273 0.949 . S
H309 C274 0.950 . S
H310 C278 0.951 . S
H311 C279 0.950 . S
H312 C283 0.949 . S
H313 C284 0.950 . S
H314 C288 0.950 . S
H315 C290 0.950 . S
H316 C293 0.950 . S
H317 C295 0.950 . S
C318 C319 1.443 . S
C318 N322 1.376 . S
C318 C356 1.389 . S
C319 C318 1.443 . S
C319 C320 1.340 . S
C319 H359 0.951 . S
C320 C319 1.340 . S
C320 C321 1.439 . S
C320 H360 0.950 . S
C321 C320 1.439 . S
C321 N322 1.374 . S
C321 C355 1.395 . S
N322 C318 1.376 . S
N322 C321 1.374 . S
N322 Co323 2.008 . S
Co323 N322 2.008 . S
Co323 N324 1.995 . S
Co323 N329 2.008 . S
Co323 N334 1.995 . S
Co323 N339 2.282 . S
Co323 N345 2.282 . S
N324 Co323 1.995 . S
N324 C325 1.376 . S
N324 C328 1.383 . S
C325 N324 1.376 . S
C325 C326 1.446 . S
C325 C355 1.391 . S
C326 C325 1.446 . S
C326 C327 1.339 . S
C326 H361 0.949 . S
C327 C326 1.339 . S
C327 C328 1.439 . S
C327 H362 0.950 . S
C328 N324 1.383 . S
C328 C327 1.439 . S
C328 C357 1.392 . S
N329 Co323 2.008 . S
N329 C330 1.376 . S
N329 C333 1.374 . S
C330 N329 1.376 . S
C330 C331 1.443 . S
C330 C357 1.389 . S
C331 C330 1.443 . S
C331 C332 1.340 . S
C331 H363 0.951 . S
C332 C331 1.340 . S
C332 C333 1.439 . S
C332 H364 0.950 . S
C333 N329 1.374 . S
C333 C332 1.439 . S
C333 C358 1.395 . S
N334 Co323 1.995 . S
N334 C335 1.376 . S
N334 C338 1.383 . S
C335 N334 1.376 . S
C335 C336 1.446 . S
C335 C358 1.391 . S
C336 C335 1.446 . S
C336 C337 1.339 . S
C336 H365 0.949 . S
C337 C336 1.339 . S
C337 C338 1.439 . S
C337 H366 0.950 . S
C338 N334 1.383 . S
C338 C337 1.439 . S
C338 C356 1.392 . S
N339 Co323 2.282 . S
N339 C342 1.332 . S
N339 C344 1.332 . S
C340 C341 1.386 . S
C340 C343 1.388 . S
C341 C340 1.386 . S
C341 C342 1.382 . S
C341 H367 0.950 . S
C342 N339 1.332 . S
C342 C341 1.382 . S
C342 H353 0.952 . S
C343 C340 1.388 . S
C343 C344 1.382 . S
C343 H368 0.950 . S
C344 N339 1.332 . S
C344 C343 1.382 . S
C344 H354 0.948 . S
N345 Co323 2.282 . S
N345 C349 1.332 . S
N345 C350 1.332 . S
C346 C347 1.388 . S
C346 C350 1.382 . S
C346 H369 0.950 . S
C347 C346 1.388 . S
C347 C348 1.386 . S
C348 C347 1.386 . S
C348 C349 1.382 . S
C348 H370 0.950 . S
C349 N345 1.332 . S
C349 C348 1.382 . S
C349 H351 0.952 . S
C350 N345 1.332 . S
C350 C346 1.382 . S
C350 H352 0.948 . S
H351 C349 0.952 . S
H352 C350 0.948 . S
H353 C342 0.952 . S
H354 C344 0.948 . S
C355 C321 1.395 . S
C355 C325 1.391 . S
C356 C318 1.389 . S
C356 C338 1.392 . S
C357 C328 1.392 . S
C357 C330 1.389 . S
C358 C333 1.395 . S
C358 C335 1.391 . S
H359 C319 0.951 . S
H360 C320 0.950 . S
H361 C326 0.949 . S
H362 C327 0.950 . S
H363 C331 0.951 . S
H364 C332 0.950 . S
H365 C336 0.949 . S
H366 C337 0.950 . S
H367 C341 0.950 . S
H368 C343 0.950 . S
H369 C346 0.950 . S
H370 C348 0.950 . S
C371 C372 1.443 . S
C371 N375 1.376 . S
C371 C409 1.389 . S
C372 C371 1.443 . S
C372 C373 1.340 . S
C372 H412 0.951 . S
C373 C372 1.340 . S
C373 C374 1.439 . S
C373 H413 0.950 . S
C374 C373 1.439 . S
C374 N375 1.374 . S
C374 C408 1.395 . S
N375 C371 1.376 . S
N375 C374 1.374 . S
N375 Co376 2.008 . S
Co376 N375 2.008 . S
Co376 N377 1.995 . S
Co376 N382 2.008 . S
Co376 N387 1.995 . S
Co376 N392 2.282 . S
Co376 N398 2.282 . S
N377 Co376 1.995 . S
N377 C378 1.376 . S
N377 C381 1.383 . S
C378 N377 1.376 . S
C378 C379 1.446 . S
C378 C408 1.391 . S
C379 C378 1.446 . S
C379 C380 1.339 . S
C379 H414 0.949 . S
C380 C379 1.339 . S
C380 C381 1.439 . S
C380 H415 0.950 . S
C381 N377 1.383 . S
C381 C380 1.439 . S
C381 C410 1.392 . S
N382 Co376 2.008 . S
N382 C383 1.376 . S
N382 C386 1.374 . S
C383 N382 1.376 . S
C383 C384 1.443 . S
C383 C410 1.389 . S
C384 C383 1.443 . S
C384 C385 1.340 . S
C384 H416 0.951 . S
C385 C384 1.340 . S
C385 C386 1.439 . S
C385 H417 0.950 . S
C386 N382 1.374 . S
C386 C385 1.439 . S
C386 C411 1.395 . S
N387 Co376 1.995 . S
N387 C388 1.376 . S
N387 C391 1.383 . S
C388 N387 1.376 . S
C388 C389 1.446 . S
C388 C411 1.391 . S
C389 C388 1.446 . S
C389 C390 1.339 . S
C389 H418 0.949 . S
C390 C389 1.339 . S
C390 C391 1.439 . S
C390 H419 0.950 . S
C391 N387 1.383 . S
C391 C390 1.439 . S
C391 C409 1.392 . S
N392 Co376 2.282 . S
N392 C395 1.332 . S
N392 C397 1.332 . S
C393 C394 1.386 . S
C393 C396 1.388 . S
C394 C393 1.386 . S
C394 C395 1.382 . S
C394 H420 0.950 . S
C395 N392 1.332 . S
C395 C394 1.382 . S
C395 H406 0.952 . S
C396 C393 1.388 . S
C396 C397 1.382 . S
C396 H421 0.950 . S
C397 N392 1.332 . S
C397 C396 1.382 . S
C397 H407 0.948 . S
N398 Co376 2.282 . S
N398 C402 1.332 . S
N398 C403 1.332 . S
C399 C400 1.388 . S
C399 C403 1.382 . S
C399 H422 0.950 . S
C400 C399 1.388 . S
C400 C401 1.386 . S
C401 C400 1.386 . S
C401 C402 1.382 . S
C401 H423 0.950 . S
C402 N398 1.332 . S
C402 C401 1.382 . S
C402 H404 0.952 . S
C403 N398 1.332 . S
C403 C399 1.382 . S
C403 H405 0.948 . S
H404 C402 0.952 . S
H405 C403 0.948 . S
H406 C395 0.952 . S
H407 C397 0.948 . S
C408 C374 1.395 . S
C408 C378 1.391 . S
C409 C371 1.389 . S
C409 C391 1.392 . S
C410 C381 1.392 . S
C410 C383 1.389 . S
C411 C386 1.395 . S
C411 C388 1.391 . S
H412 C372 0.951 . S
H413 C373 0.950 . S
H414 C379 0.949 . S
H415 C380 0.950 . S
H416 C384 0.951 . S
H417 C385 0.950 . S
H418 C389 0.949 . S
H419 C390 0.950 . S
H420 C394 0.950 . S
H421 C396 0.950 . S
H422 C399 0.950 . S
H423 C401 0.950 . S
C424 C425 1.443 . S
C424 N428 1.376 . S
C424 C462 1.389 . S
C425 C424 1.443 . S
C425 C426 1.340 . S
C425 H465 0.951 . S
C426 C425 1.340 . S
C426 C427 1.439 . S
C426 H466 0.950 . S
C427 C426 1.439 . S
C427 N428 1.374 . S
C427 C461 1.395 . S
N428 C424 1.376 . S
N428 C427 1.374 . S
N428 Co429 2.008 . S
Co429 N428 2.008 . S
Co429 N430 1.995 . S
Co429 N435 2.008 . S
Co429 N440 1.995 . S
Co429 N445 2.282 . S
Co429 N451 2.282 . S
N430 Co429 1.995 . S
N430 C431 1.376 . S
N430 C434 1.383 . S
C431 N430 1.376 . S
C431 C432 1.446 . S
C431 C461 1.391 . S
C432 C431 1.446 . S
C432 C433 1.339 . S
C432 H467 0.949 . S
C433 C432 1.339 . S
C433 C434 1.439 . S
C433 H468 0.950 . S
C434 N430 1.383 . S
C434 C433 1.439 . S
C434 C463 1.392 . S
N435 Co429 2.008 . S
N435 C436 1.376 . S
N435 C439 1.374 . S
C436 N435 1.376 . S
C436 C437 1.443 . S
C436 C463 1.389 . S
C437 C436 1.443 . S
C437 C438 1.340 . S
C437 H469 0.951 . S
C438 C437 1.340 . S
C438 C439 1.439 . S
C438 H470 0.950 . S
C439 N435 1.374 . S
C439 C438 1.439 . S
C439 C464 1.395 . S
N440 Co429 1.995 . S
N440 C441 1.376 . S
N440 C444 1.383 . S
C441 N440 1.376 . S
C441 C442 1.446 . S
C441 C464 1.391 . S
C442 C441 1.446 . S
C442 C443 1.339 . S
C442 H471 0.949 . S
C443 C442 1.339 . S
C443 C444 1.439 . S
C443 H472 0.950 . S
C444 N440 1.383 . S
C444 C443 1.439 . S
C444 C462 1.392 . S
N445 Co429 2.282 . S
N445 C448 1.332 . S
N445 C450 1.332 . S
C446 C447 1.386 . S
C446 C449 1.388 . S
C447 C446 1.386 . S
C447 C448 1.382 . S
C447 H473 0.950 . S
C448 N445 1.332 . S
C448 C447 1.382 . S
C448 H459 0.952 . S
C449 C446 1.388 . S
C449 C450 1.382 . S
C449 H474 0.950 . S
C450 N445 1.332 . S
C450 C449 1.382 . S
C450 H460 0.948 . S
N451 Co429 2.282 . S
N451 C455 1.332 . S
N451 C456 1.332 . S
C452 C453 1.388 . S
C452 C456 1.382 . S
C452 H475 0.950 . S
C453 C452 1.388 . S
C453 C454 1.386 . S
C454 C453 1.386 . S
C454 C455 1.382 . S
C454 H476 0.950 . S
C455 N451 1.332 . S
C455 C454 1.382 . S
C455 H457 0.952 . S
C456 N451 1.332 . S
C456 C452 1.382 . S
C456 H458 0.948 . S
H457 C455 0.952 . S
H458 C456 0.948 . S
H459 C448 0.952 . S
H460 C450 0.948 . S
C461 C427 1.395 . S
C461 C431 1.391 . S
C462 C424 1.389 . S
C462 C444 1.392 . S
C463 C434 1.392 . S
C463 C436 1.389 . S
C464 C439 1.395 . S
C464 C441 1.391 . S
H465 C425 0.951 . S
H466 C426 0.950 . S
H467 C432 0.949 . S
H468 C433 0.950 . S
H469 C437 0.951 . S
H470 C438 0.950 . S
H471 C442 0.949 . S
H472 C443 0.950 . S
H473 C447 0.950 . S
H474 C449 0.950 . S
H475 C452 0.950 . S
H476 C454 0.950 . S
C477 C478 1.443 . S
C477 N481 1.376 . S
C477 C515 1.389 . S
C478 C477 1.443 . S
C478 C479 1.340 . S
C478 H518 0.951 . S
C479 C478 1.340 . S
C479 C480 1.439 . S
C479 H519 0.950 . S
C480 C479 1.439 . S
C480 N481 1.374 . S
C480 C514 1.395 . S
N481 C477 1.376 . S
N481 C480 1.374 . S
N481 Co482 2.008 . S
Co482 N481 2.008 . S
Co482 N483 1.995 . S
Co482 N488 2.008 . S
Co482 N493 1.995 . S
Co482 N498 2.282 . S
Co482 N504 2.282 . S
N483 Co482 1.995 . S
N483 C484 1.376 . S
N483 C487 1.383 . S
C484 N483 1.376 . S
C484 C485 1.446 . S
C484 C514 1.391 . S
C485 C484 1.446 . S
C485 C486 1.339 . S
C485 H520 0.949 . S
C486 C485 1.339 . S
C486 C487 1.439 . S
C486 H521 0.950 . S
C487 N483 1.383 . S
C487 C486 1.439 . S
C487 C516 1.392 . S
N488 Co482 2.008 . S
N488 C489 1.376 . S
N488 C492 1.374 . S
C489 N488 1.376 . S
C489 C490 1.443 . S
C489 C516 1.389 . S
C490 C489 1.443 . S
C490 C491 1.340 . S
C490 H522 0.951 . S
C491 C490 1.340 . S
C491 C492 1.439 . S
C491 H523 0.950 . S
C492 N488 1.374 . S
C492 C491 1.439 . S
C492 C517 1.395 . S
N493 Co482 1.995 . S
N493 C494 1.376 . S
N493 C497 1.383 . S
C494 N493 1.376 . S
C494 C495 1.446 . S
C494 C517 1.391 . S
C495 C494 1.446 . S
C495 C496 1.339 . S
C495 H524 0.949 . S
C496 C495 1.339 . S
C496 C497 1.439 . S
C496 H525 0.950 . S
C497 N493 1.383 . S
C497 C496 1.439 . S
C497 C515 1.392 . S
N498 Co482 2.282 . S
N498 C501 1.332 . S
N498 C503 1.332 . S
C499 C500 1.386 . S
C499 C502 1.388 . S
C500 C499 1.386 . S
C500 C501 1.382 . S
C500 H526 0.950 . S
C501 N498 1.332 . S
C501 C500 1.382 . S
C501 H512 0.952 . S
C502 C499 1.388 . S
C502 C503 1.382 . S
C502 H527 0.950 . S
C503 N498 1.332 . S
C503 C502 1.382 . S
C503 H513 0.948 . S
N504 Co482 2.282 . S
N504 C508 1.332 . S
N504 C509 1.332 . S
C505 C506 1.388 . S
C505 C509 1.382 . S
C505 H528 0.950 . S
C506 C505 1.388 . S
C506 C507 1.386 . S
C507 C506 1.386 . S
C507 C508 1.382 . S
C507 H529 0.950 . S
C508 N504 1.332 . S
C508 C507 1.382 . S
C508 H510 0.952 . S
C509 N504 1.332 . S
C509 C505 1.382 . S
C509 H511 0.948 . S
H510 C508 0.952 . S
H511 C509 0.948 . S
H512 C501 0.952 . S
H513 C503 0.948 . S
C514 C480 1.395 . S
C514 C484 1.391 . S
C515 C477 1.389 . S
C515 C497 1.392 . S
C516 C487 1.392 . S
C516 C489 1.389 . S
C517 C492 1.395 . S
C517 C494 1.391 . S
H518 C478 0.951 . S
H519 C479 0.950 . S
H520 C485 0.949 . S
H521 C486 0.950 . S
H522 C490 0.951 . S
H523 C491 0.950 . S
H524 C495 0.949 . S
H525 C496 0.950 . S
H526 C500 0.950 . S
H527 C502 0.950 . S
H528 C505 0.950 . S
H529 C507 0.950 . S
C530 C531 1.443 . S
C530 N534 1.376 . S
C530 C568 1.389 . S
C531 C530 1.443 . S
C531 C532 1.340 . S
C531 H571 0.951 . S
C532 C531 1.340 . S
C532 C533 1.439 . S
C532 H572 0.950 . S
C533 C532 1.439 . S
C533 N534 1.374 . S
C533 C567 1.395 . S
N534 C530 1.376 . S
N534 C533 1.374 . S
N534 Co535 2.008 . S
Co535 N534 2.008 . S
Co535 N536 1.995 . S
Co535 N541 2.008 1_545 S
Co535 N546 1.995 1_545 S
Co535 N551 2.282 . S
Co535 N557 2.282 . S
N536 Co535 1.995 . S
N536 C537 1.376 . S
N536 C540 1.383 . S
C537 N536 1.376 . S
C537 C538 1.446 . S
C537 C567 1.391 . S
C538 C537 1.446 . S
C538 C539 1.339 . S
C538 H573 0.949 . S
C539 C538 1.339 . S
C539 C540 1.439 . S
C539 H574 0.950 . S
C540 N536 1.383 . S
C540 C539 1.439 . S
C540 C569 1.392 1_545 S
N541 Co535 2.008 1_565 S
N541 C542 1.376 . S
N541 C545 1.374 . S
C542 N541 1.376 . S
C542 C543 1.443 . S
C542 C569 1.389 . S
C543 C542 1.443 . S
C543 C544 1.340 . S
C543 H575 0.951 . S
C544 C543 1.340 . S
C544 C545 1.439 . S
C544 H576 0.950 . S
C545 N541 1.374 . S
C545 C544 1.439 . S
C545 C570 1.395 . S
N546 Co535 1.995 1_565 S
N546 C547 1.376 . S
N546 C550 1.375 1_565 S
C547 N546 1.376 . S
C547 C548 1.446 . S
C547 C570 1.391 . S
C548 C547 1.446 . S
C548 C549 1.339 . S
C548 H577 0.949 . S
C549 C548 1.339 . S
C549 C550 1.423 1_565 S
C549 H578 0.950 . S
C550 N546 1.375 1_545 S
C550 C549 1.423 1_545 S
C550 C568 1.412 . S
N551 Co535 2.282 . S
N551 C554 1.332 1_545 S
N551 C556 1.332 . S
C552 C553 1.386 . S
C552 C555 1.388 1_565 S
C553 C552 1.386 . S
C553 C554 1.382 . S
C553 H579 0.950 . S
C554 N551 1.332 1_565 S
C554 C553 1.382 . S
C554 H565 0.952 . S
C555 C552 1.388 1_545 S
C555 C556 1.382 . S
C555 H580 0.950 . S
C556 N551 1.332 . S
C556 C555 1.382 . S
C556 H566 0.948 . S
N557 Co535 2.282 . S
N557 C561 1.332 . S
N557 C562 1.332 . S
C558 C559 1.388 . S
C558 C562 1.382 . S
C558 H581 0.950 1_545 S
C559 C558 1.388 . S
C559 C560 1.386 . S
C560 C559 1.386 . S
C560 C561 1.382 . S
C560 H582 0.950 . S
C561 N557 1.332 . S
C561 C560 1.382 . S
C561 H563 0.952 . S
C562 N557 1.332 . S
C562 C558 1.382 . S
C562 H564 0.948 1_545 S
H563 C561 0.952 . S
H564 C562 0.948 1_565 S
H565 C554 0.952 . S
H566 C556 0.948 . S
C567 C533 1.395 . S
C567 C537 1.391 . S
C568 C530 1.389 . S
C568 C550 1.412 . S
C569 C540 1.392 1_565 S
C569 C542 1.389 . S
C570 C545 1.395 . S
C570 C547 1.391 . S
H571 C531 0.951 . S
H572 C532 0.950 . S
H573 C538 0.949 . S
H574 C539 0.950 . S
H575 C543 0.951 . S
H576 C544 0.950 . S
H577 C548 0.949 . S
H578 C549 0.950 . S
H579 C553 0.950 . S
H580 C555 0.950 . S
H581 C558 0.950 1_565 S
H582 C560 0.950 . S
C583 C584 1.443 . S
C583 N587 1.376 . S
C583 C621 1.389 . S
C584 C583 1.443 . S
C584 C585 1.340 . S
C584 H624 0.951 . S
C585 C584 1.340 . S
C585 C586 1.439 . S
C585 H625 0.950 . S
C586 C585 1.439 . S
C586 N587 1.374 . S
C586 C620 1.395 . S
N587 C583 1.376 . S
N587 C586 1.374 . S
N587 Co588 2.008 1_556 S
Co588 N587 2.008 1_554 S
Co588 N589 1.995 1_554 S
Co588 N594 2.008 . S
Co588 N599 1.995 . S
Co588 N604 2.282 . S
Co588 N610 2.282 . S
N589 Co588 1.995 1_556 S
N589 C590 1.376 . S
N589 C593 1.383 . S
C590 N589 1.376 . S
C590 C591 1.446 . S
C590 C620 1.391 . S
C591 C590 1.446 . S
C591 C592 1.339 . S
C591 H626 0.949 . S
C592 C591 1.339 . S
C592 C593 1.439 . S
C592 H627 0.950 . S
C593 N589 1.383 . S
C593 C592 1.439 . S
C593 C622 1.392 1_556 S
N594 Co588 2.008 . S
N594 C595 1.376 . S
N594 C598 1.374 . S
C595 N594 1.376 . S
C595 C596 1.443 . S
C595 C622 1.389 . S
C596 C595 1.443 . S
C596 C597 1.340 . S
C596 H628 0.951 . S
C597 C596 1.340 . S
C597 C598 1.439 . S
C597 H629 0.950 . S
C598 N594 1.374 . S
C598 C597 1.439 . S
C598 C623 1.395 . S
N599 Co588 1.995 . S
N599 C600 1.376 . S
N599 C603 1.383 . S
C600 N599 1.376 . S
C600 C601 1.446 . S
C600 C623 1.391 . S
C601 C600 1.446 . S
C601 C602 1.339 . S
C601 H630 0.949 . S
C602 C601 1.339 . S
C602 C603 1.439 . S
C602 H631 0.950 . S
C603 N599 1.383 . S
C603 C602 1.439 . S
C603 C621 1.392 1_554 S
N604 Co588 2.282 . S
N604 C607 1.332 . S
N604 C609 1.332 1_554 S
C605 C606 1.386 . S
C605 C608 1.388 . S
C606 C605 1.386 . S
C606 C607 1.382 . S
C606 H632 0.950 . S
C607 N604 1.332 . S
C607 C606 1.382 . S
C607 H618 0.952 . S
C608 C605 1.388 . S
C608 C609 1.382 1_554 S
C608 H633 0.950 1_554 S
C609 N604 1.332 1_556 S
C609 C608 1.382 1_556 S
C609 H619 0.948 . S
N610 Co588 2.282 . S
N610 C614 1.332 1_554 S
N610 C615 1.332 . S
C611 C612 1.388 1_554 S
C611 C615 1.382 . S
C611 H634 0.950 . S
C612 C611 1.388 1_556 S
C612 C613 1.386 . S
C613 C612 1.386 . S
C613 C614 1.382 . S
C613 H635 0.950 . S
C614 N610 1.332 1_556 S
C614 C613 1.382 . S
C614 H616 0.952 . S
C615 N610 1.332 . S
C615 C611 1.382 . S
C615 H617 0.948 . S
H616 C614 0.952 . S
H617 C615 0.948 . S
H618 C607 0.952 . S
H619 C609 0.948 . S
C620 C586 1.395 . S
C620 C590 1.391 . S
C621 C583 1.389 . S
C621 C603 1.392 1_556 S
C622 C593 1.392 1_554 S
C622 C595 1.389 . S
C623 C598 1.395 . S
C623 C600 1.391 . S
H624 C584 0.951 . S
H625 C585 0.950 . S
H626 C591 0.949 . S
H627 C592 0.950 . S
H628 C596 0.951 . S
H629 C597 0.950 . S
H630 C601 0.949 . S
H631 C602 0.950 . S
H632 C606 0.950 . S
H633 C608 0.950 1_556 S
H634 C611 0.950 . S
H635 C613 0.950 . S
Co636 N641 2.057 1_545 S
Co636 O653 2.021 . S
Co636 O656 2.062 . S
Co636 O660 2.117 . S
Co636 O661 2.020 . S
C637 O657 1.259 . S
C637 O660 1.258 . S
Co638 N647 2.057 . S
Co638 O654 2.107 1_554 S
Co638 O655 2.020 . S
Co638 O657 2.021 . S
Co638 O662 2.062 . S
C639 N641 1.316 . S
C639 N642 1.347 . S
C639 H644 0.931 . S
C640 N641 1.375 . S
C640 C643 1.350 . S
C640 H645 0.930 1_565 S
N641 Co636 2.057 1_565 S
N641 C639 1.316 . S
N641 C640 1.375 . S
N642 C639 1.347 . S
N642 C643 1.373 . S
C643 C640 1.350 . S
C643 N642 1.373 . S
C643 H664 0.931 1_455 S
H644 C639 0.931 . S
H645 C640 0.930 1_545 S
C646 O653 1.259 1_556 S
C646 O654 1.262 . S
N647 Co638 2.057 . S
N647 C648 1.316 . S
N647 C649 1.375 1_554 S
C648 N647 1.316 . S
C648 N650 1.347 . S
C648 H659 0.931 . S
C649 N647 1.375 1_556 S
C649 C651 1.350 . S
C649 H658 0.930 . S
N650 C648 1.347 . S
N650 C651 1.373 1_554 S
C651 C649 1.350 . S
C651 N650 1.373 1_556 S
C651 H665 0.931 . S
C652 O655 1.256 . S
C652 O656 1.255 . S
O653 Co636 2.021 . S
O653 C646 1.259 1_554 S
O654 Co638 2.107 1_556 S
O654 C646 1.262 . S
O655 Co638 2.020 . S
O655 C652 1.256 . S
O656 Co636 2.062 . S
O656 C652 1.255 . S
O657 C637 1.259 . S
O657 Co638 2.021 . S
H658 C649 0.930 . S
H659 C648 0.931 . S
O660 Co636 2.117 . S
O660 C637 1.258 . S
O661 Co636 2.020 . S
O661 C663 1.256 . S
O662 Co638 2.062 . S
O662 C663 1.255 . S
C663 O661 1.256 . S
C663 O662 1.255 . S
H664 C643 0.931 1_655 S
H665 C651 0.931 . S
Co666 N671 2.057 . S
Co666 O683 2.021 . S
Co666 O686 2.062 . S
Co666 O690 2.117 . S
Co666 O691 2.020 . S
C667 O687 1.259 . S
C667 O690 1.258 . S
Co668 N677 2.057 1_554 S
Co668 O684 2.117 . S
Co668 O685 2.020 . S
Co668 O687 2.021 . S
Co668 O692 2.062 . S
C669 N671 1.316 . S
C669 N672 1.347 . S
C669 H674 0.931 . S
C670 N671 1.375 . S
C670 C673 1.350 1_655 S
C670 H675 0.930 . S
N671 Co666 2.057 . S
N671 C669 1.316 . S
N671 C670 1.375 . S
N672 C669 1.347 . S
N672 C673 1.373 1_655 S
C673 C670 1.350 1_455 S
C673 N672 1.373 1_455 S
C673 H694 0.931 . S
H674 C669 0.931 . S
H675 C670 0.930 . S
C676 O683 1.259 . S
C676 O684 1.258 . S
N677 Co668 2.057 1_556 S
N677 C678 1.316 . S
N677 C679 1.375 . S
C678 N677 1.316 . S
C678 N680 1.347 . S
C678 H689 0.931 . S
C679 N677 1.375 . S
C679 C681 1.350 . S
C679 H688 0.930 . S
N680 C678 1.347 . S
N680 C681 1.373 . S
C681 C679 1.350 . S
C681 N680 1.373 . S
C681 H695 0.931 . S
C682 O685 1.256 1_455 S
C682 O686 1.255 1_455 S
O683 Co666 2.021 . S
O683 C676 1.259 . S
O684 Co668 2.117 . S
O684 C676 1.258 . S
O685 Co668 2.020 . S
O685 C682 1.256 1_655 S
O686 Co666 2.062 . S
O686 C682 1.255 1_655 S
O687 C667 1.259 . S
O687 Co668 2.021 . S
H688 C679 0.930 . S
H689 C678 0.931 . S
O690 Co666 2.117 . S
O690 C667 1.258 . S
O691 Co666 2.020 . S
O691 C693 1.256 . S
O692 Co668 2.062 . S
O692 C693 1.255 . S
C693 O691 1.256 . S
C693 O692 1.255 . S
H694 C673 0.931 . S
H695 C681 0.931 . S
Co696 N701 2.057 . S
Co696 O713 2.021 . S
Co696 O716 2.062 . S
Co696 O720 2.117 . S
Co696 O721 2.020 . S
C697 O717 1.259 . S
C697 O720 1.258 . S
Co698 N707 2.057 . S
Co698 O714 2.117 1_455 S
Co698 O715 2.020 . S
Co698 O717 2.021 . S
Co698 O722 2.062 . S
C699 N701 1.316 . S
C699 N702 1.347 . S
C699 H704 0.931 . S
C700 N701 1.375 . S
C700 C703 1.350 . S
C700 H705 0.930 . S
N701 Co696 2.057 . S
N701 C699 1.316 . S
N701 C700 1.375 . S
N702 C699 1.347 . S
N702 C703 1.373 . S
C703 C700 1.350 . S
C703 N702 1.373 . S
C703 H724 0.931 1_565 S
H704 C699 0.931 . S
H705 C700 0.930 . S
C706 O713 1.259 1_655 S
C706 O714 1.258 . S
N707 Co698 2.057 . S
N707 C708 1.316 . S
N707 C709 1.375 1_455 S
C708 N707 1.316 . S
C708 N710 1.347 1_455 S
C708 H719 0.931 . S
C709 N707 1.375 1_655 S
C709 C711 1.350 . S
C709 H718 0.930 . S
N710 C708 1.347 1_655 S
N710 C711 1.373 . S
C711 C709 1.350 . S
C711 N710 1.373 . S
C711 H725 0.931 . S
C712 O715 1.256 . S
C712 O716 1.255 . S
O713 Co696 2.021 . S
O713 C706 1.259 1_455 S
O714 Co698 2.117 1_655 S
O714 C706 1.258 . S
O715 Co698 2.020 . S
O715 C712 1.256 . S
O716 Co696 2.062 . S
O716 C712 1.255 . S
O717 C697 1.259 . S
O717 Co698 2.021 . S
H718 C709 0.930 . S
H719 C708 0.931 . S
O720 Co696 2.117 . S
O720 C697 1.258 . S
O721 Co696 2.020 . S
O721 C723 1.256 . S
O722 Co698 2.062 . S
O722 C723 1.255 . S
C723 O721 1.256 . S
C723 O722 1.255 . S
H724 C703 0.931 1_545 S
H725 C711 0.931 . S
Co726 N731 2.057 . S
Co726 O743 2.021 . S
Co726 O746 2.062 . S
Co726 O750 2.117 . S
Co726 O751 2.020 . S
C727 O747 1.259 . S
C727 O750 1.258 1_455 S
Co728 N737 2.057 . S
Co728 O744 2.117 . S
Co728 O745 2.020 . S
Co728 O747 2.021 1_655 S
Co728 O752 2.062 . S
C729 N731 1.316 . S
C729 N732 1.347 . S
C729 H734 0.931 . S
C730 N731 1.375 . S
C730 C733 1.350 . S
C730 H735 0.930 . S
N731 Co726 2.057 . S
N731 C729 1.316 . S
N731 C730 1.375 . S
N732 C729 1.347 . S
N732 C733 1.373 . S
C733 C730 1.350 . S
C733 N732 1.373 . S
C733 H754 0.931 . S
H734 C729 0.931 . S
H735 C730 0.930 . S
C736 O743 1.259 . S
C736 O744 1.258 . S
N737 Co728 2.057 . S
N737 C738 1.316 1_655 S
N737 C739 1.375 . S
C738 N737 1.316 1_455 S
C738 N740 1.347 . S
C738 H749 0.931 . S
C739 N737 1.375 . S
C739 C741 1.350 . S
C739 H748 0.930 . S
N740 C738 1.347 . S
N740 C741 1.373 1_455 S
C741 C739 1.350 . S
C741 N740 1.373 1_655 S
C741 H755 0.931 . S
C742 O745 1.256 . S
C742 O746 1.255 . S
O743 Co726 2.021 . S
O743 C736 1.259 . S
O744 Co728 2.117 . S
O744 C736 1.258 . S
O745 Co728 2.020 . S
O745 C742 1.256 . S
O746 Co726 2.062 . S
O746 C742 1.255 . S
O747 C727 1.259 . S
O747 Co728 2.021 1_455 S
H748 C739 0.930 . S
H749 C738 0.931 . S
O750 Co726 2.117 . S
O750 C727 1.258 1_655 S
O751 Co726 2.020 . S
O751 C753 1.256 . S
O752 Co728 2.062 . S
O752 C753 1.255 . S
C753 O751 1.256 . S
C753 O752 1.255 . S
H754 C733 0.931 . S
H755 C741 0.931 . S
Co756 N761 2.057 . S
Co756 O773 2.021 . S
Co756 O776 2.062 . S
Co756 O780 2.117 . S
Co756 O781 2.020 . S
C757 O777 1.259 . S
C757 O780 1.258 . S
Co758 N767 2.057 . S
Co758 O774 2.117 . S
Co758 O775 2.020 . S
Co758 O777 2.021 . S
Co758 O782 2.062 . S
C759 N761 1.316 . S
C759 N762 1.347 . S
C759 H764 0.931 . S
C760 N761 1.375 . S
C760 C763 1.350 . S
C760 H765 0.930 . S
N761 Co756 2.057 . S
N761 C759 1.316 . S
N761 C760 1.375 . S
N762 C759 1.347 . S
N762 C763 1.373 . S
C763 C760 1.350 . S
C763 N762 1.373 . S
C763 H784 0.931 . S
H764 C759 0.931 . S
H765 C760 0.930 . S
C766 O773 1.259 . S
C766 O774 1.258 . S
N767 Co758 2.057 . S
N767 C768 1.316 . S
N767 C769 1.375 . S
C768 N767 1.316 . S
C768 N770 1.347 . S
C768 H779 0.931 1_565 S
C769 N767 1.375 . S
C769 C771 1.350 . S
C769 H778 0.930 . S
N770 C768 1.347 . S
N770 C771 1.373 . S
C771 C769 1.350 . S
C771 N770 1.373 . S
C771 H785 0.931 . S
C772 O775 1.256 . S
C772 O776 1.255 . S
O773 Co756 2.021 . S
O773 C766 1.259 . S
O774 Co758 2.117 . S
O774 C766 1.258 . S
O775 Co758 2.020 . S
O775 C772 1.256 . S
O776 Co756 2.062 . S
O776 C772 1.255 . S
O777 C757 1.259 . S
O777 Co758 2.021 . S
H778 C769 0.930 . S
H779 C768 0.931 1_545 S
O780 Co756 2.117 . S
O780 C757 1.258 . S
O781 Co756 2.020 . S
O781 C783 1.256 . S
O782 Co758 2.062 . S
O782 C783 1.255 . S
C783 O781 1.256 . S
C783 O782 1.255 . S
H784 C763 0.931 . S
H785 C771 0.931 . S
Co786 N791 2.057 . S
Co786 O803 2.021 . S
Co786 O806 2.062 . S
Co786 O810 2.117 . S
Co786 O811 2.020 . S
C787 O807 1.259 . S
C787 O810 1.258 . S
Co788 N797 2.057 . S
Co788 O804 2.117 . S
Co788 O805 2.020 . S
Co788 O807 2.021 . S
Co788 O812 2.062 . S
C789 N791 1.316 . S
C789 N792 1.347 . S
C789 H794 0.931 . S
C790 N791 1.375 . S
C790 C793 1.350 . S
C790 H795 0.930 . S
N791 Co786 2.057 . S
N791 C789 1.316 . S
N791 C790 1.375 . S
N792 C789 1.347 . S
N792 C793 1.373 . S
C793 C790 1.350 . S
C793 N792 1.373 . S
C793 H814 0.931 . S
H794 C789 0.931 . S
H795 C790 0.930 . S
C796 O803 1.259 . S
C796 O804 1.258 . S
N797 Co788 2.057 . S
N797 C798 1.316 . S
N797 C799 1.375 . S
C798 N797 1.316 . S
C798 N800 1.347 . S
C798 H809 0.931 . S
C799 N797 1.375 . S
C799 C801 1.350 . S
C799 H808 0.930 . S
N800 C798 1.347 . S
N800 C801 1.373 . S
C801 C799 1.350 . S
C801 N800 1.373 . S
C801 H815 0.931 . S
C802 O805 1.256 . S
C802 O806 1.255 . S
O803 Co786 2.021 . S
O803 C796 1.259 . S
O804 Co788 2.117 . S
O804 C796 1.258 . S
O805 Co788 2.020 . S
O805 C802 1.256 . S
O806 Co786 2.062 . S
O806 C802 1.255 . S
O807 C787 1.259 . S
O807 Co788 2.021 . S
H808 C799 0.930 . S
H809 C798 0.931 . S
O810 Co786 2.117 . S
O810 C787 1.258 . S
O811 Co786 2.020 . S
O811 C813 1.256 . S
O812 Co788 2.062 . S
O812 C813 1.255 . S
C813 O811 1.256 . S
C813 O812 1.255 . S
H814 C793 0.931 . S
H815 C801 0.931 . S
Co816 N821 2.057 1_556 S
Co816 O833 2.021 1_556 S
Co816 O836 2.062 1_556 S
Co816 O840 2.117 . S
Co816 O841 2.020 . S
C817 O837 1.259 . S
C817 O840 1.258 . S
Co818 N827 2.057 . S
Co818 O834 2.117 . S
Co818 O835 2.020 . S
Co818 O837 2.021 . S
Co818 O842 2.062 . S
C819 N821 1.316 . S
C819 N822 1.347 . S
C819 H824 0.931 . S
C820 N821 1.375 . S
C820 C823 1.350 . S
C820 H825 0.930 . S
N821 Co816 2.057 1_554 S
N821 C819 1.316 . S
N821 C820 1.375 . S
N822 C819 1.347 . S
N822 C823 1.373 . S
C823 C820 1.350 . S
C823 N822 1.373 . S
C823 H844 0.931 . S
H824 C819 0.931 . S
H825 C820 0.930 . S
C826 O833 1.259 1_556 S
C826 O834 1.258 . S
N827 Co818 2.057 . S
N827 C828 1.316 . S
N827 C829 1.375 . S
C828 N827 1.316 . S
C828 N830 1.347 . S
C828 H839 0.931 . S
C829 N827 1.375 . S
C829 C831 1.350 . S
C829 H838 0.930 . S
N830 C828 1.347 . S
N830 C831 1.373 . S
C831 C829 1.350 . S
C831 N830 1.373 . S
C831 H845 0.931 . S
C832 O835 1.256 . S
C832 O836 1.255 1_556 S
O833 Co816 2.021 1_554 S
O833 C826 1.259 1_554 S
O834 Co818 2.117 . S
O834 C826 1.258 . S
O835 Co818 2.020 . S
O835 C832 1.256 . S
O836 Co816 2.062 1_554 S
O836 C832 1.255 1_554 S
O837 C817 1.259 . S
O837 Co818 2.021 . S
H838 C829 0.930 . S
H839 C828 0.931 . S
O840 Co816 2.117 . S
O840 C817 1.258 . S
O841 Co816 2.020 . S
O841 C843 1.256 . S
O842 Co818 2.062 . S
O842 C843 1.255 . S
C843 O841 1.256 . S
C843 O842 1.255 . S
H844 C823 0.931 . S
H845 C831 0.931 . S
Co846 N851 2.057 . S
Co846 O863 2.021 . S
Co846 O866 2.062 . S
Co846 O870 2.117 . S
Co846 O871 2.020 . S
C847 O867 1.259 . S
C847 O870 1.258 . S
Co848 N857 2.057 1_545 S
Co848 O864 2.117 . S
Co848 O865 2.020 . S
Co848 O867 2.021 . S
Co848 O872 2.062 . S
C849 N851 1.316 . S
C849 N852 1.347 . S
C849 H854 0.931 . S
C850 N851 1.375 . S
C850 C853 1.350 . S
C850 H855 0.930 . S
N851 Co846 2.057 . S
N851 C849 1.316 . S
N851 C850 1.375 . S
N852 C849 1.347 . S
N852 C853 1.373 . S
C853 C850 1.350 . S
C853 N852 1.373 . S
C853 H874 0.931 . S
H854 C849 0.931 . S
H855 C850 0.930 . S
C856 O863 1.259 . S
C856 O864 1.258 . S
N857 Co848 2.057 1_565 S
N857 C858 1.316 . S
N857 C859 1.375 . S
C858 N857 1.316 . S
C858 N860 1.347 . S
C858 H869 0.931 . S
C859 N857 1.375 . S
C859 C861 1.350 . S
C859 H868 0.930 . S
N860 C858 1.347 . S
N860 C861 1.373 . S
C861 C859 1.350 . S
C861 N860 1.373 . S
C861 H875 0.931 . S
C862 O865 1.256 . S
C862 O866 1.255 . S
O863 Co846 2.021 . S
O863 C856 1.259 . S
O864 Co848 2.117 . S
O864 C856 1.258 . S
O865 Co848 2.020 . S
O865 C862 1.256 . S
O866 Co846 2.062 . S
O866 C862 1.255 . S
O867 C847 1.259 . S
O867 Co848 2.021 . S
H868 C859 0.930 . S
H869 C858 0.931 . S
O870 Co846 2.117 . S
O870 C847 1.258 . S
O871 Co846 2.020 . S
O871 C873 1.256 . S
O872 Co848 2.062 . S
O872 C873 1.255 . S
C873 O871 1.256 . S
C873 O872 1.255 . S
H874 C853 0.931 . S
H875 C861 0.931 . S
C876 C877 1.387 . S
C876 H880 0.950 . S
C876 C885 1.390 . S
C877 C876 1.387 . S
C877 C879 1.387 . S
H878 C885 0.950 . S
C879 C877 1.387 . S
C879 C881 1.390 . S
C879 H883 0.950 . S
H880 C876 0.950 . S
C881 C879 1.390 . S
C881 C882 1.387 . S
C881 H884 0.950 . S
C882 C881 1.387 . S
C882 C885 1.387 . S
H883 C879 0.950 . S
H884 C881 0.950 . S
C885 C876 1.390 . S
C885 H878 0.950 . S
C885 C882 1.387 . S
C886 C887 1.387 . S
C886 H890 0.950 . S
C886 C895 1.390 . S
C887 C886 1.387 . S
C887 C889 1.387 1_455 S
H888 C895 0.950 . S
C889 C887 1.387 1_655 S
C889 C891 1.390 . S
C889 H893 0.950 . S
H890 C886 0.950 . S
C891 C889 1.390 . S
C891 C892 1.387 1_655 S
C891 H894 0.950 . S
C892 C891 1.387 1_455 S
C892 C895 1.387 . S
H893 C889 0.950 . S
H894 C891 0.950 . S
C895 C886 1.390 . S
C895 H888 0.950 . S
C895 C892 1.387 . S
C896 C897 1.387 . S
C896 H900 0.950 . S
C896 C905 1.390 . S
C897 C896 1.387 . S
C897 C899 1.387 . S
H898 C905 0.950 . S
C899 C897 1.387 . S
C899 C901 1.390 . S
C899 H903 0.950 . S
H900 C896 0.950 . S
C901 C899 1.390 . S
C901 C902 1.387 . S
C901 H904 0.950 . S
C902 C901 1.387 . S
C902 C905 1.387 . S
H903 C899 0.950 . S
H904 C901 0.950 . S
C905 C896 1.390 . S
C905 H898 0.950 . S
C905 C902 1.387 . S
C906 C907 1.387 1_455 S
C906 H910 0.950 . S
C906 C915 1.390 . S
C907 C906 1.387 1_655 S
C907 C909 1.387 . S
H908 C915 0.950 . S
C909 C907 1.387 . S
C909 C911 1.390 . S
C909 H913 0.950 . S
H910 C906 0.950 . S
C911 C909 1.390 . S
C911 C912 1.387 . S
C911 H914 0.950 . S
C912 C911 1.387 . S
C912 C915 1.387 1_655 S
H913 C909 0.950 . S
H914 C911 0.950 . S
C915 C906 1.390 . S
C915 H908 0.950 . S
C915 C912 1.387 1_455 S
C916 C917 1.387 . S
C916 H920 0.950 1_545 S
C916 C925 1.390 . S
C917 C916 1.387 . S
C917 C919 1.387 . S
H918 C925 0.950 1_565 S
C919 C917 1.387 . S
C919 C921 1.390 . S
C919 H923 0.950 . S
H920 C916 0.950 1_565 S
C921 C919 1.390 . S
C921 C922 1.387 . S
C921 H924 0.950 . S
C922 C921 1.387 . S
C922 C925 1.387 . S
H923 C919 0.950 . S
H924 C921 0.950 . S
C925 C916 1.390 . S
C925 H918 0.950 1_545 S
C925 C922 1.387 . S
C926 C927 1.387 . S
C926 H930 0.950 . S
C926 C935 1.390 . S
C927 C926 1.387 . S
C927 C929 1.387 . S
H928 C935 0.950 . S
C929 C927 1.387 . S
C929 C931 1.390 . S
C929 H933 0.950 . S
H930 C926 0.950 . S
C931 C929 1.390 . S
C931 C932 1.387 . S
C931 H934 0.950 . S
C932 C931 1.387 . S
C932 C935 1.387 . S
H933 C929 0.950 . S
H934 C931 0.950 . S
C935 C926 1.390 . S
C935 H928 0.950 . S
C935 C932 1.387 . S
C936 C937 1.387 . S
C936 H940 0.950 . S
C936 C945 1.390 . S
C937 C936 1.387 . S
C937 C939 1.387 1_565 S
H938 C945 0.950 . S
C939 C937 1.387 1_545 S
C939 C941 1.390 . S
C939 H943 0.950 . S
H940 C936 0.950 . S
C941 C939 1.390 . S
C941 C942 1.387 1_545 S
C941 H944 0.950 . S
C942 C941 1.387 1_565 S
C942 C945 1.387 . S
H943 C939 0.950 . S
H944 C941 0.950 . S
C945 C936 1.390 . S
C945 H938 0.950 . S
C945 C942 1.387 . S
C946 C947 1.387 . S
C946 H950 0.950 . S
C946 C955 1.390 . S
C947 C946 1.387 . S
C947 C949 1.387 . S
H948 C955 0.950 . S
C949 C947 1.387 . S
C949 C951 1.390 . S
C949 H953 0.950 . S
H950 C946 0.950 . S
C951 C949 1.390 . S
C951 C952 1.387 . S
C951 H954 0.950 . S
C952 C951 1.387 . S
C952 C955 1.387 . S
H953 C949 0.950 . S
H954 C951 0.950 . S
C955 C946 1.390 . S
C955 H948 0.950 . S
C955 C952 1.387 . S
C956 C957 1.387 . S
C956 H960 0.950 . S
C956 C965 1.390 . S
C957 C956 1.387 . S
C957 C959 1.387 . S
H958 C965 0.950 . S
C959 C957 1.387 . S
C959 C961 1.390 . S
C959 H963 0.950 . S
H960 C956 0.950 . S
C961 C959 1.390 . S
C961 C962 1.387 . S
C961 H964 0.950 . S
C962 C961 1.387 . S
C962 C965 1.387 . S
H963 C959 0.950 . S
H964 C961 0.950 . S
C965 C956 1.390 . S
C965 H958 0.950 . S
C965 C962 1.387 . S
C966 C967 1.387 . S
C966 H970 0.950 . S
C966 C975 1.390 . S
C967 C966 1.387 . S
C967 C969 1.387 . S
H968 C975 0.950 . S
C969 C967 1.387 . S
C969 C971 1.390 . S
C969 H973 0.950 . S
H970 C966 0.950 . S
C971 C969 1.390 . S
C971 C972 1.387 . S
C971 H974 0.950 . S
C972 C971 1.387 . S
C972 C975 1.387 . S
H973 C969 0.950 . S
H974 C971 0.950 . S
C975 C966 1.390 . S
C975 H968 0.950 . S
C975 C972 1.387 . S
C976 C977 1.387 . S
C976 H980 0.950 . S
C976 C985 1.390 . S
C977 C976 1.387 . S
C977 C979 1.387 . S
H978 C985 0.950 . S
C979 C977 1.387 . S
C979 C981 1.390 . S
C979 H983 0.950 . S
H980 C976 0.950 . S
C981 C979 1.390 . S
C981 C982 1.387 . S
C981 H984 0.950 . S
C982 C981 1.387 . S
C982 C985 1.387 . S
H983 C979 0.950 . S
H984 C981 0.950 . S
C985 C976 1.390 . S
C985 H978 0.950 . S
C985 C982 1.387 . S
C986 C987 1.387 . S
C986 H990 0.950 . S
C986 C995 1.390 . S
C987 C986 1.387 . S
C987 C989 1.387 . S
H988 C995 0.950 . S
C989 C987 1.387 . S
C989 C991 1.390 . S
C989 H993 0.950 . S
H990 C986 0.950 . S
C991 C989 1.390 . S
C991 C992 1.387 . S
C991 H994 0.950 . S
C992 C991 1.387 . S
C992 C995 1.387 . S
H993 C989 0.950 . S
H994 C991 0.950 . S
C995 C986 1.390 . S
C995 H988 0.950 . S
C995 C992 1.387 . S
C996 C997 1.387 . S
C996 H1000 0.950 . S
C996 C1005 1.390 . S
C997 C996 1.387 . S
C997 C999 1.387 . S
H998 C1005 0.950 . S
C999 C997 1.387 . S
C999 C1001 1.390 . S
C999 H1003 0.950 . S
H1000 C996 0.950 . S
C1001 C999 1.390 . S
C1001 C1002 1.387 . S
C1001 H1004 0.950 . S
C1002 C1001 1.387 . S
C1002 C1005 1.387 . S
H1003 C999 0.950 . S
H1004 C1001 0.950 . S
C1005 C996 1.390 . S
C1005 H998 0.950 . S
C1005 C1002 1.387 . S
C1006 C1007 1.387 . S
C1006 H1010 0.950 . S
C1006 C1015 1.390 . S
C1007 C1006 1.387 . S
C1007 C1009 1.387 . S
H1008 C1015 0.950 . S
C1009 C1007 1.387 . S
C1009 C1011 1.390 . S
C1009 H1013 0.950 . S
H1010 C1006 0.950 . S
C1011 C1009 1.390 . S
C1011 C1012 1.387 . S
C1011 H1014 0.950 . S
C1012 C1011 1.387 . S
C1012 C1015 1.387 . S
H1013 C1009 0.950 . S
H1014 C1011 0.950 . S
C1015 C1006 1.390 . S
C1015 H1008 0.950 . S
C1015 C1012 1.387 . S
C1016 C1017 1.387 . S
C1016 H1020 0.950 . S
C1016 C1025 1.390 . S
C1017 C1016 1.387 . S
C1017 C1019 1.387 . S
H1018 C1025 0.950 . S
C1019 C1017 1.387 . S
C1019 C1021 1.390 . S
C1019 H1023 0.950 . S
H1020 C1016 0.950 . S
C1021 C1019 1.390 . S
C1021 C1022 1.387 . S
C1021 H1024 0.950 . S
C1022 C1021 1.387 . S
C1022 C1025 1.387 . S
H1023 C1019 0.950 . S
H1024 C1021 0.950 . S
C1025 C1016 1.390 . S
C1025 H1018 0.950 . S
C1025 C1022 1.387 . S
C1026 C1027 1.387 . S
C1026 H1030 0.950 . S
C1026 C1035 1.390 . S
C1027 C1026 1.387 . S
C1027 C1029 1.387 . S
H1028 C1035 0.950 . S
C1029 C1027 1.387 . S
C1029 C1031 1.390 . S
C1029 H1033 0.950 . S
H1030 C1026 0.950 . S
C1031 C1029 1.390 . S
C1031 C1032 1.387 . S
C1031 H1034 0.950 . S
C1032 C1031 1.387 . S
C1032 C1035 1.387 . S
H1033 C1029 0.950 . S
H1034 C1031 0.950 . S
C1035 C1026 1.390 . S
C1035 H1028 0.950 . S
C1035 C1032 1.387 . S
C1036 C1037 1.387 . S
C1036 H1040 0.950 . S
C1036 C1045 1.390 . S
C1037 C1036 1.387 . S
C1037 C1039 1.387 . S
H1038 C1045 0.950 . S
C1039 C1037 1.387 . S
C1039 C1041 1.390 . S
C1039 H1043 0.950 . S
H1040 C1036 0.950 . S
C1041 C1039 1.390 . S
C1041 C1042 1.387 . S
C1041 H1044 0.950 . S
C1042 C1041 1.387 . S
C1042 C1045 1.387 . S
H1043 C1039 0.950 . S
H1044 C1041 0.950 . S
C1045 C1036 1.390 . S
C1045 H1038 0.950 . S
C1045 C1042 1.387 . S
C1046 C1047 1.387 1_545 S
C1046 H1050 0.950 . S
C1046 C1055 1.390 . S
C1047 C1046 1.387 1_565 S
C1047 C1049 1.387 . S
H1048 C1055 0.950 . S
C1049 C1047 1.387 . S
C1049 C1051 1.390 . S
C1049 H1053 0.950 . S
H1050 C1046 0.950 . S
C1051 C1049 1.390 . S
C1051 C1052 1.387 . S
C1051 H1054 0.950 . S
C1052 C1051 1.387 . S
C1052 C1055 1.387 1_565 S
H1053 C1049 0.950 . S
H1054 C1051 0.950 . S
C1055 C1046 1.390 . S
C1055 H1048 0.950 . S
C1055 C1052 1.387 1_545 S
C1056 C1057 1.387 . S
C1056 H1060 0.950 . S
C1056 C1065 1.390 . S
C1057 C1056 1.387 . S
C1057 C1059 1.387 . S
H1058 C1065 0.950 . S
C1059 C1057 1.387 . S
C1059 C1061 1.390 . S
C1059 H1063 0.950 . S
H1060 C1056 0.950 . S
C1061 C1059 1.390 . S
C1061 C1062 1.387 . S
C1061 H1064 0.950 . S
C1062 C1061 1.387 . S
C1062 C1065 1.387 . S
H1063 C1059 0.950 . S
H1064 C1061 0.950 . S
C1065 C1056 1.390 . S
C1065 H1058 0.950 . S
C1065 C1062 1.387 . S
C1066 C1067 1.387 . S
C1066 H1070 0.950 . S
C1066 C1075 1.390 . S
C1067 C1066 1.387 . S
C1067 C1069 1.387 . S
H1068 C1075 0.950 . S
C1069 C1067 1.387 . S
C1069 C1071 1.390 . S
C1069 H1073 0.950 1_545 S
H1070 C1066 0.950 . S
C1071 C1069 1.390 . S
C1071 C1072 1.387 . S
C1071 H1074 0.950 1_545 S
C1072 C1071 1.387 . S
C1072 C1075 1.387 . S
H1073 C1069 0.950 1_565 S
H1074 C1071 0.950 1_565 S
C1075 C1066 1.390 . S
C1075 H1068 0.950 . S
C1075 C1072 1.387 . S
C1076 C1077 1.387 . S
C1076 H1080 0.950 . S
C1076 C1085 1.390 . S
C1077 C1076 1.387 . S
C1077 C1079 1.387 . S
H1078 C1085 0.950 . S
C1079 C1077 1.387 . S
C1079 C1081 1.390 . S
C1079 H1083 0.950 . S
H1080 C1076 0.950 . S
C1081 C1079 1.390 . S
C1081 C1082 1.387 . S
C1081 H1084 0.950 . S
C1082 C1081 1.387 . S
C1082 C1085 1.387 . S
H1083 C1079 0.950 . S
H1084 C1081 0.950 . S
C1085 C1076 1.390 . S
C1085 H1078 0.950 . S
C1085 C1082 1.387 . S
C1086 C1087 1.387 . S
C1086 H1090 0.950 . S
C1086 C1095 1.390 . S
C1087 C1086 1.387 . S
C1087 C1089 1.387 1_556 S
H1088 C1095 0.950 . S
C1089 C1087 1.387 1_554 S
C1089 C1091 1.390 1_554 S
C1089 H1093 0.950 . S
H1090 C1086 0.950 . S
C1091 C1089 1.390 1_556 S
C1091 C1092 1.387 . S
C1091 H1094 0.950 1_556 S
C1092 C1091 1.387 . S
C1092 C1095 1.387 . S
H1093 C1089 0.950 . S
H1094 C1091 0.950 1_554 S
C1095 C1086 1.390 . S
C1095 H1088 0.950 . S
C1095 C1092 1.387 . S
C1096 C1097 1.387 1_556 S
C1096 H1100 0.950 . S
C1096 C1105 1.390 . S
C1097 C1096 1.387 1_554 S
C1097 C1099 1.387 . S
H1098 C1105 0.950 . S
C1099 C1097 1.387 . S
C1099 C1101 1.390 . S
C1099 H1103 0.950 . S
H1100 C1096 0.950 . S
C1101 C1099 1.390 . S
C1101 C1102 1.387 . S
C1101 H1104 0.950 . S
C1102 C1101 1.387 . S
C1102 C1105 1.387 1_554 S
H1103 C1099 0.950 . S
H1104 C1101 0.950 . S
C1105 C1096 1.390 . S
C1105 H1098 0.950 . S
C1105 C1102 1.387 1_556 S
C1106 C1107 1.387 . S
C1106 H1110 0.950 . S
C1106 C1115 1.390 . S
C1107 C1106 1.387 . S
C1107 C1109 1.355 1_554 S
H1108 C1115 0.950 . S
C1109 C1107 1.355 1_556 S
C1109 C1111 1.394 . S
C1109 H1113 0.979 . S
H1110 C1106 0.950 . S
C1111 C1109 1.394 . S
C1111 C1112 1.387 1_556 S
C1111 H1114 0.950 . S
C1112 C1111 1.387 1_554 S
C1112 C1115 1.387 . S
H1113 C1109 0.979 . S
H1114 C1111 0.950 . S
C1115 C1106 1.390 . S
C1115 H1108 0.950 . S
C1115 C1112 1.387 . S
C1116 C1117 1.387 . S
C1116 H1120 0.950 . S
C1116 C1125 1.390 . S
C1117 C1116 1.387 . S
C1117 C1119 1.387 . S
H1118 C1125 0.950 . S
C1119 C1117 1.387 . S
C1119 C1121 1.390 . S
C1119 H1123 0.950 . S
H1120 C1116 0.950 . S
C1121 C1119 1.390 . S
C1121 C1122 1.387 . S
C1121 H1124 0.950 . S
C1122 C1121 1.387 . S
C1122 C1125 1.387 . S
H1123 C1119 0.950 . S
H1124 C1121 0.950 . S
C1125 C1116 1.390 . S
C1125 H1118 0.950 . S
C1125 C1122 1.387 . S
C1126 C1127 1.387 1_655 S
C1126 H1130 0.950 . S
C1126 C1135 1.390 . S
C1127 C1126 1.387 1_455 S
C1127 C1129 1.387 . S
H1128 C1135 0.950 . S
C1129 C1127 1.387 . S
C1129 C1131 1.390 . S
C1129 H1133 0.950 . S
H1130 C1126 0.950 . S
C1131 C1129 1.390 . S
C1131 C1132 1.387 . S
C1131 H1134 0.950 . S
C1132 C1131 1.387 . S
C1132 C1135 1.387 1_455 S
H1133 C1129 0.950 . S
H1134 C1131 0.950 . S
C1135 C1126 1.390 . S
C1135 H1128 0.950 . S
C1135 C1132 1.387 1_655 S
C1136 C1137 1.387 . S
C1136 H1140 0.950 . S
C1136 C1145 1.390 . S
C1137 C1136 1.387 . S
C1137 C1139 1.387 . S
H1138 C1145 0.950 . S
C1139 C1137 1.387 . S
C1139 C1141 1.390 . S
C1139 H1143 0.950 . S
H1140 C1136 0.950 . S
C1141 C1139 1.390 . S
C1141 C1142 1.384 1_455 S
C1141 H1144 0.950 1_455 S
C1142 C1141 1.384 1_655 S
C1142 C1145 1.384 1_655 S
H1143 C1139 0.950 . S
H1144 C1141 0.950 1_655 S
C1145 C1136 1.390 . S
C1145 H1138 0.950 . S
C1145 C1142 1.384 1_455 S
C1146 C1147 1.387 . S
C1146 H1150 0.950 . S
C1146 C1155 1.390 . S
C1147 C1146 1.387 . S
C1147 C1149 1.387 . S
H1148 C1155 0.950 . S
C1149 C1147 1.387 . S
C1149 C1151 1.390 . S
C1149 H1153 0.950 1_655 S
H1150 C1146 0.950 . S
C1151 C1149 1.390 . S
C1151 C1152 1.387 . S
C1151 H1154 0.950 1_655 S
C1152 C1151 1.387 . S
C1152 C1155 1.387 . S
H1153 C1149 0.950 1_455 S
H1154 C1151 0.950 1_455 S
C1155 C1146 1.390 . S
C1155 H1148 0.950 . S
C1155 C1152 1.387 . S
C1156 C1157 1.387 . S
C1156 H1160 0.950 . S
C1156 C1165 1.390 . S
C1157 C1156 1.387 . S
C1157 C1159 1.387 . S
H1158 C1165 0.950 . S
C1159 C1157 1.387 . S
C1159 C1161 1.390 . S
C1159 H1163 0.950 1_545 S
H1160 C1156 0.950 . S
C1161 C1159 1.390 . S
C1161 C1162 1.387 . S
C1161 H1164 0.950 1_545 S
C1162 C1161 1.387 . S
C1162 C1165 1.387 . S
H1163 C1159 0.950 1_565 S
H1164 C1161 0.950 1_565 S
C1165 C1156 1.390 . S
C1165 H1158 0.950 . S
C1165 C1162 1.387 . S
C1166 C1167 1.387 . S
C1166 H1170 0.950 . S
C1166 C1175 1.390 . S
C1167 C1166 1.387 . S
C1167 C1169 1.387 . S
H1168 C1175 0.950 . S
C1169 C1167 1.387 . S
C1169 C1171 1.390 . S
C1169 H1173 0.950 . S
H1170 C1166 0.950 . S
C1171 C1169 1.390 . S
C1171 C1172 1.387 . S
C1171 H1174 0.950 . S
C1172 C1171 1.387 . S
C1172 C1175 1.387 . S
H1173 C1169 0.950 . S
H1174 C1171 0.950 . S
C1175 C1166 1.390 . S
C1175 H1168 0.950 . S
C1175 C1172 1.387 . S
C1176 C1177 1.387 . S
C1176 H1180 0.950 1_565 S
C1176 C1185 1.390 . S
C1177 C1176 1.387 . S
C1177 C1179 1.387 . S
H1178 C1185 0.950 . S
C1179 C1177 1.387 . S
C1179 C1181 1.390 . S
C1179 H1183 0.950 . S
H1180 C1176 0.950 1_545 S
C1181 C1179 1.390 . S
C1181 C1182 1.387 . S
C1181 H1184 0.950 . S
C1182 C1181 1.387 . S
C1182 C1185 1.387 . S
H1183 C1179 0.950 . S
H1184 C1181 0.950 . S
C1185 C1176 1.390 . S
C1185 H1178 0.950 . S
C1185 C1182 1.387 . S
C1186 C1187 1.387 . S
C1186 H1190 0.950 . S
C1186 C1195 1.390 . S
C1187 C1186 1.387 . S
C1187 C1189 1.387 . S
H1188 C1195 0.950 . S
C1189 C1187 1.387 . S
C1189 C1191 1.390 . S
C1189 H1193 0.950 . S
H1190 C1186 0.950 . S
C1191 C1189 1.390 . S
C1191 C1192 1.387 . S
C1191 H1194 0.950 . S
C1192 C1191 1.387 . S
C1192 C1195 1.387 . S
H1193 C1189 0.950 . S
H1194 C1191 0.950 . S
C1195 C1186 1.390 . S
C1195 H1188 0.950 . S
C1195 C1192 1.387 . S
C1196 C1197 1.387 . S
C1196 H1200 0.950 . S
C1196 C1205 1.390 . S
C1197 C1196 1.387 . S
C1197 C1199 1.387 1_554 S
H1198 C1205 0.950 . S
C1199 C1197 1.387 1_556 S
C1199 C1201 1.390 . S
C1199 H1203 0.950 . S
H1200 C1196 0.950 . S
C1201 C1199 1.390 . S
C1201 C1202 1.387 1_556 S
C1201 H1204 0.950 . S
C1202 C1201 1.387 1_554 S
C1202 C1205 1.387 . S
H1203 C1199 0.950 . S
H1204 C1201 0.950 . S
C1205 C1196 1.390 . S
C1205 H1198 0.950 . S
C1205 C1202 1.387 . S
C1206 C1207 1.387 . S
C1206 H1210 0.950 . S
C1206 C1215 1.390 . S
C1207 C1206 1.387 . S
C1207 C1209 1.387 . S
H1208 C1215 0.950 . S
C1209 C1207 1.387 . S
C1209 C1211 1.390 . S
C1209 H1213 0.950 . S
H1210 C1206 0.950 . S
C1211 C1209 1.390 . S
C1211 C1212 1.387 . S
C1211 H1214 0.950 . S
C1212 C1211 1.387 . S
C1212 C1215 1.387 . S
H1213 C1209 0.950 . S
H1214 C1211 0.950 . S
C1215 C1206 1.390 . S
C1215 H1208 0.950 . S
C1215 C1212 1.387 . S
C1216 C1217 1.387 . S
C1216 H1220 0.950 . S
C1216 C1225 1.390 . S
C1217 C1216 1.387 . S
C1217 C1219 1.387 . S
H1218 C1225 0.950 . S
C1219 C1217 1.387 . S
C1219 C1221 1.390 . S
C1219 H1223 0.950 . S
H1220 C1216 0.950 . S
C1221 C1219 1.390 . S
C1221 C1222 1.387 . S
C1221 H1224 0.950 . S
C1222 C1221 1.387 . S
C1222 C1225 1.387 . S
H1223 C1219 0.950 . S
H1224 C1221 0.950 . S
C1225 C1216 1.390 . S
C1225 H1218 0.950 . S
C1225 C1222 1.387 . S
C1226 C1227 1.387 . S
C1226 H1230 0.950 . S
C1226 C1235 1.390 . S
C1227 C1226 1.387 . S
C1227 C1229 1.387 . S
H1228 C1235 0.950 . S
C1229 C1227 1.387 . S
C1229 C1231 1.390 . S
C1229 H1233 0.950 . S
H1230 C1226 0.950 . S
C1231 C1229 1.390 . S
C1231 C1232 1.387 . S
C1231 H1234 0.950 . S
C1232 C1231 1.387 . S
C1232 C1235 1.387 . S
H1233 C1229 0.950 . S
H1234 C1231 0.950 . S
C1235 C1226 1.390 . S
C1235 H1228 0.950 . S
C1235 C1232 1.387 . S
C1236 C1237 1.387 . S
C1236 H1240 0.950 . S
C1236 C1245 1.390 . S
C1237 C1236 1.387 . S
C1237 C1239 1.387 . S
H1238 C1245 0.950 . S
C1239 C1237 1.387 . S
C1239 C1241 1.390 . S
C1239 H1243 0.950 . S
H1240 C1236 0.950 . S
C1241 C1239 1.390 . S
C1241 C1242 1.387 . S
C1241 H1244 0.950 . S
C1242 C1241 1.387 . S
C1242 C1245 1.387 . S
H1243 C1239 0.950 . S
H1244 C1241 0.950 . S
C1245 C1236 1.390 . S
C1245 H1238 0.950 . S
C1245 C1242 1.387 . S
C1246 C1247 1.387 . S
C1246 H1250 0.950 . S
C1246 C1255 1.390 . S
C1247 C1246 1.387 . S
C1247 C1249 1.387 . S
H1248 C1255 0.950 . S
C1249 C1247 1.387 . S
C1249 C1251 1.390 . S
C1249 H1253 0.950 . S
H1250 C1246 0.950 . S
C1251 C1249 1.390 . S
C1251 C1252 1.387 . S
C1251 H1254 0.950 . S
C1252 C1251 1.387 . S
C1252 C1255 1.387 . S
H1253 C1249 0.950 . S
H1254 C1251 0.950 . S
C1255 C1246 1.390 . S
C1255 H1248 0.950 . S
C1255 C1252 1.387 . S
C1256 C1257 1.387 . S
C1256 H1260 0.950 . S
C1256 C1265 1.390 . S
C1257 C1256 1.387 . S
C1257 C1259 1.387 . S
H1258 C1265 0.950 . S
C1259 C1257 1.387 . S
C1259 C1261 1.390 . S
C1259 H1263 0.950 . S
H1260 C1256 0.950 . S
C1261 C1259 1.390 . S
C1261 C1262 1.387 . S
C1261 H1264 0.950 . S
C1262 C1261 1.387 . S
C1262 C1265 1.387 . S
H1263 C1259 0.950 . S
H1264 C1261 0.950 . S
C1265 C1256 1.390 . S
C1265 H1258 0.950 . S
C1265 C1262 1.387 . S
C1266 C1267 1.387 . S
C1266 H1270 0.950 . S
C1266 C1275 1.390 . S
C1267 C1266 1.387 . S
C1267 C1269 1.387 . S
H1268 C1275 0.950 . S
C1269 C1267 1.387 . S
C1269 C1271 1.390 . S
C1269 H1273 0.950 . S
H1270 C1266 0.950 . S
C1271 C1269 1.390 . S
C1271 C1272 1.387 . S
C1271 H1274 0.950 . S
C1272 C1271 1.387 . S
C1272 C1275 1.387 . S
H1273 C1269 0.950 . S
H1274 C1271 0.950 . S
C1275 C1266 1.390 . S
C1275 H1268 0.950 . S
C1275 C1272 1.387 . S
C1276 C1277 1.387 . S
C1276 H1280 0.950 . S
C1276 C1285 1.390 . S
C1277 C1276 1.387 . S
C1277 C1279 1.387 . S
H1278 C1285 0.950 . S
C1279 C1277 1.387 . S
C1279 C1281 1.390 . S
C1279 H1283 0.950 . S
H1280 C1276 0.950 . S
C1281 C1279 1.390 . S
C1281 C1282 1.387 . S
C1281 H1284 0.950 . S
C1282 C1281 1.387 . S
C1282 C1285 1.387 . S
H1283 C1279 0.950 . S
H1284 C1281 0.950 . S
C1285 C1276 1.390 . S
C1285 H1278 0.950 . S
C1285 C1282 1.387 . S
C1286 C1287 1.387 . S
C1286 H1290 0.950 . S
C1286 C1295 1.390 . S
C1287 C1286 1.387 . S
C1287 C1289 1.387 1_565 S
H1288 C1295 0.950 . S
C1289 C1287 1.387 1_545 S
C1289 C1291 1.390 1_545 S
C1289 H1293 0.950 . S
H1290 C1286 0.950 . S
C1291 C1289 1.390 1_565 S
C1291 C1292 1.387 . S
C1291 H1294 0.950 1_565 S
C1292 C1291 1.387 . S
C1292 C1295 1.387 . S
H1293 C1289 0.950 . S
H1294 C1291 0.950 1_545 S
C1295 C1286 1.390 . S
C1295 H1288 0.950 . S
C1295 C1292 1.387 . S
C1296 C1297 1.387 . S
C1296 H1300 0.950 . S
C1296 C1305 1.390 . S
C1297 C1296 1.387 . S
C1297 C1299 1.387 . S
H1298 C1305 0.950 . S
C1299 C1297 1.387 . S
C1299 C1301 1.390 . S
C1299 H1303 0.950 . S
H1300 C1296 0.950 . S
C1301 C1299 1.390 . S
C1301 C1302 1.387 . S
C1301 H1304 0.950 . S
C1302 C1301 1.387 . S
C1302 C1305 1.387 . S
H1303 C1299 0.950 . S
H1304 C1301 0.950 . S
C1305 C1296 1.390 . S
C1305 H1298 0.950 . S
C1305 C1302 1.387 . S
C1306 C1307 1.387 . S
C1306 H1310 0.950 . S
C1306 C1315 1.390 . S
C1307 C1306 1.387 . S
C1307 C1309 1.387 . S
H1308 C1315 0.950 . S
C1309 C1307 1.387 . S
C1309 C1311 1.390 . S
C1309 H1313 0.950 1_545 S
H1310 C1306 0.950 . S
C1311 C1309 1.390 . S
C1311 C1312 1.387 . S
C1311 H1314 0.950 1_545 S
C1312 C1311 1.387 . S
C1312 C1315 1.387 . S
H1313 C1309 0.950 1_565 S
H1314 C1311 0.950 1_565 S
C1315 C1306 1.390 . S
C1315 H1308 0.950 . S
C1315 C1312 1.387 . S
C1316 C1317 1.387 . S
C1316 H1320 0.950 . S
C1316 C1325 1.390 . S
C1317 C1316 1.387 . S
C1317 C1319 1.387 . S
H1318 C1325 0.950 . S
C1319 C1317 1.387 . S
C1319 C1321 1.390 . S
C1319 H1323 0.950 . S
H1320 C1316 0.950 . S
C1321 C1319 1.390 . S
C1321 C1322 1.387 . S
C1321 H1324 0.950 . S
C1322 C1321 1.387 . S
C1322 C1325 1.387 . S
H1323 C1319 0.950 . S
H1324 C1321 0.950 . S
C1325 C1316 1.390 . S
C1325 H1318 0.950 . S
C1325 C1322 1.387 . S
C1326 C1327 1.387 . S
C1326 H1330 0.950 . S
C1326 C1335 1.390 . S
C1327 C1326 1.387 . S
C1327 C1329 1.387 1_556 S
H1328 C1335 0.950 . S
C1329 C1327 1.387 1_554 S
C1329 C1331 1.390 . S
C1329 H1333 0.950 . S
H1330 C1326 0.950 . S
C1331 C1329 1.390 . S
C1331 C1332 1.387 1_554 S
C1331 H1334 0.950 . S
C1332 C1331 1.387 1_556 S
C1332 C1335 1.387 . S
H1333 C1329 0.950 . S
H1334 C1331 0.950 . S
C1335 C1326 1.390 . S
C1335 H1328 0.950 . S
C1335 C1332 1.387 . S
C1336 C1337 1.387 . S
C1336 H1340 0.950 . S
C1336 C1345 1.390 . S
C1337 C1336 1.387 . S
C1337 C1339 1.387 1_556 S
H1338 C1345 0.950 . S
C1339 C1337 1.387 1_554 S
C1339 C1341 1.390 . S
C1339 H1343 0.950 . S
H1340 C1336 0.950 . S
C1341 C1339 1.390 . S
C1341 C1342 1.387 1_554 S
C1341 H1344 0.950 . S
C1342 C1341 1.387 1_556 S
C1342 C1345 1.387 . S
H1343 C1339 0.950 . S
H1344 C1341 0.950 . S
C1345 C1336 1.390 . S
C1345 H1338 0.950 . S
C1345 C1342 1.387 . S
C1346 C1347 1.387 . S
C1346 H1350 0.950 1_554 S
C1346 C1355 1.390 . S
C1347 C1346 1.387 . S
C1347 C1349 1.387 . S
H1348 C1355 0.947 1_556 S
C1349 C1347 1.387 . S
C1349 C1351 1.390 . S
C1349 H1353 0.950 . S
H1350 C1346 0.950 1_556 S
C1351 C1349 1.390 . S
C1351 C1352 1.387 . S
C1351 H1354 0.950 . S
C1352 C1351 1.387 . S
C1352 C1355 1.390 . S
H1353 C1349 0.950 . S
H1354 C1351 0.950 . S
C1355 C1346 1.390 . S
C1355 H1348 0.947 1_554 S
C1355 C1352 1.390 . S
C877 C22 1.736 . S
C882 C723 1.684 1_545 S
C892 N740 1.777 . S
C887 C38 1.933 . S
C902 N642 1.818 . S
C897 C75 1.738 . S
C907 C91 1.370 . S
C912 C667 1.361 . S
C917 C128 1.827 . S
C922 C862 1.831 1_554 S
C927 C197 1.569 . S
C932 N822 1.576 . S
C942 N770 1.697 . S
C937 C144 1.869 . S
C947 C181 1.735 . S
C952 C796 1.731 . S
C962 C682 1.861 . S
C957 C234 1.861 . S
C972 C727 1.907 . S
C967 C303 1.907 . S
C977 C356 1.862 . S
C982 C706 1.893 . S
C987 C287 1.916 . S
C992 C813 1.913 . S
C1002 C843 1.594 . S
C997 C393 1.622 . S
C1012 N860 1.805 . S
C1007 C409 2.024 . S
C1017 C462 1.891 . S
C1022 N792 1.955 . S
C1032 C757 1.332 1_545 S
C1027 C446 1.320 . S
C1037 C499 1.800 . S
C1042 C742 1.789 . S
C1047 C552 1.465 . S
C1052 N702 1.493 . S
C1062 N680 1.563 . S
C1057 C515 1.750 . S
C1067 C568 1.975 . S
C1072 C646 1.978 . S
C1082 C772 1.926 . S
C1077 C340 1.913 . S
C1092 C847 1.853 . S
C1087 C621 1.853 . S
C1097 C250 1.776 . S
C1102 C826 1.783 1_554 S
C1107 C605 1.881 . S
C1112 C663 1.850 1_655 S
C1122 C637 1.568 . S
C1117 C39 1.519 . S
C1127 C29 0.876 . S
C1132 N672 0.873 1_455 S
C1142 N710 1.347 . S
C1137 C92 1.466 . S
C1152 C753 1.844 . S
C1147 C82 1.739 . S
C1157 C145 1.733 . S
C1162 C652 1.735 . S
C1167 C188 1.466 . S
C1172 C693 1.448 . S
C1182 C697 1.262 . S
C1177 C135 1.250 . S
C1187 C198 1.686 . S
C1192 C736 1.679 . S
C1197 C251 1.213 . S
C1202 N650 1.211 . S
C1212 C712 1.718 . S
C1207 C294 1.681 . S
C1217 C347 1.167 . S
C1222 N732 1.164 . S
C1227 C304 1.703 . S
C1232 C766 1.724 . S
C1242 C787 1.572 . S
C1237 C410 1.559 . S
C1247 C400 0.858 . S
C1252 N762 0.857 . S
C1257 C453 1.144 . S
C1262 N830 1.091 . S
C1267 C463 2.044 . S
C1272 C873 2.094 . S
C1277 C516 1.716 . S
C1282 C802 1.736 . S
C1292 C783 1.816 . S
C1287 C569 1.858 . S
C1297 C506 1.151 . S
C1302 C817 1.137 . S
C1312 C856 1.489 . S
C1307 C559 1.456 . S
C1322 N800 1.106 . S
C1317 C357 1.129 . S
C1332 C832 1.699 . S
C1327 C612 1.666 . S
C1342 N852 1.138 . S
C1337 C241 1.133 . S
C1347 C622 1.631 . S
C1352 C676 1.632 . S
