# Generated by pormake.
# Topology ctn, (3,4)-cn, num edge types: 1
# Building blocks:
#     Node 0, Type 0, BuildingBlock: OLANEW_clean_sbu_2, # of connection points: 3
#     Node 1, Type 0, BuildingBlock: OLANEW_clean_sbu_2, # of connection points: 3
#     Node 2, Type 0, BuildingBlock: OLANEW_clean_sbu_2, # of connection points: 3
#     Node 3, Type 0, BuildingBlock: OLANEW_clean_sbu_2, # of connection points: 3
#     Node 4, Type 0, BuildingBlock: OLANEW_clean_sbu_2, # of connection points: 3
#     Node 5, Type 0, BuildingBlock: OLANEW_clean_sbu_2, # of connection points: 3
#     Node 6, Type 0, BuildingBlock: OLANEW_clean_sbu_2, # of connection points: 3
#     Node 7, Type 0, BuildingBlock: OLANEW_clean_sbu_2, # of connection points: 3
#     Node 8, Type 0, BuildingBlock: OLANEW_clean_sbu_2, # of connection points: 3
#     Node 9, Type 0, BuildingBlock: OLANEW_clean_sbu_2, # of connection points: 3
#     Node 10, Type 0, BuildingBlock: OLANEW_clean_sbu_2, # of connection points: 3
#     Node 11, Type 0, BuildingBlock: OLANEW_clean_sbu_2, # of connection points: 3
#     Node 12, Type 0, BuildingBlock: OLANEW_clean_sbu_2, # of connection points: 3
#     Node 13, Type 0, BuildingBlock: OLANEW_clean_sbu_2, # of connection points: 3
#     Node 14, Type 0, BuildingBlock: OLANEW_clean_sbu_2, # of connection points: 3
#     Node 15, Type 0, BuildingBlock: OLANEW_clean_sbu_2, # of connection points: 3
#     Node 16, Type 1, BuildingBlock: QUQFOY_clean_sbu_1, # of connection points: 4
#     Node 17, Type 1, BuildingBlock: QUQFOY_clean_sbu_1, # of connection points: 4
#     Node 18, Type 1, BuildingBlock: QUQFOY_clean_sbu_1, # of connection points: 4
#     Node 19, Type 1, BuildingBlock: QUQFOY_clean_sbu_1, # of connection points: 4
#     Node 20, Type 1, BuildingBlock: QUQFOY_clean_sbu_1, # of connection points: 4
#     Node 21, Type 1, BuildingBlock: QUQFOY_clean_sbu_1, # of connection points: 4
#     Node 22, Type 1, BuildingBlock: QUQFOY_clean_sbu_1, # of connection points: 4
#     Node 23, Type 1, BuildingBlock: QUQFOY_clean_sbu_1, # of connection points: 4
#     Node 24, Type 1, BuildingBlock: QUQFOY_clean_sbu_1, # of connection points: 4
#     Node 25, Type 1, BuildingBlock: QUQFOY_clean_sbu_1, # of connection points: 4
#     Node 26, Type 1, BuildingBlock: QUQFOY_clean_sbu_1, # of connection points: 4
#     Node 27, Type 1, BuildingBlock: QUQFOY_clean_sbu_1, # of connection points: 4
#     Edge 28, Type (0, 1), BuildingBlock: XUDNAN_clean_linker_2, # of connection points: 2
#     Edge 29, Type (0, 1), BuildingBlock: XUDNAN_clean_linker_2, # of connection points: 2
#     Edge 30, Type (0, 1), BuildingBlock: XUDNAN_clean_linker_2, # of connection points: 2
#     Edge 31, Type (0, 1), BuildingBlock: XUDNAN_clean_linker_2, # of connection points: 2
#     Edge 32, Type (0, 1), BuildingBlock: XUDNAN_clean_linker_2, # of connection points: 2
#     Edge 33, Type (0, 1), BuildingBlock: XUDNAN_clean_linker_2, # of connection points: 2
#     Edge 34, Type (0, 1), BuildingBlock: XUDNAN_clean_linker_2, # of connection points: 2
#     Edge 35, Type (0, 1), BuildingBlock: XUDNAN_clean_linker_2, # of connection points: 2
#     Edge 36, Type (0, 1), BuildingBlock: XUDNAN_clean_linker_2, # of connection points: 2
#     Edge 37, Type (0, 1), BuildingBlock: XUDNAN_clean_linker_2, # of connection points: 2
#     Edge 38, Type (0, 1), BuildingBlock: XUDNAN_clean_linker_2, # of connection points: 2
#     Edge 39, Type (0, 1), BuildingBlock: XUDNAN_clean_linker_2, # of connection points: 2
#     Edge 40, Type (0, 1), BuildingBlock: XUDNAN_clean_linker_2, # of connection points: 2
#     Edge 41, Type (0, 1), BuildingBlock: XUDNAN_clean_linker_2, # of connection points: 2
#     Edge 42, Type (0, 1), BuildingBlock: XUDNAN_clean_linker_2, # of connection points: 2
#     Edge 43, Type (0, 1), BuildingBlock: XUDNAN_clean_linker_2, # of connection points: 2
#     Edge 44, Type (0, 1), BuildingBlock: XUDNAN_clean_linker_2, # of connection points: 2
#     Edge 45, Type (0, 1), BuildingBlock: XUDNAN_clean_linker_2, # of connection points: 2
#     Edge 46, Type (0, 1), BuildingBlock: XUDNAN_clean_linker_2, # of connection points: 2
#     Edge 47, Type (0, 1), BuildingBlock: XUDNAN_clean_linker_2, # of connection points: 2
#     Edge 48, Type (0, 1), BuildingBlock: XUDNAN_clean_linker_2, # of connection points: 2
#     Edge 49, Type (0, 1), BuildingBlock: XUDNAN_clean_linker_2, # of connection points: 2
#     Edge 50, Type (0, 1), BuildingBlock: XUDNAN_clean_linker_2, # of connection points: 2
#     Edge 51, Type (0, 1), BuildingBlock: XUDNAN_clean_linker_2, # of connection points: 2
#     Edge 52, Type (0, 1), BuildingBlock: XUDNAN_clean_linker_2, # of connection points: 2
#     Edge 53, Type (0, 1), BuildingBlock: XUDNAN_clean_linker_2, # of connection points: 2
#     Edge 54, Type (0, 1), BuildingBlock: XUDNAN_clean_linker_2, # of connection points: 2
#     Edge 55, Type (0, 1), BuildingBlock: XUDNAN_clean_linker_2, # of connection points: 2
#     Edge 56, Type (0, 1), BuildingBlock: XUDNAN_clean_linker_2, # of connection points: 2
#     Edge 57, Type (0, 1), BuildingBlock: XUDNAN_clean_linker_2, # of connection points: 2
#     Edge 58, Type (0, 1), BuildingBlock: XUDNAN_clean_linker_2, # of connection points: 2
#     Edge 59, Type (0, 1), BuildingBlock: XUDNAN_clean_linker_2, # of connection points: 2
#     Edge 60, Type (0, 1), BuildingBlock: XUDNAN_clean_linker_2, # of connection points: 2
#     Edge 61, Type (0, 1), BuildingBlock: XUDNAN_clean_linker_2, # of connection points: 2
#     Edge 62, Type (0, 1), BuildingBlock: XUDNAN_clean_linker_2, # of connection points: 2
#     Edge 63, Type (0, 1), BuildingBlock: XUDNAN_clean_linker_2, # of connection points: 2
#     Edge 64, Type (0, 1), BuildingBlock: XUDNAN_clean_linker_2, # of connection points: 2
#     Edge 65, Type (0, 1), BuildingBlock: XUDNAN_clean_linker_2, # of connection points: 2
#     Edge 66, Type (0, 1), BuildingBlock: XUDNAN_clean_linker_2, # of connection points: 2
#     Edge 67, Type (0, 1), BuildingBlock: XUDNAN_clean_linker_2, # of connection points: 2
#     Edge 68, Type (0, 1), BuildingBlock: XUDNAN_clean_linker_2, # of connection points: 2
#     Edge 69, Type (0, 1), BuildingBlock: XUDNAN_clean_linker_2, # of connection points: 2
#     Edge 70, Type (0, 1), BuildingBlock: XUDNAN_clean_linker_2, # of connection points: 2
#     Edge 71, Type (0, 1), BuildingBlock: XUDNAN_clean_linker_2, # of connection points: 2
#     Edge 72, Type (0, 1), BuildingBlock: XUDNAN_clean_linker_2, # of connection points: 2
#     Edge 73, Type (0, 1), BuildingBlock: XUDNAN_clean_linker_2, # of connection points: 2
#     Edge 74, Type (0, 1), BuildingBlock: XUDNAN_clean_linker_2, # of connection points: 2
#     Edge 75, Type (0, 1), BuildingBlock: XUDNAN_clean_linker_2, # of connection points: 2
# Relax obj value: 0.082
# Max RMSD: 0.186
# Mean RMSD: 0.126
data_MOF--net-ctn--node1-OLANEW_clean_sbu_2--node2-QUQFOY_clean_sbu_1--edge1-XUDNAN_clean_linker_2
_symmetry_space_group_name_H-M    P1
_symmetry_Int_Tables_number       1
_symmetry_cell_setting            triclinic
loop_
_symmetry_equiv_pos_as_xyz
'x, y, z'
_cell_length_a     57.810285
_cell_length_b     59.556275
_cell_length_c     56.086265
_cell_angle_alpha  94.140349
_cell_angle_beta   94.970172
_cell_angle_gamma 100.45664
loop_
_atom_site_label
_atom_site_type_symbol
_atom_site_fract_x
_atom_site_fract_y
_atom_site_fract_z
_atom_type_partial_charge
O0 O 0.052 0.09385 0.00262 0.0
Cd1 Cd 0.04521 0.05373 0.01224 0.0
O2 O 0.0263 0.09828 0.02806 0.0
Cd3 Cd 0.0048 0.11556 0.05094 0.0
O4 O 0.98615 0.11769 0.08307 0.0
C5 C 0.98824 0.10167 0.09642 0.0
O6 O 0.00081 0.08646 0.0897 0.0
C7 C 0.03973 0.10666 0.01282 0.0
C8 C 0.08473 0.03373 0.02228 0.0
O9 O 0.07582 0.03422 0.00062 0.0
O10 O 0.07542 0.04337 0.03923 0.0
O11 O 0.33869 0.78118 0.27432 0.0
Cd12 Cd 0.29998 0.78311 0.25376 0.0
O13 O 0.33411 0.74468 0.26155 0.0
Cd14 Cd 0.29712 0.73991 0.24736 0.0
O15 O 0.26603 0.71674 0.25641 0.0
C16 C 0.26902 0.70991 0.27722 0.0
O17 O 0.28908 0.71799 0.29051 0.0
C18 C 0.3467 0.76264 0.27287 0.0
C19 C 0.30287 0.80318 0.21039 0.0
O20 O 0.29974 0.81486 0.22955 0.0
O21 O 0.30473 0.78219 0.21179 0.0
O22 O 0.89802 0.49785 0.18971 0.0
Cd23 Cd 0.85558 0.49318 0.17884 0.0
O24 O 0.90115 0.48057 0.15456 0.0
Cd25 Cd 0.92266 0.46597 0.12973 0.0
O26 O 0.94665 0.44923 0.11006 0.0
C27 C 0.9419 0.4276 0.10545 0.0
O28 O 0.92249 0.41596 0.11244 0.0
C29 C 0.9108 0.49073 0.17463 0.0
C30 C 0.84512 0.53043 0.15542 0.0
O31 O 0.84523 0.53034 0.17827 0.0
O32 O 0.84986 0.51285 0.14364 0.0
O33 O 0.78704 0.82704 0.25107 0.0
Cd34 Cd 0.76115 0.78995 0.25319 0.0
O35 O 0.78509 0.83713 0.28925 0.0
Cd36 Cd 0.75959 0.80707 0.29576 0.0
O37 O 0.72748 0.79217 0.31091 0.0
C38 C 0.71243 0.80523 0.312 0.0
O39 O 0.7171 0.82531 0.30334 0.0
C40 C 0.79303 0.84155 0.26933 0.0
C41 C 0.74522 0.76642 0.20824 0.0
O42 O 0.7334 0.7802 0.21801 0.0
O43 O 0.76464 0.76392 0.21967 0.0
O44 O 0.12664 0.94814 0.50244 0.0
Cd45 Cd 0.10542 0.909 0.50416 0.0
O46 O 0.09433 0.96272 0.50093 0.0
Cd47 Cd 0.07516 0.9899 0.49201 0.0
O48 O 0.05522 0.01054 0.47073 0.0
C49 C 0.06548 0.02227 0.4553 0.0
O50 O 0.08807 0.02254 0.45366 0.0
C51 C 0.11657 0.96528 0.50038 0.0
C52 C 0.08841 0.89737 0.54747 0.0
O53 O 0.10972 0.89628 0.54357 0.0
O54 O 0.07548 0.90482 0.53124 0.0
O55 O 0.27809 0.77036 0.851 0.0
Cd56 Cd 0.28306 0.74375 0.81722 0.0
O57 O 0.24145 0.7631 0.83498 0.0
Cd58 Cd 0.20351 0.76343 0.83072 0.0
O59 O 0.16555 0.75749 0.81986 0.0
C60 C 0.15724 0.76868 0.80379 0.0
O61 O 0.17171 0.78449 0.79439 0.0
C62 C 0.2571 0.77399 0.85113 0.0
C63 C 0.31347 0.71309 0.82553 0.0
O64 O 0.32091 0.73256 0.81776 0.0
O65 O 0.29187 0.70848 0.83017 0.0
O66 O 0.89562 0.59121 0.35352 0.0
Cd67 Cd 0.85583 0.59819 0.35821 0.0
O68 O 0.90161 0.59882 0.39248 0.0
Cd69 Cd 0.92119 0.60621 0.42815 0.0
O70 O 0.9334 0.61851 0.46551 0.0
C71 C 0.93161 0.63885 0.47247 0.0
O72 O 0.92312 0.65148 0.45687 0.0
C73 C 0.90934 0.59313 0.37282 0.0
C74 C 0.83757 0.57307 0.39461 0.0
O75 O 0.83305 0.56509 0.37252 0.0
O76 O 0.85025 0.59315 0.39943 0.0
O77 O 0.78282 0.79978 0.8529 0.0
Cd78 Cd 0.77952 0.82383 0.81972 0.0
O79 O 0.74446 0.79136 0.85513 0.0
Cd80 Cd 0.73739 0.81874 0.83337 0.0
O81 O 0.73118 0.85358 0.83091 0.0
C82 C 0.71378 0.8589 0.8186 0.0
O83 O 0.69871 0.84281 0.80514 0.0
C84 C 0.76524 0.7884 0.86164 0.0
C85 C 0.80478 0.80799 0.78402 0.0
O86 O 0.81417 0.82541 0.79868 0.0
O87 O 0.78327 0.79866 0.78572 0.0
O88 O 0.24717 0.29759 0.35084 0.0
Cd89 Cd 0.2439 0.31347 0.31195 0.0
O90 O 0.22507 0.31954 0.36747 0.0
Cd91 Cd 0.21804 0.33901 0.33701 0.0
O92 O 0.20057 0.36511 0.32175 0.0
C93 C 0.19557 0.37983 0.33707 0.0
O94 O 0.20169 0.37849 0.35997 0.0
C95 C 0.23724 0.30383 0.36889 0.0
C96 C 0.28663 0.32044 0.29137 0.0
O97 O 0.2799 0.33701 0.30303 0.0
O98 O 0.27325 0.3006 0.28954 0.0
O99 O 0.43488 0.01406 0.63396 0.0
Cd100 Cd 0.39405 0.0009 0.61688 0.0
O101 O 0.44583 0.982 0.62214 0.0
Cd102 Cd 0.47221 0.96109 0.61484 0.0
O103 O 0.49304 0.94128 0.59405 0.0
C104 C 0.48522 0.92012 0.5879 0.0
O105 O 0.46525 0.91028 0.5954 0.0
C106 C 0.45093 0.00216 0.63265 0.0
C107 C 0.37455 0.03842 0.60421 0.0
O108 O 0.37419 0.03199 0.62551 0.0
O109 O 0.3839 0.02692 0.58875 0.0
O110 O 0.24935 0.33763 0.76519 0.0
Cd111 Cd 0.22767 0.2985 0.76684 0.0
O112 O 0.21677 0.35184 0.76288 0.0
Cd113 Cd 0.19446 0.32036 0.77112 0.0
O114 O 0.17587 0.31211 0.80247 0.0
C115 C 0.1848 0.32531 0.82109 0.0
O116 O 0.204 0.34058 0.8196 0.0
C117 C 0.23912 0.35468 0.76309 0.0
C118 C 0.23175 0.26906 0.72705 0.0
O119 O 0.21489 0.28039 0.72708 0.0
O120 O 0.24669 0.27178 0.74578 0.0
O121 O 0.84205 0.31245 0.77627 0.0
Cd122 Cd 0.80794 0.30142 0.74598 0.0
O123 O 0.83406 0.27955 0.79218 0.0
Cd124 Cd 0.80186 0.26392 0.76943 0.0
O125 O 0.77734 0.23109 0.76431 0.0
C126 C 0.78702 0.21432 0.7696 0.0
O127 O 0.80991 0.21825 0.776 0.0
C128 C 0.84719 0.29906 0.79173 0.0
C129 C 0.81064 0.32967 0.70832 0.0
O130 O 0.79765 0.33282 0.72518 0.0
O131 O 0.82222 0.31329 0.70928 0.0
O132 O 0.57462 0.60471 0.55075 0.0
Cd133 Cd 0.57294 0.57625 0.58046 0.0
O134 O 0.54066 0.61232 0.56066 0.0
Cd135 Cd 0.53695 0.5925 0.59169 0.0
O136 O 0.52261 0.58853 0.62612 0.0
C137 C 0.51657 0.56941 0.63466 0.0
O138 O 0.51976 0.55057 0.62276 0.0
C139 C 0.55758 0.61538 0.54748 0.0
C140 C 0.60413 0.54576 0.57603 0.0
O141 O 0.58412 0.54221 0.56323 0.0
O142 O 0.60958 0.56392 0.59064 0.0
O143 O 0.64732 0.43231 0.00031 0.0
Cd144 Cd 0.63138 0.39418 0.01132 0.0
O145 O 0.61396 0.44394 0.00488 0.0
Cd146 Cd 0.58939 0.46762 0.00057 0.0
O147 O 0.56052 0.48362 0.98664 0.0
C148 C 0.5555 0.48099 0.96399 0.0
O149 O 0.56817 0.46968 0.95092 0.0
C150 C 0.63512 0.44801 0.99943 0.0
C151 C 0.60708 0.39464 0.05205 0.0
O152 O 0.62942 0.3951 0.05381 0.0
O153 O 0.59632 0.39432 0.03102 0.0
O154 O 0.72163 0.21341 0.39527 0.0
Cd155 Cd 0.7082 0.17797 0.36909 0.0
O156 O 0.69211 0.22705 0.37874 0.0
Cd157 Cd 0.66924 0.25117 0.36896 0.0
O158 O 0.64079 0.26494 0.35052 0.0
C159 C 0.64421 0.2843 0.34195 0.0
O160 O 0.66548 0.2971 0.34503 0.0
C161 C 0.71036 0.22979 0.39383 0.0
C162 C 0.74589 0.15929 0.35371 0.0
O163 O 0.73718 0.17387 0.34173 0.0
O164 O 0.7368 0.15361 0.37297 0.0
O165 O 0.50068 0.09126 0.97742 0.0
Cd166 Cd 0.48483 0.10075 0.01509 0.0
O167 O 0.53796 0.10235 0.99182 0.0
Cd168 Cd 0.5275 0.11805 0.02467 0.0
O169 O 0.51183 0.14028 0.04881 0.0
C170 C 0.49745 0.15159 0.03913 0.0
O171 O 0.49287 0.14923 0.01562 0.0
C172 C 0.52254 0.09327 0.97462 0.0
C173 C 0.44001 0.07466 0.01698 0.0
O174 O 0.44264 0.09429 0.00852 0.0
O175 O 0.45861 0.06746 0.02473 0.0
O176 O 0.27081 0.88668 0.0018 0.0
Cd177 Cd 0.2832 0.90715 0.03323 0.0
Cd178 Cd 0.24704 0.93136 0.01313 0.0
O179 O 0.24178 0.90328 0.98801 0.0
O180 O 0.30469 0.88882 0.04908 0.0
O181 O 0.27335 0.89703 0.06517 0.0
C182 C 0.29131 0.88689 0.06629 0.0
C183 C 0.21382 0.94681 0.02174 0.0
C184 C 0.2538 0.88747 0.98613 0.0
C185 C 0.29859 0.95613 0.02221 0.0
O186 O 0.27734 0.95588 0.014 0.0
O187 O 0.30441 0.93869 0.03116 0.0
O188 O 0.22227 0.94838 0.00132 0.0
O189 O 0.22388 0.93583 0.03738 0.0
O190 O 0.1347 0.57626 0.3234 0.0
Cd191 Cd 0.10786 0.54858 0.32512 0.0
Cd192 Cd 0.08926 0.56463 0.28651 0.0
O193 O 0.12291 0.58356 0.28682 0.0
O194 O 0.12148 0.52488 0.34208 0.0
O195 O 0.1083 0.52051 0.30344 0.0
C196 C 0.11819 0.51257 0.32172 0.0
C197 C 0.06794 0.54346 0.25284 0.0
C198 C 0.13821 0.58728 0.30505 0.0
C199 C 0.06379 0.56668 0.3304 0.0
O200 O 0.06733 0.57477 0.3104 0.0
O201 O 0.0772 0.554 0.33924 0.0
O202 O 0.0725 0.56555 0.25414 0.0
O203 O 0.07697 0.53332 0.26992 0.0
O204 O 0.73572 0.67349 0.98936 0.0
Cd205 Cd 0.7232 0.65414 0.01634 0.0
Cd206 Cd 0.76304 0.63726 0.01033 0.0
O207 O 0.77133 0.66478 0.99035 0.0
O208 O 0.70288 0.67142 0.03501 0.0
O209 O 0.73756 0.66491 0.04973 0.0
C210 C 0.71931 0.67404 0.05267 0.0
C211 C 0.78744 0.62952 0.04275 0.0
C212 C 0.75639 0.67643 0.98247 0.0
C213 C 0.71642 0.60518 0.99762 0.0
O214 O 0.73836 0.60953 0.99502 0.0
O215 O 0.70666 0.62026 0.00782 0.0
O216 O 0.7917 0.62458 0.02096 0.0
O217 O 0.77014 0.63997 0.04599 0.0
O218 O 0.94675 0.04815 0.31237 0.0
Cd219 Cd 0.92055 0.04153 0.2838 0.0
Cd220 Cd 0.893 0.04264 0.32077 0.0
O221 O 0.92446 0.04775 0.34239 0.0
O222 O 0.93917 0.04295 0.25564 0.0
O223 O 0.91476 0.0666 0.2627 0.0
C224 C 0.92959 0.05974 0.24923 0.0
C225 C 0.86864 0.06962 0.32255 0.0
C226 C 0.94474 0.04967 0.33479 0.0
C227 C 0.8839 0.99913 0.28899 0.0
O228 O 0.87825 0.00957 0.30752 0.0
O229 O 0.89999 0.009 0.27716 0.0
O230 O 0.86932 0.05526 0.33866 0.0
O231 O 0.88216 0.06879 0.30542 0.0
O232 O 0.22527 0.19177 0.50708 0.0
Cd233 Cd 0.22015 0.16668 0.53083 0.0
Cd234 Cd 0.2555 0.15317 0.50612 0.0
O235 O 0.25574 0.183 0.48962 0.0
O236 O 0.20493 0.17951 0.55833 0.0
O237 O 0.24101 0.17184 0.56179 0.0
C238 C 0.22437 0.17964 0.57159 0.0
C239 C 0.28737 0.14455 0.52946 0.0
C240 C 0.24081 0.196 0.49243 0.0
C241 C 0.20903 0.12013 0.50342 0.0
O242 O 0.22891 0.12561 0.49522 0.0
O243 O 0.20231 0.13372 0.5188 0.0
O244 O 0.28608 0.14174 0.50628 0.0
O245 O 0.27135 0.15359 0.53904 0.0
O246 O 0.43019 0.51177 0.83577 0.0
Cd247 Cd 0.41024 0.5143 0.80436 0.0
Cd248 Cd 0.38498 0.53545 0.83469 0.0
O249 O 0.40967 0.52832 0.86084 0.0
O250 O 0.43025 0.50998 0.77788 0.0
O251 O 0.41797 0.5424 0.78685 0.0
C252 C 0.42978 0.5309 0.77363 0.0
C253 C 0.37929 0.5731 0.83329 0.0
C254 C 0.427 0.51854 0.85703 0.0
C255 C 0.35923 0.49325 0.80353 0.0
O256 O 0.35784 0.50964 0.81886 0.0
O257 O 0.37884 0.49159 0.79564 0.0
O258 O 0.36955 0.56012 0.84852 0.0
O259 O 0.39255 0.56473 0.81898 0.0
O260 O 0.7621 0.38835 0.50358 0.0
Cd261 Cd 0.76882 0.41741 0.52755 0.0
Cd262 Cd 0.72821 0.42155 0.50376 0.0
O263 O 0.72472 0.38755 0.49131 0.0
O264 O 0.79716 0.41243 0.54777 0.0
O265 O 0.76295 0.41323 0.56217 0.0
C266 C 0.78453 0.41024 0.56556 0.0
C267 C 0.70261 0.43675 0.52708 0.0
C268 C 0.74278 0.37815 0.49186 0.0
C269 C 0.77 0.45592 0.4963 0.0
O270 O 0.74985 0.44538 0.48682 0.0
O271 O 0.77974 0.44902 0.51488 0.0
O272 O 0.69715 0.43135 0.5043 0.0
O273 O 0.72203 0.43199 0.53688 0.0
O274 O 0.66925 0.06523 0.80569 0.0
Cd275 Cd 0.64431 0.03957 0.81605 0.0
Cd276 Cd 0.61502 0.05959 0.7815 0.0
O277 O 0.64724 0.08088 0.78 0.0
O278 O 0.6644 0.02342 0.83663 0.0
O279 O 0.64368 0.00688 0.80299 0.0
C280 C 0.65849 0.00573 0.82127 0.0
C281 C 0.59062 0.05154 0.74526 0.0
C282 C 0.66718 0.0802 0.79106 0.0
C283 C 0.60169 0.05648 0.83275 0.0
O284 O 0.59711 0.06189 0.81158 0.0
O285 O 0.61972 0.04774 0.83821 0.0
O286 O 0.59485 0.07153 0.75684 0.0
O287 O 0.60043 0.03576 0.75417 0.0
O288 O 0.99599 0.31272 0.98807 0.0
Cd289 Cd 0.99732 0.2896 0.95927 0.0
Cd290 Cd 0.02787 0.32409 0.94521 0.0
O291 O 0.02524 0.33889 0.97899 0.0
O292 O 0.98945 0.25785 0.96944 0.0
O293 O 0.02464 0.27329 0.9593 0.0
C294 C 0.01103 0.25609 0.96674 0.0
C295 C 0.06499 0.32491 0.93181 0.0
C296 C 0.00989 0.33194 0.99305 0.0
C297 C 0.98161 0.30927 0.91454 0.0
O298 O 0.00049 0.32423 0.91912 0.0
O299 O 0.97735 0.29274 0.92767 0.0
O300 O 0.0564 0.34332 0.93456 0.0
O301 O 0.05268 0.30592 0.93703 0.0
O302 O 0.51374 0.79822 0.45916 0.0
Cd303 Cd 0.51373 0.77029 0.43475 0.0
Cd304 Cd 0.53364 0.80358 0.40923 0.0
O305 O 0.53498 0.82456 0.44022 0.0
O306 O 0.50665 0.74294 0.45329 0.0
O307 O 0.54061 0.75302 0.43806 0.0
C308 C 0.5275 0.73915 0.45022 0.0
C309 C 0.56809 0.79812 0.39325 0.0
C310 C 0.52442 0.81877 0.45841 0.0
C311 C 0.48733 0.77705 0.38783 0.0
O312 O 0.50238 0.79534 0.3872 0.0
O313 O 0.48955 0.76391 0.40443 0.0
O314 O 0.5594 0.81629 0.38987 0.0
O315 O 0.55723 0.78318 0.40604 0.0
O316 O 0.93681 0.74525 0.69566 0.0
Cd317 Cd 0.968 0.73876 0.68405 0.0
Cd318 Cd 0.96265 0.77241 0.656 0.0
O319 O 0.93629 0.77695 0.67764 0.0
O320 O 0.98413 0.72426 0.70996 0.0
O321 O 0.999 0.75799 0.69785 0.0
C322 C 0.00096 0.742 0.71185 0.0
C323 C 0.99074 0.80366 0.64814 0.0
C324 C 0.92759 0.76261 0.6917 0.0
C325 C 0.9601 0.72482 0.63179 0.0
O326 O 0.95659 0.7451 0.62968 0.0
O327 O 0.9661 0.71874 0.65231 0.0
O328 O 0.96931 0.80021 0.63811 0.0
O329 O 0.99601 0.78977 0.66349 0.0
O330 O 0.43922 0.29556 0.21843 0.0
Cd331 Cd 0.46984 0.28651 0.20745 0.0
Cd332 Cd 0.46314 0.31563 0.1737 0.0
O333 O 0.43827 0.32399 0.19534 0.0
O334 O 0.48777 0.2757 0.23511 0.0
O335 O 0.50063 0.3075 0.21831 0.0
C336 C 0.504 0.29356 0.23427 0.0
C337 C 0.49311 0.34303 0.16202 0.0
C338 C 0.43016 0.31238 0.21196 0.0
C339 C 0.46066 0.26625 0.15649 0.0
O340 O 0.45572 0.28544 0.15156 0.0
O341 O 0.46801 0.26328 0.17783 0.0
O342 O 0.47175 0.34025 0.15187 0.0
O343 O 0.49708 0.33108 0.1797 0.0
H344 H 0.27956 0.78676 0.89636 0.0
H345 H 0.22274 0.80014 0.8469 0.0
H346 H 0.2137 0.82844 0.87723 0.0
H347 H 0.25136 0.7937 0.95155 0.0
H348 H 0.27852 0.8079 0.96877 0.0
H349 H 0.27923 0.78723 0.94387 0.0
H350 H 0.30822 0.81751 0.92466 0.0
H351 H 0.30761 0.83823 0.94948 0.0
H352 H 0.30015 0.84467 0.91918 0.0
H353 H 0.21217 0.85682 0.91222 0.0
H354 H 0.21891 0.88375 0.9488 0.0
H355 H 0.27744 0.85263 0.97511 0.0
C356 C 0.26503 0.79546 0.89203 0.0
C357 C 0.2513 0.79062 0.86953 0.0
C358 C 0.23275 0.80268 0.86438 0.0
C359 C 0.22767 0.81904 0.88142 0.0
C360 C 0.24142 0.82327 0.9035 0.0
C361 C 0.25976 0.81187 0.90883 0.0
C362 C 0.27259 0.82041 0.93341 0.0
C363 C 0.27027 0.80116 0.9504 0.0
C364 C 0.29868 0.83083 0.93156 0.0
C365 C 0.25881 0.83863 0.94091 0.0
C366 C 0.24081 0.83991 0.92348 0.0
C367 C 0.22613 0.85589 0.92606 0.0
C368 C 0.2301 0.87113 0.94692 0.0
C369 C 0.24868 0.87034 0.9649 0.0
C370 C 0.26301 0.85366 0.96182 0.0
H371 H 0.93674 0.59936 0.33578 0.0
H372 H 0.9366 0.57667 0.40753 0.0
H373 H 0.97715 0.56939 0.40561 0.0
H374 H 0.96702 0.5573 0.31167 0.0
H375 H 0.98343 0.57631 0.29288 0.0
H376 H 0.95495 0.58087 0.30058 0.0
H377 H 0.97352 0.62245 0.3178 0.0
H378 H 0.00208 0.618 0.31017 0.0
H379 H 0.99827 0.62728 0.34065 0.0
H380 H 0.01716 0.56269 0.39477 0.0
H381 H 0.05329 0.55752 0.37605 0.0
H382 H 0.02682 0.5848 0.31157 0.0
C383 C 0.94532 0.59303 0.35117 0.0
C384 C 0.93378 0.58916 0.37207 0.0
C385 C 0.94545 0.58062 0.39172 0.0
C386 C 0.96839 0.57618 0.39067 0.0
C387 C 0.97935 0.58033 0.36983 0.0
C388 C 0.96818 0.58857 0.35044 0.0
C389 C 0.98347 0.59101 0.32987 0.0
C390 C 0.9715 0.57544 0.30744 0.0
C391 C 0.98971 0.61618 0.32431 0.0
C392 C 0.00496 0.58274 0.34065 0.0
C393 C 0.00228 0.5766 0.36368 0.0
C394 C 0.01953 0.56763 0.37682 0.0
C395 C 0.03998 0.56475 0.36605 0.0
C396 C 0.043 0.57093 0.34243 0.0
C397 C 0.02525 0.5802 0.32977 0.0
H398 H 0.73214 0.76461 0.88723 0.0
H399 H 0.80669 0.7749 0.87647 0.0
H400 H 0.81272 0.74744 0.90634 0.0
H401 H 0.73961 0.76069 0.95086 0.0
H402 H 0.71343 0.73899 0.95079 0.0
H403 H 0.715 0.75926 0.92838 0.0
H404 H 0.70589 0.72582 0.89468 0.0
H405 H 0.70425 0.70544 0.91697 0.0
H406 H 0.72424 0.70437 0.89415 0.0
H407 H 0.81043 0.71844 0.93722 0.0
H408 H 0.80006 0.69067 0.96705 0.0
H409 H 0.7272 0.70018 0.95781 0.0
C410 C 0.74975 0.76109 0.89108 0.0
C411 C 0.76894 0.77189 0.87946 0.0
C412 C 0.79171 0.76685 0.88515 0.0
C413 C 0.79532 0.75127 0.90208 0.0
C414 C 0.776 0.74096 0.91321 0.0
C415 C 0.75368 0.7457 0.90798 0.0
C416 C 0.73591 0.73248 0.92255 0.0
C417 C 0.72538 0.74883 0.93913 0.0
C418 C 0.71643 0.71605 0.9061 0.0
C419 C 0.7517 0.7195 0.93679 0.0
C420 C 0.77475 0.72456 0.93113 0.0
C421 C 0.79244 0.7144 0.94183 0.0
C422 C 0.78637 0.69864 0.95875 0.0
C423 C 0.76283 0.69327 0.96484 0.0
C424 C 0.74538 0.70396 0.95368 0.0
H425 H 0.01785 0.02232 0.45185 0.0
H426 H 0.08157 0.04596 0.41808 0.0
H427 H 0.05768 0.05961 0.38551 0.0
H428 H 0.98229 0.00028 0.39989 0.0
H429 H 0.95572 0.00874 0.40895 0.0
H430 H 0.97801 0.00379 0.43131 0.0
H431 H 0.9806 0.04466 0.45195 0.0
H432 H 0.95818 0.04971 0.42966 0.0
H433 H 0.98634 0.06905 0.43462 0.0
H434 H 0.02658 0.06575 0.35401 0.0
H435 H 0.99061 0.06534 0.32668 0.0
H436 H 0.9472 0.03873 0.38143 0.0
C437 C 0.02687 0.03086 0.43793 0.0
C438 C 0.0516 0.03308 0.43754 0.0
C439 C 0.06266 0.04411 0.41882 0.0
C440 C 0.04925 0.05197 0.40025 0.0
C441 C 0.02483 0.04892 0.40081 0.0
C442 C 0.01376 0.03887 0.41932 0.0
C443 C 0.98714 0.03611 0.4148 0.0
C444 C 0.9751 0.01073 0.41366 0.0
C445 C 0.9775 0.05076 0.43389 0.0
C446 C 0.98492 0.04539 0.39045 0.0
C447 C 0.00687 0.05288 0.38278 0.0
C448 C 0.0093 0.06038 0.36001 0.0
C449 C 0.98878 0.06 0.34458 0.0
C450 C 0.96612 0.05221 0.35201 0.0
C451 C 0.96426 0.04523 0.37542 0.0
H452 H 0.20206 0.2586 0.68518 0.0
H453 H 0.26643 0.24394 0.72137 0.0
H454 H 0.27044 0.21802 0.68624 0.0
H455 H 0.17997 0.20128 0.65613 0.0
H456 H 0.16829 0.21139 0.62893 0.0
H457 H 0.17004 0.2283 0.65722 0.0
H458 H 0.1946 0.26298 0.63969 0.0
H459 H 0.19286 0.24621 0.61135 0.0
H460 H 0.22129 0.25963 0.62656 0.0
H461 H 0.26839 0.19498 0.64665 0.0
H462 H 0.26046 0.17642 0.60522 0.0
H463 H 0.19702 0.20546 0.59501 0.0
C464 C 0.21695 0.24987 0.68578 0.0
C465 C 0.23393 0.25331 0.70605 0.0
C466 C 0.25318 0.24158 0.70607 0.0
C467 C 0.2556 0.22678 0.68621 0.0
C468 C 0.23857 0.22382 0.66652 0.0
C469 C 0.21959 0.23499 0.66614 0.0
C470 C 0.20406 0.22918 0.64252 0.0
C471 C 0.17911 0.2168 0.64644 0.0
C472 C 0.20316 0.25079 0.62925 0.0
C473 C 0.21741 0.2132 0.62957 0.0
C474 C 0.23724 0.2103 0.64376 0.0
C475 C 0.25283 0.19697 0.63543 0.0
C476 C 0.24817 0.18651 0.61187 0.0
C477 C 0.22805 0.18938 0.59693 0.0
C478 C 0.21238 0.20271 0.60608 0.0
H479 H 0.50205 0.53162 0.65879 0.0
H480 H 0.50403 0.605 0.66098 0.0
H481 H 0.48245 0.60325 0.69703 0.0
H482 H 0.44406 0.51631 0.67642 0.0
H483 H 0.451 0.49416 0.69454 0.0
H484 H 0.4673 0.50124 0.66931 0.0
H485 H 0.50661 0.50884 0.69717 0.0
H486 H 0.49043 0.50168 0.72248 0.0
H487 H 0.51016 0.52897 0.72342 0.0
H488 H 0.4591 0.59329 0.73182 0.0
H489 H 0.43723 0.57596 0.76399 0.0
H490 H 0.45122 0.50934 0.73948 0.0
C491 C 0.4981 0.54735 0.66693 0.0
C492 C 0.50472 0.56843 0.65702 0.0
C493 C 0.49918 0.58863 0.66824 0.0
C494 C 0.48689 0.58783 0.68872 0.0
C495 C 0.48039 0.56674 0.69786 0.0
C496 C 0.48594 0.54689 0.68745 0.0
C497 C 0.47674 0.5264 0.70073 0.0
C498 C 0.4587 0.50848 0.68426 0.0
C499 C 0.49721 0.51586 0.7116 0.0
C500 C 0.46498 0.53781 0.72009 0.0
C501 C 0.46723 0.56107 0.7181 0.0
C502 C 0.45734 0.57512 0.73366 0.0
C503 C 0.4449 0.56511 0.75182 0.0
C504 C 0.44259 0.54133 0.75428 0.0
C505 C 0.4528 0.52759 0.73816 0.0
H506 H 0.77714 0.35258 0.68953 0.0
H507 H 0.84747 0.33925 0.68127 0.0
H508 H 0.84984 0.36234 0.64643 0.0
H509 H 0.75816 0.3461 0.62766 0.0
H510 H 0.74048 0.36809 0.6287 0.0
H511 H 0.74539 0.35306 0.65482 0.0
H512 H 0.76214 0.39172 0.67996 0.0
H513 H 0.75732 0.40689 0.65385 0.0
H514 H 0.78633 0.41119 0.67003 0.0
H515 H 0.84397 0.38483 0.61155 0.0
H516 H 0.82909 0.40251 0.57649 0.0
H517 H 0.76157 0.39991 0.60568 0.0
C518 C 0.79319 0.35493 0.68063 0.0
C519 C 0.81225 0.34437 0.68819 0.0
C520 C 0.83272 0.34727 0.67577 0.0
C521 C 0.83428 0.36046 0.65607 0.0
C522 C 0.81512 0.37046 0.64889 0.0
C523 C 0.79486 0.36771 0.66062 0.0
C524 C 0.77599 0.37847 0.64778 0.0
C525 C 0.7537 0.36035 0.63923 0.0
C526 C 0.77011 0.39825 0.66387 0.0
C527 C 0.78866 0.38728 0.62678 0.0
C528 C 0.81136 0.38283 0.62808 0.0
C529 C 0.82629 0.38855 0.61038 0.0
C530 C 0.81764 0.3986 0.59052 0.0
C531 C 0.79415 0.40263 0.5883 0.0
C532 C 0.77966 0.39726 0.60695 0.0
H533 H 0.48235 0.981 0.65779 0.0
H534 H 0.47333 0.04621 0.63236 0.0
H535 H 0.51176 0.06469 0.65412 0.0
H536 H 0.50401 0.00241 0.71541 0.0
H537 H 0.52503 0.98379 0.71998 0.0
H538 H 0.49923 0.97459 0.69885 0.0
H539 H 0.52569 0.96757 0.66513 0.0
H540 H 0.55165 0.97662 0.68625 0.0
H541 H 0.5488 0.99042 0.65886 0.0
H542 H 0.54755 0.07711 0.6824 0.0
H543 H 0.57855 0.08312 0.71643 0.0
H544 H 0.56501 0.01013 0.72456 0.0
C545 C 0.48897 0.99896 0.65609 0.0
C546 C 0.4752 0.01216 0.64306 0.0
C547 C 0.48381 0.03583 0.64208 0.0
C548 C 0.50564 0.04643 0.65427 0.0
C549 C 0.5186 0.03311 0.66744 0.0
C550 C 0.51068 0.00988 0.66844 0.0
C551 C 0.52669 0.00019 0.68623 0.0
C552 C 0.51291 0.98964 0.7063 0.0
C553 C 0.53893 0.98266 0.67334 0.0
C554 C 0.54424 0.02177 0.69575 0.0
C555 C 0.53942 0.04045 0.6843 0.0
C556 C 0.55181 0.06258 0.69121 0.0
C557 C 0.56931 0.06583 0.71064 0.0
C558 C 0.57426 0.04708 0.72301 0.0
C559 C 0.56191 0.02469 0.7151 0.0
H560 H 0.86143 0.27492 0.82815 0.0
H561 H 0.88207 0.33758 0.79388 0.0
H562 H 0.91898 0.34697 0.82142 0.0
H563 H 0.884 0.29802 0.88855 0.0
H564 H 0.89355 0.27207 0.89632 0.0
H565 H 0.86875 0.27066 0.87413 0.0
H566 H 0.88944 0.24858 0.84346 0.0
H567 H 0.91436 0.25004 0.86551 0.0
H568 H 0.91874 0.26094 0.83675 0.0
H569 H 0.95411 0.34885 0.85223 0.0
H570 H 0.98388 0.34402 0.88478 0.0
H571 H 0.93971 0.28011 0.89871 0.0
C572 C 0.87361 0.2907 0.82643 0.0
C573 C 0.86884 0.30552 0.80881 0.0
C574 C 0.88531 0.32598 0.80726 0.0
C575 C 0.90634 0.33142 0.82278 0.0
C576 C 0.91056 0.31626 0.83976 0.0
C577 C 0.89458 0.29639 0.84174 0.0
C578 C 0.90322 0.28292 0.86144 0.0
C579 C 0.88638 0.28081 0.88129 0.0
C580 C 0.90665 0.25922 0.85117 0.0
C581 C 0.92666 0.29829 0.87026 0.0
C582 C 0.93061 0.3174 0.8575 0.0
C583 C 0.95116 0.33398 0.86236 0.0
C584 C 0.96799 0.33103 0.88087 0.0
C585 C 0.96416 0.31168 0.89436 0.0
C586 C 0.94321 0.2951 0.8888 0.0
H587 H 0.47245 0.87496 0.57023 0.0
H588 H 0.52451 0.93664 0.56585 0.0
H589 H 0.54189 0.9165 0.53396 0.0
H590 H 0.51183 0.83388 0.55875 0.0
H591 H 0.48858 0.81351 0.54125 0.0
H592 H 0.48159 0.83217 0.56524 0.0
H593 H 0.452 0.84664 0.5354 0.0
H594 H 0.45898 0.82817 0.51134 0.0
H595 H 0.46211 0.85852 0.50864 0.0
H596 H 0.5511 0.89098 0.49995 0.0
H597 H 0.55267 0.86123 0.46744 0.0
H598 H 0.49523 0.81588 0.49458 0.0
C599 C 0.48776 0.88414 0.56287 0.0
C600 C 0.49711 0.90739 0.57056 0.0
C601 C 0.51706 0.91881 0.56032 0.0
C602 C 0.52707 0.90752 0.54219 0.0
C603 C 0.51709 0.88475 0.53467 0.0
C604 C 0.49803 0.8731 0.54484 0.0
C605 C 0.48999 0.84902 0.53278 0.0
C606 C 0.4932 0.83109 0.55057 0.0
C607 C 0.46425 0.84539 0.52136 0.0
C608 C 0.50712 0.84915 0.51382 0.0
C609 C 0.52266 0.86989 0.51528 0.0
C610 C 0.53925 0.87455 0.49883 0.0
C611 C 0.53993 0.85758 0.48037 0.0
C612 C 0.52417 0.83618 0.47854 0.0
C613 C 0.50773 0.83193 0.49568 0.0
H614 H 0.14541 0.2954 0.83129 0.0
H615 H 0.19592 0.35641 0.86038 0.0
H616 H 0.17284 0.36024 0.89479 0.0
H617 H 0.09505 0.31468 0.84494 0.0
H618 H 0.07935 0.28784 0.85325 0.0
H619 H 0.10137 0.28795 0.83249 0.0
H620 H 0.1237 0.26386 0.85977 0.0
H621 H 0.10163 0.26359 0.88063 0.0
H622 H 0.1324 0.27393 0.89091 0.0
H623 H 0.14128 0.3614 0.92191 0.0
H624 H 0.10456 0.35771 0.94209 0.0
H625 H 0.07574 0.29448 0.89782 0.0
C626 C 0.1519 0.30924 0.8452 0.0
C627 C 0.17246 0.32562 0.8431 0.0
C628 C 0.18027 0.3436 0.86158 0.0
C629 C 0.16729 0.34592 0.88126 0.0
C630 C 0.14678 0.32988 0.88246 0.0
C631 C 0.1393 0.31164 0.86517 0.0
C632 C 0.11584 0.29762 0.87005 0.0
C633 C 0.09679 0.29701 0.84893 0.0
C634 C 0.11857 0.27331 0.87568 0.0
C635 C 0.11084 0.31143 0.89215 0.0
C636 C 0.12898 0.32993 0.89904 0.0
C637 C 0.12726 0.34663 0.91719 0.0
C638 C 0.10638 0.34447 0.92847 0.0
C639 C 0.08772 0.32559 0.92178 0.0
C640 C 0.09015 0.30866 0.90374 0.0
H641 H 0.52154 0.63701 0.53399 0.0
H642 H 0.59308 0.63182 0.51974 0.0
H643 H 0.5928 0.66187 0.49139 0.0
H644 H 0.50034 0.64692 0.47341 0.0
H645 H 0.48247 0.66665 0.48402 0.0
H646 H 0.48808 0.64379 0.50173 0.0
H647 H 0.50479 0.67345 0.53807 0.0
H648 H 0.49933 0.69638 0.52047 0.0
H649 H 0.52862 0.69673 0.53461 0.0
H650 H 0.58507 0.69461 0.46643 0.0
H651 H 0.57048 0.72607 0.44686 0.0
H652 H 0.50413 0.70873 0.47809 0.0
C653 C 0.53713 0.64195 0.52478 0.0
C654 C 0.55736 0.63204 0.52912 0.0
C655 C 0.57735 0.6391 0.51664 0.0
C656 C 0.57735 0.65617 0.50053 0.0
C657 C 0.55717 0.66582 0.49702 0.0
C658 C 0.5374 0.65879 0.50873 0.0
C659 C 0.5182 0.67222 0.50267 0.0
C660 C 0.49596 0.65645 0.48968 0.0
C661 C 0.51241 0.68548 0.5253 0.0
C662 C 0.53031 0.68825 0.48597 0.0
C663 C 0.55274 0.68431 0.48278 0.0
C664 C 0.56746 0.69767 0.46867 0.0
C665 C 0.55904 0.71551 0.45765 0.0
C666 C 0.53614 0.71982 0.46089 0.0
C667 C 0.52166 0.70583 0.47512 0.0
H668 H 0.84545 0.82889 0.76658 0.0
H669 H 0.79604 0.76421 0.76303 0.0
H670 H 0.82146 0.74594 0.73764 0.0
H671 H 0.8603 0.82162 0.70404 0.0
H672 H 0.89076 0.83529 0.71182 0.0
H673 H 0.86808 0.84356 0.72877 0.0
H674 H 0.89056 0.83489 0.76801 0.0
H675 H 0.91319 0.82642 0.7512 0.0
H676 H 0.89786 0.80689 0.77024 0.0
H677 H 0.85432 0.73371 0.717 0.0
H678 H 0.89037 0.72929 0.69783 0.0
H679 H 0.9169 0.80243 0.71142 0.0
C680 C 0.83986 0.81096 0.76017 0.0
C681 C 0.81882 0.79792 0.7668 0.0
C682 C 0.81202 0.77453 0.75805 0.0
C683 C 0.82637 0.76399 0.74369 0.0
C684 C 0.84721 0.7772 0.73785 0.0
C685 C 0.85373 0.80027 0.74537 0.0
C686 C 0.87709 0.8105 0.73657 0.0
C687 C 0.87385 0.82882 0.71926 0.0
C688 C 0.89577 0.82024 0.75777 0.0
C689 C 0.88298 0.78941 0.7235 0.0
C690 C 0.86557 0.77036 0.72464 0.0
C691 C 0.86784 0.74856 0.71554 0.0
C692 C 0.88838 0.7462 0.70483 0.0
C693 C 0.90614 0.76556 0.70296 0.0
C694 C 0.90331 0.78745 0.71225 0.0
H695 H 0.04196 0.88918 0.5561 0.0
H696 H 0.1121 0.88423 0.58701 0.0
H697 H 0.09461 0.86415 0.62009 0.0
H698 H 0.01483 0.89509 0.61399 0.0
H699 H 0.98718 0.87758 0.60112 0.0
H700 H 0.00545 0.89515 0.58249 0.0
H701 H 0.00562 0.85929 0.55347 0.0
H702 H 0.98751 0.84165 0.572 0.0
H703 H 0.01546 0.8348 0.56511 0.0
H704 H 0.06922 0.84005 0.64653 0.0
H705 H 0.03815 0.81359 0.66356 0.0
H706 H 0.98475 0.83404 0.61494 0.0
C707 C 0.05371 0.88453 0.57023 0.0
C708 C 0.07841 0.88843 0.56908 0.0
C709 C 0.09313 0.88155 0.5876 0.0
C710 C 0.08336 0.87019 0.60651 0.0
C711 C 0.05885 0.86596 0.6067 0.0
C712 C 0.04424 0.87305 0.58909 0.0
C713 C 0.01844 0.86427 0.59184 0.0
C714 C 0.00573 0.88422 0.59772 0.0
C715 C 0.00605 0.8491 0.56927 0.0
C716 C 0.02081 0.85035 0.61314 0.0
C717 C 0.04422 0.85186 0.62176 0.0
C718 C 0.05081 0.83907 0.64021 0.0
C719 C 0.03304 0.82406 0.64976 0.0
C720 C 0.00902 0.82181 0.64066 0.0
C721 C 0.00291 0.83556 0.6225 0.0
H722 H 0.13391 0.78857 0.76871 0.0
H723 H 0.12324 0.73539 0.81789 0.0
H724 H 0.0816 0.72397 0.80086 0.0
H725 H 0.07544 0.8039 0.76995 0.0
H726 H 0.07308 0.80861 0.73852 0.0
H727 H 0.10171 0.8135 0.75555 0.0
H728 H 0.11573 0.78549 0.72488 0.0
H729 H 0.08715 0.78045 0.70783 0.0
H730 H 0.09913 0.75666 0.71846 0.0
H731 H 0.04203 0.71661 0.77679 0.0
H732 H 0.00668 0.71464 0.74814 0.0
H733 H 0.04277 0.77302 0.71504 0.0
C734 C 0.12277 0.77469 0.77611 0.0
C735 C 0.13187 0.76288 0.79466 0.0
C736 C 0.11669 0.74473 0.80372 0.0
C737 C 0.093 0.73811 0.79417 0.0
C738 C 0.0847 0.7499 0.77567 0.0
C739 C 0.09905 0.7679 0.76684 0.0
C740 C 0.08591 0.77726 0.7464 0.0
C741 C 0.08392 0.8023 0.75301 0.0
C742 C 0.09768 0.77481 0.72301 0.0
C743 C 0.06205 0.76144 0.74487 0.0
C744 C 0.06173 0.74582 0.76196 0.0
C745 C 0.04198 0.72889 0.76348 0.0
C746 C 0.02202 0.72788 0.74708 0.0
C747 C 0.02193 0.74373 0.72943 0.0
C748 C 0.04221 0.7608 0.72848 0.0
H749 H 0.93007 0.68176 0.49266 0.0
H750 H 0.9477 0.61654 0.50982 0.0
H751 H 0.95726 0.63152 0.55246 0.0
H752 H 0.97591 0.71759 0.53377 0.0
H753 H 0.95752 0.7379 0.54144 0.0
H754 H 0.95255 0.72212 0.51225 0.0
H755 H 0.90889 0.7073 0.5193 0.0
H756 H 0.91374 0.72297 0.54853 0.0
H757 H 0.90242 0.69253 0.54558 0.0
H758 H 0.96394 0.65339 0.59342 0.0
H759 H 0.96805 0.68072 0.62946 0.0
H760 H 0.94618 0.73159 0.58521 0.0
C761 C 0.93604 0.67062 0.50533 0.0
C762 C 0.93813 0.64796 0.49789 0.0
C763 C 0.94598 0.63397 0.51509 0.0
C764 C 0.95144 0.64231 0.53935 0.0
C765 C 0.94901 0.66468 0.54609 0.0
C766 C 0.94159 0.67867 0.52956 0.0
C767 C 0.94025 0.70198 0.54144 0.0
C768 C 0.95759 0.72102 0.53164 0.0
C769 C 0.91481 0.70644 0.53854 0.0
C770 C 0.94795 0.69889 0.56728 0.0
C771 C 0.95294 0.67728 0.5696 0.0
C772 C 0.96016 0.67039 0.59181 0.0
C773 C 0.9624 0.68604 0.61219 0.0
C774 C 0.95745 0.70833 0.61021 0.0
C775 C 0.95013 0.71472 0.58738 0.0
H776 H 0.8027 0.87855 0.3028 0.0
H777 H 0.81808 0.85538 0.23172 0.0
H778 H 0.84321 0.89326 0.22889 0.0
H779 H 0.79839 0.9356 0.28985 0.0
H780 H 0.81174 0.94834 0.31908 0.0
H781 H 0.79557 0.91927 0.31563 0.0
H782 H 0.83219 0.90537 0.33504 0.0
H783 H 0.84846 0.9344 0.33862 0.0
H784 H 0.86007 0.91228 0.32259 0.0
H785 H 0.86691 0.93382 0.23421 0.0
H786 H 0.88654 0.97385 0.24676 0.0
H787 H 0.85436 0.97025 0.31387 0.0
C788 C 0.81144 0.88132 0.28665 0.0
C789 C 0.80852 0.86393 0.26751 0.0
C790 C 0.82009 0.86842 0.24662 0.0
C791 C 0.83439 0.88987 0.24486 0.0
C792 C 0.83679 0.90663 0.26408 0.0
C793 C 0.82555 0.90259 0.28453 0.0
C794 C 0.83058 0.92352 0.30248 0.0
C795 C 0.80771 0.93219 0.30701 0.0
C796 C 0.84361 0.91859 0.32607 0.0
C797 C 0.84649 0.94003 0.28899 0.0
C798 C 0.84995 0.92998 0.26692 0.0
C799 C 0.86427 0.94186 0.25143 0.0
C800 C 0.87536 0.96459 0.25874 0.0
C801 C 0.87194 0.97523 0.28127 0.0
C802 C 0.85723 0.9627 0.29648 0.0
H803 H 0.76677 0.12667 0.37439 0.0
H804 H 0.76968 0.1688 0.3143 0.0
H805 H 0.80224 0.15125 0.30023 0.0
H806 H 0.82968 0.1286 0.38545 0.0
H807 H 0.82617 0.09929 0.39283 0.0
H808 H 0.80357 0.11565 0.39843 0.0
H809 H 0.77231 0.08447 0.37286 0.0
H810 H 0.7948 0.06802 0.36718 0.0
H811 H 0.77704 0.07612 0.34239 0.0
H812 H 0.83406 0.12834 0.29229 0.0
H813 H 0.86225 0.1017 0.29102 0.0
H814 H 0.83811 0.07477 0.35631 0.0
C815 C 0.7743 0.13232 0.35833 0.0
C816 C 0.76569 0.14914 0.34546 0.0
C817 C 0.776 0.15595 0.32447 0.0
C818 C 0.79452 0.1461 0.31635 0.0
C819 C 0.80252 0.1295 0.32942 0.0
C820 C 0.79274 0.12267 0.34997 0.0
C821 C 0.80418 0.10419 0.36052 0.0
C822 C 0.81664 0.11244 0.3858 0.0
C823 C 0.786 0.08188 0.36074 0.0
C824 C 0.82184 0.10156 0.34261 0.0
C825 C 0.8207 0.11634 0.32484 0.0
C826 C 0.83516 0.11674 0.30616 0.0
C827 C 0.85111 0.10156 0.30559 0.0
C828 C 0.85242 0.08617 0.32356 0.0
C829 C 0.83761 0.08635 0.34232 0.0
H830 H 0.42885 0.03146 0.03187 0.0
H831 H 0.39736 0.08584 0.00276 0.0
H832 H 0.3577 0.06183 0.00216 0.0
H833 H 0.39015 0.98508 0.99719 0.0
H834 H 0.38881 0.96619 0.02094 0.0
H835 H 0.41467 0.98801 0.02009 0.0
H836 H 0.4103 0.00413 0.0633 0.0
H837 H 0.38443 0.98233 0.0643 0.0
H838 H 0.38278 0.01215 0.06997 0.0
H839 H 0.32169 0.03156 0.00343 0.0
H840 H 0.29163 0.99711 0.00655 0.0
H841 H 0.34656 0.96236 0.0349 0.0
C842 C 0.41362 0.0384 0.02553 0.0
C843 C 0.41621 0.06055 0.01739 0.0
C844 C 0.39581 0.06894 0.0091 0.0
C845 C 0.37321 0.05544 0.00871 0.0
C846 C 0.3713 0.03363 0.01671 0.0
C847 C 0.39093 0.02517 0.025 0.0
C848 C 0.38404 0.00095 0.03205 0.0
C849 C 0.39507 0.98407 0.01664 0.0
C850 C 0.39078 0.99983 0.05901 0.0
C851 C 0.35747 0.99705 0.02618 0.0
C852 C 0.3505 0.01615 0.01744 0.0
C853 C 0.32691 0.01653 0.01035 0.0
C854 C 0.30997 0.99683 0.01217 0.0
C855 C 0.31669 0.97698 0.02099 0.0
C856 C 0.3408 0.97724 0.02818 0.0
H857 H 0.18502 0.41496 0.36567 0.0
H858 H 0.17675 0.38549 0.29164 0.0
H859 H 0.15456 0.41542 0.27973 0.0
H860 H 0.12769 0.43052 0.36566 0.0
H861 H 0.13852 0.45682 0.38446 0.0
H862 H 0.15329 0.43284 0.38711 0.0
H863 H 0.19283 0.45833 0.37943 0.0
H864 H 0.17821 0.48241 0.37688 0.0
H865 H 0.1942 0.47355 0.35279 0.0
H866 H 0.13342 0.44897 0.27606 0.0
H867 H 0.11664 0.48421 0.2806 0.0
H868 H 0.13929 0.49144 0.35706 0.0
C869 C 0.17852 0.41471 0.34694 0.0
C870 C 0.18259 0.39784 0.32959 0.0
C871 C 0.17386 0.39825 0.30525 0.0
C872 C 0.16118 0.41514 0.29833 0.0
C873 C 0.15743 0.43147 0.31595 0.0
C874 C 0.16594 0.43142 0.33974 0.0
C875 C 0.16004 0.45112 0.35514 0.0
C876 C 0.14392 0.44229 0.37422 0.0
C877 C 0.18267 0.46731 0.36673 0.0
C878 C 0.14697 0.4624 0.3363 0.0
C879 C 0.1455 0.45076 0.31383 0.0
C880 C 0.13444 0.45819 0.29358 0.0
C881 C 0.12493 0.4782 0.29635 0.0
C882 C 0.12663 0.49058 0.31919 0.0
C883 C 0.13762 0.48235 0.33938 0.0
H884 H 0.11312 0.00862 0.51824 0.0
H885 H 0.1521 0.97145 0.47165 0.0
H886 H 0.1769 0.00794 0.46375 0.0
H887 H 0.11603 0.06061 0.48446 0.0
H888 H 0.11998 0.07947 0.51169 0.0
H889 H 0.10327 0.0507 0.51089 0.0
H890 H 0.13086 0.04348 0.5475 0.0
H891 H 0.1477 0.07207 0.54798 0.0
H892 H 0.16232 0.04784 0.54564 0.0
H893 H 0.19879 0.0475 0.4627 0.0
H894 H 0.21906 0.08763 0.47113 0.0
H895 H 0.16721 0.09978 0.51984 0.0
C896 C 0.12651 0.0083 0.50593 0.0
C897 C 0.13054 0.98734 0.49523 0.0
C898 C 0.14874 0.9874 0.47991 0.0
C899 C 0.16276 0.00802 0.47518 0.0
C900 C 0.15847 0.02841 0.48608 0.0
C901 C 0.14092 0.02878 0.50127 0.0
C902 C 0.14161 0.05289 0.51245 0.0
C903 C 0.11887 0.06142 0.50439 0.0
C904 C 0.14589 0.05413 0.54002 0.0
C905 C 0.16273 0.06585 0.50172 0.0
C906 C 0.1718 0.05142 0.48616 0.0
C907 C 0.19179 0.05904 0.47471 0.0
C908 C 0.20319 0.08192 0.47967 0.0
C909 C 0.19479 0.09694 0.49621 0.0
C910 C 0.17399 0.08882 0.50699 0.0
H911 H 0.7388 0.20032 0.75979 0.0
H912 H 0.80298 0.17617 0.78274 0.0
H913 H 0.77931 0.13857 0.78851 0.0
H914 H 0.70363 0.17341 0.80135 0.0
H915 H 0.6769 0.16597 0.78109 0.0
H916 H 0.69888 0.1905 0.77676 0.0
H917 H 0.70117 0.17392 0.73321 0.0
H918 H 0.67907 0.14936 0.73736 0.0
H919 H 0.70722 0.14542 0.72798 0.0
H920 H 0.74886 0.10503 0.79543 0.0
H921 H 0.71338 0.07668 0.80094 0.0
H922 H 0.66878 0.12181 0.7724 0.0
C923 C 0.7479 0.18701 0.76565 0.0
C924 C 0.77276 0.19122 0.77082 0.0
C925 C 0.78397 0.17338 0.77863 0.0
C926 C 0.77068 0.15193 0.78196 0.0
C927 C 0.74621 0.14849 0.77719 0.0
C928 C 0.7349 0.16541 0.76896 0.0
C929 C 0.70829 0.15745 0.76603 0.0
C930 C 0.69623 0.17274 0.78228 0.0
C931 C 0.69836 0.15648 0.73957 0.0
C932 C 0.70645 0.13363 0.77443 0.0
C933 C 0.72856 0.12883 0.78074 0.0
C934 C 0.73145 0.10844 0.79025 0.0
C935 C 0.71119 0.0925 0.79342 0.0
C936 C 0.68833 0.09699 0.78698 0.0
C937 C 0.68602 0.11777 0.77718 0.0
H938 H 0.36573 0.05197 0.55912 0.0
H939 H 0.35988 0.06989 0.63448 0.0
H940 H 0.34141 0.10246 0.62353 0.0
H941 H 0.37713 0.111 0.54076 0.0
H942 H 0.35942 0.10286 0.51234 0.0
H943 H 0.37465 0.08254 0.52621 0.0
H944 H 0.33505 0.05362 0.52447 0.0
H945 H 0.31979 0.07376 0.51048 0.0
H946 H 0.31043 0.06239 0.53774 0.0
H947 H 0.32063 0.13088 0.60436 0.0
H948 H 0.29701 0.15172 0.57825 0.0
H949 H 0.3162 0.11537 0.51527 0.0
C950 C 0.36093 0.06298 0.57336 0.0
C951 C 0.36435 0.05846 0.59767 0.0
C952 C 0.35746 0.07303 0.61573 0.0
C953 C 0.34709 0.09167 0.6097 0.0
C954 C 0.34378 0.09553 0.58555 0.0
C955 C 0.35044 0.08157 0.56764 0.0
C956 C 0.34313 0.08829 0.54296 0.0
C957 C 0.36488 0.09667 0.52979 0.0
C958 C 0.32609 0.06833 0.52805 0.0
C959 C 0.33073 0.10779 0.54976 0.0
C960 C 0.33163 0.11191 0.57443 0.0
C961 C 0.32008 0.12803 0.58503 0.0
C962 C 0.30671 0.1398 0.57003 0.0
C963 C 0.3049 0.13529 0.54472 0.0
C964 C 0.31761 0.1195 0.53453 0.0
H965 H 0.60311 0.51185 0.54001 0.0
H966 H 0.64196 0.54261 0.60767 0.0
H967 H 0.66912 0.51514 0.6045 0.0
H968 H 0.6093 0.45267 0.54726 0.0
H969 H 0.61322 0.44671 0.51606 0.0
H970 H 0.59565 0.46747 0.52464 0.0
H971 H 0.62178 0.49821 0.50313 0.0
H972 H 0.63928 0.47751 0.49434 0.0
H973 H 0.65335 0.50426 0.51093 0.0
H974 H 0.69287 0.48514 0.5932 0.0
H975 H 0.71354 0.45756 0.57289 0.0
H976 H 0.65982 0.44733 0.51202 0.0
C977 C 0.61716 0.51264 0.5543 0.0
C978 C 0.62034 0.52926 0.57417 0.0
C979 C 0.63919 0.53 0.59229 0.0
C980 C 0.65461 0.51438 0.59072 0.0
C981 C 0.65101 0.49821 0.57087 0.0
C982 C 0.63286 0.49737 0.55288 0.0
C983 C 0.63385 0.47947 0.53258 0.0
C984 C 0.61168 0.46045 0.53 0.0
C985 C 0.63728 0.49053 0.50885 0.0
C986 C 0.6556 0.47062 0.54177 0.0
C987 C 0.66502 0.48136 0.56407 0.0
C988 C 0.68557 0.47653 0.5758 0.0
C989 C 0.69715 0.46076 0.56415 0.0
C990 C 0.68829 0.45024 0.54089 0.0
C991 C 0.66697 0.45495 0.52987 0.0
H992 H 0.68551 0.26316 0.40842 0.0
H993 H 0.75522 0.24535 0.41447 0.0
H994 H 0.77068 0.28103 0.44036 0.0
H995 H 0.70588 0.32421 0.40509 0.0
H996 H 0.68336 0.33239 0.42235 0.0
H997 H 0.67764 0.3053 0.40434 0.0
H998 H 0.66695 0.28433 0.44192 0.0
H999 H 0.67281 0.31133 0.46009 0.0
H1000 H 0.68799 0.28868 0.46828 0.0
H1001 H 0.7787 0.31809 0.46556 0.0
H1002 H 0.77918 0.35507 0.48827 0.0
H1003 H 0.70455 0.35005 0.4651 0.0
C1004 C 0.70412 0.26699 0.41462 0.0
C1005 C 0.71923 0.2516 0.40896 0.0
C1006 C 0.7433 0.25687 0.41848 0.0
C1007 C 0.75228 0.27713 0.43317 0.0
C1008 C 0.73698 0.29198 0.43823 0.0
C1009 C 0.71344 0.28726 0.42923 0.0
C1010 C 0.70086 0.30622 0.43757 0.0
C1011 C 0.69138 0.31771 0.41605 0.0
C1012 C 0.68098 0.29709 0.45288 0.0
C1013 C 0.72105 0.32228 0.45267 0.0
C1014 C 0.74167 0.31362 0.45281 0.0
C1015 C 0.7627 0.32511 0.46556 0.0
C1016 C 0.76275 0.34613 0.47844 0.0
C1017 C 0.74191 0.35556 0.47849 0.0
C1018 C 0.72077 0.34336 0.46542 0.0
H1019 H 0.56632 0.08554 0.96452 0.0
H1020 H 0.49528 0.0844 0.93155 0.0
H1021 H 0.50762 0.07392 0.89189 0.0
H1022 H 0.59737 0.10949 0.91763 0.0
H1023 H 0.61985 0.09215 0.91998 0.0
H1024 H 0.60536 0.09899 0.94596 0.0
H1025 H 0.59313 0.05573 0.95134 0.0
H1026 H 0.60765 0.04875 0.92539 0.0
H1027 H 0.5769 0.03664 0.92666 0.0
H1028 H 0.5282 0.06629 0.85559 0.0
H1029 H 0.55506 0.05915 0.82518 0.0
H1030 H 0.61221 0.06299 0.88176 0.0
C1031 C 0.55334 0.08297 0.94898 0.0
C1032 C 0.52984 0.08586 0.95113 0.0
C1033 C 0.51335 0.08221 0.93036 0.0
C1034 C 0.52019 0.0763 0.90774 0.0
C1035 C 0.54351 0.07378 0.90622 0.0
C1036 C 0.55978 0.07671 0.92628 0.0
C1037 C 0.58372 0.07289 0.91963 0.0
C1038 C 0.60269 0.09468 0.92619 0.0
C1039 C 0.59076 0.05227 0.93146 0.0
C1040 C 0.57845 0.06776 0.89265 0.0
C1041 C 0.55518 0.06848 0.8853 0.0
C1042 C 0.54639 0.06541 0.86113 0.0
C1043 C 0.5618 0.06146 0.844 0.0
C1044 C 0.58565 0.06036 0.85113 0.0
C1045 C 0.59398 0.06342 0.87581 0.0
H1046 H 0.25789 0.26653 0.37746 0.0
H1047 H 0.21955 0.31456 0.41098 0.0
H1048 H 0.21901 0.29367 0.44727 0.0
H1049 H 0.22692 0.21712 0.39896 0.0
H1050 H 0.25214 0.20354 0.40401 0.0
H1051 H 0.25159 0.22342 0.38137 0.0
H1052 H 0.29115 0.24774 0.40145 0.0
H1053 H 0.29187 0.22787 0.42415 0.0
H1054 H 0.29361 0.25792 0.4328 0.0
H1055 H 0.21919 0.26592 0.47825 0.0
H1056 H 0.22124 0.23345 0.50272 0.0
H1057 H 0.26025 0.20359 0.44996 0.0
C1058 C 0.24974 0.27289 0.39258 0.0
C1059 C 0.23878 0.29223 0.39132 0.0
C1060 C 0.22807 0.29982 0.41144 0.0
C1061 C 0.22771 0.28809 0.4322 0.0
C1062 C 0.23826 0.26889 0.43268 0.0
C1063 C 0.24924 0.26139 0.41352 0.0
C1064 C 0.25823 0.23958 0.41832 0.0
C1065 C 0.24651 0.21975 0.39955 0.0
C1066 C 0.28533 0.24352 0.41924 0.0
C1067 C 0.25005 0.23573 0.44291 0.0
C1068 C 0.23867 0.25293 0.45087 0.0
C1069 C 0.22834 0.25251 0.47239 0.0
C1070 C 0.22951 0.23394 0.48611 0.0
C1071 C 0.24101 0.21606 0.47832 0.0
C1072 C 0.25165 0.21718 0.45656 0.0
H1073 H 0.5401 0.47685 0.91616 0.0
H1074 H 0.52476 0.50419 0.98568 0.0
H1075 H 0.49003 0.51707 0.96608 0.0
H1076 H 0.52375 0.52162 0.88223 0.0
H1077 H 0.51119 0.50225 0.85627 0.0
H1078 H 0.53493 0.4957 0.8759 0.0
H1079 H 0.50915 0.45645 0.88177 0.0
H1080 H 0.4853 0.46291 0.86224 0.0
H1081 H 0.48041 0.45557 0.89225 0.0
H1082 H 0.45631 0.52632 0.93843 0.0
H1083 H 0.42722 0.53163 0.90523 0.0
H1084 H 0.46536 0.49792 0.8545 0.0
C1085 C 0.52955 0.48564 0.92732 0.0
C1086 C 0.53516 0.48952 0.95246 0.0
C1087 C 0.52081 0.50105 0.96636 0.0
C1088 C 0.50104 0.50841 0.9554 0.0
C1089 C 0.49592 0.50412 0.93056 0.0
C1090 C 0.50984 0.49305 0.91673 0.0
C1091 C 0.50056 0.49028 0.89044 0.0
C1092 C 0.51868 0.50324 0.87533 0.0
C1093 C 0.49343 0.46479 0.88114 0.0
C1094 C 0.47917 0.50147 0.89158 0.0
C1095 C 0.47672 0.50937 0.91482 0.0
C1096 C 0.4581 0.52022 0.92016 0.0
C1097 C 0.44165 0.52313 0.90119 0.0
C1098 C 0.44397 0.5152 0.87723 0.0
C1099 C 0.46301 0.50421 0.87256 0.0
H1100 H 0.76711 0.737 0.18245 0.0
H1101 H 0.70396 0.76698 0.18041 0.0
H1102 H 0.6897 0.74561 0.1409 0.0
H1103 H 0.77503 0.73896 0.12012 0.0
H1104 H 0.78518 0.71208 0.1175 0.0
H1105 H 0.79002 0.72929 0.14586 0.0
H1106 H 0.76868 0.69481 0.16633 0.0
H1107 H 0.76372 0.67753 0.13799 0.0
H1108 H 0.73909 0.68098 0.15463 0.0
H1109 H 0.68266 0.72132 0.1012 0.0
H1110 H 0.68386 0.69668 0.06407 0.0
H1111 H 0.75166 0.68283 0.09239 0.0
C1112 C 0.75025 0.73905 0.17376 0.0
C1113 C 0.73664 0.75365 0.18455 0.0
C1114 C 0.7147 0.75589 0.1725 0.0
C1115 C 0.70643 0.74379 0.15007 0.0
C1116 C 0.72029 0.72954 0.13995 0.0
C1117 C 0.74175 0.72714 0.15139 0.0
C1118 C 0.75348 0.71109 0.13648 0.0
C1119 C 0.77733 0.72361 0.12958 0.0
C1120 C 0.7564 0.68984 0.14965 0.0
C1121 C 0.73534 0.70492 0.1148 0.0
C1122 C 0.71627 0.71564 0.11715 0.0
C1123 C 0.69747 0.71278 0.09919 0.0
C1124 C 0.6983 0.69874 0.07818 0.0
C1125 C 0.71782 0.6878 0.07533 0.0
C1126 C 0.73644 0.69087 0.09403 0.0
H1127 H 0.99044 0.06933 0.12803 0.0
H1128 H 0.96044 0.12978 0.11606 0.0
H1129 H 0.94173 0.12598 0.15408 0.0
H1130 H 0.94079 0.03763 0.15261 0.0
H1131 H 0.95884 0.02528 0.17392 0.0
H1132 H 0.96958 0.033 0.14588 0.0
H1133 H 0.00707 0.05858 0.169 0.0
H1134 H 0.99644 0.05095 0.19711 0.0
H1135 H 0.00387 0.08069 0.19151 0.0
H1136 H 0.9261 0.11486 0.19396 0.0
H1137 H 0.91569 0.09785 0.23162 0.0
H1138 H 0.95677 0.04532 0.21625 0.0
C1139 C 0.97995 0.08182 0.13331 0.0
C1140 C 0.9769 0.09985 0.11906 0.0
C1141 C 0.96302 0.11581 0.12671 0.0
C1142 C 0.95233 0.11378 0.14826 0.0
C1143 C 0.95573 0.09573 0.16187 0.0
C1144 C 0.96925 0.08007 0.15462 0.0
C1145 C 0.97039 0.06222 0.17226 0.0
C1146 C 0.95923 0.03812 0.16046 0.0
C1147 C 0.99596 0.06319 0.18311 0.0
C1148 C 0.95547 0.07026 0.19073 0.0
C1149 C 0.94704 0.08954 0.18451 0.0
C1150 C 0.93267 0.09978 0.19898 0.0
C1151 C 0.92683 0.09002 0.2203 0.0
C1152 C 0.93547 0.07032 0.22691 0.0
C1153 C 0.94995 0.06045 0.21183 0.0
H1154 H 0.28374 0.83966 0.1962 0.0
H1155 H 0.32488 0.78975 0.1723 0.0
H1156 H 0.32722 0.8066 0.13341 0.0
H1157 H 0.24931 0.8382 0.1394 0.0
H1158 H 0.24822 0.86832 0.14224 0.0
H1159 H 0.25083 0.85322 0.16874 0.0
H1160 H 0.28868 0.88253 0.1851 0.0
H1161 H 0.2862 0.89772 0.15864 0.0
H1162 H 0.31305 0.88756 0.16694 0.0
H1163 H 0.3258 0.82906 0.09768 0.0
H1164 H 0.31812 0.85385 0.06573 0.0
H1165 H 0.27549 0.88775 0.11135 0.0
C1166 C 0.29339 0.83243 0.18283 0.0
C1167 C 0.30432 0.81353 0.18728 0.0
C1168 C 0.31642 0.80424 0.16923 0.0
C1169 C 0.3179 0.81373 0.14714 0.0
C1170 C 0.30689 0.83229 0.14326 0.0
C1171 C 0.29464 0.84142 0.16046 0.0
C1172 C 0.28345 0.86068 0.15119 0.0
C1173 C 0.25634 0.85474 0.15034 0.0
C1174 C 0.29345 0.88347 0.16637 0.0
C1175 C 0.29139 0.86099 0.12613 0.0
C1176 C 0.30513 0.84463 0.1221 0.0
C1177 C 0.31497 0.84186 0.10056 0.0
C1178 C 0.31055 0.85608 0.08255 0.0
C1179 C 0.29614 0.87267 0.08602 0.0
C1180 C 0.28643 0.87511 0.10813 0.0
H1181 H 0.93549 0.48575 0.21697 0.0
H1182 H 0.94405 0.50601 0.14512 0.0
H1183 H 0.9873 0.51664 0.15556 0.0
H1184 H 0.97668 0.52982 0.24751 0.0
H1185 H 0.98778 0.51296 0.26973 0.0
H1186 H 0.95808 0.50436 0.25556 0.0
H1187 H 0.96695 0.46448 0.24203 0.0
H1188 H 0.99681 0.47306 0.25611 0.0
H1189 H 0.99154 0.46268 0.22476 0.0
H1190 H 0.02801 0.53166 0.17609 0.0
H1191 H 0.06358 0.54714 0.20448 0.0
H1192 H 0.02957 0.51344 0.26157 0.0
C1193 C 0.94661 0.49194 0.20334 0.0
C1194 C 0.93664 0.49481 0.18018 0.0
C1195 C 0.95152 0.50323 0.1628 0.0
C1196 C 0.97606 0.50936 0.16859 0.0
C1197 C 0.9854 0.50653 0.1917 0.0
C1198 C 0.97116 0.49767 0.20868 0.0
C1199 C 0.9854 0.49761 0.23261 0.0
C1200 C 0.97646 0.51205 0.25251 0.0
C1201 C 0.98516 0.47299 0.23926 0.0
C1202 C 0.00966 0.50879 0.22676 0.0
C1203 C 0.00933 0.51382 0.20305 0.0
C1204 C 0.02878 0.52708 0.19443 0.0
C1205 C 0.04888 0.53578 0.21058 0.0
C1206 C 0.04945 0.5307 0.23481 0.0
C1207 C 0.02987 0.51658 0.2428 0.0
H1208 H 0.38076 0.79758 0.29664 0.0
H1209 H 0.36382 0.72367 0.2801 0.0
H1210 H 0.39888 0.71969 0.30634 0.0
H1211 H 0.44579 0.80215 0.2993 0.0
H1212 H 0.45132 0.82451 0.32367 0.0
H1213 H 0.42569 0.82184 0.30219 0.0
H1214 H 0.39881 0.81932 0.33692 0.0
H1215 H 0.4243 0.82175 0.35846 0.0
H1216 H 0.40026 0.79764 0.35755 0.0
H1217 H 0.43257 0.72298 0.33788 0.0
H1218 H 0.46607 0.734 0.36952 0.0
H1219 H 0.46336 0.80577 0.36389 0.0
C1220 C 0.38467 0.78061 0.2982 0.0
C1221 C 0.36946 0.76096 0.28629 0.0
C1222 C 0.37518 0.73903 0.28892 0.0
C1223 C 0.39506 0.73654 0.30386 0.0
C1224 C 0.40932 0.75615 0.31579 0.0
C1225 C 0.40471 0.77781 0.31282 0.0
C1226 C 0.42276 0.79597 0.32817 0.0
C1227 C 0.43725 0.81207 0.31238 0.0
C1228 C 0.41081 0.80946 0.34635 0.0
C1229 C 0.4378 0.78105 0.34062 0.0
C1230 C 0.42961 0.75812 0.33329 0.0
C1231 C 0.43947 0.7409 0.34345 0.0
C1232 C 0.45836 0.7473 0.36148 0.0
C1233 C 0.46738 0.77069 0.36889 0.0
C1234 C 0.45704 0.78777 0.35821 0.0
H1235 H 0.93347 0.38278 0.08671 0.0
H1236 H 0.98577 0.44578 0.09307 0.0
H1237 H 0.01121 0.42646 0.06867 0.0
H1238 H 0.97538 0.34278 0.08764 0.0
H1239 H 0.95661 0.32233 0.06568 0.0
H1240 H 0.94372 0.34033 0.08589 0.0
H1241 H 0.92175 0.3549 0.04957 0.0
H1242 H 0.93448 0.33692 0.02932 0.0
H1243 H 0.93845 0.3673 0.02647 0.0
H1244 H 0.02932 0.4014 0.04089 0.0
H1245 H 0.038 0.37301 0.01035 0.0
H1246 H 0.9738 0.32638 0.02204 0.0
C1247 C 0.95045 0.39242 0.08333 0.0
C1248 C 0.95768 0.41576 0.09188 0.0
C1249 C 0.97987 0.42787 0.08673 0.0
C1250 C 0.99451 0.41701 0.073 0.0
C1251 C 0.98672 0.39405 0.06463 0.0
C1252 C 0.96522 0.38188 0.06958 0.0
C1253 C 0.96015 0.35793 0.0569 0.0
C1254 C 0.9589 0.33977 0.07512 0.0
C1255 C 0.93737 0.35406 0.03954 0.0
C1256 C 0.98185 0.35874 0.04348 0.0
C1257 C 0.99713 0.3796 0.04845 0.0
C1258 C 0.01765 0.3849 0.03707 0.0
C1259 C 0.02242 0.36865 0.01973 0.0
C1260 C 0.00663 0.34741 0.01384 0.0
C1261 C 0.9864 0.34229 0.02634 0.0
H1262 H 0.67783 0.83027 0.31779 0.0
H1263 H 0.69825 0.76595 0.33398 0.0
H1264 H 0.66306 0.75664 0.35614 0.0
H1265 H 0.65771 0.84318 0.3741 0.0
H1266 H 0.63349 0.85541 0.3617 0.0
H1267 H 0.65963 0.85642 0.34625 0.0
H1268 H 0.63412 0.83608 0.30777 0.0
H1269 H 0.60786 0.83512 0.32307 0.0
H1270 H 0.61459 0.80906 0.30938 0.0
H1271 H 0.62622 0.7552 0.37782 0.0
H1272 H 0.59031 0.7613 0.39636 0.0
H1273 H 0.59465 0.82665 0.3657 0.0
C1274 C 0.67486 0.81412 0.32581 0.0
C1275 C 0.69079 0.79882 0.32414 0.0
C1276 C 0.68625 0.77791 0.33499 0.0
C1277 C 0.66634 0.77249 0.34762 0.0
C1278 C 0.65116 0.78814 0.34916 0.0
C1279 C 0.65516 0.80847 0.33844 0.0
C1280 C 0.63648 0.8226 0.34306 0.0
C1281 C 0.64749 0.84576 0.35712 0.0
C1282 C 0.62243 0.8259 0.31941 0.0
C1283 C 0.62141 0.80714 0.35824 0.0
C1284 C 0.6301 0.78732 0.36156 0.0
C1285 C 0.61921 0.77062 0.37526 0.0
C1286 C 0.59886 0.77425 0.38574 0.0
C1287 C 0.58968 0.79444 0.38247 0.0
C1288 C 0.60119 0.81103 0.36853 0.0
H1289 H 0.00447 0.13182 0.01316 0.0
H1290 H 0.07682 0.13476 0.99669 0.0
H1291 H 0.07773 0.1737 0.98361 0.0
H1292 H 0.98583 0.15975 0.96377 0.0
H1293 H 0.96702 0.17509 0.97992 0.0
H1294 H 0.9725 0.14806 0.98919 0.0
H1295 H 0.98766 0.16702 0.03211 0.0
H1296 H 0.98196 0.19408 0.02304 0.0
H1297 H 0.01104 0.19194 0.03598 0.0
H1298 H 0.07023 0.212 0.97143 0.0
H1299 H 0.05501 0.24663 0.96109 0.0
H1300 H 0.9875 0.21828 0.98563 0.0
C1301 C 0.02076 0.1409 0.00756 0.0
C1302 C 0.04078 0.1305 0.00653 0.0
C1303 C 0.06135 0.14253 0.99784 0.0
C1304 C 0.06204 0.16464 0.99041 0.0
C1305 C 0.04194 0.17438 0.99163 0.0
C1306 C 0.0217 0.1629 3e-05 0.0
C1307 C 0.00221 0.1768 0.99874 0.0
C1308 C 0.98062 0.16417 0.9819 0.0
C1309 C 0.99532 0.18282 0.02397 0.0
C1310 C 0.01459 0.19787 0.98818 0.0
C1311 C 0.03751 0.19619 0.98428 0.0
C1312 C 0.05233 0.21351 0.97448 0.0
C1313 C 0.04351 0.2331 0.96863 0.0
C1314 C 0.02005 0.23517 0.97251 0.0
C1315 C 0.00548 0.21723 0.98239 0.0
H1316 H 0.31277 0.28833 0.27854 0.0
H1317 H 0.31101 0.36087 0.27875 0.0
H1318 H 0.34772 0.36684 0.25853 0.0
H1319 H 0.37638 0.29565 0.29129 0.0
H1320 H 0.37833 0.27032 0.27253 0.0
H1321 H 0.35182 0.27181 0.28676 0.0
H1322 H 0.32703 0.26305 0.24527 0.0
H1323 H 0.35346 0.26159 0.23091 0.0
H1324 H 0.33459 0.28097 0.22146 0.0
H1325 H 0.38335 0.36437 0.2362 0.0
H1326 H 0.41725 0.3543 0.21655 0.0
H1327 H 0.3972 0.28392 0.23356 0.0
C1328 C 0.32012 0.30547 0.27433 0.0
C1329 C 0.309 0.32414 0.28005 0.0
C1330 C 0.31929 0.34635 0.27453 0.0
C1331 C 0.34008 0.34989 0.263 0.0
C1332 C 0.35054 0.33109 0.25749 0.0
C1333 C 0.34109 0.30938 0.26325 0.0
C1334 C 0.35608 0.29218 0.25588 0.0
C1335 C 0.36626 0.28189 0.27793 0.0
C1336 C 0.34194 0.27334 0.23727 0.0
C1337 C 0.37529 0.30756 0.24479 0.0
C1338 C 0.37166 0.3299 0.24569 0.0
C1339 C 0.38652 0.34699 0.23563 0.0
C1340 C 0.40566 0.3411 0.22445 0.0
C1341 C 0.40994 0.3184 0.22375 0.0
C1342 C 0.39456 0.30149 0.23415 0.0
H1343 H 0.55924 0.38998 0.05349 0.0
H1344 H 0.625 0.39511 0.09898 0.0
H1345 H 0.60253 0.38808 0.13403 0.0
H1346 H 0.52607 0.41559 0.09958 0.0
H1347 H 0.49897 0.39599 0.08888 0.0
H1348 H 0.52031 0.40515 0.06826 0.0
H1349 H 0.52154 0.36272 0.05541 0.0
H1350 H 0.5003 0.35347 0.07593 0.0
H1351 H 0.52835 0.3442 0.07801 0.0
H1352 H 0.57302 0.3749 0.1626 0.0
H1353 H 0.53879 0.35661 0.18234 0.0
H1354 H 0.49228 0.36078 0.11847 0.0
C1355 C 0.56896 0.39023 0.07093 0.0
C1356 C 0.59388 0.39317 0.07351 0.0
C1357 C 0.60591 0.39299 0.09658 0.0
C1358 C 0.5933 0.3891 0.11662 0.0
C1359 C 0.5687 0.38566 0.11335 0.0
C1360 C 0.55666 0.38639 0.0911 0.0
C1361 C 0.53018 0.37998 0.09187 0.0
C1362 C 0.51818 0.4004 0.08685 0.0
C1363 C 0.51948 0.35884 0.07428 0.0
C1364 C 0.52924 0.37454 0.11775 0.0
C1365 C 0.55161 0.37826 0.12996 0.0
C1366 C 0.55537 0.37239 0.15341 0.0
C1367 C 0.53583 0.36197 0.16446 0.0
C1368 C 0.51286 0.35749 0.15203 0.0
C1369 C 0.50954 0.36445 0.12863 0.0
H1370 H 0.59893 0.26052 0.33034 0.0
H1371 H 0.64572 0.32391 0.31945 0.0
H1372 H 0.61411 0.33426 0.29225 0.0
H1373 H 0.57307 0.24828 0.27069 0.0
H1374 H 0.54394 0.2367 0.27845 0.0
H1375 H 0.56956 0.23517 0.29847 0.0
H1376 H 0.5526 0.25614 0.33311 0.0
H1377 H 0.52684 0.25766 0.31321 0.0
H1378 H 0.54432 0.28346 0.32895 0.0
H1379 H 0.57815 0.33641 0.26414 0.0
H1380 H 0.54056 0.33046 0.23789 0.0
H1381 H 0.51754 0.2657 0.26751 0.0
C1382 C 0.60249 0.27674 0.32251 0.0
C1383 C 0.62482 0.29142 0.32707 0.0
C1384 C 0.62874 0.3124 0.31629 0.0
C1385 C 0.61089 0.31844 0.30082 0.0
C1386 C 0.58921 0.30337 0.29643 0.0
C1387 C 0.58492 0.28301 0.30708 0.0
C1388 C 0.56047 0.26937 0.29868 0.0
C1389 C 0.56186 0.24601 0.28581 0.0
C1390 C 0.54516 0.2665 0.31975 0.0
C1391 C 0.55179 0.28504 0.28132 0.0
C1392 C 0.56855 0.30463 0.28035 0.0
C1393 C 0.56482 0.32124 0.26493 0.0
C1394 C 0.54343 0.31768 0.25006 0.0
C1395 C 0.52607 0.29766 0.25072 0.0
C1396 C 0.53035 0.28127 0.26671 0.0
H1397 H 0.5051 0.16278 0.08802 0.0
H1398 H 0.46555 0.17731 0.02337 0.0
H1399 H 0.44903 0.20588 0.04719 0.0
H1400 H 0.46002 0.16985 0.12911 0.0
H1401 H 0.48173 0.1832 0.1534 0.0
H1402 H 0.48897 0.16247 0.13164 0.0
H1403 H 0.52516 0.19204 0.12252 0.0
H1404 H 0.51805 0.21281 0.14423 0.0
H1405 H 0.52091 0.21965 0.11371 0.0
H1406 H 0.43947 0.2351 0.07716 0.0
H1407 H 0.43748 0.26292 0.11137 0.0
H1408 H 0.48249 0.22901 0.15681 0.0
C1409 C 0.49271 0.17173 0.07892 0.0
C1410 C 0.48661 0.16776 0.05381 0.0
C1411 C 0.47049 0.18001 0.04257 0.0
C1412 C 0.46094 0.19624 0.05596 0.0
C1413 C 0.46753 0.19994 0.0806 0.0
C1414 C 0.48296 0.18798 0.09202 0.0
C1415 C 0.4881 0.19609 0.11851 0.0
C1416 C 0.47916 0.17675 0.13408 0.0
C1417 C 0.51462 0.20572 0.12512 0.0
C1418 C 0.4736 0.21484 0.12006 0.0
C1419 C 0.46175 0.21666 0.09802 0.0
C1420 C 0.44839 0.23364 0.09459 0.0
C1421 C 0.4474 0.24939 0.11413 0.0
C1422 C 0.45966 0.24804 0.13682 0.0
C1423 C 0.47257 0.23025 0.13983 0.0
H1424 H 0.2872 0.36752 0.76218 0.0
H1425 H 0.22298 0.39509 0.76682 0.0
H1426 H 0.24676 0.43406 0.77484 0.0
H1427 H 0.32104 0.40244 0.80906 0.0
H1428 H 0.34836 0.40649 0.7953 0.0
H1429 H 0.32639 0.38097 0.78693 0.0
H1430 H 0.32559 0.38942 0.74222 0.0
H1431 H 0.34782 0.41486 0.7504 0.0
H1432 H 0.32023 0.41682 0.73382 0.0
H1433 H 0.27745 0.4691 0.78825 0.0
H1434 H 0.31311 0.49846 0.8018 0.0
H1435 H 0.35733 0.44869 0.78643 0.0
C1436 C 0.27809 0.3818 0.76428 0.0
C1437 C 0.2532 0.37819 0.76387 0.0
C1438 C 0.24201 0.39736 0.76693 0.0
C1439 C 0.25536 0.41961 0.77154 0.0
C1440 C 0.27988 0.42248 0.77266 0.0
C1441 C 0.29115 0.40417 0.76865 0.0
C1442 C 0.31778 0.41183 0.77196 0.0
C1443 C 0.32904 0.39971 0.792 0.0
C1444 C 0.32848 0.40801 0.74818 0.0
C1445 C 0.31969 0.43713 0.77929 0.0
C1446 C 0.29763 0.44293 0.77957 0.0
C1447 C 0.29484 0.46489 0.7876 0.0
C1448 C 0.31516 0.4814 0.79541 0.0
C1449 C 0.33793 0.47588 0.79492 0.0
C1450 C 0.34015 0.4535 0.78656 0.0
H1451 H 0.30468 0.67251 0.84633 0.0
H1452 H 0.35681 0.71442 0.8089 0.0
H1453 H 0.38057 0.68389 0.80861 0.0
H1454 H 0.34717 0.64723 0.8836 0.0
H1455 H 0.32755 0.61979 0.88173 0.0
H1456 H 0.3156 0.64564 0.88045 0.0
H1457 H 0.2913 0.62918 0.83996 0.0
H1458 H 0.30328 0.60338 0.84102 0.0
H1459 H 0.30633 0.61978 0.81531 0.0
H1460 H 0.39651 0.64716 0.80875 0.0
H1461 H 0.40487 0.60814 0.81206 0.0
H1462 H 0.34327 0.59106 0.85095 0.0
C1463 C 0.32127 0.67543 0.83839 0.0
C1464 C 0.32888 0.69586 0.82762 0.0
C1465 C 0.35067 0.69896 0.81736 0.0
C1466 C 0.36427 0.6817 0.81707 0.0
C1467 C 0.35601 0.66157 0.8274 0.0
C1468 C 0.33518 0.65849 0.83817 0.0
C1469 C 0.3299 0.63503 0.84743 0.0
C1470 C 0.33007 0.63705 0.87494 0.0
C1471 C 0.30631 0.62102 0.83519 0.0
C1472 C 0.35071 0.62517 0.83968 0.0
C1473 C 0.36557 0.64072 0.82813 0.0
C1474 C 0.38521 0.63498 0.81811 0.0
C1475 C 0.38977 0.61277 0.81998 0.0
C1476 C 0.37486 0.59668 0.83195 0.0
C1477 C 0.35521 0.60311 0.84204 0.0
H1478 H 0.80254 0.53487 0.39064 0.0
H1479 H 0.85382 0.57972 0.44231 0.0
H1480 H 0.84154 0.55507 0.47433 0.0
H1481 H 0.75685 0.5229 0.43139 0.0
H1482 H 0.74728 0.49359 0.4189 0.0
H1483 H 0.75975 0.51513 0.40027 0.0
H1484 H 0.79103 0.49094 0.38952 0.0
H1485 H 0.77874 0.46939 0.40818 0.0
H1486 H 0.80965 0.48233 0.4133 0.0
H1487 H 0.82563 0.52395 0.49999 0.0
H1488 H 0.80504 0.49026 0.51813 0.0
H1489 H 0.76278 0.46702 0.45011 0.0
C1490 C 0.81108 0.53959 0.40872 0.0
C1491 C 0.82916 0.55917 0.41401 0.0
C1492 C 0.83984 0.56484 0.4379 0.0
C1493 C 0.83304 0.55092 0.45618 0.0
C1494 C 0.81532 0.53159 0.45031 0.0
C1495 C 0.80427 0.52609 0.42723 0.0
C1496 C 0.78572 0.5044 0.42565 0.0
C1497 C 0.76093 0.50931 0.41864 0.0
C1498 C 0.79166 0.48566 0.40813 0.0
C1499 C 0.78833 0.49834 0.45136 0.0
C1500 C 0.80558 0.51416 0.46529 0.0
C1501 C 0.81189 0.5116 0.48935 0.0
C1502 C 0.80018 0.49238 0.49946 0.0
C1503 C 0.78221 0.47616 0.48557 0.0
C1504 C 0.77621 0.47931 0.46126 0.0
H1505 H 0.67983 0.87754 0.79343 0.0
H1506 H 0.73809 0.8941 0.85003 0.0
H1507 H 0.72992 0.93307 0.85661 0.0
H1508 H 0.68945 0.93352 0.76965 0.0
H1509 H 0.65834 0.9334 0.76312 0.0
H1510 H 0.66894 0.90675 0.76241 0.0
H1511 H 0.63993 0.89213 0.79306 0.0
H1512 H 0.62936 0.9188 0.79399 0.0
H1513 H 0.64078 0.90879 0.82138 0.0
H1514 H 0.71465 0.96931 0.85864 0.0
H1515 H 0.69487 0.0022 0.85405 0.0
H1516 H 0.647 0.9633 0.79528 0.0
C1517 C 0.69096 0.88942 0.80709 0.0
C1518 C 0.70958 0.88271 0.82125 0.0
C1519 C 0.72375 0.89879 0.83892 0.0
C1520 C 0.71922 0.92098 0.84286 0.0
C1521 C 0.70059 0.92694 0.82886 0.0
C1522 C 0.68681 0.91178 0.81116 0.0
C1523 C 0.66793 0.92275 0.79863 0.0
C1524 C 0.67138 0.92419 0.77186 0.0
C1525 C 0.64303 0.90985 0.80198 0.0
C1526 C 0.67317 0.94634 0.81226 0.0
C1527 C 0.69202 0.94826 0.82968 0.0
C1528 C 0.69997 0.96812 0.84497 0.0
C1529 C 0.68852 0.98668 0.84225 0.0
C1530 C 0.6694 0.98536 0.82428 0.0
C1531 C 0.66161 0.96485 0.80913 0.0
H1532 H 0.62838 0.4906 0.01602 0.0
H1533 H 0.66684 0.45589 0.96663 0.0
H1534 H 0.688 0.49329 0.95655 0.0
H1535 H 0.62458 0.54148 0.98075 0.0
H1536 H 0.6289 0.56076 0.00772 0.0
H1537 H 0.61404 0.53144 0.00813 0.0
H1538 H 0.64416 0.52617 0.04331 0.0
H1539 H 0.65916 0.55534 0.04291 0.0
H1540 H 0.67533 0.53228 0.03981 0.0
H1541 H 0.70838 0.53343 0.9557 0.0
H1542 H 0.72739 0.57402 0.96459 0.0
H1543 H 0.67565 0.58339 0.01425 0.0
C1544 C 0.64054 0.49093 0.00237 0.0
C1545 C 0.64564 0.47042 0.99169 0.0
C1546 C 0.66257 0.47146 0.97483 0.0
C1547 C 0.67456 0.4926 0.9689 0.0
C1548 C 0.66941 0.51254 0.98 0.0
C1549 C 0.65276 0.51194 0.99632 0.0
C1550 C 0.65241 0.53581 0.00754 0.0
C1551 C 0.62857 0.54278 0.00062 0.0
C1552 C 0.65812 0.53748 0.03501 0.0
C1553 C 0.67213 0.54976 0.99569 0.0
C1554 C 0.6814 0.536 0.97958 0.0
C1555 C 0.70101 0.54448 0.96791 0.0
C1556 C 0.71174 0.56754 0.97316 0.0
C1557 C 0.70289 0.58188 0.98998 0.0
C1558 C 0.68249 0.57295 0.00094 0.0
H1559 H 0.22688 0.68681 0.25321 0.0
H1560 H 0.27084 0.69286 0.32107 0.0
H1561 H 0.24224 0.66218 0.33542 0.0
H1562 H 0.17048 0.67581 0.27808 0.0
H1563 H 0.15645 0.65553 0.25333 0.0
H1564 H 0.18016 0.67838 0.24853 0.0
H1565 H 0.20312 0.64861 0.23084 0.0
H1566 H 0.17954 0.62566 0.23572 0.0
H1567 H 0.20931 0.6258 0.24839 0.0
H1568 H 0.20954 0.63035 0.34219 0.0
H1569 H 0.17409 0.6001 0.34135 0.0
H1570 H 0.15125 0.61462 0.26916 0.0
C1571 C 0.23041 0.68179 0.27114 0.0
C1572 C 0.25111 0.69226 0.28601 0.0
C1573 C 0.25512 0.68512 0.30933 0.0
C1574 C 0.23899 0.66768 0.31767 0.0
C1575 C 0.21891 0.65756 0.30249 0.0
C1576 C 0.21448 0.66438 0.27977 0.0
C1577 C 0.19162 0.6505 0.26703 0.0
C1578 C 0.17361 0.66598 0.26142 0.0
C1579 C 0.19618 0.63683 0.24414 0.0
C1580 C 0.18397 0.6348 0.28613 0.0
C1581 C 0.19998 0.63915 0.30642 0.0
C1582 C 0.19682 0.6268 0.32643 0.0
C1583 C 0.17664 0.60962 0.32575 0.0
C1584 C 0.15985 0.60496 0.30521 0.0
C1585 C 0.16372 0.61773 0.28514 0.0
H1586 H 0.84508 0.53623 0.10736 0.0
H1587 H 0.83152 0.56881 0.17517 0.0
H1588 H 0.81952 0.60043 0.15397 0.0
H1589 H 0.86748 0.58959 0.08011 0.0
H1590 H 0.85357 0.57816 0.05065 0.0
H1591 H 0.86331 0.55927 0.07145 0.0
H1592 H 0.82108 0.53461 0.06718 0.0
H1593 H 0.81127 0.55333 0.04634 0.0
H1594 H 0.79637 0.54812 0.0729 0.0
H1595 H 0.80499 0.6262 0.12497 0.0
H1596 H 0.78904 0.6441 0.09033 0.0
H1597 H 0.81333 0.59545 0.04163 0.0
C1598 C 0.83993 0.55018 0.11782 0.0
C1599 C 0.83925 0.55005 0.14293 0.0
C1600 C 0.83223 0.56855 0.15592 0.0
C1601 C 0.82546 0.58664 0.14405 0.0
C1602 C 0.82606 0.58609 0.11923 0.0
C1603 C 0.83325 0.56841 0.10628 0.0
C1604 C 0.83094 0.57117 0.0796 0.0
C1605 C 0.85528 0.57477 0.06989 0.0
C1606 C 0.8139 0.55059 0.0657 0.0
C1607 C 0.82062 0.59278 0.07949 0.0
C1608 C 0.81813 0.60124 0.10255 0.0
C1609 C 0.80725 0.61999 0.10687 0.0
C1610 C 0.79823 0.63003 0.08709 0.0
C1611 C 0.80022 0.62133 0.06333 0.0
C1612 C 0.81206 0.60281 0.05959 0.0
H1613 H 0.11128 0.01607 0.99016 0.0
H1614 H 0.10271 0.02355 0.06626 0.0
H1615 H 0.13415 0.00117 0.07461 0.0
H1616 H 0.1216 0.95867 0.98763 0.0
H1617 H 0.14341 0.96337 0.96651 0.0
H1618 H 0.12037 0.98007 0.96663 0.0
H1619 H 0.15183 0.01759 0.97235 0.0
H1620 H 0.17495 0.00101 0.97203 0.0
H1621 H 0.17472 0.02169 0.99708 0.0
H1622 H 0.166 0.97673 0.07429 0.0
H1623 H 0.19748 0.95501 0.06556 0.0
H1624 H 0.18531 0.96469 0.98987 0.0
C1625 C 0.11605 0.01309 0.00861 0.0
C1626 C 0.10449 0.02152 0.02755 0.0
C1627 C 0.11135 0.01731 0.05145 0.0
C1628 C 0.12912 0.00454 0.05637 0.0
C1629 C 0.13995 0.99623 0.0372 0.0
C1630 C 0.13381 0.00055 0.01384 0.0
C1631 C 0.14833 0.99007 0.99647 0.0
C1632 C 0.13248 0.97197 0.97824 0.0
C1633 C 0.16335 0.0087 0.98374 0.0
C1634 C 0.1636 0.97911 0.01367 0.0
C1635 C 0.15843 0.98267 0.03708 0.0
C1636 C 0.17023 0.97392 0.05602 0.0
C1637 C 0.188 0.96153 0.05089 0.0
C1638 C 0.19388 0.9582 0.02707 0.0
C1639 C 0.18131 0.96699 0.00829 0.0
loop_
_geom_bond_atom_site_label_1
_geom_bond_atom_site_label_2
_geom_bond_distance
_geom_bond_site_symmetry_2
_ccdc_geom_bond_type
O0 Cd1 2.300 . S
O0 C7 1.275 . S
Cd1 O0 2.300 . S
Cd1 O9 2.381 . S
Cd1 O10 2.378 . S
O2 Cd3 2.385 . S
O2 C7 1.255 . S
Cd3 O2 2.385 . S
Cd3 O4 2.317 . S
O4 Cd3 2.317 . S
O4 C5 1.232 . S
C5 O4 1.232 . S
C5 O6 1.218 . S
O6 C5 1.218 . S
C7 O0 1.275 . S
C7 O2 1.255 . S
C8 O9 1.258 . S
C8 O10 1.256 . S
O9 Cd1 2.381 . S
O9 C8 1.258 . S
O10 Cd1 2.378 . S
O10 C8 1.256 . S
O11 Cd12 2.300 . S
O11 C18 1.275 . S
Cd12 O11 2.300 . S
Cd12 O20 2.381 . S
Cd12 O21 2.378 . S
O13 Cd14 2.385 . S
O13 C18 1.255 . S
Cd14 O13 2.385 . S
Cd14 O15 2.317 . S
O15 Cd14 2.317 . S
O15 C16 1.232 . S
C16 O15 1.232 . S
C16 O17 1.218 . S
O17 C16 1.218 . S
C18 O11 1.275 . S
C18 O13 1.255 . S
C19 O20 1.258 . S
C19 O21 1.256 . S
O20 Cd12 2.381 . S
O20 C19 1.258 . S
O21 Cd12 2.378 . S
O21 C19 1.256 . S
O22 Cd23 2.300 . S
O22 C29 1.275 . S
Cd23 O22 2.300 . S
Cd23 O31 2.381 . S
Cd23 O32 2.378 . S
O24 Cd25 2.385 . S
O24 C29 1.255 . S
Cd25 O24 2.385 . S
Cd25 O26 2.317 . S
O26 Cd25 2.317 . S
O26 C27 1.232 . S
C27 O26 1.232 . S
C27 O28 1.218 . S
O28 C27 1.218 . S
C29 O22 1.275 . S
C29 O24 1.255 . S
C30 O31 1.258 . S
C30 O32 1.256 . S
O31 Cd23 2.381 . S
O31 C30 1.258 . S
O32 Cd23 2.378 . S
O32 C30 1.256 . S
O33 Cd34 2.300 . S
O33 C40 1.275 . S
Cd34 O33 2.300 . S
Cd34 O42 2.381 . S
Cd34 O43 2.378 . S
O35 Cd36 2.385 . S
O35 C40 1.255 . S
Cd36 O35 2.385 . S
Cd36 O37 2.317 . S
O37 Cd36 2.317 . S
O37 C38 1.232 . S
C38 O37 1.232 . S
C38 O39 1.218 . S
O39 C38 1.218 . S
C40 O33 1.275 . S
C40 O35 1.255 . S
C41 O42 1.258 . S
C41 O43 1.256 . S
O42 Cd34 2.381 . S
O42 C41 1.258 . S
O43 Cd34 2.378 . S
O43 C41 1.256 . S
O44 Cd45 2.300 . S
O44 C51 1.275 . S
Cd45 O44 2.300 . S
Cd45 O53 2.381 . S
Cd45 O54 2.378 . S
O46 Cd47 2.385 1_565 S
O46 C51 1.255 . S
Cd47 O46 2.385 1_545 S
Cd47 O48 2.317 1_545 S
O48 Cd47 2.317 1_565 S
O48 C49 1.232 . S
C49 O48 1.232 . S
C49 O50 1.218 1_565 S
O50 C49 1.218 1_545 S
C51 O44 1.275 . S
C51 O46 1.255 . S
C52 O53 1.258 . S
C52 O54 1.256 . S
O53 Cd45 2.381 . S
O53 C52 1.258 . S
O54 Cd45 2.378 . S
O54 C52 1.256 . S
O55 Cd56 2.300 . S
O55 C62 1.275 . S
Cd56 O55 2.300 . S
Cd56 O64 2.381 . S
Cd56 O65 2.378 . S
O57 Cd58 2.385 . S
O57 C62 1.255 . S
Cd58 O57 2.385 . S
Cd58 O59 2.317 . S
O59 Cd58 2.317 . S
O59 C60 1.232 . S
C60 O59 1.232 . S
C60 O61 1.218 . S
O61 C60 1.218 . S
C62 O55 1.275 . S
C62 O57 1.255 . S
C63 O64 1.258 . S
C63 O65 1.256 . S
O64 Cd56 2.381 . S
O64 C63 1.258 . S
O65 Cd56 2.378 . S
O65 C63 1.256 . S
O66 Cd67 2.300 . S
O66 C73 1.275 . S
Cd67 O66 2.300 . S
Cd67 O75 2.381 . S
Cd67 O76 2.378 . S
O68 Cd69 2.385 . S
O68 C73 1.255 . S
Cd69 O68 2.385 . S
Cd69 O70 2.317 . S
O70 Cd69 2.317 . S
O70 C71 1.232 . S
C71 O70 1.232 . S
C71 O72 1.218 . S
O72 C71 1.218 . S
C73 O66 1.275 . S
C73 O68 1.255 . S
C74 O75 1.258 . S
C74 O76 1.256 . S
O75 Cd67 2.381 . S
O75 C74 1.258 . S
O76 Cd67 2.378 . S
O76 C74 1.256 . S
O77 Cd78 2.300 . S
O77 C84 1.275 . S
Cd78 O77 2.300 . S
Cd78 O86 2.381 . S
Cd78 O87 2.378 . S
O79 Cd80 2.385 . S
O79 C84 1.255 . S
Cd80 O79 2.385 . S
Cd80 O81 2.317 . S
O81 Cd80 2.317 . S
O81 C82 1.232 . S
C82 O81 1.232 . S
C82 O83 1.218 . S
O83 C82 1.218 . S
C84 O77 1.275 . S
C84 O79 1.255 . S
C85 O86 1.258 . S
C85 O87 1.256 . S
O86 Cd78 2.381 . S
O86 C85 1.258 . S
O87 Cd78 2.378 . S
O87 C85 1.256 . S
O88 Cd89 2.300 . S
O88 C95 1.275 . S
Cd89 O88 2.300 . S
Cd89 O97 2.381 . S
Cd89 O98 2.378 . S
O90 Cd91 2.385 . S
O90 C95 1.255 . S
Cd91 O90 2.385 . S
Cd91 O92 2.317 . S
O92 Cd91 2.317 . S
O92 C93 1.232 . S
C93 O92 1.232 . S
C93 O94 1.218 . S
O94 C93 1.218 . S
C95 O88 1.275 . S
C95 O90 1.255 . S
C96 O97 1.258 . S
C96 O98 1.256 . S
O97 Cd89 2.381 . S
O97 C96 1.258 . S
O98 Cd89 2.378 . S
O98 C96 1.256 . S
O99 Cd100 2.300 . S
O99 C106 1.275 . S
Cd100 O99 2.300 . S
Cd100 O108 2.381 . S
Cd100 O109 2.378 . S
O101 Cd102 2.385 . S
O101 C106 1.255 . S
Cd102 O101 2.385 . S
Cd102 O103 2.317 . S
O103 Cd102 2.317 . S
O103 C104 1.232 . S
C104 O103 1.232 . S
C104 O105 1.218 . S
O105 C104 1.218 . S
C106 O99 1.275 . S
C106 O101 1.255 . S
C107 O108 1.258 . S
C107 O109 1.256 . S
O108 Cd100 2.381 . S
O108 C107 1.258 . S
O109 Cd100 2.378 . S
O109 C107 1.256 . S
O110 Cd111 2.300 . S
O110 C117 1.275 . S
Cd111 O110 2.300 . S
Cd111 O119 2.381 . S
Cd111 O120 2.378 . S
O112 Cd113 2.385 . S
O112 C117 1.255 . S
Cd113 O112 2.385 . S
Cd113 O114 2.317 . S
O114 Cd113 2.317 . S
O114 C115 1.232 . S
C115 O114 1.232 . S
C115 O116 1.218 . S
O116 C115 1.218 . S
C117 O110 1.275 . S
C117 O112 1.255 . S
C118 O119 1.258 . S
C118 O120 1.256 . S
O119 Cd111 2.381 . S
O119 C118 1.258 . S
O120 Cd111 2.378 . S
O120 C118 1.256 . S
O121 Cd122 2.300 . S
O121 C128 1.275 . S
Cd122 O121 2.300 . S
Cd122 O130 2.381 . S
Cd122 O131 2.378 . S
O123 Cd124 2.385 . S
O123 C128 1.255 . S
Cd124 O123 2.385 . S
Cd124 O125 2.317 . S
O125 Cd124 2.317 . S
O125 C126 1.232 . S
C126 O125 1.232 . S
C126 O127 1.218 . S
O127 C126 1.218 . S
C128 O121 1.275 . S
C128 O123 1.255 . S
C129 O130 1.258 . S
C129 O131 1.256 . S
O130 Cd122 2.381 . S
O130 C129 1.258 . S
O131 Cd122 2.378 . S
O131 C129 1.256 . S
O132 Cd133 2.300 . S
O132 C139 1.275 . S
Cd133 O132 2.300 . S
Cd133 O141 2.381 . S
Cd133 O142 2.378 . S
O134 Cd135 2.385 . S
O134 C139 1.255 . S
Cd135 O134 2.385 . S
Cd135 O136 2.317 . S
O136 Cd135 2.317 . S
O136 C137 1.232 . S
C137 O136 1.232 . S
C137 O138 1.218 . S
O138 C137 1.218 . S
C139 O132 1.275 . S
C139 O134 1.255 . S
C140 O141 1.258 . S
C140 O142 1.256 . S
O141 Cd133 2.381 . S
O141 C140 1.258 . S
O142 Cd133 2.378 . S
O142 C140 1.256 . S
O143 Cd144 2.300 . S
O143 C150 1.275 . S
Cd144 O143 2.300 . S
Cd144 O152 2.381 . S
Cd144 O153 2.378 . S
O145 Cd146 2.385 . S
O145 C150 1.255 . S
Cd146 O145 2.385 . S
Cd146 O147 2.317 . S
O147 Cd146 2.317 . S
O147 C148 1.232 . S
C148 O147 1.232 . S
C148 O149 1.218 . S
O149 C148 1.218 . S
C150 O143 1.275 . S
C150 O145 1.255 . S
C151 O152 1.258 . S
C151 O153 1.256 . S
O152 Cd144 2.381 . S
O152 C151 1.258 . S
O153 Cd144 2.378 . S
O153 C151 1.256 . S
O154 Cd155 2.300 . S
O154 C161 1.275 . S
Cd155 O154 2.300 . S
Cd155 O163 2.381 . S
Cd155 O164 2.378 . S
O156 Cd157 2.385 . S
O156 C161 1.255 . S
Cd157 O156 2.385 . S
Cd157 O158 2.317 . S
O158 Cd157 2.317 . S
O158 C159 1.232 . S
C159 O158 1.232 . S
C159 O160 1.218 . S
O160 C159 1.218 . S
C161 O154 1.275 . S
C161 O156 1.255 . S
C162 O163 1.258 . S
C162 O164 1.256 . S
O163 Cd155 2.381 . S
O163 C162 1.258 . S
O164 Cd155 2.378 . S
O164 C162 1.256 . S
O165 Cd166 2.300 . S
O165 C172 1.275 . S
Cd166 O165 2.300 . S
Cd166 O174 2.381 . S
Cd166 O175 2.378 . S
O167 Cd168 2.385 . S
O167 C172 1.255 . S
Cd168 O167 2.385 . S
Cd168 O169 2.317 . S
O169 Cd168 2.317 . S
O169 C170 1.232 . S
C170 O169 1.232 . S
C170 O171 1.218 . S
O171 C170 1.218 . S
C172 O165 1.275 . S
C172 O167 1.255 . S
C173 O174 1.258 . S
C173 O175 1.256 . S
O174 Cd166 2.381 . S
O174 C173 1.258 . S
O175 Cd166 2.378 . S
O175 C173 1.256 . S
O176 Cd177 2.223 . S
O176 C184 1.315 . S
Cd177 O176 2.223 . S
Cd177 O180 2.297 . S
Cd177 O181 2.439 . S
Cd177 O187 2.240 . S
Cd178 O179 2.240 . S
Cd178 O186 2.223 . S
Cd178 O188 2.297 . S
Cd178 O189 2.439 . S
O179 Cd178 2.240 . S
O179 C184 1.279 . S
O180 Cd177 2.297 . S
O180 C182 1.247 . S
O181 Cd177 2.439 . S
O181 C182 1.208 . S
C182 O180 1.247 . S
C182 O181 1.208 . S
C183 O188 1.247 . S
C183 O189 1.208 . S
C184 O176 1.315 . S
C184 O179 1.279 . S
C185 O186 1.315 . S
C185 O187 1.279 . S
O186 Cd178 2.223 . S
O186 C185 1.315 . S
O187 Cd177 2.240 . S
O187 C185 1.279 . S
O188 Cd178 2.297 . S
O188 C183 1.247 . S
O189 Cd178 2.439 . S
O189 C183 1.208 . S
O190 Cd191 2.223 . S
O190 C198 1.315 . S
Cd191 O190 2.223 . S
Cd191 O194 2.297 . S
Cd191 O195 2.439 . S
Cd191 O201 2.240 . S
Cd192 O193 2.240 . S
Cd192 O200 2.223 . S
Cd192 O202 2.297 . S
Cd192 O203 2.439 . S
O193 Cd192 2.240 . S
O193 C198 1.279 . S
O194 Cd191 2.297 . S
O194 C196 1.247 . S
O195 Cd191 2.439 . S
O195 C196 1.208 . S
C196 O194 1.247 . S
C196 O195 1.208 . S
C197 O202 1.247 . S
C197 O203 1.208 . S
C198 O190 1.315 . S
C198 O193 1.279 . S
C199 O200 1.315 . S
C199 O201 1.279 . S
O200 Cd192 2.223 . S
O200 C199 1.315 . S
O201 Cd191 2.240 . S
O201 C199 1.279 . S
O202 Cd192 2.297 . S
O202 C197 1.247 . S
O203 Cd192 2.439 . S
O203 C197 1.208 . S
O204 Cd205 2.223 1_556 S
O204 C212 1.315 . S
Cd205 O204 2.223 1_554 S
Cd205 O208 2.297 . S
Cd205 O209 2.439 . S
Cd205 O215 2.240 . S
Cd206 O207 2.242 . S
Cd206 O214 2.235 . S
Cd206 O216 2.288 1_556 S
Cd206 O217 2.415 1_556 S
O207 Cd206 2.242 . S
O207 C212 1.279 . S
O208 Cd205 2.297 . S
O208 C210 1.247 . S
O209 Cd205 2.439 . S
O209 C210 1.208 . S
C210 O208 1.247 . S
C210 O209 1.208 . S
C211 O216 1.247 . S
C211 O217 1.208 . S
C212 O204 1.315 . S
C212 O207 1.279 . S
C213 O214 1.315 . S
C213 O215 1.279 1_556 S
O214 Cd206 2.235 . S
O214 C213 1.315 . S
O215 Cd205 2.240 . S
O215 C213 1.279 1_554 S
O216 Cd206 2.288 1_554 S
O216 C211 1.247 . S
O217 Cd206 2.415 1_554 S
O217 C211 1.208 . S
O218 Cd219 2.223 . S
O218 C226 1.315 . S
Cd219 O218 2.223 . S
Cd219 O222 2.297 . S
Cd219 O223 2.439 . S
Cd219 O229 2.240 . S
Cd220 O221 2.240 . S
Cd220 O228 2.223 . S
Cd220 O230 2.297 . S
Cd220 O231 2.439 . S
O221 Cd220 2.240 . S
O221 C226 1.279 . S
O222 Cd219 2.297 . S
O222 C224 1.247 . S
O223 Cd219 2.439 . S
O223 C224 1.208 . S
C224 O222 1.247 . S
C224 O223 1.208 . S
C225 O230 1.247 . S
C225 O231 1.208 . S
C226 O218 1.315 . S
C226 O221 1.279 . S
C227 O228 1.315 . S
C227 O229 1.279 . S
O228 Cd220 2.223 . S
O228 C227 1.315 . S
O229 Cd219 2.240 . S
O229 C227 1.279 . S
O230 Cd220 2.297 . S
O230 C225 1.247 . S
O231 Cd220 2.439 . S
O231 C225 1.208 . S
O232 Cd233 2.223 . S
O232 C240 1.315 . S
Cd233 O232 2.223 . S
Cd233 O236 2.297 . S
Cd233 O237 2.439 . S
Cd233 O243 2.240 . S
Cd234 O235 2.240 . S
Cd234 O242 2.223 . S
Cd234 O244 2.297 . S
Cd234 O245 2.439 . S
O235 Cd234 2.240 . S
O235 C240 1.279 . S
O236 Cd233 2.297 . S
O236 C238 1.247 . S
O237 Cd233 2.439 . S
O237 C238 1.208 . S
C238 O236 1.247 . S
C238 O237 1.208 . S
C239 O244 1.247 . S
C239 O245 1.208 . S
C240 O232 1.315 . S
C240 O235 1.279 . S
C241 O242 1.315 . S
C241 O243 1.279 . S
O242 Cd234 2.223 . S
O242 C241 1.315 . S
O243 Cd233 2.240 . S
O243 C241 1.279 . S
O244 Cd234 2.297 . S
O244 C239 1.247 . S
O245 Cd234 2.439 . S
O245 C239 1.208 . S
O246 Cd247 2.223 . S
O246 C254 1.315 . S
Cd247 O246 2.223 . S
Cd247 O250 2.297 . S
Cd247 O251 2.439 . S
Cd247 O257 2.240 . S
Cd248 O249 2.240 . S
Cd248 O256 2.223 . S
Cd248 O258 2.297 . S
Cd248 O259 2.439 . S
O249 Cd248 2.240 . S
O249 C254 1.279 . S
O250 Cd247 2.297 . S
O250 C252 1.247 . S
O251 Cd247 2.439 . S
O251 C252 1.208 . S
C252 O250 1.247 . S
C252 O251 1.208 . S
C253 O258 1.247 . S
C253 O259 1.208 . S
C254 O246 1.315 . S
C254 O249 1.279 . S
C255 O256 1.315 . S
C255 O257 1.279 . S
O256 Cd248 2.223 . S
O256 C255 1.315 . S
O257 Cd247 2.240 . S
O257 C255 1.279 . S
O258 Cd248 2.297 . S
O258 C253 1.247 . S
O259 Cd248 2.439 . S
O259 C253 1.208 . S
O260 Cd261 2.223 . S
O260 C268 1.315 . S
Cd261 O260 2.223 . S
Cd261 O264 2.297 . S
Cd261 O265 2.439 . S
Cd261 O271 2.240 . S
Cd262 O263 2.240 . S
Cd262 O270 2.223 . S
Cd262 O272 2.297 . S
Cd262 O273 2.439 . S
O263 Cd262 2.240 . S
O263 C268 1.279 . S
O264 Cd261 2.297 . S
O264 C266 1.247 . S
O265 Cd261 2.439 . S
O265 C266 1.208 . S
C266 O264 1.247 . S
C266 O265 1.208 . S
C267 O272 1.247 . S
C267 O273 1.208 . S
C268 O260 1.315 . S
C268 O263 1.279 . S
C269 O270 1.315 . S
C269 O271 1.279 . S
O270 Cd262 2.223 . S
O270 C269 1.315 . S
O271 Cd261 2.240 . S
O271 C269 1.279 . S
O272 Cd262 2.297 . S
O272 C267 1.247 . S
O273 Cd262 2.439 . S
O273 C267 1.208 . S
O274 Cd275 2.223 1_545 S
O274 C282 1.315 . S
Cd275 O274 2.223 1_565 S
Cd275 O278 2.297 . S
Cd275 O279 2.439 . S
Cd275 O285 2.240 1_565 S
Cd276 O277 2.240 . S
Cd276 O284 2.223 . S
Cd276 O286 2.297 . S
Cd276 O287 2.439 1_545 S
O277 Cd276 2.240 . S
O277 C282 1.279 . S
O278 Cd275 2.297 . S
O278 C280 1.247 . S
O279 Cd275 2.439 . S
O279 C280 1.208 . S
C280 O278 1.247 . S
C280 O279 1.208 . S
C281 O286 1.247 1_565 S
C281 O287 1.208 . S
C282 O274 1.315 . S
C282 O277 1.279 . S
C283 O284 1.315 . S
C283 O285 1.279 . S
O284 Cd276 2.223 . S
O284 C283 1.315 . S
O285 Cd275 2.240 1_545 S
O285 C283 1.279 . S
O286 Cd276 2.297 . S
O286 C281 1.247 1_545 S
O287 Cd276 2.439 1_565 S
O287 C281 1.208 . S
O288 Cd289 2.223 . S
O288 C296 1.315 . S
Cd289 O288 2.223 . S
Cd289 O292 2.297 1_656 S
Cd289 O293 2.439 1_655 S
Cd289 O299 2.240 . S
Cd290 O291 2.240 . S
Cd290 O298 2.223 1_455 S
Cd290 O300 2.297 . S
Cd290 O301 2.439 . S
O291 Cd290 2.240 . S
O291 C296 1.279 1_455 S
O292 Cd289 2.297 1_454 S
O292 C294 1.247 1_554 S
O293 Cd289 2.439 1_455 S
O293 C294 1.208 . S
C294 O292 1.247 1_556 S
C294 O293 1.208 . S
C295 O300 1.247 . S
C295 O301 1.208 . S
C296 O288 1.315 . S
C296 O291 1.279 1_655 S
C297 O298 1.315 . S
C297 O299 1.279 . S
O298 Cd290 2.223 1_655 S
O298 C297 1.315 . S
O299 Cd289 2.240 . S
O299 C297 1.279 . S
O300 Cd290 2.297 . S
O300 C295 1.247 . S
O301 Cd290 2.439 . S
O301 C295 1.208 . S
O302 Cd303 2.223 . S
O302 C310 1.315 . S
Cd303 O302 2.223 . S
Cd303 O306 2.297 . S
Cd303 O307 2.439 . S
Cd303 O313 2.240 . S
Cd304 O305 2.240 . S
Cd304 O312 2.223 . S
Cd304 O314 2.297 . S
Cd304 O315 2.439 . S
O305 Cd304 2.240 . S
O305 C310 1.279 . S
O306 Cd303 2.297 . S
O306 C308 1.247 . S
O307 Cd303 2.439 . S
O307 C308 1.208 . S
C308 O306 1.247 . S
C308 O307 1.208 . S
C309 O314 1.247 . S
C309 O315 1.208 . S
C310 O302 1.315 . S
C310 O305 1.279 . S
C311 O312 1.315 . S
C311 O313 1.279 . S
O312 Cd304 2.223 . S
O312 C311 1.315 . S
O313 Cd303 2.240 . S
O313 C311 1.279 . S
O314 Cd304 2.297 . S
O314 C309 1.247 . S
O315 Cd304 2.439 . S
O315 C309 1.208 . S
O316 Cd317 2.223 1_655 S
O316 C324 1.315 . S
Cd317 O316 2.223 1_455 S
Cd317 O320 2.297 . S
Cd317 O321 2.439 . S
Cd317 O327 2.240 . S
Cd318 O319 2.240 . S
Cd318 O326 2.223 1_455 S
Cd318 O328 2.297 . S
Cd318 O329 2.439 . S
O319 Cd318 2.240 . S
O319 C324 1.279 1_455 S
O320 Cd317 2.297 . S
O320 C322 1.247 . S
O321 Cd317 2.439 . S
O321 C322 1.208 . S
C322 O320 1.247 . S
C322 O321 1.208 . S
C323 O328 1.247 . S
C323 O329 1.208 . S
C324 O316 1.315 . S
C324 O319 1.279 1_655 S
C325 O326 1.315 . S
C325 O327 1.279 1_655 S
O326 Cd318 2.223 1_655 S
O326 C325 1.315 . S
O327 Cd317 2.240 . S
O327 C325 1.279 1_455 S
O328 Cd318 2.297 . S
O328 C323 1.247 . S
O329 Cd318 2.439 . S
O329 C323 1.208 . S
O330 Cd331 2.223 . S
O330 C338 1.315 . S
Cd331 O330 2.223 . S
Cd331 O334 2.297 . S
Cd331 O335 2.439 . S
Cd331 O341 2.240 . S
Cd332 O333 2.240 . S
Cd332 O340 2.223 . S
Cd332 O342 2.297 . S
Cd332 O343 2.439 . S
O333 Cd332 2.240 . S
O333 C338 1.279 . S
O334 Cd331 2.297 . S
O334 C336 1.247 . S
O335 Cd331 2.439 . S
O335 C336 1.208 . S
C336 O334 1.247 . S
C336 O335 1.208 . S
C337 O342 1.247 . S
C337 O343 1.208 . S
C338 O330 1.315 . S
C338 O333 1.279 . S
C339 O340 1.315 . S
C339 O341 1.279 . S
O340 Cd332 2.223 . S
O340 C339 1.315 . S
O341 Cd331 2.240 . S
O341 C339 1.279 . S
O342 Cd332 2.297 . S
O342 C337 1.247 . S
O343 Cd332 2.439 . S
O343 C337 1.208 . S
H344 C356 0.930 . S
H345 C358 0.930 . S
H346 C359 0.930 . S
H347 C363 0.959 . S
H348 C363 0.959 . S
H349 C363 0.961 . S
H350 C364 0.960 . S
H351 C364 0.961 . S
H352 C364 0.959 . S
H353 C367 0.929 . S
H354 C368 0.931 . S
H355 C370 0.930 1_554 S
C356 H344 0.930 . S
C356 C357 1.399 . S
C356 C361 1.399 . S
C357 C356 1.399 . S
C357 C358 1.376 . S
C358 H345 0.930 . S
C358 C357 1.376 . S
C358 C359 1.388 . S
C359 H346 0.930 . S
C359 C358 1.388 . S
C359 C360 1.390 . S
C360 C359 1.390 . S
C360 C361 1.394 . S
C360 C366 1.465 . S
C361 C356 1.399 . S
C361 C360 1.394 . S
C361 C362 1.516 . S
C362 C361 1.516 . S
C362 C363 1.502 . S
C362 C364 1.561 . S
C362 C365 1.526 . S
C363 H347 0.959 . S
C363 H348 0.959 . S
C363 H349 0.961 . S
C363 C362 1.502 . S
C364 H350 0.960 . S
C364 H351 0.961 . S
C364 H352 0.959 . S
C364 C362 1.561 . S
C365 C362 1.526 . S
C365 C366 1.396 . S
C365 C370 1.390 . S
C366 C360 1.465 . S
C366 C365 1.396 . S
C366 C367 1.399 . S
C367 H353 0.929 . S
C367 C366 1.399 . S
C367 C368 1.385 . S
C368 H354 0.931 . S
C368 C367 1.385 . S
C368 C369 1.389 . S
C369 C368 1.389 . S
C369 C370 1.387 . S
C370 H355 0.930 1_556 S
C370 C365 1.390 . S
C370 C369 1.387 . S
H371 C383 0.930 . S
H372 C385 0.930 . S
H373 C386 0.930 . S
H374 C390 0.959 . S
H375 C390 0.959 1_455 S
H376 C390 0.961 . S
H377 C391 0.960 . S
H378 C391 0.961 . S
H379 C391 0.959 . S
H380 C394 0.929 . S
H381 C395 0.931 . S
H382 C397 0.930 . S
C383 H371 0.930 . S
C383 C384 1.399 . S
C383 C388 1.399 . S
C384 C383 1.399 . S
C384 C385 1.376 . S
C385 H372 0.930 . S
C385 C384 1.376 . S
C385 C386 1.388 1_655 S
C386 H373 0.930 . S
C386 C385 1.388 1_455 S
C386 C387 1.390 . S
C387 C386 1.390 . S
C387 C388 1.394 1_455 S
C387 C393 1.465 . S
C388 C383 1.399 . S
C388 C387 1.394 1_655 S
C388 C389 1.516 1_655 S
C389 C388 1.516 1_455 S
C389 C390 1.502 1_455 S
C389 C391 1.561 . S
C389 C392 1.526 . S
C390 H374 0.959 . S
C390 H375 0.959 1_655 S
C390 H376 0.961 . S
C390 C389 1.502 1_655 S
C391 H377 0.960 . S
C391 H378 0.961 . S
C391 H379 0.959 . S
C391 C389 1.561 . S
C392 C389 1.526 . S
C392 C393 1.396 . S
C392 C397 1.390 . S
C393 C387 1.465 . S
C393 C392 1.396 . S
C393 C394 1.399 . S
C394 H380 0.929 . S
C394 C393 1.399 . S
C394 C395 1.385 . S
C395 H381 0.931 . S
C395 C394 1.385 . S
C395 C396 1.389 . S
C396 C395 1.389 . S
C396 C397 1.387 . S
C397 H382 0.930 . S
C397 C392 1.390 . S
C397 C396 1.387 . S
H398 C410 0.930 . S
H399 C412 0.930 . S
H400 C413 0.930 . S
H401 C417 0.959 . S
H402 C417 0.959 . S
H403 C417 0.961 . S
H404 C418 0.960 . S
H405 C418 0.961 . S
H406 C418 0.959 . S
H407 C421 0.929 . S
H408 C422 0.931 . S
H409 C424 0.930 . S
C410 H398 0.930 . S
C410 C411 1.399 . S
C410 C415 1.399 . S
C411 C410 1.399 . S
C411 C412 1.376 . S
C412 H399 0.930 . S
C412 C411 1.376 . S
C412 C413 1.388 . S
C413 H400 0.930 . S
C413 C412 1.388 . S
C413 C414 1.390 . S
C414 C413 1.390 . S
C414 C415 1.394 . S
C414 C420 1.465 . S
C415 C410 1.399 . S
C415 C414 1.394 . S
C415 C416 1.516 . S
C416 C415 1.516 . S
C416 C417 1.502 . S
C416 C418 1.561 . S
C416 C419 1.526 . S
C417 H401 0.959 . S
C417 H402 0.959 . S
C417 H403 0.961 . S
C417 C416 1.502 . S
C418 H404 0.960 . S
C418 H405 0.961 . S
C418 H406 0.959 . S
C418 C416 1.561 . S
C419 C416 1.526 . S
C419 C420 1.396 . S
C419 C424 1.390 . S
C420 C414 1.465 . S
C420 C419 1.396 . S
C420 C421 1.399 . S
C421 H407 0.929 . S
C421 C420 1.399 . S
C421 C422 1.385 . S
C422 H408 0.931 . S
C422 C421 1.385 . S
C422 C423 1.389 . S
C423 C422 1.389 . S
C423 C424 1.387 . S
C424 H409 0.930 . S
C424 C419 1.390 . S
C424 C423 1.387 . S
H425 C437 0.930 . S
H426 C439 0.930 . S
H427 C440 0.930 1_655 S
H428 C444 0.959 . S
H429 C444 0.959 . S
H430 C444 0.961 . S
H431 C445 0.960 . S
H432 C445 0.961 1_655 S
H433 C445 0.959 . S
H434 C448 0.929 . S
H435 C449 0.931 . S
H436 C451 0.930 . S
C437 H425 0.930 . S
C437 C438 1.399 1_545 S
C437 C442 1.399 . S
C438 C437 1.399 1_565 S
C438 C439 1.376 . S
C439 H426 0.930 . S
C439 C438 1.376 . S
C439 C440 1.388 . S
C440 H427 0.930 1_455 S
C440 C439 1.388 . S
C440 C441 1.390 1_465 S
C441 C440 1.390 1_645 S
C441 C442 1.394 1_655 S
C441 C447 1.465 . S
C442 C437 1.399 . S
C442 C441 1.394 1_455 S
C442 C443 1.516 1_455 S
C443 C442 1.516 1_655 S
C443 C444 1.502 . S
C443 C445 1.561 1_655 S
C443 C446 1.526 . S
C444 H428 0.959 . S
C444 H429 0.959 . S
C444 H430 0.961 . S
C444 C443 1.502 . S
C445 H431 0.960 . S
C445 H432 0.961 1_455 S
C445 H433 0.959 . S
C445 C443 1.561 1_455 S
C446 C443 1.526 . S
C446 C447 1.396 . S
C446 C451 1.390 . S
C447 C441 1.465 . S
C447 C446 1.396 . S
C447 C448 1.399 . S
C448 H434 0.929 . S
C448 C447 1.399 . S
C448 C449 1.385 . S
C449 H435 0.931 . S
C449 C448 1.385 . S
C449 C450 1.389 . S
C450 C449 1.389 . S
C450 C451 1.387 . S
C451 H436 0.930 . S
C451 C446 1.390 . S
C451 C450 1.387 . S
H452 C464 0.930 . S
H453 C466 0.930 . S
H454 C467 0.930 . S
H455 C471 0.959 . S
H456 C471 0.959 . S
H457 C471 0.961 . S
H458 C472 0.960 . S
H459 C472 0.961 . S
H460 C472 0.959 . S
H461 C475 0.929 . S
H462 C476 0.931 . S
H463 C478 0.930 . S
C464 H452 0.930 . S
C464 C465 1.399 . S
C464 C469 1.399 . S
C465 C464 1.399 . S
C465 C466 1.376 . S
C466 H453 0.930 . S
C466 C465 1.376 . S
C466 C467 1.388 . S
C467 H454 0.930 . S
C467 C466 1.388 . S
C467 C468 1.390 . S
C468 C467 1.390 . S
C468 C469 1.394 . S
C468 C474 1.465 . S
C469 C464 1.399 . S
C469 C468 1.394 . S
C469 C470 1.516 . S
C470 C469 1.516 . S
C470 C471 1.502 . S
C470 C472 1.561 . S
C470 C473 1.526 . S
C471 H455 0.959 . S
C471 H456 0.959 . S
C471 H457 0.961 . S
C471 C470 1.502 . S
C472 H458 0.960 . S
C472 H459 0.961 . S
C472 H460 0.959 . S
C472 C470 1.561 . S
C473 C470 1.526 . S
C473 C474 1.396 . S
C473 C478 1.390 . S
C474 C468 1.465 . S
C474 C473 1.396 . S
C474 C475 1.399 . S
C475 H461 0.929 . S
C475 C474 1.399 . S
C475 C476 1.385 . S
C476 H462 0.931 . S
C476 C475 1.385 . S
C476 C477 1.389 . S
C477 C476 1.389 . S
C477 C478 1.387 . S
C478 H463 0.930 . S
C478 C473 1.390 . S
C478 C477 1.387 . S
H479 C491 0.930 . S
H480 C493 0.930 . S
H481 C494 0.930 . S
H482 C498 0.959 . S
H483 C498 0.959 . S
H484 C498 0.961 . S
H485 C499 0.960 . S
H486 C499 0.961 . S
H487 C499 0.959 . S
H488 C502 0.929 . S
H489 C503 0.931 . S
H490 C505 0.930 . S
C491 H479 0.930 . S
C491 C492 1.399 . S
C491 C496 1.399 . S
C492 C491 1.399 . S
C492 C493 1.376 . S
C493 H480 0.930 . S
C493 C492 1.376 . S
C493 C494 1.388 . S
C494 H481 0.930 . S
C494 C493 1.388 . S
C494 C495 1.390 . S
C495 C494 1.390 . S
C495 C496 1.394 . S
C495 C501 1.465 . S
C496 C491 1.399 . S
C496 C495 1.394 . S
C496 C497 1.516 . S
C497 C496 1.516 . S
C497 C498 1.502 . S
C497 C499 1.561 . S
C497 C500 1.526 . S
C498 H482 0.959 . S
C498 H483 0.959 . S
C498 H484 0.961 . S
C498 C497 1.502 . S
C499 H485 0.960 . S
C499 H486 0.961 . S
C499 H487 0.959 . S
C499 C497 1.561 . S
C500 C497 1.526 . S
C500 C501 1.396 . S
C500 C505 1.390 . S
C501 C495 1.465 . S
C501 C500 1.396 . S
C501 C502 1.399 . S
C502 H488 0.929 . S
C502 C501 1.399 . S
C502 C503 1.385 . S
C503 H489 0.931 . S
C503 C502 1.385 . S
C503 C504 1.389 . S
C504 C503 1.389 . S
C504 C505 1.387 . S
C505 H490 0.930 . S
C505 C500 1.390 . S
C505 C504 1.387 . S
H506 C518 0.930 . S
H507 C520 0.930 . S
H508 C521 0.930 . S
H509 C525 0.959 . S
H510 C525 0.959 . S
H511 C525 0.961 . S
H512 C526 0.960 . S
H513 C526 0.961 . S
H514 C526 0.959 . S
H515 C529 0.929 . S
H516 C530 0.931 . S
H517 C532 0.930 . S
C518 H506 0.930 . S
C518 C519 1.399 . S
C518 C523 1.399 . S
C519 C518 1.399 . S
C519 C520 1.376 . S
C520 H507 0.930 . S
C520 C519 1.376 . S
C520 C521 1.388 . S
C521 H508 0.930 . S
C521 C520 1.388 . S
C521 C522 1.390 . S
C522 C521 1.390 . S
C522 C523 1.394 . S
C522 C528 1.465 . S
C523 C518 1.399 . S
C523 C522 1.394 . S
C523 C524 1.516 . S
C524 C523 1.516 . S
C524 C525 1.502 . S
C524 C526 1.561 . S
C524 C527 1.526 . S
C525 H509 0.959 . S
C525 H510 0.959 . S
C525 H511 0.961 . S
C525 C524 1.502 . S
C526 H512 0.960 . S
C526 H513 0.961 . S
C526 H514 0.959 . S
C526 C524 1.561 . S
C527 C524 1.526 . S
C527 C528 1.396 . S
C527 C532 1.390 . S
C528 C522 1.465 . S
C528 C527 1.396 . S
C528 C529 1.399 . S
C529 H515 0.929 . S
C529 C528 1.399 . S
C529 C530 1.385 . S
C530 H516 0.931 . S
C530 C529 1.385 . S
C530 C531 1.389 . S
C531 C530 1.389 . S
C531 C532 1.387 . S
C532 H517 0.930 . S
C532 C527 1.390 . S
C532 C531 1.387 . S
H533 C545 0.930 . S
H534 C547 0.930 . S
H535 C548 0.930 . S
H536 C552 0.959 . S
H537 C552 0.959 . S
H538 C552 0.961 . S
H539 C553 0.960 . S
H540 C553 0.961 . S
H541 C553 0.959 . S
H542 C556 0.929 1_545 S
H543 C557 0.931 1_545 S
H544 C559 0.930 . S
C545 H533 0.930 . S
C545 C546 1.399 . S
C545 C550 1.399 . S
C546 C545 1.399 . S
C546 C547 1.376 . S
C547 H534 0.930 . S
C547 C546 1.376 . S
C547 C548 1.388 . S
C548 H535 0.930 . S
C548 C547 1.388 . S
C548 C549 1.390 . S
C549 C548 1.390 . S
C549 C550 1.394 . S
C549 C555 1.465 . S
C550 C545 1.399 . S
C550 C549 1.394 . S
C550 C551 1.516 . S
C551 C550 1.516 . S
C551 C552 1.502 . S
C551 C553 1.561 . S
C551 C554 1.526 . S
C552 H536 0.959 . S
C552 H537 0.959 . S
C552 H538 0.961 . S
C552 C551 1.502 . S
C553 H539 0.960 . S
C553 H540 0.961 . S
C553 H541 0.959 . S
C553 C551 1.561 . S
C554 C551 1.526 . S
C554 C555 1.396 . S
C554 C559 1.390 . S
C555 C549 1.465 . S
C555 C554 1.396 . S
C555 C556 1.399 . S
C556 H542 0.929 1_565 S
C556 C555 1.399 . S
C556 C557 1.385 . S
C557 H543 0.931 1_565 S
C557 C556 1.385 . S
C557 C558 1.389 . S
C558 C557 1.389 . S
C558 C559 1.387 . S
C559 H544 0.930 . S
C559 C554 1.390 . S
C559 C558 1.387 . S
H560 C572 0.930 . S
H561 C574 0.930 . S
H562 C575 0.930 . S
H563 C579 0.959 . S
H564 C579 0.959 . S
H565 C579 0.961 . S
H566 C580 0.960 . S
H567 C580 0.961 . S
H568 C580 0.959 . S
H569 C583 0.929 . S
H570 C584 0.931 . S
H571 C586 0.930 . S
C572 H560 0.930 . S
C572 C573 1.399 . S
C572 C577 1.399 . S
C573 C572 1.399 . S
C573 C574 1.376 . S
C574 H561 0.930 . S
C574 C573 1.376 . S
C574 C575 1.388 . S
C575 H562 0.930 . S
C575 C574 1.388 . S
C575 C576 1.390 . S
C576 C575 1.390 . S
C576 C577 1.394 . S
C576 C582 1.465 . S
C577 C572 1.399 . S
C577 C576 1.394 . S
C577 C578 1.516 . S
C578 C577 1.516 . S
C578 C579 1.502 . S
C578 C580 1.561 . S
C578 C581 1.526 . S
C579 H563 0.959 . S
C579 H564 0.959 . S
C579 H565 0.961 . S
C579 C578 1.502 . S
C580 H566 0.960 . S
C580 H567 0.961 . S
C580 H568 0.959 . S
C580 C578 1.561 . S
C581 C578 1.526 . S
C581 C582 1.396 . S
C581 C586 1.390 . S
C582 C576 1.465 . S
C582 C581 1.396 . S
C582 C583 1.399 . S
C583 H569 0.929 . S
C583 C582 1.399 . S
C583 C584 1.385 . S
C584 H570 0.931 . S
C584 C583 1.385 . S
C584 C585 1.389 . S
C585 C584 1.389 . S
C585 C586 1.387 . S
C586 H571 0.930 . S
C586 C581 1.390 . S
C586 C585 1.387 . S
H587 C599 0.930 . S
H588 C601 0.930 . S
H589 C602 0.930 . S
H590 C606 0.959 . S
H591 C606 0.959 . S
H592 C606 0.961 . S
H593 C607 0.960 . S
H594 C607 0.961 . S
H595 C607 0.959 . S
H596 C610 0.929 . S
H597 C611 0.931 . S
H598 C613 0.930 . S
C599 H587 0.930 . S
C599 C600 1.399 . S
C599 C604 1.399 . S
C600 C599 1.399 . S
C600 C601 1.376 . S
C601 H588 0.930 . S
C601 C600 1.376 . S
C601 C602 1.388 . S
C602 H589 0.930 . S
C602 C601 1.388 . S
C602 C603 1.390 . S
C603 C602 1.390 . S
C603 C604 1.394 . S
C603 C609 1.465 . S
C604 C599 1.399 . S
C604 C603 1.394 . S
C604 C605 1.516 . S
C605 C604 1.516 . S
C605 C606 1.502 . S
C605 C607 1.561 . S
C605 C608 1.526 . S
C606 H590 0.959 . S
C606 H591 0.959 . S
C606 H592 0.961 . S
C606 C605 1.502 . S
C607 H593 0.960 . S
C607 H594 0.961 . S
C607 H595 0.959 . S
C607 C605 1.561 . S
C608 C605 1.526 . S
C608 C609 1.396 . S
C608 C613 1.390 . S
C609 C603 1.465 . S
C609 C608 1.396 . S
C609 C610 1.399 . S
C610 H596 0.929 . S
C610 C609 1.399 . S
C610 C611 1.385 . S
C611 H597 0.931 . S
C611 C610 1.385 . S
C611 C612 1.389 . S
C612 C611 1.389 . S
C612 C613 1.387 . S
C613 H598 0.930 . S
C613 C608 1.390 . S
C613 C612 1.387 . S
H614 C626 0.930 . S
H615 C628 0.930 . S
H616 C629 0.930 . S
H617 C633 0.959 . S
H618 C633 0.959 . S
H619 C633 0.961 . S
H620 C634 0.960 . S
H621 C634 0.961 . S
H622 C634 0.959 . S
H623 C637 0.929 . S
H624 C638 0.931 . S
H625 C640 0.930 . S
C626 H614 0.930 . S
C626 C627 1.399 . S
C626 C631 1.399 . S
C627 C626 1.399 . S
C627 C628 1.376 . S
C628 H615 0.930 . S
C628 C627 1.376 . S
C628 C629 1.388 . S
C629 H616 0.930 . S
C629 C628 1.388 . S
C629 C630 1.390 . S
C630 C629 1.390 . S
C630 C631 1.394 . S
C630 C636 1.465 . S
C631 C626 1.399 . S
C631 C630 1.394 . S
C631 C632 1.516 . S
C632 C631 1.516 . S
C632 C633 1.502 . S
C632 C634 1.561 . S
C632 C635 1.526 . S
C633 H617 0.959 . S
C633 H618 0.959 . S
C633 H619 0.961 . S
C633 C632 1.502 . S
C634 H620 0.960 . S
C634 H621 0.961 . S
C634 H622 0.959 . S
C634 C632 1.561 . S
C635 C632 1.526 . S
C635 C636 1.396 . S
C635 C640 1.390 . S
C636 C630 1.465 . S
C636 C635 1.396 . S
C636 C637 1.399 . S
C637 H623 0.929 . S
C637 C636 1.399 . S
C637 C638 1.385 . S
C638 H624 0.931 . S
C638 C637 1.385 . S
C638 C639 1.389 . S
C639 C638 1.389 . S
C639 C640 1.387 . S
C640 H625 0.930 . S
C640 C635 1.390 . S
C640 C639 1.387 . S
H641 C653 0.930 . S
H642 C655 0.930 . S
H643 C656 0.930 . S
H644 C660 0.959 . S
H645 C660 0.959 . S
H646 C660 0.961 . S
H647 C661 0.960 . S
H648 C661 0.961 . S
H649 C661 0.959 . S
H650 C664 0.929 . S
H651 C665 0.931 . S
H652 C667 0.930 . S
C653 H641 0.930 . S
C653 C654 1.399 . S
C653 C658 1.399 . S
C654 C653 1.399 . S
C654 C655 1.376 . S
C655 H642 0.930 . S
C655 C654 1.376 . S
C655 C656 1.388 . S
C656 H643 0.930 . S
C656 C655 1.388 . S
C656 C657 1.390 . S
C657 C656 1.390 . S
C657 C658 1.394 . S
C657 C663 1.465 . S
C658 C653 1.399 . S
C658 C657 1.394 . S
C658 C659 1.516 . S
C659 C658 1.516 . S
C659 C660 1.502 . S
C659 C661 1.561 . S
C659 C662 1.526 . S
C660 H644 0.959 . S
C660 H645 0.959 . S
C660 H646 0.961 . S
C660 C659 1.502 . S
C661 H647 0.960 . S
C661 H648 0.961 . S
C661 H649 0.959 . S
C661 C659 1.561 . S
C662 C659 1.526 . S
C662 C663 1.396 . S
C662 C667 1.390 . S
C663 C657 1.465 . S
C663 C662 1.396 . S
C663 C664 1.399 . S
C664 H650 0.929 . S
C664 C663 1.399 . S
C664 C665 1.385 . S
C665 H651 0.931 . S
C665 C664 1.385 . S
C665 C666 1.389 . S
C666 C665 1.389 . S
C666 C667 1.387 . S
C667 H652 0.930 . S
C667 C662 1.390 . S
C667 C666 1.387 . S
H668 C680 0.930 . S
H669 C682 0.930 . S
H670 C683 0.930 . S
H671 C687 0.959 . S
H672 C687 0.959 . S
H673 C687 0.961 . S
H674 C688 0.960 . S
H675 C688 0.961 . S
H676 C688 0.959 . S
H677 C691 0.929 . S
H678 C692 0.931 . S
H679 C694 0.930 . S
C680 H668 0.930 . S
C680 C681 1.399 . S
C680 C685 1.399 . S
C681 C680 1.399 . S
C681 C682 1.376 . S
C682 H669 0.930 . S
C682 C681 1.376 . S
C682 C683 1.388 . S
C683 H670 0.930 . S
C683 C682 1.388 . S
C683 C684 1.390 . S
C684 C683 1.390 . S
C684 C685 1.394 . S
C684 C690 1.465 . S
C685 C680 1.399 . S
C685 C684 1.394 . S
C685 C686 1.516 . S
C686 C685 1.516 . S
C686 C687 1.502 . S
C686 C688 1.561 . S
C686 C689 1.526 . S
C687 H671 0.959 . S
C687 H672 0.959 . S
C687 H673 0.961 . S
C687 C686 1.502 . S
C688 H674 0.960 . S
C688 H675 0.961 . S
C688 H676 0.959 . S
C688 C686 1.561 . S
C689 C686 1.526 . S
C689 C690 1.396 . S
C689 C694 1.390 . S
C690 C684 1.465 . S
C690 C689 1.396 . S
C690 C691 1.399 . S
C691 H677 0.929 . S
C691 C690 1.399 . S
C691 C692 1.385 . S
C692 H678 0.931 . S
C692 C691 1.385 . S
C692 C693 1.389 . S
C693 C692 1.389 . S
C693 C694 1.387 . S
C694 H679 0.930 . S
C694 C689 1.390 . S
C694 C693 1.387 . S
H695 C707 0.930 . S
H696 C709 0.930 . S
H697 C710 0.930 . S
H698 C714 0.959 . S
H699 C714 0.936 1_655 S
H700 C714 0.961 . S
H701 C715 0.960 . S
H702 C715 0.961 . S
H703 C715 0.959 . S
H704 C718 0.929 . S
H705 C719 0.931 . S
H706 C721 0.930 . S
C707 H695 0.930 . S
C707 C708 1.399 . S
C707 C712 1.399 . S
C708 C707 1.399 . S
C708 C709 1.376 . S
C709 H696 0.930 . S
C709 C708 1.376 . S
C709 C710 1.388 . S
C710 H697 0.930 . S
C710 C709 1.388 . S
C710 C711 1.390 . S
C711 C710 1.390 . S
C711 C712 1.394 . S
C711 C717 1.465 . S
C712 C707 1.399 . S
C712 C711 1.394 . S
C712 C713 1.516 . S
C713 C712 1.516 . S
C713 C714 1.502 . S
C713 C715 1.561 . S
C713 C716 1.526 . S
C714 H698 0.959 . S
C714 H699 0.936 1_455 S
C714 H700 0.961 . S
C714 C713 1.502 . S
C715 H701 0.960 . S
C715 H702 0.961 . S
C715 H703 0.959 . S
C715 C713 1.561 . S
C716 C713 1.526 . S
C716 C717 1.396 . S
C716 C721 1.390 . S
C717 C711 1.465 . S
C717 C716 1.396 . S
C717 C718 1.399 . S
C718 H704 0.929 . S
C718 C717 1.399 . S
C718 C719 1.385 . S
C719 H705 0.931 . S
C719 C718 1.385 . S
C719 C720 1.389 . S
C720 C719 1.389 . S
C720 C721 1.387 . S
C721 H706 0.930 . S
C721 C716 1.390 . S
C721 C720 1.387 . S
H722 C734 0.930 . S
H723 C736 0.930 . S
H724 C737 0.930 . S
H725 C741 0.959 . S
H726 C741 0.959 . S
H727 C741 0.961 . S
H728 C742 0.960 . S
H729 C742 0.961 . S
H730 C742 0.959 . S
H731 C745 0.929 . S
H732 C746 0.931 . S
H733 C748 0.930 . S
C734 H722 0.930 . S
C734 C735 1.399 . S
C734 C739 1.399 . S
C735 C734 1.399 . S
C735 C736 1.376 . S
C736 H723 0.930 . S
C736 C735 1.376 . S
C736 C737 1.388 . S
C737 H724 0.930 . S
C737 C736 1.388 . S
C737 C738 1.390 . S
C738 C737 1.390 . S
C738 C739 1.394 . S
C738 C744 1.465 . S
C739 C734 1.399 . S
C739 C738 1.394 . S
C739 C740 1.516 . S
C740 C739 1.516 . S
C740 C741 1.502 . S
C740 C742 1.561 . S
C740 C743 1.526 . S
C741 H725 0.959 . S
C741 H726 0.959 . S
C741 H727 0.961 . S
C741 C740 1.502 . S
C742 H728 0.960 . S
C742 H729 0.961 . S
C742 H730 0.959 . S
C742 C740 1.561 . S
C743 C740 1.526 . S
C743 C744 1.396 . S
C743 C748 1.390 . S
C744 C738 1.465 . S
C744 C743 1.396 . S
C744 C745 1.399 . S
C745 H731 0.929 . S
C745 C744 1.399 . S
C745 C746 1.385 . S
C746 H732 0.931 . S
C746 C745 1.385 . S
C746 C747 1.389 . S
C747 C746 1.389 . S
C747 C748 1.387 . S
C748 H733 0.930 . S
C748 C743 1.390 . S
C748 C747 1.387 . S
H749 C761 0.930 . S
H750 C763 0.930 . S
H751 C764 0.930 . S
H752 C768 0.959 1_455 S
H753 C768 0.959 1_455 S
H754 C768 0.961 . S
H755 C769 0.960 . S
H756 C769 0.961 . S
H757 C769 0.959 . S
H758 C772 0.929 . S
H759 C773 0.931 . S
H760 C775 0.930 . S
C761 H749 0.930 . S
C761 C762 1.399 . S
C761 C766 1.399 . S
C762 C761 1.399 . S
C762 C763 1.376 . S
C763 H750 0.930 . S
C763 C762 1.376 . S
C763 C764 1.388 . S
C764 H751 0.930 . S
C764 C763 1.388 . S
C764 C765 1.390 . S
C765 C764 1.390 . S
C765 C766 1.394 . S
C765 C771 1.465 . S
C766 C761 1.399 . S
C766 C765 1.394 . S
C766 C767 1.516 . S
C767 C766 1.516 . S
C767 C768 1.502 . S
C767 C769 1.561 . S
C767 C770 1.526 . S
C768 H752 0.959 1_655 S
C768 H753 0.959 1_655 S
C768 H754 0.961 . S
C768 C767 1.502 . S
C769 H755 0.960 . S
C769 H756 0.961 . S
C769 H757 0.959 . S
C769 C767 1.561 . S
C770 C767 1.526 . S
C770 C771 1.396 . S
C770 C775 1.390 . S
C771 C765 1.465 . S
C771 C770 1.396 . S
C771 C772 1.399 . S
C772 H758 0.929 . S
C772 C771 1.399 . S
C772 C773 1.385 . S
C773 H759 0.931 . S
C773 C772 1.385 . S
C773 C774 1.389 . S
C774 C773 1.389 . S
C774 C775 1.387 . S
C775 H760 0.930 . S
C775 C770 1.390 . S
C775 C774 1.387 . S
H776 C788 0.930 . S
H777 C790 0.930 . S
H778 C791 0.930 . S
H779 C795 0.959 . S
H780 C795 0.959 . S
H781 C795 0.961 . S
H782 C796 0.960 . S
H783 C796 0.961 . S
H784 C796 0.959 . S
H785 C799 0.929 . S
H786 C800 0.931 . S
H787 C802 0.930 . S
C788 H776 0.930 . S
C788 C789 1.399 . S
C788 C793 1.399 . S
C789 C788 1.399 . S
C789 C790 1.376 . S
C790 H777 0.930 . S
C790 C789 1.376 . S
C790 C791 1.388 . S
C791 H778 0.930 . S
C791 C790 1.388 . S
C791 C792 1.390 . S
C792 C791 1.390 . S
C792 C793 1.394 . S
C792 C798 1.465 . S
C793 C788 1.399 . S
C793 C792 1.394 . S
C793 C794 1.516 . S
C794 C793 1.516 . S
C794 C795 1.502 . S
C794 C796 1.561 . S
C794 C797 1.526 . S
C795 H779 0.959 . S
C795 H780 0.959 . S
C795 H781 0.961 . S
C795 C794 1.502 . S
C796 H782 0.960 . S
C796 H783 0.961 . S
C796 H784 0.959 . S
C796 C794 1.561 . S
C797 C794 1.526 . S
C797 C798 1.396 . S
C797 C802 1.390 . S
C798 C792 1.465 . S
C798 C797 1.396 . S
C798 C799 1.399 . S
C799 H785 0.929 . S
C799 C798 1.399 . S
C799 C800 1.385 1_565 S
C800 H786 0.931 . S
C800 C799 1.385 1_545 S
C800 C801 1.389 . S
C801 C800 1.389 . S
C801 C802 1.387 1_545 S
C802 H787 0.930 . S
C802 C797 1.390 . S
C802 C801 1.387 1_565 S
H803 C815 0.930 . S
H804 C817 0.930 . S
H805 C818 0.930 . S
H806 C822 0.959 . S
H807 C822 0.959 . S
H808 C822 0.961 . S
H809 C823 0.960 . S
H810 C823 0.961 . S
H811 C823 0.959 . S
H812 C826 0.929 . S
H813 C827 0.931 . S
H814 C829 0.930 . S
C815 H803 0.930 . S
C815 C816 1.399 . S
C815 C820 1.399 . S
C816 C815 1.399 . S
C816 C817 1.376 . S
C817 H804 0.930 . S
C817 C816 1.376 . S
C817 C818 1.388 . S
C818 H805 0.930 . S
C818 C817 1.388 . S
C818 C819 1.390 . S
C819 C818 1.390 . S
C819 C820 1.394 . S
C819 C825 1.465 . S
C820 C815 1.399 . S
C820 C819 1.394 . S
C820 C821 1.516 . S
C821 C820 1.516 . S
C821 C822 1.502 . S
C821 C823 1.561 . S
C821 C824 1.526 . S
C822 H806 0.959 . S
C822 H807 0.959 . S
C822 H808 0.961 . S
C822 C821 1.502 . S
C823 H809 0.960 . S
C823 H810 0.961 . S
C823 H811 0.959 . S
C823 C821 1.561 . S
C824 C821 1.526 . S
C824 C825 1.396 . S
C824 C829 1.390 . S
C825 C819 1.465 . S
C825 C824 1.396 . S
C825 C826 1.399 . S
C826 H812 0.929 . S
C826 C825 1.399 . S
C826 C827 1.385 . S
C827 H813 0.931 . S
C827 C826 1.385 . S
C827 C828 1.389 . S
C828 C827 1.389 . S
C828 C829 1.387 . S
C829 H814 0.930 . S
C829 C824 1.390 . S
C829 C828 1.387 . S
H830 C842 0.930 . S
H831 C844 0.930 . S
H832 C845 0.930 1_554 S
H833 C849 0.959 . S
H834 C849 0.959 . S
H835 C849 0.961 . S
H836 C850 0.960 . S
H837 C850 0.971 . S
H838 C850 0.959 1_554 S
H839 C853 0.929 1_545 S
H840 C854 0.931 . S
H841 C856 0.930 . S
C842 H830 0.930 . S
C842 C843 1.399 . S
C842 C847 1.408 . S
C843 C842 1.399 . S
C843 C844 1.376 . S
C844 H831 0.930 . S
C844 C843 1.376 . S
C844 C845 1.388 . S
C845 H832 0.930 1_556 S
C845 C844 1.388 . S
C845 C846 1.390 . S
C846 C845 1.390 . S
C846 C847 1.404 . S
C846 C852 1.465 1_546 S
C847 C842 1.408 . S
C847 C846 1.404 . S
C847 C848 1.497 1_545 S
C848 C847 1.497 1_565 S
C848 C849 1.502 . S
C848 C850 1.561 . S
C848 C851 1.526 . S
C849 H833 0.959 . S
C849 H834 0.959 . S
C849 H835 0.961 . S
C849 C848 1.502 . S
C850 H836 0.960 . S
C850 H837 0.971 . S
C850 H838 0.959 1_556 S
C850 C848 1.561 . S
C851 C848 1.526 . S
C851 C852 1.396 1_556 S
C851 C856 1.390 1_556 S
C852 C846 1.465 1_564 S
C852 C851 1.396 1_554 S
C852 C853 1.399 . S
C853 H839 0.929 1_565 S
C853 C852 1.399 . S
C853 C854 1.385 . S
C854 H840 0.931 . S
C854 C853 1.385 . S
C854 C855 1.389 . S
C855 C854 1.389 . S
C855 C856 1.387 . S
C856 H841 0.930 . S
C856 C851 1.390 1_554 S
C856 C855 1.387 . S
H857 C869 0.930 . S
H858 C871 0.930 . S
H859 C872 0.930 . S
H860 C876 0.959 . S
H861 C876 0.959 . S
H862 C876 0.961 . S
H863 C877 0.960 . S
H864 C877 0.961 . S
H865 C877 0.959 . S
H866 C880 0.929 . S
H867 C881 0.931 . S
H868 C883 0.930 . S
C869 H857 0.930 . S
C869 C870 1.399 . S
C869 C874 1.399 . S
C870 C869 1.399 . S
C870 C871 1.376 . S
C871 H858 0.930 . S
C871 C870 1.376 . S
C871 C872 1.388 . S
C872 H859 0.930 . S
C872 C871 1.388 . S
C872 C873 1.390 . S
C873 C872 1.390 . S
C873 C874 1.394 . S
C873 C879 1.465 . S
C874 C869 1.399 . S
C874 C873 1.394 . S
C874 C875 1.516 . S
C875 C874 1.516 . S
C875 C876 1.502 . S
C875 C877 1.561 . S
C875 C878 1.526 . S
C876 H860 0.959 . S
C876 H861 0.959 . S
C876 H862 0.961 . S
C876 C875 1.502 . S
C877 H863 0.960 . S
C877 H864 0.961 . S
C877 H865 0.959 . S
C877 C875 1.561 . S
C878 C875 1.526 . S
C878 C879 1.396 . S
C878 C883 1.390 . S
C879 C873 1.465 . S
C879 C878 1.396 . S
C879 C880 1.399 . S
C880 H866 0.929 . S
C880 C879 1.399 . S
C880 C881 1.385 . S
C881 H867 0.931 . S
C881 C880 1.385 . S
C881 C882 1.389 . S
C882 C881 1.389 . S
C882 C883 1.387 . S
C883 H868 0.930 . S
C883 C878 1.390 . S
C883 C882 1.387 . S
H884 C896 0.930 . S
H885 C898 0.930 . S
H886 C899 0.930 . S
H887 C903 0.959 . S
H888 C903 0.959 . S
H889 C903 0.961 . S
H890 C904 0.960 . S
H891 C904 0.961 . S
H892 C904 0.959 . S
H893 C907 0.929 . S
H894 C908 0.931 . S
H895 C910 0.930 . S
C896 H884 0.930 . S
C896 C897 1.399 . S
C896 C901 1.399 . S
C897 C896 1.399 . S
C897 C898 1.376 . S
C898 H885 0.930 . S
C898 C897 1.376 . S
C898 C899 1.388 . S
C899 H886 0.930 . S
C899 C898 1.388 . S
C899 C900 1.390 . S
C900 C899 1.390 . S
C900 C901 1.394 . S
C900 C906 1.465 . S
C901 C896 1.399 . S
C901 C900 1.394 . S
C901 C902 1.516 . S
C902 C901 1.516 . S
C902 C903 1.502 . S
C902 C904 1.561 . S
C902 C905 1.526 . S
C903 H887 0.959 . S
C903 H888 0.959 . S
C903 H889 0.961 . S
C903 C902 1.502 . S
C904 H890 0.960 . S
C904 H891 0.961 . S
C904 H892 0.959 . S
C904 C902 1.561 . S
C905 C902 1.526 . S
C905 C906 1.396 . S
C905 C910 1.390 . S
C906 C900 1.465 . S
C906 C905 1.396 . S
C906 C907 1.399 . S
C907 H893 0.929 . S
C907 C906 1.399 . S
C907 C908 1.385 . S
C908 H894 0.931 . S
C908 C907 1.385 . S
C908 C909 1.389 . S
C909 C908 1.389 . S
C909 C910 1.387 . S
C910 H895 0.930 . S
C910 C905 1.390 . S
C910 C909 1.387 . S
H911 C923 0.930 . S
H912 C925 0.930 . S
H913 C926 0.930 . S
H914 C930 0.959 . S
H915 C930 0.959 . S
H916 C930 0.961 . S
H917 C931 0.960 . S
H918 C931 0.961 . S
H919 C931 0.959 . S
H920 C934 0.929 . S
H921 C935 0.931 . S
H922 C937 0.930 . S
C923 H911 0.930 . S
C923 C924 1.399 . S
C923 C928 1.399 . S
C924 C923 1.399 . S
C924 C925 1.376 . S
C925 H912 0.930 . S
C925 C924 1.376 . S
C925 C926 1.388 . S
C926 H913 0.930 . S
C926 C925 1.388 . S
C926 C927 1.390 . S
C927 C926 1.390 . S
C927 C928 1.394 . S
C927 C933 1.465 . S
C928 C923 1.399 . S
C928 C927 1.394 . S
C928 C929 1.516 . S
C929 C928 1.516 . S
C929 C930 1.502 . S
C929 C931 1.561 . S
C929 C932 1.526 . S
C930 H914 0.959 . S
C930 H915 0.959 . S
C930 H916 0.961 . S
C930 C929 1.502 . S
C931 H917 0.960 . S
C931 H918 0.961 . S
C931 H919 0.959 . S
C931 C929 1.561 . S
C932 C929 1.526 . S
C932 C933 1.396 . S
C932 C937 1.390 . S
C933 C927 1.465 . S
C933 C932 1.396 . S
C933 C934 1.399 . S
C934 H920 0.929 . S
C934 C933 1.399 . S
C934 C935 1.385 . S
C935 H921 0.931 . S
C935 C934 1.385 . S
C935 C936 1.389 . S
C936 C935 1.389 . S
C936 C937 1.387 . S
C937 H922 0.930 . S
C937 C932 1.390 . S
C937 C936 1.387 . S
H938 C950 0.930 . S
H939 C952 0.930 1_565 S
H940 C953 0.930 . S
H941 C957 0.959 . S
H942 C957 0.959 . S
H943 C957 0.961 . S
H944 C958 0.960 . S
H945 C958 0.961 . S
H946 C958 0.959 . S
H947 C961 0.929 . S
H948 C962 0.931 . S
H949 C964 0.930 . S
C950 H938 0.930 . S
C950 C951 1.399 . S
C950 C955 1.399 . S
C951 C950 1.399 . S
C951 C952 1.376 . S
C952 H939 0.930 1_545 S
C952 C951 1.376 . S
C952 C953 1.388 . S
C953 H940 0.930 . S
C953 C952 1.388 . S
C953 C954 1.390 . S
C954 C953 1.390 . S
C954 C955 1.394 . S
C954 C960 1.465 . S
C955 C950 1.399 . S
C955 C954 1.394 . S
C955 C956 1.516 . S
C956 C955 1.516 . S
C956 C957 1.502 . S
C956 C958 1.561 . S
C956 C959 1.526 . S
C957 H941 0.959 . S
C957 H942 0.959 . S
C957 H943 0.961 . S
C957 C956 1.502 . S
C958 H944 0.960 . S
C958 H945 0.961 . S
C958 H946 0.959 . S
C958 C956 1.561 . S
C959 C956 1.526 . S
C959 C960 1.396 . S
C959 C964 1.390 . S
C960 C954 1.465 . S
C960 C959 1.396 . S
C960 C961 1.399 . S
C961 H947 0.929 . S
C961 C960 1.399 . S
C961 C962 1.385 . S
C962 H948 0.931 . S
C962 C961 1.385 . S
C962 C963 1.389 . S
C963 C962 1.389 . S
C963 C964 1.387 . S
C964 H949 0.930 . S
C964 C959 1.390 . S
C964 C963 1.387 . S
H965 C977 0.930 . S
H966 C979 0.930 . S
H967 C980 0.930 . S
H968 C984 0.959 . S
H969 C984 0.959 . S
H970 C984 0.961 . S
H971 C985 0.960 . S
H972 C985 0.961 . S
H973 C985 0.959 . S
H974 C988 0.929 . S
H975 C989 0.931 . S
H976 C991 0.930 . S
C977 H965 0.930 . S
C977 C978 1.399 . S
C977 C982 1.399 . S
C978 C977 1.399 . S
C978 C979 1.376 . S
C979 H966 0.930 . S
C979 C978 1.376 . S
C979 C980 1.388 . S
C980 H967 0.930 . S
C980 C979 1.388 . S
C980 C981 1.390 . S
C981 C980 1.390 . S
C981 C982 1.394 . S
C981 C987 1.465 . S
C982 C977 1.399 . S
C982 C981 1.394 . S
C982 C983 1.516 . S
C983 C982 1.516 . S
C983 C984 1.502 . S
C983 C985 1.561 . S
C983 C986 1.526 . S
C984 H968 0.959 . S
C984 H969 0.959 . S
C984 H970 0.961 . S
C984 C983 1.502 . S
C985 H971 0.960 . S
C985 H972 0.961 . S
C985 H973 0.959 . S
C985 C983 1.561 . S
C986 C983 1.526 . S
C986 C987 1.396 . S
C986 C991 1.390 . S
C987 C981 1.465 . S
C987 C986 1.396 . S
C987 C988 1.399 . S
C988 H974 0.929 . S
C988 C987 1.399 . S
C988 C989 1.385 . S
C989 H975 0.931 . S
C989 C988 1.385 . S
C989 C990 1.389 . S
C990 C989 1.389 . S
C990 C991 1.387 . S
C991 H976 0.930 . S
C991 C986 1.390 . S
C991 C990 1.387 . S
H992 C1004 0.930 . S
H993 C1006 0.930 . S
H994 C1007 0.930 . S
H995 C1011 0.959 . S
H996 C1011 0.959 . S
H997 C1011 0.961 . S
H998 C1012 0.960 . S
H999 C1012 0.961 . S
H1000 C1012 0.959 . S
H1001 C1015 0.929 . S
H1002 C1016 0.931 . S
H1003 C1018 0.930 . S
C1004 H992 0.930 . S
C1004 C1005 1.399 . S
C1004 C1009 1.399 . S
C1005 C1004 1.399 . S
C1005 C1006 1.376 . S
C1006 H993 0.930 . S
C1006 C1005 1.376 . S
C1006 C1007 1.388 . S
C1007 H994 0.930 . S
C1007 C1006 1.388 . S
C1007 C1008 1.390 . S
C1008 C1007 1.390 . S
C1008 C1009 1.394 . S
C1008 C1014 1.465 . S
C1009 C1004 1.399 . S
C1009 C1008 1.394 . S
C1009 C1010 1.516 . S
C1010 C1009 1.516 . S
C1010 C1011 1.502 . S
C1010 C1012 1.561 . S
C1010 C1013 1.526 . S
C1011 H995 0.959 . S
C1011 H996 0.959 . S
C1011 H997 0.961 . S
C1011 C1010 1.502 . S
C1012 H998 0.960 . S
C1012 H999 0.961 . S
C1012 H1000 0.959 . S
C1012 C1010 1.561 . S
C1013 C1010 1.526 . S
C1013 C1014 1.396 . S
C1013 C1018 1.390 . S
C1014 C1008 1.465 . S
C1014 C1013 1.396 . S
C1014 C1015 1.399 . S
C1015 H1001 0.929 . S
C1015 C1014 1.399 . S
C1015 C1016 1.385 . S
C1016 H1002 0.931 . S
C1016 C1015 1.385 . S
C1016 C1017 1.389 . S
C1017 C1016 1.389 . S
C1017 C1018 1.387 . S
C1018 H1003 0.930 . S
C1018 C1013 1.390 . S
C1018 C1017 1.387 . S
H1019 C1031 0.930 . S
H1020 C1033 0.930 . S
H1021 C1034 0.930 . S
H1022 C1038 0.959 . S
H1023 C1038 0.959 . S
H1024 C1038 0.961 . S
H1025 C1039 0.960 . S
H1026 C1039 0.961 . S
H1027 C1039 0.959 . S
H1028 C1042 0.929 . S
H1029 C1043 0.931 . S
H1030 C1045 0.930 . S
C1031 H1019 0.930 . S
C1031 C1032 1.399 . S
C1031 C1036 1.399 . S
C1032 C1031 1.399 . S
C1032 C1033 1.376 . S
C1033 H1020 0.930 . S
C1033 C1032 1.376 . S
C1033 C1034 1.388 . S
C1034 H1021 0.930 . S
C1034 C1033 1.388 . S
C1034 C1035 1.390 . S
C1035 C1034 1.390 . S
C1035 C1036 1.394 . S
C1035 C1041 1.465 . S
C1036 C1031 1.399 . S
C1036 C1035 1.394 . S
C1036 C1037 1.516 . S
C1037 C1036 1.516 . S
C1037 C1038 1.502 . S
C1037 C1039 1.561 . S
C1037 C1040 1.526 . S
C1038 H1022 0.959 . S
C1038 H1023 0.959 . S
C1038 H1024 0.961 . S
C1038 C1037 1.502 . S
C1039 H1025 0.960 . S
C1039 H1026 0.961 . S
C1039 H1027 0.959 . S
C1039 C1037 1.561 . S
C1040 C1037 1.526 . S
C1040 C1041 1.396 . S
C1040 C1045 1.390 . S
C1041 C1035 1.465 . S
C1041 C1040 1.396 . S
C1041 C1042 1.399 . S
C1042 H1028 0.929 . S
C1042 C1041 1.399 . S
C1042 C1043 1.385 . S
C1043 H1029 0.931 . S
C1043 C1042 1.385 . S
C1043 C1044 1.389 . S
C1044 C1043 1.389 . S
C1044 C1045 1.387 . S
C1045 H1030 0.930 . S
C1045 C1040 1.390 . S
C1045 C1044 1.387 . S
H1046 C1058 0.930 . S
H1047 C1060 0.930 . S
H1048 C1061 0.930 . S
H1049 C1065 0.959 . S
H1050 C1065 0.959 . S
H1051 C1065 0.961 . S
H1052 C1066 0.960 . S
H1053 C1066 0.961 . S
H1054 C1066 0.959 . S
H1055 C1069 0.929 . S
H1056 C1070 0.931 . S
H1057 C1072 0.930 . S
C1058 H1046 0.930 . S
C1058 C1059 1.399 . S
C1058 C1063 1.399 . S
C1059 C1058 1.399 . S
C1059 C1060 1.376 . S
C1060 H1047 0.930 . S
C1060 C1059 1.376 . S
C1060 C1061 1.388 . S
C1061 H1048 0.930 . S
C1061 C1060 1.388 . S
C1061 C1062 1.390 . S
C1062 C1061 1.390 . S
C1062 C1063 1.394 . S
C1062 C1068 1.465 . S
C1063 C1058 1.399 . S
C1063 C1062 1.394 . S
C1063 C1064 1.516 . S
C1064 C1063 1.516 . S
C1064 C1065 1.502 . S
C1064 C1066 1.561 . S
C1064 C1067 1.526 . S
C1065 H1049 0.959 . S
C1065 H1050 0.959 . S
C1065 H1051 0.961 . S
C1065 C1064 1.502 . S
C1066 H1052 0.960 . S
C1066 H1053 0.961 . S
C1066 H1054 0.959 . S
C1066 C1064 1.561 . S
C1067 C1064 1.526 . S
C1067 C1068 1.396 . S
C1067 C1072 1.390 . S
C1068 C1062 1.465 . S
C1068 C1067 1.396 . S
C1068 C1069 1.399 . S
C1069 H1055 0.929 . S
C1069 C1068 1.399 . S
C1069 C1070 1.385 . S
C1070 H1056 0.931 . S
C1070 C1069 1.385 . S
C1070 C1071 1.389 . S
C1071 C1070 1.389 . S
C1071 C1072 1.387 . S
C1072 H1057 0.930 . S
C1072 C1067 1.390 . S
C1072 C1071 1.387 . S
H1073 C1085 0.930 . S
H1074 C1087 0.930 . S
H1075 C1088 0.930 . S
H1076 C1092 0.959 . S
H1077 C1092 0.959 . S
H1078 C1092 0.961 . S
H1079 C1093 0.960 . S
H1080 C1093 0.961 . S
H1081 C1093 0.959 . S
H1082 C1096 0.929 . S
H1083 C1097 0.931 . S
H1084 C1099 0.930 . S
C1085 H1073 0.930 . S
C1085 C1086 1.399 . S
C1085 C1090 1.399 . S
C1086 C1085 1.399 . S
C1086 C1087 1.376 . S
C1087 H1074 0.930 . S
C1087 C1086 1.376 . S
C1087 C1088 1.388 . S
C1088 H1075 0.930 . S
C1088 C1087 1.388 . S
C1088 C1089 1.390 . S
C1089 C1088 1.390 . S
C1089 C1090 1.394 . S
C1089 C1095 1.465 . S
C1090 C1085 1.399 . S
C1090 C1089 1.394 . S
C1090 C1091 1.516 . S
C1091 C1090 1.516 . S
C1091 C1092 1.502 . S
C1091 C1093 1.561 . S
C1091 C1094 1.526 . S
C1092 H1076 0.959 . S
C1092 H1077 0.959 . S
C1092 H1078 0.961 . S
C1092 C1091 1.502 . S
C1093 H1079 0.960 . S
C1093 H1080 0.961 . S
C1093 H1081 0.959 . S
C1093 C1091 1.561 . S
C1094 C1091 1.526 . S
C1094 C1095 1.396 . S
C1094 C1099 1.390 . S
C1095 C1089 1.465 . S
C1095 C1094 1.396 . S
C1095 C1096 1.399 . S
C1096 H1082 0.929 . S
C1096 C1095 1.399 . S
C1096 C1097 1.385 . S
C1097 H1083 0.931 . S
C1097 C1096 1.385 . S
C1097 C1098 1.389 . S
C1098 C1097 1.389 . S
C1098 C1099 1.387 . S
C1099 H1084 0.930 . S
C1099 C1094 1.390 . S
C1099 C1098 1.387 . S
H1100 C1112 0.930 . S
H1101 C1114 0.930 . S
H1102 C1115 0.930 . S
H1103 C1119 0.959 . S
H1104 C1119 0.959 . S
H1105 C1119 0.961 . S
H1106 C1120 0.960 . S
H1107 C1120 0.961 . S
H1108 C1120 0.959 . S
H1109 C1123 0.929 . S
H1110 C1124 0.931 . S
H1111 C1126 0.930 . S
C1112 H1100 0.930 . S
C1112 C1113 1.399 . S
C1112 C1117 1.399 . S
C1113 C1112 1.399 . S
C1113 C1114 1.376 . S
C1114 H1101 0.930 . S
C1114 C1113 1.376 . S
C1114 C1115 1.388 . S
C1115 H1102 0.930 . S
C1115 C1114 1.388 . S
C1115 C1116 1.390 . S
C1116 C1115 1.390 . S
C1116 C1117 1.394 . S
C1116 C1122 1.465 . S
C1117 C1112 1.399 . S
C1117 C1116 1.394 . S
C1117 C1118 1.516 . S
C1118 C1117 1.516 . S
C1118 C1119 1.502 . S
C1118 C1120 1.561 . S
C1118 C1121 1.526 . S
C1119 H1103 0.959 . S
C1119 H1104 0.959 . S
C1119 H1105 0.961 . S
C1119 C1118 1.502 . S
C1120 H1106 0.960 . S
C1120 H1107 0.961 . S
C1120 H1108 0.959 . S
C1120 C1118 1.561 . S
C1121 C1118 1.526 . S
C1121 C1122 1.396 . S
C1121 C1126 1.390 . S
C1122 C1116 1.465 . S
C1122 C1121 1.396 . S
C1122 C1123 1.399 . S
C1123 H1109 0.929 . S
C1123 C1122 1.399 . S
C1123 C1124 1.385 . S
C1124 H1110 0.931 . S
C1124 C1123 1.385 . S
C1124 C1125 1.389 . S
C1125 C1124 1.389 . S
C1125 C1126 1.387 . S
C1126 H1111 0.930 . S
C1126 C1121 1.390 . S
C1126 C1125 1.387 . S
H1127 C1139 0.930 . S
H1128 C1141 0.930 . S
H1129 C1142 0.930 . S
H1130 C1146 0.959 . S
H1131 C1146 0.959 . S
H1132 C1146 0.961 . S
H1133 C1147 0.960 . S
H1134 C1147 0.961 . S
H1135 C1147 0.959 . S
H1136 C1150 0.929 . S
H1137 C1151 0.931 . S
H1138 C1153 0.930 . S
C1139 H1127 0.930 . S
C1139 C1140 1.399 . S
C1139 C1144 1.399 . S
C1140 C1139 1.399 . S
C1140 C1141 1.376 . S
C1141 H1128 0.930 . S
C1141 C1140 1.376 . S
C1141 C1142 1.388 . S
C1142 H1129 0.930 . S
C1142 C1141 1.388 . S
C1142 C1143 1.390 . S
C1143 C1142 1.390 . S
C1143 C1144 1.394 . S
C1143 C1149 1.465 1_455 S
C1144 C1139 1.399 . S
C1144 C1143 1.394 . S
C1144 C1145 1.515 . S
C1145 C1144 1.515 . S
C1145 C1146 1.503 1_455 S
C1145 C1147 1.559 . S
C1145 C1148 1.528 1_455 S
C1146 H1130 0.959 . S
C1146 H1131 0.959 . S
C1146 H1132 0.961 . S
C1146 C1145 1.503 1_655 S
C1147 H1133 0.960 . S
C1147 H1134 0.961 . S
C1147 H1135 0.959 . S
C1147 C1145 1.559 . S
C1148 C1145 1.528 1_655 S
C1148 C1149 1.396 . S
C1148 C1153 1.390 . S
C1149 C1143 1.465 1_655 S
C1149 C1148 1.396 . S
C1149 C1150 1.399 . S
C1150 H1136 0.929 . S
C1150 C1149 1.399 . S
C1150 C1151 1.385 . S
C1151 H1137 0.931 . S
C1151 C1150 1.385 . S
C1151 C1152 1.389 . S
C1152 C1151 1.389 . S
C1152 C1153 1.387 . S
C1153 H1138 0.930 . S
C1153 C1148 1.390 . S
C1153 C1152 1.387 . S
H1154 C1166 0.930 . S
H1155 C1168 0.930 . S
H1156 C1169 0.930 . S
H1157 C1173 0.959 . S
H1158 C1173 0.959 . S
H1159 C1173 0.961 . S
H1160 C1174 0.960 . S
H1161 C1174 0.961 . S
H1162 C1174 0.959 . S
H1163 C1177 0.929 . S
H1164 C1178 0.931 . S
H1165 C1180 0.930 . S
C1166 H1154 0.930 . S
C1166 C1167 1.399 . S
C1166 C1171 1.399 . S
C1167 C1166 1.399 . S
C1167 C1168 1.376 . S
C1168 H1155 0.930 . S
C1168 C1167 1.376 . S
C1168 C1169 1.388 . S
C1169 H1156 0.930 . S
C1169 C1168 1.388 . S
C1169 C1170 1.390 . S
C1170 C1169 1.390 . S
C1170 C1171 1.394 . S
C1170 C1176 1.465 . S
C1171 C1166 1.399 . S
C1171 C1170 1.394 . S
C1171 C1172 1.516 . S
C1172 C1171 1.516 . S
C1172 C1173 1.502 . S
C1172 C1174 1.561 . S
C1172 C1175 1.526 . S
C1173 H1157 0.959 . S
C1173 H1158 0.959 . S
C1173 H1159 0.961 . S
C1173 C1172 1.502 . S
C1174 H1160 0.960 . S
C1174 H1161 0.961 . S
C1174 H1162 0.959 . S
C1174 C1172 1.561 . S
C1175 C1172 1.526 . S
C1175 C1176 1.396 . S
C1175 C1180 1.390 . S
C1176 C1170 1.465 . S
C1176 C1175 1.396 . S
C1176 C1177 1.399 . S
C1177 H1163 0.929 . S
C1177 C1176 1.399 . S
C1177 C1178 1.385 . S
C1178 H1164 0.931 . S
C1178 C1177 1.385 . S
C1178 C1179 1.389 . S
C1179 C1178 1.389 . S
C1179 C1180 1.387 . S
C1180 H1165 0.930 . S
C1180 C1175 1.390 . S
C1180 C1179 1.387 . S
H1181 C1193 0.930 . S
H1182 C1195 0.930 . S
H1183 C1196 0.930 . S
H1184 C1200 0.959 . S
H1185 C1200 0.959 . S
H1186 C1200 0.961 . S
H1187 C1201 0.960 . S
H1188 C1201 0.961 . S
H1189 C1201 0.959 . S
H1190 C1204 0.929 . S
H1191 C1205 0.931 . S
H1192 C1207 0.930 . S
C1193 H1181 0.930 . S
C1193 C1194 1.399 . S
C1193 C1198 1.399 . S
C1194 C1193 1.399 . S
C1194 C1195 1.376 . S
C1195 H1182 0.930 . S
C1195 C1194 1.376 . S
C1195 C1196 1.388 . S
C1196 H1183 0.930 . S
C1196 C1195 1.388 . S
C1196 C1197 1.390 . S
C1197 C1196 1.390 . S
C1197 C1198 1.394 . S
C1197 C1203 1.465 1_655 S
C1198 C1193 1.399 . S
C1198 C1197 1.394 . S
C1198 C1199 1.516 . S
C1199 C1198 1.516 . S
C1199 C1200 1.502 . S
C1199 C1201 1.561 . S
C1199 C1202 1.526 . S
C1200 H1184 0.959 . S
C1200 H1185 0.959 . S
C1200 H1186 0.961 . S
C1200 C1199 1.502 . S
C1201 H1187 0.960 . S
C1201 H1188 0.961 . S
C1201 H1189 0.959 . S
C1201 C1199 1.561 . S
C1202 C1199 1.526 . S
C1202 C1203 1.396 1_655 S
C1202 C1207 1.390 1_655 S
C1203 C1197 1.465 1_455 S
C1203 C1202 1.396 1_455 S
C1203 C1204 1.399 . S
C1204 H1190 0.929 . S
C1204 C1203 1.399 . S
C1204 C1205 1.385 . S
C1205 H1191 0.931 . S
C1205 C1204 1.385 . S
C1205 C1206 1.389 . S
C1206 C1205 1.389 . S
C1206 C1207 1.387 . S
C1207 H1192 0.930 . S
C1207 C1202 1.390 1_455 S
C1207 C1206 1.387 . S
H1208 C1220 0.930 . S
H1209 C1222 0.930 . S
H1210 C1223 0.930 . S
H1211 C1227 0.959 . S
H1212 C1227 0.959 . S
H1213 C1227 0.961 . S
H1214 C1228 0.960 . S
H1215 C1228 0.961 . S
H1216 C1228 0.959 . S
H1217 C1231 0.929 . S
H1218 C1232 0.931 . S
H1219 C1234 0.930 . S
C1220 H1208 0.930 . S
C1220 C1221 1.399 . S
C1220 C1225 1.399 . S
C1221 C1220 1.399 . S
C1221 C1222 1.376 . S
C1222 H1209 0.930 . S
C1222 C1221 1.376 . S
C1222 C1223 1.388 . S
C1223 H1210 0.930 . S
C1223 C1222 1.388 . S
C1223 C1224 1.390 . S
C1224 C1223 1.390 . S
C1224 C1225 1.394 . S
C1224 C1230 1.465 . S
C1225 C1220 1.399 . S
C1225 C1224 1.394 . S
C1225 C1226 1.516 . S
C1226 C1225 1.516 . S
C1226 C1227 1.502 . S
C1226 C1228 1.561 . S
C1226 C1229 1.526 . S
C1227 H1211 0.959 . S
C1227 H1212 0.959 . S
C1227 H1213 0.961 . S
C1227 C1226 1.502 . S
C1228 H1214 0.960 . S
C1228 H1215 0.961 . S
C1228 H1216 0.959 . S
C1228 C1226 1.561 . S
C1229 C1226 1.526 . S
C1229 C1230 1.396 . S
C1229 C1234 1.390 . S
C1230 C1224 1.465 . S
C1230 C1229 1.396 . S
C1230 C1231 1.399 . S
C1231 H1217 0.929 . S
C1231 C1230 1.399 . S
C1231 C1232 1.385 . S
C1232 H1218 0.931 . S
C1232 C1231 1.385 . S
C1232 C1233 1.389 . S
C1233 C1232 1.389 . S
C1233 C1234 1.387 . S
C1234 H1219 0.930 . S
C1234 C1229 1.390 . S
C1234 C1233 1.387 . S
H1235 C1247 0.930 . S
H1236 C1249 0.930 . S
H1237 C1250 0.930 . S
H1238 C1254 0.959 . S
H1239 C1254 0.959 1_556 S
H1240 C1254 0.961 . S
H1241 C1255 0.959 1_554 S
H1242 C1255 0.967 . S
H1243 C1255 0.958 1_554 S
H1244 C1258 0.929 . S
H1245 C1259 0.931 1_455 S
H1246 C1261 0.930 . S
C1247 H1235 0.930 . S
C1247 C1248 1.399 . S
C1247 C1252 1.399 . S
C1248 C1247 1.399 . S
C1248 C1249 1.376 . S
C1249 H1236 0.930 . S
C1249 C1248 1.376 . S
C1249 C1250 1.388 . S
C1250 H1237 0.930 . S
C1250 C1249 1.388 . S
C1250 C1251 1.390 . S
C1251 C1250 1.390 . S
C1251 C1252 1.394 . S
C1251 C1257 1.465 . S
C1252 C1247 1.399 . S
C1252 C1251 1.394 . S
C1252 C1253 1.516 . S
C1253 C1252 1.516 . S
C1253 C1254 1.502 . S
C1253 C1255 1.557 1_554 S
C1253 C1256 1.526 . S
C1254 H1238 0.959 . S
C1254 H1239 0.959 1_554 S
C1254 H1240 0.961 . S
C1254 C1253 1.502 . S
C1255 H1241 0.959 1_556 S
C1255 H1242 0.967 . S
C1255 H1243 0.958 1_556 S
C1255 C1253 1.557 1_556 S
C1256 C1253 1.526 . S
C1256 C1257 1.396 . S
C1256 C1261 1.390 1_554 S
C1257 C1251 1.465 . S
C1257 C1256 1.396 . S
C1257 C1258 1.399 . S
C1258 H1244 0.929 . S
C1258 C1257 1.399 . S
C1258 C1259 1.385 . S
C1259 H1245 0.931 1_655 S
C1259 C1258 1.385 . S
C1259 C1260 1.376 1_554 S
C1260 C1259 1.376 1_556 S
C1260 C1261 1.388 . S
C1261 H1246 0.930 . S
C1261 C1256 1.390 1_556 S
C1261 C1260 1.388 . S
H1262 C1274 0.930 . S
H1263 C1276 0.930 . S
H1264 C1277 0.930 . S
H1265 C1281 0.959 . S
H1266 C1281 0.959 . S
H1267 C1281 0.961 . S
H1268 C1282 0.960 . S
H1269 C1282 0.961 . S
H1270 C1282 0.959 . S
H1271 C1285 0.929 . S
H1272 C1286 0.931 . S
H1273 C1288 0.930 . S
C1274 H1262 0.930 . S
C1274 C1275 1.399 . S
C1274 C1279 1.399 . S
C1275 C1274 1.399 . S
C1275 C1276 1.376 . S
C1276 H1263 0.930 . S
C1276 C1275 1.376 . S
C1276 C1277 1.388 . S
C1277 H1264 0.930 . S
C1277 C1276 1.388 . S
C1277 C1278 1.390 . S
C1278 C1277 1.390 . S
C1278 C1279 1.394 . S
C1278 C1284 1.465 . S
C1279 C1274 1.399 . S
C1279 C1278 1.394 . S
C1279 C1280 1.516 . S
C1280 C1279 1.516 . S
C1280 C1281 1.502 . S
C1280 C1282 1.561 . S
C1280 C1283 1.526 . S
C1281 H1265 0.959 . S
C1281 H1266 0.959 . S
C1281 H1267 0.961 . S
C1281 C1280 1.502 . S
C1282 H1268 0.960 . S
C1282 H1269 0.961 . S
C1282 H1270 0.959 . S
C1282 C1280 1.561 . S
C1283 C1280 1.526 . S
C1283 C1284 1.396 . S
C1283 C1288 1.390 . S
C1284 C1278 1.465 . S
C1284 C1283 1.396 . S
C1284 C1285 1.399 . S
C1285 H1271 0.929 . S
C1285 C1284 1.399 . S
C1285 C1286 1.385 . S
C1286 H1272 0.931 . S
C1286 C1285 1.385 . S
C1286 C1287 1.389 . S
C1287 C1286 1.389 . S
C1287 C1288 1.387 . S
C1288 H1273 0.930 . S
C1288 C1283 1.390 . S
C1288 C1287 1.387 . S
H1289 C1301 0.930 . S
H1290 C1303 0.930 . S
H1291 C1304 0.930 . S
H1292 C1308 0.959 . S
H1293 C1308 0.959 . S
H1294 C1308 0.961 . S
H1295 C1309 0.960 . S
H1296 C1309 0.961 . S
H1297 C1309 0.959 . S
H1298 C1312 0.929 . S
H1299 C1313 0.931 . S
H1300 C1315 0.930 . S
C1301 H1289 0.930 . S
C1301 C1302 1.399 . S
C1301 C1306 1.399 . S
C1302 C1301 1.399 . S
C1302 C1303 1.376 . S
C1303 H1290 0.930 . S
C1303 C1302 1.376 . S
C1303 C1304 1.388 . S
C1304 H1291 0.930 . S
C1304 C1303 1.388 . S
C1304 C1305 1.390 . S
C1305 C1304 1.390 . S
C1305 C1306 1.394 . S
C1305 C1311 1.465 . S
C1306 C1301 1.399 . S
C1306 C1305 1.394 . S
C1306 C1307 1.516 . S
C1307 C1306 1.516 . S
C1307 C1308 1.502 . S
C1307 C1309 1.561 . S
C1307 C1310 1.526 . S
C1308 H1292 0.959 . S
C1308 H1293 0.959 . S
C1308 H1294 0.961 . S
C1308 C1307 1.502 . S
C1309 H1295 0.960 . S
C1309 H1296 0.961 . S
C1309 H1297 0.959 . S
C1309 C1307 1.561 . S
C1310 C1307 1.526 . S
C1310 C1311 1.396 . S
C1310 C1315 1.390 . S
C1311 C1305 1.465 . S
C1311 C1310 1.396 . S
C1311 C1312 1.399 . S
C1312 H1298 0.929 . S
C1312 C1311 1.399 . S
C1312 C1313 1.385 . S
C1313 H1299 0.931 . S
C1313 C1312 1.385 . S
C1313 C1314 1.389 . S
C1314 C1313 1.389 . S
C1314 C1315 1.387 . S
C1315 H1300 0.930 . S
C1315 C1310 1.390 . S
C1315 C1314 1.387 . S
H1316 C1328 0.930 . S
H1317 C1330 0.930 . S
H1318 C1331 0.930 . S
H1319 C1335 0.959 . S
H1320 C1335 0.959 . S
H1321 C1335 0.961 . S
H1322 C1336 0.960 . S
H1323 C1336 0.961 . S
H1324 C1336 0.959 . S
H1325 C1339 0.929 . S
H1326 C1340 0.931 . S
H1327 C1342 0.930 . S
C1328 H1316 0.930 . S
C1328 C1329 1.399 . S
C1328 C1333 1.399 . S
C1329 C1328 1.399 . S
C1329 C1330 1.376 . S
C1330 H1317 0.930 . S
C1330 C1329 1.376 . S
C1330 C1331 1.388 . S
C1331 H1318 0.930 . S
C1331 C1330 1.388 . S
C1331 C1332 1.390 . S
C1332 C1331 1.390 . S
C1332 C1333 1.394 . S
C1332 C1338 1.465 . S
C1333 C1328 1.399 . S
C1333 C1332 1.394 . S
C1333 C1334 1.516 . S
C1334 C1333 1.516 . S
C1334 C1335 1.502 . S
C1334 C1336 1.561 . S
C1334 C1337 1.526 . S
C1335 H1319 0.959 . S
C1335 H1320 0.959 . S
C1335 H1321 0.961 . S
C1335 C1334 1.502 . S
C1336 H1322 0.960 . S
C1336 H1323 0.961 . S
C1336 H1324 0.959 . S
C1336 C1334 1.561 . S
C1337 C1334 1.526 . S
C1337 C1338 1.396 . S
C1337 C1342 1.390 . S
C1338 C1332 1.465 . S
C1338 C1337 1.396 . S
C1338 C1339 1.399 . S
C1339 H1325 0.929 . S
C1339 C1338 1.399 . S
C1339 C1340 1.385 . S
C1340 H1326 0.931 . S
C1340 C1339 1.385 . S
C1340 C1341 1.389 . S
C1341 C1340 1.389 . S
C1341 C1342 1.387 . S
C1342 H1327 0.930 . S
C1342 C1337 1.390 . S
C1342 C1341 1.387 . S
H1343 C1355 0.930 . S
H1344 C1357 0.930 . S
H1345 C1358 0.930 . S
H1346 C1362 0.959 . S
H1347 C1362 0.959 . S
H1348 C1362 0.961 . S
H1349 C1363 0.960 . S
H1350 C1363 0.961 . S
H1351 C1363 0.959 . S
H1352 C1366 0.929 . S
H1353 C1367 0.931 . S
H1354 C1369 0.930 . S
C1355 H1343 0.930 . S
C1355 C1356 1.399 1_554 S
C1355 C1360 1.399 . S
C1356 C1355 1.399 1_556 S
C1356 C1357 1.376 . S
C1357 H1344 0.930 . S
C1357 C1356 1.376 . S
C1357 C1358 1.388 . S
C1358 H1345 0.930 . S
C1358 C1357 1.388 . S
C1358 C1359 1.390 1_556 S
C1359 C1358 1.390 1_554 S
C1359 C1360 1.394 . S
C1359 C1365 1.465 . S
C1360 C1355 1.399 . S
C1360 C1359 1.394 . S
C1360 C1361 1.516 . S
C1361 C1360 1.516 . S
C1361 C1362 1.502 . S
C1361 C1363 1.561 . S
C1361 C1364 1.526 . S
C1362 H1346 0.959 . S
C1362 H1347 0.959 . S
C1362 H1348 0.961 . S
C1362 C1361 1.502 . S
C1363 H1349 0.960 . S
C1363 H1350 0.961 . S
C1363 H1351 0.959 . S
C1363 C1361 1.561 . S
C1364 C1361 1.526 . S
C1364 C1365 1.396 . S
C1364 C1369 1.390 . S
C1365 C1359 1.465 . S
C1365 C1364 1.396 . S
C1365 C1366 1.399 . S
C1366 H1352 0.929 . S
C1366 C1365 1.399 . S
C1366 C1367 1.385 . S
C1367 H1353 0.931 . S
C1367 C1366 1.385 . S
C1367 C1368 1.389 . S
C1368 C1367 1.389 . S
C1368 C1369 1.387 . S
C1369 H1354 0.930 . S
C1369 C1364 1.390 . S
C1369 C1368 1.387 . S
H1370 C1382 0.930 . S
H1371 C1384 0.930 . S
H1372 C1385 0.930 . S
H1373 C1389 0.959 . S
H1374 C1389 0.959 . S
H1375 C1389 0.961 . S
H1376 C1390 0.960 . S
H1377 C1390 0.961 . S
H1378 C1390 0.959 . S
H1379 C1393 0.929 . S
H1380 C1394 0.931 . S
H1381 C1396 0.930 . S
C1382 H1370 0.930 . S
C1382 C1383 1.399 . S
C1382 C1387 1.399 . S
C1383 C1382 1.399 . S
C1383 C1384 1.376 . S
C1384 H1371 0.930 . S
C1384 C1383 1.376 . S
C1384 C1385 1.388 . S
C1385 H1372 0.930 . S
C1385 C1384 1.388 . S
C1385 C1386 1.390 . S
C1386 C1385 1.390 . S
C1386 C1387 1.394 . S
C1386 C1392 1.465 . S
C1387 C1382 1.399 . S
C1387 C1386 1.394 . S
C1387 C1388 1.516 . S
C1388 C1387 1.516 . S
C1388 C1389 1.502 . S
C1388 C1390 1.561 . S
C1388 C1391 1.526 . S
C1389 H1373 0.959 . S
C1389 H1374 0.959 . S
C1389 H1375 0.961 . S
C1389 C1388 1.502 . S
C1390 H1376 0.960 . S
C1390 H1377 0.961 . S
C1390 H1378 0.959 . S
C1390 C1388 1.561 . S
C1391 C1388 1.526 . S
C1391 C1392 1.396 . S
C1391 C1396 1.390 . S
C1392 C1386 1.465 . S
C1392 C1391 1.396 . S
C1392 C1393 1.399 . S
C1393 H1379 0.929 . S
C1393 C1392 1.399 . S
C1393 C1394 1.385 . S
C1394 H1380 0.931 . S
C1394 C1393 1.385 . S
C1394 C1395 1.389 . S
C1395 C1394 1.389 . S
C1395 C1396 1.387 . S
C1396 H1381 0.930 . S
C1396 C1391 1.390 . S
C1396 C1395 1.387 . S
H1397 C1409 0.930 . S
H1398 C1411 0.930 . S
H1399 C1412 0.941 . S
H1400 C1416 0.959 . S
H1401 C1416 0.959 . S
H1402 C1416 0.961 . S
H1403 C1417 0.960 . S
H1404 C1417 0.961 . S
H1405 C1417 0.959 . S
H1406 C1420 0.929 . S
H1407 C1421 0.931 . S
H1408 C1423 0.930 . S
C1409 H1397 0.930 . S
C1409 C1410 1.399 1_554 S
C1409 C1414 1.399 . S
C1410 C1409 1.399 1_556 S
C1410 C1411 1.376 . S
C1411 H1398 0.930 . S
C1411 C1410 1.376 . S
C1411 C1412 1.388 1_556 S
C1412 H1399 0.941 . S
C1412 C1411 1.388 1_554 S
C1412 C1413 1.390 . S
C1413 C1412 1.390 . S
C1413 C1414 1.394 . S
C1413 C1419 1.465 . S
C1414 C1409 1.399 . S
C1414 C1413 1.394 . S
C1414 C1415 1.516 . S
C1415 C1414 1.516 . S
C1415 C1416 1.502 . S
C1415 C1417 1.561 . S
C1415 C1418 1.526 . S
C1416 H1400 0.959 . S
C1416 H1401 0.959 . S
C1416 H1402 0.961 . S
C1416 C1415 1.502 . S
C1417 H1403 0.960 . S
C1417 H1404 0.961 . S
C1417 H1405 0.959 . S
C1417 C1415 1.561 . S
C1418 C1415 1.526 . S
C1418 C1419 1.396 . S
C1418 C1423 1.390 . S
C1419 C1413 1.465 . S
C1419 C1418 1.396 . S
C1419 C1420 1.399 . S
C1420 H1406 0.929 . S
C1420 C1419 1.399 . S
C1420 C1421 1.385 . S
C1421 H1407 0.931 . S
C1421 C1420 1.385 . S
C1421 C1422 1.389 . S
C1422 C1421 1.389 . S
C1422 C1423 1.387 . S
C1423 H1408 0.930 . S
C1423 C1418 1.390 . S
C1423 C1422 1.387 . S
H1424 C1436 0.930 . S
H1425 C1438 0.930 . S
H1426 C1439 0.930 . S
H1427 C1443 0.959 . S
H1428 C1443 0.959 . S
H1429 C1443 0.961 . S
H1430 C1444 0.960 . S
H1431 C1444 0.961 . S
H1432 C1444 0.959 . S
H1433 C1447 0.929 . S
H1434 C1448 0.931 . S
H1435 C1450 0.930 . S
C1436 H1424 0.930 . S
C1436 C1437 1.399 . S
C1436 C1441 1.399 . S
C1437 C1436 1.399 . S
C1437 C1438 1.376 . S
C1438 H1425 0.930 . S
C1438 C1437 1.376 . S
C1438 C1439 1.388 . S
C1439 H1426 0.930 . S
C1439 C1438 1.388 . S
C1439 C1440 1.390 . S
C1440 C1439 1.390 . S
C1440 C1441 1.394 . S
C1440 C1446 1.465 . S
C1441 C1436 1.399 . S
C1441 C1440 1.394 . S
C1441 C1442 1.516 . S
C1442 C1441 1.516 . S
C1442 C1443 1.502 . S
C1442 C1444 1.561 . S
C1442 C1445 1.526 . S
C1443 H1427 0.959 . S
C1443 H1428 0.959 . S
C1443 H1429 0.961 . S
C1443 C1442 1.502 . S
C1444 H1430 0.960 . S
C1444 H1431 0.961 . S
C1444 H1432 0.959 . S
C1444 C1442 1.561 . S
C1445 C1442 1.526 . S
C1445 C1446 1.396 . S
C1445 C1450 1.390 . S
C1446 C1440 1.465 . S
C1446 C1445 1.396 . S
C1446 C1447 1.399 . S
C1447 H1433 0.929 . S
C1447 C1446 1.399 . S
C1447 C1448 1.385 . S
C1448 H1434 0.931 . S
C1448 C1447 1.385 . S
C1448 C1449 1.389 . S
C1449 C1448 1.389 . S
C1449 C1450 1.387 . S
C1450 H1435 0.930 . S
C1450 C1445 1.390 . S
C1450 C1449 1.387 . S
H1451 C1463 0.930 . S
H1452 C1465 0.930 . S
H1453 C1466 0.930 . S
H1454 C1470 0.959 . S
H1455 C1470 0.959 . S
H1456 C1470 0.961 . S
H1457 C1471 0.960 . S
H1458 C1471 0.961 . S
H1459 C1471 0.959 . S
H1460 C1474 0.929 . S
H1461 C1475 0.931 . S
H1462 C1477 0.930 . S
C1463 H1451 0.930 . S
C1463 C1464 1.399 . S
C1463 C1468 1.399 . S
C1464 C1463 1.399 . S
C1464 C1465 1.376 . S
C1465 H1452 0.930 . S
C1465 C1464 1.376 . S
C1465 C1466 1.388 . S
C1466 H1453 0.930 . S
C1466 C1465 1.388 . S
C1466 C1467 1.390 . S
C1467 C1466 1.390 . S
C1467 C1468 1.394 . S
C1467 C1473 1.465 . S
C1468 C1463 1.399 . S
C1468 C1467 1.394 . S
C1468 C1469 1.516 . S
C1469 C1468 1.516 . S
C1469 C1470 1.502 . S
C1469 C1471 1.561 . S
C1469 C1472 1.526 . S
C1470 H1454 0.959 . S
C1470 H1455 0.959 . S
C1470 H1456 0.961 . S
C1470 C1469 1.502 . S
C1471 H1457 0.960 . S
C1471 H1458 0.961 . S
C1471 H1459 0.959 . S
C1471 C1469 1.561 . S
C1472 C1469 1.526 . S
C1472 C1473 1.396 . S
C1472 C1477 1.390 . S
C1473 C1467 1.465 . S
C1473 C1472 1.396 . S
C1473 C1474 1.399 . S
C1474 H1460 0.929 . S
C1474 C1473 1.399 . S
C1474 C1475 1.385 . S
C1475 H1461 0.931 . S
C1475 C1474 1.385 . S
C1475 C1476 1.389 . S
C1476 C1475 1.389 . S
C1476 C1477 1.387 . S
C1477 H1462 0.930 . S
C1477 C1472 1.390 . S
C1477 C1476 1.387 . S
H1478 C1490 0.930 . S
H1479 C1492 0.930 . S
H1480 C1493 0.930 . S
H1481 C1497 0.959 . S
H1482 C1497 0.959 . S
H1483 C1497 0.961 . S
H1484 C1498 0.960 . S
H1485 C1498 0.961 . S
H1486 C1498 0.959 . S
H1487 C1501 0.929 . S
H1488 C1502 0.931 . S
H1489 C1504 0.930 . S
C1490 H1478 0.930 . S
C1490 C1491 1.399 . S
C1490 C1495 1.399 . S
C1491 C1490 1.399 . S
C1491 C1492 1.376 . S
C1492 H1479 0.930 . S
C1492 C1491 1.376 . S
C1492 C1493 1.388 . S
C1493 H1480 0.930 . S
C1493 C1492 1.388 . S
C1493 C1494 1.390 . S
C1494 C1493 1.390 . S
C1494 C1495 1.394 . S
C1494 C1500 1.465 . S
C1495 C1490 1.399 . S
C1495 C1494 1.394 . S
C1495 C1496 1.516 . S
C1496 C1495 1.516 . S
C1496 C1497 1.502 . S
C1496 C1498 1.561 . S
C1496 C1499 1.526 . S
C1497 H1481 0.959 . S
C1497 H1482 0.959 . S
C1497 H1483 0.961 . S
C1497 C1496 1.502 . S
C1498 H1484 0.960 . S
C1498 H1485 0.961 . S
C1498 H1486 0.959 . S
C1498 C1496 1.561 . S
C1499 C1496 1.526 . S
C1499 C1500 1.396 . S
C1499 C1504 1.390 . S
C1500 C1494 1.465 . S
C1500 C1499 1.396 . S
C1500 C1501 1.399 . S
C1501 H1487 0.929 . S
C1501 C1500 1.399 . S
C1501 C1502 1.385 . S
C1502 H1488 0.931 . S
C1502 C1501 1.385 . S
C1502 C1503 1.389 . S
C1503 C1502 1.389 . S
C1503 C1504 1.387 . S
C1504 H1489 0.930 . S
C1504 C1499 1.390 . S
C1504 C1503 1.387 . S
H1505 C1517 0.930 . S
H1506 C1519 0.930 . S
H1507 C1520 0.930 . S
H1508 C1524 0.959 . S
H1509 C1524 0.959 . S
H1510 C1524 0.961 . S
H1511 C1525 0.960 . S
H1512 C1525 0.961 . S
H1513 C1525 0.959 . S
H1514 C1528 0.929 . S
H1515 C1529 0.931 . S
H1516 C1531 0.930 . S
C1517 H1505 0.930 . S
C1517 C1518 1.399 . S
C1517 C1522 1.399 . S
C1518 C1517 1.399 . S
C1518 C1519 1.376 . S
C1519 H1506 0.930 . S
C1519 C1518 1.376 . S
C1519 C1520 1.388 . S
C1520 H1507 0.930 . S
C1520 C1519 1.388 . S
C1520 C1521 1.390 . S
C1521 C1520 1.390 . S
C1521 C1522 1.394 . S
C1521 C1527 1.465 . S
C1522 C1517 1.399 . S
C1522 C1521 1.394 . S
C1522 C1523 1.516 . S
C1523 C1522 1.516 . S
C1523 C1524 1.502 . S
C1523 C1525 1.561 . S
C1523 C1526 1.526 . S
C1524 H1508 0.959 . S
C1524 H1509 0.959 . S
C1524 H1510 0.961 . S
C1524 C1523 1.502 . S
C1525 H1511 0.960 . S
C1525 H1512 0.961 . S
C1525 H1513 0.959 . S
C1525 C1523 1.561 . S
C1526 C1523 1.526 . S
C1526 C1527 1.396 . S
C1526 C1531 1.390 . S
C1527 C1521 1.465 . S
C1527 C1526 1.396 . S
C1527 C1528 1.399 . S
C1528 H1514 0.929 . S
C1528 C1527 1.399 . S
C1528 C1529 1.385 . S
C1529 H1515 0.931 . S
C1529 C1528 1.385 . S
C1529 C1530 1.389 . S
C1530 C1529 1.389 . S
C1530 C1531 1.387 . S
C1531 H1516 0.930 . S
C1531 C1526 1.390 . S
C1531 C1530 1.387 . S
H1532 C1544 0.930 . S
H1533 C1546 0.930 . S
H1534 C1547 0.930 . S
H1535 C1551 0.959 . S
H1536 C1551 0.959 1_554 S
H1537 C1551 0.961 . S
H1538 C1552 0.948 1_554 S
H1539 C1552 0.926 1_554 S
H1540 C1552 0.976 . S
H1541 C1555 0.929 . S
H1542 C1556 0.931 . S
H1543 C1558 0.921 1_554 S
C1544 H1532 0.930 . S
C1544 C1545 1.399 . S
C1544 C1549 1.399 . S
C1545 C1544 1.399 . S
C1545 C1546 1.376 . S
C1546 H1533 0.930 . S
C1546 C1545 1.376 . S
C1546 C1547 1.388 . S
C1547 H1534 0.930 . S
C1547 C1546 1.388 . S
C1547 C1548 1.390 . S
C1548 C1547 1.390 . S
C1548 C1549 1.394 . S
C1548 C1554 1.465 . S
C1549 C1544 1.399 . S
C1549 C1548 1.394 . S
C1549 C1550 1.516 . S
C1550 C1549 1.516 . S
C1550 C1551 1.502 . S
C1550 C1552 1.594 . S
C1550 C1553 1.526 . S
C1551 H1535 0.959 . S
C1551 H1536 0.959 1_556 S
C1551 H1537 0.961 . S
C1551 C1550 1.502 . S
C1552 H1538 0.948 1_556 S
C1552 H1539 0.926 1_556 S
C1552 H1540 0.976 . S
C1552 C1550 1.594 . S
C1553 C1550 1.526 . S
C1553 C1554 1.396 . S
C1553 C1558 1.390 . S
C1554 C1548 1.465 . S
C1554 C1553 1.396 . S
C1554 C1555 1.399 . S
C1555 H1541 0.929 . S
C1555 C1554 1.399 . S
C1555 C1556 1.385 . S
C1556 H1542 0.931 . S
C1556 C1555 1.385 . S
C1556 C1557 1.389 . S
C1557 C1556 1.389 . S
C1557 C1558 1.387 . S
C1558 H1543 0.921 1_556 S
C1558 C1553 1.390 . S
C1558 C1557 1.387 . S
H1559 C1571 0.930 . S
H1560 C1573 0.930 . S
H1561 C1574 0.930 . S
H1562 C1578 0.959 . S
H1563 C1578 0.959 . S
H1564 C1578 0.961 . S
H1565 C1579 0.960 . S
H1566 C1579 0.961 . S
H1567 C1579 0.959 . S
H1568 C1582 0.929 . S
H1569 C1583 0.931 . S
H1570 C1585 0.930 . S
C1571 H1559 0.930 . S
C1571 C1572 1.399 . S
C1571 C1576 1.399 . S
C1572 C1571 1.399 . S
C1572 C1573 1.376 . S
C1573 H1560 0.930 . S
C1573 C1572 1.376 . S
C1573 C1574 1.388 . S
C1574 H1561 0.930 . S
C1574 C1573 1.388 . S
C1574 C1575 1.390 . S
C1575 C1574 1.390 . S
C1575 C1576 1.394 . S
C1575 C1581 1.465 . S
C1576 C1571 1.399 . S
C1576 C1575 1.394 . S
C1576 C1577 1.516 . S
C1577 C1576 1.516 . S
C1577 C1578 1.502 . S
C1577 C1579 1.561 . S
C1577 C1580 1.526 . S
C1578 H1562 0.959 . S
C1578 H1563 0.959 . S
C1578 H1564 0.961 . S
C1578 C1577 1.502 . S
C1579 H1565 0.960 . S
C1579 H1566 0.961 . S
C1579 H1567 0.959 . S
C1579 C1577 1.561 . S
C1580 C1577 1.526 . S
C1580 C1581 1.396 . S
C1580 C1585 1.390 . S
C1581 C1575 1.465 . S
C1581 C1580 1.396 . S
C1581 C1582 1.399 . S
C1582 H1568 0.929 . S
C1582 C1581 1.399 . S
C1582 C1583 1.385 . S
C1583 H1569 0.931 . S
C1583 C1582 1.385 . S
C1583 C1584 1.389 . S
C1584 C1583 1.389 . S
C1584 C1585 1.387 . S
C1585 H1570 0.930 . S
C1585 C1580 1.390 . S
C1585 C1584 1.387 . S
H1586 C1598 0.930 . S
H1587 C1600 0.930 . S
H1588 C1601 0.930 . S
H1589 C1605 0.959 . S
H1590 C1605 0.959 . S
H1591 C1605 0.961 . S
H1592 C1606 0.960 . S
H1593 C1606 0.961 . S
H1594 C1606 0.959 . S
H1595 C1609 0.929 . S
H1596 C1610 0.931 . S
H1597 C1612 0.930 . S
C1598 H1586 0.930 . S
C1598 C1599 1.399 . S
C1598 C1603 1.399 . S
C1599 C1598 1.399 . S
C1599 C1600 1.376 . S
C1600 H1587 0.930 . S
C1600 C1599 1.376 . S
C1600 C1601 1.388 . S
C1601 H1588 0.930 . S
C1601 C1600 1.388 . S
C1601 C1602 1.390 . S
C1602 C1601 1.390 . S
C1602 C1603 1.394 . S
C1602 C1608 1.465 . S
C1603 C1598 1.399 . S
C1603 C1602 1.394 . S
C1603 C1604 1.516 . S
C1604 C1603 1.516 . S
C1604 C1605 1.502 . S
C1604 C1606 1.561 . S
C1604 C1607 1.526 . S
C1605 H1589 0.959 . S
C1605 H1590 0.959 . S
C1605 H1591 0.961 . S
C1605 C1604 1.502 . S
C1606 H1592 0.960 . S
C1606 H1593 0.961 . S
C1606 H1594 0.959 . S
C1606 C1604 1.561 . S
C1607 C1604 1.526 . S
C1607 C1608 1.396 . S
C1607 C1612 1.390 . S
C1608 C1602 1.465 . S
C1608 C1607 1.396 . S
C1608 C1609 1.399 . S
C1609 H1595 0.929 . S
C1609 C1608 1.399 . S
C1609 C1610 1.385 . S
C1610 H1596 0.931 . S
C1610 C1609 1.385 . S
C1610 C1611 1.389 . S
C1611 C1610 1.389 . S
C1611 C1612 1.387 . S
C1612 H1597 0.930 . S
C1612 C1607 1.390 . S
C1612 C1611 1.387 . S
H1613 C1625 0.930 . S
H1614 C1627 0.930 . S
H1615 C1628 0.930 . S
H1616 C1632 0.959 . S
H1617 C1632 0.959 . S
H1618 C1632 0.961 . S
H1619 C1633 0.960 . S
H1620 C1633 0.961 . S
H1621 C1633 0.959 . S
H1622 C1636 0.929 . S
H1623 C1637 0.931 . S
H1624 C1639 0.930 . S
C1625 H1613 0.930 . S
C1625 C1626 1.399 . S
C1625 C1630 1.399 . S
C1626 C1625 1.399 . S
C1626 C1627 1.376 . S
C1627 H1614 0.930 . S
C1627 C1626 1.376 . S
C1627 C1628 1.388 . S
C1628 H1615 0.930 . S
C1628 C1627 1.388 . S
C1628 C1629 1.390 . S
C1629 C1628 1.390 . S
C1629 C1630 1.394 . S
C1629 C1635 1.465 . S
C1630 C1625 1.399 . S
C1630 C1629 1.394 . S
C1630 C1631 1.516 . S
C1631 C1630 1.516 . S
C1631 C1632 1.502 . S
C1631 C1633 1.561 . S
C1631 C1634 1.526 . S
C1632 H1616 0.959 . S
C1632 H1617 0.959 . S
C1632 H1618 0.961 . S
C1632 C1631 1.502 . S
C1633 H1619 0.960 . S
C1633 H1620 0.961 . S
C1633 H1621 0.959 . S
C1633 C1631 1.561 . S
C1634 C1631 1.526 . S
C1634 C1635 1.396 . S
C1634 C1639 1.390 1_545 S
C1635 C1629 1.465 . S
C1635 C1634 1.396 . S
C1635 C1636 1.399 . S
C1636 H1622 0.929 . S
C1636 C1635 1.399 . S
C1636 C1637 1.385 1_545 S
C1637 H1623 0.931 . S
C1637 C1636 1.385 1_565 S
C1637 C1638 1.389 . S
C1638 C1637 1.389 . S
C1638 C1639 1.387 . S
C1639 H1624 0.930 . S
C1639 C1634 1.390 1_565 S
C1639 C1638 1.387 . S
C369 C184 1.256 1_556 S
C357 C62 1.254 . S
C396 C199 1.798 . S
C384 C73 1.678 . S
C411 C84 1.767 . S
C423 C212 1.800 . S
C450 C226 1.291 . S
C438 C49 1.150 . S
C477 C238 1.549 . S
C465 C118 1.546 . S
C504 C252 1.343 . S
C492 C137 1.231 . S
C519 C129 1.728 . S
C531 C266 1.714 . S
C558 C281 1.661 . S
C546 C106 1.630 . S
C573 C128 1.805 . S
C585 C297 1.885 . S
C612 C310 1.602 . S
C600 C104 1.257 . S
C627 C115 1.634 . S
C639 C295 1.762 . S
C666 C308 1.607 . S
C654 C139 1.577 . S
C681 C85 1.932 . S
C693 C324 1.916 . S
C708 C52 1.301 . S
C720 C323 1.363 . S
C735 C60 1.244 . S
C747 C322 1.274 . S
C762 C71 1.365 . S
C774 C325 1.693 . S
C789 C40 1.850 . S
C801 C227 1.957 . S
C816 C162 1.119 . S
C828 C225 1.156 . S
C855 C185 1.195 . S
C843 C173 1.188 . S
C882 C196 1.972 . S
C870 C93 1.855 . S
C897 C51 1.543 1_545 S
C909 C241 1.585 . S
C936 C282 1.890 . S
C924 C126 1.675 . S
C963 C239 1.761 . S
C951 C107 1.743 1_545 S
C990 C267 1.566 . S
C978 C140 1.576 . S
C1017 C268 1.237 . S
C1005 C161 1.221 . S
C1032 C172 1.673 . S
C1044 C283 1.742 . S
C1059 C95 1.782 . S
C1071 C240 1.791 . S
C1098 C254 1.330 . S
C1086 C148 0.982 . S
C1113 C41 1.571 . S
C1125 C210 1.482 . S
C1152 C224 1.351 . S
C1140 C5 1.225 . S
C1179 C182 1.706 . S
C1167 C19 1.729 . S
C1206 C197 1.663 . S
C1194 C29 1.633 . S
C1221 C18 1.858 . S
C1233 C311 1.911 . S
C1248 C27 1.195 . S
C1260 C296 1.589 . S
C1275 C38 1.652 . S
C1287 C309 1.801 . S
C1302 C7 1.614 . S
C1314 C294 1.612 1_554 S
C1341 C338 1.937 . S
C1329 C96 1.935 . S
C1368 C337 1.314 . S
C1356 C151 1.331 . S
C1395 C336 1.354 . S
C1383 C159 1.193 . S
C1410 C170 1.388 . S
C1422 C339 1.634 . S
C1437 C117 1.899 . S
C1449 C255 1.942 . S
C1476 C253 1.153 . S
C1464 C63 1.109 . S
C1503 C269 1.257 . S
C1491 C74 1.169 . S
C1530 C280 1.960 . S
C1518 C82 1.859 . S
C1545 C150 1.538 . S
C1557 C213 1.578 . S
C1584 C198 1.883 . S
C1572 C16 1.646 . S
C1599 C30 1.749 . S
C1611 C211 1.772 . S
C1638 C183 1.564 . S
C1626 C8 1.578 . S
