# Generated by pormake.
# Topology gar, (4,6)-cn, num edge types: 1
# Building blocks:
#     Node 0, Type 0, BuildingBlock: TATPOV_clean_sbu_0, # of connection points: 4
#     Node 1, Type 0, BuildingBlock: TATPOV_clean_sbu_0, # of connection points: 4
#     Node 2, Type 0, BuildingBlock: TATPOV_clean_sbu_0, # of connection points: 4
#     Node 3, Type 0, BuildingBlock: TATPOV_clean_sbu_0, # of connection points: 4
#     Node 4, Type 0, BuildingBlock: TATPOV_clean_sbu_0, # of connection points: 4
#     Node 5, Type 0, BuildingBlock: TATPOV_clean_sbu_0, # of connection points: 4
#     Node 6, Type 0, BuildingBlock: TATPOV_clean_sbu_0, # of connection points: 4
#     Node 7, Type 0, BuildingBlock: TATPOV_clean_sbu_0, # of connection points: 4
#     Node 8, Type 0, BuildingBlock: TATPOV_clean_sbu_0, # of connection points: 4
#     Node 9, Type 0, BuildingBlock: TATPOV_clean_sbu_0, # of connection points: 4
#     Node 10, Type 0, BuildingBlock: TATPOV_clean_sbu_0, # of connection points: 4
#     Node 11, Type 0, BuildingBlock: TATPOV_clean_sbu_0, # of connection points: 4
#     Node 12, Type 0, BuildingBlock: TATPOV_clean_sbu_0, # of connection points: 4
#     Node 13, Type 0, BuildingBlock: TATPOV_clean_sbu_0, # of connection points: 4
#     Node 14, Type 0, BuildingBlock: TATPOV_clean_sbu_0, # of connection points: 4
#     Node 15, Type 0, BuildingBlock: TATPOV_clean_sbu_0, # of connection points: 4
#     Node 16, Type 0, BuildingBlock: TATPOV_clean_sbu_0, # of connection points: 4
#     Node 17, Type 0, BuildingBlock: TATPOV_clean_sbu_0, # of connection points: 4
#     Node 18, Type 0, BuildingBlock: TATPOV_clean_sbu_0, # of connection points: 4
#     Node 19, Type 0, BuildingBlock: TATPOV_clean_sbu_0, # of connection points: 4
#     Node 20, Type 0, BuildingBlock: TATPOV_clean_sbu_0, # of connection points: 4
#     Node 21, Type 0, BuildingBlock: TATPOV_clean_sbu_0, # of connection points: 4
#     Node 22, Type 0, BuildingBlock: TATPOV_clean_sbu_0, # of connection points: 4
#     Node 23, Type 0, BuildingBlock: TATPOV_clean_sbu_0, # of connection points: 4
#     Node 24, Type 1, BuildingBlock: KUMBUR_clean_sbu_1, # of connection points: 6
#     Node 25, Type 1, BuildingBlock: KUMBUR_clean_sbu_1, # of connection points: 6
#     Node 26, Type 1, BuildingBlock: KUMBUR_clean_sbu_1, # of connection points: 6
#     Node 27, Type 1, BuildingBlock: KUMBUR_clean_sbu_1, # of connection points: 6
#     Node 28, Type 1, BuildingBlock: KUMBUR_clean_sbu_1, # of connection points: 6
#     Node 29, Type 1, BuildingBlock: KUMBUR_clean_sbu_1, # of connection points: 6
#     Node 30, Type 1, BuildingBlock: KUMBUR_clean_sbu_1, # of connection points: 6
#     Node 31, Type 1, BuildingBlock: KUMBUR_clean_sbu_1, # of connection points: 6
#     Node 32, Type 1, BuildingBlock: KUMBUR_clean_sbu_1, # of connection points: 6
#     Node 33, Type 1, BuildingBlock: KUMBUR_clean_sbu_1, # of connection points: 6
#     Node 34, Type 1, BuildingBlock: KUMBUR_clean_sbu_1, # of connection points: 6
#     Node 35, Type 1, BuildingBlock: KUMBUR_clean_sbu_1, # of connection points: 6
#     Node 36, Type 1, BuildingBlock: KUMBUR_clean_sbu_1, # of connection points: 6
#     Node 37, Type 1, BuildingBlock: KUMBUR_clean_sbu_1, # of connection points: 6
#     Node 38, Type 1, BuildingBlock: KUMBUR_clean_sbu_1, # of connection points: 6
#     Node 39, Type 1, BuildingBlock: KUMBUR_clean_sbu_1, # of connection points: 6
#     Edge 40, Type (0, 1), BuildingBlock: XUDNAN_clean_linker_2, # of connection points: 2
#     Edge 41, Type (0, 1), BuildingBlock: XUDNAN_clean_linker_2, # of connection points: 2
#     Edge 42, Type (0, 1), BuildingBlock: XUDNAN_clean_linker_2, # of connection points: 2
#     Edge 43, Type (0, 1), BuildingBlock: XUDNAN_clean_linker_2, # of connection points: 2
#     Edge 44, Type (0, 1), BuildingBlock: XUDNAN_clean_linker_2, # of connection points: 2
#     Edge 45, Type (0, 1), BuildingBlock: XUDNAN_clean_linker_2, # of connection points: 2
#     Edge 46, Type (0, 1), BuildingBlock: XUDNAN_clean_linker_2, # of connection points: 2
#     Edge 47, Type (0, 1), BuildingBlock: XUDNAN_clean_linker_2, # of connection points: 2
#     Edge 48, Type (0, 1), BuildingBlock: XUDNAN_clean_linker_2, # of connection points: 2
#     Edge 49, Type (0, 1), BuildingBlock: XUDNAN_clean_linker_2, # of connection points: 2
#     Edge 50, Type (0, 1), BuildingBlock: XUDNAN_clean_linker_2, # of connection points: 2
#     Edge 51, Type (0, 1), BuildingBlock: XUDNAN_clean_linker_2, # of connection points: 2
#     Edge 52, Type (0, 1), BuildingBlock: XUDNAN_clean_linker_2, # of connection points: 2
#     Edge 53, Type (0, 1), BuildingBlock: XUDNAN_clean_linker_2, # of connection points: 2
#     Edge 54, Type (0, 1), BuildingBlock: XUDNAN_clean_linker_2, # of connection points: 2
#     Edge 55, Type (0, 1), BuildingBlock: XUDNAN_clean_linker_2, # of connection points: 2
#     Edge 56, Type (0, 1), BuildingBlock: XUDNAN_clean_linker_2, # of connection points: 2
#     Edge 57, Type (0, 1), BuildingBlock: XUDNAN_clean_linker_2, # of connection points: 2
#     Edge 58, Type (0, 1), BuildingBlock: XUDNAN_clean_linker_2, # of connection points: 2
#     Edge 59, Type (0, 1), BuildingBlock: XUDNAN_clean_linker_2, # of connection points: 2
#     Edge 60, Type (0, 1), BuildingBlock: XUDNAN_clean_linker_2, # of connection points: 2
#     Edge 61, Type (0, 1), BuildingBlock: XUDNAN_clean_linker_2, # of connection points: 2
#     Edge 62, Type (0, 1), BuildingBlock: XUDNAN_clean_linker_2, # of connection points: 2
#     Edge 63, Type (0, 1), BuildingBlock: XUDNAN_clean_linker_2, # of connection points: 2
#     Edge 64, Type (0, 1), BuildingBlock: XUDNAN_clean_linker_2, # of connection points: 2
#     Edge 65, Type (0, 1), BuildingBlock: XUDNAN_clean_linker_2, # of connection points: 2
#     Edge 66, Type (0, 1), BuildingBlock: XUDNAN_clean_linker_2, # of connection points: 2
#     Edge 67, Type (0, 1), BuildingBlock: XUDNAN_clean_linker_2, # of connection points: 2
#     Edge 68, Type (0, 1), BuildingBlock: XUDNAN_clean_linker_2, # of connection points: 2
#     Edge 69, Type (0, 1), BuildingBlock: XUDNAN_clean_linker_2, # of connection points: 2
#     Edge 70, Type (0, 1), BuildingBlock: XUDNAN_clean_linker_2, # of connection points: 2
#     Edge 71, Type (0, 1), BuildingBlock: XUDNAN_clean_linker_2, # of connection points: 2
#     Edge 72, Type (0, 1), BuildingBlock: XUDNAN_clean_linker_2, # of connection points: 2
#     Edge 73, Type (0, 1), BuildingBlock: XUDNAN_clean_linker_2, # of connection points: 2
#     Edge 74, Type (0, 1), BuildingBlock: XUDNAN_clean_linker_2, # of connection points: 2
#     Edge 75, Type (0, 1), BuildingBlock: XUDNAN_clean_linker_2, # of connection points: 2
#     Edge 76, Type (0, 1), BuildingBlock: XUDNAN_clean_linker_2, # of connection points: 2
#     Edge 77, Type (0, 1), BuildingBlock: XUDNAN_clean_linker_2, # of connection points: 2
#     Edge 78, Type (0, 1), BuildingBlock: XUDNAN_clean_linker_2, # of connection points: 2
#     Edge 79, Type (0, 1), BuildingBlock: XUDNAN_clean_linker_2, # of connection points: 2
#     Edge 80, Type (0, 1), BuildingBlock: XUDNAN_clean_linker_2, # of connection points: 2
#     Edge 81, Type (0, 1), BuildingBlock: XUDNAN_clean_linker_2, # of connection points: 2
#     Edge 82, Type (0, 1), BuildingBlock: XUDNAN_clean_linker_2, # of connection points: 2
#     Edge 83, Type (0, 1), BuildingBlock: XUDNAN_clean_linker_2, # of connection points: 2
#     Edge 84, Type (0, 1), BuildingBlock: XUDNAN_clean_linker_2, # of connection points: 2
#     Edge 85, Type (0, 1), BuildingBlock: XUDNAN_clean_linker_2, # of connection points: 2
#     Edge 86, Type (0, 1), BuildingBlock: XUDNAN_clean_linker_2, # of connection points: 2
#     Edge 87, Type (0, 1), BuildingBlock: XUDNAN_clean_linker_2, # of connection points: 2
#     Edge 88, Type (0, 1), BuildingBlock: XUDNAN_clean_linker_2, # of connection points: 2
#     Edge 89, Type (0, 1), BuildingBlock: XUDNAN_clean_linker_2, # of connection points: 2
#     Edge 90, Type (0, 1), BuildingBlock: XUDNAN_clean_linker_2, # of connection points: 2
#     Edge 91, Type (0, 1), BuildingBlock: XUDNAN_clean_linker_2, # of connection points: 2
#     Edge 92, Type (0, 1), BuildingBlock: XUDNAN_clean_linker_2, # of connection points: 2
#     Edge 93, Type (0, 1), BuildingBlock: XUDNAN_clean_linker_2, # of connection points: 2
#     Edge 94, Type (0, 1), BuildingBlock: XUDNAN_clean_linker_2, # of connection points: 2
#     Edge 95, Type (0, 1), BuildingBlock: XUDNAN_clean_linker_2, # of connection points: 2
#     Edge 96, Type (0, 1), BuildingBlock: XUDNAN_clean_linker_2, # of connection points: 2
#     Edge 97, Type (0, 1), BuildingBlock: XUDNAN_clean_linker_2, # of connection points: 2
#     Edge 98, Type (0, 1), BuildingBlock: XUDNAN_clean_linker_2, # of connection points: 2
#     Edge 99, Type (0, 1), BuildingBlock: XUDNAN_clean_linker_2, # of connection points: 2
#     Edge 100, Type (0, 1), BuildingBlock: XUDNAN_clean_linker_2, # of connection points: 2
#     Edge 101, Type (0, 1), BuildingBlock: XUDNAN_clean_linker_2, # of connection points: 2
#     Edge 102, Type (0, 1), BuildingBlock: XUDNAN_clean_linker_2, # of connection points: 2
#     Edge 103, Type (0, 1), BuildingBlock: XUDNAN_clean_linker_2, # of connection points: 2
#     Edge 104, Type (0, 1), BuildingBlock: XUDNAN_clean_linker_2, # of connection points: 2
#     Edge 105, Type (0, 1), BuildingBlock: XUDNAN_clean_linker_2, # of connection points: 2
#     Edge 106, Type (0, 1), BuildingBlock: XUDNAN_clean_linker_2, # of connection points: 2
#     Edge 107, Type (0, 1), BuildingBlock: XUDNAN_clean_linker_2, # of connection points: 2
#     Edge 108, Type (0, 1), BuildingBlock: XUDNAN_clean_linker_2, # of connection points: 2
#     Edge 109, Type (0, 1), BuildingBlock: XUDNAN_clean_linker_2, # of connection points: 2
#     Edge 110, Type (0, 1), BuildingBlock: XUDNAN_clean_linker_2, # of connection points: 2
#     Edge 111, Type (0, 1), BuildingBlock: XUDNAN_clean_linker_2, # of connection points: 2
#     Edge 112, Type (0, 1), BuildingBlock: XUDNAN_clean_linker_2, # of connection points: 2
#     Edge 113, Type (0, 1), BuildingBlock: XUDNAN_clean_linker_2, # of connection points: 2
#     Edge 114, Type (0, 1), BuildingBlock: XUDNAN_clean_linker_2, # of connection points: 2
#     Edge 115, Type (0, 1), BuildingBlock: XUDNAN_clean_linker_2, # of connection points: 2
#     Edge 116, Type (0, 1), BuildingBlock: XUDNAN_clean_linker_2, # of connection points: 2
#     Edge 117, Type (0, 1), BuildingBlock: XUDNAN_clean_linker_2, # of connection points: 2
#     Edge 118, Type (0, 1), BuildingBlock: XUDNAN_clean_linker_2, # of connection points: 2
#     Edge 119, Type (0, 1), BuildingBlock: XUDNAN_clean_linker_2, # of connection points: 2
#     Edge 120, Type (0, 1), BuildingBlock: XUDNAN_clean_linker_2, # of connection points: 2
#     Edge 121, Type (0, 1), BuildingBlock: XUDNAN_clean_linker_2, # of connection points: 2
#     Edge 122, Type (0, 1), BuildingBlock: XUDNAN_clean_linker_2, # of connection points: 2
#     Edge 123, Type (0, 1), BuildingBlock: XUDNAN_clean_linker_2, # of connection points: 2
#     Edge 124, Type (0, 1), BuildingBlock: XUDNAN_clean_linker_2, # of connection points: 2
#     Edge 125, Type (0, 1), BuildingBlock: XUDNAN_clean_linker_2, # of connection points: 2
#     Edge 126, Type (0, 1), BuildingBlock: XUDNAN_clean_linker_2, # of connection points: 2
#     Edge 127, Type (0, 1), BuildingBlock: XUDNAN_clean_linker_2, # of connection points: 2
#     Edge 128, Type (0, 1), BuildingBlock: XUDNAN_clean_linker_2, # of connection points: 2
#     Edge 129, Type (0, 1), BuildingBlock: XUDNAN_clean_linker_2, # of connection points: 2
#     Edge 130, Type (0, 1), BuildingBlock: XUDNAN_clean_linker_2, # of connection points: 2
#     Edge 131, Type (0, 1), BuildingBlock: XUDNAN_clean_linker_2, # of connection points: 2
#     Edge 132, Type (0, 1), BuildingBlock: XUDNAN_clean_linker_2, # of connection points: 2
#     Edge 133, Type (0, 1), BuildingBlock: XUDNAN_clean_linker_2, # of connection points: 2
#     Edge 134, Type (0, 1), BuildingBlock: XUDNAN_clean_linker_2, # of connection points: 2
#     Edge 135, Type (0, 1), BuildingBlock: XUDNAN_clean_linker_2, # of connection points: 2
# Relax obj value: 0.088
# Max RMSD: 0.187
# Mean RMSD: 0.130
data_MOF--net-gar--node1-TATPOV_clean_sbu_0--node2-KUMBUR_clean_sbu_1--edge1-XUDNAN_clean_linker_2
_symmetry_space_group_name_H-M    P1
_symmetry_Int_Tables_number       1
_symmetry_cell_setting            triclinic
loop_
_symmetry_equiv_pos_as_xyz
'x, y, z'
_cell_length_a     60.089543
_cell_length_b     60.159692
_cell_length_c     56.43874
_cell_angle_alpha  96.507203
_cell_angle_beta   97.035364
_cell_angle_gamma 103.32829
loop_
_atom_site_label
_atom_site_type_symbol
_atom_site_fract_x
_atom_site_fract_y
_atom_site_fract_z
_atom_type_partial_charge
Zn0 Zn 0.02574 0.31524 0.38445 0.0
Zn1 Zn 0.05676 0.32006 0.35714 0.0
O2 O 0.06324 0.35349 0.38055 0.0
O3 O 0.03459 0.34714 0.40172 0.0
O4 O 0.08955 0.32011 0.34193 0.0
O5 O 0.03308 0.29114 0.40221 0.0
O6 O 0.05664 0.29052 0.37545 0.0
C7 C 0.05209 0.36086 0.39671 0.0
C8 C 1.00182 0.31057 0.33759 0.0
O9 O 0.02298 0.31653 0.33312 0.0
O10 O 0.99844 0.30684 0.35858 0.0
C11 C 0.09615 0.30834 0.32453 0.0
O12 O 0.08017 0.29345 0.30884 0.0
C13 C 0.04747 0.28207 0.39288 0.0
Zn14 Zn 0.02318 0.72774 0.71949 0.0
Zn15 Zn 0.02513 0.75696 0.68924 0.0
O16 O 0.99349 0.75905 0.70505 0.0
O17 O 0.99284 0.73493 0.73132 0.0
O18 O 0.02872 0.78322 0.66834 0.0
O19 O 0.05822 0.74037 0.73534 0.0
O20 O 0.05959 0.76531 0.70975 0.0
C21 C 0.98343 0.74917 0.72136 0.0
C22 C 0.02167 0.70598 0.66932 0.0
O23 O 0.02263 0.72646 0.66446 0.0
O24 O 0.02052 0.70218 0.69089 0.0
C25 C 0.01172 0.79012 0.65868 0.0
O26 O 0.99068 0.77963 0.66148 0.0
C27 C 0.07015 0.75652 0.72607 0.0
Zn28 Zn 0.52458 0.82007 0.88515 0.0
Zn29 Zn 0.55472 0.8199 0.8558 0.0
O30 O 0.56366 0.85465 0.87856 0.0
O31 O 0.53661 0.8517 0.90212 0.0
O32 O 0.58276 0.81593 0.83358 0.0
O33 O 0.53022 0.79374 0.90128 0.0
O34 O 0.55536 0.79183 0.8764 0.0
C35 C 0.55411 0.86375 0.89536 0.0
C36 C 0.4992 0.81256 0.83879 0.0
O37 O 0.51966 0.8132 0.83307 0.0
O38 O 0.49684 0.81525 0.86074 0.0
C39 C 0.60504 0.82445 0.83827 0.0
O40 O 0.6133 0.83996 0.85753 0.0
C41 C 0.54487 0.78396 0.89338 0.0
Zn42 Zn 0.52324 0.22969 0.22139 0.0
Zn43 Zn 0.52604 0.25669 0.19195 0.0
O44 O 0.49418 0.25943 0.20885 0.0
O45 O 0.49513 0.23639 0.23589 0.0
O46 O 0.52919 0.28276 0.17072 0.0
O47 O 0.55712 0.23979 0.2381 0.0
O48 O 0.56212 0.26283 0.21088 0.0
C49 C 0.48477 0.24978 0.22574 0.0
C50 C 0.51765 0.20549 0.17188 0.0
O51 O 0.52052 0.22598 0.16652 0.0
O52 O 0.51734 0.20278 0.19383 0.0
C53 C 0.51184 0.2902 0.16297 0.0
O54 O 0.49142 0.28056 0.16812 0.0
C55 C 0.57097 0.25384 0.22825 0.0
Zn56 Zn 0.09566 0.8012 0.08323 0.0
Zn57 Zn 0.06895 0.79818 0.11454 0.0
O58 O 0.06492 0.82963 0.09803 0.0
O59 O 0.08743 0.83085 0.07041 0.0
O60 O 0.04282 0.795 0.13512 0.0
O61 O 0.08203 0.76701 0.06606 0.0
O62 O 0.06197 0.76246 0.09574 0.0
C63 C 0.0736 0.83997 0.08119 0.0
C64 C 0.1197 0.80259 0.13372 0.0
O65 O 0.09969 0.80229 0.13947 0.0
O66 O 0.12231 0.80296 0.11168 0.0
C67 C 0.0395 0.81215 0.14842 0.0
O68 O 0.05391 0.83249 0.14977 0.0
C69 C 0.06897 0.7534 0.07717 0.0
Zn70 Zn 0.48128 0.76634 0.47785 0.0
Zn71 Zn 0.50708 0.76585 0.44437 0.0
O72 O 0.51501 0.8016 0.46226 0.0
O73 O 0.49456 0.8019 0.49184 0.0
O74 O 0.53274 0.76574 0.42322 0.0
O75 O 0.49116 0.73749 0.4917 0.0
O76 O 0.51006 0.73514 0.46124 0.0
C77 C 0.50834 0.81319 0.47953 0.0
C78 C 0.45616 0.76167 0.4269 0.0
O79 O 0.47596 0.76185 0.42064 0.0
O80 O 0.45416 0.76243 0.44918 0.0
C81 C 0.54293 0.78183 0.41253 0.0
O82 O 0.53643 0.80128 0.4137 0.0
C83 C 0.503 0.72663 0.47966 0.0
Zn84 Zn 0.59737 0.29924 0.58242 0.0
Zn85 Zn 0.56879 0.29677 0.61171 0.0
O86 O 0.56539 0.32854 0.59567 0.0
O87 O 0.5896 0.32915 0.5698 0.0
O88 O 0.54075 0.29112 0.62924 0.0
O89 O 0.58419 0.26518 0.5643 0.0
O90 O 0.56265 0.26129 0.59278 0.0
C91 C 0.57521 0.33858 0.57927 0.0
C92 C 0.61871 0.30103 0.63402 0.0
O93 O 0.59824 0.30087 0.63833 0.0
O94 O 0.6226 0.30086 0.61233 0.0
C95 C 0.53263 0.30464 0.64287 0.0
O96 O 0.5437 0.32651 0.64858 0.0
C97 C 0.57025 0.25189 0.57487 0.0
Zn98 Zn 0.97675 0.26664 0.9749 0.0
Zn99 Zn 1.00765 0.26967 0.94544 0.0
O100 O 0.01474 0.30422 0.9634 0.0
O101 O 0.99087 0.30292 0.98989 0.0
O102 O 0.03461 0.27068 0.92633 0.0
O103 O 0.98572 0.23589 0.98699 0.0
O104 O 0.01191 0.24034 0.96318 0.0
C105 C 1.00631 0.31495 0.97968 0.0
C106 C 0.95631 0.26434 0.92337 0.0
O107 O 0.97738 0.2657 0.92031 0.0
O108 O 0.95111 0.26326 0.9445 0.0
C109 C 0.03934 0.27934 0.90743 0.0
O110 O 0.02514 0.29004 0.89669 0.0
C111 C 1.00178 0.22864 0.97819 0.0
Zn112 Zn 0.4024 0.99295 0.30155 0.0
Zn113 Zn 0.38985 0.02668 0.2973 0.0
O114 O 0.4094 0.03438 0.32928 0.0
O115 O 0.4019 0.99897 0.33731 0.0
O116 O 0.37561 0.05273 0.29736 0.0
O117 O 0.43138 0.00633 0.2898 0.0
O118 O 0.4107 0.02666 0.27121 0.0
C119 C 0.40998 0.0204 0.34431 0.0
C120 C 0.35852 0.97967 0.28471 0.0
O121 O 0.36188 0.99983 0.29596 0.0
O122 O 0.37553 0.97324 0.27791 0.0
C123 C 0.36158 0.0531 0.31245 0.0
O124 O 0.35768 0.03684 0.32619 0.0
C125 C 0.42896 0.01924 0.27404 0.0
Zn126 Zn 0.24791 0.20871 0.512 0.0
Zn127 Zn 0.2751 0.18024 0.51576 0.0
O128 O 0.28032 0.19459 0.48374 0.0
O129 O 0.26253 0.22265 0.48391 0.0
O130 O 0.29912 0.16125 0.51847 0.0
O131 O 0.25761 0.22224 0.54797 0.0
O132 O 0.28291 0.20102 0.54969 0.0
C133 C 0.275 0.21121 0.47388 0.0
C134 C 0.22311 0.15991 0.5067 0.0
O135 O 0.2432 0.15663 0.51238 0.0
O136 O 0.22083 0.17994 0.50387 0.0
C137 C 0.30289 0.14843 0.50063 0.0
O138 O 0.29032 0.14664 0.47942 0.0
C139 C 0.27356 0.21576 0.56004 0.0
Zn140 Zn 0.11683 0.08231 0.78999 0.0
Zn141 Zn 0.13681 0.04819 0.78963 0.0
O142 O 0.12201 0.04644 0.82216 0.0
O143 O 0.10323 0.07365 0.81987 0.0
O144 O 0.15017 0.02027 0.78511 0.0
O145 O 0.10005 0.07191 0.75529 0.0
O146 O 0.11614 0.04272 0.75595 0.0
C147 C 0.10895 0.0582 0.83107 0.0
C148 C 0.16616 0.09802 0.79304 0.0
O149 O 0.16484 0.07635 0.79063 0.0
O150 O 0.14816 0.1053 0.79462 0.0
C151 C 0.16479 0.01353 0.79898 0.0
O152 O 0.17329 0.0254 0.82048 0.0
C153 C 0.10361 0.05371 0.74449 0.0
Zn154 Zn 0.33473 0.90696 0.00739 0.0
Zn155 Zn 0.30056 0.92614 -5e-05 0.0
O156 O 0.29779 0.90888 0.96716 0.0
O157 O 0.33152 0.90004 0.97142 0.0
O158 O 0.27444 0.9396 0.99673 0.0
O159 O 0.3173 0.88514 0.02704 0.0
O160 O 0.29386 0.90833 0.02756 0.0
C161 C 0.31343 0.9014 0.95825 0.0
C162 C 0.34706 0.95602 0.01873 0.0
O163 O 0.3271 0.95423 0.00736 0.0
O164 O 0.35378 0.93826 0.02316 0.0
C165 C 0.27094 0.95423 0.98319 0.0
O166 O 0.2853 0.96078 0.96809 0.0
C167 C 0.30066 0.89155 0.03496 0.0
Zn168 Zn 0.33379 0.35896 0.04287 0.0
Zn169 Zn 0.30258 0.38257 0.03895 0.0
O170 O 0.29689 0.36315 0.0039 0.0
O171 O 0.32069 0.34077 0.0098 0.0
O172 O 0.27672 0.39888 0.03957 0.0
O173 O 0.32508 0.34673 0.07348 0.0
O174 O 0.29817 0.36584 0.06944 0.0
C175 C 0.30572 0.3469 0.99589 0.0
C176 C 0.35317 0.40818 0.04524 0.0
O177 O 0.33214 0.40925 0.04408 0.0
O178 O 0.35829 0.38886 0.04457 0.0
C179 C 0.27258 0.41328 0.02588 0.0
O180 O 0.28542 0.41807 0.009 0.0
C181 C 0.30817 0.35291 0.08112 0.0
Zn182 Zn 0.74769 0.15915 0.05622 0.0
Zn183 Zn 0.77935 0.1381 0.06041 0.0
O184 O 0.78782 0.15794 0.03431 0.0
O185 O 0.7675 0.18332 0.04125 0.0
O186 O 0.80486 0.12379 0.06347 0.0
O187 O 0.74911 0.16165 0.09176 0.0
O188 O 0.78315 0.15371 0.09397 0.0
C189 C 0.78288 0.17683 0.03086 0.0
C190 C 0.73199 0.11199 0.03856 0.0
O191 O 0.7511 0.11153 0.05049 0.0
O192 O 0.72707 0.13095 0.03584 0.0
C193 C 0.80384 0.10247 0.06201 0.0
O194 O 0.784 0.08751 0.06149 0.0
C195 C 0.76743 0.15974 0.10404 0.0
Zn196 Zn 0.16752 0.5748 0.24733 0.0
Zn197 Zn 0.18496 0.54202 0.24747 0.0
O198 O 0.16612 0.534 0.27363 0.0
O199 O 0.16681 0.57076 0.28219 0.0
O200 O 0.20069 0.5173 0.24197 0.0
O201 O 0.14171 0.55991 0.22133 0.0
O202 O 0.1683 0.54138 0.21433 0.0
C203 C 0.16422 0.55081 0.28824 0.0
C204 C 0.21354 0.58794 0.24974 0.0
O205 O 0.21057 0.5703 0.2602 0.0
O206 O 0.1966 0.59143 0.23646 0.0
C207 C 0.22163 0.52004 0.25111 0.0
O208 O 0.23271 0.53921 0.26532 0.0
C209 C 0.15037 0.54785 0.20699 0.0
Zn210 Zn 0.82912 0.86045 0.54372 0.0
Zn211 Zn 0.79867 0.88488 0.53788 0.0
O212 O 0.79364 0.86426 0.50357 0.0
O213 O 0.81775 0.84246 0.51084 0.0
O214 O 0.77403 0.9031 0.53545 0.0
O215 O 0.818 0.84796 0.573 0.0
O216 O 0.79299 0.86936 0.569 0.0
C217 C 0.80291 0.84808 0.49635 0.0
C218 C 0.85012 0.90887 0.54587 0.0
O219 O 0.82919 0.91037 0.54327 0.0
O220 O 0.85479 0.88946 0.54652 0.0
C221 C 0.7764 0.91987 0.52337 0.0
O222 O 0.79424 0.92428 0.51179 0.0
C223 C 0.80171 0.85544 0.58046 0.0
Zn224 Zn 0.96358 0.98994 0.26726 0.0
Zn225 Zn 0.93938 0.01906 0.2602 0.0
O226 O 0.95644 0.02711 0.29663 0.0
O227 O 0.98065 1.0049 0.3 0.0
O228 O 0.92218 0.04421 0.25665 0.0
O229 O 0.97747 0.99492 0.23718 0.0
O230 O 0.95849 0.02134 0.23109 0.0
C231 C 0.97211 0.02044 0.30945 0.0
C232 C 0.91458 0.96882 0.25957 0.0
O233 O 0.91308 0.98885 0.25531 0.0
O234 O 0.93421 0.9651 0.26581 0.0
C235 C 0.91447 0.05299 0.27452 0.0
O236 O 0.91731 0.0452 0.29522 0.0
C237 C 0.97247 0.00962 0.22445 0.0
Zn238 Zn 0.24672 0.65518 0.55572 0.0
Zn239 Zn 0.27877 0.63564 0.55908 0.0
O240 O 0.28467 0.65134 0.52993 0.0
O241 O 0.24924 0.65528 0.52076 0.0
O242 O 0.30494 0.6221 0.56596 0.0
O243 O 0.26528 0.68276 0.5782 0.0
O244 O 0.28217 0.65634 0.59016 0.0
C245 C 0.26916 0.65596 0.51531 0.0
C246 C 0.23258 0.60876 0.55984 0.0
O247 O 0.25109 0.60893 0.55141 0.0
O248 O 0.22867 0.6276 0.56838 0.0
C249 C 0.30406 0.60277 0.55408 0.0
O250 O 0.28609 0.59295 0.53748 0.0
C251 C 0.27853 0.67626 0.59351 0.0
Zn252 Zn 0.46065 0.4912 0.75981 0.0
Zn253 Zn 0.43544 0.52283 0.76107 0.0
O254 O 0.45557 0.53013 0.79512 0.0
O255 O 0.47617 0.5042 0.79421 0.0
O256 O 0.41645 0.5467 0.76244 0.0
O257 O 0.47274 0.50248 0.72973 0.0
O258 O 0.45226 0.52843 0.73137 0.0
C259 C 0.47037 0.52083 0.8056 0.0
C260 C 0.41182 0.47089 0.75587 0.0
O261 O 0.41048 0.4918 0.75666 0.0
O262 O 0.43124 0.46595 0.75683 0.0
C263 C 0.40232 0.54541 0.77756 0.0
O264 O 0.40103 0.52907 0.79131 0.0
C265 C 0.46616 0.51887 0.72106 0.0
Zn266 Zn 0.65496 0.07464 0.74926 0.0
Zn267 Zn 0.6834 0.04023 0.74961 0.0
O268 O 0.66935 0.03182 0.77834 0.0
O269 O 0.65855 0.06444 0.7823 0.0
O270 O 0.7011 0.01743 0.74271 0.0
O271 O 0.66798 0.07181 0.71738 0.0
O272 O 0.6624 0.035 0.71899 0.0
C273 C 0.66295 0.04717 0.79103 0.0
C274 C 0.70455 0.09122 0.75236 0.0
O275 O 0.70625 0.07148 0.757 0.0
O276 O 0.68521 0.09508 0.74474 0.0
C277 C 0.72295 0.02197 0.74579 0.0
O278 O 0.73521 0.04284 0.75508 0.0
C279 C 0.66415 0.05142 0.70671 0.0
Zn280 Zn 0.74233 0.70775 0.01274 0.0
Zn281 Zn 0.77362 0.68349 0.01247 0.0
O282 O 0.77829 0.69993 0.98155 0.0
O283 O 0.75301 0.72106 0.98365 0.0
O284 O 0.80075 0.66928 0.0181 0.0
O285 O 0.75376 0.72491 0.04703 0.0
O286 O 0.77714 0.70177 0.04704 0.0
C287 C 0.76828 0.71452 0.973 0.0
C288 C 0.72346 0.65757 0.00692 0.0
O289 O 0.74456 0.6567 0.00793 0.0
O290 O 0.71822 0.67688 0.00807 0.0
C291 C 0.80946 0.65659 0.00425 0.0
O292 O 0.80014 0.65034 0.98147 0.0
C293 C 0.76902 0.71699 0.0583 0.0
Zn294 Zn 0.91068 0.50006 0.80798 0.0
Zn295 Zn 0.88825 0.52624 0.80332 0.0
O296 O 0.90175 0.52839 0.83874 0.0
O297 O 0.93406 0.51865 0.83479 0.0
O298 O 0.86973 0.54864 0.80479 0.0
O299 O 0.91716 0.50012 0.77512 0.0
O300 O 0.90972 0.53421 0.77804 0.0
C301 C 0.92151 0.52681 0.84793 0.0
C302 C 0.86393 0.47953 0.80246 0.0
O303 O 0.8635 0.49689 0.79185 0.0
O304 O 0.88257 0.47843 0.81481 0.0
C305 C 0.85984 0.55299 0.82279 0.0
O306 O 0.86317 0.54376 0.84249 0.0
C307 C 0.91814 0.51907 0.76724 0.0
Zn308 Zn 0.83366 0.41345 0.50652 0.0
Zn309 Zn 0.80151 0.43291 0.50605 0.0
O310 O 0.794 0.4114 0.47537 0.0
O311 O 0.82894 0.40868 0.47029 0.0
O312 O 0.77595 0.44725 0.50346 0.0
O313 O 0.81446 0.3895 0.52295 0.0
O314 O 0.7975 0.41661 0.53471 0.0
C315 C 0.80768 0.40524 0.46219 0.0
C316 C 0.84869 0.4609 0.52118 0.0
O317 O 0.82893 0.45973 0.50972 0.0
O318 O 0.85455 0.44272 0.52553 0.0
C319 C 0.77277 0.46062 0.48827 0.0
O320 O 0.78783 0.46625 0.4736 0.0
C321 C 0.80127 0.39688 0.53598 0.0
Zn322 Zn 0.61328 0.57801 0.28918 0.0
Zn323 Zn 0.63653 0.54624 0.29045 0.0
O324 O 0.62066 0.5437 0.32193 0.0
O325 O 0.59959 0.56895 0.31881 0.0
O326 O 0.65344 0.52077 0.28912 0.0
O327 O 0.59782 0.56639 0.25428 0.0
O328 O 0.61753 0.53991 0.25558 0.0
C329 C 0.60652 0.5543 0.33035 0.0
C330 C 0.66259 0.59692 0.29528 0.0
O331 O 0.6629 0.57568 0.29352 0.0
O332 O 0.64355 0.60265 0.29476 0.0
C333 C 0.66782 0.51795 0.30634 0.0
O334 O 0.67187 0.53188 0.32692 0.0
C335 C 0.60381 0.5495 0.24366 0.0
Tb336 Tb 0.07311 0.04774 0.04501 0.0
C337 C 0.99293 0.97091 0.98736 0.0
N338 N 1.005 0.99154 0.98241 0.0
C339 C 1.00499 0.9743 0.94189 0.0
C340 C 0.98674 0.95107 0.96974 0.0
C341 C 0.01074 0.99353 0.95989 0.0
C342 C 0.99301 0.95297 0.94684 0.0
C343 C 0.97386 0.94872 0.0158 0.0
C344 C 0.9866 0.96976 0.01021 0.0
C345 C 0.96791 0.9289 0.99836 0.0
C346 C 0.97428 0.93008 0.97539 0.0
Tb347 Tb 0.01028 0.02187 0.01255 0.0
N348 N 0.99237 0.98936 0.02666 0.0
C349 C 0.96686 0.94839 0.03853 0.0
C350 C 0.98373 0.98943 0.04793 0.0
C351 C 0.97155 0.96891 0.05454 0.0
H352 H 0.01869 0.01007 0.95521 0.0
H353 H 0.9651 0.96911 0.07162 0.0
H354 H 0.06083 0.06218 0.10076 0.0
H355 H 0.1283 0.09548 0.99 0.0
H356 H 0.98483 0.00533 0.05925 0.0
H357 H 0.95702 0.93259 0.04351 0.0
H358 H 0.10309 0.06088 0.00076 0.0
H359 H 0.00942 0.97605 0.92406 0.0
H360 H 0.95806 0.91263 0.00233 0.0
H361 H 0.9693 0.91468 0.96204 0.0
H362 H 0.06936 0.09691 0.13056 0.0
H363 H 0.9884 0.93816 0.93276 0.0
H364 H 0.13756 0.13253 0.01751 0.0
N365 N 0.07797 0.07893 0.07422 0.0
C366 C 0.09239 0.09867 0.06996 0.0
C367 C 0.07558 0.09776 0.11339 0.0
C368 C 0.09835 0.11891 0.08705 0.0
C369 C 0.0702 0.07808 0.09598 0.0
C370 C 0.08954 0.11831 0.10884 0.0
N371 N 0.09551 0.07867 0.03233 0.0
C372 C 0.10574 0.07719 0.01212 0.0
C373 C 0.11669 0.11851 0.04354 0.0
C374 C 0.10154 0.09847 0.04845 0.0
C375 C 0.12589 0.11751 0.02196 0.0
C376 C 0.12059 0.09667 0.00631 0.0
H377 H 0.09385 0.13346 0.1225 0.0
H378 H 0.11796 0.15465 0.095 0.0
H379 H 0.13391 0.15433 0.0569 0.0
O380 O 0.10308 0.03718 0.03843 0.0
O381 O 0.05491 0.07515 0.03487 0.0
O382 O 0.01968 0.05956 0.01004 0.0
O383 O 0.09887 0.05115 0.07476 0.0
O384 O 0.06811 0.03194 0.00671 0.0
O385 O 0.03416 0.03918 0.99041 0.0
O386 O 0.97837 0.02714 0.02029 0.0
O387 O 0.03234 0.99638 0.01757 0.0
O388 O 0.0596 0.01122 0.05122 0.0
O389 O 0.98447 0.01954 0.98303 0.0
O390 O 0.01457 0.03798 0.05064 0.0
O391 O 0.04886 0.03166 0.0669 0.0
C392 C 0.03618 0.07768 0.02115 0.0
C393 C 0.13482 0.04086 0.0709 0.0
C394 C 0.17059 0.03135 0.06384 0.0
C395 C 0.17887 0.03661 0.08872 0.0
C396 C 0.14315 0.04629 0.09575 0.0
C397 C 0.16515 0.0441 0.1046 0.0
C398 C 0.14858 0.03345 0.05509 0.0
C399 C 0.05489 0.03651 0.98844 0.0
C400 C 0.11208 0.04334 0.06115 0.0
C401 C 0.11322 0.13896 0.08207 0.0
C402 C 0.12232 0.13876 0.06038 0.0
C403 C 0.04654 0.99315 0.03616 0.0
C404 C 0.94667 0.02406 0.98844 0.0
C405 C 0.91553 0.04278 0.99059 0.0
C406 C 0.90313 0.02841 0.96948 0.0
C407 C 0.93445 0.00975 0.96729 0.0
C408 C 0.93705 0.04026 0.00031 0.0
C409 C 0.91255 0.0118 0.95797 0.0
C410 C 0.02815 0.03412 0.06895 0.0
C411 C 0.97007 0.02333 0.99738 0.0
H412 H 0.1959 0.03494 0.09582 0.0
H413 H 0.13272 0.05218 0.10829 0.0
H414 H 0.17155 0.0482 0.12375 0.0
H415 H 0.14202 0.02891 0.03594 0.0
H416 H 0.88622 0.03007 0.96196 0.0
H417 H 0.94188 0.99713 0.95798 0.0
H418 H 0.94671 0.05162 0.01644 0.0
H419 H 0.90301 1.00076 0.94169 0.0
Tb420 Tb 0.26578 0.78845 0.31431 0.0
C421 C 0.31935 0.7407 0.23317 0.0
N422 N 0.32734 0.75754 0.25253 0.0
C423 C 0.35958 0.74117 0.26275 0.0
C424 C 0.33041 0.72269 0.22862 0.0
C425 C 0.34808 0.75872 0.26638 0.0
C426 C 0.35039 0.72274 0.24418 0.0
C427 C 0.29395 0.7272 0.19494 0.0
C428 C 0.30162 0.74301 0.21645 0.0
C429 C 0.30383 0.70835 0.19107 0.0
C430 C 0.32205 0.70609 0.20791 0.0
Tb431 Tb 0.3056 0.78429 0.25731 0.0
N432 N 0.29332 0.76198 0.22036 0.0
C433 C 0.27737 0.73143 0.17753 0.0
C434 C 0.2788 0.7673 0.2025 0.0
C435 C 0.27011 0.75184 0.18112 0.0
H436 H 0.35634 0.77339 0.27997 0.0
H437 H 0.25797 0.75576 0.16738 0.0
H438 H 0.21662 0.80031 0.29425 0.0
H439 H 0.32733 0.82821 0.39564 0.0
H440 H 0.27357 0.78333 0.20473 0.0
H441 H 0.27085 0.71961 0.16085 0.0
H442 H 0.30552 0.7958 0.36519 0.0
H443 H 0.37581 0.74213 0.27398 0.0
H444 H 0.29801 0.69586 0.17479 0.0
H445 H 0.33013 0.69197 0.20429 0.0
H446 H 0.19898 0.83342 0.29837 0.0
H447 H 0.35954 0.70936 0.24121 0.0
H448 H 0.31727 0.86589 0.39751 0.0
N449 N 0.24785 0.81784 0.31758 0.0
C450 C 0.25857 0.8365 0.33425 0.0
C451 C 0.21598 0.83472 0.30822 0.0
C452 C 0.24909 0.85577 0.33744 0.0
C453 C 0.2262 0.81611 0.30561 0.0
C454 C 0.22768 0.85484 0.32384 0.0
N455 N 0.28572 0.81572 0.3466 0.0
C456 C 0.30187 0.81245 0.36433 0.0
C457 C 0.28953 0.85424 0.36721 0.0
C458 C 0.27841 0.83557 0.34897 0.0
C459 C 0.30814 0.85191 0.38336 0.0
C460 C 0.31391 0.83069 0.38231 0.0
H461 H 0.21967 0.86919 0.32594 0.0
H462 H 0.25394 0.88999 0.35723 0.0
H463 H 0.28957 0.88878 0.38316 0.0
O464 O 0.25185 0.78275 0.34579 0.0
O465 O 0.27355 0.81727 0.29501 0.0
O466 O 0.30596 0.80761 0.28909 0.0
O467 O 0.23575 0.76122 0.31222 0.0
O468 O 0.3011 0.78154 0.32482 0.0
O469 O 0.32431 0.78288 0.29365 0.0
O470 O 0.30689 0.8145 0.24206 0.0
O471 O 0.27781 0.75433 0.25768 0.0
O472 O 0.27965 0.7619 0.29769 0.0
O473 O 0.33679 0.80043 0.24605 0.0
O474 O 0.26945 0.78735 0.24694 0.0
O475 O 0.24547 0.78417 0.27749 0.0
C476 C 0.29339 0.82235 0.28771 0.0
C477 C 0.22812 0.74673 0.34876 0.0
C478 C 0.23719 0.72427 0.37999 0.0
C479 C 0.21349 0.7162 0.38081 0.0
C480 C 0.20447 0.7383 0.34949 0.0
C481 C 0.19719 0.72307 0.36546 0.0
C482 C 0.24458 0.73947 0.36388 0.0
C483 C 0.32107 0.78104 0.31638 0.0
C484 C 0.23489 0.76576 0.3351 0.0
C485 C 0.2608 0.87489 0.35468 0.0
C486 C 0.28108 0.87419 0.36943 0.0
C487 C 0.26997 0.74894 0.27742 0.0
C488 C 0.33586 0.8272 0.21824 0.0
C489 C 0.32758 0.84478 0.18263 0.0
C490 C 0.35144 0.85361 0.18307 0.0
C491 C 0.35964 0.83594 0.21835 0.0
C492 C 0.31983 0.83136 0.20008 0.0
C493 C 0.36737 0.849 0.20075 0.0
C494 C 0.24916 0.78592 0.25486 0.0
C495 C 0.32843 0.81719 0.23928 0.0
H496 H 0.20764 0.70467 0.39346 0.0
H497 H 0.19165 0.74419 0.33831 0.0
H498 H 0.17894 0.71697 0.36629 0.0
H499 H 0.26292 0.74627 0.3638 0.0
H500 H 0.35774 0.86381 0.16953 0.0
H501 H 0.37222 0.83324 0.2325 0.0
H502 H 0.30139 0.82495 0.19994 0.0
H503 H 0.38573 0.85585 0.20104 0.0
Tb504 Tb 0.50844 0.02919 0.54192 0.0
C505 C 0.58778 0.07977 0.48905 0.0
N506 N 0.5731 0.0585 0.48188 0.0
C507 C 0.57007 0.06513 0.4407 0.0
C508 C 0.59411 0.09464 0.47214 0.0
C509 C 0.56439 0.05088 0.4581 0.0
C510 C 0.58498 0.08709 0.44772 0.0
C511 C 0.61141 0.1087 0.5216 0.0
C512 C 0.59638 0.08675 0.51356 0.0
C513 C 0.61792 0.12349 0.50472 0.0
C514 C 0.60929 0.11649 0.48009 0.0
Tb515 Tb 0.56713 0.03702 0.51208 0.0
N516 N 0.5892 0.07227 0.52956 0.0
C517 C 0.6194 0.11512 0.54637 0.0
C518 C 0.5975 0.07804 0.55359 0.0
C519 C 0.61249 0.0997 0.5624 0.0
H520 H 0.55351 0.03362 0.45246 0.0
H521 H 0.61891 0.10445 0.58148 0.0
H522 H 0.52656 0.03313 0.60098 0.0
H523 H 0.44427 0.96477 0.47938 0.0
H524 H 0.5927 0.06593 0.56584 0.0
H525 H 0.63102 0.13186 0.55329 0.0
H526 H 0.47317 1.00242 0.49248 0.0
H527 H 0.56315 0.05907 0.42185 0.0
H528 H 0.62956 0.14041 0.51054 0.0
H529 H 0.61444 0.12813 0.46733 0.0
H530 H 0.52045 0.00821 0.63262 0.0
H531 H 0.58944 0.09802 0.43416 0.0
H532 H 0.43616 0.93722 0.50831 0.0
N533 N 0.50473 0.00803 0.57304 0.0
C534 C 0.48902 0.9872 0.56756 0.0
C535 C 0.51172 1.00197 0.61432 0.0
C536 C 0.4845 0.97264 0.58519 0.0
C537 C 0.51552 0.01588 0.59624 0.0
C538 C 0.4963 0.98017 0.60874 0.0
N539 N 0.48228 0.99502 0.52762 0.0
C540 C 0.4702 0.99003 0.50482 0.0
C541 C 0.46061 0.9593 0.53776 0.0
C542 C 0.47712 0.98063 0.5442 0.0
C543 C 0.44899 0.95348 0.51401 0.0
C544 C 0.45364 0.969 0.49755 0.0
H545 H 0.49328 0.96951 0.62283 0.0
H546 H 0.4645 0.93977 0.59212 0.0
H547 H 0.44364 0.92808 0.55058 0.0
O548 O 0.47901 0.04225 0.53061 0.0
O549 O 0.51741 0.99541 0.52894 0.0
O550 O 0.54465 1.00138 0.5025 0.0
O551 O 0.4904 0.04 0.56825 0.0
O552 O 0.50875 0.03978 0.50633 0.0
O553 O 0.53492 0.0232 0.48841 0.0
O554 O 0.59814 0.0295 0.52658 0.0
O555 O 0.55297 0.06824 0.51983 0.0
O556 O 0.53206 0.06469 0.55165 0.0
O557 O 0.58866 0.0276 0.48822 0.0
O558 O 0.56466 0.02155 0.54443 0.0
O559 O 0.5423 0.04146 0.56282 0.0
C560 C 0.5295 0.9874 0.51303 0.0
C561 C 0.4562 0.05414 0.56155 0.0
C562 C 0.42431 0.07317 0.55627 0.0
C563 C 0.42041 0.07003 0.57991 0.0
C564 C 0.45188 0.05157 0.58515 0.0
C565 C 0.43414 0.05943 0.59418 0.0
C566 C 0.44226 0.06492 0.54703 0.0
C567 C 0.51815 0.03363 0.48763 0.0
C568 C 0.47538 0.04546 0.55294 0.0
C569 C 0.46817 0.95123 0.57883 0.0
C570 C 0.45625 0.94458 0.55518 0.0
C571 C 0.54365 0.07759 0.5374 0.0
C572 C 0.6107 1.00229 0.50142 0.0
C573 C 0.64028 0.98076 0.507 0.0
C574 C 0.62464 0.96098 0.49365 0.0
C575 C 0.59566 0.98255 0.48748 0.0
C576 C 0.63317 1.0014 0.51099 0.0
C577 C 0.6025 0.96195 0.48384 0.0
C578 C 0.55605 0.0277 0.56337 0.0
C579 C 0.60344 0.02402 0.50534 0.0
H580 H 0.40642 0.07546 0.58738 0.0
H581 H 0.46216 0.04328 0.59673 0.0
H582 H 0.43091 0.05717 0.61232 0.0
H583 H 0.44558 0.06716 0.5289 0.0
H584 H 0.62991 0.94503 0.48999 0.0
H585 H 0.57884 0.98328 0.47905 0.0
H586 H 0.64517 0.01677 0.52117 0.0
H587 H 0.59077 0.94684 0.47297 0.0
Tb588 Tb 0.32188 0.27775 0.77978 0.0
C589 C 0.2357 0.30216 0.72615 0.0
N590 N 0.249 0.31319 0.74739 0.0
C591 C 0.24831 0.34987 0.73469 0.0
C592 C 0.2291 0.31464 0.70794 0.0
C593 C 0.25385 0.33677 0.75246 0.0
C594 C 0.23634 0.33876 0.71213 0.0
C595 C 0.21145 0.26654 0.70271 0.0
C596 C 0.22698 0.27837 0.72344 0.0
C597 C 0.20558 0.27883 0.68418 0.0
C598 C 0.21457 0.30278 0.68667 0.0
Tb599 Tb 0.25741 0.28915 0.77412 0.0
N600 N 0.23328 0.2669 0.74155 0.0
C601 C 0.20204 0.24278 0.70143 0.0
C602 C 0.22289 0.24411 0.74123 0.0
C603 C 0.20754 0.23159 0.72093 0.0
H604 H 0.26184 0.34573 0.77023 0.0
H605 H 0.19977 0.21339 0.72045 0.0
H606 H 0.31236 0.2213 0.78351 0.0
H607 H 0.38021 0.35162 0.83718 0.0
H608 H 0.22648 0.23564 0.75659 0.0
H609 H 0.19009 0.23305 0.68576 0.0
H610 H 0.35588 0.33063 0.7993 0.0
H611 H 0.25293 0.36853 0.73857 0.0
H612 H 0.19385 0.27002 0.66797 0.0
H613 H 0.2095 0.31208 0.67241 0.0
H614 H 0.31894 0.1972 0.81474 0.0
H615 H 0.23175 0.34897 0.69855 0.0
H616 H 0.38688 0.33084 0.87166 0.0
N617 N 0.32885 0.25312 0.80624 0.0
C618 C 0.34221 0.26317 0.82767 0.0
C619 C 0.32536 0.21578 0.81872 0.0
C620 C 0.34691 0.24997 0.84591 0.0
C621 C 0.3213 0.22962 0.80116 0.0
C622 C 0.33796 0.22601 0.84132 0.0
N623 N 0.34674 0.2988 0.81293 0.0
C624 C 0.35757 0.32162 0.81457 0.0
C625 C 0.36576 0.29793 0.85292 0.0
C626 C 0.35144 0.28681 0.83115 0.0
C627 C 0.37571 0.32164 0.85525 0.0
C628 C 0.37188 0.33346 0.83584 0.0
H629 H 0.34113 0.21524 0.85487 0.0
H630 H 0.36425 0.25121 0.88223 0.0
H631 H 0.38084 0.29324 0.88835 0.0
O632 O 0.35534 0.28802 0.77094 0.0
O633 O 0.30409 0.28006 0.81167 0.0
O634 O 0.28209 0.30645 0.80674 0.0
O635 O 0.3333 0.25438 0.75633 0.0
O636 O 0.32058 0.31255 0.77251 0.0
O637 O 0.28561 0.32115 0.78002 0.0
O638 O 0.23661 0.27715 0.80012 0.0
O639 O 0.26719 0.27011 0.74242 0.0
O640 O 0.30505 0.28838 0.74803 0.0
O641 O 0.22741 0.30062 0.77728 0.0
O642 O 0.26349 0.25796 0.78773 0.0
O643 O 0.29207 0.24782 0.76799 0.0
C644 C 0.2947 0.29632 0.82067 0.0
C645 C 0.37381 0.26006 0.75568 0.0
C646 C 0.40716 0.25768 0.73577 0.0
C647 C 0.41258 0.2424 0.75132 0.0
C648 C 0.37954 0.24503 0.77129 0.0
C649 C 0.39894 0.23628 0.76909 0.0
C650 C 0.3878 0.26659 0.73814 0.0
C651 C 0.30723 0.32696 0.77567 0.0
C652 C 0.35314 0.26893 0.75663 0.0
C653 C 0.36058 0.26104 0.86793 0.0
C654 C 0.37 0.28497 0.87142 0.0
C655 C 0.28681 0.2754 0.73387 0.0
C656 C 0.21401 0.3021 0.81454 0.0
C657 C 0.18382 0.30451 0.83933 0.0
C658 C 0.19418 0.32812 0.84653 0.0
C659 C 0.22442 0.32563 0.82239 0.0
C660 C 0.1939 0.29148 0.82342 0.0
C661 C 0.2145 0.33853 0.8383 0.0
C662 C 0.27326 0.24239 0.77812 0.0
C663 C 0.22194 0.28932 0.79475 0.0
H664 H 0.42732 0.23515 0.74963 0.0
H665 H 0.36898 0.23995 0.78493 0.0
H666 H 0.40328 0.22452 0.78101 0.0
H667 H 0.38328 0.27808 0.72591 0.0
H668 H 0.1866 0.33845 0.85869 0.0
H669 H 0.2398 0.33416 0.81563 0.0
H670 H 0.18565 0.27337 0.81732 0.0
H671 H 0.22239 0.35674 0.84398 0.0
Tb672 Tb 0.04722 1.00389 0.52169 0.0
C673 C 0.02135 0.09213 0.57908 0.0
N674 N 0.00887 0.07717 0.55961 0.0
C675 C 0.97391 0.07706 0.57631 0.0
C676 C 0.01072 0.09934 0.59849 0.0
C677 C 0.98522 0.07051 0.55747 0.0
C678 C 0.98675 0.09121 0.59711 0.0
C679 C 0.05819 0.11742 0.59835 0.0
C680 C 0.0447 0.10118 0.57897 0.0
C681 C 0.04791 0.12393 0.61822 0.0
C682 C 0.02422 0.1149 0.61829 0.0
Tb683 Tb 0.02984 0.06683 0.53074 0.0
N684 N 0.05415 0.09411 0.55969 0.0
C685 C 0.08153 0.12675 0.59701 0.0
C686 C 0.07646 0.10429 0.5575 0.0
C687 C 0.09061 0.12041 0.57633 0.0
H688 H 0.97496 0.06011 0.54118 0.0
H689 H 0.10848 0.12797 0.57487 0.0
H690 H 0.10356 0.01909 0.51596 0.0
H691 H 0.97782 0.93611 0.46891 0.0
H692 H 0.08341 0.09967 0.54143 0.0
H693 H 0.09253 0.13922 0.61158 0.0
H694 H 0.99837 0.96239 0.50567 0.0
H695 H 0.95527 0.0713 0.57469 0.0
H696 H 0.05803 0.13619 0.63344 0.0
H697 H 0.01642 0.12042 0.63351 0.0
H698 H 0.12696 0.016 0.48355 0.0
H699 H 0.97792 0.09635 0.61164 0.0
H700 H 0.9971 0.93321 0.43275 0.0
N701 N 0.07184 0.99986 0.49431 0.0
C702 C 0.06208 0.98596 0.47314 0.0
C703 C 0.10864 0.00768 0.48026 0.0
C704 C 0.07499 0.98316 0.45426 0.0
C705 C 0.09513 0.00972 0.49851 0.0
C706 C 0.09845 0.99466 0.45788 0.0
N707 N 0.02776 0.97647 0.48979 0.0
C708 C 1.00637 0.96239 0.48965 0.0
C709 C 0.02858 0.9584 0.44962 0.0
C710 C 0.03924 0.97378 0.47082 0.0
C711 C 1.00592 0.94527 0.44869 0.0
C712 C 0.99494 0.94695 0.469 0.0
H713 H 0.10899 0.993 0.44383 0.0
H714 H 0.07378 0.96639 0.41786 0.0
H715 H 0.0331 0.94463 0.41383 0.0
O716 O 0.03824 0.97288 0.5362 0.0
O717 O 0.03666 0.01822 0.48867 0.0
O718 O 0.01169 0.03854 0.50224 0.0
O719 O 0.07379 0.99201 0.54047 0.0
O720 O 0.01107 1.00073 0.52782 0.0
O721 O 1.00245 0.0369 0.53576 0.0
O722 O 0.0399 0.09038 0.50558 0.0
O723 O 0.05324 0.06016 0.56104 0.0
O724 O 0.04021 0.02112 0.55533 0.0
O725 O 1.00766 0.08688 0.52011 0.0
O726 O 0.0577 0.0612 0.51124 0.0
O727 O 0.07484 0.03629 0.53048 0.0
C728 C 0.02065 0.0297 0.48449 0.0
C729 C 0.06628 0.95205 0.54623 0.0
C730 C 0.06273 0.91602 0.56378 0.0
C731 C 0.08073 0.91148 0.55173 0.0
C732 C 0.08409 0.94705 0.53437 0.0
C733 C 0.09124 0.92686 0.53716 0.0
C734 C 0.05568 0.9365 0.56086 0.0
C735 C 0.99734 0.01404 0.5341 0.0
C736 C 0.05938 0.97398 0.54538 0.0
C737 C 0.06422 0.96858 0.43267 0.0
C738 C 0.04106 0.95619 0.43037 0.0
C739 C 0.05264 0.04021 0.56862 0.0
C740 C 0.01255 0.11311 0.49108 0.0
C741 C 0.01897 0.14507 0.46746 0.0
C742 C 0.99518 0.14398 0.46475 0.0
C743 C 0.98877 0.11234 0.48778 0.0
C744 C 0.02772 0.12942 0.48052 0.0
C745 C 0.98022 0.12766 0.47473 0.0
C746 C 0.0761 0.0544 0.5191 0.0
C747 C 0.02075 0.09694 0.5059 0.0
H748 H 0.08648 0.89584 0.55319 0.0
H749 H 0.09259 0.95881 0.52318 0.0
H750 H 0.10504 0.92308 0.528 0.0
H751 H 0.04225 0.94069 0.57042 0.0
H752 H 0.98817 0.15588 0.45485 0.0
H753 H 0.97666 0.09991 0.49541 0.0
H754 H 0.04609 0.13031 0.48292 0.0
H755 H 0.96191 0.12697 0.47248 0.0
Tb756 Tb 0.29082 0.81436 0.76525 0.0
C757 C 0.23619 0.72868 0.81565 0.0
N758 N 0.25701 0.74395 0.82401 0.0
C759 C 0.24796 0.7454 0.86445 0.0
C760 C 0.2203 0.72162 0.83144 0.0
C761 C 0.26336 0.75156 0.84831 0.0
C762 C 0.22628 0.73052 0.85599 0.0
C763 C 0.2097 0.70339 0.78211 0.0
C764 C 0.23084 0.71964 0.79118 0.0
C765 C 0.19394 0.69639 0.79785 0.0
C766 C 0.19916 0.70558 0.82239 0.0
Tb767 Tb 0.28045 0.75032 0.79505 0.0
N768 N 0.24615 0.72719 0.77618 0.0
C769 C 0.20493 0.69488 0.75739 0.0
C770 C 0.24163 0.71907 0.75208 0.0
C771 C 0.22091 0.70283 0.74231 0.0
H772 H 0.28053 0.76175 0.85587 0.0
H773 H 0.21729 0.69643 0.72318 0.0
H774 H 0.27576 0.80545 0.70547 0.0
H775 H 0.35515 0.88717 0.8171 0.0
H776 H 0.25399 0.72513 0.74047 0.0
H777 H 0.18885 0.6824 0.74974 0.0
H778 H 0.31675 0.85973 0.80694 0.0
H779 H 0.25306 0.75172 0.88355 0.0
H780 H 0.17757 0.68398 0.79119 0.0
H781 H 0.18679 0.69999 0.83428 0.0
H782 H 0.29537 0.81241 0.66986 0.0
H783 H 0.21452 0.72553 0.86865 0.0
H784 H 0.38259 0.8892 0.78759 0.0
N785 N 0.30587 0.82203 0.7308 0.0
C786 C 0.32795 0.83514 0.73408 0.0
C787 C 0.30479 0.81875 0.68787 0.0
C788 C 0.33981 0.83969 0.71445 0.0
C789 C 0.29374 0.81486 0.70803 0.0
C790 C 0.32811 0.83074 0.69111 0.0
N791 N 0.32398 0.84351 0.77442 0.0
C792 C 0.32927 0.85919 0.79497 0.0
C793 C 0.35911 0.86253 0.76109 0.0
C794 C 0.33748 0.84631 0.75694 0.0
C795 C 0.36614 0.87644 0.78362 0.0
C796 C 0.35074 0.87531 0.80035 0.0
H797 H 0.33657 0.83384 0.67549 0.0
H798 H 0.37202 0.85748 0.70395 0.0
H799 H 0.38894 0.87757 0.74497 0.0
O800 O 0.278 0.8383 0.78693 0.0
O801 O 0.32391 0.8087 0.78344 0.0
O802 O 0.31674 0.76986 0.79172 0.0
O803 O 0.26722 0.83019 0.74845 0.0
O804 O 0.28528 0.79417 0.79282 0.0
O805 O 0.29297 0.77871 0.82401 0.0
O806 O 0.28533 0.71752 0.78302 0.0
O807 O 0.24889 0.76341 0.78218 0.0
O808 O 0.25826 0.78691 0.75264 0.0
O809 O 0.29404 0.73203 0.82043 0.0
O810 O 0.29388 0.75375 0.76127 0.0
O811 O 0.28837 0.784 0.73975 0.0
C812 C 0.33085 0.78997 0.78881 0.0
C813 C 0.26989 0.86791 0.7648 0.0
C814 C 0.25279 0.90044 0.76068 0.0
C815 C 0.27124 0.91087 0.74945 0.0
C816 C 0.28835 0.87865 0.75363 0.0
C817 C 0.28904 0.90007 0.74613 0.0
C818 C 0.25221 0.87901 0.76853 0.0
C819 C 0.29205 0.79743 0.81583 0.0
C820 C 0.26663 0.84354 0.76799 0.0
C821 C 0.3624 0.8541 0.71873 0.0
C822 C 0.37207 0.86551 0.74209 0.0
C823 C 0.24298 0.77583 0.76523 0.0
C824 C 0.31784 0.70961 0.80488 0.0
C825 C 0.34043 0.6812 0.79798 0.0
C826 C 0.36087 0.69872 0.80554 0.0
C827 C 0.3385 0.72677 0.81278 0.0
C828 C 0.31889 0.68677 0.79762 0.0
C829 C 0.35985 0.72131 0.81303 0.0
C830 C 0.29564 0.76531 0.74279 0.0
C831 C 0.29525 0.71542 0.80414 0.0
H832 H 0.27175 0.9273 0.74311 0.0
H833 H 0.30165 0.87002 0.74966 0.0
H834 H 0.30309 0.90802 0.73715 0.0
H835 H 0.23752 0.87055 0.77641 0.0
H836 H 0.37763 0.69478 0.80639 0.0
H837 H 0.33817 0.74441 0.8188 0.0
H838 H 0.30301 0.67338 0.79181 0.0
H839 H 0.37568 0.7346 0.81929 0.0
Tb840 Tb 0.53497 0.05898 0.99386 0.0
C841 C 0.57602 1.00426 0.08335 0.0
N842 N 0.55767 0.99564 0.06559 0.0
C843 C 0.56436 0.95785 0.06477 0.0
C844 C 0.58967 0.98998 0.09228 0.0
C845 C 0.55139 0.97274 0.05647 0.0
C846 C 0.58364 0.96651 0.0827 0.0
C847 C 0.60067 0.03728 0.11035 0.0
C848 C 0.58129 0.02753 0.09234 0.0
C849 C 0.61433 0.02315 0.11937 0.0
C850 C 0.60883 0.99955 0.11037 0.0
Tb851 Tb 0.53747 0.02087 0.05342 0.0
N852 N 0.56785 0.0407 0.08286 0.0
C853 C 0.60598 0.06098 0.11851 0.0
C854 C 0.57338 0.06401 0.09058 0.0
C855 C 0.59231 0.07438 0.10852 0.0
H856 H 0.53646 0.96594 0.04265 0.0
H857 H 0.59648 0.09282 0.11443 0.0
H858 H 0.53103 0.11273 0.01061 0.0
H859 H 0.47975 0.9898 0.9267 0.0
H860 H 0.56392 0.07518 0.08295 0.0
H861 H 0.62076 0.06913 0.13225 0.0
H862 H 0.50969 0.00618 0.96138 0.0
H863 H 0.55948 0.93971 0.05734 0.0
H864 H 0.62928 0.03035 0.13317 0.0
H865 H 0.61957 0.98888 0.11743 0.0
H866 H 0.50644 0.1381 0.99807 0.0
H867 H 0.59369 0.95496 0.08907 0.0
H868 H 0.45623 0.01416 0.90888 0.0
N869 N 0.5133 0.08423 0.98378 0.0
C870 C 0.49642 0.07657 0.96426 0.0
C871 C 0.50334 0.12078 0.98848 0.0
C872 C 0.48209 0.09068 0.95631 0.0
C873 C 0.51704 0.10615 0.99577 0.0
C874 C 0.48577 0.11301 0.96868 0.0
N875 N 0.50577 0.04054 0.96242 0.0
C876 C 0.50099 0.0176 0.95319 0.0
C877 C 0.47445 0.04502 0.93357 0.0
C878 C 0.49274 0.05409 0.95293 0.0
C879 C 0.47015 0.02178 0.9237 0.0
C880 C 0.48339 0.00799 0.93368 0.0
H881 H 0.47511 0.12436 0.96316 0.0
H882 H 0.45311 0.09251 0.93028 0.0
H883 H 0.44636 0.05248 0.91043 0.0
O884 O 0.55646 0.05665 0.96793 0.0
O885 O 0.49985 0.04326 0.99771 0.0
O886 O 0.52152 0.03259 0.02425 0.0
O887 O 0.55523 0.08986 0.98564 0.0
O888 O 0.54376 0.0241 0.98765 0.0
O889 O 0.53655 0.99996 0.01818 0.0
O890 O 0.52044 0.0192 0.08319 0.0
O891 O 0.57016 0.03032 0.0412 0.0
O892 O 0.55991 0.06027 0.02613 0.0
O893 O 0.50859 0.99226 0.05152 0.0
O894 O 0.5288 0.05458 0.05979 0.0
O895 O 0.5341 0.07933 0.02993 0.0
C896 C 0.5005 0.03132 0.0149 0.0
C897 C 0.56153 0.08674 0.94492 0.0
C898 C 0.57199 0.08288 0.90492 0.0
C899 C 0.56232 0.10114 0.89947 0.0
C900 C 0.55135 0.10474 0.93944 0.0
C901 C 0.55176 0.11186 0.91668 0.0
C902 C 0.57157 0.07587 0.92754 0.0
C903 C 0.54235 1.00404 0.99661 0.0
C904 C 0.56281 0.07889 0.96851 0.0
C905 C 0.46429 0.08193 0.93661 0.0
C906 C 0.46048 0.05916 0.92526 0.0
C907 C 0.57417 0.04677 0.02793 0.0
C908 C 0.48736 0.98884 0.08582 0.0
C909 C 0.47042 0.98791 0.12251 0.0
C910 C 0.45189 0.96975 0.11088 0.0
C911 C 0.46888 0.97059 0.07407 0.0
C912 C 0.48796 0.99739 0.11002 0.0
C913 C 0.45116 0.9611 0.08664 0.0
C914 C 0.52894 0.07459 0.05161 0.0
C915 C 0.50555 1.00011 0.07307 0.0
H916 H 0.56304 0.10707 0.8821 0.0
H917 H 0.54339 0.1134 0.95266 0.0
H918 H 0.54418 0.12589 0.91251 0.0
H919 H 0.57984 0.06227 0.93192 0.0
H920 H 0.43825 0.96217 0.12058 0.0
H921 H 0.468 0.96391 0.05524 0.0
H922 H 0.50215 0.01147 0.11937 0.0
H923 H 0.4369 0.94704 0.07761 0.0
Tb924 Tb 0.27267 0.24944 0.25707 0.0
C925 C 0.35752 0.3271 0.31685 0.0
N926 N 0.33634 0.31728 0.32226 0.0
C927 C 0.3527 0.32168 0.3641 0.0
C928 C 0.37723 0.33415 0.33485 0.0
C929 C 0.33361 0.31541 0.34573 0.0
C930 C 0.37466 0.33085 0.3586 0.0
C931 C 0.38026 0.34398 0.2877 0.0
C932 C 0.35904 0.3321 0.29365 0.0
C933 C 0.40012 0.35013 0.30529 0.0
C934 C 0.3986 0.34529 0.32883 0.0
Tb935 Tb 0.30612 0.31016 0.29116 0.0
N936 N 0.33933 0.32662 0.27732 0.0
C937 C 0.38064 0.35028 0.2646 0.0
C938 C 0.33928 0.33463 0.25557 0.0
C939 C 0.35998 0.34585 0.24857 0.0
H940 H 0.31661 0.31041 0.35061 0.0
H941 H 0.35989 0.35155 0.23105 0.0
H942 H 0.26097 0.26083 0.20041 0.0
H943 H 0.21682 0.21459 0.31953 0.0
H944 H 0.32331 0.33255 0.24371 0.0
H945 H 0.3966 0.35941 0.25932 0.0
H946 H 0.25389 0.23193 0.30755 0.0
H947 H 0.35034 0.3201 0.3826 0.0
H948 H 0.41657 0.35932 0.30109 0.0
H949 H 0.4139 0.35086 0.34243 0.0
H950 H 0.22677 0.25433 0.16986 0.0
H951 H 0.38934 0.33623 0.37297 0.0
H952 H 0.1808 0.20615 0.29021 0.0
N953 N 0.24219 0.24873 0.22814 0.0
C954 C 0.22116 0.23779 0.23317 0.0
C955 C 0.22487 0.25001 0.18773 0.0
C956 C 0.20111 0.23293 0.21566 0.0
C957 C 0.24428 0.25436 0.20553 0.0
C958 C 0.20319 0.23928 0.1928 0.0
N959 N 0.23946 0.23546 0.27224 0.0
C960 C 0.23854 0.22944 0.29478 0.0
C961 C 0.1981 0.22017 0.26175 0.0
C962 C 0.21972 0.23108 0.25588 0.0
C963 C 0.1971 0.21442 0.28498 0.0
C964 C 0.21739 0.2192 0.30158 0.0
H965 H 0.18824 0.2356 0.17881 0.0
H966 H 0.16421 0.21742 0.20799 0.0
H967 H 0.16151 0.20656 0.24841 0.0
O968 O 0.26525 0.21333 0.25533 0.0
O969 O 0.25114 0.27397 0.26805 0.0
O970 O 0.27267 0.29541 0.30294 0.0
O971 O 0.27442 0.22964 0.22476 0.0
O972 O 0.29011 0.24778 0.2933 0.0
O973 O 0.29619 0.28424 0.31544 0.0
O974 O 0.29343 0.33726 0.27939 0.0
O975 O 0.32775 0.29244 0.26979 0.0
O976 O 0.31083 0.25367 0.26756 0.0
O977 O 0.31176 0.34073 0.31544 0.0
O978 O 0.28427 0.30599 0.25608 0.0
O979 O 0.29022 0.27391 0.23554 0.0
C980 C 0.25239 0.28696 0.28905 0.0
C981 C 0.28559 0.19527 0.22883 0.0
C982 C 0.30259 0.1643 0.23951 0.0
C983 C 0.31593 0.16712 0.22082 0.0
C984 C 0.29869 0.19772 0.2098 0.0
C985 C 0.31378 0.18367 0.20587 0.0
C986 C 0.28729 0.17814 0.24329 0.0
C987 C 0.29438 0.26177 0.31405 0.0
C988 C 0.27008 0.21033 0.23349 0.0
C989 C 0.17972 0.22148 0.2213 0.0
C990 C 0.1782 0.21522 0.24429 0.0
C991 C 0.32893 0.27072 0.26614 0.0
C992 C 0.28231 0.3603 0.30952 0.0
C993 C 0.25825 0.38683 0.30392 0.0
C994 C 0.25072 0.38364 0.32612 0.0
C995 C 0.27457 0.35664 0.33162 0.0
C996 C 0.2738 0.37506 0.29567 0.0
C997 C 0.25866 0.36825 0.33979 0.0
C998 C 0.2878 0.29495 0.23612 0.0
C999 C 0.29982 0.34993 0.30045 0.0
H1000 H 0.32793 0.1565 0.21781 0.0
H1001 H 0.29739 0.21055 0.19805 0.0
H1002 H 0.32393 0.18574 0.19134 0.0
H1003 H 0.27724 0.17595 0.25795 0.0
H1004 H 0.23897 0.39314 0.33287 0.0
H1005 H 0.28095 0.34512 0.34259 0.0
H1006 H 0.28008 0.37816 0.27878 0.0
H1007 H 0.25282 0.36564 0.35689 0.0
Tb1008 Tb 0.54482 0.49872 0.01414 0.0
C1009 C 0.52053 0.58907 0.07444 0.0
N1010 N 0.50928 0.57391 0.0546 0.0
C1011 C 0.47281 0.57386 0.0679 0.0
C1012 C 0.50838 0.59661 0.09233 0.0
C1013 C 0.48563 0.56687 0.05068 0.0
C1014 C 0.48425 0.58857 0.08897 0.0
C1015 C 0.55658 0.61372 0.09655 0.0
C1016 C 0.54425 0.59767 0.07644 0.0
C1017 C 0.54468 0.62072 0.11482 0.0
C1018 C 0.52063 0.61221 0.11271 0.0
Tb1019 Tb 0.53244 0.56333 0.02842 0.0
N1020 N 0.55522 0.59036 0.05853 0.0
C1021 C 0.58044 0.62239 0.09752 0.0
C1022 C 0.57826 0.59951 0.05882 0.0
C1023 C 0.59128 0.61544 0.07843 0.0
H1024 H 0.47665 0.55549 0.03438 0.0
H1025 H 0.60963 0.62239 0.07878 0.0
H1026 H 0.6019 0.51055 0.01062 0.0
H1027 H 0.47403 0.43596 0.95794 0.0
H1028 H 0.58657 0.59447 0.04402 0.0
H1029 H 0.59056 0.63472 0.11269 0.0
H1030 H 0.49477 0.46076 0.99568 0.0
H1031 H 0.45413 0.56787 0.06493 0.0
H1032 H 0.55386 0.63292 0.13051 0.0
H1033 H 0.51164 0.61804 0.12676 0.0
H1034 H 0.626 0.50761 0.97886 0.0
H1035 H 0.47428 0.59397 0.10229 0.0
H1036 H 0.49428 0.43286 0.92251 0.0
N1037 N 0.57005 0.49522 0.98739 0.0
C1038 C 0.56011 0.48258 0.96551 0.0
C1039 C 0.60743 0.50085 0.97472 0.0
C1040 C 0.57344 0.47921 0.94714 0.0
C1041 C 0.59357 0.50316 0.99258 0.0
C1042 C 0.59727 0.48916 0.95177 0.0
N1043 N 0.52458 0.47464 0.98055 0.0
C1044 C 0.50287 0.46106 0.97974 0.0
C1045 C 0.52617 0.4567 0.9406 0.0
C1046 C 0.53669 0.47166 0.96212 0.0
C1047 C 0.50302 0.44449 0.93876 0.0
C1048 C 0.49147 0.44633 0.95863 0.0
H1049 H 0.60811 0.48704 0.9381 0.0
H1050 H 0.57271 0.46257 0.91082 0.0
H1051 H 0.53144 0.44252 0.90528 0.0
O1052 O 0.53137 0.4723 0.03417 0.0
O1053 O 0.5373 0.51635 0.98306 0.0
O1054 O 0.51391 0.53835 0.99705 0.0
O1055 O 0.56126 0.47181 0.01691 0.0
O1056 O 0.50911 0.50083 0.01601 0.0
O1057 O 0.50953 0.53446 0.04112 0.0
O1058 O 0.54418 0.59428 0.01264 0.0
O1059 O 0.55137 0.55438 0.06048 0.0
O1060 O 0.55324 0.51573 0.05198 0.0
O1061 O 0.50775 0.57712 0.01079 0.0
O1062 O 0.56127 0.55676 0.01072 0.0
O1063 O 0.57458 0.52812 0.02719 0.0
C1064 C 0.52327 0.52988 0.97945 0.0
C1065 C 0.55903 0.45365 0.05181 0.0
C1066 C 0.5585 0.42464 0.07909 0.0
C1067 C 0.58198 0.43483 0.08796 0.0
C1068 C 0.58245 0.46356 0.06115 0.0
C1069 C 0.59376 0.45424 0.07917 0.0
C1070 C 0.54704 0.43431 0.06107 0.0
C1071 C 0.50031 0.51261 0.03201 0.0
C1072 C 0.54767 0.46177 0.03084 0.0
C1073 C 0.56276 0.46526 0.92518 0.0
C1074 C 0.53926 0.45384 0.92202 0.0
C1075 C 0.55557 0.5351 0.06695 0.0
C1076 C 0.51426 0.61162 0.99202 0.0
C1077 C 0.51932 0.64523 0.97024 0.0
C1078 C 0.49518 0.64219 0.96663 0.0
C1079 C 0.4902 0.60947 0.98807 0.0
C1080 C 0.52896 0.62961 0.9828 0.0
C1081 C 0.48083 0.62452 0.97545 0.0
C1082 C 0.57832 0.54864 0.02015 0.0
C1083 C 0.52269 0.59441 0.00544 0.0
H1084 H 0.59116 0.42795 0.10197 0.0
H1085 H 0.59216 0.47831 0.05425 0.0
H1086 H 0.61182 0.46198 0.0862 0.0
H1087 H 0.52905 0.42639 0.05374 0.0
H1088 H 0.48732 0.65365 0.95686 0.0
H1089 H 0.47835 0.59602 0.99476 0.0
H1090 H 0.54752 0.63163 0.98561 0.0
H1091 H 0.46228 0.62251 0.97256 0.0
Tb1092 Tb 0.79113 0.32039 0.26114 0.0
C1093 C 0.75688 0.23619 0.31912 0.0
N1094 N 0.7771 0.25284 0.3221 0.0
C1095 C 0.77713 0.25835 0.36493 0.0
C1096 C 0.74534 0.23103 0.3389 0.0
C1097 C 0.78808 0.26268 0.34483 0.0
C1098 C 0.75539 0.24291 0.36187 0.0
C1099 C 0.72911 0.20395 0.29348 0.0
C1100 C 0.74879 0.22271 0.29663 0.0
C1101 C 0.71674 0.19986 0.31274 0.0
C1102 C 0.72481 0.2134 0.33538 0.0
Tb1103 Tb 0.79206 0.25816 0.28716 0.0
N1104 N 0.7609 0.22725 0.27814 0.0
C1105 C 0.7228 0.18951 0.27121 0.0
C1106 C 0.75603 0.2121 0.25724 0.0
C1107 C 0.73663 0.19333 0.25319 0.0
H1108 H 0.80526 0.27406 0.34762 0.0
H1109 H 0.73259 0.18162 0.23635 0.0
H1110 H 0.79434 0.29727 0.20313 0.0
H1111 H 0.84562 0.3953 0.31886 0.0
H1112 H 0.76755 0.21408 0.24404 0.0
H1113 H 0.70782 0.17491 0.26807 0.0
H1114 H 0.81099 0.36229 0.30662 0.0
H1115 H 0.78556 0.26679 0.38279 0.0
H1116 H 0.70133 0.18581 0.31052 0.0
H1117 H 0.71554 0.20948 0.3503 0.0
H1118 H 0.82343 0.30045 0.1768 0.0
H1119 H 0.74707 0.23945 0.37751 0.0
H1120 H 0.87635 0.40136 0.29334 0.0
N1121 N 0.81621 0.32057 0.23315 0.0
C1122 C 0.83614 0.33776 0.23917 0.0
C1123 C 0.82751 0.31063 0.19456 0.0
C1124 C 0.85293 0.34109 0.22357 0.0
C1125 C 0.81116 0.3083 0.21029 0.0
C1126 C 0.84867 0.32677 0.2014 0.0
N1127 N 0.82298 0.34954 0.27529 0.0
C1128 C 0.82473 0.36463 0.29578 0.0
C1129 C 0.85908 0.37171 0.2666 0.0
C1130 C 0.83926 0.35307 0.26044 0.0
C1131 C 0.86136 0.38687 0.28798 0.0
C1132 C 0.84406 0.38338 0.30256 0.0
H1133 H 0.8611 0.32881 0.18893 0.0
H1134 H 0.88611 0.36183 0.21833 0.0
H1135 H 0.89152 0.38853 0.25605 0.0
O1136 O 0.77736 0.34935 0.27026 0.0
O1137 O 0.82374 0.31693 0.28393 0.0
O1138 O 0.82409 0.27845 0.2768 0.0
O1139 O 0.78056 0.33744 0.23322 0.0
O1140 O 0.77942 0.31535 0.29542 0.0
O1141 O 0.79987 0.29066 0.31088 0.0
O1142 O 0.8041 0.23024 0.27237 0.0
O1143 O 0.75605 0.26113 0.27318 0.0
O1144 O 0.75592 0.29839 0.26321 0.0
O1145 O 0.81602 0.24627 0.30945 0.0
O1146 O 0.79859 0.27208 0.25461 0.0
O1147 O 0.77546 0.29011 0.2352 0.0
C1148 C 0.8351 0.30028 0.28409 0.0
C1149 C 0.76554 0.37124 0.23886 0.0
C1150 C 0.74684 0.40303 0.24478 0.0
C1151 C 0.75016 0.40769 0.22137 0.0
C1152 C 0.76825 0.37605 0.21546 0.0
C1153 C 0.76062 0.39418 0.20684 0.0
C1154 C 0.75475 0.38471 0.25348 0.0
C1155 C 0.78559 0.30402 0.31266 0.0
C1156 C 0.77469 0.35258 0.24783 0.0
C1157 C 0.87303 0.35918 0.23006 0.0
C1158 C 0.87606 0.37448 0.25146 0.0
C1159 C 0.74511 0.27721 0.26676 0.0
C1160 C 0.81492 0.20661 0.30007 0.0
C1161 C 0.82861 0.17138 0.2986 0.0
C1162 C 0.81444 0.16395 0.3157 0.0
C1163 C 0.80075 0.19881 0.31695 0.0
C1164 C 0.82859 0.19271 0.29068 0.0
C1165 C 0.80052 0.17754 0.32466 0.0
C1166 C 0.78204 0.2714 0.23748 0.0
C1167 C 0.8165 0.22954 0.29275 0.0
H1168 H 0.745 0.42203 0.21429 0.0
H1169 H 0.77659 0.36599 0.20389 0.0
H1170 H 0.76303 0.39794 0.18888 0.0
H1171 H 0.75235 0.38078 0.2714 0.0
H1172 H 0.81401 0.14753 0.32199 0.0
H1173 H 0.79014 0.20924 0.32443 0.0
H1174 H 0.83968 0.19879 0.27776 0.0
H1175 H 0.78966 0.17164 0.33778 0.0
Tb1176 Tb 0.03878 0.56256 0.48978 0.0
C1177 C 0.07219 0.50311 0.57786 0.0
N1178 N 0.05702 0.49626 0.55698 0.0
C1179 C 0.07271 0.46343 0.54849 0.0
C1180 C 0.08924 0.49129 0.58415 0.0
C1181 C 0.05629 0.47596 0.543 0.0
C1182 C 0.08962 0.47142 0.56887 0.0
C1183 C 0.08495 0.52931 0.61542 0.0
C1184 C 0.07 0.52168 0.59327 0.0
C1185 C 0.10283 0.51844 0.62126 0.0
C1186 C 0.10494 0.49941 0.60566 0.0
Tb1187 Tb 0.03356 0.52038 0.54781 0.0
N1188 N 0.05281 0.53196 0.5866 0.0
C1189 C 0.08116 0.54731 0.63112 0.0
C1190 C 0.04788 0.54821 0.60267 0.0
C1191 C 0.0622 0.55642 0.62495 0.0
H1192 H 0.04283 0.46907 0.52788 0.0
H1193 H 0.05866 0.56985 0.6373 0.0
H1194 H 0.03218 0.61445 0.50541 0.0
H1195 H 0.98777 0.49109 0.42191 0.0
H1196 H 0.03311 0.55519 0.59834 0.0
H1197 H 0.0923 0.55379 0.64829 0.0
H1198 H 0.02123 0.51109 0.45115 0.0
H1199 H 0.07221 0.44755 0.53707 0.0
H1200 H 0.11477 0.52428 0.63802 0.0
H1201 H 0.11844 0.49081 0.61063 0.0
H1202 H 1.00421 0.63738 0.49472 0.0
H1203 H 0.10236 0.46173 0.57306 0.0
H1204 H 0.95706 0.51059 0.41016 0.0
N1205 N 0.01465 0.58526 0.47948 0.0
C1206 C 0.99635 0.57587 0.46182 0.0
C1207 C 1.00181 0.62011 0.48529 0.0
C1208 C 0.97967 0.5881 0.4555 0.0
C1209 C 0.01764 0.60709 0.49126 0.0
C1210 C 0.9827 0.61056 0.46736 0.0
N1211 N 0.00991 0.54207 0.45865 0.0
C1212 C 0.00814 0.52012 0.44753 0.0
C1213 C 0.97416 0.54243 0.4338 0.0
C1214 C 0.9937 0.55337 0.45126 0.0
C1215 C 0.97185 0.51965 0.42351 0.0
C1216 C 0.98907 0.50857 0.43021 0.0
H1217 H 0.97027 0.62055 0.46303 0.0
H1218 H 0.94716 0.58638 0.43307 0.0
H1219 H 0.94232 0.54632 0.41407 0.0
O1220 O 0.06102 0.5625 0.46458 0.0
O1221 O 1.00581 0.5565 0.50192 0.0
O1222 O 0.01407 0.52545 0.51481 0.0
O1223 O 0.06165 0.59434 0.48676 0.0
O1224 O 0.04852 0.5288 0.48406 0.0
O1225 O 0.03681 0.50285 0.51165 0.0
O1226 O 1.00472 0.51938 0.56524 0.0
O1227 O 0.06956 0.53805 0.54971 0.0
O1228 O 0.05318 0.54901 0.51903 0.0
O1229 O 0.01159 0.48804 0.54891 0.0
O1230 O 0.03257 0.55782 0.5559 0.0
O1231 O 0.04418 0.58266 0.52681 0.0
C1232 C 1.00093 0.53991 0.51452 0.0
C1233 C 0.07121 0.59511 0.44695 0.0
C1234 C 0.08683 0.59379 0.40952 0.0
C1235 C 0.0713 0.60584 0.39995 0.0
C1236 C 0.05556 0.60721 0.43764 0.0
C1237 C 0.0559 0.61284 0.41421 0.0
C1238 C 0.08697 0.58894 0.433 0.0
C1239 C 0.04519 0.50805 0.49151 0.0
C1240 C 0.06954 0.58467 0.4689 0.0
C1241 C 0.96026 0.57732 0.4381 0.0
C1242 C 0.95748 0.55451 0.42732 0.0
C1243 C 0.07246 0.5504 0.53269 0.0
C1244 C 0.9911 0.48532 0.58181 0.0
C1245 C 0.97822 0.48674 0.62094 0.0
C1246 C 0.97161 0.4624 0.6175 0.0
C1247 C 0.98469 0.4611 0.5788 0.0
C1248 C 0.98819 0.49806 0.60308 0.0
C1249 C 0.97513 0.44972 0.59669 0.0
C1250 C 0.03799 0.57857 0.54832 0.0
C1251 C 0.99834 0.49694 0.56162 0.0
H1252 H 0.07116 0.60981 0.3817 0.0
H1253 H 0.04286 0.6117 0.44806 0.0
H1254 H 0.04387 0.62214 0.40691 0.0
H1255 H 0.09866 0.57904 0.44002 0.0
H1256 H 0.96321 0.45306 0.63061 0.0
H1257 H 0.98654 0.45098 0.56234 0.0
H1258 H 0.99332 0.51677 0.60559 0.0
H1259 H 0.96991 0.43104 0.59416 0.0
Tb1260 Tb 0.82082 0.77325 0.282 0.0
C1261 C 0.73759 0.80375 0.2264 0.0
N1262 N 0.7507 0.81445 0.24782 0.0
C1263 C 0.75116 0.85147 0.2357 0.0
C1264 C 0.73106 0.81661 0.20857 0.0
C1265 C 0.75724 0.83801 0.25286 0.0
C1266 C 0.73814 0.84075 0.21341 0.0
C1267 C 0.71685 0.76808 0.20053 0.0
C1268 C 0.73057 0.77975 0.22241 0.0
C1269 C 0.71054 0.78083 0.1826 0.0
C1270 C 0.71762 0.80502 0.18661 0.0
Tb1271 Tb 0.75938 0.79038 0.27398 0.0
N1272 N 0.73756 0.76787 0.23992 0.0
C1273 C 0.70973 0.74395 0.19741 0.0
C1274 C 0.72946 0.74447 0.23752 0.0
C1275 C 0.71582 0.73214 0.21612 0.0
H1276 H 0.76688 0.84644 0.27024 0.0
H1277 H 0.70975 0.71354 0.2142 0.0
H1278 H 0.80785 0.71905 0.29385 0.0
H1279 H 0.88348 0.8491 0.3297 0.0
H1280 H 0.73294 0.73519 0.25208 0.0
H1281 H 0.69913 0.73433 0.18087 0.0
H1282 H 0.85711 0.82464 0.29417 0.0
H1283 H 0.75647 0.87012 0.23969 0.0
H1284 H 0.70006 0.77216 0.16562 0.0
H1285 H 0.71248 0.81461 0.17265 0.0
H1286 H 0.81454 0.69859 0.32833 0.0
H1287 H 0.73346 0.85125 0.20017 0.0
H1288 H 0.89014 0.83295 0.36738 0.0
N1289 N 0.82686 0.75199 0.3123 0.0
C1290 C 0.84131 0.76369 0.33251 0.0
C1291 C 0.82196 0.71698 0.32988 0.0
C1292 C 0.84626 0.75259 0.35249 0.0
C1293 C 0.81773 0.72875 0.31049 0.0
C1294 C 0.83613 0.72898 0.35108 0.0
N1295 N 0.84606 0.79682 0.31319 0.0
C1296 C 0.85849 0.81831 0.31122 0.0
C1297 C 0.86686 0.79962 0.35326 0.0
C1298 C 0.85118 0.78693 0.333 0.0
C1299 C 0.8779 0.82257 0.35225 0.0
C1300 C 0.87405 0.8318 0.33096 0.0
H1301 H 0.83949 0.71979 0.36603 0.0
H1302 H 0.86519 0.75716 0.38866 0.0
H1303 H 0.88346 0.79834 0.38924 0.0
O1304 O 0.84934 0.78319 0.26258 0.0
O1305 O 0.80398 0.77958 0.31388 0.0
O1306 O 0.78298 0.80666 0.30756 0.0
O1307 O 0.84037 0.74968 0.27469 0.0
O1308 O 0.81939 0.8058 0.26785 0.0
O1309 O 0.79001 0.81947 0.28332 0.0
O1310 O 0.73359 0.7763 0.29448 0.0
O1311 O 0.77504 0.78365 0.24081 0.0
O1312 O 0.79684 0.75783 0.24908 0.0
O1313 O 0.73313 0.80724 0.27931 0.0
O1314 O 0.76114 0.75809 0.28819 0.0
O1315 O 0.78985 0.74488 0.27161 0.0
C1316 C 0.79414 0.79577 0.32206 0.0
C1317 C 0.87331 0.75551 0.25357 0.0
C1318 C 0.90647 0.76083 0.23143 0.0
C1319 C 0.9088 0.73876 0.23554 0.0
C1320 C 0.87611 0.73345 0.25695 0.0
C1321 C 0.89371 0.72524 0.24806 0.0
C1322 C 0.88863 0.76928 0.24076 0.0
C1323 C 0.80883 0.82236 0.27302 0.0
C1324 C 0.85419 0.76326 0.26363 0.0
C1325 C 0.86122 0.76535 0.37309 0.0
C1326 C 0.87155 0.78882 0.37345 0.0
C1327 C 0.78561 0.76772 0.23374 0.0
C1328 C 0.71571 0.80329 0.31432 0.0
C1329 C 0.68539 0.80423 0.33964 0.0
C1330 C 0.69777 0.82653 0.35059 0.0
C1331 C 0.72787 0.82541 0.32599 0.0
C1332 C 0.69459 0.79254 0.32153 0.0
C1333 C 0.71877 0.83698 0.34378 0.0
C1334 C 0.77105 0.74143 0.28183 0.0
C1335 C 0.72319 0.7929 0.29256 0.0
H1336 H 0.92264 0.73197 0.22943 0.0
H1337 H 0.86473 0.72241 0.26665 0.0
H1338 H 0.89576 0.70831 0.25102 0.0
H1339 H 0.88656 0.78624 0.23788 0.0
H1340 H 0.69113 0.83595 0.36447 0.0
H1341 H 0.744 0.83411 0.3207 0.0
H1342 H 0.68487 0.77565 0.31236 0.0
H1343 H 0.72779 0.85436 0.35201 0.0
Tb1344 Tb 0.76737 0.28837 0.81505 0.0
C1345 C 0.8163 0.24811 0.72371 0.0
N1346 N 0.82558 0.2642 0.74331 0.0
C1347 C 0.85822 0.24778 0.74962 0.0
C1348 C 0.82719 0.2306 0.71662 0.0
C1349 C 0.84653 0.26464 0.75598 0.0
C1350 C 0.84836 0.23047 0.73002 0.0
C1351 C 0.78657 0.23446 0.68893 0.0
C1352 C 0.79641 0.25003 0.71024 0.0
C1353 C 0.79643 0.21604 0.68243 0.0
C1354 C 0.81681 0.21417 0.69622 0.0
Tb1355 Tb 0.80465 0.28982 0.75414 0.0
N1356 N 0.78791 0.26838 0.71698 0.0
C1357 C 0.76785 0.23853 0.67428 0.0
C1358 C 0.77145 0.27385 0.70121 0.0
C1359 C 0.76065 0.25866 0.68014 0.0
H1360 H 0.85413 0.27791 0.77103 0.0
H1361 H 0.74695 0.26262 0.66833 0.0
H1362 H 0.71586 0.29742 0.79616 0.0
H1363 H 0.83683 0.33644 0.88694 0.0
H1364 H 0.76626 0.28979 0.70485 0.0
H1365 H 0.75965 0.22691 0.65784 0.0
H1366 H 0.81745 0.30429 0.85595 0.0
H1367 H 0.87477 0.24813 0.75987 0.0
H1368 H 0.78895 0.20369 0.66631 0.0
H1369 H 0.82469 0.20035 0.69064 0.0
H1370 H 0.6938 0.32595 0.80599 0.0
H1371 H 0.85739 0.21739 0.72513 0.0
H1372 H 0.8174 0.36715 0.89821 0.0
N1373 N 0.7452 0.31396 0.82273 0.0
C1374 C 0.75409 0.33131 0.84159 0.0
C1375 C 0.71081 0.32774 0.81603 0.0
C1376 C 0.74196 0.34804 0.84779 0.0
C1377 C 0.72358 0.31171 0.81032 0.0
C1378 C 0.72006 0.34604 0.83476 0.0
N1379 N 0.78785 0.3172 0.84611 0.0
C1380 C 0.80899 0.31789 0.85886 0.0
C1381 C 0.7866 0.35173 0.87212 0.0
C1382 C 0.77626 0.33317 0.85344 0.0
C1383 C 0.80884 0.35315 0.88384 0.0
C1384 C 0.81994 0.336 0.87736 0.0
H1385 H 0.71018 0.35854 0.83898 0.0
H1386 H 0.74317 0.37949 0.87136 0.0
H1387 H 0.78223 0.38268 0.8927 0.0
O1388 O 0.76692 0.27379 0.84686 0.0
O1389 O 0.77536 0.32252 0.80536 0.0
O1390 O 0.78951 0.30188 0.78183 0.0
O1391 O 0.73551 0.269 0.82207 0.0
O1392 O 0.80301 0.28134 0.81954 0.0
O1393 O 0.82514 0.29814 0.79119 0.0
O1394 O 0.8051 0.31821 0.73621 0.0
O1395 O 0.80054 0.25861 0.76996 0.0
O1396 O 0.76721 0.25971 0.78613 0.0
O1397 O 0.83684 0.31269 0.7532 0.0
O1398 O 0.76679 0.28775 0.74651 0.0
O1399 O 0.74492 0.28288 0.77888 0.0
C1400 C 0.78645 0.32207 0.78782 0.0
C1401 C 0.73651 0.2419 0.84956 0.0
C1402 C 0.73848 0.21834 0.8815 0.0
C1403 C 0.71812 0.20244 0.8698 0.0
C1404 C 0.71581 0.22632 0.83809 0.0
C1405 C 0.70686 0.20645 0.84805 0.0
C1406 C 0.74778 0.23755 0.87095 0.0
C1407 C 0.82322 0.28887 0.81156 0.0
C1408 C 0.74476 0.26467 0.84243 0.0
C1409 C 0.75222 0.36646 0.86637 0.0
C1410 C 0.77448 0.3683 0.87848 0.0
C1411 C 0.78375 0.24934 0.78141 0.0
C1412 C 0.83749 0.32913 0.7171 0.0
C1413 C 0.83243 0.33691 0.67592 0.0
C1414 C 0.85562 0.33723 0.67456 0.0
C1415 C 0.86079 0.32954 0.71579 0.0
C1416 C 0.82351 0.33313 0.69709 0.0
C1417 C 0.86978 0.33359 0.69453 0.0
C1418 C 0.74706 0.28491 0.7558 0.0
C1419 C 0.82751 0.32475 0.73908 0.0
H1420 H 0.71066 0.18742 0.87775 0.0
H1421 H 0.70637 0.22966 0.82182 0.0
H1422 H 0.69094 0.19442 0.83917 0.0
H1423 H 0.76347 0.24985 0.88021 0.0
H1424 H 0.86269 0.3404 0.65815 0.0
H1425 H 0.872 0.32672 0.73111 0.0
H1426 H 0.80557 0.3333 0.6978 0.0
H1427 H 0.88772 0.3339 0.69355 0.0
Tb1428 Tb 0.77208 0.75043 0.75758 0.0
C1429 C 0.85697 0.82816 0.81523 0.0
N1430 N 0.83608 0.8173 0.82063 0.0
C1431 C 0.85314 0.8198 0.86193 0.0
C1432 C 0.87678 0.83526 0.83311 0.0
C1433 C 0.83392 0.81335 0.84372 0.0
C1434 C 0.87466 0.8308 0.85663 0.0
C1435 C 0.87967 0.84438 0.78569 0.0
C1436 C 0.85842 0.83271 0.79177 0.0
C1437 C 0.89937 0.85148 0.80347 0.0
C1438 C 0.89793 0.84694 0.82711 0.0
Tb1439 Tb 0.8058 0.81189 0.78999 0.0
N1440 N 0.83902 0.82545 0.77486 0.0
C1441 C 0.88051 0.8485 0.76188 0.0
C1442 C 0.83971 0.82996 0.75178 0.0
C1443 C 0.86046 0.84115 0.74484 0.0
H1444 H 0.81732 0.80652 0.84862 0.0
H1445 H 0.86086 0.84452 0.72644 0.0
H1446 H 0.76199 0.75321 0.69846 0.0
H1447 H 0.71509 0.71651 0.81907 0.0
H1448 H 0.82435 0.82564 0.73878 0.0
H1449 H 0.8965 0.8574 0.75649 0.0
H1450 H 0.75234 0.73253 0.80678 0.0
H1451 H 0.8512 0.81682 0.88021 0.0
H1452 H 0.91583 0.8605 0.79913 0.0
H1453 H 0.91327 0.85264 0.84065 0.0
H1454 H 0.72845 0.74507 0.6665 0.0
H1455 H 0.88943 0.83612 0.8709 0.0
H1456 H 0.67915 0.70844 0.78968 0.0
N1457 N 0.74213 0.74515 0.72644 0.0
C1458 C 0.72071 0.736 0.73169 0.0
C1459 C 0.72596 0.74281 0.68483 0.0
C1460 C 0.70103 0.73 0.71363 0.0
C1461 C 0.74498 0.74818 0.70323 0.0
C1462 C 0.70387 0.73376 0.69005 0.0
N1463 N 0.73811 0.73721 0.77187 0.0
C1464 C 0.73699 0.73103 0.79433 0.0
C1465 C 0.69685 0.72139 0.76097 0.0
C1466 C 0.71864 0.73176 0.75508 0.0
C1467 C 0.69554 0.71649 0.78447 0.0
C1468 C 0.71575 0.72116 0.80115 0.0
H1469 H 0.68921 0.72922 0.67566 0.0
H1470 H 0.66403 0.71501 0.70583 0.0
H1471 H 0.66037 0.70748 0.74727 0.0
O1472 O 0.77708 0.71925 0.76768 0.0
O1473 O 0.74974 0.77459 0.76514 0.0
O1474 O 0.76923 0.80153 0.79803 0.0
O1475 O 0.76549 0.72167 0.73071 0.0
O1476 O 0.78868 0.75297 0.79593 0.0
O1477 O 0.78917 0.78953 0.81311 0.0
O1478 O 0.80084 0.84295 0.77936 0.0
O1479 O 0.82928 0.78916 0.77959 0.0
O1480 O 0.80811 0.75981 0.74954 0.0
O1481 O 0.81213 0.84073 0.81658 0.0
O1482 O 0.78461 0.80809 0.75484 0.0
O1483 O 0.78757 0.77445 0.73398 0.0
C1484 C 0.74964 0.78999 0.78381 0.0
C1485 C 0.78873 0.69589 0.73769 0.0
C1486 C 0.81188 0.66917 0.74703 0.0
C1487 C 0.81864 0.66895 0.72409 0.0
C1488 C 0.79551 0.69577 0.71468 0.0
C1489 C 0.81054 0.68239 0.70801 0.0
C1490 C 0.79696 0.68256 0.75362 0.0
C1491 C 0.78845 0.76794 0.81491 0.0
C1492 C 0.7724 0.70884 0.74545 0.0
C1493 C 0.67929 0.71989 0.7195 0.0
C1494 C 0.67721 0.71561 0.7431 0.0
C1495 C 0.82822 0.77211 0.76197 0.0
C1496 C 0.78639 0.8639 0.80897 0.0
C1497 C 0.76236 0.8902 0.80133 0.0
C1498 C 0.75309 0.88652 0.82259 0.0
C1499 C 0.77673 0.85978 0.83007 0.0
C1500 C 0.77888 0.87888 0.79457 0.0
C1501 C 0.76012 0.87109 0.83679 0.0
C1502 C 0.78545 0.79574 0.73452 0.0
C1503 C 0.80442 0.85306 0.80167 0.0
H1504 H 0.83 0.65836 0.71863 0.0
H1505 H 0.78925 0.70591 0.7019 0.0
H1506 H 0.81574 0.68226 0.69031 0.0
H1507 H 0.79112 0.68202 0.77106 0.0
H1508 H 0.74056 0.89561 0.82816 0.0
H1509 H 0.78207 0.84802 0.84145 0.0
H1510 H 0.78638 0.88227 0.77838 0.0
H1511 H 0.7529 0.86811 0.85313 0.0
Tb1512 Tb 0.56987 0.54493 0.54641 0.0
C1513 C 0.49461 0.46691 0.48559 0.0
N1514 N 0.50582 0.48764 0.48014 0.0
C1515 C 0.50628 0.47009 0.43993 0.0
C1516 C 0.4889 0.44687 0.46828 0.0
C1517 C 0.51157 0.48953 0.45763 0.0
C1518 C 0.49488 0.44868 0.44524 0.0
C1519 C 0.4772 0.44456 0.51485 0.0
C1520 C 0.48876 0.46581 0.50867 0.0
C1521 C 0.47145 0.4246 0.49759 0.0
C1522 C 0.4772 0.42576 0.47437 0.0
Tb1523 Tb 0.50933 0.51819 0.50929 0.0
N1524 N 0.49419 0.48557 0.52489 0.0
C1525 C 0.47132 0.44408 0.53805 0.0
C1526 C 0.4871 0.48533 0.54695 0.0
C1527 C 0.47618 0.46458 0.55411 0.0
H1528 H 0.51916 0.50613 0.45281 0.0
H1529 H 0.47084 0.46455 0.57175 0.0
H1530 H 0.55944 0.55732 0.60275 0.0
H1531 H 0.62633 0.59489 0.49391 0.0
H1532 H 0.48853 0.50101 0.55867 0.0
H1533 H 0.46244 0.4281 0.54349 0.0
H1534 H 0.6025 0.55947 0.50449 0.0
H1535 H 0.51057 0.47172 0.42203 0.0
H1536 H 0.46236 0.40818 0.50196 0.0
H1537 H 0.47248 0.41023 0.46122 0.0
H1538 H 0.56599 0.59183 0.63296 0.0
H1539 H 0.49058 0.43371 0.43138 0.0
H1540 H 0.63211 0.63217 0.52026 0.0
N1541 N 0.57468 0.57561 0.57622 0.0
C1542 C 0.58759 0.59608 0.57186 0.0
C1543 C 0.5718 0.59335 0.61567 0.0
C1544 C 0.59252 0.61617 0.58904 0.0
C1545 C 0.56751 0.57385 0.59816 0.0
C1546 C 0.58414 0.61466 0.61101 0.0
N1547 N 0.59191 0.57676 0.53451 0.0
C1548 C 0.60353 0.57574 0.51526 0.0
C1549 C 0.6108 0.61728 0.54556 0.0
C1550 C 0.59649 0.59667 0.55031 0.0
C1551 C 0.62095 0.61673 0.52454 0.0
C1552 C 0.61765 0.59576 0.50957 0.0
H1553 H 0.58765 0.62968 0.62473 0.0
H1554 H 0.61001 0.65256 0.59696 0.0
H1555 H 0.62608 0.6535 0.55893 0.0
O1556 O 0.59923 0.53306 0.54035 0.0
O1557 O 0.55079 0.57166 0.53678 0.0
O1558 O 0.51993 0.55581 0.50596 0.0
O1559 O 0.59526 0.54771 0.5765 0.0
O1560 O 0.56751 0.53061 0.50776 0.0
O1561 O 0.53366 0.53585 0.48819 0.0
O1562 O 0.47554 0.51865 0.51458 0.0
O1563 O 0.53343 0.49473 0.51575 0.0
O1564 O 0.55439 0.50911 0.55299 0.0
O1565 O 0.48458 0.51576 0.47887 0.0
O1566 O 0.51091 0.53745 0.54541 0.0
O1567 O 0.54263 0.52974 0.56596 0.0
C1568 C 0.53427 0.57401 0.51992 0.0
C1569 C 0.63056 0.53579 0.57285 0.0
C1570 C 0.66682 0.52747 0.56583 0.0
C1571 C 0.6733 0.5283 0.59071 0.0
C1572 C 0.63718 0.53711 0.59782 0.0
C1573 C 0.65855 0.53336 0.60669 0.0
C1574 C 0.64557 0.5313 0.55699 0.0
C1575 C 0.55515 0.53475 0.48849 0.0
C1576 C 0.60817 0.53916 0.56308 0.0
C1577 C 0.60608 0.63694 0.58399 0.0
C1578 C 0.6152 0.63749 0.56231 0.0
C1579 C 0.54477 0.49121 0.53618 0.0
C1580 C 0.45776 0.53762 0.48642 0.0
C1581 C 0.43341 0.5626 0.49794 0.0
C1582 C 0.43474 0.5718 0.47629 0.0
C1583 C 0.45926 0.54702 0.46476 0.0
C1584 C 0.44487 0.54565 0.50297 0.0
C1585 C 0.44779 0.56408 0.4598 0.0
C1586 C 0.52322 0.53597 0.56577 0.0
C1587 C 0.46896 0.51913 0.49183 0.0
H1588 H 0.68964 0.52495 0.59767 0.0
H1589 H 0.6258 0.54077 0.6104 0.0
H1590 H 0.66355 0.53413 0.6259 0.0
H1591 H 0.64056 0.53019 0.53767 0.0
H1592 H 0.42532 0.58453 0.47201 0.0
H1593 H 0.46904 0.54105 0.45156 0.0
H1594 H 0.44302 0.53817 0.51946 0.0
H1595 H 0.4487 0.57103 0.44298 0.0
Tb1596 Tb 1.0061 0.5307 0.04264 0.0
C1597 C 0.08739 0.58171 0.98669 0.0
N1598 N 0.07296 0.56011 0.98029 0.0
C1599 C 0.06652 0.56713 0.93924 0.0
C1600 C 0.09115 0.59708 0.96964 0.0
C1601 C 0.06357 0.55231 0.95661 0.0
C1602 C 0.08009 0.58968 0.94584 0.0
C1603 C 0.11503 0.61007 0.01711 0.0
C1604 C 0.09935 0.58826 0.01022 0.0
C1605 C 0.11819 0.62556 0.0003 0.0
C1606 C 0.10627 0.6191 0.97667 0.0
Tb1607 Tb 0.07013 0.53895 0.01155 0.0
N1608 N 0.0956 0.57316 0.02639 0.0
C1609 C 0.1274 0.61549 0.04059 0.0
C1610 C 0.10882 0.57763 0.04862 0.0
C1611 C 0.12455 0.59903 0.05628 0.0
H1612 H 0.05411 0.5346 0.95061 0.0
H1613 H 0.13473 0.60267 0.0741 0.0
H1614 H 0.01271 0.53726 0.1037 0.0
H1615 H 0.93798 0.47094 0.97938 0.0
H1616 H 0.10769 0.56454 0.06013 0.0
H1617 H 0.13969 0.63204 0.04653 0.0
H1618 H 0.96591 0.50832 0.99472 0.0
H1619 H 0.05865 0.56099 0.92065 0.0
H1620 H 0.1301 0.64244 0.00528 0.0
H1621 H 0.10925 0.63112 0.9638 0.0
H1622 H 1.00339 0.51226 0.13464 0.0
H1623 H 0.08253 0.60099 0.93223 0.0
H1624 H 0.9315 0.44061 0.00577 0.0
N1625 N 0.99691 0.5107 0.07403 0.0
C1626 C 0.98271 0.48917 0.06729 0.0
C1627 C 0.99776 0.50542 0.11572 0.0
C1628 C 0.97657 0.47443 0.08443 0.0
C1629 C 1.00318 0.51947 0.09806 0.0
C1630 C 0.98486 0.48262 0.10885 0.0
N1631 N 0.97739 0.49821 0.02788 0.0
C1632 C 0.96427 0.49473 0.00568 0.0
C1633 C 0.95609 0.46142 0.03591 0.0
C1634 C 0.97247 0.48276 0.04341 0.0
C1635 C 0.94429 0.45676 0.01223 0.0
C1636 C 0.94796 0.47378 0.99725 0.0
H1637 H 0.98051 0.47186 0.12259 0.0
H1638 H 0.95685 0.44077 0.08965 0.0
H1639 H 0.93897 0.42935 0.04706 0.0
O1640 O 0.97875 0.54282 0.02568 0.0
O1641 O 0.01378 0.49712 0.026 0.0
O1642 O 0.04951 0.5023 0.00998 0.0
O1643 O 0.98982 0.55048 0.06419 0.0
O1644 O 0.01979 0.54137 0.01022 0.0
O1645 O 0.03971 0.52484 0.98519 0.0
O1646 O 0.09606 0.52571 0.02951 0.0
O1647 O 0.06101 0.57105 0.02786 0.0
O1648 O 0.02946 0.56688 0.04999 0.0
O1649 O 0.09484 0.5301 0.99198 0.0
O1650 O 0.04995 0.53234 0.03881 0.0
O1651 O 0.03484 0.53356 0.07094 0.0
C1652 C 0.03005 0.48903 0.01559 0.0
C1653 C 0.95127 0.54997 0.05061 0.0
C1654 C 0.91876 0.56739 0.05288 0.0
C1655 C 0.90865 0.55012 0.0658 0.0
C1656 C 0.94086 0.53255 0.06321 0.0
C1657 C 0.91956 0.53264 0.07069 0.0
C1658 C 0.93997 0.56712 0.04508 0.0
C1659 C 0.01987 0.52749 0.9906 0.0
C1660 C 0.97517 0.55263 0.04616 0.0
C1661 C 0.96147 0.45247 0.07679 0.0
C1662 C 0.95126 0.44597 0.05255 0.0
C1663 C 0.04727 0.57965 0.04144 0.0
C1664 C 0.1094 0.4994 0.00345 0.0
C1665 C 0.13609 0.47456 0.00555 0.0
C1666 C 0.12156 0.45886 0.9865 0.0
C1667 C 0.09488 0.48334 0.98461 0.0
C1668 C 0.12985 0.49473 0.01421 0.0
C1669 C 0.10091 0.46314 0.97628 0.0
C1670 C 0.05315 0.5328 0.06174 0.0
C1671 C 0.10482 0.52213 0.00983 0.0
H1672 H 0.89238 0.55027 0.07217 0.0
H1673 H 0.94951 0.51939 0.06793 0.0
H1674 H 0.91174 0.51943 0.08077 0.0
H1675 H 0.94818 0.58088 0.03579 0.0
H1676 H 0.12624 0.4433 0.97956 0.0
H1677 H 0.07929 0.48681 0.97576 0.0
H1678 H 0.14132 0.50716 0.02853 0.0
H1679 H 0.0898 0.45102 0.96154 0.0
H1680 H 0.97851 0.18073 0.97361 0.0
H1681 H 0.04472 0.22867 0.00125 0.0
H1682 H 0.05983 0.19665 0.01521 0.0
H1683 H 0.97752 0.14247 0.01956 0.0
H1684 H 0.96566 0.11609 0.99883 0.0
H1685 H 0.95944 0.14269 0.99167 0.0
H1686 H 0.9752 0.13724 0.95136 0.0
H1687 H 0.98145 0.11063 0.95849 0.0
H1688 H 1.00406 0.13328 0.95164 0.0
H1689 H 0.06784 0.15871 0.02811 0.0
H1690 H 0.06888 0.11948 0.03528 0.0
H1691 H 0.99911 0.09326 0.99673 0.0
C1692 C 0.99615 0.18456 0.98277 0.0
C1693 C 0.01019 0.20792 0.98657 0.0
C1694 C 0.03335 0.21146 0.99816 0.0
C1695 C 0.04215 0.19316 0.00623 0.0
C1696 C 0.028 0.17058 0.00233 0.0
C1697 C 1.00553 0.1661 0.99049 0.0
C1698 C 0.9945 0.13988 0.98753 0.0
C1699 C 0.973 0.135 0.00015 0.0
C1700 C 0.98843 0.12965 0.96066 0.0
C1701 C 0.0139 0.13045 0.00011 0.0
C1702 C 0.03303 0.14861 0.00855 0.0
C1703 C 0.05289 0.14452 0.02123 0.0
C1704 C 0.05338 0.12176 0.02528 0.0
C1705 C 0.03439 0.10232 0.01665 0.0
C1706 C 0.01425 0.10719 0.00372 0.0
H1707 H 0.1386 0.82119 0.18281 0.0
H1708 H 0.14393 0.77141 0.12315 0.0
H1709 H 0.17489 0.76055 0.14837 0.0
H1710 H 0.2005 0.84046 0.20366 0.0
H1711 H 0.19838 0.844 0.23539 0.0
H1712 H 0.17508 0.84709 0.21368 0.0
H1713 H 0.14641 0.81593 0.23043 0.0
H1714 H 0.16971 0.8127 0.2521 0.0
H1715 H 0.1521 0.78792 0.23175 0.0
H1716 H 0.20499 0.75404 0.17951 0.0
H1717 H 0.23538 0.75543 0.2136 0.0
H1718 H 0.21554 0.81189 0.25322 0.0
C1719 C 0.14622 0.80792 0.17517 0.0
C1720 C 0.13859 0.79716 0.15071 0.0
C1721 C 0.14937 0.78008 0.14156 0.0
C1722 C 0.16698 0.77363 0.15586 0.0
C1723 C 0.17429 0.78457 0.17958 0.0
C1724 C 0.16455 0.80157 0.18925 0.0
C1725 C 0.17705 0.81134 0.21499 0.0
C1726 C 0.18843 0.83727 0.21704 0.0
C1727 C 0.16031 0.8067 0.2334 0.0
C1728 C 0.19533 0.79739 0.21793 0.0
C1729 C 0.19296 0.78175 0.19733 0.0
C1730 C 0.20726 0.76654 0.19554 0.0
C1731 C 0.22477 0.76765 0.21492 0.0
C1732 C 0.22859 0.78418 0.23589 0.0
C1733 C 0.21324 0.79901 0.23753 0.0
H1734 H 0.49546 0.84552 0.51308 0.0
H1735 H 0.53505 0.84223 0.45396 0.0
H1736 H 0.54285 0.88449 0.4561 0.0
H1737 H 0.47039 0.89241 0.49557 0.0
H1738 H 0.47221 0.90663 0.52585 0.0
H1739 H 0.46925 0.8759 0.52032 0.0
H1740 H 0.50626 0.88038 0.55088 0.0
H1741 H 0.50912 0.91108 0.5566 0.0
H1742 H 0.53273 0.9002 0.54728 0.0
H1743 H 0.5431 0.9268 0.46109 0.0
H1744 H 0.54168 0.96678 0.47279 0.0
H1745 H 0.5074 0.94714 0.53322 0.0
C1746 C 0.50604 0.85368 0.50075 0.0
C1747 C 0.51464 0.83981 0.48325 0.0
C1748 C 0.52819 0.85176 0.46754 0.0
C1749 C 0.53266 0.87602 0.46855 0.0
C1750 C 0.52374 0.88893 0.48554 0.0
C1751 C 0.511 0.87832 0.50171 0.0
C1752 C 0.50384 0.89685 0.51833 0.0
C1753 C 0.47735 0.89269 0.51482 0.0
C1754 C 0.51357 0.89714 0.54486 0.0
C1755 C 0.51493 0.91944 0.50925 0.0
C1756 C 0.52573 0.91406 0.48986 0.0
C1757 C 0.53551 0.93117 0.47685 0.0
C1758 C 0.53503 0.95425 0.48405 0.0
C1759 C 0.52601 0.96124 0.50504 0.0
C1760 C 0.51517 0.94308 0.51749 0.0
H1761 H 0.51262 0.3257 0.67796 0.0
H1762 H 0.50227 0.26272 0.62758 0.0
H1763 H 0.46625 0.24625 0.64265 0.0
H1764 H 0.49487 0.29966 0.72677 0.0
H1765 H 0.48002 0.32072 0.73753 0.0
H1766 H 0.50344 0.32899 0.72075 0.0
H1767 H 0.47655 0.3437 0.69015 0.0
H1768 H 0.45296 0.33535 0.70681 0.0
H1769 H 0.44964 0.3245 0.67515 0.0
H1770 H 0.43402 0.23465 0.66555 0.0
H1771 H 0.40792 0.22836 0.6961 0.0
H1772 H 0.43783 0.29841 0.73193 0.0
C1773 C 0.50257 0.30859 0.66986 0.0
C1774 C 0.51039 0.29551 0.65158 0.0
C1775 C 0.4968 0.27308 0.64165 0.0
C1776 C 0.47617 0.2636 0.64997 0.0
C1777 C 0.46915 0.27673 0.66821 0.0
C1778 C 0.48183 0.29876 0.67805 0.0
C1779 C 0.4711 0.30841 0.69869 0.0
C1780 C 0.48839 0.31481 0.72233 0.0
C1781 C 0.46202 0.32923 0.69232 0.0
C1782 C 0.45127 0.28782 0.69976 0.0
C1783 C 0.45021 0.26996 0.68159 0.0
C1784 C 0.43446 0.24859 0.67966 0.0
C1785 C 0.41977 0.24512 0.69707 0.0
C1786 C 0.42091 0.2629 0.71615 0.0
C1787 C 0.43649 0.28469 0.71724 0.0
H1788 H 0.05291 0.81618 0.64822 0.0
H1789 H 0.97867 0.80915 0.63739 0.0
H1790 H 0.98387 0.84166 0.61402 0.0
H1791 H 0.06957 0.87926 0.65418 0.0
H1792 H 0.09387 0.87992 0.63822 0.0
H1793 H 0.08462 0.85661 0.65505 0.0
H1794 H 0.08022 0.82689 0.61671 0.0
H1795 H 0.08954 0.85009 0.59982 0.0
H1796 H 0.06222 0.82931 0.58958 0.0
H1797 H 0.9968 0.87416 0.59047 0.0
H1798 H 0.01644 0.90338 0.56759 0.0
H1799 H 0.08246 0.89017 0.59397 0.0
C1800 C 0.03775 0.82153 0.64103 0.0
C1801 C 0.01534 0.80996 0.64472 0.0
C1802 C 0.99601 0.81759 0.63488 0.0
C1803 C 0.99879 0.83614 0.62159 0.0
C1804 C 0.02103 0.84709 0.61824 0.0
C1805 C 0.0402 0.8401 0.62766 0.0
C1806 C 0.06213 0.85451 0.62083 0.0
C1807 C 0.07851 0.8684 0.64341 0.0
C1808 C 0.07423 0.83929 0.60584 0.0
C1809 C 0.0522 0.87029 0.60567 0.0
C1810 C 0.02849 0.86587 0.60463 0.0
C1811 C 0.0154 0.87787 0.5913 0.0
C1812 C 0.02677 0.89458 0.57844 0.0
C1813 C 0.05107 0.89922 0.57884 0.0
C1814 C 0.06387 0.88697 0.59296 0.0
H1815 H 0.46885 0.84014 0.83399 0.0
H1816 H 0.47765 0.77297 0.80703 0.0
H1817 H 0.43601 0.7607 0.78948 0.0
H1818 H 0.41585 0.82284 0.8519 0.0
H1819 H 0.40367 0.8457 0.84236 0.0
H1820 H 0.43456 0.8504 0.84965 0.0
H1821 H 0.4398 0.86188 0.80749 0.0
H1822 H 0.4089 0.85769 0.80027 0.0
H1823 H 0.42401 0.84259 0.78088 0.0
H1824 H 0.39168 0.75417 0.7797 0.0
H1825 H 0.35048 0.7549 0.77521 0.0
H1826 H 0.3698 0.82695 0.80717 0.0
C1827 C 0.46227 0.82322 0.82332 0.0
C1828 C 0.47703 0.80784 0.8212 0.0
C1829 C 0.46725 0.78545 0.80811 0.0
C1830 C 0.44339 0.77824 0.79836 0.0
C1831 C 0.42927 0.79363 0.80147 0.0
C1832 C 0.43854 0.81591 0.81312 0.0
C1833 C 0.41951 0.82886 0.81483 0.0
C1834 C 0.41834 0.83745 0.84126 0.0
C1835 C 0.42328 0.84895 0.79999 0.0
C1836 C 0.39786 0.81012 0.80345 0.0
C1837 C 0.40394 0.78996 0.79572 0.0
C1838 C 0.38695 0.76999 0.78554 0.0
C1839 C 0.36341 0.77051 0.78328 0.0
C1840 C 0.35648 0.79081 0.79113 0.0
C1841 C 0.37422 0.81105 0.80098 0.0
H1842 H 0.52935 0.20096 0.12434 0.0
H1843 H 0.50083 0.16133 0.17824 0.0
H1844 H 0.49965 0.1255 0.15257 0.0
H1845 H 0.49515 0.15805 0.07116 0.0
H1846 H 0.51836 0.16191 0.05342 0.0
H1847 H 0.51603 0.18553 0.07493 0.0
H1848 H 0.55785 0.1894 0.09563 0.0
H1849 H 0.56028 0.16583 0.07419 0.0
H1850 H 0.56563 0.16456 0.10608 0.0
H1851 H 0.50274 0.09395 0.12369 0.0
H1852 H 0.50969 0.06689 0.09192 0.0
H1853 H 0.53672 0.12362 0.05356 0.0
C1854 C 0.52247 0.18471 0.13048 0.0
C1855 C 0.51514 0.18432 0.15363 0.0
C1856 C 0.50661 0.16251 0.16088 0.0
C1857 C 0.5058 0.14185 0.14632 0.0
C1858 C 0.51343 0.14276 0.12409 0.0
C1859 C 0.52147 0.16344 0.11587 0.0
C1860 C 0.52901 0.15866 0.09112 0.0
C1861 C 0.51373 0.16652 0.07149 0.0
C1862 C 0.55473 0.17031 0.09181 0.0
C1863 C 0.52462 0.13225 0.08742 0.0
C1864 C 0.51534 0.12378 0.10675 0.0
C1865 C 0.50987 0.10035 0.10836 0.0
C1866 C 0.51401 0.08499 0.08992 0.0
C1867 C 0.52377 0.09265 0.06965 0.0
C1868 C 0.529 0.11687 0.06841 0.0
H1869 H 0.11606 0.29115 0.28594 0.0
H1870 H 0.13503 0.32655 0.35951 0.0
H1871 H 0.17567 0.32471 0.35827 0.0
H1872 H 0.15375 0.25251 0.28893 0.0
H1873 H 0.16118 0.25492 0.25917 0.0
H1874 H 0.13382 0.25924 0.26586 0.0
H1875 H 0.14378 0.29936 0.25164 0.0
H1876 H 0.17121 0.29484 0.24525 0.0
H1877 H 0.17029 0.32008 0.26525 0.0
H1878 H 0.21511 0.31756 0.34944 0.0
H1879 H 0.24871 0.30775 0.33386 0.0
H1880 H 0.20577 0.2777 0.26507 0.0
C1881 C 0.12874 0.29874 0.30182 0.0
C1882 C 0.12174 0.30915 0.32295 0.0
C1883 C 0.13939 0.3187 0.34305 0.0
C1884 C 0.16272 0.3176 0.3425 0.0
C1885 C 0.16884 0.30708 0.32159 0.0
C1886 C 0.15233 0.29804 0.30146 0.0
C1887 C 0.16363 0.28801 0.28109 0.0
C1888 C 0.15241 0.26212 0.27333 0.0
C1889 C 0.16213 0.30136 0.25952 0.0
C1890 C 0.18887 0.29208 0.29306 0.0
C1891 C 0.19146 0.30327 0.31641 0.0
C1892 C 0.21306 0.30893 0.33112 0.0
C1893 C 0.2323 0.30328 0.32195 0.0
C1894 C 0.23059 0.29201 0.29798 0.0
C1895 C 0.20817 0.28628 0.28345 0.0
H1896 H 0.9707 0.04169 0.19176 0.0
H1897 H 0.99588 0.98108 0.20422 0.0
H1898 H 0.01106 0.98119 0.16614 0.0
H1899 H 0.95399 0.02632 0.12684 0.0
H1900 H 0.96427 0.05507 0.11987 0.0
H1901 H 0.9548 0.05105 0.14853 0.0
H1902 H 0.99435 0.07633 0.17069 0.0
H1903 H 1.00387 0.08044 0.14207 0.0
H1904 H 0.0206 0.06894 0.16413 0.0
H1905 H 0.02347 0.98636 0.12776 0.0
H1906 H 0.03434 0.99779 0.0897 0.0
H1907 H 1.00256 0.0555 0.09887 0.0
C1908 C 0.97945 0.02851 0.18643 0.0
C1909 C 0.982 0.01136 0.20128 0.0
C1910 C 0.99366 0.9945 0.19354 0.0
C1911 C 1.00236 0.99431 0.17176 0.0
C1912 C 0.99955 0.01117 0.15761 0.0
C1913 C 0.98861 0.02814 0.16447 0.0
C1914 C 0.98873 0.04438 0.14547 0.0
C1915 C 0.96396 0.04418 0.13453 0.0
C1916 C 1.00272 0.06898 0.15624 0.0
C1917 C 1.001 0.03341 0.1269 0.0
C1918 C 1.00706 0.01433 0.13464 0.0
C1919 C 0.01886 1.00128 0.12145 0.0
C1920 C 0.02502 0.00797 0.09983 0.0
C1921 C 0.01931 0.02748 0.09126 0.0
C1922 C 1.00687 0.04032 0.10485 0.0
H1923 H 0.26883 0.69879 0.50829 0.0
H1924 H 0.28128 0.63536 0.47494 0.0
H1925 H 0.28425 0.65153 0.43657 0.0
H1926 H 0.23174 0.7062 0.46426 0.0
H1927 H 0.24105 0.73722 0.46678 0.0
H1928 H 0.24654 0.72331 0.49252 0.0
H1929 H 0.29031 0.7426 0.49689 0.0
H1930 H 0.28501 0.75675 0.471 0.0
H1931 H 0.30555 0.73913 0.47169 0.0
H1932 H 0.277 0.67064 0.4009 0.0
H1933 H 0.25851 0.68999 0.37048 0.0
H1934 H 0.25085 0.74112 0.42718 0.0
C1935 C 0.27311 0.6888 0.49306 0.0
C1936 C 0.27514 0.66616 0.49416 0.0
C1937 C 0.28017 0.65299 0.47417 0.0
C1938 C 0.28196 0.66209 0.45249 0.0
C1939 C 0.27916 0.68443 0.45161 0.0
C1940 C 0.2751 0.6977 0.47154 0.0
C1941 C 0.26917 0.71958 0.46525 0.0
C1942 C 0.24574 0.72165 0.47261 0.0
C1943 C 0.28867 0.74077 0.47688 0.0
C1944 C 0.26813 0.71547 0.43818 0.0
C1945 C 0.2749 0.6956 0.43076 0.0
C1946 C 0.27243 0.68661 0.40643 0.0
C1947 C 0.26193 0.69763 0.3893 0.0
C1948 C 0.25384 0.71711 0.39676 0.0
C1949 C 0.25769 0.72662 0.42128 0.0
H1950 H 0.64298 0.0782 0.68132 0.0
H1951 H 0.66261 0.01292 0.67591 0.0
H1952 H 0.63491 0.99891 0.63822 0.0
H1953 H 0.58583 0.05544 0.66741 0.0
H1954 H 0.57871 0.07674 0.64981 0.0
H1955 H 0.60368 0.08461 0.67297 0.0
H1956 H 0.63097 0.09858 0.64243 0.0
H1957 H 0.60569 0.09249 0.61977 0.0
H1958 H 0.62951 0.07994 0.61462 0.0
H1959 H 0.6017 0.99003 0.60583 0.0
H1960 H 0.5701 0.99 0.57343 0.0
H1961 H 0.57041 0.05992 0.60282 0.0
C1962 C 0.64223 0.06137 0.67163 0.0
C1963 C 0.65452 0.04641 0.68134 0.0
C1964 C 0.65302 0.02441 0.66852 0.0
C1965 C 0.63732 0.01631 0.64733 0.0
C1966 C 0.62362 0.0306 0.63959 0.0
C1967 C 0.62637 0.05291 0.65084 0.0
C1968 C 0.6082 0.06399 0.64007 0.0
C1969 C 0.59324 0.07056 0.65869 0.0
C1970 C 0.61927 0.08498 0.62852 0.0
C1971 C 0.59458 0.0442 0.62135 0.0
C1972 C 0.60373 0.02511 0.62143 0.0
C1973 C 0.59448 1.00489 0.60533 0.0
C1974 C 0.5765 0.00492 0.5873 0.0
C1975 C 0.56833 0.02501 0.58596 0.0
C1976 C 0.57638 0.04432 0.60389 0.0
H1977 H 0.29495 0.36478 0.95328 0.0
H1978 H 0.30425 0.30242 0.98064 0.0
H1979 H 0.30132 0.28317 0.93921 0.0
H1980 H 0.25377 0.33505 0.89747 0.0
H1981 H 0.26606 0.35581 0.87903 0.0
H1982 H 0.26683 0.3646 0.9108 0.0
H1983 H 0.3113 0.38014 0.91575 0.0
H1984 H 0.3107 0.37116 0.88407 0.0
H1985 H 0.32874 0.36109 0.90623 0.0
H1986 H 0.30157 0.2715 0.89602 0.0
H1987 H 0.30075 0.26639 0.85212 0.0
H1988 H 0.29003 0.33516 0.85004 0.0
C1989 C 0.29567 0.34687 0.95043 0.0
C1990 C 0.29969 0.33506 0.97037 0.0
C1991 C 0.30116 0.31184 0.96581 0.0
C1992 C 0.29955 0.30072 0.94227 0.0
C1993 C 0.29641 0.31292 0.92312 0.0
C1994 C 0.29413 0.33535 0.92672 0.0
C1995 C 0.2917 0.34446 0.90256 0.0
C1996 C 0.26819 0.35033 0.89715 0.0
C1997 C 0.3118 0.36546 0.90214 0.0
C1998 C 0.29313 0.32367 0.8851 0.0
C1999 C 0.29603 0.30582 0.89758 0.0
C2000 C 0.29897 0.28523 0.88599 0.0
C2001 C 0.29863 0.28255 0.86095 0.0
C2002 C 0.29521 0.30026 0.8474 0.0
C2003 C 0.29238 0.32115 0.85977 0.0
H2004 H 0.00931 0.01512 0.33986 0.0
H2005 H 0.94821 0.04202 0.33947 0.0
H2006 H 0.9549 0.04851 0.38412 0.0
H2007 H 1.00214 0.9843 0.38815 0.0
H2008 H 0.03238 0.99136 0.40083 0.0
H2009 H 0.02403 0.99096 0.36905 0.0
H2010 H 0.04851 0.03314 0.37262 0.0
H2011 H 0.05689 0.03338 0.40446 0.0
H2012 H 0.04344 0.05517 0.39425 0.0
H2013 H 0.96648 0.04904 0.42882 0.0
H2014 H 0.98284 0.04558 0.46998 0.0
H2015 H 0.03656 0.01794 0.44168 0.0
C2016 C 0.99758 0.02284 0.34913 0.0
C2017 C 0.97824 0.02815 0.33602 0.0
C2018 C 0.96328 0.03808 0.34896 0.0
C2019 C 0.96689 0.0417 0.37438 0.0
C2020 C 0.98572 0.03562 0.38668 0.0
C2021 C 1.00104 0.02674 0.37448 0.0
C2022 C 0.01959 0.02109 0.39196 0.0
C2023 C 0.0195 0.99539 0.3872 0.0
C2024 C 0.04353 0.03662 0.39075 0.0
C2025 C 0.01171 0.02712 0.4159 0.0
C2026 C 0.99233 0.0358 0.41242 0.0
C2027 C 0.98173 0.04243 0.43171 0.0
C2028 C 0.99119 0.04031 0.45511 0.0
C2029 C 0.01102 0.03139 0.45926 0.0
C2030 C 0.02136 0.02471 0.43923 0.0
H2031 H 0.27634 0.66662 0.63832 0.0
H2032 H 0.30464 0.71975 0.5969 0.0
H2033 H 0.32272 0.74613 0.63464 0.0
H2034 H 0.25701 0.70246 0.67585 0.0
H2035 H 0.26135 0.68891 0.70233 0.0
H2036 H 0.25707 0.67232 0.67299 0.0
H2037 H 0.29578 0.66101 0.6843 0.0
H2038 H 0.30042 0.67825 0.7136 0.0
H2039 H 0.32218 0.68327 0.69414 0.0
H2040 H 0.3309 0.76835 0.67457 0.0
H2041 H 0.32367 0.78657 0.71329 0.0
H2042 H 0.28843 0.71971 0.72859 0.0
C2043 C 0.28711 0.68357 0.63747 0.0
C2044 C 0.28971 0.69144 0.61532 0.0
C2045 C 0.30284 0.71379 0.61414 0.0
C2046 C 0.31341 0.72859 0.63535 0.0
C2047 C 0.31029 0.7206 0.65722 0.0
C2048 C 0.29714 0.69867 0.65844 0.0
C2049 C 0.29165 0.69611 0.68347 0.0
C2050 C 0.26524 0.6896 0.68364 0.0
C2051 C 0.30322 0.67863 0.69452 0.0
C2052 C 0.3027 0.72037 0.69578 0.0
C2053 C 0.31406 0.73401 0.68061 0.0
C2054 C 0.32231 0.75783 0.68672 0.0
C2055 C 0.3176 0.76812 0.7083 0.0
C2056 C 0.30434 0.75455 0.72282 0.0
C2057 C 0.29828 0.7304 0.71741 0.0
H2058 H 0.67162 0.08085 0.82836 0.0
H2059 H 0.64025 0.00796 0.8062 0.0
H2060 H 0.61658 0.00823 0.83897 0.0
H2061 H 0.66419 0.08437 0.89616 0.0
H2062 H 0.65705 0.11173 0.89467 0.0
H2063 H 0.6779 0.10378 0.87714 0.0
H2064 H 0.65384 0.11119 0.83896 0.0
H2065 H 0.63216 0.1178 0.85579 0.0
H2066 H 0.62409 0.09505 0.83035 0.0
H2067 H 0.58907 0.01864 0.8648 0.0
H2068 H 0.56336 0.03743 0.88661 0.0
H2069 H 0.61036 0.1043 0.88847 0.0
C2070 C 0.66081 0.0647 0.83153 0.0
C2071 C 0.65753 0.04441 0.81511 0.0
C2072 C 0.64309 0.02354 0.81903 0.0
C2073 C 0.6295 0.02363 0.83747 0.0
C2074 C 0.631 0.04467 0.85164 0.0
C2075 C 0.64681 0.06477 0.84933 0.0
C2076 C 0.64192 0.08587 0.86282 0.0
C2077 C 0.66142 0.09708 0.88396 0.0
C2078 C 0.63775 0.10348 0.84596 0.0
C2079 C 0.61998 0.07473 0.87162 0.0
C2080 C 0.61424 0.05095 0.86554 0.0
C2081 C 0.59367 0.03717 0.87015 0.0
C2082 C 0.57902 0.04795 0.88205 0.0
C2083 C 0.58489 0.07222 0.88858 0.0
C2084 C 0.60545 0.08574 0.88316 0.0
H2085 H 0.32269 0.32179 0.10784 0.0
H2086 H 0.27734 0.36847 0.10691 0.0
H2087 H 0.26678 0.35839 0.14604 0.0
H2088 H 0.28592 0.2775 0.13394 0.0
H2089 H 0.30979 0.27075 0.15184 0.0
H2090 H 0.31367 0.28157 0.12375 0.0
H2091 H 0.34791 0.31493 0.14601 0.0
H2092 H 0.34411 0.30411 0.17411 0.0
H2093 H 0.34351 0.33354 0.17146 0.0
H2094 H 0.26283 0.34469 0.18669 0.0
H2095 H 0.26394 0.32667 0.224 0.0
H2096 H 0.31024 0.28745 0.19748 0.0
C2097 C 0.31043 0.32983 0.11575 0.0
C2098 C 0.30085 0.34596 0.10414 0.0
C2099 C 0.28487 0.35601 0.11527 0.0
C2100 C 0.2788 0.35043 0.13757 0.0
C2101 C 0.2887 0.33461 0.14856 0.0
C2102 C 0.30404 0.32431 0.13791 0.0
C2103 C 0.31216 0.30778 0.1534 0.0
C2104 C 0.30495 0.28293 0.13993 0.0
C2105 C 0.33848 0.31556 0.16173 0.0
C2106 C 0.29906 0.3104 0.17446 0.0
C2107 C 0.28578 0.32613 0.17145 0.0
C2108 C 0.27299 0.33219 0.18908 0.0
C2109 C 0.27378 0.32193 0.21025 0.0
C2110 C 0.28698 0.30552 0.21354 0.0
C2111 C 0.29969 0.29967 0.19529 0.0
H2112 H 0.24823 0.9514 0.0213 0.0
H2113 H 0.25434 0.985 0.95736 0.0
H2114 H 0.22662 0.00741 0.96969 0.0
H2115 H 0.18837 0.94798 0.02489 0.0
H2116 H 0.19379 0.95449 0.05736 0.0
H2117 H 0.2118 0.93964 0.04182 0.0
H2118 H 0.24834 0.97108 0.06271 0.0
H2119 H 0.23052 0.98606 0.07833 0.0
H2120 H 0.24987 1.00095 0.06001 0.0
H2121 H 0.20012 0.02753 0.99115 0.0
H2122 H 0.17832 0.04436 0.01995 0.0
H2123 H 0.19228 0.99734 0.06943 0.0
C2124 C 0.24348 0.96305 0.00942 0.0
C2125 C 0.25315 0.96632 0.9882 0.0
C2126 C 0.24687 0.98219 0.97361 0.0
C2127 C 0.2312 0.99489 0.98046 0.0
C2128 C 0.22241 0.99147 0.00191 0.0
C2129 C 0.22848 0.97594 0.01613 0.0
C2130 C 0.21866 0.97662 0.03937 0.0
C2131 C 0.20216 0.9533 0.04093 0.0
C2132 C 0.238 0.98412 0.06138 0.0
C2133 C 0.20591 0.99501 0.03615 0.0
C2134 C 0.20808 1.00336 0.01445 0.0
C2135 C 0.19827 0.02108 0.00813 0.0
C2136 C 0.18605 0.03052 0.02455 0.0
C2137 C 0.18407 0.02224 0.04693 0.0
C2138 C 0.19397 1.00422 0.05263 0.0
H2139 H 0.67748 0.64925 0.98898 0.0
H2140 H 0.72785 0.61893 0.02646 0.0
H2141 H 0.69617 0.58686 0.03304 0.0
H2142 H 0.63488 0.63688 0.02573 0.0
H2143 H 0.61062 0.62993 0.00169 0.0
H2144 H 0.63723 0.64958 0.99841 0.0
H2145 H 0.63934 0.62401 0.95892 0.0
H2146 H 0.61253 0.60447 0.96196 0.0
H2147 H 0.63788 0.59377 0.95917 0.0
H2148 H 0.65862 0.56149 0.04062 0.0
H2149 H 0.61845 0.5411 0.04294 0.0
H2150 H 0.59294 0.5857 0.99675 0.0
C2151 C 0.68186 0.63559 0.99813 0.0
C2152 C 0.70509 0.63651 0.00719 0.0
C2153 C 0.71018 0.6184 0.01914 0.0
C2154 C 0.6923 0.60022 0.0231 0.0
C2155 C 0.66951 0.60019 0.01454 0.0
C2156 C 0.66429 0.6171 0.00177 0.0
C2157 C 0.6384 0.61319 0.99463 0.0
C2158 C 0.62979 0.63361 0.00579 0.0
C2159 C 0.63165 0.60858 0.96703 0.0
C2160 C 0.62984 0.59174 0.00584 0.0
C2161 C 0.64801 0.58465 0.01749 0.0
C2162 C 0.64427 0.56643 0.0309 0.0
C2163 C 0.62138 0.55489 0.03204 0.0
C2164 C 0.60249 0.56123 0.01935 0.0
C2165 C 0.60693 0.58001 0.0062 0.0
H2166 H 0.66688 0.48963 0.26447 0.0
H2167 H 0.69775 0.50517 0.34 0.0
H2168 H 0.7197 0.47548 0.33342 0.0
H2169 H 0.66119 0.42796 0.25729 0.0
H2170 H 0.66865 0.42677 0.22728 0.0
H2171 H 0.65468 0.44848 0.23825 0.0
H2172 H 0.68819 0.48056 0.22907 0.0
H2173 H 0.70216 0.45891 0.218 0.0
H2174 H 0.71757 0.48182 0.24178 0.0
H2175 H 0.73995 0.44519 0.31764 0.0
H2176 H 0.75694 0.41798 0.29396 0.0
H2177 H 0.71088 0.42146 0.22964 0.0
C2178 C 0.67803 0.48667 0.27974 0.0
C2179 C 0.68047 0.49967 0.30279 0.0
C2180 C 0.69554 0.4954 0.32217 0.0
C2181 C 0.70805 0.47853 0.31863 0.0
C2182 C 0.70527 0.46609 0.29562 0.0
C2183 C 0.69062 0.47 0.27653 0.0
C2184 C 0.69135 0.45507 0.25335 0.0
C2185 C 0.66755 0.43859 0.24348 0.0
C2186 C 0.70035 0.46998 0.23445 0.0
C2187 C 0.70864 0.4421 0.26234 0.0
C2188 C 0.7166 0.44866 0.28672 0.0
C2189 C 0.73364 0.43978 0.29857 0.0
C2190 C 0.74309 0.42419 0.28499 0.0
C2191 C 0.7354 0.41762 0.25983 0.0
C2192 C 0.71751 0.42635 0.24871 0.0
H2193 H 0.87142 0.4734 0.48584 0.0
H2194 H 0.86736 0.49262 0.56106 0.0
H2195 H 0.90491 0.5216 0.56563 0.0
H2196 H 0.92427 0.46851 0.49602 0.0
H2197 H 0.93462 0.47865 0.46955 0.0
H2198 H 0.90432 0.4664 0.46876 0.0
H2199 H 0.89446 0.50356 0.45609 0.0
H2200 H 0.92483 0.51564 0.45596 0.0
H2201 H 0.9088 0.53121 0.47369 0.0
H2202 H 0.94509 0.54287 0.5637 0.0
H2203 H 0.98567 0.55345 0.55593 0.0
H2204 H 0.96467 0.51452 0.48411 0.0
C2205 C 0.87795 0.48479 0.5028 0.0
C2206 C 0.86672 0.48173 0.52296 0.0
C2207 C 0.87583 0.49557 0.54542 0.0
C2208 C 0.89698 0.51199 0.54807 0.0
C2209 C 0.90852 0.51377 0.52811 0.0
C2210 C 0.89926 0.50056 0.50581 0.0
C2211 C 0.91696 0.50152 0.48891 0.0
C2212 C 0.92022 0.47734 0.48035 0.0
C2213 C 0.91089 0.51372 0.4674 0.0
C2214 C 0.93784 0.5161 0.50565 0.0
C2215 C 0.93255 0.52382 0.5278 0.0
C2216 C 0.94943 0.53702 0.54641 0.0
C2217 C 0.97232 0.54254 0.54208 0.0
C2218 C 0.9778 0.53363 0.51994 0.0
C2219 C 0.96053 0.52072 0.50143 0.0
H2220 H 0.3773 0.09849 0.31269 0.0
H2221 H 0.31493 0.04447 0.3093 0.0
H2222 H 0.29123 0.07097 0.29684 0.0
H2223 H 0.34976 0.14934 0.33104 0.0
H2224 H 0.36744 0.16689 0.31316 0.0
H2225 H 0.37856 0.14621 0.32873 0.0
H2226 H 0.38739 0.12788 0.28826 0.0
H2227 H 0.37582 0.14788 0.27242 0.0
H2228 H 0.36423 0.11727 0.26314 0.0
H2229 H 0.27585 0.09916 0.27508 0.0
H2230 H 0.26966 0.12825 0.24884 0.0
H2231 H 0.34224 0.16373 0.26697 0.0
C2232 C 0.35861 0.09279 0.31047 0.0
C2233 C 0.3477 0.06986 0.31197 0.0
C2234 C 0.32334 0.06232 0.30857 0.0
C2235 C 0.30982 0.07721 0.30152 0.0
C2236 C 0.32114 0.09956 0.29877 0.0
C2237 C 0.34501 0.10753 0.30384 0.0
C2238 C 0.35325 0.13095 0.29636 0.0
C2239 C 0.36281 0.14945 0.31865 0.0
C2240 C 0.3712 0.13095 0.27901 0.0
C2241 C 0.33067 0.13375 0.28386 0.0
C2242 C 0.31219 0.11592 0.28613 0.0
C2243 C 0.29 0.1136 0.27384 0.0
C2244 C 0.28668 0.12996 0.25887 0.0
C2245 C 0.3056 0.14787 0.25607 0.0
C2246 C 0.32765 0.15003 0.269 0.0
H2247 H 0.33483 0.15142 0.54095 0.0
H2248 H 0.3132 0.11722 0.46697 0.0
H2249 H 0.344 0.09634 0.47187 0.0
H2250 H 0.39672 0.15811 0.54154 0.0
H2251 H 0.40165 0.1527 0.57227 0.0
H2252 H 0.37847 0.1656 0.56265 0.0
H2253 H 0.34911 0.13307 0.57706 0.0
H2254 H 0.37221 0.12019 0.58681 0.0
H2255 H 0.3474 0.10335 0.56587 0.0
H2256 H 0.37619 0.07748 0.48578 0.0
H2257 H 0.40588 0.06181 0.50793 0.0
H2258 H 0.40756 0.11012 0.57176 0.0
C2259 C 0.3366 0.13963 0.52571 0.0
C2260 C 0.32152 0.13598 0.50357 0.0
C2261 C 0.32451 0.12036 0.48412 0.0
C2262 C 0.34201 0.10844 0.4867 0.0
C2263 C 0.35657 0.11245 0.50877 0.0
C2264 C 0.35406 0.12772 0.52791 0.0
C2265 C 0.37152 0.12852 0.54994 0.0
C2266 C 0.38807 0.15267 0.557 0.0
C2267 C 0.35932 0.12082 0.57116 0.0
C2268 C 0.38396 0.11103 0.54035 0.0
C2269 C 0.37522 0.10197 0.51656 0.0
C2270 C 0.38332 0.08464 0.50435 0.0
C2271 C 0.40033 0.07595 0.51703 0.0
C2272 C 0.40902 0.08458 0.54166 0.0
C2273 C 0.40111 0.10286 0.55306 0.0
H2274 H 0.67301 0.64202 0.31637 0.0
H2275 H 0.69975 0.59264 0.2734 0.0
H2276 H 0.7321 0.62424 0.26733 0.0
H2277 H 0.68379 0.68655 0.28303 0.0
H2278 H 0.69309 0.70972 0.30805 0.0
H2279 H 0.6736 0.6831 0.31147 0.0
H2280 H 0.70191 0.6785 0.34807 0.0
H2281 H 0.72134 0.70536 0.34495 0.0
H2282 H 0.73158 0.67946 0.34484 0.0
H2283 H 0.75758 0.66158 0.26078 0.0
H2284 H 0.77778 0.70165 0.25845 0.0
H2285 H 0.73632 0.72674 0.30819 0.0
C2286 C 0.68602 0.63782 0.30619 0.0
C2287 C 0.68396 0.61494 0.29534 0.0
C2288 C 0.7012 0.61003 0.28207 0.0
C2289 C 0.71954 0.62787 0.27844 0.0
C2290 C 0.72067 0.65037 0.28874 0.0
C2291 C 0.70472 0.65534 0.30287 0.0
C2292 C 0.70956 0.68106 0.31138 0.0
C2293 C 0.68877 0.69066 0.30296 0.0
C2294 C 0.71651 0.68641 0.33895 0.0
C2295 C 0.72992 0.68988 0.2987 0.0
C2296 C 0.73613 0.67189 0.28587 0.0
C2297 C 0.75334 0.67578 0.27133 0.0
C2298 C 0.76472 0.69863 0.27014 0.0
C2299 C 0.75906 0.71736 0.28362 0.0
C2300 C 0.74134 0.71282 0.29801 0.0
H2301 H 0.8569 0.44638 0.83028 0.0
H2302 H 0.82869 0.46644 0.76382 0.0
H2303 H 0.80446 0.42648 0.75119 0.0
H2304 H 0.86778 0.3988 0.80371 0.0
H2305 H 0.86144 0.38113 0.82697 0.0
H2306 H 0.87093 0.41199 0.83467 0.0
H2307 H 0.83404 0.41388 0.85392 0.0
H2308 H 0.82559 0.38283 0.84799 0.0
H2309 H 0.80597 0.39927 0.83712 0.0
H2310 H 0.785 0.38312 0.7459 0.0
H2311 H 0.77242 0.34127 0.74891 0.0
H2312 H 0.82274 0.35095 0.81329 0.0
C2313 C 0.84502 0.4426 0.81344 0.0
C2314 C 0.84461 0.45915 0.79791 0.0
C2315 C 0.82896 0.45379 0.776 0.0
C2316 C 0.81534 0.43119 0.76864 0.0
C2317 C 0.81794 0.41465 0.78347 0.0
C2318 C 0.83226 0.42026 0.80553 0.0
C2319 C 0.83489 0.39936 0.81671 0.0
C2320 C 0.86027 0.39775 0.82072 0.0
C2321 C 0.82449 0.39881 0.84032 0.0
C2322 C 0.82053 0.38096 0.79712 0.0
C2323 C 0.81009 0.3899 0.77846 0.0
C2324 C 0.79358 0.37587 0.76001 0.0
C2325 C 0.78688 0.35224 0.76153 0.0
C2326 C 0.79789 0.34322 0.78044 0.0
C2327 C 0.81533 0.35754 0.79785 0.0
H2328 H 0.07738 0.88616 0.10488 0.0
H2329 H 0.05413 0.84258 0.03561 0.0
H2330 H 0.04403 0.87532 0.01781 0.0
H2331 H 0.03435 0.92164 0.0991 0.0
H2332 H 0.05452 0.94836 0.11292 0.0
H2333 H 0.05862 0.92131 0.12115 0.0
H2334 H 0.09985 0.93086 0.11002 0.0
H2335 H 0.09586 0.95794 0.10182 0.0
H2336 H 0.10388 0.9378 0.08034 0.0
H2337 H 0.03561 0.91362 0.00667 0.0
H2338 H 0.03302 0.9534 0.00278 0.0
H2339 H 0.0641 0.97532 0.07774 0.0
C2340 C 0.0698 0.88336 0.08605 0.0
C2341 C 0.06617 0.86094 0.07194 0.0
C2342 C 0.05688 0.85893 0.04716 0.0
C2343 C 0.05106 0.87768 0.03677 0.0
C2344 C 0.05486 0.89931 0.05092 0.0
C2345 C 0.06426 0.90238 0.07506 0.0
C2346 C 0.06764 0.92798 0.08573 0.0
C2347 C 0.05292 0.92994 0.10593 0.0
C2348 C 0.09334 0.93931 0.09504 0.0
C2349 C 0.05885 0.93874 0.06395 0.0
C2350 C 0.05121 0.92166 0.04417 0.0
C2351 C 0.04177 0.92698 0.02215 0.0
C2352 C 0.04025 0.94995 0.02009 0.0
C2353 C 0.04832 0.96832 0.03969 0.0
C2354 C 0.05781 0.96221 0.06206 0.0
H2355 H 0.9079 0.25604 0.91993 0.0
H2356 H 0.96439 0.27966 0.88051 0.0
H2357 H 0.93702 0.28876 0.84902 0.0
H2358 H 0.86471 0.2288 0.86637 0.0
H2359 H 0.84113 0.23713 0.87889 0.0
H2360 H 0.86509 0.23251 0.89858 0.0
H2361 H 0.87153 0.27358 0.92196 0.0
H2362 H 0.84776 0.27841 0.90213 0.0
H2363 H 0.87597 0.29805 0.90581 0.0
H2364 H 0.90425 0.30001 0.82412 0.0
H2365 H 0.86795 0.3056 0.8036 0.0
H2366 H 0.83027 0.2689 0.85419 0.0
C2367 C 0.91449 0.26284 0.90452 0.0
C2368 C 0.93863 0.26706 0.90298 0.0
C2369 C 0.94622 0.27607 0.88236 0.0
C2370 C 0.93073 0.28148 0.86433 0.0
C2371 C 0.9073 0.27751 0.86661 0.0
C2372 C 0.89904 0.26788 0.88589 0.0
C2373 C 0.8728 0.26487 0.88345 0.0
C2374 C 0.86019 0.2393 0.88171 0.0
C2375 C 0.86665 0.2796 0.9046 0.0
C2376 C 0.86762 0.2741 0.85973 0.0
C2377 C 0.88796 0.28191 0.85081 0.0
C2378 C 0.88816 0.29316 0.83052 0.0
C2379 C 0.86716 0.29604 0.81872 0.0
C2380 C 0.84558 0.28683 0.82619 0.0
C2381 C 0.84611 0.27583 0.84735 0.0
H2382 H 0.56608 0.21345 0.60105 0.0
H2383 H 0.56016 0.23035 0.52827 0.0
H2384 H 0.55233 0.18901 0.51199 0.0
H2385 H 0.5958 0.16742 0.58687 0.0
H2386 H 0.5825 0.14902 0.60694 0.0
H2387 H 0.58678 0.17989 0.61352 0.0
H2388 H 0.54315 0.17449 0.61541 0.0
H2389 H 0.53882 0.14363 0.60893 0.0
H2390 H 0.52223 0.15823 0.59011 0.0
H2391 H 0.54707 0.14562 0.50274 0.0
H2392 H 0.54293 0.10378 0.50125 0.0
H2393 H 0.55111 0.11177 0.57937 0.0
C2394 C 0.56268 0.20842 0.58167 0.0
C2395 C 0.5634 0.22575 0.56601 0.0
C2396 C 0.55959 0.21795 0.54081 0.0
C2397 C 0.55515 0.19427 0.53132 0.0
C2398 C 0.55483 0.17782 0.54702 0.0
C2399 C 0.55855 0.18448 0.57173 0.0
C2400 C 0.55829 0.16298 0.58433 0.0
C2401 C 0.58226 0.16495 0.59879 0.0
C2402 C 0.53949 0.15964 0.60067 0.0
C2403 C 0.55277 0.14323 0.56293 0.0
C2404 C 0.55141 0.15249 0.54162 0.0
C2405 C 0.54784 0.1383 0.51939 0.0
C2406 C 0.54547 0.1143 0.51871 0.0
C2407 C 0.54608 0.10378 0.53999 0.0
C2408 C 0.54987 0.11878 0.56256 0.0
H2409 H 0.56666 0.81149 0.38521 0.0
H2410 H 0.56471 0.74623 0.41172 0.0
H2411 H 0.59904 0.74289 0.39282 0.0
H2412 H 0.58586 0.79515 0.32746 0.0
H2413 H 0.6038 0.82371 0.32782 0.0
H2414 H 0.57802 0.81998 0.34177 0.0
H2415 H 0.60232 0.84253 0.38211 0.0
H2416 H 0.62808 0.8464 0.36825 0.0
H2417 H 0.62681 0.8331 0.39528 0.0
H2418 H 0.63552 0.74797 0.37254 0.0
H2419 H 0.67105 0.76204 0.35472 0.0
H2420 H 0.64881 0.82379 0.34192 0.0
C2421 C 0.57325 0.79634 0.38685 0.0
C2422 C 0.56283 0.7791 0.39996 0.0
C2423 C 0.5722 0.75964 0.40168 0.0
C2424 C 0.59174 0.75756 0.39095 0.0
C2425 C 0.60167 0.77497 0.37831 0.0
C2426 C 0.59264 0.79394 0.37616 0.0
C2427 C 0.60698 0.81073 0.36248 0.0
C2428 C 0.59282 0.8125 0.33846 0.0
C2429 C 0.61662 0.83459 0.37796 0.0
C2430 C 0.62606 0.79881 0.35818 0.0
C2431 C 0.62253 0.77795 0.36697 0.0
C2432 C 0.63831 0.76421 0.36546 0.0
C2433 C 0.65839 0.77225 0.35522 0.0
C2434 C 0.66268 0.79399 0.34698 0.0
C2435 C 0.646 0.80711 0.34812 0.0
H2436 H 0.04377 0.27099 0.43763 0.0
H2437 H 0.0609 0.24569 0.36893 0.0
H2438 H 0.062 0.2084 0.38348 0.0
H2439 H 0.07813 0.24051 0.47618 0.0
H2440 H 0.05627 0.23534 0.49549 0.0
H2441 H 0.06071 0.26086 0.48095 0.0
H2442 H 0.01736 0.24973 0.462 0.0
H2443 H 0.01281 0.22438 0.47656 0.0
H2444 H 1.00517 0.22168 0.44429 0.0
H2445 H 0.05492 0.17172 0.40398 0.0
H2446 H 0.0402 0.14044 0.42751 0.0
H2447 H 0.0286 0.19088 0.48248 0.0
C2448 C 0.04838 0.25785 0.42581 0.0
C2449 C 0.05238 0.26128 0.40217 0.0
C2450 C 0.05812 0.24356 0.38722 0.0
C2451 C 0.05872 0.22233 0.39536 0.0
C2452 C 0.05396 0.21931 0.41862 0.0
C2453 C 0.04917 0.23682 0.43367 0.0
C2454 C 0.04254 0.22897 0.45693 0.0
C2455 C 0.06049 0.24221 0.47867 0.0
C2456 C 0.01803 0.23132 0.4601 0.0
C2457 C 0.04334 0.20395 0.45238 0.0
C2458 C 0.0503 0.19863 0.43039 0.0
C2459 C 0.05007 0.1759 0.42148 0.0
C2460 C 0.04186 0.15824 0.435 0.0
C2461 C 0.03389 0.16345 0.45704 0.0
C2462 C 0.03533 0.18663 0.46605 0.0
H2463 H 0.61193 0.2909 0.22946 0.0
H2464 H 0.58969 0.21949 0.24095 0.0
H2465 H 0.6301 0.2181 0.25098 0.0
H2466 H 0.66439 0.28604 0.2042 0.0
H2467 H 0.68228 0.31329 0.21985 0.0
H2468 H 0.65143 0.3094 0.21266 0.0
H2469 H 0.6493 0.32126 0.25762 0.0
H2470 H 0.68016 0.32519 0.26489 0.0
H2471 H 0.66084 0.30606 0.28 0.0
H2472 H 0.67303 0.22293 0.25884 0.0
H2473 H 0.71542 0.23483 0.26646 0.0
H2474 H 0.71343 0.30405 0.25368 0.0
C2475 C 0.61557 0.27497 0.23402 0.0
C2476 C 0.59691 0.25523 0.23428 0.0
C2477 C 0.60304 0.23497 0.24067 0.0
C2478 C 0.62621 0.23392 0.24637 0.0
C2479 C 0.64397 0.25339 0.24616 0.0
C2480 C 0.63912 0.27371 0.24044 0.0
C2481 C 0.66209 0.29221 0.24271 0.0
C2482 C 0.66523 0.30074 0.2184 0.0
C2483 C 0.66315 0.31238 0.26248 0.0
C2484 C 0.68026 0.27891 0.25011 0.0
C2485 C 0.66918 0.2565 0.25183 0.0
C2486 C 0.6818 0.24058 0.25785 0.0
C2487 C 0.7062 0.2476 0.26241 0.0
C2488 C 0.71854 0.27053 0.26144 0.0
C2489 C 0.705 0.28637 0.25496 0.0
H2490 H 0.5401 0.9032 0.88685 0.0
H2491 H 0.58439 0.87695 0.93706 0.0
H2492 H 0.58771 0.91101 0.96746 0.0
H2493 H 0.5707 0.96678 0.9071 0.0
H2494 H 0.54388 0.97543 0.90267 0.0
H2495 H 0.54748 0.95057 0.88389 0.0
H2496 H 0.51056 0.92572 0.89595 0.0
H2497 H 0.5071 0.95035 0.91509 0.0
H2498 H 0.5088 0.92433 0.92744 0.0
H2499 H 0.58164 0.94517 0.99456 0.0
H2500 H 0.57046 0.97862 0.01457 0.0
H2501 H 0.53194 0.98522 0.94664 0.0
C2502 C 0.55162 0.90534 0.90373 0.0
C2503 C 0.563 0.88775 0.90897 0.0
C2504 C 0.57653 0.89057 0.93201 0.0
C2505 C 0.57819 0.90979 0.9496 0.0
C2506 C 0.56635 0.92646 0.94406 0.0
C2507 C 0.55378 0.92478 0.92144 0.0
C2508 C 0.542 0.94474 0.92056 0.0
C2509 C 0.55158 0.96031 0.90248 0.0
C2510 C 0.51555 0.93573 0.9144 0.0
C2511 C 0.54917 0.95738 0.94642 0.0
C2512 C 0.56317 0.94643 0.95962 0.0
C2513 C 0.5709 0.95394 0.9842 0.0
C2514 C 0.56421 0.97293 0.99555 0.0
C2515 C 0.54986 0.98468 0.98267 0.0
C2516 C 0.54271 0.97691 0.95745 0.0
H2517 H 0.96511 0.78682 0.74029 0.0
H2518 H 0.94511 0.71363 0.71294 0.0
H2519 H 0.90508 0.71211 0.71988 0.0
H2520 H 0.92853 0.7828 0.78833 0.0
H2521 H 0.92069 0.80967 0.78561 0.0
H2522 H 0.9479 0.80586 0.77774 0.0
H2523 H 0.93713 0.81615 0.73535 0.0
H2524 H 0.90998 0.82003 0.74323 0.0
H2525 H 0.9103 0.80025 0.71689 0.0
H2526 H 0.86606 0.71796 0.72902 0.0
H2527 H 0.83244 0.73019 0.74164 0.0
H2528 H 0.87544 0.79919 0.76643 0.0
C2529 C 0.95226 0.77051 0.73555 0.0
C2530 C 0.95876 0.75026 0.72556 0.0
C2531 C 0.94107 0.7294 0.72031 0.0
C2532 C 0.91805 0.72837 0.72425 0.0
C2533 C 0.91223 0.74831 0.73407 0.0
C2534 C 0.92885 0.76904 0.73995 0.0
C2535 C 0.91765 0.78759 0.75117 0.0
C2536 C 0.9294 0.79705 0.77726 0.0
C2537 C 0.91884 0.80717 0.73574 0.0
C2538 C 0.89234 0.77408 0.75053 0.0
C2539 C 0.88975 0.75147 0.74031 0.0
C2540 C 0.86813 0.73565 0.73711 0.0
C2541 C 0.84884 0.74285 0.74434 0.0
C2542 C 0.85046 0.76579 0.75519 0.0
C2543 C 0.87299 0.78154 0.75841 0.0
H2544 H 0.09416 0.02012 0.85579 0.0
H2545 H 0.11111 0.09501 0.86346 0.0
H2546 H 0.09999 0.09684 0.90386 0.0
H2547 H 0.04368 0.01546 0.88665 0.0
H2548 H 0.04804 0.99156 0.90162 0.0
H2549 H 0.05807 0.99521 0.87315 0.0
H2550 H 0.09946 0.99527 0.89226 0.0
H2551 H 0.08947 0.99141 0.9207 0.0
H2552 H 0.11333 0.01535 0.91905 0.0
H2553 H 0.08366 0.09163 0.94116 0.0
H2554 H 0.0671 0.07927 0.97681 0.0
H2555 H 0.06287 0.00791 0.94936 0.0
C2556 C 0.09577 0.03684 0.86617 0.0
C2557 C 0.10343 0.05749 0.85621 0.0
C2558 C 0.10504 0.07897 0.87039 0.0
C2559 C 0.09879 0.08023 0.89347 0.0
C2560 C 0.09075 0.05983 0.90253 0.0
C2561 C 0.08932 0.03846 0.88961 0.0
C2562 C 0.07937 0.01941 0.90399 0.0
C2563 C 0.05591 1.00452 0.89055 0.0
C2564 C 0.09644 1.00448 0.90932 0.0
C2565 C 0.07624 0.03358 0.92708 0.0
C2566 C 0.08242 0.05684 0.92534 0.0
C2567 C 0.07931 0.07351 0.94305 0.0
C2568 C 0.06995 0.06635 0.96329 0.0
C2569 C 0.06471 0.04284 0.96642 0.0
C2570 C 0.06765 0.02613 0.94789 0.0
H2571 H 0.80445 0.41416 0.58232 0.0
H2572 H 0.78231 0.35086 0.53171 0.0
H2573 H 0.77706 0.32835 0.56544 0.0
H2574 H 0.84127 0.39557 0.61655 0.0
H2575 H 0.83848 0.4101 0.64537 0.0
H2576 H 0.83131 0.42171 0.61844 0.0
H2577 H 0.79025 0.42049 0.62865 0.0
H2578 H 0.7973 0.40894 0.65594 0.0
H2579 H 0.77222 0.39383 0.63434 0.0
H2580 H 0.78421 0.3127 0.60257 0.0
H2581 H 0.80558 0.30496 0.63983 0.0
H2582 H 0.82628 0.37811 0.66663 0.0
C2583 C 0.79722 0.39566 0.5785 0.0
C2584 C 0.79321 0.38405 0.55482 0.0
C2585 C 0.78503 0.35983 0.54999 0.0
C2586 C 0.78185 0.34702 0.56899 0.0
C2587 C 0.78733 0.35881 0.59251 0.0
C2588 C 0.79491 0.38268 0.59734 0.0
C2589 C 0.80537 0.39085 0.62349 0.0
C2590 C 0.83058 0.40538 0.62607 0.0
C2591 C 0.79038 0.40431 0.63637 0.0
C2592 C 0.80422 0.36784 0.63215 0.0
C2593 C 0.79285 0.34959 0.61433 0.0
C2594 C 0.7926 0.32676 0.61689 0.0
C2595 C 0.80493 0.32251 0.63783 0.0
C2596 C 0.81747 0.34109 0.65548 0.0
C2597 C 0.81649 0.36382 0.65314 0.0
H2598 H 0.41846 0.99433 0.37882 0.0
H2599 H 0.43617 0.06412 0.36118 0.0
H2600 H 0.46834 0.07495 0.39518 0.0
H2601 H 0.43329 0.01115 0.44429 0.0
H2602 H 0.44391 0.98587 0.44765 0.0
H2603 H 0.42097 0.98481 0.42356 0.0
H2604 H 0.44566 0.97071 0.39303 0.0
H2605 H 0.46884 0.97248 0.41713 0.0
H2606 H 0.47426 0.98808 0.39212 0.0
H2607 H 0.49847 0.07786 0.43079 0.0
H2608 H 0.52296 0.07275 0.46752 0.0
H2609 H 0.48837 1.0 0.45696 0.0
C2610 C 0.42874 0.01203 0.38239 0.0
C2611 C 0.42495 0.02835 0.36747 0.0
C2612 C 0.43877 0.05137 0.37263 0.0
C2613 C 0.45718 0.05765 0.39168 0.0
C2614 C 0.46126 0.04068 0.40517 0.0
C2615 C 0.44726 0.01847 0.40096 0.0
C2616 C 0.45538 1.00337 0.41781 0.0
C2617 C 0.43729 0.99587 0.4343 0.0
C2618 C 0.4614 0.98244 0.40418 0.0
C2619 C 0.4766 0.02034 0.43164 0.0
C2620 C 0.4795 0.04193 0.42448 0.0
C2621 C 0.49658 0.06101 0.43644 0.0
C2622 C 0.51035 0.05801 0.45703 0.0
C2623 C 0.50713 0.03604 0.46445 0.0
C2624 C 0.4909 0.01687 0.45122 0.0
H2625 H 0.77579 0.75852 0.08872 0.0
H2626 H 0.77197 0.68559 0.08842 0.0
H2627 H 0.7741 0.69079 0.13267 0.0
H2628 H 0.81827 0.77615 0.14586 0.0
H2629 H 0.80675 0.80014 0.15575 0.0
H2630 H 0.80527 0.79084 0.12396 0.0
H2631 H 0.76087 0.78609 0.11812 0.0
H2632 H 0.7622 0.79496 0.14995 0.0
H2633 H 0.74349 0.76763 0.13554 0.0
H2634 H 0.77399 0.70287 0.17613 0.0
H2635 H 0.77746 0.72214 0.21771 0.0
H2636 H 0.78355 0.78822 0.1919 0.0
C2637 C 0.77571 0.74377 0.09809 0.0
C2638 C 0.77371 0.72161 0.08511 0.0
C2639 C 0.77376 0.70273 0.09797 0.0
C2640 C 0.77477 0.70548 0.12311 0.0
C2641 C 0.77631 0.72737 0.13534 0.0
C2642 C 0.77744 0.74636 0.12346 0.0
C2643 C 0.78034 0.76814 0.14142 0.0
C2644 C 0.80406 0.78481 0.14177 0.0
C2645 C 0.76053 0.77989 0.13592 0.0
C2646 C 0.77932 0.75816 0.16499 0.0
C2647 C 0.77712 0.7346 0.16091 0.0
C2648 C 0.77602 0.72134 0.17959 0.0
C2649 C 0.77799 0.73248 0.20317 0.0
C2650 C 0.78096 0.7567 0.20811 0.0
C2651 C 0.78115 0.76967 0.18865 0.0
H2652 H 0.08254 0.07715 0.71269 0.0
H2653 H 0.10755 0.01518 0.71576 0.0
H2654 H 0.09793 0.00562 0.6714 0.0
H2655 H 0.03469 0.0528 0.66349 0.0
H2656 H 0.03849 0.07894 0.65005 0.0
H2657 H 0.04646 0.08043 0.68213 0.0
H2658 H 0.08778 0.10374 0.67921 0.0
H2659 H 0.0801 0.10202 0.64707 0.0
H2660 H 0.10448 0.09181 0.65899 0.0
H2661 H 0.08553 1.0027 0.62654 0.0
H2662 H 0.07127 0.00659 0.58483 0.0
H2663 H 0.05549 0.07102 0.61012 0.0
C2664 C 0.08569 0.06137 0.70411 0.0
C2665 C 0.09561 0.04679 0.71795 0.0
C2666 C 0.09978 0.02654 0.70577 0.0
C2667 C 0.09444 0.021 0.6805 0.0
C2668 C 0.085 0.03589 0.66747 0.0
C2669 C 0.08059 0.05564 0.67884 0.0
C2670 C 0.07069 0.0689 0.66051 0.0
C2671 C 0.04612 0.07035 0.66427 0.0
C2672 C 0.08672 0.09305 0.66152 0.0
C2673 C 0.07029 0.05358 0.63706 0.0
C2674 C 0.0785 0.03457 0.64155 0.0
C2675 C 0.07915 0.01758 0.62289 0.0
C2676 C 0.07096 0.01992 0.59915 0.0
C2677 C 0.06245 0.03919 0.59395 0.0
C2678 C 0.06234 0.05635 0.61329 0.0
H2679 H 0.82728 0.40384 0.42171 0.0
H2680 H 0.76722 0.37258 0.45281 0.0
H2681 H 0.75432 0.34235 0.41715 0.0
H2682 H 0.79506 0.39015 0.35853 0.0
H2683 H 0.8204 0.38614 0.3465 0.0
H2684 H 0.82336 0.40666 0.37317 0.0
H2685 H 0.85104 0.38619 0.39595 0.0
H2686 H 0.84805 0.3654 0.36953 0.0
H2687 H 0.84143 0.35577 0.39757 0.0
H2688 H 0.74949 0.3145 0.37943 0.0
H2689 H 0.75207 0.29226 0.34037 0.0
H2690 H 0.81701 0.34039 0.33703 0.0
C2691 C 0.81121 0.39086 0.42067 0.0
C2692 C 0.79816 0.39026 0.4396 0.0
C2693 C 0.77716 0.37327 0.43802 0.0
C2694 C 0.7698 0.35604 0.41803 0.0
C2695 C 0.7835 0.35659 0.39989 0.0
C2696 C 0.80349 0.3738 0.40081 0.0
C2697 C 0.81513 0.37046 0.37908 0.0
C2698 C 0.81338 0.38949 0.36341 0.0
C2699 C 0.8404 0.36936 0.38598 0.0
C2700 C 0.79985 0.34753 0.36703 0.0
C2701 C 0.78119 0.34018 0.37875 0.0
C2702 C 0.764 0.32002 0.37004 0.0
C2703 C 0.76566 0.30747 0.3482 0.0
C2704 C 0.78481 0.3149 0.33641 0.0
C2705 C 0.80228 0.3347 0.34607 0.0
H2706 H 0.42758 0.04139 0.23442 0.0
H2707 H 0.46777 1.00323 0.27539 0.0
H2708 H 0.48985 0.99914 0.24229 0.0
H2709 H 0.41691 0.01027 0.18352 0.0
H2710 H 0.42131 0.03162 0.16342 0.0
H2711 H 0.41444 0.03922 0.19276 0.0
H2712 H 0.45141 0.07273 0.20265 0.0
H2713 H 0.45839 0.06551 0.17299 0.0
H2714 H 0.47915 0.06712 0.19942 0.0
H2715 H 0.49834 0.98847 0.20264 0.0
H2716 H 0.49527 0.97506 0.15908 0.0
H2717 H 0.45078 0.02029 0.14265 0.0
C2718 C 0.44182 0.03322 0.23679 0.0
C2719 C 0.44581 0.02247 0.25723 0.0
C2720 C 0.46434 0.01158 0.25979 0.0
C2721 C 0.47718 0.00933 0.24115 0.0
C2722 C 0.47174 0.01862 0.22039 0.0
C2723 C 0.45499 0.03101 0.21831 0.0
C2724 C 0.4502 0.03616 0.19283 0.0
C2725 C 0.42418 0.02883 0.18256 0.0
C2726 C 0.4604 0.0619 0.1919 0.0
C2727 C 0.46375 0.02137 0.18029 0.0
C2728 C 0.47705 0.01246 0.19674 0.0
C2729 C 0.48869 0.99592 0.18958 0.0
C2730 C 0.48655 0.98811 0.16497 0.0
C2731 C 0.47254 0.99654 0.14809 0.0
C2732 C 0.46149 0.01373 0.15562 0.0
H2733 H 0.77916 0.69512 0.92916 0.0
H2734 H 0.77106 0.75866 0.96805 0.0
H2735 H 0.77535 0.77742 0.93206 0.0
H2736 H 0.82229 0.72317 0.89264 0.0
H2737 H 0.81024 0.70297 0.86548 0.0
H2738 H 0.80765 0.69383 0.89457 0.0
H2739 H 0.76323 0.68025 0.88228 0.0
H2740 H 0.76568 0.6896 0.85325 0.0
H2741 H 0.74738 0.7004 0.87228 0.0
H2742 H 0.77417 0.78787 0.89244 0.0
H2743 H 0.77637 0.7939 0.85113 0.0
H2744 H 0.79056 0.72648 0.83465 0.0
C2745 C 0.77886 0.71313 0.93012 0.0
C2746 C 0.7747 0.72545 0.95157 0.0
C2747 C 0.77403 0.74883 0.95195 0.0
C2748 C 0.7764 0.75966 0.93152 0.0
C2749 C 0.77958 0.74703 0.91056 0.0
C2750 C 0.78131 0.72448 0.90952 0.0
C2751 C 0.78452 0.71543 0.88394 0.0
C2752 C 0.80756 0.70844 0.88418 0.0
C2753 C 0.76398 0.69521 0.87225 0.0
C2754 C 0.78463 0.73664 0.87123 0.0
C2755 C 0.78105 0.7542 0.88715 0.0
C2756 C 0.77793 0.77466 0.88 0.0
C2757 C 0.77935 0.77787 0.85619 0.0
C2758 C 0.78504 0.7613 0.83944 0.0
C2759 C 0.78714 0.73995 0.84703 0.0
H2760 H 0.83638 0.08016 0.07844 0.0
H2761 H 0.81067 0.11082 0.01815 0.0
H2762 H 0.84482 0.10848 0.99926 0.0
H2763 H 0.89991 0.10488 0.07695 0.0
H2764 H 0.90745 0.07867 0.08355 0.0
H2765 H 0.8835 0.0869 0.09543 0.0
H2766 H 0.85589 0.04761 0.07589 0.0
H2767 H 0.87985 0.03908 0.06477 0.0
H2768 H 0.85418 0.03821 0.04407 0.0
H2769 H 0.87798 0.10071 0.98514 0.0
H2770 H 0.90255 0.07675 0.9697 0.0
H2771 H 0.90721 0.04844 0.0369 0.0
C2772 C 0.83812 0.08616 0.06122 0.0
C2773 C 0.82139 0.09579 0.04963 0.0
C2774 C 0.82368 0.10345 0.0271 0.0
C2775 C 0.84318 0.10271 0.01658 0.0
C2776 C 0.86002 0.09402 0.02873 0.0
C2777 C 0.85745 0.08512 0.0501 0.0
C2778 C 0.87625 0.07308 0.05691 0.0
C2779 C 0.89276 0.0867 0.07954 0.0
C2780 C 0.86591 0.04801 0.06058 0.0
C2781 C 0.888 0.07446 0.03461 0.0
C2782 C 0.87932 0.08812 0.01958 0.0
C2783 C 0.88521 0.09016 0.99671 0.0
C2784 C 0.89892 0.0764 0.98801 0.0
C2785 C 0.90615 0.06076 0.00211 0.0
C2786 C 0.90186 0.06062 0.02611 0.0
H2787 H 0.38406 0.41397 0.01435 0.0
H2788 H 0.3644 0.44873 0.07696 0.0
H2789 H 0.39943 0.48108 0.07991 0.0
H2790 H 0.4434 0.42791 0.03332 0.0
H2791 H 0.45137 0.4323 0.00412 0.0
H2792 H 0.4242 0.41297 0.00626 0.0
H2793 H 0.40215 0.43595 0.97975 0.0
H2794 H 0.42936 0.45504 0.97717 0.0
H2795 H 0.40689 0.46668 0.98828 0.0
H2796 H 0.44032 0.50647 0.0789 0.0
H2797 H 0.47941 0.52487 0.07069 0.0
H2798 H 0.46762 0.47633 0.00489 0.0
C2799 C 0.38696 0.42862 0.02842 0.0
C2800 C 0.37181 0.42898 0.04553 0.0
C2801 C 0.37592 0.44833 0.06368 0.0
C2802 C 0.39577 0.46665 0.0655 0.0
C2803 C 0.41081 0.46547 0.04863 0.0
C2804 C 0.40618 0.44719 0.03004 0.0
C2805 C 0.42488 0.44971 0.01421 0.0
C2806 C 0.43665 0.42952 0.01451 0.0
C2807 C 0.41524 0.452 0.98832 0.0
C2808 C 0.4411 0.47201 0.02703 0.0
C2809 C 0.43303 0.48076 0.04706 0.0
C2810 C 0.44646 0.50003 0.06288 0.0
C2811 C 0.46861 0.51045 0.05802 0.0
C2812 C 0.47688 0.50192 0.03721 0.0
C2813 C 0.46251 0.48279 0.0214 0.0
H2814 H 0.40332 0.58439 0.75563 0.0
H2815 H 0.36829 0.54422 0.80555 0.0
H2816 H 0.34477 0.57229 0.81154 0.0
H2817 H 0.40862 0.63857 0.78749 0.0
H2818 H 0.40303 0.65265 0.76164 0.0
H2819 H 0.41495 0.62786 0.75855 0.0
H2820 H 0.38111 0.60743 0.72438 0.0
H2821 H 0.36899 0.63218 0.72756 0.0
H2822 H 0.3517 0.604 0.72996 0.0
H2823 H 0.32701 0.60574 0.81469 0.0
H2824 H 0.31906 0.64439 0.81772 0.0
H2825 H 0.3661 0.66385 0.76696 0.0
C2826 C 0.39043 0.58131 0.76749 0.0
C2827 C 0.38759 0.56198 0.78002 0.0
C2828 C 0.37076 0.55879 0.79566 0.0
C2829 C 0.35717 0.57458 0.79908 0.0
C2830 C 0.36047 0.59348 0.78665 0.0
C2831 C 0.3767 0.597 0.77119 0.0
C2832 C 0.378 0.61975 0.76158 0.0
C2833 C 0.40261 0.63564 0.76771 0.0
C2834 C 0.36944 0.61559 0.73425 0.0
C2835 C 0.36113 0.62908 0.77533 0.0
C2836 C 0.35059 0.61327 0.78899 0.0
C2837 C 0.33494 0.61819 0.80388 0.0
C2838 C 0.33045 0.64012 0.80542 0.0
C2839 C 0.34194 0.65697 0.79255 0.0
C2840 C 0.35705 0.65117 0.7769 0.0
H2841 H 0.20191 0.5898 0.58701 0.0
H2842 H 0.21799 0.58764 0.51422 0.0
H2843 H 0.17654 0.5736 0.49788 0.0
H2844 H 0.14646 0.53865 0.57114 0.0
H2845 H 0.13361 0.55313 0.59346 0.0
H2846 H 0.16431 0.55542 0.59817 0.0
H2847 H 0.17046 0.59999 0.60465 0.0
H2848 H 0.14 0.59783 0.59768 0.0
H2849 H 0.1598 0.61389 0.58051 0.0
H2850 H 0.1334 0.56501 0.48997 0.0
H2851 H 0.09162 0.55466 0.49151 0.0
H2852 H 0.10507 0.57089 0.56933 0.0
C2853 C 0.19668 0.58471 0.56772 0.0
C2854 C 0.21268 0.58955 0.55179 0.0
C2855 C 0.20571 0.58344 0.52658 0.0
C2856 C 0.18222 0.57587 0.51715 0.0
C2857 C 0.16649 0.57397 0.53338 0.0
C2858 C 0.1734 0.57724 0.55813 0.0
C2859 C 0.15322 0.57622 0.5717 0.0
C2860 C 0.14916 0.55458 0.58436 0.0
C2861 C 0.15607 0.59831 0.58966 0.0
C2862 C 0.13431 0.57394 0.55086 0.0
C2863 C 0.14207 0.57193 0.52887 0.0
C2864 C 0.12709 0.56699 0.50705 0.0
C2865 C 0.10334 0.56205 0.50793 0.0
C2866 C 0.09531 0.56337 0.53036 0.0
C2867 C 0.11098 0.57064 0.55191 0.0
H2868 H 0.75444 0.01513 0.78023 0.0
H2869 H 0.71242 0.98435 0.7113 0.0
H2870 H 0.72224 0.94718 0.71588 0.0
H2871 H 0.79869 0.98005 0.7801 0.0
H2872 H 0.79852 0.97796 0.8117 0.0
H2873 H 0.79335 1.00327 0.79996 0.0
H2874 H 0.75467 0.99737 0.81721 0.0
H2875 H 0.75941 0.97187 0.82859 0.0
H2876 H 0.73322 0.9703 0.80844 0.0
H2877 H 0.73209 0.91253 0.73059 0.0
H2878 H 0.74051 0.88273 0.75493 0.0
H2879 H 0.77234 0.93598 0.8157 0.0
C2880 C 0.74848 1.0009 0.76553 0.0
C2881 C 0.73348 1.00252 0.74508 0.0
C2882 C 0.72457 0.98332 0.72676 0.0
C2883 C 0.72999 0.96223 0.72924 0.0
C2884 C 0.74399 0.9608 0.75029 0.0
C2885 C 0.75309 0.97964 0.76814 0.0
C2886 C 0.76412 0.97282 0.79074 0.0
C2887 C 0.79023 0.98419 0.79592 0.0
C2888 C 0.75213 0.97843 0.8125 0.0
C2889 C 0.75934 0.94716 0.78309 0.0
C2890 C 0.74814 0.94056 0.75956 0.0
C2891 C 0.74102 0.91749 0.74896 0.0
C2892 C 0.74561 0.90076 0.76286 0.0
C2893 C 0.75656 0.90738 0.78708 0.0
C2894 C 0.76361 0.93073 0.79725 0.0
H2895 H 0.73602 0.91478 0.54328 0.0
H2896 H 0.77892 0.95836 0.50149 0.0
H2897 H 0.75114 0.98264 0.49893 0.0
H2898 H 0.68308 0.91332 0.51093 0.0
H2899 H 0.66774 0.91484 0.53636 0.0
H2900 H 0.69261 0.90295 0.53822 0.0
H2901 H 0.71155 0.93241 0.57659 0.0
H2902 H 0.68672 0.94456 0.57456 0.0
H2903 H 0.71523 0.96285 0.57547 0.0
H2904 H 0.71766 1.00038 0.49776 0.0
H2905 H 0.67848 0.00728 0.49392 0.0
H2906 H 0.65627 0.95172 0.53494 0.0
C2907 C 0.73974 0.92965 0.53393 0.0
C2908 C 0.75976 0.93469 0.52267 0.0
C2909 C 0.76381 0.95414 0.51035 0.0
C2910 C 0.74821 0.9682 0.50896 0.0
C2911 C 0.72864 0.96273 0.52012 0.0
C2912 C 0.72427 0.94389 0.53232 0.0
C2913 C 0.70086 0.94069 0.54079 0.0
C2914 C 0.68515 0.91652 0.53096 0.0
C2915 C 0.70377 0.9454 0.5685 0.0
C2916 C 0.69209 0.95947 0.52972 0.0
C2917 C 0.70881 0.97263 0.51881 0.0
C2918 C 0.70452 0.9904 0.50649 0.0
C2919 C 0.68228 0.99428 0.50448 0.0
C2920 C 0.66456 0.98008 0.51423 0.0
C2921 C 0.66969 0.9629 0.52755 0.0
H2922 H 0.40387 0.44429 0.79093 0.0
H2923 H 0.37381 0.45532 0.72084 0.0
H2924 H 0.34135 0.42082 0.71955 0.0
H2925 H 0.39118 0.38429 0.78006 0.0
H2926 H 0.38436 0.37981 0.80961 0.0
H2927 H 0.40404 0.40613 0.80576 0.0
H2928 H 0.37863 0.43013 0.82538 0.0
H2929 H 0.35898 0.40383 0.82963 0.0
H2930 H 0.34829 0.42438 0.81348 0.0
H2931 H 0.31557 0.38209 0.72387 0.0
H2932 H 0.29652 0.34446 0.73493 0.0
H2933 H 0.34033 0.36174 0.80457 0.0
C2934 C 0.39016 0.43963 0.77555 0.0
C2935 C 0.39111 0.45228 0.75598 0.0
C2936 C 0.37312 0.44581 0.73604 0.0
C2937 C 0.35473 0.42628 0.73518 0.0
C2938 C 0.35444 0.41389 0.75469 0.0
C2939 C 0.37146 0.42061 0.77472 0.0
C2940 C 0.36753 0.40413 0.79305 0.0
C2941 C 0.38799 0.39293 0.79735 0.0
C2942 C 0.36309 0.41635 0.81679 0.0
C2943 C 0.34591 0.38671 0.78001 0.0
C2944 C 0.33871 0.39253 0.75782 0.0
C2945 C 0.32054 0.37781 0.74154 0.0
C2946 C 0.30962 0.35661 0.74806 0.0
C2947 C 0.31647 0.35062 0.77086 0.0
C2948 C 0.33461 0.36602 0.78712 0.0
H2949 H 0.23561 0.61804 0.22399 0.0
H2950 H 0.23117 0.6029 0.29672 0.0
H2951 H 0.24559 0.64431 0.31257 0.0
H2952 H 0.28624 0.67225 0.23968 0.0
H2953 H 0.27216 0.6847 0.21641 0.0
H2954 H 0.26935 0.65403 0.21286 0.0
H2955 H 0.22476 0.64911 0.20532 0.0
H2956 H 0.22785 0.67973 0.21114 0.0
H2957 H 0.21101 0.66096 0.22867 0.0
H2958 H 0.2523 0.68698 0.31914 0.0
H2959 H 0.26067 0.72868 0.3172 0.0
H2960 H 0.25598 0.71478 0.23924 0.0
C2961 C 0.23929 0.62341 0.24335 0.0
C2962 C 0.23252 0.60774 0.25922 0.0
C2963 C 0.23679 0.61492 0.28445 0.0
C2964 C 0.24456 0.63838 0.29354 0.0
C2965 C 0.24828 0.65383 0.27703 0.0
C2966 C 0.2466 0.64664 0.25255 0.0
C2967 C 0.24864 0.66648 0.23829 0.0
C2968 C 0.27043 0.66952 0.22611 0.0
C2969 C 0.22676 0.66389 0.21979 0.0
C2970 C 0.25103 0.68583 0.25843 0.0
C2971 C 0.25085 0.67827 0.28064 0.0
C2972 C 0.25293 0.69319 0.30191 0.0
C2973 C 0.2573 0.71676 0.30057 0.0
C2974 C 0.25927 0.7248 0.27808 0.0
C2975 C 0.25479 0.70909 0.25669 0.0
H2976 H 0.49775 0.6806 0.45552 0.0
H2977 H 0.52378 0.72376 0.5247 0.0
H2978 H 0.53518 0.69097 0.54122 0.0
H2979 H 0.47329 0.62819 0.4813 0.0
H2980 H 0.48021 0.6087 0.45828 0.0
H2981 H 0.47502 0.63576 0.45143 0.0
H2982 H 0.51496 0.64569 0.43705 0.0
H2983 H 0.52013 0.61873 0.44438 0.0
H2984 H 0.54056 0.64557 0.45732 0.0
H2985 H 0.54517 0.65304 0.55069 0.0
H2986 H 0.54894 0.61344 0.55337 0.0
H2987 H 0.51371 0.59157 0.47975 0.0
C2988 C 0.50605 0.68325 0.4741 0.0
C2989 C 0.5101 0.7055 0.48858 0.0
C2990 C 0.52052 0.70744 0.51296 0.0
C2991 C 0.52713 0.6887 0.52259 0.0
C2992 C 0.52291 0.66721 0.50805 0.0
C2993 C 0.51225 0.66422 0.48436 0.0
C2994 C 0.50863 0.63875 0.47322 0.0
C2995 C 0.48274 0.62718 0.46561 0.0
C2996 C 0.52185 0.63709 0.45171 0.0
C2997 C 0.51899 0.62801 0.49417 0.0
C2998 C 0.52742 0.64499 0.51397 0.0
C2999 C 0.53837 0.63973 0.53525 0.0
C3000 C 0.54058 0.6169 0.53658 0.0
C3001 C 0.53171 0.59864 0.51699 0.0
C3002 C 0.52065 0.60465 0.49537 0.0
H3003 H 0.64342 0.32578 0.67918 0.0
H3004 H 0.63415 0.26263 0.62961 0.0
H3005 H 0.66359 0.251 0.65643 0.0
H3006 H 0.70572 0.33553 0.69406 0.0
H3007 H 0.70741 0.34677 0.7254 0.0
H3008 H 0.68439 0.34997 0.70342 0.0
H3009 H 0.6542 0.32988 0.72814 0.0
H3010 H 0.67718 0.32657 0.75014 0.0
H3011 H 0.65479 0.30166 0.73565 0.0
H3012 H 0.69507 0.24622 0.68725 0.0
H3013 H 0.72754 0.24939 0.71993 0.0
H3014 H 0.71882 0.31558 0.75071 0.0
C3015 C 0.64743 0.3094 0.6742 0.0
C3016 C 0.63617 0.295 0.65215 0.0
C3017 C 0.64236 0.27393 0.64624 0.0
C3018 C 0.65911 0.26712 0.66145 0.0
C3019 C 0.67005 0.28159 0.68277 0.0
C3020 C 0.66463 0.30238 0.68924 0.0
C3021 C 0.68019 0.31502 0.71274 0.0
C3022 C 0.69532 0.3382 0.70865 0.0
C3023 C 0.66572 0.31849 0.73286 0.0
C3024 C 0.69497 0.29808 0.71829 0.0
C3025 C 0.68865 0.2789 0.7007 0.0
C3026 C 0.70003 0.26111 0.7012 0.0
C3027 C 0.71847 0.26301 0.71989 0.0
C3028 C 0.72559 0.28249 0.73809 0.0
C3029 C 0.71349 0.30022 0.73734 0.0
H3030 H 0.99826 0.34768 0.01706 0.0
H3031 H 0.0277 0.34361 0.95065 0.0
H3032 H 0.03514 0.38569 0.95266 0.0
H3033 H 0.971 0.39436 0.00761 0.0
H3034 H 0.97891 0.40927 0.03813 0.0
H3035 H 0.97565 0.37851 0.03228 0.0
H3036 H 0.01719 0.38359 0.0544 0.0
H3037 H 0.0204 0.41435 0.06042 0.0
H3038 H 0.04097 0.40312 0.04508 0.0
H3039 H 0.03829 0.42838 0.96 0.0
H3040 H 0.03989 0.46898 0.97401 0.0
H3041 H 0.01083 0.44935 0.03745 0.0
C3042 C 1.00645 0.35563 0.00303 0.0
C3043 C 0.01233 0.34155 0.98358 0.0
C3044 C 0.02306 0.35329 0.96584 0.0
C3045 C 0.0273 0.37747 0.96674 0.0
C3046 C 0.0212 0.39063 0.98576 0.0
C3047 C 0.01135 0.38029 0.0039 0.0
C3048 C 1.00742 0.39917 0.02271 0.0
C3049 C 0.98171 0.39507 0.02533 0.0
C3050 C 0.02238 0.40011 0.04711 0.0
C3051 C 0.01571 0.42142 0.01175 0.0
C3052 C 0.02369 0.4158 0.99046 0.0
C3053 C 0.03232 0.43287 0.9768 0.0
C3054 C 0.03333 0.45615 0.98508 0.0
C3055 C 0.02599 0.46306 0.00713 0.0
C3056 C 0.01662 0.44507 0.02048 0.0
H3057 H 1.00361 0.7736 0.14647 0.0
H3058 H 0.02965 0.84485 0.18065 0.0
H3059 H 0.99636 0.84084 0.20289 0.0
H3060 H 0.94227 0.77315 0.14014 0.0
H3061 H 0.93359 0.74401 0.14658 0.0
H3062 H 0.95894 0.75273 0.13251 0.0
H3063 H 0.98373 0.73971 0.16665 0.0
H3064 H 0.95843 0.73076 0.18064 0.0
H3065 H 0.98376 0.75105 0.19764 0.0
H3066 H 0.961 0.82818 0.22344 0.0
H3067 H 0.92801 0.8074 0.24127 0.0
H3068 H 0.92411 0.74536 0.1919 0.0
C3069 C 1.00229 0.78841 0.15854 0.0
C3070 C 0.01935 0.80955 0.16176 0.0
C3071 C 0.01686 0.82846 0.17779 0.0
C3072 C 0.99793 0.82639 0.19048 0.0
C3073 C 0.98142 0.80534 0.18685 0.0
C3074 C 0.98341 0.78669 0.17122 0.0
C3075 C 0.96374 0.76574 0.17112 0.0
C3076 C 0.94875 0.75849 0.1461 0.0
C3077 C 0.97297 0.74564 0.17952 0.0
C3078 C 0.95067 0.77535 0.18947 0.0
C3079 C 0.96099 0.79825 0.19828 0.0
C3080 C 0.95264 0.8103 0.21645 0.0
C3081 C 0.93375 0.79841 0.22637 0.0
C3082 C 0.92347 0.77468 0.21815 0.0
C3083 C 0.93168 0.76341 0.19885 0.0
H3084 H 0.54648 0.30727 0.13662 0.0
H3085 H 0.48303 0.31886 0.15908 0.0
H3086 H 0.4868 0.35287 0.13795 0.0
H3087 H 0.57782 0.36542 0.14217 0.0
H3088 H 0.59067 0.36205 0.11517 0.0
H3089 H 0.58254 0.33784 0.13105 0.0
H3090 H 0.5572 0.31394 0.09191 0.0
H3091 H 0.56522 0.33819 0.07595 0.0
H3092 H 0.53512 0.32513 0.07631 0.0
H3093 H 0.498 0.38663 0.11588 0.0
H3094 H 0.51675 0.41842 0.09523 0.0
H3095 H 0.57263 0.38518 0.08627 0.0
C3096 C 0.53337 0.31695 0.13701 0.0
C3097 C 0.51445 0.31036 0.14958 0.0
C3098 C 0.49758 0.32341 0.14948 0.0
C3099 C 0.49956 0.3428 0.1375 0.0
C3100 C 0.51831 0.34883 0.12527 0.0
C3101 C 0.53487 0.33624 0.12474 0.0
C3102 C 0.55335 0.34664 0.11026 0.0
C3103 C 0.57752 0.35339 0.1256 0.0
C3104 C 0.55268 0.32998 0.08725 0.0
C3105 C 0.54531 0.36774 0.10408 0.0
C3106 C 0.52476 0.36836 0.11243 0.0
C3107 C 0.51401 0.38625 0.10911 0.0
C3108 C 0.52472 0.40419 0.09727 0.0
C3109 C 0.54612 0.4043 0.08919 0.0
C3110 C 0.55632 0.38562 0.0924 0.0
H3111 H 0.96226 0.27594 0.31856 0.0
H3112 H 0.99159 0.3494 0.32352 0.0
H3113 H 0.95253 0.35491 0.31083 0.0
H3114 H 0.91741 0.272 0.26366 0.0
H3115 H 0.89636 0.25023 0.27403 0.0
H3116 H 0.9268 0.25198 0.28166 0.0
H3117 H 0.92241 0.25517 0.32684 0.0
H3118 H 0.8921 0.25397 0.31936 0.0
H3119 H 0.91078 0.27791 0.34002 0.0
H3120 H 0.9086 0.35299 0.30569 0.0
H3121 H 0.86594 0.34306 0.29851 0.0
H3122 H 0.86457 0.27043 0.28895 0.0
C3123 C 0.96065 0.29304 0.31572 0.0
C3124 C 0.98053 0.31216 0.32124 0.0
C3125 C 0.97715 0.33434 0.31847 0.0
C3126 C 0.95479 0.33767 0.31167 0.0
C3127 C 0.9356 0.3186 0.30708 0.0
C3128 C 0.93842 0.29656 0.30809 0.0
C3129 C 0.91487 0.27898 0.30206 0.0
C3130 C 0.9138 0.26231 0.27898 0.0
C3131 C 0.90975 0.26573 0.32334 0.0
C3132 C 0.89834 0.29456 0.29803 0.0
C3133 C 0.91065 0.31741 0.30158 0.0
C3134 C 0.89904 0.33507 0.30161 0.0
C3135 C 0.87456 0.32929 0.29703 0.0
C3136 C 0.86137 0.30607 0.29114 0.0
C3137 C 0.87377 0.28848 0.29224 0.0
H3138 H 1.00458 0.68938 0.61945 0.0
H3139 H 0.05166 0.68064 0.68046 0.0
H3140 H 0.06226 0.64983 0.65537 0.0
H3141 H 0.98385 0.6283 0.59663 0.0
H3142 H 0.98182 0.63149 0.56512 0.0
H3143 H 0.97874 0.65447 0.58691 0.0
H3144 H 0.01175 0.68289 0.57235 0.0
H3145 H 0.01498 0.65992 0.55059 0.0
H3146 H 0.03951 0.67626 0.57222 0.0
H3147 H 0.06874 0.62024 0.62459 0.0
H3148 H 0.06745 0.59036 0.59036 0.0
H3149 H 0.01403 0.61356 0.5486 0.0
C3150 C 0.01726 0.68109 0.62737 0.0
C3151 C 0.02731 0.68768 0.65216 0.0
C3152 C 0.04358 0.67603 0.66174 0.0
C3153 C 0.04987 0.65849 0.64754 0.0
C3154 C 0.03965 0.6522 0.62349 0.0
C3155 C 0.0235 0.66286 0.61335 0.0
C3156 C 0.01437 0.65134 0.58721 0.0
C3157 C 0.98813 0.64077 0.58378 0.0
C3158 C 0.02051 0.66864 0.56955 0.0
C3159 C 0.02767 0.63253 0.58462 0.0
C3160 C 0.04247 0.63383 0.60576 0.0
C3161 C 0.05695 0.61885 0.60807 0.0
C3162 C 0.05594 0.60171 0.58861 0.0
C3163 C 0.04019 0.59901 0.56711 0.0
C3164 C 0.02618 0.61505 0.56488 0.0
H3165 H 0.64341 0.80951 0.85556 0.0
H3166 H 0.60816 0.82225 0.78879 0.0
H3167 H 0.64039 0.81459 0.76787 0.0
H3168 H 0.70069 0.83457 0.84988 0.0
H3169 H 0.71298 0.81267 0.86168 0.0
H3170 H 0.6865 0.8175 0.87056 0.0
H3171 H 0.66588 0.77441 0.85596 0.0
H3172 H 0.69248 0.7695 0.84736 0.0
H3173 H 0.66645 0.76198 0.82553 0.0
H3174 H 0.6789 0.80628 0.75437 0.0
H3175 H 0.71709 0.79858 0.75013 0.0
H3176 H 0.72826 0.79199 0.82596 0.0
C3177 C 0.64219 0.8103 0.8364 0.0
C3178 C 0.62266 0.8163 0.824 0.0
C3179 C 0.62229 0.81726 0.79889 0.0
C3180 C 0.6408 0.81306 0.78683 0.0
C3181 C 0.65983 0.80744 0.79976 0.0
C3182 C 0.66034 0.80569 0.824 0.0
C3183 C 0.68254 0.79916 0.83392 0.0
C3184 C 0.6965 0.81705 0.85528 0.0
C3185 C 0.67649 0.77483 0.84114 0.0
C3186 C 0.69547 0.7992 0.81214 0.0
C3187 C 0.68174 0.80334 0.79235 0.0
C3188 C 0.68956 0.8032 0.76994 0.0
C3189 C 0.71152 0.79884 0.76768 0.0
C3190 C 0.72638 0.79516 0.78768 0.0
C3191 C 0.71791 0.79533 0.8103 0.0
H3192 H 0.48977 0.49756 0.69038 0.0
H3193 H 0.45999 0.55658 0.70008 0.0
H3194 H 0.47177 0.56787 0.66179 0.0
H3195 H 0.53918 0.52467 0.66479 0.0
H3196 H 0.53786 0.49948 0.64352 0.0
H3197 H 0.52726 0.49622 0.67174 0.0
H3198 H 0.48742 0.47226 0.64865 0.0
H3199 H 0.498 0.47547 0.6204 0.0
H3200 H 0.47219 0.48434 0.62586 0.0
H3201 H 0.48517 0.57152 0.62084 0.0
H3202 H 0.5009 0.56816 0.58224 0.0
H3203 H 0.52343 0.50801 0.6006 0.0
C3204 C 0.48586 0.51298 0.68462 0.0
C3205 C 0.47397 0.52621 0.69841 0.0
C3206 C 0.46904 0.54613 0.68992 0.0
C3207 C 0.47567 0.55268 0.66815 0.0
C3208 C 0.48718 0.53914 0.65493 0.0
C3209 C 0.49228 0.51973 0.6629 0.0
C3210 C 0.50445 0.50787 0.64517 0.0
C3211 C 0.52863 0.50703 0.65702 0.0
C3212 C 0.48963 0.48355 0.6344 0.0
C3213 C 0.50588 0.52392 0.62625 0.0
C3214 C 0.49547 0.54164 0.63193 0.0
C3215 C 0.4935 0.5578 0.61635 0.0
C3216 C 0.50235 0.55572 0.59444 0.0
C3217 C 0.51343 0.53794 0.58859 0.0
C3218 C 0.51533 0.52199 0.60483 0.0
H3219 H 0.78583 0.15768 0.98595 0.0
H3220 H 0.79548 0.2229 0.03193 0.0
H3221 H 0.79152 0.24227 0.9962 0.0
H3222 H 0.81154 0.18602 0.93083 0.0
H3223 H 0.79043 0.16404 0.91002 0.0
H3224 H 0.80339 0.15703 0.93786 0.0
H3225 H 0.76237 0.14114 0.94785 0.0
H3226 H 0.7492 0.14903 0.92085 0.0
H3227 H 0.74295 0.1599 0.94974 0.0
H3228 H 0.77273 0.25092 0.95953 0.0
H3229 H 0.7498 0.2515 0.92053 0.0
H3230 H 0.75238 0.18121 0.89638 0.0
C3231 C 0.78884 0.17631 0.98829 0.0
C3232 C 0.79102 0.189 0.01142 0.0
C3233 C 0.79398 0.21313 0.01421 0.0
C3234 C 0.79171 0.22422 0.99401 0.0
C3235 C 0.78689 0.21088 0.97132 0.0
C3236 C 0.78648 0.1876 0.96813 0.0
C3237 C 0.77732 0.17668 0.94211 0.0
C3238 C 0.79683 0.17058 0.92946 0.0
C3239 C 0.75674 0.15546 0.94006 0.0
C3240 C 0.76985 0.19658 0.93227 0.0
C3241 C 0.77614 0.21627 0.94926 0.0
C3242 C 0.76874 0.23604 0.94563 0.0
C3243 C 0.75549 0.23609 0.9236 0.0
C3244 C 0.7498 0.2165 0.9055 0.0
C3245 C 0.75677 0.19641 0.90996 0.0
H3246 H 0.13059 0.57637 0.18328 0.0
H3247 H 0.15327 0.513 0.17334 0.0
H3248 H 0.13855 0.50762 0.12977 0.0
H3249 H 0.07992 0.55825 0.15113 0.0
H3250 H 0.07862 0.58358 0.13726 0.0
H3251 H 0.097 0.58638 0.16543 0.0
H3252 H 0.1323 0.6066 0.14684 0.0
H3253 H 0.11389 0.60377 0.11834 0.0
H3254 H 0.13929 0.59256 0.11978 0.0
H3255 H 0.11288 0.50343 0.09226 0.0
H3256 H 0.07869 0.50154 0.06227 0.0
H3257 H 0.07376 0.56818 0.09573 0.0
C3258 C 0.13275 0.56159 0.17175 0.0
C3259 C 0.1424 0.54476 0.18131 0.0
C3260 C 0.14553 0.52584 0.16603 0.0
C3261 C 0.13763 0.5229 0.14134 0.0
C3262 C 0.12739 0.53943 0.13246 0.0
C3263 C 0.12531 0.55867 0.14715 0.0
C3264 C 0.11033 0.57181 0.13418 0.0
C3265 C 0.09029 0.57515 0.1478 0.0
C3266 C 0.12483 0.59506 0.12951 0.0
C3267 C 0.10196 0.55532 0.11105 0.0
C3268 C 0.11279 0.53731 0.10988 0.0
C3269 C 0.10515 0.51798 0.09217 0.0
C3270 C 0.08581 0.51698 0.07535 0.0
C3271 C 0.07495 0.53536 0.07642 0.0
C3272 C 0.08287 0.5546 0.09432 0.0
H3273 H 0.78869 0.86367 0.45327 0.0
H3274 H 0.80694 0.80514 0.48202 0.0
H3275 H 0.80562 0.78604 0.44101 0.0
H3276 H 0.74912 0.82838 0.39786 0.0
H3277 H 0.75843 0.85057 0.37971 0.0
H3278 H 0.75825 0.85831 0.41142 0.0
H3279 H 0.80151 0.88009 0.41485 0.0
H3280 H 0.80129 0.87099 0.38328 0.0
H3281 H 0.822 0.86444 0.40563 0.0
H3282 H 0.80505 0.77384 0.39828 0.0
H3283 H 0.80287 0.76765 0.35445 0.0
H3284 H 0.78527 0.83339 0.35033 0.0
C3285 C 0.79177 0.84658 0.45082 0.0
C3286 C 0.79784 0.8359 0.47104 0.0
C3287 C 0.80225 0.81373 0.46699 0.0
C3288 C 0.80157 0.80268 0.44369 0.0
C3289 C 0.79628 0.81381 0.42427 0.0
C3290 C 0.79115 0.83509 0.42734 0.0
C3291 C 0.78663 0.8431 0.40289 0.0
C3292 C 0.76157 0.84519 0.39769 0.0
C3293 C 0.8039 0.86601 0.4016 0.0
C3294 C 0.79057 0.82322 0.38588 0.0
C3295 C 0.79602 0.80659 0.39888 0.0
C3296 C 0.80074 0.7867 0.38784 0.0
C3297 C 0.79973 0.78349 0.3628 0.0
C3298 C 0.79437 0.80016 0.3487 0.0
C3299 C 0.7895 0.8203 0.3605 0.0
H3300 H 0.47593 0.49209 0.83846 0.0
H3301 H 0.48343 0.56441 0.83192 0.0
H3302 H 0.49786 0.57482 0.87591 0.0
H3303 H 0.455 0.49621 0.89656 0.0
H3304 H 0.4689 0.47487 0.90714 0.0
H3305 H 0.45941 0.47348 0.87533 0.0
H3306 H 0.5011 0.47435 0.86641 0.0
H3307 H 0.50966 0.47483 0.89808 0.0
H3308 H 0.52504 0.49692 0.88284 0.0
H3309 H 0.51232 0.57695 0.92086 0.0
H3310 H 0.52438 0.57068 0.96256 0.0
H3311 H 0.50572 0.49683 0.93971 0.0
C3312 C 0.48079 0.51014 0.84628 0.0
C3313 C 0.479 0.52753 0.83179 0.0
C3314 C 0.48485 0.55089 0.84272 0.0
C3315 C 0.49303 0.55691 0.86766 0.0
C3316 C 0.49466 0.53929 0.88144 0.0
C3317 C 0.48836 0.51636 0.87113 0.0
C3318 C 0.49088 0.5006 0.88989 0.0
C3319 C 0.46713 0.48539 0.89237 0.0
C3320 C 0.50772 0.48584 0.88392 0.0
C3321 C 0.50068 0.51823 0.9123 0.0
C3322 C 0.50242 0.54045 0.90714 0.0
C3323 C 0.51079 0.55959 0.92505 0.0
C3324 C 0.51742 0.5559 0.94877 0.0
C3325 C 0.51579 0.53332 0.95442 0.0
C3326 C 0.50738 0.51428 0.93587 0.0
H3327 H 0.80483 0.18976 0.13068 0.0
H3328 H 0.73713 0.14627 0.13366 0.0
H3329 H 0.73562 0.16936 0.17199 0.0
H3330 H 0.82524 0.20576 0.20014 0.0
H3331 H 0.83875 0.23483 0.19611 0.0
H3332 H 0.83813 0.21101 0.17341 0.0
H3333 H 0.81917 0.23156 0.14159 0.0
H3334 H 0.81858 0.25476 0.16435 0.0
H3335 H 0.79213 0.23863 0.14547 0.0
H3336 H 0.73328 0.20509 0.19485 0.0
H3337 H 0.73991 0.24264 0.22109 0.0
H3338 H 0.81145 0.25983 0.2094 0.0
C3339 C 0.79056 0.18424 0.14043 0.0
C3340 C 0.77099 0.16664 0.12972 0.0
C3341 C 0.75208 0.15997 0.14201 0.0
C3342 C 0.75106 0.17294 0.16359 0.0
C3343 C 0.76929 0.19204 0.17235 0.0
C3344 C 0.7894 0.19704 0.16214 0.0
C3345 C 0.80501 0.22023 0.17361 0.0
C3346 C 0.82814 0.21778 0.18662 0.0
C3347 C 0.80893 0.23726 0.15514 0.0
C3348 C 0.79007 0.2274 0.19107 0.0
C3349 C 0.76905 0.21153 0.18901 0.0
C3350 C 0.7502 0.21702 0.19826 0.0
C3351 C 0.75389 0.2384 0.21254 0.0
C3352 C 0.77639 0.25289 0.21787 0.0
C3353 C 0.79443 0.24801 0.20635 0.0
H3354 H 0.12525 0.52708 0.30171 0.0
H3355 H 0.19351 0.57104 0.3284 0.0
H3356 H 0.18212 0.57934 0.36812 0.0
H3357 H 0.09614 0.55962 0.31926 0.0
H3358 H 0.07277 0.54097 0.33019 0.0
H3359 H 0.08783 0.52899 0.30854 0.0
H3360 H 0.09819 0.5007 0.33665 0.0
H3361 H 0.08222 0.51183 0.35827 0.0
H3362 H 0.11194 0.51144 0.36731 0.0
H3363 H 0.16137 0.59376 0.39724 0.0
H3364 H 0.13305 0.60977 0.41725 0.0
H3365 H 0.0768 0.55833 0.3722 0.0
C3366 C 0.13805 0.537 0.31663 0.0
C3367 C 0.16021 0.5481 0.31264 0.0
C3368 C 0.17659 0.56206 0.33169 0.0
C3369 C 0.17025 0.5668 0.35426 0.0
C3370 C 0.14751 0.55741 0.35727 0.0
C3371 C 0.13172 0.54215 0.33925 0.0
C3372 C 0.10736 0.53839 0.34529 0.0
C3373 C 0.09005 0.54227 0.32459 0.0
C3374 C 0.09946 0.51416 0.35231 0.0
C3375 C 0.11149 0.55684 0.36704 0.0
C3376 C 0.13489 0.56661 0.37438 0.0
C3377 C 0.14306 0.58579 0.39221 0.0
C3378 C 0.12695 0.59509 0.40306 0.0
C3379 C 0.10304 0.58552 0.39564 0.0
C3380 C 0.09514 0.56604 0.37769 0.0
H3381 H 0.79778 0.81389 0.59727 0.0
H3382 H 0.79018 0.88334 0.61611 0.0
H3383 H 0.78302 0.87469 0.65678 0.0
H3384 H 0.75171 0.78709 0.63262 0.0
H3385 H 0.76666 0.76559 0.64047 0.0
H3386 H 0.76901 0.77655 0.61218 0.0
H3387 H 0.81372 0.78807 0.62323 0.0
H3388 H 0.81146 0.77716 0.65144 0.0
H3389 H 0.82696 0.80661 0.65122 0.0
H3390 H 0.77898 0.85919 0.69595 0.0
H3391 H 0.77832 0.83849 0.73094 0.0
H3392 H 0.79058 0.77932 0.68753 0.0
C3393 C 0.79419 0.82711 0.60985 0.0
C3394 C 0.79436 0.84926 0.60352 0.0
C3395 C 0.78969 0.86616 0.62044 0.0
C3396 C 0.7857 0.86141 0.6436 0.0
C3397 C 0.78589 0.83948 0.64936 0.0
C3398 C 0.78967 0.82247 0.63287 0.0
C3399 C 0.7892 0.80043 0.64379 0.0
C3400 C 0.76789 0.78127 0.63153 0.0
C3401 C 0.81169 0.79264 0.64234 0.0
C3402 C 0.78667 0.80834 0.66961 0.0
C3403 C 0.78393 0.83064 0.67213 0.0
C3404 C 0.78092 0.84167 0.69409 0.0
C3405 C 0.78064 0.82965 0.71396 0.0
C3406 C 0.784 0.80692 0.71217 0.0
C3407 C 0.78719 0.79626 0.68956 0.0
H3408 H 0.73584 0.44535 0.50956 0.0
H3409 H 0.76668 0.50024 0.47114 0.0
H3410 H 0.73798 0.52169 0.48234 0.0
H3411 H 0.67492 0.45091 0.50055 0.0
H3412 H 0.67186 0.4456 0.53094 0.0
H3413 H 0.6904 0.43223 0.51448 0.0
H3414 H 0.72458 0.44963 0.54923 0.0
H3415 H 0.70642 0.46334 0.56565 0.0
H3416 H 0.73295 0.48044 0.55863 0.0
H3417 H 0.71045 0.53958 0.50363 0.0
H3418 H 0.6867 0.55234 0.53301 0.0
H3419 H 0.67759 0.48659 0.55963 0.0
C3420 C 0.73613 0.46154 0.50277 0.0
C3421 C 0.75334 0.47126 0.48955 0.0
C3422 C 0.75336 0.4925 0.48112 0.0
C3423 C 0.73718 0.50474 0.48741 0.0
C3424 C 0.72131 0.49526 0.5019 0.0
C3425 C 0.72064 0.47401 0.50929 0.0
C3426 C 0.70481 0.469 0.52779 0.0
C3427 C 0.68427 0.44821 0.51783 0.0
C3428 C 0.71799 0.46541 0.55171 0.0
C3429 C 0.69731 0.49118 0.5305 0.0
C3430 C 0.70649 0.50594 0.51507 0.0
C3431 C 0.70298 0.52808 0.51557 0.0
C3432 C 0.68978 0.53525 0.53236 0.0
C3433 C 0.681 0.52046 0.54862 0.0
C3434 C 0.68455 0.49818 0.54749 0.0
H3435 H 0.2075 0.12968 0.53794 0.0
H3436 H 0.19062 0.14797 0.46702 0.0
H3437 H 0.15288 0.11943 0.46111 0.0
H3438 H 0.17658 0.06715 0.52411 0.0
H3439 H 0.1662 0.06694 0.55274 0.0
H3440 H 0.19335 0.08634 0.55035 0.0
H3441 H 0.17863 0.12102 0.56797 0.0
H3442 H 0.15149 0.10172 0.57034 0.0
H3443 H 0.15186 0.12558 0.55364 0.0
H3444 H 0.11607 0.09224 0.46399 0.0
H3445 H 0.08126 0.06842 0.47591 0.0
H3446 H 0.12021 0.06737 0.54557 0.0
C3447 C 0.19608 0.12705 0.52092 0.0
C3448 C 0.20209 0.14061 0.50263 0.0
C3449 C 0.18641 0.13749 0.48101 0.0
C3450 C 0.16497 0.12131 0.47751 0.0
C3451 C 0.15928 0.1085 0.49595 0.0
C3452 C 0.17427 0.11115 0.5173 0.0
C3453 C 0.16272 0.09675 0.53502 0.0
C3454 C 0.17548 0.07819 0.5409 0.0
C3455 C 0.16108 0.11219 0.5581 0.0
C3456 C 0.13891 0.08591 0.52039 0.0
C3457 C 0.13751 0.09285 0.49783 0.0
C3458 C 0.11703 0.08645 0.48147 0.0
C3459 C 0.09733 0.07296 0.48843 0.0
C3460 C 0.09812 0.0659 0.51155 0.0
C3461 C 0.11931 0.0721 0.52759 0.0
H3462 H 0.19631 0.99384 0.82314 0.0
H3463 H 0.15193 0.98698 0.75456 0.0
H3464 H 0.16682 0.95436 0.73867 0.0
H3465 H 0.24465 0.98321 0.79942 0.0
H3466 H 0.25298 0.96692 0.8224 0.0
H3467 H 0.23729 0.98834 0.82925 0.0
H3468 H 0.20577 0.95739 0.84313 0.0
H3469 H 0.22139 0.93585 0.83614 0.0
H3470 H 0.19158 0.93126 0.82276 0.0
H3471 H 0.18912 0.92507 0.72876 0.0
H3472 H 0.21766 0.90135 0.72593 0.0
H3473 H 0.24666 0.92617 0.80092 0.0
C3474 C 0.18946 0.98526 0.80491 0.0
C3475 C 0.17288 0.993 0.79016 0.0
C3476 C 0.16455 0.98139 0.7663 0.0
C3477 C 0.17285 0.96276 0.75709 0.0
C3478 C 0.18933 0.95573 0.772 0.0
C3479 C 0.19747 0.96652 0.79545 0.0
C3480 C 0.21612 0.95634 0.80723 0.0
C3481 C 0.23911 0.9748 0.81502 0.0
C3482 C 0.20824 0.94451 0.82858 0.0
C3483 C 0.21773 0.93877 0.78649 0.0
C3484 C 0.20194 0.93849 0.7664 0.0
C3485 C 0.20127 0.92483 0.7445 0.0
C3486 C 0.21745 0.91145 0.74303 0.0
C3487 C 0.2339 0.91184 0.76334 0.0
C3488 C 0.23381 0.92531 0.78539 0.0
H3489 H 0.37013 0.96963 0.98399 0.0
H3490 H 0.3646 0.98727 0.05907 0.0
H3491 H 0.40443 0.01221 0.06616 0.0
H3492 H 0.41875 0.95691 0.99492 0.0
H3493 H 0.43274 0.96716 0.97036 0.0
H3494 H 0.40173 0.95909 0.96703 0.0
H3495 H 0.3987 0.99941 0.95714 0.0
H3496 H 0.42969 0.00709 0.95851 0.0
H3497 H 0.41599 0.02497 0.97662 0.0
H3498 H 0.44661 0.02806 0.0668 0.0
H3499 H 0.48705 0.03783 0.05944 0.0
H3500 H 0.46559 1.00242 0.98616 0.0
C3501 C 0.37687 0.98016 0.00142 0.0
C3502 C 0.3646 0.97736 0.02093 0.0
C3503 C 0.37389 0.99001 0.04395 0.0
C3504 C 0.39645 1.004 0.04809 0.0
C3505 C 0.40916 1.00455 0.02901 0.0
C3506 C 0.39956 0.99333 0.00591 0.0
C3507 C 0.41781 0.99239 0.98991 0.0
C3508 C 0.41773 0.9674 0.98001 0.0
C3509 C 0.4154 0.00683 0.96934 0.0
C3510 C 0.43907 1.00353 0.00798 0.0
C3511 C 0.43384 0.01105 0.03017 0.0
C3512 C 0.45093 0.02228 0.04948 0.0
C3513 C 0.47392 0.0272 0.04539 0.0
C3514 C 0.4793 0.01993 0.02258 0.0
C3515 C 0.46179 0.00738 0.00401 0.0
H3516 H 0.82897 0.55235 0.78474 0.0
H3517 H 0.8596 0.58979 0.85567 0.0
H3518 H 0.84509 0.62335 0.84529 0.0
H3519 H 0.84852 0.59397 0.75529 0.0
H3520 H 0.8243 0.58925 0.73148 0.0
H3521 H 0.82921 0.56565 0.74641 0.0
H3522 H 0.78814 0.55774 0.75827 0.0
H3523 H 0.78249 0.58069 0.74237 0.0
H3524 H 0.77855 0.58098 0.77356 0.0
H3525 H 0.83667 0.65497 0.82387 0.0
H3526 H 0.83021 0.68136 0.79461 0.0
H3527 H 0.80707 0.62314 0.73713 0.0
C3528 C 0.83143 0.56722 0.79846 0.0
C3529 C 0.84509 0.56883 0.82089 0.0
C3530 C 0.8487 0.5884 0.83852 0.0
C3531 C 0.84065 0.60747 0.8327 0.0
C3532 C 0.82894 0.60616 0.80943 0.0
C3533 C 0.82385 0.58627 0.79277 0.0
C3534 C 0.81482 0.59023 0.76787 0.0
C3535 C 0.83014 0.58444 0.7492 0.0
C3536 C 0.78949 0.57662 0.76007 0.0
C3537 C 0.81695 0.61577 0.77273 0.0
C3538 C 0.82471 0.62461 0.79683 0.0
C3539 C 0.82999 0.64818 0.80511 0.0
C3540 C 0.82661 0.66299 0.7884 0.0
C3541 C 0.81836 0.65407 0.76378 0.0
C3542 C 0.81361 0.63027 0.75587 0.0
H3543 H 0.83135 0.62634 0.98172 0.0
H3544 H 0.83313 0.66844 0.0501 0.0
H3545 H 0.86492 0.65355 0.06842 0.0
H3546 H 0.83973 0.57752 0.00513 0.0
H3547 H 0.85821 0.56998 0.98431 0.0
H3548 H 0.83758 0.58607 0.97549 0.0
H3549 H 0.8706 0.61812 0.96559 0.0
H3550 H 0.89138 0.60211 0.97454 0.0
H3551 H 0.89524 0.63152 0.98842 0.0
H3552 H 0.89278 0.63101 0.08091 0.0
H3553 H 0.91517 0.60173 0.08648 0.0
H3554 H 0.89687 0.57484 0.0103 0.0
C3555 C 0.83872 0.63274 0.00041 0.0
C3556 C 0.82968 0.64859 0.01442 0.0
C3557 C 0.83968 0.65632 0.03892 0.0
C3558 C 0.85787 0.64806 0.04952 0.0
C3559 C 0.86612 0.63222 0.03537 0.0
C3560 C 0.85703 0.62471 0.01131 0.0
C3561 C 0.86808 0.60636 0.00071 0.0
C3562 C 0.8498 0.58364 0.99084 0.0
C3563 C 0.88216 0.61505 0.98115 0.0
C3564 C 0.8838 0.60391 0.02289 0.0
C3565 C 0.88268 0.61931 0.04259 0.0
C3566 C 0.89414 0.61914 0.06557 0.0
C3567 C 0.9067 0.60247 0.06861 0.0
C3568 C 0.90768 0.58632 0.04878 0.0
C3569 C 0.89656 0.58735 0.02558 0.0
H3570 H 0.18769 0.13875 0.82218 0.0
H3571 H 0.19158 0.09571 0.75667 0.0
H3572 H 0.22203 0.12727 0.74696 0.0
H3573 H 0.19343 0.19039 0.80185 0.0
H3574 H 0.21243 0.20813 0.82772 0.0
H3575 H 0.1934 0.1813 0.83123 0.0
H3576 H 0.22831 0.16739 0.85023 0.0
H3577 H 0.24747 0.19441 0.84705 0.0
H3578 H 0.25247 0.16752 0.83418 0.0
H3579 H 0.24857 0.16524 0.74205 0.0
H3580 H 0.2705 0.20579 0.7435 0.0
H3581 H 0.24999 0.22373 0.81273 0.0
C3582 C 0.19557 0.13579 0.80624 0.0
C3583 C 0.18762 0.11475 0.79032 0.0
C3584 C 0.1979 0.11151 0.76936 0.0
C3585 C 0.21509 0.1294 0.76365 0.0
C3586 C 0.22224 0.15017 0.77944 0.0
C3587 C 0.21321 0.15324 0.80064 0.0
C3588 C 0.22345 0.17743 0.81419 0.0
C3589 C 0.20454 0.19004 0.819 0.0
C3590 C 0.23883 0.17664 0.83781 0.0
C3591 C 0.23801 0.18808 0.79632 0.0
C3592 C 0.23762 0.17193 0.7767 0.0
C3593 C 0.24934 0.1779 0.75756 0.0
C3594 C 0.26177 0.20094 0.75852 0.0
C3595 C 0.26199 0.21778 0.77824 0.0
C3596 C 0.25009 0.21116 0.79742 0.0
H3597 H 0.32842 0.94664 0.25211 0.0
H3598 H 0.3497 0.97141 0.32852 0.0
H3599 H 0.33418 0.93236 0.33778 0.0
H3600 H 0.27329 0.90121 0.25984 0.0
H3601 H 0.27764 0.88219 0.23471 0.0
H3602 H 0.28573 0.91301 0.23506 0.0
H3603 H 0.32692 0.90943 0.22854 0.0
H3604 H 0.31934 0.87897 0.22992 0.0
H3605 H 0.34349 0.89757 0.25043 0.0
H3606 H 0.32923 0.89038 0.33714 0.0
H3607 H 0.31879 0.84771 0.32848 0.0
H3608 H 0.29326 0.85079 0.25404 0.0
C3609 C 0.32818 0.94407 0.27077 0.0
C3610 C 0.33987 0.96169 0.28963 0.0
C3611 C 0.34023 0.95797 0.31395 0.0
C3612 C 0.33183 0.93585 0.31936 0.0
C3613 C 0.3223 0.91824 0.3002 0.0
C3614 C 0.31909 0.92225 0.27649 0.0
C3615 C 0.30942 0.90002 0.25927 0.0
C3616 C 0.28506 0.89905 0.24648 0.0
C3617 C 0.32578 0.89631 0.24099 0.0
C3618 C 0.3087 0.88303 0.27695 0.0
C3619 C 0.31695 0.89385 0.30035 0.0
C3620 C 0.32142 0.88167 0.31919 0.0
C3621 C 0.31561 0.85764 0.31416 0.0
C3622 C 0.30459 0.84654 0.29094 0.0
C3623 C 0.30148 0.85917 0.27199 0.0
H3624 H 0.56009 0.37735 0.602 0.0
H3625 H 0.57852 0.35063 0.53444 0.0
H3626 H 0.57193 0.38465 0.51703 0.0
H3627 H 0.51544 0.40486 0.57494 0.0
H3628 H 0.52319 0.43007 0.59764 0.0
H3629 H 0.52791 0.40299 0.60514 0.0
H3630 H 0.5711 0.4226 0.6202 0.0
H3631 H 0.56641 0.44969 0.61276 0.0
H3632 H 0.58824 0.43798 0.60033 0.0
H3633 H 0.5617 0.42153 0.50513 0.0
H3634 H 0.55335 0.45951 0.50181 0.0
H3635 H 0.54509 0.46712 0.57727 0.0
C3636 C 0.56253 0.37849 0.58346 0.0
C3637 C 0.56972 0.36035 0.56974 0.0
C3638 C 0.57299 0.36354 0.54567 0.0
C3639 C 0.56921 0.38307 0.53543 0.0
C3640 C 0.56231 0.4004 0.5492 0.0
C3641 C 0.55924 0.39855 0.57287 0.0
C3642 C 0.5527 0.42054 0.58373 0.0
C3643 C 0.52837 0.41424 0.5908 0.0
C3644 C 0.57069 0.43347 0.60556 0.0
C3645 C 0.55296 0.43497 0.56271 0.0
C3646 C 0.55801 0.42257 0.5428 0.0
C3647 C 0.55806 0.43138 0.52082 0.0
C3648 C 0.5532 0.4532 0.51903 0.0
C3649 C 0.54885 0.46711 0.53916 0.0
C3650 C 0.54874 0.4575 0.56143 0.0
H3651 H 0.42733 0.73633 0.38396 0.0
H3652 H 0.44254 0.80088 0.43271 0.0
H3653 H 0.41137 0.81279 0.40885 0.0
H3654 H 0.4105 0.76045 0.32785 0.0
H3655 H 0.38743 0.73526 0.31578 0.0
H3656 H 0.41246 0.73251 0.33523 0.0
H3657 H 0.38534 0.71267 0.36311 0.0
H3658 H 0.36048 0.71599 0.3438 0.0
H3659 H 0.36546 0.72744 0.37545 0.0
H3660 H 0.37866 0.81828 0.38086 0.0
H3661 H 0.34454 0.81616 0.35086 0.0
H3662 H 0.34655 0.74747 0.32015 0.0
C3663 C 0.42421 0.75306 0.38935 0.0
C3664 C 0.43759 0.76776 0.41035 0.0
C3665 C 0.43264 0.78934 0.41686 0.0
C3666 C 0.41495 0.79631 0.40333 0.0
C3667 C 0.40186 0.7815 0.38313 0.0
C3668 C 0.40609 0.76029 0.37601 0.0
C3669 C 0.38835 0.74755 0.35397 0.0
C3670 C 0.40042 0.74373 0.3319 0.0
C3671 C 0.37406 0.72454 0.35942 0.0
C3672 C 0.37333 0.7647 0.35043 0.0
C3673 C 0.38186 0.78428 0.36734 0.0
C3674 C 0.37156 0.80284 0.36785 0.0
C3675 C 0.35185 0.80134 0.35098 0.0
C3676 C 0.34197 0.78126 0.33401 0.0
C3677 C 0.35326 0.76283 0.33338 0.0
H3678 H 0.061 0.71467 0.1032 0.0
H3679 H 0.0648 0.73202 0.03103 0.0
H3680 H 0.0597 0.69098 0.01536 0.0
H3681 H 0.09308 0.66987 0.09628 0.0
H3682 H 0.07653 0.65081 0.11373 0.0
H3683 H 0.0796 0.68152 0.11995 0.0
H3684 H 0.03511 0.6749 0.11399 0.0
H3685 H 0.03198 0.64418 0.10793 0.0
H3686 H 0.01807 0.65852 0.08632 0.0
H3687 H 0.05668 0.64803 0.00692 0.0
H3688 H 0.05269 0.60627 0.00595 0.0
H3689 H 0.04911 0.61326 0.0826 0.0
C3690 C 0.06029 0.7098 0.08401 0.0
C3691 C 0.06309 0.72724 0.06841 0.0
C3692 C 0.06265 0.71959 0.04355 0.0
C3693 C 0.0598 0.69607 0.03439 0.0
C3694 C 0.05753 0.67957 0.05008 0.0
C3695 C 0.05762 0.68598 0.07441 0.0
C3696 C 0.05551 0.66439 0.08717 0.0
C3697 C 0.07748 0.6668 0.10538 0.0
C3698 C 0.03387 0.66026 0.09959 0.0
C3699 C 0.05344 0.64492 0.06615 0.0
C3700 C 0.05519 0.6544 0.04505 0.0
C3701 C 0.05508 0.64055 0.02337 0.0
C3702 C 0.05291 0.61662 0.02302 0.0
C3703 C 0.05041 0.60588 0.04402 0.0
C3704 C 0.05065 0.62053 0.06602 0.0
H3705 H 0.05585 0.29626 0.86773 0.0
H3706 H 0.07264 0.25913 0.92635 0.0
H3707 H 0.10966 0.25782 0.91235 0.0
H3708 H 0.08353 0.26586 0.823 0.0
H3709 H 0.09355 0.29155 0.80981 0.0
H3710 H 0.0672 0.28751 0.82282 0.0
H3711 H 0.08345 0.32673 0.85074 0.0
H3712 H 0.10969 0.33091 0.83769 0.0
H3713 H 0.111 0.3319 0.86989 0.0
H3714 H 0.14611 0.26259 0.89359 0.0
H3715 H 0.18001 0.27557 0.87307 0.0
H3716 H 0.14027 0.31041 0.82746 0.0
C3717 C 0.06716 0.28759 0.87745 0.0
C3718 C 0.06119 0.27775 0.89814 0.0
C3719 C 0.07667 0.26674 0.91041 0.0
C3720 C 0.09776 0.26581 0.90254 0.0
C3721 C 0.10318 0.27581 0.88221 0.0
C3722 C 0.08833 0.28649 0.86981 0.0
C3723 C 0.0989 0.29705 0.84933 0.0
C3724 C 0.08496 0.28476 0.82479 0.0
C3725 C 0.10088 0.3232 0.8521 0.0
C3726 C 0.1225 0.29181 0.85305 0.0
C3727 C 0.12436 0.27894 0.87166 0.0
C3728 C 0.14476 0.27249 0.87886 0.0
C3729 C 0.16388 0.27986 0.86712 0.0
C3730 C 0.16257 0.29381 0.84872 0.0
C3731 C 0.14153 0.29956 0.84137 0.0
H3732 H 0.53119 0.76949 0.93464 0.0
H3733 H 0.56617 0.75049 0.87557 0.0
H3734 H 0.56825 0.71412 0.89173 0.0
H3735 H 0.56241 0.74547 0.98118 0.0
H3736 H 0.53692 0.73605 0.99484 0.0
H3737 H 0.54021 0.76117 0.97972 0.0
H3738 H 0.50083 0.74294 0.95221 0.0
H3739 H 0.49736 0.71797 0.96745 0.0
H3740 H 0.49607 0.7146 0.93513 0.0
H3741 H 0.56241 0.67723 0.91315 0.0
H3742 H 0.54866 0.64511 0.93615 0.0
H3743 H 0.51921 0.69014 0.98129 0.0
C3744 C 0.53967 0.75794 0.92519 0.0
C3745 C 0.54862 0.76304 0.90379 0.0
C3746 C 0.55938 0.74718 0.89208 0.0
C3747 C 0.56061 0.72644 0.90117 0.0
C3748 C 0.55127 0.72188 0.92218 0.0
C3749 C 0.54114 0.73741 0.93404 0.0
C3750 C 0.53113 0.72829 0.95541 0.0
C3751 C 0.54341 0.74367 0.9792 0.0
C3752 C 0.5048 0.7258 0.95235 0.0
C3753 C 0.53675 0.70497 0.95365 0.0
C3754 C 0.54846 0.70141 0.93449 0.0
C3755 C 0.55365 0.68014 0.92844 0.0
C3756 C 0.54601 0.66201 0.94174 0.0
C3757 C 0.53327 0.66527 0.96081 0.0
C3758 C 0.52937 0.6873 0.96717 0.0
H3759 H 0.1013 0.73002 0.73924 0.0
H3760 H 0.09939 0.79939 0.72685 0.0
H3761 H 0.14219 0.8114 0.73574 0.0
H3762 H 0.15005 0.7436 0.78736 0.0
H3763 H 0.16253 0.72076 0.77614 0.0
H3764 H 0.13179 0.71757 0.76945 0.0
H3765 H 0.13381 0.70967 0.72385 0.0
H3766 H 0.16461 0.71295 0.73056 0.0
H3767 H 0.15334 0.73035 0.7105 0.0
H3768 H 0.18608 0.81593 0.74514 0.0
H3769 H 0.22612 0.81278 0.75456 0.0
H3770 H 0.20136 0.74084 0.76157 0.0
C3771 C 0.10985 0.74784 0.73873 0.0
C3772 C 0.09648 0.76385 0.73269 0.0
C3773 C 0.10879 0.78677 0.73155 0.0
C3774 C 0.13328 0.79375 0.73657 0.0
C3775 C 0.14582 0.77763 0.74232 0.0
C3776 C 0.13452 0.75504 0.74324 0.0
C3777 C 0.15234 0.74095 0.74877 0.0
C3778 C 0.14896 0.73009 0.77182 0.0
C3779 C 0.15093 0.72237 0.72715 0.0
C3780 C 0.17531 0.75935 0.75215 0.0
C3781 C 0.17106 0.78025 0.74778 0.0
C3782 C 0.18939 0.79958 0.74864 0.0
C3783 C 0.2124 0.7976 0.75401 0.0
C3784 C 0.21765 0.77663 0.75911 0.0
C3785 C 0.19846 0.75725 0.75819 0.0
H3786 H 0.03641 0.37659 0.43727 0.0
H3787 H 0.07968 0.40103 0.38479 0.0
H3788 H 0.0839 0.44149 0.40387 0.0
H3789 H 1.00519 0.41896 0.4381 0.0
H3790 H 1.00372 0.42108 0.46996 0.0
H3791 H 1.00616 0.39451 0.45361 0.0
H3792 H 0.04291 0.39546 0.48347 0.0
H3793 H 0.04035 0.42199 0.49996 0.0
H3794 H 0.06685 0.4207 0.48862 0.0
H3795 H 0.08123 0.48023 0.42864 0.0
H3796 H 0.07281 0.51164 0.45569 0.0
H3797 H 0.02868 0.46061 0.48905 0.0
C3798 C 0.04709 0.39034 0.42982 0.0
C3799 C 0.0578 0.38537 0.40939 0.0
C3800 C 0.07151 0.40416 0.40048 0.0
C3801 C 0.07388 0.42725 0.41121 0.0
C3802 C 0.06256 0.4314 0.43097 0.0
C3803 C 0.04956 0.41328 0.44021 0.0
C3804 C 0.03832 0.42193 0.46093 0.0
C3805 C 0.01178 0.41363 0.45529 0.0
C3806 C 0.04767 0.41458 0.48464 0.0
C3807 C 0.04641 0.44783 0.46165 0.0
C3808 C 0.06069 0.4531 0.44455 0.0
C3809 C 0.07019 0.47608 0.44211 0.0
C3810 C 0.06519 0.4939 0.45758 0.0
C3811 C 0.05056 0.48888 0.47527 0.0
C3812 C 0.04084 0.46536 0.4768 0.0
H3813 H 0.45433 0.28021 0.21468 0.0
H3814 H 0.46026 0.22338 0.25423 0.0
H3815 H 0.42294 0.2229 0.26719 0.0
H3816 H 0.42654 0.30961 0.25967 0.0
H3817 H 0.4069 0.31816 0.2378 0.0
H3818 H 0.4343 0.31444 0.23046 0.0
H3819 H 0.41297 0.28553 0.1927 0.0
H3820 H 0.38557 0.28918 0.20016 0.0
H3821 H 0.39073 0.26075 0.19602 0.0
H3822 H 0.38357 0.22604 0.27516 0.0
H3823 H 0.34668 0.23573 0.2808 0.0
H3824 H 0.36394 0.29288 0.24037 0.0
C3825 C 0.44784 0.26769 0.22611 0.0
C3826 C 0.46116 0.25173 0.23315 0.0
C3827 C 0.45129 0.2359 0.24825 0.0
C3828 C 0.4297 0.23537 0.25583 0.0
C3829 C 0.41721 0.25096 0.2487 0.0
C3830 C 0.42589 0.26711 0.2344 0.0
C3831 C 0.40842 0.2821 0.23016 0.0
C3832 C 0.41972 0.3076 0.24012 0.0
C3833 C 0.39886 0.27923 0.20315 0.0
C3834 C 0.38909 0.27195 0.24453 0.0
C3835 C 0.39455 0.25365 0.25457 0.0
C3836 C 0.37931 0.24054 0.26758 0.0
C3837 C 0.35814 0.24617 0.27068 0.0
C3838 C 0.35194 0.26523 0.26146 0.0
C3839 C 0.36796 0.27835 0.24812 0.0
H3840 H 0.59127 0.51671 0.35514 0.0
H3841 H 0.61135 0.59156 0.36298 0.0
H3842 H 0.60209 0.59402 0.40422 0.0
H3843 H 0.54261 0.51455 0.38801 0.0
H3844 H 0.54621 0.49005 0.40233 0.0
H3845 H 0.55543 0.49344 0.37346 0.0
H3846 H 0.5966 0.49128 0.39103 0.0
H3847 H 0.58738 0.4878 0.41989 0.0
H3848 H 0.61193 0.51082 0.41769 0.0
H3849 H 0.58646 0.58942 0.44201 0.0
H3850 H 0.56947 0.57752 0.47757 0.0
H3851 H 0.56228 0.50572 0.44954 0.0
C3852 C 0.59396 0.53353 0.36574 0.0
C3853 C 0.60194 0.55401 0.35571 0.0
C3854 C 0.605 0.57569 0.37009 0.0
C3855 C 0.59984 0.57729 0.39361 0.0
C3856 C 0.59144 0.55703 0.4028 0.0
C3857 C 0.58861 0.5355 0.38956 0.0
C3858 C 0.57835 0.51668 0.40401 0.0
C3859 C 0.55422 0.50286 0.39118 0.0
C3860 C 0.59455 0.50071 0.40842 0.0
C3861 C 0.5766 0.53112 0.42747 0.0
C3862 C 0.58377 0.55437 0.42592 0.0
C3863 C 0.58158 0.57131 0.44386 0.0
C3864 C 0.57211 0.56442 0.46411 0.0
C3865 C 0.56602 0.54089 0.46708 0.0
C3866 C 0.56798 0.52393 0.44831 0.0
H3867 H 0.30766 0.91434 0.07968 0.0
H3868 H 0.27676 0.84775 0.03654 0.0
H3869 H 0.26934 0.83064 0.0735 0.0
H3870 H 0.34067 0.89529 0.11825 0.0
H3871 H 0.33981 0.91412 0.14517 0.0
H3872 H 0.3344 0.923 0.11627 0.0
H3873 H 0.29489 0.92903 0.12553 0.0
H3874 H 0.30017 0.92002 0.15468 0.0
H3875 H 0.27413 0.9057 0.13406 0.0
H3876 H 0.27388 0.81905 0.11334 0.0
H3877 H 0.29415 0.81278 0.15178 0.0
H3878 H 0.32492 0.88625 0.16975 0.0
C3879 C 0.2982 0.89645 0.0782 0.0
C3880 C 0.29207 0.8823 0.05567 0.0
C3881 C 0.28097 0.85873 0.05388 0.0
C3882 C 0.27657 0.84902 0.07472 0.0
C3883 C 0.28374 0.86315 0.09704 0.0
C3884 C 0.29443 0.88644 0.09891 0.0
C3885 C 0.30556 0.89657 0.12456 0.0
C3886 C 0.33163 0.90786 0.12612 0.0
C3887 C 0.29292 0.91385 0.13534 0.0
C3888 C 0.30138 0.87492 0.1363 0.0
C3889 C 0.2877 0.8561 0.12047 0.0
C3890 C 0.28407 0.8337 0.12613 0.0
C3891 C 0.29566 0.83026 0.14793 0.0
C3892 C 0.31103 0.8491 0.16337 0.0
C3893 C 0.31303 0.87172 0.15809 0.0
H3894 H 0.94552 0.56064 0.88371 0.0
H3895 H 0.90844 0.4886 0.86743 0.0
H3896 H 0.92714 0.48116 0.90608 0.0
H3897 H 0.9958 0.5525 0.90514 0.0
H3898 H 1.00509 0.57624 0.92953 0.0
H3899 H 0.9849 0.57795 0.90397 0.0
H3900 H 0.95497 0.58521 0.93155 0.0
H3901 H 0.97556 0.58465 0.95741 0.0
H3902 H 0.94687 0.56577 0.95288 0.0
H3903 H 0.96005 0.47928 0.93576 0.0
H3904 H 0.99477 0.48583 0.96691 0.0
H3905 H 1.00506 0.5597 0.96913 0.0
C3906 C 0.94036 0.54375 0.88919 0.0
C3907 C 0.9257 0.52519 0.87326 0.0
C3908 C 0.9196 0.50295 0.88 0.0
C3909 C 0.93015 0.49856 0.90172 0.0
C3910 C 0.94606 0.51685 0.91644 0.0
C3911 C 0.9503 0.53927 0.91115 0.0
C3912 C 0.96981 0.55524 0.92885 0.0
C3913 C 0.99007 0.56611 0.9161 0.0
C3914 C 0.96127 0.57381 0.94355 0.0
C3915 C 0.97632 0.53815 0.94418 0.0
C3916 C 0.96305 0.51593 0.93617 0.0
C3917 C 0.96957 0.49667 0.9435 0.0
C3918 C 0.98935 0.50045 0.96073 0.0
C3919 C 1.001 0.52321 0.97114 0.0
C3920 C 0.99497 0.54222 0.96244 0.0
H3921 H 0.24517 0.22387 0.59298 0.0
H3922 H 0.31686 0.22616 0.58703 0.0
H3923 H 0.32793 0.24098 0.63076 0.0
H3924 H 0.25434 0.27424 0.63624 0.0
H3925 H 0.23192 0.26209 0.65284 0.0
H3926 H 0.2296 0.25183 0.62123 0.0
H3927 H 0.22529 0.21003 0.63059 0.0
H3928 H 0.22743 0.22023 0.66226 0.0
H3929 H 0.24698 0.20385 0.65211 0.0
H3930 H 0.33139 0.25923 0.67452 0.0
H3931 H 0.32674 0.27467 0.71539 0.0
H3932 H 0.25225 0.25541 0.6947 0.0
C3933 C 0.26321 0.22756 0.6009 0.0
C3934 C 0.28026 0.22428 0.58645 0.0
C3935 C 0.30357 0.22875 0.59763 0.0
C3936 C 0.30999 0.23717 0.62248 0.0
C3937 C 0.2928 0.24041 0.63615 0.0
C3938 C 0.26981 0.23525 0.62584 0.0
C3939 C 0.25464 0.23961 0.6447 0.0
C3940 C 0.24187 0.25804 0.63835 0.0
C3941 C 0.23757 0.21709 0.64758 0.0
C3942 C 0.2727 0.24851 0.66716 0.0
C3943 C 0.29462 0.24911 0.66173 0.0
C3944 C 0.31423 0.25829 0.67902 0.0
C3945 C 0.31138 0.26698 0.70236 0.0
C3946 C 0.28907 0.26592 0.70875 0.0
C3947 C 0.2695 0.25634 0.69073 0.0
H3948 H 0.57687 0.56821 0.21191 0.0
H3949 H 0.61647 0.51634 0.21441 0.0
H3950 H 0.60902 0.50796 0.16994 0.0
H3951 H 0.53313 0.53707 0.16089 0.0
H3952 H 0.53101 0.56287 0.14829 0.0
H3953 H 0.53885 0.56429 0.18039 0.0
H3954 H 0.57609 0.59582 0.17937 0.0
H3955 H 0.56848 0.59421 0.14724 0.0
H3956 H 0.59606 0.58998 0.15953 0.0
H3957 H 0.59821 0.50573 0.12517 0.0
H3958 H 0.58343 0.50853 0.08329 0.0
H3959 H 0.55053 0.56178 0.10878 0.0
C3960 C 0.58374 0.55485 0.20316 0.0
C3961 C 0.59716 0.54281 0.2169 0.0
C3962 C 0.60598 0.52568 0.20452 0.0
C3963 C 0.60193 0.52087 0.17918 0.0
C3964 C 0.58896 0.53327 0.16626 0.0
C3965 C 0.57984 0.5498 0.17779 0.0
C3966 C 0.56656 0.56068 0.1595 0.0
C3967 C 0.54086 0.55594 0.16244 0.0
C3968 C 0.57746 0.58672 0.16154 0.0
C3969 C 0.56976 0.54776 0.13588 0.0
C3970 C 0.58274 0.53203 0.14031 0.0
C3971 C 0.58792 0.51789 0.12156 0.0
C3972 C 0.57933 0.51954 0.09774 0.0
C3973 C 0.56561 0.53519 0.09255 0.0
C3974 C 0.56106 0.54973 0.11202 0.0
H3975 H 0.27601 0.87284 0.92973 0.0
H3976 H 0.3455 0.914 0.92994 0.0
H3977 H 0.34487 0.89584 0.88838 0.0
H3978 H 0.2868 0.82391 0.90433 0.0
H3979 H 0.25882 0.8113 0.88647 0.0
H3980 H 0.26138 0.83128 0.91344 0.0
H3981 H 0.24168 0.85761 0.88937 0.0
H3982 H 0.23834 0.83728 0.86239 0.0
H3983 H 0.25277 0.86719 0.86297 0.0
H3984 H 0.3433 0.86333 0.85807 0.0
H3985 H 0.33432 0.82739 0.82898 0.0
H3986 H 0.26357 0.81182 0.84231 0.0
C3987 C 0.29052 0.87872 0.92041 0.0
C3988 C 0.31084 0.89449 0.93252 0.0
C3989 C 0.32997 0.9016 0.9206 0.0
C3990 C 0.3297 0.89153 0.89712 0.0
C3991 C 0.31014 0.8746 0.88615 0.0
C3992 C 0.29052 0.86869 0.89696 0.0
C3993 C 0.27336 0.84758 0.88276 0.0
C3994 C 0.2699 0.82735 0.89763 0.0
C3995 C 0.25017 0.85277 0.87383 0.0
C3996 C 0.28635 0.84291 0.86229 0.0
C3997 C 0.30803 0.85793 0.86534 0.0
C3998 C 0.32576 0.8527 0.85374 0.0
C3999 C 0.3206 0.83239 0.83732 0.0
C4000 C 0.29763 0.81904 0.83148 0.0
C4001 C 0.28052 0.82373 0.84462 0.0
H4002 H 0.94464 0.49328 0.74937 0.0
H4003 H 0.9179 0.55293 0.73755 0.0
H4004 H 0.93566 0.55513 0.69996 0.0
H4005 H 0.99824 0.50874 0.72671 0.0
H4006 H 0.99544 0.4795 0.71284 0.0
H4007 H 0.98292 0.48478 0.73967 0.0
H4008 H 0.94262 0.46048 0.71785 0.0
H4009 H 0.95499 0.45481 0.69108 0.0
H4010 H 0.93067 0.46764 0.68967 0.0
H4011 H 0.95159 0.54598 0.66053 0.0
H4012 H 0.96393 0.52743 0.62475 0.0
H4013 H 0.98205 0.47598 0.66631 0.0
C4014 C 0.94271 0.50715 0.73925 0.0
C4015 C 0.92989 0.52292 0.74625 0.0
C4016 C 0.92779 0.54072 0.73239 0.0
C4017 C 0.93781 0.54207 0.71113 0.0
C4018 C 0.94989 0.52564 0.70449 0.0
C4019 C 0.95233 0.50863 0.71837 0.0
C4020 C 0.96375 0.49145 0.70678 0.0
C4021 C 0.98645 0.49113 0.72243 0.0
C4022 C 0.94702 0.46719 0.70102 0.0
C4023 C 0.96795 0.50153 0.68416 0.0
C4024 C 0.95961 0.52104 0.68276 0.0
C4025 C 0.9587 0.5311 0.66173 0.0
C4026 C 0.96584 0.52047 0.64154 0.0
C4027 C 0.97388 0.50013 0.64276 0.0
C4028 C 0.97581 0.49134 0.66469 0.0
H4029 H 0.28112 0.25197 0.4538 0.0
H4030 H 0.28227 0.18001 0.43831 0.0
H4031 H 0.28874 0.18543 0.39671 0.0
H4032 H 0.25225 0.25842 0.398 0.0
H4033 H 0.26986 0.28671 0.39639 0.0
H4034 H 0.26656 0.27754 0.4253 0.0
H4035 H 0.31109 0.28588 0.43641 0.0
H4036 H 0.31449 0.29504 0.40744 0.0
H4037 H 0.32726 0.2725 0.41674 0.0
H4038 H 0.29319 0.19821 0.35573 0.0
H4039 H 0.29606 0.21731 0.31941 0.0
H4040 H 0.29139 0.28098 0.36081 0.0
C4041 C 0.283 0.23742 0.44173 0.0
C4042 C 0.28123 0.21551 0.44953 0.0
C4043 C 0.28383 0.19699 0.43304 0.0
C4044 C 0.28743 0.1999 0.40926 0.0
C4045 C 0.28894 0.22161 0.40211 0.0
C4046 C 0.28713 0.24016 0.41796 0.0
C4047 C 0.28961 0.26171 0.40567 0.0
C4048 C 0.26828 0.27166 0.40637 0.0
C4049 C 0.31193 0.27986 0.41726 0.0
C4050 C 0.29153 0.25204 0.38005 0.0
C4051 C 0.29165 0.22899 0.37856 0.0
C4052 C 0.29332 0.21632 0.35683 0.0
C4053 C 0.29494 0.2274 0.33618 0.0
C4054 C 0.29453 0.25099 0.33697 0.0
C4055 C 0.2927 0.2633 0.35942 0.0
H4056 H 0.31065 0.56679 0.52514 0.0
H4057 H 0.34417 0.61929 0.58625 0.0
H4058 H 0.38132 0.60932 0.58282 0.0
H4059 H 0.34876 0.52537 0.53446 0.0
H4060 H 0.34802 0.51932 0.5023 0.0
H4061 H 0.32332 0.52579 0.51413 0.0
H4062 H 0.32462 0.55869 0.48797 0.0
H4063 H 0.34946 0.55278 0.47641 0.0
H4064 H 0.3508 0.58135 0.49116 0.0
H4065 H 0.41559 0.59949 0.56753 0.0
H4066 H 0.44381 0.59022 0.54164 0.0
H4067 H 0.38754 0.54627 0.48963 0.0
C4068 C 0.32558 0.57551 0.53845 0.0
C4069 C 0.32466 0.5937 0.55589 0.0
C4070 C 0.3446 0.60515 0.57274 0.0
C4071 C 0.36574 0.59955 0.57102 0.0
C4072 C 0.36639 0.58242 0.55252 0.0
C4073 C 0.34673 0.57042 0.53668 0.0
C4074 C 0.35237 0.55584 0.51588 0.0
C4075 C 0.34255 0.53004 0.51676 0.0
C4076 C 0.34381 0.56259 0.49145 0.0
C4077 C 0.37835 0.56254 0.52162 0.0
C4078 C 0.3862 0.57737 0.54315 0.0
C4079 C 0.40968 0.58755 0.5509 0.0
C4080 C 0.42549 0.58249 0.53609 0.0
C4081 C 0.41741 0.56796 0.51377 0.0
C4082 C 0.39378 0.55757 0.50669 0.0
H4083 H 0.8828 0.91287 0.51683 0.0
H4084 H 0.86029 0.95038 0.57567 0.0
H4085 H 0.89532 0.98266 0.57852 0.0
H4086 H 0.94193 0.92796 0.5379 0.0
H4087 H 0.95095 0.93123 0.50892 0.0
H4088 H 0.92367 0.9119 0.51074 0.0
H4089 H 0.90217 0.93337 0.48183 0.0
H4090 H 0.92951 0.95244 0.47956 0.0
H4091 H 0.90639 0.96419 0.48882 0.0
H4092 H 0.93559 0.00821 0.57785 0.0
H4093 H 0.97477 0.02707 0.57039 0.0
H4094 H 0.96735 0.97517 0.50826 0.0
C4095 C 0.88516 0.92805 0.5301 0.0
C4096 C 0.86918 0.92926 0.5462 0.0
C4097 C 0.87249 0.94932 0.56321 0.0
C4098 C 0.8923 0.96761 0.56497 0.0
C4099 C 0.9081 0.96565 0.54911 0.0
C4100 C 0.90438 0.9466 0.53159 0.0
C4101 C 0.92377 0.9486 0.51662 0.0
C4102 C 0.93578 0.92875 0.51868 0.0
C4103 C 0.91493 0.94973 0.49014 0.0
C4104 C 0.93944 0.97141 0.52891 0.0
C4105 C 0.93027 0.98096 0.54773 0.0
C4106 C 0.94259 1.00118 0.56274 0.0
C4107 C 0.96473 0.01191 0.55825 0.0
C4108 C 0.97409 1.00263 0.53869 0.0
C4109 C 0.96107 0.98229 0.52376 0.0
H4110 H 0.90589 0.08177 0.31126 0.0
H4111 H 0.8968 0.06731 0.23313 0.0
H4112 H 0.8764 0.09857 0.23035 0.0
H4113 H 0.852 0.09247 0.31678 0.0
H4114 H 0.86278 0.11557 0.34171 0.0
H4115 H 0.87789 0.09327 0.33709 0.0
H4116 H 0.91555 0.12435 0.3359 0.0
H4117 H 0.90045 0.14677 0.34036 0.0
H4118 H 0.9154 0.14462 0.31472 0.0
H4119 H 0.85477 0.13036 0.23669 0.0
H4120 H 0.83314 0.15825 0.25152 0.0
H4121 H 0.85743 0.15151 0.32526 0.0
C4122 C 0.89974 0.08521 0.29352 0.0
C4123 C 0.90287 0.07206 0.27242 0.0
C4124 C 0.89465 0.07724 0.24957 0.0
C4125 C 0.88309 0.09498 0.24782 0.0
C4126 C 0.88022 0.10757 0.26908 0.0
C4127 C 0.88846 0.10293 0.29148 0.0
C4128 C 0.88268 0.11834 0.31166 0.0
C4129 C 0.86796 0.10405 0.32774 0.0
C4130 C 0.90484 0.13447 0.32654 0.0
C4131 C 0.86891 0.13167 0.29722 0.0
C4132 C 0.86799 0.12562 0.27268 0.0
C4133 C 0.85555 0.1353 0.25587 0.0
C4134 C 0.84338 0.15115 0.26443 0.0
C4135 C 0.84351 0.15684 0.28951 0.0
C4136 C 0.85686 0.1473 0.30599 0.0
H4137 H 0.7073 0.09131 0.06933 0.0
H4138 H 0.71397 0.08951 0.9938 0.0
H4139 H 0.67358 0.06651 0.98255 0.0
H4140 H 0.65876 0.03367 0.06351 0.0
H4141 H 0.64527 0.04756 0.08567 0.0
H4142 H 0.67636 0.05458 0.08805 0.0
H4143 H 0.67601 0.09769 0.0896 0.0
H4144 H 0.645 0.09071 0.08587 0.0
H4145 H 0.65991 0.10668 0.06488 0.0
H4146 H 0.63139 0.05285 0.97939 0.0
H4147 H 0.59039 0.04529 0.98492 0.0
H4148 H 0.61082 0.06196 0.06231 0.0
C4149 C 0.70062 0.08444 0.05055 0.0
C4150 C 0.71347 0.09125 0.03229 0.0
C4151 C 0.70425 0.08358 0.0078 0.0
C4152 C 0.68138 0.07066 0.00133 0.0
C4153 C 0.66826 0.06598 0.0197 0.0
C4154 C 0.67763 0.07218 0.04394 0.0
C4155 C 0.659 0.06969 0.05992 0.0
C4156 C 0.65991 0.05021 0.07517 0.0
C4157 C 0.66007 0.09256 0.07597 0.0
C4158 C 0.63794 0.063 0.04083 0.0
C4159 C 0.64352 0.06022 0.01785 0.0
C4160 C 0.62678 0.05483 0.99731 0.0
C4161 C 0.6036 0.05137 0.00051 0.0
C4162 C 0.59781 0.05436 0.02392 0.0
C4163 C 0.6151 0.06026 0.04423 0.0
H4164 H 0.25407 0.51243 0.28423 0.0
H4165 H 0.20973 0.48244 0.21621 0.0
H4166 H 0.2195 0.44517 0.21966 0.0
H4167 H 0.29751 0.47571 0.28072 0.0
H4168 H 0.29881 0.47392 0.31252 0.0
H4169 H 0.29409 0.49955 0.30115 0.0
H4170 H 0.25691 0.49556 0.32085 0.0
H4171 H 0.26103 0.46973 0.33182 0.0
H4172 H 0.23433 0.46921 0.31307 0.0
H4173 H 0.22782 0.41024 0.23408 0.0
H4174 H 0.23463 0.37994 0.2584 0.0
H4175 H 0.27047 0.43264 0.31831 0.0
C4176 C 0.24739 0.49834 0.26948 0.0
C4177 C 0.23147 0.50012 0.24986 0.0
C4178 C 0.2222 0.48122 0.23128 0.0
C4179 C 0.22771 0.4601 0.23305 0.0
C4180 C 0.24239 0.45842 0.2535 0.0
C4181 C 0.25223 0.47711 0.27133 0.0
C4182 C 0.26385 0.47004 0.29345 0.0
C4183 C 0.29013 0.4804 0.29717 0.0
C4184 C 0.25338 0.47652 0.3161 0.0
C4185 C 0.25781 0.44431 0.28587 0.0
C4186 C 0.24603 0.43797 0.26254 0.0
C4187 C 0.23728 0.41496 0.25224 0.0
C4188 C 0.24083 0.39796 0.26619 0.0
C4189 C 0.25239 0.40431 0.29022 0.0
C4190 C 0.26112 0.42763 0.30009 0.0
H4191 H 0.25342 0.4383 0.99502 0.0
H4192 H 0.24789 0.41303 0.06365 0.0
H4193 H 0.21491 0.43036 0.06821 0.0
H4194 H 0.23644 0.49267 0.01142 0.0
H4195 H 0.22038 0.4909 0.98184 0.0
H4196 H 0.24525 0.47892 0.98533 0.0
H4197 H 0.22016 0.43917 0.96338 0.0
H4198 H 0.19536 0.45112 0.95971 0.0
H4199 H 0.19413 0.4259 0.97445 0.0
H4200 H 0.18107 0.44858 0.06423 0.0
H4201 H 0.14696 0.4629 0.04994 0.0
H4202 H 0.17372 0.47463 0.9834 0.0
C4203 C 0.24552 0.43672 0.01119 0.0
C4204 C 0.25334 0.42442 0.02902 0.0
C4205 C 0.24225 0.42241 0.04974 0.0
C4206 C 0.22359 0.43233 0.05258 0.0
C4207 C 0.21621 0.4442 0.03457 0.0
C4208 C 0.22676 0.44633 0.01421 0.0
C4209 C 0.21435 0.45827 0.99658 0.0
C4210 C 0.23004 0.48157 0.99362 0.0
C4211 C 0.20547 0.44267 0.97209 0.0
C4212 C 0.19464 0.46169 0.00973 0.0
C4213 C 0.19634 0.45405 0.03192 0.0
C4214 C 0.17966 0.45478 0.04698 0.0
C4215 C 0.16043 0.46295 0.03881 0.0
C4216 C 0.15798 0.46981 0.01571 0.0
C4217 C 0.17546 0.46959 0.00123 0.0
H4218 H 0.90799 0.93779 0.29058 0.0
H4219 H 0.87467 0.95669 0.22606 0.0
H4220 H 0.84233 0.92157 0.22267 0.0
H4221 H 0.89362 0.87859 0.27008 0.0
H4222 H 0.88913 0.86944 0.29864 0.0
H4223 H 0.90905 0.89655 0.29764 0.0
H4224 H 0.88749 0.91934 0.32431 0.0
H4225 H 0.86809 0.8925 0.32733 0.0
H4226 H 0.85667 0.91533 0.3165 0.0
H4227 H 0.81703 0.88034 0.22369 0.0
H4228 H 0.79818 0.84162 0.23286 0.0
H4229 H 0.84363 0.85566 0.30133 0.0
C4230 C 0.89368 0.93476 0.27594 0.0
C4231 C 0.89378 0.94979 0.25851 0.0
C4232 C 0.87481 0.94533 0.23962 0.0
C4233 C 0.85649 0.9254 0.23753 0.0
C4234 C 0.85723 0.91059 0.25484 0.0
C4235 C 0.87511 0.91551 0.27404 0.0
C4236 C 0.87241 0.8969 0.29006 0.0
C4237 C 0.89222 0.88468 0.28907 0.0
C4238 C 0.87107 0.90661 0.31609 0.0
C4239 C 0.84966 0.8811 0.27761 0.0
C4240 C 0.84163 0.88859 0.25669 0.0
C4241 C 0.82275 0.87481 0.24047 0.0
C4242 C 0.812 0.85296 0.2459 0.0
C4243 C 0.8194 0.84568 0.26786 0.0
C4244 C 0.838 0.86033 0.28412 0.0
H4245 H 0.70604 0.1266 0.7853 0.0
H4246 H 0.74528 0.1001 0.73432 0.0
H4247 H 0.7747 0.13769 0.74242 0.0
H4248 H 0.70957 0.1767 0.76756 0.0
H4249 H 0.71293 0.19467 0.7961 0.0
H4250 H 0.69856 0.16462 0.79288 0.0
H4251 H 0.72636 0.15845 0.82793 0.0
H4252 H 0.74289 0.18818 0.83262 0.0
H4253 H 0.7571 0.16534 0.82732 0.0
H4254 H 0.7961 0.1787 0.75203 0.0
H4255 H 0.8071 0.22081 0.75958 0.0
H4256 H 0.7513 0.22104 0.80172 0.0
C4257 C 0.72138 0.12857 0.77664 0.0
C4258 C 0.72402 0.11091 0.75959 0.0
C4259 C 0.74364 0.11366 0.74786 0.0
C4260 C 0.76029 0.13479 0.75242 0.0
C4261 C 0.75688 0.15233 0.76897 0.0
C4262 C 0.73798 0.14934 0.78102 0.0
C4263 C 0.73637 0.1716 0.79511 0.0
C4264 C 0.71299 0.17721 0.78745 0.0
C4265 C 0.74089 0.17082 0.82236 0.0
C4266 C 0.75618 0.18805 0.78748 0.0
C4267 C 0.76837 0.17645 0.7733 0.0
C4268 C 0.78685 0.18794 0.76329 0.0
C4269 C 0.79275 0.21197 0.76749 0.0
C4270 C 0.77955 0.22425 0.78067 0.0
C4271 C 0.7615 0.2121 0.79139 0.0
loop_
_geom_bond_atom_site_label_1
_geom_bond_atom_site_label_2
_geom_bond_distance
_geom_bond_site_symmetry_2
_ccdc_geom_bond_type
Zn0 O3 2.031 . S
Zn0 O5 2.049 . S
Zn0 O10 2.067 1_455 S
Zn1 O2 1.962 . S
Zn1 O4 1.986 . S
Zn1 O6 1.996 . S
Zn1 O9 1.943 . S
O2 Zn1 1.962 . S
O2 C7 1.254 . S
O3 Zn0 2.031 . S
O3 C7 1.269 . S
O4 Zn1 1.986 . S
O4 C11 1.262 . S
O5 Zn0 2.049 . S
O5 C13 1.260 . S
O6 Zn1 1.996 . S
O6 C13 1.257 . S
C7 O2 1.254 . S
C7 O3 1.269 . S
C8 O9 1.249 . S
C8 O10 1.270 1_455 S
O9 Zn1 1.943 . S
O9 C8 1.249 . S
O10 Zn0 2.067 1_655 S
O10 C8 1.270 1_655 S
C11 O4 1.262 . S
C11 O12 1.232 . S
O12 C11 1.232 . S
C13 O5 1.260 . S
C13 O6 1.257 . S
Zn14 O17 2.031 1_455 S
Zn14 O19 2.049 . S
Zn14 O24 2.067 . S
Zn15 O16 1.962 1_455 S
Zn15 O18 1.986 . S
Zn15 O20 1.996 . S
Zn15 O23 1.943 . S
O16 Zn15 1.962 1_655 S
O16 C21 1.254 . S
O17 Zn14 2.031 1_655 S
O17 C21 1.269 . S
O18 Zn15 1.986 . S
O18 C25 1.262 . S
O19 Zn14 2.049 . S
O19 C27 1.260 . S
O20 Zn15 1.996 . S
O20 C27 1.257 . S
C21 O16 1.254 . S
C21 O17 1.269 . S
C22 O23 1.249 . S
C22 O24 1.270 . S
O23 Zn15 1.943 . S
O23 C22 1.249 . S
O24 Zn14 2.067 . S
O24 C22 1.270 . S
C25 O18 1.262 . S
C25 O26 1.232 . S
O26 C25 1.232 . S
C27 O19 1.260 . S
C27 O20 1.257 . S
Zn28 O31 2.031 . S
Zn28 O33 2.049 . S
Zn28 O38 2.067 . S
Zn29 O30 1.962 . S
Zn29 O32 1.986 . S
Zn29 O34 1.996 . S
Zn29 O37 1.943 . S
O30 Zn29 1.962 . S
O30 C35 1.254 . S
O31 Zn28 2.031 . S
O31 C35 1.269 . S
O32 Zn29 1.986 . S
O32 C39 1.262 . S
O33 Zn28 2.049 . S
O33 C41 1.260 . S
O34 Zn29 1.996 . S
O34 C41 1.257 . S
C35 O30 1.254 . S
C35 O31 1.269 . S
C36 O37 1.249 . S
C36 O38 1.270 . S
O37 Zn29 1.943 . S
O37 C36 1.249 . S
O38 Zn28 2.067 . S
O38 C36 1.270 . S
C39 O32 1.262 . S
C39 O40 1.232 . S
O40 C39 1.232 . S
C41 O33 1.260 . S
C41 O34 1.257 . S
Zn42 O45 2.031 . S
Zn42 O47 2.049 . S
Zn42 O52 2.067 . S
Zn43 O44 1.962 . S
Zn43 O46 1.986 . S
Zn43 O48 1.996 . S
Zn43 O51 1.943 . S
O44 Zn43 1.962 . S
O44 C49 1.254 . S
O45 Zn42 2.031 . S
O45 C49 1.269 . S
O46 Zn43 1.986 . S
O46 C53 1.262 . S
O47 Zn42 2.049 . S
O47 C55 1.260 . S
O48 Zn43 1.996 . S
O48 C55 1.257 . S
C49 O44 1.254 . S
C49 O45 1.269 . S
C50 O51 1.249 . S
C50 O52 1.270 . S
O51 Zn43 1.943 . S
O51 C50 1.249 . S
O52 Zn42 2.067 . S
O52 C50 1.270 . S
C53 O46 1.262 . S
C53 O54 1.232 . S
O54 C53 1.232 . S
C55 O47 1.260 . S
C55 O48 1.257 . S
Zn56 O59 2.031 . S
Zn56 O61 2.049 . S
Zn56 O66 2.067 . S
Zn57 O58 1.962 . S
Zn57 O60 1.986 . S
Zn57 O62 1.996 . S
Zn57 O65 1.943 . S
O58 Zn57 1.962 . S
O58 C63 1.254 . S
O59 Zn56 2.031 . S
O59 C63 1.269 . S
O60 Zn57 1.986 . S
O60 C67 1.262 . S
O61 Zn56 2.049 . S
O61 C69 1.260 . S
O62 Zn57 1.996 . S
O62 C69 1.257 . S
C63 O58 1.254 . S
C63 O59 1.269 . S
C64 O65 1.249 . S
C64 O66 1.270 . S
O65 Zn57 1.943 . S
O65 C64 1.249 . S
O66 Zn56 2.067 . S
O66 C64 1.270 . S
C67 O60 1.262 . S
C67 O68 1.232 . S
O68 C67 1.232 . S
C69 O61 1.260 . S
C69 O62 1.257 . S
Zn70 O73 2.031 . S
Zn70 O75 2.049 . S
Zn70 O80 2.067 . S
Zn71 O72 1.962 . S
Zn71 O74 1.986 . S
Zn71 O76 1.996 . S
Zn71 O79 1.943 . S
O72 Zn71 1.962 . S
O72 C77 1.254 . S
O73 Zn70 2.031 . S
O73 C77 1.269 . S
O74 Zn71 1.986 . S
O74 C81 1.262 . S
O75 Zn70 2.049 . S
O75 C83 1.260 . S
O76 Zn71 1.996 . S
O76 C83 1.257 . S
C77 O72 1.254 . S
C77 O73 1.269 . S
C78 O79 1.249 . S
C78 O80 1.270 . S
O79 Zn71 1.943 . S
O79 C78 1.249 . S
O80 Zn70 2.067 . S
O80 C78 1.270 . S
C81 O74 1.262 . S
C81 O82 1.232 . S
O82 C81 1.232 . S
C83 O75 1.260 . S
C83 O76 1.257 . S
Zn84 O87 2.031 . S
Zn84 O89 2.049 . S
Zn84 O94 2.067 . S
Zn85 O86 1.962 . S
Zn85 O88 1.986 . S
Zn85 O90 1.996 . S
Zn85 O93 1.943 . S
O86 Zn85 1.962 . S
O86 C91 1.254 . S
O87 Zn84 2.031 . S
O87 C91 1.269 . S
O88 Zn85 1.986 . S
O88 C95 1.262 . S
O89 Zn84 2.049 . S
O89 C97 1.260 . S
O90 Zn85 1.996 . S
O90 C97 1.257 . S
C91 O86 1.254 . S
C91 O87 1.269 . S
C92 O93 1.249 . S
C92 O94 1.270 . S
O93 Zn85 1.943 . S
O93 C92 1.249 . S
O94 Zn84 2.067 . S
O94 C92 1.270 . S
C95 O88 1.262 . S
C95 O96 1.232 . S
O96 C95 1.232 . S
C97 O89 1.260 . S
C97 O90 1.257 . S
Zn98 O101 2.031 . S
Zn98 O103 2.049 . S
Zn98 O108 2.067 . S
Zn99 O100 1.962 . S
Zn99 O102 1.986 . S
Zn99 O104 1.996 . S
Zn99 O107 1.943 1_455 S
O100 Zn99 1.962 . S
O100 C105 1.254 . S
O101 Zn98 2.031 . S
O101 C105 1.269 1_655 S
O102 Zn99 1.986 . S
O102 C109 1.262 . S
O103 Zn98 2.049 . S
O103 C111 1.260 . S
O104 Zn99 1.996 . S
O104 C111 1.257 1_455 S
C105 O100 1.254 . S
C105 O101 1.269 1_455 S
C106 O107 1.249 . S
C106 O108 1.270 . S
O107 Zn99 1.943 1_655 S
O107 C106 1.249 . S
O108 Zn98 2.067 . S
O108 C106 1.270 . S
C109 O102 1.262 . S
C109 O110 1.232 . S
O110 C109 1.232 . S
C111 O103 1.260 . S
C111 O104 1.257 1_655 S
Zn112 O115 2.031 . S
Zn112 O117 2.049 . S
Zn112 O122 2.067 . S
Zn113 O114 1.962 . S
Zn113 O116 1.986 . S
Zn113 O118 1.996 . S
Zn113 O121 1.943 1_545 S
O114 Zn113 1.962 . S
O114 C119 1.254 . S
O115 Zn112 2.031 . S
O115 C119 1.269 1_565 S
O116 Zn113 1.986 . S
O116 C123 1.262 . S
O117 Zn112 2.049 . S
O117 C125 1.266 1_565 S
O118 Zn113 1.996 . S
O118 C125 1.254 . S
C119 O114 1.254 . S
C119 O115 1.269 1_545 S
C120 O121 1.249 . S
C120 O122 1.270 . S
O121 Zn113 1.943 1_565 S
O121 C120 1.249 . S
O122 Zn112 2.067 . S
O122 C120 1.270 . S
C123 O116 1.262 . S
C123 O124 1.232 . S
O124 C123 1.232 . S
C125 O117 1.266 1_545 S
C125 O118 1.254 . S
Zn126 O129 2.031 . S
Zn126 O131 2.049 . S
Zn126 O136 2.067 . S
Zn127 O128 1.962 . S
Zn127 O130 1.986 . S
Zn127 O132 1.996 . S
Zn127 O135 1.943 . S
O128 Zn127 1.962 . S
O128 C133 1.254 . S
O129 Zn126 2.031 . S
O129 C133 1.269 . S
O130 Zn127 1.986 . S
O130 C137 1.262 . S
O131 Zn126 2.049 . S
O131 C139 1.260 . S
O132 Zn127 1.996 . S
O132 C139 1.257 . S
C133 O128 1.254 . S
C133 O129 1.269 . S
C134 O135 1.249 . S
C134 O136 1.270 . S
O135 Zn127 1.943 . S
O135 C134 1.249 . S
O136 Zn126 2.067 . S
O136 C134 1.270 . S
C137 O130 1.262 . S
C137 O138 1.232 . S
O138 C137 1.232 . S
C139 O131 1.260 . S
C139 O132 1.257 . S
Zn140 O143 2.031 . S
Zn140 O145 2.049 . S
Zn140 O150 2.067 . S
Zn141 O142 1.962 . S
Zn141 O144 1.986 . S
Zn141 O146 1.996 . S
Zn141 O149 1.943 . S
O142 Zn141 1.962 . S
O142 C147 1.254 . S
O143 Zn140 2.031 . S
O143 C147 1.269 . S
O144 Zn141 1.986 . S
O144 C151 1.262 . S
O145 Zn140 2.049 . S
O145 C153 1.260 . S
O146 Zn141 1.996 . S
O146 C153 1.257 . S
C147 O142 1.254 . S
C147 O143 1.269 . S
C148 O149 1.249 . S
C148 O150 1.270 . S
O149 Zn141 1.943 . S
O149 C148 1.249 . S
O150 Zn140 2.067 . S
O150 C148 1.270 . S
C151 O144 1.262 . S
C151 O152 1.232 . S
O152 C151 1.232 . S
C153 O145 1.260 . S
C153 O146 1.257 . S
Zn154 O157 2.031 1_554 S
Zn154 O159 2.049 . S
Zn154 O164 2.067 . S
Zn155 O156 1.962 . S
Zn155 O158 1.986 1_556 S
Zn155 O160 1.996 1_556 S
Zn155 O163 1.943 1_556 S
O156 Zn155 1.962 . S
O156 C161 1.254 . S
O157 Zn154 2.031 1_556 S
O157 C161 1.269 . S
O158 Zn155 1.986 1_554 S
O158 C165 1.262 1_554 S
O159 Zn154 2.049 . S
O159 C167 1.260 . S
O160 Zn155 1.996 1_554 S
O160 C167 1.257 . S
C161 O156 1.254 . S
C161 O157 1.269 . S
C162 O163 1.249 . S
C162 O164 1.270 . S
O163 Zn155 1.943 1_554 S
O163 C162 1.249 . S
O164 Zn154 2.067 . S
O164 C162 1.270 . S
C165 O158 1.262 1_556 S
C165 O166 1.232 . S
O166 C165 1.232 . S
C167 O159 1.260 . S
C167 O160 1.257 . S
Zn168 O171 2.031 . S
Zn168 O173 2.049 . S
Zn168 O178 2.067 . S
Zn169 O170 1.962 . S
Zn169 O172 1.986 . S
Zn169 O174 1.996 . S
Zn169 O177 1.943 . S
O170 Zn169 1.962 . S
O170 C175 1.259 . S
O171 Zn168 2.031 . S
O171 C175 1.273 . S
O172 Zn169 1.986 . S
O172 C179 1.262 . S
O173 Zn168 2.049 . S
O173 C181 1.260 . S
O174 Zn169 1.996 . S
O174 C181 1.257 . S
C175 O170 1.259 . S
C175 O171 1.273 . S
C176 O177 1.249 . S
C176 O178 1.270 . S
O177 Zn169 1.943 . S
O177 C176 1.249 . S
O178 Zn168 2.067 . S
O178 C176 1.270 . S
C179 O172 1.262 . S
C179 O180 1.232 . S
O180 C179 1.232 . S
C181 O173 1.260 . S
C181 O174 1.257 . S
Zn182 O185 2.031 . S
Zn182 O187 2.049 . S
Zn182 O192 2.067 . S
Zn183 O184 1.962 . S
Zn183 O186 1.986 . S
Zn183 O188 1.996 . S
Zn183 O191 1.943 . S
O184 Zn183 1.962 . S
O184 C189 1.254 . S
O185 Zn182 2.031 . S
O185 C189 1.269 . S
O186 Zn183 1.986 . S
O186 C193 1.262 . S
O187 Zn182 2.049 . S
O187 C195 1.260 . S
O188 Zn183 1.996 . S
O188 C195 1.257 . S
C189 O184 1.254 . S
C189 O185 1.269 . S
C190 O191 1.249 . S
C190 O192 1.270 . S
O191 Zn183 1.943 . S
O191 C190 1.249 . S
O192 Zn182 2.067 . S
O192 C190 1.270 . S
C193 O186 1.262 . S
C193 O194 1.232 . S
O194 C193 1.232 . S
C195 O187 1.260 . S
C195 O188 1.257 . S
Zn196 O199 2.031 . S
Zn196 O201 2.049 . S
Zn196 O206 2.067 . S
Zn197 O198 1.962 . S
Zn197 O200 1.986 . S
Zn197 O202 1.996 . S
Zn197 O205 1.943 . S
O198 Zn197 1.962 . S
O198 C203 1.254 . S
O199 Zn196 2.031 . S
O199 C203 1.269 . S
O200 Zn197 1.986 . S
O200 C207 1.262 . S
O201 Zn196 2.049 . S
O201 C209 1.260 . S
O202 Zn197 1.996 . S
O202 C209 1.257 . S
C203 O198 1.254 . S
C203 O199 1.269 . S
C204 O205 1.249 . S
C204 O206 1.270 . S
O205 Zn197 1.943 . S
O205 C204 1.249 . S
O206 Zn196 2.067 . S
O206 C204 1.270 . S
C207 O200 1.262 . S
C207 O208 1.232 . S
O208 C207 1.232 . S
C209 O201 1.260 . S
C209 O202 1.257 . S
Zn210 O213 2.031 . S
Zn210 O215 2.049 . S
Zn210 O220 2.067 . S
Zn211 O212 1.962 . S
Zn211 O214 1.986 . S
Zn211 O216 1.996 . S
Zn211 O219 1.943 . S
O212 Zn211 1.962 . S
O212 C217 1.254 . S
O213 Zn210 2.031 . S
O213 C217 1.269 . S
O214 Zn211 1.986 . S
O214 C221 1.262 . S
O215 Zn210 2.049 . S
O215 C223 1.260 . S
O216 Zn211 1.996 . S
O216 C223 1.257 . S
C217 O212 1.254 . S
C217 O213 1.269 . S
C218 O219 1.249 . S
C218 O220 1.270 . S
O219 Zn211 1.943 . S
O219 C218 1.249 . S
O220 Zn210 2.067 . S
O220 C218 1.270 . S
C221 O214 1.262 . S
C221 O222 1.232 . S
O222 C221 1.232 . S
C223 O215 1.260 . S
C223 O216 1.257 . S
Zn224 O227 2.031 . S
Zn224 O229 2.049 . S
Zn224 O234 2.067 . S
Zn225 O226 1.962 . S
Zn225 O228 1.986 . S
Zn225 O230 1.996 . S
Zn225 O233 1.943 1_545 S
O226 Zn225 1.962 . S
O226 C231 1.254 . S
O227 Zn224 2.031 . S
O227 C231 1.269 1_565 S
O228 Zn225 1.986 . S
O228 C235 1.262 . S
O229 Zn224 2.049 . S
O229 C237 1.260 1_565 S
O230 Zn225 1.996 . S
O230 C237 1.257 . S
C231 O226 1.254 . S
C231 O227 1.269 1_545 S
C232 O233 1.249 . S
C232 O234 1.270 . S
O233 Zn225 1.943 1_565 S
O233 C232 1.249 . S
O234 Zn224 2.067 . S
O234 C232 1.270 . S
C235 O228 1.262 . S
C235 O236 1.232 . S
O236 C235 1.232 . S
C237 O229 1.260 1_545 S
C237 O230 1.257 . S
Zn238 O241 2.031 . S
Zn238 O243 2.049 . S
Zn238 O248 2.067 . S
Zn239 O240 1.962 . S
Zn239 O242 1.986 . S
Zn239 O244 1.996 . S
Zn239 O247 1.943 . S
O240 Zn239 1.962 . S
O240 C245 1.254 . S
O241 Zn238 2.031 . S
O241 C245 1.269 . S
O242 Zn239 1.986 . S
O242 C249 1.262 . S
O243 Zn238 2.049 . S
O243 C251 1.260 . S
O244 Zn239 1.996 . S
O244 C251 1.257 . S
C245 O240 1.254 . S
C245 O241 1.269 . S
C246 O247 1.249 . S
C246 O248 1.270 . S
O247 Zn239 1.943 . S
O247 C246 1.249 . S
O248 Zn238 2.067 . S
O248 C246 1.270 . S
C249 O242 1.262 . S
C249 O250 1.232 . S
O250 C249 1.232 . S
C251 O243 1.260 . S
C251 O244 1.257 . S
Zn252 O255 2.031 . S
Zn252 O257 2.049 . S
Zn252 O262 2.067 . S
Zn253 O254 1.962 . S
Zn253 O256 1.986 . S
Zn253 O258 1.996 . S
Zn253 O261 1.943 . S
O254 Zn253 1.962 . S
O254 C259 1.254 . S
O255 Zn252 2.031 . S
O255 C259 1.269 . S
O256 Zn253 1.986 . S
O256 C263 1.262 . S
O257 Zn252 2.049 . S
O257 C265 1.260 . S
O258 Zn253 1.996 . S
O258 C265 1.257 . S
C259 O254 1.254 . S
C259 O255 1.269 . S
C260 O261 1.249 . S
C260 O262 1.270 . S
O261 Zn253 1.943 . S
O261 C260 1.249 . S
O262 Zn252 2.067 . S
O262 C260 1.270 . S
C263 O256 1.262 . S
C263 O264 1.232 . S
O264 C263 1.232 . S
C265 O257 1.260 . S
C265 O258 1.257 . S
Zn266 O269 2.031 . S
Zn266 O271 2.049 . S
Zn266 O276 2.067 . S
Zn267 O268 1.962 . S
Zn267 O270 1.986 . S
Zn267 O272 1.996 . S
Zn267 O275 1.943 . S
O268 Zn267 1.962 . S
O268 C273 1.254 . S
O269 Zn266 2.031 . S
O269 C273 1.269 . S
O270 Zn267 1.986 . S
O270 C277 1.262 . S
O271 Zn266 2.049 . S
O271 C279 1.260 . S
O272 Zn267 1.996 . S
O272 C279 1.257 . S
C273 O268 1.254 . S
C273 O269 1.269 . S
C274 O275 1.249 . S
C274 O276 1.270 . S
O275 Zn267 1.943 . S
O275 C274 1.249 . S
O276 Zn266 2.067 . S
O276 C274 1.270 . S
C277 O270 1.262 . S
C277 O278 1.232 . S
O278 C277 1.232 . S
C279 O271 1.260 . S
C279 O272 1.257 . S
Zn280 O283 2.031 1_554 S
Zn280 O285 2.049 . S
Zn280 O290 2.067 . S
Zn281 O282 1.962 1_554 S
Zn281 O284 1.986 . S
Zn281 O286 1.996 . S
Zn281 O289 1.943 . S
O282 Zn281 1.962 1_556 S
O282 C287 1.254 . S
O283 Zn280 2.031 1_556 S
O283 C287 1.269 . S
O284 Zn281 1.986 . S
O284 C291 1.262 . S
O285 Zn280 2.049 . S
O285 C293 1.260 . S
O286 Zn281 1.996 . S
O286 C293 1.257 . S
C287 O282 1.254 . S
C287 O283 1.269 . S
C288 O289 1.249 . S
C288 O290 1.270 . S
O289 Zn281 1.943 . S
O289 C288 1.249 . S
O290 Zn280 2.067 . S
O290 C288 1.270 . S
C291 O284 1.262 . S
C291 O292 1.232 1_554 S
O292 C291 1.232 1_556 S
C293 O285 1.260 . S
C293 O286 1.257 . S
Zn294 O297 2.031 . S
Zn294 O299 2.049 . S
Zn294 O304 2.067 . S
Zn295 O296 1.962 . S
Zn295 O298 1.986 . S
Zn295 O300 1.996 . S
Zn295 O303 1.943 . S
O296 Zn295 1.962 . S
O296 C301 1.254 . S
O297 Zn294 2.031 . S
O297 C301 1.269 . S
O298 Zn295 1.986 . S
O298 C305 1.262 . S
O299 Zn294 2.049 . S
O299 C307 1.260 . S
O300 Zn295 1.996 . S
O300 C307 1.257 . S
C301 O296 1.254 . S
C301 O297 1.269 . S
C302 O303 1.249 . S
C302 O304 1.270 . S
O303 Zn295 1.943 . S
O303 C302 1.249 . S
O304 Zn294 2.067 . S
O304 C302 1.270 . S
C305 O298 1.262 . S
C305 O306 1.232 . S
O306 C305 1.232 . S
C307 O299 1.260 . S
C307 O300 1.257 . S
Zn308 O311 2.031 . S
Zn308 O313 2.049 . S
Zn308 O318 2.067 . S
Zn309 O310 1.962 . S
Zn309 O312 1.986 . S
Zn309 O314 1.996 . S
Zn309 O317 1.943 . S
O310 Zn309 1.962 . S
O310 C315 1.254 . S
O311 Zn308 2.031 . S
O311 C315 1.269 . S
O312 Zn309 1.986 . S
O312 C319 1.262 . S
O313 Zn308 2.049 . S
O313 C321 1.260 . S
O314 Zn309 1.996 . S
O314 C321 1.257 . S
C315 O310 1.254 . S
C315 O311 1.269 . S
C316 O317 1.249 . S
C316 O318 1.270 . S
O317 Zn309 1.943 . S
O317 C316 1.249 . S
O318 Zn308 2.067 . S
O318 C316 1.270 . S
C319 O312 1.262 . S
C319 O320 1.232 . S
O320 C319 1.232 . S
C321 O313 1.260 . S
C321 O314 1.257 . S
Zn322 O325 2.031 . S
Zn322 O327 2.049 . S
Zn322 O332 2.067 . S
Zn323 O324 1.962 . S
Zn323 O326 1.986 . S
Zn323 O328 1.996 . S
Zn323 O331 1.943 . S
O324 Zn323 1.962 . S
O324 C329 1.254 . S
O325 Zn322 2.031 . S
O325 C329 1.269 . S
O326 Zn323 1.986 . S
O326 C333 1.262 . S
O327 Zn322 2.049 . S
O327 C335 1.260 . S
O328 Zn323 1.996 . S
O328 C335 1.257 . S
C329 O324 1.254 . S
C329 O325 1.269 . S
C330 O331 1.249 . S
C330 O332 1.270 . S
O331 Zn323 1.943 . S
O331 C330 1.249 . S
O332 Zn322 2.067 . S
O332 C330 1.270 . S
C333 O326 1.262 . S
C333 O334 1.232 . S
O334 C333 1.232 . S
C335 O327 1.260 . S
C335 O328 1.257 . S
Tb336 N365 2.617 . S
Tb336 N371 2.572 . S
Tb336 O380 2.465 . S
Tb336 O381 2.387 . S
Tb336 O383 2.428 . S
Tb336 O384 2.308 . S
Tb336 O388 2.349 . S
Tb336 O391 2.393 . S
Tb336 C400 2.802 . S
C337 N338 1.379 . S
C337 C340 1.416 . S
C337 C344 1.424 1_556 S
N338 C337 1.379 . S
N338 C341 1.334 . S
N338 Tb347 2.624 1_566 S
C339 C341 1.390 . S
C339 C342 1.339 . S
C339 H359 0.930 . S
C340 C337 1.416 . S
C340 C342 1.416 . S
C340 C346 1.448 . S
C341 N338 1.334 . S
C341 C339 1.390 . S
C341 H352 0.930 . S
C342 C339 1.339 . S
C342 C340 1.416 . S
C342 H363 0.930 . S
C343 C344 1.413 . S
C343 C345 1.427 1_554 S
C343 C349 1.416 . S
C344 C337 1.424 1_554 S
C344 C343 1.413 . S
C344 N348 1.361 . S
C345 C343 1.427 1_556 S
C345 C346 1.328 . S
C345 H360 0.931 . S
C346 C340 1.448 . S
C346 C345 1.328 . S
C346 H361 0.930 . S
Tb347 N338 2.624 1_544 S
Tb347 N348 2.594 1_545 S
Tb347 O382 2.344 1_655 S
Tb347 O385 2.363 1_654 S
Tb347 O386 2.506 . S
Tb347 O387 2.356 1_645 S
Tb347 O389 2.462 1_554 S
Tb347 O390 2.301 1_655 S
Tb347 C411 2.845 . S
N348 C344 1.361 . S
N348 Tb347 2.594 1_565 S
N348 C350 1.340 . S
C349 C343 1.416 . S
C349 C351 1.332 . S
C349 H357 0.931 . S
C350 N348 1.340 . S
C350 C351 1.407 . S
C350 H356 0.930 . S
C351 C349 1.332 . S
C351 C350 1.407 . S
C351 H353 0.929 . S
H352 C341 0.930 . S
H353 C351 0.929 . S
H354 C369 0.930 . S
H355 C376 0.929 1_556 S
H356 C350 0.930 . S
H357 C349 0.931 . S
H358 C372 0.930 . S
H359 C339 0.930 . S
H360 C345 0.931 . S
H361 C346 0.930 . S
H362 C367 0.930 . S
H363 C342 0.930 . S
H364 C375 0.931 . S
N365 Tb336 2.617 . S
N365 C366 1.379 . S
N365 C369 1.334 . S
C366 N365 1.379 . S
C366 C368 1.416 . S
C366 C374 1.424 . S
C367 H362 0.930 . S
C367 C369 1.390 . S
C367 C370 1.339 . S
C368 C366 1.416 . S
C368 C370 1.416 . S
C368 C401 1.448 . S
C369 H354 0.930 . S
C369 N365 1.334 . S
C369 C367 1.390 . S
C370 C367 1.339 . S
C370 C368 1.416 . S
C370 H377 0.930 . S
N371 Tb336 2.572 . S
N371 C372 1.340 . S
N371 C374 1.361 . S
C372 H358 0.930 . S
C372 N371 1.340 . S
C372 C376 1.407 . S
C373 C374 1.413 . S
C373 C375 1.416 . S
C373 C402 1.427 . S
C374 C366 1.424 . S
C374 N371 1.361 . S
C374 C373 1.413 . S
C375 H364 0.931 . S
C375 C373 1.416 . S
C375 C376 1.332 . S
C376 H355 0.929 1_554 S
C376 C372 1.407 . S
C376 C375 1.332 . S
H377 C370 0.930 . S
H378 C401 0.930 . S
H379 C402 0.929 . S
O380 Tb336 2.465 . S
O380 C400 1.264 . S
O381 Tb336 2.387 . S
O381 C392 1.264 . S
O382 Tb347 2.344 1_455 S
O382 C392 1.243 . S
O383 Tb336 2.428 . S
O383 C400 1.256 . S
O384 Tb336 2.308 . S
O384 C399 1.266 1_554 S
O385 Tb347 2.363 1_456 S
O385 C399 1.248 . S
O386 Tb347 2.506 . S
O386 C411 1.264 . S
O387 Tb347 2.356 1_465 S
O387 C403 1.264 . S
O388 Tb336 2.349 . S
O388 C403 1.243 1_545 S
O389 Tb347 2.462 1_556 S
O389 C411 1.256 1_556 S
O390 Tb347 2.301 1_455 S
O390 C410 1.266 . S
O391 Tb336 2.393 . S
O391 C410 1.248 . S
C392 O381 1.264 . S
C392 O382 1.243 . S
C393 C396 1.399 . S
C393 C398 1.383 . S
C393 C400 1.496 . S
C394 C395 1.399 . S
C394 C398 1.389 . S
C395 C394 1.399 . S
C395 C397 1.380 . S
C395 H412 0.929 . S
C396 C393 1.399 . S
C396 C397 1.392 . S
C396 H413 0.929 . S
C397 C395 1.380 . S
C397 C396 1.392 . S
C397 H414 0.929 . S
C398 C393 1.383 . S
C398 C394 1.389 . S
C398 H415 0.931 . S
C399 O384 1.266 1_556 S
C399 O385 1.248 . S
C400 Tb336 2.802 . S
C400 O380 1.264 . S
C400 O383 1.256 . S
C400 C393 1.496 . S
C401 C368 1.448 . S
C401 H378 0.930 . S
C401 C402 1.328 . S
C402 C373 1.427 . S
C402 H379 0.929 . S
C402 C401 1.328 . S
C403 O387 1.264 . S
C403 O388 1.243 1_565 S
C404 C407 1.356 1_554 S
C404 C408 1.422 . S
C404 C411 1.501 . S
C405 C406 1.399 1_554 S
C405 C408 1.389 . S
C406 C405 1.399 1_556 S
C406 C409 1.380 . S
C406 H416 0.929 . S
C407 C404 1.356 1_556 S
C407 C409 1.392 . S
C407 H417 0.929 . S
C408 C404 1.422 . S
C408 C405 1.389 . S
C408 H418 0.931 . S
C409 C406 1.380 . S
C409 C407 1.392 . S
C409 H419 0.929 . S
C410 O390 1.266 . S
C410 O391 1.248 . S
C411 Tb347 2.845 . S
C411 O386 1.264 . S
C411 O389 1.256 1_554 S
C411 C404 1.501 . S
H412 C395 0.929 . S
H413 C396 0.929 . S
H414 C397 0.929 . S
H415 C398 0.931 . S
H416 C406 0.929 . S
H417 C407 0.929 . S
H418 C408 0.931 . S
H419 C409 0.929 . S
Tb420 N449 2.617 . S
Tb420 N455 2.572 . S
Tb420 O464 2.465 . S
Tb420 O465 2.387 . S
Tb420 O467 2.428 . S
Tb420 O468 2.308 . S
Tb420 O472 2.349 . S
Tb420 O475 2.393 . S
Tb420 C484 2.802 . S
C421 N422 1.379 . S
C421 C424 1.416 . S
C421 C428 1.424 . S
N422 C421 1.379 . S
N422 C425 1.334 . S
N422 Tb431 2.617 . S
C423 C425 1.390 . S
C423 C426 1.339 . S
C423 H443 0.930 . S
C424 C421 1.416 . S
C424 C426 1.416 . S
C424 C430 1.448 . S
C425 N422 1.334 . S
C425 C423 1.390 . S
C425 H436 0.930 . S
C426 C423 1.339 . S
C426 C424 1.416 . S
C426 H447 0.930 . S
C427 C428 1.413 . S
C427 C429 1.427 . S
C427 C433 1.416 . S
C428 C421 1.424 . S
C428 C427 1.413 . S
C428 N432 1.361 . S
C429 C427 1.427 . S
C429 C430 1.328 . S
C429 H444 0.929 . S
C430 C424 1.448 . S
C430 C429 1.328 . S
C430 H445 0.930 . S
Tb431 N422 2.617 . S
Tb431 N432 2.572 . S
Tb431 O466 2.349 . S
Tb431 O469 2.393 . S
Tb431 O470 2.465 . S
Tb431 O471 2.387 . S
Tb431 O473 2.428 . S
Tb431 O474 2.308 . S
Tb431 C495 2.802 . S
N432 C428 1.361 . S
N432 Tb431 2.572 . S
N432 C434 1.340 . S
C433 C427 1.416 . S
C433 C435 1.332 . S
C433 H441 0.931 . S
C434 N432 1.340 . S
C434 C435 1.407 . S
C434 H440 0.930 . S
C435 C433 1.332 . S
C435 C434 1.407 . S
C435 H437 0.929 . S
H436 C425 0.930 . S
H437 C435 0.929 . S
H438 C453 0.930 . S
H439 C460 0.929 . S
H440 C434 0.930 . S
H441 C433 0.931 . S
H442 C456 0.930 . S
H443 C423 0.930 . S
H444 C429 0.929 . S
H445 C430 0.930 . S
H446 C451 0.930 . S
H447 C426 0.930 . S
H448 C459 0.931 . S
N449 Tb420 2.617 . S
N449 C450 1.379 . S
N449 C453 1.334 . S
C450 N449 1.379 . S
C450 C452 1.416 . S
C450 C458 1.424 . S
C451 H446 0.930 . S
C451 C453 1.390 . S
C451 C454 1.339 . S
C452 C450 1.416 . S
C452 C454 1.416 . S
C452 C485 1.448 . S
C453 H438 0.930 . S
C453 N449 1.334 . S
C453 C451 1.390 . S
C454 C451 1.339 . S
C454 C452 1.416 . S
C454 H461 0.930 . S
N455 Tb420 2.572 . S
N455 C456 1.340 . S
N455 C458 1.361 . S
C456 H442 0.930 . S
C456 N455 1.340 . S
C456 C460 1.407 . S
C457 C458 1.413 . S
C457 C459 1.416 . S
C457 C486 1.427 . S
C458 C450 1.424 . S
C458 N455 1.361 . S
C458 C457 1.413 . S
C459 H448 0.931 . S
C459 C457 1.416 . S
C459 C460 1.332 . S
C460 H439 0.929 . S
C460 C456 1.407 . S
C460 C459 1.332 . S
H461 C454 0.930 . S
H462 C485 0.930 . S
H463 C486 0.929 . S
O464 Tb420 2.465 . S
O464 C484 1.264 . S
O465 Tb420 2.387 . S
O465 C476 1.264 . S
O466 Tb431 2.349 . S
O466 C476 1.243 . S
O467 Tb420 2.428 . S
O467 C484 1.256 . S
O468 Tb420 2.308 . S
O468 C483 1.266 . S
O469 Tb431 2.393 . S
O469 C483 1.248 . S
O470 Tb431 2.465 . S
O470 C495 1.264 . S
O471 Tb431 2.387 . S
O471 C487 1.264 . S
O472 Tb420 2.349 . S
O472 C487 1.243 . S
O473 Tb431 2.428 . S
O473 C495 1.256 . S
O474 Tb431 2.308 . S
O474 C494 1.266 . S
O475 Tb420 2.393 . S
O475 C494 1.248 . S
C476 O465 1.264 . S
C476 O466 1.243 . S
C477 C480 1.399 . S
C477 C482 1.383 . S
C477 C484 1.496 . S
C478 C479 1.399 . S
C478 C482 1.389 . S
C479 C478 1.399 . S
C479 C481 1.380 . S
C479 H496 0.929 . S
C480 C477 1.399 . S
C480 C481 1.392 . S
C480 H497 0.929 . S
C481 C479 1.380 . S
C481 C480 1.392 . S
C481 H498 0.929 . S
C482 C477 1.383 . S
C482 C478 1.389 . S
C482 H499 0.931 . S
C483 O468 1.266 . S
C483 O469 1.248 . S
C484 Tb420 2.802 . S
C484 O464 1.264 . S
C484 O467 1.256 . S
C484 C477 1.496 . S
C485 C452 1.448 . S
C485 H462 0.930 . S
C485 C486 1.328 . S
C486 C457 1.427 . S
C486 H463 0.929 . S
C486 C485 1.328 . S
C487 O471 1.264 . S
C487 O472 1.243 . S
C488 C491 1.399 . S
C488 C492 1.383 . S
C488 C495 1.496 . S
C489 C490 1.399 . S
C489 C492 1.389 . S
C490 C489 1.399 . S
C490 C493 1.380 . S
C490 H500 0.929 . S
C491 C488 1.399 . S
C491 C493 1.392 . S
C491 H501 0.929 . S
C492 C488 1.383 . S
C492 C489 1.389 . S
C492 H502 0.931 . S
C493 C490 1.380 . S
C493 C491 1.392 . S
C493 H503 0.929 . S
C494 O474 1.266 . S
C494 O475 1.248 . S
C495 Tb431 2.802 . S
C495 O470 1.264 . S
C495 O473 1.256 . S
C495 C488 1.496 . S
H496 C479 0.929 . S
H497 C480 0.929 . S
H498 C481 0.929 . S
H499 C482 0.931 . S
H500 C490 0.929 . S
H501 C491 0.929 . S
H502 C492 0.931 . S
H503 C493 0.929 . S
Tb504 N533 2.617 1_545 S
Tb504 N539 2.572 1_545 S
Tb504 O548 2.465 . S
Tb504 O549 2.387 1_545 S
Tb504 O551 2.428 . S
Tb504 O552 2.308 . S
Tb504 O556 2.349 . S
Tb504 O559 2.393 . S
Tb504 C568 2.802 . S
C505 N506 1.379 . S
C505 C508 1.416 . S
C505 C512 1.424 . S
N506 C505 1.379 . S
N506 C509 1.334 . S
N506 Tb515 2.617 . S
C507 C509 1.390 . S
C507 C510 1.339 . S
C507 H527 0.930 . S
C508 C505 1.416 . S
C508 C510 1.416 . S
C508 C514 1.448 . S
C509 N506 1.334 . S
C509 C507 1.390 . S
C509 H520 0.930 . S
C510 C507 1.339 . S
C510 C508 1.416 . S
C510 H531 0.930 . S
C511 C512 1.413 . S
C511 C513 1.427 . S
C511 C517 1.416 . S
C512 C505 1.424 . S
C512 C511 1.413 . S
C512 N516 1.361 . S
C513 C511 1.427 . S
C513 C514 1.328 . S
C513 H528 0.929 . S
C514 C508 1.448 . S
C514 C513 1.328 . S
C514 H529 0.930 . S
Tb515 N506 2.617 . S
Tb515 N516 2.572 . S
Tb515 O550 2.349 1_545 S
Tb515 O553 2.393 . S
Tb515 O554 2.465 . S
Tb515 O555 2.387 . S
Tb515 O557 2.428 . S
Tb515 O558 2.308 . S
Tb515 C579 2.802 . S
N516 C512 1.361 . S
N516 Tb515 2.572 . S
N516 C518 1.340 . S
C517 C511 1.416 . S
C517 C519 1.332 . S
C517 H525 0.931 . S
C518 N516 1.340 . S
C518 C519 1.407 . S
C518 H524 0.930 . S
C519 C517 1.332 . S
C519 C518 1.407 . S
C519 H521 0.929 . S
H520 C509 0.930 . S
H521 C519 0.929 . S
H522 C537 0.920 1_545 S
H523 C544 0.929 . S
H524 C518 0.930 . S
H525 C517 0.931 . S
H526 C540 0.930 . S
H527 C507 0.930 . S
H528 C513 0.929 . S
H529 C514 0.930 . S
H530 C535 0.930 . S
H531 C510 0.930 . S
H532 C543 0.931 . S
N533 Tb504 2.617 1_565 S
N533 C534 1.379 . S
N533 C537 1.334 . S
C534 N533 1.379 . S
C534 C536 1.416 . S
C534 C542 1.424 . S
C535 H530 0.930 . S
C535 C537 1.401 . S
C535 C538 1.339 . S
C536 C534 1.416 . S
C536 C538 1.416 . S
C536 C569 1.448 . S
C537 H522 0.920 1_565 S
C537 N533 1.334 . S
C537 C535 1.401 . S
C538 C535 1.339 . S
C538 C536 1.416 . S
C538 H545 0.930 . S
N539 Tb504 2.572 1_565 S
N539 C540 1.340 . S
N539 C542 1.361 . S
C540 H526 0.930 . S
C540 N539 1.340 . S
C540 C544 1.407 . S
C541 C542 1.413 . S
C541 C543 1.416 . S
C541 C570 1.427 . S
C542 C534 1.424 . S
C542 N539 1.361 . S
C542 C541 1.413 . S
C543 H532 0.931 . S
C543 C541 1.416 . S
C543 C544 1.332 . S
C544 H523 0.929 . S
C544 C540 1.407 . S
C544 C543 1.332 . S
H545 C538 0.930 . S
H546 C569 0.930 . S
H547 C570 0.929 . S
O548 Tb504 2.465 . S
O548 C568 1.264 . S
O549 Tb504 2.387 1_565 S
O549 C560 1.264 . S
O550 Tb515 2.349 1_565 S
O550 C560 1.243 . S
O551 Tb504 2.428 . S
O551 C568 1.256 . S
O552 Tb504 2.308 . S
O552 C567 1.266 . S
O553 Tb515 2.393 . S
O553 C567 1.248 . S
O554 Tb515 2.465 . S
O554 C579 1.264 . S
O555 Tb515 2.387 . S
O555 C571 1.264 . S
O556 Tb504 2.349 . S
O556 C571 1.243 . S
O557 Tb515 2.428 . S
O557 C579 1.256 . S
O558 Tb515 2.308 . S
O558 C578 1.266 . S
O559 Tb504 2.393 . S
O559 C578 1.248 . S
C560 O549 1.264 . S
C560 O550 1.243 . S
C561 C564 1.399 . S
C561 C566 1.383 . S
C561 C568 1.496 . S
C562 C563 1.399 . S
C562 C566 1.389 . S
C563 C562 1.399 . S
C563 C565 1.380 . S
C563 H580 0.929 . S
C564 C561 1.399 . S
C564 C565 1.392 . S
C564 H581 0.929 . S
C565 C563 1.380 . S
C565 C564 1.392 . S
C565 H582 0.929 . S
C566 C561 1.383 . S
C566 C562 1.389 . S
C566 H583 0.931 . S
C567 O552 1.266 . S
C567 O553 1.248 . S
C568 Tb504 2.802 . S
C568 O548 1.264 . S
C568 O551 1.256 . S
C568 C561 1.496 . S
C569 C536 1.448 . S
C569 H546 0.930 . S
C569 C570 1.328 . S
C570 C541 1.427 . S
C570 H547 0.929 . S
C570 C569 1.328 . S
C571 O555 1.264 . S
C571 O556 1.243 . S
C572 C575 1.399 . S
C572 C576 1.383 . S
C572 C579 1.496 1_565 S
C573 C574 1.399 . S
C573 C576 1.389 . S
C574 C573 1.399 . S
C574 C577 1.380 . S
C574 H584 0.929 . S
C575 C572 1.399 . S
C575 C577 1.392 . S
C575 H585 0.929 . S
C576 C572 1.383 . S
C576 C573 1.389 . S
C576 H586 0.931 . S
C577 C574 1.380 . S
C577 C575 1.392 . S
C577 H587 0.929 . S
C578 O558 1.266 . S
C578 O559 1.248 . S
C579 Tb515 2.802 . S
C579 O554 1.264 . S
C579 O557 1.256 . S
C579 C572 1.496 1_545 S
H580 C563 0.929 . S
H581 C564 0.929 . S
H582 C565 0.929 . S
H583 C566 0.931 . S
H584 C574 0.929 . S
H585 C575 0.929 . S
H586 C576 0.931 . S
H587 C577 0.929 . S
Tb588 N617 2.617 . S
Tb588 N623 2.572 . S
Tb588 O632 2.465 . S
Tb588 O633 2.387 . S
Tb588 O635 2.428 . S
Tb588 O636 2.308 . S
Tb588 O640 2.349 . S
Tb588 O643 2.393 . S
Tb588 C652 2.802 . S
C589 N590 1.379 . S
C589 C592 1.416 . S
C589 C596 1.424 . S
N590 C589 1.379 . S
N590 C593 1.334 . S
N590 Tb599 2.617 . S
C591 C593 1.390 . S
C591 C594 1.339 . S
C591 H611 0.930 . S
C592 C589 1.416 . S
C592 C594 1.416 . S
C592 C598 1.448 . S
C593 N590 1.334 . S
C593 C591 1.390 . S
C593 H604 0.930 . S
C594 C591 1.339 . S
C594 C592 1.416 . S
C594 H615 0.930 . S
C595 C596 1.413 . S
C595 C597 1.427 . S
C595 C601 1.416 . S
C596 C589 1.424 . S
C596 C595 1.413 . S
C596 N600 1.361 . S
C597 C595 1.427 . S
C597 C598 1.328 . S
C597 H612 0.929 . S
C598 C592 1.448 . S
C598 C597 1.328 . S
C598 H613 0.930 . S
Tb599 N590 2.617 . S
Tb599 N600 2.572 . S
Tb599 O634 2.349 . S
Tb599 O637 2.393 . S
Tb599 O638 2.465 . S
Tb599 O639 2.387 . S
Tb599 O641 2.428 . S
Tb599 O642 2.308 . S
Tb599 C663 2.802 . S
N600 C596 1.361 . S
N600 Tb599 2.572 . S
N600 C602 1.340 . S
C601 C595 1.416 . S
C601 C603 1.332 . S
C601 H609 0.931 . S
C602 N600 1.340 . S
C602 C603 1.407 . S
C602 H608 0.930 . S
C603 C601 1.332 . S
C603 C602 1.407 . S
C603 H605 0.929 . S
H604 C593 0.930 . S
H605 C603 0.929 . S
H606 C621 0.930 . S
H607 C628 0.929 . S
H608 C602 0.930 . S
H609 C601 0.931 . S
H610 C624 0.930 . S
H611 C591 0.930 . S
H612 C597 0.929 . S
H613 C598 0.930 . S
H614 C619 0.930 . S
H615 C594 0.930 . S
H616 C627 0.931 . S
N617 Tb588 2.617 . S
N617 C618 1.379 . S
N617 C621 1.334 . S
C618 N617 1.379 . S
C618 C620 1.416 . S
C618 C626 1.424 . S
C619 H614 0.930 . S
C619 C621 1.390 . S
C619 C622 1.339 . S
C620 C618 1.416 . S
C620 C622 1.416 . S
C620 C653 1.448 . S
C621 H606 0.930 . S
C621 N617 1.334 . S
C621 C619 1.390 . S
C622 C619 1.339 . S
C622 C620 1.416 . S
C622 H629 0.930 . S
N623 Tb588 2.572 . S
N623 C624 1.340 . S
N623 C626 1.361 . S
C624 H610 0.930 . S
C624 N623 1.340 . S
C624 C628 1.407 . S
C625 C626 1.413 . S
C625 C627 1.416 . S
C625 C654 1.427 . S
C626 C618 1.424 . S
C626 N623 1.361 . S
C626 C625 1.413 . S
C627 H616 0.931 . S
C627 C625 1.416 . S
C627 C628 1.332 . S
C628 H607 0.929 . S
C628 C624 1.407 . S
C628 C627 1.332 . S
H629 C622 0.930 . S
H630 C653 0.930 . S
H631 C654 0.929 . S
O632 Tb588 2.465 . S
O632 C652 1.264 . S
O633 Tb588 2.387 . S
O633 C644 1.264 . S
O634 Tb599 2.349 . S
O634 C644 1.243 . S
O635 Tb588 2.428 . S
O635 C652 1.256 . S
O636 Tb588 2.308 . S
O636 C651 1.266 . S
O637 Tb599 2.393 . S
O637 C651 1.248 . S
O638 Tb599 2.465 . S
O638 C663 1.264 . S
O639 Tb599 2.387 . S
O639 C655 1.264 . S
O640 Tb588 2.349 . S
O640 C655 1.243 . S
O641 Tb599 2.428 . S
O641 C663 1.256 . S
O642 Tb599 2.308 . S
O642 C662 1.266 . S
O643 Tb588 2.393 . S
O643 C662 1.248 . S
C644 O633 1.264 . S
C644 O634 1.243 . S
C645 C648 1.399 . S
C645 C650 1.383 . S
C645 C652 1.496 . S
C646 C647 1.399 . S
C646 C650 1.389 . S
C647 C646 1.399 . S
C647 C649 1.380 . S
C647 H664 0.929 . S
C648 C645 1.399 . S
C648 C649 1.392 . S
C648 H665 0.929 . S
C649 C647 1.380 . S
C649 C648 1.392 . S
C649 H666 0.929 . S
C650 C645 1.383 . S
C650 C646 1.389 . S
C650 H667 0.931 . S
C651 O636 1.266 . S
C651 O637 1.248 . S
C652 Tb588 2.802 . S
C652 O632 1.264 . S
C652 O635 1.256 . S
C652 C645 1.496 . S
C653 C620 1.448 . S
C653 H630 0.930 . S
C653 C654 1.328 . S
C654 C625 1.427 . S
C654 H631 0.929 . S
C654 C653 1.328 . S
C655 O639 1.264 . S
C655 O640 1.243 . S
C656 C659 1.399 . S
C656 C660 1.383 . S
C656 C663 1.496 . S
C657 C658 1.399 . S
C657 C660 1.389 . S
C658 C657 1.399 . S
C658 C661 1.380 . S
C658 H668 0.929 . S
C659 C656 1.399 . S
C659 C661 1.392 . S
C659 H669 0.929 . S
C660 C656 1.383 . S
C660 C657 1.389 . S
C660 H670 0.931 . S
C661 C658 1.380 . S
C661 C659 1.392 . S
C661 H671 0.929 . S
C662 O642 1.266 . S
C662 O643 1.248 . S
C663 Tb599 2.802 . S
C663 O638 1.264 . S
C663 O641 1.256 . S
C663 C656 1.496 . S
H664 C647 0.929 . S
H665 C648 0.929 . S
H666 C649 0.929 . S
H667 C650 0.931 . S
H668 C658 0.929 . S
H669 C659 0.929 . S
H670 C660 0.931 . S
H671 C661 0.929 . S
Tb672 N701 2.617 . S
Tb672 N707 2.572 . S
Tb672 O716 2.465 . S
Tb672 O717 2.387 1_565 S
Tb672 O719 2.428 . S
Tb672 O720 2.308 1_565 S
Tb672 O724 2.349 1_565 S
Tb672 O727 2.393 1_565 S
Tb672 C736 2.802 . S
C673 N674 1.379 1_455 S
C673 C676 1.416 1_455 S
C673 C680 1.424 . S
N674 C673 1.379 1_655 S
N674 C677 1.334 . S
N674 Tb683 2.617 1_655 S
C675 C677 1.390 . S
C675 C678 1.339 . S
C675 H695 0.930 . S
C676 C673 1.416 1_655 S
C676 C678 1.416 . S
C676 C682 1.448 1_655 S
C677 N674 1.334 . S
C677 C675 1.390 . S
C677 H688 0.930 . S
C678 C675 1.339 . S
C678 C676 1.416 . S
C678 H699 0.930 . S
C679 C680 1.413 . S
C679 C681 1.427 . S
C679 C685 1.416 . S
C680 C673 1.424 . S
C680 C679 1.413 . S
C680 N684 1.361 . S
C681 C679 1.427 . S
C681 C682 1.328 . S
C681 H696 0.929 . S
C682 C676 1.448 1_455 S
C682 C681 1.328 . S
C682 H697 0.957 . S
Tb683 N674 2.617 1_455 S
Tb683 N684 2.572 . S
Tb683 O718 2.349 . S
Tb683 O721 2.393 1_455 S
Tb683 O722 2.465 . S
Tb683 O723 2.387 . S
Tb683 O725 2.428 1_455 S
Tb683 O726 2.308 . S
Tb683 C747 2.802 . S
N684 C680 1.361 . S
N684 Tb683 2.572 . S
N684 C686 1.340 . S
C685 C679 1.416 . S
C685 C687 1.332 . S
C685 H693 0.931 . S
C686 N684 1.340 . S
C686 C687 1.407 . S
C686 H692 0.930 . S
C687 C685 1.332 . S
C687 C686 1.407 . S
C687 H689 0.929 . S
H688 C677 0.930 . S
H689 C687 0.929 . S
H690 C705 0.930 1_545 S
H691 C712 0.929 . S
H692 C686 0.930 . S
H693 C685 0.931 . S
H694 C708 0.930 . S
H695 C675 0.930 . S
H696 C681 0.929 . S
H697 C682 0.957 . S
H698 C703 0.930 . S
H699 C678 0.930 . S
H700 C711 0.931 . S
N701 Tb672 2.617 . S
N701 C702 1.379 . S
N701 C705 1.334 . S
C702 N701 1.379 . S
C702 C704 1.416 . S
C702 C710 1.424 . S
C703 H698 0.930 . S
C703 C705 1.390 . S
C703 C706 1.339 . S
C704 C702 1.416 . S
C704 C706 1.416 . S
C704 C737 1.448 . S
C705 H690 0.930 1_565 S
C705 N701 1.334 . S
C705 C703 1.390 . S
C706 C703 1.339 . S
C706 C704 1.416 . S
C706 H713 0.930 . S
N707 Tb672 2.572 . S
N707 C708 1.340 1_455 S
N707 C710 1.361 . S
C708 H694 0.930 . S
C708 N707 1.340 1_655 S
C708 C712 1.407 . S
C709 C710 1.413 . S
C709 C711 1.416 1_455 S
C709 C738 1.427 . S
C710 C702 1.424 . S
C710 N707 1.361 . S
C710 C709 1.413 . S
C711 H700 0.931 . S
C711 C709 1.416 1_655 S
C711 C712 1.332 . S
C712 H691 0.929 . S
C712 C708 1.407 . S
C712 C711 1.332 . S
H713 C706 0.930 . S
H714 C737 0.930 . S
H715 C738 0.929 . S
O716 Tb672 2.465 . S
O716 C736 1.264 . S
O717 Tb672 2.387 1_545 S
O717 C728 1.264 . S
O718 Tb683 2.349 . S
O718 C728 1.243 . S
O719 Tb672 2.428 . S
O719 C736 1.256 . S
O720 Tb672 2.308 1_545 S
O720 C735 1.266 1_455 S
O721 Tb683 2.393 1_655 S
O721 C735 1.248 . S
O722 Tb683 2.465 . S
O722 C747 1.264 . S
O723 Tb683 2.387 . S
O723 C739 1.264 . S
O724 Tb672 2.349 1_545 S
O724 C739 1.243 . S
O725 Tb683 2.428 1_655 S
O725 C747 1.256 1_655 S
O726 Tb683 2.308 . S
O726 C746 1.266 . S
O727 Tb672 2.393 1_545 S
O727 C746 1.248 . S
C728 O717 1.264 . S
C728 O718 1.243 . S
C729 C732 1.399 . S
C729 C734 1.383 . S
C729 C736 1.496 . S
C730 C731 1.399 . S
C730 C734 1.389 . S
C731 C730 1.399 . S
C731 C733 1.380 . S
C731 H748 0.929 . S
C732 C729 1.399 . S
C732 C733 1.392 . S
C732 H749 0.929 . S
C733 C731 1.380 . S
C733 C732 1.392 . S
C733 H750 0.929 . S
C734 C729 1.383 . S
C734 C730 1.389 . S
C734 H751 0.931 . S
C735 O720 1.266 1_655 S
C735 O721 1.248 . S
C736 Tb672 2.802 . S
C736 O716 1.264 . S
C736 O719 1.256 . S
C736 C729 1.496 . S
C737 C704 1.448 . S
C737 H714 0.930 . S
C737 C738 1.328 . S
C738 C709 1.427 . S
C738 H715 0.929 . S
C738 C737 1.328 . S
C739 O723 1.264 . S
C739 O724 1.243 . S
C740 C743 1.399 1_455 S
C740 C744 1.383 . S
C740 C747 1.496 . S
C741 C742 1.399 . S
C741 C744 1.389 . S
C742 C741 1.399 . S
C742 C745 1.380 1_455 S
C742 H752 0.929 1_455 S
C743 C740 1.399 1_655 S
C743 C745 1.392 . S
C743 H753 0.929 . S
C744 C740 1.383 . S
C744 C741 1.389 . S
C744 H754 0.931 . S
C745 C742 1.380 1_655 S
C745 C743 1.392 . S
C745 H755 0.929 . S
C746 O726 1.266 . S
C746 O727 1.248 . S
C747 Tb683 2.802 . S
C747 O722 1.264 . S
C747 O725 1.256 1_455 S
C747 C740 1.496 . S
H748 C731 0.929 . S
H749 C732 0.929 . S
H750 C733 0.929 . S
H751 C734 0.931 . S
H752 C742 0.929 1_655 S
H753 C743 0.929 . S
H754 C744 0.931 . S
H755 C745 0.929 . S
Tb756 N785 2.617 . S
Tb756 N791 2.572 . S
Tb756 O800 2.465 . S
Tb756 O801 2.387 . S
Tb756 O803 2.428 . S
Tb756 O804 2.308 . S
Tb756 O808 2.349 . S
Tb756 O811 2.393 . S
Tb756 C820 2.802 . S
C757 N758 1.379 . S
C757 C760 1.416 . S
C757 C764 1.424 . S
N758 C757 1.379 . S
N758 C761 1.334 . S
N758 Tb767 2.617 . S
C759 C761 1.390 . S
C759 C762 1.339 . S
C759 H779 0.930 . S
C760 C757 1.416 . S
C760 C762 1.416 . S
C760 C766 1.448 . S
C761 N758 1.334 . S
C761 C759 1.390 . S
C761 H772 0.930 . S
C762 C759 1.339 . S
C762 C760 1.416 . S
C762 H783 0.930 . S
C763 C764 1.413 . S
C763 C765 1.427 . S
C763 C769 1.416 . S
C764 C757 1.424 . S
C764 C763 1.413 . S
C764 N768 1.361 . S
C765 C763 1.427 . S
C765 C766 1.328 . S
C765 H780 0.929 . S
C766 C760 1.448 . S
C766 C765 1.328 . S
C766 H781 0.930 . S
Tb767 N758 2.617 . S
Tb767 N768 2.572 . S
Tb767 O802 2.349 . S
Tb767 O805 2.393 . S
Tb767 O806 2.465 . S
Tb767 O807 2.387 . S
Tb767 O809 2.428 . S
Tb767 O810 2.308 . S
Tb767 C831 2.802 . S
N768 C764 1.361 . S
N768 Tb767 2.572 . S
N768 C770 1.340 . S
C769 C763 1.416 . S
C769 C771 1.332 . S
C769 H777 0.931 . S
C770 N768 1.340 . S
C770 C771 1.407 . S
C770 H776 0.930 . S
C771 C769 1.332 . S
C771 C770 1.407 . S
C771 H773 0.929 . S
H772 C761 0.930 . S
H773 C771 0.929 . S
H774 C789 0.930 . S
H775 C796 0.929 . S
H776 C770 0.930 . S
H777 C769 0.931 . S
H778 C792 0.930 . S
H779 C759 0.930 . S
H780 C765 0.929 . S
H781 C766 0.930 . S
H782 C787 0.930 . S
H783 C762 0.930 . S
H784 C795 0.931 . S
N785 Tb756 2.617 . S
N785 C786 1.379 . S
N785 C789 1.334 . S
C786 N785 1.379 . S
C786 C788 1.416 . S
C786 C794 1.424 . S
C787 H782 0.930 . S
C787 C789 1.390 . S
C787 C790 1.339 . S
C788 C786 1.416 . S
C788 C790 1.416 . S
C788 C821 1.448 . S
C789 H774 0.930 . S
C789 N785 1.334 . S
C789 C787 1.390 . S
C790 C787 1.339 . S
C790 C788 1.416 . S
C790 H797 0.930 . S
N791 Tb756 2.572 . S
N791 C792 1.340 . S
N791 C794 1.361 . S
C792 H778 0.930 . S
C792 N791 1.340 . S
C792 C796 1.407 . S
C793 C794 1.413 . S
C793 C795 1.416 . S
C793 C822 1.427 . S
C794 C786 1.424 . S
C794 N791 1.361 . S
C794 C793 1.413 . S
C795 H784 0.931 . S
C795 C793 1.416 . S
C795 C796 1.332 . S
C796 H775 0.929 . S
C796 C792 1.407 . S
C796 C795 1.332 . S
H797 C790 0.930 . S
H798 C821 0.930 . S
H799 C822 0.929 . S
O800 Tb756 2.465 . S
O800 C820 1.264 . S
O801 Tb756 2.387 . S
O801 C812 1.264 . S
O802 Tb767 2.349 . S
O802 C812 1.243 . S
O803 Tb756 2.428 . S
O803 C820 1.256 . S
O804 Tb756 2.308 . S
O804 C819 1.266 . S
O805 Tb767 2.393 . S
O805 C819 1.248 . S
O806 Tb767 2.465 . S
O806 C831 1.264 . S
O807 Tb767 2.387 . S
O807 C823 1.264 . S
O808 Tb756 2.349 . S
O808 C823 1.243 . S
O809 Tb767 2.428 . S
O809 C831 1.256 . S
O810 Tb767 2.308 . S
O810 C830 1.266 . S
O811 Tb756 2.393 . S
O811 C830 1.248 . S
C812 O801 1.264 . S
C812 O802 1.243 . S
C813 C816 1.399 . S
C813 C818 1.383 . S
C813 C820 1.496 . S
C814 C815 1.399 . S
C814 C818 1.389 . S
C815 C814 1.399 . S
C815 C817 1.380 . S
C815 H832 0.929 . S
C816 C813 1.399 . S
C816 C817 1.392 . S
C816 H833 0.929 . S
C817 C815 1.380 . S
C817 C816 1.392 . S
C817 H834 0.929 . S
C818 C813 1.383 . S
C818 C814 1.389 . S
C818 H835 0.931 . S
C819 O804 1.266 . S
C819 O805 1.248 . S
C820 Tb756 2.802 . S
C820 O800 1.264 . S
C820 O803 1.256 . S
C820 C813 1.496 . S
C821 C788 1.448 . S
C821 H798 0.930 . S
C821 C822 1.328 . S
C822 C793 1.427 . S
C822 H799 0.929 . S
C822 C821 1.328 . S
C823 O807 1.264 . S
C823 O808 1.243 . S
C824 C827 1.399 . S
C824 C828 1.383 . S
C824 C831 1.496 . S
C825 C826 1.399 . S
C825 C828 1.389 . S
C826 C825 1.399 . S
C826 C829 1.380 . S
C826 H836 0.929 . S
C827 C824 1.399 . S
C827 C829 1.392 . S
C827 H837 0.929 . S
C828 C824 1.383 . S
C828 C825 1.389 . S
C828 H838 0.931 . S
C829 C826 1.380 . S
C829 C827 1.392 . S
C829 H839 0.929 . S
C830 O810 1.266 . S
C830 O811 1.248 . S
C831 Tb767 2.802 . S
C831 O806 1.264 . S
C831 O809 1.256 . S
C831 C824 1.496 . S
H832 C815 0.929 . S
H833 C816 0.929 . S
H834 C817 0.929 . S
H835 C818 0.931 . S
H836 C826 0.929 . S
H837 C827 0.929 . S
H838 C828 0.931 . S
H839 C829 0.929 . S
Tb840 N869 2.617 . S
Tb840 N875 2.572 . S
Tb840 O884 2.465 . S
Tb840 O885 2.387 1_556 S
Tb840 O887 2.428 . S
Tb840 O888 2.308 . S
Tb840 O892 2.349 1_556 S
Tb840 O895 2.393 1_556 S
Tb840 C904 2.802 . S
C841 N842 1.379 1_545 S
C841 C844 1.416 1_545 S
C841 C848 1.424 . S
N842 C841 1.379 1_565 S
N842 C845 1.334 . S
N842 Tb851 2.617 1_565 S
C843 C845 1.390 . S
C843 C846 1.339 . S
C843 H863 0.930 . S
C844 C841 1.416 1_565 S
C844 C846 1.416 . S
C844 C850 1.448 1_565 S
C845 N842 1.334 . S
C845 C843 1.390 . S
C845 H856 0.930 . S
C846 C843 1.339 . S
C846 C844 1.416 . S
C846 H867 0.930 . S
C847 C848 1.413 . S
C847 C849 1.427 . S
C847 C853 1.416 . S
C848 C841 1.424 . S
C848 C847 1.413 . S
C848 N852 1.361 . S
C849 C847 1.427 . S
C849 C850 1.328 . S
C849 H864 0.929 . S
C850 C844 1.448 1_545 S
C850 C849 1.328 . S
C850 H865 0.930 1_545 S
Tb851 N842 2.617 1_545 S
Tb851 N852 2.572 . S
Tb851 O886 2.349 . S
Tb851 O889 2.393 1_545 S
Tb851 O890 2.465 . S
Tb851 O891 2.387 . S
Tb851 O893 2.428 1_545 S
Tb851 O894 2.308 . S
Tb851 C915 2.802 . S
N852 C848 1.361 . S
N852 Tb851 2.572 . S
N852 C854 1.340 . S
C853 C847 1.416 . S
C853 C855 1.332 . S
C853 H861 0.931 . S
C854 N852 1.340 . S
C854 C855 1.407 . S
C854 H860 0.930 . S
C855 C853 1.332 . S
C855 C854 1.407 . S
C855 H857 0.929 . S
H856 C845 0.930 . S
H857 C855 0.929 . S
H858 C873 0.925 1_554 S
H859 C880 0.929 . S
H860 C854 0.930 . S
H861 C853 0.931 . S
H862 C876 0.930 . S
H863 C843 0.930 . S
H864 C849 0.929 . S
H865 C850 0.930 1_565 S
H866 C871 0.930 . S
H867 C846 0.930 . S
H868 C879 0.944 . S
N869 Tb840 2.617 . S
N869 C870 1.379 . S
N869 C873 1.334 . S
C870 N869 1.379 . S
C870 C872 1.416 . S
C870 C878 1.424 . S
C871 H866 0.930 . S
C871 C873 1.390 . S
C871 C874 1.339 . S
C872 C870 1.416 . S
C872 C874 1.416 . S
C872 C905 1.448 . S
C873 H858 0.925 1_556 S
C873 N869 1.334 . S
C873 C871 1.390 . S
C874 C871 1.339 . S
C874 C872 1.416 . S
C874 H881 0.930 . S
N875 Tb840 2.572 . S
N875 C876 1.340 . S
N875 C878 1.361 . S
C876 H862 0.930 . S
C876 N875 1.340 . S
C876 C880 1.407 1_545 S
C877 C878 1.413 . S
C877 C879 1.416 . S
C877 C906 1.427 . S
C878 C870 1.424 . S
C878 N875 1.361 . S
C878 C877 1.413 . S
C879 H868 0.944 . S
C879 C877 1.416 . S
C879 C880 1.332 1_545 S
C880 H859 0.929 . S
C880 C876 1.407 1_565 S
C880 C879 1.332 1_565 S
H881 C874 0.930 . S
H882 C905 0.930 . S
H883 C906 0.929 . S
O884 Tb840 2.465 . S
O884 C904 1.264 . S
O885 Tb840 2.387 1_554 S
O885 C896 1.264 . S
O886 Tb851 2.349 . S
O886 C896 1.243 . S
O887 Tb840 2.428 . S
O887 C904 1.256 . S
O888 Tb840 2.308 . S
O888 C903 1.266 1_546 S
O889 Tb851 2.393 1_565 S
O889 C903 1.248 . S
O890 Tb851 2.465 . S
O890 C915 1.264 . S
O891 Tb851 2.387 . S
O891 C907 1.264 . S
O892 Tb840 2.349 1_554 S
O892 C907 1.243 . S
O893 Tb851 2.428 1_565 S
O893 C915 1.256 1_565 S
O894 Tb851 2.308 . S
O894 C914 1.266 . S
O895 Tb840 2.393 1_554 S
O895 C914 1.248 . S
C896 O885 1.264 . S
C896 O886 1.243 . S
C897 C900 1.399 . S
C897 C902 1.383 . S
C897 C904 1.496 . S
C898 C899 1.399 . S
C898 C902 1.389 . S
C899 C898 1.399 . S
C899 C901 1.380 . S
C899 H916 0.929 . S
C900 C897 1.399 . S
C900 C901 1.392 . S
C900 H917 0.929 . S
C901 C899 1.380 . S
C901 C900 1.392 . S
C901 H918 0.929 . S
C902 C897 1.383 . S
C902 C898 1.389 . S
C902 H919 0.931 . S
C903 O888 1.266 1_564 S
C903 O889 1.248 . S
C904 Tb840 2.802 . S
C904 O884 1.264 . S
C904 O887 1.256 . S
C904 C897 1.496 . S
C905 C872 1.448 . S
C905 H882 0.930 . S
C905 C906 1.328 . S
C906 C877 1.427 . S
C906 H883 0.929 . S
C906 C905 1.328 . S
C907 O891 1.264 . S
C907 O892 1.243 . S
C908 C911 1.399 . S
C908 C912 1.383 1_565 S
C908 C915 1.496 1_565 S
C909 C910 1.399 1_545 S
C909 C912 1.389 . S
C910 C909 1.399 1_565 S
C910 C913 1.380 . S
C910 H920 0.929 . S
C911 C908 1.399 . S
C911 C913 1.392 . S
C911 H921 0.929 . S
C912 C908 1.383 1_545 S
C912 C909 1.389 . S
C912 H922 0.931 . S
C913 C910 1.380 . S
C913 C911 1.392 . S
C913 H923 0.929 . S
C914 O894 1.266 . S
C914 O895 1.248 . S
C915 Tb851 2.802 . S
C915 O890 1.264 . S
C915 O893 1.256 1_545 S
C915 C908 1.496 1_545 S
H916 C899 0.929 . S
H917 C900 0.929 . S
H918 C901 0.929 . S
H919 C902 0.931 . S
H920 C910 0.929 . S
H921 C911 0.929 . S
H922 C912 0.931 . S
H923 C913 0.929 . S
Tb924 N953 2.617 . S
Tb924 N959 2.572 . S
Tb924 O968 2.465 . S
Tb924 O969 2.387 . S
Tb924 O971 2.428 . S
Tb924 O972 2.308 . S
Tb924 O976 2.349 . S
Tb924 O979 2.393 . S
Tb924 C988 2.802 . S
C925 N926 1.379 . S
C925 C928 1.416 . S
C925 C932 1.424 . S
N926 C925 1.379 . S
N926 C929 1.334 . S
N926 Tb935 2.617 . S
C927 C929 1.390 . S
C927 C930 1.339 . S
C927 H947 0.930 . S
C928 C925 1.416 . S
C928 C930 1.416 . S
C928 C934 1.448 . S
C929 N926 1.334 . S
C929 C927 1.390 . S
C929 H940 0.930 . S
C930 C927 1.339 . S
C930 C928 1.416 . S
C930 H951 0.930 . S
C931 C932 1.413 . S
C931 C933 1.427 . S
C931 C937 1.416 . S
C932 C925 1.424 . S
C932 C931 1.413 . S
C932 N936 1.361 . S
C933 C931 1.427 . S
C933 C934 1.328 . S
C933 H948 0.929 . S
C934 C928 1.448 . S
C934 C933 1.328 . S
C934 H949 0.930 . S
Tb935 N926 2.617 . S
Tb935 N936 2.572 . S
Tb935 O970 2.349 . S
Tb935 O973 2.393 . S
Tb935 O974 2.465 . S
Tb935 O975 2.387 . S
Tb935 O977 2.428 . S
Tb935 O978 2.308 . S
Tb935 C999 2.802 . S
N936 C932 1.361 . S
N936 Tb935 2.572 . S
N936 C938 1.340 . S
C937 C931 1.416 . S
C937 C939 1.332 . S
C937 H945 0.931 . S
C938 N936 1.340 . S
C938 C939 1.407 . S
C938 H944 0.930 . S
C939 C937 1.332 . S
C939 C938 1.407 . S
C939 H941 0.929 . S
H940 C929 0.930 . S
H941 C939 0.929 . S
H942 C957 0.930 . S
H943 C964 0.929 . S
H944 C938 0.930 . S
H945 C937 0.931 . S
H946 C960 0.930 . S
H947 C927 0.930 . S
H948 C933 0.929 . S
H949 C934 0.930 . S
H950 C955 0.930 . S
H951 C930 0.930 . S
H952 C963 0.931 . S
N953 Tb924 2.617 . S
N953 C954 1.379 . S
N953 C957 1.334 . S
C954 N953 1.379 . S
C954 C956 1.416 . S
C954 C962 1.424 . S
C955 H950 0.930 . S
C955 C957 1.390 . S
C955 C958 1.339 . S
C956 C954 1.416 . S
C956 C958 1.416 . S
C956 C989 1.448 . S
C957 H942 0.930 . S
C957 N953 1.334 . S
C957 C955 1.390 . S
C958 C955 1.339 . S
C958 C956 1.416 . S
C958 H965 0.930 . S
N959 Tb924 2.572 . S
N959 C960 1.340 . S
N959 C962 1.361 . S
C960 H946 0.930 . S
C960 N959 1.340 . S
C960 C964 1.407 . S
C961 C962 1.413 . S
C961 C963 1.416 . S
C961 C990 1.427 . S
C962 C954 1.424 . S
C962 N959 1.361 . S
C962 C961 1.413 . S
C963 H952 0.931 . S
C963 C961 1.416 . S
C963 C964 1.332 . S
C964 H943 0.929 . S
C964 C960 1.407 . S
C964 C963 1.332 . S
H965 C958 0.930 . S
H966 C989 0.930 . S
H967 C990 0.929 . S
O968 Tb924 2.465 . S
O968 C988 1.264 . S
O969 Tb924 2.387 . S
O969 C980 1.264 . S
O970 Tb935 2.349 . S
O970 C980 1.243 . S
O971 Tb924 2.428 . S
O971 C988 1.256 . S
O972 Tb924 2.308 . S
O972 C987 1.266 . S
O973 Tb935 2.393 . S
O973 C987 1.248 . S
O974 Tb935 2.465 . S
O974 C999 1.264 . S
O975 Tb935 2.387 . S
O975 C991 1.264 . S
O976 Tb924 2.349 . S
O976 C991 1.243 . S
O977 Tb935 2.428 . S
O977 C999 1.256 . S
O978 Tb935 2.308 . S
O978 C998 1.266 . S
O979 Tb924 2.393 . S
O979 C998 1.248 . S
C980 O969 1.264 . S
C980 O970 1.243 . S
C981 C984 1.399 . S
C981 C986 1.383 . S
C981 C988 1.496 . S
C982 C983 1.399 . S
C982 C986 1.389 . S
C983 C982 1.399 . S
C983 C985 1.380 . S
C983 H1000 0.929 . S
C984 C981 1.399 . S
C984 C985 1.392 . S
C984 H1001 0.929 . S
C985 C983 1.380 . S
C985 C984 1.392 . S
C985 H1002 0.929 . S
C986 C981 1.383 . S
C986 C982 1.389 . S
C986 H1003 0.931 . S
C987 O972 1.266 . S
C987 O973 1.248 . S
C988 Tb924 2.802 . S
C988 O968 1.264 . S
C988 O971 1.256 . S
C988 C981 1.496 . S
C989 C956 1.448 . S
C989 H966 0.930 . S
C989 C990 1.328 . S
C990 C961 1.427 . S
C990 H967 0.929 . S
C990 C989 1.328 . S
C991 O975 1.264 . S
C991 O976 1.243 . S
C992 C995 1.399 . S
C992 C996 1.383 . S
C992 C999 1.496 . S
C993 C994 1.399 . S
C993 C996 1.389 . S
C994 C993 1.399 . S
C994 C997 1.380 . S
C994 H1004 0.929 . S
C995 C992 1.399 . S
C995 C997 1.392 . S
C995 H1005 0.929 . S
C996 C992 1.383 . S
C996 C993 1.389 . S
C996 H1006 0.931 . S
C997 C994 1.380 . S
C997 C995 1.392 . S
C997 H1007 0.929 . S
C998 O978 1.266 . S
C998 O979 1.248 . S
C999 Tb935 2.802 . S
C999 O974 1.264 . S
C999 O977 1.256 . S
C999 C992 1.496 . S
H1000 C983 0.929 . S
H1001 C984 0.929 . S
H1002 C985 0.929 . S
H1003 C986 0.931 . S
H1004 C994 0.929 . S
H1005 C995 0.929 . S
H1006 C996 0.931 . S
H1007 C997 0.929 . S
Tb1008 N1037 2.617 1_554 S
Tb1008 N1043 2.572 1_554 S
Tb1008 O1052 2.465 . S
Tb1008 O1053 2.387 1_554 S
Tb1008 O1055 2.428 . S
Tb1008 O1056 2.308 . S
Tb1008 O1060 2.349 . S
Tb1008 O1063 2.393 . S
Tb1008 C1072 2.802 . S
C1009 N1010 1.379 . S
C1009 C1012 1.416 . S
C1009 C1016 1.424 . S
N1010 C1009 1.379 . S
N1010 C1013 1.334 . S
N1010 Tb1019 2.617 . S
C1011 C1013 1.390 . S
C1011 C1014 1.339 . S
C1011 H1031 0.930 . S
C1012 C1009 1.416 . S
C1012 C1014 1.416 . S
C1012 C1018 1.448 . S
C1013 N1010 1.334 . S
C1013 C1011 1.390 . S
C1013 H1024 0.930 . S
C1014 C1011 1.339 . S
C1014 C1012 1.416 . S
C1014 H1035 0.930 . S
C1015 C1016 1.413 . S
C1015 C1017 1.427 . S
C1015 C1021 1.416 . S
C1016 C1009 1.424 . S
C1016 C1015 1.413 . S
C1016 N1020 1.361 . S
C1017 C1015 1.427 . S
C1017 C1018 1.328 . S
C1017 H1032 0.929 . S
C1018 C1012 1.448 . S
C1018 C1017 1.328 . S
C1018 H1033 0.930 . S
Tb1019 N1010 2.617 . S
Tb1019 N1020 2.572 . S
Tb1019 O1054 2.349 1_554 S
Tb1019 O1057 2.393 . S
Tb1019 O1058 2.465 . S
Tb1019 O1059 2.387 . S
Tb1019 O1061 2.428 . S
Tb1019 O1062 2.308 . S
Tb1019 C1083 2.802 . S
N1020 C1016 1.361 . S
N1020 Tb1019 2.572 . S
N1020 C1022 1.340 . S
C1021 C1015 1.416 . S
C1021 C1023 1.332 . S
C1021 H1029 0.931 . S
C1022 N1020 1.340 . S
C1022 C1023 1.407 . S
C1022 H1028 0.930 . S
C1023 C1021 1.332 . S
C1023 C1022 1.407 . S
C1023 H1025 0.929 . S
H1024 C1013 0.930 . S
H1025 C1023 0.929 . S
H1026 C1041 0.924 1_554 S
H1027 C1048 0.929 . S
H1028 C1022 0.930 . S
H1029 C1021 0.931 . S
H1030 C1044 0.930 . S
H1031 C1011 0.930 . S
H1032 C1017 0.929 . S
H1033 C1018 0.930 . S
H1034 C1039 0.930 . S
H1035 C1014 0.930 . S
H1036 C1047 0.931 . S
N1037 Tb1008 2.617 1_556 S
N1037 C1038 1.379 . S
N1037 C1041 1.334 . S
C1038 N1037 1.379 . S
C1038 C1040 1.416 . S
C1038 C1046 1.424 . S
C1039 H1034 0.930 . S
C1039 C1041 1.390 . S
C1039 C1042 1.339 . S
C1040 C1038 1.416 . S
C1040 C1042 1.416 . S
C1040 C1073 1.448 . S
C1041 H1026 0.924 1_556 S
C1041 N1037 1.334 . S
C1041 C1039 1.390 . S
C1042 C1039 1.339 . S
C1042 C1040 1.416 . S
C1042 H1049 0.930 . S
N1043 Tb1008 2.572 1_556 S
N1043 C1044 1.340 . S
N1043 C1046 1.361 . S
C1044 H1030 0.930 . S
C1044 N1043 1.340 . S
C1044 C1048 1.407 . S
C1045 C1046 1.413 . S
C1045 C1047 1.416 . S
C1045 C1074 1.427 . S
C1046 C1038 1.424 . S
C1046 N1043 1.361 . S
C1046 C1045 1.413 . S
C1047 H1036 0.931 . S
C1047 C1045 1.416 . S
C1047 C1048 1.332 . S
C1048 H1027 0.929 . S
C1048 C1044 1.407 . S
C1048 C1047 1.332 . S
H1049 C1042 0.930 . S
H1050 C1073 0.930 . S
H1051 C1074 0.929 . S
O1052 Tb1008 2.465 . S
O1052 C1072 1.264 . S
O1053 Tb1008 2.387 1_556 S
O1053 C1064 1.264 . S
O1054 Tb1019 2.349 1_556 S
O1054 C1064 1.243 . S
O1055 Tb1008 2.428 . S
O1055 C1072 1.256 . S
O1056 Tb1008 2.308 . S
O1056 C1071 1.266 . S
O1057 Tb1019 2.393 . S
O1057 C1071 1.248 . S
O1058 Tb1019 2.465 . S
O1058 C1083 1.264 . S
O1059 Tb1019 2.387 . S
O1059 C1075 1.264 . S
O1060 Tb1008 2.349 . S
O1060 C1075 1.243 . S
O1061 Tb1019 2.428 . S
O1061 C1083 1.256 . S
O1062 Tb1019 2.308 . S
O1062 C1082 1.266 . S
O1063 Tb1008 2.393 . S
O1063 C1082 1.248 . S
C1064 O1053 1.264 . S
C1064 O1054 1.243 . S
C1065 C1068 1.399 . S
C1065 C1070 1.383 . S
C1065 C1072 1.496 . S
C1066 C1067 1.399 . S
C1066 C1070 1.389 . S
C1067 C1066 1.399 . S
C1067 C1069 1.380 . S
C1067 H1084 0.929 . S
C1068 C1065 1.399 . S
C1068 C1069 1.392 . S
C1068 H1085 0.929 . S
C1069 C1067 1.380 . S
C1069 C1068 1.392 . S
C1069 H1086 0.929 . S
C1070 C1065 1.383 . S
C1070 C1066 1.389 . S
C1070 H1087 0.931 . S
C1071 O1056 1.266 . S
C1071 O1057 1.248 . S
C1072 Tb1008 2.802 . S
C1072 O1052 1.264 . S
C1072 O1055 1.256 . S
C1072 C1065 1.496 . S
C1073 C1040 1.448 . S
C1073 H1050 0.930 . S
C1073 C1074 1.328 . S
C1074 C1045 1.427 . S
C1074 H1051 0.929 . S
C1074 C1073 1.328 . S
C1075 O1059 1.264 . S
C1075 O1060 1.243 . S
C1076 C1079 1.399 . S
C1076 C1080 1.383 . S
C1076 C1083 1.496 1_556 S
C1077 C1078 1.399 . S
C1077 C1080 1.389 . S
C1078 C1077 1.399 . S
C1078 C1081 1.380 . S
C1078 H1088 0.929 . S
C1079 C1076 1.399 . S
C1079 C1081 1.392 . S
C1079 H1089 0.929 . S
C1080 C1076 1.383 . S
C1080 C1077 1.389 . S
C1080 H1090 0.931 . S
C1081 C1078 1.380 . S
C1081 C1079 1.392 . S
C1081 H1091 0.929 . S
C1082 O1062 1.266 . S
C1082 O1063 1.248 . S
C1083 Tb1019 2.802 . S
C1083 O1058 1.264 . S
C1083 O1061 1.256 . S
C1083 C1076 1.496 1_554 S
H1084 C1067 0.929 . S
H1085 C1068 0.929 . S
H1086 C1069 0.929 . S
H1087 C1070 0.931 . S
H1088 C1078 0.929 . S
H1089 C1079 0.929 . S
H1090 C1080 0.931 . S
H1091 C1081 0.929 . S
Tb1092 N1121 2.617 . S
Tb1092 N1127 2.572 . S
Tb1092 O1136 2.465 . S
Tb1092 O1137 2.387 . S
Tb1092 O1139 2.428 . S
Tb1092 O1140 2.308 . S
Tb1092 O1144 2.349 . S
Tb1092 O1147 2.393 . S
Tb1092 C1156 2.802 . S
C1093 N1094 1.379 . S
C1093 C1096 1.416 . S
C1093 C1100 1.424 . S
N1094 C1093 1.379 . S
N1094 C1097 1.334 . S
N1094 Tb1103 2.617 . S
C1095 C1097 1.390 . S
C1095 C1098 1.339 . S
C1095 H1115 0.930 . S
C1096 C1093 1.416 . S
C1096 C1098 1.416 . S
C1096 C1102 1.448 . S
C1097 N1094 1.334 . S
C1097 C1095 1.390 . S
C1097 H1108 0.930 . S
C1098 C1095 1.339 . S
C1098 C1096 1.416 . S
C1098 H1119 0.930 . S
C1099 C1100 1.413 . S
C1099 C1101 1.427 . S
C1099 C1105 1.416 . S
C1100 C1093 1.424 . S
C1100 C1099 1.413 . S
C1100 N1104 1.361 . S
C1101 C1099 1.427 . S
C1101 C1102 1.328 . S
C1101 H1116 0.929 . S
C1102 C1096 1.448 . S
C1102 C1101 1.328 . S
C1102 H1117 0.930 . S
Tb1103 N1094 2.617 . S
Tb1103 N1104 2.572 . S
Tb1103 O1138 2.349 . S
Tb1103 O1141 2.393 . S
Tb1103 O1142 2.465 . S
Tb1103 O1143 2.387 . S
Tb1103 O1145 2.428 . S
Tb1103 O1146 2.308 . S
Tb1103 C1167 2.802 . S
N1104 C1100 1.361 . S
N1104 Tb1103 2.572 . S
N1104 C1106 1.340 . S
C1105 C1099 1.416 . S
C1105 C1107 1.332 . S
C1105 H1113 0.931 . S
C1106 N1104 1.340 . S
C1106 C1107 1.407 . S
C1106 H1112 0.930 . S
C1107 C1105 1.332 . S
C1107 C1106 1.407 . S
C1107 H1109 0.929 . S
H1108 C1097 0.930 . S
H1109 C1107 0.929 . S
H1110 C1125 0.930 . S
H1111 C1132 0.929 . S
H1112 C1106 0.930 . S
H1113 C1105 0.931 . S
H1114 C1128 0.930 . S
H1115 C1095 0.930 . S
H1116 C1101 0.929 . S
H1117 C1102 0.930 . S
H1118 C1123 0.930 . S
H1119 C1098 0.930 . S
H1120 C1131 0.931 . S
N1121 Tb1092 2.617 . S
N1121 C1122 1.379 . S
N1121 C1125 1.334 . S
C1122 N1121 1.379 . S
C1122 C1124 1.416 . S
C1122 C1130 1.424 . S
C1123 H1118 0.930 . S
C1123 C1125 1.390 . S
C1123 C1126 1.339 . S
C1124 C1122 1.416 . S
C1124 C1126 1.416 . S
C1124 C1157 1.448 . S
C1125 H1110 0.930 . S
C1125 N1121 1.334 . S
C1125 C1123 1.390 . S
C1126 C1123 1.339 . S
C1126 C1124 1.416 . S
C1126 H1133 0.930 . S
N1127 Tb1092 2.572 . S
N1127 C1128 1.340 . S
N1127 C1130 1.361 . S
C1128 H1114 0.930 . S
C1128 N1127 1.340 . S
C1128 C1132 1.407 . S
C1129 C1130 1.413 . S
C1129 C1131 1.416 . S
C1129 C1158 1.427 . S
C1130 C1122 1.424 . S
C1130 N1127 1.361 . S
C1130 C1129 1.413 . S
C1131 H1120 0.931 . S
C1131 C1129 1.416 . S
C1131 C1132 1.332 . S
C1132 H1111 0.929 . S
C1132 C1128 1.407 . S
C1132 C1131 1.332 . S
H1133 C1126 0.930 . S
H1134 C1157 0.930 . S
H1135 C1158 0.929 . S
O1136 Tb1092 2.465 . S
O1136 C1156 1.264 . S
O1137 Tb1092 2.387 . S
O1137 C1148 1.264 . S
O1138 Tb1103 2.349 . S
O1138 C1148 1.243 . S
O1139 Tb1092 2.428 . S
O1139 C1156 1.256 . S
O1140 Tb1092 2.308 . S
O1140 C1155 1.266 . S
O1141 Tb1103 2.393 . S
O1141 C1155 1.248 . S
O1142 Tb1103 2.465 . S
O1142 C1167 1.264 . S
O1143 Tb1103 2.387 . S
O1143 C1159 1.264 . S
O1144 Tb1092 2.349 . S
O1144 C1159 1.243 . S
O1145 Tb1103 2.428 . S
O1145 C1167 1.256 . S
O1146 Tb1103 2.308 . S
O1146 C1166 1.266 . S
O1147 Tb1092 2.393 . S
O1147 C1166 1.248 . S
C1148 O1137 1.264 . S
C1148 O1138 1.243 . S
C1149 C1152 1.399 . S
C1149 C1154 1.383 . S
C1149 C1156 1.496 . S
C1150 C1151 1.399 . S
C1150 C1154 1.389 . S
C1151 C1150 1.399 . S
C1151 C1153 1.380 . S
C1151 H1168 0.929 . S
C1152 C1149 1.399 . S
C1152 C1153 1.392 . S
C1152 H1169 0.929 . S
C1153 C1151 1.380 . S
C1153 C1152 1.392 . S
C1153 H1170 0.929 . S
C1154 C1149 1.383 . S
C1154 C1150 1.389 . S
C1154 H1171 0.931 . S
C1155 O1140 1.266 . S
C1155 O1141 1.248 . S
C1156 Tb1092 2.802 . S
C1156 O1136 1.264 . S
C1156 O1139 1.256 . S
C1156 C1149 1.496 . S
C1157 C1124 1.448 . S
C1157 H1134 0.930 . S
C1157 C1158 1.328 . S
C1158 C1129 1.427 . S
C1158 H1135 0.929 . S
C1158 C1157 1.328 . S
C1159 O1143 1.264 . S
C1159 O1144 1.243 . S
C1160 C1163 1.399 . S
C1160 C1164 1.383 . S
C1160 C1167 1.496 . S
C1161 C1162 1.399 . S
C1161 C1164 1.389 . S
C1162 C1161 1.399 . S
C1162 C1165 1.380 . S
C1162 H1172 0.929 . S
C1163 C1160 1.399 . S
C1163 C1165 1.392 . S
C1163 H1173 0.929 . S
C1164 C1160 1.383 . S
C1164 C1161 1.389 . S
C1164 H1174 0.931 . S
C1165 C1162 1.380 . S
C1165 C1163 1.392 . S
C1165 H1175 0.929 . S
C1166 O1146 1.266 . S
C1166 O1147 1.248 . S
C1167 Tb1103 2.802 . S
C1167 O1142 1.264 . S
C1167 O1145 1.256 . S
C1167 C1160 1.496 . S
H1168 C1151 0.929 . S
H1169 C1152 0.929 . S
H1170 C1153 0.929 . S
H1171 C1154 0.931 . S
H1172 C1162 0.929 . S
H1173 C1163 0.929 . S
H1174 C1164 0.931 . S
H1175 C1165 0.929 . S
Tb1176 N1205 2.617 1_455 S
Tb1176 N1211 2.572 1_455 S
Tb1176 O1220 2.465 . S
Tb1176 O1221 2.387 1_455 S
Tb1176 O1223 2.428 . S
Tb1176 O1224 2.308 . S
Tb1176 O1228 2.349 . S
Tb1176 O1231 2.393 . S
Tb1176 C1240 2.802 . S
C1177 N1178 1.379 . S
C1177 C1180 1.416 . S
C1177 C1184 1.424 . S
N1178 C1177 1.379 . S
N1178 C1181 1.334 . S
N1178 Tb1187 2.617 . S
C1179 C1181 1.390 . S
C1179 C1182 1.339 . S
C1179 H1199 0.930 . S
C1180 C1177 1.416 . S
C1180 C1182 1.416 . S
C1180 C1186 1.448 . S
C1181 N1178 1.334 . S
C1181 C1179 1.390 . S
C1181 H1192 0.930 . S
C1182 C1179 1.339 . S
C1182 C1180 1.416 . S
C1182 H1203 0.930 . S
C1183 C1184 1.413 . S
C1183 C1185 1.427 . S
C1183 C1189 1.416 . S
C1184 C1177 1.424 . S
C1184 C1183 1.413 . S
C1184 N1188 1.361 . S
C1185 C1183 1.427 . S
C1185 C1186 1.328 . S
C1185 H1200 0.929 . S
C1186 C1180 1.448 . S
C1186 C1185 1.328 . S
C1186 H1201 0.930 . S
Tb1187 N1178 2.617 . S
Tb1187 N1188 2.572 . S
Tb1187 O1222 2.349 1_455 S
Tb1187 O1225 2.393 . S
Tb1187 O1226 2.465 . S
Tb1187 O1227 2.387 . S
Tb1187 O1229 2.428 . S
Tb1187 O1230 2.308 . S
Tb1187 C1251 2.802 . S
N1188 C1184 1.361 . S
N1188 Tb1187 2.572 . S
N1188 C1190 1.340 . S
C1189 C1183 1.416 . S
C1189 C1191 1.332 . S
C1189 H1197 0.931 . S
C1190 N1188 1.340 . S
C1190 C1191 1.407 . S
C1190 H1196 0.930 . S
C1191 C1189 1.332 . S
C1191 C1190 1.407 . S
C1191 H1193 0.929 . S
H1192 C1181 0.930 . S
H1193 C1191 0.929 . S
H1194 C1209 0.930 1_455 S
H1195 C1216 0.929 . S
H1196 C1190 0.930 . S
H1197 C1189 0.931 . S
H1198 C1212 0.930 1_455 S
H1199 C1179 0.930 . S
H1200 C1185 0.929 . S
H1201 C1186 0.930 . S
H1202 C1207 0.930 . S
H1203 C1182 0.930 . S
H1204 C1215 0.931 . S
N1205 Tb1176 2.617 1_655 S
N1205 C1206 1.379 . S
N1205 C1209 1.334 . S
C1206 N1205 1.379 . S
C1206 C1208 1.416 . S
C1206 C1214 1.424 . S
C1207 H1202 0.930 . S
C1207 C1209 1.390 . S
C1207 C1210 1.339 . S
C1208 C1206 1.416 . S
C1208 C1210 1.416 . S
C1208 C1241 1.448 . S
C1209 H1194 0.930 1_655 S
C1209 N1205 1.334 . S
C1209 C1207 1.390 . S
C1210 C1207 1.339 . S
C1210 C1208 1.416 . S
C1210 H1217 0.930 . S
N1211 Tb1176 2.572 1_655 S
N1211 C1212 1.340 . S
N1211 C1214 1.361 . S
C1212 H1198 0.930 1_655 S
C1212 N1211 1.340 . S
C1212 C1216 1.407 . S
C1213 C1214 1.413 . S
C1213 C1215 1.416 . S
C1213 C1242 1.427 . S
C1214 C1206 1.424 . S
C1214 N1211 1.361 . S
C1214 C1213 1.413 . S
C1215 H1204 0.931 . S
C1215 C1213 1.416 . S
C1215 C1216 1.332 . S
C1216 H1195 0.929 . S
C1216 C1212 1.407 . S
C1216 C1215 1.332 . S
H1217 C1210 0.930 . S
H1218 C1241 0.930 . S
H1219 C1242 0.929 . S
O1220 Tb1176 2.465 . S
O1220 C1240 1.264 . S
O1221 Tb1176 2.387 1_655 S
O1221 C1232 1.264 . S
O1222 Tb1187 2.349 1_655 S
O1222 C1232 1.243 . S
O1223 Tb1176 2.428 . S
O1223 C1240 1.256 . S
O1224 Tb1176 2.308 . S
O1224 C1239 1.266 . S
O1225 Tb1187 2.393 . S
O1225 C1239 1.248 . S
O1226 Tb1187 2.465 . S
O1226 C1251 1.264 . S
O1227 Tb1187 2.387 . S
O1227 C1243 1.264 . S
O1228 Tb1176 2.349 . S
O1228 C1243 1.243 . S
O1229 Tb1187 2.428 . S
O1229 C1251 1.256 . S
O1230 Tb1187 2.308 . S
O1230 C1250 1.266 . S
O1231 Tb1176 2.393 . S
O1231 C1250 1.248 . S
C1232 O1221 1.264 . S
C1232 O1222 1.243 . S
C1233 C1236 1.399 . S
C1233 C1238 1.383 . S
C1233 C1240 1.496 . S
C1234 C1235 1.399 . S
C1234 C1238 1.389 . S
C1235 C1234 1.399 . S
C1235 C1237 1.380 . S
C1235 H1252 0.929 . S
C1236 C1233 1.399 . S
C1236 C1237 1.392 . S
C1236 H1253 0.929 . S
C1237 C1235 1.380 . S
C1237 C1236 1.392 . S
C1237 H1254 0.929 . S
C1238 C1233 1.383 . S
C1238 C1234 1.389 . S
C1238 H1255 0.931 . S
C1239 O1224 1.266 . S
C1239 O1225 1.248 . S
C1240 Tb1176 2.802 . S
C1240 O1220 1.264 . S
C1240 O1223 1.256 . S
C1240 C1233 1.496 . S
C1241 C1208 1.448 . S
C1241 H1218 0.930 . S
C1241 C1242 1.328 . S
C1242 C1213 1.427 . S
C1242 H1219 0.929 . S
C1242 C1241 1.328 . S
C1243 O1227 1.264 . S
C1243 O1228 1.243 . S
C1244 C1247 1.399 . S
C1244 C1248 1.383 . S
C1244 C1251 1.496 1_655 S
C1245 C1246 1.399 . S
C1245 C1248 1.389 . S
C1246 C1245 1.399 . S
C1246 C1249 1.380 . S
C1246 H1256 0.929 . S
C1247 C1244 1.399 . S
C1247 C1249 1.392 . S
C1247 H1257 0.929 . S
C1248 C1244 1.383 . S
C1248 C1245 1.389 . S
C1248 H1258 0.931 . S
C1249 C1246 1.380 . S
C1249 C1247 1.392 . S
C1249 H1259 0.929 . S
C1250 O1230 1.266 . S
C1250 O1231 1.248 . S
C1251 Tb1187 2.802 . S
C1251 O1226 1.264 . S
C1251 O1229 1.256 . S
C1251 C1244 1.496 1_455 S
H1252 C1235 0.929 . S
H1253 C1236 0.929 . S
H1254 C1237 0.929 . S
H1255 C1238 0.931 . S
H1256 C1246 0.929 . S
H1257 C1247 0.929 . S
H1258 C1248 0.931 . S
H1259 C1249 0.929 . S
Tb1260 N1289 2.617 . S
Tb1260 N1295 2.572 . S
Tb1260 O1304 2.465 . S
Tb1260 O1305 2.387 . S
Tb1260 O1307 2.428 . S
Tb1260 O1308 2.308 . S
Tb1260 O1312 2.349 . S
Tb1260 O1315 2.393 . S
Tb1260 C1324 2.802 . S
C1261 N1262 1.379 . S
C1261 C1264 1.416 . S
C1261 C1268 1.424 . S
N1262 C1261 1.379 . S
N1262 C1265 1.334 . S
N1262 Tb1271 2.617 . S
C1263 C1265 1.390 . S
C1263 C1266 1.339 . S
C1263 H1283 0.930 . S
C1264 C1261 1.416 . S
C1264 C1266 1.416 . S
C1264 C1270 1.448 . S
C1265 N1262 1.334 . S
C1265 C1263 1.390 . S
C1265 H1276 0.930 . S
C1266 C1263 1.339 . S
C1266 C1264 1.416 . S
C1266 H1287 0.930 . S
C1267 C1268 1.413 . S
C1267 C1269 1.427 . S
C1267 C1273 1.416 . S
C1268 C1261 1.424 . S
C1268 C1267 1.413 . S
C1268 N1272 1.361 . S
C1269 C1267 1.427 . S
C1269 C1270 1.328 . S
C1269 H1284 0.929 . S
C1270 C1264 1.448 . S
C1270 C1269 1.328 . S
C1270 H1285 0.930 . S
Tb1271 N1262 2.617 . S
Tb1271 N1272 2.572 . S
Tb1271 O1306 2.349 . S
Tb1271 O1309 2.393 . S
Tb1271 O1310 2.465 . S
Tb1271 O1311 2.387 . S
Tb1271 O1313 2.428 . S
Tb1271 O1314 2.308 . S
Tb1271 C1335 2.802 . S
N1272 C1268 1.361 . S
N1272 Tb1271 2.572 . S
N1272 C1274 1.340 . S
C1273 C1267 1.416 . S
C1273 C1275 1.332 . S
C1273 H1281 0.931 . S
C1274 N1272 1.340 . S
C1274 C1275 1.407 . S
C1274 H1280 0.930 . S
C1275 C1273 1.332 . S
C1275 C1274 1.407 . S
C1275 H1277 0.929 . S
H1276 C1265 0.930 . S
H1277 C1275 0.929 . S
H1278 C1293 0.930 . S
H1279 C1300 0.929 . S
H1280 C1274 0.930 . S
H1281 C1273 0.931 . S
H1282 C1296 0.930 . S
H1283 C1263 0.930 . S
H1284 C1269 0.929 . S
H1285 C1270 0.930 . S
H1286 C1291 0.930 . S
H1287 C1266 0.930 . S
H1288 C1299 0.931 . S
N1289 Tb1260 2.617 . S
N1289 C1290 1.379 . S
N1289 C1293 1.334 . S
C1290 N1289 1.379 . S
C1290 C1292 1.416 . S
C1290 C1298 1.424 . S
C1291 H1286 0.930 . S
C1291 C1293 1.390 . S
C1291 C1294 1.339 . S
C1292 C1290 1.416 . S
C1292 C1294 1.416 . S
C1292 C1325 1.448 . S
C1293 H1278 0.930 . S
C1293 N1289 1.334 . S
C1293 C1291 1.390 . S
C1294 C1291 1.339 . S
C1294 C1292 1.416 . S
C1294 H1301 0.930 . S
N1295 Tb1260 2.572 . S
N1295 C1296 1.340 . S
N1295 C1298 1.361 . S
C1296 H1282 0.930 . S
C1296 N1295 1.340 . S
C1296 C1300 1.407 . S
C1297 C1298 1.413 . S
C1297 C1299 1.416 . S
C1297 C1326 1.427 . S
C1298 C1290 1.424 . S
C1298 N1295 1.361 . S
C1298 C1297 1.413 . S
C1299 H1288 0.931 . S
C1299 C1297 1.416 . S
C1299 C1300 1.332 . S
C1300 H1279 0.929 . S
C1300 C1296 1.407 . S
C1300 C1299 1.332 . S
H1301 C1294 0.930 . S
H1302 C1325 0.930 . S
H1303 C1326 0.929 . S
O1304 Tb1260 2.465 . S
O1304 C1324 1.264 . S
O1305 Tb1260 2.387 . S
O1305 C1316 1.264 . S
O1306 Tb1271 2.349 . S
O1306 C1316 1.243 . S
O1307 Tb1260 2.428 . S
O1307 C1324 1.256 . S
O1308 Tb1260 2.308 . S
O1308 C1323 1.266 . S
O1309 Tb1271 2.393 . S
O1309 C1323 1.248 . S
O1310 Tb1271 2.465 . S
O1310 C1335 1.264 . S
O1311 Tb1271 2.387 . S
O1311 C1327 1.264 . S
O1312 Tb1260 2.349 . S
O1312 C1327 1.243 . S
O1313 Tb1271 2.428 . S
O1313 C1335 1.256 . S
O1314 Tb1271 2.308 . S
O1314 C1334 1.266 . S
O1315 Tb1260 2.393 . S
O1315 C1334 1.248 . S
C1316 O1305 1.264 . S
C1316 O1306 1.243 . S
C1317 C1320 1.399 . S
C1317 C1322 1.383 . S
C1317 C1324 1.496 . S
C1318 C1319 1.399 . S
C1318 C1322 1.389 . S
C1319 C1318 1.399 . S
C1319 C1321 1.380 . S
C1319 H1336 0.929 . S
C1320 C1317 1.399 . S
C1320 C1321 1.392 . S
C1320 H1337 0.929 . S
C1321 C1319 1.380 . S
C1321 C1320 1.392 . S
C1321 H1338 0.929 . S
C1322 C1317 1.383 . S
C1322 C1318 1.389 . S
C1322 H1339 0.931 . S
C1323 O1308 1.266 . S
C1323 O1309 1.248 . S
C1324 Tb1260 2.802 . S
C1324 O1304 1.264 . S
C1324 O1307 1.256 . S
C1324 C1317 1.496 . S
C1325 C1292 1.448 . S
C1325 H1302 0.930 . S
C1325 C1326 1.328 . S
C1326 C1297 1.427 . S
C1326 H1303 0.929 . S
C1326 C1325 1.328 . S
C1327 O1311 1.264 . S
C1327 O1312 1.243 . S
C1328 C1331 1.399 . S
C1328 C1332 1.383 . S
C1328 C1335 1.496 . S
C1329 C1330 1.399 . S
C1329 C1332 1.389 . S
C1330 C1329 1.399 . S
C1330 C1333 1.380 . S
C1330 H1340 0.929 . S
C1331 C1328 1.399 . S
C1331 C1333 1.392 . S
C1331 H1341 0.929 . S
C1332 C1328 1.383 . S
C1332 C1329 1.389 . S
C1332 H1342 0.931 . S
C1333 C1330 1.380 . S
C1333 C1331 1.392 . S
C1333 H1343 0.929 . S
C1334 O1314 1.266 . S
C1334 O1315 1.248 . S
C1335 Tb1271 2.802 . S
C1335 O1310 1.264 . S
C1335 O1313 1.256 . S
C1335 C1328 1.496 . S
H1336 C1319 0.929 . S
H1337 C1320 0.929 . S
H1338 C1321 0.929 . S
H1339 C1322 0.931 . S
H1340 C1330 0.929 . S
H1341 C1331 0.929 . S
H1342 C1332 0.931 . S
H1343 C1333 0.929 . S
Tb1344 N1373 2.617 . S
Tb1344 N1379 2.572 . S
Tb1344 O1388 2.465 . S
Tb1344 O1389 2.387 . S
Tb1344 O1391 2.428 . S
Tb1344 O1392 2.308 . S
Tb1344 O1396 2.349 . S
Tb1344 O1399 2.393 . S
Tb1344 C1408 2.802 . S
C1345 N1346 1.379 . S
C1345 C1348 1.416 . S
C1345 C1352 1.424 . S
N1346 C1345 1.379 . S
N1346 C1349 1.334 . S
N1346 Tb1355 2.617 . S
C1347 C1349 1.390 . S
C1347 C1350 1.339 . S
C1347 H1367 0.930 . S
C1348 C1345 1.416 . S
C1348 C1350 1.416 . S
C1348 C1354 1.448 . S
C1349 N1346 1.334 . S
C1349 C1347 1.390 . S
C1349 H1360 0.930 . S
C1350 C1347 1.339 . S
C1350 C1348 1.416 . S
C1350 H1371 0.930 . S
C1351 C1352 1.413 . S
C1351 C1353 1.427 . S
C1351 C1357 1.416 . S
C1352 C1345 1.424 . S
C1352 C1351 1.413 . S
C1352 N1356 1.361 . S
C1353 C1351 1.427 . S
C1353 C1354 1.328 . S
C1353 H1368 0.929 . S
C1354 C1348 1.448 . S
C1354 C1353 1.328 . S
C1354 H1369 0.930 . S
Tb1355 N1346 2.617 . S
Tb1355 N1356 2.572 . S
Tb1355 O1390 2.349 . S
Tb1355 O1393 2.393 . S
Tb1355 O1394 2.465 . S
Tb1355 O1395 2.387 . S
Tb1355 O1397 2.428 . S
Tb1355 O1398 2.308 . S
Tb1355 C1419 2.802 . S
N1356 C1352 1.361 . S
N1356 Tb1355 2.572 . S
N1356 C1358 1.340 . S
C1357 C1351 1.416 . S
C1357 C1359 1.332 . S
C1357 H1365 0.931 . S
C1358 N1356 1.340 . S
C1358 C1359 1.407 . S
C1358 H1364 0.930 . S
C1359 C1357 1.332 . S
C1359 C1358 1.407 . S
C1359 H1361 0.929 . S
H1360 C1349 0.930 . S
H1361 C1359 0.929 . S
H1362 C1377 0.930 . S
H1363 C1384 0.929 . S
H1364 C1358 0.930 . S
H1365 C1357 0.931 . S
H1366 C1380 0.930 . S
H1367 C1347 0.930 . S
H1368 C1353 0.929 . S
H1369 C1354 0.930 . S
H1370 C1375 0.930 . S
H1371 C1350 0.930 . S
H1372 C1383 0.931 . S
N1373 Tb1344 2.617 . S
N1373 C1374 1.379 . S
N1373 C1377 1.334 . S
C1374 N1373 1.379 . S
C1374 C1376 1.416 . S
C1374 C1382 1.424 . S
C1375 H1370 0.930 . S
C1375 C1377 1.390 . S
C1375 C1378 1.339 . S
C1376 C1374 1.416 . S
C1376 C1378 1.416 . S
C1376 C1409 1.448 . S
C1377 H1362 0.930 . S
C1377 N1373 1.334 . S
C1377 C1375 1.390 . S
C1378 C1375 1.339 . S
C1378 C1376 1.416 . S
C1378 H1385 0.930 . S
N1379 Tb1344 2.572 . S
N1379 C1380 1.340 . S
N1379 C1382 1.361 . S
C1380 H1366 0.930 . S
C1380 N1379 1.340 . S
C1380 C1384 1.407 . S
C1381 C1382 1.413 . S
C1381 C1383 1.416 . S
C1381 C1410 1.427 . S
C1382 C1374 1.424 . S
C1382 N1379 1.361 . S
C1382 C1381 1.413 . S
C1383 H1372 0.931 . S
C1383 C1381 1.416 . S
C1383 C1384 1.332 . S
C1384 H1363 0.929 . S
C1384 C1380 1.407 . S
C1384 C1383 1.332 . S
H1385 C1378 0.930 . S
H1386 C1409 0.930 . S
H1387 C1410 0.929 . S
O1388 Tb1344 2.465 . S
O1388 C1408 1.264 . S
O1389 Tb1344 2.387 . S
O1389 C1400 1.264 . S
O1390 Tb1355 2.349 . S
O1390 C1400 1.243 . S
O1391 Tb1344 2.428 . S
O1391 C1408 1.256 . S
O1392 Tb1344 2.308 . S
O1392 C1407 1.266 . S
O1393 Tb1355 2.393 . S
O1393 C1407 1.248 . S
O1394 Tb1355 2.465 . S
O1394 C1419 1.264 . S
O1395 Tb1355 2.387 . S
O1395 C1411 1.264 . S
O1396 Tb1344 2.349 . S
O1396 C1411 1.243 . S
O1397 Tb1355 2.428 . S
O1397 C1419 1.256 . S
O1398 Tb1355 2.308 . S
O1398 C1418 1.266 . S
O1399 Tb1344 2.393 . S
O1399 C1418 1.248 . S
C1400 O1389 1.264 . S
C1400 O1390 1.243 . S
C1401 C1404 1.399 . S
C1401 C1406 1.383 . S
C1401 C1408 1.496 . S
C1402 C1403 1.399 . S
C1402 C1406 1.389 . S
C1403 C1402 1.399 . S
C1403 C1405 1.380 . S
C1403 H1420 0.929 . S
C1404 C1401 1.399 . S
C1404 C1405 1.392 . S
C1404 H1421 0.929 . S
C1405 C1403 1.380 . S
C1405 C1404 1.392 . S
C1405 H1422 0.929 . S
C1406 C1401 1.383 . S
C1406 C1402 1.389 . S
C1406 H1423 0.931 . S
C1407 O1392 1.266 . S
C1407 O1393 1.248 . S
C1408 Tb1344 2.802 . S
C1408 O1388 1.264 . S
C1408 O1391 1.256 . S
C1408 C1401 1.496 . S
C1409 C1376 1.448 . S
C1409 H1386 0.930 . S
C1409 C1410 1.328 . S
C1410 C1381 1.427 . S
C1410 H1387 0.929 . S
C1410 C1409 1.328 . S
C1411 O1395 1.264 . S
C1411 O1396 1.243 . S
C1412 C1415 1.399 . S
C1412 C1416 1.383 . S
C1412 C1419 1.496 . S
C1413 C1414 1.399 . S
C1413 C1416 1.389 . S
C1414 C1413 1.399 . S
C1414 C1417 1.380 . S
C1414 H1424 0.929 . S
C1415 C1412 1.399 . S
C1415 C1417 1.392 . S
C1415 H1425 0.929 . S
C1416 C1412 1.383 . S
C1416 C1413 1.389 . S
C1416 H1426 0.931 . S
C1417 C1414 1.380 . S
C1417 C1415 1.392 . S
C1417 H1427 0.929 . S
C1418 O1398 1.266 . S
C1418 O1399 1.248 . S
C1419 Tb1355 2.802 . S
C1419 O1394 1.264 . S
C1419 O1397 1.256 . S
C1419 C1412 1.496 . S
H1420 C1403 0.929 . S
H1421 C1404 0.929 . S
H1422 C1405 0.929 . S
H1423 C1406 0.931 . S
H1424 C1414 0.929 . S
H1425 C1415 0.929 . S
H1426 C1416 0.931 . S
H1427 C1417 0.929 . S
Tb1428 N1457 2.617 . S
Tb1428 N1463 2.572 . S
Tb1428 O1472 2.465 . S
Tb1428 O1473 2.387 . S
Tb1428 O1475 2.428 . S
Tb1428 O1476 2.308 . S
Tb1428 O1480 2.349 . S
Tb1428 O1483 2.393 . S
Tb1428 C1492 2.802 . S
C1429 N1430 1.379 . S
C1429 C1432 1.416 . S
C1429 C1436 1.424 . S
N1430 C1429 1.379 . S
N1430 C1433 1.334 . S
N1430 Tb1439 2.617 . S
C1431 C1433 1.390 . S
C1431 C1434 1.339 . S
C1431 H1451 0.930 . S
C1432 C1429 1.416 . S
C1432 C1434 1.416 . S
C1432 C1438 1.448 . S
C1433 N1430 1.334 . S
C1433 C1431 1.390 . S
C1433 H1444 0.930 . S
C1434 C1431 1.339 . S
C1434 C1432 1.416 . S
C1434 H1455 0.930 . S
C1435 C1436 1.413 . S
C1435 C1437 1.427 . S
C1435 C1441 1.416 . S
C1436 C1429 1.424 . S
C1436 C1435 1.413 . S
C1436 N1440 1.361 . S
C1437 C1435 1.427 . S
C1437 C1438 1.328 . S
C1437 H1452 0.929 . S
C1438 C1432 1.448 . S
C1438 C1437 1.328 . S
C1438 H1453 0.930 . S
Tb1439 N1430 2.617 . S
Tb1439 N1440 2.572 . S
Tb1439 O1474 2.349 . S
Tb1439 O1477 2.393 . S
Tb1439 O1478 2.465 . S
Tb1439 O1479 2.387 . S
Tb1439 O1481 2.428 . S
Tb1439 O1482 2.308 . S
Tb1439 C1503 2.802 . S
N1440 C1436 1.361 . S
N1440 Tb1439 2.572 . S
N1440 C1442 1.340 . S
C1441 C1435 1.416 . S
C1441 C1443 1.332 . S
C1441 H1449 0.931 . S
C1442 N1440 1.340 . S
C1442 C1443 1.407 . S
C1442 H1448 0.930 . S
C1443 C1441 1.332 . S
C1443 C1442 1.407 . S
C1443 H1445 0.929 . S
H1444 C1433 0.930 . S
H1445 C1443 0.929 . S
H1446 C1461 0.930 . S
H1447 C1468 0.929 . S
H1448 C1442 0.930 . S
H1449 C1441 0.931 . S
H1450 C1464 0.930 . S
H1451 C1431 0.930 . S
H1452 C1437 0.929 . S
H1453 C1438 0.930 . S
H1454 C1459 0.930 . S
H1455 C1434 0.930 . S
H1456 C1467 0.931 . S
N1457 Tb1428 2.617 . S
N1457 C1458 1.379 . S
N1457 C1461 1.334 . S
C1458 N1457 1.379 . S
C1458 C1460 1.416 . S
C1458 C1466 1.424 . S
C1459 H1454 0.930 . S
C1459 C1461 1.390 . S
C1459 C1462 1.339 . S
C1460 C1458 1.416 . S
C1460 C1462 1.416 . S
C1460 C1493 1.448 . S
C1461 H1446 0.930 . S
C1461 N1457 1.334 . S
C1461 C1459 1.390 . S
C1462 C1459 1.339 . S
C1462 C1460 1.416 . S
C1462 H1469 0.930 . S
N1463 Tb1428 2.572 . S
N1463 C1464 1.340 . S
N1463 C1466 1.361 . S
C1464 H1450 0.930 . S
C1464 N1463 1.340 . S
C1464 C1468 1.407 . S
C1465 C1466 1.413 . S
C1465 C1467 1.416 . S
C1465 C1494 1.427 . S
C1466 C1458 1.424 . S
C1466 N1463 1.361 . S
C1466 C1465 1.413 . S
C1467 H1456 0.931 . S
C1467 C1465 1.416 . S
C1467 C1468 1.332 . S
C1468 H1447 0.929 . S
C1468 C1464 1.407 . S
C1468 C1467 1.332 . S
H1469 C1462 0.930 . S
H1470 C1493 0.930 . S
H1471 C1494 0.929 . S
O1472 Tb1428 2.465 . S
O1472 C1492 1.264 . S
O1473 Tb1428 2.387 . S
O1473 C1484 1.264 . S
O1474 Tb1439 2.349 . S
O1474 C1484 1.243 . S
O1475 Tb1428 2.428 . S
O1475 C1492 1.256 . S
O1476 Tb1428 2.308 . S
O1476 C1491 1.266 . S
O1477 Tb1439 2.393 . S
O1477 C1491 1.248 . S
O1478 Tb1439 2.465 . S
O1478 C1503 1.264 . S
O1479 Tb1439 2.387 . S
O1479 C1495 1.264 . S
O1480 Tb1428 2.349 . S
O1480 C1495 1.243 . S
O1481 Tb1439 2.428 . S
O1481 C1503 1.256 . S
O1482 Tb1439 2.308 . S
O1482 C1502 1.266 . S
O1483 Tb1428 2.393 . S
O1483 C1502 1.248 . S
C1484 O1473 1.264 . S
C1484 O1474 1.243 . S
C1485 C1488 1.399 . S
C1485 C1490 1.383 . S
C1485 C1492 1.496 . S
C1486 C1487 1.399 . S
C1486 C1490 1.389 . S
C1487 C1486 1.399 . S
C1487 C1489 1.380 . S
C1487 H1504 0.929 . S
C1488 C1485 1.399 . S
C1488 C1489 1.392 . S
C1488 H1505 0.929 . S
C1489 C1487 1.380 . S
C1489 C1488 1.392 . S
C1489 H1506 0.929 . S
C1490 C1485 1.383 . S
C1490 C1486 1.389 . S
C1490 H1507 0.931 . S
C1491 O1476 1.266 . S
C1491 O1477 1.248 . S
C1492 Tb1428 2.802 . S
C1492 O1472 1.264 . S
C1492 O1475 1.256 . S
C1492 C1485 1.496 . S
C1493 C1460 1.448 . S
C1493 H1470 0.930 . S
C1493 C1494 1.328 . S
C1494 C1465 1.427 . S
C1494 H1471 0.929 . S
C1494 C1493 1.328 . S
C1495 O1479 1.264 . S
C1495 O1480 1.243 . S
C1496 C1499 1.399 . S
C1496 C1500 1.383 . S
C1496 C1503 1.496 . S
C1497 C1498 1.399 . S
C1497 C1500 1.389 . S
C1498 C1497 1.399 . S
C1498 C1501 1.380 . S
C1498 H1508 0.929 . S
C1499 C1496 1.399 . S
C1499 C1501 1.392 . S
C1499 H1509 0.929 . S
C1500 C1496 1.383 . S
C1500 C1497 1.389 . S
C1500 H1510 0.931 . S
C1501 C1498 1.380 . S
C1501 C1499 1.392 . S
C1501 H1511 0.929 . S
C1502 O1482 1.266 . S
C1502 O1483 1.248 . S
C1503 Tb1439 2.802 . S
C1503 O1478 1.264 . S
C1503 O1481 1.256 . S
C1503 C1496 1.496 . S
H1504 C1487 0.929 . S
H1505 C1488 0.929 . S
H1506 C1489 0.929 . S
H1507 C1490 0.931 . S
H1508 C1498 0.929 . S
H1509 C1499 0.929 . S
H1510 C1500 0.931 . S
H1511 C1501 0.929 . S
Tb1512 N1541 2.617 . S
Tb1512 N1547 2.572 . S
Tb1512 O1556 2.465 . S
Tb1512 O1557 2.387 . S
Tb1512 O1559 2.428 . S
Tb1512 O1560 2.308 . S
Tb1512 O1564 2.349 . S
Tb1512 O1567 2.393 . S
Tb1512 C1576 2.802 . S
C1513 N1514 1.379 . S
C1513 C1516 1.416 . S
C1513 C1520 1.424 . S
N1514 C1513 1.379 . S
N1514 C1517 1.334 . S
N1514 Tb1523 2.617 . S
C1515 C1517 1.390 . S
C1515 C1518 1.339 . S
C1515 H1535 0.930 . S
C1516 C1513 1.416 . S
C1516 C1518 1.416 . S
C1516 C1522 1.448 . S
C1517 N1514 1.334 . S
C1517 C1515 1.390 . S
C1517 H1528 0.930 . S
C1518 C1515 1.339 . S
C1518 C1516 1.416 . S
C1518 H1539 0.930 . S
C1519 C1520 1.413 . S
C1519 C1521 1.427 . S
C1519 C1525 1.416 . S
C1520 C1513 1.424 . S
C1520 C1519 1.413 . S
C1520 N1524 1.361 . S
C1521 C1519 1.427 . S
C1521 C1522 1.328 . S
C1521 H1536 0.929 . S
C1522 C1516 1.448 . S
C1522 C1521 1.328 . S
C1522 H1537 0.930 . S
Tb1523 N1514 2.617 . S
Tb1523 N1524 2.572 . S
Tb1523 O1558 2.349 . S
Tb1523 O1561 2.393 . S
Tb1523 O1562 2.465 . S
Tb1523 O1563 2.387 . S
Tb1523 O1565 2.428 . S
Tb1523 O1566 2.308 . S
Tb1523 C1587 2.802 . S
N1524 C1520 1.361 . S
N1524 Tb1523 2.572 . S
N1524 C1526 1.340 . S
C1525 C1519 1.416 . S
C1525 C1527 1.332 . S
C1525 H1533 0.931 . S
C1526 N1524 1.340 . S
C1526 C1527 1.407 . S
C1526 H1532 0.930 . S
C1527 C1525 1.332 . S
C1527 C1526 1.407 . S
C1527 H1529 0.929 . S
H1528 C1517 0.930 . S
H1529 C1527 0.929 . S
H1530 C1545 0.930 . S
H1531 C1552 0.929 . S
H1532 C1526 0.930 . S
H1533 C1525 0.931 . S
H1534 C1548 0.930 . S
H1535 C1515 0.930 . S
H1536 C1521 0.929 . S
H1537 C1522 0.930 . S
H1538 C1543 0.930 . S
H1539 C1518 0.930 . S
H1540 C1551 0.931 . S
N1541 Tb1512 2.617 . S
N1541 C1542 1.379 . S
N1541 C1545 1.334 . S
C1542 N1541 1.379 . S
C1542 C1544 1.416 . S
C1542 C1550 1.424 . S
C1543 H1538 0.930 . S
C1543 C1545 1.390 . S
C1543 C1546 1.339 . S
C1544 C1542 1.416 . S
C1544 C1546 1.416 . S
C1544 C1577 1.448 . S
C1545 H1530 0.930 . S
C1545 N1541 1.334 . S
C1545 C1543 1.390 . S
C1546 C1543 1.339 . S
C1546 C1544 1.416 . S
C1546 H1553 0.930 . S
N1547 Tb1512 2.572 . S
N1547 C1548 1.340 . S
N1547 C1550 1.361 . S
C1548 H1534 0.930 . S
C1548 N1547 1.340 . S
C1548 C1552 1.407 . S
C1549 C1550 1.413 . S
C1549 C1551 1.416 . S
C1549 C1578 1.427 . S
C1550 C1542 1.424 . S
C1550 N1547 1.361 . S
C1550 C1549 1.413 . S
C1551 H1540 0.931 . S
C1551 C1549 1.416 . S
C1551 C1552 1.332 . S
C1552 H1531 0.929 . S
C1552 C1548 1.407 . S
C1552 C1551 1.332 . S
H1553 C1546 0.930 . S
H1554 C1577 0.930 . S
H1555 C1578 0.929 . S
O1556 Tb1512 2.465 . S
O1556 C1576 1.264 . S
O1557 Tb1512 2.387 . S
O1557 C1568 1.264 . S
O1558 Tb1523 2.349 . S
O1558 C1568 1.243 . S
O1559 Tb1512 2.428 . S
O1559 C1576 1.256 . S
O1560 Tb1512 2.308 . S
O1560 C1575 1.266 . S
O1561 Tb1523 2.393 . S
O1561 C1575 1.248 . S
O1562 Tb1523 2.465 . S
O1562 C1587 1.264 . S
O1563 Tb1523 2.387 . S
O1563 C1579 1.264 . S
O1564 Tb1512 2.349 . S
O1564 C1579 1.243 . S
O1565 Tb1523 2.428 . S
O1565 C1587 1.256 . S
O1566 Tb1523 2.308 . S
O1566 C1586 1.266 . S
O1567 Tb1512 2.393 . S
O1567 C1586 1.248 . S
C1568 O1557 1.264 . S
C1568 O1558 1.243 . S
C1569 C1572 1.399 . S
C1569 C1574 1.383 . S
C1569 C1576 1.496 . S
C1570 C1571 1.399 . S
C1570 C1574 1.389 . S
C1571 C1570 1.399 . S
C1571 C1573 1.380 . S
C1571 H1588 0.929 . S
C1572 C1569 1.399 . S
C1572 C1573 1.392 . S
C1572 H1589 0.929 . S
C1573 C1571 1.380 . S
C1573 C1572 1.392 . S
C1573 H1590 0.929 . S
C1574 C1569 1.383 . S
C1574 C1570 1.389 . S
C1574 H1591 0.931 . S
C1575 O1560 1.266 . S
C1575 O1561 1.248 . S
C1576 Tb1512 2.802 . S
C1576 O1556 1.264 . S
C1576 O1559 1.256 . S
C1576 C1569 1.496 . S
C1577 C1544 1.448 . S
C1577 H1554 0.930 . S
C1577 C1578 1.328 . S
C1578 C1549 1.427 . S
C1578 H1555 0.929 . S
C1578 C1577 1.328 . S
C1579 O1563 1.264 . S
C1579 O1564 1.243 . S
C1580 C1583 1.399 . S
C1580 C1584 1.383 . S
C1580 C1587 1.496 . S
C1581 C1582 1.399 . S
C1581 C1584 1.389 . S
C1582 C1581 1.399 . S
C1582 C1585 1.380 . S
C1582 H1592 0.929 . S
C1583 C1580 1.399 . S
C1583 C1585 1.392 . S
C1583 H1593 0.929 . S
C1584 C1580 1.383 . S
C1584 C1581 1.389 . S
C1584 H1594 0.931 . S
C1585 C1582 1.380 . S
C1585 C1583 1.392 . S
C1585 H1595 0.929 . S
C1586 O1566 1.266 . S
C1586 O1567 1.248 . S
C1587 Tb1523 2.802 . S
C1587 O1562 1.264 . S
C1587 O1565 1.256 . S
C1587 C1580 1.496 . S
H1588 C1571 0.929 . S
H1589 C1572 0.929 . S
H1590 C1573 0.929 . S
H1591 C1574 0.931 . S
H1592 C1582 0.929 . S
H1593 C1583 0.929 . S
H1594 C1584 0.931 . S
H1595 C1585 0.929 . S
Tb1596 N1625 2.617 . S
Tb1596 N1631 2.572 . S
Tb1596 O1640 2.465 . S
Tb1596 O1641 2.387 1_655 S
Tb1596 O1643 2.428 . S
Tb1596 O1644 2.308 1_655 S
Tb1596 O1648 2.349 1_655 S
Tb1596 O1651 2.393 1_655 S
Tb1596 C1660 2.802 . S
C1597 N1598 1.379 . S
C1597 C1600 1.416 . S
C1597 C1604 1.424 1_556 S
N1598 C1597 1.379 . S
N1598 C1601 1.334 . S
N1598 Tb1607 2.617 1_556 S
C1599 C1601 1.390 . S
C1599 C1602 1.339 . S
C1599 H1619 0.930 . S
C1600 C1597 1.416 . S
C1600 C1602 1.416 . S
C1600 C1606 1.448 . S
C1601 N1598 1.334 . S
C1601 C1599 1.390 . S
C1601 H1612 0.930 . S
C1602 C1599 1.339 . S
C1602 C1600 1.416 . S
C1602 H1623 0.930 . S
C1603 C1604 1.413 . S
C1603 C1605 1.427 . S
C1603 C1609 1.416 . S
C1604 C1597 1.424 1_554 S
C1604 C1603 1.413 . S
C1604 N1608 1.361 . S
C1605 C1603 1.427 . S
C1605 C1606 1.328 1_554 S
C1605 H1620 0.929 . S
C1606 C1600 1.448 . S
C1606 C1605 1.328 1_556 S
C1606 H1621 0.930 . S
Tb1607 N1598 2.617 1_554 S
Tb1607 N1608 2.572 . S
Tb1607 O1642 2.349 . S
Tb1607 O1645 2.393 1_554 S
Tb1607 O1646 2.465 . S
Tb1607 O1647 2.387 . S
Tb1607 O1649 2.428 1_554 S
Tb1607 O1650 2.308 . S
Tb1607 C1671 2.802 . S
N1608 C1604 1.361 . S
N1608 Tb1607 2.572 . S
N1608 C1610 1.340 . S
C1609 C1603 1.416 . S
C1609 C1611 1.332 . S
C1609 H1617 0.931 . S
C1610 N1608 1.340 . S
C1610 C1611 1.407 . S
C1610 H1616 0.930 . S
C1611 C1609 1.332 . S
C1611 C1610 1.407 . S
C1611 H1613 0.929 . S
H1612 C1601 0.930 . S
H1613 C1611 0.929 . S
H1614 C1629 0.930 1_455 S
H1615 C1636 0.940 . S
H1616 C1610 0.930 . S
H1617 C1609 0.931 . S
H1618 C1632 0.895 1_556 S
H1619 C1599 0.930 . S
H1620 C1605 0.929 . S
H1621 C1606 0.930 . S
H1622 C1627 0.930 . S
H1623 C1602 0.930 . S
H1624 C1635 0.931 . S
N1625 Tb1596 2.617 . S
N1625 C1626 1.379 . S
N1625 C1629 1.334 . S
C1626 N1625 1.379 . S
C1626 C1628 1.416 . S
C1626 C1634 1.424 . S
C1627 H1622 0.930 . S
C1627 C1629 1.390 . S
C1627 C1630 1.339 . S
C1628 C1626 1.416 . S
C1628 C1630 1.416 . S
C1628 C1661 1.448 . S
C1629 H1614 0.930 1_655 S
C1629 N1625 1.334 . S
C1629 C1627 1.390 . S
C1630 C1627 1.339 . S
C1630 C1628 1.416 . S
C1630 H1637 0.930 . S
N1631 Tb1596 2.572 . S
N1631 C1632 1.340 . S
N1631 C1634 1.361 . S
C1632 H1618 0.895 1_554 S
C1632 N1631 1.340 . S
C1632 C1636 1.405 1_554 S
C1633 C1634 1.413 . S
C1633 C1635 1.416 . S
C1633 C1662 1.427 . S
C1634 C1626 1.424 . S
C1634 N1631 1.361 . S
C1634 C1633 1.413 . S
C1635 H1624 0.931 . S
C1635 C1633 1.416 . S
C1635 C1636 1.324 1_554 S
C1636 H1615 0.940 . S
C1636 C1632 1.405 1_556 S
C1636 C1635 1.324 1_556 S
H1637 C1630 0.930 . S
H1638 C1661 0.930 . S
H1639 C1662 0.929 . S
O1640 Tb1596 2.465 . S
O1640 C1660 1.264 . S
O1641 Tb1596 2.387 1_455 S
O1641 C1652 1.264 . S
O1642 Tb1607 2.349 . S
O1642 C1652 1.243 . S
O1643 Tb1596 2.428 . S
O1643 C1660 1.256 . S
O1644 Tb1596 2.308 1_455 S
O1644 C1659 1.265 1_554 S
O1645 Tb1607 2.393 1_556 S
O1645 C1659 1.248 . S
O1646 Tb1607 2.465 . S
O1646 C1671 1.264 . S
O1647 Tb1607 2.387 . S
O1647 C1663 1.264 . S
O1648 Tb1596 2.349 1_455 S
O1648 C1663 1.243 . S
O1649 Tb1607 2.428 1_556 S
O1649 C1671 1.256 1_556 S
O1650 Tb1607 2.308 . S
O1650 C1670 1.266 . S
O1651 Tb1596 2.393 1_455 S
O1651 C1670 1.248 . S
C1652 O1641 1.264 . S
C1652 O1642 1.243 . S
C1653 C1656 1.399 . S
C1653 C1658 1.383 . S
C1653 C1660 1.496 . S
C1654 C1655 1.399 . S
C1654 C1658 1.389 . S
C1655 C1654 1.399 . S
C1655 C1657 1.380 . S
C1655 H1672 0.929 . S
C1656 C1653 1.399 . S
C1656 C1657 1.392 . S
C1656 H1673 0.929 . S
C1657 C1655 1.380 . S
C1657 C1656 1.392 . S
C1657 H1674 0.929 . S
C1658 C1653 1.383 . S
C1658 C1654 1.389 . S
C1658 H1675 0.931 . S
C1659 O1644 1.265 1_556 S
C1659 O1645 1.248 . S
C1660 Tb1596 2.802 . S
C1660 O1640 1.264 . S
C1660 O1643 1.256 . S
C1660 C1653 1.496 . S
C1661 C1628 1.448 . S
C1661 H1638 0.930 . S
C1661 C1662 1.328 . S
C1662 C1633 1.427 . S
C1662 H1639 0.929 . S
C1662 C1661 1.328 . S
C1663 O1647 1.264 . S
C1663 O1648 1.243 . S
C1664 C1667 1.399 . S
C1664 C1668 1.383 1_556 S
C1664 C1671 1.496 1_556 S
C1665 C1666 1.399 1_554 S
C1665 C1668 1.389 . S
C1666 C1665 1.399 1_556 S
C1666 C1669 1.380 . S
C1666 H1676 0.929 . S
C1667 C1664 1.399 . S
C1667 C1669 1.392 . S
C1667 H1677 0.929 . S
C1668 C1664 1.383 1_554 S
C1668 C1665 1.389 . S
C1668 H1678 0.931 . S
C1669 C1666 1.380 . S
C1669 C1667 1.392 . S
C1669 H1679 0.929 . S
C1670 O1650 1.266 . S
C1670 O1651 1.248 . S
C1671 Tb1607 2.802 . S
C1671 O1646 1.264 . S
C1671 O1649 1.256 1_554 S
C1671 C1664 1.496 1_554 S
H1672 C1655 0.929 . S
H1673 C1656 0.929 . S
H1674 C1657 0.929 . S
H1675 C1658 0.931 . S
H1676 C1666 0.929 . S
H1677 C1667 0.929 . S
H1678 C1668 0.931 . S
H1679 C1669 0.929 . S
H1680 C1692 0.930 . S
H1681 C1694 0.930 . S
H1682 C1695 0.930 . S
H1683 C1699 0.959 1_554 S
H1684 C1699 0.959 . S
H1685 C1699 0.961 . S
H1686 C1700 0.960 . S
H1687 C1700 0.961 . S
H1688 C1700 0.959 1_455 S
H1689 C1703 0.929 . S
H1690 C1704 0.931 . S
H1691 C1706 0.929 1_656 S
C1692 H1680 0.930 . S
C1692 C1693 1.399 1_655 S
C1692 C1697 1.421 . S
C1693 C1692 1.399 1_455 S
C1693 C1694 1.376 . S
C1694 H1681 0.930 . S
C1694 C1693 1.376 . S
C1694 C1695 1.388 1_556 S
C1695 H1682 0.930 . S
C1695 C1694 1.388 1_554 S
C1695 C1696 1.390 1_554 S
C1696 C1695 1.390 1_556 S
C1696 C1697 1.361 1_455 S
C1696 C1702 1.465 1_556 S
C1697 C1692 1.421 . S
C1697 C1696 1.361 1_655 S
C1697 C1698 1.523 . S
C1698 C1697 1.523 . S
C1698 C1699 1.502 . S
C1698 C1700 1.561 . S
C1698 C1701 1.526 1_655 S
C1699 H1683 0.959 1_556 S
C1699 H1684 0.959 . S
C1699 H1685 0.961 . S
C1699 C1698 1.502 . S
C1700 H1686 0.960 . S
C1700 H1687 0.961 . S
C1700 H1688 0.959 1_655 S
C1700 C1698 1.561 . S
C1701 C1698 1.526 1_455 S
C1701 C1702 1.396 1_556 S
C1701 C1706 1.390 1_556 S
C1702 C1696 1.465 1_554 S
C1702 C1701 1.396 1_554 S
C1702 C1703 1.399 . S
C1703 H1689 0.929 . S
C1703 C1702 1.399 . S
C1703 C1704 1.385 . S
C1704 H1690 0.931 . S
C1704 C1703 1.385 . S
C1704 C1705 1.389 . S
C1705 C1704 1.389 . S
C1705 C1706 1.387 . S
C1706 H1691 0.929 1_454 S
C1706 C1701 1.390 1_554 S
C1706 C1705 1.387 . S
H1707 C1719 0.930 . S
H1708 C1721 0.930 . S
H1709 C1722 0.930 . S
H1710 C1726 0.959 . S
H1711 C1726 0.959 . S
H1712 C1726 0.961 . S
H1713 C1727 0.960 . S
H1714 C1727 0.961 . S
H1715 C1727 0.959 . S
H1716 C1730 0.929 . S
H1717 C1731 0.931 . S
H1718 C1733 0.930 . S
C1719 H1707 0.930 . S
C1719 C1720 1.399 . S
C1719 C1724 1.399 . S
C1720 C1719 1.399 . S
C1720 C1721 1.376 . S
C1721 H1708 0.930 . S
C1721 C1720 1.376 . S
C1721 C1722 1.388 . S
C1722 H1709 0.930 . S
C1722 C1721 1.388 . S
C1722 C1723 1.390 . S
C1723 C1722 1.390 . S
C1723 C1724 1.394 . S
C1723 C1729 1.465 . S
C1724 C1719 1.399 . S
C1724 C1723 1.394 . S
C1724 C1725 1.516 . S
C1725 C1724 1.516 . S
C1725 C1726 1.502 . S
C1725 C1727 1.561 . S
C1725 C1728 1.526 . S
C1726 H1710 0.959 . S
C1726 H1711 0.959 . S
C1726 H1712 0.961 . S
C1726 C1725 1.502 . S
C1727 H1713 0.960 . S
C1727 H1714 0.961 . S
C1727 H1715 0.959 . S
C1727 C1725 1.561 . S
C1728 C1725 1.526 . S
C1728 C1729 1.396 . S
C1728 C1733 1.390 . S
C1729 C1723 1.465 . S
C1729 C1728 1.396 . S
C1729 C1730 1.399 . S
C1730 H1716 0.929 . S
C1730 C1729 1.399 . S
C1730 C1731 1.385 . S
C1731 H1717 0.931 . S
C1731 C1730 1.385 . S
C1731 C1732 1.389 . S
C1732 C1731 1.389 . S
C1732 C1733 1.387 . S
C1733 H1718 0.930 . S
C1733 C1728 1.390 . S
C1733 C1732 1.387 . S
H1734 C1746 0.930 . S
H1735 C1748 0.930 . S
H1736 C1749 0.930 . S
H1737 C1753 0.959 . S
H1738 C1753 0.959 . S
H1739 C1753 0.961 . S
H1740 C1754 0.960 . S
H1741 C1754 0.961 . S
H1742 C1754 0.959 . S
H1743 C1757 0.929 . S
H1744 C1758 0.931 . S
H1745 C1760 0.930 . S
C1746 H1734 0.930 . S
C1746 C1747 1.399 . S
C1746 C1751 1.399 . S
C1747 C1746 1.399 . S
C1747 C1748 1.376 . S
C1748 H1735 0.930 . S
C1748 C1747 1.376 . S
C1748 C1749 1.388 . S
C1749 H1736 0.930 . S
C1749 C1748 1.388 . S
C1749 C1750 1.390 . S
C1750 C1749 1.390 . S
C1750 C1751 1.394 . S
C1750 C1756 1.465 . S
C1751 C1746 1.399 . S
C1751 C1750 1.394 . S
C1751 C1752 1.516 . S
C1752 C1751 1.516 . S
C1752 C1753 1.502 . S
C1752 C1754 1.561 . S
C1752 C1755 1.526 . S
C1753 H1737 0.959 . S
C1753 H1738 0.959 . S
C1753 H1739 0.961 . S
C1753 C1752 1.502 . S
C1754 H1740 0.960 . S
C1754 H1741 0.961 . S
C1754 H1742 0.959 . S
C1754 C1752 1.561 . S
C1755 C1752 1.526 . S
C1755 C1756 1.396 . S
C1755 C1760 1.390 . S
C1756 C1750 1.465 . S
C1756 C1755 1.396 . S
C1756 C1757 1.399 . S
C1757 H1743 0.929 . S
C1757 C1756 1.399 . S
C1757 C1758 1.385 . S
C1758 H1744 0.931 . S
C1758 C1757 1.385 . S
C1758 C1759 1.389 . S
C1759 C1758 1.389 . S
C1759 C1760 1.387 . S
C1760 H1745 0.930 . S
C1760 C1755 1.390 . S
C1760 C1759 1.387 . S
H1761 C1773 0.930 . S
H1762 C1775 0.930 . S
H1763 C1776 0.930 . S
H1764 C1780 0.959 . S
H1765 C1780 0.959 . S
H1766 C1780 0.961 . S
H1767 C1781 0.960 . S
H1768 C1781 0.961 . S
H1769 C1781 0.959 . S
H1770 C1784 0.929 . S
H1771 C1785 0.931 . S
H1772 C1787 0.930 . S
C1773 H1761 0.930 . S
C1773 C1774 1.399 . S
C1773 C1778 1.399 . S
C1774 C1773 1.399 . S
C1774 C1775 1.376 . S
C1775 H1762 0.930 . S
C1775 C1774 1.376 . S
C1775 C1776 1.388 . S
C1776 H1763 0.930 . S
C1776 C1775 1.388 . S
C1776 C1777 1.390 . S
C1777 C1776 1.390 . S
C1777 C1778 1.394 . S
C1777 C1783 1.465 . S
C1778 C1773 1.399 . S
C1778 C1777 1.394 . S
C1778 C1779 1.516 . S
C1779 C1778 1.516 . S
C1779 C1780 1.502 . S
C1779 C1781 1.561 . S
C1779 C1782 1.526 . S
C1780 H1764 0.959 . S
C1780 H1765 0.959 . S
C1780 H1766 0.961 . S
C1780 C1779 1.502 . S
C1781 H1767 0.960 . S
C1781 H1768 0.961 . S
C1781 H1769 0.959 . S
C1781 C1779 1.561 . S
C1782 C1779 1.526 . S
C1782 C1783 1.396 . S
C1782 C1787 1.390 . S
C1783 C1777 1.465 . S
C1783 C1782 1.396 . S
C1783 C1784 1.399 . S
C1784 H1770 0.929 . S
C1784 C1783 1.399 . S
C1784 C1785 1.385 . S
C1785 H1771 0.931 . S
C1785 C1784 1.385 . S
C1785 C1786 1.389 . S
C1786 C1785 1.389 . S
C1786 C1787 1.387 . S
C1787 H1772 0.930 . S
C1787 C1782 1.390 . S
C1787 C1786 1.387 . S
H1788 C1800 0.930 . S
H1789 C1802 0.910 1_655 S
H1790 C1803 0.930 . S
H1791 C1807 0.959 . S
H1792 C1807 0.959 . S
H1793 C1807 0.961 . S
H1794 C1808 0.960 . S
H1795 C1808 0.961 . S
H1796 C1808 0.959 . S
H1797 C1811 0.929 . S
H1798 C1812 0.931 1_655 S
H1799 C1814 0.930 . S
C1800 H1788 0.930 . S
C1800 C1801 1.399 . S
C1800 C1805 1.399 . S
C1801 C1800 1.399 . S
C1801 C1802 1.405 . S
C1802 H1789 0.910 1_455 S
C1802 C1801 1.405 . S
C1802 C1803 1.380 1_455 S
C1803 H1790 0.930 . S
C1803 C1802 1.380 1_655 S
C1803 C1804 1.390 1_655 S
C1804 C1803 1.390 1_455 S
C1804 C1805 1.394 . S
C1804 C1810 1.465 . S
C1805 C1800 1.399 . S
C1805 C1804 1.394 . S
C1805 C1806 1.516 . S
C1806 C1805 1.516 . S
C1806 C1807 1.502 . S
C1806 C1808 1.561 . S
C1806 C1809 1.526 . S
C1807 H1791 0.959 . S
C1807 H1792 0.959 . S
C1807 H1793 0.961 . S
C1807 C1806 1.502 . S
C1808 H1794 0.960 . S
C1808 H1795 0.961 . S
C1808 H1796 0.959 . S
C1808 C1806 1.561 . S
C1809 C1806 1.526 . S
C1809 C1810 1.396 . S
C1809 C1814 1.390 . S
C1810 C1804 1.465 . S
C1810 C1809 1.396 . S
C1810 C1811 1.399 1_455 S
C1811 H1797 0.929 . S
C1811 C1810 1.399 1_655 S
C1811 C1812 1.385 1_655 S
C1812 H1798 0.931 1_455 S
C1812 C1811 1.385 1_455 S
C1812 C1813 1.389 . S
C1813 C1812 1.389 . S
C1813 C1814 1.387 . S
C1814 H1799 0.930 . S
C1814 C1809 1.390 . S
C1814 C1813 1.387 . S
H1815 C1827 0.930 . S
H1816 C1829 0.930 . S
H1817 C1830 0.930 . S
H1818 C1834 0.959 . S
H1819 C1834 0.959 . S
H1820 C1834 0.961 . S
H1821 C1835 0.960 . S
H1822 C1835 0.961 . S
H1823 C1835 0.959 . S
H1824 C1838 0.929 . S
H1825 C1839 0.931 . S
H1826 C1841 0.930 . S
C1827 H1815 0.930 . S
C1827 C1828 1.399 . S
C1827 C1832 1.399 . S
C1828 C1827 1.399 . S
C1828 C1829 1.376 . S
C1829 H1816 0.930 . S
C1829 C1828 1.376 . S
C1829 C1830 1.388 . S
C1830 H1817 0.930 . S
C1830 C1829 1.388 . S
C1830 C1831 1.390 . S
C1831 C1830 1.390 . S
C1831 C1832 1.394 . S
C1831 C1837 1.465 . S
C1832 C1827 1.399 . S
C1832 C1831 1.394 . S
C1832 C1833 1.516 . S
C1833 C1832 1.516 . S
C1833 C1834 1.502 . S
C1833 C1835 1.561 . S
C1833 C1836 1.526 . S
C1834 H1818 0.959 . S
C1834 H1819 0.959 . S
C1834 H1820 0.961 . S
C1834 C1833 1.502 . S
C1835 H1821 0.960 . S
C1835 H1822 0.961 . S
C1835 H1823 0.959 . S
C1835 C1833 1.561 . S
C1836 C1833 1.526 . S
C1836 C1837 1.396 . S
C1836 C1841 1.390 . S
C1837 C1831 1.465 . S
C1837 C1836 1.396 . S
C1837 C1838 1.399 . S
C1838 H1824 0.929 . S
C1838 C1837 1.399 . S
C1838 C1839 1.385 . S
C1839 H1825 0.931 . S
C1839 C1838 1.385 . S
C1839 C1840 1.389 . S
C1840 C1839 1.389 . S
C1840 C1841 1.387 . S
C1841 H1826 0.930 . S
C1841 C1836 1.390 . S
C1841 C1840 1.387 . S
H1842 C1854 0.930 . S
H1843 C1856 0.930 . S
H1844 C1857 0.930 . S
H1845 C1861 0.959 . S
H1846 C1861 0.959 . S
H1847 C1861 0.961 . S
H1848 C1862 0.960 . S
H1849 C1862 0.961 . S
H1850 C1862 0.959 . S
H1851 C1865 0.929 . S
H1852 C1866 0.931 . S
H1853 C1868 0.930 . S
C1854 H1842 0.930 . S
C1854 C1855 1.399 . S
C1854 C1859 1.399 . S
C1855 C1854 1.399 . S
C1855 C1856 1.376 . S
C1856 H1843 0.930 . S
C1856 C1855 1.376 . S
C1856 C1857 1.388 . S
C1857 H1844 0.930 . S
C1857 C1856 1.388 . S
C1857 C1858 1.390 . S
C1858 C1857 1.390 . S
C1858 C1859 1.394 . S
C1858 C1864 1.465 . S
C1859 C1854 1.399 . S
C1859 C1858 1.394 . S
C1859 C1860 1.516 . S
C1860 C1859 1.516 . S
C1860 C1861 1.502 . S
C1860 C1862 1.561 . S
C1860 C1863 1.526 . S
C1861 H1845 0.959 . S
C1861 H1846 0.959 . S
C1861 H1847 0.961 . S
C1861 C1860 1.502 . S
C1862 H1848 0.960 . S
C1862 H1849 0.961 . S
C1862 H1850 0.959 . S
C1862 C1860 1.561 . S
C1863 C1860 1.526 . S
C1863 C1864 1.396 . S
C1863 C1868 1.390 . S
C1864 C1858 1.465 . S
C1864 C1863 1.396 . S
C1864 C1865 1.399 . S
C1865 H1851 0.929 . S
C1865 C1864 1.399 . S
C1865 C1866 1.385 . S
C1866 H1852 0.931 . S
C1866 C1865 1.385 . S
C1866 C1867 1.389 . S
C1867 C1866 1.389 . S
C1867 C1868 1.387 . S
C1868 H1853 0.930 . S
C1868 C1863 1.390 . S
C1868 C1867 1.387 . S
H1869 C1881 0.930 . S
H1870 C1883 0.930 . S
H1871 C1884 0.930 . S
H1872 C1888 0.959 . S
H1873 C1888 0.959 . S
H1874 C1888 0.961 . S
H1875 C1889 0.960 . S
H1876 C1889 0.961 . S
H1877 C1889 0.959 . S
H1878 C1892 0.929 . S
H1879 C1893 0.931 . S
H1880 C1895 0.930 . S
C1881 H1869 0.930 . S
C1881 C1882 1.399 . S
C1881 C1886 1.399 . S
C1882 C1881 1.399 . S
C1882 C1883 1.376 . S
C1883 H1870 0.930 . S
C1883 C1882 1.376 . S
C1883 C1884 1.388 . S
C1884 H1871 0.930 . S
C1884 C1883 1.388 . S
C1884 C1885 1.390 . S
C1885 C1884 1.390 . S
C1885 C1886 1.394 . S
C1885 C1891 1.465 . S
C1886 C1881 1.399 . S
C1886 C1885 1.394 . S
C1886 C1887 1.516 . S
C1887 C1886 1.516 . S
C1887 C1888 1.502 . S
C1887 C1889 1.561 . S
C1887 C1890 1.526 . S
C1888 H1872 0.959 . S
C1888 H1873 0.959 . S
C1888 H1874 0.961 . S
C1888 C1887 1.502 . S
C1889 H1875 0.960 . S
C1889 H1876 0.961 . S
C1889 H1877 0.959 . S
C1889 C1887 1.561 . S
C1890 C1887 1.526 . S
C1890 C1891 1.396 . S
C1890 C1895 1.390 . S
C1891 C1885 1.465 . S
C1891 C1890 1.396 . S
C1891 C1892 1.399 . S
C1892 H1878 0.929 . S
C1892 C1891 1.399 . S
C1892 C1893 1.385 . S
C1893 H1879 0.931 . S
C1893 C1892 1.385 . S
C1893 C1894 1.389 . S
C1894 C1893 1.389 . S
C1894 C1895 1.387 . S
C1895 H1880 0.930 . S
C1895 C1890 1.390 . S
C1895 C1894 1.387 . S
H1896 C1908 0.930 . S
H1897 C1910 0.955 . S
H1898 C1911 0.959 . S
H1899 C1915 0.959 . S
H1900 C1915 0.959 . S
H1901 C1915 0.961 . S
H1902 C1916 0.960 . S
H1903 C1916 0.961 . S
H1904 C1916 0.959 1_455 S
H1905 C1919 0.929 1_565 S
H1906 C1920 0.931 . S
H1907 C1922 0.935 . S
C1908 H1896 0.930 . S
C1908 C1909 1.399 . S
C1908 C1913 1.399 . S
C1909 C1908 1.399 . S
C1909 C1910 1.351 1_545 S
C1910 H1897 0.955 . S
C1910 C1909 1.351 1_565 S
C1910 C1911 1.388 . S
C1911 H1898 0.959 . S
C1911 C1910 1.388 . S
C1911 C1912 1.362 1_565 S
C1912 C1911 1.362 1_545 S
C1912 C1913 1.394 . S
C1912 C1918 1.465 . S
C1913 C1908 1.399 . S
C1913 C1912 1.394 . S
C1913 C1914 1.516 . S
C1914 C1913 1.516 . S
C1914 C1915 1.502 . S
C1914 C1916 1.561 . S
C1914 C1917 1.526 . S
C1915 H1899 0.959 . S
C1915 H1900 0.959 . S
C1915 H1901 0.961 . S
C1915 C1914 1.502 . S
C1916 H1902 0.960 . S
C1916 H1903 0.961 . S
C1916 H1904 0.959 1_655 S
C1916 C1914 1.561 . S
C1917 C1914 1.526 . S
C1917 C1918 1.396 . S
C1917 C1922 1.394 . S
C1918 C1912 1.465 . S
C1918 C1917 1.396 . S
C1918 C1919 1.399 1_655 S
C1919 H1905 0.929 1_545 S
C1919 C1918 1.399 1_455 S
C1919 C1920 1.385 . S
C1920 H1906 0.931 . S
C1920 C1919 1.385 . S
C1920 C1921 1.389 . S
C1921 C1920 1.389 . S
C1921 C1922 1.377 1_455 S
C1922 H1907 0.935 . S
C1922 C1917 1.394 . S
C1922 C1921 1.377 1_655 S
H1923 C1935 0.930 . S
H1924 C1937 0.930 . S
H1925 C1938 0.930 . S
H1926 C1942 0.959 . S
H1927 C1942 0.959 . S
H1928 C1942 0.961 . S
H1929 C1943 0.960 . S
H1930 C1943 0.961 . S
H1931 C1943 0.959 . S
H1932 C1946 0.929 . S
H1933 C1947 0.931 . S
H1934 C1949 0.930 . S
C1935 H1923 0.930 . S
C1935 C1936 1.399 . S
C1935 C1940 1.399 . S
C1936 C1935 1.399 . S
C1936 C1937 1.376 . S
C1937 H1924 0.930 . S
C1937 C1936 1.376 . S
C1937 C1938 1.388 . S
C1938 H1925 0.930 . S
C1938 C1937 1.388 . S
C1938 C1939 1.390 . S
C1939 C1938 1.390 . S
C1939 C1940 1.394 . S
C1939 C1945 1.465 . S
C1940 C1935 1.399 . S
C1940 C1939 1.394 . S
C1940 C1941 1.516 . S
C1941 C1940 1.516 . S
C1941 C1942 1.502 . S
C1941 C1943 1.561 . S
C1941 C1944 1.526 . S
C1942 H1926 0.959 . S
C1942 H1927 0.959 . S
C1942 H1928 0.961 . S
C1942 C1941 1.502 . S
C1943 H1929 0.960 . S
C1943 H1930 0.961 . S
C1943 H1931 0.959 . S
C1943 C1941 1.561 . S
C1944 C1941 1.526 . S
C1944 C1945 1.396 . S
C1944 C1949 1.390 . S
C1945 C1939 1.465 . S
C1945 C1944 1.396 . S
C1945 C1946 1.399 . S
C1946 H1932 0.929 . S
C1946 C1945 1.399 . S
C1946 C1947 1.385 . S
C1947 H1933 0.931 . S
C1947 C1946 1.385 . S
C1947 C1948 1.389 . S
C1948 C1947 1.389 . S
C1948 C1949 1.387 . S
C1949 H1934 0.930 . S
C1949 C1944 1.390 . S
C1949 C1948 1.387 . S
H1950 C1962 0.930 . S
H1951 C1964 0.930 . S
H1952 C1965 0.930 1_565 S
H1953 C1969 0.959 . S
H1954 C1969 0.959 . S
H1955 C1969 0.961 . S
H1956 C1970 0.960 . S
H1957 C1970 0.961 . S
H1958 C1970 0.959 . S
H1959 C1973 0.929 1_565 S
H1960 C1974 0.931 1_565 S
H1961 C1976 0.930 . S
C1962 H1950 0.930 . S
C1962 C1963 1.399 . S
C1962 C1967 1.399 . S
C1963 C1962 1.399 . S
C1963 C1964 1.376 . S
C1964 H1951 0.930 . S
C1964 C1963 1.376 . S
C1964 C1965 1.388 . S
C1965 H1952 0.930 1_545 S
C1965 C1964 1.388 . S
C1965 C1966 1.390 . S
C1966 C1965 1.390 . S
C1966 C1967 1.394 . S
C1966 C1972 1.465 . S
C1967 C1962 1.399 . S
C1967 C1966 1.394 . S
C1967 C1968 1.516 . S
C1968 C1967 1.516 . S
C1968 C1969 1.502 . S
C1968 C1970 1.561 . S
C1968 C1971 1.526 . S
C1969 H1953 0.959 . S
C1969 H1954 0.959 . S
C1969 H1955 0.961 . S
C1969 C1968 1.502 . S
C1970 H1956 0.960 . S
C1970 H1957 0.961 . S
C1970 H1958 0.959 . S
C1970 C1968 1.561 . S
C1971 C1968 1.526 . S
C1971 C1972 1.396 . S
C1971 C1976 1.390 . S
C1972 C1966 1.465 . S
C1972 C1971 1.396 . S
C1972 C1973 1.399 . S
C1973 H1959 0.929 1_545 S
C1973 C1972 1.399 . S
C1973 C1974 1.385 . S
C1974 H1960 0.931 1_545 S
C1974 C1973 1.385 . S
C1974 C1975 1.389 . S
C1975 C1974 1.389 . S
C1975 C1976 1.387 . S
C1976 H1961 0.930 . S
C1976 C1971 1.390 . S
C1976 C1975 1.387 . S
H1977 C1989 0.930 . S
H1978 C1991 0.930 . S
H1979 C1992 0.930 . S
H1980 C1996 0.959 . S
H1981 C1996 0.959 . S
H1982 C1996 0.961 . S
H1983 C1997 0.960 . S
H1984 C1997 0.961 . S
H1985 C1997 0.959 . S
H1986 C2000 0.929 . S
H1987 C2001 0.931 . S
H1988 C2003 0.930 . S
C1989 H1977 0.930 . S
C1989 C1990 1.399 . S
C1989 C1994 1.399 . S
C1990 C1989 1.399 . S
C1990 C1991 1.376 . S
C1991 H1978 0.930 . S
C1991 C1990 1.376 . S
C1991 C1992 1.388 . S
C1992 H1979 0.930 . S
C1992 C1991 1.388 . S
C1992 C1993 1.390 . S
C1993 C1992 1.390 . S
C1993 C1994 1.394 . S
C1993 C1999 1.465 . S
C1994 C1989 1.399 . S
C1994 C1993 1.394 . S
C1994 C1995 1.516 . S
C1995 C1994 1.516 . S
C1995 C1996 1.502 . S
C1995 C1997 1.561 . S
C1995 C1998 1.526 . S
C1996 H1980 0.959 . S
C1996 H1981 0.959 . S
C1996 H1982 0.961 . S
C1996 C1995 1.502 . S
C1997 H1983 0.960 . S
C1997 H1984 0.961 . S
C1997 H1985 0.959 . S
C1997 C1995 1.561 . S
C1998 C1995 1.526 . S
C1998 C1999 1.396 . S
C1998 C2003 1.390 . S
C1999 C1993 1.465 . S
C1999 C1998 1.396 . S
C1999 C2000 1.399 . S
C2000 H1986 0.929 . S
C2000 C1999 1.399 . S
C2000 C2001 1.385 . S
C2001 H1987 0.931 . S
C2001 C2000 1.385 . S
C2001 C2002 1.389 . S
C2002 C2001 1.389 . S
C2002 C2003 1.387 . S
C2003 H1988 0.930 . S
C2003 C1998 1.390 . S
C2003 C2002 1.387 . S
H2004 C2016 0.930 . S
H2005 C2018 0.930 . S
H2006 C2019 0.930 . S
H2007 C2023 0.959 . S
H2008 C2023 0.959 . S
H2009 C2023 0.961 . S
H2010 C2024 0.960 . S
H2011 C2024 0.961 . S
H2012 C2024 0.959 . S
H2013 C2027 0.929 . S
H2014 C2028 0.931 . S
H2015 C2030 0.930 . S
C2016 H2004 0.930 . S
C2016 C2017 1.399 . S
C2016 C2021 1.399 . S
C2017 C2016 1.399 . S
C2017 C2018 1.376 . S
C2018 H2005 0.930 . S
C2018 C2017 1.376 . S
C2018 C2019 1.388 . S
C2019 H2006 0.930 . S
C2019 C2018 1.388 . S
C2019 C2020 1.390 . S
C2020 C2019 1.390 . S
C2020 C2021 1.394 . S
C2020 C2026 1.465 . S
C2021 C2016 1.399 . S
C2021 C2020 1.394 . S
C2021 C2022 1.516 1_655 S
C2022 C2021 1.516 1_455 S
C2022 C2023 1.502 1_545 S
C2022 C2024 1.561 . S
C2022 C2025 1.526 . S
C2023 H2007 0.959 . S
C2023 H2008 0.959 . S
C2023 H2009 0.961 . S
C2023 C2022 1.502 1_565 S
C2024 H2010 0.960 . S
C2024 H2011 0.961 . S
C2024 H2012 0.959 . S
C2024 C2022 1.561 . S
C2025 C2022 1.526 . S
C2025 C2026 1.396 1_455 S
C2025 C2030 1.390 . S
C2026 C2020 1.465 . S
C2026 C2025 1.396 1_655 S
C2026 C2027 1.399 . S
C2027 H2013 0.929 . S
C2027 C2026 1.399 . S
C2027 C2028 1.385 . S
C2028 H2014 0.931 . S
C2028 C2027 1.385 . S
C2028 C2029 1.389 1_655 S
C2029 C2028 1.389 1_455 S
C2029 C2030 1.387 . S
C2030 H2015 0.930 . S
C2030 C2025 1.390 . S
C2030 C2029 1.387 . S
H2031 C2043 0.930 . S
H2032 C2045 0.930 . S
H2033 C2046 0.930 . S
H2034 C2050 0.959 . S
H2035 C2050 0.959 . S
H2036 C2050 0.961 . S
H2037 C2051 0.960 . S
H2038 C2051 0.961 . S
H2039 C2051 0.959 . S
H2040 C2054 0.929 . S
H2041 C2055 0.931 . S
H2042 C2057 0.930 . S
C2043 H2031 0.930 . S
C2043 C2044 1.399 . S
C2043 C2048 1.399 . S
C2044 C2043 1.399 . S
C2044 C2045 1.376 . S
C2045 H2032 0.930 . S
C2045 C2044 1.376 . S
C2045 C2046 1.388 . S
C2046 H2033 0.930 . S
C2046 C2045 1.388 . S
C2046 C2047 1.390 . S
C2047 C2046 1.390 . S
C2047 C2048 1.394 . S
C2047 C2053 1.465 . S
C2048 C2043 1.399 . S
C2048 C2047 1.394 . S
C2048 C2049 1.516 . S
C2049 C2048 1.516 . S
C2049 C2050 1.502 . S
C2049 C2051 1.561 . S
C2049 C2052 1.526 . S
C2050 H2034 0.959 . S
C2050 H2035 0.959 . S
C2050 H2036 0.961 . S
C2050 C2049 1.502 . S
C2051 H2037 0.960 . S
C2051 H2038 0.961 . S
C2051 H2039 0.959 . S
C2051 C2049 1.561 . S
C2052 C2049 1.526 . S
C2052 C2053 1.396 . S
C2052 C2057 1.390 . S
C2053 C2047 1.465 . S
C2053 C2052 1.396 . S
C2053 C2054 1.399 . S
C2054 H2040 0.929 . S
C2054 C2053 1.399 . S
C2054 C2055 1.385 . S
C2055 H2041 0.931 . S
C2055 C2054 1.385 . S
C2055 C2056 1.389 . S
C2056 C2055 1.389 . S
C2056 C2057 1.387 . S
C2057 H2042 0.930 . S
C2057 C2052 1.390 . S
C2057 C2056 1.387 . S
H2058 C2070 0.930 . S
H2059 C2072 0.930 . S
H2060 C2073 0.930 . S
H2061 C2077 0.959 . S
H2062 C2077 0.959 . S
H2063 C2077 0.961 . S
H2064 C2078 0.960 . S
H2065 C2078 0.961 . S
H2066 C2078 0.959 . S
H2067 C2081 0.929 . S
H2068 C2082 0.931 . S
H2069 C2084 0.930 . S
C2070 H2058 0.930 . S
C2070 C2071 1.399 . S
C2070 C2075 1.399 . S
C2071 C2070 1.399 . S
C2071 C2072 1.376 . S
C2072 H2059 0.930 . S
C2072 C2071 1.376 . S
C2072 C2073 1.388 . S
C2073 H2060 0.930 . S
C2073 C2072 1.388 . S
C2073 C2074 1.390 . S
C2074 C2073 1.390 . S
C2074 C2075 1.394 . S
C2074 C2080 1.465 . S
C2075 C2070 1.399 . S
C2075 C2074 1.394 . S
C2075 C2076 1.516 . S
C2076 C2075 1.516 . S
C2076 C2077 1.502 . S
C2076 C2078 1.561 . S
C2076 C2079 1.526 . S
C2077 H2061 0.959 . S
C2077 H2062 0.959 . S
C2077 H2063 0.961 . S
C2077 C2076 1.502 . S
C2078 H2064 0.960 . S
C2078 H2065 0.961 . S
C2078 H2066 0.959 . S
C2078 C2076 1.561 . S
C2079 C2076 1.526 . S
C2079 C2080 1.396 . S
C2079 C2084 1.390 . S
C2080 C2074 1.465 . S
C2080 C2079 1.396 . S
C2080 C2081 1.399 . S
C2081 H2067 0.929 . S
C2081 C2080 1.399 . S
C2081 C2082 1.385 . S
C2082 H2068 0.931 . S
C2082 C2081 1.385 . S
C2082 C2083 1.389 . S
C2083 C2082 1.389 . S
C2083 C2084 1.387 . S
C2084 H2069 0.930 . S
C2084 C2079 1.390 . S
C2084 C2083 1.387 . S
H2085 C2097 0.930 . S
H2086 C2099 0.930 . S
H2087 C2100 0.930 . S
H2088 C2104 0.959 . S
H2089 C2104 0.959 . S
H2090 C2104 0.961 . S
H2091 C2105 0.960 . S
H2092 C2105 0.961 . S
H2093 C2105 0.959 . S
H2094 C2108 0.929 . S
H2095 C2109 0.931 . S
H2096 C2111 0.930 . S
C2097 H2085 0.930 . S
C2097 C2098 1.399 . S
C2097 C2102 1.399 . S
C2098 C2097 1.399 . S
C2098 C2099 1.376 . S
C2099 H2086 0.930 . S
C2099 C2098 1.376 . S
C2099 C2100 1.388 . S
C2100 H2087 0.930 . S
C2100 C2099 1.388 . S
C2100 C2101 1.390 . S
C2101 C2100 1.390 . S
C2101 C2102 1.394 . S
C2101 C2107 1.465 . S
C2102 C2097 1.399 . S
C2102 C2101 1.394 . S
C2102 C2103 1.516 . S
C2103 C2102 1.516 . S
C2103 C2104 1.502 . S
C2103 C2105 1.561 . S
C2103 C2106 1.526 . S
C2104 H2088 0.959 . S
C2104 H2089 0.959 . S
C2104 H2090 0.961 . S
C2104 C2103 1.502 . S
C2105 H2091 0.960 . S
C2105 H2092 0.961 . S
C2105 H2093 0.959 . S
C2105 C2103 1.561 . S
C2106 C2103 1.526 . S
C2106 C2107 1.396 . S
C2106 C2111 1.390 . S
C2107 C2101 1.465 . S
C2107 C2106 1.396 . S
C2107 C2108 1.399 . S
C2108 H2094 0.929 . S
C2108 C2107 1.399 . S
C2108 C2109 1.385 . S
C2109 H2095 0.931 . S
C2109 C2108 1.385 . S
C2109 C2110 1.389 . S
C2110 C2109 1.389 . S
C2110 C2111 1.387 . S
C2111 H2096 0.930 . S
C2111 C2106 1.390 . S
C2111 C2110 1.387 . S
H2112 C2124 0.930 . S
H2113 C2126 0.930 . S
H2114 C2127 0.930 . S
H2115 C2131 0.959 . S
H2116 C2131 0.959 . S
H2117 C2131 0.961 . S
H2118 C2132 0.960 . S
H2119 C2132 0.961 . S
H2120 C2132 0.959 1_545 S
H2121 C2135 0.928 1_556 S
H2122 C2136 0.931 . S
H2123 C2138 0.930 . S
C2124 H2112 0.930 . S
C2124 C2125 1.373 1_554 S
C2124 C2129 1.399 . S
C2125 C2124 1.373 1_556 S
C2125 C2126 1.398 . S
C2126 H2113 0.930 . S
C2126 C2125 1.398 . S
C2126 C2127 1.388 . S
C2127 H2114 0.930 . S
C2127 C2126 1.388 . S
C2127 C2128 1.390 1_556 S
C2128 C2127 1.390 1_554 S
C2128 C2129 1.394 . S
C2128 C2134 1.465 . S
C2129 C2124 1.399 . S
C2129 C2128 1.394 . S
C2129 C2130 1.516 . S
C2130 C2129 1.516 . S
C2130 C2131 1.502 . S
C2130 C2132 1.561 . S
C2130 C2133 1.526 . S
C2131 H2115 0.959 . S
C2131 H2116 0.959 . S
C2131 H2117 0.961 . S
C2131 C2130 1.502 . S
C2132 H2118 0.960 . S
C2132 H2119 0.961 . S
C2132 H2120 0.959 1_565 S
C2132 C2130 1.561 . S
C2133 C2130 1.526 . S
C2133 C2134 1.396 . S
C2133 C2138 1.390 . S
C2134 C2128 1.465 . S
C2134 C2133 1.396 . S
C2134 C2135 1.400 1_565 S
C2135 H2121 0.928 1_554 S
C2135 C2134 1.400 1_545 S
C2135 C2136 1.386 . S
C2136 H2122 0.931 . S
C2136 C2135 1.386 . S
C2136 C2137 1.389 . S
C2137 C2136 1.389 . S
C2137 C2138 1.387 1_545 S
C2138 H2123 0.930 . S
C2138 C2133 1.390 . S
C2138 C2137 1.387 1_565 S
H2139 C2151 0.930 . S
H2140 C2153 0.930 . S
H2141 C2154 0.930 . S
H2142 C2158 0.926 1_554 S
H2143 C2158 0.967 . S
H2144 C2158 0.979 . S
H2145 C2159 0.960 . S
H2146 C2159 0.961 . S
H2147 C2159 0.959 . S
H2148 C2162 0.929 . S
H2149 C2163 0.931 . S
H2150 C2165 0.930 1_556 S
C2151 H2139 0.930 . S
C2151 C2152 1.399 1_556 S
C2151 C2156 1.389 1_556 S
C2152 C2151 1.399 1_554 S
C2152 C2153 1.376 . S
C2153 H2140 0.930 . S
C2153 C2152 1.376 . S
C2153 C2154 1.388 . S
C2154 H2141 0.930 . S
C2154 C2153 1.388 . S
C2154 C2155 1.390 . S
C2155 C2154 1.390 . S
C2155 C2156 1.413 . S
C2155 C2161 1.465 . S
C2156 C2151 1.389 1_554 S
C2156 C2155 1.413 . S
C2156 C2157 1.511 1_554 S
C2157 C2156 1.511 1_556 S
C2157 C2158 1.509 . S
C2157 C2159 1.561 . S
C2157 C2160 1.526 1_556 S
C2158 H2142 0.926 1_556 S
C2158 H2143 0.967 . S
C2158 H2144 0.979 . S
C2158 C2157 1.509 . S
C2159 H2145 0.960 . S
C2159 H2146 0.961 . S
C2159 H2147 0.959 . S
C2159 C2157 1.561 . S
C2160 C2157 1.526 1_554 S
C2160 C2161 1.396 . S
C2160 C2165 1.390 . S
C2161 C2155 1.465 . S
C2161 C2160 1.396 . S
C2161 C2162 1.399 . S
C2162 H2148 0.929 . S
C2162 C2161 1.399 . S
C2162 C2163 1.385 . S
C2163 H2149 0.931 . S
C2163 C2162 1.385 . S
C2163 C2164 1.389 . S
C2164 C2163 1.389 . S
C2164 C2165 1.387 . S
C2165 H2150 0.930 1_554 S
C2165 C2160 1.390 . S
C2165 C2164 1.387 . S
H2166 C2178 0.930 . S
H2167 C2180 0.930 . S
H2168 C2181 0.930 . S
H2169 C2185 0.959 . S
H2170 C2185 0.959 . S
H2171 C2185 0.961 . S
H2172 C2186 0.960 . S
H2173 C2186 0.961 . S
H2174 C2186 0.959 . S
H2175 C2189 0.929 . S
H2176 C2190 0.931 . S
H2177 C2192 0.930 . S
C2178 H2166 0.930 . S
C2178 C2179 1.399 . S
C2178 C2183 1.399 . S
C2179 C2178 1.399 . S
C2179 C2180 1.376 . S
C2180 H2167 0.930 . S
C2180 C2179 1.376 . S
C2180 C2181 1.388 . S
C2181 H2168 0.930 . S
C2181 C2180 1.388 . S
C2181 C2182 1.390 . S
C2182 C2181 1.390 . S
C2182 C2183 1.394 . S
C2182 C2188 1.465 . S
C2183 C2178 1.399 . S
C2183 C2182 1.394 . S
C2183 C2184 1.516 . S
C2184 C2183 1.516 . S
C2184 C2185 1.502 . S
C2184 C2186 1.561 . S
C2184 C2187 1.526 . S
C2185 H2169 0.959 . S
C2185 H2170 0.959 . S
C2185 H2171 0.961 . S
C2185 C2184 1.502 . S
C2186 H2172 0.960 . S
C2186 H2173 0.961 . S
C2186 H2174 0.959 . S
C2186 C2184 1.561 . S
C2187 C2184 1.526 . S
C2187 C2188 1.396 . S
C2187 C2192 1.390 . S
C2188 C2182 1.465 . S
C2188 C2187 1.396 . S
C2188 C2189 1.399 . S
C2189 H2175 0.929 . S
C2189 C2188 1.399 . S
C2189 C2190 1.385 . S
C2190 H2176 0.931 . S
C2190 C2189 1.385 . S
C2190 C2191 1.389 . S
C2191 C2190 1.389 . S
C2191 C2192 1.387 . S
C2192 H2177 0.930 . S
C2192 C2187 1.390 . S
C2192 C2191 1.387 . S
H2193 C2205 0.930 . S
H2194 C2207 0.930 . S
H2195 C2208 0.930 . S
H2196 C2212 0.959 . S
H2197 C2212 0.959 . S
H2198 C2212 0.961 . S
H2199 C2213 0.960 . S
H2200 C2213 0.961 . S
H2201 C2213 0.959 . S
H2202 C2216 0.929 . S
H2203 C2217 0.931 . S
H2204 C2219 0.930 . S
C2205 H2193 0.930 . S
C2205 C2206 1.399 . S
C2205 C2210 1.399 . S
C2206 C2205 1.399 . S
C2206 C2207 1.376 . S
C2207 H2194 0.930 . S
C2207 C2206 1.376 . S
C2207 C2208 1.388 . S
C2208 H2195 0.930 . S
C2208 C2207 1.388 . S
C2208 C2209 1.390 . S
C2209 C2208 1.390 . S
C2209 C2210 1.394 . S
C2209 C2215 1.465 . S
C2210 C2205 1.399 . S
C2210 C2209 1.394 . S
C2210 C2211 1.516 . S
C2211 C2210 1.516 . S
C2211 C2212 1.502 . S
C2211 C2213 1.561 . S
C2211 C2214 1.526 . S
C2212 H2196 0.959 . S
C2212 H2197 0.959 . S
C2212 H2198 0.961 . S
C2212 C2211 1.502 . S
C2213 H2199 0.960 . S
C2213 H2200 0.961 . S
C2213 H2201 0.959 . S
C2213 C2211 1.561 . S
C2214 C2211 1.526 . S
C2214 C2215 1.396 . S
C2214 C2219 1.390 . S
C2215 C2209 1.465 . S
C2215 C2214 1.396 . S
C2215 C2216 1.399 . S
C2216 H2202 0.929 . S
C2216 C2215 1.399 . S
C2216 C2217 1.385 . S
C2217 H2203 0.931 . S
C2217 C2216 1.385 . S
C2217 C2218 1.389 . S
C2218 C2217 1.389 . S
C2218 C2219 1.387 . S
C2219 H2204 0.930 . S
C2219 C2214 1.390 . S
C2219 C2218 1.387 . S
H2220 C2232 0.930 . S
H2221 C2234 0.930 . S
H2222 C2235 0.930 . S
H2223 C2239 0.959 . S
H2224 C2239 0.959 . S
H2225 C2239 0.961 . S
H2226 C2240 0.960 . S
H2227 C2240 0.961 . S
H2228 C2240 0.959 . S
H2229 C2243 0.929 . S
H2230 C2244 0.931 . S
H2231 C2246 0.930 . S
C2232 H2220 0.930 . S
C2232 C2233 1.399 . S
C2232 C2237 1.399 . S
C2233 C2232 1.399 . S
C2233 C2234 1.376 . S
C2234 H2221 0.930 . S
C2234 C2233 1.376 . S
C2234 C2235 1.388 . S
C2235 H2222 0.930 . S
C2235 C2234 1.388 . S
C2235 C2236 1.390 . S
C2236 C2235 1.390 . S
C2236 C2237 1.394 . S
C2236 C2242 1.465 . S
C2237 C2232 1.399 . S
C2237 C2236 1.394 . S
C2237 C2238 1.516 . S
C2238 C2237 1.516 . S
C2238 C2239 1.502 . S
C2238 C2240 1.561 . S
C2238 C2241 1.526 . S
C2239 H2223 0.959 . S
C2239 H2224 0.959 . S
C2239 H2225 0.961 . S
C2239 C2238 1.502 . S
C2240 H2226 0.960 . S
C2240 H2227 0.961 . S
C2240 H2228 0.959 . S
C2240 C2238 1.561 . S
C2241 C2238 1.526 . S
C2241 C2242 1.396 . S
C2241 C2246 1.390 . S
C2242 C2236 1.465 . S
C2242 C2241 1.396 . S
C2242 C2243 1.399 . S
C2243 H2229 0.929 . S
C2243 C2242 1.399 . S
C2243 C2244 1.385 . S
C2244 H2230 0.931 . S
C2244 C2243 1.385 . S
C2244 C2245 1.389 . S
C2245 C2244 1.389 . S
C2245 C2246 1.387 . S
C2246 H2231 0.930 . S
C2246 C2241 1.390 . S
C2246 C2245 1.387 . S
H2247 C2259 0.930 . S
H2248 C2261 0.930 . S
H2249 C2262 0.930 . S
H2250 C2266 0.959 . S
H2251 C2266 0.959 . S
H2252 C2266 0.961 . S
H2253 C2267 0.960 . S
H2254 C2267 0.961 . S
H2255 C2267 0.959 . S
H2256 C2270 0.929 . S
H2257 C2271 0.931 . S
H2258 C2273 0.930 . S
C2259 H2247 0.930 . S
C2259 C2260 1.399 . S
C2259 C2264 1.399 . S
C2260 C2259 1.399 . S
C2260 C2261 1.376 . S
C2261 H2248 0.930 . S
C2261 C2260 1.376 . S
C2261 C2262 1.388 . S
C2262 H2249 0.930 . S
C2262 C2261 1.388 . S
C2262 C2263 1.390 . S
C2263 C2262 1.390 . S
C2263 C2264 1.394 . S
C2263 C2269 1.465 . S
C2264 C2259 1.399 . S
C2264 C2263 1.394 . S
C2264 C2265 1.516 . S
C2265 C2264 1.516 . S
C2265 C2266 1.502 . S
C2265 C2267 1.561 . S
C2265 C2268 1.526 . S
C2266 H2250 0.959 . S
C2266 H2251 0.959 . S
C2266 H2252 0.961 . S
C2266 C2265 1.502 . S
C2267 H2253 0.960 . S
C2267 H2254 0.961 . S
C2267 H2255 0.959 . S
C2267 C2265 1.561 . S
C2268 C2265 1.526 . S
C2268 C2269 1.396 . S
C2268 C2273 1.390 . S
C2269 C2263 1.465 . S
C2269 C2268 1.396 . S
C2269 C2270 1.399 . S
C2270 H2256 0.929 . S
C2270 C2269 1.399 . S
C2270 C2271 1.385 . S
C2271 H2257 0.931 . S
C2271 C2270 1.385 . S
C2271 C2272 1.389 . S
C2272 C2271 1.389 . S
C2272 C2273 1.387 . S
C2273 H2258 0.930 . S
C2273 C2268 1.390 . S
C2273 C2272 1.387 . S
H2274 C2286 0.930 . S
H2275 C2288 0.930 . S
H2276 C2289 0.930 . S
H2277 C2293 0.959 . S
H2278 C2293 0.959 . S
H2279 C2293 0.961 . S
H2280 C2294 0.960 . S
H2281 C2294 0.961 . S
H2282 C2294 0.959 . S
H2283 C2297 0.929 . S
H2284 C2298 0.931 . S
H2285 C2300 0.930 . S
C2286 H2274 0.930 . S
C2286 C2287 1.399 . S
C2286 C2291 1.399 . S
C2287 C2286 1.399 . S
C2287 C2288 1.376 . S
C2288 H2275 0.930 . S
C2288 C2287 1.376 . S
C2288 C2289 1.388 . S
C2289 H2276 0.930 . S
C2289 C2288 1.388 . S
C2289 C2290 1.390 . S
C2290 C2289 1.390 . S
C2290 C2291 1.394 . S
C2290 C2296 1.465 . S
C2291 C2286 1.399 . S
C2291 C2290 1.394 . S
C2291 C2292 1.516 . S
C2292 C2291 1.516 . S
C2292 C2293 1.502 . S
C2292 C2294 1.561 . S
C2292 C2295 1.526 . S
C2293 H2277 0.959 . S
C2293 H2278 0.959 . S
C2293 H2279 0.961 . S
C2293 C2292 1.502 . S
C2294 H2280 0.960 . S
C2294 H2281 0.961 . S
C2294 H2282 0.959 . S
C2294 C2292 1.561 . S
C2295 C2292 1.526 . S
C2295 C2296 1.396 . S
C2295 C2300 1.390 . S
C2296 C2290 1.465 . S
C2296 C2295 1.396 . S
C2296 C2297 1.399 . S
C2297 H2283 0.929 . S
C2297 C2296 1.399 . S
C2297 C2298 1.385 . S
C2298 H2284 0.931 . S
C2298 C2297 1.385 . S
C2298 C2299 1.389 . S
C2299 C2298 1.389 . S
C2299 C2300 1.387 . S
C2300 H2285 0.930 . S
C2300 C2295 1.390 . S
C2300 C2299 1.387 . S
H2301 C2313 0.930 . S
H2302 C2315 0.930 . S
H2303 C2316 0.930 . S
H2304 C2320 0.959 . S
H2305 C2320 0.959 . S
H2306 C2320 0.961 . S
H2307 C2321 0.960 . S
H2308 C2321 0.961 . S
H2309 C2321 0.959 . S
H2310 C2324 0.929 . S
H2311 C2325 0.931 . S
H2312 C2327 0.930 . S
C2313 H2301 0.930 . S
C2313 C2314 1.399 . S
C2313 C2318 1.399 . S
C2314 C2313 1.399 . S
C2314 C2315 1.376 . S
C2315 H2302 0.930 . S
C2315 C2314 1.376 . S
C2315 C2316 1.388 . S
C2316 H2303 0.930 . S
C2316 C2315 1.388 . S
C2316 C2317 1.390 . S
C2317 C2316 1.390 . S
C2317 C2318 1.394 . S
C2317 C2323 1.465 . S
C2318 C2313 1.399 . S
C2318 C2317 1.394 . S
C2318 C2319 1.516 . S
C2319 C2318 1.516 . S
C2319 C2320 1.502 . S
C2319 C2321 1.561 . S
C2319 C2322 1.526 . S
C2320 H2304 0.959 . S
C2320 H2305 0.959 . S
C2320 H2306 0.961 . S
C2320 C2319 1.502 . S
C2321 H2307 0.960 . S
C2321 H2308 0.961 . S
C2321 H2309 0.959 . S
C2321 C2319 1.561 . S
C2322 C2319 1.526 . S
C2322 C2323 1.396 . S
C2322 C2327 1.390 . S
C2323 C2317 1.465 . S
C2323 C2322 1.396 . S
C2323 C2324 1.399 . S
C2324 H2310 0.929 . S
C2324 C2323 1.399 . S
C2324 C2325 1.385 . S
C2325 H2311 0.931 . S
C2325 C2324 1.385 . S
C2325 C2326 1.389 . S
C2326 C2325 1.389 . S
C2326 C2327 1.387 . S
C2327 H2312 0.930 . S
C2327 C2322 1.390 . S
C2327 C2326 1.387 . S
H2328 C2340 0.930 . S
H2329 C2342 0.930 . S
H2330 C2343 0.930 . S
H2331 C2347 0.959 . S
H2332 C2347 0.959 . S
H2333 C2347 0.961 . S
H2334 C2348 0.960 . S
H2335 C2348 0.961 . S
H2336 C2348 0.959 . S
H2337 C2351 0.929 . S
H2338 C2352 0.931 . S
H2339 C2354 0.930 . S
C2340 H2328 0.930 . S
C2340 C2341 1.399 . S
C2340 C2345 1.399 . S
C2341 C2340 1.399 . S
C2341 C2342 1.376 . S
C2342 H2329 0.930 . S
C2342 C2341 1.376 . S
C2342 C2343 1.388 . S
C2343 H2330 0.930 . S
C2343 C2342 1.388 . S
C2343 C2344 1.390 . S
C2344 C2343 1.390 . S
C2344 C2345 1.394 . S
C2344 C2350 1.465 . S
C2345 C2340 1.399 . S
C2345 C2344 1.394 . S
C2345 C2346 1.516 . S
C2346 C2345 1.516 . S
C2346 C2347 1.502 . S
C2346 C2348 1.561 . S
C2346 C2349 1.526 . S
C2347 H2331 0.959 . S
C2347 H2332 0.959 . S
C2347 H2333 0.961 . S
C2347 C2346 1.502 . S
C2348 H2334 0.960 . S
C2348 H2335 0.961 . S
C2348 H2336 0.959 . S
C2348 C2346 1.561 . S
C2349 C2346 1.526 . S
C2349 C2350 1.396 . S
C2349 C2354 1.390 . S
C2350 C2344 1.465 . S
C2350 C2349 1.396 . S
C2350 C2351 1.399 . S
C2351 H2337 0.929 . S
C2351 C2350 1.399 . S
C2351 C2352 1.385 . S
C2352 H2338 0.931 . S
C2352 C2351 1.385 . S
C2352 C2353 1.389 . S
C2353 C2352 1.389 . S
C2353 C2354 1.387 . S
C2354 H2339 0.930 . S
C2354 C2349 1.390 . S
C2354 C2353 1.387 . S
H2355 C2367 0.930 . S
H2356 C2369 0.930 . S
H2357 C2370 0.930 . S
H2358 C2374 0.959 . S
H2359 C2374 0.959 . S
H2360 C2374 0.961 . S
H2361 C2375 0.960 . S
H2362 C2375 0.961 . S
H2363 C2375 0.959 . S
H2364 C2378 0.929 . S
H2365 C2379 0.931 . S
H2366 C2381 0.930 . S
C2367 H2355 0.930 . S
C2367 C2368 1.399 . S
C2367 C2372 1.399 . S
C2368 C2367 1.399 . S
C2368 C2369 1.376 . S
C2369 H2356 0.930 . S
C2369 C2368 1.376 . S
C2369 C2370 1.388 . S
C2370 H2357 0.930 . S
C2370 C2369 1.388 . S
C2370 C2371 1.390 . S
C2371 C2370 1.390 . S
C2371 C2372 1.394 . S
C2371 C2377 1.465 . S
C2372 C2367 1.399 . S
C2372 C2371 1.394 . S
C2372 C2373 1.516 . S
C2373 C2372 1.516 . S
C2373 C2374 1.502 . S
C2373 C2375 1.561 . S
C2373 C2376 1.526 . S
C2374 H2358 0.959 . S
C2374 H2359 0.959 . S
C2374 H2360 0.961 . S
C2374 C2373 1.502 . S
C2375 H2361 0.960 . S
C2375 H2362 0.961 . S
C2375 H2363 0.959 . S
C2375 C2373 1.561 . S
C2376 C2373 1.526 . S
C2376 C2377 1.396 . S
C2376 C2381 1.390 . S
C2377 C2371 1.465 . S
C2377 C2376 1.396 . S
C2377 C2378 1.399 . S
C2378 H2364 0.929 . S
C2378 C2377 1.399 . S
C2378 C2379 1.385 . S
C2379 H2365 0.931 . S
C2379 C2378 1.385 . S
C2379 C2380 1.389 . S
C2380 C2379 1.389 . S
C2380 C2381 1.387 . S
C2381 H2366 0.930 . S
C2381 C2376 1.390 . S
C2381 C2380 1.387 . S
H2382 C2394 0.930 . S
H2383 C2396 0.930 . S
H2384 C2397 0.930 . S
H2385 C2401 0.959 . S
H2386 C2401 0.959 . S
H2387 C2401 0.961 . S
H2388 C2402 0.960 . S
H2389 C2402 0.961 . S
H2390 C2402 0.959 . S
H2391 C2405 0.929 . S
H2392 C2406 0.931 . S
H2393 C2408 0.930 . S
C2394 H2382 0.930 . S
C2394 C2395 1.399 . S
C2394 C2399 1.399 . S
C2395 C2394 1.399 . S
C2395 C2396 1.376 . S
C2396 H2383 0.930 . S
C2396 C2395 1.376 . S
C2396 C2397 1.388 . S
C2397 H2384 0.930 . S
C2397 C2396 1.388 . S
C2397 C2398 1.390 . S
C2398 C2397 1.390 . S
C2398 C2399 1.394 . S
C2398 C2404 1.465 . S
C2399 C2394 1.399 . S
C2399 C2398 1.394 . S
C2399 C2400 1.516 . S
C2400 C2399 1.516 . S
C2400 C2401 1.502 . S
C2400 C2402 1.561 . S
C2400 C2403 1.526 . S
C2401 H2385 0.959 . S
C2401 H2386 0.959 . S
C2401 H2387 0.961 . S
C2401 C2400 1.502 . S
C2402 H2388 0.960 . S
C2402 H2389 0.961 . S
C2402 H2390 0.959 . S
C2402 C2400 1.561 . S
C2403 C2400 1.526 . S
C2403 C2404 1.396 . S
C2403 C2408 1.390 . S
C2404 C2398 1.465 . S
C2404 C2403 1.396 . S
C2404 C2405 1.399 . S
C2405 H2391 0.929 . S
C2405 C2404 1.399 . S
C2405 C2406 1.385 . S
C2406 H2392 0.931 . S
C2406 C2405 1.385 . S
C2406 C2407 1.389 . S
C2407 C2406 1.389 . S
C2407 C2408 1.387 . S
C2408 H2393 0.930 . S
C2408 C2403 1.390 . S
C2408 C2407 1.387 . S
H2409 C2421 0.930 . S
H2410 C2423 0.930 . S
H2411 C2424 0.930 . S
H2412 C2428 0.959 . S
H2413 C2428 0.959 . S
H2414 C2428 0.961 . S
H2415 C2429 0.960 . S
H2416 C2429 0.961 . S
H2417 C2429 0.959 . S
H2418 C2432 0.929 . S
H2419 C2433 0.931 . S
H2420 C2435 0.930 . S
C2421 H2409 0.930 . S
C2421 C2422 1.399 . S
C2421 C2426 1.399 . S
C2422 C2421 1.399 . S
C2422 C2423 1.376 . S
C2423 H2410 0.930 . S
C2423 C2422 1.376 . S
C2423 C2424 1.388 . S
C2424 H2411 0.930 . S
C2424 C2423 1.388 . S
C2424 C2425 1.390 . S
C2425 C2424 1.390 . S
C2425 C2426 1.394 . S
C2425 C2431 1.465 . S
C2426 C2421 1.399 . S
C2426 C2425 1.394 . S
C2426 C2427 1.516 . S
C2427 C2426 1.516 . S
C2427 C2428 1.502 . S
C2427 C2429 1.561 . S
C2427 C2430 1.526 . S
C2428 H2412 0.959 . S
C2428 H2413 0.959 . S
C2428 H2414 0.961 . S
C2428 C2427 1.502 . S
C2429 H2415 0.960 . S
C2429 H2416 0.961 . S
C2429 H2417 0.959 . S
C2429 C2427 1.561 . S
C2430 C2427 1.526 . S
C2430 C2431 1.396 . S
C2430 C2435 1.390 . S
C2431 C2425 1.465 . S
C2431 C2430 1.396 . S
C2431 C2432 1.399 . S
C2432 H2418 0.929 . S
C2432 C2431 1.399 . S
C2432 C2433 1.385 . S
C2433 H2419 0.931 . S
C2433 C2432 1.385 . S
C2433 C2434 1.389 . S
C2434 C2433 1.389 . S
C2434 C2435 1.387 . S
C2435 H2420 0.930 . S
C2435 C2430 1.390 . S
C2435 C2434 1.387 . S
H2436 C2448 0.930 . S
H2437 C2450 0.930 . S
H2438 C2451 0.930 . S
H2439 C2455 0.959 . S
H2440 C2455 0.959 . S
H2441 C2455 0.961 . S
H2442 C2456 0.960 . S
H2443 C2456 0.961 . S
H2444 C2456 0.959 1_655 S
H2445 C2459 0.929 . S
H2446 C2460 0.931 . S
H2447 C2462 0.930 . S
C2448 H2436 0.930 . S
C2448 C2449 1.399 . S
C2448 C2453 1.399 . S
C2449 C2448 1.399 . S
C2449 C2450 1.376 . S
C2450 H2437 0.930 . S
C2450 C2449 1.376 . S
C2450 C2451 1.388 . S
C2451 H2438 0.930 . S
C2451 C2450 1.388 . S
C2451 C2452 1.390 . S
C2452 C2451 1.390 . S
C2452 C2453 1.394 . S
C2452 C2458 1.465 . S
C2453 C2448 1.399 . S
C2453 C2452 1.394 . S
C2453 C2454 1.516 . S
C2454 C2453 1.516 . S
C2454 C2455 1.502 . S
C2454 C2456 1.561 . S
C2454 C2457 1.526 . S
C2455 H2439 0.959 . S
C2455 H2440 0.959 . S
C2455 H2441 0.961 . S
C2455 C2454 1.502 . S
C2456 H2442 0.960 . S
C2456 H2443 0.961 . S
C2456 H2444 0.959 1_455 S
C2456 C2454 1.561 . S
C2457 C2454 1.526 . S
C2457 C2458 1.396 . S
C2457 C2462 1.390 . S
C2458 C2452 1.465 . S
C2458 C2457 1.396 . S
C2458 C2459 1.399 . S
C2459 H2445 0.929 . S
C2459 C2458 1.399 . S
C2459 C2460 1.385 . S
C2460 H2446 0.931 . S
C2460 C2459 1.385 . S
C2460 C2461 1.389 . S
C2461 C2460 1.389 . S
C2461 C2462 1.387 . S
C2462 H2447 0.930 . S
C2462 C2457 1.390 . S
C2462 C2461 1.387 . S
H2463 C2475 0.930 . S
H2464 C2477 0.930 . S
H2465 C2478 0.930 . S
H2466 C2482 0.959 . S
H2467 C2482 0.959 . S
H2468 C2482 0.961 . S
H2469 C2483 0.960 . S
H2470 C2483 0.961 . S
H2471 C2483 0.959 . S
H2472 C2486 0.929 . S
H2473 C2487 0.931 . S
H2474 C2489 0.930 . S
C2475 H2463 0.930 . S
C2475 C2476 1.399 . S
C2475 C2480 1.399 . S
C2476 C2475 1.399 . S
C2476 C2477 1.376 . S
C2477 H2464 0.930 . S
C2477 C2476 1.376 . S
C2477 C2478 1.388 . S
C2478 H2465 0.930 . S
C2478 C2477 1.388 . S
C2478 C2479 1.390 . S
C2479 C2478 1.390 . S
C2479 C2480 1.394 . S
C2479 C2485 1.465 . S
C2480 C2475 1.399 . S
C2480 C2479 1.394 . S
C2480 C2481 1.516 . S
C2481 C2480 1.516 . S
C2481 C2482 1.502 . S
C2481 C2483 1.561 . S
C2481 C2484 1.526 . S
C2482 H2466 0.959 . S
C2482 H2467 0.959 . S
C2482 H2468 0.961 . S
C2482 C2481 1.502 . S
C2483 H2469 0.960 . S
C2483 H2470 0.961 . S
C2483 H2471 0.959 . S
C2483 C2481 1.561 . S
C2484 C2481 1.526 . S
C2484 C2485 1.396 . S
C2484 C2489 1.390 . S
C2485 C2479 1.465 . S
C2485 C2484 1.396 . S
C2485 C2486 1.399 . S
C2486 H2472 0.929 . S
C2486 C2485 1.399 . S
C2486 C2487 1.385 . S
C2487 H2473 0.931 . S
C2487 C2486 1.385 . S
C2487 C2488 1.389 . S
C2488 C2487 1.389 . S
C2488 C2489 1.387 . S
C2489 H2474 0.930 . S
C2489 C2484 1.390 . S
C2489 C2488 1.387 . S
H2490 C2502 0.930 . S
H2491 C2504 0.930 . S
H2492 C2505 0.930 . S
H2493 C2509 0.959 . S
H2494 C2509 0.959 . S
H2495 C2509 0.961 . S
H2496 C2510 0.960 . S
H2497 C2510 0.961 . S
H2498 C2510 0.959 . S
H2499 C2513 0.929 . S
H2500 C2514 0.931 1_554 S
H2501 C2516 0.930 . S
C2502 H2490 0.930 . S
C2502 C2503 1.399 . S
C2502 C2507 1.399 . S
C2503 C2502 1.399 . S
C2503 C2504 1.376 . S
C2504 H2491 0.930 . S
C2504 C2503 1.376 . S
C2504 C2505 1.388 . S
C2505 H2492 0.930 . S
C2505 C2504 1.388 . S
C2505 C2506 1.390 . S
C2506 C2505 1.390 . S
C2506 C2507 1.394 . S
C2506 C2512 1.465 . S
C2507 C2502 1.399 . S
C2507 C2506 1.394 . S
C2507 C2508 1.516 . S
C2508 C2507 1.516 . S
C2508 C2509 1.502 . S
C2508 C2510 1.561 . S
C2508 C2511 1.526 . S
C2509 H2493 0.959 . S
C2509 H2494 0.959 . S
C2509 H2495 0.961 . S
C2509 C2508 1.502 . S
C2510 H2496 0.960 . S
C2510 H2497 0.961 . S
C2510 H2498 0.959 . S
C2510 C2508 1.561 . S
C2511 C2508 1.526 . S
C2511 C2512 1.396 . S
C2511 C2516 1.390 . S
C2512 C2506 1.465 . S
C2512 C2511 1.396 . S
C2512 C2513 1.399 . S
C2513 H2499 0.929 . S
C2513 C2512 1.399 . S
C2513 C2514 1.385 . S
C2514 H2500 0.931 1_556 S
C2514 C2513 1.385 . S
C2514 C2515 1.389 . S
C2515 C2514 1.389 . S
C2515 C2516 1.387 . S
C2516 H2501 0.930 . S
C2516 C2511 1.390 . S
C2516 C2515 1.387 . S
H2517 C2529 0.930 . S
H2518 C2531 0.930 . S
H2519 C2532 0.930 . S
H2520 C2536 0.959 . S
H2521 C2536 0.959 . S
H2522 C2536 0.961 . S
H2523 C2537 0.960 . S
H2524 C2537 0.961 . S
H2525 C2537 0.959 . S
H2526 C2540 0.929 . S
H2527 C2541 0.931 . S
H2528 C2543 0.930 . S
C2529 H2517 0.930 . S
C2529 C2530 1.399 . S
C2529 C2534 1.399 . S
C2530 C2529 1.399 . S
C2530 C2531 1.376 . S
C2531 H2518 0.930 . S
C2531 C2530 1.376 . S
C2531 C2532 1.388 . S
C2532 H2519 0.930 . S
C2532 C2531 1.388 . S
C2532 C2533 1.390 . S
C2533 C2532 1.390 . S
C2533 C2534 1.394 . S
C2533 C2539 1.465 . S
C2534 C2529 1.399 . S
C2534 C2533 1.394 . S
C2534 C2535 1.516 . S
C2535 C2534 1.516 . S
C2535 C2536 1.502 . S
C2535 C2537 1.561 . S
C2535 C2538 1.526 . S
C2536 H2520 0.959 . S
C2536 H2521 0.959 . S
C2536 H2522 0.961 . S
C2536 C2535 1.502 . S
C2537 H2523 0.960 . S
C2537 H2524 0.961 . S
C2537 H2525 0.959 . S
C2537 C2535 1.561 . S
C2538 C2535 1.526 . S
C2538 C2539 1.396 . S
C2538 C2543 1.390 . S
C2539 C2533 1.465 . S
C2539 C2538 1.396 . S
C2539 C2540 1.399 . S
C2540 H2526 0.929 . S
C2540 C2539 1.399 . S
C2540 C2541 1.385 . S
C2541 H2527 0.931 . S
C2541 C2540 1.385 . S
C2541 C2542 1.389 . S
C2542 C2541 1.389 . S
C2542 C2543 1.387 . S
C2543 H2528 0.930 . S
C2543 C2538 1.390 . S
C2543 C2542 1.387 . S
H2544 C2556 0.930 . S
H2545 C2558 0.930 . S
H2546 C2559 0.930 . S
H2547 C2563 0.959 1_545 S
H2548 C2563 0.959 . S
H2549 C2563 0.961 . S
H2550 C2564 0.960 . S
H2551 C2564 0.961 . S
H2552 C2564 0.959 . S
H2553 C2567 0.929 . S
H2554 C2568 0.931 . S
H2555 C2570 0.908 1_565 S
C2556 H2544 0.930 . S
C2556 C2557 1.399 . S
C2556 C2561 1.399 . S
C2557 C2556 1.399 . S
C2557 C2558 1.376 . S
C2558 H2545 0.930 . S
C2558 C2557 1.376 . S
C2558 C2559 1.388 . S
C2559 H2546 0.930 . S
C2559 C2558 1.388 . S
C2559 C2560 1.390 . S
C2560 C2559 1.390 . S
C2560 C2561 1.394 . S
C2560 C2566 1.465 . S
C2561 C2556 1.399 . S
C2561 C2560 1.394 . S
C2561 C2562 1.516 . S
C2562 C2561 1.516 . S
C2562 C2563 1.502 1_545 S
C2562 C2564 1.561 1_545 S
C2562 C2565 1.526 . S
C2563 H2547 0.959 1_565 S
C2563 H2548 0.959 . S
C2563 H2549 0.961 . S
C2563 C2562 1.502 1_565 S
C2564 H2550 0.960 . S
C2564 H2551 0.961 . S
C2564 H2552 0.959 . S
C2564 C2562 1.561 1_565 S
C2565 C2562 1.526 . S
C2565 C2566 1.396 . S
C2565 C2570 1.390 . S
C2566 C2560 1.465 . S
C2566 C2565 1.396 . S
C2566 C2567 1.399 . S
C2567 H2553 0.929 . S
C2567 C2566 1.399 . S
C2567 C2568 1.385 . S
C2568 H2554 0.931 . S
C2568 C2567 1.385 . S
C2568 C2569 1.389 . S
C2569 C2568 1.389 . S
C2569 C2570 1.387 . S
C2570 H2555 0.908 1_545 S
C2570 C2565 1.390 . S
C2570 C2569 1.387 . S
H2571 C2583 0.930 . S
H2572 C2585 0.930 . S
H2573 C2586 0.930 . S
H2574 C2590 0.959 . S
H2575 C2590 0.959 . S
H2576 C2590 0.961 . S
H2577 C2591 0.960 . S
H2578 C2591 0.961 . S
H2579 C2591 0.959 . S
H2580 C2594 0.929 . S
H2581 C2595 0.931 . S
H2582 C2597 0.930 . S
C2583 H2571 0.930 . S
C2583 C2584 1.399 . S
C2583 C2588 1.399 . S
C2584 C2583 1.399 . S
C2584 C2585 1.376 . S
C2585 H2572 0.930 . S
C2585 C2584 1.376 . S
C2585 C2586 1.388 . S
C2586 H2573 0.930 . S
C2586 C2585 1.388 . S
C2586 C2587 1.390 . S
C2587 C2586 1.390 . S
C2587 C2588 1.394 . S
C2587 C2593 1.465 . S
C2588 C2583 1.399 . S
C2588 C2587 1.394 . S
C2588 C2589 1.516 . S
C2589 C2588 1.516 . S
C2589 C2590 1.502 . S
C2589 C2591 1.561 . S
C2589 C2592 1.526 . S
C2590 H2574 0.959 . S
C2590 H2575 0.959 . S
C2590 H2576 0.961 . S
C2590 C2589 1.502 . S
C2591 H2577 0.960 . S
C2591 H2578 0.961 . S
C2591 H2579 0.959 . S
C2591 C2589 1.561 . S
C2592 C2589 1.526 . S
C2592 C2593 1.396 . S
C2592 C2597 1.390 . S
C2593 C2587 1.465 . S
C2593 C2592 1.396 . S
C2593 C2594 1.399 . S
C2594 H2580 0.929 . S
C2594 C2593 1.399 . S
C2594 C2595 1.385 . S
C2595 H2581 0.931 . S
C2595 C2594 1.385 . S
C2595 C2596 1.389 . S
C2596 C2595 1.389 . S
C2596 C2597 1.387 . S
C2597 H2582 0.930 . S
C2597 C2592 1.390 . S
C2597 C2596 1.387 . S
H2598 C2610 0.930 . S
H2599 C2612 0.930 . S
H2600 C2613 0.930 . S
H2601 C2617 0.959 1_545 S
H2602 C2617 0.959 . S
H2603 C2617 0.961 . S
H2604 C2618 0.960 . S
H2605 C2618 0.961 . S
H2606 C2618 0.959 . S
H2607 C2621 0.929 . S
H2608 C2622 0.931 . S
H2609 C2624 0.930 1_565 S
C2610 H2598 0.930 . S
C2610 C2611 1.399 1_565 S
C2610 C2615 1.399 1_565 S
C2611 C2610 1.399 1_545 S
C2611 C2612 1.376 . S
C2612 H2599 0.930 . S
C2612 C2611 1.376 . S
C2612 C2613 1.388 . S
C2613 H2600 0.930 . S
C2613 C2612 1.388 . S
C2613 C2614 1.390 . S
C2614 C2613 1.390 . S
C2614 C2615 1.394 . S
C2614 C2620 1.465 . S
C2615 C2610 1.399 1_545 S
C2615 C2614 1.394 . S
C2615 C2616 1.516 1_545 S
C2616 C2615 1.516 1_565 S
C2616 C2617 1.502 . S
C2616 C2618 1.561 . S
C2616 C2619 1.526 1_565 S
C2617 H2601 0.959 1_565 S
C2617 H2602 0.959 . S
C2617 H2603 0.961 . S
C2617 C2616 1.502 . S
C2618 H2604 0.960 . S
C2618 H2605 0.961 . S
C2618 H2606 0.959 . S
C2618 C2616 1.561 . S
C2619 C2616 1.526 1_545 S
C2619 C2620 1.396 . S
C2619 C2624 1.390 . S
C2620 C2614 1.465 . S
C2620 C2619 1.396 . S
C2620 C2621 1.399 . S
C2621 H2607 0.929 . S
C2621 C2620 1.399 . S
C2621 C2622 1.385 . S
C2622 H2608 0.931 . S
C2622 C2621 1.385 . S
C2622 C2623 1.389 . S
C2623 C2622 1.389 . S
C2623 C2624 1.387 . S
C2624 H2609 0.930 1_545 S
C2624 C2619 1.390 . S
C2624 C2623 1.387 . S
H2625 C2637 0.930 . S
H2626 C2639 0.930 . S
H2627 C2640 0.930 . S
H2628 C2644 0.959 . S
H2629 C2644 0.959 . S
H2630 C2644 0.961 . S
H2631 C2645 0.960 . S
H2632 C2645 0.961 . S
H2633 C2645 0.959 . S
H2634 C2648 0.929 . S
H2635 C2649 0.931 . S
H2636 C2651 0.930 . S
C2637 H2625 0.930 . S
C2637 C2638 1.399 . S
C2637 C2642 1.399 . S
C2638 C2637 1.399 . S
C2638 C2639 1.376 . S
C2639 H2626 0.930 . S
C2639 C2638 1.376 . S
C2639 C2640 1.388 . S
C2640 H2627 0.930 . S
C2640 C2639 1.388 . S
C2640 C2641 1.390 . S
C2641 C2640 1.390 . S
C2641 C2642 1.394 . S
C2641 C2647 1.465 . S
C2642 C2637 1.399 . S
C2642 C2641 1.394 . S
C2642 C2643 1.516 . S
C2643 C2642 1.516 . S
C2643 C2644 1.502 . S
C2643 C2645 1.561 . S
C2643 C2646 1.526 . S
C2644 H2628 0.959 . S
C2644 H2629 0.959 . S
C2644 H2630 0.961 . S
C2644 C2643 1.502 . S
C2645 H2631 0.960 . S
C2645 H2632 0.961 . S
C2645 H2633 0.959 . S
C2645 C2643 1.561 . S
C2646 C2643 1.526 . S
C2646 C2647 1.396 . S
C2646 C2651 1.390 . S
C2647 C2641 1.465 . S
C2647 C2646 1.396 . S
C2647 C2648 1.399 . S
C2648 H2634 0.929 . S
C2648 C2647 1.399 . S
C2648 C2649 1.385 . S
C2649 H2635 0.931 . S
C2649 C2648 1.385 . S
C2649 C2650 1.389 . S
C2650 C2649 1.389 . S
C2650 C2651 1.387 . S
C2651 H2636 0.930 . S
C2651 C2646 1.390 . S
C2651 C2650 1.387 . S
H2652 C2664 0.930 . S
H2653 C2666 0.930 . S
H2654 C2667 0.930 . S
H2655 C2671 0.959 . S
H2656 C2671 0.959 . S
H2657 C2671 0.961 . S
H2658 C2672 0.960 . S
H2659 C2672 0.961 . S
H2660 C2672 0.959 . S
H2661 C2675 0.929 . S
H2662 C2676 0.931 . S
H2663 C2678 0.930 . S
C2664 H2652 0.930 . S
C2664 C2665 1.399 . S
C2664 C2669 1.399 . S
C2665 C2664 1.399 . S
C2665 C2666 1.376 . S
C2666 H2653 0.930 . S
C2666 C2665 1.376 . S
C2666 C2667 1.388 . S
C2667 H2654 0.930 . S
C2667 C2666 1.388 . S
C2667 C2668 1.390 . S
C2668 C2667 1.390 . S
C2668 C2669 1.394 . S
C2668 C2674 1.465 . S
C2669 C2664 1.399 . S
C2669 C2668 1.394 . S
C2669 C2670 1.516 . S
C2670 C2669 1.516 . S
C2670 C2671 1.502 . S
C2670 C2672 1.561 . S
C2670 C2673 1.526 . S
C2671 H2655 0.959 . S
C2671 H2656 0.959 . S
C2671 H2657 0.961 . S
C2671 C2670 1.502 . S
C2672 H2658 0.960 . S
C2672 H2659 0.961 . S
C2672 H2660 0.959 . S
C2672 C2670 1.561 . S
C2673 C2670 1.526 . S
C2673 C2674 1.396 . S
C2673 C2678 1.390 . S
C2674 C2668 1.465 . S
C2674 C2673 1.396 . S
C2674 C2675 1.399 . S
C2675 H2661 0.929 . S
C2675 C2674 1.399 . S
C2675 C2676 1.385 . S
C2676 H2662 0.931 . S
C2676 C2675 1.385 . S
C2676 C2677 1.389 . S
C2677 C2676 1.389 . S
C2677 C2678 1.387 . S
C2678 H2663 0.930 . S
C2678 C2673 1.390 . S
C2678 C2677 1.387 . S
H2679 C2691 0.930 . S
H2680 C2693 0.930 . S
H2681 C2694 0.930 . S
H2682 C2698 0.959 . S
H2683 C2698 0.959 . S
H2684 C2698 0.961 . S
H2685 C2699 0.960 . S
H2686 C2699 0.961 . S
H2687 C2699 0.959 . S
H2688 C2702 0.929 . S
H2689 C2703 0.931 . S
H2690 C2705 0.930 . S
C2691 H2679 0.930 . S
C2691 C2692 1.399 . S
C2691 C2696 1.399 . S
C2692 C2691 1.399 . S
C2692 C2693 1.376 . S
C2693 H2680 0.930 . S
C2693 C2692 1.376 . S
C2693 C2694 1.388 . S
C2694 H2681 0.930 . S
C2694 C2693 1.388 . S
C2694 C2695 1.390 . S
C2695 C2694 1.390 . S
C2695 C2696 1.394 . S
C2695 C2701 1.465 . S
C2696 C2691 1.399 . S
C2696 C2695 1.394 . S
C2696 C2697 1.516 . S
C2697 C2696 1.516 . S
C2697 C2698 1.502 . S
C2697 C2699 1.561 . S
C2697 C2700 1.526 . S
C2698 H2682 0.959 . S
C2698 H2683 0.959 . S
C2698 H2684 0.961 . S
C2698 C2697 1.502 . S
C2699 H2685 0.960 . S
C2699 H2686 0.961 . S
C2699 H2687 0.959 . S
C2699 C2697 1.561 . S
C2700 C2697 1.526 . S
C2700 C2701 1.396 . S
C2700 C2705 1.390 . S
C2701 C2695 1.465 . S
C2701 C2700 1.396 . S
C2701 C2702 1.399 . S
C2702 H2688 0.929 . S
C2702 C2701 1.399 . S
C2702 C2703 1.385 . S
C2703 H2689 0.931 . S
C2703 C2702 1.385 . S
C2703 C2704 1.389 . S
C2704 C2703 1.389 . S
C2704 C2705 1.387 . S
C2705 H2690 0.930 . S
C2705 C2700 1.390 . S
C2705 C2704 1.387 . S
H2706 C2718 0.930 . S
H2707 C2720 0.930 . S
H2708 C2721 0.930 . S
H2709 C2725 0.959 . S
H2710 C2725 0.959 . S
H2711 C2725 0.961 . S
H2712 C2726 0.960 . S
H2713 C2726 0.961 . S
H2714 C2726 0.959 . S
H2715 C2729 0.929 . S
H2716 C2730 0.931 . S
H2717 C2732 0.930 . S
C2718 H2706 0.930 . S
C2718 C2719 1.399 . S
C2718 C2723 1.399 . S
C2719 C2718 1.399 . S
C2719 C2720 1.376 1_545 S
C2720 H2707 0.930 . S
C2720 C2719 1.376 1_565 S
C2720 C2721 1.388 . S
C2721 H2708 0.930 . S
C2721 C2720 1.388 . S
C2721 C2722 1.396 . S
C2722 C2721 1.396 . S
C2722 C2723 1.387 1_565 S
C2722 C2728 1.465 1_565 S
C2723 C2718 1.399 . S
C2723 C2722 1.387 1_545 S
C2723 C2724 1.516 . S
C2724 C2723 1.516 . S
C2724 C2725 1.502 . S
C2724 C2726 1.561 . S
C2724 C2727 1.526 . S
C2725 H2709 0.959 . S
C2725 H2710 0.959 . S
C2725 H2711 0.961 . S
C2725 C2724 1.502 . S
C2726 H2712 0.960 . S
C2726 H2713 0.961 . S
C2726 H2714 0.959 . S
C2726 C2724 1.561 . S
C2727 C2724 1.526 . S
C2727 C2728 1.396 . S
C2727 C2732 1.390 . S
C2728 C2722 1.465 1_545 S
C2728 C2727 1.396 . S
C2728 C2729 1.399 1_545 S
C2729 H2715 0.929 . S
C2729 C2728 1.399 1_565 S
C2729 C2730 1.385 . S
C2730 H2716 0.931 . S
C2730 C2729 1.385 . S
C2730 C2731 1.389 1_565 S
C2731 C2730 1.389 1_545 S
C2731 C2732 1.387 . S
C2732 H2717 0.930 . S
C2732 C2727 1.390 . S
C2732 C2731 1.387 . S
H2733 C2745 0.930 . S
H2734 C2747 0.930 . S
H2735 C2748 0.930 . S
H2736 C2752 0.959 . S
H2737 C2752 0.959 . S
H2738 C2752 0.961 . S
H2739 C2753 0.960 . S
H2740 C2753 0.961 . S
H2741 C2753 0.959 . S
H2742 C2756 0.929 . S
H2743 C2757 0.931 . S
H2744 C2759 0.930 . S
C2745 H2733 0.930 . S
C2745 C2746 1.399 . S
C2745 C2750 1.399 . S
C2746 C2745 1.399 . S
C2746 C2747 1.376 . S
C2747 H2734 0.930 . S
C2747 C2746 1.376 . S
C2747 C2748 1.388 . S
C2748 H2735 0.930 . S
C2748 C2747 1.388 . S
C2748 C2749 1.390 . S
C2749 C2748 1.390 . S
C2749 C2750 1.394 . S
C2749 C2755 1.465 . S
C2750 C2745 1.399 . S
C2750 C2749 1.394 . S
C2750 C2751 1.516 . S
C2751 C2750 1.516 . S
C2751 C2752 1.502 . S
C2751 C2753 1.561 . S
C2751 C2754 1.526 . S
C2752 H2736 0.959 . S
C2752 H2737 0.959 . S
C2752 H2738 0.961 . S
C2752 C2751 1.502 . S
C2753 H2739 0.960 . S
C2753 H2740 0.961 . S
C2753 H2741 0.959 . S
C2753 C2751 1.561 . S
C2754 C2751 1.526 . S
C2754 C2755 1.396 . S
C2754 C2759 1.390 . S
C2755 C2749 1.465 . S
C2755 C2754 1.396 . S
C2755 C2756 1.399 . S
C2756 H2742 0.929 . S
C2756 C2755 1.399 . S
C2756 C2757 1.385 . S
C2757 H2743 0.931 . S
C2757 C2756 1.385 . S
C2757 C2758 1.389 . S
C2758 C2757 1.389 . S
C2758 C2759 1.387 . S
C2759 H2744 0.930 . S
C2759 C2754 1.390 . S
C2759 C2758 1.387 . S
H2760 C2772 0.930 . S
H2761 C2774 0.930 . S
H2762 C2775 0.930 . S
H2763 C2779 0.959 . S
H2764 C2779 0.959 . S
H2765 C2779 0.961 . S
H2766 C2780 0.960 . S
H2767 C2780 0.961 . S
H2768 C2780 0.959 . S
H2769 C2783 0.929 1_556 S
H2770 C2784 0.931 1_556 S
H2771 C2786 0.930 . S
C2772 H2760 0.930 . S
C2772 C2773 1.399 . S
C2772 C2777 1.399 . S
C2773 C2772 1.399 . S
C2773 C2774 1.376 . S
C2774 H2761 0.930 . S
C2774 C2773 1.376 . S
C2774 C2775 1.388 . S
C2775 H2762 0.930 . S
C2775 C2774 1.388 . S
C2775 C2776 1.390 . S
C2776 C2775 1.390 . S
C2776 C2777 1.394 . S
C2776 C2782 1.465 . S
C2777 C2772 1.399 . S
C2777 C2776 1.394 . S
C2777 C2778 1.516 . S
C2778 C2777 1.516 . S
C2778 C2779 1.502 . S
C2778 C2780 1.561 . S
C2778 C2781 1.526 . S
C2779 H2763 0.959 . S
C2779 H2764 0.959 . S
C2779 H2765 0.961 . S
C2779 C2778 1.502 . S
C2780 H2766 0.960 . S
C2780 H2767 0.961 . S
C2780 H2768 0.959 . S
C2780 C2778 1.561 . S
C2781 C2778 1.526 . S
C2781 C2782 1.396 . S
C2781 C2786 1.390 . S
C2782 C2776 1.465 . S
C2782 C2781 1.396 . S
C2782 C2783 1.399 . S
C2783 H2769 0.929 1_554 S
C2783 C2782 1.399 . S
C2783 C2784 1.385 . S
C2784 H2770 0.931 1_554 S
C2784 C2783 1.385 . S
C2784 C2785 1.389 . S
C2785 C2784 1.389 . S
C2785 C2786 1.387 . S
C2786 H2771 0.930 . S
C2786 C2781 1.390 . S
C2786 C2785 1.387 . S
H2787 C2799 0.930 . S
H2788 C2801 0.930 . S
H2789 C2802 0.930 . S
H2790 C2806 0.959 . S
H2791 C2806 0.959 . S
H2792 C2806 0.961 . S
H2793 C2807 0.960 . S
H2794 C2807 0.961 . S
H2795 C2807 0.959 . S
H2796 C2810 0.929 . S
H2797 C2811 0.931 . S
H2798 C2813 0.930 . S
C2799 H2787 0.930 . S
C2799 C2800 1.399 . S
C2799 C2804 1.399 . S
C2800 C2799 1.399 . S
C2800 C2801 1.376 . S
C2801 H2788 0.930 . S
C2801 C2800 1.376 . S
C2801 C2802 1.388 . S
C2802 H2789 0.930 . S
C2802 C2801 1.388 . S
C2802 C2803 1.390 . S
C2803 C2802 1.390 . S
C2803 C2804 1.394 . S
C2803 C2809 1.465 . S
C2804 C2799 1.399 . S
C2804 C2803 1.394 . S
C2804 C2805 1.516 . S
C2805 C2804 1.516 . S
C2805 C2806 1.502 . S
C2805 C2807 1.561 1_554 S
C2805 C2808 1.526 . S
C2806 H2790 0.959 . S
C2806 H2791 0.959 . S
C2806 H2792 0.961 . S
C2806 C2805 1.502 . S
C2807 H2793 0.960 . S
C2807 H2794 0.961 . S
C2807 H2795 0.959 . S
C2807 C2805 1.561 1_556 S
C2808 C2805 1.526 . S
C2808 C2809 1.396 . S
C2808 C2813 1.390 . S
C2809 C2803 1.465 . S
C2809 C2808 1.396 . S
C2809 C2810 1.399 . S
C2810 H2796 0.929 . S
C2810 C2809 1.399 . S
C2810 C2811 1.385 . S
C2811 H2797 0.931 . S
C2811 C2810 1.385 . S
C2811 C2812 1.389 . S
C2812 C2811 1.389 . S
C2812 C2813 1.387 . S
C2813 H2798 0.930 . S
C2813 C2808 1.390 . S
C2813 C2812 1.387 . S
H2814 C2826 0.930 . S
H2815 C2828 0.930 . S
H2816 C2829 0.930 . S
H2817 C2833 0.959 . S
H2818 C2833 0.959 . S
H2819 C2833 0.961 . S
H2820 C2834 0.960 . S
H2821 C2834 0.961 . S
H2822 C2834 0.959 . S
H2823 C2837 0.929 . S
H2824 C2838 0.931 . S
H2825 C2840 0.930 . S
C2826 H2814 0.930 . S
C2826 C2827 1.399 . S
C2826 C2831 1.399 . S
C2827 C2826 1.399 . S
C2827 C2828 1.376 . S
C2828 H2815 0.930 . S
C2828 C2827 1.376 . S
C2828 C2829 1.388 . S
C2829 H2816 0.930 . S
C2829 C2828 1.388 . S
C2829 C2830 1.390 . S
C2830 C2829 1.390 . S
C2830 C2831 1.394 . S
C2830 C2836 1.465 . S
C2831 C2826 1.399 . S
C2831 C2830 1.394 . S
C2831 C2832 1.516 . S
C2832 C2831 1.516 . S
C2832 C2833 1.502 . S
C2832 C2834 1.561 . S
C2832 C2835 1.526 . S
C2833 H2817 0.959 . S
C2833 H2818 0.959 . S
C2833 H2819 0.961 . S
C2833 C2832 1.502 . S
C2834 H2820 0.960 . S
C2834 H2821 0.961 . S
C2834 H2822 0.959 . S
C2834 C2832 1.561 . S
C2835 C2832 1.526 . S
C2835 C2836 1.396 . S
C2835 C2840 1.390 . S
C2836 C2830 1.465 . S
C2836 C2835 1.396 . S
C2836 C2837 1.399 . S
C2837 H2823 0.929 . S
C2837 C2836 1.399 . S
C2837 C2838 1.385 . S
C2838 H2824 0.931 . S
C2838 C2837 1.385 . S
C2838 C2839 1.389 . S
C2839 C2838 1.389 . S
C2839 C2840 1.387 . S
C2840 H2825 0.930 . S
C2840 C2835 1.390 . S
C2840 C2839 1.387 . S
H2841 C2853 0.930 . S
H2842 C2855 0.930 . S
H2843 C2856 0.930 . S
H2844 C2860 0.959 . S
H2845 C2860 0.959 . S
H2846 C2860 0.961 . S
H2847 C2861 0.960 . S
H2848 C2861 0.961 . S
H2849 C2861 0.959 . S
H2850 C2864 0.929 . S
H2851 C2865 0.931 . S
H2852 C2867 0.930 . S
C2853 H2841 0.930 . S
C2853 C2854 1.399 . S
C2853 C2858 1.399 . S
C2854 C2853 1.399 . S
C2854 C2855 1.376 . S
C2855 H2842 0.930 . S
C2855 C2854 1.376 . S
C2855 C2856 1.388 . S
C2856 H2843 0.930 . S
C2856 C2855 1.388 . S
C2856 C2857 1.390 . S
C2857 C2856 1.390 . S
C2857 C2858 1.394 . S
C2857 C2863 1.465 . S
C2858 C2853 1.399 . S
C2858 C2857 1.394 . S
C2858 C2859 1.516 . S
C2859 C2858 1.516 . S
C2859 C2860 1.502 . S
C2859 C2861 1.561 . S
C2859 C2862 1.526 . S
C2860 H2844 0.959 . S
C2860 H2845 0.959 . S
C2860 H2846 0.961 . S
C2860 C2859 1.502 . S
C2861 H2847 0.960 . S
C2861 H2848 0.961 . S
C2861 H2849 0.959 . S
C2861 C2859 1.561 . S
C2862 C2859 1.526 . S
C2862 C2863 1.396 . S
C2862 C2867 1.390 . S
C2863 C2857 1.465 . S
C2863 C2862 1.396 . S
C2863 C2864 1.399 . S
C2864 H2850 0.929 . S
C2864 C2863 1.399 . S
C2864 C2865 1.385 . S
C2865 H2851 0.931 . S
C2865 C2864 1.385 . S
C2865 C2866 1.389 . S
C2866 C2865 1.389 . S
C2866 C2867 1.387 . S
C2867 H2852 0.930 . S
C2867 C2862 1.390 . S
C2867 C2866 1.387 . S
H2868 C2880 0.912 1_545 S
H2869 C2882 0.930 . S
H2870 C2883 0.930 . S
H2871 C2887 0.959 . S
H2872 C2887 0.959 . S
H2873 C2887 0.961 1_545 S
H2874 C2888 0.960 . S
H2875 C2888 0.961 . S
H2876 C2888 0.959 . S
H2877 C2891 0.929 . S
H2878 C2892 0.931 . S
H2879 C2894 0.930 . S
C2880 H2868 0.912 1_565 S
C2880 C2881 1.389 1_565 S
C2880 C2885 1.428 . S
C2881 C2880 1.389 1_545 S
C2881 C2882 1.376 1_545 S
C2882 H2869 0.930 . S
C2882 C2881 1.376 1_565 S
C2882 C2883 1.388 . S
C2883 H2870 0.930 . S
C2883 C2882 1.388 . S
C2883 C2884 1.390 . S
C2884 C2883 1.390 . S
C2884 C2885 1.394 . S
C2884 C2890 1.465 . S
C2885 C2880 1.428 . S
C2885 C2884 1.394 . S
C2885 C2886 1.516 . S
C2886 C2885 1.516 . S
C2886 C2887 1.502 . S
C2886 C2888 1.561 . S
C2886 C2889 1.526 . S
C2887 H2871 0.959 . S
C2887 H2872 0.959 . S
C2887 H2873 0.961 1_565 S
C2887 C2886 1.502 . S
C2888 H2874 0.960 . S
C2888 H2875 0.961 . S
C2888 H2876 0.959 . S
C2888 C2886 1.561 . S
C2889 C2886 1.526 . S
C2889 C2890 1.396 . S
C2889 C2894 1.390 . S
C2890 C2884 1.465 . S
C2890 C2889 1.396 . S
C2890 C2891 1.399 . S
C2891 H2877 0.929 . S
C2891 C2890 1.399 . S
C2891 C2892 1.385 . S
C2892 H2878 0.931 . S
C2892 C2891 1.385 . S
C2892 C2893 1.389 . S
C2893 C2892 1.389 . S
C2893 C2894 1.387 . S
C2894 H2879 0.930 . S
C2894 C2889 1.390 . S
C2894 C2893 1.387 . S
H2895 C2907 0.930 . S
H2896 C2909 0.930 . S
H2897 C2910 0.930 . S
H2898 C2914 0.959 . S
H2899 C2914 0.959 . S
H2900 C2914 0.961 . S
H2901 C2915 0.960 . S
H2902 C2915 0.961 . S
H2903 C2915 0.959 . S
H2904 C2918 0.929 . S
H2905 C2919 0.931 . S
H2906 C2921 0.930 . S
C2907 H2895 0.930 . S
C2907 C2908 1.399 . S
C2907 C2912 1.399 . S
C2908 C2907 1.399 . S
C2908 C2909 1.376 . S
C2909 H2896 0.930 . S
C2909 C2908 1.376 . S
C2909 C2910 1.388 . S
C2910 H2897 0.930 . S
C2910 C2909 1.388 . S
C2910 C2911 1.390 . S
C2911 C2910 1.390 . S
C2911 C2912 1.394 . S
C2911 C2917 1.465 . S
C2912 C2907 1.399 . S
C2912 C2911 1.394 . S
C2912 C2913 1.516 . S
C2913 C2912 1.516 . S
C2913 C2914 1.502 . S
C2913 C2915 1.561 . S
C2913 C2916 1.526 . S
C2914 H2898 0.959 . S
C2914 H2899 0.959 . S
C2914 H2900 0.961 . S
C2914 C2913 1.502 . S
C2915 H2901 0.960 . S
C2915 H2902 0.961 . S
C2915 H2903 0.959 . S
C2915 C2913 1.561 . S
C2916 C2913 1.526 . S
C2916 C2917 1.396 . S
C2916 C2921 1.390 . S
C2917 C2911 1.465 . S
C2917 C2916 1.396 . S
C2917 C2918 1.399 . S
C2918 H2904 0.929 . S
C2918 C2917 1.399 . S
C2918 C2919 1.385 . S
C2919 H2905 0.931 . S
C2919 C2918 1.385 . S
C2919 C2920 1.389 . S
C2920 C2919 1.389 . S
C2920 C2921 1.387 . S
C2921 H2906 0.930 . S
C2921 C2916 1.390 . S
C2921 C2920 1.387 . S
H2922 C2934 0.930 . S
H2923 C2936 0.930 . S
H2924 C2937 0.930 . S
H2925 C2941 0.959 . S
H2926 C2941 0.959 . S
H2927 C2941 0.961 . S
H2928 C2942 0.960 . S
H2929 C2942 0.961 . S
H2930 C2942 0.959 . S
H2931 C2945 0.929 . S
H2932 C2946 0.931 . S
H2933 C2948 0.930 . S
C2934 H2922 0.930 . S
C2934 C2935 1.399 . S
C2934 C2939 1.399 . S
C2935 C2934 1.399 . S
C2935 C2936 1.376 . S
C2936 H2923 0.930 . S
C2936 C2935 1.376 . S
C2936 C2937 1.388 . S
C2937 H2924 0.930 . S
C2937 C2936 1.388 . S
C2937 C2938 1.390 . S
C2938 C2937 1.390 . S
C2938 C2939 1.394 . S
C2938 C2944 1.465 . S
C2939 C2934 1.399 . S
C2939 C2938 1.394 . S
C2939 C2940 1.516 . S
C2940 C2939 1.516 . S
C2940 C2941 1.502 . S
C2940 C2942 1.561 . S
C2940 C2943 1.526 . S
C2941 H2925 0.959 . S
C2941 H2926 0.959 . S
C2941 H2927 0.961 . S
C2941 C2940 1.502 . S
C2942 H2928 0.960 . S
C2942 H2929 0.961 . S
C2942 H2930 0.959 . S
C2942 C2940 1.561 . S
C2943 C2940 1.526 . S
C2943 C2944 1.396 . S
C2943 C2948 1.390 . S
C2944 C2938 1.465 . S
C2944 C2943 1.396 . S
C2944 C2945 1.399 . S
C2945 H2931 0.929 . S
C2945 C2944 1.399 . S
C2945 C2946 1.385 . S
C2946 H2932 0.931 . S
C2946 C2945 1.385 . S
C2946 C2947 1.389 . S
C2947 C2946 1.389 . S
C2947 C2948 1.387 . S
C2948 H2933 0.930 . S
C2948 C2943 1.390 . S
C2948 C2947 1.387 . S
H2949 C2961 0.930 . S
H2950 C2963 0.930 . S
H2951 C2964 0.930 . S
H2952 C2968 0.959 . S
H2953 C2968 0.959 . S
H2954 C2968 0.961 . S
H2955 C2969 0.960 . S
H2956 C2969 0.961 . S
H2957 C2969 0.959 . S
H2958 C2972 0.929 . S
H2959 C2973 0.931 . S
H2960 C2975 0.930 . S
C2961 H2949 0.930 . S
C2961 C2962 1.399 . S
C2961 C2966 1.399 . S
C2962 C2961 1.399 . S
C2962 C2963 1.376 . S
C2963 H2950 0.930 . S
C2963 C2962 1.376 . S
C2963 C2964 1.388 . S
C2964 H2951 0.930 . S
C2964 C2963 1.388 . S
C2964 C2965 1.390 . S
C2965 C2964 1.390 . S
C2965 C2966 1.394 . S
C2965 C2971 1.465 . S
C2966 C2961 1.399 . S
C2966 C2965 1.394 . S
C2966 C2967 1.516 . S
C2967 C2966 1.516 . S
C2967 C2968 1.502 . S
C2967 C2969 1.561 . S
C2967 C2970 1.526 . S
C2968 H2952 0.959 . S
C2968 H2953 0.959 . S
C2968 H2954 0.961 . S
C2968 C2967 1.502 . S
C2969 H2955 0.960 . S
C2969 H2956 0.961 . S
C2969 H2957 0.959 . S
C2969 C2967 1.561 . S
C2970 C2967 1.526 . S
C2970 C2971 1.396 . S
C2970 C2975 1.390 . S
C2971 C2965 1.465 . S
C2971 C2970 1.396 . S
C2971 C2972 1.399 . S
C2972 H2958 0.929 . S
C2972 C2971 1.399 . S
C2972 C2973 1.385 . S
C2973 H2959 0.931 . S
C2973 C2972 1.385 . S
C2973 C2974 1.389 . S
C2974 C2973 1.389 . S
C2974 C2975 1.387 . S
C2975 H2960 0.930 . S
C2975 C2970 1.390 . S
C2975 C2974 1.387 . S
H2976 C2988 0.930 . S
H2977 C2990 0.930 . S
H2978 C2991 0.930 . S
H2979 C2995 0.959 . S
H2980 C2995 0.959 . S
H2981 C2995 0.961 . S
H2982 C2996 0.960 . S
H2983 C2996 0.961 . S
H2984 C2996 0.959 . S
H2985 C2999 0.929 . S
H2986 C3000 0.931 . S
H2987 C3002 0.930 . S
C2988 H2976 0.930 . S
C2988 C2989 1.399 . S
C2988 C2993 1.399 . S
C2989 C2988 1.399 . S
C2989 C2990 1.376 . S
C2990 H2977 0.930 . S
C2990 C2989 1.376 . S
C2990 C2991 1.388 . S
C2991 H2978 0.930 . S
C2991 C2990 1.388 . S
C2991 C2992 1.390 . S
C2992 C2991 1.390 . S
C2992 C2993 1.394 . S
C2992 C2998 1.465 . S
C2993 C2988 1.399 . S
C2993 C2992 1.394 . S
C2993 C2994 1.516 . S
C2994 C2993 1.516 . S
C2994 C2995 1.502 . S
C2994 C2996 1.561 . S
C2994 C2997 1.526 . S
C2995 H2979 0.959 . S
C2995 H2980 0.959 . S
C2995 H2981 0.961 . S
C2995 C2994 1.502 . S
C2996 H2982 0.960 . S
C2996 H2983 0.961 . S
C2996 H2984 0.959 . S
C2996 C2994 1.561 . S
C2997 C2994 1.526 . S
C2997 C2998 1.396 . S
C2997 C3002 1.390 . S
C2998 C2992 1.465 . S
C2998 C2997 1.396 . S
C2998 C2999 1.399 . S
C2999 H2985 0.929 . S
C2999 C2998 1.399 . S
C2999 C3000 1.385 . S
C3000 H2986 0.931 . S
C3000 C2999 1.385 . S
C3000 C3001 1.389 . S
C3001 C3000 1.389 . S
C3001 C3002 1.387 . S
C3002 H2987 0.930 . S
C3002 C2997 1.390 . S
C3002 C3001 1.387 . S
H3003 C3015 0.930 . S
H3004 C3017 0.930 . S
H3005 C3018 0.930 . S
H3006 C3022 0.959 . S
H3007 C3022 0.959 . S
H3008 C3022 0.961 . S
H3009 C3023 0.960 . S
H3010 C3023 0.961 . S
H3011 C3023 0.959 . S
H3012 C3026 0.929 . S
H3013 C3027 0.931 . S
H3014 C3029 0.930 . S
C3015 H3003 0.930 . S
C3015 C3016 1.399 . S
C3015 C3020 1.399 . S
C3016 C3015 1.399 . S
C3016 C3017 1.376 . S
C3017 H3004 0.930 . S
C3017 C3016 1.376 . S
C3017 C3018 1.388 . S
C3018 H3005 0.930 . S
C3018 C3017 1.388 . S
C3018 C3019 1.390 . S
C3019 C3018 1.390 . S
C3019 C3020 1.394 . S
C3019 C3025 1.465 . S
C3020 C3015 1.399 . S
C3020 C3019 1.394 . S
C3020 C3021 1.516 . S
C3021 C3020 1.516 . S
C3021 C3022 1.502 . S
C3021 C3023 1.561 . S
C3021 C3024 1.526 . S
C3022 H3006 0.959 . S
C3022 H3007 0.959 . S
C3022 H3008 0.961 . S
C3022 C3021 1.502 . S
C3023 H3009 0.960 . S
C3023 H3010 0.961 . S
C3023 H3011 0.959 . S
C3023 C3021 1.561 . S
C3024 C3021 1.526 . S
C3024 C3025 1.396 . S
C3024 C3029 1.390 . S
C3025 C3019 1.465 . S
C3025 C3024 1.396 . S
C3025 C3026 1.399 . S
C3026 H3012 0.929 . S
C3026 C3025 1.399 . S
C3026 C3027 1.385 . S
C3027 H3013 0.931 . S
C3027 C3026 1.385 . S
C3027 C3028 1.389 . S
C3028 C3027 1.389 . S
C3028 C3029 1.387 . S
C3029 H3014 0.930 . S
C3029 C3024 1.390 . S
C3029 C3028 1.387 . S
H3030 C3042 0.930 1_655 S
H3031 C3044 0.930 . S
H3032 C3045 0.930 . S
H3033 C3049 0.959 . S
H3034 C3049 0.959 . S
H3035 C3049 0.961 . S
H3036 C3050 0.960 . S
H3037 C3050 0.961 . S
H3038 C3050 0.959 . S
H3039 C3053 0.929 . S
H3040 C3054 0.931 . S
H3041 C3056 0.930 . S
C3042 H3030 0.930 1_455 S
C3042 C3043 1.399 1_554 S
C3042 C3047 1.399 . S
C3043 C3042 1.399 1_556 S
C3043 C3044 1.376 . S
C3044 H3031 0.930 . S
C3044 C3043 1.376 . S
C3044 C3045 1.388 . S
C3045 H3032 0.930 . S
C3045 C3044 1.388 . S
C3045 C3046 1.390 . S
C3046 C3045 1.390 . S
C3046 C3047 1.394 1_556 S
C3046 C3052 1.465 . S
C3047 C3042 1.399 . S
C3047 C3046 1.394 1_554 S
C3047 C3048 1.516 . S
C3048 C3047 1.516 . S
C3048 C3049 1.502 1_455 S
C3048 C3050 1.561 . S
C3048 C3051 1.526 . S
C3049 H3033 0.959 . S
C3049 H3034 0.959 . S
C3049 H3035 0.961 . S
C3049 C3048 1.502 1_655 S
C3050 H3036 0.960 . S
C3050 H3037 0.961 . S
C3050 H3038 0.959 . S
C3050 C3048 1.561 . S
C3051 C3048 1.526 . S
C3051 C3052 1.396 1_554 S
C3051 C3056 1.390 . S
C3052 C3046 1.465 . S
C3052 C3051 1.396 1_556 S
C3052 C3053 1.399 . S
C3053 H3039 0.929 . S
C3053 C3052 1.399 . S
C3053 C3054 1.385 . S
C3054 H3040 0.931 . S
C3054 C3053 1.385 . S
C3054 C3055 1.389 1_556 S
C3055 C3054 1.389 1_554 S
C3055 C3056 1.387 . S
C3056 H3041 0.930 . S
C3056 C3051 1.390 . S
C3056 C3055 1.387 . S
H3057 C3069 0.930 . S
H3058 C3071 0.930 . S
H3059 C3072 0.930 . S
H3060 C3076 0.959 . S
H3061 C3076 0.959 . S
H3062 C3076 0.961 . S
H3063 C3077 0.960 . S
H3064 C3077 0.961 . S
H3065 C3077 0.959 . S
H3066 C3080 0.929 . S
H3067 C3081 0.931 . S
H3068 C3083 0.930 . S
C3069 H3057 0.930 . S
C3069 C3070 1.399 1_655 S
C3069 C3074 1.399 . S
C3070 C3069 1.399 1_455 S
C3070 C3071 1.376 . S
C3071 H3058 0.930 . S
C3071 C3070 1.376 . S
C3071 C3072 1.388 1_455 S
C3072 H3059 0.930 . S
C3072 C3071 1.388 1_655 S
C3072 C3073 1.390 . S
C3073 C3072 1.390 . S
C3073 C3074 1.394 . S
C3073 C3079 1.465 . S
C3074 C3069 1.399 . S
C3074 C3073 1.394 . S
C3074 C3075 1.516 . S
C3075 C3074 1.516 . S
C3075 C3076 1.502 . S
C3075 C3077 1.561 . S
C3075 C3078 1.526 . S
C3076 H3060 0.959 . S
C3076 H3061 0.959 . S
C3076 H3062 0.961 . S
C3076 C3075 1.502 . S
C3077 H3063 0.960 . S
C3077 H3064 0.961 . S
C3077 H3065 0.959 . S
C3077 C3075 1.561 . S
C3078 C3075 1.526 . S
C3078 C3079 1.396 . S
C3078 C3083 1.390 . S
C3079 C3073 1.465 . S
C3079 C3078 1.396 . S
C3079 C3080 1.399 . S
C3080 H3066 0.929 . S
C3080 C3079 1.399 . S
C3080 C3081 1.385 . S
C3081 H3067 0.931 . S
C3081 C3080 1.385 . S
C3081 C3082 1.389 . S
C3082 C3081 1.389 . S
C3082 C3083 1.387 . S
C3083 H3068 0.930 . S
C3083 C3078 1.390 . S
C3083 C3082 1.387 . S
H3084 C3096 0.930 . S
H3085 C3098 0.930 . S
H3086 C3099 0.930 . S
H3087 C3103 0.959 . S
H3088 C3103 0.959 . S
H3089 C3103 0.961 . S
H3090 C3104 0.960 . S
H3091 C3104 0.961 . S
H3092 C3104 0.959 . S
H3093 C3107 0.929 . S
H3094 C3108 0.931 . S
H3095 C3110 0.930 . S
C3096 H3084 0.930 . S
C3096 C3097 1.399 . S
C3096 C3101 1.399 . S
C3097 C3096 1.399 . S
C3097 C3098 1.376 . S
C3098 H3085 0.930 . S
C3098 C3097 1.376 . S
C3098 C3099 1.388 . S
C3099 H3086 0.930 . S
C3099 C3098 1.388 . S
C3099 C3100 1.390 . S
C3100 C3099 1.390 . S
C3100 C3101 1.394 . S
C3100 C3106 1.465 . S
C3101 C3096 1.399 . S
C3101 C3100 1.394 . S
C3101 C3102 1.516 . S
C3102 C3101 1.516 . S
C3102 C3103 1.502 . S
C3102 C3104 1.561 . S
C3102 C3105 1.526 . S
C3103 H3087 0.959 . S
C3103 H3088 0.959 . S
C3103 H3089 0.961 . S
C3103 C3102 1.502 . S
C3104 H3090 0.960 . S
C3104 H3091 0.961 . S
C3104 H3092 0.959 . S
C3104 C3102 1.561 . S
C3105 C3102 1.526 . S
C3105 C3106 1.396 . S
C3105 C3110 1.390 . S
C3106 C3100 1.465 . S
C3106 C3105 1.396 . S
C3106 C3107 1.399 . S
C3107 H3093 0.929 . S
C3107 C3106 1.399 . S
C3107 C3108 1.385 . S
C3108 H3094 0.931 . S
C3108 C3107 1.385 . S
C3108 C3109 1.389 . S
C3109 C3108 1.389 . S
C3109 C3110 1.387 . S
C3110 H3095 0.930 . S
C3110 C3105 1.390 . S
C3110 C3109 1.387 . S
H3111 C3123 0.930 . S
H3112 C3125 0.930 . S
H3113 C3126 0.930 . S
H3114 C3130 0.959 . S
H3115 C3130 0.959 . S
H3116 C3130 0.961 . S
H3117 C3131 0.960 . S
H3118 C3131 0.961 . S
H3119 C3131 0.959 . S
H3120 C3134 0.929 . S
H3121 C3135 0.931 . S
H3122 C3137 0.930 . S
C3123 H3111 0.930 . S
C3123 C3124 1.399 . S
C3123 C3128 1.399 . S
C3124 C3123 1.399 . S
C3124 C3125 1.376 . S
C3125 H3112 0.930 . S
C3125 C3124 1.376 . S
C3125 C3126 1.388 . S
C3126 H3113 0.930 . S
C3126 C3125 1.388 . S
C3126 C3127 1.390 . S
C3127 C3126 1.390 . S
C3127 C3128 1.394 . S
C3127 C3133 1.465 . S
C3128 C3123 1.399 . S
C3128 C3127 1.394 . S
C3128 C3129 1.516 . S
C3129 C3128 1.516 . S
C3129 C3130 1.502 . S
C3129 C3131 1.561 . S
C3129 C3132 1.526 . S
C3130 H3114 0.959 . S
C3130 H3115 0.959 . S
C3130 H3116 0.961 . S
C3130 C3129 1.502 . S
C3131 H3117 0.960 . S
C3131 H3118 0.961 . S
C3131 H3119 0.959 . S
C3131 C3129 1.561 . S
C3132 C3129 1.526 . S
C3132 C3133 1.396 . S
C3132 C3137 1.390 . S
C3133 C3127 1.465 . S
C3133 C3132 1.396 . S
C3133 C3134 1.399 . S
C3134 H3120 0.929 . S
C3134 C3133 1.399 . S
C3134 C3135 1.385 . S
C3135 H3121 0.931 . S
C3135 C3134 1.385 . S
C3135 C3136 1.389 . S
C3136 C3135 1.389 . S
C3136 C3137 1.387 . S
C3137 H3122 0.930 . S
C3137 C3132 1.390 . S
C3137 C3136 1.387 . S
H3138 C3150 0.930 1_655 S
H3139 C3152 0.930 . S
H3140 C3153 0.930 . S
H3141 C3157 0.959 . S
H3142 C3157 0.959 . S
H3143 C3157 0.961 . S
H3144 C3158 0.960 . S
H3145 C3158 0.961 . S
H3146 C3158 0.959 . S
H3147 C3161 0.929 . S
H3148 C3162 0.931 . S
H3149 C3164 0.930 . S
C3150 H3138 0.930 1_455 S
C3150 C3151 1.399 . S
C3150 C3155 1.399 . S
C3151 C3150 1.399 . S
C3151 C3152 1.376 . S
C3152 H3139 0.930 . S
C3152 C3151 1.376 . S
C3152 C3153 1.388 . S
C3153 H3140 0.930 . S
C3153 C3152 1.388 . S
C3153 C3154 1.390 . S
C3154 C3153 1.390 . S
C3154 C3155 1.394 . S
C3154 C3160 1.465 . S
C3155 C3150 1.399 . S
C3155 C3154 1.394 . S
C3155 C3156 1.516 . S
C3156 C3155 1.516 . S
C3156 C3157 1.502 1_455 S
C3156 C3158 1.561 . S
C3156 C3159 1.526 . S
C3157 H3141 0.959 . S
C3157 H3142 0.959 . S
C3157 H3143 0.961 . S
C3157 C3156 1.502 1_655 S
C3158 H3144 0.960 . S
C3158 H3145 0.961 . S
C3158 H3146 0.959 . S
C3158 C3156 1.561 . S
C3159 C3156 1.526 . S
C3159 C3160 1.396 . S
C3159 C3164 1.390 . S
C3160 C3154 1.465 . S
C3160 C3159 1.396 . S
C3160 C3161 1.399 . S
C3161 H3147 0.929 . S
C3161 C3160 1.399 . S
C3161 C3162 1.385 . S
C3162 H3148 0.931 . S
C3162 C3161 1.385 . S
C3162 C3163 1.389 . S
C3163 C3162 1.389 . S
C3163 C3164 1.387 . S
C3164 H3149 0.930 . S
C3164 C3159 1.390 . S
C3164 C3163 1.387 . S
H3165 C3177 0.930 . S
H3166 C3179 0.930 . S
H3167 C3180 0.930 . S
H3168 C3184 0.959 . S
H3169 C3184 0.959 . S
H3170 C3184 0.961 . S
H3171 C3185 0.960 . S
H3172 C3185 0.961 . S
H3173 C3185 0.959 . S
H3174 C3188 0.929 . S
H3175 C3189 0.931 . S
H3176 C3191 0.930 . S
C3177 H3165 0.930 . S
C3177 C3178 1.399 . S
C3177 C3182 1.399 . S
C3178 C3177 1.399 . S
C3178 C3179 1.376 . S
C3179 H3166 0.930 . S
C3179 C3178 1.376 . S
C3179 C3180 1.388 . S
C3180 H3167 0.930 . S
C3180 C3179 1.388 . S
C3180 C3181 1.390 . S
C3181 C3180 1.390 . S
C3181 C3182 1.394 . S
C3181 C3187 1.465 . S
C3182 C3177 1.399 . S
C3182 C3181 1.394 . S
C3182 C3183 1.516 . S
C3183 C3182 1.516 . S
C3183 C3184 1.502 . S
C3183 C3185 1.561 . S
C3183 C3186 1.526 . S
C3184 H3168 0.959 . S
C3184 H3169 0.959 . S
C3184 H3170 0.961 . S
C3184 C3183 1.502 . S
C3185 H3171 0.960 . S
C3185 H3172 0.961 . S
C3185 H3173 0.959 . S
C3185 C3183 1.561 . S
C3186 C3183 1.526 . S
C3186 C3187 1.396 . S
C3186 C3191 1.390 . S
C3187 C3181 1.465 . S
C3187 C3186 1.396 . S
C3187 C3188 1.399 . S
C3188 H3174 0.929 . S
C3188 C3187 1.399 . S
C3188 C3189 1.385 . S
C3189 H3175 0.931 . S
C3189 C3188 1.385 . S
C3189 C3190 1.389 . S
C3190 C3189 1.389 . S
C3190 C3191 1.387 . S
C3191 H3176 0.930 . S
C3191 C3186 1.390 . S
C3191 C3190 1.387 . S
H3192 C3204 0.930 . S
H3193 C3206 0.930 . S
H3194 C3207 0.930 . S
H3195 C3211 0.959 . S
H3196 C3211 0.959 . S
H3197 C3211 0.961 . S
H3198 C3212 0.960 . S
H3199 C3212 0.961 . S
H3200 C3212 0.959 . S
H3201 C3215 0.929 . S
H3202 C3216 0.931 . S
H3203 C3218 0.930 . S
C3204 H3192 0.930 . S
C3204 C3205 1.399 . S
C3204 C3209 1.399 . S
C3205 C3204 1.399 . S
C3205 C3206 1.376 . S
C3206 H3193 0.930 . S
C3206 C3205 1.376 . S
C3206 C3207 1.388 . S
C3207 H3194 0.930 . S
C3207 C3206 1.388 . S
C3207 C3208 1.390 . S
C3208 C3207 1.390 . S
C3208 C3209 1.394 . S
C3208 C3214 1.465 . S
C3209 C3204 1.399 . S
C3209 C3208 1.394 . S
C3209 C3210 1.516 . S
C3210 C3209 1.516 . S
C3210 C3211 1.502 . S
C3210 C3212 1.561 . S
C3210 C3213 1.526 . S
C3211 H3195 0.959 . S
C3211 H3196 0.959 . S
C3211 H3197 0.961 . S
C3211 C3210 1.502 . S
C3212 H3198 0.960 . S
C3212 H3199 0.961 . S
C3212 H3200 0.959 . S
C3212 C3210 1.561 . S
C3213 C3210 1.526 . S
C3213 C3214 1.396 . S
C3213 C3218 1.390 . S
C3214 C3208 1.465 . S
C3214 C3213 1.396 . S
C3214 C3215 1.399 . S
C3215 H3201 0.929 . S
C3215 C3214 1.399 . S
C3215 C3216 1.385 . S
C3216 H3202 0.931 . S
C3216 C3215 1.385 . S
C3216 C3217 1.389 . S
C3217 C3216 1.389 . S
C3217 C3218 1.387 . S
C3218 H3203 0.930 . S
C3218 C3213 1.390 . S
C3218 C3217 1.387 . S
H3219 C3231 0.930 . S
H3220 C3233 0.930 . S
H3221 C3234 0.924 1_554 S
H3222 C3238 0.959 . S
H3223 C3238 0.959 . S
H3224 C3238 0.961 . S
H3225 C3239 0.960 . S
H3226 C3239 0.961 . S
H3227 C3239 0.959 . S
H3228 C3242 0.929 . S
H3229 C3243 0.931 . S
H3230 C3245 0.930 . S
C3231 H3219 0.930 . S
C3231 C3232 1.399 1_556 S
C3231 C3236 1.399 . S
C3232 C3231 1.399 1_554 S
C3232 C3233 1.376 . S
C3233 H3220 0.930 . S
C3233 C3232 1.376 . S
C3233 C3234 1.364 1_554 S
C3234 H3221 0.924 1_556 S
C3234 C3233 1.364 1_556 S
C3234 C3235 1.421 . S
C3235 C3234 1.421 . S
C3235 C3236 1.394 . S
C3235 C3241 1.465 . S
C3236 C3231 1.399 . S
C3236 C3235 1.394 . S
C3236 C3237 1.516 . S
C3237 C3236 1.516 . S
C3237 C3238 1.502 . S
C3237 C3239 1.561 . S
C3237 C3240 1.526 . S
C3238 H3222 0.959 . S
C3238 H3223 0.959 . S
C3238 H3224 0.961 . S
C3238 C3237 1.502 . S
C3239 H3225 0.960 . S
C3239 H3226 0.961 . S
C3239 H3227 0.959 . S
C3239 C3237 1.561 . S
C3240 C3237 1.526 . S
C3240 C3241 1.396 . S
C3240 C3245 1.390 . S
C3241 C3235 1.465 . S
C3241 C3240 1.396 . S
C3241 C3242 1.399 . S
C3242 H3228 0.929 . S
C3242 C3241 1.399 . S
C3242 C3243 1.385 . S
C3243 H3229 0.931 . S
C3243 C3242 1.385 . S
C3243 C3244 1.389 . S
C3244 C3243 1.389 . S
C3244 C3245 1.387 . S
C3245 H3230 0.930 . S
C3245 C3240 1.390 . S
C3245 C3244 1.387 . S
H3246 C3258 0.930 . S
H3247 C3260 0.930 . S
H3248 C3261 0.930 . S
H3249 C3265 0.959 . S
H3250 C3265 0.959 . S
H3251 C3265 0.961 . S
H3252 C3266 0.960 . S
H3253 C3266 0.961 . S
H3254 C3266 0.959 . S
H3255 C3269 0.929 . S
H3256 C3270 0.931 . S
H3257 C3272 0.930 . S
C3258 H3246 0.930 . S
C3258 C3259 1.399 . S
C3258 C3263 1.399 . S
C3259 C3258 1.399 . S
C3259 C3260 1.376 . S
C3260 H3247 0.930 . S
C3260 C3259 1.376 . S
C3260 C3261 1.388 . S
C3261 H3248 0.930 . S
C3261 C3260 1.388 . S
C3261 C3262 1.390 . S
C3262 C3261 1.390 . S
C3262 C3263 1.394 . S
C3262 C3268 1.465 . S
C3263 C3258 1.399 . S
C3263 C3262 1.394 . S
C3263 C3264 1.516 . S
C3264 C3263 1.516 . S
C3264 C3265 1.502 . S
C3264 C3266 1.561 . S
C3264 C3267 1.526 . S
C3265 H3249 0.959 . S
C3265 H3250 0.959 . S
C3265 H3251 0.961 . S
C3265 C3264 1.502 . S
C3266 H3252 0.960 . S
C3266 H3253 0.961 . S
C3266 H3254 0.959 . S
C3266 C3264 1.561 . S
C3267 C3264 1.526 . S
C3267 C3268 1.396 . S
C3267 C3272 1.390 . S
C3268 C3262 1.465 . S
C3268 C3267 1.396 . S
C3268 C3269 1.399 . S
C3269 H3255 0.929 . S
C3269 C3268 1.399 . S
C3269 C3270 1.385 . S
C3270 H3256 0.931 . S
C3270 C3269 1.385 . S
C3270 C3271 1.389 . S
C3271 C3270 1.389 . S
C3271 C3272 1.387 . S
C3272 H3257 0.930 . S
C3272 C3267 1.390 . S
C3272 C3271 1.387 . S
H3273 C3285 0.930 . S
H3274 C3287 0.930 . S
H3275 C3288 0.930 . S
H3276 C3292 0.959 . S
H3277 C3292 0.959 . S
H3278 C3292 0.961 . S
H3279 C3293 0.960 . S
H3280 C3293 0.961 . S
H3281 C3293 0.959 . S
H3282 C3296 0.929 . S
H3283 C3297 0.931 . S
H3284 C3299 0.930 . S
C3285 H3273 0.930 . S
C3285 C3286 1.399 . S
C3285 C3290 1.399 . S
C3286 C3285 1.399 . S
C3286 C3287 1.376 . S
C3287 H3274 0.930 . S
C3287 C3286 1.376 . S
C3287 C3288 1.388 . S
C3288 H3275 0.930 . S
C3288 C3287 1.388 . S
C3288 C3289 1.390 . S
C3289 C3288 1.390 . S
C3289 C3290 1.394 . S
C3289 C3295 1.465 . S
C3290 C3285 1.399 . S
C3290 C3289 1.394 . S
C3290 C3291 1.516 . S
C3291 C3290 1.516 . S
C3291 C3292 1.502 . S
C3291 C3293 1.561 . S
C3291 C3294 1.526 . S
C3292 H3276 0.959 . S
C3292 H3277 0.959 . S
C3292 H3278 0.961 . S
C3292 C3291 1.502 . S
C3293 H3279 0.960 . S
C3293 H3280 0.961 . S
C3293 H3281 0.959 . S
C3293 C3291 1.561 . S
C3294 C3291 1.526 . S
C3294 C3295 1.396 . S
C3294 C3299 1.390 . S
C3295 C3289 1.465 . S
C3295 C3294 1.396 . S
C3295 C3296 1.399 . S
C3296 H3282 0.929 . S
C3296 C3295 1.399 . S
C3296 C3297 1.385 . S
C3297 H3283 0.931 . S
C3297 C3296 1.385 . S
C3297 C3298 1.389 . S
C3298 C3297 1.389 . S
C3298 C3299 1.387 . S
C3299 H3284 0.930 . S
C3299 C3294 1.390 . S
C3299 C3298 1.387 . S
H3300 C3312 0.930 . S
H3301 C3314 0.930 . S
H3302 C3315 0.930 . S
H3303 C3319 0.959 . S
H3304 C3319 0.959 . S
H3305 C3319 0.961 . S
H3306 C3320 0.960 . S
H3307 C3320 0.961 . S
H3308 C3320 0.959 . S
H3309 C3323 0.929 . S
H3310 C3324 0.931 . S
H3311 C3326 0.930 . S
C3312 H3300 0.930 . S
C3312 C3313 1.399 . S
C3312 C3317 1.399 . S
C3313 C3312 1.399 . S
C3313 C3314 1.376 . S
C3314 H3301 0.930 . S
C3314 C3313 1.376 . S
C3314 C3315 1.388 . S
C3315 H3302 0.930 . S
C3315 C3314 1.388 . S
C3315 C3316 1.390 . S
C3316 C3315 1.390 . S
C3316 C3317 1.394 . S
C3316 C3322 1.465 . S
C3317 C3312 1.399 . S
C3317 C3316 1.394 . S
C3317 C3318 1.516 . S
C3318 C3317 1.516 . S
C3318 C3319 1.502 . S
C3318 C3320 1.561 . S
C3318 C3321 1.526 . S
C3319 H3303 0.959 . S
C3319 H3304 0.959 . S
C3319 H3305 0.961 . S
C3319 C3318 1.502 . S
C3320 H3306 0.960 . S
C3320 H3307 0.961 . S
C3320 H3308 0.959 . S
C3320 C3318 1.561 . S
C3321 C3318 1.526 . S
C3321 C3322 1.396 . S
C3321 C3326 1.390 . S
C3322 C3316 1.465 . S
C3322 C3321 1.396 . S
C3322 C3323 1.399 . S
C3323 H3309 0.929 . S
C3323 C3322 1.399 . S
C3323 C3324 1.385 . S
C3324 H3310 0.931 . S
C3324 C3323 1.385 . S
C3324 C3325 1.389 . S
C3325 C3324 1.389 . S
C3325 C3326 1.387 . S
C3326 H3311 0.930 . S
C3326 C3321 1.390 . S
C3326 C3325 1.387 . S
H3327 C3339 0.930 . S
H3328 C3341 0.930 . S
H3329 C3342 0.930 . S
H3330 C3346 0.959 . S
H3331 C3346 0.959 . S
H3332 C3346 0.961 . S
H3333 C3347 0.960 . S
H3334 C3347 0.961 . S
H3335 C3347 0.959 . S
H3336 C3350 0.929 . S
H3337 C3351 0.931 . S
H3338 C3353 0.930 . S
C3339 H3327 0.930 . S
C3339 C3340 1.399 . S
C3339 C3344 1.399 . S
C3340 C3339 1.399 . S
C3340 C3341 1.376 . S
C3341 H3328 0.930 . S
C3341 C3340 1.376 . S
C3341 C3342 1.388 . S
C3342 H3329 0.930 . S
C3342 C3341 1.388 . S
C3342 C3343 1.390 . S
C3343 C3342 1.390 . S
C3343 C3344 1.394 . S
C3343 C3349 1.465 . S
C3344 C3339 1.399 . S
C3344 C3343 1.394 . S
C3344 C3345 1.516 . S
C3345 C3344 1.516 . S
C3345 C3346 1.502 . S
C3345 C3347 1.561 . S
C3345 C3348 1.526 . S
C3346 H3330 0.959 . S
C3346 H3331 0.959 . S
C3346 H3332 0.961 . S
C3346 C3345 1.502 . S
C3347 H3333 0.960 . S
C3347 H3334 0.961 . S
C3347 H3335 0.959 . S
C3347 C3345 1.561 . S
C3348 C3345 1.526 . S
C3348 C3349 1.396 . S
C3348 C3353 1.390 . S
C3349 C3343 1.465 . S
C3349 C3348 1.396 . S
C3349 C3350 1.399 . S
C3350 H3336 0.929 . S
C3350 C3349 1.399 . S
C3350 C3351 1.385 . S
C3351 H3337 0.931 . S
C3351 C3350 1.385 . S
C3351 C3352 1.389 . S
C3352 C3351 1.389 . S
C3352 C3353 1.387 . S
C3353 H3338 0.930 . S
C3353 C3348 1.390 . S
C3353 C3352 1.387 . S
H3354 C3366 0.930 . S
H3355 C3368 0.930 . S
H3356 C3369 0.930 . S
H3357 C3373 0.959 . S
H3358 C3373 0.959 . S
H3359 C3373 0.961 . S
H3360 C3374 0.960 . S
H3361 C3374 0.961 . S
H3362 C3374 0.959 . S
H3363 C3377 0.929 . S
H3364 C3378 0.931 . S
H3365 C3380 0.930 . S
C3366 H3354 0.930 . S
C3366 C3367 1.399 . S
C3366 C3371 1.399 . S
C3367 C3366 1.399 . S
C3367 C3368 1.376 . S
C3368 H3355 0.930 . S
C3368 C3367 1.376 . S
C3368 C3369 1.388 . S
C3369 H3356 0.930 . S
C3369 C3368 1.388 . S
C3369 C3370 1.390 . S
C3370 C3369 1.390 . S
C3370 C3371 1.394 . S
C3370 C3376 1.465 . S
C3371 C3366 1.399 . S
C3371 C3370 1.394 . S
C3371 C3372 1.516 . S
C3372 C3371 1.516 . S
C3372 C3373 1.502 . S
C3372 C3374 1.561 . S
C3372 C3375 1.526 . S
C3373 H3357 0.959 . S
C3373 H3358 0.959 . S
C3373 H3359 0.961 . S
C3373 C3372 1.502 . S
C3374 H3360 0.960 . S
C3374 H3361 0.961 . S
C3374 H3362 0.959 . S
C3374 C3372 1.561 . S
C3375 C3372 1.526 . S
C3375 C3376 1.396 . S
C3375 C3380 1.390 . S
C3376 C3370 1.465 . S
C3376 C3375 1.396 . S
C3376 C3377 1.399 . S
C3377 H3363 0.929 . S
C3377 C3376 1.399 . S
C3377 C3378 1.385 . S
C3378 H3364 0.931 . S
C3378 C3377 1.385 . S
C3378 C3379 1.389 . S
C3379 C3378 1.389 . S
C3379 C3380 1.387 . S
C3380 H3365 0.930 . S
C3380 C3375 1.390 . S
C3380 C3379 1.387 . S
H3381 C3393 0.930 . S
H3382 C3395 0.930 . S
H3383 C3396 0.930 . S
H3384 C3400 0.959 . S
H3385 C3400 0.959 . S
H3386 C3400 0.961 . S
H3387 C3401 0.960 . S
H3388 C3401 0.961 . S
H3389 C3401 0.959 . S
H3390 C3404 0.929 . S
H3391 C3405 0.931 . S
H3392 C3407 0.930 . S
C3393 H3381 0.930 . S
C3393 C3394 1.399 . S
C3393 C3398 1.399 . S
C3394 C3393 1.399 . S
C3394 C3395 1.376 . S
C3395 H3382 0.930 . S
C3395 C3394 1.376 . S
C3395 C3396 1.388 . S
C3396 H3383 0.930 . S
C3396 C3395 1.388 . S
C3396 C3397 1.390 . S
C3397 C3396 1.390 . S
C3397 C3398 1.394 . S
C3397 C3403 1.465 . S
C3398 C3393 1.399 . S
C3398 C3397 1.394 . S
C3398 C3399 1.516 . S
C3399 C3398 1.516 . S
C3399 C3400 1.502 . S
C3399 C3401 1.561 . S
C3399 C3402 1.526 . S
C3400 H3384 0.959 . S
C3400 H3385 0.959 . S
C3400 H3386 0.961 . S
C3400 C3399 1.502 . S
C3401 H3387 0.960 . S
C3401 H3388 0.961 . S
C3401 H3389 0.959 . S
C3401 C3399 1.561 . S
C3402 C3399 1.526 . S
C3402 C3403 1.396 . S
C3402 C3407 1.390 . S
C3403 C3397 1.465 . S
C3403 C3402 1.396 . S
C3403 C3404 1.399 . S
C3404 H3390 0.929 . S
C3404 C3403 1.399 . S
C3404 C3405 1.385 . S
C3405 H3391 0.931 . S
C3405 C3404 1.385 . S
C3405 C3406 1.389 . S
C3406 C3405 1.389 . S
C3406 C3407 1.387 . S
C3407 H3392 0.930 . S
C3407 C3402 1.390 . S
C3407 C3406 1.387 . S
H3408 C3420 0.930 . S
H3409 C3422 0.930 . S
H3410 C3423 0.930 . S
H3411 C3427 0.959 . S
H3412 C3427 0.959 . S
H3413 C3427 0.961 . S
H3414 C3428 0.960 . S
H3415 C3428 0.961 . S
H3416 C3428 0.959 . S
H3417 C3431 0.929 . S
H3418 C3432 0.931 . S
H3419 C3434 0.930 . S
C3420 H3408 0.930 . S
C3420 C3421 1.399 . S
C3420 C3425 1.399 . S
C3421 C3420 1.399 . S
C3421 C3422 1.376 . S
C3422 H3409 0.930 . S
C3422 C3421 1.376 . S
C3422 C3423 1.388 . S
C3423 H3410 0.930 . S
C3423 C3422 1.388 . S
C3423 C3424 1.390 . S
C3424 C3423 1.390 . S
C3424 C3425 1.394 . S
C3424 C3430 1.465 . S
C3425 C3420 1.399 . S
C3425 C3424 1.394 . S
C3425 C3426 1.516 . S
C3426 C3425 1.516 . S
C3426 C3427 1.502 . S
C3426 C3428 1.561 . S
C3426 C3429 1.526 . S
C3427 H3411 0.959 . S
C3427 H3412 0.959 . S
C3427 H3413 0.961 . S
C3427 C3426 1.502 . S
C3428 H3414 0.960 . S
C3428 H3415 0.961 . S
C3428 H3416 0.959 . S
C3428 C3426 1.561 . S
C3429 C3426 1.526 . S
C3429 C3430 1.396 . S
C3429 C3434 1.390 . S
C3430 C3424 1.465 . S
C3430 C3429 1.396 . S
C3430 C3431 1.399 . S
C3431 H3417 0.929 . S
C3431 C3430 1.399 . S
C3431 C3432 1.385 . S
C3432 H3418 0.931 . S
C3432 C3431 1.385 . S
C3432 C3433 1.389 . S
C3433 C3432 1.389 . S
C3433 C3434 1.387 . S
C3434 H3419 0.930 . S
C3434 C3429 1.390 . S
C3434 C3433 1.387 . S
H3435 C3447 0.930 . S
H3436 C3449 0.930 . S
H3437 C3450 0.930 . S
H3438 C3454 0.959 . S
H3439 C3454 0.959 . S
H3440 C3454 0.961 . S
H3441 C3455 0.960 . S
H3442 C3455 0.961 . S
H3443 C3455 0.959 . S
H3444 C3458 0.929 . S
H3445 C3459 0.931 . S
H3446 C3461 0.930 . S
C3447 H3435 0.930 . S
C3447 C3448 1.399 . S
C3447 C3452 1.399 . S
C3448 C3447 1.399 . S
C3448 C3449 1.376 . S
C3449 H3436 0.930 . S
C3449 C3448 1.376 . S
C3449 C3450 1.388 . S
C3450 H3437 0.930 . S
C3450 C3449 1.388 . S
C3450 C3451 1.390 . S
C3451 C3450 1.390 . S
C3451 C3452 1.394 . S
C3451 C3457 1.465 . S
C3452 C3447 1.399 . S
C3452 C3451 1.394 . S
C3452 C3453 1.516 . S
C3453 C3452 1.516 . S
C3453 C3454 1.502 . S
C3453 C3455 1.561 . S
C3453 C3456 1.526 . S
C3454 H3438 0.959 . S
C3454 H3439 0.959 . S
C3454 H3440 0.961 . S
C3454 C3453 1.502 . S
C3455 H3441 0.960 . S
C3455 H3442 0.961 . S
C3455 H3443 0.959 . S
C3455 C3453 1.561 . S
C3456 C3453 1.526 . S
C3456 C3457 1.396 . S
C3456 C3461 1.390 . S
C3457 C3451 1.465 . S
C3457 C3456 1.396 . S
C3457 C3458 1.399 . S
C3458 H3444 0.929 . S
C3458 C3457 1.399 . S
C3458 C3459 1.385 . S
C3459 H3445 0.931 . S
C3459 C3458 1.385 . S
C3459 C3460 1.389 . S
C3460 C3459 1.389 . S
C3460 C3461 1.387 . S
C3461 H3446 0.930 . S
C3461 C3456 1.390 . S
C3461 C3460 1.387 . S
H3462 C3474 0.930 . S
H3463 C3476 0.930 . S
H3464 C3477 0.930 . S
H3465 C3481 0.959 . S
H3466 C3481 0.959 . S
H3467 C3481 0.961 . S
H3468 C3482 0.960 . S
H3469 C3482 0.961 . S
H3470 C3482 0.959 . S
H3471 C3485 0.929 . S
H3472 C3486 0.931 . S
H3473 C3488 0.930 . S
C3474 H3462 0.930 . S
C3474 C3475 1.399 . S
C3474 C3479 1.399 . S
C3475 C3474 1.399 . S
C3475 C3476 1.376 . S
C3476 H3463 0.930 . S
C3476 C3475 1.376 . S
C3476 C3477 1.388 . S
C3477 H3464 0.930 . S
C3477 C3476 1.388 . S
C3477 C3478 1.390 . S
C3478 C3477 1.390 . S
C3478 C3479 1.394 . S
C3478 C3484 1.465 . S
C3479 C3474 1.399 . S
C3479 C3478 1.394 . S
C3479 C3480 1.516 . S
C3480 C3479 1.516 . S
C3480 C3481 1.502 . S
C3480 C3482 1.561 . S
C3480 C3483 1.526 . S
C3481 H3465 0.959 . S
C3481 H3466 0.959 . S
C3481 H3467 0.961 . S
C3481 C3480 1.502 . S
C3482 H3468 0.960 . S
C3482 H3469 0.961 . S
C3482 H3470 0.959 . S
C3482 C3480 1.561 . S
C3483 C3480 1.526 . S
C3483 C3484 1.396 . S
C3483 C3488 1.390 . S
C3484 C3478 1.465 . S
C3484 C3483 1.396 . S
C3484 C3485 1.399 . S
C3485 H3471 0.929 . S
C3485 C3484 1.399 . S
C3485 C3486 1.385 . S
C3486 H3472 0.931 . S
C3486 C3485 1.385 . S
C3486 C3487 1.389 . S
C3487 C3486 1.389 . S
C3487 C3488 1.387 . S
C3488 H3473 0.930 . S
C3488 C3483 1.390 . S
C3488 C3487 1.387 . S
H3489 C3501 0.930 . S
H3490 C3503 0.930 . S
H3491 C3504 0.930 . S
H3492 C3508 0.959 . S
H3493 C3508 0.959 . S
H3494 C3508 0.961 . S
H3495 C3509 0.960 . S
H3496 C3509 0.961 . S
H3497 C3509 0.959 1_545 S
H3498 C3512 0.929 . S
H3499 C3513 0.931 . S
H3500 C3515 0.930 1_565 S
C3501 H3489 0.930 . S
C3501 C3502 1.399 1_556 S
C3501 C3506 1.399 . S
C3502 C3501 1.399 1_554 S
C3502 C3503 1.376 . S
C3503 H3490 0.930 . S
C3503 C3502 1.376 . S
C3503 C3504 1.388 . S
C3504 H3491 0.930 . S
C3504 C3503 1.388 . S
C3504 C3505 1.390 . S
C3505 C3504 1.390 . S
C3505 C3506 1.394 1_554 S
C3505 C3511 1.465 . S
C3506 C3501 1.399 . S
C3506 C3505 1.394 1_556 S
C3506 C3507 1.516 . S
C3507 C3506 1.516 . S
C3507 C3508 1.502 . S
C3507 C3509 1.561 . S
C3507 C3510 1.527 . S
C3508 H3492 0.959 . S
C3508 H3493 0.959 . S
C3508 H3494 0.961 . S
C3508 C3507 1.502 . S
C3509 H3495 0.960 . S
C3509 H3496 0.961 . S
C3509 H3497 0.959 1_565 S
C3509 C3507 1.561 . S
C3510 C3507 1.527 . S
C3510 C3511 1.395 1_556 S
C3510 C3515 1.390 1_565 S
C3511 C3505 1.465 . S
C3511 C3510 1.395 1_554 S
C3511 C3512 1.399 1_565 S
C3512 H3498 0.929 . S
C3512 C3511 1.399 1_545 S
C3512 C3513 1.385 . S
C3513 H3499 0.931 . S
C3513 C3512 1.385 . S
C3513 C3514 1.389 . S
C3514 C3513 1.389 . S
C3514 C3515 1.387 1_554 S
C3515 H3500 0.930 1_545 S
C3515 C3510 1.390 1_545 S
C3515 C3514 1.387 1_556 S
H3516 C3528 0.930 . S
H3517 C3530 0.930 . S
H3518 C3531 0.930 . S
H3519 C3535 0.959 . S
H3520 C3535 0.959 . S
H3521 C3535 0.961 . S
H3522 C3536 0.960 . S
H3523 C3536 0.961 . S
H3524 C3536 0.959 . S
H3525 C3539 0.929 . S
H3526 C3540 0.931 . S
H3527 C3542 0.930 . S
C3528 H3516 0.930 . S
C3528 C3529 1.399 . S
C3528 C3533 1.399 . S
C3529 C3528 1.399 . S
C3529 C3530 1.376 . S
C3530 H3517 0.930 . S
C3530 C3529 1.376 . S
C3530 C3531 1.388 . S
C3531 H3518 0.930 . S
C3531 C3530 1.388 . S
C3531 C3532 1.390 . S
C3532 C3531 1.390 . S
C3532 C3533 1.394 . S
C3532 C3538 1.465 . S
C3533 C3528 1.399 . S
C3533 C3532 1.394 . S
C3533 C3534 1.516 . S
C3534 C3533 1.516 . S
C3534 C3535 1.502 . S
C3534 C3536 1.561 . S
C3534 C3537 1.526 . S
C3535 H3519 0.959 . S
C3535 H3520 0.959 . S
C3535 H3521 0.961 . S
C3535 C3534 1.502 . S
C3536 H3522 0.960 . S
C3536 H3523 0.961 . S
C3536 H3524 0.959 . S
C3536 C3534 1.561 . S
C3537 C3534 1.526 . S
C3537 C3538 1.396 . S
C3537 C3542 1.390 . S
C3538 C3532 1.465 . S
C3538 C3537 1.396 . S
C3538 C3539 1.399 . S
C3539 H3525 0.929 . S
C3539 C3538 1.399 . S
C3539 C3540 1.385 . S
C3540 H3526 0.931 . S
C3540 C3539 1.385 . S
C3540 C3541 1.389 . S
C3541 C3540 1.389 . S
C3541 C3542 1.387 . S
C3542 H3527 0.930 . S
C3542 C3537 1.390 . S
C3542 C3541 1.387 . S
H3543 C3555 0.930 1_556 S
H3544 C3557 0.930 . S
H3545 C3558 0.930 . S
H3546 C3562 0.959 . S
H3547 C3562 0.959 . S
H3548 C3562 0.961 . S
H3549 C3563 0.960 . S
H3550 C3563 0.961 . S
H3551 C3563 0.959 . S
H3552 C3566 0.929 . S
H3553 C3567 0.931 . S
H3554 C3569 0.930 . S
C3555 H3543 0.930 1_554 S
C3555 C3556 1.399 . S
C3555 C3560 1.399 . S
C3556 C3555 1.399 . S
C3556 C3557 1.376 . S
C3557 H3544 0.930 . S
C3557 C3556 1.376 . S
C3557 C3558 1.388 . S
C3558 H3545 0.930 . S
C3558 C3557 1.388 . S
C3558 C3559 1.390 . S
C3559 C3558 1.390 . S
C3559 C3560 1.394 . S
C3559 C3565 1.465 . S
C3560 C3555 1.399 . S
C3560 C3559 1.394 . S
C3560 C3561 1.516 1_554 S
C3561 C3560 1.516 1_556 S
C3561 C3562 1.502 . S
C3561 C3563 1.561 . S
C3561 C3564 1.526 1_556 S
C3562 H3546 0.959 . S
C3562 H3547 0.959 . S
C3562 H3548 0.961 . S
C3562 C3561 1.502 . S
C3563 H3549 0.960 . S
C3563 H3550 0.961 . S
C3563 H3551 0.959 . S
C3563 C3561 1.561 . S
C3564 C3561 1.526 1_554 S
C3564 C3565 1.396 . S
C3564 C3569 1.390 . S
C3565 C3559 1.465 . S
C3565 C3564 1.396 . S
C3565 C3566 1.399 . S
C3566 H3552 0.929 . S
C3566 C3565 1.399 . S
C3566 C3567 1.385 . S
C3567 H3553 0.931 . S
C3567 C3566 1.385 . S
C3567 C3568 1.389 . S
C3568 C3567 1.389 . S
C3568 C3569 1.387 . S
C3569 H3554 0.930 . S
C3569 C3564 1.390 . S
C3569 C3568 1.387 . S
H3570 C3582 0.930 . S
H3571 C3584 0.930 . S
H3572 C3585 0.930 . S
H3573 C3589 0.959 . S
H3574 C3589 0.959 . S
H3575 C3589 0.961 . S
H3576 C3590 0.960 . S
H3577 C3590 0.961 . S
H3578 C3590 0.959 . S
H3579 C3593 0.929 . S
H3580 C3594 0.931 . S
H3581 C3596 0.930 . S
C3582 H3570 0.930 . S
C3582 C3583 1.399 . S
C3582 C3587 1.399 . S
C3583 C3582 1.399 . S
C3583 C3584 1.376 . S
C3584 H3571 0.930 . S
C3584 C3583 1.376 . S
C3584 C3585 1.388 . S
C3585 H3572 0.930 . S
C3585 C3584 1.388 . S
C3585 C3586 1.390 . S
C3586 C3585 1.390 . S
C3586 C3587 1.394 . S
C3586 C3592 1.465 . S
C3587 C3582 1.399 . S
C3587 C3586 1.394 . S
C3587 C3588 1.516 . S
C3588 C3587 1.516 . S
C3588 C3589 1.502 . S
C3588 C3590 1.561 . S
C3588 C3591 1.526 . S
C3589 H3573 0.959 . S
C3589 H3574 0.959 . S
C3589 H3575 0.961 . S
C3589 C3588 1.502 . S
C3590 H3576 0.960 . S
C3590 H3577 0.961 . S
C3590 H3578 0.959 . S
C3590 C3588 1.561 . S
C3591 C3588 1.526 . S
C3591 C3592 1.396 . S
C3591 C3596 1.390 . S
C3592 C3586 1.465 . S
C3592 C3591 1.396 . S
C3592 C3593 1.399 . S
C3593 H3579 0.929 . S
C3593 C3592 1.399 . S
C3593 C3594 1.385 . S
C3594 H3580 0.931 . S
C3594 C3593 1.385 . S
C3594 C3595 1.389 . S
C3595 C3594 1.389 . S
C3595 C3596 1.387 . S
C3596 H3581 0.930 . S
C3596 C3591 1.390 . S
C3596 C3595 1.387 . S
H3597 C3609 0.930 . S
H3598 C3611 0.930 . S
H3599 C3612 0.930 . S
H3600 C3616 0.959 . S
H3601 C3616 0.959 . S
H3602 C3616 0.961 . S
H3603 C3617 0.960 . S
H3604 C3617 0.961 . S
H3605 C3617 0.959 . S
H3606 C3620 0.929 . S
H3607 C3621 0.931 . S
H3608 C3623 0.930 . S
C3609 H3597 0.930 . S
C3609 C3610 1.399 . S
C3609 C3614 1.399 . S
C3610 C3609 1.399 . S
C3610 C3611 1.376 . S
C3611 H3598 0.930 . S
C3611 C3610 1.376 . S
C3611 C3612 1.388 . S
C3612 H3599 0.930 . S
C3612 C3611 1.388 . S
C3612 C3613 1.390 . S
C3613 C3612 1.390 . S
C3613 C3614 1.394 . S
C3613 C3619 1.465 . S
C3614 C3609 1.399 . S
C3614 C3613 1.394 . S
C3614 C3615 1.516 . S
C3615 C3614 1.516 . S
C3615 C3616 1.502 . S
C3615 C3617 1.561 . S
C3615 C3618 1.526 . S
C3616 H3600 0.959 . S
C3616 H3601 0.959 . S
C3616 H3602 0.961 . S
C3616 C3615 1.502 . S
C3617 H3603 0.960 . S
C3617 H3604 0.961 . S
C3617 H3605 0.959 . S
C3617 C3615 1.561 . S
C3618 C3615 1.526 . S
C3618 C3619 1.396 . S
C3618 C3623 1.390 . S
C3619 C3613 1.465 . S
C3619 C3618 1.396 . S
C3619 C3620 1.399 . S
C3620 H3606 0.929 . S
C3620 C3619 1.399 . S
C3620 C3621 1.385 . S
C3621 H3607 0.931 . S
C3621 C3620 1.385 . S
C3621 C3622 1.389 . S
C3622 C3621 1.389 . S
C3622 C3623 1.387 . S
C3623 H3608 0.930 . S
C3623 C3618 1.390 . S
C3623 C3622 1.387 . S
H3624 C3636 0.930 . S
H3625 C3638 0.930 . S
H3626 C3639 0.930 . S
H3627 C3643 0.959 . S
H3628 C3643 0.959 . S
H3629 C3643 0.961 . S
H3630 C3644 0.960 . S
H3631 C3644 0.961 . S
H3632 C3644 0.959 . S
H3633 C3647 0.929 . S
H3634 C3648 0.931 . S
H3635 C3650 0.930 . S
C3636 H3624 0.930 . S
C3636 C3637 1.399 . S
C3636 C3641 1.399 . S
C3637 C3636 1.399 . S
C3637 C3638 1.376 . S
C3638 H3625 0.930 . S
C3638 C3637 1.376 . S
C3638 C3639 1.388 . S
C3639 H3626 0.930 . S
C3639 C3638 1.388 . S
C3639 C3640 1.390 . S
C3640 C3639 1.390 . S
C3640 C3641 1.394 . S
C3640 C3646 1.465 . S
C3641 C3636 1.399 . S
C3641 C3640 1.394 . S
C3641 C3642 1.516 . S
C3642 C3641 1.516 . S
C3642 C3643 1.502 . S
C3642 C3644 1.561 . S
C3642 C3645 1.526 . S
C3643 H3627 0.959 . S
C3643 H3628 0.959 . S
C3643 H3629 0.961 . S
C3643 C3642 1.502 . S
C3644 H3630 0.960 . S
C3644 H3631 0.961 . S
C3644 H3632 0.959 . S
C3644 C3642 1.561 . S
C3645 C3642 1.526 . S
C3645 C3646 1.396 . S
C3645 C3650 1.390 . S
C3646 C3640 1.465 . S
C3646 C3645 1.396 . S
C3646 C3647 1.399 . S
C3647 H3633 0.929 . S
C3647 C3646 1.399 . S
C3647 C3648 1.385 . S
C3648 H3634 0.931 . S
C3648 C3647 1.385 . S
C3648 C3649 1.389 . S
C3649 C3648 1.389 . S
C3649 C3650 1.387 . S
C3650 H3635 0.930 . S
C3650 C3645 1.390 . S
C3650 C3649 1.387 . S
H3651 C3663 0.930 . S
H3652 C3665 0.930 . S
H3653 C3666 0.930 . S
H3654 C3670 0.959 . S
H3655 C3670 0.959 . S
H3656 C3670 0.961 . S
H3657 C3671 0.960 . S
H3658 C3671 0.961 . S
H3659 C3671 0.959 . S
H3660 C3674 0.929 . S
H3661 C3675 0.931 . S
H3662 C3677 0.930 . S
C3663 H3651 0.930 . S
C3663 C3664 1.399 . S
C3663 C3668 1.399 . S
C3664 C3663 1.399 . S
C3664 C3665 1.376 . S
C3665 H3652 0.930 . S
C3665 C3664 1.376 . S
C3665 C3666 1.388 . S
C3666 H3653 0.930 . S
C3666 C3665 1.388 . S
C3666 C3667 1.390 . S
C3667 C3666 1.390 . S
C3667 C3668 1.394 . S
C3667 C3673 1.465 . S
C3668 C3663 1.399 . S
C3668 C3667 1.394 . S
C3668 C3669 1.516 . S
C3669 C3668 1.516 . S
C3669 C3670 1.502 . S
C3669 C3671 1.561 . S
C3669 C3672 1.526 . S
C3670 H3654 0.959 . S
C3670 H3655 0.959 . S
C3670 H3656 0.961 . S
C3670 C3669 1.502 . S
C3671 H3657 0.960 . S
C3671 H3658 0.961 . S
C3671 H3659 0.959 . S
C3671 C3669 1.561 . S
C3672 C3669 1.526 . S
C3672 C3673 1.396 . S
C3672 C3677 1.390 . S
C3673 C3667 1.465 . S
C3673 C3672 1.396 . S
C3673 C3674 1.399 . S
C3674 H3660 0.929 . S
C3674 C3673 1.399 . S
C3674 C3675 1.385 . S
C3675 H3661 0.931 . S
C3675 C3674 1.385 . S
C3675 C3676 1.389 . S
C3676 C3675 1.389 . S
C3676 C3677 1.387 . S
C3677 H3662 0.930 . S
C3677 C3672 1.390 . S
C3677 C3676 1.387 . S
H3678 C3690 0.930 . S
H3679 C3692 0.930 . S
H3680 C3693 0.930 . S
H3681 C3697 0.959 . S
H3682 C3697 0.959 . S
H3683 C3697 0.961 . S
H3684 C3698 0.960 . S
H3685 C3698 0.961 . S
H3686 C3698 0.959 . S
H3687 C3701 0.929 . S
H3688 C3702 0.931 . S
H3689 C3704 0.930 . S
C3690 H3678 0.930 . S
C3690 C3691 1.399 . S
C3690 C3695 1.399 . S
C3691 C3690 1.399 . S
C3691 C3692 1.376 . S
C3692 H3679 0.930 . S
C3692 C3691 1.376 . S
C3692 C3693 1.388 . S
C3693 H3680 0.930 . S
C3693 C3692 1.388 . S
C3693 C3694 1.390 . S
C3694 C3693 1.390 . S
C3694 C3695 1.394 . S
C3694 C3700 1.465 . S
C3695 C3690 1.399 . S
C3695 C3694 1.394 . S
C3695 C3696 1.516 . S
C3696 C3695 1.516 . S
C3696 C3697 1.502 . S
C3696 C3698 1.561 . S
C3696 C3699 1.526 . S
C3697 H3681 0.959 . S
C3697 H3682 0.959 . S
C3697 H3683 0.961 . S
C3697 C3696 1.502 . S
C3698 H3684 0.960 . S
C3698 H3685 0.961 . S
C3698 H3686 0.959 . S
C3698 C3696 1.561 . S
C3699 C3696 1.526 . S
C3699 C3700 1.396 . S
C3699 C3704 1.390 . S
C3700 C3694 1.465 . S
C3700 C3699 1.396 . S
C3700 C3701 1.399 . S
C3701 H3687 0.929 . S
C3701 C3700 1.399 . S
C3701 C3702 1.385 . S
C3702 H3688 0.931 . S
C3702 C3701 1.385 . S
C3702 C3703 1.389 . S
C3703 C3702 1.389 . S
C3703 C3704 1.387 . S
C3704 H3689 0.930 . S
C3704 C3699 1.390 . S
C3704 C3703 1.387 . S
H3705 C3717 0.930 . S
H3706 C3719 0.930 . S
H3707 C3720 0.930 . S
H3708 C3724 0.959 . S
H3709 C3724 0.959 . S
H3710 C3724 0.961 . S
H3711 C3725 0.960 . S
H3712 C3725 0.961 . S
H3713 C3725 0.959 . S
H3714 C3728 0.929 . S
H3715 C3729 0.931 . S
H3716 C3731 0.930 . S
C3717 H3705 0.930 . S
C3717 C3718 1.399 . S
C3717 C3722 1.399 . S
C3718 C3717 1.399 . S
C3718 C3719 1.376 . S
C3719 H3706 0.930 . S
C3719 C3718 1.376 . S
C3719 C3720 1.388 . S
C3720 H3707 0.930 . S
C3720 C3719 1.388 . S
C3720 C3721 1.390 . S
C3721 C3720 1.390 . S
C3721 C3722 1.394 . S
C3721 C3727 1.465 . S
C3722 C3717 1.399 . S
C3722 C3721 1.394 . S
C3722 C3723 1.516 . S
C3723 C3722 1.516 . S
C3723 C3724 1.502 . S
C3723 C3725 1.561 . S
C3723 C3726 1.526 . S
C3724 H3708 0.959 . S
C3724 H3709 0.959 . S
C3724 H3710 0.961 . S
C3724 C3723 1.502 . S
C3725 H3711 0.960 . S
C3725 H3712 0.961 . S
C3725 H3713 0.959 . S
C3725 C3723 1.561 . S
C3726 C3723 1.526 . S
C3726 C3727 1.396 . S
C3726 C3731 1.390 . S
C3727 C3721 1.465 . S
C3727 C3726 1.396 . S
C3727 C3728 1.399 . S
C3728 H3714 0.929 . S
C3728 C3727 1.399 . S
C3728 C3729 1.385 . S
C3729 H3715 0.931 . S
C3729 C3728 1.385 . S
C3729 C3730 1.389 . S
C3730 C3729 1.389 . S
C3730 C3731 1.387 . S
C3731 H3716 0.930 . S
C3731 C3726 1.390 . S
C3731 C3730 1.387 . S
H3732 C3744 0.930 . S
H3733 C3746 0.930 . S
H3734 C3747 0.930 . S
H3735 C3751 0.959 . S
H3736 C3751 0.959 . S
H3737 C3751 0.961 . S
H3738 C3752 0.960 . S
H3739 C3752 0.961 . S
H3740 C3752 0.959 . S
H3741 C3755 0.929 . S
H3742 C3756 0.931 . S
H3743 C3758 0.930 . S
C3744 H3732 0.930 . S
C3744 C3745 1.399 . S
C3744 C3749 1.399 . S
C3745 C3744 1.399 . S
C3745 C3746 1.376 . S
C3746 H3733 0.930 . S
C3746 C3745 1.376 . S
C3746 C3747 1.388 . S
C3747 H3734 0.930 . S
C3747 C3746 1.388 . S
C3747 C3748 1.390 . S
C3748 C3747 1.390 . S
C3748 C3749 1.394 . S
C3748 C3754 1.465 . S
C3749 C3744 1.399 . S
C3749 C3748 1.394 . S
C3749 C3750 1.516 . S
C3750 C3749 1.516 . S
C3750 C3751 1.502 . S
C3750 C3752 1.561 . S
C3750 C3753 1.526 . S
C3751 H3735 0.959 . S
C3751 H3736 0.959 . S
C3751 H3737 0.961 . S
C3751 C3750 1.502 . S
C3752 H3738 0.960 . S
C3752 H3739 0.961 . S
C3752 H3740 0.959 . S
C3752 C3750 1.561 . S
C3753 C3750 1.526 . S
C3753 C3754 1.396 . S
C3753 C3758 1.390 . S
C3754 C3748 1.465 . S
C3754 C3753 1.396 . S
C3754 C3755 1.399 . S
C3755 H3741 0.929 . S
C3755 C3754 1.399 . S
C3755 C3756 1.385 . S
C3756 H3742 0.931 . S
C3756 C3755 1.385 . S
C3756 C3757 1.389 . S
C3757 C3756 1.389 . S
C3757 C3758 1.387 . S
C3758 H3743 0.930 . S
C3758 C3753 1.390 . S
C3758 C3757 1.387 . S
H3759 C3771 0.930 . S
H3760 C3773 0.930 . S
H3761 C3774 0.930 . S
H3762 C3778 0.959 . S
H3763 C3778 0.959 . S
H3764 C3778 0.961 . S
H3765 C3779 0.960 . S
H3766 C3779 0.961 . S
H3767 C3779 0.959 . S
H3768 C3782 0.929 . S
H3769 C3783 0.931 . S
H3770 C3785 0.930 . S
C3771 H3759 0.930 . S
C3771 C3772 1.399 . S
C3771 C3776 1.399 . S
C3772 C3771 1.399 . S
C3772 C3773 1.376 . S
C3773 H3760 0.930 . S
C3773 C3772 1.376 . S
C3773 C3774 1.388 . S
C3774 H3761 0.930 . S
C3774 C3773 1.388 . S
C3774 C3775 1.390 . S
C3775 C3774 1.390 . S
C3775 C3776 1.394 . S
C3775 C3781 1.465 . S
C3776 C3771 1.399 . S
C3776 C3775 1.394 . S
C3776 C3777 1.516 . S
C3777 C3776 1.516 . S
C3777 C3778 1.502 . S
C3777 C3779 1.561 . S
C3777 C3780 1.526 . S
C3778 H3762 0.959 . S
C3778 H3763 0.959 . S
C3778 H3764 0.961 . S
C3778 C3777 1.502 . S
C3779 H3765 0.960 . S
C3779 H3766 0.961 . S
C3779 H3767 0.959 . S
C3779 C3777 1.561 . S
C3780 C3777 1.526 . S
C3780 C3781 1.396 . S
C3780 C3785 1.390 . S
C3781 C3775 1.465 . S
C3781 C3780 1.396 . S
C3781 C3782 1.399 . S
C3782 H3768 0.929 . S
C3782 C3781 1.399 . S
C3782 C3783 1.385 . S
C3783 H3769 0.931 . S
C3783 C3782 1.385 . S
C3783 C3784 1.389 . S
C3784 C3783 1.389 . S
C3784 C3785 1.387 . S
C3785 H3770 0.930 . S
C3785 C3780 1.390 . S
C3785 C3784 1.387 . S
H3786 C3798 0.930 . S
H3787 C3800 0.930 . S
H3788 C3801 0.930 . S
H3789 C3805 0.959 1_655 S
H3790 C3805 0.959 1_655 S
H3791 C3805 0.961 1_655 S
H3792 C3806 0.960 . S
H3793 C3806 0.961 . S
H3794 C3806 0.959 . S
H3795 C3809 0.929 . S
H3796 C3810 0.931 . S
H3797 C3812 0.930 . S
C3798 H3786 0.930 . S
C3798 C3799 1.399 . S
C3798 C3803 1.399 . S
C3799 C3798 1.399 . S
C3799 C3800 1.376 . S
C3800 H3787 0.930 . S
C3800 C3799 1.376 . S
C3800 C3801 1.388 . S
C3801 H3788 0.930 . S
C3801 C3800 1.388 . S
C3801 C3802 1.390 . S
C3802 C3801 1.390 . S
C3802 C3803 1.394 . S
C3802 C3808 1.465 . S
C3803 C3798 1.399 . S
C3803 C3802 1.394 . S
C3803 C3804 1.516 . S
C3804 C3803 1.516 . S
C3804 C3805 1.502 . S
C3804 C3806 1.561 . S
C3804 C3807 1.526 . S
C3805 H3789 0.959 1_455 S
C3805 H3790 0.959 1_455 S
C3805 H3791 0.961 1_455 S
C3805 C3804 1.502 . S
C3806 H3792 0.960 . S
C3806 H3793 0.961 . S
C3806 H3794 0.959 . S
C3806 C3804 1.561 . S
C3807 C3804 1.526 . S
C3807 C3808 1.396 . S
C3807 C3812 1.390 . S
C3808 C3802 1.465 . S
C3808 C3807 1.396 . S
C3808 C3809 1.399 . S
C3809 H3795 0.929 . S
C3809 C3808 1.399 . S
C3809 C3810 1.385 . S
C3810 H3796 0.931 . S
C3810 C3809 1.385 . S
C3810 C3811 1.389 . S
C3811 C3810 1.389 . S
C3811 C3812 1.387 . S
C3812 H3797 0.930 . S
C3812 C3807 1.390 . S
C3812 C3811 1.387 . S
H3813 C3825 0.930 . S
H3814 C3827 0.930 . S
H3815 C3828 0.930 . S
H3816 C3832 0.959 . S
H3817 C3832 0.959 . S
H3818 C3832 0.961 . S
H3819 C3833 0.960 . S
H3820 C3833 0.961 . S
H3821 C3833 0.959 . S
H3822 C3836 0.929 . S
H3823 C3837 0.931 . S
H3824 C3839 0.930 . S
C3825 H3813 0.930 . S
C3825 C3826 1.399 . S
C3825 C3830 1.399 . S
C3826 C3825 1.399 . S
C3826 C3827 1.376 . S
C3827 H3814 0.930 . S
C3827 C3826 1.376 . S
C3827 C3828 1.388 . S
C3828 H3815 0.930 . S
C3828 C3827 1.388 . S
C3828 C3829 1.390 . S
C3829 C3828 1.390 . S
C3829 C3830 1.394 . S
C3829 C3835 1.465 . S
C3830 C3825 1.399 . S
C3830 C3829 1.394 . S
C3830 C3831 1.516 . S
C3831 C3830 1.516 . S
C3831 C3832 1.502 . S
C3831 C3833 1.561 . S
C3831 C3834 1.526 . S
C3832 H3816 0.959 . S
C3832 H3817 0.959 . S
C3832 H3818 0.961 . S
C3832 C3831 1.502 . S
C3833 H3819 0.960 . S
C3833 H3820 0.961 . S
C3833 H3821 0.959 . S
C3833 C3831 1.561 . S
C3834 C3831 1.526 . S
C3834 C3835 1.396 . S
C3834 C3839 1.390 . S
C3835 C3829 1.465 . S
C3835 C3834 1.396 . S
C3835 C3836 1.399 . S
C3836 H3822 0.929 . S
C3836 C3835 1.399 . S
C3836 C3837 1.385 . S
C3837 H3823 0.931 . S
C3837 C3836 1.385 . S
C3837 C3838 1.389 . S
C3838 C3837 1.389 . S
C3838 C3839 1.387 . S
C3839 H3824 0.930 . S
C3839 C3834 1.390 . S
C3839 C3838 1.387 . S
H3840 C3852 0.930 . S
H3841 C3854 0.930 . S
H3842 C3855 0.930 . S
H3843 C3859 0.959 . S
H3844 C3859 0.959 . S
H3845 C3859 0.961 . S
H3846 C3860 0.960 . S
H3847 C3860 0.961 . S
H3848 C3860 0.959 . S
H3849 C3863 0.929 . S
H3850 C3864 0.931 . S
H3851 C3866 0.930 . S
C3852 H3840 0.930 . S
C3852 C3853 1.399 . S
C3852 C3857 1.399 . S
C3853 C3852 1.399 . S
C3853 C3854 1.376 . S
C3854 H3841 0.930 . S
C3854 C3853 1.376 . S
C3854 C3855 1.388 . S
C3855 H3842 0.930 . S
C3855 C3854 1.388 . S
C3855 C3856 1.390 . S
C3856 C3855 1.390 . S
C3856 C3857 1.394 . S
C3856 C3862 1.465 . S
C3857 C3852 1.399 . S
C3857 C3856 1.394 . S
C3857 C3858 1.516 . S
C3858 C3857 1.516 . S
C3858 C3859 1.502 . S
C3858 C3860 1.561 . S
C3858 C3861 1.526 . S
C3859 H3843 0.959 . S
C3859 H3844 0.959 . S
C3859 H3845 0.961 . S
C3859 C3858 1.502 . S
C3860 H3846 0.960 . S
C3860 H3847 0.961 . S
C3860 H3848 0.959 . S
C3860 C3858 1.561 . S
C3861 C3858 1.526 . S
C3861 C3862 1.396 . S
C3861 C3866 1.390 . S
C3862 C3856 1.465 . S
C3862 C3861 1.396 . S
C3862 C3863 1.399 . S
C3863 H3849 0.929 . S
C3863 C3862 1.399 . S
C3863 C3864 1.385 . S
C3864 H3850 0.931 . S
C3864 C3863 1.385 . S
C3864 C3865 1.389 . S
C3865 C3864 1.389 . S
C3865 C3866 1.387 . S
C3866 H3851 0.930 . S
C3866 C3861 1.390 . S
C3866 C3865 1.387 . S
H3867 C3879 0.930 . S
H3868 C3881 0.930 . S
H3869 C3882 0.930 . S
H3870 C3886 0.959 . S
H3871 C3886 0.959 . S
H3872 C3886 0.961 . S
H3873 C3887 0.960 . S
H3874 C3887 0.961 . S
H3875 C3887 0.959 . S
H3876 C3890 0.929 . S
H3877 C3891 0.931 . S
H3878 C3893 0.930 . S
C3879 H3867 0.930 . S
C3879 C3880 1.399 . S
C3879 C3884 1.399 . S
C3880 C3879 1.399 . S
C3880 C3881 1.376 . S
C3881 H3868 0.930 . S
C3881 C3880 1.376 . S
C3881 C3882 1.388 . S
C3882 H3869 0.930 . S
C3882 C3881 1.388 . S
C3882 C3883 1.390 . S
C3883 C3882 1.390 . S
C3883 C3884 1.394 . S
C3883 C3889 1.465 . S
C3884 C3879 1.399 . S
C3884 C3883 1.394 . S
C3884 C3885 1.516 . S
C3885 C3884 1.516 . S
C3885 C3886 1.502 . S
C3885 C3887 1.561 . S
C3885 C3888 1.526 . S
C3886 H3870 0.959 . S
C3886 H3871 0.959 . S
C3886 H3872 0.961 . S
C3886 C3885 1.502 . S
C3887 H3873 0.960 . S
C3887 H3874 0.961 . S
C3887 H3875 0.959 . S
C3887 C3885 1.561 . S
C3888 C3885 1.526 . S
C3888 C3889 1.396 . S
C3888 C3893 1.390 . S
C3889 C3883 1.465 . S
C3889 C3888 1.396 . S
C3889 C3890 1.399 . S
C3890 H3876 0.929 . S
C3890 C3889 1.399 . S
C3890 C3891 1.385 . S
C3891 H3877 0.931 . S
C3891 C3890 1.385 . S
C3891 C3892 1.389 . S
C3892 C3891 1.389 . S
C3892 C3893 1.387 . S
C3893 H3878 0.930 . S
C3893 C3888 1.390 . S
C3893 C3892 1.387 . S
H3894 C3906 0.930 . S
H3895 C3908 0.930 . S
H3896 C3909 0.930 . S
H3897 C3913 0.959 . S
H3898 C3913 0.959 . S
H3899 C3913 0.961 . S
H3900 C3914 0.960 . S
H3901 C3914 0.961 . S
H3902 C3914 0.959 . S
H3903 C3917 0.929 . S
H3904 C3918 0.931 . S
H3905 C3920 0.926 1_455 S
C3906 H3894 0.930 . S
C3906 C3907 1.399 . S
C3906 C3911 1.399 . S
C3907 C3906 1.399 . S
C3907 C3908 1.376 . S
C3908 H3895 0.930 . S
C3908 C3907 1.376 . S
C3908 C3909 1.388 . S
C3909 H3896 0.930 . S
C3909 C3908 1.388 . S
C3909 C3910 1.390 . S
C3910 C3909 1.390 . S
C3910 C3911 1.394 . S
C3910 C3916 1.465 . S
C3911 C3906 1.399 . S
C3911 C3910 1.394 . S
C3911 C3912 1.516 . S
C3912 C3911 1.516 . S
C3912 C3913 1.502 . S
C3912 C3914 1.561 . S
C3912 C3915 1.526 . S
C3913 H3897 0.959 . S
C3913 H3898 0.959 . S
C3913 H3899 0.961 . S
C3913 C3912 1.502 . S
C3914 H3900 0.960 . S
C3914 H3901 0.961 . S
C3914 H3902 0.959 . S
C3914 C3912 1.561 . S
C3915 C3912 1.526 . S
C3915 C3916 1.396 . S
C3915 C3920 1.390 . S
C3916 C3910 1.465 . S
C3916 C3915 1.396 . S
C3916 C3917 1.399 . S
C3917 H3903 0.929 . S
C3917 C3916 1.399 . S
C3917 C3918 1.385 . S
C3918 H3904 0.931 . S
C3918 C3917 1.385 . S
C3918 C3919 1.389 . S
C3919 C3918 1.389 . S
C3919 C3920 1.387 . S
C3920 H3905 0.926 1_655 S
C3920 C3915 1.390 . S
C3920 C3919 1.387 . S
H3921 C3933 0.930 . S
H3922 C3935 0.930 . S
H3923 C3936 0.930 . S
H3924 C3940 0.959 . S
H3925 C3940 0.959 . S
H3926 C3940 0.961 . S
H3927 C3941 0.960 . S
H3928 C3941 0.961 . S
H3929 C3941 0.959 . S
H3930 C3944 0.929 . S
H3931 C3945 0.931 . S
H3932 C3947 0.930 . S
C3933 H3921 0.930 . S
C3933 C3934 1.399 . S
C3933 C3938 1.399 . S
C3934 C3933 1.399 . S
C3934 C3935 1.376 . S
C3935 H3922 0.930 . S
C3935 C3934 1.376 . S
C3935 C3936 1.388 . S
C3936 H3923 0.930 . S
C3936 C3935 1.388 . S
C3936 C3937 1.390 . S
C3937 C3936 1.390 . S
C3937 C3938 1.394 . S
C3937 C3943 1.465 . S
C3938 C3933 1.399 . S
C3938 C3937 1.394 . S
C3938 C3939 1.516 . S
C3939 C3938 1.516 . S
C3939 C3940 1.502 . S
C3939 C3941 1.561 . S
C3939 C3942 1.526 . S
C3940 H3924 0.959 . S
C3940 H3925 0.959 . S
C3940 H3926 0.961 . S
C3940 C3939 1.502 . S
C3941 H3927 0.960 . S
C3941 H3928 0.961 . S
C3941 H3929 0.959 . S
C3941 C3939 1.561 . S
C3942 C3939 1.526 . S
C3942 C3943 1.396 . S
C3942 C3947 1.390 . S
C3943 C3937 1.465 . S
C3943 C3942 1.396 . S
C3943 C3944 1.399 . S
C3944 H3930 0.929 . S
C3944 C3943 1.399 . S
C3944 C3945 1.385 . S
C3945 H3931 0.931 . S
C3945 C3944 1.385 . S
C3945 C3946 1.389 . S
C3946 C3945 1.389 . S
C3946 C3947 1.387 . S
C3947 H3932 0.930 . S
C3947 C3942 1.390 . S
C3947 C3946 1.387 . S
H3948 C3960 0.930 . S
H3949 C3962 0.930 . S
H3950 C3963 0.930 . S
H3951 C3967 0.959 . S
H3952 C3967 0.959 . S
H3953 C3967 0.961 . S
H3954 C3968 0.960 . S
H3955 C3968 0.961 . S
H3956 C3968 0.959 . S
H3957 C3971 0.929 . S
H3958 C3972 0.931 . S
H3959 C3974 0.930 . S
C3960 H3948 0.930 . S
C3960 C3961 1.399 . S
C3960 C3965 1.399 . S
C3961 C3960 1.399 . S
C3961 C3962 1.376 . S
C3962 H3949 0.930 . S
C3962 C3961 1.376 . S
C3962 C3963 1.388 . S
C3963 H3950 0.930 . S
C3963 C3962 1.388 . S
C3963 C3964 1.390 . S
C3964 C3963 1.390 . S
C3964 C3965 1.394 . S
C3964 C3970 1.465 . S
C3965 C3960 1.399 . S
C3965 C3964 1.394 . S
C3965 C3966 1.516 . S
C3966 C3965 1.516 . S
C3966 C3967 1.502 . S
C3966 C3968 1.561 . S
C3966 C3969 1.526 . S
C3967 H3951 0.959 . S
C3967 H3952 0.959 . S
C3967 H3953 0.961 . S
C3967 C3966 1.502 . S
C3968 H3954 0.960 . S
C3968 H3955 0.961 . S
C3968 H3956 0.959 . S
C3968 C3966 1.561 . S
C3969 C3966 1.526 . S
C3969 C3970 1.396 . S
C3969 C3974 1.390 . S
C3970 C3964 1.465 . S
C3970 C3969 1.396 . S
C3970 C3971 1.399 . S
C3971 H3957 0.929 . S
C3971 C3970 1.399 . S
C3971 C3972 1.385 . S
C3972 H3958 0.931 . S
C3972 C3971 1.385 . S
C3972 C3973 1.389 . S
C3973 C3972 1.389 . S
C3973 C3974 1.387 . S
C3974 H3959 0.930 . S
C3974 C3969 1.390 . S
C3974 C3973 1.387 . S
H3975 C3987 0.930 . S
H3976 C3989 0.930 . S
H3977 C3990 0.930 . S
H3978 C3994 0.959 . S
H3979 C3994 0.959 . S
H3980 C3994 0.961 . S
H3981 C3995 0.960 . S
H3982 C3995 0.961 . S
H3983 C3995 0.959 . S
H3984 C3998 0.929 . S
H3985 C3999 0.931 . S
H3986 C4001 0.930 . S
C3987 H3975 0.930 . S
C3987 C3988 1.399 . S
C3987 C3992 1.399 . S
C3988 C3987 1.399 . S
C3988 C3989 1.376 . S
C3989 H3976 0.930 . S
C3989 C3988 1.376 . S
C3989 C3990 1.388 . S
C3990 H3977 0.930 . S
C3990 C3989 1.388 . S
C3990 C3991 1.390 . S
C3991 C3990 1.390 . S
C3991 C3992 1.394 . S
C3991 C3997 1.465 . S
C3992 C3987 1.399 . S
C3992 C3991 1.394 . S
C3992 C3993 1.516 . S
C3993 C3992 1.516 . S
C3993 C3994 1.502 . S
C3993 C3995 1.561 . S
C3993 C3996 1.526 . S
C3994 H3978 0.959 . S
C3994 H3979 0.959 . S
C3994 H3980 0.961 . S
C3994 C3993 1.502 . S
C3995 H3981 0.960 . S
C3995 H3982 0.961 . S
C3995 H3983 0.959 . S
C3995 C3993 1.561 . S
C3996 C3993 1.526 . S
C3996 C3997 1.396 . S
C3996 C4001 1.390 . S
C3997 C3991 1.465 . S
C3997 C3996 1.396 . S
C3997 C3998 1.399 . S
C3998 H3984 0.929 . S
C3998 C3997 1.399 . S
C3998 C3999 1.385 . S
C3999 H3985 0.931 . S
C3999 C3998 1.385 . S
C3999 C4000 1.389 . S
C4000 C3999 1.389 . S
C4000 C4001 1.387 . S
C4001 H3986 0.930 . S
C4001 C3996 1.390 . S
C4001 C4000 1.387 . S
H4002 C4014 0.930 . S
H4003 C4016 0.930 . S
H4004 C4017 0.930 . S
H4005 C4021 0.959 . S
H4006 C4021 0.959 . S
H4007 C4021 0.961 . S
H4008 C4022 0.960 . S
H4009 C4022 0.961 . S
H4010 C4022 0.959 . S
H4011 C4025 0.929 . S
H4012 C4026 0.931 . S
H4013 C4028 0.930 . S
C4014 H4002 0.930 . S
C4014 C4015 1.399 . S
C4014 C4019 1.399 . S
C4015 C4014 1.399 . S
C4015 C4016 1.376 . S
C4016 H4003 0.930 . S
C4016 C4015 1.376 . S
C4016 C4017 1.388 . S
C4017 H4004 0.930 . S
C4017 C4016 1.388 . S
C4017 C4018 1.390 . S
C4018 C4017 1.390 . S
C4018 C4019 1.394 . S
C4018 C4024 1.465 . S
C4019 C4014 1.399 . S
C4019 C4018 1.394 . S
C4019 C4020 1.516 . S
C4020 C4019 1.516 . S
C4020 C4021 1.502 . S
C4020 C4022 1.561 . S
C4020 C4023 1.526 . S
C4021 H4005 0.959 . S
C4021 H4006 0.959 . S
C4021 H4007 0.961 . S
C4021 C4020 1.502 . S
C4022 H4008 0.960 . S
C4022 H4009 0.961 . S
C4022 H4010 0.959 . S
C4022 C4020 1.561 . S
C4023 C4020 1.526 . S
C4023 C4024 1.396 . S
C4023 C4028 1.390 . S
C4024 C4018 1.465 . S
C4024 C4023 1.396 . S
C4024 C4025 1.399 . S
C4025 H4011 0.929 . S
C4025 C4024 1.399 . S
C4025 C4026 1.385 . S
C4026 H4012 0.931 . S
C4026 C4025 1.385 . S
C4026 C4027 1.389 . S
C4027 C4026 1.389 . S
C4027 C4028 1.387 . S
C4028 H4013 0.930 . S
C4028 C4023 1.390 . S
C4028 C4027 1.387 . S
H4029 C4041 0.930 . S
H4030 C4043 0.930 . S
H4031 C4044 0.930 . S
H4032 C4048 0.959 . S
H4033 C4048 0.959 . S
H4034 C4048 0.961 . S
H4035 C4049 0.960 . S
H4036 C4049 0.961 . S
H4037 C4049 0.959 . S
H4038 C4052 0.929 . S
H4039 C4053 0.931 . S
H4040 C4055 0.930 . S
C4041 H4029 0.930 . S
C4041 C4042 1.399 . S
C4041 C4046 1.399 . S
C4042 C4041 1.399 . S
C4042 C4043 1.376 . S
C4043 H4030 0.930 . S
C4043 C4042 1.376 . S
C4043 C4044 1.388 . S
C4044 H4031 0.930 . S
C4044 C4043 1.388 . S
C4044 C4045 1.390 . S
C4045 C4044 1.390 . S
C4045 C4046 1.394 . S
C4045 C4051 1.465 . S
C4046 C4041 1.399 . S
C4046 C4045 1.394 . S
C4046 C4047 1.516 . S
C4047 C4046 1.516 . S
C4047 C4048 1.502 . S
C4047 C4049 1.561 . S
C4047 C4050 1.526 . S
C4048 H4032 0.959 . S
C4048 H4033 0.959 . S
C4048 H4034 0.961 . S
C4048 C4047 1.502 . S
C4049 H4035 0.960 . S
C4049 H4036 0.961 . S
C4049 H4037 0.959 . S
C4049 C4047 1.561 . S
C4050 C4047 1.526 . S
C4050 C4051 1.396 . S
C4050 C4055 1.390 . S
C4051 C4045 1.465 . S
C4051 C4050 1.396 . S
C4051 C4052 1.399 . S
C4052 H4038 0.929 . S
C4052 C4051 1.399 . S
C4052 C4053 1.385 . S
C4053 H4039 0.931 . S
C4053 C4052 1.385 . S
C4053 C4054 1.389 . S
C4054 C4053 1.389 . S
C4054 C4055 1.387 . S
C4055 H4040 0.930 . S
C4055 C4050 1.390 . S
C4055 C4054 1.387 . S
H4056 C4068 0.930 . S
H4057 C4070 0.930 . S
H4058 C4071 0.930 . S
H4059 C4075 0.959 . S
H4060 C4075 0.959 . S
H4061 C4075 0.961 . S
H4062 C4076 0.960 . S
H4063 C4076 0.961 . S
H4064 C4076 0.959 . S
H4065 C4079 0.929 . S
H4066 C4080 0.931 . S
H4067 C4082 0.930 . S
C4068 H4056 0.930 . S
C4068 C4069 1.399 . S
C4068 C4073 1.399 . S
C4069 C4068 1.399 . S
C4069 C4070 1.376 . S
C4070 H4057 0.930 . S
C4070 C4069 1.376 . S
C4070 C4071 1.388 . S
C4071 H4058 0.930 . S
C4071 C4070 1.388 . S
C4071 C4072 1.390 . S
C4072 C4071 1.390 . S
C4072 C4073 1.394 . S
C4072 C4078 1.465 . S
C4073 C4068 1.399 . S
C4073 C4072 1.394 . S
C4073 C4074 1.516 . S
C4074 C4073 1.516 . S
C4074 C4075 1.502 . S
C4074 C4076 1.561 . S
C4074 C4077 1.526 . S
C4075 H4059 0.959 . S
C4075 H4060 0.959 . S
C4075 H4061 0.961 . S
C4075 C4074 1.502 . S
C4076 H4062 0.960 . S
C4076 H4063 0.961 . S
C4076 H4064 0.959 . S
C4076 C4074 1.561 . S
C4077 C4074 1.526 . S
C4077 C4078 1.396 . S
C4077 C4082 1.390 . S
C4078 C4072 1.465 . S
C4078 C4077 1.396 . S
C4078 C4079 1.399 . S
C4079 H4065 0.929 . S
C4079 C4078 1.399 . S
C4079 C4080 1.385 . S
C4080 H4066 0.931 . S
C4080 C4079 1.385 . S
C4080 C4081 1.389 . S
C4081 C4080 1.389 . S
C4081 C4082 1.387 . S
C4082 H4067 0.930 . S
C4082 C4077 1.390 . S
C4082 C4081 1.387 . S
H4083 C4095 0.930 . S
H4084 C4097 0.930 . S
H4085 C4098 0.930 . S
H4086 C4102 0.959 . S
H4087 C4102 0.959 . S
H4088 C4102 0.961 . S
H4089 C4103 0.960 . S
H4090 C4103 0.961 . S
H4091 C4103 0.959 . S
H4092 C4106 0.929 1_545 S
H4093 C4107 0.931 . S
H4094 C4109 0.930 . S
C4095 H4083 0.930 . S
C4095 C4096 1.399 . S
C4095 C4100 1.399 . S
C4096 C4095 1.399 . S
C4096 C4097 1.376 . S
C4097 H4084 0.930 . S
C4097 C4096 1.376 . S
C4097 C4098 1.388 . S
C4098 H4085 0.930 . S
C4098 C4097 1.388 . S
C4098 C4099 1.390 . S
C4099 C4098 1.390 . S
C4099 C4100 1.394 . S
C4099 C4105 1.465 . S
C4100 C4095 1.399 . S
C4100 C4099 1.394 . S
C4100 C4101 1.516 . S
C4101 C4100 1.516 . S
C4101 C4102 1.502 . S
C4101 C4103 1.561 . S
C4101 C4104 1.526 . S
C4102 H4086 0.959 . S
C4102 H4087 0.959 . S
C4102 H4088 0.961 . S
C4102 C4101 1.502 . S
C4103 H4089 0.960 . S
C4103 H4090 0.961 . S
C4103 H4091 0.959 . S
C4103 C4101 1.561 . S
C4104 C4101 1.526 . S
C4104 C4105 1.396 . S
C4104 C4109 1.390 . S
C4105 C4099 1.465 . S
C4105 C4104 1.396 . S
C4105 C4106 1.399 . S
C4106 H4092 0.929 1_565 S
C4106 C4105 1.399 . S
C4106 C4107 1.385 1_565 S
C4107 H4093 0.931 . S
C4107 C4106 1.385 1_545 S
C4107 C4108 1.389 1_545 S
C4108 C4107 1.389 1_565 S
C4108 C4109 1.387 . S
C4109 H4094 0.930 . S
C4109 C4104 1.390 . S
C4109 C4108 1.387 . S
H4110 C4122 0.930 . S
H4111 C4124 0.930 . S
H4112 C4125 0.930 . S
H4113 C4129 0.959 . S
H4114 C4129 0.959 . S
H4115 C4129 0.961 . S
H4116 C4130 0.960 . S
H4117 C4130 0.961 . S
H4118 C4130 0.959 . S
H4119 C4133 0.929 . S
H4120 C4134 0.931 . S
H4121 C4136 0.930 . S
C4122 H4110 0.930 . S
C4122 C4123 1.399 . S
C4122 C4127 1.399 . S
C4123 C4122 1.399 . S
C4123 C4124 1.376 . S
C4124 H4111 0.930 . S
C4124 C4123 1.376 . S
C4124 C4125 1.388 . S
C4125 H4112 0.930 . S
C4125 C4124 1.388 . S
C4125 C4126 1.390 . S
C4126 C4125 1.390 . S
C4126 C4127 1.394 . S
C4126 C4132 1.465 . S
C4127 C4122 1.399 . S
C4127 C4126 1.394 . S
C4127 C4128 1.516 . S
C4128 C4127 1.516 . S
C4128 C4129 1.502 . S
C4128 C4130 1.561 . S
C4128 C4131 1.526 . S
C4129 H4113 0.959 . S
C4129 H4114 0.959 . S
C4129 H4115 0.961 . S
C4129 C4128 1.502 . S
C4130 H4116 0.960 . S
C4130 H4117 0.961 . S
C4130 H4118 0.959 . S
C4130 C4128 1.561 . S
C4131 C4128 1.526 . S
C4131 C4132 1.396 . S
C4131 C4136 1.390 . S
C4132 C4126 1.465 . S
C4132 C4131 1.396 . S
C4132 C4133 1.399 . S
C4133 H4119 0.929 . S
C4133 C4132 1.399 . S
C4133 C4134 1.385 . S
C4134 H4120 0.931 . S
C4134 C4133 1.385 . S
C4134 C4135 1.389 . S
C4135 C4134 1.389 . S
C4135 C4136 1.387 . S
C4136 H4121 0.930 . S
C4136 C4131 1.390 . S
C4136 C4135 1.387 . S
H4137 C4149 0.930 . S
H4138 C4151 0.930 . S
H4139 C4152 0.930 . S
H4140 C4156 0.959 . S
H4141 C4156 0.959 . S
H4142 C4156 0.961 . S
H4143 C4157 0.960 . S
H4144 C4157 0.961 . S
H4145 C4157 0.959 . S
H4146 C4160 0.929 1_556 S
H4147 C4161 0.931 1_556 S
H4148 C4163 0.930 . S
C4149 H4137 0.930 . S
C4149 C4150 1.399 . S
C4149 C4154 1.399 . S
C4150 C4149 1.399 . S
C4150 C4151 1.376 . S
C4151 H4138 0.930 . S
C4151 C4150 1.376 . S
C4151 C4152 1.388 . S
C4152 H4139 0.930 . S
C4152 C4151 1.388 . S
C4152 C4153 1.390 . S
C4153 C4152 1.390 . S
C4153 C4154 1.394 . S
C4153 C4159 1.465 . S
C4154 C4149 1.399 . S
C4154 C4153 1.394 . S
C4154 C4155 1.516 . S
C4155 C4154 1.516 . S
C4155 C4156 1.502 . S
C4155 C4157 1.561 . S
C4155 C4158 1.526 . S
C4156 H4140 0.959 . S
C4156 H4141 0.959 . S
C4156 H4142 0.961 . S
C4156 C4155 1.502 . S
C4157 H4143 0.960 . S
C4157 H4144 0.961 . S
C4157 H4145 0.959 . S
C4157 C4155 1.561 . S
C4158 C4155 1.526 . S
C4158 C4159 1.396 . S
C4158 C4163 1.390 . S
C4159 C4153 1.465 . S
C4159 C4158 1.396 . S
C4159 C4160 1.399 . S
C4160 H4146 0.929 1_554 S
C4160 C4159 1.399 . S
C4160 C4161 1.385 . S
C4161 H4147 0.931 1_554 S
C4161 C4160 1.385 . S
C4161 C4162 1.389 . S
C4162 C4161 1.389 . S
C4162 C4163 1.387 . S
C4163 H4148 0.930 . S
C4163 C4158 1.390 . S
C4163 C4162 1.387 . S
H4164 C4176 0.930 . S
H4165 C4178 0.930 . S
H4166 C4179 0.930 . S
H4167 C4183 0.959 . S
H4168 C4183 0.959 . S
H4169 C4183 0.961 . S
H4170 C4184 0.960 . S
H4171 C4184 0.961 . S
H4172 C4184 0.959 . S
H4173 C4187 0.929 . S
H4174 C4188 0.931 . S
H4175 C4190 0.930 . S
C4176 H4164 0.930 . S
C4176 C4177 1.399 . S
C4176 C4181 1.399 . S
C4177 C4176 1.399 . S
C4177 C4178 1.376 . S
C4178 H4165 0.930 . S
C4178 C4177 1.376 . S
C4178 C4179 1.388 . S
C4179 H4166 0.930 . S
C4179 C4178 1.388 . S
C4179 C4180 1.390 . S
C4180 C4179 1.390 . S
C4180 C4181 1.394 . S
C4180 C4186 1.465 . S
C4181 C4176 1.399 . S
C4181 C4180 1.394 . S
C4181 C4182 1.516 . S
C4182 C4181 1.516 . S
C4182 C4183 1.502 . S
C4182 C4184 1.561 . S
C4182 C4185 1.526 . S
C4183 H4167 0.959 . S
C4183 H4168 0.959 . S
C4183 H4169 0.961 . S
C4183 C4182 1.502 . S
C4184 H4170 0.960 . S
C4184 H4171 0.961 . S
C4184 H4172 0.959 . S
C4184 C4182 1.561 . S
C4185 C4182 1.526 . S
C4185 C4186 1.396 . S
C4185 C4190 1.390 . S
C4186 C4180 1.465 . S
C4186 C4185 1.396 . S
C4186 C4187 1.399 . S
C4187 H4173 0.929 . S
C4187 C4186 1.399 . S
C4187 C4188 1.385 . S
C4188 H4174 0.931 . S
C4188 C4187 1.385 . S
C4188 C4189 1.389 . S
C4189 C4188 1.389 . S
C4189 C4190 1.387 . S
C4190 H4175 0.930 . S
C4190 C4185 1.390 . S
C4190 C4189 1.387 . S
H4191 C4203 0.930 . S
H4192 C4205 0.930 . S
H4193 C4206 0.930 . S
H4194 C4210 0.959 1_554 S
H4195 C4210 0.959 . S
H4196 C4210 0.961 . S
H4197 C4211 0.960 . S
H4198 C4211 0.961 . S
H4199 C4211 0.959 . S
H4200 C4214 0.929 . S
H4201 C4215 0.931 . S
H4202 C4217 0.930 1_556 S
C4203 H4191 0.930 . S
C4203 C4204 1.399 . S
C4203 C4208 1.399 . S
C4204 C4203 1.399 . S
C4204 C4205 1.376 . S
C4205 H4192 0.930 . S
C4205 C4204 1.376 . S
C4205 C4206 1.388 . S
C4206 H4193 0.930 . S
C4206 C4205 1.388 . S
C4206 C4207 1.390 . S
C4207 C4206 1.390 . S
C4207 C4208 1.394 . S
C4207 C4213 1.465 . S
C4208 C4203 1.399 . S
C4208 C4207 1.394 . S
C4208 C4209 1.516 . S
C4209 C4208 1.516 . S
C4209 C4210 1.502 1_554 S
C4209 C4211 1.561 1_554 S
C4209 C4212 1.526 . S
C4210 H4194 0.959 1_556 S
C4210 H4195 0.959 . S
C4210 H4196 0.961 . S
C4210 C4209 1.502 1_556 S
C4211 H4197 0.960 . S
C4211 H4198 0.961 . S
C4211 H4199 0.959 . S
C4211 C4209 1.561 1_556 S
C4212 C4209 1.526 . S
C4212 C4213 1.396 . S
C4212 C4217 1.390 . S
C4213 C4207 1.465 . S
C4213 C4212 1.396 . S
C4213 C4214 1.399 . S
C4214 H4200 0.929 . S
C4214 C4213 1.399 . S
C4214 C4215 1.385 . S
C4215 H4201 0.931 . S
C4215 C4214 1.385 . S
C4215 C4216 1.389 . S
C4216 C4215 1.389 . S
C4216 C4217 1.387 . S
C4217 H4202 0.930 1_554 S
C4217 C4212 1.390 . S
C4217 C4216 1.387 . S
H4218 C4230 0.930 . S
H4219 C4232 0.930 . S
H4220 C4233 0.930 . S
H4221 C4237 0.959 . S
H4222 C4237 0.959 . S
H4223 C4237 0.961 . S
H4224 C4238 0.960 . S
H4225 C4238 0.961 . S
H4226 C4238 0.959 . S
H4227 C4241 0.929 . S
H4228 C4242 0.931 . S
H4229 C4244 0.930 . S
C4230 H4218 0.930 . S
C4230 C4231 1.399 . S
C4230 C4235 1.399 . S
C4231 C4230 1.399 . S
C4231 C4232 1.376 . S
C4232 H4219 0.930 . S
C4232 C4231 1.376 . S
C4232 C4233 1.388 . S
C4233 H4220 0.930 . S
C4233 C4232 1.388 . S
C4233 C4234 1.390 . S
C4234 C4233 1.390 . S
C4234 C4235 1.394 . S
C4234 C4240 1.465 . S
C4235 C4230 1.399 . S
C4235 C4234 1.394 . S
C4235 C4236 1.516 . S
C4236 C4235 1.516 . S
C4236 C4237 1.502 . S
C4236 C4238 1.561 . S
C4236 C4239 1.526 . S
C4237 H4221 0.959 . S
C4237 H4222 0.959 . S
C4237 H4223 0.961 . S
C4237 C4236 1.502 . S
C4238 H4224 0.960 . S
C4238 H4225 0.961 . S
C4238 H4226 0.959 . S
C4238 C4236 1.561 . S
C4239 C4236 1.526 . S
C4239 C4240 1.396 . S
C4239 C4244 1.390 . S
C4240 C4234 1.465 . S
C4240 C4239 1.396 . S
C4240 C4241 1.399 . S
C4241 H4227 0.929 . S
C4241 C4240 1.399 . S
C4241 C4242 1.385 . S
C4242 H4228 0.931 . S
C4242 C4241 1.385 . S
C4242 C4243 1.389 . S
C4243 C4242 1.389 . S
C4243 C4244 1.387 . S
C4244 H4229 0.930 . S
C4244 C4239 1.390 . S
C4244 C4243 1.387 . S
H4245 C4257 0.930 . S
H4246 C4259 0.930 . S
H4247 C4260 0.930 . S
H4248 C4264 0.959 . S
H4249 C4264 0.959 . S
H4250 C4264 0.961 . S
H4251 C4265 0.960 . S
H4252 C4265 0.961 . S
H4253 C4265 0.959 . S
H4254 C4268 0.929 . S
H4255 C4269 0.931 . S
H4256 C4271 0.930 . S
C4257 H4245 0.930 . S
C4257 C4258 1.399 . S
C4257 C4262 1.399 . S
C4258 C4257 1.399 . S
C4258 C4259 1.376 . S
C4259 H4246 0.930 . S
C4259 C4258 1.376 . S
C4259 C4260 1.388 . S
C4260 H4247 0.930 . S
C4260 C4259 1.388 . S
C4260 C4261 1.390 . S
C4261 C4260 1.390 . S
C4261 C4262 1.394 . S
C4261 C4267 1.465 . S
C4262 C4257 1.399 . S
C4262 C4261 1.394 . S
C4262 C4263 1.516 . S
C4263 C4262 1.516 . S
C4263 C4264 1.502 . S
C4263 C4265 1.561 . S
C4263 C4266 1.526 . S
C4264 H4248 0.959 . S
C4264 H4249 0.959 . S
C4264 H4250 0.961 . S
C4264 C4263 1.502 . S
C4265 H4251 0.960 . S
C4265 H4252 0.961 . S
C4265 H4253 0.959 . S
C4265 C4263 1.561 . S
C4266 C4263 1.526 . S
C4266 C4267 1.396 . S
C4266 C4271 1.390 . S
C4267 C4261 1.465 . S
C4267 C4266 1.396 . S
C4267 C4268 1.399 . S
C4268 H4254 0.929 . S
C4268 C4267 1.399 . S
C4268 C4269 1.385 . S
C4269 H4255 0.931 . S
C4269 C4268 1.385 . S
C4269 C4270 1.389 . S
C4270 C4269 1.389 . S
C4270 C4271 1.387 . S
C4271 H4256 0.930 . S
C4271 C4266 1.390 . S
C4271 C4270 1.387 . S
C1693 C111 2.081 1_455 S
C1705 C392 2.097 . S
C1720 C64 1.808 . S
C1732 C494 1.901 . S
C1747 C77 1.781 . S
C1759 C560 1.779 . S
C1786 C646 1.167 . S
C1774 C95 1.326 . S
C1801 C25 1.314 . S
C1813 C730 1.292 . S
C1840 C812 1.857 . S
C1828 C36 1.771 . S
C1867 C914 1.892 . S
C1855 C50 1.803 . S
C1882 C11 1.994 . S
C1894 C980 2.010 . S
C1921 C410 1.567 . S
C1909 C237 1.555 . S
C1936 C245 0.898 . S
C1948 C478 0.874 . S
C1975 C578 1.062 . S
C1963 C279 1.051 . S
C2002 C644 1.547 . S
C1990 C175 1.531 1_556 S
C2017 C231 1.514 . S
C2029 C728 1.509 . S
C2056 C830 1.040 . S
C2044 C251 0.972 . S
C2083 C898 0.947 . S
C2071 C273 0.887 . S
C2110 C998 1.630 . S
C2098 C181 1.627 . S
C2137 C394 0.963 . S
C2125 C165 0.954 . S
C2152 C288 1.628 . S
C2164 C1082 1.641 . S
C2191 C1150 1.307 . S
C2179 C333 1.327 . S
C2218 C1232 0.765 . S
C2206 C316 0.775 . S
C2233 C123 0.908 . S
C2245 C982 0.857 . S
C2260 C137 1.297 . S
C2272 C562 1.278 . S
C2287 C330 1.622 . S
C2299 C1334 1.640 . S
C2326 C1400 0.774 . S
C2314 C302 0.810 . S
C2353 C403 2.218 . S
C2341 C63 2.217 . S
C2380 C1407 1.931 . S
C2368 C106 1.959 . S
C2395 C97 1.822 . S
C2407 C571 1.858 . S
C2422 C81 1.376 . S
C2434 C1329 1.325 . S
C2461 C741 1.337 . S
C2449 C13 1.388 . S
C2476 C55 1.775 . S
C2488 C1159 1.874 . S
C2515 C903 1.850 1_556 S
C2503 C35 1.825 . S
C2542 C1495 2.205 . S
C2530 C21 2.212 . S
C2569 C399 1.716 . S
C2557 C147 1.787 . S
C2596 C1413 0.879 . S
C2584 C321 0.856 . S
C2611 C119 1.062 . S
C2623 C567 1.093 . S
C2638 C293 1.565 . S
C2650 C1327 1.660 . S
C2665 C153 1.610 . S
C2677 C739 1.650 . S
C2704 C1155 1.091 . S
C2692 C315 1.067 . S
C2719 C125 0.800 . S
C2731 C909 0.778 . S
C2746 C287 1.772 . S
C2758 C1491 1.698 . S
C2773 C193 0.929 . S
C2785 C405 0.892 . S
C2800 C176 1.695 . S
C2812 C1071 1.680 . S
C2827 C263 1.278 . S
C2839 C825 1.203 . S
C2854 C246 0.891 . S
C2866 C1243 0.951 . S
C2893 C1497 0.997 . S
C2881 C277 0.962 . S
C2908 C221 1.292 . S
C2920 C573 1.204 . S
C2947 C651 1.708 . S
C2935 C260 1.708 . S
C2974 C487 0.935 . S
C2962 C204 0.879 . S
C2989 C83 2.069 . S
C3001 C1568 2.093 . S
C3028 C1418 1.896 . S
C3016 C92 1.810 . S
C3043 C105 1.776 . S
C3055 C1652 1.783 . S
C3070 C67 1.311 . S
C3082 C1318 1.275 . S
C3097 C53 1.312 . S
C3109 C1066 1.288 . S
C3136 C1148 1.875 . S
C3124 C8 1.747 1_655 S
C3163 C1250 1.882 . S
C3151 C22 1.791 . S
C3190 C1484 2.016 . S
C3178 C39 2.019 . S
C3217 C1586 1.630 . S
C3205 C265 1.625 . S
C3232 C189 0.851 . S
C3244 C1402 0.797 . S
C3271 C1670 1.061 . S
C3259 C209 1.052 . S
C3298 C1316 1.550 . S
C3286 C217 1.539 . S
C3325 C1064 1.498 . S
C3313 C259 1.518 . S
C3340 C195 0.949 . S
C3352 C1166 1.004 . S
C3379 C1234 0.825 . S
C3367 C203 0.927 . S
C3394 C223 1.597 . S
C3406 C1502 1.599 . S
C3433 C1570 0.935 . S
C3421 C319 0.948 . S
C3448 C134 1.615 . S
C3460 C746 1.681 . S
C3487 C814 1.201 . S
C3475 C151 1.330 1_565 S
C3514 C896 0.765 . S
C3502 C162 0.794 . S
C3541 C1486 0.947 . S
C3529 C305 0.919 . S
C3556 C291 1.299 . S
C3568 C1654 1.173 . S
C3595 C662 1.640 . S
C3583 C148 1.596 . S
C3622 C476 0.809 . S
C3610 C120 0.769 . S
C3637 C91 2.222 . S
C3649 C1579 2.212 . S
C3676 C483 1.942 . S
C3664 C78 1.937 . S
C3691 C69 1.818 . S
C3703 C1663 1.859 . S
C3718 C109 1.367 . S
C3730 C657 1.299 . S
C3745 C41 1.401 . S
C3757 C1077 1.357 . S
C3784 C823 1.860 . S
C3772 C27 1.837 . S
C3799 C7 1.864 . S
C3811 C1239 1.873 . S
C3826 C49 2.219 . S
C3838 C991 2.205 . S
C3865 C1575 1.717 . S
C3853 C329 1.787 . S
C3880 C167 0.858 . S
C3892 C489 0.877 . S
C3919 C1659 1.057 1_655 S
C3907 C301 1.103 . S
C3934 C139 1.615 . S
C3946 C655 1.643 . S
C3961 C335 1.604 . S
C3973 C1075 1.653 . S
C4000 C819 1.085 . S
C3988 C161 1.128 . S
C4015 C307 0.952 . S
C4027 C1245 0.948 . S
C4054 C987 1.732 . S
C4042 C133 1.772 . S
C4081 C1581 0.996 . S
C4069 C249 0.956 . S
C4108 C735 1.680 1_565 S
C4096 C218 1.695 . S
C4123 C235 1.316 . S
C4135 C1161 1.295 . S
C4162 C907 0.948 . S
C4150 C190 0.901 . S
C4177 C207 0.963 . S
C4189 C993 0.998 . S
C4204 C179 1.315 . S
C4216 C1665 1.287 . S
C4243 C1323 1.698 . S
C4231 C232 1.717 . S
C4270 C1411 0.931 . S
C4258 C274 0.940 . S
