# Generated by pormake.
# Topology iac, (4,6)-cn, num edge types: 1
# Building blocks:
#     Node 0, Type 0, BuildingBlock: QUQFOY_clean_sbu_1, # of connection points: 4
#     Node 1, Type 0, BuildingBlock: QUQFOY_clean_sbu_1, # of connection points: 4
#     Node 2, Type 0, BuildingBlock: QUQFOY_clean_sbu_1, # of connection points: 4
#     Node 3, Type 0, BuildingBlock: QUQFOY_clean_sbu_1, # of connection points: 4
#     Node 4, Type 0, BuildingBlock: QUQFOY_clean_sbu_1, # of connection points: 4
#     Node 5, Type 0, BuildingBlock: QUQFOY_clean_sbu_1, # of connection points: 4
#     Node 6, Type 0, BuildingBlock: QUQFOY_clean_sbu_1, # of connection points: 4
#     Node 7, Type 0, BuildingBlock: QUQFOY_clean_sbu_1, # of connection points: 4
#     Node 8, Type 0, BuildingBlock: QUQFOY_clean_sbu_1, # of connection points: 4
#     Node 9, Type 0, BuildingBlock: QUQFOY_clean_sbu_1, # of connection points: 4
#     Node 10, Type 0, BuildingBlock: QUQFOY_clean_sbu_1, # of connection points: 4
#     Node 11, Type 0, BuildingBlock: QUQFOY_clean_sbu_1, # of connection points: 4
#     Node 12, Type 0, BuildingBlock: QUQFOY_clean_sbu_1, # of connection points: 4
#     Node 13, Type 0, BuildingBlock: QUQFOY_clean_sbu_1, # of connection points: 4
#     Node 14, Type 0, BuildingBlock: QUQFOY_clean_sbu_1, # of connection points: 4
#     Node 15, Type 0, BuildingBlock: QUQFOY_clean_sbu_1, # of connection points: 4
#     Node 16, Type 0, BuildingBlock: QUQFOY_clean_sbu_1, # of connection points: 4
#     Node 17, Type 0, BuildingBlock: QUQFOY_clean_sbu_1, # of connection points: 4
#     Node 18, Type 0, BuildingBlock: QUQFOY_clean_sbu_1, # of connection points: 4
#     Node 19, Type 0, BuildingBlock: QUQFOY_clean_sbu_1, # of connection points: 4
#     Node 20, Type 0, BuildingBlock: QUQFOY_clean_sbu_1, # of connection points: 4
#     Node 21, Type 0, BuildingBlock: QUQFOY_clean_sbu_1, # of connection points: 4
#     Node 22, Type 0, BuildingBlock: QUQFOY_clean_sbu_1, # of connection points: 4
#     Node 23, Type 0, BuildingBlock: QUQFOY_clean_sbu_1, # of connection points: 4
#     Node 24, Type 1, BuildingBlock: JUFBIX_clean_sbu_0, # of connection points: 6
#     Node 25, Type 1, BuildingBlock: JUFBIX_clean_sbu_0, # of connection points: 6
#     Node 26, Type 1, BuildingBlock: JUFBIX_clean_sbu_0, # of connection points: 6
#     Node 27, Type 1, BuildingBlock: JUFBIX_clean_sbu_0, # of connection points: 6
#     Node 28, Type 1, BuildingBlock: JUFBIX_clean_sbu_0, # of connection points: 6
#     Node 29, Type 1, BuildingBlock: JUFBIX_clean_sbu_0, # of connection points: 6
#     Node 30, Type 1, BuildingBlock: JUFBIX_clean_sbu_0, # of connection points: 6
#     Node 31, Type 1, BuildingBlock: JUFBIX_clean_sbu_0, # of connection points: 6
#     Node 32, Type 1, BuildingBlock: JUFBIX_clean_sbu_0, # of connection points: 6
#     Node 33, Type 1, BuildingBlock: JUFBIX_clean_sbu_0, # of connection points: 6
#     Node 34, Type 1, BuildingBlock: JUFBIX_clean_sbu_0, # of connection points: 6
#     Node 35, Type 1, BuildingBlock: JUFBIX_clean_sbu_0, # of connection points: 6
#     Node 36, Type 1, BuildingBlock: JUFBIX_clean_sbu_0, # of connection points: 6
#     Node 37, Type 1, BuildingBlock: JUFBIX_clean_sbu_0, # of connection points: 6
#     Node 38, Type 1, BuildingBlock: JUFBIX_clean_sbu_0, # of connection points: 6
#     Node 39, Type 1, BuildingBlock: JUFBIX_clean_sbu_0, # of connection points: 6
#     Edge 40, Type (0, 1), BuildingBlock: AJUNOK_clean_linker_0, # of connection points: 2
#     Edge 41, Type (0, 1), BuildingBlock: AJUNOK_clean_linker_0, # of connection points: 2
#     Edge 42, Type (0, 1), BuildingBlock: AJUNOK_clean_linker_0, # of connection points: 2
#     Edge 43, Type (0, 1), BuildingBlock: AJUNOK_clean_linker_0, # of connection points: 2
#     Edge 44, Type (0, 1), BuildingBlock: AJUNOK_clean_linker_0, # of connection points: 2
#     Edge 45, Type (0, 1), BuildingBlock: AJUNOK_clean_linker_0, # of connection points: 2
#     Edge 46, Type (0, 1), BuildingBlock: AJUNOK_clean_linker_0, # of connection points: 2
#     Edge 47, Type (0, 1), BuildingBlock: AJUNOK_clean_linker_0, # of connection points: 2
#     Edge 48, Type (0, 1), BuildingBlock: AJUNOK_clean_linker_0, # of connection points: 2
#     Edge 49, Type (0, 1), BuildingBlock: AJUNOK_clean_linker_0, # of connection points: 2
#     Edge 50, Type (0, 1), BuildingBlock: AJUNOK_clean_linker_0, # of connection points: 2
#     Edge 51, Type (0, 1), BuildingBlock: AJUNOK_clean_linker_0, # of connection points: 2
#     Edge 52, Type (0, 1), BuildingBlock: AJUNOK_clean_linker_0, # of connection points: 2
#     Edge 53, Type (0, 1), BuildingBlock: AJUNOK_clean_linker_0, # of connection points: 2
#     Edge 54, Type (0, 1), BuildingBlock: AJUNOK_clean_linker_0, # of connection points: 2
#     Edge 55, Type (0, 1), BuildingBlock: AJUNOK_clean_linker_0, # of connection points: 2
#     Edge 56, Type (0, 1), BuildingBlock: AJUNOK_clean_linker_0, # of connection points: 2
#     Edge 57, Type (0, 1), BuildingBlock: AJUNOK_clean_linker_0, # of connection points: 2
#     Edge 58, Type (0, 1), BuildingBlock: AJUNOK_clean_linker_0, # of connection points: 2
#     Edge 59, Type (0, 1), BuildingBlock: AJUNOK_clean_linker_0, # of connection points: 2
#     Edge 60, Type (0, 1), BuildingBlock: AJUNOK_clean_linker_0, # of connection points: 2
#     Edge 61, Type (0, 1), BuildingBlock: AJUNOK_clean_linker_0, # of connection points: 2
#     Edge 62, Type (0, 1), BuildingBlock: AJUNOK_clean_linker_0, # of connection points: 2
#     Edge 63, Type (0, 1), BuildingBlock: AJUNOK_clean_linker_0, # of connection points: 2
#     Edge 64, Type (0, 1), BuildingBlock: AJUNOK_clean_linker_0, # of connection points: 2
#     Edge 65, Type (0, 1), BuildingBlock: AJUNOK_clean_linker_0, # of connection points: 2
#     Edge 66, Type (0, 1), BuildingBlock: AJUNOK_clean_linker_0, # of connection points: 2
#     Edge 67, Type (0, 1), BuildingBlock: AJUNOK_clean_linker_0, # of connection points: 2
#     Edge 68, Type (0, 1), BuildingBlock: AJUNOK_clean_linker_0, # of connection points: 2
#     Edge 69, Type (0, 1), BuildingBlock: AJUNOK_clean_linker_0, # of connection points: 2
#     Edge 70, Type (0, 1), BuildingBlock: AJUNOK_clean_linker_0, # of connection points: 2
#     Edge 71, Type (0, 1), BuildingBlock: AJUNOK_clean_linker_0, # of connection points: 2
#     Edge 72, Type (0, 1), BuildingBlock: AJUNOK_clean_linker_0, # of connection points: 2
#     Edge 73, Type (0, 1), BuildingBlock: AJUNOK_clean_linker_0, # of connection points: 2
#     Edge 74, Type (0, 1), BuildingBlock: AJUNOK_clean_linker_0, # of connection points: 2
#     Edge 75, Type (0, 1), BuildingBlock: AJUNOK_clean_linker_0, # of connection points: 2
#     Edge 76, Type (0, 1), BuildingBlock: AJUNOK_clean_linker_0, # of connection points: 2
#     Edge 77, Type (0, 1), BuildingBlock: AJUNOK_clean_linker_0, # of connection points: 2
#     Edge 78, Type (0, 1), BuildingBlock: AJUNOK_clean_linker_0, # of connection points: 2
#     Edge 79, Type (0, 1), BuildingBlock: AJUNOK_clean_linker_0, # of connection points: 2
#     Edge 80, Type (0, 1), BuildingBlock: AJUNOK_clean_linker_0, # of connection points: 2
#     Edge 81, Type (0, 1), BuildingBlock: AJUNOK_clean_linker_0, # of connection points: 2
#     Edge 82, Type (0, 1), BuildingBlock: AJUNOK_clean_linker_0, # of connection points: 2
#     Edge 83, Type (0, 1), BuildingBlock: AJUNOK_clean_linker_0, # of connection points: 2
#     Edge 84, Type (0, 1), BuildingBlock: AJUNOK_clean_linker_0, # of connection points: 2
#     Edge 85, Type (0, 1), BuildingBlock: AJUNOK_clean_linker_0, # of connection points: 2
#     Edge 86, Type (0, 1), BuildingBlock: AJUNOK_clean_linker_0, # of connection points: 2
#     Edge 87, Type (0, 1), BuildingBlock: AJUNOK_clean_linker_0, # of connection points: 2
#     Edge 88, Type (0, 1), BuildingBlock: AJUNOK_clean_linker_0, # of connection points: 2
#     Edge 89, Type (0, 1), BuildingBlock: AJUNOK_clean_linker_0, # of connection points: 2
#     Edge 90, Type (0, 1), BuildingBlock: AJUNOK_clean_linker_0, # of connection points: 2
#     Edge 91, Type (0, 1), BuildingBlock: AJUNOK_clean_linker_0, # of connection points: 2
#     Edge 92, Type (0, 1), BuildingBlock: AJUNOK_clean_linker_0, # of connection points: 2
#     Edge 93, Type (0, 1), BuildingBlock: AJUNOK_clean_linker_0, # of connection points: 2
#     Edge 94, Type (0, 1), BuildingBlock: AJUNOK_clean_linker_0, # of connection points: 2
#     Edge 95, Type (0, 1), BuildingBlock: AJUNOK_clean_linker_0, # of connection points: 2
#     Edge 96, Type (0, 1), BuildingBlock: AJUNOK_clean_linker_0, # of connection points: 2
#     Edge 97, Type (0, 1), BuildingBlock: AJUNOK_clean_linker_0, # of connection points: 2
#     Edge 98, Type (0, 1), BuildingBlock: AJUNOK_clean_linker_0, # of connection points: 2
#     Edge 99, Type (0, 1), BuildingBlock: AJUNOK_clean_linker_0, # of connection points: 2
#     Edge 100, Type (0, 1), BuildingBlock: AJUNOK_clean_linker_0, # of connection points: 2
#     Edge 101, Type (0, 1), BuildingBlock: AJUNOK_clean_linker_0, # of connection points: 2
#     Edge 102, Type (0, 1), BuildingBlock: AJUNOK_clean_linker_0, # of connection points: 2
#     Edge 103, Type (0, 1), BuildingBlock: AJUNOK_clean_linker_0, # of connection points: 2
#     Edge 104, Type (0, 1), BuildingBlock: AJUNOK_clean_linker_0, # of connection points: 2
#     Edge 105, Type (0, 1), BuildingBlock: AJUNOK_clean_linker_0, # of connection points: 2
#     Edge 106, Type (0, 1), BuildingBlock: AJUNOK_clean_linker_0, # of connection points: 2
#     Edge 107, Type (0, 1), BuildingBlock: AJUNOK_clean_linker_0, # of connection points: 2
#     Edge 108, Type (0, 1), BuildingBlock: AJUNOK_clean_linker_0, # of connection points: 2
#     Edge 109, Type (0, 1), BuildingBlock: AJUNOK_clean_linker_0, # of connection points: 2
#     Edge 110, Type (0, 1), BuildingBlock: AJUNOK_clean_linker_0, # of connection points: 2
#     Edge 111, Type (0, 1), BuildingBlock: AJUNOK_clean_linker_0, # of connection points: 2
#     Edge 112, Type (0, 1), BuildingBlock: AJUNOK_clean_linker_0, # of connection points: 2
#     Edge 113, Type (0, 1), BuildingBlock: AJUNOK_clean_linker_0, # of connection points: 2
#     Edge 114, Type (0, 1), BuildingBlock: AJUNOK_clean_linker_0, # of connection points: 2
#     Edge 115, Type (0, 1), BuildingBlock: AJUNOK_clean_linker_0, # of connection points: 2
#     Edge 116, Type (0, 1), BuildingBlock: AJUNOK_clean_linker_0, # of connection points: 2
#     Edge 117, Type (0, 1), BuildingBlock: AJUNOK_clean_linker_0, # of connection points: 2
#     Edge 118, Type (0, 1), BuildingBlock: AJUNOK_clean_linker_0, # of connection points: 2
#     Edge 119, Type (0, 1), BuildingBlock: AJUNOK_clean_linker_0, # of connection points: 2
#     Edge 120, Type (0, 1), BuildingBlock: AJUNOK_clean_linker_0, # of connection points: 2
#     Edge 121, Type (0, 1), BuildingBlock: AJUNOK_clean_linker_0, # of connection points: 2
#     Edge 122, Type (0, 1), BuildingBlock: AJUNOK_clean_linker_0, # of connection points: 2
#     Edge 123, Type (0, 1), BuildingBlock: AJUNOK_clean_linker_0, # of connection points: 2
#     Edge 124, Type (0, 1), BuildingBlock: AJUNOK_clean_linker_0, # of connection points: 2
#     Edge 125, Type (0, 1), BuildingBlock: AJUNOK_clean_linker_0, # of connection points: 2
#     Edge 126, Type (0, 1), BuildingBlock: AJUNOK_clean_linker_0, # of connection points: 2
#     Edge 127, Type (0, 1), BuildingBlock: AJUNOK_clean_linker_0, # of connection points: 2
#     Edge 128, Type (0, 1), BuildingBlock: AJUNOK_clean_linker_0, # of connection points: 2
#     Edge 129, Type (0, 1), BuildingBlock: AJUNOK_clean_linker_0, # of connection points: 2
#     Edge 130, Type (0, 1), BuildingBlock: AJUNOK_clean_linker_0, # of connection points: 2
#     Edge 131, Type (0, 1), BuildingBlock: AJUNOK_clean_linker_0, # of connection points: 2
#     Edge 132, Type (0, 1), BuildingBlock: AJUNOK_clean_linker_0, # of connection points: 2
#     Edge 133, Type (0, 1), BuildingBlock: AJUNOK_clean_linker_0, # of connection points: 2
#     Edge 134, Type (0, 1), BuildingBlock: AJUNOK_clean_linker_0, # of connection points: 2
#     Edge 135, Type (0, 1), BuildingBlock: AJUNOK_clean_linker_0, # of connection points: 2
# Relax obj value: 0.268
# Max RMSD: 0.257
# Mean RMSD: 0.173
data_MOF--net-iac--node1-QUQFOY_clean_sbu_1--node2-JUFBIX_clean_sbu_0--edge1-AJUNOK_clean_linker_0
_symmetry_space_group_name_H-M    P1
_symmetry_Int_Tables_number       1
_symmetry_cell_setting            triclinic
loop_
_symmetry_equiv_pos_as_xyz
'x, y, z'
_cell_length_a     41.155429
_cell_length_b     42.448916
_cell_length_c     42.232895
_cell_angle_alpha  90.428005
_cell_angle_beta   88.335986
_cell_angle_gamma 91.801153
loop_
_atom_site_label
_atom_site_type_symbol
_atom_site_fract_x
_atom_site_fract_y
_atom_site_fract_z
_atom_type_partial_charge
O0 O 0.03604 0.22939 0.16087 0.0
Cd1 Cd 0.03612 0.2659 0.19512 0.0
Cd2 Cd 0.07083 0.30005 0.14026 0.0
O3 O 0.05832 0.25371 0.1189 0.0
O4 O 1.00217 0.25208 0.22874 0.0
O5 O 0.99674 0.29469 0.20061 0.0
C6 C 0.98473 0.27572 0.22202 0.0
C7 C 0.06399 0.35162 0.11433 0.0
C8 C 0.0455 0.22851 0.13177 0.0
C9 C 0.1067 0.28981 0.20529 0.0
O10 O 0.10646 0.30046 0.17688 0.0
O11 O 0.08119 0.27576 0.21709 0.0
O12 O 0.08788 0.33355 0.10742 0.0
O13 O 0.04288 0.34021 0.13477 0.0
O14 O 0.14341 0.76789 0.44482 0.0
Cd15 Cd 0.10575 0.7642 0.47742 0.0
Cd16 Cd 0.06691 0.77405 0.41874 0.0
O17 O 0.11399 0.76855 0.40184 0.0
O18 O 0.11271 0.7329 0.511 0.0
O19 O 0.07646 0.727 0.47316 0.0
C20 C 0.08967 0.71628 0.49819 0.0
C21 C 0.02704 0.77622 0.38069 0.0
C22 C 0.14143 0.76781 0.41484 0.0
C23 C 0.06051 0.81436 0.48159 0.0
O24 O 0.05324 0.80468 0.45414 0.0
O25 O 0.08395 0.80278 0.49583 0.0
O26 O 0.04955 0.79772 0.3828 0.0
O27 O 0.02848 0.75191 0.39873 0.0
O28 O 0.52541 0.7393 0.66048 0.0
Cd29 Cd 0.52556 0.77654 0.69327 0.0
Cd30 Cd 0.55952 0.80882 0.63829 0.0
O31 O 0.54699 0.7618 0.61733 0.0
O32 O 0.49266 0.76174 0.72727 0.0
O33 O 0.4857 0.8044 0.69956 0.0
C34 C 0.47448 0.7849 0.72083 0.0
C35 C 0.54846 0.86146 0.61531 0.0
C36 C 0.53472 0.737 0.63149 0.0
C37 C 0.59692 0.79806 0.70209 0.0
O38 O 0.59684 0.80843 0.67352 0.0
O39 O 0.57082 0.78574 0.71451 0.0
O40 O 0.57203 0.84426 0.6052 0.0
O41 O 0.53016 0.84862 0.63738 0.0
O42 O 0.6558 0.27475 0.93318 0.0
Cd43 Cd 0.62093 0.26947 0.9679 0.0
Cd44 Cd 0.57777 0.29041 0.91962 0.0
O45 O 0.62285 0.29018 0.89632 0.0
O46 O 0.62936 0.23359 0.99553 0.0
O47 O 0.58874 0.23481 0.96188 0.0
C48 C 0.60409 0.22003 0.98326 0.0
C49 C 0.53472 0.29318 0.88503 0.0
C50 C 0.65095 0.28295 0.90493 0.0
C51 C 0.5792 0.31923 0.98783 0.0
O52 O 0.56638 0.3141 0.96122 0.0
O53 O 0.60522 0.3061 0.99479 0.0
O54 O 0.55414 0.31686 0.89012 0.0
O55 O 0.54018 0.26711 0.8992 0.0
O56 O 0.19573 0.98677 0.22827 0.0
Cd57 Cd 0.22606 0.99836 0.26372 0.0
Cd58 Cd 0.1707 1.00636 0.3043 0.0
O59 O 0.15382 0.99299 0.26105 0.0
O60 O 0.26634 0.9751 0.2608 0.0
O61 O 0.22893 0.96939 0.2997 0.0
C62 C 0.25658 0.96171 0.28693 0.0
C63 C 0.12743 1.00348 0.34139 0.0
C64 C 0.16535 0.98605 0.23384 0.0
C65 C 0.22316 0.05882 0.29506 0.0
O66 O 0.19954 0.04646 0.31109 0.0
O67 O 0.23628 0.0441 0.27219 0.0
O68 O 0.12934 0.02443 0.31965 0.0
O69 O 0.15061 0.98378 0.3425 0.0
O70 O 0.24719 0.91172 0.62859 0.0
Cd71 Cd 0.24775 0.92789 0.58247 0.0
Cd72 Cd 0.28265 0.87449 0.57431 0.0
O73 O 0.25746 0.86276 0.6148 0.0
O74 O 0.22021 0.96519 0.5828 0.0
O75 O 0.20895 0.92146 0.55574 0.0
C76 C 0.20185 0.95006 0.56327 0.0
C77 C 0.2894 0.84094 0.53218 0.0
C78 C 0.24825 0.8827 0.6354 0.0
C79 C 0.31717 0.93327 0.5616 0.0
O80 O 0.32068 0.90669 0.57425 0.0
O81 O 0.28911 0.94428 0.55975 0.0
O82 O 0.30366 0.83594 0.55837 0.0
O83 O 0.26859 0.86312 0.53126 0.0
O84 O 0.39393 0.07046 0.70135 0.0
Cd85 Cd 0.36011 0.07175 0.7372 0.0
Cd86 Cd 0.41602 0.06836 0.77716 0.0
O87 O 0.43563 0.07728 0.73275 0.0
O88 O 0.32753 0.10402 0.7308 0.0
O89 O 0.36664 0.10746 0.76611 0.0
C90 C 0.34214 0.11974 0.75287 0.0
C91 C 0.45316 0.07188 0.81713 0.0
C92 C 0.42406 0.07582 0.70526 0.0
C93 C 0.35626 0.02096 0.78159 0.0
O94 O 0.38352 0.03252 0.78978 0.0
O95 O 0.34174 0.03222 0.7584 0.0
O96 O 0.45468 0.0504 0.79561 0.0
O97 O 0.43159 0.09312 0.81481 0.0
O98 O 0.29869 0.17865 0.10683 0.0
Cd99 Cd 0.29925 0.14542 0.06936 0.0
Cd100 Cd 0.27047 0.20145 0.03648 0.0
O101 O 0.28152 0.22143 0.08344 0.0
O102 O 0.32972 0.11158 0.08358 0.0
O103 O 0.34101 0.14045 0.04162 0.0
C104 C 0.3499 0.11884 0.06066 0.0
C105 C 0.28314 0.22856 0.98564 0.0
C106 C 0.29153 0.20772 0.10844 0.0
C107 C 0.22954 0.13667 0.04408 0.0
O108 O 0.23225 0.16546 0.03486 0.0
O109 O 0.25347 0.1242 0.05756 0.0
O110 O 0.25854 0.23542 1.0038 0.0
O111 O 0.30157 0.20728 0.99652 0.0
O112 O 0.75553 0.41471 0.13121 0.0
Cd113 Cd 0.7619 0.44294 0.09247 0.0
Cd114 Cd 0.78974 0.38768 0.06306 0.0
O115 O 0.77873 0.37377 0.10868 0.0
O116 O 0.73059 0.47722 0.09406 0.0
O117 O 0.73112 0.43964 0.05716 0.0
C118 C 0.71888 0.46523 0.06845 0.0
C119 C 0.79861 0.34584 0.02842 0.0
C120 C 0.76494 0.38659 0.13251 0.0
C121 C 0.82501 0.45267 0.06127 0.0
O122 O 0.82034 0.42505 0.05039 0.0
O123 O 0.80604 0.46375 0.08237 0.0
O124 O 0.81895 0.35334 0.04991 0.0
O125 O 0.77228 0.36152 0.02734 0.0
O126 O 0.9145 0.56768 0.19694 0.0
Cd127 Cd 0.88105 0.57232 0.23277 0.0
Cd128 Cd 0.9326 0.5643 0.2708 0.0
O129 O 0.95552 0.57536 0.22883 0.0
O130 O 0.84932 0.60361 0.22173 0.0
O131 O 0.88715 0.61073 0.25816 0.0
C132 C 0.86359 0.6216 0.24228 0.0
C133 C 0.96383 0.5726 0.3149 0.0
C134 C 0.94452 0.57311 0.20121 0.0
C135 C 0.87568 0.5166 0.27134 0.0
O136 O 0.90507 0.52356 0.27731 0.0
O137 O 0.85946 0.53435 0.25428 0.0
O138 O 0.97126 0.5521 0.29363 0.0
O139 O 0.93925 0.59001 0.31041 0.0
O140 O 0.79343 0.68249 0.5992 0.0
Cd141 Cd 0.79345 0.64758 0.56334 0.0
Cd142 Cd 0.76279 0.70212 0.52863 0.0
O143 O 0.77422 0.72384 0.57476 0.0
O144 O 0.82316 0.61321 0.57838 0.0
O145 O 0.83483 0.64073 0.53566 0.0
C146 C 0.84319 0.61913 0.55496 0.0
C147 C 0.7741 0.72681 0.47627 0.0
C148 C 0.78523 0.71132 0.59998 0.0
C149 C 0.7225 0.63813 0.54045 0.0
O150 O 0.72445 0.66633 0.52955 0.0
O151 O 0.7472 0.62657 0.55347 0.0
O152 O 0.74992 0.73441 0.49466 0.0
O153 O 0.79306 0.70635 0.48782 0.0
O154 O 0.68689 0.4876 0.73741 0.0
Cd155 Cd 0.71586 0.50166 0.77405 0.0
Cd156 Cd 0.66209 0.5133 0.80947 0.0
O157 O 0.64456 0.50074 0.76682 0.0
O158 O 0.75735 0.48031 0.77276 0.0
O159 O 0.72026 0.47457 0.81183 0.0
C160 C 0.74866 0.46835 0.79988 0.0
C161 C 0.62151 0.50311 0.84776 0.0
C162 C 0.65645 0.49051 0.74094 0.0
C163 C 0.71235 0.56555 0.7998 0.0
O164 O 0.68712 0.55559 0.81503 0.0
O165 O 0.72687 0.54812 0.77989 0.0
O166 O 0.61981 0.52552 0.82776 0.0
O167 O 0.64736 0.48664 0.84689 0.0
O168 O 0.09361 0.79039 0.91675 0.0
Cd169 Cd 0.0577 0.78807 0.95276 0.0
Cd170 Cd 0.02307 0.8185 0.89268 0.0
O171 O 0.06909 0.80502 0.87301 0.0
O172 O 0.07474 0.75603 0.98557 0.0
O173 O 0.03209 0.74485 0.95776 0.0
C174 C 0.05279 0.73517 0.97774 0.0
C175 C 0.97299 0.81294 0.86235 0.0
C176 C 0.09455 0.79647 0.88715 0.0
C177 C 0.03733 0.85982 0.95469 0.0
O178 O 0.02735 0.85598 0.92633 0.0
O179 O 0.0475 0.83588 0.97004 0.0
O180 O 0.9949 0.83472 0.85662 0.0
O181 O 0.97936 0.79388 0.88491 0.0
O182 O 0.02422 0.24403 0.61569 0.0
Cd183 Cd 0.02243 0.2719 0.65539 0.0
Cd184 Cd 0.05468 0.31352 0.62253 0.0
O185 O 0.06191 0.2753 0.59329 0.0
O186 O 0.98944 0.25532 0.6865 0.0
O187 O 0.98989 0.30394 0.66772 0.0
C188 C 0.97814 0.28333 0.68766 0.0
C189 C 0.03288 0.35672 0.5993 0.0
C190 C 0.04552 0.2495 0.59386 0.0
C191 C 0.08332 0.29617 0.68238 0.0
O192 O 0.08262 0.31828 0.66234 0.0
O193 O 0.06326 0.27304 0.68086 0.0
O194 O 0.06312 0.35033 0.59486 0.0
O195 O 0.01501 0.33896 0.61789 0.0
O196 O 0.54235 0.2377 0.43187 0.0
Cd197 Cd 0.54406 0.27282 0.39699 0.0
Cd198 Cd 0.5084 0.30854 0.44806 0.0
O199 O 0.51717 0.26271 0.47133 0.0
O200 O 0.57781 0.2578 0.36446 0.0
O201 O 0.58579 0.30098 0.39224 0.0
C202 C 0.59705 0.28117 0.37162 0.0
C203 C 0.5211 0.36257 0.46873 0.0
C204 C 0.53054 0.23757 0.46016 0.0
C205 C 0.47363 0.29403 0.38391 0.0
O206 O 0.47272 0.30642 0.41175 0.0
O207 O 0.49945 0.28053 0.37381 0.0
O208 O 0.49731 0.34502 0.47996 0.0
O209 O 0.53891 0.34932 0.44702 0.0
O210 O 0.51531 0.74496 0.10758 0.0
Cd211 Cd 0.51309 0.77257 0.14774 0.0
Cd212 Cd 0.54476 0.8141 0.11321 0.0
O213 O 0.54601 0.77893 0.08001 0.0
O214 O 0.48255 0.75145 0.17835 0.0
O215 O 0.47706 0.80038 0.16212 0.0
C216 C 0.46782 0.77772 0.1809 0.0
C217 C 0.52517 0.86158 0.09842 0.0
C218 C 0.53194 0.75209 0.08266 0.0
C219 C 0.57829 0.79415 0.16963 0.0
O220 O 0.57949 0.81365 0.14699 0.0
O221 O 0.55421 0.7751 0.17314 0.0
O222 O 0.55312 0.85236 0.08816 0.0
O223 O 0.50802 0.84375 0.11757 0.0
O224 O 0.94486 0.09355 0.68326 0.0
Cd225 Cd 0.90788 0.08976 0.71602 0.0
Cd226 Cd 0.95056 0.06148 0.75093 0.0
O227 O 0.97829 0.06472 0.70968 0.0
O228 O 0.8765 0.12251 0.70725 0.0
O229 O 0.90389 0.12011 0.75164 0.0
C230 C 0.88268 0.13384 0.73494 0.0
C231 C 0.97523 0.07188 0.79868 0.0
C232 C 0.97169 0.0799 0.685 0.0
C233 C 0.88831 0.02642 0.73763 0.0
O234 O 0.91367 0.02805 0.75394 0.0
O235 O 0.88206 0.04813 0.71853 0.0
O236 O 0.98093 0.04667 0.78261 0.0
O237 O 0.95611 0.09201 0.78688 0.0
O238 O 0.84286 0.20787 0.59461 0.0
Cd239 Cd 0.83742 0.16702 0.56891 0.0
Cd240 Cd 0.81129 0.19986 0.5259 0.0
O241 O 0.81565 0.23412 0.55996 0.0
O242 O 0.8711 0.13639 0.57678 0.0
O243 O 0.86441 0.15898 0.5301 0.0
C244 C 0.87902 0.13885 0.54703 0.0
C245 C 0.81834 0.21773 0.47447 0.0
C246 C 0.82959 0.23297 0.58626 0.0
C247 C 0.7703 0.14804 0.55454 0.0
O248 O 0.7736 0.16815 0.53259 0.0
O249 O 0.79321 0.14382 0.57331 0.0
O250 O 0.7942 0.22586 0.49231 0.0
O251 O 0.83907 0.19893 0.48565 0.0
O252 O 0.67098 0.01449 0.26247 0.0
Cd253 Cd 0.69039 0.01194 0.30669 0.0
Cd254 Cd 0.6347 0.02551 0.31936 0.0
O255 O 0.62296 0.99934 0.2808 0.0
O256 O 0.73125 0.98973 0.30249 0.0
O257 O 0.68772 0.97186 0.33008 0.0
C258 C 0.71719 0.96803 0.31976 0.0
C259 C 0.61337 0.01559 0.36848 0.0
C260 C 0.6418 1.00585 0.2574 0.0
C261 C 0.6833 0.07595 0.31909 0.0
O262 O 0.65473 0.06951 0.31004 0.0
O263 O 0.7008 0.05383 0.32785 0.0
O264 O 0.59636 0.02882 0.34735 0.0
O265 O 0.64265 1.00741 0.36129 0.0
O266 O 0.78692 0.91376 0.10021 0.0
Cd267 Cd 0.78182 0.94593 0.06227 0.0
Cd268 Cd 0.81272 0.89463 0.02718 0.0
O269 O 0.80306 0.8717 0.07328 0.0
O270 O 0.74733 0.9777 0.07595 0.0
O271 O 0.74046 0.94599 0.03542 0.0
C272 C 0.72894 0.96803 0.05337 0.0
C273 C 0.79829 0.87449 0.97375 0.0
C274 C 0.79521 0.88491 0.09996 0.0
C275 C 0.8522 0.9582 0.03729 0.0
O276 O 0.85195 0.92906 0.02884 0.0
O277 O 0.82609 0.97027 0.04852 0.0
O278 O 0.82092 0.86255 0.99007 0.0
O279 O 0.78268 0.89681 0.98786 0.0
O280 O 0.34577 0.71511 0.07943 0.0
Cd281 Cd 0.34633 0.6696 0.06345 0.0
Cd282 Cd 0.31123 0.68701 0.0199 0.0
O283 O 0.29987 0.71956 0.05487 0.0
O284 O 0.38364 0.6456 0.07672 0.0
O285 O 0.37202 0.65405 0.02637 0.0
C286 C 0.38898 0.63984 0.04694 0.0
C287 C 0.31523 0.70525 0.96845 0.0
C288 C 0.31945 0.72933 0.07576 0.0
C289 C 0.28998 0.63045 0.05357 0.0
O290 O 0.29312 0.64187 0.02597 0.0
O291 O 0.30638 0.64247 0.07574 0.0
O292 O 0.28745 0.70038 0.98264 0.0
O293 O 0.34128 0.69983 0.98357 0.0
O294 O 0.15082 0.48172 0.74665 0.0
Cd295 Cd 0.19172 0.49946 0.76733 0.0
Cd296 Cd 0.15483 0.52077 0.81273 0.0
O297 O 0.12004 0.5041 0.78306 0.0
O298 O 0.22966 0.47302 0.76157 0.0
O299 O 0.2048 0.48246 0.80812 0.0
C300 C 0.2277 0.46914 0.79193 0.0
C301 C 0.13827 0.51737 0.86543 0.0
C302 C 0.12281 0.4887 0.7574 0.0
C303 C 0.19633 0.56719 0.77554 0.0
O304 O 0.17831 0.56209 0.79994 0.0
O305 O 0.20461 0.54471 0.75752 0.0
O306 O 0.1254 0.53632 0.84622 0.0
O307 O 0.16169 0.50035 0.85502 0.0
O308 O 0.27812 0.40975 0.6076 0.0
Cd309 Cd 0.27421 0.44401 0.57106 0.0
Cd310 Cd 0.31119 0.39413 0.53558 0.0
O311 O 0.30407 0.37169 0.58196 0.0
O312 O 0.23943 0.4747 0.58681 0.0
O313 O 0.23261 0.44576 0.54436 0.0
C314 C 0.22088 0.46635 0.56391 0.0
C315 C 0.30028 0.37115 0.48244 0.0
C316 C 0.29131 0.38276 0.60788 0.0
C317 C 0.34535 0.45997 0.54676 0.0
O318 O 0.34689 0.43137 0.53703 0.0
O319 O 0.31862 0.47004 0.55896 0.0
O320 O 0.32424 0.36286 0.49933 0.0
O321 O 0.28144 0.39143 0.49587 0.0
O322 O 0.45349 0.5927 0.18574 0.0
Cd323 Cd 0.41547 0.58287 0.21657 0.0
Cd324 Cd 0.45982 0.55691 0.25157 0.0
O325 O 0.48911 0.5671 0.21282 0.0
O326 O 0.3808 0.61361 0.21263 0.0
O327 O 0.4094 0.60762 0.2558 0.0
C328 C 0.38624 0.62116 0.24174 0.0
C329 C 0.47892 0.56853 0.30132 0.0
C330 C 0.48201 0.58278 0.18863 0.0
C331 C 0.40178 0.51694 0.23387 0.0
O332 O 0.42714 0.51957 0.25015 0.0
O333 O 0.39362 0.53932 0.21642 0.0
O334 O 0.48947 0.54493 0.28515 0.0
O335 O 0.45818 0.58631 0.28855 0.0
Co336 Co 0.0363 0.05853 0.01367 0.0
C337 C 0.03314 0.1021 0.06612 0.0
Co338 Co 0.04463 0.03637 0.05887 0.0
C339 C 0.01832 0.06733 0.94891 0.0
C340 C 0.04229 0.10818 0.96841 0.0
N341 N 0.03164 0.07861 0.97562 0.0
N342 N 0.02029 0.08874 0.92547 0.0
C343 C 0.03509 0.11457 0.93761 0.0
H344 H 1.00744 0.0439 0.94665 0.0
H345 H 0.05514 0.12388 0.98427 0.0
C346 C 0.04799 0.99237 0.00736 0.0
N347 N 0.04919 0.01521 0.09613 0.0
C348 C 0.07307 0.01818 0.11708 0.0
C349 C 0.03242 0.98853 0.10454 0.0
N350 N 0.07197 0.99428 0.13792 0.0
C351 C 0.04637 0.97563 0.13026 0.0
C352 C 0.97863 0.03052 0.03875 0.0
O353 O 0.04247 0.01716 0.99147 0.0
O354 O 0.05229 0.99621 0.03687 0.0
O355 O 0.99829 0.02451 0.06046 0.0
O356 O 0.98935 0.04775 0.01589 0.0
O357 O 0.03719 0.07682 0.08175 0.0
H358 H 0.01279 0.97771 0.09144 0.0
H359 H 0.09184 0.03662 0.11622 0.0
O360 O 0.03014 0.09908 0.0362 0.0
O361 O 0.083 0.06972 0.01118 0.0
O362 O 0.09135 0.04849 0.05689 0.0
C363 C 0.10238 0.065 0.03359 0.0
H364 H 0.04108 0.13608 0.92482 0.0
H365 H 0.0396 0.95324 0.14106 0.0
Co366 Co 0.32604 0.78377 0.32518 0.0
C367 C 0.3197 0.72636 0.29605 0.0
Co368 Co 0.29678 0.78516 0.28245 0.0
C369 C 0.33145 0.79883 0.38875 0.0
C370 C 0.36791 0.76572 0.37688 0.0
N371 N 0.34466 0.78302 0.36421 0.0
N372 N 0.34471 0.79206 0.41639 0.0
C373 C 0.36795 0.77124 0.40927 0.0
H374 H 0.31068 0.81363 0.38667 0.0
H375 H 0.38278 0.74927 0.36377 0.0
C376 C 0.30442 0.84265 0.31031 0.0
N377 N 0.27759 0.78672 0.24357 0.0
C378 C 0.29188 0.77638 0.21656 0.0
C379 C 0.25109 0.80177 0.23429 0.0
N380 N 0.27624 0.78516 0.19074 0.0
C381 C 0.25004 0.80058 0.20159 0.0
C382 C 0.2577 0.77395 0.33321 0.0
O383 O 0.32158 0.82814 0.32947 0.0
O384 O 0.29084 0.828 0.28787 0.0
O385 O 0.25603 0.77646 0.30335 0.0
O386 O 0.28523 0.77659 0.34569 0.0
O387 O 0.3032 0.74179 0.27689 0.0
H388 H 0.23453 0.81399 0.25011 0.0
H389 H 0.314 0.76321 0.2158 0.0
O390 O 0.33085 0.74017 0.32036 0.0
O391 O 0.36667 0.79025 0.30452 0.0
O392 O 0.33781 0.79404 0.26192 0.0
C393 C 0.36522 0.79431 0.27488 0.0
H394 H 0.3834 0.76042 0.42612 0.0
H395 H 0.23225 0.81116 0.18695 0.0
Co396 Co 0.50981 0.04694 0.53412 0.0
C397 C 0.53357 0.11004 0.52121 0.0
Co398 Co 0.55746 0.05632 0.55397 0.0
C399 C 0.45409 0.01119 0.51455 0.0
C400 C 0.44538 0.06053 0.51783 0.0
N401 N 0.46916 0.03946 0.51843 0.0
N402 N 0.42151 0.01346 0.51395 0.0
C403 C 0.41612 0.04463 0.5151 0.0
H404 H 0.46669 0.98927 0.51465 0.0
H405 H 0.44853 0.08543 0.52292 0.0
C406 C 0.53463 0.99335 0.56682 0.0
N407 N 0.59726 0.06406 0.57077 0.0
C408 C 0.62277 0.07971 0.55715 0.0
C409 C 0.60719 0.05574 0.59962 0.0
N410 N 0.64815 0.08192 0.57651 0.0
C411 C 0.63868 0.06666 0.60318 0.0
C412 C 0.50638 0.07087 0.59423 0.0
O413 O 0.50995 1.0032 0.55249 0.0
O414 O 0.55846 0.01286 0.57001 0.0
O415 O 0.53719 0.07007 0.59287 0.0
O416 O 0.49038 0.0615 0.5708 0.0
O417 O 0.5572 0.10035 0.53722 0.0
H418 H 0.59233 0.04293 0.61705 0.0
H419 H 0.62268 0.08923 0.53345 0.0
O420 O 0.5101 0.09033 0.51653 0.0
O421 O 0.5287 0.03213 0.497 0.0
O422 O 0.57717 0.04239 0.51531 0.0
C423 C 0.5593 0.03195 0.49326 0.0
H424 H 0.39252 0.05508 0.51775 0.0
H425 H 0.65318 0.06435 0.62397 0.0
Co426 Co 0.32549 0.30897 0.79726 0.0
C427 C 0.29878 0.32408 0.73694 0.0
Co428 Co 0.273 0.29866 0.79585 0.0
C429 C 0.39177 0.30241 0.81564 0.0
C430 C 0.38724 0.33868 0.78126 0.0
N431 N 0.36984 0.31679 0.79804 0.0
N432 N 0.42219 0.31445 0.81053 0.0
C433 C 0.41938 0.3373 0.78888 0.0
H434 H 0.38531 0.28427 0.83274 0.0
H435 H 0.37717 0.35504 0.76496 0.0
C436 C 0.29843 0.28371 0.85567 0.0
N437 N 0.22881 0.29088 0.79526 0.0
C438 C 0.20767 0.30414 0.77604 0.0
C439 C 0.21091 0.26934 0.81208 0.0
N440 N 0.17745 0.29147 0.77972 0.0
C441 C 0.17931 0.26961 0.80251 0.0
C442 C 0.30944 0.24847 0.77877 0.0
O443 O 0.32486 0.29446 0.84242 0.0
O444 O 0.27296 0.28368 0.83934 0.0
O445 O 0.28032 0.25736 0.781 0.0
O446 O 0.33275 0.26775 0.78423 0.0
O447 O 0.27297 0.31436 0.75173 0.0
H448 H 0.22042 0.25336 0.82908 0.0
H449 H 0.21469 0.32125 0.75809 0.0
O450 O 0.32531 0.32302 0.75193 0.0
O451 O 0.31827 0.35062 0.81071 0.0
O452 O 0.26588 0.33925 0.81094 0.0
C453 C 0.28921 0.35867 0.81599 0.0
H454 H 0.43908 0.35235 0.77961 0.0
H455 H 0.15966 0.25375 0.8104 0.0
Co456 Co 0.02375 0.01519 0.51108 0.0
C457 C 0.02992 0.05238 0.56434 0.0
Co458 Co 0.04949 0.06061 0.50223 0.0
C459 C 0.01273 0.94945 0.50721 0.0
C460 C 0.98081 0.96925 0.54232 0.0
N461 N 1.00326 0.97703 0.51945 0.0
N462 N 0.99763 0.92489 0.52169 0.0
C463 C 0.97757 0.93685 0.54401 0.0
H464 H 0.03225 0.94723 0.48969 0.0
H465 H 0.96925 0.98588 0.55819 0.0
C466 C 0.0446 0.02371 0.44895 0.0
N467 N 0.06953 0.0996 0.49549 0.0
C468 C 0.05626 0.12627 0.50637 0.0
C469 C 0.10076 0.10781 0.48807 0.0
N470 N 0.07787 0.15052 0.50733 0.0
C471 C 0.10606 0.13923 0.4958 0.0
C472 C 0.09026 0.01314 0.5172 0.0
O473 O 0.02885 1.00469 0.46727 0.0
O474 O 0.05501 0.05009 0.45955 0.0
O475 O 0.09021 0.04241 0.51093 0.0
O476 O 0.06367 0.99737 0.51832 0.0
O477 O 0.04402 0.0714 0.54521 0.0
H478 H 0.11922 0.09141 0.48092 0.0
H479 H 0.03235 0.12696 0.5177 0.0
O480 O 0.01957 0.02578 0.55449 0.0
O481 O 0.9835 0.03292 0.50447 0.0
O482 O 1.00855 0.07805 0.49437 0.0
C483 C 0.98225 0.06211 0.49878 0.0
H484 H 0.96309 0.92323 0.56112 0.0
H485 H 0.12941 0.15168 0.4963 0.0
Co486 Co 0.28992 0.81787 0.81404 0.0
C487 C 0.22519 0.79551 0.82589 0.0
Co488 Co 0.27781 0.77419 0.7893 0.0
C489 C 0.31095 0.88062 0.82004 0.0
C490 C 0.2927 0.8641 0.86504 0.0
N491 N 0.29915 0.85476 0.83494 0.0
N492 N 0.31143 0.90596 0.83911 0.0
C493 C 0.30036 0.89594 0.86771 0.0
H494 H 0.31786 0.88123 0.79511 0.0
H495 H 0.28171 0.84916 0.8833 0.0
C496 C 0.3425 0.79579 0.77751 0.0
N497 N 0.26899 0.73845 0.76687 0.0
C498 C 0.25162 0.71299 0.77671 0.0
C499 C 0.27769 0.73235 0.73641 0.0
N500 N 0.24882 0.6913 0.75354 0.0
C501 C 0.26541 0.70308 0.72818 0.0
C502 C 0.26389 0.82676 0.75548 0.0
O503 O 0.33365 0.81916 0.79439 0.0
O504 O 0.32178 0.7736 0.77278 0.0
O505 O 0.26518 0.79712 0.75456 0.0
O506 O 0.27382 0.84135 0.77975 0.0
O507 O 0.23349 0.77443 0.80592 0.0
H508 H 0.29194 0.74823 0.72121 0.0
H509 H 0.24179 0.71021 0.80062 0.0
O510 O 0.2465 0.81643 0.83361 0.0
O511 O 0.30557 0.79463 0.84809 0.0
O512 O 0.29013 0.75064 0.82454 0.0
C513 C 0.30263 0.76477 0.84806 0.0
H514 H 0.29652 0.91079 0.88834 0.0
H515 H 0.26833 0.69138 0.70545 0.0
Co516 Co 0.53594 0.03568 0.01993 0.0
C517 C 0.59761 0.02097 0.04201 0.0
Co518 Co 0.54183 0.05016 0.06906 0.0
C519 C 0.51644 0.04512 0.95764 0.0
C520 C 0.53844 1.00032 0.96116 0.0
N521 N 0.53026 0.02598 0.97819 0.0
N522 N 0.51533 0.03258 0.9284 0.0
C523 C 0.52931 1.00436 0.93034 0.0
H524 H 0.50778 0.0681 0.9641 0.0
H525 H 0.55018 0.98008 0.97055 0.0
C526 C 0.48046 0.06457 0.04853 0.0
N527 N 0.54791 0.05992 0.11055 0.0
C528 C 0.5611 0.04025 0.13097 0.0
C529 C 0.54565 0.08766 0.12613 0.0
N530 N 0.56791 0.05462 0.15837 0.0
C531 C 0.55838 0.08451 0.15573 0.0
C532 C 0.56048 0.09672 0.02754 0.0
O533 O 0.49181 0.05271 0.02279 0.0
O534 O 0.49865 0.06562 0.07234 0.0
O535 O 0.55803 0.09083 0.05692 0.0
O536 O 0.55284 0.07541 0.00781 0.0
O537 O 0.58558 0.03456 0.06638 0.0
H538 H 0.53721 0.10913 0.11597 0.0
H539 H 0.56807 0.01649 0.12498 0.0
O540 O 0.58 0.01863 0.01765 0.0
O541 O 0.51905 0.9959 0.03152 0.0
O542 O 0.52553 0.00946 0.081 0.0
C543 C 0.5169 0.98899 0.06063 0.0
H544 H 0.53223 0.98769 0.91102 0.0
H545 H 0.56186 0.10295 0.17326 0.0
Co546 Co 0.28647 0.27297 0.30322 0.0
C547 C 0.35237 0.29413 0.30971 0.0
Co548 Co 0.29626 0.31943 0.28364 0.0
C549 C 0.26487 0.20931 0.30901 0.0
C550 C 0.28893 0.2254 0.35064 0.0
N551 N 0.27908 0.23488 0.32211 0.0
N552 N 0.26605 0.18408 0.32787 0.0
C553 C 0.28074 0.19397 0.35432 0.0
H554 H 0.25456 0.20897 0.28571 0.0
H555 H 0.30228 0.24004 0.36713 0.0
C556 C 0.23019 0.29817 0.27702 0.0
N557 N 0.30317 0.35733 0.26364 0.0
C558 C 0.32206 0.38268 0.27083 0.0
C559 C 0.29045 0.36407 0.23547 0.0
N560 N 0.32126 0.40494 0.24824 0.0
C561 C 0.30154 0.39323 0.22592 0.0
C562 C 0.30035 0.26878 0.23732 0.0
O563 O 0.2398 0.27469 0.29263 0.0
O564 O 0.25059 0.32095 0.27264 0.0
O565 O 0.30458 0.29836 0.24193 0.0
O566 O 0.29397 0.25207 0.26181 0.0
O567 O 0.34235 0.31816 0.29523 0.0
H568 H 0.27504 0.34823 0.22201 0.0
H569 H 0.33659 0.3845 0.29177 0.0
O570 O 0.33247 0.27075 0.31348 0.0
O571 O 0.27946 0.29351 0.34461 0.0
O572 O 0.2881 0.3406 0.32523 0.0
C573 C 0.283 0.32309 0.34952 0.0
H574 H 0.28644 0.1792 0.37407 0.0
H575 H 0.29682 0.40424 0.20355 0.0
Co576 Co 0.5368 0.51483 0.02399 0.0
C577 C 0.54431 0.55889 0.0711 0.0
Co578 Co 0.55668 0.56058 1.00676 0.0
C579 C 0.53967 0.4494 0.03411 0.0
C580 C 0.4964 0.46667 0.0563 0.0
N581 N 0.52308 0.47582 0.0389 0.0
N582 N 0.52496 0.42429 0.04798 0.0
C583 C 0.49721 0.43457 0.06143 0.0
H584 H 0.56162 0.44812 0.01946 0.0
H585 H 0.47741 0.48215 0.06427 0.0
C586 C 0.54915 0.51667 0.95975 0.0
N587 N 0.56996 0.6004 0.993 0.0
C588 C 0.55257 0.62577 1.00071 0.0
C589 C 0.59948 0.61227 0.9837 0.0
N590 N 0.57007 0.65288 0.99837 0.0
C591 C 0.5997 0.64469 0.98741 0.0
C592 C 0.60461 0.52146 0.02216 0.0
O593 O 0.53729 0.49922 0.98178 0.0
O594 O 0.55948 0.54452 0.96579 0.0
O595 O 0.60053 0.54961 0.01353 0.0
O596 O 0.58018 0.50327 0.02745 0.0
O597 O 0.5534 0.57675 0.04846 0.0
H598 H 0.6205 0.59827 0.97848 0.0
H599 H 0.52911 0.62428 0.01297 0.0
O600 O 0.53685 0.53021 0.06567 0.0
O601 O 0.49324 0.52716 0.02105 0.0
O602 O 0.51316 0.57096 1.00041 0.0
C603 C 0.48886 0.55438 0.01009 0.0
H604 H 0.47877 0.41991 0.07341 0.0
H605 H 0.62098 0.66034 0.9862 0.0
Co606 Co 0.79665 0.31526 0.30951 0.0
C607 C 0.73284 0.29187 0.32068 0.0
Co608 Co 0.78861 0.26915 0.2878 0.0
C609 C 0.82177 0.37754 0.31166 0.0
C610 C 0.79093 0.36793 0.35236 0.0
N611 N 0.80409 0.35448 0.32609 0.0
N612 N 0.81991 0.40486 0.32753 0.0
C613 C 0.80047 0.39934 0.35313 0.0
H614 H 0.83433 0.37485 0.28895 0.0
H615 H 0.77453 0.35601 0.36915 0.0
C616 C 0.85205 0.29038 0.27639 0.0
N617 N 0.77992 0.22998 0.27183 0.0
C618 C 0.76576 0.20708 0.28955 0.0
C619 C 0.78124 0.21825 0.24204 0.0
N620 N 0.75804 0.18152 0.27236 0.0
C621 C 0.76731 0.18822 0.24226 0.0
C622 C 0.77452 0.31762 0.24857 0.0
O623 O 0.84203 0.31435 0.29195 0.0
O624 O 0.832 0.26764 0.27163 0.0
O625 O 0.77545 0.28775 0.24945 0.0
O626 O 0.78308 0.33353 0.27248 0.0
O627 O 0.74449 0.26977 0.30395 0.0
H628 H 0.79028 0.23115 0.22146 0.0
H629 H 0.75915 0.20983 0.3144 0.0
O630 O 0.75168 0.31542 0.32666 0.0
O631 O 0.81009 0.29797 0.34669 0.0
O632 O 0.80216 0.25092 0.32655 0.0
C633 C 0.81065 0.26842 0.34955 0.0
H634 H 0.79321 0.41683 0.3705 0.0
H635 H 0.76346 0.17292 0.22201 0.0
Co636 Co 0.02901 0.53097 0.52332 0.0
C637 C 0.08796 0.51589 0.55091 0.0
Co638 Co 0.02775 0.54039 0.57418 0.0
C639 C 0.01672 0.54717 0.45997 0.0
C640 C 0.04294 0.50446 0.46174 0.0
N641 N 0.02972 0.52704 0.48016 0.0
N642 N 0.02088 0.53794 0.42967 0.0
C643 C 0.03755 0.51117 0.43052 0.0
H644 H 1.00455 0.56833 0.46739 0.0
H645 H 0.05536 0.48433 0.47046 0.0
C646 C 0.96955 0.55631 0.54796 0.0
N647 N 0.02735 0.5433 0.61739 0.0
C648 C 0.03659 0.51946 0.63544 0.0
C649 C 0.02088 0.56697 0.6378 0.0
N650 N 0.03686 0.52704 0.66629 0.0
C651 C 0.027 0.55705 0.66808 0.0
C652 C 0.04933 0.59168 0.54135 0.0
O653 O 0.98424 0.54671 0.52277 0.0
O654 O 0.9841 0.55467 0.57398 0.0
O655 O 0.04372 0.58294 0.56977 0.0
O656 O 0.04505 0.5722 0.51892 0.0
O657 O 0.0722 0.52612 0.57502 0.0
H658 H 0.01378 0.59023 0.631 0.0
H659 H 0.04466 0.49723 0.62586 0.0
O660 O 0.0737 0.51573 0.52447 0.0
O661 O 0.01308 0.48922 0.52714 0.0
O662 O 0.01176 0.49806 0.57805 0.0
C663 C 1.00789 0.4792 0.555 0.0
H664 H 0.04448 0.49704 0.41012 0.0
H665 H 0.02659 0.57156 0.68926 0.0
Co666 Co 0.82218 0.80791 0.28993 0.0
C667 C 0.80134 0.82295 0.22761 0.0
Co668 Co 0.77307 0.78959 0.28153 0.0
C669 C 0.88581 0.80178 0.31135 0.0
C670 C 0.8809 0.84792 0.29243 0.0
N671 N 0.8645 0.82039 0.29756 0.0
N672 N 0.91486 0.81642 0.31552 0.0
C673 C 0.91201 0.84551 0.30342 0.0
H674 H 0.87996 0.7777 0.31796 0.0
H675 H 0.8708 0.86842 0.28182 0.0
C676 C 0.79216 0.77562 0.34372 0.0
N677 N 0.73154 0.77604 0.27442 0.0
C678 C 0.71005 0.79167 0.25772 0.0
C679 C 0.71681 0.74804 0.28141 0.0
N680 N 0.68281 0.77426 0.25304 0.0
C681 C 0.68661 0.74689 0.26824 0.0
C682 C 0.81857 0.74714 0.2654 0.0
O683 O 0.81855 0.78913 0.33338 0.0
O684 O 0.76882 0.77321 0.32461 0.0
O685 O 0.78817 0.75079 0.26694 0.0
O686 O 0.83745 0.76971 0.27338 0.0
O687 O 0.77682 0.80642 0.23778 0.0
H688 H 0.72787 0.72925 0.29403 0.0
H689 H 0.71473 0.81514 0.24846 0.0
O690 O 0.82492 0.82703 0.24661 0.0
O691 O 0.80714 0.84591 0.30656 0.0
O692 O 0.75786 0.82813 0.29652 0.0
C693 C 0.77669 0.84955 0.30736 0.0
H694 H 0.93078 0.86396 0.30317 0.0
H695 H 0.66952 0.72697 0.26837 0.0
Co696 Co 0.83287 0.30008 0.82368 0.0
C697 C 0.82746 0.24876 0.78365 0.0
Co698 Co 0.80947 0.31078 0.77881 0.0
C699 C 0.83079 0.29924 0.88958 0.0
C700 C 0.86926 0.27004 0.87328 0.0
N701 N 0.84676 0.28982 0.86317 0.0
N702 N 0.84145 0.2857 0.91573 0.0
C703 C 0.86628 0.26776 0.90595 0.0
H704 H 0.81124 0.31572 0.88958 0.0
H705 H 0.88596 0.25746 0.85792 0.0
C706 C 0.81598 0.36177 0.81877 0.0
N707 N 0.79542 0.32232 0.73916 0.0
C708 C 0.78954 0.3025 0.71484 0.0
C709 C 0.80201 0.35053 0.72528 0.0
N710 N 0.79453 0.31647 0.68656 0.0
C711 C 0.80175 0.34687 0.69293 0.0
C712 C 0.76426 0.29324 0.82244 0.0
O713 O 0.82933 0.34298 0.83713 0.0
O714 O 0.80579 0.35208 0.7924 0.0
O715 O 0.7662 0.30209 0.79377 0.0
O716 O 0.7899 0.29132 0.83808 0.0
O717 O 0.81392 0.26806 0.7658 0.0
H718 H 0.81132 0.37132 0.73735 0.0
H719 H 0.78652 0.27732 0.71736 0.0
O720 O 0.83653 0.258 0.8107 0.0
O721 O 0.87576 0.30794 0.80826 0.0
O722 O 0.85244 0.31919 0.76381 0.0
C723 C 0.87803 0.31537 0.77915 0.0
H724 H 0.88065 0.25365 0.92116 0.0
H725 H 0.81088 0.36397 0.6757 0.0
Co726 Co 0.78054 0.77909 0.79406 0.0
C727 C 0.84619 0.80259 0.79708 0.0
Co728 Co 0.78804 0.82552 0.77368 0.0
C729 C 0.75843 0.71509 0.80326 0.0
C730 C 0.79038 0.73153 0.83943 0.0
N731 N 0.77567 0.74061 0.81295 0.0
N732 N 0.76222 0.69045 0.82245 0.0
C733 C 0.78229 0.70046 0.84521 0.0
H734 H 0.74438 0.71422 0.78197 0.0
H735 H 0.80653 0.74638 0.85324 0.0
C736 C 0.72243 0.80255 0.77022 0.0
N737 N 0.79254 0.86415 0.7549 0.0
C738 C 0.81222 0.88868 0.76264 0.0
C739 C 0.7762 0.87384 0.72971 0.0
N740 N 0.8085 0.91353 0.7435 0.0
C741 C 0.78586 0.90422 0.72272 0.0
C742 C 0.79207 0.77558 0.72738 0.0
O743 O 0.73347 0.77904 0.78478 0.0
O744 O 0.74184 0.82602 0.76549 0.0
O745 O 0.79438 0.80543 0.7314 0.0
O746 O 0.78789 0.75884 0.75228 0.0
O747 O 0.83474 0.82539 0.78185 0.0
H748 H 0.75863 0.85959 0.71695 0.0
H749 H 0.82964 0.88778 0.78127 0.0
O750 O 0.82702 0.7791 0.80303 0.0
O751 O 0.77366 0.79871 0.8358 0.0
O752 O 0.78187 0.84571 0.8163 0.0
C753 C 0.77738 0.82824 0.84074 0.0
H754 H 0.79079 0.68616 0.86421 0.0
H755 H 0.77708 0.91827 0.70367 0.0
Co756 Co 0.52753 0.56275 0.51961 0.0
C757 C 0.52485 0.60746 0.57137 0.0
Co758 Co 0.53566 0.54159 0.56547 0.0
C759 C 0.51062 0.56977 0.45465 0.0
C760 C 0.53183 0.61207 0.47407 0.0
N761 N 0.52237 0.58221 0.48152 0.0
N762 N 0.51265 0.5906 0.43073 0.0
C763 C 0.52564 0.61736 0.44281 0.0
H764 H 0.50113 0.54579 0.45254 0.0
H765 H 0.54343 0.62867 0.49004 0.0
C766 C 0.53818 0.4964 0.51492 0.0
N767 N 0.5411 0.52091 0.60342 0.0
C768 C 0.56837 0.51893 0.62016 0.0
C769 C 0.5201 0.49933 0.61681 0.0
N770 N 0.56515 0.49694 0.64292 0.0
C771 C 0.53471 0.4849 0.64129 0.0
C772 C 0.46967 0.53581 0.54625 0.0
O773 O 0.53416 0.52083 0.49796 0.0
O774 O 0.54125 0.50094 0.54451 0.0
O775 O 0.48927 0.53104 0.56831 0.0
O776 O 0.48052 0.55154 0.52236 0.0
O777 O 0.52978 0.58258 0.58732 0.0
H778 H 0.49607 0.49316 0.60872 0.0
H779 H 0.59029 0.53311 0.61581 0.0
O780 O 0.52109 0.60381 0.54161 0.0
O781 O 0.57401 0.5742 0.5163 0.0
O782 O 0.58259 0.55259 0.56174 0.0
C783 C 0.59368 0.56876 0.53822 0.0
H784 H 0.53138 0.6387 0.42964 0.0
H785 H 0.52409 0.46655 0.65636 0.0
Co786 Co 0.0328 0.53665 0.03203 0.0
C787 C 0.05644 0.60058 0.02229 0.0
Co788 Co 0.07957 0.54639 0.05342 0.0
C789 C 0.96703 0.51739 0.0309 0.0
C790 C 0.982 0.53659 0.98591 0.0
N791 N 0.99296 0.52964 0.01478 0.0
N792 N 0.94015 0.51684 0.01368 0.0
C793 C 0.9493 0.52835 0.98507 0.0
H794 H 0.96787 0.50887 0.05496 0.0
H795 H 0.99668 0.54727 0.96698 0.0
C796 C 0.056 0.48277 0.06341 0.0
N797 N 0.11882 0.5523 0.07198 0.0
C798 C 0.14662 0.56428 0.05898 0.0
C799 C 0.12672 0.54218 0.10091 0.0
N800 N 0.17173 0.56161 0.07846 0.0
C801 C 0.15931 0.54809 0.10505 0.0
C802 C 0.02787 0.55986 0.09244 0.0
O803 O 0.03159 0.49266 0.04876 0.0
O804 O 0.07953 0.50242 0.0675 0.0
O805 O 0.05857 0.55859 0.09194 0.0
O806 O 0.01234 0.55091 0.06857 0.0
O807 O 0.0797 0.59108 0.039 0.0
H808 H 0.10997 0.53063 0.11763 0.0
H809 H 0.14828 0.5749 0.03575 0.0
O810 O 0.03396 0.58025 0.01578 0.0
O811 O 0.05295 0.5228 0.99508 0.0
O812 O 0.10066 0.53427 0.01459 0.0
C813 C 0.08362 0.52423 0.99181 0.0
H814 H 0.93344 0.53098 0.96532 0.0
H815 H 0.17291 0.54261 0.12576 0.0
C816 C 0.03496 0.16844 0.13057 0.0
C817 C 0.04191 0.19689 0.11381 0.0
C818 C 0.03185 0.1385 0.11527 0.0
C819 C 0.0348 0.13487 0.08202 0.0
H820 H 0.03228 0.16908 0.15614 0.0
H821 H 0.02709 0.11789 0.12985 0.0
S822 S 0.05294 0.20122 0.02624 0.0
N823 N 0.05187 0.21866 0.06134 0.0
N824 N 0.04537 0.16337 0.03285 0.0
C825 C 0.04144 0.16314 0.06486 0.0
C826 C 0.04515 0.19363 0.08053 0.0
C827 C 0.16929 0.77101 0.36137 0.0
C828 C 0.17137 0.76755 0.39444 0.0
C829 C 0.19719 0.7722 0.34156 0.0
C830 C 0.22829 0.7699 0.35401 0.0
H831 H 0.14593 0.7734 0.35061 0.0
H832 H 0.19434 0.77561 0.31641 0.0
S833 S 0.24716 0.75853 0.43879 0.0
N834 N 0.2072 0.76047 0.43854 0.0
N835 N 0.2595 0.76233 0.40148 0.0
C836 C 0.23071 0.76549 0.38696 0.0
C837 C 0.20232 0.76443 0.40712 0.0
C838 C 0.56506 0.90853 0.57938 0.0
C839 C 0.54348 0.89492 0.60264 0.0
C840 C 0.56191 0.93984 0.56806 0.0
C841 C 0.53659 0.95945 0.5787 0.0
H842 H 0.58504 0.89498 0.56997 0.0
H843 H 0.57956 0.94876 0.55055 0.0
S844 S 0.47485 0.93735 0.64118 0.0
N845 N 0.4966 0.90543 0.63706 0.0
N846 N 0.49049 0.96314 0.61539 0.0
C847 C 0.51488 0.94637 0.60195 0.0
C848 C 0.51835 0.91463 0.61391 0.0
C849 C 0.50048 0.327 0.85263 0.0
C850 C 0.50648 0.29693 0.86459 0.0
C851 C 0.47327 0.33227 0.83466 0.0
C852 C 0.45086 0.30773 0.82774 0.0
H853 H 0.51659 0.34698 0.85764 0.0
H854 H 0.46934 0.35605 0.82686 0.0
S855 S 0.45649 0.22405 0.85125 0.0
N856 N 0.48845 0.24185 0.86702 0.0
N857 N 0.4374 0.25173 0.83256 0.0
C858 C 0.45686 0.27732 0.83881 0.0
C859 C 0.48466 0.27193 0.85733 0.0
C860 C 0.01477 0.85102 0.47921 0.0
C861 C 0.04117 0.83976 0.49597 0.0
C862 C 0.99824 0.87746 0.48962 0.0
C863 C 1.00709 0.89322 0.51733 0.0
H864 H 1.00767 0.84033 0.45698 0.0
H865 H 0.9798 0.88695 0.47493 0.0
S866 S 0.07139 0.87203 0.57195 0.0
N867 N 0.07323 0.84516 0.54348 0.0
N868 N 0.0417 0.8953 0.56274 0.0
C869 C 0.03169 0.88126 0.53556 0.0
C870 C 0.04883 0.85433 0.52497 0.0
C871 C 0.42636 0.81729 0.73938 0.0
C872 C 0.44128 0.78786 0.73629 0.0
C873 C 0.39489 0.82003 0.75349 0.0
C874 C 0.3766 0.79332 0.76422 0.0
H875 H 0.43916 0.83844 0.731 0.0
H876 H 0.3845 0.84313 0.75528 0.0
S877 S 0.40424 0.71084 0.76177 0.0
N878 N 0.43507 0.73156 0.74583 0.0
N879 N 0.37619 0.73655 0.77108 0.0
C880 C 0.39127 0.76385 0.76121 0.0
C881 C 0.42344 0.76116 0.74762 0.0
C882 C 0.60228 0.17727 0.02344 0.0
C883 C 0.59277 0.18853 0.99395 0.0
C884 C 0.59141 0.14764 0.03444 0.0
C885 C 0.57118 0.1281 0.01603 0.0
H886 H 0.61795 0.19156 0.03835 0.0
H887 H 0.59924 0.13984 0.05729 0.0
S888 S 0.53907 0.14672 0.93722 0.0
N889 N 0.56166 0.178 0.9467 0.0
N890 N 0.54153 0.12225 0.96715 0.0
C891 C 0.56151 0.13909 0.98649 0.0
C892 C 0.57222 0.16936 0.97549 0.0
C893 C 0.14435 0.27136 0.2486 0.0
C894 C 0.1374 0.29321 0.22469 0.0
C895 C 0.17366 0.27332 0.26578 0.0
C896 C 0.19742 0.29773 0.26066 0.0
H897 H 0.12734 0.25193 0.25358 0.0
H898 H 0.17784 0.25524 0.28302 0.0
S899 S 0.1904 0.36246 0.20228 0.0
N900 N 0.15686 0.34074 0.19779 0.0
N901 N 0.21043 0.34524 0.23032 0.0
C902 C 0.19014 0.3203 0.23749 0.0
C903 C 0.16075 0.31785 0.21956 0.0
C904 C 0.15194 0.99127 0.17728 0.0
C905 C 0.14252 0.98171 0.20804 0.0
C906 C 0.12876 0.99455 0.15414 0.0
C907 C 0.09561 0.98808 0.16102 0.0
H908 H 0.177 0.99808 0.17155 0.0
H909 H 0.13668 1.00292 0.13094 0.0
S910 S 0.05912 0.95858 0.23676 0.0
N911 N 0.09839 0.96267 0.24328 0.0
N912 N 0.05479 0.96934 0.19968 0.0
C913 C 0.08619 0.97651 0.19098 0.0
C914 C 0.10971 0.97317 0.21455 0.0
C915 C 0.30429 0.8449 0.47546 0.0
C916 C 0.30157 0.8263 0.50275 0.0
C917 C 0.31997 0.83396 0.44808 0.0
C918 C 0.33285 0.80366 0.44648 0.0
H919 H 0.29527 0.86861 0.47554 0.0
H920 H 0.32193 0.84944 0.4278 0.0
S921 S 0.33067 0.74514 0.5113 0.0
N922 N 0.31287 0.77619 0.52695 0.0
N923 N 0.34093 0.75475 0.47442 0.0
C924 C 0.33011 0.78461 0.47356 0.0
C925 C 0.31468 0.79611 0.50189 0.0
C926 C 0.4791 0.07134 0.6798 0.0
C927 C 0.44631 0.07947 0.67764 0.0
C928 C 0.49977 0.07111 0.6529 0.0
C929 C 0.48818 0.07918 0.62324 0.0
H930 H 0.48841 0.06349 0.70205 0.0
H931 H 0.52415 0.06258 0.65499 0.0
S932 S 0.40646 0.1084 0.60631 0.0
N933 N 0.4047 0.10009 0.64446 0.0
N934 N 0.44364 0.10008 0.59396 0.0
C935 C 0.45635 0.09002 0.62135 0.0
C936 C 0.43531 0.08998 0.64856 0.0
C937 C 0.26317 0.2587 0.93812 0.0
C938 C 0.28875 0.24358 0.95299 0.0
C939 C 0.26677 0.2716 0.90724 0.0
C940 C 0.29642 0.27099 0.88944 0.0
H941 H 0.23967 0.26005 0.95019 0.0
H942 H 0.24587 0.28226 0.89718 0.0
S943 S 0.3716 0.23475 0.91686 0.0
N944 N 0.34524 0.22891 0.94669 0.0
N945 N 0.35214 0.25387 0.88964 0.0
C946 C 0.32246 0.2565 0.90415 0.0
C947 C 0.3186 0.24268 0.93544 0.0
C948 C 0.08198 0.03146 0.36789 0.0
C949 C 0.10078 1.00434 0.36551 0.0
C950 C 0.06073 0.03614 0.39372 0.0
C951 C 0.05698 0.01359 0.41773 0.0
H952 H 0.08525 0.05034 0.35086 0.0
H953 H 0.04887 0.05852 0.39604 0.0
S954 S 0.0958 0.93603 0.41985 0.0
N955 N 0.11094 0.95275 0.38722 0.0
N956 N 0.07034 0.96142 0.43571 0.0
C957 C 0.07296 0.98496 0.41408 0.0
C958 C 0.09514 0.98038 0.38798 0.0
C959 C 0.25865 0.88914 0.69276 0.0
C960 C 0.24381 0.87202 0.66819 0.0
C961 C 0.26319 0.87508 0.72217 0.0
C962 C 0.25291 0.84362 0.72763 0.0
H963 H 0.26917 0.91249 0.68845 0.0
H964 H 0.27678 0.88815 0.7398 0.0
S965 S 0.20599 0.79181 0.6731 0.0
N966 N 0.21416 0.82428 0.65272 0.0
N967 N 0.22206 0.79794 0.70805 0.0
C968 C 0.23494 0.82762 0.7043 0.0
C969 C 0.23055 0.84184 0.67449 0.0
C970 C 0.50102 0.05148 0.84362 0.0
C971 C 0.47231 0.06857 0.84567 0.0
C972 C 0.51551 0.04066 0.87083 0.0
C973 C 0.50168 0.04638 0.90102 0.0
H974 H 0.5116 0.04519 0.82073 0.0
H975 H 0.53724 0.02704 0.8682 0.0
S976 S 0.42709 0.09103 0.91915 0.0
N977 N 0.43139 0.09215 0.8802 0.0
N978 N 0.45803 0.07105 0.93143 0.0
C979 C 0.47375 0.06472 0.90348 0.0
C980 C 0.45924 0.07608 0.87574 0.0
C981 C 0.29796 0.20702 0.16875 0.0
C982 C 0.29442 0.22466 0.14067 0.0
C983 C 0.30032 0.22128 0.19923 0.0
C984 C 0.29993 0.25429 0.20385 0.0
H985 H 0.29846 0.18155 0.16738 0.0
H986 H 0.30238 0.20606 0.21949 0.0
S987 S 0.29148 0.31211 0.13887 0.0
N988 N 0.29065 0.27771 0.1203 0.0
N989 N 0.29575 0.30429 0.17675 0.0
C990 C 0.29681 0.27236 0.176 0.0
C991 C 0.29388 0.25774 0.14489 0.0
C992 C 0.18982 0.09051 0.05826 0.0
C993 C 0.1977 0.11764 0.03985 0.0
C994 C 0.15965 0.07339 0.05581 0.0
C995 C 0.13579 0.08186 0.03423 0.0
H996 H 0.20685 0.08276 0.07543 0.0
H997 H 0.15493 0.0534 0.07124 0.0
S998 S 0.14399 0.15038 0.97969 0.0
N999 N 0.1784 0.15165 0.99887 0.0
N1000 N 0.12296 0.11955 0.99372 0.0
C1001 C 0.14367 0.10854 0.01521 0.0
C1002 C 0.17407 0.12628 0.01814 0.0
C1003 C 0.68443 0.51183 0.06119 0.0
C1004 C 0.692 0.48062 0.05283 0.0
C1005 C 0.65736 0.52621 0.04896 0.0
C1006 C 0.63683 0.50964 0.02836 0.0
H1007 H 0.699 0.52501 0.07798 0.0
H1008 H 0.65137 0.54962 0.05719 0.0
S1009 S 0.6477 0.42915 0.99601 0.0
N1010 N 0.67831 0.43491 0.02004 0.0
N1011 N 0.62699 0.46181 0.99781 0.0
C1012 C 0.64497 0.47918 0.01848 0.0
C1013 C 0.67273 0.46467 0.0305 0.0
C1014 C 0.88029 0.46395 0.29542 0.0
C1015 C 0.86042 0.48829 0.28584 0.0
C1016 C 0.86685 0.43711 0.31015 0.0
C1017 C 0.83333 0.43412 0.31639 0.0
H1018 H 0.90637 0.46537 0.29109 0.0
H1019 H 0.8826 0.41829 0.3164 0.0
S1020 S 0.77068 0.49066 0.29643 0.0
N1021 N 0.80533 0.50754 0.28376 0.0
N1022 N 0.78034 0.45674 0.312 0.0
C1023 C 0.81315 0.4582 0.30743 0.0
C1024 C 0.82667 0.4854 0.29192 0.0
C1025 C 0.88381 0.58043 0.5744 0.0
C1026 C 0.87494 0.6022 0.55127 0.0
C1027 C 0.91394 0.56535 0.57272 0.0
C1028 C 0.93658 0.57065 0.54747 0.0
H1029 H 0.86758 0.57534 0.59447 0.0
H1030 H 0.91963 0.54943 0.59156 0.0
S1031 S 0.92667 0.6264 0.48143 0.0
N1032 N 0.89247 0.6289 0.50263 0.0
N1033 N 0.94842 0.60012 0.49929 0.0
C1034 C 0.92804 0.59204 0.52397 0.0
C1035 C 0.89752 0.60786 0.52592 0.0
C1036 C 0.2274 0.10361 0.33319 0.0
C1037 C 0.23525 0.09069 0.30323 0.0
C1038 C 0.23816 0.13403 0.34141 0.0
C1039 C 0.25661 0.15251 0.31978 0.0
H1040 H 0.21288 0.09017 0.35046 0.0
H1041 H 0.23146 0.14347 0.3645 0.0
S1042 S 0.28498 0.12961 0.23904 0.0
N1043 N 0.26353 0.09865 0.25223 0.0
N1044 N 0.28374 0.15586 0.26803 0.0
C1045 C 0.2651 0.13986 0.29003 0.0
C1046 C 0.25443 0.10888 0.28167 0.0
C1047 C 0.33945 0.9751 0.52562 0.0
C1048 C 0.34511 0.95096 0.54722 0.0
C1049 C 0.36502 0.99369 0.51285 0.0
C1050 C 0.39722 0.98932 0.52154 0.0
H1051 H 0.31497 0.98012 0.51882 0.0
H1052 H 0.35939 0.01257 0.497 0.0
S1053 S 0.42519 0.92638 0.57433 0.0
N1054 N 0.38535 0.92111 0.57407 0.0
N1055 N 0.43359 0.95694 0.55131 0.0
C1056 C 0.40346 0.96394 0.54174 0.0
C1057 C 0.3773 0.94461 0.55434 0.0
C1058 C 0.82172 0.66215 0.23926 0.0
C1059 C 0.85328 0.65404 0.24717 0.0
C1060 C 0.81097 0.69266 0.24443 0.0
C1061 C 0.83159 0.71618 0.25722 0.0
H1062 H 0.8049 0.64464 0.22969 0.0
H1063 H 0.78616 0.69768 0.23874 0.0
S1064 S 0.91751 0.70732 0.27955 0.0
N1065 N 0.90567 0.67204 0.2669 0.0
N1066 N 0.88574 0.72966 0.27612 0.0
C1067 C 0.86368 0.70861 0.26414 0.0
C1068 C 0.87444 0.67741 0.2593 0.0
C1069 C 0.80254 0.44442 0.80378 0.0
C1070 C 0.77016 0.44628 0.81515 0.0
C1071 C 0.82085 0.41825 0.81026 0.0
C1072 C 0.80738 0.39341 0.82845 0.0
H1073 H 0.81283 0.4618 0.78739 0.0
H1074 H 0.844 0.41565 0.79774 0.0
S1075 S 0.72702 0.39023 0.87002 0.0
N1076 N 0.7278 0.42386 0.8505 0.0
N1077 N 0.76265 0.3745 0.86253 0.0
C1078 C 0.7771 0.39712 0.84382 0.0
C1079 C 0.75822 0.42368 0.83711 0.0
C1080 C 0.05342 0.90086 0.9979 0.0
C1081 C 0.03911 0.89365 0.96849 0.0
C1082 C 0.05667 0.93238 0.00982 0.0
C1083 C 0.04627 0.95893 0.99297 0.0
H1084 H 0.06241 0.88195 0.01196 0.0
H1085 H 0.06754 0.93592 0.03266 0.0
S1086 S 1.00559 0.95396 0.91557 0.0
N1087 N 0.01327 0.91696 0.92346 0.0
N1088 N 0.01979 0.97498 0.94544 0.0
C1089 C 0.03179 0.95209 0.96368 0.0
C1090 C 0.02815 0.92006 0.95167 0.0
C1091 C 0.93831 0.32106 0.71078 0.0
C1092 C 0.95423 0.2923 0.7127 0.0
C1093 C 0.91532 0.32988 0.73404 0.0
C1094 C 0.90816 0.31072 0.76048 0.0
H1095 H 0.94278 0.33641 0.69064 0.0
H1096 H 0.90207 0.35121 0.73068 0.0
S1097 S 0.94368 0.23368 0.77743 0.0
N1098 N 0.96165 0.24503 0.74378 0.0
N1099 N 0.91893 0.26209 0.78765 0.0
C1100 C 0.92482 0.2826 0.76342 0.0
C1101 C 0.94769 0.27323 0.73945 0.0
C1102 C 0.50503 0.19303 0.49556 0.0
C1103 C 0.53232 0.20678 0.47901 0.0
C1104 C 0.5055 0.16215 0.50896 0.0
C1105 C 0.53358 0.14352 0.50756 0.0
H1106 H 0.48261 0.20569 0.4971 0.0
H1107 H 0.48353 0.15275 0.5206 0.0
S1108 S 0.61163 0.16787 0.46714 0.0
N1109 N 0.5882 0.19817 0.46188 0.0
N1110 N 0.58946 0.14194 0.48806 0.0
C1111 C 0.56116 0.15733 0.4918 0.0
C1112 C 0.5604 0.18822 0.47735 0.0
C1113 C 0.59942 0.77787 0.22121 0.0
C1114 C 0.6052 0.79228 0.19157 0.0
C1115 C 0.62486 0.77266 0.24144 0.0
C1116 C 0.65689 0.78169 0.23278 0.0
H1117 H 0.57508 0.77011 0.2287 0.0
H1118 H 0.61954 0.76124 0.26393 0.0
S1119 S 0.68516 0.81964 0.15755 0.0
N1120 N 0.64533 0.81557 0.15456 0.0
N1121 N 0.69339 0.8052 0.19249 0.0
C1122 C 0.66305 0.79659 0.20346 0.0
C1123 C 0.63709 0.80207 0.18288 0.0
C1124 C 0.05986 0.23066 0.5392 0.0
C1125 C 0.05452 0.22433 0.57165 0.0
C1126 C 0.06913 0.20668 0.51803 0.0
C1127 C 0.07418 0.1762 0.52905 0.0
H1128 H 0.05604 0.25401 0.5301 0.0
H1129 H 0.07148 0.21163 0.49294 0.0
S1130 S 0.06797 0.14892 0.61215 0.0
N1131 N 0.05756 0.18617 0.614 0.0
N1132 N 0.07602 0.14154 0.57433 0.0
C1133 C 0.07053 0.17012 0.56157 0.0
C1134 C 0.0604 0.19411 0.58289 0.0
C1135 C 0.65176 0.31066 0.36427 0.0
C1136 C 0.63125 0.28423 0.3576 0.0
C1137 C 0.68426 0.31322 0.35221 0.0
C1138 C 0.69795 0.28941 0.33298 0.0
H1139 H 0.64273 0.32956 0.3791 0.0
H1140 H 0.69881 0.33399 0.35824 0.0
S1141 S 0.65498 0.21497 0.30861 0.0
N1142 N 0.62762 0.23362 0.33034 0.0
N1143 N 0.68784 0.23824 0.30807 0.0
C1144 C 0.67761 0.26289 0.32611 0.0
C1145 C 0.64463 0.26036 0.33826 0.0
C1146 C 0.5176 0.90074 0.05686 0.0
C1147 C 0.51429 0.89241 0.08887 0.0
C1148 C 0.51514 0.932 0.04755 0.0
C1149 C 0.51025 0.95606 0.07013 0.0
H1150 H 0.52385 0.88321 0.0391 0.0
H1151 H 0.5197 0.93753 0.02278 0.0
S1152 S 0.49597 0.9454 0.1566 0.0
N1153 N 0.50221 0.90951 0.14279 0.0
N1154 N 0.49842 0.96885 0.12551 0.0
C1155 C 0.50439 0.94759 0.10199 0.0
C1156 C 0.50625 0.91553 0.11134 0.0
C1157 C 0.91983 0.78398 0.84815 0.0
C1158 C 0.94156 0.81019 0.84409 0.0
C1159 C 0.89 0.78128 0.83214 0.0
C1160 C 0.87991 0.8047 0.81117 0.0
H1161 H 0.92576 0.7653 0.86412 0.0
H1162 H 0.87435 0.76076 0.83686 0.0
S1163 S 0.92749 0.87835 0.79177 0.0
N1164 N 0.95046 0.86013 0.81683 0.0
N1165 N 0.89491 0.85522 0.78734 0.0
C1166 C 0.90156 0.83092 0.80663 0.0
C1167 C 0.93205 0.8336 0.82282 0.0
C1168 C 0.98123 0.10373 0.8483 0.0
C1169 C 0.98877 0.07662 0.83048 0.0
C1170 C 0.99193 0.10771 0.87929 0.0
C1171 C 1.0101 0.08458 0.89356 0.0
H1172 H 0.96661 0.12183 0.83848 0.0
H1173 H 0.98541 0.12868 0.89247 0.0
S1174 S 0.0391 0.01093 0.85657 0.0
N1175 N 0.01766 0.02728 0.82902 0.0
N1176 N 0.03728 0.03499 0.88741 0.0
C1177 C 0.01852 0.05783 0.87595 0.0
C1178 C 1.008 0.05383 0.84432 0.0
C1179 C 0.79724 0.27746 0.60726 0.0
C1180 C 0.82492 0.2588 0.60927 0.0
C1181 C 0.78805 0.29763 0.63208 0.0
C1182 C 0.80647 0.29992 0.6593 0.0
H1183 H 0.78137 0.27505 0.5873 0.0
H1184 H 0.76572 0.31031 0.63072 0.0
S1185 S 0.88344 0.26038 0.67436 0.0
N1186 N 0.87244 0.2468 0.63938 0.0
N1187 N 0.85529 0.28527 0.68579 0.0
C1188 C 0.83541 0.28339 0.66066 0.0
C1189 C 0.84464 0.26266 0.63564 0.0
C1190 C 0.62057 0.02067 0.42625 0.0
C1191 C 0.60044 0.01291 0.40091 0.0
C1192 C 0.60727 0.02527 0.4567 0.0
C1193 C 0.57353 0.02187 0.4626 0.0
H1194 H 0.64639 0.02531 0.42216 0.0
H1195 H 0.62333 0.03301 0.47528 0.0
S1196 S 0.51175 0.99546 0.40474 0.0
N1197 N 0.5463 0.99784 0.38394 0.0
N1198 N 0.52105 1.00551 0.44127 0.0
C1199 C 0.55366 0.01124 0.43781 0.0
C1200 C 0.56721 1.00704 0.40685 0.0
C1201 C 0.78235 0.83867 0.13877 0.0
C1202 C 0.79816 0.86803 0.13183 0.0
C1203 C 0.78348 0.82442 0.16933 0.0
C1204 C 0.80142 0.83805 0.19453 0.0
H1205 H 0.76814 0.82696 0.12072 0.0
H1206 H 0.77014 0.80232 0.17319 0.0
S1207 S 0.84791 0.91442 0.18894 0.0
N1208 N 0.83231 0.91005 0.15351 0.0
N1209 N 0.83564 0.883 0.20938 0.0
C1210 C 0.81786 0.86702 0.18755 0.0
C1211 C 0.8159 0.88195 0.15686 0.0
C1212 C 0.01121 0.05027 0.65181 0.0
C1213 C 0.9925 0.07724 0.65627 0.0
C1214 C 0.0248 0.04295 0.62205 0.0
C1215 C 0.02087 0.06286 0.59624 0.0
H1216 H 0.01344 0.0335 0.67077 0.0
H1217 H 0.03736 0.02104 0.61891 0.0
S1218 S 0.97697 0.13771 0.59596 0.0
N1219 N 0.97294 0.1251 0.63281 0.0
N1220 N 0.99895 0.11135 0.57693 0.0
C1221 C 1.00422 0.09092 0.60075 0.0
C1222 C 0.98996 0.09818 0.63086 0.0
C1223 C 0.8126 0.26172 0.43794 0.0
C1224 C 0.82165 0.23057 0.44248 0.0
C1225 C 0.81068 0.27398 0.40766 0.0
C1226 C 0.8171 0.2553 0.38072 0.0
H1227 H 0.80612 0.27657 0.458 0.0
H1228 H 0.80262 0.29791 0.40545 0.0
S1229 S 0.84479 0.17305 0.38008 0.0
N1230 N 0.83971 0.18187 0.41806 0.0
N1231 N 0.83527 0.20483 0.36041 0.0
C1232 C 0.82752 0.22443 0.38486 0.0
C1233 C 0.83011 0.21209 0.41599 0.0
C1234 C 0.59727 0.99998 0.21929 0.0
C1235 C 0.62689 0.01468 0.22774 0.0
C1236 C 0.5781 0.01313 0.19634 0.0
C1237 C 0.5876 0.04175 0.18193 0.0
H1238 H 0.58828 0.97889 0.23139 0.0
H1239 H 0.55524 1.0015 0.19046 0.0
S1240 S 0.66404 0.08807 0.19315 0.0
N1241 N 0.66595 0.0582 0.21777 0.0
N1242 N 0.62923 0.08295 0.17504 0.0
C1243 C 0.61766 0.05594 0.18896 0.0
C1244 C 0.63757 0.0423 0.21174 0.0
C1245 C 0.79591 0.83167 0.93053 0.0
C1246 C 0.79118 0.86327 0.93994 0.0
C1247 C 0.79031 0.82074 0.89914 0.0
C1248 C 0.78055 0.84086 0.87473 0.0
H1249 H 0.80393 0.81498 0.9477 0.0
H1250 H 0.79457 0.79619 0.8938 0.0
S1251 S 0.7658 0.92624 0.8859 0.0
N1252 N 0.77595 0.91467 0.92146 0.0
N1253 N 0.76706 0.89467 0.86281 0.0
C1254 C 0.77609 0.87265 0.88369 0.0
C1255 C 0.7809 0.88361 0.91598 0.0
C1256 C 0.91309 0.96373 0.04562 0.0
C1257 C 0.884 0.97746 0.03653 0.0
C1258 C 0.94291 0.98128 0.04684 0.0
C1259 C 0.9457 0.01337 0.0381 0.0
H1260 H 0.91274 0.9392 0.05254 0.0
H1261 H 0.96425 0.96929 0.0542 0.0
S1262 S 0.87745 0.06066 0.01123 0.0
N1263 N 0.86029 0.02562 0.0185 0.0
N1264 N 0.91636 0.05783 0.01912 0.0
C1265 C 0.91702 0.02727 0.02824 0.0
C1266 C 0.88631 0.00963 0.02798 0.0
C1267 C 0.42629 0.61663 1.00599 0.0
C1268 C 0.41236 0.61588 0.03677 0.0
C1269 C 0.44933 0.59467 0.99631 0.0
C1270 C 0.45847 0.57073 0.01676 0.0
H1271 H 0.42034 0.63502 0.98968 0.0
H1272 H 0.46114 0.59727 0.97317 0.0
S1273 S 0.42736 0.55712 0.09899 0.0
N1274 N 0.408 0.58817 0.08709 0.0
N1275 N 0.45094 0.54674 0.06866 0.0
C1276 C 0.4434 0.56867 0.04697 0.0
C1277 C 0.42047 0.59136 0.05707 0.0
C1278 C 0.23644 0.60411 0.74951 0.0
C1279 C 0.208 0.59934 0.76832 0.0
C1280 C 0.24909 0.63445 0.74374 0.0
C1281 C 0.2336 0.6608 0.75653 0.0
H1282 H 0.2496 0.58429 0.73998 0.0
H1283 H 0.27177 0.63728 0.73027 0.0
S1284 S 0.15601 0.66129 0.80319 0.0
N1285 N 0.16296 0.6236 0.79706 0.0
N1286 N 0.18677 0.68079 0.78568 0.0
C1287 C 0.20432 0.65651 0.77396 0.0
C1288 C 0.19149 0.62567 0.78002 0.0
C1289 C 0.16935 0.4748 0.53279 0.0
C1290 C 0.18721 0.47953 0.56066 0.0
C1291 C 0.13779 0.48684 0.52956 0.0
C1292 C 0.12216 0.50396 0.55415 0.0
H1293 H 0.17987 0.46171 0.51314 0.0
H1294 H 0.12539 0.48232 0.50763 0.0
S1295 S 0.15775 0.5227 0.63239 0.0
N1296 N 0.18618 0.50272 0.61347 0.0
N1297 N 0.12761 0.52477 0.60763 0.0
C1298 C 0.13974 0.50874 0.58217 0.0
C1299 C 0.1719 0.49676 0.58534 0.0
C1300 C 0.85286 0.98581 0.7127 0.0
C1301 C 0.86661 0.99858 0.74012 0.0
C1302 C 0.83363 0.95818 0.7141 0.0
C1303 C 0.82703 0.94275 0.74306 0.0
H1304 H 0.85785 0.99667 0.68986 0.0
H1305 H 0.82461 0.94845 0.69217 0.0
S1306 S 0.85404 0.96954 0.8222 0.0
N1307 N 0.87087 0.99546 0.79726 0.0
N1308 N 0.8332 0.9442 0.80024 0.0
C1309 C 0.83958 0.95615 0.77089 0.0
C1310 C 0.85975 0.98395 0.76932 0.0
C1311 C 0.73741 0.10181 0.57488 0.0
C1312 C 0.73895 0.13096 0.55925 0.0
C1313 C 0.70759 0.08578 0.58038 0.0
C1314 C 0.67849 0.09848 0.57052 0.0
H1315 H 0.75937 0.09125 0.58277 0.0
H1316 H 0.70725 0.06322 0.59219 0.0
S1317 S 0.66906 0.1756 0.53179 0.0
N1318 N 0.70862 0.17277 0.53572 0.0
N1319 N 0.65261 0.14276 0.54662 0.0
C1320 C 0.67963 0.12782 0.55539 0.0
C1321 C 0.70989 0.14404 0.54961 0.0
C1322 C 0.27935 0.44097 0.79225 0.0
C1323 C 0.24908 0.44709 0.80686 0.0
C1324 C 0.29565 0.41369 0.79935 0.0
C1325 C 0.28157 0.39168 0.82065 0.0
H1326 H 0.28912 0.45591 0.77334 0.0
H1327 H 0.31711 0.40803 0.7852 0.0
S1328 S 0.207 0.40053 0.87057 0.0
N1329 N 0.2091 0.43232 0.8482 0.0
N1330 N 0.23941 0.38027 0.86066 0.0
C1331 C 0.25371 0.39959 0.83844 0.0
C1332 C 0.23742 0.42764 0.8317 0.0
C1333 C 0.34115 0.65876 0.24238 0.0
C1334 C 0.36652 0.6449 0.2583 0.0
C1335 C 0.32397 0.6834 0.25614 0.0
C1336 C 0.33162 0.69525 0.2863 0.0
H1337 H 0.33518 0.65136 0.21859 0.0
H1338 H 0.30584 0.69435 0.24214 0.0
S1339 S 0.3926 0.6638 0.33992 0.0
N1340 N 0.39595 0.64222 0.3074 0.0
N1341 N 0.36358 0.68868 0.33333 0.0
C1342 C 0.35519 0.67995 0.30354 0.0
C1343 C 0.37275 0.6548 0.28948 0.0
C1344 C 0.53275 0.69926 0.58241 0.0
C1345 C 0.53196 0.7041 0.61566 0.0
C1346 C 0.52961 0.6685 0.56841 0.0
C1347 C 0.52598 0.64053 0.5867 0.0
H1348 H 0.53559 0.71944 0.56694 0.0
H1349 H 0.53059 0.66666 0.54281 0.0
S1350 S 0.52332 0.63911 0.67475 0.0
N1351 N 0.52754 0.67693 0.6663 0.0
N1352 N 0.52226 0.62054 0.64033 0.0
C1353 C 0.52541 0.64507 0.61987 0.0
C1354 C 0.52821 0.67621 0.63411 0.0
C1355 C 0.67979 0.30507 0.85664 0.0
C1356 C 0.6782 0.28312 0.88153 0.0
C1357 C 0.70693 0.30697 0.83573 0.0
C1358 C 0.73301 0.28685 0.83914 0.0
H1359 H 0.66066 0.32175 0.85415 0.0
H1360 H 0.70831 0.32538 0.81807 0.0
S1361 S 0.73791 0.22173 0.89669 0.0
N1362 N 0.70304 0.23829 0.90566 0.0
N1363 N 0.75394 0.24196 0.86656 0.0
C1364 C 0.73064 0.26349 0.86254 0.0
C1365 C 0.70323 0.26159 0.88373 0.0
C1366 C 0.03185 0.39995 0.09796 0.0
C1367 C 0.06184 0.3847 0.10036 0.0
C1368 C 0.02984 0.43094 0.08536 0.0
C1369 C 0.05782 0.44891 0.07535 0.0
H1370 H 1.00956 0.38773 0.10569 0.0
H1371 H 1.00615 0.44118 0.08413 0.0
S1372 S 0.14244 0.42067 0.07673 0.0
N1373 N 0.12019 0.39069 0.09099 0.0
N1374 N 0.11662 0.44835 0.06886 0.0
C1375 C 0.08789 0.43397 0.07784 0.0
C1376 C 0.08984 0.40224 0.08984 0.0
C1377 C 1.00168 0.80324 0.33587 0.0
C1378 C 0.99858 0.78192 0.36122 0.0
C1379 C 0.97431 0.81381 0.32064 0.0
C1380 C 0.94274 0.80376 0.33037 0.0
H1381 H 0.02545 0.81251 0.32827 0.0
H1382 H 0.97789 0.83034 0.30136 0.0
S1383 S 0.92146 0.74839 0.39615 0.0
N1384 N 0.96158 0.75072 0.39516 0.0
N1385 N 0.91006 0.77141 0.36746 0.0
C1386 C 0.93934 0.78189 0.35534 0.0
C1387 C 0.96729 0.77074 0.37049 0.0
C1388 C 0.53052 0.3482 1.00621 0.0
C1389 C 0.56355 0.34156 0.00991 0.0
C1390 C 0.51631 0.37339 0.02229 0.0
C1391 C 0.53477 0.39279 0.0423 0.0
H1392 H 0.516 0.33499 0.98938 0.0
H1393 H 0.49181 0.37961 0.01671 0.0
S1394 S 0.61997 0.38234 0.06476 0.0
N1395 N 0.61274 0.35374 0.03891 0.0
N1396 N 0.58585 0.40168 0.06854 0.0
C1397 C 0.56667 0.38464 0.04865 0.0
C1398 C 0.58115 0.35882 0.03257 0.0
C1399 C 0.93619 0.30932 0.23728 0.0
C1400 C 0.95158 0.27998 0.23748 0.0
C1401 C 0.90462 0.31315 0.25094 0.0
C1402 C 0.88672 0.28759 0.26466 0.0
H1403 H 0.9486 0.32954 0.22642 0.0
H1404 H 0.89378 0.33602 0.24983 0.0
S1405 S 0.91576 0.20608 0.2723 0.0
N1406 N 0.94622 0.22523 0.2539 0.0
N1407 N 0.88733 0.23218 0.27842 0.0
C1408 C 0.90196 0.25832 0.26529 0.0
C1409 C 0.93416 0.25458 0.25206 0.0
C1410 C 0.05922 0.66536 0.49271 0.0
C1411 C 0.07887 0.68538 0.5112 0.0
C1412 C 0.04941 0.63548 0.50329 0.0
C1413 C 0.05856 0.62438 0.53293 0.0
H1414 H 0.05174 0.67249 0.46951 0.0
H1415 H 0.03459 0.62086 0.48786 0.0
S1416 S 0.10817 0.6681 0.59145 0.0
N1417 N 0.10611 0.69257 0.56137 0.0
N1418 N 0.08716 0.63596 0.58134 0.0
C1419 C 0.07728 0.64437 0.55226 0.0
C1420 C 0.08766 0.67494 0.54132 0.0
C1421 C 0.65309 0.82213 0.71411 0.0
C1422 C 0.62808 0.79946 0.72091 0.0
C1423 C 0.6825 0.82347 0.73089 0.0
C1424 C 0.68917 0.80179 0.75507 0.0
H1425 H 0.64995 0.83921 0.69561 0.0
H1426 H 0.70058 0.84143 0.72415 0.0
S1427 S 0.63239 0.73701 0.78201 0.0
N1428 N 0.61239 0.75458 0.75411 0.0
N1429 N 0.66758 0.75654 0.78452 0.0
C1430 C 0.66443 0.77889 0.76207 0.0
C1431 C 0.63411 0.77791 0.74541 0.0
C1432 C 0.60023 0.48598 0.72192 0.0
C1433 C 0.6339 0.48538 0.7148 0.0
C1434 C 0.57783 0.48829 0.6981 0.0
C1435 C 0.58819 0.48999 0.66632 0.0
H1436 H 0.59103 0.48626 0.74622 0.0
H1437 H 0.55237 0.49051 0.70468 0.0
S1438 S 0.6722 0.48103 0.63446 0.0
N1439 N 0.67585 0.48101 0.67331 0.0
N1440 N 0.63311 0.48518 0.62819 0.0
C1441 C 0.62127 0.48646 0.6585 0.0
C1442 C 0.6443 0.48401 0.68287 0.0
C1443 C 0.84041 0.31511 0.99888 0.0
C1444 C 0.80755 0.32302 1.00338 0.0
C1445 C 0.85119 0.29994 0.97114 0.0
C1446 C 0.8294 0.29211 0.94724 0.0
H1447 H 0.85844 0.32277 0.01571 0.0
H1448 H 0.877 0.29674 0.96723 0.0
S1449 S 0.73993 0.30056 0.95087 0.0
N1450 N 0.7526 0.31688 0.98409 0.0
N1451 N 0.77285 0.28781 0.93223 0.0
C1452 C 0.79602 0.29656 0.9531 0.0
C1453 C 0.78508 0.3122 0.98113 0.0
C1454 C 0.99889 0.5634 0.17714 0.0
C1455 C 0.96736 0.57473 0.17415 0.0
C1456 C 0.01975 0.56072 0.15068 0.0
C1457 C 1.00952 0.5694 0.12072 0.0
H1458 H 1.00685 0.55494 0.1997 0.0
H1459 H 0.04305 0.54999 0.15337 0.0
S1460 S 0.93252 0.60737 0.10196 0.0
N1461 N 0.92905 0.59949 0.14017 0.0
N1462 N 0.96842 0.59461 0.09022 0.0
C1463 C 0.97924 0.58336 0.11795 0.0
C1464 C 0.95802 0.58595 0.14479 0.0
C1465 C 0.80954 0.74061 0.4265 0.0
C1466 C 0.77888 0.74006 0.44274 0.0
C1467 C 0.81397 0.75257 0.3951 0.0
C1468 C 0.78779 0.76376 0.37775 0.0
H1469 H 0.83049 0.73192 0.43823 0.0
H1470 H 0.83806 0.75244 0.38411 0.0
S1471 S 0.70245 0.76763 0.40871 0.0
N1472 N 0.722 0.75254 0.43835 0.0
N1473 N 0.72997 0.77358 0.37999 0.0
C1474 C 0.75707 0.76316 0.39368 0.0
C1475 C 0.75273 0.75177 0.42579 0.0
C1476 C 0.60098 0.47918 0.89858 0.0
C1477 C 0.59593 0.49887 0.87266 0.0
C1478 C 0.5816 0.48146 0.92624 0.0
C1479 C 0.55712 0.5037 0.92863 0.0
H1480 H 0.62159 0.46393 0.89861 0.0
H1481 H 0.58817 0.46839 0.94689 0.0
S1482 S 0.52841 0.55419 0.86498 0.0
N1483 N 0.55971 0.53595 0.84886 0.0
N1484 N 0.52457 0.54104 0.90163 0.0
C1485 C 0.54912 0.52035 0.90172 0.0
C1486 C 0.56831 0.51773 0.87342 0.0
C1487 C 0.76705 0.33607 0.16195 0.0
C1488 C 0.76198 0.36876 0.16239 0.0
C1489 C 0.76909 0.31912 0.19004 0.0
C1490 C 0.76636 0.33432 0.21956 0.0
H1491 H 0.77061 0.32356 0.13973 0.0
H1492 H 0.77449 0.29432 0.18854 0.0
S1493 S 0.74875 0.41866 0.23388 0.0
N1494 N 0.75111 0.41503 0.19495 0.0
N1495 N 0.75486 0.38319 0.2478 0.0
C1496 C 0.75914 0.36656 0.22041 0.0
C1497 C 0.75694 0.38379 0.1918 0.0
C1498 C 0.01265 0.56258 0.34564 0.0
C1499 C 0.9802 0.57194 0.34526 0.0
C1500 C 0.02634 0.55291 0.37372 0.0
C1501 C 1.00799 0.55218 0.40223 0.0
H1502 H 0.02698 0.56108 0.32378 0.0
H1503 H 0.05103 0.54479 0.37295 0.0
S1504 S 0.92205 0.57465 0.4137 0.0
N1505 N 0.9304 0.58094 0.37578 0.0
N1506 N 0.95596 0.56217 0.42859 0.0
C1507 C 0.97603 0.56301 0.40248 0.0
C1508 C 0.96218 0.57313 0.37392 0.0
C1509 C 0.79323 0.7126 0.66001 0.0
C1510 C 0.78775 0.72925 0.6317 0.0
C1511 C 0.79497 0.7276 0.69015 0.0
C1512 C 0.79191 0.76047 0.6942 0.0
H1513 H 0.79578 0.6873 0.65911 0.0
H1514 H 0.79869 0.71306 0.71062 0.0
S1515 S 0.77746 0.8159 0.62847 0.0
N1516 N 0.77921 0.78126 0.61049 0.0
N1517 N 0.78303 0.80928 0.6664 0.0
C1518 C 0.78678 0.77761 0.66614 0.0
C1519 C 0.78455 0.76219 0.63535 0.0
C1520 C 0.66636 0.62612 0.51738 0.0
C1521 C 0.69053 0.6189 0.53909 0.0
C1522 C 0.63604 0.60917 0.51656 0.0
C1523 C 0.62773 0.58426 0.53774 0.0
H1524 H 0.6708 0.64522 0.5008 0.0
H1525 H 0.61857 0.61631 0.49953 0.0
S1526 S 0.68173 0.5561 0.59991 0.0
N1527 N 0.70347 0.58468 0.58249 0.0
N1528 N 0.64698 0.55363 0.58135 0.0
C1529 C 0.65171 0.57675 0.55951 0.0
C1530 C 0.68277 0.59373 0.56005 0.0
C1531 C 0.17098 0.99852 0.55357 0.0
C1532 C 0.17405 0.96573 0.5495 0.0
C1533 C 0.14461 0.01414 0.54155 0.0
C1534 C 0.12018 0.99744 0.52542 0.0
H1535 H 0.18892 0.01229 0.56643 0.0
H1536 H 0.14271 0.03919 0.54602 0.0
S1537 S 0.118 0.91202 0.50583 0.0
N1538 N 0.15141 0.91756 0.52612 0.0
N1539 N 0.10155 0.94689 0.504 0.0
C1540 C 0.12341 0.96489 0.52023 0.0
C1541 C 0.15043 0.94903 0.53215 0.0
C1542 C 0.31716 0.97519 0.78556 0.0
C1543 C 0.342 0.99375 0.79913 0.0
C1544 C 0.3058 0.94738 0.8 0.0
C1545 C 0.31863 0.93735 0.82857 0.0
H1546 H 0.30738 0.98138 0.76298 0.0
H1547 H 0.28769 0.93286 0.78815 0.0
S1548 S 0.38088 0.97913 0.87586 0.0
N1549 N 0.37683 1.00165 0.84458 0.0
N1550 N 0.35518 0.94886 0.87134 0.0
C1551 C 0.3418 0.95654 0.84351 0.0
C1552 C 0.35364 0.98487 0.8288 0.0
C1553 C 0.40046 0.10384 0.02819 0.0
C1554 C 0.38263 0.10381 0.05732 0.0
C1555 C 0.43152 0.09039 0.02513 0.0
C1556 C 0.44658 0.07703 0.05126 0.0
H1557 H 0.39031 0.11428 0.0075 0.0
H1558 H 0.44417 0.09119 1.00228 0.0
S1559 S 0.41047 0.07054 0.13271 0.0
N1560 N 0.38263 0.08837 0.11264 0.0
N1561 N 0.44068 0.06421 0.10713 0.0
C1562 C 0.42896 0.07679 0.08041 0.0
C1563 C 0.39719 0.08983 0.08336 0.0
C1564 C 0.70424 0.62247 0.81005 0.0
C1565 C 0.72543 0.59735 0.80594 0.0
C1566 C 0.71648 0.65311 0.8153 0.0
C1567 C 0.75003 0.65909 0.81755 0.0
H1568 H 0.67819 0.61849 0.80859 0.0
H1569 H 0.69976 0.67223 0.81789 0.0
S1570 S 0.81535 0.60144 0.80945 0.0
N1571 N 0.78138 0.58038 0.80469 0.0
N1572 N 0.80416 0.63807 0.81556 0.0
C1573 C 0.77135 0.6342 0.81401 0.0
C1574 C 0.75906 0.60321 0.80793 0.0
C1575 C 0.86469 0.46603 0.01755 0.0
C1576 C 0.85265 0.47188 0.04854 0.0
C1577 C 0.8923 0.48233 1.00542 0.0
C1578 C 0.90895 0.50456 0.02409 0.0
H1579 H 0.85303 0.44834 1.00272 0.0
H1580 H 0.90165 0.47642 0.98196 0.0
S1581 S 0.8863 0.53006 0.1057 0.0
N1582 N 0.85843 0.50284 0.09686 0.0
N1583 N 0.91065 0.53324 0.07403 0.0
C1584 C 0.89649 0.51156 0.05456 0.0
C1585 C 0.8682 0.49527 0.06681 0.0
C1586 C 0.30798 0.16629 0.74437 0.0
C1587 C 0.33217 0.15174 0.76157 0.0
C1588 C 0.30004 0.19761 0.75042 0.0
C1589 C 0.31643 0.21532 0.77346 0.0
H1590 H 0.29553 0.15367 0.72568 0.0
H1591 H 0.28173 0.20828 0.73642 0.0
S1592 S 0.37814 0.18735 0.82798 0.0
N1593 N 0.36989 0.15676 0.80492 0.0
N1594 N 0.35527 0.21579 0.81571 0.0
C1595 C 0.33963 0.20084 0.79166 0.0
C1596 C 0.34743 0.16895 0.78587 0.0
C1597 C 0.25961 0.91604 0.32307 0.0
C1598 C 0.27472 0.93563 0.29986 0.0
C1599 C 0.27191 0.88654 0.32951 0.0
C1600 C 0.29978 0.87623 0.31328 0.0
H1601 H 0.2367 0.92221 0.33436 0.0
H1602 H 0.25797 0.87066 0.34507 0.0
S1603 S 0.35216 0.92082 0.2557 0.0
N1604 N 0.32219 0.94458 0.26473 0.0
N1605 N 0.34483 0.88871 0.27689 0.0
C1606 C 0.31711 0.89676 0.29284 0.0
C1607 C 0.3047 0.92676 0.28616 0.0
C1608 C 0.5161 0.40677 0.51035 0.0
C1609 C 0.52696 0.39678 0.47992 0.0
C1610 C 0.52055 0.4384 0.52121 0.0
C1611 C 0.53521 0.46253 0.50206 0.0
H1612 H 0.50415 0.38985 0.52622 0.0
H1613 H 0.51167 0.44414 0.54488 0.0
S1614 S 0.56787 0.44979 0.4202 0.0
N1615 N 0.55376 0.41444 0.43087 0.0
N1616 N 0.56055 0.47353 0.4506 0.0
C1617 C 0.54587 0.45306 0.47143 0.0
C1618 C 0.54222 0.42052 0.46066 0.0
C1619 C 0.42411 0.80972 0.20646 0.0
C1620 C 0.44262 0.78237 0.20607 0.0
C1621 C 0.39984 0.81438 0.22984 0.0
C1622 C 0.39433 0.79254 0.25432 0.0
H1623 H 0.42768 0.82723 0.18805 0.0
H1624 H 0.38488 0.83485 0.22844 0.0
S1625 S 0.4365 0.71777 0.26519 0.0
N1626 N 0.4538 0.73333 0.23293 0.0
N1627 N 0.40903 0.74299 0.27737 0.0
C1628 C 0.4133 0.76575 0.25501 0.0
C1629 C 0.43731 0.76046 0.23077 0.0
C1630 C 0.07766 0.6901 0.00893 0.0
C1631 C 0.0526 0.701 0.98981 0.0
C1632 C 0.07884 0.65816 0.01912 0.0
C1633 C 0.055 0.63491 0.01093 0.0
H1634 H 0.09694 0.7064 0.01596 0.0
H1635 H 0.09881 0.65167 0.03361 0.0
S1636 S 0.9837 0.65036 0.96156 0.0
N1637 N 1.00305 0.68496 0.96341 0.0
N1638 N 1.00508 0.62602 0.98231 0.0
C1639 C 0.02969 0.64555 0.99198 0.0
C1640 C 0.02854 0.67803 0.98157 0.0
C1641 C 0.11254 0.26817 0.72361 0.0
C1642 C 0.10705 0.29653 0.70784 0.0
C1643 C 0.13452 0.26705 0.74797 0.0
C1644 C 0.15188 0.29423 0.75765 0.0
H1645 H 0.10023 0.24636 0.71671 0.0
H1646 H 0.13885 0.24442 0.75843 0.0
S1647 S 0.14423 0.375 0.72635 0.0
N1648 N 0.1193 0.35293 0.70494 0.0
N1649 N 0.16061 0.3508 0.75138 0.0
C1650 C 0.14598 0.323 0.74287 0.0
C1651 C 0.12361 0.32415 0.71778 0.0
C1652 C 0.54623 0.69714 0.0713 0.0
C1653 C 0.54038 0.72727 0.05974 0.0
C1654 C 0.55785 0.67366 0.0512 0.0
C1655 C 0.5632 0.67909 0.01867 0.0
H1656 H 0.54265 0.69185 0.09625 0.0
H1657 H 0.56224 0.65072 0.06099 0.0
S1658 S 0.5519 0.75376 0.97656 0.0
N1659 N 0.54177 0.76175 0.01387 0.0
N1660 N 0.5622 0.71641 0.97563 0.0
C1661 C 0.55776 0.70902 1.0067 0.0
C1662 C 0.54658 0.7334 0.02737 0.0
C1663 C 0.15474 0.80893 0.88529 0.0
C1664 C 0.12712 0.79621 0.87012 0.0
C1665 C 0.18597 0.80904 0.87065 0.0
C1666 C 0.19139 0.79556 0.84044 0.0
H1667 H 0.15216 0.81929 0.90871 0.0
H1668 H 0.20618 0.81932 0.88343 0.0
S1669 S 0.12757 0.75838 0.79067 0.0
N1670 N 0.10739 0.76986 0.82292 0.0
N1671 N 0.16608 0.76881 0.7959 0.0
C1672 C 0.16403 0.78242 0.82507 0.0
C1673 C 0.13198 0.78311 0.8397 0.0
C1674 C 0.99974 0.40468 0.60228 0.0
C1675 C 0.01983 0.38463 0.58451 0.0
C1676 C 0.99304 0.43469 0.59108 0.0
C1677 C 1.0056 0.44515 0.56149 0.0
H1678 H 0.99132 0.39817 0.62596 0.0
H1679 H 0.97982 0.45057 0.60658 0.0
S1680 S 0.05448 0.39873 0.50373 0.0
N1681 N 0.04869 0.37528 0.53452 0.0
N1682 N 0.03534 0.43129 0.51293 0.0
C1683 C 0.02281 0.42388 0.54217 0.0
C1684 C 0.03023 0.39369 0.5539 0.0
C1685 C 0.42369 0.32078 0.36256 0.0
C1686 C 0.44374 0.29433 0.36337 0.0
C1687 C 0.3954 0.32111 0.34396 0.0
C1688 C 0.38493 0.29464 0.32594 0.0
H1689 H 0.42996 0.34156 0.37639 0.0
H1690 H 0.38089 0.34197 0.34468 0.0
S1691 S 0.42761 0.21892 0.32042 0.0
N1692 N 0.45054 0.24088 0.34392 0.0
N1693 N 0.39706 0.24097 0.31083 0.0
C1694 C 0.40452 0.26798 0.32682 0.0
C1695 C 0.43386 0.26799 0.3449 0.0
C1696 C 0.47989 0.60194 0.3501 0.0
C1697 C 0.48911 0.57428 0.33409 0.0
C1698 C 0.4879 0.60726 0.38169 0.0
C1699 C 0.50493 0.58491 0.39836 0.0
H1700 H 0.46624 0.61958 0.33828 0.0
H1701 H 0.48027 0.62869 0.39338 0.0
S1702 S 0.53618 0.50958 0.36716 0.0
N1703 N 0.51734 0.52481 0.33718 0.0
N1704 N 0.5322 0.53504 0.39663 0.0
C1705 C 0.5147 0.55743 0.38266 0.0
C1706 C 0.50687 0.55208 0.35045 0.0
C1707 C 0.27481 0.75291 0.10833 0.0
C1708 C 0.30829 0.75161 0.10046 0.0
C1709 C 0.26402 0.76629 0.13706 0.0
C1710 C 0.28637 0.77883 0.15858 0.0
H1711 H 0.25697 0.74123 0.09355 0.0
H1712 H 0.23839 0.7646 0.14355 0.0
S1713 S 0.37555 0.78853 0.14536 0.0
N1714 N 0.36298 0.76911 0.11378 0.0
N1715 N 0.34263 0.79475 0.16753 0.0
C1716 C 0.31946 0.78088 0.14934 0.0
C1717 C 0.33045 0.76716 0.12027 0.0
C1718 C 0.09228 0.52168 0.90334 0.0
C1719 C 0.12516 0.51509 0.89794 0.0
C1720 C 0.07899 0.52309 0.93388 0.0
C1721 C 0.09821 0.51849 0.9603 0.0
H1722 H 0.07668 0.52635 0.88377 0.0
H1723 H 0.05369 0.52918 0.93671 0.0
S1724 S 0.1849 0.49721 0.95873 0.0
N1725 N 0.17617 0.50116 0.92104 0.0
N1726 N 0.15114 0.50461 0.97923 0.0
C1727 C 0.13087 0.51059 0.95533 0.0
C1728 C 0.14436 0.50858 0.9239 0.0
C1729 C 0.26741 0.36669 0.66269 0.0
C1730 C 0.29307 0.36537 0.63963 0.0
C1731 C 0.26921 0.35278 0.69322 0.0
C1732 C 0.2973 0.33762 0.7033 0.0
H1733 H 0.24546 0.37867 0.6571 0.0
H1734 H 0.2485 0.3547 0.70947 0.0
S1735 S 0.37201 0.32792 0.65293 0.0
N1736 N 0.3477 0.34692 0.62973 0.0
N1737 N 0.35164 0.32246 0.68684 0.0
C1738 C 0.32326 0.33632 0.68061 0.0
C1739 C 0.32102 0.34964 0.6491 0.0
C1740 C 0.52878 0.56103 0.15842 0.0
C1741 C 0.50498 0.58407 0.16127 0.0
C1742 C 0.54404 0.55476 0.12923 0.0
C1743 C 0.53667 0.57196 0.10235 0.0
H1744 H 0.53352 0.54568 0.17803 0.0
H1745 H 0.55996 0.53494 0.1272 0.0
S1746 S 0.48123 0.63884 0.09854 0.0
N1747 N 0.47852 0.62731 0.13581 0.0
N1748 N 0.50763 0.61556 0.08083 0.0
C1749 C 0.51587 0.59741 0.10556 0.0
C1750 C 0.49991 0.60353 0.13518 0.0
C1751 C 0.29308 0.70655 0.91467 0.0
C1752 C 0.31646 0.7175 0.93604 0.0
C1753 C 0.29024 0.7208 0.8852 0.0
C1754 C 0.3101 0.74705 0.87658 0.0
H1755 H 0.27624 0.68737 0.92114 0.0
H1756 H 0.27114 0.71231 0.86989 0.0
S1757 S 0.37661 0.78324 0.92329 0.0
N1758 N 0.36138 0.75444 0.94586 0.0
N1759 N 0.35533 0.78213 0.8907 0.0
C1760 C 0.33447 0.75742 0.8972 0.0
C1761 C 0.33787 0.74236 0.92692 0.0
C1762 C 0.1008 0.48083 0.70397 0.0
C1763 C 0.09492 0.48727 0.73623 0.0
C1764 C 0.08033 0.49206 0.68121 0.0
C1765 C 0.05302 0.50971 0.68995 0.0
H1766 H 0.12309 0.47003 0.69587 0.0
H1767 H 0.08776 0.48914 0.65663 0.0
S1768 S 0.02096 0.52323 0.7715 0.0
N1769 N 0.05551 0.50528 0.77614 0.0
N1770 N 0.01687 0.52628 0.73287 0.0
C1771 C 0.04427 0.51218 0.72212 0.0
C1772 C 0.06513 0.50068 0.74543 0.0
C1773 C 0.2748 0.37336 0.42719 0.0
C1774 C 0.29529 0.35849 0.44867 0.0
C1775 C 0.27099 0.36247 0.39533 0.0
C1776 C 0.28676 0.33553 0.38337 0.0
H1777 H 0.26185 0.394 0.43488 0.0
H1778 H 0.25522 0.37506 0.38009 0.0
S1779 S 0.34422 0.28846 0.42849 0.0
N1780 N 0.33251 0.31568 0.45415 0.0
N1781 N 0.32475 0.29518 0.39571 0.0
C1782 C 0.30726 0.32057 0.40453 0.0
C1783 C 0.31166 0.33195 0.43658 0.0
C1784 C 0.4059 0.46782 0.55503 0.0
C1785 C 0.37623 0.48063 0.54629 0.0
C1786 C 0.43526 0.4861 0.55555 0.0
C1787 C 0.43704 0.51807 0.54634 0.0
H1788 H 0.40642 0.44336 0.56207 0.0
H1789 H 0.45708 0.47475 0.56265 0.0
S1790 S 0.36688 0.56323 0.5203 0.0
N1791 N 0.35078 0.52788 0.52824 0.0
N1792 N 0.40607 0.56152 0.5275 0.0
C1793 C 0.40774 0.53114 0.53694 0.0
C1794 C 0.37745 0.51272 0.53743 0.0
C1795 C 0.92367 0.12856 0.50733 0.0
C1796 C 0.90317 0.11799 0.53251 0.0
C1797 C 0.94814 0.10945 0.49479 0.0
C1798 C 0.95214 0.07886 0.50637 0.0
H1799 H 0.92172 0.1522 0.49823 0.0
H1800 H 0.96477 0.11908 0.47673 0.0
S1801 S 0.90235 0.03938 0.57026 0.0
N1802 N 0.88696 0.07462 0.56732 0.0
N1803 N 0.9321 0.03837 0.54329 0.0
C1804 C 0.93041 0.06748 0.53033 0.0
C1805 C 0.90617 0.08718 0.54357 0.0
C1806 C 0.69114 0.1208 0.28227 0.0
C1807 C 0.6995 0.10593 0.31045 0.0
C1808 C 0.711 0.14496 0.26923 0.0
C1809 C 0.73941 0.1551 0.28426 0.0
H1810 H 0.67002 0.11275 0.26939 0.0
H1811 H 0.70405 0.15596 0.24749 0.0
S1812 S 0.77076 0.12531 0.35935 0.0
N1813 N 0.73716 0.104 0.35362 0.0
N1814 N 0.77438 0.14974 0.32912 0.0
C1815 C 0.74741 0.14121 0.31292 0.0
C1816 C 0.7274 0.11657 0.32608 0.0
C1817 C 0.6824 1.00215 0.07198 0.0
C1818 C 0.69565 0.98154 0.04897 0.0
C1819 C 0.65121 0.01471 0.06924 0.0
C1820 C 0.63139 0.00772 0.04313 0.0
H1821 H 0.69612 0.00849 0.09271 0.0
H1822 H 0.64254 0.0301 0.08802 0.0
S1823 S 0.6543 0.95541 0.97569 0.0
N1824 N 0.68604 0.95496 0.99873 0.0
N1825 N 0.62793 0.97871 0.99347 0.0
C1826 C 0.64441 0.98742 0.01969 0.0
C1827 C 0.67621 0.97435 0.02263 0.0
C1828 C 0.39291 0.46109 0.25036 0.0
C1829 C 0.38071 0.48841 0.23696 0.0
C1830 C 0.3731 0.43407 0.25477 0.0
C1831 C 0.34048 0.43352 0.24596 0.0
H1832 H 0.41801 0.46043 0.2573 0.0
H1833 H 0.38355 0.41323 0.2644 0.0
S1834 S 0.29585 0.4995 0.21263 0.0
N1835 N 0.33332 0.5137 0.21654 0.0
N1836 N 0.29611 0.46282 0.22528 0.0
C1837 C 0.32774 0.46078 0.23323 0.0
C1838 C 0.34787 0.48826 0.22857 0.0
C1839 C 0.25021 0.60529 0.09153 0.0
C1840 C 0.26369 0.60718 0.0606 0.0
C1841 C 0.22088 0.58873 0.0976 0.0
C1842 C 0.2043 0.57349 0.07297 0.0
H1843 H 0.26116 0.61836 0.11083 0.0
H1844 H 0.21012 0.58957 0.12128 0.0
S1845 S 0.23319 0.56536 0.98948 0.0
N1846 N 0.26103 0.58833 1.00615 0.0
N1847 N 0.20599 0.55667 0.01783 0.0
C1848 C 0.21905 0.57269 0.04262 0.0
C1849 C 0.24881 0.58966 0.03637 0.0
C1850 C 0.76681 0.93652 0.31637 0.0
C1851 C 0.73351 0.93827 0.32444 0.0
C1852 C 0.7815 0.90746 0.31329 0.0
C1853 C 0.76319 0.87938 0.31792 0.0
H1854 H 0.78124 0.9576 0.31061 0.0
H1855 H 0.80667 0.907 0.30504 0.0
S1856 S 0.67708 0.87132 0.34565 0.0
N1857 N 0.68398 0.90965 0.34183 0.0
N1858 N 0.71176 0.85485 0.33577 0.0
C1859 C 0.73078 0.88084 0.32896 0.0
C1860 C 0.71586 0.91043 0.33238 0.0
C1861 C 0.8711 0.17194 0.77855 0.0
C1862 C 0.86601 0.16185 0.74729 0.0
C1863 C 0.85693 0.19915 0.79057 0.0
C1864 C 0.83723 0.21751 0.77177 0.0
H1865 H 0.88664 0.15909 0.79381 0.0
H1866 H 0.86253 0.20635 0.81452 0.0
S1867 S 0.81387 0.19968 0.6891 0.0
N1868 N 0.83813 0.17113 0.69826 0.0
N1869 N 0.81144 0.2223 0.72096 0.0
C1870 C 0.83078 0.20695 0.74086 0.0
C1871 C 0.84523 0.17915 0.72858 0.0
loop_
_geom_bond_atom_site_label_1
_geom_bond_atom_site_label_2
_geom_bond_distance
_geom_bond_site_symmetry_2
_ccdc_geom_bond_type
O0 Cd1 2.223 . S
O0 C8 1.315 . S
Cd1 O0 2.223 . S
Cd1 O4 2.297 1_455 S
Cd1 O5 2.439 1_455 S
Cd1 O11 2.240 . S
Cd2 O3 2.240 . S
Cd2 O10 2.223 . S
Cd2 O12 2.297 . S
Cd2 O13 2.439 . S
O3 Cd2 2.240 . S
O3 C8 1.279 . S
O4 Cd1 2.297 1_655 S
O4 C6 1.247 . S
O5 Cd1 2.439 1_655 S
O5 C6 1.208 . S
C6 O4 1.247 . S
C6 O5 1.208 . S
C7 O12 1.247 . S
C7 O13 1.208 . S
C8 O0 1.315 . S
C8 O3 1.279 . S
C9 O10 1.315 . S
C9 O11 1.279 . S
O10 Cd2 2.223 . S
O10 C9 1.315 . S
O11 Cd1 2.240 . S
O11 C9 1.279 . S
O12 Cd2 2.297 . S
O12 C7 1.247 . S
O13 Cd2 2.439 . S
O13 C7 1.208 . S
O14 Cd15 2.223 . S
O14 C22 1.315 . S
Cd15 O14 2.223 . S
Cd15 O18 2.297 . S
Cd15 O19 2.439 . S
Cd15 O25 2.240 . S
Cd16 O17 2.240 . S
Cd16 O24 2.223 . S
Cd16 O26 2.297 . S
Cd16 O27 2.439 . S
O17 Cd16 2.240 . S
O17 C22 1.279 . S
O18 Cd15 2.297 . S
O18 C20 1.247 . S
O19 Cd15 2.439 . S
O19 C20 1.208 . S
C20 O18 1.247 . S
C20 O19 1.208 . S
C21 O26 1.247 1_655 S
C21 O27 1.208 1_655 S
C22 O14 1.315 . S
C22 O17 1.279 . S
C23 O24 1.315 . S
C23 O25 1.279 . S
O24 Cd16 2.223 . S
O24 C23 1.315 . S
O25 Cd15 2.240 . S
O25 C23 1.279 . S
O26 Cd16 2.297 . S
O26 C21 1.247 1_455 S
O27 Cd16 2.439 . S
O27 C21 1.208 1_455 S
O28 Cd29 2.223 . S
O28 C36 1.315 . S
Cd29 O28 2.223 . S
Cd29 O32 2.297 . S
Cd29 O33 2.439 . S
Cd29 O39 2.240 . S
Cd30 O31 2.240 . S
Cd30 O38 2.223 . S
Cd30 O40 2.297 . S
Cd30 O41 2.439 . S
O31 Cd30 2.240 . S
O31 C36 1.279 . S
O32 Cd29 2.297 . S
O32 C34 1.247 . S
O33 Cd29 2.439 . S
O33 C34 1.208 . S
C34 O32 1.247 . S
C34 O33 1.208 . S
C35 O40 1.247 . S
C35 O41 1.208 . S
C36 O28 1.315 . S
C36 O31 1.279 . S
C37 O38 1.315 . S
C37 O39 1.279 . S
O38 Cd30 2.223 . S
O38 C37 1.315 . S
O39 Cd29 2.240 . S
O39 C37 1.279 . S
O40 Cd30 2.297 . S
O40 C35 1.247 . S
O41 Cd30 2.439 . S
O41 C35 1.208 . S
O42 Cd43 2.223 . S
O42 C50 1.315 . S
Cd43 O42 2.223 . S
Cd43 O46 2.297 . S
Cd43 O47 2.439 . S
Cd43 O53 2.240 . S
Cd44 O45 2.240 . S
Cd44 O52 2.223 . S
Cd44 O54 2.297 . S
Cd44 O55 2.439 . S
O45 Cd44 2.240 . S
O45 C50 1.279 . S
O46 Cd43 2.297 . S
O46 C48 1.247 . S
O47 Cd43 2.439 . S
O47 C48 1.208 . S
C48 O46 1.247 . S
C48 O47 1.208 . S
C49 O54 1.247 . S
C49 O55 1.208 . S
C50 O42 1.315 . S
C50 O45 1.279 . S
C51 O52 1.315 . S
C51 O53 1.279 . S
O52 Cd44 2.223 . S
O52 C51 1.315 . S
O53 Cd43 2.240 . S
O53 C51 1.279 . S
O54 Cd44 2.297 . S
O54 C49 1.247 . S
O55 Cd44 2.439 . S
O55 C49 1.208 . S
O56 Cd57 2.223 1_545 S
O56 C64 1.315 . S
Cd57 O56 2.223 1_565 S
Cd57 O60 2.297 . S
Cd57 O61 2.439 . S
Cd57 O67 2.240 1_565 S
Cd58 O59 2.240 1_545 S
Cd58 O66 2.223 . S
Cd58 O68 2.297 . S
Cd58 O69 2.439 1_545 S
O59 Cd58 2.240 1_565 S
O59 C64 1.279 1_565 S
O60 Cd57 2.297 . S
O60 C62 1.247 . S
O61 Cd57 2.439 . S
O61 C62 1.208 . S
C62 O60 1.247 . S
C62 O61 1.208 . S
C63 O68 1.247 . S
C63 O69 1.208 1_545 S
C64 O56 1.315 . S
C64 O59 1.279 1_545 S
C65 O66 1.315 . S
C65 O67 1.279 . S
O66 Cd58 2.223 . S
O66 C65 1.315 . S
O67 Cd57 2.240 1_545 S
O67 C65 1.279 . S
O68 Cd58 2.297 . S
O68 C63 1.247 . S
O69 Cd58 2.439 1_565 S
O69 C63 1.208 1_565 S
O70 Cd71 2.223 . S
O70 C78 1.315 . S
Cd71 O70 2.223 . S
Cd71 O74 2.297 . S
Cd71 O75 2.439 . S
Cd71 O81 2.240 . S
Cd72 O73 2.240 . S
Cd72 O80 2.223 . S
Cd72 O82 2.297 . S
Cd72 O83 2.439 . S
O73 Cd72 2.240 . S
O73 C78 1.279 . S
O74 Cd71 2.297 . S
O74 C76 1.247 . S
O75 Cd71 2.439 . S
O75 C76 1.208 . S
C76 O74 1.247 . S
C76 O75 1.208 . S
C77 O82 1.247 . S
C77 O83 1.208 . S
C78 O70 1.315 . S
C78 O73 1.279 . S
C79 O80 1.315 . S
C79 O81 1.279 . S
O80 Cd72 2.223 . S
O80 C79 1.315 . S
O81 Cd71 2.240 . S
O81 C79 1.279 . S
O82 Cd72 2.297 . S
O82 C77 1.247 . S
O83 Cd72 2.439 . S
O83 C77 1.208 . S
O84 Cd85 2.223 . S
O84 C92 1.315 . S
Cd85 O84 2.223 . S
Cd85 O88 2.297 . S
Cd85 O89 2.439 . S
Cd85 O95 2.240 . S
Cd86 O87 2.240 . S
Cd86 O94 2.223 . S
Cd86 O96 2.297 . S
Cd86 O97 2.439 . S
O87 Cd86 2.240 . S
O87 C92 1.279 . S
O88 Cd85 2.297 . S
O88 C90 1.247 . S
O89 Cd85 2.439 . S
O89 C90 1.208 . S
C90 O88 1.247 . S
C90 O89 1.208 . S
C91 O96 1.247 . S
C91 O97 1.208 . S
C92 O84 1.315 . S
C92 O87 1.279 . S
C93 O94 1.315 . S
C93 O95 1.279 . S
O94 Cd86 2.223 . S
O94 C93 1.315 . S
O95 Cd85 2.240 . S
O95 C93 1.279 . S
O96 Cd86 2.297 . S
O96 C91 1.247 . S
O97 Cd86 2.439 . S
O97 C91 1.208 . S
O98 Cd99 2.223 . S
O98 C106 1.315 . S
Cd99 O98 2.223 . S
Cd99 O102 2.297 . S
Cd99 O103 2.439 . S
Cd99 O109 2.240 . S
Cd100 O101 2.240 . S
Cd100 O108 2.223 . S
Cd100 O110 2.297 1_554 S
Cd100 O111 2.439 1_554 S
O101 Cd100 2.240 . S
O101 C106 1.279 . S
O102 Cd99 2.297 . S
O102 C104 1.247 . S
O103 Cd99 2.439 . S
O103 C104 1.208 . S
C104 O102 1.247 . S
C104 O103 1.208 . S
C105 O110 1.247 . S
C105 O111 1.208 . S
C106 O98 1.315 . S
C106 O101 1.279 . S
C107 O108 1.315 . S
C107 O109 1.279 . S
O108 Cd100 2.223 . S
O108 C107 1.315 . S
O109 Cd99 2.240 . S
O109 C107 1.279 . S
O110 Cd100 2.297 1_556 S
O110 C105 1.247 . S
O111 Cd100 2.439 1_556 S
O111 C105 1.208 . S
O112 Cd113 2.223 . S
O112 C120 1.315 . S
Cd113 O112 2.223 . S
Cd113 O116 2.297 . S
Cd113 O117 2.439 . S
Cd113 O123 2.240 . S
Cd114 O115 2.240 . S
Cd114 O122 2.223 . S
Cd114 O124 2.297 . S
Cd114 O125 2.439 . S
O115 Cd114 2.240 . S
O115 C120 1.279 . S
O116 Cd113 2.297 . S
O116 C118 1.247 . S
O117 Cd113 2.439 . S
O117 C118 1.208 . S
C118 O116 1.247 . S
C118 O117 1.208 . S
C119 O124 1.247 1_556 S
C119 O125 1.208 1_556 S
C120 O112 1.315 . S
C120 O115 1.279 . S
C121 O122 1.315 . S
C121 O123 1.279 . S
O122 Cd114 2.223 . S
O122 C121 1.315 . S
O123 Cd113 2.240 . S
O123 C121 1.279 . S
O124 Cd114 2.297 . S
O124 C119 1.247 1_554 S
O125 Cd114 2.439 . S
O125 C119 1.208 1_554 S
O126 Cd127 2.223 . S
O126 C134 1.315 . S
Cd127 O126 2.223 . S
Cd127 O130 2.297 . S
Cd127 O131 2.439 . S
Cd127 O137 2.240 . S
Cd128 O129 2.240 . S
Cd128 O136 2.223 . S
Cd128 O138 2.297 . S
Cd128 O139 2.439 . S
O129 Cd128 2.240 . S
O129 C134 1.279 . S
O130 Cd127 2.297 . S
O130 C132 1.247 . S
O131 Cd127 2.439 . S
O131 C132 1.208 . S
C132 O130 1.247 . S
C132 O131 1.208 . S
C133 O138 1.247 . S
C133 O139 1.208 . S
C134 O126 1.315 . S
C134 O129 1.279 . S
C135 O136 1.315 . S
C135 O137 1.279 . S
O136 Cd128 2.223 . S
O136 C135 1.315 . S
O137 Cd127 2.240 . S
O137 C135 1.279 . S
O138 Cd128 2.297 . S
O138 C133 1.247 . S
O139 Cd128 2.439 . S
O139 C133 1.208 . S
O140 Cd141 2.223 . S
O140 C148 1.315 . S
Cd141 O140 2.223 . S
Cd141 O144 2.297 . S
Cd141 O145 2.439 . S
Cd141 O151 2.240 . S
Cd142 O143 2.240 . S
Cd142 O150 2.223 . S
Cd142 O152 2.297 . S
Cd142 O153 2.439 . S
O143 Cd142 2.240 . S
O143 C148 1.279 . S
O144 Cd141 2.297 . S
O144 C146 1.247 . S
O145 Cd141 2.439 . S
O145 C146 1.208 . S
C146 O144 1.247 . S
C146 O145 1.208 . S
C147 O152 1.247 . S
C147 O153 1.208 . S
C148 O140 1.315 . S
C148 O143 1.279 . S
C149 O150 1.315 . S
C149 O151 1.279 . S
O150 Cd142 2.223 . S
O150 C149 1.315 . S
O151 Cd141 2.240 . S
O151 C149 1.279 . S
O152 Cd142 2.297 . S
O152 C147 1.247 . S
O153 Cd142 2.439 . S
O153 C147 1.208 . S
O154 Cd155 2.223 . S
O154 C162 1.315 . S
Cd155 O154 2.223 . S
Cd155 O158 2.297 . S
Cd155 O159 2.439 . S
Cd155 O165 2.240 . S
Cd156 O157 2.240 . S
Cd156 O164 2.223 . S
Cd156 O166 2.297 . S
Cd156 O167 2.439 . S
O157 Cd156 2.240 . S
O157 C162 1.279 . S
O158 Cd155 2.297 . S
O158 C160 1.247 . S
O159 Cd155 2.439 . S
O159 C160 1.208 . S
C160 O158 1.247 . S
C160 O159 1.208 . S
C161 O166 1.247 . S
C161 O167 1.208 . S
C162 O154 1.315 . S
C162 O157 1.279 . S
C163 O164 1.315 . S
C163 O165 1.279 . S
O164 Cd156 2.223 . S
O164 C163 1.315 . S
O165 Cd155 2.240 . S
O165 C163 1.279 . S
O166 Cd156 2.297 . S
O166 C161 1.247 . S
O167 Cd156 2.439 . S
O167 C161 1.208 . S
O168 Cd169 2.223 . S
O168 C176 1.315 . S
Cd169 O168 2.223 . S
Cd169 O172 2.297 . S
Cd169 O173 2.439 . S
Cd169 O179 2.240 . S
Cd170 O171 2.240 . S
Cd170 O178 2.223 . S
Cd170 O180 2.297 1_455 S
Cd170 O181 2.439 1_455 S
O171 Cd170 2.240 . S
O171 C176 1.279 . S
O172 Cd169 2.297 . S
O172 C174 1.247 . S
O173 Cd169 2.439 . S
O173 C174 1.208 . S
C174 O172 1.247 . S
C174 O173 1.208 . S
C175 O180 1.247 . S
C175 O181 1.208 . S
C176 O168 1.315 . S
C176 O171 1.279 . S
C177 O178 1.315 . S
C177 O179 1.279 . S
O178 Cd170 2.223 . S
O178 C177 1.315 . S
O179 Cd169 2.240 . S
O179 C177 1.279 . S
O180 Cd170 2.297 1_655 S
O180 C175 1.247 . S
O181 Cd170 2.439 1_655 S
O181 C175 1.208 . S
O182 Cd183 2.223 1_455 S
O182 C190 1.315 . S
Cd183 O182 2.223 1_655 S
Cd183 O186 2.297 . S
Cd183 O187 2.439 . S
Cd183 O193 2.240 1_655 S
Cd184 O185 2.240 1_455 S
Cd184 O192 2.223 . S
Cd184 O194 2.297 . S
Cd184 O195 2.439 1_455 S
O185 Cd184 2.240 1_655 S
O185 C190 1.279 1_655 S
O186 Cd183 2.297 . S
O186 C188 1.247 . S
O187 Cd183 2.439 . S
O187 C188 1.208 . S
C188 O186 1.247 . S
C188 O187 1.208 . S
C189 O194 1.247 . S
C189 O195 1.208 1_455 S
C190 O182 1.315 . S
C190 O185 1.279 1_455 S
C191 O192 1.315 . S
C191 O193 1.279 . S
O192 Cd184 2.223 . S
O192 C191 1.315 . S
O193 Cd183 2.240 1_455 S
O193 C191 1.279 . S
O194 Cd184 2.297 . S
O194 C189 1.247 . S
O195 Cd184 2.439 1_655 S
O195 C189 1.208 1_655 S
O196 Cd197 2.223 . S
O196 C204 1.315 . S
Cd197 O196 2.223 . S
Cd197 O200 2.297 . S
Cd197 O201 2.439 . S
Cd197 O207 2.240 . S
Cd198 O199 2.240 . S
Cd198 O206 2.223 . S
Cd198 O208 2.297 . S
Cd198 O209 2.439 . S
O199 Cd198 2.240 . S
O199 C204 1.279 . S
O200 Cd197 2.297 . S
O200 C202 1.247 . S
O201 Cd197 2.439 . S
O201 C202 1.208 . S
C202 O200 1.247 . S
C202 O201 1.208 . S
C203 O208 1.247 . S
C203 O209 1.208 . S
C204 O196 1.315 . S
C204 O199 1.279 . S
C205 O206 1.315 . S
C205 O207 1.279 . S
O206 Cd198 2.223 . S
O206 C205 1.315 . S
O207 Cd197 2.240 . S
O207 C205 1.279 . S
O208 Cd198 2.297 . S
O208 C203 1.247 . S
O209 Cd198 2.439 . S
O209 C203 1.208 . S
O210 Cd211 2.223 . S
O210 C218 1.315 . S
Cd211 O210 2.223 . S
Cd211 O214 2.297 . S
Cd211 O215 2.439 . S
Cd211 O221 2.240 . S
Cd212 O213 2.240 . S
Cd212 O220 2.223 . S
Cd212 O222 2.297 . S
Cd212 O223 2.439 . S
O213 Cd212 2.240 . S
O213 C218 1.279 . S
O214 Cd211 2.297 . S
O214 C216 1.247 . S
O215 Cd211 2.439 . S
O215 C216 1.208 . S
C216 O214 1.247 . S
C216 O215 1.208 . S
C217 O222 1.247 . S
C217 O223 1.208 . S
C218 O210 1.315 . S
C218 O213 1.279 . S
C219 O220 1.315 . S
C219 O221 1.279 . S
O220 Cd212 2.223 . S
O220 C219 1.315 . S
O221 Cd211 2.240 . S
O221 C219 1.279 . S
O222 Cd212 2.297 . S
O222 C217 1.247 . S
O223 Cd212 2.439 . S
O223 C217 1.208 . S
O224 Cd225 2.223 . S
O224 C232 1.315 . S
Cd225 O224 2.223 . S
Cd225 O228 2.297 . S
Cd225 O229 2.439 . S
Cd225 O235 2.240 . S
Cd226 O227 2.240 . S
Cd226 O234 2.223 . S
Cd226 O236 2.297 . S
Cd226 O237 2.439 . S
O227 Cd226 2.240 . S
O227 C232 1.279 . S
O228 Cd225 2.297 . S
O228 C230 1.247 . S
O229 Cd225 2.439 . S
O229 C230 1.208 . S
C230 O228 1.247 . S
C230 O229 1.208 . S
C231 O236 1.247 . S
C231 O237 1.208 . S
C232 O224 1.315 . S
C232 O227 1.279 . S
C233 O234 1.315 . S
C233 O235 1.279 . S
O234 Cd226 2.223 . S
O234 C233 1.315 . S
O235 Cd225 2.240 . S
O235 C233 1.279 . S
O236 Cd226 2.297 . S
O236 C231 1.247 . S
O237 Cd226 2.439 . S
O237 C231 1.208 . S
O238 Cd239 2.223 . S
O238 C246 1.315 . S
Cd239 O238 2.223 . S
Cd239 O242 2.297 . S
Cd239 O243 2.439 . S
Cd239 O249 2.240 . S
Cd240 O241 2.240 . S
Cd240 O248 2.223 . S
Cd240 O250 2.297 . S
Cd240 O251 2.439 . S
O241 Cd240 2.240 . S
O241 C246 1.279 . S
O242 Cd239 2.297 . S
O242 C244 1.247 . S
O243 Cd239 2.439 . S
O243 C244 1.208 . S
C244 O242 1.247 . S
C244 O243 1.208 . S
C245 O250 1.247 . S
C245 O251 1.208 . S
C246 O238 1.315 . S
C246 O241 1.279 . S
C247 O248 1.315 . S
C247 O249 1.279 . S
O248 Cd240 2.223 . S
O248 C247 1.315 . S
O249 Cd239 2.240 . S
O249 C247 1.279 . S
O250 Cd240 2.297 . S
O250 C245 1.247 . S
O251 Cd240 2.439 . S
O251 C245 1.208 . S
O252 Cd253 2.223 1_545 S
O252 C260 1.315 . S
Cd253 O252 2.223 1_565 S
Cd253 O256 2.297 . S
Cd253 O257 2.439 . S
Cd253 O263 2.240 1_565 S
Cd254 O255 2.240 1_545 S
Cd254 O262 2.223 . S
Cd254 O264 2.297 . S
Cd254 O265 2.438 1_545 S
O255 Cd254 2.240 1_565 S
O255 C260 1.279 1_565 S
O256 Cd253 2.297 . S
O256 C258 1.247 . S
O257 Cd253 2.439 . S
O257 C258 1.208 . S
C258 O256 1.247 . S
C258 O257 1.208 . S
C259 O264 1.247 . S
C259 O265 1.207 1_545 S
C260 O252 1.315 . S
C260 O255 1.279 1_545 S
C261 O262 1.315 . S
C261 O263 1.279 . S
O262 Cd254 2.223 . S
O262 C261 1.315 . S
O263 Cd253 2.240 1_545 S
O263 C261 1.279 . S
O264 Cd254 2.297 . S
O264 C259 1.247 . S
O265 Cd254 2.438 1_565 S
O265 C259 1.207 1_565 S
O266 Cd267 2.223 . S
O266 C274 1.315 . S
Cd267 O266 2.223 . S
Cd267 O270 2.297 . S
Cd267 O271 2.439 . S
Cd267 O277 2.240 . S
Cd268 O269 2.240 . S
Cd268 O276 2.223 . S
Cd268 O278 2.297 1_554 S
Cd268 O279 2.439 1_554 S
O269 Cd268 2.240 . S
O269 C274 1.279 . S
O270 Cd267 2.297 . S
O270 C272 1.247 . S
O271 Cd267 2.439 . S
O271 C272 1.208 . S
C272 O270 1.247 . S
C272 O271 1.208 . S
C273 O278 1.247 . S
C273 O279 1.208 . S
C274 O266 1.315 . S
C274 O269 1.279 . S
C275 O276 1.315 . S
C275 O277 1.279 . S
O276 Cd268 2.223 . S
O276 C275 1.315 . S
O277 Cd267 2.240 . S
O277 C275 1.279 . S
O278 Cd268 2.297 1_556 S
O278 C273 1.247 . S
O279 Cd268 2.439 1_556 S
O279 C273 1.208 . S
O280 Cd281 2.223 . S
O280 C288 1.315 . S
Cd281 O280 2.223 . S
Cd281 O284 2.297 . S
Cd281 O285 2.439 1_554 S
Cd281 O291 2.240 1_554 S
Cd282 O283 2.240 1_556 S
Cd282 O290 2.223 1_556 S
Cd282 O292 2.297 . S
Cd282 O293 2.439 . S
O283 Cd282 2.240 1_554 S
O283 C288 1.279 . S
O284 Cd281 2.297 . S
O284 C286 1.247 . S
O285 Cd281 2.439 1_556 S
O285 C286 1.208 1_556 S
C286 O284 1.247 . S
C286 O285 1.208 1_554 S
C287 O292 1.247 . S
C287 O293 1.208 . S
C288 O280 1.315 . S
C288 O283 1.279 . S
C289 O290 1.315 . S
C289 O291 1.279 1_554 S
O290 Cd282 2.223 1_554 S
O290 C289 1.315 . S
O291 Cd281 2.240 1_556 S
O291 C289 1.279 1_556 S
O292 Cd282 2.297 . S
O292 C287 1.247 . S
O293 Cd282 2.439 . S
O293 C287 1.208 . S
O294 Cd295 2.223 . S
O294 C302 1.315 . S
Cd295 O294 2.223 . S
Cd295 O298 2.297 . S
Cd295 O299 2.439 . S
Cd295 O305 2.240 . S
Cd296 O297 2.240 . S
Cd296 O304 2.223 . S
Cd296 O306 2.297 . S
Cd296 O307 2.439 . S
O297 Cd296 2.240 . S
O297 C302 1.279 . S
O298 Cd295 2.297 . S
O298 C300 1.247 . S
O299 Cd295 2.439 . S
O299 C300 1.208 . S
C300 O298 1.247 . S
C300 O299 1.208 . S
C301 O306 1.247 . S
C301 O307 1.208 . S
C302 O294 1.315 . S
C302 O297 1.279 . S
C303 O304 1.315 . S
C303 O305 1.279 . S
O304 Cd296 2.223 . S
O304 C303 1.315 . S
O305 Cd295 2.240 . S
O305 C303 1.279 . S
O306 Cd296 2.297 . S
O306 C301 1.247 . S
O307 Cd296 2.439 . S
O307 C301 1.208 . S
O308 Cd309 2.223 . S
O308 C316 1.315 . S
Cd309 O308 2.223 . S
Cd309 O312 2.297 . S
Cd309 O313 2.439 . S
Cd309 O319 2.240 . S
Cd310 O311 2.240 . S
Cd310 O318 2.223 . S
Cd310 O320 2.297 . S
Cd310 O321 2.439 . S
O311 Cd310 2.240 . S
O311 C316 1.279 . S
O312 Cd309 2.297 . S
O312 C314 1.247 . S
O313 Cd309 2.439 . S
O313 C314 1.208 . S
C314 O312 1.247 . S
C314 O313 1.208 . S
C315 O320 1.247 . S
C315 O321 1.208 . S
C316 O308 1.315 . S
C316 O311 1.279 . S
C317 O318 1.315 . S
C317 O319 1.279 . S
O318 Cd310 2.223 . S
O318 C317 1.315 . S
O319 Cd309 2.240 . S
O319 C317 1.279 . S
O320 Cd310 2.297 . S
O320 C315 1.247 . S
O321 Cd310 2.439 . S
O321 C315 1.208 . S
O322 Cd323 2.223 . S
O322 C330 1.315 . S
Cd323 O322 2.223 . S
Cd323 O326 2.297 . S
Cd323 O327 2.439 . S
Cd323 O333 2.240 . S
Cd324 O325 2.240 . S
Cd324 O332 2.223 . S
Cd324 O334 2.297 . S
Cd324 O335 2.439 . S
O325 Cd324 2.240 . S
O325 C330 1.279 . S
O326 Cd323 2.297 . S
O326 C328 1.247 . S
O327 Cd323 2.439 . S
O327 C328 1.208 . S
C328 O326 1.247 . S
C328 O327 1.208 . S
C329 O334 1.247 . S
C329 O335 1.208 . S
C330 O322 1.315 . S
C330 O325 1.279 . S
C331 O332 1.315 . S
C331 O333 1.279 . S
O332 Cd324 2.223 . S
O332 C331 1.315 . S
O333 Cd323 2.240 . S
O333 C331 1.279 . S
O334 Cd324 2.297 . S
O334 C329 1.247 . S
O335 Cd324 2.439 . S
O335 C329 1.208 . S
Co336 N341 2.057 1_554 S
Co336 O353 2.021 1_544 S
Co336 O356 2.062 1_455 S
Co336 O360 2.117 . S
Co336 O361 2.020 . S
C337 O357 1.259 . S
C337 O360 1.258 . S
Co338 N347 2.057 1_545 S
Co338 O354 2.117 1_545 S
Co338 O355 2.020 . S
Co338 O357 2.021 . S
Co338 O362 2.062 . S
C339 N341 1.316 . S
C339 N342 1.347 . S
C339 H344 0.931 . S
C340 N341 1.375 . S
C340 C343 1.350 . S
C340 H345 0.930 . S
N341 Co336 2.057 1_556 S
N341 C339 1.316 . S
N341 C340 1.375 . S
N342 C339 1.347 . S
N342 C343 1.373 . S
C343 C340 1.350 . S
C343 N342 1.373 . S
C343 H364 0.931 1_455 S
H344 C339 0.931 . S
H345 C340 0.930 . S
C346 O353 1.259 1_554 S
C346 O354 1.258 . S
N347 Co338 2.057 1_565 S
N347 C348 1.316 1_565 S
N347 C349 1.375 . S
C348 N347 1.316 1_545 S
C348 N350 1.347 1_545 S
C348 H359 0.931 . S
C349 N347 1.375 . S
C349 C351 1.350 . S
C349 H358 0.930 . S
N350 C348 1.347 1_565 S
N350 C351 1.373 . S
C351 C349 1.350 . S
C351 N350 1.373 . S
C351 H365 0.931 . S
C352 O355 1.256 1_655 S
C352 O356 1.255 . S
O353 Co336 2.021 1_566 S
O353 C346 1.259 1_556 S
O354 Co338 2.117 1_565 S
O354 C346 1.258 . S
O355 Co338 2.020 . S
O355 C352 1.256 1_455 S
O356 Co336 2.062 1_655 S
O356 C352 1.255 . S
O357 C337 1.259 . S
O357 Co338 2.021 . S
H358 C349 0.930 . S
H359 C348 0.931 . S
O360 Co336 2.117 . S
O360 C337 1.258 . S
O361 Co336 2.020 . S
O361 C363 1.256 . S
O362 Co338 2.062 . S
O362 C363 1.255 . S
C363 O361 1.256 . S
C363 O362 1.255 . S
H364 C343 0.931 1_655 S
H365 C351 0.931 . S
Co366 N371 2.057 . S
Co366 O383 2.021 . S
Co366 O386 2.062 . S
Co366 O390 2.117 . S
Co366 O391 2.020 . S
C367 O387 1.259 . S
C367 O390 1.258 . S
Co368 N377 2.057 . S
Co368 O384 2.117 . S
Co368 O385 2.020 . S
Co368 O387 2.021 . S
Co368 O392 2.062 . S
C369 N371 1.316 . S
C369 N372 1.347 . S
C369 H374 0.931 . S
C370 N371 1.375 . S
C370 C373 1.350 . S
C370 H375 0.930 . S
N371 Co366 2.057 . S
N371 C369 1.316 . S
N371 C370 1.375 . S
N372 C369 1.347 . S
N372 C373 1.373 . S
C373 C370 1.350 . S
C373 N372 1.373 . S
C373 H394 0.931 . S
H374 C369 0.931 . S
H375 C370 0.930 . S
C376 O383 1.259 . S
C376 O384 1.258 . S
N377 Co368 2.057 . S
N377 C378 1.316 . S
N377 C379 1.375 . S
C378 N377 1.316 . S
C378 N380 1.347 . S
C378 H389 0.931 . S
C379 N377 1.375 . S
C379 C381 1.350 . S
C379 H388 0.930 . S
N380 C378 1.347 . S
N380 C381 1.373 . S
C381 C379 1.350 . S
C381 N380 1.373 . S
C381 H395 0.931 . S
C382 O385 1.256 . S
C382 O386 1.255 . S
O383 Co366 2.021 . S
O383 C376 1.259 . S
O384 Co368 2.117 . S
O384 C376 1.258 . S
O385 Co368 2.020 . S
O385 C382 1.256 . S
O386 Co366 2.062 . S
O386 C382 1.255 . S
O387 C367 1.259 . S
O387 Co368 2.021 . S
H388 C379 0.930 . S
H389 C378 0.931 . S
O390 Co366 2.117 . S
O390 C367 1.258 . S
O391 Co366 2.020 . S
O391 C393 1.256 . S
O392 Co368 2.062 . S
O392 C393 1.255 . S
C393 O391 1.256 . S
C393 O392 1.255 . S
H394 C373 0.931 . S
H395 C381 0.931 . S
Co396 N401 2.057 . S
Co396 O413 2.021 1_545 S
Co396 O416 2.062 . S
Co396 O420 2.117 . S
Co396 O421 2.020 . S
C397 O417 1.259 . S
C397 O420 1.258 . S
Co398 N407 2.057 . S
Co398 O414 2.117 . S
Co398 O415 2.020 . S
Co398 O417 2.021 . S
Co398 O422 2.062 . S
C399 N401 1.300 1_565 S
C399 N402 1.343 1_565 S
C399 H404 0.949 . S
C400 N401 1.375 . S
C400 C403 1.350 . S
C400 H405 0.930 . S
N401 Co396 2.057 . S
N401 C399 1.300 1_545 S
N401 C400 1.375 . S
N402 C399 1.343 1_545 S
N402 C403 1.373 . S
C403 C400 1.350 . S
C403 N402 1.373 . S
C403 H424 0.931 . S
H404 C399 0.949 . S
H405 C400 0.930 . S
C406 O413 1.259 . S
C406 O414 1.258 1_565 S
N407 Co398 2.057 . S
N407 C408 1.316 . S
N407 C409 1.375 . S
C408 N407 1.316 . S
C408 N410 1.347 . S
C408 H419 0.931 . S
C409 N407 1.375 . S
C409 C411 1.350 . S
C409 H418 0.930 . S
N410 C408 1.347 . S
N410 C411 1.373 . S
C411 C409 1.350 . S
C411 N410 1.373 . S
C411 H425 0.931 . S
C412 O415 1.256 . S
C412 O416 1.255 . S
O413 Co396 2.021 1_565 S
O413 C406 1.259 . S
O414 Co398 2.117 . S
O414 C406 1.258 1_545 S
O415 Co398 2.020 . S
O415 C412 1.256 . S
O416 Co396 2.062 . S
O416 C412 1.255 . S
O417 C397 1.259 . S
O417 Co398 2.021 . S
H418 C409 0.930 . S
H419 C408 0.931 . S
O420 Co396 2.117 . S
O420 C397 1.258 . S
O421 Co396 2.020 . S
O421 C423 1.256 . S
O422 Co398 2.062 . S
O422 C423 1.255 . S
C423 O421 1.256 . S
C423 O422 1.255 . S
H424 C403 0.931 . S
H425 C411 0.931 . S
Co426 N431 2.057 . S
Co426 O443 2.021 . S
Co426 O446 2.062 . S
Co426 O450 2.117 . S
Co426 O451 2.020 . S
C427 O447 1.259 . S
C427 O450 1.258 . S
Co428 N437 2.057 . S
Co428 O444 2.117 . S
Co428 O445 2.020 . S
Co428 O447 2.021 . S
Co428 O452 2.062 . S
C429 N431 1.316 . S
C429 N432 1.347 . S
C429 H434 0.931 . S
C430 N431 1.375 . S
C430 C433 1.350 . S
C430 H435 0.930 . S
N431 Co426 2.057 . S
N431 C429 1.316 . S
N431 C430 1.375 . S
N432 C429 1.347 . S
N432 C433 1.373 . S
C433 C430 1.350 . S
C433 N432 1.373 . S
C433 H454 0.931 . S
H434 C429 0.931 . S
H435 C430 0.930 . S
C436 O443 1.259 . S
C436 O444 1.258 . S
N437 Co428 2.057 . S
N437 C438 1.316 . S
N437 C439 1.375 . S
C438 N437 1.316 . S
C438 N440 1.347 . S
C438 H449 0.931 . S
C439 N437 1.375 . S
C439 C441 1.350 . S
C439 H448 0.930 . S
N440 C438 1.347 . S
N440 C441 1.373 . S
C441 C439 1.350 . S
C441 N440 1.373 . S
C441 H455 0.931 . S
C442 O445 1.256 . S
C442 O446 1.255 . S
O443 Co426 2.021 . S
O443 C436 1.259 . S
O444 Co428 2.117 . S
O444 C436 1.258 . S
O445 Co428 2.020 . S
O445 C442 1.256 . S
O446 Co426 2.062 . S
O446 C442 1.255 . S
O447 C427 1.259 . S
O447 Co428 2.021 . S
H448 C439 0.930 . S
H449 C438 0.931 . S
O450 Co426 2.117 . S
O450 C427 1.258 . S
O451 Co426 2.020 . S
O451 C453 1.256 . S
O452 Co428 2.062 . S
O452 C453 1.255 . S
C453 O451 1.256 . S
C453 O452 1.255 . S
H454 C433 0.931 . S
H455 C441 0.931 . S
Co456 N461 2.057 1_545 S
Co456 O473 2.021 . S
Co456 O476 2.062 1_545 S
Co456 O480 2.117 . S
Co456 O481 2.020 1_455 S
C457 O477 1.259 . S
C457 O480 1.258 . S
Co458 N467 2.057 . S
Co458 O474 2.117 . S
Co458 O475 2.020 . S
Co458 O477 2.021 . S
Co458 O482 2.062 1_455 S
C459 N461 1.316 . S
C459 N462 1.347 . S
C459 H464 0.931 . S
C460 N461 1.375 1_655 S
C460 C463 1.350 . S
C460 H465 0.930 . S
N461 Co456 2.057 1_565 S
N461 C459 1.316 . S
N461 C460 1.375 1_455 S
N462 C459 1.347 . S
N462 C463 1.373 1_455 S
C463 C460 1.350 . S
C463 N462 1.373 1_655 S
C463 H484 0.931 . S
H464 C459 0.931 . S
H465 C460 0.930 . S
C466 O473 1.259 . S
C466 O474 1.258 . S
N467 Co458 2.057 . S
N467 C468 1.316 . S
N467 C469 1.375 . S
C468 N467 1.316 . S
C468 N470 1.347 . S
C468 H479 0.931 . S
C469 N467 1.375 . S
C469 C471 1.350 . S
C469 H478 0.930 . S
N470 C468 1.347 . S
N470 C471 1.373 . S
C471 C469 1.350 . S
C471 N470 1.373 . S
C471 H485 0.931 . S
C472 O475 1.256 . S
C472 O476 1.255 1_545 S
O473 Co456 2.021 . S
O473 C466 1.259 . S
O474 Co458 2.117 . S
O474 C466 1.258 . S
O475 Co458 2.020 . S
O475 C472 1.256 . S
O476 Co456 2.062 1_565 S
O476 C472 1.255 1_565 S
O477 C457 1.259 . S
O477 Co458 2.021 . S
H478 C469 0.930 . S
H479 C468 0.931 . S
O480 Co456 2.117 . S
O480 C457 1.258 . S
O481 Co456 2.020 1_655 S
O481 C483 1.256 . S
O482 Co458 2.062 1_655 S
O482 C483 1.255 . S
C483 O481 1.256 . S
C483 O482 1.255 . S
H484 C463 0.931 . S
H485 C471 0.931 . S
Co486 N491 2.057 . S
Co486 O503 2.021 . S
Co486 O506 2.062 . S
Co486 O510 2.117 . S
Co486 O511 2.020 . S
C487 O507 1.259 . S
C487 O510 1.258 . S
Co488 N497 2.057 . S
Co488 O504 2.117 . S
Co488 O505 2.020 . S
Co488 O507 2.021 . S
Co488 O512 2.062 . S
C489 N491 1.316 . S
C489 N492 1.347 . S
C489 H494 0.931 . S
C490 N491 1.375 . S
C490 C493 1.350 . S
C490 H495 0.930 . S
N491 Co486 2.057 . S
N491 C489 1.316 . S
N491 C490 1.375 . S
N492 C489 1.347 . S
N492 C493 1.373 . S
C493 C490 1.350 . S
C493 N492 1.373 . S
C493 H514 0.931 . S
H494 C489 0.931 . S
H495 C490 0.930 . S
C496 O503 1.259 . S
C496 O504 1.258 . S
N497 Co488 2.057 . S
N497 C498 1.316 . S
N497 C499 1.375 . S
C498 N497 1.316 . S
C498 N500 1.347 . S
C498 H509 0.931 . S
C499 N497 1.375 . S
C499 C501 1.350 . S
C499 H508 0.930 . S
N500 C498 1.347 . S
N500 C501 1.373 . S
C501 C499 1.350 . S
C501 N500 1.373 . S
C501 H515 0.931 . S
C502 O505 1.256 . S
C502 O506 1.255 . S
O503 Co486 2.021 . S
O503 C496 1.259 . S
O504 Co488 2.117 . S
O504 C496 1.258 . S
O505 Co488 2.020 . S
O505 C502 1.256 . S
O506 Co486 2.062 . S
O506 C502 1.255 . S
O507 C487 1.259 . S
O507 Co488 2.021 . S
H508 C499 0.930 . S
H509 C498 0.931 . S
O510 Co486 2.117 . S
O510 C487 1.258 . S
O511 Co486 2.020 . S
O511 C513 1.256 . S
O512 Co488 2.062 . S
O512 C513 1.255 . S
C513 O511 1.256 . S
C513 O512 1.255 . S
H514 C493 0.931 . S
H515 C501 0.931 . S
Co516 N521 2.057 1_554 S
Co516 O533 2.021 . S
Co516 O536 2.062 . S
Co516 O540 2.117 . S
Co516 O541 2.020 1_545 S
C517 O537 1.259 . S
C517 O540 1.258 . S
Co518 N527 2.057 . S
Co518 O534 2.117 . S
Co518 O535 2.020 . S
Co518 O537 2.021 . S
Co518 O542 2.062 . S
C519 N521 1.316 . S
C519 N522 1.347 . S
C519 H524 0.931 . S
C520 N521 1.375 . S
C520 C523 1.350 . S
C520 H525 0.930 1_545 S
N521 Co516 2.057 1_556 S
N521 C519 1.316 . S
N521 C520 1.375 . S
N522 C519 1.347 . S
N522 C523 1.373 . S
C523 C520 1.350 . S
C523 N522 1.373 . S
C523 H544 0.931 1_545 S
H524 C519 0.931 . S
H525 C520 0.930 1_565 S
C526 O533 1.259 . S
C526 O534 1.258 . S
N527 Co518 2.057 . S
N527 C528 1.316 . S
N527 C529 1.375 . S
C528 N527 1.316 . S
C528 N530 1.347 . S
C528 H539 0.931 . S
C529 N527 1.375 . S
C529 C531 1.350 . S
C529 H538 0.930 . S
N530 C528 1.347 . S
N530 C531 1.373 . S
C531 C529 1.350 . S
C531 N530 1.373 . S
C531 H545 0.931 . S
C532 O535 1.256 . S
C532 O536 1.257 . S
O533 Co516 2.021 . S
O533 C526 1.259 . S
O534 Co518 2.117 . S
O534 C526 1.258 . S
O535 Co518 2.020 . S
O535 C532 1.256 . S
O536 Co516 2.062 . S
O536 C532 1.257 . S
O537 C517 1.259 . S
O537 Co518 2.021 . S
H538 C529 0.930 . S
H539 C528 0.931 . S
O540 Co516 2.117 . S
O540 C517 1.258 . S
O541 Co516 2.020 1_565 S
O541 C543 1.256 . S
O542 Co518 2.062 . S
O542 C543 1.255 1_545 S
C543 O541 1.256 . S
C543 O542 1.255 1_565 S
H544 C523 0.931 1_565 S
H545 C531 0.931 . S
Co546 N551 2.057 . S
Co546 O563 2.021 . S
Co546 O566 2.062 . S
Co546 O570 2.117 . S
Co546 O571 2.020 . S
C547 O567 1.259 . S
C547 O570 1.258 . S
Co548 N557 2.057 . S
Co548 O564 2.117 . S
Co548 O565 2.020 . S
Co548 O567 2.021 . S
Co548 O572 2.062 . S
C549 N551 1.316 . S
C549 N552 1.347 . S
C549 H554 0.931 . S
C550 N551 1.375 . S
C550 C553 1.350 . S
C550 H555 0.930 . S
N551 Co546 2.057 . S
N551 C549 1.316 . S
N551 C550 1.375 . S
N552 C549 1.347 . S
N552 C553 1.373 . S
C553 C550 1.350 . S
C553 N552 1.373 . S
C553 H574 0.931 . S
H554 C549 0.931 . S
H555 C550 0.930 . S
C556 O563 1.259 . S
C556 O564 1.258 . S
N557 Co548 2.057 . S
N557 C558 1.316 . S
N557 C559 1.375 . S
C558 N557 1.316 . S
C558 N560 1.347 . S
C558 H569 0.931 . S
C559 N557 1.375 . S
C559 C561 1.350 . S
C559 H568 0.930 . S
N560 C558 1.347 . S
N560 C561 1.373 . S
C561 C559 1.350 . S
C561 N560 1.373 . S
C561 H575 0.931 . S
C562 O565 1.256 . S
C562 O566 1.255 . S
O563 Co546 2.021 . S
O563 C556 1.259 . S
O564 Co548 2.117 . S
O564 C556 1.258 . S
O565 Co548 2.020 . S
O565 C562 1.256 . S
O566 Co546 2.062 . S
O566 C562 1.255 . S
O567 C547 1.259 . S
O567 Co548 2.021 . S
H568 C559 0.930 . S
H569 C558 0.931 . S
O570 Co546 2.117 . S
O570 C547 1.258 . S
O571 Co546 2.020 . S
O571 C573 1.256 . S
O572 Co548 2.062 . S
O572 C573 1.255 . S
C573 O571 1.256 . S
C573 O572 1.255 . S
H574 C553 0.931 . S
H575 C561 0.931 . S
Co576 N581 2.057 . S
Co576 O593 2.021 1_554 S
Co576 O596 2.062 . S
Co576 O600 2.117 . S
Co576 O601 2.020 . S
C577 O597 1.259 . S
C577 O600 1.258 . S
Co578 N587 2.057 . S
Co578 O594 2.117 . S
Co578 O595 2.020 . S
Co578 O597 2.021 . S
Co578 O602 2.062 . S
C579 N581 1.316 . S
C579 N582 1.347 . S
C579 H584 0.931 1_554 S
C580 N581 1.375 . S
C580 C583 1.350 . S
C580 H585 0.930 . S
N581 Co576 2.057 . S
N581 C579 1.316 . S
N581 C580 1.375 . S
N582 C579 1.347 . S
N582 C583 1.373 . S
C583 C580 1.350 . S
C583 N582 1.373 . S
C583 H604 0.931 . S
H584 C579 0.931 1_556 S
H585 C580 0.930 . S
C586 O593 1.259 . S
C586 O594 1.258 1_556 S
N587 Co578 2.057 . S
N587 C588 1.316 . S
N587 C589 1.375 . S
C588 N587 1.316 . S
C588 N590 1.347 . S
C588 H599 0.931 . S
C589 N587 1.375 . S
C589 C591 1.350 . S
C589 H598 0.930 . S
N590 C588 1.347 . S
N590 C591 1.373 . S
C591 C589 1.350 . S
C591 N590 1.373 . S
C591 H605 0.931 . S
C592 O595 1.256 . S
C592 O596 1.255 . S
O593 Co576 2.021 1_556 S
O593 C586 1.259 . S
O594 Co578 2.117 . S
O594 C586 1.258 1_554 S
O595 Co578 2.020 . S
O595 C592 1.256 . S
O596 Co576 2.062 . S
O596 C592 1.255 . S
O597 C577 1.259 . S
O597 Co578 2.021 . S
H598 C589 0.930 . S
H599 C588 0.931 . S
O600 Co576 2.117 . S
O600 C577 1.258 . S
O601 Co576 2.020 . S
O601 C603 1.256 . S
O602 Co578 2.062 . S
O602 C603 1.255 . S
C603 O601 1.256 . S
C603 O602 1.255 . S
H604 C583 0.931 . S
H605 C591 0.931 . S
Co606 N611 2.057 . S
Co606 O623 2.021 . S
Co606 O626 2.062 . S
Co606 O630 2.117 . S
Co606 O631 2.020 . S
C607 O627 1.259 . S
C607 O630 1.258 . S
Co608 N617 2.057 . S
Co608 O624 2.117 . S
Co608 O625 2.020 . S
Co608 O627 2.021 . S
Co608 O632 2.062 . S
C609 N611 1.316 . S
C609 N612 1.347 . S
C609 H614 0.931 . S
C610 N611 1.375 . S
C610 C613 1.350 . S
C610 H615 0.930 . S
N611 Co606 2.057 . S
N611 C609 1.316 . S
N611 C610 1.375 . S
N612 C609 1.347 . S
N612 C613 1.373 . S
C613 C610 1.350 . S
C613 N612 1.373 . S
C613 H634 0.931 . S
H614 C609 0.931 . S
H615 C610 0.930 . S
C616 O623 1.259 . S
C616 O624 1.258 . S
N617 Co608 2.057 . S
N617 C618 1.316 . S
N617 C619 1.375 . S
C618 N617 1.316 . S
C618 N620 1.347 . S
C618 H629 0.931 . S
C619 N617 1.375 . S
C619 C621 1.350 . S
C619 H628 0.930 . S
N620 C618 1.347 . S
N620 C621 1.373 . S
C621 C619 1.350 . S
C621 N620 1.373 . S
C621 H635 0.931 . S
C622 O625 1.256 . S
C622 O626 1.255 . S
O623 Co606 2.021 . S
O623 C616 1.259 . S
O624 Co608 2.117 . S
O624 C616 1.258 . S
O625 Co608 2.020 . S
O625 C622 1.256 . S
O626 Co606 2.062 . S
O626 C622 1.255 . S
O627 C607 1.259 . S
O627 Co608 2.021 . S
H628 C619 0.930 . S
H629 C618 0.931 . S
O630 Co606 2.117 . S
O630 C607 1.258 . S
O631 Co606 2.020 . S
O631 C633 1.256 . S
O632 Co608 2.062 . S
O632 C633 1.255 . S
C633 O631 1.256 . S
C633 O632 1.255 . S
H634 C613 0.931 . S
H635 C621 0.931 . S
Co636 N641 2.057 . S
Co636 O653 2.021 1_455 S
Co636 O656 2.062 . S
Co636 O660 2.117 . S
Co636 O661 2.020 . S
C637 O657 1.259 . S
C637 O660 1.258 . S
Co638 N647 2.057 . S
Co638 O654 2.117 . S
Co638 O655 2.020 . S
Co638 O657 2.021 . S
Co638 O662 2.062 . S
C639 N641 1.316 . S
C639 N642 1.347 . S
C639 H644 0.931 1_455 S
C640 N641 1.375 . S
C640 C643 1.350 . S
C640 H645 0.930 . S
N641 Co636 2.057 . S
N641 C639 1.316 . S
N641 C640 1.375 . S
N642 C639 1.347 . S
N642 C643 1.373 . S
C643 C640 1.350 . S
C643 N642 1.373 . S
C643 H664 0.931 . S
H644 C639 0.931 1_655 S
H645 C640 0.930 . S
C646 O653 1.259 . S
C646 O654 1.258 1_655 S
N647 Co638 2.057 . S
N647 C648 1.316 . S
N647 C649 1.375 . S
C648 N647 1.316 . S
C648 N650 1.347 . S
C648 H659 0.931 . S
C649 N647 1.375 . S
C649 C651 1.350 . S
C649 H658 0.930 . S
N650 C648 1.347 . S
N650 C651 1.373 . S
C651 C649 1.350 . S
C651 N650 1.373 . S
C651 H665 0.931 . S
C652 O655 1.256 . S
C652 O656 1.255 . S
O653 Co636 2.021 1_655 S
O653 C646 1.259 . S
O654 Co638 2.117 . S
O654 C646 1.258 1_455 S
O655 Co638 2.020 . S
O655 C652 1.256 . S
O656 Co636 2.062 . S
O656 C652 1.255 . S
O657 C637 1.259 . S
O657 Co638 2.021 . S
H658 C649 0.930 . S
H659 C648 0.931 . S
O660 Co636 2.117 . S
O660 C637 1.258 . S
O661 Co636 2.020 . S
O661 C663 1.256 . S
O662 Co638 2.062 . S
O662 C663 1.255 . S
C663 O661 1.256 . S
C663 O662 1.255 . S
H664 C643 0.931 . S
H665 C651 0.931 . S
Co666 N671 2.057 . S
Co666 O683 2.021 . S
Co666 O686 2.062 . S
Co666 O690 2.117 . S
Co666 O691 2.020 . S
C667 O687 1.259 . S
C667 O690 1.258 . S
Co668 N677 2.057 . S
Co668 O684 2.117 . S
Co668 O685 2.020 . S
Co668 O687 2.021 . S
Co668 O692 2.062 . S
C669 N671 1.316 . S
C669 N672 1.347 . S
C669 H674 0.931 . S
C670 N671 1.375 . S
C670 C673 1.350 . S
C670 H675 0.930 . S
N671 Co666 2.057 . S
N671 C669 1.316 . S
N671 C670 1.375 . S
N672 C669 1.347 . S
N672 C673 1.373 . S
C673 C670 1.350 . S
C673 N672 1.373 . S
C673 H694 0.931 . S
H674 C669 0.931 . S
H675 C670 0.930 . S
C676 O683 1.259 . S
C676 O684 1.258 . S
N677 Co668 2.057 . S
N677 C678 1.316 . S
N677 C679 1.375 . S
C678 N677 1.316 . S
C678 N680 1.347 . S
C678 H689 0.931 . S
C679 N677 1.375 . S
C679 C681 1.350 . S
C679 H688 0.930 . S
N680 C678 1.347 . S
N680 C681 1.373 . S
C681 C679 1.350 . S
C681 N680 1.373 . S
C681 H695 0.931 . S
C682 O685 1.256 . S
C682 O686 1.255 . S
O683 Co666 2.021 . S
O683 C676 1.259 . S
O684 Co668 2.117 . S
O684 C676 1.258 . S
O685 Co668 2.020 . S
O685 C682 1.256 . S
O686 Co666 2.062 . S
O686 C682 1.255 . S
O687 C667 1.259 . S
O687 Co668 2.021 . S
H688 C679 0.930 . S
H689 C678 0.931 . S
O690 Co666 2.117 . S
O690 C667 1.258 . S
O691 Co666 2.020 . S
O691 C693 1.256 . S
O692 Co668 2.062 . S
O692 C693 1.255 . S
C693 O691 1.256 . S
C693 O692 1.255 . S
H694 C673 0.931 . S
H695 C681 0.931 . S
Co696 N701 2.057 . S
Co696 O713 2.021 . S
Co696 O716 2.062 . S
Co696 O720 2.117 . S
Co696 O721 2.020 . S
C697 O717 1.259 . S
C697 O720 1.258 . S
Co698 N707 2.057 . S
Co698 O714 2.117 . S
Co698 O715 2.020 . S
Co698 O717 2.021 . S
Co698 O722 2.062 . S
C699 N701 1.316 . S
C699 N702 1.347 . S
C699 H704 0.931 . S
C700 N701 1.375 . S
C700 C703 1.350 . S
C700 H705 0.930 . S
N701 Co696 2.057 . S
N701 C699 1.316 . S
N701 C700 1.375 . S
N702 C699 1.347 . S
N702 C703 1.373 . S
C703 C700 1.350 . S
C703 N702 1.373 . S
C703 H724 0.931 . S
H704 C699 0.931 . S
H705 C700 0.930 . S
C706 O713 1.259 . S
C706 O714 1.258 . S
N707 Co698 2.057 . S
N707 C708 1.316 . S
N707 C709 1.375 . S
C708 N707 1.316 . S
C708 N710 1.347 . S
C708 H719 0.931 . S
C709 N707 1.375 . S
C709 C711 1.350 . S
C709 H718 0.930 . S
N710 C708 1.347 . S
N710 C711 1.373 . S
C711 C709 1.350 . S
C711 N710 1.373 . S
C711 H725 0.931 . S
C712 O715 1.256 . S
C712 O716 1.255 . S
O713 Co696 2.021 . S
O713 C706 1.259 . S
O714 Co698 2.117 . S
O714 C706 1.258 . S
O715 Co698 2.020 . S
O715 C712 1.256 . S
O716 Co696 2.062 . S
O716 C712 1.255 . S
O717 C697 1.259 . S
O717 Co698 2.021 . S
H718 C709 0.930 . S
H719 C708 0.931 . S
O720 Co696 2.117 . S
O720 C697 1.258 . S
O721 Co696 2.020 . S
O721 C723 1.256 . S
O722 Co698 2.062 . S
O722 C723 1.255 . S
C723 O721 1.256 . S
C723 O722 1.255 . S
H724 C703 0.931 . S
H725 C711 0.931 . S
Co726 N731 2.057 . S
Co726 O743 2.021 . S
Co726 O746 2.062 . S
Co726 O750 2.117 . S
Co726 O751 2.020 . S
C727 O747 1.259 . S
C727 O750 1.258 . S
Co728 N737 2.057 . S
Co728 O744 2.117 . S
Co728 O745 2.020 . S
Co728 O747 2.021 . S
Co728 O752 2.062 . S
C729 N731 1.316 . S
C729 N732 1.347 . S
C729 H734 0.931 . S
C730 N731 1.375 . S
C730 C733 1.350 . S
C730 H735 0.930 . S
N731 Co726 2.057 . S
N731 C729 1.316 . S
N731 C730 1.375 . S
N732 C729 1.347 . S
N732 C733 1.373 . S
C733 C730 1.350 . S
C733 N732 1.373 . S
C733 H754 0.931 . S
H734 C729 0.931 . S
H735 C730 0.930 . S
C736 O743 1.259 . S
C736 O744 1.258 . S
N737 Co728 2.057 . S
N737 C738 1.316 . S
N737 C739 1.375 . S
C738 N737 1.316 . S
C738 N740 1.347 . S
C738 H749 0.931 . S
C739 N737 1.375 . S
C739 C741 1.350 . S
C739 H748 0.930 . S
N740 C738 1.347 . S
N740 C741 1.373 . S
C741 C739 1.350 . S
C741 N740 1.373 . S
C741 H755 0.931 . S
C742 O745 1.256 . S
C742 O746 1.255 . S
O743 Co726 2.021 . S
O743 C736 1.259 . S
O744 Co728 2.117 . S
O744 C736 1.258 . S
O745 Co728 2.020 . S
O745 C742 1.256 . S
O746 Co726 2.062 . S
O746 C742 1.255 . S
O747 C727 1.259 . S
O747 Co728 2.021 . S
H748 C739 0.930 . S
H749 C738 0.931 . S
O750 Co726 2.117 . S
O750 C727 1.258 . S
O751 Co726 2.020 . S
O751 C753 1.256 . S
O752 Co728 2.062 . S
O752 C753 1.255 . S
C753 O751 1.256 . S
C753 O752 1.255 . S
H754 C733 0.931 . S
H755 C741 0.931 . S
Co756 N761 2.057 . S
Co756 O773 2.021 . S
Co756 O776 2.062 . S
Co756 O780 2.117 . S
Co756 O781 2.020 . S
C757 O777 1.259 . S
C757 O780 1.258 . S
Co758 N767 2.057 . S
Co758 O774 2.117 . S
Co758 O775 2.020 . S
Co758 O777 2.021 . S
Co758 O782 2.062 . S
C759 N761 1.316 . S
C759 N762 1.347 . S
C759 H764 0.931 . S
C760 N761 1.375 . S
C760 C763 1.350 . S
C760 H765 0.930 . S
N761 Co756 2.057 . S
N761 C759 1.316 . S
N761 C760 1.375 . S
N762 C759 1.347 . S
N762 C763 1.373 . S
C763 C760 1.350 . S
C763 N762 1.373 . S
C763 H784 0.931 . S
H764 C759 0.931 . S
H765 C760 0.930 . S
C766 O773 1.259 . S
C766 O774 1.258 . S
N767 Co758 2.057 . S
N767 C768 1.316 . S
N767 C769 1.375 . S
C768 N767 1.316 . S
C768 N770 1.347 . S
C768 H779 0.931 . S
C769 N767 1.375 . S
C769 C771 1.350 . S
C769 H778 0.930 . S
N770 C768 1.347 . S
N770 C771 1.373 . S
C771 C769 1.350 . S
C771 N770 1.373 . S
C771 H785 0.931 . S
C772 O775 1.256 . S
C772 O776 1.255 . S
O773 Co756 2.021 . S
O773 C766 1.259 . S
O774 Co758 2.117 . S
O774 C766 1.258 . S
O775 Co758 2.020 . S
O775 C772 1.256 . S
O776 Co756 2.062 . S
O776 C772 1.255 . S
O777 C757 1.259 . S
O777 Co758 2.021 . S
H778 C769 0.930 . S
H779 C768 0.931 . S
O780 Co756 2.117 . S
O780 C757 1.258 . S
O781 Co756 2.020 . S
O781 C783 1.256 . S
O782 Co758 2.062 . S
O782 C783 1.255 . S
C783 O781 1.256 . S
C783 O782 1.255 . S
H784 C763 0.931 . S
H785 C771 0.931 . S
Co786 N791 2.057 1_455 S
Co786 O803 2.021 . S
Co786 O806 2.059 1_455 S
Co786 O810 2.117 . S
Co786 O811 2.020 1_554 S
C787 O807 1.259 . S
C787 O810 1.258 . S
Co788 N797 2.057 . S
Co788 O804 2.117 . S
Co788 O805 2.020 . S
Co788 O807 2.021 . S
Co788 O812 2.062 . S
C789 N791 1.316 . S
C789 N792 1.347 . S
C789 H794 0.931 . S
C790 N791 1.375 . S
C790 C793 1.350 . S
C790 H795 0.930 . S
N791 Co786 2.057 1_655 S
N791 C789 1.316 . S
N791 C790 1.375 . S
N792 C789 1.347 . S
N792 C793 1.373 . S
C793 C790 1.350 . S
C793 N792 1.373 . S
C793 H814 0.931 . S
H794 C789 0.931 . S
H795 C790 0.930 . S
C796 O803 1.259 . S
C796 O804 1.258 . S
N797 Co788 2.057 . S
N797 C798 1.316 . S
N797 C799 1.375 . S
C798 N797 1.316 . S
C798 N800 1.347 . S
C798 H809 0.931 . S
C799 N797 1.375 . S
C799 C801 1.350 . S
C799 H808 0.930 . S
N800 C798 1.347 . S
N800 C801 1.373 . S
C801 C799 1.350 . S
C801 N800 1.373 . S
C801 H815 0.931 . S
C802 O805 1.256 . S
C802 O806 1.245 1_455 S
O803 Co786 2.021 . S
O803 C796 1.259 . S
O804 Co788 2.117 . S
O804 C796 1.258 . S
O805 Co788 2.020 . S
O805 C802 1.256 . S
O806 Co786 2.059 1_655 S
O806 C802 1.245 1_655 S
O807 C787 1.259 . S
O807 Co788 2.021 . S
H808 C799 0.930 . S
H809 C798 0.931 . S
O810 Co786 2.117 . S
O810 C787 1.258 . S
O811 Co786 2.020 1_556 S
O811 C813 1.256 . S
O812 Co788 2.062 . S
O812 C813 1.255 1_554 S
C813 O811 1.256 . S
C813 O812 1.255 1_556 S
H814 C793 0.931 . S
H815 C801 0.931 . S
C816 C817 1.369 . S
C816 C818 1.419 . S
C816 H820 0.930 . S
C817 C816 1.369 . S
C817 C826 1.429 . S
C818 C816 1.419 . S
C818 C819 1.363 . S
C818 H821 0.929 . S
C819 C818 1.363 . S
C819 C825 1.428 . S
H820 C816 0.930 . S
H821 C818 0.929 . S
S822 N823 1.613 . S
S822 N824 1.610 . S
N823 S822 1.613 . S
N823 C826 1.350 1_655 S
N824 S822 1.610 . S
N824 C825 1.351 1_655 S
C825 C819 1.428 . S
C825 N824 1.351 1_455 S
C825 C826 1.434 . S
C826 C817 1.429 . S
C826 N823 1.350 1_455 S
C826 C825 1.434 . S
C827 C828 1.369 . S
C827 C829 1.419 . S
C827 H831 0.930 . S
C828 C827 1.369 . S
C828 C837 1.429 . S
C829 C827 1.419 . S
C829 C830 1.363 . S
C829 H832 0.929 . S
C830 C829 1.363 . S
C830 C836 1.428 . S
H831 C827 0.930 . S
H832 C829 0.929 . S
S833 N834 1.613 . S
S833 N835 1.610 . S
N834 S833 1.613 . S
N834 C837 1.350 . S
N835 S833 1.610 . S
N835 C836 1.351 . S
C836 C830 1.428 . S
C836 N835 1.351 . S
C836 C837 1.434 . S
C837 C828 1.429 . S
C837 N834 1.350 . S
C837 C836 1.434 . S
C838 C839 1.369 . S
C838 C840 1.419 . S
C838 H842 0.930 . S
C839 C838 1.369 . S
C839 C848 1.429 . S
C840 C838 1.419 . S
C840 C841 1.363 . S
C840 H843 0.929 . S
C841 C840 1.363 . S
C841 C847 1.428 . S
H842 C838 0.930 . S
H843 C840 0.929 . S
S844 N845 1.613 . S
S844 N846 1.610 . S
N845 S844 1.613 . S
N845 C848 1.350 . S
N846 S844 1.610 . S
N846 C847 1.351 . S
C847 C841 1.428 . S
C847 N846 1.351 . S
C847 C848 1.434 . S
C848 C839 1.429 . S
C848 N845 1.350 . S
C848 C847 1.434 . S
C849 C850 1.369 . S
C849 C851 1.419 . S
C849 H853 0.930 . S
C850 C849 1.369 . S
C850 C859 1.429 . S
C851 C849 1.419 . S
C851 C852 1.363 . S
C851 H854 0.929 . S
C852 C851 1.363 . S
C852 C858 1.428 . S
H853 C849 0.930 . S
H854 C851 0.929 . S
S855 N856 1.613 . S
S855 N857 1.610 . S
N856 S855 1.613 . S
N856 C859 1.350 . S
N857 S855 1.610 . S
N857 C858 1.351 . S
C858 C852 1.428 . S
C858 N857 1.351 . S
C858 C859 1.434 . S
C859 C850 1.429 . S
C859 N856 1.350 . S
C859 C858 1.434 . S
C860 C861 1.369 . S
C860 C862 1.419 . S
C860 H864 0.930 . S
C861 C860 1.369 . S
C861 C870 1.429 . S
C862 C860 1.419 . S
C862 C863 1.363 . S
C862 H865 0.929 . S
C863 C862 1.363 . S
C863 C869 1.428 . S
H864 C860 0.930 . S
H865 C862 0.929 . S
S866 N867 1.613 . S
S866 N868 1.610 . S
N867 S866 1.613 . S
N867 C870 1.350 . S
N868 S866 1.610 . S
N868 C869 1.351 . S
C869 C863 1.428 . S
C869 N868 1.351 . S
C869 C870 1.434 . S
C870 C861 1.429 . S
C870 N867 1.350 . S
C870 C869 1.434 . S
C871 C872 1.369 . S
C871 C873 1.419 . S
C871 H875 0.930 . S
C872 C871 1.369 . S
C872 C881 1.429 . S
C873 C871 1.419 . S
C873 C874 1.363 . S
C873 H876 0.929 . S
C874 C873 1.363 . S
C874 C880 1.428 . S
H875 C871 0.930 . S
H876 C873 0.929 . S
S877 N878 1.613 . S
S877 N879 1.610 . S
N878 S877 1.613 . S
N878 C881 1.350 . S
N879 S877 1.610 . S
N879 C880 1.351 . S
C880 C874 1.428 . S
C880 N879 1.351 . S
C880 C881 1.434 . S
C881 C872 1.429 . S
C881 N878 1.350 . S
C881 C880 1.434 . S
C882 C883 1.369 . S
C882 C884 1.419 1_556 S
C882 H886 0.930 . S
C883 C882 1.369 . S
C883 C892 1.429 . S
C884 C882 1.419 1_554 S
C884 C885 1.363 . S
C884 H887 0.929 . S
C885 C884 1.363 . S
C885 C891 1.428 1_554 S
H886 C882 0.930 . S
H887 C884 0.929 . S
S888 N889 1.613 . S
S888 N890 1.610 . S
N889 S888 1.613 . S
N889 C892 1.350 . S
N890 S888 1.610 . S
N890 C891 1.351 . S
C891 C885 1.428 1_556 S
C891 N890 1.351 . S
C891 C892 1.434 . S
C892 C883 1.429 . S
C892 N889 1.350 . S
C892 C891 1.434 . S
C893 C894 1.369 . S
C893 C895 1.419 . S
C893 H897 0.930 . S
C894 C893 1.369 . S
C894 C903 1.429 . S
C895 C893 1.419 . S
C895 C896 1.363 . S
C895 H898 0.929 . S
C896 C895 1.363 . S
C896 C902 1.428 . S
H897 C893 0.930 . S
H898 C895 0.929 . S
S899 N900 1.613 . S
S899 N901 1.610 . S
N900 S899 1.613 . S
N900 C903 1.350 . S
N901 S899 1.610 . S
N901 C902 1.351 . S
C902 C896 1.428 . S
C902 N901 1.351 . S
C902 C903 1.434 . S
C903 C894 1.429 . S
C903 N900 1.350 . S
C903 C902 1.434 . S
C904 C905 1.369 . S
C904 C906 1.419 . S
C904 H908 0.930 . S
C905 C904 1.369 . S
C905 C914 1.429 1_545 S
C906 C904 1.419 . S
C906 C907 1.363 1_545 S
C906 H909 0.929 . S
C907 C906 1.363 1_565 S
C907 C913 1.428 . S
H908 C904 0.930 . S
H909 C906 0.929 . S
S910 N911 1.613 . S
S910 N912 1.610 . S
N911 S910 1.613 . S
N911 C914 1.350 . S
N912 S910 1.610 . S
N912 C913 1.351 . S
C913 C907 1.428 . S
C913 N912 1.351 . S
C913 C914 1.434 . S
C914 C905 1.429 1_565 S
C914 N911 1.350 . S
C914 C913 1.434 . S
C915 C916 1.369 . S
C915 C917 1.419 . S
C915 H919 0.930 . S
C916 C915 1.369 . S
C916 C925 1.429 . S
C917 C915 1.419 . S
C917 C918 1.363 . S
C917 H920 0.929 . S
C918 C917 1.363 . S
C918 C924 1.428 . S
H919 C915 0.930 . S
H920 C917 0.929 . S
S921 N922 1.613 . S
S921 N923 1.610 . S
N922 S921 1.613 . S
N922 C925 1.350 . S
N923 S921 1.610 . S
N923 C924 1.351 . S
C924 C918 1.428 . S
C924 N923 1.351 . S
C924 C925 1.434 . S
C925 C916 1.429 . S
C925 N922 1.350 . S
C925 C924 1.434 . S
C926 C927 1.369 . S
C926 C928 1.419 . S
C926 H930 0.930 . S
C927 C926 1.369 . S
C927 C936 1.429 . S
C928 C926 1.419 . S
C928 C929 1.363 . S
C928 H931 0.929 . S
C929 C928 1.363 . S
C929 C935 1.428 . S
H930 C926 0.930 . S
H931 C928 0.929 . S
S932 N933 1.613 . S
S932 N934 1.610 . S
N933 S932 1.613 . S
N933 C936 1.350 . S
N934 S932 1.610 . S
N934 C935 1.351 . S
C935 C929 1.428 . S
C935 N934 1.351 . S
C935 C936 1.434 . S
C936 C927 1.429 . S
C936 N933 1.350 . S
C936 C935 1.434 . S
C937 C938 1.369 . S
C937 C939 1.419 . S
C937 H941 0.930 . S
C938 C937 1.369 . S
C938 C947 1.429 . S
C939 C937 1.419 . S
C939 C940 1.363 . S
C939 H942 0.929 . S
C940 C939 1.363 . S
C940 C946 1.428 . S
H941 C937 0.930 . S
H942 C939 0.929 . S
S943 N944 1.613 . S
S943 N945 1.610 . S
N944 S943 1.613 . S
N944 C947 1.350 . S
N945 S943 1.610 . S
N945 C946 1.351 . S
C946 C940 1.428 . S
C946 N945 1.351 . S
C946 C947 1.434 . S
C947 C938 1.429 . S
C947 N944 1.350 . S
C947 C946 1.434 . S
C948 C949 1.369 . S
C948 C950 1.419 . S
C948 H952 0.930 . S
C949 C948 1.369 . S
C949 C958 1.429 . S
C950 C948 1.419 . S
C950 C951 1.363 . S
C950 H953 0.929 . S
C951 C950 1.363 . S
C951 C957 1.428 . S
H952 C948 0.930 . S
H953 C950 0.929 . S
S954 N955 1.613 . S
S954 N956 1.610 . S
N955 S954 1.613 . S
N955 C958 1.350 . S
N956 S954 1.610 . S
N956 C957 1.351 . S
C957 C951 1.428 . S
C957 N956 1.351 . S
C957 C958 1.434 . S
C958 C949 1.429 . S
C958 N955 1.350 . S
C958 C957 1.434 . S
C959 C960 1.369 . S
C959 C961 1.419 . S
C959 H963 0.930 . S
C960 C959 1.369 . S
C960 C969 1.429 . S
C961 C959 1.419 . S
C961 C962 1.363 . S
C961 H964 0.929 . S
C962 C961 1.363 . S
C962 C968 1.428 . S
H963 C959 0.930 . S
H964 C961 0.929 . S
S965 N966 1.613 . S
S965 N967 1.610 . S
N966 S965 1.613 . S
N966 C969 1.350 . S
N967 S965 1.610 . S
N967 C968 1.351 . S
C968 C962 1.428 . S
C968 N967 1.351 . S
C968 C969 1.434 . S
C969 C960 1.429 . S
C969 N966 1.350 . S
C969 C968 1.434 . S
C970 C971 1.369 . S
C970 C972 1.419 . S
C970 H974 0.930 . S
C971 C970 1.369 . S
C971 C980 1.429 . S
C972 C970 1.419 . S
C972 C973 1.363 . S
C972 H975 0.929 . S
C973 C972 1.363 . S
C973 C979 1.428 . S
H974 C970 0.930 . S
H975 C972 0.929 . S
S976 N977 1.613 . S
S976 N978 1.610 . S
N977 S976 1.613 . S
N977 C980 1.350 . S
N978 S976 1.610 . S
N978 C979 1.351 . S
C979 C973 1.428 . S
C979 N978 1.351 . S
C979 C980 1.434 . S
C980 C971 1.429 . S
C980 N977 1.350 . S
C980 C979 1.434 . S
C981 C982 1.369 . S
C981 C983 1.419 . S
C981 H985 0.930 . S
C982 C981 1.369 . S
C982 C991 1.429 . S
C983 C981 1.419 . S
C983 C984 1.363 . S
C983 H986 0.929 . S
C984 C983 1.363 . S
C984 C990 1.428 . S
H985 C981 0.930 . S
H986 C983 0.929 . S
S987 N988 1.613 . S
S987 N989 1.610 . S
N988 S987 1.613 . S
N988 C991 1.350 . S
N989 S987 1.610 . S
N989 C990 1.351 . S
C990 C984 1.428 . S
C990 N989 1.351 . S
C990 C991 1.434 . S
C991 C982 1.429 . S
C991 N988 1.350 . S
C991 C990 1.434 . S
C992 C993 1.369 . S
C992 C994 1.419 . S
C992 H996 0.930 . S
C993 C992 1.369 . S
C993 C1002 1.429 . S
C994 C992 1.419 . S
C994 C995 1.363 . S
C994 H997 0.929 . S
C995 C994 1.363 . S
C995 C1001 1.428 . S
H996 C992 0.930 . S
H997 C994 0.929 . S
S998 N999 1.613 . S
S998 N1000 1.610 . S
N999 S998 1.613 . S
N999 C1002 1.350 1_556 S
N1000 S998 1.610 . S
N1000 C1001 1.351 1_556 S
C1001 C995 1.428 . S
C1001 N1000 1.351 1_554 S
C1001 C1002 1.434 . S
C1002 C993 1.429 . S
C1002 N999 1.350 1_554 S
C1002 C1001 1.434 . S
C1003 C1004 1.369 . S
C1003 C1005 1.419 . S
C1003 H1007 0.930 . S
C1004 C1003 1.369 . S
C1004 C1013 1.429 . S
C1005 C1003 1.419 . S
C1005 C1006 1.363 . S
C1005 H1008 0.929 . S
C1006 C1005 1.363 . S
C1006 C1012 1.428 . S
H1007 C1003 0.930 . S
H1008 C1005 0.929 . S
S1009 N1010 1.613 . S
S1009 N1011 1.610 . S
N1010 S1009 1.613 . S
N1010 C1013 1.350 . S
N1011 S1009 1.610 . S
N1011 C1012 1.351 . S
C1012 C1006 1.428 . S
C1012 N1011 1.351 . S
C1012 C1013 1.434 . S
C1013 C1004 1.429 . S
C1013 N1010 1.350 . S
C1013 C1012 1.434 . S
C1014 C1015 1.369 . S
C1014 C1016 1.419 . S
C1014 H1018 0.930 . S
C1015 C1014 1.369 . S
C1015 C1024 1.429 . S
C1016 C1014 1.419 . S
C1016 C1017 1.363 . S
C1016 H1019 0.929 . S
C1017 C1016 1.363 . S
C1017 C1023 1.428 . S
H1018 C1014 0.930 . S
H1019 C1016 0.929 . S
S1020 N1021 1.613 . S
S1020 N1022 1.610 . S
N1021 S1020 1.613 . S
N1021 C1024 1.350 . S
N1022 S1020 1.610 . S
N1022 C1023 1.351 . S
C1023 C1017 1.428 . S
C1023 N1022 1.351 . S
C1023 C1024 1.434 . S
C1024 C1015 1.429 . S
C1024 N1021 1.350 . S
C1024 C1023 1.434 . S
C1025 C1026 1.369 . S
C1025 C1027 1.419 . S
C1025 H1029 0.930 . S
C1026 C1025 1.369 . S
C1026 C1035 1.429 . S
C1027 C1025 1.419 . S
C1027 C1028 1.363 . S
C1027 H1030 0.929 . S
C1028 C1027 1.363 . S
C1028 C1034 1.428 . S
H1029 C1025 0.930 . S
H1030 C1027 0.929 . S
S1031 N1032 1.613 . S
S1031 N1033 1.610 . S
N1032 S1031 1.613 . S
N1032 C1035 1.350 . S
N1033 S1031 1.610 . S
N1033 C1034 1.351 . S
C1034 C1028 1.428 . S
C1034 N1033 1.351 . S
C1034 C1035 1.434 . S
C1035 C1026 1.429 . S
C1035 N1032 1.350 . S
C1035 C1034 1.434 . S
C1036 C1037 1.369 . S
C1036 C1038 1.419 . S
C1036 H1040 0.930 . S
C1037 C1036 1.369 . S
C1037 C1046 1.429 . S
C1038 C1036 1.419 . S
C1038 C1039 1.363 . S
C1038 H1041 0.929 . S
C1039 C1038 1.363 . S
C1039 C1045 1.428 . S
H1040 C1036 0.930 . S
H1041 C1038 0.929 . S
S1042 N1043 1.613 . S
S1042 N1044 1.610 . S
N1043 S1042 1.613 . S
N1043 C1046 1.350 . S
N1044 S1042 1.610 . S
N1044 C1045 1.351 . S
C1045 C1039 1.428 . S
C1045 N1044 1.351 . S
C1045 C1046 1.434 . S
C1046 C1037 1.429 . S
C1046 N1043 1.350 . S
C1046 C1045 1.434 . S
C1047 C1048 1.369 . S
C1047 C1049 1.419 . S
C1047 H1051 0.930 . S
C1048 C1047 1.369 . S
C1048 C1057 1.429 . S
C1049 C1047 1.419 . S
C1049 C1050 1.363 . S
C1049 H1052 0.929 . S
C1050 C1049 1.363 . S
C1050 C1056 1.428 . S
H1051 C1047 0.930 . S
H1052 C1049 0.929 . S
S1053 N1054 1.613 . S
S1053 N1055 1.610 . S
N1054 S1053 1.613 . S
N1054 C1057 1.350 . S
N1055 S1053 1.610 . S
N1055 C1056 1.351 . S
C1056 C1050 1.428 . S
C1056 N1055 1.351 . S
C1056 C1057 1.434 . S
C1057 C1048 1.429 . S
C1057 N1054 1.350 . S
C1057 C1056 1.434 . S
C1058 C1059 1.369 . S
C1058 C1060 1.419 . S
C1058 H1062 0.930 . S
C1059 C1058 1.369 . S
C1059 C1068 1.429 . S
C1060 C1058 1.419 . S
C1060 C1061 1.363 . S
C1060 H1063 0.929 . S
C1061 C1060 1.363 . S
C1061 C1067 1.428 . S
H1062 C1058 0.930 . S
H1063 C1060 0.929 . S
S1064 N1065 1.613 . S
S1064 N1066 1.610 . S
N1065 S1064 1.613 . S
N1065 C1068 1.350 . S
N1066 S1064 1.610 . S
N1066 C1067 1.351 . S
C1067 C1061 1.428 . S
C1067 N1066 1.351 . S
C1067 C1068 1.434 . S
C1068 C1059 1.429 . S
C1068 N1065 1.350 . S
C1068 C1067 1.434 . S
C1069 C1070 1.369 . S
C1069 C1071 1.419 . S
C1069 H1073 0.930 . S
C1070 C1069 1.369 . S
C1070 C1079 1.429 . S
C1071 C1069 1.419 . S
C1071 C1072 1.363 . S
C1071 H1074 0.929 . S
C1072 C1071 1.363 . S
C1072 C1078 1.428 . S
H1073 C1069 0.930 . S
H1074 C1071 0.929 . S
S1075 N1076 1.613 . S
S1075 N1077 1.610 . S
N1076 S1075 1.613 . S
N1076 C1079 1.350 . S
N1077 S1075 1.610 . S
N1077 C1078 1.351 . S
C1078 C1072 1.428 . S
C1078 N1077 1.351 . S
C1078 C1079 1.434 . S
C1079 C1070 1.429 . S
C1079 N1076 1.350 . S
C1079 C1078 1.434 . S
C1080 C1081 1.369 . S
C1080 C1082 1.419 . S
C1080 H1084 0.930 . S
C1081 C1080 1.369 . S
C1081 C1090 1.429 . S
C1082 C1080 1.419 . S
C1082 C1083 1.363 . S
C1082 H1085 0.929 1_556 S
C1083 C1082 1.363 . S
C1083 C1089 1.428 . S
H1084 C1080 0.930 . S
H1085 C1082 0.929 1_554 S
S1086 N1087 1.613 . S
S1086 N1088 1.610 . S
N1087 S1086 1.613 . S
N1087 C1090 1.350 . S
N1088 S1086 1.610 . S
N1088 C1089 1.351 . S
C1089 C1083 1.428 . S
C1089 N1088 1.351 . S
C1089 C1090 1.434 . S
C1090 C1081 1.429 . S
C1090 N1087 1.350 . S
C1090 C1089 1.434 . S
C1091 C1092 1.369 . S
C1091 C1093 1.419 . S
C1091 H1095 0.930 . S
C1092 C1091 1.369 . S
C1092 C1101 1.429 . S
C1093 C1091 1.419 . S
C1093 C1094 1.363 . S
C1093 H1096 0.929 . S
C1094 C1093 1.363 . S
C1094 C1100 1.428 . S
H1095 C1091 0.930 . S
H1096 C1093 0.929 . S
S1097 N1098 1.613 . S
S1097 N1099 1.610 . S
N1098 S1097 1.613 . S
N1098 C1101 1.350 . S
N1099 S1097 1.610 . S
N1099 C1100 1.351 . S
C1100 C1094 1.428 . S
C1100 N1099 1.351 . S
C1100 C1101 1.434 . S
C1101 C1092 1.429 . S
C1101 N1098 1.350 . S
C1101 C1100 1.434 . S
C1102 C1103 1.369 . S
C1102 C1104 1.419 . S
C1102 H1106 0.930 . S
C1103 C1102 1.369 . S
C1103 C1112 1.429 . S
C1104 C1102 1.419 . S
C1104 C1105 1.363 . S
C1104 H1107 0.929 . S
C1105 C1104 1.363 . S
C1105 C1111 1.428 . S
H1106 C1102 0.930 . S
H1107 C1104 0.929 . S
S1108 N1109 1.613 . S
S1108 N1110 1.610 . S
N1109 S1108 1.613 . S
N1109 C1112 1.350 . S
N1110 S1108 1.610 . S
N1110 C1111 1.351 . S
C1111 C1105 1.428 . S
C1111 N1110 1.351 . S
C1111 C1112 1.434 . S
C1112 C1103 1.429 . S
C1112 N1109 1.350 . S
C1112 C1111 1.434 . S
C1113 C1114 1.369 . S
C1113 C1115 1.419 . S
C1113 H1117 0.930 . S
C1114 C1113 1.369 . S
C1114 C1123 1.429 . S
C1115 C1113 1.419 . S
C1115 C1116 1.363 . S
C1115 H1118 0.929 . S
C1116 C1115 1.363 . S
C1116 C1122 1.428 . S
H1117 C1113 0.930 . S
H1118 C1115 0.929 . S
S1119 N1120 1.613 . S
S1119 N1121 1.610 . S
N1120 S1119 1.613 . S
N1120 C1123 1.350 . S
N1121 S1119 1.610 . S
N1121 C1122 1.351 . S
C1122 C1116 1.428 . S
C1122 N1121 1.351 . S
C1122 C1123 1.434 . S
C1123 C1114 1.429 . S
C1123 N1120 1.350 . S
C1123 C1122 1.434 . S
C1124 C1125 1.369 . S
C1124 C1126 1.419 . S
C1124 H1128 0.930 . S
C1125 C1124 1.369 . S
C1125 C1134 1.429 . S
C1126 C1124 1.419 . S
C1126 C1127 1.363 . S
C1126 H1129 0.929 . S
C1127 C1126 1.363 . S
C1127 C1133 1.428 . S
H1128 C1124 0.930 . S
H1129 C1126 0.929 . S
S1130 N1131 1.613 . S
S1130 N1132 1.610 1_655 S
N1131 S1130 1.613 . S
N1131 C1134 1.350 1_655 S
N1132 S1130 1.610 1_455 S
N1132 C1133 1.351 . S
C1133 C1127 1.428 . S
C1133 N1132 1.351 . S
C1133 C1134 1.434 . S
C1134 C1125 1.429 . S
C1134 N1131 1.350 1_455 S
C1134 C1133 1.434 . S
C1135 C1136 1.369 . S
C1135 C1137 1.419 . S
C1135 H1139 0.930 . S
C1136 C1135 1.369 . S
C1136 C1145 1.429 . S
C1137 C1135 1.419 . S
C1137 C1138 1.363 . S
C1137 H1140 0.929 . S
C1138 C1137 1.363 . S
C1138 C1144 1.428 . S
H1139 C1135 0.930 . S
H1140 C1137 0.929 . S
S1141 N1142 1.613 . S
S1141 N1143 1.610 . S
N1142 S1141 1.613 . S
N1142 C1145 1.350 . S
N1143 S1141 1.610 . S
N1143 C1144 1.351 . S
C1144 C1138 1.428 . S
C1144 N1143 1.351 . S
C1144 C1145 1.434 . S
C1145 C1136 1.429 . S
C1145 N1142 1.350 . S
C1145 C1144 1.434 . S
C1146 C1147 1.369 . S
C1146 C1148 1.419 . S
C1146 H1150 0.930 . S
C1147 C1146 1.369 . S
C1147 C1156 1.429 . S
C1148 C1146 1.419 . S
C1148 C1149 1.363 . S
C1148 H1151 0.929 . S
C1149 C1148 1.363 . S
C1149 C1155 1.428 . S
H1150 C1146 0.930 . S
H1151 C1148 0.929 . S
S1152 N1153 1.613 . S
S1152 N1154 1.610 . S
N1153 S1152 1.613 . S
N1153 C1156 1.350 . S
N1154 S1152 1.610 . S
N1154 C1155 1.351 . S
C1155 C1149 1.428 . S
C1155 N1154 1.351 . S
C1155 C1156 1.434 . S
C1156 C1147 1.429 . S
C1156 N1153 1.350 . S
C1156 C1155 1.434 . S
C1157 C1158 1.369 . S
C1157 C1159 1.419 . S
C1157 H1161 0.930 . S
C1158 C1157 1.369 . S
C1158 C1167 1.429 . S
C1159 C1157 1.419 . S
C1159 C1160 1.363 . S
C1159 H1162 0.929 . S
C1160 C1159 1.363 . S
C1160 C1166 1.428 . S
H1161 C1157 0.930 . S
H1162 C1159 0.929 . S
S1163 N1164 1.613 . S
S1163 N1165 1.610 . S
N1164 S1163 1.613 . S
N1164 C1167 1.350 . S
N1165 S1163 1.610 . S
N1165 C1166 1.351 . S
C1166 C1160 1.428 . S
C1166 N1165 1.351 . S
C1166 C1167 1.434 . S
C1167 C1158 1.429 . S
C1167 N1164 1.350 . S
C1167 C1166 1.434 . S
C1168 C1169 1.369 . S
C1168 C1170 1.419 . S
C1168 H1172 0.930 . S
C1169 C1168 1.369 . S
C1169 C1178 1.429 . S
C1170 C1168 1.419 . S
C1170 C1171 1.363 . S
C1170 H1173 0.929 . S
C1171 C1170 1.363 . S
C1171 C1177 1.425 1_655 S
H1172 C1168 0.930 . S
H1173 C1170 0.929 . S
S1174 N1175 1.613 1_455 S
S1174 N1176 1.610 . S
N1175 S1174 1.613 1_655 S
N1175 C1178 1.350 . S
N1176 S1174 1.610 . S
N1176 C1177 1.362 . S
C1177 C1171 1.425 1_455 S
C1177 N1176 1.362 . S
C1177 C1178 1.426 1_455 S
C1178 C1169 1.429 . S
C1178 N1175 1.350 . S
C1178 C1177 1.426 1_655 S
C1179 C1180 1.369 . S
C1179 C1181 1.419 . S
C1179 H1183 0.930 . S
C1180 C1179 1.369 . S
C1180 C1189 1.429 . S
C1181 C1179 1.419 . S
C1181 C1182 1.363 . S
C1181 H1184 0.929 . S
C1182 C1181 1.363 . S
C1182 C1188 1.428 . S
H1183 C1179 0.930 . S
H1184 C1181 0.929 . S
S1185 N1186 1.613 . S
S1185 N1187 1.610 . S
N1186 S1185 1.613 . S
N1186 C1189 1.350 . S
N1187 S1185 1.610 . S
N1187 C1188 1.351 . S
C1188 C1182 1.428 . S
C1188 N1187 1.351 . S
C1188 C1189 1.434 . S
C1189 C1180 1.429 . S
C1189 N1186 1.350 . S
C1189 C1188 1.434 . S
C1190 C1191 1.369 . S
C1190 C1192 1.419 . S
C1190 H1194 0.930 1_545 S
C1191 C1190 1.369 . S
C1191 C1200 1.429 . S
C1192 C1190 1.419 . S
C1192 C1193 1.363 . S
C1192 H1195 0.929 1_545 S
C1193 C1192 1.363 . S
C1193 C1199 1.428 . S
H1194 C1190 0.930 1_565 S
H1195 C1192 0.929 1_565 S
S1196 N1197 1.613 . S
S1196 N1198 1.610 . S
N1197 S1196 1.613 . S
N1197 C1200 1.350 . S
N1198 S1196 1.610 . S
N1198 C1199 1.351 . S
C1199 C1193 1.428 . S
C1199 N1198 1.351 . S
C1199 C1200 1.434 . S
C1200 C1191 1.429 . S
C1200 N1197 1.350 . S
C1200 C1199 1.434 . S
C1201 C1202 1.369 . S
C1201 C1203 1.419 . S
C1201 H1205 0.930 . S
C1202 C1201 1.369 . S
C1202 C1211 1.429 . S
C1203 C1201 1.419 . S
C1203 C1204 1.363 . S
C1203 H1206 0.929 . S
C1204 C1203 1.363 . S
C1204 C1210 1.428 . S
H1205 C1201 0.930 . S
H1206 C1203 0.929 . S
S1207 N1208 1.613 . S
S1207 N1209 1.610 . S
N1208 S1207 1.613 . S
N1208 C1211 1.350 . S
N1209 S1207 1.610 . S
N1209 C1210 1.351 . S
C1210 C1204 1.428 . S
C1210 N1209 1.351 . S
C1210 C1211 1.434 . S
C1211 C1202 1.429 . S
C1211 N1208 1.350 . S
C1211 C1210 1.434 . S
C1212 C1213 1.369 . S
C1212 C1214 1.419 . S
C1212 H1216 0.930 . S
C1213 C1212 1.369 . S
C1213 C1222 1.429 . S
C1214 C1212 1.419 . S
C1214 C1215 1.363 . S
C1214 H1217 0.929 1_545 S
C1215 C1214 1.363 . S
C1215 C1221 1.428 . S
H1216 C1212 0.930 . S
H1217 C1214 0.929 1_565 S
S1218 N1219 1.613 . S
S1218 N1220 1.610 . S
N1219 S1218 1.613 . S
N1219 C1222 1.350 . S
N1220 S1218 1.610 . S
N1220 C1221 1.351 . S
C1221 C1215 1.428 . S
C1221 N1220 1.351 . S
C1221 C1222 1.434 . S
C1222 C1213 1.429 . S
C1222 N1219 1.350 . S
C1222 C1221 1.434 . S
C1223 C1224 1.369 . S
C1223 C1225 1.419 . S
C1223 H1227 0.930 . S
C1224 C1223 1.369 . S
C1224 C1233 1.429 . S
C1225 C1223 1.419 . S
C1225 C1226 1.363 . S
C1225 H1228 0.929 . S
C1226 C1225 1.363 . S
C1226 C1232 1.428 . S
H1227 C1223 0.930 . S
H1228 C1225 0.929 . S
S1229 N1230 1.613 . S
S1229 N1231 1.610 . S
N1230 S1229 1.613 . S
N1230 C1233 1.350 . S
N1231 S1229 1.610 . S
N1231 C1232 1.351 . S
C1232 C1226 1.428 . S
C1232 N1231 1.351 . S
C1232 C1233 1.434 . S
C1233 C1224 1.429 . S
C1233 N1230 1.350 . S
C1233 C1232 1.434 . S
C1234 C1235 1.369 . S
C1234 C1236 1.419 . S
C1234 H1238 0.930 1_545 S
C1235 C1234 1.369 . S
C1235 C1244 1.429 . S
C1236 C1234 1.419 . S
C1236 C1237 1.363 . S
C1236 H1239 0.929 . S
C1237 C1236 1.363 . S
C1237 C1243 1.428 . S
H1238 C1234 0.930 1_565 S
H1239 C1236 0.929 . S
S1240 N1241 1.613 . S
S1240 N1242 1.610 . S
N1241 S1240 1.613 . S
N1241 C1244 1.350 . S
N1242 S1240 1.610 . S
N1242 C1243 1.351 . S
C1243 C1237 1.428 . S
C1243 N1242 1.351 . S
C1243 C1244 1.434 . S
C1244 C1235 1.429 . S
C1244 N1241 1.350 . S
C1244 C1243 1.434 . S
C1245 C1246 1.369 . S
C1245 C1247 1.419 . S
C1245 H1249 0.930 . S
C1246 C1245 1.369 . S
C1246 C1255 1.429 . S
C1247 C1245 1.419 . S
C1247 C1248 1.363 . S
C1247 H1250 0.929 . S
C1248 C1247 1.363 . S
C1248 C1254 1.428 . S
H1249 C1245 0.930 . S
H1250 C1247 0.929 . S
S1251 N1252 1.613 . S
S1251 N1253 1.610 . S
N1252 S1251 1.613 . S
N1252 C1255 1.350 . S
N1253 S1251 1.610 . S
N1253 C1254 1.351 . S
C1254 C1248 1.428 . S
C1254 N1253 1.351 . S
C1254 C1255 1.434 . S
C1255 C1246 1.429 . S
C1255 N1252 1.350 . S
C1255 C1254 1.434 . S
C1256 C1257 1.369 . S
C1256 C1258 1.419 . S
C1256 H1260 0.930 . S
C1257 C1256 1.369 . S
C1257 C1266 1.429 . S
C1258 C1256 1.419 . S
C1258 C1259 1.363 . S
C1258 H1261 0.929 . S
C1259 C1258 1.363 . S
C1259 C1265 1.429 . S
H1260 C1256 0.930 . S
H1261 C1258 0.929 . S
S1262 N1263 1.616 1_545 S
S1262 N1264 1.618 . S
N1263 S1262 1.616 1_565 S
N1263 C1266 1.350 . S
N1264 S1262 1.618 . S
N1264 C1265 1.350 1_545 S
C1265 C1259 1.429 . S
C1265 N1264 1.350 1_565 S
C1265 C1266 1.435 . S
C1266 C1257 1.429 . S
C1266 N1263 1.350 . S
C1266 C1265 1.435 . S
C1267 C1268 1.369 1_556 S
C1267 C1269 1.419 1_556 S
C1267 H1271 0.930 . S
C1268 C1267 1.369 1_554 S
C1268 C1277 1.429 . S
C1269 C1267 1.419 1_554 S
C1269 C1270 1.363 . S
C1269 H1272 0.929 1_554 S
C1270 C1269 1.363 . S
C1270 C1276 1.428 . S
H1271 C1267 0.930 . S
H1272 C1269 0.929 1_556 S
S1273 N1274 1.613 . S
S1273 N1275 1.610 . S
N1274 S1273 1.613 . S
N1274 C1277 1.350 . S
N1275 S1273 1.610 . S
N1275 C1276 1.351 . S
C1276 C1270 1.428 . S
C1276 N1275 1.351 . S
C1276 C1277 1.434 . S
C1277 C1268 1.429 . S
C1277 N1274 1.350 . S
C1277 C1276 1.434 . S
C1278 C1279 1.369 . S
C1278 C1280 1.419 . S
C1278 H1282 0.930 . S
C1279 C1278 1.369 . S
C1279 C1288 1.429 . S
C1280 C1278 1.419 . S
C1280 C1281 1.363 . S
C1280 H1283 0.929 . S
C1281 C1280 1.363 . S
C1281 C1287 1.428 . S
H1282 C1278 0.930 . S
H1283 C1280 0.929 . S
S1284 N1285 1.613 . S
S1284 N1286 1.610 . S
N1285 S1284 1.613 . S
N1285 C1288 1.350 . S
N1286 S1284 1.610 . S
N1286 C1287 1.351 . S
C1287 C1281 1.428 . S
C1287 N1286 1.351 . S
C1287 C1288 1.434 . S
C1288 C1279 1.429 . S
C1288 N1285 1.350 . S
C1288 C1287 1.434 . S
C1289 C1290 1.369 . S
C1289 C1291 1.419 . S
C1289 H1293 0.930 . S
C1290 C1289 1.369 . S
C1290 C1299 1.429 . S
C1291 C1289 1.419 . S
C1291 C1292 1.363 . S
C1291 H1294 0.929 . S
C1292 C1291 1.363 . S
C1292 C1298 1.428 . S
H1293 C1289 0.930 . S
H1294 C1291 0.929 . S
S1295 N1296 1.613 . S
S1295 N1297 1.610 . S
N1296 S1295 1.613 . S
N1296 C1299 1.350 . S
N1297 S1295 1.610 . S
N1297 C1298 1.351 . S
C1298 C1292 1.428 . S
C1298 N1297 1.351 . S
C1298 C1299 1.434 . S
C1299 C1290 1.429 . S
C1299 N1296 1.350 . S
C1299 C1298 1.434 . S
C1300 C1301 1.369 . S
C1300 C1302 1.419 . S
C1300 H1304 0.930 1_565 S
C1301 C1300 1.369 . S
C1301 C1310 1.429 . S
C1302 C1300 1.419 . S
C1302 C1303 1.363 . S
C1302 H1305 0.929 . S
C1303 C1302 1.363 . S
C1303 C1309 1.428 . S
H1304 C1300 0.930 1_545 S
H1305 C1302 0.929 . S
S1306 N1307 1.613 . S
S1306 N1308 1.610 . S
N1307 S1306 1.613 . S
N1307 C1310 1.350 . S
N1308 S1306 1.610 . S
N1308 C1309 1.351 . S
C1309 C1303 1.428 . S
C1309 N1308 1.351 . S
C1309 C1310 1.434 . S
C1310 C1301 1.429 . S
C1310 N1307 1.350 . S
C1310 C1309 1.434 . S
C1311 C1312 1.369 . S
C1311 C1313 1.419 . S
C1311 H1315 0.930 . S
C1312 C1311 1.369 . S
C1312 C1321 1.429 . S
C1313 C1311 1.419 . S
C1313 C1314 1.363 . S
C1313 H1316 0.929 . S
C1314 C1313 1.363 . S
C1314 C1320 1.428 . S
H1315 C1311 0.930 . S
H1316 C1313 0.929 . S
S1317 N1318 1.613 . S
S1317 N1319 1.610 . S
N1318 S1317 1.613 . S
N1318 C1321 1.350 . S
N1319 S1317 1.610 . S
N1319 C1320 1.351 . S
C1320 C1314 1.428 . S
C1320 N1319 1.351 . S
C1320 C1321 1.434 . S
C1321 C1312 1.429 . S
C1321 N1318 1.350 . S
C1321 C1320 1.434 . S
C1322 C1323 1.369 . S
C1322 C1324 1.419 . S
C1322 H1326 0.930 . S
C1323 C1322 1.369 . S
C1323 C1332 1.429 . S
C1324 C1322 1.419 . S
C1324 C1325 1.363 . S
C1324 H1327 0.929 . S
C1325 C1324 1.363 . S
C1325 C1331 1.428 . S
H1326 C1322 0.930 . S
H1327 C1324 0.929 . S
S1328 N1329 1.613 . S
S1328 N1330 1.610 . S
N1329 S1328 1.613 . S
N1329 C1332 1.350 . S
N1330 S1328 1.610 . S
N1330 C1331 1.351 . S
C1331 C1325 1.428 . S
C1331 N1330 1.351 . S
C1331 C1332 1.434 . S
C1332 C1323 1.429 . S
C1332 N1329 1.350 . S
C1332 C1331 1.434 . S
C1333 C1334 1.369 . S
C1333 C1335 1.419 . S
C1333 H1337 0.930 . S
C1334 C1333 1.369 . S
C1334 C1343 1.429 . S
C1335 C1333 1.419 . S
C1335 C1336 1.363 . S
C1335 H1338 0.929 . S
C1336 C1335 1.363 . S
C1336 C1342 1.428 . S
H1337 C1333 0.930 . S
H1338 C1335 0.929 . S
S1339 N1340 1.613 . S
S1339 N1341 1.610 . S
N1340 S1339 1.613 . S
N1340 C1343 1.350 . S
N1341 S1339 1.610 . S
N1341 C1342 1.351 . S
C1342 C1336 1.428 . S
C1342 N1341 1.351 . S
C1342 C1343 1.434 . S
C1343 C1334 1.429 . S
C1343 N1340 1.350 . S
C1343 C1342 1.434 . S
C1344 C1345 1.369 . S
C1344 C1346 1.419 . S
C1344 H1348 0.930 . S
C1345 C1344 1.369 . S
C1345 C1354 1.429 . S
C1346 C1344 1.419 . S
C1346 C1347 1.363 . S
C1346 H1349 0.929 . S
C1347 C1346 1.363 . S
C1347 C1353 1.428 . S
H1348 C1344 0.930 . S
H1349 C1346 0.929 . S
S1350 N1351 1.613 . S
S1350 N1352 1.610 . S
N1351 S1350 1.613 . S
N1351 C1354 1.350 . S
N1352 S1350 1.610 . S
N1352 C1353 1.351 . S
C1353 C1347 1.428 . S
C1353 N1352 1.351 . S
C1353 C1354 1.434 . S
C1354 C1345 1.429 . S
C1354 N1351 1.350 . S
C1354 C1353 1.434 . S
C1355 C1356 1.369 . S
C1355 C1357 1.419 . S
C1355 H1359 0.930 . S
C1356 C1355 1.369 . S
C1356 C1365 1.429 . S
C1357 C1355 1.419 . S
C1357 C1358 1.363 . S
C1357 H1360 0.929 . S
C1358 C1357 1.363 . S
C1358 C1364 1.428 . S
H1359 C1355 0.930 . S
H1360 C1357 0.929 . S
S1361 N1362 1.613 . S
S1361 N1363 1.610 . S
N1362 S1361 1.613 . S
N1362 C1365 1.350 . S
N1363 S1361 1.610 . S
N1363 C1364 1.351 . S
C1364 C1358 1.428 . S
C1364 N1363 1.351 . S
C1364 C1365 1.434 . S
C1365 C1356 1.429 . S
C1365 N1362 1.350 . S
C1365 C1364 1.434 . S
C1366 C1367 1.369 . S
C1366 C1368 1.419 . S
C1366 H1370 0.930 . S
C1367 C1366 1.369 . S
C1367 C1376 1.429 . S
C1368 C1366 1.419 . S
C1368 C1369 1.363 . S
C1368 H1371 0.929 . S
C1369 C1368 1.363 . S
C1369 C1375 1.428 . S
H1370 C1366 0.930 . S
H1371 C1368 0.929 . S
S1372 N1373 1.613 . S
S1372 N1374 1.610 . S
N1373 S1372 1.613 . S
N1373 C1376 1.350 . S
N1374 S1372 1.610 . S
N1374 C1375 1.351 . S
C1375 C1369 1.428 . S
C1375 N1374 1.351 . S
C1375 C1376 1.434 . S
C1376 C1367 1.429 . S
C1376 N1373 1.350 . S
C1376 C1375 1.434 . S
C1377 C1378 1.369 . S
C1377 C1379 1.419 . S
C1377 H1381 0.930 . S
C1378 C1377 1.369 . S
C1378 C1387 1.429 . S
C1379 C1377 1.419 . S
C1379 C1380 1.363 . S
C1379 H1382 0.929 . S
C1380 C1379 1.363 . S
C1380 C1386 1.428 . S
H1381 C1377 0.930 . S
H1382 C1379 0.929 . S
S1383 N1384 1.613 . S
S1383 N1385 1.610 . S
N1384 S1383 1.613 . S
N1384 C1387 1.350 . S
N1385 S1383 1.610 . S
N1385 C1386 1.351 . S
C1386 C1380 1.428 . S
C1386 N1385 1.351 . S
C1386 C1387 1.434 . S
C1387 C1378 1.429 . S
C1387 N1384 1.350 . S
C1387 C1386 1.434 . S
C1388 C1389 1.369 . S
C1388 C1390 1.419 . S
C1388 H1392 0.930 . S
C1389 C1388 1.369 . S
C1389 C1398 1.429 . S
C1390 C1388 1.419 . S
C1390 C1391 1.363 . S
C1390 H1393 0.929 . S
C1391 C1390 1.363 . S
C1391 C1397 1.433 . S
H1392 C1388 0.930 . S
H1393 C1390 0.929 . S
S1394 N1395 1.613 1_554 S
S1394 N1396 1.610 . S
N1395 S1394 1.613 1_556 S
N1395 C1398 1.350 . S
N1396 S1394 1.610 . S
N1396 C1397 1.334 1_554 S
C1397 C1391 1.433 . S
C1397 N1396 1.334 1_556 S
C1397 C1398 1.447 . S
C1398 C1389 1.429 . S
C1398 N1395 1.350 . S
C1398 C1397 1.447 . S
C1399 C1400 1.369 . S
C1399 C1401 1.419 . S
C1399 H1403 0.930 . S
C1400 C1399 1.369 . S
C1400 C1409 1.429 . S
C1401 C1399 1.419 . S
C1401 C1402 1.363 . S
C1401 H1404 0.929 . S
C1402 C1401 1.363 . S
C1402 C1408 1.428 . S
H1403 C1399 0.930 . S
H1404 C1401 0.929 . S
S1405 N1406 1.613 . S
S1405 N1407 1.610 . S
N1406 S1405 1.613 . S
N1406 C1409 1.350 . S
N1407 S1405 1.610 . S
N1407 C1408 1.351 . S
C1408 C1402 1.428 . S
C1408 N1407 1.351 . S
C1408 C1409 1.434 . S
C1409 C1400 1.429 . S
C1409 N1406 1.350 . S
C1409 C1408 1.434 . S
C1410 C1411 1.369 . S
C1410 C1412 1.419 . S
C1410 H1414 0.930 . S
C1411 C1410 1.369 . S
C1411 C1420 1.429 . S
C1412 C1410 1.419 . S
C1412 C1413 1.363 . S
C1412 H1415 0.929 . S
C1413 C1412 1.363 . S
C1413 C1419 1.428 . S
H1414 C1410 0.930 . S
H1415 C1412 0.929 . S
S1416 N1417 1.613 . S
S1416 N1418 1.610 . S
N1417 S1416 1.613 . S
N1417 C1420 1.350 . S
N1418 S1416 1.610 . S
N1418 C1419 1.351 . S
C1419 C1413 1.428 . S
C1419 N1418 1.351 . S
C1419 C1420 1.434 . S
C1420 C1411 1.429 . S
C1420 N1417 1.350 . S
C1420 C1419 1.434 . S
C1421 C1422 1.369 . S
C1421 C1423 1.419 . S
C1421 H1425 0.930 . S
C1422 C1421 1.369 . S
C1422 C1431 1.429 . S
C1423 C1421 1.419 . S
C1423 C1424 1.363 . S
C1423 H1426 0.929 . S
C1424 C1423 1.363 . S
C1424 C1430 1.428 . S
H1425 C1421 0.930 . S
H1426 C1423 0.929 . S
S1427 N1428 1.613 . S
S1427 N1429 1.610 . S
N1428 S1427 1.613 . S
N1428 C1431 1.350 . S
N1429 S1427 1.610 . S
N1429 C1430 1.351 . S
C1430 C1424 1.428 . S
C1430 N1429 1.351 . S
C1430 C1431 1.434 . S
C1431 C1422 1.429 . S
C1431 N1428 1.350 . S
C1431 C1430 1.434 . S
C1432 C1433 1.369 . S
C1432 C1434 1.419 . S
C1432 H1436 0.930 . S
C1433 C1432 1.369 . S
C1433 C1442 1.429 . S
C1434 C1432 1.419 . S
C1434 C1435 1.363 . S
C1434 H1437 0.929 . S
C1435 C1434 1.363 . S
C1435 C1441 1.428 . S
H1436 C1432 0.930 . S
H1437 C1434 0.929 . S
S1438 N1439 1.613 . S
S1438 N1440 1.610 . S
N1439 S1438 1.613 . S
N1439 C1442 1.350 . S
N1440 S1438 1.610 . S
N1440 C1441 1.351 . S
C1441 C1435 1.428 . S
C1441 N1440 1.351 . S
C1441 C1442 1.434 . S
C1442 C1433 1.429 . S
C1442 N1439 1.350 . S
C1442 C1441 1.434 . S
C1443 C1444 1.369 . S
C1443 C1445 1.419 . S
C1443 H1447 0.930 . S
C1444 C1443 1.369 . S
C1444 C1453 1.429 . S
C1445 C1443 1.419 . S
C1445 C1446 1.363 . S
C1445 H1448 0.929 . S
C1446 C1445 1.363 . S
C1446 C1452 1.428 . S
H1447 C1443 0.930 . S
H1448 C1445 0.929 . S
S1449 N1450 1.613 . S
S1449 N1451 1.610 . S
N1450 S1449 1.613 . S
N1450 C1453 1.350 . S
N1451 S1449 1.610 . S
N1451 C1452 1.351 . S
C1452 C1446 1.428 . S
C1452 N1451 1.351 . S
C1452 C1453 1.434 . S
C1453 C1444 1.429 . S
C1453 N1450 1.350 . S
C1453 C1452 1.434 . S
C1454 C1455 1.369 . S
C1454 C1456 1.419 . S
C1454 H1458 0.930 . S
C1455 C1454 1.369 . S
C1455 C1464 1.429 . S
C1456 C1454 1.419 . S
C1456 C1457 1.363 1_655 S
C1456 H1459 0.929 1_655 S
C1457 C1456 1.363 1_455 S
C1457 C1463 1.427 1_455 S
H1458 C1454 0.930 . S
H1459 C1456 0.929 1_455 S
S1460 N1461 1.613 . S
S1460 N1462 1.610 . S
N1461 S1460 1.613 . S
N1461 C1464 1.350 . S
N1462 S1460 1.610 . S
N1462 C1463 1.351 . S
C1463 C1457 1.427 1_655 S
C1463 N1462 1.351 . S
C1463 C1464 1.434 . S
C1464 C1455 1.429 . S
C1464 N1461 1.350 . S
C1464 C1463 1.434 . S
C1465 C1466 1.369 . S
C1465 C1467 1.419 . S
C1465 H1469 0.930 . S
C1466 C1465 1.369 . S
C1466 C1475 1.429 . S
C1467 C1465 1.419 . S
C1467 C1468 1.363 . S
C1467 H1470 0.929 . S
C1468 C1467 1.363 . S
C1468 C1474 1.428 . S
H1469 C1465 0.930 . S
H1470 C1467 0.929 . S
S1471 N1472 1.613 . S
S1471 N1473 1.610 . S
N1472 S1471 1.613 . S
N1472 C1475 1.350 . S
N1473 S1471 1.610 . S
N1473 C1474 1.351 . S
C1474 C1468 1.428 . S
C1474 N1473 1.351 . S
C1474 C1475 1.434 . S
C1475 C1466 1.429 . S
C1475 N1472 1.350 . S
C1475 C1474 1.434 . S
C1476 C1477 1.369 . S
C1476 C1478 1.419 . S
C1476 H1480 0.930 . S
C1477 C1476 1.369 . S
C1477 C1486 1.429 . S
C1478 C1476 1.419 . S
C1478 C1479 1.363 . S
C1478 H1481 0.929 . S
C1479 C1478 1.363 . S
C1479 C1485 1.428 . S
H1480 C1476 0.930 . S
H1481 C1478 0.929 . S
S1482 N1483 1.613 . S
S1482 N1484 1.610 . S
N1483 S1482 1.613 . S
N1483 C1486 1.350 . S
N1484 S1482 1.610 . S
N1484 C1485 1.351 . S
C1485 C1479 1.428 . S
C1485 N1484 1.351 . S
C1485 C1486 1.434 . S
C1486 C1477 1.429 . S
C1486 N1483 1.350 . S
C1486 C1485 1.434 . S
C1487 C1488 1.369 . S
C1487 C1489 1.419 . S
C1487 H1491 0.930 . S
C1488 C1487 1.369 . S
C1488 C1497 1.429 . S
C1489 C1487 1.419 . S
C1489 C1490 1.363 . S
C1489 H1492 0.929 . S
C1490 C1489 1.363 . S
C1490 C1496 1.428 . S
H1491 C1487 0.930 . S
H1492 C1489 0.929 . S
S1493 N1494 1.613 . S
S1493 N1495 1.610 . S
N1494 S1493 1.613 . S
N1494 C1497 1.350 . S
N1495 S1493 1.610 . S
N1495 C1496 1.351 . S
C1496 C1490 1.428 . S
C1496 N1495 1.351 . S
C1496 C1497 1.434 . S
C1497 C1488 1.429 . S
C1497 N1494 1.350 . S
C1497 C1496 1.434 . S
C1498 C1499 1.369 . S
C1498 C1500 1.419 1_655 S
C1498 H1502 0.930 . S
C1499 C1498 1.369 . S
C1499 C1508 1.429 . S
C1500 C1498 1.419 1_455 S
C1500 C1501 1.363 1_455 S
C1500 H1503 0.929 . S
C1501 C1500 1.363 1_655 S
C1501 C1507 1.428 . S
H1502 C1498 0.930 . S
H1503 C1500 0.929 . S
S1504 N1505 1.613 . S
S1504 N1506 1.610 . S
N1505 S1504 1.613 . S
N1505 C1508 1.350 . S
N1506 S1504 1.610 . S
N1506 C1507 1.351 . S
C1507 C1501 1.428 . S
C1507 N1506 1.351 . S
C1507 C1508 1.434 . S
C1508 C1499 1.429 . S
C1508 N1505 1.350 . S
C1508 C1507 1.434 . S
C1509 C1510 1.369 . S
C1509 C1511 1.419 . S
C1509 H1513 0.930 . S
C1510 C1509 1.369 . S
C1510 C1519 1.429 . S
C1511 C1509 1.419 . S
C1511 C1512 1.363 . S
C1511 H1514 0.929 . S
C1512 C1511 1.363 . S
C1512 C1518 1.428 . S
H1513 C1509 0.930 . S
H1514 C1511 0.929 . S
S1515 N1516 1.613 . S
S1515 N1517 1.610 . S
N1516 S1515 1.613 . S
N1516 C1519 1.350 . S
N1517 S1515 1.610 . S
N1517 C1518 1.351 . S
C1518 C1512 1.428 . S
C1518 N1517 1.351 . S
C1518 C1519 1.434 . S
C1519 C1510 1.429 . S
C1519 N1516 1.350 . S
C1519 C1518 1.434 . S
C1520 C1521 1.369 . S
C1520 C1522 1.419 . S
C1520 H1524 0.930 . S
C1521 C1520 1.369 . S
C1521 C1530 1.429 . S
C1522 C1520 1.419 . S
C1522 C1523 1.363 . S
C1522 H1525 0.929 . S
C1523 C1522 1.363 . S
C1523 C1529 1.428 . S
H1524 C1520 0.930 . S
H1525 C1522 0.929 . S
S1526 N1527 1.613 . S
S1526 N1528 1.610 . S
N1527 S1526 1.613 . S
N1527 C1530 1.350 . S
N1528 S1526 1.610 . S
N1528 C1529 1.351 . S
C1529 C1523 1.428 . S
C1529 N1528 1.351 . S
C1529 C1530 1.434 . S
C1530 C1521 1.429 . S
C1530 N1527 1.350 . S
C1530 C1529 1.434 . S
C1531 C1532 1.369 . S
C1531 C1533 1.419 1_565 S
C1531 H1535 0.930 . S
C1532 C1531 1.369 . S
C1532 C1541 1.429 . S
C1533 C1531 1.419 1_545 S
C1533 C1534 1.361 1_545 S
C1533 H1536 0.929 . S
C1534 C1533 1.361 1_565 S
C1534 C1540 1.445 . S
H1535 C1531 0.930 . S
H1536 C1533 0.929 . S
S1537 N1538 1.613 . S
S1537 N1539 1.610 . S
N1538 S1537 1.613 . S
N1538 C1541 1.350 . S
N1539 S1537 1.610 . S
N1539 C1540 1.351 . S
C1540 C1534 1.445 . S
C1540 N1539 1.351 . S
C1540 C1541 1.434 . S
C1541 C1532 1.429 . S
C1541 N1538 1.350 . S
C1541 C1540 1.434 . S
C1542 C1543 1.369 . S
C1542 C1544 1.419 . S
C1542 H1546 0.930 . S
C1543 C1542 1.369 . S
C1543 C1552 1.429 . S
C1544 C1542 1.419 . S
C1544 C1545 1.363 . S
C1544 H1547 0.929 . S
C1545 C1544 1.363 . S
C1545 C1551 1.428 . S
H1546 C1542 0.930 . S
H1547 C1544 0.929 . S
S1548 N1549 1.613 . S
S1548 N1550 1.610 1_545 S
N1549 S1548 1.613 . S
N1549 C1552 1.350 1_545 S
N1550 S1548 1.610 1_565 S
N1550 C1551 1.351 . S
C1551 C1545 1.428 . S
C1551 N1550 1.351 . S
C1551 C1552 1.434 . S
C1552 C1543 1.429 . S
C1552 N1549 1.350 1_565 S
C1552 C1551 1.434 . S
C1553 C1554 1.369 . S
C1553 C1555 1.419 . S
C1553 H1557 0.930 . S
C1554 C1553 1.369 . S
C1554 C1563 1.429 . S
C1555 C1553 1.419 . S
C1555 C1556 1.363 . S
C1555 H1558 0.929 . S
C1556 C1555 1.363 . S
C1556 C1562 1.428 . S
H1557 C1553 0.930 . S
H1558 C1555 0.929 . S
S1559 N1560 1.613 . S
S1559 N1561 1.610 . S
N1560 S1559 1.613 . S
N1560 C1563 1.350 . S
N1561 S1559 1.610 . S
N1561 C1562 1.351 . S
C1562 C1556 1.428 . S
C1562 N1561 1.351 . S
C1562 C1563 1.434 . S
C1563 C1554 1.429 . S
C1563 N1560 1.350 . S
C1563 C1562 1.434 . S
C1564 C1565 1.369 . S
C1564 C1566 1.419 . S
C1564 H1568 0.930 . S
C1565 C1564 1.369 . S
C1565 C1574 1.429 . S
C1566 C1564 1.419 . S
C1566 C1567 1.363 . S
C1566 H1569 0.929 . S
C1567 C1566 1.363 . S
C1567 C1573 1.428 . S
H1568 C1564 0.930 . S
H1569 C1566 0.929 . S
S1570 N1571 1.613 . S
S1570 N1572 1.610 . S
N1571 S1570 1.613 . S
N1571 C1574 1.350 . S
N1572 S1570 1.610 . S
N1572 C1573 1.351 . S
C1573 C1567 1.428 . S
C1573 N1572 1.351 . S
C1573 C1574 1.434 . S
C1574 C1565 1.429 . S
C1574 N1571 1.350 . S
C1574 C1573 1.434 . S
C1575 C1576 1.369 . S
C1575 C1577 1.419 . S
C1575 H1579 0.930 . S
C1576 C1575 1.369 . S
C1576 C1585 1.429 . S
C1577 C1575 1.419 . S
C1577 C1578 1.363 . S
C1577 H1580 0.929 . S
C1578 C1577 1.363 . S
C1578 C1584 1.428 . S
H1579 C1575 0.930 . S
H1580 C1577 0.929 . S
S1581 N1582 1.613 . S
S1581 N1583 1.610 . S
N1582 S1581 1.613 . S
N1582 C1585 1.350 . S
N1583 S1581 1.610 . S
N1583 C1584 1.351 . S
C1584 C1578 1.428 . S
C1584 N1583 1.351 . S
C1584 C1585 1.434 . S
C1585 C1576 1.429 . S
C1585 N1582 1.350 . S
C1585 C1584 1.434 . S
C1586 C1587 1.369 . S
C1586 C1588 1.419 . S
C1586 H1590 0.930 . S
C1587 C1586 1.369 . S
C1587 C1596 1.429 . S
C1588 C1586 1.419 . S
C1588 C1589 1.363 . S
C1588 H1591 0.929 . S
C1589 C1588 1.363 . S
C1589 C1595 1.428 . S
H1590 C1586 0.930 . S
H1591 C1588 0.929 . S
S1592 N1593 1.613 . S
S1592 N1594 1.610 . S
N1593 S1592 1.613 . S
N1593 C1596 1.350 . S
N1594 S1592 1.610 . S
N1594 C1595 1.351 . S
C1595 C1589 1.428 . S
C1595 N1594 1.351 . S
C1595 C1596 1.434 . S
C1596 C1587 1.429 . S
C1596 N1593 1.350 . S
C1596 C1595 1.434 . S
C1597 C1598 1.369 . S
C1597 C1599 1.419 . S
C1597 H1601 0.930 . S
C1598 C1597 1.369 . S
C1598 C1607 1.429 . S
C1599 C1597 1.419 . S
C1599 C1600 1.363 . S
C1599 H1602 0.929 . S
C1600 C1599 1.363 . S
C1600 C1606 1.428 . S
H1601 C1597 0.930 . S
H1602 C1599 0.929 . S
S1603 N1604 1.613 . S
S1603 N1605 1.610 . S
N1604 S1603 1.613 . S
N1604 C1607 1.350 . S
N1605 S1603 1.610 . S
N1605 C1606 1.351 . S
C1606 C1600 1.428 . S
C1606 N1605 1.351 . S
C1606 C1607 1.434 . S
C1607 C1598 1.429 . S
C1607 N1604 1.350 . S
C1607 C1606 1.434 . S
C1608 C1609 1.369 . S
C1608 C1610 1.419 . S
C1608 H1612 0.930 . S
C1609 C1608 1.369 . S
C1609 C1618 1.429 . S
C1610 C1608 1.419 . S
C1610 C1611 1.363 . S
C1610 H1613 0.929 . S
C1611 C1610 1.363 . S
C1611 C1617 1.428 . S
H1612 C1608 0.930 . S
H1613 C1610 0.929 . S
S1614 N1615 1.613 . S
S1614 N1616 1.610 . S
N1615 S1614 1.613 . S
N1615 C1618 1.350 . S
N1616 S1614 1.610 . S
N1616 C1617 1.351 . S
C1617 C1611 1.428 . S
C1617 N1616 1.351 . S
C1617 C1618 1.434 . S
C1618 C1609 1.429 . S
C1618 N1615 1.350 . S
C1618 C1617 1.434 . S
C1619 C1620 1.369 . S
C1619 C1621 1.419 . S
C1619 H1623 0.930 . S
C1620 C1619 1.369 . S
C1620 C1629 1.429 . S
C1621 C1619 1.419 . S
C1621 C1622 1.363 . S
C1621 H1624 0.929 . S
C1622 C1621 1.363 . S
C1622 C1628 1.428 . S
H1623 C1619 0.930 . S
H1624 C1621 0.929 . S
S1625 N1626 1.613 . S
S1625 N1627 1.610 . S
N1626 S1625 1.613 . S
N1626 C1629 1.350 . S
N1627 S1625 1.610 . S
N1627 C1628 1.351 . S
C1628 C1622 1.428 . S
C1628 N1627 1.351 . S
C1628 C1629 1.434 . S
C1629 C1620 1.429 . S
C1629 N1626 1.350 . S
C1629 C1628 1.434 . S
C1630 C1631 1.369 . S
C1630 C1632 1.419 1_556 S
C1630 H1634 0.930 . S
C1631 C1630 1.369 . S
C1631 C1640 1.429 . S
C1632 C1630 1.419 1_554 S
C1632 C1633 1.371 . S
C1632 H1635 0.929 . S
C1633 C1632 1.371 . S
C1633 C1639 1.405 1_554 S
H1634 C1630 0.930 . S
H1635 C1632 0.929 . S
S1636 N1637 1.613 1_655 S
S1636 N1638 1.610 . S
N1637 S1636 1.613 1_455 S
N1637 C1640 1.350 . S
N1638 S1636 1.610 . S
N1638 C1639 1.351 1_655 S
C1639 C1633 1.405 1_556 S
C1639 N1638 1.351 1_455 S
C1639 C1640 1.434 . S
C1640 C1631 1.429 . S
C1640 N1637 1.350 . S
C1640 C1639 1.434 . S
C1641 C1642 1.369 . S
C1641 C1643 1.419 . S
C1641 H1645 0.930 . S
C1642 C1641 1.369 . S
C1642 C1651 1.429 . S
C1643 C1641 1.419 . S
C1643 C1644 1.363 . S
C1643 H1646 0.929 . S
C1644 C1643 1.363 . S
C1644 C1650 1.428 . S
H1645 C1641 0.930 . S
H1646 C1643 0.929 . S
S1647 N1648 1.613 . S
S1647 N1649 1.610 . S
N1648 S1647 1.613 . S
N1648 C1651 1.350 . S
N1649 S1647 1.610 . S
N1649 C1650 1.351 . S
C1650 C1644 1.428 . S
C1650 N1649 1.351 . S
C1650 C1651 1.434 . S
C1651 C1642 1.429 . S
C1651 N1648 1.350 . S
C1651 C1650 1.434 . S
C1652 C1653 1.369 . S
C1652 C1654 1.419 . S
C1652 H1656 0.930 . S
C1653 C1652 1.369 . S
C1653 C1662 1.429 . S
C1654 C1652 1.419 . S
C1654 C1655 1.363 . S
C1654 H1657 0.929 . S
C1655 C1654 1.363 . S
C1655 C1661 1.428 . S
H1656 C1652 0.930 . S
H1657 C1654 0.929 . S
S1658 N1659 1.613 . S
S1658 N1660 1.610 . S
N1659 S1658 1.613 . S
N1659 C1662 1.350 . S
N1660 S1658 1.610 . S
N1660 C1661 1.351 . S
C1661 C1655 1.428 . S
C1661 N1660 1.351 . S
C1661 C1662 1.434 . S
C1662 C1653 1.429 . S
C1662 N1659 1.350 . S
C1662 C1661 1.434 . S
C1663 C1664 1.369 . S
C1663 C1665 1.419 . S
C1663 H1667 0.930 . S
C1664 C1663 1.369 . S
C1664 C1673 1.429 . S
C1665 C1663 1.419 . S
C1665 C1666 1.363 . S
C1665 H1668 0.929 . S
C1666 C1665 1.363 . S
C1666 C1672 1.428 . S
H1667 C1663 0.930 . S
H1668 C1665 0.929 . S
S1669 N1670 1.613 . S
S1669 N1671 1.610 . S
N1670 S1669 1.613 . S
N1670 C1673 1.350 . S
N1671 S1669 1.610 . S
N1671 C1672 1.351 . S
C1672 C1666 1.428 . S
C1672 N1671 1.351 . S
C1672 C1673 1.434 . S
C1673 C1664 1.429 . S
C1673 N1670 1.350 . S
C1673 C1672 1.434 . S
C1674 C1675 1.369 . S
C1674 C1676 1.419 . S
C1674 H1678 0.930 . S
C1675 C1674 1.369 . S
C1675 C1684 1.429 . S
C1676 C1674 1.419 . S
C1676 C1677 1.363 . S
C1676 H1679 0.929 . S
C1677 C1676 1.363 . S
C1677 C1683 1.428 . S
H1678 C1674 0.930 . S
H1679 C1676 0.929 . S
S1680 N1681 1.613 . S
S1680 N1682 1.610 . S
N1681 S1680 1.613 . S
N1681 C1684 1.350 . S
N1682 S1680 1.610 . S
N1682 C1683 1.351 . S
C1683 C1677 1.428 . S
C1683 N1682 1.351 . S
C1683 C1684 1.434 . S
C1684 C1675 1.429 . S
C1684 N1681 1.350 . S
C1684 C1683 1.434 . S
C1685 C1686 1.369 . S
C1685 C1687 1.419 . S
C1685 H1689 0.930 . S
C1686 C1685 1.369 . S
C1686 C1695 1.429 . S
C1687 C1685 1.419 . S
C1687 C1688 1.363 . S
C1687 H1690 0.929 . S
C1688 C1687 1.363 . S
C1688 C1694 1.428 . S
H1689 C1685 0.930 . S
H1690 C1687 0.929 . S
S1691 N1692 1.613 . S
S1691 N1693 1.610 . S
N1692 S1691 1.613 . S
N1692 C1695 1.350 . S
N1693 S1691 1.610 . S
N1693 C1694 1.351 . S
C1694 C1688 1.428 . S
C1694 N1693 1.351 . S
C1694 C1695 1.434 . S
C1695 C1686 1.429 . S
C1695 N1692 1.350 . S
C1695 C1694 1.434 . S
C1696 C1697 1.369 . S
C1696 C1698 1.419 . S
C1696 H1700 0.930 . S
C1697 C1696 1.369 . S
C1697 C1706 1.429 . S
C1698 C1696 1.419 . S
C1698 C1699 1.363 . S
C1698 H1701 0.929 . S
C1699 C1698 1.363 . S
C1699 C1705 1.428 . S
H1700 C1696 0.930 . S
H1701 C1698 0.929 . S
S1702 N1703 1.613 . S
S1702 N1704 1.610 . S
N1703 S1702 1.613 . S
N1703 C1706 1.350 . S
N1704 S1702 1.610 . S
N1704 C1705 1.351 . S
C1705 C1699 1.428 . S
C1705 N1704 1.351 . S
C1705 C1706 1.434 . S
C1706 C1697 1.429 . S
C1706 N1703 1.350 . S
C1706 C1705 1.434 . S
C1707 C1708 1.369 . S
C1707 C1709 1.419 . S
C1707 H1711 0.930 . S
C1708 C1707 1.369 . S
C1708 C1717 1.429 . S
C1709 C1707 1.419 . S
C1709 C1710 1.363 . S
C1709 H1712 0.929 . S
C1710 C1709 1.363 . S
C1710 C1716 1.428 . S
H1711 C1707 0.930 . S
H1712 C1709 0.929 . S
S1713 N1714 1.613 . S
S1713 N1715 1.610 . S
N1714 S1713 1.613 . S
N1714 C1717 1.350 . S
N1715 S1713 1.610 . S
N1715 C1716 1.351 . S
C1716 C1710 1.428 . S
C1716 N1715 1.351 . S
C1716 C1717 1.434 . S
C1717 C1708 1.429 . S
C1717 N1714 1.350 . S
C1717 C1716 1.434 . S
C1718 C1719 1.369 . S
C1718 C1720 1.419 . S
C1718 H1722 0.930 . S
C1719 C1718 1.369 . S
C1719 C1728 1.429 . S
C1720 C1718 1.419 . S
C1720 C1721 1.363 . S
C1720 H1723 0.929 . S
C1721 C1720 1.363 . S
C1721 C1727 1.428 . S
H1722 C1718 0.930 . S
H1723 C1720 0.929 . S
S1724 N1725 1.613 . S
S1724 N1726 1.610 . S
N1725 S1724 1.613 . S
N1725 C1728 1.350 . S
N1726 S1724 1.610 . S
N1726 C1727 1.351 . S
C1727 C1721 1.428 . S
C1727 N1726 1.351 . S
C1727 C1728 1.434 . S
C1728 C1719 1.429 . S
C1728 N1725 1.350 . S
C1728 C1727 1.434 . S
C1729 C1730 1.369 . S
C1729 C1731 1.419 . S
C1729 H1733 0.930 . S
C1730 C1729 1.369 . S
C1730 C1739 1.429 . S
C1731 C1729 1.419 . S
C1731 C1732 1.363 . S
C1731 H1734 0.929 . S
C1732 C1731 1.363 . S
C1732 C1738 1.428 . S
H1733 C1729 0.930 . S
H1734 C1731 0.929 . S
S1735 N1736 1.613 . S
S1735 N1737 1.610 . S
N1736 S1735 1.613 . S
N1736 C1739 1.350 . S
N1737 S1735 1.610 . S
N1737 C1738 1.351 . S
C1738 C1732 1.428 . S
C1738 N1737 1.351 . S
C1738 C1739 1.434 . S
C1739 C1730 1.429 . S
C1739 N1736 1.350 . S
C1739 C1738 1.434 . S
C1740 C1741 1.369 . S
C1740 C1742 1.419 . S
C1740 H1744 0.930 . S
C1741 C1740 1.369 . S
C1741 C1750 1.429 . S
C1742 C1740 1.419 . S
C1742 C1743 1.363 . S
C1742 H1745 0.929 . S
C1743 C1742 1.363 . S
C1743 C1749 1.428 . S
H1744 C1740 0.930 . S
H1745 C1742 0.929 . S
S1746 N1747 1.613 . S
S1746 N1748 1.610 . S
N1747 S1746 1.613 . S
N1747 C1750 1.350 . S
N1748 S1746 1.610 . S
N1748 C1749 1.351 . S
C1749 C1743 1.428 . S
C1749 N1748 1.351 . S
C1749 C1750 1.434 . S
C1750 C1741 1.429 . S
C1750 N1747 1.350 . S
C1750 C1749 1.434 . S
C1751 C1752 1.369 . S
C1751 C1753 1.419 . S
C1751 H1755 0.930 . S
C1752 C1751 1.369 . S
C1752 C1761 1.429 . S
C1753 C1751 1.419 . S
C1753 C1754 1.363 . S
C1753 H1756 0.929 . S
C1754 C1753 1.363 . S
C1754 C1760 1.428 . S
H1755 C1751 0.930 . S
H1756 C1753 0.929 . S
S1757 N1758 1.613 . S
S1757 N1759 1.610 . S
N1758 S1757 1.613 . S
N1758 C1761 1.350 . S
N1759 S1757 1.610 . S
N1759 C1760 1.351 . S
C1760 C1754 1.428 . S
C1760 N1759 1.351 . S
C1760 C1761 1.434 . S
C1761 C1752 1.429 . S
C1761 N1758 1.350 . S
C1761 C1760 1.434 . S
C1762 C1763 1.369 . S
C1762 C1764 1.419 . S
C1762 H1766 0.930 . S
C1763 C1762 1.369 . S
C1763 C1772 1.429 . S
C1764 C1762 1.419 . S
C1764 C1765 1.363 . S
C1764 H1767 0.929 . S
C1765 C1764 1.363 . S
C1765 C1771 1.428 . S
H1766 C1762 0.930 . S
H1767 C1764 0.929 . S
S1768 N1769 1.613 . S
S1768 N1770 1.610 . S
N1769 S1768 1.613 . S
N1769 C1772 1.350 . S
N1770 S1768 1.610 . S
N1770 C1771 1.351 . S
C1771 C1765 1.428 . S
C1771 N1770 1.351 . S
C1771 C1772 1.434 . S
C1772 C1763 1.429 . S
C1772 N1769 1.350 . S
C1772 C1771 1.434 . S
C1773 C1774 1.369 . S
C1773 C1775 1.419 . S
C1773 H1777 0.930 . S
C1774 C1773 1.369 . S
C1774 C1783 1.429 . S
C1775 C1773 1.419 . S
C1775 C1776 1.363 . S
C1775 H1778 0.929 . S
C1776 C1775 1.363 . S
C1776 C1782 1.428 . S
H1777 C1773 0.930 . S
H1778 C1775 0.929 . S
S1779 N1780 1.613 . S
S1779 N1781 1.610 . S
N1780 S1779 1.613 . S
N1780 C1783 1.350 . S
N1781 S1779 1.610 . S
N1781 C1782 1.351 . S
C1782 C1776 1.428 . S
C1782 N1781 1.351 . S
C1782 C1783 1.434 . S
C1783 C1774 1.429 . S
C1783 N1780 1.350 . S
C1783 C1782 1.434 . S
C1784 C1785 1.369 . S
C1784 C1786 1.419 . S
C1784 H1788 0.930 . S
C1785 C1784 1.369 . S
C1785 C1794 1.429 . S
C1786 C1784 1.419 . S
C1786 C1787 1.363 . S
C1786 H1789 0.929 . S
C1787 C1786 1.363 . S
C1787 C1793 1.428 . S
H1788 C1784 0.930 . S
H1789 C1786 0.929 . S
S1790 N1791 1.613 . S
S1790 N1792 1.610 . S
N1791 S1790 1.613 . S
N1791 C1794 1.350 . S
N1792 S1790 1.610 . S
N1792 C1793 1.351 . S
C1793 C1787 1.428 . S
C1793 N1792 1.351 . S
C1793 C1794 1.434 . S
C1794 C1785 1.429 . S
C1794 N1791 1.350 . S
C1794 C1793 1.434 . S
C1795 C1796 1.369 . S
C1795 C1797 1.419 . S
C1795 H1799 0.930 . S
C1796 C1795 1.369 . S
C1796 C1805 1.429 . S
C1797 C1795 1.419 . S
C1797 C1798 1.363 . S
C1797 H1800 0.929 . S
C1798 C1797 1.363 . S
C1798 C1804 1.428 . S
H1799 C1795 0.930 . S
H1800 C1797 0.929 . S
S1801 N1802 1.613 . S
S1801 N1803 1.610 . S
N1802 S1801 1.613 . S
N1802 C1805 1.350 . S
N1803 S1801 1.610 . S
N1803 C1804 1.351 . S
C1804 C1798 1.428 . S
C1804 N1803 1.351 . S
C1804 C1805 1.434 . S
C1805 C1796 1.429 . S
C1805 N1802 1.350 . S
C1805 C1804 1.434 . S
C1806 C1807 1.369 . S
C1806 C1808 1.419 . S
C1806 H1810 0.930 . S
C1807 C1806 1.369 . S
C1807 C1816 1.429 . S
C1808 C1806 1.419 . S
C1808 C1809 1.363 . S
C1808 H1811 0.929 . S
C1809 C1808 1.363 . S
C1809 C1815 1.428 . S
H1810 C1806 0.930 . S
H1811 C1808 0.929 . S
S1812 N1813 1.613 . S
S1812 N1814 1.610 . S
N1813 S1812 1.613 . S
N1813 C1816 1.350 . S
N1814 S1812 1.610 . S
N1814 C1815 1.351 . S
C1815 C1809 1.428 . S
C1815 N1814 1.351 . S
C1815 C1816 1.434 . S
C1816 C1807 1.429 . S
C1816 N1813 1.350 . S
C1816 C1815 1.434 . S
C1817 C1818 1.369 . S
C1817 C1819 1.419 1_565 S
C1817 H1821 0.930 1_565 S
C1818 C1817 1.369 . S
C1818 C1827 1.429 . S
C1819 C1817 1.419 1_545 S
C1819 C1820 1.370 . S
C1819 H1822 0.929 . S
C1820 C1819 1.370 . S
C1820 C1826 1.410 1_545 S
H1821 C1817 0.930 1_545 S
H1822 C1819 0.929 . S
S1823 N1824 1.613 . S
S1823 N1825 1.610 . S
N1824 S1823 1.613 . S
N1824 C1827 1.350 . S
N1825 S1823 1.610 . S
N1825 C1826 1.351 . S
C1826 C1820 1.410 1_565 S
C1826 N1825 1.351 . S
C1826 C1827 1.434 . S
C1827 C1818 1.429 . S
C1827 N1824 1.350 . S
C1827 C1826 1.434 . S
C1828 C1829 1.369 . S
C1828 C1830 1.419 . S
C1828 H1832 0.930 . S
C1829 C1828 1.369 . S
C1829 C1838 1.429 . S
C1830 C1828 1.419 . S
C1830 C1831 1.363 . S
C1830 H1833 0.929 . S
C1831 C1830 1.363 . S
C1831 C1837 1.428 . S
H1832 C1828 0.930 . S
H1833 C1830 0.929 . S
S1834 N1835 1.613 . S
S1834 N1836 1.610 . S
N1835 S1834 1.613 . S
N1835 C1838 1.350 . S
N1836 S1834 1.610 . S
N1836 C1837 1.351 . S
C1837 C1831 1.428 . S
C1837 N1836 1.351 . S
C1837 C1838 1.434 . S
C1838 C1829 1.429 . S
C1838 N1835 1.350 . S
C1838 C1837 1.434 . S
C1839 C1840 1.369 . S
C1839 C1841 1.419 . S
C1839 H1843 0.930 . S
C1840 C1839 1.369 . S
C1840 C1849 1.429 . S
C1841 C1839 1.419 . S
C1841 C1842 1.363 . S
C1841 H1844 0.929 . S
C1842 C1841 1.363 . S
C1842 C1848 1.428 . S
H1843 C1839 0.930 . S
H1844 C1841 0.929 . S
S1845 N1846 1.613 . S
S1845 N1847 1.610 1_556 S
N1846 S1845 1.613 . S
N1846 C1849 1.350 1_556 S
N1847 S1845 1.610 1_554 S
N1847 C1848 1.351 . S
C1848 C1842 1.428 . S
C1848 N1847 1.351 . S
C1848 C1849 1.434 . S
C1849 C1840 1.429 . S
C1849 N1846 1.350 1_554 S
C1849 C1848 1.434 . S
C1850 C1851 1.369 . S
C1850 C1852 1.419 . S
C1850 H1854 0.930 . S
C1851 C1850 1.369 . S
C1851 C1860 1.429 . S
C1852 C1850 1.419 . S
C1852 C1853 1.363 . S
C1852 H1855 0.929 . S
C1853 C1852 1.363 . S
C1853 C1859 1.428 . S
H1854 C1850 0.930 . S
H1855 C1852 0.929 . S
S1856 N1857 1.613 . S
S1856 N1858 1.610 . S
N1857 S1856 1.613 . S
N1857 C1860 1.350 . S
N1858 S1856 1.610 . S
N1858 C1859 1.351 . S
C1859 C1853 1.428 . S
C1859 N1858 1.351 . S
C1859 C1860 1.434 . S
C1860 C1851 1.429 . S
C1860 N1857 1.350 . S
C1860 C1859 1.434 . S
C1861 C1862 1.369 . S
C1861 C1863 1.419 . S
C1861 H1865 0.930 . S
C1862 C1861 1.369 . S
C1862 C1871 1.429 . S
C1863 C1861 1.419 . S
C1863 C1864 1.363 . S
C1863 H1866 0.929 . S
C1864 C1863 1.363 . S
C1864 C1870 1.428 . S
H1865 C1861 0.930 . S
H1866 C1863 0.929 . S
S1867 N1868 1.613 . S
S1867 N1869 1.610 . S
N1868 S1867 1.613 . S
N1868 C1871 1.350 . S
N1869 S1867 1.610 . S
N1869 C1870 1.351 . S
C1870 C1864 1.428 . S
C1870 N1869 1.351 . S
C1870 C1871 1.434 . S
C1871 C1862 1.429 . S
C1871 N1868 1.350 . S
C1871 C1870 1.434 . S
C819 C337 1.978 . S
C817 C8 1.977 . S
C828 C22 1.361 . S
C830 C382 1.313 . S
C839 C35 1.651 . S
C841 C406 1.663 . S
C852 N432 1.240 . S
C850 C49 1.144 . S
C861 C23 1.662 . S
C863 N462 1.749 . S
C874 C496 1.527 . S
C872 C34 1.510 . S
C885 C532 1.181 . S
C883 C48 1.147 . S
C894 C9 1.981 . S
C896 C556 1.968 . S
C905 C64 1.167 . S
C907 N350 1.188 . S
C916 C77 1.107 . S
C918 N372 1.186 . S
C929 C412 1.296 . S
C927 C92 1.319 . S
C940 C436 1.908 . S
C938 C105 1.894 . S
C949 C63 1.245 . S
C951 C466 1.256 . S
C962 C502 1.408 . S
C960 C78 1.432 . S
C973 N522 1.264 . S
C971 C91 1.188 . S
C984 C562 1.893 . S
C982 C106 1.895 . S
C995 C363 1.837 . S
C993 C107 1.859 . S
C1006 C592 1.103 . S
C1004 C118 1.052 . S
C1015 C135 1.387 . S
C1017 N612 1.464 . S
C1028 C646 1.689 . S
C1026 C146 1.686 . S
C1037 C65 1.168 . S
C1039 N552 1.169 . S
C1050 N402 1.488 1_565 S
C1048 C79 1.421 . S
C1059 C132 1.191 . S
C1061 C682 1.221 . S
C1072 C706 1.110 . S
C1070 C160 1.108 . S
C1081 C177 2.022 . S
C1083 C346 1.963 1_556 S
C1094 C723 0.952 . S
C1092 C188 0.948 . S
C1103 C204 1.957 . S
C1105 C397 1.930 . S
C1114 C219 1.268 . S
C1116 N680 1.278 . S
C1127 N470 1.364 . S
C1125 C190 1.362 . S
C1138 C607 1.611 . S
C1136 C202 1.593 . S
C1149 C543 1.144 . S
C1147 C217 1.120 . S
C1160 C727 1.785 . S
C1158 C175 1.759 . S
C1171 N342 1.047 1_655 S
C1169 C231 1.008 . S
C1180 C246 1.440 . S
C1182 N710 1.432 . S
C1193 C423 1.076 . S
C1191 C259 1.035 . S
C1202 C274 1.970 . S
C1204 C667 1.949 . S
C1213 C232 1.417 . S
C1215 C457 1.345 1_655 S
C1224 C245 1.092 . S
C1226 C633 1.119 . S
C1237 N530 1.300 . S
C1235 C260 1.291 . S
C1246 C273 1.739 . S
C1248 C753 1.743 . S
C1257 C275 1.920 . S
C1259 C352 1.878 1_565 S
C1268 C286 1.095 . S
C1270 C603 1.164 . S
C1279 C303 1.343 . S
C1281 N500 1.352 . S
C1290 C314 1.546 . S
C1292 C637 1.551 . S
C1303 N740 1.137 . S
C1301 C233 1.134 1_565 S
C1314 N410 1.315 . S
C1312 C247 1.309 . S
C1325 C453 1.114 . S
C1323 C300 1.088 . S
C1336 C367 1.173 . S
C1334 C328 1.179 . S
C1345 C36 1.965 . S
C1347 C757 1.965 . S
C1358 C712 1.315 . S
C1356 C50 1.363 . S
C1369 C796 1.645 . S
C1367 C7 1.638 . S
C1378 C21 1.138 . S
C1380 N672 1.232 . S
C1389 C51 1.650 . S
C1391 N582 1.729 1_556 S
C1402 C616 1.513 . S
C1400 C6 1.505 . S
C1413 C652 1.192 . S
C1411 C20 1.138 . S
C1424 C736 1.953 . S
C1422 C37 1.973 . S
C1435 N770 1.136 . S
C1433 C162 1.133 . S
C1444 C119 1.087 . S
C1446 N702 1.156 . S
C1455 C134 1.305 . S
C1457 C802 1.275 . S
C1468 C676 1.904 . S
C1466 C147 1.892 . S
C1479 C586 1.251 . S
C1477 C161 1.220 . S
C1488 C120 1.424 . S
C1490 C622 1.385 . S
C1501 N642 1.240 1_655 S
C1499 C133 1.167 . S
C1510 C148 1.851 . S
C1512 C742 1.848 . S
C1523 C783 1.868 . S
C1521 C149 1.879 . S
C1534 C472 1.040 1_565 S
C1532 C76 1.015 . S
C1545 N492 1.515 . S
C1543 C93 1.432 1_565 S
C1554 C104 1.645 . S
C1556 C526 1.661 . S
C1567 N732 1.154 . S
C1565 C163 1.156 . S
C1576 C121 1.374 . S
C1578 N792 1.438 . S
C1589 C442 1.170 . S
C1587 C90 1.132 . S
C1600 C376 1.078 . S
C1598 C62 1.065 . S
C1609 C203 1.780 . S
C1611 C766 1.766 . S
C1622 C393 1.012 . S
C1620 C216 0.979 . S
C1633 C787 1.724 . S
C1631 C174 1.702 . S
C1642 C191 1.284 . S
C1644 N440 1.280 . S
C1653 C218 1.355 . S
C1655 N590 1.360 . S
C1664 C176 1.843 . S
C1666 C487 1.811 . S
C1675 C189 1.069 . S
C1677 C663 1.098 . S
C1686 C205 2.063 . S
C1688 C547 2.016 . S
C1699 N762 1.019 . S
C1697 C329 0.987 . S
C1708 C288 1.420 . S
C1710 N380 1.414 . S
C1721 C813 1.008 . S
C1719 C301 0.992 . S
C1730 C316 1.921 . S
C1732 C427 1.895 . S
C1741 C330 1.466 . S
C1743 C577 1.396 . S
C1754 C513 1.201 . S
C1752 C287 1.135 . S
C1763 C302 1.316 . S
C1765 N650 1.316 . S
C1776 C573 1.765 . S
C1774 C315 1.747 . S
C1787 C772 1.822 . S
C1785 C317 1.878 . S
C1798 C483 1.137 . S
C1796 C244 1.080 . S
C1807 C261 1.359 . S
C1809 N620 1.357 . S
C1820 C517 1.546 . S
C1818 C272 1.542 . S
C1831 N560 1.155 . S
C1829 C331 1.154 . S
C1840 C289 1.323 . S
C1842 N800 1.323 . S
C1853 C693 1.126 . S
C1851 C258 1.091 . S
C1864 C697 1.182 . S
C1862 C230 1.192 . S
