# Generated by pormake.
# Topology anh, (6,3)-cn, num edge types: 1
# Building blocks:
#     Node 0, Type 0, BuildingBlock: HISSIN_clean_sbu_0, # of connection points: 6
#     Node 1, Type 0, BuildingBlock: HISSIN_clean_sbu_0, # of connection points: 6
#     Node 2, Type 0, BuildingBlock: HISSIN_clean_sbu_0, # of connection points: 6
#     Node 3, Type 1, BuildingBlock: WUSLED_clean_sbu_0, # of connection points: 3
#     Node 4, Type 1, BuildingBlock: WUSLED_clean_sbu_0, # of connection points: 3
#     Node 5, Type 1, BuildingBlock: WUSLED_clean_sbu_0, # of connection points: 3
#     Node 6, Type 1, BuildingBlock: WUSLED_clean_sbu_0, # of connection points: 3
#     Node 7, Type 1, BuildingBlock: WUSLED_clean_sbu_0, # of connection points: 3
#     Node 8, Type 1, BuildingBlock: WUSLED_clean_sbu_0, # of connection points: 3
#     Edge 9, Type (0, 1), BuildingBlock: OJICUG_clean_linker_0, # of connection points: 2
#     Edge 10, Type (0, 1), BuildingBlock: OJICUG_clean_linker_0, # of connection points: 2
#     Edge 11, Type (0, 1), BuildingBlock: OJICUG_clean_linker_0, # of connection points: 2
#     Edge 12, Type (0, 1), BuildingBlock: OJICUG_clean_linker_0, # of connection points: 2
#     Edge 13, Type (0, 1), BuildingBlock: OJICUG_clean_linker_0, # of connection points: 2
#     Edge 14, Type (0, 1), BuildingBlock: OJICUG_clean_linker_0, # of connection points: 2
#     Edge 15, Type (0, 1), BuildingBlock: OJICUG_clean_linker_0, # of connection points: 2
#     Edge 16, Type (0, 1), BuildingBlock: OJICUG_clean_linker_0, # of connection points: 2
#     Edge 17, Type (0, 1), BuildingBlock: OJICUG_clean_linker_0, # of connection points: 2
#     Edge 18, Type (0, 1), BuildingBlock: OJICUG_clean_linker_0, # of connection points: 2
#     Edge 19, Type (0, 1), BuildingBlock: OJICUG_clean_linker_0, # of connection points: 2
#     Edge 20, Type (0, 1), BuildingBlock: OJICUG_clean_linker_0, # of connection points: 2
#     Edge 21, Type (0, 1), BuildingBlock: OJICUG_clean_linker_0, # of connection points: 2
#     Edge 22, Type (0, 1), BuildingBlock: OJICUG_clean_linker_0, # of connection points: 2
#     Edge 23, Type (0, 1), BuildingBlock: OJICUG_clean_linker_0, # of connection points: 2
#     Edge 24, Type (0, 1), BuildingBlock: OJICUG_clean_linker_0, # of connection points: 2
#     Edge 25, Type (0, 1), BuildingBlock: OJICUG_clean_linker_0, # of connection points: 2
#     Edge 26, Type (0, 1), BuildingBlock: OJICUG_clean_linker_0, # of connection points: 2
# Relax obj value: 0.267
# Max RMSD: 0.189
# Mean RMSD: 0.155
data_MOF--net-anh--node1-HISSIN_clean_sbu_0--node2-WUSLED_clean_sbu_0--edge1-OJICUG_clean_linker_0
_symmetry_space_group_name_H-M    P1
_symmetry_Int_Tables_number       1
_symmetry_cell_setting            triclinic
loop_
_symmetry_equiv_pos_as_xyz
'x, y, z'
_cell_length_a     30.529078
_cell_length_b     30.495867
_cell_length_c     55.368963
_cell_angle_alpha  91.464288
_cell_angle_beta   92.162246
_cell_angle_gamma 120.05314
loop_
_atom_site_label
_atom_site_type_symbol
_atom_site_fract_x
_atom_site_fract_y
_atom_site_fract_z
_atom_type_partial_charge
Eu0 Eu 1.10893 0.53112 0.18955 0.0
Eu1 Eu 0.16711 0.65316 0.1889 0.0
C2 C 0.14793 0.59914 0.23897 0.0
C3 C 1.00018 0.40315 0.18126 0.0
C4 C 0.96441 0.38401 0.19898 0.0
C5 C 0.93301 0.38864 0.15137 0.0
C6 C 0.91426 0.37033 0.19329 0.0
C7 C 0.98363 0.40328 0.15713 0.0
C8 C 0.8988 0.37443 0.16969 0.0
C9 C 1.05434 0.43332 0.18913 0.0
O10 O 0.23205 0.63629 0.18889 0.0
O11 O 0.1881 0.55018 0.18003 0.0
C12 C 0.23115 0.59366 0.1828 0.0
O13 O 1.09341 0.5498 0.15235 0.0
O14 O 0.22465 0.72934 0.20219 0.0
O15 O 0.17144 0.71916 0.1725 0.0
O16 O 0.16778 0.62401 0.15144 0.0
C17 C 1.1275 0.58642 0.14022 0.0
O18 O 1.04478 0.54892 0.19263 0.0
O19 O 1.08532 0.6301 0.18003 0.0
O20 O 0.14468 0.6346 0.22747 0.0
O21 O 1.08572 0.45686 0.17236 0.0
O22 O 1.06392 0.46248 0.20863 0.0
O23 O 0.1473 0.56139 0.22675 0.0
C24 C 0.25578 0.7817 0.16973 0.0
C25 C 0.27153 0.75808 0.15283 0.0
C26 C 0.33107 0.86187 0.16435 0.0
C27 C 0.31829 0.78581 0.14273 0.0
C28 C 0.28427 0.83407 0.17443 0.0
C29 C 0.35003 0.83728 0.14973 0.0
C30 C 0.21368 0.75064 0.18459 0.0
C31 C 1.04344 0.58873 0.18477 0.0
H32 H 0.97603 0.38335 0.21764 0.0
H33 H 0.92125 0.39099 0.13297 0.0
H34 H 0.8878 0.35815 0.20753 0.0
H35 H 1.01022 0.41773 0.14299 0.0
H36 H 0.24956 0.7175 0.1489 0.0
H37 H 0.35457 0.9014 0.17031 0.0
H38 H 0.33169 0.76601 0.13139 0.0
H39 H 0.27231 0.85274 0.18732 0.0
Eu40 Eu 0.67901 1.0717 0.5204 0.0
Eu41 Eu 0.61887 0.13376 0.5229 0.0
C42 C 0.65286 0.1026 0.57139 0.0
C43 C 0.69924 0.96196 0.51183 0.0
C44 C 0.64915 0.92802 0.51738 0.0
C45 C 0.70656 0.89172 0.49551 0.0
C46 C 0.62836 0.87613 0.51268 0.0
C47 C 0.72745 0.94378 0.50033 0.0
C48 C 0.6573 0.85747 0.50222 0.0
C49 C 0.72143 1.01621 0.51778 0.0
O50 O 0.70245 0.19591 0.52712 0.0
O51 O 0.74179 0.15199 0.51531 0.0
C52 C 0.74326 0.19504 0.52057 0.0
O53 O 0.65061 1.0724 0.48222 0.0
O54 O 0.60241 0.18906 0.53968 0.0
O55 O 0.5621 0.14845 0.50602 0.0
O56 O 0.65562 0.14868 0.48767 0.0
C57 C 0.65527 0.11386 0.47339 0.0
O58 O 0.59682 1.00995 0.52294 0.0
O59 O 0.55835 1.05368 0.50997 0.0
O60 O 0.61498 0.10381 0.56005 0.0
O61 O 0.72009 1.04291 0.50008 0.0
O62 O 0.70807 1.02774 0.538 0.0
O63 O 0.6887 0.10219 0.55915 0.0
C64 C 0.5946 0.23657 0.50915 0.0
C65 C 0.62376 0.24597 0.48881 0.0
C66 C 0.62643 0.32665 0.51499 0.0
C67 C 0.65638 0.29558 0.48252 0.0
C68 C 0.59408 0.27698 0.52137 0.0
C69 C 0.66013 0.33651 0.49645 0.0
C70 C 0.57509 0.18783 0.52064 0.0
C71 C 0.55628 1.01051 0.51445 0.0
H72 H 0.62658 0.94149 0.52601 0.0
H73 H 0.72986 0.8781 0.48773 0.0
H74 H 0.59035 0.85044 0.518 0.0
H75 H 0.76594 0.96963 0.49567 0.0
H76 H 0.62462 0.21533 0.47898 0.0
H77 H 0.62868 0.35733 0.52627 0.0
H78 H 0.68154 0.30199 0.46806 0.0
H79 H 0.57217 0.27057 0.53719 0.0
Eu80 Eu 0.60796 0.5731 0.85063 0.0
Eu81 Eu 0.73012 0.63736 0.85723 0.0
C82 C 0.66557 0.60784 0.90503 0.0
C83 C 0.49278 0.57305 0.85381 0.0
C84 C 0.52501 0.61488 0.86948 0.0
C85 C 0.43479 0.60529 0.85013 0.0
C86 C 0.51243 0.65134 0.87553 0.0
C87 C 0.44787 0.56867 0.8438 0.0
C88 C 0.46694 0.64663 0.86626 0.0
C89 C 0.51191 0.54007 0.84574 0.0
O90 O 0.71023 0.55585 0.84728 0.0
O91 O 0.62509 0.50938 0.85353 0.0
C92 C 0.66835 0.51182 0.84916 0.0
O93 O 0.63446 0.56124 0.81512 0.0
O94 O 0.80335 0.65012 0.8714 0.0
O95 O 0.8002 0.6988 0.84448 0.0
O96 O 0.70663 0.63794 0.81834 0.0
C97 C 0.67226 0.59873 0.8051 0.0
O98 O 0.63245 0.6551 0.84305 0.0
O99 O 0.70885 0.6976 0.86431 0.0
O100 O 0.70993 0.6235 0.89609 0.0
O101 O 0.54144 0.5577 0.82782 0.0
O102 O 0.53168 0.52577 0.863 0.0
O103 O 0.62425 0.59258 0.89099 0.0
C104 C 0.85603 0.66849 0.83944 0.0
C105 C 0.82906 0.62847 0.82197 0.0
C106 C 0.93293 0.6683 0.83109 0.0
C107 C 0.8535 0.60688 0.80991 0.0
C108 C 0.9083 0.68946 0.84336 0.0
C109 C 0.90533 0.62551 0.815 0.0
C110 C 0.82796 0.68309 0.85539 0.0
C111 C 0.67036 0.69758 0.85283 0.0
H112 H 0.56072 0.62003 0.87678 0.0
H113 H 0.3992 0.60072 0.84291 0.0
H114 H 0.53823 0.68316 0.88767 0.0
H115 H 0.42336 0.53743 0.83111 0.0
H116 H 0.78851 0.612 0.81869 0.0
H117 H 0.97282 0.6829 0.83569 0.0
H118 H 0.83143 0.57394 0.7977 0.0
H119 H 0.92945 0.72016 0.85686 0.0
C120 C 0.62713 0.20928 0.20576 0.0
C121 C 0.6612 0.25406 0.21907 0.0
C122 C 0.69441 0.29442 0.18151 0.0
C123 C 0.69468 0.29659 0.207 0.0
C124 C 0.65359 0.25287 0.16854 0.0
C125 C 0.62043 0.2101 0.18065 0.0
U126 U 0.61866 0.12679 0.25846 0.0
O127 O 0.56289 1.04656 0.26332 0.0
O128 O 0.64286 1.0701 0.25908 0.0
C129 C 0.59588 1.0323 0.25831 0.0
C130 C 0.61145 0.16048 0.21625 0.0
C131 C 0.58122 0.99759 0.23689 0.0
C132 C 0.57683 0.98781 0.19301 0.0
C133 C 0.59912 1.01733 0.21434 0.0
C134 C 0.52117 0.91718 0.2166 0.0
C135 C 0.53606 0.93821 0.19389 0.0
C136 C 0.54352 0.9468 0.23796 0.0
C137 C 0.65834 0.17267 0.32313 0.0
C138 C 0.63084 0.11356 0.35534 0.0
C139 C 0.70171 0.19903 0.36288 0.0
C140 C 0.69671 0.20973 0.33888 0.0
C141 C 0.66802 0.15118 0.37152 0.0
C142 C 0.62627 0.12412 0.33133 0.0
C143 C 0.65177 0.18445 0.29819 0.0
O144 O 0.6498 0.15515 0.22371 0.0
O145 O 0.57498 0.14407 0.2314 0.0
O146 O 0.60439 0.16288 0.28955 0.0
O147 O 0.68241 0.18175 0.28293 0.0
H148 H 0.66659 0.25403 0.23853 0.0
H149 H 0.72508 0.32795 0.21778 0.0
H150 H 0.65134 0.25071 0.14894 0.0
H151 H 0.5938 0.1758 0.17015 0.0
H152 H 0.58894 1.00494 0.17582 0.0
H153 H 0.62805 1.05667 0.21305 0.0
H154 H 0.48914 0.87932 0.2179 0.0
H155 H 0.5289 0.93117 0.25515 0.0
H156 H 0.60397 1.07654 0.3614 0.0
H157 H 0.73146 0.22852 0.37476 0.0
H158 H 0.72234 0.2471 0.33272 0.0
H159 H 0.59685 0.09464 0.31929 0.0
C160 C 0.689 0.61475 0.53143 0.0
C161 C 0.64323 0.6076 0.53984 0.0
C162 C 0.64399 0.6672 0.51125 0.0
C163 C 0.6204 0.63308 0.52953 0.0
C164 C 0.68708 0.66995 0.50137 0.0
C165 C 0.70922 0.64374 0.51136 0.0
U166 U 0.73842 0.59369 0.5916 0.0
O167 O 0.75969 0.53697 0.60106 0.0
O168 O 0.8176 0.61779 0.60307 0.0
C169 C 0.80831 0.57075 0.60096 0.0
C170 C 0.72066 0.60014 0.54555 0.0
C171 C 0.83355 0.56004 0.58141 0.0
C172 C 0.83453 0.5619 0.53757 0.0
C173 C 0.84085 0.58656 0.56007 0.0
C174 C 0.82547 0.48845 0.55761 0.0
C175 C 0.82201 0.51099 0.53626 0.0
C176 C 0.83094 0.51284 0.58016 0.0
C177 C 0.68566 0.60676 0.65081 0.0
C178 C 0.68488 0.5655 0.68786 0.0
C179 C 0.67941 0.64215 0.68937 0.0
C180 C 0.68155 0.64395 0.66425 0.0
C181 C 0.68089 0.60281 0.70135 0.0
C182 C 0.68763 0.56765 0.66279 0.0
C183 C 0.68743 0.6091 0.62439 0.0
O184 O 0.75705 0.63764 0.55909 0.0
O185 O 0.69711 0.55753 0.55672 0.0
O186 O 0.6705 0.56537 0.61232 0.0
O187 O 0.72942 0.64601 0.61636 0.0
H188 H 0.62699 0.58518 0.55535 0.0
H189 H 0.58652 0.62907 0.53716 0.0
H190 H 0.70681 0.69601 0.48749 0.0
H191 H 0.74462 0.6496 0.5047 0.0
H192 H 0.83258 0.58022 0.52138 0.0
H193 H 0.84356 0.62337 0.56041 0.0
H194 H 0.81614 0.44914 0.55712 0.0
H195 H 0.82529 0.49167 0.59629 0.0
H196 H 0.68667 0.53515 0.69675 0.0
H197 H 0.67603 0.67118 0.6994 0.0
H198 H 0.67993 0.67434 0.65531 0.0
H199 H 0.69126 0.53873 0.6528 0.0
C200 C 1.1007 0.5679 0.86633 0.0
C201 C 1.05039 0.54379 0.8729 0.0
C202 C 1.02245 0.53995 0.83079 0.0
C203 C 1.01134 0.5296 0.85519 0.0
C204 C 1.07201 0.55602 0.82406 0.0
C205 C 1.11112 0.57051 0.84183 0.0
U206 U 0.15192 0.62599 0.93047 0.0
O207 O 0.22651 0.65129 0.94866 0.0
O208 O 0.20302 0.70686 0.94065 0.0
C209 C 0.24074 0.69946 0.94676 0.0
C210 C 0.14151 0.60107 0.88406 0.0
C211 C 0.2853 0.72641 0.93263 0.0
C212 C 0.32093 0.72574 0.89445 0.0
C213 C 0.27938 0.71608 0.90754 0.0
C214 C 0.37598 0.76429 0.93064 0.0
C215 C 0.36924 0.74621 0.90628 0.0
C216 C 0.33393 0.75334 0.94393 0.0
C217 C 1.08256 0.58749 0.98641 0.0
C218 C 1.1358 0.61972 0.02351 0.0
C219 C 1.04526 0.56302 0.02516 0.0
C220 C 1.03989 0.56068 0.99986 0.0
C221 C 1.09352 0.59172 0.03724 0.0
C222 C 1.13028 0.6179 0.99839 0.0
C223 C 1.07939 0.58046 0.96003 0.0
O224 O 1.13673 0.63859 0.89317 0.0
O225 O 0.15546 0.57919 0.90035 0.0
O226 O 1.08536 0.61954 0.94795 0.0
O227 O 1.10661 0.5611 0.95231 0.0
H228 H 1.04183 0.54139 0.89181 0.0
H229 H 0.9737 0.51714 0.86118 0.0
H230 H 1.08154 0.56331 0.80538 0.0
H231 H 0.14993 0.58873 0.83652 0.0
H232 H 0.31362 0.71131 0.8758 0.0
H233 H 0.24194 0.69552 0.89851 0.0
H234 H 0.41301 0.78212 0.94009 0.0
H235 H 0.33909 0.7621 0.96327 0.0
H236 H 0.17363 0.64152 0.03204 0.0
H237 H 1.01178 0.54174 0.03521 0.0
H238 H 1.0028 0.53703 0.99082 0.0
H239 H 0.16371 0.63863 0.98822 0.0
C240 C 1.02182 0.48011 0.4972 0.0
C241 C 1.00892 0.43576 0.48312 0.0
C242 C 0.93014 0.38685 0.50427 0.0
C243 C 0.96366 0.38993 0.48652 0.0
C244 C 0.94332 0.43183 0.51803 0.0
C245 C 0.98814 0.47747 0.51447 0.0
U246 U 0.13987 0.59278 0.46749 0.0
O247 O 0.17822 0.67325 0.4807 0.0
O248 O 0.21985 0.63192 0.48202 0.0
C249 C 0.22123 0.67513 0.48676 0.0
C250 C 1.07151 0.52836 0.49615 0.0
C251 C 0.27005 0.72455 0.48556 0.0
C252 C 0.31767 0.81621 0.49553 0.0
C253 C 0.27147 0.77025 0.49195 0.0
C254 C 0.36303 0.77272 0.48592 0.0
C255 C 0.3645 0.81837 0.49291 0.0
C256 C 0.31663 0.72656 0.48243 0.0
C257 C 1.13657 0.58207 0.39497 0.0
C258 C 0.16288 0.63625 0.36048 0.0
C259 C 1.12946 0.54601 0.35424 0.0
C260 C 1.12365 0.5403 0.37908 0.0
C261 C 0.1489 0.59397 0.3444 0.0
C262 C 0.15657 0.63034 0.38551 0.0
C263 C 1.12286 0.57177 0.42046 0.0
O264 O 1.11098 0.52547 0.48961 0.0
O265 O 1.07085 0.56803 0.48787 0.0
O266 O 1.10852 0.60004 0.43223 0.0
O267 O 0.1475 0.55588 0.43431 0.0
H268 H 1.03403 0.43629 0.46968 0.0
H269 H 0.95509 0.35695 0.47511 0.0
H270 H 0.91986 0.43186 0.53218 0.0
H271 H 0.9972 0.51074 0.52582 0.0
H272 H 0.3165 0.84974 0.50133 0.0
H273 H 0.2367 0.77021 0.49524 0.0
H274 H 0.39782 0.77237 0.48334 0.0
H275 H 0.31744 0.6922 0.47799 0.0
H276 H 0.17847 0.6739 0.35374 0.0
H277 H 1.11697 0.51222 0.34267 0.0
H278 H 1.10726 0.50253 0.38582 0.0
H279 H 0.16647 0.66321 0.39733 0.0
C280 C 0.67416 0.98177 0.82718 0.0
C281 C 0.63954 0.93695 0.81373 0.0
C282 C 0.67369 0.88867 0.83431 0.0
C283 C 0.63954 0.89118 0.81713 0.0
C284 C 0.70848 0.93404 0.84746 0.0
C285 C 0.70876 0.97958 0.84387 0.0
U286 U 0.66922 0.10226 0.8026 0.0
O287 O 0.62909 0.1374 0.81972 0.0
O288 O 0.71204 0.17834 0.82116 0.0
C289 C 0.67112 0.17957 0.8266 0.0
C290 C 0.67207 1.02977 0.82677 0.0
C291 C 0.67226 0.2292 0.82522 0.0
C292 C 0.71512 0.31972 0.83747 0.0
C293 C 0.71529 0.27385 0.83483 0.0
C294 C 0.629 0.27817 0.82041 0.0
C295 C 0.67173 0.32268 0.83066 0.0
C296 C 0.62917 0.23213 0.81784 0.0
C297 C 0.66499 0.09856 0.72826 0.0
C298 C 0.61661 1.07551 0.68935 0.0
C299 C 0.70821 0.12187 0.69049 0.0
C300 C 0.7099 0.12164 0.71585 0.0
C301 C 0.66151 0.09905 0.67684 0.0
C302 C 0.61834 1.07531 0.71469 0.0
C303 C 0.66668 0.09998 0.7552 0.0
O304 O 0.7128 1.07149 0.82114 0.0
O305 O 0.62973 1.02789 0.81928 0.0
O306 O 0.62534 1.07908 0.76735 0.0
O307 O 0.70947 0.12161 0.76862 0.0
H308 H 0.61198 0.93704 0.80086 0.0
H309 H 0.61253 0.85775 0.80626 0.0
H310 H 0.73476 0.93441 0.86124 0.0
H311 H 0.7353 1.01313 0.85487 0.0
H312 H 0.7486 0.35243 0.84579 0.0
H313 H 0.74879 0.27292 0.84123 0.0
H314 H 0.59502 0.27863 0.81454 0.0
H315 H 0.59502 0.19858 0.81062 0.0
H316 H 0.57993 1.0568 0.67955 0.0
H317 H 0.74361 0.14092 0.68163 0.0
H318 H 0.7465 0.14008 0.72573 0.0
H319 H 0.58299 1.0571 0.72364 0.0
C320 C 0.75899 0.58762 0.15347 0.0
C321 C 0.76046 0.5423 0.15049 0.0
C322 C 0.85162 0.58616 0.16249 0.0
C323 C 0.80601 0.54162 0.15481 0.0
C324 C 0.84999 0.6315 0.16509 0.0
C325 C 0.80467 0.63217 0.16069 0.0
U326 U 0.63219 0.59175 0.13299 0.0
O327 O 0.5597 0.55012 0.15083 0.0
O328 O 0.60439 0.63277 0.15551 0.0
C329 C 0.56195 0.59153 0.15989 0.0
C330 C 0.70963 0.58746 0.15374 0.0
C331 C 0.51429 0.59462 0.15942 0.0
C332 C 0.46854 0.63497 0.17559 0.0
C333 C 0.51378 0.63414 0.17288 0.0
C334 C 0.42264 0.55714 0.15094 0.0
C335 C 0.42183 0.59616 0.16495 0.0
C336 C 0.46801 0.55625 0.14831 0.0
C337 C 0.63292 0.60165 0.0603 0.0
C338 C 0.60957 0.61223 0.01922 0.0
C339 C 0.6784 0.59547 0.02625 0.0
C340 C 0.6712 0.5941 0.05131 0.0
C341 C 0.64715 0.60396 1.00982 0.0
C342 C 0.60261 0.61102 0.04404 0.0
C343 C 0.62128 0.59864 0.08613 0.0
O344 O 0.70962 0.63 0.15038 0.0
O345 O 0.66715 0.54705 0.14553 0.0
O346 O 0.60364 0.55505 0.09646 0.0
O347 O 0.64751 0.63852 0.10109 0.0
H348 H 0.72604 0.5069 0.14551 0.0
H349 H 0.80523 0.50592 0.15227 0.0
H350 H 0.88346 0.66657 0.17145 0.0
H351 H 0.8051 0.66756 0.16396 0.0
H352 H 0.47018 0.66537 0.18684 0.0
H353 H 0.54842 0.66387 0.18205 0.0
H354 H 0.38808 0.52688 0.14202 0.0
H355 H 0.46655 0.52491 0.13794 0.0
H356 H 0.58543 0.61995 1.00739 0.0
H357 H 0.7076 0.58874 0.01971 0.0
H358 H 0.69502 0.58671 0.06354 0.0
H359 H 0.57289 0.61704 0.05056 0.0
C360 C 0.32604 0.64062 0.17703 0.0
C361 C 0.28003 0.59458 0.17834 0.0
H362 H 0.40552 0.67757 0.1712 0.0
C363 C 0.2811 0.54917 0.17484 0.0
H364 H 0.32701 0.67648 0.17931 0.0
C365 C 0.32651 0.54971 0.17041 0.0
C366 C 0.37271 0.59571 0.16912 0.0
H367 H 0.24674 0.51284 0.17571 0.0
H368 H 0.32532 0.51372 0.16846 0.0
C369 C 0.37144 0.64118 0.17243 0.0
C370 C 0.79467 0.29121 0.52163 0.0
C371 C 0.79155 0.24405 0.51733 0.0
H372 H 0.83922 0.37175 0.5211 0.0
C373 C 0.83462 0.24424 0.5088 0.0
H374 H 0.76249 0.29304 0.52802 0.0
C375 C 0.87907 0.28995 0.50458 0.0
C376 C 0.88226 0.33737 0.50871 0.0
H377 H 0.83405 0.20888 0.50521 0.0
H378 H 0.91118 0.28785 0.49836 0.0
C379 C 0.83917 0.33685 0.51753 0.0
C380 C 0.71614 0.79353 0.85205 0.0
C381 C 0.67095 0.74649 0.84895 0.0
H382 H 0.75323 0.87393 0.84902 0.0
C383 C 0.62662 0.7465 0.84082 0.0
H384 H 0.75124 0.79523 0.8579 0.0
C385 C 0.62739 0.79206 0.83613 0.0
C386 C 0.67273 0.83936 0.83902 0.0
H387 H 0.59099 0.71114 0.83815 0.0
H388 H 0.59203 0.78996 0.83051 0.0
C389 C 0.71712 0.83902 0.84699 0.0
C390 C 0.99337 0.62906 0.16972 0.0
C391 C 0.99379 0.58717 0.17969 0.0
H392 H 0.94992 0.66124 0.15593 0.0
C393 C 0.94663 0.54424 0.18369 0.0
H394 H 1.02853 0.66278 0.16603 0.0
C395 C 0.90074 0.54362 0.17807 0.0
C396 C 0.90045 0.58575 0.16812 0.0
H397 H 0.9451 0.51108 0.19119 0.0
H398 H 0.86545 0.51033 0.18192 0.0
C399 C 0.94778 0.6283 0.16398 0.0
C400 C 0.50322 0.91415 0.5138 0.0
C401 C 0.50731 0.96128 0.50914 0.0
H402 H 0.4561 0.83312 0.51276 0.0
C403 C 0.46413 0.96074 0.49883 0.0
H404 H 0.53531 0.9126 0.52174 0.0
C405 C 0.41854 0.91487 0.49339 0.0
C406 C 0.41418 0.8676 0.49811 0.0
H407 H 0.46549 0.99594 0.49477 0.0
H408 H 0.38678 0.91665 0.48516 0.0
C409 C 0.45753 0.86819 0.5084 0.0
C410 C 0.71397 0.46445 0.83808 0.0
C411 C 0.66937 0.46351 0.84466 0.0
H412 H 0.74964 0.42197 0.82803 0.0
C413 C 0.62544 0.41578 0.84627 0.0
H414 H 0.74856 0.50025 0.83641 0.0
C415 C 0.6261 0.37055 0.84157 0.0
C416 C 0.67071 0.37133 0.83503 0.0
H417 H 0.59028 0.41319 0.85124 0.0
H418 H 0.59161 0.33486 0.84352 0.0
C419 C 0.71461 0.41921 0.83333 0.0
C420 C 0.62431 0.77748 0.52349 0.0
C421 C 0.63976 0.80283 0.50196 0.0
H422 H 0.61364 0.71465 0.54339 0.0
C423 C 0.64561 0.77792 0.48178 0.0
H424 H 0.61984 0.79606 0.53937 0.0
C425 C 0.64076 0.73016 0.48383 0.0
C426 C 0.63144 0.70742 0.50631 0.0
H427 H 0.65679 0.79661 0.46487 0.0
H428 H 0.64805 0.71288 0.46834 0.0
C429 C 0.62041 0.73036 0.5257 0.0
C430 C 0.90586 0.54427 0.8138 0.0
C431 C 0.92879 0.59534 0.80782 0.0
H432 H 0.91826 0.48446 0.82485 0.0
C433 C 0.9791 0.62002 0.80113 0.0
H434 H 0.86682 0.52405 0.81878 0.0
C435 C 1.00859 0.59742 0.80473 0.0
C436 C 0.98808 0.55003 0.81527 0.0
H437 H 0.99722 0.65904 0.79595 0.0
H438 H 1.04889 0.62042 0.80251 0.0
C439 C 0.93539 0.52158 0.81738 0.0
C440 C 0.43538 0.91372 0.14707 0.0
C441 C 0.4056 0.86095 0.14849 0.0
H442 H 0.50207 0.98069 0.16085 0.0
C443 C 0.42871 0.8339 0.15708 0.0
H444 H 0.41892 0.93532 0.13989 0.0
C445 C 0.47659 0.85983 0.169 0.0
C446 C 0.50163 0.91282 0.17224 0.0
H447 H 0.40723 0.79304 0.15807 0.0
H448 H 0.49079 0.83834 0.17841 0.0
C449 C 0.48323 0.93969 0.15906 0.0
C450 C 0.75396 0.39246 0.49738 0.0
C451 C 0.70556 0.38764 0.49587 0.0
H452 H 0.83151 0.43873 0.51076 0.0
C453 C 0.7015 0.43096 0.5002 0.0
H454 H 0.75854 0.35993 0.49388 0.0
C455 C 0.74324 0.4756 0.51002 0.0
C456 C 0.7894 0.47725 0.51563 0.0
H457 H 0.66488 0.42859 0.49866 0.0
H458 H 0.73729 0.50614 0.51618 0.0
C459 C 0.79573 0.43725 0.50718 0.0
C460 C 0.45489 0.69214 0.90073 0.0
C461 C 0.45109 0.68186 0.87567 0.0
H462 H 0.43279 0.72101 0.93005 0.0
C463 C 0.42937 0.70263 0.86036 0.0
H464 H 0.47144 0.67653 0.91298 0.0
C465 C 0.40809 0.7299 0.87021 0.0
C466 C 0.40689 0.73532 0.89551 0.0
H467 H 0.42722 0.69621 0.84091 0.0
H468 H 0.38961 0.74365 0.85803 0.0
C469 C 0.43307 0.71847 0.91054 0.0
C470 C 0.81162 0.31994 0.15159 0.0
C471 C 0.84681 0.3641 0.1649 0.0
H472 H 0.7341 0.26308 0.146 0.0
C473 C 0.83014 0.39273 0.17772 0.0
H474 H 0.82401 0.29755 0.14153 0.0
C475 C 0.77845 0.37395 0.17981 0.0
C476 C 0.74307 0.32532 0.1699 0.0
H477 H 0.85711 0.42718 0.18797 0.0
H478 H 0.76668 0.39467 0.19153 0.0
C479 C 0.75993 0.30055 0.15406 0.0
C480 C 1.08119 0.54407 0.10069 0.0
C481 C 1.1188 0.58743 0.11394 0.0
H482 H 1.04427 0.5111 0.06603 0.0
C483 C 0.14686 0.63256 0.10203 0.0
H484 H 1.05893 0.50876 0.10942 0.0
C485 C 0.13759 0.63431 0.07733 0.0
C486 C 1.10061 0.59074 0.06387 0.0
H487 H 0.17558 0.66685 0.11184 0.0
H488 H 0.1594 0.66997 0.06883 0.0
C489 C 1.0724 0.54561 0.07587 0.0
C490 C 0.65453 1.08495 0.43037 0.0
C491 C 0.66134 0.12308 0.44738 0.0
H492 H 0.65232 1.06414 0.39288 0.0
C493 C 0.67341 0.17102 0.43937 0.0
H494 H 0.64556 1.04777 0.43604 0.0
C495 C 0.67684 0.18024 0.41487 0.0
C496 C 0.66874 0.14193 0.39768 0.0
H497 H 0.67964 0.20157 0.452 0.0
H498 H 0.68423 0.21707 0.4094 0.0
C499 C 0.65818 0.0943 0.40569 0.0
C500 C 0.70881 0.64371 0.76767 0.0
C501 C 0.67485 0.59893 0.77858 0.0
H502 H 0.73709 0.6799 0.73464 0.0
C503 C 0.64328 0.55505 0.76391 0.0
H504 H 0.73369 0.67817 0.77848 0.0
C505 C 0.64556 0.55609 0.73876 0.0
C506 C 0.67897 0.60115 0.72792 0.0
H507 H 0.61688 0.51998 0.77183 0.0
H508 H 0.62064 0.52193 0.72776 0.0
C509 C 0.71062 0.64487 0.74259 0.0
C510 C 0.69293 0.09604 0.61081 0.0
C511 C 0.65539 0.10206 0.59834 0.0
H512 H 0.72387 1.08947 0.64502 0.0
C513 C 0.62008 0.10728 0.61191 0.0
H514 H 0.72066 1.09167 0.60101 0.0
C515 C 0.62219 0.10646 0.63723 0.0
C516 C 0.65955 0.10018 0.64976 0.0
H517 H 0.5908 0.11228 0.603 0.0
H518 H 0.59478 0.11143 0.647 0.0
C519 C 0.69494 0.09505 0.63614 0.0
C520 C 0.70487 0.62738 0.9479 0.0
C521 C 0.66147 0.60673 0.93186 0.0
H522 H 0.73469 0.64313 0.98486 0.0
C523 C 0.61365 0.58408 0.94176 0.0
H524 H 0.74238 0.64513 0.941 0.0
C525 C 0.60927 0.58244 0.96685 0.0
C526 C 0.65256 0.60375 0.98297 0.0
H527 H 0.57927 0.56721 0.93011 0.0
H528 H 0.57164 0.56408 0.97362 0.0
C529 C 0.70048 0.62592 0.97311 0.0
C530 C 0.16271 0.56732 0.27814 0.0
C531 C 0.15148 0.60075 0.26599 0.0
H532 H 0.17278 0.54034 0.31194 0.0
C533 C 0.14238 0.63432 0.27994 0.0
H534 H 0.17054 0.5413 0.26811 0.0
C535 C 0.14279 0.6332 0.30533 0.0
C536 C 0.1527 0.59872 0.31748 0.0
H537 H 1.1336 0.6606 0.27122 0.0
H538 H 1.13369 0.65828 0.31533 0.0
C539 C 0.16367 0.56657 0.30343 0.0
loop_
_geom_bond_atom_site_label_1
_geom_bond_atom_site_label_2
_geom_bond_distance
_geom_bond_site_symmetry_2
_ccdc_geom_bond_type
Eu0 C9 2.828 . S
Eu0 O11 2.392 1_655 S
Eu0 O13 2.418 . S
Eu0 O18 2.373 . S
Eu0 O21 2.488 . S
Eu0 O22 2.471 . S
Eu0 O23 2.349 . S
Eu1 O10 2.373 . S
Eu1 O14 2.488 . S
Eu1 O15 2.471 . S
Eu1 O16 2.349 . S
Eu1 O19 2.392 1_455 S
Eu1 O20 2.418 . S
Eu1 C30 2.828 . S
C2 O20 1.244 . S
C2 O23 1.265 1_455 S
C3 C4 1.379 . S
C3 C7 1.373 . S
C3 C9 1.505 . S
C4 C3 1.379 . S
C4 C6 1.369 . S
C4 H32 0.930 . S
C5 C7 1.383 . S
C5 C8 1.382 . S
C5 H33 0.930 . S
C6 C4 1.369 . S
C6 C8 1.392 . S
C6 H34 0.930 . S
C7 C3 1.373 . S
C7 C5 1.383 . S
C7 H35 0.931 . S
C8 C5 1.382 . S
C8 C6 1.392 . S
C9 Eu0 2.828 . S
C9 C3 1.505 . S
C9 O21 1.249 . S
C9 O22 1.244 . S
O10 Eu1 2.373 . S
O10 C12 1.258 . S
O11 Eu0 2.392 1_455 S
O11 C12 1.242 . S
C12 O10 1.258 . S
C12 O11 1.242 . S
O13 Eu0 2.418 . S
O13 C17 1.244 . S
O14 Eu1 2.488 . S
O14 C30 1.249 . S
O15 Eu1 2.471 . S
O15 C30 1.244 . S
O16 Eu1 2.349 . S
O16 C17 1.265 1_455 S
C17 O13 1.244 . S
C17 O16 1.265 1_655 S
O18 Eu0 2.373 . S
O18 C31 1.258 . S
O19 Eu1 2.392 1_655 S
O19 C31 1.242 . S
O20 Eu1 2.418 . S
O20 C2 1.244 . S
O21 Eu0 2.488 . S
O21 C9 1.249 . S
O22 Eu0 2.471 . S
O22 C9 1.244 . S
O23 Eu0 2.349 . S
O23 C2 1.265 1_655 S
C24 C25 1.379 . S
C24 C28 1.373 . S
C24 C30 1.505 . S
C25 C24 1.379 . S
C25 C27 1.369 . S
C25 H36 0.930 . S
C26 C28 1.383 . S
C26 C29 1.382 . S
C26 H37 0.930 . S
C27 C25 1.369 . S
C27 C29 1.392 . S
C27 H38 0.930 . S
C28 C24 1.373 . S
C28 C26 1.383 . S
C28 H39 0.931 . S
C29 C26 1.382 . S
C29 C27 1.392 . S
C30 Eu1 2.828 . S
C30 O14 1.249 . S
C30 O15 1.244 . S
C30 C24 1.505 . S
C31 O18 1.258 . S
C31 O19 1.242 . S
H32 C4 0.930 . S
H33 C5 0.930 . S
H34 C6 0.930 . S
H35 C7 0.931 . S
H36 C25 0.930 . S
H37 C26 0.930 . S
H38 C27 0.930 . S
H39 C28 0.931 . S
Eu40 C49 2.828 . S
Eu40 O51 2.392 1_565 S
Eu40 O53 2.418 . S
Eu40 O58 2.373 . S
Eu40 O61 2.488 . S
Eu40 O62 2.471 . S
Eu40 O63 2.349 . S
Eu41 O50 2.373 . S
Eu41 O54 2.488 . S
Eu41 O55 2.471 . S
Eu41 O56 2.349 . S
Eu41 O59 2.392 1_545 S
Eu41 O60 2.418 . S
Eu41 C70 2.828 . S
C42 O60 1.244 . S
C42 O63 1.265 1_545 S
C43 C44 1.379 . S
C43 C47 1.373 . S
C43 C49 1.505 . S
C44 C43 1.379 . S
C44 C46 1.369 . S
C44 H72 0.930 . S
C45 C47 1.383 . S
C45 C48 1.382 . S
C45 H73 0.930 . S
C46 C44 1.369 . S
C46 C48 1.392 . S
C46 H74 0.930 . S
C47 C43 1.373 . S
C47 C45 1.383 . S
C47 H75 0.931 . S
C48 C45 1.382 . S
C48 C46 1.392 . S
C49 Eu40 2.828 . S
C49 C43 1.505 . S
C49 O61 1.249 . S
C49 O62 1.244 . S
O50 Eu41 2.373 . S
O50 C52 1.258 . S
O51 Eu40 2.392 1_545 S
O51 C52 1.242 . S
C52 O50 1.258 . S
C52 O51 1.242 . S
O53 Eu40 2.418 . S
O53 C57 1.244 1_565 S
O54 Eu41 2.488 . S
O54 C70 1.249 . S
O55 Eu41 2.471 . S
O55 C70 1.244 . S
O56 Eu41 2.349 . S
O56 C57 1.265 . S
C57 O53 1.244 1_545 S
C57 O56 1.265 . S
O58 Eu40 2.373 . S
O58 C71 1.258 . S
O59 Eu41 2.392 1_565 S
O59 C71 1.242 . S
O60 Eu41 2.418 . S
O60 C42 1.244 . S
O61 Eu40 2.488 . S
O61 C49 1.249 . S
O62 Eu40 2.471 . S
O62 C49 1.244 . S
O63 Eu40 2.349 . S
O63 C42 1.265 1_565 S
C64 C65 1.379 . S
C64 C68 1.373 . S
C64 C70 1.505 . S
C65 C64 1.379 . S
C65 C67 1.369 . S
C65 H76 0.930 . S
C66 C68 1.383 . S
C66 C69 1.382 . S
C66 H77 0.930 . S
C67 C65 1.369 . S
C67 C69 1.392 . S
C67 H78 0.930 . S
C68 C64 1.373 . S
C68 C66 1.383 . S
C68 H79 0.931 . S
C69 C66 1.382 . S
C69 C67 1.392 . S
C70 Eu41 2.828 . S
C70 O54 1.249 . S
C70 O55 1.244 . S
C70 C64 1.505 . S
C71 O58 1.258 . S
C71 O59 1.242 . S
H72 C44 0.930 . S
H73 C45 0.930 . S
H74 C46 0.930 . S
H75 C47 0.931 . S
H76 C65 0.930 . S
H77 C66 0.930 . S
H78 C67 0.930 . S
H79 C68 0.931 . S
Eu80 C89 2.828 . S
Eu80 O91 2.392 . S
Eu80 O93 2.418 . S
Eu80 O98 2.373 . S
Eu80 O101 2.488 . S
Eu80 O102 2.471 . S
Eu80 O103 2.349 . S
Eu81 O90 2.373 . S
Eu81 O94 2.488 . S
Eu81 O95 2.471 . S
Eu81 O96 2.349 . S
Eu81 O99 2.392 . S
Eu81 O100 2.418 . S
Eu81 C110 2.828 . S
C82 O100 1.244 . S
C82 O103 1.265 . S
C83 C84 1.379 . S
C83 C87 1.373 . S
C83 C89 1.505 . S
C84 C83 1.379 . S
C84 C86 1.369 . S
C84 H112 0.930 . S
C85 C87 1.383 . S
C85 C88 1.382 . S
C85 H113 0.930 . S
C86 C84 1.369 . S
C86 C88 1.392 . S
C86 H114 0.930 . S
C87 C83 1.373 . S
C87 C85 1.383 . S
C87 H115 0.931 . S
C88 C85 1.382 . S
C88 C86 1.392 . S
C89 Eu80 2.828 . S
C89 C83 1.505 . S
C89 O101 1.249 . S
C89 O102 1.244 . S
O90 Eu81 2.373 . S
O90 C92 1.258 . S
O91 Eu80 2.392 . S
O91 C92 1.242 . S
C92 O90 1.258 . S
C92 O91 1.242 . S
O93 Eu80 2.418 . S
O93 C97 1.244 . S
O94 Eu81 2.488 . S
O94 C110 1.249 . S
O95 Eu81 2.471 . S
O95 C110 1.244 . S
O96 Eu81 2.349 . S
O96 C97 1.265 . S
C97 O93 1.244 . S
C97 O96 1.265 . S
O98 Eu80 2.373 . S
O98 C111 1.258 . S
O99 Eu81 2.392 . S
O99 C111 1.242 . S
O100 Eu81 2.418 . S
O100 C82 1.244 . S
O101 Eu80 2.488 . S
O101 C89 1.249 . S
O102 Eu80 2.471 . S
O102 C89 1.244 . S
O103 Eu80 2.349 . S
O103 C82 1.265 . S
C104 C105 1.379 . S
C104 C108 1.373 . S
C104 C110 1.505 . S
C105 C104 1.379 . S
C105 C107 1.369 . S
C105 H116 0.930 . S
C106 C108 1.383 . S
C106 C109 1.382 . S
C106 H117 0.930 . S
C107 C105 1.369 . S
C107 C109 1.392 . S
C107 H118 0.930 . S
C108 C104 1.373 . S
C108 C106 1.383 . S
C108 H119 0.931 . S
C109 C106 1.382 . S
C109 C107 1.392 . S
C110 Eu81 2.828 . S
C110 O94 1.249 . S
C110 O95 1.244 . S
C110 C104 1.505 . S
C111 O98 1.258 . S
C111 O99 1.242 . S
H112 C84 0.930 . S
H113 C85 0.930 . S
H114 C86 0.930 . S
H115 C87 0.931 . S
H116 C105 0.930 . S
H117 C106 0.930 . S
H118 C107 0.930 . S
H119 C108 0.931 . S
C120 C121 1.264 . S
C120 C125 1.479 . S
C120 C130 1.465 . S
C121 C120 1.264 . S
C121 C123 1.339 . S
C121 H148 0.931 . S
C122 C123 1.395 . S
C122 C124 1.320 . S
C123 C121 1.339 . S
C123 C122 1.395 . S
C123 H149 0.929 . S
C124 C122 1.320 . S
C124 C125 1.405 . S
C124 H150 0.930 . S
C125 C120 1.479 . S
C125 C124 1.405 . S
C125 H151 0.931 . S
U126 O127 2.454 1_545 S
U126 O128 2.458 1_545 S
U126 C129 2.984 1_545 S
U126 C130 2.847 . S
U126 C143 2.882 . S
U126 O144 2.441 . S
U126 O145 2.420 . S
U126 O146 2.455 . S
U126 O147 2.449 . S
O127 U126 2.454 1_565 S
O127 C129 1.353 . S
O128 U126 2.458 1_565 S
O128 C129 1.286 . S
C129 U126 2.984 1_565 S
C129 O127 1.353 . S
C129 O128 1.286 . S
C129 C131 1.363 . S
C130 C120 1.465 . S
C130 U126 2.847 . S
C130 O144 1.249 . S
C130 O145 1.202 . S
C131 C129 1.363 . S
C131 C133 1.408 . S
C131 C136 1.342 . S
C132 C133 1.310 . S
C132 C135 1.461 . S
C132 H152 0.932 . S
C133 C131 1.408 . S
C133 C132 1.310 . S
C133 H153 0.930 . S
C134 C135 1.474 . S
C134 C136 1.285 . S
C134 H154 0.929 . S
C135 C132 1.461 . S
C135 C134 1.474 . S
C136 C131 1.342 . S
C136 C134 1.285 . S
C136 H155 0.930 . S
C137 C140 1.424 . S
C137 C142 1.245 . S
C137 C143 1.428 . S
C138 C141 1.260 . S
C138 C142 1.477 . S
C138 H156 0.932 1_545 S
C139 C140 1.384 . S
C139 C141 1.479 . S
C139 H157 0.929 . S
C140 C137 1.424 . S
C140 C139 1.384 . S
C140 H158 0.928 . S
C141 C138 1.260 . S
C141 C139 1.479 . S
C142 C137 1.245 . S
C142 C138 1.477 . S
C142 H159 0.932 1_545 S
C143 U126 2.882 . S
C143 C137 1.428 . S
C143 O146 1.301 . S
C143 O147 1.282 . S
O144 U126 2.441 . S
O144 C130 1.249 . S
O145 U126 2.420 . S
O145 C130 1.202 . S
O146 U126 2.455 . S
O146 C143 1.301 . S
O147 U126 2.449 . S
O147 C143 1.282 . S
H148 C121 0.931 . S
H149 C123 0.929 . S
H150 C124 0.930 . S
H151 C125 0.931 . S
H152 C132 0.932 . S
H153 C133 0.930 . S
H154 C134 0.929 . S
H155 C136 0.930 . S
H156 C138 0.932 1_565 S
H157 C139 0.929 . S
H158 C140 0.928 . S
H159 C142 0.932 1_565 S
C160 C161 1.264 . S
C160 C165 1.479 . S
C160 C170 1.465 . S
C161 C160 1.264 . S
C161 C163 1.339 . S
C161 H188 0.931 . S
C162 C163 1.395 . S
C162 C164 1.320 . S
C163 C161 1.339 . S
C163 C162 1.395 . S
C163 H189 0.929 . S
C164 C162 1.320 . S
C164 C165 1.405 . S
C164 H190 0.930 . S
C165 C160 1.479 . S
C165 C164 1.405 . S
C165 H191 0.931 . S
U166 O167 2.454 . S
U166 O168 2.458 . S
U166 C169 2.984 . S
U166 C170 2.847 . S
U166 C183 2.882 . S
U166 O184 2.441 . S
U166 O185 2.420 . S
U166 O186 2.455 . S
U166 O187 2.449 . S
O167 U166 2.454 . S
O167 C169 1.353 . S
O168 U166 2.458 . S
O168 C169 1.286 . S
C169 U166 2.984 . S
C169 O167 1.353 . S
C169 O168 1.286 . S
C169 C171 1.363 . S
C170 C160 1.465 . S
C170 U166 2.847 . S
C170 O184 1.249 . S
C170 O185 1.202 . S
C171 C169 1.363 . S
C171 C173 1.408 . S
C171 C176 1.342 . S
C172 C173 1.310 . S
C172 C175 1.461 . S
C172 H192 0.932 . S
C173 C171 1.408 . S
C173 C172 1.310 . S
C173 H193 0.930 . S
C174 C175 1.474 . S
C174 C176 1.285 . S
C174 H194 0.929 . S
C175 C172 1.461 . S
C175 C174 1.474 . S
C176 C171 1.342 . S
C176 C174 1.285 . S
C176 H195 0.930 . S
C177 C180 1.424 . S
C177 C182 1.245 . S
C177 C183 1.428 . S
C178 C181 1.260 . S
C178 C182 1.477 . S
C178 H196 0.932 . S
C179 C180 1.384 . S
C179 C181 1.479 . S
C179 H197 0.929 . S
C180 C177 1.424 . S
C180 C179 1.384 . S
C180 H198 0.928 . S
C181 C178 1.260 . S
C181 C179 1.479 . S
C182 C177 1.245 . S
C182 C178 1.477 . S
C182 H199 0.932 . S
C183 U166 2.882 . S
C183 C177 1.428 . S
C183 O186 1.301 . S
C183 O187 1.282 . S
O184 U166 2.441 . S
O184 C170 1.249 . S
O185 U166 2.420 . S
O185 C170 1.202 . S
O186 U166 2.455 . S
O186 C183 1.301 . S
O187 U166 2.449 . S
O187 C183 1.282 . S
H188 C161 0.931 . S
H189 C163 0.929 . S
H190 C164 0.930 . S
H191 C165 0.931 . S
H192 C172 0.932 . S
H193 C173 0.930 . S
H194 C174 0.929 . S
H195 C176 0.930 . S
H196 C178 0.932 . S
H197 C179 0.929 . S
H198 C180 0.928 . S
H199 C182 0.932 . S
C200 C201 1.264 . S
C200 C205 1.479 . S
C200 C210 1.465 . S
C201 C200 1.264 . S
C201 C203 1.339 . S
C201 H228 0.931 . S
C202 C203 1.395 . S
C202 C204 1.320 . S
C203 C201 1.339 . S
C203 C202 1.395 . S
C203 H229 0.929 . S
C204 C202 1.320 . S
C204 C205 1.405 . S
C204 H230 0.930 . S
C205 C200 1.479 . S
C205 C204 1.405 . S
C205 H231 0.931 . S
U206 O207 2.454 . S
U206 O208 2.458 . S
U206 C209 2.984 . S
U206 C210 2.847 1_455 S
U206 C223 2.882 . S
U206 O224 2.441 1_455 S
U206 O225 2.420 1_455 S
U206 O226 2.455 . S
U206 O227 2.449 1_455 S
O207 U206 2.454 . S
O207 C209 1.353 . S
O208 U206 2.458 . S
O208 C209 1.286 . S
C209 U206 2.984 . S
C209 O207 1.353 . S
C209 O208 1.286 . S
C209 C211 1.363 . S
C210 C200 1.465 . S
C210 U206 2.847 1_655 S
C210 O224 1.249 . S
C210 O225 1.202 . S
C211 C209 1.363 . S
C211 C213 1.408 . S
C211 C216 1.342 . S
C212 C213 1.310 . S
C212 C215 1.461 . S
C212 H232 0.932 . S
C213 C211 1.408 . S
C213 C212 1.310 . S
C213 H233 0.930 . S
C214 C215 1.474 . S
C214 C216 1.285 . S
C214 H234 0.929 . S
C215 C212 1.461 . S
C215 C214 1.474 . S
C216 C211 1.342 . S
C216 C214 1.285 . S
C216 H235 0.930 . S
C217 C220 1.424 1_455 S
C217 C222 1.272 . S
C217 C223 1.428 . S
C218 C221 1.260 . S
C218 C222 1.428 1_554 S
C218 H236 0.932 . S
C219 C220 1.384 1_554 S
C219 C221 1.479 1_655 S
C219 H237 0.929 . S
C220 C217 1.424 1_655 S
C220 C219 1.384 1_556 S
C220 H238 0.928 . S
C221 C218 1.260 . S
C221 C219 1.479 1_455 S
C222 C217 1.272 . S
C222 C218 1.428 1_556 S
C222 H239 0.954 . S
C223 U206 2.882 . S
C223 C217 1.428 . S
C223 O226 1.301 . S
C223 O227 1.282 1_455 S
O224 U206 2.441 1_655 S
O224 C210 1.249 . S
O225 U206 2.420 1_655 S
O225 C210 1.202 . S
O226 U206 2.455 . S
O226 C223 1.301 . S
O227 U206 2.449 1_655 S
O227 C223 1.282 1_655 S
H228 C201 0.931 . S
H229 C203 0.929 . S
H230 C204 0.930 . S
H231 C205 0.931 . S
H232 C212 0.932 . S
H233 C213 0.930 . S
H234 C214 0.929 . S
H235 C216 0.930 . S
H236 C218 0.932 . S
H237 C219 0.929 . S
H238 C220 0.928 . S
H239 C222 0.954 . S
C240 C241 1.264 . S
C240 C245 1.479 . S
C240 C250 1.465 . S
C241 C240 1.264 . S
C241 C243 1.339 . S
C241 H268 0.931 . S
C242 C243 1.395 . S
C242 C244 1.320 . S
C243 C241 1.339 . S
C243 C242 1.395 . S
C243 H269 0.929 . S
C244 C242 1.320 . S
C244 C245 1.405 . S
C244 H270 0.930 . S
C245 C240 1.479 . S
C245 C244 1.405 . S
C245 H271 0.931 . S
U246 O247 2.454 . S
U246 O248 2.458 . S
U246 C249 2.984 . S
U246 C250 2.847 1_455 S
U246 C263 2.882 . S
U246 O264 2.441 1_455 S
U246 O265 2.420 1_455 S
U246 O266 2.455 . S
U246 O267 2.449 1_455 S
O247 U246 2.454 . S
O247 C249 1.353 . S
O248 U246 2.458 . S
O248 C249 1.286 . S
C249 U246 2.984 . S
C249 O247 1.353 . S
C249 O248 1.286 . S
C249 C251 1.363 . S
C250 C240 1.465 . S
C250 U246 2.847 1_655 S
C250 O264 1.249 . S
C250 O265 1.202 . S
C251 C249 1.363 . S
C251 C253 1.408 . S
C251 C256 1.342 . S
C252 C253 1.310 . S
C252 C255 1.461 . S
C252 H272 0.932 . S
C253 C251 1.408 . S
C253 C252 1.310 . S
C253 H273 0.930 . S
C254 C255 1.474 . S
C254 C256 1.285 . S
C254 H274 0.929 . S
C255 C252 1.461 . S
C255 C254 1.474 . S
C256 C251 1.342 . S
C256 C254 1.285 . S
C256 H275 0.930 . S
C257 C260 1.424 1_455 S
C257 C262 1.245 . S
C257 C263 1.428 . S
C258 C261 1.260 . S
C258 C262 1.477 . S
C258 H276 0.932 . S
C259 C260 1.384 . S
C259 C261 1.479 1_655 S
C259 H277 0.929 . S
C260 C257 1.424 1_655 S
C260 C259 1.384 . S
C260 H278 0.928 . S
C261 C258 1.260 . S
C261 C259 1.479 1_455 S
C262 C257 1.245 . S
C262 C258 1.477 . S
C262 H279 0.932 . S
C263 U246 2.882 . S
C263 C257 1.428 . S
C263 O266 1.301 . S
C263 O267 1.282 1_455 S
O264 U246 2.441 1_655 S
O264 C250 1.249 . S
O265 U246 2.420 1_655 S
O265 C250 1.202 . S
O266 U246 2.455 . S
O266 C263 1.301 . S
O267 U246 2.449 1_655 S
O267 C263 1.282 1_655 S
H268 C241 0.931 . S
H269 C243 0.929 . S
H270 C244 0.930 . S
H271 C245 0.931 . S
H272 C252 0.932 . S
H273 C253 0.930 . S
H274 C254 0.929 . S
H275 C256 0.930 . S
H276 C258 0.932 . S
H277 C259 0.929 . S
H278 C260 0.928 . S
H279 C262 0.932 . S
C280 C281 1.264 . S
C280 C285 1.479 . S
C280 C290 1.465 . S
C281 C280 1.264 . S
C281 C283 1.339 . S
C281 H308 0.931 . S
C282 C283 1.395 . S
C282 C284 1.320 . S
C283 C281 1.339 . S
C283 C282 1.395 . S
C283 H309 0.929 . S
C284 C282 1.320 . S
C284 C285 1.405 . S
C284 H310 0.930 . S
C285 C280 1.479 . S
C285 C284 1.405 . S
C285 H311 0.931 . S
U286 O287 2.454 . S
U286 O288 2.458 . S
U286 C289 2.984 . S
U286 C290 2.847 1_545 S
U286 C303 2.882 1_545 S
U286 O304 2.441 1_545 S
U286 O305 2.420 1_545 S
U286 O306 2.455 . S
U286 O307 2.449 1_545 S
O287 U286 2.454 . S
O287 C289 1.353 . S
O288 U286 2.458 . S
O288 C289 1.286 . S
C289 U286 2.984 . S
C289 O287 1.353 . S
C289 O288 1.286 . S
C289 C291 1.363 . S
C290 C280 1.465 . S
C290 U286 2.847 1_565 S
C290 O304 1.249 . S
C290 O305 1.202 . S
C291 C289 1.363 . S
C291 C293 1.408 . S
C291 C296 1.342 . S
C292 C293 1.310 . S
C292 C295 1.461 . S
C292 H312 0.932 . S
C293 C291 1.408 . S
C293 C292 1.310 . S
C293 H313 0.930 . S
C294 C295 1.474 . S
C294 C296 1.285 . S
C294 H314 0.929 . S
C295 C292 1.461 . S
C295 C294 1.474 . S
C296 C291 1.342 . S
C296 C294 1.285 . S
C296 H315 0.930 . S
C297 C300 1.424 . S
C297 C302 1.245 1_565 S
C297 C303 1.428 . S
C298 C301 1.260 . S
C298 C302 1.477 . S
C298 H316 0.932 . S
C299 C300 1.384 . S
C299 C301 1.479 1_565 S
C299 H317 0.929 . S
C300 C297 1.424 . S
C300 C299 1.384 . S
C300 H318 0.928 . S
C301 C298 1.260 . S
C301 C299 1.479 1_545 S
C302 C297 1.245 1_545 S
C302 C298 1.477 . S
C302 H319 0.932 . S
C303 U286 2.882 1_565 S
C303 C297 1.428 . S
C303 O306 1.301 1_565 S
C303 O307 1.282 . S
O304 U286 2.441 1_565 S
O304 C290 1.249 . S
O305 U286 2.420 1_565 S
O305 C290 1.202 . S
O306 U286 2.455 . S
O306 C303 1.301 1_545 S
O307 U286 2.449 1_565 S
O307 C303 1.282 . S
H308 C281 0.931 . S
H309 C283 0.929 . S
H310 C284 0.930 . S
H311 C285 0.931 . S
H312 C292 0.932 . S
H313 C293 0.930 . S
H314 C294 0.929 . S
H315 C296 0.930 . S
H316 C298 0.932 . S
H317 C299 0.929 . S
H318 C300 0.928 . S
H319 C302 0.932 . S
C320 C321 1.264 . S
C320 C325 1.479 . S
C320 C330 1.465 . S
C321 C320 1.264 . S
C321 C323 1.339 . S
C321 H348 0.931 . S
C322 C323 1.395 . S
C322 C324 1.320 . S
C323 C321 1.339 . S
C323 C322 1.395 . S
C323 H349 0.929 . S
C324 C322 1.320 . S
C324 C325 1.405 . S
C324 H350 0.930 . S
C325 C320 1.479 . S
C325 C324 1.405 . S
C325 H351 0.931 . S
U326 O327 2.454 . S
U326 O328 2.458 . S
U326 C329 2.984 . S
U326 C330 2.847 . S
U326 C343 2.882 . S
U326 O344 2.441 . S
U326 O345 2.420 . S
U326 O346 2.455 . S
U326 O347 2.449 . S
O327 U326 2.454 . S
O327 C329 1.353 . S
O328 U326 2.458 . S
O328 C329 1.286 . S
C329 U326 2.984 . S
C329 O327 1.353 . S
C329 O328 1.286 . S
C329 C331 1.363 . S
C330 C320 1.465 . S
C330 U326 2.847 . S
C330 O344 1.249 . S
C330 O345 1.202 . S
C331 C329 1.363 . S
C331 C333 1.408 . S
C331 C336 1.342 . S
C332 C333 1.310 . S
C332 C335 1.461 . S
C332 H352 0.932 . S
C333 C331 1.408 . S
C333 C332 1.310 . S
C333 H353 0.930 . S
C334 C335 1.474 . S
C334 C336 1.285 . S
C334 H354 0.929 . S
C335 C332 1.461 . S
C335 C334 1.474 . S
C336 C331 1.342 . S
C336 C334 1.285 . S
C336 H355 0.930 . S
C337 C340 1.424 . S
C337 C342 1.245 . S
C337 C343 1.428 . S
C338 C341 1.260 . S
C338 C342 1.477 1_556 S
C338 H356 0.932 . S
C339 C340 1.384 . S
C339 C341 1.479 1_554 S
C339 H357 0.929 1_554 S
C340 C337 1.424 . S
C340 C339 1.384 . S
C340 H358 0.928 . S
C341 C338 1.260 . S
C341 C339 1.479 1_556 S
C342 C337 1.245 . S
C342 C338 1.477 1_554 S
C342 H359 0.932 . S
C343 U326 2.882 . S
C343 C337 1.428 . S
C343 O346 1.301 . S
C343 O347 1.282 . S
O344 U326 2.441 . S
O344 C330 1.249 . S
O345 U326 2.420 . S
O345 C330 1.202 . S
O346 U326 2.455 . S
O346 C343 1.301 . S
O347 U326 2.449 . S
O347 C343 1.282 . S
H348 C321 0.931 . S
H349 C323 0.929 . S
H350 C324 0.930 . S
H351 C325 0.931 . S
H352 C332 0.932 . S
H353 C333 0.930 . S
H354 C334 0.929 . S
H355 C336 0.930 . S
H356 C338 0.932 . S
H357 C339 0.929 1_556 S
H358 C340 0.928 . S
H359 C342 0.932 . S
C360 C361 1.387 . S
C360 H364 0.950 . S
C360 C369 1.390 . S
C361 C360 1.387 . S
C361 C363 1.387 . S
H362 C369 0.950 . S
C363 C361 1.387 . S
C363 C365 1.390 . S
C363 H367 0.950 . S
H364 C360 0.950 . S
C365 C363 1.390 . S
C365 C366 1.387 . S
C365 H368 0.950 . S
C366 C365 1.387 . S
C366 C369 1.387 . S
H367 C363 0.950 . S
H368 C365 0.950 . S
C369 C360 1.390 . S
C369 H362 0.950 . S
C369 C366 1.387 . S
C370 C371 1.387 . S
C370 H374 0.950 . S
C370 C379 1.390 . S
C371 C370 1.387 . S
C371 C373 1.387 . S
H372 C379 0.950 . S
C373 C371 1.387 . S
C373 C375 1.390 . S
C373 H377 0.950 . S
H374 C370 0.950 . S
C375 C373 1.390 . S
C375 C376 1.387 . S
C375 H378 0.950 . S
C376 C375 1.387 . S
C376 C379 1.387 . S
H377 C373 0.950 . S
H378 C375 0.950 . S
C379 C370 1.390 . S
C379 H372 0.950 . S
C379 C376 1.387 . S
C380 C381 1.387 . S
C380 H384 0.950 . S
C380 C389 1.390 . S
C381 C380 1.387 . S
C381 C383 1.387 . S
H382 C389 0.950 . S
C383 C381 1.387 . S
C383 C385 1.390 . S
C383 H387 0.950 . S
H384 C380 0.950 . S
C385 C383 1.390 . S
C385 C386 1.387 . S
C385 H388 0.950 . S
C386 C385 1.387 . S
C386 C389 1.387 . S
H387 C383 0.950 . S
H388 C385 0.950 . S
C389 C380 1.390 . S
C389 H382 0.950 . S
C389 C386 1.387 . S
C390 C391 1.387 . S
C390 H394 0.950 . S
C390 C399 1.390 . S
C391 C390 1.387 . S
C391 C393 1.387 . S
H392 C399 0.950 . S
C393 C391 1.387 . S
C393 C395 1.390 . S
C393 H397 0.950 . S
H394 C390 0.950 . S
C395 C393 1.390 . S
C395 C396 1.387 . S
C395 H398 0.950 . S
C396 C395 1.387 . S
C396 C399 1.387 . S
H397 C393 0.950 . S
H398 C395 0.950 . S
C399 C390 1.390 . S
C399 H392 0.950 . S
C399 C396 1.387 . S
C400 C401 1.387 . S
C400 H404 0.950 . S
C400 C409 1.390 . S
C401 C400 1.387 . S
C401 C403 1.387 . S
H402 C409 0.950 . S
C403 C401 1.387 . S
C403 C405 1.390 . S
C403 H407 0.950 . S
H404 C400 0.950 . S
C405 C403 1.390 . S
C405 C406 1.387 . S
C405 H408 0.950 . S
C406 C405 1.387 . S
C406 C409 1.387 . S
H407 C403 0.950 . S
H408 C405 0.950 . S
C409 C400 1.390 . S
C409 H402 0.950 . S
C409 C406 1.387 . S
C410 C411 1.387 . S
C410 H414 0.950 . S
C410 C419 1.390 . S
C411 C410 1.387 . S
C411 C413 1.387 . S
H412 C419 0.950 . S
C413 C411 1.387 . S
C413 C415 1.390 . S
C413 H417 0.950 . S
H414 C410 0.950 . S
C415 C413 1.390 . S
C415 C416 1.387 . S
C415 H418 0.950 . S
C416 C415 1.387 . S
C416 C419 1.387 . S
H417 C413 0.950 . S
H418 C415 0.950 . S
C419 C410 1.390 . S
C419 H412 0.950 . S
C419 C416 1.387 . S
C420 C421 1.387 . S
C420 H424 0.950 . S
C420 C429 1.390 . S
C421 C420 1.387 . S
C421 C423 1.387 . S
H422 C429 0.950 . S
C423 C421 1.387 . S
C423 C425 1.390 . S
C423 H427 0.950 . S
H424 C420 0.950 . S
C425 C423 1.390 . S
C425 C426 1.387 . S
C425 H428 0.950 . S
C426 C425 1.387 . S
C426 C429 1.387 . S
H427 C423 0.950 . S
H428 C425 0.950 . S
C429 C420 1.390 . S
C429 H422 0.950 . S
C429 C426 1.387 . S
C430 C431 1.387 . S
C430 H434 0.950 . S
C430 C439 1.390 . S
C431 C430 1.387 . S
C431 C433 1.387 . S
H432 C439 0.950 . S
C433 C431 1.387 . S
C433 C435 1.390 . S
C433 H437 0.950 . S
H434 C430 0.950 . S
C435 C433 1.390 . S
C435 C436 1.387 . S
C435 H438 0.950 . S
C436 C435 1.387 . S
C436 C439 1.387 . S
H437 C433 0.950 . S
H438 C435 0.950 . S
C439 C430 1.390 . S
C439 H432 0.950 . S
C439 C436 1.387 . S
C440 C441 1.387 . S
C440 H444 0.950 . S
C440 C449 1.390 . S
C441 C440 1.387 . S
C441 C443 1.387 . S
H442 C449 0.950 . S
C443 C441 1.387 . S
C443 C445 1.390 . S
C443 H447 0.950 . S
H444 C440 0.950 . S
C445 C443 1.390 . S
C445 C446 1.387 . S
C445 H448 0.950 . S
C446 C445 1.387 . S
C446 C449 1.387 . S
H447 C443 0.950 . S
H448 C445 0.950 . S
C449 C440 1.390 . S
C449 H442 0.950 . S
C449 C446 1.387 . S
C450 C451 1.387 . S
C450 H454 0.950 . S
C450 C459 1.390 . S
C451 C450 1.387 . S
C451 C453 1.387 . S
H452 C459 0.950 . S
C453 C451 1.387 . S
C453 C455 1.390 . S
C453 H457 0.950 . S
H454 C450 0.950 . S
C455 C453 1.390 . S
C455 C456 1.387 . S
C455 H458 0.950 . S
C456 C455 1.387 . S
C456 C459 1.387 . S
H457 C453 0.950 . S
H458 C455 0.950 . S
C459 C450 1.390 . S
C459 H452 0.950 . S
C459 C456 1.387 . S
C460 C461 1.387 . S
C460 H464 0.950 . S
C460 C469 1.390 . S
C461 C460 1.387 . S
C461 C463 1.387 . S
H462 C469 0.950 . S
C463 C461 1.387 . S
C463 C465 1.390 . S
C463 H467 0.950 . S
H464 C460 0.950 . S
C465 C463 1.390 . S
C465 C466 1.387 . S
C465 H468 0.950 . S
C466 C465 1.387 . S
C466 C469 1.387 . S
H467 C463 0.950 . S
H468 C465 0.950 . S
C469 C460 1.390 . S
C469 H462 0.950 . S
C469 C466 1.387 . S
C470 C471 1.387 . S
C470 H474 0.950 . S
C470 C479 1.390 . S
C471 C470 1.387 . S
C471 C473 1.387 . S
H472 C479 0.950 . S
C473 C471 1.387 . S
C473 C475 1.390 . S
C473 H477 0.950 . S
H474 C470 0.950 . S
C475 C473 1.390 . S
C475 C476 1.387 . S
C475 H478 0.950 . S
C476 C475 1.387 . S
C476 C479 1.387 . S
H477 C473 0.950 . S
H478 C475 0.950 . S
C479 C470 1.390 . S
C479 H472 0.950 . S
C479 C476 1.387 . S
C480 C481 1.387 1_655 S
C480 H484 0.950 . S
C480 C489 1.390 . S
C481 C480 1.387 1_455 S
C481 C483 1.387 . S
H482 C489 0.950 . S
C483 C481 1.387 . S
C483 C485 1.390 . S
C483 H487 0.950 . S
H484 C480 0.950 . S
C485 C483 1.390 . S
C485 C486 1.387 . S
C485 H488 0.950 . S
C486 C485 1.387 . S
C486 C489 1.387 1_455 S
H487 C483 0.950 . S
H488 C485 0.950 . S
C489 C480 1.390 . S
C489 H482 0.950 . S
C489 C486 1.387 1_655 S
C490 C491 1.387 1_565 S
C490 H494 0.950 . S
C490 C499 1.390 . S
C491 C490 1.387 1_545 S
C491 C493 1.387 . S
H492 C499 0.950 . S
C493 C491 1.387 . S
C493 C495 1.390 . S
C493 H497 0.950 . S
H494 C490 0.950 . S
C495 C493 1.390 . S
C495 C496 1.387 . S
C495 H498 0.950 . S
C496 C495 1.387 . S
C496 C499 1.387 1_545 S
H497 C493 0.950 . S
H498 C495 0.950 . S
C499 C490 1.390 . S
C499 H492 0.950 . S
C499 C496 1.387 1_565 S
C500 C501 1.387 . S
C500 H504 0.950 . S
C500 C509 1.390 . S
C501 C500 1.387 . S
C501 C503 1.387 . S
H502 C509 0.950 . S
C503 C501 1.387 . S
C503 C505 1.390 . S
C503 H507 0.950 . S
H504 C500 0.950 . S
C505 C503 1.390 . S
C505 C506 1.387 . S
C505 H508 0.950 . S
C506 C505 1.387 . S
C506 C509 1.387 . S
H507 C503 0.950 . S
H508 C505 0.950 . S
C509 C500 1.390 . S
C509 H502 0.950 . S
C509 C506 1.387 . S
C510 C511 1.387 1_565 S
C510 H514 0.950 . S
C510 C519 1.390 . S
C511 C510 1.387 1_545 S
C511 C513 1.387 . S
H512 C519 0.950 . S
C513 C511 1.387 . S
C513 C515 1.390 . S
C513 H517 0.950 . S
H514 C510 0.950 . S
C515 C513 1.390 . S
C515 C516 1.387 . S
C515 H518 0.950 . S
C516 C515 1.387 . S
C516 C519 1.387 1_545 S
H517 C513 0.950 . S
H518 C515 0.950 . S
C519 C510 1.390 . S
C519 H512 0.950 . S
C519 C516 1.387 1_565 S
C520 C521 1.387 . S
C520 H524 0.950 . S
C520 C529 1.390 . S
C521 C520 1.387 . S
C521 C523 1.387 . S
H522 C529 0.950 . S
C523 C521 1.387 . S
C523 C525 1.390 . S
C523 H527 0.950 . S
H524 C520 0.950 . S
C525 C523 1.390 . S
C525 C526 1.387 . S
C525 H528 0.950 . S
C526 C525 1.387 . S
C526 C529 1.387 . S
H527 C523 0.950 . S
H528 C525 0.950 . S
C529 C520 1.390 . S
C529 H522 0.950 . S
C529 C526 1.387 . S
C530 C531 1.387 1_655 S
C530 H534 0.950 . S
C530 C539 1.390 . S
C531 C530 1.387 1_455 S
C531 C533 1.388 . S
H532 C539 0.950 . S
C533 C531 1.388 . S
C533 C535 1.390 . S
C533 H537 0.950 . S
H534 C530 0.950 . S
C535 C533 1.390 . S
C535 C536 1.387 . S
C535 H538 0.950 . S
C536 C535 1.387 . S
C536 C539 1.387 1_455 S
H537 C533 0.950 . S
H538 C535 0.950 . S
C539 C530 1.390 . S
C539 H532 0.950 . S
C539 C536 1.387 1_655 S
C361 C12 3.114 . S
C366 C335 3.027 . S
C371 C52 3.093 . S
C376 C242 3.032 . S
C381 C111 3.149 . S
C386 C282 3.082 . S
C391 C31 3.294 . S
C396 C322 3.217 . S
C406 C255 3.209 . S
C401 C71 3.316 . S
C416 C295 3.155 . S
C411 C92 3.258 . S
C421 C48 0.684 . S
C426 C162 0.683 . S
C431 C109 0.697 . S
C436 C202 0.684 . S
C441 C29 0.685 . S
C446 C135 0.640 . S
C456 C175 0.502 . S
C451 C69 0.552 . S
C466 C215 0.440 . S
C461 C88 0.415 . S
C471 C8 0.398 . S
C476 C122 0.354 . S
C486 C221 1.059 . S
C481 C17 1.082 1_455 S
C491 C57 1.084 . S
C496 C141 1.090 . S
C501 C97 1.083 . S
C506 C181 1.062 . S
C516 C301 1.797 . S
C511 C42 1.735 . S
C526 C341 1.784 . S
C521 C82 1.747 . S
C531 C2 1.755 . S
C536 C261 1.791 . S
