# Generated by pormake.
# Topology gar, (4,6)-cn, num edge types: 1
# Building blocks:
#     Node 0, Type 0, BuildingBlock: UXUYUI_clean_sbu_0, # of connection points: 4
#     Node 1, Type 0, BuildingBlock: UXUYUI_clean_sbu_0, # of connection points: 4
#     Node 2, Type 0, BuildingBlock: UXUYUI_clean_sbu_0, # of connection points: 4
#     Node 3, Type 0, BuildingBlock: UXUYUI_clean_sbu_0, # of connection points: 4
#     Node 4, Type 0, BuildingBlock: UXUYUI_clean_sbu_0, # of connection points: 4
#     Node 5, Type 0, BuildingBlock: UXUYUI_clean_sbu_0, # of connection points: 4
#     Node 6, Type 0, BuildingBlock: UXUYUI_clean_sbu_0, # of connection points: 4
#     Node 7, Type 0, BuildingBlock: UXUYUI_clean_sbu_0, # of connection points: 4
#     Node 8, Type 0, BuildingBlock: UXUYUI_clean_sbu_0, # of connection points: 4
#     Node 9, Type 0, BuildingBlock: UXUYUI_clean_sbu_0, # of connection points: 4
#     Node 10, Type 0, BuildingBlock: UXUYUI_clean_sbu_0, # of connection points: 4
#     Node 11, Type 0, BuildingBlock: UXUYUI_clean_sbu_0, # of connection points: 4
#     Node 12, Type 0, BuildingBlock: UXUYUI_clean_sbu_0, # of connection points: 4
#     Node 13, Type 0, BuildingBlock: UXUYUI_clean_sbu_0, # of connection points: 4
#     Node 14, Type 0, BuildingBlock: UXUYUI_clean_sbu_0, # of connection points: 4
#     Node 15, Type 0, BuildingBlock: UXUYUI_clean_sbu_0, # of connection points: 4
#     Node 16, Type 0, BuildingBlock: UXUYUI_clean_sbu_0, # of connection points: 4
#     Node 17, Type 0, BuildingBlock: UXUYUI_clean_sbu_0, # of connection points: 4
#     Node 18, Type 0, BuildingBlock: UXUYUI_clean_sbu_0, # of connection points: 4
#     Node 19, Type 0, BuildingBlock: UXUYUI_clean_sbu_0, # of connection points: 4
#     Node 20, Type 0, BuildingBlock: UXUYUI_clean_sbu_0, # of connection points: 4
#     Node 21, Type 0, BuildingBlock: UXUYUI_clean_sbu_0, # of connection points: 4
#     Node 22, Type 0, BuildingBlock: UXUYUI_clean_sbu_0, # of connection points: 4
#     Node 23, Type 0, BuildingBlock: UXUYUI_clean_sbu_0, # of connection points: 4
#     Node 24, Type 1, BuildingBlock: KUMBUR_clean_sbu_1, # of connection points: 6
#     Node 25, Type 1, BuildingBlock: KUMBUR_clean_sbu_1, # of connection points: 6
#     Node 26, Type 1, BuildingBlock: KUMBUR_clean_sbu_1, # of connection points: 6
#     Node 27, Type 1, BuildingBlock: KUMBUR_clean_sbu_1, # of connection points: 6
#     Node 28, Type 1, BuildingBlock: KUMBUR_clean_sbu_1, # of connection points: 6
#     Node 29, Type 1, BuildingBlock: KUMBUR_clean_sbu_1, # of connection points: 6
#     Node 30, Type 1, BuildingBlock: KUMBUR_clean_sbu_1, # of connection points: 6
#     Node 31, Type 1, BuildingBlock: KUMBUR_clean_sbu_1, # of connection points: 6
#     Node 32, Type 1, BuildingBlock: KUMBUR_clean_sbu_1, # of connection points: 6
#     Node 33, Type 1, BuildingBlock: KUMBUR_clean_sbu_1, # of connection points: 6
#     Node 34, Type 1, BuildingBlock: KUMBUR_clean_sbu_1, # of connection points: 6
#     Node 35, Type 1, BuildingBlock: KUMBUR_clean_sbu_1, # of connection points: 6
#     Node 36, Type 1, BuildingBlock: KUMBUR_clean_sbu_1, # of connection points: 6
#     Node 37, Type 1, BuildingBlock: KUMBUR_clean_sbu_1, # of connection points: 6
#     Node 38, Type 1, BuildingBlock: KUMBUR_clean_sbu_1, # of connection points: 6
#     Node 39, Type 1, BuildingBlock: KUMBUR_clean_sbu_1, # of connection points: 6
#     Edge 40, Type (0, 1), BuildingBlock: TEMPAE_clean_linker_10, # of connection points: 2
#     Edge 41, Type (0, 1), BuildingBlock: TEMPAE_clean_linker_10, # of connection points: 2
#     Edge 42, Type (0, 1), BuildingBlock: TEMPAE_clean_linker_10, # of connection points: 2
#     Edge 43, Type (0, 1), BuildingBlock: TEMPAE_clean_linker_10, # of connection points: 2
#     Edge 44, Type (0, 1), BuildingBlock: TEMPAE_clean_linker_10, # of connection points: 2
#     Edge 45, Type (0, 1), BuildingBlock: TEMPAE_clean_linker_10, # of connection points: 2
#     Edge 46, Type (0, 1), BuildingBlock: TEMPAE_clean_linker_10, # of connection points: 2
#     Edge 47, Type (0, 1), BuildingBlock: TEMPAE_clean_linker_10, # of connection points: 2
#     Edge 48, Type (0, 1), BuildingBlock: TEMPAE_clean_linker_10, # of connection points: 2
#     Edge 49, Type (0, 1), BuildingBlock: TEMPAE_clean_linker_10, # of connection points: 2
#     Edge 50, Type (0, 1), BuildingBlock: TEMPAE_clean_linker_10, # of connection points: 2
#     Edge 51, Type (0, 1), BuildingBlock: TEMPAE_clean_linker_10, # of connection points: 2
#     Edge 52, Type (0, 1), BuildingBlock: TEMPAE_clean_linker_10, # of connection points: 2
#     Edge 53, Type (0, 1), BuildingBlock: TEMPAE_clean_linker_10, # of connection points: 2
#     Edge 54, Type (0, 1), BuildingBlock: TEMPAE_clean_linker_10, # of connection points: 2
#     Edge 55, Type (0, 1), BuildingBlock: TEMPAE_clean_linker_10, # of connection points: 2
#     Edge 56, Type (0, 1), BuildingBlock: TEMPAE_clean_linker_10, # of connection points: 2
#     Edge 57, Type (0, 1), BuildingBlock: TEMPAE_clean_linker_10, # of connection points: 2
#     Edge 58, Type (0, 1), BuildingBlock: TEMPAE_clean_linker_10, # of connection points: 2
#     Edge 59, Type (0, 1), BuildingBlock: TEMPAE_clean_linker_10, # of connection points: 2
#     Edge 60, Type (0, 1), BuildingBlock: TEMPAE_clean_linker_10, # of connection points: 2
#     Edge 61, Type (0, 1), BuildingBlock: TEMPAE_clean_linker_10, # of connection points: 2
#     Edge 62, Type (0, 1), BuildingBlock: TEMPAE_clean_linker_10, # of connection points: 2
#     Edge 63, Type (0, 1), BuildingBlock: TEMPAE_clean_linker_10, # of connection points: 2
#     Edge 64, Type (0, 1), BuildingBlock: TEMPAE_clean_linker_10, # of connection points: 2
#     Edge 65, Type (0, 1), BuildingBlock: TEMPAE_clean_linker_10, # of connection points: 2
#     Edge 66, Type (0, 1), BuildingBlock: TEMPAE_clean_linker_10, # of connection points: 2
#     Edge 67, Type (0, 1), BuildingBlock: TEMPAE_clean_linker_10, # of connection points: 2
#     Edge 68, Type (0, 1), BuildingBlock: TEMPAE_clean_linker_10, # of connection points: 2
#     Edge 69, Type (0, 1), BuildingBlock: TEMPAE_clean_linker_10, # of connection points: 2
#     Edge 70, Type (0, 1), BuildingBlock: TEMPAE_clean_linker_10, # of connection points: 2
#     Edge 71, Type (0, 1), BuildingBlock: TEMPAE_clean_linker_10, # of connection points: 2
#     Edge 72, Type (0, 1), BuildingBlock: TEMPAE_clean_linker_10, # of connection points: 2
#     Edge 73, Type (0, 1), BuildingBlock: TEMPAE_clean_linker_10, # of connection points: 2
#     Edge 74, Type (0, 1), BuildingBlock: TEMPAE_clean_linker_10, # of connection points: 2
#     Edge 75, Type (0, 1), BuildingBlock: TEMPAE_clean_linker_10, # of connection points: 2
#     Edge 76, Type (0, 1), BuildingBlock: TEMPAE_clean_linker_10, # of connection points: 2
#     Edge 77, Type (0, 1), BuildingBlock: TEMPAE_clean_linker_10, # of connection points: 2
#     Edge 78, Type (0, 1), BuildingBlock: TEMPAE_clean_linker_10, # of connection points: 2
#     Edge 79, Type (0, 1), BuildingBlock: TEMPAE_clean_linker_10, # of connection points: 2
#     Edge 80, Type (0, 1), BuildingBlock: TEMPAE_clean_linker_10, # of connection points: 2
#     Edge 81, Type (0, 1), BuildingBlock: TEMPAE_clean_linker_10, # of connection points: 2
#     Edge 82, Type (0, 1), BuildingBlock: TEMPAE_clean_linker_10, # of connection points: 2
#     Edge 83, Type (0, 1), BuildingBlock: TEMPAE_clean_linker_10, # of connection points: 2
#     Edge 84, Type (0, 1), BuildingBlock: TEMPAE_clean_linker_10, # of connection points: 2
#     Edge 85, Type (0, 1), BuildingBlock: TEMPAE_clean_linker_10, # of connection points: 2
#     Edge 86, Type (0, 1), BuildingBlock: TEMPAE_clean_linker_10, # of connection points: 2
#     Edge 87, Type (0, 1), BuildingBlock: TEMPAE_clean_linker_10, # of connection points: 2
#     Edge 88, Type (0, 1), BuildingBlock: TEMPAE_clean_linker_10, # of connection points: 2
#     Edge 89, Type (0, 1), BuildingBlock: TEMPAE_clean_linker_10, # of connection points: 2
#     Edge 90, Type (0, 1), BuildingBlock: TEMPAE_clean_linker_10, # of connection points: 2
#     Edge 91, Type (0, 1), BuildingBlock: TEMPAE_clean_linker_10, # of connection points: 2
#     Edge 92, Type (0, 1), BuildingBlock: TEMPAE_clean_linker_10, # of connection points: 2
#     Edge 93, Type (0, 1), BuildingBlock: TEMPAE_clean_linker_10, # of connection points: 2
#     Edge 94, Type (0, 1), BuildingBlock: TEMPAE_clean_linker_10, # of connection points: 2
#     Edge 95, Type (0, 1), BuildingBlock: TEMPAE_clean_linker_10, # of connection points: 2
#     Edge 96, Type (0, 1), BuildingBlock: TEMPAE_clean_linker_10, # of connection points: 2
#     Edge 97, Type (0, 1), BuildingBlock: TEMPAE_clean_linker_10, # of connection points: 2
#     Edge 98, Type (0, 1), BuildingBlock: TEMPAE_clean_linker_10, # of connection points: 2
#     Edge 99, Type (0, 1), BuildingBlock: TEMPAE_clean_linker_10, # of connection points: 2
#     Edge 100, Type (0, 1), BuildingBlock: TEMPAE_clean_linker_10, # of connection points: 2
#     Edge 101, Type (0, 1), BuildingBlock: TEMPAE_clean_linker_10, # of connection points: 2
#     Edge 102, Type (0, 1), BuildingBlock: TEMPAE_clean_linker_10, # of connection points: 2
#     Edge 103, Type (0, 1), BuildingBlock: TEMPAE_clean_linker_10, # of connection points: 2
#     Edge 104, Type (0, 1), BuildingBlock: TEMPAE_clean_linker_10, # of connection points: 2
#     Edge 105, Type (0, 1), BuildingBlock: TEMPAE_clean_linker_10, # of connection points: 2
#     Edge 106, Type (0, 1), BuildingBlock: TEMPAE_clean_linker_10, # of connection points: 2
#     Edge 107, Type (0, 1), BuildingBlock: TEMPAE_clean_linker_10, # of connection points: 2
#     Edge 108, Type (0, 1), BuildingBlock: TEMPAE_clean_linker_10, # of connection points: 2
#     Edge 109, Type (0, 1), BuildingBlock: TEMPAE_clean_linker_10, # of connection points: 2
#     Edge 110, Type (0, 1), BuildingBlock: TEMPAE_clean_linker_10, # of connection points: 2
#     Edge 111, Type (0, 1), BuildingBlock: TEMPAE_clean_linker_10, # of connection points: 2
#     Edge 112, Type (0, 1), BuildingBlock: TEMPAE_clean_linker_10, # of connection points: 2
#     Edge 113, Type (0, 1), BuildingBlock: TEMPAE_clean_linker_10, # of connection points: 2
#     Edge 114, Type (0, 1), BuildingBlock: TEMPAE_clean_linker_10, # of connection points: 2
#     Edge 115, Type (0, 1), BuildingBlock: TEMPAE_clean_linker_10, # of connection points: 2
#     Edge 116, Type (0, 1), BuildingBlock: TEMPAE_clean_linker_10, # of connection points: 2
#     Edge 117, Type (0, 1), BuildingBlock: TEMPAE_clean_linker_10, # of connection points: 2
#     Edge 118, Type (0, 1), BuildingBlock: TEMPAE_clean_linker_10, # of connection points: 2
#     Edge 119, Type (0, 1), BuildingBlock: TEMPAE_clean_linker_10, # of connection points: 2
#     Edge 120, Type (0, 1), BuildingBlock: TEMPAE_clean_linker_10, # of connection points: 2
#     Edge 121, Type (0, 1), BuildingBlock: TEMPAE_clean_linker_10, # of connection points: 2
#     Edge 122, Type (0, 1), BuildingBlock: TEMPAE_clean_linker_10, # of connection points: 2
#     Edge 123, Type (0, 1), BuildingBlock: TEMPAE_clean_linker_10, # of connection points: 2
#     Edge 124, Type (0, 1), BuildingBlock: TEMPAE_clean_linker_10, # of connection points: 2
#     Edge 125, Type (0, 1), BuildingBlock: TEMPAE_clean_linker_10, # of connection points: 2
#     Edge 126, Type (0, 1), BuildingBlock: TEMPAE_clean_linker_10, # of connection points: 2
#     Edge 127, Type (0, 1), BuildingBlock: TEMPAE_clean_linker_10, # of connection points: 2
#     Edge 128, Type (0, 1), BuildingBlock: TEMPAE_clean_linker_10, # of connection points: 2
#     Edge 129, Type (0, 1), BuildingBlock: TEMPAE_clean_linker_10, # of connection points: 2
#     Edge 130, Type (0, 1), BuildingBlock: TEMPAE_clean_linker_10, # of connection points: 2
#     Edge 131, Type (0, 1), BuildingBlock: TEMPAE_clean_linker_10, # of connection points: 2
#     Edge 132, Type (0, 1), BuildingBlock: TEMPAE_clean_linker_10, # of connection points: 2
#     Edge 133, Type (0, 1), BuildingBlock: TEMPAE_clean_linker_10, # of connection points: 2
#     Edge 134, Type (0, 1), BuildingBlock: TEMPAE_clean_linker_10, # of connection points: 2
#     Edge 135, Type (0, 1), BuildingBlock: TEMPAE_clean_linker_10, # of connection points: 2
# Relax obj value: 0.086
# Max RMSD: 0.199
# Mean RMSD: 0.155
data_MOF--net-gar--node1-UXUYUI_clean_sbu_0--node2-KUMBUR_clean_sbu_1--edge1-TEMPAE_clean_linker_10
_symmetry_space_group_name_H-M    P1
_symmetry_Int_Tables_number       1
_symmetry_cell_setting            triclinic
loop_
_symmetry_equiv_pos_as_xyz
'x, y, z'
_cell_length_a     73.36671
_cell_length_b     73.331419
_cell_length_c     69.246988
_cell_angle_alpha  95.761229
_cell_angle_beta   95.767145
_cell_angle_gamma 100.67537
loop_
_atom_site_label
_atom_site_type_symbol
_atom_site_fract_x
_atom_site_fract_y
_atom_site_fract_z
_atom_type_partial_charge
Li0 Li 0.02644 0.30373 0.34675 0.0
Li1 Li 0.04784 0.32558 0.37432 0.0
Li2 Li 0.06333 0.30508 0.34852 0.0
Li3 Li 0.04473 0.29037 0.37415 0.0
C4 C 0.0434 0.33634 0.33085 0.0
N5 N 0.0341 0.35779 0.30221 0.0
C6 C 0.03594 0.35218 0.33567 0.0
C7 C 0.04628 0.33149 0.31152 0.0
C8 C 0.0313 0.36283 0.32097 0.0
C9 C 0.04143 0.34249 0.29723 0.0
C10 C 0.01512 0.30891 0.39046 0.0
C11 C 0.01244 0.31246 0.425 0.0
N12 N 0.99457 0.31487 0.42099 0.0
C13 C 0.99672 0.31141 0.38666 0.0
C14 C 0.02306 0.30943 0.40976 0.0
C15 C 0.98657 0.31442 0.40231 0.0
C16 C 0.98756 0.28522 0.33619 0.0
N17 N 1.00017 0.30034 0.33266 0.0
C18 C 0.97489 0.31191 0.31579 0.0
C19 C 0.99406 0.31347 0.32241 0.0
C20 C 0.96143 0.29673 0.31973 0.0
C21 C 0.96829 0.28315 0.32989 0.0
H22 H 0.99237 0.27498 0.34458 0.0
H23 H 1.00389 0.3256 0.31984 0.0
C24 C 0.06518 0.36056 0.40006 0.0
N25 N 0.04892 0.34975 0.39073 0.0
C26 C 0.06508 0.37733 0.41197 0.0
C27 C 0.03158 0.37159 0.40469 0.0
C28 C 0.03235 0.35521 0.39268 0.0
C29 C 0.04806 0.38299 0.41464 0.0
H30 H 0.07828 0.35616 0.39839 0.0
H31 H 0.01959 0.34685 0.38484 0.0
C32 C 0.03989 0.26948 0.32989 0.0
N33 N 0.03679 0.2421 0.29866 0.0
C34 C 0.0428 0.25166 0.33308 0.0
C35 C 0.03529 0.27337 0.31088 0.0
C36 C 0.04121 0.23801 0.31708 0.0
C37 C 0.03382 0.25933 0.29527 0.0
C38 C 0.08042 0.30768 0.39307 0.0
C39 C 0.09452 0.29785 0.38925 0.0
C40 C 0.07925 0.31493 0.41225 0.0
C41 C 0.10702 0.2951 0.40478 0.0
C42 C 0.09201 0.3119 0.42738 0.0
N43 N 0.1055 0.30211 0.42337 0.0
C44 C 0.10149 0.31799 0.33687 0.0
C45 C 0.09013 0.28569 0.32858 0.0
C46 C 0.11894 0.31629 0.33044 0.0
N47 N 0.08732 0.30281 0.33598 0.0
C48 C 0.10733 0.28338 0.32198 0.0
C49 C 0.12239 0.29873 0.32293 0.0
H50 H 0.09952 0.33152 0.3431 0.0
H51 H 0.07916 0.27355 0.32814 0.0
C52 C 0.02681 0.26358 0.39753 0.0
N53 N 0.04285 0.26931 0.38962 0.0
C54 C 0.02475 0.24799 0.40789 0.0
C55 C 0.05555 0.24401 0.4015 0.0
C56 C 0.05705 0.25975 0.39133 0.0
C57 C 0.03918 0.23781 0.40996 0.0
H58 H 0.01539 0.2709 0.39556 0.0
H59 H 0.06941 0.264 0.38435 0.0
O60 O 0.04801 0.32574 0.34501 0.0
O61 O 0.02529 0.30597 0.37534 0.0
O62 O 0.04141 0.28301 0.34535 0.0
O63 O 0.06812 0.31058 0.37805 0.0
H64 H 0.03368 0.35613 0.35058 0.0
H65 H 0.0522 0.31936 0.30762 0.0
H66 H 0.02544 0.37508 0.32446 0.0
H67 H 0.04352 0.33888 0.28219 0.0
H68 H 0.01839 0.31284 0.44001 0.0
H69 H 0.9904 0.31116 0.37182 0.0
H70 H 0.03718 0.30731 0.41292 0.0
H71 H 0.97233 0.31641 0.39959 0.0
H72 H 0.97065 0.32296 0.30828 0.0
H73 H 0.95884 0.27097 0.33315 0.0
H74 H 0.07816 0.3856 0.41933 0.0
H75 H 0.01815 0.37544 0.40596 0.0
H76 H 0.04632 0.24845 0.34775 0.0
H77 H 0.03284 0.28706 0.30823 0.0
H78 H 0.04348 0.22417 0.3193 0.0
H79 H 0.03029 0.26213 0.28045 0.0
H80 H 0.0957 0.29226 0.37446 0.0
H81 H 0.06868 0.32293 0.41541 0.0
H82 H 0.11792 0.28741 0.40206 0.0
H83 H 0.09123 0.31738 0.44231 0.0
H84 H 0.12983 0.32868 0.33196 0.0
H85 H 0.1087 0.26951 0.31617 0.0
H86 H 0.01189 0.24398 0.41419 0.0
H87 H 0.06693 0.23649 0.4022 0.0
Li88 Li 0.0225 0.76946 0.67373 0.0
Li89 Li 0.04012 0.75549 0.70045 0.0
Li90 Li 0.01741 0.73383 0.67244 0.0
Li91 Li 1.00314 0.75319 0.69915 0.0
C92 C 0.05284 0.75394 0.65805 0.0
N93 N 0.07759 0.75676 0.63045 0.0
C94 C 0.07129 0.76351 0.66331 0.0
C95 C 0.04702 0.74568 0.63881 0.0
C96 C 0.08358 0.76481 0.64912 0.0
C97 C 0.05974 0.7473 0.62505 0.0
C98 C 0.03229 0.78973 0.71762 0.0
C99 C 0.03708 0.8019 0.75178 0.0
N100 N 0.04801 0.81774 0.74751 0.0
C101 C 0.04356 0.8061 0.71354 0.0
C102 C 0.02899 0.78757 0.73686 0.0
C103 C 0.05138 0.82011 0.72887 0.0
C104 C 0.00916 0.79804 0.6535 0.0
N105 N 0.02453 0.79073 0.65841 0.0
C106 C 0.04331 0.8138 0.64257 0.0
C107 C 0.04143 0.79845 0.65328 0.0
C108 C 0.0277 0.82163 0.6372 0.0
C109 C 0.01045 0.81354 0.64294 0.0
H110 H 0.99586 0.79187 0.65785 0.0
H111 H 0.05361 0.7929 0.65771 0.0
C112 C 0.07548 0.74367 0.70792 0.0
N113 N 0.06637 0.75738 0.71414 0.0
C114 C 0.09462 0.74473 0.71413 0.0
C115 C 0.09505 0.77378 0.73371 0.0
C116 C 0.07588 0.77224 0.72699 0.0
C117 C 0.10502 0.76004 0.72715 0.0
H118 H 0.06803 0.73211 0.69742 0.0
H119 H 0.06882 0.78324 0.7318 0.0
C120 C 0.98635 0.7478 0.65274 0.0
N121 N 0.96201 0.74292 0.61867 0.0
C122 C 0.96712 0.74243 0.65321 0.0
C123 C 0.99321 0.75077 0.63497 0.0
C124 C 0.95504 0.74001 0.63582 0.0
C125 C 0.98068 0.7482 0.6179 0.0
C126 C 0.01698 0.72195 0.71612 0.0
C127 C 1.00775 0.70332 0.71164 0.0
C128 C 0.02423 0.72897 0.73542 0.0
C129 C 1.00586 0.69197 0.72665 0.0
C130 C 0.02206 0.71717 0.75001 0.0
N131 N 0.013 0.69907 0.74536 0.0
C132 C 0.0303 0.70098 0.659 0.0
C133 C 1.00135 0.70235 0.64147 0.0
C134 C 0.03098 0.6842 0.64759 0.0
N135 N 0.01567 0.70979 0.65583 0.0
C136 C 1.0015 0.68556 0.62966 0.0
C137 C 0.01649 0.67613 0.63255 0.0
H138 H 0.04165 0.70713 0.67033 0.0
H139 H 0.9898 0.70943 0.63905 0.0
C140 C 0.97669 0.77048 0.72187 0.0
N141 N 0.97923 0.75418 0.71208 0.0
C142 C 0.95944 0.77203 0.72883 0.0
C143 C 0.94724 0.74009 0.71558 0.0
C144 C 0.96479 0.73906 0.70909 0.0
C145 C 0.94409 0.7568 0.72556 0.0
H146 H 0.98791 0.78262 0.72389 0.0
H147 H 0.96665 0.7262 0.70112 0.0
O148 O 0.04063 0.75243 0.67176 0.0
O149 O 0.02442 0.77593 0.70283 0.0
O150 O 0.99835 0.7504 0.66965 0.0
O151 O 0.01928 0.73314 0.70159 0.0
H152 H 0.07601 0.77005 0.67812 0.0
H153 H 0.03287 0.73802 0.63454 0.0
H154 H 0.09787 0.77225 0.65295 0.0
H155 H 0.05541 0.741 0.6101 0.0
H156 H 0.03467 0.80043 0.76676 0.0
H157 H 0.04622 0.80795 0.69869 0.0
H158 H 0.02027 0.77496 0.74022 0.0
H159 H 0.06013 0.83287 0.72595 0.0
H160 H 0.05697 0.8197 0.63884 0.0
H161 H 0.998 0.81899 0.63909 0.0
H162 H 0.10127 0.73382 0.70813 0.0
H163 H 0.10195 0.78577 0.74394 0.0
H164 H 0.96157 0.74018 0.66686 0.0
H165 H 1.00803 0.75516 0.63441 0.0
H166 H 0.94012 0.73584 0.63596 0.0
H167 H 0.98579 0.75047 0.60404 0.0
H168 H 1.00216 0.6977 0.69672 0.0
H169 H 0.03156 0.74334 0.73905 0.0
H170 H 0.99877 0.67751 0.72342 0.0
H171 H 0.02761 0.72238 0.76502 0.0
H172 H 0.04303 0.67783 0.65034 0.0
H173 H 0.98984 0.67996 0.61849 0.0
H174 H 0.95799 0.78534 0.73615 0.0
H175 H 0.93618 0.72779 0.71273 0.0
Li176 Li 0.52564 0.80455 0.84617 0.0
Li177 Li 0.54703 0.82626 0.87449 0.0
Li178 Li 0.56269 0.80639 0.84815 0.0
Li179 Li 0.54399 0.79076 0.87313 0.0
C180 C 0.54265 0.83744 0.83091 0.0
N181 N 0.53351 0.85864 0.80199 0.0
C182 C 0.53724 0.85444 0.83583 0.0
C183 C 0.54352 0.83123 0.81135 0.0
C184 C 0.53265 0.86495 0.82097 0.0
C185 C 0.53881 0.84216 0.79692 0.0
C186 C 0.51333 0.80537 0.88938 0.0
C187 C 0.50927 0.80395 0.92336 0.0
N188 N 0.49068 0.80344 0.91895 0.0
C189 C 0.49418 0.80482 0.88517 0.0
C190 C 0.52096 0.80495 0.90861 0.0
C191 C 0.48297 0.80386 0.90034 0.0
C192 C 0.48758 0.78477 0.83089 0.0
N193 N 0.49952 0.8016 0.83201 0.0
C194 C 0.47366 0.81522 0.81976 0.0
C195 C 0.49278 0.81667 0.82643 0.0
C196 C 0.46082 0.79814 0.81892 0.0
C197 C 0.46833 0.78273 0.82441 0.0
H198 H 0.49283 0.77297 0.83584 0.0
H199 H 0.50207 0.8301 0.82773 0.0
C200 C 0.56396 0.86361 0.89559 0.0
N201 N 0.54806 0.8502 0.89131 0.0
C202 C 0.56403 0.88053 0.90732 0.0
C203 C 0.53157 0.86954 0.91045 0.0
C204 C 0.53199 0.85312 0.89834 0.0
C205 C 0.54769 0.88362 0.91511 0.0
H206 H 0.57661 0.86125 0.88983 0.0
H207 H 0.5193 0.84278 0.89444 0.0
C208 C 0.54087 0.76952 0.83045 0.0
N209 N 0.54076 0.73979 0.8026 0.0
C210 C 0.54862 0.7544 0.83557 0.0
C211 C 0.53302 0.76955 0.81122 0.0
C212 C 0.54844 0.73949 0.82125 0.0
C213 C 0.53312 0.75437 0.79733 0.0
C214 C 0.57981 0.80962 0.8931 0.0
C215 C 0.59504 0.80121 0.88997 0.0
C216 C 0.57778 0.81697 0.91199 0.0
C217 C 0.60782 0.79994 0.90592 0.0
C218 C 0.59085 0.81542 0.92756 0.0
N219 N 0.60546 0.80699 0.92423 0.0
C220 C 0.60257 0.81837 0.84246 0.0
C221 C 0.58845 0.79043 0.82254 0.0
C222 C 0.62019 0.81711 0.83629 0.0
N223 N 0.58694 0.80509 0.83574 0.0
C224 C 0.60582 0.78862 0.816 0.0
C225 C 0.62233 0.80195 0.82294 0.0
H226 H 0.60152 0.82989 0.85307 0.0
H227 H 0.57626 0.77973 0.81727 0.0
C228 C 0.52451 0.76097 0.89181 0.0
N229 N 0.54181 0.76934 0.88822 0.0
C230 C 0.52216 0.7453 0.90206 0.0
C231 C 0.55539 0.74666 0.90442 0.0
C232 C 0.5571 0.76235 0.89418 0.0
C233 C 0.53771 0.73782 0.90854 0.0
H234 H 0.51241 0.76634 0.88657 0.0
H235 H 0.57064 0.76864 0.89064 0.0
O236 O 0.54715 0.82696 0.84523 0.0
O237 O 0.52454 0.80644 0.87474 0.0
O238 O 0.54078 0.78418 0.84422 0.0
O239 O 0.56724 0.81112 0.87766 0.0
H240 H 0.53653 0.85941 0.85094 0.0
H241 H 0.54772 0.8181 0.80737 0.0
H242 H 0.52837 0.87811 0.82452 0.0
H243 H 0.53937 0.83753 0.7817 0.0
H244 H 0.51498 0.80356 0.9383 0.0
H245 H 0.48806 0.80525 0.87039 0.0
H246 H 0.53571 0.80522 0.91207 0.0
H247 H 0.46813 0.80346 0.89731 0.0
H248 H 0.46901 0.82757 0.8155 0.0
H249 H 0.45932 0.76927 0.82447 0.0
H250 H 0.5768 0.89097 0.9105 0.0
H251 H 0.51857 0.87138 0.9158 0.0
H252 H 0.55475 0.7542 0.85041 0.0
H253 H 0.52692 0.78117 0.80709 0.0
H254 H 0.55441 0.72768 0.82498 0.0
H255 H 0.5271 0.75418 0.78238 0.0
H256 H 0.59685 0.79552 0.87541 0.0
H257 H 0.56631 0.82391 0.91459 0.0
H258 H 0.61959 0.79334 0.90375 0.0
H259 H 0.58941 0.82098 0.94228 0.0
H260 H 0.63207 0.82807 0.84206 0.0
H261 H 0.60629 0.77647 0.80597 0.0
H262 H 0.50824 0.73917 0.90491 0.0
H263 H 0.56778 0.74125 0.90863 0.0
Li264 Li 0.52323 0.26973 0.17441 0.0
Li265 Li 0.54091 0.25569 0.20103 0.0
Li266 Li 0.51856 0.23414 0.17258 0.0
Li267 Li 0.50372 0.25264 0.19938 0.0
C268 C 0.55371 0.25587 0.15857 0.0
N269 N 0.57807 0.2613 0.1308 0.0
C270 C 0.57192 0.266 0.16397 0.0
C271 C 0.54794 0.24833 0.13909 0.0
C272 C 0.58401 0.26865 0.1497 0.0
C273 C 0.56045 0.25127 0.12526 0.0
C274 C 0.53178 0.2891 0.21901 0.0
C275 C 0.53572 0.29959 0.25356 0.0
N276 N 0.54579 0.31627 0.25021 0.0
C277 C 0.5421 0.30635 0.21587 0.0
C278 C 0.5285 0.28568 0.23796 0.0
C279 C 0.54909 0.3199 0.23186 0.0
C280 C 0.50997 0.29675 0.15142 0.0
N281 N 0.52549 0.29133 0.15957 0.0
C282 C 0.54506 0.31692 0.14787 0.0
C283 C 0.54283 0.30123 0.15809 0.0
C284 C 0.52932 0.32279 0.1391 0.0
C285 C 0.51156 0.31242 0.1411 0.0
H286 H 0.49627 0.28893 0.15295 0.0
H287 H 0.555 0.29713 0.1651 0.0
C288 C 0.57454 0.24234 0.21559 0.0
N289 N 0.56715 0.25808 0.21507 0.0
C290 C 0.59366 0.24336 0.22206 0.0
C291 C 0.59763 0.27677 0.22776 0.0
C292 C 0.57842 0.27512 0.22121 0.0
C293 C 0.60583 0.26079 0.22806 0.0
H294 H 0.5657 0.22887 0.21037 0.0
H295 H 0.57278 0.28764 0.22025 0.0
C296 C 0.48714 0.24618 0.15293 0.0
N297 N 0.46264 0.23772 0.11884 0.0
C298 C 0.46826 0.23877 0.15355 0.0
C299 C 0.49355 0.24935 0.13501 0.0
C300 C 0.4561 0.23457 0.13614 0.0
C301 C 0.48095 0.24496 0.11792 0.0
C302 C 0.51793 0.22131 0.21579 0.0
C303 C 0.50881 0.2027 0.21076 0.0
C304 C 0.52503 0.22786 0.23524 0.0
C305 C 0.50688 0.1909 0.22538 0.0
C306 C 0.52279 0.21563 0.24942 0.0
N307 N 0.51385 0.19755 0.24424 0.0
C308 C 0.53339 0.20371 0.15575 0.0
C309 C 0.5017 0.20119 0.14345 0.0
C310 C 0.53437 0.1873 0.14386 0.0
N311 N 0.51727 0.21044 0.1554 0.0
C312 C 0.50207 0.18466 0.13128 0.0
C313 C 0.51859 0.17737 0.13128 0.0
H314 H 0.54568 0.21124 0.16522 0.0
H315 H 0.48894 0.20657 0.14328 0.0
C316 C 0.47646 0.2693 0.22156 0.0
N317 N 0.47958 0.25301 0.21227 0.0
C318 C 0.45909 0.27041 0.22849 0.0
C319 C 0.44797 0.23805 0.21633 0.0
C320 C 0.46561 0.23748 0.20981 0.0
C321 C 0.44421 0.25473 0.22578 0.0
H322 H 0.4873 0.28174 0.22319 0.0
H323 H 0.46792 0.2246 0.20228 0.0
O324 O 0.54171 0.25303 0.17236 0.0
O325 O 0.52478 0.2757 0.20356 0.0
O326 O 0.49921 0.25051 0.16984 0.0
O327 O 0.52029 0.23294 0.20165 0.0
H328 H 0.57663 0.27188 0.17898 0.0
H329 H 0.53402 0.24017 0.13471 0.0
H330 H 0.59811 0.27655 0.15365 0.0
H331 H 0.55617 0.24554 0.11012 0.0
H332 H 0.5333 0.29715 0.26832 0.0
H333 H 0.54471 0.30921 0.20127 0.0
H334 H 0.52041 0.27243 0.24058 0.0
H335 H 0.55714 0.3333 0.22967 0.0
H336 H 0.55905 0.32458 0.14717 0.0
H337 H 0.49898 0.31622 0.13455 0.0
H338 H 0.59882 0.23047 0.22216 0.0
H339 H 0.60608 0.29063 0.2318 0.0
H340 H 0.46306 0.23631 0.16732 0.0
H341 H 0.50806 0.25533 0.13432 0.0
H342 H 0.44145 0.22884 0.1364 0.0
H343 H 0.48572 0.24737 0.10394 0.0
H344 H 0.50335 0.19743 0.19572 0.0
H345 H 0.5323 0.2422 0.23928 0.0
H346 H 0.49988 0.17644 0.22172 0.0
H347 H 0.52822 0.22048 0.26454 0.0
H348 H 0.54756 0.18265 0.14433 0.0
H349 H 0.48941 0.17756 0.12213 0.0
H350 H 0.4572 0.28374 0.23537 0.0
H351 H 0.43734 0.2254 0.21393 0.0
Li352 Li 0.05845 0.80894 0.09934 0.0
Li353 Li 0.07803 0.79408 0.12535 0.0
Li354 Li 0.0558 0.77174 0.09762 0.0
Li355 Li 0.04281 0.78927 0.12477 0.0
C356 C 0.08967 0.79403 0.08178 0.0
N357 N 0.11304 0.79637 0.05289 0.0
C358 C 0.10871 0.80159 0.08659 0.0
C359 C 0.0825 0.78757 0.06234 0.0
C360 C 0.1203 0.80266 0.07175 0.0
C361 C 0.09455 0.78892 0.04792 0.0
C362 C 0.06882 0.82675 0.14423 0.0
C363 C 0.07511 0.83669 0.1789 0.0
N364 N 0.08316 0.85405 0.17522 0.0
C365 C 0.07714 0.84466 0.14076 0.0
C366 C 0.06776 0.8227 0.16342 0.0
C367 C 0.08431 0.85829 0.15665 0.0
C368 C 0.04265 0.84197 0.09281 0.0
N369 N 0.05634 0.83305 0.08705 0.0
C370 C 0.06624 0.85842 0.068 0.0
C371 C 0.06805 0.84107 0.07476 0.0
C372 C 0.05224 0.86806 0.0738 0.0
C373 C 0.04038 0.85925 0.08644 0.0
H374 H 0.03352 0.83579 0.10276 0.0
H375 H 0.07901 0.83416 0.07024 0.0
C376 C 0.10778 0.77864 0.14257 0.0
N377 N 0.10212 0.79527 0.14183 0.0
C378 C 0.1243 0.77745 0.15414 0.0
C379 C 0.12929 0.81057 0.16412 0.0
C380 C 0.11263 0.81114 0.15231 0.0
C381 C 0.13546 0.79353 0.16525 0.0
H382 H 0.0993 0.76613 0.13426 0.0
H383 H 0.10815 0.82431 0.15157 0.0
C384 C 0.02295 0.78179 0.07954 0.0
N385 N 0.99722 0.77024 0.04665 0.0
C386 C 1.00573 0.77038 0.08088 0.0
C387 C 0.02704 0.78748 0.06154 0.0
C388 C 0.99293 0.76463 0.06406 0.0
C389 C 0.01386 0.78145 0.04506 0.0
C390 C 0.05558 0.75988 0.14077 0.0
C391 C 0.0442 0.74213 0.1363 0.0
C392 C 0.06309 0.76636 0.16012 0.0
C393 C 0.04034 0.7312 0.15135 0.0
C394 C 0.05893 0.75501 0.17476 0.0
N395 N 0.04772 0.73781 0.17011 0.0
C396 C 0.06884 0.73841 0.08145 0.0
C397 C 0.03603 0.73384 0.07951 0.0
C398 C 0.06777 0.71922 0.07527 0.0
N399 N 0.05312 0.74548 0.08366 0.0
C400 C 0.03434 0.71456 0.07331 0.0
C401 C 0.05034 0.70668 0.07133 0.0
H402 H 0.08239 0.74755 0.08516 0.0
H403 H 0.02361 0.73925 0.08191 0.0
C404 C 0.01865 0.8022 0.15144 0.0
N405 N 0.02179 0.78708 0.14008 0.0
C406 C 1.00294 0.80077 0.16163 0.0
C407 C 0.99372 0.76836 0.14805 0.0
C408 C 0.00968 0.77036 0.13828 0.0
C409 C 0.99008 0.78371 0.15989 0.0
H410 H 0.02814 0.8155 0.15232 0.0
H411 H 0.01221 0.7586 0.12895 0.0
O412 O 0.0782 0.79261 0.09614 0.0
O413 O 0.06162 0.81329 0.12886 0.0
O414 O 0.03562 0.78765 0.09585 0.0
O415 O 0.05954 0.77077 0.12623 0.0
H416 H 0.11446 0.80653 0.10162 0.0
H417 H 0.06783 0.78147 0.05846 0.0
H418 H 0.13508 0.80847 0.07523 0.0
H419 H 0.08921 0.78399 0.0328 0.0
H420 H 0.07438 0.83377 0.19384 0.0
H421 H 0.07805 0.84801 0.12597 0.0
H422 H 0.06123 0.80894 0.16633 0.0
H423 H 0.09078 0.87223 0.1542 0.0
H424 H 0.07575 0.86412 0.05816 0.0
H425 H 0.02956 0.86584 0.09187 0.0
H426 H 0.12807 0.7639 0.15459 0.0
H427 H 0.13737 0.82345 0.17211 0.0
H428 H 1.00232 0.76595 0.09474 0.0
H429 H 0.04022 0.79653 0.06034 0.0
H430 H 0.97957 0.75573 0.06486 0.0
H431 H 0.01683 0.78572 0.03101 0.0
H432 H 0.03831 0.73688 0.1214 0.0
H433 H 0.07212 0.77997 0.16379 0.0
H434 H 0.03149 0.71746 0.14812 0.0
H435 H 0.06463 0.75985 0.1898 0.0
H436 H 0.08064 0.71427 0.07381 0.0
H437 H 0.02053 0.7058 0.0709 0.0
H438 H 1.00061 0.81305 0.17034 0.0
H439 H 0.98433 0.7549 0.14636 0.0
Li440 Li 0.50841 0.78695 0.45134 0.0
Li441 Li 0.48728 0.76531 0.42283 0.0
Li442 Li 0.50733 0.75039 0.44961 0.0
Li443 Li 0.52294 0.76911 0.42493 0.0
C444 C 0.47627 0.77074 0.4665 0.0
N445 N 0.45603 0.7819 0.49547 0.0
C446 C 0.46092 0.77894 0.46181 0.0
C447 C 0.4813 0.76811 0.48587 0.0
C448 C 0.45088 0.78452 0.47668 0.0
C449 C 0.47089 0.77388 0.50033 0.0
C450 C 0.51086 0.79981 0.40882 0.0
C451 C 0.516 0.80445 0.37563 0.0
N452 N 0.51962 0.82327 0.38082 0.0
C453 C 0.51477 0.81919 0.41385 0.0
C454 C 0.51158 0.79237 0.38957 0.0
C455 C 0.5191 0.83082 0.39947 0.0
C456 C 0.52619 0.8227 0.47624 0.0
N457 N 0.51012 0.81281 0.46557 0.0
C458 C 0.49665 0.84057 0.46841 0.0
C459 C 0.49543 0.82147 0.46183 0.0
C460 C 0.51318 0.85138 0.47916 0.0
C461 C 0.52795 0.84183 0.48325 0.0
H462 H 0.53797 0.81595 0.47885 0.0
H463 H 0.48294 0.8138 0.45283 0.0
C464 C 0.44795 0.7501 0.40652 0.0
N465 N 0.46327 0.76367 0.40582 0.0
C466 C 0.43092 0.74981 0.39488 0.0
C467 C 0.4456 0.77726 0.38181 0.0
C468 C 0.46218 0.77717 0.39382 0.0
C469 C 0.42954 0.76349 0.38217 0.0
H470 H 0.44885 0.73955 0.41624 0.0
H471 H 0.47412 0.78817 0.39366 0.0
C472 C 0.54222 0.77108 0.46894 0.0
N473 N 0.56849 0.76841 0.49945 0.0
C474 C 0.55857 0.76495 0.46512 0.0
C475 C 0.53921 0.7759 0.48823 0.0
C476 C 0.57169 0.76368 0.48076 0.0
C477 C 0.55267 0.77445 0.50347 0.0
C478 C 0.50383 0.7334 0.40398 0.0
C479 C 0.51172 0.71763 0.40595 0.0
C480 C 0.49622 0.7364 0.38552 0.0
C481 C 0.51234 0.7054 0.38932 0.0
C482 C 0.49711 0.72384 0.36924 0.0
N483 N 0.50511 0.70874 0.37146 0.0
C484 C 0.49539 0.71683 0.47101 0.0
C485 C 0.52538 0.71964 0.46099 0.0
C486 C 0.49688 0.69954 0.47802 0.0
N487 N 0.5095 0.72664 0.46251 0.0
C488 C 0.52738 0.7024 0.46763 0.0
C489 C 0.51301 0.69171 0.4763 0.0
H490 H 0.48273 0.72222 0.47215 0.0
H491 H 0.53646 0.72717 0.45396 0.0
C492 C 0.55399 0.78909 0.40825 0.0
N493 N 0.54479 0.7716 0.41032 0.0
C494 C 0.56961 0.79165 0.39796 0.0
C495 C 0.5669 0.75822 0.39292 0.0
C496 C 0.55117 0.7563 0.40312 0.0
C497 C 0.5763 0.7761 0.39002 0.0
H498 H 0.54929 0.80118 0.41468 0.0
H499 H 0.54422 0.74253 0.40542 0.0
O500 O 0.48624 0.76515 0.45216 0.0
O501 O 0.50656 0.78818 0.4227 0.0
O502 O 0.52932 0.77259 0.45384 0.0
O503 O 0.50302 0.7455 0.4201 0.0
H504 H 0.45685 0.78099 0.44684 0.0
H505 H 0.49309 0.76167 0.48967 0.0
H506 H 0.43898 0.79092 0.47329 0.0
H507 H 0.47462 0.77196 0.5154 0.0
H508 H 0.51661 0.79887 0.3607 0.0
H509 H 0.5145 0.82524 0.42867 0.0
H510 H 0.5089 0.77743 0.38548 0.0
H511 H 0.52208 0.84585 0.40315 0.0
H512 H 0.48486 0.8469 0.4643 0.0
H513 H 0.54096 0.84906 0.49166 0.0
H514 H 0.41901 0.73885 0.39571 0.0
H515 H 0.44528 0.78833 0.37263 0.0
H516 H 0.56109 0.76122 0.45023 0.0
H517 H 0.52665 0.78078 0.49138 0.0
H518 H 0.58442 0.75894 0.47804 0.0
H519 H 0.55056 0.77814 0.51848 0.0
H520 H 0.51746 0.71496 0.42014 0.0
H521 H 0.48954 0.74819 0.38379 0.0
H522 H 0.51857 0.69324 0.39063 0.0
H523 H 0.49135 0.72604 0.35485 0.0
H524 H 0.48535 0.69245 0.48477 0.0
H525 H 0.54003 0.69733 0.46537 0.0
H526 H 0.57658 0.80573 0.39652 0.0
H527 H 0.5715 0.74579 0.38715 0.0
Li528 Li 0.55845 0.30913 0.60071 0.0
Li529 Li 0.57777 0.2943 0.62704 0.0
Li530 Li 0.55554 0.27214 0.59898 0.0
Li531 Li 0.54224 0.28972 0.62595 0.0
C532 C 0.58936 0.29499 0.58328 0.0
N533 N 0.61233 0.29897 0.55412 0.0
C534 C 0.6078 0.30476 0.58771 0.0
C535 C 0.58259 0.28719 0.56408 0.0
C536 C 0.6192 0.30663 0.57274 0.0
C537 C 0.59442 0.28938 0.54953 0.0
C538 C 0.56594 0.3265 0.64653 0.0
C539 C 0.5685 0.3343 0.6815 0.0
N540 N 0.57443 0.35262 0.67939 0.0
C541 C 0.57205 0.34539 0.6447 0.0
C542 C 0.56413 0.32089 0.66506 0.0
C543 C 0.57628 0.35839 0.6615 0.0
C544 C 0.54019 0.33637 0.58086 0.0
N545 N 0.5572 0.33308 0.58792 0.0
C546 C 0.57142 0.36425 0.58169 0.0
C547 C 0.57271 0.34674 0.58822 0.0
C548 C 0.55399 0.36824 0.57453 0.0
C549 C 0.53831 0.35359 0.57404 0.0
H550 H 0.52782 0.32572 0.58084 0.0
H551 H 0.58616 0.34435 0.59414 0.0
C552 C 0.61046 0.28063 0.63962 0.0
N553 N 0.60187 0.29533 0.64347 0.0
C554 C 0.62705 0.27922 0.65095 0.0
C555 C 0.62601 0.30813 0.6702 0.0
C556 C 0.60945 0.30905 0.65841 0.0
C557 C 0.63514 0.29301 0.66667 0.0
H558 H 0.60424 0.26975 0.62782 0.0
H559 H 0.60265 0.32072 0.66136 0.0
C560 C 0.52287 0.2816 0.58071 0.0
N561 N 0.49737 0.2686 0.54788 0.0
C562 C 0.50546 0.27074 0.58243 0.0
C563 C 0.52728 0.28595 0.56234 0.0
C564 C 0.49277 0.26426 0.56565 0.0
C565 C 0.5142 0.27922 0.5459 0.0
C566 C 0.55531 0.25983 0.64193 0.0
C567 C 0.54365 0.24224 0.63728 0.0
C568 C 0.56351 0.26571 0.66118 0.0
C569 C 0.54013 0.23091 0.65208 0.0
C570 C 0.55966 0.25397 0.67556 0.0
N571 N 0.54813 0.23696 0.67076 0.0
C572 C 0.56858 0.23941 0.58126 0.0
C573 C 0.53587 0.23434 0.5809 0.0
C574 C 0.56756 0.22038 0.57437 0.0
N575 N 0.55289 0.24614 0.58459 0.0
C576 C 0.53424 0.21521 0.57406 0.0
C577 C 0.55023 0.20766 0.57088 0.0
H578 H 0.58209 0.24868 0.58456 0.0
H579 H 0.52351 0.2395 0.58412 0.0
C580 C 0.51714 0.30295 0.65161 0.0
N581 N 0.52089 0.28762 0.64113 0.0
C582 C 0.50153 0.30148 0.66198 0.0
C583 C 0.49343 0.26861 0.65016 0.0
C584 C 0.50929 0.27067 0.6402 0.0
C585 C 0.48931 0.28413 0.6613 0.0
H586 H 0.52606 0.31645 0.65171 0.0
H587 H 0.51216 0.25872 0.63143 0.0
O588 O 0.57814 0.29267 0.59778 0.0
O589 O 0.56153 0.31364 0.63022 0.0
O590 O 0.53544 0.28812 0.59696 0.0
O591 O 0.55895 0.27111 0.62764 0.0
H592 H 0.61325 0.31075 0.60256 0.0
H593 H 0.5684 0.27937 0.5605 0.0
H594 H 0.63352 0.31413 0.57594 0.0
H595 H 0.58939 0.28341 0.53459 0.0
H596 H 0.56712 0.33016 0.69592 0.0
H597 H 0.57346 0.34998 0.63047 0.0
H598 H 0.55922 0.30636 0.6667 0.0
H599 H 0.58101 0.37306 0.6603 0.0
H600 H 0.58409 0.37475 0.5829 0.0
H601 H 0.5245 0.35529 0.56844 0.0
H602 H 0.63322 0.26713 0.64765 0.0
H603 H 0.63167 0.31929 0.6819 0.0
H604 H 0.50182 0.26732 0.59658 0.0
H605 H 0.54064 0.29452 0.56081 0.0
H606 H 0.47926 0.25579 0.56675 0.0
H607 H 0.51742 0.28248 0.53158 0.0
H608 H 0.53726 0.23744 0.62245 0.0
H609 H 0.57283 0.27914 0.66497 0.0
H610 H 0.53104 0.2173 0.64871 0.0
H611 H 0.56587 0.25836 0.69054 0.0
H612 H 0.5804 0.21572 0.57198 0.0
H613 H 0.52051 0.2063 0.57208 0.0
H614 H 0.49879 0.31392 0.67005 0.0
H615 H 0.48451 0.25494 0.6492 0.0
Li616 Li 0.00886 0.28624 0.95174 0.0
Li617 Li 0.98747 0.265 0.92381 0.0
Li618 Li 1.00685 0.24933 0.95014 0.0
Li619 Li 0.02273 0.26766 0.92495 0.0
C620 C 0.97568 0.26968 0.96685 0.0
N621 N 0.95382 0.27913 0.99499 0.0
C622 C 0.96015 0.2775 0.96176 0.0
C623 C 0.98004 0.26654 0.98618 0.0
C624 C 0.94928 0.28221 0.97622 0.0
C625 C 0.96883 0.27146 1.00022 0.0
C626 C 1.00499 0.29721 0.90761 0.0
C627 C 1.00241 0.29912 0.87291 0.0
N628 N 1.00012 0.31711 0.87629 0.0
C629 C 1.00262 0.31571 0.91075 0.0
C630 C 1.00488 0.28883 0.88856 0.0
C631 C 1.00017 0.32553 0.89472 0.0
C632 C 0.02676 0.32525 0.96141 0.0
N633 N 0.01213 0.31249 0.96569 0.0
C634 C 1.00079 0.33762 0.9831 0.0
C635 C 0.99938 0.31844 0.97661 0.0
C636 C 0.01542 0.35122 0.97834 0.0
C637 C 0.02866 0.34453 0.96754 0.0
H638 H 0.0367 0.32054 0.95252 0.0
H639 H 0.98766 0.30847 0.97985 0.0
C640 C 0.95265 0.2476 0.89819 0.0
N641 N 0.96364 0.26397 0.90702 0.0
C642 C 0.93594 0.2476 0.88617 0.0
C643 C 0.94209 0.28121 0.89234 0.0
C644 C 0.95842 0.28056 0.90447 0.0
C645 C 0.93051 0.2646 0.88291 0.0
H646 H 0.95685 0.23451 0.9004 0.0
H647 H 0.9669 0.29342 0.91198 0.0
C648 C 0.0424 0.27163 0.96955 0.0
N649 N 0.06889 0.27294 1.00119 0.0
C650 C 0.05965 0.267 0.96671 0.0
C651 C 0.03862 0.27703 0.98842 0.0
C652 C 0.07286 0.26772 0.98291 0.0
C653 C 0.0522 0.27757 0.00424 0.0
C654 C 1.00511 0.23199 0.90579 0.0
C655 C 0.01486 0.2179 0.90989 0.0
C656 C 0.99789 0.23292 0.88653 0.0
C657 C 0.01756 0.20516 0.89455 0.0
C658 C 1.00088 0.21992 0.8716 0.0
N659 N 0.01058 0.20643 0.87588 0.0
C660 C 0.99264 0.21068 0.95881 0.0
C661 C 0.02341 0.2226 0.97363 0.0
C662 C 0.99321 0.19306 0.96534 0.0
N663 N 1.00763 0.22521 0.96287 0.0
C664 C 0.02456 0.20521 0.98045 0.0
C665 C 0.0094 0.1898 0.97628 0.0
H666 H 0.98021 0.21258 0.95007 0.0
H667 H 0.03548 0.23385 0.9766 0.0
C668 C 0.05022 0.28528 0.90207 0.0
N669 N 0.04423 0.26931 0.91002 0.0
C670 C 0.0658 0.28706 0.89169 0.0
C671 C 0.06944 0.25624 0.89844 0.0
C672 C 0.05367 0.25498 0.90854 0.0
C673 C 0.0757 0.27241 0.88972 0.0
H674 H 0.04309 0.29685 0.90397 0.0
H675 H 0.04915 0.24263 0.91544 0.0
O676 O 0.98649 0.26498 0.95293 0.0
O677 O 1.00743 0.28737 0.92313 0.0
O678 O 0.0293 0.27098 0.95389 0.0
O679 O 1.00221 0.2445 0.92061 0.0
H680 H 0.9566 0.27998 0.94683 0.0
H681 H 0.99197 0.26039 0.99029 0.0
H682 H 0.93726 0.28834 0.97253 0.0
H683 H 0.97205 0.26917 0.01526 0.0
H684 H 1.00236 0.29283 0.85809 0.0
H685 H 1.00252 0.32237 0.92539 0.0
H686 H 1.00692 0.27462 0.8859 0.0
H687 H 0.99829 0.33985 0.89693 0.0
H688 H 0.99003 0.34175 0.99118 0.0
H689 H 0.04042 0.35411 0.96364 0.0
H690 H 0.92752 0.23442 0.87922 0.0
H691 H 0.93841 0.29464 0.89061 0.0
H692 H 0.06277 0.26283 0.95216 0.0
H693 H 0.02534 0.28075 0.99079 0.0
H694 H 0.08626 0.26412 0.98096 0.0
H695 H 0.04948 0.2817 0.01895 0.0
H696 H 0.0204 0.2169 0.92475 0.0
H697 H 0.98995 0.24349 0.88316 0.0
H698 H 0.02518 0.19425 0.89749 0.0
H699 H 0.99542 0.2205 0.85662 0.0
H700 H 0.98091 0.18207 0.96177 0.0
H701 H 0.03756 0.20377 0.98847 0.0
H702 H 0.07026 0.29995 0.8856 0.0
H703 H 0.07656 0.24456 0.89733 0.0
Li704 Li 0.39185 0.02213 0.30946 0.0
Li705 Li 0.364 1.00464 0.28814 0.0
Li706 Li 0.38851 0.02467 0.27408 0.0
Li707 Li 0.36758 0.03685 0.296 0.0
C708 C 0.4014 0.98979 0.28892 0.0
N709 N 0.42399 0.96377 0.29265 0.0
C710 C 0.39453 0.97264 0.29534 0.0
C711 C 0.41966 0.99357 0.2841 0.0
C712 C 0.4062 0.95971 0.29721 0.0
C713 C 0.43089 0.98028 0.28618 0.0
C714 C 0.35595 0.0252 0.3283 0.0
C715 C 0.32725 0.03216 0.33853 0.0
N716 N 0.33663 0.04012 0.3562 0.0
C717 C 0.36528 0.03338 0.34659 0.0
C718 C 0.33676 0.02448 0.32427 0.0
C719 C 0.35527 0.04086 0.36049 0.0
C720 C 0.41727 0.03961 0.34127 0.0
N721 N 0.40897 0.02258 0.33162 0.0
C722 C 0.42414 0.00713 0.35526 0.0
C723 C 0.41192 1.00648 0.33835 0.0
C724 C 0.43313 0.02454 0.36534 0.0
C725 C 0.42959 0.04093 0.3582 0.0
H726 H 0.414 0.05217 0.33607 0.0
H727 H 0.40457 0.99316 0.33085 0.0
C728 C 0.34901 0.96958 0.26736 0.0
N729 N 0.34793 0.98133 0.28347 0.0
C730 C 0.33849 0.95146 0.26459 0.0
C731 C 0.32582 0.95815 0.29492 0.0
C732 C 0.33653 0.97614 0.29705 0.0
C733 C 0.32705 0.9455 0.27873 0.0
H734 H 0.35851 0.97413 0.25703 0.0
H735 H 0.33623 0.98574 0.30984 0.0
C736 C 0.41195 0.05642 0.29655 0.0
N737 N 0.44623 0.07964 0.2967 0.0
C738 C 0.41304 0.0755 0.2954 0.0
C739 C 0.42828 0.04915 0.29782 0.0
C740 C 0.43051 0.08701 0.29548 0.0
C741 C 0.44548 0.06112 0.29787 0.0
C742 C 0.34683 0.01293 0.25593 0.0
C743 C 0.3503 0.00743 0.23696 0.0
C744 C 0.32885 0.0078 0.2612 0.0
C745 C 0.33586 0.99643 0.22373 0.0
C746 C 0.31479 0.99676 0.24758 0.0
N747 N 0.31856 0.99133 0.22928 0.0
C748 C 0.40054 0.00877 0.24174 0.0
C749 C 0.41329 0.04125 0.24787 0.0
C750 C 0.41093 0.00681 0.22622 0.0
N751 N 0.40201 0.02572 0.25229 0.0
C752 C 0.42428 0.03987 0.23262 0.0
C753 C 0.42337 0.02238 0.22175 0.0
H754 H 0.3914 0.99669 0.2456 0.0
H755 H 0.41415 0.0546 0.25641 0.0
C756 C 0.3649 0.07085 0.31591 0.0
N757 N 0.35593 0.05698 0.30181 0.0
C758 C 0.35812 0.0873 0.31893 0.0
C759 C 0.33236 0.07422 0.29374 0.0
C760 C 0.33969 0.05807 0.29116 0.0
C761 C 0.34201 0.08934 0.30726 0.0
H762 H 0.37779 0.06943 0.32415 0.0
H763 H 0.33296 0.04679 0.28002 0.0
O764 O 0.39013 1.00259 0.28692 0.0
O765 O 0.36548 0.01759 0.31458 0.0
O766 O 0.39494 0.04504 0.29659 0.0
O767 O 0.3609 0.02345 0.26919 0.0
H768 H 0.38042 0.96944 0.29909 0.0
H769 H 0.4251 1.00656 0.27868 0.0
H770 H 0.40112 0.94645 0.30231 0.0
H771 H 0.44507 0.98306 0.28257 0.0
H772 H 0.31242 0.03178 0.33556 0.0
H773 H 0.38006 0.03387 0.35009 0.0
H774 H 0.32928 0.01814 0.31025 0.0
H775 H 0.36232 0.04721 0.37471 0.0
H776 H 0.42651 0.9942 0.3604 0.0
H777 H 0.43591 0.0546 0.36588 0.0
H778 H 0.34 0.94195 0.2521 0.0
H779 H 0.3171 0.95399 0.30607 0.0
H780 H 0.40051 0.08134 0.29444 0.0
H781 H 0.42769 0.03448 0.29898 0.0
H782 H 0.43157 0.1018 0.29458 0.0
H783 H 0.45824 0.05569 0.2989 0.0
H784 H 0.36395 0.01166 0.23242 0.0
H785 H 0.32586 0.01201 0.27576 0.0
H786 H 0.3384 0.99199 0.20904 0.0
H787 H 0.30089 0.99248 0.25156 0.0
H788 H 0.40934 0.99315 0.21796 0.0
H789 H 0.43375 0.05222 0.22979 0.0
H790 H 0.36589 0.09866 0.32951 0.0
H791 H 0.32007 0.07537 0.28423 0.0
Li792 Li 0.27037 0.18743 0.53257 0.0
Li793 Li 0.28405 0.16284 0.51472 0.0
Li794 Li 0.26849 0.18512 0.49556 0.0
Li795 Li 0.24961 0.15957 0.51094 0.0
C796 C 0.30441 0.20635 0.52082 0.0
N797 N 0.33157 0.23835 0.53089 0.0
C798 C 0.32169 0.20542 0.53076 0.0
C799 C 0.30099 0.22349 0.5158 0.0
C800 C 0.33523 0.22177 0.53579 0.0
C801 C 0.31489 0.23954 0.52108 0.0
C802 C 0.27202 0.14772 0.54687 0.0
C803 C 0.27562 0.11634 0.55138 0.0
N804 N 0.28279 0.1223 0.57033 0.0
C805 C 0.27933 0.15353 0.56641 0.0
C806 C 0.27007 0.12897 0.5393 0.0
C807 C 0.28473 0.14047 0.57802 0.0
C808 C 0.25625 0.20558 0.56465 0.0
N809 N 0.27229 0.2026 0.55769 0.0
C810 C 0.29007 0.21666 0.58829 0.0
C811 C 0.28905 0.20809 0.56906 0.0
C812 C 0.27368 0.21955 0.59608 0.0
C813 C 0.25663 0.21414 0.58378 0.0
H814 H 0.24301 0.2007 0.55556 0.0
H815 H 0.30158 0.20518 0.56351 0.0
C816 C 0.30887 0.14082 0.49951 0.0
N817 N 0.30462 0.14986 0.51608 0.0
C818 C 0.32383 0.13137 0.50025 0.0
C819 C 0.32966 0.14059 0.53512 0.0
C820 C 0.31484 0.15011 0.53363 0.0
C821 C 0.3345 0.13109 0.51827 0.0
H822 H 0.30076 0.14109 0.48564 0.0
H823 H 0.31152 0.15773 0.54656 0.0
C824 C 0.23881 0.20075 0.50961 0.0
N825 N 0.21983 0.22924 0.50339 0.0
C826 C 0.22113 0.1968 0.49876 0.0
C827 C 0.24681 0.21915 0.5174 0.0
C828 C 0.21177 0.21142 0.49576 0.0
C829 C 0.237 0.23337 0.51406 0.0
C830 C 0.2573 0.14352 0.47598 0.0
C831 C 0.24681 0.14787 0.45971 0.0
C832 C 0.25871 0.12497 0.4775 0.0
C833 C 0.2378 0.1335 0.44521 0.0
C834 C 0.24949 0.111 0.46269 0.0
N835 N 0.23931 0.11552 0.44699 0.0
C836 C 0.28299 0.19256 0.46033 0.0
C837 C 0.26013 0.2105 0.46671 0.0
C838 C 0.28519 0.19985 0.44255 0.0
N839 N 0.27053 0.19781 0.47201 0.0
C840 C 0.26196 0.21824 0.44906 0.0
C841 C 0.27452 0.21283 0.43656 0.0
H842 H 0.29114 0.18248 0.46476 0.0
H843 H 0.25022 0.21454 0.47596 0.0
C844 C 0.22281 0.13265 0.52497 0.0
N845 N 0.22597 0.14219 0.50937 0.0
C846 C 0.20582 0.12041 0.52525 0.0
C847 C 0.19516 0.12833 0.49363 0.0
C848 C 0.21254 0.14024 0.49381 0.0
C849 C 0.19165 0.1182 0.50951 0.0
H850 H 0.23333 0.13479 0.53746 0.0
H851 H 0.21517 0.14815 0.48168 0.0
O852 O 0.29111 0.19045 0.51558 0.0
O853 O 0.26677 0.16033 0.53524 0.0
O854 O 0.24808 0.18661 0.51283 0.0
O855 O 0.26651 0.15743 0.49013 0.0
H856 H 0.32459 0.19221 0.53461 0.0
H857 H 0.28779 0.22438 0.50781 0.0
H858 H 0.34865 0.22128 0.54355 0.0
H859 H 0.31244 0.25292 0.51732 0.0
H860 H 0.27422 0.10179 0.5457 0.0
H861 H 0.28087 0.16797 0.57252 0.0
H862 H 0.26432 0.12424 0.52425 0.0
H863 H 0.29046 0.14477 0.59315 0.0
H864 H 0.30357 0.22071 0.59706 0.0
H865 H 0.24359 0.21579 0.58912 0.0
H866 H 0.32715 0.12466 0.48677 0.0
H867 H 0.33715 0.14064 0.54941 0.0
H868 H 0.21472 0.18261 0.49271 0.0
H869 H 0.26042 0.22241 0.52596 0.0
H870 H 0.19808 0.20858 0.48736 0.0
H871 H 0.24303 0.24769 0.51997 0.0
H872 H 0.24563 0.16219 0.45831 0.0
H873 H 0.26695 0.1214 0.48989 0.0
H874 H 0.22963 0.13664 0.43253 0.0
H875 H 0.25047 0.09657 0.46366 0.0
H876 H 0.29523 0.1954 0.43361 0.0
H877 H 0.25329 0.22804 0.44505 0.0
H878 H 0.20359 0.11315 0.53795 0.0
H879 H 0.18459 0.12703 0.4812 0.0
Li880 Li 0.15168 0.06127 0.78858 0.0
Li881 Li 0.12634 0.04137 0.80369 0.0
Li882 Li 0.1492 0.0261 0.78499 0.0
Li883 Li 0.12422 0.03947 0.76709 0.0
C884 C 0.16891 0.04842 0.82342 0.0
N885 N 0.19886 0.05587 0.8525 0.0
C886 C 0.16692 0.05637 0.8421 0.0
C887 C 0.18608 0.04418 0.81953 0.0
C888 C 0.18224 0.06005 0.85661 0.0
C889 C 0.20107 0.0481 0.83442 0.0
C890 C 0.11054 0.07095 0.791 0.0
C891 C 0.07788 0.07225 0.7901 0.0
N892 N 0.0826 0.08973 0.80008 0.0
C893 C 0.11509 0.08897 0.80112 0.0
C894 C 0.09181 0.06254 0.78533 0.0
C895 C 0.10075 0.09822 0.80563 0.0
C896 C 0.16141 0.09807 0.77956 0.0
N897 N 0.16806 0.0854 0.78993 0.0
C898 C 0.19753 0.10656 0.79857 0.0
C899 C 0.1857 0.08943 0.79957 0.0
C900 C 0.19116 0.11988 0.78772 0.0
C901 C 0.17266 0.11546 0.77839 0.0
H902 H 0.14736 0.09456 0.77197 0.0
H903 H 0.19087 0.07916 0.80754 0.0
C904 C 0.10833 0.02279 0.83296 0.0
N905 N 0.1136 0.0399 0.827 0.0
C906 C 0.10066 0.02103 0.8506 0.0
C907 C 0.10362 0.05451 0.85561 0.0
C908 C 0.11139 0.05564 0.83797 0.0
C909 C 0.09829 0.03704 0.86238 0.0
H910 H 0.11053 0.01047 0.82424 0.0
H911 H 0.11607 0.06916 0.83332 0.0
C912 C 0.16422 0.04291 0.75179 0.0
N913 N 0.19007 0.04188 0.7255 0.0
C914 C 0.15902 0.03248 0.73339 0.0
C915 C 0.18258 0.0528 0.75682 0.0
C916 C 0.17229 0.03214 0.7203 0.0
C917 C 0.19544 0.0521 0.74334 0.0
C918 C 0.10619 1.00506 0.77683 0.0
C919 C 0.10831 0.9889 0.76547 0.0
C920 C 0.08844 0.00717 0.78111 0.0
C921 C 0.09251 0.97521 0.75826 0.0
C922 C 0.07299 0.99317 0.77363 0.0
N923 N 0.07532 0.97762 0.76244 0.0
C924 C 0.15589 0.99048 0.79314 0.0
C925 C 0.1781 1.00638 0.77498 0.0
C926 C 0.16471 0.97505 0.79248 0.0
N927 N 0.16257 1.00569 0.78429 0.0
C928 C 0.18726 0.99129 0.77388 0.0
C929 C 0.1805 0.97523 0.78251 0.0
H930 H 0.14355 0.99024 0.80053 0.0
H931 H 0.18348 0.01862 0.76837 0.0
C932 C 0.10322 0.05263 0.73618 0.0
N933 N 0.10906 0.03724 0.74197 0.0
C934 C 0.09451 0.05229 0.71713 0.0
C935 C 0.0978 0.02023 0.71029 0.0
C936 C 0.10633 0.02116 0.72948 0.0
C937 C 0.09198 0.03602 0.70373 0.0
H938 H 0.10593 0.06543 0.74613 0.0
H939 H 0.11151 0.00924 0.73411 0.0
O940 O 0.15396 0.04432 0.80919 0.0
O941 O 0.12439 0.06171 0.78644 0.0
O942 O 0.15137 0.04363 0.76473 0.0
O943 O 0.1215 0.01855 0.78408 0.0
H944 H 0.15367 0.05961 0.84536 0.0
H945 H 0.18786 0.03811 0.80512 0.0
H946 H 0.18092 0.06618 0.87115 0.0
H947 H 0.21447 0.04497 0.8316 0.0
H948 H 0.06331 0.06591 0.78583 0.0
H949 H 0.12954 0.09567 0.80556 0.0
H950 H 0.08808 0.04873 0.7772 0.0
H951 H 0.10406 0.11214 0.81354 0.0
H952 H 0.2117 0.10906 0.8058 0.0
H953 H 0.16686 0.1253 0.7702 0.0
H954 H 0.09715 0.00726 0.85519 0.0
H955 H 0.10192 0.06729 0.86389 0.0
H956 H 0.14493 0.02469 0.72926 0.0
H957 H 0.18694 0.06067 0.77108 0.0
H958 H 0.16845 0.02413 0.70601 0.0
H959 H 0.20971 0.05963 0.74708 0.0
H960 H 0.122 0.98703 0.76214 0.0
H961 H 0.08663 0.01943 0.79021 0.0
H962 H 0.09392 0.96268 0.74935 0.0
H963 H 0.05915 0.99463 0.77677 0.0
H964 H 0.15895 0.96294 0.79928 0.0
H965 H 0.1996 0.99223 0.76637 0.0
H966 H 0.09051 0.06489 0.71272 0.0
H967 H 0.09604 0.00733 0.70058 0.0
Li968 Li 0.27737 0.9416 0.99997 0.0
Li969 Li 0.28829 0.92085 0.02208 0.0
Li970 Li 0.30922 0.94428 0.00846 0.0
Li971 Li 0.2917 0.91682 0.98772 0.0
C972 C 0.301 0.96133 0.04095 0.0
N973 N 0.32321 0.98743 0.06944 0.0
C974 C 0.30617 0.95631 0.05937 0.0
C975 C 0.30689 0.97975 0.03716 0.0
C976 C 0.31744 0.96968 0.07354 0.0
C977 C 0.3182 0.99269 0.0517 0.0
C978 C 0.25491 0.90118 0.00518 0.0
C979 C 0.24436 0.86993 0.01306 0.0
N980 N 0.22774 0.8744 0.01666 0.0
C981 C 0.23774 0.90548 0.00903 0.0
C982 C 0.25827 0.88327 0.00726 0.0
C983 C 0.22418 0.89174 0.01478 0.0
C984 C 0.24312 0.94542 0.98126 0.0
N985 N 0.25826 0.95421 0.99393 0.0
C986 C 0.24315 0.9789 0.00369 0.0
C987 C 0.25896 0.97107 0.00426 0.0
C988 C 0.22656 0.96889 0.99278 0.0
C989 C 0.22682 0.95262 0.98045 0.0
H990 H 0.24319 0.93202 0.97319 0.0
H991 H 0.27125 0.97767 0.01412 0.0
C992 C 0.30281 0.90438 0.05164 0.0
N993 N 0.2862 0.90799 0.04424 0.0
C994 C 0.30372 0.89368 0.06697 0.0
C995 C 0.2704 0.89097 0.06734 0.0
C996 C 0.27024 0.90222 0.05222 0.0
C997 C 0.28728 0.88621 0.07455 0.0
H998 H 0.31542 0.90977 0.04555 0.0
H999 H 0.25732 0.90589 0.04656 0.0
C1000 C 0.28889 0.95179 0.96767 0.0
N1001 N 0.27245 0.9694 0.93912 0.0
C1002 C 0.2797 0.94146 0.9502 0.0
C1003 C 0.2897 0.97109 0.97061 0.0
C1004 C 0.2715 0.95063 0.93594 0.0
C1005 C 0.28129 0.97972 0.95601 0.0
C1006 C 0.32204 0.90647 0.00361 0.0
C1007 C 0.33814 0.91371 0.9955 0.0
C1008 C 0.31737 0.8873 0.00481 0.0
C1009 C 0.34924 0.90155 0.98853 0.0
C1010 C 0.32883 0.87561 0.99766 0.0
N1011 N 0.34439 0.88291 0.98973 0.0
C1012 C 0.34368 0.95711 0.03002 0.0
C1013 C 0.33674 0.97507 0.00454 0.0
C1014 C 0.3608 0.96911 0.03577 0.0
N1015 N 0.33221 0.96029 0.01462 0.0
C1016 C 0.35359 0.98756 0.00993 0.0
C1017 C 0.36597 0.98445 0.02552 0.0
H1018 H 0.33948 0.94519 0.03773 0.0
H1019 H 0.32728 0.97714 0.99236 0.0
C1020 C 0.2754 0.88604 0.96116 0.0
N1021 N 0.29116 0.89933 0.96606 0.0
C1022 C 0.2732 0.8739 0.94405 0.0
C1023 C 0.30348 0.88951 0.93711 0.0
C1024 C 0.30517 0.90129 0.95455 0.0
C1025 C 0.28716 0.87582 0.93161 0.0
H1026 H 0.26415 0.88531 0.97005 0.0
H1027 H 0.31722 0.91249 0.95849 0.0
O1028 O 0.29022 0.9483 0.02676 0.0
O1029 O 0.26826 0.91435 0.99919 0.0
O1030 O 0.29704 0.94307 0.98181 0.0
O1031 O 0.31094 0.91811 0.01044 0.0
H1032 H 0.30155 0.94227 0.06275 0.0
H1033 H 0.30324 0.98391 0.02296 0.0
H1034 H 0.3216 0.96594 0.08782 0.0
H1035 H 0.32308 0.0069 0.04884 0.0
H1036 H 0.2468 0.85604 0.01474 0.0
H1037 H 0.23492 0.91928 0.0077 0.0
H1038 H 0.27151 0.87973 0.00447 0.0
H1039 H 0.21083 0.89487 0.01779 0.0
H1040 H 0.24326 0.99151 0.01336 0.0
H1041 H 0.21414 0.94455 0.97203 0.0
H1042 H 0.3172 0.89112 0.07265 0.0
H1043 H 0.25742 0.88566 0.07289 0.0
H1044 H 0.27882 0.92653 0.94766 0.0
H1045 H 0.2964 0.97928 0.98417 0.0
H1046 H 0.26435 0.9428 0.92236 0.0
H1047 H 0.28172 0.99462 0.95815 0.0
H1048 H 0.34193 0.92851 0.99441 0.0
H1049 H 0.30504 0.88151 0.01119 0.0
H1050 H 0.36169 0.90693 0.98212 0.0
H1051 H 0.32536 0.86072 0.99844 0.0
H1052 H 0.37013 0.96604 0.04761 0.0
H1053 H 0.35707 0.99931 0.00176 0.0
H1054 H 0.26047 0.86343 0.94036 0.0
H1055 H 0.31442 0.8916 0.92768 0.0
Li1056 Li 0.27944 0.39475 0.03522 0.0
Li1057 Li 0.29379 0.37257 0.05373 0.0
Li1058 Li 0.31442 0.39821 0.03778 0.0
Li1059 Li 0.29406 0.37021 0.01738 0.0
C1060 C 0.29581 0.41437 0.0727 0.0
N1061 N 0.29126 0.44239 0.10052 0.0
C1062 C 0.28582 0.40996 0.08832 0.0
C1063 C 0.30377 0.43299 0.07142 0.0
C1064 C 0.28359 0.42434 0.10218 0.0
C1065 C 0.30123 0.44696 0.08557 0.0
C1066 C 0.2586 0.35219 0.03471 0.0
C1067 C 0.24797 0.31901 0.03437 0.0
N1068 N 0.23118 0.3221 0.03916 0.0
C1069 C 0.24122 0.35505 0.03954 0.0
C1070 C 0.26201 0.33404 0.03202 0.0
C1071 C 0.22755 0.33965 0.04177 0.0
C1072 C 0.25373 0.41428 0.01657 0.0
N1073 N 0.25899 0.40806 0.03374 0.0
C1074 C 0.23524 0.42077 0.04877 0.0
C1075 C 0.2498 0.4108 0.0496 0.0
C1076 C 0.23018 0.42805 0.03148 0.0
C1077 C 0.23952 0.42456 0.0152 0.0
H1078 H 0.26046 0.41122 0.00382 0.0
H1079 H 0.25367 0.40515 0.06287 0.0
C1080 C 0.30785 0.3567 0.08714 0.0
N1081 N 0.29205 0.3599 0.0771 0.0
C1082 C 0.30712 0.34901 0.10489 0.0
C1083 C 0.27387 0.34779 0.10161 0.0
C1084 C 0.27526 0.35561 0.08404 0.0
C1085 C 0.28996 0.34451 0.11246 0.0
H1086 H 0.32111 0.36041 0.08153 0.0
H1087 H 0.26294 0.35877 0.07625 0.0
C1088 C 0.29681 0.41105 0.00268 0.0
N1089 N 0.29736 0.43931 0.97908 0.0
C1090 C 0.29469 0.40683 0.98235 0.0
C1091 C 0.29918 0.42962 0.01102 0.0
C1092 C 0.29502 0.42133 0.97067 0.0
C1093 C 0.29942 0.44372 0.99884 0.0
C1094 C 0.32474 0.3573 0.03295 0.0
C1095 C 0.34076 0.36146 0.02362 0.0
C1096 C 0.31842 0.33904 0.0369 0.0
C1097 C 0.35005 0.34714 0.01807 0.0
C1098 C 0.3281 0.32511 0.03113 0.0
N1099 N 0.34357 0.32941 0.02189 0.0
C1100 C 0.34899 0.42156 0.05629 0.0
C1101 C 0.34329 0.42103 0.02193 0.0
C1102 C 0.36605 0.43407 0.05682 0.0
N1103 N 0.33795 0.41539 0.039 0.0
C1104 C 0.35994 0.43384 0.02186 0.0
C1105 C 0.37153 0.44047 0.03943 0.0
H1106 H 0.34455 0.41674 0.06965 0.0
H1107 H 0.33467 0.41554 0.00827 0.0
C1108 C 0.27773 0.34258 0.98417 0.0
N1109 N 0.29324 0.35517 0.99251 0.0
C1110 C 0.27707 0.33344 0.96522 0.0
C1111 C 0.30832 0.35033 0.96377 0.0
C1112 C 0.30837 0.35911 0.98269 0.0
C1113 C 0.29246 0.33738 0.95461 0.0
H1114 H 0.26566 0.33996 0.99197 0.0
H1115 H 0.32029 0.36964 0.98929 0.0
O1116 O 0.29835 0.40045 0.05914 0.0
O1117 O 0.27208 0.3671 0.03235 0.0
O1118 O 0.29637 0.397 0.01431 0.0
O1119 O 0.3155 0.37113 0.03855 0.0
H1120 H 0.27974 0.39561 0.08966 0.0
H1121 H 0.31198 0.43661 0.05975 0.0
H1122 H 0.27578 0.42113 0.11427 0.0
H1123 H 0.30726 0.46144 0.08473 0.0
H1124 H 0.25041 0.30488 0.03232 0.0
H1125 H 0.23834 0.36902 0.04158 0.0
H1126 H 0.2753 0.33159 0.02801 0.0
H1127 H 0.21404 0.34166 0.04555 0.0
H1128 H 0.22824 0.42302 0.0616 0.0
H1129 H 0.23571 0.42956 1.00145 0.0
H1130 H 0.31989 0.34662 0.11261 0.0
H1131 H 0.26038 0.34489 0.10694 0.0
H1132 H 0.29273 0.39251 0.97566 0.0
H1133 H 0.30064 0.43308 0.02669 0.0
H1134 H 0.29338 0.41827 0.95491 0.0
H1135 H 0.3012 0.45815 0.00509 0.0
H1136 H 0.34591 0.37559 0.02065 0.0
H1137 H 0.30626 0.33569 0.04447 0.0
H1138 H 0.36242 0.35012 0.01074 0.0
H1139 H 0.32335 0.3109 0.03404 0.0
H1140 H 0.37477 0.43885 0.07063 0.0
H1141 H 0.36389 0.4383 0.00815 0.0
H1142 H 0.26456 0.32351 0.95891 0.0
H1143 H 0.32038 0.35421 0.95615 0.0
Li1144 Li 0.77775 0.14299 0.06012 0.0
Li1145 Li 0.79072 0.11875 0.04587 0.0
Li1146 Li 0.7781 0.14059 0.0248 0.0
Li1147 Li 0.75849 0.11619 0.04047 0.0
C1148 C 0.81177 0.16258 0.05252 0.0
N1149 N 0.83684 0.19561 0.06573 0.0
C1150 C 0.82534 0.1634 0.06843 0.0
C1151 C 0.81095 0.17863 0.04338 0.0
C1152 C 0.83791 0.1802 0.07486 0.0
C1153 C 0.82369 0.19518 0.05029 0.0
C1154 C 0.78076 0.10526 0.07718 0.0
C1155 C 0.78557 0.07444 0.08281 0.0
N1156 N 0.79619 0.08181 0.10003 0.0
C1157 C 0.79183 0.11253 0.09489 0.0
C1158 C 0.77766 0.08606 0.07107 0.0
C1159 C 0.79945 0.10044 0.10625 0.0
C1160 C 0.77073 0.15395 0.09792 0.0
N1161 N 0.77748 0.16058 0.08188 0.0
C1162 C 0.78076 0.19205 0.09647 0.0
C1163 C 0.78212 0.17922 0.08074 0.0
C1164 C 0.77442 0.1856 0.11348 0.0
C1165 C 0.76926 0.16627 0.11408 0.0
H1166 H 0.76624 0.13908 0.09806 0.0
H1167 H 0.78627 0.18418 0.06742 0.0
C1168 C 0.809 0.09094 0.03344 0.0
N1169 N 0.80963 0.10477 0.04819 0.0
C1170 C 0.82354 0.0813 0.03276 0.0
C1171 C 0.83866 0.09959 0.06311 0.0
C1172 C 0.82372 0.10887 0.06322 0.0
C1173 C 0.83892 0.08619 0.04729 0.0
H1174 H 0.79765 0.08798 0.0217 0.0
H1175 H 0.82371 0.11977 0.07489 0.0
C1176 C 0.74628 0.15395 0.04728 0.0
N1177 N 0.72512 0.17725 0.06407 0.0
C1178 C 0.73287 0.14702 0.05908 0.0
C1179 C 0.7489 0.1727 0.04397 0.0
C1180 C 0.72231 0.15904 0.06743 0.0
C1181 C 0.73809 0.18426 0.05263 0.0
C1182 C 0.76354 0.10008 0.00609 0.0
C1183 C 0.75669 0.10563 0.9885 0.0
C1184 C 0.75842 0.08144 0.00947 0.0
C1185 C 0.74459 0.09252 0.97472 0.0
C1186 C 0.74627 0.06875 0.99535 0.0
N1187 N 0.73965 0.07451 0.97841 0.0
C1188 C 0.79466 0.15933 0.99458 0.0
C1189 C 0.76253 0.15891 0.99688 0.0
C1190 C 0.79447 0.17085 0.97967 0.0
N1191 N 0.77889 0.154 0.00304 0.0
C1192 C 0.76171 0.17036 0.98216 0.0
C1193 C 0.77789 0.17676 0.97362 0.0
H1194 H 0.80747 0.15513 0.99983 0.0
H1195 H 0.75014 0.15408 0.00361 0.0
C1196 C 0.72974 0.08826 0.04925 0.0
N1197 N 0.73489 0.10094 0.03682 0.0
C1198 C 0.7115 0.07812 0.04701 0.0
C1199 C 0.70439 0.09446 0.01933 0.0
C1200 C 0.72277 0.10415 0.02201 0.0
C1201 C 0.69862 0.0815 0.03212 0.0
H1202 H 0.73953 0.08653 0.0613 0.0
H1203 H 0.72731 0.11463 0.01265 0.0
O1204 O 0.79991 0.14602 0.04542 0.0
O1205 O 0.77299 0.11685 0.06592 0.0
O1206 O 0.75691 0.14247 0.03914 0.0
O1207 O 0.77535 0.11278 0.01982 0.0
H1208 H 0.82621 0.15123 0.07576 0.0
H1209 H 0.80032 0.17849 0.03138 0.0
H1210 H 0.84853 0.18098 0.0871 0.0
H1211 H 0.8231 0.2077 0.04342 0.0
H1212 H 0.7833 0.05958 0.07821 0.0
H1213 H 0.79475 0.12737 0.09973 0.0
H1214 H 0.7694 0.08018 0.0573 0.0
H1215 H 0.80804 0.10589 0.11998 0.0
H1216 H 0.78434 0.20685 0.09521 0.0
H1217 H 0.76431 0.16071 0.12693 0.0
H1218 H 0.82334 0.07095 0.02038 0.0
H1219 H 0.8504 0.10374 0.07449 0.0
H1220 H 0.73074 0.13257 0.06187 0.0
H1221 H 0.75938 0.17833 0.03506 0.0
H1222 H 0.7119 0.15389 0.07663 0.0
H1223 H 0.74005 0.19883 0.0503 0.0
H1224 H 0.76064 0.11989 0.98547 0.0
H1225 H 0.76363 0.07683 0.02292 0.0
H1226 H 0.73914 0.09666 0.96109 0.0
H1227 H 0.74209 0.05433 0.99785 0.0
H1228 H 0.80718 0.17545 0.97331 0.0
H1229 H 0.74853 0.17419 0.9775 0.0
H1230 H 0.70726 0.06844 0.05732 0.0
H1231 H 0.69465 0.09738 0.00777 0.0
Li1232 Li 0.19487 0.55741 0.25722 0.0
Li1233 Li 0.17039 0.53982 0.27395 0.0
Li1234 Li 0.18876 0.52397 0.2515 0.0
Li1235 Li 0.16678 0.54062 0.23955 0.0
C1236 C 0.20775 0.54742 0.29447 0.0
N1237 N 0.22853 0.5633 0.32962 0.0
C1238 C 0.20326 0.56298 0.30488 0.0
C1239 C 0.22289 0.54002 0.30185 0.0
C1240 C 0.21389 0.57077 0.32267 0.0
C1241 C 0.23321 0.54824 0.31965 0.0
C1242 C 0.15413 0.56962 0.25637 0.0
C1243 C 0.121 0.56845 0.256 0.0
N1244 N 0.12294 0.58506 0.24851 0.0
C1245 C 0.15579 0.58673 0.24876 0.0
C1246 C 0.1366 0.56046 0.26012 0.0
C1247 C 0.13986 0.59428 0.24486 0.0
C1248 C 0.20811 0.5913 0.24643 0.0
N1249 N 0.21268 0.57956 0.25921 0.0
C1250 C 0.2384 0.60268 0.27513 0.0
C1251 C 0.22799 0.58451 0.27281 0.0
C1252 C 0.23308 0.61553 0.26307 0.0
C1253 C 0.21811 0.60952 0.24816 0.0
H1254 H 0.19622 0.58661 0.23536 0.0
H1255 H 0.23189 0.57465 0.28219 0.0
C1256 C 0.15249 0.52242 0.30349 0.0
N1257 N 0.15834 0.53892 0.29654 0.0
C1258 C 0.14201 0.52186 0.31926 0.0
C1259 C 0.14413 0.5553 0.32033 0.0
C1260 C 0.15455 0.5552 0.3047 0.0
C1261 C 0.13766 0.53849 0.32778 0.0
H1262 H 0.15566 0.50968 0.29654 0.0
H1263 H 0.1592 0.56807 0.2987 0.0
C1264 C 0.20954 0.54225 0.22599 0.0
N1265 N 0.24455 0.54321 0.2141 0.0
C1266 C 0.2119 0.54219 0.2062 0.0
C1267 C 0.22503 0.54276 0.23973 0.0
C1268 C 0.22969 0.54268 0.20049 0.0
C1269 C 0.2426 0.54326 0.23343 0.0
C1270 C 0.14784 0.50499 0.24391 0.0
C1271 C 0.15035 0.49533 0.22625 0.0
C1272 C 0.13091 0.5006 0.25164 0.0
C1273 C 0.13574 0.48145 0.21651 0.0
C1274 C 0.11665 0.48665 0.24144 0.0
N1275 N 0.11934 0.47743 0.22424 0.0
C1276 C 0.20393 0.49636 0.26499 0.0
C1277 C 0.20398 0.49611 0.23066 0.0
C1278 C 0.21365 0.4819 0.26498 0.0
N1279 N 0.19964 0.50329 0.2481 0.0
C1280 C 0.2137 0.48145 0.22993 0.0
C1281 C 0.21891 0.47453 0.24737 0.0
H1282 H 0.19995 0.50229 0.2785 0.0
H1283 H 0.20016 0.50193 0.21744 0.0
C1284 C 0.15634 0.54739 0.20206 0.0
N1285 N 0.14929 0.541 0.21804 0.0
C1286 C 0.14449 0.54744 0.1851 0.0
C1287 C 0.11826 0.53507 0.20172 0.0
C1288 C 0.13066 0.53502 0.21825 0.0
C1289 C 0.12519 0.5411 0.18478 0.0
H1290 H 0.17122 0.55224 0.20244 0.0
H1291 H 0.12538 0.5302 0.23121 0.0
O1292 O 0.19779 0.53972 0.27686 0.0
O1293 O 0.16958 0.56198 0.26034 0.0
O1294 O 0.19207 0.54159 0.23163 0.0
O1295 O 0.16198 0.51848 0.25383 0.0
H1296 H 0.19203 0.56926 0.29905 0.0
H1297 H 0.22675 0.52817 0.29381 0.0
H1298 H 0.21062 0.58285 0.33086 0.0
H1299 H 0.24499 0.54269 0.32551 0.0
H1300 H 0.10734 0.56141 0.25868 0.0
H1301 H 0.16921 0.59422 0.24603 0.0
H1302 H 0.13497 0.54712 0.26581 0.0
H1303 H 0.14096 0.60751 0.23897 0.0
H1304 H 0.25018 0.60676 0.28646 0.0
H1305 H 0.21361 0.61903 0.23853 0.0
H1306 H 0.13734 0.50865 0.32469 0.0
H1307 H 0.14076 0.56836 0.32618 0.0
H1308 H 0.20008 0.54166 0.19533 0.0
H1309 H 0.22359 0.54268 0.25508 0.0
H1310 H 0.23169 0.54261 0.18521 0.0
H1311 H 0.25468 0.54365 0.24391 0.0
H1312 H 0.16338 0.4986 0.22009 0.0
H1313 H 0.12878 0.50799 0.26531 0.0
H1314 H 0.13744 0.47385 0.2028 0.0
H1315 H 0.10344 0.48315 0.24721 0.0
H1316 H 0.21698 0.47648 0.27862 0.0
H1317 H 0.2174 0.47586 0.2161 0.0
H1318 H 0.15044 0.552 0.17228 0.0
H1319 H 0.10344 0.53041 0.2022 0.0
Li1320 Li 0.77838 0.89546 0.53671 0.0
Li1321 Li 0.79372 0.8729 0.55407 0.0
Li1322 Li 0.81302 0.89883 0.53764 0.0
Li1323 Li 0.79263 0.87101 0.51717 0.0
C1324 C 0.79586 0.91431 0.57405 0.0
N1325 N 0.79175 0.94171 0.6028 0.0
C1326 C 0.78863 0.90937 0.59114 0.0
C1327 C 0.80118 0.93318 0.57167 0.0
C1328 C 0.78661 0.92343 0.60548 0.0
C1329 C 0.79895 0.94682 0.58635 0.0
C1330 C 0.75716 0.85297 0.53369 0.0
C1331 C 0.74407 0.81997 0.52745 0.0
N1332 N 0.72791 0.82327 0.53383 0.0
C1333 C 0.74038 0.85607 0.54003 0.0
C1334 C 0.75901 0.83481 0.5272 0.0
C1335 C 0.72577 0.84086 0.54006 0.0
C1336 C 0.75038 0.91212 0.51853 0.0
N1337 N 0.75782 0.90854 0.5362 0.0
C1338 C 0.73585 0.92326 0.55219 0.0
C1339 C 0.7507 0.91369 0.55286 0.0
C1340 C 0.72801 0.9274 0.53416 0.0
C1341 C 0.73546 0.92153 0.51716 0.0
H1342 H 0.75598 0.90756 0.50542 0.0
H1343 H 0.75645 0.91031 0.56671 0.0
C1344 C 0.80879 0.85859 0.58828 0.0
N1345 N 0.79269 0.8598 0.57729 0.0
C1346 C 0.80826 0.85083 0.60602 0.0
C1347 C 0.77461 0.84542 0.60077 0.0
C1348 C 0.77579 0.85337 0.58324 0.0
C1349 C 0.79098 0.84418 0.6126 0.0
H1350 H 0.8221 0.86398 0.58346 0.0
H1351 H 0.76315 0.85492 0.57472 0.0
C1352 C 0.79722 0.91219 0.50368 0.0
N1353 N 0.80372 0.94101 0.4809 0.0
C1354 C 0.80116 0.9086 0.48449 0.0
C1355 C 0.79644 0.93038 0.51124 0.0
C1356 C 0.80445 0.92338 0.47322 0.0
C1357 C 0.79981 0.94478 0.49951 0.0
C1358 C 0.82368 0.85729 0.53489 0.0
C1359 C 0.84177 0.86037 0.52954 0.0
C1360 C 0.81505 0.83934 0.5379 0.0
C1361 C 0.85083 0.8453 0.52699 0.0
C1362 C 0.82458 0.82464 0.53521 0.0
N1363 N 0.84212 0.82789 0.52984 0.0
C1364 C 0.84542 0.9268 0.55432 0.0
C1365 C 0.8433 0.9172 0.52037 0.0
C1366 C 0.86219 0.9394 0.55369 0.0
N1367 N 0.83629 0.9161 0.53776 0.0
C1368 C 0.85985 0.92972 0.51902 0.0
C1369 C 0.86965 0.94109 0.53582 0.0
H1370 H 0.83974 0.9255 0.56805 0.0
H1371 H 0.83599 0.90832 0.50746 0.0
C1372 C 0.77392 0.85068 0.48072 0.0
N1373 N 0.7908 0.85623 0.49188 0.0
C1374 C 0.77271 0.84211 0.46145 0.0
C1375 C 0.80618 0.84477 0.46555 0.0
C1376 C 0.80677 0.85345 0.48463 0.0
C1377 C 0.78901 0.83916 0.45352 0.0
H1378 H 0.76143 0.85336 0.48661 0.0
H1379 H 0.8201 0.85858 0.49339 0.0
O1380 O 0.79808 0.90073 0.55996 0.0
O1381 O 0.77151 0.86772 0.5334 0.0
O1382 O 0.79389 0.89788 0.51487 0.0
O1383 O 0.81464 0.87189 0.53746 0.0
H1384 H 0.78455 0.89483 0.59327 0.0
H1385 H 0.8071 0.93725 0.5587 0.0
H1386 H 0.78095 0.91981 0.61874 0.0
H1387 H 0.80299 0.96148 0.58469 0.0
H1388 H 0.7453 0.80583 0.5225 0.0
H1389 H 0.7387 0.87008 0.54496 0.0
H1390 H 0.77178 0.83223 0.52189 0.0
H1391 H 0.71272 0.84303 0.54502 0.0
H1392 H 0.73071 0.92752 0.56571 0.0
H1393 H 0.72965 0.92393 0.50285 0.0
H1394 H 0.82127 0.85008 0.6145 0.0
H1395 H 0.76097 0.84083 0.60529 0.0
H1396 H 0.80172 0.89456 0.4784 0.0
H1397 H 0.79312 0.93332 0.52595 0.0
H1398 H 0.80756 0.92083 0.45836 0.0
H1399 H 0.79926 0.95894 0.50517 0.0
H1400 H 0.84866 0.87425 0.52727 0.0
H1401 H 0.80118 0.83681 0.54236 0.0
H1402 H 0.8648 0.84745 0.52275 0.0
H1403 H 0.81806 0.81065 0.53744 0.0
H1404 H 0.86935 0.94753 0.56713 0.0
H1405 H 0.86479 0.93057 0.50486 0.0
H1406 H 0.75916 0.83797 0.45278 0.0
H1407 H 0.81914 0.84312 0.46001 0.0
Li1408 Li 0.94279 0.01744 0.28316 0.0
Li1409 Li 0.91525 0.99715 0.26212 0.0
Li1410 Li 0.94054 0.01804 0.2465 0.0
Li1411 Li 0.91793 0.03181 0.26438 0.0
C1412 C 0.95628 0.98685 0.26583 0.0
N1413 N 0.98444 0.96754 0.27428 0.0
C1414 C 0.9519 0.96831 0.26971 0.0
C1415 C 0.97494 0.99554 0.2661 0.0
C1416 C 0.96635 0.9588 0.274 0.0
C1417 C 0.98899 0.98555 0.27043 0.0
C1418 C 0.90221 0.01058 0.2973 0.0
C1419 C 0.87004 1.00658 0.3036 0.0
N1420 N 0.87488 1.00111 0.32127 0.0
C1421 C 0.90689 1.00509 0.31562 0.0
C1422 C 0.88366 0.01149 0.29131 0.0
C1423 C 0.89287 1.00029 0.32749 0.0
C1424 C 0.96325 0.03512 0.32006 0.0
N1425 N 0.95754 0.01849 0.30847 0.0
C1426 C 0.96854 1.0023 0.33436 0.0
C1427 C 0.96005 1.00226 0.3153 0.0
C1428 C 0.97419 0.01917 0.34696 0.0
C1429 C 0.97158 0.03578 0.33936 0.0
H1430 H 0.96073 0.04783 0.31455 0.0
H1431 H 0.95487 0.98911 0.30624 0.0
C1432 C 0.88761 0.96423 0.2452 0.0
N1433 N 0.89879 0.97321 0.26156 0.0
C1434 C 0.87554 0.94713 0.24586 0.0
C1435 C 0.88686 0.94869 0.28005 0.0
C1436 C 0.89881 0.96559 0.27867 0.0
C1437 C 0.87493 0.93912 0.26352 0.0
H1438 H 0.88806 0.97033 0.23163 0.0
H1439 H 0.90816 0.97268 0.29134 0.0
C1440 C 0.96025 0.05275 0.26431 0.0
N1441 N 0.98957 0.07962 0.25691 0.0
C1442 C 0.95675 0.06748 0.2541 0.0
C1443 C 0.97861 0.05182 0.27102 0.0
C1444 C 0.97178 0.08089 0.25042 0.0
C1445 C 0.99326 0.0655 0.26706 0.0
C1446 C 0.89684 0.01501 0.229 0.0
C1447 C 0.89837 0.02361 0.21195 0.0
C1448 C 0.87914 0.00814 0.23411 0.0
C1449 C 0.88219 0.02559 0.20056 0.0
C1450 C 0.86327 0.01035 0.22233 0.0
N1451 N 0.86511 0.01899 0.20595 0.0
C1452 C 0.9639 0.00806 0.2168 0.0
C1453 C 0.95108 0.03496 0.21288 0.0
C1454 C 0.9718 0.00955 0.1992 0.0
N1455 N 0.95367 0.02064 0.22329 0.0
C1456 C 0.95838 0.03674 0.19506 0.0
C1457 C 0.9688 0.02386 0.18788 0.0
H1458 H 0.96559 0.99658 0.225 0.0
H1459 H 0.94289 0.04479 0.21816 0.0
C1460 C 0.89845 0.05691 0.28337 0.0
N1461 N 0.90441 0.05196 0.26599 0.0
C1462 C 0.88827 0.07119 0.28528 0.0
C1463 C 0.8913 0.07579 0.25162 0.0
C1464 C 0.90125 0.06124 0.2503 0.0
C1465 C 0.88448 0.08079 0.26924 0.0
H1466 H 0.90164 0.04981 0.29585 0.0
H1467 H 0.90654 0.05744 0.23677 0.0
O1468 O 0.94232 0.99644 0.26187 0.0
O1469 O 0.9158 0.01542 0.28553 0.0
O1470 O 0.94572 0.03959 0.26819 0.0
O1471 O 0.91257 0.01293 0.24033 0.0
H1472 H 0.93749 0.96139 0.26952 0.0
H1473 H 0.97852 0.00981 0.26292 0.0
H1474 H 0.96318 0.94447 0.27713 0.0
H1475 H 1.00351 0.9921 0.27072 0.0
H1476 H 0.85564 0.00722 0.29912 0.0
H1477 H 0.92119 1.00447 0.32058 0.0
H1478 H 0.87985 0.01625 0.2775 0.0
H1479 H 0.89628 0.99593 0.34165 0.0
H1480 H 0.9704 0.9891 0.33918 0.0
H1481 H 0.97529 0.04915 0.3484 0.0
H1482 H 0.86694 0.94016 0.2326 0.0
H1483 H 0.88688 0.94333 0.29405 0.0
H1484 H 0.94259 0.06851 0.24901 0.0
H1485 H 0.98151 0.04073 0.27933 0.0
H1486 H 0.96929 0.09231 0.24244 0.0
H1487 H 1.00756 0.06493 0.27212 0.0
H1488 H 0.91188 0.02875 0.20752 0.0
H1489 H 0.87763 1.00096 0.24689 0.0
H1490 H 0.8832 0.03233 0.1874 0.0
H1491 H 0.8495 1.00512 0.22616 0.0
H1492 H 0.97963 0.99923 0.19414 0.0
H1493 H 0.95583 0.04806 0.18691 0.0
H1494 H 0.88362 0.07485 0.29925 0.0
H1495 H 0.88873 0.08287 0.23892 0.0
Li1496 Li 0.27495 0.64269 0.55898 0.0
Li1497 Li 0.29093 0.62008 0.54509 0.0
Li1498 Li 0.27514 0.64016 0.52431 0.0
Li1499 Li 0.25758 0.6147 0.54018 0.0
C1500 C 0.3101 0.66326 0.54813 0.0
N1501 N 0.33781 0.69509 0.5539 0.0
C1502 C 0.32728 0.66326 0.55886 0.0
C1503 C 0.30705 0.67941 0.54024 0.0
C1504 C 0.34111 0.6795 0.56163 0.0
C1505 C 0.32121 0.69538 0.54338 0.0
C1506 C 0.27593 0.60207 0.57476 0.0
C1507 C 0.27548 0.56911 0.57481 0.0
N1508 N 0.28045 0.57197 0.59449 0.0
C1509 C 0.2811 0.6047 0.59499 0.0
C1510 C 0.27314 0.58415 0.56458 0.0
C1511 C 0.28329 0.5893 0.6047 0.0
C1512 C 0.26575 0.65095 0.59554 0.0
N1513 N 0.27475 0.65887 0.58135 0.0
C1514 C 0.28259 0.68843 0.60082 0.0
C1515 C 0.28282 0.67727 0.58345 0.0
C1516 C 0.27402 0.68045 0.61604 0.0
C1517 C 0.26531 0.66152 0.6132 0.0
H1518 H 0.25903 0.63636 0.59312 0.0
H1519 H 0.28928 0.68333 0.57169 0.0
C1520 C 0.31595 0.60065 0.53147 0.0
N1521 N 0.31107 0.60851 0.54821 0.0
C1522 C 0.33004 0.59045 0.53229 0.0
C1523 C 0.33396 0.59684 0.56764 0.0
C1524 C 0.31985 0.60716 0.5661 0.0
C1525 C 0.33904 0.5882 0.55055 0.0
H1526 H 0.30885 0.60232 0.51751 0.0
H1527 H 0.31578 0.61394 0.57912 0.0
C1528 C 0.24314 0.65163 0.5477 0.0
N1529 N 0.22313 0.67468 0.56685 0.0
C1530 C 0.22843 0.64399 0.55762 0.0
C1531 C 0.24763 0.67097 0.54743 0.0
C1532 C 0.21848 0.65589 0.56721 0.0
C1533 C 0.23738 0.6824 0.55725 0.0
C1534 C 0.26716 0.59945 0.50442 0.0
C1535 C 0.25804 0.60443 0.48761 0.0
C1536 C 0.26893 0.58087 0.50515 0.0
C1537 C 0.25039 0.59064 0.47203 0.0
C1538 C 0.26109 0.56748 0.48926 0.0
N1539 N 0.25204 0.5726 0.47318 0.0
C1540 C 0.29035 0.65719 0.49284 0.0
C1541 C 0.25948 0.65997 0.49822 0.0
C1542 C 0.28979 0.66814 0.47748 0.0
N1543 N 0.2753 0.65345 0.50278 0.0
C1544 C 0.25838 0.67105 0.48324 0.0
C1545 C 0.27359 0.67516 0.47256 0.0
H1546 H 0.30277 0.65181 0.49697 0.0
H1547 H 0.24774 0.65666 0.50635 0.0
C1548 C 0.22941 0.58946 0.5535 0.0
N1549 N 0.23527 0.5972 0.5376 0.0
C1550 C 0.21163 0.57849 0.55227 0.0
C1551 C 0.20627 0.58385 0.51841 0.0
C1552 C 0.22416 0.59462 0.52027 0.0
C1553 C 0.19978 0.57603 0.53468 0.0
H1554 H 0.23804 0.59265 0.56743 0.0
H1555 H 0.22877 0.60181 0.50826 0.0
O1556 O 0.2968 0.6472 0.54447 0.0
O1557 O 0.27367 0.61703 0.56505 0.0
O1558 O 0.2532 0.64024 0.53842 0.0
O1559 O 0.27498 0.61284 0.51971 0.0
H1560 H 0.32994 0.65078 0.56483 0.0
H1561 H 0.29382 0.6797 0.53195 0.0
H1562 H 0.3545 0.67969 0.56987 0.0
H1563 H 0.31901 0.70799 0.53742 0.0
H1564 H 0.27329 0.55516 0.5671 0.0
H1565 H 0.2835 0.6185 0.60311 0.0
H1566 H 0.269 0.58189 0.549 0.0
H1567 H 0.28727 0.59113 0.62035 0.0
H1568 H 0.28903 0.70312 0.60232 0.0
H1569 H 0.25858 0.65486 0.62461 0.0
H1570 H 0.33404 0.58465 0.5187 0.0
H1571 H 0.34074 0.59558 0.58195 0.0
H1572 H 0.22478 0.62906 0.55797 0.0
H1573 H 0.25907 0.67712 0.53994 0.0
H1574 H 0.20707 0.65018 0.57497 0.0
H1575 H 0.24078 0.6974 0.55728 0.0
H1576 H 0.25668 0.61875 0.48667 0.0
H1577 H 0.27644 0.57681 0.51773 0.0
H1578 H 0.24315 0.59428 0.45901 0.0
H1579 H 0.26229 0.55304 0.48967 0.0
H1580 H 0.30174 0.6709 0.46947 0.0
H1581 H 0.24576 0.67646 0.48017 0.0
H1582 H 0.20675 0.57307 0.56522 0.0
H1583 H 0.19725 0.58239 0.50472 0.0
Li1584 Li 0.41528 0.4984 0.76123 0.0
Li1585 Li 0.44266 0.51822 0.7828 0.0
Li1586 Li 0.41829 0.53319 0.76394 0.0
Li1587 Li 0.44095 0.51911 0.74626 0.0
C1588 C 0.40183 0.51165 0.79635 0.0
N1589 N 0.37418 0.50224 0.81997 0.0
C1590 C 0.40586 0.50414 0.81369 0.0
C1591 C 0.38381 0.51469 0.79123 0.0
C1592 C 0.39167 0.49938 0.82537 0.0
C1593 C 0.37 0.50976 0.80329 0.0
C1594 C 0.45625 0.48784 0.76561 0.0
C1595 C 0.489 0.48691 0.77141 0.0
N1596 N 0.48444 0.46868 0.7745 0.0
C1597 C 0.45187 0.46909 0.76876 0.0
C1598 C 0.47494 0.49684 0.76689 0.0
C1599 C 0.46633 0.45965 0.77327 0.0
C1600 C 0.38785 0.4659 0.74304 0.0
N1601 N 0.39879 0.47434 0.75976 0.0
C1602 C 0.38743 0.44842 0.7767 0.0
C1603 C 0.39891 0.46583 0.77632 0.0
C1604 C 0.37584 0.43933 0.75974 0.0
C1605 C 0.3762 0.44836 0.74272 0.0
H1606 H 0.38827 0.47268 0.72989 0.0
H1607 H 0.4081 0.47251 0.78927 0.0
C1608 C 0.46303 0.53551 0.81985 0.0
N1609 N 0.45708 0.51894 0.80822 0.0
C1610 C 0.47119 0.53601 0.8392 0.0
C1611 C 0.46747 0.50246 0.83416 0.0
C1612 C 0.45919 0.50259 0.81505 0.0
C1613 C 0.47335 0.51929 0.8468 0.0
H1614 H 0.46086 0.54833 0.81433 0.0
H1615 H 0.45386 0.48949 0.80592 0.0
C1616 C 0.39703 0.51582 0.72842 0.0
N1617 N 0.36465 0.51838 0.70561 0.0
C1618 C 0.39794 0.52274 0.71037 0.0
C1619 C 0.37962 0.50989 0.73467 0.0
C1620 C 0.38143 0.52403 0.69911 0.0
C1621 C 0.36342 0.51136 0.72299 0.0
C1622 C 0.46029 0.55376 0.76359 0.0
C1623 C 0.4562 0.56779 0.75261 0.0
C1624 C 0.47884 0.55356 0.77033 0.0
C1625 C 0.47084 0.58125 0.74823 0.0
C1626 C 0.49308 0.56727 0.76565 0.0
N1627 N 0.48882 0.5807 0.75477 0.0
C1628 C 0.40151 0.56035 0.78365 0.0
C1629 C 0.40024 0.56168 0.74955 0.0
C1630 C 0.39207 0.57521 0.78581 0.0
N1631 N 0.4052 0.55373 0.7657 0.0
C1632 C 0.39075 0.57658 0.75103 0.0
C1633 C 0.38643 0.58352 0.76935 0.0
H1634 H 0.40595 0.55409 0.79636 0.0
H1635 H 0.4037 0.55654 0.73549 0.0
C1636 C 0.46544 0.50967 0.71748 0.0
N1637 N 0.45423 0.52159 0.72316 0.0
C1638 C 0.47338 0.51097 0.69989 0.0
C1639 C 0.45792 0.53654 0.69406 0.0
C1640 C 0.45065 0.53504 0.71192 0.0
C1641 C 0.46937 0.52435 0.68777 0.0
H1642 H 0.4679 0.49883 0.72631 0.0
H1643 H 0.44169 0.54435 0.71658 0.0
O1644 O 0.4156 0.51649 0.78479 0.0
O1645 O 0.44227 0.49736 0.76143 0.0
O1646 O 0.41309 0.51459 0.73972 0.0
O1647 O 0.44616 0.54054 0.76812 0.0
H1648 H 0.41977 0.50189 0.81801 0.0
H1649 H 0.38055 0.52104 0.77822 0.0
H1650 H 0.39457 0.49343 0.83876 0.0
H1651 H 0.35599 0.51199 0.79946 0.0
H1652 H 0.50353 0.49369 0.77245 0.0
H1653 H 0.43746 0.46193 0.76781 0.0
H1654 H 0.47852 0.5113 0.76435 0.0
H1655 H 0.46316 0.44514 0.77582 0.0
H1656 H 0.38759 0.44222 0.79025 0.0
H1657 H 0.36782 0.44182 0.72918 0.0
H1658 H 0.47511 0.54936 0.84827 0.0
H1659 H 0.46899 0.48919 0.83901 0.0
H1660 H 0.41121 0.52711 0.70508 0.0
H1661 H 0.37861 0.50398 0.74828 0.0
H1662 H 0.38195 0.52948 0.68518 0.0
H1663 H 0.34986 0.50685 0.72769 0.0
H1664 H 0.44189 0.56823 0.74746 0.0
H1665 H 0.48219 0.54301 0.77919 0.0
H1666 H 0.4679 0.59214 0.73965 0.0
H1667 H 0.50752 0.56727 0.77072 0.0
H1668 H 0.38941 0.58027 0.80029 0.0
H1669 H 0.38662 0.58241 0.73789 0.0
H1670 H 0.48204 0.50121 0.69547 0.0
H1671 H 0.45455 0.54708 0.68518 0.0
Li1672 Li 0.66934 0.03723 0.77115 0.0
Li1673 Li 0.6965 0.05772 0.76046 0.0
Li1674 Li 0.67004 0.04079 0.73655 0.0
Li1675 Li 0.69242 0.02452 0.75163 0.0
C1676 C 0.6591 0.07307 0.75833 0.0
N1677 N 0.63667 0.0994 0.75662 0.0
C1678 C 0.66663 0.09133 0.75517 0.0
C1679 C 0.64023 0.06826 0.76086 0.0
C1680 C 0.65505 0.10442 0.75431 0.0
C1681 C 0.6291 0.08175 0.75987 0.0
C1682 C 0.71201 0.0412 0.7916 0.0
C1683 C 0.74509 0.04282 0.79933 0.0
N1684 N 0.74356 0.04725 0.81858 0.0
C1685 C 0.71071 0.04558 0.81146 0.0
C1686 C 0.72928 0.03964 0.78547 0.0
C1687 C 0.72684 0.04867 0.82487 0.0
C1688 C 0.6424 0.02078 0.79513 0.0
N1689 N 0.6552 0.03581 0.792 0.0
C1690 C 0.65077 0.05314 0.82146 0.0
C1691 C 0.65933 0.05183 0.80455 0.0
C1692 C 0.63777 0.03781 0.82539 0.0
C1693 C 0.63329 0.02155 0.81191 0.0
H1694 H 0.63949 0.00821 0.78482 0.0
H1695 H 0.66955 0.0635 0.80149 0.0
C1696 C 0.72043 0.08974 0.75392 0.0
N1697 N 0.71292 0.08034 0.76804 0.0
C1698 C 0.73081 0.10778 0.75872 0.0
C1699 C 0.7258 0.10589 0.79257 0.0
C1700 C 0.71539 0.0879 0.78706 0.0
C1701 C 0.73335 0.11616 0.77822 0.0
H1702 H 0.71758 0.08356 0.73882 0.0
H1703 H 0.70864 0.08026 0.7978 0.0
C1704 C 0.64887 1.00468 0.7422 0.0
N1705 N 0.61646 0.97881 0.72909 0.0
C1706 C 0.64975 0.9862 0.73587 0.0
C1707 C 0.63155 0.01005 0.74183 0.0
C1708 C 0.63319 0.97331 0.72932 0.0
C1709 C 0.61531 0.99676 0.73514 0.0
C1710 C 0.71032 0.04269 0.72218 0.0
C1711 C 0.70494 0.03563 0.70251 0.0
C1712 C 0.72929 0.04827 0.72917 0.0
C1713 C 0.71867 0.03405 0.69019 0.0
C1714 C 0.7426 0.04646 0.7164 0.0
N1715 N 0.73706 0.03944 0.69734 0.0
C1716 C 0.64751 0.05626 0.70969 0.0
C1717 C 0.65094 0.02508 0.70071 0.0
C1718 C 0.63519 0.05551 0.69289 0.0
N1719 N 0.65474 0.04103 0.71342 0.0
C1720 C 0.63892 0.0238 0.68356 0.0
C1721 C 0.63075 0.03908 0.67979 0.0
H1722 H 0.6512 0.06896 0.71968 0.0
H1723 H 0.65718 0.01332 0.70398 0.0
C1724 C 0.70167 0.99436 0.76495 0.0
N1725 N 0.70434 1.00421 0.7496 0.0
C1726 C 0.70978 0.97891 0.76676 0.0
C1727 C 0.72309 0.98375 0.73662 0.0
C1728 C 0.71457 0.99918 0.73535 0.0
C1729 C 0.72088 0.9736 0.75265 0.0
H1730 H 0.69321 0.99863 0.77584 0.0
H1731 H 0.71623 0.00706 0.72311 0.0
O1732 O 0.6702 0.06002 0.75893 0.0
O1733 O 0.69635 0.03821 0.7783 0.0
O1734 O 0.66496 0.01736 0.74883 0.0
O1735 O 0.69703 0.04467 0.73432 0.0
H1736 H 0.68122 0.0953 0.75321 0.0
H1737 H 0.63422 0.05428 0.76357 0.0
H1738 H 0.66066 0.11857 0.75176 0.0
H1739 H 0.61444 0.0782 0.76169 0.0
H1740 H 0.75857 0.04171 0.7948 0.0
H1741 H 0.69741 0.04668 0.81646 0.0
H1742 H 0.73045 0.0359 0.77022 0.0
H1743 H 0.72607 0.05218 0.84028 0.0
H1744 H 0.65434 0.06597 0.83146 0.0
H1745 H 0.62331 0.0095 0.81461 0.0
H1746 H 0.73593 0.11542 0.74711 0.0
H1747 H 0.72742 0.11191 0.80772 0.0
H1748 H 0.66308 0.98185 0.73609 0.0
H1749 H 0.63067 0.02431 0.74658 0.0
H1750 H 0.63365 0.95894 0.72443 0.0
H1751 H 0.6018 1.0007 0.73475 0.0
H1752 H 0.69032 0.03142 0.6968 0.0
H1753 H 0.73372 0.0541 0.74425 0.0
H1754 H 0.71471 0.02857 0.67495 0.0
H1755 H 0.75734 0.05071 0.72162 0.0
H1756 H 0.62926 0.0676 0.69009 0.0
H1757 H 0.63573 0.01097 0.67358 0.0
H1758 H 0.70729 0.97112 0.77905 0.0
H1759 H 0.73148 0.97997 0.72543 0.0
Li1760 Li 0.77013 0.68995 0.03328 0.0
Li1761 Li 0.78299 0.6648 0.01541 0.0
Li1762 Li 0.76843 0.68735 0.99631 0.0
Li1763 Li 0.74872 0.66235 0.01161 0.0
C1764 C 0.80347 0.70894 0.021 0.0
N1765 N 0.82895 0.74231 0.02949 0.0
C1766 C 0.82159 0.70921 0.02963 0.0
C1767 C 0.7983 0.7256 0.01663 0.0
C1768 C 0.83427 0.72623 0.03383 0.0
C1769 C 0.81139 0.74234 0.02106 0.0
C1770 C 0.77042 0.64965 0.04709 0.0
C1771 C 0.76952 0.61742 0.05198 0.0
N1772 N 0.77993 0.62308 0.06968 0.0
C1773 C 0.78099 0.65516 0.06538 0.0
C1774 C 0.76452 0.63065 0.04037 0.0
C1775 C 0.78571 0.64151 0.07656 0.0
C1776 C 0.75568 0.7082 0.06476 0.0
N1777 N 0.77191 0.70507 0.05837 0.0
C1778 C 0.7889 0.71872 0.0895 0.0
C1779 C 0.78839 0.71031 0.07026 0.0
C1780 C 0.77227 0.72178 0.09671 0.0
C1781 C 0.75556 0.71666 0.0838 0.0
H1782 H 0.74268 0.70361 0.05521 0.0
H1783 H 0.80106 0.70725 0.06512 0.0
C1784 C 0.80557 0.63959 1.00149 0.0
N1785 N 0.80311 0.65142 0.01702 0.0
C1786 C 0.82056 0.63023 0.00256 0.0
C1787 C 0.83037 0.64561 0.03546 0.0
C1788 C 0.81519 0.65462 0.03378 0.0
C1789 C 0.83328 0.63326 0.0197 0.0
H1790 H 0.79609 0.63763 0.98814 0.0
H1791 H 0.81314 0.66434 0.04578 0.0
C1792 C 0.73773 0.70233 0.00841 0.0
N1793 N 0.71632 0.72802 0.99853 0.0
C1794 C 0.72148 0.69668 0.99521 0.0
C1795 C 0.74308 0.721 0.01667 0.0
C1796 C 0.71084 0.7099 0.99038 0.0
C1797 C 0.73208 0.73378 0.01146 0.0
C1798 C 0.7567 0.64537 0.97678 0.0
C1799 C 0.74829 0.64937 0.95909 0.0
C1800 C 0.75634 0.62677 0.9799 0.0
C1801 C 0.73965 0.63466 0.94479 0.0
C1802 C 0.74752 0.61246 0.96526 0.0
N1803 N 0.73944 0.61667 0.94815 0.0
C1804 C 0.78182 0.69287 0.96021 0.0
C1805 C 0.76242 0.7142 0.96824 0.0
C1806 C 0.7841 0.69986 0.9423 0.0
N1807 N 0.77095 0.6999 0.97273 0.0
C1808 C 0.76444 0.7217 0.9505 0.0
C1809 C 0.77526 0.71442 0.93709 0.0
H1810 H 0.78856 0.68158 0.96404 0.0
H1811 H 0.7539 0.71976 0.97825 0.0
C1812 C 0.71979 0.64202 0.02874 0.0
N1813 N 0.72491 0.64561 0.01094 0.0
C1814 C 0.70289 0.63011 0.03024 0.0
C1815 C 0.69658 0.62574 0.99502 0.0
C1816 C 0.71359 0.63789 0.99421 0.0
C1817 C 0.691 0.62174 0.01324 0.0
H1818 H 0.72887 0.64846 0.04187 0.0
H1819 H 0.71761 0.64123 0.98021 0.0
O1820 O 0.79101 0.69236 0.01652 0.0
O1821 O 0.76576 0.66281 0.03589 0.0
O1822 O 0.74815 0.68956 0.01354 0.0
O1823 O 0.7655 0.65959 0.99081 0.0
H1824 H 0.82582 0.6964 0.03299 0.0
H1825 H 0.78437 0.72558 0.00982 0.0
H1826 H 0.84835 0.72666 0.0405 0.0
H1827 H 0.8076 0.75536 0.01774 0.0
H1828 H 0.76509 0.60266 0.04695 0.0
H1829 H 0.7856 0.66982 0.07082 0.0
H1830 H 0.75612 0.62617 0.02637 0.0
H1831 H 0.79396 0.64556 0.09071 0.0
H1832 H 0.8021 0.72208 0.09884 0.0
H1833 H 0.74241 0.71891 0.08842 0.0
H1834 H 0.82242 0.62106 0.98996 0.0
H1835 H 0.83972 0.64827 0.04901 0.0
H1836 H 0.71714 0.68224 0.98878 0.0
H1837 H 0.75559 0.72556 0.02698 0.0
H1838 H 0.69822 0.70575 0.98018 0.0
H1839 H 0.73606 0.74829 0.0177 0.0
H1840 H 0.74834 0.66368 0.95646 0.0
H1841 H 0.76288 0.62342 0.99343 0.0
H1842 H 0.73309 0.63755 0.93104 0.0
H1843 H 0.74714 0.59801 0.96747 0.0
H1844 H 0.79281 0.69394 0.93265 0.0
H1845 H 0.75724 0.73284 0.94713 0.0
H1846 H 0.69926 0.62735 0.04459 0.0
H1847 H 0.68772 0.61985 0.98155 0.0
Li1848 Li 0.86596 0.50293 0.78985 0.0
Li1849 Li 0.89299 0.52059 0.81224 0.0
Li1850 Li 0.86858 0.53496 0.79829 0.0
Li1851 Li 0.89058 0.52399 0.77706 0.0
C1852 C 0.85643 0.52248 0.83001 0.0
N1853 N 0.83638 0.53652 0.85771 0.0
C1854 C 0.86544 0.53066 0.84843 0.0
C1855 C 0.8372 0.52133 0.82573 0.0
C1856 C 0.85506 0.53769 0.86223 0.0
C1857 C 0.82732 0.52858 0.8399 0.0
C1858 C 0.90461 0.48984 0.79132 0.0
C1859 C 0.93535 0.483 0.78952 0.0
N1860 N 0.92931 0.4658 0.79495 0.0
C1861 C 0.89864 0.472 0.79664 0.0
C1862 C 0.92305 0.49532 0.78751 0.0
C1863 C 0.91137 0.46009 0.79849 0.0
C1864 C 0.85239 0.46834 0.76774 0.0
N1865 N 0.85052 0.47937 0.78409 0.0
C1866 C 0.82793 0.45533 0.79356 0.0
C1867 C 0.83852 0.4734 0.79686 0.0
C1868 C 0.82989 0.44343 0.77705 0.0
C1869 C 0.84202 0.45018 0.76382 0.0
H1870 H 0.8623 0.47354 0.75805 0.0
H1871 H 0.83755 0.48249 0.80983 0.0
C1872 C 0.91816 0.53745 0.84461 0.0
N1873 N 0.90964 0.52065 0.83462 0.0
C1874 C 0.93046 0.53829 0.86145 0.0
C1875 C 0.9244 0.50445 0.85783 0.0
C1876 C 0.91221 0.5043 0.84103 0.0
C1877 C 0.93376 0.52163 0.86814 0.0
H1878 H 0.91518 0.55022 0.83965 0.0
H1879 H 0.90465 0.49116 0.83326 0.0
C1880 C 0.84924 0.51175 0.75752 0.0
N1881 N 0.8216 0.49068 0.7298 0.0
C1882 C 0.853 0.50749 0.73838 0.0
C1883 C 0.83126 0.50566 0.76242 0.0
C1884 C 0.83888 0.49674 0.72461 0.0
C1885 C 0.81753 0.4949 0.74825 0.0
C1886 C 0.91237 0.55625 0.79999 0.0
C1887 C 0.91206 0.57492 0.79774 0.0
C1888 C 0.92946 0.55041 0.80228 0.0
C1889 C 0.92892 0.58746 0.79778 0.0
C1890 C 0.946 0.56338 0.80225 0.0
N1891 N 0.94539 0.58148 0.80001 0.0
C1892 C 0.86435 0.56885 0.81742 0.0
C1893 C 0.84 0.55488 0.79216 0.0
C1894 C 0.85713 0.58513 0.81932 0.0
N1895 N 0.85605 0.5545 0.80354 0.0
C1896 C 0.83224 0.57081 0.79362 0.0
C1897 C 0.8413 0.58646 0.80676 0.0
H1898 H 0.87715 0.56801 0.82622 0.0
H1899 H 0.83384 0.54327 0.78119 0.0
C1900 C 0.90269 0.50894 0.74464 0.0
N1901 N 0.90452 0.5257 0.75566 0.0
C1902 C 0.91303 0.50713 0.72908 0.0
C1903 C 0.9272 0.53994 0.73646 0.0
C1904 C 0.9162 0.5412 0.75172 0.0
C1905 C 0.92587 0.52262 0.72509 0.0
H1906 H 0.89324 0.49689 0.74813 0.0
H1907 H 0.91733 0.55442 0.7606 0.0
O1908 O 0.86632 0.51525 0.81641 0.0
O1909 O 0.89231 0.50166 0.78942 0.0
O1910 O 0.86299 0.52205 0.77128 0.0
O1911 O 0.89597 0.54386 0.80007 0.0
H1912 H 0.88026 0.5315 0.8521 0.0
H1913 H 0.82997 0.51498 0.81161 0.0
H1914 H 0.86185 0.54402 0.87655 0.0
H1915 H 0.81244 0.52785 0.83675 0.0
H1916 H 0.94968 0.48709 0.78669 0.0
H1917 H 0.88438 0.4675 0.79953 0.0
H1918 H 0.92782 0.50887 0.78291 0.0
H1919 H 0.90698 0.44632 0.80276 0.0
H1920 H 0.81866 0.45055 0.80404 0.0
H1921 H 0.84409 0.44126 0.75111 0.0
H1922 H 0.93707 0.55178 0.86933 0.0
H1923 H 0.92656 0.49132 0.86265 0.0
H1924 H 0.86662 0.51252 0.73412 0.0
H1925 H 0.82804 0.50889 0.77711 0.0
H1926 H 0.84166 0.49325 0.70977 0.0
H1927 H 0.80365 0.48988 0.75194 0.0
H1928 H 0.89894 0.57966 0.79595 0.0
H1929 H 0.92995 0.53608 0.80427 0.0
H1930 H 0.92889 0.60195 0.79603 0.0
H1931 H 0.95933 0.55906 0.80406 0.0
H1932 H 0.86444 0.59692 0.82964 0.0
H1933 H 0.82018 0.5714 0.78347 0.0
H1934 H 0.91108 0.49363 0.7204 0.0
H1935 H 0.93697 0.55223 0.734 0.0
Li1936 Li 0.78615 0.41949 0.51935 0.0
Li1937 Li 0.77503 0.44085 0.49786 0.0
Li1938 Li 0.78935 0.41628 0.48446 0.0
Li1939 Li 0.80693 0.44382 0.50604 0.0
C1940 C 0.75414 0.39749 0.49827 0.0
N1941 N 0.72963 0.3649 0.50185 0.0
C1942 C 0.73562 0.39795 0.50107 0.0
C1943 C 0.76019 0.38048 0.49722 0.0
C1944 C 0.72344 0.38131 0.50287 0.0
C1945 C 0.74758 0.36415 0.49908 0.0
C1946 C 0.79874 0.45991 0.53908 0.0
C1947 C 0.81565 0.49127 0.55038 0.0
N1948 N 0.82053 0.48579 0.56804 0.0
C1949 C 0.80375 0.45467 0.55743 0.0
C1950 C 0.80455 0.47843 0.53559 0.0
C1951 C 0.81483 0.46792 0.57184 0.0
C1952 C 0.79997 0.40313 0.54961 0.0
N1953 N 0.78349 0.40585 0.54078 0.0
C1954 C 0.76668 0.38977 0.56386 0.0
C1955 C 0.76696 0.39946 0.54747 0.0
C1956 C 0.78361 0.38713 0.5734 0.0
C1957 C 0.80035 0.39375 0.56601 0.0
H1958 H 0.81289 0.40867 0.54416 0.0
H1959 H 0.7541 0.40212 0.54034 0.0
C1960 C 0.7406 0.44477 0.47941 0.0
N1961 N 0.75536 0.45312 0.49281 0.0
C1962 C 0.72417 0.45177 0.47849 0.0
C1963 C 0.73923 0.47657 0.50403 0.0
C1964 C 0.75527 0.46907 0.50451 0.0
C1965 C 0.72328 0.46736 0.49153 0.0
H1966 H 0.7412 0.43197 0.47045 0.0
H1967 H 0.76719 0.47521 0.5151 0.0
C1968 C 0.8216 0.4067 0.50397 0.0
N1969 N 0.84788 0.38492 0.4975 0.0
C1970 C 0.83875 0.41458 0.49818 0.0
C1971 C 0.81791 0.38779 0.50666 0.0
C1972 C 0.85183 0.40333 0.49495 0.0
C1973 C 0.83134 0.377 0.50324 0.0
C1974 C 0.78654 0.45278 0.46636 0.0
C1975 C 0.77773 0.44399 0.44809 0.0
C1976 C 0.78735 0.47191 0.47124 0.0
C1977 C 0.76971 0.45446 0.43504 0.0
C1978 C 0.77912 0.48189 0.45782 0.0
N1979 N 0.77055 0.47303 0.44014 0.0
C1980 C 0.77091 0.39153 0.45296 0.0
C1981 C 0.80368 0.393 0.45691 0.0
C1982 C 0.76859 0.37795 0.43691 0.0
N1983 N 0.78821 0.39855 0.4627 0.0
C1984 C 0.80198 0.3792 0.44116 0.0
C1985 C 0.78426 0.37158 0.43109 0.0
H1986 H 0.75892 0.39658 0.45762 0.0
H1987 H 0.81733 0.39934 0.4643 0.0
C1988 C 0.8417 0.4589 0.52753 0.0
N1989 N 0.83006 0.46001 0.51133 0.0
C1990 C 0.85953 0.47003 0.53085 0.0
C1991 C 0.85277 0.48329 0.5009 0.0
C1992 C 0.83509 0.47197 0.4982 0.0
C1993 C 0.86529 0.48208 0.51718 0.0
H1994 H 0.83728 0.44897 0.5375 0.0
H1995 H 0.82561 0.47229 0.48533 0.0
O1996 O 0.76626 0.4137 0.49668 0.0
O1997 O 0.78806 0.44704 0.5247 0.0
O1998 O 0.80863 0.41751 0.50729 0.0
O1999 O 0.79446 0.44275 0.47934 0.0
H2000 H 0.73076 0.41103 0.50196 0.0
H2001 H 0.77444 0.3799 0.49496 0.0
H2002 H 0.70908 0.38145 0.5051 0.0
H2003 H 0.75207 0.35088 0.49831 0.0
H2004 H 0.82043 0.50558 0.54778 0.0
H2005 H 0.79913 0.44054 0.56057 0.0
H2006 H 0.80086 0.48277 0.52149 0.0
H2007 H 0.81888 0.46401 0.58607 0.0
H2008 H 0.75355 0.38489 0.56935 0.0
H2009 H 0.81365 0.39185 0.57301 0.0
H2010 H 0.71189 0.44423 0.46898 0.0
H2011 H 0.73874 0.48847 0.51446 0.0
H2012 H 0.84185 0.42914 0.4959 0.0
H2013 H 0.80483 0.3815 0.51137 0.0
H2014 H 0.86511 0.40921 0.49035 0.0
H2015 H 0.82863 0.36233 0.50518 0.0
H2016 H 0.77711 0.42925 0.44399 0.0
H2017 H 0.79404 0.47893 0.48535 0.0
H2018 H 0.76283 0.44783 0.42085 0.0
H2019 H 0.77954 0.49666 0.46146 0.0
H2020 H 0.75477 0.37244 0.42918 0.0
H2021 H 0.81437 0.37482 0.43661 0.0
H2022 H 0.869 0.46855 0.54339 0.0
H2023 H 0.85685 0.49244 0.49007 0.0
Li2024 Li 0.62571 0.54302 0.30371 0.0
Li2025 Li 0.65074 0.56188 0.28816 0.0
Li2026 Li 0.62312 0.54059 0.26689 0.0
Li2027 Li 0.64782 0.52754 0.28484 0.0
C2028 C 0.60998 0.57229 0.29174 0.0
N2029 N 0.58269 0.59135 0.3024 0.0
C2030 C 0.61458 0.58796 0.30584 0.0
C2031 C 0.5915 0.56631 0.28305 0.0
C2032 C 0.60058 0.5974 0.31104 0.0
C2033 C 0.5779 0.57613 0.28865 0.0
C2034 C 0.66748 0.55529 0.32286 0.0
C2035 C 0.70007 0.56353 0.33589 0.0
N2036 N 0.69573 0.57483 0.35083 0.0
C2037 C 0.66333 0.56695 0.33837 0.0
C2038 C 0.68598 0.55352 0.32163 0.0
C2039 C 0.67782 0.57673 0.35235 0.0
C2040 C 0.62291 0.53427 0.34206 0.0
N2041 N 0.61334 0.54106 0.32742 0.0
C2042 C 0.58892 0.54395 0.34755 0.0
C2043 C 0.5965 0.54573 0.32983 0.0
C2044 C 0.59878 0.53743 0.36307 0.0
C2045 C 0.61598 0.5325 0.36004 0.0
H2046 H 0.63608 0.53029 0.33981 0.0
H2047 H 0.58887 0.55083 0.31807 0.0
C2048 C 0.67737 0.58832 0.27337 0.0
N2049 N 0.66807 0.5855 0.2892 0.0
C2050 C 0.69011 0.60496 0.27295 0.0
C2051 C 0.68301 0.61606 0.30479 0.0
C2052 C 0.67056 0.59905 0.30471 0.0
C2053 C 0.69307 0.61911 0.28879 0.0
H2054 H 0.67476 0.57778 0.26086 0.0
H2055 H 0.66279 0.59679 0.31698 0.0
C2056 C 0.60404 0.50749 0.27795 0.0
N2057 N 0.57126 0.48191 0.26563 0.0
C2058 C 0.60456 0.48997 0.26826 0.0
C2059 C 0.58689 0.51197 0.28151 0.0
C2060 C 0.58782 0.47724 0.26209 0.0
C2061 C 0.57046 0.49885 0.27513 0.0
C2062 C 0.66332 0.53912 0.2532 0.0
C2063 C 0.65823 0.53116 0.23375 0.0
C2064 C 0.68194 0.54174 0.26146 0.0
C2065 C 0.67186 0.52579 0.22295 0.0
C2066 C 0.69515 0.53619 0.25018 0.0
N2067 N 0.68988 0.52839 0.23131 0.0
C2068 C 0.60287 0.5534 0.23525 0.0
C2069 C 0.60476 0.52146 0.22987 0.0
C2070 C 0.59414 0.55261 0.21615 0.0
N2071 N 0.60801 0.53796 0.24176 0.0
C2072 C 0.59626 0.5201 0.21059 0.0
C2073 C 0.59097 0.53587 0.20339 0.0
H2074 H 0.60614 0.56654 0.24468 0.0
H2075 H 0.60949 0.50951 0.23506 0.0
C2076 C 0.67066 0.50334 0.29986 0.0
N2077 N 0.66062 0.50699 0.28359 0.0
C2078 C 0.67967 0.48808 0.29905 0.0
C2079 C 0.66769 0.48056 0.26481 0.0
C2080 C 0.65888 0.49588 0.26632 0.0
C2081 C 0.67821 0.47639 0.28134 0.0
H2082 H 0.67149 0.51213 0.31355 0.0
H2083 H 0.65051 0.49883 0.25369 0.0
O2084 O 0.62357 0.56314 0.28614 0.0
O2085 O 0.65345 0.5454 0.30919 0.0
O2086 O 0.62029 0.52009 0.28413 0.0
O2087 O 0.65018 0.54443 0.26405 0.0
H2088 H 0.62881 0.59278 0.31268 0.0
H2089 H 0.58767 0.55416 0.27217 0.0
H2090 H 0.60394 0.60957 0.32191 0.0
H2091 H 0.56355 0.57164 0.28207 0.0
H2092 H 0.71444 0.56228 0.33511 0.0
H2093 H 0.6491 0.56859 0.33949 0.0
H2094 H 0.68943 0.54441 0.30987 0.0
H2095 H 0.67482 0.58584 0.36439 0.0
H2096 H 0.57562 0.54795 0.34922 0.0
H2097 H 0.62395 0.52714 0.37142 0.0
H2098 H 0.69726 0.6069 0.26014 0.0
H2099 H 0.68485 0.62666 0.31728 0.0
H2100 H 0.61774 0.48626 0.26548 0.0
H2101 H 0.58628 0.52541 0.28911 0.0
H2102 H 0.588 0.46365 0.25451 0.0
H2103 H 0.55707 0.50213 0.27776 0.0
H2104 H 0.64393 0.52914 0.22708 0.0
H2105 H 0.68613 0.54807 0.2764 0.0
H2106 H 0.66812 0.51956 0.2079 0.0
H2107 H 0.7096 0.53813 0.2564 0.0
H2108 H 0.5906 0.5652 0.21119 0.0
H2109 H 0.59407 0.50689 0.20132 0.0
H2110 H 0.68736 0.48525 0.31223 0.0
H2111 H 0.66633 0.47212 0.25079 0.0
Tb2112 Tb 0.05622 0.04131 0.03801 0.0
C2113 C 0.99688 0.97352 0.00459 0.0
N2114 N 1.00641 0.98765 0.99611 0.0
C2115 C 0.01229 0.96561 0.97063 0.0
C2116 C 0.99556 0.95471 0.99699 0.0
C2117 C 0.01338 0.98407 0.97886 0.0
C2118 C 1.00356 0.95085 0.97988 0.0
C2119 C 0.97794 0.96386 0.02982 0.0
C2120 C 0.98821 0.97809 0.02075 0.0
C2121 C 0.9774 0.94502 0.02299 0.0
C2122 C 0.98614 0.94046 0.00656 0.0
Tb2123 Tb 1.00704 0.01717 0.01038 0.0
N2124 N 0.98883 0.99647 0.02671 0.0
C2125 C 0.96795 0.96898 0.04497 0.0
C2126 C 0.9777 1.00141 0.04025 0.0
C2127 C 0.96751 0.98781 0.04991 0.0
H2128 H 0.01997 0.99544 0.97159 0.0
H2129 H 0.95917 0.99187 0.06103 0.0
H2130 H 0.04959 0.0488 0.08524 0.0
H2131 H 0.09007 0.08889 0.99216 0.0
H2132 H 0.97648 0.0158 0.04364 0.0
H2133 H 0.95992 0.95848 0.05236 0.0
H2134 H 0.07822 0.05795 0.00244 0.0
H2135 H 0.01817 0.96279 0.95718 0.0
H2136 H 0.96979 0.93389 0.02994 0.0
H2137 H 0.98523 0.92589 1.00116 0.0
H2138 H 0.04774 0.0756 0.10877 0.0
H2139 H 1.00282 0.93658 0.97353 0.0
H2140 H 0.08691 0.11775 0.01234 0.0
N2141 N 0.05508 0.06514 0.06186 0.0
C2142 C 0.06021 0.08276 0.05714 0.0
C2143 C 0.05094 0.07781 0.09416 0.0
C2144 C 0.05994 0.0986 0.07037 0.0
C2145 C 0.05159 0.06256 0.08055 0.0
C2146 C 0.05473 0.09589 0.08891 0.0
N2147 N 0.06787 0.06926 0.02764 0.0
C2148 C 0.07674 0.07048 0.01123 0.0
C2149 C 0.07371 0.10284 0.03434 0.0
C2150 C 0.06715 0.08492 0.03953 0.0
C2151 C 0.08171 0.10423 0.01688 0.0
C2152 C 0.08351 0.08797 0.00544 0.0
H2153 H 0.05439 0.10768 0.09955 0.0
H2154 H 0.06532 0.12891 0.07485 0.0
H2155 H 0.07727 0.13261 0.04317 0.0
O2156 O 0.081 0.03365 0.03096 0.0
O2157 O 0.041 0.05716 0.01833 0.0
O2158 O 0.01023 0.04728 0.02149 0.0
O2159 O 0.07904 0.04572 0.06012 0.0
O2160 O 0.05604 0.02612 0.00879 0.0
O2161 O 0.02795 0.02843 0.99214 0.0
O2162 O 0.97849 0.01191 0.9999 0.0
O2163 O 0.02858 0.99971 0.01613 0.0
O2164 O 0.04501 0.01301 0.04541 0.0
O2165 O 0.99896 0.02481 0.98284 0.0
O2166 O 1.00691 0.03209 0.03968 0.0
O2167 O 0.03504 0.02945 0.05603 0.0
C2168 C 0.02396 0.06049 0.01805 0.0
C2169 C 0.09574 0.02127 0.0562 0.0
C2170 C 0.11591 0.99894 0.05124 0.0
C2171 C 0.10706 0.98816 0.06455 0.0
C2172 C 0.08692 0.01054 0.06959 0.0
C2173 C 0.09268 0.99406 0.07379 0.0
C2174 C 0.11014 0.01544 0.04723 0.0
C2175 C 0.04565 0.02743 0.99251 0.0
C2176 C 0.08872 0.03703 0.04899 0.0
C2177 C 0.06563 0.11657 0.06497 0.0
C2178 C 0.07249 0.11869 0.04696 0.0
C2179 C 0.03755 0.99795 0.03313 0.0
C2180 C 0.97199 0.03747 0.98422 0.0
C2181 C 0.9516 0.05657 0.99808 0.0
C2182 C 0.95747 0.07033 0.98609 0.0
C2183 C 0.97751 0.05118 0.97202 0.0
C2184 C 0.95883 0.04021 0.997 0.0
C2185 C 0.97025 0.06751 0.97299 0.0
C2186 C 0.01754 0.03121 0.05591 0.0
C2187 C 0.98138 0.02144 0.98527 0.0
H2188 H 0.11132 0.97534 0.06788 0.0
H2189 H 0.07538 0.01461 0.07638 0.0
H2190 H 0.08583 0.98572 0.084 0.0
H2191 H 0.11635 0.02344 0.03634 0.0
H2192 H 0.95188 0.08302 0.98656 0.0
H2193 H 0.98773 0.04946 0.96208 0.0
H2194 H 0.95449 0.02984 0.0066 0.0
H2195 H 0.9746 0.078 0.96359 0.0
Tb2196 Tb 0.26564 0.77421 0.29758 0.0
C2197 C 0.31697 0.75296 0.22683 0.0
N2198 N 0.32049 0.76339 0.24469 0.0
C2199 C 0.34809 0.75094 0.25195 0.0
C2200 C 0.32878 0.74085 0.22098 0.0
C2201 C 0.33604 0.76284 0.25709 0.0
C2202 C 0.34443 0.73986 0.23386 0.0
C2203 C 0.29696 0.74351 0.19601 0.0
C2204 C 0.30117 0.75419 0.21456 0.0
C2205 C 0.30874 0.73149 0.19007 0.0
C2206 C 0.32458 0.73014 0.20254 0.0
Tb2207 Tb 0.30015 0.78278 0.25096 0.0
N2208 N 0.28981 0.76564 0.22102 0.0
C2209 C 0.28108 0.74529 0.18393 0.0
C2210 C 0.27478 0.76801 0.20886 0.0
C2211 C 0.27005 0.75771 0.19034 0.0
H2212 H 0.33955 0.77184 0.27074 0.0
H2213 H 0.25802 0.75956 0.18089 0.0
H2214 H 0.22806 0.79007 0.28337 0.0
H2215 H 0.31141 0.78814 0.36642 0.0
H2216 H 0.26655 0.77814 0.21291 0.0
H2217 H 0.27739 0.73736 0.16955 0.0
H2218 H 0.29738 0.77005 0.33521 0.0
H2219 H 0.36033 0.7505 0.26188 0.0
H2220 H 0.30571 0.72317 0.17587 0.0
H2221 H 0.3335 0.72076 0.19777 0.0
H2222 H 0.21179 0.81499 0.29491 0.0
H2223 H 0.35384 0.73071 0.22992 0.0
H2224 H 0.29952 0.81593 0.37888 0.0
N2225 N 0.24933 0.79628 0.30763 0.0
C2226 C 0.2559 0.80681 0.32501 0.0
C2227 C 0.22422 0.81289 0.30349 0.0
C2228 C 0.24715 0.82122 0.33216 0.0
C2229 C 0.23346 0.79879 0.29699 0.0
C2230 C 0.23118 0.82425 0.32109 0.0
N2231 N 0.27917 0.78873 0.32807 0.0
C2232 C 0.29268 0.78275 0.33953 0.0
C2233 C 0.27866 0.81341 0.35382 0.0
C2234 C 0.27153 0.80307 0.33547 0.0
C2235 C 0.29362 0.80834 0.36472 0.0
C2236 C 0.30042 0.79273 0.35769 0.0
H2237 H 0.22403 0.83519 0.32607 0.0
H2238 H 0.24813 0.84322 0.35583 0.0
H2239 H 0.27568 0.8363 0.37491 0.0
O2240 O 0.26196 0.74965 0.31092 0.0
O2241 O 0.27158 0.80302 0.29122 0.0
O2242 O 0.29736 0.79818 0.27873 0.0
O2243 O 0.23827 0.75894 0.2975 0.0
O2244 O 0.29403 0.76687 0.30148 0.0
O2245 O 0.3137 0.78412 0.28181 0.0
O2246 O 0.30057 0.80512 0.23414 0.0
O2247 O 0.29027 0.75279 0.25096 0.0
O2248 O 0.27704 0.76595 0.27254 0.0
O2249 O 0.32616 0.79836 0.24661 0.0
O2250 O 0.27064 0.78794 0.24643 0.0
O2251 O 0.2509 0.77235 0.26747 0.0
C2252 C 0.28538 0.80899 0.28154 0.0
C2253 C 0.23543 0.74689 0.32769 0.0
C2254 C 0.23824 0.74201 0.3621 0.0
C2255 C 0.22029 0.7459 0.3633 0.0
C2256 C 0.21745 0.75056 0.32906 0.0
C2257 C 0.21001 0.75019 0.34684 0.0
C2258 C 0.24572 0.74278 0.34431 0.0
C2259 C 0.31081 0.77324 0.2961 0.0
C2260 C 0.2439 0.74791 0.30931 0.0
C2261 C 0.25457 0.83201 0.3501 0.0
C2262 C 0.2703 0.8281 0.36092 0.0
C2263 C 0.27926 0.75023 0.264 0.0
C2264 C 0.32462 0.80578 0.21421 0.0
C2265 C 0.32013 0.81204 0.18053 0.0
C2266 C 0.331 0.79899 0.1751 0.0
C2267 C 0.33604 0.79313 0.20878 0.0
C2268 C 0.3171 0.81552 0.20004 0.0
C2269 C 0.33911 0.78971 0.18928 0.0
C2270 C 0.25379 0.78153 0.25192 0.0
C2271 C 0.31857 0.80736 0.23382 0.0
H2272 H 0.21399 0.74514 0.37676 0.0
H2273 H 0.20922 0.75384 0.31646 0.0
H2274 H 0.19616 0.75305 0.34783 0.0
H2275 H 0.25971 0.74022 0.34347 0.0
H2276 H 0.33341 0.79621 0.16 0.0
H2277 H 0.34224 0.78553 0.21943 0.0
H2278 H 0.30832 0.82534 0.20405 0.0
H2279 H 0.34762 0.77973 0.18515 0.0
Tb2280 Tb 0.5067 0.02556 0.53453 0.0
C2281 C 0.57355 0.06893 0.49652 0.0
N2282 N 0.56082 0.05303 0.48974 0.0
C2283 C 0.55681 0.0638 0.45828 0.0
C2284 C 0.578 0.08318 0.48457 0.0
C2285 C 0.55286 0.05006 0.47071 0.0
C2286 C 0.56931 0.08051 0.46528 0.0
C2287 C 0.59526 0.08719 0.52332 0.0
C2288 C 0.58201 0.07096 0.51567 0.0
C2289 C 0.59955 0.10157 0.51156 0.0
C2290 C 0.59095 0.09956 0.49223 0.0
Tb2291 Tb 0.55555 0.03185 0.51165 0.0
N2292 N 0.5771 0.05698 0.52681 0.0
C2293 C 0.60394 0.08835 0.54247 0.0
C2294 C 0.5866 0.05738 0.54484 0.0
C2295 C 0.59982 0.07322 0.55316 0.0
H2296 H 0.54388 0.03692 0.46485 0.0
H2297 H 0.60704 0.07363 0.56766 0.0
H2298 H 0.51632 0.02489 0.58258 0.0
H2299 H 0.46833 0.97355 0.47659 0.0
H2300 H 0.58445 0.04532 0.55261 0.0
H2301 H 0.61423 0.10057 0.54891 0.0
H2302 H 0.48542 1.00491 0.4908 0.0
H2303 H 0.55036 0.06141 0.44325 0.0
H2304 H 0.60961 0.11421 0.51721 0.0
H2305 H 0.59448 0.11071 0.4833 0.0
H2306 H 0.5112 1.00169 0.60588 0.0
H2307 H 0.57235 0.09111 0.4556 0.0
H2308 H 0.46209 0.94844 0.49781 0.0
N2309 N 0.50231 1.00597 0.55793 0.0
C2310 C 0.49213 0.98855 0.55143 0.0
C2311 C 0.50585 0.9978 0.59058 0.0
C2312 C 0.48883 0.97489 0.56427 0.0
C2313 C 0.5089 0.01086 0.57727 0.0
C2314 C 0.49585 0.97972 0.58405 0.0
N2315 N 0.49 0.99746 0.51945 0.0
C2316 C 0.48333 0.99403 0.50007 0.0
C2317 C 0.47573 0.96609 0.52418 0.0
C2318 C 0.48563 0.9842 0.53159 0.0
C2319 C 0.4697 0.9622 0.5041 0.0
C2320 C 0.47332 0.9763 0.49205 0.0
H2321 H 0.49361 0.96962 0.59439 0.0
H2322 H 0.47628 0.94613 0.56657 0.0
H2323 H 0.46487 0.93843 0.5315 0.0
O2324 O 0.4815 0.03264 0.52325 0.0
O2325 O 0.52095 1.00116 0.53003 0.0
O2326 O 0.53596 1.00497 0.50277 0.0
O2327 O 0.48837 0.03285 0.55416 0.0
O2328 O 0.50934 0.03723 0.50697 0.0
O2329 O 0.52997 0.02253 0.49171 0.0
O2330 O 0.57775 0.01767 0.5197 0.0
O2331 O 0.54547 0.05838 0.51942 0.0
O2332 O 0.52369 0.0543 0.54181 0.0
O2333 O 0.57174 0.02459 0.49016 0.0
O2334 O 0.55316 0.02347 0.54101 0.0
O2335 O 0.53107 0.03739 0.55524 0.0
C2336 C 0.52769 0.99406 0.5146 0.0
C2337 C 0.47197 0.05576 0.54382 0.0
C2338 C 0.45016 0.07681 0.53866 0.0
C2339 C 0.46388 0.0918 0.54825 0.0
C2340 C 0.48523 0.07092 0.55379 0.0
C2341 C 0.48124 0.08882 0.55588 0.0
C2342 C 0.45424 0.05871 0.53646 0.0
C2343 C 0.51547 0.03063 0.49115 0.0
C2344 C 0.4769 0.03713 0.54053 0.0
C2345 C 0.47889 0.95684 0.55693 0.0
C2346 C 0.47238 0.95245 0.53695 0.0
C2347 C 0.53578 0.06511 0.53268 0.0
C2348 C 0.59773 0.00882 0.49484 0.0
C2349 C 0.62264 0.99089 0.49879 0.0
C2350 C 0.62564 0.99244 0.47925 0.0
C2351 C 0.60122 0.01015 0.47536 0.0
C2352 C 0.60873 0.9993 0.50671 0.0
C2353 C 0.61507 1.00207 0.46769 0.0
C2354 C 0.54724 0.03216 0.55599 0.0
C2355 C 0.58226 0.01709 0.50193 0.0
H2356 H 0.461 0.1058 0.55016 0.0
H2357 H 0.49869 0.06886 0.55998 0.0
H2358 H 0.49161 0.10042 0.56349 0.0
H2359 H 0.44381 0.0471 0.52889 0.0
H2360 H 0.63635 0.98625 0.47294 0.0
H2361 H 0.59315 0.01741 0.46588 0.0
H2362 H 0.60626 0.9981 0.52174 0.0
H2363 H 0.61757 1.0032 0.45268 0.0
Tb2364 Tb 0.31002 0.27325 0.77915 0.0
C2365 C 0.2415 0.3038 0.73768 0.0
N2366 N 0.25238 0.31021 0.75494 0.0
C2367 C 0.25391 0.34181 0.74783 0.0
C2368 C 0.23673 0.31613 0.72454 0.0
C2369 C 0.25802 0.329 0.76048 0.0
C2370 C 0.24337 0.33534 0.72968 0.0
C2371 C 0.22207 0.27757 0.7165 0.0
C2372 C 0.23421 0.28486 0.73372 0.0
C2373 C 0.21781 0.28967 0.70298 0.0
C2374 C 0.2251 0.30893 0.70701 0.0
Tb2375 Tb 0.25831 0.28797 0.77438 0.0
N2376 N 0.23854 0.27365 0.74724 0.0
C2377 C 0.2142 0.25844 0.71371 0.0
C2378 C 0.22977 0.25529 0.74532 0.0
C2379 C 0.21787 0.24731 0.72832 0.0
H2380 H 0.26537 0.3342 0.77484 0.0
H2381 H 0.2115 0.2326 0.72652 0.0
H2382 H 0.30306 0.22963 0.79007 0.0
H2383 H 0.34579 0.33915 0.8204 0.0
H2384 H 0.23243 0.24675 0.75665 0.0
H2385 H 0.20489 0.25225 0.70061 0.0
H2386 H 0.33012 0.31874 0.79086 0.0
H2387 H 0.25862 0.35667 0.75221 0.0
H2388 H 0.20857 0.28435 0.68959 0.0
H2389 H 0.22134 0.31817 0.69667 0.0
H2390 H 0.31015 0.21352 0.81868 0.0
H2391 H 0.24 0.3453 0.72001 0.0
H2392 H 0.35263 0.3256 0.85099 0.0
N2393 N 0.31561 0.25669 0.80444 0.0
C2394 C 0.32559 0.26687 0.8209 0.0
C2395 C 0.31442 0.22855 0.81955 0.0
C2396 C 0.32981 0.25828 0.83765 0.0
C2397 C 0.31025 0.23774 0.80342 0.0
C2398 C 0.32415 0.23886 0.83678 0.0
N2399 N 0.32616 0.29403 0.8048 0.0
C2400 C 0.33206 0.3127 0.8042 0.0
C2401 C 0.34038 0.29724 0.8383 0.0
C2402 C 0.33087 0.28615 0.82116 0.0
C2403 C 0.3454 0.31657 0.83809 0.0
C2404 C 0.34143 0.32429 0.82089 0.0
H2405 H 0.32723 0.23171 0.8493 0.0
H2406 H 0.34264 0.26297 0.86777 0.0
H2407 H 0.35178 0.29705 0.86839 0.0
O2408 O 0.33748 0.28194 0.77214 0.0
O2409 O 0.29385 0.27594 0.80433 0.0
O2410 O 0.2799 0.3005 0.79854 0.0
O2411 O 0.32511 0.25288 0.76985 0.0
O2412 O 0.30721 0.2982 0.76482 0.0
O2413 O 0.2838 0.30983 0.77884 0.0
O2414 O 0.23923 0.27611 0.79288 0.0
O2415 O 0.2653 0.27308 0.74756 0.0
O2416 O 0.29699 0.27142 0.74907 0.0
O2417 O 0.23912 0.30345 0.78497 0.0
O2418 O 0.26223 0.26148 0.78473 0.0
O2419 O 0.28599 0.24975 0.77093 0.0
C2420 C 0.28717 0.29054 0.81078 0.0
C2421 C 0.34496 0.26213 0.74607 0.0
C2422 C 0.36877 0.2648 0.72333 0.0
C2423 C 0.35489 0.25618 0.70804 0.0
C2424 C 0.33148 0.25351 0.73036 0.0
C2425 C 0.33644 0.25059 0.71157 0.0
C2426 C 0.36377 0.26779 0.74248 0.0
C2427 C 0.29787 0.31165 0.76828 0.0
C2428 C 0.33918 0.26506 0.76598 0.0
C2429 C 0.33933 0.26931 0.85472 0.0
C2430 C 0.34453 0.28873 0.85507 0.0
C2431 C 0.2802 0.2699 0.73959 0.0
C2432 C 0.21007 0.28602 0.79062 0.0
C2433 C 0.17946 0.28048 0.80291 0.0
C2434 C 0.17082 0.27828 0.78353 0.0
C2435 C 0.20092 0.28402 0.77152 0.0
C2436 C 0.19923 0.28449 0.80642 0.0
C2437 C 0.18148 0.28014 0.76802 0.0
C2438 C 0.26914 0.24748 0.77686 0.0
C2439 C 0.23081 0.29023 0.79401 0.0
H2440 H 0.35839 0.25365 0.6933 0.0
H2441 H 0.31703 0.2489 0.73257 0.0
H2442 H 0.32589 0.24391 0.6997 0.0
H2443 H 0.37436 0.27447 0.7544 0.0
H2444 H 0.15572 0.27538 0.7804 0.0
H2445 H 0.20876 0.28567 0.75925 0.0
H2446 H 0.2061 0.28622 0.82128 0.0
H2447 H 0.17463 0.27865 0.75319 0.0
Tb2448 Tb 0.03672 1.00492 0.52623 0.0
C2449 C 0.01623 0.0731 0.56902 0.0
N2450 N 1.00745 0.06329 0.55182 0.0
C2451 C 0.97787 0.06172 0.56437 0.0
C2452 C 1.0063 0.07669 0.58493 0.0
C2453 C 0.98833 0.05882 0.54893 0.0
C2454 C 0.98693 0.07032 0.5826 0.0
C2455 C 0.04458 0.0921 0.58712 0.0
C2456 C 0.03504 0.08077 0.57017 0.0
C2457 C 0.035 0.09487 0.6034 0.0
C2458 C 0.01589 0.08715 0.60232 0.0
Tb2459 Tb 0.02667 0.05814 0.52835 0.0
N2460 N 0.04397 0.07726 0.55436 0.0
C2461 C 0.06333 0.10055 0.58698 0.0
C2462 C 0.06181 0.08646 0.55358 0.0
C2463 C 0.07188 0.09798 0.57 0.0
H2464 H 0.98092 0.05331 0.53468 0.0
H2465 H 0.0862 0.10483 0.56956 0.0
H2466 H 0.08213 0.00902 0.52126 0.0
H2467 H 0.97438 0.96549 0.48161 0.0
H2468 H 0.06828 0.08457 0.54038 0.0
H2469 H 0.07117 0.10939 0.59971 0.0
H2470 H 0.99211 0.98436 0.51118 0.0
H2471 H 0.96279 0.05763 0.56209 0.0
H2472 H 0.04212 0.10331 0.61671 0.0
H2473 H 0.00854 0.08984 0.61479 0.0
H2474 H 0.10089 0.99958 0.49595 0.0
H2475 H 0.97877 0.07276 0.59446 0.0
H2476 H 0.99095 0.9554 0.45428 0.0
N2477 N 0.05598 0.99657 0.50449 0.0
C2478 C 0.04726 0.98537 0.48807 0.0
C2479 C 0.0858 0.99567 0.49345 0.0
C2480 C 0.05751 0.97947 0.47329 0.0
C2481 C 0.07504 1.00126 0.50767 0.0
C2482 C 0.077 0.98488 0.47611 0.0
N2483 N 0.01846 0.98617 0.50044 0.0
C2484 C 0.99953 0.98066 0.49926 0.0
C2485 C 0.01833 0.9689 0.46886 0.0
C2486 C 0.0279 0.98002 0.48595 0.0
C2487 C 0.99883 0.96389 0.46721 0.0
C2488 C 0.98942 0.96964 0.48256 0.0
H2489 H 0.08539 0.98061 0.46511 0.0
H2490 H 0.05564 0.96387 0.44463 0.0
H2491 H 0.02135 0.95474 0.44068 0.0
O2492 O 0.02796 0.97797 0.53419 0.0
O2493 O 0.03351 0.01788 0.4987 0.0
O2494 O 0.01302 0.03801 0.50318 0.0
O2495 O 0.0554 0.9939 0.54489 0.0
O2496 O 0.01017 0.00935 0.53601 0.0
O2497 O 1.00161 0.03512 0.52292 0.0
O2498 O 0.03811 0.07706 0.50962 0.0
O2499 O 0.04407 0.05008 0.55276 0.0
O2500 O 0.02955 0.01999 0.5523 0.0
O2501 O 0.01385 0.08089 0.52282 0.0
O2502 O 0.05132 0.05137 0.51567 0.0
O2503 O 0.06112 0.02814 0.53227 0.0
C2504 C 0.02048 0.02662 0.49182 0.0
C2505 C 0.05062 0.96063 0.54467 0.0
C2506 C 0.05153 0.93085 0.55779 0.0
C2507 C 0.06452 0.92739 0.54502 0.0
C2508 C 0.06347 0.95671 0.53194 0.0
C2509 C 0.07037 0.94019 0.53216 0.0
C2510 C 0.04456 0.94754 0.55754 0.0
C2511 C 0.99757 0.01914 0.53049 0.0
C2512 C 0.04354 0.97829 0.54508 0.0
C2513 C 0.04801 0.96843 0.45621 0.0
C2514 C 0.02848 0.96321 0.45397 0.0
C2515 C 0.04006 0.0352 0.56174 0.0
C2516 C 0.01734 0.09265 0.4925 0.0
C2517 C 0.01645 0.11547 0.46895 0.0
C2518 C 1.0024 0.1024 0.45692 0.0
C2519 C 1.00312 0.08006 0.48034 0.0
C2520 C 0.02385 0.1105 0.48689 0.0
C2521 C 0.99572 0.08492 0.46266 0.0
C2522 C 0.0645 0.04311 0.52305 0.0
C2523 C 0.02546 0.08722 0.51098 0.0
H2524 H 0.0701 0.9147 0.54497 0.0
H2525 H 0.06825 0.96641 0.5219 0.0
H2526 H 0.08035 0.93732 0.52233 0.0
H2527 H 0.0346 0.9504 0.56743 0.0
H2528 H 0.99634 0.10585 0.44316 0.0
H2529 H 0.99769 0.06653 0.48462 0.0
H2530 H 0.03477 0.12037 0.49629 0.0
H2531 H 0.98469 0.07516 0.45338 0.0
Tb2532 Tb 0.2864 0.80455 0.7599 0.0
C2533 C 0.25218 0.73969 0.81215 0.0
N2534 N 0.26952 0.75064 0.81468 0.0
C2535 C 0.27032 0.75159 0.8495 0.0
C2536 C 0.24302 0.73451 0.82828 0.0
C2537 C 0.27885 0.75635 0.83301 0.0
C2538 C 0.25225 0.7408 0.84713 0.0
C2539 C 0.2265 0.72061 0.78995 0.0
C2540 C 0.24404 0.73282 0.7933 0.0
C2541 C 0.21696 0.71595 0.80593 0.0
C2542 C 0.22521 0.72287 0.82506 0.0
Tb2543 Tb 0.28196 0.75752 0.78677 0.0
N2544 N 0.25378 0.73754 0.77824 0.0
C2545 C 0.21936 0.71306 0.77071 0.0
C2546 C 0.24747 0.72922 0.75962 0.0
C2547 C 0.23001 0.7172 0.75551 0.0
H2548 H 0.29281 0.76477 0.83488 0.0
H2549 H 0.22485 0.71104 0.74065 0.0
H2550 H 0.28848 0.79325 0.71238 0.0
H2551 H 0.33758 0.84434 0.81797 0.0
H2552 H 0.25568 0.73215 0.74791 0.0
H2553 H 0.20589 0.70365 0.76751 0.0
H2554 H 0.30799 0.82338 0.80436 0.0
H2555 H 0.27766 0.75632 0.864 0.0
H2556 H 0.2034 0.70667 0.80368 0.0
H2557 H 0.21787 0.71882 0.83726 0.0
H2558 H 0.31098 0.80074 0.68887 0.0
H2559 H 0.24569 0.73712 0.85992 0.0
H2560 H 0.36093 0.8551 0.79607 0.0
N2561 N 0.30612 0.80947 0.7367 0.0
C2562 C 0.32257 0.82155 0.74296 0.0
C2563 C 0.31448 0.80656 0.70407 0.0
C2564 C 0.33578 0.82641 0.72996 0.0
C2565 C 0.30186 0.80206 0.71752 0.0
C2566 C 0.33152 0.81877 0.71031 0.0
N2567 N 0.31384 0.82271 0.77499 0.0
C2568 C 0.31764 0.82834 0.79459 0.0
C2569 C 0.34384 0.84029 0.76986 0.0
C2570 C 0.3265 0.82854 0.76268 0.0
C2571 C 0.34773 0.84615 0.78996 0.0
C2572 C 0.33459 0.84009 0.80237 0.0
H2573 H 0.34128 0.8222 0.69985 0.0
H2574 H 0.36317 0.8424 0.72721 0.0
H2575 H 0.37028 0.85442 0.76215 0.0
O2576 O 0.27777 0.83 0.76863 0.0
O2577 O 0.31176 0.79228 0.76706 0.0
O2578 O 0.30701 0.77946 0.79546 0.0
O2579 O 0.27752 0.81978 0.73789 0.0
O2580 O 0.27427 0.80449 0.78724 0.0
O2581 O 0.28727 0.78423 0.80542 0.0
O2582 O 0.29479 0.73729 0.77278 0.0
O2583 O 0.25463 0.76537 0.77745 0.0
O2584 O 0.25805 0.78665 0.7543 0.0
O2585 O 0.29559 0.74066 0.80387 0.0
O2586 O 0.29022 0.75969 0.75744 0.0
O2587 O 0.27563 0.77904 0.74035 0.0
C2588 C 0.31837 0.78606 0.78314 0.0
C2589 C 0.26709 0.84913 0.74418 0.0
C2590 C 0.25067 0.87501 0.7496 0.0
C2591 C 0.25309 0.87928 0.73061 0.0
C2592 C 0.26924 0.85371 0.7252 0.0
C2593 C 0.26232 0.8687 0.71851 0.0
C2594 C 0.25774 0.85989 0.75646 0.0
C2595 C 0.27784 0.79777 0.80371 0.0
C2596 C 0.27408 0.83271 0.75045 0.0
C2597 C 0.35286 0.83849 0.737 0.0
C2598 C 0.3569 0.84538 0.75689 0.0
C2599 C 0.24767 0.77485 0.76407 0.0
C2600 C 0.29566 0.71035 0.78875 0.0
C2601 C 0.30538 0.68015 0.78443 0.0
C2602 C 0.28768 0.67136 0.78842 0.0
C2603 C 0.27819 0.70121 0.79287 0.0
C2604 C 0.30936 0.69977 0.78472 0.0
C2605 C 0.27425 0.68185 0.7927 0.0
C2606 C 0.2803 0.76277 0.74174 0.0
C2607 C 0.29978 0.73086 0.7889 0.0
H2608 H 0.24772 0.89082 0.7251 0.0
H2609 H 0.2763 0.84568 0.71545 0.0
H2610 H 0.26404 0.87208 0.70386 0.0
H2611 H 0.25579 0.85646 0.77107 0.0
H2612 H 0.28433 0.65635 0.78851 0.0
H2613 H 0.26763 0.709 0.79637 0.0
H2614 H 0.32294 0.70672 0.78164 0.0
H2615 H 0.26073 0.67496 0.79595 0.0
Tb2616 Tb 0.5281 0.04618 0.99756 0.0
C2617 C 0.56204 1.00267 0.06352 0.0
N2618 N 0.54908 0.99636 0.0477 0.0
C2619 C 0.56399 0.97054 0.03992 0.0
C2620 C 0.57682 0.99336 0.06792 0.0
C2621 C 0.54954 0.98023 0.03621 0.0
C2622 C 0.57778 0.97722 0.05576 0.0
C2623 C 0.57321 0.02523 0.0922 0.0
C2624 C 0.56037 0.01857 0.07528 0.0
C2625 C 0.58819 0.01623 0.09649 0.0
C2626 C 0.59003 1.00037 0.08433 0.0
Tb2627 Tb 0.52654 0.01358 0.04247 0.0
N2628 N 0.54586 0.0271 0.07047 0.0
C2629 C 0.57036 0.04045 0.10456 0.0
C2630 C 0.5421 0.04076 0.08359 0.0
C2631 C 0.55451 0.04799 0.10043 0.0
H2632 H 0.53864 0.97465 0.02433 0.0
H2633 H 0.5516 0.0591 0.11046 0.0
H2634 H 0.51876 0.08634 0.01595 0.0
H2635 H 0.49115 0.99328 0.93923 0.0
H2636 H 0.52926 0.04585 0.08172 0.0
H2637 H 0.57987 0.04597 0.11772 0.0
H2638 H 0.51794 0.00904 0.96271 0.0
H2639 H 0.56441 0.95788 0.03064 0.0
H2640 H 0.59828 0.02127 0.10931 0.0
H2641 H 0.60155 0.99347 0.08792 0.0
H2642 H 0.49306 0.1037 0.01197 0.0
H2643 H 0.58894 0.96966 0.05863 0.0
H2644 H 0.46299 0.00718 0.93503 0.0
N2645 N 0.50534 0.06352 0.99482 0.0
C2646 C 0.4903 0.05628 0.98131 0.0
C2647 C 0.49209 0.09034 0.00331 0.0
C2648 C 0.47532 0.06566 0.97856 0.0
C2649 C 0.50657 0.08045 0.00561 0.0
C2650 C 0.47637 0.08291 0.98977 0.0
N2651 N 0.50431 0.03011 0.97449 0.0
C2652 C 0.50534 0.01451 0.96242 0.0
C2653 C 0.47423 0.0308 0.95701 0.0
C2654 C 0.48966 0.03888 0.97102 0.0
C2655 C 0.47453 0.01384 0.94598 0.0
C2656 C 0.49033 1.00586 0.94844 0.0
H2657 H 0.46513 0.09057 0.98809 0.0
H2658 H 0.44807 0.06443 0.9626 0.0
H2659 H 0.44722 0.03403 0.94353 0.0
O2660 O 0.53993 0.04729 0.97123 0.0
O2661 O 0.50283 0.04139 0.01173 0.0
O2662 O 0.50684 0.0132 0.01723 0.0
O2663 O 0.53941 0.07247 0.98958 0.0
O2664 O 0.53746 0.01884 0.99259 0.0
O2665 O 0.52183 0.99886 0.01238 0.0
O2666 O 0.50586 0.01192 0.06147 0.0
O2667 O 0.55393 0.02183 0.0331 0.0
O2668 O 0.55305 0.04887 0.0184 0.0
O2669 O 0.51479 0.9872 0.04991 0.0
O2670 O 0.5211 0.04246 0.04816 0.0
O2671 O 0.53669 0.06127 0.02728 0.0
C2672 C 0.49623 0.0254 0.01724 0.0
C2673 C 0.56533 0.07213 0.97187 0.0
C2674 C 0.59028 0.07235 0.9513 0.0
C2675 C 0.60234 0.08534 0.96535 0.0
C2676 C 0.57759 0.08487 0.98611 0.0
C2677 C 0.59601 0.09145 0.98278 0.0
C2678 C 0.57185 0.06584 0.9546 0.0
C2679 C 0.53224 1.00193 0.99801 0.0
C2680 C 0.54566 0.06529 0.97433 0.0
C2681 C 0.45975 0.05745 0.96494 0.0
C2682 C 0.45922 0.04009 0.95416 0.0
C2683 C 0.56177 0.03626 0.02507 0.0
C2684 C 0.50888 0.98961 0.08292 0.0
C2685 C 0.50204 0.99313 0.11664 0.0
C2686 C 0.51666 0.98403 0.12214 0.0
C2687 C 0.52339 0.98041 0.08863 0.0
C2688 C 0.49816 0.99574 0.09696 0.0
C2689 C 0.52719 0.97763 0.10815 0.0
C2690 C 0.52852 0.05909 0.04336 0.0
C2691 C 0.50564 0.99433 0.06286 0.0
H2692 H 0.61664 0.09054 0.96293 0.0
H2693 H 0.57297 0.08983 0.99969 0.0
H2694 H 0.60538 0.10136 0.99368 0.0
H2695 H 0.56248 0.05603 0.94353 0.0
H2696 H 0.51981 0.98169 0.13721 0.0
H2697 H 0.53197 0.97559 0.07814 0.0
H2698 H 0.48715 1.00308 0.09264 0.0
H2699 H 0.53842 0.97062 0.11248 0.0
Tb2700 Tb 0.27211 0.25222 0.26005 0.0
C2701 C 0.33725 0.30625 0.30556 0.0
N2702 N 0.31975 0.30086 0.31055 0.0
C2703 C 0.33297 0.29715 0.34278 0.0
C2704 C 0.35329 0.30634 0.31866 0.0
C2705 C 0.31751 0.29749 0.32933 0.0
C2706 C 0.35093 0.30121 0.33729 0.0
C2707 C 0.35686 0.31987 0.28241 0.0
C2708 C 0.33909 0.31307 0.28781 0.0
C2709 C 0.3729 0.31904 0.29493 0.0
C2710 C 0.37112 0.3123 0.31303 0.0
Tb2711 Tb 0.29565 0.30196 0.28702 0.0
N2712 N 0.32328 0.31337 0.27595 0.0
C2713 C 0.35793 0.32771 0.26482 0.0
C2714 C 0.32417 0.3221 0.25943 0.0
C2715 C 0.34149 0.3291 0.25344 0.0
H2716 H 0.30387 0.29543 0.33429 0.0
H2717 H 0.34216 0.33556 0.24007 0.0
H2718 H 0.25169 0.26519 0.22042 0.0
H2719 H 0.24514 0.20486 0.31044 0.0
H2720 H 0.3115 0.32337 0.25075 0.0
H2721 H 0.37132 0.3331 0.26013 0.0
H2722 H 0.26977 0.22277 0.29438 0.0
H2723 H 0.33102 0.29404 0.35748 0.0
H2724 H 0.38671 0.32402 0.29098 0.0
H2725 H 0.3836 0.31228 0.32282 0.0
H2726 H 0.21961 0.26238 0.20417 0.0
H2727 H 0.36288 0.30115 0.34782 0.0
H2728 H 0.21187 0.20381 0.29907 0.0
N2729 N 0.24303 0.25095 0.24425 0.0
C2730 C 0.2286 0.24075 0.25174 0.0
C2731 C 0.22192 0.25641 0.21766 0.0
C2732 C 0.21005 0.23872 0.24294 0.0
C2733 C 0.24008 0.25813 0.227 0.0
C2734 C 0.20681 0.24683 0.22577 0.0
N2735 N 0.25081 0.23374 0.27548 0.0
C2736 C 0.25539 0.22326 0.28982 0.0
C2737 C 0.21802 0.22159 0.27646 0.0
C2738 C 0.2326 0.23229 0.26821 0.0
C2739 C 0.22264 0.21214 0.29226 0.0
C2740 C 0.24141 0.21271 0.29873 0.0
H2741 H 0.19276 0.24557 0.21854 0.0
H2742 H 0.18104 0.22717 0.24517 0.0
H2743 H 0.188 0.21217 0.27456 0.0
O2744 O 0.26863 0.22348 0.2508 0.0
O2745 O 0.25356 0.2728 0.26597 0.0
O2746 O 0.2672 0.2913 0.29433 0.0
O2747 O 0.27979 0.24384 0.23264 0.0
O2748 O 0.28646 0.25286 0.28974 0.0
O2749 O 0.28383 0.28128 0.30563 0.0
O2750 O 0.28841 0.32684 0.27978 0.0
O2751 O 0.31155 0.28654 0.26756 0.0
O2752 O 0.30207 0.25602 0.27173 0.0
O2753 O 0.30084 0.32509 0.30884 0.0
O2754 O 0.27964 0.30101 0.25817 0.0
O2755 O 0.28314 0.27329 0.24177 0.0
C2756 C 0.25208 0.28293 0.28247 0.0
C2757 C 0.29343 0.21733 0.23338 0.0
C2758 C 0.31334 0.19634 0.24437 0.0
C2759 C 0.32497 0.20116 0.23001 0.0
C2760 C 0.30518 0.22201 0.21905 0.0
C2761 C 0.32091 0.21401 0.21746 0.0
C2762 C 0.29767 0.20449 0.24603 0.0
C2763 C 0.28503 0.26362 0.3057 0.0
C2764 C 0.27726 0.22637 0.23554 0.0
C2765 C 0.19543 0.22866 0.25153 0.0
C2766 C 0.1994 0.22018 0.2683 0.0
C2767 C 0.3151 0.26961 0.26776 0.0
C2768 C 0.27924 0.34532 0.30519 0.0
C2769 C 0.26026 0.36874 0.29999 0.0
C2770 C 0.25612 0.36861 0.31942 0.0
C2771 C 0.27496 0.34522 0.32449 0.0
C2772 C 0.27127 0.35647 0.29295 0.0
C2773 C 0.26319 0.35666 0.33144 0.0
C2774 C 0.2814 0.2908 0.24197 0.0
C2775 C 0.29297 0.3352 0.29752 0.0
H2776 H 0.33718 0.19501 0.22856 0.0
H2777 H 0.30228 0.23195 0.20916 0.0
H2778 H 0.32991 0.21772 0.20643 0.0
H2779 H 0.28868 0.20056 0.25706 0.0
H2780 H 0.24792 0.37805 0.32559 0.0
H2781 H 0.28087 0.33658 0.33423 0.0
H2782 H 0.27414 0.35585 0.27788 0.0
H2783 H 0.26 0.3567 0.34637 0.0
Tb2784 Tb 0.53638 0.50521 0.02657 0.0
C2785 C 0.51704 0.57419 0.06928 0.0
N2786 N 0.50781 0.56409 0.05239 0.0
C2787 C 0.47871 0.56284 0.06587 0.0
C2788 C 0.50757 0.57813 0.08547 0.0
C2789 C 0.48869 0.55956 0.05012 0.0
C2790 C 0.48822 0.57182 0.08376 0.0
C2791 C 0.54589 0.59297 0.08668 0.0
C2792 C 0.53592 0.5816 0.06995 0.0
C2793 C 0.53671 0.5962 0.10315 0.0
C2794 C 0.51759 0.58877 0.10257 0.0
Tb2795 Tb 0.52635 0.5587 0.02834 0.0
N2796 N 0.54453 0.57756 0.05402 0.0
C2797 C 0.56472 0.60091 0.08619 0.0
C2798 C 0.56254 0.58616 0.05297 0.0
C2799 C 0.57299 0.59772 0.06915 0.0
H2800 H 0.48086 0.55369 0.03615 0.0
H2801 H 0.58741 0.60413 0.06847 0.0
H2802 H 0.58199 0.50955 0.02225 0.0
H2803 H 0.47539 0.46171 0.98352 0.0
H2804 H 0.56885 0.58378 0.03976 0.0
H2805 H 0.57288 0.60976 0.09875 0.0
H2806 H 0.49283 0.48163 0.01275 0.0
H2807 H 0.46363 0.55872 0.0641 0.0
H2808 H 0.54417 0.60471 0.11628 0.0
H2809 H 0.51058 0.59174 0.11522 0.0
H2810 H 0.60122 0.50056 0.99723 0.0
H2811 H 0.48042 0.57452 0.09586 0.0
H2812 H 0.49214 0.45247 0.95597 0.0
N2813 N 0.55607 0.49696 0.00517 0.0
C2814 C 0.5477 0.48543 0.98883 0.0
C2815 C 0.58615 0.49645 0.99454 0.0
C2816 C 0.5582 0.47966 0.97423 0.0
C2817 C 0.57512 0.50186 0.00857 0.0
C2818 C 0.57765 0.48551 0.97717 0.0
N2819 N 0.51887 0.48511 1.00131 0.0
C2820 C 0.50015 0.47841 1.00057 0.0
C2821 C 0.51919 0.46754 0.97 0.0
C2822 C 0.52847 0.47931 0.98682 0.0
C2823 C 0.49981 0.46149 0.96867 0.0
C2824 C 0.4903 0.46676 0.98414 0.0
H2825 H 0.58623 0.48134 0.96633 0.0
H2826 H 0.55681 0.4637 0.94584 0.0
H2827 H 0.52264 0.45322 0.94206 0.0
O2828 O 0.52796 0.4788 0.03587 0.0
O2829 O 0.53184 0.517 0.99851 0.0
O2830 O 0.51274 0.53883 0.0028 0.0
O2831 O 0.55533 0.49508 0.04587 0.0
O2832 O 0.50899 0.50917 0.03479 0.0
O2833 O 0.50114 0.53606 0.02305 0.0
O2834 O 0.53814 0.57833 0.01047 0.0
O2835 O 0.54363 0.55042 0.0527 0.0
O2836 O 0.52847 0.52065 0.05187 0.0
O2837 O 0.51313 0.58115 0.02269 0.0
O2838 O 0.54958 0.55055 0.01438 0.0
O2839 O 0.56068 0.52878 0.03178 0.0
C2840 C 0.51924 0.52633 0.99171 0.0
C2841 C 0.55086 0.46187 0.04628 0.0
C2842 C 0.5514 0.43174 0.05882 0.0
C2843 C 0.56316 0.4277 0.04487 0.0
C2844 C 0.56263 0.45743 0.03253 0.0
C2845 C 0.5688 0.44049 0.03193 0.0
C2846 C 0.54537 0.44898 0.05957 0.0
C2847 C 0.49682 0.51953 0.02946 0.0
C2848 C 0.54366 0.47948 0.04666 0.0
C2849 C 0.549 0.46815 0.9573 0.0
C2850 C 0.52953 0.46216 0.95516 0.0
C2851 C 0.53937 0.53547 0.06149 0.0
C2852 C 0.51738 0.59359 0.99284 0.0
C2853 C 0.51643 0.61679 0.96977 0.0
C2854 C 0.50298 0.60364 0.95716 0.0
C2855 C 0.50373 0.58086 0.9801 0.0
C2856 C 0.5236 0.61171 0.98772 0.0
C2857 C 0.4966 0.58588 0.96237 0.0
C2858 C 0.5635 0.54376 0.02242 0.0
C2859 C 0.52509 0.58805 0.01144 0.0
H2860 H 0.56802 0.41459 0.04401 0.0
H2861 H 0.56697 0.46695 0.02219 0.0
H2862 H 0.57789 0.43719 0.02127 0.0
H2863 H 0.53617 0.4522 0.07018 0.0
H2864 H 0.49723 0.60724 0.94333 0.0
H2865 H 0.49855 0.5671 0.98396 0.0
H2866 H 0.53405 0.62171 0.99754 0.0
H2867 H 0.48605 0.57599 0.95264 0.0
Tb2868 Tb 0.78731 0.30729 0.26474 0.0
C2869 C 0.75174 0.23706 0.30406 0.0
N2870 N 0.76888 0.24853 0.30823 0.0
C2871 C 0.76671 0.24858 0.34262 0.0
C2872 C 0.7411 0.23162 0.31914 0.0
C2873 C 0.77685 0.25346 0.32723 0.0
C2874 C 0.74867 0.23784 0.33856 0.0
C2875 C 0.72734 0.21824 0.27989 0.0
C2876 C 0.74499 0.23016 0.28461 0.0
C2877 C 0.71658 0.21321 0.29489 0.0
C2878 C 0.72345 0.21985 0.31443 0.0
Tb2879 Tb 0.78341 0.25489 0.2813 0.0
N2880 N 0.75548 0.23568 0.27028 0.0
C2881 C 0.72093 0.21188 0.2602 0.0
C2882 C 0.74958 0.22906 0.25113 0.0
C2883 C 0.73215 0.21723 0.24578 0.0
H2884 H 0.7911 0.26101 0.33072 0.0
H2885 H 0.72739 0.2122 0.23054 0.0
H2886 H 0.78824 0.29888 0.21565 0.0
H2887 H 0.83416 0.35796 0.31729 0.0
H2888 H 0.75824 0.23291 0.24003 0.0
H2889 H 0.7074 0.20276 0.25598 0.0
H2890 H 0.80426 0.33642 0.30417 0.0
H2891 H 0.77293 0.25289 0.35761 0.0
H2892 H 0.70294 0.20413 0.29153 0.0
H2893 H 0.71505 0.21564 0.32584 0.0
H2894 H 0.81207 0.30121 0.19323 0.0
H2895 H 0.74092 0.23397 0.35054 0.0
H2896 H 0.86075 0.36106 0.29764 0.0
N2897 N 0.80745 0.31007 0.2412 0.0
C2898 C 0.82485 0.32035 0.24758 0.0
C2899 C 0.81599 0.30626 0.2086 0.0
C2900 C 0.8388 0.323 0.23495 0.0
C2901 C 0.80255 0.30438 0.22161 0.0
C2902 C 0.83432 0.31521 0.21539 0.0
N2903 N 0.81433 0.32705 0.27803 0.0
C2904 C 0.81593 0.33766 0.29571 0.0
C2905 C 0.8455 0.34157 0.27323 0.0
C2906 C 0.82824 0.32958 0.26643 0.0
C2907 C 0.84771 0.35165 0.29189 0.0
C2908 C 0.83274 0.34991 0.30305 0.0
H2909 H 0.84462 0.31692 0.2052 0.0
H2910 H 0.8674 0.33605 0.23255 0.0
H2911 H 0.87327 0.35229 0.26612 0.0
O2912 O 0.7736 0.32782 0.27686 0.0
O2913 O 0.81159 0.30027 0.28274 0.0
O2914 O 0.80963 0.26949 0.27194 0.0
O2915 O 0.78294 0.32925 0.24867 0.0
O2916 O 0.77622 0.30042 0.29187 0.0
O2917 O 0.79222 0.27862 0.30366 0.0
O2918 O 0.7876 0.22826 0.27041 0.0
O2919 O 0.75625 0.26462 0.27488 0.0
O2920 O 0.75936 0.28937 0.25576 0.0
O2921 O 0.80155 0.24217 0.29841 0.0
O2922 O 0.79224 0.26245 0.25378 0.0
O2923 O 0.7771 0.2839 0.24145 0.0
C2924 C 0.81969 0.28574 0.27992 0.0
C2925 C 0.75594 0.34126 0.25387 0.0
C2926 C 0.73426 0.36279 0.254 0.0
C2927 C 0.72283 0.35119 0.23835 0.0
C2928 C 0.74435 0.32986 0.23817 0.0
C2929 C 0.72784 0.33478 0.23055 0.0
C2930 C 0.75076 0.3577 0.26187 0.0
C2931 C 0.78364 0.29266 0.30621 0.0
C2932 C 0.77376 0.33655 0.26147 0.0
C2933 C 0.85645 0.33406 0.24198 0.0
C2934 C 0.85978 0.34337 0.26108 0.0
C2935 C 0.74902 0.2759 0.26367 0.0
C2936 C 0.79735 0.20913 0.29354 0.0
C2937 C 0.80869 0.18004 0.29569 0.0
C2938 C 0.79708 0.17576 0.3102 0.0
C2939 C 0.78569 0.20454 0.30791 0.0
C2940 C 0.80865 0.19669 0.28727 0.0
C2941 C 0.78553 0.18788 0.31613 0.0
C2942 C 0.78196 0.26749 0.23964 0.0
C2943 C 0.79902 0.22724 0.28576 0.0
H2944 H 0.71011 0.35495 0.23207 0.0
H2945 H 0.74826 0.31734 0.23161 0.0
H2946 H 0.71905 0.32603 0.21836 0.0
H2947 H 0.75974 0.36672 0.27382 0.0
H2948 H 0.79695 0.16301 0.3169 0.0
H2949 H 0.77697 0.21389 0.31304 0.0
H2950 H 0.81783 0.20022 0.27628 0.0
H2951 H 0.77659 0.18446 0.3273 0.0
Tb2952 Tb 0.03716 0.5472 0.50263 0.0
C2953 C 0.06273 0.50474 0.57344 0.0
N2954 N 0.05047 0.49648 0.55763 0.0
C2955 C 0.06637 0.47069 0.55481 0.0
C2956 C 0.07769 0.49656 0.58025 0.0
C2957 C 0.05185 0.47946 0.54849 0.0
C2958 C 0.07945 0.47935 0.57066 0.0
C2959 C 0.07243 0.53051 0.59923 0.0
C2960 C 0.0603 0.52164 0.58244 0.0
C2961 C 0.08772 0.52276 0.60583 0.0
C2962 C 0.09036 0.50581 0.59634 0.0
Tb2963 Tb 0.02813 0.51246 0.54705 0.0
N2964 N 0.04541 0.52874 0.57546 0.0
C2965 C 0.06838 0.54646 0.60933 0.0
C2966 C 0.04015 0.54273 0.58694 0.0
C2967 C 0.05186 0.55226 0.60348 0.0
H2968 H 0.04179 0.4727 0.53621 0.0
H2969 H 0.04784 0.56375 0.61201 0.0
H2970 H 0.02158 0.58419 0.52058 0.0
H2971 H 0.02395 0.50831 0.43002 0.0
H2972 H 0.02667 0.54636 0.58406 0.0
H2973 H 0.07732 0.5537 0.62229 0.0
H2974 H 0.04184 0.51957 0.46219 0.0
H2975 H 0.06751 0.45732 0.54738 0.0
H2976 H 0.09731 0.52952 0.61854 0.0
H2977 H 0.10205 0.49985 0.60173 0.0
H2978 H 0.99606 0.60065 0.51161 0.0
H2979 H 0.09075 0.47258 0.57546 0.0
H2980 H 0.99547 0.5202 0.41995 0.0
N2981 N 0.01482 0.56418 0.49524 0.0
C2982 C 1.00408 0.55872 0.47772 0.0
C2983 C 0.99808 0.58879 0.50201 0.0
C2984 C 0.98946 0.56778 0.47191 0.0
C2985 C 0.01244 0.57937 0.50714 0.0
C2986 C 0.98642 0.58286 0.48441 0.0
N2987 N 0.02239 0.5359 0.47175 0.0
C2988 C 0.02888 0.52415 0.45865 0.0
C2989 C 0.99754 0.53838 0.44705 0.0
C2990 C 1.00787 0.54396 0.46569 0.0
C2991 C 1.003 0.52484 0.43441 0.0
C2992 C 0.01901 0.51805 0.44007 0.0
H2993 H 0.97531 0.59019 0.48048 0.0
H2994 H 0.96716 0.56833 0.44907 0.0
H2995 H 0.97439 0.54275 0.42717 0.0
O2996 O 0.0613 0.55115 0.48842 0.0
O2997 O 0.00841 0.54061 0.50914 0.0
O2998 O 0.0119 0.51348 0.51947 0.0
O2999 O 0.04979 0.57458 0.49894 0.0
O3000 O 0.04076 0.51761 0.49563 0.0
O3001 O 0.02875 0.49705 0.51776 0.0
O3002 O 1.00578 0.50997 0.56399 0.0
O3003 O 0.05624 0.5168 0.53906 0.0
O3004 O 0.05371 0.54407 0.52918 0.0
O3005 O 0.0145 0.48561 0.55168 0.0
O3006 O 0.02064 0.54087 0.55043 0.0
O3007 O 0.04043 0.56012 0.53335 0.0
C3008 C 1.00138 0.52552 0.51633 0.0
C3009 C 0.06283 0.57641 0.46937 0.0
C3010 C 0.06755 0.57241 0.43491 0.0
C3011 C 0.06697 0.59141 0.43403 0.0
C3012 C 0.06234 0.59531 0.46817 0.0
C3013 C 0.06417 0.60267 0.45051 0.0
C3014 C 0.06499 0.56497 0.45259 0.0
C3015 C 0.03644 0.50069 0.50149 0.0
C3016 C 0.0617 0.56896 0.4883 0.0
C3017 C 0.97854 0.56163 0.45378 0.0
C3018 C 0.9826 0.547 0.44135 0.0
C3019 C 0.0632 0.53094 0.53056 0.0
C3020 C 1.00703 0.48634 0.58415 0.0
C3021 C 1.00065 0.49026 0.618 0.0
C3022 C 0.01388 0.47941 0.62309 0.0
C3023 C 0.02006 0.47528 0.58942 0.0
C3024 C 0.99718 0.49351 0.59848 0.0
C3025 C 0.02342 0.47186 0.6088 0.0
C3026 C 0.02854 0.55773 0.54652 0.0
C3027 C 1.00491 0.49219 0.56444 0.0
H3028 H 0.06933 0.59783 0.42086 0.0
H3029 H 0.0607 0.60442 0.48093 0.0
H3030 H 0.06391 0.61729 0.44972 0.0
H3031 H 0.06504 0.55031 0.45338 0.0
H3032 H 0.01668 0.47661 0.63805 0.0
H3033 H 0.02792 0.46956 0.57872 0.0
H3034 H 0.98727 0.50222 0.59456 0.0
H3035 H 0.03356 0.46346 0.61278 0.0
Tb3036 Tb 0.81084 0.77482 0.27811 0.0
C3037 C 0.73825 0.79728 0.23907 0.0
N3038 N 0.74965 0.8052 0.25565 0.0
C3039 C 0.74945 0.83571 0.24596 0.0
C3040 C 0.73271 0.80826 0.22482 0.0
C3041 C 0.75461 0.82423 0.25965 0.0
C3042 C 0.73868 0.82768 0.22835 0.0
C3043 C 0.72021 0.76926 0.21945 0.0
C3044 C 0.73193 0.77806 0.2365 0.0
C3045 C 0.71508 0.78009 0.20495 0.0
C3046 C 0.72128 0.79954 0.20766 0.0
Tb3047 Tb 0.75756 0.78472 0.27634 0.0
N3048 N 0.73747 0.76798 0.25066 0.0
C3049 C 0.71394 0.74987 0.21756 0.0
C3050 C 0.73058 0.74924 0.24937 0.0
C3051 C 0.71896 0.73986 0.2327 0.0
H3052 H 0.76217 0.83075 0.27353 0.0
H3053 H 0.71375 0.72494 0.23164 0.0
H3054 H 0.80655 0.72947 0.2863 0.0
H3055 H 0.85517 0.83673 0.31794 0.0
H3056 H 0.73365 0.74154 0.26129 0.0
H3057 H 0.70494 0.74257 0.20467 0.0
H3058 H 0.83542 0.81764 0.28914 0.0
H3059 H 0.75363 0.85075 0.24911 0.0
H3060 H 0.70619 0.77357 0.19169 0.0
H3061 H 0.71701 0.80773 0.19646 0.0
H3062 H 0.81193 0.71256 0.31446 0.0
H3063 H 0.73469 0.83662 0.21779 0.0
H3064 H 0.86078 0.8226 0.34849 0.0
N3065 N 0.81656 0.75659 0.30233 0.0
C3066 C 0.82649 0.76608 0.3192 0.0
C3067 C 0.81579 0.72767 0.3161 0.0
C3068 C 0.83053 0.75682 0.33552 0.0
C3069 C 0.81233 0.73745 0.30023 0.0
C3070 C 0.82458 0.73742 0.33396 0.0
N3071 N 0.82947 0.79343 0.30365 0.0
C3072 C 0.83778 0.8115 0.30247 0.0
C3073 C 0.84464 0.79529 0.33648 0.0
C3074 C 0.83358 0.78502 0.31972 0.0
C3075 C 0.85219 0.81421 0.3359 0.0
C3076 C 0.84901 0.82226 0.3187 0.0
H3077 H 0.82739 0.72978 0.34616 0.0
H3078 H 0.84394 0.76027 0.36539 0.0
H3079 H 0.85621 0.79399 0.36625 0.0
O3080 O 0.82975 0.78582 0.25906 0.0
O3081 O 0.80229 0.79205 0.30228 0.0
O3082 O 0.77265 0.77663 0.30184 0.0
O3083 O 0.83395 0.76236 0.2736 0.0
O3084 O 0.80301 0.79818 0.26412 0.0
O3085 O 0.78117 0.80895 0.28168 0.0
O3086 O 0.73088 0.77634 0.28506 0.0
O3087 O 0.76935 0.7801 0.24828 0.0
O3088 O 0.79099 0.76089 0.25277 0.0
O3089 O 0.74762 0.80328 0.2962 0.0
O3090 O 0.76099 0.75696 0.28384 0.0
O3091 O 0.78846 0.74941 0.2732 0.0
C3092 C 0.78767 0.78727 0.3114 0.0
C3093 C 0.84566 0.76437 0.24322 0.0
C3094 C 0.86939 0.76105 0.22126 0.0
C3095 C 0.85716 0.74537 0.21077 0.0
C3096 C 0.83374 0.7487 0.23245 0.0
C3097 C 0.83944 0.73935 0.21625 0.0
C3098 C 0.86346 0.77069 0.23743 0.0
C3099 C 0.79586 0.81194 0.27194 0.0
C3100 C 0.84009 0.7734 0.26116 0.0
C3101 C 0.84089 0.76712 0.35263 0.0
C3102 C 0.84794 0.78631 0.3531 0.0
C3103 C 0.77873 0.76753 0.24155 0.0
C3104 C 0.7145 0.79938 0.29662 0.0
C3105 C 0.68493 0.80052 0.31003 0.0
C3106 C 0.68146 0.81356 0.29731 0.0
C3107 C 0.71062 0.81235 0.28401 0.0
C3108 C 0.70154 0.79346 0.30966 0.0
C3109 C 0.69422 0.81941 0.28442 0.0
C3110 C 0.77174 0.74497 0.27916 0.0
C3111 C 0.73182 0.79175 0.29646 0.0
H3112 H 0.86137 0.73775 0.19829 0.0
H3113 H 0.8202 0.74349 0.23685 0.0
H3114 H 0.8302 0.7272 0.2081 0.0
H3115 H 0.87286 0.78265 0.2458 0.0
H3116 H 0.6688 0.81919 0.29734 0.0
H3117 H 0.72021 0.81702 0.27384 0.0
H3118 H 0.70435 0.78338 0.31943 0.0
H3119 H 0.69137 0.82946 0.27466 0.0
Tb3120 Tb 0.76612 0.27527 0.79756 0.0
C3121 C 0.81283 0.24578 0.724 0.0
N3122 N 0.81856 0.25829 0.74032 0.0
C3123 C 0.84745 0.24737 0.74468 0.0
C3124 C 0.82405 0.23322 0.71766 0.0
C3125 C 0.83588 0.25959 0.75035 0.0
C3126 C 0.84146 0.23403 0.72836 0.0
C3127 C 0.7891 0.23272 0.69668 0.0
C3128 C 0.79557 0.24552 0.71366 0.0
C3129 C 0.80016 0.2201 0.69039 0.0
C3130 C 0.81758 0.22034 0.70087 0.0
Tb3131 Tb 0.79835 0.27744 0.74818 0.0
N3132 N 0.78503 0.25765 0.72047 0.0
C3133 C 0.77174 0.23302 0.68648 0.0
C3134 C 0.76846 0.25853 0.70997 0.0
C3135 C 0.76148 0.24611 0.69306 0.0
H3136 H 0.84111 0.2703 0.76251 0.0
H3137 H 0.74825 0.2468 0.68498 0.0
H3138 H 0.72853 0.28917 0.77879 0.0
H3139 H 0.8056 0.29263 0.86956 0.0
H3140 H 0.76059 0.26897 0.71405 0.0
H3141 H 0.76629 0.22344 0.67336 0.0
H3142 H 0.79414 0.27311 0.83818 0.0
H3143 H 0.86106 0.24838 0.75282 0.0
H3144 H 0.7954 0.21014 0.67741 0.0
H3145 H 0.82599 0.21056 0.6958 0.0
H3146 H 0.71191 0.31492 0.78592 0.0
H3147 H 0.85048 0.22462 0.72397 0.0
H3148 H 0.79339 0.32131 0.87807 0.0
N3149 N 0.74885 0.29761 0.80377 0.0
C3150 C 0.75441 0.30946 0.82051 0.0
C3151 C 0.72393 0.31362 0.79572 0.0
C3152 C 0.74526 0.32426 0.82533 0.0
C3153 C 0.73346 0.2991 0.79165 0.0
C3154 C 0.72998 0.3264 0.81254 0.0
N3155 N 0.77698 0.29149 0.82785 0.0
C3156 C 0.78923 0.28598 0.84121 0.0
C3157 C 0.77484 0.31768 0.85101 0.0
C3158 C 0.7691 0.30635 0.83295 0.0
C3159 C 0.78859 0.31299 0.86403 0.0
C3160 C 0.79554 0.29685 0.85926 0.0
H3161 H 0.72256 0.33761 0.81569 0.0
H3162 H 0.74473 0.34774 0.84681 0.0
H3163 H 0.77057 0.34187 0.86942 0.0
O3164 O 0.76393 0.25269 0.81401 0.0
O3165 O 0.7729 0.30287 0.78825 0.0
O3166 O 0.798 0.29616 0.77489 0.0
O3167 O 0.73957 0.25854 0.79788 0.0
O3168 O 0.79603 0.27267 0.80402 0.0
O3169 O 0.81423 0.27589 0.77732 0.0
O3170 O 0.79736 0.29663 0.72763 0.0
O3171 O 0.78654 0.2483 0.75078 0.0
O3172 O 0.77829 0.26459 0.77418 0.0
O3173 O 0.82395 0.29309 0.74239 0.0
O3174 O 0.76979 0.2847 0.74556 0.0
O3175 O 0.75092 0.26972 0.76744 0.0
C3176 C 0.78639 0.30751 0.77758 0.0
C3177 C 0.73641 0.24834 0.829 0.0
C3178 C 0.73628 0.24063 0.86233 0.0
C3179 C 0.71981 0.2475 0.86379 0.0
C3180 C 0.71996 0.25535 0.83064 0.0
C3181 C 0.71173 0.2549 0.84799 0.0
C3182 C 0.74444 0.24095 0.84494 0.0
C3183 C 0.81195 0.27328 0.79592 0.0
C3184 C 0.74578 0.24914 0.81117 0.0
C3185 C 0.75148 0.33618 0.84287 0.0
C3186 C 0.76623 0.33287 0.85571 0.0
C3187 C 0.77804 0.24797 0.76602 0.0
C3188 C 0.82546 0.31517 0.71845 0.0
C3189 C 0.8255 0.3326 0.69044 0.0
C3190 C 0.84476 0.33954 0.69538 0.0
C3191 C 0.8447 0.32218 0.7233 0.0
C3192 C 0.81591 0.3206 0.70216 0.0
C3193 C 0.85426 0.33443 0.71185 0.0
C3194 C 0.75326 0.27859 0.75169 0.0
C3195 C 0.8155 0.30125 0.72945 0.0
H3196 H 0.71332 0.24727 0.87717 0.0
H3197 H 0.71351 0.26128 0.81864 0.0
H3198 H 0.6991 0.26035 0.8492 0.0
H3199 H 0.75707 0.23539 0.84386 0.0
H3200 H 0.8524 0.34896 0.68657 0.0
H3201 H 0.85236 0.31811 0.73583 0.0
H3202 H 0.80111 0.31496 0.69812 0.0
H3203 H 0.86909 0.33982 0.71563 0.0
Tb3204 Tb 0.7716 0.7531 0.7616 0.0
C3205 C 0.83745 0.81173 0.79816 0.0
N3206 N 0.82195 0.80232 0.80481 0.0
C3207 C 0.84128 0.79526 0.83207 0.0
C3208 C 0.85553 0.81196 0.80739 0.0
C3209 C 0.82365 0.79536 0.82234 0.0
C3210 C 0.85731 0.80322 0.82433 0.0
C3211 C 0.85079 0.83077 0.77437 0.0
C3212 C 0.83514 0.82137 0.78211 0.0
C3213 C 0.86884 0.83049 0.78313 0.0
C3214 C 0.8712 0.82118 0.79964 0.0
Tb3215 Tb 0.79403 0.80342 0.78721 0.0
N3216 N 0.81746 0.82085 0.77363 0.0
C3217 C 0.8478 0.83997 0.75791 0.0
C3218 C 0.81446 0.83028 0.75795 0.0
C3219 C 0.82956 0.83983 0.74976 0.0
H3220 H 0.81159 0.79049 0.82941 0.0
H3221 H 0.8271 0.84712 0.73721 0.0
H3222 H 0.75541 0.76815 0.71967 0.0
H3223 H 0.73556 0.71005 0.8102 0.0
H3224 H 0.80044 0.83073 0.75194 0.0
H3225 H 0.85946 0.8473 0.75147 0.0
H3226 H 0.76316 0.726 0.7965 0.0
H3227 H 0.84247 0.78935 0.84575 0.0
H3228 H 0.88105 0.83752 0.77732 0.0
H3229 H 0.88521 0.82132 0.80641 0.0
H3230 H 0.72526 0.77167 0.70369 0.0
H3231 H 0.87094 0.80317 0.83194 0.0
H3232 H 0.70375 0.71139 0.79542 0.0
N3233 N 0.74429 0.7563 0.74397 0.0
C3234 C 0.72832 0.74744 0.75024 0.0
C3235 C 0.72592 0.76527 0.7171 0.0
C3236 C 0.71055 0.74844 0.74103 0.0
C3237 C 0.74321 0.76388 0.72673 0.0
C3238 C 0.70952 0.75791 0.72454 0.0
N3239 N 0.74716 0.73672 0.7746 0.0
C3240 C 0.74936 0.72687 0.7901 0.0
C3241 C 0.71365 0.72816 0.77316 0.0
C3242 C 0.72979 0.73712 0.76588 0.0
C3243 C 0.71581 0.71839 0.78933 0.0
C3244 C 0.73374 0.71766 0.79776 0.0
H3245 H 0.69615 0.75894 0.71699 0.0
H3246 H 0.68065 0.74049 0.74157 0.0
H3247 H 0.68338 0.72297 0.76986 0.0
O3248 O 0.7702 0.72411 0.75794 0.0
O3249 O 0.75485 0.7676 0.78107 0.0
O3250 O 0.76362 0.79847 0.77739 0.0
O3251 O 0.77348 0.73991 0.73367 0.0
O3252 O 0.78785 0.75337 0.78999 0.0
O3253 O 0.78452 0.78163 0.80573 0.0
O3254 O 0.79628 0.83242 0.7923 0.0
O3255 O 0.8118 0.789 0.76911 0.0
O3256 O 0.80225 0.75753 0.77022 0.0
O3257 O 0.78879 0.81511 0.81462 0.0
O3258 O 0.77801 0.80232 0.75855 0.0
O3259 O 0.78272 0.77453 0.74337 0.0
C3260 C 0.75112 0.78454 0.78165 0.0
C3261 C 0.79061 0.71574 0.73604 0.0
C3262 C 0.81108 0.69433 0.74417 0.0
C3263 C 0.82266 0.70098 0.73041 0.0
C3264 C 0.80235 0.72237 0.72232 0.0
C3265 C 0.81828 0.71498 0.71955 0.0
C3266 C 0.79504 0.70159 0.74675 0.0
C3267 C 0.78684 0.76427 0.80597 0.0
C3268 C 0.77432 0.72401 0.74014 0.0
C3269 C 0.6944 0.73968 0.74833 0.0
C3270 C 0.69595 0.7296 0.76437 0.0
C3271 C 0.81514 0.77189 0.76753 0.0
C3272 C 0.77301 0.84006 0.811 0.0
C3273 C 0.75255 0.86046 0.79944 0.0
C3274 C 0.74196 0.85679 0.81499 0.0
C3275 C 0.76231 0.83662 0.82643 0.0
C3276 C 0.76772 0.85158 0.79735 0.0
C3277 C 0.74672 0.84478 0.82823 0.0
C3278 C 0.78073 0.79197 0.74288 0.0
C3279 C 0.78953 0.83156 0.80889 0.0
H3280 H 0.83515 0.69551 0.72827 0.0
H3281 H 0.79937 0.73336 0.71388 0.0
H3282 H 0.8273 0.7202 0.70907 0.0
H3283 H 0.78605 0.69624 0.75725 0.0
H3284 H 0.73032 0.86357 0.81734 0.0
H3285 H 0.76598 0.82764 0.83708 0.0
H3286 H 0.77556 0.85376 0.78506 0.0
H3287 H 0.73853 0.84209 0.84017 0.0
Tb3288 Tb 0.5564 0.54318 0.53999 0.0
C3289 C 0.50409 0.47482 0.4906 0.0
N3290 N 0.51088 0.49222 0.48605 0.0
C3291 C 0.51641 0.47897 0.45456 0.0
C3292 C 0.50357 0.45875 0.47739 0.0
C3293 C 0.51663 0.49451 0.46812 0.0
C3294 C 0.50993 0.46101 0.45923 0.0
C3295 C 0.49118 0.45535 0.51423 0.0
C3296 C 0.49802 0.47315 0.50882 0.0
C3297 C 0.49066 0.4393 0.50113 0.0
C3298 C 0.4968 0.441 0.48275 0.0
Tb3299 Tb 0.50972 0.51639 0.50919 0.0
N3300 N 0.49906 0.48899 0.52129 0.0
C3301 C 0.48491 0.45424 0.53257 0.0
C3302 C 0.4915 0.48798 0.53846 0.0
C3303 C 0.48482 0.47066 0.54462 0.0
H3304 H 0.5208 0.50828 0.4639 0.0
H3305 H 0.47919 0.47 0.55845 0.0
H3306 H 0.54611 0.55271 0.58519 0.0
H3307 H 0.58534 0.58799 0.48842 0.0
H3308 H 0.48979 0.50038 0.5471 0.0
H3309 H 0.47961 0.44084 0.53732 0.0
H3310 H 0.5765 0.55819 0.50156 0.0
H3311 H 0.52104 0.48088 0.4404 0.0
H3312 H 0.48549 0.42551 0.50505 0.0
H3313 H 0.49632 0.42848 0.47281 0.0
H3314 H 0.54466 0.58072 0.60737 0.0
H3315 H 0.50975 0.44901 0.44867 0.0
H3316 H 0.58324 0.61758 0.50784 0.0
N3317 N 0.55524 0.56804 0.56224 0.0
C3318 C 0.56103 0.58525 0.5567 0.0
C3319 C 0.54916 0.58218 0.5931 0.0
C3320 C 0.56063 0.60165 0.569 0.0
C3321 C 0.54973 0.5663 0.58034 0.0
C3322 C 0.55453 0.59993 0.58737 0.0
N3323 N 0.5665 0.57011 0.52668 0.0
C3324 C 0.57406 0.57067 0.50947 0.0
C3325 C 0.57255 0.60386 0.53182 0.0
C3326 C 0.56677 0.58631 0.53829 0.0
C3327 C 0.57871 0.60439 0.51338 0.0
C3328 C 0.57976 0.58772 0.5023 0.0
H3329 H 0.55402 0.6122 0.59726 0.0
H3330 H 0.56594 0.63193 0.57176 0.0
H3331 H 0.57658 0.63387 0.53932 0.0
O3332 O 0.58417 0.54218 0.53616 0.0
O3333 O 0.5341 0.55957 0.5337 0.0
O3334 O 0.51798 0.5461 0.5041 0.0
O3335 O 0.57608 0.54635 0.56499 0.0
O3336 O 0.55765 0.5292 0.51029 0.0
O3337 O 0.53005 0.53162 0.49294 0.0
O3338 O 0.48201 0.51723 0.51297 0.0
O3339 O 0.53115 0.49923 0.5162 0.0
O3340 O 0.5482 0.51349 0.54522 0.0
O3341 O 0.49017 0.51347 0.48411 0.0
O3342 O 0.5083 0.52965 0.53923 0.0
O3343 O 0.53631 0.52824 0.55681 0.0
C3344 C 0.52486 0.5611 0.51678 0.0
C3345 C 0.59724 0.52622 0.55975 0.0
C3346 C 0.61666 0.50419 0.55038 0.0
C3347 C 0.60941 0.49257 0.56382 0.0
C3348 C 0.59027 0.51468 0.57349 0.0
C3349 C 0.59649 0.498 0.57557 0.0
C3350 C 0.6108 0.5211 0.54866 0.0
C3351 C 0.54758 0.53014 0.49367 0.0
C3352 C 0.58896 0.54219 0.55478 0.0
C3353 C 0.56619 0.61916 0.56254 0.0
C3354 C 0.57217 0.62026 0.54402 0.0
C3355 C 0.54103 0.49824 0.53296 0.0
C3356 C 0.46623 0.53056 0.48833 0.0
C3357 C 0.44371 0.54989 0.49623 0.0
C3358 C 0.44183 0.5537 0.47666 0.0
C3359 C 0.46421 0.53446 0.46888 0.0
C3360 C 0.4566 0.53899 0.50198 0.0
C3361 C 0.45231 0.54629 0.46321 0.0
C3362 C 0.51854 0.52896 0.55588 0.0
C3363 C 0.47692 0.51653 0.4943 0.0
H3364 H 0.61389 0.47945 0.56534 0.0
H3365 H 0.57968 0.51822 0.5822 0.0
H3366 H 0.59104 0.48911 0.58606 0.0
H3367 H 0.61616 0.52985 0.53794 0.0
H3368 H 0.43184 0.56181 0.47149 0.0
H3369 H 0.47153 0.52813 0.45801 0.0
H3370 H 0.4587 0.53648 0.51711 0.0
H3371 H 0.45067 0.54916 0.44816 0.0
Tb3372 Tb 1.00341 0.52511 0.03315 0.0
C3373 C 0.07458 0.56212 0.9954 0.0
N3374 N 0.06327 0.54493 0.99063 0.0
C3375 C 0.06398 0.54801 0.95648 0.0
C3376 C 0.08022 0.57327 0.98077 0.0
C3377 C 0.05887 0.53739 0.97144 0.0
C3378 C 0.07444 0.56614 0.96116 0.0
C3379 C 0.09315 0.58595 0.02034 0.0
C3380 C 0.08129 0.56832 0.015 0.0
C3381 C 0.09823 0.59728 0.0058 0.0
C3382 C 0.09182 0.59094 0.98609 0.0
Tb3383 Tb 0.05652 0.52955 0.01695 0.0
N3384 N 0.07579 0.55726 0.02889 0.0
C3385 C 0.09951 0.59171 0.04016 0.0
C3386 C 0.0825 0.56249 0.04814 0.0
C3387 C 0.09428 0.57986 0.05409 0.0
H3388 H 0.05168 0.52305 0.96749 0.0
H3389 H 0.09934 0.58409 0.06941 0.0
H3390 H 0.01139 0.52139 0.08192 0.0
H3391 H 0.954 0.48116 0.97702 0.0
H3392 H 0.07867 0.55337 0.05887 0.0
H3393 H 0.10859 0.60518 0.04483 0.0
H3394 H 0.97627 0.51 0.9917 0.0
H3395 H 0.06011 0.54209 0.94134 0.0
H3396 H 0.10725 0.61091 0.00964 0.0
H3397 H 0.09614 0.59973 0.97504 0.0
H3398 H 1.00709 0.49634 0.10272 0.0
H3399 H 0.0785 0.57426 0.9495 0.0
H3400 H 0.94838 0.45398 0.99569 0.0
N3401 N 0.99941 0.50379 0.05541 0.0
C3402 C 0.98842 0.48692 0.04803 0.0
C3403 C 1.00212 0.49337 0.08725 0.0
C3404 C 0.98472 0.47235 0.05981 0.0
C3405 C 1.00507 0.5075 0.07512 0.0
C3406 C 0.99224 0.4756 0.07949 0.0
N3407 N 0.98355 0.49889 0.01793 0.0
C3408 C 0.97397 0.49812 0.99979 0.0
C3409 C 0.96732 0.46785 0.02113 0.0
C3410 C 0.97978 0.4846 0.02891 0.0
C3411 C 0.95812 0.46659 0.00216 0.0
C3412 C 0.9613 0.48188 0.99154 0.0
H3413 H 0.98974 0.46478 0.08902 0.0
H3414 H 0.97022 0.4439 0.06062 0.0
H3415 H 0.95499 0.43998 0.02675 0.0
O3416 O 0.98304 0.53878 0.02065 0.0
O3417 O 0.01053 0.50088 0.01489 0.0
O3418 O 0.04154 0.50291 0.02504 0.0
O3419 O 0.98149 0.52988 0.04906 0.0
O3420 O 0.01361 0.538 0.00829 0.0
O3421 O 0.03319 0.52172 0.99373 0.0
O3422 O 0.08258 0.52476 0.02882 0.0
O3423 O 0.04746 0.5566 0.02576 0.0
O3424 O 0.02123 0.55315 0.04303 0.0
O3425 O 0.07001 0.51207 0.99994 0.0
O3426 O 0.04724 0.51945 0.04339 0.0
O3427 O 0.0262 0.53404 0.05704 0.0
C3428 C 0.02529 0.49296 0.01686 0.0
C3429 C 0.96988 0.55697 0.04345 0.0
C3430 C 0.94812 0.57839 0.04445 0.0
C3431 C 0.96061 0.59039 0.05903 0.0
C3432 C 0.98215 0.56912 0.05808 0.0
C3433 C 0.97758 0.58581 0.06571 0.0
C3434 C 0.95291 0.56175 0.03649 0.0
C3435 C 0.01813 0.529 0.99282 0.0
C3436 C 0.9743 0.53895 0.03605 0.0
C3437 C 0.97304 0.45528 0.05183 0.0
C3438 C 0.9643 0.45306 0.03256 0.0
C3439 C 0.03571 0.56357 0.03656 0.0
C3440 C 0.10293 0.51621 0.00655 0.0
C3441 C 0.13229 0.50521 0.00543 0.0
C3442 C 0.13739 0.51768 0.99189 0.0
C3443 C 0.10833 0.52872 0.99317 0.0
C3444 C 0.11509 0.50465 0.01286 0.0
C3445 C 0.12553 0.52948 0.98596 0.0
C3446 C 0.04273 0.5295 0.05805 0.0
C3447 C 0.08434 0.51402 0.01326 0.0
H3448 H 0.95715 0.60327 0.06533 0.0
H3449 H 0.99508 0.5655 0.06386 0.0
H3450 H 0.98706 0.59507 0.07705 0.0
H3451 H 0.94324 0.55233 0.02536 0.0
H3452 H 0.15058 0.51829 0.98596 0.0
H3453 H 0.09919 0.53767 0.98807 0.0
H3454 H 0.11094 0.49483 0.02309 0.0
H3455 H 0.12958 0.53908 0.97555 0.0
C3456 C 0.02167 0.16876 1.00021 0.0
C3457 C 0.01062 0.17059 0.98284 0.0
C3458 C 0.02313 0.15101 0.00621 0.0
C3459 C 0.0134 0.13419 0.99474 0.0
C3460 C 1.00214 0.13591 0.97731 0.0
C3461 C 1.00087 0.15381 0.97167 0.0
C3462 C 0.03513 0.15025 0.02502 0.0
C3463 C 0.99123 0.11873 0.96452 0.0
C3464 C 0.03234 0.08873 0.99987 0.0
C3465 C 0.02033 0.0789 0.01163 0.0
C3466 C 0.03017 0.10638 0.9943 0.0
C3467 C 0.01557 0.11496 1.00055 0.0
C3468 C 1.00321 0.10502 0.01228 0.0
C3469 C 1.00556 0.08715 0.01741 0.0
C3470 C 0.04366 0.11587 0.98163 0.0
C3471 C 0.98742 0.11323 0.01951 0.0
H3472 H 0.02911 0.18128 0.00939 0.0
H3473 H 0.99241 0.15456 0.95814 0.0
H3474 H 0.02667 0.14224 0.03492 0.0
H3475 H 0.04657 0.1428 0.02193 0.0
H3476 H 0.04138 0.16439 0.03273 0.0
H3477 H 0.98522 0.12205 0.95023 0.0
H3478 H 1.0002 0.10834 0.96182 0.0
H3479 H 0.9796 0.11216 0.97216 0.0
H3480 H 0.04348 0.08247 0.99473 0.0
H3481 H 0.99602 0.07984 0.02635 0.0
H3482 H 0.05151 0.12938 0.98957 0.0
H3483 H 0.03587 0.119 0.96818 0.0
H3484 H 0.05385 0.1072 0.97734 0.0
H3485 H 0.99201 0.12841 0.02447 0.0
H3486 H 0.98186 0.10624 0.0318 0.0
H3487 H 0.97593 0.11153 0.00737 0.0
C3488 C 0.15876 0.80346 0.19608 0.0
C3489 C 0.15326 0.79241 0.17785 0.0
C3490 C 0.17514 0.80221 0.20813 0.0
C3491 C 0.18655 0.78959 0.20201 0.0
C3492 C 0.18117 0.7785 0.18361 0.0
C3493 C 0.16475 0.78005 0.17184 0.0
C3494 C 0.18015 0.8143 0.2276 0.0
C3495 C 0.19275 0.76483 0.17635 0.0
C3496 C 0.23768 0.79669 0.22539 0.0
C3497 C 0.23667 0.7837 0.23907 0.0
C3498 C 0.2216 0.79882 0.21339 0.0
C3499 C 0.20387 0.78772 0.21494 0.0
C3500 C 0.20276 0.77465 0.22877 0.0
C3501 C 0.21902 0.77285 0.24061 0.0
C3502 C 0.22359 0.81301 0.19902 0.0
C3503 C 0.18432 0.76243 0.23102 0.0
H3504 H 0.15003 0.8129 0.20118 0.0
H3505 H 0.16102 0.77161 0.15774 0.0
H3506 H 0.18028 0.80536 0.2396 0.0
H3507 H 0.19441 0.82289 0.22844 0.0
H3508 H 0.17019 0.82376 0.23011 0.0
H3509 H 0.18686 0.7573 0.16168 0.0
H3510 H 0.20722 0.7723 0.17556 0.0
H3511 H 0.19366 0.7544 0.18677 0.0
H3512 H 0.25108 0.80535 0.22414 0.0
H3513 H 0.21788 0.76272 0.25102 0.0
H3514 H 0.21458 0.82329 0.20206 0.0
H3515 H 0.21882 0.80596 0.18394 0.0
H3516 H 0.23824 0.82066 0.19961 0.0
H3517 H 0.17413 0.77124 0.23483 0.0
H3518 H 0.18569 0.75304 0.2425 0.0
H3519 H 0.17844 0.75373 0.21695 0.0
C3520 C 0.49949 0.88033 0.48899 0.0
C3521 C 0.51512 0.87236 0.48538 0.0
C3522 C 0.501 0.89987 0.49398 0.0
C3523 C 0.51866 0.91217 0.49587 0.0
C3524 C 0.53454 0.90428 0.49263 0.0
C3525 C 0.53259 0.88474 0.48733 0.0
C3526 C 0.48356 0.9074 0.49701 0.0
C3527 C 0.55373 0.91655 0.49466 0.0
C3528 C 0.52259 0.96467 0.49042 0.0
C3529 C 0.52502 0.97311 0.5099 0.0
C3530 C 0.52001 0.94502 0.48572 0.0
C3531 C 0.52049 0.93324 0.50079 0.0
C3532 C 0.52298 0.94174 0.52052 0.0
C3533 C 0.52486 0.96139 0.52479 0.0
C3534 C 0.51663 0.93685 0.46449 0.0
C3535 C 0.52401 0.93012 0.53722 0.0
H3536 H 0.48589 0.8713 0.48803 0.0
H3537 H 0.54488 0.87927 0.48434 0.0
H3538 H 0.48476 0.91453 0.51211 0.0
H3539 H 0.48189 0.91798 0.48692 0.0
H3540 H 0.47078 0.89623 0.49452 0.0
H3541 H 0.56486 0.90834 0.49281 0.0
H3542 H 0.5542 0.92647 0.48355 0.0
H3543 H 0.55682 0.92499 0.50925 0.0
H3544 H 0.52236 0.97346 0.47875 0.0
H3545 H 0.52668 0.96766 0.53989 0.0
H3546 H 0.50354 0.9261 0.46177 0.0
H3547 H 0.52819 0.92981 0.46084 0.0
H3548 H 0.51553 0.94764 0.4545 0.0
H3549 H 0.51072 0.9199 0.53662 0.0
H3550 H 0.52671 0.93879 0.55169 0.0
H3551 H 0.53529 0.92202 0.5359 0.0
C3552 C 0.47299 0.29113 0.69091 0.0
C3553 C 0.47222 0.2823 0.67178 0.0
C3554 C 0.45703 0.28933 0.70093 0.0
C3555 C 0.43972 0.27858 0.69162 0.0
C3556 C 0.43883 0.26981 0.67223 0.0
C3557 C 0.45503 0.27169 0.66264 0.0
C3558 C 0.45872 0.29883 0.72158 0.0
C3559 C 0.42071 0.25843 0.66155 0.0
C3560 C 0.40087 0.25818 0.72097 0.0
C3561 C 0.38827 0.27024 0.71858 0.0
C3562 C 0.41792 0.26107 0.71284 0.0
C3563 C 0.42253 0.2764 0.70204 0.0
C3564 C 0.4101 0.28901 0.70027 0.0
C3565 C 0.39309 0.28568 0.7084 0.0
C3566 C 0.4306 0.2472 0.71503 0.0
C3567 C 0.41436 0.30557 0.68902 0.0
H3568 H 0.48619 0.29923 0.6982 0.0
H3569 H 0.45416 0.26503 0.64779 0.0
H3570 H 0.44881 0.30853 0.7225 0.0
H3571 H 0.45492 0.28825 0.73162 0.0
H3572 H 0.47307 0.30682 0.72674 0.0
H3573 H 0.42224 0.25269 0.64646 0.0
H3574 H 0.4155 0.24665 0.6697 0.0
H3575 H 0.40991 0.26721 0.66073 0.0
H3576 H 0.39697 0.24598 0.72841 0.0
H3577 H 0.38319 0.29479 0.70619 0.0
H3578 H 0.44503 0.25458 0.72077 0.0
H3579 H 0.43122 0.23959 0.70051 0.0
H3580 H 0.42574 0.23682 0.72498 0.0
H3581 H 0.42856 0.31384 0.69429 0.0
H3582 H 0.4041 0.31489 0.69034 0.0
H3583 H 0.41419 0.30059 0.67332 0.0
C3584 C 0.04039 0.83895 0.61016 0.0
C3585 C 0.02957 0.83813 0.62579 0.0
C3586 C 0.04275 0.8545 0.59959 0.0
C3587 C 0.03425 0.86987 0.60477 0.0
C3588 C 0.02318 0.86909 0.62044 0.0
C3589 C 0.02089 0.85324 0.63066 0.0
C3590 C 0.05447 0.85451 0.58287 0.0
C3591 C 0.014 0.88517 0.62665 0.0
C3592 C 0.05723 0.91607 0.58837 0.0
C3593 C 0.0456 0.91685 0.57125 0.0
C3594 C 0.05323 0.90134 0.59988 0.0
C3595 C 0.03737 0.88681 0.59398 0.0
C3596 C 0.02527 0.8879 0.57698 0.0
C3597 C 0.02953 0.9029 0.56584 0.0
C3598 C 0.06641 0.90098 0.61797 0.0
C3599 C 0.00827 0.87278 0.57003 0.0
H3600 H 0.04695 0.82729 0.60606 0.0
H3601 H 0.01264 0.85289 0.6428 0.0
H3602 H 0.04616 0.8566 0.56925 0.0
H3603 H 0.06665 0.8663 0.58597 0.0
H3604 H 0.05966 0.84129 0.58026 0.0
H3605 H 1.0054 0.88223 0.63871 0.0
H3606 H 0.02485 0.89793 0.63157 0.0
H3607 H 1.00497 0.88827 0.61406 0.0
H3608 H 0.06976 0.92675 0.59246 0.0
H3609 H 0.02066 0.90337 0.55247 0.0
H3610 H 0.07365 0.88905 0.61576 0.0
H3611 H 0.05851 0.89887 0.63068 0.0
H3612 H 0.07713 0.91407 0.62154 0.0
H3613 H 0.01273 0.85951 0.56545 0.0
H3614 H 0.99949 0.87638 0.5575 0.0
H3615 H 0.99961 0.87022 0.58209 0.0
C3616 C 0.43097 0.81174 0.81718 0.0
C3617 C 0.43989 0.79656 0.813 0.0
C3618 C 0.41149 0.8104 0.8121 0.0
C3619 C 0.40016 0.79341 0.80259 0.0
C3620 C 0.409 0.77807 0.7982 0.0
C3621 C 0.42853 0.77981 0.80337 0.0
C3622 C 0.40296 0.82722 0.81714 0.0
C3623 C 0.39777 0.75967 0.78803 0.0
C3624 C 0.34701 0.7838 0.80621 0.0
C3625 C 0.3393 0.78795 0.78809 0.0
C3626 C 0.36657 0.78554 0.81105 0.0
C3627 C 0.37911 0.7916 0.79756 0.0
C3628 C 0.37141 0.79585 0.77926 0.0
C3629 C 0.35179 0.79389 0.77476 0.0
C3630 C 0.37382 0.78086 0.83074 0.0
C3631 C 0.38392 0.80247 0.76432 0.0
H3632 H 0.43915 0.82473 0.82486 0.0
H3633 H 0.43492 0.76796 0.79962 0.0
H3634 H 0.39542 0.83086 0.80381 0.0
H3635 H 0.39255 0.82389 0.82748 0.0
H3636 H 0.41359 0.83963 0.82389 0.0
H3637 H 0.40656 0.74906 0.78546 0.0
H3638 H 0.38674 0.75409 0.79694 0.0
H3639 H 0.39064 0.76178 0.77376 0.0
H3640 H 0.33773 0.77919 0.81674 0.0
H3641 H 0.34625 0.79696 0.76063 0.0
H3642 H 0.38364 0.79318 0.83892 0.0
H3643 H 0.38173 0.76942 0.82877 0.0
H3644 H 0.36242 0.77646 0.8397 0.0
H3645 H 0.39407 0.81534 0.7707 0.0
H3646 H 0.37591 0.80548 0.75091 0.0
H3647 H 0.39208 0.7917 0.76013 0.0
C3648 C 0.5096 0.15535 0.09941 0.0
C3649 C 0.51947 0.15968 0.11835 0.0
C3650 C 0.51066 0.13906 0.0871 0.0
C3651 C 0.52189 0.12655 0.09366 0.0
C3652 C 0.53179 0.13073 0.11276 0.0
C3653 C 0.53044 0.14708 0.12478 0.0
C3654 C 0.49983 0.13529 0.06692 0.0
C3655 C 0.5439 0.11791 0.12052 0.0
C3656 C 0.51291 0.0758 0.06884 0.0
C3657 C 0.52688 0.07631 0.05629 0.0
C3658 C 0.51104 0.09194 0.08088 0.0
C3659 C 0.52346 0.10921 0.08056 0.0
C3660 C 0.53753 0.10982 0.06785 0.0
C3661 C 0.53902 0.09349 0.05589 0.0
C3662 C 0.4957 0.09049 0.09395 0.0
C3663 C 0.55115 0.12777 0.06694 0.0
H3664 H 0.50125 0.16492 0.094 0.0
H3665 H 0.53792 0.14988 0.1394 0.0
H3666 H 0.50958 0.13485 0.05571 0.0
H3667 H 0.4903 0.12143 0.0651 0.0
H3668 H 0.49143 0.14609 0.06405 0.0
H3669 H 0.55071 0.12302 0.13565 0.0
H3670 H 0.53538 0.10372 0.12043 0.0
H3671 H 0.55492 0.11656 0.11091 0.0
H3672 H 0.50324 0.06275 0.06912 0.0
H3673 H 0.54985 0.09416 0.04628 0.0
H3674 H 0.48653 0.10048 0.09054 0.0
H3675 H 0.50185 0.09433 0.10945 0.0
H3676 H 0.48699 0.07619 0.09231 0.0
H3677 H 0.54346 0.13876 0.06281 0.0
H3678 H 0.56121 0.12605 0.05625 0.0
H3679 H 0.55911 0.13284 0.08157 0.0
C3680 C 0.1482 0.27968 0.31805 0.0
C3681 C 0.14141 0.29638 0.31652 0.0
C3682 C 0.16582 0.27734 0.31231 0.0
C3683 C 0.1775 0.29201 0.30478 0.0
C3684 C 0.17079 0.30886 0.30313 0.0
C3685 C 0.15308 0.31081 0.30891 0.0
C3686 C 0.17202 0.25907 0.31446 0.0
C3687 C 0.1824 0.32499 0.2952 0.0
C3688 C 0.23079 0.2925 0.30713 0.0
C3689 C 0.23297 0.28544 0.28797 0.0
C3690 C 0.2131 0.29478 0.31267 0.0
C3691 C 0.19671 0.28981 0.2989 0.0
C3692 C 0.19885 0.28279 0.2795 0.0
C3693 C 0.21677 0.28093 0.2743 0.0
C3694 C 0.21199 0.30252 0.33344 0.0
C3695 C 0.18211 0.27709 0.26412 0.0
H3696 H 0.13988 0.26837 0.32412 0.0
H3697 H 0.1483 0.32373 0.30718 0.0
H3698 H 0.17509 0.25288 0.30015 0.0
H3699 H 0.18512 0.26156 0.32468 0.0
H3700 H 0.16131 0.24878 0.32002 0.0
H3701 H 0.17543 0.33719 0.29477 0.0
H3702 H 0.19612 0.32948 0.30436 0.0
H3703 H 0.1852 0.32049 0.28019 0.0
H3704 H 0.24299 0.29622 0.31799 0.0
H3705 H 0.2181 0.27617 0.25933 0.0
H3706 H 0.20259 0.29217 0.34042 0.0
H3707 H 0.20591 0.31529 0.33356 0.0
H3708 H 0.22588 0.30605 0.3424 0.0
H3709 H 0.17226 0.26521 0.26842 0.0
H3710 H 0.18603 0.27279 0.24951 0.0
H3711 H 0.17456 0.28879 0.26297 0.0
C3712 C 0.96379 0.02636 0.15181 0.0
C3713 C 0.97591 0.02506 0.16843 0.0
C3714 C 0.97011 0.02723 0.13329 0.0
C3715 C 0.98919 0.02737 0.13132 0.0
C3716 C 1.00156 0.02636 0.14814 0.0
C3717 C 0.99473 0.02492 0.16638 0.0
C3718 C 0.95628 0.0277 0.11576 0.0
C3719 C 0.0221 0.02704 0.14692 0.0
C3720 C 1.00461 0.01303 0.08177 0.0
C3721 C 0.00925 0.03024 0.07453 0.0
C3722 C 0.9974 0.01182 0.0998 0.0
C3723 C 0.99612 0.02839 0.11164 0.0
C3724 C 1.00143 0.04589 0.10459 0.0
C3725 C 1.00733 0.04654 0.08585 0.0
C3726 C 0.99107 0.99278 0.10609 0.0
C3727 C 1.00136 0.06399 0.11703 0.0
H3728 H 0.9492 0.02631 0.15324 0.0
H3729 H 1.0042 0.02406 0.17918 0.0
H3730 H 0.96023 0.04088 0.10927 0.0
H3731 H 0.95651 0.016 0.10436 0.0
H3732 H 0.94179 0.02665 0.11955 0.0
H3733 H 0.03009 0.02729 0.16148 0.0
H3734 H 0.02401 0.01469 0.1373 0.0
H3735 H 0.02813 0.03965 0.14033 0.0
H3736 H 1.00639 1.00044 0.07313 0.0
H3737 H 0.01111 0.05987 0.08034 0.0
H3738 H 0.97662 0.99138 0.11003 0.0
H3739 H 1.00019 0.99108 0.11929 0.0
H3740 H 0.99138 0.98129 0.09445 0.0
H3741 H 0.9869 0.06479 0.11984 0.0
H3742 H 1.00717 0.07642 0.11002 0.0
H3743 H 0.00972 0.06454 0.13143 0.0
C3744 C 0.25528 0.6835 0.44378 0.0
C3745 C 0.27211 0.68649 0.4562 0.0
C3746 C 0.25278 0.69485 0.42915 0.0
C3747 C 0.26769 0.70929 0.4265 0.0
C3748 C 0.28498 0.71207 0.43852 0.0
C3749 C 0.28696 0.70066 0.4534 0.0
C3750 C 0.2341 0.69138 0.41657 0.0
C3751 C 0.30123 0.72715 0.43578 0.0
C3752 C 0.25857 0.7214 0.3757 0.0
C3753 C 0.24879 0.73596 0.37889 0.0
C3754 C 0.26685 0.71397 0.39136 0.0
C3755 C 0.26485 0.72091 0.41064 0.0
C3756 C 0.25632 0.73655 0.41404 0.0
C3757 C 0.24841 0.74396 0.39806 0.0
C3758 C 0.27614 0.6975 0.38715 0.0
C3759 C 0.25404 0.74438 0.43446 0.0
H3760 H 0.24394 0.67225 0.44558 0.0
H3761 H 0.29996 0.70307 0.46307 0.0
H3762 H 0.22821 0.70429 0.41741 0.0
H3763 H 0.23591 0.68761 0.40106 0.0
H3764 H 0.2238 0.67997 0.42106 0.0
H3765 H 0.31407 0.72669 0.44555 0.0
H3766 H 0.30429 0.72571 0.4204 0.0
H3767 H 0.29759 0.74109 0.43885 0.0
H3768 H 0.25887 0.715 0.36097 0.0
H3769 H 0.24134 0.75555 0.40061 0.0
H3770 H 0.2664 0.68442 0.38891 0.0
H3771 H 0.28892 0.69859 0.39756 0.0
H3772 H 0.27994 0.69633 0.372 0.0
H3773 H 0.24267 0.73487 0.44 0.0
H3774 H 0.25041 0.75846 0.43484 0.0
H3775 H 0.26699 0.74533 0.44457 0.0
C3776 C 0.5993 0.04037 0.66404 0.0
C3777 C 0.61752 0.03787 0.66224 0.0
C3778 C 0.58644 0.03916 0.64741 0.0
C3779 C 0.59227 0.03585 0.62874 0.0
C3780 C 0.61075 0.03347 0.62691 0.0
C3781 C 0.62315 0.03428 0.6438 0.0
C3782 C 0.56667 0.04127 0.64978 0.0
C3783 C 0.61747 0.03032 0.60714 0.0
C3784 C 0.55873 0.01672 0.58337 0.0
C3785 C 0.55738 0.03313 0.57524 0.0
C3786 C 0.56918 0.0175 0.60155 0.0
C3787 C 0.57914 0.03503 0.61102 0.0
C3788 C 0.57748 0.05168 0.60287 0.0
C3789 C 0.56602 0.05053 0.58525 0.0
C3790 C 0.56993 0.99959 0.61036 0.0
C3791 C 0.58851 0.07052 0.61217 0.0
H3792 H 0.59509 0.04302 0.67846 0.0
H3793 H 0.63735 0.03246 0.64264 0.0
H3794 H 0.56356 0.05363 0.64305 0.0
H3795 H 0.55665 0.02885 0.64206 0.0
H3796 H 0.56423 0.04296 0.66538 0.0
H3797 H 0.6325 0.02949 0.60834 0.0
H3798 H 0.60924 0.01715 0.59886 0.0
H3799 H 0.6153 0.04186 0.59848 0.0
H3800 H 0.55157 1.00335 0.57553 0.0
H3801 H 0.56463 0.06313 0.57873 0.0
H3802 H 0.56747 1.00125 0.62593 0.0
H3803 H 0.58402 0.99622 0.60988 0.0
H3804 H 0.55943 0.98761 0.60243 0.0
H3805 H 0.58522 0.0821 0.60412 0.0
H3806 H 0.60368 0.07059 0.61251 0.0
H3807 H 0.58569 0.07326 0.62752 0.0
C3808 C 0.30772 0.32378 0.92685 0.0
C3809 C 0.29176 0.32877 0.93387 0.0
C3810 C 0.30755 0.31679 0.90711 0.0
C3811 C 0.29098 0.31453 0.89395 0.0
C3812 C 0.2747 0.31908 0.90101 0.0
C3813 C 0.2753 0.32619 0.92078 0.0
C3814 C 0.32525 0.31219 0.90021 0.0
C3815 C 0.2567 0.31679 0.88757 0.0
C3816 C 0.29314 0.31554 0.83924 0.0
C3817 C 0.28886 0.29649 0.83208 0.0
C3818 C 0.29453 0.32153 0.85937 0.0
C3819 C 0.29084 0.30818 0.87265 0.0
C3820 C 0.2866 0.28887 0.86545 0.0
C3821 C 0.28601 0.28326 0.84529 0.0
C3822 C 0.29985 0.34219 0.8664 0.0
C3823 C 0.28215 0.27417 0.87896 0.0
H3824 H 0.32044 0.3254 0.93681 0.0
H3825 H 0.26294 0.33021 0.92584 0.0
H3826 H 0.32273 0.29738 0.89362 0.0
H3827 H 0.3296 0.32094 0.88866 0.0
H3828 H 0.33692 0.31451 0.91227 0.0
H3829 H 0.24496 0.31978 0.89553 0.0
H3830 H 0.25862 0.32641 0.87622 0.0
H3831 H 0.2528 0.30234 0.8799 0.0
H3832 H 0.29568 0.32579 0.82906 0.0
H3833 H 0.28271 0.26851 0.83977 0.0
H3834 H 0.31201 0.34496 0.87793 0.0
H3835 H 0.28811 0.34693 0.87299 0.0
H3836 H 0.30346 0.35066 0.85439 0.0
H3837 H 0.29389 0.27553 0.89075 0.0
H3838 H 0.27938 0.25977 0.87114 0.0
H3839 H 0.26967 0.27625 0.88607 0.0
C3840 C 0.99538 0.03452 0.37782 0.0
C3841 C 0.98201 0.0193 0.36797 0.0
C3842 C 1.00218 0.03509 0.39771 0.0
C3843 C 0.9958 0.01993 0.40812 0.0
C3844 C 0.98269 1.00433 0.39822 0.0
C3845 C 0.97583 1.0043 0.37846 0.0
C3846 C 0.01593 0.05214 0.40773 0.0
C3847 C 0.97559 0.98778 0.40863 0.0
C3848 C 0.02426 0.01644 0.4567 0.0
C3849 C 0.01394 0.02395 0.4704 0.0
C3850 C 0.01837 0.01464 0.43644 0.0
C3851 C 1.00197 0.02089 0.42962 0.0
C3852 C 0.99138 0.02822 0.44342 0.0
C3853 C 0.99732 0.02938 0.46353 0.0
C3854 C 0.02974 1.00612 0.42233 0.0
C3855 C 0.97382 0.03506 0.43693 0.0
H3856 H 1.0006 0.04609 0.37 0.0
H3857 H 0.96525 0.99258 0.37139 0.0
H3858 H 0.00978 0.05889 0.41988 0.0
H3859 H 0.02878 0.048 0.41421 0.0
H3860 H 0.01989 0.06258 0.39755 0.0
H3861 H 0.96675 0.97604 0.3985 0.0
H3862 H 0.98748 0.98267 0.41601 0.0
H3863 H 0.9672 0.99205 0.42012 0.0
H3864 H 0.03711 0.01218 0.46176 0.0
H3865 H 0.98886 0.0346 0.47392 0.0
H3866 H 0.03497 0.0164 0.41247 0.0
H3867 H 0.02082 0.99388 0.41303 0.0
H3868 H 0.04186 1.00152 0.42994 0.0
H3869 H 0.97707 0.04623 0.42739 0.0
H3870 H 0.96731 0.04064 0.44947 0.0
H3871 H 0.96345 0.02351 0.42818 0.0
C3872 C 0.25865 0.68999 0.64486 0.0
C3873 C 0.2745 0.69175 0.63494 0.0
C3874 C 0.25904 0.70062 0.66285 0.0
C3875 C 0.27554 0.7135 0.67075 0.0
C3876 C 0.29161 0.71526 0.6609 0.0
C3877 C 0.29095 0.7042 0.64313 0.0
C3878 C 0.2418 0.69819 0.67332 0.0
C3879 C 0.30939 0.72904 0.66894 0.0
C3880 C 0.27053 0.75434 0.70595 0.0
C3881 C 0.27835 0.74973 0.72369 0.0
C3882 C 0.26983 0.74278 0.6885 0.0
C3883 C 0.27586 0.72561 0.68907 0.0
C3884 C 0.28268 0.72028 0.707 0.0
C3885 C 0.28431 0.73266 0.72405 0.0
C3886 C 0.26308 0.74913 0.66943 0.0
C3887 C 0.28839 0.70161 0.70818 0.0
H3888 H 0.24588 0.68047 0.63843 0.0
H3889 H 0.30333 0.70526 0.63567 0.0
H3890 H 0.24541 0.69555 0.68861 0.0
H3891 H 0.23612 0.71121 0.67399 0.0
H3892 H 0.23067 0.68647 0.66595 0.0
H3893 H 0.32058 0.72874 0.65929 0.0
H3894 H 0.30653 0.74341 0.67074 0.0
H3895 H 0.31465 0.72595 0.68359 0.0
H3896 H 0.26524 0.76715 0.70556 0.0
H3897 H 0.2901 0.72876 0.7376 0.0
H3898 H 0.25041 0.73919 0.66219 0.0
H3899 H 0.27394 0.74931 0.65935 0.0
H3900 H 0.25973 0.76332 0.67151 0.0
H3901 H 0.27692 0.69015 0.70101 0.0
H3902 H 0.29195 0.69902 0.72352 0.0
H3903 H 0.30071 0.70097 0.70026 0.0
C3904 C 0.64138 0.04467 0.86146 0.0
C3905 C 0.62955 0.03899 0.8439 0.0
C3906 C 0.63413 0.04835 0.87902 0.0
C3907 C 0.61458 0.04643 0.87891 0.0
C3908 C 0.60248 0.03984 0.86134 0.0
C3909 C 0.61016 0.03609 0.84395 0.0
C3910 C 0.64746 0.05511 0.89751 0.0
C3911 C 0.58157 0.03774 0.8607 0.0
C3912 C 0.59691 0.04673 0.92845 0.0
C3913 C 0.59657 0.0657 0.93288 0.0
C3914 C 0.60233 0.04008 0.91066 0.0
C3915 C 0.60712 0.05271 0.89697 0.0
C3916 C 0.60624 0.07182 0.90123 0.0
C3917 C 0.60117 0.07814 0.9193 0.0
C3918 C 0.60336 0.01969 0.9067 0.0
C3919 C 0.61089 0.08561 0.8868 0.0
H3920 H 0.65639 0.04671 0.86134 0.0
H3921 H 0.60108 0.03178 0.83027 0.0
H3922 H 0.6469 0.06983 0.90252 0.0
H3923 H 0.64329 0.04667 0.90934 0.0
H3924 H 0.66212 0.05437 0.89536 0.0
H3925 H 0.57407 0.03047 0.84648 0.0
H3926 H 0.57645 0.02985 0.87259 0.0
H3927 H 0.57796 0.05177 0.86305 0.0
H3928 H 0.59316 0.03718 0.93904 0.0
H3929 H 0.60052 0.09274 0.92275 0.0
H3930 H 0.61805 0.01838 0.90552 0.0
H3931 H 0.59505 0.01341 0.89254 0.0
H3932 H 0.59818 0.01153 0.9184 0.0
H3933 H 0.62585 0.08712 0.88462 0.0
H3934 H 0.60817 0.09963 0.89177 0.0
H3935 H 0.60255 0.0804 0.87238 0.0
C3936 C 0.30243 0.34403 0.14774 0.0
C3937 C 0.28882 0.33684 0.13169 0.0
C3938 C 0.30133 0.33718 0.16599 0.0
C3939 C 0.28629 0.3227 0.16836 0.0
C3940 C 0.27252 0.31536 0.15221 0.0
C3941 C 0.27393 0.32251 0.13416 0.0
C3942 C 0.31633 0.34542 0.18275 0.0
C3943 C 0.25634 0.29981 0.15397 0.0
C3944 C 0.29212 0.29176 0.20881 0.0
C3945 C 0.28273 0.29935 0.2234 0.0
C3946 C 0.29361 0.29939 0.19106 0.0
C3947 C 0.28523 0.31485 0.18752 0.0
C3948 C 0.27573 0.3226 0.20221 0.0
C3949 C 0.27477 0.31489 0.22004 0.0
C3950 C 0.30418 0.29086 0.17608 0.0
C3951 C 0.2664 0.33891 0.19898 0.0
H3952 H 0.31385 0.35527 0.14614 0.0
H3953 H 0.26345 0.31667 0.12185 0.0
H3954 H 0.30997 0.35127 0.19525 0.0
H3955 H 0.32334 0.33433 0.18791 0.0
H3956 H 0.32706 0.35667 0.17862 0.0
H3957 H 0.24654 0.29594 0.14024 0.0
H3958 H 0.26164 0.28724 0.15774 0.0
H3959 H 0.24849 0.30408 0.16597 0.0
H3960 H 0.29856 0.27991 0.21136 0.0
H3961 H 0.26747 0.32081 0.23121 0.0
H3962 H 0.31564 0.30166 0.17249 0.0
H3963 H 0.29473 0.28551 0.16236 0.0
H3964 H 0.31029 0.27918 0.18126 0.0
H3965 H 0.2768 0.35096 0.19588 0.0
H3966 H 0.25964 0.3434 0.21182 0.0
H3967 H 0.25563 0.33508 0.18604 0.0
C3968 C 0.1947 0.97591 0.9854 0.0
C3969 C 0.20881 0.97228 0.99872 0.0
C3970 C 0.17786 0.97907 0.99176 0.0
C3971 C 0.17531 0.9782 0.01169 0.0
C3972 C 0.18934 0.97378 0.0249 0.0
C3973 C 0.20594 0.97092 0.01823 0.0
C3974 C 0.16314 0.98393 0.97743 0.0
C3975 C 0.18711 0.9727 0.04626 0.0
C3976 C 0.14655 0.00683 0.03875 0.0
C3977 C 0.13096 0.99326 0.04094 0.0
C3978 C 0.16044 1.00232 0.02791 0.0
C3979 C 0.15894 0.98365 0.01954 0.0
C3980 C 0.14317 0.96987 0.02147 0.0
C3981 C 0.12925 0.97487 0.03219 0.0
C3982 C 0.17712 0.01738 0.02621 0.0
C3983 C 0.14136 0.94979 0.01283 0.0
H3984 H 0.19702 0.97665 0.97026 0.0
H3985 H 0.21681 0.96759 0.02832 0.0
H3986 H 0.14938 0.97485 0.97805 0.0
H3987 H 0.16168 0.99858 0.98146 0.0
H3988 H 0.16663 0.98245 0.96218 0.0
H3989 H 0.19888 0.9678 0.05419 0.0
H3990 H 0.18638 0.98671 0.0535 0.0
H3991 H 0.1739 0.96308 0.04775 0.0
H3992 H 0.14797 0.02103 0.04569 0.0
H3993 H 0.11702 0.96447 0.03361 0.0
H3994 H 0.18012 0.01716 0.01081 0.0
H3995 H 0.18965 0.01474 0.03502 0.0
H3996 H 0.17497 0.03156 0.03143 0.0
H3997 H 0.14391 0.94906 0.99728 0.0
H3998 H 0.12736 0.94127 0.01379 0.0
H3999 H 0.15209 0.94349 0.02073 0.0
C4000 C 0.66131 0.61404 0.02859 0.0
C4001 C 0.67276 0.60921 0.01463 0.0
C4002 C 0.64401 0.60254 0.03001 0.0
C4003 C 0.63799 0.58566 0.01725 0.0
C4004 C 0.64958 0.58056 0.00328 0.0
C4005 C 0.66676 0.59243 0.00207 0.0
C4006 C 0.63199 0.60866 0.04491 0.0
C4007 C 0.64373 0.56265 0.98949 0.0
C4008 C 0.59844 0.54991 0.03181 0.0
C4009 C 0.58283 0.55344 0.02045 0.0
C4010 C 0.61657 0.5599 0.03056 0.0
C4011 C 0.61911 0.57395 0.01786 0.0
C4012 C 0.60342 0.57738 0.0062 0.0
C4013 C 0.58557 0.56704 0.00754 0.0
C4014 C 0.63295 0.5557 0.0431 0.0
C4015 C 0.60539 0.59231 0.9926 0.0
H4016 H 0.6657 0.62708 0.03818 0.0
H4017 H 0.67561 0.58847 0.9914 0.0
H4018 H 0.61858 0.61074 0.03737 0.0
H4019 H 0.62855 0.59764 0.05457 0.0
H4020 H 0.63891 0.62188 0.05414 0.0
H4021 H 0.65469 0.56024 0.98011 0.0
H4022 H 0.64053 0.55058 0.9979 0.0
H4023 H 0.63078 0.56306 0.97992 0.0
H4024 H 0.5965 0.5396 0.04197 0.0
H4025 H 0.57367 0.56989 0.99859 0.0
H4026 H 0.63933 0.56809 0.05381 0.0
H4027 H 0.64386 0.55275 0.03391 0.0
H4028 H 0.62884 0.54357 0.05123 0.0
H4029 H 0.61119 0.60617 1.00113 0.0
H4030 H 0.59185 0.59299 0.98422 0.0
H4031 H 0.61534 0.58966 0.98209 0.0
C4032 C 0.7054 0.46079 0.28953 0.0
C4033 C 0.68734 0.45982 0.28002 0.0
C4034 C 0.7144 0.44545 0.28754 0.0
C4035 C 0.70516 0.42877 0.27572 0.0
C4036 C 0.68676 0.42755 0.26654 0.0
C4037 C 0.67809 0.44303 0.26884 0.0
C4038 C 0.73398 0.44728 0.29764 0.0
C4039 C 0.67635 0.41001 0.25388 0.0
C4040 C 0.73153 0.39552 0.25008 0.0
C4041 C 0.72915 0.38058 0.26126 0.0
C4042 C 0.72467 0.41174 0.25528 0.0
C4043 C 0.71494 0.41289 0.27189 0.0
C4044 C 0.71316 0.39805 0.28367 0.0
C4045 C 0.72035 0.38204 0.27821 0.0
C4046 C 0.72708 0.42729 0.24245 0.0
C4047 C 0.70286 0.3987 0.30145 0.0
H4048 H 0.71273 0.47372 0.2981 0.0
H4049 H 0.66399 0.44197 0.2618 0.0
H4050 H 0.73482 0.43543 0.30624 0.0
H4051 H 0.74383 0.44675 0.28654 0.0
H4052 H 0.73864 0.46058 0.30756 0.0
H4053 H 0.66185 0.41103 0.24843 0.0
H4054 H 0.68387 0.40724 0.24111 0.0
H4055 H 0.67577 0.39781 0.26223 0.0
H4056 H 0.73833 0.39427 0.23695 0.0
H4057 H 0.71844 0.37035 0.28673 0.0
H4058 H 0.7329 0.4409 0.25144 0.0
H4059 H 0.71326 0.42829 0.23497 0.0
H4060 H 0.73643 0.42499 0.23117 0.0
H4061 H 0.708 0.41215 0.31095 0.0
H4062 H 0.70442 0.38704 0.31017 0.0
H4063 H 0.68777 0.3978 0.29679 0.0
C4064 C 0.89419 0.50167 0.5362 0.0
C4065 C 0.8849 0.49162 0.5186 0.0
C4066 C 0.91329 0.50948 0.53785 0.0
C4067 C 0.92313 0.50683 0.52157 0.0
C4068 C 0.91368 0.49699 0.50367 0.0
C4069 C 0.89463 0.48954 0.5024 0.0
C4070 C 0.92306 0.51999 0.55708 0.0
C4071 C 0.92384 0.49365 0.48609 0.0
C4072 C 0.97045 0.53476 0.5161 0.0
C4073 C 0.98175 0.52177 0.51984 0.0
C4074 C 0.95131 0.53054 0.51769 0.0
C4075 C 0.94355 0.51306 0.52339 0.0
C4076 C 0.95513 0.50038 0.52829 0.0
C4077 C 0.97409 0.50481 0.52618 0.0
C4078 C 0.93927 0.54427 0.51218 0.0
C4079 C 0.94733 0.48164 0.53456 0.0
H4080 H 0.88654 0.50325 0.54868 0.0
H4081 H 0.88745 0.48145 0.48891 0.0
H4082 H 0.93331 0.51219 0.56345 0.0
H4083 H 0.93098 0.53387 0.55476 0.0
H4084 H 0.91311 0.52204 0.56781 0.0
H4085 H 0.91418 0.48658 0.47299 0.0
H4086 H 0.93162 0.50709 0.48247 0.0
H4087 H 0.9342 0.48481 0.48948 0.0
H4088 H 0.97638 0.54795 0.51127 0.0
H4089 H 0.98276 0.49466 0.52887 0.0
H4090 H 0.92995 0.5464 0.52351 0.0
H4091 H 0.93024 0.53857 0.49826 0.0
H4092 H 0.94774 0.55804 0.51024 0.0
H4093 H 0.93793 0.48323 0.54593 0.0
H4094 H 0.95854 0.47463 0.5404 0.0
H4095 H 0.93894 0.47238 0.52184 0.0
C4096 C 0.31851 0.10992 0.3042 0.0
C4097 C 0.33722 0.10795 0.30633 0.0
C4098 C 0.31361 0.12613 0.29787 0.0
C4099 C 0.32779 0.14045 0.29342 0.0
C4100 C 0.34679 0.13931 0.29753 0.0
C4101 C 0.35129 0.12306 0.30401 0.0
C4102 C 0.2932 0.12702 0.29409 0.0
C4103 C 0.36232 0.1543 0.293 0.0
C4104 C 0.31857 0.16449 0.24875 0.0
C4105 C 0.31695 0.18217 0.25712 0.0
C4106 C 0.32138 0.15058 0.2605 0.0
C4107 C 0.32289 0.15462 0.28111 0.0
C4108 C 0.321 0.17242 0.28965 0.0
C4109 C 0.31796 0.18603 0.27748 0.0
C4110 C 0.32298 0.13162 0.25082 0.0
C4111 C 0.32258 0.17718 0.31155 0.0
H4112 H 0.30765 0.09832 0.30627 0.0
H4113 H 0.36577 0.12156 0.30551 0.0
H4114 H 0.29093 0.14138 0.29815 0.0
H4115 H 0.28836 0.12312 0.27825 0.0
H4116 H 0.28447 0.11722 0.3023 0.0
H4117 H 0.37623 0.15273 0.29978 0.0
H4118 H 0.36248 0.15344 0.27692 0.0
H4119 H 0.36001 0.16841 0.29817 0.0
H4120 H 0.3174 0.16148 0.23297 0.0
H4121 H 0.31663 0.19977 0.28387 0.0
H4122 H 0.31265 0.12051 0.25571 0.0
H4123 H 0.33708 0.12883 0.25517 0.0
H4124 H 0.32062 0.13053 0.23461 0.0
H4125 H 0.31339 0.16624 0.318 0.0
H4126 H 0.31883 0.19092 0.31575 0.0
H4127 H 0.33713 0.17763 0.31806 0.0
C4128 C 0.35048 0.10475 0.50724 0.0
C4129 C 0.35072 0.1213 0.51953 0.0
C4130 C 0.36574 0.09557 0.50833 0.0
C4131 C 0.38153 0.10287 0.5223 0.0
C4132 C 0.38183 0.11945 0.53481 0.0
C4133 C 0.3666 0.12854 0.53313 0.0
C4134 C 0.365 0.0781 0.4945 0.0
C4135 C 0.39832 0.12769 0.55002 0.0
C4136 C 0.41586 0.07343 0.54045 0.0
C4137 C 0.43159 0.08049 0.5316 0.0
C4138 C 0.39908 0.07989 0.53682 0.0
C4139 C 0.39798 0.09351 0.5238 0.0
C4140 C 0.4135 0.09966 0.51381 0.0
C4141 C 0.43019 0.09325 0.51802 0.0
C4142 C 0.38299 0.07312 0.54796 0.0
C4143 C 0.41284 0.11381 0.49949 0.0
H4144 H 0.33827 0.09879 0.49685 0.0
H4145 H 0.36729 0.14152 0.5424 0.0
H4146 H 0.37715 0.07997 0.48604 0.0
H4147 H 0.36594 0.06614 0.5029 0.0
H4148 H 0.35197 0.07451 0.48408 0.0
H4149 H 0.39608 0.14023 0.55916 0.0
H4150 H 0.40106 0.11711 0.55975 0.0
H4151 H 0.41104 0.1317 0.54278 0.0
H4152 H 0.41705 0.06372 0.55112 0.0
H4153 H 0.4424 0.09872 0.51121 0.0
H4154 H 0.36978 0.06882 0.53791 0.0
H4155 H 0.38116 0.08471 0.55873 0.0
H4156 H 0.3853 0.06117 0.55592 0.0
H4157 H 0.39983 0.10985 0.48909 0.0
H4158 H 0.42503 0.11521 0.49104 0.0
H4159 H 0.41279 0.12768 0.50751 0.0
C4160 C 0.72414 0.63718 0.28278 0.0
C4161 C 0.70621 0.6371 0.28823 0.0
C4162 C 0.73647 0.65405 0.2815 0.0
C4163 C 0.7306 0.67126 0.28534 0.0
C4164 C 0.71252 0.67124 0.29091 0.0
C4165 C 0.70063 0.65419 0.29248 0.0
C4166 C 0.75577 0.65345 0.27602 0.0
C4167 C 0.70555 0.68924 0.29479 0.0
C4168 C 0.76434 0.71808 0.29814 0.0
C4169 C 0.76392 0.72514 0.28011 0.0
C4170 C 0.75447 0.70006 0.29983 0.0
C4171 C 0.74317 0.6893 0.28326 0.0
C4172 C 0.74311 0.69631 0.2649 0.0
C4173 C 0.75389 0.71398 0.26347 0.0
C4174 C 0.75561 0.69286 0.31948 0.0
C4175 C 0.73081 0.68567 0.247 0.0
H4176 H 0.72857 0.624 0.27964 0.0
H4177 H 0.68673 0.65419 0.29651 0.0
H4178 H 0.75746 0.65926 0.26198 0.0
H4179 H 0.76648 0.66228 0.28727 0.0
H4180 H 0.75854 0.63902 0.27449 0.0
H4181 H 0.69101 0.68682 0.29859 0.0
H4182 H 0.71474 0.6985 0.30698 0.0
H4183 H 0.70605 0.69679 0.28168 0.0
H4184 H 0.77208 0.72683 0.31101 0.0
H4185 H 0.75362 0.71955 0.24954 0.0
H4186 H 0.75804 0.67831 0.31795 0.0
H4187 H 0.74218 0.69263 0.32559 0.0
H4188 H 0.76698 0.70169 0.33008 0.0
H4189 H 0.73374 0.6714 0.24421 0.0
H4190 H 0.73278 0.69281 0.23373 0.0
H4191 H 0.71593 0.68412 0.24952 0.0
C4192 C 0.82216 0.41334 0.79062 0.0
C4193 C 0.8208 0.42355 0.77469 0.0
C4194 C 0.81496 0.39416 0.78854 0.0
C4195 C 0.80613 0.38504 0.77007 0.0
C4196 C 0.8043 0.39532 0.75402 0.0
C4197 C 0.81178 0.41455 0.7565 0.0
C4198 C 0.81731 0.38357 0.80598 0.0
C4199 C 0.79477 0.38596 0.73422 0.0
C4200 C 0.8075 0.33383 0.76618 0.0
C4201 C 0.79025 0.32656 0.77215 0.0
C4202 C 0.81226 0.35276 0.76375 0.0
C4203 C 0.79955 0.36459 0.76774 0.0
C4204 C 0.78164 0.35706 0.77253 0.0
C4205 C 0.77715 0.33804 0.77456 0.0
C4206 C 0.8314 0.36036 0.75832 0.0
C4207 C 0.76779 0.3693 0.77706 0.0
H4208 H 0.82944 0.42026 0.80459 0.0
H4209 H 0.81068 0.42255 0.74424 0.0
H4210 H 0.80354 0.37589 0.80886 0.0
H4211 H 0.82609 0.37307 0.80286 0.0
H4212 H 0.82398 0.39293 0.81944 0.0
H4213 H 0.7934 0.39617 0.72361 0.0
H4214 H 0.80286 0.37581 0.72822 0.0
H4215 H 0.78065 0.37798 0.73558 0.0
H4216 H 0.81769 0.32503 0.76447 0.0
H4217 H 0.76367 0.33238 0.77896 0.0
H4218 H 0.83956 0.37056 0.77046 0.0
H4219 H 0.8301 0.36786 0.74528 0.0
H4220 H 0.8394 0.34917 0.75516 0.0
H4221 H 0.77257 0.37776 0.7915 0.0
H4222 H 0.75361 0.36095 0.77759 0.0
H4223 H 0.76689 0.37915 0.76602 0.0
C4224 C 0.03251 0.89239 0.0648 0.0
C4225 C 0.05009 0.88703 0.06706 0.0
C4226 C 0.03032 0.91005 0.05904 0.0
C4227 C 0.046 0.92319 0.05523 0.0
C4228 C 0.06374 0.91788 0.05726 0.0
C4229 C 0.06555 0.90013 0.06307 0.0
C4230 C 0.01107 0.91468 0.0571 0.0
C4231 C 0.08098 0.93113 0.05344 0.0
C4232 C 0.03837 0.96331 0.02441 0.0
C4233 C 0.03978 0.9788 0.03863 0.0
C4234 C 0.04024 0.94535 0.0295 0.0
C4235 C 0.04389 0.94245 0.04944 0.0
C4236 C 0.0455 0.95813 0.06385 0.0
C4237 C 0.04344 0.97588 0.05833 0.0
C4238 C 0.03825 0.9294 0.01341 0.0
C4239 C 0.04933 0.95615 0.08526 0.0
H4240 H 0.02023 0.88265 0.06733 0.0
H4241 H 0.07931 0.89671 0.06486 0.0
H4242 H 0.01096 0.92744 0.06714 0.0
H4243 H 1.0073 0.91776 0.04202 0.0
H4244 H 1.00021 0.90313 0.06045 0.0
H4245 H 0.09371 0.92497 0.05508 0.0
H4246 H 0.07905 0.93509 0.03843 0.0
H4247 H 0.08325 0.94418 0.06373 0.0
H4248 H 0.03605 0.96527 0.00915 0.0
H4249 H 0.04456 0.98754 0.06961 0.0
H4250 H 0.02598 0.91848 0.01489 0.0
H4251 H 0.05074 0.92289 0.01464 0.0
H4252 H 0.03639 0.93396 0.99864 0.0
H4253 H 0.03805 0.94555 0.08949 0.0
H4254 H 0.05033 0.96953 0.09474 0.0
H4255 H 0.06261 0.95114 0.08808 0.0
C4256 C 0.89596 0.25321 0.87132 0.0
C4257 C 0.91297 0.26519 0.86986 0.0
C4258 C 0.87929 0.25419 0.85962 0.0
C4259 C 0.87954 0.26722 0.84576 0.0
C4260 C 0.89674 0.27913 0.84401 0.0
C4261 C 0.91311 0.27809 0.85613 0.0
C4262 C 0.86132 0.2414 0.86229 0.0
C4263 C 0.89788 0.29301 0.82928 0.0
C4264 C 0.84017 0.25892 0.80293 0.0
C4265 C 0.82894 0.27147 0.80888 0.0
C4266 C 0.85653 0.25733 0.81473 0.0
C4267 C 0.86186 0.26847 0.83314 0.0
C4268 C 0.85039 0.28103 0.83929 0.0
C4269 C 0.83418 0.28241 0.8271 0.0
C4270 C 0.86817 0.24376 0.80743 0.0
C4271 C 0.85536 0.29321 0.85869 0.0
H4272 H 0.89559 0.24333 0.88197 0.0
H4273 H 0.92616 0.28729 0.85468 0.0
H4274 H 0.85093 0.24983 0.8665 0.0
H4275 H 0.85529 0.23266 0.84829 0.0
H4276 H 0.86337 0.23206 0.87366 0.0
H4277 H 0.91232 0.30102 0.8294 0.0
H4278 H 0.89292 0.28563 0.81436 0.0
H4279 H 0.88861 0.30302 0.83238 0.0
H4280 H 0.83602 0.25011 0.78909 0.0
H4281 H 0.82584 0.29242 0.83164 0.0
H4282 H 0.86913 0.2333 0.81781 0.0
H4283 H 0.88261 0.2513 0.80665 0.0
H4284 H 0.8623 0.23627 0.79273 0.0
H4285 H 0.85689 0.28444 0.87068 0.0
H4286 H 0.84466 0.30169 0.86173 0.0
H4287 H 0.869 0.30281 0.85889 0.0
C4288 C 0.53296 0.17585 0.5529 0.0
C4289 C 0.54886 0.18678 0.5646 0.0
C4290 C 0.53127 0.15635 0.5475 0.0
C4291 C 0.54585 0.1471 0.55364 0.0
C4292 C 0.56204 0.15802 0.5652 0.0
C4293 C 0.5633 0.17747 0.57056 0.0
C4294 C 0.51367 0.14554 0.53529 0.0
C4295 C 0.57807 0.14909 0.57213 0.0
C4296 C 0.53417 0.09379 0.55602 0.0
C4297 C 0.53899 0.08613 0.53821 0.0
C4298 C 0.53622 0.11335 0.5611 0.0
C4299 C 0.5439 0.12603 0.54844 0.0
C4300 C 0.54948 0.11843 0.53076 0.0
C4301 C 0.54682 0.09876 0.52583 0.0
C4302 C 0.53001 0.12045 0.58008 0.0
C4303 C 0.55831 0.1311 0.51698 0.0
H4304 H 0.52173 0.18253 0.54776 0.0
H4305 H 0.57558 0.18529 0.57984 0.0
H4306 H 0.51718 0.13861 0.52154 0.0
H4307 H 0.50676 0.13436 0.54332 0.0
H4308 H 0.50359 0.1546 0.53152 0.0
H4309 H 0.59013 0.1595 0.58003 0.0
H4310 H 0.57336 0.13867 0.58205 0.0
H4311 H 0.58283 0.14149 0.55952 0.0
H4312 H 0.52889 0.08447 0.56622 0.0
H4313 H 0.55068 0.09328 0.51206 0.0
H4314 H 0.51948 0.12924 0.57716 0.0
H4315 H 0.54205 0.1294 0.58963 0.0
H4316 H 0.52383 0.10891 0.58811 0.0
H4317 H 0.54882 0.14046 0.51243 0.0
H4318 H 0.56163 0.12317 0.5037 0.0
H4319 H 0.57141 0.14013 0.52458 0.0
C4320 C 0.59485 0.79165 0.3653 0.0
C4321 C 0.59291 0.77859 0.37884 0.0
C4322 C 0.61035 0.79425 0.35468 0.0
C4323 C 0.62451 0.78367 0.35769 0.0
C4324 C 0.62267 0.77047 0.37135 0.0
C4325 C 0.60691 0.76802 0.38166 0.0
C4326 C 0.61154 0.80833 0.34015 0.0
C4327 C 0.63745 0.759 0.3752 0.0
C4328 C 0.65532 0.78022 0.31656 0.0
C4329 C 0.67088 0.79443 0.32335 0.0
C4330 C 0.64049 0.77606 0.32789 0.0
C4331 C 0.64112 0.78649 0.34644 0.0
C4332 C 0.65717 0.80046 0.3536 0.0
C4333 C 0.67181 0.8043 0.34195 0.0
C4334 C 0.6238 0.76101 0.31964 0.0
C4335 C 0.65855 0.81189 0.37325 0.0
H4336 H 0.58405 0.79972 0.36278 0.0
H4337 H 0.6057 0.75804 0.39221 0.0
H4338 H 0.62446 0.81916 0.3442 0.0
H4339 H 0.61234 0.80132 0.32538 0.0
H4340 H 0.59935 0.81535 0.33937 0.0
H4341 H 0.63394 0.74923 0.38615 0.0
H4342 H 0.63924 0.75079 0.36141 0.0
H4343 H 0.65108 0.76839 0.38057 0.0
H4344 H 0.65451 0.77273 0.30208 0.0
H4345 H 0.68374 0.81544 0.34711 0.0
H4346 H 0.61136 0.7674 0.31681 0.0
H4347 H 0.62059 0.75094 0.33035 0.0
H4348 H 0.62605 0.75321 0.30576 0.0
H4349 H 0.64778 0.82071 0.37291 0.0
H4350 H 0.6725 0.82113 0.37743 0.0
H4351 H 0.65577 0.80257 0.38474 0.0
C4352 C 0.05216 0.21609 0.43157 0.0
C4353 C 0.03693 0.22055 0.42025 0.0
C4354 C 0.05028 0.19964 0.44078 0.0
C4355 C 0.0327 0.18728 0.43883 0.0
C4356 C 0.01722 0.19184 0.42773 0.0
C4357 C 0.01953 0.20827 0.41855 0.0
C4358 C 0.06718 0.19535 0.45238 0.0
C4359 C 0.9982 0.17916 0.42526 0.0
C4360 C 0.02855 0.13534 0.44378 0.0
C4361 C 0.02293 0.13416 0.46247 0.0
C4362 C 0.03256 0.1526 0.43631 0.0
C4363 C 0.03056 0.16918 0.44761 0.0
C4364 C 0.02542 0.16814 0.46676 0.0
C4365 C 0.02182 0.15067 0.47402 0.0
C4366 C 0.03835 0.15299 0.41602 0.0
C4367 C 0.02289 0.18536 0.47924 0.0
H4368 H 0.06562 0.22552 0.43331 0.0
H4369 H 1.00769 0.21125 0.40963 0.0
H4370 H 0.06434 0.1936 0.46759 0.0
H4371 H 0.07024 0.18196 0.44586 0.0
H4372 H 0.07978 0.20651 0.45284 0.0
H4373 H 0.98736 0.18511 0.41706 0.0
H4374 H 0.99885 0.16543 0.41731 0.0
H4375 H 0.99382 0.17655 0.43978 0.0
H4376 H 0.0295 0.12262 0.43483 0.0
H4377 H 0.01731 0.14982 0.48839 0.0
H4378 H 0.05132 0.1636 0.41627 0.0
H4379 H 0.02731 0.15704 0.40615 0.0
H4380 H 0.04079 0.13921 0.40979 0.0
H4381 H 0.03547 0.19661 0.48024 0.0
H4382 H 0.0202 0.18251 0.49426 0.0
H4383 H 0.01093 0.19072 0.47236 0.0
C4384 C 0.6367 0.24934 0.22562 0.0
C4385 C 0.62682 0.26232 0.23399 0.0
C4386 C 0.65622 0.25079 0.23066 0.0
C4387 C 0.66667 0.26567 0.24443 0.0
C4388 C 0.65685 0.27877 0.253 0.0
C4389 C 0.63729 0.27693 0.2478 0.0
C4390 C 0.6658 0.23651 0.22088 0.0
C4391 C 0.6671 0.29496 0.26762 0.0
C4392 C 0.71551 0.26244 0.26967 0.0
C4393 C 0.72791 0.27279 0.25866 0.0
C4394 C 0.69578 0.2598 0.26512 0.0
C4395 C 0.68784 0.26791 0.24928 0.0
C4396 C 0.7003 0.2783 0.23809 0.0
C4397 C 0.71992 0.28052 0.24282 0.0
C4398 C 0.68339 0.24827 0.27736 0.0
C4399 C 0.69296 0.28747 0.22118 0.0
H4400 H 0.62926 0.23814 0.21469 0.0
H4401 H 0.63018 0.287 0.25477 0.0
H4402 H 0.67615 0.24346 0.21195 0.0
H4403 H 0.67359 0.23009 0.23206 0.0
H4404 H 0.65578 0.22524 0.21124 0.0
H4405 H 0.6576 0.30378 0.27337 0.0
H4406 H 0.67443 0.28972 0.28007 0.0
H4407 H 0.6779 0.30385 0.26067 0.0
H4408 H 0.72121 0.2566 0.28213 0.0
H4409 H 0.72904 0.28831 0.23389 0.0
H4410 H 0.67437 0.23615 0.26795 0.0
H4411 H 0.67403 0.25673 0.28398 0.0
H4412 H 0.69154 0.24298 0.28923 0.0
H4413 H 0.68121 0.2778 0.2119 0.0
H4414 H 0.70398 0.29213 0.21186 0.0
H4415 H 0.68759 0.29985 0.22695 0.0
C4416 C 0.55318 0.91896 0.92171 0.0
C4417 C 0.54717 0.90137 0.92782 0.0
C4418 C 0.55145 0.93565 0.93291 0.0
C4419 C 0.54404 0.93494 0.95107 0.0
C4420 C 0.53858 0.91721 0.95761 0.0
C4421 C 0.53991 0.90073 0.94582 0.0
C4422 C 0.55695 0.95404 0.92496 0.0
C4423 C 0.53121 0.91561 0.97708 0.0
C4424 C 0.55311 0.98028 0.98691 0.0
C4425 C 0.53554 0.98533 0.98548 0.0
C4426 C 0.556 0.96377 0.97622 0.0
C4427 C 0.54127 0.95255 0.96282 0.0
C4428 C 0.52364 0.958 0.96098 0.0
C4429 C 0.52084 0.97383 0.97282 0.0
C4430 C 0.57467 0.95806 0.97972 0.0
C4431 C 0.50767 0.94714 0.94643 0.0
H4432 H 0.55865 0.91962 0.90777 0.0
H4433 H 0.53535 0.88725 0.95077 0.0
H4434 H 0.54466 0.96084 0.92318 0.0
H4435 H 0.56781 0.96365 0.93541 0.0
H4436 H 0.5624 0.95232 0.91063 0.0
H4437 H 0.52946 0.90113 0.98104 0.0
H4438 H 0.54083 0.92514 0.98879 0.0
H4439 H 0.51747 0.91989 0.97663 0.0
H4440 H 0.56444 0.98889 0.99698 0.0
H4441 H 0.50711 0.97738 0.97197 0.0
H4442 H 0.58135 0.95778 0.96606 0.0
H4443 H 0.57266 0.94371 0.98402 0.0
H4444 H 0.58432 0.96768 0.99136 0.0
H4445 H 0.51242 0.94487 0.93181 0.0
H4446 H 0.49569 0.95442 0.94507 0.0
H4447 H 0.50273 0.93319 0.951 0.0
C4448 C 0.90816 0.74961 0.72047 0.0
C4449 C 0.92501 0.75844 0.73207 0.0
C4450 C 0.89034 0.75135 0.72606 0.0
C4451 C 0.88886 0.76194 0.74401 0.0
C4452 C 0.90578 0.7707 0.75592 0.0
C4453 C 0.92343 0.76901 0.74981 0.0
C4454 C 0.87301 0.74204 0.71248 0.0
C4455 C 0.90527 0.78183 0.77534 0.0
C4456 C 0.84437 0.78208 0.7513 0.0
C4457 C 0.83382 0.76893 0.7614 0.0
C4458 C 0.86192 0.77989 0.74547 0.0
C4459 C 0.86976 0.76426 0.75004 0.0
C4460 C 0.85917 0.75091 0.76029 0.0
C4461 C 0.84138 0.75325 0.76555 0.0
C4462 C 0.872 0.79433 0.73415 0.0
C4463 C 0.86672 0.73417 0.76596 0.0
H4464 H 0.90884 0.7416 0.70663 0.0
H4465 H 0.93607 0.77579 0.75919 0.0
H4466 H 0.8643 0.73146 0.7198 0.0
H4467 H 0.86448 0.75254 0.70888 0.0
H4468 H 0.87634 0.73505 0.69865 0.0
H4469 H 0.91945 0.7872 0.78336 0.0
H4470 H 0.89844 0.79387 0.77309 0.0
H4471 H 0.89679 0.773 0.78461 0.0
H4472 H 0.83872 0.7941 0.74759 0.0
H4473 H 0.83353 0.7429 0.77328 0.0
H4474 H 0.87513 0.78745 0.72018 0.0
H4475 H 0.88553 0.80139 0.74262 0.0
H4476 H 0.86374 0.80514 0.73084 0.0
H4477 H 0.86795 0.72497 0.75263 0.0
H4478 H 0.85764 0.72585 0.77516 0.0
H4479 H 0.88094 0.73876 0.77409 0.0
C4480 C 0.09748 0.04946 0.89771 0.0
C4481 C 0.09079 0.03557 0.88174 0.0
C4482 C 0.09062 0.04827 0.91594 0.0
C4483 C 0.07688 0.03267 0.91854 0.0
C4484 C 0.07014 0.01854 0.90258 0.0
C4485 C 0.07705 0.02021 0.88443 0.0
C4486 C 0.09803 0.0638 0.93242 0.0
C4487 C 0.05548 1.00168 0.90464 0.0
C4488 C 0.07022 0.02191 0.97072 0.0
C4489 C 0.05407 0.02887 0.97386 0.0
C4490 C 0.07774 0.02292 0.95277 0.0
C4491 C 0.06913 0.03144 0.93774 0.0
C4492 C 0.05303 0.0388 0.94105 0.0
C4493 C 0.04564 0.03729 0.95892 0.0
C4494 C 0.09476 0.01467 0.9498 0.0
C4495 C 0.04357 0.04834 0.9257 0.0
H4496 H 0.1083 0.06124 0.8961 0.0
H4497 H 0.07146 0.00951 0.87225 0.0
H4498 H 0.08637 0.07002 0.93739 0.0
H4499 H 0.10447 0.05812 0.9451 0.0
H4500 H 0.10861 0.07506 0.92806 0.0
H4501 H 0.05225 0.99152 0.89115 0.0
H4502 H 0.06028 0.99448 0.91698 0.0
H4503 H 0.04241 1.00616 0.90806 0.0
H4504 H 0.0768 0.01536 0.98214 0.0
H4505 H 0.03329 0.04296 0.96126 0.0
H4506 H 0.10626 0.02562 0.94656 0.0
H4507 H 0.09152 1.00369 0.93701 0.0
H4508 H 0.09976 0.00842 0.96281 0.0
H4509 H 0.05368 0.06022 0.92178 0.0
H4510 H 0.03141 0.0537 0.9307 0.0
H4511 H 0.03868 0.03844 0.9122 0.0
C4512 C 0.79653 0.38758 0.6078 0.0
C4513 C 0.78436 0.37826 0.5915 0.0
C4514 C 0.80009 0.37853 0.62414 0.0
C4515 C 0.79121 0.35967 0.62412 0.0
C4516 C 0.77792 0.35054 0.60822 0.0
C4517 C 0.77461 0.36003 0.59197 0.0
C4518 C 0.81426 0.3888 0.64088 0.0
C4519 C 0.76811 0.33049 0.60778 0.0
C4520 C 0.82249 0.33577 0.6549 0.0
C4521 C 0.8154 0.33755 0.67285 0.0
C4522 C 0.81367 0.34145 0.63832 0.0
C4523 C 0.79757 0.34931 0.63991 0.0
C4524 C 0.78969 0.35002 0.65772 0.0
C4525 C 0.79872 0.3441 0.67405 0.0
C4526 C 0.82228 0.34013 0.61943 0.0
C4527 C 0.77246 0.35818 0.65989 0.0
H4528 H 0.80385 0.4018 0.60741 0.0
H4529 H 0.76521 0.35288 0.57927 0.0
H4530 H 0.80841 0.38773 0.65497 0.0
H4531 H 0.8268 0.38231 0.64166 0.0
H4532 H 0.81876 0.40383 0.63924 0.0
H4533 H 0.7557 0.32675 0.59652 0.0
H4534 H 0.77792 0.32112 0.60435 0.0
H4535 H 0.76363 0.3278 0.62224 0.0
H4536 H 0.83513 0.33024 0.65392 0.0
H4537 H 0.79319 0.34532 0.68796 0.0
H4538 H 0.82868 0.35437 0.61649 0.0
H4539 H 0.81142 0.33399 0.607 0.0
H4540 H 0.83327 0.33154 0.61995 0.0
H4541 H 0.77618 0.37361 0.66046 0.0
H4542 H 0.76633 0.3548 0.67344 0.0
H4543 H 0.76169 0.35296 0.64713 0.0
C4544 C 0.46291 0.03834 0.3866 0.0
C4545 C 0.44577 0.02568 0.38353 0.0
C4546 C 0.47489 0.03983 0.40396 0.0
C4547 C 0.46951 0.02838 0.41847 0.0
C4548 C 0.45222 0.01556 0.41547 0.0
C4549 C 0.44053 0.01436 0.39796 0.0
C4550 C 0.4933 0.05359 0.40676 0.0
C4551 C 0.44606 1.00323 0.43078 0.0
C4552 C 0.50638 0.01869 0.45595 0.0
C4553 C 0.50463 0.03095 0.47221 0.0
C4554 C 0.49524 0.01797 0.43819 0.0
C4555 C 0.482 0.02969 0.43682 0.0
C4556 C 0.48033 0.04228 0.4531 0.0
C4557 C 0.49171 0.04277 0.47066 0.0
C4558 C 0.49733 1.00438 0.42105 0.0
C4559 C 0.46626 0.05492 0.45209 0.0
H4560 H 0.46701 0.04697 0.37533 0.0
H4561 H 0.42714 1.00476 0.39568 0.0
H4562 H 0.49406 0.06368 0.42002 0.0
H4563 H 0.50501 0.0461 0.40909 0.0
H4564 H 0.49533 0.06151 0.39404 0.0
H4565 H 0.43217 0.99402 0.42612 0.0
H4566 H 0.45643 0.99435 0.43401 0.0
H4567 H 0.44535 0.01199 0.44462 0.0
H4568 H 0.51616 0.00933 0.45721 0.0
H4569 H 0.49035 0.05227 0.48324 0.0
H4570 H 0.50004 0.01187 0.40816 0.0
H4571 H 0.48414 0.99393 0.41693 0.0
H4572 H 0.50888 0.99685 0.42433 0.0
H4573 H 0.4685 0.06368 0.44006 0.0
H4574 H 0.46711 0.06425 0.46596 0.0
H4575 H 0.45191 0.04637 0.44883 0.0
C4576 C 0.78716 0.74311 0.12756 0.0
C4577 C 0.7722 0.72947 0.11768 0.0
C4578 C 0.78755 0.74982 0.14745 0.0
C4579 C 0.77257 0.7429 0.15785 0.0
C4580 C 0.75728 0.72942 0.14792 0.0
C4581 C 0.75732 0.72283 0.1281 0.0
C4582 C 0.80419 0.76413 0.15743 0.0
C4583 C 0.74103 0.72158 0.15839 0.0
C4584 C 0.78259 0.74484 0.21329 0.0
C4585 C 0.77613 0.76088 0.22015 0.0
C4586 C 0.78151 0.7389 0.19318 0.0
C4587 C 0.77339 0.74898 0.17936 0.0
C4588 C 0.76624 0.76484 0.18616 0.0
C4589 C 0.76782 0.77067 0.20642 0.0
C4590 C 0.78937 0.72196 0.18673 0.0
C4591 C 0.7571 0.77577 0.17203 0.0
H4592 H 0.79863 0.7486 0.11974 0.0
H4593 H 0.74581 0.71207 0.1209 0.0
H4594 H 0.79952 0.77664 0.16402 0.0
H4595 H 0.81138 0.75824 0.1695 0.0
H4596 H 0.81443 0.7686 0.14721 0.0
H4597 H 0.72963 0.71216 0.14834 0.0
H4598 H 0.74588 0.71361 0.17003 0.0
H4599 H 0.73528 0.7331 0.16562 0.0
H4600 H 0.78857 0.73684 0.22368 0.0
H4601 H 0.76283 0.7831 0.21145 0.0
H4602 H 0.80133 0.72619 0.17844 0.0
H4603 H 0.77868 0.71162 0.17679 0.0
H4604 H 0.79425 0.71504 0.19927 0.0
H4605 H 0.76724 0.78157 0.1623 0.0
H4606 H 0.75183 0.78747 0.17963 0.0
H4607 H 0.74523 0.7664 0.16261 0.0
C4608 C 0.06893 0.04435 0.67807 0.0
C4609 C 0.08411 0.03577 0.68286 0.0
C4610 C 0.06164 0.04441 0.65846 0.0
C4611 C 0.06975 0.03579 0.64316 0.0
C4612 C 0.0851 0.02715 0.64787 0.0
C4613 C 0.09205 0.02722 0.66759 0.0
C4614 C 0.04518 0.05365 0.65411 0.0
C4615 C 0.0943 0.01794 0.63206 0.0
C4616 C 0.04088 0.02078 0.59315 0.0
C4617 C 0.04774 0.03536 0.58252 0.0
C4618 C 0.04789 0.02075 0.61283 0.0
C4619 C 0.06213 0.03568 0.62222 0.0
C4620 C 0.06917 0.05039 0.61152 0.0
C4621 C 0.06199 0.04997 0.59182 0.0
C4622 C 0.04003 1.00472 0.62358 0.0
C4623 C 0.08434 0.06658 0.62087 0.0
H4624 H 0.06257 0.05084 0.68971 0.0
H4625 H 0.10398 0.02083 0.67105 0.0
H4626 H 0.04887 0.06484 0.64469 0.0
H4627 H 0.03329 0.04327 0.6459 0.0
H4628 H 0.04052 0.05986 0.66761 0.0
H4629 H 0.1061 0.01183 0.63811 0.0
H4630 H 0.08391 0.00667 0.62289 0.0
H4631 H 0.09962 0.02829 0.62231 0.0
H4632 H 0.02992 0.00936 0.58611 0.0
H4633 H 0.06772 0.06104 0.58364 0.0
H4634 H 0.03403 0.01009 0.63658 0.0
H4635 H 0.05135 0.99767 0.62892 0.0
H4636 H 0.02899 0.99419 0.61422 0.0
H4637 H 0.0794 0.07408 0.63342 0.0
H4638 H 0.0886 0.07668 0.61045 0.0
H4639 H 0.0968 0.06136 0.62668 0.0
C4640 C 0.78871 0.34102 0.41549 0.0
C4641 C 0.78234 0.3577 0.4139 0.0
C4642 C 0.78803 0.32823 0.39889 0.0
C4643 C 0.78133 0.33266 0.38042 0.0
C4644 C 0.77455 0.34938 0.37887 0.0
C4645 C 0.77494 0.36165 0.39576 0.0
C4646 C 0.79486 0.31026 0.40104 0.0
C4647 C 0.76766 0.3547 0.3593 0.0
C4648 C 0.79961 0.31338 0.33539 0.0
C4649 C 0.78361 0.30118 0.326 0.0
C4650 C 0.79917 0.32358 0.35342 0.0
C4651 C 0.78259 0.32057 0.36249 0.0
C4652 C 0.76684 0.3071 0.35361 0.0
C4653 C 0.76739 0.29783 0.33508 0.0
C4654 C 0.81605 0.33825 0.36217 0.0
C4655 C 0.74925 0.30297 0.36331 0.0
H4656 H 0.7943 0.33807 0.42969 0.0
H4657 H 0.77016 0.3747 0.39472 0.0
H4658 H 0.78446 0.29817 0.39322 0.0
H4659 H 0.80801 0.31057 0.39433 0.0
H4660 H 0.79757 0.30798 0.4166 0.0
H4661 H 0.76258 0.36807 0.36074 0.0
H4662 H 0.77913 0.3561 0.34992 0.0
H4663 H 0.75614 0.34357 0.35165 0.0
H4664 H 0.81219 0.31552 0.32822 0.0
H4665 H 0.75517 0.28806 0.32764 0.0
H4666 H 0.82081 0.33567 0.37718 0.0
H4667 H 0.81224 0.35225 0.3633 0.0
H4668 H 0.82788 0.33858 0.3533 0.0
H4669 H 0.7527 0.30117 0.37889 0.0
H4670 H 0.73952 0.29016 0.35592 0.0
H4671 H 0.74194 0.3149 0.36293 0.0
C4672 C 0.44313 1.00381 0.20384 0.0
C4673 C 0.43564 0.02006 0.20624 0.0
C4674 C 0.45405 1.00083 0.18884 0.0
C4675 C 0.45805 0.01465 0.1762 0.0
C4676 C 0.45106 0.03136 0.17884 0.0
C4677 C 0.43979 0.0338 0.19375 0.0
C4678 C 0.46114 0.98275 0.18639 0.0
C4679 C 0.45533 0.04651 0.16578 0.0
C4680 C 0.49961 0.00982 0.14927 0.0
C4681 C 0.49082 0.99995 0.13137 0.0
C4682 C 0.48909 0.01564 0.16367 0.0
C4683 C 0.46934 0.01127 0.1601 0.0
C4684 C 0.46041 1.00192 0.14176 0.0
C4685 C 0.47128 0.9964 0.12758 0.0
C4686 C 0.49908 0.02588 0.18294 0.0
C4687 C 0.43937 0.99692 0.13745 0.0
H4688 H 0.44048 0.99334 0.21373 0.0
H4689 H 0.43397 0.04633 0.19539 0.0
H4690 H 0.45608 0.97527 0.17153 0.0
H4691 H 0.47663 0.98573 0.18786 0.0
H4692 H 0.45653 0.97331 0.1973 0.0
H4693 H 0.44972 0.0591 0.17047 0.0
H4694 H 0.47065 0.05069 0.16576 0.0
H4695 H 0.44921 0.04114 0.15051 0.0
H4696 H 0.51474 0.0129 0.15205 0.0
H4697 H 0.46447 0.98872 0.11375 0.0
H4698 H 0.49668 0.01679 0.19468 0.0
H4699 H 0.49345 0.03861 0.18689 0.0
H4700 H 0.51438 0.03002 0.18259 0.0
H4701 H 0.43386 0.98608 0.14661 0.0
H4702 H 0.43467 0.99146 0.12184 0.0
H4703 H 0.43312 0.00928 0.1412 0.0
C4704 C 0.77989 0.74096 0.91624 0.0
C4705 C 0.77714 0.72169 0.91772 0.0
C4706 C 0.78183 0.74791 0.89812 0.0
C4707 C 0.7807 0.73534 0.88088 0.0
C4708 C 0.77779 0.71588 0.88227 0.0
C4709 C 0.77619 0.70933 0.9006 0.0
C4710 C 0.78524 0.76877 0.89746 0.0
C4711 C 0.77611 0.70191 0.86429 0.0
C4712 C 0.76814 0.75325 0.83223 0.0
C4713 C 0.78528 0.75605 0.8246 0.0
C4714 C 0.76632 0.74596 0.85015 0.0
C4715 C 0.78231 0.74248 0.86138 0.0
C4716 C 0.7998 0.7458 0.85389 0.0
C4717 C 0.80096 0.75205 0.83535 0.0
C4718 C 0.74725 0.74191 0.85698 0.0
C4719 C 0.81738 0.74314 0.86564 0.0
H4720 H 0.78086 0.75067 0.92935 0.0
H4721 H 0.77381 0.69442 0.90147 0.0
H4722 H 0.79818 0.7733 0.89073 0.0
H4723 H 0.77356 0.77246 0.88819 0.0
H4724 H 0.7866 0.77674 0.91222 0.0
H4725 H 0.7734 0.68724 0.86771 0.0
H4726 H 0.76458 0.70373 0.85345 0.0
H4727 H 0.78914 0.70438 0.85728 0.0
H4728 H 0.75604 0.75651 0.82397 0.0
H4729 H 0.81427 0.75444 0.82955 0.0
H4730 H 0.74707 0.75114 0.87064 0.0
H4731 H 0.744 0.72726 0.86034 0.0
H4732 H 0.73606 0.74405 0.84587 0.0
H4733 H 0.81921 0.75136 0.8803 0.0
H4734 H 0.83003 0.74752 0.85837 0.0
H4735 H 0.81624 0.72824 0.86791 0.0
C4736 C 0.86646 0.07251 0.05843 0.0
C4737 C 0.85632 0.07989 0.04394 0.0
C4738 C 0.8834 0.0672 0.05499 0.0
C4739 C 0.89025 0.06979 0.03686 0.0
C4740 C 0.88005 0.07743 0.02234 0.0
C4741 C 0.86321 0.08235 0.02608 0.0
C4742 C 0.89397 0.05908 0.07073 0.0
C4743 C 0.88692 0.08053 0.00281 0.0
C4744 C 0.93889 0.07543 0.02358 0.0
C4745 C 0.93739 0.05877 0.01125 0.0
C4746 C 0.92435 0.07834 0.03441 0.0
C4747 C 0.90789 0.0644 0.03234 0.0
C4748 C 0.90709 0.04688 0.02138 0.0
C4749 C 0.92191 0.04427 0.01091 0.0
C4750 C 0.92585 0.097 0.04644 0.0
C4751 C 0.88978 0.03165 0.01889 0.0
H4752 H 0.86109 0.07082 0.0723 0.0
H4753 H 0.85554 0.08851 0.0151 0.0
H4754 H 0.89858 0.04638 0.06454 0.0
H4755 H 0.90671 0.06942 0.07711 0.0
H4756 H 0.88544 0.05542 0.08268 0.0
H4757 H 0.87717 0.08657 0.99318 0.0
H4758 H 0.90073 0.09015 0.00506 0.0
H4759 H 0.88871 0.06709 0.99509 0.0
H4760 H 0.95111 0.08641 0.02421 0.0
H4761 H 0.92083 0.0313 1.00146 0.0
H4762 H 0.91978 0.09522 0.06033 0.0
H4763 H 0.91787 0.10576 0.03816 0.0
H4764 H 0.9406 0.10459 0.04986 0.0
H4765 H 0.88381 0.03045 0.03291 0.0
H4766 H 0.89271 0.01787 0.01336 0.0
H4767 H 0.87903 0.03519 0.00823 0.0
C4768 C 0.38939 0.47187 0.03466 0.0
C4769 C 0.3894 0.45373 0.03936 0.0
C4770 C 0.40622 0.48431 0.03351 0.0
C4771 C 0.42342 0.47823 0.03653 0.0
C4772 C 0.42343 0.45986 0.0413 0.0
C4773 C 0.40642 0.44791 0.0429 0.0
C4774 C 0.40561 0.50391 0.029 0.0
C4775 C 0.44138 0.45264 0.0442 0.0
C4776 C 0.46545 0.50231 0.01413 0.0
C4777 C 0.47706 0.51172 0.03077 0.0
C4778 C 0.44786 0.49146 0.01574 0.0
C4779 C 0.44139 0.49086 0.03434 0.0
C4780 C 0.45262 0.50155 0.05099 0.0
C4781 C 0.47055 0.51146 0.04907 0.0
C4782 C 0.43673 0.47978 0.99772 0.0
C4783 C 0.44601 0.502 0.07094 0.0
H4784 H 0.37617 0.47632 0.03192 0.0
H4785 H 0.40635 0.4338 0.04636 0.0
H4786 H 0.41489 0.51423 0.0403 0.0
H4787 H 0.41085 0.50605 0.01476 0.0
H4788 H 0.39125 0.50686 0.02834 0.0
H4789 H 0.43896 0.43789 0.04737 0.0
H4790 H 0.44859 0.45362 0.03089 0.0
H4791 H 0.45094 0.46138 0.05648 0.0
H4792 H 0.47065 0.50247 1.00001 0.0
H4793 H 0.47965 0.51873 0.06193 0.0
H4794 H 0.42249 0.4829 0.9956 0.0
H4795 H 0.43514 0.46474 0.99963 0.0
H4796 H 0.4435 0.48218 0.9843 0.0
H4797 H 0.43151 0.50451 0.0701 0.0
H4798 H 0.45514 0.51302 0.0817 0.0
H4799 H 0.44591 0.48829 0.07643 0.0
C4800 C 0.36218 0.59887 0.784 0.0
C4801 C 0.37596 0.59916 0.77129 0.0
C4802 C 0.35196 0.61326 0.7858 0.0
C4803 C 0.35546 0.62836 0.77454 0.0
C4804 C 0.36945 0.62886 0.76181 0.0
C4805 C 0.37953 0.6143 0.76036 0.0
C4806 C 0.33715 0.61212 0.79953 0.0
C4807 C 0.37362 0.64468 0.74955 0.0
C4808 C 0.31457 0.65293 0.76591 0.0
C4809 C 0.31943 0.66852 0.78021 0.0
C4810 C 0.32658 0.64027 0.7633 0.0
C4811 C 0.34379 0.64306 0.77551 0.0
C4812 C 0.3491 0.6592 0.7895 0.0
C4813 C 0.33689 0.67182 0.79159 0.0
C4814 C 0.32047 0.62349 0.74797 0.0
C4815 C 0.36725 0.66264 0.80289 0.0
H4816 H 0.35907 0.58715 0.7923 0.0
H4817 H 0.39032 0.61484 0.75071 0.0
H4818 H 0.33981 0.62501 0.81009 0.0
H4819 H 0.32323 0.6111 0.79113 0.0
H4820 H 0.33665 0.59987 0.80784 0.0
H4821 H 0.38507 0.64316 0.74054 0.0
H4822 H 0.36091 0.64529 0.73969 0.0
H4823 H 0.3776 0.65822 0.75911 0.0
H4824 H 0.30111 0.65044 0.757 0.0
H4825 H 0.34061 0.68379 0.80276 0.0
H4826 H 0.31787 0.61057 0.75519 0.0
H4827 H 0.33167 0.62226 0.73856 0.0
H4828 H 0.30752 0.62423 0.73854 0.0
H4829 H 0.36673 0.65172 0.81293 0.0
H4830 H 0.37008 0.67656 0.8118 0.0
H4831 H 0.37908 0.66166 0.79431 0.0
C4832 C 0.17443 0.55004 0.53996 0.0
C4833 C 0.17998 0.56773 0.53411 0.0
C4834 C 0.15545 0.54248 0.53994 0.0
C4835 C 0.14204 0.55312 0.53423 0.0
C4836 C 0.14767 0.57112 0.52862 0.0
C4837 C 0.16664 0.57817 0.52852 0.0
C4838 C 0.14973 0.5232 0.54591 0.0
C4839 C 0.13369 0.58298 0.52285 0.0
C4840 C 0.09207 0.53122 0.51542 0.0
C4841 C 0.0833 0.53564 0.5317 0.0
C4842 C 0.11149 0.53614 0.51631 0.0
C4843 C 0.122 0.54556 0.53392 0.0
C4844 C 0.11308 0.54939 0.55063 0.0
C4845 C 0.09366 0.54439 0.54926 0.0
C4846 C 0.12067 0.53189 0.49826 0.0
C4847 C 0.12388 0.55946 0.56962 0.0
H4848 H 0.18492 0.54213 0.54439 0.0
H4849 H 0.17112 0.59205 0.52443 0.0
H4850 H 0.14136 0.52381 0.55835 0.0
H4851 H 0.14073 0.51386 0.53362 0.0
H4852 H 0.16195 0.5169 0.55021 0.0
H4853 H 0.14051 0.59684 0.51924 0.0
H4854 H 0.12393 0.57566 0.50996 0.0
H4855 H 0.12521 0.58522 0.53495 0.0
H4856 H 0.08373 0.52422 0.50199 0.0
H4857 H 0.08652 0.54757 0.56178 0.0
H4858 H 0.13227 0.52454 0.50182 0.0
H4859 H 0.12678 0.54515 0.49287 0.0
H4860 H 0.11064 0.52316 0.48629 0.0
H4861 H 0.13586 0.55287 0.57397 0.0
H4862 H 0.115 0.5595 0.58171 0.0
H4863 H 0.12965 0.57415 0.56766 0.0
C4864 C 0.73757 0.95493 0.77354 0.0
C4865 C 0.72971 0.95733 0.75493 0.0
C4866 C 0.74256 0.93805 0.77716 0.0
C4867 C 0.7402 0.92343 0.7616 0.0
C4868 C 0.73408 0.92642 0.74234 0.0
C4869 C 0.72865 0.94337 0.73924 0.0
C4870 C 0.74918 0.9355 0.79794 0.0
C4871 C 0.73223 0.91146 0.72525 0.0
C4872 C 0.76368 0.88602 0.77934 0.0
C4873 C 0.74878 0.87451 0.78628 0.0
C4874 C 0.7607 0.9008 0.76894 0.0
C4875 C 0.74258 0.90473 0.76624 0.0
C4876 C 0.72728 0.89246 0.77185 0.0
C4877 C 0.73055 0.87733 0.78159 0.0
C4878 C 0.77722 0.91311 0.76236 0.0
C4879 C 0.7077 0.89625 0.76914 0.0
H4880 H 0.73895 0.966 0.78553 0.0
H4881 H 0.7227 0.94527 0.72478 0.0
H4882 H 0.73921 0.92416 0.80298 0.0
H4883 H 0.76298 0.93131 0.79867 0.0
H4884 H 0.75047 0.94842 0.80825 0.0
H4885 H 0.7324 0.91752 0.71117 0.0
H4886 H 0.74362 0.90344 0.72673 0.0
H4887 H 0.71876 0.90151 0.72466 0.0
H4888 H 0.77791 0.88427 0.78292 0.0
H4889 H 0.71887 0.86821 0.78626 0.0
H4890 H 0.7821 0.92572 0.7732 0.0
H4891 H 0.77331 0.91785 0.74806 0.0
H4892 H 0.78906 0.90574 0.76105 0.0
H4893 H 0.70695 0.90894 0.77898 0.0
H4894 H 0.69714 0.88441 0.77247 0.0
H4895 H 0.70401 0.89899 0.75393 0.0
C4896 C 0.69771 0.93417 0.54487 0.0
C4897 C 0.71208 0.93757 0.53292 0.0
C4898 C 0.6822 0.94296 0.54299 0.0
C4899 C 0.68086 0.95529 0.52866 0.0
C4900 C 0.69558 0.95922 0.517 0.0
C4901 C 0.711 0.95045 0.51935 0.0
C4902 C 0.66696 0.93855 0.55589 0.0
C4903 C 0.6948 0.97229 0.50154 0.0
C4904 C 0.63487 0.9619 0.50295 0.0
C4905 C 0.63444 0.98034 0.5102 0.0
C4906 C 0.64919 0.95306 0.50992 0.0
C4907 C 0.66352 0.96294 0.5245 0.0
C4908 C 0.66227 0.98101 0.53304 0.0
C4909 C 0.64771 0.98954 0.52575 0.0
C4910 C 0.64979 0.93374 0.50048 0.0
C4911 C 0.67706 0.99192 0.54882 0.0
H4912 H 0.69826 0.92418 0.55533 0.0
H4913 H 0.72219 0.9536 0.51038 0.0
H4914 H 0.66321 0.95162 0.56237 0.0
H4915 H 0.65422 0.93011 0.54699 0.0
H4916 H 0.67113 0.93062 0.56788 0.0
H4917 H 0.70771 0.9745 0.49425 0.0
H4918 H 0.68273 0.9665 0.49023 0.0
H4919 H 0.69269 0.98606 0.50812 0.0
H4920 H 0.6246 0.95479 0.4909 0.0
H4921 H 0.64748 1.00386 0.53126 0.0
H4922 H 0.65251 0.92453 0.51175 0.0
H4923 H 0.6614 0.93464 0.49128 0.0
H4924 H 0.63656 0.92714 0.4911 0.0
H4925 H 0.68082 0.98285 0.55986 0.0
H4926 H 0.67242 1.00408 0.55631 0.0
H4927 H 0.68988 0.99719 0.54221 0.0
C4928 C 0.37 0.40718 0.77065 0.0
C4929 C 0.36368 0.42053 0.75987 0.0
C4930 C 0.35863 0.38964 0.77136 0.0
C4931 C 0.34047 0.38511 0.76086 0.0
C4932 C 0.33404 0.39837 0.74976 0.0
C4933 C 0.34566 0.4159 0.74944 0.0
C4934 C 0.36604 0.37595 0.78345 0.0
C4935 C 0.3148 0.39407 0.73833 0.0
C4936 C 0.31865 0.33319 0.7502 0.0
C4937 C 0.30712 0.33075 0.76509 0.0
C4938 C 0.32914 0.35089 0.74828 0.0
C4939 C 0.32824 0.36653 0.76169 0.0
C4940 C 0.31631 0.3642 0.77651 0.0
C4941 C 0.30592 0.34636 0.77803 0.0
C4942 C 0.34161 0.35273 0.73224 0.0
C4943 C 0.31505 0.38041 0.79124 0.0
H4944 H 0.38398 0.41037 0.77847 0.0
H4945 H 0.34048 0.42612 0.74126 0.0
H4946 H 0.35669 0.37218 0.79467 0.0
H4947 H 0.36625 0.36287 0.77399 0.0
H4948 H 0.38038 0.38166 0.79092 0.0
H4949 H 0.31201 0.40569 0.73006 0.0
H4950 H 0.31321 0.38123 0.72787 0.0
H4951 H 0.30404 0.39133 0.74841 0.0
H4952 H 0.3197 0.32117 0.74021 0.0
H4953 H 0.29746 0.34454 0.78992 0.0
H4954 H 0.35644 0.35688 0.73874 0.0
H4955 H 0.33851 0.36388 0.72345 0.0
H4956 H 0.33991 0.33949 0.72232 0.0
H4957 H 0.32879 0.38552 0.80024 0.0
H4958 H 0.30433 0.37653 0.80114 0.0
H4959 H 0.31164 0.3922 0.78365 0.0
C4960 C 0.24654 0.64521 0.2509 0.0
C4961 C 0.24218 0.63541 0.26668 0.0
C4962 C 0.25307 0.66451 0.25374 0.0
C4963 C 0.25541 0.67415 0.27286 0.0
C4964 C 0.25165 0.66428 0.28898 0.0
C4965 C 0.24501 0.64492 0.28568 0.0
C4966 C 0.25703 0.67465 0.23618 0.0
C4967 C 0.25416 0.67422 0.30954 0.0
C4968 C 0.28649 0.721 0.27404 0.0
C4969 C 0.27324 0.73204 0.27035 0.0
C4970 C 0.2809 0.70235 0.27703 0.0
C4971 C 0.26161 0.69463 0.27559 0.0
C4972 C 0.24823 0.70615 0.27309 0.0
C4973 C 0.25428 0.72485 0.27038 0.0
C4974 C 0.29557 0.69059 0.28 0.0
C4975 C 0.22753 0.69837 0.27146 0.0
H4976 H 0.24453 0.63777 0.23626 0.0
H4977 H 0.24139 0.63733 0.29785 0.0
H4978 H 0.24803 0.68517 0.2348 0.0
H4979 H 0.27176 0.68224 0.23808 0.0
H4980 H 0.2545 0.665 0.22233 0.0
H4981 H 0.2516 0.66433 0.32057 0.0
H4982 H 0.26852 0.68267 0.31318 0.0
H4983 H 0.24437 0.68403 0.31065 0.0
H4984 H 0.30117 0.72675 0.27376 0.0
H4985 H 0.24414 0.73348 0.26709 0.0
H4986 H 0.29595 0.68181 0.26608 0.0
H4987 H 0.29219 0.68106 0.29116 0.0
H4988 H 0.30971 0.69935 0.28457 0.0
H4989 H 0.22284 0.69012 0.2569 0.0
H4990 H 0.21934 0.70964 0.27309 0.0
H4991 H 0.22433 0.68886 0.28268 0.0
C4992 C 0.53235 0.66819 0.48867 0.0
C4993 C 0.51476 0.67263 0.48304 0.0
C4994 C 0.53423 0.6504 0.49427 0.0
C4995 C 0.5182 0.6363 0.49488 0.0
C4996 C 0.50042 0.6407 0.48959 0.0
C4997 C 0.49893 0.65848 0.48367 0.0
C4998 C 0.55358 0.6468 0.49967 0.0
C4999 C 0.48279 0.62651 0.49012 0.0
C5000 C 0.52162 0.58385 0.49167 0.0
C5001 C 0.52289 0.5803 0.51133 0.0
C5002 C 0.5205 0.60184 0.48626 0.0
C5003 C 0.51998 0.61696 0.50067 0.0
C5004 C 0.5211 0.61338 0.52056 0.0
C5005 C 0.52273 0.59535 0.5256 0.0
C5006 C 0.52017 0.60475 0.46498 0.0
C5007 C 0.52057 0.62866 0.53665 0.0
H5008 H 0.54487 0.6787 0.4889 0.0
H5009 H 0.48518 0.66109 0.47921 0.0
H5010 H 0.55601 0.64658 0.51569 0.0
H5011 H 0.55499 0.63298 0.49252 0.0
H5012 H 0.56461 0.65774 0.49552 0.0
H5013 H 0.46998 0.63214 0.48651 0.0
H5014 H 0.48245 0.61399 0.47956 0.0
H5015 H 0.48258 0.62182 0.50486 0.0
H5016 H 0.52192 0.57256 0.48041 0.0
H5017 H 0.52363 0.59297 0.54083 0.0
H5018 H 0.53176 0.61631 0.46318 0.0
H5019 H 0.50691 0.60889 0.45975 0.0
H5020 H 0.52154 0.59199 0.45559 0.0
H5021 H 0.53323 0.63978 0.5376 0.0
H5022 H 0.51996 0.62341 0.55113 0.0
H5023 H 0.50826 0.63513 0.53335 0.0
C5024 C 0.66714 0.28419 0.67111 0.0
C5025 C 0.65278 0.29147 0.67928 0.0
C5026 C 0.68351 0.28227 0.68274 0.0
C5027 C 0.68587 0.28778 0.70322 0.0
C5028 C 0.67153 0.29527 0.71157 0.0
C5029 C 0.65527 0.29701 0.6996 0.0
C5030 C 0.6983 0.27422 0.67306 0.0
C5031 C 0.67329 0.30137 0.73327 0.0
C5032 C 0.7198 0.26698 0.73656 0.0
C5033 C 0.73605 0.28096 0.73935 0.0
C5034 C 0.70356 0.26891 0.72474 0.0
C5035 C 0.7032 0.28551 0.71587 0.0
C5036 C 0.71952 0.29983 0.71898 0.0
C5037 C 0.73576 0.29727 0.73038 0.0
C5038 C 0.68681 0.25304 0.72156 0.0
C5039 C 0.7198 0.31796 0.71037 0.0
H5040 H 0.6657 0.28011 0.65547 0.0
H5041 H 0.64432 0.30241 0.70629 0.0
H5042 H 0.71172 0.28449 0.67559 0.0
H5043 H 0.70074 0.26156 0.67964 0.0
H5044 H 0.69438 0.27042 0.65705 0.0
H5045 H 0.6613 0.30749 0.7375 0.0
H5046 H 0.67418 0.28924 0.74144 0.0
H5047 H 0.68637 0.31187 0.7379 0.0
H5048 H 0.7199 0.25428 0.74331 0.0
H5049 H 0.74817 0.30824 0.73262 0.0
H5050 H 0.6831 0.24826 0.70569 0.0
H5051 H 0.67457 0.2579 0.72692 0.0
H5052 H 0.68935 0.24094 0.72915 0.0
H5053 H 0.71735 0.3152 0.69418 0.0
H5054 H 0.73327 0.32799 0.71468 0.0
H5055 H 0.70834 0.3246 0.7152 0.0
C5056 C 0.02342 0.38536 0.97177 0.0
C5057 C 0.01661 0.3721 0.98406 0.0
C5058 C 0.02458 0.40481 0.97679 0.0
C5059 C 0.0188 0.41164 0.99464 0.0
C5060 C 0.0118 0.3984 0.00708 0.0
C5061 C 0.0108 0.379 0.00171 0.0
C5062 C 0.03202 0.41812 0.96288 0.0
C5063 C 1.00543 0.40476 0.02623 0.0
C5064 C 0.03817 0.46302 0.01652 0.0
C5065 C 0.02351 0.47216 0.01104 0.0
C5066 C 0.03684 0.44357 0.01131 0.0
C5067 C 0.02035 0.43256 1.00038 0.0
C5068 C 1.00553 0.4417 0.99473 0.0
C5069 C 1.00738 0.46124 0.99989 0.0
C5070 C 0.0532 0.4348 0.01751 0.0
C5071 C 0.98757 0.43082 0.98328 0.0
H5072 H 0.02763 0.38052 0.95792 0.0
H5073 H 1.00569 0.36922 0.01159 0.0
H5074 H 0.02134 0.42627 0.95834 0.0
H5075 H 0.04448 0.42827 0.97032 0.0
H5076 H 0.03595 0.41077 0.94957 0.0
H5077 H 0.99993 0.39287 0.03414 0.0
H5078 H 0.01725 0.41409 0.03577 0.0
H5079 H 0.99435 0.41299 0.02362 0.0
H5080 H 0.05084 0.4711 0.02497 0.0
H5081 H 0.9962 0.46802 0.99495 0.0
H5082 H 0.05811 0.42809 0.00445 0.0
H5083 H 0.0488 0.42368 0.02678 0.0
H5084 H 0.06509 0.44516 0.0258 0.0
H5085 H 0.99053 0.42256 0.97005 0.0
H5086 H 0.97791 0.44003 0.97872 0.0
H5087 H 0.9804 0.42079 0.99238 0.0
C5088 C 0.95551 0.77236 0.16003 0.0
C5089 C 0.97279 0.78197 0.16995 0.0
C5090 C 0.93914 0.77032 0.16927 0.0
C5091 C 0.93995 0.77788 0.18908 0.0
C5092 C 0.95731 0.78776 0.19914 0.0
C5093 C 0.97346 0.78978 0.18945 0.0
C5094 C 0.92094 0.75991 0.15784 0.0
C5095 C 0.95891 0.79583 0.22031 0.0
C5096 C 0.89353 0.78349 0.20748 0.0
C5097 C 0.8884 0.76665 0.21533 0.0
C5098 C 0.91048 0.7876 0.19933 0.0
C5099 C 0.92274 0.77471 0.19934 0.0
C5100 C 0.91792 0.7581 0.20811 0.0
C5101 C 0.90075 0.75418 0.21576 0.0
C5102 C 0.91486 0.80533 0.18991 0.0
C5103 C 0.93065 0.74413 0.20887 0.0
H5104 H 0.95475 0.76653 0.14488 0.0
H5105 H 0.98673 0.79711 0.1973 0.0
H5106 H 0.91566 0.74718 0.1646 0.0
H5107 H 0.91023 0.76877 0.15828 0.0
H5108 H 0.92245 0.75566 0.14232 0.0
H5109 H 0.97323 0.8037 0.22588 0.0
H5110 H 0.94892 0.80534 0.22217 0.0
H5111 H 0.95519 0.78441 0.22942 0.0
H5112 H 0.88389 0.79304 0.20695 0.0
H5113 H 0.89678 0.74115 0.22181 0.0
H5114 H 0.91479 0.80176 0.17394 0.0
H5115 H 0.92904 0.81328 0.19578 0.0
H5116 H 0.90461 0.81449 0.19228 0.0
H5117 H 0.93144 0.73776 0.19383 0.0
H5118 H 0.92571 0.73277 0.21771 0.0
H5119 H 0.94502 0.75123 0.21516 0.0
C5120 C 0.51933 0.35224 0.12927 0.0
C5121 C 0.5315 0.33954 0.12799 0.0
C5122 C 0.52137 0.36803 0.11895 0.0
C5123 C 0.53593 0.37133 0.10696 0.0
C5124 C 0.54825 0.35858 0.10562 0.0
C5125 C 0.5459 0.34294 0.11608 0.0
C5126 C 0.50791 0.38119 0.12088 0.0
C5127 C 0.56392 0.36139 0.09299 0.0
C5128 C 0.53334 0.40061 0.06441 0.0
C5129 C 0.5454 0.41751 0.07206 0.0
C5130 C 0.52945 0.38585 0.07588 0.0
C5131 C 0.53815 0.3878 0.09542 0.0
C5132 C 0.54994 0.40509 0.10338 0.0
C5133 C 0.55334 0.41976 0.09164 0.0
C5134 C 0.51655 0.36789 0.0668 0.0
C5135 C 0.55963 0.40782 0.12403 0.0
H5136 H 0.5083 0.34999 0.13857 0.0
H5137 H 0.55524 0.33317 0.11466 0.0
H5138 H 0.51568 0.39546 0.1267 0.0
H5139 H 0.5006 0.38209 0.10628 0.0
H5140 H 0.4973 0.37669 0.1307 0.0
H5141 H 0.57252 0.35045 0.09375 0.0
H5142 H 0.5581 0.3612 0.07753 0.0
H5143 H 0.57314 0.37526 0.0976 0.0
H5144 H 0.52728 0.39881 0.04924 0.0
H5145 H 0.56286 0.43272 0.09751 0.0
H5146 H 0.50563 0.36368 0.07635 0.0
H5147 H 0.5246 0.35653 0.06534 0.0
H5148 H 0.50962 0.36916 0.05211 0.0
H5149 H 0.54936 0.40407 0.13439 0.0
H5150 H 0.56722 0.42245 0.12855 0.0
H5151 H 0.5698 0.39839 0.12524 0.0
C5152 C 0.92715 0.28744 0.32546 0.0
C5153 C 0.94053 0.29529 0.31379 0.0
C5154 C 0.90768 0.28605 0.32023 0.0
C5155 C 0.90097 0.29265 0.30281 0.0
C5156 C 0.91433 0.30069 0.29101 0.0
C5157 C 0.93374 0.3019 0.29657 0.0
C5158 C 0.89424 0.2775 0.33349 0.0
C5159 C 0.9081 0.30799 0.27234 0.0
C5160 C 0.8499 0.27334 0.27969 0.0
C5161 C 0.84048 0.28756 0.28584 0.0
C5162 C 0.86935 0.2748 0.28505 0.0
C5163 C 0.88005 0.29095 0.29688 0.0
C5164 C 0.87059 0.30532 0.30321 0.0
C5165 C 0.85108 0.30336 0.29782 0.0
C5166 C 0.87847 0.25895 0.27804 0.0
C5167 C 0.8811 0.3229 0.31566 0.0
H5168 H 0.93187 0.28259 0.339 0.0
H5169 H 0.9436 0.30781 0.28714 0.0
H5170 H 0.88584 0.28775 0.33856 0.0
H5171 H 0.88435 0.26522 0.32531 0.0
H5172 H 0.9015 0.27297 0.34649 0.0
H5173 H 0.92007 0.31421 0.26491 0.0
H5174 H 0.89906 0.29645 0.26215 0.0
H5175 H 0.89961 0.31874 0.27549 0.0
H5176 H 0.84205 0.26094 0.27056 0.0
H5177 H 0.84408 0.3142 0.30324 0.0
H5178 H 0.88507 0.25343 0.29075 0.0
H5179 H 0.88972 0.2641 0.26921 0.0
H5180 H 0.86835 0.24729 0.26905 0.0
H5181 H 0.88896 0.31935 0.32884 0.0
H5182 H 0.87169 0.33229 0.32039 0.0
H5183 H 0.89145 0.33064 0.30728 0.0
C5184 C 0.02478 0.6439 0.6279 0.0
C5185 C 0.01719 0.65821 0.61995 0.0
C5186 C 0.02608 0.62733 0.61622 0.0
C5187 C 0.01959 0.62471 0.59594 0.0
C5188 C 0.01168 0.63893 0.58785 0.0
C5189 C 0.01059 0.6554 0.59986 0.0
C5190 C 0.03463 0.61267 0.6256 0.0
C5191 C 1.00459 0.63688 0.56636 0.0
C5192 C 0.03994 0.59112 0.56193 0.0
C5193 C 0.02607 0.57474 0.55922 0.0
C5194 C 0.03803 0.6073 0.5738 0.0
C5195 C 0.02169 0.60743 0.58314 0.0
C5196 C 1.00753 0.59098 0.5803 0.0
C5197 C 0.00992 0.57488 0.56851 0.0
C5198 C 0.05363 0.62429 0.57645 0.0
C5199 C 0.98978 0.59041 0.58968 0.0
H5200 H 0.02966 0.64557 0.64338 0.0
H5201 H 1.00491 0.66629 0.59333 0.0
H5202 H 0.02458 0.59911 0.62322 0.0
H5203 H 0.04717 0.61049 0.61866 0.0
H5204 H 0.03877 0.61659 0.64157 0.0
H5205 H 0.99806 0.64873 0.5624 0.0
H5206 H 0.0163 0.63608 0.55755 0.0
H5207 H 0.99415 0.62368 0.56225 0.0
H5208 H 0.05252 0.59124 0.55493 0.0
H5209 H 0.99903 0.5624 0.5664 0.0
H5210 H 0.05896 0.62805 0.59219 0.0
H5211 H 0.04829 0.63641 0.57139 0.0
H5212 H 0.06545 0.622 0.56829 0.0
H5213 H 0.99313 0.59306 0.60582 0.0
H5214 H 0.97995 0.57676 0.5858 0.0
H5215 H 0.98266 0.60164 0.58505 0.0
C5216 C 0.65825 0.80676 0.82925 0.0
C5217 C 0.64146 0.79992 0.81664 0.0
C5218 C 0.67604 0.80482 0.82373 0.0
C5219 C 0.67762 0.79575 0.805 0.0
C5220 C 0.66082 0.78884 0.79216 0.0
C5221 C 0.64319 0.79099 0.79804 0.0
C5222 C 0.69326 0.81237 0.83815 0.0
C5223 C 0.66145 0.77914 0.77204 0.0
C5224 C 0.72564 0.80408 0.78451 0.0
C5225 C 0.73252 0.78781 0.78783 0.0
C5226 C 0.70798 0.8068 0.78985 0.0
C5227 C 0.69667 0.7931 0.79907 0.0
C5228 C 0.70374 0.77681 0.80272 0.0
C5229 C 0.72135 0.77444 0.79717 0.0
C5230 C 0.70142 0.82443 0.78553 0.0
C5231 C 0.69266 0.76172 0.81252 0.0
H5232 H 0.65756 0.8134 0.84377 0.0
H5233 H 0.63072 0.78579 0.7878 0.0
H5234 H 0.7006 0.80087 0.84137 0.0
H5235 H 0.7031 0.82278 0.83173 0.0
H5236 H 0.68993 0.8191 0.85211 0.0
H5237 H 0.64736 0.77473 0.76356 0.0
H5238 H 0.67045 0.7886 0.76376 0.0
H5239 H 0.66777 0.76661 0.77323 0.0
H5240 H 0.73398 0.81468 0.77749 0.0
H5241 H 0.72649 0.76203 0.80041 0.0
H5242 H 0.70055 0.83297 0.79944 0.0
H5243 H 0.6872 0.82095 0.77729 0.0
H5244 H 0.71094 0.833 0.77692 0.0
H5245 H 0.68916 0.76777 0.82669 0.0
H5246 H 0.70034 0.75032 0.81521 0.0
H5247 H 0.67929 0.75556 0.80323 0.0
C5248 C 0.4957 0.52902 0.66692 0.0
C5249 C 0.47647 0.52519 0.66834 0.0
C5250 C 0.50248 0.53025 0.64863 0.0
C5251 C 0.48973 0.52692 0.63122 0.0
C5252 C 0.47028 0.52274 0.63263 0.0
C5253 C 0.46391 0.52225 0.65115 0.0
C5254 C 0.52329 0.53533 0.64796 0.0
C5255 C 0.45618 0.51845 0.61454 0.0
C5256 C 0.50435 0.54387 0.58337 0.0
C5257 C 0.50994 0.52819 0.57438 0.0
C5258 C 0.49825 0.54386 0.60207 0.0
C5259 C 0.49671 0.52741 0.61153 0.0
C5260 C 0.50189 0.51138 0.60212 0.0
C5261 C 0.50908 0.51222 0.58406 0.0
C5262 C 0.49399 0.56161 0.61196 0.0
C5263 C 0.49979 0.49327 0.61106 0.0
H5264 H 0.50545 0.53142 0.68019 0.0
H5265 H 0.44903 0.51917 0.6522 0.0
H5266 H 0.52819 0.52348 0.64026 0.0
H5267 H 0.52658 0.54743 0.63961 0.0
H5268 H 0.53124 0.53888 0.6628 0.0
H5269 H 0.44161 0.51472 0.61806 0.0
H5270 H 0.45729 0.53071 0.60626 0.0
H5271 H 0.45913 0.50667 0.60478 0.0
H5272 H 0.50555 0.55642 0.57615 0.0
H5273 H 0.51381 0.50022 0.57732 0.0
H5274 H 0.5023 0.56537 0.62659 0.0
H5275 H 0.47904 0.55946 0.61422 0.0
H5276 H 0.49714 0.57353 0.60331 0.0
H5277 H 0.50953 0.49505 0.62473 0.0
H5278 H 0.50269 0.48163 0.60102 0.0
H5279 H 0.4854 0.48927 0.61497 0.0
C5280 C 0.76762 0.20427 0.96099 0.0
C5281 C 0.77701 0.18938 0.95835 0.0
C5282 C 0.76367 0.21442 0.94557 0.0
C5283 C 0.76929 0.20953 0.92711 0.0
C5284 C 0.78013 0.19554 0.92482 0.0
C5285 C 0.78388 0.18557 0.94054 0.0
C5286 C 0.75229 0.22942 0.94867 0.0
C5287 C 0.78653 0.19012 0.90539 0.0
C5288 C 0.73558 0.21624 0.88465 0.0
C5289 C 0.74492 0.23275 0.87879 0.0
C5290 C 0.74376 0.2082 0.89994 0.0
C5291 C 0.7615 0.21719 0.9098 0.0
C5292 C 0.77106 0.23386 0.90379 0.0
C5293 C 0.76268 0.24138 0.88814 0.0
C5294 C 0.73329 0.1902 0.9057 0.0
C5295 C 0.78985 0.24394 0.91414 0.0
H5296 H 0.76268 0.20748 0.97494 0.0
H5297 H 0.79119 0.17409 0.93852 0.0
H5298 H 0.75865 0.24225 0.94268 0.0
H5299 H 0.73803 0.22446 0.94074 0.0
H5300 H 0.75103 0.23306 0.96438 0.0
H5301 H 0.79729 0.18132 0.90684 0.0
H5302 H 0.7744 0.1821 0.89522 0.0
H5303 H 0.79234 0.20271 0.89868 0.0
H5304 H 0.72195 0.20953 0.8771 0.0
H5305 H 0.76984 0.25416 0.88338 0.0
H5306 H 0.72981 0.19261 0.92085 0.0
H5307 H 0.74221 0.17951 0.90546 0.0
H5308 H 0.72014 0.18449 0.89583 0.0
H5309 H 0.78833 0.24928 0.92935 0.0
H5310 H 0.79606 0.25591 0.90669 0.0
H5311 H 0.79971 0.23418 0.91507 0.0
C5312 C 0.11519 0.55444 0.15458 0.0
C5313 C 0.11241 0.54021 0.1667 0.0
C5314 C 0.10363 0.55328 0.13698 0.0
C5315 C 0.08878 0.53773 0.13171 0.0
C5316 C 0.08567 0.5235 0.14401 0.0
C5317 C 0.09766 0.52482 0.1613 0.0
C5318 C 0.10753 0.56846 0.12386 0.0
C5319 C 0.06989 0.50672 0.13874 0.0
C5320 C 0.04971 0.54179 0.09347 0.0
C5321 C 0.05418 0.53151 0.07708 0.0
C5322 C 0.06079 0.5438 0.11152 0.0
C5323 C 0.07696 0.53586 0.11286 0.0
C5324 C 0.08175 0.52579 0.09628 0.0
C5325 C 0.07009 0.52344 0.07867 0.0
C5326 C 0.05516 0.55426 0.12914 0.0
C5327 C 0.09923 0.5176 0.09709 0.0
H5328 H 0.12643 0.56647 0.15882 0.0
H5329 H 0.0957 0.51359 0.1704 0.0
H5330 H 0.11013 0.56234 0.10932 0.0
H5331 H 0.09517 0.57505 0.12148 0.0
H5332 H 0.11981 0.57952 0.13005 0.0
H5333 H 0.0687 0.4975 0.15053 0.0
H5334 H 0.05643 0.51135 0.13572 0.0
H5335 H 0.07212 0.49839 0.12522 0.0
H5336 H 0.03756 0.54824 0.09224 0.0
H5337 H 0.07371 0.51555 0.06602 0.0
H5338 H 0.06634 0.56649 0.13501 0.0
H5339 H 0.05335 0.54508 0.14089 0.0
H5340 H 0.04194 0.55925 0.12567 0.0
H5341 H 0.11166 0.52869 0.10259 0.0
H5342 H 0.10135 0.51095 0.08257 0.0
H5343 H 0.09846 0.50694 0.10743 0.0
C5344 C 0.77732 0.83697 0.41768 0.0
C5345 C 0.78831 0.831 0.43268 0.0
C5346 C 0.77711 0.82999 0.39792 0.0
C5347 C 0.78797 0.8165 0.39293 0.0
C5348 C 0.79891 0.81025 0.40801 0.0
C5349 C 0.79903 0.81763 0.42763 0.0
C5350 C 0.76543 0.83725 0.38234 0.0
C5351 C 0.81049 0.79572 0.40341 0.0
C5352 C 0.77443 0.78631 0.34343 0.0
C5353 C 0.78774 0.79479 0.3322 0.0
C5354 C 0.7744 0.79314 0.36318 0.0
C5355 C 0.78791 0.80898 0.37195 0.0
C5356 C 0.80131 0.81766 0.36061 0.0
C5357 C 0.80105 0.81047 0.34093 0.0
C5358 C 0.75997 0.78332 0.3747 0.0
C5359 C 0.81587 0.83464 0.36922 0.0
H5360 H 0.7692 0.84748 0.42135 0.0
H5361 H 0.80742 0.81278 0.43909 0.0
H5362 H 0.77451 0.84377 0.372 0.0
H5363 H 0.75513 0.82551 0.37376 0.0
H5364 H 0.75779 0.84774 0.38857 0.0
H5365 H 0.8181 0.79218 0.41678 0.0
H5366 H 0.80137 0.78277 0.3956 0.0
H5367 H 0.82081 0.80083 0.39355 0.0
H5368 H 0.76409 0.77417 0.33684 0.0
H5369 H 0.81116 0.81732 0.33229 0.0
H5370 H 0.75131 0.79317 0.38015 0.0
H5371 H 0.767 0.77856 0.38767 0.0
H5372 H 0.7506 0.77104 0.36585 0.0
H5373 H 0.80897 0.84603 0.37472 0.0
H5374 H 0.82517 0.83987 0.35842 0.0
H5375 H 0.82461 0.83123 0.38187 0.0
C5376 C 0.49466 0.53419 0.87772 0.0
C5377 C 0.48095 0.51928 0.86785 0.0
C5378 C 0.5013 0.53462 0.89764 0.0
C5379 C 0.49437 0.51964 0.90805 0.0
C5380 C 0.48087 0.50436 0.89813 0.0
C5381 C 0.47422 0.50445 0.87833 0.0
C5382 C 0.5155 0.55133 0.90766 0.0
C5383 C 0.47316 0.48802 0.90854 0.0
C5384 C 0.52239 0.51534 0.95661 0.0
C5385 C 0.51248 0.52347 0.97033 0.0
C5386 C 0.51647 0.51359 0.93636 0.0
C5387 C 0.50045 0.52047 0.92955 0.0
C5388 C 0.49022 0.52835 0.94337 0.0
C5389 C 0.49618 0.52949 0.96348 0.0
C5390 C 0.52748 0.50454 0.92225 0.0
C5391 C 0.47305 0.53583 0.93689 0.0
H5392 H 0.50028 0.54561 0.8699 0.0
H5393 H 0.46339 0.49298 0.87121 0.0
H5394 H 0.50957 0.55839 0.9198 0.0
H5395 H 0.52808 0.54674 0.91418 0.0
H5396 H 0.51985 0.56166 0.89749 0.0
H5397 H 0.46391 0.47653 0.89844 0.0
H5398 H 0.48474 0.48242 0.91585 0.0
H5399 H 0.46503 0.4927 0.9201 0.0
H5400 H 0.53498 0.51062 0.96165 0.0
H5401 H 0.48801 0.53519 0.97389 0.0
H5402 H 0.53321 0.51471 0.9125 0.0
H5403 H 0.51817 0.49262 0.91283 0.0
H5404 H 0.53922 0.49935 0.92985 0.0
H5405 H 0.47665 0.5468 0.92721 0.0
H5406 H 0.46684 0.54187 0.94943 0.0
H5407 H 0.46231 0.52451 0.92829 0.0
C5408 C 0.75861 0.19598 0.14179 0.0
C5409 C 0.7736 0.19897 0.13065 0.0
C5410 C 0.75843 0.20785 0.15888 0.0
C5411 C 0.77347 0.22314 0.16472 0.0
C5412 C 0.78826 0.22666 0.15315 0.0
C5413 C 0.7882 0.21444 0.1363 0.0
C5414 C 0.7426 0.20356 0.17113 0.0
C5415 C 0.80455 0.24284 0.15904 0.0
C5416 C 0.769 0.26116 0.2042 0.0
C5417 C 0.7794 0.25631 0.22032 0.0
C5418 C 0.76694 0.2505 0.18586 0.0
C5419 C 0.77482 0.2343 0.18394 0.0
C5420 C 0.78472 0.22897 0.20032 0.0
C5421 C 0.78718 0.24023 0.2182 0.0
C5422 C 0.75663 0.2567 0.1685 0.0
C5423 C 0.79286 0.21145 0.19896 0.0
H5424 H 0.74715 0.1842 0.13728 0.0
H5425 H 0.79994 0.21667 0.12789 0.0
H5426 H 0.74805 0.19988 0.18546 0.0
H5427 H 0.73635 0.21606 0.17412 0.0
H5428 H 0.73143 0.19179 0.16393 0.0
H5429 H 0.81388 0.24477 0.14741 0.0
H5430 H 0.79947 0.256 0.1625 0.0
H5431 H 0.81292 0.24039 0.17244 0.0
H5432 H 0.76261 0.27332 0.20585 0.0
H5433 H 0.79503 0.2362 0.23063 0.0
H5434 H 0.74465 0.24549 0.16197 0.0
H5435 H 0.76605 0.25927 0.15707 0.0
H5436 H 0.75135 0.26965 0.17247 0.0
H5437 H 0.78189 0.19918 0.19266 0.0
H5438 H 0.79904 0.20868 0.21343 0.0
H5439 H 0.8039 0.21275 0.18907 0.0
C5440 C 0.1307 0.55324 0.35937 0.0
C5441 C 0.12607 0.53859 0.34405 0.0
C5442 C 0.11876 0.55522 0.37357 0.0
C5443 C 0.10196 0.54191 0.37272 0.0
C5444 C 0.09769 0.52642 0.35798 0.0
C5445 C 0.10977 0.52502 0.34364 0.0
C5446 C 0.12389 0.57194 0.38912 0.0
C5447 C 0.08013 0.51172 0.35693 0.0
C5448 C 0.08435 0.54806 0.42138 0.0
C5449 C 0.07272 0.56095 0.4181 0.0
C5450 C 0.09217 0.53972 0.40602 0.0
C5451 C 0.08888 0.54494 0.3871 0.0
C5452 C 0.07581 0.5565 0.38329 0.0
C5453 C 0.06766 0.56416 0.39883 0.0
C5454 C 0.10546 0.52681 0.41047 0.0
C5455 C 0.07189 0.56234 0.36324 0.0
H5456 H 0.14353 0.56349 0.35999 0.0
H5457 H 0.1061 0.5137 0.33175 0.0
H5458 H 0.11283 0.58041 0.38839 0.0
H5459 H 0.12494 0.56724 0.40385 0.0
H5460 H 0.1374 0.58108 0.38751 0.0
H5461 H 0.08068 0.49895 0.34708 0.0
H5462 H 0.07778 0.50776 0.37166 0.0
H5463 H 0.06792 0.5174 0.35127 0.0
H5464 H 0.0885 0.54537 0.43612 0.0
H5465 H 0.05812 0.5735 0.39599 0.0
H5466 H 0.12005 0.53474 0.4119 0.0
H5467 H 0.10384 0.5152 0.39847 0.0
H5468 H 0.10322 0.52082 0.42436 0.0
H5469 H 0.08416 0.57255 0.36024 0.0
H5470 H 0.05945 0.56898 0.36202 0.0
H5471 H 0.06965 0.55017 0.3518 0.0
C5472 C 0.7762 0.82082 0.63378 0.0
C5473 C 0.78993 0.83646 0.63185 0.0
C5474 C 0.77469 0.81373 0.65186 0.0
C5475 C 0.78717 0.82243 0.66859 0.0
C5476 C 0.80112 0.83815 0.66676 0.0
C5477 C 0.80234 0.84493 0.64847 0.0
C5478 C 0.75971 0.79686 0.65304 0.0
C5479 C 0.81471 0.84788 0.68417 0.0
C5480 C 0.77302 0.81431 0.71931 0.0
C5481 C 0.78254 0.80017 0.72415 0.0
C5482 C 0.77437 0.82167 0.70133 0.0
C5483 C 0.78574 0.81494 0.68793 0.0
C5484 C 0.7956 0.80085 0.69295 0.0
C5485 C 0.79375 0.79355 0.71085 0.0
C5486 C 0.76344 0.8365 0.69656 0.0
C5487 C 0.80812 0.79344 0.67937 0.0
H5488 H 0.76669 0.81398 0.62105 0.0
H5489 H 0.81284 0.85715 0.6473 0.0
H5490 H 0.76621 0.7853 0.65786 0.0
H5491 H 0.75052 0.8003 0.66408 0.0
H5492 H 0.75096 0.79181 0.63879 0.0
H5493 H 0.82486 0.85981 0.68035 0.0
H5494 H 0.807 0.85315 0.69581 0.0
H5495 H 0.82258 0.83783 0.69036 0.0
H5496 H 0.76426 0.81941 0.72947 0.0
H5497 H 0.8013 0.78274 0.71455 0.0
H5498 H 0.75363 0.83147 0.68301 0.0
H5499 H 0.77307 0.84925 0.69376 0.0
H5500 H 0.75532 0.84032 0.70852 0.0
H5501 H 0.79981 0.787 0.66526 0.0
H5502 H 0.81521 0.78284 0.68562 0.0
H5503 H 0.81893 0.80508 0.67614 0.0
C5504 C 0.69465 0.48032 0.48349 0.0
C5505 C 0.70516 0.47114 0.49582 0.0
C5506 C 0.6782 0.48534 0.48909 0.0
C5507 C 0.67251 0.48101 0.50733 0.0
C5508 C 0.68275 0.4709 0.51927 0.0
C5509 C 0.69896 0.46608 0.51331 0.0
C5510 C 0.66745 0.49594 0.47598 0.0
C5511 C 0.67716 0.46603 0.53884 0.0
C5512 C 0.64761 0.51081 0.53849 0.0
C5513 C 0.6303 0.49885 0.53791 0.0
C5514 C 0.66115 0.50574 0.52737 0.0
C5515 C 0.65703 0.48843 0.51521 0.0
C5516 C 0.63907 0.4769 0.51358 0.0
C5517 C 0.62592 0.48215 0.52523 0.0
C5518 C 0.68026 0.51826 0.52974 0.0
C5519 C 0.63412 0.45859 0.50036 0.0
H5520 H 0.69962 0.48408 0.46992 0.0
H5521 H 0.7072 0.45878 0.52261 0.0
H5522 H 0.65223 0.4902 0.47475 0.0
H5523 H 0.66978 0.51078 0.4824 0.0
H5524 H 0.67189 0.49547 0.46109 0.0
H5525 H 0.68624 0.45738 0.54584 0.0
H5526 H 0.67801 0.47904 0.54886 0.0
H5527 H 0.6625 0.45827 0.53711 0.0
H5528 H 0.6508 0.52381 0.54825 0.0
H5529 H 0.61228 0.47318 0.52455 0.0
H5530 H 0.68491 0.52049 0.51526 0.0
H5531 H 0.69054 0.51144 0.53767 0.0
H5532 H 0.68051 0.53209 0.53805 0.0
H5533 H 0.63908 0.4603 0.4859 0.0
H5534 H 0.61882 0.45299 0.49814 0.0
H5535 H 0.64116 0.44813 0.5069 0.0
C5536 C 0.15658 0.11252 0.50641 0.0
C5537 C 0.17317 0.10588 0.51017 0.0
C5538 C 0.13914 0.10153 0.50839 0.0
C5539 C 0.13817 0.08327 0.51385 0.0
C5540 C 0.15485 0.07632 0.51711 0.0
C5541 C 0.17214 0.08777 0.51545 0.0
C5542 C 0.12176 0.10964 0.50511 0.0
C5543 C 0.15445 0.0568 0.52246 0.0
C5544 C 0.0957 0.06169 0.53733 0.0
C5545 C 0.08398 0.05155 0.52111 0.0
C5546 C 0.11337 0.07211 0.53519 0.0
C5547 C 0.11975 0.07165 0.5165 0.0
C5548 C 0.10824 0.06053 0.50027 0.0
C5549 C 0.09031 0.05094 0.5027 0.0
C5550 C 0.12484 0.0842 0.55277 0.0
C5551 C 0.11471 0.05905 0.48026 0.0
H5552 H 0.15732 0.12657 0.50253 0.0
H5553 H 0.18491 0.08251 0.51822 0.0
H5554 H 0.11176 0.10077 0.49326 0.0
H5555 H 0.11471 0.10981 0.51855 0.0
H5556 H 0.12489 0.1241 0.50114 0.0
H5557 H 0.16849 0.0531 0.52342 0.0
H5558 H 0.14905 0.05554 0.53677 0.0
H5559 H 0.14481 0.04648 0.51145 0.0
H5560 H 0.09067 0.06218 0.55154 0.0
H5561 H 0.08115 0.04302 0.49019 0.0
H5562 H 0.1274 0.09904 0.54998 0.0
H5563 H 0.13867 0.08023 0.5554 0.0
H5564 H 0.11785 0.08305 0.56623 0.0
H5565 H 0.11596 0.07275 0.47453 0.0
H5566 H 0.10491 0.0484 0.46967 0.0
H5567 H 0.12874 0.05534 0.48117 0.0
C5568 C 0.19325 0.94901 0.7966 0.0
C5569 C 0.18972 0.95873 0.78059 0.0
C5570 C 0.20271 0.93395 0.79491 0.0
C5571 C 0.20867 0.92842 0.77676 0.0
C5572 C 0.20471 0.93792 0.76047 0.0
C5573 C 0.19533 0.9529 0.76259 0.0
C5574 C 0.20666 0.92422 0.81261 0.0
C5575 C 0.21061 0.93243 0.74077 0.0
C5576 C 0.24965 0.90457 0.77005 0.0
C5577 C 0.24054 0.88664 0.76162 0.0
C5578 C 0.23947 0.9179 0.77671 0.0
C5579 C 0.21968 0.91324 0.77461 0.0
C5580 C 0.21054 0.89464 0.7675 0.0
C5581 C 0.2211 0.88156 0.761 0.0
C5582 C 0.24984 0.93745 0.78436 0.0
C5583 C 0.18951 0.88899 0.76513 0.0
H5584 H 0.18904 0.95348 0.81058 0.0
H5585 H 0.19234 0.96008 0.75006 0.0
H5586 H 0.20126 0.90895 0.80917 0.0
H5587 H 0.22198 0.92626 0.81673 0.0
H5588 H 0.20028 0.92953 0.82537 0.0
H5589 H 0.20606 0.94092 0.72947 0.0
H5590 H 0.22605 0.93417 0.74201 0.0
H5591 H 0.20465 0.91747 0.73574 0.0
H5592 H 0.26467 0.90852 0.77027 0.0
H5593 H 0.21406 0.86775 0.7542 0.0
H5594 H 0.24429 0.9428 0.79766 0.0
H5595 H 0.24782 0.94692 0.77314 0.0
H5596 H 0.26508 0.93808 0.78789 0.0
H5597 H 0.18377 0.89456 0.77821 0.0
H5598 H 0.18478 0.87355 0.76267 0.0
H5599 H 0.18357 0.89496 0.75239 0.0
C5600 C 0.39396 1.00084 0.04865 0.0
C5601 C 0.38505 0.9957 0.02946 0.0
C5602 C 0.41302 0.00894 0.05215 0.0
C5603 C 0.42316 0.01173 0.03603 0.0
C5604 C 0.41392 0.00768 0.01669 0.0
C5605 C 0.39498 0.99966 0.01367 0.0
C5606 C 0.42245 0.0134 0.07293 0.0
C5607 C 0.42429 0.01046 0.99903 0.0
C5608 C 0.47065 0.03792 0.03144 0.0
C5609 C 0.47936 0.02283 0.027 0.0
C5610 C 0.45282 0.03489 0.03742 0.0
C5611 C 0.44369 0.01638 0.03866 0.0
C5612 C 0.45346 1.00151 0.03666 0.0
C5613 C 0.47119 1.00491 0.03058 0.0
C5614 C 0.44299 0.05115 0.04005 0.0
C5615 C 0.44433 0.98159 0.03828 0.0
H5616 H 0.38618 0.99798 0.06088 0.0
H5617 H 0.38822 0.99544 0.99882 0.0
H5618 H 0.42965 1.00196 0.07667 0.0
H5619 H 0.43315 0.0265 0.07477 0.0
H5620 H 0.4122 0.01479 0.08349 0.0
H5621 H 0.41472 0.00774 0.98512 0.0
H5622 H 0.43243 0.02495 1.00029 0.0
H5623 H 0.43429 1.00084 0.99818 0.0
H5624 H 0.47722 0.05192 0.02914 0.0
H5625 H 0.47807 0.99328 0.02737 0.0
H5626 H 0.43338 0.04931 0.0514 0.0
H5627 H 0.43456 0.05204 0.02606 0.0
H5628 H 0.45316 0.06457 0.04412 0.0
H5629 H 0.43583 0.98091 0.05064 0.0
H5630 H 0.45483 0.97258 0.04033 0.0
H5631 H 0.43486 0.97579 0.02465 0.0
C5632 C 0.8504 0.61981 0.80196 0.0
C5633 C 0.83633 0.60479 0.8045 0.0
C5634 C 0.84592 0.63577 0.79476 0.0
C5635 C 0.82693 0.63671 0.79013 0.0
C5636 C 0.81267 0.62235 0.79435 0.0
C5637 C 0.81757 0.60645 0.80145 0.0
C5638 C 0.8615 0.65082 0.79044 0.0
C5639 C 0.79226 0.62301 0.78988 0.0
C5640 C 0.81654 0.68274 0.7764 0.0
C5641 C 0.8155 0.67976 0.75597 0.0
C5642 C 0.81994 0.66872 0.78781 0.0
C5643 C 0.82216 0.65136 0.77846 0.0
C5644 C 0.82083 0.64823 0.75779 0.0
C5645 C 0.81766 0.66258 0.74678 0.0
C5646 C 0.82139 0.67253 0.8098 0.0
C5647 C 0.82284 0.62975 0.74731 0.0
H5648 H 0.86492 0.61849 0.80407 0.0
H5649 H 0.8067 0.59487 0.80358 0.0
H5650 H 0.86167 0.65024 0.77438 0.0
H5651 H 0.85923 0.66487 0.79587 0.0
H5652 H 0.87541 0.64914 0.79714 0.0
H5653 H 0.78322 0.61266 0.79723 0.0
H5654 H 0.78969 0.63715 0.79445 0.0
H5655 H 0.78808 0.61985 0.77386 0.0
H5656 H 0.81482 0.69611 0.78342 0.0
H5657 H 0.81653 0.66028 0.73095 0.0
H5658 H 0.83572 0.67208 0.81633 0.0
H5659 H 0.81164 0.66155 0.81559 0.0
H5660 H 0.81824 0.68639 0.81471 0.0
H5661 H 0.83698 0.62704 0.75162 0.0
H5662 H 0.82069 0.62937 0.73115 0.0
H5663 H 0.81256 0.6182 0.75159 0.0
C5664 C 0.86728 0.63408 0.02959 0.0
C5665 C 0.84969 0.62395 0.02108 0.0
C5666 C 0.8828 0.62546 0.03169 0.0
C5667 C 0.88076 0.60617 0.0252 0.0
C5668 C 0.86315 0.59592 0.0162 0.0
C5669 C 0.84783 0.60494 0.0142 0.0
C5670 C 0.90136 0.63697 0.04119 0.0
C5671 C 0.86036 0.57532 0.00918 0.0
C5672 C 0.92616 0.58898 0.01994 0.0
C5673 C 0.92986 0.58316 0.03833 0.0
C5674 C 0.90983 0.59588 0.01509 0.0
C5675 C 0.89688 0.59669 0.0289 0.0
C5676 C 0.90019 0.58985 0.04709 0.0
C5677 C 0.91676 0.58337 0.05166 0.0
C5678 C 0.90691 0.60317 0.99563 0.0
C5679 C 0.88663 0.59012 0.06209 0.0
H5680 H 0.86892 0.64884 0.03461 0.0
H5681 H 0.83427 0.59698 0.00771 0.0
H5682 H 0.90562 0.63159 0.05502 0.0
H5683 H 0.91233 0.63574 0.03148 0.0
H5684 H 0.90086 0.65199 0.04454 0.0
H5685 H 0.84614 0.56962 1.00139 0.0
H5686 H 0.87081 0.57274 0.99924 0.0
H5687 H 0.86255 0.56749 0.02185 0.0
H5688 H 0.93642 0.58889 0.00972 0.0
H5689 H 0.91969 0.5788 0.06586 0.0
H5690 H 0.90812 0.61856 0.998 0.0
H5691 H 0.89267 0.59711 0.98815 0.0
H5692 H 0.91729 0.59994 0.98584 0.0
H5693 H 0.88648 0.6048 0.06771 0.0
H5694 H 0.89034 0.58266 0.07466 0.0
H5695 H 0.87226 0.58358 0.05531 0.0
C5696 C 0.2024 0.14637 0.76845 0.0
C5697 C 0.20374 0.13809 0.78586 0.0
C5698 C 0.21371 0.16369 0.76664 0.0
C5699 C 0.22704 0.1729 0.78246 0.0
C5700 C 0.22885 0.16446 0.79989 0.0
C5701 C 0.21711 0.1473 0.80145 0.0
C5702 C 0.21108 0.17233 0.74791 0.0
C5703 C 0.24298 0.17373 0.81707 0.0
C5704 C 0.26533 0.21222 0.77152 0.0
C5705 C 0.25868 0.2282 0.77815 0.0
C5706 C 0.25546 0.19414 0.77324 0.0
C5707 C 0.2382 0.19192 0.78118 0.0
C5708 C 0.23132 0.20797 0.78764 0.0
C5709 C 0.2417 0.22579 0.7863 0.0
C5710 C 0.26349 0.17739 0.76659 0.0
C5711 C 0.21281 0.20635 0.79579 0.0
H5712 H 0.19251 0.13931 0.75611 0.0
H5713 H 0.21819 0.14129 0.81509 0.0
H5714 H 0.20688 0.18601 0.75104 0.0
H5715 H 0.22444 0.17503 0.74151 0.0
H5716 H 0.20028 0.16329 0.73686 0.0
H5717 H 0.2438 0.16463 0.8289 0.0
H5718 H 0.25704 0.17745 0.81226 0.0
H5719 H 0.23919 0.1869 0.82317 0.0
H5720 H 0.27828 0.21379 0.76504 0.0
H5721 H 0.23627 0.2379 0.79151 0.0
H5722 H 0.25406 0.16868 0.7542 0.0
H5723 H 0.26453 0.16856 0.77861 0.0
H5724 H 0.27756 0.18146 0.76189 0.0
H5725 H 0.20148 0.198 0.78485 0.0
H5726 H 0.20924 0.2202 0.79983 0.0
H5727 H 0.21315 0.19891 0.80896 0.0
C5728 C 0.32015 0.91629 0.2941 0.0
C5729 C 0.318 0.92569 0.27765 0.0
C5730 C 0.31315 0.89713 0.29311 0.0
C5731 C 0.30375 0.88721 0.27522 0.0
C5732 C 0.30105 0.8967 0.25868 0.0
C5733 C 0.30833 0.91591 0.26007 0.0
C5734 C 0.31641 0.8874 0.31102 0.0
C5735 C 0.29102 0.88645 0.23944 0.0
C5736 C 0.30629 0.83624 0.27167 0.0
C5737 C 0.2891 0.82847 0.27743 0.0
C5738 C 0.31069 0.85522 0.26945 0.0
C5739 C 0.29778 0.86673 0.27376 0.0
C5740 C 0.28013 0.85886 0.27896 0.0
C5741 C 0.27592 0.83971 0.28057 0.0
C5742 C 0.3296 0.86312 0.26365 0.0
C5743 C 0.26615 0.8708 0.28394 0.0
H5744 H 0.32793 0.92381 0.3076 0.0
H5745 H 0.30663 0.92327 0.24739 0.0
H5746 H 0.30299 0.87944 0.31449 0.0
H5747 H 0.32557 0.87723 0.30812 0.0
H5748 H 0.32308 0.89736 0.32406 0.0
H5749 H 0.28903 0.89609 0.22837 0.0
H5750 H 0.29913 0.87624 0.23359 0.0
H5751 H 0.27715 0.87842 0.24159 0.0
H5752 H 0.31666 0.8277 0.26969 0.0
H5753 H 0.26257 0.83371 0.28502 0.0
H5754 H 0.33852 0.87167 0.2765 0.0
H5755 H 0.32821 0.87239 0.25211 0.0
H5756 H 0.33684 0.85194 0.25821 0.0
H5757 H 0.27153 0.87996 0.29787 0.0
H5758 H 0.25236 0.86225 0.28564 0.0
H5759 H 0.26419 0.88002 0.27247 0.0
C5760 C 0.53547 0.39438 0.56893 0.0
C5761 C 0.55213 0.38738 0.56802 0.0
C5762 C 0.53355 0.41204 0.56301 0.0
C5763 C 0.54868 0.42367 0.55614 0.0
C5764 C 0.56553 0.41683 0.55523 0.0
C5765 C 0.567 0.39899 0.56096 0.0
C5766 C 0.51518 0.41833 0.56417 0.0
C5767 C 0.58217 0.42846 0.54813 0.0
C5768 C 0.5397 0.46306 0.52496 0.0
C5769 C 0.54348 0.47922 0.53872 0.0
C5770 C 0.54112 0.44512 0.53036 0.0
C5771 C 0.54693 0.4429 0.55008 0.0
C5772 C 0.55108 0.45922 0.56398 0.0
C5773 C 0.54922 0.47693 0.55822 0.0
C5774 C 0.53603 0.42841 0.5149 0.0
C5775 C 0.55761 0.45799 0.58508 0.0
H5776 H 0.52381 0.38619 0.57459 0.0
H5777 H 0.57991 0.3941 0.55964 0.0
H5778 H 0.5173 0.43142 0.57437 0.0
H5779 H 0.50969 0.42147 0.54961 0.0
H5780 H 0.5045 0.40763 0.56923 0.0
H5781 H 0.59443 0.42155 0.54854 0.0
H5782 H 0.57845 0.43117 0.53289 0.0
H5783 H 0.58622 0.44224 0.55726 0.0
H5784 H 0.53562 0.46439 0.5098 0.0
H5785 H 0.55212 0.48905 0.56918 0.0
H5786 H 0.52321 0.4191 0.51805 0.0
H5787 H 0.5473 0.4202 0.51509 0.0
H5788 H 0.53343 0.43248 0.49999 0.0
H5789 H 0.54751 0.44745 0.59105 0.0
H5790 H 0.55935 0.4716 0.59438 0.0
H5791 H 0.57119 0.45332 0.58609 0.0
C5792 C 0.41182 0.76777 0.35009 0.0
C5793 C 0.4116 0.76373 0.36952 0.0
C5794 C 0.39527 0.76873 0.33821 0.0
C5795 C 0.37787 0.76585 0.34585 0.0
C5796 C 0.37751 0.76166 0.36541 0.0
C5797 C 0.39425 0.76051 0.37689 0.0
C5798 C 0.39645 0.7729 0.31741 0.0
C5799 C 0.35943 0.75876 0.37438 0.0
C5800 C 0.33901 0.78689 0.32042 0.0
C5801 C 0.32752 0.77119 0.30924 0.0
C5802 C 0.35504 0.78528 0.33274 0.0
C5803 C 0.36019 0.76759 0.3335 0.0
C5804 C 0.34861 0.7517 0.32207 0.0
C5805 C 0.3323 0.75365 0.31037 0.0
C5806 C 0.36651 0.80256 0.34496 0.0
C5807 C 0.35364 0.73265 0.32187 0.0
H5808 H 0.42501 0.77006 0.34406 0.0
H5809 H 0.39382 0.75758 0.39189 0.0
H5810 H 0.3869 0.76177 0.30716 0.0
H5811 H 0.39186 0.78625 0.31544 0.0
H5812 H 0.41084 0.77398 0.31332 0.0
H5813 H 0.36138 0.75559 0.38971 0.0
H5814 H 0.3533 0.7715 0.37414 0.0
H5815 H 0.34915 0.7471 0.36565 0.0
H5816 H 0.33529 0.80047 0.31968 0.0
H5817 H 0.32352 0.74149 0.3017 0.0
H5818 H 0.38074 0.8055 0.34045 0.0
H5819 H 0.36806 0.80025 0.36059 0.0
H5820 H 0.36013 0.81505 0.34358 0.0
H5821 H 0.36755 0.73308 0.31673 0.0
H5822 H 0.34325 0.7217 0.31223 0.0
H5823 H 0.35467 0.72861 0.33689 0.0
C5824 C 0.06273 0.67626 0.07322 0.0
C5825 C 0.04888 0.68565 0.06583 0.0
C5826 C 0.06137 0.65669 0.06858 0.0
C5827 C 0.04572 0.64575 0.05619 0.0
C5828 C 0.03174 0.65508 0.04861 0.0
C5829 C 0.03347 0.67467 0.05343 0.0
C5830 C 0.07666 0.64764 0.07723 0.0
C5831 C 0.01477 0.64428 0.03537 0.0
C5832 C 0.04842 0.59704 0.03037 0.0
C5833 C 0.03901 0.5846 0.04199 0.0
C5834 C 0.05093 0.61674 0.03489 0.0
C5835 C 0.04379 0.6246 0.05148 0.0
C5836 C 0.03454 0.61209 0.06344 0.0
C5837 C 0.03233 0.59247 0.05862 0.0
C5838 C 0.06111 0.62919 0.02172 0.0
C5839 C 0.02673 0.61943 0.08133 0.0
H5840 H 0.0746 0.68414 0.08308 0.0
H5841 H 0.0227 0.68142 0.04723 0.0
H5842 H 0.07083 0.63727 0.08672 0.0
H5843 H 0.08244 0.63997 0.06542 0.0
H5844 H 0.08825 0.65799 0.08603 0.0
H5845 H 1.00519 0.65343 0.0304 0.0
H5846 H 0.01917 0.63699 0.02232 0.0
H5847 H 1.00696 0.63341 0.04312 0.0
H5848 H 0.0535 0.59138 0.01736 0.0
H5849 H 0.02544 0.58324 0.06807 0.0
H5850 H 0.07332 0.63884 0.03032 0.0
H5851 H 0.05175 0.63791 0.01539 0.0
H5852 H 0.06608 0.62108 0.00959 0.0
H5853 H 0.03751 0.63019 0.09069 0.0
H5854 H 0.0216 0.60818 0.0902 0.0
H5855 H 0.01495 0.62624 0.07678 0.0
C5856 C 0.10858 0.26798 0.88575 0.0
C5857 C 0.09238 0.27404 0.87863 0.0
C5858 C 0.12424 0.26928 0.8753 0.0
C5859 C 0.12372 0.27664 0.85713 0.0
C5860 C 0.10746 0.28293 0.84997 0.0
C5861 C 0.09209 0.28163 0.86079 0.0
C5862 C 0.14129 0.26258 0.88362 0.0
C5863 C 0.10613 0.29072 0.83062 0.0
C5864 C 0.16797 0.29344 0.83355 0.0
C5865 C 0.16731 0.27855 0.81893 0.0
C5866 C 0.15426 0.29282 0.84655 0.0
C5867 C 0.13964 0.27686 0.84502 0.0
C5868 C 0.13957 0.26144 0.83091 0.0
C5869 C 0.15327 0.26252 0.81803 0.0
C5870 C 0.15491 0.3096 0.8613 0.0
C5871 C 0.1245 0.24404 0.82882 0.0
H5872 H 0.10909 0.26234 0.89963 0.0
H5873 H 0.07963 0.28619 0.85503 0.0
H5874 H 0.14389 0.25085 0.87354 0.0
H5875 H 0.15379 0.27398 0.88498 0.0
H5876 H 0.13979 0.25781 0.8982 0.0
H5877 H 0.09279 0.29553 0.82733 0.0
H5878 H 0.1179 0.30265 0.83061 0.0
H5879 H 0.10727 0.27986 0.81867 0.0
H5880 H 0.17865 0.30595 0.83417 0.0
H5881 H 0.15272 0.25097 0.80676 0.0
H5882 H 0.1537 0.30525 0.87608 0.0
H5883 H 0.14286 0.31628 0.85744 0.0
H5884 H 0.16799 0.32017 0.86189 0.0
H5885 H 0.12332 0.23869 0.84316 0.0
H5886 H 0.12722 0.23275 0.8182 0.0
H5887 H 0.11082 0.24744 0.82379 0.0
C5888 C 0.5489 0.71882 0.93431 0.0
C5889 C 0.53547 0.72069 0.91903 0.0
C5890 C 0.54709 0.70264 0.94398 0.0
C5891 C 0.5314 0.68789 0.93839 0.0
C5892 C 0.51771 0.68975 0.92313 0.0
C5893 C 0.51993 0.70601 0.91365 0.0
C5894 C 0.56205 0.70128 0.9601 0.0
C5895 C 0.50075 0.67444 0.91665 0.0
C5896 C 0.53262 0.63761 0.94762 0.0
C5897 C 0.52261 0.63566 0.96374 0.0
C5898 C 0.53632 0.65474 0.93982 0.0
C5899 C 0.52945 0.67026 0.94802 0.0
C5900 C 0.51974 0.66846 0.96468 0.0
C5901 C 0.51654 0.65122 0.97241 0.0
C5902 C 0.54702 0.65602 0.92233 0.0
C5903 C 0.51196 0.6845 0.97377 0.0
H5904 H 0.56084 0.73009 0.93886 0.0
H5905 H 0.50958 0.70703 0.9017 0.0
H5906 H 0.55582 0.69924 0.97387 0.0
H5907 H 0.56831 0.68893 0.95628 0.0
H5908 H 0.57335 0.71395 0.9628 0.0
H5909 H 0.49106 0.67824 0.90503 0.0
H5910 H 0.50517 0.66145 0.911 0.0
H5911 H 0.49304 0.67127 0.92928 0.0
H5912 H 0.5372 0.62554 0.94083 0.0
H5913 H 0.50854 0.64964 0.98469 0.0
H5914 H 0.55869 0.66833 0.92504 0.0
H5915 H 0.53766 0.65795 0.9094 0.0
H5916 H 0.55281 0.64329 0.91876 0.0
H5917 H 0.52304 0.69728 0.97714 0.0
H5918 H 0.5059 0.68133 0.98742 0.0
H5919 H 0.50088 0.68766 0.96323 0.0
C5920 C 0.13421 0.74589 0.73434 0.0
C5921 C 0.12599 0.7618 0.73337 0.0
C5922 C 0.15372 0.74732 0.73943 0.0
C5923 C 0.16577 0.76512 0.7441 0.0
C5924 C 0.15762 0.78122 0.74347 0.0
C5925 C 0.13811 0.7794 0.73804 0.0
C5926 C 0.16149 0.72966 0.73956 0.0
C5927 C 0.16959 0.80054 0.74845 0.0
C5928 C 0.21453 0.76863 0.77328 0.0
C5929 C 0.22669 0.77149 0.75893 0.0
C5930 C 0.19488 0.76672 0.76877 0.0
C5931 C 0.18683 0.76691 0.74922 0.0
C5932 C 0.19908 0.76908 0.73458 0.0
C5933 C 0.21869 0.77168 0.73963 0.0
C5934 C 0.18277 0.765 0.7851 0.0
C5935 C 0.19145 0.76862 0.71344 0.0
H5936 H 0.12538 0.73212 0.73123 0.0
H5937 H 0.13245 0.79195 0.73714 0.0
H5938 H 0.17215 0.72973 0.72926 0.0
H5939 H 0.16858 0.72898 0.75432 0.0
H5940 H 0.15049 0.71687 0.73538 0.0
H5941 H 0.16118 0.81168 0.74842 0.0
H5942 H 0.17772 0.80177 0.76309 0.0
H5943 H 0.17978 0.80298 0.73773 0.0
H5944 H 0.22043 0.76851 0.78825 0.0
H5945 H 0.22782 0.77362 0.72831 0.0
H5946 H 0.17217 0.75183 0.78207 0.0
H5947 H 0.1751 0.7767 0.786 0.0
H5948 H 0.19102 0.76517 0.7995 0.0
H5949 H 0.18077 0.75568 0.7087 0.0
H5950 H 0.20254 0.76918 0.70359 0.0
H5951 H 0.18446 0.78064 0.71171 0.0
C5952 C 0.03405 0.40039 0.44101 0.0
C5953 C 0.0473 0.40054 0.42765 0.0
C5954 C 0.0328 0.41675 0.45305 0.0
C5955 C 0.04482 0.43398 0.4516 0.0
C5956 C 0.05823 0.43422 0.43813 0.0
C5957 C 0.05943 0.41755 0.42653 0.0
C5958 C 0.01857 0.41556 0.4674 0.0
C5959 C 0.07114 0.45221 0.43574 0.0
C5960 C 0.02859 0.47893 0.46989 0.0
C5961 C 0.03915 0.48423 0.4883 0.0
C5962 C 0.03059 0.46295 0.45767 0.0
C5963 C 0.04324 0.45166 0.46408 0.0
C5964 C 0.05397 0.45705 0.4827 0.0
C5965 C 0.05186 0.47325 0.49447 0.0
C5966 C 0.01892 0.45801 0.43797 0.0
C5967 C 0.06753 0.44555 0.49037 0.0
H5968 H 0.02473 0.38734 0.44221 0.0
H5969 H 0.0696 0.41793 0.41618 0.0
H5970 H 0.02562 0.42065 0.48243 0.0
H5971 H 0.00853 0.42471 0.46393 0.0
H5972 H 0.01063 0.40108 0.46724 0.0
H5973 H 0.08075 0.45017 0.42465 0.0
H5974 H 0.06281 0.46261 0.43127 0.0
H5975 H 0.07958 0.45823 0.4499 0.0
H5976 H 0.01839 0.48703 0.46523 0.0
H5977 H 0.06023 0.47738 0.50857 0.0
H5978 H 0.00918 0.44442 0.4376 0.0
H5979 H 0.02802 0.45636 0.42631 0.0
H5980 H 0.01063 0.46877 0.43458 0.0
H5981 H 0.06 0.43111 0.49116 0.0
H5982 H 0.07479 0.45155 0.50512 0.0
H5983 H 0.07816 0.44457 0.48021 0.0
C5984 C 0.40826 0.24582 0.22127 0.0
C5985 C 0.42499 0.25587 0.2323 0.0
C5986 C 0.39031 0.24713 0.22681 0.0
C5987 C 0.38854 0.25852 0.24414 0.0
C5988 C 0.40534 0.2685 0.2555 0.0
C5989 C 0.4231 0.26717 0.24946 0.0
C5990 C 0.37314 0.2364 0.21386 0.0
C5991 C 0.40454 0.28069 0.27417 0.0
C5992 C 0.34326 0.27779 0.2494 0.0
C5993 C 0.33341 0.26585 0.2612 0.0
C5994 C 0.36082 0.27546 0.24371 0.0
C5995 C 0.36928 0.26073 0.24986 0.0
C5996 C 0.35921 0.24831 0.26146 0.0
C5997 C 0.34149 0.2509 0.26681 0.0
C5998 C 0.37033 0.28892 0.23101 0.0
C5999 C 0.36729 0.23236 0.26852 0.0
H6000 H 0.40911 0.23719 0.20788 0.0
H6001 H 0.43562 0.2749 0.25844 0.0
H6002 H 0.36544 0.22567 0.22185 0.0
H6003 H 0.36359 0.24592 0.21 0.0
H6004 H 0.37661 0.2293 0.20017 0.0
H6005 H 0.41866 0.28683 0.28198 0.0
H6006 H 0.39731 0.29223 0.27089 0.0
H6007 H 0.39632 0.27241 0.28406 0.0
H6008 H 0.3371 0.28902 0.24434 0.0
H6009 H 0.33414 0.24141 0.27576 0.0
H6010 H 0.37389 0.28111 0.2178 0.0
H6011 H 0.3836 0.29711 0.23914 0.0
H6012 H 0.36149 0.29884 0.22633 0.0
H6013 H 0.36901 0.22261 0.25583 0.0
H6014 H 0.3583 0.22441 0.27806 0.0
H6015 H 0.38136 0.23777 0.27675 0.0
C6016 C 0.60322 0.54233 0.39991 0.0
C6017 C 0.59139 0.5359 0.38236 0.0
C6018 C 0.59655 0.54113 0.41821 0.0
C6019 C 0.57761 0.53299 0.41914 0.0
C6020 C 0.56564 0.52623 0.40148 0.0
C6021 C 0.57261 0.52794 0.38334 0.0
C6022 C 0.60971 0.5489 0.43658 0.0
C6023 C 0.54546 0.51716 0.40174 0.0
C6024 C 0.56497 0.51687 0.46793 0.0
C6025 C 0.55626 0.5311 0.47526 0.0
C6026 C 0.57162 0.51705 0.4495 0.0
C6027 C 0.5702 0.53222 0.43855 0.0
C6028 C 0.56178 0.54683 0.44625 0.0
C6029 C 0.55452 0.54583 0.46423 0.0
C6030 C 0.57976 0.50082 0.44153 0.0
C6031 C 0.56049 0.56359 0.43556 0.0
H6032 H 0.61768 0.54869 0.39932 0.0
H6033 H 0.56341 0.52274 0.3699 0.0
H6034 H 0.60423 0.55999 0.44494 0.0
H6035 H 0.61066 0.53775 0.44612 0.0
H6036 H 0.624 0.55488 0.4334 0.0
H6037 H 0.53828 0.51158 0.38685 0.0
H6038 H 0.54454 0.50555 0.41094 0.0
H6039 H 0.53784 0.52746 0.40833 0.0
H6040 H 0.56593 0.50526 0.47627 0.0
H6041 H 0.54771 0.5568 0.46989 0.0
H6042 H 0.59449 0.50577 0.43916 0.0
H6043 H 0.57195 0.49451 0.42713 0.0
H6044 H 0.57927 0.48981 0.45149 0.0
H6045 H 0.57459 0.5703 0.43254 0.0
H6046 H 0.55439 0.57417 0.44402 0.0
H6047 H 0.55173 0.55911 0.42127 0.0
C6048 C 0.30028 0.86074 0.08868 0.0
C6049 C 0.28808 0.87335 0.08965 0.0
C6050 C 0.3032 0.85008 0.10387 0.0
C6051 C 0.29309 0.85147 0.1201 0.0
C6052 C 0.27969 0.86307 0.12056 0.0
C6053 C 0.2775 0.87412 0.1054 0.0
C6054 C 0.31784 0.83805 0.10297 0.0
C6055 C 0.26825 0.86438 0.13741 0.0
C6056 C 0.29745 0.81313 0.15175 0.0
C6057 C 0.31205 0.82232 0.16592 0.0
C6058 C 0.29006 0.82285 0.13744 0.0
C6059 C 0.29792 0.84196 0.13716 0.0
C6060 C 0.31227 0.85138 0.15195 0.0
C6061 C 0.31904 0.84142 0.16633 0.0
C6062 C 0.27436 0.81257 0.12223 0.0
C6063 C 0.32124 0.87165 0.15192 0.0
H6064 H 0.30799 0.85955 0.07621 0.0
H6065 H 0.26801 0.88379 0.10625 0.0
H6066 H 0.32908 0.84299 0.11536 0.0
H6067 H 0.3116 0.82335 0.10439 0.0
H6068 H 0.32427 0.83835 0.08912 0.0
H6069 H 0.25658 0.87177 0.13416 0.0
H6070 H 0.26242 0.85023 0.141 0.0
H6071 H 0.27731 0.87209 0.1506 0.0
H6072 H 0.29194 0.79836 0.15183 0.0
H6073 H 0.33027 0.84838 0.17753 0.0
H6074 H 0.27977 0.81036 0.10796 0.0
H6075 H 0.26334 0.82096 0.12021 0.0
H6076 H 0.26797 0.79872 0.12623 0.0
H6077 H 0.32882 0.87316 0.1389 0.0
H6078 H 0.33129 0.87718 0.16523 0.0
H6079 H 0.31044 0.88039 0.15094 0.0
C6080 C 0.96404 0.53457 0.8888 0.0
C6081 C 0.9467 0.52224 0.88599 0.0
C6082 C 0.97632 0.53565 0.90587 0.0
C6083 C 0.97103 0.52414 0.92036 0.0
C6084 C 0.95359 0.51158 0.91758 0.0
C6085 C 0.94161 0.51075 0.90034 0.0
C6086 C 0.99485 0.54921 0.90847 0.0
C6087 C 0.9475 0.49928 0.93294 0.0
C6088 C 0.00829 0.51538 0.95812 0.0
C6089 C 1.0067 0.52815 0.974 0.0
C6090 C 0.99686 0.51405 0.9404 0.0
C6091 C 0.98351 0.52565 0.93875 0.0
C6092 C 0.98193 0.53864 0.9547 0.0
C6093 C 0.99367 0.53982 0.97212 0.0
C6094 C 0.99889 0.50013 0.92354 0.0
C6095 C 0.96773 0.55113 0.95346 0.0
H6096 H 0.96804 0.5433 0.87759 0.0
H6097 H 0.92808 0.5014 0.89825 0.0
H6098 H 0.99569 0.55955 0.92153 0.0
H6099 H 1.00646 0.54163 0.91102 0.0
H6100 H 0.99698 0.55687 0.89557 0.0
H6101 H 0.93359 0.49008 0.92835 0.0
H6102 H 0.95786 0.4904 0.93615 0.0
H6103 H 0.94685 0.50806 0.94678 0.0
H6104 H 0.01823 0.50622 0.95963 0.0
H6105 H 0.99249 0.54981 0.98435 0.0
H6106 H 1.00171 0.50737 0.91052 0.0
H6107 H 0.98564 0.48975 0.91952 0.0
H6108 H 0.01036 0.49256 0.92707 0.0
H6109 H 0.9701 0.55993 0.94148 0.0
H6110 H 0.96831 0.56042 0.9673 0.0
H6111 H 0.95344 0.54249 0.94997 0.0
C6112 C 0.26295 0.23994 0.62267 0.0
C6113 C 0.27425 0.22728 0.6171 0.0
C6114 C 0.26331 0.24706 0.64245 0.0
C6115 C 0.2751 0.2413 0.65718 0.0
C6116 C 0.28639 0.22836 0.65164 0.0
C6117 C 0.28592 0.22168 0.63177 0.0
C6118 C 0.25122 0.26097 0.64756 0.0
C6119 C 0.29942 0.2217 0.66641 0.0
C6120 C 0.2906 0.27167 0.70643 0.0
C6121 C 0.278 0.26321 0.71836 0.0
C6122 C 0.28953 0.26497 0.68648 0.0
C6123 C 0.27584 0.24906 0.67826 0.0
C6124 C 0.26324 0.2403 0.69038 0.0
C6125 C 0.26432 0.24761 0.7102 0.0
C6126 C 0.3033 0.27475 0.67427 0.0
C6127 C 0.24912 0.22273 0.68259 0.0
H6128 H 0.25401 0.24455 0.61151 0.0
H6129 H 0.29457 0.21175 0.6278 0.0
H6130 H 0.24157 0.25554 0.65793 0.0
H6131 H 0.26012 0.27422 0.65498 0.0
H6132 H 0.24282 0.26407 0.63447 0.0
H6133 H 0.30067 0.20708 0.66177 0.0
H6134 H 0.31353 0.23057 0.66721 0.0
H6135 H 0.29489 0.22242 0.68123 0.0
H6136 H 0.30133 0.2836 0.71277 0.0
H6137 H 0.25497 0.24066 0.71953 0.0
H6138 H 0.29581 0.27819 0.66079 0.0
H6139 H 0.31268 0.26529 0.66972 0.0
H6140 H 0.312 0.28783 0.68235 0.0
H6141 H 0.24009 0.2252 0.66967 0.0
H6142 H 0.24013 0.21773 0.69372 0.0
H6143 H 0.25653 0.21152 0.67769 0.0
C6144 C 0.56789 0.54372 0.17754 0.0
C6145 C 0.58303 0.53515 0.1825 0.0
C6146 C 0.56064 0.54358 0.15789 0.0
C6147 C 0.56881 0.53481 0.14272 0.0
C6148 C 0.58407 0.52611 0.14763 0.0
C6149 C 0.59092 0.52631 0.1674 0.0
C6150 C 0.54422 0.55283 0.15334 0.0
C6151 C 0.59334 0.51678 0.13195 0.0
C6152 C 0.54023 0.52039 0.09249 0.0
C6153 C 0.54716 0.53517 0.08213 0.0
C6154 C 0.54719 0.52005 0.11212 0.0
C6155 C 0.56145 0.53484 0.12174 0.0
C6156 C 0.56863 0.54969 0.11128 0.0
C6157 C 0.56148 0.5496 0.09163 0.0
C6158 C 0.53915 0.50391 0.12263 0.0
C6159 C 0.58386 0.56573 0.12085 0.0
H6160 H 0.56158 0.55044 0.18908 0.0
H6161 H 0.60278 0.51988 0.17104 0.0
H6162 H 0.5481 0.56414 0.14413 0.0
H6163 H 0.53244 0.54251 0.14486 0.0
H6164 H 0.53933 0.55889 0.16677 0.0
H6165 H 0.60497 0.51052 0.13815 0.0
H6166 H 0.58294 0.50563 0.12264 0.0
H6167 H 0.59894 0.52714 0.12232 0.0
H6168 H 0.52921 0.5091 0.0853 0.0
H6169 H 0.56724 0.56082 0.08366 0.0
H6170 H 0.53291 0.50916 0.13551 0.0
H6171 H 0.55042 0.49686 0.12815 0.0
H6172 H 0.52826 0.4934 0.11306 0.0
H6173 H 0.57888 0.5732 0.1334 0.0
H6174 H 0.5883 0.57591 0.11057 0.0
H6175 H 0.59621 0.56035 0.1267 0.0
C6176 C 0.26663 0.86113 0.90115 0.0
C6177 C 0.28411 0.86425 0.9125 0.0
C6178 C 0.26335 0.85005 0.88306 0.0
C6179 C 0.278 0.84222 0.87615 0.0
C6180 C 0.29573 0.84543 0.88743 0.0
C6181 C 0.29856 0.8564 0.90559 0.0
C6182 C 0.24427 0.84679 0.87134 0.0
C6183 C 0.31168 0.83733 0.88029 0.0
C6184 C 0.26946 0.80058 0.83763 0.0
C6185 C 0.27494 0.80906 0.82144 0.0
C6186 C 0.26951 0.81127 0.85551 0.0
C6187 C 0.27501 0.83092 0.85692 0.0
C6188 C 0.27883 0.8397 0.84012 0.0
C6189 C 0.27834 0.82861 0.82241 0.0
C6190 C 0.26458 0.80151 0.87302 0.0
C6191 C 0.28463 0.86068 0.84108 0.0
H6192 H 0.25555 0.86751 0.90632 0.0
H6193 H 0.31202 0.8587 0.91445 0.0
H6194 H 0.2454 0.85251 0.85718 0.0
H6195 H 0.23853 0.83158 0.86796 0.0
H6196 H 0.23422 0.85341 0.87918 0.0
H6197 H 0.32465 0.84136 0.89078 0.0
H6198 H 0.30771 0.82185 0.87787 0.0
H6199 H 0.31471 0.84215 0.86605 0.0
H6200 H 0.26502 0.78565 0.83628 0.0
H6201 H 0.28165 0.8353 0.8096 0.0
H6202 H 0.25492 0.80846 0.88107 0.0
H6203 H 0.27746 0.80233 0.88321 0.0
H6204 H 0.258 0.78654 0.86881 0.0
H6205 H 0.27463 0.86776 0.84843 0.0
H6206 H 0.28554 0.86531 0.82635 0.0
H6207 H 0.29852 0.86537 0.84988 0.0
C6208 C 0.94489 0.50378 0.70647 0.0
C6209 C 0.93807 0.52036 0.7095 0.0
C6210 C 0.95545 0.50071 0.69119 0.0
C6211 C 0.95986 0.51482 0.67897 0.0
C6212 C 0.9537 0.53191 0.68233 0.0
C6213 C 0.94269 0.53442 0.69747 0.0
C6214 C 0.96162 0.48219 0.68794 0.0
C6215 C 0.9585 0.54738 0.66976 0.0
C6216 C 0.99999 0.50761 0.65078 0.0
C6217 C 0.9904 0.49821 0.633 0.0
C6218 C 0.99026 0.51429 0.6655 0.0
C6219 C 0.97051 0.51119 0.66239 0.0
C6220 C 0.96084 0.50242 0.64413 0.0
C6221 C 0.97094 0.49609 0.6296 0.0
C6222 C 1.00105 0.52392 0.68466 0.0
C6223 C 0.93977 0.49871 0.64032 0.0
H6224 H 0.94191 0.49306 0.71603 0.0
H6225 H 0.93741 0.54724 0.69962 0.0
H6226 H 0.95608 0.47521 0.67298 0.0
H6227 H 0.97708 0.48448 0.6891 0.0
H6228 H 0.95678 0.47259 0.69863 0.0
H6229 H 0.95361 0.56024 0.67506 0.0
H6230 H 0.97384 0.5509 0.6695 0.0
H6231 H 0.95202 0.54264 0.65448 0.0
H6232 H 0.01509 0.50957 0.65323 0.0
H6233 H 0.96353 0.4888 0.61583 0.0
H6234 H 0.99865 0.51464 0.69624 0.0
H6235 H 0.9961 0.53692 0.68921 0.0
H6236 H 0.01631 0.52748 0.68379 0.0
H6237 H 0.93384 0.48793 0.64936 0.0
H6238 H 0.93456 0.4937 0.62471 0.0
H6239 H 0.93443 0.51154 0.64459 0.0
C6240 C 0.27768 0.20853 0.40045 0.0
C6241 C 0.27629 0.22037 0.41729 0.0
C6242 C 0.27914 0.2153 0.38219 0.0
C6243 C 0.27951 0.23449 0.38061 0.0
C6244 C 0.2783 0.24656 0.39758 0.0
C6245 C 0.27655 0.23935 0.4156 0.0
C6246 C 0.28001 0.20181 0.36449 0.0
C6247 C 0.27902 0.26717 0.39674 0.0
C6248 C 0.29976 0.25361 0.3361 0.0
C6249 C 0.28367 0.25549 0.32439 0.0
C6250 C 0.29869 0.24744 0.35468 0.0
C6251 C 0.28097 0.24184 0.36118 0.0
C6252 C 0.26464 0.24317 0.34899 0.0
C6253 C 0.26625 0.25059 0.33109 0.0
C6254 C 0.31653 0.24725 0.36748 0.0
C6255 C 0.24542 0.2366 0.35473 0.0
H6256 H 0.27725 0.19381 0.40145 0.0
H6257 H 0.27571 0.2487 0.4285 0.0
H6258 H 0.26845 0.20213 0.35297 0.0
H6259 H 0.2933 0.20607 0.3583 0.0
H6260 H 0.27904 0.18723 0.36799 0.0
H6261 H 0.27876 0.27486 0.41134 0.0
H6262 H 0.29189 0.27342 0.39074 0.0
H6263 H 0.26695 0.26922 0.38677 0.0
H6264 H 0.31325 0.2575 0.33096 0.0
H6265 H 0.25381 0.25226 0.32212 0.0
H6266 H 0.31732 0.2327 0.36999 0.0
H6267 H 0.31669 0.25528 0.38199 0.0
H6268 H 0.32915 0.25335 0.36094 0.0
H6269 H 0.24388 0.22195 0.35811 0.0
H6270 H 0.23415 0.2373 0.343 0.0
H6271 H 0.24351 0.24529 0.36814 0.0
C6272 C 0.37154 0.5858 0.56281 0.0
C6273 C 0.3546 0.57809 0.55113 0.0
C6274 C 0.3879 0.57958 0.55903 0.0
C6275 C 0.38715 0.56601 0.54283 0.0
C6276 C 0.36972 0.55656 0.53271 0.0
C6277 C 0.35354 0.56243 0.53741 0.0
C6278 C 0.40614 0.58876 0.57115 0.0
C6279 C 0.36829 0.54185 0.5154 0.0
C6280 C 0.42416 0.57205 0.5089 0.0
C6281 C 0.43121 0.55567 0.5103 0.0
C6282 C 0.4104 0.57615 0.52029 0.0
C6283 C 0.40427 0.56405 0.53407 0.0
C6284 C 0.41262 0.54857 0.53696 0.0
C6285 C 0.42549 0.54419 0.5246 0.0
C6286 C 0.40154 0.59272 0.51659 0.0
C6287 C 0.4072 0.53588 0.5522 0.0
H6288 H 0.37238 0.59767 0.57377 0.0
H6289 H 0.34023 0.55594 0.52901 0.0
H6290 H 0.41544 0.57855 0.57302 0.0
H6291 H 0.41344 0.60013 0.56366 0.0
H6292 H 0.40383 0.59495 0.5858 0.0
H6293 H 0.35357 0.53535 0.50974 0.0
H6294 H 0.37506 0.54827 0.5034 0.0
H6295 H 0.37569 0.53066 0.51944 0.0
H6296 H 0.42887 0.58134 0.49842 0.0
H6297 H 0.43037 0.53125 0.52577 0.0
H6298 H 0.40264 0.6022 0.53034 0.0
H6299 H 0.38645 0.58782 0.51133 0.0
H6300 H 0.40814 0.60085 0.50554 0.0
H6301 H 0.40244 0.54341 0.56486 0.0
H6302 H 0.41913 0.52961 0.5576 0.0
H6303 H 0.39567 0.52424 0.5456 0.0
C6304 C 0.90029 0.94944 0.52209 0.0
C6305 C 0.88763 0.95432 0.5347 0.0
C6306 C 0.91734 0.96153 0.52105 0.0
C6307 C 0.92211 0.97892 0.53309 0.0
C6308 C 0.90936 0.98408 0.54567 0.0
C6309 C 0.89228 0.97179 0.54627 0.0
C6310 C 0.93053 0.95543 0.50745 0.0
C6311 C 0.91394 1.00243 0.55883 0.0
C6312 C 0.97421 0.99781 0.54584 0.0
C6313 C 0.97785 0.01083 0.53247 0.0
C6314 C 0.9561 0.98781 0.54654 0.0
C6315 C 0.94107 0.99089 0.53362 0.0
C6316 C 0.94448 1.00458 0.52062 0.0
C6317 C 0.96286 0.01439 0.52016 0.0
C6318 C 0.95319 0.97339 0.56065 0.0
C6319 C 0.92883 0.00833 0.50666 0.0
H6320 H 0.89711 0.93592 0.5133 0.0
H6321 H 0.88255 0.97592 0.55582 0.0
H6322 H 0.9347 0.96638 0.49791 0.0
H6323 H 0.94346 0.95351 0.51611 0.0
H6324 H 0.92424 0.94212 0.49806 0.0
H6325 H 0.90215 1.00489 0.56696 0.0
H6326 H 0.92629 1.00262 0.56957 0.0
H6327 H 0.91765 0.01418 0.55012 0.0
H6328 H 0.98567 0.99506 0.55554 0.0
H6329 H 0.96557 0.02429 0.50968 0.0
H6330 H 0.94845 0.95925 0.55238 0.0
H6331 H 0.94212 0.97597 0.56977 0.0
H6332 H 0.96615 0.97341 0.57046 0.0
H6333 H 0.92347 0.99583 0.49577 0.0
H6334 H 0.93343 0.02049 0.49873 0.0
H6335 H 0.91704 0.01098 0.51465 0.0
C6336 C 0.85705 0.09316 0.28005 0.0
C6337 C 0.87348 0.09589 0.27106 0.0
C6338 C 0.84682 0.10743 0.28264 0.0
C6339 C 0.85326 0.12502 0.27631 0.0
C6340 C 0.8697 0.1278 0.26695 0.0
C6341 C 0.87955 0.11315 0.26432 0.0
C6342 C 0.82922 0.10376 0.29241 0.0
C6343 C 0.87717 0.14639 0.26023 0.0
C6344 C 0.81771 0.15669 0.27146 0.0
C6345 C 0.82118 0.1673 0.28988 0.0
C6346 C 0.82841 0.14321 0.26655 0.0
C6347 C 0.8431 0.1406 0.2803 0.0
C6348 C 0.84715 0.15199 0.29859 0.0
C6349 C 0.83598 0.16504 0.30325 0.0
C6350 C 0.82346 0.13123 0.24703 0.0
C6351 C 0.86294 0.15 0.31349 0.0
H6352 H 0.85215 0.07977 0.28504 0.0
H6353 H 0.89231 0.11539 0.2575 0.0
H6354 H 0.83102 0.1131 0.30639 0.0
H6355 H 0.81733 0.10692 0.28299 0.0
H6356 H 0.82557 0.08905 0.29554 0.0
H6357 H 0.88955 0.146 0.2523 0.0
H6358 H 0.8662 0.1507 0.25051 0.0
H6359 H 0.8812 0.15728 0.27306 0.0
H6360 H 0.80619 0.15846 0.26119 0.0
H6361 H 0.83866 0.17337 0.31746 0.0
H6362 H 0.81817 0.11652 0.24933 0.0
H6363 H 0.83605 0.1314 0.23936 0.0
H6364 H 0.81261 0.13592 0.23743 0.0
H6365 H 0.85967 0.13621 0.31897 0.0
H6366 H 0.8654 0.1611 0.32615 0.0
H6367 H 0.87604 0.15056 0.30665 0.0
C6368 C 0.67302 0.05357 0.02959 0.0
C6369 C 0.67881 0.073 0.03112 0.0
C6370 C 0.65403 0.04556 0.02858 0.0
C6371 C 0.64087 0.05738 0.02949 0.0
C6372 C 0.64678 0.07703 0.03147 0.0
C6373 C 0.66574 0.08461 0.03212 0.0
C6374 C 0.64802 0.02454 0.02627 0.0
C6375 C 0.6331 0.09004 0.03295 0.0
C6376 C 0.59025 0.04252 0.00898 0.0
C6377 C 0.58198 0.04001 0.02606 0.0
C6378 C 0.60967 0.04698 0.00972 0.0
C6379 C 0.62078 0.04944 0.02808 0.0
C6380 C 0.6124 0.04646 0.04531 0.0
C6381 C 0.59296 0.04163 0.04404 0.0
C6382 C 0.61826 0.04974 0.99104 0.0
C6383 C 0.62382 0.04939 0.06517 0.0
H6384 H 0.68331 0.04473 0.02887 0.0
H6385 H 0.67044 0.09966 0.03366 0.0
H6386 H 0.6399 0.02017 0.03826 0.0
H6387 H 0.63869 0.01975 0.01234 0.0
H6388 H 0.66009 0.01737 0.02626 0.0
H6389 H 0.64007 0.105 0.03441 0.0
H6390 H 0.62259 0.08707 0.01979 0.0
H6391 H 0.62544 0.08768 0.04579 0.0
H6392 H 0.5815 0.0411 0.9951 0.0
H6393 H 0.58634 0.04003 0.05718 0.0
H6394 H 0.62916 0.04119 0.98965 0.0
H6395 H 0.6252 0.06459 0.99143 0.0
H6396 H 0.60772 0.0459 0.97789 0.0
H6397 H 0.63527 0.04142 0.06501 0.0
H6398 H 0.6152 0.04505 0.07685 0.0
H6399 H 0.63037 0.0644 0.06891 0.0
C6400 C 0.22233 0.44224 0.23586 0.0
C6401 C 0.22924 0.45922 0.24771 0.0
C6402 C 0.22877 0.42608 0.24011 0.0
C6403 C 0.24199 0.42716 0.25674 0.0
C6404 C 0.2505 0.44471 0.26727 0.0
C6405 C 0.24415 0.46062 0.26241 0.0
C6406 C 0.22029 0.4077 0.22789 0.0
C6407 C 0.2648 0.44648 0.28501 0.0
C6408 C 0.23773 0.38878 0.28929 0.0
C6409 C 0.25436 0.38235 0.28731 0.0
C6410 C 0.23307 0.40288 0.27867 0.0
C6411 C 0.2449 0.41007 0.2651 0.0
C6412 C 0.26086 0.40263 0.26184 0.0
C6413 C 0.26575 0.38937 0.27344 0.0
C6414 C 0.21606 0.41081 0.28278 0.0
C6415 C 0.27339 0.40936 0.24691 0.0
H6416 H 0.21094 0.44127 0.22431 0.0
H6417 H 0.24976 0.47397 0.27118 0.0
H6418 H 0.231 0.39901 0.22586 0.0
H6419 H 0.20932 0.3998 0.23545 0.0
H6420 H 0.21376 0.4098 0.2133 0.0
H6421 H 0.27094 0.4613 0.29066 0.0
H6422 H 0.2581 0.43968 0.29683 0.0
H6423 H 0.27628 0.43928 0.28151 0.0
H6424 H 0.22855 0.38317 0.29948 0.0
H6425 H 0.27893 0.38507 0.27195 0.0
H6426 H 0.20664 0.41009 0.26905 0.0
H6427 H 0.22044 0.42577 0.28884 0.0
H6428 H 0.20805 0.40329 0.29337 0.0
H6429 H 0.26524 0.41291 0.23391 0.0
H6430 H 0.28139 0.39864 0.24202 0.0
H6431 H 0.28359 0.42212 0.25351 0.0
C6432 C 0.19759 0.43255 0.03564 0.0
C6433 C 0.21528 0.43928 0.03021 0.0
C6434 C 0.18307 0.44256 0.03311 0.0
C6435 C 0.18645 0.45985 0.02531 0.0
C6436 C 0.20452 0.467 0.02052 0.0
C6437 C 0.21863 0.45655 0.02285 0.0
C6438 C 0.16395 0.4343 0.03811 0.0
C6439 C 0.20886 0.48553 0.01254 0.0
C6440 C 0.14812 0.47863 0.9973 0.0
C6441 C 0.14476 0.49245 0.01121 0.0
C6442 C 0.16092 0.46724 0.00205 0.0
C6443 C 0.17099 0.47009 0.02103 0.0
C6444 C 0.16726 0.48376 0.03529 0.0
C6445 C 0.15402 0.49467 0.03024 0.0
C6446 C 0.1641 0.45254 0.98656 0.0
C6447 C 0.17785 0.48745 0.05558 0.0
H6448 H 0.19495 0.41914 0.04124 0.0
H6449 H 0.23237 0.46188 0.01886 0.0
H6450 H 0.15882 0.44462 0.04794 0.0
H6451 H 0.15391 0.43084 0.02456 0.0
H6452 H 0.16392 0.42141 0.04528 0.0
H6453 H 0.22391 0.48974 0.01087 0.0
H6454 H 0.2006 0.48468 0.99804 0.0
H6455 H 0.20482 0.49663 0.02235 0.0
H6456 H 0.14082 0.47688 0.98262 0.0
H6457 H 0.15141 0.50543 0.04095 0.0
H6458 H 0.16309 0.43886 0.99235 0.0
H6459 H 0.17838 0.45644 0.98236 0.0
H6460 H 0.15388 0.45083 0.97322 0.0
H6461 H 0.17727 0.47422 0.0622 0.0
H6462 H 0.17228 0.49745 0.0654 0.0
H6463 H 0.19278 0.49329 0.05472 0.0
C6464 C 0.84422 0.91627 0.25416 0.0
C6465 C 0.86216 0.92089 0.26476 0.0
C6466 C 0.83219 0.89913 0.25518 0.0
C6467 C 0.8381 0.88629 0.26722 0.0
C6468 C 0.85605 0.89093 0.27814 0.0
C6469 C 0.86787 0.90805 0.27668 0.0
C6470 C 0.81322 0.89465 0.24318 0.0
C6471 C 0.86294 0.87765 0.29115 0.0
C6472 C 0.80309 0.84665 0.28269 0.0
C6473 C 0.80528 0.83132 0.26993 0.0
C6474 C 0.81331 0.86474 0.28169 0.0
C6475 C 0.82602 0.86754 0.26762 0.0
C6476 C 0.82789 0.85217 0.25441 0.0
C6477 C 0.81752 0.83432 0.25572 0.0
C6478 C 0.81093 0.88075 0.29607 0.0
C6479 C 0.84122 0.85446 0.23916 0.0
H6480 H 0.83947 0.92612 0.24513 0.0
H6481 H 0.88177 0.91119 0.28467 0.0
H6482 H 0.81218 0.88201 0.23256 0.0
H6483 H 0.80212 0.89146 0.25279 0.0
H6484 H 0.81045 0.90633 0.23499 0.0
H6485 H 0.87685 0.88373 0.29948 0.0
H6486 H 0.85286 0.8738 0.30168 0.0
H6487 H 0.86396 0.86455 0.28218 0.0
H6488 H 0.79381 0.84445 0.29383 0.0
H6489 H 0.81926 0.8226 0.24569 0.0
H6490 H 0.80764 0.89242 0.2882 0.0
H6491 H 0.82421 0.88616 0.30578 0.0
H6492 H 0.79967 0.87653 0.30527 0.0
H6493 H 0.83818 0.86541 0.23006 0.0
H6494 H 0.84041 0.84128 0.2294 0.0
H6495 H 0.85576 0.8591 0.24642 0.0
C6496 C 0.73362 0.14812 0.79457 0.0
C6497 C 0.74207 0.13613 0.78291 0.0
C6498 C 0.73953 0.16753 0.79599 0.0
C6499 C 0.75395 0.17492 0.78524 0.0
C6500 C 0.76344 0.16288 0.77465 0.0
C6501 C 0.75746 0.14357 0.77377 0.0
C6502 C 0.72944 0.18006 0.80777 0.0
C6503 C 0.77895 0.17035 0.76302 0.0
C6504 C 0.75434 0.21909 0.76199 0.0
C6505 C 0.7697 0.23084 0.77313 0.0
C6506 C 0.74808 0.20112 0.76677 0.0
C6507 C 0.75769 0.19497 0.78289 0.0
C6508 C 0.77256 0.20731 0.79485 0.0
C6509 C 0.77861 0.22515 0.7896 0.0
C6510 C 0.73213 0.1883 0.75369 0.0
C6511 C 0.78291 0.2013 0.8123 0.0
H6512 H 0.72163 0.14243 0.8016 0.0
H6513 H 0.76425 0.13428 0.76511 0.0
H6514 H 0.73946 0.19208 0.81625 0.0
H6515 H 0.71982 0.18581 0.79771 0.0
H6516 H 0.7211 0.17238 0.81801 0.0
H6517 H 0.7858 0.15916 0.75684 0.0
H6518 H 0.77319 0.17708 0.75076 0.0
H6519 H 0.78971 0.18115 0.77232 0.0
H6520 H 0.74774 0.22371 0.74913 0.0
H6521 H 0.79077 0.23432 0.79789 0.0
H6522 H 0.72173 0.18138 0.76255 0.0
H6523 H 0.73755 0.17717 0.74533 0.0
H6524 H 0.72495 0.19589 0.74313 0.0
H6525 H 0.77303 0.19319 0.82089 0.0
H6526 H 0.79152 0.21346 0.82206 0.0
H6527 H 0.79231 0.19209 0.8072 0.0
loop_
_geom_bond_atom_site_label_1
_geom_bond_atom_site_label_2
_geom_bond_distance
_geom_bond_site_symmetry_2
_ccdc_geom_bond_type
Li0 N17 1.990 1_455 S
Li0 O60 1.956 . S
Li0 O61 1.970 . S
Li0 O62 1.961 . S
Li1 N25 1.990 . S
Li1 O60 1.970 . S
Li1 O61 1.956 . S
Li1 O63 1.961 . S
Li2 N47 1.990 . S
Li2 O60 1.961 . S
Li2 O62 1.956 . S
Li2 O63 1.970 . S
Li3 N53 1.990 . S
Li3 O61 1.961 . S
Li3 O62 1.970 . S
Li3 O63 1.956 . S
C4 C6 1.348 . S
C4 C7 1.356 . S
C4 O60 1.325 . S
N5 C8 1.314 . S
N5 C9 1.279 . S
C6 C4 1.348 . S
C6 C8 1.353 . S
C6 H64 0.929 . S
C7 C4 1.356 . S
C7 C9 1.358 . S
C7 H65 0.930 . S
C8 N5 1.314 . S
C8 C6 1.353 . S
C8 H66 0.930 . S
C9 N5 1.279 . S
C9 C7 1.358 . S
C9 H67 0.930 . S
C10 C13 1.348 1_455 S
C10 C14 1.356 . S
C10 O61 1.325 . S
C11 N12 1.279 . S
C11 C14 1.358 1_655 S
C11 H68 0.930 . S
N12 C11 1.279 . S
N12 C15 1.314 . S
C13 C10 1.348 1_655 S
C13 C15 1.353 . S
C13 H69 0.929 . S
C14 C10 1.356 . S
C14 C11 1.358 1_455 S
C14 H70 0.930 . S
C15 N12 1.314 . S
C15 C13 1.353 . S
C15 H71 0.930 . S
C16 N17 1.314 . S
C16 C21 1.353 . S
C16 H22 0.930 . S
N17 Li0 1.990 1_655 S
N17 C16 1.314 . S
N17 C19 1.279 . S
C18 C19 1.358 . S
C18 C20 1.356 . S
C18 H72 0.930 . S
C19 N17 1.279 . S
C19 C18 1.358 . S
C19 H23 0.930 . S
C20 C18 1.356 . S
C20 C21 1.348 . S
C21 C16 1.353 . S
C21 C20 1.348 . S
C21 H73 0.929 . S
H22 C16 0.930 . S
H23 C19 0.930 . S
C24 N25 1.314 . S
C24 C26 1.353 . S
C24 H30 0.930 . S
N25 Li1 1.990 . S
N25 C24 1.314 . S
N25 C28 1.279 . S
C26 C24 1.353 . S
C26 C29 1.348 . S
C26 H74 0.929 . S
C27 C28 1.358 . S
C27 C29 1.356 . S
C27 H75 0.930 . S
C28 N25 1.279 . S
C28 C27 1.358 . S
C28 H31 0.930 . S
C29 C26 1.348 . S
C29 C27 1.356 . S
H30 C24 0.930 . S
H31 C28 0.930 . S
C32 C34 1.348 . S
C32 C35 1.356 . S
C32 O62 1.325 . S
N33 C36 1.314 . S
N33 C37 1.279 . S
C34 C32 1.348 . S
C34 C36 1.353 . S
C34 H76 0.929 . S
C35 C32 1.356 . S
C35 C37 1.358 . S
C35 H77 0.930 . S
C36 N33 1.314 . S
C36 C34 1.353 . S
C36 H78 0.930 . S
C37 N33 1.279 . S
C37 C35 1.358 . S
C37 H79 0.930 . S
C38 C39 1.348 . S
C38 C40 1.356 . S
C38 O63 1.325 . S
C39 C38 1.348 . S
C39 C41 1.353 . S
C39 H80 0.929 . S
C40 C38 1.356 . S
C40 C42 1.358 . S
C40 H81 0.930 . S
C41 C39 1.353 . S
C41 N43 1.314 . S
C41 H82 0.930 . S
C42 C40 1.358 . S
C42 N43 1.279 . S
C42 H83 0.930 . S
N43 C41 1.314 . S
N43 C42 1.279 . S
C44 C46 1.353 . S
C44 N47 1.314 . S
C44 H50 0.930 . S
C45 N47 1.279 . S
C45 C48 1.358 . S
C45 H51 0.930 . S
C46 C44 1.353 . S
C46 C49 1.348 . S
C46 H84 0.929 . S
N47 Li2 1.990 . S
N47 C44 1.314 . S
N47 C45 1.279 . S
C48 C45 1.358 . S
C48 C49 1.356 . S
C48 H85 0.930 . S
C49 C46 1.348 . S
C49 C48 1.356 . S
H50 C44 0.930 . S
H51 C45 0.930 . S
C52 N53 1.314 . S
C52 C54 1.353 . S
C52 H58 0.930 . S
N53 Li3 1.990 . S
N53 C52 1.314 . S
N53 C56 1.279 . S
C54 C52 1.353 . S
C54 C57 1.348 . S
C54 H86 0.929 . S
C55 C56 1.358 . S
C55 C57 1.356 . S
C55 H87 0.930 . S
C56 N53 1.279 . S
C56 C55 1.358 . S
C56 H59 0.930 . S
C57 C54 1.348 . S
C57 C55 1.356 . S
H58 C52 0.930 . S
H59 C56 0.930 . S
O60 Li0 1.956 . S
O60 Li1 1.970 . S
O60 Li2 1.961 . S
O60 C4 1.325 . S
O61 Li0 1.970 . S
O61 Li1 1.956 . S
O61 Li3 1.961 . S
O61 C10 1.325 . S
O62 Li0 1.961 . S
O62 Li2 1.956 . S
O62 Li3 1.970 . S
O62 C32 1.325 . S
O63 Li1 1.961 . S
O63 Li2 1.970 . S
O63 Li3 1.956 . S
O63 C38 1.325 . S
H64 C6 0.929 . S
H65 C7 0.930 . S
H66 C8 0.930 . S
H67 C9 0.930 . S
H68 C11 0.930 . S
H69 C13 0.929 . S
H70 C14 0.930 . S
H71 C15 0.930 . S
H72 C18 0.930 . S
H73 C21 0.929 . S
H74 C26 0.929 . S
H75 C27 0.930 . S
H76 C34 0.929 . S
H77 C35 0.930 . S
H78 C36 0.930 . S
H79 C37 0.930 . S
H80 C39 0.929 . S
H81 C40 0.930 . S
H82 C41 0.930 . S
H83 C42 0.930 . S
H84 C46 0.929 . S
H85 C48 0.930 . S
H86 C54 0.929 . S
H87 C55 0.930 . S
Li88 N105 1.990 . S
Li88 O148 1.956 . S
Li88 O149 1.970 . S
Li88 O150 1.961 1_455 S
Li89 N113 1.990 . S
Li89 O148 1.970 . S
Li89 O149 1.956 . S
Li89 O151 1.961 . S
Li90 N135 1.990 . S
Li90 O148 1.961 . S
Li90 O150 1.956 1_455 S
Li90 O151 1.970 . S
Li91 N141 1.990 . S
Li91 O149 1.961 1_655 S
Li91 O150 1.970 . S
Li91 O151 1.956 1_655 S
C92 C94 1.348 . S
C92 C95 1.356 . S
C92 O148 1.325 . S
N93 C96 1.314 . S
N93 C97 1.279 . S
C94 C92 1.348 . S
C94 C96 1.353 . S
C94 H152 0.929 . S
C95 C92 1.356 . S
C95 C97 1.358 . S
C95 H153 0.930 . S
C96 N93 1.314 . S
C96 C94 1.353 . S
C96 H154 0.930 . S
C97 N93 1.279 . S
C97 C95 1.358 . S
C97 H155 0.930 . S
C98 C101 1.348 . S
C98 C102 1.356 . S
C98 O149 1.325 . S
C99 N100 1.279 . S
C99 C102 1.358 . S
C99 H156 0.930 . S
N100 C99 1.279 . S
N100 C103 1.314 . S
C101 C98 1.348 . S
C101 C103 1.353 . S
C101 H157 0.929 . S
C102 C98 1.356 . S
C102 C99 1.358 . S
C102 H158 0.930 . S
C103 N100 1.314 . S
C103 C101 1.353 . S
C103 H159 0.930 . S
C104 N105 1.314 . S
C104 C109 1.353 . S
C104 H110 0.930 1_455 S
N105 Li88 1.990 . S
N105 C104 1.314 . S
N105 C107 1.279 . S
C106 C107 1.358 . S
C106 C108 1.356 . S
C106 H160 0.930 . S
C107 N105 1.279 . S
C107 C106 1.358 . S
C107 H111 0.930 . S
C108 C106 1.356 . S
C108 C109 1.348 . S
C109 C104 1.353 . S
C109 C108 1.348 . S
C109 H161 0.929 1_455 S
H110 C104 0.930 1_655 S
H111 C107 0.930 . S
C112 N113 1.314 . S
C112 C114 1.353 . S
C112 H118 0.930 . S
N113 Li89 1.990 . S
N113 C112 1.314 . S
N113 C116 1.279 . S
C114 C112 1.353 . S
C114 C117 1.348 . S
C114 H162 0.929 . S
C115 C116 1.358 . S
C115 C117 1.356 . S
C115 H163 0.930 . S
C116 N113 1.279 . S
C116 C115 1.358 . S
C116 H119 0.930 . S
C117 C114 1.348 . S
C117 C115 1.356 . S
H118 C112 0.930 . S
H119 C116 0.930 . S
C120 C122 1.348 . S
C120 C123 1.356 . S
C120 O150 1.325 . S
N121 C124 1.314 . S
N121 C125 1.279 . S
C122 C120 1.348 . S
C122 C124 1.353 . S
C122 H164 0.929 . S
C123 C120 1.356 . S
C123 C125 1.358 . S
C123 H165 0.930 . S
C124 N121 1.314 . S
C124 C122 1.353 . S
C124 H166 0.930 . S
C125 N121 1.279 . S
C125 C123 1.358 . S
C125 H167 0.930 . S
C126 C127 1.348 . S
C126 C128 1.356 . S
C126 O151 1.325 . S
C127 C126 1.348 . S
C127 C129 1.353 . S
C127 H168 0.939 . S
C128 C126 1.356 . S
C128 C130 1.358 . S
C128 H169 0.930 . S
C129 C127 1.353 . S
C129 N131 1.314 . S
C129 H170 0.931 . S
C130 C128 1.358 . S
C130 N131 1.279 . S
C130 H171 0.930 . S
N131 C129 1.314 . S
N131 C130 1.279 . S
C132 C134 1.353 . S
C132 N135 1.314 . S
C132 H138 0.930 . S
C133 N135 1.279 1_655 S
C133 C136 1.358 . S
C133 H139 0.930 . S
C134 C132 1.353 . S
C134 C137 1.348 . S
C134 H172 0.929 . S
N135 Li90 1.990 . S
N135 C132 1.314 . S
N135 C133 1.279 1_455 S
C136 C133 1.358 . S
C136 C137 1.356 1_655 S
C136 H173 0.930 . S
C137 C134 1.348 . S
C137 C136 1.356 1_455 S
H138 C132 0.930 . S
H139 C133 0.930 . S
C140 N141 1.314 . S
C140 C142 1.353 . S
C140 H146 0.930 . S
N141 Li91 1.990 . S
N141 C140 1.314 . S
N141 C144 1.279 . S
C142 C140 1.353 . S
C142 C145 1.348 . S
C142 H174 0.929 . S
C143 C144 1.358 . S
C143 C145 1.356 . S
C143 H175 0.930 . S
C144 N141 1.279 . S
C144 C143 1.358 . S
C144 H147 0.930 . S
C145 C142 1.348 . S
C145 C143 1.356 . S
H146 C140 0.930 . S
H147 C144 0.930 . S
O148 Li88 1.956 . S
O148 Li89 1.970 . S
O148 Li90 1.961 . S
O148 C92 1.325 . S
O149 Li88 1.970 . S
O149 Li89 1.956 . S
O149 Li91 1.961 1_455 S
O149 C98 1.325 . S
O150 Li88 1.961 1_655 S
O150 Li90 1.956 1_655 S
O150 Li91 1.970 . S
O150 C120 1.325 . S
O151 Li89 1.961 . S
O151 Li90 1.970 . S
O151 Li91 1.956 1_455 S
O151 C126 1.325 . S
H152 C94 0.929 . S
H153 C95 0.930 . S
H154 C96 0.930 . S
H155 C97 0.930 . S
H156 C99 0.930 . S
H157 C101 0.929 . S
H158 C102 0.930 . S
H159 C103 0.930 . S
H160 C106 0.930 . S
H161 C109 0.929 1_655 S
H162 C114 0.929 . S
H163 C115 0.930 . S
H164 C122 0.929 . S
H165 C123 0.930 . S
H166 C124 0.930 . S
H167 C125 0.930 . S
H168 C127 0.939 . S
H169 C128 0.930 . S
H170 C129 0.931 . S
H171 C130 0.930 . S
H172 C134 0.929 . S
H173 C136 0.930 . S
H174 C142 0.929 . S
H175 C143 0.930 . S
Li176 N193 1.990 . S
Li176 O236 1.956 . S
Li176 O237 1.970 . S
Li176 O238 1.961 . S
Li177 N201 1.990 . S
Li177 O236 1.970 . S
Li177 O237 1.956 . S
Li177 O239 1.961 . S
Li178 N223 1.990 . S
Li178 O236 1.961 . S
Li178 O238 1.956 . S
Li178 O239 1.970 . S
Li179 N229 1.990 . S
Li179 O237 1.961 . S
Li179 O238 1.970 . S
Li179 O239 1.956 . S
C180 C182 1.348 . S
C180 C183 1.356 . S
C180 O236 1.325 . S
N181 C184 1.314 . S
N181 C185 1.279 . S
C182 C180 1.348 . S
C182 C184 1.353 . S
C182 H240 0.929 . S
C183 C180 1.356 . S
C183 C185 1.358 . S
C183 H241 0.930 . S
C184 N181 1.314 . S
C184 C182 1.353 . S
C184 H242 0.930 . S
C185 N181 1.279 . S
C185 C183 1.358 . S
C185 H243 0.930 . S
C186 C189 1.348 . S
C186 C190 1.356 . S
C186 O237 1.325 . S
C187 N188 1.279 . S
C187 C190 1.358 . S
C187 H244 0.930 . S
N188 C187 1.279 . S
N188 C191 1.314 . S
C189 C186 1.348 . S
C189 C191 1.353 . S
C189 H245 0.929 . S
C190 C186 1.356 . S
C190 C187 1.358 . S
C190 H246 0.930 . S
C191 N188 1.314 . S
C191 C189 1.353 . S
C191 H247 0.930 . S
C192 N193 1.314 . S
C192 C197 1.353 . S
C192 H198 0.930 . S
N193 Li176 1.990 . S
N193 C192 1.314 . S
N193 C195 1.279 . S
C194 C195 1.358 . S
C194 C196 1.356 . S
C194 H248 0.930 . S
C195 N193 1.279 . S
C195 C194 1.358 . S
C195 H199 0.930 . S
C196 C194 1.356 . S
C196 C197 1.348 . S
C197 C192 1.353 . S
C197 C196 1.348 . S
C197 H249 0.929 . S
H198 C192 0.930 . S
H199 C195 0.930 . S
C200 N201 1.314 . S
C200 C202 1.353 . S
C200 H206 0.930 . S
N201 Li177 1.990 . S
N201 C200 1.314 . S
N201 C204 1.279 . S
C202 C200 1.353 . S
C202 C205 1.348 . S
C202 H250 0.929 . S
C203 C204 1.358 . S
C203 C205 1.356 . S
C203 H251 0.930 . S
C204 N201 1.279 . S
C204 C203 1.358 . S
C204 H207 0.930 . S
C205 C202 1.348 . S
C205 C203 1.356 . S
H206 C200 0.930 . S
H207 C204 0.930 . S
C208 C210 1.348 . S
C208 C211 1.356 . S
C208 O238 1.325 . S
N209 C212 1.314 . S
N209 C213 1.279 . S
C210 C208 1.348 . S
C210 C212 1.353 . S
C210 H252 0.929 . S
C211 C208 1.356 . S
C211 C213 1.358 . S
C211 H253 0.930 . S
C212 N209 1.314 . S
C212 C210 1.353 . S
C212 H254 0.930 . S
C213 N209 1.279 . S
C213 C211 1.358 . S
C213 H255 0.930 . S
C214 C215 1.348 . S
C214 C216 1.356 . S
C214 O239 1.325 . S
C215 C214 1.348 . S
C215 C217 1.353 . S
C215 H256 0.929 . S
C216 C214 1.356 . S
C216 C218 1.358 . S
C216 H257 0.930 . S
C217 C215 1.353 . S
C217 N219 1.314 . S
C217 H258 0.930 . S
C218 C216 1.358 . S
C218 N219 1.279 . S
C218 H259 0.930 . S
N219 C217 1.314 . S
N219 C218 1.279 . S
C220 C222 1.353 . S
C220 N223 1.314 . S
C220 H226 0.930 . S
C221 N223 1.279 . S
C221 C224 1.358 . S
C221 H227 0.930 . S
C222 C220 1.353 . S
C222 C225 1.348 . S
C222 H260 0.929 . S
N223 Li178 1.990 . S
N223 C220 1.314 . S
N223 C221 1.279 . S
C224 C221 1.358 . S
C224 C225 1.356 . S
C224 H261 0.930 . S
C225 C222 1.348 . S
C225 C224 1.356 . S
H226 C220 0.930 . S
H227 C221 0.930 . S
C228 N229 1.314 . S
C228 C230 1.353 . S
C228 H234 0.930 . S
N229 Li179 1.990 . S
N229 C228 1.314 . S
N229 C232 1.279 . S
C230 C228 1.353 . S
C230 C233 1.348 . S
C230 H262 0.929 . S
C231 C232 1.358 . S
C231 C233 1.356 . S
C231 H263 0.930 . S
C232 N229 1.279 . S
C232 C231 1.358 . S
C232 H235 0.930 . S
C233 C230 1.348 . S
C233 C231 1.356 . S
H234 C228 0.930 . S
H235 C232 0.930 . S
O236 Li176 1.956 . S
O236 Li177 1.970 . S
O236 Li178 1.961 . S
O236 C180 1.325 . S
O237 Li176 1.970 . S
O237 Li177 1.956 . S
O237 Li179 1.961 . S
O237 C186 1.325 . S
O238 Li176 1.961 . S
O238 Li178 1.956 . S
O238 Li179 1.970 . S
O238 C208 1.325 . S
O239 Li177 1.961 . S
O239 Li178 1.970 . S
O239 Li179 1.956 . S
O239 C214 1.325 . S
H240 C182 0.929 . S
H241 C183 0.930 . S
H242 C184 0.930 . S
H243 C185 0.930 . S
H244 C187 0.930 . S
H245 C189 0.929 . S
H246 C190 0.930 . S
H247 C191 0.930 . S
H248 C194 0.930 . S
H249 C197 0.929 . S
H250 C202 0.929 . S
H251 C203 0.930 . S
H252 C210 0.929 . S
H253 C211 0.930 . S
H254 C212 0.930 . S
H255 C213 0.930 . S
H256 C215 0.929 . S
H257 C216 0.930 . S
H258 C217 0.930 . S
H259 C218 0.930 . S
H260 C222 0.929 . S
H261 C224 0.930 . S
H262 C230 0.929 . S
H263 C231 0.930 . S
Li264 N281 1.990 . S
Li264 O324 1.956 . S
Li264 O325 1.970 . S
Li264 O326 1.961 . S
Li265 N289 1.990 . S
Li265 O324 1.970 . S
Li265 O325 1.956 . S
Li265 O327 1.961 . S
Li266 N311 1.990 . S
Li266 O324 1.961 . S
Li266 O326 1.956 . S
Li266 O327 1.970 . S
Li267 N317 1.990 . S
Li267 O325 1.961 . S
Li267 O326 1.970 . S
Li267 O327 1.956 . S
C268 C270 1.348 . S
C268 C271 1.356 . S
C268 O324 1.325 . S
N269 C272 1.314 . S
N269 C273 1.279 . S
C270 C268 1.348 . S
C270 C272 1.353 . S
C270 H328 0.929 . S
C271 C268 1.356 . S
C271 C273 1.358 . S
C271 H329 0.930 . S
C272 N269 1.314 . S
C272 C270 1.353 . S
C272 H330 0.930 . S
C273 N269 1.279 . S
C273 C271 1.358 . S
C273 H331 0.930 . S
C274 C277 1.348 . S
C274 C278 1.356 . S
C274 O325 1.325 . S
C275 N276 1.279 . S
C275 C278 1.358 . S
C275 H332 0.930 . S
N276 C275 1.279 . S
N276 C279 1.314 . S
C277 C274 1.348 . S
C277 C279 1.353 . S
C277 H333 0.929 . S
C278 C274 1.356 . S
C278 C275 1.358 . S
C278 H334 0.930 . S
C279 N276 1.314 . S
C279 C277 1.353 . S
C279 H335 0.930 . S
C280 N281 1.314 . S
C280 C285 1.353 . S
C280 H286 0.930 . S
N281 Li264 1.990 . S
N281 C280 1.314 . S
N281 C283 1.279 . S
C282 C283 1.358 . S
C282 C284 1.356 . S
C282 H336 0.930 . S
C283 N281 1.279 . S
C283 C282 1.358 . S
C283 H287 0.930 . S
C284 C282 1.356 . S
C284 C285 1.348 . S
C285 C280 1.353 . S
C285 C284 1.348 . S
C285 H337 0.929 . S
H286 C280 0.930 . S
H287 C283 0.930 . S
C288 N289 1.314 . S
C288 C290 1.353 . S
C288 H294 0.930 . S
N289 Li265 1.990 . S
N289 C288 1.314 . S
N289 C292 1.279 . S
C290 C288 1.353 . S
C290 C293 1.348 . S
C290 H338 0.929 . S
C291 C292 1.358 . S
C291 C293 1.356 . S
C291 H339 0.930 . S
C292 N289 1.279 . S
C292 C291 1.358 . S
C292 H295 0.930 . S
C293 C290 1.348 . S
C293 C291 1.356 . S
H294 C288 0.930 . S
H295 C292 0.930 . S
C296 C298 1.348 . S
C296 C299 1.356 . S
C296 O326 1.325 . S
N297 C300 1.314 . S
N297 C301 1.279 . S
C298 C296 1.348 . S
C298 C300 1.353 . S
C298 H340 0.929 . S
C299 C296 1.356 . S
C299 C301 1.358 . S
C299 H341 0.930 . S
C300 N297 1.314 . S
C300 C298 1.353 . S
C300 H342 0.930 . S
C301 N297 1.279 . S
C301 C299 1.358 . S
C301 H343 0.930 . S
C302 C303 1.348 . S
C302 C304 1.356 . S
C302 O327 1.325 . S
C303 C302 1.348 . S
C303 C305 1.353 . S
C303 H344 0.929 . S
C304 C302 1.356 . S
C304 C306 1.358 . S
C304 H345 0.930 . S
C305 C303 1.353 . S
C305 N307 1.314 . S
C305 H346 0.930 . S
C306 C304 1.358 . S
C306 N307 1.279 . S
C306 H347 0.930 . S
N307 C305 1.314 . S
N307 C306 1.279 . S
C308 C310 1.353 . S
C308 N311 1.314 . S
C308 H314 0.930 . S
C309 N311 1.279 . S
C309 C312 1.358 . S
C309 H315 0.930 . S
C310 C308 1.353 . S
C310 C313 1.348 . S
C310 H348 0.929 . S
N311 Li266 1.990 . S
N311 C308 1.314 . S
N311 C309 1.279 . S
C312 C309 1.358 . S
C312 C313 1.356 . S
C312 H349 0.930 . S
C313 C310 1.348 . S
C313 C312 1.356 . S
H314 C308 0.930 . S
H315 C309 0.930 . S
C316 N317 1.314 . S
C316 C318 1.353 . S
C316 H322 0.930 . S
N317 Li267 1.990 . S
N317 C316 1.314 . S
N317 C320 1.279 . S
C318 C316 1.353 . S
C318 C321 1.348 . S
C318 H350 0.929 . S
C319 C320 1.358 . S
C319 C321 1.356 . S
C319 H351 0.930 . S
C320 N317 1.279 . S
C320 C319 1.358 . S
C320 H323 0.930 . S
C321 C318 1.348 . S
C321 C319 1.356 . S
H322 C316 0.930 . S
H323 C320 0.930 . S
O324 Li264 1.956 . S
O324 Li265 1.970 . S
O324 Li266 1.961 . S
O324 C268 1.325 . S
O325 Li264 1.970 . S
O325 Li265 1.956 . S
O325 Li267 1.961 . S
O325 C274 1.325 . S
O326 Li264 1.961 . S
O326 Li266 1.956 . S
O326 Li267 1.970 . S
O326 C296 1.325 . S
O327 Li265 1.961 . S
O327 Li266 1.970 . S
O327 Li267 1.956 . S
O327 C302 1.325 . S
H328 C270 0.929 . S
H329 C271 0.930 . S
H330 C272 0.930 . S
H331 C273 0.930 . S
H332 C275 0.930 . S
H333 C277 0.929 . S
H334 C278 0.930 . S
H335 C279 0.930 . S
H336 C282 0.930 . S
H337 C285 0.929 . S
H338 C290 0.929 . S
H339 C291 0.930 . S
H340 C298 0.929 . S
H341 C299 0.930 . S
H342 C300 0.930 . S
H343 C301 0.930 . S
H344 C303 0.929 . S
H345 C304 0.930 . S
H346 C305 0.930 . S
H347 C306 0.930 . S
H348 C310 0.929 . S
H349 C312 0.930 . S
H350 C318 0.929 . S
H351 C319 0.930 . S
Li352 N369 1.990 . S
Li352 O412 1.956 . S
Li352 O413 1.970 . S
Li352 O414 1.961 . S
Li353 N377 1.990 . S
Li353 O412 1.970 . S
Li353 O413 1.956 . S
Li353 O415 1.961 . S
Li354 N399 1.990 . S
Li354 O412 1.961 . S
Li354 O414 1.956 . S
Li354 O415 1.970 . S
Li355 N405 1.990 . S
Li355 O413 1.961 . S
Li355 O414 1.970 . S
Li355 O415 1.956 . S
C356 C358 1.348 . S
C356 C359 1.356 . S
C356 O412 1.325 . S
N357 C360 1.314 . S
N357 C361 1.279 . S
C358 C356 1.348 . S
C358 C360 1.353 . S
C358 H416 0.929 . S
C359 C356 1.356 . S
C359 C361 1.358 . S
C359 H417 0.930 . S
C360 N357 1.314 . S
C360 C358 1.353 . S
C360 H418 0.930 . S
C361 N357 1.279 . S
C361 C359 1.358 . S
C361 H419 0.930 . S
C362 C365 1.348 . S
C362 C366 1.356 . S
C362 O413 1.325 . S
C363 N364 1.279 . S
C363 C366 1.358 . S
C363 H420 0.930 . S
N364 C363 1.279 . S
N364 C367 1.314 . S
C365 C362 1.348 . S
C365 C367 1.353 . S
C365 H421 0.929 . S
C366 C362 1.356 . S
C366 C363 1.358 . S
C366 H422 0.930 . S
C367 N364 1.314 . S
C367 C365 1.353 . S
C367 H423 0.930 . S
C368 N369 1.314 . S
C368 C373 1.353 . S
C368 H374 0.930 . S
N369 Li352 1.990 . S
N369 C368 1.314 . S
N369 C371 1.279 . S
C370 C371 1.358 . S
C370 C372 1.356 . S
C370 H424 0.930 . S
C371 N369 1.279 . S
C371 C370 1.358 . S
C371 H375 0.930 . S
C372 C370 1.356 . S
C372 C373 1.348 . S
C373 C368 1.353 . S
C373 C372 1.348 . S
C373 H425 0.929 . S
H374 C368 0.930 . S
H375 C371 0.930 . S
C376 N377 1.314 . S
C376 C378 1.353 . S
C376 H382 0.930 . S
N377 Li353 1.990 . S
N377 C376 1.314 . S
N377 C380 1.279 . S
C378 C376 1.353 . S
C378 C381 1.348 . S
C378 H426 0.929 . S
C379 C380 1.358 . S
C379 C381 1.356 . S
C379 H427 0.930 . S
C380 N377 1.279 . S
C380 C379 1.358 . S
C380 H383 0.930 . S
C381 C378 1.348 . S
C381 C379 1.356 . S
H382 C376 0.930 . S
H383 C380 0.930 . S
C384 C386 1.348 1_455 S
C384 C387 1.356 . S
C384 O414 1.325 . S
N385 C388 1.314 . S
N385 C389 1.279 . S
C386 C384 1.348 1_655 S
C386 C388 1.353 . S
C386 H428 0.929 . S
C387 C384 1.356 . S
C387 C389 1.358 1_455 S
C387 H429 0.930 . S
C388 N385 1.314 . S
C388 C386 1.353 . S
C388 H430 0.930 . S
C389 N385 1.279 . S
C389 C387 1.358 1_655 S
C389 H431 0.930 . S
C390 C391 1.348 . S
C390 C392 1.356 . S
C390 O415 1.325 . S
C391 C390 1.348 . S
C391 C393 1.353 . S
C391 H432 0.929 . S
C392 C390 1.356 . S
C392 C394 1.358 . S
C392 H433 0.930 . S
C393 C391 1.353 . S
C393 N395 1.314 . S
C393 H434 0.930 . S
C394 C392 1.358 . S
C394 N395 1.279 . S
C394 H435 0.930 . S
N395 C393 1.314 . S
N395 C394 1.279 . S
C396 C398 1.353 . S
C396 N399 1.314 . S
C396 H402 0.930 . S
C397 N399 1.279 . S
C397 C400 1.358 . S
C397 H403 0.930 . S
C398 C396 1.353 . S
C398 C401 1.348 . S
C398 H436 0.929 . S
N399 Li354 1.990 . S
N399 C396 1.314 . S
N399 C397 1.279 . S
C400 C397 1.358 . S
C400 C401 1.356 . S
C400 H437 0.930 . S
C401 C398 1.348 . S
C401 C400 1.356 . S
H402 C396 0.930 . S
H403 C397 0.930 . S
C404 N405 1.314 . S
C404 C406 1.353 1_455 S
C404 H410 0.930 . S
N405 Li355 1.990 . S
N405 C404 1.314 . S
N405 C408 1.279 . S
C406 C404 1.353 1_655 S
C406 C409 1.348 . S
C406 H438 0.929 . S
C407 C408 1.358 1_655 S
C407 C409 1.356 . S
C407 H439 0.930 . S
C408 N405 1.279 . S
C408 C407 1.358 1_455 S
C408 H411 0.930 . S
C409 C406 1.348 . S
C409 C407 1.356 . S
H410 C404 0.930 . S
H411 C408 0.930 . S
O412 Li352 1.956 . S
O412 Li353 1.970 . S
O412 Li354 1.961 . S
O412 C356 1.325 . S
O413 Li352 1.970 . S
O413 Li353 1.956 . S
O413 Li355 1.961 . S
O413 C362 1.325 . S
O414 Li352 1.961 . S
O414 Li354 1.956 . S
O414 Li355 1.970 . S
O414 C384 1.325 . S
O415 Li353 1.961 . S
O415 Li354 1.970 . S
O415 Li355 1.956 . S
O415 C390 1.325 . S
H416 C358 0.929 . S
H417 C359 0.930 . S
H418 C360 0.930 . S
H419 C361 0.930 . S
H420 C363 0.930 . S
H421 C365 0.929 . S
H422 C366 0.930 . S
H423 C367 0.930 . S
H424 C370 0.930 . S
H425 C373 0.929 . S
H426 C378 0.929 . S
H427 C379 0.930 . S
H428 C386 0.929 . S
H429 C387 0.930 . S
H430 C388 0.930 . S
H431 C389 0.930 . S
H432 C391 0.929 . S
H433 C392 0.930 . S
H434 C393 0.930 . S
H435 C394 0.930 . S
H436 C398 0.929 . S
H437 C400 0.930 . S
H438 C406 0.929 . S
H439 C407 0.930 . S
Li440 N457 1.990 . S
Li440 O500 1.956 . S
Li440 O501 1.970 . S
Li440 O502 1.961 . S
Li441 N465 1.990 . S
Li441 O500 1.970 . S
Li441 O501 1.956 . S
Li441 O503 1.961 . S
Li442 N487 1.990 . S
Li442 O500 1.961 . S
Li442 O502 1.956 . S
Li442 O503 1.970 . S
Li443 N493 1.990 . S
Li443 O501 1.961 . S
Li443 O502 1.970 . S
Li443 O503 1.956 . S
C444 C446 1.348 . S
C444 C447 1.356 . S
C444 O500 1.325 . S
N445 C448 1.314 . S
N445 C449 1.279 . S
C446 C444 1.348 . S
C446 C448 1.353 . S
C446 H504 0.929 . S
C447 C444 1.356 . S
C447 C449 1.358 . S
C447 H505 0.930 . S
C448 N445 1.314 . S
C448 C446 1.353 . S
C448 H506 0.930 . S
C449 N445 1.279 . S
C449 C447 1.358 . S
C449 H507 0.930 . S
C450 C453 1.348 . S
C450 C454 1.356 . S
C450 O501 1.325 . S
C451 N452 1.279 . S
C451 C454 1.358 . S
C451 H508 0.930 . S
N452 C451 1.279 . S
N452 C455 1.314 . S
C453 C450 1.348 . S
C453 C455 1.353 . S
C453 H509 0.929 . S
C454 C450 1.356 . S
C454 C451 1.358 . S
C454 H510 0.930 . S
C455 N452 1.314 . S
C455 C453 1.353 . S
C455 H511 0.930 . S
C456 N457 1.314 . S
C456 C461 1.353 . S
C456 H462 0.930 . S
N457 Li440 1.990 . S
N457 C456 1.314 . S
N457 C459 1.279 . S
C458 C459 1.358 . S
C458 C460 1.356 . S
C458 H512 0.930 . S
C459 N457 1.279 . S
C459 C458 1.358 . S
C459 H463 0.930 . S
C460 C458 1.356 . S
C460 C461 1.348 . S
C461 C456 1.353 . S
C461 C460 1.348 . S
C461 H513 0.929 . S
H462 C456 0.930 . S
H463 C459 0.930 . S
C464 N465 1.314 . S
C464 C466 1.353 . S
C464 H470 0.930 . S
N465 Li441 1.990 . S
N465 C464 1.314 . S
N465 C468 1.279 . S
C466 C464 1.353 . S
C466 C469 1.348 . S
C466 H514 0.929 . S
C467 C468 1.358 . S
C467 C469 1.356 . S
C467 H515 0.930 . S
C468 N465 1.279 . S
C468 C467 1.358 . S
C468 H471 0.930 . S
C469 C466 1.348 . S
C469 C467 1.356 . S
H470 C464 0.930 . S
H471 C468 0.930 . S
C472 C474 1.348 . S
C472 C475 1.356 . S
C472 O502 1.325 . S
N473 C476 1.314 . S
N473 C477 1.279 . S
C474 C472 1.348 . S
C474 C476 1.353 . S
C474 H516 0.929 . S
C475 C472 1.356 . S
C475 C477 1.358 . S
C475 H517 0.930 . S
C476 N473 1.314 . S
C476 C474 1.353 . S
C476 H518 0.930 . S
C477 N473 1.279 . S
C477 C475 1.358 . S
C477 H519 0.930 . S
C478 C479 1.348 . S
C478 C480 1.356 . S
C478 O503 1.325 . S
C479 C478 1.348 . S
C479 C481 1.353 . S
C479 H520 0.929 . S
C480 C478 1.356 . S
C480 C482 1.358 . S
C480 H521 0.930 . S
C481 C479 1.353 . S
C481 N483 1.314 . S
C481 H522 0.930 . S
C482 C480 1.358 . S
C482 N483 1.279 . S
C482 H523 0.930 . S
N483 C481 1.314 . S
N483 C482 1.279 . S
C484 C486 1.353 . S
C484 N487 1.314 . S
C484 H490 0.930 . S
C485 N487 1.279 . S
C485 C488 1.358 . S
C485 H491 0.930 . S
C486 C484 1.353 . S
C486 C489 1.348 . S
C486 H524 0.929 . S
N487 Li442 1.990 . S
N487 C484 1.314 . S
N487 C485 1.279 . S
C488 C485 1.358 . S
C488 C489 1.356 . S
C488 H525 0.930 . S
C489 C486 1.348 . S
C489 C488 1.356 . S
H490 C484 0.930 . S
H491 C485 0.930 . S
C492 N493 1.314 . S
C492 C494 1.353 . S
C492 H498 0.930 . S
N493 Li443 1.990 . S
N493 C492 1.314 . S
N493 C496 1.279 . S
C494 C492 1.353 . S
C494 C497 1.348 . S
C494 H526 0.929 . S
C495 C496 1.358 . S
C495 C497 1.356 . S
C495 H527 0.930 . S
C496 N493 1.279 . S
C496 C495 1.358 . S
C496 H499 0.930 . S
C497 C494 1.348 . S
C497 C495 1.356 . S
H498 C492 0.930 . S
H499 C496 0.930 . S
O500 Li440 1.956 . S
O500 Li441 1.970 . S
O500 Li442 1.961 . S
O500 C444 1.325 . S
O501 Li440 1.970 . S
O501 Li441 1.956 . S
O501 Li443 1.961 . S
O501 C450 1.325 . S
O502 Li440 1.961 . S
O502 Li442 1.956 . S
O502 Li443 1.970 . S
O502 C472 1.325 . S
O503 Li441 1.961 . S
O503 Li442 1.970 . S
O503 Li443 1.956 . S
O503 C478 1.325 . S
H504 C446 0.929 . S
H505 C447 0.930 . S
H506 C448 0.930 . S
H507 C449 0.930 . S
H508 C451 0.930 . S
H509 C453 0.929 . S
H510 C454 0.930 . S
H511 C455 0.930 . S
H512 C458 0.930 . S
H513 C461 0.929 . S
H514 C466 0.929 . S
H515 C467 0.930 . S
H516 C474 0.929 . S
H517 C475 0.930 . S
H518 C476 0.930 . S
H519 C477 0.930 . S
H520 C479 0.929 . S
H521 C480 0.930 . S
H522 C481 0.930 . S
H523 C482 0.930 . S
H524 C486 0.929 . S
H525 C488 0.930 . S
H526 C494 0.929 . S
H527 C495 0.930 . S
Li528 N545 1.990 . S
Li528 O588 1.956 . S
Li528 O589 1.970 . S
Li528 O590 1.961 . S
Li529 N553 1.990 . S
Li529 O588 1.970 . S
Li529 O589 1.956 . S
Li529 O591 1.961 . S
Li530 N575 1.990 . S
Li530 O588 1.961 . S
Li530 O590 1.956 . S
Li530 O591 1.970 . S
Li531 N581 1.990 . S
Li531 O589 1.961 . S
Li531 O590 1.970 . S
Li531 O591 1.956 . S
C532 C534 1.348 . S
C532 C535 1.356 . S
C532 O588 1.325 . S
N533 C536 1.314 . S
N533 C537 1.279 . S
C534 C532 1.348 . S
C534 C536 1.353 . S
C534 H592 0.929 . S
C535 C532 1.356 . S
C535 C537 1.358 . S
C535 H593 0.930 . S
C536 N533 1.314 . S
C536 C534 1.353 . S
C536 H594 0.930 . S
C537 N533 1.279 . S
C537 C535 1.358 . S
C537 H595 0.930 . S
C538 C541 1.348 . S
C538 C542 1.356 . S
C538 O589 1.325 . S
C539 N540 1.279 . S
C539 C542 1.358 . S
C539 H596 0.930 . S
N540 C539 1.279 . S
N540 C543 1.314 . S
C541 C538 1.348 . S
C541 C543 1.353 . S
C541 H597 0.929 . S
C542 C538 1.356 . S
C542 C539 1.358 . S
C542 H598 0.930 . S
C543 N540 1.314 . S
C543 C541 1.353 . S
C543 H599 0.930 . S
C544 N545 1.314 . S
C544 C549 1.353 . S
C544 H550 0.930 . S
N545 Li528 1.990 . S
N545 C544 1.314 . S
N545 C547 1.279 . S
C546 C547 1.358 . S
C546 C548 1.356 . S
C546 H600 0.930 . S
C547 N545 1.279 . S
C547 C546 1.358 . S
C547 H551 0.930 . S
C548 C546 1.356 . S
C548 C549 1.348 . S
C549 C544 1.353 . S
C549 C548 1.348 . S
C549 H601 0.929 . S
H550 C544 0.930 . S
H551 C547 0.930 . S
C552 N553 1.314 . S
C552 C554 1.353 . S
C552 H558 0.930 . S
N553 Li529 1.990 . S
N553 C552 1.314 . S
N553 C556 1.279 . S
C554 C552 1.353 . S
C554 C557 1.348 . S
C554 H602 0.929 . S
C555 C556 1.358 . S
C555 C557 1.356 . S
C555 H603 0.930 . S
C556 N553 1.279 . S
C556 C555 1.358 . S
C556 H559 0.930 . S
C557 C554 1.348 . S
C557 C555 1.356 . S
H558 C552 0.930 . S
H559 C556 0.930 . S
C560 C562 1.348 . S
C560 C563 1.356 . S
C560 O590 1.325 . S
N561 C564 1.314 . S
N561 C565 1.279 . S
C562 C560 1.348 . S
C562 C564 1.353 . S
C562 H604 0.929 . S
C563 C560 1.356 . S
C563 C565 1.358 . S
C563 H605 0.930 . S
C564 N561 1.314 . S
C564 C562 1.353 . S
C564 H606 0.930 . S
C565 N561 1.279 . S
C565 C563 1.358 . S
C565 H607 0.930 . S
C566 C567 1.348 . S
C566 C568 1.356 . S
C566 O591 1.325 . S
C567 C566 1.348 . S
C567 C569 1.353 . S
C567 H608 0.929 . S
C568 C566 1.356 . S
C568 C570 1.358 . S
C568 H609 0.930 . S
C569 C567 1.353 . S
C569 N571 1.314 . S
C569 H610 0.930 . S
C570 C568 1.358 . S
C570 N571 1.279 . S
C570 H611 0.930 . S
N571 C569 1.314 . S
N571 C570 1.279 . S
C572 C574 1.353 . S
C572 N575 1.314 . S
C572 H578 0.930 . S
C573 N575 1.279 . S
C573 C576 1.358 . S
C573 H579 0.930 . S
C574 C572 1.353 . S
C574 C577 1.348 . S
C574 H612 0.929 . S
N575 Li530 1.990 . S
N575 C572 1.314 . S
N575 C573 1.279 . S
C576 C573 1.358 . S
C576 C577 1.356 . S
C576 H613 0.930 . S
C577 C574 1.348 . S
C577 C576 1.356 . S
H578 C572 0.930 . S
H579 C573 0.930 . S
C580 N581 1.314 . S
C580 C582 1.353 . S
C580 H586 0.930 . S
N581 Li531 1.990 . S
N581 C580 1.314 . S
N581 C584 1.279 . S
C582 C580 1.353 . S
C582 C585 1.348 . S
C582 H614 0.929 . S
C583 C584 1.358 . S
C583 C585 1.356 . S
C583 H615 0.930 . S
C584 N581 1.279 . S
C584 C583 1.358 . S
C584 H587 0.930 . S
C585 C582 1.348 . S
C585 C583 1.356 . S
H586 C580 0.930 . S
H587 C584 0.930 . S
O588 Li528 1.956 . S
O588 Li529 1.970 . S
O588 Li530 1.961 . S
O588 C532 1.325 . S
O589 Li528 1.970 . S
O589 Li529 1.956 . S
O589 Li531 1.961 . S
O589 C538 1.325 . S
O590 Li528 1.961 . S
O590 Li530 1.956 . S
O590 Li531 1.970 . S
O590 C560 1.325 . S
O591 Li529 1.961 . S
O591 Li530 1.970 . S
O591 Li531 1.956 . S
O591 C566 1.325 . S
H592 C534 0.929 . S
H593 C535 0.930 . S
H594 C536 0.930 . S
H595 C537 0.930 . S
H596 C539 0.930 . S
H597 C541 0.929 . S
H598 C542 0.930 . S
H599 C543 0.930 . S
H600 C546 0.930 . S
H601 C549 0.929 . S
H602 C554 0.929 . S
H603 C555 0.930 . S
H604 C562 0.929 . S
H605 C563 0.930 . S
H606 C564 0.930 . S
H607 C565 0.930 . S
H608 C567 0.929 . S
H609 C568 0.930 . S
H610 C569 0.930 . S
H611 C570 0.930 . S
H612 C574 0.929 . S
H613 C576 0.930 . S
H614 C582 0.929 . S
H615 C583 0.930 . S
Li616 N633 1.990 . S
Li616 O676 1.956 1_455 S
Li616 O677 1.970 . S
Li616 O678 1.961 . S
Li617 N641 1.990 . S
Li617 O676 1.970 . S
Li617 O677 1.956 1_655 S
Li617 O679 1.961 . S
Li618 N663 1.993 . S
Li618 O676 1.958 . S
Li618 O678 1.958 1_655 S
Li618 O679 1.970 . S
Li619 N669 1.990 . S
Li619 O677 1.961 . S
Li619 O678 1.970 . S
Li619 O679 1.956 1_455 S
C620 C622 1.348 . S
C620 C623 1.356 . S
C620 O676 1.325 . S
N621 C624 1.314 . S
N621 C625 1.279 . S
C622 C620 1.348 . S
C622 C624 1.353 . S
C622 H680 0.929 . S
C623 C620 1.356 . S
C623 C625 1.358 . S
C623 H681 0.930 . S
C624 N621 1.314 . S
C624 C622 1.353 . S
C624 H682 0.930 . S
C625 N621 1.279 . S
C625 C623 1.358 . S
C625 H683 0.930 1_556 S
C626 C629 1.348 1_455 S
C626 C630 1.356 . S
C626 O677 1.325 . S
C627 N628 1.279 . S
C627 C630 1.358 . S
C627 H684 0.930 . S
N628 C627 1.279 . S
N628 C631 1.300 1_455 S
C629 C626 1.348 1_655 S
C629 C631 1.351 . S
C629 H685 0.929 . S
C630 C626 1.356 . S
C630 C627 1.358 . S
C630 H686 0.930 . S
C631 N628 1.300 1_655 S
C631 C629 1.351 . S
C631 H687 0.952 . S
C632 N633 1.314 . S
C632 C637 1.353 . S
C632 H638 0.930 . S
N633 Li616 1.990 . S
N633 C632 1.314 . S
N633 C635 1.279 1_455 S
C634 C635 1.358 . S
C634 C636 1.356 1_655 S
C634 H688 0.930 . S
C635 N633 1.279 1_655 S
C635 C634 1.358 . S
C635 H639 0.930 . S
C636 C634 1.356 1_455 S
C636 C637 1.348 . S
C637 C632 1.353 . S
C637 C636 1.348 . S
C637 H689 0.929 . S
H638 C632 0.930 . S
H639 C635 0.930 . S
C640 N641 1.314 . S
C640 C642 1.353 . S
C640 H646 0.930 . S
N641 Li617 1.990 . S
N641 C640 1.314 . S
N641 C644 1.279 . S
C642 C640 1.353 . S
C642 C645 1.348 . S
C642 H690 0.929 . S
C643 C644 1.358 . S
C643 C645 1.356 . S
C643 H691 0.930 . S
C644 N641 1.279 . S
C644 C643 1.358 . S
C644 H647 0.930 . S
C645 C642 1.348 . S
C645 C643 1.356 . S
H646 C640 0.930 . S
H647 C644 0.930 . S
C648 C650 1.348 . S
C648 C651 1.356 . S
C648 O678 1.325 . S
N649 C652 1.314 . S
N649 C653 1.279 . S
C650 C648 1.348 . S
C650 C652 1.353 . S
C650 H692 0.929 . S
C651 C648 1.356 . S
C651 C653 1.358 . S
C651 H693 0.930 . S
C652 N649 1.314 . S
C652 C650 1.353 . S
C652 H694 0.930 . S
C653 N649 1.279 . S
C653 C651 1.358 . S
C653 H695 0.930 1_556 S
C654 C655 1.348 . S
C654 C656 1.356 . S
C654 O679 1.325 . S
C655 C654 1.348 . S
C655 C657 1.353 . S
C655 H696 0.929 1_655 S
C656 C654 1.356 . S
C656 C658 1.358 . S
C656 H697 0.930 . S
C657 C655 1.353 . S
C657 N659 1.314 . S
C657 H698 0.930 . S
C658 C656 1.358 . S
C658 N659 1.279 . S
C658 H699 0.930 . S
N659 C657 1.314 . S
N659 C658 1.279 . S
C660 C662 1.353 . S
C660 N663 1.342 . S
C660 H666 0.930 . S
C661 N663 1.250 1_455 S
C661 C664 1.358 . S
C661 H667 0.930 . S
C662 C660 1.353 . S
C662 C665 1.348 . S
C662 H700 0.929 . S
N663 Li618 1.993 . S
N663 C660 1.342 . S
N663 C661 1.250 1_655 S
C664 C661 1.358 . S
C664 C665 1.356 1_455 S
C664 H701 0.930 . S
C665 C662 1.348 . S
C665 C664 1.356 1_655 S
H666 C660 0.930 . S
H667 C661 0.930 . S
C668 N669 1.314 . S
C668 C670 1.353 . S
C668 H674 0.930 . S
N669 Li619 1.990 . S
N669 C668 1.314 . S
N669 C672 1.279 . S
C670 C668 1.353 . S
C670 C673 1.348 . S
C670 H702 0.929 . S
C671 C672 1.358 . S
C671 C673 1.356 . S
C671 H703 0.930 . S
C672 N669 1.279 . S
C672 C671 1.358 . S
C672 H675 0.930 . S
C673 C670 1.348 . S
C673 C671 1.356 . S
H674 C668 0.930 . S
H675 C672 0.930 . S
O676 Li616 1.956 1_655 S
O676 Li617 1.970 . S
O676 Li618 1.958 . S
O676 C620 1.325 . S
O677 Li616 1.970 . S
O677 Li617 1.956 1_455 S
O677 Li619 1.961 . S
O677 C626 1.325 . S
O678 Li616 1.961 . S
O678 Li618 1.958 1_455 S
O678 Li619 1.970 . S
O678 C648 1.325 . S
O679 Li617 1.961 . S
O679 Li618 1.970 . S
O679 Li619 1.956 1_655 S
O679 C654 1.325 . S
H680 C622 0.929 . S
H681 C623 0.930 . S
H682 C624 0.930 . S
H683 C625 0.930 1_554 S
H684 C627 0.930 . S
H685 C629 0.929 . S
H686 C630 0.930 . S
H687 C631 0.952 . S
H688 C634 0.930 . S
H689 C637 0.929 . S
H690 C642 0.929 . S
H691 C643 0.930 . S
H692 C650 0.929 . S
H693 C651 0.930 . S
H694 C652 0.930 . S
H695 C653 0.930 1_554 S
H696 C655 0.929 1_455 S
H697 C656 0.930 . S
H698 C657 0.930 . S
H699 C658 0.930 . S
H700 C662 0.929 . S
H701 C664 0.930 . S
H702 C670 0.929 . S
H703 C671 0.930 . S
Li704 N721 1.990 . S
Li704 O764 1.956 1_545 S
Li704 O765 1.970 . S
Li704 O766 1.961 . S
Li705 N729 1.990 . S
Li705 O764 1.970 . S
Li705 O765 1.956 1_565 S
Li705 O767 1.961 1_565 S
Li706 N751 1.990 . S
Li706 O764 1.961 1_545 S
Li706 O766 1.956 . S
Li706 O767 1.970 . S
Li707 N757 1.990 . S
Li707 O765 1.961 . S
Li707 O766 1.970 . S
Li707 O767 1.956 . S
C708 C710 1.348 . S
C708 C711 1.356 . S
C708 O764 1.325 . S
N709 C712 1.314 . S
N709 C713 1.279 . S
C710 C708 1.348 . S
C710 C712 1.353 . S
C710 H768 0.929 . S
C711 C708 1.356 . S
C711 C713 1.358 . S
C711 H769 0.930 . S
C712 N709 1.314 . S
C712 C710 1.353 . S
C712 H770 0.930 . S
C713 N709 1.279 . S
C713 C711 1.358 . S
C713 H771 0.930 . S
C714 C717 1.348 . S
C714 C718 1.356 . S
C714 O765 1.325 . S
C715 N716 1.279 . S
C715 C718 1.358 . S
C715 H772 0.930 . S
N716 C715 1.279 . S
N716 C719 1.322 . S
C717 C714 1.348 . S
C717 C719 1.353 . S
C717 H773 0.910 1_545 S
C718 C714 1.356 . S
C718 C715 1.358 . S
C718 H774 0.930 . S
C719 N716 1.322 . S
C719 C717 1.353 . S
C719 H775 0.922 1_545 S
C720 N721 1.314 . S
C720 C725 1.353 . S
C720 H726 0.930 . S
N721 Li704 1.990 . S
N721 C720 1.314 . S
N721 C723 1.279 1_545 S
C722 C723 1.362 1_545 S
C722 C724 1.380 . S
C722 H776 0.902 1_545 S
C723 N721 1.279 1_565 S
C723 C722 1.362 1_565 S
C723 H727 0.930 . S
C724 C722 1.380 . S
C724 C725 1.348 . S
C725 C720 1.353 . S
C725 C724 1.348 . S
C725 H777 0.929 . S
H726 C720 0.930 . S
H727 C723 0.930 . S
C728 N729 1.314 . S
C728 C730 1.353 . S
C728 H734 0.930 . S
N729 Li705 1.990 . S
N729 C728 1.314 . S
N729 C732 1.279 . S
C730 C728 1.353 . S
C730 C733 1.348 . S
C730 H778 0.929 . S
C731 C732 1.358 . S
C731 C733 1.356 . S
C731 H779 0.930 . S
C732 N729 1.279 . S
C732 C731 1.358 . S
C732 H735 0.930 . S
C733 C730 1.348 . S
C733 C731 1.356 . S
H734 C728 0.930 . S
H735 C732 0.930 . S
C736 C738 1.348 . S
C736 C739 1.356 . S
C736 O766 1.325 . S
N737 C740 1.314 . S
N737 C741 1.279 . S
C738 C736 1.348 . S
C738 C740 1.353 . S
C738 H780 0.929 . S
C739 C736 1.356 . S
C739 C741 1.358 . S
C739 H781 0.930 . S
C740 N737 1.314 . S
C740 C738 1.353 . S
C740 H782 0.930 . S
C741 N737 1.279 . S
C741 C739 1.358 . S
C741 H783 0.930 . S
C742 C743 1.358 . S
C742 C744 1.353 1_545 S
C742 O767 1.322 . S
C743 C742 1.358 . S
C743 C745 1.353 . S
C743 H784 0.929 . S
C744 C742 1.353 1_565 S
C744 C746 1.358 . S
C744 H785 0.930 . S
C745 C743 1.353 . S
C745 N747 1.314 1_545 S
C745 H786 0.930 . S
C746 C744 1.358 . S
C746 N747 1.279 . S
C746 H787 0.930 . S
N747 C745 1.314 1_565 S
N747 C746 1.279 . S
C748 C750 1.353 . S
C748 N751 1.314 1_565 S
C748 H754 0.930 . S
C749 N751 1.279 . S
C749 C752 1.358 . S
C749 H755 0.930 . S
C750 C748 1.353 . S
C750 C753 1.348 1_565 S
C750 H788 0.929 . S
N751 Li706 1.990 . S
N751 C748 1.314 1_545 S
N751 C749 1.279 . S
C752 C749 1.358 . S
C752 C753 1.356 . S
C752 H789 0.930 . S
C753 C750 1.348 1_545 S
C753 C752 1.356 . S
H754 C748 0.930 . S
H755 C749 0.930 . S
C756 N757 1.314 . S
C756 C758 1.353 . S
C756 H762 0.930 . S
N757 Li707 1.990 . S
N757 C756 1.314 . S
N757 C760 1.279 . S
C758 C756 1.353 . S
C758 C761 1.348 . S
C758 H790 0.929 . S
C759 C760 1.358 . S
C759 C761 1.356 . S
C759 H791 0.930 . S
C760 N757 1.279 . S
C760 C759 1.358 . S
C760 H763 0.930 . S
C761 C758 1.348 . S
C761 C759 1.356 . S
H762 C756 0.930 . S
H763 C760 0.930 . S
O764 Li704 1.956 1_565 S
O764 Li705 1.970 . S
O764 Li706 1.961 1_565 S
O764 C708 1.325 . S
O765 Li704 1.970 . S
O765 Li705 1.956 1_545 S
O765 Li707 1.961 . S
O765 C714 1.325 . S
O766 Li704 1.961 . S
O766 Li706 1.956 . S
O766 Li707 1.970 . S
O766 C736 1.325 . S
O767 Li705 1.961 1_545 S
O767 Li706 1.970 . S
O767 Li707 1.956 . S
O767 C742 1.322 . S
H768 C710 0.929 . S
H769 C711 0.930 . S
H770 C712 0.930 . S
H771 C713 0.930 . S
H772 C715 0.930 . S
H773 C717 0.910 1_565 S
H774 C718 0.930 . S
H775 C719 0.922 1_565 S
H776 C722 0.902 1_565 S
H777 C725 0.929 . S
H778 C730 0.929 . S
H779 C731 0.930 . S
H780 C738 0.929 . S
H781 C739 0.930 . S
H782 C740 0.930 . S
H783 C741 0.930 . S
H784 C743 0.929 . S
H785 C744 0.930 . S
H786 C745 0.930 . S
H787 C746 0.930 . S
H788 C750 0.929 . S
H789 C752 0.930 . S
H790 C758 0.929 . S
H791 C759 0.930 . S
Li792 N809 1.990 . S
Li792 O852 1.956 . S
Li792 O853 1.970 . S
Li792 O854 1.961 . S
Li793 N817 1.990 . S
Li793 O852 1.970 . S
Li793 O853 1.956 . S
Li793 O855 1.961 . S
Li794 N839 1.990 . S
Li794 O852 1.961 . S
Li794 O854 1.956 . S
Li794 O855 1.970 . S
Li795 N845 1.990 . S
Li795 O853 1.961 . S
Li795 O854 1.970 . S
Li795 O855 1.956 . S
C796 C798 1.348 . S
C796 C799 1.356 . S
C796 O852 1.325 . S
N797 C800 1.314 . S
N797 C801 1.279 . S
C798 C796 1.348 . S
C798 C800 1.353 . S
C798 H856 0.929 . S
C799 C796 1.356 . S
C799 C801 1.358 . S
C799 H857 0.930 . S
C800 N797 1.314 . S
C800 C798 1.353 . S
C800 H858 0.930 . S
C801 N797 1.279 . S
C801 C799 1.358 . S
C801 H859 0.930 . S
C802 C805 1.348 . S
C802 C806 1.356 . S
C802 O853 1.325 . S
C803 N804 1.279 . S
C803 C806 1.358 . S
C803 H860 0.930 . S
N804 C803 1.279 . S
N804 C807 1.314 . S
C805 C802 1.348 . S
C805 C807 1.353 . S
C805 H861 0.929 . S
C806 C802 1.356 . S
C806 C803 1.358 . S
C806 H862 0.930 . S
C807 N804 1.314 . S
C807 C805 1.353 . S
C807 H863 0.930 . S
C808 N809 1.314 . S
C808 C813 1.353 . S
C808 H814 0.930 . S
N809 Li792 1.990 . S
N809 C808 1.314 . S
N809 C811 1.279 . S
C810 C811 1.358 . S
C810 C812 1.356 . S
C810 H864 0.930 . S
C811 N809 1.279 . S
C811 C810 1.358 . S
C811 H815 0.930 . S
C812 C810 1.356 . S
C812 C813 1.348 . S
C813 C808 1.353 . S
C813 C812 1.348 . S
C813 H865 0.929 . S
H814 C808 0.930 . S
H815 C811 0.930 . S
C816 N817 1.314 . S
C816 C818 1.353 . S
C816 H822 0.930 . S
N817 Li793 1.990 . S
N817 C816 1.314 . S
N817 C820 1.279 . S
C818 C816 1.353 . S
C818 C821 1.348 . S
C818 H866 0.929 . S
C819 C820 1.358 . S
C819 C821 1.356 . S
C819 H867 0.930 . S
C820 N817 1.279 . S
C820 C819 1.358 . S
C820 H823 0.930 . S
C821 C818 1.348 . S
C821 C819 1.356 . S
H822 C816 0.930 . S
H823 C820 0.930 . S
C824 C826 1.348 . S
C824 C827 1.356 . S
C824 O854 1.325 . S
N825 C828 1.314 . S
N825 C829 1.279 . S
C826 C824 1.348 . S
C826 C828 1.353 . S
C826 H868 0.929 . S
C827 C824 1.356 . S
C827 C829 1.358 . S
C827 H869 0.930 . S
C828 N825 1.314 . S
C828 C826 1.353 . S
C828 H870 0.930 . S
C829 N825 1.279 . S
C829 C827 1.358 . S
C829 H871 0.930 . S
C830 C831 1.348 . S
C830 C832 1.356 . S
C830 O855 1.325 . S
C831 C830 1.348 . S
C831 C833 1.353 . S
C831 H872 0.929 . S
C832 C830 1.356 . S
C832 C834 1.358 . S
C832 H873 0.930 . S
C833 C831 1.353 . S
C833 N835 1.314 . S
C833 H874 0.930 . S
C834 C832 1.358 . S
C834 N835 1.279 . S
C834 H875 0.930 . S
N835 C833 1.314 . S
N835 C834 1.279 . S
C836 C838 1.353 . S
C836 N839 1.314 . S
C836 H842 0.930 . S
C837 N839 1.279 . S
C837 C840 1.358 . S
C837 H843 0.930 . S
C838 C836 1.353 . S
C838 C841 1.348 . S
C838 H876 0.929 . S
N839 Li794 1.990 . S
N839 C836 1.314 . S
N839 C837 1.279 . S
C840 C837 1.358 . S
C840 C841 1.356 . S
C840 H877 0.930 . S
C841 C838 1.348 . S
C841 C840 1.356 . S
H842 C836 0.930 . S
H843 C837 0.930 . S
C844 N845 1.314 . S
C844 C846 1.353 . S
C844 H850 0.930 . S
N845 Li795 1.990 . S
N845 C844 1.314 . S
N845 C848 1.279 . S
C846 C844 1.353 . S
C846 C849 1.348 . S
C846 H878 0.929 . S
C847 C848 1.358 . S
C847 C849 1.356 . S
C847 H879 0.930 . S
C848 N845 1.279 . S
C848 C847 1.358 . S
C848 H851 0.930 . S
C849 C846 1.348 . S
C849 C847 1.356 . S
H850 C844 0.930 . S
H851 C848 0.930 . S
O852 Li792 1.956 . S
O852 Li793 1.970 . S
O852 Li794 1.961 . S
O852 C796 1.325 . S
O853 Li792 1.970 . S
O853 Li793 1.956 . S
O853 Li795 1.961 . S
O853 C802 1.325 . S
O854 Li792 1.961 . S
O854 Li794 1.956 . S
O854 Li795 1.970 . S
O854 C824 1.325 . S
O855 Li793 1.961 . S
O855 Li794 1.970 . S
O855 Li795 1.956 . S
O855 C830 1.325 . S
H856 C798 0.929 . S
H857 C799 0.930 . S
H858 C800 0.930 . S
H859 C801 0.930 . S
H860 C803 0.930 . S
H861 C805 0.929 . S
H862 C806 0.930 . S
H863 C807 0.930 . S
H864 C810 0.930 . S
H865 C813 0.929 . S
H866 C818 0.929 . S
H867 C819 0.930 . S
H868 C826 0.929 . S
H869 C827 0.930 . S
H870 C828 0.930 . S
H871 C829 0.930 . S
H872 C831 0.929 . S
H873 C832 0.930 . S
H874 C833 0.930 . S
H875 C834 0.930 . S
H876 C838 0.929 . S
H877 C840 0.930 . S
H878 C846 0.929 . S
H879 C847 0.930 . S
Li880 N897 1.990 . S
Li880 O940 1.956 . S
Li880 O941 1.970 . S
Li880 O942 1.961 . S
Li881 N905 1.990 . S
Li881 O940 1.970 . S
Li881 O941 1.956 . S
Li881 O943 1.961 . S
Li882 N927 1.990 1_545 S
Li882 O940 1.961 . S
Li882 O942 1.956 . S
Li882 O943 1.970 . S
Li883 N933 1.990 . S
Li883 O941 1.961 . S
Li883 O942 1.970 . S
Li883 O943 1.956 . S
C884 C886 1.348 . S
C884 C887 1.356 . S
C884 O940 1.325 . S
N885 C888 1.314 . S
N885 C889 1.279 . S
C886 C884 1.348 . S
C886 C888 1.353 . S
C886 H944 0.929 . S
C887 C884 1.356 . S
C887 C889 1.358 . S
C887 H945 0.930 . S
C888 N885 1.314 . S
C888 C886 1.353 . S
C888 H946 0.930 . S
C889 N885 1.279 . S
C889 C887 1.358 . S
C889 H947 0.930 . S
C890 C893 1.348 . S
C890 C894 1.356 . S
C890 O941 1.325 . S
C891 N892 1.279 . S
C891 C894 1.358 . S
C891 H948 0.930 . S
N892 C891 1.279 . S
N892 C895 1.314 . S
C893 C890 1.348 . S
C893 C895 1.353 . S
C893 H949 0.929 . S
C894 C890 1.356 . S
C894 C891 1.358 . S
C894 H950 0.930 . S
C895 N892 1.314 . S
C895 C893 1.353 . S
C895 H951 0.930 . S
C896 N897 1.314 . S
C896 C901 1.353 . S
C896 H902 0.930 . S
N897 Li880 1.990 . S
N897 C896 1.314 . S
N897 C899 1.279 . S
C898 C899 1.358 . S
C898 C900 1.356 . S
C898 H952 0.930 . S
C899 N897 1.279 . S
C899 C898 1.358 . S
C899 H903 0.930 . S
C900 C898 1.356 . S
C900 C901 1.348 . S
C901 C896 1.353 . S
C901 C900 1.348 . S
C901 H953 0.929 . S
H902 C896 0.930 . S
H903 C899 0.930 . S
C904 N905 1.314 . S
C904 C906 1.353 . S
C904 H910 0.930 . S
N905 Li881 1.990 . S
N905 C904 1.314 . S
N905 C908 1.279 . S
C906 C904 1.353 . S
C906 C909 1.348 . S
C906 H954 0.929 . S
C907 C908 1.358 . S
C907 C909 1.356 . S
C907 H955 0.930 . S
C908 N905 1.279 . S
C908 C907 1.358 . S
C908 H911 0.930 . S
C909 C906 1.348 . S
C909 C907 1.356 . S
H910 C904 0.930 . S
H911 C908 0.930 . S
C912 C914 1.348 . S
C912 C915 1.356 . S
C912 O942 1.325 . S
N913 C916 1.314 . S
N913 C917 1.279 . S
C914 C912 1.348 . S
C914 C916 1.353 . S
C914 H956 0.929 . S
C915 C912 1.356 . S
C915 C917 1.358 . S
C915 H957 0.930 . S
C916 N913 1.314 . S
C916 C914 1.353 . S
C916 H958 0.930 . S
C917 N913 1.279 . S
C917 C915 1.358 . S
C917 H959 0.930 . S
C918 C919 1.348 . S
C918 C920 1.356 . S
C918 O943 1.325 1_565 S
C919 C918 1.348 . S
C919 C921 1.353 . S
C919 H960 0.929 . S
C920 C918 1.356 . S
C920 C922 1.358 . S
C920 H961 0.930 1_565 S
C921 C919 1.353 . S
C921 N923 1.314 . S
C921 H962 0.930 . S
C922 C920 1.358 . S
C922 N923 1.279 . S
C922 H963 0.930 . S
N923 C921 1.314 . S
N923 C922 1.279 . S
C924 C926 1.353 . S
C924 N927 1.314 . S
C924 H930 0.930 . S
C925 N927 1.279 . S
C925 C928 1.358 . S
C925 H931 0.930 . S
C926 C924 1.353 . S
C926 C929 1.348 . S
C926 H964 0.929 . S
N927 Li882 1.990 1_565 S
N927 C924 1.314 . S
N927 C925 1.279 . S
C928 C925 1.358 . S
C928 C929 1.356 . S
C928 H965 0.930 . S
C929 C926 1.348 . S
C929 C928 1.356 . S
H930 C924 0.930 . S
H931 C925 0.930 . S
C932 N933 1.314 . S
C932 C934 1.353 . S
C932 H938 0.930 . S
N933 Li883 1.990 . S
N933 C932 1.314 . S
N933 C936 1.279 . S
C934 C932 1.353 . S
C934 C937 1.348 . S
C934 H966 0.929 . S
C935 C936 1.358 . S
C935 C937 1.356 . S
C935 H967 0.930 1_545 S
C936 N933 1.279 . S
C936 C935 1.358 . S
C936 H939 0.922 1_545 S
C937 C934 1.348 . S
C937 C935 1.356 . S
H938 C932 0.930 . S
H939 C936 0.922 1_565 S
O940 Li880 1.956 . S
O940 Li881 1.970 . S
O940 Li882 1.961 . S
O940 C884 1.325 . S
O941 Li880 1.970 . S
O941 Li881 1.956 . S
O941 Li883 1.961 . S
O941 C890 1.325 . S
O942 Li880 1.961 . S
O942 Li882 1.956 . S
O942 Li883 1.970 . S
O942 C912 1.325 . S
O943 Li881 1.961 . S
O943 Li882 1.970 . S
O943 Li883 1.956 . S
O943 C918 1.325 1_545 S
H944 C886 0.929 . S
H945 C887 0.930 . S
H946 C888 0.930 . S
H947 C889 0.930 . S
H948 C891 0.930 . S
H949 C893 0.929 . S
H950 C894 0.930 . S
H951 C895 0.930 . S
H952 C898 0.930 . S
H953 C901 0.929 . S
H954 C906 0.929 . S
H955 C907 0.930 . S
H956 C914 0.929 . S
H957 C915 0.930 . S
H958 C916 0.930 . S
H959 C917 0.930 . S
H960 C919 0.929 . S
H961 C920 0.930 1_545 S
H962 C921 0.930 . S
H963 C922 0.930 . S
H964 C926 0.929 . S
H965 C928 0.930 . S
H966 C934 0.929 . S
H967 C935 0.930 1_565 S
Li968 N985 1.990 . S
Li968 O1028 1.979 . S
Li968 O1029 1.971 1_554 S
Li968 O1030 1.934 1_554 S
Li969 N993 1.990 . S
Li969 O1028 1.970 . S
Li969 O1029 1.956 1_554 S
Li969 O1031 1.996 . S
Li970 N1015 1.990 . S
Li970 O1028 1.961 . S
Li970 O1030 1.956 1_554 S
Li970 O1031 1.967 . S
Li971 N1021 1.990 . S
Li971 O1029 1.961 . S
Li971 O1030 1.970 . S
Li971 O1031 1.923 1_556 S
C972 C974 1.348 . S
C972 C975 1.356 . S
C972 O1028 1.325 . S
N973 C976 1.314 . S
N973 C977 1.279 . S
C974 C972 1.348 . S
C974 C976 1.353 . S
C974 H1032 0.929 . S
C975 C972 1.356 . S
C975 C977 1.358 . S
C975 H1033 0.930 . S
C976 N973 1.314 . S
C976 C974 1.353 . S
C976 H1034 0.930 . S
C977 N973 1.279 . S
C977 C975 1.358 . S
C977 H1035 0.930 . S
C978 C981 1.348 1_556 S
C978 C982 1.356 . S
C978 O1029 1.325 . S
C979 N980 1.279 . S
C979 C982 1.358 . S
C979 H1036 0.930 . S
N980 C979 1.279 . S
N980 C983 1.323 . S
C981 C978 1.348 1_554 S
C981 C983 1.357 1_554 S
C981 H1037 0.929 . S
C982 C978 1.356 . S
C982 C979 1.358 . S
C982 H1038 0.930 . S
C983 N980 1.323 . S
C983 C981 1.357 1_556 S
C983 H1039 0.918 1_556 S
C984 N985 1.271 1_556 S
C984 C989 1.353 . S
C984 H990 0.930 . S
N985 Li968 1.990 . S
N985 C984 1.271 1_554 S
N985 C987 1.323 . S
C986 C987 1.358 . S
C986 C988 1.344 1_554 S
C986 H1040 0.930 . S
C987 N985 1.323 . S
C987 C986 1.358 . S
C987 H991 0.930 . S
C988 C986 1.344 1_556 S
C988 C989 1.361 . S
C989 C984 1.353 . S
C989 C988 1.361 . S
C989 H1041 0.929 . S
H990 C984 0.930 . S
H991 C987 0.930 . S
C992 N993 1.314 . S
C992 C994 1.353 . S
C992 H998 0.930 . S
N993 Li969 1.990 . S
N993 C992 1.314 . S
N993 C996 1.279 . S
C994 C992 1.353 . S
C994 C997 1.348 . S
C994 H1042 0.929 . S
C995 C996 1.358 . S
C995 C997 1.356 . S
C995 H1043 0.930 . S
C996 N993 1.279 . S
C996 C995 1.358 . S
C996 H999 0.930 . S
C997 C994 1.348 . S
C997 C995 1.356 . S
H998 C992 0.930 . S
H999 C996 0.930 . S
C1000 C1002 1.348 . S
C1000 C1003 1.356 . S
C1000 O1030 1.325 . S
N1001 C1004 1.314 . S
N1001 C1005 1.279 . S
C1002 C1000 1.348 . S
C1002 C1004 1.353 . S
C1002 H1044 0.929 . S
C1003 C1000 1.356 . S
C1003 C1005 1.358 . S
C1003 H1045 0.930 . S
C1004 N1001 1.314 . S
C1004 C1002 1.353 . S
C1004 H1046 0.930 . S
C1005 N1001 1.279 . S
C1005 C1003 1.358 . S
C1005 H1047 0.930 . S
C1006 C1007 1.341 1_554 S
C1006 C1008 1.360 . S
C1006 O1031 1.324 . S
C1007 C1006 1.341 1_556 S
C1007 C1009 1.353 . S
C1007 H1048 0.929 . S
C1008 C1006 1.360 . S
C1008 C1010 1.358 . S
C1008 H1049 0.930 . S
C1009 C1007 1.353 . S
C1009 N1011 1.314 . S
C1009 H1050 0.930 . S
C1010 C1008 1.358 . S
C1010 N1011 1.279 1_554 S
C1010 H1051 0.930 . S
N1011 C1009 1.314 . S
N1011 C1010 1.279 1_556 S
C1012 C1014 1.353 . S
C1012 N1015 1.314 . S
C1012 H1018 0.930 . S
C1013 N1015 1.279 1_556 S
C1013 C1016 1.358 . S
C1013 H1019 0.930 . S
C1014 C1012 1.353 . S
C1014 C1017 1.348 . S
C1014 H1052 0.929 . S
N1015 Li970 1.990 . S
N1015 C1012 1.314 . S
N1015 C1013 1.279 1_554 S
C1016 C1013 1.358 . S
C1016 C1017 1.356 1_556 S
C1016 H1053 0.930 . S
C1017 C1014 1.348 . S
C1017 C1016 1.356 1_554 S
H1018 C1012 0.930 . S
H1019 C1013 0.930 . S
C1020 N1021 1.314 . S
C1020 C1022 1.353 . S
C1020 H1026 0.930 . S
N1021 Li971 1.990 . S
N1021 C1020 1.314 . S
N1021 C1024 1.279 . S
C1022 C1020 1.353 . S
C1022 C1025 1.348 . S
C1022 H1054 0.929 . S
C1023 C1024 1.358 . S
C1023 C1025 1.356 . S
C1023 H1055 0.930 . S
C1024 N1021 1.279 . S
C1024 C1023 1.358 . S
C1024 H1027 0.930 . S
C1025 C1022 1.348 . S
C1025 C1023 1.356 . S
H1026 C1020 0.930 . S
H1027 C1024 0.930 . S
O1028 Li968 1.979 . S
O1028 Li969 1.970 . S
O1028 Li970 1.961 . S
O1028 C972 1.325 . S
O1029 Li968 1.971 1_556 S
O1029 Li969 1.956 1_556 S
O1029 Li971 1.961 . S
O1029 C978 1.325 . S
O1030 Li968 1.934 1_556 S
O1030 Li970 1.956 1_556 S
O1030 Li971 1.970 . S
O1030 C1000 1.325 . S
O1031 Li969 1.996 . S
O1031 Li970 1.967 . S
O1031 Li971 1.923 1_554 S
O1031 C1006 1.324 . S
H1032 C974 0.929 . S
H1033 C975 0.930 . S
H1034 C976 0.930 . S
H1035 C977 0.930 . S
H1036 C979 0.930 . S
H1037 C981 0.929 . S
H1038 C982 0.930 . S
H1039 C983 0.918 1_554 S
H1040 C986 0.930 . S
H1041 C989 0.929 . S
H1042 C994 0.929 . S
H1043 C995 0.930 . S
H1044 C1002 0.929 . S
H1045 C1003 0.930 . S
H1046 C1004 0.930 . S
H1047 C1005 0.930 . S
H1048 C1007 0.929 . S
H1049 C1008 0.930 . S
H1050 C1009 0.930 . S
H1051 C1010 0.930 . S
H1052 C1014 0.929 . S
H1053 C1016 0.930 . S
H1054 C1022 0.929 . S
H1055 C1023 0.930 . S
Li1056 N1073 1.990 . S
Li1056 O1116 1.956 . S
Li1056 O1117 1.970 . S
Li1056 O1118 1.961 . S
Li1057 N1081 1.990 . S
Li1057 O1116 1.970 . S
Li1057 O1117 1.956 . S
Li1057 O1119 1.961 . S
Li1058 N1103 1.990 . S
Li1058 O1116 1.961 . S
Li1058 O1118 1.956 . S
Li1058 O1119 1.970 . S
Li1059 N1109 1.990 1_554 S
Li1059 O1117 1.961 . S
Li1059 O1118 1.970 . S
Li1059 O1119 1.956 . S
C1060 C1062 1.348 . S
C1060 C1063 1.356 . S
C1060 O1116 1.325 . S
N1061 C1064 1.314 . S
N1061 C1065 1.279 . S
C1062 C1060 1.348 . S
C1062 C1064 1.353 . S
C1062 H1120 0.929 . S
C1063 C1060 1.356 . S
C1063 C1065 1.358 . S
C1063 H1121 0.930 . S
C1064 N1061 1.314 . S
C1064 C1062 1.353 . S
C1064 H1122 0.930 . S
C1065 N1061 1.279 . S
C1065 C1063 1.358 . S
C1065 H1123 0.930 . S
C1066 C1069 1.348 . S
C1066 C1070 1.356 . S
C1066 O1117 1.325 . S
C1067 N1068 1.279 . S
C1067 C1070 1.358 . S
C1067 H1124 0.930 . S
N1068 C1067 1.279 . S
N1068 C1071 1.314 . S
C1069 C1066 1.348 . S
C1069 C1071 1.353 . S
C1069 H1125 0.929 . S
C1070 C1066 1.356 . S
C1070 C1067 1.358 . S
C1070 H1126 0.930 . S
C1071 N1068 1.314 . S
C1071 C1069 1.353 . S
C1071 H1127 0.930 . S
C1072 N1073 1.314 . S
C1072 C1077 1.353 . S
C1072 H1078 0.930 . S
N1073 Li1056 1.990 . S
N1073 C1072 1.314 . S
N1073 C1075 1.279 . S
C1074 C1075 1.358 . S
C1074 C1076 1.356 . S
C1074 H1128 0.930 . S
C1075 N1073 1.279 . S
C1075 C1074 1.358 . S
C1075 H1079 0.930 . S
C1076 C1074 1.356 . S
C1076 C1077 1.348 . S
C1077 C1072 1.353 . S
C1077 C1076 1.348 . S
C1077 H1129 0.929 . S
H1078 C1072 0.930 . S
H1079 C1075 0.930 . S
C1080 N1081 1.314 . S
C1080 C1082 1.353 . S
C1080 H1086 0.930 . S
N1081 Li1057 1.990 . S
N1081 C1080 1.314 . S
N1081 C1084 1.279 . S
C1082 C1080 1.353 . S
C1082 C1085 1.348 . S
C1082 H1130 0.929 . S
C1083 C1084 1.358 . S
C1083 C1085 1.356 . S
C1083 H1131 0.930 . S
C1084 N1081 1.279 . S
C1084 C1083 1.358 . S
C1084 H1087 0.930 . S
C1085 C1082 1.348 . S
C1085 C1083 1.356 . S
H1086 C1080 0.930 . S
H1087 C1084 0.930 . S
C1088 C1090 1.348 1_554 S
C1088 C1091 1.356 . S
C1088 O1118 1.325 . S
N1089 C1092 1.314 . S
N1089 C1093 1.279 . S
C1090 C1088 1.348 1_556 S
C1090 C1092 1.353 . S
C1090 H1132 0.929 . S
C1091 C1088 1.356 . S
C1091 C1093 1.358 1_554 S
C1091 H1133 0.930 . S
C1092 N1089 1.314 . S
C1092 C1090 1.353 . S
C1092 H1134 0.930 . S
C1093 N1089 1.279 . S
C1093 C1091 1.358 1_556 S
C1093 H1135 0.930 . S
C1094 C1095 1.348 . S
C1094 C1096 1.356 . S
C1094 O1119 1.325 . S
C1095 C1094 1.348 . S
C1095 C1097 1.353 . S
C1095 H1136 0.929 . S
C1096 C1094 1.356 . S
C1096 C1098 1.358 . S
C1096 H1137 0.930 . S
C1097 C1095 1.353 . S
C1097 N1099 1.314 . S
C1097 H1138 0.930 . S
C1098 C1096 1.358 . S
C1098 N1099 1.279 . S
C1098 H1139 0.930 . S
N1099 C1097 1.314 . S
N1099 C1098 1.279 . S
C1100 C1102 1.353 . S
C1100 N1103 1.314 . S
C1100 H1106 0.930 . S
C1101 N1103 1.279 . S
C1101 C1104 1.358 . S
C1101 H1107 0.930 . S
C1102 C1100 1.353 . S
C1102 C1105 1.348 . S
C1102 H1140 0.929 . S
N1103 Li1058 1.990 . S
N1103 C1100 1.314 . S
N1103 C1101 1.279 . S
C1104 C1101 1.358 . S
C1104 C1105 1.356 . S
C1104 H1141 0.930 . S
C1105 C1102 1.348 . S
C1105 C1104 1.356 . S
H1106 C1100 0.930 . S
H1107 C1101 0.930 . S
C1108 N1109 1.314 . S
C1108 C1110 1.353 . S
C1108 H1114 0.930 . S
N1109 Li1059 1.990 1_556 S
N1109 C1108 1.314 . S
N1109 C1112 1.279 . S
C1110 C1108 1.353 . S
C1110 C1113 1.348 . S
C1110 H1142 0.929 . S
C1111 C1112 1.358 . S
C1111 C1113 1.356 . S
C1111 H1143 0.930 . S
C1112 N1109 1.279 . S
C1112 C1111 1.358 . S
C1112 H1115 0.930 . S
C1113 C1110 1.348 . S
C1113 C1111 1.356 . S
H1114 C1108 0.930 . S
H1115 C1112 0.930 . S
O1116 Li1056 1.956 . S
O1116 Li1057 1.970 . S
O1116 Li1058 1.961 . S
O1116 C1060 1.325 . S
O1117 Li1056 1.970 . S
O1117 Li1057 1.956 . S
O1117 Li1059 1.961 . S
O1117 C1066 1.325 . S
O1118 Li1056 1.961 . S
O1118 Li1058 1.956 . S
O1118 Li1059 1.970 . S
O1118 C1088 1.325 . S
O1119 Li1057 1.961 . S
O1119 Li1058 1.970 . S
O1119 Li1059 1.956 . S
O1119 C1094 1.325 . S
H1120 C1062 0.929 . S
H1121 C1063 0.930 . S
H1122 C1064 0.930 . S
H1123 C1065 0.930 . S
H1124 C1067 0.930 . S
H1125 C1069 0.929 . S
H1126 C1070 0.930 . S
H1127 C1071 0.930 . S
H1128 C1074 0.930 . S
H1129 C1077 0.929 . S
H1130 C1082 0.929 . S
H1131 C1083 0.930 . S
H1132 C1090 0.929 . S
H1133 C1091 0.930 . S
H1134 C1092 0.930 . S
H1135 C1093 0.930 . S
H1136 C1095 0.929 . S
H1137 C1096 0.930 . S
H1138 C1097 0.930 . S
H1139 C1098 0.930 . S
H1140 C1102 0.929 . S
H1141 C1104 0.930 . S
H1142 C1110 0.929 . S
H1143 C1111 0.930 . S
Li1144 N1161 1.990 . S
Li1144 O1204 1.956 . S
Li1144 O1205 1.970 . S
Li1144 O1206 1.961 . S
Li1145 N1169 1.990 . S
Li1145 O1204 1.970 . S
Li1145 O1205 1.956 . S
Li1145 O1207 1.961 . S
Li1146 N1191 1.990 . S
Li1146 O1204 1.961 . S
Li1146 O1206 1.956 . S
Li1146 O1207 1.970 . S
Li1147 N1197 1.990 . S
Li1147 O1205 1.961 . S
Li1147 O1206 1.970 . S
Li1147 O1207 1.956 . S
C1148 C1150 1.348 . S
C1148 C1151 1.356 . S
C1148 O1204 1.325 . S
N1149 C1152 1.314 . S
N1149 C1153 1.279 . S
C1150 C1148 1.348 . S
C1150 C1152 1.353 . S
C1150 H1208 0.929 . S
C1151 C1148 1.356 . S
C1151 C1153 1.358 . S
C1151 H1209 0.930 . S
C1152 N1149 1.314 . S
C1152 C1150 1.353 . S
C1152 H1210 0.930 . S
C1153 N1149 1.279 . S
C1153 C1151 1.358 . S
C1153 H1211 0.930 . S
C1154 C1157 1.348 . S
C1154 C1158 1.356 . S
C1154 O1205 1.325 . S
C1155 N1156 1.279 . S
C1155 C1158 1.358 . S
C1155 H1212 0.930 . S
N1156 C1155 1.279 . S
N1156 C1159 1.314 . S
C1157 C1154 1.348 . S
C1157 C1159 1.353 . S
C1157 H1213 0.929 . S
C1158 C1154 1.356 . S
C1158 C1155 1.358 . S
C1158 H1214 0.930 . S
C1159 N1156 1.314 . S
C1159 C1157 1.353 . S
C1159 H1215 0.930 . S
C1160 N1161 1.314 . S
C1160 C1165 1.353 . S
C1160 H1166 0.930 . S
N1161 Li1144 1.990 . S
N1161 C1160 1.314 . S
N1161 C1163 1.279 . S
C1162 C1163 1.358 . S
C1162 C1164 1.356 . S
C1162 H1216 0.930 . S
C1163 N1161 1.279 . S
C1163 C1162 1.358 . S
C1163 H1167 0.930 . S
C1164 C1162 1.356 . S
C1164 C1165 1.348 . S
C1165 C1160 1.353 . S
C1165 C1164 1.348 . S
C1165 H1217 0.929 . S
H1166 C1160 0.930 . S
H1167 C1163 0.930 . S
C1168 N1169 1.314 . S
C1168 C1170 1.353 . S
C1168 H1174 0.930 . S
N1169 Li1145 1.990 . S
N1169 C1168 1.314 . S
N1169 C1172 1.279 . S
C1170 C1168 1.353 . S
C1170 C1173 1.348 . S
C1170 H1218 0.929 . S
C1171 C1172 1.358 . S
C1171 C1173 1.356 . S
C1171 H1219 0.930 . S
C1172 N1169 1.279 . S
C1172 C1171 1.358 . S
C1172 H1175 0.930 . S
C1173 C1170 1.348 . S
C1173 C1171 1.356 . S
H1174 C1168 0.930 . S
H1175 C1172 0.930 . S
C1176 C1178 1.348 . S
C1176 C1179 1.356 . S
C1176 O1206 1.325 . S
N1177 C1180 1.314 . S
N1177 C1181 1.279 . S
C1178 C1176 1.348 . S
C1178 C1180 1.353 . S
C1178 H1220 0.929 . S
C1179 C1176 1.356 . S
C1179 C1181 1.358 . S
C1179 H1221 0.930 . S
C1180 N1177 1.314 . S
C1180 C1178 1.353 . S
C1180 H1222 0.930 . S
C1181 N1177 1.279 . S
C1181 C1179 1.358 . S
C1181 H1223 0.930 . S
C1182 C1183 1.348 1_554 S
C1182 C1184 1.356 . S
C1182 O1207 1.325 . S
C1183 C1182 1.348 1_556 S
C1183 C1185 1.353 . S
C1183 H1224 0.929 . S
C1184 C1182 1.356 . S
C1184 C1186 1.358 1_554 S
C1184 H1225 0.930 . S
C1185 C1183 1.353 . S
C1185 N1187 1.314 . S
C1185 H1226 0.930 . S
C1186 C1184 1.358 1_556 S
C1186 N1187 1.279 . S
C1186 H1227 0.930 . S
N1187 C1185 1.314 . S
N1187 C1186 1.279 . S
C1188 C1190 1.353 . S
C1188 N1191 1.314 1_556 S
C1188 H1194 0.925 1_556 S
C1189 N1191 1.279 1_556 S
C1189 C1192 1.358 . S
C1189 H1195 0.930 1_556 S
C1190 C1188 1.353 . S
C1190 C1193 1.348 . S
C1190 H1228 0.929 . S
N1191 Li1146 1.990 . S
N1191 C1188 1.314 1_554 S
N1191 C1189 1.279 1_554 S
C1192 C1189 1.358 . S
C1192 C1193 1.356 . S
C1192 H1229 0.930 . S
C1193 C1190 1.348 . S
C1193 C1192 1.356 . S
H1194 C1188 0.925 1_554 S
H1195 C1189 0.930 1_554 S
C1196 N1197 1.314 . S
C1196 C1198 1.353 . S
C1196 H1202 0.930 . S
N1197 Li1147 1.990 . S
N1197 C1196 1.314 . S
N1197 C1200 1.279 . S
C1198 C1196 1.353 . S
C1198 C1201 1.348 . S
C1198 H1230 0.929 . S
C1199 C1200 1.358 . S
C1199 C1201 1.356 . S
C1199 H1231 0.930 . S
C1200 N1197 1.279 . S
C1200 C1199 1.358 . S
C1200 H1203 0.930 . S
C1201 C1198 1.348 . S
C1201 C1199 1.356 . S
H1202 C1196 0.930 . S
H1203 C1200 0.930 . S
O1204 Li1144 1.956 . S
O1204 Li1145 1.970 . S
O1204 Li1146 1.961 . S
O1204 C1148 1.325 . S
O1205 Li1144 1.970 . S
O1205 Li1145 1.956 . S
O1205 Li1147 1.961 . S
O1205 C1154 1.325 . S
O1206 Li1144 1.961 . S
O1206 Li1146 1.956 . S
O1206 Li1147 1.970 . S
O1206 C1176 1.325 . S
O1207 Li1145 1.961 . S
O1207 Li1146 1.970 . S
O1207 Li1147 1.956 . S
O1207 C1182 1.325 . S
H1208 C1150 0.929 . S
H1209 C1151 0.930 . S
H1210 C1152 0.930 . S
H1211 C1153 0.930 . S
H1212 C1155 0.930 . S
H1213 C1157 0.929 . S
H1214 C1158 0.930 . S
H1215 C1159 0.930 . S
H1216 C1162 0.930 . S
H1217 C1165 0.929 . S
H1218 C1170 0.929 . S
H1219 C1171 0.930 . S
H1220 C1178 0.929 . S
H1221 C1179 0.930 . S
H1222 C1180 0.930 . S
H1223 C1181 0.930 . S
H1224 C1183 0.929 . S
H1225 C1184 0.930 . S
H1226 C1185 0.930 . S
H1227 C1186 0.930 . S
H1228 C1190 0.929 . S
H1229 C1192 0.930 . S
H1230 C1198 0.929 . S
H1231 C1199 0.930 . S
Li1232 N1249 1.990 . S
Li1232 O1292 1.956 . S
Li1232 O1293 1.970 . S
Li1232 O1294 1.961 . S
Li1233 N1257 1.990 . S
Li1233 O1292 1.970 . S
Li1233 O1293 1.956 . S
Li1233 O1295 1.961 . S
Li1234 N1279 1.990 . S
Li1234 O1292 1.961 . S
Li1234 O1294 1.956 . S
Li1234 O1295 1.970 . S
Li1235 N1285 1.990 . S
Li1235 O1293 1.961 . S
Li1235 O1294 1.970 . S
Li1235 O1295 1.956 . S
C1236 C1238 1.348 . S
C1236 C1239 1.356 . S
C1236 O1292 1.325 . S
N1237 C1240 1.314 . S
N1237 C1241 1.279 . S
C1238 C1236 1.348 . S
C1238 C1240 1.353 . S
C1238 H1296 0.929 . S
C1239 C1236 1.356 . S
C1239 C1241 1.358 . S
C1239 H1297 0.930 . S
C1240 N1237 1.314 . S
C1240 C1238 1.353 . S
C1240 H1298 0.930 . S
C1241 N1237 1.279 . S
C1241 C1239 1.358 . S
C1241 H1299 0.930 . S
C1242 C1245 1.348 . S
C1242 C1246 1.356 . S
C1242 O1293 1.325 . S
C1243 N1244 1.279 . S
C1243 C1246 1.358 . S
C1243 H1300 0.930 . S
N1244 C1243 1.279 . S
N1244 C1247 1.314 . S
C1245 C1242 1.348 . S
C1245 C1247 1.353 . S
C1245 H1301 0.929 . S
C1246 C1242 1.356 . S
C1246 C1243 1.358 . S
C1246 H1302 0.930 . S
C1247 N1244 1.314 . S
C1247 C1245 1.353 . S
C1247 H1303 0.930 . S
C1248 N1249 1.314 . S
C1248 C1253 1.353 . S
C1248 H1254 0.930 . S
N1249 Li1232 1.990 . S
N1249 C1248 1.314 . S
N1249 C1251 1.279 . S
C1250 C1251 1.358 . S
C1250 C1252 1.356 . S
C1250 H1304 0.930 . S
C1251 N1249 1.279 . S
C1251 C1250 1.358 . S
C1251 H1255 0.930 . S
C1252 C1250 1.356 . S
C1252 C1253 1.348 . S
C1253 C1248 1.353 . S
C1253 C1252 1.348 . S
C1253 H1305 0.929 . S
H1254 C1248 0.930 . S
H1255 C1251 0.930 . S
C1256 N1257 1.314 . S
C1256 C1258 1.353 . S
C1256 H1262 0.930 . S
N1257 Li1233 1.990 . S
N1257 C1256 1.314 . S
N1257 C1260 1.279 . S
C1258 C1256 1.353 . S
C1258 C1261 1.348 . S
C1258 H1306 0.929 . S
C1259 C1260 1.358 . S
C1259 C1261 1.356 . S
C1259 H1307 0.930 . S
C1260 N1257 1.279 . S
C1260 C1259 1.358 . S
C1260 H1263 0.930 . S
C1261 C1258 1.348 . S
C1261 C1259 1.356 . S
H1262 C1256 0.930 . S
H1263 C1260 0.930 . S
C1264 C1266 1.348 . S
C1264 C1267 1.356 . S
C1264 O1294 1.325 . S
N1265 C1268 1.314 . S
N1265 C1269 1.279 . S
C1266 C1264 1.348 . S
C1266 C1268 1.353 . S
C1266 H1308 0.929 . S
C1267 C1264 1.356 . S
C1267 C1269 1.358 . S
C1267 H1309 0.930 . S
C1268 N1265 1.314 . S
C1268 C1266 1.353 . S
C1268 H1310 0.930 . S
C1269 N1265 1.279 . S
C1269 C1267 1.358 . S
C1269 H1311 0.930 . S
C1270 C1271 1.348 . S
C1270 C1272 1.356 . S
C1270 O1295 1.325 . S
C1271 C1270 1.348 . S
C1271 C1273 1.353 . S
C1271 H1312 0.929 . S
C1272 C1270 1.356 . S
C1272 C1274 1.358 . S
C1272 H1313 0.930 . S
C1273 C1271 1.353 . S
C1273 N1275 1.314 . S
C1273 H1314 0.930 . S
C1274 C1272 1.358 . S
C1274 N1275 1.279 . S
C1274 H1315 0.930 . S
N1275 C1273 1.314 . S
N1275 C1274 1.279 . S
C1276 C1278 1.353 . S
C1276 N1279 1.314 . S
C1276 H1282 0.930 . S
C1277 N1279 1.279 . S
C1277 C1280 1.358 . S
C1277 H1283 0.930 . S
C1278 C1276 1.353 . S
C1278 C1281 1.348 . S
C1278 H1316 0.929 . S
N1279 Li1234 1.990 . S
N1279 C1276 1.314 . S
N1279 C1277 1.279 . S
C1280 C1277 1.358 . S
C1280 C1281 1.356 . S
C1280 H1317 0.930 . S
C1281 C1278 1.348 . S
C1281 C1280 1.356 . S
H1282 C1276 0.930 . S
H1283 C1277 0.930 . S
C1284 N1285 1.314 . S
C1284 C1286 1.353 . S
C1284 H1290 0.930 . S
N1285 Li1235 1.990 . S
N1285 C1284 1.314 . S
N1285 C1288 1.279 . S
C1286 C1284 1.353 . S
C1286 C1289 1.348 . S
C1286 H1318 0.929 . S
C1287 C1288 1.358 . S
C1287 C1289 1.356 . S
C1287 H1319 0.930 . S
C1288 N1285 1.279 . S
C1288 C1287 1.358 . S
C1288 H1291 0.930 . S
C1289 C1286 1.348 . S
C1289 C1287 1.356 . S
H1290 C1284 0.930 . S
H1291 C1288 0.930 . S
O1292 Li1232 1.956 . S
O1292 Li1233 1.970 . S
O1292 Li1234 1.961 . S
O1292 C1236 1.325 . S
O1293 Li1232 1.970 . S
O1293 Li1233 1.956 . S
O1293 Li1235 1.961 . S
O1293 C1242 1.325 . S
O1294 Li1232 1.961 . S
O1294 Li1234 1.956 . S
O1294 Li1235 1.970 . S
O1294 C1264 1.325 . S
O1295 Li1233 1.961 . S
O1295 Li1234 1.970 . S
O1295 Li1235 1.956 . S
O1295 C1270 1.325 . S
H1296 C1238 0.929 . S
H1297 C1239 0.930 . S
H1298 C1240 0.930 . S
H1299 C1241 0.930 . S
H1300 C1243 0.930 . S
H1301 C1245 0.929 . S
H1302 C1246 0.930 . S
H1303 C1247 0.930 . S
H1304 C1250 0.930 . S
H1305 C1253 0.929 . S
H1306 C1258 0.929 . S
H1307 C1259 0.930 . S
H1308 C1266 0.929 . S
H1309 C1267 0.930 . S
H1310 C1268 0.930 . S
H1311 C1269 0.930 . S
H1312 C1271 0.929 . S
H1313 C1272 0.930 . S
H1314 C1273 0.930 . S
H1315 C1274 0.930 . S
H1316 C1278 0.929 . S
H1317 C1280 0.930 . S
H1318 C1286 0.929 . S
H1319 C1287 0.930 . S
Li1320 N1337 1.990 . S
Li1320 O1380 1.956 . S
Li1320 O1381 1.970 . S
Li1320 O1382 1.961 . S
Li1321 N1345 1.990 . S
Li1321 O1380 1.970 . S
Li1321 O1381 1.956 . S
Li1321 O1383 1.961 . S
Li1322 N1367 1.990 . S
Li1322 O1380 1.961 . S
Li1322 O1382 1.956 . S
Li1322 O1383 1.970 . S
Li1323 N1373 1.990 . S
Li1323 O1381 1.961 . S
Li1323 O1382 1.970 . S
Li1323 O1383 1.956 . S
C1324 C1326 1.348 . S
C1324 C1327 1.356 . S
C1324 O1380 1.325 . S
N1325 C1328 1.314 . S
N1325 C1329 1.279 . S
C1326 C1324 1.348 . S
C1326 C1328 1.353 . S
C1326 H1384 0.929 . S
C1327 C1324 1.356 . S
C1327 C1329 1.358 . S
C1327 H1385 0.930 . S
C1328 N1325 1.314 . S
C1328 C1326 1.353 . S
C1328 H1386 0.930 . S
C1329 N1325 1.279 . S
C1329 C1327 1.358 . S
C1329 H1387 0.930 . S
C1330 C1333 1.348 . S
C1330 C1334 1.356 . S
C1330 O1381 1.325 . S
C1331 N1332 1.279 . S
C1331 C1334 1.358 . S
C1331 H1388 0.930 . S
N1332 C1331 1.279 . S
N1332 C1335 1.314 . S
C1333 C1330 1.348 . S
C1333 C1335 1.353 . S
C1333 H1389 0.929 . S
C1334 C1330 1.356 . S
C1334 C1331 1.358 . S
C1334 H1390 0.930 . S
C1335 N1332 1.314 . S
C1335 C1333 1.353 . S
C1335 H1391 0.930 . S
C1336 N1337 1.314 . S
C1336 C1341 1.353 . S
C1336 H1342 0.930 . S
N1337 Li1320 1.990 . S
N1337 C1336 1.314 . S
N1337 C1339 1.279 . S
C1338 C1339 1.358 . S
C1338 C1340 1.356 . S
C1338 H1392 0.930 . S
C1339 N1337 1.279 . S
C1339 C1338 1.358 . S
C1339 H1343 0.930 . S
C1340 C1338 1.356 . S
C1340 C1341 1.348 . S
C1341 C1336 1.353 . S
C1341 C1340 1.348 . S
C1341 H1393 0.929 . S
H1342 C1336 0.930 . S
H1343 C1339 0.930 . S
C1344 N1345 1.314 . S
C1344 C1346 1.353 . S
C1344 H1350 0.930 . S
N1345 Li1321 1.990 . S
N1345 C1344 1.314 . S
N1345 C1348 1.279 . S
C1346 C1344 1.353 . S
C1346 C1349 1.348 . S
C1346 H1394 0.929 . S
C1347 C1348 1.358 . S
C1347 C1349 1.356 . S
C1347 H1395 0.930 . S
C1348 N1345 1.279 . S
C1348 C1347 1.358 . S
C1348 H1351 0.930 . S
C1349 C1346 1.348 . S
C1349 C1347 1.356 . S
H1350 C1344 0.930 . S
H1351 C1348 0.930 . S
C1352 C1354 1.348 . S
C1352 C1355 1.356 . S
C1352 O1382 1.325 . S
N1353 C1356 1.314 . S
N1353 C1357 1.279 . S
C1354 C1352 1.348 . S
C1354 C1356 1.353 . S
C1354 H1396 0.929 . S
C1355 C1352 1.356 . S
C1355 C1357 1.358 . S
C1355 H1397 0.930 . S
C1356 N1353 1.314 . S
C1356 C1354 1.353 . S
C1356 H1398 0.930 . S
C1357 N1353 1.279 . S
C1357 C1355 1.358 . S
C1357 H1399 0.930 . S
C1358 C1359 1.348 . S
C1358 C1360 1.356 . S
C1358 O1383 1.325 . S
C1359 C1358 1.348 . S
C1359 C1361 1.353 . S
C1359 H1400 0.929 . S
C1360 C1358 1.356 . S
C1360 C1362 1.358 . S
C1360 H1401 0.930 . S
C1361 C1359 1.353 . S
C1361 N1363 1.314 . S
C1361 H1402 0.930 . S
C1362 C1360 1.358 . S
C1362 N1363 1.279 . S
C1362 H1403 0.930 . S
N1363 C1361 1.314 . S
N1363 C1362 1.279 . S
C1364 C1366 1.353 . S
C1364 N1367 1.314 . S
C1364 H1370 0.930 . S
C1365 N1367 1.279 . S
C1365 C1368 1.358 . S
C1365 H1371 0.930 . S
C1366 C1364 1.353 . S
C1366 C1369 1.348 . S
C1366 H1404 0.929 . S
N1367 Li1322 1.990 . S
N1367 C1364 1.314 . S
N1367 C1365 1.279 . S
C1368 C1365 1.358 . S
C1368 C1369 1.356 . S
C1368 H1405 0.930 . S
C1369 C1366 1.348 . S
C1369 C1368 1.356 . S
H1370 C1364 0.930 . S
H1371 C1365 0.930 . S
C1372 N1373 1.314 . S
C1372 C1374 1.353 . S
C1372 H1378 0.930 . S
N1373 Li1323 1.990 . S
N1373 C1372 1.314 . S
N1373 C1376 1.279 . S
C1374 C1372 1.353 . S
C1374 C1377 1.348 . S
C1374 H1406 0.929 . S
C1375 C1376 1.358 . S
C1375 C1377 1.356 . S
C1375 H1407 0.930 . S
C1376 N1373 1.279 . S
C1376 C1375 1.358 . S
C1376 H1379 0.930 . S
C1377 C1374 1.348 . S
C1377 C1375 1.356 . S
H1378 C1372 0.930 . S
H1379 C1376 0.930 . S
O1380 Li1320 1.956 . S
O1380 Li1321 1.970 . S
O1380 Li1322 1.961 . S
O1380 C1324 1.325 . S
O1381 Li1320 1.970 . S
O1381 Li1321 1.956 . S
O1381 Li1323 1.961 . S
O1381 C1330 1.325 . S
O1382 Li1320 1.961 . S
O1382 Li1322 1.956 . S
O1382 Li1323 1.970 . S
O1382 C1352 1.325 . S
O1383 Li1321 1.961 . S
O1383 Li1322 1.970 . S
O1383 Li1323 1.956 . S
O1383 C1358 1.325 . S
H1384 C1326 0.929 . S
H1385 C1327 0.930 . S
H1386 C1328 0.930 . S
H1387 C1329 0.930 . S
H1388 C1331 0.930 . S
H1389 C1333 0.929 . S
H1390 C1334 0.930 . S
H1391 C1335 0.930 . S
H1392 C1338 0.930 . S
H1393 C1341 0.929 . S
H1394 C1346 0.929 . S
H1395 C1347 0.930 . S
H1396 C1354 0.929 . S
H1397 C1355 0.930 . S
H1398 C1356 0.930 . S
H1399 C1357 0.930 . S
H1400 C1359 0.929 . S
H1401 C1360 0.930 . S
H1402 C1361 0.930 . S
H1403 C1362 0.930 . S
H1404 C1366 0.929 . S
H1405 C1368 0.930 . S
H1406 C1374 0.929 . S
H1407 C1375 0.930 . S
Li1408 N1425 1.990 . S
Li1408 O1468 1.956 1_545 S
Li1408 O1469 1.970 . S
Li1408 O1470 1.961 . S
Li1409 N1433 1.990 . S
Li1409 O1468 1.970 . S
Li1409 O1469 1.956 1_565 S
Li1409 O1471 1.961 1_565 S
Li1410 N1455 1.990 . S
Li1410 O1468 1.961 1_545 S
Li1410 O1470 1.956 . S
Li1410 O1471 1.970 . S
Li1411 N1461 1.990 . S
Li1411 O1469 1.961 . S
Li1411 O1470 1.970 . S
Li1411 O1471 1.956 . S
C1412 C1414 1.348 . S
C1412 C1415 1.356 . S
C1412 O1468 1.325 . S
N1413 C1416 1.314 . S
N1413 C1417 1.279 . S
C1414 C1412 1.348 . S
C1414 C1416 1.353 . S
C1414 H1472 0.929 . S
C1415 C1412 1.356 . S
C1415 C1417 1.358 . S
C1415 H1473 0.930 . S
C1416 N1413 1.314 . S
C1416 C1414 1.353 . S
C1416 H1474 0.930 . S
C1417 N1413 1.279 . S
C1417 C1415 1.358 . S
C1417 H1475 0.930 . S
C1418 C1421 1.348 . S
C1418 C1422 1.356 . S
C1418 O1469 1.325 . S
C1419 N1420 1.279 . S
C1419 C1422 1.358 . S
C1419 H1476 0.930 . S
N1420 C1419 1.279 . S
N1420 C1423 1.314 . S
C1421 C1418 1.348 . S
C1421 C1423 1.353 . S
C1421 H1477 0.929 . S
C1422 C1418 1.356 . S
C1422 C1419 1.358 . S
C1422 H1478 0.930 . S
C1423 N1420 1.314 . S
C1423 C1421 1.353 . S
C1423 H1479 0.930 . S
C1424 N1425 1.314 . S
C1424 C1429 1.353 . S
C1424 H1430 0.930 . S
N1425 Li1408 1.990 . S
N1425 C1424 1.314 . S
N1425 C1427 1.279 . S
C1426 C1427 1.358 . S
C1426 C1428 1.356 . S
C1426 H1480 0.930 1_545 S
C1427 N1425 1.279 . S
C1427 C1426 1.358 . S
C1427 H1431 0.930 1_545 S
C1428 C1426 1.356 . S
C1428 C1429 1.348 . S
C1429 C1424 1.353 . S
C1429 C1428 1.348 . S
C1429 H1481 0.929 . S
H1430 C1424 0.930 . S
H1431 C1427 0.930 1_565 S
C1432 N1433 1.314 . S
C1432 C1434 1.353 . S
C1432 H1438 0.930 . S
N1433 Li1409 1.990 . S
N1433 C1432 1.314 . S
N1433 C1436 1.279 . S
C1434 C1432 1.353 . S
C1434 C1437 1.348 . S
C1434 H1482 0.929 . S
C1435 C1436 1.358 . S
C1435 C1437 1.356 . S
C1435 H1483 0.930 . S
C1436 N1433 1.279 . S
C1436 C1435 1.358 . S
C1436 H1439 0.930 . S
C1437 C1434 1.348 . S
C1437 C1435 1.356 . S
H1438 C1432 0.930 . S
H1439 C1436 0.930 . S
C1440 C1442 1.348 . S
C1440 C1443 1.356 . S
C1440 O1470 1.325 . S
N1441 C1444 1.314 . S
N1441 C1445 1.279 . S
C1442 C1440 1.348 . S
C1442 C1444 1.353 . S
C1442 H1484 0.929 . S
C1443 C1440 1.356 . S
C1443 C1445 1.358 . S
C1443 H1485 0.930 . S
C1444 N1441 1.314 . S
C1444 C1442 1.353 . S
C1444 H1486 0.930 . S
C1445 N1441 1.279 . S
C1445 C1443 1.358 . S
C1445 H1487 0.930 . S
C1446 C1447 1.348 . S
C1446 C1448 1.356 . S
C1446 O1471 1.325 . S
C1447 C1446 1.348 . S
C1447 C1449 1.353 . S
C1447 H1488 0.929 . S
C1448 C1446 1.356 . S
C1448 C1450 1.355 . S
C1448 H1489 0.928 1_545 S
C1449 C1447 1.353 . S
C1449 N1451 1.314 . S
C1449 H1490 0.930 . S
C1450 C1448 1.355 . S
C1450 N1451 1.291 . S
C1450 H1491 0.924 1_545 S
N1451 C1449 1.314 . S
N1451 C1450 1.291 . S
C1452 C1454 1.350 1_545 S
C1452 N1455 1.343 . S
C1452 H1458 0.900 1_545 S
C1453 N1455 1.279 . S
C1453 C1456 1.358 . S
C1453 H1459 0.930 . S
C1454 C1452 1.350 1_565 S
C1454 C1457 1.332 1_565 S
C1454 H1492 0.947 . S
N1455 Li1410 1.990 . S
N1455 C1452 1.343 . S
N1455 C1453 1.279 . S
C1456 C1453 1.358 . S
C1456 C1457 1.356 . S
C1456 H1493 0.930 . S
C1457 C1454 1.332 1_545 S
C1457 C1456 1.356 . S
H1458 C1452 0.900 1_565 S
H1459 C1453 0.930 . S
C1460 N1461 1.314 . S
C1460 C1462 1.353 . S
C1460 H1466 0.930 . S
N1461 Li1411 1.990 . S
N1461 C1460 1.314 . S
N1461 C1464 1.279 . S
C1462 C1460 1.353 . S
C1462 C1465 1.348 . S
C1462 H1494 0.929 . S
C1463 C1464 1.358 . S
C1463 C1465 1.356 . S
C1463 H1495 0.930 . S
C1464 N1461 1.279 . S
C1464 C1463 1.358 . S
C1464 H1467 0.930 . S
C1465 C1462 1.348 . S
C1465 C1463 1.356 . S
H1466 C1460 0.930 . S
H1467 C1464 0.930 . S
O1468 Li1408 1.956 1_565 S
O1468 Li1409 1.970 . S
O1468 Li1410 1.961 1_565 S
O1468 C1412 1.325 . S
O1469 Li1408 1.970 . S
O1469 Li1409 1.956 1_545 S
O1469 Li1411 1.961 . S
O1469 C1418 1.325 . S
O1470 Li1408 1.961 . S
O1470 Li1410 1.956 . S
O1470 Li1411 1.970 . S
O1470 C1440 1.325 . S
O1471 Li1409 1.961 1_545 S
O1471 Li1410 1.970 . S
O1471 Li1411 1.956 . S
O1471 C1446 1.325 . S
H1472 C1414 0.929 . S
H1473 C1415 0.930 . S
H1474 C1416 0.930 . S
H1475 C1417 0.930 . S
H1476 C1419 0.930 . S
H1477 C1421 0.929 . S
H1478 C1422 0.930 . S
H1479 C1423 0.930 . S
H1480 C1426 0.930 1_565 S
H1481 C1429 0.929 . S
H1482 C1434 0.929 . S
H1483 C1435 0.930 . S
H1484 C1442 0.929 . S
H1485 C1443 0.930 . S
H1486 C1444 0.930 . S
H1487 C1445 0.930 . S
H1488 C1447 0.929 . S
H1489 C1448 0.928 1_565 S
H1490 C1449 0.930 . S
H1491 C1450 0.924 1_565 S
H1492 C1454 0.947 . S
H1493 C1456 0.930 . S
H1494 C1462 0.929 . S
H1495 C1463 0.930 . S
Li1496 N1513 1.990 . S
Li1496 O1556 1.956 . S
Li1496 O1557 1.970 . S
Li1496 O1558 1.961 . S
Li1497 N1521 1.990 . S
Li1497 O1556 1.970 . S
Li1497 O1557 1.956 . S
Li1497 O1559 1.961 . S
Li1498 N1543 1.990 . S
Li1498 O1556 1.961 . S
Li1498 O1558 1.956 . S
Li1498 O1559 1.970 . S
Li1499 N1549 1.990 . S
Li1499 O1557 1.961 . S
Li1499 O1558 1.970 . S
Li1499 O1559 1.956 . S
C1500 C1502 1.348 . S
C1500 C1503 1.356 . S
C1500 O1556 1.325 . S
N1501 C1504 1.314 . S
N1501 C1505 1.279 . S
C1502 C1500 1.348 . S
C1502 C1504 1.353 . S
C1502 H1560 0.929 . S
C1503 C1500 1.356 . S
C1503 C1505 1.358 . S
C1503 H1561 0.930 . S
C1504 N1501 1.314 . S
C1504 C1502 1.353 . S
C1504 H1562 0.930 . S
C1505 N1501 1.279 . S
C1505 C1503 1.358 . S
C1505 H1563 0.930 . S
C1506 C1509 1.348 . S
C1506 C1510 1.356 . S
C1506 O1557 1.325 . S
C1507 N1508 1.279 . S
C1507 C1510 1.358 . S
C1507 H1564 0.930 . S
N1508 C1507 1.279 . S
N1508 C1511 1.314 . S
C1509 C1506 1.348 . S
C1509 C1511 1.353 . S
C1509 H1565 0.929 . S
C1510 C1506 1.356 . S
C1510 C1507 1.358 . S
C1510 H1566 0.930 . S
C1511 N1508 1.314 . S
C1511 C1509 1.353 . S
C1511 H1567 0.930 . S
C1512 N1513 1.314 . S
C1512 C1517 1.353 . S
C1512 H1518 0.930 . S
N1513 Li1496 1.990 . S
N1513 C1512 1.314 . S
N1513 C1515 1.279 . S
C1514 C1515 1.358 . S
C1514 C1516 1.356 . S
C1514 H1568 0.930 . S
C1515 N1513 1.279 . S
C1515 C1514 1.358 . S
C1515 H1519 0.930 . S
C1516 C1514 1.356 . S
C1516 C1517 1.348 . S
C1517 C1512 1.353 . S
C1517 C1516 1.348 . S
C1517 H1569 0.929 . S
H1518 C1512 0.930 . S
H1519 C1515 0.930 . S
C1520 N1521 1.314 . S
C1520 C1522 1.353 . S
C1520 H1526 0.930 . S
N1521 Li1497 1.990 . S
N1521 C1520 1.314 . S
N1521 C1524 1.279 . S
C1522 C1520 1.353 . S
C1522 C1525 1.348 . S
C1522 H1570 0.929 . S
C1523 C1524 1.358 . S
C1523 C1525 1.356 . S
C1523 H1571 0.930 . S
C1524 N1521 1.279 . S
C1524 C1523 1.358 . S
C1524 H1527 0.930 . S
C1525 C1522 1.348 . S
C1525 C1523 1.356 . S
H1526 C1520 0.930 . S
H1527 C1524 0.930 . S
C1528 C1530 1.348 . S
C1528 C1531 1.356 . S
C1528 O1558 1.325 . S
N1529 C1532 1.314 . S
N1529 C1533 1.279 . S
C1530 C1528 1.348 . S
C1530 C1532 1.353 . S
C1530 H1572 0.929 . S
C1531 C1528 1.356 . S
C1531 C1533 1.358 . S
C1531 H1573 0.930 . S
C1532 N1529 1.314 . S
C1532 C1530 1.353 . S
C1532 H1574 0.930 . S
C1533 N1529 1.279 . S
C1533 C1531 1.358 . S
C1533 H1575 0.930 . S
C1534 C1535 1.348 . S
C1534 C1536 1.356 . S
C1534 O1559 1.325 . S
C1535 C1534 1.348 . S
C1535 C1537 1.353 . S
C1535 H1576 0.929 . S
C1536 C1534 1.356 . S
C1536 C1538 1.358 . S
C1536 H1577 0.930 . S
C1537 C1535 1.353 . S
C1537 N1539 1.314 . S
C1537 H1578 0.930 . S
C1538 C1536 1.358 . S
C1538 N1539 1.279 . S
C1538 H1579 0.930 . S
N1539 C1537 1.314 . S
N1539 C1538 1.279 . S
C1540 C1542 1.353 . S
C1540 N1543 1.314 . S
C1540 H1546 0.930 . S
C1541 N1543 1.279 . S
C1541 C1544 1.358 . S
C1541 H1547 0.930 . S
C1542 C1540 1.353 . S
C1542 C1545 1.348 . S
C1542 H1580 0.929 . S
N1543 Li1498 1.990 . S
N1543 C1540 1.314 . S
N1543 C1541 1.279 . S
C1544 C1541 1.358 . S
C1544 C1545 1.356 . S
C1544 H1581 0.930 . S
C1545 C1542 1.348 . S
C1545 C1544 1.356 . S
H1546 C1540 0.930 . S
H1547 C1541 0.930 . S
C1548 N1549 1.314 . S
C1548 C1550 1.353 . S
C1548 H1554 0.930 . S
N1549 Li1499 1.990 . S
N1549 C1548 1.314 . S
N1549 C1552 1.279 . S
C1550 C1548 1.353 . S
C1550 C1553 1.348 . S
C1550 H1582 0.929 . S
C1551 C1552 1.358 . S
C1551 C1553 1.356 . S
C1551 H1583 0.930 . S
C1552 N1549 1.279 . S
C1552 C1551 1.358 . S
C1552 H1555 0.930 . S
C1553 C1550 1.348 . S
C1553 C1551 1.356 . S
H1554 C1548 0.930 . S
H1555 C1552 0.930 . S
O1556 Li1496 1.956 . S
O1556 Li1497 1.970 . S
O1556 Li1498 1.961 . S
O1556 C1500 1.325 . S
O1557 Li1496 1.970 . S
O1557 Li1497 1.956 . S
O1557 Li1499 1.961 . S
O1557 C1506 1.325 . S
O1558 Li1496 1.961 . S
O1558 Li1498 1.956 . S
O1558 Li1499 1.970 . S
O1558 C1528 1.325 . S
O1559 Li1497 1.961 . S
O1559 Li1498 1.970 . S
O1559 Li1499 1.956 . S
O1559 C1534 1.325 . S
H1560 C1502 0.929 . S
H1561 C1503 0.930 . S
H1562 C1504 0.930 . S
H1563 C1505 0.930 . S
H1564 C1507 0.930 . S
H1565 C1509 0.929 . S
H1566 C1510 0.930 . S
H1567 C1511 0.930 . S
H1568 C1514 0.930 . S
H1569 C1517 0.929 . S
H1570 C1522 0.929 . S
H1571 C1523 0.930 . S
H1572 C1530 0.929 . S
H1573 C1531 0.930 . S
H1574 C1532 0.930 . S
H1575 C1533 0.930 . S
H1576 C1535 0.929 . S
H1577 C1536 0.930 . S
H1578 C1537 0.930 . S
H1579 C1538 0.930 . S
H1580 C1542 0.929 . S
H1581 C1544 0.930 . S
H1582 C1550 0.929 . S
H1583 C1551 0.930 . S
Li1584 N1601 1.990 . S
Li1584 O1644 1.956 . S
Li1584 O1645 1.970 . S
Li1584 O1646 1.961 . S
Li1585 N1609 1.990 . S
Li1585 O1644 1.970 . S
Li1585 O1645 1.956 . S
Li1585 O1647 1.961 . S
Li1586 N1631 1.990 . S
Li1586 O1644 1.961 . S
Li1586 O1646 1.956 . S
Li1586 O1647 1.970 . S
Li1587 N1637 1.990 . S
Li1587 O1645 1.961 . S
Li1587 O1646 1.970 . S
Li1587 O1647 1.956 . S
C1588 C1590 1.348 . S
C1588 C1591 1.356 . S
C1588 O1644 1.325 . S
N1589 C1592 1.314 . S
N1589 C1593 1.279 . S
C1590 C1588 1.348 . S
C1590 C1592 1.353 . S
C1590 H1648 0.929 . S
C1591 C1588 1.356 . S
C1591 C1593 1.358 . S
C1591 H1649 0.930 . S
C1592 N1589 1.314 . S
C1592 C1590 1.353 . S
C1592 H1650 0.930 . S
C1593 N1589 1.279 . S
C1593 C1591 1.358 . S
C1593 H1651 0.930 . S
C1594 C1597 1.348 . S
C1594 C1598 1.356 . S
C1594 O1645 1.325 . S
C1595 N1596 1.279 . S
C1595 C1598 1.358 . S
C1595 H1652 0.930 . S
N1596 C1595 1.279 . S
N1596 C1599 1.314 . S
C1597 C1594 1.348 . S
C1597 C1599 1.353 . S
C1597 H1653 0.929 . S
C1598 C1594 1.356 . S
C1598 C1595 1.358 . S
C1598 H1654 0.930 . S
C1599 N1596 1.314 . S
C1599 C1597 1.353 . S
C1599 H1655 0.930 . S
C1600 N1601 1.314 . S
C1600 C1605 1.353 . S
C1600 H1606 0.930 . S
N1601 Li1584 1.990 . S
N1601 C1600 1.314 . S
N1601 C1603 1.279 . S
C1602 C1603 1.358 . S
C1602 C1604 1.356 . S
C1602 H1656 0.930 . S
C1603 N1601 1.279 . S
C1603 C1602 1.358 . S
C1603 H1607 0.930 . S
C1604 C1602 1.356 . S
C1604 C1605 1.348 . S
C1605 C1600 1.353 . S
C1605 C1604 1.348 . S
C1605 H1657 0.929 . S
H1606 C1600 0.930 . S
H1607 C1603 0.930 . S
C1608 N1609 1.314 . S
C1608 C1610 1.353 . S
C1608 H1614 0.930 . S
N1609 Li1585 1.990 . S
N1609 C1608 1.314 . S
N1609 C1612 1.279 . S
C1610 C1608 1.353 . S
C1610 C1613 1.348 . S
C1610 H1658 0.929 . S
C1611 C1612 1.358 . S
C1611 C1613 1.356 . S
C1611 H1659 0.930 . S
C1612 N1609 1.279 . S
C1612 C1611 1.358 . S
C1612 H1615 0.930 . S
C1613 C1610 1.348 . S
C1613 C1611 1.356 . S
H1614 C1608 0.930 . S
H1615 C1612 0.930 . S
C1616 C1618 1.348 . S
C1616 C1619 1.356 . S
C1616 O1646 1.325 . S
N1617 C1620 1.314 . S
N1617 C1621 1.279 . S
C1618 C1616 1.348 . S
C1618 C1620 1.353 . S
C1618 H1660 0.929 . S
C1619 C1616 1.356 . S
C1619 C1621 1.358 . S
C1619 H1661 0.930 . S
C1620 N1617 1.314 . S
C1620 C1618 1.353 . S
C1620 H1662 0.930 . S
C1621 N1617 1.279 . S
C1621 C1619 1.358 . S
C1621 H1663 0.930 . S
C1622 C1623 1.348 . S
C1622 C1624 1.356 . S
C1622 O1647 1.325 . S
C1623 C1622 1.348 . S
C1623 C1625 1.353 . S
C1623 H1664 0.929 . S
C1624 C1622 1.356 . S
C1624 C1626 1.358 . S
C1624 H1665 0.930 . S
C1625 C1623 1.353 . S
C1625 N1627 1.314 . S
C1625 H1666 0.930 . S
C1626 C1624 1.358 . S
C1626 N1627 1.279 . S
C1626 H1667 0.930 . S
N1627 C1625 1.314 . S
N1627 C1626 1.279 . S
C1628 C1630 1.353 . S
C1628 N1631 1.314 . S
C1628 H1634 0.930 . S
C1629 N1631 1.279 . S
C1629 C1632 1.358 . S
C1629 H1635 0.930 . S
C1630 C1628 1.353 . S
C1630 C1633 1.348 . S
C1630 H1668 0.929 . S
N1631 Li1586 1.990 . S
N1631 C1628 1.314 . S
N1631 C1629 1.279 . S
C1632 C1629 1.358 . S
C1632 C1633 1.356 . S
C1632 H1669 0.930 . S
C1633 C1630 1.348 . S
C1633 C1632 1.356 . S
H1634 C1628 0.930 . S
H1635 C1629 0.930 . S
C1636 N1637 1.314 . S
C1636 C1638 1.353 . S
C1636 H1642 0.930 . S
N1637 Li1587 1.990 . S
N1637 C1636 1.314 . S
N1637 C1640 1.279 . S
C1638 C1636 1.353 . S
C1638 C1641 1.348 . S
C1638 H1670 0.929 . S
C1639 C1640 1.358 . S
C1639 C1641 1.356 . S
C1639 H1671 0.930 . S
C1640 N1637 1.279 . S
C1640 C1639 1.358 . S
C1640 H1643 0.930 . S
C1641 C1638 1.348 . S
C1641 C1639 1.356 . S
H1642 C1636 0.930 . S
H1643 C1640 0.930 . S
O1644 Li1584 1.956 . S
O1644 Li1585 1.970 . S
O1644 Li1586 1.961 . S
O1644 C1588 1.325 . S
O1645 Li1584 1.970 . S
O1645 Li1585 1.956 . S
O1645 Li1587 1.961 . S
O1645 C1594 1.325 . S
O1646 Li1584 1.961 . S
O1646 Li1586 1.956 . S
O1646 Li1587 1.970 . S
O1646 C1616 1.325 . S
O1647 Li1585 1.961 . S
O1647 Li1586 1.970 . S
O1647 Li1587 1.956 . S
O1647 C1622 1.325 . S
H1648 C1590 0.929 . S
H1649 C1591 0.930 . S
H1650 C1592 0.930 . S
H1651 C1593 0.930 . S
H1652 C1595 0.930 . S
H1653 C1597 0.929 . S
H1654 C1598 0.930 . S
H1655 C1599 0.930 . S
H1656 C1602 0.930 . S
H1657 C1605 0.929 . S
H1658 C1610 0.929 . S
H1659 C1611 0.930 . S
H1660 C1618 0.929 . S
H1661 C1619 0.930 . S
H1662 C1620 0.930 . S
H1663 C1621 0.930 . S
H1664 C1623 0.929 . S
H1665 C1624 0.930 . S
H1666 C1625 0.930 . S
H1667 C1626 0.930 . S
H1668 C1630 0.929 . S
H1669 C1632 0.930 . S
H1670 C1638 0.929 . S
H1671 C1639 0.930 . S
Li1672 N1689 1.990 . S
Li1672 O1732 1.956 . S
Li1672 O1733 1.970 . S
Li1672 O1734 1.961 . S
Li1673 N1697 1.990 . S
Li1673 O1732 1.970 . S
Li1673 O1733 1.956 . S
Li1673 O1735 1.961 . S
Li1674 N1719 1.990 . S
Li1674 O1732 1.961 . S
Li1674 O1734 1.956 . S
Li1674 O1735 1.970 . S
Li1675 N1725 1.990 . S
Li1675 O1733 1.961 . S
Li1675 O1734 1.970 . S
Li1675 O1735 1.956 . S
C1676 C1678 1.348 . S
C1676 C1679 1.356 . S
C1676 O1732 1.325 . S
N1677 C1680 1.314 . S
N1677 C1681 1.279 . S
C1678 C1676 1.348 . S
C1678 C1680 1.353 . S
C1678 H1736 0.929 . S
C1679 C1676 1.356 . S
C1679 C1681 1.358 . S
C1679 H1737 0.930 . S
C1680 N1677 1.314 . S
C1680 C1678 1.353 . S
C1680 H1738 0.930 . S
C1681 N1677 1.279 . S
C1681 C1679 1.358 . S
C1681 H1739 0.930 . S
C1682 C1685 1.348 . S
C1682 C1686 1.356 . S
C1682 O1733 1.325 . S
C1683 N1684 1.279 . S
C1683 C1686 1.358 . S
C1683 H1740 0.930 . S
N1684 C1683 1.279 . S
N1684 C1687 1.314 . S
C1685 C1682 1.348 . S
C1685 C1687 1.353 . S
C1685 H1741 0.929 . S
C1686 C1682 1.356 . S
C1686 C1683 1.358 . S
C1686 H1742 0.930 . S
C1687 N1684 1.314 . S
C1687 C1685 1.353 . S
C1687 H1743 0.930 . S
C1688 N1689 1.314 . S
C1688 C1693 1.353 . S
C1688 H1694 0.930 . S
N1689 Li1672 1.990 . S
N1689 C1688 1.314 . S
N1689 C1691 1.279 . S
C1690 C1691 1.358 . S
C1690 C1692 1.356 . S
C1690 H1744 0.930 . S
C1691 N1689 1.279 . S
C1691 C1690 1.358 . S
C1691 H1695 0.930 . S
C1692 C1690 1.356 . S
C1692 C1693 1.348 . S
C1693 C1688 1.353 . S
C1693 C1692 1.348 . S
C1693 H1745 0.929 . S
H1694 C1688 0.930 . S
H1695 C1691 0.930 . S
C1696 N1697 1.314 . S
C1696 C1698 1.353 . S
C1696 H1702 0.930 . S
N1697 Li1673 1.990 . S
N1697 C1696 1.314 . S
N1697 C1700 1.279 . S
C1698 C1696 1.353 . S
C1698 C1701 1.348 . S
C1698 H1746 0.929 . S
C1699 C1700 1.358 . S
C1699 C1701 1.356 . S
C1699 H1747 0.930 . S
C1700 N1697 1.279 . S
C1700 C1699 1.358 . S
C1700 H1703 0.930 . S
C1701 C1698 1.348 . S
C1701 C1699 1.356 . S
H1702 C1696 0.930 . S
H1703 C1700 0.930 . S
C1704 C1706 1.348 1_545 S
C1704 C1707 1.356 . S
C1704 O1734 1.325 . S
N1705 C1708 1.314 . S
N1705 C1709 1.279 . S
C1706 C1704 1.348 1_565 S
C1706 C1708 1.353 . S
C1706 H1748 0.929 . S
C1707 C1704 1.356 . S
C1707 C1709 1.358 1_545 S
C1707 H1749 0.930 . S
C1708 N1705 1.314 . S
C1708 C1706 1.353 . S
C1708 H1750 0.930 . S
C1709 N1705 1.279 . S
C1709 C1707 1.358 1_565 S
C1709 H1751 0.930 . S
C1710 C1711 1.348 . S
C1710 C1712 1.356 . S
C1710 O1735 1.325 . S
C1711 C1710 1.348 . S
C1711 C1713 1.353 . S
C1711 H1752 0.929 . S
C1712 C1710 1.356 . S
C1712 C1714 1.358 . S
C1712 H1753 0.930 . S
C1713 C1711 1.353 . S
C1713 N1715 1.314 . S
C1713 H1754 0.930 . S
C1714 C1712 1.358 . S
C1714 N1715 1.279 . S
C1714 H1755 0.930 . S
N1715 C1713 1.314 . S
N1715 C1714 1.279 . S
C1716 C1718 1.353 . S
C1716 N1719 1.314 . S
C1716 H1722 0.930 . S
C1717 N1719 1.279 . S
C1717 C1720 1.358 . S
C1717 H1723 0.930 . S
C1718 C1716 1.353 . S
C1718 C1721 1.348 . S
C1718 H1756 0.929 . S
N1719 Li1674 1.990 . S
N1719 C1716 1.314 . S
N1719 C1717 1.279 . S
C1720 C1717 1.358 . S
C1720 C1721 1.356 . S
C1720 H1757 0.930 . S
C1721 C1718 1.348 . S
C1721 C1720 1.356 . S
H1722 C1716 0.930 . S
H1723 C1717 0.930 . S
C1724 N1725 1.314 1_565 S
C1724 C1726 1.353 . S
C1724 H1730 0.930 . S
N1725 Li1675 1.990 . S
N1725 C1724 1.314 1_545 S
N1725 C1728 1.279 1_545 S
C1726 C1724 1.353 . S
C1726 C1729 1.348 . S
C1726 H1758 0.929 . S
C1727 C1728 1.358 . S
C1727 C1729 1.356 . S
C1727 H1759 0.930 . S
C1728 N1725 1.279 1_565 S
C1728 C1727 1.358 . S
C1728 H1731 0.930 1_565 S
C1729 C1726 1.348 . S
C1729 C1727 1.356 . S
H1730 C1724 0.930 . S
H1731 C1728 0.930 1_545 S
O1732 Li1672 1.956 . S
O1732 Li1673 1.970 . S
O1732 Li1674 1.961 . S
O1732 C1676 1.325 . S
O1733 Li1672 1.970 . S
O1733 Li1673 1.956 . S
O1733 Li1675 1.961 . S
O1733 C1682 1.325 . S
O1734 Li1672 1.961 . S
O1734 Li1674 1.956 . S
O1734 Li1675 1.970 . S
O1734 C1704 1.325 . S
O1735 Li1673 1.961 . S
O1735 Li1674 1.970 . S
O1735 Li1675 1.956 . S
O1735 C1710 1.325 . S
H1736 C1678 0.929 . S
H1737 C1679 0.930 . S
H1738 C1680 0.930 . S
H1739 C1681 0.930 . S
H1740 C1683 0.930 . S
H1741 C1685 0.929 . S
H1742 C1686 0.930 . S
H1743 C1687 0.930 . S
H1744 C1690 0.930 . S
H1745 C1693 0.929 . S
H1746 C1698 0.929 . S
H1747 C1699 0.930 . S
H1748 C1706 0.929 . S
H1749 C1707 0.930 . S
H1750 C1708 0.930 . S
H1751 C1709 0.930 . S
H1752 C1711 0.929 . S
H1753 C1712 0.930 . S
H1754 C1713 0.930 . S
H1755 C1714 0.930 . S
H1756 C1718 0.929 . S
H1757 C1720 0.930 . S
H1758 C1726 0.929 . S
H1759 C1727 0.930 . S
Li1760 N1777 1.990 . S
Li1760 O1820 1.956 . S
Li1760 O1821 1.970 . S
Li1760 O1822 1.961 . S
Li1761 N1785 1.990 . S
Li1761 O1820 1.970 . S
Li1761 O1821 1.956 . S
Li1761 O1823 1.961 1_554 S
Li1762 N1807 1.990 . S
Li1762 O1820 1.961 1_556 S
Li1762 O1822 1.956 1_556 S
Li1762 O1823 1.970 . S
Li1763 N1813 1.990 . S
Li1763 O1821 1.961 . S
Li1763 O1822 1.970 . S
Li1763 O1823 1.956 1_554 S
C1764 C1766 1.348 . S
C1764 C1767 1.356 . S
C1764 O1820 1.325 . S
N1765 C1768 1.314 . S
N1765 C1769 1.279 . S
C1766 C1764 1.348 . S
C1766 C1768 1.353 . S
C1766 H1824 0.929 . S
C1767 C1764 1.356 . S
C1767 C1769 1.358 . S
C1767 H1825 0.930 . S
C1768 N1765 1.314 . S
C1768 C1766 1.353 . S
C1768 H1826 0.930 . S
C1769 N1765 1.279 . S
C1769 C1767 1.358 . S
C1769 H1827 0.930 . S
C1770 C1773 1.348 . S
C1770 C1774 1.356 . S
C1770 O1821 1.325 . S
C1771 N1772 1.279 . S
C1771 C1774 1.358 . S
C1771 H1828 0.930 . S
N1772 C1771 1.279 . S
N1772 C1775 1.314 . S
C1773 C1770 1.348 . S
C1773 C1775 1.353 . S
C1773 H1829 0.929 . S
C1774 C1770 1.356 . S
C1774 C1771 1.358 . S
C1774 H1830 0.930 . S
C1775 N1772 1.314 . S
C1775 C1773 1.353 . S
C1775 H1831 0.930 . S
C1776 N1777 1.314 . S
C1776 C1781 1.353 . S
C1776 H1782 0.930 . S
N1777 Li1760 1.990 . S
N1777 C1776 1.314 . S
N1777 C1779 1.279 . S
C1778 C1779 1.358 . S
C1778 C1780 1.356 . S
C1778 H1832 0.930 . S
C1779 N1777 1.279 . S
C1779 C1778 1.358 . S
C1779 H1783 0.930 . S
C1780 C1778 1.356 . S
C1780 C1781 1.348 . S
C1781 C1776 1.353 . S
C1781 C1780 1.348 . S
C1781 H1833 0.929 . S
H1782 C1776 0.930 . S
H1783 C1779 0.930 . S
C1784 N1785 1.314 1_556 S
C1784 C1786 1.353 . S
C1784 H1790 0.930 . S
N1785 Li1761 1.990 . S
N1785 C1784 1.314 1_554 S
N1785 C1788 1.279 . S
C1786 C1784 1.353 . S
C1786 C1789 1.348 1_556 S
C1786 H1834 0.929 . S
C1787 C1788 1.358 . S
C1787 C1789 1.356 . S
C1787 H1835 0.930 . S
C1788 N1785 1.279 . S
C1788 C1787 1.358 . S
C1788 H1791 0.930 . S
C1789 C1786 1.348 1_554 S
C1789 C1787 1.356 . S
H1790 C1784 0.930 . S
H1791 C1788 0.930 . S
C1792 C1794 1.348 . S
C1792 C1795 1.356 . S
C1792 O1822 1.325 . S
N1793 C1796 1.314 . S
N1793 C1797 1.279 . S
C1794 C1792 1.348 . S
C1794 C1796 1.353 . S
C1794 H1836 0.929 1_554 S
C1795 C1792 1.356 . S
C1795 C1797 1.358 . S
C1795 H1837 0.930 . S
C1796 N1793 1.314 . S
C1796 C1794 1.353 . S
C1796 H1838 0.930 1_554 S
C1797 N1793 1.279 . S
C1797 C1795 1.358 . S
C1797 H1839 0.930 . S
C1798 C1799 1.348 . S
C1798 C1800 1.356 . S
C1798 O1823 1.325 . S
C1799 C1798 1.348 . S
C1799 C1801 1.353 . S
C1799 H1840 0.929 . S
C1800 C1798 1.356 . S
C1800 C1802 1.358 . S
C1800 H1841 0.930 . S
C1801 C1799 1.353 . S
C1801 N1803 1.314 . S
C1801 H1842 0.930 . S
C1802 C1800 1.358 . S
C1802 N1803 1.279 . S
C1802 H1843 0.930 . S
N1803 C1801 1.314 . S
N1803 C1802 1.279 . S
C1804 C1806 1.353 . S
C1804 N1807 1.314 . S
C1804 H1810 0.930 . S
C1805 N1807 1.279 . S
C1805 C1808 1.358 . S
C1805 H1811 0.930 . S
C1806 C1804 1.353 . S
C1806 C1809 1.348 . S
C1806 H1844 0.929 . S
N1807 Li1762 1.990 . S
N1807 C1804 1.314 . S
N1807 C1805 1.279 . S
C1808 C1805 1.358 . S
C1808 C1809 1.356 . S
C1808 H1845 0.930 . S
C1809 C1806 1.348 . S
C1809 C1808 1.356 . S
H1810 C1804 0.930 . S
H1811 C1805 0.930 . S
C1812 N1813 1.314 . S
C1812 C1814 1.353 . S
C1812 H1818 0.930 . S
N1813 Li1763 1.990 . S
N1813 C1812 1.314 . S
N1813 C1816 1.279 1_554 S
C1814 C1812 1.353 . S
C1814 C1817 1.379 . S
C1814 H1846 0.929 . S
C1815 C1816 1.358 . S
C1815 C1817 1.323 1_556 S
C1815 H1847 0.930 . S
C1816 N1813 1.279 1_556 S
C1816 C1815 1.358 . S
C1816 H1819 0.930 . S
C1817 C1814 1.379 . S
C1817 C1815 1.323 1_554 S
H1818 C1812 0.930 . S
H1819 C1816 0.930 . S
O1820 Li1760 1.956 . S
O1820 Li1761 1.970 . S
O1820 Li1762 1.961 1_554 S
O1820 C1764 1.325 . S
O1821 Li1760 1.970 . S
O1821 Li1761 1.956 . S
O1821 Li1763 1.961 . S
O1821 C1770 1.325 . S
O1822 Li1760 1.961 . S
O1822 Li1762 1.956 1_554 S
O1822 Li1763 1.970 . S
O1822 C1792 1.325 . S
O1823 Li1761 1.961 1_556 S
O1823 Li1762 1.970 . S
O1823 Li1763 1.956 1_556 S
O1823 C1798 1.325 . S
H1824 C1766 0.929 . S
H1825 C1767 0.930 . S
H1826 C1768 0.930 . S
H1827 C1769 0.930 . S
H1828 C1771 0.930 . S
H1829 C1773 0.929 . S
H1830 C1774 0.930 . S
H1831 C1775 0.930 . S
H1832 C1778 0.930 . S
H1833 C1781 0.929 . S
H1834 C1786 0.929 . S
H1835 C1787 0.930 . S
H1836 C1794 0.929 1_556 S
H1837 C1795 0.930 . S
H1838 C1796 0.930 1_556 S
H1839 C1797 0.930 . S
H1840 C1799 0.929 . S
H1841 C1800 0.930 . S
H1842 C1801 0.930 . S
H1843 C1802 0.930 . S
H1844 C1806 0.929 . S
H1845 C1808 0.930 . S
H1846 C1814 0.929 . S
H1847 C1815 0.930 . S
Li1848 N1865 1.990 . S
Li1848 O1908 1.956 . S
Li1848 O1909 1.970 . S
Li1848 O1910 1.961 . S
Li1849 N1873 1.990 . S
Li1849 O1908 1.970 . S
Li1849 O1909 1.956 . S
Li1849 O1911 1.961 . S
Li1850 N1895 1.990 . S
Li1850 O1908 1.961 . S
Li1850 O1910 1.956 . S
Li1850 O1911 1.970 . S
Li1851 N1901 1.990 . S
Li1851 O1909 1.961 . S
Li1851 O1910 1.970 . S
Li1851 O1911 1.956 . S
C1852 C1854 1.348 . S
C1852 C1855 1.356 . S
C1852 O1908 1.325 . S
N1853 C1856 1.314 . S
N1853 C1857 1.279 . S
C1854 C1852 1.348 . S
C1854 C1856 1.353 . S
C1854 H1912 0.929 . S
C1855 C1852 1.356 . S
C1855 C1857 1.358 . S
C1855 H1913 0.930 . S
C1856 N1853 1.314 . S
C1856 C1854 1.353 . S
C1856 H1914 0.930 . S
C1857 N1853 1.279 . S
C1857 C1855 1.358 . S
C1857 H1915 0.930 . S
C1858 C1861 1.348 . S
C1858 C1862 1.356 . S
C1858 O1909 1.325 . S
C1859 N1860 1.279 . S
C1859 C1862 1.358 . S
C1859 H1916 0.930 . S
N1860 C1859 1.279 . S
N1860 C1863 1.314 . S
C1861 C1858 1.348 . S
C1861 C1863 1.353 . S
C1861 H1917 0.929 . S
C1862 C1858 1.356 . S
C1862 C1859 1.358 . S
C1862 H1918 0.930 . S
C1863 N1860 1.314 . S
C1863 C1861 1.353 . S
C1863 H1919 0.930 . S
C1864 N1865 1.314 . S
C1864 C1869 1.353 . S
C1864 H1870 0.930 . S
N1865 Li1848 1.990 . S
N1865 C1864 1.314 . S
N1865 C1867 1.279 . S
C1866 C1867 1.358 . S
C1866 C1868 1.356 . S
C1866 H1920 0.930 . S
C1867 N1865 1.279 . S
C1867 C1866 1.358 . S
C1867 H1871 0.930 . S
C1868 C1866 1.356 . S
C1868 C1869 1.348 . S
C1869 C1864 1.353 . S
C1869 C1868 1.348 . S
C1869 H1921 0.929 . S
H1870 C1864 0.930 . S
H1871 C1867 0.930 . S
C1872 N1873 1.314 . S
C1872 C1874 1.353 . S
C1872 H1878 0.930 . S
N1873 Li1849 1.990 . S
N1873 C1872 1.314 . S
N1873 C1876 1.279 . S
C1874 C1872 1.353 . S
C1874 C1877 1.348 . S
C1874 H1922 0.929 . S
C1875 C1876 1.358 . S
C1875 C1877 1.356 . S
C1875 H1923 0.930 . S
C1876 N1873 1.279 . S
C1876 C1875 1.358 . S
C1876 H1879 0.930 . S
C1877 C1874 1.348 . S
C1877 C1875 1.356 . S
H1878 C1872 0.930 . S
H1879 C1876 0.930 . S
C1880 C1882 1.348 . S
C1880 C1883 1.356 . S
C1880 O1910 1.325 . S
N1881 C1884 1.314 . S
N1881 C1885 1.279 . S
C1882 C1880 1.348 . S
C1882 C1884 1.353 . S
C1882 H1924 0.929 . S
C1883 C1880 1.356 . S
C1883 C1885 1.358 . S
C1883 H1925 0.930 . S
C1884 N1881 1.314 . S
C1884 C1882 1.353 . S
C1884 H1926 0.930 . S
C1885 N1881 1.279 . S
C1885 C1883 1.358 . S
C1885 H1927 0.930 . S
C1886 C1887 1.348 . S
C1886 C1888 1.356 . S
C1886 O1911 1.325 . S
C1887 C1886 1.348 . S
C1887 C1889 1.353 . S
C1887 H1928 0.929 . S
C1888 C1886 1.356 . S
C1888 C1890 1.358 . S
C1888 H1929 0.930 . S
C1889 C1887 1.353 . S
C1889 N1891 1.314 . S
C1889 H1930 0.930 . S
C1890 C1888 1.358 . S
C1890 N1891 1.279 . S
C1890 H1931 0.930 . S
N1891 C1889 1.314 . S
N1891 C1890 1.279 . S
C1892 C1894 1.353 . S
C1892 N1895 1.314 . S
C1892 H1898 0.930 . S
C1893 N1895 1.279 . S
C1893 C1896 1.358 . S
C1893 H1899 0.930 . S
C1894 C1892 1.353 . S
C1894 C1897 1.348 . S
C1894 H1932 0.929 . S
N1895 Li1850 1.990 . S
N1895 C1892 1.314 . S
N1895 C1893 1.279 . S
C1896 C1893 1.358 . S
C1896 C1897 1.356 . S
C1896 H1933 0.930 . S
C1897 C1894 1.348 . S
C1897 C1896 1.356 . S
H1898 C1892 0.930 . S
H1899 C1893 0.930 . S
C1900 N1901 1.314 . S
C1900 C1902 1.353 . S
C1900 H1906 0.930 . S
N1901 Li1851 1.990 . S
N1901 C1900 1.314 . S
N1901 C1904 1.279 . S
C1902 C1900 1.353 . S
C1902 C1905 1.348 . S
C1902 H1934 0.929 . S
C1903 C1904 1.358 . S
C1903 C1905 1.356 . S
C1903 H1935 0.930 . S
C1904 N1901 1.279 . S
C1904 C1903 1.358 . S
C1904 H1907 0.930 . S
C1905 C1902 1.348 . S
C1905 C1903 1.356 . S
H1906 C1900 0.930 . S
H1907 C1904 0.930 . S
O1908 Li1848 1.956 . S
O1908 Li1849 1.970 . S
O1908 Li1850 1.961 . S
O1908 C1852 1.325 . S
O1909 Li1848 1.970 . S
O1909 Li1849 1.956 . S
O1909 Li1851 1.961 . S
O1909 C1858 1.325 . S
O1910 Li1848 1.961 . S
O1910 Li1850 1.956 . S
O1910 Li1851 1.970 . S
O1910 C1880 1.325 . S
O1911 Li1849 1.961 . S
O1911 Li1850 1.970 . S
O1911 Li1851 1.956 . S
O1911 C1886 1.325 . S
H1912 C1854 0.929 . S
H1913 C1855 0.930 . S
H1914 C1856 0.930 . S
H1915 C1857 0.930 . S
H1916 C1859 0.930 . S
H1917 C1861 0.929 . S
H1918 C1862 0.930 . S
H1919 C1863 0.930 . S
H1920 C1866 0.930 . S
H1921 C1869 0.929 . S
H1922 C1874 0.929 . S
H1923 C1875 0.930 . S
H1924 C1882 0.929 . S
H1925 C1883 0.930 . S
H1926 C1884 0.930 . S
H1927 C1885 0.930 . S
H1928 C1887 0.929 . S
H1929 C1888 0.930 . S
H1930 C1889 0.930 . S
H1931 C1890 0.930 . S
H1932 C1894 0.929 . S
H1933 C1896 0.930 . S
H1934 C1902 0.929 . S
H1935 C1903 0.930 . S
Li1936 N1953 1.990 . S
Li1936 O1996 1.956 . S
Li1936 O1997 1.970 . S
Li1936 O1998 1.961 . S
Li1937 N1961 1.990 . S
Li1937 O1996 1.970 . S
Li1937 O1997 1.956 . S
Li1937 O1999 1.961 . S
Li1938 N1983 1.990 . S
Li1938 O1996 1.961 . S
Li1938 O1998 1.956 . S
Li1938 O1999 1.970 . S
Li1939 N1989 1.990 . S
Li1939 O1997 1.961 . S
Li1939 O1998 1.970 . S
Li1939 O1999 1.956 . S
C1940 C1942 1.348 . S
C1940 C1943 1.356 . S
C1940 O1996 1.325 . S
N1941 C1944 1.314 . S
N1941 C1945 1.279 . S
C1942 C1940 1.348 . S
C1942 C1944 1.353 . S
C1942 H2000 0.929 . S
C1943 C1940 1.356 . S
C1943 C1945 1.358 . S
C1943 H2001 0.930 . S
C1944 N1941 1.314 . S
C1944 C1942 1.353 . S
C1944 H2002 0.930 . S
C1945 N1941 1.279 . S
C1945 C1943 1.358 . S
C1945 H2003 0.930 . S
C1946 C1949 1.348 . S
C1946 C1950 1.356 . S
C1946 O1997 1.325 . S
C1947 N1948 1.279 . S
C1947 C1950 1.358 . S
C1947 H2004 0.930 . S
N1948 C1947 1.279 . S
N1948 C1951 1.314 . S
C1949 C1946 1.348 . S
C1949 C1951 1.353 . S
C1949 H2005 0.929 . S
C1950 C1946 1.356 . S
C1950 C1947 1.358 . S
C1950 H2006 0.930 . S
C1951 N1948 1.314 . S
C1951 C1949 1.353 . S
C1951 H2007 0.930 . S
C1952 N1953 1.314 . S
C1952 C1957 1.353 . S
C1952 H1958 0.930 . S
N1953 Li1936 1.990 . S
N1953 C1952 1.314 . S
N1953 C1955 1.279 . S
C1954 C1955 1.358 . S
C1954 C1956 1.356 . S
C1954 H2008 0.930 . S
C1955 N1953 1.279 . S
C1955 C1954 1.358 . S
C1955 H1959 0.930 . S
C1956 C1954 1.356 . S
C1956 C1957 1.348 . S
C1957 C1952 1.353 . S
C1957 C1956 1.348 . S
C1957 H2009 0.929 . S
H1958 C1952 0.930 . S
H1959 C1955 0.930 . S
C1960 N1961 1.314 . S
C1960 C1962 1.353 . S
C1960 H1966 0.930 . S
N1961 Li1937 1.990 . S
N1961 C1960 1.314 . S
N1961 C1964 1.279 . S
C1962 C1960 1.353 . S
C1962 C1965 1.348 . S
C1962 H2010 0.929 . S
C1963 C1964 1.358 . S
C1963 C1965 1.356 . S
C1963 H2011 0.930 . S
C1964 N1961 1.279 . S
C1964 C1963 1.358 . S
C1964 H1967 0.930 . S
C1965 C1962 1.348 . S
C1965 C1963 1.356 . S
H1966 C1960 0.930 . S
H1967 C1964 0.930 . S
C1968 C1970 1.348 . S
C1968 C1971 1.356 . S
C1968 O1998 1.325 . S
N1969 C1972 1.314 . S
N1969 C1973 1.279 . S
C1970 C1968 1.348 . S
C1970 C1972 1.353 . S
C1970 H2012 0.929 . S
C1971 C1968 1.356 . S
C1971 C1973 1.358 . S
C1971 H2013 0.930 . S
C1972 N1969 1.314 . S
C1972 C1970 1.353 . S
C1972 H2014 0.930 . S
C1973 N1969 1.279 . S
C1973 C1971 1.358 . S
C1973 H2015 0.930 . S
C1974 C1975 1.348 . S
C1974 C1976 1.356 . S
C1974 O1999 1.325 . S
C1975 C1974 1.348 . S
C1975 C1977 1.353 . S
C1975 H2016 0.929 . S
C1976 C1974 1.356 . S
C1976 C1978 1.358 . S
C1976 H2017 0.930 . S
C1977 C1975 1.353 . S
C1977 N1979 1.314 . S
C1977 H2018 0.930 . S
C1978 C1976 1.358 . S
C1978 N1979 1.279 . S
C1978 H2019 0.930 . S
N1979 C1977 1.314 . S
N1979 C1978 1.279 . S
C1980 C1982 1.353 . S
C1980 N1983 1.314 . S
C1980 H1986 0.930 . S
C1981 N1983 1.279 . S
C1981 C1984 1.358 . S
C1981 H1987 0.930 . S
C1982 C1980 1.353 . S
C1982 C1985 1.348 . S
C1982 H2020 0.929 . S
N1983 Li1938 1.990 . S
N1983 C1980 1.314 . S
N1983 C1981 1.279 . S
C1984 C1981 1.358 . S
C1984 C1985 1.356 . S
C1984 H2021 0.930 . S
C1985 C1982 1.348 . S
C1985 C1984 1.356 . S
H1986 C1980 0.930 . S
H1987 C1981 0.930 . S
C1988 N1989 1.314 . S
C1988 C1990 1.353 . S
C1988 H1994 0.930 . S
N1989 Li1939 1.990 . S
N1989 C1988 1.314 . S
N1989 C1992 1.279 . S
C1990 C1988 1.353 . S
C1990 C1993 1.348 . S
C1990 H2022 0.929 . S
C1991 C1992 1.358 . S
C1991 C1993 1.356 . S
C1991 H2023 0.930 . S
C1992 N1989 1.279 . S
C1992 C1991 1.358 . S
C1992 H1995 0.930 . S
C1993 C1990 1.348 . S
C1993 C1991 1.356 . S
H1994 C1988 0.930 . S
H1995 C1992 0.930 . S
O1996 Li1936 1.956 . S
O1996 Li1937 1.970 . S
O1996 Li1938 1.961 . S
O1996 C1940 1.325 . S
O1997 Li1936 1.970 . S
O1997 Li1937 1.956 . S
O1997 Li1939 1.961 . S
O1997 C1946 1.325 . S
O1998 Li1936 1.961 . S
O1998 Li1938 1.956 . S
O1998 Li1939 1.970 . S
O1998 C1968 1.325 . S
O1999 Li1937 1.961 . S
O1999 Li1938 1.970 . S
O1999 Li1939 1.956 . S
O1999 C1974 1.325 . S
H2000 C1942 0.929 . S
H2001 C1943 0.930 . S
H2002 C1944 0.930 . S
H2003 C1945 0.930 . S
H2004 C1947 0.930 . S
H2005 C1949 0.929 . S
H2006 C1950 0.930 . S
H2007 C1951 0.930 . S
H2008 C1954 0.930 . S
H2009 C1957 0.929 . S
H2010 C1962 0.929 . S
H2011 C1963 0.930 . S
H2012 C1970 0.929 . S
H2013 C1971 0.930 . S
H2014 C1972 0.930 . S
H2015 C1973 0.930 . S
H2016 C1975 0.929 . S
H2017 C1976 0.930 . S
H2018 C1977 0.930 . S
H2019 C1978 0.930 . S
H2020 C1982 0.929 . S
H2021 C1984 0.930 . S
H2022 C1990 0.929 . S
H2023 C1991 0.930 . S
Li2024 N2041 1.990 . S
Li2024 O2084 1.956 . S
Li2024 O2085 1.970 . S
Li2024 O2086 1.961 . S
Li2025 N2049 1.990 . S
Li2025 O2084 1.970 . S
Li2025 O2085 1.956 . S
Li2025 O2087 1.961 . S
Li2026 N2071 1.990 . S
Li2026 O2084 1.961 . S
Li2026 O2086 1.956 . S
Li2026 O2087 1.970 . S
Li2027 N2077 1.990 . S
Li2027 O2085 1.961 . S
Li2027 O2086 1.970 . S
Li2027 O2087 1.956 . S
C2028 C2030 1.348 . S
C2028 C2031 1.356 . S
C2028 O2084 1.325 . S
N2029 C2032 1.314 . S
N2029 C2033 1.279 . S
C2030 C2028 1.348 . S
C2030 C2032 1.353 . S
C2030 H2088 0.929 . S
C2031 C2028 1.356 . S
C2031 C2033 1.358 . S
C2031 H2089 0.930 . S
C2032 N2029 1.314 . S
C2032 C2030 1.353 . S
C2032 H2090 0.930 . S
C2033 N2029 1.279 . S
C2033 C2031 1.358 . S
C2033 H2091 0.930 . S
C2034 C2037 1.348 . S
C2034 C2038 1.356 . S
C2034 O2085 1.325 . S
C2035 N2036 1.279 . S
C2035 C2038 1.358 . S
C2035 H2092 0.930 . S
N2036 C2035 1.279 . S
N2036 C2039 1.314 . S
C2037 C2034 1.348 . S
C2037 C2039 1.353 . S
C2037 H2093 0.929 . S
C2038 C2034 1.356 . S
C2038 C2035 1.358 . S
C2038 H2094 0.930 . S
C2039 N2036 1.314 . S
C2039 C2037 1.353 . S
C2039 H2095 0.930 . S
C2040 N2041 1.314 . S
C2040 C2045 1.353 . S
C2040 H2046 0.930 . S
N2041 Li2024 1.990 . S
N2041 C2040 1.314 . S
N2041 C2043 1.279 . S
C2042 C2043 1.358 . S
C2042 C2044 1.356 . S
C2042 H2096 0.930 . S
C2043 N2041 1.279 . S
C2043 C2042 1.358 . S
C2043 H2047 0.930 . S
C2044 C2042 1.356 . S
C2044 C2045 1.348 . S
C2045 C2040 1.353 . S
C2045 C2044 1.348 . S
C2045 H2097 0.929 . S
H2046 C2040 0.930 . S
H2047 C2043 0.930 . S
C2048 N2049 1.314 . S
C2048 C2050 1.353 . S
C2048 H2054 0.930 . S
N2049 Li2025 1.990 . S
N2049 C2048 1.314 . S
N2049 C2052 1.279 . S
C2050 C2048 1.353 . S
C2050 C2053 1.348 . S
C2050 H2098 0.929 . S
C2051 C2052 1.358 . S
C2051 C2053 1.356 . S
C2051 H2099 0.930 . S
C2052 N2049 1.279 . S
C2052 C2051 1.358 . S
C2052 H2055 0.930 . S
C2053 C2050 1.348 . S
C2053 C2051 1.356 . S
H2054 C2048 0.930 . S
H2055 C2052 0.930 . S
C2056 C2058 1.348 . S
C2056 C2059 1.356 . S
C2056 O2086 1.325 . S
N2057 C2060 1.314 . S
N2057 C2061 1.279 . S
C2058 C2056 1.348 . S
C2058 C2060 1.353 . S
C2058 H2100 0.929 . S
C2059 C2056 1.356 . S
C2059 C2061 1.358 . S
C2059 H2101 0.930 . S
C2060 N2057 1.314 . S
C2060 C2058 1.353 . S
C2060 H2102 0.930 . S
C2061 N2057 1.279 . S
C2061 C2059 1.358 . S
C2061 H2103 0.930 . S
C2062 C2063 1.348 . S
C2062 C2064 1.356 . S
C2062 O2087 1.325 . S
C2063 C2062 1.348 . S
C2063 C2065 1.353 . S
C2063 H2104 0.929 . S
C2064 C2062 1.356 . S
C2064 C2066 1.358 . S
C2064 H2105 0.930 . S
C2065 C2063 1.353 . S
C2065 N2067 1.314 . S
C2065 H2106 0.930 . S
C2066 C2064 1.358 . S
C2066 N2067 1.279 . S
C2066 H2107 0.930 . S
N2067 C2065 1.314 . S
N2067 C2066 1.279 . S
C2068 C2070 1.353 . S
C2068 N2071 1.314 . S
C2068 H2074 0.930 . S
C2069 N2071 1.279 . S
C2069 C2072 1.358 . S
C2069 H2075 0.930 . S
C2070 C2068 1.353 . S
C2070 C2073 1.348 . S
C2070 H2108 0.929 . S
N2071 Li2026 1.990 . S
N2071 C2068 1.314 . S
N2071 C2069 1.279 . S
C2072 C2069 1.358 . S
C2072 C2073 1.356 . S
C2072 H2109 0.930 . S
C2073 C2070 1.348 . S
C2073 C2072 1.356 . S
H2074 C2068 0.930 . S
H2075 C2069 0.930 . S
C2076 N2077 1.314 . S
C2076 C2078 1.353 . S
C2076 H2082 0.930 . S
N2077 Li2027 1.990 . S
N2077 C2076 1.314 . S
N2077 C2080 1.279 . S
C2078 C2076 1.353 . S
C2078 C2081 1.348 . S
C2078 H2110 0.929 . S
C2079 C2080 1.358 . S
C2079 C2081 1.356 . S
C2079 H2111 0.930 . S
C2080 N2077 1.279 . S
C2080 C2079 1.358 . S
C2080 H2083 0.930 . S
C2081 C2078 1.348 . S
C2081 C2079 1.356 . S
H2082 C2076 0.930 . S
H2083 C2080 0.930 . S
O2084 Li2024 1.956 . S
O2084 Li2025 1.970 . S
O2084 Li2026 1.961 . S
O2084 C2028 1.325 . S
O2085 Li2024 1.970 . S
O2085 Li2025 1.956 . S
O2085 Li2027 1.961 . S
O2085 C2034 1.325 . S
O2086 Li2024 1.961 . S
O2086 Li2026 1.956 . S
O2086 Li2027 1.970 . S
O2086 C2056 1.325 . S
O2087 Li2025 1.961 . S
O2087 Li2026 1.970 . S
O2087 Li2027 1.956 . S
O2087 C2062 1.325 . S
H2088 C2030 0.929 . S
H2089 C2031 0.930 . S
H2090 C2032 0.930 . S
H2091 C2033 0.930 . S
H2092 C2035 0.930 . S
H2093 C2037 0.929 . S
H2094 C2038 0.930 . S
H2095 C2039 0.930 . S
H2096 C2042 0.930 . S
H2097 C2045 0.929 . S
H2098 C2050 0.929 . S
H2099 C2051 0.930 . S
H2100 C2058 0.929 . S
H2101 C2059 0.930 . S
H2102 C2060 0.930 . S
H2103 C2061 0.930 . S
H2104 C2063 0.929 . S
H2105 C2064 0.930 . S
H2106 C2065 0.930 . S
H2107 C2066 0.930 . S
H2108 C2070 0.929 . S
H2109 C2072 0.930 . S
H2110 C2078 0.929 . S
H2111 C2079 0.930 . S
Tb2112 N2141 2.617 . S
Tb2112 N2147 2.572 . S
Tb2112 O2156 2.465 . S
Tb2112 O2157 2.387 . S
Tb2112 O2159 2.428 . S
Tb2112 O2160 2.308 . S
Tb2112 O2164 2.344 1_545 S
Tb2112 O2167 2.393 . S
Tb2112 C2176 2.802 . S
C2113 N2114 1.379 . S
C2113 C2116 1.416 . S
C2113 C2120 1.424 1_556 S
N2114 C2113 1.379 . S
N2114 C2117 1.334 . S
N2114 Tb2123 2.617 1_566 S
C2115 C2117 1.390 . S
C2115 C2118 1.339 . S
C2115 H2135 0.930 . S
C2116 C2113 1.416 . S
C2116 C2118 1.416 . S
C2116 C2122 1.448 . S
C2117 N2114 1.334 . S
C2117 C2115 1.390 . S
C2117 H2128 0.930 . S
C2118 C2115 1.339 . S
C2118 C2116 1.416 . S
C2118 H2139 0.930 . S
C2119 C2120 1.413 . S
C2119 C2121 1.427 1_554 S
C2119 C2125 1.416 . S
C2120 C2113 1.424 1_554 S
C2120 C2119 1.413 . S
C2120 N2124 1.361 . S
C2121 C2119 1.427 1_556 S
C2121 C2122 1.328 . S
C2121 H2136 0.942 . S
C2122 C2116 1.448 . S
C2122 C2121 1.328 . S
C2122 H2137 0.930 . S
Tb2123 N2114 2.617 1_544 S
Tb2123 N2124 2.572 1_545 S
Tb2123 O2158 2.349 1_655 S
Tb2123 O2161 2.393 1_654 S
Tb2123 O2162 2.465 . S
Tb2123 O2163 2.387 1_645 S
Tb2123 O2165 2.428 1_554 S
Tb2123 O2166 2.308 1_655 S
Tb2123 C2187 2.802 . S
N2124 C2120 1.361 . S
N2124 Tb2123 2.572 1_565 S
N2124 C2126 1.340 . S
C2125 C2119 1.416 . S
C2125 C2127 1.332 . S
C2125 H2133 0.931 . S
C2126 N2124 1.340 . S
C2126 C2127 1.407 . S
C2126 H2132 0.930 . S
C2127 C2125 1.332 . S
C2127 C2126 1.407 . S
C2127 H2129 0.929 . S
H2128 C2117 0.930 . S
H2129 C2127 0.929 . S
H2130 C2145 0.930 . S
H2131 C2152 0.929 1_556 S
H2132 C2126 0.930 . S
H2133 C2125 0.931 . S
H2134 C2148 0.932 . S
H2135 C2115 0.930 . S
H2136 C2121 0.942 . S
H2137 C2122 0.930 . S
H2138 C2143 0.930 . S
H2139 C2118 0.930 . S
H2140 C2151 0.931 . S
N2141 Tb2112 2.617 . S
N2141 C2142 1.379 . S
N2141 C2145 1.334 . S
C2142 N2141 1.379 . S
C2142 C2144 1.416 . S
C2142 C2150 1.424 . S
C2143 H2138 0.930 . S
C2143 C2145 1.390 . S
C2143 C2146 1.339 . S
C2144 C2142 1.416 . S
C2144 C2146 1.416 . S
C2144 C2177 1.448 . S
C2145 H2130 0.930 . S
C2145 N2141 1.334 . S
C2145 C2143 1.390 . S
C2146 C2143 1.339 . S
C2146 C2144 1.416 . S
C2146 H2153 0.930 . S
N2147 Tb2112 2.572 . S
N2147 C2148 1.340 . S
N2147 C2150 1.361 . S
C2148 H2134 0.932 . S
C2148 N2147 1.340 . S
C2148 C2152 1.407 . S
C2149 C2150 1.413 . S
C2149 C2151 1.416 . S
C2149 C2178 1.427 . S
C2150 C2142 1.424 . S
C2150 N2147 1.361 . S
C2150 C2149 1.413 . S
C2151 H2140 0.931 . S
C2151 C2149 1.416 . S
C2151 C2152 1.332 . S
C2152 H2131 0.929 1_554 S
C2152 C2148 1.407 . S
C2152 C2151 1.332 . S
H2153 C2146 0.930 . S
H2154 C2177 0.930 . S
H2155 C2178 0.929 . S
O2156 Tb2112 2.465 . S
O2156 C2176 1.264 . S
O2157 Tb2112 2.387 . S
O2157 C2168 1.264 . S
O2158 Tb2123 2.349 1_455 S
O2158 C2168 1.243 . S
O2159 Tb2112 2.428 . S
O2159 C2176 1.256 . S
O2160 Tb2112 2.308 . S
O2160 C2175 1.266 1_554 S
O2161 Tb2123 2.393 1_456 S
O2161 C2175 1.248 . S
O2162 Tb2123 2.465 . S
O2162 C2187 1.264 . S
O2163 Tb2123 2.387 1_465 S
O2163 C2179 1.264 . S
O2164 Tb2112 2.344 1_565 S
O2164 C2179 1.246 . S
O2165 Tb2123 2.428 1_556 S
O2165 C2187 1.256 1_556 S
O2166 Tb2123 2.308 1_455 S
O2166 C2186 1.266 . S
O2167 Tb2112 2.393 . S
O2167 C2186 1.248 . S
C2168 O2157 1.264 . S
C2168 O2158 1.243 . S
C2169 C2172 1.399 . S
C2169 C2174 1.383 . S
C2169 C2176 1.496 . S
C2170 C2171 1.393 . S
C2170 C2174 1.389 1_565 S
C2171 C2170 1.393 . S
C2171 C2173 1.367 1_565 S
C2171 H2188 0.951 . S
C2172 C2169 1.399 . S
C2172 C2173 1.392 . S
C2172 H2189 0.929 . S
C2173 C2171 1.367 1_545 S
C2173 C2172 1.392 . S
C2173 H2190 0.929 . S
C2174 C2169 1.383 . S
C2174 C2170 1.389 1_545 S
C2174 H2191 0.931 . S
C2175 O2160 1.266 1_556 S
C2175 O2161 1.248 . S
C2176 Tb2112 2.802 . S
C2176 O2156 1.264 . S
C2176 O2159 1.256 . S
C2176 C2169 1.496 . S
C2177 C2144 1.448 . S
C2177 H2154 0.930 . S
C2177 C2178 1.328 . S
C2178 C2149 1.427 . S
C2178 H2155 0.929 . S
C2178 C2177 1.328 . S
C2179 O2163 1.264 . S
C2179 O2164 1.246 . S
C2180 C2183 1.399 . S
C2180 C2184 1.383 1_556 S
C2180 C2187 1.496 1_556 S
C2181 C2182 1.399 1_554 S
C2181 C2184 1.389 . S
C2182 C2181 1.399 1_556 S
C2182 C2185 1.380 . S
C2182 H2192 0.929 . S
C2183 C2180 1.399 . S
C2183 C2185 1.392 . S
C2183 H2193 0.929 . S
C2184 C2180 1.383 1_554 S
C2184 C2181 1.389 . S
C2184 H2194 0.931 . S
C2185 C2182 1.380 . S
C2185 C2183 1.392 . S
C2185 H2195 0.929 . S
C2186 O2166 1.266 . S
C2186 O2167 1.248 . S
C2187 Tb2123 2.802 . S
C2187 O2162 1.264 . S
C2187 O2165 1.256 1_554 S
C2187 C2180 1.496 1_554 S
H2188 C2171 0.951 . S
H2189 C2172 0.929 . S
H2190 C2173 0.929 . S
H2191 C2174 0.931 . S
H2192 C2182 0.929 . S
H2193 C2183 0.929 . S
H2194 C2184 0.931 . S
H2195 C2185 0.929 . S
Tb2196 N2225 2.617 . S
Tb2196 N2231 2.572 . S
Tb2196 O2240 2.465 . S
Tb2196 O2241 2.387 . S
Tb2196 O2243 2.428 . S
Tb2196 O2244 2.308 . S
Tb2196 O2248 2.349 . S
Tb2196 O2251 2.393 . S
Tb2196 C2260 2.802 . S
C2197 N2198 1.379 . S
C2197 C2200 1.416 . S
C2197 C2204 1.424 . S
N2198 C2197 1.379 . S
N2198 C2201 1.334 . S
N2198 Tb2207 2.617 . S
C2199 C2201 1.390 . S
C2199 C2202 1.339 . S
C2199 H2219 0.930 . S
C2200 C2197 1.416 . S
C2200 C2202 1.416 . S
C2200 C2206 1.448 . S
C2201 N2198 1.334 . S
C2201 C2199 1.390 . S
C2201 H2212 0.930 . S
C2202 C2199 1.339 . S
C2202 C2200 1.416 . S
C2202 H2223 0.930 . S
C2203 C2204 1.413 . S
C2203 C2205 1.427 . S
C2203 C2209 1.416 . S
C2204 C2197 1.424 . S
C2204 C2203 1.413 . S
C2204 N2208 1.361 . S
C2205 C2203 1.427 . S
C2205 C2206 1.328 . S
C2205 H2220 0.929 . S
C2206 C2200 1.448 . S
C2206 C2205 1.328 . S
C2206 H2221 0.930 . S
Tb2207 N2198 2.617 . S
Tb2207 N2208 2.572 . S
Tb2207 O2242 2.349 . S
Tb2207 O2245 2.393 . S
Tb2207 O2246 2.465 . S
Tb2207 O2247 2.387 . S
Tb2207 O2249 2.428 . S
Tb2207 O2250 2.308 . S
Tb2207 C2271 2.802 . S
N2208 C2204 1.361 . S
N2208 Tb2207 2.572 . S
N2208 C2210 1.340 . S
C2209 C2203 1.416 . S
C2209 C2211 1.332 . S
C2209 H2217 0.931 . S
C2210 N2208 1.340 . S
C2210 C2211 1.407 . S
C2210 H2216 0.930 . S
C2211 C2209 1.332 . S
C2211 C2210 1.407 . S
C2211 H2213 0.929 . S
H2212 C2201 0.930 . S
H2213 C2211 0.929 . S
H2214 C2229 0.930 . S
H2215 C2236 0.929 . S
H2216 C2210 0.930 . S
H2217 C2209 0.931 . S
H2218 C2232 0.930 . S
H2219 C2199 0.930 . S
H2220 C2205 0.929 . S
H2221 C2206 0.930 . S
H2222 C2227 0.930 . S
H2223 C2202 0.930 . S
H2224 C2235 0.931 . S
N2225 Tb2196 2.617 . S
N2225 C2226 1.379 . S
N2225 C2229 1.334 . S
C2226 N2225 1.379 . S
C2226 C2228 1.416 . S
C2226 C2234 1.424 . S
C2227 H2222 0.930 . S
C2227 C2229 1.390 . S
C2227 C2230 1.339 . S
C2228 C2226 1.416 . S
C2228 C2230 1.416 . S
C2228 C2261 1.448 . S
C2229 H2214 0.930 . S
C2229 N2225 1.334 . S
C2229 C2227 1.390 . S
C2230 C2227 1.339 . S
C2230 C2228 1.416 . S
C2230 H2237 0.930 . S
N2231 Tb2196 2.572 . S
N2231 C2232 1.340 . S
N2231 C2234 1.361 . S
C2232 H2218 0.930 . S
C2232 N2231 1.340 . S
C2232 C2236 1.407 . S
C2233 C2234 1.413 . S
C2233 C2235 1.416 . S
C2233 C2262 1.427 . S
C2234 C2226 1.424 . S
C2234 N2231 1.361 . S
C2234 C2233 1.413 . S
C2235 H2224 0.931 . S
C2235 C2233 1.416 . S
C2235 C2236 1.332 . S
C2236 H2215 0.929 . S
C2236 C2232 1.407 . S
C2236 C2235 1.332 . S
H2237 C2230 0.930 . S
H2238 C2261 0.930 . S
H2239 C2262 0.929 . S
O2240 Tb2196 2.465 . S
O2240 C2260 1.264 . S
O2241 Tb2196 2.387 . S
O2241 C2252 1.264 . S
O2242 Tb2207 2.349 . S
O2242 C2252 1.243 . S
O2243 Tb2196 2.428 . S
O2243 C2260 1.256 . S
O2244 Tb2196 2.308 . S
O2244 C2259 1.266 . S
O2245 Tb2207 2.393 . S
O2245 C2259 1.248 . S
O2246 Tb2207 2.465 . S
O2246 C2271 1.264 . S
O2247 Tb2207 2.387 . S
O2247 C2263 1.264 . S
O2248 Tb2196 2.349 . S
O2248 C2263 1.243 . S
O2249 Tb2207 2.428 . S
O2249 C2271 1.256 . S
O2250 Tb2207 2.308 . S
O2250 C2270 1.266 . S
O2251 Tb2196 2.393 . S
O2251 C2270 1.248 . S
C2252 O2241 1.264 . S
C2252 O2242 1.243 . S
C2253 C2256 1.399 . S
C2253 C2258 1.383 . S
C2253 C2260 1.496 . S
C2254 C2255 1.399 . S
C2254 C2258 1.389 . S
C2255 C2254 1.399 . S
C2255 C2257 1.380 . S
C2255 H2272 0.929 . S
C2256 C2253 1.399 . S
C2256 C2257 1.392 . S
C2256 H2273 0.929 . S
C2257 C2255 1.380 . S
C2257 C2256 1.392 . S
C2257 H2274 0.929 . S
C2258 C2253 1.383 . S
C2258 C2254 1.389 . S
C2258 H2275 0.931 . S
C2259 O2244 1.266 . S
C2259 O2245 1.248 . S
C2260 Tb2196 2.802 . S
C2260 O2240 1.264 . S
C2260 O2243 1.256 . S
C2260 C2253 1.496 . S
C2261 C2228 1.448 . S
C2261 H2238 0.930 . S
C2261 C2262 1.328 . S
C2262 C2233 1.427 . S
C2262 H2239 0.929 . S
C2262 C2261 1.328 . S
C2263 O2247 1.264 . S
C2263 O2248 1.243 . S
C2264 C2267 1.399 . S
C2264 C2268 1.383 . S
C2264 C2271 1.496 . S
C2265 C2266 1.399 . S
C2265 C2268 1.389 . S
C2266 C2265 1.399 . S
C2266 C2269 1.380 . S
C2266 H2276 0.929 . S
C2267 C2264 1.399 . S
C2267 C2269 1.392 . S
C2267 H2277 0.929 . S
C2268 C2264 1.383 . S
C2268 C2265 1.389 . S
C2268 H2278 0.931 . S
C2269 C2266 1.380 . S
C2269 C2267 1.392 . S
C2269 H2279 0.929 . S
C2270 O2250 1.266 . S
C2270 O2251 1.248 . S
C2271 Tb2207 2.802 . S
C2271 O2246 1.264 . S
C2271 O2249 1.256 . S
C2271 C2264 1.496 . S
H2272 C2255 0.929 . S
H2273 C2256 0.929 . S
H2274 C2257 0.929 . S
H2275 C2258 0.931 . S
H2276 C2266 0.929 . S
H2277 C2267 0.929 . S
H2278 C2268 0.931 . S
H2279 C2269 0.929 . S
Tb2280 N2309 2.617 1_545 S
Tb2280 N2315 2.572 1_545 S
Tb2280 O2324 2.465 . S
Tb2280 O2325 2.387 1_545 S
Tb2280 O2327 2.428 . S
Tb2280 O2328 2.308 . S
Tb2280 O2332 2.349 . S
Tb2280 O2335 2.393 . S
Tb2280 C2344 2.802 . S
C2281 N2282 1.379 . S
C2281 C2284 1.416 . S
C2281 C2288 1.424 . S
N2282 C2281 1.379 . S
N2282 C2285 1.334 . S
N2282 Tb2291 2.617 . S
C2283 C2285 1.390 . S
C2283 C2286 1.339 . S
C2283 H2303 0.930 . S
C2284 C2281 1.416 . S
C2284 C2286 1.416 . S
C2284 C2290 1.448 . S
C2285 N2282 1.334 . S
C2285 C2283 1.390 . S
C2285 H2296 0.930 . S
C2286 C2283 1.339 . S
C2286 C2284 1.416 . S
C2286 H2307 0.930 . S
C2287 C2288 1.413 . S
C2287 C2289 1.427 . S
C2287 C2293 1.416 . S
C2288 C2281 1.424 . S
C2288 C2287 1.413 . S
C2288 N2292 1.361 . S
C2289 C2287 1.427 . S
C2289 C2290 1.328 . S
C2289 H2304 0.929 . S
C2290 C2284 1.448 . S
C2290 C2289 1.328 . S
C2290 H2305 0.930 . S
Tb2291 N2282 2.617 . S
Tb2291 N2292 2.572 . S
Tb2291 O2326 2.349 1_545 S
Tb2291 O2329 2.393 . S
Tb2291 O2330 2.465 . S
Tb2291 O2331 2.387 . S
Tb2291 O2333 2.428 . S
Tb2291 O2334 2.308 . S
Tb2291 C2355 2.802 . S
N2292 C2288 1.361 . S
N2292 Tb2291 2.572 . S
N2292 C2294 1.340 . S
C2293 C2287 1.416 . S
C2293 C2295 1.332 . S
C2293 H2301 0.931 . S
C2294 N2292 1.340 . S
C2294 C2295 1.407 . S
C2294 H2300 0.930 . S
C2295 C2293 1.332 . S
C2295 C2294 1.407 . S
C2295 H2297 0.929 . S
H2296 C2285 0.930 . S
H2297 C2295 0.929 . S
H2298 C2313 0.967 . S
H2299 C2320 0.929 . S
H2300 C2294 0.930 . S
H2301 C2293 0.931 . S
H2302 C2316 0.930 . S
H2303 C2283 0.930 . S
H2304 C2289 0.929 . S
H2305 C2290 0.930 . S
H2306 C2311 0.930 . S
H2307 C2286 0.930 . S
H2308 C2319 0.931 . S
N2309 Tb2280 2.617 1_565 S
N2309 C2310 1.379 . S
N2309 C2313 1.338 1_565 S
C2310 N2309 1.379 . S
C2310 C2312 1.416 . S
C2310 C2318 1.424 . S
C2311 H2306 0.930 . S
C2311 C2313 1.353 1_565 S
C2311 C2314 1.339 . S
C2312 C2310 1.416 . S
C2312 C2314 1.416 . S
C2312 C2345 1.448 . S
C2313 H2298 0.967 . S
C2313 N2309 1.338 1_545 S
C2313 C2311 1.353 1_545 S
C2314 C2311 1.339 . S
C2314 C2312 1.416 . S
C2314 H2321 0.930 . S
N2315 Tb2280 2.572 1_565 S
N2315 C2316 1.340 . S
N2315 C2318 1.361 . S
C2316 H2302 0.930 . S
C2316 N2315 1.340 . S
C2316 C2320 1.407 . S
C2317 C2318 1.413 . S
C2317 C2319 1.416 . S
C2317 C2346 1.427 . S
C2318 C2310 1.424 . S
C2318 N2315 1.361 . S
C2318 C2317 1.413 . S
C2319 H2308 0.931 . S
C2319 C2317 1.416 . S
C2319 C2320 1.332 . S
C2320 H2299 0.929 . S
C2320 C2316 1.407 . S
C2320 C2319 1.332 . S
H2321 C2314 0.930 . S
H2322 C2345 0.930 . S
H2323 C2346 0.929 . S
O2324 Tb2280 2.465 . S
O2324 C2344 1.264 . S
O2325 Tb2280 2.387 1_565 S
O2325 C2336 1.264 . S
O2326 Tb2291 2.349 1_565 S
O2326 C2336 1.243 . S
O2327 Tb2280 2.428 . S
O2327 C2344 1.256 . S
O2328 Tb2280 2.308 . S
O2328 C2343 1.266 . S
O2329 Tb2291 2.393 . S
O2329 C2343 1.248 . S
O2330 Tb2291 2.465 . S
O2330 C2355 1.264 . S
O2331 Tb2291 2.387 . S
O2331 C2347 1.264 . S
O2332 Tb2280 2.349 . S
O2332 C2347 1.243 . S
O2333 Tb2291 2.428 . S
O2333 C2355 1.256 . S
O2334 Tb2291 2.308 . S
O2334 C2354 1.266 . S
O2335 Tb2280 2.393 . S
O2335 C2354 1.248 . S
C2336 O2325 1.264 . S
C2336 O2326 1.243 . S
C2337 C2340 1.399 . S
C2337 C2342 1.383 . S
C2337 C2344 1.496 . S
C2338 C2339 1.399 . S
C2338 C2342 1.389 . S
C2339 C2338 1.399 . S
C2339 C2341 1.380 . S
C2339 H2356 0.929 . S
C2340 C2337 1.399 . S
C2340 C2341 1.392 . S
C2340 H2357 0.929 . S
C2341 C2339 1.380 . S
C2341 C2340 1.392 . S
C2341 H2358 0.929 . S
C2342 C2337 1.383 . S
C2342 C2338 1.389 . S
C2342 H2359 0.931 . S
C2343 O2328 1.266 . S
C2343 O2329 1.248 . S
C2344 Tb2280 2.802 . S
C2344 O2324 1.264 . S
C2344 O2327 1.256 . S
C2344 C2337 1.496 . S
C2345 C2312 1.448 . S
C2345 H2322 0.930 . S
C2345 C2346 1.328 . S
C2346 C2317 1.427 . S
C2346 H2323 0.929 . S
C2346 C2345 1.328 . S
C2347 O2331 1.264 . S
C2347 O2332 1.243 . S
C2348 C2351 1.399 . S
C2348 C2352 1.383 . S
C2348 C2355 1.496 1_565 S
C2349 C2350 1.399 . S
C2349 C2352 1.389 . S
C2350 C2349 1.399 . S
C2350 C2353 1.380 . S
C2350 H2360 0.929 . S
C2351 C2348 1.399 . S
C2351 C2353 1.392 . S
C2351 H2361 0.929 . S
C2352 C2348 1.383 . S
C2352 C2349 1.389 . S
C2352 H2362 0.931 . S
C2353 C2350 1.380 . S
C2353 C2351 1.392 . S
C2353 H2363 0.929 . S
C2354 O2334 1.266 . S
C2354 O2335 1.248 . S
C2355 Tb2291 2.802 . S
C2355 O2330 1.264 . S
C2355 O2333 1.256 . S
C2355 C2348 1.496 1_545 S
H2356 C2339 0.929 . S
H2357 C2340 0.929 . S
H2358 C2341 0.929 . S
H2359 C2342 0.931 . S
H2360 C2350 0.929 . S
H2361 C2351 0.929 . S
H2362 C2352 0.931 . S
H2363 C2353 0.929 . S
Tb2364 N2393 2.617 . S
Tb2364 N2399 2.572 . S
Tb2364 O2408 2.465 . S
Tb2364 O2409 2.387 . S
Tb2364 O2411 2.428 . S
Tb2364 O2412 2.308 . S
Tb2364 O2416 2.349 . S
Tb2364 O2419 2.393 . S
Tb2364 C2428 2.802 . S
C2365 N2366 1.379 . S
C2365 C2368 1.416 . S
C2365 C2372 1.424 . S
N2366 C2365 1.379 . S
N2366 C2369 1.334 . S
N2366 Tb2375 2.617 . S
C2367 C2369 1.390 . S
C2367 C2370 1.339 . S
C2367 H2387 0.930 . S
C2368 C2365 1.416 . S
C2368 C2370 1.416 . S
C2368 C2374 1.448 . S
C2369 N2366 1.334 . S
C2369 C2367 1.390 . S
C2369 H2380 0.930 . S
C2370 C2367 1.339 . S
C2370 C2368 1.416 . S
C2370 H2391 0.930 . S
C2371 C2372 1.413 . S
C2371 C2373 1.427 . S
C2371 C2377 1.416 . S
C2372 C2365 1.424 . S
C2372 C2371 1.413 . S
C2372 N2376 1.361 . S
C2373 C2371 1.427 . S
C2373 C2374 1.328 . S
C2373 H2388 0.929 . S
C2374 C2368 1.448 . S
C2374 C2373 1.328 . S
C2374 H2389 0.930 . S
Tb2375 N2366 2.617 . S
Tb2375 N2376 2.572 . S
Tb2375 O2410 2.349 . S
Tb2375 O2413 2.393 . S
Tb2375 O2414 2.465 . S
Tb2375 O2415 2.387 . S
Tb2375 O2417 2.428 . S
Tb2375 O2418 2.308 . S
Tb2375 C2439 2.802 . S
N2376 C2372 1.361 . S
N2376 Tb2375 2.572 . S
N2376 C2378 1.340 . S
C2377 C2371 1.416 . S
C2377 C2379 1.332 . S
C2377 H2385 0.931 . S
C2378 N2376 1.340 . S
C2378 C2379 1.407 . S
C2378 H2384 0.930 . S
C2379 C2377 1.332 . S
C2379 C2378 1.407 . S
C2379 H2381 0.929 . S
H2380 C2369 0.930 . S
H2381 C2379 0.929 . S
H2382 C2397 0.930 . S
H2383 C2404 0.929 . S
H2384 C2378 0.930 . S
H2385 C2377 0.931 . S
H2386 C2400 0.930 . S
H2387 C2367 0.930 . S
H2388 C2373 0.929 . S
H2389 C2374 0.930 . S
H2390 C2395 0.930 . S
H2391 C2370 0.930 . S
H2392 C2403 0.931 . S
N2393 Tb2364 2.617 . S
N2393 C2394 1.379 . S
N2393 C2397 1.334 . S
C2394 N2393 1.379 . S
C2394 C2396 1.416 . S
C2394 C2402 1.424 . S
C2395 H2390 0.930 . S
C2395 C2397 1.390 . S
C2395 C2398 1.339 . S
C2396 C2394 1.416 . S
C2396 C2398 1.416 . S
C2396 C2429 1.448 . S
C2397 H2382 0.930 . S
C2397 N2393 1.334 . S
C2397 C2395 1.390 . S
C2398 C2395 1.339 . S
C2398 C2396 1.416 . S
C2398 H2405 0.930 . S
N2399 Tb2364 2.572 . S
N2399 C2400 1.340 . S
N2399 C2402 1.361 . S
C2400 H2386 0.930 . S
C2400 N2399 1.340 . S
C2400 C2404 1.407 . S
C2401 C2402 1.413 . S
C2401 C2403 1.416 . S
C2401 C2430 1.427 . S
C2402 C2394 1.424 . S
C2402 N2399 1.361 . S
C2402 C2401 1.413 . S
C2403 H2392 0.931 . S
C2403 C2401 1.416 . S
C2403 C2404 1.332 . S
C2404 H2383 0.929 . S
C2404 C2400 1.407 . S
C2404 C2403 1.332 . S
H2405 C2398 0.930 . S
H2406 C2429 0.930 . S
H2407 C2430 0.929 . S
O2408 Tb2364 2.465 . S
O2408 C2428 1.264 . S
O2409 Tb2364 2.387 . S
O2409 C2420 1.264 . S
O2410 Tb2375 2.349 . S
O2410 C2420 1.243 . S
O2411 Tb2364 2.428 . S
O2411 C2428 1.256 . S
O2412 Tb2364 2.308 . S
O2412 C2427 1.266 . S
O2413 Tb2375 2.393 . S
O2413 C2427 1.248 . S
O2414 Tb2375 2.465 . S
O2414 C2439 1.264 . S
O2415 Tb2375 2.387 . S
O2415 C2431 1.264 . S
O2416 Tb2364 2.349 . S
O2416 C2431 1.243 . S
O2417 Tb2375 2.428 . S
O2417 C2439 1.256 . S
O2418 Tb2375 2.308 . S
O2418 C2438 1.266 . S
O2419 Tb2364 2.393 . S
O2419 C2438 1.248 . S
C2420 O2409 1.264 . S
C2420 O2410 1.243 . S
C2421 C2424 1.399 . S
C2421 C2426 1.383 . S
C2421 C2428 1.496 . S
C2422 C2423 1.399 . S
C2422 C2426 1.389 . S
C2423 C2422 1.399 . S
C2423 C2425 1.380 . S
C2423 H2440 0.929 . S
C2424 C2421 1.399 . S
C2424 C2425 1.392 . S
C2424 H2441 0.929 . S
C2425 C2423 1.380 . S
C2425 C2424 1.392 . S
C2425 H2442 0.929 . S
C2426 C2421 1.383 . S
C2426 C2422 1.389 . S
C2426 H2443 0.931 . S
C2427 O2412 1.266 . S
C2427 O2413 1.248 . S
C2428 Tb2364 2.802 . S
C2428 O2408 1.264 . S
C2428 O2411 1.256 . S
C2428 C2421 1.496 . S
C2429 C2396 1.448 . S
C2429 H2406 0.930 . S
C2429 C2430 1.328 . S
C2430 C2401 1.427 . S
C2430 H2407 0.929 . S
C2430 C2429 1.328 . S
C2431 O2415 1.264 . S
C2431 O2416 1.243 . S
C2432 C2435 1.399 . S
C2432 C2436 1.383 . S
C2432 C2439 1.496 . S
C2433 C2434 1.399 . S
C2433 C2436 1.389 . S
C2434 C2433 1.399 . S
C2434 C2437 1.380 . S
C2434 H2444 0.929 . S
C2435 C2432 1.399 . S
C2435 C2437 1.392 . S
C2435 H2445 0.929 . S
C2436 C2432 1.383 . S
C2436 C2433 1.389 . S
C2436 H2446 0.931 . S
C2437 C2434 1.380 . S
C2437 C2435 1.392 . S
C2437 H2447 0.929 . S
C2438 O2418 1.266 . S
C2438 O2419 1.248 . S
C2439 Tb2375 2.802 . S
C2439 O2414 1.264 . S
C2439 O2417 1.256 . S
C2439 C2432 1.496 . S
H2440 C2423 0.929 . S
H2441 C2424 0.929 . S
H2442 C2425 0.929 . S
H2443 C2426 0.931 . S
H2444 C2434 0.929 . S
H2445 C2435 0.929 . S
H2446 C2436 0.931 . S
H2447 C2437 0.929 . S
Tb2448 N2477 2.617 . S
Tb2448 N2483 2.572 . S
Tb2448 O2492 2.465 . S
Tb2448 O2493 2.387 1_565 S
Tb2448 O2495 2.428 . S
Tb2448 O2496 2.308 1_565 S
Tb2448 O2500 2.349 1_565 S
Tb2448 O2503 2.393 1_565 S
Tb2448 C2512 2.802 . S
C2449 N2450 1.379 1_455 S
C2449 C2452 1.416 1_455 S
C2449 C2456 1.424 . S
N2450 C2449 1.379 1_655 S
N2450 C2453 1.334 . S
N2450 Tb2459 2.617 1_655 S
C2451 C2453 1.390 . S
C2451 C2454 1.339 . S
C2451 H2471 0.930 . S
C2452 C2449 1.416 1_655 S
C2452 C2454 1.416 . S
C2452 C2458 1.448 1_655 S
C2453 N2450 1.334 . S
C2453 C2451 1.390 . S
C2453 H2464 0.930 . S
C2454 C2451 1.339 . S
C2454 C2452 1.416 . S
C2454 H2475 0.930 . S
C2455 C2456 1.413 . S
C2455 C2457 1.427 . S
C2455 C2461 1.416 . S
C2456 C2449 1.424 . S
C2456 C2455 1.413 . S
C2456 N2460 1.361 . S
C2457 C2455 1.427 . S
C2457 C2458 1.328 . S
C2457 H2472 0.929 . S
C2458 C2452 1.448 1_455 S
C2458 C2457 1.328 . S
C2458 H2473 0.930 1_455 S
Tb2459 N2450 2.617 1_455 S
Tb2459 N2460 2.572 . S
Tb2459 O2494 2.349 . S
Tb2459 O2497 2.393 1_455 S
Tb2459 O2498 2.465 . S
Tb2459 O2499 2.387 . S
Tb2459 O2501 2.428 1_455 S
Tb2459 O2502 2.308 . S
Tb2459 C2523 2.802 . S
N2460 C2456 1.361 . S
N2460 Tb2459 2.572 . S
N2460 C2462 1.340 . S
C2461 C2455 1.416 . S
C2461 C2463 1.332 . S
C2461 H2469 0.931 . S
C2462 N2460 1.340 . S
C2462 C2463 1.407 . S
C2462 H2468 0.930 . S
C2463 C2461 1.332 . S
C2463 C2462 1.407 . S
C2463 H2465 0.929 . S
H2464 C2453 0.930 . S
H2465 C2463 0.929 . S
H2466 C2481 0.930 1_545 S
H2467 C2488 0.929 . S
H2468 C2462 0.930 . S
H2469 C2461 0.931 . S
H2470 C2484 0.926 1_655 S
H2471 C2451 0.930 . S
H2472 C2457 0.929 . S
H2473 C2458 0.930 1_655 S
H2474 C2479 0.930 . S
H2475 C2454 0.930 . S
H2476 C2487 0.931 . S
N2477 Tb2448 2.617 . S
N2477 C2478 1.379 . S
N2477 C2481 1.334 . S
C2478 N2477 1.379 . S
C2478 C2480 1.416 . S
C2478 C2486 1.424 . S
C2479 H2474 0.930 . S
C2479 C2481 1.390 . S
C2479 C2482 1.339 . S
C2480 C2478 1.416 . S
C2480 C2482 1.416 . S
C2480 C2513 1.448 . S
C2481 H2466 0.930 1_565 S
C2481 N2477 1.334 . S
C2481 C2479 1.390 . S
C2482 C2479 1.339 . S
C2482 C2480 1.416 . S
C2482 H2489 0.930 . S
N2483 Tb2448 2.572 . S
N2483 C2484 1.345 . S
N2483 C2486 1.361 . S
C2484 H2470 0.926 1_455 S
C2484 N2483 1.345 . S
C2484 C2488 1.406 1_455 S
C2485 C2486 1.413 . S
C2485 C2487 1.416 1_455 S
C2485 C2514 1.427 . S
C2486 C2478 1.424 . S
C2486 N2483 1.361 . S
C2486 C2485 1.413 . S
C2487 H2476 0.931 . S
C2487 C2485 1.416 1_655 S
C2487 C2488 1.332 . S
C2488 H2467 0.929 . S
C2488 C2484 1.406 1_655 S
C2488 C2487 1.332 . S
H2489 C2482 0.930 . S
H2490 C2513 0.930 . S
H2491 C2514 0.929 . S
O2492 Tb2448 2.465 . S
O2492 C2512 1.264 . S
O2493 Tb2448 2.387 1_545 S
O2493 C2504 1.264 . S
O2494 Tb2459 2.349 . S
O2494 C2504 1.243 . S
O2495 Tb2448 2.428 . S
O2495 C2512 1.256 . S
O2496 Tb2448 2.308 1_545 S
O2496 C2511 1.266 1_455 S
O2497 Tb2459 2.393 1_655 S
O2497 C2511 1.248 . S
O2498 Tb2459 2.465 . S
O2498 C2523 1.264 . S
O2499 Tb2459 2.387 . S
O2499 C2515 1.264 . S
O2500 Tb2448 2.349 1_545 S
O2500 C2515 1.243 . S
O2501 Tb2459 2.428 1_655 S
O2501 C2523 1.256 1_655 S
O2502 Tb2459 2.308 . S
O2502 C2522 1.266 . S
O2503 Tb2448 2.393 1_545 S
O2503 C2522 1.248 . S
C2504 O2493 1.264 . S
C2504 O2494 1.243 . S
C2505 C2508 1.399 . S
C2505 C2510 1.383 . S
C2505 C2512 1.496 . S
C2506 C2507 1.399 . S
C2506 C2510 1.389 . S
C2507 C2506 1.399 . S
C2507 C2509 1.380 . S
C2507 H2524 0.929 . S
C2508 C2505 1.399 . S
C2508 C2509 1.392 . S
C2508 H2525 0.929 . S
C2509 C2507 1.380 . S
C2509 C2508 1.392 . S
C2509 H2526 0.929 . S
C2510 C2505 1.383 . S
C2510 C2506 1.389 . S
C2510 H2527 0.931 . S
C2511 O2496 1.266 1_655 S
C2511 O2497 1.248 . S
C2512 Tb2448 2.802 . S
C2512 O2492 1.264 . S
C2512 O2495 1.256 . S
C2512 C2505 1.496 . S
C2513 C2480 1.448 . S
C2513 H2490 0.930 . S
C2513 C2514 1.328 . S
C2514 C2485 1.427 . S
C2514 H2491 0.929 . S
C2514 C2513 1.328 . S
C2515 O2499 1.264 . S
C2515 O2500 1.243 . S
C2516 C2519 1.399 1_455 S
C2516 C2520 1.383 . S
C2516 C2523 1.496 . S
C2517 C2518 1.399 1_455 S
C2517 C2520 1.389 . S
C2518 C2517 1.399 1_655 S
C2518 C2521 1.380 . S
C2518 H2528 0.929 . S
C2519 C2516 1.399 1_655 S
C2519 C2521 1.392 . S
C2519 H2529 0.929 . S
C2520 C2516 1.383 . S
C2520 C2517 1.389 . S
C2520 H2530 0.931 . S
C2521 C2518 1.380 . S
C2521 C2519 1.392 . S
C2521 H2531 0.929 . S
C2522 O2502 1.266 . S
C2522 O2503 1.248 . S
C2523 Tb2459 2.802 . S
C2523 O2498 1.264 . S
C2523 O2501 1.256 1_455 S
C2523 C2516 1.496 . S
H2524 C2507 0.929 . S
H2525 C2508 0.929 . S
H2526 C2509 0.929 . S
H2527 C2510 0.931 . S
H2528 C2518 0.929 . S
H2529 C2519 0.929 . S
H2530 C2520 0.931 . S
H2531 C2521 0.929 . S
Tb2532 N2561 2.617 . S
Tb2532 N2567 2.572 . S
Tb2532 O2576 2.465 . S
Tb2532 O2577 2.387 . S
Tb2532 O2579 2.428 . S
Tb2532 O2580 2.308 . S
Tb2532 O2584 2.349 . S
Tb2532 O2587 2.393 . S
Tb2532 C2596 2.802 . S
C2533 N2534 1.379 . S
C2533 C2536 1.416 . S
C2533 C2540 1.424 . S
N2534 C2533 1.379 . S
N2534 C2537 1.334 . S
N2534 Tb2543 2.617 . S
C2535 C2537 1.390 . S
C2535 C2538 1.339 . S
C2535 H2555 0.930 . S
C2536 C2533 1.416 . S
C2536 C2538 1.416 . S
C2536 C2542 1.448 . S
C2537 N2534 1.334 . S
C2537 C2535 1.390 . S
C2537 H2548 0.930 . S
C2538 C2535 1.339 . S
C2538 C2536 1.416 . S
C2538 H2559 0.930 . S
C2539 C2540 1.413 . S
C2539 C2541 1.427 . S
C2539 C2545 1.416 . S
C2540 C2533 1.424 . S
C2540 C2539 1.413 . S
C2540 N2544 1.361 . S
C2541 C2539 1.427 . S
C2541 C2542 1.328 . S
C2541 H2556 0.929 . S
C2542 C2536 1.448 . S
C2542 C2541 1.328 . S
C2542 H2557 0.930 . S
Tb2543 N2534 2.617 . S
Tb2543 N2544 2.572 . S
Tb2543 O2578 2.349 . S
Tb2543 O2581 2.393 . S
Tb2543 O2582 2.465 . S
Tb2543 O2583 2.387 . S
Tb2543 O2585 2.428 . S
Tb2543 O2586 2.308 . S
Tb2543 C2607 2.802 . S
N2544 C2540 1.361 . S
N2544 Tb2543 2.572 . S
N2544 C2546 1.340 . S
C2545 C2539 1.416 . S
C2545 C2547 1.332 . S
C2545 H2553 0.931 . S
C2546 N2544 1.340 . S
C2546 C2547 1.407 . S
C2546 H2552 0.930 . S
C2547 C2545 1.332 . S
C2547 C2546 1.407 . S
C2547 H2549 0.929 . S
H2548 C2537 0.930 . S
H2549 C2547 0.929 . S
H2550 C2565 0.930 . S
H2551 C2572 0.929 . S
H2552 C2546 0.930 . S
H2553 C2545 0.931 . S
H2554 C2568 0.930 . S
H2555 C2535 0.930 . S
H2556 C2541 0.929 . S
H2557 C2542 0.930 . S
H2558 C2563 0.930 . S
H2559 C2538 0.930 . S
H2560 C2571 0.931 . S
N2561 Tb2532 2.617 . S
N2561 C2562 1.379 . S
N2561 C2565 1.334 . S
C2562 N2561 1.379 . S
C2562 C2564 1.416 . S
C2562 C2570 1.424 . S
C2563 H2558 0.930 . S
C2563 C2565 1.390 . S
C2563 C2566 1.339 . S
C2564 C2562 1.416 . S
C2564 C2566 1.416 . S
C2564 C2597 1.448 . S
C2565 H2550 0.930 . S
C2565 N2561 1.334 . S
C2565 C2563 1.390 . S
C2566 C2563 1.339 . S
C2566 C2564 1.416 . S
C2566 H2573 0.930 . S
N2567 Tb2532 2.572 . S
N2567 C2568 1.340 . S
N2567 C2570 1.361 . S
C2568 H2554 0.930 . S
C2568 N2567 1.340 . S
C2568 C2572 1.407 . S
C2569 C2570 1.413 . S
C2569 C2571 1.416 . S
C2569 C2598 1.427 . S
C2570 C2562 1.424 . S
C2570 N2567 1.361 . S
C2570 C2569 1.413 . S
C2571 H2560 0.931 . S
C2571 C2569 1.416 . S
C2571 C2572 1.332 . S
C2572 H2551 0.929 . S
C2572 C2568 1.407 . S
C2572 C2571 1.332 . S
H2573 C2566 0.930 . S
H2574 C2597 0.930 . S
H2575 C2598 0.929 . S
O2576 Tb2532 2.465 . S
O2576 C2596 1.264 . S
O2577 Tb2532 2.387 . S
O2577 C2588 1.264 . S
O2578 Tb2543 2.349 . S
O2578 C2588 1.243 . S
O2579 Tb2532 2.428 . S
O2579 C2596 1.256 . S
O2580 Tb2532 2.308 . S
O2580 C2595 1.266 . S
O2581 Tb2543 2.393 . S
O2581 C2595 1.248 . S
O2582 Tb2543 2.465 . S
O2582 C2607 1.264 . S
O2583 Tb2543 2.387 . S
O2583 C2599 1.264 . S
O2584 Tb2532 2.349 . S
O2584 C2599 1.243 . S
O2585 Tb2543 2.428 . S
O2585 C2607 1.256 . S
O2586 Tb2543 2.308 . S
O2586 C2606 1.266 . S
O2587 Tb2532 2.393 . S
O2587 C2606 1.248 . S
C2588 O2577 1.264 . S
C2588 O2578 1.243 . S
C2589 C2592 1.399 . S
C2589 C2594 1.383 . S
C2589 C2596 1.496 . S
C2590 C2591 1.399 . S
C2590 C2594 1.389 . S
C2591 C2590 1.399 . S
C2591 C2593 1.380 . S
C2591 H2608 0.929 . S
C2592 C2589 1.399 . S
C2592 C2593 1.392 . S
C2592 H2609 0.929 . S
C2593 C2591 1.380 . S
C2593 C2592 1.392 . S
C2593 H2610 0.929 . S
C2594 C2589 1.383 . S
C2594 C2590 1.389 . S
C2594 H2611 0.931 . S
C2595 O2580 1.266 . S
C2595 O2581 1.248 . S
C2596 Tb2532 2.802 . S
C2596 O2576 1.264 . S
C2596 O2579 1.256 . S
C2596 C2589 1.496 . S
C2597 C2564 1.448 . S
C2597 H2574 0.930 . S
C2597 C2598 1.328 . S
C2598 C2569 1.427 . S
C2598 H2575 0.929 . S
C2598 C2597 1.328 . S
C2599 O2583 1.264 . S
C2599 O2584 1.243 . S
C2600 C2603 1.399 . S
C2600 C2604 1.383 . S
C2600 C2607 1.496 . S
C2601 C2602 1.399 . S
C2601 C2604 1.389 . S
C2602 C2601 1.399 . S
C2602 C2605 1.380 . S
C2602 H2612 0.929 . S
C2603 C2600 1.399 . S
C2603 C2605 1.392 . S
C2603 H2613 0.929 . S
C2604 C2600 1.383 . S
C2604 C2601 1.389 . S
C2604 H2614 0.931 . S
C2605 C2602 1.380 . S
C2605 C2603 1.392 . S
C2605 H2615 0.929 . S
C2606 O2586 1.266 . S
C2606 O2587 1.248 . S
C2607 Tb2543 2.802 . S
C2607 O2582 1.264 . S
C2607 O2585 1.256 . S
C2607 C2600 1.496 . S
H2608 C2591 0.929 . S
H2609 C2592 0.929 . S
H2610 C2593 0.929 . S
H2611 C2594 0.931 . S
H2612 C2602 0.929 . S
H2613 C2603 0.929 . S
H2614 C2604 0.931 . S
H2615 C2605 0.929 . S
Tb2616 N2645 2.617 . S
Tb2616 N2651 2.572 . S
Tb2616 O2660 2.465 . S
Tb2616 O2661 2.387 1_556 S
Tb2616 O2663 2.428 . S
Tb2616 O2664 2.311 . S
Tb2616 O2668 2.349 1_556 S
Tb2616 O2671 2.393 1_556 S
Tb2616 C2680 2.802 . S
C2617 N2618 1.379 . S
C2617 C2620 1.416 . S
C2617 C2624 1.424 1_565 S
N2618 C2617 1.379 . S
N2618 C2621 1.334 . S
N2618 Tb2627 2.617 1_565 S
C2619 C2621 1.390 . S
C2619 C2622 1.339 . S
C2619 H2639 0.930 . S
C2620 C2617 1.416 . S
C2620 C2622 1.416 . S
C2620 C2626 1.448 . S
C2621 N2618 1.334 . S
C2621 C2619 1.390 . S
C2621 H2632 0.930 . S
C2622 C2619 1.339 . S
C2622 C2620 1.416 . S
C2622 H2643 0.930 . S
C2623 C2624 1.413 . S
C2623 C2625 1.427 . S
C2623 C2629 1.416 . S
C2624 C2617 1.424 1_545 S
C2624 C2623 1.413 . S
C2624 N2628 1.361 . S
C2625 C2623 1.427 . S
C2625 C2626 1.328 1_545 S
C2625 H2640 0.929 . S
C2626 C2620 1.448 . S
C2626 C2625 1.328 1_565 S
C2626 H2641 0.930 . S
Tb2627 N2618 2.617 1_545 S
Tb2627 N2628 2.572 . S
Tb2627 O2662 2.349 . S
Tb2627 O2665 2.393 1_545 S
Tb2627 O2666 2.465 . S
Tb2627 O2667 2.387 . S
Tb2627 O2669 2.428 1_545 S
Tb2627 O2670 2.308 . S
Tb2627 C2691 2.802 1_545 S
N2628 C2624 1.361 . S
N2628 Tb2627 2.572 . S
N2628 C2630 1.340 . S
C2629 C2623 1.416 . S
C2629 C2631 1.332 . S
C2629 H2637 0.931 . S
C2630 N2628 1.340 . S
C2630 C2631 1.407 . S
C2630 H2636 0.930 . S
C2631 C2629 1.332 . S
C2631 C2630 1.407 . S
C2631 H2633 0.929 . S
H2632 C2621 0.930 . S
H2633 C2631 0.929 . S
H2634 C2649 0.930 1_554 S
H2635 C2656 0.929 . S
H2636 C2630 0.930 . S
H2637 C2629 0.931 . S
H2638 C2652 0.930 1_565 S
H2639 C2619 0.930 . S
H2640 C2625 0.929 . S
H2641 C2626 0.930 . S
H2642 C2647 0.930 . S
H2643 C2622 0.930 . S
H2644 C2655 0.931 1_565 S
N2645 Tb2616 2.617 . S
N2645 C2646 1.379 . S
N2645 C2649 1.334 . S
C2646 N2645 1.379 . S
C2646 C2648 1.416 . S
C2646 C2654 1.424 . S
C2647 H2642 0.930 . S
C2647 C2649 1.390 . S
C2647 C2650 1.339 . S
C2648 C2646 1.416 . S
C2648 C2650 1.416 . S
C2648 C2681 1.448 . S
C2649 H2634 0.930 1_556 S
C2649 N2645 1.334 . S
C2649 C2647 1.390 . S
C2650 C2647 1.339 . S
C2650 C2648 1.416 . S
C2650 H2657 0.930 . S
N2651 Tb2616 2.572 . S
N2651 C2652 1.340 . S
N2651 C2654 1.361 . S
C2652 H2638 0.930 1_545 S
C2652 N2651 1.340 . S
C2652 C2656 1.407 1_545 S
C2653 C2654 1.413 . S
C2653 C2655 1.416 . S
C2653 C2682 1.427 . S
C2654 C2646 1.424 . S
C2654 N2651 1.361 . S
C2654 C2653 1.413 . S
C2655 H2644 0.931 1_545 S
C2655 C2653 1.416 . S
C2655 C2656 1.332 1_545 S
C2656 H2635 0.929 . S
C2656 C2652 1.407 1_565 S
C2656 C2655 1.332 1_565 S
H2657 C2650 0.930 . S
H2658 C2681 0.930 . S
H2659 C2682 0.929 . S
O2660 Tb2616 2.465 . S
O2660 C2680 1.264 . S
O2661 Tb2616 2.387 1_554 S
O2661 C2672 1.264 . S
O2662 Tb2627 2.349 . S
O2662 C2672 1.243 . S
O2663 Tb2616 2.428 . S
O2663 C2680 1.256 . S
O2664 Tb2616 2.311 . S
O2664 C2679 1.259 1_546 S
O2665 Tb2627 2.393 1_565 S
O2665 C2679 1.248 . S
O2666 Tb2627 2.465 . S
O2666 C2691 1.263 1_545 S
O2667 Tb2627 2.387 . S
O2667 C2683 1.264 . S
O2668 Tb2616 2.349 1_554 S
O2668 C2683 1.243 . S
O2669 Tb2627 2.428 1_565 S
O2669 C2691 1.257 . S
O2670 Tb2627 2.308 . S
O2670 C2690 1.266 . S
O2671 Tb2616 2.393 1_554 S
O2671 C2690 1.248 . S
C2672 O2661 1.264 . S
C2672 O2662 1.243 . S
C2673 C2676 1.399 . S
C2673 C2678 1.383 . S
C2673 C2680 1.496 . S
C2674 C2675 1.399 . S
C2674 C2678 1.389 . S
C2675 C2674 1.399 . S
C2675 C2677 1.380 . S
C2675 H2692 0.929 . S
C2676 C2673 1.399 . S
C2676 C2677 1.392 . S
C2676 H2693 0.929 . S
C2677 C2675 1.380 . S
C2677 C2676 1.392 . S
C2677 H2694 0.929 . S
C2678 C2673 1.383 . S
C2678 C2674 1.389 . S
C2678 H2695 0.931 . S
C2679 O2664 1.259 1_564 S
C2679 O2665 1.248 . S
C2680 Tb2616 2.802 . S
C2680 O2660 1.264 . S
C2680 O2663 1.256 . S
C2680 C2673 1.496 . S
C2681 C2648 1.448 . S
C2681 H2658 0.930 . S
C2681 C2682 1.328 . S
C2682 C2653 1.427 . S
C2682 H2659 0.929 . S
C2682 C2681 1.328 . S
C2683 O2667 1.264 . S
C2683 O2668 1.243 . S
C2684 C2687 1.399 . S
C2684 C2688 1.383 1_565 S
C2684 C2691 1.496 . S
C2685 C2686 1.399 1_545 S
C2685 C2688 1.389 . S
C2686 C2685 1.399 1_565 S
C2686 C2689 1.380 . S
C2686 H2696 0.929 . S
C2687 C2684 1.399 . S
C2687 C2689 1.392 . S
C2687 H2697 0.929 . S
C2688 C2684 1.383 1_545 S
C2688 C2685 1.389 . S
C2688 H2698 0.931 . S
C2689 C2686 1.380 . S
C2689 C2687 1.392 . S
C2689 H2699 0.929 . S
C2690 O2670 1.266 . S
C2690 O2671 1.248 . S
C2691 Tb2627 2.802 1_565 S
C2691 O2666 1.263 1_565 S
C2691 O2669 1.257 . S
C2691 C2684 1.496 . S
H2692 C2675 0.929 . S
H2693 C2676 0.929 . S
H2694 C2677 0.929 . S
H2695 C2678 0.931 . S
H2696 C2686 0.929 . S
H2697 C2687 0.929 . S
H2698 C2688 0.931 . S
H2699 C2689 0.929 . S
Tb2700 N2729 2.617 . S
Tb2700 N2735 2.572 . S
Tb2700 O2744 2.465 . S
Tb2700 O2745 2.387 . S
Tb2700 O2747 2.428 . S
Tb2700 O2748 2.308 . S
Tb2700 O2752 2.349 . S
Tb2700 O2755 2.393 . S
Tb2700 C2764 2.802 . S
C2701 N2702 1.379 . S
C2701 C2704 1.416 . S
C2701 C2708 1.424 . S
N2702 C2701 1.379 . S
N2702 C2705 1.334 . S
N2702 Tb2711 2.617 . S
C2703 C2705 1.390 . S
C2703 C2706 1.339 . S
C2703 H2723 0.930 . S
C2704 C2701 1.416 . S
C2704 C2706 1.416 . S
C2704 C2710 1.448 . S
C2705 N2702 1.334 . S
C2705 C2703 1.390 . S
C2705 H2716 0.930 . S
C2706 C2703 1.339 . S
C2706 C2704 1.416 . S
C2706 H2727 0.930 . S
C2707 C2708 1.413 . S
C2707 C2709 1.427 . S
C2707 C2713 1.416 . S
C2708 C2701 1.424 . S
C2708 C2707 1.413 . S
C2708 N2712 1.361 . S
C2709 C2707 1.427 . S
C2709 C2710 1.328 . S
C2709 H2724 0.929 . S
C2710 C2704 1.448 . S
C2710 C2709 1.328 . S
C2710 H2725 0.930 . S
Tb2711 N2702 2.617 . S
Tb2711 N2712 2.572 . S
Tb2711 O2746 2.349 . S
Tb2711 O2749 2.393 . S
Tb2711 O2750 2.465 . S
Tb2711 O2751 2.387 . S
Tb2711 O2753 2.428 . S
Tb2711 O2754 2.308 . S
Tb2711 C2775 2.802 . S
N2712 C2708 1.361 . S
N2712 Tb2711 2.572 . S
N2712 C2714 1.340 . S
C2713 C2707 1.416 . S
C2713 C2715 1.332 . S
C2713 H2721 0.931 . S
C2714 N2712 1.340 . S
C2714 C2715 1.407 . S
C2714 H2720 0.930 . S
C2715 C2713 1.332 . S
C2715 C2714 1.407 . S
C2715 H2717 0.929 . S
H2716 C2705 0.930 . S
H2717 C2715 0.929 . S
H2718 C2733 0.930 . S
H2719 C2740 0.929 . S
H2720 C2714 0.930 . S
H2721 C2713 0.931 . S
H2722 C2736 0.930 . S
H2723 C2703 0.930 . S
H2724 C2709 0.929 . S
H2725 C2710 0.930 . S
H2726 C2731 0.930 . S
H2727 C2706 0.930 . S
H2728 C2739 0.931 . S
N2729 Tb2700 2.617 . S
N2729 C2730 1.379 . S
N2729 C2733 1.334 . S
C2730 N2729 1.379 . S
C2730 C2732 1.416 . S
C2730 C2738 1.424 . S
C2731 H2726 0.930 . S
C2731 C2733 1.390 . S
C2731 C2734 1.339 . S
C2732 C2730 1.416 . S
C2732 C2734 1.416 . S
C2732 C2765 1.448 . S
C2733 H2718 0.930 . S
C2733 N2729 1.334 . S
C2733 C2731 1.390 . S
C2734 C2731 1.339 . S
C2734 C2732 1.416 . S
C2734 H2741 0.930 . S
N2735 Tb2700 2.572 . S
N2735 C2736 1.340 . S
N2735 C2738 1.361 . S
C2736 H2722 0.930 . S
C2736 N2735 1.340 . S
C2736 C2740 1.407 . S
C2737 C2738 1.413 . S
C2737 C2739 1.416 . S
C2737 C2766 1.427 . S
C2738 C2730 1.424 . S
C2738 N2735 1.361 . S
C2738 C2737 1.413 . S
C2739 H2728 0.931 . S
C2739 C2737 1.416 . S
C2739 C2740 1.332 . S
C2740 H2719 0.929 . S
C2740 C2736 1.407 . S
C2740 C2739 1.332 . S
H2741 C2734 0.930 . S
H2742 C2765 0.930 . S
H2743 C2766 0.929 . S
O2744 Tb2700 2.465 . S
O2744 C2764 1.264 . S
O2745 Tb2700 2.387 . S
O2745 C2756 1.264 . S
O2746 Tb2711 2.349 . S
O2746 C2756 1.243 . S
O2747 Tb2700 2.428 . S
O2747 C2764 1.256 . S
O2748 Tb2700 2.308 . S
O2748 C2763 1.266 . S
O2749 Tb2711 2.393 . S
O2749 C2763 1.248 . S
O2750 Tb2711 2.465 . S
O2750 C2775 1.264 . S
O2751 Tb2711 2.387 . S
O2751 C2767 1.264 . S
O2752 Tb2700 2.349 . S
O2752 C2767 1.243 . S
O2753 Tb2711 2.428 . S
O2753 C2775 1.256 . S
O2754 Tb2711 2.308 . S
O2754 C2774 1.266 . S
O2755 Tb2700 2.393 . S
O2755 C2774 1.248 . S
C2756 O2745 1.264 . S
C2756 O2746 1.243 . S
C2757 C2760 1.399 . S
C2757 C2762 1.383 . S
C2757 C2764 1.496 . S
C2758 C2759 1.399 . S
C2758 C2762 1.389 . S
C2759 C2758 1.399 . S
C2759 C2761 1.380 . S
C2759 H2776 0.929 . S
C2760 C2757 1.399 . S
C2760 C2761 1.392 . S
C2760 H2777 0.929 . S
C2761 C2759 1.380 . S
C2761 C2760 1.392 . S
C2761 H2778 0.929 . S
C2762 C2757 1.383 . S
C2762 C2758 1.389 . S
C2762 H2779 0.931 . S
C2763 O2748 1.266 . S
C2763 O2749 1.248 . S
C2764 Tb2700 2.802 . S
C2764 O2744 1.264 . S
C2764 O2747 1.256 . S
C2764 C2757 1.496 . S
C2765 C2732 1.448 . S
C2765 H2742 0.930 . S
C2765 C2766 1.328 . S
C2766 C2737 1.427 . S
C2766 H2743 0.929 . S
C2766 C2765 1.328 . S
C2767 O2751 1.264 . S
C2767 O2752 1.243 . S
C2768 C2771 1.399 . S
C2768 C2772 1.383 . S
C2768 C2775 1.496 . S
C2769 C2770 1.399 . S
C2769 C2772 1.389 . S
C2770 C2769 1.399 . S
C2770 C2773 1.380 . S
C2770 H2780 0.929 . S
C2771 C2768 1.399 . S
C2771 C2773 1.392 . S
C2771 H2781 0.929 . S
C2772 C2768 1.383 . S
C2772 C2769 1.389 . S
C2772 H2782 0.931 . S
C2773 C2770 1.380 . S
C2773 C2771 1.392 . S
C2773 H2783 0.929 . S
C2774 O2754 1.266 . S
C2774 O2755 1.248 . S
C2775 Tb2711 2.802 . S
C2775 O2750 1.264 . S
C2775 O2753 1.256 . S
C2775 C2768 1.496 . S
H2776 C2759 0.929 . S
H2777 C2760 0.929 . S
H2778 C2761 0.929 . S
H2779 C2762 0.931 . S
H2780 C2770 0.929 . S
H2781 C2771 0.929 . S
H2782 C2772 0.931 . S
H2783 C2773 0.929 . S
Tb2784 N2813 2.617 1_554 S
Tb2784 N2819 2.572 1_554 S
Tb2784 O2828 2.465 . S
Tb2784 O2829 2.387 1_554 S
Tb2784 O2831 2.428 . S
Tb2784 O2832 2.308 . S
Tb2784 O2836 2.349 . S
Tb2784 O2839 2.393 . S
Tb2784 C2848 2.802 . S
C2785 N2786 1.379 . S
C2785 C2788 1.416 . S
C2785 C2792 1.424 . S
N2786 C2785 1.379 . S
N2786 C2789 1.334 . S
N2786 Tb2795 2.617 . S
C2787 C2789 1.390 . S
C2787 C2790 1.339 . S
C2787 H2807 0.930 . S
C2788 C2785 1.416 . S
C2788 C2790 1.416 . S
C2788 C2794 1.448 . S
C2789 N2786 1.334 . S
C2789 C2787 1.390 . S
C2789 H2800 0.930 . S
C2790 C2787 1.339 . S
C2790 C2788 1.416 . S
C2790 H2811 0.930 . S
C2791 C2792 1.413 . S
C2791 C2793 1.427 . S
C2791 C2797 1.416 . S
C2792 C2785 1.424 . S
C2792 C2791 1.413 . S
C2792 N2796 1.361 . S
C2793 C2791 1.427 . S
C2793 C2794 1.328 . S
C2793 H2808 0.929 . S
C2794 C2788 1.448 . S
C2794 C2793 1.328 . S
C2794 H2809 0.930 . S
Tb2795 N2786 2.617 . S
Tb2795 N2796 2.572 . S
Tb2795 O2830 2.349 1_554 S
Tb2795 O2833 2.393 . S
Tb2795 O2834 2.465 . S
Tb2795 O2835 2.387 . S
Tb2795 O2837 2.428 . S
Tb2795 O2838 2.308 . S
Tb2795 C2859 2.802 . S
N2796 C2792 1.361 . S
N2796 Tb2795 2.572 . S
N2796 C2798 1.340 . S
C2797 C2791 1.416 . S
C2797 C2799 1.332 . S
C2797 H2805 0.931 . S
C2798 N2796 1.340 . S
C2798 C2799 1.407 . S
C2798 H2804 0.930 . S
C2799 C2797 1.332 . S
C2799 C2798 1.407 . S
C2799 H2801 0.929 . S
H2800 C2789 0.930 . S
H2801 C2799 0.929 . S
H2802 C2817 0.930 1_554 S
H2803 C2824 0.929 . S
H2804 C2798 0.930 . S
H2805 C2797 0.931 . S
H2806 C2820 0.930 1_554 S
H2807 C2787 0.930 . S
H2808 C2793 0.929 . S
H2809 C2794 0.930 . S
H2810 C2815 0.930 . S
H2811 C2790 0.930 . S
H2812 C2823 0.931 . S
N2813 Tb2784 2.617 1_556 S
N2813 C2814 1.379 . S
N2813 C2817 1.334 . S
C2814 N2813 1.379 . S
C2814 C2816 1.416 . S
C2814 C2822 1.424 . S
C2815 H2810 0.930 . S
C2815 C2817 1.390 . S
C2815 C2818 1.339 . S
C2816 C2814 1.416 . S
C2816 C2818 1.416 . S
C2816 C2849 1.448 . S
C2817 H2802 0.930 1_556 S
C2817 N2813 1.334 . S
C2817 C2815 1.390 . S
C2818 C2815 1.339 . S
C2818 C2816 1.416 . S
C2818 H2825 0.930 . S
N2819 Tb2784 2.572 1_556 S
N2819 C2820 1.340 . S
N2819 C2822 1.361 . S
C2820 H2806 0.930 1_556 S
C2820 N2819 1.340 . S
C2820 C2824 1.407 . S
C2821 C2822 1.413 . S
C2821 C2823 1.416 . S
C2821 C2850 1.427 . S
C2822 C2814 1.424 . S
C2822 N2819 1.361 . S
C2822 C2821 1.413 . S
C2823 H2812 0.931 . S
C2823 C2821 1.416 . S
C2823 C2824 1.332 . S
C2824 H2803 0.929 . S
C2824 C2820 1.407 . S
C2824 C2823 1.332 . S
H2825 C2818 0.930 . S
H2826 C2849 0.930 . S
H2827 C2850 0.929 . S
O2828 Tb2784 2.465 . S
O2828 C2848 1.264 . S
O2829 Tb2784 2.387 1_556 S
O2829 C2840 1.264 . S
O2830 Tb2795 2.349 1_556 S
O2830 C2840 1.243 . S
O2831 Tb2784 2.428 . S
O2831 C2848 1.256 . S
O2832 Tb2784 2.308 . S
O2832 C2847 1.266 . S
O2833 Tb2795 2.393 . S
O2833 C2847 1.248 . S
O2834 Tb2795 2.465 . S
O2834 C2859 1.264 . S
O2835 Tb2795 2.387 . S
O2835 C2851 1.264 . S
O2836 Tb2784 2.349 . S
O2836 C2851 1.243 . S
O2837 Tb2795 2.428 . S
O2837 C2859 1.256 . S
O2838 Tb2795 2.308 . S
O2838 C2858 1.266 . S
O2839 Tb2784 2.393 . S
O2839 C2858 1.248 . S
C2840 O2829 1.264 . S
C2840 O2830 1.243 . S
C2841 C2844 1.399 . S
C2841 C2846 1.383 . S
C2841 C2848 1.496 . S
C2842 C2843 1.399 . S
C2842 C2846 1.389 . S
C2843 C2842 1.399 . S
C2843 C2845 1.380 . S
C2843 H2860 0.929 . S
C2844 C2841 1.399 . S
C2844 C2845 1.392 . S
C2844 H2861 0.929 . S
C2845 C2843 1.380 . S
C2845 C2844 1.392 . S
C2845 H2862 0.929 . S
C2846 C2841 1.383 . S
C2846 C2842 1.389 . S
C2846 H2863 0.931 . S
C2847 O2832 1.266 . S
C2847 O2833 1.248 . S
C2848 Tb2784 2.802 . S
C2848 O2828 1.264 . S
C2848 O2831 1.256 . S
C2848 C2841 1.496 . S
C2849 C2816 1.448 . S
C2849 H2826 0.930 . S
C2849 C2850 1.328 . S
C2850 C2821 1.427 . S
C2850 H2827 0.929 . S
C2850 C2849 1.328 . S
C2851 O2835 1.264 . S
C2851 O2836 1.243 . S
C2852 C2855 1.399 . S
C2852 C2856 1.383 . S
C2852 C2859 1.496 1_556 S
C2853 C2854 1.399 . S
C2853 C2856 1.389 . S
C2854 C2853 1.399 . S
C2854 C2857 1.380 . S
C2854 H2864 0.929 . S
C2855 C2852 1.399 . S
C2855 C2857 1.392 . S
C2855 H2865 0.929 . S
C2856 C2852 1.383 . S
C2856 C2853 1.389 . S
C2856 H2866 0.931 . S
C2857 C2854 1.380 . S
C2857 C2855 1.392 . S
C2857 H2867 0.929 . S
C2858 O2838 1.266 . S
C2858 O2839 1.248 . S
C2859 Tb2795 2.802 . S
C2859 O2834 1.264 . S
C2859 O2837 1.256 . S
C2859 C2852 1.496 1_554 S
H2860 C2843 0.929 . S
H2861 C2844 0.929 . S
H2862 C2845 0.929 . S
H2863 C2846 0.931 . S
H2864 C2854 0.929 . S
H2865 C2855 0.929 . S
H2866 C2856 0.931 . S
H2867 C2857 0.929 . S
Tb2868 N2897 2.617 . S
Tb2868 N2903 2.572 . S
Tb2868 O2912 2.465 . S
Tb2868 O2913 2.387 . S
Tb2868 O2915 2.428 . S
Tb2868 O2916 2.308 . S
Tb2868 O2920 2.349 . S
Tb2868 O2923 2.393 . S
Tb2868 C2932 2.802 . S
C2869 N2870 1.379 . S
C2869 C2872 1.416 . S
C2869 C2876 1.424 . S
N2870 C2869 1.379 . S
N2870 C2873 1.334 . S
N2870 Tb2879 2.617 . S
C2871 C2873 1.390 . S
C2871 C2874 1.339 . S
C2871 H2891 0.930 . S
C2872 C2869 1.416 . S
C2872 C2874 1.416 . S
C2872 C2878 1.448 . S
C2873 N2870 1.334 . S
C2873 C2871 1.390 . S
C2873 H2884 0.930 . S
C2874 C2871 1.339 . S
C2874 C2872 1.416 . S
C2874 H2895 0.930 . S
C2875 C2876 1.413 . S
C2875 C2877 1.427 . S
C2875 C2881 1.416 . S
C2876 C2869 1.424 . S
C2876 C2875 1.413 . S
C2876 N2880 1.361 . S
C2877 C2875 1.427 . S
C2877 C2878 1.328 . S
C2877 H2892 0.929 . S
C2878 C2872 1.448 . S
C2878 C2877 1.328 . S
C2878 H2893 0.930 . S
Tb2879 N2870 2.617 . S
Tb2879 N2880 2.572 . S
Tb2879 O2914 2.349 . S
Tb2879 O2917 2.393 . S
Tb2879 O2918 2.465 . S
Tb2879 O2919 2.387 . S
Tb2879 O2921 2.428 . S
Tb2879 O2922 2.308 . S
Tb2879 C2943 2.802 . S
N2880 C2876 1.361 . S
N2880 Tb2879 2.572 . S
N2880 C2882 1.340 . S
C2881 C2875 1.416 . S
C2881 C2883 1.332 . S
C2881 H2889 0.931 . S
C2882 N2880 1.340 . S
C2882 C2883 1.407 . S
C2882 H2888 0.930 . S
C2883 C2881 1.332 . S
C2883 C2882 1.407 . S
C2883 H2885 0.929 . S
H2884 C2873 0.930 . S
H2885 C2883 0.929 . S
H2886 C2901 0.930 . S
H2887 C2908 0.929 . S
H2888 C2882 0.930 . S
H2889 C2881 0.931 . S
H2890 C2904 0.930 . S
H2891 C2871 0.930 . S
H2892 C2877 0.929 . S
H2893 C2878 0.930 . S
H2894 C2899 0.930 . S
H2895 C2874 0.930 . S
H2896 C2907 0.931 . S
N2897 Tb2868 2.617 . S
N2897 C2898 1.379 . S
N2897 C2901 1.334 . S
C2898 N2897 1.379 . S
C2898 C2900 1.416 . S
C2898 C2906 1.424 . S
C2899 H2894 0.930 . S
C2899 C2901 1.390 . S
C2899 C2902 1.339 . S
C2900 C2898 1.416 . S
C2900 C2902 1.416 . S
C2900 C2933 1.448 . S
C2901 H2886 0.930 . S
C2901 N2897 1.334 . S
C2901 C2899 1.390 . S
C2902 C2899 1.339 . S
C2902 C2900 1.416 . S
C2902 H2909 0.930 . S
N2903 Tb2868 2.572 . S
N2903 C2904 1.340 . S
N2903 C2906 1.361 . S
C2904 H2890 0.930 . S
C2904 N2903 1.340 . S
C2904 C2908 1.407 . S
C2905 C2906 1.413 . S
C2905 C2907 1.416 . S
C2905 C2934 1.427 . S
C2906 C2898 1.424 . S
C2906 N2903 1.361 . S
C2906 C2905 1.413 . S
C2907 H2896 0.931 . S
C2907 C2905 1.416 . S
C2907 C2908 1.332 . S
C2908 H2887 0.929 . S
C2908 C2904 1.407 . S
C2908 C2907 1.332 . S
H2909 C2902 0.930 . S
H2910 C2933 0.930 . S
H2911 C2934 0.929 . S
O2912 Tb2868 2.465 . S
O2912 C2932 1.264 . S
O2913 Tb2868 2.387 . S
O2913 C2924 1.264 . S
O2914 Tb2879 2.349 . S
O2914 C2924 1.243 . S
O2915 Tb2868 2.428 . S
O2915 C2932 1.256 . S
O2916 Tb2868 2.308 . S
O2916 C2931 1.266 . S
O2917 Tb2879 2.393 . S
O2917 C2931 1.248 . S
O2918 Tb2879 2.465 . S
O2918 C2943 1.264 . S
O2919 Tb2879 2.387 . S
O2919 C2935 1.264 . S
O2920 Tb2868 2.349 . S
O2920 C2935 1.243 . S
O2921 Tb2879 2.428 . S
O2921 C2943 1.256 . S
O2922 Tb2879 2.308 . S
O2922 C2942 1.266 . S
O2923 Tb2868 2.393 . S
O2923 C2942 1.248 . S
C2924 O2913 1.264 . S
C2924 O2914 1.243 . S
C2925 C2928 1.399 . S
C2925 C2930 1.383 . S
C2925 C2932 1.496 . S
C2926 C2927 1.399 . S
C2926 C2930 1.389 . S
C2927 C2926 1.399 . S
C2927 C2929 1.380 . S
C2927 H2944 0.929 . S
C2928 C2925 1.399 . S
C2928 C2929 1.392 . S
C2928 H2945 0.929 . S
C2929 C2927 1.380 . S
C2929 C2928 1.392 . S
C2929 H2946 0.929 . S
C2930 C2925 1.383 . S
C2930 C2926 1.389 . S
C2930 H2947 0.931 . S
C2931 O2916 1.266 . S
C2931 O2917 1.248 . S
C2932 Tb2868 2.802 . S
C2932 O2912 1.264 . S
C2932 O2915 1.256 . S
C2932 C2925 1.496 . S
C2933 C2900 1.448 . S
C2933 H2910 0.930 . S
C2933 C2934 1.328 . S
C2934 C2905 1.427 . S
C2934 H2911 0.929 . S
C2934 C2933 1.328 . S
C2935 O2919 1.264 . S
C2935 O2920 1.243 . S
C2936 C2939 1.399 . S
C2936 C2940 1.383 . S
C2936 C2943 1.496 . S
C2937 C2938 1.399 . S
C2937 C2940 1.389 . S
C2938 C2937 1.399 . S
C2938 C2941 1.380 . S
C2938 H2948 0.929 . S
C2939 C2936 1.399 . S
C2939 C2941 1.392 . S
C2939 H2949 0.929 . S
C2940 C2936 1.383 . S
C2940 C2937 1.389 . S
C2940 H2950 0.931 . S
C2941 C2938 1.380 . S
C2941 C2939 1.392 . S
C2941 H2951 0.929 . S
C2942 O2922 1.266 . S
C2942 O2923 1.248 . S
C2943 Tb2879 2.802 . S
C2943 O2918 1.264 . S
C2943 O2921 1.256 . S
C2943 C2936 1.496 . S
H2944 C2927 0.929 . S
H2945 C2928 0.929 . S
H2946 C2929 0.929 . S
H2947 C2930 0.931 . S
H2948 C2938 0.929 . S
H2949 C2939 0.929 . S
H2950 C2940 0.931 . S
H2951 C2941 0.929 . S
Tb2952 N2981 2.617 1_455 S
Tb2952 N2987 2.572 1_455 S
Tb2952 O2996 2.465 . S
Tb2952 O2997 2.387 1_455 S
Tb2952 O2999 2.428 . S
Tb2952 O3000 2.308 . S
Tb2952 O3004 2.349 . S
Tb2952 O3007 2.393 . S
Tb2952 C3016 2.802 . S
C2953 N2954 1.379 . S
C2953 C2956 1.416 . S
C2953 C2960 1.424 . S
N2954 C2953 1.379 . S
N2954 C2957 1.334 . S
N2954 Tb2963 2.617 . S
C2955 C2957 1.390 . S
C2955 C2958 1.339 . S
C2955 H2975 0.930 . S
C2956 C2953 1.416 . S
C2956 C2958 1.416 . S
C2956 C2962 1.448 . S
C2957 N2954 1.334 . S
C2957 C2955 1.390 . S
C2957 H2968 0.930 . S
C2958 C2955 1.339 . S
C2958 C2956 1.416 . S
C2958 H2979 0.930 . S
C2959 C2960 1.413 . S
C2959 C2961 1.427 . S
C2959 C2965 1.416 . S
C2960 C2953 1.424 . S
C2960 C2959 1.413 . S
C2960 N2964 1.361 . S
C2961 C2959 1.427 . S
C2961 C2962 1.328 . S
C2961 H2976 0.929 . S
C2962 C2956 1.448 . S
C2962 C2961 1.328 . S
C2962 H2977 0.930 . S
Tb2963 N2954 2.617 . S
Tb2963 N2964 2.572 . S
Tb2963 O2998 2.349 1_455 S
Tb2963 O3001 2.393 . S
Tb2963 O3002 2.465 . S
Tb2963 O3003 2.387 . S
Tb2963 O3005 2.428 . S
Tb2963 O3006 2.308 . S
Tb2963 C3027 2.802 . S
N2964 C2960 1.361 . S
N2964 Tb2963 2.572 . S
N2964 C2966 1.340 . S
C2965 C2959 1.416 . S
C2965 C2967 1.332 . S
C2965 H2973 0.931 . S
C2966 N2964 1.340 . S
C2966 C2967 1.407 . S
C2966 H2972 0.930 . S
C2967 C2965 1.332 . S
C2967 C2966 1.407 . S
C2967 H2969 0.929 . S
H2968 C2957 0.930 . S
H2969 C2967 0.929 . S
H2970 C2985 0.917 1_455 S
H2971 C2992 0.929 . S
H2972 C2966 0.930 . S
H2973 C2965 0.931 . S
H2974 C2988 0.930 1_455 S
H2975 C2955 0.930 . S
H2976 C2961 0.929 . S
H2977 C2962 0.930 . S
H2978 C2983 0.930 . S
H2979 C2958 0.930 . S
H2980 C2991 0.931 . S
N2981 Tb2952 2.617 1_655 S
N2981 C2982 1.379 . S
N2981 C2985 1.331 . S
C2982 N2981 1.379 . S
C2982 C2984 1.416 . S
C2982 C2990 1.424 . S
C2983 H2978 0.930 . S
C2983 C2985 1.407 . S
C2983 C2986 1.339 . S
C2984 C2982 1.416 . S
C2984 C2986 1.416 . S
C2984 C3017 1.448 . S
C2985 H2970 0.917 1_655 S
C2985 N2981 1.331 . S
C2985 C2983 1.407 . S
C2986 C2983 1.339 . S
C2986 C2984 1.416 . S
C2986 H2993 0.930 . S
N2987 Tb2952 2.572 1_655 S
N2987 C2988 1.340 . S
N2987 C2990 1.361 . S
C2988 H2974 0.930 1_655 S
C2988 N2987 1.340 . S
C2988 C2992 1.407 . S
C2989 C2990 1.413 . S
C2989 C2991 1.416 . S
C2989 C3018 1.427 . S
C2990 C2982 1.424 . S
C2990 N2987 1.361 . S
C2990 C2989 1.413 . S
C2991 H2980 0.931 . S
C2991 C2989 1.416 . S
C2991 C2992 1.332 . S
C2992 H2971 0.929 . S
C2992 C2988 1.407 . S
C2992 C2991 1.332 . S
H2993 C2986 0.930 . S
H2994 C3017 0.930 . S
H2995 C3018 0.929 . S
O2996 Tb2952 2.465 . S
O2996 C3016 1.264 . S
O2997 Tb2952 2.387 1_655 S
O2997 C3008 1.264 . S
O2998 Tb2963 2.349 1_655 S
O2998 C3008 1.243 . S
O2999 Tb2952 2.428 . S
O2999 C3016 1.256 . S
O3000 Tb2952 2.308 . S
O3000 C3015 1.266 . S
O3001 Tb2963 2.393 . S
O3001 C3015 1.248 . S
O3002 Tb2963 2.465 . S
O3002 C3027 1.264 . S
O3003 Tb2963 2.387 . S
O3003 C3019 1.264 . S
O3004 Tb2952 2.349 . S
O3004 C3019 1.243 . S
O3005 Tb2963 2.428 . S
O3005 C3027 1.256 . S
O3006 Tb2963 2.308 . S
O3006 C3026 1.266 . S
O3007 Tb2952 2.393 . S
O3007 C3026 1.248 . S
C3008 O2997 1.264 . S
C3008 O2998 1.243 . S
C3009 C3012 1.399 . S
C3009 C3014 1.383 . S
C3009 C3016 1.496 . S
C3010 C3011 1.399 . S
C3010 C3014 1.389 . S
C3011 C3010 1.399 . S
C3011 C3013 1.380 . S
C3011 H3028 0.929 . S
C3012 C3009 1.399 . S
C3012 C3013 1.392 . S
C3012 H3029 0.929 . S
C3013 C3011 1.380 . S
C3013 C3012 1.392 . S
C3013 H3030 0.929 . S
C3014 C3009 1.383 . S
C3014 C3010 1.389 . S
C3014 H3031 0.931 . S
C3015 O3000 1.266 . S
C3015 O3001 1.248 . S
C3016 Tb2952 2.802 . S
C3016 O2996 1.264 . S
C3016 O2999 1.256 . S
C3016 C3009 1.496 . S
C3017 C2984 1.448 . S
C3017 H2994 0.930 . S
C3017 C3018 1.328 . S
C3018 C2989 1.427 . S
C3018 H2995 0.929 . S
C3018 C3017 1.328 . S
C3019 O3003 1.264 . S
C3019 O3004 1.243 . S
C3020 C3023 1.399 . S
C3020 C3024 1.383 . S
C3020 C3027 1.496 1_655 S
C3021 C3022 1.399 . S
C3021 C3024 1.389 . S
C3022 C3021 1.399 . S
C3022 C3025 1.380 . S
C3022 H3032 0.929 . S
C3023 C3020 1.399 . S
C3023 C3025 1.392 . S
C3023 H3033 0.929 . S
C3024 C3020 1.383 . S
C3024 C3021 1.389 . S
C3024 H3034 0.931 . S
C3025 C3022 1.380 . S
C3025 C3023 1.392 . S
C3025 H3035 0.929 . S
C3026 O3006 1.266 . S
C3026 O3007 1.248 . S
C3027 Tb2963 2.802 . S
C3027 O3002 1.264 . S
C3027 O3005 1.256 . S
C3027 C3020 1.496 1_455 S
H3028 C3011 0.929 . S
H3029 C3012 0.929 . S
H3030 C3013 0.929 . S
H3031 C3014 0.931 . S
H3032 C3022 0.929 . S
H3033 C3023 0.929 . S
H3034 C3024 0.931 . S
H3035 C3025 0.929 . S
Tb3036 N3065 2.617 . S
Tb3036 N3071 2.572 . S
Tb3036 O3080 2.465 . S
Tb3036 O3081 2.387 . S
Tb3036 O3083 2.428 . S
Tb3036 O3084 2.308 . S
Tb3036 O3088 2.349 . S
Tb3036 O3091 2.393 . S
Tb3036 C3100 2.802 . S
C3037 N3038 1.379 . S
C3037 C3040 1.416 . S
C3037 C3044 1.424 . S
N3038 C3037 1.379 . S
N3038 C3041 1.334 . S
N3038 Tb3047 2.617 . S
C3039 C3041 1.390 . S
C3039 C3042 1.339 . S
C3039 H3059 0.930 . S
C3040 C3037 1.416 . S
C3040 C3042 1.416 . S
C3040 C3046 1.448 . S
C3041 N3038 1.334 . S
C3041 C3039 1.390 . S
C3041 H3052 0.930 . S
C3042 C3039 1.339 . S
C3042 C3040 1.416 . S
C3042 H3063 0.930 . S
C3043 C3044 1.413 . S
C3043 C3045 1.427 . S
C3043 C3049 1.416 . S
C3044 C3037 1.424 . S
C3044 C3043 1.413 . S
C3044 N3048 1.361 . S
C3045 C3043 1.427 . S
C3045 C3046 1.328 . S
C3045 H3060 0.929 . S
C3046 C3040 1.448 . S
C3046 C3045 1.328 . S
C3046 H3061 0.930 . S
Tb3047 N3038 2.617 . S
Tb3047 N3048 2.572 . S
Tb3047 O3082 2.349 . S
Tb3047 O3085 2.393 . S
Tb3047 O3086 2.465 . S
Tb3047 O3087 2.387 . S
Tb3047 O3089 2.428 . S
Tb3047 O3090 2.308 . S
Tb3047 C3111 2.802 . S
N3048 C3044 1.361 . S
N3048 Tb3047 2.572 . S
N3048 C3050 1.340 . S
C3049 C3043 1.416 . S
C3049 C3051 1.332 . S
C3049 H3057 0.931 . S
C3050 N3048 1.340 . S
C3050 C3051 1.407 . S
C3050 H3056 0.930 . S
C3051 C3049 1.332 . S
C3051 C3050 1.407 . S
C3051 H3053 0.929 . S
H3052 C3041 0.930 . S
H3053 C3051 0.929 . S
H3054 C3069 0.930 . S
H3055 C3076 0.929 . S
H3056 C3050 0.930 . S
H3057 C3049 0.931 . S
H3058 C3072 0.930 . S
H3059 C3039 0.930 . S
H3060 C3045 0.929 . S
H3061 C3046 0.930 . S
H3062 C3067 0.930 . S
H3063 C3042 0.930 . S
H3064 C3075 0.931 . S
N3065 Tb3036 2.617 . S
N3065 C3066 1.379 . S
N3065 C3069 1.334 . S
C3066 N3065 1.379 . S
C3066 C3068 1.416 . S
C3066 C3074 1.424 . S
C3067 H3062 0.930 . S
C3067 C3069 1.390 . S
C3067 C3070 1.339 . S
C3068 C3066 1.416 . S
C3068 C3070 1.416 . S
C3068 C3101 1.448 . S
C3069 H3054 0.930 . S
C3069 N3065 1.334 . S
C3069 C3067 1.390 . S
C3070 C3067 1.339 . S
C3070 C3068 1.416 . S
C3070 H3077 0.930 . S
N3071 Tb3036 2.572 . S
N3071 C3072 1.340 . S
N3071 C3074 1.361 . S
C3072 H3058 0.930 . S
C3072 N3071 1.340 . S
C3072 C3076 1.407 . S
C3073 C3074 1.413 . S
C3073 C3075 1.416 . S
C3073 C3102 1.427 . S
C3074 C3066 1.424 . S
C3074 N3071 1.361 . S
C3074 C3073 1.413 . S
C3075 H3064 0.931 . S
C3075 C3073 1.416 . S
C3075 C3076 1.332 . S
C3076 H3055 0.929 . S
C3076 C3072 1.407 . S
C3076 C3075 1.332 . S
H3077 C3070 0.930 . S
H3078 C3101 0.930 . S
H3079 C3102 0.929 . S
O3080 Tb3036 2.465 . S
O3080 C3100 1.264 . S
O3081 Tb3036 2.387 . S
O3081 C3092 1.264 . S
O3082 Tb3047 2.349 . S
O3082 C3092 1.243 . S
O3083 Tb3036 2.428 . S
O3083 C3100 1.256 . S
O3084 Tb3036 2.308 . S
O3084 C3099 1.266 . S
O3085 Tb3047 2.393 . S
O3085 C3099 1.248 . S
O3086 Tb3047 2.465 . S
O3086 C3111 1.264 . S
O3087 Tb3047 2.387 . S
O3087 C3103 1.264 . S
O3088 Tb3036 2.349 . S
O3088 C3103 1.243 . S
O3089 Tb3047 2.428 . S
O3089 C3111 1.256 . S
O3090 Tb3047 2.308 . S
O3090 C3110 1.266 . S
O3091 Tb3036 2.393 . S
O3091 C3110 1.248 . S
C3092 O3081 1.264 . S
C3092 O3082 1.243 . S
C3093 C3096 1.399 . S
C3093 C3098 1.383 . S
C3093 C3100 1.496 . S
C3094 C3095 1.399 . S
C3094 C3098 1.389 . S
C3095 C3094 1.399 . S
C3095 C3097 1.380 . S
C3095 H3112 0.929 . S
C3096 C3093 1.399 . S
C3096 C3097 1.392 . S
C3096 H3113 0.929 . S
C3097 C3095 1.380 . S
C3097 C3096 1.392 . S
C3097 H3114 0.929 . S
C3098 C3093 1.383 . S
C3098 C3094 1.389 . S
C3098 H3115 0.931 . S
C3099 O3084 1.266 . S
C3099 O3085 1.248 . S
C3100 Tb3036 2.802 . S
C3100 O3080 1.264 . S
C3100 O3083 1.256 . S
C3100 C3093 1.496 . S
C3101 C3068 1.448 . S
C3101 H3078 0.930 . S
C3101 C3102 1.328 . S
C3102 C3073 1.427 . S
C3102 H3079 0.929 . S
C3102 C3101 1.328 . S
C3103 O3087 1.264 . S
C3103 O3088 1.243 . S
C3104 C3107 1.399 . S
C3104 C3108 1.383 . S
C3104 C3111 1.496 . S
C3105 C3106 1.399 . S
C3105 C3108 1.389 . S
C3106 C3105 1.399 . S
C3106 C3109 1.380 . S
C3106 H3116 0.929 . S
C3107 C3104 1.399 . S
C3107 C3109 1.392 . S
C3107 H3117 0.929 . S
C3108 C3104 1.383 . S
C3108 C3105 1.389 . S
C3108 H3118 0.931 . S
C3109 C3106 1.380 . S
C3109 C3107 1.392 . S
C3109 H3119 0.929 . S
C3110 O3090 1.266 . S
C3110 O3091 1.248 . S
C3111 Tb3047 2.802 . S
C3111 O3086 1.264 . S
C3111 O3089 1.256 . S
C3111 C3104 1.496 . S
H3112 C3095 0.929 . S
H3113 C3096 0.929 . S
H3114 C3097 0.929 . S
H3115 C3098 0.931 . S
H3116 C3106 0.929 . S
H3117 C3107 0.929 . S
H3118 C3108 0.931 . S
H3119 C3109 0.929 . S
Tb3120 N3149 2.617 . S
Tb3120 N3155 2.572 . S
Tb3120 O3164 2.465 . S
Tb3120 O3165 2.387 . S
Tb3120 O3167 2.428 . S
Tb3120 O3168 2.308 . S
Tb3120 O3172 2.349 . S
Tb3120 O3175 2.393 . S
Tb3120 C3184 2.802 . S
C3121 N3122 1.379 . S
C3121 C3124 1.416 . S
C3121 C3128 1.424 . S
N3122 C3121 1.379 . S
N3122 C3125 1.334 . S
N3122 Tb3131 2.617 . S
C3123 C3125 1.390 . S
C3123 C3126 1.339 . S
C3123 H3143 0.930 . S
C3124 C3121 1.416 . S
C3124 C3126 1.416 . S
C3124 C3130 1.448 . S
C3125 N3122 1.334 . S
C3125 C3123 1.390 . S
C3125 H3136 0.930 . S
C3126 C3123 1.339 . S
C3126 C3124 1.416 . S
C3126 H3147 0.930 . S
C3127 C3128 1.413 . S
C3127 C3129 1.427 . S
C3127 C3133 1.416 . S
C3128 C3121 1.424 . S
C3128 C3127 1.413 . S
C3128 N3132 1.361 . S
C3129 C3127 1.427 . S
C3129 C3130 1.328 . S
C3129 H3144 0.929 . S
C3130 C3124 1.448 . S
C3130 C3129 1.328 . S
C3130 H3145 0.930 . S
Tb3131 N3122 2.617 . S
Tb3131 N3132 2.572 . S
Tb3131 O3166 2.349 . S
Tb3131 O3169 2.393 . S
Tb3131 O3170 2.465 . S
Tb3131 O3171 2.387 . S
Tb3131 O3173 2.428 . S
Tb3131 O3174 2.308 . S
Tb3131 C3195 2.802 . S
N3132 C3128 1.361 . S
N3132 Tb3131 2.572 . S
N3132 C3134 1.340 . S
C3133 C3127 1.416 . S
C3133 C3135 1.332 . S
C3133 H3141 0.931 . S
C3134 N3132 1.340 . S
C3134 C3135 1.407 . S
C3134 H3140 0.930 . S
C3135 C3133 1.332 . S
C3135 C3134 1.407 . S
C3135 H3137 0.929 . S
H3136 C3125 0.930 . S
H3137 C3135 0.929 . S
H3138 C3153 0.930 . S
H3139 C3160 0.929 . S
H3140 C3134 0.930 . S
H3141 C3133 0.931 . S
H3142 C3156 0.930 . S
H3143 C3123 0.930 . S
H3144 C3129 0.929 . S
H3145 C3130 0.930 . S
H3146 C3151 0.930 . S
H3147 C3126 0.930 . S
H3148 C3159 0.931 . S
N3149 Tb3120 2.617 . S
N3149 C3150 1.379 . S
N3149 C3153 1.334 . S
C3150 N3149 1.379 . S
C3150 C3152 1.416 . S
C3150 C3158 1.424 . S
C3151 H3146 0.930 . S
C3151 C3153 1.390 . S
C3151 C3154 1.339 . S
C3152 C3150 1.416 . S
C3152 C3154 1.416 . S
C3152 C3185 1.448 . S
C3153 H3138 0.930 . S
C3153 N3149 1.334 . S
C3153 C3151 1.390 . S
C3154 C3151 1.339 . S
C3154 C3152 1.416 . S
C3154 H3161 0.930 . S
N3155 Tb3120 2.572 . S
N3155 C3156 1.340 . S
N3155 C3158 1.361 . S
C3156 H3142 0.930 . S
C3156 N3155 1.340 . S
C3156 C3160 1.407 . S
C3157 C3158 1.413 . S
C3157 C3159 1.416 . S
C3157 C3186 1.427 . S
C3158 C3150 1.424 . S
C3158 N3155 1.361 . S
C3158 C3157 1.413 . S
C3159 H3148 0.931 . S
C3159 C3157 1.416 . S
C3159 C3160 1.332 . S
C3160 H3139 0.929 . S
C3160 C3156 1.407 . S
C3160 C3159 1.332 . S
H3161 C3154 0.930 . S
H3162 C3185 0.930 . S
H3163 C3186 0.929 . S
O3164 Tb3120 2.465 . S
O3164 C3184 1.264 . S
O3165 Tb3120 2.387 . S
O3165 C3176 1.264 . S
O3166 Tb3131 2.349 . S
O3166 C3176 1.243 . S
O3167 Tb3120 2.428 . S
O3167 C3184 1.256 . S
O3168 Tb3120 2.308 . S
O3168 C3183 1.266 . S
O3169 Tb3131 2.393 . S
O3169 C3183 1.248 . S
O3170 Tb3131 2.465 . S
O3170 C3195 1.264 . S
O3171 Tb3131 2.387 . S
O3171 C3187 1.264 . S
O3172 Tb3120 2.349 . S
O3172 C3187 1.243 . S
O3173 Tb3131 2.428 . S
O3173 C3195 1.256 . S
O3174 Tb3131 2.308 . S
O3174 C3194 1.266 . S
O3175 Tb3120 2.393 . S
O3175 C3194 1.248 . S
C3176 O3165 1.264 . S
C3176 O3166 1.243 . S
C3177 C3180 1.399 . S
C3177 C3182 1.383 . S
C3177 C3184 1.496 . S
C3178 C3179 1.399 . S
C3178 C3182 1.389 . S
C3179 C3178 1.399 . S
C3179 C3181 1.380 . S
C3179 H3196 0.929 . S
C3180 C3177 1.399 . S
C3180 C3181 1.392 . S
C3180 H3197 0.929 . S
C3181 C3179 1.380 . S
C3181 C3180 1.392 . S
C3181 H3198 0.929 . S
C3182 C3177 1.383 . S
C3182 C3178 1.389 . S
C3182 H3199 0.931 . S
C3183 O3168 1.266 . S
C3183 O3169 1.248 . S
C3184 Tb3120 2.802 . S
C3184 O3164 1.264 . S
C3184 O3167 1.256 . S
C3184 C3177 1.496 . S
C3185 C3152 1.448 . S
C3185 H3162 0.930 . S
C3185 C3186 1.328 . S
C3186 C3157 1.427 . S
C3186 H3163 0.929 . S
C3186 C3185 1.328 . S
C3187 O3171 1.264 . S
C3187 O3172 1.243 . S
C3188 C3191 1.399 . S
C3188 C3192 1.383 . S
C3188 C3195 1.496 . S
C3189 C3190 1.399 . S
C3189 C3192 1.389 . S
C3190 C3189 1.399 . S
C3190 C3193 1.380 . S
C3190 H3200 0.929 . S
C3191 C3188 1.399 . S
C3191 C3193 1.392 . S
C3191 H3201 0.929 . S
C3192 C3188 1.383 . S
C3192 C3189 1.389 . S
C3192 H3202 0.931 . S
C3193 C3190 1.380 . S
C3193 C3191 1.392 . S
C3193 H3203 0.929 . S
C3194 O3174 1.266 . S
C3194 O3175 1.248 . S
C3195 Tb3131 2.802 . S
C3195 O3170 1.264 . S
C3195 O3173 1.256 . S
C3195 C3188 1.496 . S
H3196 C3179 0.929 . S
H3197 C3180 0.929 . S
H3198 C3181 0.929 . S
H3199 C3182 0.931 . S
H3200 C3190 0.929 . S
H3201 C3191 0.929 . S
H3202 C3192 0.931 . S
H3203 C3193 0.929 . S
Tb3204 N3233 2.617 . S
Tb3204 N3239 2.572 . S
Tb3204 O3248 2.465 . S
Tb3204 O3249 2.387 . S
Tb3204 O3251 2.428 . S
Tb3204 O3252 2.308 . S
Tb3204 O3256 2.349 . S
Tb3204 O3259 2.393 . S
Tb3204 C3268 2.802 . S
C3205 N3206 1.379 . S
C3205 C3208 1.416 . S
C3205 C3212 1.424 . S
N3206 C3205 1.379 . S
N3206 C3209 1.334 . S
N3206 Tb3215 2.617 . S
C3207 C3209 1.390 . S
C3207 C3210 1.339 . S
C3207 H3227 0.930 . S
C3208 C3205 1.416 . S
C3208 C3210 1.416 . S
C3208 C3214 1.448 . S
C3209 N3206 1.334 . S
C3209 C3207 1.390 . S
C3209 H3220 0.930 . S
C3210 C3207 1.339 . S
C3210 C3208 1.416 . S
C3210 H3231 0.930 . S
C3211 C3212 1.413 . S
C3211 C3213 1.427 . S
C3211 C3217 1.416 . S
C3212 C3205 1.424 . S
C3212 C3211 1.413 . S
C3212 N3216 1.361 . S
C3213 C3211 1.427 . S
C3213 C3214 1.328 . S
C3213 H3228 0.929 . S
C3214 C3208 1.448 . S
C3214 C3213 1.328 . S
C3214 H3229 0.930 . S
Tb3215 N3206 2.617 . S
Tb3215 N3216 2.572 . S
Tb3215 O3250 2.349 . S
Tb3215 O3253 2.393 . S
Tb3215 O3254 2.465 . S
Tb3215 O3255 2.387 . S
Tb3215 O3257 2.428 . S
Tb3215 O3258 2.308 . S
Tb3215 C3279 2.802 . S
N3216 C3212 1.361 . S
N3216 Tb3215 2.572 . S
N3216 C3218 1.340 . S
C3217 C3211 1.416 . S
C3217 C3219 1.332 . S
C3217 H3225 0.931 . S
C3218 N3216 1.340 . S
C3218 C3219 1.407 . S
C3218 H3224 0.930 . S
C3219 C3217 1.332 . S
C3219 C3218 1.407 . S
C3219 H3221 0.929 . S
H3220 C3209 0.930 . S
H3221 C3219 0.929 . S
H3222 C3237 0.930 . S
H3223 C3244 0.929 . S
H3224 C3218 0.930 . S
H3225 C3217 0.931 . S
H3226 C3240 0.930 . S
H3227 C3207 0.930 . S
H3228 C3213 0.929 . S
H3229 C3214 0.930 . S
H3230 C3235 0.930 . S
H3231 C3210 0.930 . S
H3232 C3243 0.931 . S
N3233 Tb3204 2.617 . S
N3233 C3234 1.379 . S
N3233 C3237 1.334 . S
C3234 N3233 1.379 . S
C3234 C3236 1.416 . S
C3234 C3242 1.424 . S
C3235 H3230 0.930 . S
C3235 C3237 1.390 . S
C3235 C3238 1.339 . S
C3236 C3234 1.416 . S
C3236 C3238 1.416 . S
C3236 C3269 1.448 . S
C3237 H3222 0.930 . S
C3237 N3233 1.334 . S
C3237 C3235 1.390 . S
C3238 C3235 1.339 . S
C3238 C3236 1.416 . S
C3238 H3245 0.930 . S
N3239 Tb3204 2.572 . S
N3239 C3240 1.340 . S
N3239 C3242 1.361 . S
C3240 H3226 0.930 . S
C3240 N3239 1.340 . S
C3240 C3244 1.407 . S
C3241 C3242 1.413 . S
C3241 C3243 1.416 . S
C3241 C3270 1.427 . S
C3242 C3234 1.424 . S
C3242 N3239 1.361 . S
C3242 C3241 1.413 . S
C3243 H3232 0.931 . S
C3243 C3241 1.416 . S
C3243 C3244 1.332 . S
C3244 H3223 0.929 . S
C3244 C3240 1.407 . S
C3244 C3243 1.332 . S
H3245 C3238 0.930 . S
H3246 C3269 0.930 . S
H3247 C3270 0.929 . S
O3248 Tb3204 2.465 . S
O3248 C3268 1.264 . S
O3249 Tb3204 2.387 . S
O3249 C3260 1.264 . S
O3250 Tb3215 2.349 . S
O3250 C3260 1.243 . S
O3251 Tb3204 2.428 . S
O3251 C3268 1.256 . S
O3252 Tb3204 2.308 . S
O3252 C3267 1.266 . S
O3253 Tb3215 2.393 . S
O3253 C3267 1.248 . S
O3254 Tb3215 2.465 . S
O3254 C3279 1.264 . S
O3255 Tb3215 2.387 . S
O3255 C3271 1.264 . S
O3256 Tb3204 2.349 . S
O3256 C3271 1.243 . S
O3257 Tb3215 2.428 . S
O3257 C3279 1.256 . S
O3258 Tb3215 2.308 . S
O3258 C3278 1.266 . S
O3259 Tb3204 2.393 . S
O3259 C3278 1.248 . S
C3260 O3249 1.264 . S
C3260 O3250 1.243 . S
C3261 C3264 1.399 . S
C3261 C3266 1.383 . S
C3261 C3268 1.496 . S
C3262 C3263 1.399 . S
C3262 C3266 1.389 . S
C3263 C3262 1.399 . S
C3263 C3265 1.380 . S
C3263 H3280 0.929 . S
C3264 C3261 1.399 . S
C3264 C3265 1.392 . S
C3264 H3281 0.929 . S
C3265 C3263 1.380 . S
C3265 C3264 1.392 . S
C3265 H3282 0.929 . S
C3266 C3261 1.383 . S
C3266 C3262 1.389 . S
C3266 H3283 0.931 . S
C3267 O3252 1.266 . S
C3267 O3253 1.248 . S
C3268 Tb3204 2.802 . S
C3268 O3248 1.264 . S
C3268 O3251 1.256 . S
C3268 C3261 1.496 . S
C3269 C3236 1.448 . S
C3269 H3246 0.930 . S
C3269 C3270 1.328 . S
C3270 C3241 1.427 . S
C3270 H3247 0.929 . S
C3270 C3269 1.328 . S
C3271 O3255 1.264 . S
C3271 O3256 1.243 . S
C3272 C3275 1.399 . S
C3272 C3276 1.383 . S
C3272 C3279 1.496 . S
C3273 C3274 1.399 . S
C3273 C3276 1.389 . S
C3274 C3273 1.399 . S
C3274 C3277 1.380 . S
C3274 H3284 0.929 . S
C3275 C3272 1.399 . S
C3275 C3277 1.392 . S
C3275 H3285 0.929 . S
C3276 C3272 1.383 . S
C3276 C3273 1.389 . S
C3276 H3286 0.931 . S
C3277 C3274 1.380 . S
C3277 C3275 1.392 . S
C3277 H3287 0.929 . S
C3278 O3258 1.266 . S
C3278 O3259 1.248 . S
C3279 Tb3215 2.802 . S
C3279 O3254 1.264 . S
C3279 O3257 1.256 . S
C3279 C3272 1.496 . S
H3280 C3263 0.929 . S
H3281 C3264 0.929 . S
H3282 C3265 0.929 . S
H3283 C3266 0.931 . S
H3284 C3274 0.929 . S
H3285 C3275 0.929 . S
H3286 C3276 0.931 . S
H3287 C3277 0.929 . S
Tb3288 N3317 2.617 . S
Tb3288 N3323 2.572 . S
Tb3288 O3332 2.465 . S
Tb3288 O3333 2.387 . S
Tb3288 O3335 2.428 . S
Tb3288 O3336 2.308 . S
Tb3288 O3340 2.349 . S
Tb3288 O3343 2.393 . S
Tb3288 C3352 2.802 . S
C3289 N3290 1.379 . S
C3289 C3292 1.416 . S
C3289 C3296 1.424 . S
N3290 C3289 1.379 . S
N3290 C3293 1.334 . S
N3290 Tb3299 2.617 . S
C3291 C3293 1.390 . S
C3291 C3294 1.339 . S
C3291 H3311 0.930 . S
C3292 C3289 1.416 . S
C3292 C3294 1.416 . S
C3292 C3298 1.448 . S
C3293 N3290 1.334 . S
C3293 C3291 1.390 . S
C3293 H3304 0.930 . S
C3294 C3291 1.339 . S
C3294 C3292 1.416 . S
C3294 H3315 0.930 . S
C3295 C3296 1.413 . S
C3295 C3297 1.427 . S
C3295 C3301 1.416 . S
C3296 C3289 1.424 . S
C3296 C3295 1.413 . S
C3296 N3300 1.361 . S
C3297 C3295 1.427 . S
C3297 C3298 1.328 . S
C3297 H3312 0.929 . S
C3298 C3292 1.448 . S
C3298 C3297 1.328 . S
C3298 H3313 0.930 . S
Tb3299 N3290 2.617 . S
Tb3299 N3300 2.572 . S
Tb3299 O3334 2.349 . S
Tb3299 O3337 2.393 . S
Tb3299 O3338 2.465 . S
Tb3299 O3339 2.387 . S
Tb3299 O3341 2.428 . S
Tb3299 O3342 2.308 . S
Tb3299 C3363 2.802 . S
N3300 C3296 1.361 . S
N3300 Tb3299 2.572 . S
N3300 C3302 1.340 . S
C3301 C3295 1.416 . S
C3301 C3303 1.332 . S
C3301 H3309 0.931 . S
C3302 N3300 1.340 . S
C3302 C3303 1.407 . S
C3302 H3308 0.930 . S
C3303 C3301 1.332 . S
C3303 C3302 1.407 . S
C3303 H3305 0.929 . S
H3304 C3293 0.930 . S
H3305 C3303 0.929 . S
H3306 C3321 0.930 . S
H3307 C3328 0.929 . S
H3308 C3302 0.930 . S
H3309 C3301 0.931 . S
H3310 C3324 0.930 . S
H3311 C3291 0.930 . S
H3312 C3297 0.929 . S
H3313 C3298 0.930 . S
H3314 C3319 0.930 . S
H3315 C3294 0.930 . S
H3316 C3327 0.931 . S
N3317 Tb3288 2.617 . S
N3317 C3318 1.379 . S
N3317 C3321 1.334 . S
C3318 N3317 1.379 . S
C3318 C3320 1.416 . S
C3318 C3326 1.424 . S
C3319 H3314 0.930 . S
C3319 C3321 1.390 . S
C3319 C3322 1.339 . S
C3320 C3318 1.416 . S
C3320 C3322 1.416 . S
C3320 C3353 1.448 . S
C3321 H3306 0.930 . S
C3321 N3317 1.334 . S
C3321 C3319 1.390 . S
C3322 C3319 1.339 . S
C3322 C3320 1.416 . S
C3322 H3329 0.930 . S
N3323 Tb3288 2.572 . S
N3323 C3324 1.340 . S
N3323 C3326 1.361 . S
C3324 H3310 0.930 . S
C3324 N3323 1.340 . S
C3324 C3328 1.407 . S
C3325 C3326 1.413 . S
C3325 C3327 1.416 . S
C3325 C3354 1.427 . S
C3326 C3318 1.424 . S
C3326 N3323 1.361 . S
C3326 C3325 1.413 . S
C3327 H3316 0.931 . S
C3327 C3325 1.416 . S
C3327 C3328 1.332 . S
C3328 H3307 0.929 . S
C3328 C3324 1.407 . S
C3328 C3327 1.332 . S
H3329 C3322 0.930 . S
H3330 C3353 0.930 . S
H3331 C3354 0.929 . S
O3332 Tb3288 2.465 . S
O3332 C3352 1.264 . S
O3333 Tb3288 2.387 . S
O3333 C3344 1.264 . S
O3334 Tb3299 2.349 . S
O3334 C3344 1.243 . S
O3335 Tb3288 2.428 . S
O3335 C3352 1.256 . S
O3336 Tb3288 2.308 . S
O3336 C3351 1.266 . S
O3337 Tb3299 2.393 . S
O3337 C3351 1.248 . S
O3338 Tb3299 2.465 . S
O3338 C3363 1.264 . S
O3339 Tb3299 2.387 . S
O3339 C3355 1.264 . S
O3340 Tb3288 2.349 . S
O3340 C3355 1.243 . S
O3341 Tb3299 2.428 . S
O3341 C3363 1.256 . S
O3342 Tb3299 2.308 . S
O3342 C3362 1.266 . S
O3343 Tb3288 2.393 . S
O3343 C3362 1.248 . S
C3344 O3333 1.264 . S
C3344 O3334 1.243 . S
C3345 C3348 1.399 . S
C3345 C3350 1.383 . S
C3345 C3352 1.496 . S
C3346 C3347 1.399 . S
C3346 C3350 1.389 . S
C3347 C3346 1.399 . S
C3347 C3349 1.380 . S
C3347 H3364 0.929 . S
C3348 C3345 1.399 . S
C3348 C3349 1.392 . S
C3348 H3365 0.929 . S
C3349 C3347 1.380 . S
C3349 C3348 1.392 . S
C3349 H3366 0.929 . S
C3350 C3345 1.383 . S
C3350 C3346 1.389 . S
C3350 H3367 0.931 . S
C3351 O3336 1.266 . S
C3351 O3337 1.248 . S
C3352 Tb3288 2.802 . S
C3352 O3332 1.264 . S
C3352 O3335 1.256 . S
C3352 C3345 1.496 . S
C3353 C3320 1.448 . S
C3353 H3330 0.930 . S
C3353 C3354 1.328 . S
C3354 C3325 1.427 . S
C3354 H3331 0.929 . S
C3354 C3353 1.328 . S
C3355 O3339 1.264 . S
C3355 O3340 1.243 . S
C3356 C3359 1.399 . S
C3356 C3360 1.383 . S
C3356 C3363 1.496 . S
C3357 C3358 1.399 . S
C3357 C3360 1.389 . S
C3358 C3357 1.399 . S
C3358 C3361 1.380 . S
C3358 H3368 0.929 . S
C3359 C3356 1.399 . S
C3359 C3361 1.392 . S
C3359 H3369 0.929 . S
C3360 C3356 1.383 . S
C3360 C3357 1.389 . S
C3360 H3370 0.931 . S
C3361 C3358 1.380 . S
C3361 C3359 1.392 . S
C3361 H3371 0.929 . S
C3362 O3342 1.266 . S
C3362 O3343 1.248 . S
C3363 Tb3299 2.802 . S
C3363 O3338 1.264 . S
C3363 O3341 1.256 . S
C3363 C3356 1.496 . S
H3364 C3347 0.929 . S
H3365 C3348 0.929 . S
H3366 C3349 0.929 . S
H3367 C3350 0.931 . S
H3368 C3358 0.929 . S
H3369 C3359 0.929 . S
H3370 C3360 0.931 . S
H3371 C3361 0.929 . S
Tb3372 N3401 2.621 . S
Tb3372 N3407 2.581 . S
Tb3372 O3416 2.478 . S
Tb3372 O3417 2.378 1_655 S
Tb3372 O3419 2.438 . S
Tb3372 O3420 2.305 1_655 S
Tb3372 O3424 2.344 1_655 S
Tb3372 O3427 2.382 1_655 S
Tb3372 C3436 2.816 . S
C3373 N3374 1.379 . S
C3373 C3376 1.416 . S
C3373 C3380 1.424 1_556 S
N3374 C3373 1.379 . S
N3374 C3377 1.334 . S
N3374 Tb3383 2.617 1_556 S
C3375 C3377 1.390 . S
C3375 C3378 1.339 . S
C3375 H3395 0.930 . S
C3376 C3373 1.416 . S
C3376 C3378 1.416 . S
C3376 C3382 1.448 . S
C3377 N3374 1.334 . S
C3377 C3375 1.390 . S
C3377 H3388 0.930 . S
C3378 C3375 1.339 . S
C3378 C3376 1.416 . S
C3378 H3399 0.930 . S
C3379 C3380 1.413 . S
C3379 C3381 1.427 . S
C3379 C3385 1.416 . S
C3380 C3373 1.424 1_554 S
C3380 C3379 1.413 . S
C3380 N3384 1.361 . S
C3381 C3379 1.427 . S
C3381 C3382 1.328 1_554 S
C3381 H3396 0.929 . S
C3382 C3376 1.448 . S
C3382 C3381 1.328 1_556 S
C3382 H3397 0.930 . S
Tb3383 N3374 2.617 1_554 S
Tb3383 N3384 2.572 . S
Tb3383 O3418 2.349 . S
Tb3383 O3421 2.393 1_554 S
Tb3383 O3422 2.465 . S
Tb3383 O3423 2.387 . S
Tb3383 O3425 2.428 1_554 S
Tb3383 O3426 2.308 . S
Tb3383 C3447 2.802 . S
N3384 C3380 1.361 . S
N3384 Tb3383 2.572 . S
N3384 C3386 1.340 . S
C3385 C3379 1.416 . S
C3385 C3387 1.332 . S
C3385 H3393 0.931 . S
C3386 N3384 1.340 . S
C3386 C3387 1.407 . S
C3386 H3392 0.930 . S
C3387 C3385 1.332 . S
C3387 C3386 1.407 . S
C3387 H3389 0.929 . S
H3388 C3377 0.930 . S
H3389 C3387 0.929 . S
H3390 C3405 0.930 1_455 S
H3391 C3412 0.929 . S
H3392 C3386 0.930 . S
H3393 C3385 0.931 . S
H3394 C3408 0.930 1_556 S
H3395 C3375 0.930 . S
H3396 C3381 0.929 . S
H3397 C3382 0.930 . S
H3398 C3403 0.930 . S
H3399 C3378 0.930 . S
H3400 C3411 0.931 . S
N3401 Tb3372 2.621 . S
N3401 C3402 1.379 . S
N3401 C3405 1.334 . S
C3402 N3401 1.379 . S
C3402 C3404 1.416 . S
C3402 C3410 1.424 . S
C3403 H3398 0.930 . S
C3403 C3405 1.390 . S
C3403 C3406 1.339 . S
C3404 C3402 1.416 . S
C3404 C3406 1.416 . S
C3404 C3437 1.448 . S
C3405 H3390 0.930 1_655 S
C3405 N3401 1.334 . S
C3405 C3403 1.390 . S
C3406 C3403 1.339 . S
C3406 C3404 1.416 . S
C3406 H3413 0.930 . S
N3407 Tb3372 2.581 . S
N3407 C3408 1.340 . S
N3407 C3410 1.361 . S
C3408 H3394 0.930 1_554 S
C3408 N3407 1.340 . S
C3408 C3412 1.407 1_554 S
C3409 C3410 1.413 . S
C3409 C3411 1.416 . S
C3409 C3438 1.427 . S
C3410 C3402 1.424 . S
C3410 N3407 1.361 . S
C3410 C3409 1.413 . S
C3411 H3400 0.931 . S
C3411 C3409 1.416 . S
C3411 C3412 1.332 1_554 S
C3412 H3391 0.929 . S
C3412 C3408 1.407 1_556 S
C3412 C3411 1.332 1_556 S
H3413 C3406 0.930 . S
H3414 C3437 0.930 . S
H3415 C3438 0.929 . S
O3416 Tb3372 2.478 . S
O3416 C3436 1.264 . S
O3417 Tb3372 2.378 1_455 S
O3417 C3428 1.264 . S
O3418 Tb3383 2.349 . S
O3418 C3428 1.243 . S
O3419 Tb3372 2.438 . S
O3419 C3436 1.256 . S
O3420 Tb3372 2.305 1_455 S
O3420 C3435 1.266 1_554 S
O3421 Tb3383 2.393 1_556 S
O3421 C3435 1.248 . S
O3422 Tb3383 2.465 . S
O3422 C3447 1.264 . S
O3423 Tb3383 2.387 . S
O3423 C3439 1.264 . S
O3424 Tb3372 2.344 1_455 S
O3424 C3439 1.243 . S
O3425 Tb3383 2.428 1_556 S
O3425 C3447 1.256 1_556 S
O3426 Tb3383 2.308 . S
O3426 C3446 1.266 . S
O3427 Tb3372 2.382 1_455 S
O3427 C3446 1.248 . S
C3428 O3417 1.264 . S
C3428 O3418 1.243 . S
C3429 C3432 1.399 . S
C3429 C3434 1.383 . S
C3429 C3436 1.496 . S
C3430 C3431 1.399 . S
C3430 C3434 1.389 . S
C3431 C3430 1.399 . S
C3431 C3433 1.380 . S
C3431 H3448 0.929 . S
C3432 C3429 1.399 . S
C3432 C3433 1.392 . S
C3432 H3449 0.929 . S
C3433 C3431 1.380 . S
C3433 C3432 1.392 . S
C3433 H3450 0.929 . S
C3434 C3429 1.383 . S
C3434 C3430 1.389 . S
C3434 H3451 0.931 . S
C3435 O3420 1.266 1_556 S
C3435 O3421 1.248 . S
C3436 Tb3372 2.816 . S
C3436 O3416 1.264 . S
C3436 O3419 1.256 . S
C3436 C3429 1.496 . S
C3437 C3404 1.448 . S
C3437 H3414 0.930 . S
C3437 C3438 1.328 . S
C3438 C3409 1.427 . S
C3438 H3415 0.929 . S
C3438 C3437 1.328 . S
C3439 O3423 1.264 . S
C3439 O3424 1.243 . S
C3440 C3443 1.399 . S
C3440 C3444 1.383 1_556 S
C3440 C3447 1.496 1_556 S
C3441 C3442 1.399 1_554 S
C3441 C3444 1.389 . S
C3442 C3441 1.399 1_556 S
C3442 C3445 1.380 . S
C3442 H3452 0.929 . S
C3443 C3440 1.399 . S
C3443 C3445 1.392 . S
C3443 H3453 0.929 . S
C3444 C3440 1.383 1_554 S
C3444 C3441 1.389 . S
C3444 H3454 0.931 . S
C3445 C3442 1.380 . S
C3445 C3443 1.392 . S
C3445 H3455 0.929 . S
C3446 O3426 1.266 . S
C3446 O3427 1.248 . S
C3447 Tb3383 2.802 . S
C3447 O3422 1.264 . S
C3447 O3425 1.256 1_554 S
C3447 C3440 1.496 1_554 S
H3448 C3431 0.929 . S
H3449 C3432 0.929 . S
H3450 C3433 0.929 . S
H3451 C3434 0.931 . S
H3452 C3442 0.929 . S
H3453 C3443 0.929 . S
H3454 C3444 0.931 . S
H3455 C3445 0.929 . S
C3456 C3457 1.391 1_454 S
C3456 C3458 1.394 . S
C3456 H3472 0.931 . S
C3457 C3456 1.391 1_656 S
C3457 C3461 1.376 . S
C3458 C3456 1.394 . S
C3458 C3459 1.369 . S
C3458 C3462 1.531 . S
C3459 C3458 1.369 . S
C3459 C3460 1.410 1_454 S
C3459 C3467 1.503 . S
C3460 C3459 1.410 1_656 S
C3460 C3461 1.392 . S
C3460 C3463 1.511 . S
C3461 C3457 1.376 . S
C3461 C3460 1.392 . S
C3461 H3473 0.929 . S
C3462 C3458 1.531 . S
C3462 H3474 0.960 . S
C3462 H3475 0.962 . S
C3462 H3476 0.960 . S
C3463 C3460 1.511 . S
C3463 H3477 0.961 . S
C3463 H3478 0.961 . S
C3463 H3479 0.961 . S
C3464 C3465 1.368 . S
C3464 C3466 1.364 1_554 S
C3464 H3480 0.933 1_554 S
C3465 C3464 1.368 . S
C3465 C3469 1.408 . S
C3466 C3464 1.364 1_556 S
C3466 C3467 1.370 1_556 S
C3466 C3470 1.524 . S
C3467 C3459 1.503 . S
C3467 C3466 1.370 1_554 S
C3467 C3468 1.403 . S
C3468 C3467 1.403 . S
C3468 C3469 1.404 . S
C3468 C3471 1.539 1_455 S
C3469 C3465 1.408 . S
C3469 C3468 1.404 . S
C3469 H3481 0.930 . S
C3470 C3466 1.524 . S
C3470 H3482 0.956 . S
C3470 H3483 0.961 . S
C3470 H3484 0.961 . S
C3471 C3468 1.539 1_655 S
C3471 H3485 0.958 . S
C3471 H3486 0.961 . S
C3471 H3487 0.960 . S
H3472 C3456 0.931 . S
H3473 C3461 0.929 . S
H3474 C3462 0.960 . S
H3475 C3462 0.962 . S
H3476 C3462 0.960 . S
H3477 C3463 0.961 . S
H3478 C3463 0.961 . S
H3479 C3463 0.961 . S
H3480 C3464 0.933 1_556 S
H3481 C3469 0.930 . S
H3482 C3470 0.956 . S
H3483 C3470 0.961 . S
H3484 C3470 0.961 . S
H3485 C3471 0.958 . S
H3486 C3471 0.961 . S
H3487 C3471 0.960 . S
C3488 C3489 1.391 . S
C3488 C3490 1.394 . S
C3488 H3504 0.931 . S
C3489 C3488 1.391 . S
C3489 C3493 1.376 . S
C3490 C3488 1.394 . S
C3490 C3491 1.369 . S
C3490 C3494 1.531 . S
C3491 C3490 1.369 . S
C3491 C3492 1.410 . S
C3491 C3499 1.503 . S
C3492 C3491 1.410 . S
C3492 C3493 1.392 . S
C3492 C3495 1.511 . S
C3493 C3489 1.376 . S
C3493 C3492 1.392 . S
C3493 H3505 0.929 . S
C3494 C3490 1.531 . S
C3494 H3506 0.960 . S
C3494 H3507 0.962 . S
C3494 H3508 0.960 . S
C3495 C3492 1.511 . S
C3495 H3509 0.961 . S
C3495 H3510 0.961 . S
C3495 H3511 0.961 . S
C3496 C3497 1.370 . S
C3496 C3498 1.363 . S
C3496 H3512 0.931 . S
C3497 C3496 1.370 . S
C3497 C3501 1.408 . S
C3498 C3496 1.363 . S
C3498 C3499 1.370 . S
C3498 C3502 1.524 . S
C3499 C3491 1.503 . S
C3499 C3498 1.370 . S
C3499 C3500 1.403 . S
C3500 C3499 1.403 . S
C3500 C3501 1.404 . S
C3500 C3503 1.539 . S
C3501 C3497 1.408 . S
C3501 C3500 1.404 . S
C3501 H3513 0.930 . S
C3502 C3498 1.524 . S
C3502 H3514 0.956 . S
C3502 H3515 0.961 . S
C3502 H3516 0.961 . S
C3503 C3500 1.539 . S
C3503 H3517 0.958 . S
C3503 H3518 0.961 . S
C3503 H3519 0.960 . S
H3504 C3488 0.931 . S
H3505 C3493 0.929 . S
H3506 C3494 0.960 . S
H3507 C3494 0.962 . S
H3508 C3494 0.960 . S
H3509 C3495 0.961 . S
H3510 C3495 0.961 . S
H3511 C3495 0.961 . S
H3512 C3496 0.931 . S
H3513 C3501 0.930 . S
H3514 C3502 0.956 . S
H3515 C3502 0.961 . S
H3516 C3502 0.961 . S
H3517 C3503 0.958 . S
H3518 C3503 0.961 . S
H3519 C3503 0.960 . S
C3520 C3521 1.391 . S
C3520 C3522 1.394 . S
C3520 H3536 0.931 . S
C3521 C3520 1.391 . S
C3521 C3525 1.376 . S
C3522 C3520 1.394 . S
C3522 C3523 1.369 . S
C3522 C3526 1.531 . S
C3523 C3522 1.369 . S
C3523 C3524 1.410 . S
C3523 C3531 1.503 . S
C3524 C3523 1.410 . S
C3524 C3525 1.392 . S
C3524 C3527 1.511 . S
C3525 C3521 1.376 . S
C3525 C3524 1.392 . S
C3525 H3537 0.929 . S
C3526 C3522 1.531 . S
C3526 H3538 0.960 . S
C3526 H3539 0.962 . S
C3526 H3540 0.960 . S
C3527 C3524 1.511 . S
C3527 H3541 0.961 . S
C3527 H3542 0.961 . S
C3527 H3543 0.961 . S
C3528 C3529 1.370 . S
C3528 C3530 1.363 . S
C3528 H3544 0.931 . S
C3529 C3528 1.370 . S
C3529 C3533 1.408 . S
C3530 C3528 1.363 . S
C3530 C3531 1.370 . S
C3530 C3534 1.524 . S
C3531 C3523 1.503 . S
C3531 C3530 1.370 . S
C3531 C3532 1.403 . S
C3532 C3531 1.403 . S
C3532 C3533 1.404 . S
C3532 C3535 1.539 . S
C3533 C3529 1.408 . S
C3533 C3532 1.404 . S
C3533 H3545 0.930 . S
C3534 C3530 1.524 . S
C3534 H3546 0.956 . S
C3534 H3547 0.961 . S
C3534 H3548 0.961 . S
C3535 C3532 1.539 . S
C3535 H3549 0.958 . S
C3535 H3550 0.961 . S
C3535 H3551 0.960 . S
H3536 C3520 0.931 . S
H3537 C3525 0.929 . S
H3538 C3526 0.960 . S
H3539 C3526 0.962 . S
H3540 C3526 0.960 . S
H3541 C3527 0.961 . S
H3542 C3527 0.961 . S
H3543 C3527 0.961 . S
H3544 C3528 0.931 . S
H3545 C3533 0.930 . S
H3546 C3534 0.956 . S
H3547 C3534 0.961 . S
H3548 C3534 0.961 . S
H3549 C3535 0.958 . S
H3550 C3535 0.961 . S
H3551 C3535 0.960 . S
C3552 C3553 1.391 . S
C3552 C3554 1.394 . S
C3552 H3568 0.931 . S
C3553 C3552 1.391 . S
C3553 C3557 1.376 . S
C3554 C3552 1.394 . S
C3554 C3555 1.369 . S
C3554 C3558 1.531 . S
C3555 C3554 1.369 . S
C3555 C3556 1.410 . S
C3555 C3563 1.503 . S
C3556 C3555 1.410 . S
C3556 C3557 1.392 . S
C3556 C3559 1.511 . S
C3557 C3553 1.376 . S
C3557 C3556 1.392 . S
C3557 H3569 0.929 . S
C3558 C3554 1.531 . S
C3558 H3570 0.960 . S
C3558 H3571 0.962 . S
C3558 H3572 0.960 . S
C3559 C3556 1.511 . S
C3559 H3573 0.961 . S
C3559 H3574 0.961 . S
C3559 H3575 0.961 . S
C3560 C3561 1.370 . S
C3560 C3562 1.363 . S
C3560 H3576 0.931 . S
C3561 C3560 1.370 . S
C3561 C3565 1.408 . S
C3562 C3560 1.363 . S
C3562 C3563 1.370 . S
C3562 C3566 1.524 . S
C3563 C3555 1.503 . S
C3563 C3562 1.370 . S
C3563 C3564 1.403 . S
C3564 C3563 1.403 . S
C3564 C3565 1.404 . S
C3564 C3567 1.539 . S
C3565 C3561 1.408 . S
C3565 C3564 1.404 . S
C3565 H3577 0.930 . S
C3566 C3562 1.524 . S
C3566 H3578 0.956 . S
C3566 H3579 0.961 . S
C3566 H3580 0.961 . S
C3567 C3564 1.539 . S
C3567 H3581 0.958 . S
C3567 H3582 0.961 . S
C3567 H3583 0.960 . S
H3568 C3552 0.931 . S
H3569 C3557 0.929 . S
H3570 C3558 0.960 . S
H3571 C3558 0.962 . S
H3572 C3558 0.960 . S
H3573 C3559 0.961 . S
H3574 C3559 0.961 . S
H3575 C3559 0.961 . S
H3576 C3560 0.931 . S
H3577 C3565 0.930 . S
H3578 C3566 0.956 . S
H3579 C3566 0.961 . S
H3580 C3566 0.961 . S
H3581 C3567 0.958 . S
H3582 C3567 0.961 . S
H3583 C3567 0.960 . S
C3584 C3585 1.391 . S
C3584 C3586 1.394 . S
C3584 H3600 0.931 . S
C3585 C3584 1.391 . S
C3585 C3589 1.376 . S
C3586 C3584 1.394 . S
C3586 C3587 1.369 . S
C3586 C3590 1.531 . S
C3587 C3586 1.369 . S
C3587 C3588 1.410 . S
C3587 C3595 1.503 . S
C3588 C3587 1.410 . S
C3588 C3589 1.392 . S
C3588 C3591 1.511 1_455 S
C3589 C3585 1.376 . S
C3589 C3588 1.392 . S
C3589 H3601 0.929 . S
C3590 C3586 1.531 . S
C3590 H3602 0.960 . S
C3590 H3603 0.962 . S
C3590 H3604 0.960 . S
C3591 C3588 1.511 1_655 S
C3591 H3605 0.961 . S
C3591 H3606 0.961 1_655 S
C3591 H3607 0.961 . S
C3592 C3593 1.370 . S
C3592 C3594 1.363 . S
C3592 H3608 0.931 . S
C3593 C3592 1.370 . S
C3593 C3597 1.408 . S
C3594 C3592 1.363 . S
C3594 C3595 1.370 . S
C3594 C3598 1.524 . S
C3595 C3587 1.503 . S
C3595 C3594 1.370 . S
C3595 C3596 1.403 . S
C3596 C3595 1.403 . S
C3596 C3597 1.404 . S
C3596 C3599 1.539 1_455 S
C3597 C3593 1.408 . S
C3597 C3596 1.404 . S
C3597 H3609 0.931 1_455 S
C3598 C3594 1.524 . S
C3598 H3610 0.956 . S
C3598 H3611 0.961 . S
C3598 H3612 0.961 . S
C3599 C3596 1.539 1_655 S
C3599 H3613 0.958 . S
C3599 H3614 0.961 . S
C3599 H3615 0.960 . S
H3600 C3584 0.931 . S
H3601 C3589 0.929 . S
H3602 C3590 0.960 . S
H3603 C3590 0.962 . S
H3604 C3590 0.960 . S
H3605 C3591 0.961 . S
H3606 C3591 0.961 1_455 S
H3607 C3591 0.961 . S
H3608 C3592 0.931 . S
H3609 C3597 0.931 1_655 S
H3610 C3598 0.956 . S
H3611 C3598 0.961 . S
H3612 C3598 0.961 . S
H3613 C3599 0.958 . S
H3614 C3599 0.961 . S
H3615 C3599 0.960 . S
C3616 C3617 1.391 . S
C3616 C3618 1.394 . S
C3616 H3632 0.931 . S
C3617 C3616 1.391 . S
C3617 C3621 1.376 . S
C3618 C3616 1.394 . S
C3618 C3619 1.369 . S
C3618 C3622 1.531 . S
C3619 C3618 1.369 . S
C3619 C3620 1.410 . S
C3619 C3627 1.503 . S
C3620 C3619 1.410 . S
C3620 C3621 1.392 . S
C3620 C3623 1.511 . S
C3621 C3617 1.376 . S
C3621 C3620 1.392 . S
C3621 H3633 0.929 . S
C3622 C3618 1.531 . S
C3622 H3634 0.960 . S
C3622 H3635 0.962 . S
C3622 H3636 0.960 . S
C3623 C3620 1.511 . S
C3623 H3637 0.961 . S
C3623 H3638 0.961 . S
C3623 H3639 0.961 . S
C3624 C3625 1.370 . S
C3624 C3626 1.363 . S
C3624 H3640 0.931 . S
C3625 C3624 1.370 . S
C3625 C3629 1.408 . S
C3626 C3624 1.363 . S
C3626 C3627 1.370 . S
C3626 C3630 1.524 . S
C3627 C3619 1.503 . S
C3627 C3626 1.370 . S
C3627 C3628 1.403 . S
C3628 C3627 1.403 . S
C3628 C3629 1.404 . S
C3628 C3631 1.539 . S
C3629 C3625 1.408 . S
C3629 C3628 1.404 . S
C3629 H3641 0.930 . S
C3630 C3626 1.524 . S
C3630 H3642 0.956 . S
C3630 H3643 0.961 . S
C3630 H3644 0.961 . S
C3631 C3628 1.539 . S
C3631 H3645 0.958 . S
C3631 H3646 0.961 . S
C3631 H3647 0.960 . S
H3632 C3616 0.931 . S
H3633 C3621 0.929 . S
H3634 C3622 0.960 . S
H3635 C3622 0.962 . S
H3636 C3622 0.960 . S
H3637 C3623 0.961 . S
H3638 C3623 0.961 . S
H3639 C3623 0.961 . S
H3640 C3624 0.931 . S
H3641 C3629 0.930 . S
H3642 C3630 0.956 . S
H3643 C3630 0.961 . S
H3644 C3630 0.961 . S
H3645 C3631 0.958 . S
H3646 C3631 0.961 . S
H3647 C3631 0.960 . S
C3648 C3649 1.391 . S
C3648 C3650 1.394 . S
C3648 H3664 0.931 . S
C3649 C3648 1.391 . S
C3649 C3653 1.376 . S
C3650 C3648 1.394 . S
C3650 C3651 1.369 . S
C3650 C3654 1.531 . S
C3651 C3650 1.369 . S
C3651 C3652 1.410 . S
C3651 C3659 1.503 . S
C3652 C3651 1.410 . S
C3652 C3653 1.392 . S
C3652 C3655 1.511 . S
C3653 C3649 1.376 . S
C3653 C3652 1.392 . S
C3653 H3665 0.929 . S
C3654 C3650 1.531 . S
C3654 H3666 0.960 . S
C3654 H3667 0.962 . S
C3654 H3668 0.960 . S
C3655 C3652 1.511 . S
C3655 H3669 0.961 . S
C3655 H3670 0.961 . S
C3655 H3671 0.961 . S
C3656 C3657 1.370 . S
C3656 C3658 1.363 . S
C3656 H3672 0.931 . S
C3657 C3656 1.370 . S
C3657 C3661 1.408 . S
C3658 C3656 1.363 . S
C3658 C3659 1.370 . S
C3658 C3662 1.524 . S
C3659 C3651 1.503 . S
C3659 C3658 1.370 . S
C3659 C3660 1.403 . S
C3660 C3659 1.403 . S
C3660 C3661 1.404 . S
C3660 C3663 1.539 . S
C3661 C3657 1.408 . S
C3661 C3660 1.404 . S
C3661 H3673 0.930 . S
C3662 C3658 1.524 . S
C3662 H3674 0.956 . S
C3662 H3675 0.961 . S
C3662 H3676 0.961 . S
C3663 C3660 1.539 . S
C3663 H3677 0.958 . S
C3663 H3678 0.961 . S
C3663 H3679 0.960 . S
H3664 C3648 0.931 . S
H3665 C3653 0.929 . S
H3666 C3654 0.960 . S
H3667 C3654 0.962 . S
H3668 C3654 0.960 . S
H3669 C3655 0.961 . S
H3670 C3655 0.961 . S
H3671 C3655 0.961 . S
H3672 C3656 0.931 . S
H3673 C3661 0.930 . S
H3674 C3662 0.956 . S
H3675 C3662 0.961 . S
H3676 C3662 0.961 . S
H3677 C3663 0.958 . S
H3678 C3663 0.961 . S
H3679 C3663 0.960 . S
C3680 C3681 1.391 . S
C3680 C3682 1.394 . S
C3680 H3696 0.931 . S
C3681 C3680 1.391 . S
C3681 C3685 1.376 . S
C3682 C3680 1.394 . S
C3682 C3683 1.369 . S
C3682 C3686 1.531 . S
C3683 C3682 1.369 . S
C3683 C3684 1.410 . S
C3683 C3691 1.503 . S
C3684 C3683 1.410 . S
C3684 C3685 1.392 . S
C3684 C3687 1.511 . S
C3685 C3681 1.376 . S
C3685 C3684 1.392 . S
C3685 H3697 0.929 . S
C3686 C3682 1.531 . S
C3686 H3698 0.960 . S
C3686 H3699 0.962 . S
C3686 H3700 0.960 . S
C3687 C3684 1.511 . S
C3687 H3701 0.961 . S
C3687 H3702 0.961 . S
C3687 H3703 0.961 . S
C3688 C3689 1.370 . S
C3688 C3690 1.363 . S
C3688 H3704 0.931 . S
C3689 C3688 1.370 . S
C3689 C3693 1.408 . S
C3690 C3688 1.363 . S
C3690 C3691 1.370 . S
C3690 C3694 1.524 . S
C3691 C3683 1.503 . S
C3691 C3690 1.370 . S
C3691 C3692 1.403 . S
C3692 C3691 1.403 . S
C3692 C3693 1.404 . S
C3692 C3695 1.539 . S
C3693 C3689 1.408 . S
C3693 C3692 1.404 . S
C3693 H3705 0.930 . S
C3694 C3690 1.524 . S
C3694 H3706 0.956 . S
C3694 H3707 0.961 . S
C3694 H3708 0.961 . S
C3695 C3692 1.539 . S
C3695 H3709 0.958 . S
C3695 H3710 0.961 . S
C3695 H3711 0.960 . S
H3696 C3680 0.931 . S
H3697 C3685 0.929 . S
H3698 C3686 0.960 . S
H3699 C3686 0.962 . S
H3700 C3686 0.960 . S
H3701 C3687 0.961 . S
H3702 C3687 0.961 . S
H3703 C3687 0.961 . S
H3704 C3688 0.931 . S
H3705 C3693 0.930 . S
H3706 C3694 0.956 . S
H3707 C3694 0.961 . S
H3708 C3694 0.961 . S
H3709 C3695 0.958 . S
H3710 C3695 0.961 . S
H3711 C3695 0.960 . S
C3712 C3713 1.391 . S
C3712 C3714 1.394 . S
C3712 H3728 0.931 . S
C3713 C3712 1.391 . S
C3713 C3717 1.376 . S
C3714 C3712 1.394 . S
C3714 C3715 1.369 . S
C3714 C3718 1.531 . S
C3715 C3714 1.369 . S
C3715 C3716 1.442 . S
C3715 C3723 1.503 . S
C3716 C3715 1.442 . S
C3716 C3717 1.420 . S
C3716 C3719 1.455 1_655 S
C3717 C3713 1.376 . S
C3717 C3716 1.420 . S
C3717 H3729 0.929 . S
C3718 C3714 1.531 . S
C3718 H3730 0.960 . S
C3718 H3731 0.962 . S
C3718 H3732 0.960 . S
C3719 C3716 1.455 1_455 S
C3719 H3733 0.961 1_545 S
C3719 H3734 0.961 . S
C3719 H3735 0.961 . S
C3720 C3721 1.370 1_655 S
C3720 C3722 1.363 . S
C3720 H3736 0.931 . S
C3721 C3720 1.370 1_455 S
C3721 C3725 1.408 . S
C3722 C3720 1.363 . S
C3722 C3723 1.370 . S
C3722 C3726 1.524 1_545 S
C3723 C3715 1.503 . S
C3723 C3722 1.370 . S
C3723 C3724 1.403 1_655 S
C3724 C3723 1.403 1_455 S
C3724 C3725 1.404 . S
C3724 C3727 1.539 . S
C3725 C3721 1.408 . S
C3725 C3724 1.404 . S
C3725 H3737 0.930 . S
C3726 C3722 1.524 1_565 S
C3726 H3738 0.958 . S
C3726 H3739 0.961 . S
C3726 H3740 0.961 . S
C3727 C3724 1.539 . S
C3727 H3741 0.958 . S
C3727 H3742 0.961 . S
C3727 H3743 0.960 . S
H3728 C3712 0.931 . S
H3729 C3717 0.929 . S
H3730 C3718 0.960 . S
H3731 C3718 0.962 . S
H3732 C3718 0.960 . S
H3733 C3719 0.961 1_565 S
H3734 C3719 0.961 . S
H3735 C3719 0.961 . S
H3736 C3720 0.931 . S
H3737 C3725 0.930 . S
H3738 C3726 0.958 . S
H3739 C3726 0.961 . S
H3740 C3726 0.961 . S
H3741 C3727 0.958 . S
H3742 C3727 0.961 . S
H3743 C3727 0.960 . S
C3744 C3745 1.391 . S
C3744 C3746 1.394 . S
C3744 H3760 0.931 . S
C3745 C3744 1.391 . S
C3745 C3749 1.376 . S
C3746 C3744 1.394 . S
C3746 C3747 1.369 . S
C3746 C3750 1.531 . S
C3747 C3746 1.369 . S
C3747 C3748 1.410 . S
C3747 C3755 1.503 . S
C3748 C3747 1.410 . S
C3748 C3749 1.392 . S
C3748 C3751 1.511 . S
C3749 C3745 1.376 . S
C3749 C3748 1.392 . S
C3749 H3761 0.929 . S
C3750 C3746 1.531 . S
C3750 H3762 0.960 . S
C3750 H3763 0.962 . S
C3750 H3764 0.960 . S
C3751 C3748 1.511 . S
C3751 H3765 0.961 . S
C3751 H3766 0.961 . S
C3751 H3767 0.961 . S
C3752 C3753 1.370 . S
C3752 C3754 1.363 . S
C3752 H3768 0.931 . S
C3753 C3752 1.370 . S
C3753 C3757 1.408 . S
C3754 C3752 1.363 . S
C3754 C3755 1.370 . S
C3754 C3758 1.524 . S
C3755 C3747 1.503 . S
C3755 C3754 1.370 . S
C3755 C3756 1.403 . S
C3756 C3755 1.403 . S
C3756 C3757 1.404 . S
C3756 C3759 1.539 . S
C3757 C3753 1.408 . S
C3757 C3756 1.404 . S
C3757 H3769 0.930 . S
C3758 C3754 1.524 . S
C3758 H3770 0.956 . S
C3758 H3771 0.961 . S
C3758 H3772 0.961 . S
C3759 C3756 1.539 . S
C3759 H3773 0.958 . S
C3759 H3774 0.961 . S
C3759 H3775 0.960 . S
H3760 C3744 0.931 . S
H3761 C3749 0.929 . S
H3762 C3750 0.960 . S
H3763 C3750 0.962 . S
H3764 C3750 0.960 . S
H3765 C3751 0.961 . S
H3766 C3751 0.961 . S
H3767 C3751 0.961 . S
H3768 C3752 0.931 . S
H3769 C3757 0.930 . S
H3770 C3758 0.956 . S
H3771 C3758 0.961 . S
H3772 C3758 0.961 . S
H3773 C3759 0.958 . S
H3774 C3759 0.961 . S
H3775 C3759 0.960 . S
C3776 C3777 1.391 . S
C3776 C3778 1.394 . S
C3776 H3792 0.931 . S
C3777 C3776 1.391 . S
C3777 C3781 1.376 . S
C3778 C3776 1.394 . S
C3778 C3779 1.369 . S
C3778 C3782 1.531 . S
C3779 C3778 1.369 . S
C3779 C3780 1.410 . S
C3779 C3787 1.503 . S
C3780 C3779 1.410 . S
C3780 C3781 1.392 . S
C3780 C3783 1.511 . S
C3781 C3777 1.376 . S
C3781 C3780 1.392 . S
C3781 H3793 0.929 . S
C3782 C3778 1.531 . S
C3782 H3794 0.960 . S
C3782 H3795 0.962 . S
C3782 H3796 0.960 . S
C3783 C3780 1.511 . S
C3783 H3797 0.961 1_545 S
C3783 H3798 0.960 1_545 S
C3783 H3799 0.961 . S
C3784 C3785 1.370 . S
C3784 C3786 1.363 . S
C3784 H3800 0.931 . S
C3785 C3784 1.370 . S
C3785 C3789 1.408 . S
C3786 C3784 1.363 . S
C3786 C3787 1.370 . S
C3786 C3790 1.524 . S
C3787 C3779 1.503 . S
C3787 C3786 1.370 . S
C3787 C3788 1.403 . S
C3788 C3787 1.403 . S
C3788 C3789 1.404 . S
C3788 C3791 1.539 . S
C3789 C3785 1.408 . S
C3789 C3788 1.404 . S
C3789 H3801 0.930 . S
C3790 C3786 1.524 . S
C3790 H3802 0.956 . S
C3790 H3803 0.961 1_545 S
C3790 H3804 0.961 1_545 S
C3791 C3788 1.539 . S
C3791 H3805 0.958 . S
C3791 H3806 0.961 . S
C3791 H3807 0.960 . S
H3792 C3776 0.931 . S
H3793 C3781 0.929 . S
H3794 C3782 0.960 . S
H3795 C3782 0.962 . S
H3796 C3782 0.960 . S
H3797 C3783 0.961 1_565 S
H3798 C3783 0.960 1_565 S
H3799 C3783 0.961 . S
H3800 C3784 0.931 . S
H3801 C3789 0.930 . S
H3802 C3790 0.956 . S
H3803 C3790 0.961 1_565 S
H3804 C3790 0.961 1_565 S
H3805 C3791 0.958 . S
H3806 C3791 0.961 . S
H3807 C3791 0.960 . S
C3808 C3809 1.391 . S
C3808 C3810 1.394 . S
C3808 H3824 0.931 . S
C3809 C3808 1.391 . S
C3809 C3813 1.376 . S
C3810 C3808 1.394 . S
C3810 C3811 1.369 . S
C3810 C3814 1.531 . S
C3811 C3810 1.369 . S
C3811 C3812 1.410 . S
C3811 C3819 1.503 . S
C3812 C3811 1.410 . S
C3812 C3813 1.392 . S
C3812 C3815 1.511 . S
C3813 C3809 1.376 . S
C3813 C3812 1.392 . S
C3813 H3825 0.929 . S
C3814 C3810 1.531 . S
C3814 H3826 0.960 . S
C3814 H3827 0.962 . S
C3814 H3828 0.960 . S
C3815 C3812 1.511 . S
C3815 H3829 0.961 . S
C3815 H3830 0.961 . S
C3815 H3831 0.961 . S
C3816 C3817 1.370 . S
C3816 C3818 1.363 . S
C3816 H3832 0.931 . S
C3817 C3816 1.370 . S
C3817 C3821 1.408 . S
C3818 C3816 1.363 . S
C3818 C3819 1.370 . S
C3818 C3822 1.524 . S
C3819 C3811 1.503 . S
C3819 C3818 1.370 . S
C3819 C3820 1.403 . S
C3820 C3819 1.403 . S
C3820 C3821 1.404 . S
C3820 C3823 1.539 . S
C3821 C3817 1.408 . S
C3821 C3820 1.404 . S
C3821 H3833 0.930 . S
C3822 C3818 1.524 . S
C3822 H3834 0.956 . S
C3822 H3835 0.961 . S
C3822 H3836 0.961 . S
C3823 C3820 1.539 . S
C3823 H3837 0.958 . S
C3823 H3838 0.961 . S
C3823 H3839 0.960 . S
H3824 C3808 0.931 . S
H3825 C3813 0.929 . S
H3826 C3814 0.960 . S
H3827 C3814 0.962 . S
H3828 C3814 0.960 . S
H3829 C3815 0.961 . S
H3830 C3815 0.961 . S
H3831 C3815 0.961 . S
H3832 C3816 0.931 . S
H3833 C3821 0.930 . S
H3834 C3822 0.956 . S
H3835 C3822 0.961 . S
H3836 C3822 0.961 . S
H3837 C3823 0.958 . S
H3838 C3823 0.961 . S
H3839 C3823 0.960 . S
C3840 C3841 1.391 . S
C3840 C3842 1.395 . S
C3840 H3856 0.931 1_655 S
C3841 C3840 1.391 . S
C3841 C3845 1.376 . S
C3842 C3840 1.395 . S
C3842 C3843 1.373 . S
C3842 C3846 1.525 1_655 S
C3843 C3842 1.373 . S
C3843 C3844 1.410 . S
C3843 C3851 1.503 . S
C3844 C3843 1.410 . S
C3844 C3845 1.392 . S
C3844 C3847 1.511 1_545 S
C3845 C3841 1.376 . S
C3845 C3844 1.392 . S
C3845 H3857 0.929 . S
C3846 C3842 1.525 1_455 S
C3846 H3858 0.960 . S
C3846 H3859 0.962 . S
C3846 H3860 0.960 . S
C3847 C3844 1.511 1_565 S
C3847 H3861 0.961 . S
C3847 H3862 0.961 . S
C3847 H3863 0.961 1_565 S
C3848 C3849 1.370 . S
C3848 C3850 1.363 . S
C3848 H3864 0.931 . S
C3849 C3848 1.370 . S
C3849 C3853 1.408 1_455 S
C3850 C3848 1.363 . S
C3850 C3851 1.370 1_455 S
C3850 C3854 1.524 . S
C3851 C3843 1.503 . S
C3851 C3850 1.370 1_655 S
C3851 C3852 1.403 . S
C3852 C3851 1.403 . S
C3852 C3853 1.404 . S
C3852 C3855 1.539 . S
C3853 C3849 1.408 1_655 S
C3853 C3852 1.404 . S
C3853 H3865 0.930 . S
C3854 C3850 1.524 . S
C3854 H3866 0.956 . S
C3854 H3867 0.961 1_545 S
C3854 H3868 0.961 1_545 S
C3855 C3852 1.539 . S
C3855 H3869 0.958 . S
C3855 H3870 0.961 . S
C3855 H3871 0.960 . S
H3856 C3840 0.931 1_455 S
H3857 C3845 0.929 . S
H3858 C3846 0.960 . S
H3859 C3846 0.962 . S
H3860 C3846 0.960 . S
H3861 C3847 0.961 . S
H3862 C3847 0.961 . S
H3863 C3847 0.961 1_545 S
H3864 C3848 0.931 . S
H3865 C3853 0.930 . S
H3866 C3854 0.956 . S
H3867 C3854 0.961 1_565 S
H3868 C3854 0.961 1_565 S
H3869 C3855 0.958 . S
H3870 C3855 0.961 . S
H3871 C3855 0.960 . S
C3872 C3873 1.391 . S
C3872 C3874 1.394 . S
C3872 H3888 0.931 . S
C3873 C3872 1.391 . S
C3873 C3877 1.376 . S
C3874 C3872 1.394 . S
C3874 C3875 1.369 . S
C3874 C3878 1.531 . S
C3875 C3874 1.369 . S
C3875 C3876 1.410 . S
C3875 C3883 1.503 . S
C3876 C3875 1.410 . S
C3876 C3877 1.392 . S
C3876 C3879 1.511 . S
C3877 C3873 1.376 . S
C3877 C3876 1.392 . S
C3877 H3889 0.929 . S
C3878 C3874 1.531 . S
C3878 H3890 0.960 . S
C3878 H3891 0.962 . S
C3878 H3892 0.960 . S
C3879 C3876 1.511 . S
C3879 H3893 0.961 . S
C3879 H3894 0.961 . S
C3879 H3895 0.961 . S
C3880 C3881 1.370 . S
C3880 C3882 1.363 . S
C3880 H3896 0.931 . S
C3881 C3880 1.370 . S
C3881 C3885 1.408 . S
C3882 C3880 1.363 . S
C3882 C3883 1.370 . S
C3882 C3886 1.524 . S
C3883 C3875 1.503 . S
C3883 C3882 1.370 . S
C3883 C3884 1.403 . S
C3884 C3883 1.403 . S
C3884 C3885 1.404 . S
C3884 C3887 1.539 . S
C3885 C3881 1.408 . S
C3885 C3884 1.404 . S
C3885 H3897 0.930 . S
C3886 C3882 1.524 . S
C3886 H3898 0.956 . S
C3886 H3899 0.961 . S
C3886 H3900 0.961 . S
C3887 C3884 1.539 . S
C3887 H3901 0.958 . S
C3887 H3902 0.961 . S
C3887 H3903 0.960 . S
H3888 C3872 0.931 . S
H3889 C3877 0.929 . S
H3890 C3878 0.960 . S
H3891 C3878 0.962 . S
H3892 C3878 0.960 . S
H3893 C3879 0.961 . S
H3894 C3879 0.961 . S
H3895 C3879 0.961 . S
H3896 C3880 0.931 . S
H3897 C3885 0.930 . S
H3898 C3886 0.956 . S
H3899 C3886 0.961 . S
H3900 C3886 0.961 . S
H3901 C3887 0.958 . S
H3902 C3887 0.961 . S
H3903 C3887 0.960 . S
C3904 C3905 1.391 . S
C3904 C3906 1.394 . S
C3904 H3920 0.931 . S
C3905 C3904 1.391 . S
C3905 C3909 1.376 . S
C3906 C3904 1.394 . S
C3906 C3907 1.369 . S
C3906 C3910 1.531 . S
C3907 C3906 1.369 . S
C3907 C3908 1.410 . S
C3907 C3915 1.503 . S
C3908 C3907 1.410 . S
C3908 C3909 1.392 . S
C3908 C3911 1.511 . S
C3909 C3905 1.376 . S
C3909 C3908 1.392 . S
C3909 H3921 0.929 . S
C3910 C3906 1.531 . S
C3910 H3922 0.960 . S
C3910 H3923 0.962 . S
C3910 H3924 0.960 . S
C3911 C3908 1.511 . S
C3911 H3925 0.961 . S
C3911 H3926 0.961 . S
C3911 H3927 0.961 . S
C3912 C3913 1.370 . S
C3912 C3914 1.363 . S
C3912 H3928 0.931 . S
C3913 C3912 1.370 . S
C3913 C3917 1.408 . S
C3914 C3912 1.363 . S
C3914 C3915 1.370 . S
C3914 C3918 1.524 . S
C3915 C3907 1.503 . S
C3915 C3914 1.370 . S
C3915 C3916 1.403 . S
C3916 C3915 1.403 . S
C3916 C3917 1.404 . S
C3916 C3919 1.539 . S
C3917 C3913 1.408 . S
C3917 C3916 1.404 . S
C3917 H3929 0.930 . S
C3918 C3914 1.524 . S
C3918 H3930 0.956 . S
C3918 H3931 0.961 . S
C3918 H3932 0.961 1_545 S
C3919 C3916 1.539 . S
C3919 H3933 0.958 . S
C3919 H3934 0.961 . S
C3919 H3935 0.960 . S
H3920 C3904 0.931 . S
H3921 C3909 0.929 . S
H3922 C3910 0.960 . S
H3923 C3910 0.962 . S
H3924 C3910 0.960 . S
H3925 C3911 0.961 . S
H3926 C3911 0.961 . S
H3927 C3911 0.961 . S
H3928 C3912 0.931 . S
H3929 C3917 0.930 . S
H3930 C3918 0.956 . S
H3931 C3918 0.961 . S
H3932 C3918 0.961 1_565 S
H3933 C3919 0.958 . S
H3934 C3919 0.961 . S
H3935 C3919 0.960 . S
C3936 C3937 1.391 . S
C3936 C3938 1.394 . S
C3936 H3952 0.931 . S
C3937 C3936 1.391 . S
C3937 C3941 1.376 . S
C3938 C3936 1.394 . S
C3938 C3939 1.369 . S
C3938 C3942 1.531 . S
C3939 C3938 1.369 . S
C3939 C3940 1.410 . S
C3939 C3947 1.503 . S
C3940 C3939 1.410 . S
C3940 C3941 1.392 . S
C3940 C3943 1.511 . S
C3941 C3937 1.376 . S
C3941 C3940 1.392 . S
C3941 H3953 0.929 . S
C3942 C3938 1.531 . S
C3942 H3954 0.960 . S
C3942 H3955 0.962 . S
C3942 H3956 0.960 . S
C3943 C3940 1.511 . S
C3943 H3957 0.961 . S
C3943 H3958 0.961 . S
C3943 H3959 0.961 . S
C3944 C3945 1.370 . S
C3944 C3946 1.363 . S
C3944 H3960 0.931 . S
C3945 C3944 1.370 . S
C3945 C3949 1.408 . S
C3946 C3944 1.363 . S
C3946 C3947 1.370 . S
C3946 C3950 1.524 . S
C3947 C3939 1.503 . S
C3947 C3946 1.370 . S
C3947 C3948 1.403 . S
C3948 C3947 1.403 . S
C3948 C3949 1.404 . S
C3948 C3951 1.539 . S
C3949 C3945 1.408 . S
C3949 C3948 1.404 . S
C3949 H3961 0.930 . S
C3950 C3946 1.524 . S
C3950 H3962 0.956 . S
C3950 H3963 0.961 . S
C3950 H3964 0.961 . S
C3951 C3948 1.539 . S
C3951 H3965 0.958 . S
C3951 H3966 0.961 . S
C3951 H3967 0.960 . S
H3952 C3936 0.931 . S
H3953 C3941 0.929 . S
H3954 C3942 0.960 . S
H3955 C3942 0.962 . S
H3956 C3942 0.960 . S
H3957 C3943 0.961 . S
H3958 C3943 0.961 . S
H3959 C3943 0.961 . S
H3960 C3944 0.931 . S
H3961 C3949 0.930 . S
H3962 C3950 0.956 . S
H3963 C3950 0.961 . S
H3964 C3950 0.961 . S
H3965 C3951 0.958 . S
H3966 C3951 0.961 . S
H3967 C3951 0.960 . S
C3968 C3969 1.407 . S
C3968 C3970 1.394 . S
C3968 H3984 0.931 . S
C3969 C3968 1.407 . S
C3969 C3973 1.353 1_556 S
C3970 C3968 1.394 . S
C3970 C3971 1.369 1_556 S
C3970 C3974 1.531 . S
C3971 C3970 1.369 1_554 S
C3971 C3972 1.410 . S
C3971 C3979 1.503 . S
C3972 C3971 1.410 . S
C3972 C3973 1.392 . S
C3972 C3975 1.511 . S
C3973 C3969 1.353 1_554 S
C3973 C3972 1.392 . S
C3973 H3985 0.929 . S
C3974 C3970 1.531 . S
C3974 H3986 0.960 . S
C3974 H3987 0.962 . S
C3974 H3988 0.960 . S
C3975 C3972 1.511 . S
C3975 H3989 0.961 . S
C3975 H3990 0.961 . S
C3975 H3991 0.961 . S
C3976 C3977 1.370 1_545 S
C3976 C3978 1.382 . S
C3976 H3992 0.931 . S
C3977 C3976 1.370 1_565 S
C3977 C3981 1.408 . S
C3978 C3976 1.382 . S
C3978 C3979 1.333 1_545 S
C3978 C3982 1.544 . S
C3979 C3971 1.503 . S
C3979 C3978 1.333 1_565 S
C3979 C3980 1.403 . S
C3980 C3979 1.403 . S
C3980 C3981 1.404 . S
C3980 C3983 1.539 . S
C3981 C3977 1.408 . S
C3981 C3980 1.404 . S
C3981 H3993 0.930 . S
C3982 C3978 1.544 . S
C3982 H3994 0.956 . S
C3982 H3995 0.961 . S
C3982 H3996 0.961 . S
C3983 C3980 1.539 . S
C3983 H3997 0.958 1_554 S
C3983 H3998 0.961 . S
C3983 H3999 0.960 . S
H3984 C3968 0.931 . S
H3985 C3973 0.929 . S
H3986 C3974 0.960 . S
H3987 C3974 0.962 . S
H3988 C3974 0.960 . S
H3989 C3975 0.961 . S
H3990 C3975 0.961 . S
H3991 C3975 0.961 . S
H3992 C3976 0.931 . S
H3993 C3981 0.930 . S
H3994 C3982 0.956 . S
H3995 C3982 0.961 . S
H3996 C3982 0.961 . S
H3997 C3983 0.958 1_556 S
H3998 C3983 0.961 . S
H3999 C3983 0.960 . S
C4000 C4001 1.424 . S
C4000 C4002 1.394 . S
C4000 H4016 0.931 . S
C4001 C4000 1.424 . S
C4001 C4005 1.352 1_554 S
C4002 C4000 1.394 . S
C4002 C4003 1.369 . S
C4002 C4006 1.531 . S
C4003 C4002 1.369 . S
C4003 C4004 1.410 1_554 S
C4003 C4011 1.503 . S
C4004 C4003 1.410 1_556 S
C4004 C4005 1.392 . S
C4004 C4007 1.511 . S
C4005 C4001 1.352 1_556 S
C4005 C4004 1.392 . S
C4005 H4017 0.929 . S
C4006 C4002 1.531 . S
C4006 H4018 0.960 . S
C4006 H4019 0.962 . S
C4006 H4020 0.960 . S
C4007 C4004 1.511 . S
C4007 H4021 0.961 . S
C4007 H4022 0.961 . S
C4007 H4023 0.961 . S
C4008 C4009 1.370 . S
C4008 C4010 1.363 . S
C4008 H4024 0.931 . S
C4009 C4008 1.370 . S
C4009 C4013 1.408 . S
C4010 C4008 1.363 . S
C4010 C4011 1.370 . S
C4010 C4014 1.524 . S
C4011 C4003 1.503 . S
C4011 C4010 1.370 . S
C4011 C4012 1.403 . S
C4012 C4011 1.403 . S
C4012 C4013 1.404 . S
C4012 C4015 1.539 1_554 S
C4013 C4009 1.408 . S
C4013 C4012 1.404 . S
C4013 H4025 0.932 . S
C4014 C4010 1.524 . S
C4014 H4026 0.956 . S
C4014 H4027 0.961 . S
C4014 H4028 0.961 . S
C4015 C4012 1.539 1_556 S
C4015 H4029 0.963 . S
C4015 H4030 0.961 . S
C4015 H4031 0.960 . S
H4016 C4000 0.931 . S
H4017 C4005 0.929 . S
H4018 C4006 0.960 . S
H4019 C4006 0.962 . S
H4020 C4006 0.960 . S
H4021 C4007 0.961 . S
H4022 C4007 0.961 . S
H4023 C4007 0.961 . S
H4024 C4008 0.931 . S
H4025 C4013 0.932 . S
H4026 C4014 0.956 . S
H4027 C4014 0.961 . S
H4028 C4014 0.961 . S
H4029 C4015 0.963 . S
H4030 C4015 0.961 . S
H4031 C4015 0.960 . S
C4032 C4033 1.391 . S
C4032 C4034 1.394 . S
C4032 H4048 0.931 . S
C4033 C4032 1.391 . S
C4033 C4037 1.376 . S
C4034 C4032 1.394 . S
C4034 C4035 1.369 . S
C4034 C4038 1.531 . S
C4035 C4034 1.369 . S
C4035 C4036 1.410 . S
C4035 C4043 1.503 . S
C4036 C4035 1.410 . S
C4036 C4037 1.392 . S
C4036 C4039 1.511 . S
C4037 C4033 1.376 . S
C4037 C4036 1.392 . S
C4037 H4049 0.929 . S
C4038 C4034 1.531 . S
C4038 H4050 0.960 . S
C4038 H4051 0.962 . S
C4038 H4052 0.960 . S
C4039 C4036 1.511 . S
C4039 H4053 0.961 . S
C4039 H4054 0.961 . S
C4039 H4055 0.961 . S
C4040 C4041 1.370 . S
C4040 C4042 1.363 . S
C4040 H4056 0.931 . S
C4041 C4040 1.370 . S
C4041 C4045 1.408 . S
C4042 C4040 1.363 . S
C4042 C4043 1.370 . S
C4042 C4046 1.524 . S
C4043 C4035 1.503 . S
C4043 C4042 1.370 . S
C4043 C4044 1.403 . S
C4044 C4043 1.403 . S
C4044 C4045 1.404 . S
C4044 C4047 1.539 . S
C4045 C4041 1.408 . S
C4045 C4044 1.404 . S
C4045 H4057 0.930 . S
C4046 C4042 1.524 . S
C4046 H4058 0.956 . S
C4046 H4059 0.961 . S
C4046 H4060 0.961 . S
C4047 C4044 1.539 . S
C4047 H4061 0.958 . S
C4047 H4062 0.961 . S
C4047 H4063 0.960 . S
H4048 C4032 0.931 . S
H4049 C4037 0.929 . S
H4050 C4038 0.960 . S
H4051 C4038 0.962 . S
H4052 C4038 0.960 . S
H4053 C4039 0.961 . S
H4054 C4039 0.961 . S
H4055 C4039 0.961 . S
H4056 C4040 0.931 . S
H4057 C4045 0.930 . S
H4058 C4046 0.956 . S
H4059 C4046 0.961 . S
H4060 C4046 0.961 . S
H4061 C4047 0.958 . S
H4062 C4047 0.961 . S
H4063 C4047 0.960 . S
C4064 C4065 1.391 . S
C4064 C4066 1.394 . S
C4064 H4080 0.931 . S
C4065 C4064 1.391 . S
C4065 C4069 1.376 . S
C4066 C4064 1.394 . S
C4066 C4067 1.369 . S
C4066 C4070 1.531 . S
C4067 C4066 1.369 . S
C4067 C4068 1.410 . S
C4067 C4075 1.503 . S
C4068 C4067 1.410 . S
C4068 C4069 1.392 . S
C4068 C4071 1.511 . S
C4069 C4065 1.376 . S
C4069 C4068 1.392 . S
C4069 H4081 0.929 . S
C4070 C4066 1.531 . S
C4070 H4082 0.960 . S
C4070 H4083 0.962 . S
C4070 H4084 0.960 . S
C4071 C4068 1.511 . S
C4071 H4085 0.961 . S
C4071 H4086 0.961 . S
C4071 H4087 0.961 . S
C4072 C4073 1.370 . S
C4072 C4074 1.363 . S
C4072 H4088 0.931 . S
C4073 C4072 1.370 . S
C4073 C4077 1.408 . S
C4074 C4072 1.363 . S
C4074 C4075 1.370 . S
C4074 C4078 1.524 . S
C4075 C4067 1.503 . S
C4075 C4074 1.370 . S
C4075 C4076 1.403 . S
C4076 C4075 1.403 . S
C4076 C4077 1.404 . S
C4076 C4079 1.539 . S
C4077 C4073 1.408 . S
C4077 C4076 1.404 . S
C4077 H4089 0.930 . S
C4078 C4074 1.524 . S
C4078 H4090 0.956 . S
C4078 H4091 0.961 . S
C4078 H4092 0.961 . S
C4079 C4076 1.539 . S
C4079 H4093 0.958 . S
C4079 H4094 0.961 . S
C4079 H4095 0.960 . S
H4080 C4064 0.931 . S
H4081 C4069 0.929 . S
H4082 C4070 0.960 . S
H4083 C4070 0.962 . S
H4084 C4070 0.960 . S
H4085 C4071 0.961 . S
H4086 C4071 0.961 . S
H4087 C4071 0.961 . S
H4088 C4072 0.931 . S
H4089 C4077 0.930 . S
H4090 C4078 0.956 . S
H4091 C4078 0.961 . S
H4092 C4078 0.961 . S
H4093 C4079 0.958 . S
H4094 C4079 0.961 . S
H4095 C4079 0.960 . S
C4096 C4097 1.391 . S
C4096 C4098 1.394 . S
C4096 H4112 0.931 . S
C4097 C4096 1.391 . S
C4097 C4101 1.376 . S
C4098 C4096 1.394 . S
C4098 C4099 1.369 . S
C4098 C4102 1.531 . S
C4099 C4098 1.369 . S
C4099 C4100 1.410 . S
C4099 C4107 1.503 . S
C4100 C4099 1.410 . S
C4100 C4101 1.392 . S
C4100 C4103 1.511 . S
C4101 C4097 1.376 . S
C4101 C4100 1.392 . S
C4101 H4113 0.929 . S
C4102 C4098 1.531 . S
C4102 H4114 0.960 . S
C4102 H4115 0.962 . S
C4102 H4116 0.960 . S
C4103 C4100 1.511 . S
C4103 H4117 0.961 . S
C4103 H4118 0.961 . S
C4103 H4119 0.961 . S
C4104 C4105 1.370 . S
C4104 C4106 1.363 . S
C4104 H4120 0.931 . S
C4105 C4104 1.370 . S
C4105 C4109 1.408 . S
C4106 C4104 1.363 . S
C4106 C4107 1.370 . S
C4106 C4110 1.524 . S
C4107 C4099 1.503 . S
C4107 C4106 1.370 . S
C4107 C4108 1.403 . S
C4108 C4107 1.403 . S
C4108 C4109 1.404 . S
C4108 C4111 1.539 . S
C4109 C4105 1.408 . S
C4109 C4108 1.404 . S
C4109 H4121 0.930 . S
C4110 C4106 1.524 . S
C4110 H4122 0.956 . S
C4110 H4123 0.961 . S
C4110 H4124 0.961 . S
C4111 C4108 1.539 . S
C4111 H4125 0.958 . S
C4111 H4126 0.961 . S
C4111 H4127 0.960 . S
H4112 C4096 0.931 . S
H4113 C4101 0.929 . S
H4114 C4102 0.960 . S
H4115 C4102 0.962 . S
H4116 C4102 0.960 . S
H4117 C4103 0.961 . S
H4118 C4103 0.961 . S
H4119 C4103 0.961 . S
H4120 C4104 0.931 . S
H4121 C4109 0.930 . S
H4122 C4110 0.956 . S
H4123 C4110 0.961 . S
H4124 C4110 0.961 . S
H4125 C4111 0.958 . S
H4126 C4111 0.961 . S
H4127 C4111 0.960 . S
C4128 C4129 1.391 . S
C4128 C4130 1.394 . S
C4128 H4144 0.931 . S
C4129 C4128 1.391 . S
C4129 C4133 1.376 . S
C4130 C4128 1.394 . S
C4130 C4131 1.369 . S
C4130 C4134 1.531 . S
C4131 C4130 1.369 . S
C4131 C4132 1.410 . S
C4131 C4139 1.503 . S
C4132 C4131 1.410 . S
C4132 C4133 1.392 . S
C4132 C4135 1.511 . S
C4133 C4129 1.376 . S
C4133 C4132 1.392 . S
C4133 H4145 0.929 . S
C4134 C4130 1.531 . S
C4134 H4146 0.960 . S
C4134 H4147 0.962 . S
C4134 H4148 0.960 . S
C4135 C4132 1.511 . S
C4135 H4149 0.961 . S
C4135 H4150 0.961 . S
C4135 H4151 0.961 . S
C4136 C4137 1.370 . S
C4136 C4138 1.363 . S
C4136 H4152 0.931 . S
C4137 C4136 1.370 . S
C4137 C4141 1.408 . S
C4138 C4136 1.363 . S
C4138 C4139 1.370 . S
C4138 C4142 1.524 . S
C4139 C4131 1.503 . S
C4139 C4138 1.370 . S
C4139 C4140 1.403 . S
C4140 C4139 1.403 . S
C4140 C4141 1.404 . S
C4140 C4143 1.539 . S
C4141 C4137 1.408 . S
C4141 C4140 1.404 . S
C4141 H4153 0.930 . S
C4142 C4138 1.524 . S
C4142 H4154 0.956 . S
C4142 H4155 0.961 . S
C4142 H4156 0.961 . S
C4143 C4140 1.539 . S
C4143 H4157 0.958 . S
C4143 H4158 0.961 . S
C4143 H4159 0.960 . S
H4144 C4128 0.931 . S
H4145 C4133 0.929 . S
H4146 C4134 0.960 . S
H4147 C4134 0.962 . S
H4148 C4134 0.960 . S
H4149 C4135 0.961 . S
H4150 C4135 0.961 . S
H4151 C4135 0.961 . S
H4152 C4136 0.931 . S
H4153 C4141 0.930 . S
H4154 C4142 0.956 . S
H4155 C4142 0.961 . S
H4156 C4142 0.961 . S
H4157 C4143 0.958 . S
H4158 C4143 0.961 . S
H4159 C4143 0.960 . S
C4160 C4161 1.391 . S
C4160 C4162 1.394 . S
C4160 H4176 0.931 . S
C4161 C4160 1.391 . S
C4161 C4165 1.376 . S
C4162 C4160 1.394 . S
C4162 C4163 1.369 . S
C4162 C4166 1.531 . S
C4163 C4162 1.369 . S
C4163 C4164 1.410 . S
C4163 C4171 1.503 . S
C4164 C4163 1.410 . S
C4164 C4165 1.392 . S
C4164 C4167 1.511 . S
C4165 C4161 1.376 . S
C4165 C4164 1.392 . S
C4165 H4177 0.929 . S
C4166 C4162 1.531 . S
C4166 H4178 0.960 . S
C4166 H4179 0.962 . S
C4166 H4180 0.960 . S
C4167 C4164 1.511 . S
C4167 H4181 0.961 . S
C4167 H4182 0.961 . S
C4167 H4183 0.961 . S
C4168 C4169 1.370 . S
C4168 C4170 1.363 . S
C4168 H4184 0.931 . S
C4169 C4168 1.370 . S
C4169 C4173 1.408 . S
C4170 C4168 1.363 . S
C4170 C4171 1.370 . S
C4170 C4174 1.524 . S
C4171 C4163 1.503 . S
C4171 C4170 1.370 . S
C4171 C4172 1.403 . S
C4172 C4171 1.403 . S
C4172 C4173 1.404 . S
C4172 C4175 1.539 . S
C4173 C4169 1.408 . S
C4173 C4172 1.404 . S
C4173 H4185 0.930 . S
C4174 C4170 1.524 . S
C4174 H4186 0.956 . S
C4174 H4187 0.961 . S
C4174 H4188 0.961 . S
C4175 C4172 1.539 . S
C4175 H4189 0.958 . S
C4175 H4190 0.961 . S
C4175 H4191 0.960 . S
H4176 C4160 0.931 . S
H4177 C4165 0.929 . S
H4178 C4166 0.960 . S
H4179 C4166 0.962 . S
H4180 C4166 0.960 . S
H4181 C4167 0.961 . S
H4182 C4167 0.961 . S
H4183 C4167 0.961 . S
H4184 C4168 0.931 . S
H4185 C4173 0.930 . S
H4186 C4174 0.956 . S
H4187 C4174 0.961 . S
H4188 C4174 0.961 . S
H4189 C4175 0.958 . S
H4190 C4175 0.961 . S
H4191 C4175 0.960 . S
C4192 C4193 1.391 . S
C4192 C4194 1.394 . S
C4192 H4208 0.931 . S
C4193 C4192 1.391 . S
C4193 C4197 1.376 . S
C4194 C4192 1.394 . S
C4194 C4195 1.369 . S
C4194 C4198 1.531 . S
C4195 C4194 1.369 . S
C4195 C4196 1.410 . S
C4195 C4203 1.503 . S
C4196 C4195 1.410 . S
C4196 C4197 1.392 . S
C4196 C4199 1.511 . S
C4197 C4193 1.376 . S
C4197 C4196 1.392 . S
C4197 H4209 0.929 . S
C4198 C4194 1.531 . S
C4198 H4210 0.960 . S
C4198 H4211 0.962 . S
C4198 H4212 0.960 . S
C4199 C4196 1.511 . S
C4199 H4213 0.961 . S
C4199 H4214 0.961 . S
C4199 H4215 0.961 . S
C4200 C4201 1.370 . S
C4200 C4202 1.363 . S
C4200 H4216 0.931 . S
C4201 C4200 1.370 . S
C4201 C4205 1.408 . S
C4202 C4200 1.363 . S
C4202 C4203 1.370 . S
C4202 C4206 1.524 . S
C4203 C4195 1.503 . S
C4203 C4202 1.370 . S
C4203 C4204 1.403 . S
C4204 C4203 1.403 . S
C4204 C4205 1.404 . S
C4204 C4207 1.539 . S
C4205 C4201 1.408 . S
C4205 C4204 1.404 . S
C4205 H4217 0.930 . S
C4206 C4202 1.524 . S
C4206 H4218 0.956 . S
C4206 H4219 0.961 . S
C4206 H4220 0.961 . S
C4207 C4204 1.539 . S
C4207 H4221 0.958 . S
C4207 H4222 0.961 . S
C4207 H4223 0.960 . S
H4208 C4192 0.931 . S
H4209 C4197 0.929 . S
H4210 C4198 0.960 . S
H4211 C4198 0.962 . S
H4212 C4198 0.960 . S
H4213 C4199 0.961 . S
H4214 C4199 0.961 . S
H4215 C4199 0.961 . S
H4216 C4200 0.931 . S
H4217 C4205 0.930 . S
H4218 C4206 0.956 . S
H4219 C4206 0.961 . S
H4220 C4206 0.961 . S
H4221 C4207 0.958 . S
H4222 C4207 0.961 . S
H4223 C4207 0.960 . S
C4224 C4225 1.391 . S
C4224 C4226 1.394 . S
C4224 H4240 0.931 . S
C4225 C4224 1.391 . S
C4225 C4229 1.376 . S
C4226 C4224 1.394 . S
C4226 C4227 1.369 . S
C4226 C4230 1.531 . S
C4227 C4226 1.369 . S
C4227 C4228 1.410 . S
C4227 C4235 1.503 . S
C4228 C4227 1.410 . S
C4228 C4229 1.392 . S
C4228 C4231 1.511 . S
C4229 C4225 1.376 . S
C4229 C4228 1.392 . S
C4229 H4241 0.929 . S
C4230 C4226 1.531 . S
C4230 H4242 0.960 . S
C4230 H4243 0.962 . S
C4230 H4244 0.963 . S
C4231 C4228 1.511 . S
C4231 H4245 0.961 . S
C4231 H4246 0.961 . S
C4231 H4247 0.961 . S
C4232 C4233 1.370 . S
C4232 C4234 1.363 . S
C4232 H4248 0.931 . S
C4233 C4232 1.370 . S
C4233 C4237 1.408 . S
C4234 C4232 1.363 . S
C4234 C4235 1.370 . S
C4234 C4238 1.524 . S
C4235 C4227 1.503 . S
C4235 C4234 1.370 . S
C4235 C4236 1.403 . S
C4236 C4235 1.403 . S
C4236 C4237 1.404 . S
C4236 C4239 1.539 . S
C4237 C4233 1.408 . S
C4237 C4236 1.404 . S
C4237 H4249 0.930 . S
C4238 C4234 1.524 . S
C4238 H4250 0.956 . S
C4238 H4251 0.961 . S
C4238 H4252 0.961 1_554 S
C4239 C4236 1.539 . S
C4239 H4253 0.958 . S
C4239 H4254 0.961 . S
C4239 H4255 0.960 . S
H4240 C4224 0.931 . S
H4241 C4229 0.929 . S
H4242 C4230 0.960 . S
H4243 C4230 0.962 . S
H4244 C4230 0.963 . S
H4245 C4231 0.961 . S
H4246 C4231 0.961 . S
H4247 C4231 0.961 . S
H4248 C4232 0.931 . S
H4249 C4237 0.930 . S
H4250 C4238 0.956 . S
H4251 C4238 0.961 . S
H4252 C4238 0.961 1_556 S
H4253 C4239 0.958 . S
H4254 C4239 0.961 . S
H4255 C4239 0.960 . S
C4256 C4257 1.391 . S
C4256 C4258 1.394 . S
C4256 H4272 0.931 . S
C4257 C4256 1.391 . S
C4257 C4261 1.376 . S
C4258 C4256 1.394 . S
C4258 C4259 1.369 . S
C4258 C4262 1.531 . S
C4259 C4258 1.369 . S
C4259 C4260 1.410 . S
C4259 C4267 1.503 . S
C4260 C4259 1.410 . S
C4260 C4261 1.392 . S
C4260 C4263 1.511 . S
C4261 C4257 1.376 . S
C4261 C4260 1.392 . S
C4261 H4273 0.929 . S
C4262 C4258 1.531 . S
C4262 H4274 0.960 . S
C4262 H4275 0.962 . S
C4262 H4276 0.960 . S
C4263 C4260 1.511 . S
C4263 H4277 0.961 . S
C4263 H4278 0.961 . S
C4263 H4279 0.961 . S
C4264 C4265 1.370 . S
C4264 C4266 1.363 . S
C4264 H4280 0.931 . S
C4265 C4264 1.370 . S
C4265 C4269 1.408 . S
C4266 C4264 1.363 . S
C4266 C4267 1.370 . S
C4266 C4270 1.524 . S
C4267 C4259 1.503 . S
C4267 C4266 1.370 . S
C4267 C4268 1.403 . S
C4268 C4267 1.403 . S
C4268 C4269 1.404 . S
C4268 C4271 1.539 . S
C4269 C4265 1.408 . S
C4269 C4268 1.404 . S
C4269 H4281 0.930 . S
C4270 C4266 1.524 . S
C4270 H4282 0.956 . S
C4270 H4283 0.961 . S
C4270 H4284 0.961 . S
C4271 C4268 1.539 . S
C4271 H4285 0.958 . S
C4271 H4286 0.961 . S
C4271 H4287 0.960 . S
H4272 C4256 0.931 . S
H4273 C4261 0.929 . S
H4274 C4262 0.960 . S
H4275 C4262 0.962 . S
H4276 C4262 0.960 . S
H4277 C4263 0.961 . S
H4278 C4263 0.961 . S
H4279 C4263 0.961 . S
H4280 C4264 0.931 . S
H4281 C4269 0.930 . S
H4282 C4270 0.956 . S
H4283 C4270 0.961 . S
H4284 C4270 0.961 . S
H4285 C4271 0.958 . S
H4286 C4271 0.961 . S
H4287 C4271 0.960 . S
C4288 C4289 1.391 . S
C4288 C4290 1.394 . S
C4288 H4304 0.931 . S
C4289 C4288 1.391 . S
C4289 C4293 1.376 . S
C4290 C4288 1.394 . S
C4290 C4291 1.369 . S
C4290 C4294 1.531 . S
C4291 C4290 1.369 . S
C4291 C4292 1.410 . S
C4291 C4299 1.503 . S
C4292 C4291 1.410 . S
C4292 C4293 1.392 . S
C4292 C4295 1.511 . S
C4293 C4289 1.376 . S
C4293 C4292 1.392 . S
C4293 H4305 0.929 . S
C4294 C4290 1.531 . S
C4294 H4306 0.960 . S
C4294 H4307 0.962 . S
C4294 H4308 0.960 . S
C4295 C4292 1.511 . S
C4295 H4309 0.961 . S
C4295 H4310 0.961 . S
C4295 H4311 0.961 . S
C4296 C4297 1.370 . S
C4296 C4298 1.363 . S
C4296 H4312 0.931 . S
C4297 C4296 1.370 . S
C4297 C4301 1.408 . S
C4298 C4296 1.363 . S
C4298 C4299 1.370 . S
C4298 C4302 1.524 . S
C4299 C4291 1.503 . S
C4299 C4298 1.370 . S
C4299 C4300 1.403 . S
C4300 C4299 1.403 . S
C4300 C4301 1.404 . S
C4300 C4303 1.539 . S
C4301 C4297 1.408 . S
C4301 C4300 1.404 . S
C4301 H4313 0.930 . S
C4302 C4298 1.524 . S
C4302 H4314 0.956 . S
C4302 H4315 0.961 . S
C4302 H4316 0.961 . S
C4303 C4300 1.539 . S
C4303 H4317 0.958 . S
C4303 H4318 0.961 . S
C4303 H4319 0.960 . S
H4304 C4288 0.931 . S
H4305 C4293 0.929 . S
H4306 C4294 0.960 . S
H4307 C4294 0.962 . S
H4308 C4294 0.960 . S
H4309 C4295 0.961 . S
H4310 C4295 0.961 . S
H4311 C4295 0.961 . S
H4312 C4296 0.931 . S
H4313 C4301 0.930 . S
H4314 C4302 0.956 . S
H4315 C4302 0.961 . S
H4316 C4302 0.961 . S
H4317 C4303 0.958 . S
H4318 C4303 0.961 . S
H4319 C4303 0.960 . S
C4320 C4321 1.391 . S
C4320 C4322 1.394 . S
C4320 H4336 0.931 . S
C4321 C4320 1.391 . S
C4321 C4325 1.376 . S
C4322 C4320 1.394 . S
C4322 C4323 1.369 . S
C4322 C4326 1.531 . S
C4323 C4322 1.369 . S
C4323 C4324 1.410 . S
C4323 C4331 1.503 . S
C4324 C4323 1.410 . S
C4324 C4325 1.392 . S
C4324 C4327 1.511 . S
C4325 C4321 1.376 . S
C4325 C4324 1.392 . S
C4325 H4337 0.929 . S
C4326 C4322 1.531 . S
C4326 H4338 0.960 . S
C4326 H4339 0.962 . S
C4326 H4340 0.960 . S
C4327 C4324 1.511 . S
C4327 H4341 0.961 . S
C4327 H4342 0.961 . S
C4327 H4343 0.961 . S
C4328 C4329 1.370 . S
C4328 C4330 1.363 . S
C4328 H4344 0.931 . S
C4329 C4328 1.370 . S
C4329 C4333 1.408 . S
C4330 C4328 1.363 . S
C4330 C4331 1.370 . S
C4330 C4334 1.524 . S
C4331 C4323 1.503 . S
C4331 C4330 1.370 . S
C4331 C4332 1.403 . S
C4332 C4331 1.403 . S
C4332 C4333 1.404 . S
C4332 C4335 1.539 . S
C4333 C4329 1.408 . S
C4333 C4332 1.404 . S
C4333 H4345 0.930 . S
C4334 C4330 1.524 . S
C4334 H4346 0.956 . S
C4334 H4347 0.961 . S
C4334 H4348 0.961 . S
C4335 C4332 1.539 . S
C4335 H4349 0.958 . S
C4335 H4350 0.961 . S
C4335 H4351 0.960 . S
H4336 C4320 0.931 . S
H4337 C4325 0.929 . S
H4338 C4326 0.960 . S
H4339 C4326 0.962 . S
H4340 C4326 0.960 . S
H4341 C4327 0.961 . S
H4342 C4327 0.961 . S
H4343 C4327 0.961 . S
H4344 C4328 0.931 . S
H4345 C4333 0.930 . S
H4346 C4334 0.956 . S
H4347 C4334 0.961 . S
H4348 C4334 0.961 . S
H4349 C4335 0.958 . S
H4350 C4335 0.961 . S
H4351 C4335 0.960 . S
C4352 C4353 1.391 . S
C4352 C4354 1.394 . S
C4352 H4368 0.931 . S
C4353 C4352 1.391 . S
C4353 C4357 1.376 . S
C4354 C4352 1.394 . S
C4354 C4355 1.369 . S
C4354 C4358 1.531 . S
C4355 C4354 1.369 . S
C4355 C4356 1.410 . S
C4355 C4363 1.503 . S
C4356 C4355 1.410 . S
C4356 C4357 1.392 . S
C4356 C4359 1.511 1_455 S
C4357 C4353 1.376 . S
C4357 C4356 1.392 . S
C4357 H4369 0.929 . S
C4358 C4354 1.531 . S
C4358 H4370 0.960 . S
C4358 H4371 0.962 . S
C4358 H4372 0.960 . S
C4359 C4356 1.511 1_655 S
C4359 H4373 0.961 . S
C4359 H4374 0.961 . S
C4359 H4375 0.961 . S
C4360 C4361 1.370 . S
C4360 C4362 1.363 . S
C4360 H4376 0.931 . S
C4361 C4360 1.370 . S
C4361 C4365 1.408 . S
C4362 C4360 1.363 . S
C4362 C4363 1.370 . S
C4362 C4366 1.524 . S
C4363 C4355 1.503 . S
C4363 C4362 1.370 . S
C4363 C4364 1.403 . S
C4364 C4363 1.403 . S
C4364 C4365 1.404 . S
C4364 C4367 1.539 . S
C4365 C4361 1.408 . S
C4365 C4364 1.404 . S
C4365 H4377 0.930 . S
C4366 C4362 1.524 . S
C4366 H4378 0.956 . S
C4366 H4379 0.961 . S
C4366 H4380 0.961 . S
C4367 C4364 1.539 . S
C4367 H4381 0.958 . S
C4367 H4382 0.961 . S
C4367 H4383 0.960 . S
H4368 C4352 0.931 . S
H4369 C4357 0.929 . S
H4370 C4358 0.960 . S
H4371 C4358 0.962 . S
H4372 C4358 0.960 . S
H4373 C4359 0.961 . S
H4374 C4359 0.961 . S
H4375 C4359 0.961 . S
H4376 C4360 0.931 . S
H4377 C4365 0.930 . S
H4378 C4366 0.956 . S
H4379 C4366 0.961 . S
H4380 C4366 0.961 . S
H4381 C4367 0.958 . S
H4382 C4367 0.961 . S
H4383 C4367 0.960 . S
C4384 C4385 1.391 . S
C4384 C4386 1.394 . S
C4384 H4400 0.931 . S
C4385 C4384 1.391 . S
C4385 C4389 1.376 . S
C4386 C4384 1.394 . S
C4386 C4387 1.369 . S
C4386 C4390 1.531 . S
C4387 C4386 1.369 . S
C4387 C4388 1.410 . S
C4387 C4395 1.503 . S
C4388 C4387 1.410 . S
C4388 C4389 1.392 . S
C4388 C4391 1.511 . S
C4389 C4385 1.376 . S
C4389 C4388 1.392 . S
C4389 H4401 0.929 . S
C4390 C4386 1.531 . S
C4390 H4402 0.960 . S
C4390 H4403 0.962 . S
C4390 H4404 0.960 . S
C4391 C4388 1.511 . S
C4391 H4405 0.961 . S
C4391 H4406 0.961 . S
C4391 H4407 0.961 . S
C4392 C4393 1.370 . S
C4392 C4394 1.363 . S
C4392 H4408 0.931 . S
C4393 C4392 1.370 . S
C4393 C4397 1.408 . S
C4394 C4392 1.363 . S
C4394 C4395 1.370 . S
C4394 C4398 1.524 . S
C4395 C4387 1.503 . S
C4395 C4394 1.370 . S
C4395 C4396 1.403 . S
C4396 C4395 1.403 . S
C4396 C4397 1.404 . S
C4396 C4399 1.539 . S
C4397 C4393 1.408 . S
C4397 C4396 1.404 . S
C4397 H4409 0.930 . S
C4398 C4394 1.524 . S
C4398 H4410 0.956 . S
C4398 H4411 0.961 . S
C4398 H4412 0.961 . S
C4399 C4396 1.539 . S
C4399 H4413 0.958 . S
C4399 H4414 0.961 . S
C4399 H4415 0.960 . S
H4400 C4384 0.931 . S
H4401 C4389 0.929 . S
H4402 C4390 0.960 . S
H4403 C4390 0.962 . S
H4404 C4390 0.960 . S
H4405 C4391 0.961 . S
H4406 C4391 0.961 . S
H4407 C4391 0.961 . S
H4408 C4392 0.931 . S
H4409 C4397 0.930 . S
H4410 C4398 0.956 . S
H4411 C4398 0.961 . S
H4412 C4398 0.961 . S
H4413 C4399 0.958 . S
H4414 C4399 0.961 . S
H4415 C4399 0.960 . S
C4416 C4417 1.391 . S
C4416 C4418 1.394 . S
C4416 H4432 0.931 . S
C4417 C4416 1.391 . S
C4417 C4421 1.376 . S
C4418 C4416 1.394 . S
C4418 C4419 1.369 . S
C4418 C4422 1.531 . S
C4419 C4418 1.369 . S
C4419 C4420 1.410 . S
C4419 C4427 1.503 . S
C4420 C4419 1.410 . S
C4420 C4421 1.392 . S
C4420 C4423 1.511 . S
C4421 C4417 1.376 . S
C4421 C4420 1.392 . S
C4421 H4433 0.929 . S
C4422 C4418 1.531 . S
C4422 H4434 0.960 . S
C4422 H4435 0.962 . S
C4422 H4436 0.960 . S
C4423 C4420 1.511 . S
C4423 H4437 0.961 . S
C4423 H4438 0.961 . S
C4423 H4439 0.961 . S
C4424 C4425 1.370 . S
C4424 C4426 1.363 . S
C4424 H4440 0.931 1_556 S
C4425 C4424 1.370 . S
C4425 C4429 1.408 . S
C4426 C4424 1.363 . S
C4426 C4427 1.370 . S
C4426 C4430 1.524 . S
C4427 C4419 1.503 . S
C4427 C4426 1.370 . S
C4427 C4428 1.403 . S
C4428 C4427 1.403 . S
C4428 C4429 1.404 . S
C4428 C4431 1.539 . S
C4429 C4425 1.408 . S
C4429 C4428 1.404 . S
C4429 H4441 0.930 . S
C4430 C4426 1.524 . S
C4430 H4442 0.956 . S
C4430 H4443 0.961 . S
C4430 H4444 0.961 1_556 S
C4431 C4428 1.539 . S
C4431 H4445 0.958 . S
C4431 H4446 0.961 . S
C4431 H4447 0.960 . S
H4432 C4416 0.931 . S
H4433 C4421 0.929 . S
H4434 C4422 0.960 . S
H4435 C4422 0.962 . S
H4436 C4422 0.960 . S
H4437 C4423 0.961 . S
H4438 C4423 0.961 . S
H4439 C4423 0.961 . S
H4440 C4424 0.931 1_554 S
H4441 C4429 0.930 . S
H4442 C4430 0.956 . S
H4443 C4430 0.961 . S
H4444 C4430 0.961 1_554 S
H4445 C4431 0.958 . S
H4446 C4431 0.961 . S
H4447 C4431 0.960 . S
C4448 C4449 1.391 . S
C4448 C4450 1.394 . S
C4448 H4464 0.931 . S
C4449 C4448 1.391 . S
C4449 C4453 1.376 . S
C4450 C4448 1.394 . S
C4450 C4451 1.369 . S
C4450 C4454 1.531 . S
C4451 C4450 1.369 . S
C4451 C4452 1.410 . S
C4451 C4459 1.503 . S
C4452 C4451 1.410 . S
C4452 C4453 1.392 . S
C4452 C4455 1.511 . S
C4453 C4449 1.376 . S
C4453 C4452 1.392 . S
C4453 H4465 0.929 . S
C4454 C4450 1.531 . S
C4454 H4466 0.960 . S
C4454 H4467 0.962 . S
C4454 H4468 0.960 . S
C4455 C4452 1.511 . S
C4455 H4469 0.961 . S
C4455 H4470 0.961 . S
C4455 H4471 0.961 . S
C4456 C4457 1.370 . S
C4456 C4458 1.363 . S
C4456 H4472 0.931 . S
C4457 C4456 1.370 . S
C4457 C4461 1.408 . S
C4458 C4456 1.363 . S
C4458 C4459 1.370 . S
C4458 C4462 1.524 . S
C4459 C4451 1.503 . S
C4459 C4458 1.370 . S
C4459 C4460 1.403 . S
C4460 C4459 1.403 . S
C4460 C4461 1.404 . S
C4460 C4463 1.539 . S
C4461 C4457 1.408 . S
C4461 C4460 1.404 . S
C4461 H4473 0.930 . S
C4462 C4458 1.524 . S
C4462 H4474 0.956 . S
C4462 H4475 0.961 . S
C4462 H4476 0.961 . S
C4463 C4460 1.539 . S
C4463 H4477 0.958 . S
C4463 H4478 0.961 . S
C4463 H4479 0.960 . S
H4464 C4448 0.931 . S
H4465 C4453 0.929 . S
H4466 C4454 0.960 . S
H4467 C4454 0.962 . S
H4468 C4454 0.960 . S
H4469 C4455 0.961 . S
H4470 C4455 0.961 . S
H4471 C4455 0.961 . S
H4472 C4456 0.931 . S
H4473 C4461 0.930 . S
H4474 C4462 0.956 . S
H4475 C4462 0.961 . S
H4476 C4462 0.961 . S
H4477 C4463 0.958 . S
H4478 C4463 0.961 . S
H4479 C4463 0.960 . S
C4480 C4481 1.391 . S
C4480 C4482 1.394 . S
C4480 H4496 0.931 . S
C4481 C4480 1.391 . S
C4481 C4485 1.376 . S
C4482 C4480 1.394 . S
C4482 C4483 1.369 . S
C4482 C4486 1.531 . S
C4483 C4482 1.369 . S
C4483 C4484 1.410 . S
C4483 C4491 1.503 . S
C4484 C4483 1.410 . S
C4484 C4485 1.392 . S
C4484 C4487 1.510 . S
C4485 C4481 1.376 . S
C4485 C4484 1.392 . S
C4485 H4497 0.929 . S
C4486 C4482 1.531 . S
C4486 H4498 0.960 . S
C4486 H4499 0.962 . S
C4486 H4500 0.960 . S
C4487 C4484 1.510 . S
C4487 H4501 0.963 1_545 S
C4487 H4502 0.962 1_545 S
C4487 H4503 0.959 . S
C4488 C4489 1.370 . S
C4488 C4490 1.363 . S
C4488 H4504 0.931 . S
C4489 C4488 1.370 . S
C4489 C4493 1.408 . S
C4490 C4488 1.363 . S
C4490 C4491 1.370 . S
C4490 C4494 1.524 . S
C4491 C4483 1.503 . S
C4491 C4490 1.370 . S
C4491 C4492 1.403 . S
C4492 C4491 1.403 . S
C4492 C4493 1.404 . S
C4492 C4495 1.539 . S
C4493 C4489 1.408 . S
C4493 C4492 1.404 . S
C4493 H4505 0.930 . S
C4494 C4490 1.524 . S
C4494 H4506 0.956 . S
C4494 H4507 0.961 1_545 S
C4494 H4508 0.961 1_545 S
C4495 C4492 1.539 . S
C4495 H4509 0.958 . S
C4495 H4510 0.961 . S
C4495 H4511 0.960 . S
H4496 C4480 0.931 . S
H4497 C4485 0.929 . S
H4498 C4486 0.960 . S
H4499 C4486 0.962 . S
H4500 C4486 0.960 . S
H4501 C4487 0.963 1_565 S
H4502 C4487 0.962 1_565 S
H4503 C4487 0.959 . S
H4504 C4488 0.931 . S
H4505 C4493 0.930 . S
H4506 C4494 0.956 . S
H4507 C4494 0.961 1_565 S
H4508 C4494 0.961 1_565 S
H4509 C4495 0.958 . S
H4510 C4495 0.961 . S
H4511 C4495 0.960 . S
C4512 C4513 1.391 . S
C4512 C4514 1.394 . S
C4512 H4528 0.931 . S
C4513 C4512 1.391 . S
C4513 C4517 1.376 . S
C4514 C4512 1.394 . S
C4514 C4515 1.369 . S
C4514 C4518 1.531 . S
C4515 C4514 1.369 . S
C4515 C4516 1.410 . S
C4515 C4523 1.503 . S
C4516 C4515 1.410 . S
C4516 C4517 1.392 . S
C4516 C4519 1.511 . S
C4517 C4513 1.376 . S
C4517 C4516 1.392 . S
C4517 H4529 0.929 . S
C4518 C4514 1.531 . S
C4518 H4530 0.960 . S
C4518 H4531 0.962 . S
C4518 H4532 0.960 . S
C4519 C4516 1.511 . S
C4519 H4533 0.961 . S
C4519 H4534 0.961 . S
C4519 H4535 0.961 . S
C4520 C4521 1.370 . S
C4520 C4522 1.363 . S
C4520 H4536 0.931 . S
C4521 C4520 1.370 . S
C4521 C4525 1.408 . S
C4522 C4520 1.363 . S
C4522 C4523 1.370 . S
C4522 C4526 1.524 . S
C4523 C4515 1.503 . S
C4523 C4522 1.370 . S
C4523 C4524 1.403 . S
C4524 C4523 1.403 . S
C4524 C4525 1.404 . S
C4524 C4527 1.539 . S
C4525 C4521 1.408 . S
C4525 C4524 1.404 . S
C4525 H4537 0.930 . S
C4526 C4522 1.524 . S
C4526 H4538 0.956 . S
C4526 H4539 0.961 . S
C4526 H4540 0.961 . S
C4527 C4524 1.539 . S
C4527 H4541 0.958 . S
C4527 H4542 0.961 . S
C4527 H4543 0.960 . S
H4528 C4512 0.931 . S
H4529 C4517 0.929 . S
H4530 C4518 0.960 . S
H4531 C4518 0.962 . S
H4532 C4518 0.960 . S
H4533 C4519 0.961 . S
H4534 C4519 0.961 . S
H4535 C4519 0.961 . S
H4536 C4520 0.931 . S
H4537 C4525 0.930 . S
H4538 C4526 0.956 . S
H4539 C4526 0.961 . S
H4540 C4526 0.961 . S
H4541 C4527 0.958 . S
H4542 C4527 0.961 . S
H4543 C4527 0.960 . S
C4544 C4545 1.391 . S
C4544 C4546 1.394 . S
C4544 H4560 0.931 . S
C4545 C4544 1.391 . S
C4545 C4549 1.376 . S
C4546 C4544 1.394 . S
C4546 C4547 1.369 . S
C4546 C4550 1.531 . S
C4547 C4546 1.369 . S
C4547 C4548 1.410 . S
C4547 C4555 1.503 . S
C4548 C4547 1.410 . S
C4548 C4549 1.392 . S
C4548 C4551 1.511 1_545 S
C4549 C4545 1.376 . S
C4549 C4548 1.392 . S
C4549 H4561 0.929 1_545 S
C4550 C4546 1.531 . S
C4550 H4562 0.960 . S
C4550 H4563 0.962 . S
C4550 H4564 0.960 . S
C4551 C4548 1.511 1_565 S
C4551 H4565 0.961 . S
C4551 H4566 0.961 . S
C4551 H4567 0.945 1_565 S
C4552 C4553 1.370 . S
C4552 C4554 1.363 . S
C4552 H4568 0.931 . S
C4553 C4552 1.370 . S
C4553 C4557 1.408 . S
C4554 C4552 1.363 . S
C4554 C4555 1.370 . S
C4554 C4558 1.524 . S
C4555 C4547 1.503 . S
C4555 C4554 1.370 . S
C4555 C4556 1.403 . S
C4556 C4555 1.403 . S
C4556 C4557 1.404 . S
C4556 C4559 1.539 . S
C4557 C4553 1.408 . S
C4557 C4556 1.404 . S
C4557 H4569 0.930 . S
C4558 C4554 1.524 . S
C4558 H4570 0.956 . S
C4558 H4571 0.961 1_545 S
C4558 H4572 0.961 1_545 S
C4559 C4556 1.539 . S
C4559 H4573 0.958 . S
C4559 H4574 0.961 . S
C4559 H4575 0.960 . S
H4560 C4544 0.931 . S
H4561 C4549 0.929 1_565 S
H4562 C4550 0.960 . S
H4563 C4550 0.962 . S
H4564 C4550 0.960 . S
H4565 C4551 0.961 . S
H4566 C4551 0.961 . S
H4567 C4551 0.945 1_545 S
H4568 C4552 0.931 . S
H4569 C4557 0.930 . S
H4570 C4558 0.956 . S
H4571 C4558 0.961 1_565 S
H4572 C4558 0.961 1_565 S
H4573 C4559 0.958 . S
H4574 C4559 0.961 . S
H4575 C4559 0.960 . S
C4576 C4577 1.391 . S
C4576 C4578 1.394 . S
C4576 H4592 0.931 . S
C4577 C4576 1.391 . S
C4577 C4581 1.376 . S
C4578 C4576 1.394 . S
C4578 C4579 1.369 . S
C4578 C4582 1.531 . S
C4579 C4578 1.369 . S
C4579 C4580 1.410 . S
C4579 C4587 1.503 . S
C4580 C4579 1.410 . S
C4580 C4581 1.392 . S
C4580 C4583 1.511 . S
C4581 C4577 1.376 . S
C4581 C4580 1.392 . S
C4581 H4593 0.929 . S
C4582 C4578 1.531 . S
C4582 H4594 0.960 . S
C4582 H4595 0.962 . S
C4582 H4596 0.960 . S
C4583 C4580 1.511 . S
C4583 H4597 0.961 . S
C4583 H4598 0.961 . S
C4583 H4599 0.961 . S
C4584 C4585 1.370 . S
C4584 C4586 1.363 . S
C4584 H4600 0.931 . S
C4585 C4584 1.370 . S
C4585 C4589 1.408 . S
C4586 C4584 1.363 . S
C4586 C4587 1.370 . S
C4586 C4590 1.524 . S
C4587 C4579 1.503 . S
C4587 C4586 1.370 . S
C4587 C4588 1.403 . S
C4588 C4587 1.403 . S
C4588 C4589 1.404 . S
C4588 C4591 1.539 . S
C4589 C4585 1.408 . S
C4589 C4588 1.404 . S
C4589 H4601 0.930 . S
C4590 C4586 1.524 . S
C4590 H4602 0.956 . S
C4590 H4603 0.961 . S
C4590 H4604 0.961 . S
C4591 C4588 1.539 . S
C4591 H4605 0.958 . S
C4591 H4606 0.961 . S
C4591 H4607 0.960 . S
H4592 C4576 0.931 . S
H4593 C4581 0.929 . S
H4594 C4582 0.960 . S
H4595 C4582 0.962 . S
H4596 C4582 0.960 . S
H4597 C4583 0.961 . S
H4598 C4583 0.961 . S
H4599 C4583 0.961 . S
H4600 C4584 0.931 . S
H4601 C4589 0.930 . S
H4602 C4590 0.956 . S
H4603 C4590 0.961 . S
H4604 C4590 0.961 . S
H4605 C4591 0.958 . S
H4606 C4591 0.961 . S
H4607 C4591 0.960 . S
C4608 C4609 1.391 . S
C4608 C4610 1.394 . S
C4608 H4624 0.931 . S
C4609 C4608 1.391 . S
C4609 C4613 1.376 . S
C4610 C4608 1.394 . S
C4610 C4611 1.369 . S
C4610 C4614 1.531 . S
C4611 C4610 1.369 . S
C4611 C4612 1.410 . S
C4611 C4619 1.503 . S
C4612 C4611 1.410 . S
C4612 C4613 1.392 . S
C4612 C4615 1.511 . S
C4613 C4609 1.376 . S
C4613 C4612 1.392 . S
C4613 H4625 0.929 . S
C4614 C4610 1.531 . S
C4614 H4626 0.960 . S
C4614 H4627 0.962 . S
C4614 H4628 0.960 . S
C4615 C4612 1.511 . S
C4615 H4629 0.961 . S
C4615 H4630 0.961 . S
C4615 H4631 0.961 . S
C4616 C4617 1.370 . S
C4616 C4618 1.363 . S
C4616 H4632 0.935 . S
C4617 C4616 1.370 . S
C4617 C4621 1.408 . S
C4618 C4616 1.363 . S
C4618 C4619 1.370 . S
C4618 C4622 1.524 1_545 S
C4619 C4611 1.503 . S
C4619 C4618 1.370 . S
C4619 C4620 1.403 . S
C4620 C4619 1.403 . S
C4620 C4621 1.404 . S
C4620 C4623 1.539 . S
C4621 C4617 1.408 . S
C4621 C4620 1.404 . S
C4621 H4633 0.930 . S
C4622 C4618 1.524 1_565 S
C4622 H4634 0.956 . S
C4622 H4635 0.961 . S
C4622 H4636 0.961 . S
C4623 C4620 1.539 . S
C4623 H4637 0.958 . S
C4623 H4638 0.961 . S
C4623 H4639 0.960 . S
H4624 C4608 0.931 . S
H4625 C4613 0.929 . S
H4626 C4614 0.960 . S
H4627 C4614 0.962 . S
H4628 C4614 0.960 . S
H4629 C4615 0.961 . S
H4630 C4615 0.961 . S
H4631 C4615 0.961 . S
H4632 C4616 0.935 . S
H4633 C4621 0.930 . S
H4634 C4622 0.956 . S
H4635 C4622 0.961 . S
H4636 C4622 0.961 . S
H4637 C4623 0.958 . S
H4638 C4623 0.961 . S
H4639 C4623 0.960 . S
C4640 C4641 1.391 . S
C4640 C4642 1.394 . S
C4640 H4656 0.931 . S
C4641 C4640 1.391 . S
C4641 C4645 1.376 . S
C4642 C4640 1.394 . S
C4642 C4643 1.369 . S
C4642 C4646 1.531 . S
C4643 C4642 1.369 . S
C4643 C4644 1.410 . S
C4643 C4651 1.503 . S
C4644 C4643 1.410 . S
C4644 C4645 1.392 . S
C4644 C4647 1.511 . S
C4645 C4641 1.376 . S
C4645 C4644 1.392 . S
C4645 H4657 0.929 . S
C4646 C4642 1.531 . S
C4646 H4658 0.960 . S
C4646 H4659 0.962 . S
C4646 H4660 0.960 . S
C4647 C4644 1.511 . S
C4647 H4661 0.961 . S
C4647 H4662 0.961 . S
C4647 H4663 0.961 . S
C4648 C4649 1.370 . S
C4648 C4650 1.363 . S
C4648 H4664 0.931 . S
C4649 C4648 1.370 . S
C4649 C4653 1.408 . S
C4650 C4648 1.363 . S
C4650 C4651 1.370 . S
C4650 C4654 1.524 . S
C4651 C4643 1.503 . S
C4651 C4650 1.370 . S
C4651 C4652 1.403 . S
C4652 C4651 1.403 . S
C4652 C4653 1.404 . S
C4652 C4655 1.539 . S
C4653 C4649 1.408 . S
C4653 C4652 1.404 . S
C4653 H4665 0.930 . S
C4654 C4650 1.524 . S
C4654 H4666 0.956 . S
C4654 H4667 0.961 . S
C4654 H4668 0.961 . S
C4655 C4652 1.539 . S
C4655 H4669 0.958 . S
C4655 H4670 0.961 . S
C4655 H4671 0.960 . S
H4656 C4640 0.931 . S
H4657 C4645 0.929 . S
H4658 C4646 0.960 . S
H4659 C4646 0.962 . S
H4660 C4646 0.960 . S
H4661 C4647 0.961 . S
H4662 C4647 0.961 . S
H4663 C4647 0.961 . S
H4664 C4648 0.931 . S
H4665 C4653 0.930 . S
H4666 C4654 0.956 . S
H4667 C4654 0.961 . S
H4668 C4654 0.961 . S
H4669 C4655 0.958 . S
H4670 C4655 0.961 . S
H4671 C4655 0.960 . S
C4672 C4673 1.391 1_565 S
C4672 C4674 1.394 . S
C4672 H4688 0.931 . S
C4673 C4672 1.391 1_545 S
C4673 C4677 1.376 . S
C4674 C4672 1.394 . S
C4674 C4675 1.369 1_565 S
C4674 C4678 1.531 . S
C4675 C4674 1.369 1_545 S
C4675 C4676 1.410 . S
C4675 C4683 1.503 . S
C4676 C4675 1.410 . S
C4676 C4677 1.392 . S
C4676 C4679 1.511 . S
C4677 C4673 1.376 . S
C4677 C4676 1.392 . S
C4677 H4689 0.929 . S
C4678 C4674 1.531 . S
C4678 H4690 0.960 . S
C4678 H4691 0.962 . S
C4678 H4692 0.960 . S
C4679 C4676 1.511 . S
C4679 H4693 0.961 . S
C4679 H4694 0.961 . S
C4679 H4695 0.961 . S
C4680 C4681 1.370 . S
C4680 C4682 1.363 . S
C4680 H4696 0.931 . S
C4681 C4680 1.370 . S
C4681 C4685 1.408 . S
C4682 C4680 1.363 . S
C4682 C4683 1.370 . S
C4682 C4686 1.524 . S
C4683 C4675 1.503 . S
C4683 C4682 1.370 . S
C4683 C4684 1.403 . S
C4684 C4683 1.403 . S
C4684 C4685 1.404 . S
C4684 C4687 1.539 1_545 S
C4685 C4681 1.408 . S
C4685 C4684 1.404 . S
C4685 H4697 0.930 . S
C4686 C4682 1.524 . S
C4686 H4698 0.956 . S
C4686 H4699 0.961 . S
C4686 H4700 0.961 . S
C4687 C4684 1.539 1_565 S
C4687 H4701 0.958 . S
C4687 H4702 0.961 1_565 S
C4687 H4703 0.960 1_565 S
H4688 C4672 0.931 . S
H4689 C4677 0.929 . S
H4690 C4678 0.960 . S
H4691 C4678 0.962 . S
H4692 C4678 0.960 . S
H4693 C4679 0.961 . S
H4694 C4679 0.961 . S
H4695 C4679 0.961 . S
H4696 C4680 0.931 . S
H4697 C4685 0.930 . S
H4698 C4686 0.956 . S
H4699 C4686 0.961 . S
H4700 C4686 0.961 . S
H4701 C4687 0.958 . S
H4702 C4687 0.961 1_545 S
H4703 C4687 0.960 1_545 S
C4704 C4705 1.391 . S
C4704 C4706 1.394 . S
C4704 H4720 0.931 . S
C4705 C4704 1.391 . S
C4705 C4709 1.376 . S
C4706 C4704 1.394 . S
C4706 C4707 1.369 . S
C4706 C4710 1.531 . S
C4707 C4706 1.369 . S
C4707 C4708 1.410 . S
C4707 C4715 1.503 . S
C4708 C4707 1.410 . S
C4708 C4709 1.392 . S
C4708 C4711 1.511 . S
C4709 C4705 1.376 . S
C4709 C4708 1.392 . S
C4709 H4721 0.929 . S
C4710 C4706 1.531 . S
C4710 H4722 0.960 . S
C4710 H4723 0.962 . S
C4710 H4724 0.960 . S
C4711 C4708 1.511 . S
C4711 H4725 0.961 . S
C4711 H4726 0.961 . S
C4711 H4727 0.961 . S
C4712 C4713 1.370 . S
C4712 C4714 1.363 . S
C4712 H4728 0.931 . S
C4713 C4712 1.370 . S
C4713 C4717 1.408 . S
C4714 C4712 1.363 . S
C4714 C4715 1.370 . S
C4714 C4718 1.524 . S
C4715 C4707 1.503 . S
C4715 C4714 1.370 . S
C4715 C4716 1.403 . S
C4716 C4715 1.403 . S
C4716 C4717 1.404 . S
C4716 C4719 1.539 . S
C4717 C4713 1.408 . S
C4717 C4716 1.404 . S
C4717 H4729 0.930 . S
C4718 C4714 1.524 . S
C4718 H4730 0.956 . S
C4718 H4731 0.961 . S
C4718 H4732 0.961 . S
C4719 C4716 1.539 . S
C4719 H4733 0.958 . S
C4719 H4734 0.961 . S
C4719 H4735 0.960 . S
H4720 C4704 0.931 . S
H4721 C4709 0.929 . S
H4722 C4710 0.960 . S
H4723 C4710 0.962 . S
H4724 C4710 0.960 . S
H4725 C4711 0.961 . S
H4726 C4711 0.961 . S
H4727 C4711 0.961 . S
H4728 C4712 0.931 . S
H4729 C4717 0.930 . S
H4730 C4718 0.956 . S
H4731 C4718 0.961 . S
H4732 C4718 0.961 . S
H4733 C4719 0.958 . S
H4734 C4719 0.961 . S
H4735 C4719 0.960 . S
C4736 C4737 1.391 . S
C4736 C4738 1.394 . S
C4736 H4752 0.931 . S
C4737 C4736 1.391 . S
C4737 C4741 1.376 . S
C4738 C4736 1.394 . S
C4738 C4739 1.369 . S
C4738 C4742 1.531 . S
C4739 C4738 1.369 . S
C4739 C4740 1.410 . S
C4739 C4747 1.503 . S
C4740 C4739 1.410 . S
C4740 C4741 1.392 . S
C4740 C4743 1.518 . S
C4741 C4737 1.376 . S
C4741 C4740 1.392 . S
C4741 H4753 0.929 . S
C4742 C4738 1.531 . S
C4742 H4754 0.960 . S
C4742 H4755 0.962 . S
C4742 H4756 0.960 . S
C4743 C4740 1.518 . S
C4743 H4757 0.958 1_554 S
C4743 H4758 0.964 . S
C4743 H4759 0.957 1_554 S
C4744 C4745 1.370 . S
C4744 C4746 1.363 . S
C4744 H4760 0.931 . S
C4745 C4744 1.370 . S
C4745 C4749 1.408 . S
C4746 C4744 1.363 . S
C4746 C4747 1.370 . S
C4746 C4750 1.524 . S
C4747 C4739 1.503 . S
C4747 C4746 1.370 . S
C4747 C4748 1.403 . S
C4748 C4747 1.403 . S
C4748 C4749 1.404 . S
C4748 C4751 1.539 . S
C4749 C4745 1.408 . S
C4749 C4748 1.404 . S
C4749 H4761 0.930 . S
C4750 C4746 1.524 . S
C4750 H4762 0.956 . S
C4750 H4763 0.961 . S
C4750 H4764 0.961 . S
C4751 C4748 1.539 . S
C4751 H4765 0.958 . S
C4751 H4766 0.941 1_554 S
C4751 H4767 0.960 . S
H4752 C4736 0.931 . S
H4753 C4741 0.929 . S
H4754 C4742 0.960 . S
H4755 C4742 0.962 . S
H4756 C4742 0.960 . S
H4757 C4743 0.958 1_556 S
H4758 C4743 0.964 . S
H4759 C4743 0.957 1_556 S
H4760 C4744 0.931 . S
H4761 C4749 0.930 . S
H4762 C4750 0.956 . S
H4763 C4750 0.961 . S
H4764 C4750 0.961 . S
H4765 C4751 0.958 . S
H4766 C4751 0.941 1_556 S
H4767 C4751 0.960 . S
C4768 C4769 1.391 . S
C4768 C4770 1.394 . S
C4768 H4784 0.931 . S
C4769 C4768 1.391 . S
C4769 C4773 1.376 . S
C4770 C4768 1.394 . S
C4770 C4771 1.369 . S
C4770 C4774 1.531 . S
C4771 C4770 1.369 . S
C4771 C4772 1.410 . S
C4771 C4779 1.503 . S
C4772 C4771 1.410 . S
C4772 C4773 1.392 . S
C4772 C4775 1.511 . S
C4773 C4769 1.376 . S
C4773 C4772 1.392 . S
C4773 H4785 0.929 . S
C4774 C4770 1.531 . S
C4774 H4786 0.960 . S
C4774 H4787 0.962 . S
C4774 H4788 0.960 . S
C4775 C4772 1.511 . S
C4775 H4789 0.961 . S
C4775 H4790 0.961 . S
C4775 H4791 0.961 . S
C4776 C4777 1.370 . S
C4776 C4778 1.363 . S
C4776 H4792 0.931 . S
C4777 C4776 1.370 . S
C4777 C4781 1.408 . S
C4778 C4776 1.363 . S
C4778 C4779 1.370 . S
C4778 C4782 1.524 . S
C4779 C4771 1.503 . S
C4779 C4778 1.370 . S
C4779 C4780 1.403 . S
C4780 C4779 1.403 . S
C4780 C4781 1.404 . S
C4780 C4783 1.539 . S
C4781 C4777 1.408 . S
C4781 C4780 1.404 . S
C4781 H4793 0.930 . S
C4782 C4778 1.524 . S
C4782 H4794 0.956 . S
C4782 H4795 0.961 . S
C4782 H4796 0.961 1_554 S
C4783 C4780 1.539 . S
C4783 H4797 0.958 . S
C4783 H4798 0.961 . S
C4783 H4799 0.960 . S
H4784 C4768 0.931 . S
H4785 C4773 0.929 . S
H4786 C4774 0.960 . S
H4787 C4774 0.962 . S
H4788 C4774 0.960 . S
H4789 C4775 0.961 . S
H4790 C4775 0.961 . S
H4791 C4775 0.961 . S
H4792 C4776 0.931 . S
H4793 C4781 0.930 . S
H4794 C4782 0.956 . S
H4795 C4782 0.961 . S
H4796 C4782 0.961 1_556 S
H4797 C4783 0.958 . S
H4798 C4783 0.961 . S
H4799 C4783 0.960 . S
C4800 C4801 1.391 . S
C4800 C4802 1.394 . S
C4800 H4816 0.931 . S
C4801 C4800 1.391 . S
C4801 C4805 1.376 . S
C4802 C4800 1.394 . S
C4802 C4803 1.369 . S
C4802 C4806 1.531 . S
C4803 C4802 1.369 . S
C4803 C4804 1.410 . S
C4803 C4811 1.503 . S
C4804 C4803 1.410 . S
C4804 C4805 1.392 . S
C4804 C4807 1.511 . S
C4805 C4801 1.376 . S
C4805 C4804 1.392 . S
C4805 H4817 0.929 . S
C4806 C4802 1.531 . S
C4806 H4818 0.960 . S
C4806 H4819 0.962 . S
C4806 H4820 0.960 . S
C4807 C4804 1.511 . S
C4807 H4821 0.961 . S
C4807 H4822 0.961 . S
C4807 H4823 0.961 . S
C4808 C4809 1.370 . S
C4808 C4810 1.363 . S
C4808 H4824 0.931 . S
C4809 C4808 1.370 . S
C4809 C4813 1.408 . S
C4810 C4808 1.363 . S
C4810 C4811 1.370 . S
C4810 C4814 1.524 . S
C4811 C4803 1.503 . S
C4811 C4810 1.370 . S
C4811 C4812 1.403 . S
C4812 C4811 1.403 . S
C4812 C4813 1.404 . S
C4812 C4815 1.539 . S
C4813 C4809 1.408 . S
C4813 C4812 1.404 . S
C4813 H4825 0.930 . S
C4814 C4810 1.524 . S
C4814 H4826 0.956 . S
C4814 H4827 0.961 . S
C4814 H4828 0.961 . S
C4815 C4812 1.539 . S
C4815 H4829 0.958 . S
C4815 H4830 0.961 . S
C4815 H4831 0.960 . S
H4816 C4800 0.931 . S
H4817 C4805 0.929 . S
H4818 C4806 0.960 . S
H4819 C4806 0.962 . S
H4820 C4806 0.960 . S
H4821 C4807 0.961 . S
H4822 C4807 0.961 . S
H4823 C4807 0.961 . S
H4824 C4808 0.931 . S
H4825 C4813 0.930 . S
H4826 C4814 0.956 . S
H4827 C4814 0.961 . S
H4828 C4814 0.961 . S
H4829 C4815 0.958 . S
H4830 C4815 0.961 . S
H4831 C4815 0.960 . S
C4832 C4833 1.391 . S
C4832 C4834 1.394 . S
C4832 H4848 0.931 . S
C4833 C4832 1.391 . S
C4833 C4837 1.376 . S
C4834 C4832 1.394 . S
C4834 C4835 1.369 . S
C4834 C4838 1.531 . S
C4835 C4834 1.369 . S
C4835 C4836 1.410 . S
C4835 C4843 1.503 . S
C4836 C4835 1.410 . S
C4836 C4837 1.392 . S
C4836 C4839 1.511 . S
C4837 C4833 1.376 . S
C4837 C4836 1.392 . S
C4837 H4849 0.929 . S
C4838 C4834 1.531 . S
C4838 H4850 0.960 . S
C4838 H4851 0.962 . S
C4838 H4852 0.960 . S
C4839 C4836 1.511 . S
C4839 H4853 0.961 . S
C4839 H4854 0.961 . S
C4839 H4855 0.961 . S
C4840 C4841 1.370 . S
C4840 C4842 1.363 . S
C4840 H4856 0.931 . S
C4841 C4840 1.370 . S
C4841 C4845 1.408 . S
C4842 C4840 1.363 . S
C4842 C4843 1.370 . S
C4842 C4846 1.524 . S
C4843 C4835 1.503 . S
C4843 C4842 1.370 . S
C4843 C4844 1.403 . S
C4844 C4843 1.403 . S
C4844 C4845 1.404 . S
C4844 C4847 1.539 . S
C4845 C4841 1.408 . S
C4845 C4844 1.404 . S
C4845 H4857 0.930 . S
C4846 C4842 1.524 . S
C4846 H4858 0.956 . S
C4846 H4859 0.961 . S
C4846 H4860 0.961 . S
C4847 C4844 1.539 . S
C4847 H4861 0.958 . S
C4847 H4862 0.961 . S
C4847 H4863 0.960 . S
H4848 C4832 0.931 . S
H4849 C4837 0.929 . S
H4850 C4838 0.960 . S
H4851 C4838 0.962 . S
H4852 C4838 0.960 . S
H4853 C4839 0.961 . S
H4854 C4839 0.961 . S
H4855 C4839 0.961 . S
H4856 C4840 0.931 . S
H4857 C4845 0.930 . S
H4858 C4846 0.956 . S
H4859 C4846 0.961 . S
H4860 C4846 0.961 . S
H4861 C4847 0.958 . S
H4862 C4847 0.961 . S
H4863 C4847 0.960 . S
C4864 C4865 1.391 . S
C4864 C4866 1.394 . S
C4864 H4880 0.931 . S
C4865 C4864 1.391 . S
C4865 C4869 1.376 . S
C4866 C4864 1.394 . S
C4866 C4867 1.369 . S
C4866 C4870 1.531 . S
C4867 C4866 1.369 . S
C4867 C4868 1.410 . S
C4867 C4875 1.503 . S
C4868 C4867 1.410 . S
C4868 C4869 1.392 . S
C4868 C4871 1.511 . S
C4869 C4865 1.376 . S
C4869 C4868 1.392 . S
C4869 H4881 0.929 . S
C4870 C4866 1.531 . S
C4870 H4882 0.960 . S
C4870 H4883 0.962 . S
C4870 H4884 0.960 . S
C4871 C4868 1.511 . S
C4871 H4885 0.961 . S
C4871 H4886 0.961 . S
C4871 H4887 0.961 . S
C4872 C4873 1.370 . S
C4872 C4874 1.363 . S
C4872 H4888 0.931 . S
C4873 C4872 1.370 . S
C4873 C4877 1.408 . S
C4874 C4872 1.363 . S
C4874 C4875 1.370 . S
C4874 C4878 1.524 . S
C4875 C4867 1.503 . S
C4875 C4874 1.370 . S
C4875 C4876 1.403 . S
C4876 C4875 1.403 . S
C4876 C4877 1.404 . S
C4876 C4879 1.539 . S
C4877 C4873 1.408 . S
C4877 C4876 1.404 . S
C4877 H4889 0.930 . S
C4878 C4874 1.524 . S
C4878 H4890 0.956 . S
C4878 H4891 0.961 . S
C4878 H4892 0.961 . S
C4879 C4876 1.539 . S
C4879 H4893 0.958 . S
C4879 H4894 0.961 . S
C4879 H4895 0.960 . S
H4880 C4864 0.931 . S
H4881 C4869 0.929 . S
H4882 C4870 0.960 . S
H4883 C4870 0.962 . S
H4884 C4870 0.960 . S
H4885 C4871 0.961 . S
H4886 C4871 0.961 . S
H4887 C4871 0.961 . S
H4888 C4872 0.931 . S
H4889 C4877 0.930 . S
H4890 C4878 0.956 . S
H4891 C4878 0.961 . S
H4892 C4878 0.961 . S
H4893 C4879 0.958 . S
H4894 C4879 0.961 . S
H4895 C4879 0.960 . S
C4896 C4897 1.391 . S
C4896 C4898 1.394 . S
C4896 H4912 0.931 . S
C4897 C4896 1.391 . S
C4897 C4901 1.376 . S
C4898 C4896 1.394 . S
C4898 C4899 1.369 . S
C4898 C4902 1.531 . S
C4899 C4898 1.369 . S
C4899 C4900 1.410 . S
C4899 C4907 1.503 . S
C4900 C4899 1.410 . S
C4900 C4901 1.392 . S
C4900 C4903 1.511 . S
C4901 C4897 1.376 . S
C4901 C4900 1.392 . S
C4901 H4913 0.929 . S
C4902 C4898 1.531 . S
C4902 H4914 0.960 . S
C4902 H4915 0.962 . S
C4902 H4916 0.960 . S
C4903 C4900 1.511 . S
C4903 H4917 0.961 . S
C4903 H4918 0.961 . S
C4903 H4919 0.961 . S
C4904 C4905 1.370 . S
C4904 C4906 1.363 . S
C4904 H4920 0.931 . S
C4905 C4904 1.370 . S
C4905 C4909 1.408 . S
C4906 C4904 1.363 . S
C4906 C4907 1.370 . S
C4906 C4910 1.524 . S
C4907 C4899 1.503 . S
C4907 C4906 1.370 . S
C4907 C4908 1.403 . S
C4908 C4907 1.403 . S
C4908 C4909 1.404 . S
C4908 C4911 1.539 . S
C4909 C4905 1.408 . S
C4909 C4908 1.404 . S
C4909 H4921 0.930 . S
C4910 C4906 1.524 . S
C4910 H4922 0.956 . S
C4910 H4923 0.961 . S
C4910 H4924 0.961 . S
C4911 C4908 1.539 . S
C4911 H4925 0.958 . S
C4911 H4926 0.957 . S
C4911 H4927 0.960 . S
H4912 C4896 0.931 . S
H4913 C4901 0.929 . S
H4914 C4902 0.960 . S
H4915 C4902 0.962 . S
H4916 C4902 0.960 . S
H4917 C4903 0.961 . S
H4918 C4903 0.961 . S
H4919 C4903 0.961 . S
H4920 C4904 0.931 . S
H4921 C4909 0.930 . S
H4922 C4910 0.956 . S
H4923 C4910 0.961 . S
H4924 C4910 0.961 . S
H4925 C4911 0.958 . S
H4926 C4911 0.957 . S
H4927 C4911 0.960 . S
C4928 C4929 1.391 . S
C4928 C4930 1.394 . S
C4928 H4944 0.931 . S
C4929 C4928 1.391 . S
C4929 C4933 1.376 . S
C4930 C4928 1.394 . S
C4930 C4931 1.369 . S
C4930 C4934 1.531 . S
C4931 C4930 1.369 . S
C4931 C4932 1.410 . S
C4931 C4939 1.503 . S
C4932 C4931 1.410 . S
C4932 C4933 1.392 . S
C4932 C4935 1.511 . S
C4933 C4929 1.376 . S
C4933 C4932 1.392 . S
C4933 H4945 0.929 . S
C4934 C4930 1.531 . S
C4934 H4946 0.960 . S
C4934 H4947 0.962 . S
C4934 H4948 0.960 . S
C4935 C4932 1.511 . S
C4935 H4949 0.961 . S
C4935 H4950 0.961 . S
C4935 H4951 0.961 . S
C4936 C4937 1.370 . S
C4936 C4938 1.363 . S
C4936 H4952 0.931 . S
C4937 C4936 1.370 . S
C4937 C4941 1.408 . S
C4938 C4936 1.363 . S
C4938 C4939 1.370 . S
C4938 C4942 1.524 . S
C4939 C4931 1.503 . S
C4939 C4938 1.370 . S
C4939 C4940 1.403 . S
C4940 C4939 1.403 . S
C4940 C4941 1.404 . S
C4940 C4943 1.539 . S
C4941 C4937 1.408 . S
C4941 C4940 1.404 . S
C4941 H4953 0.930 . S
C4942 C4938 1.524 . S
C4942 H4954 0.956 . S
C4942 H4955 0.961 . S
C4942 H4956 0.961 . S
C4943 C4940 1.539 . S
C4943 H4957 0.958 . S
C4943 H4958 0.961 . S
C4943 H4959 0.960 . S
H4944 C4928 0.931 . S
H4945 C4933 0.929 . S
H4946 C4934 0.960 . S
H4947 C4934 0.962 . S
H4948 C4934 0.960 . S
H4949 C4935 0.961 . S
H4950 C4935 0.961 . S
H4951 C4935 0.961 . S
H4952 C4936 0.931 . S
H4953 C4941 0.930 . S
H4954 C4942 0.956 . S
H4955 C4942 0.961 . S
H4956 C4942 0.961 . S
H4957 C4943 0.958 . S
H4958 C4943 0.961 . S
H4959 C4943 0.960 . S
C4960 C4961 1.391 . S
C4960 C4962 1.394 . S
C4960 H4976 0.931 . S
C4961 C4960 1.391 . S
C4961 C4965 1.376 . S
C4962 C4960 1.394 . S
C4962 C4963 1.369 . S
C4962 C4966 1.531 . S
C4963 C4962 1.369 . S
C4963 C4964 1.410 . S
C4963 C4971 1.503 . S
C4964 C4963 1.410 . S
C4964 C4965 1.392 . S
C4964 C4967 1.511 . S
C4965 C4961 1.376 . S
C4965 C4964 1.392 . S
C4965 H4977 0.929 . S
C4966 C4962 1.531 . S
C4966 H4978 0.960 . S
C4966 H4979 0.962 . S
C4966 H4980 0.960 . S
C4967 C4964 1.511 . S
C4967 H4981 0.961 . S
C4967 H4982 0.961 . S
C4967 H4983 0.961 . S
C4968 C4969 1.370 . S
C4968 C4970 1.363 . S
C4968 H4984 0.931 . S
C4969 C4968 1.370 . S
C4969 C4973 1.408 . S
C4970 C4968 1.363 . S
C4970 C4971 1.370 . S
C4970 C4974 1.524 . S
C4971 C4963 1.503 . S
C4971 C4970 1.370 . S
C4971 C4972 1.403 . S
C4972 C4971 1.403 . S
C4972 C4973 1.404 . S
C4972 C4975 1.539 . S
C4973 C4969 1.408 . S
C4973 C4972 1.404 . S
C4973 H4985 0.930 . S
C4974 C4970 1.524 . S
C4974 H4986 0.956 . S
C4974 H4987 0.961 . S
C4974 H4988 0.961 . S
C4975 C4972 1.539 . S
C4975 H4989 0.958 . S
C4975 H4990 0.961 . S
C4975 H4991 0.960 . S
H4976 C4960 0.931 . S
H4977 C4965 0.929 . S
H4978 C4966 0.960 . S
H4979 C4966 0.962 . S
H4980 C4966 0.960 . S
H4981 C4967 0.961 . S
H4982 C4967 0.961 . S
H4983 C4967 0.961 . S
H4984 C4968 0.931 . S
H4985 C4973 0.930 . S
H4986 C4974 0.956 . S
H4987 C4974 0.961 . S
H4988 C4974 0.961 . S
H4989 C4975 0.958 . S
H4990 C4975 0.961 . S
H4991 C4975 0.960 . S
C4992 C4993 1.391 . S
C4992 C4994 1.394 . S
C4992 H5008 0.931 . S
C4993 C4992 1.391 . S
C4993 C4997 1.376 . S
C4994 C4992 1.394 . S
C4994 C4995 1.369 . S
C4994 C4998 1.531 . S
C4995 C4994 1.369 . S
C4995 C4996 1.410 . S
C4995 C5003 1.503 . S
C4996 C4995 1.410 . S
C4996 C4997 1.392 . S
C4996 C4999 1.511 . S
C4997 C4993 1.376 . S
C4997 C4996 1.392 . S
C4997 H5009 0.929 . S
C4998 C4994 1.531 . S
C4998 H5010 0.960 . S
C4998 H5011 0.962 . S
C4998 H5012 0.960 . S
C4999 C4996 1.511 . S
C4999 H5013 0.961 . S
C4999 H5014 0.961 . S
C4999 H5015 0.961 . S
C5000 C5001 1.370 . S
C5000 C5002 1.363 . S
C5000 H5016 0.931 . S
C5001 C5000 1.370 . S
C5001 C5005 1.408 . S
C5002 C5000 1.363 . S
C5002 C5003 1.370 . S
C5002 C5006 1.524 . S
C5003 C4995 1.503 . S
C5003 C5002 1.370 . S
C5003 C5004 1.403 . S
C5004 C5003 1.403 . S
C5004 C5005 1.404 . S
C5004 C5007 1.539 . S
C5005 C5001 1.408 . S
C5005 C5004 1.404 . S
C5005 H5017 0.930 . S
C5006 C5002 1.524 . S
C5006 H5018 0.956 . S
C5006 H5019 0.961 . S
C5006 H5020 0.961 . S
C5007 C5004 1.539 . S
C5007 H5021 0.958 . S
C5007 H5022 0.961 . S
C5007 H5023 0.960 . S
H5008 C4992 0.931 . S
H5009 C4997 0.929 . S
H5010 C4998 0.960 . S
H5011 C4998 0.962 . S
H5012 C4998 0.960 . S
H5013 C4999 0.961 . S
H5014 C4999 0.961 . S
H5015 C4999 0.961 . S
H5016 C5000 0.931 . S
H5017 C5005 0.930 . S
H5018 C5006 0.956 . S
H5019 C5006 0.961 . S
H5020 C5006 0.961 . S
H5021 C5007 0.958 . S
H5022 C5007 0.961 . S
H5023 C5007 0.960 . S
C5024 C5025 1.391 . S
C5024 C5026 1.394 . S
C5024 H5040 0.931 . S
C5025 C5024 1.391 . S
C5025 C5029 1.376 . S
C5026 C5024 1.394 . S
C5026 C5027 1.369 . S
C5026 C5030 1.531 . S
C5027 C5026 1.369 . S
C5027 C5028 1.410 . S
C5027 C5035 1.503 . S
C5028 C5027 1.410 . S
C5028 C5029 1.392 . S
C5028 C5031 1.511 . S
C5029 C5025 1.376 . S
C5029 C5028 1.392 . S
C5029 H5041 0.929 . S
C5030 C5026 1.531 . S
C5030 H5042 0.960 . S
C5030 H5043 0.962 . S
C5030 H5044 0.960 . S
C5031 C5028 1.511 . S
C5031 H5045 0.961 . S
C5031 H5046 0.961 . S
C5031 H5047 0.961 . S
C5032 C5033 1.370 . S
C5032 C5034 1.363 . S
C5032 H5048 0.931 . S
C5033 C5032 1.370 . S
C5033 C5037 1.408 . S
C5034 C5032 1.363 . S
C5034 C5035 1.370 . S
C5034 C5038 1.524 . S
C5035 C5027 1.503 . S
C5035 C5034 1.370 . S
C5035 C5036 1.403 . S
C5036 C5035 1.403 . S
C5036 C5037 1.404 . S
C5036 C5039 1.539 . S
C5037 C5033 1.408 . S
C5037 C5036 1.404 . S
C5037 H5049 0.930 . S
C5038 C5034 1.524 . S
C5038 H5050 0.956 . S
C5038 H5051 0.961 . S
C5038 H5052 0.961 . S
C5039 C5036 1.539 . S
C5039 H5053 0.958 . S
C5039 H5054 0.961 . S
C5039 H5055 0.960 . S
H5040 C5024 0.931 . S
H5041 C5029 0.929 . S
H5042 C5030 0.960 . S
H5043 C5030 0.962 . S
H5044 C5030 0.960 . S
H5045 C5031 0.961 . S
H5046 C5031 0.961 . S
H5047 C5031 0.961 . S
H5048 C5032 0.931 . S
H5049 C5037 0.930 . S
H5050 C5038 0.956 . S
H5051 C5038 0.961 . S
H5052 C5038 0.961 . S
H5053 C5039 0.958 . S
H5054 C5039 0.961 . S
H5055 C5039 0.960 . S
C5056 C5057 1.391 1_556 S
C5056 C5058 1.394 . S
C5056 H5072 0.931 . S
C5057 C5056 1.391 1_554 S
C5057 C5061 1.376 . S
C5058 C5056 1.394 . S
C5058 C5059 1.369 1_556 S
C5058 C5062 1.531 . S
C5059 C5058 1.369 1_554 S
C5059 C5060 1.410 . S
C5059 C5067 1.503 . S
C5060 C5059 1.410 . S
C5060 C5061 1.392 . S
C5060 C5063 1.511 . S
C5061 C5057 1.376 . S
C5061 C5060 1.392 . S
C5061 H5073 0.929 . S
C5062 C5058 1.531 . S
C5062 H5074 0.960 . S
C5062 H5075 0.962 . S
C5062 H5076 0.960 . S
C5063 C5060 1.511 . S
C5063 H5077 0.961 . S
C5063 H5078 0.961 . S
C5063 H5079 0.961 1_455 S
C5064 C5065 1.370 . S
C5064 C5066 1.363 . S
C5064 H5080 0.931 . S
C5065 C5064 1.370 . S
C5065 C5069 1.377 1_455 S
C5066 C5064 1.363 . S
C5066 C5067 1.370 . S
C5066 C5070 1.524 . S
C5067 C5059 1.503 . S
C5067 C5066 1.370 . S
C5067 C5068 1.403 1_455 S
C5068 C5067 1.403 1_655 S
C5068 C5069 1.400 . S
C5068 C5071 1.539 . S
C5069 C5065 1.377 1_655 S
C5069 C5068 1.400 . S
C5069 H5081 0.965 . S
C5070 C5066 1.524 . S
C5070 H5082 0.956 . S
C5070 H5083 0.961 . S
C5070 H5084 0.961 . S
C5071 C5068 1.539 . S
C5071 H5085 0.958 1_554 S
C5071 H5086 0.961 . S
C5071 H5087 0.960 . S
H5072 C5056 0.931 . S
H5073 C5061 0.929 . S
H5074 C5062 0.960 . S
H5075 C5062 0.962 . S
H5076 C5062 0.960 . S
H5077 C5063 0.961 . S
H5078 C5063 0.961 . S
H5079 C5063 0.961 1_655 S
H5080 C5064 0.931 . S
H5081 C5069 0.965 . S
H5082 C5070 0.956 . S
H5083 C5070 0.961 . S
H5084 C5070 0.961 . S
H5085 C5071 0.958 1_556 S
H5086 C5071 0.961 . S
H5087 C5071 0.960 . S
C5088 C5089 1.391 . S
C5088 C5090 1.394 . S
C5088 H5104 0.931 . S
C5089 C5088 1.391 . S
C5089 C5093 1.376 . S
C5090 C5088 1.394 . S
C5090 C5091 1.369 . S
C5090 C5094 1.531 . S
C5091 C5090 1.369 . S
C5091 C5092 1.410 . S
C5091 C5099 1.503 . S
C5092 C5091 1.410 . S
C5092 C5093 1.392 . S
C5092 C5095 1.511 . S
C5093 C5089 1.376 . S
C5093 C5092 1.392 . S
C5093 H5105 0.929 . S
C5094 C5090 1.531 . S
C5094 H5106 0.960 . S
C5094 H5107 0.962 . S
C5094 H5108 0.960 . S
C5095 C5092 1.511 . S
C5095 H5109 0.961 . S
C5095 H5110 0.961 . S
C5095 H5111 0.961 . S
C5096 C5097 1.370 . S
C5096 C5098 1.363 . S
C5096 H5112 0.931 . S
C5097 C5096 1.370 . S
C5097 C5101 1.408 . S
C5098 C5096 1.363 . S
C5098 C5099 1.370 . S
C5098 C5102 1.524 . S
C5099 C5091 1.503 . S
C5099 C5098 1.370 . S
C5099 C5100 1.403 . S
C5100 C5099 1.403 . S
C5100 C5101 1.404 . S
C5100 C5103 1.539 . S
C5101 C5097 1.408 . S
C5101 C5100 1.404 . S
C5101 H5113 0.930 . S
C5102 C5098 1.524 . S
C5102 H5114 0.956 . S
C5102 H5115 0.961 . S
C5102 H5116 0.961 . S
C5103 C5100 1.539 . S
C5103 H5117 0.958 . S
C5103 H5118 0.961 . S
C5103 H5119 0.960 . S
H5104 C5088 0.931 . S
H5105 C5093 0.929 . S
H5106 C5094 0.960 . S
H5107 C5094 0.962 . S
H5108 C5094 0.960 . S
H5109 C5095 0.961 . S
H5110 C5095 0.961 . S
H5111 C5095 0.961 . S
H5112 C5096 0.931 . S
H5113 C5101 0.930 . S
H5114 C5102 0.956 . S
H5115 C5102 0.961 . S
H5116 C5102 0.961 . S
H5117 C5103 0.958 . S
H5118 C5103 0.961 . S
H5119 C5103 0.960 . S
C5120 C5121 1.391 . S
C5120 C5122 1.394 . S
C5120 H5136 0.931 . S
C5121 C5120 1.391 . S
C5121 C5125 1.376 . S
C5122 C5120 1.394 . S
C5122 C5123 1.369 . S
C5122 C5126 1.531 . S
C5123 C5122 1.369 . S
C5123 C5124 1.410 . S
C5123 C5131 1.503 . S
C5124 C5123 1.410 . S
C5124 C5125 1.392 . S
C5124 C5127 1.511 . S
C5125 C5121 1.376 . S
C5125 C5124 1.392 . S
C5125 H5137 0.929 . S
C5126 C5122 1.531 . S
C5126 H5138 0.960 . S
C5126 H5139 0.962 . S
C5126 H5140 0.960 . S
C5127 C5124 1.511 . S
C5127 H5141 0.961 . S
C5127 H5142 0.961 . S
C5127 H5143 0.961 . S
C5128 C5129 1.370 . S
C5128 C5130 1.363 . S
C5128 H5144 0.931 . S
C5129 C5128 1.370 . S
C5129 C5133 1.408 . S
C5130 C5128 1.363 . S
C5130 C5131 1.370 . S
C5130 C5134 1.524 . S
C5131 C5123 1.503 . S
C5131 C5130 1.370 . S
C5131 C5132 1.403 . S
C5132 C5131 1.403 . S
C5132 C5133 1.404 . S
C5132 C5135 1.539 . S
C5133 C5129 1.408 . S
C5133 C5132 1.404 . S
C5133 H5145 0.930 . S
C5134 C5130 1.524 . S
C5134 H5146 0.956 . S
C5134 H5147 0.961 . S
C5134 H5148 0.961 . S
C5135 C5132 1.539 . S
C5135 H5149 0.958 . S
C5135 H5150 0.961 . S
C5135 H5151 0.960 . S
H5136 C5120 0.931 . S
H5137 C5125 0.929 . S
H5138 C5126 0.960 . S
H5139 C5126 0.962 . S
H5140 C5126 0.960 . S
H5141 C5127 0.961 . S
H5142 C5127 0.961 . S
H5143 C5127 0.961 . S
H5144 C5128 0.931 . S
H5145 C5133 0.930 . S
H5146 C5134 0.956 . S
H5147 C5134 0.961 . S
H5148 C5134 0.961 . S
H5149 C5135 0.958 . S
H5150 C5135 0.961 . S
H5151 C5135 0.960 . S
C5152 C5153 1.391 . S
C5152 C5154 1.394 . S
C5152 H5168 0.931 . S
C5153 C5152 1.391 . S
C5153 C5157 1.376 . S
C5154 C5152 1.394 . S
C5154 C5155 1.369 . S
C5154 C5158 1.531 . S
C5155 C5154 1.369 . S
C5155 C5156 1.410 . S
C5155 C5163 1.503 . S
C5156 C5155 1.410 . S
C5156 C5157 1.392 . S
C5156 C5159 1.511 . S
C5157 C5153 1.376 . S
C5157 C5156 1.392 . S
C5157 H5169 0.929 . S
C5158 C5154 1.531 . S
C5158 H5170 0.960 . S
C5158 H5171 0.962 . S
C5158 H5172 0.960 . S
C5159 C5156 1.511 . S
C5159 H5173 0.961 . S
C5159 H5174 0.961 . S
C5159 H5175 0.961 . S
C5160 C5161 1.370 . S
C5160 C5162 1.363 . S
C5160 H5176 0.931 . S
C5161 C5160 1.370 . S
C5161 C5165 1.408 . S
C5162 C5160 1.363 . S
C5162 C5163 1.370 . S
C5162 C5166 1.524 . S
C5163 C5155 1.503 . S
C5163 C5162 1.370 . S
C5163 C5164 1.403 . S
C5164 C5163 1.403 . S
C5164 C5165 1.404 . S
C5164 C5167 1.539 . S
C5165 C5161 1.408 . S
C5165 C5164 1.404 . S
C5165 H5177 0.930 . S
C5166 C5162 1.524 . S
C5166 H5178 0.956 . S
C5166 H5179 0.961 . S
C5166 H5180 0.961 . S
C5167 C5164 1.539 . S
C5167 H5181 0.958 . S
C5167 H5182 0.961 . S
C5167 H5183 0.960 . S
H5168 C5152 0.931 . S
H5169 C5157 0.929 . S
H5170 C5158 0.960 . S
H5171 C5158 0.962 . S
H5172 C5158 0.960 . S
H5173 C5159 0.961 . S
H5174 C5159 0.961 . S
H5175 C5159 0.961 . S
H5176 C5160 0.931 . S
H5177 C5165 0.930 . S
H5178 C5166 0.956 . S
H5179 C5166 0.961 . S
H5180 C5166 0.961 . S
H5181 C5167 0.958 . S
H5182 C5167 0.961 . S
H5183 C5167 0.960 . S
C5184 C5185 1.391 . S
C5184 C5186 1.394 . S
C5184 H5200 0.931 . S
C5185 C5184 1.391 . S
C5185 C5189 1.376 1_455 S
C5186 C5184 1.394 . S
C5186 C5187 1.369 . S
C5186 C5190 1.531 . S
C5187 C5186 1.369 . S
C5187 C5188 1.410 . S
C5187 C5195 1.503 . S
C5188 C5187 1.410 . S
C5188 C5189 1.394 1_455 S
C5188 C5191 1.511 1_455 S
C5189 C5185 1.376 1_655 S
C5189 C5188 1.394 1_655 S
C5189 H5201 0.927 . S
C5190 C5186 1.531 . S
C5190 H5202 0.960 . S
C5190 H5203 0.962 . S
C5190 H5204 0.960 . S
C5191 C5188 1.511 1_655 S
C5191 H5205 0.961 1_655 S
C5191 H5206 0.961 1_655 S
C5191 H5207 0.961 . S
C5192 C5193 1.370 . S
C5192 C5194 1.363 . S
C5192 H5208 0.931 . S
C5193 C5192 1.370 . S
C5193 C5197 1.408 1_455 S
C5194 C5192 1.363 . S
C5194 C5195 1.370 . S
C5194 C5198 1.524 . S
C5195 C5187 1.503 . S
C5195 C5194 1.370 . S
C5195 C5196 1.403 1_455 S
C5196 C5195 1.403 1_655 S
C5196 C5197 1.404 . S
C5196 C5199 1.539 . S
C5197 C5193 1.408 1_655 S
C5197 C5196 1.404 . S
C5197 H5209 0.930 . S
C5198 C5194 1.524 . S
C5198 H5210 0.956 . S
C5198 H5211 0.961 . S
C5198 H5212 0.961 . S
C5199 C5196 1.539 . S
C5199 H5213 0.958 . S
C5199 H5214 0.961 . S
C5199 H5215 0.960 . S
H5200 C5184 0.931 . S
H5201 C5189 0.927 . S
H5202 C5190 0.960 . S
H5203 C5190 0.962 . S
H5204 C5190 0.960 . S
H5205 C5191 0.961 1_455 S
H5206 C5191 0.961 1_455 S
H5207 C5191 0.961 . S
H5208 C5192 0.931 . S
H5209 C5197 0.930 . S
H5210 C5198 0.956 . S
H5211 C5198 0.961 . S
H5212 C5198 0.961 . S
H5213 C5199 0.958 . S
H5214 C5199 0.961 . S
H5215 C5199 0.960 . S
C5216 C5217 1.391 . S
C5216 C5218 1.394 . S
C5216 H5232 0.931 . S
C5217 C5216 1.391 . S
C5217 C5221 1.376 . S
C5218 C5216 1.394 . S
C5218 C5219 1.369 . S
C5218 C5222 1.531 . S
C5219 C5218 1.369 . S
C5219 C5220 1.410 . S
C5219 C5227 1.503 . S
C5220 C5219 1.410 . S
C5220 C5221 1.392 . S
C5220 C5223 1.511 . S
C5221 C5217 1.376 . S
C5221 C5220 1.392 . S
C5221 H5233 0.929 . S
C5222 C5218 1.531 . S
C5222 H5234 0.960 . S
C5222 H5235 0.962 . S
C5222 H5236 0.960 . S
C5223 C5220 1.511 . S
C5223 H5237 0.961 . S
C5223 H5238 0.961 . S
C5223 H5239 0.961 . S
C5224 C5225 1.370 . S
C5224 C5226 1.363 . S
C5224 H5240 0.931 . S
C5225 C5224 1.370 . S
C5225 C5229 1.408 . S
C5226 C5224 1.363 . S
C5226 C5227 1.370 . S
C5226 C5230 1.524 . S
C5227 C5219 1.503 . S
C5227 C5226 1.370 . S
C5227 C5228 1.403 . S
C5228 C5227 1.403 . S
C5228 C5229 1.404 . S
C5228 C5231 1.539 . S
C5229 C5225 1.408 . S
C5229 C5228 1.404 . S
C5229 H5241 0.930 . S
C5230 C5226 1.524 . S
C5230 H5242 0.956 . S
C5230 H5243 0.961 . S
C5230 H5244 0.961 . S
C5231 C5228 1.539 . S
C5231 H5245 0.958 . S
C5231 H5246 0.961 . S
C5231 H5247 0.960 . S
H5232 C5216 0.931 . S
H5233 C5221 0.929 . S
H5234 C5222 0.960 . S
H5235 C5222 0.962 . S
H5236 C5222 0.960 . S
H5237 C5223 0.961 . S
H5238 C5223 0.961 . S
H5239 C5223 0.961 . S
H5240 C5224 0.931 . S
H5241 C5229 0.930 . S
H5242 C5230 0.956 . S
H5243 C5230 0.961 . S
H5244 C5230 0.961 . S
H5245 C5231 0.958 . S
H5246 C5231 0.961 . S
H5247 C5231 0.960 . S
C5248 C5249 1.391 . S
C5248 C5250 1.394 . S
C5248 H5264 0.931 . S
C5249 C5248 1.391 . S
C5249 C5253 1.376 . S
C5250 C5248 1.394 . S
C5250 C5251 1.369 . S
C5250 C5254 1.531 . S
C5251 C5250 1.369 . S
C5251 C5252 1.410 . S
C5251 C5259 1.503 . S
C5252 C5251 1.410 . S
C5252 C5253 1.392 . S
C5252 C5255 1.511 . S
C5253 C5249 1.376 . S
C5253 C5252 1.392 . S
C5253 H5265 0.929 . S
C5254 C5250 1.531 . S
C5254 H5266 0.960 . S
C5254 H5267 0.962 . S
C5254 H5268 0.960 . S
C5255 C5252 1.511 . S
C5255 H5269 0.961 . S
C5255 H5270 0.961 . S
C5255 H5271 0.961 . S
C5256 C5257 1.370 . S
C5256 C5258 1.363 . S
C5256 H5272 0.931 . S
C5257 C5256 1.370 . S
C5257 C5261 1.408 . S
C5258 C5256 1.363 . S
C5258 C5259 1.370 . S
C5258 C5262 1.524 . S
C5259 C5251 1.503 . S
C5259 C5258 1.370 . S
C5259 C5260 1.403 . S
C5260 C5259 1.403 . S
C5260 C5261 1.404 . S
C5260 C5263 1.539 . S
C5261 C5257 1.408 . S
C5261 C5260 1.404 . S
C5261 H5273 0.930 . S
C5262 C5258 1.524 . S
C5262 H5274 0.956 . S
C5262 H5275 0.961 . S
C5262 H5276 0.961 . S
C5263 C5260 1.539 . S
C5263 H5277 0.958 . S
C5263 H5278 0.961 . S
C5263 H5279 0.960 . S
H5264 C5248 0.931 . S
H5265 C5253 0.929 . S
H5266 C5254 0.960 . S
H5267 C5254 0.962 . S
H5268 C5254 0.960 . S
H5269 C5255 0.961 . S
H5270 C5255 0.961 . S
H5271 C5255 0.961 . S
H5272 C5256 0.931 . S
H5273 C5261 0.930 . S
H5274 C5262 0.956 . S
H5275 C5262 0.961 . S
H5276 C5262 0.961 . S
H5277 C5263 0.958 . S
H5278 C5263 0.961 . S
H5279 C5263 0.960 . S
C5280 C5281 1.391 . S
C5280 C5282 1.394 . S
C5280 H5296 0.931 . S
C5281 C5280 1.391 . S
C5281 C5285 1.376 . S
C5282 C5280 1.394 . S
C5282 C5283 1.369 . S
C5282 C5286 1.531 . S
C5283 C5282 1.369 . S
C5283 C5284 1.410 . S
C5283 C5291 1.503 . S
C5284 C5283 1.410 . S
C5284 C5285 1.392 . S
C5284 C5287 1.511 . S
C5285 C5281 1.376 . S
C5285 C5284 1.392 . S
C5285 H5297 0.929 . S
C5286 C5282 1.531 . S
C5286 H5298 0.960 . S
C5286 H5299 0.962 . S
C5286 H5300 0.960 . S
C5287 C5284 1.511 . S
C5287 H5301 0.961 . S
C5287 H5302 0.961 . S
C5287 H5303 0.961 . S
C5288 C5289 1.370 . S
C5288 C5290 1.363 . S
C5288 H5304 0.931 . S
C5289 C5288 1.370 . S
C5289 C5293 1.408 . S
C5290 C5288 1.363 . S
C5290 C5291 1.370 . S
C5290 C5294 1.524 . S
C5291 C5283 1.503 . S
C5291 C5290 1.370 . S
C5291 C5292 1.403 . S
C5292 C5291 1.403 . S
C5292 C5293 1.404 . S
C5292 C5295 1.539 . S
C5293 C5289 1.408 . S
C5293 C5292 1.404 . S
C5293 H5305 0.930 . S
C5294 C5290 1.524 . S
C5294 H5306 0.956 . S
C5294 H5307 0.961 . S
C5294 H5308 0.961 . S
C5295 C5292 1.539 . S
C5295 H5309 0.958 . S
C5295 H5310 0.961 . S
C5295 H5311 0.960 . S
H5296 C5280 0.931 . S
H5297 C5285 0.929 . S
H5298 C5286 0.960 . S
H5299 C5286 0.962 . S
H5300 C5286 0.960 . S
H5301 C5287 0.961 . S
H5302 C5287 0.961 . S
H5303 C5287 0.961 . S
H5304 C5288 0.931 . S
H5305 C5293 0.930 . S
H5306 C5294 0.956 . S
H5307 C5294 0.961 . S
H5308 C5294 0.961 . S
H5309 C5295 0.958 . S
H5310 C5295 0.961 . S
H5311 C5295 0.960 . S
C5312 C5313 1.391 . S
C5312 C5314 1.394 . S
C5312 H5328 0.931 . S
C5313 C5312 1.391 . S
C5313 C5317 1.376 . S
C5314 C5312 1.394 . S
C5314 C5315 1.369 . S
C5314 C5318 1.531 . S
C5315 C5314 1.369 . S
C5315 C5316 1.410 . S
C5315 C5323 1.503 . S
C5316 C5315 1.410 . S
C5316 C5317 1.392 . S
C5316 C5319 1.511 . S
C5317 C5313 1.376 . S
C5317 C5316 1.392 . S
C5317 H5329 0.929 . S
C5318 C5314 1.531 . S
C5318 H5330 0.960 . S
C5318 H5331 0.962 . S
C5318 H5332 0.960 . S
C5319 C5316 1.511 . S
C5319 H5333 0.961 . S
C5319 H5334 0.961 . S
C5319 H5335 0.961 . S
C5320 C5321 1.370 . S
C5320 C5322 1.363 . S
C5320 H5336 0.931 . S
C5321 C5320 1.370 . S
C5321 C5325 1.408 . S
C5322 C5320 1.363 . S
C5322 C5323 1.370 . S
C5322 C5326 1.524 . S
C5323 C5315 1.503 . S
C5323 C5322 1.370 . S
C5323 C5324 1.403 . S
C5324 C5323 1.403 . S
C5324 C5325 1.404 . S
C5324 C5327 1.539 . S
C5325 C5321 1.408 . S
C5325 C5324 1.404 . S
C5325 H5337 0.930 . S
C5326 C5322 1.524 . S
C5326 H5338 0.956 . S
C5326 H5339 0.961 . S
C5326 H5340 0.961 . S
C5327 C5324 1.539 . S
C5327 H5341 0.958 . S
C5327 H5342 0.961 . S
C5327 H5343 0.960 . S
H5328 C5312 0.931 . S
H5329 C5317 0.929 . S
H5330 C5318 0.960 . S
H5331 C5318 0.962 . S
H5332 C5318 0.960 . S
H5333 C5319 0.961 . S
H5334 C5319 0.961 . S
H5335 C5319 0.961 . S
H5336 C5320 0.931 . S
H5337 C5325 0.930 . S
H5338 C5326 0.956 . S
H5339 C5326 0.961 . S
H5340 C5326 0.961 . S
H5341 C5327 0.958 . S
H5342 C5327 0.961 . S
H5343 C5327 0.960 . S
C5344 C5345 1.391 . S
C5344 C5346 1.394 . S
C5344 H5360 0.931 . S
C5345 C5344 1.391 . S
C5345 C5349 1.376 . S
C5346 C5344 1.394 . S
C5346 C5347 1.369 . S
C5346 C5350 1.531 . S
C5347 C5346 1.369 . S
C5347 C5348 1.410 . S
C5347 C5355 1.503 . S
C5348 C5347 1.410 . S
C5348 C5349 1.392 . S
C5348 C5351 1.511 . S
C5349 C5345 1.376 . S
C5349 C5348 1.392 . S
C5349 H5361 0.929 . S
C5350 C5346 1.531 . S
C5350 H5362 0.960 . S
C5350 H5363 0.962 . S
C5350 H5364 0.960 . S
C5351 C5348 1.511 . S
C5351 H5365 0.961 . S
C5351 H5366 0.961 . S
C5351 H5367 0.961 . S
C5352 C5353 1.370 . S
C5352 C5354 1.363 . S
C5352 H5368 0.931 . S
C5353 C5352 1.370 . S
C5353 C5357 1.408 . S
C5354 C5352 1.363 . S
C5354 C5355 1.370 . S
C5354 C5358 1.524 . S
C5355 C5347 1.503 . S
C5355 C5354 1.370 . S
C5355 C5356 1.403 . S
C5356 C5355 1.403 . S
C5356 C5357 1.404 . S
C5356 C5359 1.539 . S
C5357 C5353 1.408 . S
C5357 C5356 1.404 . S
C5357 H5369 0.930 . S
C5358 C5354 1.524 . S
C5358 H5370 0.956 . S
C5358 H5371 0.961 . S
C5358 H5372 0.961 . S
C5359 C5356 1.539 . S
C5359 H5373 0.958 . S
C5359 H5374 0.961 . S
C5359 H5375 0.960 . S
H5360 C5344 0.931 . S
H5361 C5349 0.929 . S
H5362 C5350 0.960 . S
H5363 C5350 0.962 . S
H5364 C5350 0.960 . S
H5365 C5351 0.961 . S
H5366 C5351 0.961 . S
H5367 C5351 0.961 . S
H5368 C5352 0.931 . S
H5369 C5357 0.930 . S
H5370 C5358 0.956 . S
H5371 C5358 0.961 . S
H5372 C5358 0.961 . S
H5373 C5359 0.958 . S
H5374 C5359 0.961 . S
H5375 C5359 0.960 . S
C5376 C5377 1.391 . S
C5376 C5378 1.394 . S
C5376 H5392 0.931 . S
C5377 C5376 1.391 . S
C5377 C5381 1.376 . S
C5378 C5376 1.394 . S
C5378 C5379 1.369 . S
C5378 C5382 1.531 . S
C5379 C5378 1.369 . S
C5379 C5380 1.410 . S
C5379 C5387 1.503 . S
C5380 C5379 1.410 . S
C5380 C5381 1.392 . S
C5380 C5383 1.511 . S
C5381 C5377 1.376 . S
C5381 C5380 1.392 . S
C5381 H5393 0.929 . S
C5382 C5378 1.531 . S
C5382 H5394 0.960 . S
C5382 H5395 0.962 . S
C5382 H5396 0.960 . S
C5383 C5380 1.511 . S
C5383 H5397 0.961 . S
C5383 H5398 0.961 . S
C5383 H5399 0.961 . S
C5384 C5385 1.370 . S
C5384 C5386 1.363 . S
C5384 H5400 0.931 . S
C5385 C5384 1.370 . S
C5385 C5389 1.408 . S
C5386 C5384 1.363 . S
C5386 C5387 1.370 . S
C5386 C5390 1.524 . S
C5387 C5379 1.503 . S
C5387 C5386 1.370 . S
C5387 C5388 1.403 . S
C5388 C5387 1.403 . S
C5388 C5389 1.404 . S
C5388 C5391 1.539 . S
C5389 C5385 1.408 . S
C5389 C5388 1.404 . S
C5389 H5401 0.930 . S
C5390 C5386 1.524 . S
C5390 H5402 0.956 . S
C5390 H5403 0.961 . S
C5390 H5404 0.961 . S
C5391 C5388 1.539 . S
C5391 H5405 0.958 . S
C5391 H5406 0.961 . S
C5391 H5407 0.960 . S
H5392 C5376 0.931 . S
H5393 C5381 0.929 . S
H5394 C5382 0.960 . S
H5395 C5382 0.962 . S
H5396 C5382 0.960 . S
H5397 C5383 0.961 . S
H5398 C5383 0.961 . S
H5399 C5383 0.961 . S
H5400 C5384 0.931 . S
H5401 C5389 0.930 . S
H5402 C5390 0.956 . S
H5403 C5390 0.961 . S
H5404 C5390 0.961 . S
H5405 C5391 0.958 . S
H5406 C5391 0.961 . S
H5407 C5391 0.960 . S
C5408 C5409 1.391 . S
C5408 C5410 1.394 . S
C5408 H5424 0.931 . S
C5409 C5408 1.391 . S
C5409 C5413 1.376 . S
C5410 C5408 1.394 . S
C5410 C5411 1.369 . S
C5410 C5414 1.531 . S
C5411 C5410 1.369 . S
C5411 C5412 1.410 . S
C5411 C5419 1.503 . S
C5412 C5411 1.410 . S
C5412 C5413 1.392 . S
C5412 C5415 1.511 . S
C5413 C5409 1.376 . S
C5413 C5412 1.392 . S
C5413 H5425 0.929 . S
C5414 C5410 1.531 . S
C5414 H5426 0.960 . S
C5414 H5427 0.962 . S
C5414 H5428 0.960 . S
C5415 C5412 1.511 . S
C5415 H5429 0.961 . S
C5415 H5430 0.961 . S
C5415 H5431 0.961 . S
C5416 C5417 1.370 . S
C5416 C5418 1.363 . S
C5416 H5432 0.931 . S
C5417 C5416 1.370 . S
C5417 C5421 1.408 . S
C5418 C5416 1.363 . S
C5418 C5419 1.370 . S
C5418 C5422 1.524 . S
C5419 C5411 1.503 . S
C5419 C5418 1.370 . S
C5419 C5420 1.403 . S
C5420 C5419 1.403 . S
C5420 C5421 1.404 . S
C5420 C5423 1.539 . S
C5421 C5417 1.408 . S
C5421 C5420 1.404 . S
C5421 H5433 0.930 . S
C5422 C5418 1.524 . S
C5422 H5434 0.956 . S
C5422 H5435 0.961 . S
C5422 H5436 0.961 . S
C5423 C5420 1.539 . S
C5423 H5437 0.958 . S
C5423 H5438 0.961 . S
C5423 H5439 0.960 . S
H5424 C5408 0.931 . S
H5425 C5413 0.929 . S
H5426 C5414 0.960 . S
H5427 C5414 0.962 . S
H5428 C5414 0.960 . S
H5429 C5415 0.961 . S
H5430 C5415 0.961 . S
H5431 C5415 0.961 . S
H5432 C5416 0.931 . S
H5433 C5421 0.930 . S
H5434 C5422 0.956 . S
H5435 C5422 0.961 . S
H5436 C5422 0.961 . S
H5437 C5423 0.958 . S
H5438 C5423 0.961 . S
H5439 C5423 0.960 . S
C5440 C5441 1.391 . S
C5440 C5442 1.394 . S
C5440 H5456 0.931 . S
C5441 C5440 1.391 . S
C5441 C5445 1.376 . S
C5442 C5440 1.394 . S
C5442 C5443 1.369 . S
C5442 C5446 1.531 . S
C5443 C5442 1.369 . S
C5443 C5444 1.410 . S
C5443 C5451 1.503 . S
C5444 C5443 1.410 . S
C5444 C5445 1.392 . S
C5444 C5447 1.511 . S
C5445 C5441 1.376 . S
C5445 C5444 1.392 . S
C5445 H5457 0.929 . S
C5446 C5442 1.531 . S
C5446 H5458 0.960 . S
C5446 H5459 0.962 . S
C5446 H5460 0.960 . S
C5447 C5444 1.511 . S
C5447 H5461 0.961 . S
C5447 H5462 0.961 . S
C5447 H5463 0.961 . S
C5448 C5449 1.370 . S
C5448 C5450 1.363 . S
C5448 H5464 0.931 . S
C5449 C5448 1.370 . S
C5449 C5453 1.408 . S
C5450 C5448 1.363 . S
C5450 C5451 1.370 . S
C5450 C5454 1.524 . S
C5451 C5443 1.503 . S
C5451 C5450 1.370 . S
C5451 C5452 1.403 . S
C5452 C5451 1.403 . S
C5452 C5453 1.404 . S
C5452 C5455 1.539 . S
C5453 C5449 1.408 . S
C5453 C5452 1.404 . S
C5453 H5465 0.930 . S
C5454 C5450 1.524 . S
C5454 H5466 0.956 . S
C5454 H5467 0.961 . S
C5454 H5468 0.961 . S
C5455 C5452 1.539 . S
C5455 H5469 0.958 . S
C5455 H5470 0.961 . S
C5455 H5471 0.960 . S
H5456 C5440 0.931 . S
H5457 C5445 0.929 . S
H5458 C5446 0.960 . S
H5459 C5446 0.962 . S
H5460 C5446 0.960 . S
H5461 C5447 0.961 . S
H5462 C5447 0.961 . S
H5463 C5447 0.961 . S
H5464 C5448 0.931 . S
H5465 C5453 0.930 . S
H5466 C5454 0.956 . S
H5467 C5454 0.961 . S
H5468 C5454 0.961 . S
H5469 C5455 0.958 . S
H5470 C5455 0.961 . S
H5471 C5455 0.960 . S
C5472 C5473 1.391 . S
C5472 C5474 1.394 . S
C5472 H5488 0.931 . S
C5473 C5472 1.391 . S
C5473 C5477 1.376 . S
C5474 C5472 1.394 . S
C5474 C5475 1.369 . S
C5474 C5478 1.531 . S
C5475 C5474 1.369 . S
C5475 C5476 1.410 . S
C5475 C5483 1.503 . S
C5476 C5475 1.410 . S
C5476 C5477 1.392 . S
C5476 C5479 1.511 . S
C5477 C5473 1.376 . S
C5477 C5476 1.392 . S
C5477 H5489 0.929 . S
C5478 C5474 1.531 . S
C5478 H5490 0.960 . S
C5478 H5491 0.962 . S
C5478 H5492 0.960 . S
C5479 C5476 1.511 . S
C5479 H5493 0.961 . S
C5479 H5494 0.961 . S
C5479 H5495 0.961 . S
C5480 C5481 1.370 . S
C5480 C5482 1.363 . S
C5480 H5496 0.931 . S
C5481 C5480 1.370 . S
C5481 C5485 1.408 . S
C5482 C5480 1.363 . S
C5482 C5483 1.370 . S
C5482 C5486 1.524 . S
C5483 C5475 1.503 . S
C5483 C5482 1.370 . S
C5483 C5484 1.403 . S
C5484 C5483 1.403 . S
C5484 C5485 1.404 . S
C5484 C5487 1.539 . S
C5485 C5481 1.408 . S
C5485 C5484 1.404 . S
C5485 H5497 0.930 . S
C5486 C5482 1.524 . S
C5486 H5498 0.956 . S
C5486 H5499 0.961 . S
C5486 H5500 0.961 . S
C5487 C5484 1.539 . S
C5487 H5501 0.958 . S
C5487 H5502 0.961 . S
C5487 H5503 0.960 . S
H5488 C5472 0.931 . S
H5489 C5477 0.929 . S
H5490 C5478 0.960 . S
H5491 C5478 0.962 . S
H5492 C5478 0.960 . S
H5493 C5479 0.961 . S
H5494 C5479 0.961 . S
H5495 C5479 0.961 . S
H5496 C5480 0.931 . S
H5497 C5485 0.930 . S
H5498 C5486 0.956 . S
H5499 C5486 0.961 . S
H5500 C5486 0.961 . S
H5501 C5487 0.958 . S
H5502 C5487 0.961 . S
H5503 C5487 0.960 . S
C5504 C5505 1.391 . S
C5504 C5506 1.394 . S
C5504 H5520 0.931 . S
C5505 C5504 1.391 . S
C5505 C5509 1.376 . S
C5506 C5504 1.394 . S
C5506 C5507 1.369 . S
C5506 C5510 1.531 . S
C5507 C5506 1.369 . S
C5507 C5508 1.410 . S
C5507 C5515 1.503 . S
C5508 C5507 1.410 . S
C5508 C5509 1.392 . S
C5508 C5511 1.511 . S
C5509 C5505 1.376 . S
C5509 C5508 1.392 . S
C5509 H5521 0.929 . S
C5510 C5506 1.531 . S
C5510 H5522 0.960 . S
C5510 H5523 0.962 . S
C5510 H5524 0.960 . S
C5511 C5508 1.511 . S
C5511 H5525 0.961 . S
C5511 H5526 0.961 . S
C5511 H5527 0.961 . S
C5512 C5513 1.370 . S
C5512 C5514 1.363 . S
C5512 H5528 0.931 . S
C5513 C5512 1.370 . S
C5513 C5517 1.408 . S
C5514 C5512 1.363 . S
C5514 C5515 1.370 . S
C5514 C5518 1.524 . S
C5515 C5507 1.503 . S
C5515 C5514 1.370 . S
C5515 C5516 1.403 . S
C5516 C5515 1.403 . S
C5516 C5517 1.404 . S
C5516 C5519 1.539 . S
C5517 C5513 1.408 . S
C5517 C5516 1.404 . S
C5517 H5529 0.930 . S
C5518 C5514 1.524 . S
C5518 H5530 0.956 . S
C5518 H5531 0.961 . S
C5518 H5532 0.961 . S
C5519 C5516 1.539 . S
C5519 H5533 0.958 . S
C5519 H5534 0.961 . S
C5519 H5535 0.960 . S
H5520 C5504 0.931 . S
H5521 C5509 0.929 . S
H5522 C5510 0.960 . S
H5523 C5510 0.962 . S
H5524 C5510 0.960 . S
H5525 C5511 0.961 . S
H5526 C5511 0.961 . S
H5527 C5511 0.961 . S
H5528 C5512 0.931 . S
H5529 C5517 0.930 . S
H5530 C5518 0.956 . S
H5531 C5518 0.961 . S
H5532 C5518 0.961 . S
H5533 C5519 0.958 . S
H5534 C5519 0.961 . S
H5535 C5519 0.960 . S
C5536 C5537 1.391 . S
C5536 C5538 1.394 . S
C5536 H5552 0.931 . S
C5537 C5536 1.391 . S
C5537 C5541 1.376 . S
C5538 C5536 1.394 . S
C5538 C5539 1.369 . S
C5538 C5542 1.531 . S
C5539 C5538 1.369 . S
C5539 C5540 1.410 . S
C5539 C5547 1.503 . S
C5540 C5539 1.410 . S
C5540 C5541 1.392 . S
C5540 C5543 1.511 . S
C5541 C5537 1.376 . S
C5541 C5540 1.392 . S
C5541 H5553 0.929 . S
C5542 C5538 1.531 . S
C5542 H5554 0.960 . S
C5542 H5555 0.962 . S
C5542 H5556 0.960 . S
C5543 C5540 1.511 . S
C5543 H5557 0.961 . S
C5543 H5558 0.961 . S
C5543 H5559 0.961 . S
C5544 C5545 1.370 . S
C5544 C5546 1.363 . S
C5544 H5560 0.931 . S
C5545 C5544 1.370 . S
C5545 C5549 1.408 . S
C5546 C5544 1.363 . S
C5546 C5547 1.370 . S
C5546 C5550 1.524 . S
C5547 C5539 1.503 . S
C5547 C5546 1.370 . S
C5547 C5548 1.403 . S
C5548 C5547 1.403 . S
C5548 C5549 1.404 . S
C5548 C5551 1.539 . S
C5549 C5545 1.408 . S
C5549 C5548 1.404 . S
C5549 H5561 0.930 . S
C5550 C5546 1.524 . S
C5550 H5562 0.956 . S
C5550 H5563 0.961 . S
C5550 H5564 0.961 . S
C5551 C5548 1.539 . S
C5551 H5565 0.958 . S
C5551 H5566 0.961 . S
C5551 H5567 0.960 . S
H5552 C5536 0.931 . S
H5553 C5541 0.929 . S
H5554 C5542 0.960 . S
H5555 C5542 0.962 . S
H5556 C5542 0.960 . S
H5557 C5543 0.961 . S
H5558 C5543 0.961 . S
H5559 C5543 0.961 . S
H5560 C5544 0.931 . S
H5561 C5549 0.930 . S
H5562 C5550 0.956 . S
H5563 C5550 0.961 . S
H5564 C5550 0.961 . S
H5565 C5551 0.958 . S
H5566 C5551 0.961 . S
H5567 C5551 0.960 . S
C5568 C5569 1.391 . S
C5568 C5570 1.394 . S
C5568 H5584 0.931 . S
C5569 C5568 1.391 . S
C5569 C5573 1.376 . S
C5570 C5568 1.394 . S
C5570 C5571 1.369 . S
C5570 C5574 1.531 . S
C5571 C5570 1.369 . S
C5571 C5572 1.410 . S
C5571 C5579 1.503 . S
C5572 C5571 1.410 . S
C5572 C5573 1.392 . S
C5572 C5575 1.511 . S
C5573 C5569 1.376 . S
C5573 C5572 1.392 . S
C5573 H5585 0.929 . S
C5574 C5570 1.531 . S
C5574 H5586 0.960 . S
C5574 H5587 0.962 . S
C5574 H5588 0.960 . S
C5575 C5572 1.511 . S
C5575 H5589 0.961 . S
C5575 H5590 0.961 . S
C5575 H5591 0.961 . S
C5576 C5577 1.370 . S
C5576 C5578 1.363 . S
C5576 H5592 0.931 . S
C5577 C5576 1.370 . S
C5577 C5581 1.408 . S
C5578 C5576 1.363 . S
C5578 C5579 1.370 . S
C5578 C5582 1.524 . S
C5579 C5571 1.503 . S
C5579 C5578 1.370 . S
C5579 C5580 1.403 . S
C5580 C5579 1.403 . S
C5580 C5581 1.404 . S
C5580 C5583 1.539 . S
C5581 C5577 1.408 . S
C5581 C5580 1.404 . S
C5581 H5593 0.930 . S
C5582 C5578 1.524 . S
C5582 H5594 0.956 . S
C5582 H5595 0.961 . S
C5582 H5596 0.961 . S
C5583 C5580 1.539 . S
C5583 H5597 0.958 . S
C5583 H5598 0.961 . S
C5583 H5599 0.960 . S
H5584 C5568 0.931 . S
H5585 C5573 0.929 . S
H5586 C5574 0.960 . S
H5587 C5574 0.962 . S
H5588 C5574 0.960 . S
H5589 C5575 0.961 . S
H5590 C5575 0.961 . S
H5591 C5575 0.961 . S
H5592 C5576 0.931 . S
H5593 C5581 0.930 . S
H5594 C5582 0.956 . S
H5595 C5582 0.961 . S
H5596 C5582 0.961 . S
H5597 C5583 0.958 . S
H5598 C5583 0.961 . S
H5599 C5583 0.960 . S
C5600 C5601 1.391 . S
C5600 C5602 1.394 . S
C5600 H5616 0.931 . S
C5601 C5600 1.391 . S
C5601 C5605 1.376 1_554 S
C5602 C5600 1.394 . S
C5602 C5603 1.369 . S
C5602 C5606 1.531 . S
C5603 C5602 1.369 . S
C5603 C5604 1.410 1_554 S
C5603 C5611 1.503 . S
C5604 C5603 1.410 1_556 S
C5604 C5605 1.392 . S
C5604 C5607 1.511 . S
C5605 C5601 1.376 1_556 S
C5605 C5604 1.392 . S
C5605 H5617 0.929 . S
C5606 C5602 1.531 . S
C5606 H5618 0.960 . S
C5606 H5619 0.962 1_565 S
C5606 H5620 0.960 . S
C5607 C5604 1.511 . S
C5607 H5621 0.961 . S
C5607 H5622 0.961 . S
C5607 H5623 0.961 . S
C5608 C5609 1.370 . S
C5608 C5610 1.363 . S
C5608 H5624 0.931 . S
C5609 C5608 1.370 . S
C5609 C5613 1.408 1_545 S
C5610 C5608 1.363 . S
C5610 C5611 1.370 1_545 S
C5610 C5614 1.524 . S
C5611 C5603 1.503 . S
C5611 C5610 1.370 1_565 S
C5611 C5612 1.403 . S
C5612 C5611 1.403 . S
C5612 C5613 1.404 . S
C5612 C5615 1.539 . S
C5613 C5609 1.408 1_565 S
C5613 C5612 1.404 . S
C5613 H5625 0.930 . S
C5614 C5610 1.524 . S
C5614 H5626 0.956 . S
C5614 H5627 0.961 . S
C5614 H5628 0.961 . S
C5615 C5612 1.539 . S
C5615 H5629 0.958 . S
C5615 H5630 0.961 . S
C5615 H5631 0.960 . S
H5616 C5600 0.931 . S
H5617 C5605 0.929 . S
H5618 C5606 0.960 . S
H5619 C5606 0.962 1_545 S
H5620 C5606 0.960 . S
H5621 C5607 0.961 . S
H5622 C5607 0.961 . S
H5623 C5607 0.961 . S
H5624 C5608 0.931 . S
H5625 C5613 0.930 . S
H5626 C5614 0.956 . S
H5627 C5614 0.961 . S
H5628 C5614 0.961 . S
H5629 C5615 0.958 . S
H5630 C5615 0.961 . S
H5631 C5615 0.960 . S
C5632 C5633 1.391 . S
C5632 C5634 1.394 . S
C5632 H5648 0.931 . S
C5633 C5632 1.391 . S
C5633 C5637 1.376 . S
C5634 C5632 1.394 . S
C5634 C5635 1.369 . S
C5634 C5638 1.531 . S
C5635 C5634 1.369 . S
C5635 C5636 1.410 . S
C5635 C5643 1.503 . S
C5636 C5635 1.410 . S
C5636 C5637 1.392 . S
C5636 C5639 1.511 . S
C5637 C5633 1.376 . S
C5637 C5636 1.392 . S
C5637 H5649 0.929 . S
C5638 C5634 1.531 . S
C5638 H5650 0.960 . S
C5638 H5651 0.962 . S
C5638 H5652 0.960 . S
C5639 C5636 1.511 . S
C5639 H5653 0.961 . S
C5639 H5654 0.961 . S
C5639 H5655 0.961 . S
C5640 C5641 1.370 . S
C5640 C5642 1.363 . S
C5640 H5656 0.931 . S
C5641 C5640 1.370 . S
C5641 C5645 1.408 . S
C5642 C5640 1.363 . S
C5642 C5643 1.370 . S
C5642 C5646 1.524 . S
C5643 C5635 1.503 . S
C5643 C5642 1.370 . S
C5643 C5644 1.403 . S
C5644 C5643 1.403 . S
C5644 C5645 1.404 . S
C5644 C5647 1.539 . S
C5645 C5641 1.408 . S
C5645 C5644 1.404 . S
C5645 H5657 0.930 . S
C5646 C5642 1.524 . S
C5646 H5658 0.956 . S
C5646 H5659 0.961 . S
C5646 H5660 0.961 . S
C5647 C5644 1.539 . S
C5647 H5661 0.958 . S
C5647 H5662 0.961 . S
C5647 H5663 0.960 . S
H5648 C5632 0.931 . S
H5649 C5637 0.929 . S
H5650 C5638 0.960 . S
H5651 C5638 0.962 . S
H5652 C5638 0.960 . S
H5653 C5639 0.961 . S
H5654 C5639 0.961 . S
H5655 C5639 0.961 . S
H5656 C5640 0.931 . S
H5657 C5645 0.930 . S
H5658 C5646 0.956 . S
H5659 C5646 0.961 . S
H5660 C5646 0.961 . S
H5661 C5647 0.958 . S
H5662 C5647 0.961 . S
H5663 C5647 0.960 . S
C5664 C5665 1.391 . S
C5664 C5666 1.394 . S
C5664 H5680 0.931 . S
C5665 C5664 1.391 . S
C5665 C5669 1.376 . S
C5666 C5664 1.394 . S
C5666 C5667 1.369 . S
C5666 C5670 1.531 . S
C5667 C5666 1.369 . S
C5667 C5668 1.410 . S
C5667 C5675 1.503 . S
C5668 C5667 1.410 . S
C5668 C5669 1.392 . S
C5668 C5671 1.511 . S
C5669 C5665 1.376 . S
C5669 C5668 1.392 . S
C5669 H5681 0.929 . S
C5670 C5666 1.531 . S
C5670 H5682 0.960 . S
C5670 H5683 0.962 . S
C5670 H5684 0.960 . S
C5671 C5668 1.511 . S
C5671 H5685 0.961 1_554 S
C5671 H5686 0.961 . S
C5671 H5687 0.961 . S
C5672 C5673 1.370 . S
C5672 C5674 1.363 . S
C5672 H5688 0.937 . S
C5673 C5672 1.370 . S
C5673 C5677 1.408 . S
C5674 C5672 1.363 . S
C5674 C5675 1.370 . S
C5674 C5678 1.524 1_554 S
C5675 C5667 1.503 . S
C5675 C5674 1.370 . S
C5675 C5676 1.403 . S
C5676 C5675 1.403 . S
C5676 C5677 1.404 . S
C5676 C5679 1.539 . S
C5677 C5673 1.408 . S
C5677 C5676 1.404 . S
C5677 H5689 0.930 . S
C5678 C5674 1.524 1_556 S
C5678 H5690 0.956 . S
C5678 H5691 0.961 . S
C5678 H5692 0.961 . S
C5679 C5676 1.539 . S
C5679 H5693 0.958 . S
C5679 H5694 0.961 . S
C5679 H5695 0.960 . S
H5680 C5664 0.931 . S
H5681 C5669 0.929 . S
H5682 C5670 0.960 . S
H5683 C5670 0.962 . S
H5684 C5670 0.960 . S
H5685 C5671 0.961 1_556 S
H5686 C5671 0.961 . S
H5687 C5671 0.961 . S
H5688 C5672 0.937 . S
H5689 C5677 0.930 . S
H5690 C5678 0.956 . S
H5691 C5678 0.961 . S
H5692 C5678 0.961 . S
H5693 C5679 0.958 . S
H5694 C5679 0.961 . S
H5695 C5679 0.960 . S
C5696 C5697 1.391 . S
C5696 C5698 1.394 . S
C5696 H5712 0.931 . S
C5697 C5696 1.391 . S
C5697 C5701 1.376 . S
C5698 C5696 1.394 . S
C5698 C5699 1.369 . S
C5698 C5702 1.531 . S
C5699 C5698 1.369 . S
C5699 C5700 1.410 . S
C5699 C5707 1.503 . S
C5700 C5699 1.410 . S
C5700 C5701 1.392 . S
C5700 C5703 1.511 . S
C5701 C5697 1.376 . S
C5701 C5700 1.392 . S
C5701 H5713 0.929 . S
C5702 C5698 1.531 . S
C5702 H5714 0.960 . S
C5702 H5715 0.962 . S
C5702 H5716 0.960 . S
C5703 C5700 1.511 . S
C5703 H5717 0.961 . S
C5703 H5718 0.961 . S
C5703 H5719 0.961 . S
C5704 C5705 1.370 . S
C5704 C5706 1.363 . S
C5704 H5720 0.931 . S
C5705 C5704 1.370 . S
C5705 C5709 1.408 . S
C5706 C5704 1.363 . S
C5706 C5707 1.370 . S
C5706 C5710 1.524 . S
C5707 C5699 1.503 . S
C5707 C5706 1.370 . S
C5707 C5708 1.403 . S
C5708 C5707 1.403 . S
C5708 C5709 1.404 . S
C5708 C5711 1.539 . S
C5709 C5705 1.408 . S
C5709 C5708 1.404 . S
C5709 H5721 0.930 . S
C5710 C5706 1.524 . S
C5710 H5722 0.956 . S
C5710 H5723 0.961 . S
C5710 H5724 0.961 . S
C5711 C5708 1.539 . S
C5711 H5725 0.958 . S
C5711 H5726 0.961 . S
C5711 H5727 0.960 . S
H5712 C5696 0.931 . S
H5713 C5701 0.929 . S
H5714 C5702 0.960 . S
H5715 C5702 0.962 . S
H5716 C5702 0.960 . S
H5717 C5703 0.961 . S
H5718 C5703 0.961 . S
H5719 C5703 0.961 . S
H5720 C5704 0.931 . S
H5721 C5709 0.930 . S
H5722 C5710 0.956 . S
H5723 C5710 0.961 . S
H5724 C5710 0.961 . S
H5725 C5711 0.958 . S
H5726 C5711 0.961 . S
H5727 C5711 0.960 . S
C5728 C5729 1.391 . S
C5728 C5730 1.394 . S
C5728 H5744 0.931 . S
C5729 C5728 1.391 . S
C5729 C5733 1.376 . S
C5730 C5728 1.394 . S
C5730 C5731 1.369 . S
C5730 C5734 1.531 . S
C5731 C5730 1.369 . S
C5731 C5732 1.410 . S
C5731 C5739 1.503 . S
C5732 C5731 1.410 . S
C5732 C5733 1.392 . S
C5732 C5735 1.511 . S
C5733 C5729 1.376 . S
C5733 C5732 1.392 . S
C5733 H5745 0.929 . S
C5734 C5730 1.531 . S
C5734 H5746 0.960 . S
C5734 H5747 0.962 . S
C5734 H5748 0.960 . S
C5735 C5732 1.511 . S
C5735 H5749 0.961 . S
C5735 H5750 0.961 . S
C5735 H5751 0.961 . S
C5736 C5737 1.370 . S
C5736 C5738 1.363 . S
C5736 H5752 0.931 . S
C5737 C5736 1.370 . S
C5737 C5741 1.408 . S
C5738 C5736 1.363 . S
C5738 C5739 1.370 . S
C5738 C5742 1.524 . S
C5739 C5731 1.503 . S
C5739 C5738 1.370 . S
C5739 C5740 1.403 . S
C5740 C5739 1.403 . S
C5740 C5741 1.404 . S
C5740 C5743 1.539 . S
C5741 C5737 1.408 . S
C5741 C5740 1.404 . S
C5741 H5753 0.930 . S
C5742 C5738 1.524 . S
C5742 H5754 0.956 . S
C5742 H5755 0.961 . S
C5742 H5756 0.961 . S
C5743 C5740 1.539 . S
C5743 H5757 0.958 . S
C5743 H5758 0.961 . S
C5743 H5759 0.960 . S
H5744 C5728 0.931 . S
H5745 C5733 0.929 . S
H5746 C5734 0.960 . S
H5747 C5734 0.962 . S
H5748 C5734 0.960 . S
H5749 C5735 0.961 . S
H5750 C5735 0.961 . S
H5751 C5735 0.961 . S
H5752 C5736 0.931 . S
H5753 C5741 0.930 . S
H5754 C5742 0.956 . S
H5755 C5742 0.961 . S
H5756 C5742 0.961 . S
H5757 C5743 0.958 . S
H5758 C5743 0.961 . S
H5759 C5743 0.960 . S
C5760 C5761 1.391 . S
C5760 C5762 1.394 . S
C5760 H5776 0.931 . S
C5761 C5760 1.391 . S
C5761 C5765 1.376 . S
C5762 C5760 1.394 . S
C5762 C5763 1.369 . S
C5762 C5766 1.531 . S
C5763 C5762 1.369 . S
C5763 C5764 1.410 . S
C5763 C5771 1.503 . S
C5764 C5763 1.410 . S
C5764 C5765 1.392 . S
C5764 C5767 1.511 . S
C5765 C5761 1.376 . S
C5765 C5764 1.392 . S
C5765 H5777 0.929 . S
C5766 C5762 1.531 . S
C5766 H5778 0.960 . S
C5766 H5779 0.962 . S
C5766 H5780 0.960 . S
C5767 C5764 1.511 . S
C5767 H5781 0.961 . S
C5767 H5782 0.961 . S
C5767 H5783 0.961 . S
C5768 C5769 1.370 . S
C5768 C5770 1.363 . S
C5768 H5784 0.931 . S
C5769 C5768 1.370 . S
C5769 C5773 1.408 . S
C5770 C5768 1.363 . S
C5770 C5771 1.370 . S
C5770 C5774 1.524 . S
C5771 C5763 1.503 . S
C5771 C5770 1.370 . S
C5771 C5772 1.403 . S
C5772 C5771 1.403 . S
C5772 C5773 1.404 . S
C5772 C5775 1.539 . S
C5773 C5769 1.408 . S
C5773 C5772 1.404 . S
C5773 H5785 0.930 . S
C5774 C5770 1.524 . S
C5774 H5786 0.956 . S
C5774 H5787 0.961 . S
C5774 H5788 0.961 . S
C5775 C5772 1.539 . S
C5775 H5789 0.958 . S
C5775 H5790 0.961 . S
C5775 H5791 0.960 . S
H5776 C5760 0.931 . S
H5777 C5765 0.929 . S
H5778 C5766 0.960 . S
H5779 C5766 0.962 . S
H5780 C5766 0.960 . S
H5781 C5767 0.961 . S
H5782 C5767 0.961 . S
H5783 C5767 0.961 . S
H5784 C5768 0.931 . S
H5785 C5773 0.930 . S
H5786 C5774 0.956 . S
H5787 C5774 0.961 . S
H5788 C5774 0.961 . S
H5789 C5775 0.958 . S
H5790 C5775 0.961 . S
H5791 C5775 0.960 . S
C5792 C5793 1.391 . S
C5792 C5794 1.394 . S
C5792 H5808 0.931 . S
C5793 C5792 1.391 . S
C5793 C5797 1.376 . S
C5794 C5792 1.394 . S
C5794 C5795 1.369 . S
C5794 C5798 1.531 . S
C5795 C5794 1.369 . S
C5795 C5796 1.410 . S
C5795 C5803 1.503 . S
C5796 C5795 1.410 . S
C5796 C5797 1.392 . S
C5796 C5799 1.511 . S
C5797 C5793 1.376 . S
C5797 C5796 1.392 . S
C5797 H5809 0.929 . S
C5798 C5794 1.531 . S
C5798 H5810 0.960 . S
C5798 H5811 0.962 . S
C5798 H5812 0.960 . S
C5799 C5796 1.511 . S
C5799 H5813 0.961 . S
C5799 H5814 0.961 . S
C5799 H5815 0.961 . S
C5800 C5801 1.370 . S
C5800 C5802 1.363 . S
C5800 H5816 0.931 . S
C5801 C5800 1.370 . S
C5801 C5805 1.408 . S
C5802 C5800 1.363 . S
C5802 C5803 1.370 . S
C5802 C5806 1.524 . S
C5803 C5795 1.503 . S
C5803 C5802 1.370 . S
C5803 C5804 1.403 . S
C5804 C5803 1.403 . S
C5804 C5805 1.404 . S
C5804 C5807 1.539 . S
C5805 C5801 1.408 . S
C5805 C5804 1.404 . S
C5805 H5817 0.930 . S
C5806 C5802 1.524 . S
C5806 H5818 0.956 . S
C5806 H5819 0.961 . S
C5806 H5820 0.961 . S
C5807 C5804 1.539 . S
C5807 H5821 0.958 . S
C5807 H5822 0.961 . S
C5807 H5823 0.960 . S
H5808 C5792 0.931 . S
H5809 C5797 0.929 . S
H5810 C5798 0.960 . S
H5811 C5798 0.962 . S
H5812 C5798 0.960 . S
H5813 C5799 0.961 . S
H5814 C5799 0.961 . S
H5815 C5799 0.961 . S
H5816 C5800 0.931 . S
H5817 C5805 0.930 . S
H5818 C5806 0.956 . S
H5819 C5806 0.961 . S
H5820 C5806 0.961 . S
H5821 C5807 0.958 . S
H5822 C5807 0.961 . S
H5823 C5807 0.960 . S
C5824 C5825 1.391 . S
C5824 C5826 1.394 . S
C5824 H5840 0.931 . S
C5825 C5824 1.391 . S
C5825 C5829 1.376 . S
C5826 C5824 1.394 . S
C5826 C5827 1.369 . S
C5826 C5830 1.531 . S
C5827 C5826 1.369 . S
C5827 C5828 1.410 . S
C5827 C5835 1.503 . S
C5828 C5827 1.410 . S
C5828 C5829 1.392 . S
C5828 C5831 1.511 1_455 S
C5829 C5825 1.376 . S
C5829 C5828 1.392 . S
C5829 H5841 0.929 . S
C5830 C5826 1.531 . S
C5830 H5842 0.960 . S
C5830 H5843 0.962 . S
C5830 H5844 0.960 . S
C5831 C5828 1.511 1_655 S
C5831 H5845 0.961 . S
C5831 H5846 0.961 1_655 S
C5831 H5847 0.961 . S
C5832 C5833 1.370 . S
C5832 C5834 1.363 . S
C5832 H5848 0.931 . S
C5833 C5832 1.370 . S
C5833 C5837 1.408 . S
C5834 C5832 1.363 . S
C5834 C5835 1.370 . S
C5834 C5838 1.524 . S
C5835 C5827 1.503 . S
C5835 C5834 1.370 . S
C5835 C5836 1.403 . S
C5836 C5835 1.403 . S
C5836 C5837 1.404 . S
C5836 C5839 1.539 . S
C5837 C5833 1.408 . S
C5837 C5836 1.404 . S
C5837 H5849 0.930 . S
C5838 C5834 1.524 . S
C5838 H5850 0.956 . S
C5838 H5851 0.961 . S
C5838 H5852 0.961 1_554 S
C5839 C5836 1.539 . S
C5839 H5853 0.958 . S
C5839 H5854 0.961 . S
C5839 H5855 0.960 . S
H5840 C5824 0.931 . S
H5841 C5829 0.929 . S
H5842 C5830 0.960 . S
H5843 C5830 0.962 . S
H5844 C5830 0.960 . S
H5845 C5831 0.961 . S
H5846 C5831 0.961 1_455 S
H5847 C5831 0.961 . S
H5848 C5832 0.931 . S
H5849 C5837 0.930 . S
H5850 C5838 0.956 . S
H5851 C5838 0.961 . S
H5852 C5838 0.961 1_556 S
H5853 C5839 0.958 . S
H5854 C5839 0.961 . S
H5855 C5839 0.960 . S
C5856 C5857 1.391 . S
C5856 C5858 1.394 . S
C5856 H5872 0.931 . S
C5857 C5856 1.391 . S
C5857 C5861 1.376 . S
C5858 C5856 1.394 . S
C5858 C5859 1.369 . S
C5858 C5862 1.531 . S
C5859 C5858 1.369 . S
C5859 C5860 1.410 . S
C5859 C5867 1.503 . S
C5860 C5859 1.410 . S
C5860 C5861 1.392 . S
C5860 C5863 1.511 . S
C5861 C5857 1.376 . S
C5861 C5860 1.392 . S
C5861 H5873 0.929 . S
C5862 C5858 1.531 . S
C5862 H5874 0.960 . S
C5862 H5875 0.962 . S
C5862 H5876 0.960 . S
C5863 C5860 1.511 . S
C5863 H5877 0.961 . S
C5863 H5878 0.961 . S
C5863 H5879 0.961 . S
C5864 C5865 1.370 . S
C5864 C5866 1.363 . S
C5864 H5880 0.931 . S
C5865 C5864 1.370 . S
C5865 C5869 1.408 . S
C5866 C5864 1.363 . S
C5866 C5867 1.370 . S
C5866 C5870 1.524 . S
C5867 C5859 1.503 . S
C5867 C5866 1.370 . S
C5867 C5868 1.403 . S
C5868 C5867 1.403 . S
C5868 C5869 1.404 . S
C5868 C5871 1.539 . S
C5869 C5865 1.408 . S
C5869 C5868 1.404 . S
C5869 H5881 0.930 . S
C5870 C5866 1.524 . S
C5870 H5882 0.956 . S
C5870 H5883 0.961 . S
C5870 H5884 0.961 . S
C5871 C5868 1.539 . S
C5871 H5885 0.958 . S
C5871 H5886 0.961 . S
C5871 H5887 0.960 . S
H5872 C5856 0.931 . S
H5873 C5861 0.929 . S
H5874 C5862 0.960 . S
H5875 C5862 0.962 . S
H5876 C5862 0.960 . S
H5877 C5863 0.961 . S
H5878 C5863 0.961 . S
H5879 C5863 0.961 . S
H5880 C5864 0.931 . S
H5881 C5869 0.930 . S
H5882 C5870 0.956 . S
H5883 C5870 0.961 . S
H5884 C5870 0.961 . S
H5885 C5871 0.958 . S
H5886 C5871 0.961 . S
H5887 C5871 0.960 . S
C5888 C5889 1.391 . S
C5888 C5890 1.394 . S
C5888 H5904 0.931 . S
C5889 C5888 1.391 . S
C5889 C5893 1.376 . S
C5890 C5888 1.394 . S
C5890 C5891 1.369 . S
C5890 C5894 1.531 . S
C5891 C5890 1.369 . S
C5891 C5892 1.410 . S
C5891 C5899 1.503 . S
C5892 C5891 1.410 . S
C5892 C5893 1.392 . S
C5892 C5895 1.511 . S
C5893 C5889 1.376 . S
C5893 C5892 1.392 . S
C5893 H5905 0.929 . S
C5894 C5890 1.531 . S
C5894 H5906 0.960 . S
C5894 H5907 0.962 . S
C5894 H5908 0.960 . S
C5895 C5892 1.511 . S
C5895 H5909 0.961 . S
C5895 H5910 0.961 . S
C5895 H5911 0.961 . S
C5896 C5897 1.370 . S
C5896 C5898 1.363 . S
C5896 H5912 0.931 . S
C5897 C5896 1.370 . S
C5897 C5901 1.408 . S
C5898 C5896 1.363 . S
C5898 C5899 1.370 . S
C5898 C5902 1.524 . S
C5899 C5891 1.503 . S
C5899 C5898 1.370 . S
C5899 C5900 1.403 . S
C5900 C5899 1.403 . S
C5900 C5901 1.404 . S
C5900 C5903 1.539 . S
C5901 C5897 1.408 . S
C5901 C5900 1.404 . S
C5901 H5913 0.930 . S
C5902 C5898 1.524 . S
C5902 H5914 0.956 . S
C5902 H5915 0.961 . S
C5902 H5916 0.961 . S
C5903 C5900 1.539 . S
C5903 H5917 0.958 . S
C5903 H5918 0.961 . S
C5903 H5919 0.960 . S
H5904 C5888 0.931 . S
H5905 C5893 0.929 . S
H5906 C5894 0.960 . S
H5907 C5894 0.962 . S
H5908 C5894 0.960 . S
H5909 C5895 0.961 . S
H5910 C5895 0.961 . S
H5911 C5895 0.961 . S
H5912 C5896 0.931 . S
H5913 C5901 0.930 . S
H5914 C5902 0.956 . S
H5915 C5902 0.961 . S
H5916 C5902 0.961 . S
H5917 C5903 0.958 . S
H5918 C5903 0.961 . S
H5919 C5903 0.960 . S
C5920 C5921 1.391 . S
C5920 C5922 1.394 . S
C5920 H5936 0.931 . S
C5921 C5920 1.391 . S
C5921 C5925 1.376 . S
C5922 C5920 1.394 . S
C5922 C5923 1.369 . S
C5922 C5926 1.531 . S
C5923 C5922 1.369 . S
C5923 C5924 1.410 . S
C5923 C5931 1.503 . S
C5924 C5923 1.410 . S
C5924 C5925 1.392 . S
C5924 C5927 1.511 . S
C5925 C5921 1.376 . S
C5925 C5924 1.392 . S
C5925 H5937 0.929 . S
C5926 C5922 1.531 . S
C5926 H5938 0.960 . S
C5926 H5939 0.962 . S
C5926 H5940 0.960 . S
C5927 C5924 1.511 . S
C5927 H5941 0.961 . S
C5927 H5942 0.961 . S
C5927 H5943 0.961 . S
C5928 C5929 1.370 . S
C5928 C5930 1.363 . S
C5928 H5944 0.931 . S
C5929 C5928 1.370 . S
C5929 C5933 1.408 . S
C5930 C5928 1.363 . S
C5930 C5931 1.370 . S
C5930 C5934 1.524 . S
C5931 C5923 1.503 . S
C5931 C5930 1.370 . S
C5931 C5932 1.403 . S
C5932 C5931 1.403 . S
C5932 C5933 1.404 . S
C5932 C5935 1.539 . S
C5933 C5929 1.408 . S
C5933 C5932 1.404 . S
C5933 H5945 0.930 . S
C5934 C5930 1.524 . S
C5934 H5946 0.956 . S
C5934 H5947 0.961 . S
C5934 H5948 0.961 . S
C5935 C5932 1.539 . S
C5935 H5949 0.958 . S
C5935 H5950 0.961 . S
C5935 H5951 0.960 . S
H5936 C5920 0.931 . S
H5937 C5925 0.929 . S
H5938 C5926 0.960 . S
H5939 C5926 0.962 . S
H5940 C5926 0.960 . S
H5941 C5927 0.961 . S
H5942 C5927 0.961 . S
H5943 C5927 0.961 . S
H5944 C5928 0.931 . S
H5945 C5933 0.930 . S
H5946 C5934 0.956 . S
H5947 C5934 0.961 . S
H5948 C5934 0.961 . S
H5949 C5935 0.958 . S
H5950 C5935 0.961 . S
H5951 C5935 0.960 . S
C5952 C5953 1.391 . S
C5952 C5954 1.394 . S
C5952 H5968 0.931 . S
C5953 C5952 1.391 . S
C5953 C5957 1.376 . S
C5954 C5952 1.394 . S
C5954 C5955 1.369 . S
C5954 C5958 1.531 . S
C5955 C5954 1.369 . S
C5955 C5956 1.410 . S
C5955 C5963 1.503 . S
C5956 C5955 1.410 . S
C5956 C5957 1.392 . S
C5956 C5959 1.511 . S
C5957 C5953 1.376 . S
C5957 C5956 1.392 . S
C5957 H5969 0.929 . S
C5958 C5954 1.531 . S
C5958 H5970 0.960 . S
C5958 H5971 0.962 . S
C5958 H5972 0.960 . S
C5959 C5956 1.511 . S
C5959 H5973 0.961 . S
C5959 H5974 0.961 . S
C5959 H5975 0.961 . S
C5960 C5961 1.370 . S
C5960 C5962 1.363 . S
C5960 H5976 0.931 . S
C5961 C5960 1.370 . S
C5961 C5965 1.408 . S
C5962 C5960 1.363 . S
C5962 C5963 1.370 . S
C5962 C5966 1.524 . S
C5963 C5955 1.503 . S
C5963 C5962 1.370 . S
C5963 C5964 1.403 . S
C5964 C5963 1.403 . S
C5964 C5965 1.404 . S
C5964 C5967 1.539 . S
C5965 C5961 1.408 . S
C5965 C5964 1.404 . S
C5965 H5977 0.930 . S
C5966 C5962 1.524 . S
C5966 H5978 0.956 . S
C5966 H5979 0.961 . S
C5966 H5980 0.961 . S
C5967 C5964 1.539 . S
C5967 H5981 0.958 . S
C5967 H5982 0.961 . S
C5967 H5983 0.960 . S
H5968 C5952 0.931 . S
H5969 C5957 0.929 . S
H5970 C5958 0.960 . S
H5971 C5958 0.962 . S
H5972 C5958 0.960 . S
H5973 C5959 0.961 . S
H5974 C5959 0.961 . S
H5975 C5959 0.961 . S
H5976 C5960 0.931 . S
H5977 C5965 0.930 . S
H5978 C5966 0.956 . S
H5979 C5966 0.961 . S
H5980 C5966 0.961 . S
H5981 C5967 0.958 . S
H5982 C5967 0.961 . S
H5983 C5967 0.960 . S
C5984 C5985 1.391 . S
C5984 C5986 1.394 . S
C5984 H6000 0.931 . S
C5985 C5984 1.391 . S
C5985 C5989 1.376 . S
C5986 C5984 1.394 . S
C5986 C5987 1.369 . S
C5986 C5990 1.531 . S
C5987 C5986 1.369 . S
C5987 C5988 1.410 . S
C5987 C5995 1.503 . S
C5988 C5987 1.410 . S
C5988 C5989 1.392 . S
C5988 C5991 1.511 . S
C5989 C5985 1.376 . S
C5989 C5988 1.392 . S
C5989 H6001 0.929 . S
C5990 C5986 1.531 . S
C5990 H6002 0.960 . S
C5990 H6003 0.962 . S
C5990 H6004 0.960 . S
C5991 C5988 1.511 . S
C5991 H6005 0.961 . S
C5991 H6006 0.961 . S
C5991 H6007 0.961 . S
C5992 C5993 1.370 . S
C5992 C5994 1.363 . S
C5992 H6008 0.931 . S
C5993 C5992 1.370 . S
C5993 C5997 1.408 . S
C5994 C5992 1.363 . S
C5994 C5995 1.370 . S
C5994 C5998 1.524 . S
C5995 C5987 1.503 . S
C5995 C5994 1.370 . S
C5995 C5996 1.403 . S
C5996 C5995 1.403 . S
C5996 C5997 1.404 . S
C5996 C5999 1.539 . S
C5997 C5993 1.408 . S
C5997 C5996 1.404 . S
C5997 H6009 0.930 . S
C5998 C5994 1.524 . S
C5998 H6010 0.956 . S
C5998 H6011 0.961 . S
C5998 H6012 0.961 . S
C5999 C5996 1.539 . S
C5999 H6013 0.958 . S
C5999 H6014 0.961 . S
C5999 H6015 0.960 . S
H6000 C5984 0.931 . S
H6001 C5989 0.929 . S
H6002 C5990 0.960 . S
H6003 C5990 0.962 . S
H6004 C5990 0.960 . S
H6005 C5991 0.961 . S
H6006 C5991 0.961 . S
H6007 C5991 0.961 . S
H6008 C5992 0.931 . S
H6009 C5997 0.930 . S
H6010 C5998 0.956 . S
H6011 C5998 0.961 . S
H6012 C5998 0.961 . S
H6013 C5999 0.958 . S
H6014 C5999 0.961 . S
H6015 C5999 0.960 . S
C6016 C6017 1.391 . S
C6016 C6018 1.394 . S
C6016 H6032 0.931 . S
C6017 C6016 1.391 . S
C6017 C6021 1.376 . S
C6018 C6016 1.394 . S
C6018 C6019 1.369 . S
C6018 C6022 1.531 . S
C6019 C6018 1.369 . S
C6019 C6020 1.410 . S
C6019 C6027 1.503 . S
C6020 C6019 1.410 . S
C6020 C6021 1.392 . S
C6020 C6023 1.511 . S
C6021 C6017 1.376 . S
C6021 C6020 1.392 . S
C6021 H6033 0.929 . S
C6022 C6018 1.531 . S
C6022 H6034 0.960 . S
C6022 H6035 0.962 . S
C6022 H6036 0.960 . S
C6023 C6020 1.511 . S
C6023 H6037 0.961 . S
C6023 H6038 0.961 . S
C6023 H6039 0.961 . S
C6024 C6025 1.370 . S
C6024 C6026 1.363 . S
C6024 H6040 0.931 . S
C6025 C6024 1.370 . S
C6025 C6029 1.408 . S
C6026 C6024 1.363 . S
C6026 C6027 1.370 . S
C6026 C6030 1.524 . S
C6027 C6019 1.503 . S
C6027 C6026 1.370 . S
C6027 C6028 1.403 . S
C6028 C6027 1.403 . S
C6028 C6029 1.404 . S
C6028 C6031 1.539 . S
C6029 C6025 1.408 . S
C6029 C6028 1.404 . S
C6029 H6041 0.930 . S
C6030 C6026 1.524 . S
C6030 H6042 0.956 . S
C6030 H6043 0.961 . S
C6030 H6044 0.961 . S
C6031 C6028 1.539 . S
C6031 H6045 0.958 . S
C6031 H6046 0.961 . S
C6031 H6047 0.960 . S
H6032 C6016 0.931 . S
H6033 C6021 0.929 . S
H6034 C6022 0.960 . S
H6035 C6022 0.962 . S
H6036 C6022 0.960 . S
H6037 C6023 0.961 . S
H6038 C6023 0.961 . S
H6039 C6023 0.961 . S
H6040 C6024 0.931 . S
H6041 C6029 0.930 . S
H6042 C6030 0.956 . S
H6043 C6030 0.961 . S
H6044 C6030 0.961 . S
H6045 C6031 0.958 . S
H6046 C6031 0.961 . S
H6047 C6031 0.960 . S
C6048 C6049 1.391 . S
C6048 C6050 1.394 . S
C6048 H6064 0.931 . S
C6049 C6048 1.391 . S
C6049 C6053 1.376 . S
C6050 C6048 1.394 . S
C6050 C6051 1.369 . S
C6050 C6054 1.531 . S
C6051 C6050 1.369 . S
C6051 C6052 1.410 . S
C6051 C6059 1.503 . S
C6052 C6051 1.410 . S
C6052 C6053 1.392 . S
C6052 C6055 1.511 . S
C6053 C6049 1.376 . S
C6053 C6052 1.392 . S
C6053 H6065 0.929 . S
C6054 C6050 1.531 . S
C6054 H6066 0.960 . S
C6054 H6067 0.962 . S
C6054 H6068 0.960 . S
C6055 C6052 1.511 . S
C6055 H6069 0.961 . S
C6055 H6070 0.961 . S
C6055 H6071 0.961 . S
C6056 C6057 1.370 . S
C6056 C6058 1.363 . S
C6056 H6072 0.931 . S
C6057 C6056 1.370 . S
C6057 C6061 1.408 . S
C6058 C6056 1.363 . S
C6058 C6059 1.370 . S
C6058 C6062 1.524 . S
C6059 C6051 1.503 . S
C6059 C6058 1.370 . S
C6059 C6060 1.403 . S
C6060 C6059 1.403 . S
C6060 C6061 1.404 . S
C6060 C6063 1.539 . S
C6061 C6057 1.408 . S
C6061 C6060 1.404 . S
C6061 H6073 0.930 . S
C6062 C6058 1.524 . S
C6062 H6074 0.956 . S
C6062 H6075 0.961 . S
C6062 H6076 0.961 . S
C6063 C6060 1.539 . S
C6063 H6077 0.958 . S
C6063 H6078 0.961 . S
C6063 H6079 0.960 . S
H6064 C6048 0.931 . S
H6065 C6053 0.929 . S
H6066 C6054 0.960 . S
H6067 C6054 0.962 . S
H6068 C6054 0.960 . S
H6069 C6055 0.961 . S
H6070 C6055 0.961 . S
H6071 C6055 0.961 . S
H6072 C6056 0.931 . S
H6073 C6061 0.930 . S
H6074 C6062 0.956 . S
H6075 C6062 0.961 . S
H6076 C6062 0.961 . S
H6077 C6063 0.958 . S
H6078 C6063 0.961 . S
H6079 C6063 0.960 . S
C6080 C6081 1.391 . S
C6080 C6082 1.394 . S
C6080 H6096 0.931 . S
C6081 C6080 1.391 . S
C6081 C6085 1.376 . S
C6082 C6080 1.394 . S
C6082 C6083 1.369 . S
C6082 C6086 1.531 . S
C6083 C6082 1.369 . S
C6083 C6084 1.410 . S
C6083 C6091 1.503 . S
C6084 C6083 1.410 . S
C6084 C6085 1.392 . S
C6084 C6087 1.511 . S
C6085 C6081 1.376 . S
C6085 C6084 1.392 . S
C6085 H6097 0.929 . S
C6086 C6082 1.531 . S
C6086 H6098 0.960 . S
C6086 H6099 0.962 . S
C6086 H6100 0.960 . S
C6087 C6084 1.511 . S
C6087 H6101 0.961 . S
C6087 H6102 0.961 . S
C6087 H6103 0.961 . S
C6088 C6089 1.369 . S
C6088 C6090 1.361 . S
C6088 H6104 0.935 1_655 S
C6089 C6088 1.369 . S
C6089 C6093 1.408 . S
C6090 C6088 1.361 . S
C6090 C6091 1.370 . S
C6090 C6094 1.524 . S
C6091 C6083 1.503 . S
C6091 C6090 1.370 . S
C6091 C6092 1.403 . S
C6092 C6091 1.403 . S
C6092 C6093 1.404 . S
C6092 C6095 1.539 . S
C6093 C6089 1.408 . S
C6093 C6092 1.404 . S
C6093 H6105 0.930 . S
C6094 C6090 1.524 . S
C6094 H6106 0.956 . S
C6094 H6107 0.961 . S
C6094 H6108 0.961 . S
C6095 C6092 1.539 . S
C6095 H6109 0.958 . S
C6095 H6110 0.961 . S
C6095 H6111 0.960 . S
H6096 C6080 0.931 . S
H6097 C6085 0.929 . S
H6098 C6086 0.960 . S
H6099 C6086 0.962 . S
H6100 C6086 0.960 . S
H6101 C6087 0.961 . S
H6102 C6087 0.961 . S
H6103 C6087 0.961 . S
H6104 C6088 0.935 1_455 S
H6105 C6093 0.930 . S
H6106 C6094 0.956 . S
H6107 C6094 0.961 . S
H6108 C6094 0.961 . S
H6109 C6095 0.958 . S
H6110 C6095 0.961 . S
H6111 C6095 0.960 . S
C6112 C6113 1.391 . S
C6112 C6114 1.394 . S
C6112 H6128 0.931 . S
C6113 C6112 1.391 . S
C6113 C6117 1.376 . S
C6114 C6112 1.394 . S
C6114 C6115 1.369 . S
C6114 C6118 1.531 . S
C6115 C6114 1.369 . S
C6115 C6116 1.410 . S
C6115 C6123 1.503 . S
C6116 C6115 1.410 . S
C6116 C6117 1.392 . S
C6116 C6119 1.511 . S
C6117 C6113 1.376 . S
C6117 C6116 1.392 . S
C6117 H6129 0.929 . S
C6118 C6114 1.531 . S
C6118 H6130 0.960 . S
C6118 H6131 0.962 . S
C6118 H6132 0.960 . S
C6119 C6116 1.511 . S
C6119 H6133 0.961 . S
C6119 H6134 0.961 . S
C6119 H6135 0.961 . S
C6120 C6121 1.370 . S
C6120 C6122 1.363 . S
C6120 H6136 0.931 . S
C6121 C6120 1.370 . S
C6121 C6125 1.408 . S
C6122 C6120 1.363 . S
C6122 C6123 1.370 . S
C6122 C6126 1.524 . S
C6123 C6115 1.503 . S
C6123 C6122 1.370 . S
C6123 C6124 1.403 . S
C6124 C6123 1.403 . S
C6124 C6125 1.404 . S
C6124 C6127 1.539 . S
C6125 C6121 1.408 . S
C6125 C6124 1.404 . S
C6125 H6137 0.930 . S
C6126 C6122 1.524 . S
C6126 H6138 0.956 . S
C6126 H6139 0.961 . S
C6126 H6140 0.961 . S
C6127 C6124 1.539 . S
C6127 H6141 0.958 . S
C6127 H6142 0.961 . S
C6127 H6143 0.960 . S
H6128 C6112 0.931 . S
H6129 C6117 0.929 . S
H6130 C6118 0.960 . S
H6131 C6118 0.962 . S
H6132 C6118 0.960 . S
H6133 C6119 0.961 . S
H6134 C6119 0.961 . S
H6135 C6119 0.961 . S
H6136 C6120 0.931 . S
H6137 C6125 0.930 . S
H6138 C6126 0.956 . S
H6139 C6126 0.961 . S
H6140 C6126 0.961 . S
H6141 C6127 0.958 . S
H6142 C6127 0.961 . S
H6143 C6127 0.960 . S
C6144 C6145 1.391 . S
C6144 C6146 1.394 . S
C6144 H6160 0.931 . S
C6145 C6144 1.391 . S
C6145 C6149 1.376 . S
C6146 C6144 1.394 . S
C6146 C6147 1.369 . S
C6146 C6150 1.531 . S
C6147 C6146 1.369 . S
C6147 C6148 1.410 . S
C6147 C6155 1.503 . S
C6148 C6147 1.410 . S
C6148 C6149 1.392 . S
C6148 C6151 1.511 . S
C6149 C6145 1.376 . S
C6149 C6148 1.392 . S
C6149 H6161 0.929 . S
C6150 C6146 1.531 . S
C6150 H6162 0.960 . S
C6150 H6163 0.962 . S
C6150 H6164 0.960 . S
C6151 C6148 1.511 . S
C6151 H6165 0.961 . S
C6151 H6166 0.961 . S
C6151 H6167 0.961 . S
C6152 C6153 1.370 . S
C6152 C6154 1.363 . S
C6152 H6168 0.931 . S
C6153 C6152 1.370 . S
C6153 C6157 1.408 . S
C6154 C6152 1.363 . S
C6154 C6155 1.370 . S
C6154 C6158 1.524 . S
C6155 C6147 1.503 . S
C6155 C6154 1.370 . S
C6155 C6156 1.403 . S
C6156 C6155 1.403 . S
C6156 C6157 1.404 . S
C6156 C6159 1.539 . S
C6157 C6153 1.408 . S
C6157 C6156 1.404 . S
C6157 H6169 0.930 . S
C6158 C6154 1.524 . S
C6158 H6170 0.956 . S
C6158 H6171 0.961 . S
C6158 H6172 0.961 . S
C6159 C6156 1.539 . S
C6159 H6173 0.958 . S
C6159 H6174 0.961 . S
C6159 H6175 0.960 . S
H6160 C6144 0.931 . S
H6161 C6149 0.929 . S
H6162 C6150 0.960 . S
H6163 C6150 0.962 . S
H6164 C6150 0.960 . S
H6165 C6151 0.961 . S
H6166 C6151 0.961 . S
H6167 C6151 0.961 . S
H6168 C6152 0.931 . S
H6169 C6157 0.930 . S
H6170 C6158 0.956 . S
H6171 C6158 0.961 . S
H6172 C6158 0.961 . S
H6173 C6159 0.958 . S
H6174 C6159 0.961 . S
H6175 C6159 0.960 . S
C6176 C6177 1.391 . S
C6176 C6178 1.394 . S
C6176 H6192 0.931 . S
C6177 C6176 1.391 . S
C6177 C6181 1.376 . S
C6178 C6176 1.394 . S
C6178 C6179 1.369 . S
C6178 C6182 1.531 . S
C6179 C6178 1.369 . S
C6179 C6180 1.410 . S
C6179 C6187 1.503 . S
C6180 C6179 1.410 . S
C6180 C6181 1.392 . S
C6180 C6183 1.511 . S
C6181 C6177 1.376 . S
C6181 C6180 1.392 . S
C6181 H6193 0.929 . S
C6182 C6178 1.531 . S
C6182 H6194 0.960 . S
C6182 H6195 0.962 . S
C6182 H6196 0.960 . S
C6183 C6180 1.511 . S
C6183 H6197 0.961 . S
C6183 H6198 0.961 . S
C6183 H6199 0.961 . S
C6184 C6185 1.370 . S
C6184 C6186 1.363 . S
C6184 H6200 0.931 . S
C6185 C6184 1.370 . S
C6185 C6189 1.408 . S
C6186 C6184 1.363 . S
C6186 C6187 1.370 . S
C6186 C6190 1.524 . S
C6187 C6179 1.503 . S
C6187 C6186 1.370 . S
C6187 C6188 1.403 . S
C6188 C6187 1.403 . S
C6188 C6189 1.404 . S
C6188 C6191 1.539 . S
C6189 C6185 1.408 . S
C6189 C6188 1.404 . S
C6189 H6201 0.930 . S
C6190 C6186 1.524 . S
C6190 H6202 0.956 . S
C6190 H6203 0.961 . S
C6190 H6204 0.961 . S
C6191 C6188 1.539 . S
C6191 H6205 0.958 . S
C6191 H6206 0.961 . S
C6191 H6207 0.960 . S
H6192 C6176 0.931 . S
H6193 C6181 0.929 . S
H6194 C6182 0.960 . S
H6195 C6182 0.962 . S
H6196 C6182 0.960 . S
H6197 C6183 0.961 . S
H6198 C6183 0.961 . S
H6199 C6183 0.961 . S
H6200 C6184 0.931 . S
H6201 C6189 0.930 . S
H6202 C6190 0.956 . S
H6203 C6190 0.961 . S
H6204 C6190 0.961 . S
H6205 C6191 0.958 . S
H6206 C6191 0.961 . S
H6207 C6191 0.960 . S
C6208 C6209 1.391 . S
C6208 C6210 1.394 . S
C6208 H6224 0.931 . S
C6209 C6208 1.391 . S
C6209 C6213 1.376 . S
C6210 C6208 1.394 . S
C6210 C6211 1.369 . S
C6210 C6214 1.531 . S
C6211 C6210 1.369 . S
C6211 C6212 1.410 . S
C6211 C6219 1.503 . S
C6212 C6211 1.410 . S
C6212 C6213 1.392 . S
C6212 C6215 1.511 . S
C6213 C6209 1.376 . S
C6213 C6212 1.392 . S
C6213 H6225 0.929 . S
C6214 C6210 1.531 . S
C6214 H6226 0.960 . S
C6214 H6227 0.962 . S
C6214 H6228 0.960 . S
C6215 C6212 1.511 . S
C6215 H6229 0.961 . S
C6215 H6230 0.961 . S
C6215 H6231 0.961 . S
C6216 C6217 1.370 . S
C6216 C6218 1.363 . S
C6216 H6232 0.931 . S
C6217 C6216 1.370 . S
C6217 C6221 1.408 . S
C6218 C6216 1.363 . S
C6218 C6219 1.370 . S
C6218 C6222 1.524 . S
C6219 C6211 1.503 . S
C6219 C6218 1.370 . S
C6219 C6220 1.403 . S
C6220 C6219 1.403 . S
C6220 C6221 1.404 . S
C6220 C6223 1.539 . S
C6221 C6217 1.408 . S
C6221 C6220 1.404 . S
C6221 H6233 0.930 . S
C6222 C6218 1.524 . S
C6222 H6234 0.956 . S
C6222 H6235 0.961 . S
C6222 H6236 0.961 . S
C6223 C6220 1.539 . S
C6223 H6237 0.958 . S
C6223 H6238 0.961 . S
C6223 H6239 0.960 . S
H6224 C6208 0.931 . S
H6225 C6213 0.929 . S
H6226 C6214 0.960 . S
H6227 C6214 0.962 . S
H6228 C6214 0.960 . S
H6229 C6215 0.961 . S
H6230 C6215 0.961 . S
H6231 C6215 0.961 . S
H6232 C6216 0.931 . S
H6233 C6221 0.930 . S
H6234 C6222 0.956 . S
H6235 C6222 0.961 . S
H6236 C6222 0.961 . S
H6237 C6223 0.958 . S
H6238 C6223 0.961 . S
H6239 C6223 0.960 . S
C6240 C6241 1.391 . S
C6240 C6242 1.394 . S
C6240 H6256 0.931 . S
C6241 C6240 1.391 . S
C6241 C6245 1.376 . S
C6242 C6240 1.394 . S
C6242 C6243 1.369 . S
C6242 C6246 1.531 . S
C6243 C6242 1.369 . S
C6243 C6244 1.410 . S
C6243 C6251 1.503 . S
C6244 C6243 1.410 . S
C6244 C6245 1.392 . S
C6244 C6247 1.511 . S
C6245 C6241 1.376 . S
C6245 C6244 1.392 . S
C6245 H6257 0.929 . S
C6246 C6242 1.531 . S
C6246 H6258 0.960 . S
C6246 H6259 0.962 . S
C6246 H6260 0.960 . S
C6247 C6244 1.511 . S
C6247 H6261 0.961 . S
C6247 H6262 0.961 . S
C6247 H6263 0.961 . S
C6248 C6249 1.370 . S
C6248 C6250 1.363 . S
C6248 H6264 0.931 . S
C6249 C6248 1.370 . S
C6249 C6253 1.408 . S
C6250 C6248 1.363 . S
C6250 C6251 1.370 . S
C6250 C6254 1.524 . S
C6251 C6243 1.503 . S
C6251 C6250 1.370 . S
C6251 C6252 1.403 . S
C6252 C6251 1.403 . S
C6252 C6253 1.404 . S
C6252 C6255 1.539 . S
C6253 C6249 1.408 . S
C6253 C6252 1.404 . S
C6253 H6265 0.930 . S
C6254 C6250 1.524 . S
C6254 H6266 0.956 . S
C6254 H6267 0.961 . S
C6254 H6268 0.961 . S
C6255 C6252 1.539 . S
C6255 H6269 0.958 . S
C6255 H6270 0.961 . S
C6255 H6271 0.960 . S
H6256 C6240 0.931 . S
H6257 C6245 0.929 . S
H6258 C6246 0.960 . S
H6259 C6246 0.962 . S
H6260 C6246 0.960 . S
H6261 C6247 0.961 . S
H6262 C6247 0.961 . S
H6263 C6247 0.961 . S
H6264 C6248 0.931 . S
H6265 C6253 0.930 . S
H6266 C6254 0.956 . S
H6267 C6254 0.961 . S
H6268 C6254 0.961 . S
H6269 C6255 0.958 . S
H6270 C6255 0.961 . S
H6271 C6255 0.960 . S
C6272 C6273 1.391 . S
C6272 C6274 1.394 . S
C6272 H6288 0.931 . S
C6273 C6272 1.391 . S
C6273 C6277 1.376 . S
C6274 C6272 1.394 . S
C6274 C6275 1.369 . S
C6274 C6278 1.531 . S
C6275 C6274 1.369 . S
C6275 C6276 1.410 . S
C6275 C6283 1.503 . S
C6276 C6275 1.410 . S
C6276 C6277 1.392 . S
C6276 C6279 1.511 . S
C6277 C6273 1.376 . S
C6277 C6276 1.392 . S
C6277 H6289 0.929 . S
C6278 C6274 1.531 . S
C6278 H6290 0.960 . S
C6278 H6291 0.962 . S
C6278 H6292 0.960 . S
C6279 C6276 1.511 . S
C6279 H6293 0.961 . S
C6279 H6294 0.961 . S
C6279 H6295 0.961 . S
C6280 C6281 1.370 . S
C6280 C6282 1.363 . S
C6280 H6296 0.931 . S
C6281 C6280 1.370 . S
C6281 C6285 1.408 . S
C6282 C6280 1.363 . S
C6282 C6283 1.370 . S
C6282 C6286 1.524 . S
C6283 C6275 1.503 . S
C6283 C6282 1.370 . S
C6283 C6284 1.403 . S
C6284 C6283 1.403 . S
C6284 C6285 1.404 . S
C6284 C6287 1.539 . S
C6285 C6281 1.408 . S
C6285 C6284 1.404 . S
C6285 H6297 0.930 . S
C6286 C6282 1.524 . S
C6286 H6298 0.956 . S
C6286 H6299 0.961 . S
C6286 H6300 0.961 . S
C6287 C6284 1.539 . S
C6287 H6301 0.958 . S
C6287 H6302 0.961 . S
C6287 H6303 0.960 . S
H6288 C6272 0.931 . S
H6289 C6277 0.929 . S
H6290 C6278 0.960 . S
H6291 C6278 0.962 . S
H6292 C6278 0.960 . S
H6293 C6279 0.961 . S
H6294 C6279 0.961 . S
H6295 C6279 0.961 . S
H6296 C6280 0.931 . S
H6297 C6285 0.930 . S
H6298 C6286 0.956 . S
H6299 C6286 0.961 . S
H6300 C6286 0.961 . S
H6301 C6287 0.958 . S
H6302 C6287 0.961 . S
H6303 C6287 0.960 . S
C6304 C6305 1.391 . S
C6304 C6306 1.394 . S
C6304 H6320 0.931 . S
C6305 C6304 1.391 . S
C6305 C6309 1.376 . S
C6306 C6304 1.394 . S
C6306 C6307 1.369 . S
C6306 C6310 1.531 . S
C6307 C6306 1.369 . S
C6307 C6308 1.410 . S
C6307 C6315 1.503 . S
C6308 C6307 1.410 . S
C6308 C6309 1.392 . S
C6308 C6311 1.511 . S
C6309 C6305 1.376 . S
C6309 C6308 1.392 . S
C6309 H6321 0.929 . S
C6310 C6306 1.531 . S
C6310 H6322 0.960 . S
C6310 H6323 0.962 . S
C6310 H6324 0.960 . S
C6311 C6308 1.511 . S
C6311 H6325 0.961 . S
C6311 H6326 0.961 . S
C6311 H6327 0.961 1_565 S
C6312 C6313 1.370 . S
C6312 C6314 1.363 . S
C6312 H6328 0.931 . S
C6313 C6312 1.370 . S
C6313 C6317 1.376 1_565 S
C6314 C6312 1.363 . S
C6314 C6315 1.370 . S
C6314 C6318 1.524 . S
C6315 C6307 1.503 . S
C6315 C6314 1.370 . S
C6315 C6316 1.403 . S
C6316 C6315 1.403 . S
C6316 C6317 1.386 1_565 S
C6316 C6319 1.547 . S
C6317 C6313 1.376 1_545 S
C6317 C6316 1.386 1_545 S
C6317 H6329 0.981 . S
C6318 C6314 1.524 . S
C6318 H6330 0.956 . S
C6318 H6331 0.961 . S
C6318 H6332 0.961 . S
C6319 C6316 1.547 . S
C6319 H6333 0.963 . S
C6319 H6334 0.948 1_565 S
C6319 H6335 0.961 . S
H6320 C6304 0.931 . S
H6321 C6309 0.929 . S
H6322 C6310 0.960 . S
H6323 C6310 0.962 . S
H6324 C6310 0.960 . S
H6325 C6311 0.961 . S
H6326 C6311 0.961 . S
H6327 C6311 0.961 1_545 S
H6328 C6312 0.931 . S
H6329 C6317 0.981 . S
H6330 C6318 0.956 . S
H6331 C6318 0.961 . S
H6332 C6318 0.961 . S
H6333 C6319 0.963 . S
H6334 C6319 0.948 1_545 S
H6335 C6319 0.961 . S
C6336 C6337 1.391 . S
C6336 C6338 1.394 . S
C6336 H6352 0.931 . S
C6337 C6336 1.391 . S
C6337 C6341 1.376 . S
C6338 C6336 1.394 . S
C6338 C6339 1.369 . S
C6338 C6342 1.531 . S
C6339 C6338 1.369 . S
C6339 C6340 1.410 . S
C6339 C6347 1.503 . S
C6340 C6339 1.410 . S
C6340 C6341 1.392 . S
C6340 C6343 1.511 . S
C6341 C6337 1.376 . S
C6341 C6340 1.392 . S
C6341 H6353 0.929 . S
C6342 C6338 1.531 . S
C6342 H6354 0.960 . S
C6342 H6355 0.962 . S
C6342 H6356 0.960 . S
C6343 C6340 1.511 . S
C6343 H6357 0.961 . S
C6343 H6358 0.961 . S
C6343 H6359 0.961 . S
C6344 C6345 1.370 . S
C6344 C6346 1.363 . S
C6344 H6360 0.931 . S
C6345 C6344 1.370 . S
C6345 C6349 1.408 . S
C6346 C6344 1.363 . S
C6346 C6347 1.370 . S
C6346 C6350 1.524 . S
C6347 C6339 1.503 . S
C6347 C6346 1.370 . S
C6347 C6348 1.403 . S
C6348 C6347 1.403 . S
C6348 C6349 1.404 . S
C6348 C6351 1.539 . S
C6349 C6345 1.408 . S
C6349 C6348 1.404 . S
C6349 H6361 0.930 . S
C6350 C6346 1.524 . S
C6350 H6362 0.956 . S
C6350 H6363 0.961 . S
C6350 H6364 0.961 . S
C6351 C6348 1.539 . S
C6351 H6365 0.958 . S
C6351 H6366 0.961 . S
C6351 H6367 0.960 . S
H6352 C6336 0.931 . S
H6353 C6341 0.929 . S
H6354 C6342 0.960 . S
H6355 C6342 0.962 . S
H6356 C6342 0.960 . S
H6357 C6343 0.961 . S
H6358 C6343 0.961 . S
H6359 C6343 0.961 . S
H6360 C6344 0.931 . S
H6361 C6349 0.930 . S
H6362 C6350 0.956 . S
H6363 C6350 0.961 . S
H6364 C6350 0.961 . S
H6365 C6351 0.958 . S
H6366 C6351 0.961 . S
H6367 C6351 0.960 . S
C6368 C6369 1.391 . S
C6368 C6370 1.394 . S
C6368 H6384 0.931 . S
C6369 C6368 1.391 . S
C6369 C6373 1.376 . S
C6370 C6368 1.394 . S
C6370 C6371 1.369 . S
C6370 C6374 1.531 . S
C6371 C6370 1.369 . S
C6371 C6372 1.410 . S
C6371 C6379 1.503 . S
C6372 C6371 1.410 . S
C6372 C6373 1.392 . S
C6372 C6375 1.511 . S
C6373 C6369 1.376 . S
C6373 C6372 1.392 . S
C6373 H6385 0.929 . S
C6374 C6370 1.531 . S
C6374 H6386 0.960 . S
C6374 H6387 0.962 . S
C6374 H6388 0.960 . S
C6375 C6372 1.511 . S
C6375 H6389 0.961 . S
C6375 H6390 0.961 . S
C6375 H6391 0.961 . S
C6376 C6377 1.370 . S
C6376 C6378 1.363 . S
C6376 H6392 0.949 . S
C6377 C6376 1.370 . S
C6377 C6381 1.408 . S
C6378 C6376 1.363 . S
C6378 C6379 1.370 . S
C6378 C6382 1.524 1_554 S
C6379 C6371 1.503 . S
C6379 C6378 1.370 . S
C6379 C6380 1.403 . S
C6380 C6379 1.403 . S
C6380 C6381 1.404 . S
C6380 C6383 1.539 . S
C6381 C6377 1.408 . S
C6381 C6380 1.404 . S
C6381 H6393 0.930 . S
C6382 C6378 1.524 1_556 S
C6382 H6394 0.956 . S
C6382 H6395 0.961 1_556 S
C6382 H6396 0.961 . S
C6383 C6380 1.539 . S
C6383 H6397 0.958 . S
C6383 H6398 0.961 . S
C6383 H6399 0.960 . S
H6384 C6368 0.931 . S
H6385 C6373 0.929 . S
H6386 C6374 0.960 . S
H6387 C6374 0.962 . S
H6388 C6374 0.960 . S
H6389 C6375 0.961 . S
H6390 C6375 0.961 . S
H6391 C6375 0.961 . S
H6392 C6376 0.949 . S
H6393 C6381 0.930 . S
H6394 C6382 0.956 . S
H6395 C6382 0.961 1_554 S
H6396 C6382 0.961 . S
H6397 C6383 0.958 . S
H6398 C6383 0.961 . S
H6399 C6383 0.960 . S
C6400 C6401 1.391 . S
C6400 C6402 1.394 . S
C6400 H6416 0.931 . S
C6401 C6400 1.391 . S
C6401 C6405 1.376 . S
C6402 C6400 1.394 . S
C6402 C6403 1.369 . S
C6402 C6406 1.531 . S
C6403 C6402 1.369 . S
C6403 C6404 1.410 . S
C6403 C6411 1.503 . S
C6404 C6403 1.410 . S
C6404 C6405 1.392 . S
C6404 C6407 1.511 . S
C6405 C6401 1.376 . S
C6405 C6404 1.392 . S
C6405 H6417 0.929 . S
C6406 C6402 1.531 . S
C6406 H6418 0.960 . S
C6406 H6419 0.962 . S
C6406 H6420 0.960 . S
C6407 C6404 1.511 . S
C6407 H6421 0.961 . S
C6407 H6422 0.961 . S
C6407 H6423 0.961 . S
C6408 C6409 1.370 . S
C6408 C6410 1.363 . S
C6408 H6424 0.931 . S
C6409 C6408 1.370 . S
C6409 C6413 1.408 . S
C6410 C6408 1.363 . S
C6410 C6411 1.370 . S
C6410 C6414 1.524 . S
C6411 C6403 1.503 . S
C6411 C6410 1.370 . S
C6411 C6412 1.403 . S
C6412 C6411 1.403 . S
C6412 C6413 1.404 . S
C6412 C6415 1.539 . S
C6413 C6409 1.408 . S
C6413 C6412 1.404 . S
C6413 H6425 0.930 . S
C6414 C6410 1.524 . S
C6414 H6426 0.956 . S
C6414 H6427 0.961 . S
C6414 H6428 0.961 . S
C6415 C6412 1.539 . S
C6415 H6429 0.958 . S
C6415 H6430 0.961 . S
C6415 H6431 0.960 . S
H6416 C6400 0.931 . S
H6417 C6405 0.929 . S
H6418 C6406 0.960 . S
H6419 C6406 0.962 . S
H6420 C6406 0.960 . S
H6421 C6407 0.961 . S
H6422 C6407 0.961 . S
H6423 C6407 0.961 . S
H6424 C6408 0.931 . S
H6425 C6413 0.930 . S
H6426 C6414 0.956 . S
H6427 C6414 0.961 . S
H6428 C6414 0.961 . S
H6429 C6415 0.958 . S
H6430 C6415 0.961 . S
H6431 C6415 0.960 . S
C6432 C6433 1.391 . S
C6432 C6434 1.394 . S
C6432 H6448 0.931 . S
C6433 C6432 1.391 . S
C6433 C6437 1.376 . S
C6434 C6432 1.394 . S
C6434 C6435 1.369 . S
C6434 C6438 1.531 . S
C6435 C6434 1.369 . S
C6435 C6436 1.410 . S
C6435 C6443 1.503 . S
C6436 C6435 1.410 . S
C6436 C6437 1.392 . S
C6436 C6439 1.511 . S
C6437 C6433 1.376 . S
C6437 C6436 1.392 . S
C6437 H6449 0.929 . S
C6438 C6434 1.531 . S
C6438 H6450 0.960 . S
C6438 H6451 0.962 . S
C6438 H6452 0.960 . S
C6439 C6436 1.511 . S
C6439 H6453 0.961 . S
C6439 H6454 0.961 . S
C6439 H6455 0.961 . S
C6440 C6441 1.370 . S
C6440 C6442 1.363 . S
C6440 H6456 0.931 1_554 S
C6441 C6440 1.370 . S
C6441 C6445 1.408 . S
C6442 C6440 1.363 . S
C6442 C6443 1.370 . S
C6442 C6446 1.524 1_554 S
C6443 C6435 1.503 . S
C6443 C6442 1.370 . S
C6443 C6444 1.403 . S
C6444 C6443 1.403 . S
C6444 C6445 1.404 . S
C6444 C6447 1.539 . S
C6445 C6441 1.408 . S
C6445 C6444 1.404 . S
C6445 H6457 0.930 . S
C6446 C6442 1.524 1_556 S
C6446 H6458 0.956 . S
C6446 H6459 0.961 . S
C6446 H6460 0.961 . S
C6447 C6444 1.539 . S
C6447 H6461 0.958 . S
C6447 H6462 0.961 . S
C6447 H6463 0.960 . S
H6448 C6432 0.931 . S
H6449 C6437 0.929 . S
H6450 C6438 0.960 . S
H6451 C6438 0.962 . S
H6452 C6438 0.960 . S
H6453 C6439 0.961 . S
H6454 C6439 0.961 . S
H6455 C6439 0.961 . S
H6456 C6440 0.931 1_556 S
H6457 C6445 0.930 . S
H6458 C6446 0.956 . S
H6459 C6446 0.961 . S
H6460 C6446 0.961 . S
H6461 C6447 0.958 . S
H6462 C6447 0.961 . S
H6463 C6447 0.960 . S
C6464 C6465 1.391 . S
C6464 C6466 1.394 . S
C6464 H6480 0.931 . S
C6465 C6464 1.391 . S
C6465 C6469 1.376 . S
C6466 C6464 1.394 . S
C6466 C6467 1.369 . S
C6466 C6470 1.531 . S
C6467 C6466 1.369 . S
C6467 C6468 1.410 . S
C6467 C6475 1.503 . S
C6468 C6467 1.410 . S
C6468 C6469 1.392 . S
C6468 C6471 1.511 . S
C6469 C6465 1.376 . S
C6469 C6468 1.392 . S
C6469 H6481 0.929 . S
C6470 C6466 1.531 . S
C6470 H6482 0.960 . S
C6470 H6483 0.962 . S
C6470 H6484 0.960 . S
C6471 C6468 1.511 . S
C6471 H6485 0.961 . S
C6471 H6486 0.961 . S
C6471 H6487 0.961 . S
C6472 C6473 1.370 . S
C6472 C6474 1.363 . S
C6472 H6488 0.931 . S
C6473 C6472 1.370 . S
C6473 C6477 1.408 . S
C6474 C6472 1.363 . S
C6474 C6475 1.370 . S
C6474 C6478 1.524 . S
C6475 C6467 1.503 . S
C6475 C6474 1.370 . S
C6475 C6476 1.403 . S
C6476 C6475 1.403 . S
C6476 C6477 1.404 . S
C6476 C6479 1.539 . S
C6477 C6473 1.408 . S
C6477 C6476 1.404 . S
C6477 H6489 0.930 . S
C6478 C6474 1.524 . S
C6478 H6490 0.956 . S
C6478 H6491 0.961 . S
C6478 H6492 0.961 . S
C6479 C6476 1.539 . S
C6479 H6493 0.958 . S
C6479 H6494 0.961 . S
C6479 H6495 0.960 . S
H6480 C6464 0.931 . S
H6481 C6469 0.929 . S
H6482 C6470 0.960 . S
H6483 C6470 0.962 . S
H6484 C6470 0.960 . S
H6485 C6471 0.961 . S
H6486 C6471 0.961 . S
H6487 C6471 0.961 . S
H6488 C6472 0.931 . S
H6489 C6477 0.930 . S
H6490 C6478 0.956 . S
H6491 C6478 0.961 . S
H6492 C6478 0.961 . S
H6493 C6479 0.958 . S
H6494 C6479 0.961 . S
H6495 C6479 0.960 . S
C6496 C6497 1.391 . S
C6496 C6498 1.394 . S
C6496 H6512 0.931 . S
C6497 C6496 1.391 . S
C6497 C6501 1.376 . S
C6498 C6496 1.394 . S
C6498 C6499 1.369 . S
C6498 C6502 1.531 . S
C6499 C6498 1.369 . S
C6499 C6500 1.410 . S
C6499 C6507 1.503 . S
C6500 C6499 1.410 . S
C6500 C6501 1.392 . S
C6500 C6503 1.511 . S
C6501 C6497 1.376 . S
C6501 C6500 1.392 . S
C6501 H6513 0.929 . S
C6502 C6498 1.531 . S
C6502 H6514 0.960 . S
C6502 H6515 0.962 . S
C6502 H6516 0.960 . S
C6503 C6500 1.511 . S
C6503 H6517 0.961 . S
C6503 H6518 0.961 . S
C6503 H6519 0.961 . S
C6504 C6505 1.370 . S
C6504 C6506 1.363 . S
C6504 H6520 0.931 . S
C6505 C6504 1.370 . S
C6505 C6509 1.408 . S
C6506 C6504 1.363 . S
C6506 C6507 1.370 . S
C6506 C6510 1.524 . S
C6507 C6499 1.503 . S
C6507 C6506 1.370 . S
C6507 C6508 1.403 . S
C6508 C6507 1.403 . S
C6508 C6509 1.404 . S
C6508 C6511 1.539 . S
C6509 C6505 1.408 . S
C6509 C6508 1.404 . S
C6509 H6521 0.930 . S
C6510 C6506 1.524 . S
C6510 H6522 0.956 . S
C6510 H6523 0.961 . S
C6510 H6524 0.961 . S
C6511 C6508 1.539 . S
C6511 H6525 0.958 . S
C6511 H6526 0.961 . S
C6511 H6527 0.960 . S
H6512 C6496 0.931 . S
H6513 C6501 0.929 . S
H6514 C6502 0.960 . S
H6515 C6502 0.962 . S
H6516 C6502 0.960 . S
H6517 C6503 0.961 . S
H6518 C6503 0.961 . S
H6519 C6503 0.961 . S
H6520 C6504 0.931 . S
H6521 C6509 0.930 . S
H6522 C6510 0.956 . S
H6523 C6510 0.961 . S
H6524 C6510 0.961 . S
H6525 C6511 0.958 . S
H6526 C6511 0.961 . S
H6527 C6511 0.960 . S
C3457 C665 2.047 . S
C3465 C2168 2.067 . S
C3489 C381 1.790 . S
C3497 C2270 1.797 . S
C3521 C460 1.896 . S
C3529 C2336 1.920 . S
C3561 C2422 1.437 . S
C3553 C585 1.534 . S
C3585 C108 1.535 . S
C3593 C2506 1.435 . S
C3625 C2588 1.920 . S
C3617 C196 1.896 . S
C3657 C2690 1.797 . S
C3649 C313 1.789 . S
C3681 C49 2.040 . S
C3689 C2756 2.070 . S
C3721 C2186 1.516 . S
C3713 C1457 1.555 . S
C3745 C1545 0.815 . S
C3753 C2254 0.787 . S
C3785 C2354 1.017 . S
C3777 C1721 1.027 . S
C3817 C2420 1.635 . S
C3809 C1113 1.639 . S
C3841 C1428 1.610 . S
C3849 C2504 1.641 . S
C3881 C2606 1.023 . S
C3873 C1516 1.029 . S
C3913 C2674 0.764 . S
C3905 C1692 0.809 . S
C3945 C2774 1.527 . S
C3937 C1085 1.540 . S
C3977 C2170 0.920 . S
C3969 C988 0.912 . S
C4001 C1817 1.647 . S
C4009 C2858 1.644 . S
C4041 C2926 1.278 . S
C4033 C2081 1.339 . S
C4073 C3008 0.827 . S
C4065 C1993 0.797 . S
C4097 C761 0.943 . S
C4105 C2758 0.936 . S
C4129 C821 1.338 . S
C4137 C2338 1.277 . S
C4161 C2053 1.636 . S
C4169 C3110 1.635 . S
C4201 C3176 0.817 . S
C4193 C1868 0.852 . S
C4233 C2179 2.067 . S
C4225 C372 2.010 . S
C4265 C3183 1.797 . S
C4257 C645 1.782 . S
C4289 C577 1.887 . S
C4297 C2347 1.918 . S
C4321 C497 1.529 . S
C4329 C3105 1.407 . S
C4361 C2517 1.408 . S
C4353 C57 1.532 . S
C4385 C293 1.855 . S
C4393 C2935 1.919 . S
C4425 C2679 1.798 1_556 S
C4417 C205 1.785 . S
C4457 C3271 2.063 . S
C4449 C145 2.045 . S
C4489 C2175 1.498 . S
C4481 C909 1.563 . S
C4521 C3189 0.822 . S
C4513 C1956 0.803 . S
C4545 C724 1.030 . S
C4553 C2343 1.025 . S
C4577 C1780 1.626 . S
C4585 C3103 1.636 . S
C4609 C937 1.603 . S
C4617 C2515 1.641 . S
C4649 C2931 1.017 . S
C4641 C1985 1.024 . S
C4673 C753 0.801 . S
C4681 C2685 0.796 . S
C4705 C1809 1.555 . S
C4713 C3267 1.514 . S
C4737 C1173 0.941 . S
C4745 C2181 0.898 . S
C4769 C1105 1.657 . S
C4777 C2847 1.637 . S
C4801 C1633 1.322 . S
C4809 C2601 1.250 . S
C4833 C1553 0.814 . S
C4841 C3019 0.824 . S
C4873 C3273 0.919 . S
C4865 C1729 0.903 . S
C4897 C1340 1.336 . S
C4905 C2349 1.274 . S
C4937 C2427 1.626 . S
C4929 C1604 1.634 . S
C4969 C2263 0.827 . S
C4961 C1252 0.771 . S
C4993 C489 2.046 . S
C5001 C3344 2.068 . S
C5033 C3194 1.805 . S
C5025 C557 1.812 . S
C5057 C636 1.867 1_554 S
C5065 C3428 1.927 . S
C5089 C409 1.532 . S
C5097 C3094 1.402 . S
C5121 C284 1.531 . S
C5129 C2842 1.409 . S
C5161 C2924 1.928 . S
C5153 C20 1.863 . S
C5193 C3026 1.806 . S
C5185 C137 1.812 . S
C5225 C3260 2.075 . S
C5217 C225 2.008 . S
C5257 C3362 1.509 . S
C5249 C1641 1.557 . S
C5281 C1193 0.816 . S
C5289 C3178 0.817 . S
C5321 C3446 1.026 . S
C5313 C1289 1.030 . S
C5353 C3092 1.646 . S
C5345 C1377 1.599 . S
C5385 C2840 1.641 . S
C5377 C1613 1.611 . S
C5409 C1164 1.029 . S
C5417 C2942 1.024 . S
C5449 C3010 0.768 . S
C5441 C1261 0.811 . S
C5473 C1349 1.566 . S
C5481 C3278 1.502 . S
C5513 C3346 0.928 . S
C5505 C1965 0.924 . S
C5537 C849 1.660 . S
C5545 C2522 1.637 . S
C5577 C2590 1.256 . S
C5569 C929 1.326 . S
C5609 C2672 0.833 . S
C5601 C1017 0.777 . S
C5641 C3262 0.895 . S
C5633 C1897 0.917 . S
C5665 C1789 1.320 . S
C5673 C3430 1.249 . S
C5705 C2438 1.643 . S
C5697 C900 1.642 . S
C5737 C2252 0.818 . S
C5729 C733 0.849 . S
C5761 C548 2.014 . S
C5769 C3355 2.066 . S
C5801 C2259 1.803 . S
C5793 C469 1.806 . S
C5825 C401 1.847 . S
C5833 C3439 1.921 . S
C5857 C673 1.530 . S
C5865 C2433 1.434 . S
C5889 C233 1.532 . S
C5897 C2853 1.402 . S
C5929 C2599 1.924 . S
C5921 C117 1.845 . S
C5953 C29 1.801 . S
C5961 C3015 1.800 . S
C5985 C321 2.044 . S
C5993 C2767 2.062 . S
C6025 C3351 1.498 . S
C6017 C2044 1.557 . S
C6049 C997 0.803 . S
C6057 C2265 0.776 . S
C6089 C3435 1.025 1_655 S
C6081 C1877 1.030 . S
C6113 C812 1.598 . S
C6121 C2431 1.641 . S
C6145 C2073 1.603 . S
C6153 C2851 1.641 . S
C6185 C2595 1.015 . S
C6177 C1025 1.031 . S
C6209 C1905 0.801 . S
C6217 C3021 0.801 . S
C6249 C2763 1.505 . S
C6241 C841 1.546 . S
C6281 C3357 0.925 . S
C6273 C1525 0.962 . S
C6313 C2511 1.626 1_565 S
C6305 C1369 1.641 . S
C6337 C1465 1.321 . S
C6345 C2937 1.247 . S
C6377 C2683 0.823 . S
C6369 C1201 0.819 . S
C6401 C1281 0.960 . S
C6409 C2769 0.930 . S
C6433 C1076 1.338 . S
C6441 C3441 1.279 . S
C6473 C3099 1.641 . S
C6465 C1437 1.648 . S
C6505 C3187 0.808 . S
C6497 C1701 0.834 . S
