# Generated by pormake.
# Topology zzz, (3,6)-cn, num edge types: 1
# Building blocks:
#     Node 0, Type 0, BuildingBlock: OLANEW_clean_sbu_2, # of connection points: 3
#     Node 1, Type 0, BuildingBlock: OLANEW_clean_sbu_2, # of connection points: 3
#     Node 2, Type 0, BuildingBlock: OLANEW_clean_sbu_2, # of connection points: 3
#     Node 3, Type 0, BuildingBlock: OLANEW_clean_sbu_2, # of connection points: 3
#     Node 4, Type 0, BuildingBlock: OLANEW_clean_sbu_2, # of connection points: 3
#     Node 5, Type 0, BuildingBlock: OLANEW_clean_sbu_2, # of connection points: 3
#     Node 6, Type 0, BuildingBlock: OLANEW_clean_sbu_2, # of connection points: 3
#     Node 7, Type 0, BuildingBlock: OLANEW_clean_sbu_2, # of connection points: 3
#     Node 8, Type 1, BuildingBlock: BETDEL_clean_sbu_0, # of connection points: 6
#     Node 9, Type 1, BuildingBlock: BETDEL_clean_sbu_0, # of connection points: 6
#     Node 10, Type 1, BuildingBlock: BETDEL_clean_sbu_0, # of connection points: 6
#     Node 11, Type 1, BuildingBlock: BETDEL_clean_sbu_0, # of connection points: 6
#     Edge 12, Type (0, 1), BuildingBlock: ZUJKAS_clean_linker_0, # of connection points: 2
#     Edge 13, Type (0, 1), BuildingBlock: ZUJKAS_clean_linker_0, # of connection points: 2
#     Edge 14, Type (0, 1), BuildingBlock: ZUJKAS_clean_linker_0, # of connection points: 2
#     Edge 15, Type (0, 1), BuildingBlock: ZUJKAS_clean_linker_0, # of connection points: 2
#     Edge 16, Type (0, 1), BuildingBlock: ZUJKAS_clean_linker_0, # of connection points: 2
#     Edge 17, Type (0, 1), BuildingBlock: ZUJKAS_clean_linker_0, # of connection points: 2
#     Edge 18, Type (0, 1), BuildingBlock: ZUJKAS_clean_linker_0, # of connection points: 2
#     Edge 19, Type (0, 1), BuildingBlock: ZUJKAS_clean_linker_0, # of connection points: 2
#     Edge 20, Type (0, 1), BuildingBlock: ZUJKAS_clean_linker_0, # of connection points: 2
#     Edge 21, Type (0, 1), BuildingBlock: ZUJKAS_clean_linker_0, # of connection points: 2
#     Edge 22, Type (0, 1), BuildingBlock: ZUJKAS_clean_linker_0, # of connection points: 2
#     Edge 23, Type (0, 1), BuildingBlock: ZUJKAS_clean_linker_0, # of connection points: 2
#     Edge 24, Type (0, 1), BuildingBlock: ZUJKAS_clean_linker_0, # of connection points: 2
#     Edge 25, Type (0, 1), BuildingBlock: ZUJKAS_clean_linker_0, # of connection points: 2
#     Edge 26, Type (0, 1), BuildingBlock: ZUJKAS_clean_linker_0, # of connection points: 2
#     Edge 27, Type (0, 1), BuildingBlock: ZUJKAS_clean_linker_0, # of connection points: 2
#     Edge 28, Type (0, 1), BuildingBlock: ZUJKAS_clean_linker_0, # of connection points: 2
#     Edge 29, Type (0, 1), BuildingBlock: ZUJKAS_clean_linker_0, # of connection points: 2
#     Edge 30, Type (0, 1), BuildingBlock: ZUJKAS_clean_linker_0, # of connection points: 2
#     Edge 31, Type (0, 1), BuildingBlock: ZUJKAS_clean_linker_0, # of connection points: 2
#     Edge 32, Type (0, 1), BuildingBlock: ZUJKAS_clean_linker_0, # of connection points: 2
#     Edge 33, Type (0, 1), BuildingBlock: ZUJKAS_clean_linker_0, # of connection points: 2
#     Edge 34, Type (0, 1), BuildingBlock: ZUJKAS_clean_linker_0, # of connection points: 2
#     Edge 35, Type (0, 1), BuildingBlock: ZUJKAS_clean_linker_0, # of connection points: 2
# Relax obj value: 0.148
# Max RMSD: 0.170
# Mean RMSD: 0.119
data_MOF--net-zzz--node1-OLANEW_clean_sbu_2--node2-BETDEL_clean_sbu_0--edge1-ZUJKAS_clean_linker_0
_symmetry_space_group_name_H-M    P1
_symmetry_Int_Tables_number       1
_symmetry_cell_setting            triclinic
loop_
_symmetry_equiv_pos_as_xyz
'x, y, z'
_cell_length_a     67.933801
_cell_length_b     67.945879
_cell_length_c     21.265309
_cell_angle_alpha  91.594239
_cell_angle_beta   88.746923
_cell_angle_gamma 95.899682
loop_
_atom_site_label
_atom_site_type_symbol
_atom_site_fract_x
_atom_site_fract_y
_atom_site_fract_z
_atom_type_partial_charge
O0 O 0.77358 0.50465 0.07764 0.0
Cd1 Cd 0.7465 0.50518 0.1553 0.0
O2 O 0.76195 0.47674 0.03077 0.0
Cd3 Cd 0.74726 0.46862 0.11945 0.0
O4 O 0.7724 0.46883 0.18131 0.0
C5 C 0.787 0.46087 0.15688 0.0
O6 O 0.78477 0.45151 0.10219 0.0
C7 C 0.77434 0.49211 0.03227 0.0
C8 C 0.71074 0.50558 0.09361 0.0
O9 O 0.72178 0.52169 0.10486 0.0
O10 O 0.71639 0.48941 0.11275 0.0
O11 O 0.90549 0.75859 0.89592 0.0
Cd12 Cd 0.89163 0.72475 0.91768 0.0
O13 O 0.91515 0.76082 0.99376 0.0
Cd14 Cd 0.92686 0.77837 0.07458 0.0
O15 O 0.93651 0.80213 0.14119 0.0
C16 C 0.93162 0.81933 0.1315 0.0
O17 O 0.92096 0.82202 0.08221 0.0
C18 C 0.91409 0.76866 0.94049 0.0
C19 C 0.91233 0.69609 0.857 0.0
O20 O 0.89739 0.70249 0.83145 0.0
O21 O 0.91757 0.70336 0.91107 0.0
O22 O 0.72848 0.91969 0.82932 0.0
Cd23 Cd 0.74982 0.89779 0.87738 0.0
O24 O 0.72722 0.93459 0.92162 0.0
Cd25 Cd 0.71827 0.95659 0.99043 0.0
O26 O 0.70045 0.97087 0.06106 0.0
C27 C 0.69919 0.96419 0.11638 0.0
O28 O 0.70954 0.94961 0.13 0.0
C29 C 0.72213 0.93321 0.8643 0.0
C30 C 0.78879 0.91455 0.86703 0.0
O31 O 0.78145 0.90197 0.82567 0.0
O32 O 0.7778 0.91885 0.91415 0.0
O33 O 0.59513 0.74927 0.93808 0.0
Cd34 Cd 0.61046 0.78278 0.96008 0.0
O35 O 0.59746 0.74376 0.03861 0.0
Cd36 Cd 0.5952 0.72352 0.11692 0.0
O37 O 0.58898 0.69789 0.17598 0.0
C38 C 0.59072 0.69924 0.23531 0.0
O39 O 0.59657 0.71651 0.26165 0.0
C40 C 0.59221 0.73764 0.98384 0.0
C41 C 0.59044 0.8118 0.90665 0.0
O42 O 0.60452 0.80421 0.87666 0.0
O43 O 0.58572 0.80553 0.9618 0.0
O44 O 0.26263 0.55671 0.21596 0.0
Cd45 Cd 0.29607 0.56273 0.17192 0.0
O46 O 0.25775 0.53546 0.13717 0.0
Cd47 Cd 0.23753 0.51669 0.07756 0.0
O48 O 0.20973 0.50798 0.03086 0.0
C49 C 0.19577 0.5187 0.04266 0.0
O50 O 0.1989 0.53398 0.08167 0.0
C51 C 0.25121 0.54386 0.18642 0.0
C52 C 0.32361 0.54973 0.25178 0.0
O53 O 0.32 0.56789 0.25293 0.0
O54 O 0.31425 0.53774 0.21259 0.0
O55 O 0.09284 0.24399 0.22519 0.0
Cd56 Cd 0.10136 0.27151 0.15473 0.0
O57 O 0.12056 0.23073 0.20559 0.0
Cd58 Cd 0.12462 0.24587 0.11673 0.0
O59 O 0.11152 0.22521 0.04513 0.0
C60 C 0.09321 0.21958 0.05279 0.0
O61 O 0.08317 0.22832 0.09699 0.0
C62 C 0.10446 0.23108 0.23696 0.0
C63 C 0.08824 0.30601 0.20725 0.0
O64 O 0.07734 0.29475 0.1698 0.0
O65 O 0.10546 0.30109 0.21915 0.0
O66 O 0.25657 0.9558 0.20752 0.0
Cd67 Cd 0.22584 0.95575 0.15078 0.0
O68 O 0.2664 0.98224 0.1545 0.0
Cd69 Cd 0.28861 0.00488 0.11868 0.0
O70 O 0.31461 0.01909 0.07041 0.0
C71 C 0.33073 0.01145 0.0767 0.0
O72 O 0.33088 0.99619 0.11321 0.0
C73 C 0.26983 0.96983 0.19557 0.0
C74 C 0.19679 0.96759 0.23318 0.0
O75 O 0.19857 0.94921 0.2223 0.0
O76 O 0.20854 0.9804 0.20409 0.0
O77 O 0.45432 0.27227 0.12384 0.0
Cd78 Cd 0.44337 0.24152 0.06705 0.0
O79 O 0.42811 0.26875 0.18649 0.0
Cd80 Cd 0.41221 0.25265 0.1101 0.0
O81 O 0.41268 0.27559 0.03995 0.0
C82 C 0.40882 0.29232 0.06262 0.0
O83 O 0.40281 0.2935 0.12163 0.0
C84 C 0.44507 0.27755 0.17313 0.0
C85 C 0.4535 0.21001 0.13667 0.0
O86 O 0.46448 0.21656 0.09049 0.0
O87 O 0.43757 0.21807 0.14901 0.0
Dy88 Dy 0.00137 0.99507 0.70769 0.0
C89 C 0.01806 0.0533 0.51614 0.0
C90 C 0.98652 0.96611 0.78737 0.0
Dy91 Dy 0.0042 0.02478 0.5981 0.0
O92 O 0.0051 0.97287 0.78245 0.0
O93 O 0.97617 0.9755 0.74992 0.0
O94 O 0.0346 0.99546 0.70642 0.0
O95 O 0.01956 0.99985 0.62367 0.0
C96 C 0.03634 0.0002 0.64756 0.0
C97 C 0.96904 0.01867 0.65657 0.0
O98 O 0.99662 0.99743 0.54028 0.0
O99 O 0.98808 0.97694 0.62491 0.0
O100 O 0.0007 0.052 0.54344 0.0
O101 O 0.02764 0.03873 0.53245 0.0
O102 O 0.97098 0.02268 0.59709 0.0
O103 O 0.98573 0.01973 0.68174 0.0
O104 O 0.00794 0.02338 0.7636 0.0
O105 O 0.02004 0.04156 0.6775 0.0
C106 C 0.98891 0.98035 0.56344 0.0
C107 C 0.0177 0.03943 0.73911 0.0
Dy108 Dy 0.49337 0.00363 0.54494 0.0
C109 C 0.56993 0.03514 0.63247 0.0
C110 C 0.45554 0.99187 0.50954 0.0
Dy111 Dy 0.53135 0.02672 0.59872 0.0
O112 O 0.47127 0.98481 0.48636 0.0
O113 O 0.46042 0.00523 0.5529 0.0
O114 O 0.51209 0.98479 0.48519 0.0
O115 O 0.52235 0.01434 0.50758 0.0
C116 C 0.52691 0.99845 0.48217 0.0
C117 C 0.4979 0.03167 0.66226 0.0
O118 O 0.52349 0.05012 0.53492 0.0
O119 O 0.49255 0.03427 0.50768 0.0
O120 O 0.55473 0.03519 0.67063 0.0
O121 O 0.56391 0.03136 0.57548 0.0
O122 O 0.51277 0.04538 0.65952 0.0
O123 O 0.50245 0.0158 0.63639 0.0
O124 O 0.50047 0.98185 0.61534 0.0
O125 O 0.53325 0.99496 0.62398 0.0
C126 C 0.50622 0.04977 0.50659 0.0
C127 C 0.51883 0.98054 0.63333 0.0
Dy128 Dy 0.50789 0.5113 0.73135 0.0
C129 C 0.5048 0.45629 0.52042 0.0
C130 C 0.51703 0.53953 0.82295 0.0
Dy131 Dy 0.51195 0.4836 0.61564 0.0
O132 O 0.49964 0.53535 0.79885 0.0
O133 O 0.52921 0.52779 0.79841 0.0
O134 O 0.475 0.50881 0.71952 0.0
O135 O 0.49394 0.50739 0.64019 0.0
C136 C 0.47615 0.50564 0.65899 0.0
C137 C 0.54362 0.48976 0.68829 0.0
O138 O 0.52069 0.51202 0.56822 0.0
O139 O 0.52536 0.53076 0.6608 0.0
O140 O 0.5214 0.45976 0.54977 0.0
O141 O 0.49217 0.46796 0.54246 0.0
O142 O 0.54493 0.48691 0.62769 0.0
O143 O 0.52582 0.48762 0.70666 0.0
O144 O 0.49838 0.48275 0.77804 0.0
O145 O 0.49389 0.46429 0.68459 0.0
C146 C 0.52719 0.52861 0.59867 0.0
C147 C 0.49182 0.46629 0.74667 0.0
Dy148 Dy 0.98655 0.49568 0.58973 0.0
C149 C 0.05058 0.50569 0.39954 0.0
C150 C 0.95436 0.49291 0.66835 0.0
Dy151 Dy 0.01969 0.50832 0.48188 0.0
O152 O 0.95682 0.48121 0.62 0.0
O153 O 0.96965 0.50597 0.67438 0.0
O154 O 0.99794 0.4657 0.59083 0.0
O155 O 0.00035 0.48212 0.50834 0.0
C156 C 0.00508 0.46681 0.53358 0.0
C157 C 0.00731 0.53966 0.54673 0.0
O158 O 0.9921 0.50308 0.42507 0.0
O159 O 0.96946 0.50525 0.50911 0.0
O160 O 0.0373 0.51812 0.39534 0.0
O161 O 0.04663 0.4945 0.44776 0.0
O162 O 0.02057 0.5417 0.50156 0.0
O163 O 0.0026 0.52155 0.55269 0.0
O164 O 0.01306 0.50305 0.64861 0.0
O165 O 0.03705 0.5031 0.56778 0.0
C166 C 0.97392 0.50474 0.44793 0.0
C167 C 0.03171 0.50332 0.62839 0.0
H168 H 0.19464 0.00441 0.28644 0.0
H169 H 0.17071 0.01424 0.36606 0.0
H170 H 0.14104 0.95495 0.36117 0.0
H171 H 0.16527 0.94487 0.28352 0.0
H172 H 0.13203 0.01525 0.36354 0.0
H173 H 0.14832 0.96352 0.54641 0.0
H174 H 0.164 0.96782 0.47757 0.0
H175 H 0.14219 0.95034 0.47419 0.0
C176 C 0.18304 0.99347 0.30254 0.0
C177 C 0.18191 0.97383 0.27917 0.0
C178 C 0.16941 0.9991 0.34807 0.0
C179 C 0.15439 0.98521 0.37073 0.0
C180 C 0.15291 0.96575 0.346 0.0
H181 H 0.0403 0.99911 0.5205 0.0
H182 H 0.07073 0.99881 0.45805 0.0
C183 C 0.16666 0.96005 0.30118 0.0
C184 C 0.13978 0.99112 0.41858 0.0
H185 H 0.11651 0.97639 0.55559 0.0
C186 C 0.12884 0.00696 0.40606 0.0
C187 C 0.13599 0.98071 0.47502 0.0
C188 C 0.14843 0.96482 0.49442 0.0
C189 C 0.11339 0.01186 0.44651 0.0
C190 C 0.10837 0.00018 0.49973 0.0
C191 C 0.12012 0.98516 0.51427 0.0
C192 C 0.09014 0.00214 0.53799 0.0
C193 C 0.10257 0.02942 0.43141 0.0
C194 C 0.09081 0.00359 0.604 0.0
C195 C 0.0733 0.00331 0.64001 0.0
C196 C 0.05493 0.00166 0.61043 0.0
C197 C 0.0543 0.00061 0.54448 0.0
C198 C 0.07172 0.00063 0.50866 0.0
H199 H 0.11249 0.04078 0.40633 0.0
H200 H 0.09013 0.02449 0.39982 0.0
H201 H 0.09654 0.03639 0.47455 0.0
H202 H 0.10485 0.0046 0.62766 0.0
H203 H 0.07412 0.00415 0.69084 0.0
H204 H 0.47921 0.1828 0.10515 0.0
H205 H 0.48842 0.15596 0.16935 0.0
H206 H 0.45102 0.1749 0.32126 0.0
H207 H 0.44102 0.20107 0.25613 0.0
H208 H 0.50692 0.15555 0.27548 0.0
H209 H 0.4315 0.11785 0.31127 0.0
H210 H 0.43673 0.13757 0.25653 0.0
H211 H 0.43328 0.14308 0.33919 0.0
C212 C 0.47284 0.18111 0.15207 0.0
C213 C 0.45921 0.19385 0.17537 0.0
C214 C 0.47815 0.16581 0.1888 0.0
C215 C 0.47011 0.16311 0.24977 0.0
C216 C 0.45693 0.17622 0.27369 0.0
H217 H 0.52063 0.08872 0.52324 0.0
H218 H 0.51238 0.11688 0.46283 0.0
C219 C 0.4513 0.19126 0.23654 0.0
C220 C 0.47574 0.14675 0.28845 0.0
H221 H 0.45668 0.10739 0.37462 0.0
C222 C 0.49593 0.14494 0.29687 0.0
C223 C 0.46143 0.13273 0.31574 0.0
C224 C 0.43955 0.13276 0.30469 0.0
C225 C 0.5022 0.12955 0.33174 0.0
C226 C 0.48787 0.116 0.36107 0.0
C227 C 0.46769 0.11787 0.35273 0.0
C228 C 0.49328 0.09915 0.39803 0.0
C229 C 0.5241 0.12764 0.3349 0.0
C230 C 0.48485 0.07989 0.38319 0.0
C231 C 0.48908 0.06395 0.41867 0.0
C232 C 0.50208 0.06684 0.46932 0.0
C233 C 0.51072 0.08606 0.48399 0.0
C234 C 0.50613 0.10213 0.44918 0.0
H235 H 0.53242 0.13517 0.29529 0.0
H236 H 0.52988 0.13473 0.37934 0.0
H237 H 0.52711 0.11188 0.33386 0.0
H238 H 0.47492 0.07716 0.344 0.0
H239 H 0.48229 0.0493 0.40594 0.0
H240 H 0.32794 0.51165 0.28224 0.0
H241 H 0.35151 0.50036 0.3553 0.0
H242 H 0.37611 0.56077 0.38844 0.0
H243 H 0.35209 0.57219 0.3177 0.0
H244 H 0.39026 0.50245 0.35316 0.0
H245 H 0.36691 0.54345 0.56511 0.0
H246 H 0.35269 0.54143 0.49417 0.0
H247 H 0.3735 0.55999 0.50218 0.0
C248 C 0.33832 0.52252 0.30544 0.0
C249 C 0.33808 0.54281 0.29475 0.0
C250 C 0.35176 0.51605 0.34714 0.0
C251 C 0.36529 0.52974 0.37849 0.0
C252 C 0.36539 0.54998 0.36649 0.0
H253 H 0.47718 0.51203 0.53325 0.0
H254 H 0.44913 0.51512 0.46578 0.0
C255 C 0.35175 0.55648 0.32564 0.0
C256 C 0.37972 0.5229 0.42224 0.0
H257 H 0.39911 0.53182 0.56803 0.0
C258 C 0.39203 0.50867 0.40047 0.0
C259 C 0.38172 0.53062 0.48453 0.0
C260 C 0.36783 0.54454 0.51306 0.0
C261 C 0.40686 0.50262 0.43831 0.0
C262 C 0.40989 0.51157 0.49872 0.0
C263 C 0.39701 0.52514 0.52142 0.0
C264 C 0.42682 0.50788 0.53821 0.0
C265 C 0.41899 0.48664 0.41311 0.0
C266 C 0.42372 0.50316 0.60184 0.0
C267 C 0.4398 0.50193 0.64092 0.0
C268 C 0.45921 0.50522 0.61686 0.0
C269 C 0.46233 0.50928 0.55284 0.0
C270 C 0.44628 0.51086 0.51407 0.0
H271 H 0.41041 0.47656 0.37929 0.0
H272 H 0.43221 0.49358 0.38748 0.0
H273 H 0.42399 0.4777 0.45149 0.0
H274 H 0.40885 0.50086 0.6216 0.0
H275 H 0.43704 0.49873 0.69014 0.0
H276 H 0.05335 0.32133 0.18659 0.0
H277 H 0.0407 0.35002 0.23932 0.0
H278 H 0.09351 0.35937 0.34973 0.0
H279 H 0.10645 0.33093 0.29637 0.0
H280 H 0.03247 0.35493 0.36424 0.0
H281 H 0.08891 0.4145 0.28601 0.0
H282 H 0.08644 0.3901 0.24942 0.0
H283 H 0.09921 0.39447 0.32248 0.0
C284 C 0.06237 0.3296 0.22163 0.0
C285 C 0.08093 0.32388 0.23717 0.0
C286 C 0.05511 0.34599 0.25175 0.0
C287 C 0.06627 0.35699 0.29785 0.0
C288 C 0.08484 0.35137 0.3133 0.0
H289 H 0.01766 0.43381 0.58297 0.0
H290 H 0.03326 0.40737 0.52648 0.0
C291 C 0.09216 0.33503 0.28301 0.0
C292 C 0.05798 0.37368 0.33203 0.0
H293 H 0.06659 0.4231 0.36774 0.0
C294 C 0.0399 0.36985 0.36483 0.0
C295 C 0.06759 0.39317 0.33219 0.0
C296 C 0.08651 0.3984 0.29516 0.0
C297 C 0.03126 0.38492 0.39839 0.0
C298 C 0.04119 0.40427 0.40031 0.0
C299 C 0.05914 0.40819 0.36683 0.0
C300 C 0.03286 0.42076 0.43537 0.0
C301 C 0.01137 0.38006 0.4304 0.0
C302 C 0.02814 0.43737 0.40327 0.0
C303 C 0.01938 0.45252 0.43549 0.0
C304 C 0.01529 0.45134 0.5004 0.0
C305 C 0.02052 0.43499 0.53283 0.0
C306 C 0.02933 0.41985 0.5006 0.0
H307 H 0.0035 0.36615 0.41091 0.0
H308 H 0.01354 0.37804 0.48129 0.0
H309 H 0.00181 0.39221 0.42547 0.0
H310 H 0.03083 0.4384 0.353 0.0
H311 H 0.01549 0.46497 0.40935 0.0
H312 H 0.81672 0.90625 0.77866 0.0
H313 H 0.84884 0.92494 0.7586 0.0
H314 H 0.83857 0.96445 0.91537 0.0
H315 H 0.80638 0.94582 0.93597 0.0
H316 H 0.84856 0.98314 0.79846 0.0
H317 H 0.90137 0.92963 0.85734 0.0
H318 H 0.88173 0.91954 0.80701 0.0
H319 H 0.87602 0.92749 0.88603 0.0
C320 C 0.82141 0.91873 0.80948 0.0
C321 C 0.809 0.92459 0.8588 0.0
C322 C 0.83981 0.92931 0.79817 0.0
C323 C 0.8461 0.94593 0.83591 0.0
C324 C 0.83398 0.95157 0.88605 0.0
H325 H 0.96237 0.01236 0.78145 0.0
H326 H 0.93229 0.99617 0.8313 0.0
C327 C 0.81562 0.9409 0.89772 0.0
C328 C 0.86451 0.95836 0.81927 0.0
H329 H 0.91419 0.95715 0.79601 0.0
C330 C 0.86297 0.97758 0.79867 0.0
C331 C 0.88325 0.95108 0.82015 0.0
C332 C 0.8858 0.93086 0.84436 0.0
C333 C 0.87962 0.98943 0.77629 0.0
C334 C 0.89818 0.98176 0.77413 0.0
C335 C 0.89988 0.96289 0.79732 0.0
C336 C 0.91583 0.99268 0.74508 0.0
C337 C 0.87722 0.00996 0.75442 0.0
C338 C 0.91642 0.9961 0.68026 0.0
C339 C 0.93358 0.00516 0.65169 0.0
C340 C 0.95041 0.01084 0.68755 0.0
C341 C 0.9496 0.00796 0.75275 0.0
C342 C 0.93248 0.99875 0.78124 0.0
H343 H 0.86339 0.01544 0.77368 0.0
H344 H 0.89 0.02055 0.76853 0.0
H345 H 0.87651 0.00968 0.70231 0.0
H346 H 0.90377 0.99126 0.6515 0.0
H347 H 0.93385 0.00718 0.60132 0.0
H348 H 0.59852 0.82948 0.79385 0.0
H349 H 0.58301 0.85698 0.75097 0.0
H350 H 0.54376 0.8574 0.91304 0.0
H351 H 0.55941 0.83007 0.9569 0.0
H352 H 0.54375 0.86062 0.72056 0.0
H353 H 0.57006 0.91439 0.90996 0.0
H354 H 0.57967 0.89074 0.89844 0.0
H355 H 0.55599 0.89224 0.9366 0.0
C356 C 0.58656 0.83537 0.82036 0.0
C357 C 0.58032 0.8277 0.87907 0.0
C358 C 0.57768 0.85106 0.7957 0.0
C359 C 0.56244 0.8594 0.82926 0.0
C360 C 0.55576 0.85141 0.88697 0.0
H361 H 0.49388 0.94765 0.66456 0.0
H362 H 0.5027 0.91772 0.7143 0.0
C363 C 0.56467 0.83574 0.9118 0.0
C364 C 0.55395 0.87675 0.8042 0.0
H365 H 0.5498 0.92583 0.83312 0.0
C366 C 0.54494 0.87487 0.74525 0.0
C367 C 0.55572 0.89533 0.83638 0.0
C368 C 0.56602 0.89844 0.8986 0.0
C369 C 0.53787 0.89117 0.71718 0.0
C370 C 0.5396 0.90973 0.74946 0.0
C371 C 0.54836 0.91153 0.80879 0.0
C372 C 0.53387 0.92784 0.72054 0.0
C373 C 0.5293 0.88857 0.65225 0.0
C374 C 0.54838 0.94359 0.70898 0.0
C375 C 0.54341 0.96069 0.6811 0.0
C376 C 0.52377 0.96245 0.66427 0.0
C377 C 0.50916 0.94673 0.67662 0.0
C378 C 0.51418 0.92958 0.70474 0.0
H379 H 0.53278 0.8745 0.62876 0.0
H380 H 0.51296 0.88836 0.65595 0.0
H381 H 0.53499 0.90106 0.6221 0.0
H382 H 0.56366 0.94255 0.72093 0.0
H383 H 0.55507 0.97247 0.6724 0.0
H384 H 0.6981 0.53594 0.02854 0.0
H385 H 0.66909 0.53475 0.9619 0.0
H386 H 0.65291 0.47393 0.01056 0.0
H387 H 0.68215 0.47482 0.07582 0.0
H388 H 0.65229 0.47873 0.88589 0.0
H389 H 0.61113 0.53554 0.00748 0.0
H390 H 0.63604 0.54451 0.98557 0.0
H391 H 0.6317 0.52543 0.04268 0.0
C392 C 0.68823 0.52239 0.02564 0.0
C393 C 0.6924 0.50547 0.05743 0.0
C394 C 0.6716 0.52177 0.9878 0.0
C395 C 0.65869 0.50434 0.98194 0.0
C396 C 0.66265 0.48755 0.01456 0.0
H397 H 0.54284 0.48888 0.8161 0.0
H398 H 0.57111 0.49302 0.88633 0.0
C399 C 0.67935 0.4881 0.05189 0.0
C400 C 0.64172 0.50312 0.93892 0.0
H401 H 0.59945 0.52385 0.90712 0.0
C402 C 0.6407 0.48855 0.89066 0.0
C403 C 0.62653 0.51584 0.94559 0.0
C404 C 0.62625 0.53109 0.99849 0.0
C405 C 0.62494 0.48636 0.84872 0.0
C406 C 0.61007 0.49947 0.85417 0.0
C407 C 0.61101 0.51398 0.90263 0.0
C408 C 0.59303 0.49785 0.81144 0.0
C409 C 0.62414 0.46971 0.80004 0.0
C410 C 0.59597 0.49957 0.74618 0.0
C411 C 0.57986 0.49704 0.70596 0.0
C412 C 0.56057 0.49305 0.73055 0.0
C413 C 0.55759 0.49193 0.79596 0.0
C414 C 0.5737 0.49432 0.83609 0.0
H415 H 0.6335 0.45801 0.81293 0.0
H416 H 0.60874 0.46284 0.79383 0.0
H417 H 0.62974 0.47565 0.75422 0.0
H418 H 0.61073 0.50276 0.72632 0.0
H419 H 0.5825 0.49818 0.65571 0.0
H420 H 0.9466 0.68217 0.89325 0.0
H421 H 0.96415 0.65637 0.84111 0.0
H422 H 0.91956 0.64867 0.69871 0.0
H423 H 0.90221 0.67476 0.74959 0.0
H424 H 0.95206 0.6177 0.81847 0.0
H425 H 0.9698 0.65494 0.59278 0.0
H426 H 0.96092 0.66778 0.66144 0.0
H427 H 0.94384 0.65278 0.61205 0.0
C428 C 0.9406 0.67508 0.85059 0.0
C429 C 0.92308 0.6806 0.82532 0.0
C430 C 0.95063 0.66032 0.82091 0.0
C431 C 0.94335 0.65082 0.76544 0.0
C432 C 0.92573 0.65614 0.74055 0.0
H433 H 0.97197 0.53771 0.60981 0.0
H434 H 0.95711 0.56467 0.66556 0.0
C435 C 0.91577 0.67099 0.76993 0.0
C436 C 0.95386 0.63494 0.73467 0.0
H437 H 0.97442 0.62064 0.59501 0.0
C438 C 0.95707 0.61839 0.76973 0.0
C439 C 0.96067 0.63599 0.67137 0.0
C440 C 0.95883 0.65392 0.63238 0.0
C441 C 0.96651 0.60266 0.74281 0.0
C442 C 0.97248 0.60331 0.67864 0.0
C443 C 0.96966 0.62006 0.64401 0.0
C444 C 0.98165 0.58679 0.64631 0.0
C445 C 0.97025 0.58568 0.78372 0.0
C446 C 0.0001 0.59033 0.61533 0.0
C447 C 0.00849 0.57495 0.58303 0.0
C448 C 0.99862 0.55577 0.58156 0.0
C449 C 0.98013 0.55224 0.61208 0.0
C450 C 0.97164 0.56764 0.64386 0.0
H451 H 0.97045 0.59018 0.83436 0.0
H452 H 0.95819 0.57353 0.77737 0.0
H453 H 0.98453 0.57986 0.77091 0.0
H454 H 0.00802 0.60501 0.61616 0.0
H455 H 0.02272 0.57803 0.55944 0.0
H456 H 0.06914 0.22483 0.30106 0.0
H457 H 0.05591 0.19474 0.35387 0.0
H458 H 0.11126 0.16992 0.32084 0.0
H459 H 0.12457 0.19986 0.26706 0.0
H460 H 0.07876 0.14583 0.27747 0.0
H461 H 0.0655 0.17125 0.5234 0.0
H462 H 0.05502 0.18574 0.46584 0.0
H463 H 0.08145 0.18564 0.46894 0.0
C464 C 0.07869 0.21319 0.30633 0.0
C465 C 0.09789 0.21473 0.27956 0.0
C466 C 0.07111 0.19601 0.33675 0.0
C467 C 0.08265 0.18015 0.34155 0.0
C468 C 0.10214 0.18202 0.31767 0.0
H469 H 0.05538 0.05928 0.46623 0.0
H470 H 0.07127 0.08971 0.42037 0.0
C471 C 0.10974 0.19918 0.28715 0.0
C472 C 0.07374 0.16099 0.36581 0.0
H473 H 0.05 0.13939 0.49321 0.0
C474 C 0.07264 0.14435 0.32486 0.0
C475 C 0.06566 0.15918 0.42744 0.0
C476 C 0.0671 0.17636 0.47419 0.0
C477 C 0.06326 0.12601 0.34345 0.0
C478 C 0.05502 0.12426 0.40486 0.0
C479 C 0.05626 0.14084 0.446 0.0
C480 C 0.04507 0.10534 0.42768 0.0
C481 C 0.06178 0.10882 0.29675 0.0
C482 C 0.02509 0.10406 0.44676 0.0
C483 C 0.01601 0.08673 0.47298 0.0
C484 C 0.02683 0.07048 0.48088 0.0
C485 C 0.04668 0.07157 0.46019 0.0
C486 C 0.05575 0.08891 0.43392 0.0
H487 H 0.06451 0.11377 0.24767 0.0
H488 H 0.07304 0.09874 0.30759 0.0
H489 H 0.04697 0.10026 0.29974 0.0
H490 H 0.01664 0.11662 0.44239 0.0
H491 H 0.00071 0.08629 0.48885 0.0
H492 H 0.29349 0.00335 0.22857 0.0
H493 H 0.32504 0.00565 0.28271 0.0
H494 H 0.32007 0.94211 0.29571 0.0
H495 H 0.28864 0.93967 0.23999 0.0
H496 H 0.32989 0.96391 0.41078 0.0
H497 H 0.37855 0.98966 0.20937 0.0
H498 H 0.35733 0.00301 0.22412 0.0
H499 H 0.35391 0.97743 0.19911 0.0
C500 C 0.29939 0.98983 0.24111 0.0
C501 C 0.28894 0.97129 0.22807 0.0
C502 C 0.31732 0.99118 0.27268 0.0
C503 C 0.32502 0.97402 0.29214 0.0
C504 C 0.31442 0.95551 0.28053 0.0
H505 H 0.44447 0.96576 0.41476 0.0
H506 H 0.41207 0.96023 0.36561 0.0
C507 C 0.29651 0.95414 0.24876 0.0
C508 C 0.34395 0.97546 0.3259 0.0
H509 H 0.39334 0.9899 0.30909 0.0
C510 C 0.3438 0.96953 0.38862 0.0
C511 C 0.36203 0.98264 0.29652 0.0
C512 C 0.36312 0.98842 0.22842 0.0
C513 C 0.36129 0.97088 0.42318 0.0
C514 C 0.37929 0.97852 0.39424 0.0
C515 C 0.37947 0.98417 0.33123 0.0
C516 C 0.39824 0.98064 0.42804 0.0
C517 C 0.36043 0.9639 0.49 0.0
C518 C 0.40111 0.99381 0.47987 0.0
C519 C 0.41962 0.99698 0.50812 0.0
C520 C 0.4355 0.98709 0.48464 0.0
C521 C 0.43245 0.97355 0.43384 0.0
C522 C 0.41399 0.97041 0.40566 0.0
H523 H 0.34659 0.95422 0.50014 0.0
H524 H 0.3733 0.95567 0.49963 0.0
H525 H 0.36093 0.97693 0.52278 0.0
H526 H 0.38922 0.00209 0.49721 0.0
H527 H 0.42163 0.00757 0.54705 0.0
H528 H 0.42848 0.29368 0.27833 0.0
H529 H 0.43979 0.32475 0.33324 0.0
H530 H 0.49049 0.33252 0.20751 0.0
H531 H 0.47928 0.30155 0.15193 0.0
H532 H 0.47631 0.33634 0.39313 0.0
H533 H 0.46357 0.38425 0.19329 0.0
H534 H 0.45308 0.35878 0.19698 0.0
H535 H 0.47865 0.36454 0.17498 0.0
C536 C 0.44213 0.30189 0.26264 0.0
C537 C 0.45294 0.29516 0.2106 0.0
C538 C 0.44853 0.31965 0.29398 0.0
C539 C 0.46576 0.33104 0.27362 0.0
C540 C 0.47694 0.32409 0.22309 0.0
H541 H 0.52904 0.42895 0.47969 0.0
H542 H 0.52003 0.39896 0.41577 0.0
C543 C 0.47059 0.30631 0.19176 0.0
C544 C 0.47199 0.35021 0.30543 0.0
H545 H 0.47917 0.40002 0.28272 0.0
C546 C 0.47697 0.35027 0.36906 0.0
C547 C 0.47256 0.36833 0.27387 0.0
C548 C 0.46652 0.36911 0.20616 0.0
C549 C 0.48275 0.36801 0.40198 0.0
C550 C 0.48377 0.38609 0.37009 0.0
C551 C 0.47856 0.38608 0.30666 0.0
C552 C 0.4898 0.40516 0.40273 0.0
C553 C 0.48739 0.36733 0.47093 0.0
C554 C 0.47596 0.41886 0.41433 0.0
C555 C 0.48108 0.436 0.45069 0.0
C556 C 0.50013 0.43968 0.47553 0.0
C557 C 0.51423 0.42642 0.46124 0.0
C558 C 0.5091 0.40927 0.42504 0.0
H559 H 0.48192 0.35287 0.49137 0.0
H560 H 0.50367 0.36964 0.47671 0.0
H561 H 0.48072 0.37927 0.49804 0.0
H562 H 0.46102 0.41592 0.39719 0.0
H563 H 0.46995 0.44603 0.461 0.0
H564 H 0.22635 0.56949 0.23625 0.0
H565 H 0.19134 0.56204 0.26673 0.0
H566 H 0.19442 0.5006 0.21492 0.0
H567 H 0.22943 0.50789 0.18564 0.0
H568 H 0.16076 0.51964 0.16465 0.0
H569 H 0.17013 0.52912 0.42342 0.0
H570 H 0.18151 0.5488 0.37587 0.0
H571 H 0.19042 0.52484 0.37018 0.0
C572 C 0.21955 0.5544 0.23174 0.0
C573 C 0.23042 0.53933 0.20726 0.0
C574 C 0.1996 0.55017 0.24902 0.0
C575 C 0.19034 0.5308 0.2427 0.0
C576 C 0.20128 0.51568 0.21949 0.0
H577 H 0.07995 0.48181 0.40967 0.0
H578 H 0.11339 0.48674 0.3639 0.0
C579 C 0.2212 0.51988 0.20237 0.0
C580 C 0.16924 0.52622 0.26049 0.0
H581 H 0.13744 0.52323 0.38696 0.0
C582 C 0.15558 0.52045 0.21316 0.0
C583 C 0.1627 0.5271 0.32389 0.0
C584 C 0.17691 0.53265 0.37654 0.0
C585 C 0.1354 0.51574 0.22767 0.0
C586 C 0.12883 0.51682 0.29109 0.0
C587 C 0.14255 0.52244 0.33835 0.0
C588 C 0.10783 0.51212 0.31024 0.0
C589 C 0.1213 0.50938 0.1754 0.0
C590 C 0.09351 0.52448 0.29397 0.0
C591 C 0.07436 0.5217 0.32016 0.0
C592 C 0.06936 0.50657 0.36312 0.0
C593 C 0.08342 0.4936 0.37671 0.0
C594 C 0.10252 0.49641 0.35069 0.0
H595 H 0.12924 0.50555 0.13119 0.0
H596 H 0.111 0.49641 0.1894 0.0
H597 H 0.11232 0.52166 0.16571 0.0
H598 H 0.09739 0.53685 0.26351 0.0
H599 H 0.06381 0.53196 0.30917 0.0
H600 H 0.89787 0.79634 0.87371 0.0
H601 H 0.91083 0.83108 0.85996 0.0
H602 H 0.96126 0.82239 0.97183 0.0
H603 H 0.94855 0.78763 0.98485 0.0
H604 H 0.92178 0.86127 0.96313 0.0
H605 H 0.98385 0.84561 0.80001 0.0
H606 H 0.96252 0.82791 0.8127 0.0
H607 H 0.98115 0.83193 0.87147 0.0
C608 C 0.91173 0.80187 0.89519 0.0
C609 C 0.92206 0.78944 0.9312 0.0
C610 C 0.91905 0.82168 0.88762 0.0
C611 C 0.93696 0.82924 0.91498 0.0
C612 C 0.94741 0.8168 0.95035 0.0
H613 H 0.0069 0.94271 0.85927 0.0
H614 H 0.99474 0.91034 0.90115 0.0
C615 C 0.94004 0.79704 0.95827 0.0
C616 C 0.94484 0.8501 0.90567 0.0
H617 H 0.98126 0.87891 0.82878 0.0
C618 C 0.93481 0.86519 0.93392 0.0
C619 C 0.96193 0.85507 0.86807 0.0
C620 C 0.973 0.83935 0.83585 0.0
C621 C 0.94139 0.88523 0.92516 0.0
C622 C 0.95819 0.89024 0.88604 0.0
C623 C 0.96843 0.87508 0.85893 0.0
C624 C 0.96478 0.91096 0.8691 0.0
C625 C 0.93036 0.90081 0.95827 0.0
C626 C 0.95192 0.92221 0.83815 0.0
C627 C 0.95881 0.94069 0.81462 0.0
C628 C 0.97874 0.94819 0.82102 0.0
C629 C 0.99145 0.9373 0.85397 0.0
C630 C 0.98453 0.91881 0.87772 0.0
H631 H 0.92266 0.89502 0.00161 0.0
H632 H 0.94046 0.91414 0.97113 0.0
H633 H 0.91896 0.90529 0.92653 0.0
H634 H 0.93677 0.9163 0.82951 0.0
H635 H 0.94876 0.94871 0.78886 0.0
H636 H 0.69121 0.94973 0.92272 0.0
H637 H 0.66977 0.97232 0.87799 0.0
H638 H 0.70141 0.9694 0.70054 0.0
H639 H 0.72324 0.9471 0.74552 0.0
H640 H 0.67995 0.0103 0.8169 0.0
H641 H 0.6426 0.95181 0.65954 0.0
H642 H 0.65712 0.9461 0.72546 0.0
H643 H 0.66917 0.95506 0.65434 0.0
C644 C 0.694 0.95435 0.87482 0.0
C645 C 0.7092 0.94702 0.83806 0.0
C646 C 0.68159 0.96709 0.84911 0.0
C647 C 0.68401 0.97249 0.786 0.0
C648 C 0.69923 0.96528 0.74923 0.0
H649 H 0.60207 0.02908 0.55834 0.0
H650 H 0.63302 0.01766 0.5927 0.0
C651 C 0.71165 0.95256 0.77495 0.0
C652 C 0.67008 0.98504 0.75818 0.0
H653 H 0.63254 0.98372 0.65382 0.0
C654 C 0.66964 0.00458 0.78094 0.0
C655 C 0.65676 0.97752 0.71113 0.0
C656 C 0.65623 0.95644 0.68631 0.0
C657 C 0.65605 0.0168 0.75815 0.0
C658 C 0.64233 0.00908 0.71239 0.0
C659 C 0.64315 0.98968 0.6886 0.0
C660 C 0.62584 0.02003 0.69215 0.0
C661 C 0.65658 0.03782 0.78324 0.0
C662 C 0.61183 0.02582 0.73663 0.0
C663 C 0.59423 0.03251 0.71709 0.0
C664 C 0.59025 0.03327 0.65274 0.0
C665 C 0.60482 0.02874 0.60828 0.0
C666 C 0.62246 0.02213 0.62785 0.0
H667 H 0.67158 0.04342 0.79969 0.0
H668 H 0.6521 0.04787 0.74704 0.0
H669 H 0.64619 0.03833 0.82411 0.0
H670 H 0.61386 0.02392 0.78638 0.0
H671 H 0.58318 0.03575 0.75233 0.0
H672 H 0.56503 0.71614 0.05756 0.0
H673 H 0.55141 0.68165 0.04113 0.0
H674 H 0.58543 0.67852 0.86806 0.0
H675 H 0.59905 0.71307 0.88438 0.0
H676 H 0.54743 0.66295 0.85474 0.0
H677 H 0.57872 0.63215 0.06544 0.0
H678 H 0.5641 0.65225 0.08268 0.0
H679 H 0.58683 0.65661 0.03799 0.0
C680 C 0.56989 0.70795 0.01669 0.0
C681 C 0.5835 0.71705 0.97307 0.0
C682 C 0.56208 0.68827 0.0073 0.0
C683 C 0.56779 0.67735 0.95421 0.0
C684 C 0.58098 0.68661 0.90972 0.0
H685 H 0.55417 0.55263 0.86139 0.0
H686 H 0.56555 0.58598 0.90086 0.0
C687 C 0.58871 0.70633 0.91895 0.0
C688 C 0.55953 0.65648 0.94367 0.0
H689 H 0.55592 0.61046 0.00659 0.0
C690 C 0.54928 0.65148 0.88797 0.0
C691 C 0.56209 0.64151 0.98692 0.0
C692 C 0.57369 0.64581 0.04634 0.0
C693 C 0.54152 0.63195 0.87421 0.0
C694 C 0.54373 0.61706 0.91798 0.0
C695 C 0.55403 0.62198 0.97363 0.0
C696 C 0.53637 0.59611 0.90455 0.0
C697 C 0.5315 0.62733 0.81208 0.0
C698 C 0.51609 0.59053 0.89646 0.0
C699 C 0.50956 0.57151 0.87387 0.0
C700 C 0.52322 0.5578 0.85941 0.0
C701 C 0.54333 0.56294 0.87209 0.0
C702 C 0.54985 0.58197 0.89455 0.0
H703 H 0.53487 0.63946 0.77829 0.0
H704 H 0.53612 0.61344 0.79033 0.0
H705 H 0.51523 0.62528 0.82005 0.0
H706 H 0.50543 0.60115 0.90498 0.0
H707 H 0.49396 0.5679 0.8647 0.0
H708 H 0.78247 0.46663 0.93523 0.0
H709 H 0.81293 0.4675 0.87121 0.0
H710 H 0.83498 0.52241 0.96345 0.0
H711 H 0.80471 0.52171 0.02778 0.0
H712 H 0.83192 0.49773 0.78964 0.0
H713 H 0.8772 0.48367 0.99526 0.0
H714 H 0.85052 0.47949 0.99667 0.0
H715 H 0.86259 0.50418 0.00491 0.0
C716 C 0.79366 0.47905 0.94128 0.0
C717 C 0.79121 0.49403 0.98693 0.0
C718 C 0.81106 0.47948 0.90478 0.0
C719 C 0.82628 0.49482 0.91361 0.0
C720 C 0.8235 0.51027 0.95685 0.0
H721 H 0.94582 0.51868 0.76314 0.0
H722 H 0.91451 0.51912 0.82256 0.0
C723 C 0.80613 0.5099 0.99323 0.0
C724 C 0.84532 0.49437 0.87893 0.0
H725 H 0.89445 0.49037 0.89905 0.0
C726 C 0.8456 0.49607 0.81338 0.0
C727 C 0.86308 0.4922 0.91035 0.0
C728 C 0.86342 0.48961 0.98061 0.0
C729 C 0.86333 0.49601 0.77827 0.0
C730 C 0.8811 0.49377 0.80963 0.0
C731 C 0.88079 0.49209 0.87525 0.0
C732 C 0.90017 0.4931 0.77506 0.0
C733 C 0.86295 0.49876 0.70814 0.0
C734 C 0.90257 0.47806 0.72982 0.0
C735 C 0.92038 0.4778 0.6959 0.0
C736 C 0.93611 0.49247 0.70714 0.0
C737 C 0.9339 0.50719 0.75367 0.0
C738 C 0.91606 0.50747 0.7875 0.0
H739 H 0.84948 0.50541 0.69414 0.0
H740 H 0.8762 0.50833 0.69177 0.0
H741 H 0.86295 0.48412 0.68363 0.0
H742 H 0.89063 0.46659 0.72054 0.0
H743 H 0.92175 0.46624 0.66043 0.0
H744 H 0.05458 0.20391 0.05913 0.0
H745 H 0.04022 0.17221 0.01469 0.0
H746 H 0.09659 0.16254 0.92869 0.0
H747 H 0.11116 0.19419 0.97317 0.0
H748 H 0.03812 0.1587 0.88797 0.0
H749 H 0.08134 0.1121 0.03151 0.0
H750 H 0.07909 0.13786 0.05067 0.0
H751 H 0.09615 0.13116 0.98989 0.0
C752 C 0.06392 0.19513 0.03038 0.0
C753 C 0.08405 0.20154 0.01993 0.0
C754 C 0.05568 0.17699 0.00523 0.0
C755 C 0.06746 0.16487 0.96964 0.0
C756 C 0.08738 0.1715 0.95726 0.0
H757 H 0.0417 0.07188 0.70379 0.0
H758 H 0.05224 0.10132 0.76653 0.0
C759 C 0.09562 0.18968 0.98219 0.0
C760 C 0.05883 0.14541 0.94452 0.0
H761 H 0.06377 0.09588 0.94526 0.0
C762 C 0.04358 0.14495 0.90099 0.0
C763 C 0.06575 0.12747 0.96247 0.0
C764 C 0.08135 0.12706 0.01166 0.0
C765 C 0.0357 0.12707 0.87258 0.0
C766 C 0.0434 0.10928 0.88784 0.0
C767 C 0.058 0.10959 0.93353 0.0
C768 C 0.03773 0.09064 0.85225 0.0
C769 C 0.01947 0.12737 0.82542 0.0
C770 C 0.02658 0.07456 0.88043 0.0
C771 C 0.02041 0.0575 0.84445 0.0
C772 C 0.02543 0.05635 0.78 0.0
C773 C 0.0373 0.07227 0.75304 0.0
C774 C 0.04336 0.08918 0.78877 0.0
H775 H 0.01182 0.14103 0.83068 0.0
H776 H 0.02599 0.12685 0.77716 0.0
H777 H 0.00836 0.11429 0.83041 0.0
H778 H 0.02224 0.07543 0.92967 0.0
H779 H 0.01134 0.04549 0.86661 0.0
H780 H 0.36696 0.99742 0.07688 0.0
H781 H 0.39524 0.00642 0.00709 0.0
H782 H 0.36327 0.05001 0.92145 0.0
H783 H 0.33469 0.04087 0.99052 0.0
H784 H 0.37899 0.02528 0.83486 0.0
H785 H 0.43623 0.05437 0.00412 0.0
H786 H 0.42464 0.03044 0.02484 0.0
H787 H 0.4102 0.05121 0.02489 0.0
C788 C 0.366 0.00911 0.04382 0.0
C789 C 0.34854 0.01837 0.03906 0.0
C790 C 0.38226 0.01434 0.00425 0.0
C791 C 0.38144 0.02905 0.95962 0.0
C792 C 0.36422 0.03869 0.95582 0.0
H793 H 0.48695 0.06408 0.72734 0.0
H794 H 0.45763 0.06589 0.79592 0.0
C795 C 0.34793 0.03345 0.99536 0.0
C796 C 0.39793 0.0331 0.91358 0.0
H797 H 0.44798 0.04423 0.90189 0.0
C798 C 0.39404 0.02971 0.84941 0.0
C799 C 0.41749 0.03916 0.93252 0.0
C800 C 0.42239 0.04421 0.00031 0.0
C801 C 0.40935 0.03126 0.80394 0.0
C802 C 0.42908 0.03599 0.82339 0.0
C803 C 0.43286 0.04037 0.88717 0.0
C804 C 0.4461 0.03536 0.77897 0.0
C805 C 0.40427 0.02763 0.73558 0.0
C806 C 0.44931 0.01759 0.74698 0.0
C807 C 0.46596 0.01654 0.70794 0.0
C808 C 0.47978 0.0332 0.70061 0.0
C809 C 0.47649 0.05103 0.73216 0.0
C810 C 0.45979 0.05208 0.77128 0.0
H811 H 0.38874 0.03039 0.72674 0.0
H812 H 0.4143 0.03717 0.70457 0.0
H813 H 0.40584 0.01193 0.72246 0.0
H814 H 0.43917 0.00439 0.75338 0.0
H815 H 0.46823 0.00256 0.68456 0.0
H816 H 0.40768 0.33036 0.10565 0.0
H817 H 0.41956 0.3607 0.05182 0.0
H818 H 0.43383 0.3264 0.88654 0.0
H819 H 0.42199 0.29582 0.9401 0.0
H820 H 0.45947 0.36854 0.00237 0.0
H821 H 0.40249 0.37107 0.81988 0.0
H822 H 0.39816 0.3567 0.88999 0.0
H823 H 0.41277 0.34785 0.82588 0.0
C824 C 0.41303 0.32922 0.05747 0.0
C825 C 0.41386 0.31065 0.0271 0.0
C826 C 0.41986 0.3466 0.02691 0.0
C827 C 0.42742 0.34577 0.96518 0.0
C828 C 0.42779 0.32733 0.93396 0.0
H829 H 0.4829 0.42856 0.70142 0.0
H830 H 0.46727 0.40014 0.75744 0.0
C831 C 0.42106 0.30989 0.96466 0.0
C832 C 0.43612 0.36411 0.93508 0.0
H833 H 0.43099 0.39415 0.81191 0.0
C834 C 0.45321 0.37426 0.96094 0.0
C835 C 0.42789 0.37141 0.88109 0.0
C836 C 0.40922 0.36133 0.85265 0.0
C837 C 0.46269 0.39128 0.93308 0.0
C838 C 0.4545 0.3986 0.87884 0.0
C839 C 0.43723 0.38855 0.85354 0.0
C840 C 0.46407 0.41613 0.84586 0.0
C841 C 0.48173 0.4008 0.96072 0.0
C842 C 0.46737 0.43468 0.87684 0.0
C843 C 0.47654 0.45103 0.84499 0.0
C844 C 0.48227 0.44915 0.78135 0.0
C845 C 0.47867 0.43059 0.75039 0.0
C846 C 0.4697 0.41429 0.78232 0.0
H847 H 0.48863 0.39053 0.99129 0.0
H848 H 0.49256 0.40578 0.92314 0.0
H849 H 0.47858 0.41393 0.98999 0.0
H850 H 0.46273 0.43656 0.92547 0.0
H851 H 0.47892 0.46515 0.87002 0.0
H852 H 0.1855 0.49026 0.95238 0.0
H853 H 0.15541 0.48653 0.89018 0.0
H854 H 0.13304 0.53482 0.99586 0.0
H855 H 0.16314 0.53885 0.05791 0.0
H856 H 0.11369 0.48069 0.92577 0.0
H857 H 0.13581 0.55211 0.80906 0.0
H858 H 0.15292 0.53952 0.85309 0.0
H859 H 0.13501 0.55315 0.89364 0.0
C860 C 0.17411 0.49998 0.96281 0.0
C861 C 0.17682 0.51504 0.00943 0.0
C862 C 0.15693 0.49778 0.92737 0.0
C863 C 0.14222 0.5106 0.93793 0.0
C864 C 0.14441 0.525 0.98647 0.0
H865 H 0.02746 0.5031 0.75696 0.0
H866 H 0.05366 0.50434 0.83442 0.0
C867 C 0.1616 0.52724 0.02187 0.0
C868 C 0.12521 0.50966 0.89553 0.0
H869 H 0.10511 0.53513 0.78119 0.0
C870 C 0.11171 0.4926 0.89432 0.0
C871 C 0.12291 0.52516 0.85415 0.0
C872 C 0.13748 0.54348 0.85189 0.0
C873 C 0.09585 0.49064 0.85259 0.0
C874 C 0.09347 0.50623 0.81164 0.0
C875 C 0.10697 0.52328 0.81299 0.0
C876 C 0.07751 0.50491 0.76519 0.0
C877 C 0.08208 0.47175 0.8514 0.0
C878 C 0.08231 0.50513 0.70076 0.0
C879 C 0.06743 0.50452 0.65636 0.0
C880 C 0.04744 0.5038 0.67563 0.0
C881 C 0.04269 0.5036 0.7404 0.0
C882 C 0.05762 0.50419 0.78479 0.0
H883 H 0.08828 0.45971 0.87645 0.0
H884 H 0.06782 0.47451 0.87478 0.0
H885 H 0.07895 0.46666 0.80222 0.0
H886 H 0.09762 0.50578 0.68483 0.0
H887 H 0.07167 0.5047 0.60696 0.0
H888 H 0.95382 0.81883 0.2371 0.0
H889 H 0.963 0.84634 0.31088 0.0
H890 H 0.93223 0.88503 0.19941 0.0
H891 H 0.92291 0.85762 0.12536 0.0
H892 H 0.98461 0.88384 0.28449 0.0
H893 H 0.90887 0.89111 0.3806 0.0
H894 H 0.91522 0.8693 0.33747 0.0
H895 H 0.91131 0.89124 0.29625 0.0
C896 C 0.94897 0.83318 0.22826 0.0
C897 C 0.93751 0.83601 0.17559 0.0
C898 C 0.95425 0.84886 0.27043 0.0
C899 C 0.94805 0.86759 0.26096 0.0
C900 C 0.93686 0.87057 0.20804 0.0
H901 H 0.99202 0.9799 0.43488 0.0
H902 H 0.98198 0.95248 0.36195 0.0
C903 C 0.93162 0.85491 0.1657 0.0
C904 C 0.95353 0.88409 0.3061 0.0
H905 H 0.93422 0.91571 0.4127 0.0
C906 C 0.97362 0.89081 0.31261 0.0
C907 C 0.93914 0.89295 0.3431 0.0
C908 C 0.91742 0.88573 0.33963 0.0
C909 C 0.9797 0.90644 0.3546 0.0
C910 C 0.96527 0.91563 0.39044 0.0
C911 C 0.9452 0.9087 0.38469 0.0
C912 C 0.97077 0.9324 0.43455 0.0
C913 C 0.00152 0.91282 0.36094 0.0
C914 C 0.9673 0.93031 0.49938 0.0
C915 C 0.97298 0.94596 0.54132 0.0
C916 C 0.9821 0.96404 0.51901 0.0
C917 C 0.9851 0.96619 0.45378 0.0
C918 C 0.97948 0.95051 0.41196 0.0
H919 H 0.01076 0.90149 0.34111 0.0
H920 H 0.00535 0.92671 0.3351 0.0
H921 H 0.00535 0.91579 0.41106 0.0
H922 H 0.96048 0.91645 0.51758 0.0
H923 H 0.97035 0.94382 0.5912 0.0
H924 H 0.69041 0.95067 0.23472 0.0
H925 H 0.66301 0.95876 0.30407 0.0
H926 H 0.64731 0.00112 0.17147 0.0
H927 H 0.67451 0.99302 0.10144 0.0
H928 H 0.6514 0.99543 0.35978 0.0
H929 H 0.59797 0.95987 0.18623 0.0
H930 H 0.624 0.95656 0.18258 0.0
H931 H 0.61552 0.97898 0.15552 0.0
C932 C 0.6813 0.9619 0.22062 0.0
C933 C 0.68446 0.97099 0.16211 0.0
C934 C 0.6657 0.96653 0.26041 0.0
C935 C 0.65301 0.98029 0.2423 0.0
C936 C 0.65681 0.99024 0.18573 0.0
H937 H 0.55619 0.02722 0.45134 0.0
H938 H 0.58787 0.02289 0.39816 0.0
C939 C 0.67238 0.98561 0.14587 0.0
C940 C 0.63494 0.98308 0.2801 0.0
H941 H 0.58457 0.97578 0.27496 0.0
C942 C 0.63677 0.99117 0.34141 0.0
C943 C 0.61593 0.97716 0.25617 0.0
C944 C 0.61313 0.96749 0.19175 0.0
C945 C 0.61995 0.9938 0.37918 0.0
C946 C 0.60095 0.98834 0.35449 0.0
C947 C 0.59918 0.98003 0.29353 0.0
C948 C 0.58256 0.99095 0.39087 0.0
C949 C 0.62264 0.00207 0.44539 0.0
C950 C 0.56901 0.97446 0.40358 0.0
C951 C 0.55094 0.97691 0.43377 0.0
C952 C 0.54613 0.9959 0.45151 0.0
C953 C 0.55972 0.0124 0.43901 0.0
C954 C 0.57781 0.00994 0.40887 0.0
H955 H 0.63781 0.00087 0.46237 0.0
H956 H 0.62016 0.01797 0.44647 0.0
H957 H 0.61178 0.99432 0.47843 0.0
H958 H 0.57237 0.9597 0.38962 0.0
H959 H 0.54071 0.96396 0.44296 0.0
H960 H 0.5781 0.6616 0.19499 0.0
H961 H 0.56885 0.63273 0.25933 0.0
H962 H 0.58304 0.6679 0.42728 0.0
H963 H 0.59211 0.69697 0.36341 0.0
H964 H 0.59177 0.61445 0.34603 0.0
H965 H 0.52594 0.64342 0.46085 0.0
H966 H 0.53789 0.65421 0.39147 0.0
H967 H 0.54859 0.65943 0.4674 0.0
C968 C 0.57925 0.66323 0.24562 0.0
C969 C 0.58571 0.68163 0.27414 0.0
C970 C 0.57399 0.6467 0.28226 0.0
C971 C 0.57501 0.64828 0.34801 0.0
C972 C 0.58182 0.66649 0.37662 0.0
H973 H 0.54258 0.56491 0.64404 0.0
H974 H 0.55554 0.59361 0.58359 0.0
C975 C 0.58708 0.68305 0.34002 0.0
C976 C 0.5689 0.63082 0.38653 0.0
H977 H 0.53494 0.61306 0.49696 0.0
C978 C 0.57934 0.6141 0.37903 0.0
C979 C 0.55269 0.63048 0.42947 0.0
C980 C 0.54049 0.64776 0.4376 0.0
C981 C 0.57411 0.59706 0.41393 0.0
C982 C 0.5578 0.59667 0.45654 0.0
C983 C 0.54746 0.61345 0.46432 0.0
C984 C 0.55093 0.5789 0.4928 0.0
C985 C 0.58625 0.57975 0.4056 0.0
C986 C 0.544 0.56114 0.46168 0.0
C987 C 0.53659 0.54468 0.49604 0.0
C988 C 0.53584 0.54574 0.5622 0.0
C989 C 0.54293 0.56355 0.59317 0.0
C990 C 0.55035 0.57998 0.55875 0.0
H991 H 0.60112 0.58429 0.38483 0.0
H992 H 0.58812 0.57266 0.45123 0.0
H993 H 0.57853 0.56854 0.37331 0.0
H994 H 0.54394 0.56013 0.41077 0.0
H995 H 0.53117 0.53124 0.47064 0.0
H996 H 0.79744 0.48102 0.26641 0.0
H997 H 0.83084 0.48909 0.30674 0.0
H998 H 0.85484 0.45694 0.15024 0.0
H999 H 0.8216 0.44897 0.10916 0.0
H1000 H 0.85832 0.46328 0.34035 0.0
H1001 H 0.88745 0.51119 0.14446 0.0
H1002 H 0.86134 0.50398 0.15659 0.0
H1003 H 0.87696 0.48678 0.12143 0.0
C1004 C 0.8098 0.47558 0.24074 0.0
C1005 C 0.80686 0.46438 0.18456 0.0
C1006 C 0.82887 0.48025 0.26372 0.0
C1007 C 0.8453 0.47392 0.23077 0.0
C1008 C 0.84239 0.46232 0.17558 0.0
H1009 H 0.97042 0.48719 0.33042 0.0
H1010 H 0.93969 0.48029 0.27119 0.0
C1011 C 0.82334 0.45763 0.15258 0.0
C1012 C 0.86544 0.47911 0.25523 0.0
H1013 H 0.91017 0.50502 0.22287 0.0
C1014 C 0.86965 0.4724 0.31468 0.0
C1015 C 0.88022 0.49087 0.22122 0.0
C1016 C 0.8763 0.49879 0.15759 0.0
C1017 C 0.88824 0.47721 0.34139 0.0
C1018 C 0.90286 0.48939 0.30822 0.0
C1019 C 0.89886 0.49576 0.2481 0.0
C1020 C 0.92203 0.49621 0.33711 0.0
C1021 C 0.89211 0.46917 0.40495 0.0
C1022 C 0.92238 0.50823 0.39173 0.0
C1023 C 0.93974 0.5121 0.42549 0.0
C1024 C 0.95714 0.50418 0.40485 0.0
C1025 C 0.95722 0.49351 0.34728 0.0
C1026 C 0.9397 0.4895 0.3136 0.0
H1027 H 0.8815 0.45615 0.41635 0.0
H1028 H 0.90739 0.46481 0.40695 0.0
H1029 H 0.89045 0.48082 0.44175 0.0
H1030 H 0.90895 0.51385 0.40986 0.0
H1031 H 0.93931 0.5206 0.46929 0.0
loop_
_geom_bond_atom_site_label_1
_geom_bond_atom_site_label_2
_geom_bond_distance
_geom_bond_site_symmetry_2
_ccdc_geom_bond_type
O0 Cd1 2.300 1_556 S
O0 C7 1.275 . S
Cd1 O0 2.300 1_554 S
Cd1 O9 2.381 1_554 S
Cd1 O10 2.378 . S
O2 Cd3 2.385 . S
O2 C7 1.255 1_554 S
Cd3 O2 2.385 . S
Cd3 O4 2.317 . S
O4 Cd3 2.317 . S
O4 C5 1.232 . S
C5 O4 1.232 . S
C5 O6 1.218 . S
O6 C5 1.218 . S
C7 O0 1.275 . S
C7 O2 1.255 1_556 S
C8 O9 1.258 . S
C8 O10 1.256 1_556 S
O9 Cd1 2.381 1_556 S
O9 C8 1.258 . S
O10 Cd1 2.378 . S
O10 C8 1.256 1_554 S
O11 Cd12 2.300 . S
O11 C18 1.275 . S
Cd12 O11 2.300 . S
Cd12 O20 2.381 . S
Cd12 O21 2.378 1_556 S
O13 Cd14 2.378 1_655 S
O13 C18 1.255 1_554 S
Cd14 O13 2.378 1_455 S
Cd14 O15 2.311 1_455 S
O15 Cd14 2.311 1_655 S
O15 C16 1.232 . S
C16 O15 1.232 . S
C16 O17 1.218 . S
O17 C16 1.218 . S
C18 O11 1.275 . S
C18 O13 1.255 1_556 S
C19 O20 1.258 . S
C19 O21 1.256 1_556 S
O20 Cd12 2.381 . S
O20 C19 1.258 . S
O21 Cd12 2.378 1_554 S
O21 C19 1.256 1_554 S
O22 Cd23 2.308 1_556 S
O22 C29 1.275 . S
Cd23 O22 2.308 1_554 S
Cd23 O31 2.394 1_554 S
Cd23 O32 2.379 1_565 S
O24 Cd25 2.385 . S
O24 C29 1.255 1_544 S
Cd25 O24 2.385 . S
Cd25 O26 2.317 . S
O26 Cd25 2.317 . S
O26 C27 1.232 1_545 S
C27 O26 1.232 1_565 S
C27 O28 1.218 1_565 S
O28 C27 1.218 1_545 S
C29 O22 1.275 . S
C29 O24 1.255 1_566 S
C30 O31 1.258 . S
C30 O32 1.256 1_566 S
O31 Cd23 2.394 1_556 S
O31 C30 1.258 . S
O32 Cd23 2.379 1_545 S
O32 C30 1.256 1_544 S
O33 Cd34 2.300 1_556 S
O33 C40 1.275 1_556 S
Cd34 O33 2.300 1_554 S
Cd34 O42 2.380 1_554 S
Cd34 O43 2.378 . S
O35 Cd36 2.385 . S
O35 C40 1.255 . S
Cd36 O35 2.385 . S
Cd36 O37 2.317 . S
O37 Cd36 2.317 . S
O37 C38 1.232 . S
C38 O37 1.232 . S
C38 O39 1.218 . S
O39 C38 1.218 . S
C40 O33 1.275 1_554 S
C40 O35 1.255 . S
C41 O42 1.257 1_554 S
C41 O43 1.256 . S
O42 Cd34 2.380 1_556 S
O42 C41 1.257 1_556 S
O43 Cd34 2.378 . S
O43 C41 1.256 . S
O44 Cd45 2.300 . S
O44 C51 1.275 . S
Cd45 O44 2.300 . S
Cd45 O53 2.381 . S
Cd45 O54 2.378 . S
O46 Cd47 2.385 . S
O46 C51 1.255 . S
Cd47 O46 2.385 . S
Cd47 O48 2.317 . S
O48 Cd47 2.317 . S
O48 C49 1.232 . S
C49 O48 1.232 . S
C49 O50 1.218 . S
O50 C49 1.218 . S
C51 O44 1.275 . S
C51 O46 1.255 . S
C52 O53 1.258 . S
C52 O54 1.256 . S
O53 Cd45 2.381 . S
O53 C52 1.258 . S
O54 Cd45 2.378 . S
O54 C52 1.256 . S
O55 Cd56 2.300 . S
O55 C62 1.275 . S
Cd56 O55 2.300 . S
Cd56 O64 2.381 . S
Cd56 O65 2.378 . S
O57 Cd58 2.385 . S
O57 C62 1.255 . S
Cd58 O57 2.385 . S
Cd58 O59 2.317 . S
O59 Cd58 2.317 . S
O59 C60 1.232 . S
C60 O59 1.232 . S
C60 O61 1.218 . S
O61 C60 1.218 . S
C62 O55 1.275 . S
C62 O57 1.255 . S
C63 O64 1.258 . S
C63 O65 1.256 . S
O64 Cd56 2.381 . S
O64 C63 1.258 . S
O65 Cd56 2.378 . S
O65 C63 1.256 . S
O66 Cd67 2.300 . S
O66 C73 1.275 . S
Cd67 O66 2.300 . S
Cd67 O75 2.381 . S
Cd67 O76 2.378 . S
O68 Cd69 2.385 . S
O68 C73 1.255 . S
Cd69 O68 2.385 . S
Cd69 O70 2.317 . S
O70 Cd69 2.317 . S
O70 C71 1.232 . S
C71 O70 1.232 . S
C71 O72 1.218 . S
O72 C71 1.218 . S
C73 O66 1.275 . S
C73 O68 1.255 . S
C74 O75 1.258 . S
C74 O76 1.256 . S
O75 Cd67 2.381 . S
O75 C74 1.258 . S
O76 Cd67 2.378 . S
O76 C74 1.256 . S
O77 Cd78 2.300 . S
O77 C84 1.275 . S
Cd78 O77 2.300 . S
Cd78 O86 2.381 . S
Cd78 O87 2.378 . S
O79 Cd80 2.385 . S
O79 C84 1.255 . S
Cd80 O79 2.385 . S
Cd80 O81 2.317 . S
O81 Cd80 2.317 . S
O81 C82 1.232 1_554 S
C82 O81 1.232 1_556 S
C82 O83 1.218 . S
O83 C82 1.218 . S
C84 O77 1.275 . S
C84 O79 1.255 . S
C85 O86 1.258 . S
C85 O87 1.256 . S
O86 Cd78 2.381 . S
O86 C85 1.258 . S
O87 Cd78 2.378 . S
O87 C85 1.256 . S
Dy88 O92 2.398 . S
Dy88 O93 2.491 1_455 S
Dy88 O94 2.403 . S
Dy88 O95 2.664 1_565 S
Dy88 O99 2.326 . S
Dy88 O103 2.310 1_455 S
Dy88 O104 2.351 1_565 S
C89 O100 1.185 1_455 S
C89 O101 1.355 . S
C90 O92 1.185 . S
C90 O93 1.355 1_455 S
Dy91 O95 2.357 . S
Dy91 O98 2.348 1_445 S
Dy91 O100 2.379 1_455 S
Dy91 O101 2.520 . S
Dy91 O102 2.356 1_455 S
Dy91 O103 2.651 1_445 S
Dy91 O105 2.334 . S
O92 Dy88 2.398 . S
O92 C90 1.185 . S
O93 Dy88 2.491 1_655 S
O93 C90 1.355 1_655 S
O94 Dy88 2.403 . S
O94 C96 1.273 . S
O95 Dy88 2.664 1_545 S
O95 Dy91 2.357 . S
O95 C96 1.256 1_545 S
C96 O94 1.273 . S
C96 O95 1.256 1_565 S
C97 O102 1.254 . S
C97 O103 1.268 1_545 S
O98 Dy91 2.348 1_665 S
O98 C106 1.268 . S
O99 Dy88 2.326 . S
O99 C106 1.231 1_455 S
O100 C89 1.185 1_655 S
O100 Dy91 2.379 1_655 S
O101 C89 1.355 . S
O101 Dy91 2.520 . S
O102 Dy91 2.356 1_655 S
O102 C97 1.254 . S
O103 Dy88 2.310 1_655 S
O103 Dy91 2.651 1_665 S
O103 C97 1.268 1_565 S
O104 Dy88 2.351 1_545 S
O104 C107 1.249 . S
O105 Dy91 2.334 . S
O105 C107 1.267 . S
C106 O98 1.268 . S
C106 O99 1.231 1_655 S
C107 O104 1.249 . S
C107 O105 1.267 . S
Dy108 O112 2.398 . S
Dy108 O113 2.470 1_565 S
Dy108 O114 2.403 . S
Dy108 O115 2.664 . S
Dy108 O119 2.326 1_565 S
Dy108 O123 2.310 1_565 S
Dy108 O124 2.351 . S
C109 O120 1.185 . S
C109 O121 1.355 . S
C110 O112 1.185 . S
C110 O113 1.347 1_565 S
Dy111 O115 2.310 1_545 S
Dy111 O118 2.351 . S
Dy111 O120 2.398 . S
Dy111 O121 2.491 . S
Dy111 O122 2.403 . S
Dy111 O123 2.664 . S
Dy111 O125 2.326 1_545 S
O112 Dy108 2.398 . S
O112 C110 1.185 . S
O113 Dy108 2.470 1_545 S
O113 C110 1.347 1_545 S
O114 Dy108 2.403 . S
O114 C116 1.254 . S
O115 Dy108 2.664 . S
O115 Dy111 2.310 1_565 S
O115 C116 1.268 . S
C116 O114 1.254 . S
C116 O115 1.268 . S
C117 O122 1.254 . S
C117 O123 1.268 . S
O118 Dy111 2.351 . S
O118 C126 1.249 . S
O119 Dy108 2.326 1_545 S
O119 C126 1.267 . S
O120 C109 1.185 . S
O120 Dy111 2.398 . S
O121 C109 1.355 . S
O121 Dy111 2.491 . S
O122 Dy111 2.403 . S
O122 C117 1.254 . S
O123 Dy108 2.310 1_545 S
O123 Dy111 2.664 . S
O123 C117 1.268 . S
O124 Dy108 2.351 . S
O124 C127 1.249 . S
O125 Dy111 2.326 1_565 S
O125 C127 1.267 . S
C126 O118 1.249 . S
C126 O119 1.267 . S
C127 O124 1.249 . S
C127 O125 1.267 . S
Dy128 O132 2.398 . S
Dy128 O133 2.491 . S
Dy128 O134 2.403 . S
Dy128 O135 2.664 . S
Dy128 O139 2.326 . S
Dy128 O143 2.310 . S
Dy128 O144 2.351 . S
C129 O140 1.185 . S
C129 O141 1.355 . S
C130 O132 1.185 . S
C130 O133 1.355 . S
Dy131 O135 2.310 . S
Dy131 O138 2.351 . S
Dy131 O140 2.398 . S
Dy131 O141 2.491 . S
Dy131 O142 2.403 . S
Dy131 O143 2.664 . S
Dy131 O145 2.326 . S
O132 Dy128 2.398 . S
O132 C130 1.185 . S
O133 Dy128 2.491 . S
O133 C130 1.355 . S
O134 Dy128 2.403 . S
O134 C136 1.254 . S
O135 Dy128 2.664 . S
O135 Dy131 2.310 . S
O135 C136 1.268 . S
C136 O134 1.254 . S
C136 O135 1.268 . S
C137 O142 1.254 . S
C137 O143 1.268 . S
O138 Dy131 2.351 . S
O138 C146 1.249 . S
O139 Dy128 2.326 . S
O139 C146 1.267 . S
O140 C129 1.185 . S
O140 Dy131 2.398 . S
O141 C129 1.355 . S
O141 Dy131 2.491 . S
O142 Dy131 2.403 . S
O142 C137 1.254 . S
O143 Dy128 2.310 . S
O143 Dy131 2.664 . S
O143 C137 1.268 . S
O144 Dy128 2.351 . S
O144 C147 1.249 . S
O145 Dy131 2.326 . S
O145 C147 1.267 . S
C146 O138 1.249 . S
C146 O139 1.267 . S
C147 O144 1.249 . S
C147 O145 1.267 . S
Dy148 O152 2.398 . S
Dy148 O153 2.491 . S
Dy148 O154 2.403 . S
Dy148 O155 2.664 1_655 S
Dy148 O159 2.326 . S
Dy148 O163 2.307 1_655 S
Dy148 O164 2.351 1_655 S
C149 O160 1.185 . S
C149 O161 1.355 . S
C150 O152 1.185 . S
C150 O153 1.355 . S
Dy151 O155 2.310 . S
Dy151 O158 2.351 1_455 S
Dy151 O160 2.398 . S
Dy151 O161 2.491 . S
Dy151 O162 2.403 . S
Dy151 O163 2.677 . S
Dy151 O165 2.326 . S
O152 Dy148 2.398 . S
O152 C150 1.185 . S
O153 Dy148 2.491 . S
O153 C150 1.355 . S
O154 Dy148 2.403 . S
O154 C156 1.254 1_655 S
O155 Dy148 2.664 1_455 S
O155 Dy151 2.310 . S
O155 C156 1.268 . S
C156 O154 1.254 1_455 S
C156 O155 1.268 . S
C157 O162 1.254 . S
C157 O163 1.272 . S
O158 Dy151 2.351 1_655 S
O158 C166 1.249 . S
O159 Dy148 2.326 . S
O159 C166 1.267 . S
O160 C149 1.185 . S
O160 Dy151 2.398 . S
O161 C149 1.355 . S
O161 Dy151 2.491 . S
O162 Dy151 2.403 . S
O162 C157 1.254 . S
O163 Dy148 2.307 1_455 S
O163 Dy151 2.677 . S
O163 C157 1.272 . S
O164 Dy148 2.351 1_455 S
O164 C167 1.249 . S
O165 Dy151 2.326 . S
O165 C167 1.267 . S
C166 O158 1.249 . S
C166 O159 1.267 . S
C167 O164 1.249 . S
C167 O165 1.267 . S
H168 C176 0.929 . S
H169 C178 0.930 . S
H170 C180 0.930 . S
H171 C183 0.929 . S
H172 C186 0.930 . S
H173 C188 0.960 . S
H174 C188 0.960 . S
H175 C188 0.960 . S
C176 H168 0.929 . S
C176 C177 1.377 . S
C176 C178 1.384 . S
C177 C176 1.377 . S
C177 C183 1.390 . S
C178 H169 0.930 . S
C178 C176 1.384 . S
C178 C179 1.372 . S
C179 C178 1.372 . S
C179 C180 1.400 . S
C179 C184 1.490 . S
C180 H170 0.930 . S
C180 C179 1.400 . S
C180 C183 1.386 . S
H181 C197 0.930 . S
H182 C198 0.931 . S
C183 H171 0.929 . S
C183 C177 1.390 . S
C183 C180 1.386 . S
C184 C179 1.490 . S
C184 C186 1.395 . S
C184 C187 1.403 1_545 S
H185 C191 0.930 . S
C186 H172 0.930 . S
C186 C184 1.395 . S
C186 C189 1.403 . S
C187 C184 1.403 1_565 S
C187 C188 1.524 . S
C187 C191 1.400 . S
C188 H173 0.960 . S
C188 H174 0.960 . S
C188 H175 0.960 . S
C188 C187 1.524 . S
C189 C186 1.403 . S
C189 C190 1.392 . S
C189 C193 1.495 . S
C190 C189 1.392 . S
C190 C191 1.385 1_545 S
C190 C192 1.478 . S
C191 H185 0.930 . S
C191 C187 1.400 . S
C191 C190 1.385 1_565 S
C192 C190 1.478 . S
C192 C194 1.381 . S
C192 C198 1.383 . S
C193 C189 1.495 . S
C193 H199 0.959 . S
C193 H200 0.961 . S
C193 H201 0.960 . S
C194 C192 1.381 . S
C194 C195 1.394 . S
C194 H202 0.930 . S
C195 C194 1.394 . S
C195 C196 1.383 . S
C195 H203 0.929 . S
C196 C195 1.383 . S
C196 C197 1.377 . S
C197 H181 0.930 . S
C197 C196 1.377 . S
C197 C198 1.379 . S
C198 H182 0.931 . S
C198 C192 1.383 . S
C198 C197 1.379 . S
H199 C193 0.959 . S
H200 C193 0.961 . S
H201 C193 0.960 . S
H202 C194 0.930 . S
H203 C195 0.929 . S
H204 C212 0.929 . S
H205 C214 0.930 . S
H206 C216 0.930 . S
H207 C219 0.929 . S
H208 C222 0.930 . S
H209 C224 0.960 . S
H210 C224 0.960 . S
H211 C224 0.960 . S
C212 H204 0.929 . S
C212 C213 1.377 . S
C212 C214 1.384 . S
C213 C212 1.377 . S
C213 C219 1.390 . S
C214 H205 0.930 . S
C214 C212 1.384 . S
C214 C215 1.372 . S
C215 C214 1.372 . S
C215 C216 1.400 . S
C215 C220 1.490 . S
C216 H206 0.930 . S
C216 C215 1.400 . S
C216 C219 1.386 . S
H217 C233 0.930 . S
H218 C234 0.931 . S
C219 H207 0.929 . S
C219 C213 1.390 . S
C219 C216 1.386 . S
C220 C215 1.490 . S
C220 C222 1.395 . S
C220 C223 1.403 . S
H221 C227 0.930 . S
C222 H208 0.930 . S
C222 C220 1.395 . S
C222 C225 1.403 . S
C223 C220 1.403 . S
C223 C224 1.524 . S
C223 C227 1.400 . S
C224 H209 0.960 . S
C224 H210 0.960 . S
C224 H211 0.960 . S
C224 C223 1.524 . S
C225 C222 1.403 . S
C225 C226 1.392 . S
C225 C229 1.495 . S
C226 C225 1.392 . S
C226 C227 1.385 . S
C226 C228 1.478 . S
C227 H221 0.930 . S
C227 C223 1.400 . S
C227 C226 1.385 . S
C228 C226 1.478 . S
C228 C230 1.381 . S
C228 C234 1.383 . S
C229 C225 1.495 . S
C229 H235 0.959 . S
C229 H236 0.961 . S
C229 H237 0.960 . S
C230 C228 1.381 . S
C230 C231 1.394 . S
C230 H238 0.930 . S
C231 C230 1.394 . S
C231 C232 1.383 . S
C231 H239 0.929 . S
C232 C231 1.383 . S
C232 C233 1.377 . S
C233 H217 0.930 . S
C233 C232 1.377 . S
C233 C234 1.379 . S
C234 H218 0.931 . S
C234 C228 1.383 . S
C234 C233 1.379 . S
H235 C229 0.959 . S
H236 C229 0.961 . S
H237 C229 0.960 . S
H238 C230 0.930 . S
H239 C231 0.929 . S
H240 C248 0.929 . S
H241 C250 0.930 . S
H242 C252 0.930 . S
H243 C255 0.929 . S
H244 C258 0.930 . S
H245 C260 0.960 . S
H246 C260 0.960 . S
H247 C260 0.960 . S
C248 H240 0.929 . S
C248 C249 1.377 . S
C248 C250 1.384 . S
C249 C248 1.377 . S
C249 C255 1.390 . S
C250 H241 0.930 . S
C250 C248 1.384 . S
C250 C251 1.372 . S
C251 C250 1.372 . S
C251 C252 1.400 . S
C251 C256 1.490 . S
C252 H242 0.930 . S
C252 C251 1.400 . S
C252 C255 1.386 . S
H253 C269 0.930 . S
H254 C270 0.931 . S
C255 H243 0.929 . S
C255 C249 1.390 . S
C255 C252 1.386 . S
C256 C251 1.490 . S
C256 C258 1.395 . S
C256 C259 1.403 . S
H257 C263 0.930 . S
C258 H244 0.930 . S
C258 C256 1.395 . S
C258 C261 1.403 . S
C259 C256 1.403 . S
C259 C260 1.524 . S
C259 C263 1.400 . S
C260 H245 0.960 . S
C260 H246 0.960 . S
C260 H247 0.960 . S
C260 C259 1.524 . S
C261 C258 1.403 . S
C261 C262 1.392 . S
C261 C265 1.495 . S
C262 C261 1.392 . S
C262 C263 1.385 . S
C262 C264 1.478 . S
C263 H257 0.930 . S
C263 C259 1.400 . S
C263 C262 1.385 . S
C264 C262 1.478 . S
C264 C266 1.381 . S
C264 C270 1.383 . S
C265 C261 1.495 . S
C265 H271 0.959 . S
C265 H272 0.961 . S
C265 H273 0.960 . S
C266 C264 1.381 . S
C266 C267 1.394 . S
C266 H274 0.930 . S
C267 C266 1.394 . S
C267 C268 1.383 . S
C267 H275 0.929 . S
C268 C267 1.383 . S
C268 C269 1.377 . S
C269 H253 0.930 . S
C269 C268 1.377 . S
C269 C270 1.379 . S
C270 H254 0.931 . S
C270 C264 1.383 . S
C270 C269 1.379 . S
H271 C265 0.959 . S
H272 C265 0.961 . S
H273 C265 0.960 . S
H274 C266 0.930 . S
H275 C267 0.929 . S
H276 C284 0.929 . S
H277 C286 0.930 . S
H278 C288 0.930 . S
H279 C291 0.929 . S
H280 C294 0.930 . S
H281 C296 0.960 . S
H282 C296 0.960 . S
H283 C296 0.960 . S
C284 H276 0.929 . S
C284 C285 1.377 . S
C284 C286 1.384 . S
C285 C284 1.377 . S
C285 C291 1.390 . S
C286 H277 0.930 . S
C286 C284 1.384 . S
C286 C287 1.372 . S
C287 C286 1.372 . S
C287 C288 1.400 . S
C287 C292 1.490 . S
C288 H278 0.930 . S
C288 C287 1.400 . S
C288 C291 1.386 . S
H289 C305 0.930 . S
H290 C306 0.931 . S
C291 H279 0.929 . S
C291 C285 1.390 . S
C291 C288 1.386 . S
C292 C287 1.490 . S
C292 C294 1.395 . S
C292 C295 1.403 . S
H293 C299 0.930 . S
C294 H280 0.930 . S
C294 C292 1.395 . S
C294 C297 1.403 . S
C295 C292 1.403 . S
C295 C296 1.524 . S
C295 C299 1.400 . S
C296 H281 0.960 . S
C296 H282 0.960 . S
C296 H283 0.960 . S
C296 C295 1.524 . S
C297 C294 1.403 . S
C297 C298 1.392 . S
C297 C301 1.495 1_455 S
C298 C297 1.392 . S
C298 C299 1.385 . S
C298 C300 1.478 . S
C299 H293 0.930 . S
C299 C295 1.400 . S
C299 C298 1.385 . S
C300 C298 1.478 . S
C300 C302 1.381 . S
C300 C306 1.383 . S
C301 C297 1.495 1_655 S
C301 H307 0.959 . S
C301 H308 0.961 . S
C301 H309 0.960 . S
C302 C300 1.381 . S
C302 C303 1.394 . S
C302 H310 0.930 . S
C303 C302 1.394 . S
C303 C304 1.383 . S
C303 H311 0.929 1_455 S
C304 C303 1.383 . S
C304 C305 1.377 . S
C305 H289 0.930 . S
C305 C304 1.377 . S
C305 C306 1.379 . S
C306 H290 0.931 . S
C306 C300 1.383 . S
C306 C305 1.379 . S
H307 C301 0.959 . S
H308 C301 0.961 . S
H309 C301 0.960 . S
H310 C302 0.930 . S
H311 C303 0.929 1_655 S
H312 C320 0.929 . S
H313 C322 0.930 . S
H314 C324 0.930 . S
H315 C327 0.929 1_554 S
H316 C330 0.930 . S
H317 C332 0.960 . S
H318 C332 0.960 . S
H319 C332 0.960 . S
C320 H312 0.929 . S
C320 C321 1.377 . S
C320 C322 1.384 . S
C321 C320 1.377 . S
C321 C327 1.390 . S
C322 H313 0.930 . S
C322 C320 1.384 . S
C322 C323 1.372 . S
C323 C322 1.372 . S
C323 C324 1.400 . S
C323 C328 1.490 . S
C324 H314 0.930 . S
C324 C323 1.400 . S
C324 C327 1.386 . S
H325 C341 0.934 . S
H326 C342 0.936 . S
C327 H315 0.929 1_556 S
C327 C321 1.390 . S
C327 C324 1.386 . S
C328 C323 1.490 . S
C328 C330 1.395 1_565 S
C328 C331 1.403 . S
H329 C335 0.930 . S
C330 H316 0.930 . S
C330 C328 1.395 1_545 S
C330 C333 1.403 . S
C331 C328 1.403 . S
C331 C332 1.524 . S
C331 C335 1.400 . S
C332 H317 0.960 . S
C332 H318 0.960 . S
C332 H319 0.960 . S
C332 C331 1.524 . S
C333 C330 1.403 . S
C333 C334 1.345 1_545 S
C333 C337 1.495 . S
C334 C333 1.345 1_565 S
C334 C335 1.436 . S
C334 C336 1.481 1_565 S
C335 H329 0.930 . S
C335 C331 1.400 . S
C335 C334 1.436 . S
C336 C334 1.481 1_545 S
C336 C338 1.389 . S
C336 C342 1.369 1_545 S
C337 C333 1.495 . S
C337 H343 0.959 . S
C337 H344 0.961 . S
C337 H345 0.960 . S
C338 C336 1.389 . S
C338 C339 1.394 . S
C338 H346 0.930 . S
C339 C338 1.394 . S
C339 C340 1.383 . S
C339 H347 0.929 . S
C340 C339 1.383 . S
C340 C341 1.374 1_545 S
C341 H325 0.934 . S
C341 C340 1.374 1_565 S
C341 C342 1.381 . S
C342 H326 0.936 . S
C342 C336 1.369 1_565 S
C342 C341 1.381 . S
H343 C337 0.959 . S
H344 C337 0.961 . S
H345 C337 0.960 . S
H346 C338 0.930 . S
H347 C339 0.929 . S
H348 C356 0.929 1_554 S
H349 C358 0.930 . S
H350 C360 0.930 . S
H351 C363 0.929 . S
H352 C366 0.930 . S
H353 C368 0.960 . S
H354 C368 0.960 . S
H355 C368 0.960 . S
C356 H348 0.929 1_556 S
C356 C357 1.377 . S
C356 C358 1.384 . S
C357 C356 1.377 . S
C357 C363 1.390 . S
C358 H349 0.930 . S
C358 C356 1.384 . S
C358 C359 1.372 . S
C359 C358 1.372 . S
C359 C360 1.400 . S
C359 C364 1.490 . S
C360 H350 0.930 . S
C360 C359 1.400 . S
C360 C363 1.386 . S
H361 C377 0.930 . S
H362 C378 0.931 . S
C363 H351 0.929 . S
C363 C357 1.390 . S
C363 C360 1.386 . S
C364 C359 1.490 . S
C364 C366 1.395 . S
C364 C367 1.403 . S
H365 C371 0.930 . S
C366 H352 0.930 . S
C366 C364 1.395 . S
C366 C369 1.403 . S
C367 C364 1.403 . S
C367 C368 1.524 . S
C367 C371 1.400 . S
C368 H353 0.960 . S
C368 H354 0.960 . S
C368 H355 0.960 . S
C368 C367 1.524 . S
C369 C366 1.403 . S
C369 C370 1.392 . S
C369 C373 1.495 . S
C370 C369 1.392 . S
C370 C371 1.385 . S
C370 C372 1.478 . S
C371 H365 0.930 . S
C371 C367 1.400 . S
C371 C370 1.385 . S
C372 C370 1.478 . S
C372 C374 1.381 . S
C372 C378 1.383 . S
C373 C369 1.495 . S
C373 H379 0.959 . S
C373 H380 0.961 . S
C373 H381 0.960 . S
C374 C372 1.381 . S
C374 C375 1.394 . S
C374 H382 0.930 . S
C375 C374 1.394 . S
C375 C376 1.383 . S
C375 H383 0.929 . S
C376 C375 1.383 . S
C376 C377 1.377 . S
C377 H361 0.930 . S
C377 C376 1.377 . S
C377 C378 1.379 . S
C378 H362 0.931 . S
C378 C372 1.383 . S
C378 C377 1.379 . S
H379 C373 0.959 . S
H380 C373 0.961 . S
H381 C373 0.960 . S
H382 C374 0.930 . S
H383 C375 0.929 . S
H384 C392 0.929 . S
H385 C394 0.930 . S
H386 C396 0.930 . S
H387 C399 0.929 . S
H388 C402 0.930 . S
H389 C404 0.960 . S
H390 C404 0.960 . S
H391 C404 0.960 . S
C392 H384 0.929 . S
C392 C393 1.377 . S
C392 C394 1.384 . S
C393 C392 1.377 . S
C393 C399 1.390 . S
C394 H385 0.930 . S
C394 C392 1.384 . S
C394 C395 1.372 . S
C395 C394 1.372 . S
C395 C396 1.400 . S
C395 C400 1.490 . S
C396 H386 0.930 . S
C396 C395 1.400 . S
C396 C399 1.386 . S
H397 C413 0.930 . S
H398 C414 0.931 . S
C399 H387 0.929 . S
C399 C393 1.390 . S
C399 C396 1.386 . S
C400 C395 1.490 . S
C400 C402 1.395 . S
C400 C403 1.403 . S
H401 C407 0.930 . S
C402 H388 0.930 . S
C402 C400 1.395 . S
C402 C405 1.403 . S
C403 C400 1.403 . S
C403 C404 1.524 . S
C403 C407 1.400 . S
C404 H389 0.960 . S
C404 H390 0.960 . S
C404 H391 0.960 . S
C404 C403 1.524 . S
C405 C402 1.403 . S
C405 C406 1.392 . S
C405 C409 1.495 . S
C406 C405 1.392 . S
C406 C407 1.385 . S
C406 C408 1.478 . S
C407 H401 0.930 . S
C407 C403 1.400 . S
C407 C406 1.385 . S
C408 C406 1.478 . S
C408 C410 1.381 . S
C408 C414 1.383 . S
C409 C405 1.495 . S
C409 H415 0.959 . S
C409 H416 0.961 . S
C409 H417 0.960 . S
C410 C408 1.381 . S
C410 C411 1.394 . S
C410 H418 0.930 . S
C411 C410 1.394 . S
C411 C412 1.383 . S
C411 H419 0.929 . S
C412 C411 1.383 . S
C412 C413 1.377 . S
C413 H397 0.930 . S
C413 C412 1.377 . S
C413 C414 1.379 . S
C414 H398 0.931 . S
C414 C408 1.383 . S
C414 C413 1.379 . S
H415 C409 0.959 . S
H416 C409 0.961 . S
H417 C409 0.960 . S
H418 C410 0.930 . S
H419 C411 0.929 . S
H420 C428 0.929 . S
H421 C430 0.930 . S
H422 C432 0.930 . S
H423 C435 0.929 . S
H424 C438 0.930 1_455 S
H425 C440 0.960 . S
H426 C440 0.960 . S
H427 C440 0.960 . S
C428 H420 0.929 . S
C428 C429 1.377 . S
C428 C430 1.384 . S
C429 C428 1.377 . S
C429 C435 1.390 . S
C430 H421 0.930 . S
C430 C428 1.384 . S
C430 C431 1.372 . S
C431 C430 1.372 . S
C431 C432 1.400 . S
C431 C436 1.490 . S
C432 H422 0.930 . S
C432 C431 1.400 . S
C432 C435 1.386 . S
H433 C449 0.930 . S
H434 C450 0.931 . S
C435 H423 0.929 . S
C435 C429 1.390 . S
C435 C432 1.386 . S
C436 C431 1.490 . S
C436 C438 1.395 . S
C436 C439 1.403 . S
H437 C443 0.930 . S
C438 H424 0.930 1_655 S
C438 C436 1.395 . S
C438 C441 1.403 1_655 S
C439 C436 1.403 . S
C439 C440 1.524 . S
C439 C443 1.400 . S
C440 H425 0.960 . S
C440 H426 0.960 . S
C440 H427 0.960 . S
C440 C439 1.524 . S
C441 C438 1.403 1_455 S
C441 C442 1.392 1_455 S
C441 C445 1.495 . S
C442 C441 1.392 1_655 S
C442 C443 1.385 . S
C442 C444 1.478 . S
C443 H437 0.930 . S
C443 C439 1.400 . S
C443 C442 1.385 . S
C444 C442 1.478 . S
C444 C446 1.381 1_655 S
C444 C450 1.383 . S
C445 C441 1.495 . S
C445 H451 0.959 . S
C445 H452 0.961 . S
C445 H453 0.960 . S
C446 C444 1.381 1_455 S
C446 C447 1.394 . S
C446 H454 0.930 . S
C447 C446 1.394 . S
C447 C448 1.383 . S
C447 H455 0.929 . S
C448 C447 1.383 . S
C448 C449 1.377 1_455 S
C449 H433 0.930 . S
C449 C448 1.377 1_655 S
C449 C450 1.379 . S
C450 H434 0.931 . S
C450 C444 1.383 . S
C450 C449 1.379 . S
H451 C445 0.959 . S
H452 C445 0.961 . S
H453 C445 0.960 . S
H454 C446 0.930 . S
H455 C447 0.929 . S
H456 C464 0.929 . S
H457 C466 0.930 . S
H458 C468 0.930 . S
H459 C471 0.929 . S
H460 C474 0.930 . S
H461 C476 0.960 . S
H462 C476 0.960 . S
H463 C476 0.960 . S
C464 H456 0.929 . S
C464 C465 1.377 . S
C464 C466 1.384 . S
C465 C464 1.377 . S
C465 C471 1.390 . S
C466 H457 0.930 . S
C466 C464 1.384 . S
C466 C467 1.372 . S
C467 C466 1.372 . S
C467 C468 1.400 . S
C467 C472 1.490 . S
C468 H458 0.930 . S
C468 C467 1.400 . S
C468 C471 1.386 . S
H469 C485 0.930 . S
H470 C486 0.931 . S
C471 H459 0.929 . S
C471 C465 1.390 . S
C471 C468 1.386 . S
C472 C467 1.490 . S
C472 C474 1.395 . S
C472 C475 1.403 . S
H473 C479 0.930 . S
C474 H460 0.930 . S
C474 C472 1.395 . S
C474 C477 1.403 . S
C475 C472 1.403 . S
C475 C476 1.524 . S
C475 C479 1.400 . S
C476 H461 0.960 . S
C476 H462 0.960 . S
C476 H463 0.960 . S
C476 C475 1.524 . S
C477 C474 1.403 . S
C477 C478 1.392 . S
C477 C481 1.495 . S
C478 C477 1.392 . S
C478 C479 1.385 . S
C478 C480 1.478 . S
C479 H473 0.930 . S
C479 C475 1.400 . S
C479 C478 1.385 . S
C480 C478 1.478 . S
C480 C482 1.381 . S
C480 C486 1.383 . S
C481 C477 1.495 . S
C481 H487 0.959 . S
C481 H488 0.961 . S
C481 H489 0.960 . S
C482 C480 1.381 . S
C482 C483 1.394 . S
C482 H490 0.930 . S
C483 C482 1.394 . S
C483 C484 1.383 . S
C483 H491 0.929 1_455 S
C484 C483 1.383 . S
C484 C485 1.377 . S
C485 H469 0.930 . S
C485 C484 1.377 . S
C485 C486 1.379 . S
C486 H470 0.931 . S
C486 C480 1.383 . S
C486 C485 1.379 . S
H487 C481 0.959 . S
H488 C481 0.961 . S
H489 C481 0.960 . S
H490 C482 0.930 . S
H491 C483 0.929 1_655 S
H492 C500 0.929 . S
H493 C502 0.930 . S
H494 C504 0.930 . S
H495 C507 0.915 1_565 S
H496 C510 0.930 . S
H497 C512 0.960 . S
H498 C512 0.960 . S
H499 C512 0.960 1_565 S
C500 H492 0.929 . S
C500 C501 1.377 . S
C500 C502 1.384 . S
C501 C500 1.377 . S
C501 C507 1.408 . S
C502 H493 0.930 . S
C502 C500 1.384 . S
C502 C503 1.372 . S
C503 C502 1.372 . S
C503 C504 1.400 1_545 S
C503 C508 1.490 . S
C504 H494 0.930 . S
C504 C503 1.400 1_565 S
C504 C507 1.382 1_565 S
H505 C521 0.930 . S
H506 C522 0.931 . S
C507 H495 0.915 1_545 S
C507 C501 1.408 . S
C507 C504 1.382 1_545 S
C508 C503 1.490 . S
C508 C510 1.395 . S
C508 C511 1.403 . S
H509 C515 0.930 . S
C510 H496 0.930 . S
C510 C508 1.395 . S
C510 C513 1.403 . S
C511 C508 1.403 . S
C511 C512 1.524 . S
C511 C515 1.400 . S
C512 H497 0.960 . S
C512 H498 0.960 . S
C512 H499 0.960 1_545 S
C512 C511 1.524 . S
C513 C510 1.403 . S
C513 C514 1.392 . S
C513 C517 1.495 . S
C514 C513 1.392 . S
C514 C515 1.385 . S
C514 C516 1.478 . S
C515 H509 0.930 . S
C515 C511 1.400 . S
C515 C514 1.385 . S
C516 C514 1.478 . S
C516 C518 1.381 . S
C516 C522 1.383 1_545 S
C517 C513 1.495 . S
C517 H523 0.959 . S
C517 H524 0.961 1_545 S
C517 H525 0.960 . S
C518 C516 1.381 . S
C518 C519 1.394 . S
C518 H526 0.930 . S
C519 C518 1.394 . S
C519 C520 1.383 1_545 S
C519 H527 0.929 . S
C520 C519 1.383 1_565 S
C520 C521 1.377 . S
C521 H505 0.930 . S
C521 C520 1.377 . S
C521 C522 1.379 . S
C522 H506 0.931 . S
C522 C516 1.383 1_565 S
C522 C521 1.379 . S
H523 C517 0.959 . S
H524 C517 0.961 1_565 S
H525 C517 0.960 . S
H526 C518 0.930 . S
H527 C519 0.929 . S
H528 C536 0.929 . S
H529 C538 0.930 . S
H530 C540 0.930 . S
H531 C543 0.929 . S
H532 C546 0.930 . S
H533 C548 0.960 . S
H534 C548 0.960 . S
H535 C548 0.960 . S
C536 H528 0.929 . S
C536 C537 1.377 . S
C536 C538 1.384 . S
C537 C536 1.377 . S
C537 C543 1.390 . S
C538 H529 0.930 . S
C538 C536 1.384 . S
C538 C539 1.372 . S
C539 C538 1.372 . S
C539 C540 1.400 . S
C539 C544 1.490 . S
C540 H530 0.930 . S
C540 C539 1.400 . S
C540 C543 1.386 . S
H541 C557 0.930 . S
H542 C558 0.931 . S
C543 H531 0.929 . S
C543 C537 1.390 . S
C543 C540 1.386 . S
C544 C539 1.490 . S
C544 C546 1.395 . S
C544 C547 1.403 . S
H545 C551 0.930 . S
C546 H532 0.930 . S
C546 C544 1.395 . S
C546 C549 1.403 . S
C547 C544 1.403 . S
C547 C548 1.524 . S
C547 C551 1.400 . S
C548 H533 0.960 . S
C548 H534 0.960 . S
C548 H535 0.960 . S
C548 C547 1.524 . S
C549 C546 1.403 . S
C549 C550 1.392 . S
C549 C553 1.495 . S
C550 C549 1.392 . S
C550 C551 1.385 . S
C550 C552 1.478 . S
C551 H545 0.930 . S
C551 C547 1.400 . S
C551 C550 1.385 . S
C552 C550 1.478 . S
C552 C554 1.381 . S
C552 C558 1.383 . S
C553 C549 1.495 . S
C553 H559 0.959 . S
C553 H560 0.961 . S
C553 H561 0.960 . S
C554 C552 1.381 . S
C554 C555 1.394 . S
C554 H562 0.930 . S
C555 C554 1.394 . S
C555 C556 1.383 . S
C555 H563 0.929 . S
C556 C555 1.383 . S
C556 C557 1.377 . S
C557 H541 0.930 . S
C557 C556 1.377 . S
C557 C558 1.379 . S
C558 H542 0.931 . S
C558 C552 1.383 . S
C558 C557 1.379 . S
H559 C553 0.959 . S
H560 C553 0.961 . S
H561 C553 0.960 . S
H562 C554 0.930 . S
H563 C555 0.929 . S
H564 C572 0.929 . S
H565 C574 0.930 . S
H566 C576 0.930 . S
H567 C579 0.929 . S
H568 C582 0.930 . S
H569 C584 0.960 . S
H570 C584 0.960 . S
H571 C584 0.960 . S
C572 H564 0.929 . S
C572 C573 1.377 . S
C572 C574 1.384 . S
C573 C572 1.377 . S
C573 C579 1.390 . S
C574 H565 0.930 . S
C574 C572 1.384 . S
C574 C575 1.372 . S
C575 C574 1.372 . S
C575 C576 1.400 . S
C575 C580 1.490 . S
C576 H566 0.930 . S
C576 C575 1.400 . S
C576 C579 1.386 . S
H577 C593 0.930 . S
H578 C594 0.931 . S
C579 H567 0.929 . S
C579 C573 1.390 . S
C579 C576 1.386 . S
C580 C575 1.490 . S
C580 C582 1.395 . S
C580 C583 1.403 . S
H581 C587 0.930 . S
C582 H568 0.930 . S
C582 C580 1.395 . S
C582 C585 1.403 . S
C583 C580 1.403 . S
C583 C584 1.524 . S
C583 C587 1.400 . S
C584 H569 0.960 . S
C584 H570 0.960 . S
C584 H571 0.960 . S
C584 C583 1.524 . S
C585 C582 1.403 . S
C585 C586 1.392 . S
C585 C589 1.495 . S
C586 C585 1.392 . S
C586 C587 1.385 . S
C586 C588 1.478 . S
C587 H581 0.930 . S
C587 C583 1.400 . S
C587 C586 1.385 . S
C588 C586 1.478 . S
C588 C590 1.381 . S
C588 C594 1.383 . S
C589 C585 1.495 . S
C589 H595 0.959 . S
C589 H596 0.961 . S
C589 H597 0.960 . S
C590 C588 1.381 . S
C590 C591 1.394 . S
C590 H598 0.930 . S
C591 C590 1.394 . S
C591 C592 1.383 . S
C591 H599 0.929 . S
C592 C591 1.383 . S
C592 C593 1.377 . S
C593 H577 0.930 . S
C593 C592 1.377 . S
C593 C594 1.379 . S
C594 H578 0.931 . S
C594 C588 1.383 . S
C594 C593 1.379 . S
H595 C589 0.959 . S
H596 C589 0.961 . S
H597 C589 0.960 . S
H598 C590 0.930 . S
H599 C591 0.929 . S
H600 C608 0.929 . S
H601 C610 0.930 . S
H602 C612 0.930 . S
H603 C615 0.929 . S
H604 C618 0.930 . S
H605 C620 0.994 . S
H606 C620 0.927 1_655 S
H607 C620 0.990 . S
C608 H600 0.929 . S
C608 C609 1.377 . S
C608 C610 1.384 . S
C609 C608 1.377 . S
C609 C615 1.390 . S
C610 H601 0.930 . S
C610 C608 1.384 . S
C610 C611 1.372 . S
C611 C610 1.372 . S
C611 C612 1.400 . S
C611 C616 1.490 . S
C612 H602 0.930 . S
C612 C611 1.400 . S
C612 C615 1.386 . S
H613 C629 0.930 . S
H614 C630 0.931 . S
C615 H603 0.929 . S
C615 C609 1.390 . S
C615 C612 1.386 . S
C616 C611 1.490 . S
C616 C618 1.395 . S
C616 C619 1.403 . S
H617 C623 0.930 1_455 S
C618 H604 0.930 . S
C618 C616 1.395 . S
C618 C621 1.403 . S
C619 C616 1.403 . S
C619 C620 1.496 1_655 S
C619 C623 1.400 . S
C620 H605 0.994 . S
C620 H606 0.927 1_455 S
C620 H607 0.990 . S
C620 C619 1.496 1_455 S
C621 C618 1.403 . S
C621 C622 1.392 . S
C621 C625 1.495 . S
C622 C621 1.392 . S
C622 C623 1.385 . S
C622 C624 1.478 . S
C623 H617 0.930 1_655 S
C623 C619 1.400 . S
C623 C622 1.385 . S
C624 C622 1.478 . S
C624 C626 1.381 . S
C624 C630 1.383 1_655 S
C625 C621 1.495 . S
C625 H631 0.959 . S
C625 H632 0.961 . S
C625 H633 0.960 . S
C626 C624 1.381 . S
C626 C627 1.394 . S
C626 H634 0.930 . S
C627 C626 1.394 . S
C627 C628 1.383 1_655 S
C627 H635 0.929 . S
C628 C627 1.383 1_455 S
C628 C629 1.377 . S
C629 H613 0.930 . S
C629 C628 1.377 . S
C629 C630 1.379 . S
C630 H614 0.931 . S
C630 C624 1.383 1_455 S
C630 C629 1.379 . S
H631 C625 0.959 . S
H632 C625 0.961 . S
H633 C625 0.960 . S
H634 C626 0.930 . S
H635 C627 0.929 . S
H636 C644 0.930 1_554 S
H637 C646 0.935 1_545 S
H638 C648 0.930 . S
H639 C651 0.929 . S
H640 C654 0.930 . S
H641 C656 0.960 . S
H642 C656 0.960 . S
H643 C656 0.960 . S
C644 H636 0.930 1_556 S
C644 C645 1.377 . S
C644 C646 1.383 . S
C645 C644 1.377 . S
C645 C651 1.390 . S
C646 H637 0.935 1_565 S
C646 C644 1.383 . S
C646 C647 1.372 . S
C647 C646 1.372 . S
C647 C648 1.400 . S
C647 C652 1.490 . S
C648 H638 0.930 . S
C648 C647 1.400 . S
C648 C651 1.386 . S
H649 C665 0.924 1_565 S
H650 C666 0.941 . S
C651 H639 0.929 . S
C651 C645 1.390 . S
C651 C648 1.386 . S
C652 C647 1.490 . S
C652 C654 1.395 1_565 S
C652 C655 1.403 . S
H653 C659 0.930 . S
C654 H640 0.930 . S
C654 C652 1.395 1_545 S
C654 C657 1.403 . S
C655 C652 1.403 . S
C655 C656 1.524 . S
C655 C659 1.400 . S
C656 H641 0.960 . S
C656 H642 0.960 . S
C656 H643 0.960 . S
C656 C655 1.524 . S
C657 C654 1.403 . S
C657 C658 1.392 . S
C657 C661 1.495 . S
C658 C657 1.392 . S
C658 C659 1.385 1_545 S
C658 C660 1.478 . S
C659 H653 0.930 . S
C659 C655 1.400 . S
C659 C658 1.385 1_565 S
C660 C658 1.478 . S
C660 C662 1.381 . S
C660 C666 1.378 1_545 S
C661 C657 1.495 . S
C661 H667 0.959 . S
C661 H668 0.961 . S
C661 H669 0.960 . S
C662 C660 1.381 . S
C662 C663 1.394 . S
C662 H670 0.930 . S
C663 C662 1.394 . S
C663 C664 1.383 . S
C663 H671 0.929 . S
C664 C663 1.383 . S
C664 C665 1.387 . S
C665 H649 0.924 1_545 S
C665 C664 1.387 . S
C665 C666 1.372 1_545 S
C666 H650 0.941 . S
C666 C660 1.378 1_565 S
C666 C665 1.372 1_565 S
H667 C661 0.959 . S
H668 C661 0.961 . S
H669 C661 0.960 . S
H670 C662 0.930 . S
H671 C663 0.929 . S
H672 C680 0.929 . S
H673 C682 0.930 . S
H674 C684 0.930 . S
H675 C687 0.929 1_554 S
H676 C690 0.930 . S
H677 C692 0.960 . S
H678 C692 0.960 1_554 S
H679 C692 0.960 1_554 S
C680 H672 0.929 . S
C680 C681 1.377 . S
C680 C682 1.384 . S
C681 C680 1.377 . S
C681 C687 1.390 . S
C682 H673 0.930 . S
C682 C680 1.384 . S
C682 C683 1.372 . S
C683 C682 1.372 . S
C683 C684 1.400 . S
C683 C688 1.490 . S
C684 H674 0.930 . S
C684 C683 1.400 . S
C684 C687 1.386 . S
H685 C701 0.930 . S
H686 C702 0.931 . S
C687 H675 0.929 1_556 S
C687 C681 1.390 . S
C687 C684 1.386 . S
C688 C683 1.490 . S
C688 C690 1.395 . S
C688 C691 1.403 . S
H689 C695 0.930 . S
C690 H676 0.930 . S
C690 C688 1.395 . S
C690 C693 1.403 . S
C691 C688 1.403 . S
C691 C692 1.524 . S
C691 C695 1.400 . S
C692 H677 0.960 . S
C692 H678 0.960 1_556 S
C692 H679 0.960 1_556 S
C692 C691 1.524 . S
C693 C690 1.403 . S
C693 C694 1.392 . S
C693 C697 1.495 . S
C694 C693 1.392 . S
C694 C695 1.385 . S
C694 C696 1.478 . S
C695 H689 0.930 . S
C695 C691 1.400 . S
C695 C694 1.385 . S
C696 C694 1.478 . S
C696 C698 1.381 . S
C696 C702 1.383 . S
C697 C693 1.495 . S
C697 H703 0.959 . S
C697 H704 0.961 . S
C697 H705 0.960 . S
C698 C696 1.381 . S
C698 C699 1.394 . S
C698 H706 0.930 . S
C699 C698 1.394 . S
C699 C700 1.383 . S
C699 H707 0.929 . S
C700 C699 1.383 . S
C700 C701 1.377 . S
C701 H685 0.930 . S
C701 C700 1.377 . S
C701 C702 1.379 . S
C702 H686 0.931 . S
C702 C696 1.383 . S
C702 C701 1.379 . S
H703 C697 0.959 . S
H704 C697 0.961 . S
H705 C697 0.960 . S
H706 C698 0.930 . S
H707 C699 0.929 . S
H708 C716 0.929 . S
H709 C718 0.930 . S
H710 C720 0.930 . S
H711 C723 0.929 . S
H712 C726 0.930 . S
H713 C728 0.960 . S
H714 C728 0.960 . S
H715 C728 0.960 . S
C716 H708 0.929 . S
C716 C717 1.377 . S
C716 C718 1.384 . S
C717 C716 1.377 . S
C717 C723 1.390 . S
C718 H709 0.930 . S
C718 C716 1.384 . S
C718 C719 1.372 . S
C719 C718 1.372 . S
C719 C720 1.400 . S
C719 C724 1.490 . S
C720 H710 0.930 . S
C720 C719 1.400 . S
C720 C723 1.386 . S
H721 C737 0.930 . S
H722 C738 0.931 . S
C723 H711 0.929 . S
C723 C717 1.390 . S
C723 C720 1.386 . S
C724 C719 1.490 . S
C724 C726 1.395 . S
C724 C727 1.403 . S
H725 C731 0.930 . S
C726 H712 0.930 . S
C726 C724 1.395 . S
C726 C729 1.403 . S
C727 C724 1.403 . S
C727 C728 1.524 . S
C727 C731 1.400 . S
C728 H713 0.960 . S
C728 H714 0.960 . S
C728 H715 0.960 . S
C728 C727 1.524 . S
C729 C726 1.403 . S
C729 C730 1.392 . S
C729 C733 1.495 . S
C730 C729 1.392 . S
C730 C731 1.385 . S
C730 C732 1.478 . S
C731 H725 0.930 . S
C731 C727 1.400 . S
C731 C730 1.385 . S
C732 C730 1.478 . S
C732 C734 1.381 . S
C732 C738 1.383 . S
C733 C729 1.495 . S
C733 H739 0.959 . S
C733 H740 0.961 . S
C733 H741 0.960 . S
C734 C732 1.381 . S
C734 C735 1.394 . S
C734 H742 0.930 . S
C735 C734 1.394 . S
C735 C736 1.383 . S
C735 H743 0.929 . S
C736 C735 1.383 . S
C736 C737 1.377 . S
C737 H721 0.930 . S
C737 C736 1.377 . S
C737 C738 1.379 . S
C738 H722 0.931 . S
C738 C732 1.383 . S
C738 C737 1.379 . S
H739 C733 0.959 . S
H740 C733 0.961 . S
H741 C733 0.960 . S
H742 C734 0.930 . S
H743 C735 0.929 . S
H744 C752 0.929 1_554 S
H745 C754 0.930 . S
H746 C756 0.930 . S
H747 C759 0.929 . S
H748 C762 0.930 . S
H749 C764 0.960 . S
H750 C764 0.960 . S
H751 C764 0.960 . S
C752 H744 0.929 1_556 S
C752 C753 1.377 . S
C752 C754 1.384 . S
C753 C752 1.377 . S
C753 C759 1.390 . S
C754 H745 0.930 . S
C754 C752 1.384 . S
C754 C755 1.372 . S
C755 C754 1.372 . S
C755 C756 1.400 . S
C755 C760 1.490 . S
C756 H746 0.930 . S
C756 C755 1.400 . S
C756 C759 1.386 . S
H757 C773 0.930 . S
H758 C774 0.931 . S
C759 H747 0.929 . S
C759 C753 1.390 . S
C759 C756 1.386 . S
C760 C755 1.490 . S
C760 C762 1.395 . S
C760 C763 1.403 . S
H761 C767 0.930 . S
C762 H748 0.930 . S
C762 C760 1.395 . S
C762 C765 1.403 . S
C763 C760 1.403 . S
C763 C764 1.524 . S
C763 C767 1.400 . S
C764 H749 0.960 . S
C764 H750 0.960 . S
C764 H751 0.960 . S
C764 C763 1.524 . S
C765 C762 1.403 . S
C765 C766 1.392 . S
C765 C769 1.495 . S
C766 C765 1.392 . S
C766 C767 1.385 . S
C766 C768 1.478 . S
C767 H761 0.930 . S
C767 C763 1.400 . S
C767 C766 1.385 . S
C768 C766 1.478 . S
C768 C770 1.381 . S
C768 C774 1.383 . S
C769 C765 1.495 . S
C769 H775 0.959 . S
C769 H776 0.961 . S
C769 H777 0.960 1_455 S
C770 C768 1.381 . S
C770 C771 1.394 . S
C770 H778 0.930 . S
C771 C770 1.394 . S
C771 C772 1.383 . S
C771 H779 0.929 1_455 S
C772 C771 1.383 . S
C772 C773 1.377 . S
C773 H757 0.930 . S
C773 C772 1.377 . S
C773 C774 1.379 . S
C774 H758 0.931 . S
C774 C768 1.383 . S
C774 C773 1.379 . S
H775 C769 0.959 . S
H776 C769 0.961 . S
H777 C769 0.960 1_655 S
H778 C770 0.930 . S
H779 C771 0.929 1_655 S
H780 C788 0.935 . S
H781 C790 0.930 . S
H782 C792 0.930 . S
H783 C795 0.929 . S
H784 C798 0.936 . S
H785 C800 0.960 . S
H786 C800 0.960 1_554 S
H787 C800 0.960 . S
C788 H780 0.935 . S
C788 C789 1.377 1_565 S
C788 C790 1.384 . S
C789 C788 1.377 1_545 S
C789 C795 1.390 . S
C790 H781 0.930 . S
C790 C788 1.384 . S
C790 C791 1.372 1_565 S
C791 C790 1.372 1_545 S
C791 C792 1.400 . S
C791 C796 1.490 . S
C792 H782 0.930 . S
C792 C791 1.400 . S
C792 C795 1.386 . S
H793 C809 0.930 . S
H794 C810 0.931 . S
C795 H783 0.929 . S
C795 C789 1.390 . S
C795 C792 1.386 . S
C796 C791 1.490 . S
C796 C798 1.386 1_545 S
C796 C799 1.403 . S
H797 C803 0.930 . S
C798 H784 0.936 . S
C798 C796 1.386 1_565 S
C798 C801 1.406 . S
C799 C796 1.403 . S
C799 C800 1.524 . S
C799 C803 1.400 . S
C800 H785 0.960 . S
C800 H786 0.960 1_556 S
C800 H787 0.960 . S
C800 C799 1.524 . S
C801 C798 1.406 . S
C801 C802 1.392 1_565 S
C801 C805 1.495 . S
C802 C801 1.392 1_545 S
C802 C803 1.385 . S
C802 C804 1.478 . S
C803 H797 0.930 . S
C803 C799 1.400 . S
C803 C802 1.385 . S
C804 C802 1.478 . S
C804 C806 1.381 1_545 S
C804 C810 1.383 . S
C805 C801 1.495 . S
C805 H811 0.959 . S
C805 H812 0.961 . S
C805 H813 0.960 . S
C806 C804 1.381 1_565 S
C806 C807 1.394 . S
C806 H814 0.930 . S
C807 C806 1.394 . S
C807 C808 1.383 1_565 S
C807 H815 0.929 . S
C808 C807 1.383 1_545 S
C808 C809 1.377 . S
C809 H793 0.930 . S
C809 C808 1.377 . S
C809 C810 1.379 . S
C810 H794 0.931 . S
C810 C804 1.383 . S
C810 C809 1.379 . S
H811 C805 0.959 . S
H812 C805 0.961 . S
H813 C805 0.960 . S
H814 C806 0.930 . S
H815 C807 0.929 . S
H816 C824 0.929 . S
H817 C826 0.930 . S
H818 C828 0.930 . S
H819 C831 0.929 . S
H820 C834 0.930 . S
H821 C836 0.960 . S
H822 C836 0.960 . S
H823 C836 0.960 . S
C824 H816 0.929 . S
C824 C825 1.377 . S
C824 C826 1.384 . S
C825 C824 1.377 . S
C825 C831 1.390 . S
C826 H817 0.930 . S
C826 C824 1.384 . S
C826 C827 1.372 . S
C827 C826 1.372 . S
C827 C828 1.400 . S
C827 C832 1.490 . S
C828 H818 0.930 . S
C828 C827 1.400 . S
C828 C831 1.386 . S
H829 C845 0.930 . S
H830 C846 0.931 . S
C831 H819 0.929 . S
C831 C825 1.390 . S
C831 C828 1.386 . S
C832 C827 1.490 . S
C832 C834 1.395 . S
C832 C835 1.403 . S
H833 C839 0.930 . S
C834 H820 0.930 . S
C834 C832 1.395 . S
C834 C837 1.403 . S
C835 C832 1.403 . S
C835 C836 1.524 . S
C835 C839 1.400 . S
C836 H821 0.960 . S
C836 H822 0.960 . S
C836 H823 0.960 . S
C836 C835 1.524 . S
C837 C834 1.403 . S
C837 C838 1.392 . S
C837 C841 1.495 . S
C838 C837 1.392 . S
C838 C839 1.385 . S
C838 C840 1.478 . S
C839 H833 0.930 . S
C839 C835 1.400 . S
C839 C838 1.385 . S
C840 C838 1.478 . S
C840 C842 1.381 . S
C840 C846 1.383 . S
C841 C837 1.495 . S
C841 H847 0.959 . S
C841 H848 0.961 . S
C841 H849 0.960 . S
C842 C840 1.381 . S
C842 C843 1.394 . S
C842 H850 0.930 . S
C843 C842 1.394 . S
C843 C844 1.383 . S
C843 H851 0.929 . S
C844 C843 1.383 . S
C844 C845 1.377 . S
C845 H829 0.930 . S
C845 C844 1.377 . S
C845 C846 1.379 . S
C846 H830 0.931 . S
C846 C840 1.383 . S
C846 C845 1.379 . S
H847 C841 0.959 . S
H848 C841 0.961 . S
H849 C841 0.960 . S
H850 C842 0.930 . S
H851 C843 0.929 . S
H852 C860 0.929 . S
H853 C862 0.930 . S
H854 C864 0.930 . S
H855 C867 0.929 . S
H856 C870 0.930 . S
H857 C872 0.960 . S
H858 C872 0.960 . S
H859 C872 0.960 . S
C860 H852 0.929 . S
C860 C861 1.377 . S
C860 C862 1.384 . S
C861 C860 1.377 . S
C861 C867 1.390 . S
C862 H853 0.930 . S
C862 C860 1.384 . S
C862 C863 1.372 . S
C863 C862 1.372 . S
C863 C864 1.400 . S
C863 C868 1.490 . S
C864 H854 0.930 . S
C864 C863 1.400 . S
C864 C867 1.386 . S
H865 C881 0.930 . S
H866 C882 0.931 . S
C867 H855 0.929 . S
C867 C861 1.390 . S
C867 C864 1.386 . S
C868 C863 1.490 . S
C868 C870 1.395 . S
C868 C871 1.403 . S
H869 C875 0.930 . S
C870 H856 0.930 . S
C870 C868 1.395 . S
C870 C873 1.403 . S
C871 C868 1.403 . S
C871 C872 1.524 . S
C871 C875 1.400 . S
C872 H857 0.960 . S
C872 H858 0.960 . S
C872 H859 0.960 . S
C872 C871 1.524 . S
C873 C870 1.403 . S
C873 C874 1.392 . S
C873 C877 1.495 . S
C874 C873 1.392 . S
C874 C875 1.385 . S
C874 C876 1.478 . S
C875 H869 0.930 . S
C875 C871 1.400 . S
C875 C874 1.385 . S
C876 C874 1.478 . S
C876 C878 1.381 . S
C876 C882 1.383 . S
C877 C873 1.495 . S
C877 H883 0.959 . S
C877 H884 0.961 . S
C877 H885 0.960 . S
C878 C876 1.381 . S
C878 C879 1.394 . S
C878 H886 0.930 . S
C879 C878 1.394 . S
C879 C880 1.383 . S
C879 H887 0.929 . S
C880 C879 1.383 . S
C880 C881 1.377 . S
C881 H865 0.930 . S
C881 C880 1.377 . S
C881 C882 1.379 . S
C882 H866 0.931 . S
C882 C876 1.383 . S
C882 C881 1.379 . S
H883 C877 0.959 . S
H884 C877 0.961 . S
H885 C877 0.960 . S
H886 C878 0.930 . S
H887 C879 0.929 . S
H888 C896 0.929 . S
H889 C898 0.930 . S
H890 C900 0.930 . S
H891 C903 0.929 . S
H892 C906 0.930 1_455 S
H893 C908 0.960 . S
H894 C908 0.960 . S
H895 C908 0.960 . S
C896 H888 0.929 . S
C896 C897 1.377 . S
C896 C898 1.384 . S
C897 C896 1.377 . S
C897 C903 1.390 . S
C898 H889 0.930 . S
C898 C896 1.384 . S
C898 C899 1.372 . S
C899 C898 1.372 . S
C899 C900 1.400 . S
C899 C904 1.490 . S
C900 H890 0.930 . S
C900 C899 1.400 . S
C900 C903 1.386 . S
H901 C917 0.930 . S
H902 C918 0.931 . S
C903 H891 0.929 . S
C903 C897 1.390 . S
C903 C900 1.386 . S
C904 C899 1.490 . S
C904 C906 1.395 . S
C904 C907 1.403 . S
H905 C911 0.930 . S
C906 H892 0.930 1_655 S
C906 C904 1.395 . S
C906 C909 1.403 . S
C907 C904 1.403 . S
C907 C908 1.524 . S
C907 C911 1.400 . S
C908 H893 0.960 . S
C908 H894 0.960 . S
C908 H895 0.960 . S
C908 C907 1.524 . S
C909 C906 1.403 . S
C909 C910 1.392 . S
C909 C913 1.495 1_655 S
C910 C909 1.392 . S
C910 C911 1.385 . S
C910 C912 1.478 . S
C911 H905 0.930 . S
C911 C907 1.400 . S
C911 C910 1.385 . S
C912 C910 1.478 . S
C912 C914 1.381 . S
C912 C918 1.383 . S
C913 C909 1.495 1_455 S
C913 H919 0.959 . S
C913 H920 0.961 . S
C913 H921 0.960 . S
C914 C912 1.381 . S
C914 C915 1.394 . S
C914 H922 0.930 . S
C915 C914 1.394 . S
C915 C916 1.383 . S
C915 H923 0.929 . S
C916 C915 1.383 . S
C916 C917 1.377 . S
C917 H901 0.930 . S
C917 C916 1.377 . S
C917 C918 1.379 . S
C918 H902 0.931 . S
C918 C912 1.383 . S
C918 C917 1.379 . S
H919 C913 0.959 . S
H920 C913 0.961 . S
H921 C913 0.960 . S
H922 C914 0.930 . S
H923 C915 0.929 . S
H924 C932 0.929 . S
H925 C934 0.930 . S
H926 C936 0.930 1_545 S
H927 C939 0.929 1_545 S
H928 C942 0.930 1_545 S
H929 C944 0.960 . S
H930 C944 0.960 . S
H931 C944 0.960 . S
C932 H924 0.929 . S
C932 C933 1.377 . S
C932 C934 1.384 . S
C933 C932 1.377 . S
C933 C939 1.390 . S
C934 H925 0.930 . S
C934 C932 1.384 . S
C934 C935 1.372 . S
C935 C934 1.372 . S
C935 C936 1.400 . S
C935 C940 1.490 . S
C936 H926 0.930 1_565 S
C936 C935 1.400 . S
C936 C939 1.386 . S
H937 C953 0.930 . S
H938 C954 0.931 . S
C939 H927 0.929 1_565 S
C939 C933 1.390 . S
C939 C936 1.386 . S
C940 C935 1.490 . S
C940 C942 1.395 . S
C940 C943 1.403 . S
H941 C947 0.930 . S
C942 H928 0.930 1_565 S
C942 C940 1.395 . S
C942 C945 1.396 1_565 S
C943 C940 1.403 . S
C943 C944 1.524 . S
C943 C947 1.400 . S
C944 H929 0.960 . S
C944 H930 0.960 . S
C944 H931 0.960 . S
C944 C943 1.524 . S
C945 C942 1.396 1_545 S
C945 C946 1.381 1_545 S
C945 C949 1.516 . S
C946 C945 1.381 1_565 S
C946 C947 1.385 . S
C946 C948 1.478 . S
C947 H941 0.930 . S
C947 C943 1.400 . S
C947 C946 1.385 . S
C948 C946 1.478 . S
C948 C950 1.381 . S
C948 C954 1.383 1_565 S
C949 C945 1.516 . S
C949 H955 0.959 . S
C949 H956 0.961 . S
C949 H957 0.960 . S
C950 C948 1.381 . S
C950 C951 1.394 . S
C950 H958 0.930 . S
C951 C950 1.394 . S
C951 C952 1.383 . S
C951 H959 0.929 . S
C952 C951 1.383 . S
C952 C953 1.377 1_565 S
C953 H937 0.930 . S
C953 C952 1.377 1_545 S
C953 C954 1.379 . S
C954 H938 0.931 . S
C954 C948 1.383 1_545 S
C954 C953 1.379 . S
H955 C949 0.959 . S
H956 C949 0.961 . S
H957 C949 0.960 . S
H958 C950 0.930 . S
H959 C951 0.929 . S
H960 C968 0.929 . S
H961 C970 0.930 . S
H962 C972 0.930 . S
H963 C975 0.929 . S
H964 C978 0.930 . S
H965 C980 0.960 . S
H966 C980 0.960 . S
H967 C980 0.960 . S
C968 H960 0.929 . S
C968 C969 1.377 . S
C968 C970 1.384 . S
C969 C968 1.377 . S
C969 C975 1.390 . S
C970 H961 0.930 . S
C970 C968 1.384 . S
C970 C971 1.372 . S
C971 C970 1.372 . S
C971 C972 1.400 . S
C971 C976 1.490 . S
C972 H962 0.930 . S
C972 C971 1.400 . S
C972 C975 1.386 . S
H973 C989 0.930 . S
H974 C990 0.931 . S
C975 H963 0.929 . S
C975 C969 1.390 . S
C975 C972 1.386 . S
C976 C971 1.490 . S
C976 C978 1.395 . S
C976 C979 1.403 . S
H977 C983 0.930 . S
C978 H964 0.930 . S
C978 C976 1.395 . S
C978 C981 1.403 . S
C979 C976 1.403 . S
C979 C980 1.524 . S
C979 C983 1.400 . S
C980 H965 0.960 . S
C980 H966 0.960 . S
C980 H967 0.960 . S
C980 C979 1.524 . S
C981 C978 1.403 . S
C981 C982 1.392 . S
C981 C985 1.495 . S
C982 C981 1.392 . S
C982 C983 1.385 . S
C982 C984 1.478 . S
C983 H977 0.930 . S
C983 C979 1.400 . S
C983 C982 1.385 . S
C984 C982 1.478 . S
C984 C986 1.381 . S
C984 C990 1.383 . S
C985 C981 1.495 . S
C985 H991 0.959 . S
C985 H992 0.961 . S
C985 H993 0.960 . S
C986 C984 1.381 . S
C986 C987 1.394 . S
C986 H994 0.930 . S
C987 C986 1.394 . S
C987 C988 1.383 . S
C987 H995 0.929 . S
C988 C987 1.383 . S
C988 C989 1.377 . S
C989 H973 0.930 . S
C989 C988 1.377 . S
C989 C990 1.379 . S
C990 H974 0.931 . S
C990 C984 1.383 . S
C990 C989 1.379 . S
H991 C985 0.959 . S
H992 C985 0.961 . S
H993 C985 0.960 . S
H994 C986 0.930 . S
H995 C987 0.929 . S
H996 C1004 0.929 . S
H997 C1006 0.930 . S
H998 C1008 0.930 . S
H999 C1011 0.929 . S
H1000 C1014 0.930 . S
H1001 C1016 0.960 . S
H1002 C1016 0.960 . S
H1003 C1016 0.960 . S
C1004 H996 0.929 . S
C1004 C1005 1.377 . S
C1004 C1006 1.384 . S
C1005 C1004 1.377 . S
C1005 C1011 1.390 . S
C1006 H997 0.930 . S
C1006 C1004 1.384 . S
C1006 C1007 1.372 . S
C1007 C1006 1.372 . S
C1007 C1008 1.400 . S
C1007 C1012 1.490 . S
C1008 H998 0.930 . S
C1008 C1007 1.400 . S
C1008 C1011 1.386 . S
H1009 C1025 0.930 . S
H1010 C1026 0.931 . S
C1011 H999 0.929 . S
C1011 C1005 1.390 . S
C1011 C1008 1.386 . S
C1012 C1007 1.490 . S
C1012 C1014 1.395 . S
C1012 C1015 1.403 . S
H1013 C1019 0.930 . S
C1014 H1000 0.930 . S
C1014 C1012 1.395 . S
C1014 C1017 1.403 . S
C1015 C1012 1.403 . S
C1015 C1016 1.524 . S
C1015 C1019 1.400 . S
C1016 H1001 0.960 . S
C1016 H1002 0.960 . S
C1016 H1003 0.960 . S
C1016 C1015 1.524 . S
C1017 C1014 1.403 . S
C1017 C1018 1.392 . S
C1017 C1021 1.495 . S
C1018 C1017 1.392 . S
C1018 C1019 1.385 . S
C1018 C1020 1.478 . S
C1019 H1013 0.930 . S
C1019 C1015 1.400 . S
C1019 C1018 1.385 . S
C1020 C1018 1.478 . S
C1020 C1022 1.381 . S
C1020 C1026 1.383 . S
C1021 C1017 1.495 . S
C1021 H1027 0.959 . S
C1021 H1028 0.961 . S
C1021 H1029 0.960 . S
C1022 C1020 1.381 . S
C1022 C1023 1.394 . S
C1022 H1030 0.930 . S
C1023 C1022 1.394 . S
C1023 C1024 1.383 . S
C1023 H1031 0.929 . S
C1024 C1023 1.383 . S
C1024 C1025 1.377 . S
C1025 H1009 0.930 . S
C1025 C1024 1.377 . S
C1025 C1026 1.379 . S
C1026 H1010 0.931 . S
C1026 C1020 1.383 . S
C1026 C1025 1.379 . S
H1027 C1021 0.959 . S
H1028 C1021 0.961 . S
H1029 C1021 0.960 . S
H1030 C1022 0.930 . S
H1031 C1023 0.929 . S
C177 C74 1.558 . S
C196 C96 1.565 1_545 S
C232 C126 1.930 . S
C213 C85 1.929 . S
C268 C136 1.428 . S
C249 C52 1.382 . S
C304 C156 1.287 . S
C285 C63 1.296 . S
C340 C97 1.554 . S
C321 C30 1.546 . S
C357 C41 1.868 1_556 S
C376 C127 1.945 . S
C393 C8 1.413 . S
C412 C137 1.405 . S
C429 C19 1.257 . S
C448 C157 1.297 . S
C484 C89 0.689 . S
C465 C62 0.718 . S
C520 C110 0.223 . S
C501 C73 0.247 . S
C556 C129 1.015 . S
C537 C84 1.028 . S
C573 C51 0.621 . S
C592 C149 0.566 . S
C609 C18 0.725 . S
C628 C90 0.686 . S
C664 C109 0.241 . S
C645 C29 0.366 . S
C700 C130 1.039 . S
C681 C40 0.965 1_556 S
C717 C7 0.600 . S
C736 C150 0.642 . S
C753 C60 1.437 1_556 S
C772 C107 1.659 . S
C789 C71 1.061 1_556 S
C808 C117 1.292 . S
C844 C147 1.864 . S
C825 C82 1.642 . S
C880 C167 1.816 . S
C861 C49 1.421 1_556 S
C897 C16 1.307 . S
C916 C106 1.663 . S
C952 C116 1.292 . S
C933 C27 1.045 . S
C988 C146 1.864 . S
C969 C38 1.397 . S
C1005 C5 1.578 . S
C1024 C166 1.805 . S
