# Generated by pormake.
# Topology zzz, (3,6)-cn, num edge types: 1
# Building blocks:
#     Node 0, Type 0, BuildingBlock: OLANEW_clean_sbu_2, # of connection points: 3
#     Node 1, Type 0, BuildingBlock: OLANEW_clean_sbu_2, # of connection points: 3
#     Node 2, Type 0, BuildingBlock: OLANEW_clean_sbu_2, # of connection points: 3
#     Node 3, Type 0, BuildingBlock: OLANEW_clean_sbu_2, # of connection points: 3
#     Node 4, Type 0, BuildingBlock: OLANEW_clean_sbu_2, # of connection points: 3
#     Node 5, Type 0, BuildingBlock: OLANEW_clean_sbu_2, # of connection points: 3
#     Node 6, Type 0, BuildingBlock: OLANEW_clean_sbu_2, # of connection points: 3
#     Node 7, Type 0, BuildingBlock: OLANEW_clean_sbu_2, # of connection points: 3
#     Node 8, Type 1, BuildingBlock: FUNLAD_clean_sbu_0, # of connection points: 6
#     Node 9, Type 1, BuildingBlock: FUNLAD_clean_sbu_0, # of connection points: 6
#     Node 10, Type 1, BuildingBlock: FUNLAD_clean_sbu_0, # of connection points: 6
#     Node 11, Type 1, BuildingBlock: FUNLAD_clean_sbu_0, # of connection points: 6
#     Edge 12, Type (0, 1), BuildingBlock: CIFDUS_clean_linker_0, # of connection points: 2
#     Edge 13, Type (0, 1), BuildingBlock: CIFDUS_clean_linker_0, # of connection points: 2
#     Edge 14, Type (0, 1), BuildingBlock: CIFDUS_clean_linker_0, # of connection points: 2
#     Edge 15, Type (0, 1), BuildingBlock: CIFDUS_clean_linker_0, # of connection points: 2
#     Edge 16, Type (0, 1), BuildingBlock: CIFDUS_clean_linker_0, # of connection points: 2
#     Edge 17, Type (0, 1), BuildingBlock: CIFDUS_clean_linker_0, # of connection points: 2
#     Edge 18, Type (0, 1), BuildingBlock: CIFDUS_clean_linker_0, # of connection points: 2
#     Edge 19, Type (0, 1), BuildingBlock: CIFDUS_clean_linker_0, # of connection points: 2
#     Edge 20, Type (0, 1), BuildingBlock: CIFDUS_clean_linker_0, # of connection points: 2
#     Edge 21, Type (0, 1), BuildingBlock: CIFDUS_clean_linker_0, # of connection points: 2
#     Edge 22, Type (0, 1), BuildingBlock: CIFDUS_clean_linker_0, # of connection points: 2
#     Edge 23, Type (0, 1), BuildingBlock: CIFDUS_clean_linker_0, # of connection points: 2
#     Edge 24, Type (0, 1), BuildingBlock: CIFDUS_clean_linker_0, # of connection points: 2
#     Edge 25, Type (0, 1), BuildingBlock: CIFDUS_clean_linker_0, # of connection points: 2
#     Edge 26, Type (0, 1), BuildingBlock: CIFDUS_clean_linker_0, # of connection points: 2
#     Edge 27, Type (0, 1), BuildingBlock: CIFDUS_clean_linker_0, # of connection points: 2
#     Edge 28, Type (0, 1), BuildingBlock: CIFDUS_clean_linker_0, # of connection points: 2
#     Edge 29, Type (0, 1), BuildingBlock: CIFDUS_clean_linker_0, # of connection points: 2
#     Edge 30, Type (0, 1), BuildingBlock: CIFDUS_clean_linker_0, # of connection points: 2
#     Edge 31, Type (0, 1), BuildingBlock: CIFDUS_clean_linker_0, # of connection points: 2
#     Edge 32, Type (0, 1), BuildingBlock: CIFDUS_clean_linker_0, # of connection points: 2
#     Edge 33, Type (0, 1), BuildingBlock: CIFDUS_clean_linker_0, # of connection points: 2
#     Edge 34, Type (0, 1), BuildingBlock: CIFDUS_clean_linker_0, # of connection points: 2
#     Edge 35, Type (0, 1), BuildingBlock: CIFDUS_clean_linker_0, # of connection points: 2
# Relax obj value: 0.107
# Max RMSD: 0.173
# Mean RMSD: 0.096
data_MOF--net-zzz--node1-OLANEW_clean_sbu_2--node2-FUNLAD_clean_sbu_0--edge1-CIFDUS_clean_linker_0
_symmetry_space_group_name_H-M    P1
_symmetry_Int_Tables_number       1
_symmetry_cell_setting            triclinic
loop_
_symmetry_equiv_pos_as_xyz
'x, y, z'
_cell_length_a     48.474622
_cell_length_b     53.642321
_cell_length_c     16.965378
_cell_angle_alpha  85.15011
_cell_angle_beta   85.239221
_cell_angle_gamma 90.323623
loop_
_atom_site_label
_atom_site_type_symbol
_atom_site_fract_x
_atom_site_fract_y
_atom_site_fract_z
_atom_type_partial_charge
O0 O 0.83658 0.39716 0.982 0.0
Cd1 Cd 0.79972 0.36742 0.03248 0.0
O2 O 0.85808 0.39138 0.09093 0.0
Cd3 Cd 0.89022 0.40018 0.16842 0.0
O4 O 0.91963 0.41062 0.25153 0.0
C5 C 0.9218 0.43344 0.26532 0.0
O6 O 0.90662 0.45009 0.22811 0.0
C7 C 0.85659 0.40232 0.02192 0.0
C8 C 0.7508 0.38225 0.96796 0.0
O9 O 0.76606 0.36572 0.9364 0.0
O10 O 0.75845 0.39126 0.03038 0.0
O11 O 0.89823 0.81446 0.78723 0.0
Cd12 Cd 0.87024 0.77714 0.83295 0.0
O13 O 0.91049 0.81551 0.90842 0.0
Cd14 Cd 0.93378 0.83107 0.99831 0.0
O15 O 0.95437 0.85685 0.06787 0.0
C16 C 0.94041 0.87452 0.09609 0.0
O17 O 0.91399 0.87611 0.08447 0.0
C18 C 0.91135 0.82514 0.83703 0.0
C19 C 0.89907 0.73255 0.8218 0.0
O20 O 0.88545 0.74171 0.76473 0.0
O21 O 0.89926 0.74465 0.88378 0.0
O22 O 0.71581 0.05975 0.93532 0.0
Cd23 Cd 0.75865 0.06125 0.00206 0.0
O24 O 0.697 0.06467 0.05468 0.0
Cd25 Cd 0.66134 0.06132 0.14212 0.0
O26 O 0.62892 0.04909 0.23386 0.0
C27 C 0.62565 0.0258 0.2534 0.0
O28 O 0.64156 0.00993 0.21656 0.0
C29 C 0.69425 0.06125 0.98258 0.0
C30 C 0.80924 0.06073 0.91105 0.0
O31 O 0.79455 0.04073 0.92722 0.0
O32 O 0.79959 0.0812 0.93522 0.0
O33 O 0.61602 0.6794 0.83841 0.0
Cd34 Cd 0.64719 0.71279 0.86596 0.0
O35 O 0.6148 0.66496 0.96354 0.0
Cd36 Cd 0.59851 0.63982 0.06516 0.0
O37 O 0.57803 0.61738 0.16682 0.0
C38 C 0.58961 0.59861 0.20037 0.0
O39 O 0.61453 0.59241 0.17277 0.0
C40 C 0.60718 0.66334 0.89421 0.0
C41 C 0.61934 0.758 0.86737 0.0
O42 O 0.63184 0.75122 0.80323 0.0
O43 O 0.62023 0.74344 0.93101 0.0
O44 O 0.20073 0.63781 0.44601 0.0
Cd45 Cd 0.24547 0.65554 0.39209 0.0
O46 O 0.20433 0.61163 0.35333 0.0
Cd47 Cd 0.18919 0.58216 0.28521 0.0
O48 O 0.17016 0.55917 0.20341 0.0
C49 C 0.14461 0.56243 0.19477 0.0
O50 O 0.13105 0.57859 0.2369 0.0
C51 C 0.191 0.61945 0.41406 0.0
C52 C 0.28765 0.62619 0.4511 0.0
O53 O 0.27916 0.64547 0.48533 0.0
O54 O 0.27645 0.62106 0.38849 0.0
O55 O 0.12669 0.19156 0.63018 0.0
Cd56 Cd 0.1589 0.22626 0.5871 0.0
O57 O 0.13263 0.17984 0.50954 0.0
Cd58 Cd 0.12844 0.15456 0.41672 0.0
O59 O 0.11528 0.13429 0.32019 0.0
C60 C 0.10723 0.11157 0.32978 0.0
O61 O 0.10772 0.09926 0.39995 0.0
C62 C 0.12124 0.17634 0.57994 0.0
C63 C 0.13623 0.27321 0.60704 0.0
O64 O 0.1335 0.26225 0.54379 0.0
O65 O 0.1495 0.26183 0.66137 0.0
O66 O 0.29768 0.9025 0.67909 0.0
Cd67 Cd 0.2538 0.88591 0.64285 0.0
O68 O 0.30569 0.92544 0.56582 0.0
Cd69 Cd 0.33273 0.94851 0.47798 0.0
O70 O 0.35995 0.96639 0.37954 0.0
C71 C 0.38205 0.95544 0.35696 0.0
O72 O 0.38817 0.93406 0.39486 0.0
C73 C 0.31324 0.91762 0.63347 0.0
C74 C 0.20744 0.91503 0.67638 0.0
O75 O 0.21629 0.89947 0.7298 0.0
O76 O 0.22089 0.91722 0.60776 0.0
O77 O 0.41622 0.31365 0.61107 0.0
Cd78 Cd 0.38588 0.27888 0.58979 0.0
O79 O 0.40541 0.33444 0.50107 0.0
Cd80 Cd 0.40955 0.36533 0.40714 0.0
O81 O 0.42109 0.39304 0.30744 0.0
C82 C 0.40383 0.40488 0.26626 0.0
O83 O 0.37719 0.40088 0.28416 0.0
C84 C 0.41886 0.33308 0.56262 0.0
C85 C 0.41078 0.23306 0.62587 0.0
O86 O 0.41381 0.24419 0.55574 0.0
O87 O 0.39585 0.24361 0.67915 0.0
C88 C 0.98872 0.9578 0.76418 0.0
N89 N 0.99923 0.99083 0.53193 0.0
C90 C 0.00829 0.96781 0.51465 0.0
C91 C 0.00114 0.95762 0.44634 0.0
C92 C 0.98447 0.97118 0.39454 0.0
C93 C 0.9764 0.99542 0.41181 0.0
C94 C 0.98403 0.00494 0.48137 0.0
Zn95 Zn 0.0061 0.00092 0.64227 0.0
C96 C 0.95687 0.02271 0.72418 0.0
N97 N 0.02091 0.01667 0.87701 0.0
C98 C 0.03441 0.00087 0.9274 0.0
C99 C 0.01425 0.0402 0.89536 0.0
C100 C 0.02236 0.04912 0.96473 0.0
C101 C 0.03759 0.03374 0.01583 0.0
C102 C 0.04293 0.00906 0.99778 0.0
Zn103 Zn 0.01338 0.00721 0.76659 0.0
O104 O 0.99178 0.96473 0.69045 0.0
C105 C 0.06248 0.98497 0.68464 0.0
O106 O 0.99599 0.97252 0.81378 0.0
H107 H 0.00353 0.05248 0.85457 0.0
H108 H 0.02005 0.95672 0.55589 0.0
H109 H 0.03953 0.98224 0.91153 0.0
O110 O 0.04719 0.98794 0.62742 0.0
O111 O 0.05331 0.99086 0.75288 0.0
H112 H 0.97698 0.02317 0.4964 0.0
O113 O 0.03055 0.04184 0.71799 0.0
O114 O 0.02046 0.03738 0.59621 0.0
O115 O 0.97338 0.02321 0.77848 0.0
O116 O 0.96494 0.01385 0.65913 0.0
C117 C 0.03074 0.0505 0.64592 0.0
H118 H 0.00741 0.9387 0.43675 0.0
H119 H 0.96372 0.00662 0.37319 0.0
H120 H 0.01743 0.06814 0.97714 0.0
H121 H 0.05473 0.99666 0.03553 0.0
C122 C 0.45331 0.9781 0.74968 0.0
N123 N 0.48073 0.0489 0.79936 0.0
C124 C 0.46869 0.05688 0.73226 0.0
C125 C 0.45929 0.08127 0.7213 0.0
C126 C 0.46234 0.09787 0.7797 0.0
C127 C 0.47438 0.0891 0.84926 0.0
C128 C 0.48356 0.06437 0.85784 0.0
Zn129 Zn 0.49517 0.01309 0.80489 0.0
C130 C 0.48 0.98366 0.95721 0.0
N131 N 0.52456 0.93844 0.80185 0.0
C132 C 0.52129 0.92446 0.73995 0.0
C133 C 0.53861 0.92957 0.86428 0.0
C134 C 0.5505 0.90594 0.86537 0.0
C135 C 0.54786 0.89121 0.80171 0.0
C136 C 0.53279 0.90067 0.7387 0.0
Zn137 Zn 0.50977 0.974 0.79995 0.0
O138 O 0.45788 0.0008 0.76129 0.0
C139 C 0.52498 0.00345 0.64819 0.0
O140 O 0.47176 0.96192 0.76293 0.0
H141 H 0.54106 0.94104 0.91274 0.0
H142 H 0.46657 0.04435 0.6864 0.0
H143 H 0.51003 0.93189 0.69095 0.0
O144 O 0.51341 0.02018 0.68754 0.0
O145 O 0.52599 0.98124 0.68024 0.0
H146 H 0.49325 0.05764 0.91064 0.0
O147 O 0.54771 0.98654 0.83558 0.0
O148 O 0.53306 0.02478 0.84751 0.0
O149 O 0.4934 0.96734 0.91998 0.0
O150 O 0.47705 0.00539 0.92288 0.0
C151 C 0.55231 0.0088 0.85164 0.0
H152 H 0.44963 0.08705 0.66749 0.0
H153 H 0.47719 0.10134 0.89563 0.0
H154 H 0.56225 0.89958 0.91465 0.0
H155 H 0.52995 0.88983 0.6889 0.0
C156 C 0.48966 0.45824 0.6725 0.0
N157 N 0.45702 0.52908 0.70505 0.0
C158 C 0.45041 0.52952 0.62857 0.0
C159 C 0.42814 0.54348 0.60345 0.0
C160 C 0.41205 0.55694 0.65763 0.0
C161 C 0.41909 0.55585 0.73669 0.0
C162 C 0.44184 0.54182 0.75914 0.0
Zn163 Zn 0.49123 0.50937 0.73451 0.0
C164 C 0.48405 0.47899 0.88727 0.0
N165 N 0.56366 0.46783 0.78344 0.0
C166 C 0.5811 0.45646 0.73084 0.0
C167 C 0.56962 0.46898 0.86003 0.0
C168 C 0.59398 0.45902 0.88609 0.0
C169 C 0.61295 0.44807 0.8328 0.0
C170 C 0.60605 0.44636 0.75447 0.0
Zn171 Zn 0.52895 0.48668 0.75249 0.0
O172 O 0.47666 0.47852 0.68009 0.0
C173 C 0.5367 0.51695 0.60045 0.0
O174 O 0.51345 0.45569 0.69862 0.0
H175 H 0.55584 0.47834 0.90099 0.0
H176 H 0.46267 0.51924 0.58642 0.0
H177 H 0.57607 0.45588 0.67008 0.0
O178 O 0.51258 0.52354 0.62516 0.0
O179 O 0.54939 0.50082 0.6427 0.0
H180 H 0.44746 0.54121 0.81965 0.0
O181 O 0.54364 0.51791 0.806 0.0
O182 O 0.50652 0.54024 0.78823 0.0
O183 O 0.50813 0.47296 0.86102 0.0
O184 O 0.47046 0.49464 0.84567 0.0
C185 C 0.53043 0.53807 0.81336 0.0
H186 H 0.42398 0.54407 0.5416 0.0
H187 H 0.40712 0.56564 0.78087 0.0
H188 H 0.59809 0.4603 0.94742 0.0
H189 H 0.62016 0.43814 0.71134 0.0
C190 C 0.06997 0.53104 0.62833 0.0
N191 N 0.06338 0.45633 0.72183 0.0
C192 C 0.07389 0.44982 0.6497 0.0
C193 C 0.08641 0.42668 0.64261 0.0
C194 C 0.08801 0.40992 0.71029 0.0
C195 C 0.07777 0.41746 0.78442 0.0
C196 C 0.06549 0.44087 0.78886 0.0
Zn197 Zn 0.04153 0.48876 0.72633 0.0
C198 C 0.05424 0.5186 0.85783 0.0
N199 N 0.99394 0.55538 0.73081 0.0
C200 C 0.99269 0.5708 0.66331 0.0
C201 C 0.98147 0.56146 0.80132 0.0
C202 C 0.9673 0.58395 0.80599 0.0
C203 C 0.96597 0.60041 0.73745 0.0
C204 C 0.97876 0.59349 0.6653 0.0
Zn205 Zn 0.01609 0.5231 0.727 0.0
O206 O 0.07195 0.5078 0.64805 0.0
C207 C 0.00248 0.49371 0.59635 0.0
O208 O 0.04881 0.54269 0.65445 0.0
H209 H 0.9827 0.54893 0.85429 0.0
H210 H 0.07197 0.46234 0.59711 0.0
H211 H 0.00282 0.56565 0.60792 0.0
O212 O 0.01978 0.47901 0.62776 0.0
O213 O 0.99738 0.51443 0.62527 0.0
H214 H 0.05691 0.44639 0.84558 0.0
O215 O 0.98391 0.50274 0.79931 0.0
O216 O 0.01097 0.47008 0.80488 0.0
O217 O 0.03491 0.53139 0.82909 0.0
O218 O 0.06257 0.49918 0.82512 0.0
C219 C 0.9882 0.48025 0.82511 0.0
H220 H 0.09448 0.42187 0.58446 0.0
H221 H 0.07834 0.40509 0.83808 0.0
H222 H 0.95741 0.58834 0.86265 0.0
H223 H 0.97855 0.6057 0.61117 0.0
H224 H 0.17714 0.93994 0.5684 0.0
H225 H 0.17971 0.92144 0.82016 0.0
H226 H 0.13574 0.94265 0.84559 0.0
H227 H 0.0955 0.96492 0.79563 0.0
H228 H 0.0922 0.98124 0.54303 0.0
H229 H 0.13747 0.96249 0.51877 0.0
C230 C 0.16822 0.94074 0.62891 0.0
C231 C 0.18171 0.92916 0.69225 0.0
C232 C 0.14269 0.95248 0.64296 0.0
C233 C 0.16972 0.93017 0.77027 0.0
C234 C 0.14457 0.94228 0.78488 0.0
C235 C 0.1048 0.96452 0.73536 0.0
C236 C 0.09047 0.97444 0.67129 0.0
C237 C 0.1307 0.95326 0.7216 0.0
C238 C 0.10271 0.97363 0.59345 0.0
C239 C 0.12863 0.96293 0.57945 0.0
H240 H 0.40793 0.20478 0.76778 0.0
H241 H 0.44306 0.20636 0.52495 0.0
H242 H 0.4633 0.16539 0.55276 0.0
H243 H 0.46982 0.12861 0.64424 0.0
H244 H 0.43397 0.12607 0.88621 0.0
H245 H 0.41574 0.1682 0.86096 0.0
C246 C 0.42009 0.1962 0.72101 0.0
C247 C 0.42381 0.20859 0.64424 0.0
C248 C 0.43163 0.17253 0.7373 0.0
C249 C 0.43974 0.19724 0.58446 0.0
C250 C 0.45136 0.17379 0.60028 0.0
C251 C 0.45791 0.13721 0.69143 0.0
C252 C 0.45301 0.12411 0.76676 0.0
C253 C 0.44719 0.16119 0.67617 0.0
C254 C 0.43814 0.13579 0.8278 0.0
C255 C 0.42755 0.1598 0.81322 0.0
H256 H 0.32081 0.63587 0.56713 0.0
H257 H 0.30357 0.58037 0.40716 0.0
H258 H 0.33948 0.55365 0.45975 0.0
H259 H 0.37583 0.5461 0.55019 0.0
H260 H 0.39527 0.60261 0.70455 0.0
H261 H 0.35791 0.6285 0.65663 0.0
C262 C 0.32489 0.61791 0.54386 0.0
C263 C 0.30954 0.61016 0.48322 0.0
C264 C 0.3458 0.60271 0.57379 0.0
C265 C 0.31515 0.58687 0.45356 0.0
C266 C 0.33564 0.57153 0.48373 0.0
C267 C 0.37218 0.5642 0.57289 0.0
C268 C 0.38852 0.57233 0.63089 0.0
C269 C 0.35117 0.57931 0.54356 0.0
C270 C 0.38286 0.59561 0.6608 0.0
C271 C 0.36163 0.61058 0.63286 0.0
H272 H 0.1436 0.30334 0.72528 0.0
H273 H 0.10301 0.29973 0.50932 0.0
H274 H 0.08451 0.3415 0.5227 0.0
H275 H 0.07975 0.37894 0.59541 0.0
H276 H 0.12134 0.38337 0.8092 0.0
H277 H 0.13923 0.34122 0.79748 0.0
C278 C 0.13065 0.31166 0.68124 0.0
C279 C 0.1247 0.29839 0.61641 0.0
C280 C 0.12021 0.3358 0.68894 0.0
C281 C 0.10796 0.30951 0.55975 0.0
C282 C 0.09736 0.33341 0.56732 0.0
C283 C 0.09303 0.37086 0.63896 0.0
C284 C 0.09927 0.3844 0.7029 0.0
C285 C 0.10344 0.34675 0.63147 0.0
C286 C 0.11598 0.37332 0.75977 0.0
C287 C 0.12633 0.34925 0.7529 0.0
H288 H 0.82812 0.02973 0.8006 0.0
H289 H 0.85373 0.08925 0.93503 0.0
H290 H 0.90197 0.08367 0.88586 0.0
H291 H 0.93724 0.05931 0.81368 0.0
H292 H 0.91139 0.00192 0.67143 0.0
H293 H 0.86287 0.00935 0.71372 0.0
C294 C 0.84427 0.04167 0.81814 0.0
C295 C 0.83752 0.05967 0.87192 0.0
C296 C 0.87188 0.03866 0.78852 0.0
C297 C 0.85848 0.07528 0.89356 0.0
C298 C 0.88607 0.07201 0.86583 0.0
C299 C 0.92091 0.04872 0.79118 0.0
C300 C 0.92777 0.02995 0.74026 0.0
C301 C 0.89307 0.05339 0.81467 0.0
C302 C 0.90653 0.01651 0.71059 0.0
C303 C 0.87881 0.02065 0.73511 0.0
H304 H 0.61396 0.79242 0.74266 0.0
H305 H 0.59068 0.7772 0.99341 0.0
H306 H 0.56592 0.81668 0.99466 0.0
H307 H 0.55112 0.85561 0.92488 0.0
H308 H 0.57538 0.87129 0.67489 0.0
H309 H 0.59905 0.8313 0.67285 0.0
C310 C 0.60347 0.79772 0.79762 0.0
C311 C 0.60425 0.78189 0.86785 0.0
C312 C 0.58929 0.82046 0.798 0.0
C313 C 0.59048 0.78904 0.9385 0.0
C314 C 0.57628 0.81161 0.93929 0.0
C315 C 0.56175 0.85037 0.87004 0.0
C316 C 0.56145 0.86647 0.80019 0.0
C317 C 0.57564 0.8275 0.86947 0.0
C318 C 0.57493 0.85915 0.72933 0.0
C319 C 0.58867 0.83635 0.7282 0.0
H320 H 0.72361 0.42495 0.99381 0.0
H321 H 0.72122 0.35972 0.86224 0.0
H322 H 0.67867 0.37456 0.80632 0.0
H323 H 0.64128 0.40567 0.79855 0.0
H324 H 0.6459 0.4717 0.92616 0.0
H325 H 0.68836 0.45688 0.9799 0.0
C326 C 0.71376 0.41393 0.95303 0.0
C327 C 0.72536 0.39117 0.93284 0.0
C328 C 0.68965 0.4227 0.92047 0.0
C329 C 0.71261 0.3773 0.8789 0.0
C330 C 0.68829 0.38577 0.84695 0.0
C331 C 0.65177 0.41693 0.83733 0.0
C332 C 0.64006 0.43954 0.85939 0.0
C333 C 0.67653 0.40842 0.86762 0.0
C334 C 0.65398 0.4539 0.90981 0.0
C335 C 0.67839 0.44553 0.94032 0.0
H336 H 0.89871 0.70091 0.7047 0.0
H337 H 0.93241 0.71016 0.92827 0.0
H338 H 0.95605 0.67023 0.92172 0.0
H339 H 0.96722 0.63274 0.8526 0.0
H340 H 0.9326 0.62295 0.63074 0.0
H341 H 0.90955 0.66318 0.63618 0.0
C342 C 0.91127 0.69423 0.75193 0.0
C343 C 0.91378 0.70854 0.81684 0.0
C344 C 0.9247 0.67118 0.74806 0.0
C345 C 0.93009 0.69954 0.87763 0.0
C346 C 0.94362 0.6767 0.87397 0.0
C347 C 0.95439 0.63926 0.80584 0.0
C348 C 0.95166 0.62479 0.7414 0.0
C349 C 0.941 0.66232 0.80962 0.0
C350 C 0.93536 0.6338 0.68058 0.0
C351 C 0.92203 0.65676 0.68383 0.0
H352 H 0.08583 0.15235 0.49272 0.0
H353 H 0.11572 0.15106 0.72555 0.0
H354 H 0.08906 0.11282 0.76731 0.0
H355 H 0.05983 0.07859 0.73572 0.0
H356 H 0.03159 0.07794 0.50112 0.0
H357 H 0.05546 0.118 0.46143 0.0
C358 C 0.08706 0.14336 0.55187 0.0
C359 C 0.1035 0.15407 0.60512 0.0
C360 C 0.07204 0.12107 0.57507 0.0
C361 C 0.10345 0.14306 0.68323 0.0
C362 C 0.0883 0.12114 0.70705 0.0
C363 C 0.05877 0.08716 0.67581 0.0
C364 C 0.04403 0.07519 0.62133 0.0
C365 C 0.07292 0.1098 0.65311 0.0
C366 C 0.04289 0.08669 0.54412 0.0
C367 C 0.05655 0.10957 0.52142 0.0
H368 H 0.33769 0.9636 0.61232 0.0
H369 H 0.34894 0.88813 0.71229 0.0
H370 H 0.39387 0.89992 0.7548 0.0
H371 H 0.42971 0.93179 0.76456 0.0
H372 H 0.41725 0.00789 0.67151 0.0
H373 H 0.37319 0.99575 0.6245 0.0
C374 C 0.35021 0.94972 0.64244 0.0
C375 C 0.34035 0.92498 0.65814 0.0
C376 C 0.37573 0.95676 0.66803 0.0
C377 C 0.35625 0.90729 0.69945 0.0
C378 C 0.38192 0.914 0.7236 0.0
C379 C 0.41739 0.94568 0.7337 0.0
C380 C 0.42674 0.97066 0.72123 0.0
C381 C 0.39183 0.93869 0.70834 0.0
C382 C 0.41043 0.98854 0.68202 0.0
C383 C 0.38527 0.98162 0.65501 0.0
H384 H 0.41108 0.38285 0.53191 0.0
H385 H 0.46683 0.32952 0.63501 0.0
H386 H 0.49532 0.36366 0.67283 0.0
H387 H 0.5027 0.40872 0.68338 0.0
H388 H 0.44583 0.46164 0.58246 0.0
H389 H 0.41999 0.42767 0.5348 0.0
C390 C 0.42994 0.37871 0.56027 0.0
C391 C 0.43715 0.35376 0.57924 0.0
C392 C 0.44597 0.39838 0.58257 0.0
C393 C 0.46095 0.34865 0.61953 0.0
C394 C 0.47724 0.36814 0.64111 0.0
C395 C 0.48489 0.4128 0.65 0.0
C396 C 0.47613 0.43764 0.63692 0.0
C397 C 0.46973 0.3931 0.62392 0.0
C398 C 0.45289 0.44265 0.59395 0.0
C399 C 0.43806 0.42325 0.56666 0.0
H400 H 0.17841 0.57002 0.42427 0.0
H401 H 0.14618 0.6411 0.48664 0.0
H402 H 0.10471 0.62019 0.55448 0.0
H403 H 0.07883 0.58139 0.60162 0.0
H404 H 0.11232 0.51033 0.5418 0.0
H405 H 0.15173 0.53161 0.46559 0.0
C406 C 0.16193 0.581 0.4505 0.0
C407 C 0.16503 0.60707 0.44904 0.0
C408 C 0.13844 0.56884 0.49026 0.0
C409 C 0.14411 0.62097 0.48667 0.0
C410 C 0.12044 0.60904 0.52543 0.0
C411 C 0.09462 0.5706 0.57124 0.0
C412 C 0.09268 0.54432 0.57772 0.0
C413 C 0.11754 0.58293 0.52848 0.0
C414 C 0.11338 0.53058 0.53828 0.0
C415 C 0.13595 0.54271 0.49462 0.0
H416 H 0.91792 0.86523 0.92182 0.0
H417 H 0.93912 0.83796 0.69309 0.0
H418 H 0.96549 0.87649 0.65031 0.0
H419 H 0.98254 0.91786 0.67854 0.0
H420 H 0.96345 0.94375 0.91071 0.0
H421 H 0.93696 0.90548 0.95249 0.0
C422 C 0.9292 0.86725 0.86382 0.0
C423 C 0.9274 0.84838 0.81175 0.0
C424 C 0.94475 0.88916 0.84038 0.0
C425 C 0.94046 0.85213 0.73454 0.0
C426 C 0.95561 0.87409 0.71019 0.0
C427 C 0.97283 0.91496 0.73861 0.0
C428 C 0.97498 0.9336 0.79149 0.0
C429 C 0.95795 0.8927 0.76273 0.0
C430 C 0.96233 0.9296 0.8691 0.0
C431 C 0.9471 0.90772 0.89303 0.0
H432 H 0.67902 0.02379 0.89833 0.0
H433 H 0.64741 0.08769 0.01259 0.0
H434 H 0.60043 0.07767 0.98061 0.0
H435 H 0.56811 0.0497 0.92373 0.0
H436 H 0.59996 0.98403 0.81859 0.0
H437 H 0.64686 0.99563 0.84363 0.0
C438 C 0.66184 0.03565 0.91517 0.0
C439 C 0.66651 0.05648 0.95712 0.0
C440 C 0.63486 0.02929 0.89896 0.0
C441 C 0.64414 0.07153 0.98013 0.0
C442 C 0.61733 0.06578 0.96204 0.0
C443 C 0.58534 0.03798 0.90635 0.0
C444 C 0.58049 0.01603 0.86951 0.0
C445 C 0.61237 0.04452 0.92222 0.0
C446 C 0.60303 0.00094 0.84764 0.0
C447 C 0.62994 0.0076 0.86155 0.0
H448 H 0.60804 0.61477 0.95149 0.0
H449 H 0.5651 0.66646 0.79771 0.0
H450 H 0.53526 0.63244 0.7652 0.0
H451 H 0.52324 0.58756 0.77505 0.0
H452 H 0.56864 0.53566 0.92185 0.0
H453 H 0.59516 0.57024 0.96456 0.0
C454 C 0.5917 0.61864 0.9124 0.0
C455 C 0.58837 0.64306 0.87804 0.0
C456 C 0.5751 0.59895 0.89286 0.0
C457 C 0.5679 0.64775 0.82498 0.0
C458 C 0.55084 0.62835 0.80655 0.0
C459 C 0.53862 0.58393 0.81741 0.0
C460 C 0.54395 0.5592 0.84563 0.0
C461 C 0.55446 0.60382 0.83946 0.0
C462 C 0.56425 0.55461 0.89938 0.0
C463 C 0.57945 0.57434 0.9236 0.0
H464 H 0.91197 0.40028 0.03269 0.0
H465 H 0.84839 0.44534 0.93112 0.0
H466 H 0.88348 0.47501 0.86654 0.0
H467 H 0.93249 0.48676 0.83299 0.0
H468 H 0.99596 0.44004 0.92877 0.0
H469 H 0.96072 0.41275 0.00322 0.0
C470 C 0.9058 0.41693 0.99807 0.0
C471 C 0.87771 0.42089 0.98757 0.0
C472 C 0.92609 0.43356 0.95993 0.0
C473 C 0.86998 0.442 0.94004 0.0
C474 C 0.88999 0.45895 0.90325 0.0
C475 C 0.93854 0.4708 0.87105 0.0
C476 C 0.96672 0.46539 0.87541 0.0
C477 C 0.91815 0.45475 0.91193 0.0
C478 C 0.97435 0.44449 0.92418 0.0
C479 C 0.95423 0.42887 0.96671 0.0
H480 H 0.08282 0.06541 0.33276 0.0
H481 H 0.10695 0.1311 0.17654 0.0
H482 H 0.08766 0.11263 0.06669 0.0
H483 H 0.06375 0.07829 0.01475 0.0
H484 H 0.03892 0.01246 0.16856 0.0
H485 H 0.05896 0.03042 0.27952 0.0
C486 C 0.08398 0.07562 0.27459 0.0
C487 C 0.09632 0.09963 0.26305 0.0
C488 C 0.07271 0.06491 0.21132 0.0
C489 C 0.09755 0.11263 0.18729 0.0
C490 C 0.08651 0.1021 0.12431 0.0
C491 C 0.06245 0.06796 0.07278 0.0
C492 C 0.04961 0.04422 0.08373 0.0
C493 C 0.07392 0.07836 0.13577 0.0
C494 C 0.04874 0.03077 0.1587 0.0
C495 C 0.06012 0.04107 0.22209 0.0
H496 H 0.427 0.93394 0.28521 0.0
H497 H 0.37661 -4e-05 0.26827 0.0
H498 H 0.40382 0.01545 0.14607 0.0
H499 H 0.44023 0.00908 0.03978 0.0
H500 H 0.48932 0.9422 0.05519 0.0
H501 H 0.46445 0.92839 0.18238 0.0
C502 C 0.42206 0.95181 0.25521 0.0
C503 C 0.39967 0.96567 0.28578 0.0
C504 C 0.43754 0.96046 0.18444 0.0
C505 C 0.39363 0.98882 0.24596 0.0
C506 C 0.40919 0.99771 0.17599 0.0
C507 C 0.4457 0.99162 0.07141 0.0
C508 C 0.46656 0.97668 0.03777 0.0
C509 C 0.43095 0.98352 0.14407 0.0
C510 C 0.47327 0.95404 0.07944 0.0
C511 C 0.45904 0.94608 0.15222 0.0
H512 H 0.45709 0.41687 0.21572 0.0
H513 H 0.37318 0.43115 0.15893 0.0
H514 H 0.39034 0.45702 0.03891 0.0
H515 H 0.4296 0.47364 0.94571 0.0
H516 H 0.5131 0.45769 0.00392 0.0
H517 H 0.49563 0.43467 0.12762 0.0
C518 C 0.44247 0.42572 0.17747 0.0
C519 C 0.4139 0.42189 0.19616 0.0
C520 C 0.45244 0.4403 0.10842 0.0
C521 C 0.39532 0.43367 0.14589 0.0
C522 C 0.40512 0.44847 0.07714 0.0
C523 C 0.4439 0.46536 0.98603 0.0
C524 C 0.47259 0.46725 0.96525 0.0
C525 C 0.43368 0.45166 0.05716 0.0
C526 C 0.4909 0.45633 0.01796 0.0
C527 C 0.48096 0.44313 0.08889 0.0
H528 H 0.09275 0.57029 0.15037 0.0
H529 H 0.16545 0.5262 0.10232 0.0
H530 H 0.14334 0.50742 0.99667 0.0
H531 H 0.10402 0.50518 0.9132 0.0
H532 H 0.03246 0.55091 0.96004 0.0
H533 H 0.05343 0.56722 0.07084 0.0
C534 C 0.10375 0.55644 0.11728 0.0
C535 C 0.13076 0.54976 0.13415 0.0
C536 C 0.09112 0.54604 0.05598 0.0
C537 C 0.14466 0.53178 0.09043 0.0
C538 C 0.13203 0.52103 0.02992 0.0
C539 C 0.09296 0.51854 0.94817 0.0
C540 C 0.06677 0.52688 0.92803 0.0
C541 C 0.10537 0.52826 0.01145 0.0
C542 C 0.05274 0.5443 0.97373 0.0
C543 C 0.06469 0.55365 0.03727 0.0
H544 H 0.91596 0.91331 0.16703 0.0
H545 H 0.99482 0.87754 0.12594 0.0
H546 H 0.01619 0.9066 0.20662 0.0
H547 H 0.01178 0.94006 0.29647 0.0
H548 H 0.93229 0.97406 0.34414 0.0
H549 H 0.91219 0.94845 0.2509 0.0
C550 C 0.93786 0.91193 0.17534 0.0
C551 C 0.95366 0.89303 0.14136 0.0
C552 C 0.94998 0.92853 0.22251 0.0
C553 C 0.98207 0.89171 0.15213 0.0
C554 C 0.99435 0.90836 0.19813 0.0
C555 C 0.99007 0.94194 0.28634 0.0
C556 C 0.97356 0.95881 0.32807 0.0
C557 C 0.97838 0.92651 0.23484 0.0
C558 C 0.94562 0.96143 0.31254 0.0
C559 C 0.93399 0.94655 0.25987 0.0
H560 H 0.58773 0.05318 0.33426 0.0
H561 H 0.61875 0.97816 0.32368 0.0
H562 H 0.58865 0.96408 0.44182 0.0
H563 H 0.55602 0.97378 0.5536 0.0
H564 H 0.52553 0.04904 0.564 0.0
H565 H 0.55274 0.06218 0.44011 0.0
C566 C 0.58779 0.0337 0.35742 0.0
C567 C 0.60569 0.01683 0.32068 0.0
C568 C 0.57057 0.02576 0.42554 0.0
C569 C 0.60528 0.9916 0.35102 0.0
C570 C 0.5881 0.98352 0.4187 0.0
C571 C 0.55508 0.99299 0.5283 0.0
C572 C 0.53897 0.01043 0.5685 0.0
C573 C 0.57102 0.00054 0.45727 0.0
C574 C 0.53791 0.03523 0.53467 0.0
C575 C 0.55351 0.04281 0.46383 0.0
H576 H 0.61001 0.56028 0.29353 0.0
H577 H 0.5373 0.60538 0.26698 0.0
H578 H 0.51436 0.58348 0.38654 0.0
H579 H 0.51531 0.55255 0.50061 0.0
H580 H 0.58805 0.5077 0.52947 0.0
H581 H 0.61052 0.52844 0.40676 0.0
C582 C 0.58911 0.56525 0.31367 0.0
C583 C 0.57548 0.58453 0.27138 0.0
C584 C 0.57603 0.55268 0.38297 0.0
C585 C 0.54836 0.5907 0.29842 0.0
C586 C 0.53519 0.57818 0.36686 0.0
C587 C 0.53605 0.5472 0.48005 0.0
C588 C 0.54999 0.52864 0.52442 0.0
C589 C 0.5489 0.5593 0.40991 0.0
C590 C 0.57684 0.52196 0.49662 0.0
C591 C 0.58972 0.53383 0.42647 0.0
H592 H 0.92717 0.47963 0.31716 0.0
H593 H 0.95761 0.40427 0.34822 0.0
H594 H 0.98629 0.41649 0.45075 0.0
H595 H 0.00143 0.44828 0.5352 0.0
H596 H 0.96978 0.52328 0.50554 0.0
H597 H 0.94304 0.51147 0.39877 0.0
C598 C 0.94017 0.46587 0.34599 0.0
C599 C 0.94013 0.44105 0.32508 0.0
C600 C 0.95639 0.47295 0.4054 0.0
C601 C 0.95713 0.4235 0.36325 0.0
C602 C 0.97356 0.43047 0.42195 0.0
C603 C 0.98883 0.46208 0.505 0.0
C604 C 0.98759 0.48661 0.52862 0.0
C605 C 0.97317 0.4551 0.44403 0.0
C606 C 0.97107 0.50423 0.48893 0.0
C607 C 0.95573 0.49751 0.42778 0.0
loop_
_geom_bond_atom_site_label_1
_geom_bond_atom_site_label_2
_geom_bond_distance
_geom_bond_site_symmetry_2
_ccdc_geom_bond_type
O0 Cd1 2.300 . S
O0 C7 1.275 . S
Cd1 O0 2.300 . S
Cd1 O9 2.381 . S
Cd1 O10 2.378 . S
O2 Cd3 2.385 . S
O2 C7 1.255 . S
Cd3 O2 2.385 . S
Cd3 O4 2.317 . S
O4 Cd3 2.317 . S
O4 C5 1.232 . S
C5 O4 1.232 . S
C5 O6 1.218 . S
O6 C5 1.218 . S
C7 O0 1.275 . S
C7 O2 1.255 . S
C8 O9 1.258 . S
C8 O10 1.256 . S
O9 Cd1 2.381 . S
O9 C8 1.258 . S
O10 Cd1 2.378 . S
O10 C8 1.256 . S
O11 Cd12 2.300 . S
O11 C18 1.275 . S
Cd12 O11 2.300 . S
Cd12 O20 2.381 . S
Cd12 O21 2.378 . S
O13 Cd14 2.385 1_656 S
O13 C18 1.255 . S
Cd14 O13 2.385 1_454 S
Cd14 O15 2.317 1_455 S
O15 Cd14 2.317 1_655 S
O15 C16 1.232 . S
C16 O15 1.232 . S
C16 O17 1.218 . S
O17 C16 1.218 . S
C18 O11 1.275 . S
C18 O13 1.255 . S
C19 O20 1.258 . S
C19 O21 1.256 . S
O20 Cd12 2.381 . S
O20 C19 1.258 . S
O21 Cd12 2.378 . S
O21 C19 1.256 . S
O22 Cd23 2.300 1_566 S
O22 C29 1.275 1_566 S
Cd23 O22 2.300 1_544 S
Cd23 O31 2.381 1_544 S
Cd23 O32 2.378 . S
O24 Cd25 2.385 . S
O24 C29 1.255 . S
Cd25 O24 2.385 . S
Cd25 O26 2.317 . S
O26 Cd25 2.317 . S
O26 C27 1.232 . S
C27 O26 1.232 . S
C27 O28 1.218 . S
O28 C27 1.218 . S
C29 O22 1.275 1_544 S
C29 O24 1.255 . S
C30 O31 1.258 1_544 S
C30 O32 1.256 . S
O31 Cd23 2.381 1_566 S
O31 C30 1.258 1_566 S
O32 Cd23 2.378 . S
O32 C30 1.256 . S
O33 Cd34 2.300 1_556 S
O33 C40 1.275 1_556 S
Cd34 O33 2.300 1_554 S
Cd34 O42 2.381 1_554 S
Cd34 O43 2.378 . S
O35 Cd36 2.385 . S
O35 C40 1.255 . S
Cd36 O35 2.385 . S
Cd36 O37 2.317 . S
O37 Cd36 2.317 . S
O37 C38 1.232 . S
C38 O37 1.232 . S
C38 O39 1.218 . S
O39 C38 1.218 . S
C40 O33 1.275 1_554 S
C40 O35 1.255 . S
C41 O42 1.258 1_554 S
C41 O43 1.256 . S
O42 Cd34 2.381 1_556 S
O42 C41 1.258 1_556 S
O43 Cd34 2.378 . S
O43 C41 1.256 . S
O44 Cd45 2.300 . S
O44 C51 1.275 . S
Cd45 O44 2.300 . S
Cd45 O53 2.381 . S
Cd45 O54 2.378 . S
O46 Cd47 2.385 . S
O46 C51 1.255 . S
Cd47 O46 2.385 . S
Cd47 O48 2.317 . S
O48 Cd47 2.317 . S
O48 C49 1.232 . S
C49 O48 1.232 . S
C49 O50 1.218 . S
O50 C49 1.218 . S
C51 O44 1.275 . S
C51 O46 1.255 . S
C52 O53 1.258 . S
C52 O54 1.256 . S
O53 Cd45 2.381 . S
O53 C52 1.258 . S
O54 Cd45 2.378 . S
O54 C52 1.256 . S
O55 Cd56 2.300 . S
O55 C62 1.275 . S
Cd56 O55 2.300 . S
Cd56 O64 2.381 . S
Cd56 O65 2.378 . S
O57 Cd58 2.385 . S
O57 C62 1.255 . S
Cd58 O57 2.385 . S
Cd58 O59 2.317 . S
O59 Cd58 2.317 . S
O59 C60 1.232 . S
C60 O59 1.232 . S
C60 O61 1.218 . S
O61 C60 1.218 . S
C62 O55 1.275 . S
C62 O57 1.255 . S
C63 O64 1.258 . S
C63 O65 1.256 . S
O64 Cd56 2.381 . S
O64 C63 1.258 . S
O65 Cd56 2.378 . S
O65 C63 1.256 . S
O66 Cd67 2.300 1_565 S
O66 C73 1.275 1_565 S
Cd67 O66 2.300 1_545 S
Cd67 O75 2.381 1_545 S
Cd67 O76 2.378 . S
O68 Cd69 2.385 . S
O68 C73 1.255 . S
Cd69 O68 2.385 . S
Cd69 O70 2.317 . S
O70 Cd69 2.317 . S
O70 C71 1.232 . S
C71 O70 1.232 . S
C71 O72 1.218 . S
O72 C71 1.218 . S
C73 O66 1.275 1_545 S
C73 O68 1.255 . S
C74 O75 1.258 1_545 S
C74 O76 1.256 . S
O75 Cd67 2.381 1_565 S
O75 C74 1.258 1_565 S
O76 Cd67 2.378 . S
O76 C74 1.256 . S
O77 Cd78 2.300 . S
O77 C84 1.275 . S
Cd78 O77 2.300 . S
Cd78 O86 2.381 . S
Cd78 O87 2.378 . S
O79 Cd80 2.385 . S
O79 C84 1.255 . S
Cd80 O79 2.385 . S
Cd80 O81 2.317 . S
O81 Cd80 2.317 . S
O81 C82 1.232 . S
C82 O81 1.232 . S
C82 O83 1.218 . S
O83 C82 1.218 . S
C84 O77 1.275 . S
C84 O79 1.255 . S
C85 O86 1.258 . S
C85 O87 1.256 . S
O86 Cd78 2.381 . S
O86 C85 1.258 . S
O87 Cd78 2.378 . S
O87 C85 1.256 . S
C88 O104 1.251 . S
C88 O106 1.254 . S
N89 C90 1.328 1_655 S
N89 C94 1.320 . S
N89 Zn95 2.014 1_655 S
C90 N89 1.328 1_455 S
C90 C91 1.381 . S
C90 H108 0.952 . S
C91 C90 1.381 . S
C91 C92 1.387 1_455 S
C91 H118 0.950 . S
C92 C91 1.387 1_655 S
C92 C93 1.357 . S
C93 C92 1.357 . S
C93 C94 1.370 . S
C93 H119 0.950 . S
C94 N89 1.320 . S
C94 C93 1.370 . S
C94 H112 0.977 . S
Zn95 N89 2.014 1_455 S
Zn95 O104 2.039 . S
Zn95 O110 2.034 . S
Zn95 O114 2.025 1_565 S
Zn95 O116 2.024 1_455 S
C96 O115 1.246 . S
C96 O116 1.249 1_545 S
N97 C98 1.307 . S
N97 C99 1.333 . S
N97 Zn103 2.020 . S
C98 N97 1.307 . S
C98 C102 1.370 1_556 S
C98 H109 0.988 . S
C99 N97 1.333 . S
C99 C100 1.379 . S
C99 H107 0.952 . S
C100 C99 1.379 . S
C100 C101 1.390 1_556 S
C100 H120 0.949 . S
C101 C100 1.390 1_554 S
C101 C102 1.357 . S
C102 C98 1.370 1_554 S
C102 C101 1.357 . S
C102 H121 0.950 . S
Zn103 N97 2.020 . S
Zn103 O106 2.025 1_545 S
Zn103 O111 2.024 . S
Zn103 O113 2.039 . S
Zn103 O115 2.034 1_455 S
O104 C88 1.251 . S
O104 Zn95 2.039 . S
C105 O110 1.246 . S
C105 O111 1.249 1_565 S
O106 C88 1.254 . S
O106 Zn103 2.025 1_565 S
H107 C99 0.952 . S
H108 C90 0.952 . S
H109 C98 0.988 . S
O110 Zn95 2.034 . S
O110 C105 1.246 . S
O111 Zn103 2.024 . S
O111 C105 1.249 1_545 S
H112 C94 0.977 . S
O113 Zn103 2.039 . S
O113 C117 1.251 . S
O114 Zn95 2.025 1_545 S
O114 C117 1.254 . S
O115 C96 1.246 . S
O115 Zn103 2.034 1_655 S
O116 Zn95 2.024 1_655 S
O116 C96 1.249 1_565 S
C117 O113 1.251 . S
C117 O114 1.254 . S
H118 C91 0.950 . S
H119 C93 0.950 . S
H120 C100 0.949 . S
H121 C102 0.950 . S
C122 O138 1.251 1_565 S
C122 O140 1.254 . S
N123 C124 1.333 . S
N123 C128 1.307 . S
N123 Zn129 2.020 . S
C124 N123 1.333 . S
C124 C125 1.379 . S
C124 H142 0.952 . S
C125 C124 1.379 . S
C125 C126 1.390 . S
C125 H152 0.949 . S
C126 C125 1.390 . S
C126 C127 1.357 . S
C127 C126 1.357 . S
C127 C128 1.370 . S
C127 H153 0.950 . S
C128 N123 1.307 . S
C128 C127 1.370 . S
C128 H146 0.948 . S
Zn129 N123 2.020 . S
Zn129 O138 2.039 . S
Zn129 O144 2.034 . S
Zn129 O148 2.025 . S
Zn129 O150 2.024 . S
C130 O149 1.246 1_545 S
C130 O150 1.249 . S
N131 C132 1.307 . S
N131 C133 1.333 . S
N131 Zn137 2.020 . S
C132 N131 1.307 . S
C132 C136 1.370 . S
C132 H143 0.948 . S
C133 N131 1.333 . S
C133 C134 1.379 . S
C133 H141 0.952 . S
C134 C133 1.379 . S
C134 C135 1.390 . S
C134 H154 0.949 . S
C135 C134 1.390 . S
C135 C136 1.357 . S
C136 C132 1.370 . S
C136 C135 1.357 . S
C136 H155 0.950 . S
Zn137 N131 2.020 . S
Zn137 O140 2.025 . S
Zn137 O145 2.024 . S
Zn137 O147 2.039 . S
Zn137 O149 2.034 . S
O138 C122 1.251 1_545 S
O138 Zn129 2.039 . S
C139 O144 1.246 1_565 S
C139 O145 1.249 . S
O140 C122 1.254 . S
O140 Zn137 2.025 . S
H141 C133 0.952 . S
H142 C124 0.952 . S
H143 C132 0.948 . S
O144 Zn129 2.034 . S
O144 C139 1.246 1_545 S
O145 Zn137 2.024 . S
O145 C139 1.249 . S
H146 C128 0.948 . S
O147 Zn137 2.039 . S
O147 C151 1.251 1_565 S
O148 Zn129 2.025 . S
O148 C151 1.254 . S
O149 C130 1.246 1_565 S
O149 Zn137 2.034 . S
O150 Zn129 2.024 . S
O150 C130 1.249 . S
C151 O147 1.251 1_545 S
C151 O148 1.254 . S
H152 C125 0.949 . S
H153 C127 0.950 . S
H154 C134 0.949 . S
H155 C136 0.950 . S
C156 O172 1.251 . S
C156 O174 1.254 . S
N157 C158 1.333 . S
N157 C162 1.307 . S
N157 Zn163 2.020 . S
C158 N157 1.333 . S
C158 C159 1.379 . S
C158 H176 0.952 . S
C159 C158 1.379 . S
C159 C160 1.390 . S
C159 H186 0.949 . S
C160 C159 1.390 . S
C160 C161 1.357 . S
C161 C160 1.357 . S
C161 C162 1.370 . S
C161 H187 0.950 . S
C162 N157 1.307 . S
C162 C161 1.370 . S
C162 H180 0.948 . S
Zn163 N157 2.020 . S
Zn163 O172 2.039 . S
Zn163 O178 2.034 . S
Zn163 O182 2.025 . S
Zn163 O184 2.024 . S
C164 O183 1.246 . S
C164 O184 1.249 . S
N165 C166 1.307 . S
N165 C167 1.333 . S
N165 Zn171 2.020 . S
C166 N165 1.307 . S
C166 C170 1.370 . S
C166 H177 0.948 . S
C167 N165 1.333 . S
C167 C168 1.379 . S
C167 H175 0.952 . S
C168 C167 1.379 . S
C168 C169 1.390 . S
C168 H188 0.949 . S
C169 C168 1.390 . S
C169 C170 1.357 . S
C170 C166 1.370 . S
C170 C169 1.357 . S
C170 H189 0.950 . S
Zn171 N165 2.020 . S
Zn171 O174 2.025 . S
Zn171 O179 2.024 . S
Zn171 O181 2.039 . S
Zn171 O183 2.034 . S
O172 C156 1.251 . S
O172 Zn163 2.039 . S
C173 O178 1.246 . S
C173 O179 1.249 . S
O174 C156 1.254 . S
O174 Zn171 2.025 . S
H175 C167 0.952 . S
H176 C158 0.952 . S
H177 C166 0.948 . S
O178 Zn163 2.034 . S
O178 C173 1.246 . S
O179 Zn171 2.024 . S
O179 C173 1.249 . S
H180 C162 0.948 . S
O181 Zn171 2.039 . S
O181 C185 1.251 . S
O182 Zn163 2.025 . S
O182 C185 1.254 . S
O183 C164 1.246 . S
O183 Zn171 2.034 . S
O184 Zn163 2.024 . S
O184 C164 1.249 . S
C185 O181 1.251 . S
C185 O182 1.254 . S
H186 C159 0.949 . S
H187 C161 0.950 . S
H188 C168 0.949 . S
H189 C170 0.950 . S
C190 O206 1.251 . S
C190 O208 1.254 . S
N191 C192 1.333 . S
N191 C196 1.307 . S
N191 Zn197 2.020 . S
C192 N191 1.333 . S
C192 C193 1.379 . S
C192 H210 0.952 . S
C193 C192 1.379 . S
C193 C194 1.390 . S
C193 H220 0.949 . S
C194 C193 1.390 . S
C194 C195 1.357 . S
C195 C194 1.357 . S
C195 C196 1.370 . S
C195 H221 0.950 . S
C196 N191 1.307 . S
C196 C195 1.370 . S
C196 H214 0.948 . S
Zn197 N191 2.020 . S
Zn197 O206 2.039 . S
Zn197 O212 2.034 1_455 S
Zn197 O216 2.025 1_455 S
Zn197 O218 2.024 . S
C198 O217 1.246 . S
C198 O218 1.249 . S
N199 C200 1.307 . S
N199 C201 1.333 1_455 S
N199 Zn205 2.020 . S
C200 N199 1.307 . S
C200 C204 1.370 . S
C200 H211 0.948 . S
C201 N199 1.333 1_655 S
C201 C202 1.379 . S
C201 H209 0.952 . S
C202 C201 1.379 . S
C202 C203 1.390 1_655 S
C202 H222 0.949 . S
C203 C202 1.390 1_455 S
C203 C204 1.357 . S
C204 C200 1.370 . S
C204 C203 1.357 . S
C204 H223 0.950 . S
Zn205 N199 2.020 . S
Zn205 O208 2.025 . S
Zn205 O213 2.024 1_455 S
Zn205 O215 2.039 1_455 S
Zn205 O217 2.034 . S
O206 C190 1.251 . S
O206 Zn197 2.039 . S
C207 O212 1.246 . S
C207 O213 1.249 . S
O208 C190 1.254 . S
O208 Zn205 2.025 . S
H209 C201 0.952 . S
H210 C192 0.952 . S
H211 C200 0.948 . S
O212 Zn197 2.034 1_655 S
O212 C207 1.246 . S
O213 Zn205 2.024 1_655 S
O213 C207 1.249 . S
H214 C196 0.948 . S
O215 Zn205 2.039 1_655 S
O215 C219 1.251 . S
O216 Zn197 2.025 1_655 S
O216 C219 1.254 . S
O217 C198 1.246 . S
O217 Zn205 2.034 . S
O218 Zn197 2.024 . S
O218 C198 1.249 . S
C219 O215 1.251 . S
C219 O216 1.254 . S
H220 C193 0.949 . S
H221 C195 0.950 . S
H222 C202 0.949 . S
H223 C204 0.950 . S
H224 C230 0.930 . S
H225 C233 0.930 . S
H226 C234 0.930 . S
H227 C235 0.930 . S
H228 C238 0.930 . S
H229 C239 0.930 . S
C230 H224 0.930 . S
C230 C231 1.355 1_545 S
C230 C232 1.415 . S
C231 C230 1.355 1_565 S
C231 C233 1.419 . S
C232 C230 1.415 . S
C232 C237 1.425 1_545 S
C232 C239 1.409 . S
C233 H225 0.930 . S
C233 C231 1.419 . S
C233 C234 1.362 . S
C234 H226 0.930 . S
C234 C233 1.362 . S
C234 C237 1.409 . S
C235 H227 0.930 . S
C235 C236 1.355 . S
C235 C237 1.415 . S
C236 C235 1.355 . S
C236 C238 1.419 1_565 S
C237 C232 1.425 1_565 S
C237 C234 1.409 . S
C237 C235 1.415 . S
C238 H228 0.930 . S
C238 C236 1.419 1_545 S
C238 C239 1.362 . S
C239 H229 0.930 . S
C239 C232 1.409 . S
C239 C238 1.362 . S
H240 C246 0.930 . S
H241 C249 0.930 . S
H242 C250 0.930 . S
H243 C251 0.930 . S
H244 C254 0.930 . S
H245 C255 0.930 . S
C246 H240 0.930 . S
C246 C247 1.355 . S
C246 C248 1.415 . S
C247 C246 1.355 . S
C247 C249 1.419 . S
C248 C246 1.415 . S
C248 C253 1.425 . S
C248 C255 1.409 . S
C249 H241 0.930 . S
C249 C247 1.419 . S
C249 C250 1.362 . S
C250 H242 0.930 . S
C250 C249 1.362 . S
C250 C253 1.409 . S
C251 H243 0.930 . S
C251 C252 1.355 . S
C251 C253 1.415 . S
C252 C251 1.355 . S
C252 C254 1.419 . S
C253 C248 1.425 . S
C253 C250 1.409 . S
C253 C251 1.415 . S
C254 H244 0.930 . S
C254 C252 1.419 . S
C254 C255 1.362 . S
C255 H245 0.930 . S
C255 C248 1.409 . S
C255 C254 1.362 . S
H256 C262 0.930 . S
H257 C265 0.930 . S
H258 C266 0.930 . S
H259 C267 0.930 . S
H260 C270 0.930 . S
H261 C271 0.930 . S
C262 H256 0.930 . S
C262 C263 1.355 . S
C262 C264 1.415 . S
C263 C262 1.355 . S
C263 C265 1.419 . S
C264 C262 1.415 . S
C264 C269 1.425 . S
C264 C271 1.409 . S
C265 H257 0.930 . S
C265 C263 1.419 . S
C265 C266 1.362 . S
C266 H258 0.930 . S
C266 C265 1.362 . S
C266 C269 1.409 . S
C267 H259 0.930 . S
C267 C268 1.355 . S
C267 C269 1.415 . S
C268 C267 1.355 . S
C268 C270 1.419 . S
C269 C264 1.425 . S
C269 C266 1.409 . S
C269 C267 1.415 . S
C270 H260 0.930 . S
C270 C268 1.419 . S
C270 C271 1.362 . S
C271 H261 0.930 . S
C271 C264 1.409 . S
C271 C270 1.362 . S
H272 C278 0.930 . S
H273 C281 0.930 . S
H274 C282 0.930 . S
H275 C283 0.930 . S
H276 C286 0.930 . S
H277 C287 0.930 . S
C278 H272 0.930 . S
C278 C279 1.355 . S
C278 C280 1.415 . S
C279 C278 1.355 . S
C279 C281 1.419 . S
C280 C278 1.415 . S
C280 C285 1.425 . S
C280 C287 1.409 . S
C281 H273 0.930 . S
C281 C279 1.419 . S
C281 C282 1.362 . S
C282 H274 0.930 . S
C282 C281 1.362 . S
C282 C285 1.409 . S
C283 H275 0.930 . S
C283 C284 1.355 . S
C283 C285 1.415 . S
C284 C283 1.355 . S
C284 C286 1.419 . S
C285 C280 1.425 . S
C285 C282 1.409 . S
C285 C283 1.415 . S
C286 H276 0.930 . S
C286 C284 1.419 . S
C286 C287 1.362 . S
C287 H277 0.930 . S
C287 C280 1.409 . S
C287 C286 1.362 . S
H288 C294 0.930 . S
H289 C297 0.930 . S
H290 C298 0.930 1_554 S
H291 C299 0.930 . S
H292 C302 0.930 . S
H293 C303 0.930 . S
C294 H288 0.930 . S
C294 C295 1.342 1_565 S
C294 C296 1.415 . S
C295 C294 1.342 1_545 S
C295 C297 1.435 1_556 S
C296 C294 1.415 . S
C296 C301 1.425 1_565 S
C296 C303 1.409 . S
C297 H289 0.930 . S
C297 C295 1.435 1_554 S
C297 C298 1.362 1_554 S
C298 H290 0.930 1_556 S
C298 C297 1.362 1_556 S
C298 C301 1.409 . S
C299 H291 0.930 . S
C299 C300 1.355 . S
C299 C301 1.415 . S
C300 C299 1.355 . S
C300 C302 1.419 1_545 S
C301 C296 1.425 1_545 S
C301 C298 1.409 . S
C301 C299 1.415 . S
C302 H292 0.930 . S
C302 C300 1.419 1_565 S
C302 C303 1.362 . S
C303 H293 0.930 . S
C303 C296 1.409 . S
C303 C302 1.362 . S
H304 C310 0.930 . S
H305 C313 0.930 . S
H306 C314 0.930 . S
H307 C315 0.930 . S
H308 C318 0.930 . S
H309 C319 0.930 . S
C310 H304 0.930 . S
C310 C311 1.355 . S
C310 C312 1.415 . S
C311 C310 1.355 . S
C311 C313 1.419 1_556 S
C312 C310 1.415 . S
C312 C317 1.425 . S
C312 C319 1.409 . S
C313 H305 0.930 . S
C313 C311 1.419 1_554 S
C313 C314 1.362 . S
C314 H306 0.930 . S
C314 C313 1.362 . S
C314 C317 1.409 1_554 S
C315 H307 0.930 . S
C315 C316 1.355 . S
C315 C317 1.415 . S
C316 C315 1.355 . S
C316 C318 1.419 . S
C317 C312 1.425 . S
C317 C314 1.409 1_556 S
C317 C315 1.415 . S
C318 H308 0.930 . S
C318 C316 1.419 . S
C318 C319 1.362 . S
C319 H309 0.930 . S
C319 C312 1.409 . S
C319 C318 1.362 . S
H320 C326 0.930 . S
H321 C329 0.930 . S
H322 C330 0.930 . S
H323 C331 0.930 . S
H324 C334 0.930 . S
H325 C335 0.930 . S
C326 H320 0.930 . S
C326 C327 1.355 1_556 S
C326 C328 1.415 . S
C327 C326 1.355 1_554 S
C327 C329 1.419 . S
C328 C326 1.415 . S
C328 C333 1.425 . S
C328 C335 1.409 . S
C329 H321 0.930 . S
C329 C327 1.419 . S
C329 C330 1.362 . S
C330 H322 0.930 . S
C330 C329 1.362 . S
C330 C333 1.409 1_554 S
C331 H323 0.930 . S
C331 C332 1.355 . S
C331 C333 1.415 . S
C332 C331 1.355 . S
C332 C334 1.419 . S
C333 C328 1.425 . S
C333 C330 1.409 1_556 S
C333 C331 1.415 . S
C334 H324 0.930 . S
C334 C332 1.419 . S
C334 C335 1.362 . S
C335 H325 0.930 . S
C335 C328 1.409 . S
C335 C334 1.362 . S
H336 C342 0.930 . S
H337 C345 0.930 1_455 S
H338 C346 0.930 . S
H339 C347 0.930 . S
H340 C350 0.930 . S
H341 C351 0.930 . S
C342 H336 0.930 . S
C342 C343 1.355 . S
C342 C344 1.415 . S
C343 C342 1.355 . S
C343 C345 1.419 . S
C344 C342 1.415 . S
C344 C349 1.425 . S
C344 C351 1.409 . S
C345 H337 0.930 1_655 S
C345 C343 1.419 . S
C345 C346 1.362 1_655 S
C346 H338 0.930 . S
C346 C345 1.362 1_455 S
C346 C349 1.409 1_455 S
C347 H339 0.930 . S
C347 C348 1.355 1_455 S
C347 C349 1.415 1_455 S
C348 C347 1.355 1_655 S
C348 C350 1.419 . S
C349 C344 1.425 . S
C349 C346 1.409 1_655 S
C349 C347 1.415 1_655 S
C350 H340 0.930 . S
C350 C348 1.419 . S
C350 C351 1.362 . S
C351 H341 0.930 . S
C351 C344 1.409 . S
C351 C350 1.362 . S
H352 C358 0.930 . S
H353 C361 0.930 . S
H354 C362 0.930 . S
H355 C363 0.930 . S
H356 C366 0.930 . S
H357 C367 0.930 1_655 S
C358 H352 0.930 . S
C358 C359 1.355 . S
C358 C360 1.415 . S
C359 C358 1.355 . S
C359 C361 1.419 . S
C360 C358 1.415 . S
C360 C365 1.425 . S
C360 C367 1.409 . S
C361 H353 0.930 . S
C361 C359 1.419 . S
C361 C362 1.362 . S
C362 H354 0.930 . S
C362 C361 1.362 . S
C362 C365 1.409 . S
C363 H355 0.930 . S
C363 C364 1.355 . S
C363 C365 1.415 . S
C364 C363 1.355 . S
C364 C366 1.419 1_455 S
C365 C360 1.425 . S
C365 C362 1.409 . S
C365 C363 1.415 . S
C366 H356 0.930 . S
C366 C364 1.419 1_655 S
C366 C367 1.362 1_655 S
C367 H357 0.930 1_455 S
C367 C360 1.409 . S
C367 C366 1.362 1_455 S
H368 C374 0.930 . S
H369 C377 0.930 . S
H370 C378 0.930 . S
H371 C379 0.930 . S
H372 C382 0.930 . S
H373 C383 0.930 . S
C374 H368 0.930 . S
C374 C375 1.337 1_545 S
C374 C376 1.415 . S
C375 C374 1.337 1_565 S
C375 C377 1.443 . S
C376 C374 1.415 . S
C376 C381 1.425 1_545 S
C376 C383 1.409 . S
C377 H369 0.930 . S
C377 C375 1.443 . S
C377 C378 1.362 . S
C378 H370 0.930 . S
C378 C377 1.362 . S
C378 C381 1.409 . S
C379 H371 0.930 . S
C379 C380 1.355 . S
C379 C381 1.415 . S
C380 C379 1.355 . S
C380 C382 1.419 1_565 S
C381 C376 1.425 1_565 S
C381 C378 1.409 . S
C381 C379 1.415 . S
C382 H372 0.930 . S
C382 C380 1.419 1_545 S
C382 C383 1.362 . S
C383 H373 0.930 . S
C383 C376 1.409 . S
C383 C382 1.362 . S
H384 C390 0.930 . S
H385 C393 0.930 . S
H386 C394 0.930 . S
H387 C395 0.930 . S
H388 C398 0.930 . S
H389 C399 0.930 . S
C390 H384 0.930 . S
C390 C391 1.355 . S
C390 C392 1.415 . S
C391 C390 1.355 . S
C391 C393 1.419 . S
C392 C390 1.415 . S
C392 C397 1.425 . S
C392 C399 1.409 . S
C393 H385 0.930 . S
C393 C391 1.419 . S
C393 C394 1.362 . S
C394 H386 0.930 . S
C394 C393 1.362 . S
C394 C397 1.409 . S
C395 H387 0.930 . S
C395 C396 1.355 . S
C395 C397 1.415 . S
C396 C395 1.355 . S
C396 C398 1.419 . S
C397 C392 1.425 . S
C397 C394 1.409 . S
C397 C395 1.415 . S
C398 H388 0.930 . S
C398 C396 1.419 . S
C398 C399 1.362 . S
C399 H389 0.930 . S
C399 C392 1.409 . S
C399 C398 1.362 . S
H400 C406 0.930 . S
H401 C409 0.930 . S
H402 C410 0.930 . S
H403 C411 0.930 . S
H404 C414 0.930 . S
H405 C415 0.930 . S
C406 H400 0.930 . S
C406 C407 1.355 . S
C406 C408 1.415 . S
C407 C406 1.355 . S
C407 C409 1.419 . S
C408 C406 1.415 . S
C408 C413 1.425 . S
C408 C415 1.409 . S
C409 H401 0.930 . S
C409 C407 1.419 . S
C409 C410 1.362 . S
C410 H402 0.930 . S
C410 C409 1.362 . S
C410 C413 1.409 . S
C411 H403 0.930 . S
C411 C412 1.355 . S
C411 C413 1.415 . S
C412 C411 1.355 . S
C412 C414 1.419 . S
C413 C408 1.425 . S
C413 C410 1.409 . S
C413 C411 1.415 . S
C414 H404 0.930 . S
C414 C412 1.419 . S
C414 C415 1.362 . S
C415 H405 0.930 . S
C415 C408 1.409 . S
C415 C414 1.362 . S
H416 C422 0.930 . S
H417 C425 0.930 . S
H418 C426 0.930 . S
H419 C427 0.930 . S
H420 C430 0.930 . S
H421 C431 0.935 1_554 S
C422 H416 0.930 . S
C422 C423 1.355 . S
C422 C424 1.415 . S
C423 C422 1.355 . S
C423 C425 1.419 . S
C424 C422 1.415 . S
C424 C429 1.425 . S
C424 C431 1.397 1_655 S
C425 H417 0.930 . S
C425 C423 1.419 . S
C425 C426 1.362 . S
C426 H418 0.930 . S
C426 C425 1.362 . S
C426 C429 1.409 . S
C427 H419 0.930 . S
C427 C428 1.355 1_655 S
C427 C429 1.415 . S
C428 C427 1.355 1_455 S
C428 C430 1.419 . S
C429 C424 1.425 . S
C429 C426 1.409 . S
C429 C427 1.415 . S
C430 H420 0.930 . S
C430 C428 1.419 . S
C430 C431 1.371 . S
C431 H421 0.935 1_556 S
C431 C424 1.397 1_455 S
C431 C430 1.371 . S
H432 C438 0.930 . S
H433 C441 0.930 . S
H434 C442 0.930 1_554 S
H435 C443 0.930 . S
H436 C446 0.930 . S
H437 C447 0.930 . S
C438 H432 0.930 . S
C438 C439 1.355 1_565 S
C438 C440 1.415 . S
C439 C438 1.355 1_545 S
C439 C441 1.419 1_556 S
C440 C438 1.415 . S
C440 C445 1.425 1_565 S
C440 C447 1.409 . S
C441 H433 0.930 . S
C441 C439 1.419 1_554 S
C441 C442 1.362 1_554 S
C442 H434 0.930 1_556 S
C442 C441 1.362 1_556 S
C442 C445 1.409 . S
C443 H435 0.930 . S
C443 C444 1.355 . S
C443 C445 1.415 . S
C444 C443 1.355 . S
C444 C446 1.419 1_545 S
C445 C440 1.425 1_545 S
C445 C442 1.409 . S
C445 C443 1.415 . S
C446 H436 0.930 . S
C446 C444 1.419 1_565 S
C446 C447 1.362 . S
C447 H437 0.930 . S
C447 C440 1.409 . S
C447 C446 1.362 . S
H448 C454 0.930 . S
H449 C457 0.930 . S
H450 C458 0.930 . S
H451 C459 0.930 . S
H452 C462 0.930 . S
H453 C463 0.930 1_554 S
C454 H448 0.930 . S
C454 C455 1.355 1_554 S
C454 C456 1.415 1_554 S
C455 C454 1.355 1_556 S
C455 C457 1.419 . S
C456 C454 1.415 1_556 S
C456 C461 1.425 . S
C456 C463 1.409 . S
C457 H449 0.930 . S
C457 C455 1.419 . S
C457 C458 1.362 . S
C458 H450 0.930 . S
C458 C457 1.362 . S
C458 C461 1.409 . S
C459 H451 0.930 . S
C459 C460 1.355 . S
C459 C461 1.415 . S
C460 C459 1.355 . S
C460 C462 1.419 . S
C461 C456 1.425 . S
C461 C458 1.409 . S
C461 C459 1.415 . S
C462 H452 0.930 . S
C462 C460 1.419 . S
C462 C463 1.362 . S
C463 H453 0.930 1_556 S
C463 C456 1.409 . S
C463 C462 1.362 . S
H464 C470 0.930 . S
H465 C473 0.930 . S
H466 C474 0.930 . S
H467 C475 0.930 . S
H468 C478 0.930 . S
H469 C479 0.930 . S
C470 H464 0.930 . S
C470 C471 1.355 1_556 S
C470 C472 1.415 . S
C471 C470 1.355 1_554 S
C471 C473 1.419 . S
C472 C470 1.415 . S
C472 C477 1.425 . S
C472 C479 1.409 . S
C473 H465 0.930 . S
C473 C471 1.419 . S
C473 C474 1.362 . S
C474 H466 0.930 . S
C474 C473 1.362 . S
C474 C477 1.409 1_554 S
C475 H467 0.930 . S
C475 C476 1.355 . S
C475 C477 1.415 . S
C476 C475 1.355 . S
C476 C478 1.419 . S
C477 C472 1.425 . S
C477 C474 1.409 1_556 S
C477 C475 1.415 . S
C478 H468 0.930 . S
C478 C476 1.419 . S
C478 C479 1.362 . S
C479 H469 0.930 . S
C479 C472 1.409 . S
C479 C478 1.362 . S
H480 C486 0.930 . S
H481 C489 0.930 . S
H482 C490 0.930 . S
H483 C491 0.930 . S
H484 C494 0.930 . S
H485 C495 0.930 . S
C486 H480 0.930 . S
C486 C487 1.355 . S
C486 C488 1.415 . S
C487 C486 1.355 . S
C487 C489 1.419 . S
C488 C486 1.415 . S
C488 C493 1.425 . S
C488 C495 1.409 . S
C489 H481 0.930 . S
C489 C487 1.419 . S
C489 C490 1.362 . S
C490 H482 0.930 . S
C490 C489 1.362 . S
C490 C493 1.409 . S
C491 H483 0.930 . S
C491 C492 1.355 . S
C491 C493 1.415 . S
C492 C491 1.355 . S
C492 C494 1.419 . S
C493 C488 1.425 . S
C493 C490 1.409 . S
C493 C491 1.415 . S
C494 H484 0.930 . S
C494 C492 1.419 . S
C494 C495 1.362 . S
C495 H485 0.930 . S
C495 C488 1.409 . S
C495 C494 1.362 . S
H496 C502 0.930 . S
H497 C505 0.930 . S
H498 C506 0.930 1_556 S
H499 C507 0.930 . S
H500 C510 0.930 . S
H501 C511 0.930 . S
C502 H496 0.930 . S
C502 C503 1.355 1_565 S
C502 C504 1.415 . S
C503 C502 1.355 1_545 S
C503 C505 1.419 . S
C504 C502 1.415 . S
C504 C509 1.425 1_565 S
C504 C511 1.409 . S
C505 H497 0.930 . S
C505 C503 1.419 . S
C505 C506 1.362 . S
C506 H498 0.930 1_554 S
C506 C505 1.362 . S
C506 C509 1.409 . S
C507 H499 0.930 . S
C507 C508 1.355 . S
C507 C509 1.415 1_556 S
C508 C507 1.355 . S
C508 C510 1.419 1_546 S
C509 C504 1.425 1_545 S
C509 C506 1.409 . S
C509 C507 1.415 1_554 S
C510 H500 0.930 . S
C510 C508 1.419 1_564 S
C510 C511 1.362 . S
C511 H501 0.930 . S
C511 C504 1.409 . S
C511 C510 1.362 . S
H512 C518 0.930 . S
H513 C521 0.930 . S
H514 C522 0.930 1_556 S
H515 C523 0.930 . S
H516 C526 0.930 . S
H517 C527 0.930 . S
C518 H512 0.930 . S
C518 C519 1.355 . S
C518 C520 1.415 . S
C519 C518 1.355 . S
C519 C521 1.419 . S
C520 C518 1.415 . S
C520 C525 1.425 . S
C520 C527 1.409 . S
C521 H513 0.930 . S
C521 C519 1.419 . S
C521 C522 1.362 . S
C522 H514 0.930 1_554 S
C522 C521 1.362 . S
C522 C525 1.409 . S
C523 H515 0.930 . S
C523 C524 1.355 . S
C523 C525 1.415 1_556 S
C524 C523 1.355 . S
C524 C526 1.419 1_556 S
C525 C520 1.425 . S
C525 C522 1.409 . S
C525 C523 1.415 1_554 S
C526 H516 0.930 . S
C526 C524 1.419 1_554 S
C526 C527 1.362 . S
C527 H517 0.930 . S
C527 C520 1.409 . S
C527 C526 1.362 . S
H528 C534 0.930 . S
H529 C537 0.930 . S
H530 C538 0.930 . S
H531 C539 0.930 . S
H532 C542 0.929 1_554 S
H533 C543 0.930 . S
C534 H528 0.930 . S
C534 C535 1.355 . S
C534 C536 1.415 . S
C535 C534 1.355 . S
C535 C537 1.419 . S
C536 C534 1.415 . S
C536 C541 1.425 1_554 S
C536 C543 1.409 . S
C537 H529 0.930 . S
C537 C535 1.419 . S
C537 C538 1.362 1_554 S
C538 H530 0.930 . S
C538 C537 1.362 1_556 S
C538 C541 1.409 . S
C539 H531 0.930 . S
C539 C540 1.355 . S
C539 C541 1.415 . S
C540 C539 1.355 . S
C540 C542 1.419 . S
C541 C536 1.425 1_556 S
C541 C538 1.409 . S
C541 C539 1.415 . S
C542 H532 0.929 1_556 S
C542 C540 1.419 . S
C542 C543 1.362 1_556 S
C543 H533 0.930 . S
C543 C536 1.409 . S
C543 C542 1.362 1_554 S
H544 C550 0.930 . S
H545 C553 0.930 . S
H546 C554 0.930 . S
H547 C555 0.930 . S
H548 C558 0.930 1_455 S
H549 C559 0.930 1_455 S
C550 H544 0.930 . S
C550 C551 1.355 . S
C550 C552 1.415 . S
C551 C550 1.355 . S
C551 C553 1.419 . S
C552 C550 1.415 . S
C552 C557 1.425 . S
C552 C559 1.409 . S
C553 H545 0.930 . S
C553 C551 1.419 . S
C553 C554 1.362 . S
C554 H546 0.930 . S
C554 C553 1.362 . S
C554 C557 1.409 . S
C555 H547 0.930 . S
C555 C556 1.355 . S
C555 C557 1.415 . S
C556 C555 1.355 . S
C556 C558 1.419 . S
C557 C552 1.425 . S
C557 C554 1.409 . S
C557 C555 1.415 . S
C558 H548 0.930 1_655 S
C558 C556 1.419 . S
C558 C559 1.362 . S
C559 H549 0.930 1_655 S
C559 C552 1.409 . S
C559 C558 1.362 . S
H560 C566 0.930 . S
H561 C569 0.930 . S
H562 C570 0.930 . S
H563 C571 0.930 . S
H564 C574 0.930 . S
H565 C575 0.930 . S
C566 H560 0.930 . S
C566 C567 1.355 1_545 S
C566 C568 1.415 . S
C567 C566 1.355 1_565 S
C567 C569 1.419 . S
C568 C566 1.415 . S
C568 C573 1.425 1_545 S
C568 C575 1.409 . S
C569 H561 0.930 . S
C569 C567 1.419 . S
C569 C570 1.362 . S
C570 H562 0.930 . S
C570 C569 1.362 . S
C570 C573 1.409 . S
C571 H563 0.930 . S
C571 C572 1.355 . S
C571 C573 1.415 . S
C572 C571 1.355 . S
C572 C574 1.419 1_565 S
C573 C568 1.425 1_565 S
C573 C570 1.409 . S
C573 C571 1.415 . S
C574 H564 0.930 . S
C574 C572 1.419 1_545 S
C574 C575 1.362 . S
C575 H565 0.930 . S
C575 C568 1.409 . S
C575 C574 1.362 . S
H576 C582 0.930 . S
H577 C585 0.930 . S
H578 C586 0.930 . S
H579 C587 0.930 . S
H580 C590 0.930 . S
H581 C591 0.930 . S
C582 H576 0.930 . S
C582 C583 1.355 . S
C582 C584 1.415 . S
C583 C582 1.355 . S
C583 C585 1.419 . S
C584 C582 1.415 . S
C584 C589 1.425 . S
C584 C591 1.409 . S
C585 H577 0.930 . S
C585 C583 1.419 . S
C585 C586 1.362 . S
C586 H578 0.930 . S
C586 C585 1.362 . S
C586 C589 1.409 . S
C587 H579 0.930 . S
C587 C588 1.355 . S
C587 C589 1.415 . S
C588 C587 1.355 . S
C588 C590 1.419 . S
C589 C584 1.425 . S
C589 C586 1.409 . S
C589 C587 1.415 . S
C590 H580 0.930 . S
C590 C588 1.419 . S
C590 C591 1.362 . S
C591 H581 0.930 . S
C591 C584 1.409 . S
C591 C590 1.362 . S
H592 C598 0.930 . S
H593 C601 0.930 . S
H594 C602 0.930 . S
H595 C603 0.930 . S
H596 C606 0.930 . S
H597 C607 0.930 . S
C598 H592 0.930 . S
C598 C599 1.355 . S
C598 C600 1.415 . S
C599 C598 1.355 . S
C599 C601 1.419 . S
C600 C598 1.415 . S
C600 C605 1.425 . S
C600 C607 1.409 . S
C601 H593 0.930 . S
C601 C599 1.419 . S
C601 C602 1.362 . S
C602 H594 0.930 . S
C602 C601 1.362 . S
C602 C605 1.409 . S
C603 H595 0.930 . S
C603 C604 1.355 . S
C603 C605 1.415 . S
C604 C603 1.355 . S
C604 C606 1.419 . S
C605 C600 1.425 . S
C605 C602 1.409 . S
C605 C603 1.415 . S
C606 H596 0.930 . S
C606 C604 1.419 . S
C606 C607 1.362 . S
C607 H597 0.930 . S
C607 C600 1.409 . S
C607 C606 1.362 . S
C231 C74 1.817 1_565 S
C236 C105 1.826 . S
C252 C126 1.515 . S
C247 C85 1.509 . S
C268 C160 1.340 . S
C263 C52 1.318 . S
C284 C194 1.561 . S
C279 C63 1.562 . S
C300 C96 1.836 . S
C295 C30 1.825 1_556 S
C311 C41 1.488 1_556 S
C316 C135 1.535 . S
C327 C8 1.388 . S
C332 C169 1.397 . S
C343 C19 1.497 . S
C348 C203 1.558 1_655 S
C364 C117 0.782 . S
C359 C62 0.742 . S
C380 C122 1.137 . S
C375 C73 1.146 1_565 S
C396 C156 1.069 . S
C391 C84 1.069 . S
C407 C51 0.570 . S
C412 C190 0.534 . S
C423 C18 0.807 . S
C428 C88 0.791 . S
C444 C151 1.135 . S
C439 C29 1.105 1_556 S
C460 C185 1.077 . S
C455 C40 1.023 1_556 S
C471 C7 0.595 . S
C476 C219 0.517 . S
C487 C60 1.171 . S
C492 C101 1.333 . S
C503 C71 1.424 . S
C508 C130 1.746 . S
C524 C164 1.526 . S
C519 C82 1.332 . S
C540 C198 1.584 . S
C535 C49 1.296 . S
C551 C16 1.085 . S
C556 C92 1.308 . S
C572 C139 1.747 . S
C567 C27 1.528 1_565 S
C588 C173 1.534 . S
C583 C38 1.176 . S
C599 C5 1.378 . S
C604 C207 1.588 . S
