# Generated by pormake.
# Topology ftw, (4,12)-cn, num edge types: 1
# Building blocks:
#     Node 0, Type 0, BuildingBlock: ESEHIV_clean_sbu_0, # of connection points: 4
#     Node 1, Type 0, BuildingBlock: ESEHIV_clean_sbu_0, # of connection points: 4
#     Node 2, Type 0, BuildingBlock: ESEHIV_clean_sbu_0, # of connection points: 4
#     Node 3, Type 1, BuildingBlock: EZIPEK_clean_sbu_0, # of connection points: 12
#     Edge 4, Type (0, 1), BuildingBlock: XIVTED_clean_linker_0, # of connection points: 2
#     Edge 5, Type (0, 1), BuildingBlock: XIVTED_clean_linker_0, # of connection points: 2
#     Edge 6, Type (0, 1), BuildingBlock: XIVTED_clean_linker_0, # of connection points: 2
#     Edge 7, Type (0, 1), BuildingBlock: XIVTED_clean_linker_0, # of connection points: 2
#     Edge 8, Type (0, 1), BuildingBlock: XIVTED_clean_linker_0, # of connection points: 2
#     Edge 9, Type (0, 1), BuildingBlock: XIVTED_clean_linker_0, # of connection points: 2
#     Edge 10, Type (0, 1), BuildingBlock: XIVTED_clean_linker_0, # of connection points: 2
#     Edge 11, Type (0, 1), BuildingBlock: XIVTED_clean_linker_0, # of connection points: 2
#     Edge 12, Type (0, 1), BuildingBlock: XIVTED_clean_linker_0, # of connection points: 2
#     Edge 13, Type (0, 1), BuildingBlock: XIVTED_clean_linker_0, # of connection points: 2
#     Edge 14, Type (0, 1), BuildingBlock: XIVTED_clean_linker_0, # of connection points: 2
#     Edge 15, Type (0, 1), BuildingBlock: XIVTED_clean_linker_0, # of connection points: 2
# Relax obj value: 0.025
# Max RMSD: 0.144
# Mean RMSD: 0.114
data_MOF--net-ftw--node1-ESEHIV_clean_sbu_0--node2-EZIPEK_clean_sbu_0--edge1-XIVTED_clean_linker_0
_symmetry_space_group_name_H-M    P1
_symmetry_Int_Tables_number       1
_symmetry_cell_setting            triclinic
loop_
_symmetry_equiv_pos_as_xyz
'x, y, z'
_cell_length_a     25.056923
_cell_length_b     24.839612
_cell_length_c     24.653153
_cell_angle_alpha  86.678156
_cell_angle_beta   86.719507
_cell_angle_gamma 93.387078
loop_
_atom_site_label
_atom_site_type_symbol
_atom_site_fract_x
_atom_site_fract_y
_atom_site_fract_z
_atom_type_partial_charge
Cu0 Cu 0.99036 0.50372 0.5127 0.0
N1 N 0.94795 0.45739 0.47383 0.0
N2 N 0.92909 0.39872 0.41123 0.0
C3 C 0.9625 0.43969 0.4249 0.0
C4 C 0.89148 0.39111 0.45292 0.0
C5 C 0.90325 0.42738 0.4915 0.0
O6 O 0.03541 0.46138 0.5582 0.0
C7 C 0.99965 0.59303 0.44131 0.0
O8 O 0.9485 0.59139 0.45653 0.0
H9 H 0.99957 0.45332 0.40221 0.0
H10 H 0.88271 0.42941 0.53105 0.0
N11 N 0.94944 0.54088 0.56194 0.0
N12 N 0.93359 0.59674 0.62783 0.0
C13 C 0.97062 0.56943 0.601 0.0
C14 C 0.8969 0.54985 0.56436 0.0
C15 C 0.88706 0.58479 0.60488 0.0
C16 C 0.04736 0.41339 0.54961 0.0
O17 O 0.03758 0.39359 0.50271 0.0
H18 H 1.01298 0.57215 0.60779 0.0
H19 H 0.8683 0.5339 0.53724 0.0
O20 O 0.0284 0.55685 0.46082 0.0
H21 H 0.85927 0.35987 0.45654 0.0
H22 H 0.849 0.60089 0.61594 0.0
Cu23 Cu 0.54379 0.05334 0.50206 0.0
N24 N 0.58245 0.09354 0.54991 0.0
N25 N 0.64028 0.10745 0.61404 0.0
C26 C 0.62281 0.07384 0.57699 0.0
C27 C 0.60935 0.15008 0.61048 0.0
C28 C 0.57362 0.14141 0.57062 0.0
O29 O 0.59408 1.01053 0.46271 0.0
C30 C 0.44857 0.04203 0.56247 0.0
O31 O 0.44984 0.09308 0.54503 0.0
H32 H 0.63742 0.03429 0.57125 0.0
H33 H 0.54234 0.16715 0.55896 0.0
N34 N 0.5122 0.09489 0.44866 0.0
N35 N 0.45729 0.11198 0.38238 0.0
C36 C 0.46953 0.07678 0.42277 0.0
C37 C 0.52796 0.14331 0.42372 0.0
C38 C 0.49408 0.15395 0.38254 0.0
C39 C 0.63674 0.03738 0.44384 0.0
O40 O 0.64307 0.08886 0.45296 0.0
H41 H 0.44907 0.03746 0.43223 0.0
H42 H 0.56237 0.16831 0.43377 0.0
O43 O 0.48683 0.01352 0.54757 0.0
H44 H 0.61184 0.18451 0.63539 0.0
H45 H 0.49657 0.18946 0.3547 0.0
Cu46 Cu 0.5449 0.51606 0.97285 0.0
N47 N 0.51367 0.57037 0.93204 0.0
N48 N 0.4592 0.6371 0.9164 0.0
C49 C 0.46868 0.59334 0.94865 0.0
C50 C 0.5001 0.64191 0.87792 0.0
C51 C 0.53373 0.60076 0.88779 0.0
O52 O 0.48696 0.46924 0.00955 0.0
C53 C 0.64005 0.56958 -0.00361 0.0
O54 O 0.65297 0.55482 0.94735 0.0
H55 H 0.4451 0.57995 0.98565 0.0
H56 H 0.57141 0.59506 0.86588 0.0
N57 N 0.58429 0.46967 0.93132 0.0
N58 N 0.63921 0.40387 0.91528 0.0
C59 C 0.61085 0.42902 0.95331 0.0
C60 C 0.59557 0.46993 0.87726 0.0
C61 C 0.62986 0.42953 0.86728 0.0
C62 C 0.45224 0.45301 0.97726 0.0
O63 O 0.45787 0.47016 0.92572 0.0
H64 H 0.61107 0.41963 -0.00327 0.0
H65 H 0.58096 0.49814 0.8474 0.0
O66 O 0.59372 0.55496 0.01848 0.0
H67 H 0.5061 0.67365 0.84581 0.0
H68 H 0.64692 0.42009 0.82788 0.0
C69 C 0.04922 0.14185 0.86513 0.0
C70 C 1.02544 0.14124 0.12953 0.0
C71 C 1.02479 0.8801 0.88445 0.0
C72 C 0.05027 0.88251 0.14488 0.0
C73 C 0.17154 0.89085 0.99514 0.0
C74 C 0.16872 0.15228 -0.00246 0.0
C75 C 0.9113 0.87137 0.02725 0.0
C76 C 0.90943 0.13335 0.99562 0.0
C77 C 0.91239 0.99799 0.14787 0.0
C78 C 0.17178 0.02969 0.12629 0.0
C79 C 0.9084 0.01537 0.88443 0.0
C80 C 0.16723 1.012 0.86464 0.0
Eu81 Eu 0.03928 0.11407 -0.00082 0.0
O82 O 0.08773 0.06326 0.04676 0.0
O83 O 0.99176 0.05549 0.95925 0.0
Eu84 Eu 0.14189 0.01945 -0.00232 0.0
Eu85 Eu 0.93802 1.00465 0.01394 0.0
O86 O 0.08703 0.06329 0.95055 0.0
O87 O 0.99249 0.05672 0.05448 0.0
Eu88 Eu 0.03822 1.01118 0.90379 0.0
Eu89 Eu 0.04163 1.01233 0.10783 0.0
O90 O 0.08711 0.96735 0.9574 0.0
O91 O 0.08959 0.96736 0.05329 0.0
O92 O 0.99369 0.96083 0.06025 0.0
O93 O 0.99175 0.96008 0.96484 0.0
Eu94 Eu 0.04124 0.90959 0.0123 0.0
O95 O 0.04714 0.15905 0.9156 0.0
O96 O 0.0279 0.15837 0.07694 0.0
O97 O 0.0317 0.86374 0.93603 0.0
O98 O 0.04857 0.86528 0.0946 0.0
O99 O 0.18739 0.94316 0.9956 0.0
O100 O 0.186 0.1026 0.99385 0.0
O101 O 0.89405 0.92125 0.0215 0.0
O102 O 0.89281 0.08176 0.00863 0.0
O103 O 0.96377 1.00079 0.15986 0.0
O104 O 0.12096 0.02625 0.1465 0.0
O105 O 0.95915 0.01749 0.86423 0.0
O106 O 0.11583 1.00706 0.85305 0.0
O107 O 0.96263 0.85932 0.02647 0.0
O108 O 0.1207 0.87063 0.00045 0.0
O109 O 0.96047 0.15254 0.98948 0.0
O110 O 0.11747 0.1645 0.00037 0.0
O111 O 0.03117 0.09062 0.14855 0.0
O112 O 0.04809 0.93384 0.15782 0.0
O113 O 0.04626 0.0902 0.85271 0.0
O114 O 1.02582 0.93142 0.86484 0.0
O115 O 0.18508 0.01939 0.91393 0.0
O116 O 0.1877 0.02581 0.07408 0.0
O117 O 0.89233 1.00805 0.93708 0.0
O118 O 0.89478 1.00026 0.0977 0.0
H119 H 0.97841 0.42638 0.31173 0.0
H120 H 0.99019 0.11928 0.23586 0.0
H121 H 0.90248 0.29126 0.4107 0.0
H122 H 0.02865 0.25257 0.11691 0.0
H123 H 0.96398 0.18291 0.30221 0.0
H124 H 1.00177 0.36468 0.2411 0.0
C125 C 0.96638 0.38383 0.31844 0.0
C126 C 0.93847 0.36397 0.36724 0.0
C127 C 0.97816 0.19836 0.26163 0.0
C128 C 0.9654 0.29323 0.28698 0.0
C129 C 0.99362 0.162 0.22367 0.0
C130 C 1.01201 0.1805 0.17056 0.0
C131 C 0.98141 0.25391 0.24688 0.0
C132 C 1.01475 0.23644 0.15732 0.0
C133 C 0.97959 0.34871 0.27811 0.0
C134 C 0.92347 0.30853 0.37362 0.0
N135 N 0.99982 0.27123 0.19532 0.0
N136 N 0.93752 0.27512 0.33422 0.0
H137 H 0.74366 0.05227 0.44898 0.0
H138 H 0.80408 0.97238 0.14641 0.0
H139 H 0.62331 0.97287 0.35828 0.0
H140 H 0.92764 1.01117 0.25561 0.0
H141 H 0.73746 0.96861 0.22334 0.0
H142 H 0.81213 0.03218 0.38005 0.0
C143 C 0.73195 0.02945 0.41494 0.0
C144 C 0.67801 0.01406 0.40914 0.0
C145 C 0.77924 0.97736 0.23045 0.0
C146 C 0.75581 0.99247 0.32897 0.0
C147 C 0.81733 0.97991 0.18649 0.0
C148 C 0.87165 0.99271 0.19429 0.0
C149 C 0.79546 0.98827 0.2825 0.0
C150 C 0.88634 1.00139 0.24736 0.0
C151 C 0.77098 0.01814 0.37547 0.0
C152 C 0.66468 0.98491 0.36429 0.0
N153 N 0.84845 0.99956 0.28919 0.0
N154 N 0.70329 0.97589 0.32521 0.0
H155 H 0.06943 0.5875 0.35171 0.0
H156 H 0.03734 0.89635 0.2541 0.0
H157 H 0.97742 0.6978 0.44142 0.0
H158 H 0.07062 0.7748 0.14043 0.0
H159 H 0.03666 0.82768 0.32871 0.0
H160 H 0.09125 0.65993 0.27959 0.0
C161 C 0.055 0.62728 0.35673 0.0
C162 C 1.02156 0.63697 0.40223 0.0
C163 C 0.04445 0.8161 0.28744 0.0
C164 C 0.04612 0.71919 0.32084 0.0
C165 C 0.04494 0.85534 0.24466 0.0
C166 C 0.05339 0.84138 0.19058 0.0
C167 C 0.05282 0.76235 0.27645 0.0
C168 C 0.06324 0.78738 0.18136 0.0
C169 C 0.06698 0.66828 0.31554 0.0
C170 C 1.00313 0.68878 0.40672 0.0
N171 N 0.06245 0.74972 0.22388 0.0
N172 N 1.01559 0.72788 0.36657 0.0
H173 H 0.45816 0.14723 0.27586 0.0
H174 H 0.16362 0.0172 0.23781 0.0
H175 H 0.36093 0.05783 0.40453 0.0
H176 H 0.27584 0.06863 0.10265 0.0
H177 H 0.2325 0.03962 0.30048 0.0
H178 H 0.38822 0.12774 0.21277 0.0
C179 C 0.4219 0.12396 0.29091 0.0
C180 C 0.41542 0.10389 0.34542 0.0
C181 C 0.24209 0.04584 0.25709 0.0
C182 C 0.33549 0.08123 0.27365 0.0
C183 C 0.20274 0.03309 0.22123 0.0
C184 C 0.21391 0.04081 0.16476 0.0
C185 C 0.2929 0.06711 0.2365 0.0
C186 C 0.26547 0.06153 0.1458 0.0
C187 C 0.38223 0.11246 0.25485 0.0
C188 C 0.36785 0.07345 0.36268 0.0
N189 N 0.30294 0.07419 0.18158 0.0
N190 N 0.32973 0.06313 0.32699 0.0
H191 H 1.00431 0.58952 0.7063 0.0
H192 H 0.97521 0.89172 0.78889 0.0
H193 H 0.88685 0.69114 0.64098 0.0
H194 H 0.0442 0.77232 0.89341 0.0
H195 H 0.95051 0.8212 0.72834 0.0
H196 H 1.0265 0.65815 0.77036 0.0
C197 C 0.98309 0.62625 0.70569 0.0
C198 C 0.94375 0.63481 0.66839 0.0
C199 C 0.97103 0.81047 0.76454 0.0
C200 C 0.96924 0.71356 0.74086 0.0
C201 C 0.98561 0.85076 0.79893 0.0
C202 C 1.01206 0.83797 0.84628 0.0
C203 C 0.98361 0.75705 0.77705 0.0
C204 C 1.0238 0.78401 0.85742 0.0
C205 C 0.9956 0.66524 0.74228 0.0
C206 C 0.91707 0.68284 0.66944 0.0
N207 N 1.00977 0.74555 0.82288 0.0
N208 N 0.93069 0.72071 0.70472 0.0
H209 H 0.45477 0.97792 0.65625 0.0
H210 H 0.15179 0.02351 0.75584 0.0
H211 H 0.34423 0.06248 0.56 0.0
H212 H 0.27401 0.99192 0.86812 0.0
H213 H 0.21786 0.01868 0.68019 0.0
H214 H 0.38423 0.96256 0.73042 0.0
C215 C 0.41523 0.9918 0.65024 0.0
C216 C 0.40501 0.02145 0.60221 0.0
C217 C 0.23022 0.01262 0.72137 0.0
C218 C 0.32501 1.00468 0.68623 0.0
C219 C 0.19249 0.01534 0.76471 0.0
C220 C 0.20741 1.00869 0.8186 0.0
C221 C 0.28339 1.00276 0.73167 0.0
C222 C 0.26087 0.9981 0.82728 0.0
C223 C 0.37533 0.98364 0.69264 0.0
C224 C 0.35359 0.03953 0.59657 0.0
N225 N 0.29702 0.99554 0.78423 0.0
N226 N 0.3156 0.03103 0.6381 0.0
H227 H 0.05551 0.43627 0.65669 0.0
H228 H 0.06516 0.12507 0.75662 0.0
H229 H 0.06817 0.30642 0.54848 0.0
H230 H 0.04889 0.25283 0.86702 0.0
H231 H 0.07395 0.1923 0.68046 0.0
H232 H 0.06235 0.37148 0.73415 0.0
C233 C 0.06062 0.39432 0.64906 0.0
C234 C 0.06082 0.37677 0.59586 0.0
C235 C 0.06864 0.20576 0.72131 0.0
C236 C 0.068 0.30224 0.68461 0.0
C237 C 0.06341 0.16726 0.76506 0.0
C238 C 0.05578 0.18306 0.81865 0.0
C239 C 0.06614 0.26075 0.73081 0.0
C240 C 0.05447 0.23858 0.82655 0.0
C241 C 0.06422 0.35728 0.69342 0.0
C242 C 0.0675 0.32186 0.58867 0.0
N243 N 0.0593 0.27536 0.78311 0.0
N244 N 0.07033 0.28657 0.6325 0.0
H245 H 0.72922 0.05311 0.59593 0.0
H246 H 0.80816 0.05064 0.90552 0.0
H247 H 0.64319 0.13666 0.71842 0.0
H248 H 0.91451 1.00548 0.77408 0.0
H249 H 0.74314 0.07483 0.83936 0.0
H250 H 0.79413 0.02905 0.66217 0.0
C251 C 0.7241 0.06644 0.63684 0.0
C252 C 0.68072 0.09679 0.6518 0.0
C253 C 0.78064 0.05946 0.82506 0.0
C254 C 0.75468 0.06917 0.72799 0.0
C255 C 0.81761 0.04513 0.86284 0.0
C256 C 0.86687 0.02575 0.84537 0.0
C257 C 0.79271 0.05389 0.76943 0.0
C258 C 0.87715 0.02032 0.78943 0.0
C259 C 0.76123 0.05286 0.67458 0.0
C260 C 0.67631 0.11361 0.70515 0.0
N261 N 0.84036 0.03419 0.75351 0.0
N262 N 0.71261 0.09921 0.7415 0.0
H263 H 0.45325 0.36081 0.0447 0.0
H264 H 0.15583 0.26001 0.97757 0.0
H265 H 0.351 0.45337 0.94564 0.0
H266 H 0.27403 0.14907 0.02376 0.0
H267 H 0.22212 0.33507 0.98271 0.0
H268 H 0.38244 0.28693 0.05553 0.0
C269 C 0.4154 0.36607 0.02655 0.0
C270 C 0.40768 0.41307 0.99434 0.0
C271 C 0.23358 0.29432 0.99181 0.0
C272 C 0.32735 0.3293 0.00598 0.0
C273 C 0.19571 0.25132 0.9889 0.0
C274 C 0.20939 0.19793 -0.00023 0.0
C275 C 0.28562 0.28424 0.00625 0.0
C276 C 0.26186 0.18947 0.01434 0.0
C277 C 0.37538 0.32381 0.03214 0.0
C278 C 0.35844 0.41767 0.97075 0.0
N279 N 0.2981 0.2322 0.0172 0.0
N280 N 0.32026 0.37636 0.97695 0.0
H281 H 0.4624 0.74484 0.88824 0.0
H282 H 0.16322 0.77981 0.00834 0.0
H283 H 0.36004 0.61319 0.96519 0.0
H284 H 0.27648 0.91391 0.95882 0.0
H285 H 0.23269 0.71756 0.9879 0.0
H286 H 0.39218 0.8066 0.90755 0.0
C287 C 0.42501 0.72879 0.90875 0.0
C288 C 0.41723 0.67367 0.9252 0.0
C289 C 0.24235 0.76063 0.98171 0.0
C290 C 0.33666 0.74436 0.94794 0.0
C291 C 0.20266 0.79627 0.99337 0.0
C292 C 0.21387 0.85238 0.98554 0.0
C293 C 0.29361 0.78105 0.96153 0.0
C294 C 0.26589 0.87111 0.96598 0.0
C295 C 0.38505 0.76418 0.92019 0.0
C296 C 0.36807 0.65542 0.95235 0.0
N297 N 0.30364 0.83559 0.95447 0.0
N298 N 0.32969 0.69059 0.96279 0.0
H299 H 0.62835 0.32294 0.9946 0.0
H300 H 0.92358 0.22997 0.93637 0.0
H301 H 0.73273 0.38884 0.85884 0.0
H302 H 0.8016 0.12604 0.02731 0.0
H303 H 0.85625 0.29355 0.91506 0.0
H304 H 0.69295 0.25488 0.01404 0.0
C305 C 0.66482 0.32297 0.96884 0.0
C306 C 0.67525 0.36163 0.92506 0.0
C307 C 0.84415 0.25684 0.93966 0.0
C308 C 0.74942 0.28434 0.94734 0.0
C309 C 0.88268 0.2206 0.95229 0.0
C310 C 0.8684 0.17257 0.9841 0.0
C311 C 0.79083 0.24566 0.95949 0.0
C312 C 0.81447 0.16252 0.00275 0.0
C313 C 0.70149 0.28402 0.97979 0.0
C314 C 0.72289 0.35955 0.89266 0.0
N315 N 0.77768 0.19897 0.99051 0.0
N316 N 0.75842 0.32194 0.90477 0.0
H317 H 0.61785 0.66174 0.0479 0.0
H318 H 0.92834 0.76328 0.031 0.0
H319 H 0.74759 0.5668 0.99564 0.0
H320 H 0.80097 0.87297 0.03964 0.0
H321 H 0.8618 0.68759 0.03754 0.0
H322 H 0.68375 0.73542 0.06549 0.0
C323 C 0.66021 0.65579 0.04188 0.0
C324 C 0.67751 0.60822 0.02049 0.0
C325 C 0.84831 0.72818 0.0383 0.0
C326 C 0.7526 0.69201 0.03955 0.0
C327 C 0.8864 0.77168 0.03455 0.0
C328 C 0.8705 0.82501 0.03407 0.0
C329 C 0.79356 0.73758 0.04175 0.0
C330 C 0.81527 0.83271 0.03919 0.0
C331 C 0.6977 0.69799 0.05121 0.0
C332 C 0.73269 0.60287 0.01218 0.0
N333 N 0.77878 0.7895 0.04251 0.0
N334 N 0.76816 0.64426 0.02145 0.0
loop_
_geom_bond_atom_site_label_1
_geom_bond_atom_site_label_2
_geom_bond_distance
_geom_bond_site_symmetry_2
_ccdc_geom_bond_type
Cu0 N1 1.999 . S
Cu0 O6 1.974 . S
Cu0 N11 1.985 . S
Cu0 O20 1.959 . S
N1 Cu0 1.999 . S
N1 C3 1.263 . S
N1 C5 1.389 . S
N2 C3 1.358 . S
N2 C4 1.400 . S
C3 N1 1.263 . S
C3 N2 1.358 . S
C3 H9 0.930 1_455 S
C4 N2 1.400 . S
C4 C5 1.351 . S
C4 H21 0.930 . S
C5 N1 1.389 . S
C5 C4 1.351 . S
C5 H10 0.930 . S
O6 Cu0 1.974 . S
O6 C16 1.282 1_455 S
C7 O8 1.261 . S
C7 O20 1.251 1_655 S
O8 C7 1.261 . S
H9 C3 0.930 1_655 S
H10 C5 0.930 . S
N11 Cu0 1.985 . S
N11 C13 1.335 . S
N11 C14 1.390 1_455 S
N12 C13 1.345 . S
N12 C15 1.336 1_455 S
C13 N11 1.335 . S
C13 N12 1.345 . S
C13 H18 0.930 . S
C14 N11 1.390 1_655 S
C14 C15 1.346 . S
C14 H19 0.930 . S
C15 N12 1.336 1_655 S
C15 C14 1.346 . S
C15 H22 0.929 . S
C16 O6 1.282 1_655 S
C16 O17 1.216 . S
O17 C16 1.216 . S
H18 C13 0.930 . S
H19 C14 0.930 . S
O20 Cu0 1.959 . S
O20 C7 1.251 1_455 S
H21 C4 0.930 . S
H22 C15 0.929 . S
Cu23 N24 1.999 . S
Cu23 O29 1.974 . S
Cu23 N34 1.985 . S
Cu23 O43 1.959 . S
N24 Cu23 1.999 . S
N24 C26 1.267 . S
N24 C28 1.389 . S
N25 C26 1.360 . S
N25 C27 1.400 . S
C26 N24 1.267 . S
C26 N25 1.360 . S
C26 H32 0.924 1_565 S
C27 N25 1.400 . S
C27 C28 1.351 . S
C27 H44 0.930 . S
C28 N24 1.389 . S
C28 C27 1.351 . S
C28 H33 0.930 . S
O29 Cu23 1.974 . S
O29 C39 1.282 1_565 S
C30 O31 1.261 . S
C30 O43 1.251 1_545 S
O31 C30 1.261 . S
H32 C26 0.924 1_545 S
H33 C28 0.930 . S
N34 Cu23 1.985 . S
N34 C36 1.335 . S
N34 C37 1.390 1_565 S
N35 C36 1.348 . S
N35 C38 1.332 1_565 S
C36 N34 1.335 . S
C36 N35 1.348 . S
C36 H41 0.930 . S
C37 N34 1.390 1_545 S
C37 C38 1.346 . S
C37 H42 0.930 . S
C38 N35 1.332 1_545 S
C38 C37 1.346 . S
C38 H45 0.929 . S
C39 O29 1.282 1_545 S
C39 O40 1.216 . S
O40 C39 1.216 . S
H41 C36 0.930 . S
H42 C37 0.930 . S
O43 Cu23 1.959 . S
O43 C30 1.251 1_565 S
H44 C27 0.930 . S
H45 C38 0.929 . S
Cu46 N47 1.999 . S
Cu46 O52 1.974 . S
Cu46 N57 1.985 . S
Cu46 O66 1.959 . S
N47 Cu46 1.999 . S
N47 C49 1.263 . S
N47 C51 1.389 . S
N48 C49 1.358 . S
N48 C50 1.400 . S
C49 N47 1.263 . S
C49 N48 1.358 . S
C49 H55 0.930 1_556 S
C50 N48 1.400 . S
C50 C51 1.351 . S
C50 H67 0.930 . S
C51 N47 1.389 . S
C51 C50 1.351 . S
C51 H56 0.930 . S
O52 Cu46 1.974 . S
O52 C62 1.282 1_556 S
C53 O54 1.261 . S
C53 O66 1.251 1_554 S
O54 C53 1.261 . S
H55 C49 0.930 1_554 S
H56 C51 0.930 . S
N57 Cu46 1.985 . S
N57 C59 1.335 . S
N57 C60 1.390 1_556 S
N58 C59 1.345 . S
N58 C61 1.336 1_556 S
C59 N57 1.335 . S
C59 N58 1.345 . S
C59 H64 0.930 . S
C60 N57 1.390 1_554 S
C60 C61 1.346 . S
C60 H65 0.930 . S
C61 N58 1.336 1_554 S
C61 C60 1.346 . S
C61 H68 0.929 . S
C62 O52 1.282 1_554 S
C62 O63 1.216 . S
O63 C62 1.216 . S
H64 C59 0.930 . S
H65 C60 0.930 . S
O66 Cu46 1.959 . S
O66 C53 1.251 1_556 S
H67 C50 0.930 . S
H68 C61 0.929 . S
C69 O95 1.283 . S
C69 O113 1.283 . S
C70 O96 1.283 . S
C70 O111 1.283 . S
C71 O97 1.283 . S
C71 O114 1.283 . S
C72 O98 1.283 . S
C72 O112 1.283 . S
C73 O99 1.283 1_554 S
C73 O108 1.283 . S
C74 O100 1.283 . S
C74 O110 1.283 . S
C75 O101 1.283 . S
C75 O107 1.283 . S
C76 O102 1.283 . S
C76 O109 1.283 1_554 S
C77 O103 1.283 . S
C77 O118 1.283 . S
C78 O104 1.283 . S
C78 O116 1.283 . S
C79 O105 1.283 . S
C79 O117 1.283 . S
C80 O106 1.283 . S
C80 O115 1.283 . S
Eu81 O82 2.370 1_556 S
Eu81 O83 2.370 1_455 S
Eu81 O86 2.370 . S
Eu81 O87 2.370 1_456 S
Eu81 O95 2.363 . S
Eu81 O96 2.363 1_556 S
Eu81 O109 2.363 1_455 S
Eu81 O110 2.363 . S
O82 Eu81 2.370 1_554 S
O82 Eu84 2.370 1_554 S
O82 Eu89 2.358 1_455 S
O83 Eu81 2.370 1_655 S
O83 Eu85 2.370 1_556 S
O83 Eu88 2.370 1_655 S
Eu84 O82 2.370 1_556 S
Eu84 O86 2.370 . S
Eu84 O90 2.370 1_545 S
Eu84 O91 2.370 1_546 S
Eu84 O99 2.363 1_545 S
Eu84 O100 2.363 . S
Eu84 O115 2.363 . S
Eu84 O116 2.363 1_556 S
Eu85 O83 2.370 1_554 S
Eu85 O87 2.370 . S
Eu85 O92 2.370 1_545 S
Eu85 O93 2.370 1_544 S
Eu85 O101 2.363 1_545 S
Eu85 O102 2.363 . S
Eu85 O117 2.363 1_554 S
Eu85 O118 2.363 . S
O86 Eu81 2.370 . S
O86 Eu84 2.370 . S
O86 Eu88 2.370 . S
O87 Eu81 2.370 1_654 S
O87 Eu85 2.370 . S
O87 Eu89 2.383 . S
Eu88 O83 2.370 1_455 S
Eu88 O86 2.370 . S
Eu88 O90 2.370 1_545 S
Eu88 O93 2.370 1_445 S
Eu88 O105 2.363 1_455 S
Eu88 O106 2.363 . S
Eu88 O113 2.363 . S
Eu88 O114 2.363 1_545 S
Eu89 O82 2.358 1_655 S
Eu89 O87 2.383 . S
Eu89 O91 2.358 1_645 S
Eu89 O92 2.383 1_545 S
Eu89 O103 2.384 . S
Eu89 O104 2.341 1_655 S
Eu89 O111 2.363 1_655 S
Eu89 O112 2.362 1_545 S
O90 Eu84 2.370 1_565 S
O90 Eu88 2.370 1_565 S
O90 Eu94 2.361 1_456 S
O91 Eu84 2.370 1_564 S
O91 Eu89 2.358 1_465 S
O91 Eu94 2.360 1_455 S
O92 Eu85 2.370 1_565 S
O92 Eu89 2.383 1_565 S
O92 Eu94 2.380 . S
O93 Eu85 2.370 1_566 S
O93 Eu88 2.370 1_665 S
O93 Eu94 2.381 1_556 S
Eu94 O90 2.361 1_654 S
Eu94 O91 2.360 1_655 S
Eu94 O92 2.380 . S
Eu94 O93 2.381 1_554 S
Eu94 O97 2.364 1_654 S
Eu94 O98 2.362 . S
Eu94 O107 2.379 . S
Eu94 O108 2.346 1_655 S
O95 C69 1.283 . S
O95 Eu81 2.363 . S
O96 C70 1.283 . S
O96 Eu81 2.363 1_554 S
O97 C71 1.283 . S
O97 Eu94 2.364 1_456 S
O98 C72 1.283 . S
O98 Eu94 2.362 . S
O99 C73 1.283 1_556 S
O99 Eu84 2.363 1_565 S
O100 C74 1.283 . S
O100 Eu84 2.363 . S
O101 C75 1.283 . S
O101 Eu85 2.363 1_565 S
O102 C76 1.283 . S
O102 Eu85 2.363 . S
O103 C77 1.283 . S
O103 Eu89 2.384 . S
O104 C78 1.283 . S
O104 Eu89 2.341 1_455 S
O105 C79 1.283 . S
O105 Eu88 2.363 1_655 S
O106 C80 1.283 . S
O106 Eu88 2.363 . S
O107 C75 1.283 . S
O107 Eu94 2.379 . S
O108 C73 1.283 . S
O108 Eu94 2.346 1_455 S
O109 C76 1.283 1_556 S
O109 Eu81 2.363 1_655 S
O110 C74 1.283 . S
O110 Eu81 2.363 . S
O111 C70 1.283 . S
O111 Eu89 2.363 1_455 S
O112 C72 1.283 . S
O112 Eu89 2.362 1_565 S
O113 C69 1.283 . S
O113 Eu88 2.363 . S
O114 C71 1.283 . S
O114 Eu88 2.363 1_565 S
O115 C80 1.283 . S
O115 Eu84 2.363 . S
O116 C78 1.283 . S
O116 Eu84 2.363 1_554 S
O117 C79 1.283 . S
O117 Eu85 2.363 1_556 S
O118 C77 1.283 . S
O118 Eu85 2.363 . S
H119 C125 0.930 . S
H120 C129 0.930 . S
H121 C134 0.929 . S
H122 C132 0.929 . S
H123 C127 0.929 . S
H124 C133 0.929 . S
C125 H119 0.930 . S
C125 C126 1.367 . S
C125 C133 1.378 . S
C126 C125 1.367 . S
C126 C134 1.433 1_455 S
C127 H123 0.929 . S
C127 C129 1.378 . S
C127 C131 1.350 1_655 S
C128 C131 1.463 . S
C128 C133 1.350 . S
C128 N136 1.427 1_455 S
C129 H120 0.930 . S
C129 C127 1.378 . S
C129 C130 1.367 1_655 S
C130 C129 1.367 1_455 S
C130 C132 1.433 . S
C131 C127 1.350 1_455 S
C131 C128 1.463 . S
C131 N135 1.427 . S
C132 H122 0.929 . S
C132 C130 1.433 . S
C132 N135 1.384 . S
C133 H124 0.929 . S
C133 C125 1.378 . S
C133 C128 1.350 . S
C134 H121 0.929 . S
C134 C126 1.433 1_655 S
C134 N136 1.384 . S
N135 C131 1.427 . S
N135 C132 1.384 . S
N136 C128 1.427 1_655 S
N136 C134 1.384 . S
H137 C143 0.930 . S
H138 C147 0.930 . S
H139 C152 0.929 . S
H140 C150 0.929 . S
H141 C145 0.929 . S
H142 C151 0.929 . S
C143 H137 0.930 . S
C143 C144 1.367 . S
C143 C151 1.378 . S
C144 C143 1.367 . S
C144 C152 1.433 1_545 S
C145 H141 0.929 . S
C145 C147 1.378 . S
C145 C149 1.350 1_565 S
C146 C149 1.463 . S
C146 C151 1.350 . S
C146 N154 1.427 1_545 S
C147 H138 0.930 . S
C147 C145 1.378 . S
C147 C148 1.367 1_565 S
C148 C147 1.367 1_545 S
C148 C150 1.433 . S
C149 C145 1.350 1_545 S
C149 C146 1.463 . S
C149 N153 1.427 . S
C150 H140 0.929 . S
C150 C148 1.433 . S
C150 N153 1.384 . S
C151 H142 0.929 . S
C151 C143 1.378 . S
C151 C146 1.350 . S
C152 H139 0.929 . S
C152 C144 1.433 1_565 S
C152 N154 1.384 . S
N153 C149 1.427 . S
N153 C150 1.384 . S
N154 C146 1.427 1_565 S
N154 C152 1.384 . S
H155 C161 0.930 . S
H156 C165 0.930 . S
H157 C170 0.929 . S
H158 C168 0.929 . S
H159 C163 0.929 . S
H160 C169 0.929 . S
C161 H155 0.930 . S
C161 C162 1.367 . S
C161 C169 1.378 . S
C162 C161 1.367 . S
C162 C170 1.433 1_655 S
C163 H159 0.929 . S
C163 C165 1.378 . S
C163 C167 1.350 1_455 S
C164 C167 1.463 . S
C164 C169 1.350 . S
C164 N172 1.427 1_655 S
C165 H156 0.930 . S
C165 C163 1.378 . S
C165 C166 1.367 1_455 S
C166 C165 1.367 1_655 S
C166 C168 1.433 . S
C167 C163 1.350 1_655 S
C167 C164 1.463 . S
C167 N171 1.427 . S
C168 H158 0.929 . S
C168 C166 1.433 . S
C168 N171 1.384 . S
C169 H160 0.929 . S
C169 C161 1.378 . S
C169 C164 1.350 . S
C170 H157 0.929 . S
C170 C162 1.433 1_455 S
C170 N172 1.384 . S
N171 C167 1.427 . S
N171 C168 1.384 . S
N172 C164 1.427 1_455 S
N172 C170 1.384 . S
H173 C179 0.930 . S
H174 C183 0.930 . S
H175 C188 0.929 . S
H176 C186 0.929 . S
H177 C181 0.929 . S
H178 C187 0.929 . S
C179 H173 0.930 . S
C179 C180 1.367 1_545 S
C179 C187 1.378 . S
C180 C179 1.367 1_565 S
C180 C188 1.433 . S
C181 H177 0.929 . S
C181 C183 1.378 . S
C181 C185 1.350 1_565 S
C182 C185 1.463 . S
C182 C187 1.350 . S
C182 N190 1.427 1_545 S
C183 H174 0.930 . S
C183 C181 1.378 . S
C183 C184 1.367 1_565 S
C184 C183 1.367 1_545 S
C184 C186 1.433 . S
C185 C181 1.350 1_545 S
C185 C182 1.463 . S
C185 N189 1.427 . S
C186 H176 0.929 . S
C186 C184 1.433 . S
C186 N189 1.384 . S
C187 H178 0.929 . S
C187 C179 1.378 . S
C187 C182 1.350 . S
C188 H175 0.929 . S
C188 C180 1.433 . S
C188 N190 1.384 . S
N189 C185 1.427 . S
N189 C186 1.384 . S
N190 C182 1.427 1_565 S
N190 C188 1.384 . S
H191 C197 0.930 . S
H192 C201 0.930 . S
H193 C206 0.929 . S
H194 C204 0.929 . S
H195 C199 0.929 . S
H196 C205 0.929 . S
C197 H191 0.930 . S
C197 C198 1.367 . S
C197 C205 1.378 . S
C198 C197 1.367 . S
C198 C206 1.433 1_455 S
C199 H195 0.929 . S
C199 C201 1.378 . S
C199 C203 1.350 1_655 S
C200 C203 1.463 . S
C200 C205 1.350 . S
C200 N208 1.427 1_455 S
C201 H192 0.930 . S
C201 C199 1.378 . S
C201 C202 1.367 1_655 S
C202 C201 1.367 1_455 S
C202 C204 1.433 . S
C203 C199 1.350 1_455 S
C203 C200 1.463 . S
C203 N207 1.427 . S
C204 H194 0.929 . S
C204 C202 1.433 . S
C204 N207 1.384 . S
C205 H196 0.929 . S
C205 C197 1.378 . S
C205 C200 1.350 . S
C206 H193 0.929 . S
C206 C198 1.433 1_655 S
C206 N208 1.384 . S
N207 C203 1.427 . S
N207 C204 1.384 . S
N208 C200 1.427 1_655 S
N208 C206 1.384 . S
H209 C215 0.930 . S
H210 C219 0.930 . S
H211 C224 0.929 . S
H212 C222 0.929 . S
H213 C217 0.929 . S
H214 C223 0.929 . S
C215 H209 0.930 . S
C215 C216 1.367 1_565 S
C215 C223 1.378 . S
C216 C215 1.367 1_545 S
C216 C224 1.433 . S
C217 H213 0.929 . S
C217 C219 1.378 . S
C217 C221 1.350 . S
C218 C221 1.463 . S
C218 C223 1.350 1_545 S
C218 N226 1.427 . S
C219 H210 0.930 . S
C219 C217 1.378 . S
C219 C220 1.367 . S
C220 C219 1.367 . S
C220 C222 1.433 1_545 S
C221 C217 1.350 . S
C221 C218 1.463 . S
C221 N225 1.427 1_545 S
C222 H212 0.929 . S
C222 C220 1.433 1_565 S
C222 N225 1.384 . S
C223 H214 0.929 . S
C223 C215 1.378 . S
C223 C218 1.350 1_565 S
C224 H211 0.929 . S
C224 C216 1.433 . S
C224 N226 1.384 . S
N225 C221 1.427 1_565 S
N225 C222 1.384 . S
N226 C218 1.427 . S
N226 C224 1.384 . S
H227 C233 0.930 . S
H228 C237 0.930 . S
H229 C242 0.929 . S
H230 C240 0.929 . S
H231 C235 0.929 . S
H232 C241 0.929 . S
C233 H227 0.930 . S
C233 C234 1.367 . S
C233 C241 1.378 . S
C234 C233 1.367 . S
C234 C242 1.433 1_655 S
C235 H231 0.929 . S
C235 C237 1.378 . S
C235 C239 1.350 . S
C236 C239 1.463 1_655 S
C236 C241 1.350 . S
C236 N244 1.427 1_655 S
C237 H228 0.930 . S
C237 C235 1.378 . S
C237 C238 1.367 . S
C238 C237 1.367 . S
C238 C240 1.433 1_455 S
C239 C235 1.350 . S
C239 C236 1.463 1_455 S
C239 N243 1.427 1_455 S
C240 H230 0.929 . S
C240 C238 1.433 1_655 S
C240 N243 1.384 . S
C241 H232 0.929 . S
C241 C233 1.378 . S
C241 C236 1.350 . S
C242 H229 0.929 . S
C242 C234 1.433 1_455 S
C242 N244 1.384 . S
N243 C239 1.427 1_655 S
N243 C240 1.384 . S
N244 C236 1.427 1_455 S
N244 C242 1.384 . S
H245 C251 0.930 . S
H246 C255 0.930 . S
H247 C260 0.929 . S
H248 C258 0.929 . S
H249 C253 0.929 . S
H250 C259 0.929 . S
C251 H245 0.930 . S
C251 C252 1.367 . S
C251 C259 1.378 . S
C252 C251 1.367 . S
C252 C260 1.433 1_565 S
C253 H249 0.929 . S
C253 C255 1.378 . S
C253 C257 1.350 . S
C254 C257 1.463 . S
C254 C259 1.350 1_545 S
C254 N262 1.428 . S
C255 H246 0.930 . S
C255 C253 1.378 . S
C255 C256 1.367 . S
C256 C255 1.367 . S
C256 C258 1.433 1_545 S
C257 C253 1.350 . S
C257 C254 1.463 . S
C257 N261 1.427 1_545 S
C258 H248 0.929 . S
C258 C256 1.433 1_565 S
C258 N261 1.384 . S
C259 H250 0.929 . S
C259 C251 1.378 . S
C259 C254 1.350 1_565 S
C260 H247 0.929 . S
C260 C252 1.433 1_545 S
C260 N262 1.384 . S
N261 C257 1.427 1_565 S
N261 C258 1.384 . S
N262 C254 1.428 . S
N262 C260 1.384 . S
H263 C269 0.930 . S
H264 C273 0.930 . S
H265 C278 0.929 . S
H266 C276 0.929 . S
H267 C271 0.929 . S
H268 C277 0.929 . S
C269 H263 0.930 . S
C269 C270 1.367 . S
C269 C277 1.378 . S
C270 C269 1.367 . S
C270 C278 1.433 1_554 S
C271 H267 0.929 . S
C271 C273 1.378 . S
C271 C275 1.350 1_556 S
C272 C275 1.463 . S
C272 C277 1.350 . S
C272 N280 1.427 1_554 S
C273 H264 0.930 . S
C273 C271 1.378 . S
C273 C274 1.367 . S
C274 C273 1.367 . S
C274 C276 1.433 1_556 S
C275 C271 1.350 1_554 S
C275 C272 1.463 . S
C275 N279 1.427 . S
C276 H266 0.929 . S
C276 C274 1.433 1_554 S
C276 N279 1.384 . S
C277 H268 0.929 . S
C277 C269 1.378 . S
C277 C272 1.350 . S
C278 H265 0.929 . S
C278 C270 1.433 1_556 S
C278 N280 1.384 . S
N279 C275 1.427 . S
N279 C276 1.384 . S
N280 C272 1.427 1_556 S
N280 C278 1.384 . S
H281 C287 0.930 . S
H282 C291 0.930 . S
H283 C296 0.929 . S
H284 C294 0.929 . S
H285 C289 0.929 . S
H286 C295 0.929 . S
C287 H281 0.930 . S
C287 C288 1.367 . S
C287 C295 1.378 . S
C288 C287 1.367 . S
C288 C296 1.433 1_556 S
C289 H285 0.929 . S
C289 C291 1.378 . S
C289 C293 1.350 1_554 S
C290 C293 1.463 . S
C290 C295 1.350 . S
C290 N298 1.427 1_556 S
C291 H282 0.930 . S
C291 C289 1.378 . S
C291 C292 1.367 . S
C292 C291 1.367 . S
C292 C294 1.433 1_554 S
C293 C289 1.350 1_556 S
C293 C290 1.463 . S
C293 N297 1.427 . S
C294 H284 0.929 . S
C294 C292 1.433 1_556 S
C294 N297 1.384 . S
C295 H286 0.929 . S
C295 C287 1.378 . S
C295 C290 1.350 . S
C296 H283 0.929 . S
C296 C288 1.433 1_554 S
C296 N298 1.384 . S
N297 C293 1.427 . S
N297 C294 1.384 . S
N298 C290 1.427 1_554 S
N298 C296 1.384 . S
H299 C305 0.930 . S
H300 C309 0.930 . S
H301 C314 0.929 . S
H302 C312 0.929 . S
H303 C307 0.929 . S
H304 C313 0.929 . S
C305 H299 0.930 . S
C305 C306 1.367 1_554 S
C305 C313 1.378 . S
C306 C305 1.367 1_556 S
C306 C314 1.433 . S
C307 H303 0.929 . S
C307 C309 1.378 . S
C307 C311 1.350 . S
C308 C311 1.463 . S
C308 C313 1.350 1_556 S
C308 N316 1.427 . S
C309 H300 0.930 . S
C309 C307 1.378 . S
C309 C310 1.367 . S
C310 C309 1.367 . S
C310 C312 1.433 1_556 S
C311 C307 1.350 . S
C311 C308 1.463 . S
C311 N315 1.427 1_556 S
C312 H302 0.929 . S
C312 C310 1.433 1_554 S
C312 N315 1.384 . S
C313 H304 0.929 . S
C313 C305 1.378 . S
C313 C308 1.350 1_554 S
C314 H301 0.929 . S
C314 C306 1.433 . S
C314 N316 1.384 . S
N315 C311 1.427 1_554 S
N315 C312 1.384 . S
N316 C308 1.427 . S
N316 C314 1.384 . S
H317 C323 0.930 . S
H318 C327 0.930 . S
H319 C332 0.929 . S
H320 C330 0.929 . S
H321 C325 0.929 . S
H322 C331 0.929 . S
C323 H317 0.930 . S
C323 C324 1.367 1_556 S
C323 C331 1.378 . S
C324 C323 1.367 1_554 S
C324 C332 1.433 . S
C325 H321 0.929 . S
C325 C327 1.378 . S
C325 C329 1.350 . S
C326 C329 1.463 . S
C326 C331 1.350 1_554 S
C326 N334 1.427 . S
C327 H318 0.930 . S
C327 C325 1.378 . S
C327 C328 1.367 . S
C328 C327 1.367 . S
C328 C330 1.433 1_554 S
C329 C325 1.350 . S
C329 C326 1.463 . S
C329 N333 1.427 1_554 S
C330 H320 0.929 . S
C330 C328 1.433 1_556 S
C330 N333 1.384 . S
C331 H322 0.929 . S
C331 C323 1.378 . S
C331 C326 1.350 1_556 S
C332 H319 0.929 . S
C332 C324 1.433 . S
C332 N334 1.384 . S
N333 C329 1.427 1_556 S
N333 C330 1.384 . S
N334 C326 1.427 . S
N334 C332 1.384 . S
C130 C70 1.248 . S
C126 N2 1.198 . S
C148 C77 1.620 . S
C144 C39 1.608 . S
C166 C72 1.472 . S
C162 C7 1.462 . S
C184 C78 1.384 . S
C180 N35 1.327 . S
C198 N12 1.163 . S
C202 C71 1.222 . S
C220 C80 1.650 . S
C216 C30 1.643 . S
C234 C16 1.428 . S
C238 C69 1.444 . S
C252 N25 1.366 . S
C256 C79 1.414 . S
C270 C62 1.782 . S
C274 C74 1.800 . S
C288 N48 1.524 . S
C292 C73 1.587 . S
C310 C76 1.560 1_556 S
C306 N58 1.486 . S
C328 C75 1.830 . S
C324 C53 1.820 . S
