# Generated by pormake.
# Topology gar, (4,6)-cn, num edge types: 1
# Building blocks:
#     Node 0, Type 0, BuildingBlock: NAHDIM_clean_sbu_0, # of connection points: 4
#     Node 1, Type 0, BuildingBlock: NAHDIM_clean_sbu_0, # of connection points: 4
#     Node 2, Type 0, BuildingBlock: NAHDIM_clean_sbu_0, # of connection points: 4
#     Node 3, Type 0, BuildingBlock: NAHDIM_clean_sbu_0, # of connection points: 4
#     Node 4, Type 0, BuildingBlock: NAHDIM_clean_sbu_0, # of connection points: 4
#     Node 5, Type 0, BuildingBlock: NAHDIM_clean_sbu_0, # of connection points: 4
#     Node 6, Type 0, BuildingBlock: NAHDIM_clean_sbu_0, # of connection points: 4
#     Node 7, Type 0, BuildingBlock: NAHDIM_clean_sbu_0, # of connection points: 4
#     Node 8, Type 0, BuildingBlock: NAHDIM_clean_sbu_0, # of connection points: 4
#     Node 9, Type 0, BuildingBlock: NAHDIM_clean_sbu_0, # of connection points: 4
#     Node 10, Type 0, BuildingBlock: NAHDIM_clean_sbu_0, # of connection points: 4
#     Node 11, Type 0, BuildingBlock: NAHDIM_clean_sbu_0, # of connection points: 4
#     Node 12, Type 0, BuildingBlock: NAHDIM_clean_sbu_0, # of connection points: 4
#     Node 13, Type 0, BuildingBlock: NAHDIM_clean_sbu_0, # of connection points: 4
#     Node 14, Type 0, BuildingBlock: NAHDIM_clean_sbu_0, # of connection points: 4
#     Node 15, Type 0, BuildingBlock: NAHDIM_clean_sbu_0, # of connection points: 4
#     Node 16, Type 0, BuildingBlock: NAHDIM_clean_sbu_0, # of connection points: 4
#     Node 17, Type 0, BuildingBlock: NAHDIM_clean_sbu_0, # of connection points: 4
#     Node 18, Type 0, BuildingBlock: NAHDIM_clean_sbu_0, # of connection points: 4
#     Node 19, Type 0, BuildingBlock: NAHDIM_clean_sbu_0, # of connection points: 4
#     Node 20, Type 0, BuildingBlock: NAHDIM_clean_sbu_0, # of connection points: 4
#     Node 21, Type 0, BuildingBlock: NAHDIM_clean_sbu_0, # of connection points: 4
#     Node 22, Type 0, BuildingBlock: NAHDIM_clean_sbu_0, # of connection points: 4
#     Node 23, Type 0, BuildingBlock: NAHDIM_clean_sbu_0, # of connection points: 4
#     Node 24, Type 1, BuildingBlock: NUHQIS_clean_sbu_0, # of connection points: 6
#     Node 25, Type 1, BuildingBlock: NUHQIS_clean_sbu_0, # of connection points: 6
#     Node 26, Type 1, BuildingBlock: NUHQIS_clean_sbu_0, # of connection points: 6
#     Node 27, Type 1, BuildingBlock: NUHQIS_clean_sbu_0, # of connection points: 6
#     Node 28, Type 1, BuildingBlock: NUHQIS_clean_sbu_0, # of connection points: 6
#     Node 29, Type 1, BuildingBlock: NUHQIS_clean_sbu_0, # of connection points: 6
#     Node 30, Type 1, BuildingBlock: NUHQIS_clean_sbu_0, # of connection points: 6
#     Node 31, Type 1, BuildingBlock: NUHQIS_clean_sbu_0, # of connection points: 6
#     Node 32, Type 1, BuildingBlock: NUHQIS_clean_sbu_0, # of connection points: 6
#     Node 33, Type 1, BuildingBlock: NUHQIS_clean_sbu_0, # of connection points: 6
#     Node 34, Type 1, BuildingBlock: NUHQIS_clean_sbu_0, # of connection points: 6
#     Node 35, Type 1, BuildingBlock: NUHQIS_clean_sbu_0, # of connection points: 6
#     Node 36, Type 1, BuildingBlock: NUHQIS_clean_sbu_0, # of connection points: 6
#     Node 37, Type 1, BuildingBlock: NUHQIS_clean_sbu_0, # of connection points: 6
#     Node 38, Type 1, BuildingBlock: NUHQIS_clean_sbu_0, # of connection points: 6
#     Node 39, Type 1, BuildingBlock: NUHQIS_clean_sbu_0, # of connection points: 6
#     Edge 40, Type (0, 1), BuildingBlock: CIFDUS_clean_linker_0, # of connection points: 2
#     Edge 41, Type (0, 1), BuildingBlock: CIFDUS_clean_linker_0, # of connection points: 2
#     Edge 42, Type (0, 1), BuildingBlock: CIFDUS_clean_linker_0, # of connection points: 2
#     Edge 43, Type (0, 1), BuildingBlock: CIFDUS_clean_linker_0, # of connection points: 2
#     Edge 44, Type (0, 1), BuildingBlock: CIFDUS_clean_linker_0, # of connection points: 2
#     Edge 45, Type (0, 1), BuildingBlock: CIFDUS_clean_linker_0, # of connection points: 2
#     Edge 46, Type (0, 1), BuildingBlock: CIFDUS_clean_linker_0, # of connection points: 2
#     Edge 47, Type (0, 1), BuildingBlock: CIFDUS_clean_linker_0, # of connection points: 2
#     Edge 48, Type (0, 1), BuildingBlock: CIFDUS_clean_linker_0, # of connection points: 2
#     Edge 49, Type (0, 1), BuildingBlock: CIFDUS_clean_linker_0, # of connection points: 2
#     Edge 50, Type (0, 1), BuildingBlock: CIFDUS_clean_linker_0, # of connection points: 2
#     Edge 51, Type (0, 1), BuildingBlock: CIFDUS_clean_linker_0, # of connection points: 2
#     Edge 52, Type (0, 1), BuildingBlock: CIFDUS_clean_linker_0, # of connection points: 2
#     Edge 53, Type (0, 1), BuildingBlock: CIFDUS_clean_linker_0, # of connection points: 2
#     Edge 54, Type (0, 1), BuildingBlock: CIFDUS_clean_linker_0, # of connection points: 2
#     Edge 55, Type (0, 1), BuildingBlock: CIFDUS_clean_linker_0, # of connection points: 2
#     Edge 56, Type (0, 1), BuildingBlock: CIFDUS_clean_linker_0, # of connection points: 2
#     Edge 57, Type (0, 1), BuildingBlock: CIFDUS_clean_linker_0, # of connection points: 2
#     Edge 58, Type (0, 1), BuildingBlock: CIFDUS_clean_linker_0, # of connection points: 2
#     Edge 59, Type (0, 1), BuildingBlock: CIFDUS_clean_linker_0, # of connection points: 2
#     Edge 60, Type (0, 1), BuildingBlock: CIFDUS_clean_linker_0, # of connection points: 2
#     Edge 61, Type (0, 1), BuildingBlock: CIFDUS_clean_linker_0, # of connection points: 2
#     Edge 62, Type (0, 1), BuildingBlock: CIFDUS_clean_linker_0, # of connection points: 2
#     Edge 63, Type (0, 1), BuildingBlock: CIFDUS_clean_linker_0, # of connection points: 2
#     Edge 64, Type (0, 1), BuildingBlock: CIFDUS_clean_linker_0, # of connection points: 2
#     Edge 65, Type (0, 1), BuildingBlock: CIFDUS_clean_linker_0, # of connection points: 2
#     Edge 66, Type (0, 1), BuildingBlock: CIFDUS_clean_linker_0, # of connection points: 2
#     Edge 67, Type (0, 1), BuildingBlock: CIFDUS_clean_linker_0, # of connection points: 2
#     Edge 68, Type (0, 1), BuildingBlock: CIFDUS_clean_linker_0, # of connection points: 2
#     Edge 69, Type (0, 1), BuildingBlock: CIFDUS_clean_linker_0, # of connection points: 2
#     Edge 70, Type (0, 1), BuildingBlock: CIFDUS_clean_linker_0, # of connection points: 2
#     Edge 71, Type (0, 1), BuildingBlock: CIFDUS_clean_linker_0, # of connection points: 2
#     Edge 72, Type (0, 1), BuildingBlock: CIFDUS_clean_linker_0, # of connection points: 2
#     Edge 73, Type (0, 1), BuildingBlock: CIFDUS_clean_linker_0, # of connection points: 2
#     Edge 74, Type (0, 1), BuildingBlock: CIFDUS_clean_linker_0, # of connection points: 2
#     Edge 75, Type (0, 1), BuildingBlock: CIFDUS_clean_linker_0, # of connection points: 2
#     Edge 76, Type (0, 1), BuildingBlock: CIFDUS_clean_linker_0, # of connection points: 2
#     Edge 77, Type (0, 1), BuildingBlock: CIFDUS_clean_linker_0, # of connection points: 2
#     Edge 78, Type (0, 1), BuildingBlock: CIFDUS_clean_linker_0, # of connection points: 2
#     Edge 79, Type (0, 1), BuildingBlock: CIFDUS_clean_linker_0, # of connection points: 2
#     Edge 80, Type (0, 1), BuildingBlock: CIFDUS_clean_linker_0, # of connection points: 2
#     Edge 81, Type (0, 1), BuildingBlock: CIFDUS_clean_linker_0, # of connection points: 2
#     Edge 82, Type (0, 1), BuildingBlock: CIFDUS_clean_linker_0, # of connection points: 2
#     Edge 83, Type (0, 1), BuildingBlock: CIFDUS_clean_linker_0, # of connection points: 2
#     Edge 84, Type (0, 1), BuildingBlock: CIFDUS_clean_linker_0, # of connection points: 2
#     Edge 85, Type (0, 1), BuildingBlock: CIFDUS_clean_linker_0, # of connection points: 2
#     Edge 86, Type (0, 1), BuildingBlock: CIFDUS_clean_linker_0, # of connection points: 2
#     Edge 87, Type (0, 1), BuildingBlock: CIFDUS_clean_linker_0, # of connection points: 2
#     Edge 88, Type (0, 1), BuildingBlock: CIFDUS_clean_linker_0, # of connection points: 2
#     Edge 89, Type (0, 1), BuildingBlock: CIFDUS_clean_linker_0, # of connection points: 2
#     Edge 90, Type (0, 1), BuildingBlock: CIFDUS_clean_linker_0, # of connection points: 2
#     Edge 91, Type (0, 1), BuildingBlock: CIFDUS_clean_linker_0, # of connection points: 2
#     Edge 92, Type (0, 1), BuildingBlock: CIFDUS_clean_linker_0, # of connection points: 2
#     Edge 93, Type (0, 1), BuildingBlock: CIFDUS_clean_linker_0, # of connection points: 2
#     Edge 94, Type (0, 1), BuildingBlock: CIFDUS_clean_linker_0, # of connection points: 2
#     Edge 95, Type (0, 1), BuildingBlock: CIFDUS_clean_linker_0, # of connection points: 2
#     Edge 96, Type (0, 1), BuildingBlock: CIFDUS_clean_linker_0, # of connection points: 2
#     Edge 97, Type (0, 1), BuildingBlock: CIFDUS_clean_linker_0, # of connection points: 2
#     Edge 98, Type (0, 1), BuildingBlock: CIFDUS_clean_linker_0, # of connection points: 2
#     Edge 99, Type (0, 1), BuildingBlock: CIFDUS_clean_linker_0, # of connection points: 2
#     Edge 100, Type (0, 1), BuildingBlock: CIFDUS_clean_linker_0, # of connection points: 2
#     Edge 101, Type (0, 1), BuildingBlock: CIFDUS_clean_linker_0, # of connection points: 2
#     Edge 102, Type (0, 1), BuildingBlock: CIFDUS_clean_linker_0, # of connection points: 2
#     Edge 103, Type (0, 1), BuildingBlock: CIFDUS_clean_linker_0, # of connection points: 2
#     Edge 104, Type (0, 1), BuildingBlock: CIFDUS_clean_linker_0, # of connection points: 2
#     Edge 105, Type (0, 1), BuildingBlock: CIFDUS_clean_linker_0, # of connection points: 2
#     Edge 106, Type (0, 1), BuildingBlock: CIFDUS_clean_linker_0, # of connection points: 2
#     Edge 107, Type (0, 1), BuildingBlock: CIFDUS_clean_linker_0, # of connection points: 2
#     Edge 108, Type (0, 1), BuildingBlock: CIFDUS_clean_linker_0, # of connection points: 2
#     Edge 109, Type (0, 1), BuildingBlock: CIFDUS_clean_linker_0, # of connection points: 2
#     Edge 110, Type (0, 1), BuildingBlock: CIFDUS_clean_linker_0, # of connection points: 2
#     Edge 111, Type (0, 1), BuildingBlock: CIFDUS_clean_linker_0, # of connection points: 2
#     Edge 112, Type (0, 1), BuildingBlock: CIFDUS_clean_linker_0, # of connection points: 2
#     Edge 113, Type (0, 1), BuildingBlock: CIFDUS_clean_linker_0, # of connection points: 2
#     Edge 114, Type (0, 1), BuildingBlock: CIFDUS_clean_linker_0, # of connection points: 2
#     Edge 115, Type (0, 1), BuildingBlock: CIFDUS_clean_linker_0, # of connection points: 2
#     Edge 116, Type (0, 1), BuildingBlock: CIFDUS_clean_linker_0, # of connection points: 2
#     Edge 117, Type (0, 1), BuildingBlock: CIFDUS_clean_linker_0, # of connection points: 2
#     Edge 118, Type (0, 1), BuildingBlock: CIFDUS_clean_linker_0, # of connection points: 2
#     Edge 119, Type (0, 1), BuildingBlock: CIFDUS_clean_linker_0, # of connection points: 2
#     Edge 120, Type (0, 1), BuildingBlock: CIFDUS_clean_linker_0, # of connection points: 2
#     Edge 121, Type (0, 1), BuildingBlock: CIFDUS_clean_linker_0, # of connection points: 2
#     Edge 122, Type (0, 1), BuildingBlock: CIFDUS_clean_linker_0, # of connection points: 2
#     Edge 123, Type (0, 1), BuildingBlock: CIFDUS_clean_linker_0, # of connection points: 2
#     Edge 124, Type (0, 1), BuildingBlock: CIFDUS_clean_linker_0, # of connection points: 2
#     Edge 125, Type (0, 1), BuildingBlock: CIFDUS_clean_linker_0, # of connection points: 2
#     Edge 126, Type (0, 1), BuildingBlock: CIFDUS_clean_linker_0, # of connection points: 2
#     Edge 127, Type (0, 1), BuildingBlock: CIFDUS_clean_linker_0, # of connection points: 2
#     Edge 128, Type (0, 1), BuildingBlock: CIFDUS_clean_linker_0, # of connection points: 2
#     Edge 129, Type (0, 1), BuildingBlock: CIFDUS_clean_linker_0, # of connection points: 2
#     Edge 130, Type (0, 1), BuildingBlock: CIFDUS_clean_linker_0, # of connection points: 2
#     Edge 131, Type (0, 1), BuildingBlock: CIFDUS_clean_linker_0, # of connection points: 2
#     Edge 132, Type (0, 1), BuildingBlock: CIFDUS_clean_linker_0, # of connection points: 2
#     Edge 133, Type (0, 1), BuildingBlock: CIFDUS_clean_linker_0, # of connection points: 2
#     Edge 134, Type (0, 1), BuildingBlock: CIFDUS_clean_linker_0, # of connection points: 2
#     Edge 135, Type (0, 1), BuildingBlock: CIFDUS_clean_linker_0, # of connection points: 2
# Relax obj value: 0.264
# Max RMSD: 0.344
# Mean RMSD: 0.170
data_MOF--net-gar--node1-NAHDIM_clean_sbu_0--node2-NUHQIS_clean_sbu_0--edge1-CIFDUS_clean_linker_0
_symmetry_space_group_name_H-M    P1
_symmetry_Int_Tables_number       1
_symmetry_cell_setting            triclinic
loop_
_symmetry_equiv_pos_as_xyz
'x, y, z'
_cell_length_a     50.763153
_cell_length_b     52.436507
_cell_length_c     48.848666
_cell_angle_alpha  93.260787
_cell_angle_beta   97.177106
_cell_angle_gamma 100.85925
loop_
_atom_site_label
_atom_site_type_symbol
_atom_site_fract_x
_atom_site_fract_y
_atom_site_fract_z
_atom_type_partial_charge
C0 C 0.168 0.32942 0.40351 0.0
O1 O 0.17092 0.35284 0.41598 0.0
O2 O 0.10741 0.27733 0.45629 0.0
Zn3 Zn 0.11124 0.31253 0.43036 0.0
O4 O 0.11063 0.35206 0.45148 0.0
C5 C 0.04966 0.30039 0.40483 0.0
O6 O 0.04538 0.29021 0.42822 0.0
O7 O 0.14674 0.31228 0.40678 0.0
C8 C 0.125 0.37009 0.4696 0.0
O9 O 0.1482 0.36595 0.48181 0.0
C10 C 0.10551 0.25291 0.44774 0.0
O11 O 0.10547 0.24764 0.42113 0.0
O12 O 0.07439 0.30893 0.40103 0.0
C13 C 1.03628 0.82939 0.70565 0.0
O14 O 0.04551 0.85431 0.70398 0.0
O15 O 0.08111 0.77822 0.64741 0.0
Zn16 Zn 0.08392 0.81823 0.66925 0.0
O17 O 0.0826 0.8555 0.64726 0.0
C18 C 0.13711 0.808 0.70377 0.0
O19 O 0.12405 0.78369 0.7019 0.0
O20 O 0.04888 0.81297 0.69439 0.0
C21 C 0.09707 0.86888 0.63073 0.0
O22 O 0.11661 0.85892 0.62179 0.0
C23 C 0.09063 0.76784 0.62688 0.0
O24 O 0.10486 0.78363 0.61183 0.0
O25 O 0.12438 0.82511 0.69337 0.0
C26 C 0.654 0.80703 0.89239 0.0
O27 O 0.63733 0.78527 0.88243 0.0
O28 O 0.60475 0.78093 0.95664 0.0
Zn29 Zn 0.60773 0.81628 0.93121 0.0
O30 O 0.60494 0.85361 0.95531 0.0
C31 C 0.54719 0.79932 0.9017 0.0
O32 O 0.54411 0.78215 0.92019 0.0
O33 O 0.64609 0.82155 0.91101 0.0
C34 C 0.61922 0.8772 0.95779 0.0
O35 O 0.64154 0.88121 0.94632 0.0
C36 C 0.60129 0.75619 0.94878 0.0
O37 O 0.59883 0.74975 0.92207 0.0
O38 O 0.57104 0.81324 0.90157 0.0
C39 C 0.5321 0.30888 0.19734 0.0
O40 O 0.52766 0.28613 0.18307 0.0
O41 O 0.58219 0.28523 0.14372 0.0
Zn42 Zn 0.58807 0.3238 0.16936 0.0
O43 O 0.59164 0.35991 0.14491 0.0
C44 C 0.65053 0.33075 0.18849 0.0
O45 O 0.65251 0.33839 0.16356 0.0
O46 O 0.55417 0.3253 0.19492 0.0
C47 C 0.5949 0.38432 0.15413 0.0
O48 O 0.59681 0.38935 0.18103 0.0
C49 C 0.58995 0.26422 0.15184 0.0
O50 O 0.60164 0.26525 0.17754 0.0
O51 O 0.62659 0.32488 0.19563 0.0
C52 C 0.1225 0.88341 0.23422 0.0
O53 O 0.1211 0.87565 0.20795 0.0
O54 O 0.17616 0.87673 0.20036 0.0
Zn55 Zn 0.17315 0.90895 0.22309 0.0
O56 O 0.16327 0.93516 0.19797 0.0
C57 C 0.22983 0.92133 0.23571 0.0
O58 O 0.22765 0.92228 0.20871 0.0
O59 O 0.1436 0.89895 0.24613 0.0
C60 C 0.17757 0.95728 0.19563 0.0
O61 O 0.20094 0.96508 0.21145 0.0
C62 C 0.1683 0.87183 0.17454 0.0
O63 O 0.1574 0.88883 0.16059 0.0
O64 O 0.2086 0.91978 0.24729 0.0
C65 C 0.56299 0.77858 0.38258 0.0
O66 O 0.55878 0.79163 0.40485 0.0
O67 O 0.51633 0.71729 0.41223 0.0
Zn68 Zn 0.51115 0.74454 0.38633 0.0
O69 O 0.49936 0.77425 0.40596 0.0
C70 C 0.47123 0.70656 0.34746 0.0
O71 O 0.47084 0.68994 0.3666 0.0
O72 O 0.54601 0.75824 0.37242 0.0
C73 C 0.49916 0.79537 0.39448 0.0
O74 O 0.50437 0.79654 0.36884 0.0
C75 C 0.5382 0.71994 0.42881 0.0
O76 O 0.55706 0.74088 0.42903 0.0
O77 O 0.48535 0.72947 0.35257 0.0
C78 C 0.65179 0.3855 0.74687 0.0
O79 O 0.6667 0.36816 0.74237 0.0
O80 O 0.68168 0.37727 0.68758 0.0
Zn81 Zn 0.6799 0.41199 0.70601 0.0
O82 O 0.66467 0.43417 0.67909 0.0
C83 C 0.73565 0.42966 0.70869 0.0
O84 O 0.72857 0.42925 0.68183 0.0
O85 O 0.65484 0.40617 0.73434 0.0
C86 C 0.66165 0.43027 0.65289 0.0
O87 O 0.67144 0.41152 0.64129 0.0
C88 C 0.66135 0.36198 0.67387 0.0
O89 O 0.63779 0.36916 0.67053 0.0
O90 O 0.71716 0.42743 0.72413 0.0
C91 C 0.07982 0.27588 0.90431 0.0
O92 O 0.07599 0.2941 0.9221 0.0
O93 O 1.02649 0.22868 0.94302 0.0
Zn94 Zn 1.02552 0.25095 0.91153 0.0
O95 O 1.01759 0.2857 0.92301 0.0
C96 C 0.97665 0.2161 0.88356 0.0
O97 O 0.97394 0.20737 0.90794 0.0
O98 O 0.06134 0.25579 0.89728 0.0
C99 C 1.01932 0.30325 0.90604 0.0
O100 O 1.02564 0.29796 0.88135 0.0
C101 C 0.04545 0.23378 0.96326 0.0
O102 O 0.06411 0.25502 0.96417 0.0
O103 O 0.99692 0.23371 0.88098 0.0
C104 C 0.49014 0.1138 0.27876 0.0
O105 O 0.49059 0.09701 0.25789 0.0
O106 O 0.5669 0.10458 0.28454 0.0
Zn107 Zn 0.53455 0.09265 0.30305 0.0
O108 O 0.54875 0.09194 0.34278 0.0
C109 C 0.524 0.03835 0.27804 0.0
O110 O 0.54945 0.04268 0.27379 0.0
O111 O 0.50809 0.11626 0.29983 0.0
C112 C 0.56582 0.07753 0.34856 0.0
O113 O 0.57299 0.0637 0.32852 0.0
C114 C 0.57982 0.12803 0.28688 0.0
O115 O 0.57025 0.14645 0.29936 0.0
O116 O 0.51447 0.05654 0.28905 0.0
C117 C 0.42621 0.17084 0.55875 0.0
O118 O 0.43434 0.19346 0.57325 0.0
O119 O 0.37722 0.21539 0.58472 0.0
Zn120 Zn 0.36935 0.18921 0.54675 0.0
O121 O 0.36569 0.2086 0.50753 0.0
C122 C 0.31225 0.1485 0.53366 0.0
O123 O 0.31946 0.1402 0.51036 0.0
O124 O 0.40129 0.16521 0.54679 0.0
C125 C 0.38054 0.22786 0.49769 0.0
O126 O 0.40289 0.24 0.51322 0.0
C127 C 0.35868 0.21863 0.59974 0.0
O128 O 0.33369 0.2068 0.59061 0.0
O129 O 0.32922 0.16629 0.54957 0.0
C130 C 0.31274 0.05996 0.89844 0.0
O131 O 0.29947 0.05543 0.91965 0.0
O132 O 0.25043 0.08618 0.84385 0.0
Zn133 Zn 0.27265 0.09094 0.88131 0.0
O134 O 0.25056 0.07816 0.9107 0.0
C135 C 0.269 0.14444 0.88653 0.0
O136 O 0.24295 0.13448 0.88346 0.0
O137 O 0.30465 0.07409 0.88018 0.0
C138 C 0.22491 0.07506 0.90715 0.0
O139 O 0.21233 0.07989 0.88344 0.0
C140 C 0.23369 0.06649 0.83173 0.0
O141 O 0.22946 0.04465 0.84387 0.0
O142 O 0.2858 0.12924 0.88813 0.0
C143 C 0.33338 0.95178 0.08343 0.0
O144 O 0.34438 0.94436 0.10667 0.0
O145 O 0.35869 0.88997 0.08452 0.0
Zn146 Zn 0.36483 0.91809 0.05771 0.0
O147 O 0.36101 0.90398 1.01737 0.0
C148 C 0.42374 0.93015 0.07174 0.0
O149 O 0.4215 0.90472 0.06913 0.0
O150 O 0.33874 0.94265 0.06053 0.0
C151 C 0.35239 0.8805 1.0074 0.0
O152 O 0.34511 0.86249 0.0241 0.0
C153 C 0.33509 0.87905 0.08863 0.0
O154 O 0.31396 0.88526 0.07413 0.0
O155 O 0.40247 0.93973 0.06807 0.0
C156 C 0.28506 0.48808 0.04815 0.0
O157 O 0.30395 0.50471 0.03883 0.0
O158 O 0.33456 0.42928 0.09374 0.0
Zn159 Zn 0.32832 0.44904 0.05511 0.0
O160 O 0.32399 0.42382 1.01686 0.0
C161 C 0.38932 0.47366 0.06207 0.0
O162 O 0.39108 0.45308 0.07581 0.0
O163 O 0.29099 0.46617 0.05537 0.0
C164 C 0.34351 0.41666 1.00573 0.0
O165 O 0.36807 0.42333 0.01941 0.0
C166 C 0.31831 0.41248 0.10536 0.0
O167 O 0.29358 0.40417 0.09251 0.0
O168 O 0.36542 0.47704 0.05262 0.0
C169 C 0.84303 0.16953 1.00612 0.0
O170 O 0.82447 0.17029 0.98504 0.0
O171 O 0.82694 0.23195 0.06509 0.0
Zn172 Zn 0.822 0.21245 0.02694 0.0
O173 O 0.82931 0.23529 0.99526 0.0
C174 C 0.76505 0.20408 0.02748 0.0
O175 O 0.7715 0.22846 0.03788 0.0
O176 O 0.84592 0.18599 0.02696 0.0
C177 C 0.81322 0.23061 0.97255 0.0
O178 O 0.79135 0.21236 0.97086 0.0
C179 C 0.84688 0.23305 0.08402 0.0
O180 O 0.86772 0.22313 0.07849 0.0
O181 O 0.78355 0.1928 0.02057 0.0
C182 C 0.1734 0.43219 0.25846 0.0
O183 O 0.15019 0.41909 0.26392 0.0
O184 O 0.12148 0.42091 0.19138 0.0
Zn185 Zn 0.13944 0.45286 0.21721 0.0
O186 O 0.11588 0.46037 0.24548 0.0
C187 C 0.13455 0.5031 0.19736 0.0
O188 O 0.10983 0.49673 0.20354 0.0
O189 O 0.17366 0.44674 0.23855 0.0
C190 C 0.12736 0.48017 0.26179 0.0
O191 O 0.15206 0.49178 0.25896 0.0
C192 C 0.11227 0.42086 0.16597 0.0
O193 O 0.09996 0.39886 0.15192 0.0
O194 O 0.14992 0.48653 0.19934 0.0
C195 C 0.76981 0.96442 0.55584 0.0
O196 O 0.76078 0.93951 0.55784 0.0
O197 O 0.82823 0.9297 0.59712 0.0
Zn198 Zn 0.82841 0.94886 0.55796 0.0
O199 O 0.82808 0.92327 0.52072 0.0
C200 C 0.8839 0.97728 0.54288 0.0
O201 O 0.87414 0.96624 0.51795 0.0
O202 O 0.79554 0.97197 0.55498 0.0
C203 C 0.81373 0.92064 0.49658 0.0
O204 O 0.79386 0.93345 0.49288 0.0
C205 C 0.82534 0.90576 0.60326 0.0
O206 O 0.82101 0.88744 0.58281 0.0
O207 O 0.86852 0.97381 0.56205 0.0
C208 C 0.88321 0.09092 0.19225 0.0
O209 O 0.90445 0.09798 0.17956 0.0
O210 O 0.94683 0.06845 0.19926 0.0
Zn211 Zn 0.91468 0.05552 0.21864 0.0
O212 O 0.92693 0.0636 0.25923 0.0
C213 C 0.92118 1.00209 0.21652 0.0
O214 O 0.94702 1.01287 0.22018 0.0
O215 O 0.88311 0.07284 0.2085 0.0
C216 C 0.91835 0.04827 0.27679 0.0
O217 O 0.89845 0.02835 0.2686 0.0
C218 C 0.97069 0.07111 0.21226 0.0
O219 O 0.97401 0.06573 0.23824 0.0
O220 O 0.90368 1.01651 0.21289 0.0
C221 C 0.38032 0.68152 0.51317 0.0
O222 O 0.38569 0.70205 0.49911 0.0
O223 O 0.34388 0.72598 0.57114 0.0
Zn224 Zn 0.33929 0.70788 0.53218 0.0
O225 O 0.34195 0.7307 0.4995 0.0
C226 C 0.2912 0.66527 0.51965 0.0
O227 O 0.30688 0.65095 0.50949 0.0
O228 O 0.36255 0.6806 0.52949 0.0
C229 C 0.33197 0.71811 0.47624 0.0
O230 O 0.32177 0.69314 0.47593 0.0
C231 C 0.36316 0.73926 0.58834 0.0
O232 O 0.38751 0.74534 0.58114 0.0
O233 O 0.30084 0.68875 0.52886 0.0
C234 C 0.39781 0.57197 0.68828 0.0
O235 O 0.41367 0.57525 0.66895 0.0
O236 O 0.46003 0.5535 0.68438 0.0
Zn237 Zn 0.43556 0.54152 0.71193 0.0
O238 O 0.45585 0.55047 0.75004 0.0
C239 C 0.44222 0.49002 0.71651 0.0
O240 O 0.46754 0.50238 0.72238 0.0
O241 O 0.4032 0.55813 0.70796 0.0
C242 C 0.44411 0.5447 0.77097 0.0
O243 O 0.41801 0.53489 0.76734 0.0
C244 C 0.48134 0.57092 0.69094 0.0
O245 O 0.48796 0.58111 0.71664 0.0
O246 O 0.42413 0.50287 0.70881 0.0
C247 C 0.66192 0.96432 0.81222 0.0
O248 O 0.63773 0.95106 0.8145 0.0
O249 O 0.62521 0.94542 0.73921 0.0
Zn250 Zn 0.63565 0.98047 0.7613 0.0
O251 O 0.60416 0.98934 0.77786 0.0
C252 C 0.63865 0.02797 0.7326 0.0
O253 O 0.61293 0.02534 0.73552 0.0
O254 O 0.66508 0.97799 0.7918 0.0
C255 C 0.58438 0.97288 0.78382 0.0
O256 O 0.58351 0.94786 0.77857 0.0
C257 C 0.61972 0.94198 0.71306 0.0
O258 O 0.61309 0.91823 0.70095 0.0
O259 O 0.65149 1.01049 0.7405 0.0
C260 C 0.92798 0.67459 0.06118 0.0
O261 O 0.93476 0.69578 0.07823 0.0
O262 O 0.87315 0.71446 0.08811 0.0
Zn263 Zn 0.86938 0.69087 0.0487 0.0
O264 O 0.86613 0.71195 1.01096 0.0
C265 C 0.81425 0.65989 0.0635 0.0
O266 O 0.82334 0.67033 0.0888 0.0
O267 O 0.90346 0.66918 0.04805 0.0
C268 C 0.88025 0.73172 1.00128 0.0
O269 O 0.90245 0.74437 1.01667 0.0
C270 C 0.85637 0.72813 0.09603 0.0
O271 O 0.8353 0.72986 0.07817 0.0
O272 O 0.82989 0.66463 0.04474 0.0
C273 C 1.00538 0.6562 0.79638 0.0
O274 O 1.02892 0.67088 0.80644 0.0
O275 O 0.05424 0.62411 0.83304 0.0
Zn276 Zn 1.01855 0.62892 0.84327 0.0
O277 O 1.02169 0.66167 0.86897 0.0
C278 C 1.01327 0.57758 0.86313 0.0
O279 O 1.03983 0.58404 0.86713 0.0
O280 O 0.99671 0.636 0.80833 0.0
C281 C 1.03448 0.66985 0.89287 0.0
O282 O 1.03448 0.69373 0.9026 0.0
C283 C 0.07623 0.64038 0.83332 0.0
O284 O 0.07808 0.66473 0.8427 0.0
O285 O 0.99952 0.59423 0.85455 0.0
C286 C 0.8123 0.43106 0.56595 0.0
O287 O 0.80976 0.40817 0.57604 0.0
O288 O 0.86172 0.39417 0.58065 0.0
Zn289 Zn 0.8606 0.41696 0.54877 0.0
O290 O 0.85371 0.39533 0.51185 0.0
C291 C 0.91783 0.43618 0.56569 0.0
O292 O 0.9163 0.41335 0.57582 0.0
O293 O 0.83191 0.4385 0.55254 0.0
C294 C 0.85229 0.40587 0.48902 0.0
O295 O 0.85484 0.4313 0.4895 0.0
C296 C 0.85583 0.36943 0.57864 0.0
O297 O 0.84796 0.35679 0.5541 0.0
O298 O 0.89668 0.44179 0.55259 0.0
C299 C 0.802 0.56337 0.32732 0.0
O300 O 0.78976 0.57688 0.30975 0.0
O301 O 0.73745 0.57518 0.3289 0.0
Zn302 Zn 0.7678 0.58242 0.36077 0.0
O303 O 0.75096 0.56968 0.39328 0.0
C304 C 0.76838 0.63728 0.36259 0.0
O305 O 0.74202 0.62903 0.35846 0.0
O306 O 0.79616 0.56286 0.35185 0.0
C307 C 0.75823 0.57456 0.41911 0.0
O308 O 0.78174 0.5897 0.42836 0.0
C309 C 0.71298 0.57428 0.3328 0.0
O310 O 0.70739 0.57864 0.35797 0.0
O311 O 0.7837 0.62078 0.36551 0.0
Tb312 Tb 0.07062 0.06157 0.04469 0.0
Eu313 Eu 0.12956 0.08912 0.08172 0.0
C314 C 0.12371 0.06669 0.01769 0.0
C315 C 0.10766 0.03049 0.07802 0.0
C316 C 1.00032 0.05739 0.01969 0.0
C317 C 0.95233 0.05809 1.01012 0.0
C318 C 0.9738 0.04479 1.00915 0.0
C319 C 1.00514 0.08334 0.0308 0.0
C320 C 0.98392 0.09649 0.03196 0.0
C321 C 0.95724 0.08396 0.02197 0.0
C322 C 1.02317 0.04378 0.02099 0.0
O323 O 0.06279 0.08829 0.07638 0.0
O324 O 0.09706 0.08494 0.10993 0.0
O325 O 0.11255 0.12368 0.06905 0.0
O326 O 0.08029 0.10165 0.03344 0.0
C327 C 0.07275 0.08954 0.10245 0.0
O328 O 0.15627 0.08678 0.11969 0.0
O329 O 0.17052 0.11273 0.08935 0.0
O330 O 0.13606 0.08485 0.03721 0.0
O331 O 0.09995 0.05196 0.0191 0.0
O332 O 0.08289 0.03469 0.07424 0.0
O333 O 0.12675 0.04716 0.06984 0.0
C334 C 0.0945 0.12336 0.04716 0.0
O335 O 1.04299 0.05406 1.00795 0.0
O336 O 1.03214 0.03867 0.04585 0.0
C337 C 0.19997 0.08697 0.10949 0.0
C338 C 0.23836 0.05435 0.10889 0.0
C339 C 0.23929 0.07224 0.13185 0.0
C340 C 0.22015 0.08832 0.13218 0.0
C341 C 0.19945 0.06973 0.08631 0.0
C342 C 0.21834 0.05358 0.08601 0.0
C343 C 0.17731 0.10062 0.11103 0.0
H344 H 0.9319 0.04802 1.00226 0.0
H345 H 0.96969 0.0247 1.00061 0.0
H346 H 1.0254 0.09339 0.039 0.0
H347 H 0.98842 0.11654 0.04071 0.0
H348 H 0.25458 0.07358 0.14971 0.0
H349 H 0.22066 0.10127 0.15041 0.0
H350 H 0.1836 0.06789 0.06889 0.0
H351 H 0.21649 0.03973 0.06823 0.0
Tb352 Tb 0.36167 0.79169 0.28227 0.0
Eu353 Eu 0.30175 0.75626 0.25522 0.0
C354 C 0.30998 0.81567 0.27914 0.0
C355 C 0.32536 0.75658 0.31951 0.0
C356 C 0.42452 0.84246 0.2938 0.0
C357 C 0.43039 0.87999 0.26669 0.0
C358 C 0.41458 0.85672 0.27279 0.0
C359 C 0.45057 0.85133 0.30823 0.0
C360 C 0.46643 0.87454 0.3021 0.0
C361 C 0.4564 0.88926 0.28146 0.0
C362 C 0.4078 0.81851 0.30101 0.0
O363 O 0.36524 0.75137 0.2824 0.0
O364 O 0.33219 0.73162 0.24702 0.0
O365 O 0.31391 0.78652 0.22579 0.0
O366 O 0.35978 0.79234 0.2375 0.0
C367 C 0.35463 0.73208 0.26366 0.0
O368 O 0.27481 0.7375 0.21839 0.0
O369 O 0.26028 0.7369 0.25824 0.0
O370 O 0.29482 0.7923 0.2783 0.0
O371 O 0.33527 0.81919 0.2746 0.0
O372 O 0.34185 0.77886 0.31771 0.0
O373 O 0.31159 0.74237 0.2974 0.0
C374 C 0.33855 0.79486 0.22029 0.0
O375 O 0.38553 0.8212 0.31055 0.0
O376 O 0.40381 0.79859 0.28273 0.0
C377 C 0.24297 0.70068 0.22558 0.0
C378 C 0.22037 0.64749 0.21084 0.0
C379 C 0.24382 0.65502 0.2305 0.0
C380 C 0.25509 0.68137 0.23768 0.0
C381 C 0.21961 0.69335 0.20614 0.0
C382 C 0.20843 0.66704 0.19875 0.0
C383 C 0.2551 0.72843 0.23209 0.0
H384 H 0.42223 0.89079 0.25053 0.0
H385 H 0.39452 0.84998 0.26133 0.0
H386 H 0.45849 0.84049 0.3245 0.0
H387 H 0.48622 0.88134 0.31407 0.0
H388 H 0.2533 0.64058 0.24065 0.0
H389 H 0.27325 0.68668 0.25267 0.0
H390 H 0.21007 0.70799 0.19653 0.0
H391 H 0.19059 0.66204 0.18337 0.0
Tb392 Tb 0.57595 0.04257 0.55174 0.0
Eu393 Eu 0.62132 0.09379 0.57467 0.0
C394 C 0.598 0.05167 0.6129 0.0
C395 C 0.5562 0.09616 0.56567 0.0
C396 C 0.53612 0.97924 0.51559 0.0
C397 C 0.50675 0.93927 0.49443 0.0
C398 C 0.51168 0.96119 0.51329 0.0
C399 C 0.55573 0.97523 0.49886 0.0
C400 C 0.55082 0.95326 0.47992 0.0
C401 C 0.52624 0.93504 0.47751 0.0
C402 C 0.54014 1.00256 0.53478 0.0
O403 O 0.59615 0.0553 0.51708 0.0
O404 O 0.60529 0.09859 0.53072 0.0
O405 O 0.64735 0.06503 0.56135 0.0
O406 O 0.61457 0.02747 0.5563 0.0
C407 C 0.60075 0.0796 0.51113 0.0
O408 O 0.65359 0.12642 0.56926 0.0
O409 O 0.64081 0.12101 0.60972 0.0
O410 O 0.62065 0.06432 0.60618 0.0
O411 O 0.57565 0.04977 0.59583 0.0
O412 O 0.55167 0.0738 0.55028 0.0
O413 O 0.58042 0.10507 0.58016 0.0
C414 C 0.64046 0.03929 0.55782 0.0
O415 O 0.55786 1.00395 0.55687 0.0
O416 O 0.54218 0.02464 0.52346 0.0
C417 C 0.65371 0.16399 0.59826 0.0
C418 C 0.65122 0.21685 0.60855 0.0
C419 C 0.62753 0.19744 0.60546 0.0
C420 C 0.62876 0.17129 0.60021 0.0
C421 C 0.67729 0.18321 0.60062 0.0
C422 C 0.67606 0.20945 0.60562 0.0
C423 C 0.65529 0.13638 0.5947 0.0
H424 H 0.48751 0.92582 0.49282 0.0
H425 H 0.49626 0.96418 0.52593 0.0
H426 H 0.5747 0.9891 0.50039 0.0
H427 H 0.56634 0.95038 0.4674 0.0
H428 H 0.60811 0.2023 0.60794 0.0
H429 H 0.61031 0.15669 0.59833 0.0
H430 H 0.69668 0.17789 0.59898 0.0
H431 H 0.69462 0.2239 0.60737 0.0
Tb432 Tb 0.32551 0.32054 0.79596 0.0
Eu433 Eu 0.38802 0.31427 0.81267 0.0
C434 C 0.37383 0.36057 0.77729 0.0
C435 C 0.35628 0.29251 0.75186 0.0
C436 C 0.25402 0.32163 0.79983 0.0
C437 C 0.21234 0.33443 0.80922 0.0
C438 C 0.23388 0.33621 0.79373 0.0
C439 C 0.25271 0.3056 0.82188 0.0
C440 C 0.23108 0.30357 0.83711 0.0
C441 C 0.21065 0.31784 0.83081 0.0
C442 C 0.27661 0.32355 0.78359 0.0
O443 O 0.32389 0.29225 0.82686 0.0
O444 O 0.36133 0.27665 0.81858 0.0
O445 O 0.37432 0.32878 0.85267 0.0
O446 O 0.33679 0.34453 0.83604 0.0
C447 C 0.33872 0.2744 0.82916 0.0
O448 O 0.41932 0.29086 0.81294 0.0
O449 O 0.42747 0.32801 0.8373 0.0
O450 O 0.39177 0.35298 0.79502 0.0
O451 O 0.34844 0.3484 0.77233 0.0
O452 O 0.33383 0.29369 0.76275 0.0
O453 O 0.38015 0.30297 0.76596 0.0
C454 C 0.35551 0.34241 0.85667 0.0
O455 O 0.29608 0.34382 0.79041 0.0
O456 O 0.28587 0.30222 0.77984 0.0
C457 C 0.46418 0.31431 0.82034 0.0
C458 C 0.51644 0.32701 0.80553 0.0
C459 C 0.51099 0.30932 0.8256 0.0
C460 C 0.485 0.30306 0.83299 0.0
C461 C 0.46936 0.33168 0.80002 0.0
C462 C 0.49534 0.33802 0.79269 0.0
C463 C 0.43732 0.30816 0.82895 0.0
H464 H 0.19671 0.34551 0.80396 0.0
H465 H 0.23476 0.34885 0.77693 0.0
H466 H 0.26832 0.29452 0.82724 0.0
H467 H 0.23033 0.29089 0.85387 0.0
H468 H 0.5269 0.30069 0.83592 0.0
H469 H 0.4812 0.28962 0.84875 0.0
H470 H 0.45337 0.34041 0.78999 0.0
H471 H 0.4989 0.3514 0.77683 0.0
Tb472 Tb 0.097 0.04771 0.51272 0.0
Eu473 Eu 0.10076 0.0766 0.5727 0.0
C474 C 0.15516 0.07758 0.54125 0.0
C475 C 0.10261 1.0133 0.56633 0.0
C476 C 0.06573 1.02175 0.44263 0.0
C477 C 0.04748 0.03255 0.39744 0.0
C478 C 0.06962 0.03243 0.41744 0.0
C479 C 1.03937 1.0103 0.44708 0.0
C480 C 1.01726 1.0103 0.42702 0.0
C481 C 1.02108 1.02186 0.40225 0.0
C482 C 0.08882 0.02457 0.46484 0.0
O483 O 0.05434 0.04718 0.51768 0.0
O484 O 0.05681 0.05408 0.56448 0.0
O485 O 0.09391 0.1097 0.54442 0.0
O486 O 0.0986 0.08904 0.50324 0.0
C487 C 1.04244 0.04592 0.5402 0.0
O488 O 0.08363 0.09463 0.60618 0.0
O489 O 0.12644 0.09371 0.61047 0.0
O490 O 0.14328 0.08877 0.55982 0.0
O491 O 0.14109 0.05807 0.52411 0.0
O492 O 0.10235 1.01561 0.53945 0.0
O493 O 0.10267 0.03409 0.58311 0.0
C494 C 0.09627 0.11052 0.51773 0.0
O495 O 0.10305 0.04804 0.47086 0.0
O496 O 0.08405 1.01303 0.48708 0.0
C497 C 0.10651 0.09054 0.65069 0.0
C498 C 0.12372 0.07635 0.70347 0.0
C499 C 0.12145 0.10226 0.69952 0.0
C500 C 0.11301 0.10932 0.67324 0.0
C501 C 0.10582 0.0642 0.65509 0.0
C502 C 0.11437 0.05712 0.6814 0.0
C503 C 0.10656 0.09914 0.62271 0.0
H504 H 0.05097 0.04122 0.37828 0.0
H505 H 0.08973 0.0413 0.41354 0.0
H506 H 1.03565 1.00194 0.46634 0.0
H507 H 0.99711 1.00205 0.43128 0.0
H508 H 0.12816 0.11738 0.71634 0.0
H509 H 0.11369 0.12972 0.67015 0.0
H510 H 0.10092 0.04946 0.6378 0.0
H511 H 0.11596 0.03704 0.68385 0.0
Tb512 Tb 0.33355 0.77719 0.80088 0.0
Eu513 Eu 0.35592 0.837 0.79091 0.0
C514 C 0.33975 0.82072 0.8504 0.0
C515 C 0.29256 0.81069 0.77663 0.0
C516 C 0.31053 0.70574 0.78773 0.0
C517 C 0.31585 0.66082 0.784 0.0
C518 C 0.31502 0.68332 0.80024 0.0
C519 C 0.30544 0.70506 0.75873 0.0
C520 C 0.30598 0.68247 0.74246 0.0
C521 C 0.31203 0.66035 0.7549 0.0
C522 C 0.31296 0.73004 0.8051 0.0
O523 O 0.33811 0.7762 0.75675 0.0
O524 O 0.3685 0.81438 0.75622 0.0
O525 O 0.39114 0.82539 0.8184 0.0
O526 O 0.37803 0.7811 0.80955 0.0
C527 C 0.35593 0.79152 0.74457 0.0
O528 O 0.34707 0.87492 0.78189 0.0
O529 O 0.38854 0.86948 0.78629 0.0
O530 O 0.34247 0.83902 0.8331 0.0
O531 O 0.33861 0.79611 0.84248 0.0
O532 O 0.29863 0.7965 0.79696 0.0
O533 O 0.31267 0.82536 0.76673 0.0
C534 C 0.39658 0.80181 0.81989 0.0
O535 O 0.33742 0.74112 0.81606 0.0
O536 O 0.29946 0.74689 0.79499 0.0
C537 C 0.37987 0.90907 0.80466 0.0
C538 C 0.38142 0.95051 0.84432 0.0
C539 C 0.37671 0.9538 0.8158 0.0
C540 C 0.37597 0.93323 0.79616 0.0
C541 C 0.38647 0.90612 0.83293 0.0
C542 C 0.38742 0.92676 0.85263 0.0
C543 C 0.37252 0.88621 0.78464 0.0
H544 H 0.32105 0.64435 0.79432 0.0
H545 H 0.31901 0.68355 0.82258 0.0
H546 H 0.30191 0.7222 0.7486 0.0
H547 H 0.30263 0.68265 0.72014 0.0
H548 H 0.3715 0.97158 0.80853 0.0
H549 H 0.37055 0.93569 0.77443 0.0
H550 H 0.38932 0.88743 0.83986 0.0
H551 H 0.3914 0.92366 0.87437 0.0
Tb552 Tb 0.61483 0.06331 0.0785 0.0
Eu553 Eu 0.5737 0.0725 0.02686 0.0
C554 C 0.60175 1.02038 0.02652 0.0
C555 C 0.6347 0.09668 0.03217 0.0
C556 C 0.66498 0.07695 0.14084 0.0
C557 C 0.66623 0.11626 0.16968 0.0
C558 C 0.65853 0.10159 0.14433 0.0
C559 C 0.68323 0.06916 0.16099 0.0
C560 C 0.69181 0.08432 0.18615 0.0
C561 C 0.68085 0.10656 0.19195 0.0
C562 C 0.64945 0.05829 0.1185 0.0
O563 O 0.59983 0.09801 0.09439 0.0
O564 O 0.58125 0.1118 0.05396 0.0
O565 O 0.55068 0.06317 0.06236 0.0
O566 O 0.57686 0.03554 0.07861 0.0
C567 C 0.59016 0.11637 0.08084 0.0
O568 O 0.56043 0.09602 0.99455 0.0
O569 O 0.53552 0.05867 0.99962 0.0
O570 O 0.58009 0.03001 0.01782 0.0
O571 O 0.62004 0.03371 0.04644 0.0
O572 O 0.6336 0.09655 0.05872 0.0
O573 O 0.61543 0.08232 1.01453 0.0
C574 C 0.55329 0.04256 0.07536 0.0
O575 O 0.62333 0.05338 0.11911 0.0
O576 O 0.65524 0.0624 0.09368 0.0
C577 C 0.53644 0.07107 0.95396 0.0
C578 C 0.53338 0.05336 0.89788 0.0
C579 C 0.51315 0.04283 0.91352 0.0
C580 C 0.51461 0.0517 0.94131 0.0
C581 C 0.55589 0.08251 0.9379 0.0
C582 C 0.55435 0.07375 0.91018 0.0
C583 C 0.53955 0.07807 0.98404 0.0
H584 H 0.65773 0.1335 0.17231 0.0
H585 H 0.64528 0.10834 0.12845 0.0
H586 H 0.68921 0.05052 0.15815 0.0
H587 H 0.70472 0.07704 0.20193 0.0
H588 H 0.49665 0.02723 0.9045 0.0
H589 H 0.4992 0.04279 0.95319 0.0
H590 H 0.57292 0.09756 0.94693 0.0
H591 H 0.5705 0.08202 0.89884 0.0
Tb592 Tb 0.36574 0.34611 0.31416 0.0
Eu593 Eu 0.33355 0.29063 0.28628 0.0
C594 C 0.36527 0.29606 0.34998 0.0
C595 C 0.39935 0.31326 0.27952 0.0
C596 C 0.36742 0.41263 0.33865 0.0
C597 C 0.32782 0.42562 0.3541 0.0
C598 C 0.34947 0.41269 0.35838 0.0
C599 C 0.36569 0.42897 0.31693 0.0
C600 C 0.34398 0.44176 0.31256 0.0
C601 C 0.32381 0.43869 0.33006 0.0
C602 C 0.38312 0.39162 0.33693 0.0
O603 O 0.35356 0.35458 0.27073 0.0
O604 O 0.32032 0.31893 0.25587 0.0
O605 O 0.29948 0.30289 0.30683 0.0
O606 O 0.32327 0.34337 0.32433 0.0
C607 C 0.33404 0.34203 0.25157 0.0
O608 O 0.32318 0.26381 0.24887 0.0
O609 O 0.31176 0.25067 0.28743 0.0
O610 O 0.34668 0.2822 0.33092 0.0
O611 O 0.37801 0.31947 0.34503 0.0
O612 O 0.40005 0.33444 0.29581 0.0
O613 O 0.37698 0.29503 0.27487 0.0
C614 C 0.30083 0.32499 0.32163 0.0
O615 O 0.37556 0.37149 0.35051 0.0
O616 O 0.38709 0.38429 0.31214 0.0
C617 C 0.33232 0.2238 0.26105 0.0
C618 C 0.36709 0.18813 0.25828 0.0
C619 C 0.34088 0.18244 0.24312 0.0
C620 C 0.32354 0.20029 0.24445 0.0
C621 C 0.35838 0.2294 0.27603 0.0
C622 C 0.37565 0.21198 0.27444 0.0
C623 C 0.31568 0.24368 0.2625 0.0
H624 H 0.31302 0.42356 0.3684 0.0
H625 H 0.35058 0.4008 0.37575 0.0
H626 H 0.37952 0.42977 0.30166 0.0
H627 H 0.34165 0.45182 0.29391 0.0
H628 H 0.33375 0.1642 0.2305 0.0
H629 H 0.3035 0.19581 0.23261 0.0
H630 H 0.36555 0.24748 0.28892 0.0
H631 H 0.39591 0.21742 0.28573 0.0
Tb632 Tb 0.59883 0.55682 0.02824 0.0
Eu633 Eu 0.59814 0.58954 0.08554 0.0
C634 C 0.6554 0.5903 0.06118 0.0
C635 C 0.60377 0.52684 0.08492 0.0
C636 C 0.58102 0.53513 0.95482 0.0
C637 C 0.57103 0.52523 0.90512 0.0
C638 C 0.58598 0.52257 0.93048 0.0
C639 C 0.5611 0.55044 0.95366 0.0
C640 C 0.54611 0.55303 0.92841 0.0
C641 C 0.5509 0.54044 0.90389 0.0
C642 C 0.59695 0.53297 0.98139 0.0
O643 O 0.55478 0.5532 0.03156 0.0
O644 O 0.55863 0.56023 0.07835 0.0
O645 O 0.59281 0.62011 0.05397 0.0
O646 O 0.59497 0.59586 1.01411 0.0
C647 C 0.54389 0.55088 0.05473 0.0
O648 O 0.57514 0.60839 0.11282 0.0
O649 O 0.61795 0.60947 0.12493 0.0
O650 O 0.64169 0.60074 0.07834 0.0
O651 O 0.64307 0.57105 0.04251 0.0
O652 O 0.60167 0.52579 0.05753 0.0
O653 O 0.6051 0.54948 0.09927 0.0
C654 C 0.59357 0.61846 0.02698 0.0
O655 O 0.61495 0.55362 0.99091 0.0
O656 O 0.58303 0.52382 1.00051 0.0
C657 C 0.59091 0.60568 0.15993 0.0
C658 C 0.59923 0.58956 0.21346 0.0
C659 C 0.60019 0.61605 0.20953 0.0
C660 C 0.59622 0.62408 0.18282 0.0
C661 C 0.58679 0.57902 0.16397 0.0
C662 C 0.59099 0.57099 0.19063 0.0
C663 C 0.59556 0.61423 0.13268 0.0
H664 H 0.57496 0.51514 0.88655 0.0
H665 H 0.60139 0.51077 0.93109 0.0
H666 H 0.55723 0.56047 0.9723 0.0
H667 H 0.531 0.56514 0.92803 0.0
H668 H 0.60675 0.63075 0.22677 0.0
H669 H 0.5996 0.64473 0.17997 0.0
H670 H 0.58271 0.56457 0.14643 0.0
H671 H 0.59009 0.55046 0.1932 0.0
Tb672 Tb 0.83707 0.28877 0.29818 0.0
Eu673 Eu 0.86984 0.34133 0.2768 0.0
C674 C 0.84596 0.34168 0.33503 0.0
C675 C 0.8031 0.32339 0.26224 0.0
C676 C 0.79984 0.22123 0.29078 0.0
C677 C 0.79553 0.17457 0.28238 0.0
C678 C 0.79917 0.19669 0.30081 0.0
C679 C 0.79382 0.22311 0.26221 0.0
C680 C 0.79013 0.20098 0.24372 0.0
C681 C 0.79269 0.17675 0.25359 0.0
C682 C 0.81335 0.24442 0.30896 0.0
O683 O 0.83957 0.28201 0.254 0.0
O684 O 0.88066 0.30753 0.25365 0.0
O685 O 0.90349 0.32908 0.3051 0.0
O686 O 0.87982 0.29016 0.31649 0.0
C687 C 0.86162 0.28817 0.2425 0.0
O688 O 0.87873 0.36418 0.24192 0.0
O689 O 0.89775 0.3788 0.28353 0.0
O690 O 0.85094 0.35433 0.31318 0.0
O691 O 0.84334 0.31623 0.33455 0.0
O692 O 0.80343 0.30767 0.28238 0.0
O693 O 0.82614 0.33527 0.25462 0.0
C694 C 0.9027 0.3076 0.3179 0.0
O695 O 0.83916 0.25077 0.30763 0.0
O696 O 0.80199 0.26472 0.30835 0.0
C697 C 0.88617 0.40964 0.25394 0.0
C698 C 0.87033 0.45809 0.25701 0.0
C699 C 0.89715 0.45624 0.26633 0.0
C700 C 0.90504 0.43217 0.26467 0.0
C701 C 0.85978 0.41173 0.24305 0.0
C702 C 0.85199 0.43586 0.24439 0.0
C703 C 0.89325 0.38407 0.25779 0.0
H704 H 0.79782 0.15632 0.29079 0.0
H705 H 0.80404 0.19492 0.32278 0.0
H706 H 0.79434 0.24196 0.25407 0.0
H707 H 0.78753 0.20324 0.2217 0.0
H708 H 0.91161 0.47317 0.27611 0.0
H709 H 0.92546 0.4309 0.27323 0.0
H710 H 0.84475 0.39459 0.2349 0.0
H711 H 0.8311 0.43677 0.23739 0.0
Tb712 Tb 0.11116 0.56306 0.57698 0.0
Eu713 Eu 0.08184 0.56895 0.51632 0.0
C714 C 0.1058 0.51634 0.52875 0.0
C715 C 0.14474 0.58372 0.53016 0.0
C716 C 0.13287 0.56365 0.6535 0.0
C717 C 0.15239 0.58471 0.69905 0.0
C718 C 0.15476 0.57881 0.67132 0.0
C719 C 0.10869 0.55405 0.66389 0.0
C720 C 0.10642 0.55972 0.69163 0.0
C721 C 0.12817 0.57523 0.70943 0.0
C722 C 0.13573 0.55825 0.62425 0.0
O723 O 0.094 0.59886 0.5845 0.0
O724 O 0.0914 0.60983 0.53981 0.0
O725 O 0.04892 0.56341 0.54305 0.0
O726 O 0.06983 0.5413 0.57512 0.0
C727 C 0.09198 0.61666 0.56648 0.0
O728 O 0.07629 0.59316 0.48222 0.0
O729 O 0.05157 0.55442 0.48022 0.0
O730 O 0.08642 0.52582 0.51454 0.0
O731 O 0.12078 0.53065 0.55059 0.0
O732 O 0.14056 0.58712 0.55588 0.0
O733 O 0.12547 0.57138 0.5112 0.0
C734 C 0.04772 0.54702 0.56221 0.0
O735 O 0.11766 0.53987 0.60985 0.0
O736 O 0.14141 0.57848 0.61032 0.0
C737 C 0.06686 0.56863 0.43921 0.0
C738 C 0.0814 0.5545 0.38767 0.0
C739 C 0.05396 0.55173 0.39114 0.0
C740 C 0.04673 0.55887 0.41679 0.0
C741 C 0.09425 0.57139 0.43572 0.0
C742 C 0.10143 0.56452 0.41016 0.0
C743 C 0.05946 0.57454 0.46661 0.0
H744 H 0.16942 0.59669 0.71236 0.0
H745 H 0.17362 0.58631 0.66369 0.0
H746 H 0.09143 0.54242 0.65058 0.0
H747 H 0.08733 0.55257 0.69898 0.0
H748 H 1.03817 0.54401 0.37407 0.0
H749 H 1.02551 0.55642 0.41924 0.0
H750 H 0.11015 0.57846 0.45287 0.0
H751 H 0.12273 0.56636 0.40821 0.0
Tb752 Tb 0.80472 0.82879 0.28286 0.0
Eu753 Eu 0.86446 0.82178 0.3085 0.0
C754 C 0.85487 0.87054 0.27567 0.0
C755 C 0.84087 0.80297 0.24391 0.0
C756 C 0.731 0.82461 0.26997 0.0
C757 C 0.68975 0.83433 0.28446 0.0
C758 C 0.71423 0.84242 0.27435 0.0
C759 C 0.72255 0.79838 0.27488 0.0
C760 C 0.69799 0.79026 0.28472 0.0
C761 C 0.68165 0.80826 0.29008 0.0
C762 C 0.75808 0.83405 0.26257 0.0
O763 O 0.79793 0.78939 0.29534 0.0
O764 O 0.83592 0.79156 0.32683 0.0
O765 O 0.85063 0.84661 0.34235 0.0
O766 O 0.8049 0.8365 0.32785 0.0
C767 C 0.81147 0.77997 0.31567 0.0
O768 O 0.89378 0.79723 0.31901 0.0
O769 O 0.90484 0.83897 0.3295 0.0
O770 O 0.87056 0.85347 0.27911 0.0
O771 O 0.83088 0.86636 0.2835 0.0
O772 O 0.82386 0.81892 0.2465 0.0
O773 O 0.85625 0.79806 0.26607 0.0
C774 C 0.82557 0.84693 0.34696 0.0
O775 O 0.7742 0.85096 0.28067 0.0
O776 O 0.77042 0.81647 0.25315 0.0
C777 C 0.938 0.81801 0.31516 0.0
C778 C 0.98579 0.82422 0.29086 0.0
C779 C 0.9867 0.82243 0.31958 0.0
C780 C 0.96289 0.81935 0.33166 0.0
C781 C 0.93689 0.81912 0.28645 0.0
C782 C 0.96061 0.82216 0.27437 0.0
C783 C 0.91334 0.81701 0.32788 0.0
H784 H 0.67735 0.8485 0.2883 0.0
H785 H 0.72047 0.86274 0.27075 0.0
H786 H 0.73522 0.78427 0.27192 0.0
H787 H 0.69231 0.77011 0.2892 0.0
H788 H 1.00584 0.82377 0.33271 0.0
H789 H 0.96397 0.81856 0.35388 0.0
H790 H 0.91774 0.8183 0.2735 0.0
H791 H 0.95931 0.82389 0.25227 0.0
Tb792 Tb 0.87294 0.31526 0.79314 0.0
Eu793 Eu 0.82144 0.27431 0.75576 0.0
C794 C 0.81977 0.33396 0.77202 0.0
C795 C 0.83155 0.27729 0.82191 0.0
C796 C 0.9203 0.3747 0.82749 0.0
C797 C 0.9092 0.41767 0.83264 0.0
C798 C 0.90099 0.39068 0.82721 0.0
C799 C 0.94788 0.38606 0.83313 0.0
C800 C 0.95613 0.41307 0.8383 0.0
C801 C 0.9369 0.42926 0.83813 0.0
C802 C 0.91203 0.34623 0.82203 0.0
O803 O 0.88776 0.28274 0.77504 0.0
O804 O 0.85043 0.25062 0.77446 0.0
O805 O 0.84989 0.29208 0.72691 0.0
O806 O 0.86919 0.33049 0.75269 0.0
C807 C 0.87668 0.25811 0.77578 0.0
O808 O 0.80712 0.24394 0.72204 0.0
O809 O 0.77814 0.25879 0.74444 0.0
O810 O 0.81312 0.31461 0.75263 0.0
O811 O 0.83843 0.33434 0.79329 0.0
O812 O 0.85722 0.28677 0.82072 0.0
O813 O 0.81311 0.27511 0.80002 0.0
C814 C 0.86259 0.31654 0.72874 0.0
O815 O 0.88998 0.33553 0.83138 0.0
O816 O 0.91292 0.33671 0.79701 0.0
C817 C 0.76655 0.21497 0.72569 0.0
C818 C 0.73847 0.16303 0.72441 0.0
C819 C 0.75851 0.17392 0.74676 0.0
C820 C 0.77245 0.19967 0.74737 0.0
C821 C 0.74647 0.20437 0.70351 0.0
C822 C 0.7325 0.17861 0.70286 0.0
C823 C 0.78172 0.24169 0.72546 0.0
H824 H 0.8938 0.42942 0.83266 0.0
H825 H 0.87955 0.38231 0.82285 0.0
H826 H 0.96307 0.37403 0.83334 0.0
H827 H 0.97762 0.42126 0.84189 0.0
H828 H 0.76329 0.1626 0.7639 0.0
H829 H 0.78791 0.20762 0.76467 0.0
H830 H 0.74178 0.21593 0.68653 0.0
H831 H 0.71738 0.17078 0.68527 0.0
Tb832 Tb 0.85534 0.84413 0.81568 0.0
Eu833 Eu 0.83683 0.78614 0.78744 0.0
C834 C 0.86087 0.7969 0.85258 0.0
C835 C 0.89862 0.81906 0.78345 0.0
C836 C 0.84515 0.90594 0.84278 0.0
C837 C 0.83109 0.94352 0.86359 0.0
C838 C 0.85146 0.92942 0.85967 0.0
C839 C 0.81851 0.89675 0.8299 0.0
C840 C 0.79828 0.91036 0.83423 0.0
C841 C 0.80427 0.93378 0.85116 0.0
C842 C 0.86529 0.8898 0.83905 0.0
O843 O 0.83665 0.85071 0.77344 0.0
O844 O 0.83679 0.81134 0.75104 0.0
O845 O 0.79703 0.7953 0.79946 0.0
O846 O 0.81395 0.83233 0.828 0.0
C847 C 0.83486 0.83598 0.7501 0.0
O848 O 0.81388 0.75729 0.7547 0.0
O849 O 0.83772 0.74513 0.78973 0.0
O850 O 0.84247 0.78217 0.83411 0.0
O851 O 0.87317 0.81979 0.84588 0.0
O852 O 0.89186 0.83935 0.79644 0.0
O853 O 0.88176 0.79617 0.78017 0.0
C854 C 0.79349 0.81309 0.81825 0.0
O855 O 0.86247 0.86891 0.85235 0.0
O856 O 0.86837 0.88442 0.81346 0.0
C857 C 0.83611 0.722 0.74748 0.0
C858 C 0.87329 0.69364 0.72912 0.0
C859 C 0.87366 0.71935 0.72193 0.0
C860 C 0.85543 0.73357 0.73141 0.0
C861 C 0.83335 0.69549 0.75148 0.0
C862 C 0.85178 0.6814 0.74243 0.0
C863 C 0.82359 0.73815 0.76541 0.0
H864 H 0.83614 0.96176 0.87642 0.0
H865 H 0.87196 0.93676 0.86977 0.0
H866 H 0.8133 0.87895 0.81638 0.0
H867 H 0.77792 0.9028 0.82382 0.0
H868 H 0.88944 0.72921 0.71106 0.0
H869 H 0.85789 0.75411 0.72817 0.0
H870 H 0.81863 0.68633 0.76399 0.0
H871 H 0.8507 0.66176 0.74857 0.0
Tb872 Tb 0.5682 0.54624 0.50465 0.0
Eu873 Eu 0.62031 0.57523 0.55037 0.0
C874 C 0.62762 0.54792 0.49401 0.0
C875 C 0.59381 0.51541 0.54867 0.0
C876 C 0.50051 0.53936 0.4698 0.0
C877 C 0.47209 0.56617 0.4462 0.0
C878 C 0.49113 0.55003 0.44564 0.0
C879 C 0.48885 0.54338 0.49389 0.0
C880 C 0.47027 0.55984 0.49464 0.0
C881 C 0.46239 0.57232 0.47109 0.0
C882 C 0.52582 0.52902 0.47148 0.0
O883 O 0.55259 0.55513 0.54306 0.0
O884 O 0.58544 0.58868 0.56625 0.0
O885 O 0.61298 0.60482 0.52028 0.0
O886 O 0.56796 0.58749 0.50709 0.0
C887 C 0.56072 0.57468 0.56239 0.0
O888 O 0.64253 0.58104 0.59225 0.0
O889 O 0.6621 0.59677 0.55821 0.0
O890 O 0.63381 0.54815 0.52074 0.0
O891 O 0.60373 0.55147 0.48315 0.0
O892 O 0.58578 0.51485 0.52202 0.0
O893 O 0.60004 0.53745 0.56416 0.0
C894 C 0.5888 0.6068 0.50864 0.0
O895 O 0.54655 0.54505 0.46483 0.0
O896 O 0.53243 0.518 0.49398 0.0
C897 C 0.6861 0.57323 0.58791 0.0
C898 C 0.72479 0.54118 0.58544 0.0
C899 C 0.73301 0.56844 0.59061 0.0
C900 C 0.71379 0.58434 0.59172 0.0
C901 C 0.67793 0.546 0.58378 0.0
C902 C 0.69701 0.53017 0.5826 0.0
C903 C 0.66555 0.58954 0.58332 0.0
H904 H 0.46592 0.57471 0.42737 0.0
H905 H 0.49973 0.54719 0.42675 0.0
H906 H 0.49543 0.53523 0.51282 0.0
H907 H 0.4636 0.56403 0.5143 0.0
H908 H 0.75427 0.57752 0.59318 0.0
H909 H 0.72048 0.60531 0.59445 0.0
H910 H 0.65664 0.53694 0.58009 0.0
H911 H 0.68982 0.50938 0.57808 0.0
Tb912 Tb 0.08682 0.55761 0.03957 0.0
Eu913 Eu 0.12805 0.60523 0.07729 0.0
C914 C 0.10122 0.55405 0.1006 0.0
C915 C 0.06257 0.60636 0.0631 0.0
C916 C 0.05067 0.49875 0.99126 0.0
C917 C 1.02098 0.46359 0.96167 0.0
C918 C 1.0246 0.48604 0.97952 0.0
C919 C 0.0733 0.48969 0.98383 0.0
C920 C 0.06969 0.46722 0.96579 0.0
C921 C 0.04344 0.45359 0.95524 0.0
C922 C 0.05329 0.52021 1.01252 0.0
O923 O 0.1076 0.58135 1.01089 0.0
O924 O 0.116 0.62049 0.03668 0.0
O925 O 0.15562 0.5821 0.05758 0.0
O926 O 0.12619 0.54309 0.04469 0.0
C927 C 0.11158 0.60688 1.01266 0.0
O928 O 0.16417 0.63599 0.08327 0.0
O929 O 0.14132 0.62701 0.11752 0.0
O930 O 0.12477 0.56871 0.09949 0.0
O931 O 0.08084 0.55649 0.0826 0.0
O932 O 0.06004 0.58639 0.0444 0.0
O933 O 0.08571 0.61439 0.07992 0.0
C934 C 0.15141 0.55694 0.04983 0.0
O935 O 0.06743 0.51835 0.03627 0.0
O936 O 0.05808 0.54373 1.00459 0.0
C937 C 0.16507 0.67025 0.1168 0.0
C938 C 0.17291 0.72378 0.13313 0.0
C939 C 0.14706 0.7097 0.12172 0.0
C940 C 0.14318 0.68311 0.11357 0.0
C941 C 0.1909 0.68425 0.1277 0.0
C942 C 0.19482 0.7108 0.13579 0.0
C943 C 0.16152 0.64232 0.10887 0.0
H944 H 1.00058 0.45354 0.95359 0.0
H945 H 1.00696 0.49294 0.98496 0.0
H946 H 0.09358 0.49941 0.99273 0.0
H947 H 0.0873 0.45975 0.96126 0.0
H948 H 0.12973 0.71909 0.11968 0.0
H949 H 0.1231 0.67256 0.10502 0.0
H950 H 0.20803 0.67459 0.13015 0.0
H951 H 0.21501 0.72117 0.14417 0.0
H952 H 0.08968 0.23184 1.00035 0.0
H953 H 1.00848 0.19052 0.96941 0.0
H954 H 1.01622 0.15339 0.99474 0.0
H955 H 0.04741 0.13097 0.0208 0.0
H956 H 0.12869 0.17111 0.05222 0.0
H957 H 0.11956 0.21065 0.03149 0.0
C958 C 0.07354 0.2149 0.99956 0.0
C959 C 0.04872 0.21373 0.98264 0.0
C960 C 0.07826 0.19337 1.01385 0.0
C961 C 1.0279 0.19175 0.98197 0.0
C962 C 1.03231 0.17047 0.99638 0.0
C963 C 0.06309 0.1484 0.02335 0.0
C964 C 0.0888 0.14807 0.03752 0.0
C965 C 0.05767 0.17077 1.01153 0.0
C966 C 0.10877 0.17093 0.04116 0.0
C967 C 0.10357 0.19346 0.02929 0.0
H968 H 0.22971 0.89178 0.27915 0.0
H969 H 0.28132 0.92824 0.22277 0.0
H970 H 0.31419 0.90092 0.23589 0.0
H971 H 0.32314 0.861 0.25588 0.0
H972 H 0.26764 0.82078 0.30657 0.0
H973 H 0.24129 0.85524 0.30326 0.0
C974 C 0.24856 0.89439 0.27038 0.0
C975 C 0.25301 0.91176 0.24978 0.0
C976 C 0.26629 0.87744 0.27654 0.0
C977 C 0.27745 0.91485 0.23855 0.0
C978 C 0.29608 0.89907 0.24585 0.0
C979 C 0.30565 0.86016 0.26675 0.0
C980 C 0.29705 0.83837 0.28119 0.0
C981 C 0.28994 0.87935 0.26363 0.0
C982 C 0.27433 0.83729 0.29505 0.0
C983 C 0.25932 0.85696 0.29318 0.0
H984 H 0.51498 0.84539 0.3823 0.0
H985 H 0.48268 0.7992 0.4453 0.0
H986 H 0.48738 0.83856 0.47617 0.0
H987 H 0.5037 0.88555 0.48647 0.0
H988 H 0.53696 0.93179 0.42402 0.0
H989 H 0.52926 0.89282 0.39185 0.0
C990 C 0.50857 0.84396 0.40262 0.0
C991 C 0.49854 0.8194 0.41151 0.0
C992 C 0.51194 0.8666 0.42052 0.0
C993 C 0.49053 0.81788 0.43799 0.0
C994 C 0.49331 0.84035 0.45569 0.0
C995 C 0.50892 0.88718 0.46569 0.0
C996 C 0.52097 0.91152 0.4577 0.0
C997 C 0.50447 0.86474 0.44737 0.0
C998 C 0.52802 0.91321 0.43084 0.0
C999 C 0.52346 0.89098 0.41237 0.0
H1000 H 0.63001 0.33847 0.76336 0.0
H1001 H 0.62178 0.41901 0.76551 0.0
H1002 H 0.5799 0.40811 0.78566 0.0
H1003 H 0.54384 0.37528 0.79908 0.0
H1004 H 0.55085 0.29448 0.79518 0.0
H1005 H 0.59521 0.30595 0.77962 0.0
C1006 C 0.61929 0.3537 0.76865 0.0
C1007 C 0.62884 0.37945 0.76274 0.0
C1008 C 0.59491 0.34722 0.77968 0.0
C1009 C 0.61471 0.39898 0.76967 0.0
C1010 C 0.59073 0.39278 0.78112 0.0
C1011 C 0.55509 0.3602 0.79478 0.0
C1012 C 0.54403 0.33408 0.79793 0.0
C1013 C 0.58031 0.36688 0.78552 0.0
C1014 C 0.55903 0.31476 0.79294 0.0
C1015 C 0.58431 0.32128 0.78394 0.0
H1016 H 0.11782 0.89603 0.58834 0.0
H1017 H 0.06971 0.9053 0.65348 0.0
H1018 H 0.06813 0.95 0.64125 0.0
H1019 H 0.08085 0.98787 0.61158 0.0
H1020 H 0.12676 0.97581 0.54506 0.0
H1021 H 0.12874 0.93204 0.55833 0.0
C1022 C 0.10677 0.90758 0.59999 0.0
C1023 C 0.09386 0.89635 0.62211 0.0
C1024 C 0.1057 0.93354 0.59255 0.0
C1025 C 0.07976 0.91251 0.63637 0.0
C1026 C 0.07899 0.93847 0.62935 0.0
C1027 C 0.0915 0.97583 0.60004 0.0
C1028 C 0.10397 0.98619 0.57713 0.0
C1029 C 0.09201 0.9495 0.60748 0.0
C1030 C 0.11703 0.96927 0.56263 0.0
C1031 C 0.11816 0.94385 0.57026 0.0
H1032 H 0.4979 0.76576 0.88783 0.0
H1033 H 0.53895 0.84268 0.87406 0.0
H1034 H 0.49688 0.85074 0.84841 0.0
H1035 H 0.4471 0.83633 0.83072 0.0
H1036 H 0.40788 0.75811 0.84271 0.0
H1037 H 0.44991 0.75048 0.86782 0.0
C1038 C 0.49787 0.78429 0.87906 0.0
C1039 C 0.5221 0.80354 0.88319 0.0
C1040 C 0.47348 0.78871 0.86393 0.0
C1041 C 0.52109 0.8273 0.87132 0.0
C1042 C 0.49678 0.832 0.85668 0.0
C1043 C 0.44771 0.81757 0.83874 0.0
C1044 C 0.4237 0.79789 0.8346 0.0
C1045 C 0.47263 0.81294 0.85298 0.0
C1046 C 0.42554 0.77372 0.84519 0.0
C1047 C 0.44978 0.76929 0.85974 0.0
H1048 H 0.6026 0.2174 0.16703 0.0
H1049 H 0.57067 0.25135 0.09497 0.0
H1050 H 0.56759 0.20995 0.06702 0.0
H1051 H 0.57458 0.16305 0.06256 0.0
H1052 H 0.60619 0.13077 0.13616 0.0
H1053 H 0.60868 0.17178 0.16307 0.0
C1054 C 0.59484 0.21606 0.14519 0.0
C1055 C 0.58691 0.23836 0.13361 0.0
C1056 C 0.59308 0.19191 0.12909 0.0
C1057 C 0.57697 0.23518 0.10503 0.0
C1058 C 0.57524 0.21121 0.08887 0.0
C1059 C 0.58192 0.16482 0.08451 0.0
C1060 C 0.59021 0.14284 0.09679 0.0
C1061 C 0.58329 0.18923 0.10055 0.0
C1062 C 0.59966 0.1465 0.12548 0.0
C1063 C 0.6011 0.17031 0.14117 0.0
H1064 H 0.21455 0.36293 0.3934 0.0
H1065 H 0.17229 0.28341 0.3737 0.0
H1066 H 0.208 0.27515 0.34663 0.0
H1067 H 0.25247 0.29027 0.32858 0.0
H1068 H 0.2942 0.36988 0.34963 0.0
H1069 H 0.25797 0.378 0.37534 0.0
C1070 C 0.21288 0.34367 0.38324 0.0
C1071 C 0.19004 0.32386 0.3861 0.0
C1072 C 0.23381 0.33898 0.36754 0.0
C1073 C 0.18908 0.29921 0.37233 0.0
C1074 C 0.20975 0.29446 0.35668 0.0
C1075 C 0.25369 0.30951 0.3386 0.0
C1076 C 0.27674 0.32946 0.33652 0.0
C1077 C 0.2324 0.31414 0.35408 0.0
C1078 C 0.27727 0.35402 0.35026 0.0
C1079 C 0.25633 0.35872 0.36525 0.0
H1080 H 0.97307 0.09427 0.16433 0.0
H1081 H 1.0216 0.06244 0.22748 0.0
H1082 H 0.0594 0.06842 0.20051 0.0
H1083 H 0.0767 0.07819 0.15649 0.0
H1084 H 1.0276 0.11013 0.09376 0.0
H1085 H 0.99227 0.10896 0.12319 0.0
C1086 C 0.99201 0.08887 0.17228 0.0
C1087 C 0.99442 0.07756 0.19756 0.0
C1088 C 1.01359 0.09234 0.15672 0.0
C1089 C 1.01921 0.07107 0.20792 0.0
C1090 C 1.04083 0.07443 0.1925 0.0
C1091 C 0.05855 0.08545 0.14959 0.0
C1092 C 0.0546 0.09378 0.12285 0.0
C1093 C 1.03801 0.08444 0.16653 0.0
C1094 C 1.03098 0.10319 0.11413 0.0
C1095 C 1.01068 0.10251 0.13091 0.0
H1096 H 0.3071 0.69644 0.42591 0.0
H1097 H 0.35802 0.76715 0.46642 0.0
H1098 H 0.36008 0.7856 0.4215 0.0
H1099 H 0.3483 0.78092 0.37047 0.0
H1100 H 0.29724 0.70967 0.33099 0.0
H1101 H 0.29442 0.69224 0.37587 0.0
C1102 C 0.31866 0.71594 0.42505 0.0
C1103 C 0.3325 0.73034 0.44956 0.0
C1104 C 0.31977 0.72632 0.39928 0.0
C1105 C 0.34716 0.75564 0.44792 0.0
C1106 C 0.34839 0.76615 0.42221 0.0
C1107 C 0.33648 0.76161 0.37166 0.0
C1108 C 0.32303 0.74666 0.34721 0.0
C1109 C 0.33491 0.75158 0.39771 0.0
C1110 C 0.30777 0.7217 0.3493 0.0
C1111 C 0.30617 0.71164 0.37502 0.0
H1112 H 0.57869 0.96595 0.69721 0.0
H1113 H 0.66291 0.9672 0.69172 0.0
H1114 H 0.66446 1.00384 0.6625 0.0
H1115 H 0.64107 0.03357 0.6366 0.0
H1116 H 0.55595 0.03059 0.63953 0.0
H1117 H 0.55552 0.99691 0.67226 0.0
C1118 C 0.5973 0.97444 0.68959 0.0
C1119 C 0.62067 0.96427 0.69635 0.0
C1120 C 0.59785 0.99515 0.67259 0.0
C1121 C 0.64478 0.975 0.68654 0.0
C1122 C 0.64563 0.99586 0.66995 0.0
C1123 C 0.62253 0.02588 0.64477 0.0
C1124 C 0.59857 0.03452 0.63574 0.0
C1125 C 0.62222 1.00592 0.66265 0.0
C1126 C 0.57462 0.02418 0.64622 0.0
C1127 C 0.57433 1.00485 0.66477 0.0
H1128 H 0.38049 0.39421 0.98146 0.0
H1129 H 0.29861 0.40635 0.96444 0.0
H1130 H 0.29483 0.3853 0.91739 0.0
H1131 H 0.31539 0.36368 0.88 0.0
H1132 H 0.39711 0.35122 0.89934 0.0
H1133 H 0.4001 0.37196 0.94572 0.0
C1134 C 0.36164 0.39226 0.96765 0.0
C1135 C 0.33986 0.40215 0.97708 0.0
C1136 C 0.35959 0.37999 0.9405 0.0
C1137 C 0.31576 0.39904 0.95832 0.0
C1138 C 0.31364 0.387 0.93116 0.0
C1139 C 0.33389 0.36551 0.89431 0.0
C1140 C 0.35607 0.35566 0.88547 0.0
C1141 C 0.3355 0.37747 0.9218 0.0
C1142 C 0.37963 0.3583 0.90491 0.0
C1143 C 0.38141 0.37029 0.93173 0.0
H1144 H 0.91976 1.00911 0.31053 0.0
H1145 H 0.95515 0.08959 0.30321 0.0
H1146 H 0.98926 0.08885 0.3429 0.0
H1147 H 1.01168 0.06412 0.37646 0.0
H1148 H 0.97769 0.98317 0.38256 0.0
H1149 H 0.94019 0.98531 0.34661 0.0
C1150 C 0.93454 0.02665 0.31801 0.0
C1151 C 0.93506 0.04932 0.30389 0.0
C1152 C 0.95457 0.02587 0.34031 0.0
C1153 C 0.95445 0.07186 0.3137 0.0
C1154 C 0.97404 0.07142 0.33627 0.0
C1155 C 0.99604 0.04697 0.36987 0.0
C1156 C 0.99758 1.02344 0.38174 0.0
C1157 C 0.9748 0.0483 0.34912 0.0
C1158 C 0.9769 1.00148 0.3736 0.0
C1159 C 0.95553 1.00269 0.35305 0.0
H1160 H 0.39606 0.77346 0.62853 0.0
H1161 H 0.31868 0.72048 0.61278 0.0
H1162 H 0.31013 0.7308 0.65977 0.0
H1163 H 0.32419 0.75535 0.7055 0.0
H1164 H 0.40057 0.80986 0.72047 0.0
H1165 H 0.40986 0.79838 0.67402 0.0
C1166 C 0.37733 0.76417 0.63536 0.0
C1167 C 0.3581 0.74623 0.61698 0.0
C1168 C 0.3723 0.77044 0.66245 0.0
C1169 C 0.33387 0.73448 0.6263 0.0
C1170 C 0.32894 0.74031 0.65328 0.0
C1171 C 0.34293 0.7646 0.69865 0.0
C1172 C 0.36163 0.78344 0.71655 0.0
C1173 C 0.34797 0.7583 0.67156 0.0
C1174 C 0.38572 0.79538 0.70716 0.0
C1175 C 0.39109 0.78883 0.68054 0.0
H1176 H 0.57316 1.02115 0.7879 0.0
H1177 H 0.55375 0.94522 0.81844 0.0
H1178 H 0.53143 0.9632 0.85442 0.0
H1179 H 0.52521 1.00177 0.8819 0.0
H1180 H 0.54567 0.07783 0.85184 0.0
H1181 H 0.55965 0.05846 0.81075 0.0
C1182 C 0.56356 1.00845 0.80211 0.0
C1183 C 0.56559 0.98207 0.80098 0.0
C1184 C 0.55128 1.019 0.82299 0.0
C1185 C 0.55262 0.96567 0.81907 0.0
C1186 C 0.54002 0.97597 0.83975 0.0
C1187 C 0.53184 1.01402 0.86592 0.0
C1188 C 0.53492 0.04125 0.87013 0.0
C1189 C 0.54032 1.00281 0.84263 0.0
C1190 C 0.54367 0.05687 0.84929 0.0
C1191 C 0.55168 0.04582 0.82583 0.0
H1192 H 0.28902 0.37363 0.13176 0.0
H1193 H 0.36524 0.42819 0.1436 0.0
H1194 H 0.37646 0.4125 0.18929 0.0
H1195 H 0.36467 0.38277 0.22674 0.0
H1196 H 0.28872 0.3276 0.21293 0.0
H1197 H 0.27768 0.34401 0.16806 0.0
C1198 C 0.3082 0.38223 0.14415 0.0
C1199 C 0.32615 0.40238 0.13355 0.0
C1200 C 0.31465 0.37291 0.17061 0.0
C1201 C 0.35086 0.41279 0.15057 0.0
C1202 C 0.35729 0.40376 0.17697 0.0
C1203 C 0.3456 0.37438 0.21405 0.0
C1204 C 0.32756 0.35374 0.224 0.0
C1205 C 0.33935 0.3838 0.18741 0.0
C1206 C 0.30316 0.3433 0.20651 0.0
C1207 C 0.29677 0.35275 0.18055 0.0
H1208 H 0.31236 0.97036 0.12749 0.0
H1209 H 0.31496 0.97744 0.04019 0.0
H1210 H 0.28695 1.01044 0.04072 0.0
H1211 H 0.2619 0.03743 0.06582 0.0
H1212 H 0.25687 0.02867 0.15248 0.0
H1213 H 0.28619 0.99674 0.15244 0.0
C1214 C 0.3068 0.97912 0.10857 0.0
C1215 C 0.3158 0.97139 0.08384 0.0
C1216 C 0.29047 0.99801 0.10894 0.0
C1217 C 0.30828 0.98289 0.05951 0.0
C1218 C 0.29231 1.00186 0.05979 0.0
C1219 C 0.26699 0.02842 0.08469 0.0
C1220 C 0.25719 0.03565 0.10914 0.0
C1221 C 0.28328 1.00955 0.08437 0.0
C1222 C 0.26448 0.02398 0.13346 0.0
C1223 C 0.28105 1.00547 0.1334 0.0
H1224 H 0.77795 0.64763 0.10015 0.0
H1225 H 0.78453 0.63611 1.01343 0.0
H1226 H 0.73721 0.6123 1.00474 0.0
H1227 H 0.69237 0.59587 0.02187 0.0
H1228 H 0.68776 0.60944 0.10897 0.0
H1229 H 0.73518 0.63075 0.11708 0.0
C1230 C 0.76929 0.63987 0.07924 0.0
C1231 C 0.7854 0.64396 0.05754 0.0
C1232 C 0.7419 0.62631 0.07436 0.0
C1233 C 0.77313 0.63349 0.03071 0.0
C1234 C 0.74583 0.6198 0.02572 0.0
C1235 C 0.70183 0.60314 0.04268 0.0
C1236 C 0.68587 0.60072 0.06477 0.0
C1237 C 0.72976 0.61615 0.04737 0.0
C1238 C 0.69893 0.61083 0.09143 0.0
C1239 C 0.7263 0.62318 0.09617 0.0
H1240 H 0.80561 0.54722 0.27448 0.0
H1241 H 0.83904 0.54249 0.35932 0.0
H1242 H 0.86605 0.5118 0.34422 0.0
H1243 H 0.87656 0.4832 0.30754 0.0
H1244 H 0.84054 0.48508 0.22315 0.0
H1245 H 0.8182 0.52027 0.23734 0.0
C1246 C 0.81911 0.53976 0.28961 0.0
C1247 C 0.82026 0.54696 0.31797 0.0
C1248 C 0.83397 0.52158 0.28085 0.0
C1249 C 0.83768 0.53704 0.33739 0.0
C1250 C 0.85312 0.51953 0.32878 0.0
C1251 C 0.86435 0.4918 0.29219 0.0
C1252 C 0.86027 0.48185 0.26436 0.0
C1253 C 0.85094 0.51124 0.30065 0.0
C1254 C 0.84392 0.4926 0.24468 0.0
C1255 C 0.83113 0.51259 0.25281 0.0
H1256 H 0.92729 0.48579 0.55019 0.0
H1257 H 0.96695 0.42924 0.59049 0.0
H1258 H 1.01024 0.45983 0.59586 0.0
H1259 H 1.03734 0.50143 0.58635 0.0
H1260 H 0.99791 0.55749 0.54484 0.0
H1261 H 0.954 0.52847 0.54323 0.0
C1262 C 0.94537 0.48016 0.56023 0.0
C1263 C 0.94388 0.45514 0.56966 0.0
C1264 C 0.97026 0.49781 0.56319 0.0
C1265 C 0.9675 0.44829 0.58285 0.0
C1266 C 0.9923 0.4658 0.58599 0.0
C1267 C 1.0191 0.50754 0.57742 0.0
C1268 C 1.02095 0.53156 0.56564 0.0
C1269 C 0.99397 0.49048 0.57592 0.0
C1270 C 0.9971 0.53905 0.55397 0.0
C1271 C 0.97197 0.52241 0.55291 0.0
H1272 H 0.452 0.11834 0.23568 0.0
H1273 H 0.47744 0.14049 0.32291 0.0
H1274 H 0.43971 0.16276 0.32455 0.0
H1275 H 0.40041 0.17679 0.30142 0.0
H1276 H 0.37643 0.15847 0.21354 0.0
H1277 H 0.41199 0.13283 0.21218 0.0
C1278 C 0.44927 0.12807 0.25501 0.0
C1279 C 0.4676 0.12788 0.27909 0.0
C1280 C 0.42762 0.14118 0.25579 0.0
C1281 C 0.4638 0.14054 0.30401 0.0
C1282 C 0.44213 0.15316 0.30503 0.0
C1283 C 0.40303 0.16736 0.28187 0.0
C1284 C 0.38606 0.16986 0.25756 0.0
C1285 C 0.42408 0.15373 0.28105 0.0
C1286 C 0.38916 0.15677 0.2326 0.0
C1287 C 0.40967 0.14236 0.23176 0.0
H1288 H 0.4793 0.17856 0.58398 0.0
H1289 H 0.42059 0.12219 0.5292 0.0
H1290 H 0.45446 0.09449 0.52632 0.0
H1291 H 0.50177 0.08601 0.5393 0.0
H1292 H 0.55924 0.14331 0.59455 0.0
H1293 H 0.52532 0.17022 0.59705 0.0
C1294 C 0.47362 0.16021 0.57132 0.0
C1295 C 0.4468 0.15289 0.55681 0.0
C1296 C 0.49339 0.14422 0.56978 0.0
C1297 C 0.44063 0.12876 0.5407 0.0
C1298 C 0.46022 0.11279 0.53904 0.0
C1299 C 0.50698 0.10436 0.55196 0.0
C1300 C 0.53377 0.11219 0.56672 0.0
C1301 C 0.48684 0.12023 0.55347 0.0
C1302 C 0.53937 0.13628 0.58286 0.0
C1303 C 0.51974 0.1519 0.58434 0.0
H1304 H 0.74212 0.67368 0.34145 0.0
H1305 H 0.82099 0.66254 0.37685 0.0
H1306 H 0.84107 0.7067 0.36726 0.0
H1307 H 0.83666 0.74715 0.34567 0.0
H1308 H 0.75801 0.75701 0.30799 0.0
H1309 H 0.7374 0.71464 0.32168 0.0
C1310 C 0.76364 0.68101 0.34743 0.0
C1311 C 0.78005 0.66485 0.35978 0.0
C1312 C 0.77513 0.7061 0.3412 0.0
C1313 C 0.80794 0.67459 0.36722 0.0
C1314 C 0.81944 0.69981 0.36169 0.0
C1315 C 0.81497 0.74014 0.34071 0.0
C1316 C 0.79893 0.75512 0.32568 0.0
C1317 C 0.80331 0.71553 0.34819 0.0
C1318 C 0.77087 0.74573 0.31929 0.0
C1319 C 0.75904 0.72153 0.32716 0.0
H1320 H 0.96479 0.55176 0.83615 0.0
H1321 H 1.03242 0.5422 0.89481 0.0
H1322 H 1.01353 0.49563 0.89406 0.0
H1323 H 0.97963 0.4572 0.87401 0.0
H1324 H 0.91416 0.46649 0.81222 0.0
H1325 H 0.93007 0.51353 0.81734 0.0
C1326 C 0.97514 0.53955 0.84911 0.0
C1327 C 0.99996 0.55035 0.86546 0.0
C1328 C 0.96463 0.51267 0.84786 0.0
C1329 C 1.01333 0.53427 0.88193 0.0
C1330 C 1.00258 0.50764 0.88146 0.0
C1331 C 0.96888 0.46946 0.86153 0.0
C1332 C 0.94576 0.45813 0.84264 0.0
C1333 C 0.9786 0.49653 0.86395 0.0
C1334 C 0.9318 0.47453 0.82718 0.0
C1335 C 0.941 0.5015 0.82992 0.0
H1336 H 0.12649 0.95356 0.16965 0.0
H1337 H 0.2086 0.99592 0.17227 0.0
H1338 H 0.19404 1.02041 0.13414 0.0
H1339 H 0.15844 0.02996 0.10103 0.0
H1340 H 0.07546 0.99072 0.09994 0.0
H1341 H 0.09013 0.96406 0.13643 0.0
C1342 C 0.14117 0.96819 0.16186 0.0
C1343 C 0.16856 0.97302 0.17371 0.0
C1344 C 0.1326 0.98238 0.14018 0.0
C1345 C 0.18738 0.99207 0.16362 0.0
C1346 C 0.17912 1.00591 0.14173 0.0
C1347 C 0.14343 1.01548 0.10848 0.0
C1348 C 0.11587 1.01224 0.09771 0.0
C1349 C 0.15183 1.00119 0.12994 0.0
C1350 C 0.0968 0.99347 0.10785 0.0
C1351 C 0.10517 0.97839 0.12877 0.0
H1352 H 0.97868 0.22452 0.82991 0.0
H1353 H 0.92338 0.19549 0.88639 0.0
H1354 H 0.88499 0.19981 0.85265 0.0
H1355 H 0.86889 0.22221 0.81284 0.0
H1356 H 0.92539 0.25603 0.75966 0.0
H1357 H 0.96148 0.23894 0.78586 0.0
C1358 C 0.95817 0.21847 0.83453 0.0
C1359 C 0.95384 0.21052 0.86085 0.0
C1360 C 0.93642 0.22217 0.81564 0.0
C1361 C 0.92723 0.20207 0.86638 0.0
C1362 C 0.90528 0.20472 0.84717 0.0
C1363 C 0.88884 0.22483 0.80635 0.0
C1364 C 0.89476 0.24053 0.7847 0.0
C1365 C 0.90981 0.21629 0.82252 0.0
C1366 C 0.92062 0.24412 0.77648 0.0
C1367 C 0.94125 0.23454 0.79156 0.0
H1368 H 0.62619 0.3285 0.63544 0.0
H1369 H 0.70295 0.33704 0.68777 0.0
H1370 H 0.70692 0.29327 0.67153 0.0
H1371 H 0.6877 0.25195 0.64426 0.0
H1372 H 0.612 0.24383 0.59016 0.0
H1373 H 0.60841 0.28797 0.60561 0.0
C1374 C 0.6438 0.32079 0.64322 0.0
C1375 C 0.66412 0.33593 0.66291 0.0
C1376 C 0.6461 0.29565 0.63364 0.0
C1377 C 0.68699 0.32579 0.6726 0.0
C1378 C 0.68927 0.30074 0.66337 0.0
C1379 C 0.67065 0.25994 0.63538 0.0
C1380 C 0.65009 0.24445 0.61617 0.0
C1381 C 0.66886 0.28543 0.64406 0.0
C1382 C 0.62791 0.2551 0.60534 0.0
C1383 C 0.62589 0.28041 0.61405 0.0
H1384 H 0.57638 0.75595 0.33651 0.0
H1385 H 0.60252 0.82217 0.39698 0.0
H1386 H 0.64104 0.83779 0.3728 0.0
H1387 H 0.66754 0.83217 0.33488 0.0
H1388 H 0.64145 0.76572 0.27492 0.0
H1389 H 0.60238 0.7506 0.29856 0.0
C1390 C 0.59048 0.77381 0.34447 0.0
C1391 C 0.58663 0.78786 0.36853 0.0
C1392 C 0.61246 0.78264 0.33052 0.0
C1393 C 0.60509 0.81095 0.37853 0.0
C1394 C 0.62706 0.81993 0.36469 0.0
C1395 C 0.65305 0.81459 0.32683 0.0
C1396 C 0.65715 0.80009 0.3032 0.0
C1397 C 0.63091 0.80592 0.34067 0.0
C1398 C 0.63863 0.77708 0.29317 0.0
C1399 C 0.61637 0.76847 0.30665 0.0
H1400 H 0.10054 0.2004 0.43213 0.0
H1401 H 0.10584 0.25133 0.50579 0.0
H1402 H 0.10304 0.21335 0.53369 0.0
H1403 H 0.09948 0.16425 0.53758 0.0
H1404 H 0.09444 0.11536 0.46216 0.0
H1405 H 0.09666 0.1532 0.43559 0.0
C1406 C 0.10109 0.20358 0.45433 0.0
C1407 C 0.10348 0.22961 0.46629 0.0
C1408 C 0.09947 0.18139 0.47041 0.0
C1409 C 0.10405 0.23218 0.49536 0.0
C1410 C 0.10243 0.21014 0.5115 0.0
C1411 C 0.09871 0.16171 0.51532 0.0
C1412 C 0.0967 0.13589 0.50247 0.0
C1413 C 0.10015 0.18439 0.49938 0.0
C1414 C 0.09597 0.13412 0.47336 0.0
C1415 C 0.09726 0.1561 0.45782 0.0
H1416 H 0.70352 0.34869 0.18102 0.0
H1417 H 0.65665 0.30656 0.23769 0.0
H1418 H 0.69866 0.30045 0.26524 0.0
H1419 H 0.74958 0.30627 0.27295 0.0
H1420 H 0.79525 0.3497 0.21601 0.0
H1421 H 0.75339 0.35587 0.18943 0.0
C1422 C 0.70227 0.33822 0.19946 0.0
C1423 C 0.67636 0.32813 0.20693 0.0
C1424 C 0.7267 0.33486 0.21539 0.0
C1425 C 0.67586 0.31473 0.23116 0.0
C1426 C 0.70009 0.31114 0.24698 0.0
C1427 C 0.75047 0.31717 0.25478 0.0
C1428 C 0.77624 0.3274 0.24682 0.0
C1429 C 0.72578 0.32098 0.23928 0.0
C1430 C 0.7763 0.3415 0.22306 0.0
C1431 C 0.75212 0.34507 0.20765 0.0
H1432 H 0.65076 0.92571 0.9763 0.0
H1433 H 0.56843 0.88391 0.97076 0.0
H1434 H 0.55515 0.92352 0.98946 0.0
H1435 H 0.56686 0.97146 1.00752 0.0
H1436 H 0.65034 1.01096 1.01531 0.0
H1437 H 0.66268 0.9717 0.99583 0.0
C1438 C 0.62983 0.92497 0.97924 0.0
C1439 C 0.6108 0.90107 0.9718 0.0
C1440 C 0.62231 0.94803 0.99044 0.0
C1441 C 0.58386 0.90137 0.97621 0.0
C1442 C 0.57617 0.92435 0.98687 0.0
C1443 C 0.58774 0.97162 1.00477 0.0
C1444 C 0.60751 0.99505 1.01288 0.0
C1445 C 0.59514 0.94806 0.994 0.0
C1446 C 0.63447 0.9939 1.00942 0.0
C1447 C 0.64164 0.97117 0.99819 0.0
H1448 H 1.011 0.86089 0.73667 0.0
H1449 H 1.00244 0.78035 0.7073 0.0
H1450 H 0.96036 0.76963 0.72821 0.0
H1451 H 0.92425 0.78352 0.75445 0.0
H1452 H 0.93548 0.86456 0.784 0.0
H1453 H 0.97719 0.87414 0.76375 0.0
C1454 C 1.00019 0.84084 0.73476 0.0
C1455 C 1.01067 0.82161 0.71994 0.0
C1456 C 0.9758 0.83475 0.74708 0.0
C1457 C 0.99561 0.79583 0.71833 0.0
C1458 C 0.97121 0.78967 0.73036 0.0
C1459 C 0.93583 0.80329 0.7567 0.0
C1460 C 0.92578 0.82319 0.77128 0.0
C1461 C 0.9608 0.80898 0.74477 0.0
C1462 C 0.94183 0.84855 0.77337 0.0
C1463 C 0.96605 0.8542 0.76158 0.0
H1464 H 0.17049 0.06023 0.90523 0.0
H1465 H 0.2454 0.07707 0.9616 0.0
H1466 H 0.22019 0.07377 1.00096 0.0
H1467 H 0.17724 0.07072 0.01914 0.0
H1468 H 0.10202 0.05302 0.96365 0.0
H1469 H 0.12704 0.05185 0.92389 0.0
C1470 C 0.18127 0.06291 0.92613 0.0
C1471 C 0.20971 0.06935 0.93055 0.0
C1472 C 0.16665 0.06103 0.94869 0.0
C1473 C 0.22349 0.07229 0.95768 0.0
C1474 C 0.20911 0.07051 0.98019 0.0
C1475 C 0.16634 0.06635 0.99835 0.0
C1476 C 0.13799 0.0624 0.99409 0.0
C1477 C 0.18076 0.06564 0.97589 0.0
C1478 C 0.12393 0.05622 0.96723 0.0
C1479 C 0.13821 0.05568 0.94458 0.0
H1480 H 0.87491 0.38975 0.63134 0.0
H1481 H 0.84006 0.3171 0.58283 0.0
H1482 H 0.84075 0.29403 0.62491 0.0
H1483 H 0.8493 0.29484 0.67557 0.0
H1484 H 0.88375 0.36773 0.72392 0.0
H1485 H 0.88536 0.39025 0.68169 0.0
C1486 C 0.86752 0.36885 0.62991 0.0
C1487 C 0.85726 0.35522 0.60395 0.0
C1488 C 0.86794 0.35572 0.65415 0.0
C1489 C 0.84798 0.32811 0.60252 0.0
C1490 C 0.84837 0.31489 0.62658 0.0
C1491 C 0.85743 0.31561 0.67691 0.0
C1492 C 0.86633 0.32953 0.70296 0.0
C1493 C 0.85805 0.32855 0.65253 0.0
C1494 C 0.8768 0.35645 0.70421 0.0
C1495 C 0.87762 0.36941 0.68005 0.0
H1496 H 0.56944 0.11295 0.39201 0.0
H1497 H 0.58636 0.03742 0.36976 0.0
H1498 H 0.60076 0.03226 0.4184 0.0
H1499 H 0.6053 0.04785 0.46727 0.0
H1500 H 0.58953 0.12382 0.48962 0.0
H1501 H 0.57832 0.1304 0.44073 0.0
C1502 C 0.57641 0.09543 0.39786 0.0
C1503 C 0.5765 0.07543 0.37753 0.0
C1504 C 0.58489 0.09272 0.42575 0.0
C1505 C 0.58603 0.05303 0.38516 0.0
C1506 C 0.59421 0.05004 0.41292 0.0
C1507 C 0.59967 0.06596 0.4614 0.0
C1508 C 0.59791 0.0852 0.4819 0.0
C1509 C 0.59325 0.06956 0.43338 0.0
C1510 C 0.59101 0.10873 0.47413 0.0
C1511 C 0.58444 0.11243 0.44623 0.0
H1512 H 0.82539 0.76075 0.11602 0.0
H1513 H 0.89263 0.72474 0.14317 0.0
H1514 H 0.89428 0.74413 0.1906 0.0
H1515 H 0.87572 0.77122 0.22539 0.0
H1516 H 0.80861 0.8069 0.19596 0.0
H1517 H 0.80805 0.78795 0.14936 0.0
C1518 C 0.84059 0.75707 0.13215 0.0
C1519 C 0.85888 0.74101 0.12539 0.0
C1520 C 0.84142 0.76836 0.15954 0.0
C1521 C 0.87828 0.7369 0.14717 0.0
C1522 C 0.87916 0.74802 0.17454 0.0
C1523 C 0.86098 0.77492 0.20882 0.0
C1524 C 0.84216 0.79079 0.21497 0.0
C1525 C 0.86071 0.76378 0.18118 0.0
C1526 C 0.82343 0.79506 0.19263 0.0
C1527 C 0.82302 0.7841 0.16562 0.0
H1528 H 0.18508 0.03649 0.80846 0.0
H1529 H 0.24424 0.10461 0.79726 0.0
H1530 H 0.21494 0.11376 0.75726 0.0
H1531 H 0.17255 0.10325 0.72613 0.0
H1532 H 0.11263 0.03556 0.73603 0.0
H1533 H 0.14222 0.02533 0.77595 0.0
C1534 C 0.19164 0.05313 0.79703 0.0
C1535 C 0.21678 0.06987 0.80586 0.0
C1536 C 0.17448 0.05853 0.7741 0.0
C1537 C 0.22495 0.09148 0.79098 0.0
C1538 C 0.20819 0.09679 0.76814 0.0
C1539 C 0.16573 0.08649 0.73731 0.0
C1540 C 0.14026 0.07048 0.7286 0.0
C1541 C 0.18283 0.08069 0.75979 0.0
C1542 C 0.13209 0.0483 0.74262 0.0
C1543 C 0.14901 0.04244 0.76533 0.0
H1544 H 0.8496 0.42256 0.43712 0.0
H1545 H 0.84752 0.35302 0.4807 0.0
H1546 H 0.84399 0.32689 0.4369 0.0
H1547 H 0.84329 0.32396 0.38636 0.0
H1548 H 0.84609 0.39376 0.34302 0.0
H1549 H 0.84737 0.41944 0.38653 0.0
C1550 C 0.84825 0.40167 0.43708 0.0
C1551 C 0.84894 0.38984 0.46226 0.0
C1552 C 0.84637 0.38674 0.41181 0.0
C1553 C 0.84711 0.36271 0.4617 0.0
C1554 C 0.8451 0.34771 0.43662 0.0
C1555 C 0.84393 0.34475 0.38635 0.0
C1556 C 0.84465 0.35683 0.36133 0.0
C1557 C 0.84495 0.35955 0.41156 0.0
C1558 C 0.84559 0.38385 0.36187 0.0
C1559 C 0.84636 0.39862 0.3868 0.0
H1560 H 0.61704 0.09804 0.28883 0.0
H1561 H 0.60122 0.17122 0.26199 0.0
H1562 H 0.64006 0.17558 0.23609 0.0
H1563 H 0.67158 0.15368 0.2138 0.0
H1564 H 0.68201 0.07752 0.23756 0.0
H1565 H 0.65473 0.08075 0.27389 0.0
C1566 C 0.62245 0.11518 0.27769 0.0
C1567 C 0.60597 0.13384 0.27635 0.0
C1568 C 0.64426 0.11723 0.26259 0.0
C1569 C 0.61349 0.1564 0.26277 0.0
C1570 C 0.63565 0.15886 0.24801 0.0
C1571 C 0.66804 0.13775 0.22691 0.0
C1572 C 0.67723 0.11449 0.221 0.0
C1573 C 0.65017 0.1386 0.24652 0.0
C1574 C 0.67459 0.09537 0.24025 0.0
C1575 C 0.65843 0.09691 0.26105 0.0
H1576 H 0.90486 0.77463 0.97659 0.0
H1577 H 0.83824 0.70887 0.96001 0.0
H1578 H 0.82676 0.7225 0.91349 0.0
H1579 H 0.83555 0.75327 0.87666 0.0
H1580 H 0.90178 0.81937 0.89424 0.0
H1581 H 0.9132 0.80547 0.94042 0.0
C1582 C 0.88774 0.76315 0.96294 0.0
C1583 C 0.87254 0.74048 0.97246 0.0
C1584 C 0.8811 0.77125 0.93592 0.0
C1585 C 0.85045 0.72629 0.95387 0.0
C1586 C 0.84386 0.73414 0.92701 0.0
C1587 C 0.85257 0.76469 0.89049 0.0
C1588 C 0.86777 0.78755 0.88126 0.0
C1589 C 0.85903 0.75659 0.91764 0.0
C1590 C 0.88958 0.80183 0.90012 0.0
C1591 C 0.89618 0.79381 0.9268 0.0
H1592 H 0.87944 0.15972 0.04781 0.0
H1593 H 0.84658 0.13601 0.96238 0.0
H1594 H 0.87765 0.10581 0.96025 0.0
H1595 H 0.91615 0.08806 0.98194 0.0
H1596 H 0.9488 0.11218 0.06728 0.0
H1597 H 0.91572 0.14015 0.0702 0.0
C1598 C 0.87898 0.14789 0.02874 0.0
C1599 C 0.86088 0.1503 1.00525 0.0
C1600 C 0.8969 0.13063 0.02763 0.0
C1601 C 0.86039 0.13462 0.98078 0.0
C1602 C 0.87816 0.11734 0.97952 0.0
C1603 C 0.91567 0.09912 1.00126 0.0
C1604 C 0.93499 0.09827 0.02427 0.0
C1605 C 0.89674 0.1154 1.00272 0.0
C1606 C 0.93432 0.11283 0.04917 0.0
C1607 C 0.91543 0.1288 0.05087 0.0
H1608 H 0.44125 0.47305 0.0851 0.0
H1609 H 0.39729 0.51409 0.0271 0.0
H1610 H 0.44036 0.54045 0.01795 0.0
H1611 H 0.49174 0.55236 0.02688 0.0
H1612 H 0.53364 0.51129 0.08674 0.0
H1613 H 0.49076 0.48469 0.09421 0.0
C1614 C 0.44082 0.48776 0.07042 0.0
C1615 C 0.41549 0.4913 0.05692 0.0
C1616 C 0.46577 0.50296 0.06533 0.0
C1617 C 0.41606 0.51074 0.03806 0.0
C1618 C 0.44091 0.52583 0.0327 0.0
C1619 C 0.49147 0.53737 0.04128 0.0
C1620 C 0.5164 0.53383 0.05599 0.0
C1621 C 0.46609 0.52216 0.04616 0.0
C1622 C 0.51518 0.51455 0.07497 0.0
C1623 C 0.49048 0.49927 0.07937 0.0
H1624 H 0.35507 0.56243 0.71665 0.0
H1625 H 0.39434 0.61739 0.6648 0.0
H1626 H 0.36702 0.64868 0.67756 0.0
H1627 H 0.3389 0.66301 0.71014 0.0
H1628 H 0.29951 0.60817 0.76215 0.0
H1629 H 0.32001 0.57408 0.74248 0.0
C1630 C 0.35721 0.58106 0.7077 0.0
C1631 C 0.37708 0.58791 0.69039 0.0
C1632 C 0.34179 0.59906 0.71547 0.0
C1633 C 0.37932 0.6118 0.67841 0.0
C1634 C 0.36383 0.62976 0.68583 0.0
C1635 C 0.33393 0.6434 0.71652 0.0
C1636 C 0.31823 0.63832 0.73811 0.0
C1637 C 0.34596 0.62401 0.70533 0.0
C1638 C 0.31217 0.61277 0.74612 0.0
C1639 C 0.32383 0.59326 0.73486 0.0
H1640 H 0.25876 0.62171 0.49172 0.0
H1641 H 0.26055 0.68331 0.55494 0.0
H1642 H 0.21518 0.66362 0.56305 0.0
H1643 H 0.1759 0.6283 0.55381 0.0
H1644 H 0.1718 0.56741 0.4894 0.0
H1645 H 0.21717 0.58754 0.47988 0.0
C1646 C 0.24911 0.6308 0.50717 0.0
C1647 C 0.26306 0.65379 0.52285 0.0
C1648 C 0.22273 0.61953 0.51153 0.0
C1649 C 0.25025 0.66562 0.54257 0.0
C1650 C 0.22433 0.65436 0.54731 0.0
C1651 C 0.18495 0.61943 0.53766 0.0
C1652 C 0.17092 0.59628 0.52259 0.0
C1653 C 0.21057 0.63122 0.53217 0.0
C1654 C 0.18244 0.58525 0.5013 0.0
C1655 C 0.20833 0.59669 0.49596 0.0
H1656 H 0.71271 0.99357 0.81832 0.0
H1657 H 0.66544 0.92494 0.84595 0.0
H1658 H 0.70686 0.91202 0.8663 0.0
H1659 H 0.75603 0.91597 0.86795 0.0
H1660 H 0.80318 0.98339 0.8384 0.0
H1661 H 0.76237 1.00152 0.82779 0.0
C1662 C 0.71146 0.97606 0.8293 0.0
C1663 C 0.68612 0.95987 0.82999 0.0
C1664 C 0.73535 0.96853 0.8405 0.0
C1665 C 0.68473 0.93757 0.84481 0.0
C1666 C 0.70841 0.93011 0.85637 0.0
C1667 C 0.75738 0.93503 0.86003 0.0
C1668 C 0.78231 0.94826 0.85357 0.0
C1669 C 0.73378 0.9448 0.85314 0.0
C1670 C 0.78412 0.97297 0.84353 0.0
C1671 C 0.76076 0.98314 0.83716 0.0
H1672 H 0.71408 0.95192 0.55364 0.0
H1673 H 0.77862 1.01896 0.55728 0.0
H1674 H 0.74548 0.04766 0.55814 0.0
H1675 H 0.69731 0.05413 0.5585 0.0
H1676 H 0.63372 0.98597 0.55416 0.0
H1677 H 0.66692 0.95807 0.55299 0.0
C1678 C 0.72118 0.97282 0.55456 0.0
C1679 C 0.74945 0.98284 0.5554 0.0
C1680 C 0.70179 0.98937 0.55499 0.0
C1681 C 0.75742 1.01022 0.55653 0.0
C1682 C 0.73826 0.02678 0.55709 0.0
C1683 C 0.69057 0.03317 0.55722 0.0
C1684 C 0.66231 1.02262 0.55644 0.0
C1685 C 0.71024 1.01669 0.55641 0.0
C1686 C 0.65477 0.99519 0.55478 0.0
C1687 C 0.67398 0.97899 0.55412 0.0
H1688 H 0.39134 0.46117 0.71224 0.0
H1689 H 0.47511 0.45883 0.73921 0.0
H1690 H 0.46131 0.41779 0.75953 0.0
H1691 H 0.42536 0.38464 0.77302 0.0
H1692 H 0.34161 0.38758 0.74657 0.0
H1693 H 0.35561 0.4264 0.72272 0.0
C1694 C 0.40663 0.45152 0.72221 0.0
C1695 C 0.43419 0.46319 0.72444 0.0
C1696 C 0.39857 0.42822 0.73429 0.0
C1697 C 0.45373 0.45033 0.73729 0.0
C1698 C 0.44586 0.42693 0.74907 0.0
C1699 C 0.41016 0.39374 0.76201 0.0
C1700 C 0.38249 0.38341 0.7619 0.0
C1701 C 0.41831 0.41608 0.74832 0.0
C1702 C 0.36306 0.3952 0.74713 0.0
C1703 C 0.37103 0.41741 0.73347 0.0
H1704 H 0.1871 0.52491 0.19453 0.0
H1705 H 0.10725 0.54295 0.19047 0.0
H1706 H 0.1267 0.58938 0.19203 0.0
H1707 H 0.16664 0.62482 0.20056 0.0
H1708 H 0.24653 0.60676 0.20451 0.0
H1709 H 0.22674 0.56036 0.19749 0.0
C1710 C 0.17388 0.53895 0.19354 0.0
C1711 C 0.1458 0.53049 0.19295 0.0
C1712 C 0.18524 0.56565 0.19505 0.0
C1713 C 0.12898 0.54895 0.19138 0.0
C1714 C 0.1401 0.57553 0.19236 0.0
C1715 C 0.17978 0.61084 0.19931 0.0
C1716 C 0.20812 0.61939 0.2036 0.0
C1717 C 0.16827 0.58413 0.19516 0.0
C1718 C 0.2247 0.6008 0.20208 0.0
C1719 C 0.21339 0.57422 0.19784 0.0
H1720 H 0.58639 0.71298 0.45508 0.0
H1721 H 0.50086 0.67932 0.44111 0.0
H1722 H 0.50924 0.64234 0.46661 0.0
H1723 H 0.54058 0.61826 0.48955 0.0
H1724 H 0.62645 0.65042 0.50254 0.0
H1725 H 0.61804 0.6895 0.48061 0.0
C1726 C 0.56956 0.69765 0.45783 0.0
C1727 C 0.54309 0.69875 0.44607 0.0
C1728 C 0.57452 0.67615 0.47199 0.0
C1729 C 0.52146 0.67878 0.44974 0.0
C1730 C 0.52619 0.65763 0.46425 0.0
C1731 C 0.55756 0.63381 0.48775 0.0
C1732 C 0.58415 0.63133 0.49742 0.0
C1733 C 0.55264 0.65589 0.47492 0.0
C1734 C 0.60579 0.65183 0.49516 0.0
C1735 C 0.601 0.67413 0.48258 0.0
H1736 H 0.75402 0.4229 0.76198 0.0
H1737 H 0.77432 0.41748 0.67883 0.0
H1738 H 0.8052 0.38871 0.69264 0.0
H1739 H 0.81857 0.35822 0.72544 0.0
H1740 H 0.79806 0.36267 0.8083 0.0
H1741 H 0.77471 0.3986 0.79746 0.0
C1742 C 0.76577 0.41604 0.74705 0.0
C1743 C 0.7611 0.42152 0.71917 0.0
C1744 C 0.78271 0.39871 0.75486 0.0
C1745 C 0.77707 0.41313 0.70029 0.0
C1746 C 0.79453 0.39642 0.70808 0.0
C1747 C 0.8092 0.36733 0.74115 0.0
C1748 C 0.80904 0.35756 0.76726 0.0
C1749 C 0.79611 0.38786 0.73478 0.0
C1750 C 0.79781 0.3698 0.78791 0.0
C1751 C 0.78458 0.39027 0.78171 0.0
H1752 H 0.04433 0.34791 0.88736 0.0
H1753 H 0.99182 0.31855 0.94623 0.0
H1754 H 0.99295 0.363 0.96501 0.0
H1755 H 1.01155 0.4097 0.967 0.0
H1756 H 0.06672 0.43922 0.91069 0.0
H1757 H 0.06197 0.39512 0.88848 0.0
C1758 C 1.03282 0.35132 0.90401 0.0
C1759 C 1.01797 0.33009 0.91542 0.0
C1760 C 1.03427 0.37686 0.91526 0.0
C1761 C 1.00345 0.33465 0.93724 0.0
C1762 C 1.00412 0.36002 0.94797 0.0
C1763 C 1.02217 0.4065 0.94955 0.0
C1764 C 1.03932 0.42754 0.9403 0.0
C1765 C 1.01984 0.38119 0.93748 0.0
C1766 C 0.05345 0.42319 0.91811 0.0
C1767 C 0.05071 0.39806 0.90545 0.0
H1768 H 0.07958 0.84434 0.21728 0.0
H1769 H 0.11469 0.90145 0.28558 0.0
H1770 H 0.07608 0.88689 0.30998 0.0
H1771 H 1.03129 0.85961 0.31063 0.0
H1772 H 0.99651 0.80227 0.24249 0.0
H1773 H 1.0362 0.81533 0.21919 0.0
C1774 C 0.07882 0.8536 0.23752 0.0
C1775 C 0.09979 0.87409 0.2495 0.0
C1776 C 0.05667 0.84512 0.2514 0.0
C1777 C 0.09871 0.88568 0.27588 0.0
C1778 C 0.07666 0.87738 0.28983 0.0
C1779 C 1.03265 0.84963 0.29094 0.0
C1780 C 1.01101 0.83009 0.27823 0.0
C1781 C 0.05542 0.8573 0.27765 0.0
C1782 C 1.01282 0.81759 0.25251 0.0
C1783 C 1.03548 0.82501 0.23922 0.0
H1784 H 0.60304 0.43711 0.17071 0.0
H1785 H 0.59023 0.38604 0.09598 0.0
H1786 H 0.59219 0.42415 0.06841 0.0
H1787 H 0.59711 0.47317 0.06508 0.0
H1788 H 0.60985 0.52274 0.14111 0.0
H1789 H 0.60836 0.48474 0.16767 0.0
C1790 C 0.60068 0.43396 0.14835 0.0
C1791 C 0.59643 0.40783 0.13595 0.0
C1792 C 0.60185 0.45627 0.13243 0.0
C1793 C 0.59352 0.40526 0.1067 0.0
C1794 C 0.59465 0.42736 0.09076 0.0
C1795 C 0.59975 0.47583 0.08748 0.0
C1796 C 0.60379 0.50181 0.10056 0.0
C1797 C 0.59878 0.45317 0.10328 0.0
C1798 C 0.60685 0.50381 0.12982 0.0
C1799 C 0.60595 0.48175 0.14529 0.0
H1800 H 0.99618 0.27605 0.40252 0.0
H1801 H 0.04743 0.33206 0.36121 0.0
H1802 H 1.00743 0.33951 0.33129 0.0
H1803 H 0.95701 0.33105 0.31736 0.0
H1804 H 0.90674 0.27334 0.35786 0.0
H1805 H 0.94675 0.26587 0.3871 0.0
C1806 C 0.9988 0.28981 0.38688 0.0
C1807 C 1.02531 0.30345 0.38448 0.0
C1808 C 0.97552 0.29387 0.36943 0.0
C1809 C 1.0277 0.32108 0.36376 0.0
C1810 C 1.00462 0.32546 0.34662 0.0
C1811 C 0.95472 0.31678 0.33253 0.0
C1812 C 0.92829 0.30291 0.33514 0.0
C1813 C 0.97829 0.31215 0.34934 0.0
C1814 C 0.92635 0.28438 0.35499 0.0
C1815 C 0.94942 0.28008 0.37191 0.0
H1816 H 0.09988 0.74131 0.57931 0.0
H1817 H 0.07518 0.72606 0.65894 0.0
H1818 H 0.07389 0.67925 0.64866 0.0
H1819 H 0.08061 0.64145 0.61664 0.0
H1820 H 0.10341 0.65863 0.53645 0.0
H1821 H 0.10456 0.70461 0.54743 0.0
C1822 C 0.09402 0.72792 0.59458 0.0
C1823 C 0.08761 0.73811 0.62013 0.0
C1824 C 0.09307 0.70066 0.58835 0.0
C1825 C 0.08008 0.71957 0.6391 0.0
C1826 C 0.07947 0.69249 0.63317 0.0
C1827 C 0.08583 0.65516 0.60148 0.0
C1828 C 0.09197 0.64555 0.57539 0.0
C1829 C 0.08607 0.68256 0.60783 0.0
C1830 C 0.09845 0.66445 0.5565 0.0
C1831 C 0.09917 0.69119 0.56282 0.0
H1832 H 0.67348 0.77939 0.85192 0.0
H1833 H 0.69819 0.84902 0.90744 0.0
H1834 H 0.74221 0.85757 0.88987 0.0
H1835 H 0.77505 0.84469 0.85867 0.0
H1836 H 0.74823 0.77476 0.8035 0.0
H1837 H 0.70477 0.76737 0.82082 0.0
C1838 C 0.68831 0.79658 0.8604 0.0
C1839 C 0.68169 0.81339 0.88145 0.0
C1840 C 0.71386 0.80142 0.85006 0.0
C1841 C 0.70194 0.83548 0.8915 0.0
C1842 C 0.72742 0.84039 0.88132 0.0
C1843 C 0.75973 0.82784 0.85026 0.0
C1844 C 0.76585 0.81035 0.82933 0.0
C1845 C 0.73387 0.82345 0.86058 0.0
C1846 C 0.74501 0.78877 0.81927 0.0
C1847 C 0.71978 0.78441 0.82933 0.0
H1848 H 0.4676 0.5645 0.63558 0.0
H1849 H 0.53491 0.59428 0.69943 0.0
H1850 H 0.56543 0.60151 0.66438 0.0
H1851 H 0.57356 0.59435 0.6161 0.0
H1852 H 0.50593 0.56386 0.55292 0.0
H1853 H 0.4748 0.56222 0.58716 0.0
C1854 C 0.48892 0.57277 0.64181 0.0
C1855 C 0.49915 0.57839 0.66997 0.0
C1856 C 0.50624 0.57665 0.62169 0.0
C1857 C 0.52665 0.58962 0.6778 0.0
C1858 C 0.54409 0.59369 0.6578 0.0
C1859 C 0.55195 0.5879 0.60979 0.0
C1860 C 0.54201 0.5787 0.58216 0.0
C1861 C 0.53422 0.58659 0.62974 0.0
C1862 C 0.51401 0.57043 0.57419 0.0
C1863 C 0.49623 0.56953 0.59375 0.0
H1864 H 0.7816 0.22661 0.92281 0.0
H1865 H 0.86049 0.26322 0.96553 0.0
H1866 H 0.87296 0.2811 0.92273 0.0
H1867 H 0.86204 0.28491 0.8728 0.0
H1868 H 0.78294 0.24839 0.8304 0.0
H1869 H 0.77005 0.23187 0.87352 0.0
C1870 C 0.80149 0.23863 0.92286 0.0
C1871 C 0.82012 0.24345 0.94737 0.0
C1872 C 0.80856 0.24873 0.89819 0.0
C1873 C 0.84573 0.2592 0.94701 0.0
C1874 C 0.85292 0.26935 0.9225 0.0
C1875 C 0.84196 0.27334 0.87296 0.0
C1876 C 0.82355 0.26779 0.84828 0.0
C1877 C 0.83461 0.26398 0.89789 0.0
C1878 C 0.79754 0.25297 0.84901 0.0
C1879 C 0.79015 0.24349 0.87368 0.0
H1880 H 0.073 0.44829 0.15559 0.0
H1881 H 0.1561 0.44733 0.14646 0.0
H1882 H 0.1604 0.48938 0.12608 0.0
H1883 H 0.14071 0.52675 0.11226 0.0
H1884 H 0.05722 0.52746 0.12043 0.0
H1885 H 0.05291 0.4854 0.1406 0.0
C1886 C 0.09192 0.45737 0.14895 0.0
C1887 C 0.11431 0.44525 0.15259 0.0
C1888 C 0.09422 0.48152 0.13757 0.0
C1889 C 0.13876 0.4567 0.14387 0.0
C1890 C 0.1412 0.48065 0.13232 0.0
C1891 C 0.12168 0.51784 0.11879 0.0
C1892 C 0.0994 0.53025 0.11535 0.0
C1893 C 0.11917 0.4934 0.12948 0.0
C1894 C 0.07468 0.51827 0.12323 0.0
C1895 C 0.07217 0.4942 0.13452 0.0
H1896 H 0.78139 0.9036 0.44677 0.0
H1897 H 0.86067 0.90233 0.48942 0.0
H1898 H 0.87172 0.88017 0.44788 0.0
H1899 H 0.85922 0.86172 0.39809 0.0
H1900 H 0.77876 0.86184 0.35731 0.0
H1901 H 0.76823 0.88352 0.39881 0.0
C1902 C 0.80111 0.8984 0.44722 0.0
C1903 C 0.82008 0.90492 0.47175 0.0
C1904 C 0.8073 0.88534 0.42313 0.0
C1905 C 0.84543 0.89765 0.47133 0.0
C1906 C 0.85184 0.885 0.44731 0.0
C1907 C 0.83934 0.86641 0.39822 0.0
C1908 C 0.81993 0.8599 0.37389 0.0
C1909 C 0.83303 0.87883 0.42286 0.0
C1910 C 0.79428 0.86626 0.37518 0.0
C1911 C 0.78816 0.87883 0.39914 0.0
H1912 H 0.49879 0.55258 0.78254 0.0
H1913 H 0.42581 0.53857 0.82091 0.0
H1914 H 0.45261 0.53664 0.86566 0.0
H1915 H 0.49655 0.53696 0.89333 0.0
H1916 H 0.56927 0.54991 0.85458 0.0
H1917 H 0.54266 0.55389 0.81031 0.0
C1918 C 0.48872 0.54937 0.80073 0.0
C1919 C 0.46035 0.54576 0.79842 0.0
C1920 C 0.50417 0.5478 0.8262 0.0
C1921 C 0.44763 0.5414 0.82215 0.0
C1922 C 0.46293 0.54024 0.84771 0.0
C1923 C 0.50657 0.54092 0.87523 0.0
C1924 C 0.53479 0.54311 0.87716 0.0
C1925 C 0.49116 0.5431 0.84989 0.0
C1926 C 0.54751 0.54785 0.8535 0.0
C1927 C 0.53235 0.55028 0.82826 0.0
H1928 H 0.88831 0.24831 0.12646 0.0
H1929 H 0.8017 0.23974 0.10627 0.0
H1930 H 0.79839 0.25392 0.15398 0.0
H1931 H 0.82008 0.26945 0.20144 0.0
H1932 H 0.90695 0.28137 0.22085 0.0
H1933 H 0.91016 0.26492 0.1737 0.0
C1934 C 0.86872 0.2496 0.1325 0.0
C1935 C 0.84531 0.24299 0.11275 0.0
C1936 C 0.86698 0.25819 0.15994 0.0
C1937 C 0.8201 0.2449 0.12093 0.0
C1938 C 0.81814 0.25287 0.14829 0.0
C1939 C 0.83967 0.26816 0.1954 0.0
C1940 C 0.86324 0.27637 0.21464 0.0
C1941 C 0.84143 0.25958 0.16798 0.0
C1942 C 0.88853 0.27508 0.2064 0.0
C1943 C 0.89037 0.26575 0.17944 0.0
H1944 H 0.14016 0.52854 0.28727 0.0
H1945 H 0.08264 0.45601 0.28317 0.0
H1946 H 0.06141 0.47367 0.32044 0.0
H1947 H 0.0618 0.50869 0.35657 0.0
H1948 H 0.11969 0.58092 0.36003 0.0
H1949 H 0.13817 0.56443 0.32034 0.0
C1950 C 0.12294 0.51658 0.29448 0.0
C1951 C 0.11322 0.49091 0.28288 0.0
C1952 C 0.11096 0.52682 0.31573 0.0
C1953 C 0.09056 0.47581 0.29199 0.0
C1954 C 0.07847 0.48588 0.31327 0.0
C1955 C 0.07807 0.52096 0.34822 0.0
C1956 C 0.08958 0.54585 0.36126 0.0
C1957 C 0.0888 0.51123 0.32559 0.0
C1958 C 0.1108 0.56155 0.35047 0.0
C1959 C 0.12136 0.55215 0.32784 0.0
H1960 H 0.81849 0.85634 0.62133 0.0
H1961 H 0.83653 0.93687 0.65342 0.0
H1962 H 0.84026 0.92333 0.70094 0.0
H1963 H 0.83928 0.88789 0.73431 0.0
H1964 H 0.82122 0.80779 0.70003 0.0
H1965 H 0.81666 0.82189 0.65353 0.0
C1966 C 0.8232 0.87115 0.63858 0.0
C1967 C 0.8272 0.89785 0.6331 0.0
C1968 C 0.82536 0.86316 0.66607 0.0
C1969 C 0.83327 0.91627 0.65637 0.0
C1970 C 0.83543 0.90843 0.6838 0.0
C1971 C 0.83414 0.87347 0.71673 0.0
C1972 C 0.83065 0.84648 0.7215 0.0
C1973 C 0.83161 0.88183 0.68911 0.0
C1974 C 0.82418 0.82854 0.69783 0.0
C1975 C 0.82154 0.83663 0.67084 0.0
H1976 H 0.81361 0.48051 0.55087 0.0
H1977 H 0.769 0.42116 0.59444 0.0
H1978 H 0.73893 0.45034 0.60541 0.0
H1979 H 0.72524 0.49264 0.60271 0.0
H1980 H 0.76886 0.55153 0.55785 0.0
H1981 H 0.79976 0.52283 0.54802 0.0
C1982 C 0.79727 0.47391 0.56269 0.0
C1983 C 0.79357 0.44861 0.57172 0.0
C1984 C 0.78004 0.49082 0.56902 0.0
C1985 C 0.77232 0.44047 0.58713 0.0
C1986 C 0.75512 0.45717 0.5935 0.0
C1987 C 0.74143 0.49919 0.59066 0.0
C1988 C 0.7447 0.5243 0.58114 0.0
C1989 C 0.7588 0.48239 0.58455 0.0
C1990 C 0.76609 0.53254 0.56592 0.0
C1991 C 0.78363 0.51601 0.56 0.0
H1992 H 0.27419 0.1073 0.50659 0.0
H1993 H 0.28546 0.16504 0.57563 0.0
H1994 H 0.23899 0.14861 0.58456 0.0
H1995 H 0.19386 0.11805 0.57201 0.0
H1996 H 0.18428 0.06013 0.50317 0.0
H1997 H 0.23062 0.07628 0.4953 0.0
C1998 C 0.26668 0.11637 0.52373 0.0
C1999 C 0.28389 0.13767 0.5403 0.0
C2000 C 0.23975 0.10667 0.52887 0.0
C2001 C 0.2732 0.14874 0.56241 0.0
C2002 C 0.24637 0.13929 0.56751 0.0
C2003 C 0.20188 0.1088 0.55538 0.0
C2004 C 0.18486 0.0876 0.53828 0.0
C2005 C 0.22924 0.11829 0.55081 0.0
C2006 C 0.19625 0.07626 0.51686 0.0
C2007 C 0.22303 0.08559 0.51222 0.0
H2008 H 0.32053 1.01403 0.91754 0.0
H2009 H 0.35301 0.07413 0.86729 0.0
H2010 H 0.38261 0.04681 0.85064 0.0
H2011 H 0.39306 1.00341 0.84422 0.0
H2012 H 0.35582 0.9416 0.88996 0.0
H2013 H 0.3355 0.9722 0.91544 0.0
C2014 C 0.33458 1.02136 0.90349 0.0
C2015 C 0.33431 0.0458 0.89325 0.0
C2016 C 0.3507 1.00513 0.89311 0.0
C2017 C 0.3526 0.05515 0.87508 0.0
C2018 C 0.36951 0.03955 0.86555 0.0
C2019 C 0.38078 0.9967 0.86001 0.0
C2020 C 0.37556 0.97013 0.86467 0.0
C2021 C 0.36774 1.01406 0.8734 0.0
C2022 C 0.36032 0.96192 0.88588 0.0
C2023 C 0.34831 0.97938 0.90025 0.0
H2024 H 0.43484 0.98295 0.08012 0.0
H2025 H 0.47354 0.91661 0.07484 0.0
H2026 H 0.5178 0.94569 0.07891 0.0
H2027 H 0.54503 0.99009 0.07962 0.0
H2028 H 0.50557 0.05601 0.08318 0.0
H2029 H 0.46223 0.027 0.08456 0.0
C2030 C 0.45294 0.97479 0.08009 0.0
C2031 C 0.45078 0.94762 0.07684 0.0
C2032 C 0.47827 0.9916 0.08214 0.0
C2033 C 0.47455 0.93745 0.07713 0.0
C2034 C 0.4999 0.95408 0.07944 0.0
C2035 C 0.52704 0.9981 0.08131 0.0
C2036 C 0.52848 0.02515 0.08118 0.0
C2037 C 0.50196 0.98121 0.08139 0.0
C2038 C 0.50495 0.03524 0.08309 0.0
C2039 C 0.48013 1.01866 0.08379 0.0
H2040 H 0.95989 0.62856 0.76481 0.0
H2041 H 1.00941 0.70575 0.78108 0.0
H2042 H 0.97386 0.72395 0.75566 0.0
H2043 H 0.92604 0.71885 0.73806 0.0
H2044 H 0.87617 0.64181 0.72048 0.0
H2045 H 0.91485 0.62263 0.73692 0.0
C2046 C 0.9631 0.64928 0.76224 0.0
C2047 C 0.98688 0.66587 0.77548 0.0
C2048 C 0.94246 0.65969 0.74775 0.0
C2049 C 0.99111 0.69258 0.77144 0.0
C2050 C 0.97074 0.70304 0.75698 0.0
C2051 C 0.92364 0.69781 0.73659 0.0
C2052 C 0.89781 0.68188 0.72894 0.0
C2053 C 0.94586 0.68692 0.7463 0.0
C2054 C 0.89554 0.65464 0.72723 0.0
C2055 C 0.91767 0.64362 0.73665 0.0
H2056 H 0.98015 0.68149 0.08894 0.0
H2057 H 0.92584 0.62989 0.02575 0.0
H2058 H 0.96142 0.6046 0.02053 0.0
H2059 H 1.00909 0.59693 0.03382 0.0
H2060 H 0.06204 0.64936 0.0976 0.0
H2061 H 1.0264 0.67385 0.10234 0.0
C2062 C 0.97579 0.66469 0.07394 0.0
C2063 C 0.94965 0.65801 0.05779 0.0
C2064 C 0.99655 0.65006 0.07106 0.0
C2065 C 0.94525 0.63591 0.03863 0.0
C2066 C 0.96585 0.62132 0.03561 0.0
C2067 C 1.01294 0.61367 0.04884 0.0
C2068 C 1.03901 0.62084 0.06535 0.0
C2069 C 0.99177 0.62814 0.05168 0.0
C2070 C 1.0428 0.64285 0.08452 0.0
C2071 C 1.02217 0.6571 0.08729 0.0
H2072 H 0.32049 0.16856 0.88409 0.0
H2073 H 0.23877 0.18217 0.87809 0.0
H2074 H 0.25367 0.22508 0.86178 0.0
H2075 H 0.28903 0.25641 0.84428 0.0
H2076 H 0.36989 0.24069 0.84808 0.0
H2077 H 0.35607 0.20083 0.87006 0.0
C2078 C 0.30594 0.18102 0.87964 0.0
C2079 C 0.27852 0.17204 0.88195 0.0
C2080 C 0.31441 0.20513 0.86943 0.0
C2081 C 0.26001 0.18856 0.8763 0.0
C2082 C 0.26847 0.21303 0.86681 0.0
C2083 C 0.30364 0.24437 0.85016 0.0
C2084 C 0.33031 0.2513 0.84416 0.0
C2085 C 0.29547 0.22114 0.86245 0.0
C2086 C 0.34909 0.23558 0.85202 0.0
C2087 C 0.34128 0.21282 0.86472 0.0
H2088 H 0.5412 0.99237 0.27336 0.0
H2089 H 0.46912 0.02482 0.27335 0.0
H2090 H 0.44156 0.98121 0.2721 0.0
H2091 H 0.43843 0.93436 0.27531 0.0
H2092 H 0.51047 0.90171 0.27713 0.0
H2093 H 0.53758 0.94489 0.2735 0.0
C2094 C 0.51942 0.98985 0.27261 0.0
C2095 C 0.50725 1.01179 0.27358 0.0
C2096 C 0.50373 0.96471 0.27258 0.0
C2097 C 0.47901 1.00824 0.27282 0.0
C2098 C 0.46322 0.98331 0.27215 0.0
C2099 C 0.45998 0.93661 0.27437 0.0
C2100 C 0.47244 0.9149 0.27657 0.0
C2101 C 0.47544 0.96148 0.27266 0.0
C2102 C 0.50046 0.9182 0.27578 0.0
C2103 C 0.51595 0.94285 0.27363 0.0
H2104 H 0.65229 0.42956 0.59642 0.0
H2105 H 0.63343 0.46496 0.67182 0.0
H2106 H 0.6064 0.49083 0.64518 0.0
H2107 H 0.59134 0.50621 0.60135 0.0
H2108 H 0.61192 0.47415 0.52549 0.0
H2109 H 0.63413 0.44333 0.55131 0.0
C2110 C 0.64217 0.44288 0.60695 0.0
C2111 C 0.6452 0.44556 0.63608 0.0
C2112 C 0.6267 0.45801 0.59145 0.0
C2113 C 0.6318 0.46274 0.64946 0.0
C2114 C 0.61616 0.47746 0.63426 0.0
C2115 C 0.60024 0.4921 0.59039 0.0
C2116 C 0.60023 0.49242 0.56174 0.0
C2117 C 0.61387 0.47555 0.60538 0.0
C2118 C 0.61153 0.47401 0.54761 0.0
C2119 C 0.62457 0.45672 0.56241 0.0
H2120 H 0.42009 0.67773 0.33872 0.0
H2121 H 0.48139 0.72254 0.29758 0.0
H2122 H 0.44757 0.7254 0.25843 0.0
H2123 H 0.40028 0.7273 0.24436 0.0
H2124 H 0.3387 0.68829 0.28881 0.0
H2125 H 0.37233 0.66974 0.31719 0.0
C2126 C 0.42609 0.68715 0.32064 0.0
C2127 C 0.45287 0.70054 0.32118 0.0
C2128 C 0.40625 0.68988 0.29882 0.0
C2129 C 0.46064 0.71263 0.29772 0.0
C2130 C 0.44133 0.71429 0.27536 0.0
C2131 C 0.3941 0.71333 0.25904 0.0
C2132 C 0.36742 0.70941 0.26496 0.0
C2133 C 0.4139 0.70473 0.27673 0.0
C2134 C 0.35928 0.69146 0.28398 0.0
C2135 C 0.37866 0.6814 0.30068 0.0
H2136 H 0.19466 0.83559 0.19586 0.0
H2137 H 0.14347 0.85007 0.12332 0.0
H2138 H 0.14129 0.80572 0.10347 0.0
H2139 H 0.15195 0.76209 0.108 0.0
H2140 H 0.20276 0.7481 0.18102 0.0
H2141 H 0.20729 0.7931 0.19924 0.0
C2142 C 0.18313 0.82913 0.17563 0.0
C2143 C 0.16902 0.84601 0.16122 0.0
C2144 C 0.18183 0.80366 0.16445 0.0
C2145 C 0.15447 0.83743 0.13488 0.0
C2146 C 0.15312 0.81204 0.12356 0.0
C2147 C 0.16395 0.7689 0.12792 0.0
C2148 C 0.17679 0.75164 0.14322 0.0
C2149 C 0.16635 0.79486 0.13839 0.0
C2150 C 0.19275 0.76091 0.16874 0.0
C2151 C 0.19525 0.78665 0.17926 0.0
H2152 H 0.11303 0.32139 0.89804 0.0
H2153 H 0.10177 0.23813 0.88062 0.0
H2154 H 0.14188 0.24389 0.85697 0.0
H2155 H 0.17932 0.2726 0.84021 0.0
H2156 H 0.18946 0.3559 0.85538 0.0
H2157 H 0.15039 0.35021 0.88086 0.0
C2158 C 0.11954 0.30453 0.88927 0.0
C2159 C 0.10464 0.27939 0.89114 0.0
C2160 C 0.14221 0.30802 0.87518 0.0
C2161 C 0.11296 0.25768 0.87936 0.0
C2162 C 0.13585 0.26095 0.86586 0.0
C2163 C 0.17304 0.28945 0.8493 0.0
C2164 C 0.18716 0.31459 0.84616 0.0
C2165 C 0.15049 0.28602 0.86349 0.0
C2166 C 0.17869 0.33637 0.85753 0.0
C2167 C 0.15649 0.33311 0.87214 0.0
H2168 H 0.59381 0.70289 0.93546 0.0
H2169 H 0.60578 0.75771 1.00714 0.0
H2170 H 0.60389 0.72137 0.03719 0.0
H2171 H 0.59928 0.67284 0.04364 0.0
H2172 H 0.58766 0.61953 0.97051 0.0
H2173 H 0.58891 0.65582 0.9415 0.0
C2174 C 0.59602 0.70725 0.95767 0.0
C2175 C 0.59999 0.73385 0.96846 0.0
C2176 C 0.59493 0.68598 0.97504 0.0
C2177 C 0.60272 0.73803 0.99761 0.0
C2178 C 0.60162 0.71696 1.01499 0.0
C2179 C 0.59683 0.66899 0.02135 0.0
C2180 C 0.59326 0.64252 1.00985 0.0
C2181 C 0.59775 0.69064 1.00408 0.0
C2182 C 0.59042 0.63895 0.98064 0.0
C2183 C 0.59116 0.66 0.96374 0.0
H2184 H 0.16484 0.7783 0.73674 0.0
H2185 H 0.17739 0.85153 0.69987 0.0
H2186 H 0.22594 0.85906 0.71798 0.0
H2187 H 0.26601 0.8441 0.74404 0.0
H2188 H 0.25086 0.77135 0.78203 0.0
H2189 H 0.20313 0.76467 0.76387 0.0
C2190 C 0.17802 0.79608 0.73267 0.0
C2191 C 0.16685 0.81425 0.71668 0.0
C2192 C 0.20603 0.80039 0.74341 0.0
C2193 C 0.18484 0.83712 0.71207 0.0
C2194 C 0.21287 0.84138 0.72241 0.0
C2195 C 0.25231 0.82679 0.74838 0.0
C2196 C 0.26279 0.80826 0.76466 0.0
C2197 C 0.22393 0.82306 0.73804 0.0
C2198 C 0.24408 0.78614 0.7699 0.0
C2199 C 0.21645 0.78219 0.75939 0.0
H2200 H 0.15055 0.40998 0.50956 0.0
H2201 H 0.08055 0.39063 0.44704 0.0
H2202 H 0.06854 0.43286 0.45883 0.0
H2203 H 0.07791 0.47653 0.48725 0.0
H2204 H 0.14798 0.49415 0.55004 0.0
H2205 H 0.15945 0.45229 0.53781 0.0
C2206 C 0.13254 0.41474 0.49835 0.0
C2207 C 0.11664 0.39628 0.47713 0.0
C2208 C 0.1256 0.43936 0.5054 0.0
C2209 C 0.09343 0.40372 0.46336 0.0
C2210 C 0.08651 0.42819 0.47017 0.0
C2211 C 0.09574 0.47135 0.49834 0.0
C2212 C 0.11194 0.48944 0.51987 0.0
C2213 C 0.10242 0.44641 0.49119 0.0
C2214 C 0.13484 0.48144 0.53358 0.0
C2215 C 0.14154 0.45716 0.52651 0.0
H2216 H 0.48534 0.27594 0.20725 0.0
H2217 H 0.52907 0.35471 0.22868 0.0
H2218 H 0.49356 0.36312 0.25607 0.0
H2219 H 0.44851 0.34824 0.27374 0.0
H2220 H 0.4062 0.26895 0.25115 0.0
H2221 H 0.44212 0.26106 0.22519 0.0
C2222 C 0.48742 0.29507 0.21788 0.0
C2223 C 0.51057 0.31459 0.21538 0.0
C2224 C 0.46668 0.29981 0.23377 0.0
C2225 C 0.51204 0.33908 0.22978 0.0
C2226 C 0.49146 0.34392 0.2456 0.0
C2227 C 0.44714 0.32913 0.26336 0.0
C2228 C 0.42384 0.30928 0.26497 0.0
C2229 C 0.46845 0.32448 0.2478 0.0
C2230 C 0.42318 0.28484 0.2508 0.0
C2231 C 0.44399 0.28021 0.23569 0.0
H2232 H 0.70576 0.55127 0.40418 0.0
H2233 H 0.76507 0.57975 0.47597 0.0
H2234 H 0.7297 0.57084 0.5059 0.0
H2235 H 0.68156 0.5592 0.51087 0.0
H2236 H 0.62202 0.53506 0.43836 0.0
H2237 H 0.65817 0.53815 0.40923 0.0
C2238 C 0.71114 0.55541 0.42639 0.0
C2239 C 0.73802 0.56643 0.43782 0.0
C2240 C 0.69065 0.55122 0.4432 0.0
C2241 C 0.74452 0.57142 0.46666 0.0
C2242 C 0.7243 0.56641 0.48373 0.0
C2243 C 0.67647 0.55423 0.48872 0.0
C2244 C 0.64917 0.54694 0.47667 0.0
C2245 C 0.69723 0.55694 0.47211 0.0
C2246 C 0.64288 0.54082 0.448 0.0
C2247 C 0.66352 0.5426 0.4314 0.0
H2248 H 0.37424 0.86453 0.12461 0.0
H2249 H 0.2875 0.85281 0.1026 0.0
H2250 H 0.281 0.82493 0.14049 0.0
H2251 H 0.29974 0.80521 0.18097 0.0
H2252 H 0.38646 0.81741 0.20356 0.0
H2253 H 0.39305 0.84358 0.16432 0.0
C2254 C 0.3539 0.85575 0.12796 0.0
C2255 C 0.33141 0.86088 0.11074 0.0
C2256 C 0.35026 0.83982 0.14997 0.0
C2257 C 0.30522 0.8493 0.11548 0.0
C2258 C 0.30145 0.83334 0.1372 0.0
C2259 C 0.32012 0.8134 0.17725 0.0
C2260 C 0.34254 0.80925 0.19529 0.0
C2261 C 0.3238 0.82865 0.15474 0.0
C2262 C 0.36878 0.82015 0.19005 0.0
C2263 C 0.37259 0.83521 0.16761 0.0
H2264 H 0.08265 0.68412 0.92566 0.0
H2265 H 1.01648 0.61953 0.90073 0.0
H2266 H 1.038 0.5921 0.93173 0.0
H2267 H 0.07278 0.58845 0.96988 0.0
H2268 H 0.13504 0.65534 1.00062 0.0
H2269 H 0.11827 0.68014 0.96347 0.0
C2270 C 0.0733 0.66388 0.92676 0.0
C2271 C 0.04872 0.65318 0.90998 0.0
C2272 C 0.08509 0.6489 0.94588 0.0
C2273 C 1.03628 0.62733 0.91206 0.0
C2274 C 0.04831 0.61195 0.93026 0.0
C2275 C 0.08312 0.60822 0.96794 0.0
C2276 C 0.10525 0.62005 0.98762 0.0
C2277 C 0.07248 0.62268 0.94759 0.0
C2278 C 0.11806 0.64588 0.98547 0.0
C2279 C 0.10838 0.66006 0.9644 0.0
H2280 H 0.3217 0.22838 0.6333 0.0
H2281 H 0.40771 0.24473 0.63049 0.0
H2282 H 0.41498 0.26871 0.67653 0.0
H2283 H 0.39655 0.28497 0.71867 0.0
H2284 H 0.31 0.26748 0.71927 0.0
H2285 H 0.30369 0.24438 0.67373 0.0
C2286 C 0.34218 0.23717 0.64251 0.0
C2287 C 0.36408 0.23447 0.62781 0.0
C2288 C 0.3462 0.25091 0.66911 0.0
C2289 C 0.39031 0.24628 0.64077 0.0
C2290 C 0.39447 0.26005 0.66734 0.0
C2291 C 0.37629 0.27612 0.7089 0.0
C2292 C 0.35381 0.27829 0.72317 0.0
C2293 C 0.37255 0.26249 0.68192 0.0
C2294 C 0.32784 0.26649 0.70952 0.0
C2295 C 0.32412 0.25311 0.68316 0.0
H2296 H 0.66393 0.58801 0.33104 0.0
H2297 H 0.71381 0.5524 0.28118 0.0
H2298 H 0.67995 0.54997 0.24047 0.0
H2299 H 0.63922 0.56265 0.21823 0.0
H2300 H 0.59124 0.60206 0.26668 0.0
H2301 H 0.62112 0.59799 0.30906 0.0
C2302 C 0.66717 0.57938 0.31134 0.0
C2303 C 0.69138 0.57059 0.30899 0.0
C2304 C 0.64801 0.57878 0.28787 0.0
C2305 C 0.69544 0.55956 0.28337 0.0
C2306 C 0.67609 0.55811 0.26014 0.0
C2307 C 0.63481 0.56962 0.23818 0.0
C2308 C 0.613 0.5824 0.23951 0.0
C2309 C 0.65268 0.56827 0.26203 0.0
C2310 C 0.60789 0.59201 0.26532 0.0
C2311 C 0.62505 0.58984 0.28943 0.0
H2312 H 0.3366 0.83234 0.97952 0.0
H2313 H 0.36424 0.91333 0.96706 0.0
H2314 H 0.36181 0.90222 0.91748 0.0
H2315 H 0.35261 0.86943 0.87759 0.0
H2316 H 0.32584 0.78835 0.89037 0.0
H2317 H 0.327 0.79967 0.93967 0.0
C2318 C 0.34204 0.8476 0.96599 0.0
C2319 C 0.35062 0.87364 0.97715 0.0
C2320 C 0.34069 0.84109 0.93742 0.0
C2321 C 0.3576 0.89311 0.95917 0.0
C2322 C 0.35618 0.88679 0.93074 0.0
C2323 C 0.34681 0.85423 0.89109 0.0
C2324 C 0.3391 0.82804 0.88014 0.0
C2325 C 0.34782 0.86083 0.91962 0.0
C2326 C 0.3319 0.80865 0.89811 0.0
C2327 C 0.33257 0.8151 0.92639 0.0
H2328 H 0.08303 0.59163 0.82063 0.0
H2329 H 0.11415 0.67201 0.80863 0.0
H2330 H 0.13732 0.65827 0.77102 0.0
H2331 H 0.14093 0.62367 0.73614 0.0
H2332 H 0.10704 0.5436 0.74682 0.0
H2333 H 0.09265 0.55692 0.79038 0.0
C2334 C 0.09541 0.60615 0.8102 0.0
C2335 C 0.09641 0.63276 0.81691 0.0
C2336 C 0.10769 0.59813 0.78801 0.0
C2337 C 0.11292 0.65139 0.80369 0.0
C2338 C 0.12594 0.64353 0.782 0.0
C2339 C 0.13108 0.60912 0.74844 0.0
C2340 C 0.12459 0.58276 0.73816 0.0
C2341 C 0.1223 0.617 0.77311 0.0
C2342 C 0.11175 0.56405 0.75415 0.0
C2343 C 0.10358 0.57165 0.77903 0.0
H2344 H 0.40739 0.26971 0.47312 0.0
H2345 H 0.33792 0.20682 0.45597 0.0
H2346 H 0.32758 0.22131 0.40956 0.0
H2347 H 0.33802 0.25237 0.37309 0.0
H2348 H 0.40721 0.31556 0.39163 0.0
H2349 H 0.41761 0.30044 0.43736 0.0
C2350 C 0.38989 0.259 0.45938 0.0
C2351 C 0.37355 0.2369 0.46876 0.0
C2352 C 0.38394 0.2676 0.43244 0.0
C2353 C 0.35102 0.22376 0.44999 0.0
C2354 C 0.34509 0.23212 0.42318 0.0
C2355 C 0.35551 0.26283 0.38698 0.0
C2356 C 0.37182 0.28531 0.37811 0.0
C2357 C 0.36138 0.25406 0.414 0.0
C2358 C 0.39416 0.29835 0.39715 0.0
C2359 C 0.40017 0.28965 0.42362 0.0
H2360 H 0.41563 0.6758 0.47676 0.0
H2361 H 0.37336 0.63582 0.53822 0.0
H2362 H 0.39325 0.59781 0.52905 0.0
H2363 H 0.42284 0.57608 0.50393 0.0
H2364 H 0.46635 0.61692 0.44369 0.0
H2365 H 0.44496 0.65391 0.4514 0.0
C2366 C 0.41081 0.65883 0.48825 0.0
C2367 C 0.39315 0.6588 0.50829 0.0
C2368 C 0.42223 0.63697 0.48283 0.0
C2369 C 0.38701 0.63649 0.52279 0.0
C2370 C 0.39829 0.61468 0.51748 0.0
C2371 C 0.42789 0.59308 0.49257 0.0
C2372 C 0.44659 0.59354 0.47345 0.0
C2373 C 0.41598 0.61472 0.49759 0.0
C2374 C 0.45199 0.61563 0.45839 0.0
C2375 C 0.43994 0.63705 0.46298 0.0
H2376 H 0.91807 0.99131 0.50453 0.0
H2377 H 0.9165 0.99732 0.59263 0.0
H2378 H 0.96444 1.01925 0.59994 0.0
H2379 H 1.00804 0.03589 0.58112 0.0
H2380 H 1.00756 0.02966 0.49252 0.0
H2381 H 0.95996 1.00898 0.48596 0.0
C2382 C 0.92799 0.99745 0.52545 0.0
C2383 C 0.9131 0.99236 0.54797 0.0
C2384 C 0.95571 1.01014 0.5295 0.0
C2385 C 0.92693 1.00081 0.57477 0.0
C2386 C 0.95458 1.01338 0.57896 0.0
C2387 C 0.99753 0.0302 0.56034 0.0
C2388 C 1.01214 0.03456 0.53738 0.0
C2389 C 0.96939 1.01807 0.55649 0.0
C2390 C 0.99758 0.02676 0.51075 0.0
C2391 C 0.97004 1.0148 0.50688 0.0
H2392 H 0.83535 0.07982 0.21281 0.0
H2393 H 0.88438 0.1388 0.17254 0.0
H2394 H 0.85611 0.16977 0.18339 0.0
H2395 H 0.82395 0.18222 0.21235 0.0
H2396 H 0.77548 0.12381 0.25376 0.0
H2397 H 0.79689 0.09035 0.23406 0.0
C2398 C 0.8395 0.09929 0.20588 0.0
C2399 C 0.86239 0.10721 0.19256 0.0
C2400 C 0.8235 0.11717 0.21269 0.0
C2401 C 0.86714 0.13229 0.18317 0.0
C2402 C 0.85104 0.15007 0.18948 0.0
C2403 C 0.81719 0.16204 0.21625 0.0
C2404 C 0.79854 0.15564 0.23504 0.0
C2405 C 0.83004 0.14307 0.20541 0.0
C2406 C 0.79023 0.12934 0.23986 0.0
C2407 C 0.80253 0.11023 0.22867 0.0
H2408 H 0.7417 0.15849 0.99715 0.0
H2409 H 0.72634 0.21596 0.05686 0.0
H2410 H 0.68297 0.18841 0.06137 0.0
H2411 H 0.65197 0.14622 0.05224 0.0
H2412 H 0.66585 0.0888 0.9919 0.0
H2413 H 0.70722 0.11827 0.98332 0.0
C2414 C 0.72867 0.16507 1.01088 0.0
C2415 C 0.73736 0.189 0.027 0.0
C2416 C 0.70366 0.14916 1.0133 0.0
C2417 C 0.72016 0.19756 0.04435 0.0
C2418 C 0.6954 0.1818 0.04702 0.0
C2419 C 0.66389 0.14038 0.03689 0.0
C2420 C 0.65635 0.11545 0.02292 0.0
C2421 C 0.68736 0.15731 0.03218 0.0
C2422 C 0.67147 0.10802 1.0028 0.0
C2423 C 0.69513 0.12476 0.9981 0.0
H2424 H 0.22062 0.46734 0.26385 0.0
H2425 H 0.18326 0.39481 0.29284 0.0
H2426 H 0.22618 0.39215 0.32038 0.0
H2427 H 0.27481 0.40857 0.33283 0.0
H2428 H 0.31227 0.48136 0.30444 0.0
H2429 H 0.2685 0.48595 0.28014 0.0
C2430 C 0.22187 0.45096 0.27622 0.0
C2431 C 0.19896 0.43106 0.27597 0.0
C2432 C 0.24649 0.44968 0.29212 0.0
C2433 C 0.20069 0.41025 0.29253 0.0
C2434 C 0.22519 0.40874 0.30829 0.0
C2435 C 0.27336 0.42585 0.32205 0.0
C2436 C 0.29686 0.44455 0.32038 0.0
C2437 C 0.24828 0.42816 0.3079 0.0
C2438 C 0.29455 0.46656 0.30583 0.0
C2439 C 0.26957 0.46915 0.29187 0.0
H2440 H 0.26923 0.53421 0.03585 0.0
H2441 H 0.23726 0.4597 0.06389 0.0
H2442 H 0.19335 0.47289 0.06566 0.0
H2443 H 0.16327 0.50667 0.05982 0.0
H2444 H 0.19787 0.58109 0.03289 0.0
H2445 H 0.24038 0.56683 0.03004 0.0
C2446 C 0.2528 0.5206 0.04237 0.0
C2447 C 0.25732 0.4957 0.0497 0.0
C2448 C 0.22741 0.52843 0.04344 0.0
C2449 C 0.23509 0.47889 0.05808 0.0
C2450 C 0.20969 0.48653 0.05905 0.0
C2451 C 0.17995 0.51968 0.05296 0.0
C2452 C 0.17655 0.54523 0.04633 0.0
C2453 C 0.2054 0.51135 0.05177 0.0
C2454 C 0.19916 0.56152 0.03811 0.0
C2455 C 0.22382 0.55332 0.03649 0.0
H2456 H 0.87058 0.97762 0.2223 0.0
H2457 H 0.95265 0.96548 0.22588 0.0
H2458 H 0.93935 0.92289 0.24358 0.0
H2459 H 0.90483 0.89052 0.2614 0.0
H2460 H 0.82351 0.90485 0.25919 0.0
H2461 H 0.83625 0.94512 0.23784 0.0
C2462 C 0.88554 0.96555 0.22653 0.0
C2463 C 0.91256 0.97478 0.22286 0.0
C2464 C 0.87798 0.94155 0.23741 0.0
C2465 C 0.93166 0.95884 0.22855 0.0
C2466 C 0.92412 0.93455 0.23884 0.0
C2467 C 0.88994 0.90245 0.25616 0.0
C2468 C 0.86336 0.89474 0.26223 0.0
C2469 C 0.89743 0.92595 0.24396 0.0
C2470 C 0.84423 0.91037 0.25514 0.0
C2471 C 0.85142 0.93342 0.24277 0.0
H2472 H 0.69313 0.04452 0.73753 0.0
H2473 H 0.61757 0.06727 0.70928 0.0
H2474 H 0.64203 0.11077 0.70241 0.0
H2475 H 0.6845 0.14354 0.70899 0.0
H2476 H 0.75977 0.12065 0.73817 0.0
H2477 H 0.73571 0.0761 0.74047 0.0
C2478 C 0.68199 0.05885 0.72949 0.0
C2479 C 0.65353 0.05277 0.7243 0.0
C2480 C 0.6961 0.08396 0.72623 0.0
C2481 C 0.63947 0.07156 0.71379 0.0
C2482 C 0.65344 0.09646 0.70992 0.0
C2483 C 0.6957 0.12872 0.71543 0.0
C2484 C 0.72388 0.13555 0.72375 0.0
C2485 C 0.6817 0.1031 0.71681 0.0
C2486 C 0.73801 0.11609 0.73224 0.0
C2487 C 0.7243 0.09055 0.73338 0.0
loop_
_geom_bond_atom_site_label_1
_geom_bond_atom_site_label_2
_geom_bond_distance
_geom_bond_site_symmetry_2
_ccdc_geom_bond_type
C0 O1 1.160 . S
C0 O7 1.185 . S
O1 C0 1.160 . S
O2 Zn3 1.899 . S
O2 C10 1.284 . S
Zn3 O2 1.899 . S
Zn3 O4 2.032 . S
Zn3 O7 2.086 . S
Zn3 O12 1.977 . S
O4 Zn3 2.032 . S
O4 C8 1.278 . S
C5 O6 1.203 1_455 S
C5 O12 1.267 . S
O6 C5 1.203 1_655 S
O7 C0 1.185 . S
O7 Zn3 2.086 . S
C8 O4 1.278 . S
C8 O9 1.211 . S
O9 C8 1.211 . S
C10 O2 1.284 . S
C10 O11 1.273 . S
O11 C10 1.273 . S
O12 Zn3 1.977 . S
O12 C5 1.267 . S
C13 O14 1.160 1_455 S
C13 O20 1.185 . S
O14 C13 1.160 1_655 S
O15 Zn16 1.899 . S
O15 C23 1.284 . S
Zn16 O15 1.899 . S
Zn16 O17 2.032 . S
Zn16 O20 2.086 . S
Zn16 O25 1.977 . S
O17 Zn16 2.032 . S
O17 C21 1.278 . S
C18 O19 1.203 . S
C18 O25 1.267 . S
O19 C18 1.203 . S
O20 C13 1.185 . S
O20 Zn16 2.086 . S
C21 O17 1.278 . S
C21 O22 1.211 . S
O22 C21 1.211 . S
C23 O15 1.284 . S
C23 O24 1.273 . S
O24 C23 1.273 . S
O25 Zn16 1.977 . S
O25 C18 1.267 . S
C26 O27 1.160 . S
C26 O33 1.185 . S
O27 C26 1.160 . S
O28 Zn29 1.899 . S
O28 C36 1.284 . S
Zn29 O28 1.899 . S
Zn29 O30 2.032 . S
Zn29 O33 2.086 . S
Zn29 O38 1.977 . S
O30 Zn29 2.032 . S
O30 C34 1.278 . S
C31 O32 1.203 . S
C31 O38 1.267 . S
O32 C31 1.203 . S
O33 C26 1.185 . S
O33 Zn29 2.086 . S
C34 O30 1.278 . S
C34 O35 1.211 . S
O35 C34 1.211 . S
C36 O28 1.284 . S
C36 O37 1.273 . S
O37 C36 1.273 . S
O38 Zn29 1.977 . S
O38 C31 1.267 . S
C39 O40 1.160 . S
C39 O46 1.185 . S
O40 C39 1.160 . S
O41 Zn42 1.899 . S
O41 C49 1.284 . S
Zn42 O41 1.899 . S
Zn42 O43 2.032 . S
Zn42 O46 2.086 . S
Zn42 O51 1.977 . S
O43 Zn42 2.032 . S
O43 C47 1.278 . S
C44 O45 1.203 . S
C44 O51 1.267 . S
O45 C44 1.203 . S
O46 C39 1.185 . S
O46 Zn42 2.086 . S
C47 O43 1.278 . S
C47 O48 1.211 . S
O48 C47 1.211 . S
C49 O41 1.284 . S
C49 O50 1.273 . S
O50 C49 1.273 . S
O51 Zn42 1.977 . S
O51 C44 1.267 . S
C52 O53 1.160 . S
C52 O59 1.185 . S
O53 C52 1.160 . S
O54 Zn55 1.899 . S
O54 C62 1.284 . S
Zn55 O54 1.899 . S
Zn55 O56 2.032 . S
Zn55 O59 2.086 . S
Zn55 O64 1.977 . S
O56 Zn55 2.032 . S
O56 C60 1.278 . S
C57 O58 1.203 . S
C57 O64 1.267 . S
O58 C57 1.203 . S
O59 C52 1.185 . S
O59 Zn55 2.086 . S
C60 O56 1.278 . S
C60 O61 1.211 . S
O61 C60 1.211 . S
C62 O54 1.284 . S
C62 O63 1.273 . S
O63 C62 1.273 . S
O64 Zn55 1.977 . S
O64 C57 1.267 . S
C65 O66 1.160 . S
C65 O72 1.185 . S
O66 C65 1.160 . S
O67 Zn68 1.899 . S
O67 C75 1.284 . S
Zn68 O67 1.899 . S
Zn68 O69 2.032 . S
Zn68 O72 2.086 . S
Zn68 O77 1.977 . S
O69 Zn68 2.032 . S
O69 C73 1.278 . S
C70 O71 1.203 . S
C70 O77 1.267 . S
O71 C70 1.203 . S
O72 C65 1.185 . S
O72 Zn68 2.086 . S
C73 O69 1.278 . S
C73 O74 1.211 . S
O74 C73 1.211 . S
C75 O67 1.284 . S
C75 O76 1.273 . S
O76 C75 1.273 . S
O77 Zn68 1.977 . S
O77 C70 1.267 . S
C78 O79 1.160 . S
C78 O85 1.185 . S
O79 C78 1.160 . S
O80 Zn81 1.899 . S
O80 C88 1.284 . S
Zn81 O80 1.899 . S
Zn81 O82 2.032 . S
Zn81 O85 2.086 . S
Zn81 O90 1.977 . S
O82 Zn81 2.032 . S
O82 C86 1.278 . S
C83 O84 1.203 . S
C83 O90 1.267 . S
O84 C83 1.203 . S
O85 C78 1.185 . S
O85 Zn81 2.086 . S
C86 O82 1.278 . S
C86 O87 1.211 . S
O87 C86 1.211 . S
C88 O80 1.284 . S
C88 O89 1.273 . S
O89 C88 1.273 . S
O90 Zn81 1.977 . S
O90 C83 1.267 . S
C91 O92 1.160 . S
C91 O98 1.185 . S
O92 C91 1.160 . S
O93 Zn94 1.901 1_655 S
O93 C101 1.287 . S
Zn94 O93 1.901 1_455 S
Zn94 O95 2.032 . S
Zn94 O98 2.086 . S
Zn94 O103 1.977 1_455 S
O95 Zn94 2.032 . S
O95 C99 1.278 . S
C96 O97 1.203 . S
C96 O103 1.267 . S
O97 C96 1.203 . S
O98 C91 1.185 . S
O98 Zn94 2.086 . S
C99 O95 1.278 . S
C99 O100 1.211 1_455 S
O100 C99 1.211 1_655 S
C101 O93 1.287 . S
C101 O102 1.273 . S
O102 C101 1.273 . S
O103 Zn94 1.977 1_655 S
O103 C96 1.267 . S
C104 O105 1.160 . S
C104 O111 1.185 . S
O105 C104 1.160 . S
O106 Zn107 1.899 . S
O106 C114 1.284 . S
Zn107 O106 1.899 . S
Zn107 O108 2.032 . S
Zn107 O111 2.086 . S
Zn107 O116 1.977 . S
O108 Zn107 2.032 . S
O108 C112 1.278 . S
C109 O110 1.203 . S
C109 O116 1.267 . S
O110 C109 1.203 . S
O111 C104 1.185 . S
O111 Zn107 2.086 . S
C112 O108 1.278 . S
C112 O113 1.211 . S
O113 C112 1.211 . S
C114 O106 1.284 . S
C114 O115 1.273 . S
O115 C114 1.273 . S
O116 Zn107 1.977 . S
O116 C109 1.267 . S
C117 O118 1.160 . S
C117 O124 1.185 . S
O118 C117 1.160 . S
O119 Zn120 1.899 . S
O119 C127 1.284 . S
Zn120 O119 1.899 . S
Zn120 O121 2.032 . S
Zn120 O124 2.086 . S
Zn120 O129 1.977 . S
O121 Zn120 2.032 . S
O121 C125 1.278 . S
C122 O123 1.203 . S
C122 O129 1.267 . S
O123 C122 1.203 . S
O124 C117 1.185 . S
O124 Zn120 2.086 . S
C125 O121 1.278 . S
C125 O126 1.211 . S
O126 C125 1.211 . S
C127 O119 1.284 . S
C127 O128 1.273 . S
O128 C127 1.273 . S
O129 Zn120 1.977 . S
O129 C122 1.267 . S
C130 O131 1.160 . S
C130 O137 1.185 . S
O131 C130 1.160 . S
O132 Zn133 1.899 . S
O132 C140 1.284 . S
Zn133 O132 1.899 . S
Zn133 O134 2.032 . S
Zn133 O137 2.086 . S
Zn133 O142 1.977 . S
O134 Zn133 2.032 . S
O134 C138 1.278 . S
C135 O136 1.203 . S
C135 O142 1.267 . S
O136 C135 1.203 . S
O137 C130 1.185 . S
O137 Zn133 2.086 . S
C138 O134 1.278 . S
C138 O139 1.211 . S
O139 C138 1.211 . S
C140 O132 1.284 . S
C140 O141 1.273 . S
O141 C140 1.273 . S
O142 Zn133 1.977 . S
O142 C135 1.267 . S
C143 O144 1.160 . S
C143 O150 1.185 . S
O144 C143 1.160 . S
O145 Zn146 1.899 . S
O145 C153 1.284 . S
Zn146 O145 1.899 . S
Zn146 O147 2.032 . S
Zn146 O150 2.086 . S
Zn146 O155 1.977 . S
O147 Zn146 2.032 . S
O147 C151 1.278 . S
C148 O149 1.203 . S
C148 O155 1.267 . S
O149 C148 1.203 . S
O150 C143 1.185 . S
O150 Zn146 2.086 . S
C151 O147 1.278 . S
C151 O152 1.211 . S
O152 C151 1.211 . S
C153 O145 1.284 . S
C153 O154 1.273 . S
O154 C153 1.273 . S
O155 Zn146 1.977 . S
O155 C148 1.267 . S
C156 O157 1.160 . S
C156 O163 1.185 . S
O157 C156 1.160 . S
O158 Zn159 1.899 . S
O158 C166 1.284 . S
Zn159 O158 1.899 . S
Zn159 O160 2.032 . S
Zn159 O163 2.086 . S
Zn159 O168 1.977 . S
O160 Zn159 2.032 . S
O160 C164 1.278 1_554 S
C161 O162 1.203 . S
C161 O168 1.267 . S
O162 C161 1.203 . S
O163 C156 1.185 . S
O163 Zn159 2.086 . S
C164 O160 1.278 1_556 S
C164 O165 1.211 . S
O165 C164 1.211 . S
C166 O158 1.284 . S
C166 O167 1.273 . S
O167 C166 1.273 . S
O168 Zn159 1.977 . S
O168 C161 1.267 . S
C169 O170 1.160 . S
C169 O176 1.185 1_554 S
O170 C169 1.160 . S
O171 Zn172 1.899 . S
O171 C179 1.284 . S
Zn172 O171 1.899 . S
Zn172 O173 2.032 1_554 S
Zn172 O176 2.086 1_554 S
Zn172 O181 1.977 1_554 S
O173 Zn172 2.032 1_556 S
O173 C177 1.278 . S
C174 O175 1.203 1_556 S
C174 O181 1.267 . S
O175 C174 1.203 1_554 S
O176 C169 1.185 1_556 S
O176 Zn172 2.086 1_556 S
C177 O173 1.278 . S
C177 O178 1.211 . S
O178 C177 1.211 . S
C179 O171 1.284 . S
C179 O180 1.273 . S
O180 C179 1.273 . S
O181 Zn172 1.977 1_556 S
O181 C174 1.267 . S
C182 O183 1.160 . S
C182 O189 1.185 . S
O183 C182 1.160 . S
O184 Zn185 1.899 . S
O184 C192 1.284 . S
Zn185 O184 1.899 . S
Zn185 O186 2.032 . S
Zn185 O189 2.086 . S
Zn185 O194 1.977 . S
O186 Zn185 2.032 . S
O186 C190 1.278 . S
C187 O188 1.203 . S
C187 O194 1.267 . S
O188 C187 1.203 . S
O189 C182 1.185 . S
O189 Zn185 2.086 . S
C190 O186 1.278 . S
C190 O191 1.211 . S
O191 C190 1.211 . S
C192 O184 1.284 . S
C192 O193 1.273 . S
O193 C192 1.273 . S
O194 Zn185 1.977 . S
O194 C187 1.267 . S
C195 O196 1.160 . S
C195 O202 1.185 . S
O196 C195 1.160 . S
O197 Zn198 1.899 . S
O197 C205 1.284 . S
Zn198 O197 1.899 . S
Zn198 O199 2.032 . S
Zn198 O202 2.086 . S
Zn198 O207 1.977 . S
O199 Zn198 2.032 . S
O199 C203 1.278 . S
C200 O201 1.203 . S
C200 O207 1.267 . S
O201 C200 1.203 . S
O202 C195 1.185 . S
O202 Zn198 2.086 . S
C203 O199 1.278 . S
C203 O204 1.211 . S
O204 C203 1.211 . S
C205 O197 1.284 . S
C205 O206 1.273 . S
O206 C205 1.273 . S
O207 Zn198 1.977 . S
O207 C200 1.267 . S
C208 O209 1.160 . S
C208 O215 1.185 . S
O209 C208 1.160 . S
O210 Zn211 1.899 . S
O210 C218 1.285 . S
Zn211 O210 1.899 . S
Zn211 O212 2.032 . S
Zn211 O215 2.086 . S
Zn211 O220 1.977 1_545 S
O212 Zn211 2.032 . S
O212 C216 1.278 . S
C213 O214 1.203 . S
C213 O220 1.267 . S
O214 C213 1.203 . S
O215 C208 1.185 . S
O215 Zn211 2.086 . S
C216 O212 1.278 . S
C216 O217 1.211 1_545 S
O217 C216 1.211 1_565 S
C218 O210 1.285 . S
C218 O219 1.272 1_545 S
O219 C218 1.272 1_565 S
O220 Zn211 1.977 1_565 S
O220 C213 1.267 . S
C221 O222 1.160 . S
C221 O228 1.185 . S
O222 C221 1.160 . S
O223 Zn224 1.899 . S
O223 C231 1.284 . S
Zn224 O223 1.899 . S
Zn224 O225 2.032 . S
Zn224 O228 2.086 . S
Zn224 O233 1.977 . S
O225 Zn224 2.032 . S
O225 C229 1.278 . S
C226 O227 1.203 . S
C226 O233 1.267 . S
O227 C226 1.203 . S
O228 C221 1.185 . S
O228 Zn224 2.086 . S
C229 O225 1.278 . S
C229 O230 1.211 . S
O230 C229 1.211 . S
C231 O223 1.284 . S
C231 O232 1.273 . S
O232 C231 1.273 . S
O233 Zn224 1.977 . S
O233 C226 1.267 . S
C234 O235 1.160 . S
C234 O241 1.185 . S
O235 C234 1.160 . S
O236 Zn237 1.899 . S
O236 C244 1.284 . S
Zn237 O236 1.899 . S
Zn237 O238 2.032 . S
Zn237 O241 2.086 . S
Zn237 O246 1.977 . S
O238 Zn237 2.032 . S
O238 C242 1.278 . S
C239 O240 1.203 . S
C239 O246 1.267 . S
O240 C239 1.203 . S
O241 C234 1.185 . S
O241 Zn237 2.086 . S
C242 O238 1.278 . S
C242 O243 1.211 . S
O243 C242 1.211 . S
C244 O236 1.284 . S
C244 O245 1.273 . S
O245 C244 1.273 . S
O246 Zn237 1.977 . S
O246 C239 1.267 . S
C247 O248 1.160 . S
C247 O254 1.185 . S
O248 C247 1.160 . S
O249 Zn250 1.899 1_565 S
O249 C257 1.269 1_565 S
Zn250 O249 1.899 1_545 S
Zn250 O251 2.032 1_545 S
Zn250 O254 2.086 1_545 S
Zn250 O259 1.977 . S
O251 Zn250 2.032 1_565 S
O251 C255 1.278 1_565 S
C252 O253 1.203 . S
C252 O259 1.267 . S
O253 C252 1.203 . S
O254 C247 1.185 . S
O254 Zn250 2.086 1_565 S
C255 O251 1.278 1_545 S
C255 O256 1.211 . S
O256 C255 1.211 . S
C257 O249 1.269 1_545 S
C257 O258 1.292 . S
O258 C257 1.292 . S
O259 Zn250 1.977 . S
O259 C252 1.267 . S
C260 O261 1.160 . S
C260 O267 1.185 . S
O261 C260 1.160 . S
O262 Zn263 1.899 . S
O262 C270 1.284 . S
Zn263 O262 1.899 . S
Zn263 O264 2.032 1_554 S
Zn263 O267 2.086 . S
Zn263 O272 1.977 . S
O264 Zn263 2.032 1_556 S
O264 C268 1.278 . S
C265 O266 1.203 . S
C265 O272 1.267 . S
O266 C265 1.203 . S
O267 C260 1.185 . S
O267 Zn263 2.086 . S
C268 O264 1.278 . S
C268 O269 1.211 . S
O269 C268 1.211 . S
C270 O262 1.284 . S
C270 O271 1.273 . S
O271 C270 1.273 . S
O272 Zn263 1.977 . S
O272 C265 1.267 . S
C273 O274 1.160 . S
C273 O280 1.185 . S
O274 C273 1.160 . S
O275 Zn276 1.899 1_455 S
O275 C283 1.284 . S
Zn276 O275 1.899 1_655 S
Zn276 O277 2.032 1_655 S
Zn276 O280 2.086 . S
Zn276 O285 1.977 . S
O277 Zn276 2.032 1_455 S
O277 C281 1.278 . S
C278 O279 1.203 . S
C278 O285 1.267 . S
O279 C278 1.203 . S
O280 C273 1.185 . S
O280 Zn276 2.086 . S
C281 O277 1.278 . S
C281 O282 1.211 . S
O282 C281 1.211 . S
C283 O275 1.284 . S
C283 O284 1.273 . S
O284 C283 1.273 . S
O285 Zn276 1.977 . S
O285 C278 1.267 . S
C286 O287 1.160 . S
C286 O293 1.185 . S
O287 C286 1.160 . S
O288 Zn289 1.899 . S
O288 C296 1.284 . S
Zn289 O288 1.899 . S
Zn289 O290 2.032 . S
Zn289 O293 2.086 . S
Zn289 O298 1.977 . S
O290 Zn289 2.032 . S
O290 C294 1.278 . S
C291 O292 1.203 . S
C291 O298 1.267 . S
O292 C291 1.203 . S
O293 C286 1.185 . S
O293 Zn289 2.086 . S
C294 O290 1.278 . S
C294 O295 1.211 . S
O295 C294 1.211 . S
C296 O288 1.284 . S
C296 O297 1.273 . S
O297 C296 1.273 . S
O298 Zn289 1.977 . S
O298 C291 1.267 . S
C299 O300 1.160 . S
C299 O306 1.185 . S
O300 C299 1.160 . S
O301 Zn302 1.899 . S
O301 C309 1.284 . S
Zn302 O301 1.899 . S
Zn302 O303 2.032 . S
Zn302 O306 2.086 . S
Zn302 O311 1.977 . S
O303 Zn302 2.032 . S
O303 C307 1.278 . S
C304 O305 1.203 . S
C304 O311 1.267 . S
O305 C304 1.203 . S
O306 C299 1.185 . S
O306 Zn302 2.086 . S
C307 O303 1.278 . S
C307 O308 1.211 . S
O308 C307 1.211 . S
C309 O301 1.284 . S
C309 O310 1.273 . S
O310 C309 1.273 . S
O311 Zn302 1.977 . S
O311 C304 1.267 . S
Tb312 C322 2.825 1_455 S
Tb312 O323 2.347 1_556 S
Tb312 O326 2.366 . S
Tb312 O331 2.418 . S
Tb312 O332 2.384 1_546 S
Tb312 O335 2.479 1_455 S
Tb312 O336 2.471 1_456 S
Eu313 O324 2.418 . S
Eu313 O325 2.384 . S
Eu313 O328 2.479 . S
Eu313 O329 2.471 . S
Eu313 O330 2.352 . S
Eu313 O333 2.366 . S
Eu313 C343 2.825 . S
C314 O330 1.254 1_556 S
C314 O331 1.265 . S
C315 O332 1.255 . S
C315 O333 1.265 1_565 S
C316 C318 1.380 . S
C316 C319 1.374 . S
C316 C322 1.507 . S
C317 C318 1.384 . S
C317 C321 1.387 . S
C317 H344 0.930 . S
C318 C316 1.380 . S
C318 C317 1.384 . S
C318 H345 0.931 . S
C319 C316 1.374 . S
C319 C320 1.390 . S
C319 H346 0.930 1_556 S
C320 C319 1.390 . S
C320 C321 1.391 . S
C320 H347 0.930 . S
C321 C317 1.387 . S
C321 C320 1.391 . S
C322 Tb312 2.825 1_655 S
C322 C316 1.507 . S
C322 O335 1.238 . S
C322 O336 1.247 1_556 S
O323 Tb312 2.347 1_554 S
O323 C327 1.259 . S
O324 Eu313 2.418 . S
O324 C327 1.265 . S
O325 Eu313 2.384 . S
O325 C334 1.255 . S
O326 Tb312 2.366 . S
O326 C334 1.265 1_556 S
C327 O323 1.259 . S
C327 O324 1.265 . S
O328 Eu313 2.479 . S
O328 C343 1.238 . S
O329 Eu313 2.471 . S
O329 C343 1.247 . S
O330 Eu313 2.352 . S
O330 C314 1.254 1_554 S
O331 Tb312 2.418 . S
O331 C314 1.265 . S
O332 Tb312 2.384 1_564 S
O332 C315 1.255 . S
O333 Eu313 2.366 . S
O333 C315 1.265 1_545 S
C334 O325 1.255 . S
C334 O326 1.265 1_554 S
O335 Tb312 2.479 1_655 S
O335 C322 1.238 . S
O336 Tb312 2.471 1_654 S
O336 C322 1.247 1_554 S
C337 C340 1.380 . S
C337 C341 1.374 . S
C337 C343 1.507 . S
C338 C339 1.387 . S
C338 C342 1.391 1_545 S
C339 C338 1.387 . S
C339 C340 1.384 . S
C339 H348 0.930 . S
C340 C337 1.380 . S
C340 C339 1.384 . S
C340 H349 0.931 . S
C341 C337 1.374 . S
C341 C342 1.390 1_545 S
C341 H350 0.930 . S
C342 C338 1.391 1_565 S
C342 C341 1.390 1_565 S
C342 H351 0.930 . S
C343 Eu313 2.825 . S
C343 O328 1.238 . S
C343 O329 1.247 . S
C343 C337 1.507 . S
H344 C317 0.930 . S
H345 C318 0.931 . S
H346 C319 0.930 1_554 S
H347 C320 0.930 . S
H348 C339 0.930 . S
H349 C340 0.931 . S
H350 C341 0.930 . S
H351 C342 0.930 . S
Tb352 C362 2.825 . S
Tb352 O363 2.347 . S
Tb352 O366 2.366 . S
Tb352 O371 2.418 . S
Tb352 O372 2.384 . S
Tb352 O375 2.479 . S
Tb352 O376 2.471 . S
Eu353 O364 2.418 . S
Eu353 O365 2.384 . S
Eu353 O368 2.479 . S
Eu353 O369 2.471 . S
Eu353 O370 2.347 . S
Eu353 O373 2.366 . S
Eu353 C383 2.825 . S
C354 O370 1.259 . S
C354 O371 1.265 . S
C355 O372 1.255 . S
C355 O373 1.265 . S
C356 C358 1.380 . S
C356 C359 1.374 . S
C356 C362 1.507 . S
C357 C358 1.384 . S
C357 C361 1.387 . S
C357 H384 0.930 . S
C358 C356 1.380 . S
C358 C357 1.384 . S
C358 H385 0.931 . S
C359 C356 1.374 . S
C359 C360 1.390 . S
C359 H386 0.930 . S
C360 C359 1.390 . S
C360 C361 1.391 . S
C360 H387 0.930 . S
C361 C357 1.387 . S
C361 C360 1.391 . S
C362 Tb352 2.825 . S
C362 C356 1.507 . S
C362 O375 1.238 . S
C362 O376 1.247 . S
O363 Tb352 2.347 . S
O363 C367 1.259 . S
O364 Eu353 2.418 . S
O364 C367 1.265 . S
O365 Eu353 2.384 . S
O365 C374 1.255 . S
O366 Tb352 2.366 . S
O366 C374 1.265 . S
C367 O363 1.259 . S
C367 O364 1.265 . S
O368 Eu353 2.479 . S
O368 C383 1.238 . S
O369 Eu353 2.471 . S
O369 C383 1.247 . S
O370 Eu353 2.347 . S
O370 C354 1.259 . S
O371 Tb352 2.418 . S
O371 C354 1.265 . S
O372 Tb352 2.384 . S
O372 C355 1.255 . S
O373 Eu353 2.366 . S
O373 C355 1.265 . S
C374 O365 1.255 . S
C374 O366 1.265 . S
O375 Tb352 2.479 . S
O375 C362 1.238 . S
O376 Tb352 2.471 . S
O376 C362 1.247 . S
C377 C380 1.380 . S
C377 C381 1.374 . S
C377 C383 1.507 . S
C378 C379 1.387 . S
C378 C382 1.391 . S
C379 C378 1.387 . S
C379 C380 1.384 . S
C379 H388 0.930 . S
C380 C377 1.380 . S
C380 C379 1.384 . S
C380 H389 0.931 . S
C381 C377 1.374 . S
C381 C382 1.390 . S
C381 H390 0.930 . S
C382 C378 1.391 . S
C382 C381 1.390 . S
C382 H391 0.930 . S
C383 Eu353 2.825 . S
C383 O368 1.238 . S
C383 O369 1.247 . S
C383 C377 1.507 . S
H384 C357 0.930 . S
H385 C358 0.931 . S
H386 C359 0.930 . S
H387 C360 0.930 . S
H388 C379 0.930 . S
H389 C380 0.931 . S
H390 C381 0.930 . S
H391 C382 0.930 . S
Tb392 C402 2.825 1_545 S
Tb392 O403 2.347 . S
Tb392 O406 2.366 . S
Tb392 O411 2.418 . S
Tb392 O412 2.384 . S
Tb392 O415 2.479 1_545 S
Tb392 O416 2.471 1_545 S
Eu393 O404 2.418 . S
Eu393 O405 2.384 . S
Eu393 O408 2.479 . S
Eu393 O409 2.471 . S
Eu393 O410 2.347 . S
Eu393 O413 2.366 . S
Eu393 C423 2.825 . S
C394 O410 1.259 . S
C394 O411 1.265 . S
C395 O412 1.255 . S
C395 O413 1.265 . S
C396 C398 1.380 . S
C396 C399 1.374 . S
C396 C402 1.507 . S
C397 C398 1.384 . S
C397 C401 1.387 . S
C397 H424 0.930 . S
C398 C396 1.380 . S
C398 C397 1.384 . S
C398 H425 0.931 . S
C399 C396 1.374 . S
C399 C400 1.390 . S
C399 H426 0.930 . S
C400 C399 1.390 . S
C400 C401 1.391 . S
C400 H427 0.930 . S
C401 C397 1.387 . S
C401 C400 1.391 . S
C402 Tb392 2.825 1_565 S
C402 C396 1.507 . S
C402 O415 1.238 . S
C402 O416 1.247 . S
O403 Tb392 2.347 . S
O403 C407 1.259 . S
O404 Eu393 2.418 . S
O404 C407 1.265 . S
O405 Eu393 2.384 . S
O405 C414 1.255 . S
O406 Tb392 2.366 . S
O406 C414 1.265 . S
C407 O403 1.259 . S
C407 O404 1.265 . S
O408 Eu393 2.479 . S
O408 C423 1.238 . S
O409 Eu393 2.471 . S
O409 C423 1.247 . S
O410 Eu393 2.347 . S
O410 C394 1.259 . S
O411 Tb392 2.418 . S
O411 C394 1.265 . S
O412 Tb392 2.384 . S
O412 C395 1.255 . S
O413 Eu393 2.366 . S
O413 C395 1.265 . S
C414 O405 1.255 . S
C414 O406 1.265 . S
O415 Tb392 2.479 1_565 S
O415 C402 1.238 . S
O416 Tb392 2.471 1_565 S
O416 C402 1.247 . S
C417 C420 1.380 . S
C417 C421 1.374 . S
C417 C423 1.507 . S
C418 C419 1.387 . S
C418 C422 1.391 . S
C419 C418 1.387 . S
C419 C420 1.384 . S
C419 H428 0.930 . S
C420 C417 1.380 . S
C420 C419 1.384 . S
C420 H429 0.931 . S
C421 C417 1.374 . S
C421 C422 1.390 . S
C421 H430 0.930 . S
C422 C418 1.391 . S
C422 C421 1.390 . S
C422 H431 0.930 . S
C423 Eu393 2.825 . S
C423 O408 1.238 . S
C423 O409 1.247 . S
C423 C417 1.507 . S
H424 C397 0.930 . S
H425 C398 0.931 . S
H426 C399 0.930 . S
H427 C400 0.930 . S
H428 C419 0.930 . S
H429 C420 0.931 . S
H430 C421 0.930 . S
H431 C422 0.930 . S
Tb432 C442 2.825 . S
Tb432 O443 2.347 . S
Tb432 O446 2.366 . S
Tb432 O451 2.418 . S
Tb432 O452 2.384 . S
Tb432 O455 2.479 . S
Tb432 O456 2.471 . S
Eu433 O444 2.418 . S
Eu433 O445 2.384 . S
Eu433 O448 2.479 . S
Eu433 O449 2.471 . S
Eu433 O450 2.347 . S
Eu433 O453 2.366 . S
Eu433 C463 2.825 . S
C434 O450 1.259 . S
C434 O451 1.265 . S
C435 O452 1.255 . S
C435 O453 1.265 . S
C436 C438 1.380 . S
C436 C439 1.374 . S
C436 C442 1.507 . S
C437 C438 1.384 . S
C437 C441 1.387 . S
C437 H464 0.930 . S
C438 C436 1.380 . S
C438 C437 1.384 . S
C438 H465 0.931 . S
C439 C436 1.374 . S
C439 C440 1.390 . S
C439 H466 0.930 . S
C440 C439 1.390 . S
C440 C441 1.391 . S
C440 H467 0.930 . S
C441 C437 1.387 . S
C441 C440 1.391 . S
C442 Tb432 2.825 . S
C442 C436 1.507 . S
C442 O455 1.238 . S
C442 O456 1.247 . S
O443 Tb432 2.347 . S
O443 C447 1.259 . S
O444 Eu433 2.418 . S
O444 C447 1.265 . S
O445 Eu433 2.384 . S
O445 C454 1.255 . S
O446 Tb432 2.366 . S
O446 C454 1.265 . S
C447 O443 1.259 . S
C447 O444 1.265 . S
O448 Eu433 2.479 . S
O448 C463 1.238 . S
O449 Eu433 2.471 . S
O449 C463 1.247 . S
O450 Eu433 2.347 . S
O450 C434 1.259 . S
O451 Tb432 2.418 . S
O451 C434 1.265 . S
O452 Tb432 2.384 . S
O452 C435 1.255 . S
O453 Eu433 2.366 . S
O453 C435 1.265 . S
C454 O445 1.255 . S
C454 O446 1.265 . S
O455 Tb432 2.479 . S
O455 C442 1.238 . S
O456 Tb432 2.471 . S
O456 C442 1.247 . S
C457 C460 1.380 . S
C457 C461 1.374 . S
C457 C463 1.507 . S
C458 C459 1.387 . S
C458 C462 1.391 . S
C459 C458 1.387 . S
C459 C460 1.384 . S
C459 H468 0.930 . S
C460 C457 1.380 . S
C460 C459 1.384 . S
C460 H469 0.931 . S
C461 C457 1.374 . S
C461 C462 1.390 . S
C461 H470 0.930 . S
C462 C458 1.391 . S
C462 C461 1.390 . S
C462 H471 0.930 . S
C463 Eu433 2.825 . S
C463 O448 1.238 . S
C463 O449 1.247 . S
C463 C457 1.507 . S
H464 C437 0.930 . S
H465 C438 0.931 . S
H466 C439 0.930 . S
H467 C440 0.930 . S
H468 C459 0.930 . S
H469 C460 0.931 . S
H470 C461 0.930 . S
H471 C462 0.930 . S
Tb472 C482 2.825 . S
Tb472 O483 2.347 . S
Tb472 O486 2.366 . S
Tb472 O491 2.418 . S
Tb472 O492 2.395 . S
Tb472 O495 2.479 . S
Tb472 O496 2.471 . S
Eu473 O484 2.418 . S
Eu473 O485 2.384 . S
Eu473 O488 2.479 . S
Eu473 O489 2.471 . S
Eu473 O490 2.347 . S
Eu473 O493 2.366 . S
Eu473 C503 2.825 . S
C474 O490 1.259 . S
C474 O491 1.265 . S
C475 O492 1.256 . S
C475 O493 1.265 . S
C476 C478 1.380 . S
C476 C479 1.374 1_455 S
C476 C482 1.507 . S
C477 C478 1.384 . S
C477 C481 1.387 1_455 S
C477 H504 0.930 . S
C478 C476 1.380 . S
C478 C477 1.384 . S
C478 H505 0.931 . S
C479 C476 1.374 1_655 S
C479 C480 1.390 . S
C479 H506 0.930 . S
C480 C479 1.390 . S
C480 C481 1.391 . S
C480 H507 0.930 . S
C481 C477 1.387 1_655 S
C481 C480 1.391 . S
C482 Tb472 2.825 . S
C482 C476 1.507 . S
C482 O495 1.238 . S
C482 O496 1.247 . S
O483 Tb472 2.347 . S
O483 C487 1.259 . S
O484 Eu473 2.418 . S
O484 C487 1.265 . S
O485 Eu473 2.384 . S
O485 C494 1.255 . S
O486 Tb472 2.366 . S
O486 C494 1.265 . S
C487 O483 1.259 . S
C487 O484 1.265 . S
O488 Eu473 2.479 . S
O488 C503 1.238 . S
O489 Eu473 2.471 . S
O489 C503 1.247 . S
O490 Eu473 2.347 . S
O490 C474 1.259 . S
O491 Tb472 2.418 . S
O491 C474 1.265 . S
O492 Tb472 2.395 . S
O492 C475 1.256 . S
O493 Eu473 2.366 . S
O493 C475 1.265 . S
C494 O485 1.255 . S
C494 O486 1.265 . S
O495 Tb472 2.479 . S
O495 C482 1.238 . S
O496 Tb472 2.471 . S
O496 C482 1.247 . S
C497 C500 1.380 . S
C497 C501 1.374 . S
C497 C503 1.507 . S
C498 C499 1.387 . S
C498 C502 1.391 . S
C499 C498 1.387 . S
C499 C500 1.384 . S
C499 H508 0.930 . S
C500 C497 1.380 . S
C500 C499 1.384 . S
C500 H509 0.931 . S
C501 C497 1.374 . S
C501 C502 1.390 . S
C501 H510 0.930 . S
C502 C498 1.391 . S
C502 C501 1.390 . S
C502 H511 0.930 . S
C503 Eu473 2.825 . S
C503 O488 1.238 . S
C503 O489 1.247 . S
C503 C497 1.507 . S
H504 C477 0.930 . S
H505 C478 0.931 . S
H506 C479 0.930 . S
H507 C480 0.930 . S
H508 C499 0.930 . S
H509 C500 0.931 . S
H510 C501 0.930 . S
H511 C502 0.930 . S
Tb512 C522 2.825 . S
Tb512 O523 2.347 . S
Tb512 O526 2.366 . S
Tb512 O531 2.418 . S
Tb512 O532 2.384 . S
Tb512 O535 2.479 . S
Tb512 O536 2.471 . S
Eu513 O524 2.418 . S
Eu513 O525 2.384 . S
Eu513 O528 2.479 . S
Eu513 O529 2.471 . S
Eu513 O530 2.347 . S
Eu513 O533 2.366 . S
Eu513 C543 2.825 . S
C514 O530 1.259 . S
C514 O531 1.265 . S
C515 O532 1.255 . S
C515 O533 1.265 . S
C516 C518 1.380 . S
C516 C519 1.374 . S
C516 C522 1.507 . S
C517 C518 1.384 . S
C517 C521 1.387 . S
C517 H544 0.930 . S
C518 C516 1.380 . S
C518 C517 1.384 . S
C518 H545 0.931 . S
C519 C516 1.374 . S
C519 C520 1.390 . S
C519 H546 0.930 . S
C520 C519 1.390 . S
C520 C521 1.391 . S
C520 H547 0.930 . S
C521 C517 1.387 . S
C521 C520 1.391 . S
C522 Tb512 2.825 . S
C522 C516 1.507 . S
C522 O535 1.238 . S
C522 O536 1.247 . S
O523 Tb512 2.347 . S
O523 C527 1.259 . S
O524 Eu513 2.418 . S
O524 C527 1.265 . S
O525 Eu513 2.384 . S
O525 C534 1.255 . S
O526 Tb512 2.366 . S
O526 C534 1.265 . S
C527 O523 1.259 . S
C527 O524 1.265 . S
O528 Eu513 2.479 . S
O528 C543 1.238 . S
O529 Eu513 2.471 . S
O529 C543 1.247 . S
O530 Eu513 2.347 . S
O530 C514 1.259 . S
O531 Tb512 2.418 . S
O531 C514 1.265 . S
O532 Tb512 2.384 . S
O532 C515 1.255 . S
O533 Eu513 2.366 . S
O533 C515 1.265 . S
C534 O525 1.255 . S
C534 O526 1.265 . S
O535 Tb512 2.479 . S
O535 C522 1.238 . S
O536 Tb512 2.471 . S
O536 C522 1.247 . S
C537 C540 1.380 . S
C537 C541 1.374 . S
C537 C543 1.507 . S
C538 C539 1.387 . S
C538 C542 1.391 . S
C539 C538 1.387 . S
C539 C540 1.384 . S
C539 H548 0.930 . S
C540 C537 1.380 . S
C540 C539 1.384 . S
C540 H549 0.931 . S
C541 C537 1.374 . S
C541 C542 1.390 . S
C541 H550 0.930 . S
C542 C538 1.391 . S
C542 C541 1.390 . S
C542 H551 0.930 . S
C543 Eu513 2.825 . S
C543 O528 1.238 . S
C543 O529 1.247 . S
C543 C537 1.507 . S
H544 C517 0.930 . S
H545 C518 0.931 . S
H546 C519 0.930 . S
H547 C520 0.930 . S
H548 C539 0.930 . S
H549 C540 0.931 . S
H550 C541 0.930 . S
H551 C542 0.930 . S
Tb552 C562 2.825 . S
Tb552 O563 2.347 . S
Tb552 O566 2.366 . S
Tb552 O571 2.418 1_545 S
Tb552 O572 2.384 . S
Tb552 O575 2.479 . S
Tb552 O576 2.471 . S
Eu553 O564 2.418 1_556 S
Eu553 O565 2.384 1_556 S
Eu553 O568 2.479 . S
Eu553 O569 2.471 . S
Eu553 O570 2.347 1_556 S
Eu553 O573 2.366 1_556 S
Eu553 C583 2.825 . S
C554 O570 1.259 1_565 S
C554 O571 1.265 . S
C555 O572 1.255 . S
C555 O573 1.265 . S
C556 C558 1.380 . S
C556 C559 1.374 . S
C556 C562 1.507 . S
C557 C558 1.380 1_565 S
C557 C561 1.358 1_565 S
C557 H584 0.966 . S
C558 C556 1.380 . S
C558 C557 1.380 1_545 S
C558 H585 0.931 1_545 S
C559 C556 1.374 . S
C559 C560 1.390 . S
C559 H586 0.930 . S
C560 C559 1.390 . S
C560 C561 1.391 . S
C560 H587 0.930 . S
C561 C557 1.358 1_545 S
C561 C560 1.391 . S
C562 Tb552 2.825 . S
C562 C556 1.507 . S
C562 O575 1.238 . S
C562 O576 1.247 . S
O563 Tb552 2.347 . S
O563 C567 1.259 . S
O564 Eu553 2.418 1_554 S
O564 C567 1.265 . S
O565 Eu553 2.384 1_554 S
O565 C574 1.255 . S
O566 Tb552 2.366 . S
O566 C574 1.265 . S
C567 O563 1.259 . S
C567 O564 1.265 . S
O568 Eu553 2.479 . S
O568 C583 1.238 . S
O569 Eu553 2.471 . S
O569 C583 1.247 . S
O570 Eu553 2.347 1_554 S
O570 C554 1.259 1_545 S
O571 Tb552 2.418 1_565 S
O571 C554 1.265 . S
O572 Tb552 2.384 . S
O572 C555 1.255 . S
O573 Eu553 2.366 1_554 S
O573 C555 1.265 . S
C574 O565 1.255 . S
C574 O566 1.265 . S
O575 Tb552 2.479 . S
O575 C562 1.238 . S
O576 Tb552 2.471 . S
O576 C562 1.247 . S
C577 C580 1.380 . S
C577 C581 1.374 . S
C577 C583 1.507 . S
C578 C579 1.387 . S
C578 C582 1.391 . S
C579 C578 1.387 . S
C579 C580 1.384 . S
C579 H588 0.930 . S
C580 C577 1.380 . S
C580 C579 1.384 . S
C580 H589 0.931 . S
C581 C577 1.374 . S
C581 C582 1.390 . S
C581 H590 0.930 . S
C582 C578 1.391 . S
C582 C581 1.390 . S
C582 H591 0.930 . S
C583 Eu553 2.825 . S
C583 O568 1.238 . S
C583 O569 1.247 . S
C583 C577 1.507 . S
H584 C557 0.966 . S
H585 C558 0.931 1_565 S
H586 C559 0.930 . S
H587 C560 0.930 . S
H588 C579 0.930 . S
H589 C580 0.931 . S
H590 C581 0.930 . S
H591 C582 0.930 . S
Tb592 C602 2.825 . S
Tb592 O603 2.347 . S
Tb592 O606 2.366 . S
Tb592 O611 2.418 . S
Tb592 O612 2.384 . S
Tb592 O615 2.479 . S
Tb592 O616 2.471 . S
Eu593 O604 2.418 . S
Eu593 O605 2.384 . S
Eu593 O608 2.479 . S
Eu593 O609 2.471 . S
Eu593 O610 2.347 . S
Eu593 O613 2.366 . S
Eu593 C623 2.825 . S
C594 O610 1.259 . S
C594 O611 1.265 . S
C595 O612 1.255 . S
C595 O613 1.265 . S
C596 C598 1.380 . S
C596 C599 1.374 . S
C596 C602 1.507 . S
C597 C598 1.384 . S
C597 C601 1.387 . S
C597 H624 0.930 . S
C598 C596 1.380 . S
C598 C597 1.384 . S
C598 H625 0.931 . S
C599 C596 1.374 . S
C599 C600 1.390 . S
C599 H626 0.930 . S
C600 C599 1.390 . S
C600 C601 1.391 . S
C600 H627 0.930 . S
C601 C597 1.387 . S
C601 C600 1.391 . S
C602 Tb592 2.825 . S
C602 C596 1.507 . S
C602 O615 1.238 . S
C602 O616 1.247 . S
O603 Tb592 2.347 . S
O603 C607 1.259 . S
O604 Eu593 2.418 . S
O604 C607 1.265 . S
O605 Eu593 2.384 . S
O605 C614 1.255 . S
O606 Tb592 2.366 . S
O606 C614 1.265 . S
C607 O603 1.259 . S
C607 O604 1.265 . S
O608 Eu593 2.479 . S
O608 C623 1.238 . S
O609 Eu593 2.471 . S
O609 C623 1.247 . S
O610 Eu593 2.347 . S
O610 C594 1.259 . S
O611 Tb592 2.418 . S
O611 C594 1.265 . S
O612 Tb592 2.384 . S
O612 C595 1.255 . S
O613 Eu593 2.366 . S
O613 C595 1.265 . S
C614 O605 1.255 . S
C614 O606 1.265 . S
O615 Tb592 2.479 . S
O615 C602 1.238 . S
O616 Tb592 2.471 . S
O616 C602 1.247 . S
C617 C620 1.380 . S
C617 C621 1.374 . S
C617 C623 1.507 . S
C618 C619 1.387 . S
C618 C622 1.391 . S
C619 C618 1.387 . S
C619 C620 1.384 . S
C619 H628 0.930 . S
C620 C617 1.380 . S
C620 C619 1.384 . S
C620 H629 0.931 . S
C621 C617 1.374 . S
C621 C622 1.390 . S
C621 H630 0.930 . S
C622 C618 1.391 . S
C622 C621 1.390 . S
C622 H631 0.930 . S
C623 Eu593 2.825 . S
C623 O608 1.238 . S
C623 O609 1.247 . S
C623 C617 1.507 . S
H624 C597 0.930 . S
H625 C598 0.931 . S
H626 C599 0.930 . S
H627 C600 0.930 . S
H628 C619 0.930 . S
H629 C620 0.931 . S
H630 C621 0.930 . S
H631 C622 0.930 . S
Tb632 C642 2.825 . S
Tb632 O643 2.347 1_556 S
Tb632 O646 2.366 . S
Tb632 O651 2.418 . S
Tb632 O652 2.384 1_556 S
Tb632 O655 2.479 . S
Tb632 O656 2.471 . S
Eu633 O644 2.418 . S
Eu633 O645 2.384 . S
Eu633 O648 2.479 . S
Eu633 O649 2.471 . S
Eu633 O650 2.347 . S
Eu633 O653 2.366 . S
Eu633 C663 2.825 . S
C634 O650 1.259 . S
C634 O651 1.265 1_554 S
C635 O652 1.255 . S
C635 O653 1.265 . S
C636 C638 1.380 . S
C636 C639 1.374 . S
C636 C642 1.507 . S
C637 C638 1.384 . S
C637 C641 1.387 . S
C637 H664 0.930 . S
C638 C636 1.380 . S
C638 C637 1.384 . S
C638 H665 0.931 . S
C639 C636 1.374 . S
C639 C640 1.390 . S
C639 H666 0.930 . S
C640 C639 1.390 . S
C640 C641 1.391 . S
C640 H667 0.930 . S
C641 C637 1.387 . S
C641 C640 1.391 . S
C642 Tb632 2.825 . S
C642 C636 1.507 . S
C642 O655 1.238 . S
C642 O656 1.247 . S
O643 Tb632 2.347 1_554 S
O643 C647 1.259 . S
O644 Eu633 2.418 . S
O644 C647 1.265 . S
O645 Eu633 2.384 . S
O645 C654 1.255 . S
O646 Tb632 2.366 . S
O646 C654 1.265 1_556 S
C647 O643 1.259 . S
C647 O644 1.265 . S
O648 Eu633 2.479 . S
O648 C663 1.238 . S
O649 Eu633 2.471 . S
O649 C663 1.247 . S
O650 Eu633 2.347 . S
O650 C634 1.259 . S
O651 Tb632 2.418 . S
O651 C634 1.265 1_556 S
O652 Tb632 2.384 1_554 S
O652 C635 1.255 . S
O653 Eu633 2.366 . S
O653 C635 1.265 . S
C654 O645 1.255 . S
C654 O646 1.265 1_554 S
O655 Tb632 2.479 . S
O655 C642 1.238 . S
O656 Tb632 2.471 . S
O656 C642 1.247 . S
C657 C660 1.380 . S
C657 C661 1.374 . S
C657 C663 1.507 . S
C658 C659 1.387 . S
C658 C662 1.391 . S
C659 C658 1.387 . S
C659 C660 1.384 . S
C659 H668 0.930 . S
C660 C657 1.380 . S
C660 C659 1.384 . S
C660 H669 0.931 . S
C661 C657 1.374 . S
C661 C662 1.390 . S
C661 H670 0.930 . S
C662 C658 1.391 . S
C662 C661 1.390 . S
C662 H671 0.930 . S
C663 Eu633 2.825 . S
C663 O648 1.238 . S
C663 O649 1.247 . S
C663 C657 1.507 . S
H664 C637 0.930 . S
H665 C638 0.931 . S
H666 C639 0.930 . S
H667 C640 0.930 . S
H668 C659 0.930 . S
H669 C660 0.931 . S
H670 C661 0.930 . S
H671 C662 0.930 . S
Tb672 C682 2.825 . S
Tb672 O683 2.347 . S
Tb672 O686 2.366 . S
Tb672 O691 2.418 . S
Tb672 O692 2.384 . S
Tb672 O695 2.479 . S
Tb672 O696 2.471 . S
Eu673 O684 2.418 . S
Eu673 O685 2.384 . S
Eu673 O688 2.479 . S
Eu673 O689 2.471 . S
Eu673 O690 2.347 . S
Eu673 O693 2.366 . S
Eu673 C703 2.825 . S
C674 O690 1.259 . S
C674 O691 1.265 . S
C675 O692 1.255 . S
C675 O693 1.265 . S
C676 C678 1.380 . S
C676 C679 1.374 . S
C676 C682 1.507 . S
C677 C678 1.384 . S
C677 C681 1.387 . S
C677 H704 0.930 . S
C678 C676 1.380 . S
C678 C677 1.384 . S
C678 H705 0.931 . S
C679 C676 1.374 . S
C679 C680 1.390 . S
C679 H706 0.930 . S
C680 C679 1.390 . S
C680 C681 1.391 . S
C680 H707 0.930 . S
C681 C677 1.387 . S
C681 C680 1.391 . S
C682 Tb672 2.825 . S
C682 C676 1.507 . S
C682 O695 1.238 . S
C682 O696 1.247 . S
O683 Tb672 2.347 . S
O683 C687 1.259 . S
O684 Eu673 2.418 . S
O684 C687 1.265 . S
O685 Eu673 2.384 . S
O685 C694 1.255 . S
O686 Tb672 2.366 . S
O686 C694 1.265 . S
C687 O683 1.259 . S
C687 O684 1.265 . S
O688 Eu673 2.479 . S
O688 C703 1.238 . S
O689 Eu673 2.471 . S
O689 C703 1.247 . S
O690 Eu673 2.347 . S
O690 C674 1.259 . S
O691 Tb672 2.418 . S
O691 C674 1.265 . S
O692 Tb672 2.384 . S
O692 C675 1.255 . S
O693 Eu673 2.366 . S
O693 C675 1.265 . S
C694 O685 1.255 . S
C694 O686 1.265 . S
O695 Tb672 2.479 . S
O695 C682 1.238 . S
O696 Tb672 2.471 . S
O696 C682 1.247 . S
C697 C700 1.380 . S
C697 C701 1.374 . S
C697 C703 1.507 . S
C698 C699 1.387 . S
C698 C702 1.391 . S
C699 C698 1.387 . S
C699 C700 1.384 . S
C699 H708 0.930 . S
C700 C697 1.380 . S
C700 C699 1.384 . S
C700 H709 0.931 . S
C701 C697 1.374 . S
C701 C702 1.390 . S
C701 H710 0.930 . S
C702 C698 1.391 . S
C702 C701 1.390 . S
C702 H711 0.930 . S
C703 Eu673 2.825 . S
C703 O688 1.238 . S
C703 O689 1.247 . S
C703 C697 1.507 . S
H704 C677 0.930 . S
H705 C678 0.931 . S
H706 C679 0.930 . S
H707 C680 0.930 . S
H708 C699 0.930 . S
H709 C700 0.931 . S
H710 C701 0.930 . S
H711 C702 0.930 . S
Tb712 C722 2.825 . S
Tb712 O723 2.347 . S
Tb712 O726 2.366 . S
Tb712 O731 2.418 . S
Tb712 O732 2.384 . S
Tb712 O735 2.479 . S
Tb712 O736 2.471 . S
Eu713 O724 2.418 . S
Eu713 O725 2.384 . S
Eu713 O728 2.479 . S
Eu713 O729 2.471 . S
Eu713 O730 2.347 . S
Eu713 O733 2.366 . S
Eu713 C743 2.825 . S
C714 O730 1.259 . S
C714 O731 1.265 . S
C715 O732 1.255 . S
C715 O733 1.265 . S
C716 C718 1.380 . S
C716 C719 1.374 . S
C716 C722 1.507 . S
C717 C718 1.384 . S
C717 C721 1.387 . S
C717 H744 0.930 . S
C718 C716 1.380 . S
C718 C717 1.384 . S
C718 H745 0.931 . S
C719 C716 1.374 . S
C719 C720 1.390 . S
C719 H746 0.930 . S
C720 C719 1.390 . S
C720 C721 1.391 . S
C720 H747 0.930 . S
C721 C717 1.387 . S
C721 C720 1.391 . S
C722 Tb712 2.825 . S
C722 C716 1.507 . S
C722 O735 1.238 . S
C722 O736 1.247 . S
O723 Tb712 2.347 . S
O723 C727 1.259 . S
O724 Eu713 2.418 . S
O724 C727 1.265 . S
O725 Eu713 2.384 . S
O725 C734 1.255 . S
O726 Tb712 2.366 . S
O726 C734 1.265 . S
C727 O723 1.259 . S
C727 O724 1.265 . S
O728 Eu713 2.479 . S
O728 C743 1.238 . S
O729 Eu713 2.471 . S
O729 C743 1.247 . S
O730 Eu713 2.347 . S
O730 C714 1.259 . S
O731 Tb712 2.418 . S
O731 C714 1.265 . S
O732 Tb712 2.384 . S
O732 C715 1.255 . S
O733 Eu713 2.366 . S
O733 C715 1.265 . S
C734 O725 1.255 . S
C734 O726 1.265 . S
O735 Tb712 2.479 . S
O735 C722 1.238 . S
O736 Tb712 2.471 . S
O736 C722 1.247 . S
C737 C740 1.380 . S
C737 C741 1.374 . S
C737 C743 1.507 . S
C738 C739 1.387 . S
C738 C742 1.391 . S
C739 C738 1.387 . S
C739 C740 1.384 . S
C739 H748 0.930 . S
C740 C737 1.380 . S
C740 C739 1.384 . S
C740 H749 0.931 . S
C741 C737 1.374 . S
C741 C742 1.390 . S
C741 H750 0.930 . S
C742 C738 1.391 . S
C742 C741 1.390 . S
C742 H751 0.930 . S
C743 Eu713 2.825 . S
C743 O728 1.238 . S
C743 O729 1.247 . S
C743 C737 1.507 . S
H744 C717 0.930 . S
H745 C718 0.931 . S
H746 C719 0.930 . S
H747 C720 0.930 . S
H748 C739 0.930 . S
H749 C740 0.931 . S
H750 C741 0.930 . S
H751 C742 0.930 . S
Tb752 C762 2.825 . S
Tb752 O763 2.347 . S
Tb752 O766 2.366 . S
Tb752 O771 2.418 . S
Tb752 O772 2.384 . S
Tb752 O775 2.479 . S
Tb752 O776 2.471 . S
Eu753 O764 2.418 . S
Eu753 O765 2.384 . S
Eu753 O768 2.479 . S
Eu753 O769 2.471 . S
Eu753 O770 2.347 . S
Eu753 O773 2.366 . S
Eu753 C783 2.825 . S
C754 O770 1.259 . S
C754 O771 1.265 . S
C755 O772 1.255 . S
C755 O773 1.265 . S
C756 C758 1.380 . S
C756 C759 1.374 . S
C756 C762 1.507 . S
C757 C758 1.384 . S
C757 C761 1.387 . S
C757 H784 0.930 . S
C758 C756 1.380 . S
C758 C757 1.384 . S
C758 H785 0.931 . S
C759 C756 1.374 . S
C759 C760 1.390 . S
C759 H786 0.930 . S
C760 C759 1.390 . S
C760 C761 1.391 . S
C760 H787 0.930 . S
C761 C757 1.387 . S
C761 C760 1.391 . S
C762 Tb752 2.825 . S
C762 C756 1.507 . S
C762 O775 1.238 . S
C762 O776 1.247 . S
O763 Tb752 2.347 . S
O763 C767 1.259 . S
O764 Eu753 2.418 . S
O764 C767 1.265 . S
O765 Eu753 2.384 . S
O765 C774 1.255 . S
O766 Tb752 2.366 . S
O766 C774 1.265 . S
C767 O763 1.259 . S
C767 O764 1.265 . S
O768 Eu753 2.479 . S
O768 C783 1.238 . S
O769 Eu753 2.471 . S
O769 C783 1.247 . S
O770 Eu753 2.347 . S
O770 C754 1.259 . S
O771 Tb752 2.418 . S
O771 C754 1.265 . S
O772 Tb752 2.384 . S
O772 C755 1.255 . S
O773 Eu753 2.366 . S
O773 C755 1.265 . S
C774 O765 1.255 . S
C774 O766 1.265 . S
O775 Tb752 2.479 . S
O775 C762 1.238 . S
O776 Tb752 2.471 . S
O776 C762 1.247 . S
C777 C780 1.380 . S
C777 C781 1.374 . S
C777 C783 1.507 . S
C778 C779 1.387 . S
C778 C782 1.391 . S
C779 C778 1.387 . S
C779 C780 1.384 . S
C779 H788 0.930 . S
C780 C777 1.380 . S
C780 C779 1.384 . S
C780 H789 0.931 . S
C781 C777 1.374 . S
C781 C782 1.390 . S
C781 H790 0.930 . S
C782 C778 1.391 . S
C782 C781 1.390 . S
C782 H791 0.930 . S
C783 Eu753 2.825 . S
C783 O768 1.238 . S
C783 O769 1.247 . S
C783 C777 1.507 . S
H784 C757 0.930 . S
H785 C758 0.931 . S
H786 C759 0.930 . S
H787 C760 0.930 . S
H788 C779 0.930 . S
H789 C780 0.931 . S
H790 C781 0.930 . S
H791 C782 0.930 . S
Tb792 C802 2.825 . S
Tb792 O803 2.347 . S
Tb792 O806 2.366 . S
Tb792 O811 2.418 . S
Tb792 O812 2.384 . S
Tb792 O815 2.479 . S
Tb792 O816 2.471 . S
Eu793 O804 2.418 . S
Eu793 O805 2.384 . S
Eu793 O808 2.479 . S
Eu793 O809 2.471 . S
Eu793 O810 2.347 . S
Eu793 O813 2.366 . S
Eu793 C823 2.825 . S
C794 O810 1.259 . S
C794 O811 1.265 . S
C795 O812 1.255 . S
C795 O813 1.265 . S
C796 C798 1.380 . S
C796 C799 1.374 . S
C796 C802 1.507 . S
C797 C798 1.384 . S
C797 C801 1.387 . S
C797 H824 0.930 . S
C798 C796 1.380 . S
C798 C797 1.384 . S
C798 H825 0.931 . S
C799 C796 1.374 . S
C799 C800 1.390 . S
C799 H826 0.930 . S
C800 C799 1.390 . S
C800 C801 1.391 . S
C800 H827 0.930 . S
C801 C797 1.387 . S
C801 C800 1.391 . S
C802 Tb792 2.825 . S
C802 C796 1.507 . S
C802 O815 1.238 . S
C802 O816 1.247 . S
O803 Tb792 2.347 . S
O803 C807 1.259 . S
O804 Eu793 2.418 . S
O804 C807 1.265 . S
O805 Eu793 2.384 . S
O805 C814 1.255 . S
O806 Tb792 2.366 . S
O806 C814 1.265 . S
C807 O803 1.259 . S
C807 O804 1.265 . S
O808 Eu793 2.479 . S
O808 C823 1.238 . S
O809 Eu793 2.471 . S
O809 C823 1.247 . S
O810 Eu793 2.347 . S
O810 C794 1.259 . S
O811 Tb792 2.418 . S
O811 C794 1.265 . S
O812 Tb792 2.384 . S
O812 C795 1.255 . S
O813 Eu793 2.366 . S
O813 C795 1.265 . S
C814 O805 1.255 . S
C814 O806 1.265 . S
O815 Tb792 2.479 . S
O815 C802 1.238 . S
O816 Tb792 2.471 . S
O816 C802 1.247 . S
C817 C820 1.380 . S
C817 C821 1.374 . S
C817 C823 1.507 . S
C818 C819 1.387 . S
C818 C822 1.391 . S
C819 C818 1.387 . S
C819 C820 1.384 . S
C819 H828 0.930 . S
C820 C817 1.380 . S
C820 C819 1.384 . S
C820 H829 0.931 . S
C821 C817 1.374 . S
C821 C822 1.390 . S
C821 H830 0.930 . S
C822 C818 1.391 . S
C822 C821 1.390 . S
C822 H831 0.930 . S
C823 Eu793 2.825 . S
C823 O808 1.238 . S
C823 O809 1.247 . S
C823 C817 1.507 . S
H824 C797 0.930 . S
H825 C798 0.931 . S
H826 C799 0.930 . S
H827 C800 0.930 . S
H828 C819 0.930 . S
H829 C820 0.931 . S
H830 C821 0.930 . S
H831 C822 0.930 . S
Tb832 C842 2.825 . S
Tb832 O843 2.347 . S
Tb832 O846 2.366 . S
Tb832 O851 2.418 . S
Tb832 O852 2.384 . S
Tb832 O855 2.479 . S
Tb832 O856 2.471 . S
Eu833 O844 2.418 . S
Eu833 O845 2.384 . S
Eu833 O848 2.479 . S
Eu833 O849 2.471 . S
Eu833 O850 2.347 . S
Eu833 O853 2.366 . S
Eu833 C863 2.825 . S
C834 O850 1.259 . S
C834 O851 1.265 . S
C835 O852 1.255 . S
C835 O853 1.265 . S
C836 C838 1.380 . S
C836 C839 1.374 . S
C836 C842 1.507 . S
C837 C838 1.384 . S
C837 C841 1.387 . S
C837 H864 0.930 . S
C838 C836 1.380 . S
C838 C837 1.384 . S
C838 H865 0.931 . S
C839 C836 1.374 . S
C839 C840 1.390 . S
C839 H866 0.930 . S
C840 C839 1.390 . S
C840 C841 1.391 . S
C840 H867 0.930 . S
C841 C837 1.387 . S
C841 C840 1.391 . S
C842 Tb832 2.825 . S
C842 C836 1.507 . S
C842 O855 1.238 . S
C842 O856 1.247 . S
O843 Tb832 2.347 . S
O843 C847 1.259 . S
O844 Eu833 2.418 . S
O844 C847 1.265 . S
O845 Eu833 2.384 . S
O845 C854 1.255 . S
O846 Tb832 2.366 . S
O846 C854 1.265 . S
C847 O843 1.259 . S
C847 O844 1.265 . S
O848 Eu833 2.479 . S
O848 C863 1.238 . S
O849 Eu833 2.471 . S
O849 C863 1.247 . S
O850 Eu833 2.347 . S
O850 C834 1.259 . S
O851 Tb832 2.418 . S
O851 C834 1.265 . S
O852 Tb832 2.384 . S
O852 C835 1.255 . S
O853 Eu833 2.366 . S
O853 C835 1.265 . S
C854 O845 1.255 . S
C854 O846 1.265 . S
O855 Tb832 2.479 . S
O855 C842 1.238 . S
O856 Tb832 2.471 . S
O856 C842 1.247 . S
C857 C860 1.380 . S
C857 C861 1.374 . S
C857 C863 1.507 . S
C858 C859 1.387 . S
C858 C862 1.391 . S
C859 C858 1.387 . S
C859 C860 1.384 . S
C859 H868 0.930 . S
C860 C857 1.380 . S
C860 C859 1.384 . S
C860 H869 0.931 . S
C861 C857 1.374 . S
C861 C862 1.390 . S
C861 H870 0.930 . S
C862 C858 1.391 . S
C862 C861 1.390 . S
C862 H871 0.930 . S
C863 Eu833 2.825 . S
C863 O848 1.238 . S
C863 O849 1.247 . S
C863 C857 1.507 . S
H864 C837 0.930 . S
H865 C838 0.931 . S
H866 C839 0.930 . S
H867 C840 0.930 . S
H868 C859 0.930 . S
H869 C860 0.931 . S
H870 C861 0.930 . S
H871 C862 0.930 . S
Tb872 C882 2.825 . S
Tb872 O883 2.347 . S
Tb872 O886 2.366 . S
Tb872 O891 2.418 . S
Tb872 O892 2.384 . S
Tb872 O895 2.479 . S
Tb872 O896 2.471 . S
Eu873 O884 2.418 . S
Eu873 O885 2.384 . S
Eu873 O888 2.479 . S
Eu873 O889 2.471 . S
Eu873 O890 2.347 . S
Eu873 O893 2.366 . S
Eu873 C903 2.825 . S
C874 O890 1.259 . S
C874 O891 1.265 . S
C875 O892 1.255 . S
C875 O893 1.265 . S
C876 C878 1.380 . S
C876 C879 1.374 . S
C876 C882 1.507 . S
C877 C878 1.384 . S
C877 C881 1.387 . S
C877 H904 0.930 . S
C878 C876 1.380 . S
C878 C877 1.384 . S
C878 H905 0.931 . S
C879 C876 1.374 . S
C879 C880 1.390 . S
C879 H906 0.930 . S
C880 C879 1.390 . S
C880 C881 1.391 . S
C880 H907 0.930 . S
C881 C877 1.387 . S
C881 C880 1.391 . S
C882 Tb872 2.825 . S
C882 C876 1.507 . S
C882 O895 1.238 . S
C882 O896 1.247 . S
O883 Tb872 2.347 . S
O883 C887 1.259 . S
O884 Eu873 2.418 . S
O884 C887 1.265 . S
O885 Eu873 2.384 . S
O885 C894 1.255 . S
O886 Tb872 2.366 . S
O886 C894 1.265 . S
C887 O883 1.259 . S
C887 O884 1.265 . S
O888 Eu873 2.479 . S
O888 C903 1.238 . S
O889 Eu873 2.471 . S
O889 C903 1.247 . S
O890 Eu873 2.347 . S
O890 C874 1.259 . S
O891 Tb872 2.418 . S
O891 C874 1.265 . S
O892 Tb872 2.384 . S
O892 C875 1.255 . S
O893 Eu873 2.366 . S
O893 C875 1.265 . S
C894 O885 1.255 . S
C894 O886 1.265 . S
O895 Tb872 2.479 . S
O895 C882 1.238 . S
O896 Tb872 2.471 . S
O896 C882 1.247 . S
C897 C900 1.380 . S
C897 C901 1.374 . S
C897 C903 1.507 . S
C898 C899 1.387 . S
C898 C902 1.391 . S
C899 C898 1.387 . S
C899 C900 1.384 . S
C899 H908 0.930 . S
C900 C897 1.380 . S
C900 C899 1.384 . S
C900 H909 0.931 . S
C901 C897 1.374 . S
C901 C902 1.390 . S
C901 H910 0.930 . S
C902 C898 1.391 . S
C902 C901 1.390 . S
C902 H911 0.930 . S
C903 Eu873 2.825 . S
C903 O888 1.238 . S
C903 O889 1.247 . S
C903 C897 1.507 . S
H904 C877 0.930 . S
H905 C878 0.931 . S
H906 C879 0.930 . S
H907 C880 0.930 . S
H908 C899 0.930 . S
H909 C900 0.931 . S
H910 C901 0.930 . S
H911 C902 0.930 . S
Tb912 C922 2.825 1_554 S
Tb912 O923 2.347 1_554 S
Tb912 O926 2.366 . S
Tb912 O931 2.418 . S
Tb912 O932 2.384 . S
Tb912 O935 2.479 . S
Tb912 O936 2.471 1_554 S
Eu913 O924 2.418 1_554 S
Eu913 O925 2.384 . S
Eu913 O928 2.479 . S
Eu913 O929 2.471 . S
Eu913 O930 2.347 . S
Eu913 O933 2.366 . S
Eu913 C943 2.825 . S
C914 O930 1.259 . S
C914 O931 1.265 . S
C915 O932 1.255 . S
C915 O933 1.265 . S
C916 C918 1.380 . S
C916 C919 1.374 . S
C916 C922 1.507 . S
C917 C918 1.384 . S
C917 C921 1.387 . S
C917 H944 0.930 . S
C918 C916 1.380 . S
C918 C917 1.384 . S
C918 H945 0.931 1_556 S
C919 C916 1.374 . S
C919 C920 1.390 . S
C919 H946 0.930 . S
C920 C919 1.390 . S
C920 C921 1.391 . S
C920 H947 0.930 . S
C921 C917 1.387 . S
C921 C920 1.391 . S
C922 Tb912 2.825 1_556 S
C922 C916 1.507 . S
C922 O935 1.238 1_556 S
C922 O936 1.247 . S
O923 Tb912 2.347 1_556 S
O923 C927 1.259 . S
O924 Eu913 2.418 1_556 S
O924 C927 1.265 . S
O925 Eu913 2.384 . S
O925 C934 1.255 . S
O926 Tb912 2.366 . S
O926 C934 1.265 . S
C927 O923 1.259 . S
C927 O924 1.265 . S
O928 Eu913 2.479 . S
O928 C943 1.238 . S
O929 Eu913 2.471 . S
O929 C943 1.247 . S
O930 Eu913 2.347 . S
O930 C914 1.259 . S
O931 Tb912 2.418 . S
O931 C914 1.265 . S
O932 Tb912 2.384 . S
O932 C915 1.255 . S
O933 Eu913 2.366 . S
O933 C915 1.265 . S
C934 O925 1.255 . S
C934 O926 1.265 . S
O935 Tb912 2.479 . S
O935 C922 1.238 1_554 S
O936 Tb912 2.471 1_556 S
O936 C922 1.247 . S
C937 C940 1.380 . S
C937 C941 1.374 . S
C937 C943 1.507 . S
C938 C939 1.387 . S
C938 C942 1.391 . S
C939 C938 1.387 . S
C939 C940 1.384 . S
C939 H948 0.930 . S
C940 C937 1.380 . S
C940 C939 1.384 . S
C940 H949 0.931 . S
C941 C937 1.374 . S
C941 C942 1.390 . S
C941 H950 0.930 . S
C942 C938 1.391 . S
C942 C941 1.390 . S
C942 H951 0.930 . S
C943 Eu913 2.825 . S
C943 O928 1.238 . S
C943 O929 1.247 . S
C943 C937 1.507 . S
H944 C917 0.930 . S
H945 C918 0.931 1_554 S
H946 C919 0.930 . S
H947 C920 0.930 . S
H948 C939 0.930 . S
H949 C940 0.931 . S
H950 C941 0.930 . S
H951 C942 0.930 . S
H952 C958 0.930 . S
H953 C961 0.930 . S
H954 C962 0.930 . S
H955 C963 0.922 1_655 S
H956 C966 0.930 1_554 S
H957 C967 0.930 . S
C958 H952 0.930 . S
C958 C959 1.357 1_455 S
C958 C960 1.415 . S
C959 C958 1.357 1_655 S
C959 C961 1.417 . S
C960 C958 1.415 . S
C960 C965 1.425 . S
C960 C967 1.409 . S
C961 H953 0.930 . S
C961 C959 1.417 . S
C961 C962 1.362 . S
C962 H954 0.930 . S
C962 C961 1.362 . S
C962 C965 1.409 1_655 S
C963 H955 0.922 1_455 S
C963 C964 1.355 . S
C963 C965 1.415 . S
C964 C963 1.355 . S
C964 C966 1.419 . S
C965 C960 1.425 . S
C965 C962 1.409 1_455 S
C965 C963 1.415 . S
C966 H956 0.930 1_556 S
C966 C964 1.419 . S
C966 C967 1.362 . S
C967 H957 0.930 . S
C967 C960 1.409 . S
C967 C966 1.362 . S
H968 C974 0.930 . S
H969 C977 0.930 . S
H970 C978 0.930 . S
H971 C979 0.930 . S
H972 C982 0.930 . S
H973 C983 0.930 . S
C974 H968 0.930 . S
C974 C975 1.355 . S
C974 C976 1.415 . S
C975 C974 1.355 . S
C975 C977 1.419 . S
C976 C974 1.415 . S
C976 C981 1.425 . S
C976 C983 1.409 . S
C977 H969 0.930 . S
C977 C975 1.419 . S
C977 C978 1.362 . S
C978 H970 0.930 . S
C978 C977 1.362 . S
C978 C981 1.409 . S
C979 H971 0.930 . S
C979 C980 1.355 . S
C979 C981 1.415 . S
C980 C979 1.355 . S
C980 C982 1.419 . S
C981 C976 1.425 . S
C981 C978 1.409 . S
C981 C979 1.415 . S
C982 H972 0.930 . S
C982 C980 1.419 . S
C982 C983 1.362 . S
C983 H973 0.930 . S
C983 C976 1.409 . S
C983 C982 1.362 . S
H984 C990 0.930 . S
H985 C993 0.930 . S
H986 C994 0.930 . S
H987 C995 0.930 . S
H988 C998 0.930 . S
H989 C999 0.930 . S
C990 H984 0.930 . S
C990 C991 1.355 . S
C990 C992 1.415 . S
C991 C990 1.355 . S
C991 C993 1.419 . S
C992 C990 1.415 . S
C992 C997 1.425 . S
C992 C999 1.409 . S
C993 H985 0.930 . S
C993 C991 1.419 . S
C993 C994 1.362 . S
C994 H986 0.930 . S
C994 C993 1.362 . S
C994 C997 1.409 . S
C995 H987 0.930 . S
C995 C996 1.355 . S
C995 C997 1.415 . S
C996 C995 1.355 . S
C996 C998 1.419 . S
C997 C992 1.425 . S
C997 C994 1.409 . S
C997 C995 1.415 . S
C998 H988 0.930 . S
C998 C996 1.419 . S
C998 C999 1.362 . S
C999 H989 0.930 . S
C999 C992 1.409 . S
C999 C998 1.362 . S
H1000 C1006 0.930 . S
H1001 C1009 0.930 . S
H1002 C1010 0.930 . S
H1003 C1011 0.930 . S
H1004 C1014 0.930 . S
H1005 C1015 0.930 . S
C1006 H1000 0.930 . S
C1006 C1007 1.355 . S
C1006 C1008 1.415 . S
C1007 C1006 1.355 . S
C1007 C1009 1.419 . S
C1008 C1006 1.415 . S
C1008 C1013 1.425 . S
C1008 C1015 1.409 . S
C1009 H1001 0.930 . S
C1009 C1007 1.419 . S
C1009 C1010 1.362 . S
C1010 H1002 0.930 . S
C1010 C1009 1.362 . S
C1010 C1013 1.409 . S
C1011 H1003 0.930 . S
C1011 C1012 1.355 . S
C1011 C1013 1.415 . S
C1012 C1011 1.355 . S
C1012 C1014 1.419 . S
C1013 C1008 1.425 . S
C1013 C1010 1.409 . S
C1013 C1011 1.415 . S
C1014 H1004 0.930 . S
C1014 C1012 1.419 . S
C1014 C1015 1.362 . S
C1015 H1005 0.930 . S
C1015 C1008 1.409 . S
C1015 C1014 1.362 . S
H1016 C1022 0.930 . S
H1017 C1025 0.930 . S
H1018 C1026 0.930 . S
H1019 C1027 0.930 . S
H1020 C1030 0.930 . S
H1021 C1031 0.930 . S
C1022 H1016 0.930 . S
C1022 C1023 1.355 . S
C1022 C1024 1.415 . S
C1023 C1022 1.355 . S
C1023 C1025 1.419 . S
C1024 C1022 1.415 . S
C1024 C1029 1.425 . S
C1024 C1031 1.409 . S
C1025 H1017 0.930 . S
C1025 C1023 1.419 . S
C1025 C1026 1.362 . S
C1026 H1018 0.930 . S
C1026 C1025 1.362 . S
C1026 C1029 1.409 . S
C1027 H1019 0.930 . S
C1027 C1028 1.355 . S
C1027 C1029 1.415 . S
C1028 C1027 1.355 . S
C1028 C1030 1.419 . S
C1029 C1024 1.425 . S
C1029 C1026 1.409 . S
C1029 C1027 1.415 . S
C1030 H1020 0.930 . S
C1030 C1028 1.419 . S
C1030 C1031 1.362 . S
C1031 H1021 0.930 . S
C1031 C1024 1.409 . S
C1031 C1030 1.362 . S
H1032 C1038 0.930 . S
H1033 C1041 0.930 . S
H1034 C1042 0.930 . S
H1035 C1043 0.930 . S
H1036 C1046 0.930 . S
H1037 C1047 0.930 . S
C1038 H1032 0.930 . S
C1038 C1039 1.355 . S
C1038 C1040 1.415 . S
C1039 C1038 1.355 . S
C1039 C1041 1.419 . S
C1040 C1038 1.415 . S
C1040 C1045 1.425 . S
C1040 C1047 1.409 . S
C1041 H1033 0.930 . S
C1041 C1039 1.419 . S
C1041 C1042 1.362 . S
C1042 H1034 0.930 . S
C1042 C1041 1.362 . S
C1042 C1045 1.409 . S
C1043 H1035 0.930 . S
C1043 C1044 1.355 . S
C1043 C1045 1.415 . S
C1044 C1043 1.355 . S
C1044 C1046 1.419 . S
C1045 C1040 1.425 . S
C1045 C1042 1.409 . S
C1045 C1043 1.415 . S
C1046 H1036 0.930 . S
C1046 C1044 1.419 . S
C1046 C1047 1.362 . S
C1047 H1037 0.930 . S
C1047 C1040 1.409 . S
C1047 C1046 1.362 . S
H1048 C1054 0.930 . S
H1049 C1057 0.930 . S
H1050 C1058 0.930 . S
H1051 C1059 0.930 . S
H1052 C1062 0.930 . S
H1053 C1063 0.930 . S
C1054 H1048 0.930 . S
C1054 C1055 1.355 . S
C1054 C1056 1.415 . S
C1055 C1054 1.355 . S
C1055 C1057 1.419 . S
C1056 C1054 1.415 . S
C1056 C1061 1.425 . S
C1056 C1063 1.409 . S
C1057 H1049 0.930 . S
C1057 C1055 1.419 . S
C1057 C1058 1.362 . S
C1058 H1050 0.930 . S
C1058 C1057 1.362 . S
C1058 C1061 1.409 . S
C1059 H1051 0.930 . S
C1059 C1060 1.355 . S
C1059 C1061 1.415 . S
C1060 C1059 1.355 . S
C1060 C1062 1.419 . S
C1061 C1056 1.425 . S
C1061 C1058 1.409 . S
C1061 C1059 1.415 . S
C1062 H1052 0.930 . S
C1062 C1060 1.419 . S
C1062 C1063 1.362 . S
C1063 H1053 0.930 . S
C1063 C1056 1.409 . S
C1063 C1062 1.362 . S
H1064 C1070 0.930 . S
H1065 C1073 0.930 . S
H1066 C1074 0.930 . S
H1067 C1075 0.930 . S
H1068 C1078 0.930 . S
H1069 C1079 0.930 . S
C1070 H1064 0.930 . S
C1070 C1071 1.355 . S
C1070 C1072 1.415 . S
C1071 C1070 1.355 . S
C1071 C1073 1.419 . S
C1072 C1070 1.415 . S
C1072 C1077 1.425 . S
C1072 C1079 1.409 . S
C1073 H1065 0.930 . S
C1073 C1071 1.419 . S
C1073 C1074 1.362 . S
C1074 H1066 0.930 . S
C1074 C1073 1.362 . S
C1074 C1077 1.409 . S
C1075 H1067 0.930 . S
C1075 C1076 1.355 . S
C1075 C1077 1.415 . S
C1076 C1075 1.355 . S
C1076 C1078 1.419 . S
C1077 C1072 1.425 . S
C1077 C1074 1.409 . S
C1077 C1075 1.415 . S
C1078 H1068 0.930 . S
C1078 C1076 1.419 . S
C1078 C1079 1.362 . S
C1079 H1069 0.930 . S
C1079 C1072 1.409 . S
C1079 C1078 1.362 . S
H1080 C1086 0.930 . S
H1081 C1089 0.930 . S
H1082 C1090 0.942 1_455 S
H1083 C1091 0.930 . S
H1084 C1094 0.930 . S
H1085 C1095 0.930 . S
C1086 H1080 0.930 . S
C1086 C1087 1.355 . S
C1086 C1088 1.415 . S
C1087 C1086 1.355 . S
C1087 C1089 1.419 1_545 S
C1088 C1086 1.415 . S
C1088 C1093 1.425 . S
C1088 C1095 1.409 . S
C1089 H1081 0.930 . S
C1089 C1087 1.419 1_565 S
C1089 C1090 1.362 1_565 S
C1090 H1082 0.942 1_655 S
C1090 C1089 1.362 1_545 S
C1090 C1093 1.409 . S
C1091 H1083 0.930 . S
C1091 C1092 1.355 . S
C1091 C1093 1.415 1_455 S
C1092 C1091 1.355 . S
C1092 C1094 1.419 1_455 S
C1093 C1088 1.425 . S
C1093 C1090 1.409 . S
C1093 C1091 1.415 1_655 S
C1094 H1084 0.930 . S
C1094 C1092 1.419 1_655 S
C1094 C1095 1.362 . S
C1095 H1085 0.930 . S
C1095 C1088 1.409 . S
C1095 C1094 1.362 . S
H1096 C1102 0.930 . S
H1097 C1105 0.930 . S
H1098 C1106 0.930 . S
H1099 C1107 0.930 . S
H1100 C1110 0.930 . S
H1101 C1111 0.930 . S
C1102 H1096 0.930 . S
C1102 C1103 1.355 . S
C1102 C1104 1.415 . S
C1103 C1102 1.355 . S
C1103 C1105 1.419 . S
C1104 C1102 1.415 . S
C1104 C1109 1.425 . S
C1104 C1111 1.409 . S
C1105 H1097 0.930 . S
C1105 C1103 1.419 . S
C1105 C1106 1.362 . S
C1106 H1098 0.930 . S
C1106 C1105 1.362 . S
C1106 C1109 1.409 . S
C1107 H1099 0.930 . S
C1107 C1108 1.355 . S
C1107 C1109 1.415 . S
C1108 C1107 1.355 . S
C1108 C1110 1.419 . S
C1109 C1104 1.425 . S
C1109 C1106 1.409 . S
C1109 C1107 1.415 . S
C1110 H1100 0.930 . S
C1110 C1108 1.419 . S
C1110 C1111 1.362 . S
C1111 H1101 0.930 . S
C1111 C1104 1.409 . S
C1111 C1110 1.362 . S
H1112 C1118 0.930 . S
H1113 C1121 0.930 . S
H1114 C1122 0.934 . S
H1115 C1123 0.930 . S
H1116 C1126 0.930 . S
H1117 C1127 0.930 . S
C1118 H1112 0.930 . S
C1118 C1119 1.355 1_545 S
C1118 C1120 1.415 . S
C1119 C1118 1.355 1_565 S
C1119 C1121 1.419 . S
C1120 C1118 1.415 . S
C1120 C1125 1.425 . S
C1120 C1127 1.409 . S
C1121 H1113 0.930 . S
C1121 C1119 1.419 . S
C1121 C1122 1.365 . S
C1122 H1114 0.934 . S
C1122 C1121 1.365 . S
C1122 C1125 1.402 1_565 S
C1123 H1115 0.930 . S
C1123 C1124 1.355 . S
C1123 C1125 1.415 . S
C1124 C1123 1.355 . S
C1124 C1126 1.419 . S
C1125 C1120 1.425 . S
C1125 C1122 1.402 1_545 S
C1125 C1123 1.415 . S
C1126 H1116 0.930 . S
C1126 C1124 1.419 . S
C1126 C1127 1.362 . S
C1127 H1117 0.930 . S
C1127 C1120 1.409 . S
C1127 C1126 1.362 . S
H1128 C1134 0.930 . S
H1129 C1137 0.930 . S
H1130 C1138 0.930 . S
H1131 C1139 0.930 . S
H1132 C1142 0.930 . S
H1133 C1143 0.930 . S
C1134 H1128 0.930 . S
C1134 C1135 1.355 . S
C1134 C1136 1.415 . S
C1135 C1134 1.355 . S
C1135 C1137 1.419 . S
C1136 C1134 1.415 . S
C1136 C1141 1.425 . S
C1136 C1143 1.409 . S
C1137 H1129 0.930 . S
C1137 C1135 1.419 . S
C1137 C1138 1.362 . S
C1138 H1130 0.930 . S
C1138 C1137 1.362 . S
C1138 C1141 1.409 . S
C1139 H1131 0.930 . S
C1139 C1140 1.355 . S
C1139 C1141 1.415 . S
C1140 C1139 1.355 . S
C1140 C1142 1.419 . S
C1141 C1136 1.425 . S
C1141 C1138 1.409 . S
C1141 C1139 1.415 . S
C1142 H1132 0.930 . S
C1142 C1140 1.419 . S
C1142 C1143 1.362 . S
C1143 H1133 0.930 . S
C1143 C1136 1.409 . S
C1143 C1142 1.362 . S
H1144 C1150 0.930 . S
H1145 C1153 0.930 . S
H1146 C1154 0.930 1_455 S
H1147 C1155 0.930 1_455 S
H1148 C1158 0.930 . S
H1149 C1159 0.930 . S
C1150 H1144 0.930 . S
C1150 C1151 1.355 . S
C1150 C1152 1.415 . S
C1151 C1150 1.355 . S
C1151 C1153 1.419 . S
C1152 C1150 1.415 . S
C1152 C1157 1.425 . S
C1152 C1159 1.409 . S
C1153 H1145 0.930 . S
C1153 C1151 1.419 . S
C1153 C1154 1.362 . S
C1154 H1146 0.930 1_655 S
C1154 C1153 1.362 . S
C1154 C1157 1.409 . S
C1155 H1147 0.930 1_655 S
C1155 C1156 1.355 . S
C1155 C1157 1.415 . S
C1156 C1155 1.355 . S
C1156 C1158 1.419 . S
C1157 C1152 1.425 . S
C1157 C1154 1.409 . S
C1157 C1155 1.415 . S
C1158 H1148 0.930 . S
C1158 C1156 1.419 . S
C1158 C1159 1.362 . S
C1159 H1149 0.930 . S
C1159 C1152 1.409 . S
C1159 C1158 1.362 . S
H1160 C1166 0.930 . S
H1161 C1169 0.930 . S
H1162 C1170 0.930 . S
H1163 C1171 0.930 . S
H1164 C1174 0.930 . S
H1165 C1175 0.930 . S
C1166 H1160 0.930 . S
C1166 C1167 1.355 . S
C1166 C1168 1.415 . S
C1167 C1166 1.355 . S
C1167 C1169 1.419 . S
C1168 C1166 1.415 . S
C1168 C1173 1.425 . S
C1168 C1175 1.409 . S
C1169 H1161 0.930 . S
C1169 C1167 1.419 . S
C1169 C1170 1.362 . S
C1170 H1162 0.930 . S
C1170 C1169 1.362 . S
C1170 C1173 1.409 . S
C1171 H1163 0.930 . S
C1171 C1172 1.355 . S
C1171 C1173 1.415 . S
C1172 C1171 1.355 . S
C1172 C1174 1.419 . S
C1173 C1168 1.425 . S
C1173 C1170 1.409 . S
C1173 C1171 1.415 . S
C1174 H1164 0.930 . S
C1174 C1172 1.419 . S
C1174 C1175 1.362 . S
C1175 H1165 0.930 . S
C1175 C1168 1.409 . S
C1175 C1174 1.362 . S
H1176 C1182 0.930 . S
H1177 C1185 0.929 . S
H1178 C1186 0.930 . S
H1179 C1187 0.930 . S
H1180 C1190 0.930 . S
H1181 C1191 0.930 . S
C1182 H1176 0.930 . S
C1182 C1183 1.362 . S
C1182 C1184 1.415 . S
C1183 C1182 1.362 . S
C1183 C1185 1.435 . S
C1184 C1182 1.415 . S
C1184 C1189 1.425 . S
C1184 C1191 1.409 . S
C1185 H1177 0.929 . S
C1185 C1183 1.435 . S
C1185 C1186 1.362 . S
C1186 H1178 0.930 . S
C1186 C1185 1.362 . S
C1186 C1189 1.409 . S
C1187 H1179 0.930 . S
C1187 C1188 1.355 . S
C1187 C1189 1.415 . S
C1188 C1187 1.355 . S
C1188 C1190 1.419 . S
C1189 C1184 1.425 . S
C1189 C1186 1.409 . S
C1189 C1187 1.415 . S
C1190 H1180 0.930 . S
C1190 C1188 1.419 . S
C1190 C1191 1.362 . S
C1191 H1181 0.930 . S
C1191 C1184 1.409 . S
C1191 C1190 1.362 . S
H1192 C1198 0.930 . S
H1193 C1201 0.930 . S
H1194 C1202 0.930 . S
H1195 C1203 0.930 . S
H1196 C1206 0.930 . S
H1197 C1207 0.930 . S
C1198 H1192 0.930 . S
C1198 C1199 1.355 . S
C1198 C1200 1.415 . S
C1199 C1198 1.355 . S
C1199 C1201 1.419 . S
C1200 C1198 1.415 . S
C1200 C1205 1.425 . S
C1200 C1207 1.409 . S
C1201 H1193 0.930 . S
C1201 C1199 1.419 . S
C1201 C1202 1.362 . S
C1202 H1194 0.930 . S
C1202 C1201 1.362 . S
C1202 C1205 1.409 . S
C1203 H1195 0.930 . S
C1203 C1204 1.355 . S
C1203 C1205 1.415 . S
C1204 C1203 1.355 . S
C1204 C1206 1.419 . S
C1205 C1200 1.425 . S
C1205 C1202 1.409 . S
C1205 C1203 1.415 . S
C1206 H1196 0.930 . S
C1206 C1204 1.419 . S
C1206 C1207 1.362 . S
C1207 H1197 0.930 . S
C1207 C1200 1.409 . S
C1207 C1206 1.362 . S
H1208 C1214 0.930 . S
H1209 C1217 0.930 . S
H1210 C1218 0.930 . S
H1211 C1219 0.930 1_545 S
H1212 C1222 0.930 . S
H1213 C1223 0.930 . S
C1214 H1208 0.930 . S
C1214 C1215 1.355 . S
C1214 C1216 1.415 . S
C1215 C1214 1.355 . S
C1215 C1217 1.419 . S
C1216 C1214 1.415 . S
C1216 C1221 1.425 . S
C1216 C1223 1.409 . S
C1217 H1209 0.930 . S
C1217 C1215 1.419 . S
C1217 C1218 1.362 . S
C1218 H1210 0.930 . S
C1218 C1217 1.362 . S
C1218 C1221 1.409 . S
C1219 H1211 0.930 1_565 S
C1219 C1220 1.355 . S
C1219 C1221 1.415 . S
C1220 C1219 1.355 . S
C1220 C1222 1.419 . S
C1221 C1216 1.425 . S
C1221 C1218 1.409 . S
C1221 C1219 1.415 . S
C1222 H1212 0.930 . S
C1222 C1220 1.419 . S
C1222 C1223 1.362 . S
C1223 H1213 0.930 . S
C1223 C1216 1.409 . S
C1223 C1222 1.362 . S
H1224 C1230 0.930 . S
H1225 C1233 0.930 1_556 S
H1226 C1234 0.930 1_556 S
H1227 C1235 0.930 . S
H1228 C1238 0.930 . S
H1229 C1239 0.930 . S
C1230 H1224 0.930 . S
C1230 C1231 1.355 . S
C1230 C1232 1.415 . S
C1231 C1230 1.355 . S
C1231 C1233 1.419 . S
C1232 C1230 1.415 . S
C1232 C1237 1.425 . S
C1232 C1239 1.409 . S
C1233 H1225 0.930 1_554 S
C1233 C1231 1.419 . S
C1233 C1234 1.362 . S
C1234 H1226 0.930 1_554 S
C1234 C1233 1.362 . S
C1234 C1237 1.409 . S
C1235 H1227 0.930 . S
C1235 C1236 1.355 . S
C1235 C1237 1.415 . S
C1236 C1235 1.355 . S
C1236 C1238 1.419 . S
C1237 C1232 1.425 . S
C1237 C1234 1.409 . S
C1237 C1235 1.415 . S
C1238 H1228 0.930 . S
C1238 C1236 1.419 . S
C1238 C1239 1.362 . S
C1239 H1229 0.930 . S
C1239 C1232 1.409 . S
C1239 C1238 1.362 . S
H1240 C1246 0.930 . S
H1241 C1249 0.930 . S
H1242 C1250 0.930 . S
H1243 C1251 0.930 . S
H1244 C1254 0.930 . S
H1245 C1255 0.930 . S
C1246 H1240 0.930 . S
C1246 C1247 1.355 . S
C1246 C1248 1.415 . S
C1247 C1246 1.355 . S
C1247 C1249 1.419 . S
C1248 C1246 1.415 . S
C1248 C1253 1.425 . S
C1248 C1255 1.409 . S
C1249 H1241 0.930 . S
C1249 C1247 1.419 . S
C1249 C1250 1.362 . S
C1250 H1242 0.930 . S
C1250 C1249 1.362 . S
C1250 C1253 1.409 . S
C1251 H1243 0.930 . S
C1251 C1252 1.355 . S
C1251 C1253 1.415 . S
C1252 C1251 1.355 . S
C1252 C1254 1.419 . S
C1253 C1248 1.425 . S
C1253 C1250 1.409 . S
C1253 C1251 1.415 . S
C1254 H1244 0.930 . S
C1254 C1252 1.419 . S
C1254 C1255 1.362 . S
C1255 H1245 0.930 . S
C1255 C1248 1.409 . S
C1255 C1254 1.362 . S
H1256 C1262 0.930 . S
H1257 C1265 0.930 . S
H1258 C1266 0.930 . S
H1259 C1267 0.930 . S
H1260 C1270 0.930 . S
H1261 C1271 0.930 . S
C1262 H1256 0.930 . S
C1262 C1263 1.355 . S
C1262 C1264 1.415 . S
C1263 C1262 1.355 . S
C1263 C1265 1.419 . S
C1264 C1262 1.415 . S
C1264 C1269 1.425 . S
C1264 C1271 1.409 . S
C1265 H1257 0.930 . S
C1265 C1263 1.419 . S
C1265 C1266 1.362 . S
C1266 H1258 0.930 . S
C1266 C1265 1.362 . S
C1266 C1269 1.409 . S
C1267 H1259 0.930 . S
C1267 C1268 1.355 . S
C1267 C1269 1.415 . S
C1268 C1267 1.355 . S
C1268 C1270 1.419 . S
C1269 C1264 1.425 . S
C1269 C1266 1.409 . S
C1269 C1267 1.415 . S
C1270 H1260 0.930 . S
C1270 C1268 1.419 . S
C1270 C1271 1.362 . S
C1271 H1261 0.930 . S
C1271 C1264 1.409 . S
C1271 C1270 1.362 . S
H1272 C1278 0.930 . S
H1273 C1281 0.930 . S
H1274 C1282 0.930 . S
H1275 C1283 0.930 . S
H1276 C1286 0.930 . S
H1277 C1287 0.930 . S
C1278 H1272 0.930 . S
C1278 C1279 1.355 . S
C1278 C1280 1.415 . S
C1279 C1278 1.355 . S
C1279 C1281 1.419 . S
C1280 C1278 1.415 . S
C1280 C1285 1.425 . S
C1280 C1287 1.409 . S
C1281 H1273 0.930 . S
C1281 C1279 1.419 . S
C1281 C1282 1.362 . S
C1282 H1274 0.930 . S
C1282 C1281 1.362 . S
C1282 C1285 1.409 . S
C1283 H1275 0.930 . S
C1283 C1284 1.355 . S
C1283 C1285 1.415 . S
C1284 C1283 1.355 . S
C1284 C1286 1.419 . S
C1285 C1280 1.425 . S
C1285 C1282 1.409 . S
C1285 C1283 1.415 . S
C1286 H1276 0.930 . S
C1286 C1284 1.419 . S
C1286 C1287 1.362 . S
C1287 H1277 0.930 . S
C1287 C1280 1.409 . S
C1287 C1286 1.362 . S
H1288 C1294 0.930 . S
H1289 C1297 0.930 . S
H1290 C1298 0.930 . S
H1291 C1299 0.930 . S
H1292 C1302 0.930 . S
H1293 C1303 0.930 . S
C1294 H1288 0.930 . S
C1294 C1295 1.355 . S
C1294 C1296 1.415 . S
C1295 C1294 1.355 . S
C1295 C1297 1.419 . S
C1296 C1294 1.415 . S
C1296 C1301 1.425 . S
C1296 C1303 1.409 . S
C1297 H1289 0.930 . S
C1297 C1295 1.419 . S
C1297 C1298 1.362 . S
C1298 H1290 0.930 . S
C1298 C1297 1.362 . S
C1298 C1301 1.409 . S
C1299 H1291 0.930 . S
C1299 C1300 1.355 . S
C1299 C1301 1.415 . S
C1300 C1299 1.355 . S
C1300 C1302 1.419 . S
C1301 C1296 1.425 . S
C1301 C1298 1.409 . S
C1301 C1299 1.415 . S
C1302 H1292 0.930 . S
C1302 C1300 1.419 . S
C1302 C1303 1.362 . S
C1303 H1293 0.930 . S
C1303 C1296 1.409 . S
C1303 C1302 1.362 . S
H1304 C1310 0.930 . S
H1305 C1313 0.930 . S
H1306 C1314 0.930 . S
H1307 C1315 0.930 . S
H1308 C1318 0.930 . S
H1309 C1319 0.930 . S
C1310 H1304 0.930 . S
C1310 C1311 1.355 . S
C1310 C1312 1.415 . S
C1311 C1310 1.355 . S
C1311 C1313 1.419 . S
C1312 C1310 1.415 . S
C1312 C1317 1.425 . S
C1312 C1319 1.409 . S
C1313 H1305 0.930 . S
C1313 C1311 1.419 . S
C1313 C1314 1.362 . S
C1314 H1306 0.930 . S
C1314 C1313 1.362 . S
C1314 C1317 1.409 . S
C1315 H1307 0.930 . S
C1315 C1316 1.355 . S
C1315 C1317 1.415 . S
C1316 C1315 1.355 . S
C1316 C1318 1.419 . S
C1317 C1312 1.425 . S
C1317 C1314 1.409 . S
C1317 C1315 1.415 . S
C1318 H1308 0.930 . S
C1318 C1316 1.419 . S
C1318 C1319 1.362 . S
C1319 H1309 0.930 . S
C1319 C1312 1.409 . S
C1319 C1318 1.362 . S
H1320 C1326 0.930 . S
H1321 C1329 0.930 . S
H1322 C1330 0.930 . S
H1323 C1331 0.930 . S
H1324 C1334 0.930 . S
H1325 C1335 0.930 . S
C1326 H1320 0.930 . S
C1326 C1327 1.355 . S
C1326 C1328 1.415 . S
C1327 C1326 1.355 . S
C1327 C1329 1.419 . S
C1328 C1326 1.415 . S
C1328 C1333 1.425 . S
C1328 C1335 1.409 . S
C1329 H1321 0.930 . S
C1329 C1327 1.419 . S
C1329 C1330 1.362 . S
C1330 H1322 0.930 . S
C1330 C1329 1.362 . S
C1330 C1333 1.409 . S
C1331 H1323 0.930 . S
C1331 C1332 1.355 . S
C1331 C1333 1.415 . S
C1332 C1331 1.355 . S
C1332 C1334 1.419 . S
C1333 C1328 1.425 . S
C1333 C1330 1.409 . S
C1333 C1331 1.415 . S
C1334 H1324 0.930 . S
C1334 C1332 1.419 . S
C1334 C1335 1.362 . S
C1335 H1325 0.930 . S
C1335 C1328 1.409 . S
C1335 C1334 1.362 . S
H1336 C1342 0.930 . S
H1337 C1345 0.930 . S
H1338 C1346 0.930 . S
H1339 C1347 0.930 . S
H1340 C1350 0.930 . S
H1341 C1351 0.930 . S
C1342 H1336 0.930 . S
C1342 C1343 1.355 . S
C1342 C1344 1.415 . S
C1343 C1342 1.355 . S
C1343 C1345 1.419 . S
C1344 C1342 1.415 . S
C1344 C1349 1.425 . S
C1344 C1351 1.409 . S
C1345 H1337 0.930 . S
C1345 C1343 1.419 . S
C1345 C1346 1.362 . S
C1346 H1338 0.930 . S
C1346 C1345 1.362 . S
C1346 C1349 1.409 . S
C1347 H1339 0.930 . S
C1347 C1348 1.355 . S
C1347 C1349 1.415 . S
C1348 C1347 1.355 . S
C1348 C1350 1.419 . S
C1349 C1344 1.425 . S
C1349 C1346 1.409 . S
C1349 C1347 1.415 . S
C1350 H1340 0.930 . S
C1350 C1348 1.419 . S
C1350 C1351 1.362 . S
C1351 H1341 0.930 . S
C1351 C1344 1.409 . S
C1351 C1350 1.362 . S
H1352 C1358 0.930 . S
H1353 C1361 0.930 . S
H1354 C1362 0.930 . S
H1355 C1363 0.930 . S
H1356 C1366 0.930 . S
H1357 C1367 0.930 . S
C1358 H1352 0.930 . S
C1358 C1359 1.355 . S
C1358 C1360 1.415 . S
C1359 C1358 1.355 . S
C1359 C1361 1.419 . S
C1360 C1358 1.415 . S
C1360 C1365 1.425 . S
C1360 C1367 1.409 . S
C1361 H1353 0.930 . S
C1361 C1359 1.419 . S
C1361 C1362 1.362 . S
C1362 H1354 0.930 . S
C1362 C1361 1.362 . S
C1362 C1365 1.409 . S
C1363 H1355 0.930 . S
C1363 C1364 1.355 . S
C1363 C1365 1.415 . S
C1364 C1363 1.355 . S
C1364 C1366 1.419 . S
C1365 C1360 1.425 . S
C1365 C1362 1.409 . S
C1365 C1363 1.415 . S
C1366 H1356 0.930 . S
C1366 C1364 1.419 . S
C1366 C1367 1.362 . S
C1367 H1357 0.930 . S
C1367 C1360 1.409 . S
C1367 C1366 1.362 . S
H1368 C1374 0.930 . S
H1369 C1377 0.930 . S
H1370 C1378 0.930 . S
H1371 C1379 0.930 . S
H1372 C1382 0.930 . S
H1373 C1383 0.930 . S
C1374 H1368 0.930 . S
C1374 C1375 1.355 . S
C1374 C1376 1.415 . S
C1375 C1374 1.355 . S
C1375 C1377 1.419 . S
C1376 C1374 1.415 . S
C1376 C1381 1.425 . S
C1376 C1383 1.409 . S
C1377 H1369 0.930 . S
C1377 C1375 1.419 . S
C1377 C1378 1.362 . S
C1378 H1370 0.930 . S
C1378 C1377 1.362 . S
C1378 C1381 1.409 . S
C1379 H1371 0.930 . S
C1379 C1380 1.355 . S
C1379 C1381 1.415 . S
C1380 C1379 1.355 . S
C1380 C1382 1.419 . S
C1381 C1376 1.425 . S
C1381 C1378 1.409 . S
C1381 C1379 1.415 . S
C1382 H1372 0.930 . S
C1382 C1380 1.419 . S
C1382 C1383 1.362 . S
C1383 H1373 0.930 . S
C1383 C1376 1.409 . S
C1383 C1382 1.362 . S
H1384 C1390 0.930 . S
H1385 C1393 0.930 . S
H1386 C1394 0.930 . S
H1387 C1395 0.930 . S
H1388 C1398 0.930 . S
H1389 C1399 0.930 . S
C1390 H1384 0.930 . S
C1390 C1391 1.355 . S
C1390 C1392 1.415 . S
C1391 C1390 1.355 . S
C1391 C1393 1.419 . S
C1392 C1390 1.415 . S
C1392 C1397 1.425 . S
C1392 C1399 1.409 . S
C1393 H1385 0.930 . S
C1393 C1391 1.419 . S
C1393 C1394 1.362 . S
C1394 H1386 0.930 . S
C1394 C1393 1.362 . S
C1394 C1397 1.409 . S
C1395 H1387 0.930 . S
C1395 C1396 1.355 . S
C1395 C1397 1.415 . S
C1396 C1395 1.355 . S
C1396 C1398 1.419 . S
C1397 C1392 1.425 . S
C1397 C1394 1.409 . S
C1397 C1395 1.415 . S
C1398 H1388 0.930 . S
C1398 C1396 1.419 . S
C1398 C1399 1.362 . S
C1399 H1389 0.930 . S
C1399 C1392 1.409 . S
C1399 C1398 1.362 . S
H1400 C1406 0.930 . S
H1401 C1409 0.930 . S
H1402 C1410 0.930 . S
H1403 C1411 0.930 . S
H1404 C1414 0.930 . S
H1405 C1415 0.930 . S
C1406 H1400 0.930 . S
C1406 C1407 1.355 . S
C1406 C1408 1.415 . S
C1407 C1406 1.355 . S
C1407 C1409 1.419 . S
C1408 C1406 1.415 . S
C1408 C1413 1.425 . S
C1408 C1415 1.409 . S
C1409 H1401 0.930 . S
C1409 C1407 1.419 . S
C1409 C1410 1.362 . S
C1410 H1402 0.930 . S
C1410 C1409 1.362 . S
C1410 C1413 1.409 . S
C1411 H1403 0.930 . S
C1411 C1412 1.355 . S
C1411 C1413 1.415 . S
C1412 C1411 1.355 . S
C1412 C1414 1.419 . S
C1413 C1408 1.425 . S
C1413 C1410 1.409 . S
C1413 C1411 1.415 . S
C1414 H1404 0.930 . S
C1414 C1412 1.419 . S
C1414 C1415 1.362 . S
C1415 H1405 0.930 . S
C1415 C1408 1.409 . S
C1415 C1414 1.362 . S
H1416 C1422 0.930 . S
H1417 C1425 0.930 . S
H1418 C1426 0.930 . S
H1419 C1427 0.930 . S
H1420 C1430 0.930 . S
H1421 C1431 0.930 . S
C1422 H1416 0.930 . S
C1422 C1423 1.355 . S
C1422 C1424 1.415 . S
C1423 C1422 1.355 . S
C1423 C1425 1.419 . S
C1424 C1422 1.415 . S
C1424 C1429 1.425 . S
C1424 C1431 1.409 . S
C1425 H1417 0.930 . S
C1425 C1423 1.419 . S
C1425 C1426 1.362 . S
C1426 H1418 0.930 . S
C1426 C1425 1.362 . S
C1426 C1429 1.409 . S
C1427 H1419 0.930 . S
C1427 C1428 1.355 . S
C1427 C1429 1.415 . S
C1428 C1427 1.355 . S
C1428 C1430 1.419 . S
C1429 C1424 1.425 . S
C1429 C1426 1.409 . S
C1429 C1427 1.415 . S
C1430 H1420 0.930 . S
C1430 C1428 1.419 . S
C1430 C1431 1.362 . S
C1431 H1421 0.930 . S
C1431 C1424 1.409 . S
C1431 C1430 1.362 . S
H1432 C1438 0.930 . S
H1433 C1441 0.930 . S
H1434 C1442 0.930 . S
H1435 C1443 0.930 . S
H1436 C1446 0.930 . S
H1437 C1447 0.930 . S
C1438 H1432 0.930 . S
C1438 C1439 1.355 . S
C1438 C1440 1.415 . S
C1439 C1438 1.355 . S
C1439 C1441 1.419 . S
C1440 C1438 1.415 . S
C1440 C1445 1.425 . S
C1440 C1447 1.409 1_556 S
C1441 H1433 0.930 . S
C1441 C1439 1.419 . S
C1441 C1442 1.362 . S
C1442 H1434 0.930 . S
C1442 C1441 1.362 . S
C1442 C1445 1.409 . S
C1443 H1435 0.930 . S
C1443 C1444 1.355 . S
C1443 C1445 1.415 . S
C1444 C1443 1.355 . S
C1444 C1446 1.419 1_556 S
C1445 C1440 1.425 . S
C1445 C1442 1.409 . S
C1445 C1443 1.415 . S
C1446 H1436 0.930 . S
C1446 C1444 1.419 1_554 S
C1446 C1447 1.362 . S
C1447 H1437 0.930 . S
C1447 C1440 1.409 1_554 S
C1447 C1446 1.362 . S
H1448 C1454 0.930 . S
H1449 C1457 0.930 . S
H1450 C1458 0.930 . S
H1451 C1459 0.930 . S
H1452 C1462 0.930 . S
H1453 C1463 0.930 . S
C1454 H1448 0.930 . S
C1454 C1455 1.355 . S
C1454 C1456 1.415 . S
C1455 C1454 1.355 . S
C1455 C1457 1.419 . S
C1456 C1454 1.415 . S
C1456 C1461 1.425 . S
C1456 C1463 1.409 . S
C1457 H1449 0.930 . S
C1457 C1455 1.419 . S
C1457 C1458 1.362 . S
C1458 H1450 0.930 . S
C1458 C1457 1.362 . S
C1458 C1461 1.409 . S
C1459 H1451 0.930 . S
C1459 C1460 1.355 . S
C1459 C1461 1.415 . S
C1460 C1459 1.355 . S
C1460 C1462 1.419 . S
C1461 C1456 1.425 . S
C1461 C1458 1.409 . S
C1461 C1459 1.415 . S
C1462 H1452 0.930 . S
C1462 C1460 1.419 . S
C1462 C1463 1.362 . S
C1463 H1453 0.930 . S
C1463 C1456 1.409 . S
C1463 C1462 1.362 . S
H1464 C1470 0.930 . S
H1465 C1473 0.930 . S
H1466 C1474 0.930 . S
H1467 C1475 0.930 . S
H1468 C1478 0.930 . S
H1469 C1479 0.930 . S
C1470 H1464 0.930 . S
C1470 C1471 1.355 . S
C1470 C1472 1.415 . S
C1471 C1470 1.355 . S
C1471 C1473 1.419 . S
C1472 C1470 1.415 . S
C1472 C1477 1.425 . S
C1472 C1479 1.409 . S
C1473 H1465 0.930 . S
C1473 C1471 1.419 . S
C1473 C1474 1.362 . S
C1474 H1466 0.930 . S
C1474 C1473 1.362 . S
C1474 C1477 1.409 . S
C1475 H1467 0.930 . S
C1475 C1476 1.355 . S
C1475 C1477 1.415 . S
C1476 C1475 1.355 . S
C1476 C1478 1.419 . S
C1477 C1472 1.425 . S
C1477 C1474 1.409 . S
C1477 C1475 1.415 . S
C1478 H1468 0.930 . S
C1478 C1476 1.419 . S
C1478 C1479 1.362 . S
C1479 H1469 0.930 . S
C1479 C1472 1.409 . S
C1479 C1478 1.362 . S
H1480 C1486 0.930 . S
H1481 C1489 0.930 . S
H1482 C1490 0.930 . S
H1483 C1491 0.930 . S
H1484 C1494 0.930 . S
H1485 C1495 0.930 . S
C1486 H1480 0.930 . S
C1486 C1487 1.355 . S
C1486 C1488 1.415 . S
C1487 C1486 1.355 . S
C1487 C1489 1.419 . S
C1488 C1486 1.415 . S
C1488 C1493 1.425 . S
C1488 C1495 1.409 . S
C1489 H1481 0.930 . S
C1489 C1487 1.419 . S
C1489 C1490 1.362 . S
C1490 H1482 0.930 . S
C1490 C1489 1.362 . S
C1490 C1493 1.409 . S
C1491 H1483 0.930 . S
C1491 C1492 1.355 . S
C1491 C1493 1.415 . S
C1492 C1491 1.355 . S
C1492 C1494 1.419 . S
C1493 C1488 1.425 . S
C1493 C1490 1.409 . S
C1493 C1491 1.415 . S
C1494 H1484 0.930 . S
C1494 C1492 1.419 . S
C1494 C1495 1.362 . S
C1495 H1485 0.930 . S
C1495 C1488 1.409 . S
C1495 C1494 1.362 . S
H1496 C1502 0.930 . S
H1497 C1505 0.930 . S
H1498 C1506 0.930 . S
H1499 C1507 0.930 . S
H1500 C1510 0.930 . S
H1501 C1511 0.930 . S
C1502 H1496 0.930 . S
C1502 C1503 1.355 . S
C1502 C1504 1.415 . S
C1503 C1502 1.355 . S
C1503 C1505 1.419 . S
C1504 C1502 1.415 . S
C1504 C1509 1.425 . S
C1504 C1511 1.409 . S
C1505 H1497 0.930 . S
C1505 C1503 1.419 . S
C1505 C1506 1.362 . S
C1506 H1498 0.930 . S
C1506 C1505 1.362 . S
C1506 C1509 1.409 . S
C1507 H1499 0.930 . S
C1507 C1508 1.355 . S
C1507 C1509 1.415 . S
C1508 C1507 1.355 . S
C1508 C1510 1.419 . S
C1509 C1504 1.425 . S
C1509 C1506 1.409 . S
C1509 C1507 1.415 . S
C1510 H1500 0.930 . S
C1510 C1508 1.419 . S
C1510 C1511 1.362 . S
C1511 H1501 0.930 . S
C1511 C1504 1.409 . S
C1511 C1510 1.362 . S
H1512 C1518 0.930 . S
H1513 C1521 0.930 . S
H1514 C1522 0.930 . S
H1515 C1523 0.930 . S
H1516 C1526 0.930 . S
H1517 C1527 0.930 . S
C1518 H1512 0.930 . S
C1518 C1519 1.355 . S
C1518 C1520 1.415 . S
C1519 C1518 1.355 . S
C1519 C1521 1.419 . S
C1520 C1518 1.415 . S
C1520 C1525 1.425 . S
C1520 C1527 1.409 . S
C1521 H1513 0.930 . S
C1521 C1519 1.419 . S
C1521 C1522 1.362 . S
C1522 H1514 0.930 . S
C1522 C1521 1.362 . S
C1522 C1525 1.409 . S
C1523 H1515 0.930 . S
C1523 C1524 1.355 . S
C1523 C1525 1.415 . S
C1524 C1523 1.355 . S
C1524 C1526 1.419 . S
C1525 C1520 1.425 . S
C1525 C1522 1.409 . S
C1525 C1523 1.415 . S
C1526 H1516 0.930 . S
C1526 C1524 1.419 . S
C1526 C1527 1.362 . S
C1527 H1517 0.930 . S
C1527 C1520 1.409 . S
C1527 C1526 1.362 . S
H1528 C1534 0.930 . S
H1529 C1537 0.930 . S
H1530 C1538 0.930 . S
H1531 C1539 0.930 . S
H1532 C1542 0.930 . S
H1533 C1543 0.930 . S
C1534 H1528 0.930 . S
C1534 C1535 1.355 . S
C1534 C1536 1.415 . S
C1535 C1534 1.355 . S
C1535 C1537 1.419 . S
C1536 C1534 1.415 . S
C1536 C1541 1.425 . S
C1536 C1543 1.409 . S
C1537 H1529 0.930 . S
C1537 C1535 1.419 . S
C1537 C1538 1.362 . S
C1538 H1530 0.930 . S
C1538 C1537 1.362 . S
C1538 C1541 1.409 . S
C1539 H1531 0.930 . S
C1539 C1540 1.355 . S
C1539 C1541 1.415 . S
C1540 C1539 1.355 . S
C1540 C1542 1.419 . S
C1541 C1536 1.425 . S
C1541 C1538 1.409 . S
C1541 C1539 1.415 . S
C1542 H1532 0.930 . S
C1542 C1540 1.419 . S
C1542 C1543 1.362 . S
C1543 H1533 0.930 . S
C1543 C1536 1.409 . S
C1543 C1542 1.362 . S
H1544 C1550 0.930 . S
H1545 C1553 0.930 . S
H1546 C1554 0.930 . S
H1547 C1555 0.930 . S
H1548 C1558 0.930 . S
H1549 C1559 0.930 . S
C1550 H1544 0.930 . S
C1550 C1551 1.355 . S
C1550 C1552 1.415 . S
C1551 C1550 1.355 . S
C1551 C1553 1.419 . S
C1552 C1550 1.415 . S
C1552 C1557 1.425 . S
C1552 C1559 1.409 . S
C1553 H1545 0.930 . S
C1553 C1551 1.419 . S
C1553 C1554 1.362 . S
C1554 H1546 0.930 . S
C1554 C1553 1.362 . S
C1554 C1557 1.409 . S
C1555 H1547 0.930 . S
C1555 C1556 1.355 . S
C1555 C1557 1.415 . S
C1556 C1555 1.355 . S
C1556 C1558 1.419 . S
C1557 C1552 1.425 . S
C1557 C1554 1.409 . S
C1557 C1555 1.415 . S
C1558 H1548 0.930 . S
C1558 C1556 1.419 . S
C1558 C1559 1.362 . S
C1559 H1549 0.930 . S
C1559 C1552 1.409 . S
C1559 C1558 1.362 . S
H1560 C1566 0.930 . S
H1561 C1569 0.930 . S
H1562 C1570 0.930 . S
H1563 C1571 0.930 1_565 S
H1564 C1574 0.930 . S
H1565 C1575 0.930 . S
C1566 H1560 0.930 . S
C1566 C1567 1.355 . S
C1566 C1568 1.415 . S
C1567 C1566 1.355 . S
C1567 C1569 1.419 . S
C1568 C1566 1.415 . S
C1568 C1573 1.425 . S
C1568 C1575 1.409 . S
C1569 H1561 0.930 . S
C1569 C1567 1.419 . S
C1569 C1570 1.362 . S
C1570 H1562 0.930 . S
C1570 C1569 1.362 . S
C1570 C1573 1.409 . S
C1571 H1563 0.930 1_545 S
C1571 C1572 1.355 . S
C1571 C1573 1.415 . S
C1572 C1571 1.355 . S
C1572 C1574 1.419 . S
C1573 C1568 1.425 . S
C1573 C1570 1.409 . S
C1573 C1571 1.415 . S
C1574 H1564 0.930 . S
C1574 C1572 1.419 . S
C1574 C1575 1.362 . S
C1575 H1565 0.930 . S
C1575 C1568 1.409 . S
C1575 C1574 1.362 . S
H1576 C1582 0.930 . S
H1577 C1585 0.930 . S
H1578 C1586 0.930 . S
H1579 C1587 0.930 . S
H1580 C1590 0.930 . S
H1581 C1591 0.930 . S
C1582 H1576 0.930 . S
C1582 C1583 1.355 . S
C1582 C1584 1.415 . S
C1583 C1582 1.355 . S
C1583 C1585 1.419 . S
C1584 C1582 1.415 . S
C1584 C1589 1.425 . S
C1584 C1591 1.409 . S
C1585 H1577 0.930 . S
C1585 C1583 1.419 . S
C1585 C1586 1.362 . S
C1586 H1578 0.930 . S
C1586 C1585 1.362 . S
C1586 C1589 1.409 . S
C1587 H1579 0.930 . S
C1587 C1588 1.355 . S
C1587 C1589 1.415 . S
C1588 C1587 1.355 . S
C1588 C1590 1.419 . S
C1589 C1584 1.425 . S
C1589 C1586 1.409 . S
C1589 C1587 1.415 . S
C1590 H1580 0.930 . S
C1590 C1588 1.419 . S
C1590 C1591 1.362 . S
C1591 H1581 0.930 . S
C1591 C1584 1.409 . S
C1591 C1590 1.362 . S
H1592 C1598 0.956 . S
H1593 C1601 0.930 . S
H1594 C1602 0.930 . S
H1595 C1603 0.930 . S
H1596 C1606 0.930 . S
H1597 C1607 0.930 1_554 S
C1598 H1592 0.956 . S
C1598 C1599 1.344 1_554 S
C1598 C1600 1.400 1_554 S
C1599 C1598 1.344 1_556 S
C1599 C1601 1.419 . S
C1600 C1598 1.400 1_556 S
C1600 C1605 1.425 . S
C1600 C1607 1.409 . S
C1601 H1593 0.930 . S
C1601 C1599 1.419 . S
C1601 C1602 1.362 . S
C1602 H1594 0.930 . S
C1602 C1601 1.362 . S
C1602 C1605 1.409 . S
C1603 H1595 0.930 . S
C1603 C1604 1.355 . S
C1603 C1605 1.415 . S
C1604 C1603 1.355 . S
C1604 C1606 1.419 . S
C1605 C1600 1.425 . S
C1605 C1602 1.409 . S
C1605 C1603 1.415 . S
C1606 H1596 0.930 . S
C1606 C1604 1.419 . S
C1606 C1607 1.362 . S
C1607 H1597 0.930 1_556 S
C1607 C1600 1.409 . S
C1607 C1606 1.362 . S
H1608 C1614 0.930 . S
H1609 C1617 0.930 . S
H1610 C1618 0.930 1_556 S
H1611 C1619 0.930 . S
H1612 C1622 0.930 . S
H1613 C1623 0.930 . S
C1614 H1608 0.930 . S
C1614 C1615 1.355 . S
C1614 C1616 1.415 . S
C1615 C1614 1.355 . S
C1615 C1617 1.419 . S
C1616 C1614 1.415 . S
C1616 C1621 1.425 . S
C1616 C1623 1.409 . S
C1617 H1609 0.930 . S
C1617 C1615 1.419 . S
C1617 C1618 1.362 . S
C1618 H1610 0.930 1_554 S
C1618 C1617 1.362 . S
C1618 C1621 1.409 . S
C1619 H1611 0.930 . S
C1619 C1620 1.355 . S
C1619 C1621 1.415 . S
C1620 C1619 1.355 . S
C1620 C1622 1.419 . S
C1621 C1616 1.425 . S
C1621 C1618 1.409 . S
C1621 C1619 1.415 . S
C1622 H1612 0.930 . S
C1622 C1620 1.419 . S
C1622 C1623 1.362 . S
C1623 H1613 0.930 . S
C1623 C1616 1.409 . S
C1623 C1622 1.362 . S
H1624 C1630 0.930 . S
H1625 C1633 0.930 . S
H1626 C1634 0.930 . S
H1627 C1635 0.930 . S
H1628 C1638 0.930 . S
H1629 C1639 0.930 . S
C1630 H1624 0.930 . S
C1630 C1631 1.355 . S
C1630 C1632 1.415 . S
C1631 C1630 1.355 . S
C1631 C1633 1.419 . S
C1632 C1630 1.415 . S
C1632 C1637 1.425 . S
C1632 C1639 1.409 . S
C1633 H1625 0.930 . S
C1633 C1631 1.419 . S
C1633 C1634 1.362 . S
C1634 H1626 0.930 . S
C1634 C1633 1.362 . S
C1634 C1637 1.409 . S
C1635 H1627 0.930 . S
C1635 C1636 1.355 . S
C1635 C1637 1.415 . S
C1636 C1635 1.355 . S
C1636 C1638 1.419 . S
C1637 C1632 1.425 . S
C1637 C1634 1.409 . S
C1637 C1635 1.415 . S
C1638 H1628 0.930 . S
C1638 C1636 1.419 . S
C1638 C1639 1.362 . S
C1639 H1629 0.930 . S
C1639 C1632 1.409 . S
C1639 C1638 1.362 . S
H1640 C1646 0.930 . S
H1641 C1649 0.930 . S
H1642 C1650 0.930 . S
H1643 C1651 0.930 . S
H1644 C1654 0.930 . S
H1645 C1655 0.930 . S
C1646 H1640 0.930 . S
C1646 C1647 1.355 . S
C1646 C1648 1.415 . S
C1647 C1646 1.355 . S
C1647 C1649 1.419 . S
C1648 C1646 1.415 . S
C1648 C1653 1.425 . S
C1648 C1655 1.409 . S
C1649 H1641 0.930 . S
C1649 C1647 1.419 . S
C1649 C1650 1.362 . S
C1650 H1642 0.930 . S
C1650 C1649 1.362 . S
C1650 C1653 1.409 . S
C1651 H1643 0.930 . S
C1651 C1652 1.355 . S
C1651 C1653 1.415 . S
C1652 C1651 1.355 . S
C1652 C1654 1.419 . S
C1653 C1648 1.425 . S
C1653 C1650 1.409 . S
C1653 C1651 1.415 . S
C1654 H1644 0.930 . S
C1654 C1652 1.419 . S
C1654 C1655 1.362 . S
C1655 H1645 0.930 . S
C1655 C1648 1.409 . S
C1655 C1654 1.362 . S
H1656 C1662 0.930 . S
H1657 C1665 0.930 . S
H1658 C1666 0.930 . S
H1659 C1667 0.930 . S
H1660 C1670 0.930 . S
H1661 C1671 0.930 . S
C1662 H1656 0.930 . S
C1662 C1663 1.355 . S
C1662 C1664 1.415 . S
C1663 C1662 1.355 . S
C1663 C1665 1.419 . S
C1664 C1662 1.415 . S
C1664 C1669 1.425 . S
C1664 C1671 1.409 . S
C1665 H1657 0.930 . S
C1665 C1663 1.419 . S
C1665 C1666 1.362 . S
C1666 H1658 0.930 . S
C1666 C1665 1.362 . S
C1666 C1669 1.409 . S
C1667 H1659 0.930 . S
C1667 C1668 1.355 . S
C1667 C1669 1.415 . S
C1668 C1667 1.355 . S
C1668 C1670 1.419 . S
C1669 C1664 1.425 . S
C1669 C1666 1.409 . S
C1669 C1667 1.415 . S
C1670 H1660 0.930 . S
C1670 C1668 1.419 . S
C1670 C1671 1.362 . S
C1671 H1661 0.930 . S
C1671 C1664 1.409 . S
C1671 C1670 1.362 . S
H1672 C1678 0.930 . S
H1673 C1681 0.930 . S
H1674 C1682 0.930 . S
H1675 C1683 0.930 1_545 S
H1676 C1686 0.930 . S
H1677 C1687 0.930 . S
C1678 H1672 0.930 . S
C1678 C1679 1.355 . S
C1678 C1680 1.415 . S
C1679 C1678 1.355 . S
C1679 C1681 1.419 . S
C1680 C1678 1.415 . S
C1680 C1685 1.425 . S
C1680 C1687 1.409 . S
C1681 H1673 0.930 . S
C1681 C1679 1.419 . S
C1681 C1682 1.362 . S
C1682 H1674 0.930 . S
C1682 C1681 1.362 . S
C1682 C1685 1.409 . S
C1683 H1675 0.930 1_565 S
C1683 C1684 1.355 . S
C1683 C1685 1.415 . S
C1684 C1683 1.355 . S
C1684 C1686 1.419 . S
C1685 C1680 1.425 . S
C1685 C1682 1.409 . S
C1685 C1683 1.415 . S
C1686 H1676 0.930 . S
C1686 C1684 1.419 . S
C1686 C1687 1.362 . S
C1687 H1677 0.930 . S
C1687 C1680 1.409 . S
C1687 C1686 1.362 . S
H1688 C1694 0.930 . S
H1689 C1697 0.930 . S
H1690 C1698 0.930 . S
H1691 C1699 0.930 . S
H1692 C1702 0.930 . S
H1693 C1703 0.930 . S
C1694 H1688 0.930 . S
C1694 C1695 1.355 . S
C1694 C1696 1.415 . S
C1695 C1694 1.355 . S
C1695 C1697 1.419 . S
C1696 C1694 1.415 . S
C1696 C1701 1.425 . S
C1696 C1703 1.409 . S
C1697 H1689 0.930 . S
C1697 C1695 1.419 . S
C1697 C1698 1.362 . S
C1698 H1690 0.930 . S
C1698 C1697 1.362 . S
C1698 C1701 1.409 . S
C1699 H1691 0.930 . S
C1699 C1700 1.355 . S
C1699 C1701 1.415 . S
C1700 C1699 1.355 . S
C1700 C1702 1.419 . S
C1701 C1696 1.425 . S
C1701 C1698 1.409 . S
C1701 C1699 1.415 . S
C1702 H1692 0.930 . S
C1702 C1700 1.419 . S
C1702 C1703 1.362 . S
C1703 H1693 0.930 . S
C1703 C1696 1.409 . S
C1703 C1702 1.362 . S
H1704 C1710 0.930 . S
H1705 C1713 0.930 . S
H1706 C1714 0.930 . S
H1707 C1715 0.930 . S
H1708 C1718 0.930 . S
H1709 C1719 0.930 . S
C1710 H1704 0.930 . S
C1710 C1711 1.355 . S
C1710 C1712 1.415 . S
C1711 C1710 1.355 . S
C1711 C1713 1.419 . S
C1712 C1710 1.415 . S
C1712 C1717 1.425 . S
C1712 C1719 1.409 . S
C1713 H1705 0.930 . S
C1713 C1711 1.419 . S
C1713 C1714 1.362 . S
C1714 H1706 0.930 . S
C1714 C1713 1.362 . S
C1714 C1717 1.409 . S
C1715 H1707 0.930 . S
C1715 C1716 1.355 . S
C1715 C1717 1.415 . S
C1716 C1715 1.355 . S
C1716 C1718 1.419 . S
C1717 C1712 1.425 . S
C1717 C1714 1.409 . S
C1717 C1715 1.415 . S
C1718 H1708 0.930 . S
C1718 C1716 1.419 . S
C1718 C1719 1.362 . S
C1719 H1709 0.930 . S
C1719 C1712 1.409 . S
C1719 C1718 1.362 . S
H1720 C1726 0.930 . S
H1721 C1729 0.930 . S
H1722 C1730 0.930 . S
H1723 C1731 0.930 . S
H1724 C1734 0.930 . S
H1725 C1735 0.930 . S
C1726 H1720 0.930 . S
C1726 C1727 1.355 . S
C1726 C1728 1.415 . S
C1727 C1726 1.355 . S
C1727 C1729 1.419 . S
C1728 C1726 1.415 . S
C1728 C1733 1.425 . S
C1728 C1735 1.409 . S
C1729 H1721 0.930 . S
C1729 C1727 1.419 . S
C1729 C1730 1.362 . S
C1730 H1722 0.930 . S
C1730 C1729 1.362 . S
C1730 C1733 1.409 . S
C1731 H1723 0.930 . S
C1731 C1732 1.355 . S
C1731 C1733 1.415 . S
C1732 C1731 1.355 . S
C1732 C1734 1.419 . S
C1733 C1728 1.425 . S
C1733 C1730 1.409 . S
C1733 C1731 1.415 . S
C1734 H1724 0.930 . S
C1734 C1732 1.419 . S
C1734 C1735 1.362 . S
C1735 H1725 0.930 . S
C1735 C1728 1.409 . S
C1735 C1734 1.362 . S
H1736 C1742 0.930 . S
H1737 C1745 0.930 . S
H1738 C1746 0.930 . S
H1739 C1747 0.930 . S
H1740 C1750 0.930 . S
H1741 C1751 0.930 . S
C1742 H1736 0.930 . S
C1742 C1743 1.355 . S
C1742 C1744 1.415 . S
C1743 C1742 1.355 . S
C1743 C1745 1.419 . S
C1744 C1742 1.415 . S
C1744 C1749 1.425 . S
C1744 C1751 1.409 . S
C1745 H1737 0.930 . S
C1745 C1743 1.419 . S
C1745 C1746 1.362 . S
C1746 H1738 0.930 . S
C1746 C1745 1.362 . S
C1746 C1749 1.409 . S
C1747 H1739 0.930 . S
C1747 C1748 1.355 . S
C1747 C1749 1.415 . S
C1748 C1747 1.355 . S
C1748 C1750 1.419 . S
C1749 C1744 1.425 . S
C1749 C1746 1.409 . S
C1749 C1747 1.415 . S
C1750 H1740 0.930 . S
C1750 C1748 1.419 . S
C1750 C1751 1.362 . S
C1751 H1741 0.930 . S
C1751 C1744 1.409 . S
C1751 C1750 1.362 . S
H1752 C1758 0.930 1_655 S
H1753 C1761 0.930 . S
H1754 C1762 0.930 . S
H1755 C1763 0.930 . S
H1756 C1766 0.948 . S
H1757 C1767 0.930 . S
C1758 H1752 0.930 1_455 S
C1758 C1759 1.355 . S
C1758 C1760 1.415 . S
C1759 C1758 1.355 . S
C1759 C1761 1.419 . S
C1760 C1758 1.415 . S
C1760 C1765 1.425 . S
C1760 C1767 1.409 1_455 S
C1761 H1753 0.930 . S
C1761 C1759 1.419 . S
C1761 C1762 1.362 . S
C1762 H1754 0.930 . S
C1762 C1761 1.362 . S
C1762 C1765 1.409 . S
C1763 H1755 0.930 . S
C1763 C1764 1.355 . S
C1763 C1765 1.415 . S
C1764 C1763 1.355 . S
C1764 C1766 1.419 . S
C1765 C1760 1.425 . S
C1765 C1762 1.409 . S
C1765 C1763 1.415 . S
C1766 H1756 0.948 . S
C1766 C1764 1.419 . S
C1766 C1767 1.362 1_455 S
C1767 H1757 0.930 . S
C1767 C1760 1.409 1_655 S
C1767 C1766 1.362 1_655 S
H1768 C1774 0.930 . S
H1769 C1777 0.930 . S
H1770 C1778 0.930 . S
H1771 C1779 0.930 . S
H1772 C1782 0.930 . S
H1773 C1783 0.930 . S
C1774 H1768 0.930 . S
C1774 C1775 1.355 . S
C1774 C1776 1.415 . S
C1775 C1774 1.355 . S
C1775 C1777 1.419 . S
C1776 C1774 1.415 . S
C1776 C1781 1.425 . S
C1776 C1783 1.409 1_455 S
C1777 H1769 0.930 . S
C1777 C1775 1.419 . S
C1777 C1778 1.362 . S
C1778 H1770 0.930 . S
C1778 C1777 1.362 . S
C1778 C1781 1.409 . S
C1779 H1771 0.930 . S
C1779 C1780 1.355 . S
C1779 C1781 1.415 1_655 S
C1780 C1779 1.355 . S
C1780 C1782 1.419 . S
C1781 C1776 1.425 . S
C1781 C1778 1.409 . S
C1781 C1779 1.415 1_455 S
C1782 H1772 0.930 . S
C1782 C1780 1.419 . S
C1782 C1783 1.362 . S
C1783 H1773 0.930 . S
C1783 C1776 1.409 1_655 S
C1783 C1782 1.362 . S
H1784 C1790 0.930 . S
H1785 C1793 0.930 . S
H1786 C1794 0.930 . S
H1787 C1795 0.930 . S
H1788 C1798 0.930 . S
H1789 C1799 0.930 . S
C1790 H1784 0.930 . S
C1790 C1791 1.355 . S
C1790 C1792 1.415 . S
C1791 C1790 1.355 . S
C1791 C1793 1.419 . S
C1792 C1790 1.415 . S
C1792 C1797 1.425 . S
C1792 C1799 1.409 . S
C1793 H1785 0.930 . S
C1793 C1791 1.419 . S
C1793 C1794 1.362 . S
C1794 H1786 0.930 . S
C1794 C1793 1.362 . S
C1794 C1797 1.409 . S
C1795 H1787 0.930 . S
C1795 C1796 1.355 . S
C1795 C1797 1.415 . S
C1796 C1795 1.355 . S
C1796 C1798 1.419 . S
C1797 C1792 1.425 . S
C1797 C1794 1.409 . S
C1797 C1795 1.415 . S
C1798 H1788 0.930 . S
C1798 C1796 1.419 . S
C1798 C1799 1.362 . S
C1799 H1789 0.930 . S
C1799 C1792 1.409 . S
C1799 C1798 1.362 . S
H1800 C1806 0.930 . S
H1801 C1809 0.930 . S
H1802 C1810 0.930 . S
H1803 C1811 0.930 . S
H1804 C1814 0.930 . S
H1805 C1815 0.930 . S
C1806 H1800 0.930 . S
C1806 C1807 1.355 . S
C1806 C1808 1.415 . S
C1807 C1806 1.355 . S
C1807 C1809 1.419 . S
C1808 C1806 1.415 . S
C1808 C1813 1.425 . S
C1808 C1815 1.409 . S
C1809 H1801 0.930 . S
C1809 C1807 1.419 . S
C1809 C1810 1.362 . S
C1810 H1802 0.930 . S
C1810 C1809 1.362 . S
C1810 C1813 1.409 . S
C1811 H1803 0.930 . S
C1811 C1812 1.355 . S
C1811 C1813 1.415 . S
C1812 C1811 1.355 . S
C1812 C1814 1.419 . S
C1813 C1808 1.425 . S
C1813 C1810 1.409 . S
C1813 C1811 1.415 . S
C1814 H1804 0.930 . S
C1814 C1812 1.419 . S
C1814 C1815 1.362 . S
C1815 H1805 0.930 . S
C1815 C1808 1.409 . S
C1815 C1814 1.362 . S
H1816 C1822 0.930 . S
H1817 C1825 0.930 . S
H1818 C1826 0.930 . S
H1819 C1827 0.930 . S
H1820 C1830 0.930 . S
H1821 C1831 0.930 . S
C1822 H1816 0.930 . S
C1822 C1823 1.355 . S
C1822 C1824 1.415 . S
C1823 C1822 1.355 . S
C1823 C1825 1.419 . S
C1824 C1822 1.415 . S
C1824 C1829 1.425 . S
C1824 C1831 1.409 . S
C1825 H1817 0.930 . S
C1825 C1823 1.419 . S
C1825 C1826 1.362 . S
C1826 H1818 0.930 . S
C1826 C1825 1.362 . S
C1826 C1829 1.409 . S
C1827 H1819 0.930 . S
C1827 C1828 1.355 . S
C1827 C1829 1.415 . S
C1828 C1827 1.355 . S
C1828 C1830 1.419 . S
C1829 C1824 1.425 . S
C1829 C1826 1.409 . S
C1829 C1827 1.415 . S
C1830 H1820 0.930 . S
C1830 C1828 1.419 . S
C1830 C1831 1.362 . S
C1831 H1821 0.930 . S
C1831 C1824 1.409 . S
C1831 C1830 1.362 . S
H1832 C1838 0.930 . S
H1833 C1841 0.930 . S
H1834 C1842 0.930 . S
H1835 C1843 0.930 . S
H1836 C1846 0.930 . S
H1837 C1847 0.930 . S
C1838 H1832 0.930 . S
C1838 C1839 1.355 . S
C1838 C1840 1.415 . S
C1839 C1838 1.355 . S
C1839 C1841 1.419 . S
C1840 C1838 1.415 . S
C1840 C1845 1.425 . S
C1840 C1847 1.409 . S
C1841 H1833 0.930 . S
C1841 C1839 1.419 . S
C1841 C1842 1.362 . S
C1842 H1834 0.930 . S
C1842 C1841 1.362 . S
C1842 C1845 1.409 . S
C1843 H1835 0.930 . S
C1843 C1844 1.355 . S
C1843 C1845 1.415 . S
C1844 C1843 1.355 . S
C1844 C1846 1.419 . S
C1845 C1840 1.425 . S
C1845 C1842 1.409 . S
C1845 C1843 1.415 . S
C1846 H1836 0.930 . S
C1846 C1844 1.419 . S
C1846 C1847 1.362 . S
C1847 H1837 0.930 . S
C1847 C1840 1.409 . S
C1847 C1846 1.362 . S
H1848 C1854 0.930 . S
H1849 C1857 0.930 . S
H1850 C1858 0.930 . S
H1851 C1859 0.930 . S
H1852 C1862 0.930 . S
H1853 C1863 0.930 . S
C1854 H1848 0.930 . S
C1854 C1855 1.355 . S
C1854 C1856 1.415 . S
C1855 C1854 1.355 . S
C1855 C1857 1.419 . S
C1856 C1854 1.415 . S
C1856 C1861 1.425 . S
C1856 C1863 1.409 . S
C1857 H1849 0.930 . S
C1857 C1855 1.419 . S
C1857 C1858 1.362 . S
C1858 H1850 0.930 . S
C1858 C1857 1.362 . S
C1858 C1861 1.409 . S
C1859 H1851 0.930 . S
C1859 C1860 1.355 . S
C1859 C1861 1.415 . S
C1860 C1859 1.355 . S
C1860 C1862 1.419 . S
C1861 C1856 1.425 . S
C1861 C1858 1.409 . S
C1861 C1859 1.415 . S
C1862 H1852 0.930 . S
C1862 C1860 1.419 . S
C1862 C1863 1.362 . S
C1863 H1853 0.930 . S
C1863 C1856 1.409 . S
C1863 C1862 1.362 . S
H1864 C1870 0.930 . S
H1865 C1873 0.930 . S
H1866 C1874 0.930 . S
H1867 C1875 0.930 . S
H1868 C1878 0.930 . S
H1869 C1879 0.930 . S
C1870 H1864 0.930 . S
C1870 C1871 1.355 . S
C1870 C1872 1.415 . S
C1871 C1870 1.355 . S
C1871 C1873 1.419 . S
C1872 C1870 1.415 . S
C1872 C1877 1.425 . S
C1872 C1879 1.409 . S
C1873 H1865 0.930 . S
C1873 C1871 1.419 . S
C1873 C1874 1.362 . S
C1874 H1866 0.930 . S
C1874 C1873 1.362 . S
C1874 C1877 1.409 . S
C1875 H1867 0.930 . S
C1875 C1876 1.355 . S
C1875 C1877 1.415 . S
C1876 C1875 1.355 . S
C1876 C1878 1.419 . S
C1877 C1872 1.425 . S
C1877 C1874 1.409 . S
C1877 C1875 1.415 . S
C1878 H1868 0.930 . S
C1878 C1876 1.419 . S
C1878 C1879 1.362 . S
C1879 H1869 0.930 . S
C1879 C1872 1.409 . S
C1879 C1878 1.362 . S
H1880 C1886 0.930 . S
H1881 C1889 0.930 . S
H1882 C1890 0.930 . S
H1883 C1891 0.930 . S
H1884 C1894 0.930 . S
H1885 C1895 0.930 . S
C1886 H1880 0.930 . S
C1886 C1887 1.355 . S
C1886 C1888 1.415 . S
C1887 C1886 1.355 . S
C1887 C1889 1.419 . S
C1888 C1886 1.415 . S
C1888 C1893 1.425 . S
C1888 C1895 1.409 . S
C1889 H1881 0.930 . S
C1889 C1887 1.419 . S
C1889 C1890 1.362 . S
C1890 H1882 0.930 . S
C1890 C1889 1.362 . S
C1890 C1893 1.409 . S
C1891 H1883 0.930 . S
C1891 C1892 1.355 . S
C1891 C1893 1.415 . S
C1892 C1891 1.355 . S
C1892 C1894 1.419 . S
C1893 C1888 1.425 . S
C1893 C1890 1.409 . S
C1893 C1891 1.415 . S
C1894 H1884 0.930 . S
C1894 C1892 1.419 . S
C1894 C1895 1.362 . S
C1895 H1885 0.930 . S
C1895 C1888 1.409 . S
C1895 C1894 1.362 . S
H1896 C1902 0.930 . S
H1897 C1905 0.930 . S
H1898 C1906 0.930 . S
H1899 C1907 0.930 . S
H1900 C1910 0.930 . S
H1901 C1911 0.930 . S
C1902 H1896 0.930 . S
C1902 C1903 1.355 . S
C1902 C1904 1.415 . S
C1903 C1902 1.355 . S
C1903 C1905 1.419 . S
C1904 C1902 1.415 . S
C1904 C1909 1.425 . S
C1904 C1911 1.409 . S
C1905 H1897 0.930 . S
C1905 C1903 1.419 . S
C1905 C1906 1.362 . S
C1906 H1898 0.930 . S
C1906 C1905 1.362 . S
C1906 C1909 1.409 . S
C1907 H1899 0.930 . S
C1907 C1908 1.355 . S
C1907 C1909 1.415 . S
C1908 C1907 1.355 . S
C1908 C1910 1.419 . S
C1909 C1904 1.425 . S
C1909 C1906 1.409 . S
C1909 C1907 1.415 . S
C1910 H1900 0.930 . S
C1910 C1908 1.419 . S
C1910 C1911 1.362 . S
C1911 H1901 0.930 . S
C1911 C1904 1.409 . S
C1911 C1910 1.362 . S
H1912 C1918 0.930 . S
H1913 C1921 0.930 . S
H1914 C1922 0.930 . S
H1915 C1923 0.930 . S
H1916 C1926 0.930 . S
H1917 C1927 0.930 . S
C1918 H1912 0.930 . S
C1918 C1919 1.355 . S
C1918 C1920 1.415 . S
C1919 C1918 1.355 . S
C1919 C1921 1.419 . S
C1920 C1918 1.415 . S
C1920 C1925 1.425 . S
C1920 C1927 1.409 . S
C1921 H1913 0.930 . S
C1921 C1919 1.419 . S
C1921 C1922 1.362 . S
C1922 H1914 0.930 . S
C1922 C1921 1.362 . S
C1922 C1925 1.409 . S
C1923 H1915 0.930 . S
C1923 C1924 1.355 . S
C1923 C1925 1.415 . S
C1924 C1923 1.355 . S
C1924 C1926 1.419 . S
C1925 C1920 1.425 . S
C1925 C1922 1.409 . S
C1925 C1923 1.415 . S
C1926 H1916 0.930 . S
C1926 C1924 1.419 . S
C1926 C1927 1.362 . S
C1927 H1917 0.930 . S
C1927 C1920 1.409 . S
C1927 C1926 1.362 . S
H1928 C1934 0.930 . S
H1929 C1937 0.930 . S
H1930 C1938 0.930 . S
H1931 C1939 0.930 . S
H1932 C1942 0.930 . S
H1933 C1943 0.930 . S
C1934 H1928 0.930 . S
C1934 C1935 1.355 . S
C1934 C1936 1.415 . S
C1935 C1934 1.355 . S
C1935 C1937 1.419 . S
C1936 C1934 1.415 . S
C1936 C1941 1.425 . S
C1936 C1943 1.409 . S
C1937 H1929 0.930 . S
C1937 C1935 1.419 . S
C1937 C1938 1.362 . S
C1938 H1930 0.930 . S
C1938 C1937 1.362 . S
C1938 C1941 1.409 . S
C1939 H1931 0.930 . S
C1939 C1940 1.355 . S
C1939 C1941 1.415 . S
C1940 C1939 1.355 . S
C1940 C1942 1.419 . S
C1941 C1936 1.425 . S
C1941 C1938 1.409 . S
C1941 C1939 1.415 . S
C1942 H1932 0.930 . S
C1942 C1940 1.419 . S
C1942 C1943 1.362 . S
C1943 H1933 0.930 . S
C1943 C1936 1.409 . S
C1943 C1942 1.362 . S
H1944 C1950 0.930 . S
H1945 C1953 0.930 . S
H1946 C1954 0.930 . S
H1947 C1955 0.930 . S
H1948 C1958 0.930 . S
H1949 C1959 0.930 . S
C1950 H1944 0.930 . S
C1950 C1951 1.355 . S
C1950 C1952 1.415 . S
C1951 C1950 1.355 . S
C1951 C1953 1.419 . S
C1952 C1950 1.415 . S
C1952 C1957 1.425 . S
C1952 C1959 1.409 . S
C1953 H1945 0.930 . S
C1953 C1951 1.419 . S
C1953 C1954 1.362 . S
C1954 H1946 0.930 . S
C1954 C1953 1.362 . S
C1954 C1957 1.409 . S
C1955 H1947 0.930 . S
C1955 C1956 1.355 . S
C1955 C1957 1.415 . S
C1956 C1955 1.355 . S
C1956 C1958 1.419 . S
C1957 C1952 1.425 . S
C1957 C1954 1.409 . S
C1957 C1955 1.415 . S
C1958 H1948 0.930 . S
C1958 C1956 1.419 . S
C1958 C1959 1.362 . S
C1959 H1949 0.930 . S
C1959 C1952 1.409 . S
C1959 C1958 1.362 . S
H1960 C1966 0.930 . S
H1961 C1969 0.930 . S
H1962 C1970 0.930 . S
H1963 C1971 0.930 . S
H1964 C1974 0.930 . S
H1965 C1975 0.930 . S
C1966 H1960 0.930 . S
C1966 C1967 1.355 . S
C1966 C1968 1.415 . S
C1967 C1966 1.355 . S
C1967 C1969 1.419 . S
C1968 C1966 1.415 . S
C1968 C1973 1.425 . S
C1968 C1975 1.409 . S
C1969 H1961 0.930 . S
C1969 C1967 1.419 . S
C1969 C1970 1.362 . S
C1970 H1962 0.930 . S
C1970 C1969 1.362 . S
C1970 C1973 1.409 . S
C1971 H1963 0.930 . S
C1971 C1972 1.355 . S
C1971 C1973 1.415 . S
C1972 C1971 1.355 . S
C1972 C1974 1.419 . S
C1973 C1968 1.425 . S
C1973 C1970 1.409 . S
C1973 C1971 1.415 . S
C1974 H1964 0.930 . S
C1974 C1972 1.419 . S
C1974 C1975 1.362 . S
C1975 H1965 0.930 . S
C1975 C1968 1.409 . S
C1975 C1974 1.362 . S
H1976 C1982 0.930 . S
H1977 C1985 0.930 . S
H1978 C1986 0.930 . S
H1979 C1987 0.930 . S
H1980 C1990 0.930 . S
H1981 C1991 0.930 . S
C1982 H1976 0.930 . S
C1982 C1983 1.355 . S
C1982 C1984 1.415 . S
C1983 C1982 1.355 . S
C1983 C1985 1.419 . S
C1984 C1982 1.415 . S
C1984 C1989 1.425 . S
C1984 C1991 1.409 . S
C1985 H1977 0.930 . S
C1985 C1983 1.419 . S
C1985 C1986 1.362 . S
C1986 H1978 0.930 . S
C1986 C1985 1.362 . S
C1986 C1989 1.409 . S
C1987 H1979 0.930 . S
C1987 C1988 1.355 . S
C1987 C1989 1.415 . S
C1988 C1987 1.355 . S
C1988 C1990 1.419 . S
C1989 C1984 1.425 . S
C1989 C1986 1.409 . S
C1989 C1987 1.415 . S
C1990 H1980 0.930 . S
C1990 C1988 1.419 . S
C1990 C1991 1.362 . S
C1991 H1981 0.930 . S
C1991 C1984 1.409 . S
C1991 C1990 1.362 . S
H1992 C1998 0.930 . S
H1993 C2001 0.930 . S
H1994 C2002 0.930 . S
H1995 C2003 0.930 . S
H1996 C2006 0.930 . S
H1997 C2007 0.930 . S
C1998 H1992 0.930 . S
C1998 C1999 1.355 . S
C1998 C2000 1.415 . S
C1999 C1998 1.355 . S
C1999 C2001 1.419 . S
C2000 C1998 1.415 . S
C2000 C2005 1.425 . S
C2000 C2007 1.409 . S
C2001 H1993 0.930 . S
C2001 C1999 1.419 . S
C2001 C2002 1.362 . S
C2002 H1994 0.930 . S
C2002 C2001 1.362 . S
C2002 C2005 1.409 . S
C2003 H1995 0.930 . S
C2003 C2004 1.355 . S
C2003 C2005 1.415 . S
C2004 C2003 1.355 . S
C2004 C2006 1.419 . S
C2005 C2000 1.425 . S
C2005 C2002 1.409 . S
C2005 C2003 1.415 . S
C2006 H1996 0.930 . S
C2006 C2004 1.419 . S
C2006 C2007 1.362 . S
C2007 H1997 0.930 . S
C2007 C2000 1.409 . S
C2007 C2006 1.362 . S
H2008 C2014 0.930 . S
H2009 C2017 0.930 . S
H2010 C2018 0.930 . S
H2011 C2019 0.930 . S
H2012 C2022 0.930 . S
H2013 C2023 0.930 . S
C2014 H2008 0.930 . S
C2014 C2015 1.355 1_565 S
C2014 C2016 1.415 . S
C2015 C2014 1.355 1_545 S
C2015 C2017 1.419 . S
C2016 C2014 1.415 . S
C2016 C2021 1.425 . S
C2016 C2023 1.409 . S
C2017 H2009 0.930 . S
C2017 C2015 1.419 . S
C2017 C2018 1.362 . S
C2018 H2010 0.930 . S
C2018 C2017 1.362 . S
C2018 C2021 1.409 1_545 S
C2019 H2011 0.930 . S
C2019 C2020 1.355 . S
C2019 C2021 1.415 . S
C2020 C2019 1.355 . S
C2020 C2022 1.419 . S
C2021 C2016 1.425 . S
C2021 C2018 1.409 1_565 S
C2021 C2019 1.415 . S
C2022 H2012 0.930 . S
C2022 C2020 1.419 . S
C2022 C2023 1.362 . S
C2023 H2013 0.930 . S
C2023 C2016 1.409 . S
C2023 C2022 1.362 . S
H2024 C2030 0.930 . S
H2025 C2033 0.930 . S
H2026 C2034 0.930 . S
H2027 C2035 0.930 . S
H2028 C2038 0.930 . S
H2029 C2039 0.912 1_545 S
C2030 H2024 0.930 . S
C2030 C2031 1.355 . S
C2030 C2032 1.415 . S
C2031 C2030 1.355 . S
C2031 C2033 1.419 . S
C2032 C2030 1.415 . S
C2032 C2037 1.425 . S
C2032 C2039 1.439 . S
C2033 H2025 0.930 . S
C2033 C2031 1.419 . S
C2033 C2034 1.362 . S
C2034 H2026 0.930 . S
C2034 C2033 1.362 . S
C2034 C2037 1.409 . S
C2035 H2027 0.930 . S
C2035 C2036 1.355 1_565 S
C2035 C2037 1.415 . S
C2036 C2035 1.355 1_545 S
C2036 C2038 1.419 . S
C2037 C2032 1.425 . S
C2037 C2034 1.409 . S
C2037 C2035 1.415 . S
C2038 H2028 0.930 . S
C2038 C2036 1.419 . S
C2038 C2039 1.351 1_545 S
C2039 H2029 0.912 1_565 S
C2039 C2032 1.439 . S
C2039 C2038 1.351 1_565 S
H2040 C2046 0.930 . S
H2041 C2049 0.930 . S
H2042 C2050 0.930 . S
H2043 C2051 0.930 . S
H2044 C2054 0.930 . S
H2045 C2055 0.930 . S
C2046 H2040 0.930 . S
C2046 C2047 1.355 . S
C2046 C2048 1.415 . S
C2047 C2046 1.355 . S
C2047 C2049 1.419 . S
C2048 C2046 1.415 . S
C2048 C2053 1.425 . S
C2048 C2055 1.409 . S
C2049 H2041 0.930 . S
C2049 C2047 1.419 . S
C2049 C2050 1.362 . S
C2050 H2042 0.930 . S
C2050 C2049 1.362 . S
C2050 C2053 1.409 . S
C2051 H2043 0.930 . S
C2051 C2052 1.355 . S
C2051 C2053 1.415 . S
C2052 C2051 1.355 . S
C2052 C2054 1.419 . S
C2053 C2048 1.425 . S
C2053 C2050 1.409 . S
C2053 C2051 1.415 . S
C2054 H2044 0.930 . S
C2054 C2052 1.419 . S
C2054 C2055 1.362 . S
C2055 H2045 0.930 . S
C2055 C2048 1.409 . S
C2055 C2054 1.362 . S
H2056 C2062 0.930 . S
H2057 C2065 0.930 . S
H2058 C2066 0.930 . S
H2059 C2067 0.930 . S
H2060 C2070 0.930 1_455 S
H2061 C2071 0.930 . S
C2062 H2056 0.930 . S
C2062 C2063 1.355 . S
C2062 C2064 1.415 . S
C2063 C2062 1.355 . S
C2063 C2065 1.419 . S
C2064 C2062 1.415 . S
C2064 C2069 1.425 . S
C2064 C2071 1.409 . S
C2065 H2057 0.930 . S
C2065 C2063 1.419 . S
C2065 C2066 1.362 . S
C2066 H2058 0.930 . S
C2066 C2065 1.362 . S
C2066 C2069 1.409 . S
C2067 H2059 0.930 . S
C2067 C2068 1.355 . S
C2067 C2069 1.415 . S
C2068 C2067 1.355 . S
C2068 C2070 1.419 . S
C2069 C2064 1.425 . S
C2069 C2066 1.409 . S
C2069 C2067 1.415 . S
C2070 H2060 0.930 1_655 S
C2070 C2068 1.419 . S
C2070 C2071 1.362 . S
C2071 H2061 0.930 . S
C2071 C2064 1.409 . S
C2071 C2070 1.362 . S
H2072 C2078 0.930 . S
H2073 C2081 0.930 . S
H2074 C2082 0.930 . S
H2075 C2083 0.930 . S
H2076 C2086 0.930 . S
H2077 C2087 0.930 . S
C2078 H2072 0.930 . S
C2078 C2079 1.355 . S
C2078 C2080 1.415 . S
C2079 C2078 1.355 . S
C2079 C2081 1.419 . S
C2080 C2078 1.415 . S
C2080 C2085 1.425 . S
C2080 C2087 1.409 . S
C2081 H2073 0.930 . S
C2081 C2079 1.419 . S
C2081 C2082 1.362 . S
C2082 H2074 0.930 . S
C2082 C2081 1.362 . S
C2082 C2085 1.409 . S
C2083 H2075 0.930 . S
C2083 C2084 1.355 . S
C2083 C2085 1.415 . S
C2084 C2083 1.355 . S
C2084 C2086 1.419 . S
C2085 C2080 1.425 . S
C2085 C2082 1.409 . S
C2085 C2083 1.415 . S
C2086 H2076 0.930 . S
C2086 C2084 1.419 . S
C2086 C2087 1.362 . S
C2087 H2077 0.930 . S
C2087 C2080 1.409 . S
C2087 C2086 1.362 . S
H2088 C2094 0.930 . S
H2089 C2097 0.930 . S
H2090 C2098 0.930 . S
H2091 C2099 0.930 . S
H2092 C2102 0.930 . S
H2093 C2103 0.930 . S
C2094 H2088 0.930 . S
C2094 C2095 1.355 . S
C2094 C2096 1.415 1_545 S
C2095 C2094 1.355 . S
C2095 C2097 1.419 . S
C2096 C2094 1.415 1_565 S
C2096 C2101 1.425 . S
C2096 C2103 1.409 . S
C2097 H2089 0.930 . S
C2097 C2095 1.419 . S
C2097 C2098 1.362 1_545 S
C2098 H2090 0.930 . S
C2098 C2097 1.362 1_565 S
C2098 C2101 1.409 . S
C2099 H2091 0.930 . S
C2099 C2100 1.355 . S
C2099 C2101 1.415 . S
C2100 C2099 1.355 . S
C2100 C2102 1.419 . S
C2101 C2096 1.425 . S
C2101 C2098 1.409 . S
C2101 C2099 1.415 . S
C2102 H2092 0.930 . S
C2102 C2100 1.419 . S
C2102 C2103 1.362 . S
C2103 H2093 0.930 . S
C2103 C2096 1.409 . S
C2103 C2102 1.362 . S
H2104 C2110 0.930 . S
H2105 C2113 0.930 . S
H2106 C2114 0.930 . S
H2107 C2115 0.930 . S
H2108 C2118 0.930 . S
H2109 C2119 0.930 . S
C2110 H2104 0.930 . S
C2110 C2111 1.355 . S
C2110 C2112 1.415 . S
C2111 C2110 1.355 . S
C2111 C2113 1.419 . S
C2112 C2110 1.415 . S
C2112 C2117 1.425 . S
C2112 C2119 1.409 . S
C2113 H2105 0.930 . S
C2113 C2111 1.419 . S
C2113 C2114 1.362 . S
C2114 H2106 0.930 . S
C2114 C2113 1.362 . S
C2114 C2117 1.409 . S
C2115 H2107 0.930 . S
C2115 C2116 1.355 . S
C2115 C2117 1.415 . S
C2116 C2115 1.355 . S
C2116 C2118 1.419 . S
C2117 C2112 1.425 . S
C2117 C2114 1.409 . S
C2117 C2115 1.415 . S
C2118 H2108 0.930 . S
C2118 C2116 1.419 . S
C2118 C2119 1.362 . S
C2119 H2109 0.930 . S
C2119 C2112 1.409 . S
C2119 C2118 1.362 . S
H2120 C2126 0.930 . S
H2121 C2129 0.930 . S
H2122 C2130 0.930 . S
H2123 C2131 0.930 . S
H2124 C2134 0.930 . S
H2125 C2135 0.930 . S
C2126 H2120 0.930 . S
C2126 C2127 1.355 . S
C2126 C2128 1.415 . S
C2127 C2126 1.355 . S
C2127 C2129 1.419 . S
C2128 C2126 1.415 . S
C2128 C2133 1.425 . S
C2128 C2135 1.409 . S
C2129 H2121 0.930 . S
C2129 C2127 1.419 . S
C2129 C2130 1.362 . S
C2130 H2122 0.930 . S
C2130 C2129 1.362 . S
C2130 C2133 1.409 . S
C2131 H2123 0.930 . S
C2131 C2132 1.355 . S
C2131 C2133 1.415 . S
C2132 C2131 1.355 . S
C2132 C2134 1.419 . S
C2133 C2128 1.425 . S
C2133 C2130 1.409 . S
C2133 C2131 1.415 . S
C2134 H2124 0.930 . S
C2134 C2132 1.419 . S
C2134 C2135 1.362 . S
C2135 H2125 0.930 . S
C2135 C2128 1.409 . S
C2135 C2134 1.362 . S
H2136 C2142 0.930 . S
H2137 C2145 0.930 . S
H2138 C2146 0.930 . S
H2139 C2147 0.930 . S
H2140 C2150 0.930 . S
H2141 C2151 0.930 . S
C2142 H2136 0.930 . S
C2142 C2143 1.355 . S
C2142 C2144 1.415 . S
C2143 C2142 1.355 . S
C2143 C2145 1.419 . S
C2144 C2142 1.415 . S
C2144 C2149 1.425 . S
C2144 C2151 1.409 . S
C2145 H2137 0.930 . S
C2145 C2143 1.419 . S
C2145 C2146 1.362 . S
C2146 H2138 0.930 . S
C2146 C2145 1.362 . S
C2146 C2149 1.409 . S
C2147 H2139 0.930 . S
C2147 C2148 1.355 . S
C2147 C2149 1.415 . S
C2148 C2147 1.355 . S
C2148 C2150 1.419 . S
C2149 C2144 1.425 . S
C2149 C2146 1.409 . S
C2149 C2147 1.415 . S
C2150 H2140 0.930 . S
C2150 C2148 1.419 . S
C2150 C2151 1.362 . S
C2151 H2141 0.930 . S
C2151 C2144 1.409 . S
C2151 C2150 1.362 . S
H2152 C2158 0.930 . S
H2153 C2161 0.930 . S
H2154 C2162 0.930 . S
H2155 C2163 0.930 . S
H2156 C2166 0.930 . S
H2157 C2167 0.930 . S
C2158 H2152 0.930 . S
C2158 C2159 1.355 . S
C2158 C2160 1.415 . S
C2159 C2158 1.355 . S
C2159 C2161 1.419 . S
C2160 C2158 1.415 . S
C2160 C2165 1.425 . S
C2160 C2167 1.409 . S
C2161 H2153 0.930 . S
C2161 C2159 1.419 . S
C2161 C2162 1.362 . S
C2162 H2154 0.930 . S
C2162 C2161 1.362 . S
C2162 C2165 1.409 . S
C2163 H2155 0.930 . S
C2163 C2164 1.355 . S
C2163 C2165 1.415 . S
C2164 C2163 1.355 . S
C2164 C2166 1.419 . S
C2165 C2160 1.425 . S
C2165 C2162 1.409 . S
C2165 C2163 1.415 . S
C2166 H2156 0.930 . S
C2166 C2164 1.419 . S
C2166 C2167 1.362 . S
C2167 H2157 0.930 . S
C2167 C2160 1.409 . S
C2167 C2166 1.362 . S
H2168 C2174 0.930 . S
H2169 C2177 0.930 . S
H2170 C2178 0.930 . S
H2171 C2179 0.930 . S
H2172 C2182 0.930 . S
H2173 C2183 0.930 . S
C2174 H2168 0.930 . S
C2174 C2175 1.355 . S
C2174 C2176 1.415 . S
C2175 C2174 1.355 . S
C2175 C2177 1.419 . S
C2176 C2174 1.415 . S
C2176 C2181 1.425 . S
C2176 C2183 1.409 . S
C2177 H2169 0.930 . S
C2177 C2175 1.419 . S
C2177 C2178 1.362 . S
C2178 H2170 0.930 . S
C2178 C2177 1.362 . S
C2178 C2181 1.409 . S
C2179 H2171 0.930 . S
C2179 C2180 1.355 . S
C2179 C2181 1.415 . S
C2180 C2179 1.355 . S
C2180 C2182 1.419 . S
C2181 C2176 1.425 . S
C2181 C2178 1.409 . S
C2181 C2179 1.415 . S
C2182 H2172 0.930 . S
C2182 C2180 1.419 . S
C2182 C2183 1.362 . S
C2183 H2173 0.930 . S
C2183 C2176 1.409 . S
C2183 C2182 1.362 . S
H2184 C2190 0.930 . S
H2185 C2193 0.930 . S
H2186 C2194 0.930 . S
H2187 C2195 0.930 . S
H2188 C2198 0.930 . S
H2189 C2199 0.930 . S
C2190 H2184 0.930 . S
C2190 C2191 1.355 . S
C2190 C2192 1.415 . S
C2191 C2190 1.355 . S
C2191 C2193 1.419 . S
C2192 C2190 1.415 . S
C2192 C2197 1.425 . S
C2192 C2199 1.409 . S
C2193 H2185 0.930 . S
C2193 C2191 1.419 . S
C2193 C2194 1.362 . S
C2194 H2186 0.930 . S
C2194 C2193 1.362 . S
C2194 C2197 1.409 . S
C2195 H2187 0.930 . S
C2195 C2196 1.355 . S
C2195 C2197 1.415 . S
C2196 C2195 1.355 . S
C2196 C2198 1.419 . S
C2197 C2192 1.425 . S
C2197 C2194 1.409 . S
C2197 C2195 1.415 . S
C2198 H2188 0.930 . S
C2198 C2196 1.419 . S
C2198 C2199 1.362 . S
C2199 H2189 0.930 . S
C2199 C2192 1.409 . S
C2199 C2198 1.362 . S
H2200 C2206 0.930 . S
H2201 C2209 0.930 . S
H2202 C2210 0.930 . S
H2203 C2211 0.930 . S
H2204 C2214 0.930 . S
H2205 C2215 0.930 . S
C2206 H2200 0.930 . S
C2206 C2207 1.355 . S
C2206 C2208 1.415 . S
C2207 C2206 1.355 . S
C2207 C2209 1.419 . S
C2208 C2206 1.415 . S
C2208 C2213 1.425 . S
C2208 C2215 1.409 . S
C2209 H2201 0.930 . S
C2209 C2207 1.419 . S
C2209 C2210 1.362 . S
C2210 H2202 0.930 . S
C2210 C2209 1.362 . S
C2210 C2213 1.409 . S
C2211 H2203 0.930 . S
C2211 C2212 1.355 . S
C2211 C2213 1.415 . S
C2212 C2211 1.355 . S
C2212 C2214 1.419 . S
C2213 C2208 1.425 . S
C2213 C2210 1.409 . S
C2213 C2211 1.415 . S
C2214 H2204 0.930 . S
C2214 C2212 1.419 . S
C2214 C2215 1.362 . S
C2215 H2205 0.930 . S
C2215 C2208 1.409 . S
C2215 C2214 1.362 . S
H2216 C2222 0.930 . S
H2217 C2225 0.930 . S
H2218 C2226 0.930 . S
H2219 C2227 0.930 . S
H2220 C2230 0.930 . S
H2221 C2231 0.930 . S
C2222 H2216 0.930 . S
C2222 C2223 1.355 . S
C2222 C2224 1.415 . S
C2223 C2222 1.355 . S
C2223 C2225 1.419 . S
C2224 C2222 1.415 . S
C2224 C2229 1.425 . S
C2224 C2231 1.409 . S
C2225 H2217 0.930 . S
C2225 C2223 1.419 . S
C2225 C2226 1.362 . S
C2226 H2218 0.930 . S
C2226 C2225 1.362 . S
C2226 C2229 1.409 . S
C2227 H2219 0.930 . S
C2227 C2228 1.355 . S
C2227 C2229 1.415 . S
C2228 C2227 1.355 . S
C2228 C2230 1.419 . S
C2229 C2224 1.425 . S
C2229 C2226 1.409 . S
C2229 C2227 1.415 . S
C2230 H2220 0.930 . S
C2230 C2228 1.419 . S
C2230 C2231 1.362 . S
C2231 H2221 0.930 . S
C2231 C2224 1.409 . S
C2231 C2230 1.362 . S
H2232 C2238 0.930 . S
H2233 C2241 0.930 . S
H2234 C2242 0.930 . S
H2235 C2243 0.930 . S
H2236 C2246 0.930 . S
H2237 C2247 0.930 . S
C2238 H2232 0.930 . S
C2238 C2239 1.355 . S
C2238 C2240 1.415 . S
C2239 C2238 1.355 . S
C2239 C2241 1.419 . S
C2240 C2238 1.415 . S
C2240 C2245 1.425 . S
C2240 C2247 1.409 . S
C2241 H2233 0.930 . S
C2241 C2239 1.419 . S
C2241 C2242 1.362 . S
C2242 H2234 0.930 . S
C2242 C2241 1.362 . S
C2242 C2245 1.409 . S
C2243 H2235 0.930 . S
C2243 C2244 1.355 . S
C2243 C2245 1.415 . S
C2244 C2243 1.355 . S
C2244 C2246 1.419 . S
C2245 C2240 1.425 . S
C2245 C2242 1.409 . S
C2245 C2243 1.415 . S
C2246 H2236 0.930 . S
C2246 C2244 1.419 . S
C2246 C2247 1.362 . S
C2247 H2237 0.930 . S
C2247 C2240 1.409 . S
C2247 C2246 1.362 . S
H2248 C2254 0.930 . S
H2249 C2257 0.930 . S
H2250 C2258 0.930 . S
H2251 C2259 0.930 . S
H2252 C2262 0.930 . S
H2253 C2263 0.930 . S
C2254 H2248 0.930 . S
C2254 C2255 1.355 . S
C2254 C2256 1.415 . S
C2255 C2254 1.355 . S
C2255 C2257 1.419 . S
C2256 C2254 1.415 . S
C2256 C2261 1.425 . S
C2256 C2263 1.409 . S
C2257 H2249 0.930 . S
C2257 C2255 1.419 . S
C2257 C2258 1.362 . S
C2258 H2250 0.930 . S
C2258 C2257 1.362 . S
C2258 C2261 1.409 . S
C2259 H2251 0.930 . S
C2259 C2260 1.355 . S
C2259 C2261 1.415 . S
C2260 C2259 1.355 . S
C2260 C2262 1.419 . S
C2261 C2256 1.425 . S
C2261 C2258 1.409 . S
C2261 C2259 1.415 . S
C2262 H2252 0.930 . S
C2262 C2260 1.419 . S
C2262 C2263 1.362 . S
C2263 H2253 0.930 . S
C2263 C2256 1.409 . S
C2263 C2262 1.362 . S
H2264 C2270 0.930 . S
H2265 C2273 0.930 . S
H2266 C2274 0.930 . S
H2267 C2275 0.930 . S
H2268 C2278 0.930 . S
H2269 C2279 0.930 . S
C2270 H2264 0.930 . S
C2270 C2271 1.355 . S
C2270 C2272 1.415 . S
C2271 C2270 1.355 . S
C2271 C2273 1.419 . S
C2272 C2270 1.415 . S
C2272 C2277 1.425 . S
C2272 C2279 1.409 . S
C2273 H2265 0.930 . S
C2273 C2271 1.419 . S
C2273 C2274 1.362 . S
C2274 H2266 0.930 . S
C2274 C2273 1.362 . S
C2274 C2277 1.409 . S
C2275 H2267 0.930 . S
C2275 C2276 1.355 . S
C2275 C2277 1.415 . S
C2276 C2275 1.355 . S
C2276 C2278 1.419 . S
C2277 C2272 1.425 . S
C2277 C2274 1.409 . S
C2277 C2275 1.415 . S
C2278 H2268 0.930 . S
C2278 C2276 1.419 . S
C2278 C2279 1.362 . S
C2279 H2269 0.930 . S
C2279 C2272 1.409 . S
C2279 C2278 1.362 . S
H2280 C2286 0.930 . S
H2281 C2289 0.930 . S
H2282 C2290 0.930 . S
H2283 C2291 0.930 . S
H2284 C2294 0.930 . S
H2285 C2295 0.930 . S
C2286 H2280 0.930 . S
C2286 C2287 1.355 . S
C2286 C2288 1.415 . S
C2287 C2286 1.355 . S
C2287 C2289 1.419 . S
C2288 C2286 1.415 . S
C2288 C2293 1.425 . S
C2288 C2295 1.409 . S
C2289 H2281 0.930 . S
C2289 C2287 1.419 . S
C2289 C2290 1.362 . S
C2290 H2282 0.930 . S
C2290 C2289 1.362 . S
C2290 C2293 1.409 . S
C2291 H2283 0.930 . S
C2291 C2292 1.355 . S
C2291 C2293 1.415 . S
C2292 C2291 1.355 . S
C2292 C2294 1.419 . S
C2293 C2288 1.425 . S
C2293 C2290 1.409 . S
C2293 C2291 1.415 . S
C2294 H2284 0.930 . S
C2294 C2292 1.419 . S
C2294 C2295 1.362 . S
C2295 H2285 0.930 . S
C2295 C2288 1.409 . S
C2295 C2294 1.362 . S
H2296 C2302 0.930 . S
H2297 C2305 0.930 . S
H2298 C2306 0.930 . S
H2299 C2307 0.930 . S
H2300 C2310 0.930 . S
H2301 C2311 0.930 . S
C2302 H2296 0.930 . S
C2302 C2303 1.355 . S
C2302 C2304 1.415 . S
C2303 C2302 1.355 . S
C2303 C2305 1.419 . S
C2304 C2302 1.415 . S
C2304 C2309 1.425 . S
C2304 C2311 1.409 . S
C2305 H2297 0.930 . S
C2305 C2303 1.419 . S
C2305 C2306 1.362 . S
C2306 H2298 0.930 . S
C2306 C2305 1.362 . S
C2306 C2309 1.409 . S
C2307 H2299 0.930 . S
C2307 C2308 1.355 . S
C2307 C2309 1.415 . S
C2308 C2307 1.355 . S
C2308 C2310 1.419 . S
C2309 C2304 1.425 . S
C2309 C2306 1.409 . S
C2309 C2307 1.415 . S
C2310 H2300 0.930 . S
C2310 C2308 1.419 . S
C2310 C2311 1.362 . S
C2311 H2301 0.930 . S
C2311 C2304 1.409 . S
C2311 C2310 1.362 . S
H2312 C2318 0.930 . S
H2313 C2321 0.930 . S
H2314 C2322 0.930 . S
H2315 C2323 0.930 . S
H2316 C2326 0.930 . S
H2317 C2327 0.930 . S
C2318 H2312 0.930 . S
C2318 C2319 1.355 . S
C2318 C2320 1.415 . S
C2319 C2318 1.355 . S
C2319 C2321 1.419 . S
C2320 C2318 1.415 . S
C2320 C2325 1.425 . S
C2320 C2327 1.409 . S
C2321 H2313 0.930 . S
C2321 C2319 1.419 . S
C2321 C2322 1.362 . S
C2322 H2314 0.930 . S
C2322 C2321 1.362 . S
C2322 C2325 1.409 . S
C2323 H2315 0.930 . S
C2323 C2324 1.355 . S
C2323 C2325 1.415 . S
C2324 C2323 1.355 . S
C2324 C2326 1.419 . S
C2325 C2320 1.425 . S
C2325 C2322 1.409 . S
C2325 C2323 1.415 . S
C2326 H2316 0.930 . S
C2326 C2324 1.419 . S
C2326 C2327 1.362 . S
C2327 H2317 0.930 . S
C2327 C2320 1.409 . S
C2327 C2326 1.362 . S
H2328 C2334 0.930 1_655 S
H2329 C2337 0.930 . S
H2330 C2338 0.930 . S
H2331 C2339 0.930 . S
H2332 C2342 0.930 . S
H2333 C2343 0.930 . S
C2334 H2328 0.930 1_455 S
C2334 C2335 1.355 . S
C2334 C2336 1.415 . S
C2335 C2334 1.355 . S
C2335 C2337 1.419 . S
C2336 C2334 1.415 . S
C2336 C2341 1.425 . S
C2336 C2343 1.409 1_455 S
C2337 H2329 0.930 . S
C2337 C2335 1.419 . S
C2337 C2338 1.362 . S
C2338 H2330 0.930 . S
C2338 C2337 1.362 . S
C2338 C2341 1.409 . S
C2339 H2331 0.930 . S
C2339 C2340 1.355 . S
C2339 C2341 1.415 . S
C2340 C2339 1.355 . S
C2340 C2342 1.419 1_455 S
C2341 C2336 1.425 . S
C2341 C2338 1.409 . S
C2341 C2339 1.415 . S
C2342 H2332 0.930 . S
C2342 C2340 1.419 1_655 S
C2342 C2343 1.362 . S
C2343 H2333 0.930 . S
C2343 C2336 1.409 1_655 S
C2343 C2342 1.362 . S
H2344 C2350 0.930 . S
H2345 C2353 0.930 . S
H2346 C2354 0.930 . S
H2347 C2355 0.930 . S
H2348 C2358 0.930 . S
H2349 C2359 0.930 . S
C2350 H2344 0.930 . S
C2350 C2351 1.355 . S
C2350 C2352 1.415 . S
C2351 C2350 1.355 . S
C2351 C2353 1.419 . S
C2352 C2350 1.415 . S
C2352 C2357 1.425 . S
C2352 C2359 1.409 . S
C2353 H2345 0.930 . S
C2353 C2351 1.419 . S
C2353 C2354 1.362 . S
C2354 H2346 0.930 . S
C2354 C2353 1.362 . S
C2354 C2357 1.409 . S
C2355 H2347 0.930 . S
C2355 C2356 1.355 . S
C2355 C2357 1.415 . S
C2356 C2355 1.355 . S
C2356 C2358 1.419 . S
C2357 C2352 1.425 . S
C2357 C2354 1.409 . S
C2357 C2355 1.415 . S
C2358 H2348 0.930 . S
C2358 C2356 1.419 . S
C2358 C2359 1.362 . S
C2359 H2349 0.930 . S
C2359 C2352 1.409 . S
C2359 C2358 1.362 . S
H2360 C2366 0.930 . S
H2361 C2369 0.930 . S
H2362 C2370 0.930 . S
H2363 C2371 0.930 . S
H2364 C2374 0.930 . S
H2365 C2375 0.930 . S
C2366 H2360 0.930 . S
C2366 C2367 1.355 . S
C2366 C2368 1.415 . S
C2367 C2366 1.355 . S
C2367 C2369 1.419 . S
C2368 C2366 1.415 . S
C2368 C2373 1.425 . S
C2368 C2375 1.409 . S
C2369 H2361 0.930 . S
C2369 C2367 1.419 . S
C2369 C2370 1.362 . S
C2370 H2362 0.930 . S
C2370 C2369 1.362 . S
C2370 C2373 1.409 . S
C2371 H2363 0.930 . S
C2371 C2372 1.355 . S
C2371 C2373 1.415 . S
C2372 C2371 1.355 . S
C2372 C2374 1.419 . S
C2373 C2368 1.425 . S
C2373 C2370 1.409 . S
C2373 C2371 1.415 . S
C2374 H2364 0.930 . S
C2374 C2372 1.419 . S
C2374 C2375 1.362 . S
C2375 H2365 0.930 . S
C2375 C2368 1.409 . S
C2375 C2374 1.362 . S
H2376 C2382 0.930 . S
H2377 C2385 0.930 . S
H2378 C2386 0.930 . S
H2379 C2387 0.930 . S
H2380 C2390 0.930 . S
H2381 C2391 0.930 . S
C2382 H2376 0.930 . S
C2382 C2383 1.355 . S
C2382 C2384 1.415 . S
C2383 C2382 1.355 . S
C2383 C2385 1.419 . S
C2384 C2382 1.415 . S
C2384 C2389 1.425 . S
C2384 C2391 1.409 1_565 S
C2385 H2377 0.930 . S
C2385 C2383 1.419 . S
C2385 C2386 1.362 . S
C2386 H2378 0.930 . S
C2386 C2385 1.362 . S
C2386 C2389 1.409 . S
C2387 H2379 0.930 . S
C2387 C2388 1.355 1_565 S
C2387 C2389 1.415 . S
C2388 C2387 1.355 1_545 S
C2388 C2390 1.419 . S
C2389 C2384 1.425 . S
C2389 C2386 1.409 . S
C2389 C2387 1.415 . S
C2390 H2380 0.930 . S
C2390 C2388 1.419 . S
C2390 C2391 1.362 . S
C2391 H2381 0.930 . S
C2391 C2384 1.409 1_545 S
C2391 C2390 1.362 . S
H2392 C2398 0.930 . S
H2393 C2401 0.930 . S
H2394 C2402 0.930 . S
H2395 C2403 0.930 . S
H2396 C2406 0.930 . S
H2397 C2407 0.930 . S
C2398 H2392 0.930 . S
C2398 C2399 1.355 . S
C2398 C2400 1.415 . S
C2399 C2398 1.355 . S
C2399 C2401 1.419 . S
C2400 C2398 1.415 . S
C2400 C2405 1.425 . S
C2400 C2407 1.409 . S
C2401 H2393 0.930 . S
C2401 C2399 1.419 . S
C2401 C2402 1.362 . S
C2402 H2394 0.930 . S
C2402 C2401 1.362 . S
C2402 C2405 1.409 . S
C2403 H2395 0.930 . S
C2403 C2404 1.355 . S
C2403 C2405 1.415 . S
C2404 C2403 1.355 . S
C2404 C2406 1.419 . S
C2405 C2400 1.425 . S
C2405 C2402 1.409 . S
C2405 C2403 1.415 . S
C2406 H2396 0.930 . S
C2406 C2404 1.419 . S
C2406 C2407 1.362 . S
C2407 H2397 0.930 . S
C2407 C2400 1.409 . S
C2407 C2406 1.362 . S
H2408 C2414 0.930 . S
H2409 C2417 0.930 . S
H2410 C2418 0.930 . S
H2411 C2419 0.930 . S
H2412 C2422 0.930 . S
H2413 C2423 0.930 . S
C2414 H2408 0.930 . S
C2414 C2415 1.355 . S
C2414 C2416 1.415 . S
C2415 C2414 1.355 . S
C2415 C2417 1.419 1_556 S
C2416 C2414 1.415 . S
C2416 C2421 1.425 1_556 S
C2416 C2423 1.409 . S
C2417 H2409 0.930 . S
C2417 C2415 1.419 1_554 S
C2417 C2418 1.362 . S
C2418 H2410 0.930 . S
C2418 C2417 1.362 . S
C2418 C2421 1.409 . S
C2419 H2411 0.930 . S
C2419 C2420 1.355 . S
C2419 C2421 1.415 . S
C2420 C2419 1.355 . S
C2420 C2422 1.419 1_554 S
C2421 C2416 1.425 1_554 S
C2421 C2418 1.409 . S
C2421 C2419 1.415 . S
C2422 H2412 0.930 . S
C2422 C2420 1.419 1_556 S
C2422 C2423 1.362 . S
C2423 H2413 0.930 . S
C2423 C2416 1.409 . S
C2423 C2422 1.362 . S
H2424 C2430 0.930 . S
H2425 C2433 0.930 . S
H2426 C2434 0.930 . S
H2427 C2435 0.930 . S
H2428 C2438 0.930 . S
H2429 C2439 0.930 . S
C2430 H2424 0.930 . S
C2430 C2431 1.355 . S
C2430 C2432 1.415 . S
C2431 C2430 1.355 . S
C2431 C2433 1.419 . S
C2432 C2430 1.415 . S
C2432 C2437 1.425 . S
C2432 C2439 1.409 . S
C2433 H2425 0.930 . S
C2433 C2431 1.419 . S
C2433 C2434 1.362 . S
C2434 H2426 0.930 . S
C2434 C2433 1.362 . S
C2434 C2437 1.409 . S
C2435 H2427 0.930 . S
C2435 C2436 1.355 . S
C2435 C2437 1.415 . S
C2436 C2435 1.355 . S
C2436 C2438 1.419 . S
C2437 C2432 1.425 . S
C2437 C2434 1.409 . S
C2437 C2435 1.415 . S
C2438 H2428 0.930 . S
C2438 C2436 1.419 . S
C2438 C2439 1.362 . S
C2439 H2429 0.930 . S
C2439 C2432 1.409 . S
C2439 C2438 1.362 . S
H2440 C2446 0.930 . S
H2441 C2449 0.930 . S
H2442 C2450 0.930 . S
H2443 C2451 0.930 1_556 S
H2444 C2454 0.930 . S
H2445 C2455 0.930 . S
C2446 H2440 0.930 . S
C2446 C2447 1.355 . S
C2446 C2448 1.415 . S
C2447 C2446 1.355 . S
C2447 C2449 1.419 1_554 S
C2448 C2446 1.415 . S
C2448 C2453 1.425 . S
C2448 C2455 1.409 . S
C2449 H2441 0.930 . S
C2449 C2447 1.419 1_556 S
C2449 C2450 1.362 . S
C2450 H2442 0.930 . S
C2450 C2449 1.362 . S
C2450 C2453 1.409 1_556 S
C2451 H2443 0.930 1_554 S
C2451 C2452 1.355 . S
C2451 C2453 1.415 . S
C2452 C2451 1.355 . S
C2452 C2454 1.419 . S
C2453 C2448 1.425 . S
C2453 C2450 1.409 1_554 S
C2453 C2451 1.415 . S
C2454 H2444 0.930 . S
C2454 C2452 1.419 . S
C2454 C2455 1.362 . S
C2455 H2445 0.930 . S
C2455 C2448 1.409 . S
C2455 C2454 1.362 . S
H2456 C2462 0.930 . S
H2457 C2465 0.930 . S
H2458 C2466 0.930 . S
H2459 C2467 0.930 . S
H2460 C2470 0.930 . S
H2461 C2471 0.930 . S
C2462 H2456 0.930 . S
C2462 C2463 1.355 . S
C2462 C2464 1.415 . S
C2463 C2462 1.355 . S
C2463 C2465 1.419 . S
C2464 C2462 1.415 . S
C2464 C2469 1.425 . S
C2464 C2471 1.409 . S
C2465 H2457 0.930 . S
C2465 C2463 1.419 . S
C2465 C2466 1.362 . S
C2466 H2458 0.930 . S
C2466 C2465 1.362 . S
C2466 C2469 1.409 . S
C2467 H2459 0.930 . S
C2467 C2468 1.355 . S
C2467 C2469 1.415 . S
C2468 C2467 1.355 . S
C2468 C2470 1.419 . S
C2469 C2464 1.425 . S
C2469 C2466 1.409 . S
C2469 C2467 1.415 . S
C2470 H2460 0.930 . S
C2470 C2468 1.419 . S
C2470 C2471 1.362 . S
C2471 H2461 0.930 . S
C2471 C2464 1.409 . S
C2471 C2470 1.362 . S
H2472 C2478 0.930 . S
H2473 C2481 0.930 . S
H2474 C2482 0.930 . S
H2475 C2483 0.930 . S
H2476 C2486 0.930 . S
H2477 C2487 0.930 . S
C2478 H2472 0.930 . S
C2478 C2479 1.355 . S
C2478 C2480 1.415 . S
C2479 C2478 1.355 . S
C2479 C2481 1.419 . S
C2480 C2478 1.415 . S
C2480 C2485 1.425 . S
C2480 C2487 1.409 . S
C2481 H2473 0.930 . S
C2481 C2479 1.419 . S
C2481 C2482 1.362 . S
C2482 H2474 0.930 . S
C2482 C2481 1.362 . S
C2482 C2485 1.409 . S
C2483 H2475 0.930 . S
C2483 C2484 1.355 . S
C2483 C2485 1.415 . S
C2484 C2483 1.355 . S
C2484 C2486 1.419 . S
C2485 C2480 1.425 . S
C2485 C2482 1.409 . S
C2485 C2483 1.415 . S
C2486 H2476 0.930 . S
C2486 C2484 1.419 . S
C2486 C2487 1.362 . S
C2487 H2477 0.930 . S
C2487 C2480 1.409 . S
C2487 C2486 1.362 . S
C959 C101 1.830 . S
C964 C334 1.835 1_556 S
C975 C57 1.282 . S
C980 C354 1.333 . S
C991 C73 0.913 . S
C996 C401 0.854 . S
C1012 C458 1.146 . S
C1007 C78 1.087 . S
C1023 C21 2.626 . S
C1028 C475 2.669 1_565 S
C1044 C534 1.903 . S
C1039 C31 1.855 . S
C1060 C567 2.738 . S
C1055 C49 2.732 . S
C1071 C0 2.399 . S
C1076 C614 2.425 . S
C1092 C327 1.595 . S
C1087 C218 1.528 . S
C1103 C229 1.558 . S
C1108 C355 1.575 . S
C1124 C394 0.657 . S
C1119 C257 0.612 1_565 S
C1140 C454 2.213 . S
C1135 C164 2.114 . S
C1151 C216 0.582 . S
C1156 C481 0.510 . S
C1172 C527 2.291 . S
C1167 C231 2.318 . S
C1188 C578 0.829 . S
C1183 C255 0.869 . S
C1204 C607 2.302 . S
C1199 C166 2.315 . S
C1220 C338 1.804 1_565 S
C1215 C143 1.799 . S
C1231 C265 2.169 . S
C1236 C634 2.191 . S
C1252 C698 1.400 . S
C1247 C299 1.276 . S
C1268 C734 1.468 1_655 S
C1263 C291 1.449 . S
C1279 C104 1.377 . S
C1284 C618 1.441 . S
C1295 C117 2.551 . S
C1300 C395 2.588 . S
C1311 C304 1.385 . S
C1316 C767 1.460 . S
C1332 C801 0.527 . S
C1327 C278 0.488 . S
C1348 C315 1.852 . S
C1343 C60 1.916 . S
C1364 C807 1.320 . S
C1359 C96 1.311 . S
C1375 C88 0.732 . S
C1380 C418 0.706 . S
C1391 C65 1.108 . S
C1396 C761 1.029 . S
C1412 C494 2.554 . S
C1407 C10 2.570 . S
C1423 C44 1.830 . S
C1428 C675 1.856 . S
C1444 C554 2.631 1_556 S
C1439 C34 2.535 . S
C1460 C835 2.447 . S
C1455 C13 2.443 1_655 S
C1476 C314 1.587 . S
C1471 C138 1.618 . S
C1492 C814 1.374 . S
C1487 C296 1.406 . S
C1503 C112 0.690 . S
C1508 C407 0.524 . S
C1519 C270 2.130 . S
C1524 C755 2.144 . S
C1535 C140 0.519 . S
C1540 C498 0.534 . S
C1556 C674 2.216 . S
C1551 C294 2.188 . S
C1567 C114 0.576 . S
C1572 C561 0.578 . S
C1583 C268 2.198 . S
C1588 C834 2.259 . S
C1599 C169 1.983 1_556 S
C1604 C321 1.847 . S
C1615 C161 2.138 . S
C1620 C647 2.119 . S
C1631 C234 1.380 . S
C1636 C521 1.351 . S
C1647 C226 1.381 . S
C1652 C715 1.413 . S
C1668 C841 1.492 . S
C1663 C247 1.597 . S
C1679 C195 2.489 . S
C1684 C414 2.498 1_565 S
C1700 C434 1.320 . S
C1695 C239 1.273 . S
C1716 C378 0.384 . S
C1711 C187 0.296 . S
C1727 C75 1.820 . S
C1732 C894 1.853 . S
C1748 C794 1.257 . S
C1743 C83 1.171 . S
C1759 C99 0.879 . S
C1764 C921 0.811 . S
C1775 C52 1.132 . S
C1780 C778 1.178 . S
C1791 C47 2.654 . S
C1796 C635 2.685 . S
C1812 C694 1.916 . S
C1807 C5 1.863 1_655 S
C1828 C727 2.729 . S
C1823 C23 2.746 . S
C1844 C854 2.409 . S
C1839 C26 2.393 . S
C1860 C887 1.579 . S
C1855 C244 1.510 . S
C1871 C177 1.531 . S
C1876 C795 1.560 . S
C1892 C914 0.571 . S
C1887 C192 0.550 . S
C1908 C774 2.213 . S
C1903 C203 2.087 . S
C1924 C641 0.617 . S
C1919 C242 0.479 . S
C1935 C179 2.330 . S
C1940 C687 2.296 . S
C1956 C738 0.725 . S
C1951 C190 0.747 . S
C1967 C205 2.303 . S
C1972 C847 2.292 . S
C1988 C898 1.793 . S
C1983 C286 1.766 . S
C1999 C122 2.142 . S
C2004 C474 2.199 . S
C2020 C538 1.348 . S
C2015 C130 1.207 . S
C2036 C574 1.468 . S
C2031 C148 1.448 . S
C2052 C858 1.291 . S
C2047 C273 1.204 . S
C2063 C260 2.562 . S
C2068 C915 2.597 1_655 S
C2084 C447 1.432 . S
C2079 C135 1.302 . S
C2100 C361 0.539 . S
C2095 C109 0.555 . S
C2111 C86 1.931 . S
C2116 C875 1.878 . S
C2132 C367 1.151 . S
C2127 C70 1.205 . S
C2143 C62 0.770 . S
C2148 C938 0.791 . S
C2159 C91 1.102 . S
C2164 C441 1.098 . S
C2175 C36 2.571 . S
C2180 C654 2.540 1_556 S
C2196 C515 1.891 . S
C2191 C18 1.794 . S
C2207 C8 2.553 . S
C2212 C714 2.652 . S
C2223 C39 2.450 . S
C2228 C595 2.409 . S
C2244 C874 1.608 . S
C2239 C307 1.608 . S
C2255 C153 1.400 . S
C2260 C374 1.368 . S
C2276 C927 0.514 . S
C2271 C281 0.591 . S
C2287 C127 2.144 . S
C2292 C435 2.148 . S
C2303 C309 0.497 . S
C2308 C658 0.502 . S
C2324 C514 2.216 . S
C2319 C151 2.188 1_556 S
C2335 C283 0.710 . S
C2340 C721 0.744 . S
C2356 C594 2.245 . S
C2351 C125 2.233 . S
C2372 C881 1.864 . S
C2367 C221 2.002 . S
C2388 C487 2.160 1_655 S
C2383 C200 2.127 . S
C2399 C208 1.374 . S
C2404 C681 1.348 . S
C2420 C555 1.422 . S
C2415 C174 1.378 . S
C2431 C182 1.580 . S
C2436 C601 1.457 . S
C2447 C156 2.493 . S
C2452 C934 2.509 . S
C2468 C754 1.342 . S
C2463 C213 1.302 . S
C2484 C818 0.312 . S
C2479 C252 0.311 . S
