# Generated by pormake.
# Topology ocu, (6,8)-cn, num edge types: 1
# Building blocks:
#     Node 0, Type 0, BuildingBlock: KUMBUR_clean_sbu_0, # of connection points: 6
#     Node 1, Type 0, BuildingBlock: KUMBUR_clean_sbu_0, # of connection points: 6
#     Node 2, Type 0, BuildingBlock: KUMBUR_clean_sbu_0, # of connection points: 6
#     Node 3, Type 0, BuildingBlock: KUMBUR_clean_sbu_0, # of connection points: 6
#     Node 4, Type 0, BuildingBlock: KUMBUR_clean_sbu_0, # of connection points: 6
#     Node 5, Type 0, BuildingBlock: KUMBUR_clean_sbu_0, # of connection points: 6
#     Node 6, Type 0, BuildingBlock: KUMBUR_clean_sbu_0, # of connection points: 6
#     Node 7, Type 0, BuildingBlock: KUMBUR_clean_sbu_0, # of connection points: 6
#     Node 8, Type 1, BuildingBlock: GIZVER_clean_sbu_0, # of connection points: 8
#     Node 9, Type 1, BuildingBlock: GIZVER_clean_sbu_0, # of connection points: 8
#     Node 10, Type 1, BuildingBlock: GIZVER_clean_sbu_0, # of connection points: 8
#     Node 11, Type 1, BuildingBlock: GIZVER_clean_sbu_0, # of connection points: 8
#     Node 12, Type 1, BuildingBlock: GIZVER_clean_sbu_0, # of connection points: 8
#     Node 13, Type 1, BuildingBlock: GIZVER_clean_sbu_0, # of connection points: 8
#     Edge 14, Type (0, 1), BuildingBlock: OJICUG_clean_linker_0, # of connection points: 2
#     Edge 15, Type (0, 1), BuildingBlock: OJICUG_clean_linker_0, # of connection points: 2
#     Edge 16, Type (0, 1), BuildingBlock: OJICUG_clean_linker_0, # of connection points: 2
#     Edge 17, Type (0, 1), BuildingBlock: OJICUG_clean_linker_0, # of connection points: 2
#     Edge 18, Type (0, 1), BuildingBlock: OJICUG_clean_linker_0, # of connection points: 2
#     Edge 19, Type (0, 1), BuildingBlock: OJICUG_clean_linker_0, # of connection points: 2
#     Edge 20, Type (0, 1), BuildingBlock: OJICUG_clean_linker_0, # of connection points: 2
#     Edge 21, Type (0, 1), BuildingBlock: OJICUG_clean_linker_0, # of connection points: 2
#     Edge 22, Type (0, 1), BuildingBlock: OJICUG_clean_linker_0, # of connection points: 2
#     Edge 23, Type (0, 1), BuildingBlock: OJICUG_clean_linker_0, # of connection points: 2
#     Edge 24, Type (0, 1), BuildingBlock: OJICUG_clean_linker_0, # of connection points: 2
#     Edge 25, Type (0, 1), BuildingBlock: OJICUG_clean_linker_0, # of connection points: 2
#     Edge 26, Type (0, 1), BuildingBlock: OJICUG_clean_linker_0, # of connection points: 2
#     Edge 27, Type (0, 1), BuildingBlock: OJICUG_clean_linker_0, # of connection points: 2
#     Edge 28, Type (0, 1), BuildingBlock: OJICUG_clean_linker_0, # of connection points: 2
#     Edge 29, Type (0, 1), BuildingBlock: OJICUG_clean_linker_0, # of connection points: 2
#     Edge 30, Type (0, 1), BuildingBlock: OJICUG_clean_linker_0, # of connection points: 2
#     Edge 31, Type (0, 1), BuildingBlock: OJICUG_clean_linker_0, # of connection points: 2
#     Edge 32, Type (0, 1), BuildingBlock: OJICUG_clean_linker_0, # of connection points: 2
#     Edge 33, Type (0, 1), BuildingBlock: OJICUG_clean_linker_0, # of connection points: 2
#     Edge 34, Type (0, 1), BuildingBlock: OJICUG_clean_linker_0, # of connection points: 2
#     Edge 35, Type (0, 1), BuildingBlock: OJICUG_clean_linker_0, # of connection points: 2
#     Edge 36, Type (0, 1), BuildingBlock: OJICUG_clean_linker_0, # of connection points: 2
#     Edge 37, Type (0, 1), BuildingBlock: OJICUG_clean_linker_0, # of connection points: 2
#     Edge 38, Type (0, 1), BuildingBlock: OJICUG_clean_linker_0, # of connection points: 2
#     Edge 39, Type (0, 1), BuildingBlock: OJICUG_clean_linker_0, # of connection points: 2
#     Edge 40, Type (0, 1), BuildingBlock: OJICUG_clean_linker_0, # of connection points: 2
#     Edge 41, Type (0, 1), BuildingBlock: OJICUG_clean_linker_0, # of connection points: 2
#     Edge 42, Type (0, 1), BuildingBlock: OJICUG_clean_linker_0, # of connection points: 2
#     Edge 43, Type (0, 1), BuildingBlock: OJICUG_clean_linker_0, # of connection points: 2
#     Edge 44, Type (0, 1), BuildingBlock: OJICUG_clean_linker_0, # of connection points: 2
#     Edge 45, Type (0, 1), BuildingBlock: OJICUG_clean_linker_0, # of connection points: 2
#     Edge 46, Type (0, 1), BuildingBlock: OJICUG_clean_linker_0, # of connection points: 2
#     Edge 47, Type (0, 1), BuildingBlock: OJICUG_clean_linker_0, # of connection points: 2
#     Edge 48, Type (0, 1), BuildingBlock: OJICUG_clean_linker_0, # of connection points: 2
#     Edge 49, Type (0, 1), BuildingBlock: OJICUG_clean_linker_0, # of connection points: 2
#     Edge 50, Type (0, 1), BuildingBlock: OJICUG_clean_linker_0, # of connection points: 2
#     Edge 51, Type (0, 1), BuildingBlock: OJICUG_clean_linker_0, # of connection points: 2
#     Edge 52, Type (0, 1), BuildingBlock: OJICUG_clean_linker_0, # of connection points: 2
#     Edge 53, Type (0, 1), BuildingBlock: OJICUG_clean_linker_0, # of connection points: 2
#     Edge 54, Type (0, 1), BuildingBlock: OJICUG_clean_linker_0, # of connection points: 2
#     Edge 55, Type (0, 1), BuildingBlock: OJICUG_clean_linker_0, # of connection points: 2
#     Edge 56, Type (0, 1), BuildingBlock: OJICUG_clean_linker_0, # of connection points: 2
#     Edge 57, Type (0, 1), BuildingBlock: OJICUG_clean_linker_0, # of connection points: 2
#     Edge 58, Type (0, 1), BuildingBlock: OJICUG_clean_linker_0, # of connection points: 2
#     Edge 59, Type (0, 1), BuildingBlock: OJICUG_clean_linker_0, # of connection points: 2
#     Edge 60, Type (0, 1), BuildingBlock: OJICUG_clean_linker_0, # of connection points: 2
#     Edge 61, Type (0, 1), BuildingBlock: OJICUG_clean_linker_0, # of connection points: 2
# Relax obj value: 0.183
# Max RMSD: 0.290
# Mean RMSD: 0.215
data_MOF--net-ocu--node1-KUMBUR_clean_sbu_0--node2-GIZVER_clean_sbu_0--edge1-OJICUG_clean_linker_0
_symmetry_space_group_name_H-M    P1
_symmetry_Int_Tables_number       1
_symmetry_cell_setting            triclinic
loop_
_symmetry_equiv_pos_as_xyz
'x, y, z'
_cell_length_a     33.070144
_cell_length_b     34.326724
_cell_length_c     27.148669
_cell_angle_alpha  75.510483
_cell_angle_beta   103.49273
_cell_angle_gamma 117.42683
loop_
_atom_site_label
_atom_site_type_symbol
_atom_site_fract_x
_atom_site_fract_y
_atom_site_fract_z
_atom_type_partial_charge
Tb0 Tb 0.26715 0.23432 0.20278 0.0
C1 C 0.41902 0.35073 0.3414 0.0
C2 C 0.43217 0.29617 0.41068 0.0
C3 C 0.49542 0.36827 0.38951 0.0
C4 C 0.40265 0.30904 0.37082 0.0
C5 C 0.46521 0.38147 0.35136 0.0
C6 C 0.47896 0.32553 0.41896 0.0
C7 C 0.44679 0.43696 0.28897 0.0
N8 N 0.38866 0.36205 0.30501 0.0
C9 C 0.40128 0.40517 0.28052 0.0
C10 C 0.47911 0.42487 0.3239 0.0
Tb11 Tb 0.31557 0.30697 0.29265 0.0
N12 N 0.3571 0.28214 0.36235 0.0
C13 C 0.33802 0.2437 0.39597 0.0
C14 C 0.41344 0.25472 0.4418 0.0
C15 C 0.36596 0.229 0.43544 0.0
H16 H 0.37663 0.41488 0.25341 0.0
H17 H 0.35079 0.19747 0.46013 0.0
H18 H 0.50229 0.31608 0.44913 0.0
H19 H 0.45688 0.47073 0.26849 0.0
H20 H 0.30147 0.22308 0.3912 0.0
H21 H 0.21342 0.33294 0.03582 0.0
H22 H 0.43518 0.24268 0.47122 0.0
H23 H 0.21894 0.1235 0.23968 0.0
H24 H 0.26892 0.31581 0.10489 0.0
H25 H 0.14299 0.06139 0.22748 0.0
H26 H 0.5312 0.39119 0.39742 0.0
H27 H 0.13165 0.27797 0.02607 0.0
H28 H 0.07154 0.20171 0.05242 0.0
H29 H 0.51429 0.44958 0.33047 0.0
H30 H 0.05224 0.12723 0.10473 0.0
N31 N 0.2189 0.25305 0.13587 0.0
C32 C 0.23337 0.2918 0.10143 0.0
C33 C 0.156 0.27075 0.05656 0.0
C34 C 0.14222 0.2297 0.08913 0.0
C35 C 0.20203 0.3016 0.06194 0.0
C36 C 0.17506 0.22159 0.12845 0.0
H37 H 0.07894 0.07428 0.16953 0.0
N38 N 0.19829 0.17287 0.19179 0.0
C39 C 0.14833 0.09467 0.20794 0.0
C40 C 0.16433 0.17986 0.15738 0.0
C41 C 0.19152 0.13039 0.21505 0.0
C42 C 0.11227 0.10207 0.17526 0.0
C43 C 0.1203 0.1449 0.14851 0.0
O44 O 0.29701 0.19358 0.19622 0.0
O45 O 0.32085 0.25264 0.26955 0.0
O46 O 0.36966 0.32657 0.24611 0.0
O47 O 0.32375 0.29674 0.17388 0.0
O48 O 0.27979 0.18719 0.26832 0.0
O49 O 0.28253 0.23727 0.13043 0.0
O50 O 0.29843 0.35742 0.29852 0.0
O51 O 0.26121 0.28807 0.22687 0.0
O52 O 0.21302 0.2098 0.25005 0.0
O53 O 0.25489 0.24746 0.3191 0.0
O54 O 0.3021 0.3538 0.22698 0.0
O55 O 0.29728 0.30598 0.36276 0.0
C56 C 0.3153 0.21349 0.29428 0.0
C57 C 0.28319 0.17211 0.11618 0.0
C58 C 0.30493 0.12707 0.08011 0.0
C59 C 0.31617 0.15918 0.11073 0.0
C60 C 0.25927 0.10701 0.05621 0.0
C61 C 0.23795 0.15195 0.09197 0.0
C62 C 0.22608 0.1193 0.06238 0.0
C63 C 0.36369 0.32225 0.19767 0.0
C64 C 0.29771 0.20687 0.14731 0.0
C65 C 0.08644 0.15349 0.11175 0.0
C66 C 0.09741 0.19589 0.08203 0.0
C67 C 0.26578 0.32696 0.20226 0.0
C68 C 0.31034 0.37592 0.38002 0.0
C69 C 0.28065 0.39004 0.39227 0.0
C70 C 0.29781 0.42544 0.42028 0.0
C71 C 0.34567 0.44603 0.43595 0.0
C72 C 0.35748 0.39618 0.39744 0.0
C73 C 0.37496 0.43109 0.42514 0.0
C74 C 0.21752 0.21705 0.29693 0.0
C75 C 0.29146 0.34227 0.34605 0.0
H76 H 0.35086 0.17451 0.13035 0.0
H77 H 0.24939 0.08272 0.03164 0.0
H78 H 0.21202 0.16155 0.09563 0.0
H79 H 0.19118 0.10392 0.0435 0.0
H80 H 0.24413 0.37309 0.37981 0.0
H81 H 0.36095 0.47413 0.45605 0.0
H82 H 0.38084 0.38551 0.38921 0.0
H83 H 0.41156 0.44708 0.43777 0.0
Tb84 Tb 0.82618 0.24889 0.2633 0.0
C85 C 0.66283 0.26996 0.2624 0.0
C86 C 0.60809 0.26015 0.18451 0.0
C87 C 0.58045 0.23211 0.26731 0.0
C88 C 0.65382 0.27492 0.20958 0.0
C89 C 0.62601 0.24981 0.2918 0.0
C90 C 0.57149 0.23734 0.21368 0.0
C91 C 0.68118 0.27175 0.36644 0.0
N92 N 0.70741 0.28821 0.28454 0.0
C93 C 0.7165 0.29149 0.33581 0.0
C94 C 0.63586 0.24981 0.34463 0.0
Tb95 Tb 0.76173 0.31275 0.2292 0.0
N96 N 0.68995 0.2974 0.18265 0.0
C97 C 0.68262 0.31027 0.1305 0.0
C98 C 0.60049 0.27021 0.13098 0.0
C99 C 0.6379 0.29611 0.10397 0.0
H100 H 0.7506 0.30774 0.35513 0.0
H101 H 0.63217 0.30437 0.06267 0.0
H102 H 0.53616 0.22511 0.19512 0.0
H103 H 0.68911 0.27332 0.4071 0.0
H104 H 0.71145 0.32918 0.10913 0.0
H105 H 0.99203 0.30012 0.38376 0.0
H106 H 0.56591 0.2593 0.1103 0.0
H107 H 0.79971 0.23582 0.13598 0.0
H108 H 0.90751 0.26852 0.36566 0.0
H109 H 0.84019 0.25286 0.06487 0.0
H110 H 0.55188 0.21595 0.28938 0.0
H111 H 1.03822 0.3242 0.31309 0.0
H112 H 1.04055 0.33071 0.21982 0.0
H113 H 0.60863 0.23464 0.36853 0.0
H114 H 0.99922 0.31741 0.13351 0.0
N115 N 0.90519 0.27583 0.28469 0.0
C116 C 0.92719 0.27906 0.33418 0.0
C117 C 1.00103 0.31032 0.30484 0.0
C118 C 0.97862 0.30468 0.25495 0.0
C119 C 0.97513 0.29682 0.34477 0.0
C120 C 0.93003 0.28644 0.24616 0.0
H121 H 0.92494 0.28804 0.07579 0.0
N122 N 0.85997 0.26078 0.19119 0.0
C123 C 0.85946 0.26045 0.10207 0.0
C124 C 0.90673 0.27852 0.1979 0.0
C125 C 0.83638 0.25066 0.14377 0.0
C126 C 0.90721 0.28024 0.10834 0.0
C127 C 0.93151 0.28922 0.15666 0.0
O128 O 0.7928 0.18107 0.2552 0.0
O129 O 0.76316 0.25031 0.2724 0.0
O130 O 0.80288 0.32645 0.30361 0.0
O131 O 0.86145 0.30644 0.30568 0.0
O132 O 0.80128 0.23288 0.3372 0.0
O133 O 0.85009 0.20471 0.31374 0.0
O134 O 0.81192 0.37708 0.24058 0.0
O135 O 0.82359 0.30964 0.22179 0.0
O136 O 0.7658 0.21634 0.20774 0.0
O137 O 0.7285 0.26288 0.17815 0.0
O138 O 0.79139 0.33267 0.15663 0.0
O139 O 0.74548 0.36783 0.20104 0.0
C140 C 0.76247 0.23516 0.32025 0.0
C141 C 0.78946 0.13626 0.33808 0.0
C142 C 0.79022 0.10054 0.428 0.0
C143 C 0.81297 0.13126 0.38744 0.0
C144 C 0.74294 0.07374 0.41833 0.0
C145 C 0.74189 0.10991 0.32905 0.0
C146 C 0.71886 0.07872 0.36909 0.0
C147 C 0.84462 0.32898 0.32151 0.0
C148 C 0.81577 0.16998 0.29772 0.0
C149 C 0.97978 0.30859 0.16482 0.0
C150 C 1.00329 0.31625 0.2139 0.0
C151 C 0.82827 0.32711 0.17547 0.0
C152 C 0.81032 0.42678 0.16434 0.0
C153 C 0.78429 0.42564 0.11571 0.0
C154 C 0.80522 0.44676 0.07098 0.0
C155 C 0.85291 0.47208 0.07497 0.0
C156 C 0.85835 0.45186 0.16802 0.0
C157 C 0.87937 0.47459 0.12357 0.0
C158 C 0.73301 0.22671 0.17777 0.0
C159 C 0.78814 0.39637 0.20943 0.0
H160 H 0.85 0.15025 0.39372 0.0
H161 H 0.72519 0.04832 0.4484 0.0
H162 H 0.72263 0.11317 0.29128 0.0
H163 H 0.6824 0.05784 0.36167 0.0
H164 H 0.74716 0.40779 0.11234 0.0
H165 H 0.86942 0.48987 0.04089 0.0
H166 H 0.87967 0.45291 0.20506 0.0
H167 H 0.91633 0.49369 0.12678 0.0
Tb168 Tb 0.75302 0.73922 0.30203 0.0
C169 C 0.88545 0.89631 0.17886 0.0
C170 C 0.83563 0.92557 0.11826 0.0
C171 C 0.91335 0.97603 0.14831 0.0
C172 C 0.84303 0.88946 0.15001 0.0
C173 C 0.92146 0.93961 0.17738 0.0
C174 C 0.87046 0.96902 0.11881 0.0
C175 C 0.97195 0.90741 0.22928 0.0
N176 N 0.89198 0.86016 0.20636 0.0
C177 C 0.9353 0.86508 0.22944 0.0
C178 C 0.96486 0.9449 0.20389 0.0
Tb179 Tb 0.8269 0.7935 0.20748 0.0
N180 N 0.81035 0.847 0.14971 0.0
C181 C 0.77252 0.83801 0.11307 0.0
C182 C 0.7942 0.91673 0.08531 0.0
C183 C 0.76323 0.87272 0.08135 0.0
H184 H 0.94231 0.83698 0.24886 0.0
H185 H 0.73172 0.86538 0.05481 0.0
H186 H 0.86515 0.99723 0.09512 0.0
H187 H 1.00577 0.91106 0.24867 0.0
H188 H 0.74821 0.80416 0.10963 0.0
H189 H 0.84926 0.67074 0.45819 0.0
H190 H 0.78665 0.94362 0.06168 0.0
H191 H 0.63913 0.69189 0.25134 0.0
H192 H 0.83177 0.73058 0.4032 0.0
H193 H 0.57757 0.61713 0.25251 0.0
H194 H 0.94044 1.00958 0.14713 0.0
H195 H 0.79553 0.59208 0.45185 0.0
H196 H 0.71792 0.5374 0.41917 0.0
H197 H 0.99341 0.9776 0.2037 0.0
H198 H 0.64324 0.52298 0.36506 0.0
N199 N 0.76989 0.68732 0.36298 0.0
C200 C 0.80772 0.69691 0.39965 0.0
C201 C 0.78738 0.61857 0.42817 0.0
C202 C 0.7459 0.60894 0.39532 0.0
C203 C 0.81768 0.66277 0.43173 0.0
C204 C 0.73781 0.6445 0.36296 0.0
H205 H 0.59043 0.55248 0.30386 0.0
N206 N 0.68889 0.67163 0.30229 0.0
C207 C 0.61072 0.62207 0.27503 0.0
C208 C 0.69575 0.63639 0.33241 0.0
C209 C 0.64635 0.66494 0.27474 0.0
C210 C 0.6181 0.58566 0.30402 0.0
C211 C 0.66083 0.59251 0.33348 0.0
O212 O 0.75447 0.79209 0.33002 0.0
O213 O 0.76924 0.79294 0.23566 0.0
O214 O 0.8526 0.83644 0.26579 0.0
O215 O 0.82171 0.78349 0.33542 0.0
O216 O 0.70243 0.75868 0.2461 0.0
O217 O 0.72115 0.72499 0.36732 0.0
O218 O 0.84091 0.74665 0.18504 0.0
O219 O 0.80979 0.73922 0.27328 0.0
O220 O 0.73311 0.6942 0.24686 0.0
O221 O 0.75937 0.74679 0.17615 0.0
O222 O 0.87676 0.77218 0.2623 0.0
O223 O 0.84198 0.8049 0.13263 0.0
C224 C 0.72898 0.79131 0.21637 0.0
C225 C 0.69066 0.77498 0.3696 0.0
C226 C 0.66014 0.81595 0.40115 0.0
C227 C 0.6975 0.80788 0.39738 0.0
C228 C 0.61632 0.79107 0.37599 0.0
C229 C 0.64653 0.7509 0.3451 0.0
C230 C 0.6097 0.75895 0.3483 0.0
C231 C 0.85053 0.82364 0.31559 0.0
C232 C 0.72953 0.76618 0.36578 0.0
C233 C 0.66948 0.55691 0.36418 0.0
C234 C 0.71202 0.56509 0.39486 0.0
C235 C 0.84975 0.73972 0.292 0.0
C236 C 0.89272 0.77645 0.12432 0.0
C237 C 0.89796 0.73917 0.11916 0.0
C238 C 0.93834 0.74473 0.10369 0.0
C239 C 0.97272 0.7882 0.0921 0.0
C240 C 0.9279 0.81934 0.11323 0.0
C241 C 0.96749 0.82504 0.09695 0.0
C242 C 0.73587 0.70531 0.19718 0.0
C243 C 0.85015 0.77018 0.14032 0.0
H244 H 0.73152 0.82665 0.41636 0.0
H245 H 0.58703 0.79691 0.377 0.0
H246 H 0.64048 0.72583 0.3234 0.0
H247 H 0.57582 0.74029 0.32906 0.0
H248 H 0.87099 0.70602 0.12784 0.0
H249 H 1.00366 0.79383 0.0787 0.0
H250 H 0.92477 0.84855 0.11677 0.0
H251 H 0.99424 0.8582 0.08795 0.0
Tb252 Tb 0.32417 0.73584 0.27975 0.0
C253 C 0.24021 0.83709 0.09878 0.0
C254 C 0.30401 0.9036 0.06712 0.0
C255 C 0.23456 0.87004 0.00855 0.0
C256 C 0.28434 0.86919 0.10735 0.0
C257 C 0.21422 0.83757 0.04959 0.0
C258 C 0.27947 0.90305 0.0173 0.0
C259 C 0.14911 0.77639 0.08631 0.0
N260 N 0.22194 0.80659 0.13958 0.0
C261 C 0.17639 0.77721 0.13431 0.0
C262 C 0.16828 0.80629 0.04357 0.0
Tb263 Tb 0.26952 0.80986 0.21678 0.0
N264 N 0.30633 0.86894 0.1562 0.0
C265 C 0.34563 0.90544 0.16834 0.0
C266 C 0.34665 0.93862 0.07869 0.0
C267 C 0.36686 0.94025 0.12979 0.0
H268 H 0.16109 0.75346 0.16669 0.0
H269 H 0.39897 0.9681 0.13951 0.0
H270 H 0.29422 0.92889 0.98576 0.0
H271 H 0.1134 0.75248 0.08226 0.0
H272 H 0.36189 0.90738 0.20758 0.0
H273 H 0.1906 0.57314 0.33779 0.0
H274 H 0.36333 0.96529 0.04881 0.0
H275 H 0.42986 0.7862 0.33868 0.0
H276 H 0.22903 0.64042 0.27791 0.0
H277 H 0.47282 0.78167 0.42557 0.0
H278 H 0.21539 0.87073 0.97031 0.0
H279 H 0.22395 0.56584 0.4292 0.0
H280 H 0.28782 0.59745 0.49903 0.0
H281 H 0.1471 0.80555 0.00644 0.0
H282 H 0.36478 0.65522 0.52354 0.0
N283 N 0.28371 0.67279 0.33427 0.0
C284 C 0.24433 0.6384 0.31738 0.0
C285 C 0.24091 0.59572 0.40297 0.0
C286 C 0.28215 0.62984 0.4198 0.0
C287 C 0.22218 0.59975 0.35141 0.0
C288 C 0.30323 0.66801 0.38387 0.0
H289 H 0.43457 0.72375 0.49607 0.0
N290 N 0.36678 0.73288 0.35975 0.0
C291 C 0.43708 0.7585 0.41832 0.0
C292 C 0.34631 0.69964 0.39728 0.0
C293 C 0.41251 0.7609 0.369 0.0
C294 C 0.41536 0.72592 0.45802 0.0
C295 C 0.36974 0.69517 0.44747 0.0
O296 O 0.38061 0.72778 0.26744 0.0
O297 O 0.32491 0.79173 0.22007 0.0
O298 O 0.25745 0.76665 0.16269 0.0
O299 O 0.2633 0.70664 0.22146 0.0
O300 O 0.38655 0.7902 0.25211 0.0
O301 O 0.31166 0.68457 0.24086 0.0
O302 O 0.21483 0.81925 0.23135 0.0
O303 O 0.27052 0.75555 0.27879 0.0
O304 O 0.34326 0.78563 0.33094 0.0
O305 O 0.32897 0.84234 0.27249 0.0
O306 O 0.20826 0.75521 0.24909 0.0
O307 O 0.28528 0.86713 0.24541 0.0
C308 C 0.36799 0.81264 0.21809 0.0
C309 C 0.36635 0.65448 0.26153 0.0
C310 C 0.39925 0.60861 0.24472 0.0
C311 C 0.39109 0.64719 0.23149 0.0
C312 C 0.38282 0.57788 0.28865 0.0
C313 C 0.35098 0.62348 0.30555 0.0
C314 C 0.3592 0.58549 0.31896 0.0
C315 C 0.24807 0.72385 0.17532 0.0
C316 C 0.35484 0.69317 0.24522 0.0
C317 C 0.34763 0.65903 0.48462 0.0
C318 C 0.30387 0.62619 0.4707 0.0
C319 C 0.22803 0.73405 0.28348 0.0
C320 C 0.22899 0.89449 0.22586 0.0
C321 C 0.2059 0.90252 0.25647 0.0
C322 C 0.1963 0.93995 0.24234 0.0
C323 C 0.20995 0.96946 0.19681 0.0
C324 C 0.24183 0.92375 0.17993 0.0
C325 C 0.23223 0.96105 0.16552 0.0
C326 C 0.34691 0.82732 0.31785 0.0
C327 C 0.24245 0.8576 0.24548 0.0
H328 H 0.40291 0.67083 0.19725 0.0
H329 H 0.3887 0.54812 0.29987 0.0
H330 H 0.33215 0.62826 0.32929 0.0
H331 H 0.34693 0.56166 0.35285 0.0
H332 H 0.19653 0.88022 0.29231 0.0
H333 H 0.20292 0.99857 0.18526 0.0
H334 H 0.25983 0.91831 0.15576 0.0
H335 H 0.24245 0.9837 0.13027 0.0
Tb336 Tb 0.34384 0.72806 0.77969 0.0
C337 C 0.18537 0.76158 0.77808 0.0
C338 C 0.12896 0.75362 0.70142 0.0
C339 C 0.10472 0.73717 0.78495 0.0
C340 C 0.17457 0.76367 0.72537 0.0
C341 C 0.15036 0.74829 0.80845 0.0
C342 C 0.09406 0.73991 0.73155 0.0
C343 C 0.20766 0.75718 0.88332 0.0
N344 N 0.22987 0.77196 0.7996 0.0
C345 C 0.24122 0.77015 0.85188 0.0
C346 C 0.16205 0.74612 0.8616 0.0
Tb347 Tb 0.28099 0.79251 0.74225 0.0
N348 N 0.20899 0.77675 0.69737 0.0
C349 C 0.20062 0.78351 0.64476 0.0
C350 C 0.11989 0.75843 0.6478 0.0
C351 C 0.15601 0.77393 0.61933 0.0
H352 H 0.27553 0.77684 0.87091 0.0
H353 H 0.14956 0.77871 0.57779 0.0
H354 H 0.05879 0.73177 0.71388 0.0
H355 H 0.21702 0.75523 0.92454 0.0
H356 H 0.22832 0.79586 0.62228 0.0
H357 H 0.51002 0.84449 0.72102 0.0
H358 H 0.08534 0.75111 0.628 0.0
H359 H 0.28952 0.61846 0.77806 0.0
H360 H 0.44648 0.81543 0.7711 0.0
H361 H 0.28835 0.56519 0.73166 0.0
H362 H 0.07745 0.72664 0.80773 0.0
H363 H 0.50956 0.80073 0.66089 0.0
H364 H 0.47186 0.72865 0.62597 0.0
H365 H 0.13614 0.73576 0.88621 0.0
H366 H 0.41138 0.65174 0.62942 0.0
N367 N 0.40793 0.75578 0.7387 0.0
C368 C 0.44496 0.79556 0.74508 0.0
C369 C 0.48114 0.78772 0.68269 0.0
C370 C 0.44507 0.74557 0.67925 0.0
C371 C 0.48158 0.81239 0.71671 0.0
C372 C 0.40899 0.73036 0.70854 0.0
H373 H 0.34335 0.58998 0.66995 0.0
N374 N 0.34396 0.67446 0.7423 0.0
C375 C 0.31301 0.5997 0.72508 0.0
C376 C 0.37573 0.68769 0.71074 0.0
C377 C 0.31378 0.63038 0.75136 0.0
C378 C 0.344 0.61379 0.69024 0.0
C379 C 0.37651 0.65816 0.68336 0.0
O380 O 0.33729 0.67841 0.84487 0.0
O381 O 0.28775 0.73808 0.79643 0.0
O382 O 0.32659 0.81315 0.81365 0.0
O383 O 0.38164 0.79021 0.81142 0.0
O384 O 0.2777 0.67445 0.79965 0.0
O385 O 0.39992 0.7378 0.83893 0.0
O386 O 0.33201 0.85808 0.74375 0.0
O387 O 0.3428 0.78924 0.73432 0.0
O388 O 0.3009 0.70792 0.7078 0.0
O389 O 0.24546 0.73433 0.70017 0.0
O390 O 0.30454 0.80378 0.66856 0.0
O391 O 0.26242 0.84613 0.71511 0.0
C392 C 0.258 0.69761 0.80386 0.0
C393 C 0.37295 0.70973 0.91937 0.0
C394 C 0.38835 0.69096 0.01181 0.0
C395 C 0.39652 0.69393 0.96219 0.0
C396 C 0.35875 0.70744 0.01855 0.0
C397 C 0.34332 0.72649 0.9259 0.0
C398 C 0.337 0.72617 0.97535 0.0
C399 C 0.36786 0.81367 0.82961 0.0
C400 C 0.37582 0.703 0.86922 0.0
C401 C 0.41051 0.67366 0.65139 0.0
C402 C 0.44486 0.71743 0.64933 0.0
C403 C 0.34299 0.801 0.68599 0.0
C404 C 0.32086 0.90589 0.66987 0.0
C405 C 0.29058 0.90264 0.62393 0.0
C406 C 0.30583 0.92915 0.57743 0.0
C407 C 0.3525 0.9588 0.57737 0.0
C408 C 0.36719 0.93639 0.66931 0.0
C409 C 0.38291 0.9624 0.62321 0.0
C410 C 0.26028 0.70804 0.6882 0.0
C411 C 0.30492 0.87569 0.7176 0.0
H412 H 0.41853 0.68022 0.95663 0.0
H413 H 0.35155 0.70462 0.05654 0.0
H414 H 0.32373 0.73802 0.89314 0.0
H415 H 0.31357 0.73853 0.98002 0.0
H416 H 0.25442 0.88083 0.62493 0.0
H417 H 0.36492 0.98023 0.5423 0.0
H418 H 0.39137 0.9396 0.70438 0.0
H419 H 0.41869 0.98571 0.62325 0.0
Tb420 Tb 0.26342 0.23607 0.78956 0.0
C421 C 0.42586 0.3842 0.68257 0.0
C422 C 0.39098 0.4316 0.62979 0.0
C423 C 0.47304 0.46342 0.65998 0.0
C424 C 0.38743 0.38957 0.65632 0.0
C425 C 0.46952 0.42068 0.68311 0.0
C426 C 0.43369 0.46891 0.63342 0.0
C427 C 0.50288 0.36893 0.72199 0.0
N428 N 0.42057 0.34226 0.70393 0.0
C429 C 0.45872 0.3339 0.72031 0.0
C430 C 0.50829 0.41269 0.70464 0.0
Tb431 Tb 0.34551 0.28871 0.70573 0.0
N432 N 0.34726 0.35257 0.65294 0.0
C433 C 0.31125 0.35416 0.61727 0.0
C434 C 0.35199 0.43433 0.59858 0.0
C435 C 0.31238 0.39516 0.59076 0.0
H436 H 0.45561 0.30025 0.73191 0.0
H437 H 0.28254 0.3963 0.56485 0.0
H438 H 0.43702 0.50169 0.61391 0.0
H439 H 0.53273 0.36205 0.7361 0.0
H440 H 0.28124 0.32385 0.61005 0.0
H441 H 0.36022 0.18815 0.96405 0.0
H442 H 0.35308 0.46627 0.57885 0.0
H443 H 0.15719 0.17806 0.73355 0.0
H444 H 0.33889 0.24061 0.89736 0.0
H445 H 0.10134 0.09944 0.73653 0.0
H446 H 0.50616 0.49206 0.66065 0.0
H447 H 0.31538 0.10702 0.96456 0.0
H448 H 0.24482 0.04454 0.93028 0.0
H449 H 0.54254 0.43971 0.70571 0.0
H450 H 0.17345 0.02031 0.86913 0.0
N451 N 0.28279 0.19049 0.85871 0.0
C452 C 0.31832 0.20564 0.89704 0.0
C453 C 0.30532 0.13013 0.93574 0.0
C454 C 0.26632 0.11475 0.89957 0.0
C455 C 0.33066 0.17578 0.93541 0.0
C456 C 0.25577 0.1462 0.86125 0.0
H457 H 0.11919 0.04064 0.79734 0.0
N458 N 0.20674 0.16432 0.79213 0.0
C459 C 0.13354 0.10827 0.76214 0.0
C460 C 0.21604 0.1326 0.827 0.0
C461 C 0.16528 0.15288 0.7608 0.0
C462 C 0.1438 0.07518 0.79638 0.0
C463 C 0.18524 0.08717 0.82983 0.0
O464 O 0.26747 0.27098 0.84629 0.0
O465 O 0.28703 0.29318 0.72751 0.0
O466 O 0.36605 0.33653 0.75681 0.0
O467 O 0.32563 0.2886 0.82378 0.0
O468 O 0.21847 0.2551 0.72477 0.0
O469 O 0.2024 0.22738 0.8116 0.0
O470 O 0.36367 0.24143 0.6913 0.0
O471 O 0.32234 0.23298 0.76972 0.0
O472 O 0.25104 0.19288 0.73489 0.0
O473 O 0.27851 0.24782 0.66692 0.0
O474 O 0.39051 0.27253 0.77304 0.0
O475 O 0.34683 0.28662 0.62932 0.0
C476 C 0.24794 0.29127 0.70263 0.0
C477 C 0.20643 0.29303 0.83066 0.0
C478 C 0.19531 0.34937 0.85934 0.0
C479 C 0.21054 0.31535 0.87013 0.0
C480 C 0.17741 0.36163 0.80887 0.0
C481 C 0.18464 0.30378 0.78159 0.0
C482 C 0.17152 0.33851 0.77051 0.0
C483 C 0.35749 0.32721 0.80459 0.0
C484 C 0.22322 0.25784 0.84066 0.0
C485 C 0.1964 0.05542 0.86658 0.0
C486 C 0.23703 0.06921 0.90133 0.0
C487 C 0.36132 0.23725 0.79691 0.0
C488 C 0.397 0.25941 0.6158 0.0
C489 C 0.3967 0.22123 0.60453 0.0
C490 C 0.43213 0.22494 0.58053 0.0
C491 C 0.46744 0.26754 0.5676 0.0
C492 C 0.43218 0.30142 0.60156 0.0
C493 C 0.46715 0.30534 0.57761 0.0
C494 C 0.25197 0.20647 0.68509 0.0
C495 C 0.36022 0.25478 0.64198 0.0
H496 H 0.22428 0.30559 0.90907 0.0
H497 H 0.16492 0.38712 0.79987 0.0
H498 H 0.17653 0.2849 0.75167 0.0
H499 H 0.15526 0.34655 0.73237 0.0
H500 H 0.36953 0.18872 0.61543 0.0
H501 H 0.49508 0.27176 0.54888 0.0
H502 H 0.43268 0.33123 0.6089 0.0
H503 H 0.49425 0.33785 0.56683 0.0
Tb504 Tb 0.83487 0.22564 0.78347 0.0
C505 C 0.8251 0.38057 0.65393 0.0
C506 C 0.84719 0.44553 0.69202 0.0
C507 C 0.86264 0.4547 0.60565 0.0
C508 C 0.82874 0.39894 0.69558 0.0
C509 C 0.84167 0.40833 0.60827 0.0
C510 C 0.86513 0.47332 0.64728 0.0
C511 C 0.8147 0.34247 0.57069 0.0
N512 N 0.80477 0.33553 0.6579 0.0
C513 C 0.7989 0.31626 0.6168 0.0
C514 C 0.83646 0.3887 0.56648 0.0
Tb515 Tb 0.77868 0.29664 0.73456 0.0
N516 N 0.81164 0.37111 0.73845 0.0
C517 C 0.80617 0.38767 0.77629 0.0
C518 C 0.84542 0.4627 0.73271 0.0
C519 C 0.82393 0.43359 0.77456 0.0
H520 H 0.78253 0.28077 0.61901 0.0
H521 H 0.82076 0.44646 0.80531 0.0
H522 H 0.88017 0.5092 0.64411 0.0
H523 H 0.81031 0.32693 0.53851 0.0
H524 H 0.78902 0.36516 0.80844 0.0
H525 H 0.68549 0.07156 0.82358 0.0
H526 H 0.85897 0.49828 0.7313 0.0
H527 H 0.93784 0.2654 0.85264 0.0
H528 H 0.73489 0.13817 0.76924 0.0
H529 H 0.9729 0.25311 0.94273 0.0
H530 H 0.87648 0.47636 0.57131 0.0
H531 H 0.70953 0.05857 0.91733 0.0
H532 H 0.77017 0.08259 0.99324 0.0
H533 H 0.84889 0.4089 0.53081 0.0
H534 H 0.84871 0.13272 0.026 0.0
N535 N 0.78603 0.16374 0.83154 0.0
C536 C 0.74587 0.1331 0.81001 0.0
C537 C 0.7313 0.08803 0.89365 0.0
C538 C 0.7736 0.11828 0.91507 0.0
C539 C 0.71771 0.09517 0.84074 0.0
C540 C 0.80056 0.15609 0.88246 0.0
H541 H 0.92507 0.19598 0.00718 0.0
N542 N 0.87041 0.21696 0.86644 0.0
C543 C 0.93665 0.23355 0.93151 0.0
C544 C 0.8445 0.18388 0.90067 0.0
C545 C 0.91671 0.24032 0.88053 0.0
C546 C 0.90949 0.20144 0.96782 0.0
C547 C 0.86305 0.17531 0.95232 0.0
O548 O 0.89197 0.21438 0.78007 0.0
O549 O 0.833 0.28153 0.72488 0.0
O550 O 0.74077 0.23868 0.69207 0.0
O551 O 0.78969 0.20348 0.71371 0.0
O552 O 0.89646 0.28359 0.75701 0.0
O553 O 0.82363 0.17215 0.75004 0.0
O554 O 0.72606 0.30671 0.67931 0.0
O555 O 0.77169 0.2321 0.77975 0.0
O556 O 0.85518 0.2721 0.83798 0.0
O557 O 0.84069 0.33093 0.78673 0.0
O558 O 0.7586 0.27189 0.81194 0.0
O559 O 0.72362 0.29798 0.7596 0.0
C560 C 0.87624 0.30525 0.72401 0.0
C561 C 0.87441 0.1387 0.78076 0.0
C562 C 0.89965 0.08618 0.76748 0.0
C563 C 0.89674 0.12714 0.75291 0.0
C564 C 0.88041 0.05675 0.8107 0.0
C565 C 0.85585 0.1093 0.82445 0.0
C566 C 0.859 0.0686 0.83939 0.0
C567 C 0.75304 0.20811 0.68655 0.0
C568 C 0.86633 0.17878 0.75959 0.0
C569 C 0.83531 0.13959 0.98601 0.0
C570 C 0.79062 0.11102 0.96736 0.0
C571 C 0.75686 0.23272 0.81872 0.0
C572 C 0.70233 0.35344 0.70688 0.0
C573 C 0.6859 0.36194 0.74504 0.0
C574 C 0.68639 0.40401 0.74193 0.0
C575 C 0.70305 0.43716 0.69974 0.0
C576 C 0.71779 0.38723 0.66476 0.0
C577 C 0.71828 0.42867 0.66147 0.0
C578 C 0.86109 0.31412 0.82866 0.0
C579 C 0.70736 0.31123 0.71364 0.0
H580 H 0.91054 0.14943 0.71867 0.0
H581 H 0.88233 0.025 0.82239 0.0
H582 H 0.83806 0.11712 0.84627 0.0
H583 H 0.84425 0.04595 0.87286 0.0
H584 H 0.67406 0.33632 0.77786 0.0
H585 H 0.7035 0.46954 0.69576 0.0
H586 H 0.73064 0.38215 0.63482 0.0
H587 H 0.73084 0.45454 0.62912 0.0
Tb588 Tb 0.78333 0.73313 0.71305 0.0
C589 C 0.93473 0.85034 0.85643 0.0
C590 C 0.94837 0.79773 0.92827 0.0
C591 C 1.01015 0.87101 0.90787 0.0
C592 C 0.919 0.80891 0.88649 0.0
C593 C 0.9803 0.88223 0.8671 0.0
C594 C 0.99422 0.82877 0.93837 0.0
C595 C 0.96262 0.93452 0.79833 0.0
N596 N 0.90479 0.85977 0.81749 0.0
C597 C 0.91773 0.90179 0.78938 0.0
C598 C 0.9942 0.9246 0.83706 0.0
Tb599 Tb 0.83229 0.8033 0.80524 0.0
N600 N 0.87438 0.78009 0.87583 0.0
C601 C 0.85616 0.74042 0.90786 0.0
C602 C 0.93058 0.75593 0.95899 0.0
C603 C 0.88411 0.72736 0.94898 0.0
H604 H 0.89394 0.91017 0.75922 0.0
H605 H 0.86965 0.69496 0.97226 0.0
H606 H 1.01736 0.8207 0.97017 0.0
H607 H 0.9728 0.9674 0.77534 0.0
H608 H 0.82042 0.7177 0.90094 0.0
H609 H 0.73552 0.8339 0.54355 0.0
H610 H 0.95231 0.74574 0.99066 0.0
H611 H 0.72952 0.62386 0.75543 0.0
H612 H 0.78826 0.81605 0.61561 0.0
H613 H 0.65228 0.56348 0.74246 0.0
H614 H 1.04537 0.89494 0.91655 0.0
H615 H 0.65393 0.77996 0.53018 0.0
H616 H 0.5914 0.70505 0.55619 0.0
H617 H 1.02893 0.95005 0.84399 0.0
H618 H 0.56855 0.63118 0.61059 0.0
N619 N 0.73689 0.75339 0.64482 0.0
C620 C 0.75273 0.79234 0.61087 0.0
C621 C 0.67687 0.77237 0.56233 0.0
C622 C 0.66133 0.73161 0.59532 0.0
C623 C 0.72292 0.80265 0.56966 0.0
C624 C 0.6927 0.72286 0.63634 0.0
H625 H 0.59122 0.57784 0.67971 0.0
N626 N 0.71257 0.67361 0.70263 0.0
C627 C 0.65949 0.5966 0.72103 0.0
C628 C 0.68002 0.6814 0.66632 0.0
C629 C 0.70342 0.63124 0.72835 0.0
C630 C 0.62509 0.60484 0.68568 0.0
C631 C 0.63539 0.64743 0.65699 0.0
O632 O 0.8044 0.6868 0.70267 0.0
O633 O 0.83746 0.7506 0.77944 0.0
O634 O 0.88703 0.82008 0.76089 0.0
O635 O 0.83946 0.79714 0.68656 0.0
O636 O 0.79927 0.68555 0.77636 0.0
O637 O 0.80507 0.74119 0.64259 0.0
O638 O 0.81794 0.85481 0.81332 0.0
O639 O 0.77796 0.78638 0.73863 0.0
O640 O 0.72888 0.71079 0.7594 0.0
O641 O 0.77302 0.74182 0.83189 0.0
O642 O 0.81928 0.85149 0.74113 0.0
O643 O 0.80765 0.79749 0.87292 0.0
C644 C 0.83413 0.71193 0.80294 0.0
C645 C 0.79462 0.67511 0.61829 0.0
C646 C 0.80957 0.6306 0.5733 0.0
C647 C 0.82429 0.65988 0.60868 0.0
C648 C 0.76376 0.61569 0.54887 0.0
C649 C 0.74945 0.66061 0.59281 0.0
C650 C 0.73409 0.63078 0.55851 0.0
C651 C 0.88023 0.82038 0.71098 0.0
C652 C 0.81192 0.70539 0.65585 0.0
C653 C 0.60312 0.65669 0.61811 0.0
C654 C 0.61612 0.69873 0.58721 0.0
C655 C 0.7833 0.82576 0.71508 0.0
C656 C 0.81874 0.86439 0.89642 0.0
C657 C 0.78698 0.87868 0.90227 0.0
C658 C 0.79752 0.90619 0.93841 0.0
C659 C 0.8413 0.92016 0.96798 0.0
C660 C 0.86213 0.87832 0.92624 0.0
C661 C 0.87332 0.90627 0.9618 0.0
C662 C 0.73436 0.71428 0.80798 0.0
C663 C 0.80492 0.83545 0.85816 0.0
H664 H 0.85894 0.67081 0.62923 0.0
H665 H 0.75096 0.5931 0.52156 0.0
H666 H 0.72615 0.67219 0.59938 0.0
H667 H 0.69912 0.61953 0.53902 0.0
H668 H 0.75376 0.8682 0.87841 0.0
H669 H 0.85042 0.94088 0.99664 0.0
H670 H 0.88709 0.86764 0.9221 0.0
H671 H 0.90676 0.91688 0.98503 0.0
Co672 Co 0.08045 0.96245 0.44639 0.0
Co673 Co 0.10434 0.95892 0.54148 0.0
Co674 Co 1.04706 1.01717 0.50078 0.0
O675 O 0.095 1.00202 0.49201 0.0
H676 H 0.12379 0.02803 0.48761 0.0
O677 O 0.99925 0.0323 0.51025 0.0
Co678 Co 1.01384 0.06679 0.56211 0.0
Co679 Co 0.99554 0.08134 0.46958 0.0
H680 H 0.96946 1.00711 0.51083 0.0
O681 O 0.16343 0.96906 0.55795 0.0
O682 O 0.10967 0.92802 0.49913 0.0
O683 O 0.06048 0.92521 0.58993 0.0
O684 O 1.02045 0.96546 0.55656 0.0
O685 O 0.09353 0.05343 0.55349 0.0
O686 O 1.02393 0.09519 0.61233 0.0
O687 O 0.9624 0.03273 0.59249 0.0
O688 O 0.07022 0.10637 0.5381 0.0
O689 O 0.07303 0.06883 0.44417 0.0
O690 O 1.04459 0.11928 0.42876 0.0
O691 O 0.9837 0.10363 0.51611 0.0
O692 O 0.93737 0.0719 0.4469 0.0
C693 C 0.11056 0.96038 0.39016 0.0
C694 C 0.9929 0.93997 0.44953 0.0
C695 C 1.02643 0.93347 0.58816 0.0
C696 C 0.1521 0.94609 0.52132 0.0
C697 C 0.98433 0.06307 0.62213 0.0
C698 C 0.10183 0.09336 0.55457 0.0
C699 C 0.07249 0.10608 0.42129 0.0
C700 C 0.94321 0.08713 0.48872 0.0
O701 O 0.07093 0.92893 0.40125 0.0
O702 O 0.13209 0.99316 0.41635 0.0
O703 O 1.00114 0.98037 0.44822 0.0
O704 O 1.02358 0.92636 0.47078 0.0
Co705 Co 0.60607 0.95337 1.00109 0.0
Co706 Co 0.60223 0.95717 0.09053 0.0
Co707 Co 0.55096 0.01971 0.00405 0.0
O708 O 0.60283 0.9984 0.0297 0.0
H709 H 0.6323 0.02396 0.0312 0.0
O710 O 0.49913 0.04066 0.97856 0.0
Co711 Co 0.49613 0.08533 0.00779 0.0
Co712 Co 0.49966 0.08173 0.91775 0.0
H713 H 0.46969 1.01506 0.97708 0.0
O714 O 0.65617 0.9528 0.13299 0.0
O715 O 0.6122 0.91276 0.07127 0.0
O716 O 0.54387 0.93398 0.11577 0.0
O717 O 0.50891 0.97249 0.05701 0.0
O718 O 0.5826 0.0631 0.05429 0.0
O719 O 0.48818 0.12147 0.03724 0.0
O720 O 0.43462 0.05876 0.00825 0.0
O721 O 0.56194 0.11781 0.01421 0.0
O722 O 0.59331 0.06772 0.95135 0.0
O723 O 0.55914 0.10732 0.8933 0.0
O724 O 0.48726 0.12443 0.93754 0.0
O725 O 0.44479 0.08396 0.87571 0.0
C726 C 0.65731 0.94534 0.9807 0.0
C727 C 0.51214 0.93532 0.96148 0.0
C728 C 0.50911 0.94261 0.09709 0.0
C729 C 0.64602 0.9198 0.11009 0.0
C730 C 0.44544 0.09264 0.03032 0.0
C731 C 0.58955 0.10403 0.04637 0.0
C732 C 0.59394 0.09871 0.91213 0.0
C733 C 0.45285 0.11588 0.89937 0.0
O734 O 0.61443 0.91723 0.97214 0.0
O735 O 0.66791 0.97904 0.00298 0.0
O736 O 0.51884 0.97616 0.95387 0.0
O737 O 0.54034 0.92172 0.99261 0.0
Co738 Co 0.08894 0.44046 0.99986 0.0
Co739 Co 0.09509 0.45294 0.08875 0.0
Co740 Co 1.05058 0.52014 0.00295 0.0
O741 O 0.09791 0.4928 0.02554 0.0
H742 H 0.12891 0.51579 0.0238 0.0
O743 O 1.00356 0.54799 0.98221 0.0
Co744 Co 1.01853 0.60246 0.00835 0.0
Co745 Co 1.00461 0.58743 0.91996 0.0
H746 H 0.9726 0.52582 0.98648 0.0
O747 O 0.14958 0.44918 0.12859 0.0
O748 O 0.10116 0.40509 0.07201 0.0
O749 O 1.0368 0.43216 0.11532 0.0
O750 O 1.00805 0.47587 0.05696 0.0
O751 O 0.08886 0.5641 0.05145 0.0
O752 O 1.02998 0.64783 0.03578 0.0
O753 O 0.96181 0.58876 0.02447 0.0
O754 O 0.08174 0.62309 1.00093 0.0
O755 O 0.09222 0.56429 0.94735 0.0
O756 O 0.05966 0.60528 0.88937 0.0
O757 O 1.00113 0.63676 0.93671 0.0
O758 O 0.94966 0.59041 0.88325 0.0
C759 C 0.12823 0.41982 0.97373 0.0
C760 C 1.00078 0.43339 0.96559 0.0
C761 C 1.00443 0.44434 0.09611 0.0
C762 C 0.13802 0.41498 0.1072 0.0
C763 C 0.98706 0.6263 0.0422 0.0
C764 C 0.10389 0.6065 0.03846 0.0
C765 C 0.09296 0.59421 0.90674 0.0
C766 C 0.96284 0.62579 0.90318 0.0
O767 O 0.08422 0.39625 0.97359 0.0
O768 O 0.14828 0.45768 0.99095 0.0
O769 O 1.01265 0.47563 0.95462 0.0
O770 O 1.02433 0.41722 1.00161 0.0
Co771 Co 0.57993 0.45072 0.9412 0.0
Co772 Co 0.59328 0.43512 0.03687 0.0
Co773 Co 0.55447 0.50974 0.00503 0.0
O774 O 0.59725 0.48786 0.99308 0.0
H775 H 0.6286 0.51045 0.99378 0.0
O776 O 0.51086 0.53055 0.01683 0.0
Co777 Co 0.52926 0.56733 0.06819 0.0
Co778 Co 0.50409 0.57728 0.96965 0.0
H779 H 0.48074 0.50627 0.02007 0.0
O780 O 0.64855 0.43544 0.0629 0.0
O781 O 0.60131 0.40947 0.99146 0.0
O782 O 0.5408 0.40041 0.07402 0.0
O783 O 0.52288 0.45784 0.0588 0.0
O784 O 0.60369 0.54118 0.06079 0.0
O785 O 0.54062 0.59916 0.11759 0.0
O786 O 0.47489 0.54199 0.09342 0.0
O787 O 0.58714 0.59838 0.04752 0.0
O788 O 0.58541 0.5627 0.95157 0.0
O789 O 0.55233 0.61002 0.9259 0.0
O790 O 0.51309 0.61042 0.01795 0.0
O791 O 0.44865 0.58309 0.9634 0.0
C792 C 0.61007 0.44407 0.88626 0.0
C793 C 0.49381 0.43797 0.94508 0.0
C794 C 0.5169 0.41838 0.08074 0.0
C795 C 0.64171 0.42213 0.01949 0.0
C796 C 0.49764 0.5727 0.12245 0.0
C797 C 0.61545 0.58158 0.06426 0.0
C798 C 0.58349 0.59843 0.92448 0.0
C799 C 0.47109 0.60419 1.00184 0.0
O800 O 0.56755 0.4182 0.893 0.0
O801 O 0.63386 0.47615 0.91353 0.0
O802 O 0.506 0.47824 0.94963 0.0
O803 O 0.52126 0.41979 0.96209 0.0
Co804 Co 0.13723 0.47111 0.56978 0.0
Co805 Co 0.13601 0.51104 0.48368 0.0
Co806 Co 1.05135 0.51996 0.5026 0.0
O807 O 0.08452 0.4783 0.51605 0.0
H808 H 0.06515 0.45137 0.50179 0.0
O809 O 1.01961 0.56257 0.48824 0.0
Co810 Co 0.96181 0.56316 0.44149 0.0
Co811 Co 0.98588 0.55163 0.53963 0.0
H812 H 1.04292 0.59288 0.48652 0.0
O813 O 0.14024 0.48421 0.43718 0.0
O814 O 0.17992 0.49331 0.51728 0.0
O815 O 0.16022 0.57445 0.47004 0.0
O816 O 0.08872 0.56605 0.4438 0.0
O817 O 1.00333 0.4839 0.45058 0.0
O818 O 0.91079 0.5695 0.39843 0.0
O819 O 0.97178 0.6239 0.43255 0.0
O820 O 0.94227 0.50026 0.43978 0.0
O821 O 1.01226 0.47251 0.55936 0.0
O822 O 0.9745 0.4991 0.58961 0.0
O823 O 0.93083 0.54978 0.50288 0.0
O824 O 0.98171 0.59718 0.55705 0.0
C825 C 0.16569 0.42125 0.60403 0.0
C826 C 0.13939 0.5602 0.57786 0.0
C827 C 0.1325 0.58944 0.44262 0.0
C828 C 0.17285 0.48068 0.47291 0.0
C829 C 0.93136 0.61135 0.40369 0.0
C830 C 0.96034 0.4748 0.43679 0.0
C831 C 0.98521 0.46807 0.5902 0.0
C832 C 0.94094 0.57972 0.53126 0.0
O833 O 0.18305 0.46008 0.61806 0.0
O834 O 0.12886 0.41229 0.56909 0.0
O835 O 0.09924 0.55643 0.55498 0.0
O836 O 0.15465 0.53112 0.5809 0.0
Co837 Co 0.63592 0.97141 0.56553 0.0
Co838 Co 0.62367 0.99701 0.47136 0.0
Co839 Co 0.54912 1.01881 0.50095 0.0
O840 O 0.58022 0.97542 0.51509 0.0
H841 H 0.55752 0.94596 0.50926 0.0
O842 O 0.51767 0.06163 0.48733 0.0
Co843 Co 0.46268 0.06744 0.43721 0.0
Co844 Co 0.46951 0.03244 0.52551 0.0
H845 H 0.53882 0.08971 0.49848 0.0
O846 O 0.61738 0.95849 0.43343 0.0
O847 O 0.66708 0.97857 0.50637 0.0
O848 O 0.64963 0.05813 0.44467 0.0
O849 O 0.58675 0.06675 0.44342 0.0
O850 O 0.49985 0.98306 0.44896 0.0
O851 O 0.41401 0.07573 0.39303 0.0
O852 O 0.4741 0.12949 0.42891 0.0
O853 O 0.44084 1.00343 0.4332 0.0
O854 O 0.51221 0.97207 0.55929 0.0
O855 O 0.44212 0.96922 0.54137 0.0
O856 O 0.43003 0.05684 0.49666 0.0
O857 O 0.47669 0.06271 0.57362 0.0
C858 C 0.66527 0.92249 0.60622 0.0
C859 C 0.64063 0.06242 0.56804 0.0
C860 C 0.62737 0.0814 0.43086 0.0
C861 C 0.64983 0.95455 0.46912 0.0
C862 C 0.43379 0.11711 0.39961 0.0
C863 C 0.45757 0.9761 0.4322 0.0
C864 C 0.46873 0.9511 0.56303 0.0
C865 C 0.44845 0.07495 0.53874 0.0
O866 O 0.68521 0.96452 0.61009 0.0
O867 O 0.62441 0.90901 0.57812 0.0
O868 O 0.59795 0.05429 0.55303 0.0
O869 O 0.65817 0.03625 0.56517 0.0
C870 C 0.16416 0.20827 0.35478 0.0
C871 C 0.17912 0.18909 0.32694 0.0
H872 H 0.11736 0.19692 0.40547 0.0
C873 C 0.15765 0.14285 0.32876 0.0
H874 H 0.18035 0.24394 0.3539 0.0
C875 C 0.12242 0.116 0.35879 0.0
C876 C 0.10725 0.13504 0.38661 0.0
H877 H 0.16917 0.12726 0.30845 0.0
H878 H 0.10724 0.08026 0.36054 0.0
C879 C 0.128 0.18149 0.38383 0.0
C880 C 0.8584 0.12703 0.49384 0.0
C881 C 0.81906 0.09104 0.47555 0.0
H882 H 0.93198 0.15455 0.51139 0.0
C883 C 0.81949 0.04915 0.48572 0.0
H884 H 0.85832 0.15941 0.48803 0.0
C885 C 0.86149 0.04641 0.49903 0.0
C886 C 0.90249 0.08527 0.50355 0.0
H887 H 0.78937 0.02044 0.47383 0.0
H888 H 0.86234 1.01539 0.4982 0.0
C889 C 0.90068 0.12445 0.5068 0.0
C890 C 0.9046 0.90042 0.3345 0.0
C891 C 0.88455 0.85408 0.35097 0.0
H892 H 0.95382 0.96433 0.3536 0.0
C893 C 0.89818 0.83695 0.40137 0.0
H894 H 0.89468 0.91463 0.29593 0.0
C895 C 0.93233 0.86522 0.4339 0.0
C896 C 0.95281 0.91136 0.41726 0.0
H897 H 0.88372 0.80155 0.41528 0.0
H898 H 0.94333 0.85091 0.47191 0.0
C899 C 0.93806 0.92888 0.36761 0.0
C900 C 0.19176 0.98783 0.29529 0.0
C901 C 0.17243 0.94766 0.27605 0.0
H902 H 0.18761 0.02335 0.34734 0.0
C903 C 0.13163 0.9131 0.29234 0.0
H904 H 0.22336 1.01488 0.28332 0.0
C905 C 0.11117 0.9179 0.32842 0.0
C906 C 0.13136 0.95724 0.34954 0.0
H907 H 0.11595 0.88196 0.27772 0.0
H908 H 0.08005 0.8902 0.34066 0.0
C909 C 0.17152 0.99249 0.3321 0.0
C910 C 0.27168 0.97459 0.51382 0.0
C911 C 0.27076 0.93234 0.53342 0.0
H912 H 0.23174 1.01189 0.49364 0.0
C913 C 0.22894 0.89442 0.52604 0.0
H914 H 0.30337 1.00453 0.51734 0.0
C915 C 0.18759 0.89873 0.51342 0.0
C916 C 0.18879 0.94101 0.5063 0.0
H917 H 0.22765 0.86138 0.53893 0.0
H918 H 0.15548 0.86912 0.5169 0.0
C919 C 0.23053 0.97888 0.50066 0.0
C920 C 0.19909 0.19568 0.60225 0.0
C921 C 0.21713 0.17718 0.64922 0.0
H922 H 0.14804 0.1834 0.53565 0.0
C923 C 0.19946 0.13064 0.66279 0.0
H924 H 0.21184 0.23145 0.59093 0.0
C925 C 0.1636 0.10312 0.63051 0.0
C926 C 0.1441 0.12174 0.58476 0.0
H927 H 0.21277 0.11555 0.69881 0.0
H928 H 0.14968 0.06738 0.64256 0.0
C929 C 0.16254 0.16824 0.57067 0.0
C930 C 0.89833 0.03907 0.70944 0.0
C931 C 0.92278 0.07494 0.73664 0.0
H932 H 0.89862 1.00703 0.65102 0.0
C933 C 0.96853 0.1035 0.72987 0.0
H934 H 0.86283 1.01677 0.71416 0.0
C935 C 0.98898 0.09787 0.69451 0.0
C936 C 0.96385 0.0639 0.66451 0.0
H937 H 0.98798 0.1312 0.75075 0.0
H938 H 1.02404 0.12143 0.68933 0.0
C939 C 0.91871 0.03366 0.67332 0.0
C940 C 0.90849 0.86616 0.62878 0.0
C941 C 0.91834 0.84937 0.68055 0.0
H942 H 0.93516 0.90622 0.55952 0.0
C943 C 0.96446 0.86001 0.70219 0.0
H944 H 0.87337 0.85874 0.61111 0.0
C945 C 1.00004 0.88647 0.67206 0.0
C946 C 0.98994 0.9037 0.62045 0.0
H947 H 0.97292 0.84737 0.74207 0.0
H948 H 1.03533 0.89422 0.68928 0.0
C949 C 0.94389 0.89345 0.59928 0.0
C950 C 0.33206 0.07371 0.0648 0.0
C951 C 0.34144 0.1168 0.07083 0.0
H952 H 0.35714 0.03246 0.04596 0.0
C953 C 0.38578 0.15099 0.06527 0.0
H954 H 0.29852 0.04642 0.06938 0.0
C955 C 0.41943 0.1427 0.05298 0.0
C956 C 0.40963 0.10011 0.0453 0.0
H957 H 0.39423 0.18479 0.06845 0.0
H958 H 0.45285 0.17015 0.04809 0.0
C959 C 0.36566 0.06561 0.0515 0.0
C960 C 0.91502 0.37419 0.18898 0.0
C961 C 0.8735 0.35796 0.15548 0.0
H962 H 0.98856 0.41262 0.19695 0.0
C963 C 0.87518 0.37387 0.10248 0.0
H964 H 0.91505 0.36448 0.23009 0.0
C965 C 0.9172 0.40337 0.0835 0.0
C966 C 0.95907 0.41754 0.11688 0.0
H967 H 0.84389 0.36317 0.07549 0.0
H968 H 0.91709 0.41393 0.0424 0.0
C969 C 0.95722 0.40247 0.16996 0.0
C970 C 0.73304 0.87163 0.19172 0.0
C971 C 0.71252 0.82679 0.18421 0.0
H972 H 0.72917 0.93495 0.17531 0.0
C973 C 0.67046 0.81369 0.1502 0.0
H974 H 0.76457 0.88349 0.2181 0.0
C975 C 0.65023 0.8436 0.12461 0.0
C976 C 0.66998 0.88814 0.133 0.0
H977 H 0.65257 0.77951 0.1437 0.0
H978 H 0.61794 0.83114 0.09955 0.0
C979 C 0.7122 0.90134 0.16702 0.0
C980 C 0.19418 0.64688 0.15389 0.0
C981 C 0.21477 0.69335 0.13836 0.0
H982 H 0.14372 0.58339 0.13512 0.0
C983 C 0.20092 0.71051 0.08781 0.0
H984 H 0.20409 0.63201 0.19195 0.0
C985 C 0.16551 0.68257 0.05521 0.0
C986 C 0.14361 0.6363 0.07164 0.0
H987 H 0.21691 0.74584 0.07354 0.0
H988 H 0.1551 0.69732 0.0172 0.0
C989 C 0.15931 0.61883 0.12105 0.0
C990 C 0.43887 0.83437 0.89478 0.0
C991 C 0.40203 0.84368 0.86621 0.0
H992 H 0.50127 0.85488 0.94715 0.0
C993 C 0.40041 0.88283 0.87107 0.0
H994 H 0.44148 0.80464 0.89237 0.0
C995 C 0.43571 0.91253 0.90227 0.0
C996 C 0.47296 0.90334 0.93014 0.0
H997 H 0.37272 0.89123 0.84952 0.0
H998 H 0.434 0.94286 0.90425 0.0
C999 C 0.4734 0.86337 0.9265 0.0
C1000 C 0.20891 0.41307 0.90053 0.0
C1001 C 0.18919 0.36693 0.90029 0.0
H1002 H 0.20589 0.46638 0.92546 0.0
C1003 C 0.15403 0.33862 0.93015 0.0
H1004 H 0.23541 0.43565 0.87674 0.0
C1005 C 0.13627 0.35615 0.95638 0.0
C1006 C 0.1539 0.40234 0.95429 0.0
H1007 H 0.13749 0.30314 0.92957 0.0
H1008 H 0.10695 0.33355 0.9762 0.0
C1009 C 0.19185 0.43063 0.92806 0.0
C1010 C 0.67508 0.1733 0.81243 0.0
C1011 C 0.71712 0.19453 0.84295 0.0
H1012 H 0.60382 0.12662 0.81012 0.0
C1013 C 0.71884 0.18224 0.89672 0.0
H1014 H 0.67216 0.18263 0.77101 0.0
C1015 C 0.67987 0.14892 0.91926 0.0
C1016 C 0.63752 0.12835 0.88868 0.0
H1017 H 0.75033 0.19863 0.9214 0.0
H1018 H 0.6823 0.14082 0.96073 0.0
C1019 C 0.63587 0.1411 0.83492 0.0
C1020 C 0.85456 0.64903 0.85525 0.0
C1021 C 0.87044 0.69498 0.83466 0.0
H1022 H 0.86939 0.59283 0.89184 0.0
C1023 C 0.91913 0.71975 0.84115 0.0
H1024 H 0.81792 0.62795 0.85165 0.0
C1025 C 0.94967 0.69896 0.86613 0.0
C1026 C 0.93299 0.65233 0.88481 0.0
H1027 H 0.9338 0.75491 0.8256 0.0
H1028 H 0.98642 0.71915 0.86849 0.0
C1029 C 0.88458 0.62847 0.8789 0.0
C1030 C 0.24586 0.39088 0.15248 0.0
C1031 C 0.22963 0.3448 0.17266 0.0
H1032 H 0.23148 0.44762 0.11743 0.0
C1033 C 0.18093 0.32053 0.16741 0.0
H1034 H 0.28255 0.41161 0.15524 0.0
C1035 C 0.1507 0.3418 0.14354 0.0
C1036 C 0.16775 0.38846 0.12511 0.0
H1037 H 0.16606 0.28532 0.18271 0.0
H1038 H 0.11392 0.32193 0.14172 0.0
C1039 C 0.21613 0.41197 0.1302 0.0
C1040 C 0.21942 0.65924 0.88376 0.0
C1041 C 0.21603 0.67612 0.83067 0.0
H1042 H 0.18415 0.62022 0.94923 0.0
C1043 C 0.1717 0.66275 0.80244 0.0
H1044 H 0.25281 0.66626 0.90636 0.0
C1045 C 0.13209 0.63639 0.82703 0.0
C1046 C 0.13547 0.62011 0.88034 0.0
H1047 H 0.16762 0.67251 0.76111 0.0
H1048 H 0.09862 0.62807 0.80399 0.0
C1049 C 0.17989 0.63182 0.90824 0.0
C1050 C 0.4194 0.21614 0.86464 0.0
C1051 C 0.37847 0.2023 0.82899 0.0
H1052 H 0.47349 0.20123 0.91516 0.0
C1053 C 0.36099 0.15838 0.81944 0.0
H1054 H 0.43488 0.24971 0.87294 0.0
C1055 C 0.38424 0.13056 0.84309 0.0
C1056 C 0.42584 0.14487 0.878 0.0
H1057 H 0.33043 0.14608 0.79186 0.0
H1058 H 0.36986 0.09773 0.83299 0.0
C1059 C 0.44202 0.18811 0.88905 0.0
C1060 C 0.90968 0.3277 0.91519 0.0
C1061 C 0.89402 0.34456 0.86552 0.0
H1062 H 0.95538 0.34205 0.9855 0.0
C1063 C 0.91152 0.39113 0.85075 0.0
H1064 H 0.89595 0.29222 0.92879 0.0
C1065 C 0.94485 0.41986 0.88377 0.0
C1066 C 0.96209 0.40294 0.93247 0.0
H1067 H 0.90052 0.40566 0.81301 0.0
H1068 H 0.95816 0.45541 0.87034 0.0
C1069 C 0.94352 0.35641 0.94801 0.0
C1070 C 0.71596 0.88559 0.94662 0.0
C1071 C 0.76176 0.91789 0.94676 0.0
H1072 H 0.64763 0.8689 0.95727 0.0
C1073 C 0.77278 0.96045 0.95611 0.0
H1074 H 0.70624 0.85226 0.94044 0.0
C1075 C 0.73893 0.96987 0.96671 0.0
C1076 C 0.6934 0.93704 0.96757 0.0
H1077 H 0.80762 0.98626 0.95588 0.0
H1078 H 0.74848 1.00264 0.97458 0.0
C1079 C 0.68228 0.89508 0.95668 0.0
C1080 C 0.91185 0.67197 0.07213 0.0
C1081 C 0.94566 0.70623 0.09868 0.0
H1082 H 0.8983 0.61947 0.0318 0.0
C1083 C 0.98937 0.70683 0.11515 0.0
H1084 H 0.87739 0.66983 0.06044 0.0
C1085 C 1.00082 0.6777 0.10019 0.0
C1086 C 0.96906 0.64723 0.06797 0.0
H1087 H 1.0157 0.73159 0.13738 0.0
H1088 H 1.03578 0.681 0.11142 0.0
C1089 C 0.92364 0.64293 0.05612 0.0
C1090 C 0.3902 0.8554 0.12998 0.0
C1091 C 0.39675 0.85254 0.18376 0.0
H1092 H 0.42023 0.88754 0.05959 0.0
C1093 C 0.4384 0.88296 0.20684 0.0
H1094 H 0.35925 0.83149 0.11121 0.0
C1095 C 0.47324 0.91418 0.17778 0.0
C1096 C 0.46772 0.91629 0.12444 0.0
H1097 H 0.44507 0.88096 0.24823 0.0
H1098 H 0.50563 0.93539 0.19752 0.0
C1099 C 0.4252 0.88743 0.10048 0.0
C1100 C 0.68906 0.15013 0.15241 0.0
C1101 C 0.69879 0.19564 0.14222 0.0
H1102 H 0.64735 0.08565 0.13056 0.0
C1103 C 0.67418 0.21093 0.09846 0.0
H1104 H 0.70732 0.13704 0.18563 0.0
C1105 C 0.63951 0.18149 0.06709 0.0
C1106 C 0.62863 0.13572 0.07809 0.0
H1107 H 0.6818 0.24584 0.08811 0.0
H1108 H 0.62101 0.19472 0.03428 0.0
C1109 C 0.6545 0.12058 0.12078 0.0
C1110 C 0.68208 0.63885 0.8479 0.0
C1111 C 0.69571 0.68494 0.83739 0.0
H1112 H 0.63602 0.57536 0.88379 0.0
C1113 C 0.67167 0.7026 0.8544 0.0
H1114 H 0.70047 0.6246 0.83558 0.0
C1115 C 0.63417 0.67442 0.88126 0.0
C1116 C 0.62076 0.62816 0.89252 0.0
H1117 H 0.68169 0.73814 0.84657 0.0
H1118 H 0.6164 0.68893 0.89428 0.0
C1119 C 0.64527 0.61076 0.87559 0.0
C1120 C 0.45377 0.68108 0.06273 0.0
C1121 C 0.40562 0.66336 0.05301 0.0
H1122 H 0.51274 0.67756 0.04791 0.0
C1123 C 0.3812 0.61788 0.04943 0.0
H1124 H 0.47361 0.71514 0.06941 0.0
C1125 C 0.40266 0.59731 0.03339 0.0
C1126 C 0.44955 0.6205 0.02833 0.0
H1127 H 0.34397 0.60229 0.04583 0.0
H1128 H 0.38223 0.56502 0.02163 0.0
C1129 C 0.47589 0.66034 0.04831 0.0
C1130 C 0.42093 0.40167 0.82177 0.0
C1131 C 0.38785 0.35932 0.84004 0.0
H1132 H 0.48001 0.46076 0.8414 0.0
C1133 C 0.3862 0.34666 0.89331 0.0
H1134 H 0.42306 0.41271 0.78104 0.0
C1135 C 0.419 0.37401 0.92761 0.0
C1136 C 0.45318 0.41521 0.90937 0.0
H1137 H 0.36098 0.31466 0.90894 0.0
H1138 H 0.41891 0.36212 0.96854 0.0
C1139 C 0.4532 0.42946 0.85619 0.0
C1140 C 0.69226 0.45439 0.80015 0.0
C1141 C 0.66866 0.41355 0.78146 0.0
H1142 H 0.69287 0.4961 0.8481 0.0
C1143 C 0.6265 0.38298 0.7985 0.0
H1144 H 0.72506 0.47863 0.78813 0.0
C1145 C 0.60779 0.39331 0.83205 0.0
C1146 C 0.631 0.43426 0.85038 0.0
H1147 H 0.60719 0.35148 0.78468 0.0
H1148 H 0.57486 0.36894 0.84361 0.0
C1149 C 0.67386 0.46446 0.83454 0.0
C1150 C 0.74062 0.40378 0.01154 0.0
C1151 C 0.77444 0.44586 0.02201 0.0
H1152 H 0.668 0.36241 1.00146 0.0
C1153 C 0.7636 0.48237 0.00561 0.0
H1154 H 0.7487 0.37528 0.02242 0.0
C1155 C 0.71752 0.47478 0.99527 0.0
C1156 C 0.68289 0.43097 0.99892 0.0
H1157 H 0.78932 0.51536 0.0118 0.0
H1158 H 0.70921 0.50239 0.99264 0.0
C1159 C 0.69433 0.39615 1.0007 0.0
C1160 C 0.68576 0.62573 0.18397 0.0
C1161 C 0.71058 0.67078 0.16354 0.0
H1162 H 0.63677 0.56074 0.16777 0.0
C1163 C 0.71074 0.6828 0.11011 0.0
H1164 H 0.68564 0.61509 0.22498 0.0
C1165 C 0.68373 0.65147 0.0777 0.0
C1166 C 0.6563 0.60728 0.09783 0.0
H1167 H 0.72999 0.71693 0.09293 0.0
H1168 H 0.68154 0.66256 0.0365 0.0
C1169 C 0.6587 0.59426 0.15134 0.0
C1170 C 0.46832 0.63128 0.20153 0.0
C1171 C 0.42445 0.59966 0.21309 0.0
H1172 H 0.52642 0.64706 0.16546 0.0
C1173 C 0.40553 0.5584 0.19621 0.0
H1174 H 0.48397 0.66315 0.21445 0.0
C1175 C 0.42953 0.54928 0.16764 0.0
C1176 C 0.47351 0.58084 0.15613 0.0
H1177 H 0.37179 0.53332 0.20462 0.0
H1178 H 0.41353 0.51752 0.1544 0.0
C1179 C 0.49281 0.62178 0.17397 0.0
C1180 C 0.42829 0.3929 0.16531 0.0
C1181 C 0.40335 0.34666 0.16869 0.0
H1182 H 0.48357 0.45179 0.13463 0.0
C1183 C 0.41675 0.32368 0.14435 0.0
H1184 H 0.41817 0.41145 0.1829 0.0
C1185 C 0.4548 0.34659 0.11737 0.0
C1186 C 0.47934 0.39308 0.11315 0.0
H1187 H 0.39799 0.28792 0.14657 0.0
H1188 H 0.46418 0.32813 0.0986 0.0
C1189 C 0.46558 0.41594 0.13741 0.0
C1190 C 0.8284 0.57434 0.55015 0.0
C1191 C 0.84258 0.61719 0.56093 0.0
H1192 H 0.84771 0.5297 0.5289 0.0
C1193 C 0.88882 0.64794 0.55873 0.0
H1194 H 0.7932 0.54963 0.55182 0.0
C1195 C 0.92015 0.63594 0.5474 0.0
C1196 C 0.90602 0.59321 0.53685 0.0
H1197 H 0.90094 0.68163 0.56528 0.0
H1198 H 0.95568 0.66021 0.54706 0.0
C1199 C 0.8596 0.56282 0.53704 0.0
C1200 C 0.38253 0.83387 0.60695 0.0
C1201 C 0.38385 0.8337 0.65921 0.0
H1202 H 0.40921 0.87055 0.536 0.0
C1203 C 0.41888 0.8705 0.68096 0.0
H1204 H 0.35528 0.80695 0.58838 0.0
C1205 C 0.4507 0.90671 0.65102 0.0
C1206 C 0.44776 0.90773 0.59812 0.0
H1207 H 0.41985 0.87269 0.72036 0.0
H1208 H 0.47495 0.93566 0.66826 0.0
C1209 C 0.41373 0.8703 0.5769 0.0
C1210 C 0.252 0.37161 0.68386 0.0
C1211 C 0.23196 0.32771 0.67327 0.0
H1212 H 0.24776 0.43451 0.6713 0.0
C1213 C 0.19027 0.31566 0.63873 0.0
H1214 H 0.28323 0.38253 0.71087 0.0
C1215 C 0.16952 0.34546 0.61599 0.0
C1216 C 0.18885 0.38907 0.62708 0.0
H1217 H 0.17283 0.28219 0.62987 0.0
H1218 H 0.13752 0.33378 0.59029 0.0
C1219 C 0.23102 0.40151 0.66122 0.0
C1220 C 0.67804 0.16451 0.63214 0.0
C1221 C 0.7247 0.175 0.65049 0.0
H1222 H 0.61514 0.12133 0.59202 0.0
C1223 C 0.74392 0.15001 0.63802 0.0
H1224 H 0.6618 0.18262 0.64092 0.0
C1225 C 0.71726 0.11464 0.6104 0.0
C1226 C 0.67017 0.10278 0.59382 0.0
H1227 H 0.77982 0.15706 0.65064 0.0
H1228 H 0.73356 0.09601 0.60297 0.0
C1229 C 0.65122 0.12899 0.60421 0.0
C1230 C 0.85503 0.38466 0.37415 0.0
C1231 C 0.87424 0.36248 0.3563 0.0
H1232 H 0.86638 0.43657 0.41321 0.0
C1233 C 0.92204 0.37597 0.36813 0.0
H1234 H 0.8185 0.37569 0.36595 0.0
C1235 C 0.94981 0.41135 0.39565 0.0
C1236 C 0.93061 0.43455 0.41167 0.0
H1237 H 0.93835 0.36041 0.35457 0.0
H1238 H 0.9866 0.42144 0.40284 0.0
C1239 C 0.88268 0.42003 0.40126 0.0
C1240 C 0.70046 0.89417 0.42258 0.0
C1241 C 0.66552 0.85046 0.42983 0.0
H1242 H 0.72326 0.96247 0.4301 0.0
C1243 C 0.63156 0.84121 0.45956 0.0
H1244 H 0.72678 0.90261 0.39933 0.0
C1245 C 0.63043 0.87501 0.47825 0.0
C1246 C 0.66299 0.91921 0.46754 0.0
H1247 H 0.60415 0.80802 0.4661 0.0
H1248 H 0.60154 0.8671 0.49725 0.0
C1249 C 0.69883 0.92842 0.44072 0.0
C1250 C 0.22225 0.69707 0.37722 0.0
C1251 C 0.20327 0.69817 0.32516 0.0
H1252 H 0.21469 0.6623 0.45468 0.0
C1253 C 0.15751 0.66675 0.31315 0.0
H1254 H 0.25641 0.72176 0.38836 0.0
C1255 C 0.13283 0.63313 0.35138 0.0
C1256 C 0.15302 0.63016 0.40306 0.0
H1257 H 0.14114 0.66741 0.27361 0.0
H1258 H 0.09886 0.60824 0.34005 0.0
C1259 C 0.1978 0.66332 0.41536 0.0
C1260 C 0.33115 0.14886 0.3488 0.0
C1261 C 0.34978 0.19436 0.32609 0.0
H1262 H 0.34124 0.09069 0.38804 0.0
C1263 C 0.39865 0.21597 0.33048 0.0
H1264 H 0.29417 0.13014 0.34687 0.0
C1265 C 0.42672 0.19263 0.356 0.0
C1266 C 0.40711 0.14638 0.37685 0.0
H1267 H 0.41524 0.25055 0.31322 0.0
H1268 H 0.46369 0.21047 0.35749 0.0
C1269 C 0.35861 0.12573 0.37278 0.0
C1270 C 0.76806 0.89162 0.66352 0.0
C1271 C 0.74923 0.84539 0.68295 0.0
H1272 H 0.75831 0.95028 0.62623 0.0
C1273 C 0.70032 0.82319 0.6746 0.0
H1274 H 0.80505 0.91089 0.66837 0.0
C1275 C 0.67244 0.84663 0.64841 0.0
C1276 C 0.69213 0.89351 0.63082 0.0
H1277 H 0.68346 0.78794 0.68899 0.0
H1278 H 0.63539 0.82818 0.64352 0.0
C1279 C 0.74072 0.91477 0.63894 0.0
C1280 C 0.72641 0.19355 0.40062 0.0
C1281 C 0.72112 0.20212 0.34655 0.0
H1282 H 0.70007 0.15016 0.4691 0.0
C1283 C 0.67956 0.17398 0.32025 0.0
H1284 H 0.758 0.21395 0.42231 0.0
C1285 C 0.64583 0.13683 0.34755 0.0
C1286 C 0.65247 0.12726 0.4018 0.0
H1287 H 0.67454 0.17878 0.27869 0.0
H1288 H 0.61623 0.11382 0.32613 0.0
C1289 C 0.69282 0.15704 0.42761 0.0
C1290 C 0.84318 0.65855 0.32251 0.0
C1291 C 0.86588 0.70451 0.32551 0.0
H1292 H 0.84486 0.59406 0.34395 0.0
C1293 C 0.91008 0.71882 0.35526 0.0
H1294 H 0.8099 0.64567 0.29927 0.0
C1295 C 0.9305 0.68919 0.38093 0.0
C1296 C 0.90836 0.64336 0.3776 0.0
H1297 H 0.92963 0.75379 0.3581 0.0
H1298 H 0.96441 0.70264 0.40276 0.0
C1299 C 0.86383 0.62878 0.34807 0.0
C1300 C 0.3564 0.89174 0.35545 0.0
C1301 C 0.37302 0.86095 0.35364 0.0
H1302 H 0.36881 0.95105 0.38125 0.0
C1303 C 0.41663 0.86688 0.38096 0.0
H1304 H 0.32287 0.88834 0.33544 0.0
C1305 C 0.44336 0.90333 0.40742 0.0
C1306 C 0.42735 0.9351 0.40757 0.0
H1307 H 0.43125 0.84482 0.37987 0.0
H1308 H 0.47726 0.90717 0.42671 0.0
C1309 C 0.38288 0.92795 0.38202 0.0
C1310 C 0.22428 0.43591 0.40164 0.0
C1311 C 0.26607 0.4406 0.43322 0.0
H1312 H 0.16238 0.44437 0.38946 0.0
C1313 C 0.277 0.45966 0.47767 0.0
H1314 H 0.21482 0.42308 0.36606 0.0
C1315 C 0.24663 0.47184 0.49138 0.0
C1316 C 0.20475 0.46636 0.46017 0.0
H1317 H 0.30889 0.46484 0.5025 0.0
H1318 H 0.25629 0.48601 0.52611 0.0
C1319 C 0.19414 0.44857 0.41492 0.0
C1320 C 0.47617 0.18183 0.58194 0.0
C1321 C 0.4341 0.18505 0.57025 0.0
H1322 H 0.51315 0.14515 0.58074 0.0
C1323 C 0.39555 0.15121 0.54711 0.0
H1324 H 0.5064 0.20679 0.60029 0.0
C1325 C 0.39966 0.11576 0.5346 0.0
C1326 C 0.442 0.11286 0.54688 0.0
H1327 H 0.3625 0.15248 0.53811 0.0
H1328 H 0.36973 0.09027 0.51667 0.0
C1329 C 0.47996 0.14629 0.57077 0.0
C1330 C 0.91224 0.3445 0.64143 0.0
C1331 C 0.90243 0.34684 0.68832 0.0
H1332 H 0.94621 0.38005 0.57393 0.0
C1333 C 0.92516 0.38836 0.70495 0.0
H1334 H 0.89716 0.31275 0.62835 0.0
C1335 C 0.95324 0.42684 0.67396 0.0
C1336 C 0.96178 0.42512 0.62605 0.0
H1337 H 0.9206 0.39132 0.74178 0.0
H1338 H 0.968 0.4584 0.68741 0.0
C1339 C 0.94127 0.383 0.61065 0.0
C1340 C 0.24701 0.65149 0.6354 0.0
C1341 C 0.22917 0.67419 0.65437 0.0
H1342 H 0.23324 0.59798 0.59763 0.0
C1343 C 0.1813 0.66087 0.64472 0.0
H1344 H 0.28366 0.66142 0.64057 0.0
C1345 C 0.15211 0.62463 0.61882 0.0
C1346 C 0.17002 0.60042 0.60262 0.0
H1347 H 0.16618 0.67743 0.65865 0.0
H1348 H 0.11537 0.61465 0.61303 0.0
C1349 C 0.21797 0.61495 0.61056 0.0
loop_
_geom_bond_atom_site_label_1
_geom_bond_atom_site_label_2
_geom_bond_distance
_geom_bond_site_symmetry_2
_ccdc_geom_bond_type
Tb0 N31 2.660 . S
Tb0 N38 2.600 . S
Tb0 O44 2.546 . S
Tb0 O45 2.610 . S
Tb0 O47 2.320 . S
Tb0 O48 2.552 . S
Tb0 O49 2.413 . S
Tb0 O51 2.362 . S
Tb0 O52 2.421 . S
Tb0 C64 2.833 . S
C1 C4 1.432 . S
C1 C5 1.414 . S
C1 N8 1.359 . S
C2 C4 1.417 . S
C2 C6 1.432 . S
C2 C14 1.410 . S
C3 C5 1.444 . S
C3 C6 1.317 . S
C3 H26 0.929 . S
C4 C1 1.432 . S
C4 C2 1.417 . S
C4 N12 1.360 . S
C5 C1 1.414 . S
C5 C3 1.444 . S
C5 C10 1.385 . S
C6 C2 1.432 . S
C6 C3 1.317 . S
C6 H18 0.930 . S
C7 C9 1.392 . S
C7 C10 1.370 . S
C7 H19 0.931 . S
N8 C1 1.359 . S
N8 C9 1.327 . S
N8 Tb11 2.600 . S
C9 C7 1.392 . S
C9 N8 1.327 . S
C9 H16 0.930 . S
C10 C5 1.385 . S
C10 C7 1.370 . S
C10 H29 0.930 . S
Tb11 N8 2.600 . S
Tb11 N12 2.660 . S
Tb11 O45 2.362 . S
Tb11 O46 2.421 . S
Tb11 O50 2.546 . S
Tb11 O51 2.610 . S
Tb11 O53 2.320 . S
Tb11 O54 2.552 . S
Tb11 O55 2.413 . S
Tb11 C75 2.833 . S
N12 C4 1.360 . S
N12 Tb11 2.660 . S
N12 C13 1.305 . S
C13 N12 1.305 . S
C13 C15 1.407 . S
C13 H20 0.930 . S
C14 C2 1.410 . S
C14 C15 1.345 . S
C14 H22 0.930 . S
C15 C13 1.407 . S
C15 C14 1.345 . S
C15 H17 0.930 . S
H16 C9 0.930 . S
H17 C15 0.930 . S
H18 C6 0.930 . S
H19 C7 0.931 . S
H20 C13 0.930 . S
H21 C35 0.930 . S
H22 C14 0.930 . S
H23 C41 0.930 . S
H24 C32 0.930 . S
H25 C39 0.931 . S
H26 C3 0.929 . S
H27 C33 0.930 1_556 S
H28 C66 0.930 1_556 S
H29 C10 0.930 . S
H30 C65 0.929 . S
N31 Tb0 2.660 . S
N31 C32 1.305 . S
N31 C36 1.360 . S
C32 H24 0.930 . S
C32 N31 1.305 . S
C32 C35 1.407 . S
C33 H27 0.930 1_554 S
C33 C34 1.410 . S
C33 C35 1.345 . S
C34 C33 1.410 . S
C34 C36 1.417 . S
C34 C66 1.432 . S
C35 H21 0.930 . S
C35 C32 1.407 . S
C35 C33 1.345 . S
C36 N31 1.360 . S
C36 C34 1.417 . S
C36 C40 1.432 . S
H37 C42 0.930 . S
N38 Tb0 2.600 . S
N38 C40 1.359 . S
N38 C41 1.327 . S
C39 H25 0.931 . S
C39 C41 1.392 . S
C39 C42 1.370 . S
C40 C36 1.432 . S
C40 N38 1.359 . S
C40 C43 1.414 . S
C41 H23 0.930 . S
C41 N38 1.327 . S
C41 C39 1.392 . S
C42 H37 0.930 . S
C42 C39 1.370 . S
C42 C43 1.385 . S
C43 C40 1.414 . S
C43 C42 1.385 . S
C43 C65 1.444 . S
O44 Tb0 2.546 . S
O44 C64 1.251 . S
O45 Tb0 2.610 . S
O45 Tb11 2.362 . S
O45 C56 1.283 . S
O46 Tb11 2.421 . S
O46 C63 1.262 . S
O47 Tb0 2.320 . S
O47 C63 1.260 . S
O48 Tb0 2.552 . S
O48 C56 1.243 . S
O49 Tb0 2.413 . S
O49 C64 1.256 . S
O50 Tb11 2.546 . S
O50 C75 1.251 . S
O51 Tb0 2.362 . S
O51 Tb11 2.610 . S
O51 C67 1.283 . S
O52 Tb0 2.421 . S
O52 C74 1.262 . S
O53 Tb11 2.320 . S
O53 C74 1.260 . S
O54 Tb11 2.552 . S
O54 C67 1.243 . S
O55 Tb11 2.413 . S
O55 C75 1.256 . S
C56 O45 1.283 . S
C56 O48 1.243 . S
C57 C59 1.382 . S
C57 C61 1.393 . S
C57 C64 1.500 . S
C58 C59 1.400 . S
C58 C60 1.384 . S
C59 C57 1.382 . S
C59 C58 1.400 . S
C59 H76 0.930 . S
C60 C58 1.384 . S
C60 C62 1.392 . S
C60 H77 0.931 . S
C61 C57 1.393 . S
C61 C62 1.401 . S
C61 H78 0.930 . S
C62 C60 1.392 . S
C62 C61 1.401 . S
C62 H79 0.930 . S
C63 O46 1.262 . S
C63 O47 1.260 . S
C64 Tb0 2.833 . S
C64 O44 1.251 . S
C64 O49 1.256 . S
C64 C57 1.500 . S
C65 H30 0.929 . S
C65 C43 1.444 . S
C65 C66 1.317 . S
C66 H28 0.930 1_554 S
C66 C34 1.432 . S
C66 C65 1.317 . S
C67 O51 1.283 . S
C67 O54 1.243 . S
C68 C69 1.382 . S
C68 C72 1.393 . S
C68 C75 1.500 . S
C69 C68 1.382 . S
C69 C70 1.400 . S
C69 H80 0.930 . S
C70 C69 1.400 . S
C70 C71 1.384 . S
C71 C70 1.384 . S
C71 C73 1.392 . S
C71 H81 0.931 . S
C72 C68 1.393 . S
C72 C73 1.401 . S
C72 H82 0.930 . S
C73 C71 1.392 . S
C73 C72 1.401 . S
C73 H83 0.930 . S
C74 O52 1.262 . S
C74 O53 1.260 . S
C75 Tb11 2.833 . S
C75 O50 1.251 . S
C75 O55 1.256 . S
C75 C68 1.500 . S
H76 C59 0.930 . S
H77 C60 0.931 . S
H78 C61 0.930 . S
H79 C62 0.930 . S
H80 C69 0.930 . S
H81 C71 0.931 . S
H82 C72 0.930 . S
H83 C73 0.930 . S
Tb84 N115 2.660 . S
Tb84 N122 2.600 . S
Tb84 O128 2.546 . S
Tb84 O129 2.610 . S
Tb84 O131 2.320 . S
Tb84 O132 2.552 . S
Tb84 O133 2.413 . S
Tb84 O135 2.362 . S
Tb84 O136 2.421 . S
Tb84 C148 2.833 . S
C85 C88 1.432 . S
C85 C89 1.414 . S
C85 N92 1.359 . S
C86 C88 1.417 . S
C86 C90 1.432 . S
C86 C98 1.410 . S
C87 C89 1.444 . S
C87 C90 1.317 . S
C87 H110 0.929 . S
C88 C85 1.432 . S
C88 C86 1.417 . S
C88 N96 1.360 . S
C89 C85 1.414 . S
C89 C87 1.444 . S
C89 C94 1.385 . S
C90 C86 1.432 . S
C90 C87 1.317 . S
C90 H102 0.930 . S
C91 C93 1.392 . S
C91 C94 1.370 . S
C91 H103 0.931 . S
N92 C85 1.359 . S
N92 C93 1.327 . S
N92 Tb95 2.600 . S
C93 C91 1.392 . S
C93 N92 1.327 . S
C93 H100 0.930 . S
C94 C89 1.385 . S
C94 C91 1.370 . S
C94 H113 0.930 . S
Tb95 N92 2.600 . S
Tb95 N96 2.660 . S
Tb95 O129 2.362 . S
Tb95 O130 2.421 . S
Tb95 O134 2.546 . S
Tb95 O135 2.610 . S
Tb95 O137 2.320 . S
Tb95 O138 2.552 . S
Tb95 O139 2.413 . S
Tb95 C159 2.833 . S
N96 C88 1.360 . S
N96 Tb95 2.660 . S
N96 C97 1.305 . S
C97 N96 1.305 . S
C97 C99 1.407 . S
C97 H104 0.930 . S
C98 C86 1.410 . S
C98 C99 1.345 . S
C98 H106 0.930 . S
C99 C97 1.407 . S
C99 C98 1.345 . S
C99 H101 0.930 . S
H100 C93 0.930 . S
H101 C99 0.930 . S
H102 C90 0.930 . S
H103 C91 0.931 . S
H104 C97 0.930 . S
H105 C119 0.930 . S
H106 C98 0.930 . S
H107 C125 0.930 . S
H108 C116 0.930 . S
H109 C123 0.931 . S
H110 C87 0.929 . S
H111 C117 0.930 . S
H112 C150 0.930 . S
H113 C94 0.930 . S
H114 C149 0.929 . S
N115 Tb84 2.660 . S
N115 C116 1.305 . S
N115 C120 1.360 . S
C116 H108 0.930 . S
C116 N115 1.305 . S
C116 C119 1.407 . S
C117 H111 0.930 . S
C117 C118 1.410 . S
C117 C119 1.345 . S
C118 C117 1.410 . S
C118 C120 1.417 . S
C118 C150 1.432 . S
C119 H105 0.930 . S
C119 C116 1.407 . S
C119 C117 1.345 . S
C120 N115 1.360 . S
C120 C118 1.417 . S
C120 C124 1.432 . S
H121 C126 0.930 . S
N122 Tb84 2.600 . S
N122 C124 1.359 . S
N122 C125 1.327 . S
C123 H109 0.931 . S
C123 C125 1.392 . S
C123 C126 1.370 . S
C124 C120 1.432 . S
C124 N122 1.359 . S
C124 C127 1.414 . S
C125 H107 0.930 . S
C125 N122 1.327 . S
C125 C123 1.392 . S
C126 H121 0.930 . S
C126 C123 1.370 . S
C126 C127 1.385 . S
C127 C124 1.414 . S
C127 C126 1.385 . S
C127 C149 1.444 . S
O128 Tb84 2.546 . S
O128 C148 1.251 . S
O129 Tb84 2.610 . S
O129 Tb95 2.362 . S
O129 C140 1.283 . S
O130 Tb95 2.421 . S
O130 C147 1.262 . S
O131 Tb84 2.320 . S
O131 C147 1.260 . S
O132 Tb84 2.552 . S
O132 C140 1.243 . S
O133 Tb84 2.413 . S
O133 C148 1.256 . S
O134 Tb95 2.546 . S
O134 C159 1.251 . S
O135 Tb84 2.362 . S
O135 Tb95 2.610 . S
O135 C151 1.283 . S
O136 Tb84 2.421 . S
O136 C158 1.262 . S
O137 Tb95 2.320 . S
O137 C158 1.260 . S
O138 Tb95 2.552 . S
O138 C151 1.243 . S
O139 Tb95 2.413 . S
O139 C159 1.256 . S
C140 O129 1.283 . S
C140 O132 1.243 . S
C141 C143 1.382 . S
C141 C145 1.393 . S
C141 C148 1.500 . S
C142 C143 1.400 . S
C142 C144 1.384 . S
C143 C141 1.382 . S
C143 C142 1.400 . S
C143 H160 0.930 . S
C144 C142 1.384 . S
C144 C146 1.392 . S
C144 H161 0.931 . S
C145 C141 1.393 . S
C145 C146 1.401 . S
C145 H162 0.930 . S
C146 C144 1.392 . S
C146 C145 1.401 . S
C146 H163 0.930 . S
C147 O130 1.262 . S
C147 O131 1.260 . S
C148 Tb84 2.833 . S
C148 O128 1.251 . S
C148 O133 1.256 . S
C148 C141 1.500 . S
C149 H114 0.929 . S
C149 C127 1.444 . S
C149 C150 1.317 . S
C150 H112 0.930 . S
C150 C118 1.432 . S
C150 C149 1.317 . S
C151 O135 1.283 . S
C151 O138 1.243 . S
C152 C153 1.382 . S
C152 C156 1.393 . S
C152 C159 1.500 . S
C153 C152 1.382 . S
C153 C154 1.400 . S
C153 H164 0.930 . S
C154 C153 1.400 . S
C154 C155 1.384 . S
C155 C154 1.384 . S
C155 C157 1.392 . S
C155 H165 0.931 . S
C156 C152 1.393 . S
C156 C157 1.401 . S
C156 H166 0.930 . S
C157 C155 1.392 . S
C157 C156 1.401 . S
C157 H167 0.930 . S
C158 O136 1.262 . S
C158 O137 1.260 . S
C159 Tb95 2.833 . S
C159 O134 1.251 . S
C159 O139 1.256 . S
C159 C152 1.500 . S
H160 C143 0.930 . S
H161 C144 0.931 . S
H162 C145 0.930 . S
H163 C146 0.930 . S
H164 C153 0.930 . S
H165 C155 0.931 . S
H166 C156 0.930 . S
H167 C157 0.930 . S
Tb168 N199 2.660 . S
Tb168 N206 2.600 . S
Tb168 O212 2.546 . S
Tb168 O213 2.610 . S
Tb168 O215 2.320 . S
Tb168 O216 2.552 . S
Tb168 O217 2.413 . S
Tb168 O219 2.362 . S
Tb168 O220 2.421 . S
Tb168 C232 2.833 . S
C169 C172 1.432 . S
C169 C173 1.414 . S
C169 N176 1.359 . S
C170 C172 1.417 . S
C170 C174 1.432 . S
C170 C182 1.410 . S
C171 C173 1.444 . S
C171 C174 1.317 . S
C171 H194 0.929 . S
C172 C169 1.432 . S
C172 C170 1.417 . S
C172 N180 1.360 . S
C173 C169 1.414 . S
C173 C171 1.444 . S
C173 C178 1.385 . S
C174 C170 1.432 . S
C174 C171 1.317 . S
C174 H186 0.930 1_554 S
C175 C177 1.392 . S
C175 C178 1.370 . S
C175 H187 0.931 . S
N176 C169 1.359 . S
N176 C177 1.327 . S
N176 Tb179 2.600 . S
C177 C175 1.392 . S
C177 N176 1.327 . S
C177 H184 0.930 . S
C178 C173 1.385 . S
C178 C175 1.370 . S
C178 H197 0.930 . S
Tb179 N176 2.600 . S
Tb179 N180 2.660 . S
Tb179 O213 2.362 . S
Tb179 O214 2.421 . S
Tb179 O218 2.546 . S
Tb179 O219 2.610 . S
Tb179 O221 2.320 . S
Tb179 O222 2.552 . S
Tb179 O223 2.413 . S
Tb179 C243 2.833 . S
N180 C172 1.360 . S
N180 Tb179 2.660 . S
N180 C181 1.305 . S
C181 N180 1.305 . S
C181 C183 1.407 . S
C181 H188 0.930 . S
C182 C170 1.410 . S
C182 C183 1.345 . S
C182 H190 0.930 1_554 S
C183 C181 1.407 . S
C183 C182 1.345 . S
C183 H185 0.930 . S
H184 C177 0.930 . S
H185 C183 0.930 . S
H186 C174 0.930 1_556 S
H187 C175 0.931 . S
H188 C181 0.930 . S
H189 C203 0.930 . S
H190 C182 0.930 1_556 S
H191 C209 0.930 . S
H192 C200 0.930 . S
H193 C207 0.931 . S
H194 C171 0.929 . S
H195 C201 0.930 . S
H196 C234 0.930 . S
H197 C178 0.930 . S
H198 C233 0.929 . S
N199 Tb168 2.660 . S
N199 C200 1.305 . S
N199 C204 1.360 . S
C200 H192 0.930 . S
C200 N199 1.305 . S
C200 C203 1.407 . S
C201 H195 0.930 . S
C201 C202 1.410 . S
C201 C203 1.345 . S
C202 C201 1.410 . S
C202 C204 1.417 . S
C202 C234 1.432 . S
C203 H189 0.930 . S
C203 C200 1.407 . S
C203 C201 1.345 . S
C204 N199 1.360 . S
C204 C202 1.417 . S
C204 C208 1.432 . S
H205 C210 0.930 . S
N206 Tb168 2.600 . S
N206 C208 1.359 . S
N206 C209 1.327 . S
C207 H193 0.931 . S
C207 C209 1.392 . S
C207 C210 1.370 . S
C208 C204 1.432 . S
C208 N206 1.359 . S
C208 C211 1.414 . S
C209 H191 0.930 . S
C209 N206 1.327 . S
C209 C207 1.392 . S
C210 H205 0.930 . S
C210 C207 1.370 . S
C210 C211 1.385 . S
C211 C208 1.414 . S
C211 C210 1.385 . S
C211 C233 1.444 . S
O212 Tb168 2.546 . S
O212 C232 1.251 . S
O213 Tb168 2.610 . S
O213 Tb179 2.362 . S
O213 C224 1.283 . S
O214 Tb179 2.421 . S
O214 C231 1.262 . S
O215 Tb168 2.320 . S
O215 C231 1.260 . S
O216 Tb168 2.552 . S
O216 C224 1.243 . S
O217 Tb168 2.413 . S
O217 C232 1.256 . S
O218 Tb179 2.546 . S
O218 C243 1.251 . S
O219 Tb168 2.362 . S
O219 Tb179 2.610 . S
O219 C235 1.283 . S
O220 Tb168 2.421 . S
O220 C242 1.262 . S
O221 Tb179 2.320 . S
O221 C242 1.260 . S
O222 Tb179 2.552 . S
O222 C235 1.243 . S
O223 Tb179 2.413 . S
O223 C243 1.256 . S
C224 O213 1.283 . S
C224 O216 1.243 . S
C225 C227 1.382 . S
C225 C229 1.393 . S
C225 C232 1.500 . S
C226 C227 1.400 . S
C226 C228 1.384 . S
C227 C225 1.382 . S
C227 C226 1.400 . S
C227 H244 0.930 . S
C228 C226 1.384 . S
C228 C230 1.392 . S
C228 H245 0.931 . S
C229 C225 1.393 . S
C229 C230 1.401 . S
C229 H246 0.930 . S
C230 C228 1.392 . S
C230 C229 1.401 . S
C230 H247 0.930 . S
C231 O214 1.262 . S
C231 O215 1.260 . S
C232 Tb168 2.833 . S
C232 O212 1.251 . S
C232 O217 1.256 . S
C232 C225 1.500 . S
C233 H198 0.929 . S
C233 C211 1.444 . S
C233 C234 1.317 . S
C234 H196 0.930 . S
C234 C202 1.432 . S
C234 C233 1.317 . S
C235 O219 1.283 . S
C235 O222 1.243 . S
C236 C237 1.382 . S
C236 C240 1.393 . S
C236 C243 1.500 . S
C237 C236 1.382 . S
C237 C238 1.400 . S
C237 H248 0.930 . S
C238 C237 1.400 . S
C238 C239 1.384 . S
C239 C238 1.384 . S
C239 C241 1.392 . S
C239 H249 0.931 . S
C240 C236 1.393 . S
C240 C241 1.401 . S
C240 H250 0.930 . S
C241 C239 1.392 . S
C241 C240 1.401 . S
C241 H251 0.930 . S
C242 O220 1.262 . S
C242 O221 1.260 . S
C243 Tb179 2.833 . S
C243 O218 1.251 . S
C243 O223 1.256 . S
C243 C236 1.500 . S
H244 C227 0.930 . S
H245 C228 0.931 . S
H246 C229 0.930 . S
H247 C230 0.930 . S
H248 C237 0.930 . S
H249 C239 0.931 . S
H250 C240 0.930 . S
H251 C241 0.930 . S
Tb252 N283 2.660 . S
Tb252 N290 2.600 . S
Tb252 O296 2.546 . S
Tb252 O297 2.610 . S
Tb252 O299 2.320 . S
Tb252 O300 2.552 . S
Tb252 O301 2.413 . S
Tb252 O303 2.362 . S
Tb252 O304 2.421 . S
Tb252 C316 2.833 . S
C253 C256 1.432 . S
C253 C257 1.414 . S
C253 N260 1.359 . S
C254 C256 1.417 . S
C254 C258 1.432 . S
C254 C266 1.410 . S
C255 C257 1.444 . S
C255 C258 1.317 . S
C255 H278 0.929 1_554 S
C256 C253 1.432 . S
C256 C254 1.417 . S
C256 N264 1.360 . S
C257 C253 1.414 . S
C257 C255 1.444 . S
C257 C262 1.385 . S
C258 C254 1.432 . S
C258 C255 1.317 . S
C258 H270 0.930 . S
C259 C261 1.392 . S
C259 C262 1.370 . S
C259 H271 0.931 . S
N260 C253 1.359 . S
N260 C261 1.327 . S
N260 Tb263 2.600 . S
C261 C259 1.392 . S
C261 N260 1.327 . S
C261 H268 0.930 . S
C262 C257 1.385 . S
C262 C259 1.370 . S
C262 H281 0.930 1_554 S
Tb263 N260 2.600 . S
Tb263 N264 2.660 . S
Tb263 O297 2.362 . S
Tb263 O298 2.421 . S
Tb263 O302 2.546 . S
Tb263 O303 2.610 . S
Tb263 O305 2.320 . S
Tb263 O306 2.552 . S
Tb263 O307 2.413 . S
Tb263 C327 2.833 . S
N264 C256 1.360 . S
N264 Tb263 2.660 . S
N264 C265 1.305 . S
C265 N264 1.305 . S
C265 C267 1.407 . S
C265 H272 0.930 . S
C266 C254 1.410 . S
C266 C267 1.345 . S
C266 H274 0.930 . S
C267 C265 1.407 . S
C267 C266 1.345 . S
C267 H269 0.930 . S
H268 C261 0.930 . S
H269 C267 0.930 . S
H270 C258 0.930 . S
H271 C259 0.931 . S
H272 C265 0.930 . S
H273 C287 0.930 . S
H274 C266 0.930 . S
H275 C293 0.930 . S
H276 C284 0.930 . S
H277 C291 0.931 . S
H278 C255 0.929 1_556 S
H279 C285 0.930 . S
H280 C318 0.930 . S
H281 C262 0.930 1_556 S
H282 C317 0.929 . S
N283 Tb252 2.660 . S
N283 C284 1.305 . S
N283 C288 1.360 . S
C284 H276 0.930 . S
C284 N283 1.305 . S
C284 C287 1.407 . S
C285 H279 0.930 . S
C285 C286 1.410 . S
C285 C287 1.345 . S
C286 C285 1.410 . S
C286 C288 1.417 . S
C286 C318 1.432 . S
C287 H273 0.930 . S
C287 C284 1.407 . S
C287 C285 1.345 . S
C288 N283 1.360 . S
C288 C286 1.417 . S
C288 C292 1.432 . S
H289 C294 0.930 . S
N290 Tb252 2.600 . S
N290 C292 1.359 . S
N290 C293 1.327 . S
C291 H277 0.931 . S
C291 C293 1.392 . S
C291 C294 1.370 . S
C292 C288 1.432 . S
C292 N290 1.359 . S
C292 C295 1.414 . S
C293 H275 0.930 . S
C293 N290 1.327 . S
C293 C291 1.392 . S
C294 H289 0.930 . S
C294 C291 1.370 . S
C294 C295 1.385 . S
C295 C292 1.414 . S
C295 C294 1.385 . S
C295 C317 1.444 . S
O296 Tb252 2.546 . S
O296 C316 1.251 . S
O297 Tb252 2.610 . S
O297 Tb263 2.362 . S
O297 C308 1.283 . S
O298 Tb263 2.421 . S
O298 C315 1.262 . S
O299 Tb252 2.320 . S
O299 C315 1.260 . S
O300 Tb252 2.552 . S
O300 C308 1.243 . S
O301 Tb252 2.413 . S
O301 C316 1.256 . S
O302 Tb263 2.546 . S
O302 C327 1.251 . S
O303 Tb252 2.362 . S
O303 Tb263 2.610 . S
O303 C319 1.283 . S
O304 Tb252 2.421 . S
O304 C326 1.262 . S
O305 Tb263 2.320 . S
O305 C326 1.260 . S
O306 Tb263 2.552 . S
O306 C319 1.243 . S
O307 Tb263 2.413 . S
O307 C327 1.256 . S
C308 O297 1.283 . S
C308 O300 1.243 . S
C309 C311 1.382 . S
C309 C313 1.393 . S
C309 C316 1.500 . S
C310 C311 1.400 . S
C310 C312 1.384 . S
C311 C309 1.382 . S
C311 C310 1.400 . S
C311 H328 0.930 . S
C312 C310 1.384 . S
C312 C314 1.392 . S
C312 H329 0.931 . S
C313 C309 1.393 . S
C313 C314 1.401 . S
C313 H330 0.930 . S
C314 C312 1.392 . S
C314 C313 1.401 . S
C314 H331 0.930 . S
C315 O298 1.262 . S
C315 O299 1.260 . S
C316 Tb252 2.833 . S
C316 O296 1.251 . S
C316 O301 1.256 . S
C316 C309 1.500 . S
C317 H282 0.929 . S
C317 C295 1.444 . S
C317 C318 1.317 . S
C318 H280 0.930 . S
C318 C286 1.432 . S
C318 C317 1.317 . S
C319 O303 1.283 . S
C319 O306 1.243 . S
C320 C321 1.382 . S
C320 C324 1.393 . S
C320 C327 1.500 . S
C321 C320 1.382 . S
C321 C322 1.400 . S
C321 H332 0.930 . S
C322 C321 1.400 . S
C322 C323 1.384 . S
C323 C322 1.384 . S
C323 C325 1.392 . S
C323 H333 0.931 . S
C324 C320 1.393 . S
C324 C325 1.401 . S
C324 H334 0.930 . S
C325 C323 1.392 . S
C325 C324 1.401 . S
C325 H335 0.930 . S
C326 O304 1.262 . S
C326 O305 1.260 . S
C327 Tb263 2.833 . S
C327 O302 1.251 . S
C327 O307 1.256 . S
C327 C320 1.500 . S
H328 C311 0.930 . S
H329 C312 0.931 . S
H330 C313 0.930 . S
H331 C314 0.930 . S
H332 C321 0.930 . S
H333 C323 0.931 . S
H334 C324 0.930 . S
H335 C325 0.930 . S
Tb336 N367 2.660 . S
Tb336 N374 2.600 . S
Tb336 O380 2.546 . S
Tb336 O381 2.610 . S
Tb336 O383 2.320 . S
Tb336 O384 2.552 . S
Tb336 O385 2.413 . S
Tb336 O387 2.362 . S
Tb336 O388 2.421 . S
Tb336 C400 2.833 . S
C337 C340 1.432 . S
C337 C341 1.414 . S
C337 N344 1.359 . S
C338 C340 1.417 . S
C338 C342 1.432 . S
C338 C350 1.410 . S
C339 C341 1.444 . S
C339 C342 1.317 . S
C339 H362 0.929 . S
C340 C337 1.432 . S
C340 C338 1.417 . S
C340 N348 1.360 . S
C341 C337 1.414 . S
C341 C339 1.444 . S
C341 C346 1.385 . S
C342 C338 1.432 . S
C342 C339 1.317 . S
C342 H354 0.930 . S
C343 C345 1.392 . S
C343 C346 1.370 . S
C343 H355 0.931 . S
N344 C337 1.359 . S
N344 C345 1.327 . S
N344 Tb347 2.600 . S
C345 C343 1.392 . S
C345 N344 1.327 . S
C345 H352 0.930 . S
C346 C341 1.385 . S
C346 C343 1.370 . S
C346 H365 0.930 . S
Tb347 N344 2.600 . S
Tb347 N348 2.660 . S
Tb347 O381 2.362 . S
Tb347 O382 2.421 . S
Tb347 O386 2.546 . S
Tb347 O387 2.610 . S
Tb347 O389 2.320 . S
Tb347 O390 2.552 . S
Tb347 O391 2.413 . S
Tb347 C411 2.833 . S
N348 C340 1.360 . S
N348 Tb347 2.660 . S
N348 C349 1.305 . S
C349 N348 1.305 . S
C349 C351 1.407 . S
C349 H356 0.930 . S
C350 C338 1.410 . S
C350 C351 1.345 . S
C350 H358 0.930 . S
C351 C349 1.407 . S
C351 C350 1.345 . S
C351 H353 0.930 . S
H352 C345 0.930 . S
H353 C351 0.930 . S
H354 C342 0.930 . S
H355 C343 0.931 . S
H356 C349 0.930 . S
H357 C371 0.930 . S
H358 C350 0.930 . S
H359 C377 0.930 . S
H360 C368 0.930 . S
H361 C375 0.931 . S
H362 C339 0.929 . S
H363 C369 0.930 . S
H364 C402 0.930 . S
H365 C346 0.930 . S
H366 C401 0.929 . S
N367 Tb336 2.660 . S
N367 C368 1.305 . S
N367 C372 1.360 . S
C368 H360 0.930 . S
C368 N367 1.305 . S
C368 C371 1.407 . S
C369 H363 0.930 . S
C369 C370 1.410 . S
C369 C371 1.345 . S
C370 C369 1.410 . S
C370 C372 1.417 . S
C370 C402 1.432 . S
C371 H357 0.930 . S
C371 C368 1.407 . S
C371 C369 1.345 . S
C372 N367 1.360 . S
C372 C370 1.417 . S
C372 C376 1.432 . S
H373 C378 0.930 . S
N374 Tb336 2.600 . S
N374 C376 1.359 . S
N374 C377 1.327 . S
C375 H361 0.931 . S
C375 C377 1.392 . S
C375 C378 1.370 . S
C376 C372 1.432 . S
C376 N374 1.359 . S
C376 C379 1.414 . S
C377 H359 0.930 . S
C377 N374 1.327 . S
C377 C375 1.392 . S
C378 H373 0.930 . S
C378 C375 1.370 . S
C378 C379 1.385 . S
C379 C376 1.414 . S
C379 C378 1.385 . S
C379 C401 1.444 . S
O380 Tb336 2.546 . S
O380 C400 1.251 . S
O381 Tb336 2.610 . S
O381 Tb347 2.362 . S
O381 C392 1.283 . S
O382 Tb347 2.421 . S
O382 C399 1.262 . S
O383 Tb336 2.320 . S
O383 C399 1.260 . S
O384 Tb336 2.552 . S
O384 C392 1.243 . S
O385 Tb336 2.413 . S
O385 C400 1.256 . S
O386 Tb347 2.546 . S
O386 C411 1.251 . S
O387 Tb336 2.362 . S
O387 Tb347 2.610 . S
O387 C403 1.283 . S
O388 Tb336 2.421 . S
O388 C410 1.262 . S
O389 Tb347 2.320 . S
O389 C410 1.260 . S
O390 Tb347 2.552 . S
O390 C403 1.243 . S
O391 Tb347 2.413 . S
O391 C411 1.256 . S
C392 O381 1.283 . S
C392 O384 1.243 . S
C393 C395 1.382 . S
C393 C397 1.393 . S
C393 C400 1.500 . S
C394 C395 1.400 . S
C394 C396 1.384 . S
C395 C393 1.382 . S
C395 C394 1.400 . S
C395 H412 0.930 . S
C396 C394 1.384 . S
C396 C398 1.392 . S
C396 H413 0.931 . S
C397 C393 1.393 . S
C397 C398 1.401 . S
C397 H414 0.930 . S
C398 C396 1.392 . S
C398 C397 1.401 . S
C398 H415 0.930 . S
C399 O382 1.262 . S
C399 O383 1.260 . S
C400 Tb336 2.833 . S
C400 O380 1.251 . S
C400 O385 1.256 . S
C400 C393 1.500 . S
C401 H366 0.929 . S
C401 C379 1.444 . S
C401 C402 1.317 . S
C402 H364 0.930 . S
C402 C370 1.432 . S
C402 C401 1.317 . S
C403 O387 1.283 . S
C403 O390 1.243 . S
C404 C405 1.382 . S
C404 C408 1.393 . S
C404 C411 1.500 . S
C405 C404 1.382 . S
C405 C406 1.400 . S
C405 H416 0.930 . S
C406 C405 1.400 . S
C406 C407 1.384 . S
C407 C406 1.384 . S
C407 C409 1.392 . S
C407 H417 0.931 . S
C408 C404 1.393 . S
C408 C409 1.401 . S
C408 H418 0.930 . S
C409 C407 1.392 . S
C409 C408 1.401 . S
C409 H419 0.930 . S
C410 O388 1.262 . S
C410 O389 1.260 . S
C411 Tb347 2.833 . S
C411 O386 1.251 . S
C411 O391 1.256 . S
C411 C404 1.500 . S
H412 C395 0.930 . S
H413 C396 0.931 . S
H414 C397 0.930 . S
H415 C398 0.930 . S
H416 C405 0.930 . S
H417 C407 0.931 . S
H418 C408 0.930 . S
H419 C409 0.930 . S
Tb420 N451 2.660 . S
Tb420 N458 2.600 . S
Tb420 O464 2.546 . S
Tb420 O465 2.610 . S
Tb420 O467 2.320 . S
Tb420 O468 2.552 . S
Tb420 O469 2.413 . S
Tb420 O471 2.362 . S
Tb420 O472 2.421 . S
Tb420 C484 2.833 . S
C421 C424 1.432 . S
C421 C425 1.414 . S
C421 N428 1.359 . S
C422 C424 1.417 . S
C422 C426 1.432 . S
C422 C434 1.410 . S
C423 C425 1.444 . S
C423 C426 1.317 . S
C423 H446 0.929 . S
C424 C421 1.432 . S
C424 C422 1.417 . S
C424 N432 1.360 . S
C425 C421 1.414 . S
C425 C423 1.444 . S
C425 C430 1.385 . S
C426 C422 1.432 . S
C426 C423 1.317 . S
C426 H438 0.930 . S
C427 C429 1.392 . S
C427 C430 1.370 . S
C427 H439 0.931 . S
N428 C421 1.359 . S
N428 C429 1.327 . S
N428 Tb431 2.600 . S
C429 C427 1.392 . S
C429 N428 1.327 . S
C429 H436 0.930 . S
C430 C425 1.385 . S
C430 C427 1.370 . S
C430 H449 0.930 . S
Tb431 N428 2.600 . S
Tb431 N432 2.660 . S
Tb431 O465 2.362 . S
Tb431 O466 2.421 . S
Tb431 O470 2.546 . S
Tb431 O471 2.610 . S
Tb431 O473 2.320 . S
Tb431 O474 2.552 . S
Tb431 O475 2.413 . S
Tb431 C495 2.833 . S
N432 C424 1.360 . S
N432 Tb431 2.660 . S
N432 C433 1.305 . S
C433 N432 1.305 . S
C433 C435 1.407 . S
C433 H440 0.930 . S
C434 C422 1.410 . S
C434 C435 1.345 . S
C434 H442 0.930 . S
C435 C433 1.407 . S
C435 C434 1.345 . S
C435 H437 0.930 . S
H436 C429 0.930 . S
H437 C435 0.930 . S
H438 C426 0.930 . S
H439 C427 0.931 . S
H440 C433 0.930 . S
H441 C455 0.930 . S
H442 C434 0.930 . S
H443 C461 0.930 . S
H444 C452 0.930 . S
H445 C459 0.931 . S
H446 C423 0.929 . S
H447 C453 0.930 1_554 S
H448 C486 0.930 1_554 S
H449 C430 0.930 . S
H450 C485 0.929 . S
N451 Tb420 2.660 . S
N451 C452 1.305 . S
N451 C456 1.360 . S
C452 H444 0.930 . S
C452 N451 1.305 . S
C452 C455 1.407 . S
C453 H447 0.930 1_556 S
C453 C454 1.410 . S
C453 C455 1.345 . S
C454 C453 1.410 . S
C454 C456 1.417 . S
C454 C486 1.432 . S
C455 H441 0.930 . S
C455 C452 1.407 . S
C455 C453 1.345 . S
C456 N451 1.360 . S
C456 C454 1.417 . S
C456 C460 1.432 . S
H457 C462 0.930 . S
N458 Tb420 2.600 . S
N458 C460 1.359 . S
N458 C461 1.327 . S
C459 H445 0.931 . S
C459 C461 1.392 . S
C459 C462 1.370 . S
C460 C456 1.432 . S
C460 N458 1.359 . S
C460 C463 1.414 . S
C461 H443 0.930 . S
C461 N458 1.327 . S
C461 C459 1.392 . S
C462 H457 0.930 . S
C462 C459 1.370 . S
C462 C463 1.385 . S
C463 C460 1.414 . S
C463 C462 1.385 . S
C463 C485 1.444 . S
O464 Tb420 2.546 . S
O464 C484 1.251 . S
O465 Tb420 2.610 . S
O465 Tb431 2.362 . S
O465 C476 1.283 . S
O466 Tb431 2.421 . S
O466 C483 1.262 . S
O467 Tb420 2.320 . S
O467 C483 1.260 . S
O468 Tb420 2.552 . S
O468 C476 1.243 . S
O469 Tb420 2.413 . S
O469 C484 1.256 . S
O470 Tb431 2.546 . S
O470 C495 1.251 . S
O471 Tb420 2.362 . S
O471 Tb431 2.610 . S
O471 C487 1.283 . S
O472 Tb420 2.421 . S
O472 C494 1.262 . S
O473 Tb431 2.320 . S
O473 C494 1.260 . S
O474 Tb431 2.552 . S
O474 C487 1.243 . S
O475 Tb431 2.413 . S
O475 C495 1.256 . S
C476 O465 1.283 . S
C476 O468 1.243 . S
C477 C479 1.382 . S
C477 C481 1.393 . S
C477 C484 1.500 . S
C478 C479 1.400 . S
C478 C480 1.384 . S
C479 C477 1.382 . S
C479 C478 1.400 . S
C479 H496 0.930 . S
C480 C478 1.384 . S
C480 C482 1.392 . S
C480 H497 0.931 . S
C481 C477 1.393 . S
C481 C482 1.401 . S
C481 H498 0.930 . S
C482 C480 1.392 . S
C482 C481 1.401 . S
C482 H499 0.930 . S
C483 O466 1.262 . S
C483 O467 1.260 . S
C484 Tb420 2.833 . S
C484 O464 1.251 . S
C484 O469 1.256 . S
C484 C477 1.500 . S
C485 H450 0.929 . S
C485 C463 1.444 . S
C485 C486 1.317 . S
C486 H448 0.930 1_556 S
C486 C454 1.432 . S
C486 C485 1.317 . S
C487 O471 1.283 . S
C487 O474 1.243 . S
C488 C489 1.382 . S
C488 C492 1.393 . S
C488 C495 1.500 . S
C489 C488 1.382 . S
C489 C490 1.400 . S
C489 H500 0.930 . S
C490 C489 1.400 . S
C490 C491 1.384 . S
C491 C490 1.384 . S
C491 C493 1.392 . S
C491 H501 0.931 . S
C492 C488 1.393 . S
C492 C493 1.401 . S
C492 H502 0.930 . S
C493 C491 1.392 . S
C493 C492 1.401 . S
C493 H503 0.930 . S
C494 O472 1.262 . S
C494 O473 1.260 . S
C495 Tb431 2.833 . S
C495 O470 1.251 . S
C495 O475 1.256 . S
C495 C488 1.500 . S
H496 C479 0.930 . S
H497 C480 0.931 . S
H498 C481 0.930 . S
H499 C482 0.930 . S
H500 C489 0.930 . S
H501 C491 0.931 . S
H502 C492 0.930 . S
H503 C493 0.930 . S
Tb504 N535 2.660 . S
Tb504 N542 2.600 . S
Tb504 O548 2.546 . S
Tb504 O549 2.610 . S
Tb504 O551 2.320 . S
Tb504 O552 2.552 . S
Tb504 O553 2.413 . S
Tb504 O555 2.362 . S
Tb504 O556 2.421 . S
Tb504 C568 2.833 . S
C505 C508 1.432 . S
C505 C509 1.414 . S
C505 N512 1.359 . S
C506 C508 1.417 . S
C506 C510 1.432 . S
C506 C518 1.410 . S
C507 C509 1.444 . S
C507 C510 1.317 . S
C507 H530 0.929 . S
C508 C505 1.432 . S
C508 C506 1.417 . S
C508 N516 1.360 . S
C509 C505 1.414 . S
C509 C507 1.444 . S
C509 C514 1.385 . S
C510 C506 1.432 . S
C510 C507 1.317 . S
C510 H522 0.930 . S
C511 C513 1.392 . S
C511 C514 1.370 . S
C511 H523 0.931 . S
N512 C505 1.359 . S
N512 C513 1.327 . S
N512 Tb515 2.600 . S
C513 C511 1.392 . S
C513 N512 1.327 . S
C513 H520 0.930 . S
C514 C509 1.385 . S
C514 C511 1.370 . S
C514 H533 0.930 . S
Tb515 N512 2.600 . S
Tb515 N516 2.660 . S
Tb515 O549 2.362 . S
Tb515 O550 2.421 . S
Tb515 O554 2.546 . S
Tb515 O555 2.610 . S
Tb515 O557 2.320 . S
Tb515 O558 2.552 . S
Tb515 O559 2.413 . S
Tb515 C579 2.833 . S
N516 C508 1.360 . S
N516 Tb515 2.660 . S
N516 C517 1.305 . S
C517 N516 1.305 . S
C517 C519 1.407 . S
C517 H524 0.930 . S
C518 C506 1.410 . S
C518 C519 1.345 . S
C518 H526 0.930 . S
C519 C517 1.407 . S
C519 C518 1.345 . S
C519 H521 0.930 . S
H520 C513 0.930 . S
H521 C519 0.930 . S
H522 C510 0.930 . S
H523 C511 0.931 . S
H524 C517 0.930 . S
H525 C539 0.930 . S
H526 C518 0.930 . S
H527 C545 0.930 . S
H528 C536 0.930 . S
H529 C543 0.931 . S
H530 C507 0.929 . S
H531 C537 0.930 . S
H532 C570 0.930 . S
H533 C514 0.930 . S
H534 C569 0.929 1_554 S
N535 Tb504 2.660 . S
N535 C536 1.305 . S
N535 C540 1.360 . S
C536 H528 0.930 . S
C536 N535 1.305 . S
C536 C539 1.407 . S
C537 H531 0.930 . S
C537 C538 1.410 . S
C537 C539 1.345 . S
C538 C537 1.410 . S
C538 C540 1.417 . S
C538 C570 1.432 . S
C539 H525 0.930 . S
C539 C536 1.407 . S
C539 C537 1.345 . S
C540 N535 1.360 . S
C540 C538 1.417 . S
C540 C544 1.432 . S
H541 C546 0.930 1_554 S
N542 Tb504 2.600 . S
N542 C544 1.359 . S
N542 C545 1.327 . S
C543 H529 0.931 . S
C543 C545 1.392 . S
C543 C546 1.370 . S
C544 C540 1.432 . S
C544 N542 1.359 . S
C544 C547 1.414 . S
C545 H527 0.930 . S
C545 N542 1.327 . S
C545 C543 1.392 . S
C546 H541 0.930 1_556 S
C546 C543 1.370 . S
C546 C547 1.385 . S
C547 C544 1.414 . S
C547 C546 1.385 . S
C547 C569 1.444 . S
O548 Tb504 2.546 . S
O548 C568 1.251 . S
O549 Tb504 2.610 . S
O549 Tb515 2.362 . S
O549 C560 1.283 . S
O550 Tb515 2.421 . S
O550 C567 1.262 . S
O551 Tb504 2.320 . S
O551 C567 1.260 . S
O552 Tb504 2.552 . S
O552 C560 1.243 . S
O553 Tb504 2.413 . S
O553 C568 1.256 . S
O554 Tb515 2.546 . S
O554 C579 1.251 . S
O555 Tb504 2.362 . S
O555 Tb515 2.610 . S
O555 C571 1.283 . S
O556 Tb504 2.421 . S
O556 C578 1.262 . S
O557 Tb515 2.320 . S
O557 C578 1.260 . S
O558 Tb515 2.552 . S
O558 C571 1.243 . S
O559 Tb515 2.413 . S
O559 C579 1.256 . S
C560 O549 1.283 . S
C560 O552 1.243 . S
C561 C563 1.382 . S
C561 C565 1.393 . S
C561 C568 1.500 . S
C562 C563 1.400 . S
C562 C564 1.384 . S
C563 C561 1.382 . S
C563 C562 1.400 . S
C563 H580 0.930 . S
C564 C562 1.384 . S
C564 C566 1.392 . S
C564 H581 0.931 . S
C565 C561 1.393 . S
C565 C566 1.401 . S
C565 H582 0.930 . S
C566 C564 1.392 . S
C566 C565 1.401 . S
C566 H583 0.930 . S
C567 O550 1.262 . S
C567 O551 1.260 . S
C568 Tb504 2.833 . S
C568 O548 1.251 . S
C568 O553 1.256 . S
C568 C561 1.500 . S
C569 H534 0.929 1_556 S
C569 C547 1.444 . S
C569 C570 1.317 . S
C570 H532 0.930 . S
C570 C538 1.432 . S
C570 C569 1.317 . S
C571 O555 1.283 . S
C571 O558 1.243 . S
C572 C573 1.382 . S
C572 C576 1.393 . S
C572 C579 1.500 . S
C573 C572 1.382 . S
C573 C574 1.400 . S
C573 H584 0.930 . S
C574 C573 1.400 . S
C574 C575 1.384 . S
C575 C574 1.384 . S
C575 C577 1.392 . S
C575 H585 0.931 . S
C576 C572 1.393 . S
C576 C577 1.401 . S
C576 H586 0.930 . S
C577 C575 1.392 . S
C577 C576 1.401 . S
C577 H587 0.930 . S
C578 O556 1.262 . S
C578 O557 1.260 . S
C579 Tb515 2.833 . S
C579 O554 1.251 . S
C579 O559 1.256 . S
C579 C572 1.500 . S
H580 C563 0.930 . S
H581 C564 0.931 . S
H582 C565 0.930 . S
H583 C566 0.930 . S
H584 C573 0.930 . S
H585 C575 0.931 . S
H586 C576 0.930 . S
H587 C577 0.930 . S
Tb588 N619 2.660 . S
Tb588 N626 2.600 . S
Tb588 O632 2.546 . S
Tb588 O633 2.610 . S
Tb588 O635 2.320 . S
Tb588 O636 2.552 . S
Tb588 O637 2.413 . S
Tb588 O639 2.362 . S
Tb588 O640 2.421 . S
Tb588 C652 2.833 . S
C589 C592 1.432 . S
C589 C593 1.414 . S
C589 N596 1.359 . S
C590 C592 1.417 . S
C590 C594 1.432 . S
C590 C602 1.410 . S
C591 C593 1.444 . S
C591 C594 1.317 . S
C591 H614 0.929 . S
C592 C589 1.432 . S
C592 C590 1.417 . S
C592 N600 1.360 . S
C593 C589 1.414 . S
C593 C591 1.444 . S
C593 C598 1.385 . S
C594 C590 1.432 . S
C594 C591 1.317 . S
C594 H606 0.930 1_556 S
C595 C597 1.392 . S
C595 C598 1.370 . S
C595 H607 0.931 . S
N596 C589 1.359 . S
N596 C597 1.327 . S
N596 Tb599 2.600 . S
C597 C595 1.392 . S
C597 N596 1.327 . S
C597 H604 0.930 . S
C598 C593 1.385 . S
C598 C595 1.370 . S
C598 H617 0.930 . S
Tb599 N596 2.600 . S
Tb599 N600 2.660 . S
Tb599 O633 2.362 . S
Tb599 O634 2.421 . S
Tb599 O638 2.546 . S
Tb599 O639 2.610 . S
Tb599 O641 2.320 . S
Tb599 O642 2.552 . S
Tb599 O643 2.413 . S
Tb599 C663 2.833 . S
N600 C592 1.360 . S
N600 Tb599 2.660 . S
N600 C601 1.305 . S
C601 N600 1.305 . S
C601 C603 1.407 . S
C601 H608 0.930 . S
C602 C590 1.410 . S
C602 C603 1.345 . S
C602 H610 0.930 1_556 S
C603 C601 1.407 . S
C603 C602 1.345 . S
C603 H605 0.930 . S
H604 C597 0.930 . S
H605 C603 0.930 . S
H606 C594 0.930 1_554 S
H607 C595 0.931 . S
H608 C601 0.930 . S
H609 C623 0.930 . S
H610 C602 0.930 1_554 S
H611 C629 0.930 . S
H612 C620 0.930 . S
H613 C627 0.931 . S
H614 C591 0.929 . S
H615 C621 0.930 . S
H616 C654 0.930 . S
H617 C598 0.930 . S
H618 C653 0.929 . S
N619 Tb588 2.660 . S
N619 C620 1.305 . S
N619 C624 1.360 . S
C620 H612 0.930 . S
C620 N619 1.305 . S
C620 C623 1.407 . S
C621 H615 0.930 . S
C621 C622 1.410 . S
C621 C623 1.345 . S
C622 C621 1.410 . S
C622 C624 1.417 . S
C622 C654 1.432 . S
C623 H609 0.930 . S
C623 C620 1.407 . S
C623 C621 1.345 . S
C624 N619 1.360 . S
C624 C622 1.417 . S
C624 C628 1.432 . S
H625 C630 0.930 . S
N626 Tb588 2.600 . S
N626 C628 1.359 . S
N626 C629 1.327 . S
C627 H613 0.931 . S
C627 C629 1.392 . S
C627 C630 1.370 . S
C628 C624 1.432 . S
C628 N626 1.359 . S
C628 C631 1.414 . S
C629 H611 0.930 . S
C629 N626 1.327 . S
C629 C627 1.392 . S
C630 H625 0.930 . S
C630 C627 1.370 . S
C630 C631 1.385 . S
C631 C628 1.414 . S
C631 C630 1.385 . S
C631 C653 1.444 . S
O632 Tb588 2.546 . S
O632 C652 1.251 . S
O633 Tb588 2.610 . S
O633 Tb599 2.362 . S
O633 C644 1.283 . S
O634 Tb599 2.421 . S
O634 C651 1.262 . S
O635 Tb588 2.320 . S
O635 C651 1.260 . S
O636 Tb588 2.552 . S
O636 C644 1.243 . S
O637 Tb588 2.413 . S
O637 C652 1.256 . S
O638 Tb599 2.546 . S
O638 C663 1.251 . S
O639 Tb588 2.362 . S
O639 Tb599 2.610 . S
O639 C655 1.283 . S
O640 Tb588 2.421 . S
O640 C662 1.262 . S
O641 Tb599 2.320 . S
O641 C662 1.260 . S
O642 Tb599 2.552 . S
O642 C655 1.243 . S
O643 Tb599 2.413 . S
O643 C663 1.256 . S
C644 O633 1.283 . S
C644 O636 1.243 . S
C645 C647 1.382 . S
C645 C649 1.393 . S
C645 C652 1.500 . S
C646 C647 1.400 . S
C646 C648 1.384 . S
C647 C645 1.382 . S
C647 C646 1.400 . S
C647 H664 0.930 . S
C648 C646 1.384 . S
C648 C650 1.392 . S
C648 H665 0.931 . S
C649 C645 1.393 . S
C649 C650 1.401 . S
C649 H666 0.930 . S
C650 C648 1.392 . S
C650 C649 1.401 . S
C650 H667 0.930 . S
C651 O634 1.262 . S
C651 O635 1.260 . S
C652 Tb588 2.833 . S
C652 O632 1.251 . S
C652 O637 1.256 . S
C652 C645 1.500 . S
C653 H618 0.929 . S
C653 C631 1.444 . S
C653 C654 1.317 . S
C654 H616 0.930 . S
C654 C622 1.432 . S
C654 C653 1.317 . S
C655 O639 1.283 . S
C655 O642 1.243 . S
C656 C657 1.382 . S
C656 C660 1.393 . S
C656 C663 1.500 . S
C657 C656 1.382 . S
C657 C658 1.400 . S
C657 H668 0.930 . S
C658 C657 1.400 . S
C658 C659 1.384 . S
C659 C658 1.384 . S
C659 C661 1.392 . S
C659 H669 0.931 . S
C660 C656 1.393 . S
C660 C661 1.401 . S
C660 H670 0.930 . S
C661 C659 1.392 . S
C661 C660 1.401 . S
C661 H671 0.930 . S
C662 O640 1.262 . S
C662 O641 1.260 . S
C663 Tb599 2.833 . S
C663 O638 1.251 . S
C663 O643 1.256 . S
C663 C656 1.500 . S
H664 C647 0.930 . S
H665 C648 0.931 . S
H666 C649 0.930 . S
H667 C650 0.930 . S
H668 C657 0.930 . S
H669 C659 0.931 . S
H670 C660 0.930 . S
H671 C661 0.930 . S
Co672 O675 2.042 . S
Co672 O682 2.264 . S
Co672 O701 2.286 . S
Co672 O702 2.069 . S
Co672 O704 2.015 1_455 S
Co673 O675 2.122 . S
Co673 O681 2.073 . S
Co673 O682 2.327 . S
Co673 O683 1.976 1_455 S
Co674 O675 2.092 1_545 S
Co674 O677 2.082 1_455 S
Co674 O684 2.108 1_445 S
Co674 O685 2.145 . S
Co674 O689 2.114 . S
Co674 O703 2.142 1_445 S
O675 Co672 2.042 . S
O675 Co673 2.122 . S
O675 Co674 2.092 1_565 S
O675 H676 0.980 . S
H676 O675 0.980 . S
O677 Co674 2.082 1_655 S
O677 Co678 2.042 . S
O677 Co679 2.122 . S
O677 H680 0.980 . S
Co678 O677 2.042 . S
Co678 O686 2.286 . S
Co678 O687 2.069 . S
Co678 O688 2.015 1_655 S
Co678 O691 2.264 . S
Co679 O677 2.122 . S
Co679 O690 1.976 1_655 S
Co679 O691 2.327 . S
Co679 O692 2.073 . S
H680 O677 0.980 . S
O681 Co673 2.073 . S
O681 C696 1.245 . S
O682 Co672 2.264 . S
O682 Co673 2.327 . S
O682 C696 1.257 . S
O683 Co673 1.976 1_655 S
O683 C695 1.251 . S
O684 Co674 2.108 1_665 S
O684 C695 1.274 . S
O685 Co674 2.145 . S
O685 C698 1.246 . S
O686 Co678 2.286 . S
O686 C697 1.259 . S
O687 Co678 2.069 . S
O687 C697 1.289 . S
O688 Co678 2.015 1_455 S
O688 C698 1.257 . S
O689 Co674 2.114 . S
O689 C699 1.274 . S
O690 Co679 1.976 1_455 S
O690 C699 1.251 . S
O691 Co678 2.264 . S
O691 Co679 2.327 . S
O691 C700 1.257 . S
O692 Co679 2.073 . S
O692 C700 1.245 . S
C693 O701 1.259 . S
C693 O702 1.289 . S
C694 O703 1.246 . S
C694 O704 1.257 . S
C695 O683 1.251 . S
C695 O684 1.274 . S
C696 O681 1.245 . S
C696 O682 1.257 . S
C697 O686 1.259 . S
C697 O687 1.289 . S
C698 O685 1.246 . S
C698 O688 1.257 . S
C699 O689 1.274 . S
C699 O690 1.251 . S
C700 O691 1.257 . S
C700 O692 1.245 . S
O701 Co672 2.286 . S
O701 C693 1.259 . S
O702 Co672 2.069 . S
O702 C693 1.289 . S
O703 Co674 2.142 1_665 S
O703 C694 1.246 . S
O704 Co672 2.015 1_655 S
O704 C694 1.257 . S
Co705 O708 2.042 1_556 S
Co705 O715 2.264 1_556 S
Co705 O734 2.286 . S
Co705 O735 2.069 . S
Co705 O737 2.015 . S
Co706 O708 2.122 . S
Co706 O714 2.073 . S
Co706 O715 2.327 . S
Co706 O716 1.976 . S
Co707 O708 2.087 1_545 S
Co707 O710 2.087 1_554 S
Co707 O717 2.111 1_545 S
Co707 O718 2.143 . S
Co707 O722 2.111 1_554 S
Co707 O736 2.143 1_544 S
O708 Co705 2.042 1_554 S
O708 Co706 2.122 . S
O708 Co707 2.087 1_565 S
O708 H709 0.980 . S
H709 O708 0.980 . S
O710 Co707 2.087 1_556 S
O710 Co711 2.042 1_556 S
O710 Co712 2.122 . S
O710 H713 0.980 . S
Co711 O710 2.042 1_554 S
Co711 O719 2.286 . S
Co711 O720 2.069 . S
Co711 O721 2.015 . S
Co711 O724 2.264 1_554 S
Co712 O710 2.122 . S
Co712 O723 1.976 . S
Co712 O724 2.327 . S
Co712 O725 2.073 . S
H713 O710 0.980 . S
O714 Co706 2.073 . S
O714 C729 1.245 . S
O715 Co705 2.264 1_554 S
O715 Co706 2.327 . S
O715 C729 1.257 . S
O716 Co706 1.976 . S
O716 C728 1.251 . S
O717 Co707 2.111 1_565 S
O717 C728 1.274 . S
O718 Co707 2.143 . S
O718 C731 1.246 . S
O719 Co711 2.286 . S
O719 C730 1.259 . S
O720 Co711 2.069 . S
O720 C730 1.289 . S
O721 Co711 2.015 . S
O721 C731 1.257 . S
O722 Co707 2.111 1_556 S
O722 C732 1.274 . S
O723 Co712 1.976 . S
O723 C732 1.251 . S
O724 Co711 2.264 1_556 S
O724 Co712 2.327 . S
O724 C733 1.257 . S
O725 Co712 2.073 . S
O725 C733 1.245 . S
C726 O734 1.259 . S
C726 O735 1.289 . S
C727 O736 1.246 . S
C727 O737 1.257 . S
C728 O716 1.251 . S
C728 O717 1.274 . S
C729 O714 1.245 . S
C729 O715 1.257 . S
C730 O719 1.259 . S
C730 O720 1.289 . S
C731 O718 1.246 . S
C731 O721 1.257 . S
C732 O722 1.274 . S
C732 O723 1.251 . S
C733 O724 1.257 . S
C733 O725 1.245 . S
O734 Co705 2.286 . S
O734 C726 1.259 . S
O735 Co705 2.069 . S
O735 C726 1.289 . S
O736 Co707 2.143 1_566 S
O736 C727 1.246 . S
O737 Co705 2.015 . S
O737 C727 1.257 . S
Co738 O741 2.042 1_556 S
Co738 O748 2.264 1_556 S
Co738 O767 2.286 . S
Co738 O768 2.069 . S
Co738 O770 2.015 1_455 S
Co739 O741 2.122 . S
Co739 O747 2.073 . S
Co739 O748 2.327 . S
Co739 O749 1.976 1_455 S
Co740 O741 2.092 . S
Co740 O743 2.082 1_454 S
Co740 O750 2.108 1_455 S
Co740 O751 2.145 . S
Co740 O755 2.114 1_554 S
Co740 O769 2.142 1_454 S
O741 Co738 2.042 1_554 S
O741 Co739 2.122 . S
O741 Co740 2.092 . S
O741 H742 0.980 . S
H742 O741 0.980 . S
O743 Co740 2.082 1_656 S
O743 Co744 2.042 1_556 S
O743 Co745 2.122 . S
O743 H746 0.980 . S
Co744 O743 2.042 1_554 S
Co744 O752 2.286 . S
Co744 O753 2.069 . S
Co744 O754 2.015 1_655 S
Co744 O757 2.264 1_554 S
Co745 O743 2.122 . S
Co745 O756 1.976 1_655 S
Co745 O757 2.327 . S
Co745 O758 2.073 . S
H746 O743 0.980 . S
O747 Co739 2.073 . S
O747 C762 1.245 . S
O748 Co738 2.264 1_554 S
O748 Co739 2.327 . S
O748 C762 1.257 . S
O749 Co739 1.976 1_655 S
O749 C761 1.251 . S
O750 Co740 2.108 1_655 S
O750 C761 1.274 . S
O751 Co740 2.145 . S
O751 C764 1.246 . S
O752 Co744 2.286 . S
O752 C763 1.259 . S
O753 Co744 2.069 . S
O753 C763 1.289 . S
O754 Co744 2.015 1_455 S
O754 C764 1.257 . S
O755 Co740 2.114 1_556 S
O755 C765 1.274 . S
O756 Co745 1.976 1_455 S
O756 C765 1.251 . S
O757 Co744 2.264 1_556 S
O757 Co745 2.327 . S
O757 C766 1.257 . S
O758 Co745 2.073 . S
O758 C766 1.245 . S
C759 O767 1.259 . S
C759 O768 1.289 . S
C760 O769 1.246 . S
C760 O770 1.257 . S
C761 O749 1.251 . S
C761 O750 1.274 . S
C762 O747 1.245 . S
C762 O748 1.257 . S
C763 O752 1.259 . S
C763 O753 1.289 . S
C764 O751 1.246 . S
C764 O754 1.257 . S
C765 O755 1.274 . S
C765 O756 1.251 . S
C766 O757 1.257 . S
C766 O758 1.245 . S
O767 Co738 2.286 . S
O767 C759 1.259 . S
O768 Co738 2.069 . S
O768 C759 1.289 . S
O769 Co740 2.142 1_656 S
O769 C760 1.246 . S
O770 Co738 2.015 1_655 S
O770 C760 1.257 . S
Co771 O774 2.042 1_556 S
Co771 O781 2.264 1_556 S
Co771 O800 2.286 . S
Co771 O801 2.069 . S
Co771 O803 2.015 . S
Co772 O774 2.122 . S
Co772 O780 2.073 . S
Co772 O781 2.327 . S
Co772 O782 1.976 . S
Co773 O774 2.087 . S
Co773 O776 2.087 1_554 S
Co773 O783 2.111 . S
Co773 O784 2.143 . S
Co773 O788 2.111 1_554 S
Co773 O802 2.143 1_554 S
O774 Co771 2.042 1_554 S
O774 Co772 2.122 . S
O774 Co773 2.087 . S
O774 H775 0.980 . S
H775 O774 0.980 . S
O776 Co773 2.087 1_556 S
O776 Co777 2.042 1_556 S
O776 Co778 2.122 . S
O776 H779 0.980 . S
Co777 O776 2.042 1_554 S
Co777 O785 2.286 . S
Co777 O786 2.069 . S
Co777 O787 2.015 . S
Co777 O790 2.264 1_554 S
Co778 O776 2.122 . S
Co778 O789 1.976 . S
Co778 O790 2.327 . S
Co778 O791 2.073 . S
H779 O776 0.980 . S
O780 Co772 2.073 . S
O780 C795 1.245 . S
O781 Co771 2.264 1_554 S
O781 Co772 2.327 . S
O781 C795 1.257 . S
O782 Co772 1.976 . S
O782 C794 1.251 . S
O783 Co773 2.111 . S
O783 C794 1.274 . S
O784 Co773 2.143 . S
O784 C797 1.246 . S
O785 Co777 2.286 . S
O785 C796 1.259 . S
O786 Co777 2.069 . S
O786 C796 1.289 . S
O787 Co777 2.015 . S
O787 C797 1.257 . S
O788 Co773 2.111 1_556 S
O788 C798 1.274 . S
O789 Co778 1.976 . S
O789 C798 1.251 . S
O790 Co777 2.264 1_556 S
O790 Co778 2.327 . S
O790 C799 1.257 . S
O791 Co778 2.073 . S
O791 C799 1.245 . S
C792 O800 1.259 . S
C792 O801 1.289 . S
C793 O802 1.246 . S
C793 O803 1.257 . S
C794 O782 1.251 . S
C794 O783 1.274 . S
C795 O780 1.245 . S
C795 O781 1.257 . S
C796 O785 1.259 . S
C796 O786 1.289 . S
C797 O784 1.246 . S
C797 O787 1.257 . S
C798 O788 1.274 . S
C798 O789 1.251 . S
C799 O790 1.257 . S
C799 O791 1.245 . S
O800 Co771 2.286 . S
O800 C792 1.259 . S
O801 Co771 2.069 . S
O801 C792 1.289 . S
O802 Co773 2.143 1_556 S
O802 C793 1.246 . S
O803 Co771 2.015 . S
O803 C793 1.257 . S
Co804 O807 2.042 . S
Co804 O814 2.264 . S
Co804 O833 2.286 . S
Co804 O834 2.069 . S
Co804 O836 2.015 . S
Co805 O807 2.122 . S
Co805 O813 2.073 . S
Co805 O814 2.327 . S
Co805 O815 1.976 . S
Co806 O807 2.092 . S
Co806 O809 2.082 1_455 S
Co806 O816 2.113 . S
Co806 O817 2.141 1_455 S
Co806 O821 2.110 1_455 S
Co806 O835 2.146 . S
O807 Co804 2.042 . S
O807 Co805 2.122 . S
O807 Co806 2.092 . S
O807 H808 0.980 . S
H808 O807 0.980 . S
O809 Co806 2.082 1_655 S
O809 Co810 2.042 . S
O809 Co811 2.122 . S
O809 H812 0.980 . S
Co810 O809 2.042 . S
Co810 O818 2.286 . S
Co810 O819 2.069 . S
Co810 O820 2.015 . S
Co810 O823 2.264 . S
Co811 O809 2.122 . S
Co811 O822 1.976 . S
Co811 O823 2.327 . S
Co811 O824 2.073 . S
H812 O809 0.980 . S
O813 Co805 2.073 . S
O813 C828 1.245 . S
O814 Co804 2.264 . S
O814 Co805 2.327 . S
O814 C828 1.257 . S
O815 Co805 1.976 . S
O815 C827 1.251 . S
O816 Co806 2.113 . S
O816 C827 1.274 . S
O817 Co806 2.141 1_655 S
O817 C830 1.246 . S
O818 Co810 2.286 . S
O818 C829 1.259 . S
O819 Co810 2.069 . S
O819 C829 1.289 . S
O820 Co810 2.015 . S
O820 C830 1.257 . S
O821 Co806 2.110 1_655 S
O821 C831 1.274 . S
O822 Co811 1.976 . S
O822 C831 1.251 . S
O823 Co810 2.264 . S
O823 Co811 2.327 . S
O823 C832 1.257 . S
O824 Co811 2.073 . S
O824 C832 1.245 . S
C825 O833 1.259 . S
C825 O834 1.289 . S
C826 O835 1.246 . S
C826 O836 1.257 . S
C827 O815 1.251 . S
C827 O816 1.274 . S
C828 O813 1.245 . S
C828 O814 1.257 . S
C829 O818 1.259 . S
C829 O819 1.289 . S
C830 O817 1.246 . S
C830 O820 1.257 . S
C831 O821 1.274 . S
C831 O822 1.251 . S
C832 O823 1.257 . S
C832 O824 1.245 . S
O833 Co804 2.286 . S
O833 C825 1.259 . S
O834 Co804 2.069 . S
O834 C825 1.289 . S
O835 Co806 2.146 . S
O835 C826 1.246 . S
O836 Co804 2.015 . S
O836 C826 1.257 . S
Co837 O840 2.042 . S
Co837 O847 2.264 . S
Co837 O866 2.286 . S
Co837 O867 2.069 . S
Co837 O869 2.015 1_565 S
Co838 O840 2.122 . S
Co838 O846 2.073 . S
Co838 O847 2.327 . S
Co838 O848 1.976 1_565 S
Co839 O840 2.087 1_545 S
Co839 O842 2.087 . S
Co839 O849 2.111 . S
Co839 O850 2.143 1_545 S
Co839 O854 2.111 1_545 S
Co839 O868 2.143 . S
O840 Co837 2.042 . S
O840 Co838 2.122 . S
O840 Co839 2.087 1_565 S
O840 H841 0.980 . S
H841 O840 0.980 . S
O842 Co839 2.087 . S
O842 Co843 2.042 . S
O842 Co844 2.122 . S
O842 H845 0.980 . S
Co843 O842 2.042 . S
Co843 O851 2.286 . S
Co843 O852 2.069 . S
Co843 O853 2.015 1_545 S
Co843 O856 2.264 . S
Co844 O842 2.122 . S
Co844 O855 1.976 1_545 S
Co844 O856 2.327 . S
Co844 O857 2.073 . S
H845 O842 0.980 . S
O846 Co838 2.073 . S
O846 C861 1.245 . S
O847 Co837 2.264 . S
O847 Co838 2.327 . S
O847 C861 1.257 . S
O848 Co838 1.976 1_545 S
O848 C860 1.251 . S
O849 Co839 2.111 . S
O849 C860 1.274 . S
O850 Co839 2.143 1_565 S
O850 C863 1.246 . S
O851 Co843 2.286 . S
O851 C862 1.259 . S
O852 Co843 2.069 . S
O852 C862 1.289 . S
O853 Co843 2.015 1_565 S
O853 C863 1.257 . S
O854 Co839 2.111 1_565 S
O854 C864 1.274 . S
O855 Co844 1.976 1_565 S
O855 C864 1.251 . S
O856 Co843 2.264 . S
O856 Co844 2.327 . S
O856 C865 1.257 . S
O857 Co844 2.073 . S
O857 C865 1.245 . S
C858 O866 1.259 . S
C858 O867 1.289 . S
C859 O868 1.246 . S
C859 O869 1.257 . S
C860 O848 1.251 . S
C860 O849 1.274 . S
C861 O846 1.245 . S
C861 O847 1.257 . S
C862 O851 1.259 . S
C862 O852 1.289 . S
C863 O850 1.246 . S
C863 O853 1.257 . S
C864 O854 1.274 . S
C864 O855 1.251 . S
C865 O856 1.257 . S
C865 O857 1.245 . S
O866 Co837 2.286 . S
O866 C858 1.259 . S
O867 Co837 2.069 . S
O867 C858 1.289 . S
O868 Co839 2.143 . S
O868 C859 1.246 . S
O869 Co837 2.015 1_545 S
O869 C859 1.257 . S
C870 C871 1.387 . S
C870 H874 0.950 . S
C870 C879 1.390 . S
C871 C870 1.387 . S
C871 C873 1.387 . S
H872 C879 0.950 . S
C873 C871 1.387 . S
C873 C875 1.390 . S
C873 H877 0.950 . S
H874 C870 0.950 . S
C875 C873 1.390 . S
C875 C876 1.387 . S
C875 H878 0.950 . S
C876 C875 1.387 . S
C876 C879 1.387 . S
H877 C873 0.950 . S
H878 C875 0.950 . S
C879 C870 1.390 . S
C879 H872 0.950 . S
C879 C876 1.387 . S
C880 C881 1.387 . S
C880 H884 0.950 . S
C880 C889 1.390 . S
C881 C880 1.387 . S
C881 C883 1.387 . S
H882 C889 0.950 . S
C883 C881 1.387 . S
C883 C885 1.390 . S
C883 H887 0.950 . S
H884 C880 0.950 . S
C885 C883 1.390 . S
C885 C886 1.387 . S
C885 H888 0.950 . S
C886 C885 1.387 . S
C886 C889 1.387 . S
H887 C883 0.950 . S
H888 C885 0.950 . S
C889 C880 1.390 . S
C889 H882 0.950 . S
C889 C886 1.387 . S
C890 C891 1.387 . S
C890 H894 0.950 . S
C890 C899 1.390 . S
C891 C890 1.387 . S
C891 C893 1.387 . S
H892 C899 0.950 . S
C893 C891 1.387 . S
C893 C895 1.390 . S
C893 H897 0.950 . S
H894 C890 0.950 . S
C895 C893 1.390 . S
C895 C896 1.387 . S
C895 H898 0.950 . S
C896 C895 1.387 . S
C896 C899 1.387 . S
H897 C893 0.950 . S
H898 C895 0.950 . S
C899 C890 1.390 . S
C899 H892 0.950 . S
C899 C896 1.387 . S
C900 C901 1.387 . S
C900 H904 0.950 . S
C900 C909 1.390 . S
C901 C900 1.387 . S
C901 C903 1.387 . S
H902 C909 0.950 . S
C903 C901 1.387 . S
C903 C905 1.390 . S
C903 H907 0.950 . S
H904 C900 0.950 . S
C905 C903 1.390 . S
C905 C906 1.387 . S
C905 H908 0.950 . S
C906 C905 1.387 . S
C906 C909 1.387 . S
H907 C903 0.950 . S
H908 C905 0.950 . S
C909 C900 1.390 . S
C909 H902 0.950 . S
C909 C906 1.387 . S
C910 C911 1.387 . S
C910 H914 0.950 . S
C910 C919 1.390 . S
C911 C910 1.387 . S
C911 C913 1.387 . S
H912 C919 0.950 . S
C913 C911 1.387 . S
C913 C915 1.390 . S
C913 H917 0.950 . S
H914 C910 0.950 . S
C915 C913 1.390 . S
C915 C916 1.387 . S
C915 H918 0.950 . S
C916 C915 1.387 . S
C916 C919 1.387 . S
H917 C913 0.950 . S
H918 C915 0.950 . S
C919 C910 1.390 . S
C919 H912 0.950 . S
C919 C916 1.387 . S
C920 C921 1.387 . S
C920 H924 0.950 . S
C920 C929 1.390 . S
C921 C920 1.387 . S
C921 C923 1.387 . S
H922 C929 0.950 . S
C923 C921 1.387 . S
C923 C925 1.390 . S
C923 H927 0.950 . S
H924 C920 0.950 . S
C925 C923 1.390 . S
C925 C926 1.387 . S
C925 H928 0.950 . S
C926 C925 1.387 . S
C926 C929 1.387 . S
H927 C923 0.950 . S
H928 C925 0.950 . S
C929 C920 1.390 . S
C929 H922 0.950 . S
C929 C926 1.387 . S
C930 C931 1.387 . S
C930 H934 0.950 . S
C930 C939 1.390 . S
C931 C930 1.387 . S
C931 C933 1.387 . S
H932 C939 0.950 . S
C933 C931 1.387 . S
C933 C935 1.390 . S
C933 H937 0.950 . S
H934 C930 0.950 . S
C935 C933 1.390 . S
C935 C936 1.387 . S
C935 H938 0.950 . S
C936 C935 1.387 . S
C936 C939 1.387 . S
H937 C933 0.950 . S
H938 C935 0.950 . S
C939 C930 1.390 . S
C939 H932 0.950 . S
C939 C936 1.387 . S
C940 C941 1.387 . S
C940 H944 0.950 . S
C940 C949 1.390 . S
C941 C940 1.387 . S
C941 C943 1.387 . S
H942 C949 0.950 . S
C943 C941 1.387 . S
C943 C945 1.390 . S
C943 H947 0.950 . S
H944 C940 0.950 . S
C945 C943 1.390 . S
C945 C946 1.387 . S
C945 H948 0.950 . S
C946 C945 1.387 . S
C946 C949 1.387 . S
H947 C943 0.950 . S
H948 C945 0.950 . S
C949 C940 1.390 . S
C949 H942 0.950 . S
C949 C946 1.387 . S
C950 C951 1.387 . S
C950 H954 0.950 . S
C950 C959 1.390 . S
C951 C950 1.387 . S
C951 C953 1.387 . S
H952 C959 0.950 1_556 S
C953 C951 1.387 . S
C953 C955 1.390 . S
C953 H957 0.950 . S
H954 C950 0.950 . S
C955 C953 1.390 . S
C955 C956 1.387 . S
C955 H958 0.950 . S
C956 C955 1.387 . S
C956 C959 1.387 . S
H957 C953 0.950 . S
H958 C955 0.950 . S
C959 C950 1.390 . S
C959 H952 0.950 1_554 S
C959 C956 1.387 . S
C960 C961 1.387 . S
C960 H964 0.950 . S
C960 C969 1.390 . S
C961 C960 1.387 . S
C961 C963 1.387 . S
H962 C969 0.950 . S
C963 C961 1.387 . S
C963 C965 1.390 . S
C963 H967 0.950 . S
H964 C960 0.950 . S
C965 C963 1.390 . S
C965 C966 1.387 . S
C965 H968 0.950 . S
C966 C965 1.387 . S
C966 C969 1.387 . S
H967 C963 0.950 . S
H968 C965 0.950 . S
C969 C960 1.390 . S
C969 H962 0.950 . S
C969 C966 1.387 . S
C970 C971 1.387 . S
C970 H974 0.950 . S
C970 C979 1.390 . S
C971 C970 1.387 . S
C971 C973 1.387 . S
H972 C979 0.950 . S
C973 C971 1.387 . S
C973 C975 1.390 . S
C973 H977 0.950 . S
H974 C970 0.950 . S
C975 C973 1.390 . S
C975 C976 1.387 . S
C975 H978 0.950 . S
C976 C975 1.387 . S
C976 C979 1.387 . S
H977 C973 0.950 . S
H978 C975 0.950 . S
C979 C970 1.390 . S
C979 H972 0.950 . S
C979 C976 1.387 . S
C980 C981 1.387 . S
C980 H984 0.950 . S
C980 C989 1.390 . S
C981 C980 1.387 . S
C981 C983 1.387 . S
H982 C989 0.950 . S
C983 C981 1.387 . S
C983 C985 1.390 . S
C983 H987 0.950 . S
H984 C980 0.950 . S
C985 C983 1.390 . S
C985 C986 1.387 . S
C985 H988 0.950 . S
C986 C985 1.387 . S
C986 C989 1.387 . S
H987 C983 0.950 . S
H988 C985 0.950 . S
C989 C980 1.390 . S
C989 H982 0.950 . S
C989 C986 1.387 . S
C990 C991 1.387 . S
C990 H994 0.950 . S
C990 C999 1.390 . S
C991 C990 1.387 . S
C991 C993 1.387 . S
H992 C999 0.950 . S
C993 C991 1.387 . S
C993 C995 1.390 . S
C993 H997 0.950 . S
H994 C990 0.950 . S
C995 C993 1.390 . S
C995 C996 1.387 . S
C995 H998 0.950 . S
C996 C995 1.387 . S
C996 C999 1.387 . S
H997 C993 0.950 . S
H998 C995 0.950 . S
C999 C990 1.390 . S
C999 H992 0.950 . S
C999 C996 1.387 . S
C1000 C1001 1.387 . S
C1000 H1004 0.950 . S
C1000 C1009 1.390 . S
C1001 C1000 1.387 . S
C1001 C1003 1.387 . S
H1002 C1009 0.950 . S
C1003 C1001 1.387 . S
C1003 C1005 1.390 . S
C1003 H1007 0.950 . S
H1004 C1000 0.950 . S
C1005 C1003 1.390 . S
C1005 C1006 1.387 . S
C1005 H1008 0.950 1_556 S
C1006 C1005 1.387 . S
C1006 C1009 1.387 . S
H1007 C1003 0.950 . S
H1008 C1005 0.950 1_554 S
C1009 C1000 1.390 . S
C1009 H1002 0.950 . S
C1009 C1006 1.387 . S
C1010 C1011 1.387 . S
C1010 H1014 0.950 . S
C1010 C1019 1.390 . S
C1011 C1010 1.387 . S
C1011 C1013 1.387 . S
H1012 C1019 0.950 . S
C1013 C1011 1.387 . S
C1013 C1015 1.390 . S
C1013 H1017 0.950 . S
H1014 C1010 0.950 . S
C1015 C1013 1.390 . S
C1015 C1016 1.387 . S
C1015 H1018 0.950 . S
C1016 C1015 1.387 . S
C1016 C1019 1.387 . S
H1017 C1013 0.950 . S
H1018 C1015 0.950 . S
C1019 C1010 1.390 . S
C1019 H1012 0.950 . S
C1019 C1016 1.387 . S
C1020 C1021 1.387 . S
C1020 H1024 0.950 . S
C1020 C1029 1.390 . S
C1021 C1020 1.387 . S
C1021 C1023 1.387 . S
H1022 C1029 0.950 . S
C1023 C1021 1.387 . S
C1023 C1025 1.390 . S
C1023 H1027 0.950 . S
H1024 C1020 0.950 . S
C1025 C1023 1.390 . S
C1025 C1026 1.387 . S
C1025 H1028 0.950 . S
C1026 C1025 1.387 . S
C1026 C1029 1.387 . S
H1027 C1023 0.950 . S
H1028 C1025 0.950 . S
C1029 C1020 1.390 . S
C1029 H1022 0.950 . S
C1029 C1026 1.387 . S
C1030 C1031 1.387 . S
C1030 H1034 0.950 . S
C1030 C1039 1.390 . S
C1031 C1030 1.387 . S
C1031 C1033 1.387 . S
H1032 C1039 0.950 . S
C1033 C1031 1.387 . S
C1033 C1035 1.390 . S
C1033 H1037 0.950 . S
H1034 C1030 0.950 . S
C1035 C1033 1.390 . S
C1035 C1036 1.387 . S
C1035 H1038 0.950 . S
C1036 C1035 1.387 . S
C1036 C1039 1.387 . S
H1037 C1033 0.950 . S
H1038 C1035 0.950 . S
C1039 C1030 1.390 . S
C1039 H1032 0.950 . S
C1039 C1036 1.387 . S
C1040 C1041 1.387 . S
C1040 H1044 0.950 . S
C1040 C1049 1.390 . S
C1041 C1040 1.387 . S
C1041 C1043 1.387 . S
H1042 C1049 0.950 . S
C1043 C1041 1.387 . S
C1043 C1045 1.390 . S
C1043 H1047 0.950 . S
H1044 C1040 0.950 . S
C1045 C1043 1.390 . S
C1045 C1046 1.387 . S
C1045 H1048 0.950 . S
C1046 C1045 1.387 . S
C1046 C1049 1.387 . S
H1047 C1043 0.950 . S
H1048 C1045 0.950 . S
C1049 C1040 1.390 . S
C1049 H1042 0.950 . S
C1049 C1046 1.387 . S
C1050 C1051 1.387 . S
C1050 H1054 0.950 . S
C1050 C1059 1.390 . S
C1051 C1050 1.387 . S
C1051 C1053 1.387 . S
H1052 C1059 0.950 . S
C1053 C1051 1.387 . S
C1053 C1055 1.390 . S
C1053 H1057 0.950 . S
H1054 C1050 0.950 . S
C1055 C1053 1.390 . S
C1055 C1056 1.387 . S
C1055 H1058 0.950 . S
C1056 C1055 1.387 . S
C1056 C1059 1.387 . S
H1057 C1053 0.950 . S
H1058 C1055 0.950 . S
C1059 C1050 1.390 . S
C1059 H1052 0.950 . S
C1059 C1056 1.387 . S
C1060 C1061 1.387 . S
C1060 H1064 0.950 . S
C1060 C1069 1.390 . S
C1061 C1060 1.387 . S
C1061 C1063 1.387 . S
H1062 C1069 0.950 . S
C1063 C1061 1.387 . S
C1063 C1065 1.390 . S
C1063 H1067 0.950 . S
H1064 C1060 0.950 . S
C1065 C1063 1.390 . S
C1065 C1066 1.387 . S
C1065 H1068 0.950 . S
C1066 C1065 1.387 . S
C1066 C1069 1.387 . S
H1067 C1063 0.950 . S
H1068 C1065 0.950 . S
C1069 C1060 1.390 . S
C1069 H1062 0.950 . S
C1069 C1066 1.387 . S
C1070 C1071 1.387 . S
C1070 H1074 0.950 . S
C1070 C1079 1.390 . S
C1071 C1070 1.387 . S
C1071 C1073 1.387 . S
H1072 C1079 0.950 . S
C1073 C1071 1.387 . S
C1073 C1075 1.390 . S
C1073 H1077 0.950 . S
H1074 C1070 0.950 . S
C1075 C1073 1.390 . S
C1075 C1076 1.387 . S
C1075 H1078 0.950 . S
C1076 C1075 1.387 . S
C1076 C1079 1.387 . S
H1077 C1073 0.950 . S
H1078 C1075 0.950 . S
C1079 C1070 1.390 . S
C1079 H1072 0.950 . S
C1079 C1076 1.387 . S
C1080 C1081 1.387 . S
C1080 H1084 0.950 . S
C1080 C1089 1.390 . S
C1081 C1080 1.387 . S
C1081 C1083 1.387 . S
H1082 C1089 0.950 1_556 S
C1083 C1081 1.387 . S
C1083 C1085 1.390 . S
C1083 H1087 0.950 . S
H1084 C1080 0.950 . S
C1085 C1083 1.390 . S
C1085 C1086 1.387 . S
C1085 H1088 0.950 . S
C1086 C1085 1.387 . S
C1086 C1089 1.387 . S
H1087 C1083 0.950 . S
H1088 C1085 0.950 . S
C1089 C1080 1.390 . S
C1089 H1082 0.950 1_554 S
C1089 C1086 1.387 . S
C1090 C1091 1.387 . S
C1090 H1094 0.950 . S
C1090 C1099 1.390 . S
C1091 C1090 1.387 . S
C1091 C1093 1.387 . S
H1092 C1099 0.950 . S
C1093 C1091 1.387 . S
C1093 C1095 1.390 . S
C1093 H1097 0.950 . S
H1094 C1090 0.950 . S
C1095 C1093 1.390 . S
C1095 C1096 1.387 . S
C1095 H1098 0.950 . S
C1096 C1095 1.387 . S
C1096 C1099 1.387 . S
H1097 C1093 0.950 . S
H1098 C1095 0.950 . S
C1099 C1090 1.390 . S
C1099 H1092 0.950 . S
C1099 C1096 1.387 . S
C1100 C1101 1.387 . S
C1100 H1104 0.950 . S
C1100 C1109 1.390 . S
C1101 C1100 1.387 . S
C1101 C1103 1.387 . S
H1102 C1109 0.950 . S
C1103 C1101 1.387 . S
C1103 C1105 1.390 . S
C1103 H1107 0.950 . S
H1104 C1100 0.950 . S
C1105 C1103 1.390 . S
C1105 C1106 1.387 . S
C1105 H1108 0.950 . S
C1106 C1105 1.387 . S
C1106 C1109 1.387 . S
H1107 C1103 0.950 . S
H1108 C1105 0.950 . S
C1109 C1100 1.390 . S
C1109 H1102 0.950 . S
C1109 C1106 1.387 . S
C1110 C1111 1.387 . S
C1110 H1114 0.950 . S
C1110 C1119 1.390 . S
C1111 C1110 1.387 . S
C1111 C1113 1.387 . S
H1112 C1119 0.950 . S
C1113 C1111 1.387 . S
C1113 C1115 1.390 . S
C1113 H1117 0.950 . S
H1114 C1110 0.950 . S
C1115 C1113 1.390 . S
C1115 C1116 1.387 . S
C1115 H1118 0.950 . S
C1116 C1115 1.387 . S
C1116 C1119 1.387 . S
H1117 C1113 0.950 . S
H1118 C1115 0.950 . S
C1119 C1110 1.390 . S
C1119 H1112 0.950 . S
C1119 C1116 1.387 . S
C1120 C1121 1.387 . S
C1120 H1124 0.950 . S
C1120 C1129 1.390 . S
C1121 C1120 1.387 . S
C1121 C1123 1.387 . S
H1122 C1129 0.950 . S
C1123 C1121 1.387 . S
C1123 C1125 1.390 . S
C1123 H1127 0.950 1_556 S
H1124 C1120 0.950 . S
C1125 C1123 1.390 . S
C1125 C1126 1.387 . S
C1125 H1128 0.950 . S
C1126 C1125 1.387 . S
C1126 C1129 1.387 . S
H1127 C1123 0.950 1_554 S
H1128 C1125 0.950 . S
C1129 C1120 1.390 . S
C1129 H1122 0.950 . S
C1129 C1126 1.387 . S
C1130 C1131 1.387 . S
C1130 H1134 0.950 . S
C1130 C1139 1.390 . S
C1131 C1130 1.387 . S
C1131 C1133 1.387 . S
H1132 C1139 0.950 . S
C1133 C1131 1.387 . S
C1133 C1135 1.390 . S
C1133 H1137 0.950 . S
H1134 C1130 0.950 . S
C1135 C1133 1.390 . S
C1135 C1136 1.387 . S
C1135 H1138 0.950 . S
C1136 C1135 1.387 . S
C1136 C1139 1.387 . S
H1137 C1133 0.950 . S
H1138 C1135 0.950 . S
C1139 C1130 1.390 . S
C1139 H1132 0.950 . S
C1139 C1136 1.387 . S
C1140 C1141 1.387 . S
C1140 H1144 0.950 . S
C1140 C1149 1.390 . S
C1141 C1140 1.387 . S
C1141 C1143 1.387 . S
H1142 C1149 0.950 . S
C1143 C1141 1.387 . S
C1143 C1145 1.390 . S
C1143 H1147 0.950 . S
H1144 C1140 0.950 . S
C1145 C1143 1.390 . S
C1145 C1146 1.387 . S
C1145 H1148 0.950 . S
C1146 C1145 1.387 . S
C1146 C1149 1.387 . S
H1147 C1143 0.950 . S
H1148 C1145 0.950 . S
C1149 C1140 1.390 . S
C1149 H1142 0.950 . S
C1149 C1146 1.387 . S
C1150 C1151 1.387 . S
C1150 H1154 0.950 . S
C1150 C1159 1.390 . S
C1151 C1150 1.387 . S
C1151 C1153 1.387 . S
H1152 C1159 0.950 . S
C1153 C1151 1.387 . S
C1153 C1155 1.390 . S
C1153 H1157 0.950 1_554 S
H1154 C1150 0.950 . S
C1155 C1153 1.390 . S
C1155 C1156 1.387 . S
C1155 H1158 0.950 . S
C1156 C1155 1.387 . S
C1156 C1159 1.387 . S
H1157 C1153 0.950 1_556 S
H1158 C1155 0.950 . S
C1159 C1150 1.390 . S
C1159 H1152 0.950 . S
C1159 C1156 1.387 . S
C1160 C1161 1.387 . S
C1160 H1164 0.950 . S
C1160 C1169 1.390 . S
C1161 C1160 1.387 . S
C1161 C1163 1.387 . S
H1162 C1169 0.950 . S
C1163 C1161 1.387 . S
C1163 C1165 1.390 . S
C1163 H1167 0.950 . S
H1164 C1160 0.950 . S
C1165 C1163 1.390 . S
C1165 C1166 1.387 . S
C1165 H1168 0.950 . S
C1166 C1165 1.387 . S
C1166 C1169 1.387 . S
H1167 C1163 0.950 . S
H1168 C1165 0.950 . S
C1169 C1160 1.390 . S
C1169 H1162 0.950 . S
C1169 C1166 1.387 . S
C1170 C1171 1.387 . S
C1170 H1174 0.950 . S
C1170 C1179 1.390 . S
C1171 C1170 1.387 . S
C1171 C1173 1.387 . S
H1172 C1179 0.950 1_556 S
C1173 C1171 1.387 . S
C1173 C1175 1.390 . S
C1173 H1177 0.950 . S
H1174 C1170 0.950 . S
C1175 C1173 1.390 . S
C1175 C1176 1.387 . S
C1175 H1178 0.950 . S
C1176 C1175 1.387 . S
C1176 C1179 1.387 . S
H1177 C1173 0.950 . S
H1178 C1175 0.950 . S
C1179 C1170 1.390 . S
C1179 H1172 0.950 1_554 S
C1179 C1176 1.387 . S
C1180 C1181 1.387 . S
C1180 H1184 0.950 . S
C1180 C1189 1.390 . S
C1181 C1180 1.387 . S
C1181 C1183 1.387 . S
H1182 C1189 0.950 . S
C1183 C1181 1.387 . S
C1183 C1185 1.390 . S
C1183 H1187 0.950 . S
H1184 C1180 0.950 . S
C1185 C1183 1.390 . S
C1185 C1186 1.387 . S
C1185 H1188 0.950 . S
C1186 C1185 1.387 . S
C1186 C1189 1.387 . S
H1187 C1183 0.950 . S
H1188 C1185 0.950 . S
C1189 C1180 1.390 . S
C1189 H1182 0.950 . S
C1189 C1186 1.387 . S
C1190 C1191 1.387 . S
C1190 H1194 0.950 . S
C1190 C1199 1.390 . S
C1191 C1190 1.387 . S
C1191 C1193 1.387 . S
H1192 C1199 0.950 . S
C1193 C1191 1.387 . S
C1193 C1195 1.390 . S
C1193 H1197 0.950 . S
H1194 C1190 0.950 . S
C1195 C1193 1.390 . S
C1195 C1196 1.387 . S
C1195 H1198 0.950 . S
C1196 C1195 1.387 . S
C1196 C1199 1.387 . S
H1197 C1193 0.950 . S
H1198 C1195 0.950 . S
C1199 C1190 1.390 . S
C1199 H1192 0.950 . S
C1199 C1196 1.387 . S
C1200 C1201 1.387 . S
C1200 H1204 0.950 . S
C1200 C1209 1.390 . S
C1201 C1200 1.387 . S
C1201 C1203 1.387 . S
H1202 C1209 0.950 . S
C1203 C1201 1.387 . S
C1203 C1205 1.390 . S
C1203 H1207 0.950 . S
H1204 C1200 0.950 . S
C1205 C1203 1.390 . S
C1205 C1206 1.387 . S
C1205 H1208 0.950 . S
C1206 C1205 1.387 . S
C1206 C1209 1.387 . S
H1207 C1203 0.950 . S
H1208 C1205 0.950 . S
C1209 C1200 1.390 . S
C1209 H1202 0.950 . S
C1209 C1206 1.387 . S
C1210 C1211 1.387 . S
C1210 H1214 0.950 . S
C1210 C1219 1.390 . S
C1211 C1210 1.387 . S
C1211 C1213 1.387 . S
H1212 C1219 0.950 . S
C1213 C1211 1.387 . S
C1213 C1215 1.390 . S
C1213 H1217 0.950 . S
H1214 C1210 0.950 . S
C1215 C1213 1.390 . S
C1215 C1216 1.387 . S
C1215 H1218 0.950 . S
C1216 C1215 1.387 . S
C1216 C1219 1.387 . S
H1217 C1213 0.950 . S
H1218 C1215 0.950 . S
C1219 C1210 1.390 . S
C1219 H1212 0.950 . S
C1219 C1216 1.387 . S
C1220 C1221 1.387 . S
C1220 H1224 0.950 . S
C1220 C1229 1.390 . S
C1221 C1220 1.387 . S
C1221 C1223 1.387 . S
H1222 C1229 0.950 . S
C1223 C1221 1.387 . S
C1223 C1225 1.390 . S
C1223 H1227 0.950 . S
H1224 C1220 0.950 . S
C1225 C1223 1.390 . S
C1225 C1226 1.387 . S
C1225 H1228 0.950 . S
C1226 C1225 1.387 . S
C1226 C1229 1.387 . S
H1227 C1223 0.950 . S
H1228 C1225 0.950 . S
C1229 C1220 1.390 . S
C1229 H1222 0.950 . S
C1229 C1226 1.387 . S
C1230 C1231 1.387 . S
C1230 H1234 0.950 . S
C1230 C1239 1.390 . S
C1231 C1230 1.387 . S
C1231 C1233 1.387 . S
H1232 C1239 0.950 . S
C1233 C1231 1.387 . S
C1233 C1235 1.390 . S
C1233 H1237 0.950 . S
H1234 C1230 0.950 . S
C1235 C1233 1.390 . S
C1235 C1236 1.387 . S
C1235 H1238 0.950 . S
C1236 C1235 1.387 . S
C1236 C1239 1.387 . S
H1237 C1233 0.950 . S
H1238 C1235 0.950 . S
C1239 C1230 1.390 . S
C1239 H1232 0.950 . S
C1239 C1236 1.387 . S
C1240 C1241 1.387 . S
C1240 H1244 0.950 . S
C1240 C1249 1.390 . S
C1241 C1240 1.387 . S
C1241 C1243 1.387 . S
H1242 C1249 0.950 . S
C1243 C1241 1.387 . S
C1243 C1245 1.390 . S
C1243 H1247 0.950 . S
H1244 C1240 0.950 . S
C1245 C1243 1.390 . S
C1245 C1246 1.387 . S
C1245 H1248 0.950 . S
C1246 C1245 1.387 . S
C1246 C1249 1.387 . S
H1247 C1243 0.950 . S
H1248 C1245 0.950 . S
C1249 C1240 1.390 . S
C1249 H1242 0.950 . S
C1249 C1246 1.387 . S
C1250 C1251 1.387 . S
C1250 H1254 0.950 . S
C1250 C1259 1.390 . S
C1251 C1250 1.387 . S
C1251 C1253 1.387 . S
H1252 C1259 0.950 . S
C1253 C1251 1.387 . S
C1253 C1255 1.390 . S
C1253 H1257 0.950 . S
H1254 C1250 0.950 . S
C1255 C1253 1.390 . S
C1255 C1256 1.387 . S
C1255 H1258 0.950 . S
C1256 C1255 1.387 . S
C1256 C1259 1.387 . S
H1257 C1253 0.950 . S
H1258 C1255 0.950 . S
C1259 C1250 1.390 . S
C1259 H1252 0.950 . S
C1259 C1256 1.387 . S
C1260 C1261 1.387 . S
C1260 H1264 0.950 . S
C1260 C1269 1.390 . S
C1261 C1260 1.387 . S
C1261 C1263 1.387 . S
H1262 C1269 0.950 . S
C1263 C1261 1.387 . S
C1263 C1265 1.390 . S
C1263 H1267 0.950 . S
H1264 C1260 0.950 . S
C1265 C1263 1.390 . S
C1265 C1266 1.387 . S
C1265 H1268 0.950 . S
C1266 C1265 1.387 . S
C1266 C1269 1.387 . S
H1267 C1263 0.950 . S
H1268 C1265 0.950 . S
C1269 C1260 1.390 . S
C1269 H1262 0.950 . S
C1269 C1266 1.387 . S
C1270 C1271 1.387 . S
C1270 H1274 0.950 . S
C1270 C1279 1.390 . S
C1271 C1270 1.387 . S
C1271 C1273 1.387 . S
H1272 C1279 0.950 . S
C1273 C1271 1.387 . S
C1273 C1275 1.390 . S
C1273 H1277 0.950 . S
H1274 C1270 0.950 . S
C1275 C1273 1.390 . S
C1275 C1276 1.387 . S
C1275 H1278 0.950 . S
C1276 C1275 1.387 . S
C1276 C1279 1.387 . S
H1277 C1273 0.950 . S
H1278 C1275 0.950 . S
C1279 C1270 1.390 . S
C1279 H1272 0.950 . S
C1279 C1276 1.387 . S
C1280 C1281 1.387 . S
C1280 H1284 0.950 . S
C1280 C1289 1.390 . S
C1281 C1280 1.387 . S
C1281 C1283 1.387 . S
H1282 C1289 0.950 . S
C1283 C1281 1.387 . S
C1283 C1285 1.390 . S
C1283 H1287 0.950 . S
H1284 C1280 0.950 . S
C1285 C1283 1.390 . S
C1285 C1286 1.387 . S
C1285 H1288 0.950 . S
C1286 C1285 1.387 . S
C1286 C1289 1.387 . S
H1287 C1283 0.950 . S
H1288 C1285 0.950 . S
C1289 C1280 1.390 . S
C1289 H1282 0.950 . S
C1289 C1286 1.387 . S
C1290 C1291 1.387 . S
C1290 H1294 0.950 . S
C1290 C1299 1.390 . S
C1291 C1290 1.387 . S
C1291 C1293 1.387 . S
H1292 C1299 0.950 . S
C1293 C1291 1.387 . S
C1293 C1295 1.390 . S
C1293 H1297 0.950 . S
H1294 C1290 0.950 . S
C1295 C1293 1.390 . S
C1295 C1296 1.387 . S
C1295 H1298 0.950 . S
C1296 C1295 1.387 . S
C1296 C1299 1.387 . S
H1297 C1293 0.950 . S
H1298 C1295 0.950 . S
C1299 C1290 1.390 . S
C1299 H1292 0.950 . S
C1299 C1296 1.387 . S
C1300 C1301 1.387 . S
C1300 H1304 0.950 . S
C1300 C1309 1.390 . S
C1301 C1300 1.387 . S
C1301 C1303 1.387 . S
H1302 C1309 0.950 . S
C1303 C1301 1.387 . S
C1303 C1305 1.390 . S
C1303 H1307 0.950 . S
H1304 C1300 0.950 . S
C1305 C1303 1.390 . S
C1305 C1306 1.387 . S
C1305 H1308 0.950 . S
C1306 C1305 1.387 . S
C1306 C1309 1.387 . S
H1307 C1303 0.950 . S
H1308 C1305 0.950 . S
C1309 C1300 1.390 . S
C1309 H1302 0.950 . S
C1309 C1306 1.387 . S
C1310 C1311 1.387 . S
C1310 H1314 0.950 . S
C1310 C1319 1.390 . S
C1311 C1310 1.387 . S
C1311 C1313 1.387 . S
H1312 C1319 0.950 . S
C1313 C1311 1.387 . S
C1313 C1315 1.390 . S
C1313 H1317 0.950 . S
H1314 C1310 0.950 . S
C1315 C1313 1.390 . S
C1315 C1316 1.387 . S
C1315 H1318 0.950 . S
C1316 C1315 1.387 . S
C1316 C1319 1.387 . S
H1317 C1313 0.950 . S
H1318 C1315 0.950 . S
C1319 C1310 1.390 . S
C1319 H1312 0.950 . S
C1319 C1316 1.387 . S
C1320 C1321 1.387 . S
C1320 H1324 0.950 . S
C1320 C1329 1.390 . S
C1321 C1320 1.387 . S
C1321 C1323 1.387 . S
H1322 C1329 0.950 . S
C1323 C1321 1.387 . S
C1323 C1325 1.390 . S
C1323 H1327 0.950 . S
H1324 C1320 0.950 . S
C1325 C1323 1.390 . S
C1325 C1326 1.387 . S
C1325 H1328 0.950 . S
C1326 C1325 1.387 . S
C1326 C1329 1.387 . S
H1327 C1323 0.950 . S
H1328 C1325 0.950 . S
C1329 C1320 1.390 . S
C1329 H1322 0.950 . S
C1329 C1326 1.387 . S
C1330 C1331 1.387 . S
C1330 H1334 0.950 . S
C1330 C1339 1.390 . S
C1331 C1330 1.387 . S
C1331 C1333 1.387 . S
H1332 C1339 0.950 . S
C1333 C1331 1.387 . S
C1333 C1335 1.390 . S
C1333 H1337 0.950 . S
H1334 C1330 0.950 . S
C1335 C1333 1.390 . S
C1335 C1336 1.387 . S
C1335 H1338 0.950 . S
C1336 C1335 1.387 . S
C1336 C1339 1.387 . S
H1337 C1333 0.950 . S
H1338 C1335 0.950 . S
C1339 C1330 1.390 . S
C1339 H1332 0.950 . S
C1339 C1336 1.387 . S
C1340 C1341 1.387 . S
C1340 H1344 0.950 . S
C1340 C1349 1.390 . S
C1341 C1340 1.387 . S
C1341 C1343 1.387 . S
H1342 C1349 0.950 . S
C1343 C1341 1.387 . S
C1343 C1345 1.390 . S
C1343 H1347 0.950 . S
H1344 C1340 0.950 . S
C1345 C1343 1.390 . S
C1345 C1346 1.387 . S
C1345 H1348 0.950 . S
C1346 C1345 1.387 . S
C1346 C1349 1.387 . S
H1347 C1343 0.950 . S
H1348 C1345 0.950 . S
C1349 C1340 1.390 . S
C1349 H1342 0.950 . S
C1349 C1346 1.387 . S
C876 C699 1.385 . S
C871 C74 1.444 . S
C886 C700 0.610 . S
C881 C142 0.799 . S
C896 C694 1.420 . S
C891 C231 1.347 . S
C901 C322 1.127 . S
C906 C693 1.155 . S
C911 C406 0.795 . S
C916 C696 0.611 . S
C926 C698 1.420 . S
C921 C494 1.349 . S
C931 C562 1.124 . S
C936 C697 1.155 . S
C941 C651 1.448 . S
C946 C695 1.389 . S
C956 C730 1.536 . S
C951 C58 1.442 . S
C961 C151 1.815 . S
C966 C761 1.762 . S
C976 C729 2.603 . S
C971 C224 2.449 . S
C986 C764 1.335 . S
C981 C315 1.306 . S
C991 C399 1.579 . S
C996 C727 1.587 . S
C1006 C759 1.469 . S
C1001 C478 1.401 . S
C1011 C571 1.391 . S
C1016 C732 1.468 . S
C1021 C644 2.484 . S
C1026 C766 2.562 . S
C1031 C67 2.483 . S
C1036 C762 2.561 . S
C1041 C392 1.814 . S
C1046 C765 1.763 . S
C1056 C733 2.604 . S
C1051 C487 2.449 . S
C1066 C760 1.335 . S
C1061 C578 1.310 . S
C1071 C658 1.447 . S
C1076 C726 1.538 . S
C1081 C238 1.400 . S
C1086 C763 1.468 . S
C1096 C728 1.468 . S
C1091 C308 1.390 . S
C1101 C158 1.578 . S
C1106 C731 1.585 . S
C1111 C662 1.424 . S
C1116 C798 1.345 . S
C1121 C394 1.044 . S
C1126 C799 0.179 . S
C1136 C793 1.564 . S
C1131 C483 1.523 . S
C1146 C792 1.374 . S
C1141 C574 1.253 . S
C1151 C154 1.048 . S
C1156 C795 0.175 . S
C1166 C797 1.562 . S
C1161 C242 1.524 . S
C1171 C310 1.250 . S
C1176 C796 1.374 . S
C1181 C63 1.420 . S
C1186 C794 1.338 . S
C1191 C646 1.465 . S
C1196 C832 1.545 . S
C1206 C864 1.352 . S
C1201 C403 1.402 . S
C1211 C476 2.338 . S
C1216 C825 2.486 . S
C1221 C567 1.644 . S
C1226 C859 1.705 . S
C1236 C830 1.561 . S
C1231 C147 1.396 . S
C1241 C226 1.636 . S
C1246 C861 1.647 . S
C1256 C827 1.608 . S
C1251 C319 1.662 . S
C1266 C862 2.560 . S
C1261 C56 2.279 . S
C1276 C858 2.560 . S
C1271 C655 2.284 . S
C1281 C140 1.401 . S
C1286 C860 1.352 . S
C1291 C235 2.340 . S
C1296 C829 2.486 . S
C1306 C863 1.706 . S
C1301 C326 1.644 . S
C1311 C70 1.461 . S
C1316 C828 1.545 . S
C1321 C490 1.634 . S
C1326 C865 1.646 . S
C1336 C831 1.607 . S
C1331 C560 1.659 . S
C1346 C826 1.561 . S
C1341 C410 1.397 . S
