# Generated by pormake.
# Topology gar, (4,6)-cn, num edge types: 1
# Building blocks:
#     Node 0, Type 0, BuildingBlock: UXUYUI_clean_sbu_0, # of connection points: 4
#     Node 1, Type 0, BuildingBlock: UXUYUI_clean_sbu_0, # of connection points: 4
#     Node 2, Type 0, BuildingBlock: UXUYUI_clean_sbu_0, # of connection points: 4
#     Node 3, Type 0, BuildingBlock: UXUYUI_clean_sbu_0, # of connection points: 4
#     Node 4, Type 0, BuildingBlock: UXUYUI_clean_sbu_0, # of connection points: 4
#     Node 5, Type 0, BuildingBlock: UXUYUI_clean_sbu_0, # of connection points: 4
#     Node 6, Type 0, BuildingBlock: UXUYUI_clean_sbu_0, # of connection points: 4
#     Node 7, Type 0, BuildingBlock: UXUYUI_clean_sbu_0, # of connection points: 4
#     Node 8, Type 0, BuildingBlock: UXUYUI_clean_sbu_0, # of connection points: 4
#     Node 9, Type 0, BuildingBlock: UXUYUI_clean_sbu_0, # of connection points: 4
#     Node 10, Type 0, BuildingBlock: UXUYUI_clean_sbu_0, # of connection points: 4
#     Node 11, Type 0, BuildingBlock: UXUYUI_clean_sbu_0, # of connection points: 4
#     Node 12, Type 0, BuildingBlock: UXUYUI_clean_sbu_0, # of connection points: 4
#     Node 13, Type 0, BuildingBlock: UXUYUI_clean_sbu_0, # of connection points: 4
#     Node 14, Type 0, BuildingBlock: UXUYUI_clean_sbu_0, # of connection points: 4
#     Node 15, Type 0, BuildingBlock: UXUYUI_clean_sbu_0, # of connection points: 4
#     Node 16, Type 0, BuildingBlock: UXUYUI_clean_sbu_0, # of connection points: 4
#     Node 17, Type 0, BuildingBlock: UXUYUI_clean_sbu_0, # of connection points: 4
#     Node 18, Type 0, BuildingBlock: UXUYUI_clean_sbu_0, # of connection points: 4
#     Node 19, Type 0, BuildingBlock: UXUYUI_clean_sbu_0, # of connection points: 4
#     Node 20, Type 0, BuildingBlock: UXUYUI_clean_sbu_0, # of connection points: 4
#     Node 21, Type 0, BuildingBlock: UXUYUI_clean_sbu_0, # of connection points: 4
#     Node 22, Type 0, BuildingBlock: UXUYUI_clean_sbu_0, # of connection points: 4
#     Node 23, Type 0, BuildingBlock: UXUYUI_clean_sbu_0, # of connection points: 4
#     Node 24, Type 1, BuildingBlock: KUMJIN_clean_sbu_1, # of connection points: 6
#     Node 25, Type 1, BuildingBlock: KUMJIN_clean_sbu_1, # of connection points: 6
#     Node 26, Type 1, BuildingBlock: KUMJIN_clean_sbu_1, # of connection points: 6
#     Node 27, Type 1, BuildingBlock: KUMJIN_clean_sbu_1, # of connection points: 6
#     Node 28, Type 1, BuildingBlock: KUMJIN_clean_sbu_1, # of connection points: 6
#     Node 29, Type 1, BuildingBlock: KUMJIN_clean_sbu_1, # of connection points: 6
#     Node 30, Type 1, BuildingBlock: KUMJIN_clean_sbu_1, # of connection points: 6
#     Node 31, Type 1, BuildingBlock: KUMJIN_clean_sbu_1, # of connection points: 6
#     Node 32, Type 1, BuildingBlock: KUMJIN_clean_sbu_1, # of connection points: 6
#     Node 33, Type 1, BuildingBlock: KUMJIN_clean_sbu_1, # of connection points: 6
#     Node 34, Type 1, BuildingBlock: KUMJIN_clean_sbu_1, # of connection points: 6
#     Node 35, Type 1, BuildingBlock: KUMJIN_clean_sbu_1, # of connection points: 6
#     Node 36, Type 1, BuildingBlock: KUMJIN_clean_sbu_1, # of connection points: 6
#     Node 37, Type 1, BuildingBlock: KUMJIN_clean_sbu_1, # of connection points: 6
#     Node 38, Type 1, BuildingBlock: KUMJIN_clean_sbu_1, # of connection points: 6
#     Node 39, Type 1, BuildingBlock: KUMJIN_clean_sbu_1, # of connection points: 6
#     Edge 40, Type (0, 1), BuildingBlock: ZUJKAS_clean_linker_0, # of connection points: 2
#     Edge 41, Type (0, 1), BuildingBlock: ZUJKAS_clean_linker_0, # of connection points: 2
#     Edge 42, Type (0, 1), BuildingBlock: ZUJKAS_clean_linker_0, # of connection points: 2
#     Edge 43, Type (0, 1), BuildingBlock: ZUJKAS_clean_linker_0, # of connection points: 2
#     Edge 44, Type (0, 1), BuildingBlock: ZUJKAS_clean_linker_0, # of connection points: 2
#     Edge 45, Type (0, 1), BuildingBlock: ZUJKAS_clean_linker_0, # of connection points: 2
#     Edge 46, Type (0, 1), BuildingBlock: ZUJKAS_clean_linker_0, # of connection points: 2
#     Edge 47, Type (0, 1), BuildingBlock: ZUJKAS_clean_linker_0, # of connection points: 2
#     Edge 48, Type (0, 1), BuildingBlock: ZUJKAS_clean_linker_0, # of connection points: 2
#     Edge 49, Type (0, 1), BuildingBlock: ZUJKAS_clean_linker_0, # of connection points: 2
#     Edge 50, Type (0, 1), BuildingBlock: ZUJKAS_clean_linker_0, # of connection points: 2
#     Edge 51, Type (0, 1), BuildingBlock: ZUJKAS_clean_linker_0, # of connection points: 2
#     Edge 52, Type (0, 1), BuildingBlock: ZUJKAS_clean_linker_0, # of connection points: 2
#     Edge 53, Type (0, 1), BuildingBlock: ZUJKAS_clean_linker_0, # of connection points: 2
#     Edge 54, Type (0, 1), BuildingBlock: ZUJKAS_clean_linker_0, # of connection points: 2
#     Edge 55, Type (0, 1), BuildingBlock: ZUJKAS_clean_linker_0, # of connection points: 2
#     Edge 56, Type (0, 1), BuildingBlock: ZUJKAS_clean_linker_0, # of connection points: 2
#     Edge 57, Type (0, 1), BuildingBlock: ZUJKAS_clean_linker_0, # of connection points: 2
#     Edge 58, Type (0, 1), BuildingBlock: ZUJKAS_clean_linker_0, # of connection points: 2
#     Edge 59, Type (0, 1), BuildingBlock: ZUJKAS_clean_linker_0, # of connection points: 2
#     Edge 60, Type (0, 1), BuildingBlock: ZUJKAS_clean_linker_0, # of connection points: 2
#     Edge 61, Type (0, 1), BuildingBlock: ZUJKAS_clean_linker_0, # of connection points: 2
#     Edge 62, Type (0, 1), BuildingBlock: ZUJKAS_clean_linker_0, # of connection points: 2
#     Edge 63, Type (0, 1), BuildingBlock: ZUJKAS_clean_linker_0, # of connection points: 2
#     Edge 64, Type (0, 1), BuildingBlock: ZUJKAS_clean_linker_0, # of connection points: 2
#     Edge 65, Type (0, 1), BuildingBlock: ZUJKAS_clean_linker_0, # of connection points: 2
#     Edge 66, Type (0, 1), BuildingBlock: ZUJKAS_clean_linker_0, # of connection points: 2
#     Edge 67, Type (0, 1), BuildingBlock: ZUJKAS_clean_linker_0, # of connection points: 2
#     Edge 68, Type (0, 1), BuildingBlock: ZUJKAS_clean_linker_0, # of connection points: 2
#     Edge 69, Type (0, 1), BuildingBlock: ZUJKAS_clean_linker_0, # of connection points: 2
#     Edge 70, Type (0, 1), BuildingBlock: ZUJKAS_clean_linker_0, # of connection points: 2
#     Edge 71, Type (0, 1), BuildingBlock: ZUJKAS_clean_linker_0, # of connection points: 2
#     Edge 72, Type (0, 1), BuildingBlock: ZUJKAS_clean_linker_0, # of connection points: 2
#     Edge 73, Type (0, 1), BuildingBlock: ZUJKAS_clean_linker_0, # of connection points: 2
#     Edge 74, Type (0, 1), BuildingBlock: ZUJKAS_clean_linker_0, # of connection points: 2
#     Edge 75, Type (0, 1), BuildingBlock: ZUJKAS_clean_linker_0, # of connection points: 2
#     Edge 76, Type (0, 1), BuildingBlock: ZUJKAS_clean_linker_0, # of connection points: 2
#     Edge 77, Type (0, 1), BuildingBlock: ZUJKAS_clean_linker_0, # of connection points: 2
#     Edge 78, Type (0, 1), BuildingBlock: ZUJKAS_clean_linker_0, # of connection points: 2
#     Edge 79, Type (0, 1), BuildingBlock: ZUJKAS_clean_linker_0, # of connection points: 2
#     Edge 80, Type (0, 1), BuildingBlock: ZUJKAS_clean_linker_0, # of connection points: 2
#     Edge 81, Type (0, 1), BuildingBlock: ZUJKAS_clean_linker_0, # of connection points: 2
#     Edge 82, Type (0, 1), BuildingBlock: ZUJKAS_clean_linker_0, # of connection points: 2
#     Edge 83, Type (0, 1), BuildingBlock: ZUJKAS_clean_linker_0, # of connection points: 2
#     Edge 84, Type (0, 1), BuildingBlock: ZUJKAS_clean_linker_0, # of connection points: 2
#     Edge 85, Type (0, 1), BuildingBlock: ZUJKAS_clean_linker_0, # of connection points: 2
#     Edge 86, Type (0, 1), BuildingBlock: ZUJKAS_clean_linker_0, # of connection points: 2
#     Edge 87, Type (0, 1), BuildingBlock: ZUJKAS_clean_linker_0, # of connection points: 2
#     Edge 88, Type (0, 1), BuildingBlock: ZUJKAS_clean_linker_0, # of connection points: 2
#     Edge 89, Type (0, 1), BuildingBlock: ZUJKAS_clean_linker_0, # of connection points: 2
#     Edge 90, Type (0, 1), BuildingBlock: ZUJKAS_clean_linker_0, # of connection points: 2
#     Edge 91, Type (0, 1), BuildingBlock: ZUJKAS_clean_linker_0, # of connection points: 2
#     Edge 92, Type (0, 1), BuildingBlock: ZUJKAS_clean_linker_0, # of connection points: 2
#     Edge 93, Type (0, 1), BuildingBlock: ZUJKAS_clean_linker_0, # of connection points: 2
#     Edge 94, Type (0, 1), BuildingBlock: ZUJKAS_clean_linker_0, # of connection points: 2
#     Edge 95, Type (0, 1), BuildingBlock: ZUJKAS_clean_linker_0, # of connection points: 2
#     Edge 96, Type (0, 1), BuildingBlock: ZUJKAS_clean_linker_0, # of connection points: 2
#     Edge 97, Type (0, 1), BuildingBlock: ZUJKAS_clean_linker_0, # of connection points: 2
#     Edge 98, Type (0, 1), BuildingBlock: ZUJKAS_clean_linker_0, # of connection points: 2
#     Edge 99, Type (0, 1), BuildingBlock: ZUJKAS_clean_linker_0, # of connection points: 2
#     Edge 100, Type (0, 1), BuildingBlock: ZUJKAS_clean_linker_0, # of connection points: 2
#     Edge 101, Type (0, 1), BuildingBlock: ZUJKAS_clean_linker_0, # of connection points: 2
#     Edge 102, Type (0, 1), BuildingBlock: ZUJKAS_clean_linker_0, # of connection points: 2
#     Edge 103, Type (0, 1), BuildingBlock: ZUJKAS_clean_linker_0, # of connection points: 2
#     Edge 104, Type (0, 1), BuildingBlock: ZUJKAS_clean_linker_0, # of connection points: 2
#     Edge 105, Type (0, 1), BuildingBlock: ZUJKAS_clean_linker_0, # of connection points: 2
#     Edge 106, Type (0, 1), BuildingBlock: ZUJKAS_clean_linker_0, # of connection points: 2
#     Edge 107, Type (0, 1), BuildingBlock: ZUJKAS_clean_linker_0, # of connection points: 2
#     Edge 108, Type (0, 1), BuildingBlock: ZUJKAS_clean_linker_0, # of connection points: 2
#     Edge 109, Type (0, 1), BuildingBlock: ZUJKAS_clean_linker_0, # of connection points: 2
#     Edge 110, Type (0, 1), BuildingBlock: ZUJKAS_clean_linker_0, # of connection points: 2
#     Edge 111, Type (0, 1), BuildingBlock: ZUJKAS_clean_linker_0, # of connection points: 2
#     Edge 112, Type (0, 1), BuildingBlock: ZUJKAS_clean_linker_0, # of connection points: 2
#     Edge 113, Type (0, 1), BuildingBlock: ZUJKAS_clean_linker_0, # of connection points: 2
#     Edge 114, Type (0, 1), BuildingBlock: ZUJKAS_clean_linker_0, # of connection points: 2
#     Edge 115, Type (0, 1), BuildingBlock: ZUJKAS_clean_linker_0, # of connection points: 2
#     Edge 116, Type (0, 1), BuildingBlock: ZUJKAS_clean_linker_0, # of connection points: 2
#     Edge 117, Type (0, 1), BuildingBlock: ZUJKAS_clean_linker_0, # of connection points: 2
#     Edge 118, Type (0, 1), BuildingBlock: ZUJKAS_clean_linker_0, # of connection points: 2
#     Edge 119, Type (0, 1), BuildingBlock: ZUJKAS_clean_linker_0, # of connection points: 2
#     Edge 120, Type (0, 1), BuildingBlock: ZUJKAS_clean_linker_0, # of connection points: 2
#     Edge 121, Type (0, 1), BuildingBlock: ZUJKAS_clean_linker_0, # of connection points: 2
#     Edge 122, Type (0, 1), BuildingBlock: ZUJKAS_clean_linker_0, # of connection points: 2
#     Edge 123, Type (0, 1), BuildingBlock: ZUJKAS_clean_linker_0, # of connection points: 2
#     Edge 124, Type (0, 1), BuildingBlock: ZUJKAS_clean_linker_0, # of connection points: 2
#     Edge 125, Type (0, 1), BuildingBlock: ZUJKAS_clean_linker_0, # of connection points: 2
#     Edge 126, Type (0, 1), BuildingBlock: ZUJKAS_clean_linker_0, # of connection points: 2
#     Edge 127, Type (0, 1), BuildingBlock: ZUJKAS_clean_linker_0, # of connection points: 2
#     Edge 128, Type (0, 1), BuildingBlock: ZUJKAS_clean_linker_0, # of connection points: 2
#     Edge 129, Type (0, 1), BuildingBlock: ZUJKAS_clean_linker_0, # of connection points: 2
#     Edge 130, Type (0, 1), BuildingBlock: ZUJKAS_clean_linker_0, # of connection points: 2
#     Edge 131, Type (0, 1), BuildingBlock: ZUJKAS_clean_linker_0, # of connection points: 2
#     Edge 132, Type (0, 1), BuildingBlock: ZUJKAS_clean_linker_0, # of connection points: 2
#     Edge 133, Type (0, 1), BuildingBlock: ZUJKAS_clean_linker_0, # of connection points: 2
#     Edge 134, Type (0, 1), BuildingBlock: ZUJKAS_clean_linker_0, # of connection points: 2
#     Edge 135, Type (0, 1), BuildingBlock: ZUJKAS_clean_linker_0, # of connection points: 2
# Relax obj value: 0.080
# Max RMSD: 0.194
# Mean RMSD: 0.153
data_MOF--net-gar--node1-UXUYUI_clean_sbu_0--node2-KUMJIN_clean_sbu_1--edge1-ZUJKAS_clean_linker_0
_symmetry_space_group_name_H-M    P1
_symmetry_Int_Tables_number       1
_symmetry_cell_setting            triclinic
loop_
_symmetry_equiv_pos_as_xyz
'x, y, z'
_cell_length_a     89.02743
_cell_length_b     89.013217
_cell_length_c     84.398937
_cell_angle_alpha  95.339007
_cell_angle_beta   95.333505
_cell_angle_gamma 100.08257
loop_
_atom_site_label
_atom_site_type_symbol
_atom_site_fract_x
_atom_site_fract_y
_atom_site_fract_z
_atom_type_partial_charge
Li0 Li 0.01891 0.2896 0.34611 0.0
Li1 Li 0.03576 0.3068 0.369 0.0
Li2 Li 0.04848 0.29101 0.34735 0.0
Li3 Li 0.03364 0.27777 0.36808 0.0
C4 C 0.03226 0.31642 0.33329 0.0
N5 N 0.02502 0.33376 0.30919 0.0
C6 C 0.02633 0.32973 0.33683 0.0
C7 C 0.03465 0.312 0.31754 0.0
C8 C 0.0227 0.33832 0.32446 0.0
C9 C 0.03088 0.3209 0.30551 0.0
C10 C 0.0085 0.29114 0.38177 0.0
C11 C 0.00573 0.29217 0.40997 0.0
N12 N 0.9905 0.29226 0.40664 0.0
C13 C 0.99282 0.29118 0.37861 0.0
C14 C 0.01502 0.29159 0.39755 0.0
C15 C 0.98391 0.29178 0.39136 0.0
C16 C 0.99014 0.27454 0.3264 0.0
N17 N 0.99838 0.28809 0.33395 0.0
C18 C 0.97651 0.30022 0.32878 0.0
C19 C 0.9918 0.30082 0.33512 0.0
C20 C 0.96756 0.28634 0.32117 0.0
C21 C 0.97477 0.27343 0.31985 0.0
H22 H 0.99528 0.26438 0.32594 0.0
H23 H 0.99825 0.31139 0.34155 0.0
C24 C 0.04997 0.33556 0.38882 0.0
N25 N 0.03652 0.32624 0.38251 0.0
C26 C 0.04995 0.34954 0.39814 0.0
C27 C 0.02231 0.34407 0.39448 0.0
C28 C 0.02286 0.33034 0.38514 0.0
C29 C 0.03596 0.35408 0.40112 0.0
H30 H 0.06075 0.33223 0.38651 0.0
H31 H 0.01227 0.32297 0.37988 0.0
C32 C 0.03036 0.26149 0.33185 0.0
N33 N 0.02883 0.23903 0.30658 0.0
C34 C 0.03354 0.24709 0.33468 0.0
C35 C 0.02636 0.26448 0.31621 0.0
C36 C 0.03272 0.23588 0.32173 0.0
C37 C 0.02565 0.25296 0.30359 0.0
C38 C 0.06336 0.29307 0.38351 0.0
C39 C 0.07587 0.28628 0.38009 0.0
C40 C 0.06226 0.29892 0.39922 0.0
C41 C 0.08699 0.28522 0.39255 0.0
C42 C 0.07362 0.29764 0.41134 0.0
N43 N 0.08564 0.29087 0.40779 0.0
C44 C 0.07962 0.30251 0.33998 0.0
C45 C 0.06933 0.27774 0.32699 0.0
C46 C 0.09387 0.30199 0.33407 0.0
N47 N 0.06762 0.29045 0.3365 0.0
C48 C 0.08335 0.27677 0.32079 0.0
C49 C 0.09609 0.28891 0.32439 0.0
H50 H 0.0783 0.31245 0.34776 0.0
H51 H 0.05995 0.2681 0.32437 0.0
C52 C 0.01912 0.25397 0.38568 0.0
N53 N 0.03264 0.26013 0.38047 0.0
C54 C 0.01801 0.24098 0.39406 0.0
C55 C 0.04468 0.24065 0.39144 0.0
C56 C 0.04527 0.25364 0.38311 0.0
C57 C 0.0309 0.23404 0.39707 0.0
H58 H 0.00908 0.25902 0.3832 0.0
H59 H 0.05579 0.25833 0.37848 0.0
O60 O 0.03603 0.30797 0.34525 0.0
O61 O 0.01737 0.29055 0.36943 0.0
O62 O 0.03112 0.27258 0.34438 0.0
O63 O 0.05252 0.29446 0.37143 0.0
H64 H 0.02453 0.33335 0.349 0.0
H65 H 0.03944 0.30184 0.31467 0.0
H66 H 0.01805 0.34861 0.32701 0.0
H67 H 0.03264 0.31762 0.29325 0.0
H68 H 0.01062 0.29251 0.42225 0.0
H69 H 0.98757 0.29074 0.36645 0.0
H70 H 0.02709 0.29137 0.40016 0.0
H71 H 0.97176 0.29184 0.3891 0.0
H72 H 0.97172 0.31058 0.33003 0.0
H73 H 0.96844 0.26239 0.31435 0.0
H74 H 0.06084 0.35681 0.40268 0.0
H75 H 0.01118 0.3467 0.39654 0.0
H76 H 0.03664 0.24461 0.34674 0.0
H77 H 0.02378 0.27555 0.31387 0.0
H78 H 0.03517 0.22468 0.32372 0.0
H79 H 0.02257 0.2551 0.29141 0.0
H80 H 0.07694 0.2818 0.36796 0.0
H81 H 0.05283 0.30451 0.402 0.0
H82 H 0.09671 0.27993 0.39011 0.0
H83 H 0.07291 0.3021 0.42357 0.0
H84 H 0.1032 0.31164 0.33752 0.0
H85 H 0.08412 0.26649 0.31323 0.0
H86 H 0.00715 0.2365 0.39821 0.0
H87 H 0.05487 0.23562 0.3931 0.0
Li88 Li 0.01397 0.76437 0.66538 0.0
Li89 Li 0.02844 0.75308 0.68765 0.0
Li90 Li 0.01098 0.73524 0.66484 0.0
Li91 Li 0.99882 0.75002 0.68624 0.0
C92 C 0.03911 0.75144 0.65224 0.0
N93 N 0.05806 0.7521 0.6281 0.0
C94 C 0.05484 0.75709 0.65576 0.0
C95 C 0.033 0.74608 0.63646 0.0
C96 C 0.06424 0.75735 0.64338 0.0
C97 C 0.04278 0.74651 0.62442 0.0
C98 C 0.02016 0.78022 0.70193 0.0
C99 C 0.02214 0.78858 0.73016 0.0
N100 N 0.0302 0.80243 0.72758 0.0
C101 C 0.02839 0.79453 0.69953 0.0
C102 C 0.01694 0.7772 0.71734 0.0
C103 C 0.0334 0.80561 0.71267 0.0
C104 C 0.00402 0.79112 0.65522 0.0
N105 N 0.01466 0.78205 0.65309 0.0
C106 C 0.026 0.79848 0.63465 0.0
C107 C 0.02558 0.78556 0.64306 0.0
C108 C 0.01518 0.8081 0.63662 0.0
C109 C 0.00409 0.80423 0.64714 0.0
H110 H 0.99547 0.7882 0.6633 0.0
H111 H 0.03414 0.77849 0.64164 0.0
C112 C 0.05421 0.74299 0.70456 0.0
N113 N 0.04903 0.7556 0.6999 0.0
C114 C 0.0696 0.74399 0.71093 0.0
C115 C 0.07418 0.77097 0.70785 0.0
C116 C 0.05869 0.76948 0.70162 0.0
C117 C 0.08001 0.75807 0.71241 0.0
H118 H 0.04655 0.73196 0.70278 0.0
H119 H 0.05458 0.77934 0.69755 0.0
C120 C 0.98382 0.7435 0.64957 0.0
N121 N 0.96151 0.73399 0.62391 0.0
C122 C 0.96944 0.73536 0.65192 0.0
C123 C 0.98684 0.74692 0.63422 0.0
C124 C 0.95831 0.73063 0.63878 0.0
C125 C 0.97542 0.74196 0.62139 0.0
C126 C 0.00936 0.72478 0.70018 0.0
C127 C 1.00139 0.70974 0.69604 0.0
C128 C 0.01442 0.73007 0.71622 0.0
C129 C 0.99856 0.70021 0.7081 0.0
C130 C 0.01135 0.7202 0.72793 0.0
N131 N 0.00355 0.70559 0.72366 0.0
C132 C 0.02373 0.71105 0.64992 0.0
C133 C 0.99681 0.70701 0.64369 0.0
C134 C 0.02442 0.69733 0.6406 0.0
N135 N 0.0101 0.71574 0.65127 0.0
C136 C 0.99697 0.69311 0.6343 0.0
C137 C 0.01093 0.68798 0.63261 0.0
H138 H 0.03418 0.71803 0.65609 0.0
H139 H 0.98602 0.7107 0.64501 0.0
C140 C 0.97545 0.76398 0.70052 0.0
N141 N 0.97991 0.75021 0.69736 0.0
C142 C 0.96146 0.76487 0.7068 0.0
C143 C 0.9567 0.73743 0.70675 0.0
C144 C 0.97081 0.73705 0.70047 0.0
C145 C 0.95162 0.75147 0.7099 0.0
H146 H 0.98264 0.77435 0.69788 0.0
H147 H 0.97426 0.72614 0.69766 0.0
O148 O 0.02976 0.75109 0.66421 0.0
O149 O 0.01503 0.76931 0.68921 0.0
O150 O 0.99477 0.74838 0.6623 0.0
O151 O 0.01256 0.73412 0.68851 0.0
H152 H 0.05976 0.76125 0.66791 0.0
H153 H 0.02086 0.74159 0.63356 0.0
H154 H 0.07644 0.76172 0.64593 0.0
H155 H 0.03822 0.7424 0.61215 0.0
H156 H 0.01975 0.78642 0.74216 0.0
H157 H 0.03089 0.79704 0.68763 0.0
H158 H 0.01043 0.76621 0.71934 0.0
H159 H 0.03981 0.81675 0.711 0.0
H160 H 0.03494 0.80106 0.62692 0.0
H161 H 0.99542 0.81116 0.64899 0.0
H162 H 0.07343 0.73364 0.71402 0.0
H163 H 0.08156 0.78213 0.70887 0.0
H164 H 0.96692 0.73272 0.66376 0.0
H165 H 0.99786 0.75339 0.63227 0.0
H166 H 0.94714 0.72429 0.64039 0.0
H167 H 0.97758 0.7445 0.60943 0.0
H168 H 0.9975 0.70547 0.68364 0.0
H169 H 0.02076 0.74164 0.71956 0.0
H170 H 0.99242 0.68853 0.70509 0.0
H171 H 0.01521 0.72412 0.7404 0.0
H172 H 0.03554 0.69421 0.63959 0.0
H173 H 0.98617 0.68634 0.62868 0.0
H174 H 0.95843 0.77605 0.70918 0.0
H175 H 0.94964 0.72669 0.70863 0.0
Li176 Li 0.52069 0.79023 0.84752 0.0
Li177 Li 0.53752 0.8076 0.87064 0.0
Li178 Li 0.55031 0.79207 0.84873 0.0
Li179 Li 0.53546 0.77823 0.86937 0.0
C180 C 0.53454 0.81794 0.83522 0.0
N181 N 0.52851 0.8364 0.81177 0.0
C182 C 0.52805 0.83086 0.8389 0.0
C183 C 0.53807 0.81445 0.81967 0.0
C184 C 0.52507 0.84005 0.82686 0.0
C185 C 0.53488 0.8239 0.80796 0.0
C186 C 0.50839 0.79074 0.88123 0.0
C187 C 0.49941 0.78509 0.9065 0.0
N188 N 0.48607 0.78979 0.90195 0.0
C189 C 0.49465 0.79561 0.87685 0.0
C190 C 0.51085 0.78551 0.8962 0.0
C191 C 0.48349 0.795 0.88748 0.0
C192 C 0.48937 0.77532 0.83844 0.0
N193 N 0.49992 0.78746 0.83536 0.0
C194 C 0.48007 0.79654 0.81957 0.0
C195 C 0.49552 0.79787 0.82588 0.0
C196 C 0.46878 0.78441 0.82299 0.0
C197 C 0.47381 0.77359 0.83241 0.0
H198 H 0.49294 0.76726 0.84618 0.0
H199 H 0.50384 0.80748 0.82347 0.0
C200 C 0.54747 0.84039 0.88149 0.0
N201 N 0.53865 0.82709 0.88464 0.0
C202 C 0.54739 0.85443 0.89069 0.0
C203 C 0.52932 0.84097 0.90638 0.0
C204 C 0.52983 0.82723 0.89699 0.0
C205 C 0.53804 0.85496 0.90327 0.0
H206 H 0.55439 0.84018 0.87162 0.0
H207 H 0.52301 0.81671 0.89959 0.0
C208 C 0.53168 0.7626 0.83284 0.0
N209 N 0.52864 0.74054 0.80692 0.0
C210 C 0.53344 0.74764 0.83518 0.0
C211 C 0.5283 0.76635 0.81737 0.0
C212 C 0.53189 0.73665 0.8219 0.0
C213 C 0.52682 0.75503 0.8044 0.0
C214 C 0.56473 0.79477 0.8856 0.0
C215 C 0.57898 0.79097 0.88316 0.0
C216 C 0.56126 0.79837 0.90114 0.0
C217 C 0.58956 0.79076 0.89641 0.0
C218 C 0.57216 0.79804 0.91407 0.0
N219 N 0.58596 0.79427 0.91146 0.0
C220 C 0.58005 0.80422 0.8375 0.0
C221 C 0.57217 0.77738 0.83197 0.0
C222 C 0.59418 0.8034 0.8314 0.0
N223 N 0.56932 0.79129 0.8378 0.0
C224 C 0.58607 0.77606 0.8257 0.0
C225 C 0.59757 0.78914 0.82547 0.0
H226 H 0.57785 0.81519 0.84241 0.0
H227 H 0.56379 0.76713 0.83246 0.0
C228 C 0.52021 0.75143 0.88169 0.0
N229 N 0.53426 0.76031 0.88133 0.0
C230 C 0.51867 0.73825 0.88978 0.0
C231 C 0.54609 0.74332 0.89684 0.0
C232 C 0.5471 0.75639 0.88861 0.0
C233 C 0.53172 0.73397 0.89757 0.0
H234 H 0.51015 0.75459 0.87568 0.0
H235 H 0.55822 0.76327 0.88789 0.0
O236 O 0.53763 0.80888 0.84684 0.0
O237 O 0.51937 0.79101 0.8709 0.0
O238 O 0.5332 0.77349 0.84569 0.0
O239 O 0.55428 0.79507 0.87279 0.0
H240 H 0.52527 0.83371 0.8509 0.0
H241 H 0.54322 0.80454 0.8167 0.0
H242 H 0.52001 0.85007 0.8295 0.0
H243 H 0.53751 0.82133 0.79586 0.0
H244 H 0.50114 0.78106 0.91811 0.0
H245 H 0.49264 0.79986 0.86539 0.0
H246 H 0.52152 0.78192 0.89987 0.0
H247 H 0.47277 0.79868 0.88423 0.0
H248 H 0.47702 0.80509 0.81217 0.0
H249 H 0.46573 0.76412 0.83567 0.0
H250 H 0.55427 0.86482 0.88766 0.0
H251 H 0.52217 0.84055 0.91608 0.0
H252 H 0.53604 0.74459 0.84712 0.0
H253 H 0.52681 0.77787 0.81541 0.0
H254 H 0.53327 0.72503 0.82351 0.0
H255 H 0.52422 0.75774 0.79234 0.0
H256 H 0.58182 0.78817 0.87117 0.0
H257 H 0.55026 0.80135 0.90318 0.0
H258 H 0.60063 0.78781 0.89472 0.0
H259 H 0.56966 0.80079 0.92619 0.0
H260 H 0.60253 0.81388 0.83181 0.0
H261 H 0.58773 0.76478 0.8211 0.0
H262 H 0.50731 0.7316 0.89007 0.0
H263 H 0.55654 0.74043 0.90232 0.0
Li264 Li 0.51441 0.26349 0.16668 0.0
Li265 Li 0.52861 0.25185 0.18878 0.0
Li266 Li 0.51081 0.23439 0.16575 0.0
Li267 Li 0.49901 0.24938 0.18733 0.0
C268 C 0.53981 0.25222 0.15398 0.0
N269 N 0.55994 0.25698 0.13116 0.0
C270 C 0.55527 0.25859 0.15863 0.0
C271 C 0.53458 0.24826 0.13775 0.0
C272 C 0.56526 0.26091 0.14691 0.0
C273 C 0.54494 0.25076 0.12639 0.0
C274 C 0.52035 0.2796 0.20294 0.0
C275 C 0.52195 0.28856 0.23099 0.0
N276 N 0.5297 0.30245 0.22812 0.0
C277 C 0.52828 0.29395 0.20023 0.0
C278 C 0.5171 0.27685 0.2184 0.0
C279 C 0.53292 0.30536 0.21313 0.0
C280 C 0.5026 0.28758 0.15256 0.0
N281 N 0.51531 0.28106 0.15431 0.0
C282 C 0.52875 0.29971 0.13929 0.0
C283 C 0.5283 0.28698 0.14797 0.0
C284 C 0.51582 0.30672 0.1373 0.0
C285 C 0.50262 0.30048 0.14416 0.0
H286 H 0.49242 0.2828 0.15779 0.0
H287 H 0.53844 0.282 0.14976 0.0
C288 C 0.55614 0.24119 0.19813 0.0
N289 N 0.54913 0.25347 0.20092 0.0
C290 C 0.57149 0.24174 0.20424 0.0
C291 C 0.57228 0.26741 0.21655 0.0
C292 C 0.5569 0.26642 0.21008 0.0
C293 C 0.57997 0.25505 0.21346 0.0
H294 H 0.54992 0.23106 0.19067 0.0
H295 H 0.5514 0.27622 0.21202 0.0
C296 C 0.48414 0.24307 0.15057 0.0
N297 N 0.462 0.23388 0.12471 0.0
C298 C 0.46965 0.23505 0.15275 0.0
C299 C 0.48737 0.24648 0.13528 0.0
C300 C 0.45861 0.23049 0.13951 0.0
C301 C 0.47603 0.24171 0.12234 0.0
C302 C 0.50935 0.22403 0.20135 0.0
C303 C 0.50102 0.20908 0.19766 0.0
C304 C 0.51501 0.2295 0.21722 0.0
C305 C 0.49843 0.19982 0.20998 0.0
C306 C 0.51217 0.21989 0.2292 0.0
N307 N 0.50402 0.20537 0.22537 0.0
C308 C 0.52266 0.21156 0.14716 0.0
C309 C 0.49579 0.20504 0.14744 0.0
C310 C 0.52272 0.19798 0.13731 0.0
N311 N 0.50932 0.215 0.15189 0.0
C312 C 0.49537 0.19115 0.13778 0.0
C313 C 0.50896 0.18748 0.13245 0.0
H314 H 0.53338 0.21932 0.15114 0.0
H315 H 0.48531 0.20779 0.15146 0.0
C316 C 0.47594 0.26392 0.20134 0.0
N317 N 0.48015 0.25 0.19837 0.0
C318 C 0.46197 0.26514 0.20751 0.0
C319 C 0.45673 0.23773 0.20775 0.0
C320 C 0.47083 0.23702 0.20157 0.0
C321 C 0.4519 0.25194 0.21069 0.0
H322 H 0.48331 0.27414 0.19861 0.0
H323 H 0.47409 0.22599 0.19891 0.0
O324 O 0.52989 0.24982 0.1653 0.0
O325 O 0.51559 0.26837 0.19044 0.0
O326 O 0.49497 0.24789 0.16343 0.0
O327 O 0.51231 0.23309 0.18941 0.0
H328 H 0.55949 0.26177 0.17115 0.0
H329 H 0.52267 0.24325 0.13398 0.0
H330 H 0.57725 0.26585 0.15032 0.0
H331 H 0.54107 0.24773 0.11378 0.0
H332 H 0.51954 0.28661 0.24303 0.0
H333 H 0.53081 0.29624 0.18829 0.0
H334 H 0.51086 0.26582 0.22063 0.0
H335 H 0.53908 0.31654 0.21124 0.0
H336 H 0.53928 0.30424 0.1345 0.0
H337 H 0.49234 0.30541 0.1429 0.0
H338 H 0.57669 0.23179 0.20164 0.0
H339 H 0.57825 0.278 0.2234 0.0
H340 H 0.46697 0.23242 0.16455 0.0
H341 H 0.49847 0.25285 0.13346 0.0
H342 H 0.44734 0.22429 0.141 0.0
H343 H 0.47835 0.24427 0.11043 0.0
H344 H 0.49666 0.20468 0.1854 0.0
H345 H 0.52161 0.24101 0.22021 0.0
H346 H 0.49203 0.18821 0.20732 0.0
H347 H 0.51649 0.22395 0.24154 0.0
H348 H 0.53353 0.19559 0.13379 0.0
H349 H 0.48447 0.18344 0.13436 0.0
H350 H 0.45913 0.27643 0.20973 0.0
H351 H 0.44948 0.22713 0.2097 0.0
Li352 Li 0.04471 0.79636 0.09897 0.0
Li353 Li 0.06004 0.78449 0.12052 0.0
Li354 Li 0.04219 0.76674 0.0976 0.0
Li355 Li 0.03091 0.78098 0.11984 0.0
C356 C 0.07028 0.78565 0.085 0.0
N357 N 0.08961 0.79027 0.06145 0.0
C358 C 0.08516 0.79409 0.08889 0.0
C359 C 0.06522 0.77951 0.06918 0.0
C360 C 0.09476 0.7963 0.0768 0.0
C361 C 0.07517 0.782 0.05743 0.0
C362 C 0.05156 0.8111 0.13602 0.0
C363 C 0.05468 0.81814 0.16457 0.0
N364 N 0.06126 0.83266 0.16231 0.0
C365 C 0.05834 0.82607 0.13396 0.0
C366 C 0.04968 0.80707 0.15142 0.0
C367 C 0.06318 0.83681 0.14741 0.0
C368 C 0.03001 0.81797 0.08204 0.0
N369 N 0.044 0.81511 0.08762 0.0
C370 C 0.05606 0.83959 0.08027 0.0
C371 C 0.05694 0.82563 0.08669 0.0
C372 C 0.04174 0.84294 0.07454 0.0
C373 C 0.02864 0.83168 0.07539 0.0
H374 H 0.01977 0.80975 0.08311 0.0
H375 H 0.06799 0.82339 0.09131 0.0
C376 C 0.08441 0.77193 0.13548 0.0
N377 N 0.07962 0.78553 0.13413 0.0
C378 C 0.09813 0.77131 0.14488 0.0
C379 C 0.10206 0.79873 0.15138 0.0
C380 C 0.08822 0.79883 0.14184 0.0
C381 C 0.10726 0.78481 0.15311 0.0
H382 H 0.07756 0.76148 0.12918 0.0
H383 H 0.0844 0.80958 0.14063 0.0
C384 C 0.01491 0.77492 0.08317 0.0
N385 N 0.99315 0.76516 0.05706 0.0
C386 C 1.00026 0.76726 0.08529 0.0
C387 C 0.0185 0.77767 0.0678 0.0
C388 C 0.98942 0.7624 0.07193 0.0
C389 C 0.00733 0.77263 0.05475 0.0
C390 C 0.04165 0.75541 0.1321 0.0
C391 C 0.03349 0.74055 0.12723 0.0
C392 C 0.04705 0.75979 0.14823 0.0
C393 C 0.03075 0.73031 0.13867 0.0
C394 C 0.04408 0.74921 0.1593 0.0
N395 N 0.03606 0.73482 0.15433 0.0
C396 C 0.0526 0.73905 0.08782 0.0
C397 C 0.02729 0.73858 0.07636 0.0
C398 C 0.05189 0.72374 0.08142 0.0
N399 N 0.04038 0.7462 0.08537 0.0
C400 C 0.02611 0.72326 0.06965 0.0
C401 C 0.03844 0.71541 0.07227 0.0
H402 H 0.06282 0.74511 0.09525 0.0
H403 H 0.01754 0.74418 0.07463 0.0
C404 C 0.00966 0.79276 0.13935 0.0
N405 N 0.0134 0.77965 0.13248 0.0
C406 C 0.99682 0.79217 0.14794 0.0
C407 C 0.99174 0.76461 0.14223 0.0
C408 C 0.00467 0.76573 0.13374 0.0
C409 C 0.98755 0.77795 0.14949 0.0
H410 H 0.01658 0.80375 0.13806 0.0
H411 H 0.00755 0.75545 0.12791 0.0
O412 O 0.0609 0.78298 0.09674 0.0
O413 O 0.04661 0.80049 0.12299 0.0
O414 O 0.02565 0.77977 0.0961 0.0
O415 O 0.04461 0.76551 0.12105 0.0
H416 H 0.08925 0.7988 0.10114 0.0
H417 H 0.05379 0.77278 0.06604 0.0
H418 H 0.10633 0.80278 0.07963 0.0
H419 H 0.07143 0.77731 0.04512 0.0
H420 H 0.05328 0.8152 0.17656 0.0
H421 H 0.05982 0.82936 0.1221 0.0
H422 H 0.04433 0.79556 0.15318 0.0
H423 H 0.06844 0.84845 0.14601 0.0
H424 H 0.06656 0.8477 0.07982 0.0
H425 H 0.01729 0.83363 0.07143 0.0
H426 H 0.10162 0.76031 0.14547 0.0
H427 H 0.1085 0.80947 0.15752 0.0
H428 H 0.99733 0.76508 0.09713 0.0
H429 H 0.02977 0.78368 0.066 0.0
H430 H 0.97803 0.75644 0.07338 0.0
H431 H 0.00993 0.77467 0.04278 0.0
H432 H 0.02928 0.73698 0.11476 0.0
H433 H 0.05354 0.77119 0.15215 0.0
H434 H 0.02443 0.71878 0.13509 0.0
H435 H 0.04818 0.75243 0.17184 0.0
H436 H 0.06168 0.71837 0.08414 0.0
H437 H 0.01553 0.71763 0.06255 0.0
H438 H 0.99428 0.8028 0.15339 0.0
H439 H 0.9849 0.75338 0.14273 0.0
Li440 Li 0.50536 0.77633 0.43768 0.0
Li441 Li 0.48817 0.75916 0.41492 0.0
Li442 Li 0.50434 0.74674 0.43643 0.0
Li443 Li 0.51722 0.76133 0.41555 0.0
C444 C 0.4788 0.76253 0.45083 0.0
N445 N 0.46149 0.7692 0.47516 0.0
C446 C 0.46563 0.76874 0.44757 0.0
C447 C 0.4831 0.75955 0.4664 0.0
C448 C 0.45705 0.77209 0.46005 0.0
C449 C 0.47421 0.76304 0.47855 0.0
C450 C 0.50222 0.78619 0.40181 0.0
C451 C 0.50009 0.78889 0.37357 0.0
N452 N 0.49792 0.80356 0.37687 0.0
C453 C 0.50005 0.80132 0.40493 0.0
C454 C 0.50231 0.77994 0.38602 0.0
C455 C 0.49786 0.8099 0.39215 0.0
C456 C 0.52047 0.80536 0.4572 0.0
N457 N 0.50684 0.79706 0.44984 0.0
C458 C 0.49481 0.81903 0.4551 0.0
C459 C 0.49412 0.80365 0.4489 0.0
C460 C 0.50877 0.82807 0.46243 0.0
C461 C 0.52166 0.8208 0.46364 0.0
H462 H 0.5306 0.80018 0.45761 0.0
H463 H 0.48346 0.79717 0.44269 0.0
C464 C 0.46013 0.7445 0.39397 0.0
N465 N 0.4685 0.75804 0.40141 0.0
C466 C 0.44621 0.74414 0.38439 0.0
C467 C 0.4496 0.7716 0.39024 0.0
C468 C 0.46336 0.77142 0.39978 0.0
C469 C 0.44072 0.75784 0.38229 0.0
H470 H 0.46426 0.73393 0.39543 0.0
H471 H 0.4699 0.78205 0.40599 0.0
C472 C 0.53283 0.76348 0.45224 0.0
N473 N 0.55346 0.76192 0.4783 0.0
C474 C 0.54684 0.75904 0.44996 0.0
C475 C 0.52935 0.76726 0.46775 0.0
C476 C 0.5571 0.75828 0.46329 0.0
C477 C 0.53992 0.76636 0.48078 0.0
C478 C 0.50229 0.73219 0.39982 0.0
C479 C 0.5094 0.71971 0.40254 0.0
C480 C 0.49648 0.7339 0.38427 0.0
C481 C 0.51078 0.70926 0.38958 0.0
C482 C 0.49809 0.72321 0.37163 0.0
N483 N 0.50516 0.71121 0.37452 0.0
C484 C 0.49322 0.71943 0.45305 0.0
C485 C 0.51922 0.72265 0.44839 0.0
C486 C 0.49414 0.70539 0.45935 0.0
N487 N 0.50565 0.72781 0.44758 0.0
C488 C 0.52065 0.70873 0.45457 0.0
C489 C 0.50797 0.6996 0.46005 0.0
H490 H 0.4824 0.72343 0.4522 0.0
H491 H 0.52897 0.72913 0.44378 0.0
C492 C 0.54001 0.77499 0.39606 0.0
N493 N 0.53479 0.7621 0.40292 0.0
C494 C 0.55276 0.7758 0.38732 0.0
C495 C 0.5549 0.7502 0.39308 0.0
C496 C 0.54207 0.74986 0.40166 0.0
C497 C 0.56047 0.7633 0.38568 0.0
H498 H 0.53443 0.7848 0.39752 0.0
H499 H 0.53805 0.73985 0.40748 0.0
O500 O 0.48723 0.75902 0.43874 0.0
O501 O 0.5044 0.77763 0.41419 0.0
O502 O 0.52267 0.76433 0.43934 0.0
O503 O 0.5006 0.74239 0.41239 0.0
H504 H 0.46209 0.77099 0.43553 0.0
H505 H 0.49313 0.75451 0.46905 0.0
H506 H 0.44686 0.77695 0.45772 0.0
H507 H 0.4774 0.76082 0.49068 0.0
H508 H 0.50016 0.7842 0.36129 0.0
H509 H 0.50008 0.8064 0.41708 0.0
H510 H 0.50427 0.76837 0.38343 0.0
H511 H 0.49615 0.82161 0.39439 0.0
H512 H 0.48445 0.82383 0.45397 0.0
H513 H 0.53275 0.82714 0.46896 0.0
H514 H 0.43993 0.73323 0.37849 0.0
H515 H 0.44583 0.78245 0.38936 0.0
H516 H 0.54971 0.75616 0.43801 0.0
H517 H 0.51863 0.77091 0.46968 0.0
H518 H 0.56797 0.75481 0.46172 0.0
H519 H 0.53739 0.76923 0.49286 0.0
H520 H 0.51383 0.71812 0.4145 0.0
H521 H 0.49064 0.74328 0.38198 0.0
H522 H 0.51631 0.69958 0.39151 0.0
H523 H 0.49366 0.7244 0.35953 0.0
H524 H 0.48391 0.69891 0.46316 0.0
H525 H 0.53168 0.70516 0.45498 0.0
H526 H 0.55673 0.78629 0.38218 0.0
H527 H 0.56032 0.74022 0.39217 0.0
Li528 Li 0.54561 0.29651 0.59856 0.0
Li529 Li 0.56075 0.28444 0.62019 0.0
Li530 Li 0.54305 0.26689 0.59709 0.0
Li531 Li 0.53149 0.28106 0.61933 0.0
C532 C 0.571 0.28565 0.58447 0.0
N533 N 0.58978 0.29007 0.56041 0.0
C534 C 0.58622 0.29326 0.58815 0.0
C535 C 0.56532 0.28025 0.56859 0.0
C536 C 0.59554 0.29539 0.5758 0.0
C537 C 0.57499 0.28263 0.55659 0.0
C538 C 0.55174 0.3115 0.63524 0.0
C539 C 0.55294 0.31994 0.66337 0.0
N540 N 0.56024 0.3341 0.66076 0.0
C541 C 0.5592 0.32613 0.6328 0.0
C542 C 0.54852 0.30835 0.65061 0.0
C543 C 0.56342 0.33741 0.64588 0.0
C544 C 0.53087 0.31952 0.58467 0.0
N545 N 0.54485 0.31538 0.58743 0.0
C546 C 0.55674 0.33869 0.57749 0.0
C547 C 0.55768 0.32468 0.58382 0.0
C548 C 0.54247 0.34345 0.57479 0.0
C549 C 0.52943 0.33337 0.57835 0.0
H550 H 0.52076 0.31215 0.58767 0.0
H551 H 0.56876 0.32146 0.58625 0.0
C552 C 0.58477 0.27178 0.63584 0.0
N553 N 0.58022 0.28542 0.63405 0.0
C554 C 0.59838 0.27115 0.64542 0.0
C555 C 0.6028 0.29867 0.65108 0.0
C556 C 0.58901 0.29878 0.64144 0.0
C557 C 0.60772 0.2847 0.65329 0.0
H558 H 0.5778 0.26128 0.62976 0.0
H559 H 0.58536 0.30956 0.63988 0.0
C560 C 0.51546 0.27501 0.58297 0.0
N561 N 0.49289 0.26516 0.55761 0.0
C562 C 0.50113 0.26698 0.58559 0.0
C563 C 0.51831 0.27815 0.5675 0.0
C564 C 0.48987 0.26206 0.57259 0.0
C565 C 0.50675 0.27304 0.55482 0.0
C566 C 0.54349 0.25569 0.63202 0.0
C567 C 0.53727 0.24015 0.62771 0.0
C568 C 0.54812 0.26113 0.6481 0.0
C569 C 0.5357 0.23029 0.63963 0.0
C570 C 0.54638 0.2509 0.65967 0.0
N571 N 0.54025 0.23582 0.65524 0.0
C572 C 0.55411 0.24076 0.58279 0.0
C573 C 0.52706 0.23728 0.58001 0.0
C574 C 0.55345 0.22546 0.5763 0.0
N575 N 0.54104 0.2464 0.58469 0.0
C576 C 0.52587 0.22192 0.57343 0.0
C577 C 0.53917 0.2156 0.5717 0.0
H578 H 0.56514 0.24801 0.58677 0.0
H579 H 0.51674 0.24168 0.58196 0.0
C580 C 0.50711 0.29267 0.63348 0.0
N581 N 0.51384 0.28009 0.63175 0.0
C582 C 0.49413 0.29244 0.64181 0.0
C583 C 0.4952 0.26636 0.6466 0.0
C584 C 0.50805 0.26703 0.63806 0.0
C585 C 0.48796 0.27915 0.64859 0.0
H586 H 0.51178 0.30291 0.6283 0.0
H587 H 0.51324 0.25701 0.63632 0.0
O588 O 0.56186 0.28313 0.59644 0.0
O589 O 0.5473 0.30041 0.62256 0.0
O590 O 0.52657 0.28 0.59555 0.0
O591 O 0.54509 0.2655 0.62051 0.0
H592 H 0.59079 0.2974 0.60042 0.0
H593 H 0.55361 0.27418 0.56561 0.0
H594 H 0.60735 0.30122 0.57846 0.0
H595 H 0.57077 0.2785 0.54424 0.0
H596 H 0.55053 0.31769 0.67534 0.0
H597 H 0.56169 0.32873 0.62094 0.0
H598 H 0.54259 0.29712 0.65263 0.0
H599 H 0.56921 0.34879 0.64419 0.0
H600 H 0.56724 0.34592 0.57521 0.0
H601 H 0.51808 0.33612 0.57631 0.0
H602 H 0.60166 0.26009 0.6464 0.0
H603 H 0.60943 0.30945 0.65692 0.0
H604 H 0.49875 0.26454 0.59754 0.0
H605 H 0.5293 0.28453 0.56533 0.0
H606 H 0.47873 0.25578 0.57442 0.0
H607 H 0.50878 0.27537 0.54277 0.0
H608 H 0.53364 0.23577 0.6153 0.0
H609 H 0.55305 0.27311 0.6516 0.0
H610 H 0.53087 0.21824 0.63649 0.0
H611 H 0.54991 0.25494 0.67218 0.0
H612 H 0.56409 0.2214 0.57507 0.0
H613 H 0.51456 0.2149 0.57036 0.0
H614 H 0.48909 0.30265 0.64307 0.0
H615 H 0.49078 0.25575 0.65131 0.0
Li616 Li 0.0058 0.27559 0.93782 0.0
Li617 Li 0.98816 0.25832 0.91503 0.0
Li618 Li 0.00407 0.24593 0.93686 0.0
Li619 Li 0.01746 0.2605 0.91576 0.0
C620 C 0.97834 0.26163 0.95063 0.0
N621 N 0.96004 0.26747 0.9743 0.0
C622 C 0.96468 0.26686 0.94684 0.0
C623 C 0.98263 0.2592 0.9664 0.0
C624 C 0.9556 0.2698 0.95899 0.0
C625 C 0.97324 0.26226 0.97821 0.0
C626 C 0.00607 0.28675 0.90315 0.0
C627 C 0.01059 0.29243 0.87643 0.0
N628 N 0.00903 0.30719 0.88045 0.0
C629 C 0.00454 0.30198 0.90703 0.0
C630 C 0.00912 0.28191 0.88774 0.0
C631 C 0.00605 0.31214 0.89537 0.0
C632 C 0.02207 0.30544 0.95357 0.0
N633 N 0.00792 0.29639 0.94982 0.0
C634 C 0.99619 0.31777 0.95852 0.0
C635 C 0.9951 0.30233 0.95229 0.0
C636 C 0.01063 0.32754 0.96217 0.0
C637 C 0.02368 0.32098 0.95976 0.0
H638 H 0.03218 0.30073 0.95128 0.0
H639 H 0.98391 0.2953 0.94879 0.0
C640 C 0.95599 0.24626 0.90356 0.0
N641 N 0.96851 0.25682 0.90148 0.0
C642 C 0.94178 0.24567 0.89445 0.0
C643 C 0.95348 0.26674 0.88111 0.0
C644 C 0.96741 0.26694 0.89046 0.0
C645 C 0.9403 0.25604 0.88299 0.0
H646 H 0.95699 0.23834 0.91241 0.0
H647 H 0.97727 0.2754 0.88898 0.0
C648 C 0.03351 0.26404 0.95233 0.0
N649 N 0.05539 0.26586 0.97819 0.0
C650 C 0.04802 0.26087 0.94999 0.0
C651 C 0.03013 0.26822 0.96778 0.0
C652 C 0.05892 0.26183 0.96323 0.0
C653 C 0.04135 0.26905 0.98072 0.0
C654 C 1.00007 0.2303 0.90074 0.0
C655 C 0.00587 0.2171 0.90368 0.0
C656 C 0.99345 0.2317 0.8854 0.0
C657 C 0.00501 0.20548 0.89112 0.0
C658 C 0.99283 0.21983 0.87317 0.0
N659 N 0.99857 0.20707 0.87626 0.0
C660 C 0.9915 0.21618 0.94753 0.0
C661 C 0.01823 0.22382 0.95426 0.0
C662 C 0.99187 0.20195 0.95359 0.0
N663 N 0.00458 0.22685 0.94785 0.0
C664 C 0.0191 0.2098 0.96049 0.0
C665 C 0.00585 0.19838 0.96012 0.0
H666 H 0.98075 0.2185 0.94216 0.0
H667 H 0.02863 0.23214 0.95427 0.0
C668 C 0.04705 0.27346 0.90716 0.0
N669 N 0.03506 0.26151 0.90312 0.0
C670 C 0.06017 0.27462 0.89894 0.0
C671 C 0.04842 0.25125 0.88236 0.0
C672 C 0.03557 0.25052 0.89092 0.0
C673 C 0.06106 0.26338 0.88632 0.0
H674 H 0.04649 0.28211 0.91688 0.0
H675 H 0.02608 0.24106 0.8878 0.0
O676 O 0.9873 0.25859 0.93888 0.0
O677 O 0.0045 0.27662 0.91437 0.0
O678 O 0.02272 0.26319 0.93951 0.0
O679 O 1.0007 0.24174 0.91288 0.0
H680 H 0.96118 0.26873 0.93466 0.0
H681 H 0.99307 0.25493 0.96945 0.0
H682 H 0.94503 0.27393 0.95626 0.0
H683 H 0.97642 0.26047 0.99048 0.0
H684 H 0.01293 0.28885 0.86445 0.0
H685 H 1.00211 0.3059 0.91888 0.0
H686 H 0.0102 0.27012 0.88453 0.0
H687 H 0.00485 0.32394 0.89819 0.0
H688 H 0.98571 0.32214 0.95982 0.0
H689 H 0.03511 0.32783 0.96247 0.0
H690 H 0.93208 0.23708 0.89632 0.0
H691 H 0.95303 0.27519 0.87273 0.0
H692 H 0.05079 0.25764 0.93807 0.0
H693 H 0.01899 0.27086 0.96974 0.0
H694 H 0.0702 0.25936 0.96162 0.0
H695 H 0.03891 0.27226 0.99276 0.0
H696 H 0.01099 0.21585 0.91551 0.0
H697 H 0.98893 0.24187 0.88296 0.0
H698 H 0.00947 0.19519 0.89319 0.0
H699 H 0.98778 0.22075 0.86121 0.0
H700 H 0.98129 0.19366 0.95268 0.0
H701 H 0.03018 0.20798 0.96554 0.0
H702 H 0.06945 0.28432 0.90237 0.0
H703 H 0.04853 0.24217 0.87293 0.0
Li704 Li 0.3881 0.01671 0.29708 0.0
Li705 Li 0.36621 0.0035 0.2786 0.0
Li706 Li 0.38799 0.01937 0.26867 0.0
Li707 Li 0.36945 0.03091 0.28414 0.0
C708 C 0.39701 0.99032 0.28156 0.0
N709 N 0.41621 0.9696 0.28674 0.0
C710 C 0.39097 0.97548 0.28479 0.0
C711 C 0.41277 0.99456 0.28073 0.0
C712 C 0.40089 0.96519 0.28744 0.0
C713 C 0.42229 0.98394 0.28345 0.0
C714 C 0.35554 0.01352 0.30986 0.0
C715 C 0.32976 0.01332 0.31655 0.0
N716 N 0.33375 0.00868 0.33101 0.0
C717 C 0.3594 0.00881 0.3248 0.0
C718 C 0.34062 0.01584 0.30569 0.0
C719 C 0.34821 0.00639 0.33532 0.0
C720 C 0.40595 0.03032 0.32471 0.0
N721 N 0.40033 0.01648 0.31612 0.0
C722 C 0.41326 0.00356 0.33503 0.0
C723 C 0.40338 0.00318 0.32118 0.0
C724 C 0.41971 0.01775 0.34379 0.0
C725 C 0.41577 0.03124 0.3387 0.0
H726 H 0.40296 0.04065 0.32053 0.0
H727 H 0.3982 0.99231 0.31449 0.0
C728 C 0.34996 0.97797 0.2589 0.0
N729 N 0.35192 0.98529 0.274 0.0
C730 C 0.3399 0.964 0.25521 0.0
C731 C 0.33452 0.96519 0.28284 0.0
C732 C 0.34456 0.97917 0.28594 0.0
C733 C 0.33219 0.95741 0.26734 0.0
H734 H 0.35654 0.98275 0.24985 0.0
H735 H 0.3469 0.98476 0.298 0.0
C736 C 0.40555 0.0462 0.28708 0.0
N737 N 0.43247 0.06709 0.28733 0.0
C738 C 0.40505 0.06133 0.28423 0.0
C739 C 0.4197 0.04171 0.29019 0.0
C740 C 0.4188 0.07171 0.28436 0.0
C741 C 0.43319 0.05244 0.29024 0.0
C742 C 0.35414 0.01393 0.25102 0.0
C743 C 0.35727 0.00956 0.23551 0.0
C744 C 0.33893 0.01308 0.25429 0.0
C745 C 0.34507 0.00414 0.22356 0.0
C746 C 0.32706 0.00758 0.24201 0.0
N747 N 0.33035 0.00325 0.22703 0.0
C748 C 0.40132 0.00731 0.24358 0.0
C749 C 0.40666 0.03456 0.24733 0.0
C750 C 0.40982 0.00719 0.23057 0.0
N751 N 0.39999 0.02085 0.25166 0.0
C752 C 0.41543 0.03499 0.23447 0.0
C753 C 0.41699 0.02116 0.22592 0.0
H754 H 0.39567 0.99661 0.24721 0.0
H755 H 0.40504 0.04514 0.2537 0.0
C756 C 0.35684 0.05317 0.3012 0.0
N757 N 0.35944 0.04725 0.2865 0.0
C758 C 0.34939 0.06566 0.30262 0.0
C759 C 0.34759 0.06553 0.27376 0.0
C760 C 0.35496 0.05302 0.2729 0.0
C761 C 0.34489 0.07204 0.28877 0.0
H762 H 0.36068 0.04827 0.31176 0.0
H763 H 0.35728 0.04798 0.26143 0.0
O764 O 0.38747 1.00053 0.27896 0.0
O765 O 0.36632 0.01566 0.29935 0.0
O766 O 0.39218 0.03595 0.28705 0.0
O767 O 0.36594 0.01911 0.2629 0.0
H768 H 0.37878 0.972 0.28537 0.0
H769 H 0.41757 0.00589 0.27792 0.0
H770 H 0.3964 0.9537 0.29006 0.0
H771 H 0.43452 0.98708 0.28291 0.0
H772 H 0.31816 0.01504 0.31348 0.0
H773 H 0.37089 0.00692 0.32819 0.0
H774 H 0.33745 0.01954 0.29421 0.0
H775 H 0.35102 0.00269 0.3469 0.0
H776 H 0.41583 0.99292 0.33886 0.0
H777 H 0.42055 0.04237 0.34523 0.0
H778 H 0.33851 0.95822 0.24314 0.0
H779 H 0.32924 0.96019 0.29267 0.0
H780 H 0.39415 0.06498 0.28188 0.0
H781 H 0.42026 0.03012 0.29266 0.0
H782 H 0.4186 0.08345 0.28211 0.0
H783 H 0.44424 0.04913 0.29262 0.0
H784 H 0.36898 0.01024 0.23277 0.0
H785 H 0.33633 0.01654 0.26618 0.0
H786 H 0.34731 1.00062 0.21152 0.0
H787 H 0.31523 0.00676 0.24439 0.0
H788 H 0.41087 0.99631 0.22429 0.0
H789 H 0.42067 0.04596 0.23105 0.0
H790 H 0.34755 0.07055 0.31436 0.0
H791 H 0.34413 0.07013 0.26284 0.0
Li792 Li 0.26897 0.17375 0.52173 0.0
Li793 Li 0.27965 0.15331 0.50638 0.0
Li794 Li 0.26712 0.17253 0.49181 0.0
Li795 Li 0.25136 0.15148 0.50416 0.0
C796 C 0.29704 0.18876 0.51101 0.0
N797 N 0.31995 0.21449 0.51722 0.0
C798 C 0.31181 0.18745 0.5172 0.0
C799 C 0.29392 0.2031 0.50789 0.0
C800 C 0.32324 0.20061 0.52028 0.0
C801 C 0.30565 0.21599 0.51114 0.0
C802 C 0.26749 0.14005 0.53309 0.0
C803 C 0.26428 0.11325 0.53706 0.0
N804 N 0.27075 0.11721 0.55247 0.0
C805 C 0.27403 0.14387 0.54898 0.0
C806 C 0.2625 0.12464 0.52708 0.0
C807 C 0.27562 0.13215 0.55858 0.0
C808 C 0.25785 0.18971 0.54733 0.0
N809 N 0.27092 0.18638 0.54186 0.0
C810 C 0.28576 0.1989 0.56615 0.0
C811 C 0.28474 0.19083 0.5509 0.0
C812 C 0.27242 0.20245 0.57217 0.0
C813 C 0.25835 0.19784 0.56244 0.0
H814 H 0.24695 0.18575 0.5401 0.0
H815 H 0.29494 0.18781 0.54643 0.0
C816 C 0.30071 0.13694 0.49246 0.0
N817 N 0.29623 0.14224 0.50657 0.0
C818 C 0.31316 0.12928 0.49233 0.0
C819 C 0.31616 0.13271 0.52125 0.0
C820 C 0.30373 0.14037 0.52081 0.0
C821 C 0.32112 0.1271 0.50688 0.0
H822 H 0.29474 0.13885 0.48128 0.0
H823 H 0.30019 0.14497 0.53186 0.0
C824 C 0.24152 0.18431 0.50393 0.0
N825 N 0.22286 0.2056 0.4993 0.0
C826 C 0.22644 0.17954 0.49672 0.0
C827 C 0.24709 0.19987 0.50889 0.0
C828 C 0.21719 0.1905 0.49445 0.0
C829 C 0.23748 0.21046 0.50641 0.0
C830 C 0.25989 0.1381 0.47484 0.0
C831 C 0.25376 0.14103 0.45984 0.0
C832 C 0.26126 0.12312 0.47751 0.0
C833 C 0.24896 0.12885 0.44774 0.0
C834 C 0.25633 0.11124 0.46511 0.0
N835 N 0.25033 0.11433 0.45061 0.0
C836 C 0.28131 0.1844 0.46602 0.0
C837 C 0.25658 0.1904 0.46753 0.0
C838 C 0.28279 0.19159 0.45203 0.0
N839 N 0.26834 0.18387 0.47343 0.0
C840 C 0.25763 0.19782 0.45366 0.0
C841 C 0.2708 0.19838 0.44556 0.0
H842 H 0.29043 0.17896 0.47082 0.0
H843 H 0.24626 0.18969 0.47338 0.0
C844 C 0.22643 0.13516 0.51713 0.0
N845 N 0.23182 0.13809 0.50298 0.0
C846 C 0.21202 0.12601 0.51741 0.0
C847 C 0.20888 0.12303 0.48849 0.0
C848 C 0.22337 0.13227 0.48878 0.0
C849 C 0.20296 0.11985 0.50296 0.0
H850 H 0.23329 0.14006 0.52826 0.0
H851 H 0.22771 0.13502 0.47767 0.0
O852 O 0.28585 0.17595 0.50759 0.0
O853 O 0.26573 0.15139 0.52361 0.0
O854 O 0.25068 0.17374 0.50628 0.0
O855 O 0.26491 0.14994 0.48669 0.0
H856 H 0.31441 0.17638 0.51956 0.0
H857 H 0.2826 0.20424 0.50287 0.0
H858 H 0.33473 0.19979 0.52506 0.0
H859 H 0.30341 0.22718 0.50878 0.0
H860 H 0.26047 0.10127 0.53258 0.0
H861 H 0.27787 0.15577 0.55382 0.0
H862 H 0.25721 0.12151 0.51489 0.0
H863 H 0.2807 0.13493 0.57088 0.0
H864 H 0.29686 0.20228 0.57317 0.0
H865 H 0.24774 0.20004 0.56665 0.0
H866 H 0.31669 0.1254 0.48095 0.0
H867 H 0.32177 0.13116 0.53277 0.0
H868 H 0.22196 0.16752 0.49288 0.0
H869 H 0.25868 0.2037 0.51464 0.0
H870 H 0.20551 0.187 0.48885 0.0
H871 H 0.24164 0.22255 0.51017 0.0
H872 H 0.25273 0.1526 0.45757 0.0
H873 H 0.2662 0.1207 0.48898 0.0
H874 H 0.24418 0.13093 0.43607 0.0
H875 H 0.25732 0.09959 0.46699 0.0
H876 H 0.29307 0.19145 0.44614 0.0
H877 H 0.24815 0.20303 0.44934 0.0
H878 H 0.20806 0.12375 0.52886 0.0
H879 H 0.20224 0.11876 0.47706 0.0
Li880 Li 0.14306 0.04458 0.7794 0.0
Li881 Li 0.12205 0.02852 0.79141 0.0
Li882 Li 0.14124 0.01628 0.77683 0.0
Li883 Li 0.1208 0.0269 0.76157 0.0
C884 C 0.1566 0.03547 0.8084 0.0
N885 N 0.18075 0.04404 0.83238 0.0
C886 C 0.15385 0.04016 0.82396 0.0
C887 C 0.17161 0.0351 0.80502 0.0
C888 C 0.16622 0.04446 0.83592 0.0
C889 C 0.18367 0.03949 0.81731 0.0
C890 C 0.11032 0.05409 0.78101 0.0
C891 C 0.08427 0.05834 0.78011 0.0
N892 N 0.08938 0.07237 0.78857 0.0
C893 C 0.11534 0.06859 0.78955 0.0
C894 C 0.09469 0.04894 0.77612 0.0
C895 C 0.10456 0.07765 0.79332 0.0
C896 C 0.15885 0.06994 0.76674 0.0
N897 N 0.15645 0.06415 0.78082 0.0
C898 C 0.17219 0.08665 0.79546 0.0
C899 C 0.16286 0.07218 0.79506 0.0
C900 C 0.17481 0.09299 0.78108 0.0
C901 C 0.16803 0.08436 0.76658 0.0
H902 H 0.15353 0.06337 0.75559 0.0
H903 H 0.16057 0.0675 0.80613 0.0
C904 C 0.10583 0.01311 0.81432 0.0
N905 N 0.11074 0.02725 0.80978 0.0
C906 C 0.09869 0.01157 0.82832 0.0
C907 C 0.1017 0.03917 0.83276 0.0
C908 C 0.10884 0.04018 0.81871 0.0
C909 C 0.09664 0.02472 0.83785 0.0
H910 H 0.10774 0.003 0.80723 0.0
H911 H 0.11328 0.05131 0.81522 0.0
C912 C 0.15421 0.02772 0.75015 0.0
N913 N 0.17634 0.02247 0.73052 0.0
C914 C 0.14991 0.01981 0.73486 0.0
C915 C 0.16974 0.03313 0.7554 0.0
C916 C 0.16128 0.01721 0.72514 0.0
C917 C 0.18076 0.03032 0.74531 0.0
C918 C 0.10597 0.99857 0.77164 0.0
C919 C 0.10763 0.98373 0.7661 0.0
C920 C 0.09137 1.00167 0.77364 0.0
C921 C 0.09459 0.9722 0.76257 0.0
C922 C 0.07861 0.98984 0.76995 0.0
N923 N 0.08047 0.97547 0.76455 0.0
C924 C 0.15902 0.99632 0.79066 0.0
C925 C 0.1532 0.99135 0.7625 0.0
C926 C 0.16704 0.98416 0.79087 0.0
N927 N 0.15245 0.99979 0.77659 0.0
C928 C 0.1611 0.97909 0.76215 0.0
C929 C 0.16821 0.97535 0.77647 0.0
H930 H 0.15793 0.00292 0.80177 0.0
H931 H 0.14743 0.99397 0.75155 0.0
C932 C 0.10547 0.03842 0.73593 0.0
N933 N 0.10815 0.02516 0.74148 0.0
C934 C 0.09737 0.03816 0.72085 0.0
C935 C 0.0948 0.01056 0.71741 0.0
C936 C 0.10297 0.01136 0.73258 0.0
C937 C 0.09198 0.02411 0.71126 0.0
H938 H 0.10994 0.04928 0.74311 0.0
H939 H 0.10543 1.00098 0.7371 0.0
O940 O 0.14458 0.03091 0.79665 0.0
O941 O 0.12072 0.04514 0.77711 0.0
O942 O 0.14323 0.03045 0.75977 0.0
O943 O 0.11865 0.00988 0.7755 0.0
H944 H 0.14229 0.04042 0.82678 0.0
H945 H 0.1739 0.0313 0.7931 0.0
H946 H 0.16427 0.04809 0.84803 0.0
H947 H 0.19535 0.03922 0.81489 0.0
H948 H 0.07212 0.0545 0.77644 0.0
H949 H 0.12744 0.07277 0.79331 0.0
H950 H 0.09066 0.03787 0.76922 0.0
H951 H 0.10827 0.08887 0.80001 0.0
H952 H 0.17699 0.09294 0.80693 0.0
H953 H 0.16985 0.08866 0.75519 0.0
H954 H 0.0949 1.00019 0.83169 0.0
H955 H 0.10064 0.04964 0.83985 0.0
H956 H 0.13792 0.01565 0.73059 0.0
H957 H 0.17323 0.03953 0.76708 0.0
H958 H 0.15813 0.01104 0.7133 0.0
H959 H 0.19282 0.03441 0.74922 0.0
H960 H 0.11889 0.98114 0.76462 0.0
H961 H 0.08994 0.01305 0.77815 0.0
H962 H 0.0957 0.96065 0.7583 0.0
H963 H 0.06723 0.99205 0.77145 0.0
H964 H 0.17236 0.98177 0.8022 0.0
H965 H 0.16135 0.97243 0.75081 0.0
H966 H 0.09576 0.04893 0.71658 0.0
H967 H 0.09078 0.99945 0.71057 0.0
Li968 Li 0.27054 0.92729 0.9993 0.0
Li969 Li 0.28081 0.90946 0.01605 0.0
Li970 Li 0.29723 0.92943 0.00439 0.0
Li971 Li 0.28236 0.90704 0.98744 0.0
C972 C 0.2899 0.94287 0.03238 0.0
N973 N 0.30484 0.96499 0.05654 0.0
C974 C 0.29493 0.93863 0.04722 0.0
C975 C 0.2923 0.95838 0.0299 0.0
C976 C 0.3025 0.94998 0.05926 0.0
C977 C 0.29993 0.96938 0.04225 0.0
C978 C 0.25339 0.89204 -0.00054 0.0
C979 C 0.24649 0.86449 0.99805 0.0
N980 N 0.23206 0.86587 0.00124 0.0
C981 C 0.23849 0.8932 0.00266 0.0
C982 C 0.25743 0.87759 0.99708 0.0
C983 C 0.22788 0.87983 0.00355 0.0
C984 C 0.24558 0.93541 0.98201 0.0
N985 N 0.25462 0.93776 0.99621 0.0
C986 C 0.23918 0.95407 0.00773 0.0
C987 C 0.25183 0.94695 0.00891 0.0
C988 C 0.2294 0.95158 0.99336 0.0
C989 C 0.23281 0.94241 0.98025 0.0
H990 H 0.24805 0.92777 0.97227 0.0
H991 H 0.25916 0.94835 0.02009 0.0
C992 C 0.29128 0.89338 0.03974 0.0
N993 N 0.27865 0.89836 0.03356 0.0
C994 C 0.29037 0.88446 0.05239 0.0
C995 C 0.26363 0.88661 0.05255 0.0
C996 C 0.26504 0.89542 0.03977 0.0
C997 C 0.27637 0.88087 0.05879 0.0
H998 H 0.30205 0.89634 0.03484 0.0
H999 H 0.2553 0.89984 0.03475 0.0
C1000 C 0.28191 0.93841 0.97281 0.0
N1001 N 0.27545 0.95833 0.95101 0.0
C1002 C 0.27747 0.93292 0.95669 0.0
C1003 C 0.2831 0.95402 0.97783 0.0
C1004 C 0.27425 0.94319 0.94585 0.0
C1005 C 0.27974 0.96391 0.96663 0.0
C1006 C 0.30892 0.89805 0.00196 0.0
C1007 C 0.32337 0.90381 0.9975 0.0
C1008 C 0.30474 0.88236 0.00325 0.0
C1009 C 0.33334 0.8937 0.9942 0.0
C1010 C 0.31502 0.87264 -0.00016 0.0
N1011 N 0.32899 0.87846 0.99541 0.0
C1012 C 0.32459 0.94529 0.02131 0.0
C1013 C 0.32028 0.94988 0.99412 0.0
C1014 C 0.33865 0.95523 0.02316 0.0
N1015 N 0.31572 0.943 0.00702 0.0
C1016 C 0.33435 0.95973 0.99536 0.0
C1017 C 0.34365 0.9624 0.01001 0.0
H1018 H 0.32091 0.93911 0.03111 0.0
H1019 H 0.31322 0.94737 0.98276 0.0
C1020 C 0.26631 0.8894 0.96109 0.0
N1021 N 0.28065 0.89342 0.96905 0.0
C1022 C 0.26369 0.87929 0.94713 0.0
C1023 C 0.29073 0.8779 0.94978 0.0
C1024 C 0.29285 0.88819 0.96356 0.0
C1025 C 0.27599 0.87335 0.9415 0.0
H1026 H 0.25694 0.89414 0.96557 0.0
H1027 H 0.30422 0.89209 0.96969 0.0
O1028 O 0.28232 0.93193 0.02049 0.0
O1029 O 0.2638 0.90503 0.99829 0.0
O1030 O 0.28571 0.92863 0.98345 0.0
O1031 O 0.29905 0.90779 0.00532 0.0
H1032 H 0.29306 0.9267 0.04941 0.0
H1033 H 0.28832 0.96189 0.01857 0.0
H1034 H 0.30652 0.94685 0.07078 0.0
H1035 H 0.30192 0.98142 0.04047 0.0
H1036 H 0.24944 0.85322 0.9962 0.0
H1037 H 0.23519 0.90433 0.00443 0.0
H1038 H 0.26884 0.8765 0.99436 0.0
H1039 H 0.21631 0.88054 0.00604 0.0
H1040 H 0.23683 0.96113 0.01804 0.0
H1041 H 0.22534 0.94015 0.96908 0.0
H1042 H 0.30051 0.88049 0.05718 0.0
H1043 H 0.25269 0.88408 0.0573 0.0
H1044 H 0.27669 0.92091 0.95257 0.0
H1045 H 0.28668 0.95846 0.99022 0.0
H1046 H 0.27088 0.93912 0.93333 0.0
H1047 H 0.28063 0.97602 0.97035 0.0
H1048 H 0.32682 0.91593 0.99651 0.0
H1049 H 0.29371 0.87775 0.00693 0.0
H1050 H 0.34453 0.89798 0.99067 0.0
H1051 H 0.31192 0.86047 0.00075 0.0
H1052 H 0.34584 0.95673 0.03449 0.0
H1053 H 0.33809 0.96492 0.98493 0.0
H1054 H 0.2522 0.87607 0.9409 0.0
H1055 H 0.30052 0.87378 0.94545 0.0
Li1056 Li 0.26977 0.38882 0.02757 0.0
Li1057 Li 0.28192 0.37008 0.04141 0.0
Li1058 Li 0.29834 0.39121 0.02848 0.0
Li1059 Li 0.28093 0.36845 0.01154 0.0
C1060 C 0.28469 0.40455 0.05774 0.0
N1061 N 0.28286 0.42841 0.08043 0.0
C1062 C 0.27851 0.4015 0.07199 0.0
C1063 C 0.29016 0.41971 0.05513 0.0
C1064 C 0.27762 0.41373 0.08328 0.0
C1065 C 0.28907 0.43163 0.06673 0.0
C1066 C 0.25237 0.35397 0.02624 0.0
C1067 C 0.2424 0.32675 0.02236 0.0
N1068 N 0.22945 0.32929 0.02871 0.0
C1069 C 0.23889 0.35634 0.03254 0.0
C1070 C 0.25409 0.33909 0.02093 0.0
C1071 C 0.22747 0.3437 0.03377 0.0
C1072 C 0.24692 0.40383 0.0137 0.0
N1073 N 0.25293 0.39968 0.02768 0.0
C1074 C 0.23449 0.4104 0.04187 0.0
C1075 C 0.2468 0.40257 0.04158 0.0
C1076 C 0.22841 0.41528 0.02769 0.0
C1077 C 0.23475 0.41183 0.01346 0.0
H1078 H 0.2515 0.40084 0.00266 0.0
H1079 H 0.25133 0.39864 0.05244 0.0
C1080 C 0.29335 0.35427 0.0668 0.0
N1081 N 0.28079 0.35893 0.05988 0.0
C1082 C 0.29254 0.34686 0.0807 0.0
C1083 C 0.26597 0.34945 0.08033 0.0
C1084 C 0.26729 0.35674 0.06642 0.0
C1085 C 0.27871 0.34441 0.08774 0.0
H1086 H 0.30411 0.35651 0.06169 0.0
H1087 H 0.25764 0.36109 0.06114 0.0
C1088 C 0.28312 0.40221 -0.0002 0.0
N1089 N 0.28365 0.42512 0.97981 0.0
C1090 C 0.28429 0.39894 0.98349 0.0
C1091 C 0.28226 0.41713 0.00596 0.0
C1092 C 0.28454 0.41068 0.97358 0.0
C1093 C 0.28252 0.42855 0.99564 0.0
C1094 C 0.30736 0.35736 0.02753 0.0
C1095 C 0.32295 0.36064 0.02551 0.0
C1096 C 0.30044 0.34237 0.02936 0.0
C1097 C 0.33138 0.34879 0.0253 0.0
C1098 C 0.30927 0.33085 0.02909 0.0
N1099 N 0.32442 0.33427 0.02708 0.0
C1100 C 0.32876 0.40465 0.04224 0.0
C1101 C 0.32126 0.4134 0.01759 0.0
C1102 C 0.34341 0.41375 0.043 0.0
N1103 N 0.31803 0.40462 0.02964 0.0
C1104 C 0.33561 0.42282 0.018 0.0
C1105 C 0.34695 0.42305 0.03077 0.0
H1106 H 0.32599 0.39744 0.05159 0.0
H1107 H 0.31286 0.41296 0.00746 0.0
C1108 C 0.26686 0.35681 0.98038 0.0
N1109 N 0.27879 0.35589 0.99133 0.0
C1110 C 0.26547 0.34908 0.96493 0.0
C1111 C 0.28834 0.33914 0.97246 0.0
C1112 C 0.28941 0.34722 0.98766 0.0
C1113 C 0.27638 0.34016 0.96077 0.0
H1114 H 0.25864 0.36389 0.98353 0.0
H1115 H 0.29899 0.34685 0.99632 0.0
O1116 O 0.28576 0.39271 0.04662 0.0
O1117 O 0.2636 0.36622 0.02482 0.0
O1118 O 0.28291 0.39083 0.00966 0.0
O1119 O 0.29897 0.36884 0.02775 0.0
H1120 H 0.27437 0.38982 0.07426 0.0
H1121 H 0.2953 0.42224 0.04434 0.0
H1122 H 0.27278 0.41154 0.09432 0.0
H1123 H 0.29321 0.44343 0.06486 0.0
H1124 H 0.24359 0.31516 0.01835 0.0
H1125 H 0.23732 0.36782 0.03653 0.0
H1126 H 0.26428 0.3371 0.01565 0.0
H1127 H 0.21702 0.34535 0.03873 0.0
H1128 H 0.22988 0.41274 0.05308 0.0
H1129 H 0.23015 0.41503 0.00218 0.0
H1130 H 0.30266 0.34313 0.08588 0.0
H1131 H 0.25518 0.34823 0.08547 0.0
H1132 H 0.28507 0.38748 0.97856 0.0
H1133 H 0.28127 0.41983 0.01853 0.0
H1134 H 0.28546 0.40833 0.96093 0.0
H1135 H 0.28181 0.44013 0.00023 0.0
H1136 H 0.32845 0.3722 0.02408 0.0
H1137 H 0.28843 0.33969 0.03109 0.0
H1138 H 0.34346 0.35115 0.02372 0.0
H1139 H 0.30408 0.31919 0.03052 0.0
H1140 H 0.35183 0.41359 0.05308 0.0
H1141 H 0.33793 0.42957 0.00817 0.0
H1142 H 0.25601 0.35013 0.95631 0.0
H1143 H 0.29713 0.33259 0.96971 0.0
Li1144 Li 0.76741 0.13357 0.0477 0.0
Li1145 Li 0.77962 0.11423 0.03407 0.0
Li1146 Li 0.76679 0.13235 0.01868 0.0
Li1147 Li 0.75216 0.11119 0.03053 0.0
C1148 C 0.79595 0.14966 0.03863 0.0
N1149 N 0.81836 0.17571 0.04618 0.0
C1150 C 0.81052 0.14857 0.04564 0.0
C1151 C 0.79285 0.16395 0.03523 0.0
C1152 C 0.82167 0.16189 0.04945 0.0
C1153 C 0.80431 0.177 0.03919 0.0
C1154 C 0.76669 0.10126 0.06117 0.0
C1155 C 0.76681 0.0752 0.06673 0.0
N1156 N 0.76839 0.07991 0.0827 0.0
C1157 C 0.76835 0.10586 0.07762 0.0
C1158 C 0.76592 0.08582 0.05565 0.0
C1159 C 0.76918 0.09488 0.08832 0.0
C1160 C 0.75625 0.15092 0.07177 0.0
N1161 N 0.76891 0.14639 0.06659 0.0
C1162 C 0.78497 0.16097 0.08883 0.0
C1163 C 0.783 0.1508 0.07498 0.0
C1164 C 0.77222 0.16637 0.09412 0.0
C1165 C 0.75766 0.16108 0.08561 0.0
H1166 H 0.7451 0.14673 0.06511 0.0
H1167 H 0.79269 0.14637 0.07095 0.0
C1168 C 0.80191 0.1005 0.0217 0.0
N1169 N 0.79618 0.10432 0.03555 0.0
C1170 C 0.81466 0.09343 0.02204 0.0
C1171 C 0.81504 0.09411 0.05086 0.0
C1172 C 0.80249 0.10147 0.04999 0.0
C1173 C 0.82126 0.09019 0.03676 0.0
H1174 H 0.79667 0.10313 0.01046 0.0
H1175 H 0.79792 0.10509 0.06083 0.0
C1176 C 0.74018 0.14337 0.03089 0.0
N1177 N 0.72115 0.16474 0.02958 0.0
C1178 C 0.72444 0.13861 0.02631 0.0
C1179 C 0.74623 0.15899 0.03485 0.0
C1180 C 0.71501 0.1496 0.0257 0.0
C1181 C 0.73642 0.16962 0.0341 0.0
C1182 C 0.75981 0.09853 0.00177 0.0
C1183 C 0.75302 0.102 0.98729 0.0
C1184 C 0.76023 0.08326 0.00404 0.0
C1185 C 0.74643 0.09006 0.97542 0.0
C1186 C 0.75352 0.07164 0.99188 0.0
N1187 N 0.7468 0.07525 0.97795 0.0
C1188 C 0.78219 0.14758 0.9961 0.0
C1189 C 0.75594 0.14972 0.99539 0.0
C1190 C 0.78423 0.15708 0.98395 0.0
N1191 N 0.76826 0.14427 0.00161 0.0
C1192 C 0.75748 0.15934 0.98333 0.0
C1193 C 0.77179 0.16319 0.97756 0.0
H1194 H 0.79173 0.14297 0.0013 0.0
H1195 H 0.74492 0.1466 -0.00025 0.0
C1196 C 0.72934 0.08984 0.04098 0.0
N1197 N 0.73382 0.09702 0.02822 0.0
C1198 C 0.71535 0.07979 0.03963 0.0
C1199 C 0.71076 0.08498 0.01211 0.0
C1200 C 0.72485 0.0949 0.01401 0.0
C1201 C 0.70583 0.07741 0.02509 0.0
H1202 H 0.73635 0.09226 0.05236 0.0
H1203 H 0.72837 0.10138 0.00436 0.0
O1204 O 0.78495 0.1367 0.03479 0.0
O1205 O 0.7655 0.11185 0.05059 0.0
O1206 O 0.74949 0.13269 0.03173 0.0
O1207 O 0.76633 0.11008 0.01349 0.0
H1208 H 0.81313 0.13756 0.04821 0.0
H1209 H 0.7818 0.16496 0.02942 0.0
H1210 H 0.83296 0.16124 0.05498 0.0
H1211 H 0.80206 0.18813 0.03666 0.0
H1212 H 0.76618 0.0632 0.06264 0.0
H1213 H 0.76889 0.11776 0.08208 0.0
H1214 H 0.76455 0.08208 0.04296 0.0
H1215 H 0.77041 0.09827 0.10109 0.0
H1216 H 0.79629 0.16447 0.09539 0.0
H1217 H 0.74756 0.16495 0.08944 0.0
H1218 H 0.81933 0.09056 0.01099 0.0
H1219 H 0.82011 0.0919 0.06239 0.0
H1220 H 0.71955 0.12656 0.0233 0.0
H1221 H 0.75831 0.16285 0.03872 0.0
H1222 H 0.70281 0.14608 0.02217 0.0
H1223 H 0.74095 0.18174 0.0372 0.0
H1224 H 0.75271 0.11379 0.9853 0.0
H1225 H 0.76571 0.08042 0.01505 0.0
H1226 H 0.74102 0.09256 0.9642 0.0
H1227 H 0.7537 0.05976 0.99351 0.0
H1228 H 0.79541 0.15977 0.97974 0.0
H1229 H 0.74753 0.16354 0.97841 0.0
H1230 H 0.71182 0.07428 0.04994 0.0
H1231 H 0.70349 0.08384 0.00087 0.0
Li1232 Li 0.18126 0.54113 0.25404 0.0
Li1233 Li 0.16104 0.52555 0.26669 0.0
Li1234 Li 0.17901 0.51385 0.25029 0.0
Li1235 Li 0.15874 0.52545 0.23801 0.0
C1236 C 0.19513 0.53392 0.28253 0.0
N1237 N 0.21833 0.54772 0.30613 0.0
C1238 C 0.19156 0.54004 0.29728 0.0
C1239 C 0.21048 0.53462 0.27987 0.0
C1240 C 0.20346 0.54703 0.30903 0.0
C1241 C 0.22205 0.5417 0.29192 0.0
C1242 C 0.14992 0.55303 0.25195 0.0
C1243 C 0.12427 0.55817 0.24716 0.0
N1244 N 0.13019 0.5733 0.24689 0.0
C1245 C 0.15576 0.56861 0.25158 0.0
C1246 C 0.13406 0.54776 0.24975 0.0
C1247 C 0.14559 0.57868 0.24904 0.0
C1248 C 0.20099 0.56393 0.24213 0.0
N1249 N 0.19509 0.55954 0.2556 0.0
C1250 C 0.20931 0.582 0.27118 0.0
C1251 C 0.19875 0.56836 0.26989 0.0
C1252 C 0.21588 0.58662 0.25752 0.0
C1253 C 0.21162 0.57745 0.24285 0.0
H1254 H 0.19728 0.55711 0.23076 0.0
H1255 H 0.19325 0.56497 0.2802 0.0
C1256 C 0.14653 0.51087 0.29031 0.0
N1257 N 0.14989 0.52443 0.28411 0.0
C1258 C 0.13751 0.5097 0.30291 0.0
C1259 C 0.13581 0.53653 0.30245 0.0
C1260 C 0.14483 0.53716 0.28987 0.0
C1261 C 0.13208 0.52266 0.3091 0.0
H1262 H 0.15078 0.50098 0.28536 0.0
H1263 H 0.14778 0.54778 0.28465 0.0
C1264 C 0.19035 0.5268 0.22298 0.0
N1265 N 0.21117 0.52547 0.20082 0.0
C1266 C 0.18533 0.52491 0.20661 0.0
C1267 C 0.20594 0.52797 0.22809 0.0
C1268 C 0.19605 0.52429 0.19559 0.0
C1269 C 0.21629 0.52725 0.2167 0.0
C1270 C 0.14349 0.4966 0.24792 0.0
C1271 C 0.14396 0.48163 0.24161 0.0
C1272 C 0.12957 0.50035 0.25177 0.0
C1273 C 0.13041 0.47069 0.23903 0.0
C1274 C 0.11627 0.48908 0.24903 0.0
N1275 N 0.11696 0.47461 0.24275 0.0
C1276 C 0.19806 0.49482 0.26092 0.0
C1277 C 0.19042 0.49115 0.2329 0.0
C1278 C 0.20685 0.48343 0.25949 0.0
N1279 N 0.19013 0.49837 0.24773 0.0
C1280 C 0.19918 0.47977 0.23087 0.0
C1281 C 0.20743 0.47573 0.24431 0.0
H1282 H 0.19738 0.50071 0.27255 0.0
H1283 H 0.18382 0.49423 0.22269 0.0
C1284 C 0.1447 0.53798 0.21341 0.0
N1285 N 0.14549 0.52456 0.21958 0.0
C1286 C 0.13514 0.53805 0.19947 0.0
C1287 C 0.128 0.51038 0.19816 0.0
C1288 C 0.13769 0.51087 0.21214 0.0
C1289 C 0.12661 0.52412 0.19179 0.0
H1290 H 0.15164 0.54859 0.21923 0.0
H1291 H 0.13911 0.50032 0.21689 0.0
O1292 O 0.18363 0.52695 0.27094 0.0
O1293 O 0.15977 0.54309 0.25465 0.0
O1294 O 0.18007 0.52807 0.23389 0.0
O1295 O 0.15666 0.50744 0.25036 0.0
H1296 H 0.17973 0.5395 0.29957 0.0
H1297 H 0.21344 0.52974 0.26863 0.0
H1298 H 0.20087 0.55191 0.32046 0.0
H1299 H 0.23398 0.54238 0.29 0.0
H1300 H 0.11197 0.55423 0.24537 0.0
H1301 H 0.168 0.57291 0.2533 0.0
H1302 H 0.12933 0.53576 0.24988 0.0
H1303 H 0.14994 0.59078 0.24879 0.0
H1304 H 0.2119 0.5891 0.28259 0.0
H1305 H 0.2163 0.58078 0.23202 0.0
H1306 H 0.13502 0.49888 0.3079 0.0
H1307 H 0.1317 0.54673 0.30685 0.0
H1308 H 0.17331 0.5241 0.20247 0.0
H1309 H 0.21001 0.52955 0.2407 0.0
H1310 H 0.19234 0.52293 0.18288 0.0
H1311 H 0.22839 0.52818 0.22047 0.0
H1312 H 0.15468 0.47855 0.23862 0.0
H1313 H 0.12903 0.51177 0.25692 0.0
H1314 H 0.13058 0.45908 0.23406 0.0
H1315 H 0.10541 0.49183 0.25193 0.0
H1316 H 0.21267 0.48034 0.27021 0.0
H1317 H 0.19933 0.47405 0.219 0.0
H1318 H 0.13462 0.54881 0.19461 0.0
H1319 H 0.12163 0.49942 0.19245 0.0
Li1320 Li 0.76991 0.88902 0.52842 0.0
Li1321 Li 0.78127 0.86996 0.54241 0.0
Li1322 Li 0.79834 0.8911 0.53018 0.0
Li1323 Li 0.78121 0.86874 0.51301 0.0
C1324 C 0.7853 0.90455 0.55931 0.0
N1325 N 0.78565 0.92861 0.58261 0.0
C1326 C 0.7795 0.90175 0.57381 0.0
C1327 C 0.7915 0.91956 0.55677 0.0
C1328 C 0.77972 0.91407 0.58541 0.0
C1329 C 0.79151 0.93158 0.56867 0.0
C1330 C 0.7519 0.85486 0.52821 0.0
C1331 C 0.7412 0.82792 0.52716 0.0
N1332 N 0.72861 0.83158 0.53345 0.0
C1333 C 0.73879 0.85837 0.53451 0.0
C1334 C 0.75308 0.83953 0.52438 0.0
C1335 C 0.72717 0.84642 0.53714 0.0
C1336 C 0.74614 0.90172 0.51329 0.0
N1337 N 0.75342 0.90026 0.5278 0.0
C1338 C 0.7364 0.91384 0.54114 0.0
C1339 C 0.74867 0.90597 0.5416 0.0
C1340 C 0.72876 0.91571 0.52632 0.0
C1341 C 0.73379 0.90948 0.51226 0.0
H1342 H 0.74982 0.8967 0.50249 0.0
H1343 H 0.75425 0.90427 0.55301 0.0
C1344 C 0.79176 0.85264 0.56661 0.0
N1345 N 0.77971 0.8587 0.56061 0.0
C1346 C 0.79097 0.84537 0.58059 0.0
C1347 C 0.7654 0.85071 0.58195 0.0
C1348 C 0.7667 0.85785 0.56798 0.0
C1349 C 0.7777 0.84446 0.58855 0.0
H1350 H 0.80215 0.85379 0.56077 0.0
H1351 H 0.75746 0.86314 0.56327 0.0
C1352 C 0.78236 0.9019 0.50092 0.0
N1353 N 0.77964 0.92385 0.48029 0.0
C1354 C 0.78027 0.89776 0.48437 0.0
C1355 C 0.78303 0.91718 0.50698 0.0
C1356 C 0.77895 0.90903 0.47413 0.0
C1357 C 0.78162 0.92811 0.49635 0.0
C1358 C 0.80678 0.85728 0.52613 0.0
C1359 C 0.82172 0.86091 0.52198 0.0
C1360 C 0.80018 0.84197 0.52694 0.0
C1361 C 0.82979 0.84909 0.5186 0.0
C1362 C 0.80862 0.83048 0.52346 0.0
N1363 N 0.82313 0.83425 0.5194 0.0
C1364 C 0.82736 0.90735 0.54536 0.0
C1365 C 0.82214 0.91015 0.51787 0.0
C1366 C 0.84196 0.91646 0.54594 0.0
N1367 N 0.81783 0.90436 0.53145 0.0
C1368 C 0.83654 0.91938 0.51793 0.0
C1369 C 0.84678 0.92257 0.53206 0.0
H1370 H 0.8237 0.90246 0.55595 0.0
H1371 H 0.81445 0.90745 0.5069 0.0
C1372 C 0.76647 0.84845 0.48546 0.0
N1373 N 0.78011 0.85637 0.493 0.0
C1374 C 0.76576 0.8405 0.4702 0.0
C1375 C 0.79313 0.84893 0.47084 0.0
C1376 C 0.79331 0.85672 0.48602 0.0
C1377 C 0.7792 0.84081 0.46259 0.0
H1378 H 0.75608 0.84862 0.49112 0.0
H1379 H 0.80395 0.86337 0.49211 0.0
O1380 O 0.78524 0.8926 0.54787 0.0
O1381 O 0.76329 0.86641 0.52536 0.0
O1382 O 0.78376 0.891 0.51108 0.0
O1383 O 0.79883 0.86872 0.52972 0.0
H1384 H 0.7748 0.8902 0.57605 0.0
H1385 H 0.79636 0.9219 0.54579 0.0
H1386 H 0.77518 0.91208 0.59664 0.0
H1387 H 0.79623 0.94326 0.56684 0.0
H1388 H 0.74197 0.816 0.52427 0.0
H1389 H 0.73766 0.87019 0.5374 0.0
H1390 H 0.76299 0.83664 0.51918 0.0
H1391 H 0.717 0.84896 0.54209 0.0
H1392 H 0.73299 0.91847 0.55229 0.0
H1393 H 0.72806 0.91029 0.50057 0.0
H1394 H 0.80082 0.84095 0.58538 0.0
H1395 H 0.75491 0.85019 0.58759 0.0
H1396 H 0.77972 0.88596 0.4795 0.0
H1397 H 0.78449 0.92054 0.51974 0.0
H1398 H 0.77738 0.906 0.4613 0.0
H1399 H 0.78208 0.93998 0.50088 0.0
H1400 H 0.82701 0.87273 0.5214 0.0
H1401 H 0.78872 0.83902 0.53038 0.0
H1402 H 0.84136 0.85171 0.51537 0.0
H1403 H 0.80366 0.81858 0.52406 0.0
H1404 H 0.8495 0.9184 0.55705 0.0
H1405 H 0.83958 0.92399 0.50699 0.0
H1406 H 0.75472 0.8346 0.46423 0.0
H1407 H 0.80381 0.84938 0.46556 0.0
Li1408 Li 0.92658 0.01521 0.27285 0.0
Li1409 Li 0.90396 0.99783 0.25559 0.0
Li1410 Li 0.92509 0.01448 0.24299 0.0
Li1411 Li 0.90601 0.02639 0.25713 0.0
C1412 C 0.93799 0.98914 0.25658 0.0
N1413 N 0.96143 0.9725 0.25688 0.0
C1414 C 0.93496 0.97349 0.25841 0.0
C1415 C 0.95292 0.99633 0.25487 0.0
C1416 C 0.94697 0.96528 0.25855 0.0
C1417 C 0.96462 0.98772 0.25505 0.0
C1418 C 0.89319 0.01408 0.2848 0.0
C1419 C 0.86738 0.01671 0.28928 0.0
N1420 N 0.871 0.01633 0.30524 0.0
C1421 C 0.89669 0.01378 0.30124 0.0
C1422 C 0.87844 0.01558 0.27874 0.0
C1423 C 0.88529 0.01491 0.31138 0.0
C1424 C 0.94086 0.0302 0.30311 0.0
N1425 N 0.93932 0.0171 0.29294 0.0
C1426 C 0.95417 0.00599 0.31226 0.0
C1427 C 0.9458 0.0051 0.29723 0.0
C1428 C 0.95574 0.01925 0.32316 0.0
C1429 C 0.94901 0.0315 0.31836 0.0
H1430 H 0.93547 0.03952 0.29949 0.0
H1431 H 0.94416 0.99466 0.28918 0.0
C1432 C 0.89187 0.96706 0.24228 0.0
N1433 N 0.89058 0.97818 0.25401 0.0
C1434 C 0.88288 0.95235 0.24141 0.0
C1435 C 0.87119 0.96091 0.26448 0.0
C1436 C 0.88049 0.97535 0.265 0.0
C1437 C 0.87236 0.94912 0.25264 0.0
H1438 H 0.90005 0.96956 0.23374 0.0
H1439 H 0.8798 0.9842 0.27438 0.0
C1440 C 0.94063 0.04437 0.25892 0.0
N1441 N 0.96475 0.0682 0.2575 0.0
C1442 C 0.93784 0.05803 0.25332 0.0
C1443 C 0.95563 0.0429 0.26404 0.0
C1444 C 0.95021 0.06992 0.25262 0.0
C1445 C 0.96768 0.05506 0.26316 0.0
C1446 C 0.89073 0.0098 0.22602 0.0
C1447 C 0.89378 0.0143 0.21104 0.0
C1448 C 0.87565 0.00411 0.22873 0.0
C1449 C 0.88162 0.01319 0.19902 0.0
C1450 C 0.8638 0.00316 0.21639 0.0
N1451 N 0.86701 0.00769 0.20192 0.0
C1452 C 0.93966 0.00289 0.21677 0.0
C1453 C 0.93935 0.02953 0.21857 0.0
C1454 C 0.94668 0.00363 0.2026 0.0
N1455 N 0.93617 0.01575 0.22446 0.0
C1456 C 0.94637 0.0308 0.20449 0.0
C1457 C 0.95001 0.01772 0.19616 0.0
H1458 H 0.93668 0.99198 0.22142 0.0
H1459 H 0.93608 0.03951 0.22457 0.0
C1460 C 0.89494 0.05184 0.27147 0.0
N1461 N 0.89488 0.04309 0.25735 0.0
C1462 C 0.88739 0.06438 0.27207 0.0
C1463 C 0.87986 0.05874 0.24361 0.0
C1464 C 0.88763 0.04639 0.24354 0.0
C1465 C 0.87969 0.06798 0.258 0.0
H1466 H 0.90093 0.0491 0.28226 0.0
H1467 H 0.88804 0.0396 0.23238 0.0
O1468 O 0.92635 0.99731 0.2564 0.0
O1469 O 0.90417 0.0128 0.27472 0.0
O1470 O 0.92865 0.03267 0.25978 0.0
O1471 O 0.90251 0.01084 0.2379 0.0
H1472 H 0.92345 0.96778 0.25977 0.0
H1473 H 0.95541 0.00838 0.25326 0.0
H1474 H 0.9448 0.95317 0.25999 0.0
H1475 H 0.97622 0.99312 0.2537 0.0
H1476 H 0.85591 0.01787 0.28476 0.0
H1477 H 0.90805 0.01259 0.3061 0.0
H1478 H 0.87557 0.01587 0.26605 0.0
H1479 H 0.88781 0.01462 0.32412 0.0
H1480 H 0.95891 0.99615 0.31552 0.0
H1481 H 0.94997 0.04198 0.32633 0.0
H1482 H 0.8841 0.94363 0.23203 0.0
H1483 H 0.86344 0.95888 0.27353 0.0
H1484 H 0.92625 0.05937 0.24946 0.0
H1485 H 0.95792 0.03254 0.26875 0.0
H1486 H 0.94825 0.08052 0.24822 0.0
H1487 H 0.97936 0.05408 0.26703 0.0
H1488 H 0.90541 0.01869 0.20875 0.0
H1489 H 0.87313 1.00043 0.24021 0.0
H1490 H 0.8838 0.01668 0.18738 0.0
H1491 H 0.85206 0.99881 0.21831 0.0
H1492 H 0.94902 0.99318 0.1965 0.0
H1493 H 0.9488 0.04193 0.20012 0.0
H1494 H 0.88748 0.07111 0.28346 0.0
H1495 H 0.87432 0.06123 0.23243 0.0
Li1496 Li 0.2653 0.63445 0.54686 0.0
Li1497 Li 0.27807 0.61537 0.53324 0.0
Li1498 Li 0.26481 0.63322 0.51814 0.0
Li1499 Li 0.25047 0.61188 0.52976 0.0
C1500 C 0.29406 0.65046 0.53968 0.0
N1501 N 0.31672 0.6757 0.55043 0.0
C1502 C 0.30796 0.64854 0.54764 0.0
C1503 C 0.29178 0.66519 0.53696 0.0
C1504 C 0.31925 0.66145 0.55306 0.0
C1505 C 0.30334 0.67781 0.54255 0.0
C1506 C 0.26182 0.60141 0.55942 0.0
C1507 C 0.25817 0.57461 0.56339 0.0
N1508 N 0.25689 0.57837 0.57914 0.0
C1509 C 0.26045 0.60503 0.57563 0.0
C1510 C 0.26069 0.5861 0.55322 0.0
C1511 C 0.25798 0.59321 0.58541 0.0
C1512 C 0.25409 0.65249 0.57014 0.0
N1513 N 0.26656 0.64691 0.56591 0.0
C1514 C 0.28157 0.65896 0.58999 0.0
C1515 C 0.28002 0.64964 0.57557 0.0
C1516 C 0.26901 0.66525 0.59448 0.0
C1517 C 0.2551 0.66188 0.58444 0.0
H1518 H 0.24336 0.64959 0.56248 0.0
H1519 H 0.28948 0.64441 0.57216 0.0
C1520 C 0.30129 0.60219 0.52186 0.0
N1521 N 0.29462 0.60573 0.53516 0.0
C1522 C 0.31421 0.59544 0.52313 0.0
C1523 C 0.31295 0.5961 0.55176 0.0
C1524 C 0.30005 0.60286 0.54992 0.0
C1525 C 0.32023 0.59249 0.53826 0.0
H1526 H 0.29664 0.60479 0.51034 0.0
H1527 H 0.29454 0.6061 0.56026 0.0
C1528 C 0.2382 0.64392 0.52862 0.0
N1529 N 0.21962 0.66535 0.52429 0.0
C1530 C 0.22263 0.63913 0.52318 0.0
C1531 C 0.24432 0.65959 0.53189 0.0
C1532 C 0.21342 0.65015 0.52106 0.0
C1533 C 0.23474 0.67024 0.52961 0.0
C1534 C 0.26121 0.59961 0.50055 0.0
C1535 C 0.25504 0.60256 0.48556 0.0
C1536 C 0.26423 0.585 0.50267 0.0
C1537 C 0.25186 0.59075 0.47294 0.0
C1538 C 0.26087 0.57349 0.48975 0.0
N1539 N 0.25481 0.57658 0.47528 0.0
C1540 C 0.28085 0.64945 0.49726 0.0
C1541 C 0.25405 0.64926 0.49339 0.0
C1542 C 0.2834 0.65891 0.48521 0.0
N1543 N 0.26641 0.64502 0.50117 0.0
C1544 C 0.25607 0.65876 0.48127 0.0
C1545 C 0.27091 0.66374 0.47715 0.0
H1546 H 0.29039 0.64571 0.50364 0.0
H1547 H 0.24267 0.64526 0.49655 0.0
C1548 C 0.22569 0.59722 0.54216 0.0
N1549 N 0.23265 0.59719 0.52852 0.0
C1550 C 0.21227 0.58684 0.54294 0.0
C1551 C 0.21339 0.57663 0.51555 0.0
C1552 C 0.22682 0.58725 0.5153 0.0
C1553 C 0.20593 0.57645 0.52948 0.0
H1554 H 0.2305 0.60551 0.55234 0.0
H1555 H 0.23235 0.58766 0.5045 0.0
O1556 O 0.283 0.63791 0.53411 0.0
O1557 O 0.26428 0.61289 0.54975 0.0
O1558 O 0.24725 0.63323 0.53105 0.0
O1559 O 0.26458 0.6111 0.51294 0.0
H1560 H 0.30999 0.6372 0.54968 0.0
H1561 H 0.28128 0.66686 0.53045 0.0
H1562 H 0.33003 0.66015 0.55931 0.0
H1563 H 0.30172 0.68927 0.54056 0.0
H1564 H 0.25723 0.56269 0.55876 0.0
H1565 H 0.26131 0.61685 0.58059 0.0
H1566 H 0.26167 0.58313 0.5407 0.0
H1567 H 0.25692 0.59584 0.59799 0.0
H1568 H 0.29235 0.66101 0.59764 0.0
H1569 H 0.24517 0.66653 0.58755 0.0
H1570 H 0.31948 0.59264 0.51244 0.0
H1571 H 0.31743 0.59414 0.56361 0.0
H1572 H 0.21771 0.62703 0.52069 0.0
H1573 H 0.25627 0.66346 0.53636 0.0
H1574 H 0.20134 0.64662 0.51688 0.0
H1575 H 0.23932 0.68241 0.53214 0.0
H1576 H 0.25272 0.61384 0.48372 0.0
H1577 H 0.26915 0.58258 0.51415 0.0
H1578 H 0.24707 0.59285 0.46127 0.0
H1579 H 0.26311 0.56211 0.49123 0.0
H1580 H 0.295 0.66255 0.48237 0.0
H1581 H 0.24612 0.66199 0.47504 0.0
H1582 H 0.20662 0.58736 0.55375 0.0
H1583 H 0.20875 0.56885 0.5049 0.0
Li1584 Li 0.40459 0.49728 0.75494 0.0
Li1585 Li 0.42706 0.51512 0.77228 0.0
Li1586 Li 0.40642 0.52574 0.75647 0.0
Li1587 Li 0.42566 0.51411 0.74238 0.0
C1588 C 0.39333 0.51423 0.78352 0.0
N1589 N 0.3704 0.51768 0.80269 0.0
C1590 C 0.39654 0.51588 0.80017 0.0
C1591 C 0.37848 0.51433 0.77659 0.0
C1592 C 0.38478 0.51757 0.80967 0.0
C1593 C 0.36705 0.51614 0.7865 0.0
C1594 C 0.43861 0.48892 0.75513 0.0
C1595 C 0.46507 0.48763 0.75238 0.0
N1596 N 0.46188 0.47222 0.75323 0.0
C1597 C 0.43556 0.47309 0.75591 0.0
C1598 C 0.45345 0.49628 0.75331 0.0
C1599 C 0.44749 0.46484 0.75496 0.0
C1600 C 0.39135 0.46697 0.74098 0.0
N1601 N 0.39133 0.47771 0.75354 0.0
C1602 C 0.37304 0.46025 0.76514 0.0
C1603 C 0.38242 0.47461 0.76549 0.0
C1604 C 0.37295 0.44877 0.75249 0.0
C1605 C 0.38222 0.45235 0.74022 0.0
H1606 H 0.39865 0.46969 0.73169 0.0
H1607 H 0.3827 0.48322 0.77545 0.0
C1608 C 0.44038 0.53002 0.80282 0.0
N1609 N 0.43954 0.51716 0.79248 0.0
C1610 C 0.44799 0.53123 0.81831 0.0
C1611 C 0.4541 0.50612 0.81209 0.0
C1612 C 0.4463 0.50536 0.79678 0.0
C1613 C 0.45483 0.51908 0.82325 0.0
H1614 H 0.43472 0.53916 0.79919 0.0
H1615 H 0.44535 0.49516 0.78847 0.0
C1616 C 0.39245 0.5099 0.72446 0.0
N1617 N 0.37112 0.50915 0.69834 0.0
C1618 C 0.39657 0.51768 0.71143 0.0
C1619 C 0.37752 0.50168 0.72421 0.0
C1620 C 0.3856 0.51716 0.69833 0.0
C1621 C 0.36688 0.50148 0.7109 0.0
C1622 C 0.44095 0.54436 0.75931 0.0
C1623 C 0.43834 0.55821 0.75406 0.0
C1624 C 0.45579 0.5429 0.76509 0.0
C1625 C 0.45071 0.57037 0.75451 0.0
C1626 C 0.46785 0.55532 0.76535 0.0
N1627 N 0.46509 0.56868 0.76009 0.0
C1628 C 0.39961 0.55396 0.76884 0.0
C1629 C 0.38292 0.5422 0.74586 0.0
C1630 C 0.39212 0.56653 0.7697 0.0
N1631 N 0.39499 0.54216 0.75699 0.0
C1632 C 0.3751 0.55451 0.74628 0.0
C1633 C 0.37969 0.56694 0.75828 0.0
H1634 H 0.40921 0.55362 0.77758 0.0
H1635 H 0.37933 0.53275 0.73659 0.0
C1636 C 0.43578 0.50178 0.71379 0.0
N1637 N 0.43674 0.51493 0.72374 0.0
C1638 C 0.44248 0.50207 0.6994 0.0
C1639 C 0.45127 0.52936 0.70586 0.0
C1640 C 0.44435 0.52856 0.72004 0.0
C1641 C 0.45024 0.51605 0.69514 0.0
H1642 H 0.42948 0.49111 0.71685 0.0
H1643 H 0.44482 0.53893 0.72789 0.0
O1644 O 0.40463 0.51215 0.77408 0.0
O1645 O 0.42706 0.49712 0.75609 0.0
O1646 O 0.40304 0.51013 0.73732 0.0
O1647 O 0.42897 0.53238 0.75898 0.0
H1648 H 0.40796 0.51566 0.8057 0.0
H1649 H 0.3758 0.51294 0.7637 0.0
H1650 H 0.38707 0.51876 0.82258 0.0
H1651 H 0.35549 0.51625 0.78132 0.0
H1652 H 0.47662 0.49315 0.75097 0.0
H1653 H 0.42411 0.46724 0.75731 0.0
H1654 H 0.45594 0.5085 0.75253 0.0
H1655 H 0.44532 0.45258 0.75559 0.0
H1656 H 0.36593 0.4582 0.77474 0.0
H1657 H 0.38273 0.44386 0.73033 0.0
H1658 H 0.44803 0.54136 0.82649 0.0
H1659 H 0.45937 0.49655 0.81519 0.0
H1660 H 0.4081 0.52406 0.71145 0.0
H1661 H 0.37417 0.49561 0.73423 0.0
H1662 H 0.38861 0.52313 0.68815 0.0
H1663 H 0.35527 0.49521 0.71055 0.0
H1664 H 0.4269 0.55952 0.74958 0.0
H1665 H 0.45796 0.53233 0.7694 0.0
H1666 H 0.44888 0.58114 0.75042 0.0
H1667 H 0.47941 0.55436 0.76976 0.0
H1668 H 0.39593 0.57574 0.77931 0.0
H1669 H 0.3657 0.55439 0.73712 0.0
H1670 H 0.44116 0.49152 0.69149 0.0
H1671 H 0.4573 0.54038 0.7033 0.0
Li1672 Li 0.66228 0.02796 0.76424 0.0
Li1673 Li 0.68297 0.04456 0.75377 0.0
Li1674 Li 0.66145 0.02853 0.73543 0.0
Li1675 Li 0.68152 0.01753 0.74878 0.0
C1676 C 0.65065 0.05513 0.75345 0.0
N1677 N 0.62997 0.07485 0.7558 0.0
C1678 C 0.65569 0.07047 0.75976 0.0
C1679 C 0.63508 0.04987 0.74822 0.0
C1680 C 0.64506 0.08025 0.76088 0.0
C1681 C 0.62481 0.06 0.74955 0.0
C1682 C 0.69614 0.03525 0.782 0.0
C1683 C 0.72305 0.04182 0.79178 0.0
N1684 N 0.71933 0.0459 0.80664 0.0
C1685 C 0.69257 0.03939 0.7974 0.0
C1686 C 0.7115 0.03638 0.77917 0.0
C1687 C 0.70446 0.04481 0.80968 0.0
C1688 C 0.64399 0.01236 0.78512 0.0
N1689 N 0.65044 0.02633 0.78123 0.0
C1690 C 0.63997 0.03915 0.80236 0.0
C1691 C 0.6487 0.0396 0.78955 0.0
C1692 C 0.63301 0.0249 0.80654 0.0
C1693 C 0.63499 0.01137 0.79776 0.0
H1694 H 0.6459 1.00201 0.77847 0.0
H1695 H 0.65426 0.05051 0.78632 0.0
C1696 C 0.70177 0.07025 0.7452 0.0
N1697 N 0.69576 0.06353 0.75758 0.0
C1698 C 0.70993 0.08525 0.74774 0.0
C1699 C 0.70575 0.0858 0.77574 0.0
C1700 C 0.69762 0.07089 0.77263 0.0
C1701 C 0.71167 0.09323 0.76312 0.0
H1702 H 0.69967 0.0642 0.73327 0.0
H1703 H 0.69215 0.06546 0.78204 0.0
C1704 C 0.64611 0.99933 0.74406 0.0
N1705 N 0.61989 0.97702 0.73741 0.0
C1706 C 0.64715 0.98426 0.73867 0.0
C1707 C 0.63176 0.00303 0.74616 0.0
C1708 C 0.63376 0.97315 0.73535 0.0
C1709 C 0.61863 0.9916 0.74271 0.0
C1710 C 0.69408 0.03133 0.7227 0.0
C1711 C 0.68935 0.02716 0.70639 0.0
C1712 C 0.70973 0.03458 0.72817 0.0
C1713 C 0.70039 0.02625 0.69579 0.0
C1714 C 0.72042 0.0335 0.7172 0.0
N1715 N 0.71557 0.0294 0.70137 0.0
C1716 C 0.64511 0.04019 0.71135 0.0
C1717 C 0.6434 0.01312 0.70838 0.0
C1718 C 0.63499 0.03926 0.69756 0.0
N1719 N 0.64876 0.02718 0.71657 0.0
C1720 C 0.63313 0.01162 0.69466 0.0
C1721 C 0.62873 0.02479 0.68929 0.0
H1722 H 0.64992 0.05123 0.718 0.0
H1723 H 0.64706 0.00309 0.7125 0.0
C1724 C 0.70044 0.99819 0.75935 0.0
N1725 N 0.69287 1.00222 0.74619 0.0
C1726 C 0.70878 0.98644 0.7578 0.0
C1727 C 0.70129 0.98329 0.72916 0.0
C1728 C 0.69306 0.9951 0.73129 0.0
C1729 C 0.70917 0.9788 0.74256 0.0
H1730 H 0.69968 0.00384 0.77107 0.0
H1731 H 0.68658 0.99841 0.72114 0.0
O1732 O 0.66102 0.04553 0.75194 0.0
O1733 O 0.68462 0.02977 0.76989 0.0
O1734 O 0.65916 0.01029 0.7474 0.0
O1735 O 0.68342 0.03277 0.73313 0.0
H1736 H 0.66769 0.07482 0.7637 0.0
H1737 H 0.631 0.03819 0.74291 0.0
H1738 H 0.64883 0.09214 0.76574 0.0
H1739 H 0.61275 0.05608 0.74551 0.0
H1740 H 0.73499 0.04275 0.78976 0.0
H1741 H 0.68075 0.03846 0.79983 0.0
H1742 H 0.71446 0.033 0.7674 0.0
H1743 H 0.70186 0.04811 0.82164 0.0
H1744 H 0.63864 0.04981 0.80892 0.0
H1745 H 0.62992 1.0002 0.80086 0.0
H1746 H 0.71414 0.09077 0.73769 0.0
H1747 H 0.70691 0.09166 0.78775 0.0
H1748 H 0.6582 0.9812 0.73706 0.0
H1749 H 0.63078 0.01453 0.75064 0.0
H1750 H 0.63439 0.96144 0.73114 0.0
H1751 H 0.60745 0.99431 0.74431 0.0
H1752 H 0.67727 0.02475 0.70196 0.0
H1753 H 0.71358 0.03806 0.7407 0.0
H1754 H 0.6969 0.02308 0.68313 0.0
H1755 H 0.73257 0.03599 0.72125 0.0
H1756 H 0.63183 0.04963 0.69362 0.0
H1757 H 0.62872 1.00034 0.6883 0.0
H1758 H 0.7143 0.98296 0.76848 0.0
H1759 H 0.70125 0.97754 0.71727 0.0
Li1760 Li 0.76904 0.67347 0.02243 0.0
Li1761 Li 0.78017 0.6529 0.00704 0.0
Li1762 Li 0.76767 0.67221 0.99259 0.0
Li1763 Li 0.75169 0.65115 0.00462 0.0
C1764 C 0.7977 0.68829 0.01069 0.0
N1765 N 0.82103 0.71367 0.01432 0.0
C1766 C 0.81284 0.68673 0.01499 0.0
C1767 C 0.79441 0.70271 0.00816 0.0
C1768 C 0.82448 0.69972 0.01679 0.0
C1769 C 0.80637 0.71542 0.01008 0.0
C1770 C 0.76576 0.63997 0.03422 0.0
C1771 C 0.76004 0.61345 0.03918 0.0
N1772 N 0.76524 0.61766 0.05491 0.0
C1773 C 0.771 0.64406 0.05044 0.0
C1774 C 0.76022 0.62457 0.02851 0.0
C1775 C 0.77066 0.6326 0.06071 0.0
C1776 C 0.75791 0.68262 0.05083 0.0
N1777 N 0.77033 0.68569 0.04263 0.0
C1778 C 0.78339 0.70407 0.06424 0.0
C1779 C 0.78294 0.69622 0.04897 0.0
C1780 C 0.77082 0.70093 0.07314 0.0
C1781 C 0.75791 0.6901 0.06614 0.0
H1782 H 0.74807 0.67413 0.04554 0.0
H1783 H 0.79277 0.69836 0.04235 0.0
C1784 C 0.80461 0.64122 0.99422 0.0
N1785 N 0.79677 0.64175 0.00728 0.0
C1786 C 0.81712 0.63362 0.99403 0.0
C1787 C 0.81311 0.62709 0.02064 0.0
C1788 C 0.80081 0.63492 0.02037 0.0
C1789 C 0.82158 0.62644 0.00741 0.0
H1790 H 0.80125 0.64686 0.984 0.0
H1791 H 0.79462 0.63563 0.03072 0.0
C1792 C 0.74204 0.68414 0.00442 0.0
N1793 N 0.72388 0.70586 -0.0002 0.0
C1794 C 0.72712 0.6797 0.99671 0.0
C1795 C 0.74768 0.69956 0.00998 0.0
C1796 C 0.71813 0.69088 0.99443 0.0
C1797 C 0.73833 0.71038 0.00747 0.0
C1798 C 0.76151 0.63744 0.97578 0.0
C1799 C 0.75578 0.63959 0.96033 0.0
C1800 C 0.76348 0.62283 0.97926 0.0
C1801 C 0.75197 0.62698 0.94861 0.0
C1802 C 0.75953 0.61051 0.96721 0.0
N1803 N 0.7539 0.61282 0.95226 0.0
C1804 C 0.78251 0.68746 0.96861 0.0
C1805 C 0.75576 0.68707 0.96673 0.0
C1806 C 0.78367 0.69497 0.9548 0.0
N1807 N 0.76871 0.68368 0.97431 0.0
C1808 C 0.7564 0.69463 0.95293 0.0
C1809 C 0.77048 0.69861 0.94665 0.0
H1810 H 0.79261 0.68437 0.97463 0.0
H1811 H 0.74485 0.68365 0.97119 0.0
C1812 C 0.72594 0.63625 0.01739 0.0
N1813 N 0.73213 0.63774 0.00336 0.0
C1814 C 0.71159 0.627 0.01767 0.0
C1815 C 0.71008 0.62103 0.98899 0.0
C1816 C 0.7245 0.63042 0.98928 0.0
C1817 C 0.70339 0.61923 0.00333 0.0
H1818 H 0.73217 0.64232 0.02841 0.0
H1819 H 0.72947 0.63199 0.97822 0.0
O1820 O 0.78624 0.67565 0.00868 0.0
O1821 O 0.76606 0.65106 0.02403 0.0
O1822 O 0.75095 0.67335 0.00678 0.0
O1823 O 0.76546 0.6497 0.98731 0.0
H1824 H 0.81556 0.6756 0.0169 0.0
H1825 H 0.78277 0.70406 0.00463 0.0
H1826 H 0.83626 0.6987 0.02012 0.0
H1827 H 0.804 0.72667 0.00816 0.0
H1828 H 0.75577 0.60148 0.03494 0.0
H1829 H 0.77536 0.65594 0.05502 0.0
H1830 H 0.75604 0.62124 0.01601 0.0
H1831 H 0.77472 0.63558 0.07329 0.0
H1832 H 0.79365 0.71218 0.06921 0.0
H1833 H 0.74788 0.68743 0.07243 0.0
H1834 H 0.82339 0.63366 0.98364 0.0
H1835 H 0.81588 0.62155 0.03113 0.0
H1836 H 0.72258 0.66777 0.99245 0.0
H1837 H 0.7591 0.70311 0.01625 0.0
H1838 H 0.70659 0.68764 0.98839 0.0
H1839 H 0.74254 0.72237 0.01167 0.0
H1840 H 0.75429 0.65088 0.95745 0.0
H1841 H 0.76808 0.62104 0.99112 0.0
H1842 H 0.74751 0.62845 0.9366 0.0
H1843 H 0.76097 0.59912 0.96972 0.0
H1844 H 0.79474 0.6975 0.95032 0.0
H1845 H 0.74592 0.69729 0.94724 0.0
H1846 H 0.70704 0.62585 0.02904 0.0
H1847 H 0.70411 0.61549 0.97762 0.0
Li1848 Li 0.86446 0.50031 0.77918 0.0
Li1849 Li 0.88701 0.51379 0.79615 0.0
Li1850 Li 0.86822 0.52757 0.78349 0.0
Li1851 Li 0.8856 0.51498 0.76758 0.0
C1852 C 0.85555 0.51404 0.8108 0.0
N1853 N 0.83554 0.51604 0.83372 0.0
C1854 C 0.86006 0.51216 0.82669 0.0
C1855 C 0.84089 0.51702 0.80657 0.0
C1856 C 0.84976 0.51317 0.83809 0.0
C1857 C 0.83094 0.51799 0.81834 0.0
C1858 C 0.89539 0.48725 0.78325 0.0
C1859 C 0.92094 0.48165 0.78697 0.0
N1860 N 0.91511 0.46794 0.79195 0.0
C1861 C 0.88963 0.47307 0.7883 0.0
C1862 C 0.91115 0.49155 0.78247 0.0
C1863 C 0.8998 0.46347 0.79268 0.0
C1864 C 0.8515 0.47235 0.76312 0.0
N1865 N 0.85002 0.48226 0.77585 0.0
C1866 C 0.8292 0.46473 0.78333 0.0
C1867 C 0.83916 0.47882 0.78589 0.0
C1868 C 0.83054 0.45424 0.77033 0.0
C1869 C 0.84172 0.45821 0.76003 0.0
H1870 H 0.86053 0.47535 0.75563 0.0
H1871 H 0.83845 0.48678 0.79608 0.0
C1872 C 0.90774 0.52859 0.82101 0.0
N1873 N 0.89978 0.5145 0.81491 0.0
C1874 C 0.91747 0.53029 0.83512 0.0
C1875 C 0.90985 0.50305 0.83693 0.0
C1876 C 0.90039 0.50185 0.82261 0.0
C1877 C 0.91861 0.5174 0.84311 0.0
H1878 H 0.90642 0.53854 0.81501 0.0
H1879 H 0.89339 0.49093 0.81778 0.0
C1880 C 0.85167 0.50734 0.75169 0.0
N1881 N 0.82793 0.49137 0.72984 0.0
C1882 C 0.85483 0.49992 0.73738 0.0
C1883 C 0.83646 0.50681 0.7548 0.0
C1884 C 0.84265 0.49187 0.7265 0.0
C1885 C 0.82461 0.49861 0.74364 0.0
C1886 C 0.90322 0.54288 0.78266 0.0
C1887 C 0.9012 0.55737 0.7788 0.0
C1888 C 0.91798 0.53948 0.78449 0.0
C1889 C 0.91403 0.56822 0.7767 0.0
C1890 C 0.93052 0.55065 0.78231 0.0
N1891 N 0.9283 0.56467 0.77849 0.0
C1892 C 0.85842 0.55193 0.80046 0.0
C1893 C 0.85328 0.54922 0.77208 0.0
C1894 C 0.85164 0.56489 0.8017 0.0
N1895 N 0.859 0.54447 0.7858 0.0
C1896 C 0.84662 0.5622 0.77274 0.0
C1897 C 0.84585 0.57018 0.78768 0.0
H1898 H 0.8633 0.54787 0.8111 0.0
H1899 H 0.85409 0.54302 0.76065 0.0
C1900 C 0.9012 0.50291 0.74384 0.0
N1901 N 0.89695 0.51597 0.75002 0.0
C1902 C 0.90956 0.50309 0.73069 0.0
C1903 C 0.90886 0.53014 0.73049 0.0
C1904 C 0.9004 0.52939 0.74356 0.0
C1905 C 0.91351 0.51685 0.72391 0.0
H1906 H 0.89798 0.49233 0.74905 0.0
H1907 H 0.89646 0.53946 0.74845 0.0
O1908 O 0.8655 0.51292 0.79951 0.0
O1909 O 0.88559 0.49668 0.77868 0.0
O1910 O 0.86343 0.51512 0.76257 0.0
O1911 O 0.89082 0.53227 0.78517 0.0
H1912 H 0.87136 0.50985 0.83018 0.0
H1913 H 0.83722 0.51853 0.79434 0.0
H1914 H 0.85308 0.51167 0.85042 0.0
H1915 H 0.81955 0.52027 0.81523 0.0
H1916 H 0.93316 0.48484 0.78644 0.0
H1917 H 0.87744 0.46953 0.78887 0.0
H1918 H 0.91575 0.50235 0.7783 0.0
H1919 H 0.89552 0.45248 0.79666 0.0
H1920 H 0.82073 0.46195 0.79155 0.0
H1921 H 0.84332 0.45023 0.75011 0.0
H1922 H 0.92392 0.54155 0.83985 0.0
H1923 H 0.91048 0.49294 0.84299 0.0
H1924 H 0.86655 0.50028 0.73476 0.0
H1925 H 0.83384 0.51259 0.76577 0.0
H1926 H 0.84491 0.48599 0.71541 0.0
H1927 H 0.81278 0.49801 0.74594 0.0
H1928 H 0.88985 0.56021 0.77747 0.0
H1929 H 0.91976 0.52842 0.78777 0.0
H1930 H 0.91265 0.57949 0.77369 0.0
H1931 H 0.94201 0.54819 0.78373 0.0
H1932 H 0.85128 0.57092 0.81338 0.0
H1933 H 0.84213 0.56597 0.76172 0.0
H1934 H 0.91299 0.49262 0.72597 0.0
H1935 H 0.91146 0.54089 0.72539 0.0
Li1936 Li 0.77876 0.40854 0.51631 0.0
Li1937 Li 0.76669 0.42629 0.5005 0.0
Li1938 Li 0.78101 0.40756 0.48811 0.0
Li1939 Li 0.79422 0.42997 0.50564 0.0
C1940 C 0.75112 0.39129 0.50042 0.0
N1941 N 0.72895 0.36637 0.50415 0.0
C1942 C 0.73665 0.39347 0.50423 0.0
C1943 C 0.75426 0.37644 0.49834 0.0
C1944 C 0.72561 0.38072 0.50612 0.0
C1945 C 0.74292 0.36399 0.50032 0.0
C1946 C 0.78303 0.44199 0.53386 0.0
C1947 C 0.78669 0.46866 0.54439 0.0
N1948 N 0.79179 0.46502 0.55898 0.0
C1949 C 0.78814 0.43848 0.549 0.0
C1950 C 0.78213 0.45717 0.53155 0.0
C1951 C 0.79258 0.45029 0.56154 0.0
C1952 C 0.79046 0.39344 0.54031 0.0
N1953 N 0.7773 0.39713 0.53365 0.0
C1954 C 0.76284 0.38455 0.55255 0.0
C1955 C 0.76368 0.39312 0.53959 0.0
C1956 C 0.77624 0.38049 0.55959 0.0
C1957 C 0.7902 0.38507 0.55341 0.0
H1958 H 0.80117 0.39712 0.5355 0.0
H1959 H 0.75353 0.3967 0.53437 0.0
C1960 C 0.74461 0.43862 0.48295 0.0
N1961 N 0.75009 0.43583 0.49774 0.0
C1962 C 0.73171 0.44541 0.48112 0.0
C1963 C 0.73049 0.4461 0.50976 0.0
C1964 C 0.74346 0.43946 0.51105 0.0
C1965 C 0.72444 0.44899 0.49463 0.0
H1966 H 0.75014 0.43538 0.47262 0.0
H1967 H 0.74816 0.43697 0.52259 0.0
C1968 C 0.80695 0.39874 0.50165 0.0
N1969 N 0.82575 0.37848 0.49293 0.0
C1970 C 0.82149 0.40424 0.49724 0.0
C1971 C 0.80208 0.38297 0.50187 0.0
C1972 C 0.8308 0.3938 0.49281 0.0
C1973 C 0.81171 0.37291 0.49735 0.0
C1974 C 0.78348 0.44028 0.47492 0.0
C1975 C 0.78603 0.43658 0.45905 0.0
C1976 C 0.78291 0.45545 0.48041 0.0
C1977 C 0.78801 0.44816 0.44893 0.0
C1978 C 0.78492 0.4667 0.46991 0.0
N1979 N 0.78742 0.46285 0.45453 0.0
C1980 C 0.76653 0.38791 0.46246 0.0
C1981 C 0.79359 0.39335 0.46233 0.0
C1982 C 0.76487 0.37821 0.44833 0.0
N1983 N 0.78072 0.39496 0.46928 0.0
C1984 C 0.79248 0.38369 0.44816 0.0
C1985 C 0.77796 0.37597 0.4411 0.0
H1986 H 0.75648 0.38989 0.46797 0.0
H1987 H 0.80464 0.39969 0.46764 0.0
C1988 C 0.8188 0.45079 0.52361 0.0
N1989 N 0.81211 0.44467 0.50876 0.0
C1990 C 0.83258 0.46121 0.52539 0.0
C1991 C 0.83243 0.45846 0.49656 0.0
C1992 C 0.81866 0.44817 0.49536 0.0
C1993 C 0.83959 0.46499 0.51173 0.0
H1994 H 0.81379 0.44723 0.5341 0.0
H1995 H 0.81353 0.44247 0.48378 0.0
O1996 O 0.76196 0.40362 0.49826 0.0
O1997 O 0.77878 0.43058 0.52143 0.0
O1998 O 0.79769 0.40879 0.50603 0.0
O1999 O 0.78176 0.42907 0.48498 0.0
H2000 H 0.734 0.40489 0.50573 0.0
H2001 H 0.76528 0.37453 0.49507 0.0
H2002 H 0.71438 0.38224 0.50912 0.0
H2003 H 0.74519 0.35243 0.49875 0.0
H2004 H 0.78616 0.48047 0.54275 0.0
H2005 H 0.78883 0.42678 0.55101 0.0
H2006 H 0.77798 0.46004 0.51998 0.0
H2007 H 0.79667 0.44777 0.57329 0.0
H2008 H 0.75193 0.38137 0.55722 0.0
H2009 H 0.80075 0.38209 0.55857 0.0
H2010 H 0.72722 0.44746 0.4693 0.0
H2011 H 0.72519 0.4489 0.52043 0.0
H2012 H 0.82549 0.41643 0.49715 0.0
H2013 H 0.79101 0.37856 0.50557 0.0
H2014 H 0.84203 0.39788 0.48927 0.0
H2015 H 0.80806 0.36066 0.4974 0.0
H2016 H 0.78654 0.42489 0.45463 0.0
H2017 H 0.78097 0.45849 0.49265 0.0
H2018 H 0.79003 0.44547 0.43663 0.0
H2019 H 0.78452 0.47849 0.474 0.0
H2020 H 0.75348 0.37243 0.4432 0.0
H2021 H 0.80278 0.38245 0.44266 0.0
H2022 H 0.83794 0.46587 0.5373 0.0
H2023 H 0.83779 0.46063 0.48578 0.0
Li2024 Li 0.62263 0.52808 0.29092 0.0
Li2025 Li 0.64365 0.54362 0.2786 0.0
Li2026 Li 0.62114 0.52636 0.26102 0.0
Li2027 Li 0.64151 0.51525 0.27611 0.0
C2028 C 0.61059 0.55336 0.27949 0.0
N2029 N 0.58867 0.57105 0.28514 0.0
C2030 C 0.61502 0.56852 0.28659 0.0
C2031 C 0.59505 0.54724 0.27512 0.0
C2032 C 0.60375 0.57726 0.28939 0.0
C2033 C 0.58413 0.55635 0.27812 0.0
C2034 C 0.65682 0.53553 0.30782 0.0
C2035 C 0.68345 0.53905 0.31843 0.0
N2036 N 0.68015 0.54622 0.33228 0.0
C2037 C 0.65367 0.54286 0.32218 0.0
C2038 C 0.6718 0.53353 0.30593 0.0
C2039 C 0.66564 0.54821 0.3344 0.0
C2040 C 0.60867 0.51322 0.31536 0.0
N2041 N 0.61135 0.52695 0.30929 0.0
C2042 C 0.59945 0.53855 0.33035 0.0
C2043 C 0.60695 0.53952 0.31653 0.0
C2044 C 0.59664 0.52455 0.33703 0.0
C2045 C 0.60132 0.51175 0.32924 0.0
H2046 H 0.61251 0.50344 0.30955 0.0
H2047 H 0.60947 0.55041 0.31179 0.0
C2048 C 0.66234 0.56766 0.2662 0.0
N2049 N 0.65723 0.56313 0.28 0.0
C2050 C 0.6716 0.58204 0.26615 0.0
C2051 C 0.67006 0.58706 0.2945 0.0
C2052 C 0.66088 0.5725 0.29402 0.0
C2053 C 0.67551 0.59208 0.28039 0.0
H2054 H 0.65904 0.56018 0.25514 0.0
H2055 H 0.65636 0.56885 0.30477 0.0
C2056 C 0.60629 0.49793 0.27161 0.0
N2057 N 0.58114 0.47433 0.2657 0.0
C2058 C 0.60796 0.48335 0.26517 0.0
C2059 C 0.59186 0.50051 0.27511 0.0
C2060 C 0.5951 0.47157 0.26225 0.0
C2061 C 0.57927 0.48843 0.272 0.0
C2062 C 0.65484 0.52718 0.24961 0.0
C2063 C 0.65105 0.52146 0.23348 0.0
C2064 C 0.67024 0.5309 0.25603 0.0
C2065 C 0.66277 0.51944 0.22403 0.0
C2066 C 0.68163 0.52872 0.24619 0.0
N2067 N 0.67769 0.52308 0.23053 0.0
C2068 C 0.60494 0.53794 0.23603 0.0
C2069 C 0.60416 0.51116 0.23149 0.0
C2070 C 0.597 0.53788 0.22092 0.0
N2071 N 0.60842 0.52474 0.24099 0.0
C2072 C 0.59625 0.51057 0.21621 0.0
C2073 C 0.59273 0.52411 0.2106 0.0
H2074 H 0.60866 0.54864 0.24368 0.0
H2075 H 0.60731 0.50085 0.23556 0.0
C2076 C 0.65695 0.49355 0.28996 0.0
N2077 N 0.65237 0.49845 0.27582 0.0
C2078 C 0.66449 0.48101 0.2902 0.0
C2079 C 0.6625 0.47882 0.26132 0.0
C2080 C 0.65487 0.49128 0.26164 0.0
C2081 C 0.66736 0.47341 0.27572 0.0
H2082 H 0.65459 0.49929 0.30108 0.0
H2083 H 0.65083 0.49512 0.25053 0.0
O2084 O 0.62148 0.54468 0.27663 0.0
O2085 O 0.64518 0.52987 0.29591 0.0
O2086 O 0.61885 0.50942 0.27503 0.0
O2087 O 0.64351 0.5293 0.25898 0.0
H2088 H 0.62702 0.57343 0.28996 0.0
H2089 H 0.59147 0.53561 0.26939 0.0
H2090 H 0.60699 0.58898 0.29494 0.0
H2091 H 0.57205 0.55177 0.27482 0.0
H2092 H 0.6951 0.53758 0.31714 0.0
H2093 H 0.64211 0.54438 0.32387 0.0
H2094 H 0.67437 0.52765 0.29499 0.0
H2095 H 0.66338 0.55393 0.34558 0.0
H2096 H 0.59594 0.54871 0.33574 0.0
H2097 H 0.59972 0.50079 0.33403 0.0
H2098 H 0.67564 0.58523 0.255 0.0
H2099 H 0.6725 0.59444 0.30572 0.0
H2100 H 0.61911 0.48116 0.26255 0.0
H2101 H 0.59043 0.51165 0.28036 0.0
H2102 H 0.59622 0.46022 0.25731 0.0
H2103 H 0.56803 0.49024 0.27468 0.0
H2104 H 0.63917 0.51859 0.22833 0.0
H2105 H 0.67335 0.5355 0.26845 0.0
H2106 H 0.66002 0.51499 0.21153 0.0
H2107 H 0.6936 0.53155 0.25099 0.0
H2108 H 0.59438 0.54858 0.21733 0.0
H2109 H 0.59343 0.49972 0.20867 0.0
H2110 H 0.66774 0.47716 0.3016 0.0
H2111 H 0.66459 0.47354 0.24985 0.0
Eu2112 Eu 0.04324 0.02789 0.02777 0.0
C2113 C 0.99131 0.97583 0.99599 0.0
N2114 N 0.99987 0.98791 0.99028 0.0
C2115 C 1.00319 0.97176 0.96703 0.0
C2116 C 0.98887 0.96099 0.9876 0.0
C2117 C 0.00541 0.98623 0.97581 0.0
C2118 C 0.995 0.95905 0.97301 0.0
C2119 C 0.97642 0.96589 0.01663 0.0
C2120 C 0.98509 0.97833 0.01032 0.0
C2121 C 0.97435 0.95102 0.00855 0.0
C2122 C 0.98048 0.94859 0.99404 0.0
Eu2123 Eu 1.00199 0.01205 0.00505 0.0
N2124 N 0.98704 0.99291 0.01776 0.0
C2125 C 0.96975 0.96881 0.03069 0.0
C2126 C 0.97953 0.99589 0.03075 0.0
C2127 C 0.97114 0.9839 0.03766 0.0
H2128 H 0.01139 0.99606 0.97094 0.0
H2129 H 0.96548 0.98634 0.04815 0.0
H2130 H 0.03402 0.03973 0.06465 0.0
H2131 H 0.07913 0.05998 0.98895 0.0
H2132 H 0.9795 0.00748 0.03561 0.0
H2133 H 0.96306 0.95956 0.03595 0.0
H2134 H 0.06449 0.03689 0.99833 0.0
H2135 H 0.00771 0.97043 0.95561 0.0
H2136 H 0.96778 0.94135 0.01328 0.0
H2137 H 0.9786 0.93709 0.98784 0.0
H2138 H 0.03493 0.06392 0.08147 0.0
H2139 H 0.99333 0.94784 0.96619 0.0
H2140 H 0.08078 0.08548 0.00416 0.0
N2141 N 0.04383 0.05038 0.04548 0.0
C2142 C 0.05145 0.06366 0.04094 0.0
C2143 C 0.03936 0.06405 0.06996 0.0
C2144 C 0.05274 0.07779 0.05054 0.0
C2145 C 0.03848 0.05032 0.06013 0.0
C2146 C 0.04631 0.07788 0.06504 0.0
N2147 N 0.05733 0.04933 0.01806 0.0
C2148 C 0.06488 0.048 0.00481 0.0
C2149 C 0.06694 0.07656 0.02219 0.0
C2150 C 0.05858 0.06309 0.02699 0.0
C2151 C 0.07424 0.0754 0.00824 0.0
C2152 C 0.0733 0.06104 -0.00041 0.0
H2153 H 0.04711 0.08848 0.07277 0.0
H2154 H 0.06176 0.10224 0.05278 0.0
H2155 H 0.07411 0.10116 0.02792 0.0
O2156 O 0.06327 0.0171 0.02529 0.0
O2157 O 0.03257 0.0437 0.01186 0.0
O2158 O 0.00713 0.0375 0.01497 0.0
O2159 O 0.06118 0.03069 0.04781 0.0
O2160 O 0.04245 0.0154 0.00275 0.0
O2161 O 0.02049 0.02101 0.98996 0.0
O2162 O 0.97754 0.01026 0.99809 0.0
O2163 O 0.01826 0.99482 0.00929 0.0
O2164 O 0.03082 0.00486 0.03364 0.0
O2165 O 0.99381 0.01906 0.98222 0.0
O2166 O 1.00195 0.02413 0.03014 0.0
O2167 O 0.02447 0.01984 0.04313 0.0
C2168 C 0.01891 0.04747 0.01173 0.0
C2169 C 0.08368 0.01897 0.04706 0.0
C2170 C 0.10697 0.00893 0.04376 0.0
C2171 C 0.11101 0.01144 0.06041 0.0
C2172 C 0.08786 0.0216 0.06368 0.0
C2173 C 0.10147 0.01778 0.07031 0.0
C2174 C 0.09325 0.01262 0.0372 0.0
C2175 C 0.03436 0.01795 0.98973 0.0
C2176 C 0.06909 0.02216 0.03998 0.0
C2177 C 0.06075 0.09129 0.0456 0.0
C2178 C 0.06782 0.09068 0.03147 0.0
C2179 C 0.02538 0.99289 0.02314 0.0
C2180 C 0.9716 0.03007 0.98307 0.0
C2181 C 0.95235 0.04498 0.99068 0.0
C2182 C 0.95598 0.05438 0.97854 0.0
C2183 C 0.975 0.03952 0.97095 0.0
C2184 C 0.96041 0.03301 0.99298 0.0
C2185 C 0.9673 0.05169 0.96883 0.0
C2186 C 0.01044 0.02257 0.0433 0.0
C2187 C 0.97958 0.01711 0.98526 0.0
H2188 H 0.12163 0.00874 0.06573 0.0
H2189 H 0.08054 0.02639 0.07155 0.0
H2190 H 0.10464 0.01976 0.08313 0.0
H2191 H 0.08995 0.01041 0.02438 0.0
H2192 H 0.94983 0.06358 0.97628 0.0
H2193 H 0.98358 0.03749 0.96312 0.0
H2194 H 0.95794 0.02595 0.00254 0.0
H2195 H 0.96996 0.05892 0.95946 0.0
Eu2196 Eu 0.26155 0.77045 0.28696 0.0
C2197 C 0.29502 0.74447 0.22942 0.0
N2198 N 0.30105 0.75499 0.24213 0.0
C2199 C 0.32308 0.7431 0.24581 0.0
C2200 C 0.30279 0.7326 0.22457 0.0
C2201 C 0.31494 0.7546 0.25024 0.0
C2202 C 0.31696 0.73201 0.23296 0.0
C2203 C 0.27436 0.73458 0.20825 0.0
C2204 C 0.28084 0.74538 0.22151 0.0
C2205 C 0.28199 0.72266 0.20349 0.0
C2206 C 0.29615 0.72167 0.21163 0.0
Eu2207 Eu 0.28662 0.77396 0.24897 0.0
N2208 N 0.27361 0.75698 0.22648 0.0
C2209 C 0.26056 0.73629 0.19988 0.0
C2210 C 0.26092 0.75942 0.21739 0.0
C2211 C 0.25398 0.74893 0.2043 0.0
H2212 H 0.31979 0.76325 0.26006 0.0
H2213 H 0.24374 0.75081 0.19739 0.0
H2214 H 0.22751 0.77892 0.27491 0.0
H2215 H 0.3064 0.80085 0.33398 0.0
H2216 H 0.25633 0.76968 0.21962 0.0
H2217 H 0.25523 0.72826 0.18963 0.0
H2218 H 0.29413 0.77981 0.31379 0.0
H2219 H 0.33408 0.74279 0.2523 0.0
H2220 H 0.27711 0.71424 0.1934 0.0
H2221 H 0.30192 0.71244 0.20778 0.0
H2222 H 0.21214 0.79878 0.28134 0.0
H2223 H 0.32328 0.72307 0.22959 0.0
H2224 H 0.29314 0.82234 0.34082 0.0
N2225 N 0.24633 0.78911 0.29212 0.0
C2226 C 0.25212 0.80059 0.30403 0.0
C2227 C 0.22338 0.79946 0.28776 0.0
C2228 C 0.24374 0.81219 0.30807 0.0
C2229 C 0.23215 0.7883 0.28406 0.0
C2230 C 0.2292 0.81147 0.2998 0.0
N2231 N 0.27473 0.78988 0.3073 0.0
C2232 C 0.28851 0.78942 0.31567 0.0
C2233 C 0.27323 0.8132 0.32373 0.0
C2234 C 0.26679 0.80112 0.31166 0.0
C2235 C 0.28781 0.81327 0.3315 0.0
C2236 C 0.29538 0.80122 0.32759 0.0
H2237 H 0.22241 0.82015 0.30259 0.0
H2238 H 0.24393 0.83324 0.32326 0.0
H2239 H 0.26969 0.83409 0.33701 0.0
O2240 O 0.26114 0.75697 0.30729 0.0
O2241 O 0.26626 0.79351 0.27776 0.0
O2242 O 0.28942 0.79064 0.27098 0.0
O2243 O 0.23956 0.75995 0.2944 0.0
O2244 O 0.28523 0.76288 0.29004 0.0
O2245 O 0.30048 0.77693 0.27361 0.0
O2246 O 0.28774 0.79153 0.23258 0.0
O2247 O 0.28187 0.75044 0.257 0.0
O2248 O 0.25902 0.75208 0.26626 0.0
O2249 O 0.30849 0.78415 0.24131 0.0
O2250 O 0.26251 0.78053 0.24632 0.0
O2251 O 0.24772 0.76557 0.26229 0.0
C2252 C 0.2794 0.79934 0.27328 0.0
C2253 C 0.23758 0.74515 0.31708 0.0
C2254 C 0.23751 0.73283 0.34155 0.0
C2255 C 0.22139 0.72945 0.33935 0.0
C2256 C 0.22147 0.74163 0.31487 0.0
C2257 C 0.21343 0.73376 0.32598 0.0
C2258 C 0.24551 0.74059 0.33035 0.0
C2259 C 0.29888 0.76821 0.28547 0.0
C2260 C 0.2462 0.75428 0.30618 0.0
C2261 C 0.25019 0.82423 0.32001 0.0
C2262 C 0.26489 0.82474 0.3278 0.0
C2263 C 0.26964 0.74425 0.26304 0.0
C2264 C 0.30578 0.78915 0.21429 0.0
C2265 C 0.30123 0.79392 0.18647 0.0
C2266 C 0.31126 0.78403 0.18222 0.0
C2267 C 0.31581 0.7793 0.20988 0.0
C2268 C 0.29856 0.79637 0.20252 0.0
C2269 C 0.31849 0.77677 0.1939 0.0
C2270 C 0.24898 0.77403 0.25023 0.0
C2271 C 0.30214 0.7916 0.23087 0.0
H2272 H 0.21501 0.72338 0.34787 0.0
H2273 H 0.21509 0.74508 0.3047 0.0
H2274 H 0.20101 0.7311 0.32427 0.0
H2275 H 0.25795 0.74344 0.33225 0.0
H2276 H 0.31375 0.78213 0.16996 0.0
H2277 H 0.32148 0.77347 0.2187 0.0
H2278 H 0.29065 0.80378 0.20588 0.0
H2279 H 0.32625 0.76922 0.19057 0.0
Eu2280 Eu 0.50299 0.02049 0.52304 0.0
C2281 C 0.55867 0.0556 0.49637 0.0
N2282 N 0.55073 0.04126 0.49101 0.0
C2283 C 0.54951 0.04771 0.464 0.0
C2284 C 0.56171 0.0668 0.48573 0.0
C2285 C 0.54705 0.03693 0.47496 0.0
C2286 C 0.5566 0.0628 0.46945 0.0
C2287 C 0.57405 0.07312 0.51804 0.0
C2288 C 0.56476 0.05878 0.51235 0.0
C2289 C 0.57644 0.08454 0.50766 0.0
C2290 C 0.57025 0.08141 0.49156 0.0
Eu2291 Eu 0.5462 0.02439 0.5109 0.0
N2292 N 0.56198 0.04765 0.52224 0.0
C2293 C 0.58095 0.07539 0.53391 0.0
C2294 C 0.56935 0.04941 0.53741 0.0
C2295 C 0.57881 0.06339 0.54354 0.0
H2296 H 0.54236 0.02512 0.4705 0.0
H2297 H 0.58436 0.06493 0.55569 0.0
H2298 H 0.50726 0.01282 0.5612 0.0
H2299 H 0.46839 0.98654 0.47053 0.0
H2300 H 0.56758 0.0401 0.5448 0.0
H2301 H 0.58822 0.08623 0.53871 0.0
H2302 H 0.48491 0.00951 0.48548 0.0
H2303 H 0.54616 0.04431 0.45134 0.0
H2304 H 0.58338 0.0957 0.51186 0.0
H2305 H 0.57255 0.0902 0.48359 0.0
H2306 H 0.499 0.99155 0.57702 0.0
H2307 H 0.55868 0.07108 0.4609 0.0
H2308 H 0.45973 0.96384 0.48443 0.0
N2309 N 0.49604 1.0008 0.53914 0.0
C2310 C 0.4862 0.98813 0.53175 0.0
C2311 C 0.49546 0.99036 0.56427 0.0
C2312 C 0.48106 0.97575 0.54037 0.0
C2313 C 0.50032 1.00231 0.55523 0.0
C2314 C 0.48589 0.97697 0.5568 0.0
N2315 N 0.48665 0.99957 0.50735 0.0
C2316 C 0.48174 0.99952 0.49156 0.0
C2317 C 0.47176 0.97418 0.50739 0.0
C2318 C 0.48155 0.98742 0.5154 0.0
C2319 C 0.46721 0.97382 0.49102 0.0
C2320 C 0.47213 0.98659 0.48311 0.0
H2321 H 0.48216 0.96771 0.56384 0.0
H2322 H 0.46736 0.9529 0.53878 0.0
H2323 H 0.45928 0.95149 0.50994 0.0
O2324 O 0.47946 0.0255 0.5199 0.0
O2325 O 0.51403 0.99871 0.52093 0.0
O2326 O 0.52972 1.00218 0.5009 0.0
O2327 O 0.49437 0.033 0.54248 0.0
O2328 O 0.50697 0.02889 0.49909 0.0
O2329 O 0.52662 0.01713 0.49106 0.0
O2330 O 0.56246 0.01106 0.52108 0.0
O2331 O 0.53926 0.04496 0.52521 0.0
O2332 O 0.51419 0.04337 0.51538 0.0
O2333 O 0.56609 0.02061 0.49892 0.0
O2334 O 0.54067 0.0152 0.53407 0.0
O2335 O 0.52232 0.02836 0.54282 0.0
C2336 C 0.52093 0.99303 0.50914 0.0
C2337 C 0.46894 0.03917 0.54169 0.0
C2338 C 0.44752 0.05301 0.54014 0.0
C2339 C 0.4474 0.0532 0.5568 0.0
C2340 C 0.46856 0.03956 0.55832 0.0
C2341 C 0.45778 0.04644 0.56578 0.0
C2342 C 0.45818 0.04569 0.53252 0.0
C2343 C 0.51497 0.02405 0.488 0.0
C2344 C 0.48107 0.03255 0.53438 0.0
C2345 C 0.47137 0.96256 0.53237 0.0
C2346 C 0.46677 0.96175 0.51593 0.0
C2347 C 0.52742 0.05161 0.52182 0.0
C2348 C 0.57467 0.9975 0.50232 0.0
C2349 C 0.59293 0.98016 0.50045 0.0
C2350 C 0.58296 0.97088 0.48808 0.0
C2351 C 0.56483 0.9881 0.48996 0.0
C2352 C 0.58867 0.99341 0.50769 0.0
C2353 C 0.56892 0.97478 0.48296 0.0
C2354 C 0.53413 0.02164 0.54549 0.0
C2355 C 0.57074 0.01191 0.50916 0.0
H2356 H 0.43919 0.05859 0.5629 0.0
H2357 H 0.47665 0.03455 0.56558 0.0
H2358 H 0.45756 0.04666 0.5786 0.0
H2359 H 0.45848 0.04561 0.51971 0.0
H2360 H 0.58609 0.96063 0.48237 0.0
H2361 H 0.55412 0.99123 0.48556 0.0
H2362 H 0.5964 1.00072 0.51713 0.0
H2363 H 0.56129 0.96758 0.47341 0.0
Eu2364 Eu 0.29606 0.26479 0.76927 0.0
C2365 C 0.238 0.28388 0.73213 0.0
N2366 N 0.24762 0.29166 0.74485 0.0
C2367 C 0.24855 0.31514 0.73288 0.0
C2368 C 0.23346 0.29151 0.71908 0.0
C2369 C 0.25279 0.30709 0.74552 0.0
C2370 C 0.23889 0.30731 0.71959 0.0
C2371 C 0.22322 0.25974 0.71879 0.0
C2372 C 0.23297 0.26813 0.73197 0.0
C2373 C 0.21869 0.26732 0.70579 0.0
C2374 C 0.22379 0.28315 0.70594 0.0
Eu2375 Eu 0.25389 0.27708 0.76558 0.0
N2376 N 0.23783 0.26099 0.74457 0.0
C2377 C 0.21826 0.24396 0.71908 0.0
C2378 C 0.23244 0.24579 0.74524 0.0
C2379 C 0.22278 0.237 0.73243 0.0
H2380 H 0.25994 0.31329 0.75593 0.0
H2381 H 0.21867 0.22489 0.73295 0.0
H2382 H 0.29105 0.22814 0.77749 0.0
H2383 H 0.32663 0.3174 0.80533 0.0
H2384 H 0.2352 0.24044 0.75575 0.0
H2385 H 0.21076 0.23712 0.70918 0.0
H2386 H 0.31194 0.30198 0.78136 0.0
H2387 H 0.25268 0.32738 0.73345 0.0
H2388 H 0.21122 0.26104 0.69555 0.0
H2389 H 0.2202 0.28882 0.6958 0.0
H2390 H 0.29796 0.21366 0.7998 0.0
H2391 H 0.23564 0.31358 0.70981 0.0
H2392 H 0.33428 0.30466 0.82882 0.0
N2393 N 0.30213 0.2498 0.78963 0.0
C2394 C 0.31083 0.25757 0.80298 0.0
C2395 C 0.30159 0.226 0.80086 0.0
C2396 C 0.31509 0.24974 0.81596 0.0
C2397 C 0.29758 0.23424 0.78831 0.0
C2398 C 0.31037 0.23377 0.81475 0.0
N2399 N 0.31018 0.28089 0.79148 0.0
C2400 C 0.31466 0.29635 0.79166 0.0
C2401 C 0.32367 0.28186 0.8178 0.0
C2402 C 0.31503 0.27352 0.80391 0.0
C2403 C 0.32765 0.29785 0.81836 0.0
C2404 C 0.32326 0.30509 0.80517 0.0
H2405 H 0.31341 0.22735 0.82448 0.0
H2406 H 0.32709 0.25222 0.83987 0.0
H2407 H 0.33461 0.28029 0.84147 0.0
O2408 O 0.31584 0.27315 0.75647 0.0
O2409 O 0.28461 0.26888 0.79218 0.0
O2410 O 0.2713 0.28775 0.78646 0.0
O2411 O 0.31309 0.25058 0.76425 0.0
O2412 O 0.29345 0.28648 0.75764 0.0
O2413 O 0.27474 0.29625 0.77027 0.0
O2414 O 0.23437 0.27063 0.78024 0.0
O2415 O 0.26438 0.27196 0.7422 0.0
O2416 O 0.27963 0.25414 0.74746 0.0
O2417 O 0.2394 0.29321 0.77191 0.0
O2418 O 0.25652 0.25486 0.77625 0.0
O2419 O 0.27558 0.24518 0.76379 0.0
C2420 C 0.27747 0.27996 0.79685 0.0
C2421 C 0.32747 0.25456 0.74208 0.0
C2422 C 0.34822 0.25506 0.72469 0.0
C2423 C 0.33973 0.24184 0.71549 0.0
C2424 C 0.31936 0.24127 0.73267 0.0
C2425 C 0.32543 0.23503 0.71945 0.0
C2426 C 0.34201 0.26147 0.73803 0.0
C2427 C 0.28649 0.29789 0.7618 0.0
C2428 C 0.32137 0.26054 0.75673 0.0
C2429 C 0.32373 0.25805 0.82978 0.0
C2430 C 0.328 0.27405 0.83069 0.0
C2431 C 0.27208 0.26131 0.73737 0.0
C2432 C 0.21821 0.28998 0.788 0.0
C2433 C 0.19557 0.2871 0.80297 0.0
C2434 C 0.19589 0.30294 0.8033 0.0
C2435 C 0.21803 0.30582 0.78867 0.0
C2436 C 0.20678 0.28051 0.79521 0.0
C2437 C 0.207 0.31218 0.7962 0.0
C2438 C 0.2632 0.24337 0.77142 0.0
C2439 C 0.2307 0.28418 0.77993 0.0
H2440 H 0.34427 0.2367 0.70526 0.0
H2441 H 0.30843 0.23553 0.73572 0.0
H2442 H 0.31908 0.22475 0.71233 0.0
H2443 H 0.34853 0.27159 0.74531 0.0
H2444 H 0.18744 0.30821 0.8091 0.0
H2445 H 0.22654 0.31347 0.78341 0.0
H2446 H 0.20667 0.2683 0.79492 0.0
H2447 H 0.20708 0.32438 0.79657 0.0
Eu2448 Eu 0.03118 0.99984 0.51605 0.0
C2449 C 0.00774 0.05926 0.54763 0.0
N2450 N 1.00106 0.04936 0.53464 0.0
C2451 C 0.97621 0.04948 0.54327 0.0
C2452 C 0.99878 0.06463 0.55907 0.0
C2453 C 0.98555 0.04447 0.53223 0.0
C2454 C 0.98284 0.0596 0.55675 0.0
C2455 C 0.03088 0.07404 0.56304 0.0
C2456 C 0.02362 0.06392 0.54958 0.0
C2457 C 0.02198 0.07943 0.57444 0.0
C2458 C 0.00599 0.07474 0.57247 0.0
Eu2459 Eu 0.01772 0.04164 0.51676 0.0
N2460 N 0.03199 0.05816 0.53859 0.0
C2461 C 0.04688 0.07836 0.56468 0.0
C2462 C 0.04752 0.06274 0.53984 0.0
C2463 C 0.05522 0.07276 0.55297 0.0
H2464 H 0.98036 0.03684 0.52169 0.0
H2465 H 0.06758 0.07625 0.55399 0.0
H2466 H 0.06697 0.00573 0.50556 0.0
H2467 H 0.97848 0.96412 0.48481 0.0
H2468 H 0.05401 0.05887 0.53068 0.0
H2469 H 0.0529 0.08611 0.57485 0.0
H2470 H 0.99445 0.98076 0.50723 0.0
H2471 H 0.9639 0.04559 0.54134 0.0
H2472 H 0.02737 0.08719 0.58487 0.0
H2473 H 0.99929 0.07897 0.58139 0.0
H2474 H 0.08067 0.99796 0.48291 0.0
H2475 H 0.97557 0.06345 0.56528 0.0
H2476 H 0.99021 0.95592 0.46078 0.0
N2477 N 0.04529 0.99298 0.49514 0.0
C2478 C 0.03732 0.98312 0.48269 0.0
C2479 C 0.06847 0.99376 0.48267 0.0
C2480 C 0.04468 0.97839 0.46952 0.0
C2481 C 0.06066 0.99824 0.49541 0.0
C2482 C 0.06045 0.98382 0.46965 0.0
N2483 N 0.01469 0.98338 0.49554 0.0
C2484 C 0.99956 0.97798 0.49658 0.0
C2485 C 0.01296 0.96837 0.46988 0.0
C2486 C 0.02158 0.97825 0.48285 0.0
C2487 C 0.99723 0.96352 0.4705 0.0
C2488 C 0.99054 0.9682 0.48399 0.0
H2489 H 0.06652 0.98044 0.45976 0.0
H2490 H 0.04155 0.96487 0.44635 0.0
H2491 H 0.01382 0.95605 0.44669 0.0
O2492 O 0.02517 0.97996 0.53015 0.0
O2493 O 0.02764 0.00991 0.49213 0.0
O2494 O 0.00818 0.02243 0.49725 0.0
O2495 O 0.04835 0.98683 0.52381 0.0
O2496 O 0.00895 1.00232 0.5269 0.0
O2497 O 0.99914 0.02025 0.51286 0.0
O2498 O 0.02633 0.06027 0.50265 0.0
O2499 O 0.0222 0.03286 0.54121 0.0
O2500 O 0.04043 0.01827 0.53654 0.0
O2501 O 1.00224 0.05502 0.50544 0.0
O2502 O 0.04039 0.03918 0.50705 0.0
O2503 O 0.05016 0.02092 0.52065 0.0
C2504 C 0.01649 0.0168 0.48707 0.0
C2505 C 0.04502 0.96511 0.53931 0.0
C2506 C 0.04179 0.94176 0.5531 0.0
C2507 C 0.05771 0.94235 0.55403 0.0
C2508 C 0.06093 0.96526 0.5406 0.0
C2509 C 0.06717 0.95402 0.5479 0.0
C2510 C 0.03538 0.95329 0.5458 0.0
C2511 C 0.99751 0.00906 0.52211 0.0
C2512 C 0.03918 0.97737 0.53097 0.0
C2513 C 0.03609 0.9686 0.45659 0.0
C2514 C 0.02029 0.96361 0.45677 0.0
C2515 C 0.03239 0.02484 0.54642 0.0
C2516 C 0.01236 0.08081 0.50177 0.0
C2517 C 0.01404 0.10566 0.49095 0.0
C2518 C 0.00926 0.11182 0.50513 0.0
C2519 C 0.00772 0.08737 0.51586 0.0
C2520 C 0.01563 0.09007 0.4893 0.0
C2521 C 0.00619 0.10276 0.51749 0.0
C2522 C 0.05191 0.03276 0.51224 0.0
C2523 C 0.01298 0.06419 0.49977 0.0
H2524 H 0.06287 0.93371 0.55961 0.0
H2525 H 0.06869 0.97412 0.53591 0.0
H2526 H 0.07943 0.95433 0.54876 0.0
H2527 H 0.0231 0.95292 0.54497 0.0
H2528 H 0.00792 0.12372 0.50663 0.0
H2529 H 0.00506 0.08057 0.52553 0.0
H2530 H 0.01914 0.08515 0.47832 0.0
H2531 H 1.00249 0.10765 0.52836 0.0
Eu2532 Eu 0.27654 0.79232 0.76098 0.0
C2533 C 0.23897 0.73491 0.78812 0.0
N2534 N 0.25265 0.74389 0.79443 0.0
C2535 C 0.24417 0.74496 0.82058 0.0
C2536 C 0.2272 0.73099 0.79792 0.0
C2537 C 0.25554 0.74855 0.81047 0.0
C2538 C 0.22992 0.73624 0.81428 0.0
C2539 C 0.22245 0.72056 0.765 0.0
C2540 C 0.23659 0.72965 0.77174 0.0
C2541 C 0.21075 0.71676 0.7748 0.0
C2542 C 0.21312 0.72195 0.79117 0.0
Eu2543 Eu 0.27068 0.74854 0.77586 0.0
N2544 N 0.24787 0.73394 0.76228 0.0
C2545 C 0.22044 0.71563 0.74856 0.0
C2546 C 0.24622 0.72871 0.74642 0.0
C2547 C 0.23241 0.71961 0.73927 0.0
H2548 H 0.26667 0.75475 0.8157 0.0
H2549 H 0.23106 0.71559 0.72663 0.0
H2550 H 0.27722 0.78694 0.72043 0.0
H2551 H 0.31565 0.83175 0.80574 0.0
H2552 H 0.25561 0.73134 0.73939 0.0
H2553 H 0.20973 0.70862 0.74296 0.0
H2554 H 0.29214 0.8128 0.79536 0.0
H2555 H 0.24646 0.74878 0.83327 0.0
H2556 H 0.1998 0.70982 0.76981 0.0
H2557 H 0.20396 0.71888 0.79854 0.0
H2558 H 0.29565 0.79315 0.70103 0.0
H2559 H 0.22115 0.73346 0.82218 0.0
H2560 H 0.33561 0.83893 0.78783 0.0
N2561 N 0.29267 0.79791 0.74071 0.0
C2562 C 0.30637 0.80739 0.74583 0.0
C2563 C 0.29888 0.79706 0.71362 0.0
C2564 C 0.31701 0.81174 0.73494 0.0
C2565 C 0.28855 0.79329 0.72476 0.0
C2566 C 0.31323 0.80616 0.71874 0.0
N2567 N 0.29917 0.80898 0.77224 0.0
C2568 C 0.30096 0.81572 0.78765 0.0
C2569 C 0.32311 0.82408 0.76728 0.0
C2570 C 0.30952 0.8134 0.7619 0.0
C2571 C 0.32536 0.83061 0.78328 0.0
C2572 C 0.31415 0.82654 0.79345 0.0
H2573 H 0.32112 0.80921 0.71003 0.0
H2574 H 0.33919 0.82523 0.73223 0.0
H2575 H 0.34445 0.83612 0.76048 0.0
O2576 O 0.26432 0.80889 0.77263 0.0
O2577 O 0.29891 0.78534 0.77173 0.0
O2578 O 0.29551 0.76096 0.78073 0.0
O2579 O 0.27127 0.81175 0.7491 0.0
O2580 O 0.26691 0.78355 0.78268 0.0
O2581 O 0.27915 0.76752 0.79572 0.0
O2582 O 0.27865 0.72799 0.76595 0.0
O2583 O 0.24913 0.75876 0.76827 0.0
O2584 O 0.2539 0.77688 0.75027 0.0
O2585 O 0.27524 0.731 0.79099 0.0
O2586 O 0.28206 0.75558 0.75424 0.0
O2587 O 0.2701 0.77255 0.74159 0.0
C2588 C 0.30422 0.77389 0.778 0.0
C2589 C 0.2489 0.82067 0.755 0.0
C2590 C 0.23172 0.83921 0.75401 0.0
C2591 C 0.22144 0.82879 0.74276 0.0
C2592 C 0.23855 0.81053 0.74367 0.0
C2593 C 0.22481 0.81451 0.73771 0.0
C2594 C 0.2454 0.83498 0.76031 0.0
C2595 C 0.27527 0.78098 0.79528 0.0
C2596 C 0.26381 0.81679 0.7604 0.0
C2597 C 0.33087 0.82185 0.74043 0.0
C2598 C 0.33386 0.82807 0.75652 0.0
C2599 C 0.24437 0.76722 0.75736 0.0
C2600 C 0.29596 0.71928 0.78453 0.0
C2601 C 0.31456 0.70212 0.78231 0.0
C2602 C 0.32483 0.71234 0.79381 0.0
C2603 C 0.30648 0.72923 0.79597 0.0
C2604 C 0.30004 0.7057 0.77773 0.0
C2605 C 0.32081 0.72577 0.80051 0.0
C2606 C 0.27525 0.75963 0.74139 0.0
C2607 C 0.28075 0.72304 0.77993 0.0
H2608 H 0.21078 0.83173 0.73785 0.0
H2609 H 0.2413 0.7997 0.73918 0.0
H2610 H 0.21689 0.8066 0.72895 0.0
H2611 H 0.25351 0.84298 0.76884 0.0
H2612 H 0.33593 0.70983 0.79788 0.0
H2613 H 0.30366 0.73976 0.80137 0.0
H2614 H 0.29198 0.69804 0.76885 0.0
H2615 H 0.32883 0.73352 0.80933 0.0
Eu2616 Eu 0.52012 0.03309 0.99484 0.0
C2617 C 0.55072 0.99813 0.05474 0.0
N2618 N 0.53942 0.99278 0.04259 0.0
C2619 C 0.54998 0.9701 0.03722 0.0
C2620 C 0.56238 0.98973 0.05841 0.0
C2621 C 0.53873 0.9789 0.03396 0.0
C2622 C 0.56192 0.97558 0.04943 0.0
C2623 C 0.56226 0.01801 0.07613 0.0
C2624 C 0.55065 0.01212 0.06343 0.0
C2625 C 0.57402 0.00979 0.07971 0.0
C2626 C 0.57407 0.99568 0.07087 0.0
Eu2627 Eu 0.52119 0.00842 0.03729 0.0
N2628 N 0.53916 0.01985 0.05961 0.0
C2629 C 0.56163 0.03192 0.08499 0.0
C2630 C 0.53815 0.03307 0.06873 0.0
C2631 C 0.54943 0.03938 0.08138 0.0
H2632 H 0.52945 0.97452 0.02463 0.0
H2633 H 0.54862 0.04996 0.08842 0.0
H2634 H 0.51192 0.06797 0.00516 0.0
H2635 H 0.49252 0.98876 0.94638 0.0
H2636 H 0.52861 0.0388 0.06664 0.0
H2637 H 0.57033 0.03683 0.09483 0.0
H2638 H 0.51172 1.00039 0.96883 0.0
H2639 H 0.54944 0.95911 0.0303 0.0
H2640 H 0.58306 0.01419 0.08937 0.0
H2641 H 0.58317 0.98942 0.07383 0.0
H2642 H 0.49284 0.08353 0.997 0.0
H2643 H 0.57065 0.96876 0.0519 0.0
H2644 H 0.47248 0.00283 0.9368 0.0
N2645 N 0.50246 0.04897 0.98785 0.0
C2646 C 0.49179 0.04337 0.97511 0.0
C2647 C 0.49234 0.07221 0.99082 0.0
C2648 C 0.48072 0.05196 0.96995 0.0
C2649 C 0.50304 0.06327 0.99555 0.0
C2650 C 0.48108 0.06651 0.97801 0.0
N2651 N 0.50236 0.02068 0.97283 0.0
C2652 C 0.5029 0.00659 0.96522 0.0
C2653 C 0.48062 0.02265 0.95431 0.0
C2654 C 0.49176 0.02887 0.96735 0.0
C2655 C 0.48085 0.008 0.94684 0.0
C2656 C 0.4921 0.99999 0.95226 0.0
H2657 H 0.47279 0.07346 0.97439 0.0
H2658 H 0.46105 0.05222 0.95286 0.0
H2659 H 0.46094 0.02657 0.9392 0.0
O2660 O 0.53567 0.0324 0.97644 0.0
O2661 O 0.49584 0.02288 0.99861 0.0
O2662 O 0.51138 0.01725 0.01684 0.0
O2663 O 0.53265 0.05457 0.98816 0.0
O2664 O 0.52755 0.00921 0.9934 0.0
O2665 O 0.5166 0.99417 0.01253 0.0
O2666 O 0.50439 0.00754 0.05449 0.0
O2667 O 0.54415 0.01454 0.02852 0.0
O2668 O 0.53683 0.03433 0.01712 0.0
O2669 O 0.50627 0.98677 0.03996 0.0
O2670 O 0.51556 0.03288 0.041 0.0
O2671 O 0.52027 0.04757 0.01922 0.0
C2672 C 0.4973 0.01617 0.01124 0.0
C2673 C 0.55043 0.05526 0.96801 0.0
C2674 C 0.56629 0.05418 0.94622 0.0
C2675 C 0.57225 0.06994 0.94997 0.0
C2676 C 0.55631 0.07103 0.97159 0.0
C2677 C 0.56721 0.07832 0.96258 0.0
C2678 C 0.55541 0.04691 0.95529 0.0
C2679 C 0.5234 0.99582 0.99921 0.0
C2680 C 0.53948 0.04731 0.97775 0.0
C2681 C 0.46965 0.04579 0.95696 0.0
C2682 C 0.46959 0.03118 0.94918 0.0
C2683 C 0.54681 0.02532 0.01909 0.0
C2684 C 0.5018 0.98503 0.06701 0.0
C2685 C 0.4969 0.98473 0.09481 0.0
C2686 C 0.50696 0.97441 0.09694 0.0
C2687 C 0.51176 0.97455 0.06918 0.0
C2688 C 0.49414 0.98978 0.07978 0.0
C2689 C 0.51419 0.96919 0.08408 0.0
C2690 C 0.51698 0.04599 0.03421 0.0
C2691 C 0.50067 0.99262 0.05233 0.0
H2692 H 0.58057 0.07581 0.94298 0.0
H2693 H 0.55261 0.07769 0.98141 0.0
H2694 H 0.57174 0.09048 0.96537 0.0
H2695 H 0.55094 0.03472 0.95247 0.0
H2696 H 0.50922 0.97046 0.10853 0.0
H2697 H 0.51795 0.9708 0.05956 0.0
H2698 H 0.48665 0.99806 0.07827 0.0
H2699 H 0.52196 0.96124 0.08574 0.0
Eu2700 Eu 0.26596 0.24953 0.25512 0.0
C2701 C 0.3181 0.29635 0.29051 0.0
N2702 N 0.30423 0.2903 0.2951 0.0
C2703 C 0.31663 0.28599 0.32032 0.0
C2704 C 0.33184 0.29682 0.30049 0.0
C2705 C 0.30332 0.28597 0.31014 0.0
C2706 C 0.33097 0.29121 0.31539 0.0
C2707 C 0.33266 0.30983 0.27142 0.0
C2708 C 0.31856 0.30287 0.27617 0.0
C2709 C 0.34636 0.30982 0.28109 0.0
C2710 C 0.34596 0.30333 0.29557 0.0
Eu2711 Eu 0.28259 0.29116 0.27679 0.0
N2712 N 0.30517 0.30252 0.26688 0.0
C2713 C 0.33253 0.31678 0.25718 0.0
C2714 C 0.30486 0.30981 0.25337 0.0
C2715 C 0.31855 0.31689 0.2482 0.0
H2716 H 0.29239 0.28296 0.31465 0.0
H2717 H 0.31832 0.32247 0.23734 0.0
H2718 H 0.24712 0.26012 0.22306 0.0
H2719 H 0.24553 0.20917 0.29711 0.0
H2720 H 0.29403 0.31009 0.24658 0.0
H2721 H 0.34313 0.32226 0.25315 0.0
H2722 H 0.26495 0.22605 0.2848 0.0
H2723 H 0.31581 0.28229 0.33213 0.0
H2724 H 0.35732 0.31503 0.2776 0.0
H2725 H 0.35661 0.30371 0.30306 0.0
H2726 H 0.22069 0.25575 0.20952 0.0
H2727 H 0.34125 0.2914 0.32341 0.0
H2728 H 0.21825 0.20474 0.28595 0.0
N2729 N 0.24104 0.24683 0.24193 0.0
C2730 C 0.22994 0.23694 0.24767 0.0
C2731 C 0.2231 0.25056 0.22034 0.0
C2732 C 0.21469 0.23406 0.24027 0.0
C2733 C 0.23802 0.25314 0.22812 0.0
C2734 C 0.21134 0.24111 0.22653 0.0
N2735 N 0.2487 0.23254 0.26782 0.0
C2736 C 0.25303 0.22489 0.28026 0.0
C2737 C 0.22243 0.21969 0.26738 0.0
C2738 C 0.23384 0.22977 0.26106 0.0
C2739 C 0.22669 0.21249 0.2807 0.0
C2740 C 0.24207 0.21501 0.28708 0.0
H2741 H 0.19978 0.23913 0.22047 0.0
H2742 H 0.19154 0.22189 0.2412 0.0
H2743 H 0.19827 0.20939 0.26496 0.0
O2744 O 0.26384 0.22536 0.24677 0.0
O2745 O 0.24808 0.26483 0.26049 0.0
O2746 O 0.25862 0.2816 0.28282 0.0
O2747 O 0.27401 0.24244 0.23238 0.0
O2748 O 0.27837 0.25082 0.28015 0.0
O2749 O 0.27324 0.27319 0.29261 0.0
O2750 O 0.27528 0.31272 0.27277 0.0
O2751 O 0.29697 0.27912 0.26022 0.0
O2752 O 0.29125 0.2543 0.26535 0.0
O2753 O 0.28684 0.31018 0.29582 0.0
O2754 O 0.26892 0.29005 0.2524 0.0
O2755 O 0.27366 0.26783 0.23932 0.0
C2756 C 0.24661 0.27396 0.27332 0.0
C2757 C 0.28369 0.21935 0.23198 0.0
C2758 C 0.29839 0.2001 0.24004 0.0
C2759 C 0.30607 0.20153 0.22626 0.0
C2760 C 0.29142 0.22061 0.21828 0.0
C2761 C 0.30268 0.21185 0.21555 0.0
C2762 C 0.28752 0.20937 0.24298 0.0
C2763 C 0.27567 0.25908 0.29294 0.0
C2764 C 0.27124 0.22793 0.23441 0.0
C2765 C 0.20333 0.22417 0.24668 0.0
C2766 C 0.20717 0.21705 0.26021 0.0
C2767 C 0.3011 0.26576 0.26134 0.0
C2768 C 0.26731 0.32499 0.29536 0.0
C2769 C 0.25012 0.34331 0.2952 0.0
C2770 C 0.24351 0.33717 0.30822 0.0
C2771 C 0.26052 0.31867 0.30821 0.0
C2772 C 0.26212 0.33729 0.28902 0.0
C2773 C 0.24871 0.32484 0.31466 0.0
C2774 C 0.27091 0.28181 0.23927 0.0
C2775 C 0.27919 0.31858 0.28761 0.0
H2776 H 0.31438 0.19441 0.22349 0.0
H2777 H 0.28864 0.22825 0.20964 0.0
H2778 H 0.30856 0.2128 0.20492 0.0
H2779 H 0.28187 0.20864 0.25378 0.0
H2780 H 0.23422 0.34171 0.31317 0.0
H2781 H 0.26419 0.30893 0.31314 0.0
H2782 H 0.26742 0.34214 0.2791 0.0
H2783 H 0.24347 0.31997 0.32455 0.0
Eu2784 Eu 0.52883 0.49673 0.01411 0.0
C2785 C 0.50763 0.55742 0.04584 0.0
N2786 N 0.50188 0.54791 0.03227 0.0
C2787 C 0.47626 0.54733 0.03917 0.0
C2788 C 0.49784 0.56174 0.05697 0.0
C2789 C 0.48639 0.54342 0.02847 0.0
C2790 C 0.48202 0.55634 0.0536 0.0
C2791 C 0.52954 0.57338 0.06226 0.0
C2792 C 0.52331 0.56325 0.04843 0.0
C2793 C 0.51987 0.5773 0.07358 0.0
C2794 C 0.50407 0.5715 0.07094 0.0
Eu2795 Eu 0.52019 0.54146 0.01549 0.0
N2796 N 0.53247 0.55912 0.03739 0.0
C2797 C 0.5453 0.57935 0.06425 0.0
C2798 C 0.5477 0.56545 0.03892 0.0
C2799 C 0.55438 0.57551 0.05243 0.0
H2800 H 0.4817 0.53706 0.01705 0.0
H2801 H 0.56651 0.58038 0.05366 0.0
H2802 H 0.56614 0.49875 0.00614 0.0
H2803 H 0.4774 0.46049 0.98181 0.0
H2804 H 0.55469 0.56302 0.02961 0.0
H2805 H 0.55052 0.58716 0.07471 0.0
H2806 H 0.49306 0.47719 0.00477 0.0
H2807 H 0.46401 0.54353 0.0362 0.0
H2808 H 0.52448 0.58497 0.08432 0.0
H2809 H 0.49673 0.57483 0.07967 0.0
H2810 H 0.57992 0.49264 0.98325 0.0
H2811 H 0.47413 0.55941 0.06184 0.0
H2812 H 0.48923 0.45436 0.95716 0.0
N2813 N 0.54386 0.49055 0.99347 0.0
C2814 C 0.53585 0.48211 0.98005 0.0
C2815 C 0.5675 0.48985 0.98208 0.0
C2816 C 0.54341 0.47787 0.96682 0.0
C2817 C 0.55956 0.49363 0.99496 0.0
C2818 C 0.55938 0.4822 0.96784 0.0
N2819 N 0.5131 0.48091 0.99281 0.0
C2820 C 0.49816 0.47466 0.99395 0.0
C2821 C 0.5117 0.46741 0.9665 0.0
C2822 C 0.52014 0.47688 0.97984 0.0
C2823 C 0.49609 0.46169 0.96717 0.0
C2824 C 0.48935 0.46516 0.98104 0.0
H2825 H 0.5656 0.47915 0.95795 0.0
H2826 H 0.54053 0.46578 0.94291 0.0
H2827 H 0.51278 0.45665 0.94263 0.0
O2828 O 0.52034 0.48069 0.03109 0.0
O2829 O 0.51447 0.50378 0.99328 0.0
O2830 O 0.52775 0.52785 0.99482 0.0
O2831 O 0.5393 0.47684 0.01832 0.0
O2832 O 0.50871 0.50353 0.02578 0.0
O2833 O 0.49994 0.52128 0.01081 0.0
O2834 O 0.52719 0.56393 0.00702 0.0
O2835 O 0.5242 0.53172 0.03953 0.0
O2836 O 0.5403 0.51432 0.03477 0.0
O2837 O 0.50523 0.55006 0.99773 0.0
O2838 O 0.54487 0.53971 0.012 0.0
O2839 O 0.55059 0.51535 0.01605 0.0
C2840 C 0.51832 0.51635 0.98659 0.0
C2841 C 0.53768 0.46609 0.04287 0.0
C2842 C 0.53831 0.44609 0.06093 0.0
C2843 C 0.55246 0.45426 0.06852 0.0
C2844 C 0.55205 0.47376 0.05037 0.0
C2845 C 0.55927 0.46798 0.06325 0.0
C2846 C 0.53084 0.45211 0.04813 0.0
C2847 C 0.49744 0.5093 0.01899 0.0
C2848 C 0.53037 0.47191 0.02879 0.0
C2849 C 0.53491 0.469 0.95322 0.0
C2850 C 0.51911 0.46376 0.95308 0.0
C2851 C 0.53387 0.52299 0.04461 0.0
C2852 C 0.50809 0.57719 0.99687 0.0
C2853 C 0.50701 0.60152 0.98565 0.0
C2854 C 0.49512 0.60368 0.99493 0.0
C2855 C 0.49629 0.57973 0.00612 0.0
C2856 C 0.51351 0.58822 0.98667 0.0
C2857 C 0.48985 0.59288 0.00512 0.0
C2858 C 0.55442 0.52998 0.01353 0.0
C2859 C 0.51465 0.56304 0.99749 0.0
H2860 H 0.55839 0.44984 0.07835 0.0
H2861 H 0.55784 0.48406 0.04606 0.0
H2862 H 0.57032 0.47404 0.06901 0.0
H2863 H 0.51996 0.44583 0.04213 0.0
H2864 H 0.48994 0.61379 0.99433 0.0
H2865 H 0.49198 0.57152 0.01405 0.0
H2866 H 0.52264 0.5864 0.97948 0.0
H2867 H 0.4807 0.59471 0.01225 0.0
Eu2868 Eu 0.77526 0.29075 0.25749 0.0
C2869 C 0.74013 0.23488 0.28784 0.0
N2870 N 0.75324 0.24465 0.29422 0.0
C2871 C 0.74391 0.24629 0.31992 0.0
C2872 C 0.7282 0.23066 0.29733 0.0
C2873 C 0.75538 0.25026 0.31002 0.0
C2874 C 0.73024 0.23648 0.31354 0.0
C2875 C 0.72477 0.21973 0.26459 0.0
C2876 C 0.73845 0.2295 0.27159 0.0
C2877 C 0.71287 0.21548 0.27404 0.0
C2878 C 0.71459 0.22091 0.29035 0.0
Eu2879 Eu 0.77193 0.25046 0.27668 0.0
N2880 N 0.75 0.23414 0.26258 0.0
C2881 C 0.72342 0.21454 0.24826 0.0
C2882 C 0.749 0.22856 0.24684 0.0
C2883 C 0.73564 0.21887 0.2394 0.0
H2884 H 0.76607 0.25755 0.31504 0.0
H2885 H 0.73483 0.21461 0.22685 0.0
H2886 H 0.78038 0.28318 0.21891 0.0
H2887 H 0.81288 0.32742 0.30632 0.0
H2888 H 0.75852 0.23126 0.24002 0.0
H2889 H 0.71309 0.20702 0.24244 0.0
H2890 H 0.78936 0.30999 0.29391 0.0
H2891 H 0.74564 0.25075 0.33246 0.0
H2892 H 0.70228 0.20801 0.26884 0.0
H2893 H 0.70529 0.21755 0.29746 0.0
H2894 H 0.80023 0.29021 0.20091 0.0
H2895 H 0.72135 0.23346 0.32124 0.0
H2896 H 0.83385 0.33563 0.28997 0.0
N2897 N 0.79341 0.29652 0.23938 0.0
C2898 C 0.80637 0.30672 0.24536 0.0
C2899 C 0.80214 0.29485 0.2134 0.0
C2900 C 0.81793 0.31117 0.23549 0.0
C2901 C 0.79103 0.29071 0.22364 0.0
C2902 C 0.81567 0.30509 0.21935 0.0
N2903 N 0.79724 0.30737 0.27099 0.0
C2904 C 0.79856 0.31299 0.28675 0.0
C2905 C 0.82192 0.32249 0.26815 0.0
C2906 C 0.80834 0.31231 0.26157 0.0
C2907 C 0.82359 0.3278 0.28447 0.0
C2908 C 0.81182 0.32311 0.29377 0.0
H2909 H 0.82428 0.30825 0.21138 0.0
H2910 H 0.84041 0.32492 0.23463 0.0
H2911 H 0.8439 0.33481 0.26317 0.0
O2912 O 0.76447 0.31102 0.26325 0.0
O2913 O 0.79771 0.28125 0.26196 0.0
O2914 O 0.79422 0.26769 0.28364 0.0
O2915 O 0.76782 0.30357 0.23861 0.0
O2916 O 0.76655 0.28958 0.28175 0.0
O2917 O 0.77943 0.27229 0.29315 0.0
O2918 O 0.78258 0.23005 0.27119 0.0
O2919 O 0.7499 0.26072 0.2729 0.0
O2920 O 0.75302 0.27331 0.25054 0.0
O2921 O 0.77933 0.23784 0.29577 0.0
O2922 O 0.78099 0.25178 0.25256 0.0
O2923 O 0.76773 0.26879 0.24129 0.0
C2924 C 0.80328 0.27472 0.27408 0.0
C2925 C 0.75615 0.32607 0.24194 0.0
C2926 C 0.74213 0.3473 0.24489 0.0
C2927 C 0.74266 0.34893 0.22855 0.0
C2928 C 0.75656 0.32808 0.22563 0.0
C2929 C 0.7499 0.33944 0.21904 0.0
C2930 C 0.74905 0.33592 0.25167 0.0
C2931 C 0.77138 0.28325 0.29424 0.0
C2932 C 0.7629 0.31343 0.24822 0.0
C2933 C 0.83141 0.32137 0.24203 0.0
C2934 C 0.8334 0.32701 0.2583 0.0
C2935 C 0.74412 0.26646 0.26036 0.0
C2936 C 0.7912 0.21542 0.29274 0.0
C2937 C 0.80555 0.1944 0.29002 0.0
C2938 C 0.80557 0.19332 0.30652 0.0
C2939 C 0.79136 0.21394 0.3092 0.0
C2940 C 0.79817 0.2054 0.28306 0.0
C2941 C 0.79845 0.20296 0.31599 0.0
C2942 C 0.77617 0.2582 0.24014 0.0
C2943 C 0.78434 0.22793 0.2863 0.0
H2944 H 0.73751 0.35767 0.22316 0.0
H2945 H 0.76201 0.32081 0.21786 0.0
H2946 H 0.75028 0.34084 0.20647 0.0
H2947 H 0.7486 0.33455 0.26425 0.0
H2948 H 0.81105 0.18488 0.3121 0.0
H2949 H 0.78609 0.2214 0.31696 0.0
H2950 H 0.79824 0.20639 0.27036 0.0
H2951 H 0.79852 0.20198 0.32869 0.0
Eu2952 Eu 0.01872 0.5337 0.4953 0.0
C2953 C 0.06176 0.50661 0.54919 0.0
N2954 N 0.04998 0.49853 0.53876 0.0
C2955 C 0.06555 0.48014 0.53138 0.0
C2956 C 0.07614 0.50199 0.55077 0.0
C2957 C 0.05147 0.4851 0.53037 0.0
C2958 C 0.07803 0.48875 0.54142 0.0
C2959 C 0.07053 0.52648 0.57134 0.0
C2960 C 0.05901 0.51878 0.55924 0.0
C2961 C 0.08517 0.52256 0.57231 0.0
C2962 C 0.08797 0.51033 0.56202 0.0
Eu2963 Eu 0.02722 0.50884 0.53629 0.0
N2964 N 0.04473 0.52226 0.55805 0.0
C2965 C 0.06678 0.53745 0.58253 0.0
C2966 C 0.04062 0.53169 0.56994 0.0
C2967 C 0.05165 0.53975 0.58208 0.0
H2968 H 0.04178 0.47801 0.52305 0.0
H2969 H 0.04843 0.54762 0.59116 0.0
H2970 H 0.00996 0.56806 0.50619 0.0
H2971 H 0.98987 0.49132 0.44526 0.0
H2972 H 0.02882 0.5331 0.57013 0.0
H2973 H 0.07529 0.54362 0.592 0.0
H2974 H 0.0118 0.50523 0.46368 0.0
H2975 H 0.06672 0.46959 0.52452 0.0
H2976 H 0.09423 0.52854 0.58133 0.0
H2977 H 0.09917 0.50709 0.56323 0.0
H2978 H 0.98765 0.581 0.50356 0.0
H2979 H 0.08889 0.48481 0.54229 0.0
H2980 H 0.96506 0.50024 0.44416 0.0
N2981 N 0.99866 0.54771 0.49159 0.0
C2982 C 0.98596 0.5407 0.48178 0.0
C2983 C 0.98696 0.56961 0.49747 0.0
C2984 C 0.97296 0.54771 0.47983 0.0
C2985 C 0.99952 0.56217 0.49905 0.0
C2986 C 0.97353 0.56226 0.48799 0.0
N2987 N 0.99914 0.52068 0.47495 0.0
C2988 C 1.00087 0.50875 0.46425 0.0
C2989 C 0.97339 0.51942 0.46238 0.0
C2990 C 0.98613 0.52668 0.47332 0.0
C2991 C 0.97457 0.50615 0.45272 0.0
C2992 C 0.98852 0.50104 0.45335 0.0
H2993 H 0.9638 0.56804 0.48679 0.0
H2994 H 0.94979 0.54524 0.46814 0.0
H2995 H 0.9502 0.52047 0.45276 0.0
O2996 O 0.0383 0.5351 0.48138 0.0
O2997 O 0.00546 0.52397 0.51407 0.0
O2998 O 0.00504 0.50044 0.52056 0.0
O2999 O 0.02406 0.55316 0.48164 0.0
O3000 O 0.02266 0.50869 0.49005 0.0
O3001 O 0.02599 0.49451 0.51211 0.0
O3002 O 0.00788 0.50386 0.55014 0.0
O3003 O 0.0408 0.51898 0.51783 0.0
O3004 O 0.04046 0.54259 0.51161 0.0
O3005 O 0.02433 0.48843 0.54877 0.0
O3006 O 0.02299 0.53381 0.54194 0.0
O3007 O 0.0195 0.54782 0.51969 0.0
C3008 C 0.99856 0.50979 0.51254 0.0
C3009 C 0.04572 0.55662 0.46622 0.0
C3010 C 0.0619 0.55633 0.44461 0.0
C3011 C 0.064 0.57244 0.44565 0.0
C3012 C 0.04774 0.57267 0.46705 0.0
C3013 C 0.05698 0.58055 0.45687 0.0
C3014 C 0.05296 0.54854 0.45517 0.0
C3015 C 0.02475 0.49601 0.49654 0.0
C3016 C 0.03597 0.54822 0.47669 0.0
C3017 C 0.95994 0.54012 0.46965 0.0
C3018 C 0.96015 0.52599 0.46094 0.0
C3019 C 0.04712 0.53338 0.51969 0.0
C3020 C 0.01235 0.49045 0.57266 0.0
C3021 C 1.00134 0.49526 0.59751 0.0
C3022 C 0.01115 0.48682 0.60521 0.0
C3023 C 0.02208 0.48193 0.58051 0.0
C3024 C 1.00189 0.49702 0.58127 0.0
C3025 C 0.02147 0.48017 0.59671 0.0
C3026 C 0.02081 0.54646 0.53534 0.0
C3027 C 0.01249 0.49185 0.55541 0.0
H3028 H 0.07072 0.57874 0.43752 0.0
H3029 H 0.04225 0.5791 0.4756 0.0
H3030 H 0.05854 0.59293 0.45753 0.0
H3031 H 0.05141 0.53613 0.45461 0.0
H3032 H 0.01073 0.48532 0.61777 0.0
H3033 H 0.0301 0.47653 0.57413 0.0
H3034 H 0.99411 0.50341 0.5754 0.0
H3035 H 0.02896 0.47357 0.60266 0.0
Eu3036 Eu 0.79506 0.76566 0.27007 0.0
C3037 C 0.73887 0.78253 0.22982 0.0
N3038 N 0.74683 0.79074 0.24335 0.0
C3039 C 0.74727 0.81414 0.23135 0.0
C3040 C 0.73501 0.78992 0.21636 0.0
C3041 C 0.75087 0.80634 0.24441 0.0
C3042 C 0.73936 0.8059 0.21725 0.0
C3043 C 0.72669 0.75784 0.2154 0.0
C3044 C 0.73482 0.76661 0.22932 0.0
C3045 C 0.72287 0.76519 0.20197 0.0
C3046 C 0.72703 0.78117 0.20244 0.0
Eu3047 Eu 0.75249 0.77639 0.26447 0.0
N3048 N 0.73909 0.7597 0.24233 0.0
C3049 C 0.72258 0.74192 0.2154 0.0
C3050 C 0.73439 0.74433 0.24269 0.0
C3051 C 0.72628 0.73518 0.22918 0.0
H3052 H 0.75667 0.81282 0.25538 0.0
H3053 H 0.72274 0.72295 0.22947 0.0
H3054 H 0.79236 0.72822 0.27488 0.0
H3055 H 0.82306 0.81669 0.31011 0.0
H3056 H 0.7365 0.73913 0.25345 0.0
H3057 H 0.71629 0.73479 0.20495 0.0
H3058 H 0.80946 0.80239 0.28495 0.0
H3059 H 0.75053 0.82651 0.2322 0.0
H3060 H 0.71667 0.75862 0.19115 0.0
H3061 H 0.72399 0.78665 0.19198 0.0
H3062 H 0.79916 0.71241 0.29603 0.0
H3063 H 0.7366 0.81199 0.20716 0.0
H3064 H 0.8304 0.80262 0.33268 0.0
N3065 N 0.80159 0.74942 0.28905 0.0
C3066 C 0.80939 0.75655 0.30315 0.0
C3067 C 0.80203 0.72481 0.29821 0.0
C3068 C 0.8136 0.74796 0.31549 0.0
C3069 C 0.79806 0.73379 0.28632 0.0
C3070 C 0.80977 0.73191 0.31288 0.0
N3071 N 0.80836 0.78058 0.29341 0.0
C3072 C 0.81228 0.79618 0.29478 0.0
C3073 C 0.82093 0.78022 0.31989 0.0
C3074 C 0.81302 0.77254 0.30533 0.0
C3075 C 0.82437 0.79629 0.32166 0.0
C3076 C 0.82016 0.80428 0.30898 0.0
H3077 H 0.81281 0.72491 0.32208 0.0
H3078 H 0.8247 0.74918 0.33967 0.0
H3079 H 0.83108 0.77739 0.34353 0.0
O3080 O 0.81366 0.77586 0.25673 0.0
O3081 O 0.78336 0.7708 0.29257 0.0
O3082 O 0.76749 0.78796 0.28683 0.0
O3083 O 0.81397 0.75384 0.26515 0.0
O3084 O 0.79161 0.78738 0.25899 0.0
O3085 O 0.772 0.79696 0.27026 0.0
O3086 O 0.73282 0.76768 0.27724 0.0
O3087 O 0.76511 0.77202 0.24241 0.0
O3088 O 0.77942 0.75371 0.24826 0.0
O3089 O 0.73423 0.7895 0.26792 0.0
O3090 O 0.75584 0.75493 0.27626 0.0
O3091 O 0.77532 0.74536 0.26471 0.0
C3092 C 0.77537 0.78128 0.29709 0.0
C3093 C 0.82601 0.75849 0.24175 0.0
C3094 C 0.84643 0.75701 0.22424 0.0
C3095 C 0.83624 0.7456 0.21396 0.0
C3096 C 0.81611 0.74719 0.23114 0.0
C3097 C 0.82121 0.74082 0.21736 0.0
C3098 C 0.8412 0.76356 0.23816 0.0
C3099 C 0.78502 0.79891 0.26372 0.0
C3100 C 0.82073 0.76422 0.25696 0.0
C3101 C 0.82142 0.7556 0.33003 0.0
C3102 C 0.82506 0.77167 0.33223 0.0
C3103 C 0.77201 0.76067 0.23789 0.0
C3104 C 0.72026 0.78616 0.29042 0.0
C3105 C 0.69957 0.78624 0.30786 0.0
C3106 C 0.70823 0.79953 0.31682 0.0
C3107 C 0.72861 0.79942 0.29971 0.0
C3108 C 0.70561 0.7796 0.29451 0.0
C3109 C 0.72258 0.80606 0.31274 0.0
C3110 C 0.76278 0.74348 0.27205 0.0
C3111 C 0.72647 0.77972 0.27605 0.0
H3112 H 0.83994 0.74038 0.20324 0.0
H3113 H 0.80452 0.74306 0.23371 0.0
H3114 H 0.81352 0.73195 0.2094 0.0
H3115 H 0.84899 0.7722 0.24633 0.0
H3116 H 0.7038 0.80494 0.32698 0.0
H3117 H 0.73974 0.80476 0.29676 0.0
H3118 H 0.69899 0.76942 0.28741 0.0
H3119 H 0.72906 0.81637 0.31971 0.0
Eu3120 Eu 0.76178 0.27258 0.78933 0.0
C3121 C 0.79719 0.24454 0.72637 0.0
N3122 N 0.80271 0.25438 0.73976 0.0
C3123 C 0.82539 0.24333 0.74251 0.0
C3124 C 0.80554 0.23345 0.7207 0.0
C3125 C 0.81668 0.25406 0.74773 0.0
C3126 C 0.81977 0.23292 0.72898 0.0
C3127 C 0.77701 0.23529 0.70453 0.0
C3128 C 0.78306 0.24548 0.71839 0.0
C3129 C 0.78523 0.22415 0.69896 0.0
C3130 C 0.79946 0.22325 0.707 0.0
Eu3131 Eu 0.78743 0.27231 0.74768 0.0
N3132 N 0.77526 0.25631 0.72415 0.0
C3133 C 0.76292 0.23667 0.69655 0.0
C3134 C 0.76191 0.25818 0.71583 0.0
C3135 C 0.75543 0.24827 0.70214 0.0
H3136 H 0.82129 0.26228 0.75793 0.0
H3137 H 0.74475 0.24973 0.69578 0.0
H3138 H 0.72707 0.27941 0.77787 0.0
H3139 H 0.80623 0.30439 0.83592 0.0
H3140 H 0.75626 0.26746 0.71927 0.0
H3141 H 0.75789 0.22906 0.6859 0.0
H3142 H 0.79482 0.28345 0.81527 0.0
H3143 H 0.83648 0.24315 0.74888 0.0
H3144 H 0.78072 0.21623 0.68837 0.0
H3145 H 0.8057 0.21463 0.70251 0.0
H3146 H 0.71095 0.29863 0.78415 0.0
H3147 H 0.82654 0.2246 0.72497 0.0
H3148 H 0.79182 0.32479 0.84349 0.0
N3149 N 0.74567 0.29021 0.79507 0.0
C3150 C 0.75115 0.30187 0.80683 0.0
C3151 C 0.72224 0.2997 0.79059 0.0
C3152 C 0.74237 0.31313 0.81078 0.0
C3153 C 0.73141 0.28887 0.78702 0.0
C3154 C 0.72775 0.31192 0.8025 0.0
N3155 N 0.77401 0.29179 0.81031 0.0
C3156 C 0.7883 0.29221 0.81802 0.0
C3157 C 0.77192 0.31496 0.82663 0.0
C3158 C 0.76576 0.30273 0.81463 0.0
C3159 C 0.78668 0.31558 0.83424 0.0
C3160 C 0.79486 0.30411 0.82997 0.0
H3161 H 0.72065 0.32034 0.80519 0.0
H3162 H 0.74191 0.33407 0.82591 0.0
H3163 H 0.76778 0.33568 0.83978 0.0
O3164 O 0.76074 0.25729 0.80813 0.0
O3165 O 0.76765 0.2957 0.78054 0.0
O3166 O 0.78723 0.28687 0.77083 0.0
O3167 O 0.74009 0.25758 0.79188 0.0
O3168 O 0.7856 0.2654 0.79317 0.0
O3169 O 0.80108 0.27144 0.77229 0.0
O3170 O 0.78838 0.29059 0.73213 0.0
O3171 O 0.77863 0.24762 0.7513 0.0
O3172 O 0.76975 0.26201 0.76829 0.0
O3173 O 0.80944 0.28477 0.74247 0.0
O3174 O 0.76305 0.27895 0.74541 0.0
O3175 O 0.74776 0.26828 0.76451 0.0
C3176 C 0.77918 0.29766 0.77207 0.0
C3177 C 0.73747 0.23988 0.81214 0.0
C3178 C 0.7364 0.2235 0.83367 0.0
C3179 C 0.72144 0.21634 0.82728 0.0
C3180 C 0.72249 0.23271 0.80592 0.0
C3181 C 0.71454 0.22098 0.81349 0.0
C3182 C 0.74434 0.23525 0.82603 0.0
C3183 C 0.79895 0.26703 0.78681 0.0
C3184 C 0.74624 0.2517 0.80387 0.0
C3185 C 0.74847 0.32529 0.82273 0.0
C3186 C 0.76321 0.3262 0.83062 0.0
C3187 C 0.77056 0.24813 0.76308 0.0
C3188 C 0.80823 0.29064 0.71572 0.0
C3189 C 0.8052 0.29634 0.68818 0.0
C3190 C 0.81423 0.28552 0.68384 0.0
C3191 C 0.81745 0.27994 0.71131 0.0
C3192 C 0.80244 0.29903 0.70414 0.0
C3193 C 0.82047 0.27748 0.69544 0.0
C3194 C 0.7495 0.27464 0.75094 0.0
C3195 C 0.80317 0.29207 0.73178 0.0
H3196 H 0.71505 0.20729 0.83305 0.0
H3197 H 0.717 0.23604 0.79514 0.0
H3198 H 0.703 0.21546 0.80864 0.0
H3199 H 0.75597 0.24062 0.83079 0.0
H3200 H 0.81647 0.28335 0.67151 0.0
H3201 H 0.82205 0.27323 0.71999 0.0
H3202 H 0.79518 0.30717 0.70741 0.0
H3203 H 0.82745 0.26915 0.69207 0.0
Eu3204 Eu 0.76594 0.7493 0.75534 0.0
C3205 C 0.8181 0.79826 0.79268 0.0
N3206 N 0.80403 0.79246 0.79692 0.0
C3207 C 0.81538 0.7906 0.82342 0.0
C3208 C 0.83146 0.79987 0.80356 0.0
C3209 C 0.80245 0.78937 0.81229 0.0
C3210 C 0.82997 0.79564 0.81897 0.0
C3211 C 0.83332 0.81042 0.77332 0.0
C3212 C 0.81907 0.80353 0.77778 0.0
C3213 C 0.84671 0.81144 0.78386 0.0
C3214 C 0.84578 0.80618 0.79894 0.0
Eu3215 Eu 0.78297 0.79099 0.77709 0.0
N3216 N 0.80595 0.80233 0.76778 0.0
C3217 C 0.83364 0.81642 0.75855 0.0
C3218 C 0.80604 0.80888 0.75379 0.0
C3219 C 0.8199 0.81582 0.74884 0.0
H3220 H 0.79124 0.78627 0.81621 0.0
H3221 H 0.81997 0.82074 0.73759 0.0
H3222 H 0.74955 0.76023 0.72203 0.0
H3223 H 0.74074 0.71007 0.79617 0.0
H3224 H 0.79541 0.80866 0.74643 0.0
H3225 H 0.84436 0.82182 0.75471 0.0
H3226 H 0.76177 0.72542 0.78445 0.0
H3227 H 0.81406 0.78789 0.83551 0.0
H3228 H 0.85779 0.81659 0.78061 0.0
H3229 H 0.85616 0.8074 0.80711 0.0
H3230 H 0.72366 0.75819 0.70783 0.0
H3231 H 0.83995 0.79675 0.82769 0.0
H3232 H 0.71385 0.70833 0.78463 0.0
N3233 N 0.74164 0.74821 0.74115 0.0
C3234 C 0.72956 0.73955 0.74677 0.0
C3235 C 0.72513 0.75308 0.71889 0.0
C3236 C 0.71456 0.73796 0.73897 0.0
C3237 C 0.73977 0.7544 0.72706 0.0
C3238 C 0.71244 0.745 0.72497 0.0
N3239 N 0.74692 0.73356 0.76732 0.0
C3240 C 0.75009 0.72533 0.77967 0.0
C3241 C 0.71991 0.7231 0.76634 0.0
C3242 C 0.73226 0.73218 0.76031 0.0
C3243 C 0.72302 0.71537 0.77961 0.0
C3244 C 0.73819 0.71635 0.78618 0.0
H3245 H 0.70111 0.74397 0.71858 0.0
H3246 H 0.69063 0.72794 0.73942 0.0
H3247 H 0.69528 0.715 0.76341 0.0
O3248 O 0.76381 0.72489 0.74789 0.0
O3249 O 0.74918 0.76584 0.76016 0.0
O3250 O 0.75952 0.7804 0.78373 0.0
O3251 O 0.77335 0.74139 0.73261 0.0
O3252 O 0.77721 0.74958 0.78078 0.0
O3253 O 0.77463 0.77309 0.79343 0.0
O3254 O 0.77479 0.81146 0.77068 0.0
O3255 O 0.7981 0.77881 0.76169 0.0
O3256 O 0.79118 0.75375 0.7659 0.0
O3257 O 0.78499 0.81086 0.79489 0.0
O3258 O 0.7698 0.78919 0.75239 0.0
O3259 O 0.77532 0.76721 0.73986 0.0
C3260 C 0.74753 0.77348 0.77384 0.0
C3261 C 0.78468 0.71948 0.73438 0.0
C3262 C 0.79987 0.70118 0.7439 0.0
C3263 C 0.81068 0.70572 0.73332 0.0
C3264 C 0.79549 0.72376 0.72373 0.0
C3265 C 0.80846 0.71695 0.7233 0.0
C3266 C 0.787 0.70821 0.74442 0.0
C3267 C 0.77634 0.75873 0.79371 0.0
C3268 C 0.77134 0.72711 0.73554 0.0
C3269 C 0.70224 0.72922 0.7452 0.0
C3270 C 0.7049 0.72185 0.75886 0.0
C3271 C 0.80147 0.76505 0.76225 0.0
C3272 C 0.76437 0.82407 0.79116 0.0
C3273 C 0.74714 0.84224 0.7887 0.0
C3274 C 0.73825 0.83496 0.79969 0.0
C3275 C 0.75548 0.81681 0.80214 0.0
C3276 C 0.7601 0.8366 0.78445 0.0
C3277 C 0.74246 0.8223 0.80639 0.0
C3278 C 0.77254 0.78114 0.73949 0.0
C3279 C 0.77738 0.81819 0.78529 0.0
H3280 H 0.82065 0.70036 0.73254 0.0
H3281 H 0.79399 0.73245 0.71586 0.0
H3282 H 0.81678 0.72034 0.71512 0.0
H3283 H 0.77885 0.70496 0.75283 0.0
H3284 H 0.72819 0.83912 0.80322 0.0
H3285 H 0.75844 0.80683 0.8072 0.0
H3286 H 0.76676 0.84173 0.77554 0.0
H3287 H 0.73559 0.81671 0.81484 0.0
Eu3288 Eu 0.54441 0.52896 0.52837 0.0
C3289 C 0.48949 0.47713 0.49166 0.0
N3290 N 0.49727 0.48994 0.48643 0.0
C3291 C 0.49705 0.47602 0.46057 0.0
C3292 C 0.4858 0.46305 0.4817 0.0
C3293 C 0.50038 0.48971 0.47083 0.0
C3294 C 0.48996 0.46257 0.46611 0.0
C3295 C 0.47564 0.4654 0.51219 0.0
C3296 C 0.48435 0.47829 0.50667 0.0
C3297 C 0.4726 0.45121 0.50262 0.0
C3298 C 0.47764 0.45005 0.4874 0.0
Eu3299 Eu 0.50294 0.51241 0.50518 0.0
N3300 N 0.48741 0.49217 0.51566 0.0
C3301 C 0.46995 0.46723 0.52702 0.0
C3302 C 0.48106 0.49423 0.52961 0.0
C3303 C 0.47249 0.48177 0.53566 0.0
H3304 H 0.50538 0.50015 0.46621 0.0
H3305 H 0.46772 0.48343 0.5469 0.0
H3306 H 0.53385 0.54119 0.56397 0.0
H3307 H 0.58756 0.55896 0.49409 0.0
H3308 H 0.48245 0.50548 0.53602 0.0
H3309 H 0.46322 0.45761 0.53169 0.0
H3310 H 0.57097 0.53648 0.50211 0.0
H3311 H 0.49982 0.4759 0.44835 0.0
H3312 H 0.46603 0.44116 0.50671 0.0
H3313 H 0.47483 0.43912 0.47996 0.0
H3314 H 0.53594 0.56537 0.58135 0.0
H3315 H 0.48728 0.45199 0.45808 0.0
H3316 H 0.58894 0.58467 0.50864 0.0
N3317 N 0.5465 0.55142 0.54635 0.0
C3318 C 0.55547 0.56429 0.54255 0.0
C3319 C 0.54132 0.56528 0.57036 0.0
C3320 C 0.5572 0.57838 0.55231 0.0
C3321 C 0.53992 0.5516 0.56032 0.0
C3322 C 0.54982 0.57878 0.56624 0.0
N3323 N 0.56187 0.54944 0.52024 0.0
C3324 C 0.57102 0.54769 0.50829 0.0
C3325 C 0.5729 0.57643 0.52506 0.0
C3326 C 0.56321 0.5633 0.52904 0.0
C3327 C 0.58139 0.57487 0.51206 0.0
C3328 C 0.58063 0.56039 0.50381 0.0
H3329 H 0.5509 0.58937 0.57407 0.0
H3330 H 0.5677 0.60249 0.55529 0.0
H3331 H 0.58144 0.60078 0.53144 0.0
O3332 O 0.56686 0.52273 0.52894 0.0
O3333 O 0.52879 0.54657 0.52441 0.0
O3334 O 0.51561 0.53596 0.50027 0.0
O3335 O 0.55618 0.52479 0.55126 0.0
O3336 O 0.54363 0.52784 0.50137 0.0
O3337 O 0.52271 0.50932 0.49067 0.0
O3338 O 0.48187 0.52139 0.5077 0.0
O3339 O 0.51246 0.4961 0.52099 0.0
O3340 O 0.53803 0.50325 0.51856 0.0
O3341 O 0.48837 0.51539 0.48383 0.0
O3342 O 0.50471 0.5256 0.53008 0.0
O3343 O 0.5259 0.51873 0.54276 0.0
C3344 C 0.52113 0.5481 0.51069 0.0
C3345 C 0.58151 0.51757 0.5527 0.0
C3346 C 0.60574 0.50876 0.55121 0.0
C3347 C 0.6072 0.50831 0.56787 0.0
C3348 C 0.58308 0.51723 0.56936 0.0
C3349 C 0.59591 0.5126 0.57689 0.0
C3350 C 0.59285 0.51333 0.54377 0.0
C3351 C 0.5359 0.51819 0.48948 0.0
C3352 C 0.56793 0.52177 0.54429 0.0
C3353 C 0.56636 0.59155 0.54802 0.0
C3354 C 0.57416 0.59058 0.53441 0.0
C3355 C 0.5264 0.49302 0.52188 0.0
C3356 C 0.46468 0.52514 0.48488 0.0
C3357 C 0.44095 0.53443 0.48799 0.0
C3358 C 0.4382 0.53413 0.47128 0.0
C3359 C 0.46182 0.52478 0.46819 0.0
C3360 C 0.45426 0.53003 0.49467 0.0
C3361 C 0.44862 0.52931 0.46145 0.0
C3362 C 0.51226 0.52228 0.54307 0.0
C3363 C 0.47849 0.52054 0.49224 0.0
H3364 H 0.61709 0.50481 0.57389 0.0
H3365 H 0.5744 0.52042 0.5765 0.0
H3366 H 0.5971 0.51231 0.58973 0.0
H3367 H 0.59153 0.51325 0.53085 0.0
H3368 H 0.42793 0.53742 0.46584 0.0
H3369 H 0.46977 0.52106 0.46037 0.0
H3370 H 0.45658 0.53055 0.50757 0.0
H3371 H 0.44644 0.52903 0.44858 0.0
Eu3372 Eu 1.00277 0.51978 0.02447 0.0
C3373 C 0.05978 0.55466 0.99536 0.0
N3374 N 0.05058 0.54088 0.99007 0.0
C3375 C 0.04966 0.54742 0.9631 0.0
C3376 C 0.06381 0.56561 0.98466 0.0
C3377 C 0.04633 0.53681 0.97407 0.0
C3378 C 0.05821 0.56199 0.96845 0.0
C3379 C 0.07686 0.57099 0.01676 0.0
C3380 C 0.06618 0.55742 0.01127 0.0
C3381 C 0.08036 0.58215 0.00629 0.0
C3382 C 0.07379 0.5795 0.99031 0.0
Eu3383 Eu 0.04557 0.52402 0.00984 0.0
N3384 N 0.06238 0.54659 0.02127 0.0
C3385 C 0.08392 0.5728 0.03254 0.0
C3386 C 0.06981 0.54787 0.03637 0.0
C3387 C 0.0805 0.5611 0.04233 0.0
H3388 H 0.04076 0.52526 0.96962 0.0
H3389 H 0.08617 0.56223 0.05441 0.0
H3390 H 0.01054 0.5117 0.06231 0.0
H3391 H 0.9653 0.48593 0.97389 0.0
H3392 H 0.0674 0.53866 0.04376 0.0
H3393 H 0.09222 0.58304 0.03719 0.0
H3394 H 0.98357 0.50842 0.98761 0.0
H3395 H 0.04594 0.54422 0.95047 0.0
H3396 H 0.08839 0.59273 0.01034 0.0
H3397 H 0.07691 0.58806 0.98228 0.0
H3398 H 1.00272 0.4908 0.07867 0.0
H3399 H 0.06102 0.57009 0.95988 0.0
H3400 H 0.9563 0.46401 0.98875 0.0
N3401 N 0.99714 0.50019 0.04103 0.0
C3402 C 0.98637 0.48789 0.03437 0.0
C3403 C 0.99817 0.48976 0.06619 0.0
C3404 C 0.98145 0.47574 0.04339 0.0
C3405 C 1.00277 0.5015 0.05679 0.0
C3406 C 0.98753 0.47679 0.05945 0.0
N3407 N 0.98564 0.49896 0.00973 0.0
C3408 C 0.98013 0.49876 0.99409 0.0
C3409 C 0.9699 0.47424 0.01098 0.0
C3410 C 0.98058 0.48719 0.01829 0.0
C3411 C 0.9645 0.47378 0.99479 0.0
C3412 C 0.9696 0.4861 0.98634 0.0
H3413 H 0.984 0.46771 0.06677 0.0
H3414 H 0.96683 0.45348 0.04287 0.0
H3415 H 0.9568 0.45212 0.01454 0.0
O3416 O 0.97939 0.52512 0.02153 0.0
O3417 O 0.01277 0.49761 0.0195 0.0
O3418 O 0.02895 0.50188 -0.00024 0.0
O3419 O 0.99392 0.53131 0.04448 0.0
O3420 O 0.00582 0.52864 0.00063 0.0
O3421 O 0.0254 0.5179 0.99051 0.0
O3422 O 0.06223 0.51104 0.02 0.0
O3423 O 0.03947 0.54518 0.0241 0.0
O3424 O 0.01357 0.54286 0.01704 0.0
O3425 O 0.06467 0.51933 0.99701 0.0
O3426 O 0.03905 0.51404 0.03221 0.0
O3427 O 0.02274 0.52787 0.04339 0.0
C3428 C 0.02005 0.49245 0.0077 0.0
C3429 C 0.96851 0.53772 0.04374 0.0
C3430 C 0.94684 0.55127 0.04242 0.0
C3431 C 0.94644 0.55082 0.05899 0.0
C3432 C 0.96785 0.53749 0.06027 0.0
C3433 C 0.95681 0.5439 0.06779 0.0
C3434 C 0.95778 0.54442 0.03473 0.0
C3435 C 0.01324 0.52438 0.98874 0.0
C3436 C 0.98076 0.53135 0.03632 0.0
C3437 C 0.97072 0.46291 0.03612 0.0
C3438 C 0.965 0.46215 0.01997 0.0
C3439 C 0.02698 0.5513 0.02267 0.0
C3440 C 0.07498 0.49729 0.00177 0.0
C3441 C 0.09357 0.48019 0.00302 0.0
C3442 C 0.08478 0.4705 0.99013 0.0
C3443 C 0.06656 0.48769 0.98863 0.0
C3444 C 0.08862 0.49359 0.00884 0.0
C3445 C 0.07138 0.4743 0.98293 0.0
C3446 C 0.03525 0.52203 0.04444 0.0
C3447 C 0.07009 0.51152 0.00774 0.0
H3448 H 0.93802 0.5558 0.06514 0.0
H3449 H 0.97589 0.53231 0.0674 0.0
H3450 H 0.95636 0.54362 0.08053 0.0
H3451 H 0.95827 0.54479 0.02199 0.0
H3452 H 0.08849 0.46018 0.98541 0.0
H3453 H 0.05641 0.49071 0.98264 0.0
H3454 H 0.09538 0.50114 0.01878 0.0
H3455 H 0.06482 0.46693 0.9728 0.0
H3456 H 0.02959 0.18183 0.95971 0.0
H3457 H 0.03088 0.15694 0.96918 0.0
H3458 H 0.98545 0.15425 0.98362 0.0
H3459 H 0.98409 0.17927 0.97438 0.0
H3460 H 0.0296 0.14653 0.99857 0.0
H3461 H 0.98051 0.11296 0.95756 0.0
H3462 H 0.98886 0.13246 0.95506 0.0
H3463 H 0.97571 0.12865 0.96977 0.0
C3464 C 0.01985 0.17612 0.96502 0.0
C3465 C 0.00668 0.18288 0.96611 0.0
C3466 C 0.0206 0.16169 0.97039 0.0
C3467 C 0.00818 0.15333 0.97693 0.0
C3468 C 0.9951 0.16009 0.97826 0.0
H3469 H 0.99343 0.06154 0.01263 0.0
H3470 H 0.99069 0.08702 0.00501 0.0
C3471 C 0.99434 0.17454 0.97292 0.0
C3472 C 0.00908 0.13774 0.98251 0.0
H3473 H 0.9915 0.09975 0.97738 0.0
C3474 C 0.02126 0.13633 0.99386 0.0
C3475 C 0.99821 0.12424 0.9766 0.0
C3476 C 0.98516 0.12456 0.96397 0.0
C3477 C 0.02278 0.12209 -0.00052 0.0
C3478 C 0.01206 0.10853 0.99336 0.0
C3479 C 0.99977 0.10997 0.98217 0.0
C3480 C 0.01363 0.09279 0.99807 0.0
C3481 C 0.03575 0.12185 0.01226 0.0
C3482 C 0.02725 0.08706 0.99643 0.0
C3483 C 0.02881 0.07247 0.00075 0.0
C3484 C 0.01684 0.06298 0.00692 0.0
C3485 C 1.00302 0.0685 0.00818 0.0
C3486 C 1.00144 0.08315 0.00378 0.0
H3487 H 0.0396 0.13328 0.01932 0.0
H3488 H 0.03235 0.11325 0.02061 0.0
H3489 H 0.0457 0.11884 0.00651 0.0
H3490 H 0.0367 0.0938 0.99154 0.0
H3491 H 0.03942 0.06855 0.999 0.0
H3492 H 0.11378 0.7625 0.17201 0.0
H3493 H 0.13774 0.76147 0.18818 0.0
H3494 H 0.15851 0.80474 0.17366 0.0
H3495 H 0.13457 0.80588 0.15746 0.0
H3496 H 0.16593 0.76004 0.18067 0.0
H3497 H 0.16981 0.81359 0.22107 0.0
H3498 H 0.15273 0.80525 0.20778 0.0
H3499 H 0.16874 0.8167 0.20034 0.0
C3500 C 0.12342 0.77182 0.17215 0.0
C3501 C 0.12202 0.78432 0.16333 0.0
C3502 C 0.13719 0.77123 0.18153 0.0
C3503 C 0.15004 0.78314 0.1825 0.0
C3504 C 0.14875 0.79557 0.1736 0.0
H3505 H 0.24495 0.79529 0.22913 0.0
H3506 H 0.22135 0.79752 0.21268 0.0
C3507 C 0.13496 0.7962 0.16425 0.0
C3508 C 0.16481 0.78227 0.19245 0.0
H3509 H 0.19175 0.80169 0.22256 0.0
C3510 C 0.17148 0.76915 0.18987 0.0
C3511 C 0.17226 0.7941 0.20454 0.0
C3512 C 0.16546 0.80813 0.20874 0.0
C3513 C 0.18529 0.76763 0.19876 0.0
C3514 C 0.19273 0.77945 0.21079 0.0
C3515 C 0.18615 0.79262 0.21333 0.0
C3516 C 0.20715 0.77821 0.221 0.0
C3517 C 0.19198 0.75343 0.19501 0.0
C3518 C 0.20714 0.76676 0.23142 0.0
C3519 C 0.22061 0.7655 0.24091 0.0
C3520 C 0.23456 0.77563 0.24024 0.0
C3521 C 0.23451 0.7872 0.22992 0.0
C3522 C 0.22098 0.78852 0.22051 0.0
H3523 H 0.18702 0.74719 0.18315 0.0
H3524 H 0.20464 0.75641 0.19516 0.0
H3525 H 0.18945 0.74555 0.20426 0.0
H3526 H 0.19664 0.75878 0.23228 0.0
H3527 H 0.2201 0.75646 0.2487 0.0
H3528 H 0.52653 0.84558 0.48885 0.0
H3529 H 0.52825 0.87288 0.49787 0.0
H3530 H 0.49568 0.87656 0.45802 0.0
H3531 H 0.49386 0.84939 0.44899 0.0
H3532 H 0.53756 0.89878 0.48508 0.0
H3533 H 0.47636 0.89638 0.49332 0.0
H3534 H 0.48443 0.87928 0.48996 0.0
H3535 H 0.47885 0.88921 0.47336 0.0
C3536 C 0.51972 0.85215 0.48194 0.0
C3537 C 0.50991 0.84496 0.4682 0.0
C3538 C 0.52068 0.86786 0.48718 0.0
C3539 C 0.51185 0.87698 0.47892 0.0
C3540 C 0.50227 0.86989 0.46504 0.0
H3541 H 0.52876 0.97725 0.48249 0.0
H3542 H 0.52707 0.94961 0.47624 0.0
C3543 C 0.50126 0.8542 0.45983 0.0
C3544 C 0.51295 0.89387 0.48448 0.0
H3545 H 0.49143 0.92142 0.49343 0.0
C3546 C 0.52744 0.90365 0.48695 0.0
C3547 C 0.49987 0.90048 0.48729 0.0
C3548 C 0.48403 0.89077 0.48602 0.0
C3549 C 0.52912 0.91962 0.49157 0.0
C3550 C 0.51598 0.9263 0.49363 0.0
C3551 C 0.50155 0.91649 0.49167 0.0
C3552 C 0.51698 0.9434 0.49761 0.0
C3553 C 0.54508 0.92921 0.49443 0.0
C3554 C 0.51159 0.94944 0.51158 0.0
C3555 C 0.51281 0.96543 0.51536 0.0
C3556 C 0.51919 0.97589 0.50513 0.0
C3557 C 0.52416 0.96974 0.49093 0.0
C3558 C 0.52315 0.95381 0.48729 0.0
H3559 H 0.55392 0.92206 0.49678 0.0
H3560 H 0.54759 0.935 0.48363 0.0
H3561 H 0.54608 0.93819 0.50472 0.0
H3562 H 0.50667 0.94178 0.51977 0.0
H3563 H 0.50896 0.96959 0.52644 0.0
H3564 H 0.46188 0.29107 0.64134 0.0
H3565 H 0.43905 0.28961 0.65567 0.0
H3566 H 0.45929 0.26402 0.69009 0.0
H3567 H 0.48226 0.26571 0.67606 0.0
H3568 H 0.41889 0.26386 0.66149 0.0
H3569 H 0.44539 0.29692 0.71915 0.0
H3570 H 0.45495 0.29727 0.7012 0.0
H3571 H 0.4548 0.28143 0.71299 0.0
C3572 C 0.46161 0.28532 0.6521 0.0
C3573 C 0.47404 0.27855 0.65751 0.0
C3574 C 0.44846 0.28442 0.66025 0.0
C3575 C 0.44744 0.2769 0.67416 0.0
C3576 C 0.45983 0.27016 0.6796 0.0
H3577 H 0.37615 0.24884 0.73533 0.0
H3578 H 0.40041 0.25537 0.72355 0.0
C3579 C 0.47293 0.27097 0.67141 0.0
C3580 C 0.43318 0.27551 0.68254 0.0
H3581 H 0.41992 0.2829 0.71879 0.0
C3582 C 0.41912 0.26816 0.67398 0.0
C3583 C 0.43338 0.28106 0.69888 0.0
C3584 C 0.4479 0.28975 0.70858 0.0
C3585 C 0.40544 0.26582 0.68134 0.0
C3586 C 0.40564 0.27125 0.69772 0.0
C3587 C 0.41969 0.27872 0.70627 0.0
C3588 C 0.39144 0.26889 0.70617 0.0
C3589 C 0.39094 0.25707 0.67161 0.0
C3590 C 0.37843 0.27479 0.70084 0.0
C3591 C 0.3646 0.27111 0.70761 0.0
C3592 C 0.36354 0.26165 0.72004 0.0
C3593 C 0.37674 0.25638 0.72595 0.0
C3594 C 0.39057 0.26004 0.71915 0.0
H3595 H 0.39343 0.25046 0.66064 0.0
H3596 H 0.38428 0.249 0.67878 0.0
H3597 H 0.38365 0.26531 0.66783 0.0
H3598 H 0.37882 0.28188 0.69107 0.0
H3599 H 0.35455 0.27515 0.7027 0.0
H3600 H 0.01033 0.83676 0.64781 0.0
H3601 H 0.01133 0.85962 0.63354 0.0
H3602 H 0.02234 0.83428 0.5915 0.0
H3603 H 0.02108 0.81133 0.60555 0.0
H3604 H 0.03619 0.87539 0.61973 0.0
H3605 H 0.98679 0.85372 0.57351 0.0
H3606 H 0.98989 0.84455 0.59143 0.0
H3607 H 1.00067 0.84135 0.57485 0.0
C3608 C 0.01276 0.83596 0.63545 0.0
C3609 C 0.01557 0.82209 0.62786 0.0
C3610 C 0.01342 0.8491 0.62733 0.0
C3611 C 0.01669 0.84869 0.61133 0.0
C3612 C 0.01951 0.83488 0.60372 0.0
H3613 H 0.03599 0.91175 0.54109 0.0
H3614 H 0.02814 0.88962 0.55561 0.0
C3615 C 0.01896 0.82177 0.61186 0.0
C3616 C 0.01772 0.8628 0.60279 0.0
H3617 H 1.00305 0.877 0.56955 0.0
C3618 C 0.02883 0.87581 0.60886 0.0
C3619 C 0.00816 0.86338 0.58855 0.0
C3620 C 0.9956 0.85007 0.58174 0.0
C3621 C 0.03101 0.8891 0.60082 0.0
C3622 C 0.02154 0.88964 0.58647 0.0
C3623 C 0.01027 0.8767 0.58055 0.0
C3624 C 0.02393 0.90307 0.57689 0.0
C3625 C 0.04391 0.90217 0.60744 0.0
C3626 C 0.02341 0.91806 0.58357 0.0
C3627 C 0.02778 0.93076 0.57516 0.0
C3628 C 0.0326 0.9287 0.55984 0.0
C3629 C 0.03207 0.91365 0.55275 0.0
C3630 C 0.02771 0.90099 0.56113 0.0
H3631 H 0.05234 0.89851 0.61613 0.0
H3632 H 0.05007 0.90702 0.59769 0.0
H3633 H 0.0391 0.91142 0.61378 0.0
H3634 H 0.02023 0.92 0.59556 0.0
H3635 H 0.02836 0.94223 0.58103 0.0
H3636 H 0.4463 0.75843 0.81392 0.0
H3637 H 0.41894 0.75685 0.80566 0.0
H3638 H 0.42527 0.80621 0.81077 0.0
H3639 H 0.45256 0.80794 0.81921 0.0
H3640 H 0.39656 0.76656 0.82134 0.0
H3641 H 0.4015 0.79638 0.76686 0.0
H3642 H 0.41756 0.78998 0.77705 0.0
H3643 H 0.41206 0.80764 0.78441 0.0
C3644 C 0.44195 0.76901 0.81337 0.0
C3645 C 0.45193 0.78334 0.81726 0.0
C3646 C 0.4262 0.76806 0.80852 0.0
C3647 C 0.41987 0.78139 0.80727 0.0
C3648 C 0.42977 0.7957 0.81116 0.0
H3649 H 0.32651 0.79992 0.78694 0.0
H3650 H 0.3542 0.80169 0.79364 0.0
C3651 C 0.44551 0.79666 0.81602 0.0
C3652 C 0.4029 0.78031 0.80251 0.0
H3653 H 0.37676 0.79191 0.77599 0.0
C3654 C 0.39228 0.77204 0.81135 0.0
C3655 C 0.3971 0.78742 0.78946 0.0
C3656 C 0.40763 0.79573 0.77879 0.0
C3657 C 0.37627 0.77096 0.80779 0.0
C3658 C 0.37048 0.77818 0.79484 0.0
C3659 C 0.38107 0.78643 0.78597 0.0
C3660 C 0.35352 0.77717 0.79029 0.0
C3661 C 0.36566 0.7624 0.81824 0.0
C3662 C 0.34374 0.7629 0.78576 0.0
C3663 C 0.32789 0.76196 0.7817 0.0
C3664 C 0.32125 0.77524 0.78211 0.0
C3665 C 0.33111 0.78952 0.78634 0.0
C3666 C 0.34701 0.7905 0.79029 0.0
H3667 H 0.3718 0.76111 0.82997 0.0
H3668 H 0.35596 0.76835 0.82041 0.0
H3669 H 0.36085 0.75073 0.81212 0.0
H3670 H 0.34838 0.75242 0.78518 0.0
H3671 H 0.32085 0.75079 0.77794 0.0
H3672 H 0.49412 0.15818 0.13555 0.0
H3673 H 0.4953 0.13418 0.1193 0.0
H3674 H 0.52443 0.15963 0.08911 0.0
H3675 H 0.52372 0.1835 0.10565 0.0
H3676 H 0.48668 0.12294 0.08941 0.0
H3677 H 0.54982 0.12851 0.09819 0.0
H3678 H 0.53992 0.14118 0.10939 0.0
H3679 H 0.54419 0.14452 0.08941 0.0
C3680 C 0.50078 0.15866 0.12544 0.0
C3681 C 0.50897 0.17282 0.12206 0.0
C3682 C 0.50148 0.14488 0.11614 0.0
C3683 C 0.51031 0.14486 0.10312 0.0
C3684 C 0.51801 0.15909 0.09939 0.0
H3685 H 0.52806 0.07603 0.03004 0.0
H3686 H 0.52567 0.09935 0.04656 0.0
C3687 C 0.51751 0.17282 0.10883 0.0
C3688 C 0.51125 0.13006 0.09334 0.0
H3689 H 0.53646 0.10909 0.07795 0.0
C3690 C 0.4976 0.1199 0.08704 0.0
C3691 C 0.52545 0.12587 0.09015 0.0
C3692 C 0.54066 0.13552 0.09728 0.0
C3693 C 0.49773 0.10606 0.07742 0.0
C3694 C 0.51192 0.10203 0.07405 0.0
C3695 C 0.52556 0.11212 0.08041 0.0
C3696 C 0.51292 0.08757 0.06379 0.0
C3697 C 0.48261 0.09606 0.07061 0.0
C3698 C 0.50667 0.07298 0.0679 0.0
C3699 C 0.50789 0.05952 0.05832 0.0
C3700 C 0.51547 0.06027 0.0444 0.0
C3701 C 0.52185 0.0749 0.04043 0.0
C3702 C 0.52061 0.08832 0.04999 0.0
H3703 H 0.47302 0.10254 0.07071 0.0
H3704 H 0.48309 0.09113 0.05813 0.0
H3705 H 0.48001 0.08644 0.07798 0.0
H3706 H 0.50098 0.07196 0.07865 0.0
H3707 H 0.50285 0.04852 0.06184 0.0
H3708 H 0.1093 0.26312 0.31869 0.0
H3709 H 0.13415 0.26138 0.30929 0.0
H3710 H 0.14336 0.31023 0.30721 0.0
H3711 H 0.11838 0.3121 0.31628 0.0
H3712 H 0.14664 0.26924 0.28116 0.0
H3713 H 0.18209 0.30414 0.33382 0.0
H3714 H 0.16187 0.29678 0.33385 0.0
H3715 H 0.1681 0.31346 0.32398 0.0
C3716 C 0.11644 0.27355 0.3161 0.0
C3717 C 0.11153 0.28779 0.31842 0.0
C3718 C 0.13082 0.27252 0.31077 0.0
C3719 C 0.14096 0.28568 0.30772 0.0
C3720 C 0.13606 0.29988 0.30981 0.0
H3721 H 0.23637 0.30061 0.28212 0.0
H3722 H 0.21093 0.30367 0.28948 0.0
C3723 C 0.12164 0.30093 0.31507 0.0
C3724 C 0.15648 0.28447 0.30226 0.0
H3725 H 0.19528 0.29641 0.31239 0.0
C3726 C 0.15727 0.27518 0.28803 0.0
C3727 C 0.17051 0.29227 0.31101 0.0
C3728 C 0.17069 0.30213 0.32659 0.0
C3729 C 0.17144 0.27365 0.28226 0.0
C3730 C 0.18553 0.28118 0.2912 0.0
C3731 C 0.1847 0.29056 0.3054 0.0
C3732 C 0.20116 0.27936 0.28625 0.0
C3733 C 0.17101 0.26433 0.26629 0.0
C3734 C 0.20466 0.26473 0.28216 0.0
C3735 C 0.21918 0.26305 0.2777 0.0
C3736 C 0.23089 0.27584 0.27742 0.0
C3737 C 0.22763 0.29047 0.28199 0.0
C3738 C 0.21299 0.29221 0.28624 0.0
H3739 H 0.16012 0.26412 0.25861 0.0
H3740 H 0.18074 0.26894 0.25972 0.0
H3741 H 0.17163 0.25229 0.26824 0.0
H3742 H 0.19626 0.25448 0.28274 0.0
H3743 H 0.22139 0.25164 0.27512 0.0
H3744 H 0.97225 0.00291 0.18493 0.0
H3745 H 0.9827 0.00432 0.15915 0.0
H3746 H 0.95331 0.03597 0.14632 0.0
H3747 H 0.94272 0.03456 0.17191 0.0
H3748 H 0.96753 0.99679 0.12847 0.0
H3749 H 0.99521 0.05824 0.1374 0.0
H3750 H 0.98879 0.04788 0.15365 0.0
H3751 H 0.97528 0.05506 0.14053 0.0
C3752 C 0.96797 0.01015 0.17662 0.0
C3753 C 0.95669 0.0187 0.18061 0.0
C3754 C 0.97402 0.011 0.1619 0.0
C3755 C 0.969 0.02046 0.15089 0.0
C3756 C 0.95767 0.0289 0.15477 0.0
H3757 H 0.98655 0.03592 0.05274 0.0
H3758 H 0.97614 0.03541 0.07875 0.0
C3759 C 0.95163 0.02808 0.16946 0.0
C3760 C 0.97514 0.02108 0.13509 0.0
H3761 H 0.99327 0.04556 0.11096 0.0
C3762 C 0.97322 0.00744 0.12469 0.0
C3763 C 0.98258 0.03498 0.13012 0.0
C3764 C 0.98574 0.04985 0.14105 0.0
C3765 C 0.97827 0.00739 0.10939 0.0
C3766 C 0.98556 0.02131 0.10438 0.0
C3767 C 0.98753 0.03494 0.11476 0.0
C3768 C 0.9918 0.02178 0.08866 0.0
C3769 C 0.97559 0.99247 0.09858 0.0
C3770 C 0.00413 0.01445 0.08571 0.0
C3771 C 0.01006 0.01474 0.07098 0.0
C3772 C 0.00382 0.02239 0.05881 0.0
C3773 C 0.99152 0.02984 0.06181 0.0
C3774 C 0.98561 0.0296 0.07666 0.0
H3775 H 0.96682 0.9836 0.10263 0.0
H3776 H 0.97186 0.99422 0.08606 0.0
H3777 H 0.98649 0.98802 0.0986 0.0
H3778 H 0.00922 0.00853 0.09486 0.0
H3779 H 0.01954 0.00887 0.0691 0.0
H3780 H 0.25821 0.68877 0.47191 0.0
H3781 H 0.25983 0.70315 0.4486 0.0
H3782 H 0.29081 0.67544 0.43004 0.0
H3783 H 0.28893 0.66072 0.45309 0.0
H3784 H 0.28558 0.71951 0.43372 0.0
H3785 H 0.25163 0.66715 0.39694 0.0
H3786 H 0.25324 0.66933 0.41852 0.0
H3787 H 0.26905 0.66498 0.40836 0.0
C3788 C 0.26543 0.68582 0.4629 0.0
C3789 C 0.27327 0.67353 0.46413 0.0
C3790 C 0.26649 0.69413 0.44974 0.0
C3791 C 0.27536 0.69022 0.43768 0.0
C3792 C 0.28388 0.67853 0.43929 0.0
H3793 H 0.26151 0.7177 0.34168 0.0
H3794 H 0.2751 0.7093 0.3649 0.0
C3795 C 0.28282 0.67019 0.45244 0.0
C3796 C 0.27413 0.69716 0.42263 0.0
H3797 H 0.25671 0.6895 0.38436 0.0
C3798 C 0.27951 0.71296 0.42281 0.0
C3799 C 0.26613 0.68847 0.40854 0.0
C3800 C 0.25956 0.67157 0.40799 0.0
C3801 C 0.27659 0.72045 0.40929 0.0
C3802 C 0.26803 0.71185 0.39547 0.0
C3803 C 0.26336 0.69595 0.39504 0.0
C3804 C 0.26197 0.7192 0.38205 0.0
C3805 C 0.28224 0.7375 0.40995 0.0
C3806 C 0.25014 0.72747 0.38418 0.0
C3807 C 0.24222 0.73203 0.37099 0.0
C3808 C 0.24612 0.72841 0.35555 0.0
C3809 C 0.25834 0.72061 0.35352 0.0
C3810 C 0.26615 0.71591 0.3667 0.0
H3811 H 0.29168 0.7417 0.41975 0.0
H3812 H 0.28633 0.74048 0.3984 0.0
H3813 H 0.27263 0.74359 0.41212 0.0
H3814 H 0.2466 0.72981 0.39597 0.0
H3815 H 0.23296 0.73822 0.37281 0.0
H3816 H 0.60103 0.00577 0.68363 0.0
H3817 H 0.58218 0.00334 0.65998 0.0
H3818 H 0.61228 0.03824 0.63988 0.0
H3819 H 0.6312 0.0407 0.66346 0.0
H3820 H 0.5691 0.02959 0.64733 0.0
H3821 H 0.6011 0.99834 0.6058 0.0
H3822 H 0.60426 0.9987 0.6273 0.0
H3823 H 0.61213 0.01509 0.61784 0.0
C3824 C 0.60361 0.01284 0.67409 0.0
C3825 C 0.61748 0.02338 0.67519 0.0
C3826 C 0.59287 0.0115 0.66073 0.0
C3827 C 0.59602 0.02057 0.64834 0.0
C3828 C 0.60982 0.03114 0.64941 0.0
H3829 H 0.54256 0.04503 0.56912 0.0
H3830 H 0.55572 0.04377 0.59566 0.0
C3831 C 0.62051 0.03257 0.66282 0.0
C3832 C 0.58487 0.01905 0.6342 0.0
H3833 H 0.57994 0.0079 0.5942 0.0
C3834 C 0.57129 0.0247 0.6357 0.0
C3835 C 0.58786 0.01248 0.61926 0.0
C3836 C 0.60207 0.00568 0.61738 0.0
C3837 C 0.56069 0.0244 0.62231 0.0
C3838 C 0.56403 0.01851 0.60717 0.0
C3839 C 0.57744 0.01242 0.60585 0.0
C3840 C 0.55426 0.01908 0.59233 0.0
C3841 C 0.5461 0.03041 0.62451 0.0
C3842 C 0.54928 0.00566 0.58172 0.0
C3843 C 0.54231 0.00648 0.56649 0.0
C3844 C 0.53997 0.02067 0.56189 0.0
C3845 C 0.54418 0.03399 0.5727 0.0
C3846 C 0.55154 0.03324 0.58782 0.0
H3847 H 0.54296 0.02961 0.63688 0.0
H3848 H 0.54788 0.04271 0.62248 0.0
H3849 H 0.53637 0.02405 0.61592 0.0
H3850 H 0.55135 0.99466 0.58501 0.0
H3851 H 0.53898 0.99611 0.5582 0.0
H3852 H 0.27098 0.3522 0.93257 0.0
H3853 H 0.27129 0.34015 0.90529 0.0
H3854 H 0.28089 0.29903 0.92408 0.0
H3855 H 0.2806 0.31099 0.95144 0.0
H3856 H 0.2994 0.32463 0.89506 0.0
H3857 H 0.24096 0.28814 0.88708 0.0
H3858 H 0.24537 0.30598 0.90016 0.0
H3859 H 0.2528 0.2896 0.90591 0.0
C3860 C 0.27297 0.34052 0.9309 0.0
C3861 C 0.27574 0.33254 0.94418 0.0
C3862 C 0.27324 0.3337 0.91532 0.0
C3863 C 0.2761 0.31872 0.91271 0.0
C3864 C 0.27865 0.3106 0.92588 0.0
H3865 H 0.28716 0.26578 0.82253 0.0
H3866 H 0.28766 0.27441 0.8511 0.0
C3867 C 0.27853 0.31747 0.94148 0.0
C3868 C 0.27677 0.31174 0.8962 0.0
H3869 H 0.2557 0.28717 0.86533 0.0
C3870 C 0.28991 0.31636 0.88859 0.0
C3871 C 0.26437 0.30095 0.88784 0.0
C3872 C 0.25 0.29582 0.89554 0.0
C3873 C 0.29087 0.31056 0.87271 0.0
C3874 C 0.27835 0.30001 0.86426 0.0
C3875 C 0.2653 0.29521 0.87193 0.0
C3876 C 0.27824 0.29471 0.84708 0.0
C3877 C 0.30512 0.31587 0.86487 0.0
C3878 C 0.27282 0.3033 0.83545 0.0
C3879 C 0.2726 0.29848 0.81918 0.0
C3880 C 0.27783 0.28495 0.81419 0.0
C3881 C 0.28322 0.27633 0.82593 0.0
C3882 C 0.28345 0.28119 0.84225 0.0
H3883 H 0.31424 0.32342 0.87335 0.0
H3884 H 0.30969 0.30579 0.85995 0.0
H3885 H 0.30217 0.32227 0.85469 0.0
H3886 H 0.26875 0.31377 0.83898 0.0
H3887 H 0.26836 0.30542 0.81052 0.0
H3888 H 0.98263 0.00961 0.33215 0.0
H3889 H 0.99459 0.00893 0.3594 0.0
H3890 H 0.95898 0.02972 0.37869 0.0
H3891 H 0.94686 0.03027 0.35155 0.0
H3892 H 0.00503 0.03365 0.38569 0.0
H3893 H 0.95783 0.98889 0.3996 0.0
H3894 H 0.96069 0.99283 0.37937 0.0
H3895 H 0.95175 0.00528 0.39191 0.0
C3896 C 0.97734 0.01403 0.34219 0.0
C3897 C 0.96371 0.0199 0.33964 0.0
C3898 C 0.98424 0.01371 0.35775 0.0
C3899 C 0.97757 0.01908 0.37108 0.0
C3900 C 0.96423 0.02535 0.36858 0.0
H3901 H 0.99177 0.02688 0.47327 0.0
H3902 H 0.98369 0.02691 0.44493 0.0
C3903 C 0.95738 0.02577 0.35304 0.0
C3904 C 0.98425 0.01776 0.38761 0.0
H3905 H 0.97618 1.00082 0.42131 0.0
C3906 C 0.99881 0.02637 0.39345 0.0
C3907 C 0.97616 0.00819 0.39768 0.0
C3908 C 0.9608 0.99815 0.39183 0.0
C3909 C 0.0052 0.02612 0.40932 0.0
C3910 C 0.99692 0.01681 0.41949 0.0
C3911 C 0.98253 0.00794 0.4135 0.0
C3912 C 1.0024 0.01689 0.43671 0.0
C3913 C 0.02048 0.03624 0.4153 0.0
C3914 C 0.01563 0.01115 0.44158 0.0
C3915 C 0.02033 0.01106 0.45793 0.0
C3916 C 0.01184 0.0167 0.46966 0.0
C3917 C 0.99862 0.02243 0.46464 0.0
C3918 C 0.99394 0.02246 0.4484 0.0
H3919 H 0.02421 0.04459 0.40681 0.0
H3920 H 0.01989 0.04265 0.4271 0.0
H3921 H 0.02932 0.02898 0.41695 0.0
H3922 H 0.02223 0.0066 0.43276 0.0
H3923 H 0.03059 0.00663 0.46136 0.0
H3924 H 0.24829 0.66458 0.61625 0.0
H3925 H 0.2502 0.68157 0.64109 0.0
H3926 H 0.29492 0.70465 0.63216 0.0
H3927 H 0.29283 0.68813 0.60692 0.0
H3928 H 0.27182 0.68539 0.6672 0.0
H3929 H 0.27157 0.7398 0.63989 0.0
H3930 H 0.26641 0.72117 0.62836 0.0
H3931 H 0.28627 0.72963 0.63407 0.0
C3932 C 0.25843 0.67342 0.61948 0.0
C3933 C 0.27036 0.67518 0.60965 0.0
C3934 C 0.25955 0.683 0.63368 0.0
C3935 C 0.27259 0.69442 0.63821 0.0
C3936 C 0.28466 0.69603 0.62862 0.0
H3937 H 0.29578 0.74168 0.7338 0.0
H3938 H 0.29572 0.72614 0.70837 0.0
C3939 C 0.28352 0.68651 0.61435 0.0
C3940 C 0.27357 0.70451 0.65316 0.0
H3941 H 0.27653 0.74187 0.66819 0.0
C3942 C 0.27283 0.69774 0.66747 0.0
C3943 C 0.27466 0.72054 0.65327 0.0
C3944 C 0.27463 0.72823 0.63807 0.0
C3945 C 0.27316 0.70666 0.68205 0.0
C3946 C 0.27475 0.72275 0.68223 0.0
C3947 C 0.27545 0.72951 0.66791 0.0
C3948 C 0.27536 0.73277 0.69716 0.0
C3949 C 0.2714 0.69872 0.69702 0.0
C3950 C 0.26433 0.74211 0.69886 0.0
C3951 C 0.26456 0.75125 0.7132 0.0
C3952 C 0.27573 0.75099 0.72597 0.0
C3953 C 0.28696 0.7419 0.72412 0.0
C3954 C 0.28688 0.73298 0.7097 0.0
H3955 H 0.26602 0.68641 0.69415 0.0
H3956 H 0.28291 0.6993 0.7036 0.0
H3957 H 0.26433 0.70434 0.70506 0.0
H3958 H 0.25539 0.74208 0.68922 0.0
H3959 H 0.25574 0.75813 0.71447 0.0
H3960 H 0.60418 0.0088 0.80771 0.0
H3961 H 0.58897 0.00916 0.83058 0.0
H3962 H 0.62694 0.03959 0.85909 0.0
H3963 H 0.64201 0.03945 0.83635 0.0
H3964 H 0.59541 1.00193 0.86301 0.0
H3965 H 0.59088 0.06292 0.86002 0.0
H3966 H 0.59666 0.05137 0.84374 0.0
H3967 H 0.61033 0.05996 0.86061 0.0
C3968 C 0.60924 0.01544 0.81894 0.0
C3969 C 0.62412 0.02425 0.82034 0.0
C3970 C 0.6006 0.01564 0.83191 0.0
C3971 C 0.60682 0.0246 0.84632 0.0
C3972 C 0.6219 0.03286 0.8479 0.0
H3973 H 0.5954 0.05326 0.93962 0.0
H3974 H 0.60319 0.04176 0.91493 0.0
C3975 C 0.63046 0.03279 0.83496 0.0
C3976 C 0.59758 0.02591 0.85973 0.0
H3977 H 0.5863 0.05286 0.8849 0.0
C3978 C 0.59311 0.01297 0.86769 0.0
C3979 C 0.59445 0.04031 0.86554 0.0
C3980 C 0.59819 0.05439 0.85693 0.0
C3981 C 0.58654 0.01437 0.88212 0.0
C3982 C 0.58457 0.02901 0.88848 0.0
C3983 C 0.5881 0.04169 0.87997 0.0
C3984 C 0.58 0.03201 0.90452 0.0
C3985 C 0.58242 1.00049 0.89088 0.0
C3986 C 0.56444 0.02988 0.90682 0.0
C3987 C 0.55998 0.03648 0.92085 0.0
C3988 C 0.57107 0.04541 0.93255 0.0
C3989 C 0.58669 0.04665 0.93062 0.0
C3990 C 0.59113 0.03995 0.91667 0.0
H3991 H 0.58446 0.98983 0.88416 0.0
H3992 H 0.5893 1.00228 0.90279 0.0
H3993 H 0.57013 0.99897 0.89294 0.0
H3994 H 0.55575 0.02397 0.89738 0.0
H3995 H 0.54785 0.03539 0.92213 0.0
H3996 H 0.25443 0.32451 0.09656 0.0
H3997 H 0.2522 0.3142 0.12226 0.0
H3998 H 0.29858 0.33691 0.13894 0.0
H3999 H 0.30066 0.34793 0.11364 0.0
H4000 H 0.26733 0.29554 0.13764 0.0
H4001 H 0.27602 0.35166 0.17468 0.0
H4002 H 0.27283 0.34982 0.15311 0.0
H4003 H 0.29166 0.35001 0.16307 0.0
C4004 C 0.26411 0.3275 0.10575 0.0
C4005 C 0.27767 0.33723 0.10301 0.0
C4006 C 0.26285 0.32148 0.12042 0.0
C4007 C 0.27509 0.32504 0.1327 0.0
C4008 C 0.28882 0.33431 0.12983 0.0
H4009 H 0.28674 0.27461 0.21457 0.0
H4010 H 0.2872 0.2851 0.18894 0.0
C4011 C 0.29007 0.34042 0.11521 0.0
C4012 C 0.27354 0.31897 0.14846 0.0
H4013 H 0.27736 0.32982 0.18876 0.0
C4014 C 0.26943 0.30305 0.14881 0.0
C4015 C 0.27594 0.32875 0.16305 0.0
C4016 C 0.27919 0.34601 0.16349 0.0
C4017 C 0.26803 0.29663 0.16333 0.0
C4018 C 0.27131 0.30636 0.17799 0.0
C4019 C 0.27502 0.32231 0.17759 0.0
C4020 C 0.27122 0.30025 0.19386 0.0
C4021 C 0.26279 0.27949 0.1627 0.0
C4022 C 0.26274 0.30582 0.20563 0.0
C4023 C 0.26279 0.3001 0.22057 0.0
C4024 C 0.27119 0.28859 0.22391 0.0
C4025 C 0.27989 0.28327 0.21224 0.0
C4026 C 0.28007 0.28917 0.19749 0.0
H4027 H 0.25583 0.27466 0.15116 0.0
H4028 H 0.27299 0.27389 0.1637 0.0
H4029 H 0.25585 0.27649 0.17261 0.0
H4030 H 0.25594 0.31449 0.2032 0.0
H4031 H 0.25602 0.30443 0.22936 0.0
H4032 H 0.20852 0.94848 0.01455 0.0
H4033 H 0.18484 0.95875 0.01418 0.0
H4034 H 0.19406 0.97807 0.97028 0.0
H4035 H 0.21798 0.96767 0.97053 0.0
H4036 H 0.18791 0.99786 0.00246 0.0
H4037 H 0.14444 0.94618 0.97812 0.0
H4038 H 0.16041 0.943 0.99128 0.0
H4039 H 0.16369 0.9497 0.97227 0.0
C4040 C 0.20548 0.95489 0.0048 0.0
C4041 C 0.21501 0.95745 0.99263 0.0
C4042 C 0.19195 0.96059 0.00453 0.0
C4043 C 0.18779 0.96894 0.99211 0.0
C4044 C 0.19715 0.97146 0.97982 0.0
H4045 H 0.11528 0.01922 0.01588 0.0
H4046 H 0.13292 0.00961 0.99862 0.0
C4047 C 0.21071 0.96558 0.97999 0.0
C4048 C 0.1742 0.97593 0.9931 0.0
H4049 H 0.13582 0.96551 0.99492 0.0
C4050 C 0.17639 0.99108 0.00027 0.0
C4051 C 0.15938 0.96681 0.99037 0.0
C4052 C 0.15674 0.95053 0.98247 0.0
C4053 C 0.16419 0.99696 0.00616 0.0
C4054 C 0.14953 0.98745 0.00444 0.0
C4055 C 0.14712 0.97271 0.99612 0.0
C4056 C 0.13729 0.99185 0.01329 0.0
C4057 C 0.16731 0.01274 0.01544 0.0
C4058 C 0.13376 0.98471 0.02695 0.0
C4059 C 0.12373 0.99014 0.03681 0.0
C4060 C 0.1171 0.00272 0.03306 0.0
C4061 C 0.12023 0.00946 0.01901 0.0
C4062 C 0.13027 0.00403 0.00916 0.0
H4063 H 0.17971 0.01798 0.01704 0.0
H4064 H 0.16094 0.02041 0.00902 0.0
H4065 H 0.16323 0.01211 0.02745 0.0
H4066 H 0.13917 0.97528 0.03025 0.0
H4067 H 0.12126 0.9846 0.04742 0.0
H4068 H 0.69138 0.59151 0.9856 0.0
H4069 H 0.66609 0.5755 0.98597 0.0
H4070 H 0.65541 0.6084 0.022 0.0
H4071 H 0.68034 0.62474 0.02126 0.0
H4072 H 0.65379 0.56172 0.01069 0.0
H4073 H 0.6178 0.60233 0.98959 0.0
H4074 H 0.63818 0.6051 0.9881 0.0
H4075 H 0.63116 0.61051 0.00673 0.0
C4076 C 0.68356 0.59547 0.99342 0.0
C4077 C 0.68794 0.60947 0.00338 0.0
C4078 C 0.66914 0.58624 0.9937 0.0
C4079 C 0.65874 0.59083 0.00384 0.0
C4080 C 0.66309 0.60474 0.01383 0.0
H4081 H 0.57416 0.54857 0.03656 0.0
H4082 H 0.59988 0.56268 0.03364 0.0
C4083 C 0.67747 0.61398 0.01355 0.0
C4084 C 0.64355 0.58087 0.0044 0.0
H4085 H 0.60493 0.58073 0.00105 0.0
C4086 C 0.64311 0.56584 0.00842 0.0
C4087 C 0.62957 0.5862 0.00135 0.0
C4088 C 0.62915 0.60186 0.99604 0.0
C4089 C 0.62913 0.55619 0.00996 0.0
C4090 C 0.61528 0.56172 0.00742 0.0
C4091 C 0.61564 0.5766 0.0031 0.0
C4092 C 0.60029 0.55231 0.00951 0.0
C4093 C 0.62916 0.54025 0.01459 0.0
C4094 C 0.59215 0.54168 0.99698 0.0
C4095 C 0.57741 0.53375 0.99857 0.0
C4096 C 0.57072 0.53631 0.01276 0.0
C4097 C 0.5791 0.54651 0.02549 0.0
C4098 C 0.59375 0.55453 0.02385 0.0
H4099 H 0.64095 0.53778 0.01661 0.0
H4100 H 0.6235 0.53883 0.02568 0.0
H4101 H 0.62243 0.53167 0.00499 0.0
H4102 H 0.59701 0.53987 0.98581 0.0
H4103 H 0.57102 0.5261 0.98853 0.0
H4104 H 0.66173 0.44759 0.25397 0.0
H4105 H 0.67523 0.42597 0.25304 0.0
H4106 H 0.70394 0.44636 0.2963 0.0
H4107 H 0.69083 0.46836 0.29713 0.0
H4108 H 0.70801 0.42833 0.25194 0.0
H4109 H 0.68736 0.4009 0.30452 0.0
H4110 H 0.67747 0.41416 0.2947 0.0
H4111 H 0.69495 0.4212 0.30759 0.0
C4112 C 0.67099 0.44762 0.26325 0.0
C4113 C 0.67521 0.45987 0.27557 0.0
C4114 C 0.67861 0.43515 0.26276 0.0
C4115 C 0.69049 0.43449 0.27467 0.0
C4116 C 0.69464 0.44652 0.28712 0.0
H4117 H 0.75462 0.36985 0.26909 0.0
H4118 H 0.74255 0.39121 0.27918 0.0
C4119 C 0.68709 0.45909 0.28758 0.0
C4120 C 0.69895 0.42153 0.27348 0.0
H4121 H 0.7049 0.3893 0.29045 0.0
C4122 C 0.70743 0.41988 0.26043 0.0
C4123 C 0.69816 0.41051 0.28459 0.0
C4124 C 0.68893 0.41163 0.29862 0.0
C4125 C 0.71498 0.40741 0.25807 0.0
C4126 C 0.71395 0.39624 0.26897 0.0
C4127 C 0.70572 0.39797 0.2822 0.0
C4128 C 0.72039 0.38213 0.26581 0.0
C4129 C 0.72374 0.40597 0.24371 0.0
C4130 C 0.71174 0.36979 0.25545 0.0
C4131 C 0.71858 0.3577 0.2497 0.0
C4132 C 0.73416 0.3577 0.25431 0.0
C4133 C 0.74253 0.3695 0.26559 0.0
C4134 C 0.73568 0.3817 0.27127 0.0
H4135 H 0.72429 0.41614 0.23693 0.0
H4136 H 0.73562 0.40453 0.24757 0.0
H4137 H 0.71814 0.3956 0.23555 0.0
H4138 H 0.69996 0.36997 0.25104 0.0
H4139 H 0.71196 0.34879 0.24089 0.0
H4140 H 0.8507 0.48743 0.49373 0.0
H4141 H 0.87784 0.49787 0.49228 0.0
H4142 H 0.89068 0.47303 0.53134 0.0
H4143 H 0.86375 0.46224 0.53264 0.0
H4144 H 0.90678 0.50651 0.53016 0.0
H4145 H 0.9051 0.46405 0.4768 0.0
H4146 H 0.88984 0.47494 0.47754 0.0
H4147 H 0.89169 0.46122 0.49151 0.0
C4148 C 0.85933 0.48444 0.50218 0.0
C4149 C 0.85522 0.47396 0.5132 0.0
C4150 C 0.87471 0.4904 0.50134 0.0
C4151 C 0.886 0.48597 0.51158 0.0
C4152 C 0.88194 0.47647 0.52338 0.0
H4153 H 0.98038 0.48145 0.50721 0.0
H4154 H 0.95228 0.476 0.50513 0.0
C4155 C 0.86659 0.47044 0.52417 0.0
C4156 C 0.90212 0.49011 0.50916 0.0
H4157 H 0.92872 0.48034 0.48566 0.0
C4158 C 0.91166 0.50097 0.52039 0.0
C4159 C 0.90819 0.4824 0.49659 0.0
C4160 C 0.89826 0.46992 0.48491 0.0
C4161 C 0.92743 0.50432 0.51948 0.0
C4162 C 0.93353 0.49695 0.50659 0.0
C4163 C 0.92389 0.4861 0.49532 0.0
C4164 C 0.95002 0.49986 0.50514 0.0
C4165 C 0.93738 0.51522 0.53271 0.0
C4166 C 0.9578 0.51492 0.50516 0.0
C4167 C 0.97368 0.51807 0.5073 0.0
C4168 C 0.98199 0.50611 0.50812 0.0
C4169 C 0.97417 0.49086 0.50655 0.0
C4170 C 0.9582 0.48774 0.50524 0.0
H4171 H 0.93155 0.51614 0.54375 0.0
H4172 H 0.94845 0.51149 0.53577 0.0
H4173 H 0.93981 0.52686 0.52875 0.0
H4174 H 0.95162 0.52435 0.50463 0.0
H4175 H 0.97936 0.52996 0.50925 0.0
H4176 H 0.35377 0.09783 0.27501 0.0
H4177 H 0.34169 0.12041 0.27513 0.0
H4178 H 0.30857 0.10016 0.30489 0.0
H4179 H 0.32076 0.07734 0.3049 0.0
H4180 H 0.29948 0.11171 0.27058 0.0
H4181 H 0.3381 0.15335 0.31627 0.0
H4182 H 0.34717 0.14071 0.30401 0.0
H4183 H 0.33432 0.13287 0.31758 0.0
C4184 C 0.34398 0.09824 0.28167 0.0
C4185 C 0.33808 0.08591 0.28986 0.0
C4186 C 0.3372 0.11114 0.28184 0.0
C4187 C 0.32442 0.11188 0.29016 0.0
C4188 C 0.31857 0.09973 0.29859 0.0
H4189 H 0.27707 0.18258 0.25544 0.0
H4190 H 0.28101 0.16243 0.27213 0.0
C4191 C 0.3255 0.08681 0.29857 0.0
C4192 C 0.31664 0.12492 0.28851 0.0
H4193 H 0.3242 0.16389 0.29565 0.0
C4194 C 0.30443 0.12313 0.27638 0.0
C4195 C 0.32336 0.13963 0.2961 0.0
C4196 C 0.33641 0.14184 0.30932 0.0
C4197 C 0.29974 0.13594 0.27046 0.0
C4198 C 0.30725 0.1508 0.2773 0.0
C4199 C 0.31852 0.15248 0.29043 0.0
C4200 C 0.30519 0.16455 0.26949 0.0
C4201 C 0.28785 0.13342 0.25602 0.0
C4202 C 0.31769 0.17294 0.26322 0.0
C4203 C 0.31562 0.18481 0.25405 0.0
C4204 C 0.30096 0.18838 0.25088 0.0
C4205 C 0.28858 0.18029 0.25775 0.0
C4206 C 0.29073 0.16862 0.26715 0.0
H4207 H 0.28533 0.12129 0.2505 0.0
H4208 H 0.27699 0.13639 0.25969 0.0
H4209 H 0.29173 0.14086 0.24678 0.0
H4210 H 0.32898 0.16997 0.26497 0.0
H4211 H 0.32545 0.19102 0.24927 0.0
H4212 H 0.32522 0.10217 0.48694 0.0
H4213 H 0.34697 0.08865 0.48841 0.0
H4214 H 0.36916 0.12046 0.52888 0.0
H4215 H 0.34775 0.13421 0.52733 0.0
H4216 H 0.38006 0.09965 0.48809 0.0
H4217 H 0.36521 0.07728 0.54496 0.0
H4218 H 0.35185 0.08505 0.53207 0.0
H4219 H 0.36668 0.0977 0.54532 0.0
C4220 C 0.33481 0.10642 0.49603 0.0
C4221 C 0.33459 0.11919 0.50716 0.0
C4222 C 0.34721 0.09864 0.49687 0.0
C4223 C 0.35955 0.10342 0.5089 0.0
C4224 C 0.35961 0.11642 0.51967 0.0
H4225 H 0.44379 0.08246 0.54625 0.0
H4226 H 0.42258 0.09404 0.53558 0.0
C4227 C 0.34729 0.12422 0.51882 0.0
C4228 C 0.37217 0.09459 0.51071 0.0
H4229 H 0.38996 0.07512 0.5375 0.0
C4230 C 0.38214 0.09409 0.49878 0.0
C4231 C 0.37475 0.08723 0.52459 0.0
C4232 C 0.36399 0.08668 0.53741 0.0
C4233 C 0.39508 0.08705 0.50079 0.0
C4234 C 0.398 0.08035 0.51502 0.0
C4235 C 0.38771 0.08035 0.52663 0.0
C4236 C 0.4122 0.07426 0.51886 0.0
C4237 C 0.40592 0.08729 0.48809 0.0
C4238 C 0.41363 0.05945 0.5126 0.0
C4239 C 0.42583 0.05279 0.51868 0.0
C4240 C 0.43658 0.06084 0.5312 0.0
C4241 C 0.43559 0.07599 0.53669 0.0
C4242 C 0.42351 0.08262 0.53059 0.0
H4243 H 0.4022 0.09323 0.47781 0.0
H4244 H 0.41761 0.09317 0.49334 0.0
H4245 H 0.40667 0.07535 0.48362 0.0
H4246 H 0.40491 0.05278 0.50364 0.0
H4247 H 0.4263 0.04106 0.51434 0.0
H4248 H 0.67464 0.61157 0.25707 0.0
H4249 H 0.69045 0.63678 0.2566 0.0
H4250 H 0.7127 0.63406 0.30359 0.0
H4251 H 0.69753 0.60839 0.30379 0.0
H4252 H 0.69243 0.66293 0.275 0.0
H4253 H 0.7494 0.64568 0.27998 0.0
H4254 H 0.7317 0.63186 0.27612 0.0
H4255 H 0.73854 0.6406 0.29618 0.0
C4256 C 0.6831 0.61615 0.26721 0.0
C4257 C 0.6849 0.60775 0.28038 0.0
C4258 C 0.69204 0.63068 0.26698 0.0
C4259 C 0.703 0.63726 0.27992 0.0
C4260 C 0.70461 0.6291 0.29327 0.0
H4261 H 0.74232 0.73526 0.29328 0.0
H4262 H 0.72833 0.70958 0.29589 0.0
C4263 C 0.69574 0.61448 0.29346 0.0
C4264 C 0.71244 0.65277 0.27948 0.0
H4265 H 0.74935 0.67249 0.28233 0.0
C4266 C 0.70488 0.665 0.27658 0.0
C4267 C 0.7287 0.65547 0.28129 0.0
C4268 C 0.73758 0.64268 0.2834 0.0
C4269 C 0.71308 0.67981 0.27551 0.0
C4270 C 0.72934 0.68263 0.2779 0.0
C4271 C 0.73691 0.67039 0.28069 0.0
C4272 C 0.73867 0.69812 0.27716 0.0
C4273 C 0.70419 0.69215 0.27137 0.0
C4274 C 0.74977 0.70018 0.26636 0.0
C4275 C 0.75803 0.71485 0.26506 0.0
C4276 C 0.7553 0.72775 0.27451 0.0
C4277 C 0.74457 0.72558 0.2857 0.0
C4278 C 0.73646 0.71091 0.28712 0.0
H4279 H 0.69252 0.68716 0.26532 0.0
H4280 H 0.70283 0.69917 0.28254 0.0
H4281 H 0.71026 0.69985 0.26344 0.0
H4282 H 0.75176 0.69049 0.25861 0.0
H4283 H 0.76615 0.71614 0.25627 0.0
H4284 H 0.81574 0.43811 0.74265 0.0
H4285 H 0.8044 0.4107 0.73863 0.0
H4286 H 0.81375 0.40792 0.78924 0.0
H4287 H 0.82534 0.43519 0.79334 0.0
H4288 H 0.82416 0.38798 0.75072 0.0
H4289 H 0.76709 0.38539 0.77347 0.0
H4290 H 0.77662 0.40202 0.76514 0.0
H4291 H 0.78323 0.39819 0.78482 0.0
C4292 C 0.81515 0.43166 0.75292 0.0
C4293 C 0.82141 0.43864 0.76827 0.0
C4294 C 0.80868 0.41612 0.75061 0.0
C4295 C 0.80831 0.40752 0.76366 0.0
C4296 C 0.81386 0.41457 0.77911 0.0
H4297 H 0.80725 0.31496 0.7781 0.0
H4298 H 0.81464 0.34151 0.77263 0.0
C4299 C 0.82037 0.4301 0.78143 0.0
C4300 C 0.80345 0.39087 0.761 0.0
H4301 H 0.77576 0.36197 0.76865 0.0
C4302 C 0.81346 0.38219 0.75433 0.0
C4303 C 0.78953 0.38362 0.76577 0.0
C4304 C 0.77839 0.39272 0.77263 0.0
C4305 C 0.81004 0.36615 0.75271 0.0
C4306 C 0.79637 0.35882 0.75815 0.0
C4307 C 0.78617 0.36762 0.76435 0.0
C4308 C 0.79292 0.34217 0.75896 0.0
C4309 C 0.8212 0.35734 0.74541 0.0
C4310 C 0.77822 0.33382 0.75327 0.0
C4311 C 0.77378 0.31894 0.75709 0.0
C4312 C 0.7842 0.3122 0.76614 0.0
C4313 C 0.7992 0.32007 0.77089 0.0
C4314 C 0.80346 0.33513 0.76761 0.0
H4315 H 0.82747 0.3639 0.7367 0.0
H4316 H 0.82989 0.35552 0.75501 0.0
H4317 H 0.81534 0.34598 0.73924 0.0
H4318 H 0.76994 0.33912 0.74663 0.0
H4319 H 0.76215 0.31286 0.75337 0.0
H4320 H 0.05832 0.87208 0.08515 0.0
H4321 H 0.05534 0.89662 0.07554 0.0
H4322 H 0.01936 0.87306 0.03949 0.0
H4323 H 0.02206 0.84855 0.04926 0.0
H4324 H 0.05891 0.90922 0.04913 0.0
H4325 H 0.99737 0.90464 0.05704 0.0
H4326 H 0.00858 0.89127 0.06448 0.0
H4327 H 1.00076 0.889 0.04374 0.0
C4328 C 0.04978 0.87204 0.07513 0.0
C4329 C 0.04035 0.85811 0.06817 0.0
C4330 C 0.04803 0.88621 0.06963 0.0
C4331 C 0.03682 0.88703 0.05695 0.0
C4332 C 0.02773 0.87308 0.04965 0.0
H4333 H 0.01817 0.96478 0.0042 0.0
H4334 H 0.02039 0.93924 0.01188 0.0
C4335 C 0.02935 0.85893 0.05525 0.0
C4336 C 0.03483 0.90237 0.05133 0.0
H4337 H 0.00819 0.92509 0.04295 0.0
C4338 C 0.04779 0.91262 0.04788 0.0
C4339 C 0.02037 0.90716 0.04961 0.0
C4340 C 0.00601 0.89752 0.05407 0.0
C4341 C 0.04668 0.92713 0.04272 0.0
C4342 C 0.03224 0.93177 0.04087 0.0
C4343 C 0.01927 0.92157 0.0442 0.0
C4344 C 0.03053 0.94737 0.03612 0.0
C4345 C 0.06099 0.93748 0.03918 0.0
C4346 C 0.03531 0.96061 0.04711 0.0
C4347 C 0.03361 0.97521 0.04286 0.0
C4348 C 0.02718 0.97712 0.0274 0.0
C4349 C 0.02266 0.96385 0.01632 0.0
C4350 C 0.02411 0.94918 0.02068 0.0
H4351 H 0.07092 0.93148 0.03892 0.0
H4352 H 0.05894 0.94198 0.02748 0.0
H4353 H 0.06399 0.94747 0.04854 0.0
H4354 H 0.0403 0.95965 0.05909 0.0
H4355 H 0.03735 0.98504 0.05179 0.0
H4356 H 0.91095 0.25022 0.89206 0.0
H4357 H 0.88658 0.25053 0.87614 0.0
H4358 H 0.91092 0.26269 0.83601 0.0
H4359 H 0.9352 0.26176 0.85153 0.0
H4360 H 0.87581 0.27339 0.86265 0.0
H4361 H 0.87862 0.22781 0.81437 0.0
H4362 H 0.89149 0.23117 0.83268 0.0
H4363 H 0.89517 0.24288 0.81667 0.0
C4364 C 0.91115 0.25268 0.87975 0.0
C4365 C 0.92521 0.2559 0.87317 0.0
C4366 C 0.89714 0.25299 0.87066 0.0
C4367 C 0.89674 0.25639 0.85469 0.0
C4368 C 0.91075 0.25968 0.84813 0.0
H4369 H 0.82932 0.27636 0.78257 0.0
H4370 H 0.85215 0.27287 0.79912 0.0
C4371 C 0.92473 0.25936 0.85718 0.0
C4372 C 0.88179 0.25697 0.84507 0.0
H4373 H 0.85981 0.24346 0.80937 0.0
C4374 C 0.87226 0.2667 0.85109 0.0
C4375 C 0.877 0.24825 0.82993 0.0
C4376 C 0.88602 0.23683 0.8231 0.0
C4377 C 0.85846 0.26828 0.84225 0.0
C4378 C 0.8539 0.25984 0.82698 0.0
C4379 C 0.86329 0.24998 0.82104 0.0
C4380 C 0.83971 0.26151 0.81678 0.0
C4381 C 0.84903 0.27931 0.84906 0.0
C4382 C 0.82497 0.25613 0.82103 0.0
C4383 C 0.81175 0.25778 0.81131 0.0
C4384 C 0.81294 0.26492 0.79713 0.0
C4385 C 0.82778 0.27038 0.79305 0.0
C4386 C 0.84094 0.26854 0.80263 0.0
H4387 H 0.85526 0.28675 0.85981 0.0
H4388 H 0.84579 0.28673 0.83992 0.0
H4389 H 0.83828 0.27273 0.85252 0.0
H4390 H 0.82368 0.25057 0.83183 0.0
H4391 H 0.80059 0.25344 0.81492 0.0
H4392 H 0.5179 0.19691 0.5488 0.0
H4393 H 0.51589 0.16951 0.54013 0.0
H4394 H 0.55641 0.16865 0.57191 0.0
H4395 H 0.5582 0.1958 0.58107 0.0
H4396 H 0.53505 0.15297 0.52548 0.0
H4397 H 0.52718 0.13318 0.58494 0.0
H4398 H 0.52592 0.15248 0.58085 0.0
H4399 H 0.54436 0.14716 0.58506 0.0
C4400 C 0.52632 0.19091 0.55412 0.0
C4401 C 0.53818 0.19881 0.56579 0.0
C4402 C 0.52521 0.17517 0.54903 0.0
C4403 C 0.53582 0.16673 0.55552 0.0
C4404 C 0.54783 0.17464 0.5669 0.0
H4405 H 0.54886 0.07106 0.54341 0.0
H4406 H 0.55112 0.09871 0.55053 0.0
C4407 C 0.54896 0.19036 0.57199 0.0
C4408 C 0.53438 0.14978 0.55038 0.0
H4409 H 0.5316 0.11464 0.56465 0.0
C4410 C 0.5342 0.14461 0.53406 0.0
C4411 C 0.53327 0.13867 0.56146 0.0
C4412 C 0.53254 0.1431 0.57903 0.0
C4413 C 0.53334 0.1289 0.52865 0.0
C4414 C 0.53231 0.11782 0.53976 0.0
C4415 C 0.53243 0.12299 0.55605 0.0
C4416 C 0.53116 0.10088 0.53482 0.0
C4417 C 0.53399 0.12439 0.51108 0.0
C4418 C 0.51914 0.09257 0.52365 0.0
C4419 C 0.51795 0.07668 0.51941 0.0
C4420 C 0.52874 0.06858 0.52622 0.0
C4421 C 0.54062 0.07688 0.53754 0.0
C4422 C 0.54182 0.09275 0.54176 0.0
H4423 H 0.53905 0.13433 0.50503 0.0
H4424 H 0.54084 0.1152 0.50931 0.0
H4425 H 0.52217 0.12 0.50518 0.0
H4426 H 0.51049 0.09832 0.51836 0.0
H4427 H 0.50855 0.07072 0.51076 0.0
H4428 H 0.56548 0.77636 0.35782 0.0
H4429 H 0.58806 0.77791 0.3432 0.0
H4430 H 0.60961 0.75374 0.37813 0.0
H4431 H 0.58701 0.75202 0.39274 0.0
H4432 H 0.61686 0.79171 0.35136 0.0
H4433 H 0.61693 0.72966 0.33815 0.0
H4434 H 0.60095 0.73669 0.34591 0.0
H4435 H 0.61762 0.73542 0.35917 0.0
C4436 C 0.575 0.77136 0.36244 0.0
C4437 C 0.57427 0.764 0.37652 0.0
C4438 C 0.58794 0.7722 0.35399 0.0
C4439 C 0.60057 0.7657 0.35928 0.0
C4440 C 0.59993 0.75845 0.3734 0.0
H4441 H 0.69406 0.77208 0.33449 0.0
H4442 H 0.66955 0.76602 0.34579 0.0
C4443 C 0.58694 0.75752 0.38182 0.0
C4444 C 0.61458 0.76715 0.35043 0.0
H4445 H 0.63947 0.7468 0.33336 0.0
C4446 C 0.62166 0.78183 0.3473 0.0
C4447 C 0.62103 0.75433 0.34506 0.0
C4448 C 0.61366 0.73813 0.34709 0.0
C4449 C 0.63502 0.78407 0.33938 0.0
C4450 C 0.64155 0.7713 0.33421 0.0
C4451 C 0.6345 0.75661 0.33726 0.0
C4452 C 0.65603 0.77317 0.32623 0.0
C4453 C 0.64232 0.8002 0.33698 0.0
C4454 C 0.6566 0.77868 0.31114 0.0
C4455 C 0.67062 0.78192 0.30453 0.0
C4456 C 0.68434 0.77976 0.31291 0.0
C4457 C 0.68364 0.77366 0.32768 0.0
C4458 C 0.66963 0.77027 0.33418 0.0
H4459 H 0.63771 0.80898 0.34434 0.0
H4460 H 0.65496 0.80208 0.34006 0.0
H4461 H 0.64002 0.80195 0.3242 0.0
H4462 H 0.64627 0.7809 0.30467 0.0
H4463 H 0.67084 0.78682 0.29326 0.0
H4464 H 0.0528 0.22628 0.41858 0.0
H4465 H 0.0512 0.20323 0.43248 0.0
H4466 H 0.00499 0.18705 0.40997 0.0
H4467 H 0.00671 0.20968 0.39549 0.0
H4468 H 0.03273 0.19292 0.45395 0.0
H4469 H 0.02292 0.14915 0.40123 0.0
H4470 H 0.02888 0.16935 0.39966 0.0
H4471 H 0.00899 0.16147 0.40076 0.0
C4472 C 0.04236 0.21772 0.41633 0.0
C4473 C 0.02992 0.21995 0.40576 0.0
C4474 C 0.04143 0.20454 0.42442 0.0
C4475 C 0.02807 0.19315 0.42213 0.0
C4476 C 0.01558 0.19541 0.41172 0.0
H4477 H 0.99333 0.11283 0.46839 0.0
H4478 H 0.99757 0.13347 0.45093 0.0
C4479 C 0.01651 0.20855 0.4036 0.0
C4480 C 0.027 0.17926 0.43107 0.0
H4481 H 0.01834 0.13991 0.42639 0.0
C4482 C 0.02973 0.18135 0.44788 0.0
C4483 C 0.02311 0.16405 0.42324 0.0
C4484 C 0.02096 0.16083 0.40523 0.0
C4485 C 0.02827 0.1688 0.45702 0.0
C4486 C 0.02409 0.15364 0.44921 0.0
C4487 C 0.0215 0.1515 0.43241 0.0
C4488 C 0.02195 0.13995 0.45838 0.0
C4489 C 0.03077 0.17188 0.47505 0.0
C4490 C 0.03431 0.13631 0.46797 0.0
C4491 C 0.03192 0.1244 0.4778 0.0
C4492 C 0.01713 0.11586 0.47817 0.0
C4493 C 0.00488 0.11908 0.46811 0.0
C4494 C 0.00729 0.13092 0.45821 0.0
H4495 H 0.03084 0.1841 0.47927 0.0
H4496 H 0.0217 0.16453 0.48052 0.0
H4497 H 0.04201 0.16911 0.4794 0.0
H4498 H 0.04576 0.14297 0.4682 0.0
H4499 H 0.0415 0.12231 0.48564 0.0
H4500 H 0.59612 0.26876 0.24238 0.0
H4501 H 0.62351 0.27062 0.25142 0.0
H4502 H 0.62947 0.24579 0.20688 0.0
H4503 H 0.60224 0.24394 0.19771 0.0
H4504 H 0.64157 0.24338 0.25222 0.0
H4505 H 0.66246 0.28792 0.21336 0.0
H4506 H 0.64328 0.2853 0.21934 0.0
H4507 H 0.64806 0.27186 0.20432 0.0
C4508 C 0.60323 0.26374 0.23444 0.0
C4509 C 0.59677 0.25615 0.21926 0.0
C4510 C 0.61893 0.26473 0.2397 0.0
C4511 C 0.62867 0.25839 0.22985 0.0
C4512 C 0.62228 0.25083 0.21473 0.0
H4513 H 0.72749 0.26275 0.23087 0.0
H4514 H 0.69973 0.26002 0.22445 0.0
C4515 C 0.6066 0.24969 0.20953 0.0
C4516 C 0.6455 0.25974 0.23519 0.0
H4517 H 0.68114 0.27743 0.22791 0.0
C4518 C 0.65025 0.25086 0.24696 0.0
C4519 C 0.65689 0.26938 0.22829 0.0
C4520 C 0.65253 0.27927 0.21568 0.0
C4521 C 0.66599 0.25099 0.25164 0.0
C4522 C 0.67749 0.26078 0.24483 0.0
C4523 C 0.67259 0.26985 0.23322 0.0
C4524 C 0.69457 0.26162 0.24908 0.0
C4525 C 0.66996 0.24007 0.26333 0.0
C4526 C 0.70136 0.26333 0.26511 0.0
C4527 C 0.71731 0.26436 0.26878 0.0
C4528 C 0.72706 0.26439 0.25657 0.0
C4529 C 0.72036 0.26288 0.2406 0.0
C4530 C 0.7044 0.26136 0.23692 0.0
H4531 H 0.66045 0.23011 0.2631 0.0
H4532 H 0.68049 0.23566 0.26072 0.0
H4533 H 0.67187 0.24614 0.27564 0.0
H4534 H 0.69441 0.26418 0.27489 0.0
H4535 H 0.72209 0.26567 0.28122 0.0
H4536 H 0.56112 0.88024 0.91315 0.0
H4537 H 0.55945 0.9042 0.92923 0.0
H4538 H 0.51139 0.88762 0.93172 0.0
H4539 H 0.51283 0.86385 0.91543 0.0
H4540 H 0.53891 0.92623 0.92302 0.0
H4541 H 0.52966 0.90019 0.97942 0.0
H4542 H 0.53768 0.89086 0.96315 0.0
H4543 H 0.51742 0.89078 0.96188 0.0
C4544 C 0.55014 0.88169 0.91696 0.0
C4545 C 0.53715 0.86987 0.91298 0.0
C4546 C 0.54923 0.89542 0.92627 0.0
C4547 C 0.53534 0.89771 0.93196 0.0
C4548 C 0.52233 0.88608 0.92781 0.0
H4549 H 0.50518 0.96719 0.99548 0.0
H4550 H 0.50836 0.94416 0.97885 0.0
C4551 C 0.5232 0.87239 0.91849 0.0
C4552 C 0.53435 0.91226 0.94207 0.0
H4553 H 0.52712 0.92611 0.97928 0.0
C4554 C 0.5364 0.92624 0.93535 0.0
C4555 C 0.53096 0.91233 0.95814 0.0
C4556 C 0.5289 0.89779 0.96619 0.0
C4557 C 0.5347 0.94011 0.94401 0.0
C4558 C 0.53142 0.94026 0.96021 0.0
C4559 C 0.52958 0.92623 0.96694 0.0
C4560 C 0.52952 0.95463 0.9703 0.0
C4561 C 0.53579 0.95428 0.93534 0.0
C4562 C 0.54035 0.9684 0.97143 0.0
C4563 C 0.53827 0.98176 0.98062 0.0
C4564 C 0.52561 0.98161 0.98947 0.0
C4565 C 0.51507 0.96774 0.98884 0.0
C4566 C 0.51692 0.95451 0.9793 0.0
H4567 H 0.53312 0.95126 0.92218 0.0
H4568 H 0.52784 0.96176 0.93944 0.0
H4569 H 0.54771 0.96089 0.93758 0.0
H4570 H 0.55054 0.96887 0.96531 0.0
H4571 H 0.54675 0.99217 0.98105 0.0
H4572 H 0.9317 0.77144 0.70345 0.0
H4573 H 0.90689 0.7726 0.71316 0.0
H4574 H 0.91064 0.73374 0.7391 0.0
H4575 H 0.93581 0.73292 0.73004 0.0
H4576 H 0.8803 0.75328 0.70868 0.0
H4577 H 0.89856 0.76126 0.77388 0.0
H4578 H 0.91217 0.76281 0.75929 0.0
H4579 H 0.90328 0.74424 0.76403 0.0
C4580 C 0.92749 0.76328 0.71148 0.0
C4581 C 0.93614 0.75215 0.71596 0.0
C4582 C 0.91309 0.76388 0.71695 0.0
C4583 C 0.90673 0.75344 0.72718 0.0
C4584 C 0.91523 0.74223 0.73157 0.0
H4585 H 0.81607 0.74018 0.76618 0.0
H4586 H 0.84113 0.73647 0.75783 0.0
C4587 C 0.92967 0.74163 0.72613 0.0
C4588 C 0.89108 0.75407 0.73273 0.0
H4589 H 0.87167 0.75649 0.766 0.0
C4590 C 0.87851 0.75401 0.72124 0.0
C4591 C 0.88843 0.755 0.74913 0.0
C4592 C 0.90134 0.75598 0.76231 0.0
C4593 C 0.86365 0.75475 0.72558 0.0
C4594 C 0.86104 0.75575 0.74194 0.0
C4595 C 0.87351 0.75561 0.75345 0.0
C4596 C 0.8457 0.75782 0.74726 0.0
C4597 C 0.85075 0.75429 0.71252 0.0
C4598 C 0.83975 0.77102 0.74424 0.0
C4599 C 0.82549 0.77314 0.74899 0.0
C4600 C 0.81663 0.76223 0.7571 0.0
C4601 C 0.82252 0.74892 0.76008 0.0
C4602 C 0.83692 0.7468 0.75533 0.0
H4603 H 0.8535 0.74953 0.70073 0.0
H4604 H 0.83993 0.74728 0.71536 0.0
H4605 H 0.84876 0.76614 0.71148 0.0
H4606 H 0.8462 0.77981 0.73819 0.0
H4607 H 0.82133 0.78335 0.74609 0.0
H4608 H 0.07608 0.04102 0.85024 0.0
H4609 H 0.06568 0.03941 0.87606 0.0
H4610 H 0.09112 0.00376 0.88611 0.0
H4611 H 0.10178 0.00548 0.86051 0.0
H4612 H 0.04844 0.01288 0.88798 0.0
H4613 H 0.10354 0.03631 0.92582 0.0
H4614 H 0.10072 0.03858 0.90477 0.0
H4615 H 0.10402 0.02058 0.911 0.0
C4616 C 0.07955 0.03291 0.85799 0.0
C4617 C 0.08983 0.02342 0.85329 0.0
C4618 C 0.07353 0.03195 0.8727 0.0
C4619 C 0.07778 0.02161 0.8831 0.0
C4620 C 0.08784 0.01197 0.87837 0.0
H4621 H 0.05786 0.00418 0.98009 0.0
H4622 H 0.06803 0.0044 0.954 0.0
C4623 C 0.09381 0.01287 0.86364 0.0
C4624 C 0.07164 0.02084 0.89887 0.0
H4625 H 0.08229 0.02693 0.93924 0.0
C4626 C 0.05582 0.01597 0.8992 0.0
C4627 C 0.0813 0.02479 0.91349 0.0
C4628 C 0.09833 0.03048 0.91386 0.0
C4629 C 0.04941 0.01472 0.91375 0.0
C4630 C 0.05904 0.01888 0.92843 0.0
C4631 C 0.07489 0.0237 0.92805 0.0
C4632 C 0.05289 0.01868 0.94428 0.0
C4633 C 0.03243 0.00858 0.91317 0.0
C4634 C 0.04125 0.02688 0.94769 0.0
C4635 C 0.03532 0.02658 0.96243 0.0
C4636 C 0.04113 0.01837 0.97432 0.0
C4637 C 0.05314 0.01057 0.97116 0.0
C4638 C 0.05893 0.01069 0.95626 0.0
H4639 H 0.02788 1.00132 0.90172 0.0
H4640 H 0.02986 1.00169 0.92322 0.0
H4641 H 0.02621 0.01835 0.91399 0.0
H4642 H 0.03677 0.03361 0.93896 0.0
H4643 H 0.02625 0.03295 0.96456 0.0
H4644 H 0.79501 0.38675 0.58755 0.0
H4645 H 0.79492 0.37129 0.61009 0.0
H4646 H 0.75632 0.33885 0.58525 0.0
H4647 H 0.75635 0.35426 0.56259 0.0
H4648 H 0.76619 0.35887 0.62798 0.0
H4649 H 0.79524 0.31642 0.5958 0.0
H4650 H 0.7969 0.3359 0.59083 0.0
H4651 H 0.77918 0.3226 0.58539 0.0
C4652 C 0.78649 0.37635 0.58695 0.0
C4653 C 0.77572 0.3716 0.57341 0.0
C4654 C 0.78638 0.36764 0.59982 0.0
C4655 C 0.77559 0.35406 0.5992 0.0
C4656 C 0.76465 0.3494 0.58584 0.0
H4657 H 0.7858 0.28374 0.66182 0.0
H4658 H 0.77476 0.29728 0.64096 0.0
C4659 C 0.76467 0.35817 0.573 0.0
C4660 C 0.77653 0.3443 0.61217 0.0
H4661 H 0.79137 0.31344 0.62243 0.0
C4662 C 0.7715 0.34879 0.62681 0.0
C4663 C 0.78339 0.33123 0.61038 0.0
C4664 C 0.78907 0.32618 0.5948 0.0
C4665 C 0.77346 0.34058 0.63999 0.0
C4666 C 0.78101 0.32788 0.63844 0.0
C4667 C 0.78554 0.32315 0.62357 0.0
C4668 C 0.78551 0.31996 0.65221 0.0
C4669 C 0.76753 0.34566 0.65539 0.0
C4670 C 0.79502 0.32827 0.6655 0.0
C4671 C 0.80115 0.32057 0.67745 0.0
C4672 C 0.79815 0.30448 0.67602 0.0
C4673 C 0.78839 0.29617 0.66295 0.0
C4674 C 0.78203 0.30388 0.65116 0.0
H4675 H 0.75757 0.35144 0.65304 0.0
H4676 H 0.76401 0.33583 0.66226 0.0
H4677 H 0.77671 0.35408 0.66289 0.0
H4678 H 0.79823 0.34065 0.66632 0.0
H4679 H 0.80867 0.32713 0.6875 0.0
H4680 H 0.44445 0.00379 0.34612 0.0
H4681 H 0.46328 0.00526 0.36958 0.0
H4682 H 0.43907 0.035 0.39647 0.0
H4683 H 0.42011 0.03357 0.37306 0.0
H4684 H 0.47958 0.03886 0.39085 0.0
H4685 H 0.44518 0.99183 0.41882 0.0
H4686 H 0.44374 0.99216 0.39736 0.0
H4687 H 0.43567 0.0056 0.40951 0.0
C4688 C 0.44311 0.01056 0.35708 0.0
C4689 C 0.43087 0.01852 0.35791 0.0
C4690 C 0.45389 0.01146 0.37033 0.0
C4691 C 0.45243 0.02025 0.38454 0.0
C4692 C 0.44027 0.02824 0.38546 0.0
H4693 H 0.50129 0.04619 0.4765 0.0
H4694 H 0.4884 0.04569 0.44951 0.0
C4695 C 0.42953 0.02742 0.37217 0.0
C4696 C 0.46347 0.02077 0.39859 0.0
H4697 H 0.46855 0.00466 0.43322 0.0
C4698 C 0.47729 0.03136 0.40011 0.0
C4699 C 0.46026 0.01088 0.41043 0.0
C4700 C 0.44544 0.9994 0.40906 0.0
C4701 C 0.48803 0.0325 0.41357 0.0
C4702 C 0.48471 0.02277 0.42554 0.0
C4703 C 0.47101 0.01197 0.42383 0.0
C4704 C 0.49468 0.02432 0.44059 0.0
C4705 C 0.50275 0.04412 0.41508 0.0
C4706 C 0.50255 0.01254 0.44421 0.0
C4707 C 0.50995 0.01283 0.45955 0.0
C4708 C 0.50925 0.02477 0.47137 0.0
C4709 C 0.50187 0.03685 0.46751 0.0
C4710 C 0.49464 0.03664 0.45216 0.0
H4711 H 0.50478 0.04888 0.40359 0.0
H4712 H 0.50217 0.05374 0.42423 0.0
H4713 H 0.51266 0.03886 0.41912 0.0
H4714 H 0.50247 0.00289 0.43536 0.0
H4715 H 0.51551 0.00336 0.46237 0.0
H4716 H 0.7605 0.68795 0.09923 0.0
H4717 H 0.76099 0.70036 0.12644 0.0
H4718 H 0.78289 0.74334 0.11222 0.0
H4719 H 0.78222 0.7311 0.08478 0.0
H4720 H 0.79508 0.72606 0.14455 0.0
H4721 H 0.7371 0.74172 0.13749 0.0
H4722 H 0.74013 0.72399 0.12714 0.0
H4723 H 0.74906 0.74196 0.12131 0.0
C4724 C 0.76527 0.70009 0.10179 0.0
C4725 C 0.77125 0.70853 0.08975 0.0
C4726 C 0.76561 0.70713 0.11738 0.0
C4727 C 0.77191 0.72275 0.12128 0.0
C4728 C 0.77797 0.73125 0.1094 0.0
H4729 H 0.76631 0.77666 0.21242 0.0
H4730 H 0.76683 0.76849 0.18396 0.0
C4731 C 0.77764 0.72422 0.09377 0.0
C4732 C 0.77231 0.73 0.13789 0.0
H4733 H 0.75016 0.74544 0.16357 0.0
C4734 C 0.78533 0.73042 0.14873 0.0
C4735 C 0.75966 0.73583 0.14318 0.0
C4736 C 0.74564 0.73597 0.13175 0.0
C4737 C 0.78588 0.73619 0.1649 0.0
C4738 C 0.77288 0.74131 0.17045 0.0
C4739 C 0.76006 0.74138 0.15941 0.0
C4740 C 0.77221 0.7462 0.18772 0.0
C4741 C 0.80044 0.7368 0.1758 0.0
C4742 C 0.77459 0.73625 0.1993 0.0
C4743 C 0.77433 0.74091 0.21555 0.0
C4744 C 0.77153 0.75556 0.22058 0.0
C4745 C 0.76856 0.76531 0.20894 0.0
C4746 C 0.76889 0.76067 0.19266 0.0
H4747 H 0.8106 0.73757 0.16899 0.0
H4748 H 0.80243 0.74673 0.18521 0.0
H4749 H 0.79955 0.72608 0.18168 0.0
H4750 H 0.77664 0.72484 0.19579 0.0
H4751 H 0.77631 0.73298 0.22417 0.0
H4752 H 0.07114 0.0416 0.70103 0.0
H4753 H 0.0589 0.04162 0.67385 0.0
H4754 H 0.0824 0.00589 0.65689 0.0
H4755 H 0.09474 0.00584 0.68397 0.0
H4756 H 0.07207 0.04793 0.64666 0.0
H4757 H 0.03862 0.98862 0.63788 0.0
H4758 H 0.04736 0.99785 0.65731 0.0
H4759 H 0.05867 0.98934 0.64364 0.0
C4760 C 0.07373 0.03374 0.69154 0.0
C4761 C 0.08393 0.02368 0.69479 0.0
C4762 C 0.06665 0.03372 0.67598 0.0
C4763 C 0.0695 0.0236 0.66331 0.0
C4764 C 0.07967 0.01354 0.6665 0.0
H4765 H 0.05218 0.00883 0.5609 0.0
H4766 H 0.05991 0.0091 0.5894 0.0
C4767 C 0.08674 0.01353 0.68204 0.0
C4768 C 0.06241 0.024 0.64665 0.0
H4769 H 0.04125 1.00148 0.61436 0.0
C4770 C 0.06517 0.03782 0.63967 0.0
C4771 C 0.05335 0.01082 0.63749 0.0
C4772 C 0.04918 0.99586 0.6445 0.0
C4773 C 0.05964 0.03867 0.62365 0.0
C4774 C 0.05097 0.02538 0.61438 0.0
C4775 C 0.04792 0.01165 0.62145 0.0
C4776 C 0.04579 0.02524 0.59706 0.0
C4777 C 0.06363 0.05361 0.61656 0.0
C4778 C 0.03505 0.03408 0.59181 0.0
C4779 C 0.0305 0.03391 0.57539 0.0
C4780 C 0.03671 0.025 0.56392 0.0
C4781 C 0.04727 0.016 0.56931 0.0
C4782 C 0.05169 0.01608 0.58566 0.0
H4783 H 0.0727 0.06195 0.62433 0.0
H4784 H 0.0676 0.0516 0.60458 0.0
H4785 H 0.05324 0.05886 0.615 0.0
H4786 H 0.03013 0.04104 0.6004 0.0
H4787 H 0.02216 0.04076 0.57174 0.0
H4788 H 0.75741 0.37463 0.41489 0.0
H4789 H 0.75398 0.35669 0.39052 0.0
H4790 H 0.79159 0.33643 0.40923 0.0
H4791 H 0.79485 0.35409 0.43388 0.0
H4792 H 0.77687 0.35385 0.36983 0.0
H4793 H 0.756 0.29943 0.39501 0.0
H4794 H 0.75578 0.31811 0.40531 0.0
H4795 H 0.7734 0.31089 0.40538 0.0
C4796 C 0.76483 0.36623 0.41386 0.0
C4797 C 0.77633 0.36562 0.42622 0.0
C4798 C 0.76288 0.35607 0.39998 0.0
C4799 C 0.77237 0.34517 0.39835 0.0
C4800 C 0.784 0.34464 0.41054 0.0
H4801 H 0.78902 0.28267 0.32218 0.0
H4802 H 0.78746 0.2967 0.34809 0.0
C4803 C 0.78597 0.35481 0.42444 0.0
C4804 C 0.7706 0.33489 0.38346 0.0
H4805 H 0.76213 0.29724 0.36814 0.0
C4806 C 0.77352 0.34148 0.36938 0.0
C4807 C 0.76626 0.31882 0.38314 0.0
C4808 C 0.76254 0.31135 0.39798 0.0
C4809 C 0.77257 0.33232 0.35486 0.0
C4810 C 0.76833 0.31624 0.35454 0.0
C4811 C 0.76529 0.30962 0.36859 0.0
C4812 C 0.76776 0.30615 0.33973 0.0
C4813 C 0.77654 0.33983 0.34008 0.0
C4814 C 0.75687 0.3066 0.32678 0.0
C4815 C 0.75779 0.29873 0.31199 0.0
C4816 C 0.76951 0.29025 0.31012 0.0
C4817 C 0.77987 0.28915 0.32336 0.0
C4818 C 0.77899 0.29709 0.33812 0.0
H4819 H 0.78241 0.35199 0.34305 0.0
H4820 H 0.78406 0.33351 0.33333 0.0
H4821 H 0.76584 0.3396 0.33211 0.0
H4822 H 0.74804 0.31346 0.328 0.0
H4823 H 0.74954 0.29953 0.30196 0.0
H4824 H 0.44574 0.03719 0.22429 0.0
H4825 H 0.46118 0.03582 0.20172 0.0
H4826 H 0.42384 0.00378 0.17416 0.0
H4827 H 0.40839 0.00511 0.19657 0.0
H4828 H 0.46754 0.00611 0.18792 0.0
H4829 H 0.43842 0.03701 0.14368 0.0
H4830 H 0.43718 0.04013 0.16496 0.0
H4831 H 0.42588 0.02342 0.15322 0.0
C4832 C 0.44078 0.03008 0.2133 0.0
C4833 C 0.42594 0.02122 0.2121 0.0
C4834 C 0.44958 0.0293 0.20049 0.0
C4835 C 0.4435 0.01987 0.1863 0.0
C4836 C 0.42857 0.01131 0.18496 0.0
H4837 H 0.46657 0.98162 0.09817 0.0
H4838 H 0.45489 0.99215 0.12089 0.0
C4839 C 0.41985 0.01196 0.19778 0.0
C4840 C 0.45316 0.01772 0.17337 0.0
H4841 H 0.45512 0.02098 0.1337 0.0
C4842 C 0.46507 0.00956 0.17611 0.0
C4843 C 0.4497 0.0222 0.15806 0.0
C4844 C 0.43718 0.03129 0.15476 0.0
C4845 C 0.47313 0.00495 0.16361 0.0
C4846 C 0.46942 0.00907 0.14811 0.0
C4847 C 0.45791 0.01783 0.14558 0.0
C4848 C 0.47656 0.00344 0.13417 0.0
C4849 C 0.48487 0.99496 0.16696 0.0
C4850 C 0.49255 0.0065 0.13404 0.0
C4851 C 0.4992 1.00014 0.12132 0.0
C4852 C 0.4899 0.99101 0.1084 0.0
C4853 C 0.4739 0.98849 0.10818 0.0
C4854 C 0.46726 0.99457 0.12105 0.0
H4855 H 0.48348 0.98969 0.17829 0.0
H4856 H 0.48406 0.98562 0.15706 0.0
H4857 H 0.49655 1.00208 0.16813 0.0
H4858 H 0.49989 0.0137 0.14381 0.0
H4859 H 0.51158 1.0025 0.12144 0.0
H4860 H 0.74932 0.69333 0.9199 0.0
H4861 H 0.75095 0.70495 0.89485 0.0
H4862 H 0.79521 0.73184 0.91337 0.0
H4863 H 0.79354 0.72067 0.93874 0.0
H4864 H 0.75727 0.73934 0.89076 0.0
H4865 H 0.80064 0.70639 0.86947 0.0
H4866 H 0.78852 0.7 0.88449 0.0
H4867 H 0.80409 0.71599 0.88957 0.0
C4868 C 0.75932 0.7019 0.91883 0.0
C4869 C 0.77131 0.706 0.93145 0.0
C4870 C 0.76026 0.70846 0.90442 0.0
C4871 C 0.77325 0.71915 0.9022 0.0
C4872 C 0.78516 0.72346 0.91477 0.0
H4873 H 0.80072 0.75645 0.81471 0.0
H4874 H 0.80012 0.7483 0.84166 0.0
C4875 C 0.7842 0.71699 0.92925 0.0
C4876 C 0.77438 0.72556 0.88663 0.0
H4877 H 0.79208 0.72333 0.85253 0.0
C4878 C 0.7649 0.73591 0.88238 0.0
C4879 C 0.78449 0.72123 0.87585 0.0
C4880 C 0.79501 0.71024 0.87993 0.0
C4881 C 0.7653 0.74212 0.86764 0.0
C4882 C 0.77497 0.73728 0.85647 0.0
C4883 C 0.78458 0.72704 0.86091 0.0
C4884 C 0.77528 0.74256 0.84014 0.0
C4885 C 0.75566 0.75413 0.86455 0.0
C4886 C 0.76161 0.74196 0.83007 0.0
C4887 C 0.76199 0.74722 0.81496 0.0
C4888 C 0.77606 0.75242 0.80924 0.0
C4889 C 0.78975 0.75246 0.81891 0.0
C4890 C 0.78937 0.74775 0.83428 0.0
H4891 H 0.75367 0.76042 0.87594 0.0
H4892 H 0.76115 0.76261 0.85701 0.0
H4893 H 0.74426 0.74843 0.85837 0.0
H4894 H 0.75059 0.73744 0.83386 0.0
H4895 H 0.75128 0.74722 0.80772 0.0
H4896 H 0.82483 0.06307 0.04757 0.0
H4897 H 0.84769 0.05101 0.04673 0.0
H4898 H 0.87124 0.09024 0.02675 0.0
H4899 H 0.84844 0.10209 0.02725 0.0
H4900 H 0.86165 0.04782 0.01404 0.0
H4901 H 0.90111 0.0792 0.06605 0.0
H4902 H 0.88042 0.0761 0.06555 0.0
H4903 H 0.89016 0.09061 0.05478 0.0
C4904 C 0.83502 0.06911 0.04322 0.0
C4905 C 0.83506 0.08338 0.03741 0.0
C4906 C 0.84797 0.06229 0.0428 0.0
C4907 C 0.86107 0.06992 0.03692 0.0
C4908 C 0.86123 0.08437 0.03155 0.0
H4909 H 0.94465 0.07205 0.00234 0.0
H4910 H 0.92246 0.07533 0.01635 0.0
C4911 C 0.84825 0.09104 0.03172 0.0
C4912 C 0.87413 0.06234 0.03452 0.0
H4913 H 0.91269 0.06744 0.04479 0.0
C4914 C 0.87278 0.05168 0.02096 0.0
C4915 C 0.88848 0.06763 0.04362 0.0
C4916 C 0.8902 0.07895 0.05841 0.0
C4917 C 0.88579 0.04715 0.01537 0.0
C4918 C 0.90037 0.05314 0.02397 0.0
C4919 C 0.9015 0.06291 0.03825 0.0
C4920 C 0.91462 0.05101 0.01723 0.0
C4921 C 0.8839 0.03706 -0.00037 0.0
C4922 C 0.91769 0.03628 0.01344 0.0
C4923 C 0.93004 0.03434 0.00496 0.0
C4924 C 0.93979 0.04715 0.00052 0.0
C4925 C 0.93717 0.06194 0.00521 0.0
C4926 C 0.92463 0.06384 0.01343 0.0
H4927 H 0.87231 0.03609 0.99303 0.0
H4928 H 0.89259 0.0416 0.99182 0.0
H4929 H 0.88549 0.02534 0.00193 0.0
H4930 H 0.91024 0.02627 0.01655 0.0
H4931 H 0.93159 0.02276 0.00144 0.0
H4932 H 0.37501 0.41493 0.03729 0.0
H4933 H 0.40045 0.43046 0.03596 0.0
H4934 H 0.37933 0.46832 0.02319 0.0
H4935 H 0.35389 0.4529 0.02447 0.0
H4936 H 0.40963 0.44615 0.00645 0.0
H4937 H 0.41384 0.48517 0.06286 0.0
H4938 H 0.4018 0.46632 0.05978 0.0
H4939 H 0.396 0.48173 0.04997 0.0
C4940 C 0.3758 0.42663 0.0344 0.0
C4941 C 0.36244 0.4327 0.03098 0.0
C4942 C 0.39032 0.43544 0.03355 0.0
C4943 C 0.39174 0.45054 0.02953 0.0
C4944 C 0.37846 0.45672 0.02639 0.0
H4945 H 0.47083 0.51055 0.00022 0.0
H4946 H 0.44482 0.49672 0.00254 0.0
C4947 C 0.36395 0.44787 0.02706 0.0
C4948 C 0.40707 0.45972 0.02816 0.0
H4949 H 0.43367 0.49037 0.04629 0.0
C4950 C 0.4149 0.45583 0.01513 0.0
C4951 C 0.4139 0.47229 0.03955 0.0
C4952 C 0.40607 0.47666 0.05392 0.0
C4953 C 0.42936 0.46428 0.01313 0.0
C4954 C 0.43612 0.47696 0.02444 0.0
C4955 C 0.42836 0.48075 0.03755 0.0
C4956 C 0.45163 0.48588 0.02327 0.0
C4957 C 0.43749 0.45947 0.99914 0.0
C4958 C 0.46396 0.48457 0.03432 0.0
C4959 C 0.47875 0.4924 0.03302 0.0
C4960 C 0.48151 0.50185 0.02073 0.0
C4961 C 0.46906 0.50345 0.00988 0.0
C4962 C 0.45424 0.49549 0.01112 0.0
H4963 H 0.43176 0.44812 0.99282 0.0
H4964 H 0.43765 0.46812 0.99047 0.0
H4965 H 0.44959 0.45893 0.00322 0.0
H4966 H 0.46218 0.47725 0.04379 0.0
H4967 H 0.48806 0.49094 0.04162 0.0
H4968 H 0.39225 0.59756 0.76487 0.0
H4969 H 0.37882 0.61935 0.76604 0.0
H4970 H 0.33547 0.58838 0.75373 0.0
H4971 H 0.34874 0.56648 0.75282 0.0
H4972 H 0.35672 0.62698 0.73997 0.0
H4973 H 0.33161 0.61531 0.79663 0.0
H4974 H 0.34824 0.60787 0.79109 0.0
H4975 H 0.32956 0.59955 0.78111 0.0
C4976 C 0.37985 0.59535 0.76255 0.0
C4977 C 0.37157 0.58024 0.75884 0.0
C4978 C 0.37221 0.60783 0.76309 0.0
C4979 C 0.35616 0.60545 0.76007 0.0
C4980 C 0.34786 0.59044 0.75621 0.0
H4981 H 0.29691 0.67313 0.77617 0.0
H4982 H 0.30544 0.64911 0.76811 0.0
C4983 C 0.35548 0.57795 0.75559 0.0
C4984 C 0.34814 0.6187 0.76117 0.0
H4985 H 0.32605 0.63679 0.7847 0.0
C4986 C 0.34994 0.62911 0.74969 0.0
C4987 C 0.33916 0.62132 0.77374 0.0
C4988 C 0.33702 0.61051 0.78644 0.0
C4989 C 0.34311 0.64222 0.75056 0.0
C4990 C 0.33465 0.64522 0.76354 0.0
C4991 C 0.33251 0.63453 0.77475 0.0
C4992 C 0.32893 0.65987 0.76646 0.0
C4993 C 0.34497 0.65263 0.73747 0.0
C4994 C 0.3392 0.67395 0.76801 0.0
C4995 C 0.33431 0.68767 0.77237 0.0
C4996 C 0.31908 0.68766 0.77563 0.0
C4997 C 0.30867 0.6736 0.77362 0.0
C4998 C 0.31356 0.65983 0.76913 0.0
H4999 H 0.34654 0.64617 0.72601 0.0
H5000 H 0.3349 0.65829 0.73544 0.0
H5001 H 0.35537 0.66164 0.7409 0.0
H5002 H 0.35118 0.67432 0.76641 0.0
H5003 H 0.3426 0.69829 0.77357 0.0
H5004 H 0.18209 0.57157 0.50596 0.0
H5005 H 0.15553 0.5601 0.50817 0.0
H5006 H 0.16859 0.54888 0.55549 0.0
H5007 H 0.19544 0.56003 0.55328 0.0
H5008 H 0.14277 0.52598 0.52821 0.0
H5009 H 0.13667 0.58592 0.54777 0.0
H5010 H 0.14804 0.58319 0.53153 0.0
H5011 H 0.15458 0.57918 0.55117 0.0
C5012 C 0.17945 0.56614 0.51659 0.0
C5013 C 0.19075 0.56678 0.52953 0.0
C5014 C 0.1643 0.55968 0.51785 0.0
C5015 C 0.16031 0.55384 0.53202 0.0
C5016 C 0.17164 0.55339 0.5445 0.0
H5017 H 0.06383 0.54959 0.54621 0.0
H5018 H 0.09182 0.55294 0.55261 0.0
C5019 C 0.18686 0.55982 0.54325 0.0
C5020 C 0.14411 0.5502 0.53439 0.0
H5021 H 0.11379 0.56784 0.53981 0.0
C5022 C 0.13638 0.53501 0.53107 0.0
C5023 C 0.13607 0.56208 0.5384 0.0
C5024 C 0.14422 0.57854 0.54254 0.0
C5025 C 0.12042 0.53145 0.53071 0.0
C5026 C 0.11217 0.54354 0.53334 0.0
C5027 C 0.12012 0.55861 0.53773 0.0
C5028 C 0.09537 0.54114 0.52998 0.0
C5029 C 0.11264 0.51484 0.52708 0.0
C5030 C 0.08829 0.5339 0.51501 0.0
C5031 C 0.07247 0.53164 0.51163 0.0
C5032 C 0.06364 0.5371 0.52295 0.0
C5033 C 0.07064 0.5452 0.5375 0.0
C5034 C 0.0865 0.54705 0.54111 0.0
H5035 H 0.11989 0.50721 0.53237 0.0
H5036 H 0.1013 0.51267 0.53167 0.0
H5037 H 0.11102 0.51166 0.51392 0.0
H5038 H 0.09499 0.52997 0.50593 0.0
H5039 H 0.06709 0.52557 0.50022 0.0
H5040 H 0.69711 0.9513 0.72537 0.0
H5041 H 0.70557 0.92699 0.72848 0.0
H5042 H 0.74506 0.95079 0.76017 0.0
H5043 H 0.73683 0.97527 0.75696 0.0
H5044 H 0.7367 0.91534 0.728 0.0
H5045 H 0.71304 0.92363 0.78643 0.0
H5046 H 0.70856 0.93416 0.76989 0.0
H5047 H 0.72698 0.93923 0.78155 0.0
C5048 C 0.70794 0.95145 0.73245 0.0
C5049 C 0.71624 0.96507 0.74113 0.0
C5050 C 0.71272 0.93757 0.73421 0.0
C5051 C 0.72578 0.93725 0.74465 0.0
C5052 C 0.73491 0.95096 0.7521 0.0
H5053 H 0.7668 0.86787 0.78339 0.0
H5054 H 0.76069 0.88948 0.76999 0.0
C5055 C 0.73015 0.96485 0.75034 0.0
C5056 C 0.72825 0.92262 0.74998 0.0
H5057 H 0.72412 0.90171 0.7816 0.0
C5058 C 0.73396 0.91227 0.73968 0.0
C5059 C 0.72435 0.91875 0.76513 0.0
C5060 C 0.71778 0.92944 0.7764 0.0
C5061 C 0.73631 0.89813 0.74444 0.0
C5062 C 0.73273 0.89445 0.75973 0.0
C5063 C 0.7267 0.90466 0.76984 0.0
C5064 C 0.73628 0.88061 0.76613 0.0
C5065 C 0.74266 0.88724 0.73325 0.0
C5066 C 0.72444 0.86871 0.76853 0.0
C5067 C 0.72788 0.85621 0.77605 0.0
C5068 C 0.74317 0.85567 0.7814 0.0
C5069 C 0.75493 0.86781 0.77912 0.0
C5070 C 0.7515 0.88013 0.77145 0.0
H5071 H 0.74235 0.89063 0.72089 0.0
H5072 H 0.75476 0.88714 0.73773 0.0
H5073 H 0.73607 0.87537 0.73287 0.0
H5074 H 0.71259 0.86914 0.76465 0.0
H5075 H 0.71863 0.84694 0.7775 0.0
H5076 H 0.72164 0.93527 0.50474 0.0
H5077 H 0.6992 0.94762 0.50256 0.0
H5078 H 0.68346 0.92725 0.54383 0.0
H5079 H 0.70571 0.91456 0.54594 0.0
H5080 H 0.66802 0.93138 0.49854 0.0
H5081 H 0.68064 0.97336 0.55331 0.0
H5082 H 0.69529 0.96448 0.54482 0.0
H5083 H 0.68183 0.95379 0.55606 0.0
C5084 C 0.71341 0.93336 0.51334 0.0
C5085 C 0.71549 0.92386 0.52549 0.0
C5086 C 0.70065 0.94053 0.51215 0.0
C5087 C 0.68978 0.9385 0.52314 0.0
C5088 C 0.69188 0.92922 0.53541 0.0
H5089 H 0.6022 0.96941 0.52823 0.0
H5090 H 0.62605 0.95967 0.53449 0.0
C5091 C 0.70462 0.92198 0.5366 0.0
C5092 C 0.67575 0.94526 0.52103 0.0
H5093 H 0.65661 0.9716 0.53798 0.0
C5094 C 0.66554 0.94021 0.50713 0.0
C5095 C 0.67245 0.9566 0.53239 0.0
C5096 C 0.68315 0.9625 0.54746 0.0
C5097 C 0.65208 0.94614 0.50426 0.0
C5098 C 0.64897 0.95785 0.51535 0.0
C5099 C 0.65907 0.96274 0.52942 0.0
C5100 C 0.6353 0.96512 0.51243 0.0
C5101 C 0.64116 0.93951 0.4895 0.0
C5102 C 0.63285 0.97192 0.49828 0.0
C5103 C 0.6192 0.9772 0.49462 0.0
C5104 C 0.60796 0.97616 0.50525 0.0
C5105 C 0.61077 0.97027 0.51987 0.0
C5106 C 0.62435 0.96474 0.52343 0.0
H5107 H 0.64271 0.92777 0.48517 0.0
H5108 H 0.62902 0.939 0.49183 0.0
H5109 H 0.64348 0.94686 0.47976 0.0
H5110 H 0.64134 0.97279 0.48985 0.0
H5111 H 0.61729 0.98186 0.48334 0.0
H5112 H 0.3572 0.4294 0.72661 0.0
H5113 H 0.34181 0.40371 0.72669 0.0
H5114 H 0.3515 0.40716 0.77799 0.0
H5115 H 0.36731 0.43254 0.77808 0.0
H5116 H 0.35514 0.37703 0.74813 0.0
H5117 H 0.30043 0.39627 0.75944 0.0
H5118 H 0.31411 0.40692 0.74815 0.0
H5119 H 0.31845 0.40707 0.76932 0.0
C5120 C 0.35622 0.42466 0.73791 0.0
C5121 C 0.3635 0.43314 0.75235 0.0
C5122 C 0.34733 0.41003 0.73792 0.0
C5123 C 0.34549 0.40365 0.75235 0.0
C5124 C 0.35272 0.41198 0.76675 0.0
H5125 H 0.28845 0.3244 0.78144 0.0
H5126 H 0.30279 0.34985 0.77837 0.0
C5127 C 0.36167 0.42655 0.76676 0.0
C5128 C 0.33616 0.38819 0.75247 0.0
H5129 H 0.30051 0.36978 0.7584 0.0
C5130 C 0.34317 0.37536 0.75026 0.0
C5131 C 0.32065 0.3862 0.7555 0.0
C5132 C 0.31283 0.39978 0.75823 0.0
C5133 C 0.33512 0.36048 0.7513 0.0
C5134 C 0.31944 0.35837 0.75409 0.0
C5135 C 0.31245 0.37131 0.75617 0.0
C5136 C 0.31025 0.34296 0.75552 0.0
C5137 C 0.34375 0.34732 0.75005 0.0
C5138 C 0.30931 0.33062 0.74356 0.0
C5139 C 0.30144 0.31598 0.74551 0.0
C5140 C 0.29388 0.31353 0.75918 0.0
C5141 C 0.29412 0.32601 0.77074 0.0
C5142 C 0.30234 0.34054 0.76899 0.0
H5143 H 0.35633 0.35137 0.75293 0.0
H5144 H 0.33991 0.3387 0.75821 0.0
H5145 H 0.34171 0.34162 0.73758 0.0
H5146 H 0.31478 0.33225 0.73276 0.0
H5147 H 0.30123 0.30657 0.73633 0.0
H5148 H 0.23926 0.59946 0.28061 0.0
H5149 H 0.25252 0.62631 0.28441 0.0
H5150 H 0.22853 0.63428 0.24006 0.0
H5151 H 0.21487 0.60776 0.23644 0.0
H5152 H 0.27038 0.64625 0.26427 0.0
H5153 H 0.21469 0.66201 0.27674 0.0
H5154 H 0.21817 0.64262 0.27656 0.0
H5155 H 0.21366 0.65024 0.25806 0.0
C5156 C 0.23698 0.60693 0.27161 0.0
C5157 C 0.22592 0.60168 0.25837 0.0
C5158 C 0.24462 0.62214 0.27373 0.0
C5159 C 0.24122 0.63211 0.26262 0.0
C5160 C 0.2311 0.62662 0.24879 0.0
H5161 H 0.27677 0.72142 0.24328 0.0
H5162 H 0.27179 0.69408 0.24609 0.0
C5163 C 0.22342 0.61149 0.24669 0.0
C5164 C 0.24694 0.64859 0.26618 0.0
H5165 H 0.23431 0.68234 0.27171 0.0
C5166 C 0.26262 0.65422 0.26614 0.0
C5167 C 0.23672 0.65875 0.26905 0.0
C5168 C 0.21989 0.65311 0.27028 0.0
C5169 C 0.26828 0.67003 0.26798 0.0
C5170 C 0.25783 0.68022 0.2695 0.0
C5171 C 0.24228 0.67449 0.27044 0.0
C5172 C 0.26235 0.69677 0.26875 0.0
C5173 C 0.2853 0.67562 0.26809 0.0
C5174 C 0.25819 0.70723 0.28025 0.0
C5175 C 0.26049 0.72276 0.27829 0.0
C5176 C 0.26724 0.72799 0.26501 0.0
C5177 C 0.27175 0.71761 0.25372 0.0
C5178 C 0.26908 0.70203 0.25543 0.0
H5179 H 0.29195 0.66725 0.27287 0.0
H5180 H 0.28797 0.6768 0.25563 0.0
H5181 H 0.28919 0.68691 0.27538 0.0
H5182 H 0.25283 0.70332 0.29052 0.0
H5183 H 0.25703 0.73066 0.28715 0.0
H5184 H 0.52565 0.67845 0.45011 0.0
H5185 H 0.52759 0.65369 0.45958 0.0
H5186 H 0.49504 0.66031 0.49305 0.0
H5187 H 0.49307 0.6852 0.48372 0.0
H5188 H 0.53705 0.64494 0.48783 0.0
H5189 H 0.47584 0.618 0.47241 0.0
H5190 H 0.48389 0.63606 0.46574 0.0
H5191 H 0.4787 0.63537 0.4858 0.0
C5192 C 0.51894 0.67482 0.45959 0.0
C5193 C 0.50915 0.68415 0.46601 0.0
C5194 C 0.52003 0.66046 0.46498 0.0
C5195 C 0.5113 0.65472 0.47693 0.0
C5196 C 0.50165 0.66406 0.48353 0.0
H5197 H 0.53062 0.5764 0.52881 0.0
H5198 H 0.52858 0.60193 0.52127 0.0
C5199 C 0.50054 0.67844 0.47814 0.0
C5200 C 0.51249 0.63915 0.48247 0.0
H5201 H 0.49144 0.60387 0.48705 0.0
C5202 C 0.52703 0.63601 0.48765 0.0
C5203 C 0.49954 0.62719 0.48218 0.0
C5204 C 0.48363 0.62922 0.4761 0.0
C5205 C 0.52895 0.62157 0.49254 0.0
C5206 C 0.51597 0.60972 0.49253 0.0
C5207 C 0.50145 0.61282 0.48725 0.0
C5208 C 0.51724 0.59394 0.49739 0.0
C5209 C 0.545 0.61903 0.49727 0.0
C5210 C 0.51124 0.58058 0.48683 0.0
C5211 C 0.51248 0.56586 0.49114 0.0
C5212 C 0.51966 0.56391 0.50626 0.0
C5213 C 0.52535 0.57728 0.51696 0.0
C5214 C 0.52418 0.59202 0.51261 0.0
H5215 H 0.55377 0.62743 0.49257 0.0
H5216 H 0.54732 0.62048 0.51052 0.0
H5217 H 0.54637 0.60726 0.49284 0.0
H5218 H 0.50572 0.58152 0.47507 0.0
H5219 H 0.50781 0.55597 0.48253 0.0
H5220 H 0.63552 0.30501 0.65676 0.0
H5221 H 0.65946 0.30354 0.67289 0.0
H5222 H 0.63732 0.26194 0.68973 0.0
H5223 H 0.61346 0.26324 0.67356 0.0
H5224 H 0.66793 0.30428 0.70403 0.0
H5225 H 0.67438 0.24763 0.67551 0.0
H5226 H 0.66032 0.25803 0.66745 0.0
H5227 H 0.65646 0.24676 0.68378 0.0
C5228 C 0.63568 0.29555 0.66392 0.0
C5229 C 0.62242 0.28415 0.66359 0.0
C5230 C 0.64948 0.29469 0.67315 0.0
C5231 C 0.65051 0.28241 0.68235 0.0
C5232 C 0.63717 0.27127 0.68239 0.0
H5233 H 0.71999 0.25916 0.75159 0.0
H5234 H 0.69656 0.26148 0.73508 0.0
C5235 C 0.62341 0.27206 0.6731 0.0
C5236 C 0.66538 0.28139 0.69205 0.0
H5237 H 0.69076 0.25729 0.69963 0.0
C5238 C 0.67294 0.29402 0.70292 0.0
C5239 C 0.67217 0.26807 0.69074 0.0
C5240 C 0.66551 0.25442 0.67862 0.0
C5241 C 0.68666 0.29356 0.71263 0.0
C5242 C 0.69322 0.28015 0.71152 0.0
C5243 C 0.68576 0.26756 0.70062 0.0
C5244 C 0.70769 0.27891 0.72165 0.0
C5245 C 0.6939 0.30733 0.72435 0.0
C5246 C 0.72195 0.28784 0.71965 0.0
C5247 C 0.73548 0.28647 0.72906 0.0
C5248 C 0.73513 0.27618 0.74081 0.0
C5249 C 0.72081 0.26728 0.74278 0.0
C5250 C 0.70733 0.26855 0.73328 0.0
H5251 H 0.68611 0.31572 0.72583 0.0
H5252 H 0.69715 0.3037 0.73623 0.0
H5253 H 0.70452 0.3132 0.71997 0.0
H5254 H 0.72265 0.2958 0.71068 0.0
H5255 H 0.74622 0.29355 0.72716 0.0
H5256 H 0.99286 0.34157 0.98215 0.0
H5257 H 0.99436 0.36903 0.99013 0.0
H5258 H 0.03303 0.37963 0.96338 0.0
H5259 H 0.03142 0.35228 0.95504 0.0
H5260 H 0.01846 0.39177 0.00698 0.0
H5261 H 0.00398 0.40659 0.94574 0.0
H5262 H 1.001 0.38702 0.95056 0.0
H5263 H 0.01989 0.39673 0.94782 0.0
C5264 C 1.00164 0.34969 0.97782 0.0
C5265 C 0.01195 0.34446 0.96779 0.0
C5266 C 1.00254 0.36548 0.98251 0.0
C5267 C 0.01366 0.37661 0.97721 0.0
C5268 C 0.02415 0.37143 0.96747 0.0
H5269 H 0.0324 0.47722 0.98365 0.0
H5270 H 0.03152 0.44974 0.97761 0.0
C5271 C 0.02331 0.35566 0.96284 0.0
C5272 C 0.01425 0.39355 0.98179 0.0
H5273 H 0.01147 0.42727 0.96615 0.0
C5274 C 0.01689 0.39953 0.99804 0.0
C5275 C 0.01229 0.40384 0.97024 0.0
C5276 C 0.009 0.39826 0.95262 0.0
C5277 C 0.01806 0.41539 0.00299 0.0
C5278 C 0.01593 0.42573 0.99142 0.0
C5279 C 0.01315 0.41963 0.97516 0.0
C5280 C 0.0168 0.44285 0.99572 0.0
C5281 C 0.02218 0.42086 0.02058 0.0
C5282 C 0.00884 0.44865 0.00791 0.0
C5283 C 0.00998 0.46458 0.01189 0.0
C5284 C 0.01859 0.47534 0.00342 0.0
C5285 C 0.02601 0.4695 0.99081 0.0
C5286 C 0.02531 0.45361 0.98717 0.0
H5287 H 0.0284 0.41291 0.02677 0.0
H5288 H 0.02946 0.43249 0.0225 0.0
H5289 H 0.0115 0.42124 0.02629 0.0
H5290 H 1.00162 0.44088 0.01438 0.0
H5291 H 0.00411 0.4684 0.02169 0.0
H5292 H 0.97604 0.75589 0.1684 0.0
H5293 H 0.95287 0.75403 0.18209 0.0
H5294 H 0.94437 0.79636 0.16531 0.0
H5295 H 0.96711 0.79796 0.15098 0.0
H5296 H 0.94453 0.77218 0.20583 0.0
H5297 H 0.90326 0.76932 0.1518 0.0
H5298 H 0.92299 0.76748 0.1506 0.0
H5299 H 0.91803 0.78615 0.15434 0.0
C5300 C 0.96916 0.76472 0.16738 0.0
C5301 C 0.97354 0.77702 0.15837 0.0
C5302 C 0.95592 0.7637 0.17538 0.0
C5303 C 0.94658 0.77489 0.17458 0.0
C5304 C 0.95108 0.78735 0.16588 0.0
H5305 H 0.86046 0.78446 0.21537 0.0
H5306 H 0.88534 0.78995 0.20445 0.0
C5307 C 0.9643 0.78836 0.15784 0.0
C5308 C 0.93228 0.77355 0.18293 0.0
H5309 H 0.89337 0.77184 0.17685 0.0
C5310 C 0.93336 0.77208 0.19945 0.0
C5311 C 0.91759 0.77341 0.17472 0.0
C5312 C 0.91532 0.77402 0.15687 0.0
C5313 C 0.92031 0.7706 0.2079 0.0
C5314 C 0.90566 0.77045 0.19967 0.0
C5315 C 0.90458 0.77208 0.18323 0.0
C5316 C 0.89123 0.76777 0.20768 0.0
C5317 C 0.92229 0.76933 0.22563 0.0
C5318 C 0.88624 0.75355 0.21327 0.0
C5319 C 0.87202 0.75039 0.21937 0.0
C5320 C 0.86249 0.76143 0.22023 0.0
C5321 C 0.86767 0.77585 0.21512 0.0
C5322 C 0.88184 0.77893 0.20878 0.0
H5323 H 0.9344 0.77337 0.23089 0.0
H5324 H 0.91487 0.77607 0.23202 0.0
H5325 H 0.91888 0.75713 0.22769 0.0
H5326 H 0.89309 0.74464 0.21236 0.0
H5327 H 0.86823 0.73911 0.22301 0.0
H5328 H 0.50446 0.33292 0.14515 0.0
H5329 H 0.50582 0.35582 0.13091 0.0
H5330 H 0.52975 0.33502 0.09523 0.0
H5331 H 0.52827 0.31202 0.10928 0.0
H5332 H 0.53251 0.37516 0.12409 0.0
H5333 H 0.49563 0.34992 0.06802 0.0
H5334 H 0.49565 0.34048 0.08606 0.0
H5335 H 0.51078 0.33982 0.07348 0.0
C5336 C 0.50982 0.33311 0.13415 0.0
C5337 C 0.51622 0.32055 0.12837 0.0
C5338 C 0.51066 0.34627 0.12605 0.0
C5339 C 0.5177 0.34713 0.11185 0.0
C5340 C 0.52402 0.33458 0.10599 0.0
H5341 H 0.54218 0.41772 0.04896 0.0
H5342 H 0.53611 0.39357 0.061 0.0
C5343 C 0.5233 0.32148 0.11415 0.0
C5344 C 0.5191 0.3614 0.10361 0.0
H5345 H 0.50974 0.37524 0.06818 0.0
C5346 C 0.52742 0.37519 0.11191 0.0
C5347 C 0.51255 0.36148 0.08766 0.0
C5348 C 0.50303 0.34718 0.07829 0.0
C5349 C 0.52969 0.38892 0.10465 0.0
C5350 C 0.52312 0.38903 0.0887 0.0
C5351 C 0.51474 0.37523 0.0804 0.0
C5352 C 0.52522 0.40328 0.08038 0.0
C5353 C 0.53959 0.40305 0.11398 0.0
C5354 C 0.52061 0.4167 0.08683 0.0
C5355 C 0.5241 0.43048 0.07995 0.0
C5356 C 0.532 0.43106 0.0663 0.0
C5357 C 0.5359 0.4175 0.05935 0.0
C5358 C 0.53248 0.40373 0.06628 0.0
H5359 H 0.54703 0.4001 0.1241 0.0
H5360 H 0.547 0.40964 0.10616 0.0
H5361 H 0.53211 0.41058 0.11904 0.0
H5362 H 0.51469 0.41663 0.09746 0.0
H5363 H 0.52111 0.44081 0.0856 0.0
H5364 H 0.95049 0.26906 0.29431 0.0
H5365 H 0.9233 0.26744 0.28497 0.0
H5366 H 0.91904 0.29929 0.32525 0.0
H5367 H 0.94611 0.30098 0.33464 0.0
H5368 H 0.8974 0.25774 0.29752 0.0
H5369 H 0.89966 0.31906 0.28993 0.0
H5370 H 0.91677 0.31102 0.29331 0.0
H5371 H 0.90672 0.31642 0.30988 0.0
C5372 C 0.94382 0.27573 0.30124 0.0
C5373 C 0.95078 0.2853 0.31522 0.0
C5374 C 0.92818 0.27483 0.29581 0.0
C5375 C 0.91897 0.28349 0.30413 0.0
C5376 C 0.92583 0.29284 0.31822 0.0
H5377 H 0.81894 0.26505 0.29966 0.0
H5378 H 0.84659 0.26708 0.30598 0.0
C5379 C 0.94145 0.29378 0.32362 0.0
C5380 C 0.90217 0.28239 0.29844 0.0
H5381 H 0.87462 0.30389 0.28968 0.0
C5382 C 0.89249 0.26787 0.29574 0.0
C5383 C 0.89556 0.29548 0.29573 0.0
C5384 C 0.90524 0.31135 0.29719 0.0
C5385 C 0.87657 0.26614 0.29101 0.0
C5386 C 0.86985 0.27929 0.28915 0.0
C5387 C 0.87958 0.29377 0.29131 0.0
C5388 C 0.85279 0.27826 0.28522 0.0
C5389 C 0.86711 0.25014 0.28781 0.0
C5390 C 0.84678 0.28421 0.2716 0.0
C5391 C 0.83081 0.28306 0.2679 0.0
C5392 C 0.82038 0.27616 0.27787 0.0
C5393 C 0.82647 0.27041 0.2916 0.0
C5394 C 0.84239 0.27148 0.29522 0.0
H5395 H 0.87433 0.24146 0.285 0.0
H5396 H 0.86157 0.24723 0.29866 0.0
H5397 H 0.85797 0.2493 0.27771 0.0
H5398 H 0.85445 0.28956 0.26365 0.0
H5399 H 0.82668 0.28745 0.25713 0.0
H5400 H 0.99265 0.67417 0.60487 0.0
H5401 H 0.99361 0.64989 0.58917 0.0
H5402 H 0.03195 0.64387 0.62149 0.0
H5403 H 0.03056 0.66758 0.63772 0.0
H5404 H 0.01507 0.64068 0.57259 0.0
H5405 H 0.00561 0.60253 0.62024 0.0
H5406 H 1.00289 0.62219 0.62258 0.0
H5407 H 0.02184 0.61775 0.6258 0.0
C5408 C 1.00113 0.66759 0.60888 0.0
C5409 C 0.01147 0.67303 0.62277 0.0
C5410 C 1.00175 0.65369 0.59974 0.0
C5411 C 0.01267 0.64473 0.6042 0.0
C5412 C 0.02313 0.65022 0.61791 0.0
H5413 H 0.0398 0.56096 0.56199 0.0
H5414 H 0.03749 0.58441 0.57866 0.0
C5415 C 0.02247 0.66405 0.6271 0.0
C5416 C 0.0134 0.62992 0.59433 0.0
H5417 H 0.01405 0.59172 0.59649 0.0
C5418 C 0.01473 0.62997 0.57784 0.0
C5419 C 0.01296 0.6158 0.60102 0.0
C5420 C 0.01059 0.61449 0.61834 0.0
C5421 C 0.01598 0.61657 0.56806 0.0
C5422 C 0.01573 0.60253 0.57481 0.0
C5423 C 0.01435 0.60243 0.59126 0.0
C5424 C 0.0168 0.58784 0.56499 0.0
C5425 C 0.01795 0.61769 0.55062 0.0
C5426 C 0.00579 0.58159 0.55193 0.0
C5427 C 0.00698 0.56803 0.54259 0.0
C5428 C 0.01916 0.56026 0.54607 0.0
C5429 C 0.03004 0.56634 0.55928 0.0
C5430 C 0.02882 0.5799 0.56869 0.0
H5431 H 0.02201 0.62973 0.54829 0.0
H5432 H 0.02623 0.61057 0.54655 0.0
H5433 H 0.00673 0.61342 0.54332 0.0
H5434 H 0.99619 0.58719 0.54897 0.0
H5435 H 0.99827 0.56354 0.53267 0.0
H5436 H 0.61696 0.81005 0.81045 0.0
H5437 H 0.64178 0.80775 0.80112 0.0
H5438 H 0.63833 0.76295 0.81732 0.0
H5439 H 0.61375 0.76521 0.82696 0.0
H5440 H 0.66929 0.804 0.81702 0.0
H5441 H 0.64806 0.75382 0.7718 0.0
H5442 H 0.63531 0.76479 0.78101 0.0
H5443 H 0.64296 0.75058 0.79144 0.0
C5444 C 0.62143 0.7997 0.81218 0.0
C5445 C 0.61295 0.78779 0.81947 0.0
C5446 C 0.63571 0.79837 0.8067 0.0
C5447 C 0.64202 0.78504 0.80815 0.0
C5448 C 0.6337 0.77322 0.81556 0.0
H5449 H 0.72615 0.75263 0.78555 0.0
H5450 H 0.70088 0.75579 0.79328 0.0
C5451 C 0.61947 0.77455 0.8211 0.0
C5452 C 0.65736 0.78362 0.8023 0.0
H5453 H 0.67513 0.76083 0.77793 0.0
C5454 C 0.67051 0.79461 0.80838 0.0
C5455 C 0.6592 0.77138 0.79102 0.0
C5456 C 0.64562 0.75954 0.7833 0.0
C5457 C 0.68528 0.79347 0.80395 0.0
C5458 C 0.68714 0.78117 0.79272 0.0
C5459 C 0.67395 0.77027 0.78653 0.0
C5460 C 0.7026 0.77919 0.78748 0.0
C5461 C 0.69885 0.80519 0.81189 0.0
C5462 C 0.71219 0.79107 0.78126 0.0
C5463 C 0.72665 0.78916 0.77668 0.0
C5464 C 0.73187 0.77524 0.77794 0.0
C5465 C 0.7223 0.76332 0.78398 0.0
C5466 C 0.70785 0.76521 0.78856 0.0
H5467 H 0.69629 0.81094 0.82333 0.0
H5468 H 0.70904 0.79982 0.81441 0.0
H5469 H 0.70178 0.81418 0.80384 0.0
H5470 H 0.70849 0.80186 0.77983 0.0
H5471 H 0.73378 0.7986 0.77215 0.0
H5472 H 0.46447 0.495 0.67918 0.0
H5473 H 0.47486 0.49642 0.65337 0.0
H5474 H 0.46144 0.54031 0.64977 0.0
H5475 H 0.45076 0.53889 0.67531 0.0
H5476 H 0.4596 0.49926 0.62301 0.0
H5477 H 0.50716 0.54868 0.64252 0.0
H5478 H 0.49706 0.53773 0.65651 0.0
H5479 H 0.4886 0.55197 0.64702 0.0
C5480 C 0.46362 0.50493 0.67288 0.0
C5481 C 0.45682 0.51687 0.67948 0.0
C5482 C 0.46965 0.50575 0.65814 0.0
C5483 C 0.46914 0.51857 0.64973 0.0
C5484 C 0.46227 0.53045 0.65619 0.0
H5485 H 0.48757 0.53477 0.55184 0.0
H5486 H 0.47665 0.53399 0.57757 0.0
C5487 C 0.4562 0.52962 0.67087 0.0
C5488 C 0.47546 0.51942 0.63403 0.0
H5489 H 0.50241 0.54057 0.61459 0.0
C5490 C 0.46896 0.50829 0.62118 0.0
C5491 C 0.48776 0.53115 0.63166 0.0
C5492 C 0.49568 0.543 0.64517 0.0
C5493 C 0.47426 0.50874 0.606 0.0
C5494 C 0.48635 0.52059 0.6036 0.0
C5495 C 0.49298 0.53162 0.61644 0.0
C5496 C 0.4928 0.52116 0.58804 0.0
C5497 C 0.46707 0.4965 0.59256 0.0
C5498 C 0.50545 0.51422 0.58547 0.0
C5499 C 0.51163 0.51458 0.57086 0.0
C5500 C 0.50533 0.52195 0.55846 0.0
C5501 C 0.49265 0.52895 0.56109 0.0
C5502 C 0.48643 0.52855 0.57577 0.0
H5503 H 0.45771 0.48804 0.5963 0.0
H5504 H 0.46235 0.50191 0.58235 0.0
H5505 H 0.47598 0.49032 0.58824 0.0
H5506 H 0.5105 0.50845 0.59478 0.0
H5507 H 0.52136 0.50901 0.56927 0.0
H5508 H 0.7857 0.15851 0.95056 0.0
H5509 H 0.78468 0.17261 0.92705 0.0
H5510 H 0.76029 0.2039 0.95147 0.0
H5511 H 0.76133 0.18992 0.97505 0.0
H5512 H 0.74475 0.1864 0.92254 0.0
H5513 H 0.80357 0.21609 0.91475 0.0
H5514 H 0.80175 0.19675 0.91999 0.0
H5515 H 0.79783 0.21159 0.93403 0.0
C5516 C 0.78057 0.16869 0.95108 0.0
C5517 C 0.77343 0.17305 0.96449 0.0
C5518 C 0.78006 0.17675 0.9377 0.0
C5519 C 0.77252 0.18932 0.93765 0.0
C5520 C 0.76623 0.19426 0.95139 0.0
H5521 H 0.75165 0.24205 0.85986 0.0
H5522 H 0.76223 0.23414 0.88495 0.0
C5523 C 0.76671 0.18621 0.96475 0.0
C5524 C 0.7688 0.19551 0.92252 0.0
H5525 H 0.78428 0.21437 0.89278 0.0
C5526 C 0.75336 0.19262 0.91608 0.0
C5527 C 0.78012 0.2036 0.91425 0.0
C5528 C 0.79676 0.20733 0.9211 0.0
C5529 C 0.7489 0.19741 0.90136 0.0
C5530 C 0.76024 0.20505 0.89277 0.0
C5531 C 0.77568 0.2083 0.89936 0.0
C5532 C 0.75601 0.20983 0.877 0.0
C5533 C 0.73205 0.1943 0.89517 0.0
C5534 C 0.74941 0.19874 0.8642 0.0
C5535 C 0.74319 0.2032 0.85001 0.0
C5536 C 0.74373 0.21881 0.84834 0.0
C5537 C 0.7511 0.22993 0.86087 0.0
C5538 C 0.75719 0.22545 0.87514 0.0
H5539 H 0.72465 0.19167 0.90482 0.0
H5540 H 0.72884 0.20429 0.88962 0.0
H5541 H 0.72963 0.18424 0.88589 0.0
H5542 H 0.74861 0.18663 0.86542 0.0
H5543 H 0.7378 0.19444 0.84042 0.0
H5544 H 0.10643 0.5431 0.18608 0.0
H5545 H 0.08984 0.54309 0.16127 0.0
H5546 H 0.10734 0.50475 0.1397 0.0
H5547 H 0.12409 0.50477 0.16439 0.0
H5548 H 0.1007 0.5458 0.12975 0.0
H5549 H 0.0594 0.49184 0.13351 0.0
H5550 H 0.07157 0.50237 0.15075 0.0
H5551 H 0.07941 0.49062 0.1364 0.0
C5552 C 0.10675 0.53472 0.17601 0.0
C5553 C 0.11645 0.52392 0.17705 0.0
C5554 C 0.09727 0.53469 0.16196 0.0
C5555 C 0.09737 0.52382 0.14891 0.0
C5556 C 0.10703 0.51303 0.14987 0.0
H5557 H 0.05613 0.50452 0.05269 0.0
H5558 H 0.07125 0.50597 0.07856 0.0
C5559 C 0.11652 0.51305 0.16391 0.0
C5560 C 0.08768 0.52406 0.13405 0.0
H5561 H 0.05744 0.50317 0.10924 0.0
C5562 C 0.09114 0.53658 0.12527 0.0
C5563 C 0.07535 0.51193 0.12844 0.0
C5564 C 0.07108 0.49846 0.13779 0.0
C5565 C 0.08267 0.53711 0.11062 0.0
C5566 C 0.07043 0.52492 0.10497 0.0
C5567 C 0.06687 0.51248 0.11383 0.0
C5568 C 0.06155 0.52449 0.08949 0.0
C5569 C 0.08707 0.55039 0.10105 0.0
C5570 C 0.05116 0.53444 0.08737 0.0
C5571 C 0.04246 0.53364 0.07264 0.0
C5572 C 0.04417 0.52288 0.06 0.0
C5573 C 0.05464 0.51296 0.06224 0.0
C5574 C 0.06325 0.51374 0.07695 0.0
H5575 H 0.09823 0.55772 0.10604 0.0
H5576 H 0.0878 0.54612 0.0884 0.0
H5577 H 0.07809 0.55761 0.10107 0.0
H5578 H 0.04974 0.54272 0.09711 0.0
H5579 H 0.03451 0.54145 0.07112 0.0
H5580 H 0.79487 0.85171 0.43836 0.0
H5581 H 0.79396 0.83968 0.41102 0.0
H5582 H 0.76145 0.80095 0.42148 0.0
H5583 H 0.76232 0.81292 0.44898 0.0
H5584 H 0.8011 0.81218 0.39958 0.0
H5585 H 0.73974 0.81343 0.38154 0.0
H5586 H 0.7501 0.82394 0.39975 0.0
H5587 H 0.74316 0.80362 0.3988 0.0
C5588 C 0.78762 0.84056 0.43494 0.0
C5589 C 0.77867 0.8333 0.44593 0.0
C5590 C 0.78707 0.83372 0.41925 0.0
C5591 C 0.77751 0.81949 0.41411 0.0
C5592 C 0.76868 0.81208 0.42506 0.0
H5593 H 0.78486 0.7668 0.32248 0.0
H5594 H 0.78551 0.7751 0.35102 0.0
C5595 C 0.76919 0.81895 0.44079 0.0
C5596 C 0.77688 0.81256 0.39725 0.0
H5597 H 0.75295 0.80145 0.36251 0.0
C5598 C 0.79056 0.80978 0.39148 0.0
C5599 C 0.76315 0.80955 0.38665 0.0
C5600 C 0.74822 0.8129 0.39191 0.0
C5601 C 0.79093 0.80425 0.37538 0.0
C5602 C 0.77718 0.80115 0.3648 0.0
C5603 C 0.76347 0.80376 0.37063 0.0
C5604 C 0.77684 0.79594 0.34748 0.0
C5605 C 0.80615 0.8023 0.36974 0.0
C5606 C 0.77143 0.80467 0.33592 0.0
C5607 C 0.77099 0.79992 0.3196 0.0
C5608 C 0.77593 0.7863 0.31444 0.0
C5609 C 0.78122 0.77749 0.32602 0.0
C5610 C 0.78163 0.78223 0.34237 0.0
H5611 H 0.81598 0.80882 0.37813 0.0
H5612 H 0.80704 0.78998 0.36898 0.0
H5613 H 0.8072 0.80614 0.35768 0.0
H5614 H 0.76764 0.81527 0.33955 0.0
H5615 H 0.76689 0.80703 0.31103 0.0
H5616 H 0.45404 0.49548 0.84212 0.0
H5617 H 0.46556 0.49637 0.86966 0.0
H5618 H 0.48351 0.54467 0.87033 0.0
H5619 H 0.47218 0.54388 0.84263 0.0
H5620 H 0.49602 0.5045 0.88279 0.0
H5621 H 0.46076 0.54335 0.91025 0.0
H5622 H 0.45602 0.534 0.89005 0.0
H5623 H 0.47093 0.55073 0.89438 0.0
C5624 C 0.46057 0.50629 0.848 0.0
C5625 C 0.46213 0.51962 0.84005 0.0
C5626 C 0.46708 0.50679 0.86383 0.0
C5627 C 0.47522 0.52062 0.87218 0.0
C5628 C 0.47699 0.53392 0.86427 0.0
H5629 H 0.52427 0.54069 0.96896 0.0
H5630 H 0.51414 0.54226 0.94124 0.0
C5631 C 0.47049 0.53344 0.8484 0.0
C5632 C 0.48193 0.52099 0.88909 0.0
H5633 H 0.48058 0.5367 0.92741 0.0
C5634 C 0.49263 0.51154 0.89253 0.0
C5635 C 0.47752 0.53018 0.90184 0.0
C5636 C 0.46558 0.54005 0.89903 0.0
C5637 C 0.49904 0.51105 0.9083 0.0
C5638 C 0.49455 0.52015 0.92101 0.0
C5639 C 0.48402 0.52976 0.91761 0.0
C5640 C 0.50033 0.51942 0.93796 0.0
C5641 C 0.51066 0.50088 0.91131 0.0
C5642 C 0.49567 0.5062 0.94541 0.0
C5643 C 0.50128 0.50534 0.96128 0.0
C5644 C 0.51183 0.51761 0.96999 0.0
C5645 C 0.51626 0.53097 0.96258 0.0
C5646 C 0.51049 0.5319 0.94674 0.0
H5647 H 0.51505 0.49683 0.90009 0.0
H5648 H 0.52051 0.50708 0.91987 0.0
H5649 H 0.50522 0.49068 0.91673 0.0
H5650 H 0.48767 0.49653 0.93893 0.0
H5651 H 0.49734 0.49504 0.96668 0.0
H5652 H 0.79431 0.19193 0.10179 0.0
H5653 H 0.79821 0.20984 0.12627 0.0
H5654 H 0.7582 0.18399 0.14293 0.0
H5655 H 0.75447 0.16578 0.11871 0.0
H5656 H 0.77781 0.22785 0.13858 0.0
H5657 H 0.79298 0.18614 0.17945 0.0
H5658 H 0.79288 0.18285 0.15799 0.0
H5659 H 0.77519 0.17937 0.16692 0.0
C5660 C 0.78644 0.19002 0.11076 0.0
C5661 C 0.77418 0.17746 0.10851 0.0
C5662 C 0.78862 0.20028 0.12461 0.0
C5663 C 0.77861 0.19801 0.13636 0.0
C5664 C 0.76615 0.1857 0.134 0.0
H5665 H 0.75647 0.25478 0.2131 0.0
H5666 H 0.75951 0.24213 0.18698 0.0
C5667 C 0.76396 0.17543 0.12016 0.0
C5668 C 0.78115 0.20851 0.15117 0.0
H5669 H 0.78673 0.2092 0.19163 0.0
C5670 C 0.77997 0.2239 0.15021 0.0
C5671 C 0.78427 0.20326 0.16618 0.0
C5672 C 0.78656 0.18704 0.16774 0.0
C5673 C 0.78112 0.23411 0.16409 0.0
C5674 C 0.78319 0.22859 0.17915 0.0
C5675 C 0.78508 0.21336 0.18003 0.0
C5676 C 0.78227 0.23791 0.19419 0.0
C5677 C 0.77993 0.25062 0.16247 0.0
C5678 C 0.79395 0.23942 0.2069 0.0
C5679 C 0.79203 0.24623 0.22191 0.0
C5680 C 0.77851 0.25173 0.22426 0.0
C5681 C 0.76705 0.25069 0.21143 0.0
C5682 C 0.76885 0.24365 0.19651 0.0
H5683 H 0.78384 0.25416 0.15102 0.0
H5684 H 0.76774 0.25188 0.16242 0.0
H5685 H 0.78682 0.25851 0.17254 0.0
H5686 H 0.80433 0.23494 0.20531 0.0
H5687 H 0.80104 0.24709 0.2317 0.0
H5688 H 0.1355 0.54341 0.33546 0.0
H5689 H 0.12074 0.54207 0.35842 0.0
H5690 H 0.09351 0.49888 0.33682 0.0
H5691 H 0.10817 0.50018 0.31354 0.0
H5692 H 0.07871 0.52742 0.35063 0.0
H5693 H 0.12142 0.50627 0.39104 0.0
H5694 H 0.12892 0.52045 0.3785 0.0
H5695 H 0.11929 0.50178 0.3695 0.0
C5696 C 0.1263 0.53368 0.33552 0.0
C5697 C 0.12296 0.52188 0.32278 0.0
C5698 C 0.11799 0.53288 0.34866 0.0
C5699 C 0.10626 0.5203 0.34924 0.0
C5700 C 0.10268 0.50857 0.3365 0.0
H5701 H 0.04765 0.53006 0.426 0.0
H5702 H 0.05731 0.51682 0.40352 0.0
C5703 C 0.11106 0.50932 0.32333 0.0
C5704 C 0.09766 0.51987 0.3632 0.0
H5705 H 0.10297 0.51847 0.40345 0.0
C5706 C 0.08369 0.52505 0.36215 0.0
C5707 C 0.1044 0.51678 0.37804 0.0
C5708 C 0.1193 0.5109 0.37943 0.0
C5709 C 0.0768 0.52844 0.37596 0.0
C5710 C 0.08406 0.52628 0.391 0.0
C5711 C 0.09749 0.52006 0.39186 0.0
C5712 C 0.07909 0.53249 0.40597 0.0
C5713 C 0.06252 0.53542 0.37449 0.0
C5714 C 0.08848 0.54524 0.4151 0.0
C5715 C 0.0831 0.55274 0.42802 0.0
C5716 C 0.06825 0.54756 0.43197 0.0
C5717 C 0.05918 0.53428 0.42328 0.0
C5718 C 0.06461 0.52675 0.41039 0.0
H5719 H 0.05966 0.53833 0.36218 0.0
H5720 H 0.05265 0.52716 0.37755 0.0
H5721 H 0.06396 0.54602 0.38297 0.0
H5722 H 0.09974 0.54977 0.41182 0.0
H5723 H 0.09042 0.56276 0.43472 0.0
H5724 H 0.78787 0.81852 0.59679 0.0
H5725 H 0.78658 0.80751 0.62229 0.0
H5726 H 0.7646 0.84392 0.64066 0.0
H5727 H 0.76586 0.855 0.61532 0.0
H5728 H 0.79919 0.82043 0.65269 0.0
H5729 H 0.7358 0.80587 0.65015 0.0
H5730 H 0.74543 0.81075 0.63292 0.0
H5731 H 0.74276 0.82562 0.64778 0.0
C5732 C 0.78278 0.8242 0.60627 0.0
C5733 C 0.77685 0.83758 0.60394 0.0
C5734 C 0.782 0.81785 0.62081 0.0
C5735 C 0.77523 0.82473 0.63328 0.0
C5736 C 0.76949 0.83818 0.63107 0.0
H5737 H 0.76355 0.80785 0.73186 0.0
H5738 H 0.76448 0.81862 0.70615 0.0
C5739 C 0.77023 0.8445 0.61655 0.0
C5740 C 0.77461 0.81815 0.64881 0.0
H5741 H 0.75003 0.80441 0.67511 0.0
C5742 C 0.78844 0.81684 0.65755 0.0
C5743 C 0.76056 0.81348 0.65514 0.0
C5744 C 0.74528 0.81385 0.64595 0.0
C5745 C 0.78863 0.81129 0.6726 0.0
C5746 C 0.7746 0.80677 0.67899 0.0
C5747 C 0.76077 0.80802 0.67023 0.0
C5748 C 0.77402 0.80031 0.69454 0.0
C5749 C 0.80386 0.81057 0.68168 0.0
C5750 C 0.77888 0.78637 0.69642 0.0
C5751 C 0.77834 0.7802 0.71101 0.0
C5752 C 0.77288 0.78783 0.72405 0.0
C5753 C 0.76787 0.80174 0.72209 0.0
C5754 C 0.76837 0.80789 0.70742 0.0
H5755 H 0.81354 0.81798 0.67714 0.0
H5756 H 0.80395 0.81412 0.69466 0.0
H5757 H 0.80585 0.79857 0.68026 0.0
H5758 H 0.78302 0.78021 0.68656 0.0
H5759 H 0.78228 0.76946 0.71206 0.0
H5760 H 0.69786 0.43845 0.50627 0.0
H5761 H 0.67551 0.45074 0.50702 0.0
H5762 H 0.69693 0.48625 0.48051 0.0
H5763 H 0.71957 0.47393 0.47985 0.0
H5764 H 0.68835 0.49658 0.51015 0.0
H5765 H 0.64002 0.45612 0.47493 0.0
H5766 H 0.65155 0.44646 0.48763 0.0
H5767 H 0.65985 0.45612 0.47181 0.0
C5768 C 0.69765 0.44872 0.50035 0.0
C5769 C 0.71034 0.45537 0.4931 0.0
C5770 C 0.68484 0.4556 0.50058 0.0
C5771 C 0.68451 0.4692 0.49353 0.0
C5772 C 0.69695 0.4756 0.48575 0.0
H5773 H 0.6182 0.5237 0.52745 0.0
H5774 H 0.63635 0.51549 0.5099 0.0
C5775 C 0.7098 0.46861 0.4854 0.0
C5776 C 0.67225 0.47775 0.49679 0.0
H5777 H 0.63353 0.47181 0.49778 0.0
C5778 C 0.67631 0.49151 0.507 0.0
C5779 C 0.65664 0.47101 0.49265 0.0
C5780 C 0.65175 0.45668 0.48101 0.0
C5781 C 0.66517 0.49793 0.51447 0.0
C5782 C 0.6497 0.49042 0.51141 0.0
C5783 C 0.64549 0.47739 0.50016 0.0
C5784 C 0.63811 0.49495 0.52117 0.0
C5785 C 0.67009 0.51195 0.52656 0.0
C5786 C 0.63319 0.486 0.53319 0.0
C5787 C 0.62289 0.49064 0.54324 0.0
C5788 C 0.61735 0.50424 0.54129 0.0
C5789 C 0.62228 0.51313 0.52915 0.0
C5790 C 0.63259 0.50849 0.51913 0.0
H5791 H 0.68276 0.51577 0.52835 0.0
H5792 H 0.66481 0.52152 0.52247 0.0
H5793 H 0.66602 0.5095 0.53826 0.0
H5794 H 0.63746 0.47552 0.53488 0.0
H5795 H 0.61907 0.48348 0.55232 0.0
H5796 H 0.18913 0.09402 0.48292 0.0
H5797 H 0.16339 0.07885 0.48297 0.0
H5798 H 0.15598 0.10869 0.5236 0.0
H5799 H 0.18136 0.12427 0.52321 0.0
H5800 H 0.15089 0.06259 0.50551 0.0
H5801 H 0.11792 0.10833 0.49353 0.0
H5802 H 0.1381 0.11029 0.49128 0.0
H5803 H 0.13188 0.11384 0.51076 0.0
C5804 C 0.18194 0.0975 0.49172 0.0
C5805 C 0.18734 0.11043 0.50302 0.0
C5806 C 0.16726 0.08873 0.49181 0.0
C5807 C 0.15763 0.09275 0.50313 0.0
C5808 C 0.16305 0.10553 0.51453 0.0
H5809 H 0.07852 0.03318 0.53137 0.0
H5810 H 0.10415 0.04726 0.5287 0.0
C5811 C 0.17768 0.11432 0.51443 0.0
C5812 C 0.14205 0.08341 0.50326 0.0
H5813 H 0.10416 0.08589 0.50271 0.0
C5814 C 0.14064 0.06766 0.50477 0.0
C5815 C 0.12863 0.08993 0.502 0.0
C5816 C 0.12916 0.10649 0.49913 0.0
C5817 C 0.12627 0.05833 0.50543 0.0
C5818 C 0.11294 0.06504 0.50507 0.0
C5819 C 0.11434 0.08073 0.50319 0.0
C5820 C 0.09743 0.05607 0.50655 0.0
C5821 C 0.12557 0.04135 0.5062 0.0
C5822 C 0.08491 0.05667 0.49532 0.0
C5823 C 0.07017 0.04896 0.49708 0.0
C5824 C 0.06764 0.04031 0.51 0.0
C5825 C 0.08016 0.03954 0.52114 0.0
C5826 C 0.09486 0.04752 0.51956 0.0
H5827 H 0.1354 0.03739 0.501 0.0
H5828 H 0.12619 0.03902 0.51891 0.0
H5829 H 0.11475 0.03451 0.49972 0.0
H5830 H 0.08653 0.06321 0.48521 0.0
H5831 H 0.06073 0.04976 0.48831 0.0
H5832 H 0.1686 0.95424 0.7982 0.0
H5833 H 0.18209 0.93255 0.79775 0.0
H5834 H 0.19952 0.94449 0.75369 0.0
H5835 H 0.18666 0.96657 0.75442 0.0
H5836 H 0.17809 0.90791 0.77574 0.0
H5837 H 0.23815 0.93872 0.77943 0.0
H5838 H 0.22253 0.94842 0.78361 0.0
H5839 H 0.22623 0.94387 0.76326 0.0
C5840 C 0.17555 0.95245 0.78858 0.0
C5841 C 0.17658 0.96223 0.77638 0.0
C5842 C 0.18318 0.93997 0.78829 0.0
C5843 C 0.19206 0.93703 0.77585 0.0
C5844 C 0.19307 0.94673 0.76363 0.0
H5845 H 0.22423 0.85977 0.73421 0.0
H5846 H 0.21595 0.8841 0.74147 0.0
C5847 C 0.1855 0.95923 0.76394 0.0
C5848 C 0.19952 0.92332 0.77509 0.0
H5849 H 0.23362 0.91169 0.77032 0.0
C5850 C 0.19027 0.90877 0.77482 0.0
C5851 C 0.21546 0.92442 0.77399 0.0
C5852 C 0.22619 0.93972 0.77526 0.0
C5853 C 0.1964 0.89531 0.77276 0.0
C5854 C 0.21214 0.89643 0.77092 0.0
C5855 C 0.22152 0.91092 0.77169 0.0
C5856 C 0.21867 0.88255 0.76695 0.0
C5857 C 0.18596 0.8799 0.77201 0.0
C5858 C 0.22323 0.87384 0.77895 0.0
C5859 C 0.22808 0.85998 0.77483 0.0
C5860 C 0.2282 0.85458 0.75866 0.0
C5861 C 0.22407 0.8636 0.74674 0.0
C5862 C 0.21941 0.8775 0.75087 0.0
H5863 H 0.17391 0.88097 0.77348 0.0
H5864 H 0.18618 0.87311 0.76033 0.0
H5865 H 0.19018 0.87339 0.78156 0.0
H5866 H 0.22267 0.87759 0.79143 0.0
H5867 H 0.23116 0.85319 0.78421 0.0
H5868 H 0.35754 0.98562 0.03265 0.0
H5869 H 0.38499 0.99699 0.03674 0.0
H5870 H 0.39223 0.96896 0.99456 0.0
H5871 H 0.36495 0.95791 0.99027 0.0
H5872 H 0.40745 0.97985 0.04219 0.0
H5873 H 0.41626 0.0105 0.98864 0.0
H5874 H 0.39744 0.00443 0.99473 0.0
H5875 H 0.40644 0.99106 0.98335 0.0
C5876 C 0.36502 0.98224 0.0241 0.0
C5877 C 0.35931 0.97104 0.01113 0.0
C5878 C 0.38058 0.98867 0.02644 0.0
C5879 C 0.39046 0.98387 0.01585 0.0
C5880 C 0.38465 0.97305 0.0026 0.0
H5881 H 0.48236 0.98717 0.00344 0.0
H5882 H 0.45669 0.97695 0.01035 0.0
C5883 C 0.36912 0.96676 0.00017 0.0
C5884 C 0.40705 0.98896 0.01935 0.0
H5885 H 0.43862 0.00358 0.00216 0.0
C5886 C 0.41432 0.9853 0.03361 0.0
C5887 C 0.41581 0.99602 0.00806 0.0
C5888 C 0.40855 1.00086 0.99292 0.0
C5889 C 0.43033 0.98796 0.03654 0.0
C5890 C 0.43897 0.99426 0.02485 0.0
C5891 C 0.43173 0.99845 0.01091 0.0
C5892 C 0.45566 0.99699 0.02655 0.0
C5893 C 0.43801 0.98369 0.05171 0.0
C5894 C 0.46359 0.01119 0.03411 0.0
C5895 C 0.47806 0.01704 0.03005 0.0
C5896 C 0.48452 0.00858 0.01856 0.0
C5897 C 0.47735 0.9937 0.01235 0.0
C5898 C 0.46288 0.98785 0.01642 0.0
H5899 H 0.42957 0.97851 0.05949 0.0
H5900 H 0.44559 0.97541 0.0487 0.0
H5901 H 0.44538 0.99407 0.05851 0.0
H5902 H 0.45795 0.01841 0.04172 0.0
H5903 H 0.48359 0.02861 0.03481 0.0
H5904 H 0.82355 0.57738 0.80552 0.0
H5905 H 0.81101 0.59986 0.80411 0.0
H5906 H 0.84128 0.61677 0.77005 0.0
H5907 H 0.85372 0.59448 0.77136 0.0
H5908 H 0.82586 0.63456 0.80745 0.0
H5909 H 0.79498 0.60946 0.74813 0.0
H5910 H 0.80258 0.59796 0.76237 0.0
H5911 H 0.8151 0.6087 0.75021 0.0
C5912 C 0.82762 0.58607 0.79797 0.0
C5913 C 0.83939 0.58425 0.78838 0.0
C5914 C 0.82049 0.5988 0.79717 0.0
C5915 C 0.82519 0.60972 0.78685 0.0
C5916 C 0.83746 0.60828 0.77794 0.0
H5917 H 0.82608 0.69619 0.76057 0.0
H5918 H 0.82904 0.67415 0.77505 0.0
C5919 C 0.84449 0.5956 0.77865 0.0
C5920 C 0.81689 0.62226 0.78437 0.0
H5921 H 0.79789 0.63671 0.75427 0.0
C5922 C 0.81937 0.63498 0.79601 0.0
C5923 C 0.8083 0.62254 0.76953 0.0
C5924 C 0.80494 0.60888 0.75688 0.0
C5925 C 0.81449 0.64858 0.7926 0.0
C5926 C 0.80718 0.64932 0.77717 0.0
C5927 C 0.80358 0.63613 0.76608 0.0
C5928 C 0.80488 0.66391 0.77137 0.0
C5929 C 0.81768 0.66219 0.80526 0.0
C5930 C 0.79035 0.66533 0.76445 0.0
C5931 C 0.78871 0.67764 0.75584 0.0
C5932 C 0.80158 0.68877 0.75404 0.0
C5933 C 0.81602 0.68767 0.76158 0.0
C5934 C 0.81766 0.67528 0.77013 0.0
H5935 H 0.8186 0.65849 0.81747 0.0
H5936 H 0.82878 0.66953 0.80376 0.0
H5937 H 0.80855 0.66921 0.80422 0.0
H5938 H 0.78041 0.65651 0.76509 0.0
H5939 H 0.77745 0.67805 0.75001 0.0
H5940 H 0.84274 0.62555 0.03297 0.0
H5941 H 0.8642 0.61181 0.03385 0.0
H5942 H 0.85312 0.59607 0.98361 0.0
H5943 H 0.83118 0.60935 0.98263 0.0
H5944 H 0.85964 0.57531 0.01862 0.0
H5945 H 0.90271 0.61998 0.99719 0.0
H5946 H 0.88778 0.62535 0.0084 0.0
H5947 H 0.88294 0.61602 0.98839 0.0
C5948 C 0.84468 0.61904 0.0221 0.0
C5949 C 0.83506 0.6185 0.00774 0.0
C5950 C 0.85705 0.6113 0.02262 0.0
C5951 C 0.86021 0.60297 0.0088 0.0
C5952 C 0.85086 0.6025 0.99439 0.0
H5953 H 0.92694 0.54021 0.01533 0.0
H5954 H 0.90603 0.55211 0.00385 0.0
C5955 C 0.83838 0.61019 0.99385 0.0
C5956 C 0.87315 0.59452 0.00974 0.0
H5957 H 0.91159 0.59863 0.00665 0.0
C5958 C 0.87095 0.58023 0.01574 0.0
C5959 C 0.88785 0.60109 0.00605 0.0
C5960 C 0.89062 0.61646 -0.00037 0.0
C5961 C 0.88326 0.57253 0.01868 0.0
C5962 C 0.89811 0.57928 0.01543 0.0
C5963 C 0.90018 0.5934 0.00898 0.0
C5964 C 0.91184 0.57279 0.02053 0.0
C5965 C 0.88045 0.55762 0.02606 0.0
C5966 C 0.92236 0.58073 0.03322 0.0
C5967 C 0.9342 0.57399 0.03974 0.0
C5968 C 0.93586 0.5592 0.03362 0.0
C5969 C 0.92592 0.55162 0.02024 0.0
C5970 C 0.91394 0.55835 0.01377 0.0
H5971 H 0.86878 0.55509 0.02996 0.0
H5972 H 0.88168 0.54806 0.01714 0.0
H5973 H 0.88905 0.55794 0.03655 0.0
H5974 H 0.92101 0.59189 0.03857 0.0
H5975 H 0.9418 0.58014 0.04995 0.0
H5976 H 0.20162 0.10586 0.80004 0.0
H5977 H 0.21712 0.13147 0.80005 0.0
H5978 H 0.18551 0.14072 0.76188 0.0
H5979 H 0.16968 0.11544 0.76221 0.0
H5980 H 0.23215 0.14425 0.7768 0.0
H5981 H 0.18857 0.17829 0.7936 0.0
H5982 H 0.18631 0.15797 0.79519 0.0
H5983 H 0.18173 0.16477 0.77622 0.0
C5984 C 0.19784 0.11343 0.79181 0.0
C5985 C 0.18435 0.10857 0.78116 0.0
C5986 C 0.20678 0.12803 0.79175 0.0
C5987 C 0.20238 0.13814 0.78114 0.0
C5988 C 0.189 0.13328 0.77041 0.0
H5989 H 0.26169 0.21694 0.75169 0.0
H5990 H 0.24737 0.1914 0.75441 0.0
C5991 C 0.18005 0.11871 0.77047 0.0
C5992 C 0.21196 0.15361 0.78096 0.0
H5993 H 0.2104 0.19179 0.78313 0.0
C5994 C 0.22744 0.15467 0.77831 0.0
C5995 C 0.20593 0.16725 0.78324 0.0
C5996 C 0.18977 0.16706 0.78739 0.0
C5997 C 0.23693 0.16892 0.7775 0.0
C5998 C 0.23065 0.18251 0.77886 0.0
C5999 C 0.21525 0.18144 0.78188 0.0
C6000 C 0.23976 0.19796 0.77729 0.0
C6001 C 0.25365 0.16921 0.77553 0.0
C6002 C 0.2399 0.2104 0.7889 0.0
C6003 C 0.24769 0.2251 0.78709 0.0
C6004 C 0.25574 0.22765 0.77376 0.0
C6005 C 0.25583 0.21523 0.76224 0.0
C6006 C 0.24771 0.20058 0.76386 0.0
H6007 H 0.25764 0.15913 0.78017 0.0
H6008 H 0.25518 0.16868 0.76261 0.0
H6009 H 0.26104 0.17982 0.78184 0.0
H6010 H 0.23385 0.20876 0.79935 0.0
H6011 H 0.24741 0.23449 0.79613 0.0
H6012 H 0.33985 0.93284 0.25059 0.0
H6013 H 0.32791 0.90599 0.25027 0.0
H6014 H 0.29339 0.9194 0.27837 0.0
H6015 H 0.30494 0.94643 0.2783 0.0
H6016 H 0.32566 0.8944 0.28133 0.0
H6017 H 0.26969 0.88518 0.24294 0.0
H6018 H 0.28537 0.90055 0.24092 0.0
H6019 H 0.27423 0.9019 0.25747 0.0
C6020 C 0.32937 0.93014 0.25616 0.0
C6021 C 0.32331 0.94167 0.26451 0.0
C6022 C 0.32266 0.91482 0.25606 0.0
C6023 C 0.30984 0.9109 0.26426 0.0
C6024 C 0.3032 0.92235 0.27183 0.0
H6025 H 0.26348 0.82146 0.28281 0.0
H6026 H 0.27113 0.8491 0.28241 0.0
C6027 C 0.30987 0.93771 0.27188 0.0
C6028 C 0.30467 0.89484 0.26658 0.0
H6029 H 0.27532 0.86447 0.25648 0.0
C6030 C 0.31466 0.8878 0.27593 0.0
C6031 C 0.29023 0.88656 0.2597 0.0
C6032 C 0.27924 0.89384 0.2496 0.0
C6033 C 0.31062 0.87242 0.27843 0.0
C6034 C 0.2964 0.86394 0.27104 0.0
C6035 C 0.28624 0.87111 0.26204 0.0
C6036 C 0.29212 0.84743 0.27188 0.0
C6037 C 0.32156 0.86545 0.28901 0.0
C6038 C 0.30137 0.8375 0.26592 0.0
C6039 C 0.29721 0.8218 0.26643 0.0
C6040 C 0.28358 0.81585 0.2726 0.0
C6041 C 0.27414 0.82578 0.27819 0.0
C6042 C 0.27845 0.84153 0.27793 0.0
H6043 H 0.32925 0.87437 0.2976 0.0
H6044 H 0.31529 0.85679 0.29586 0.0
H6045 H 0.3289 0.8597 0.28143 0.0
H6046 H 0.31174 0.84189 0.26077 0.0
H6047 H 0.30461 0.81435 0.26188 0.0
H6048 H 0.55993 0.35963 0.55398 0.0
H6049 H 0.55809 0.38471 0.54501 0.0
H6050 H 0.51977 0.38726 0.5721 0.0
H6051 H 0.52196 0.36267 0.58171 0.0
H6052 H 0.53666 0.3958 0.5276 0.0
H6053 H 0.54529 0.42826 0.58781 0.0
H6054 H 0.54839 0.40878 0.58462 0.0
H6055 H 0.52929 0.41262 0.58585 0.0
C6056 C 0.55123 0.36557 0.55828 0.0
C6057 C 0.54119 0.35885 0.56878 0.0
C6058 C 0.5501 0.37997 0.55298 0.0
C6059 C 0.53898 0.3883 0.55804 0.0
C6060 C 0.52875 0.38148 0.56823 0.0
H6061 H 0.50626 0.47165 0.53471 0.0
H6062 H 0.5098 0.44669 0.54275 0.0
C6063 C 0.52989 0.36713 0.57357 0.0
C6064 C 0.53795 0.40393 0.55262 0.0
H6065 H 0.53617 0.44112 0.56632 0.0
C6066 C 0.53671 0.4057 0.53614 0.0
C6067 C 0.53807 0.41712 0.56358 0.0
C6068 C 0.54049 0.41667 0.58144 0.0
C6069 C 0.53516 0.41991 0.53043 0.0
C6070 C 0.53489 0.43291 0.54139 0.0
C6071 C 0.53628 0.43123 0.55783 0.0
C6072 C 0.53281 0.44823 0.53603 0.0
C6073 C 0.53342 0.4209 0.51264 0.0
C6074 C 0.54457 0.45772 0.52958 0.0
C6075 C 0.54262 0.47222 0.52503 0.0
C6076 C 0.52878 0.47758 0.52664 0.0
C6077 C 0.51704 0.46799 0.53307 0.0
C6078 C 0.51906 0.45363 0.53776 0.0
H6079 H 0.53206 0.40947 0.5056 0.0
H6080 H 0.5233 0.42613 0.50924 0.0
H6081 H 0.54372 0.42843 0.50937 0.0
H6082 H 0.55536 0.45399 0.52821 0.0
H6083 H 0.55196 0.4792 0.5202 0.0
H6084 H 0.43406 0.77902 0.36206 0.0
H6085 H 0.40984 0.77946 0.34596 0.0
H6086 H 0.38943 0.73708 0.36256 0.0
H6087 H 0.41353 0.73669 0.37897 0.0
H6088 H 0.39293 0.75778 0.32113 0.0
H6089 H 0.35821 0.76485 0.37173 0.0
H6090 H 0.37893 0.76809 0.37449 0.0
H6091 H 0.36804 0.74886 0.37167 0.0
C6092 C 0.42441 0.76984 0.36247 0.0
C6093 C 0.42588 0.75787 0.37203 0.0
C6094 C 0.41053 0.77006 0.35312 0.0
C6095 C 0.3976 0.75844 0.35314 0.0
C6096 C 0.39906 0.74636 0.36248 0.0
H6097 H 0.30222 0.74732 0.30726 0.0
H6098 H 0.32584 0.74413 0.32305 0.0
C6099 C 0.41298 0.74607 0.37177 0.0
C6100 C 0.38275 0.75891 0.34323 0.0
H6101 H 0.34508 0.76168 0.34569 0.0
C6102 C 0.38248 0.75865 0.32652 0.0
C6103 C 0.36897 0.75988 0.35013 0.0
C6104 C 0.36848 0.76057 0.368 0.0
C6105 C 0.36894 0.7592 0.3166 0.0
C6106 C 0.35522 0.76061 0.32352 0.0
C6107 C 0.35547 0.76066 0.34024 0.0
C6108 C 0.34069 0.76241 0.31374 0.0
C6109 C 0.36946 0.75786 0.29871 0.0
C6110 C 0.34085 0.7739 0.30333 0.0
C6111 C 0.32739 0.77562 0.29417 0.0
C6112 C 0.31318 0.76611 0.2953 0.0
C6113 C 0.3129 0.75484 0.30599 0.0
C6114 C 0.32646 0.75301 0.31506 0.0
H6115 H 0.3786 0.75159 0.29518 0.0
H6116 H 0.35833 0.75181 0.29218 0.0
H6117 H 0.37213 0.76952 0.29486 0.0
H6118 H 0.35142 0.78173 0.30239 0.0
H6119 H 0.32812 0.78461 0.28631 0.0
H6120 H 0.01276 0.6921 0.06788 0.0
H6121 H 0.01097 0.66493 0.05857 0.0
H6122 H 0.05929 0.67293 0.05346 0.0
H6123 H 0.06118 0.70022 0.06226 0.0
H6124 H 0.01941 0.65018 0.02878 0.0
H6125 H 0.0535 0.63772 0.08292 0.0
H6126 H 0.04512 0.65477 0.08257 0.0
H6127 H 0.06213 0.65356 0.07304 0.0
C6128 C 0.02303 0.68825 0.06457 0.0
C6129 C 0.03717 0.69865 0.06601 0.0
C6130 C 0.02198 0.67257 0.05932 0.0
C6131 C 0.03502 0.6667 0.05549 0.0
C6132 C 0.04908 0.67702 0.05661 0.0
H6133 H 0.05239 0.57322 0.03472 0.0
H6134 H 0.05428 0.60078 0.04101 0.0
C6135 C 0.05014 0.69272 0.06175 0.0
C6136 C 0.03394 0.64981 0.0505 0.0
H6137 H 0.04563 0.61748 0.06223 0.0
C6138 C 0.02513 0.64301 0.0361 0.0
C6139 C 0.0415 0.64039 0.05989 0.0
C6140 C 0.05103 0.64688 0.07553 0.0
C6141 C 0.02391 0.62725 0.03073 0.0
C6142 C 0.03116 0.61766 0.04033 0.0
C6143 C 0.03998 0.62456 0.05475 0.0
C6144 C 0.02995 0.60059 0.0357 0.0
C6145 C 0.01531 0.6213 0.01447 0.0
C6146 C 0.01571 0.59082 0.03066 0.0
C6147 C 0.01477 0.57498 0.02631 0.0
C6148 C 0.028 0.56825 0.02732 0.0
C6149 C 0.04209 0.57791 0.03306 0.0
C6150 C 0.04311 0.59379 0.03696 0.0
H6151 H 0.01529 0.63063 0.00659 0.0
H6152 H 0.02039 0.61211 0.00838 0.0
H6153 H 1.00318 0.61662 0.01588 0.0
H6154 H 0.00519 0.59536 0.03022 0.0
H6155 H 0.00359 0.56798 0.02234 0.0
H6156 H 0.06249 0.25573 0.85411 0.0
H6157 H 0.08525 0.25664 0.8398 0.0
H6158 H 0.11419 0.27432 0.88371 0.0
H6159 H 0.09153 0.27302 0.89821 0.0
H6160 H 0.10758 0.2813 0.83586 0.0
H6161 H 0.13437 0.23914 0.86746 0.0
H6162 H 0.1147 0.24118 0.86885 0.0
H6163 H 0.13013 0.25451 0.8806 0.0
C6164 C 0.07368 0.25962 0.86082 0.0
C6165 C 0.07504 0.26421 0.87743 0.0
C6166 C 0.08674 0.26023 0.85256 0.0
C6167 C 0.10155 0.26529 0.86065 0.0
C6168 C 0.10296 0.27004 0.87718 0.0
H6169 H 0.19438 0.28629 0.83491 0.0
H6170 H 0.17128 0.27938 0.84834 0.0
C6171 C 0.08991 0.26948 0.88545 0.0
C6172 C 0.11545 0.26605 0.85173 0.0
H6173 H 0.14973 0.25367 0.85055 0.0
C6174 C 0.11672 0.27514 0.83899 0.0
C6175 C 0.12747 0.25806 0.85576 0.0
C6176 C 0.12659 0.24755 0.86881 0.0
C6177 C 0.12977 0.27683 0.83056 0.0
C6178 C 0.14186 0.26891 0.83464 0.0
C6179 C 0.14052 0.2597 0.84729 0.0
C6180 C 0.15629 0.27076 0.82652 0.0
C6181 C 0.13073 0.2876 0.81774 0.0
C6182 C 0.15589 0.26745 0.80982 0.0
C6183 C 0.16919 0.27127 0.80213 0.0
C6184 C 0.18322 0.27827 0.81101 0.0
C6185 C 0.18382 0.28057 0.82779 0.0
C6186 C 0.17056 0.27676 0.83546 0.0
H6187 H 0.12255 0.29564 0.81885 0.0
H6188 H 0.1425 0.29443 0.81826 0.0
H6189 H 0.12782 0.2808 0.8058 0.0
H6190 H 0.14514 0.26252 0.80262 0.0
H6191 H 0.16828 0.2697 0.78917 0.0
H6192 H 0.5122 0.70605 0.88942 0.0
H6193 H 0.50964 0.68341 0.90402 0.0
H6194 H 0.54603 0.70682 0.93972 0.0
H6195 H 0.54827 0.72971 0.92558 0.0
H6196 H 0.53002 0.66475 0.91205 0.0
H6197 H 0.51282 0.69247 0.96739 0.0
H6198 H 0.51325 0.7014 0.94907 0.0
H6199 H 0.53073 0.70203 0.96187 0.0
C6200 C 0.51954 0.70652 0.9005 0.0
C6201 C 0.53036 0.7199 0.90632 0.0
C6202 C 0.51814 0.69345 0.90878 0.0
C6203 C 0.52745 0.69339 0.92317 0.0
C6204 C 0.53846 0.7066 0.92885 0.0
H6205 H 0.53097 0.62571 0.99217 0.0
H6206 H 0.53713 0.64748 0.97646 0.0
C6207 C 0.53986 0.71968 0.9206 0.0
C6208 C 0.52565 0.67951 0.93213 0.0
H6209 H 0.51774 0.66725 0.96825 0.0
C6210 C 0.5273 0.66531 0.92433 0.0
C6211 C 0.52213 0.68014 0.9482 0.0
C6212 C 0.51948 0.69478 0.9571 0.0
C6213 C 0.52569 0.65187 0.93215 0.0
C6214 C 0.52208 0.6525 0.94818 0.0
C6215 C 0.52057 0.66671 0.95601 0.0
C6216 C 0.51935 0.63853 0.95694 0.0
C6217 C 0.52813 0.63716 0.92325 0.0
C6218 C 0.50739 0.62612 0.95121 0.0
C6219 C 0.5039 0.61369 0.96018 0.0
C6220 C 0.51233 0.61335 0.97503 0.0
C6221 C 0.52449 0.62556 0.98061 0.0
C6222 C 0.52794 0.63804 0.97169 0.0
H6223 H 0.53506 0.63941 0.91314 0.0
H6224 H 0.53398 0.63031 0.93135 0.0
H6225 H 0.51683 0.63017 0.91824 0.0
H6226 H 0.50034 0.62631 0.94009 0.0
H6227 H 0.49427 0.60457 0.95578 0.0
H6228 H 0.10518 0.7753 0.70162 0.0
H6229 H 0.13243 0.77642 0.70993 0.0
H6230 H 0.1207 0.74474 0.74441 0.0
H6231 H 0.0934 0.74338 0.73597 0.0
H6232 H 0.15077 0.78565 0.73652 0.0
H6233 H 0.15034 0.72349 0.72316 0.0
H6234 H 0.13405 0.732 0.71722 0.0
H6235 H 0.13738 0.72733 0.73741 0.0
C6236 C 0.10832 0.7686 0.71105 0.0
C6237 C 0.09687 0.75916 0.71799 0.0
C6238 C 0.12403 0.76921 0.71578 0.0
C6239 C 0.12889 0.7604 0.72761 0.0
C6240 C 0.11748 0.75129 0.73489 0.0
H6241 H 0.22065 0.75587 0.7743 0.0
H6242 H 0.19299 0.75391 0.76727 0.0
C6243 C 0.10175 0.75057 0.73006 0.0
C6244 C 0.14582 0.76095 0.73235 0.0
H6245 H 0.17332 0.73853 0.73701 0.0
C6246 C 0.15563 0.7753 0.73652 0.0
C6247 C 0.15245 0.74753 0.73243 0.0
C6248 C 0.14305 0.73174 0.72716 0.0
C6249 C 0.17159 0.77657 0.74083 0.0
C6250 C 0.17813 0.76317 0.74097 0.0
C6251 C 0.16837 0.74883 0.73697 0.0
C6252 C 0.19508 0.76387 0.74499 0.0
C6253 C 0.18138 0.79229 0.74539 0.0
C6254 C 0.20564 0.76974 0.73467 0.0
C6255 C 0.22151 0.77048 0.73846 0.0
C6256 C 0.22736 0.76566 0.75286 0.0
C6257 C 0.21671 0.75959 0.76306 0.0
C6258 C 0.20081 0.75857 0.75911 0.0
H6259 H 0.17434 0.80123 0.74777 0.0
H6260 H 0.18952 0.79232 0.7562 0.0
H6261 H 0.18822 0.79541 0.73545 0.0
H6262 H 0.20158 0.77367 0.72357 0.0
H6263 H 0.2292 0.77475 0.73002 0.0
H6264 H 0.01458 0.37304 0.39781 0.0
H6265 H 0.0134 0.39689 0.41399 0.0
H6266 H 0.05516 0.3938 0.44259 0.0
H6267 H 0.05624 0.36958 0.42682 0.0
H6268 H 0.01212 0.40225 0.44774 0.0
H6269 H 0.0639 0.43781 0.42927 0.0
H6270 H 0.05471 0.41964 0.41829 0.0
H6271 H 0.06672 0.42012 0.43671 0.0
C6272 C 0.02348 0.37722 0.40764 0.0
C6273 C 0.0355 0.3691 0.41088 0.0
C6274 C 0.02282 0.39103 0.41684 0.0
C6275 C 0.03426 0.39734 0.42945 0.0
C6276 C 0.04631 0.38938 0.43276 0.0
H6277 H 0.04941 0.48173 0.49612 0.0
H6278 H 0.05152 0.4578 0.48031 0.0
C6279 C 0.04693 0.37547 0.42363 0.0
C6280 C 0.03332 0.41205 0.43927 0.0
H6281 H 0.05145 0.44945 0.4493 0.0
C6282 C 0.02071 0.41258 0.44804 0.0
C6283 C 0.04455 0.42556 0.43984 0.0
C6284 C 0.0582 0.42589 0.43045 0.0
C6285 C 0.01911 0.42607 0.45744 0.0
C6286 C 0.03018 0.43972 0.45774 0.0
C6287 C 0.04287 0.43913 0.44906 0.0
C6288 C 0.02892 0.45459 0.46715 0.0
C6289 C 0.00579 0.42538 0.46734 0.0
C6290 C 0.01565 0.46114 0.46497 0.0
C6291 C 0.01436 0.47474 0.47425 0.0
C6292 C 0.02641 0.4823 0.48573 0.0
C6293 C 0.03984 0.47605 0.48756 0.0
C6294 C 0.04109 0.4624 0.4784 0.0
H6295 H 1.00133 0.41343 0.4697 0.0
H6296 H 0.00912 0.43263 0.479 0.0
H6297 H 0.99631 0.4296 0.46071 0.0
H6298 H 0.0062 0.45568 0.45615 0.0
H6299 H 0.00376 0.47908 0.47275 0.0
H6300 H 0.43242 0.27219 0.20375 0.0
H6301 H 0.40762 0.27391 0.21323 0.0
H6302 H 0.41054 0.23531 0.23981 0.0
H6303 H 0.4357 0.23393 0.23099 0.0
H6304 H 0.38084 0.25487 0.20876 0.0
H6305 H 0.39864 0.2636 0.27404 0.0
H6306 H 0.41237 0.26473 0.25956 0.0
H6307 H 0.40323 0.24635 0.26455 0.0
C6308 C 0.42804 0.2642 0.21187 0.0
C6309 C 0.43644 0.25298 0.21661 0.0
C6310 C 0.41364 0.26513 0.21721 0.0
C6311 C 0.40706 0.25494 0.22755 0.0
C6312 C 0.41532 0.24362 0.2322 0.0
H6313 H 0.31705 0.24227 0.26703 0.0
H6314 H 0.34233 0.23916 0.25898 0.0
C6315 C 0.42975 0.24269 0.22689 0.0
C6316 C 0.39142 0.25588 0.23292 0.0
H6317 H 0.37177 0.25882 0.26595 0.0
C6318 C 0.37896 0.25579 0.22129 0.0
C6319 C 0.38865 0.25705 0.24928 0.0
C6320 C 0.40145 0.2581 0.26259 0.0
C6321 C 0.36406 0.25665 0.22545 0.0
C6322 C 0.36131 0.25786 0.24178 0.0
C6323 C 0.3737 0.25782 0.25343 0.0
C6324 C 0.34584 0.25971 0.24693 0.0
C6325 C 0.35128 0.25598 0.21221 0.0
C6326 C 0.33922 0.27231 0.24304 0.0
C6327 C 0.32477 0.27406 0.24757 0.0
C6328 C 0.31644 0.2634 0.25637 0.0
C6329 C 0.32305 0.25076 0.26031 0.0
C6330 C 0.33759 0.249 0.25575 0.0
H6331 H 0.35406 0.25079 0.20061 0.0
H6332 H 0.34034 0.24926 0.21511 0.0
H6333 H 0.34951 0.26782 0.21066 0.0
H6334 H 0.34527 0.28091 0.23648 0.0
H6335 H 0.32005 0.28378 0.24399 0.0
H6336 H 0.60021 0.54624 0.3632 0.0
H6337 H 0.58857 0.54422 0.38818 0.0
H6338 H 0.56514 0.49827 0.37077 0.0
H6339 H 0.57636 0.50029 0.3455 0.0
H6340 H 0.55618 0.53727 0.39291 0.0
H6341 H 0.58916 0.49415 0.41457 0.0
H6342 H 0.5949 0.50559 0.39881 0.0
H6343 H 0.5792 0.4896 0.39469 0.0
C6344 C 0.59242 0.53576 0.36451 0.0
C6345 C 0.5893 0.52342 0.35223 0.0
C6346 C 0.58585 0.5346 0.37889 0.0
C6347 C 0.57614 0.52104 0.38142 0.0
C6348 C 0.57281 0.50876 0.36918 0.0
H6349 H 0.53238 0.49417 0.46581 0.0
H6350 H 0.5411 0.49465 0.43911 0.0
C6351 C 0.5793 0.50993 0.35474 0.0
C6352 C 0.56957 0.51979 0.39691 0.0
H6353 H 0.57073 0.50135 0.43064 0.0
C6354 C 0.55934 0.52942 0.40117 0.0
C6355 C 0.57365 0.50947 0.40762 0.0
C6356 C 0.58491 0.49916 0.40382 0.0
C6357 C 0.55305 0.52898 0.41584 0.0
C6358 C 0.55739 0.51889 0.42671 0.0
C6359 C 0.56744 0.5091 0.42233 0.0
C6360 C 0.55195 0.51862 0.44285 0.0
C6361 C 0.54163 0.53917 0.41945 0.0
C6362 C 0.55534 0.53186 0.45394 0.0
C6363 C 0.55028 0.53163 0.46913 0.0
C6364 C 0.54179 0.51813 0.47361 0.0
C6365 C 0.53864 0.50481 0.46261 0.0
C6366 C 0.54371 0.50504 0.44739 0.0
H6367 H 0.53625 0.54274 0.40834 0.0
H6368 H 0.53243 0.53327 0.42594 0.0
H6369 H 0.54764 0.5497 0.42712 0.0
H6370 H 0.56195 0.54239 0.45086 0.0
H6371 H 0.55275 0.54213 0.47725 0.0
H6372 H 0.26435 0.88627 0.08687 0.0
H6373 H 0.26481 0.87112 0.10973 0.0
H6374 H 0.28616 0.83857 0.08295 0.0
H6375 H 0.28587 0.85368 0.06022 0.0
H6376 H 0.25312 0.83919 0.11268 0.0
H6377 H 0.31671 0.85483 0.12326 0.0
H6378 H 0.30532 0.86471 0.11043 0.0
H6379 H 0.3096 0.84645 0.10321 0.0
C6380 C 0.26893 0.87576 0.08585 0.0
C6381 C 0.27524 0.87117 0.07195 0.0
C6382 C 0.26919 0.86717 0.09885 0.0
C6383 C 0.27572 0.85393 0.098 0.0
C6384 C 0.28132 0.84893 0.08385 0.0
H6385 H 0.28865 0.78285 0.15586 0.0
H6386 H 0.27931 0.79762 0.13515 0.0
C6387 C 0.28117 0.85755 0.07093 0.0
C6388 C 0.27754 0.84572 0.11216 0.0
H6389 H 0.3048 0.83506 0.13752 0.0
C6390 C 0.26439 0.83834 0.11822 0.0
C6391 C 0.29229 0.84489 0.1194 0.0
C6392 C 0.30679 0.85326 0.11386 0.0
C6393 C 0.26568 0.82958 0.13109 0.0
C6394 C 0.28042 0.82831 0.13784 0.0
C6395 C 0.29352 0.83605 0.1321 0.0
C6396 C 0.28278 0.81886 0.15082 0.0
C6397 C 0.25143 0.8217 0.13742 0.0
C6398 C 0.28764 0.82604 0.16635 0.0
C6399 C 0.29319 0.81777 0.17807 0.0
C6400 C 0.29399 0.8022 0.17438 0.0
C6401 C 0.2884 0.79488 0.15895 0.0
C6402 C 0.28285 0.8032 0.14721 0.0
H6403 H 0.24081 0.82462 0.13147 0.0
H6404 H 0.2507 0.80907 0.13551 0.0
H6405 H 0.2521 0.82501 0.15052 0.0
H6406 H 0.28785 0.83821 0.16917 0.0
H6407 H 0.29755 0.82378 0.18978 0.0
H6408 H 0.94903 0.52858 0.84654 0.0
H6409 H 0.96693 0.53093 0.87085 0.0
H6410 H 0.92945 0.51298 0.89687 0.0
H6411 H 0.91163 0.51003 0.87234 0.0
H6412 H 0.96821 0.54719 0.8994 0.0
H6413 H 0.95923 0.48489 0.90591 0.0
H6414 H 0.95191 0.49224 0.88813 0.0
H6415 H 0.94183 0.49244 0.90566 0.0
C6416 C 0.94471 0.5251 0.85748 0.0
C6417 C 0.92914 0.51897 0.85773 0.0
C6418 C 0.95486 0.52647 0.87129 0.0
C6419 C 0.9495 0.52186 0.88549 0.0
C6420 C 0.93382 0.51619 0.88587 0.0
H6421 H 0.99433 0.54382 0.98061 0.0
H6422 H 0.98047 0.54423 0.95449 0.0
C6423 C 0.92369 0.51455 0.87196 0.0
C6424 C 0.9604 0.52291 0.89986 0.0
H6425 H 0.97349 0.50172 0.92778 0.0
C6426 C 0.9695 0.53725 0.90556 0.0
C6427 C 0.96216 0.50984 0.90762 0.0
C6428 C 0.95337 0.49396 0.90143 0.0
C6429 C 0.98021 0.53892 0.91909 0.0
C6430 C 0.98144 0.52597 0.92727 0.0
C6431 C 0.97251 0.51161 0.92141 0.0
C6432 C 0.99125 0.52708 0.94244 0.0
C6433 C 0.99013 0.55447 0.9244 0.0
C6434 C 1.00171 0.51711 0.94431 0.0
C6435 C 0.00929 0.51648 0.95934 0.0
C6436 C 0.00663 0.52598 0.9726 0.0
C6437 C 0.99659 0.53637 0.97055 0.0
C6438 C 0.98883 0.53679 0.95561 0.0
H6439 H 0.99158 0.56143 0.91419 0.0
H6440 H 0.98451 0.56081 0.93336 0.0
H6441 H 1.00165 0.55341 0.92994 0.0
H6442 H 0.00354 0.5094 0.93425 0.0
H6443 H 0.01673 0.50816 0.96067 0.0
H6444 H 0.28908 0.19763 0.59966 0.0
H6445 H 0.28889 0.20954 0.62694 0.0
H6446 H 0.25704 0.23716 0.60948 0.0
H6447 H 0.25707 0.22519 0.58218 0.0
H6448 H 0.2966 0.23909 0.6408 0.0
H6449 H 0.23467 0.21753 0.64395 0.0
H6450 H 0.24477 0.21064 0.62804 0.0
H6451 H 0.23842 0.22873 0.62765 0.0
C6452 C 0.28213 0.20633 0.60158 0.0
C6453 C 0.27299 0.21035 0.58869 0.0
C6454 C 0.28199 0.2131 0.61722 0.0
C6455 C 0.27271 0.22404 0.62037 0.0
C6456 C 0.26396 0.22844 0.60747 0.0
H6457 H 0.25895 0.2735 0.71172 0.0
H6458 H 0.25897 0.26546 0.68313 0.0
C6459 C 0.26402 0.22161 0.59183 0.0
C6460 C 0.27218 0.23073 0.63716 0.0
H6461 H 0.24804 0.23453 0.66598 0.0
C6462 C 0.28597 0.23809 0.64627 0.0
C6463 C 0.25832 0.22947 0.64437 0.0
C6464 C 0.24322 0.22105 0.63557 0.0
C6465 C 0.28627 0.24416 0.66233 0.0
C6466 C 0.27243 0.24275 0.66954 0.0
C6467 C 0.25862 0.23568 0.66039 0.0
C6468 C 0.27224 0.24767 0.68685 0.0
C6469 C 0.30139 0.25206 0.67147 0.0
C6470 C 0.27936 0.24012 0.69843 0.0
C6471 C 0.27905 0.24444 0.71473 0.0
C6472 C 0.27177 0.25655 0.71991 0.0
C6473 C 0.26455 0.26406 0.70825 0.0
C6474 C 0.26464 0.25954 0.69187 0.0
H6475 H 0.31012 0.25565 0.66331 0.0
H6476 H 0.29994 0.26233 0.67931 0.0
H6477 H 0.30583 0.24402 0.6792 0.0
H6478 H 0.28505 0.23075 0.69486 0.0
H6479 H 0.28451 0.2382 0.72327 0.0
H6480 H 0.57015 0.50202 0.19301 0.0
H6481 H 0.55905 0.50175 0.16527 0.0
H6482 H 0.58689 0.54608 0.16284 0.0
H6483 H 0.59852 0.54616 0.19014 0.0
H6484 H 0.54265 0.52109 0.15023 0.0
H6485 H 0.59761 0.52084 0.12454 0.0
H6486 H 0.59528 0.5173 0.14495 0.0
H6487 H 0.59869 0.53665 0.13968 0.0
C6488 C 0.57404 0.51166 0.18654 0.0
C6489 C 0.58533 0.52408 0.19391 0.0
C6490 C 0.56757 0.51154 0.1707 0.0
C6491 C 0.57228 0.5238 0.16184 0.0
C6492 C 0.58324 0.53636 0.16929 0.0
H6493 H 0.52616 0.54112 0.07006 0.0
H6494 H 0.53481 0.54166 0.09857 0.0
C6495 C 0.58975 0.53646 0.18504 0.0
C6496 C 0.56602 0.52341 0.14475 0.0
H6497 H 0.57693 0.5258 0.10719 0.0
C6498 C 0.55012 0.52204 0.14078 0.0
C6499 C 0.57572 0.5244 0.13236 0.0
C6500 C 0.59275 0.52472 0.13554 0.0
C6501 C 0.54369 0.52189 0.12483 0.0
C6502 C 0.55349 0.52353 0.11253 0.0
C6503 C 0.56937 0.52472 0.11655 0.0
C6504 C 0.54765 0.52325 0.09528 0.0
C6505 C 0.52647 0.51955 0.12132 0.0
C6506 C 0.55227 0.5131 0.08376 0.0
C6507 C 0.54782 0.51322 0.06749 0.0
C6508 C 0.53839 0.52327 0.06213 0.0
C6509 C 0.53351 0.53329 0.07365 0.0
C6510 C 0.53827 0.53343 0.09004 0.0
H6511 H 0.52059 0.51408 0.13095 0.0
H6512 H 0.52301 0.53087 0.12055 0.0
H6513 H 0.5224 0.5123 0.10977 0.0
H6514 H 0.55948 0.50511 0.08736 0.0
H6515 H 0.55189 0.50543 0.05908 0.0
H6516 H 0.28542 0.84608 0.93725 0.0
H6517 H 0.28373 0.82956 0.91199 0.0
H6518 H 0.25981 0.86037 0.88751 0.0
H6519 H 0.26146 0.87699 0.91274 0.0
H6520 H 0.25126 0.81947 0.88511 0.0
H6521 H 0.30612 0.85361 0.87059 0.0
H6522 H 0.30282 0.85134 0.89109 0.0
H6523 H 0.29226 0.863 0.87992 0.0
C6524 C 0.27969 0.84922 0.92648 0.0
C6525 C 0.27365 0.86276 0.92677 0.0
C6526 C 0.27867 0.8398 0.91219 0.0
C6527 C 0.27169 0.84391 0.89813 0.0
C6528 C 0.26516 0.85712 0.89842 0.0
H6529 H 0.2566 0.80136 0.80155 0.0
H6530 H 0.25595 0.81658 0.82688 0.0
C6531 C 0.26609 0.86652 0.91274 0.0
C6532 C 0.27225 0.83493 0.88293 0.0
H6533 H 0.29445 0.83213 0.85245 0.0
C6534 C 0.26063 0.82219 0.87789 0.0
C6535 C 0.2846 0.83866 0.87382 0.0
C6536 C 0.29723 0.85238 0.87903 0.0
C6537 C 0.26109 0.81291 0.86371 0.0
C6538 C 0.27345 0.81665 0.8546 0.0
C6539 C 0.28508 0.82938 0.85967 0.0
C6540 C 0.27422 0.8077 0.83942 0.0
C6541 C 0.24848 0.79914 0.85858 0.0
C6542 C 0.28496 0.798 0.83824 0.0
C6543 C 0.28543 0.78929 0.82377 0.0
C6544 C 0.27523 0.79039 0.8104 0.0
C6545 C 0.26468 0.80037 0.81163 0.0
C6546 C 0.2642 0.80898 0.82607 0.0
H6547 H 0.24116 0.79641 0.86827 0.0
H6548 H 0.24109 0.80151 0.84812 0.0
H6549 H 0.25343 0.78893 0.85483 0.0
H6550 H 0.29282 0.79706 0.84855 0.0
H6551 H 0.2937 0.78174 0.82302 0.0
H6552 H 0.90879 0.49615 0.69723 0.0
H6553 H 0.92332 0.49681 0.674 0.0
H6554 H 0.95195 0.53939 0.69539 0.0
H6555 H 0.93772 0.53862 0.71887 0.0
H6556 H 0.92825 0.52033 0.65292 0.0
H6557 H 0.9823 0.51044 0.6856 0.0
H6558 H 0.96408 0.50687 0.69362 0.0
H6559 H 0.9744 0.52618 0.69415 0.0
C6560 C 0.91827 0.50558 0.69703 0.0
C6561 C 0.9222 0.5173 0.70985 0.0
C6562 C 0.92644 0.50601 0.68373 0.0
C6563 C 0.9387 0.51811 0.68309 0.0
C6564 C 0.94257 0.52991 0.69578 0.0
H6565 H 0.00644 0.52295 0.61519 0.0
H6566 H 0.98984 0.53209 0.63418 0.0
C6567 C 0.93439 0.5295 0.70909 0.0
C6568 C 0.94762 0.51811 0.66926 0.0
H6569 H 0.9826 0.51373 0.65837 0.0
C6570 C 0.94018 0.51902 0.65406 0.0
C6571 C 0.96315 0.51642 0.67091 0.0
C6572 C 0.97147 0.51479 0.68691 0.0
C6573 C 0.94786 0.518 0.64035 0.0
C6574 C 0.96326 0.5159 0.64197 0.0
C6575 C 0.97082 0.51549 0.65723 0.0
C6576 C 0.97143 0.51243 0.62807 0.0
C6577 C 0.93943 0.51901 0.62425 0.0
C6578 C 0.96633 0.49859 0.61811 0.0
C6579 C 0.97578 0.4934 0.60736 0.0
C6580 C 0.9904 0.50198 0.60653 0.0
C6581 C 0.99514 0.51625 0.61574 0.0
C6582 C 0.98569 0.52145 0.62648 0.0
H6583 H 0.92959 0.52503 0.62547 0.0
H6584 H 0.94723 0.52511 0.61642 0.0
H6585 H 0.93485 0.50724 0.61829 0.0
H6586 H 0.95551 0.49132 0.61942 0.0
H6587 H 0.97205 0.48231 0.60035 0.0
H6588 H 0.29623 0.21498 0.43472 0.0
H6589 H 0.29787 0.22577 0.40913 0.0
H6590 H 0.24945 0.2093 0.39619 0.0
H6591 H 0.24769 0.19801 0.42142 0.0
H6592 H 0.28058 0.20392 0.37407 0.0
H6593 H 0.2662 0.2609 0.39292 0.0
H6594 H 0.2766 0.25103 0.40677 0.0
H6595 H 0.25666 0.24384 0.40046 0.0
C6596 C 0.28592 0.21351 0.42642 0.0
C6597 C 0.27182 0.20556 0.43024 0.0
C6598 C 0.28689 0.2198 0.41184 0.0
C6599 C 0.27377 0.21835 0.40083 0.0
C6600 C 0.25968 0.2106 0.40459 0.0
H6601 H 0.25373 0.2582 0.3132 0.0
H6602 H 0.25368 0.24786 0.33911 0.0
C6603 C 0.2587 0.20425 0.41911 0.0
C6604 C 0.27481 0.22455 0.38517 0.0
H6605 H 0.27014 0.25575 0.36593 0.0
C6606 C 0.27837 0.21527 0.37223 0.0
C6607 C 0.27172 0.23925 0.38286 0.0
C6608 C 0.26758 0.24945 0.39643 0.0
C6609 C 0.27868 0.2202 0.35688 0.0
C6610 C 0.27583 0.23509 0.35452 0.0
C6611 C 0.27238 0.24439 0.36762 0.0
C6612 C 0.27587 0.24108 0.33854 0.0
C6613 C 0.28146 0.20911 0.3433 0.0
C6614 C 0.28835 0.24084 0.32946 0.0
C6615 C 0.28809 0.24624 0.31438 0.0
C6616 C 0.27566 0.25258 0.30839 0.0
C6617 C 0.26342 0.25329 0.31759 0.0
C6618 C 0.26343 0.24744 0.33242 0.0
H6619 H 0.27849 0.19701 0.34595 0.0
H6620 H 0.27465 0.21032 0.33194 0.0
H6621 H 0.29382 0.21138 0.34157 0.0
H6622 H 0.29838 0.23662 0.33409 0.0
H6623 H 0.29781 0.24591 0.30761 0.0
H6624 H 0.32599 0.56925 0.55548 0.0
H6625 H 0.34937 0.55811 0.55704 0.0
H6626 H 0.36923 0.59026 0.52606 0.0
H6627 H 0.34627 0.60163 0.52484 0.0
H6628 H 0.35948 0.5446 0.53058 0.0
H6629 H 0.40488 0.59174 0.56005 0.0
H6630 H 0.38474 0.59142 0.56183 0.0
H6631 H 0.39326 0.5985 0.54477 0.0
C6632 C 0.33553 0.57411 0.54933 0.0
C6633 C 0.3344 0.58621 0.53998 0.0
C6634 C 0.34881 0.56779 0.55025 0.0
C6635 C 0.36109 0.57365 0.54199 0.0
C6636 C 0.36004 0.58591 0.53292 0.0
H6637 H 0.42679 0.55908 0.4864 0.0
H6638 H 0.40875 0.56713 0.50412 0.0
C6639 C 0.34684 0.5922 0.53199 0.0
C6640 C 0.37419 0.5658 0.54077 0.0
H6641 H 0.4128 0.57417 0.53944 0.0
C6642 C 0.37123 0.55079 0.53304 0.0
C6643 C 0.38943 0.57395 0.54412 0.0
C6644 C 0.39325 0.58974 0.55331 0.0
C6645 C 0.38301 0.54436 0.52687 0.0
C6646 C 0.398 0.55319 0.52875 0.0
C6647 C 0.40121 0.56756 0.53792 0.0
C6648 C 0.40975 0.54881 0.51914 0.0
C6649 C 0.37911 0.52881 0.51711 0.0
C6650 C 0.41618 0.53591 0.52187 0.0
C6651 C 0.42626 0.53116 0.51164 0.0
C6652 C 0.43009 0.53934 0.49863 0.0
C6653 C 0.42382 0.55244 0.49615 0.0
C6654 C 0.41372 0.55715 0.50636 0.0
H6655 H 0.36659 0.5241 0.51561 0.0
H6656 H 0.38307 0.52957 0.50506 0.0
H6657 H 0.38512 0.52061 0.52311 0.0
H6658 H 0.41322 0.52942 0.53173 0.0
H6659 H 0.4309 0.52097 0.51376 0.0
H6660 H 0.86592 0.92259 0.50835 0.0
H6661 H 0.89129 0.93839 0.50824 0.0
H6662 H 0.8889 0.95929 0.55583 0.0
H6663 H 0.86325 0.94386 0.55597 0.0
H6664 H 0.89792 0.97777 0.52215 0.0
H6665 H 0.93157 0.93663 0.54746 0.0
H6666 H 0.91391 0.92959 0.53453 0.0
H6667 H 0.91332 0.93889 0.55415 0.0
C6668 C 0.87065 0.93066 0.51876 0.0
C6669 C 0.86242 0.93198 0.53215 0.0
C6670 C 0.88521 0.9396 0.51869 0.0
C6671 C 0.8919 0.94996 0.53202 0.0
C6672 C 0.88387 0.95131 0.54545 0.0
H6673 H 0.98747 0.99747 0.54884 0.0
H6674 H 0.96146 0.98441 0.55208 0.0
C6675 C 0.86927 0.9424 0.54553 0.0
C6676 C 0.90728 0.95943 0.53179 0.0
H6677 H 0.94548 0.95897 0.53926 0.0
C6678 C 0.90837 0.97377 0.52596 0.0
C6679 C 0.92077 0.95419 0.53695 0.0
C6680 C 0.92001 0.93899 0.54367 0.0
C6681 C 0.9227 0.98303 0.52505 0.0
C6682 C 0.93634 0.97753 0.52959 0.0
C6683 C 0.93513 0.96323 0.53569 0.0
C6684 C 0.95193 0.98622 0.52789 0.0
C6685 C 0.92297 0.99871 0.51952 0.0
C6686 C 0.95536 0.99159 0.51325 0.0
C6687 C 0.97003 0.99951 0.51161 0.0
C6688 C 0.98179 1.00165 0.52436 0.0
C6689 C 0.97855 0.996 0.53888 0.0
C6690 C 0.96372 0.9885 0.54069 0.0
H6691 H 0.91246 0.0032 0.52212 0.0
H6692 H 0.93314 0.00711 0.52534 0.0
H6693 H 0.92327 0.99786 0.50636 0.0
H6694 H 0.94676 0.98944 0.50296 0.0
H6695 H 0.97235 0.00345 0.50016 0.0
H6696 H 0.85166 0.06961 0.24242 0.0
H6697 H 0.83859 0.09167 0.24288 0.0
H6698 H 0.87632 0.11856 0.27484 0.0
H6699 H 0.88958 0.09668 0.27421 0.0
H6700 H 0.82963 0.10739 0.26992 0.0
H6701 H 0.87012 0.14662 0.2396 0.0
H6702 H 0.86993 0.12622 0.23857 0.0
H6703 H 0.87919 0.13876 0.25598 0.0
C6704 C 0.85727 0.08028 0.24939 0.0
C6705 C 0.87169 0.08137 0.25826 0.0
C6706 C 0.84975 0.09286 0.24969 0.0
C6707 C 0.85658 0.10685 0.25869 0.0
C6708 C 0.87095 0.10798 0.26757 0.0
H6709 H 0.83543 0.1917 0.2948 0.0
H6710 H 0.84708 0.17055 0.28408 0.0
C6711 C 0.87844 0.09539 0.26735 0.0
C6712 C 0.84838 0.12004 0.2595 0.0
H6713 H 0.85202 0.15794 0.25367 0.0
C6714 C 0.83438 0.11838 0.26614 0.0
C6715 C 0.85459 0.13436 0.25453 0.0
C6716 C 0.86921 0.13661 0.24663 0.0
C6717 C 0.82683 0.13086 0.26871 0.0
C6718 C 0.83329 0.14534 0.2642 0.0
C6719 C 0.84703 0.14685 0.25706 0.0
C6720 C 0.82682 0.15933 0.2684 0.0
C6721 C 0.81242 0.12864 0.27702 0.0
C6722 C 0.81179 0.16049 0.26255 0.0
C6723 C 0.80513 0.17269 0.26862 0.0
C6724 C 0.81342 0.18384 0.28062 0.0
C6725 C 0.8288 0.18323 0.28556 0.0
C6726 C 0.83545 0.17113 0.27946 0.0
H6727 H 0.81063 0.11765 0.28244 0.0
H6728 H 0.81286 0.13822 0.28658 0.0
H6729 H 0.80235 0.12853 0.26819 0.0
H6730 H 0.80501 0.15164 0.2538 0.0
H6731 H 0.79323 0.17287 0.2647 0.0
H6732 H 0.69061 0.05678 0.00039 0.0
H6733 H 0.663 0.04633 0.99645 0.0
H6734 H 0.65817 0.06777 0.04322 0.0
H6735 H 0.68553 0.07864 0.04707 0.0
H6736 H 0.64248 0.02821 0.01556 0.0
H6737 H 0.6312 0.08713 0.0106 0.0
H6738 H 0.64994 0.08227 0.00927 0.0
H6739 H 0.64309 0.08537 0.02847 0.0
C6740 C 0.68365 0.05909 0.00988 0.0
C6741 C 0.6901 0.06865 0.02393 0.0
C6742 C 0.66798 0.05309 0.00764 0.0
C6743 C 0.6587 0.05663 0.01943 0.0
C6744 C 0.66526 0.06518 0.03394 0.0
H6745 H 0.56923 0.0367 0.04271 0.0
H6746 H 0.59658 0.04462 0.04007 0.0
C6747 C 0.68088 0.07122 0.03617 0.0
C6748 C 0.642 0.05236 0.01621 0.0
H6749 H 0.6096 0.06785 0.01358 0.0
C6750 C 0.63525 0.0368 0.01484 0.0
C6751 C 0.63277 0.06371 0.01512 0.0
C6752 C 0.6396 0.08056 0.01579 0.0
C6753 C 0.61928 0.03233 0.01332 0.0
C6754 C 0.61013 0.04374 0.0131 0.0
C6755 C 0.61684 0.05923 0.01372 0.0
C6756 C 0.59371 0.03992 0.01423 0.0
C6757 C 0.61222 0.01556 0.01272 0.0
C6758 C 0.58332 0.03494 0.00048 0.0
C6759 C 0.56777 0.03045 0.00198 0.0
C6760 C 0.5627 0.03103 0.01719 0.0
C6761 C 0.57308 0.03629 0.03089 0.0
C6762 C 0.58856 0.04079 0.0294 0.0
H6763 H 0.62097 0.00806 0.01253 0.0
H6764 H 0.6059 0.01372 0.02333 0.0
H6765 H 0.6038 0.01207 0.0019 0.0
H6766 H 0.5873 0.03421 0.98873 0.0
H6767 H 0.55987 0.02605 0.99139 0.0
H6768 H 0.23518 0.4732 0.25947 0.0
H6769 H 0.24439 0.44928 0.26275 0.0
H6770 H 0.20658 0.42449 0.22939 0.0
H6771 H 0.19695 0.44819 0.22651 0.0
H6772 H 0.20708 0.4165 0.26081 0.0
H6773 H 0.26356 0.41665 0.23772 0.0
H6774 H 0.26183 0.43419 0.24922 0.0
H6775 H 0.25014 0.42819 0.23043 0.0
C6776 C 0.22907 0.4627 0.25252 0.0
C6777 C 0.21523 0.46247 0.24296 0.0
C6778 C 0.23445 0.44911 0.25423 0.0
C6779 C 0.22615 0.43522 0.24624 0.0
C6780 C 0.21315 0.43518 0.23553 0.0
H6781 H 0.2428 0.3448 0.26354 0.0
H6782 H 0.23678 0.36698 0.25085 0.0
C6783 C 0.20771 0.44874 0.23387 0.0
C6784 C 0.22907 0.42071 0.25163 0.0
H6785 H 0.25641 0.39862 0.25633 0.0
C6786 C 0.21777 0.41244 0.25962 0.0
C6787 C 0.24306 0.41563 0.25012 0.0
C6788 C 0.25532 0.42404 0.24129 0.0
C6789 C 0.22026 0.39934 0.26656 0.0
C6790 C 0.23444 0.39455 0.26553 0.0
C6791 C 0.2456 0.40252 0.25714 0.0
C6792 C 0.23785 0.38127 0.27323 0.0
C6793 C 0.20782 0.39078 0.27506 0.0
C6794 C 0.24021 0.3821 0.28997 0.0
C6795 C 0.2436 0.36948 0.29725 0.0
C6796 C 0.24474 0.356 0.28781 0.0
C6797 C 0.24206 0.35515 0.27104 0.0
C6798 C 0.23869 0.36775 0.26379 0.0
H6799 H 0.1966 0.39433 0.27226 0.0
H6800 H 0.20644 0.3782 0.27173 0.0
H6801 H 0.21109 0.39312 0.28819 0.0
H6802 H 0.23966 0.39258 0.29735 0.0
H6803 H 0.24584 0.37043 0.31018 0.0
H6804 H 0.20212 0.40891 0.04229 0.0
H6805 H 0.18003 0.42195 0.0406 0.0
H6806 H 0.2034 0.45393 0.01159 0.0
H6807 H 0.22534 0.4408 0.01298 0.0
H6808 H 0.17615 0.45132 0.04915 0.0
H6809 H 0.16385 0.43713 0.98333 0.0
H6810 H 0.17728 0.42858 0.9952 0.0
H6811 H 0.18297 0.44753 0.98939 0.0
C6812 C 0.20258 0.41879 0.03565 0.0
C6813 C 0.21539 0.42371 0.02758 0.0
C6814 C 0.18995 0.42622 0.03468 0.0
C6815 C 0.18991 0.43872 0.02567 0.0
C6816 C 0.20297 0.44405 0.01821 0.0
H6817 H 0.12251 0.49514 0.00068 0.0
H6818 H 0.14667 0.4864 0.00814 0.0
C6819 C 0.21552 0.43654 0.01904 0.0
C6820 C 0.1761 0.44594 0.02372 0.0
H6821 H 0.14986 0.45457 0.99545 0.0
C6822 C 0.17038 0.452 0.03741 0.0
C6823 C 0.16849 0.44672 0.00839 0.0
C6824 C 0.17335 0.43951 0.99325 0.0
C6825 C 0.1574 0.45903 0.03615 0.0
C6826 C 0.15001 0.46001 0.02083 0.0
C6827 C 0.15571 0.45397 0.00717 0.0
C6828 C 0.13585 0.46654 0.01857 0.0
C6829 C 0.15171 0.46549 0.05114 0.0
C6830 C 0.12185 0.45833 0.02213 0.0
C6831 C 0.10809 0.46318 0.01768 0.0
C6832 C 0.10817 0.4764 0.00981 0.0
C6833 C 0.12224 0.48501 0.00691 0.0
C6834 C 0.13598 0.48002 0.01113 0.0
H6835 H 0.16019 0.46626 0.06185 0.0
H6836 H 0.14912 0.47709 0.04976 0.0
H6837 H 0.14092 0.45795 0.05321 0.0
H6838 H 0.12149 0.44779 0.02766 0.0
H6839 H 0.09733 0.45635 0.01992 0.0
H6840 H 0.88147 0.92129 0.24818 0.0
H6841 H 0.86609 0.8957 0.24905 0.0
H6842 H 0.82665 0.91603 0.25752 0.0
H6843 H 0.84189 0.94164 0.25663 0.0
H6844 H 0.84703 0.88741 0.27797 0.0
H6845 H 0.81463 0.87996 0.21717 0.0
H6846 H 0.83348 0.89186 0.22175 0.0
H6847 H 0.81715 0.89837 0.22894 0.0
C6848 C 0.86948 0.9203 0.25003 0.0
C6849 C 0.8629 0.93351 0.25234 0.0
C6850 C 0.86075 0.90569 0.25062 0.0
C6851 C 0.84525 0.90401 0.25332 0.0
C6852 C 0.83859 0.91711 0.25539 0.0
H6853 H 0.78094 0.82643 0.27868 0.0
H6854 H 0.79538 0.85214 0.27623 0.0
C6855 C 0.84733 0.93172 0.25495 0.0
C6856 C 0.83611 0.88861 0.2544 0.0
H6857 H 0.80789 0.86067 0.23399 0.0
C6858 C 0.83846 0.88155 0.26838 0.0
C6859 C 0.82502 0.88101 0.24183 0.0
C6860 C 0.82237 0.88807 0.22649 0.0
C6861 C 0.82985 0.8671 0.27017 0.0
C6862 C 0.81859 0.85959 0.25768 0.0
C6863 C 0.8164 0.86656 0.24361 0.0
C6864 C 0.80942 0.8442 0.25881 0.0
C6865 C 0.83294 0.85981 0.28529 0.0
C6866 C 0.81238 0.83131 0.24965 0.0
C6867 C 0.80424 0.81667 0.25107 0.0
C6868 C 0.79282 0.81462 0.26156 0.0
C6869 C 0.78959 0.82762 0.27044 0.0
C6870 C 0.79788 0.84229 0.26912 0.0
H6871 H 0.84342 0.86612 0.29286 0.0
H6872 H 0.82302 0.85967 0.29236 0.0
H6873 H 0.83425 0.84772 0.28232 0.0
H6874 H 0.82121 0.83256 0.24161 0.0
H6875 H 0.80699 0.80693 0.244 0.0
H6876 H 0.69999 0.11553 0.77904 0.0
H6877 H 0.7104 0.143 0.78305 0.0
H6878 H 0.74838 0.13551 0.75695 0.0
H6879 H 0.73798 0.10785 0.75287 0.0
H6880 H 0.7397 0.15857 0.79788 0.0
H6881 H 0.72853 0.1672 0.73366 0.0
H6882 H 0.72014 0.14992 0.74162 0.0
H6883 H 0.73982 0.1528 0.73752 0.0
C6884 C 0.71067 0.11972 0.77435 0.0
C6885 C 0.7183 0.10966 0.76577 0.0
C6886 C 0.71655 0.13536 0.77661 0.0
C6887 C 0.73006 0.14112 0.77025 0.0
C6888 C 0.73783 0.13114 0.76179 0.0
H6889 H 0.78659 0.22817 0.77527 0.0
H6890 H 0.77577 0.20258 0.78201 0.0
C6891 C 0.73191 0.11545 0.75947 0.0
C6892 C 0.73572 0.1577 0.77218 0.0
H6893 H 0.7419 0.18857 0.7512 0.0
C6894 C 0.7402 0.16519 0.78772 0.0
C6895 C 0.73604 0.16614 0.75884 0.0
C6896 C 0.73076 0.15866 0.74197 0.0
C6897 C 0.74535 0.18109 0.79023 0.0
C6898 C 0.74593 0.18941 0.77687 0.0
C6899 C 0.74128 0.18196 0.76138 0.0
C6900 C 0.75222 0.20579 0.77827 0.0
C6901 C 0.75008 0.18897 0.80699 0.0
C6902 C 0.74244 0.21597 0.77444 0.0
C6903 C 0.74857 0.23043 0.7705 0.0
C6904 C 0.76445 0.2347 0.77048 0.0
C6905 C 0.77428 0.22495 0.7754 0.0
C6906 C 0.76816 0.21051 0.77939 0.0
H6907 H 0.74759 0.18102 0.8162 0.0
H6908 H 0.76257 0.19372 0.80846 0.0
H6909 H 0.74401 0.19875 0.80904 0.0
H6910 H 0.73009 0.21227 0.77325 0.0
H6911 H 0.74087 0.23773 0.7663 0.0
loop_
_geom_bond_atom_site_label_1
_geom_bond_atom_site_label_2
_geom_bond_distance
_geom_bond_site_symmetry_2
_ccdc_geom_bond_type
Li0 N17 1.990 1_455 S
Li0 O60 1.956 . S
Li0 O61 1.970 . S
Li0 O62 1.961 . S
Li1 N25 1.990 . S
Li1 O60 1.970 . S
Li1 O61 1.956 . S
Li1 O63 1.961 . S
Li2 N47 1.990 . S
Li2 O60 1.961 . S
Li2 O62 1.956 . S
Li2 O63 1.970 . S
Li3 N53 1.990 . S
Li3 O61 1.961 . S
Li3 O62 1.970 . S
Li3 O63 1.956 . S
C4 C6 1.348 . S
C4 C7 1.356 . S
C4 O60 1.325 . S
N5 C8 1.314 . S
N5 C9 1.279 . S
C6 C4 1.348 . S
C6 C8 1.353 . S
C6 H64 0.929 . S
C7 C4 1.356 . S
C7 C9 1.358 . S
C7 H65 0.930 . S
C8 N5 1.314 . S
C8 C6 1.353 . S
C8 H66 0.930 . S
C9 N5 1.279 . S
C9 C7 1.358 . S
C9 H67 0.930 . S
C10 C13 1.348 1_455 S
C10 C14 1.356 . S
C10 O61 1.325 . S
C11 N12 1.279 . S
C11 C14 1.358 1_655 S
C11 H68 0.930 . S
N12 C11 1.279 . S
N12 C15 1.314 . S
C13 C10 1.348 1_655 S
C13 C15 1.353 . S
C13 H69 0.929 . S
C14 C10 1.356 . S
C14 C11 1.358 1_455 S
C14 H70 0.930 . S
C15 N12 1.314 . S
C15 C13 1.353 . S
C15 H71 0.930 . S
C16 N17 1.314 . S
C16 C21 1.353 . S
C16 H22 0.930 . S
N17 Li0 1.990 1_655 S
N17 C16 1.314 . S
N17 C19 1.279 . S
C18 C19 1.358 . S
C18 C20 1.356 . S
C18 H72 0.930 . S
C19 N17 1.279 . S
C19 C18 1.358 . S
C19 H23 0.930 . S
C20 C18 1.356 . S
C20 C21 1.348 . S
C21 C16 1.353 . S
C21 C20 1.348 . S
C21 H73 0.929 . S
H22 C16 0.930 . S
H23 C19 0.930 . S
C24 N25 1.314 . S
C24 C26 1.353 . S
C24 H30 0.930 . S
N25 Li1 1.990 . S
N25 C24 1.314 . S
N25 C28 1.279 . S
C26 C24 1.353 . S
C26 C29 1.348 . S
C26 H74 0.929 . S
C27 C28 1.358 . S
C27 C29 1.356 . S
C27 H75 0.930 . S
C28 N25 1.279 . S
C28 C27 1.358 . S
C28 H31 0.930 . S
C29 C26 1.348 . S
C29 C27 1.356 . S
H30 C24 0.930 . S
H31 C28 0.930 . S
C32 C34 1.348 . S
C32 C35 1.356 . S
C32 O62 1.325 . S
N33 C36 1.314 . S
N33 C37 1.279 . S
C34 C32 1.348 . S
C34 C36 1.353 . S
C34 H76 0.929 . S
C35 C32 1.356 . S
C35 C37 1.358 . S
C35 H77 0.930 . S
C36 N33 1.314 . S
C36 C34 1.353 . S
C36 H78 0.930 . S
C37 N33 1.279 . S
C37 C35 1.358 . S
C37 H79 0.930 . S
C38 C39 1.348 . S
C38 C40 1.356 . S
C38 O63 1.325 . S
C39 C38 1.348 . S
C39 C41 1.353 . S
C39 H80 0.929 . S
C40 C38 1.356 . S
C40 C42 1.358 . S
C40 H81 0.930 . S
C41 C39 1.353 . S
C41 N43 1.314 . S
C41 H82 0.930 . S
C42 C40 1.358 . S
C42 N43 1.279 . S
C42 H83 0.930 . S
N43 C41 1.314 . S
N43 C42 1.279 . S
C44 C46 1.353 . S
C44 N47 1.314 . S
C44 H50 0.930 . S
C45 N47 1.279 . S
C45 C48 1.358 . S
C45 H51 0.930 . S
C46 C44 1.353 . S
C46 C49 1.348 . S
C46 H84 0.929 . S
N47 Li2 1.990 . S
N47 C44 1.314 . S
N47 C45 1.279 . S
C48 C45 1.358 . S
C48 C49 1.356 . S
C48 H85 0.930 . S
C49 C46 1.348 . S
C49 C48 1.356 . S
H50 C44 0.930 . S
H51 C45 0.930 . S
C52 N53 1.314 . S
C52 C54 1.353 . S
C52 H58 0.930 . S
N53 Li3 1.990 . S
N53 C52 1.314 . S
N53 C56 1.279 . S
C54 C52 1.353 . S
C54 C57 1.348 . S
C54 H86 0.929 . S
C55 C56 1.358 . S
C55 C57 1.356 . S
C55 H87 0.930 . S
C56 N53 1.279 . S
C56 C55 1.358 . S
C56 H59 0.930 . S
C57 C54 1.348 . S
C57 C55 1.356 . S
H58 C52 0.930 . S
H59 C56 0.930 . S
O60 Li0 1.956 . S
O60 Li1 1.970 . S
O60 Li2 1.961 . S
O60 C4 1.325 . S
O61 Li0 1.970 . S
O61 Li1 1.956 . S
O61 Li3 1.961 . S
O61 C10 1.325 . S
O62 Li0 1.961 . S
O62 Li2 1.956 . S
O62 Li3 1.970 . S
O62 C32 1.325 . S
O63 Li1 1.961 . S
O63 Li2 1.970 . S
O63 Li3 1.956 . S
O63 C38 1.325 . S
H64 C6 0.929 . S
H65 C7 0.930 . S
H66 C8 0.930 . S
H67 C9 0.930 . S
H68 C11 0.930 . S
H69 C13 0.929 . S
H70 C14 0.930 . S
H71 C15 0.930 . S
H72 C18 0.930 . S
H73 C21 0.929 . S
H74 C26 0.929 . S
H75 C27 0.930 . S
H76 C34 0.929 . S
H77 C35 0.930 . S
H78 C36 0.930 . S
H79 C37 0.930 . S
H80 C39 0.929 . S
H81 C40 0.930 . S
H82 C41 0.930 . S
H83 C42 0.930 . S
H84 C46 0.929 . S
H85 C48 0.930 . S
H86 C54 0.929 . S
H87 C55 0.930 . S
Li88 N105 1.990 . S
Li88 O148 1.956 . S
Li88 O149 1.970 . S
Li88 O150 1.961 1_455 S
Li89 N113 1.990 . S
Li89 O148 1.970 . S
Li89 O149 1.956 . S
Li89 O151 1.961 . S
Li90 N135 1.990 . S
Li90 O148 1.961 . S
Li90 O150 1.956 1_455 S
Li90 O151 1.970 . S
Li91 N141 1.990 . S
Li91 O149 1.961 1_655 S
Li91 O150 1.970 . S
Li91 O151 1.956 1_655 S
C92 C94 1.348 . S
C92 C95 1.356 . S
C92 O148 1.325 . S
N93 C96 1.314 . S
N93 C97 1.279 . S
C94 C92 1.348 . S
C94 C96 1.353 . S
C94 H152 0.929 . S
C95 C92 1.356 . S
C95 C97 1.358 . S
C95 H153 0.930 . S
C96 N93 1.314 . S
C96 C94 1.353 . S
C96 H154 0.930 . S
C97 N93 1.279 . S
C97 C95 1.358 . S
C97 H155 0.930 . S
C98 C101 1.348 . S
C98 C102 1.356 . S
C98 O149 1.325 . S
C99 N100 1.279 . S
C99 C102 1.358 . S
C99 H156 0.930 . S
N100 C99 1.279 . S
N100 C103 1.314 . S
C101 C98 1.348 . S
C101 C103 1.353 . S
C101 H157 0.929 . S
C102 C98 1.356 . S
C102 C99 1.358 . S
C102 H158 0.930 . S
C103 N100 1.314 . S
C103 C101 1.353 . S
C103 H159 0.930 . S
C104 N105 1.314 . S
C104 C109 1.360 . S
C104 H110 0.930 1_455 S
N105 Li88 1.990 . S
N105 C104 1.314 . S
N105 C107 1.279 . S
C106 C107 1.358 . S
C106 C108 1.356 . S
C106 H160 0.930 . S
C107 N105 1.279 . S
C107 C106 1.358 . S
C107 H111 0.930 . S
C108 C106 1.356 . S
C108 C109 1.388 . S
C109 C104 1.360 . S
C109 C108 1.388 . S
C109 H161 0.883 1_455 S
H110 C104 0.930 1_655 S
H111 C107 0.930 . S
C112 N113 1.314 . S
C112 C114 1.353 . S
C112 H118 0.930 . S
N113 Li89 1.990 . S
N113 C112 1.314 . S
N113 C116 1.279 . S
C114 C112 1.353 . S
C114 C117 1.348 . S
C114 H162 0.929 . S
C115 C116 1.358 . S
C115 C117 1.356 . S
C115 H163 0.930 . S
C116 N113 1.279 . S
C116 C115 1.358 . S
C116 H119 0.930 . S
C117 C114 1.348 . S
C117 C115 1.356 . S
H118 C112 0.930 . S
H119 C116 0.930 . S
C120 C122 1.348 . S
C120 C123 1.356 . S
C120 O150 1.325 . S
N121 C124 1.314 . S
N121 C125 1.279 . S
C122 C120 1.348 . S
C122 C124 1.353 . S
C122 H164 0.929 . S
C123 C120 1.356 . S
C123 C125 1.358 . S
C123 H165 0.930 . S
C124 N121 1.314 . S
C124 C122 1.353 . S
C124 H166 0.930 . S
C125 N121 1.279 . S
C125 C123 1.358 . S
C125 H167 0.930 . S
C126 C127 1.348 . S
C126 C128 1.356 . S
C126 O151 1.325 . S
C127 C126 1.348 . S
C127 C129 1.353 . S
C127 H168 0.922 1_455 S
C128 C126 1.356 . S
C128 C130 1.358 . S
C128 H169 0.930 . S
C129 C127 1.353 . S
C129 N131 1.314 . S
C129 H170 0.923 1_455 S
C130 C128 1.358 . S
C130 N131 1.279 . S
C130 H171 0.930 . S
N131 C129 1.314 . S
N131 C130 1.279 . S
C132 C134 1.353 . S
C132 N135 1.314 . S
C132 H138 0.930 . S
C133 N135 1.279 1_655 S
C133 C136 1.358 . S
C133 H139 0.930 . S
C134 C132 1.353 . S
C134 C137 1.348 . S
C134 H172 0.929 . S
N135 Li90 1.990 . S
N135 C132 1.314 . S
N135 C133 1.279 1_455 S
C136 C133 1.358 . S
C136 C137 1.356 1_655 S
C136 H173 0.930 . S
C137 C134 1.348 . S
C137 C136 1.356 1_455 S
H138 C132 0.930 . S
H139 C133 0.930 . S
C140 N141 1.314 . S
C140 C142 1.353 . S
C140 H146 0.930 . S
N141 Li91 1.990 . S
N141 C140 1.314 . S
N141 C144 1.279 . S
C142 C140 1.353 . S
C142 C145 1.348 . S
C142 H174 0.929 . S
C143 C144 1.358 . S
C143 C145 1.356 . S
C143 H175 0.930 . S
C144 N141 1.279 . S
C144 C143 1.358 . S
C144 H147 0.930 . S
C145 C142 1.348 . S
C145 C143 1.356 . S
H146 C140 0.930 . S
H147 C144 0.930 . S
O148 Li88 1.956 . S
O148 Li89 1.970 . S
O148 Li90 1.961 . S
O148 C92 1.325 . S
O149 Li88 1.970 . S
O149 Li89 1.956 . S
O149 Li91 1.961 1_455 S
O149 C98 1.325 . S
O150 Li88 1.961 1_655 S
O150 Li90 1.956 1_655 S
O150 Li91 1.970 . S
O150 C120 1.325 . S
O151 Li89 1.961 . S
O151 Li90 1.970 . S
O151 Li91 1.956 1_455 S
O151 C126 1.325 . S
H152 C94 0.929 . S
H153 C95 0.930 . S
H154 C96 0.930 . S
H155 C97 0.930 . S
H156 C99 0.930 . S
H157 C101 0.929 . S
H158 C102 0.930 . S
H159 C103 0.930 . S
H160 C106 0.930 . S
H161 C109 0.883 1_655 S
H162 C114 0.929 . S
H163 C115 0.930 . S
H164 C122 0.929 . S
H165 C123 0.930 . S
H166 C124 0.930 . S
H167 C125 0.930 . S
H168 C127 0.922 1_655 S
H169 C128 0.930 . S
H170 C129 0.923 1_655 S
H171 C130 0.930 . S
H172 C134 0.929 . S
H173 C136 0.930 . S
H174 C142 0.929 . S
H175 C143 0.930 . S
Li176 N193 1.990 . S
Li176 O236 1.956 . S
Li176 O237 1.970 . S
Li176 O238 1.961 . S
Li177 N201 1.990 . S
Li177 O236 1.970 . S
Li177 O237 1.956 . S
Li177 O239 1.961 . S
Li178 N223 1.990 . S
Li178 O236 1.961 . S
Li178 O238 1.956 . S
Li178 O239 1.970 . S
Li179 N229 1.990 . S
Li179 O237 1.961 . S
Li179 O238 1.970 . S
Li179 O239 1.956 . S
C180 C182 1.348 . S
C180 C183 1.356 . S
C180 O236 1.325 . S
N181 C184 1.314 . S
N181 C185 1.279 . S
C182 C180 1.348 . S
C182 C184 1.353 . S
C182 H240 0.929 . S
C183 C180 1.356 . S
C183 C185 1.358 . S
C183 H241 0.930 . S
C184 N181 1.314 . S
C184 C182 1.353 . S
C184 H242 0.930 . S
C185 N181 1.279 . S
C185 C183 1.358 . S
C185 H243 0.930 . S
C186 C189 1.348 . S
C186 C190 1.356 . S
C186 O237 1.325 . S
C187 N188 1.279 . S
C187 C190 1.358 . S
C187 H244 0.930 . S
N188 C187 1.279 . S
N188 C191 1.314 . S
C189 C186 1.348 . S
C189 C191 1.353 . S
C189 H245 0.929 . S
C190 C186 1.356 . S
C190 C187 1.358 . S
C190 H246 0.930 . S
C191 N188 1.314 . S
C191 C189 1.353 . S
C191 H247 0.930 . S
C192 N193 1.314 . S
C192 C197 1.353 . S
C192 H198 0.930 . S
N193 Li176 1.990 . S
N193 C192 1.314 . S
N193 C195 1.279 . S
C194 C195 1.358 . S
C194 C196 1.356 . S
C194 H248 0.930 . S
C195 N193 1.279 . S
C195 C194 1.358 . S
C195 H199 0.930 . S
C196 C194 1.356 . S
C196 C197 1.348 . S
C197 C192 1.353 . S
C197 C196 1.348 . S
C197 H249 0.929 . S
H198 C192 0.930 . S
H199 C195 0.930 . S
C200 N201 1.314 . S
C200 C202 1.353 . S
C200 H206 0.930 . S
N201 Li177 1.990 . S
N201 C200 1.314 . S
N201 C204 1.279 . S
C202 C200 1.353 . S
C202 C205 1.348 . S
C202 H250 0.929 . S
C203 C204 1.358 . S
C203 C205 1.356 . S
C203 H251 0.930 . S
C204 N201 1.279 . S
C204 C203 1.358 . S
C204 H207 0.930 . S
C205 C202 1.348 . S
C205 C203 1.356 . S
H206 C200 0.930 . S
H207 C204 0.930 . S
C208 C210 1.348 . S
C208 C211 1.356 . S
C208 O238 1.325 . S
N209 C212 1.314 . S
N209 C213 1.279 . S
C210 C208 1.348 . S
C210 C212 1.353 . S
C210 H252 0.929 . S
C211 C208 1.356 . S
C211 C213 1.358 . S
C211 H253 0.930 . S
C212 N209 1.314 . S
C212 C210 1.353 . S
C212 H254 0.930 . S
C213 N209 1.279 . S
C213 C211 1.358 . S
C213 H255 0.930 . S
C214 C215 1.348 . S
C214 C216 1.356 . S
C214 O239 1.325 . S
C215 C214 1.348 . S
C215 C217 1.353 . S
C215 H256 0.929 . S
C216 C214 1.356 . S
C216 C218 1.358 . S
C216 H257 0.930 . S
C217 C215 1.353 . S
C217 N219 1.314 . S
C217 H258 0.930 . S
C218 C216 1.358 . S
C218 N219 1.279 . S
C218 H259 0.930 . S
N219 C217 1.314 . S
N219 C218 1.279 . S
C220 C222 1.353 . S
C220 N223 1.314 . S
C220 H226 0.930 . S
C221 N223 1.279 . S
C221 C224 1.358 . S
C221 H227 0.930 . S
C222 C220 1.353 . S
C222 C225 1.348 . S
C222 H260 0.929 . S
N223 Li178 1.990 . S
N223 C220 1.314 . S
N223 C221 1.279 . S
C224 C221 1.358 . S
C224 C225 1.356 . S
C224 H261 0.930 . S
C225 C222 1.348 . S
C225 C224 1.356 . S
H226 C220 0.930 . S
H227 C221 0.930 . S
C228 N229 1.314 . S
C228 C230 1.353 . S
C228 H234 0.930 . S
N229 Li179 1.990 . S
N229 C228 1.314 . S
N229 C232 1.279 . S
C230 C228 1.353 . S
C230 C233 1.348 . S
C230 H262 0.929 . S
C231 C232 1.358 . S
C231 C233 1.356 . S
C231 H263 0.930 . S
C232 N229 1.279 . S
C232 C231 1.358 . S
C232 H235 0.930 . S
C233 C230 1.348 . S
C233 C231 1.356 . S
H234 C228 0.930 . S
H235 C232 0.930 . S
O236 Li176 1.956 . S
O236 Li177 1.970 . S
O236 Li178 1.961 . S
O236 C180 1.325 . S
O237 Li176 1.970 . S
O237 Li177 1.956 . S
O237 Li179 1.961 . S
O237 C186 1.325 . S
O238 Li176 1.961 . S
O238 Li178 1.956 . S
O238 Li179 1.970 . S
O238 C208 1.325 . S
O239 Li177 1.961 . S
O239 Li178 1.970 . S
O239 Li179 1.956 . S
O239 C214 1.325 . S
H240 C182 0.929 . S
H241 C183 0.930 . S
H242 C184 0.930 . S
H243 C185 0.930 . S
H244 C187 0.930 . S
H245 C189 0.929 . S
H246 C190 0.930 . S
H247 C191 0.930 . S
H248 C194 0.930 . S
H249 C197 0.929 . S
H250 C202 0.929 . S
H251 C203 0.930 . S
H252 C210 0.929 . S
H253 C211 0.930 . S
H254 C212 0.930 . S
H255 C213 0.930 . S
H256 C215 0.929 . S
H257 C216 0.930 . S
H258 C217 0.930 . S
H259 C218 0.930 . S
H260 C222 0.929 . S
H261 C224 0.930 . S
H262 C230 0.929 . S
H263 C231 0.930 . S
Li264 N281 1.990 . S
Li264 O324 1.956 . S
Li264 O325 1.970 . S
Li264 O326 1.961 . S
Li265 N289 1.990 . S
Li265 O324 1.970 . S
Li265 O325 1.956 . S
Li265 O327 1.961 . S
Li266 N311 1.990 . S
Li266 O324 1.961 . S
Li266 O326 1.956 . S
Li266 O327 1.970 . S
Li267 N317 1.990 . S
Li267 O325 1.961 . S
Li267 O326 1.970 . S
Li267 O327 1.956 . S
C268 C270 1.348 . S
C268 C271 1.356 . S
C268 O324 1.325 . S
N269 C272 1.314 . S
N269 C273 1.279 . S
C270 C268 1.348 . S
C270 C272 1.353 . S
C270 H328 0.929 . S
C271 C268 1.356 . S
C271 C273 1.358 . S
C271 H329 0.930 . S
C272 N269 1.314 . S
C272 C270 1.353 . S
C272 H330 0.930 . S
C273 N269 1.279 . S
C273 C271 1.358 . S
C273 H331 0.930 . S
C274 C277 1.348 . S
C274 C278 1.356 . S
C274 O325 1.325 . S
C275 N276 1.279 . S
C275 C278 1.358 . S
C275 H332 0.930 . S
N276 C275 1.279 . S
N276 C279 1.314 . S
C277 C274 1.348 . S
C277 C279 1.353 . S
C277 H333 0.929 . S
C278 C274 1.356 . S
C278 C275 1.358 . S
C278 H334 0.930 . S
C279 N276 1.314 . S
C279 C277 1.353 . S
C279 H335 0.930 . S
C280 N281 1.314 . S
C280 C285 1.353 . S
C280 H286 0.930 . S
N281 Li264 1.990 . S
N281 C280 1.314 . S
N281 C283 1.279 . S
C282 C283 1.358 . S
C282 C284 1.356 . S
C282 H336 0.930 . S
C283 N281 1.279 . S
C283 C282 1.358 . S
C283 H287 0.930 . S
C284 C282 1.356 . S
C284 C285 1.348 . S
C285 C280 1.353 . S
C285 C284 1.348 . S
C285 H337 0.929 . S
H286 C280 0.930 . S
H287 C283 0.930 . S
C288 N289 1.314 . S
C288 C290 1.353 . S
C288 H294 0.930 . S
N289 Li265 1.990 . S
N289 C288 1.314 . S
N289 C292 1.279 . S
C290 C288 1.353 . S
C290 C293 1.348 . S
C290 H338 0.929 . S
C291 C292 1.358 . S
C291 C293 1.356 . S
C291 H339 0.930 . S
C292 N289 1.279 . S
C292 C291 1.358 . S
C292 H295 0.930 . S
C293 C290 1.348 . S
C293 C291 1.356 . S
H294 C288 0.930 . S
H295 C292 0.930 . S
C296 C298 1.348 . S
C296 C299 1.356 . S
C296 O326 1.325 . S
N297 C300 1.314 . S
N297 C301 1.279 . S
C298 C296 1.348 . S
C298 C300 1.353 . S
C298 H340 0.929 . S
C299 C296 1.356 . S
C299 C301 1.358 . S
C299 H341 0.930 . S
C300 N297 1.314 . S
C300 C298 1.353 . S
C300 H342 0.930 . S
C301 N297 1.279 . S
C301 C299 1.358 . S
C301 H343 0.930 . S
C302 C303 1.348 . S
C302 C304 1.356 . S
C302 O327 1.325 . S
C303 C302 1.348 . S
C303 C305 1.353 . S
C303 H344 0.929 . S
C304 C302 1.356 . S
C304 C306 1.358 . S
C304 H345 0.930 . S
C305 C303 1.353 . S
C305 N307 1.314 . S
C305 H346 0.930 . S
C306 C304 1.358 . S
C306 N307 1.279 . S
C306 H347 0.930 . S
N307 C305 1.314 . S
N307 C306 1.279 . S
C308 C310 1.353 . S
C308 N311 1.314 . S
C308 H314 0.930 . S
C309 N311 1.279 . S
C309 C312 1.358 . S
C309 H315 0.930 . S
C310 C308 1.353 . S
C310 C313 1.348 . S
C310 H348 0.929 . S
N311 Li266 1.990 . S
N311 C308 1.314 . S
N311 C309 1.279 . S
C312 C309 1.358 . S
C312 C313 1.356 . S
C312 H349 0.930 . S
C313 C310 1.348 . S
C313 C312 1.356 . S
H314 C308 0.930 . S
H315 C309 0.930 . S
C316 N317 1.314 . S
C316 C318 1.353 . S
C316 H322 0.930 . S
N317 Li267 1.990 . S
N317 C316 1.314 . S
N317 C320 1.279 . S
C318 C316 1.353 . S
C318 C321 1.348 . S
C318 H350 0.929 . S
C319 C320 1.358 . S
C319 C321 1.356 . S
C319 H351 0.930 . S
C320 N317 1.279 . S
C320 C319 1.358 . S
C320 H323 0.930 . S
C321 C318 1.348 . S
C321 C319 1.356 . S
H322 C316 0.930 . S
H323 C320 0.930 . S
O324 Li264 1.956 . S
O324 Li265 1.970 . S
O324 Li266 1.961 . S
O324 C268 1.325 . S
O325 Li264 1.970 . S
O325 Li265 1.956 . S
O325 Li267 1.961 . S
O325 C274 1.325 . S
O326 Li264 1.961 . S
O326 Li266 1.956 . S
O326 Li267 1.970 . S
O326 C296 1.325 . S
O327 Li265 1.961 . S
O327 Li266 1.970 . S
O327 Li267 1.956 . S
O327 C302 1.325 . S
H328 C270 0.929 . S
H329 C271 0.930 . S
H330 C272 0.930 . S
H331 C273 0.930 . S
H332 C275 0.930 . S
H333 C277 0.929 . S
H334 C278 0.930 . S
H335 C279 0.930 . S
H336 C282 0.930 . S
H337 C285 0.929 . S
H338 C290 0.929 . S
H339 C291 0.930 . S
H340 C298 0.929 . S
H341 C299 0.930 . S
H342 C300 0.930 . S
H343 C301 0.930 . S
H344 C303 0.929 . S
H345 C304 0.930 . S
H346 C305 0.930 . S
H347 C306 0.930 . S
H348 C310 0.929 . S
H349 C312 0.930 . S
H350 C318 0.929 . S
H351 C319 0.930 . S
Li352 N369 1.990 . S
Li352 O412 1.956 . S
Li352 O413 1.970 . S
Li352 O414 1.961 . S
Li353 N377 1.990 . S
Li353 O412 1.970 . S
Li353 O413 1.956 . S
Li353 O415 1.961 . S
Li354 N399 1.990 . S
Li354 O412 1.961 . S
Li354 O414 1.956 . S
Li354 O415 1.970 . S
Li355 N405 1.990 . S
Li355 O413 1.961 . S
Li355 O414 1.970 . S
Li355 O415 1.956 . S
C356 C358 1.348 . S
C356 C359 1.356 . S
C356 O412 1.325 . S
N357 C360 1.314 . S
N357 C361 1.279 . S
C358 C356 1.348 . S
C358 C360 1.353 . S
C358 H416 0.929 . S
C359 C356 1.356 . S
C359 C361 1.358 . S
C359 H417 0.930 . S
C360 N357 1.314 . S
C360 C358 1.353 . S
C360 H418 0.930 . S
C361 N357 1.279 . S
C361 C359 1.358 . S
C361 H419 0.930 . S
C362 C365 1.348 . S
C362 C366 1.356 . S
C362 O413 1.325 . S
C363 N364 1.279 . S
C363 C366 1.358 . S
C363 H420 0.930 . S
N364 C363 1.279 . S
N364 C367 1.314 . S
C365 C362 1.348 . S
C365 C367 1.353 . S
C365 H421 0.929 . S
C366 C362 1.356 . S
C366 C363 1.358 . S
C366 H422 0.930 . S
C367 N364 1.314 . S
C367 C365 1.353 . S
C367 H423 0.930 . S
C368 N369 1.314 . S
C368 C373 1.353 . S
C368 H374 0.930 . S
N369 Li352 1.990 . S
N369 C368 1.314 . S
N369 C371 1.279 . S
C370 C371 1.358 . S
C370 C372 1.356 . S
C370 H424 0.930 . S
C371 N369 1.279 . S
C371 C370 1.358 . S
C371 H375 0.930 . S
C372 C370 1.356 . S
C372 C373 1.348 . S
C373 C368 1.353 . S
C373 C372 1.348 . S
C373 H425 0.929 . S
H374 C368 0.930 . S
H375 C371 0.930 . S
C376 N377 1.314 . S
C376 C378 1.353 . S
C376 H382 0.930 . S
N377 Li353 1.990 . S
N377 C376 1.314 . S
N377 C380 1.279 . S
C378 C376 1.353 . S
C378 C381 1.348 . S
C378 H426 0.929 . S
C379 C380 1.358 . S
C379 C381 1.356 . S
C379 H427 0.930 . S
C380 N377 1.279 . S
C380 C379 1.358 . S
C380 H383 0.930 . S
C381 C378 1.348 . S
C381 C379 1.356 . S
H382 C376 0.930 . S
H383 C380 0.930 . S
C384 C386 1.348 1_455 S
C384 C387 1.356 . S
C384 O414 1.325 . S
N385 C388 1.314 . S
N385 C389 1.279 . S
C386 C384 1.348 1_655 S
C386 C388 1.353 . S
C386 H428 0.929 . S
C387 C384 1.356 . S
C387 C389 1.358 1_455 S
C387 H429 0.930 . S
C388 N385 1.314 . S
C388 C386 1.353 . S
C388 H430 0.930 . S
C389 N385 1.279 . S
C389 C387 1.358 1_655 S
C389 H431 0.930 . S
C390 C391 1.348 . S
C390 C392 1.356 . S
C390 O415 1.325 . S
C391 C390 1.348 . S
C391 C393 1.353 . S
C391 H432 0.929 . S
C392 C390 1.356 . S
C392 C394 1.358 . S
C392 H433 0.930 . S
C393 C391 1.353 . S
C393 N395 1.314 . S
C393 H434 0.930 . S
C394 C392 1.358 . S
C394 N395 1.279 . S
C394 H435 0.930 . S
N395 C393 1.314 . S
N395 C394 1.279 . S
C396 C398 1.353 . S
C396 N399 1.314 . S
C396 H402 0.930 . S
C397 N399 1.279 . S
C397 C400 1.358 . S
C397 H403 0.930 . S
C398 C396 1.353 . S
C398 C401 1.348 . S
C398 H436 0.929 . S
N399 Li354 1.990 . S
N399 C396 1.314 . S
N399 C397 1.279 . S
C400 C397 1.358 . S
C400 C401 1.356 . S
C400 H437 0.930 . S
C401 C398 1.348 . S
C401 C400 1.356 . S
H402 C396 0.930 . S
H403 C397 0.930 . S
C404 N405 1.314 . S
C404 C406 1.353 1_455 S
C404 H410 0.930 . S
N405 Li355 1.990 . S
N405 C404 1.314 . S
N405 C408 1.279 . S
C406 C404 1.353 1_655 S
C406 C409 1.348 . S
C406 H438 0.929 . S
C407 C408 1.358 1_655 S
C407 C409 1.356 . S
C407 H439 0.930 . S
C408 N405 1.279 . S
C408 C407 1.358 1_455 S
C408 H411 0.930 . S
C409 C406 1.348 . S
C409 C407 1.356 . S
H410 C404 0.930 . S
H411 C408 0.930 . S
O412 Li352 1.956 . S
O412 Li353 1.970 . S
O412 Li354 1.961 . S
O412 C356 1.325 . S
O413 Li352 1.970 . S
O413 Li353 1.956 . S
O413 Li355 1.961 . S
O413 C362 1.325 . S
O414 Li352 1.961 . S
O414 Li354 1.956 . S
O414 Li355 1.970 . S
O414 C384 1.325 . S
O415 Li353 1.961 . S
O415 Li354 1.970 . S
O415 Li355 1.956 . S
O415 C390 1.325 . S
H416 C358 0.929 . S
H417 C359 0.930 . S
H418 C360 0.930 . S
H419 C361 0.930 . S
H420 C363 0.930 . S
H421 C365 0.929 . S
H422 C366 0.930 . S
H423 C367 0.930 . S
H424 C370 0.930 . S
H425 C373 0.929 . S
H426 C378 0.929 . S
H427 C379 0.930 . S
H428 C386 0.929 . S
H429 C387 0.930 . S
H430 C388 0.930 . S
H431 C389 0.930 . S
H432 C391 0.929 . S
H433 C392 0.930 . S
H434 C393 0.930 . S
H435 C394 0.930 . S
H436 C398 0.929 . S
H437 C400 0.930 . S
H438 C406 0.929 . S
H439 C407 0.930 . S
Li440 N457 1.990 . S
Li440 O500 1.956 . S
Li440 O501 1.970 . S
Li440 O502 1.961 . S
Li441 N465 1.990 . S
Li441 O500 1.970 . S
Li441 O501 1.956 . S
Li441 O503 1.961 . S
Li442 N487 1.990 . S
Li442 O500 1.961 . S
Li442 O502 1.956 . S
Li442 O503 1.970 . S
Li443 N493 1.990 . S
Li443 O501 1.961 . S
Li443 O502 1.970 . S
Li443 O503 1.956 . S
C444 C446 1.348 . S
C444 C447 1.356 . S
C444 O500 1.325 . S
N445 C448 1.314 . S
N445 C449 1.279 . S
C446 C444 1.348 . S
C446 C448 1.353 . S
C446 H504 0.929 . S
C447 C444 1.356 . S
C447 C449 1.358 . S
C447 H505 0.930 . S
C448 N445 1.314 . S
C448 C446 1.353 . S
C448 H506 0.930 . S
C449 N445 1.279 . S
C449 C447 1.358 . S
C449 H507 0.930 . S
C450 C453 1.348 . S
C450 C454 1.356 . S
C450 O501 1.325 . S
C451 N452 1.279 . S
C451 C454 1.358 . S
C451 H508 0.930 . S
N452 C451 1.279 . S
N452 C455 1.314 . S
C453 C450 1.348 . S
C453 C455 1.353 . S
C453 H509 0.929 . S
C454 C450 1.356 . S
C454 C451 1.358 . S
C454 H510 0.930 . S
C455 N452 1.314 . S
C455 C453 1.353 . S
C455 H511 0.930 . S
C456 N457 1.314 . S
C456 C461 1.353 . S
C456 H462 0.930 . S
N457 Li440 1.990 . S
N457 C456 1.314 . S
N457 C459 1.279 . S
C458 C459 1.358 . S
C458 C460 1.356 . S
C458 H512 0.930 . S
C459 N457 1.279 . S
C459 C458 1.358 . S
C459 H463 0.930 . S
C460 C458 1.356 . S
C460 C461 1.348 . S
C461 C456 1.353 . S
C461 C460 1.348 . S
C461 H513 0.929 . S
H462 C456 0.930 . S
H463 C459 0.930 . S
C464 N465 1.314 . S
C464 C466 1.353 . S
C464 H470 0.930 . S
N465 Li441 1.990 . S
N465 C464 1.314 . S
N465 C468 1.279 . S
C466 C464 1.353 . S
C466 C469 1.348 . S
C466 H514 0.929 . S
C467 C468 1.358 . S
C467 C469 1.356 . S
C467 H515 0.930 . S
C468 N465 1.279 . S
C468 C467 1.358 . S
C468 H471 0.930 . S
C469 C466 1.348 . S
C469 C467 1.356 . S
H470 C464 0.930 . S
H471 C468 0.930 . S
C472 C474 1.348 . S
C472 C475 1.356 . S
C472 O502 1.325 . S
N473 C476 1.314 . S
N473 C477 1.279 . S
C474 C472 1.348 . S
C474 C476 1.353 . S
C474 H516 0.929 . S
C475 C472 1.356 . S
C475 C477 1.358 . S
C475 H517 0.930 . S
C476 N473 1.314 . S
C476 C474 1.353 . S
C476 H518 0.930 . S
C477 N473 1.279 . S
C477 C475 1.358 . S
C477 H519 0.930 . S
C478 C479 1.348 . S
C478 C480 1.356 . S
C478 O503 1.325 . S
C479 C478 1.348 . S
C479 C481 1.353 . S
C479 H520 0.929 . S
C480 C478 1.356 . S
C480 C482 1.358 . S
C480 H521 0.930 . S
C481 C479 1.353 . S
C481 N483 1.314 . S
C481 H522 0.930 . S
C482 C480 1.358 . S
C482 N483 1.279 . S
C482 H523 0.930 . S
N483 C481 1.314 . S
N483 C482 1.279 . S
C484 C486 1.353 . S
C484 N487 1.314 . S
C484 H490 0.930 . S
C485 N487 1.279 . S
C485 C488 1.358 . S
C485 H491 0.930 . S
C486 C484 1.353 . S
C486 C489 1.348 . S
C486 H524 0.929 . S
N487 Li442 1.990 . S
N487 C484 1.314 . S
N487 C485 1.279 . S
C488 C485 1.358 . S
C488 C489 1.356 . S
C488 H525 0.930 . S
C489 C486 1.348 . S
C489 C488 1.356 . S
H490 C484 0.930 . S
H491 C485 0.930 . S
C492 N493 1.314 . S
C492 C494 1.353 . S
C492 H498 0.930 . S
N493 Li443 1.990 . S
N493 C492 1.314 . S
N493 C496 1.279 . S
C494 C492 1.353 . S
C494 C497 1.348 . S
C494 H526 0.929 . S
C495 C496 1.358 . S
C495 C497 1.356 . S
C495 H527 0.930 . S
C496 N493 1.279 . S
C496 C495 1.358 . S
C496 H499 0.930 . S
C497 C494 1.348 . S
C497 C495 1.356 . S
H498 C492 0.930 . S
H499 C496 0.930 . S
O500 Li440 1.956 . S
O500 Li441 1.970 . S
O500 Li442 1.961 . S
O500 C444 1.325 . S
O501 Li440 1.970 . S
O501 Li441 1.956 . S
O501 Li443 1.961 . S
O501 C450 1.325 . S
O502 Li440 1.961 . S
O502 Li442 1.956 . S
O502 Li443 1.970 . S
O502 C472 1.325 . S
O503 Li441 1.961 . S
O503 Li442 1.970 . S
O503 Li443 1.956 . S
O503 C478 1.325 . S
H504 C446 0.929 . S
H505 C447 0.930 . S
H506 C448 0.930 . S
H507 C449 0.930 . S
H508 C451 0.930 . S
H509 C453 0.929 . S
H510 C454 0.930 . S
H511 C455 0.930 . S
H512 C458 0.930 . S
H513 C461 0.929 . S
H514 C466 0.929 . S
H515 C467 0.930 . S
H516 C474 0.929 . S
H517 C475 0.930 . S
H518 C476 0.930 . S
H519 C477 0.930 . S
H520 C479 0.929 . S
H521 C480 0.930 . S
H522 C481 0.930 . S
H523 C482 0.930 . S
H524 C486 0.929 . S
H525 C488 0.930 . S
H526 C494 0.929 . S
H527 C495 0.930 . S
Li528 N545 1.990 . S
Li528 O588 1.956 . S
Li528 O589 1.970 . S
Li528 O590 1.961 . S
Li529 N553 1.990 . S
Li529 O588 1.970 . S
Li529 O589 1.956 . S
Li529 O591 1.961 . S
Li530 N575 1.990 . S
Li530 O588 1.961 . S
Li530 O590 1.956 . S
Li530 O591 1.970 . S
Li531 N581 1.990 . S
Li531 O589 1.961 . S
Li531 O590 1.970 . S
Li531 O591 1.956 . S
C532 C534 1.348 . S
C532 C535 1.356 . S
C532 O588 1.325 . S
N533 C536 1.314 . S
N533 C537 1.279 . S
C534 C532 1.348 . S
C534 C536 1.353 . S
C534 H592 0.929 . S
C535 C532 1.356 . S
C535 C537 1.358 . S
C535 H593 0.930 . S
C536 N533 1.314 . S
C536 C534 1.353 . S
C536 H594 0.930 . S
C537 N533 1.279 . S
C537 C535 1.358 . S
C537 H595 0.930 . S
C538 C541 1.348 . S
C538 C542 1.356 . S
C538 O589 1.325 . S
C539 N540 1.279 . S
C539 C542 1.358 . S
C539 H596 0.930 . S
N540 C539 1.279 . S
N540 C543 1.314 . S
C541 C538 1.348 . S
C541 C543 1.353 . S
C541 H597 0.929 . S
C542 C538 1.356 . S
C542 C539 1.358 . S
C542 H598 0.930 . S
C543 N540 1.314 . S
C543 C541 1.353 . S
C543 H599 0.930 . S
C544 N545 1.314 . S
C544 C549 1.353 . S
C544 H550 0.930 . S
N545 Li528 1.990 . S
N545 C544 1.314 . S
N545 C547 1.279 . S
C546 C547 1.358 . S
C546 C548 1.356 . S
C546 H600 0.930 . S
C547 N545 1.279 . S
C547 C546 1.358 . S
C547 H551 0.930 . S
C548 C546 1.356 . S
C548 C549 1.348 . S
C549 C544 1.353 . S
C549 C548 1.348 . S
C549 H601 0.929 . S
H550 C544 0.930 . S
H551 C547 0.930 . S
C552 N553 1.314 . S
C552 C554 1.353 . S
C552 H558 0.930 . S
N553 Li529 1.990 . S
N553 C552 1.314 . S
N553 C556 1.279 . S
C554 C552 1.353 . S
C554 C557 1.348 . S
C554 H602 0.929 . S
C555 C556 1.358 . S
C555 C557 1.356 . S
C555 H603 0.930 . S
C556 N553 1.279 . S
C556 C555 1.358 . S
C556 H559 0.930 . S
C557 C554 1.348 . S
C557 C555 1.356 . S
H558 C552 0.930 . S
H559 C556 0.930 . S
C560 C562 1.348 . S
C560 C563 1.356 . S
C560 O590 1.325 . S
N561 C564 1.314 . S
N561 C565 1.279 . S
C562 C560 1.348 . S
C562 C564 1.353 . S
C562 H604 0.929 . S
C563 C560 1.356 . S
C563 C565 1.358 . S
C563 H605 0.930 . S
C564 N561 1.314 . S
C564 C562 1.353 . S
C564 H606 0.930 . S
C565 N561 1.279 . S
C565 C563 1.358 . S
C565 H607 0.930 . S
C566 C567 1.348 . S
C566 C568 1.356 . S
C566 O591 1.325 . S
C567 C566 1.348 . S
C567 C569 1.353 . S
C567 H608 0.929 . S
C568 C566 1.356 . S
C568 C570 1.358 . S
C568 H609 0.930 . S
C569 C567 1.353 . S
C569 N571 1.314 . S
C569 H610 0.930 . S
C570 C568 1.358 . S
C570 N571 1.279 . S
C570 H611 0.930 . S
N571 C569 1.314 . S
N571 C570 1.279 . S
C572 C574 1.353 . S
C572 N575 1.314 . S
C572 H578 0.930 . S
C573 N575 1.279 . S
C573 C576 1.358 . S
C573 H579 0.930 . S
C574 C572 1.353 . S
C574 C577 1.348 . S
C574 H612 0.929 . S
N575 Li530 1.990 . S
N575 C572 1.314 . S
N575 C573 1.279 . S
C576 C573 1.358 . S
C576 C577 1.356 . S
C576 H613 0.930 . S
C577 C574 1.348 . S
C577 C576 1.356 . S
H578 C572 0.930 . S
H579 C573 0.930 . S
C580 N581 1.314 . S
C580 C582 1.353 . S
C580 H586 0.930 . S
N581 Li531 1.990 . S
N581 C580 1.314 . S
N581 C584 1.279 . S
C582 C580 1.353 . S
C582 C585 1.348 . S
C582 H614 0.929 . S
C583 C584 1.358 . S
C583 C585 1.356 . S
C583 H615 0.930 . S
C584 N581 1.279 . S
C584 C583 1.358 . S
C584 H587 0.930 . S
C585 C582 1.348 . S
C585 C583 1.356 . S
H586 C580 0.930 . S
H587 C584 0.930 . S
O588 Li528 1.956 . S
O588 Li529 1.970 . S
O588 Li530 1.961 . S
O588 C532 1.325 . S
O589 Li528 1.970 . S
O589 Li529 1.956 . S
O589 Li531 1.961 . S
O589 C538 1.325 . S
O590 Li528 1.961 . S
O590 Li530 1.956 . S
O590 Li531 1.970 . S
O590 C560 1.325 . S
O591 Li529 1.961 . S
O591 Li530 1.970 . S
O591 Li531 1.956 . S
O591 C566 1.325 . S
H592 C534 0.929 . S
H593 C535 0.930 . S
H594 C536 0.930 . S
H595 C537 0.930 . S
H596 C539 0.930 . S
H597 C541 0.929 . S
H598 C542 0.930 . S
H599 C543 0.930 . S
H600 C546 0.930 . S
H601 C549 0.929 . S
H602 C554 0.929 . S
H603 C555 0.930 . S
H604 C562 0.929 . S
H605 C563 0.930 . S
H606 C564 0.930 . S
H607 C565 0.930 . S
H608 C567 0.929 . S
H609 C568 0.930 . S
H610 C569 0.930 . S
H611 C570 0.930 . S
H612 C574 0.929 . S
H613 C576 0.930 . S
H614 C582 0.929 . S
H615 C583 0.930 . S
Li616 N633 1.990 . S
Li616 O676 1.956 1_455 S
Li616 O677 1.970 . S
Li616 O678 1.961 . S
Li617 N641 1.990 . S
Li617 O676 1.970 . S
Li617 O677 1.956 1_655 S
Li617 O679 1.961 . S
Li618 N663 1.993 . S
Li618 O676 1.959 . S
Li618 O678 1.958 1_655 S
Li618 O679 1.970 . S
Li619 N669 1.990 . S
Li619 O677 1.961 . S
Li619 O678 1.970 . S
Li619 O679 1.956 1_455 S
C620 C622 1.348 . S
C620 C623 1.356 . S
C620 O676 1.325 . S
N621 C624 1.314 . S
N621 C625 1.279 . S
C622 C620 1.348 . S
C622 C624 1.353 . S
C622 H680 0.929 . S
C623 C620 1.356 . S
C623 C625 1.358 . S
C623 H681 0.930 . S
C624 N621 1.314 . S
C624 C622 1.353 . S
C624 H682 0.930 . S
C625 N621 1.279 . S
C625 C623 1.358 . S
C625 H683 0.930 . S
C626 C629 1.348 1_455 S
C626 C630 1.356 . S
C626 O677 1.325 . S
C627 N628 1.279 . S
C627 C630 1.358 . S
C627 H684 0.930 . S
N628 C627 1.279 . S
N628 C631 1.314 1_455 S
C629 C626 1.348 1_655 S
C629 C631 1.353 . S
C629 H685 0.929 . S
C630 C626 1.356 . S
C630 C627 1.358 . S
C630 H686 0.930 . S
C631 N628 1.314 1_655 S
C631 C629 1.353 . S
C631 H687 0.930 . S
C632 N633 1.314 . S
C632 C637 1.353 . S
C632 H638 0.930 . S
N633 Li616 1.990 . S
N633 C632 1.314 . S
N633 C635 1.279 1_455 S
C634 C635 1.358 . S
C634 C636 1.356 1_655 S
C634 H688 0.930 . S
C635 N633 1.279 1_655 S
C635 C634 1.358 . S
C635 H639 0.930 . S
C636 C634 1.356 1_455 S
C636 C637 1.348 . S
C637 C632 1.353 . S
C637 C636 1.348 . S
C637 H689 0.929 . S
H638 C632 0.930 . S
H639 C635 0.930 . S
C640 N641 1.314 . S
C640 C642 1.353 . S
C640 H646 0.930 . S
N641 Li617 1.990 . S
N641 C640 1.314 . S
N641 C644 1.279 . S
C642 C640 1.353 . S
C642 C645 1.348 . S
C642 H690 0.929 . S
C643 C644 1.358 . S
C643 C645 1.356 . S
C643 H691 0.930 . S
C644 N641 1.279 . S
C644 C643 1.358 . S
C644 H647 0.930 . S
C645 C642 1.348 . S
C645 C643 1.356 . S
H646 C640 0.930 . S
H647 C644 0.930 . S
C648 C650 1.348 . S
C648 C651 1.356 . S
C648 O678 1.325 . S
N649 C652 1.314 . S
N649 C653 1.279 . S
C650 C648 1.348 . S
C650 C652 1.353 . S
C650 H692 0.929 . S
C651 C648 1.356 . S
C651 C653 1.358 . S
C651 H693 0.930 . S
C652 N649 1.314 . S
C652 C650 1.353 . S
C652 H694 0.930 . S
C653 N649 1.279 . S
C653 C651 1.358 . S
C653 H695 0.930 . S
C654 C655 1.363 . S
C654 C656 1.356 . S
C654 O679 1.325 . S
C655 C654 1.363 . S
C655 C657 1.350 . S
C655 H696 0.920 1_655 S
C656 C654 1.356 . S
C656 C658 1.358 . S
C656 H697 0.930 . S
C657 C655 1.350 . S
C657 N659 1.314 . S
C657 H698 0.937 . S
C658 C656 1.358 . S
C658 N659 1.279 . S
C658 H699 0.930 . S
N659 C657 1.314 . S
N659 C658 1.279 . S
C660 C662 1.353 . S
C660 N663 1.341 . S
C660 H666 0.930 . S
C661 N663 1.251 1_455 S
C661 C664 1.358 . S
C661 H667 0.930 . S
C662 C660 1.353 . S
C662 C665 1.348 . S
C662 H700 0.929 . S
N663 Li618 1.993 . S
N663 C660 1.341 . S
N663 C661 1.251 1_655 S
C664 C661 1.358 . S
C664 C665 1.356 1_455 S
C664 H701 0.930 . S
C665 C662 1.348 . S
C665 C664 1.356 1_655 S
H666 C660 0.930 . S
H667 C661 0.930 . S
C668 N669 1.314 . S
C668 C670 1.353 . S
C668 H674 0.930 . S
N669 Li619 1.990 . S
N669 C668 1.314 . S
N669 C672 1.279 . S
C670 C668 1.353 . S
C670 C673 1.348 . S
C670 H702 0.929 . S
C671 C672 1.358 . S
C671 C673 1.356 . S
C671 H703 0.930 . S
C672 N669 1.279 . S
C672 C671 1.358 . S
C672 H675 0.930 . S
C673 C670 1.348 . S
C673 C671 1.356 . S
H674 C668 0.930 . S
H675 C672 0.930 . S
O676 Li616 1.956 1_655 S
O676 Li617 1.970 . S
O676 Li618 1.959 . S
O676 C620 1.325 . S
O677 Li616 1.970 . S
O677 Li617 1.956 1_455 S
O677 Li619 1.961 . S
O677 C626 1.325 . S
O678 Li616 1.961 . S
O678 Li618 1.958 1_455 S
O678 Li619 1.970 . S
O678 C648 1.325 . S
O679 Li617 1.961 . S
O679 Li618 1.970 . S
O679 Li619 1.956 1_655 S
O679 C654 1.325 . S
H680 C622 0.929 . S
H681 C623 0.930 . S
H682 C624 0.930 . S
H683 C625 0.930 . S
H684 C627 0.930 . S
H685 C629 0.929 . S
H686 C630 0.930 . S
H687 C631 0.930 . S
H688 C634 0.930 . S
H689 C637 0.929 . S
H690 C642 0.929 . S
H691 C643 0.930 . S
H692 C650 0.929 . S
H693 C651 0.930 . S
H694 C652 0.930 . S
H695 C653 0.930 . S
H696 C655 0.920 1_455 S
H697 C656 0.930 . S
H698 C657 0.937 . S
H699 C658 0.930 . S
H700 C662 0.929 . S
H701 C664 0.930 . S
H702 C670 0.929 . S
H703 C671 0.930 . S
Li704 N721 1.990 . S
Li704 O764 1.956 1_545 S
Li704 O765 1.970 . S
Li704 O766 1.961 . S
Li705 N729 1.990 . S
Li705 O764 1.970 . S
Li705 O765 1.956 1_565 S
Li705 O767 1.961 1_565 S
Li706 N751 1.990 . S
Li706 O764 1.961 1_545 S
Li706 O766 1.956 . S
Li706 O767 1.970 . S
Li707 N757 1.990 . S
Li707 O765 1.961 . S
Li707 O766 1.970 . S
Li707 O767 1.956 . S
C708 C710 1.348 . S
C708 C711 1.356 . S
C708 O764 1.325 . S
N709 C712 1.314 . S
N709 C713 1.279 . S
C710 C708 1.348 . S
C710 C712 1.353 . S
C710 H768 0.929 . S
C711 C708 1.356 . S
C711 C713 1.358 . S
C711 H769 0.930 . S
C712 N709 1.314 . S
C712 C710 1.353 . S
C712 H770 0.930 . S
C713 N709 1.279 . S
C713 C711 1.358 . S
C713 H771 0.930 . S
C714 C717 1.348 . S
C714 C718 1.356 . S
C714 O765 1.325 . S
C715 N716 1.279 . S
C715 C718 1.358 . S
C715 H772 0.930 . S
N716 C715 1.279 . S
N716 C719 1.314 . S
C717 C714 1.348 . S
C717 C719 1.353 . S
C717 H773 0.929 . S
C718 C714 1.356 . S
C718 C715 1.358 . S
C718 H774 0.930 . S
C719 N716 1.314 . S
C719 C717 1.353 . S
C719 H775 0.947 . S
C720 N721 1.314 . S
C720 C725 1.353 . S
C720 H726 0.930 . S
N721 Li704 1.990 . S
N721 C720 1.314 . S
N721 C723 1.300 . S
C722 C723 1.356 . S
C722 C724 1.356 . S
C722 H776 0.930 1_545 S
C723 N721 1.300 . S
C723 C722 1.356 . S
C723 H727 0.910 1_545 S
C724 C722 1.356 . S
C724 C725 1.348 . S
C725 C720 1.353 . S
C725 C724 1.348 . S
C725 H777 0.929 . S
H726 C720 0.930 . S
H727 C723 0.910 1_565 S
C728 N729 1.314 . S
C728 C730 1.353 . S
C728 H734 0.930 . S
N729 Li705 1.990 . S
N729 C728 1.314 . S
N729 C732 1.279 . S
C730 C728 1.353 . S
C730 C733 1.348 . S
C730 H778 0.929 . S
C731 C732 1.358 . S
C731 C733 1.356 . S
C731 H779 0.930 . S
C732 N729 1.279 . S
C732 C731 1.358 . S
C732 H735 0.930 . S
C733 C730 1.348 . S
C733 C731 1.356 . S
H734 C728 0.930 . S
H735 C732 0.930 . S
C736 C738 1.348 . S
C736 C739 1.356 . S
C736 O766 1.325 . S
N737 C740 1.314 . S
N737 C741 1.279 . S
C738 C736 1.348 . S
C738 C740 1.353 . S
C738 H780 0.929 . S
C739 C736 1.356 . S
C739 C741 1.358 . S
C739 H781 0.930 . S
C740 N737 1.314 . S
C740 C738 1.353 . S
C740 H782 0.930 . S
C741 N737 1.279 . S
C741 C739 1.358 . S
C741 H783 0.930 . S
C742 C743 1.348 . S
C742 C744 1.356 1_545 S
C742 O767 1.325 . S
C743 C742 1.348 . S
C743 C745 1.353 . S
C743 H784 0.929 . S
C744 C742 1.356 1_565 S
C744 C746 1.358 . S
C744 H785 0.930 . S
C745 C743 1.353 . S
C745 N747 1.316 . S
C745 H786 0.930 . S
C746 C744 1.358 . S
C746 N747 1.276 1_565 S
C746 H787 0.930 . S
N747 C745 1.316 . S
N747 C746 1.276 1_545 S
C748 C750 1.353 . S
C748 N751 1.314 1_565 S
C748 H754 0.930 . S
C749 N751 1.279 . S
C749 C752 1.358 . S
C749 H755 0.930 . S
C750 C748 1.353 . S
C750 C753 1.348 1_565 S
C750 H788 0.929 . S
N751 Li706 1.990 . S
N751 C748 1.314 1_545 S
N751 C749 1.279 . S
C752 C749 1.358 . S
C752 C753 1.356 . S
C752 H789 0.930 . S
C753 C750 1.348 1_545 S
C753 C752 1.356 . S
H754 C748 0.930 . S
H755 C749 0.930 . S
C756 N757 1.314 . S
C756 C758 1.353 . S
C756 H762 0.930 . S
N757 Li707 1.990 . S
N757 C756 1.314 . S
N757 C760 1.279 . S
C758 C756 1.353 . S
C758 C761 1.348 . S
C758 H790 0.929 . S
C759 C760 1.358 . S
C759 C761 1.356 . S
C759 H791 0.930 . S
C760 N757 1.279 . S
C760 C759 1.358 . S
C760 H763 0.930 . S
C761 C758 1.348 . S
C761 C759 1.356 . S
H762 C756 0.930 . S
H763 C760 0.930 . S
O764 Li704 1.956 1_565 S
O764 Li705 1.970 . S
O764 Li706 1.961 1_565 S
O764 C708 1.325 . S
O765 Li704 1.970 . S
O765 Li705 1.956 1_545 S
O765 Li707 1.961 . S
O765 C714 1.325 . S
O766 Li704 1.961 . S
O766 Li706 1.956 . S
O766 Li707 1.970 . S
O766 C736 1.325 . S
O767 Li705 1.961 1_545 S
O767 Li706 1.970 . S
O767 Li707 1.956 . S
O767 C742 1.325 . S
H768 C710 0.929 . S
H769 C711 0.930 . S
H770 C712 0.930 . S
H771 C713 0.930 . S
H772 C715 0.930 . S
H773 C717 0.929 . S
H774 C718 0.930 . S
H775 C719 0.947 . S
H776 C722 0.930 1_565 S
H777 C725 0.929 . S
H778 C730 0.929 . S
H779 C731 0.930 . S
H780 C738 0.929 . S
H781 C739 0.930 . S
H782 C740 0.930 . S
H783 C741 0.930 . S
H784 C743 0.929 . S
H785 C744 0.930 . S
H786 C745 0.930 . S
H787 C746 0.930 . S
H788 C750 0.929 . S
H789 C752 0.930 . S
H790 C758 0.929 . S
H791 C759 0.930 . S
Li792 N809 1.990 . S
Li792 O852 1.956 . S
Li792 O853 1.970 . S
Li792 O854 1.961 . S
Li793 N817 1.990 . S
Li793 O852 1.970 . S
Li793 O853 1.956 . S
Li793 O855 1.961 . S
Li794 N839 1.990 . S
Li794 O852 1.961 . S
Li794 O854 1.956 . S
Li794 O855 1.970 . S
Li795 N845 1.990 . S
Li795 O853 1.961 . S
Li795 O854 1.970 . S
Li795 O855 1.956 . S
C796 C798 1.348 . S
C796 C799 1.356 . S
C796 O852 1.325 . S
N797 C800 1.314 . S
N797 C801 1.279 . S
C798 C796 1.348 . S
C798 C800 1.353 . S
C798 H856 0.929 . S
C799 C796 1.356 . S
C799 C801 1.358 . S
C799 H857 0.930 . S
C800 N797 1.314 . S
C800 C798 1.353 . S
C800 H858 0.930 . S
C801 N797 1.279 . S
C801 C799 1.358 . S
C801 H859 0.930 . S
C802 C805 1.348 . S
C802 C806 1.356 . S
C802 O853 1.325 . S
C803 N804 1.279 . S
C803 C806 1.358 . S
C803 H860 0.930 . S
N804 C803 1.279 . S
N804 C807 1.314 . S
C805 C802 1.348 . S
C805 C807 1.353 . S
C805 H861 0.929 . S
C806 C802 1.356 . S
C806 C803 1.358 . S
C806 H862 0.930 . S
C807 N804 1.314 . S
C807 C805 1.353 . S
C807 H863 0.930 . S
C808 N809 1.314 . S
C808 C813 1.353 . S
C808 H814 0.930 . S
N809 Li792 1.990 . S
N809 C808 1.314 . S
N809 C811 1.279 . S
C810 C811 1.358 . S
C810 C812 1.356 . S
C810 H864 0.930 . S
C811 N809 1.279 . S
C811 C810 1.358 . S
C811 H815 0.930 . S
C812 C810 1.356 . S
C812 C813 1.348 . S
C813 C808 1.353 . S
C813 C812 1.348 . S
C813 H865 0.929 . S
H814 C808 0.930 . S
H815 C811 0.930 . S
C816 N817 1.314 . S
C816 C818 1.353 . S
C816 H822 0.930 . S
N817 Li793 1.990 . S
N817 C816 1.314 . S
N817 C820 1.279 . S
C818 C816 1.353 . S
C818 C821 1.348 . S
C818 H866 0.929 . S
C819 C820 1.358 . S
C819 C821 1.356 . S
C819 H867 0.930 . S
C820 N817 1.279 . S
C820 C819 1.358 . S
C820 H823 0.930 . S
C821 C818 1.348 . S
C821 C819 1.356 . S
H822 C816 0.930 . S
H823 C820 0.930 . S
C824 C826 1.348 . S
C824 C827 1.356 . S
C824 O854 1.325 . S
N825 C828 1.314 . S
N825 C829 1.279 . S
C826 C824 1.348 . S
C826 C828 1.353 . S
C826 H868 0.929 . S
C827 C824 1.356 . S
C827 C829 1.358 . S
C827 H869 0.930 . S
C828 N825 1.314 . S
C828 C826 1.353 . S
C828 H870 0.930 . S
C829 N825 1.279 . S
C829 C827 1.358 . S
C829 H871 0.930 . S
C830 C831 1.348 . S
C830 C832 1.356 . S
C830 O855 1.325 . S
C831 C830 1.348 . S
C831 C833 1.353 . S
C831 H872 0.929 . S
C832 C830 1.356 . S
C832 C834 1.358 . S
C832 H873 0.930 . S
C833 C831 1.353 . S
C833 N835 1.314 . S
C833 H874 0.930 . S
C834 C832 1.358 . S
C834 N835 1.279 . S
C834 H875 0.930 . S
N835 C833 1.314 . S
N835 C834 1.279 . S
C836 C838 1.353 . S
C836 N839 1.314 . S
C836 H842 0.930 . S
C837 N839 1.279 . S
C837 C840 1.358 . S
C837 H843 0.930 . S
C838 C836 1.353 . S
C838 C841 1.348 . S
C838 H876 0.929 . S
N839 Li794 1.990 . S
N839 C836 1.314 . S
N839 C837 1.279 . S
C840 C837 1.358 . S
C840 C841 1.356 . S
C840 H877 0.930 . S
C841 C838 1.348 . S
C841 C840 1.356 . S
H842 C836 0.930 . S
H843 C837 0.930 . S
C844 N845 1.314 . S
C844 C846 1.353 . S
C844 H850 0.930 . S
N845 Li795 1.990 . S
N845 C844 1.314 . S
N845 C848 1.279 . S
C846 C844 1.353 . S
C846 C849 1.348 . S
C846 H878 0.929 . S
C847 C848 1.358 . S
C847 C849 1.356 . S
C847 H879 0.930 . S
C848 N845 1.279 . S
C848 C847 1.358 . S
C848 H851 0.930 . S
C849 C846 1.348 . S
C849 C847 1.356 . S
H850 C844 0.930 . S
H851 C848 0.930 . S
O852 Li792 1.956 . S
O852 Li793 1.970 . S
O852 Li794 1.961 . S
O852 C796 1.325 . S
O853 Li792 1.970 . S
O853 Li793 1.956 . S
O853 Li795 1.961 . S
O853 C802 1.325 . S
O854 Li792 1.961 . S
O854 Li794 1.956 . S
O854 Li795 1.970 . S
O854 C824 1.325 . S
O855 Li793 1.961 . S
O855 Li794 1.970 . S
O855 Li795 1.956 . S
O855 C830 1.325 . S
H856 C798 0.929 . S
H857 C799 0.930 . S
H858 C800 0.930 . S
H859 C801 0.930 . S
H860 C803 0.930 . S
H861 C805 0.929 . S
H862 C806 0.930 . S
H863 C807 0.930 . S
H864 C810 0.930 . S
H865 C813 0.929 . S
H866 C818 0.929 . S
H867 C819 0.930 . S
H868 C826 0.929 . S
H869 C827 0.930 . S
H870 C828 0.930 . S
H871 C829 0.930 . S
H872 C831 0.929 . S
H873 C832 0.930 . S
H874 C833 0.930 . S
H875 C834 0.930 . S
H876 C838 0.929 . S
H877 C840 0.930 . S
H878 C846 0.929 . S
H879 C847 0.930 . S
Li880 N897 1.990 . S
Li880 O940 1.956 . S
Li880 O941 1.970 . S
Li880 O942 1.961 . S
Li881 N905 1.990 . S
Li881 O940 1.970 . S
Li881 O941 1.956 . S
Li881 O943 1.961 . S
Li882 N927 1.990 1_545 S
Li882 O940 1.961 . S
Li882 O942 1.956 . S
Li882 O943 1.970 . S
Li883 N933 1.990 . S
Li883 O941 1.961 . S
Li883 O942 1.970 . S
Li883 O943 1.956 . S
C884 C886 1.348 . S
C884 C887 1.356 . S
C884 O940 1.325 . S
N885 C888 1.314 . S
N885 C889 1.279 . S
C886 C884 1.348 . S
C886 C888 1.353 . S
C886 H944 0.929 . S
C887 C884 1.356 . S
C887 C889 1.358 . S
C887 H945 0.930 . S
C888 N885 1.314 . S
C888 C886 1.353 . S
C888 H946 0.930 . S
C889 N885 1.279 . S
C889 C887 1.358 . S
C889 H947 0.930 . S
C890 C893 1.348 . S
C890 C894 1.356 . S
C890 O941 1.325 . S
C891 N892 1.279 . S
C891 C894 1.358 . S
C891 H948 0.930 . S
N892 C891 1.279 . S
N892 C895 1.314 . S
C893 C890 1.348 . S
C893 C895 1.353 . S
C893 H949 0.929 . S
C894 C890 1.356 . S
C894 C891 1.358 . S
C894 H950 0.930 . S
C895 N892 1.314 . S
C895 C893 1.353 . S
C895 H951 0.930 . S
C896 N897 1.314 . S
C896 C901 1.353 . S
C896 H902 0.930 . S
N897 Li880 1.990 . S
N897 C896 1.314 . S
N897 C899 1.279 . S
C898 C899 1.358 . S
C898 C900 1.356 . S
C898 H952 0.930 . S
C899 N897 1.279 . S
C899 C898 1.358 . S
C899 H903 0.930 . S
C900 C898 1.356 . S
C900 C901 1.348 . S
C901 C896 1.353 . S
C901 C900 1.348 . S
C901 H953 0.929 . S
H902 C896 0.930 . S
H903 C899 0.930 . S
C904 N905 1.314 . S
C904 C906 1.353 . S
C904 H910 0.930 . S
N905 Li881 1.990 . S
N905 C904 1.314 . S
N905 C908 1.279 . S
C906 C904 1.353 . S
C906 C909 1.348 . S
C906 H954 1.000 . S
C907 C908 1.358 . S
C907 C909 1.356 . S
C907 H955 0.930 . S
C908 N905 1.279 . S
C908 C907 1.358 . S
C908 H911 0.930 . S
C909 C906 1.348 . S
C909 C907 1.356 . S
H910 C904 0.930 . S
H911 C908 0.930 . S
C912 C914 1.348 . S
C912 C915 1.356 . S
C912 O942 1.325 . S
N913 C916 1.314 . S
N913 C917 1.279 . S
C914 C912 1.348 . S
C914 C916 1.353 . S
C914 H956 0.929 . S
C915 C912 1.356 . S
C915 C917 1.358 . S
C915 H957 0.930 . S
C916 N913 1.314 . S
C916 C914 1.353 . S
C916 H958 0.930 . S
C917 N913 1.279 . S
C917 C915 1.358 . S
C917 H959 0.930 . S
C918 C919 1.348 . S
C918 C920 1.356 . S
C918 O943 1.325 1_565 S
C919 C918 1.348 . S
C919 C921 1.353 . S
C919 H960 0.929 . S
C920 C918 1.356 . S
C920 C922 1.358 . S
C920 H961 0.930 1_565 S
C921 C919 1.353 . S
C921 N923 1.314 . S
C921 H962 0.930 . S
C922 C920 1.358 . S
C922 N923 1.279 . S
C922 H963 0.930 . S
N923 C921 1.314 . S
N923 C922 1.279 . S
C924 C926 1.353 . S
C924 N927 1.314 . S
C924 H930 0.930 . S
C925 N927 1.279 . S
C925 C928 1.358 . S
C925 H931 0.930 . S
C926 C924 1.353 . S
C926 C929 1.348 . S
C926 H964 0.929 . S
N927 Li882 1.990 1_565 S
N927 C924 1.314 . S
N927 C925 1.279 . S
C928 C925 1.358 . S
C928 C929 1.356 . S
C928 H965 0.930 . S
C929 C926 1.348 . S
C929 C928 1.356 . S
H930 C924 0.930 . S
H931 C925 0.930 . S
C932 N933 1.314 . S
C932 C934 1.353 . S
C932 H938 0.930 . S
N933 Li883 1.990 . S
N933 C932 1.314 . S
N933 C936 1.279 . S
C934 C932 1.353 . S
C934 C937 1.348 . S
C934 H966 0.929 . S
C935 C936 1.358 . S
C935 C937 1.356 . S
C935 H967 0.930 1_545 S
C936 N933 1.279 . S
C936 C935 1.358 . S
C936 H939 0.930 1_545 S
C937 C934 1.348 . S
C937 C935 1.356 . S
H938 C932 0.930 . S
H939 C936 0.930 1_565 S
O940 Li880 1.956 . S
O940 Li881 1.970 . S
O940 Li882 1.961 . S
O940 C884 1.325 . S
O941 Li880 1.970 . S
O941 Li881 1.956 . S
O941 Li883 1.961 . S
O941 C890 1.325 . S
O942 Li880 1.961 . S
O942 Li882 1.956 . S
O942 Li883 1.970 . S
O942 C912 1.325 . S
O943 Li881 1.961 . S
O943 Li882 1.970 . S
O943 Li883 1.956 . S
O943 C918 1.325 1_545 S
H944 C886 0.929 . S
H945 C887 0.930 . S
H946 C888 0.930 . S
H947 C889 0.930 . S
H948 C891 0.930 . S
H949 C893 0.929 . S
H950 C894 0.930 . S
H951 C895 0.930 . S
H952 C898 0.930 . S
H953 C901 0.929 . S
H954 C906 1.000 . S
H955 C907 0.930 . S
H956 C914 0.929 . S
H957 C915 0.930 . S
H958 C916 0.930 . S
H959 C917 0.930 . S
H960 C919 0.929 . S
H961 C920 0.930 1_545 S
H962 C921 0.930 . S
H963 C922 0.930 . S
H964 C926 0.929 . S
H965 C928 0.930 . S
H966 C934 0.929 . S
H967 C935 0.930 1_565 S
Li968 N985 1.990 . S
Li968 O1028 1.980 . S
Li968 O1029 1.971 1_554 S
Li968 O1030 1.934 1_554 S
Li969 N993 1.990 . S
Li969 O1028 1.970 . S
Li969 O1029 1.956 1_554 S
Li969 O1031 1.995 . S
Li970 N1015 1.990 . S
Li970 O1028 1.961 . S
Li970 O1030 1.956 1_554 S
Li970 O1031 1.967 . S
Li971 N1021 1.990 . S
Li971 O1029 1.961 . S
Li971 O1030 1.970 . S
Li971 O1031 1.924 1_556 S
C972 C974 1.348 . S
C972 C975 1.356 . S
C972 O1028 1.325 . S
N973 C976 1.314 . S
N973 C977 1.279 . S
C974 C972 1.348 . S
C974 C976 1.353 . S
C974 H1032 0.929 . S
C975 C972 1.356 . S
C975 C977 1.358 . S
C975 H1033 0.930 . S
C976 N973 1.314 . S
C976 C974 1.353 . S
C976 H1034 0.930 . S
C977 N973 1.279 . S
C977 C975 1.358 . S
C977 H1035 0.930 . S
C978 C981 1.348 1_556 S
C978 C982 1.356 . S
C978 O1029 1.325 . S
C979 N980 1.279 . S
C979 C982 1.358 . S
C979 H1036 0.930 . S
N980 C979 1.279 . S
N980 C983 1.314 . S
C981 C978 1.348 1_554 S
C981 C983 1.353 1_554 S
C981 H1037 0.929 . S
C982 C978 1.356 . S
C982 C979 1.358 . S
C982 H1038 0.930 . S
C983 N980 1.314 . S
C983 C981 1.353 1_556 S
C983 H1039 0.929 1_556 S
C984 N985 1.271 1_556 S
C984 C989 1.353 . S
C984 H990 0.930 . S
N985 Li968 1.990 . S
N985 C984 1.271 1_554 S
N985 C987 1.324 . S
C986 C987 1.358 . S
C986 C988 1.348 1_554 S
C986 H1040 0.930 . S
C987 N985 1.324 . S
C987 C986 1.358 . S
C987 H991 0.930 . S
C988 C986 1.348 1_556 S
C988 C989 1.356 . S
C989 C984 1.353 . S
C989 C988 1.356 . S
C989 H1041 0.929 . S
H990 C984 0.930 . S
H991 C987 0.930 . S
C992 N993 1.314 . S
C992 C994 1.353 . S
C992 H998 0.930 . S
N993 Li969 1.990 . S
N993 C992 1.314 . S
N993 C996 1.279 . S
C994 C992 1.353 . S
C994 C997 1.348 . S
C994 H1042 0.929 . S
C995 C996 1.358 . S
C995 C997 1.356 . S
C995 H1043 0.930 . S
C996 N993 1.279 . S
C996 C995 1.358 . S
C996 H999 0.930 . S
C997 C994 1.348 . S
C997 C995 1.356 . S
H998 C992 0.930 . S
H999 C996 0.930 . S
C1000 C1002 1.348 . S
C1000 C1003 1.356 . S
C1000 O1030 1.325 . S
N1001 C1004 1.314 . S
N1001 C1005 1.279 . S
C1002 C1000 1.348 . S
C1002 C1004 1.353 . S
C1002 H1044 0.929 . S
C1003 C1000 1.356 . S
C1003 C1005 1.358 . S
C1003 H1045 0.930 . S
C1004 N1001 1.314 . S
C1004 C1002 1.353 . S
C1004 H1046 0.930 . S
C1005 N1001 1.279 . S
C1005 C1003 1.358 . S
C1005 H1047 0.930 . S
C1006 C1007 1.341 1_554 S
C1006 C1008 1.360 . S
C1006 O1031 1.324 . S
C1007 C1006 1.341 1_556 S
C1007 C1009 1.353 . S
C1007 H1048 0.929 . S
C1008 C1006 1.360 . S
C1008 C1010 1.358 . S
C1008 H1049 0.930 . S
C1009 C1007 1.353 . S
C1009 N1011 1.333 . S
C1009 H1050 0.930 . S
C1010 C1008 1.358 . S
C1010 N1011 1.261 1_554 S
C1010 H1051 0.930 . S
N1011 C1009 1.333 . S
N1011 C1010 1.261 1_556 S
C1012 C1014 1.353 . S
C1012 N1015 1.314 . S
C1012 H1018 0.930 . S
C1013 N1015 1.279 1_556 S
C1013 C1016 1.358 . S
C1013 H1019 0.930 . S
C1014 C1012 1.353 . S
C1014 C1017 1.348 . S
C1014 H1052 0.929 . S
N1015 Li970 1.990 . S
N1015 C1012 1.314 . S
N1015 C1013 1.279 1_554 S
C1016 C1013 1.358 . S
C1016 C1017 1.356 1_556 S
C1016 H1053 0.930 . S
C1017 C1014 1.348 . S
C1017 C1016 1.356 1_554 S
H1018 C1012 0.930 . S
H1019 C1013 0.930 . S
C1020 N1021 1.314 . S
C1020 C1022 1.353 . S
C1020 H1026 0.930 . S
N1021 Li971 1.990 . S
N1021 C1020 1.314 . S
N1021 C1024 1.279 . S
C1022 C1020 1.353 . S
C1022 C1025 1.348 . S
C1022 H1054 0.929 . S
C1023 C1024 1.358 . S
C1023 C1025 1.356 . S
C1023 H1055 0.930 . S
C1024 N1021 1.279 . S
C1024 C1023 1.358 . S
C1024 H1027 0.930 . S
C1025 C1022 1.348 . S
C1025 C1023 1.356 . S
H1026 C1020 0.930 . S
H1027 C1024 0.930 . S
O1028 Li968 1.980 . S
O1028 Li969 1.970 . S
O1028 Li970 1.961 . S
O1028 C972 1.325 . S
O1029 Li968 1.971 1_556 S
O1029 Li969 1.956 1_556 S
O1029 Li971 1.961 . S
O1029 C978 1.325 . S
O1030 Li968 1.934 1_556 S
O1030 Li970 1.956 1_556 S
O1030 Li971 1.970 . S
O1030 C1000 1.325 . S
O1031 Li969 1.995 . S
O1031 Li970 1.967 . S
O1031 Li971 1.924 1_554 S
O1031 C1006 1.324 . S
H1032 C974 0.929 . S
H1033 C975 0.930 . S
H1034 C976 0.930 . S
H1035 C977 0.930 . S
H1036 C979 0.930 . S
H1037 C981 0.929 . S
H1038 C982 0.930 . S
H1039 C983 0.929 1_554 S
H1040 C986 0.930 . S
H1041 C989 0.929 . S
H1042 C994 0.929 . S
H1043 C995 0.930 . S
H1044 C1002 0.929 . S
H1045 C1003 0.930 . S
H1046 C1004 0.930 . S
H1047 C1005 0.930 . S
H1048 C1007 0.929 . S
H1049 C1008 0.930 . S
H1050 C1009 0.930 . S
H1051 C1010 0.930 . S
H1052 C1014 0.929 . S
H1053 C1016 0.930 . S
H1054 C1022 0.929 . S
H1055 C1023 0.930 . S
Li1056 N1073 1.990 . S
Li1056 O1116 1.956 . S
Li1056 O1117 1.970 . S
Li1056 O1118 1.961 . S
Li1057 N1081 1.990 . S
Li1057 O1116 1.970 . S
Li1057 O1117 1.956 . S
Li1057 O1119 1.961 . S
Li1058 N1103 1.990 . S
Li1058 O1116 1.961 . S
Li1058 O1118 1.956 . S
Li1058 O1119 1.970 . S
Li1059 N1109 1.990 1_554 S
Li1059 O1117 1.961 . S
Li1059 O1118 1.970 . S
Li1059 O1119 1.956 . S
C1060 C1062 1.348 . S
C1060 C1063 1.356 . S
C1060 O1116 1.325 . S
N1061 C1064 1.314 . S
N1061 C1065 1.279 . S
C1062 C1060 1.348 . S
C1062 C1064 1.353 . S
C1062 H1120 0.929 . S
C1063 C1060 1.356 . S
C1063 C1065 1.358 . S
C1063 H1121 0.930 . S
C1064 N1061 1.314 . S
C1064 C1062 1.353 . S
C1064 H1122 0.930 . S
C1065 N1061 1.279 . S
C1065 C1063 1.358 . S
C1065 H1123 0.930 . S
C1066 C1069 1.348 . S
C1066 C1070 1.356 . S
C1066 O1117 1.325 . S
C1067 N1068 1.279 . S
C1067 C1070 1.358 . S
C1067 H1124 0.930 . S
N1068 C1067 1.279 . S
N1068 C1071 1.314 . S
C1069 C1066 1.348 . S
C1069 C1071 1.353 . S
C1069 H1125 0.929 . S
C1070 C1066 1.356 . S
C1070 C1067 1.358 . S
C1070 H1126 0.930 . S
C1071 N1068 1.314 . S
C1071 C1069 1.353 . S
C1071 H1127 0.930 . S
C1072 N1073 1.314 . S
C1072 C1077 1.353 . S
C1072 H1078 0.930 . S
N1073 Li1056 1.990 . S
N1073 C1072 1.314 . S
N1073 C1075 1.279 . S
C1074 C1075 1.358 . S
C1074 C1076 1.356 . S
C1074 H1128 0.930 . S
C1075 N1073 1.279 . S
C1075 C1074 1.358 . S
C1075 H1079 0.930 . S
C1076 C1074 1.356 . S
C1076 C1077 1.348 . S
C1077 C1072 1.353 . S
C1077 C1076 1.348 . S
C1077 H1129 0.929 . S
H1078 C1072 0.930 . S
H1079 C1075 0.930 . S
C1080 N1081 1.314 . S
C1080 C1082 1.353 . S
C1080 H1086 0.930 . S
N1081 Li1057 1.990 . S
N1081 C1080 1.314 . S
N1081 C1084 1.279 . S
C1082 C1080 1.353 . S
C1082 C1085 1.348 . S
C1082 H1130 0.929 . S
C1083 C1084 1.358 . S
C1083 C1085 1.356 . S
C1083 H1131 0.930 . S
C1084 N1081 1.279 . S
C1084 C1083 1.358 . S
C1084 H1087 0.930 . S
C1085 C1082 1.348 . S
C1085 C1083 1.356 . S
H1086 C1080 0.930 . S
H1087 C1084 0.930 . S
C1088 C1090 1.348 1_554 S
C1088 C1091 1.356 . S
C1088 O1118 1.325 . S
N1089 C1092 1.314 . S
N1089 C1093 1.279 . S
C1090 C1088 1.348 1_556 S
C1090 C1092 1.353 . S
C1090 H1132 0.929 . S
C1091 C1088 1.356 . S
C1091 C1093 1.358 1_554 S
C1091 H1133 0.930 . S
C1092 N1089 1.314 . S
C1092 C1090 1.353 . S
C1092 H1134 0.930 . S
C1093 N1089 1.279 . S
C1093 C1091 1.358 1_556 S
C1093 H1135 0.930 . S
C1094 C1095 1.348 . S
C1094 C1096 1.356 . S
C1094 O1119 1.325 . S
C1095 C1094 1.348 . S
C1095 C1097 1.353 . S
C1095 H1136 0.929 . S
C1096 C1094 1.356 . S
C1096 C1098 1.358 . S
C1096 H1137 0.930 . S
C1097 C1095 1.353 . S
C1097 N1099 1.314 . S
C1097 H1138 0.930 . S
C1098 C1096 1.358 . S
C1098 N1099 1.279 . S
C1098 H1139 0.930 . S
N1099 C1097 1.314 . S
N1099 C1098 1.279 . S
C1100 C1102 1.353 . S
C1100 N1103 1.314 . S
C1100 H1106 0.930 . S
C1101 N1103 1.279 . S
C1101 C1104 1.358 . S
C1101 H1107 0.930 . S
C1102 C1100 1.353 . S
C1102 C1105 1.348 . S
C1102 H1140 0.929 . S
N1103 Li1058 1.990 . S
N1103 C1100 1.314 . S
N1103 C1101 1.279 . S
C1104 C1101 1.358 . S
C1104 C1105 1.356 . S
C1104 H1141 0.930 . S
C1105 C1102 1.348 . S
C1105 C1104 1.356 . S
H1106 C1100 0.930 . S
H1107 C1101 0.930 . S
C1108 N1109 1.314 . S
C1108 C1110 1.353 . S
C1108 H1114 0.930 . S
N1109 Li1059 1.990 1_556 S
N1109 C1108 1.314 . S
N1109 C1112 1.279 . S
C1110 C1108 1.353 . S
C1110 C1113 1.348 . S
C1110 H1142 0.929 . S
C1111 C1112 1.358 . S
C1111 C1113 1.356 . S
C1111 H1143 0.930 . S
C1112 N1109 1.279 . S
C1112 C1111 1.358 . S
C1112 H1115 0.930 . S
C1113 C1110 1.348 . S
C1113 C1111 1.356 . S
H1114 C1108 0.930 . S
H1115 C1112 0.930 . S
O1116 Li1056 1.956 . S
O1116 Li1057 1.970 . S
O1116 Li1058 1.961 . S
O1116 C1060 1.325 . S
O1117 Li1056 1.970 . S
O1117 Li1057 1.956 . S
O1117 Li1059 1.961 . S
O1117 C1066 1.325 . S
O1118 Li1056 1.961 . S
O1118 Li1058 1.956 . S
O1118 Li1059 1.970 . S
O1118 C1088 1.325 . S
O1119 Li1057 1.961 . S
O1119 Li1058 1.970 . S
O1119 Li1059 1.956 . S
O1119 C1094 1.325 . S
H1120 C1062 0.929 . S
H1121 C1063 0.930 . S
H1122 C1064 0.930 . S
H1123 C1065 0.930 . S
H1124 C1067 0.930 . S
H1125 C1069 0.929 . S
H1126 C1070 0.930 . S
H1127 C1071 0.930 . S
H1128 C1074 0.930 . S
H1129 C1077 0.929 . S
H1130 C1082 0.929 . S
H1131 C1083 0.930 . S
H1132 C1090 0.929 . S
H1133 C1091 0.930 . S
H1134 C1092 0.930 . S
H1135 C1093 0.930 . S
H1136 C1095 0.929 . S
H1137 C1096 0.930 . S
H1138 C1097 0.930 . S
H1139 C1098 0.930 . S
H1140 C1102 0.929 . S
H1141 C1104 0.930 . S
H1142 C1110 0.929 . S
H1143 C1111 0.930 . S
Li1144 N1161 1.990 . S
Li1144 O1204 1.956 . S
Li1144 O1205 1.970 . S
Li1144 O1206 1.961 . S
Li1145 N1169 1.990 . S
Li1145 O1204 1.970 . S
Li1145 O1205 1.956 . S
Li1145 O1207 1.961 . S
Li1146 N1191 1.990 . S
Li1146 O1204 1.961 . S
Li1146 O1206 1.956 . S
Li1146 O1207 1.970 . S
Li1147 N1197 1.990 . S
Li1147 O1205 1.961 . S
Li1147 O1206 1.970 . S
Li1147 O1207 1.956 . S
C1148 C1150 1.348 . S
C1148 C1151 1.356 . S
C1148 O1204 1.325 . S
N1149 C1152 1.314 . S
N1149 C1153 1.279 . S
C1150 C1148 1.348 . S
C1150 C1152 1.353 . S
C1150 H1208 0.929 . S
C1151 C1148 1.356 . S
C1151 C1153 1.358 . S
C1151 H1209 0.930 . S
C1152 N1149 1.314 . S
C1152 C1150 1.353 . S
C1152 H1210 0.930 . S
C1153 N1149 1.279 . S
C1153 C1151 1.358 . S
C1153 H1211 0.930 . S
C1154 C1157 1.348 . S
C1154 C1158 1.356 . S
C1154 O1205 1.325 . S
C1155 N1156 1.279 . S
C1155 C1158 1.358 . S
C1155 H1212 0.930 . S
N1156 C1155 1.279 . S
N1156 C1159 1.314 . S
C1157 C1154 1.348 . S
C1157 C1159 1.353 . S
C1157 H1213 0.929 . S
C1158 C1154 1.356 . S
C1158 C1155 1.358 . S
C1158 H1214 0.930 . S
C1159 N1156 1.314 . S
C1159 C1157 1.353 . S
C1159 H1215 0.930 . S
C1160 N1161 1.314 . S
C1160 C1165 1.353 . S
C1160 H1166 0.930 . S
N1161 Li1144 1.990 . S
N1161 C1160 1.314 . S
N1161 C1163 1.279 . S
C1162 C1163 1.358 . S
C1162 C1164 1.356 . S
C1162 H1216 0.930 . S
C1163 N1161 1.279 . S
C1163 C1162 1.358 . S
C1163 H1167 0.930 . S
C1164 C1162 1.356 . S
C1164 C1165 1.348 . S
C1165 C1160 1.353 . S
C1165 C1164 1.348 . S
C1165 H1217 0.929 . S
H1166 C1160 0.930 . S
H1167 C1163 0.930 . S
C1168 N1169 1.314 . S
C1168 C1170 1.353 . S
C1168 H1174 0.930 . S
N1169 Li1145 1.990 . S
N1169 C1168 1.314 . S
N1169 C1172 1.279 . S
C1170 C1168 1.353 . S
C1170 C1173 1.348 . S
C1170 H1218 0.929 . S
C1171 C1172 1.358 . S
C1171 C1173 1.356 . S
C1171 H1219 0.930 . S
C1172 N1169 1.279 . S
C1172 C1171 1.358 . S
C1172 H1175 0.930 . S
C1173 C1170 1.348 . S
C1173 C1171 1.356 . S
H1174 C1168 0.930 . S
H1175 C1172 0.930 . S
C1176 C1178 1.348 . S
C1176 C1179 1.356 . S
C1176 O1206 1.325 . S
N1177 C1180 1.314 . S
N1177 C1181 1.279 . S
C1178 C1176 1.348 . S
C1178 C1180 1.353 . S
C1178 H1220 0.929 . S
C1179 C1176 1.356 . S
C1179 C1181 1.358 . S
C1179 H1221 0.930 . S
C1180 N1177 1.314 . S
C1180 C1178 1.353 . S
C1180 H1222 0.930 . S
C1181 N1177 1.279 . S
C1181 C1179 1.358 . S
C1181 H1223 0.930 . S
C1182 C1183 1.348 1_554 S
C1182 C1184 1.356 . S
C1182 O1207 1.325 . S
C1183 C1182 1.348 1_556 S
C1183 C1185 1.353 . S
C1183 H1224 0.929 . S
C1184 C1182 1.356 . S
C1184 C1186 1.358 1_554 S
C1184 H1225 0.930 . S
C1185 C1183 1.353 . S
C1185 N1187 1.314 . S
C1185 H1226 0.930 . S
C1186 C1184 1.358 1_556 S
C1186 N1187 1.279 . S
C1186 H1227 0.930 . S
N1187 C1185 1.314 . S
N1187 C1186 1.279 . S
C1188 C1190 1.353 . S
C1188 N1191 1.314 1_556 S
C1188 H1194 0.930 . S
C1189 N1191 1.279 1_556 S
C1189 C1192 1.358 . S
C1189 H1195 0.930 1_556 S
C1190 C1188 1.353 . S
C1190 C1193 1.348 . S
C1190 H1228 0.929 . S
N1191 Li1146 1.990 . S
N1191 C1188 1.314 1_554 S
N1191 C1189 1.279 1_554 S
C1192 C1189 1.358 . S
C1192 C1193 1.356 . S
C1192 H1229 0.930 . S
C1193 C1190 1.348 . S
C1193 C1192 1.356 . S
H1194 C1188 0.930 . S
H1195 C1189 0.930 1_554 S
C1196 N1197 1.314 . S
C1196 C1198 1.353 . S
C1196 H1202 0.930 . S
N1197 Li1147 1.990 . S
N1197 C1196 1.314 . S
N1197 C1200 1.279 . S
C1198 C1196 1.353 . S
C1198 C1201 1.348 . S
C1198 H1230 0.929 . S
C1199 C1200 1.358 . S
C1199 C1201 1.356 . S
C1199 H1231 0.930 . S
C1200 N1197 1.279 . S
C1200 C1199 1.358 . S
C1200 H1203 0.930 . S
C1201 C1198 1.348 . S
C1201 C1199 1.356 . S
H1202 C1196 0.930 . S
H1203 C1200 0.930 . S
O1204 Li1144 1.956 . S
O1204 Li1145 1.970 . S
O1204 Li1146 1.961 . S
O1204 C1148 1.325 . S
O1205 Li1144 1.970 . S
O1205 Li1145 1.956 . S
O1205 Li1147 1.961 . S
O1205 C1154 1.325 . S
O1206 Li1144 1.961 . S
O1206 Li1146 1.956 . S
O1206 Li1147 1.970 . S
O1206 C1176 1.325 . S
O1207 Li1145 1.961 . S
O1207 Li1146 1.970 . S
O1207 Li1147 1.956 . S
O1207 C1182 1.325 . S
H1208 C1150 0.929 . S
H1209 C1151 0.930 . S
H1210 C1152 0.930 . S
H1211 C1153 0.930 . S
H1212 C1155 0.930 . S
H1213 C1157 0.929 . S
H1214 C1158 0.930 . S
H1215 C1159 0.930 . S
H1216 C1162 0.930 . S
H1217 C1165 0.929 . S
H1218 C1170 0.929 . S
H1219 C1171 0.930 . S
H1220 C1178 0.929 . S
H1221 C1179 0.930 . S
H1222 C1180 0.930 . S
H1223 C1181 0.930 . S
H1224 C1183 0.929 . S
H1225 C1184 0.930 . S
H1226 C1185 0.930 . S
H1227 C1186 0.930 . S
H1228 C1190 0.929 . S
H1229 C1192 0.930 . S
H1230 C1198 0.929 . S
H1231 C1199 0.930 . S
Li1232 N1249 1.990 . S
Li1232 O1292 1.956 . S
Li1232 O1293 1.970 . S
Li1232 O1294 1.961 . S
Li1233 N1257 1.990 . S
Li1233 O1292 1.970 . S
Li1233 O1293 1.956 . S
Li1233 O1295 1.961 . S
Li1234 N1279 1.990 . S
Li1234 O1292 1.961 . S
Li1234 O1294 1.956 . S
Li1234 O1295 1.970 . S
Li1235 N1285 1.990 . S
Li1235 O1293 1.961 . S
Li1235 O1294 1.970 . S
Li1235 O1295 1.956 . S
C1236 C1238 1.348 . S
C1236 C1239 1.356 . S
C1236 O1292 1.325 . S
N1237 C1240 1.314 . S
N1237 C1241 1.279 . S
C1238 C1236 1.348 . S
C1238 C1240 1.353 . S
C1238 H1296 0.929 . S
C1239 C1236 1.356 . S
C1239 C1241 1.358 . S
C1239 H1297 0.930 . S
C1240 N1237 1.314 . S
C1240 C1238 1.353 . S
C1240 H1298 0.930 . S
C1241 N1237 1.279 . S
C1241 C1239 1.358 . S
C1241 H1299 0.930 . S
C1242 C1245 1.348 . S
C1242 C1246 1.356 . S
C1242 O1293 1.325 . S
C1243 N1244 1.279 . S
C1243 C1246 1.358 . S
C1243 H1300 0.930 . S
N1244 C1243 1.279 . S
N1244 C1247 1.314 . S
C1245 C1242 1.348 . S
C1245 C1247 1.353 . S
C1245 H1301 0.929 . S
C1246 C1242 1.356 . S
C1246 C1243 1.358 . S
C1246 H1302 0.930 . S
C1247 N1244 1.314 . S
C1247 C1245 1.353 . S
C1247 H1303 0.930 . S
C1248 N1249 1.314 . S
C1248 C1253 1.353 . S
C1248 H1254 0.930 . S
N1249 Li1232 1.990 . S
N1249 C1248 1.314 . S
N1249 C1251 1.279 . S
C1250 C1251 1.358 . S
C1250 C1252 1.356 . S
C1250 H1304 0.930 . S
C1251 N1249 1.279 . S
C1251 C1250 1.358 . S
C1251 H1255 0.930 . S
C1252 C1250 1.356 . S
C1252 C1253 1.348 . S
C1253 C1248 1.353 . S
C1253 C1252 1.348 . S
C1253 H1305 0.929 . S
H1254 C1248 0.930 . S
H1255 C1251 0.930 . S
C1256 N1257 1.314 . S
C1256 C1258 1.353 . S
C1256 H1262 0.930 . S
N1257 Li1233 1.990 . S
N1257 C1256 1.314 . S
N1257 C1260 1.279 . S
C1258 C1256 1.353 . S
C1258 C1261 1.348 . S
C1258 H1306 0.929 . S
C1259 C1260 1.358 . S
C1259 C1261 1.356 . S
C1259 H1307 0.930 . S
C1260 N1257 1.279 . S
C1260 C1259 1.358 . S
C1260 H1263 0.930 . S
C1261 C1258 1.348 . S
C1261 C1259 1.356 . S
H1262 C1256 0.930 . S
H1263 C1260 0.930 . S
C1264 C1266 1.348 . S
C1264 C1267 1.356 . S
C1264 O1294 1.325 . S
N1265 C1268 1.314 . S
N1265 C1269 1.279 . S
C1266 C1264 1.348 . S
C1266 C1268 1.353 . S
C1266 H1308 0.929 . S
C1267 C1264 1.356 . S
C1267 C1269 1.358 . S
C1267 H1309 0.930 . S
C1268 N1265 1.314 . S
C1268 C1266 1.353 . S
C1268 H1310 0.930 . S
C1269 N1265 1.279 . S
C1269 C1267 1.358 . S
C1269 H1311 0.930 . S
C1270 C1271 1.348 . S
C1270 C1272 1.356 . S
C1270 O1295 1.325 . S
C1271 C1270 1.348 . S
C1271 C1273 1.353 . S
C1271 H1312 0.929 . S
C1272 C1270 1.356 . S
C1272 C1274 1.358 . S
C1272 H1313 0.930 . S
C1273 C1271 1.353 . S
C1273 N1275 1.314 . S
C1273 H1314 0.930 . S
C1274 C1272 1.358 . S
C1274 N1275 1.279 . S
C1274 H1315 0.930 . S
N1275 C1273 1.314 . S
N1275 C1274 1.279 . S
C1276 C1278 1.353 . S
C1276 N1279 1.314 . S
C1276 H1282 0.930 . S
C1277 N1279 1.279 . S
C1277 C1280 1.358 . S
C1277 H1283 0.930 . S
C1278 C1276 1.353 . S
C1278 C1281 1.348 . S
C1278 H1316 0.929 . S
N1279 Li1234 1.990 . S
N1279 C1276 1.314 . S
N1279 C1277 1.279 . S
C1280 C1277 1.358 . S
C1280 C1281 1.356 . S
C1280 H1317 0.930 . S
C1281 C1278 1.348 . S
C1281 C1280 1.356 . S
H1282 C1276 0.930 . S
H1283 C1277 0.930 . S
C1284 N1285 1.314 . S
C1284 C1286 1.353 . S
C1284 H1290 0.930 . S
N1285 Li1235 1.990 . S
N1285 C1284 1.314 . S
N1285 C1288 1.279 . S
C1286 C1284 1.353 . S
C1286 C1289 1.348 . S
C1286 H1318 0.929 . S
C1287 C1288 1.358 . S
C1287 C1289 1.356 . S
C1287 H1319 0.930 . S
C1288 N1285 1.279 . S
C1288 C1287 1.358 . S
C1288 H1291 0.930 . S
C1289 C1286 1.348 . S
C1289 C1287 1.356 . S
H1290 C1284 0.930 . S
H1291 C1288 0.930 . S
O1292 Li1232 1.956 . S
O1292 Li1233 1.970 . S
O1292 Li1234 1.961 . S
O1292 C1236 1.325 . S
O1293 Li1232 1.970 . S
O1293 Li1233 1.956 . S
O1293 Li1235 1.961 . S
O1293 C1242 1.325 . S
O1294 Li1232 1.961 . S
O1294 Li1234 1.956 . S
O1294 Li1235 1.970 . S
O1294 C1264 1.325 . S
O1295 Li1233 1.961 . S
O1295 Li1234 1.970 . S
O1295 Li1235 1.956 . S
O1295 C1270 1.325 . S
H1296 C1238 0.929 . S
H1297 C1239 0.930 . S
H1298 C1240 0.930 . S
H1299 C1241 0.930 . S
H1300 C1243 0.930 . S
H1301 C1245 0.929 . S
H1302 C1246 0.930 . S
H1303 C1247 0.930 . S
H1304 C1250 0.930 . S
H1305 C1253 0.929 . S
H1306 C1258 0.929 . S
H1307 C1259 0.930 . S
H1308 C1266 0.929 . S
H1309 C1267 0.930 . S
H1310 C1268 0.930 . S
H1311 C1269 0.930 . S
H1312 C1271 0.929 . S
H1313 C1272 0.930 . S
H1314 C1273 0.930 . S
H1315 C1274 0.930 . S
H1316 C1278 0.929 . S
H1317 C1280 0.930 . S
H1318 C1286 0.929 . S
H1319 C1287 0.930 . S
Li1320 N1337 1.990 . S
Li1320 O1380 1.956 . S
Li1320 O1381 1.970 . S
Li1320 O1382 1.961 . S
Li1321 N1345 1.990 . S
Li1321 O1380 1.970 . S
Li1321 O1381 1.956 . S
Li1321 O1383 1.961 . S
Li1322 N1367 1.990 . S
Li1322 O1380 1.961 . S
Li1322 O1382 1.956 . S
Li1322 O1383 1.970 . S
Li1323 N1373 1.990 . S
Li1323 O1381 1.961 . S
Li1323 O1382 1.970 . S
Li1323 O1383 1.956 . S
C1324 C1326 1.348 . S
C1324 C1327 1.356 . S
C1324 O1380 1.325 . S
N1325 C1328 1.314 . S
N1325 C1329 1.279 . S
C1326 C1324 1.348 . S
C1326 C1328 1.353 . S
C1326 H1384 0.929 . S
C1327 C1324 1.356 . S
C1327 C1329 1.358 . S
C1327 H1385 0.930 . S
C1328 N1325 1.314 . S
C1328 C1326 1.353 . S
C1328 H1386 0.930 . S
C1329 N1325 1.279 . S
C1329 C1327 1.358 . S
C1329 H1387 0.930 . S
C1330 C1333 1.348 . S
C1330 C1334 1.356 . S
C1330 O1381 1.325 . S
C1331 N1332 1.279 . S
C1331 C1334 1.358 . S
C1331 H1388 0.930 . S
N1332 C1331 1.279 . S
N1332 C1335 1.314 . S
C1333 C1330 1.348 . S
C1333 C1335 1.353 . S
C1333 H1389 0.929 . S
C1334 C1330 1.356 . S
C1334 C1331 1.358 . S
C1334 H1390 0.930 . S
C1335 N1332 1.314 . S
C1335 C1333 1.353 . S
C1335 H1391 0.930 . S
C1336 N1337 1.314 . S
C1336 C1341 1.353 . S
C1336 H1342 0.930 . S
N1337 Li1320 1.990 . S
N1337 C1336 1.314 . S
N1337 C1339 1.279 . S
C1338 C1339 1.358 . S
C1338 C1340 1.356 . S
C1338 H1392 0.930 . S
C1339 N1337 1.279 . S
C1339 C1338 1.358 . S
C1339 H1343 0.930 . S
C1340 C1338 1.356 . S
C1340 C1341 1.348 . S
C1341 C1336 1.353 . S
C1341 C1340 1.348 . S
C1341 H1393 0.929 . S
H1342 C1336 0.930 . S
H1343 C1339 0.930 . S
C1344 N1345 1.314 . S
C1344 C1346 1.353 . S
C1344 H1350 0.930 . S
N1345 Li1321 1.990 . S
N1345 C1344 1.314 . S
N1345 C1348 1.279 . S
C1346 C1344 1.353 . S
C1346 C1349 1.348 . S
C1346 H1394 0.929 . S
C1347 C1348 1.358 . S
C1347 C1349 1.356 . S
C1347 H1395 0.930 . S
C1348 N1345 1.279 . S
C1348 C1347 1.358 . S
C1348 H1351 0.930 . S
C1349 C1346 1.348 . S
C1349 C1347 1.356 . S
H1350 C1344 0.930 . S
H1351 C1348 0.930 . S
C1352 C1354 1.348 . S
C1352 C1355 1.356 . S
C1352 O1382 1.325 . S
N1353 C1356 1.314 . S
N1353 C1357 1.279 . S
C1354 C1352 1.348 . S
C1354 C1356 1.353 . S
C1354 H1396 0.929 . S
C1355 C1352 1.356 . S
C1355 C1357 1.358 . S
C1355 H1397 0.930 . S
C1356 N1353 1.314 . S
C1356 C1354 1.353 . S
C1356 H1398 0.930 . S
C1357 N1353 1.279 . S
C1357 C1355 1.358 . S
C1357 H1399 0.930 . S
C1358 C1359 1.348 . S
C1358 C1360 1.356 . S
C1358 O1383 1.325 . S
C1359 C1358 1.348 . S
C1359 C1361 1.353 . S
C1359 H1400 0.929 . S
C1360 C1358 1.356 . S
C1360 C1362 1.358 . S
C1360 H1401 0.930 . S
C1361 C1359 1.353 . S
C1361 N1363 1.314 . S
C1361 H1402 0.930 . S
C1362 C1360 1.358 . S
C1362 N1363 1.279 . S
C1362 H1403 0.930 . S
N1363 C1361 1.314 . S
N1363 C1362 1.279 . S
C1364 C1366 1.353 . S
C1364 N1367 1.314 . S
C1364 H1370 0.930 . S
C1365 N1367 1.279 . S
C1365 C1368 1.358 . S
C1365 H1371 0.930 . S
C1366 C1364 1.353 . S
C1366 C1369 1.348 . S
C1366 H1404 0.929 . S
N1367 Li1322 1.990 . S
N1367 C1364 1.314 . S
N1367 C1365 1.279 . S
C1368 C1365 1.358 . S
C1368 C1369 1.356 . S
C1368 H1405 0.930 . S
C1369 C1366 1.348 . S
C1369 C1368 1.356 . S
H1370 C1364 0.930 . S
H1371 C1365 0.930 . S
C1372 N1373 1.314 . S
C1372 C1374 1.353 . S
C1372 H1378 0.930 . S
N1373 Li1323 1.990 . S
N1373 C1372 1.314 . S
N1373 C1376 1.279 . S
C1374 C1372 1.353 . S
C1374 C1377 1.348 . S
C1374 H1406 0.929 . S
C1375 C1376 1.358 . S
C1375 C1377 1.356 . S
C1375 H1407 0.930 . S
C1376 N1373 1.279 . S
C1376 C1375 1.358 . S
C1376 H1379 0.930 . S
C1377 C1374 1.348 . S
C1377 C1375 1.356 . S
H1378 C1372 0.930 . S
H1379 C1376 0.930 . S
O1380 Li1320 1.956 . S
O1380 Li1321 1.970 . S
O1380 Li1322 1.961 . S
O1380 C1324 1.325 . S
O1381 Li1320 1.970 . S
O1381 Li1321 1.956 . S
O1381 Li1323 1.961 . S
O1381 C1330 1.325 . S
O1382 Li1320 1.961 . S
O1382 Li1322 1.956 . S
O1382 Li1323 1.970 . S
O1382 C1352 1.325 . S
O1383 Li1321 1.961 . S
O1383 Li1322 1.970 . S
O1383 Li1323 1.956 . S
O1383 C1358 1.325 . S
H1384 C1326 0.929 . S
H1385 C1327 0.930 . S
H1386 C1328 0.930 . S
H1387 C1329 0.930 . S
H1388 C1331 0.930 . S
H1389 C1333 0.929 . S
H1390 C1334 0.930 . S
H1391 C1335 0.930 . S
H1392 C1338 0.930 . S
H1393 C1341 0.929 . S
H1394 C1346 0.929 . S
H1395 C1347 0.930 . S
H1396 C1354 0.929 . S
H1397 C1355 0.930 . S
H1398 C1356 0.930 . S
H1399 C1357 0.930 . S
H1400 C1359 0.929 . S
H1401 C1360 0.930 . S
H1402 C1361 0.930 . S
H1403 C1362 0.930 . S
H1404 C1366 0.929 . S
H1405 C1368 0.930 . S
H1406 C1374 0.929 . S
H1407 C1375 0.930 . S
Li1408 N1425 1.990 . S
Li1408 O1468 1.956 1_545 S
Li1408 O1469 1.970 . S
Li1408 O1470 1.961 . S
Li1409 N1433 1.990 . S
Li1409 O1468 1.970 . S
Li1409 O1469 1.956 1_565 S
Li1409 O1471 1.961 1_565 S
Li1410 N1455 1.990 . S
Li1410 O1468 1.961 1_545 S
Li1410 O1470 1.956 . S
Li1410 O1471 1.970 . S
Li1411 N1461 1.990 . S
Li1411 O1469 1.961 . S
Li1411 O1470 1.970 . S
Li1411 O1471 1.956 . S
C1412 C1414 1.348 . S
C1412 C1415 1.356 . S
C1412 O1468 1.325 . S
N1413 C1416 1.314 . S
N1413 C1417 1.279 . S
C1414 C1412 1.348 . S
C1414 C1416 1.353 . S
C1414 H1472 0.929 . S
C1415 C1412 1.356 . S
C1415 C1417 1.358 . S
C1415 H1473 0.930 . S
C1416 N1413 1.314 . S
C1416 C1414 1.353 . S
C1416 H1474 0.930 . S
C1417 N1413 1.279 . S
C1417 C1415 1.358 . S
C1417 H1475 0.930 . S
C1418 C1421 1.348 . S
C1418 C1422 1.356 . S
C1418 O1469 1.325 . S
C1419 N1420 1.279 . S
C1419 C1422 1.358 . S
C1419 H1476 0.930 . S
N1420 C1419 1.279 . S
N1420 C1423 1.314 . S
C1421 C1418 1.348 . S
C1421 C1423 1.353 . S
C1421 H1477 0.929 . S
C1422 C1418 1.356 . S
C1422 C1419 1.358 . S
C1422 H1478 0.930 . S
C1423 N1420 1.314 . S
C1423 C1421 1.353 . S
C1423 H1479 0.930 . S
C1424 N1425 1.314 . S
C1424 C1429 1.353 . S
C1424 H1430 0.930 . S
N1425 Li1408 1.990 . S
N1425 C1424 1.314 . S
N1425 C1427 1.279 . S
C1426 C1427 1.358 . S
C1426 C1428 1.356 . S
C1426 H1480 0.919 1_545 S
C1427 N1425 1.279 . S
C1427 C1426 1.358 . S
C1427 H1431 0.930 1_545 S
C1428 C1426 1.356 . S
C1428 C1429 1.348 . S
C1429 C1424 1.353 . S
C1429 C1428 1.348 . S
C1429 H1481 0.929 . S
H1430 C1424 0.930 . S
H1431 C1427 0.930 1_565 S
C1432 N1433 1.314 . S
C1432 C1434 1.353 . S
C1432 H1438 0.930 . S
N1433 Li1409 1.990 . S
N1433 C1432 1.314 . S
N1433 C1436 1.279 . S
C1434 C1432 1.353 . S
C1434 C1437 1.348 . S
C1434 H1482 0.929 . S
C1435 C1436 1.358 . S
C1435 C1437 1.356 . S
C1435 H1483 0.930 . S
C1436 N1433 1.279 . S
C1436 C1435 1.358 . S
C1436 H1439 0.930 . S
C1437 C1434 1.348 . S
C1437 C1435 1.356 . S
H1438 C1432 0.930 . S
H1439 C1436 0.930 . S
C1440 C1442 1.348 . S
C1440 C1443 1.356 . S
C1440 O1470 1.325 . S
N1441 C1444 1.314 . S
N1441 C1445 1.279 . S
C1442 C1440 1.348 . S
C1442 C1444 1.353 . S
C1442 H1484 0.929 . S
C1443 C1440 1.356 . S
C1443 C1445 1.358 . S
C1443 H1485 0.930 . S
C1444 N1441 1.314 . S
C1444 C1442 1.353 . S
C1444 H1486 0.930 . S
C1445 N1441 1.279 . S
C1445 C1443 1.358 . S
C1445 H1487 0.930 . S
C1446 C1447 1.348 . S
C1446 C1448 1.356 . S
C1446 O1471 1.325 . S
C1447 C1446 1.348 . S
C1447 C1449 1.353 . S
C1447 H1488 0.929 . S
C1448 C1446 1.356 . S
C1448 C1450 1.358 . S
C1448 H1489 0.930 . S
C1449 C1447 1.353 . S
C1449 N1451 1.314 . S
C1449 H1490 0.930 . S
C1450 C1448 1.358 . S
C1450 N1451 1.279 . S
C1450 H1491 0.925 1_545 S
N1451 C1449 1.314 . S
N1451 C1450 1.279 . S
C1452 C1454 1.353 . S
C1452 N1455 1.314 . S
C1452 H1458 0.930 1_545 S
C1453 N1455 1.279 . S
C1453 C1456 1.358 . S
C1453 H1459 0.930 . S
C1454 C1452 1.353 . S
C1454 C1457 1.348 . S
C1454 H1492 0.929 1_545 S
N1455 Li1410 1.990 . S
N1455 C1452 1.314 . S
N1455 C1453 1.279 . S
C1456 C1453 1.358 . S
C1456 C1457 1.356 . S
C1456 H1493 0.930 . S
C1457 C1454 1.348 . S
C1457 C1456 1.356 . S
H1458 C1452 0.930 1_565 S
H1459 C1453 0.930 . S
C1460 N1461 1.314 . S
C1460 C1462 1.353 . S
C1460 H1466 0.930 . S
N1461 Li1411 1.990 . S
N1461 C1460 1.314 . S
N1461 C1464 1.279 . S
C1462 C1460 1.353 . S
C1462 C1465 1.348 . S
C1462 H1494 0.929 . S
C1463 C1464 1.358 . S
C1463 C1465 1.356 . S
C1463 H1495 0.930 . S
C1464 N1461 1.279 . S
C1464 C1463 1.358 . S
C1464 H1467 0.930 . S
C1465 C1462 1.348 . S
C1465 C1463 1.356 . S
H1466 C1460 0.930 . S
H1467 C1464 0.930 . S
O1468 Li1408 1.956 1_565 S
O1468 Li1409 1.970 . S
O1468 Li1410 1.961 1_565 S
O1468 C1412 1.325 . S
O1469 Li1408 1.970 . S
O1469 Li1409 1.956 1_545 S
O1469 Li1411 1.961 . S
O1469 C1418 1.325 . S
O1470 Li1408 1.961 . S
O1470 Li1410 1.956 . S
O1470 Li1411 1.970 . S
O1470 C1440 1.325 . S
O1471 Li1409 1.961 1_545 S
O1471 Li1410 1.970 . S
O1471 Li1411 1.956 . S
O1471 C1446 1.325 . S
H1472 C1414 0.929 . S
H1473 C1415 0.930 . S
H1474 C1416 0.930 . S
H1475 C1417 0.930 . S
H1476 C1419 0.930 . S
H1477 C1421 0.929 . S
H1478 C1422 0.930 . S
H1479 C1423 0.930 . S
H1480 C1426 0.919 1_565 S
H1481 C1429 0.929 . S
H1482 C1434 0.929 . S
H1483 C1435 0.930 . S
H1484 C1442 0.929 . S
H1485 C1443 0.930 . S
H1486 C1444 0.930 . S
H1487 C1445 0.930 . S
H1488 C1447 0.929 . S
H1489 C1448 0.930 . S
H1490 C1449 0.930 . S
H1491 C1450 0.925 1_565 S
H1492 C1454 0.929 1_565 S
H1493 C1456 0.930 . S
H1494 C1462 0.929 . S
H1495 C1463 0.930 . S
Li1496 N1513 1.990 . S
Li1496 O1556 1.956 . S
Li1496 O1557 1.970 . S
Li1496 O1558 1.961 . S
Li1497 N1521 1.990 . S
Li1497 O1556 1.970 . S
Li1497 O1557 1.956 . S
Li1497 O1559 1.961 . S
Li1498 N1543 1.990 . S
Li1498 O1556 1.961 . S
Li1498 O1558 1.956 . S
Li1498 O1559 1.970 . S
Li1499 N1549 1.990 . S
Li1499 O1557 1.961 . S
Li1499 O1558 1.970 . S
Li1499 O1559 1.956 . S
C1500 C1502 1.348 . S
C1500 C1503 1.356 . S
C1500 O1556 1.325 . S
N1501 C1504 1.314 . S
N1501 C1505 1.279 . S
C1502 C1500 1.348 . S
C1502 C1504 1.353 . S
C1502 H1560 0.929 . S
C1503 C1500 1.356 . S
C1503 C1505 1.358 . S
C1503 H1561 0.930 . S
C1504 N1501 1.314 . S
C1504 C1502 1.353 . S
C1504 H1562 0.930 . S
C1505 N1501 1.279 . S
C1505 C1503 1.358 . S
C1505 H1563 0.930 . S
C1506 C1509 1.348 . S
C1506 C1510 1.356 . S
C1506 O1557 1.325 . S
C1507 N1508 1.279 . S
C1507 C1510 1.358 . S
C1507 H1564 0.930 . S
N1508 C1507 1.279 . S
N1508 C1511 1.314 . S
C1509 C1506 1.348 . S
C1509 C1511 1.353 . S
C1509 H1565 0.929 . S
C1510 C1506 1.356 . S
C1510 C1507 1.358 . S
C1510 H1566 0.930 . S
C1511 N1508 1.314 . S
C1511 C1509 1.353 . S
C1511 H1567 0.930 . S
C1512 N1513 1.314 . S
C1512 C1517 1.353 . S
C1512 H1518 0.930 . S
N1513 Li1496 1.990 . S
N1513 C1512 1.314 . S
N1513 C1515 1.279 . S
C1514 C1515 1.358 . S
C1514 C1516 1.356 . S
C1514 H1568 0.930 . S
C1515 N1513 1.279 . S
C1515 C1514 1.358 . S
C1515 H1519 0.930 . S
C1516 C1514 1.356 . S
C1516 C1517 1.348 . S
C1517 C1512 1.353 . S
C1517 C1516 1.348 . S
C1517 H1569 0.929 . S
H1518 C1512 0.930 . S
H1519 C1515 0.930 . S
C1520 N1521 1.314 . S
C1520 C1522 1.353 . S
C1520 H1526 0.930 . S
N1521 Li1497 1.990 . S
N1521 C1520 1.314 . S
N1521 C1524 1.279 . S
C1522 C1520 1.353 . S
C1522 C1525 1.348 . S
C1522 H1570 0.929 . S
C1523 C1524 1.358 . S
C1523 C1525 1.356 . S
C1523 H1571 0.930 . S
C1524 N1521 1.279 . S
C1524 C1523 1.358 . S
C1524 H1527 0.930 . S
C1525 C1522 1.348 . S
C1525 C1523 1.356 . S
H1526 C1520 0.930 . S
H1527 C1524 0.930 . S
C1528 C1530 1.348 . S
C1528 C1531 1.356 . S
C1528 O1558 1.325 . S
N1529 C1532 1.314 . S
N1529 C1533 1.279 . S
C1530 C1528 1.348 . S
C1530 C1532 1.353 . S
C1530 H1572 0.929 . S
C1531 C1528 1.356 . S
C1531 C1533 1.358 . S
C1531 H1573 0.930 . S
C1532 N1529 1.314 . S
C1532 C1530 1.353 . S
C1532 H1574 0.930 . S
C1533 N1529 1.279 . S
C1533 C1531 1.358 . S
C1533 H1575 0.930 . S
C1534 C1535 1.348 . S
C1534 C1536 1.356 . S
C1534 O1559 1.325 . S
C1535 C1534 1.348 . S
C1535 C1537 1.353 . S
C1535 H1576 0.929 . S
C1536 C1534 1.356 . S
C1536 C1538 1.358 . S
C1536 H1577 0.930 . S
C1537 C1535 1.353 . S
C1537 N1539 1.314 . S
C1537 H1578 0.930 . S
C1538 C1536 1.358 . S
C1538 N1539 1.279 . S
C1538 H1579 0.930 . S
N1539 C1537 1.314 . S
N1539 C1538 1.279 . S
C1540 C1542 1.353 . S
C1540 N1543 1.314 . S
C1540 H1546 0.930 . S
C1541 N1543 1.279 . S
C1541 C1544 1.358 . S
C1541 H1547 0.930 . S
C1542 C1540 1.353 . S
C1542 C1545 1.348 . S
C1542 H1580 0.929 . S
N1543 Li1498 1.990 . S
N1543 C1540 1.314 . S
N1543 C1541 1.279 . S
C1544 C1541 1.358 . S
C1544 C1545 1.356 . S
C1544 H1581 0.930 . S
C1545 C1542 1.348 . S
C1545 C1544 1.356 . S
H1546 C1540 0.930 . S
H1547 C1541 0.930 . S
C1548 N1549 1.314 . S
C1548 C1550 1.353 . S
C1548 H1554 0.930 . S
N1549 Li1499 1.990 . S
N1549 C1548 1.314 . S
N1549 C1552 1.279 . S
C1550 C1548 1.353 . S
C1550 C1553 1.348 . S
C1550 H1582 0.929 . S
C1551 C1552 1.358 . S
C1551 C1553 1.356 . S
C1551 H1583 0.930 . S
C1552 N1549 1.279 . S
C1552 C1551 1.358 . S
C1552 H1555 0.930 . S
C1553 C1550 1.348 . S
C1553 C1551 1.356 . S
H1554 C1548 0.930 . S
H1555 C1552 0.930 . S
O1556 Li1496 1.956 . S
O1556 Li1497 1.970 . S
O1556 Li1498 1.961 . S
O1556 C1500 1.325 . S
O1557 Li1496 1.970 . S
O1557 Li1497 1.956 . S
O1557 Li1499 1.961 . S
O1557 C1506 1.325 . S
O1558 Li1496 1.961 . S
O1558 Li1498 1.956 . S
O1558 Li1499 1.970 . S
O1558 C1528 1.325 . S
O1559 Li1497 1.961 . S
O1559 Li1498 1.970 . S
O1559 Li1499 1.956 . S
O1559 C1534 1.325 . S
H1560 C1502 0.929 . S
H1561 C1503 0.930 . S
H1562 C1504 0.930 . S
H1563 C1505 0.930 . S
H1564 C1507 0.930 . S
H1565 C1509 0.929 . S
H1566 C1510 0.930 . S
H1567 C1511 0.930 . S
H1568 C1514 0.930 . S
H1569 C1517 0.929 . S
H1570 C1522 0.929 . S
H1571 C1523 0.930 . S
H1572 C1530 0.929 . S
H1573 C1531 0.930 . S
H1574 C1532 0.930 . S
H1575 C1533 0.930 . S
H1576 C1535 0.929 . S
H1577 C1536 0.930 . S
H1578 C1537 0.930 . S
H1579 C1538 0.930 . S
H1580 C1542 0.929 . S
H1581 C1544 0.930 . S
H1582 C1550 0.929 . S
H1583 C1551 0.930 . S
Li1584 N1601 1.990 . S
Li1584 O1644 1.956 . S
Li1584 O1645 1.970 . S
Li1584 O1646 1.961 . S
Li1585 N1609 1.990 . S
Li1585 O1644 1.970 . S
Li1585 O1645 1.956 . S
Li1585 O1647 1.961 . S
Li1586 N1631 1.990 . S
Li1586 O1644 1.961 . S
Li1586 O1646 1.956 . S
Li1586 O1647 1.970 . S
Li1587 N1637 1.990 . S
Li1587 O1645 1.961 . S
Li1587 O1646 1.970 . S
Li1587 O1647 1.956 . S
C1588 C1590 1.348 . S
C1588 C1591 1.356 . S
C1588 O1644 1.325 . S
N1589 C1592 1.314 . S
N1589 C1593 1.279 . S
C1590 C1588 1.348 . S
C1590 C1592 1.353 . S
C1590 H1648 0.929 . S
C1591 C1588 1.356 . S
C1591 C1593 1.358 . S
C1591 H1649 0.930 . S
C1592 N1589 1.314 . S
C1592 C1590 1.353 . S
C1592 H1650 0.930 . S
C1593 N1589 1.279 . S
C1593 C1591 1.358 . S
C1593 H1651 0.930 . S
C1594 C1597 1.348 . S
C1594 C1598 1.356 . S
C1594 O1645 1.325 . S
C1595 N1596 1.279 . S
C1595 C1598 1.358 . S
C1595 H1652 0.930 . S
N1596 C1595 1.279 . S
N1596 C1599 1.314 . S
C1597 C1594 1.348 . S
C1597 C1599 1.353 . S
C1597 H1653 0.929 . S
C1598 C1594 1.356 . S
C1598 C1595 1.358 . S
C1598 H1654 0.930 . S
C1599 N1596 1.314 . S
C1599 C1597 1.353 . S
C1599 H1655 0.930 . S
C1600 N1601 1.314 . S
C1600 C1605 1.353 . S
C1600 H1606 0.930 . S
N1601 Li1584 1.990 . S
N1601 C1600 1.314 . S
N1601 C1603 1.279 . S
C1602 C1603 1.358 . S
C1602 C1604 1.356 . S
C1602 H1656 0.930 . S
C1603 N1601 1.279 . S
C1603 C1602 1.358 . S
C1603 H1607 0.930 . S
C1604 C1602 1.356 . S
C1604 C1605 1.348 . S
C1605 C1600 1.353 . S
C1605 C1604 1.348 . S
C1605 H1657 0.929 . S
H1606 C1600 0.930 . S
H1607 C1603 0.930 . S
C1608 N1609 1.314 . S
C1608 C1610 1.353 . S
C1608 H1614 0.930 . S
N1609 Li1585 1.990 . S
N1609 C1608 1.314 . S
N1609 C1612 1.279 . S
C1610 C1608 1.353 . S
C1610 C1613 1.348 . S
C1610 H1658 0.929 . S
C1611 C1612 1.358 . S
C1611 C1613 1.356 . S
C1611 H1659 0.930 . S
C1612 N1609 1.279 . S
C1612 C1611 1.358 . S
C1612 H1615 0.930 . S
C1613 C1610 1.348 . S
C1613 C1611 1.356 . S
H1614 C1608 0.930 . S
H1615 C1612 0.930 . S
C1616 C1618 1.348 . S
C1616 C1619 1.356 . S
C1616 O1646 1.325 . S
N1617 C1620 1.314 . S
N1617 C1621 1.279 . S
C1618 C1616 1.348 . S
C1618 C1620 1.353 . S
C1618 H1660 0.929 . S
C1619 C1616 1.356 . S
C1619 C1621 1.358 . S
C1619 H1661 0.930 . S
C1620 N1617 1.314 . S
C1620 C1618 1.353 . S
C1620 H1662 0.930 . S
C1621 N1617 1.279 . S
C1621 C1619 1.358 . S
C1621 H1663 0.930 . S
C1622 C1623 1.348 . S
C1622 C1624 1.356 . S
C1622 O1647 1.325 . S
C1623 C1622 1.348 . S
C1623 C1625 1.353 . S
C1623 H1664 0.929 . S
C1624 C1622 1.356 . S
C1624 C1626 1.358 . S
C1624 H1665 0.930 . S
C1625 C1623 1.353 . S
C1625 N1627 1.314 . S
C1625 H1666 0.930 . S
C1626 C1624 1.358 . S
C1626 N1627 1.279 . S
C1626 H1667 0.930 . S
N1627 C1625 1.314 . S
N1627 C1626 1.279 . S
C1628 C1630 1.353 . S
C1628 N1631 1.314 . S
C1628 H1634 0.930 . S
C1629 N1631 1.279 . S
C1629 C1632 1.358 . S
C1629 H1635 0.930 . S
C1630 C1628 1.353 . S
C1630 C1633 1.348 . S
C1630 H1668 0.929 . S
N1631 Li1586 1.990 . S
N1631 C1628 1.314 . S
N1631 C1629 1.279 . S
C1632 C1629 1.358 . S
C1632 C1633 1.356 . S
C1632 H1669 0.930 . S
C1633 C1630 1.348 . S
C1633 C1632 1.356 . S
H1634 C1628 0.930 . S
H1635 C1629 0.930 . S
C1636 N1637 1.314 . S
C1636 C1638 1.353 . S
C1636 H1642 0.930 . S
N1637 Li1587 1.990 . S
N1637 C1636 1.314 . S
N1637 C1640 1.279 . S
C1638 C1636 1.353 . S
C1638 C1641 1.348 . S
C1638 H1670 0.929 . S
C1639 C1640 1.358 . S
C1639 C1641 1.356 . S
C1639 H1671 0.930 . S
C1640 N1637 1.279 . S
C1640 C1639 1.358 . S
C1640 H1643 0.930 . S
C1641 C1638 1.348 . S
C1641 C1639 1.356 . S
H1642 C1636 0.930 . S
H1643 C1640 0.930 . S
O1644 Li1584 1.956 . S
O1644 Li1585 1.970 . S
O1644 Li1586 1.961 . S
O1644 C1588 1.325 . S
O1645 Li1584 1.970 . S
O1645 Li1585 1.956 . S
O1645 Li1587 1.961 . S
O1645 C1594 1.325 . S
O1646 Li1584 1.961 . S
O1646 Li1586 1.956 . S
O1646 Li1587 1.970 . S
O1646 C1616 1.325 . S
O1647 Li1585 1.961 . S
O1647 Li1586 1.970 . S
O1647 Li1587 1.956 . S
O1647 C1622 1.325 . S
H1648 C1590 0.929 . S
H1649 C1591 0.930 . S
H1650 C1592 0.930 . S
H1651 C1593 0.930 . S
H1652 C1595 0.930 . S
H1653 C1597 0.929 . S
H1654 C1598 0.930 . S
H1655 C1599 0.930 . S
H1656 C1602 0.930 . S
H1657 C1605 0.929 . S
H1658 C1610 0.929 . S
H1659 C1611 0.930 . S
H1660 C1618 0.929 . S
H1661 C1619 0.930 . S
H1662 C1620 0.930 . S
H1663 C1621 0.930 . S
H1664 C1623 0.929 . S
H1665 C1624 0.930 . S
H1666 C1625 0.930 . S
H1667 C1626 0.930 . S
H1668 C1630 0.929 . S
H1669 C1632 0.930 . S
H1670 C1638 0.929 . S
H1671 C1639 0.930 . S
Li1672 N1689 1.990 . S
Li1672 O1732 1.956 . S
Li1672 O1733 1.970 . S
Li1672 O1734 1.961 . S
Li1673 N1697 1.990 . S
Li1673 O1732 1.970 . S
Li1673 O1733 1.956 . S
Li1673 O1735 1.961 . S
Li1674 N1719 1.990 . S
Li1674 O1732 1.961 . S
Li1674 O1734 1.956 . S
Li1674 O1735 1.970 . S
Li1675 N1725 2.013 . S
Li1675 O1733 1.961 . S
Li1675 O1734 1.970 . S
Li1675 O1735 1.956 . S
C1676 C1678 1.348 . S
C1676 C1679 1.356 . S
C1676 O1732 1.325 . S
N1677 C1680 1.314 . S
N1677 C1681 1.279 . S
C1678 C1676 1.348 . S
C1678 C1680 1.353 . S
C1678 H1736 0.929 . S
C1679 C1676 1.356 . S
C1679 C1681 1.358 . S
C1679 H1737 0.930 . S
C1680 N1677 1.314 . S
C1680 C1678 1.353 . S
C1680 H1738 0.930 . S
C1681 N1677 1.279 . S
C1681 C1679 1.358 . S
C1681 H1739 0.930 . S
C1682 C1685 1.348 . S
C1682 C1686 1.356 . S
C1682 O1733 1.325 . S
C1683 N1684 1.279 . S
C1683 C1686 1.358 . S
C1683 H1740 0.930 . S
N1684 C1683 1.279 . S
N1684 C1687 1.314 . S
C1685 C1682 1.348 . S
C1685 C1687 1.353 . S
C1685 H1741 0.929 . S
C1686 C1682 1.356 . S
C1686 C1683 1.358 . S
C1686 H1742 0.930 . S
C1687 N1684 1.314 . S
C1687 C1685 1.353 . S
C1687 H1743 0.930 . S
C1688 N1689 1.314 . S
C1688 C1693 1.353 . S
C1688 H1694 0.930 . S
N1689 Li1672 1.990 . S
N1689 C1688 1.314 . S
N1689 C1691 1.279 . S
C1690 C1691 1.358 . S
C1690 C1692 1.356 . S
C1690 H1744 0.930 . S
C1691 N1689 1.279 . S
C1691 C1690 1.358 . S
C1691 H1695 0.930 . S
C1692 C1690 1.356 . S
C1692 C1693 1.348 . S
C1693 C1688 1.353 . S
C1693 C1692 1.348 . S
C1693 H1745 0.929 . S
H1694 C1688 0.930 . S
H1695 C1691 0.930 . S
C1696 N1697 1.314 . S
C1696 C1698 1.353 . S
C1696 H1702 0.930 . S
N1697 Li1673 1.990 . S
N1697 C1696 1.314 . S
N1697 C1700 1.279 . S
C1698 C1696 1.353 . S
C1698 C1701 1.348 . S
C1698 H1746 0.929 . S
C1699 C1700 1.358 . S
C1699 C1701 1.356 . S
C1699 H1747 0.930 . S
C1700 N1697 1.279 . S
C1700 C1699 1.358 . S
C1700 H1703 0.930 . S
C1701 C1698 1.348 . S
C1701 C1699 1.356 . S
H1702 C1696 0.930 . S
H1703 C1700 0.930 . S
C1704 C1706 1.411 . S
C1704 C1707 1.350 . S
C1704 O1734 1.273 1_565 S
N1705 C1708 1.314 . S
N1705 C1709 1.279 . S
C1706 C1704 1.411 . S
C1706 C1708 1.353 . S
C1706 H1748 0.929 . S
C1707 C1704 1.350 . S
C1707 C1709 1.358 . S
C1707 H1749 0.930 1_565 S
C1708 N1705 1.314 . S
C1708 C1706 1.353 . S
C1708 H1750 0.930 . S
C1709 N1705 1.279 . S
C1709 C1707 1.358 . S
C1709 H1751 0.930 . S
C1710 C1711 1.348 . S
C1710 C1712 1.356 . S
C1710 O1735 1.325 . S
C1711 C1710 1.348 . S
C1711 C1713 1.353 . S
C1711 H1752 0.929 . S
C1712 C1710 1.356 . S
C1712 C1714 1.358 . S
C1712 H1753 0.930 . S
C1713 C1711 1.353 . S
C1713 N1715 1.314 . S
C1713 H1754 0.930 . S
C1714 C1712 1.358 . S
C1714 N1715 1.279 . S
C1714 H1755 0.930 . S
N1715 C1713 1.314 . S
N1715 C1714 1.279 . S
C1716 C1718 1.353 . S
C1716 N1719 1.314 . S
C1716 H1722 0.930 . S
C1717 N1719 1.279 . S
C1717 C1720 1.358 . S
C1717 H1723 0.930 . S
C1718 C1716 1.353 . S
C1718 C1721 1.348 . S
C1718 H1756 0.929 . S
N1719 Li1674 1.990 . S
N1719 C1716 1.314 . S
N1719 C1717 1.279 . S
C1720 C1717 1.358 . S
C1720 C1721 1.356 . S
C1720 H1757 0.953 . S
C1721 C1718 1.348 . S
C1721 C1720 1.356 . S
H1722 C1716 0.930 . S
H1723 C1717 0.930 . S
C1724 N1725 1.297 1_565 S
C1724 C1726 1.353 . S
C1724 H1730 0.930 . S
N1725 Li1675 2.013 . S
N1725 C1724 1.297 1_545 S
N1725 C1728 1.269 1_545 S
C1726 C1724 1.353 . S
C1726 C1729 1.348 . S
C1726 H1758 0.929 . S
C1727 C1728 1.358 . S
C1727 C1729 1.356 . S
C1727 H1759 0.930 . S
C1728 N1725 1.269 1_565 S
C1728 C1727 1.358 . S
C1728 H1731 0.935 1_565 S
C1729 C1726 1.348 . S
C1729 C1727 1.356 . S
H1730 C1724 0.930 . S
H1731 C1728 0.935 1_545 S
O1732 Li1672 1.956 . S
O1732 Li1673 1.970 . S
O1732 Li1674 1.961 . S
O1732 C1676 1.325 . S
O1733 Li1672 1.970 . S
O1733 Li1673 1.956 . S
O1733 Li1675 1.961 . S
O1733 C1682 1.325 . S
O1734 Li1672 1.961 . S
O1734 Li1674 1.956 . S
O1734 Li1675 1.970 . S
O1734 C1704 1.273 1_545 S
O1735 Li1673 1.961 . S
O1735 Li1674 1.970 . S
O1735 Li1675 1.956 . S
O1735 C1710 1.325 . S
H1736 C1678 0.929 . S
H1737 C1679 0.930 . S
H1738 C1680 0.930 . S
H1739 C1681 0.930 . S
H1740 C1683 0.930 . S
H1741 C1685 0.929 . S
H1742 C1686 0.930 . S
H1743 C1687 0.930 . S
H1744 C1690 0.930 . S
H1745 C1693 0.929 . S
H1746 C1698 0.929 . S
H1747 C1699 0.930 . S
H1748 C1706 0.929 . S
H1749 C1707 0.930 1_545 S
H1750 C1708 0.930 . S
H1751 C1709 0.930 . S
H1752 C1711 0.929 . S
H1753 C1712 0.930 . S
H1754 C1713 0.930 . S
H1755 C1714 0.930 . S
H1756 C1718 0.929 . S
H1757 C1720 0.953 . S
H1758 C1726 0.929 . S
H1759 C1727 0.930 . S
Li1760 N1777 1.990 . S
Li1760 O1820 1.956 . S
Li1760 O1821 1.970 . S
Li1760 O1822 1.961 . S
Li1761 N1785 1.990 . S
Li1761 O1820 1.970 . S
Li1761 O1821 1.956 . S
Li1761 O1823 1.961 1_554 S
Li1762 N1807 1.990 . S
Li1762 O1820 1.961 1_556 S
Li1762 O1822 1.956 1_556 S
Li1762 O1823 1.970 . S
Li1763 N1813 1.991 . S
Li1763 O1821 1.961 . S
Li1763 O1822 1.970 . S
Li1763 O1823 1.956 1_554 S
C1764 C1766 1.348 . S
C1764 C1767 1.356 . S
C1764 O1820 1.325 . S
N1765 C1768 1.314 . S
N1765 C1769 1.279 . S
C1766 C1764 1.348 . S
C1766 C1768 1.353 . S
C1766 H1824 0.929 . S
C1767 C1764 1.356 . S
C1767 C1769 1.358 . S
C1767 H1825 0.930 . S
C1768 N1765 1.314 . S
C1768 C1766 1.353 . S
C1768 H1826 0.930 . S
C1769 N1765 1.279 . S
C1769 C1767 1.358 . S
C1769 H1827 0.930 . S
C1770 C1773 1.348 . S
C1770 C1774 1.356 . S
C1770 O1821 1.325 . S
C1771 N1772 1.279 . S
C1771 C1774 1.358 . S
C1771 H1828 0.930 . S
N1772 C1771 1.279 . S
N1772 C1775 1.314 . S
C1773 C1770 1.348 . S
C1773 C1775 1.353 . S
C1773 H1829 0.929 . S
C1774 C1770 1.356 . S
C1774 C1771 1.358 . S
C1774 H1830 0.930 . S
C1775 N1772 1.314 . S
C1775 C1773 1.353 . S
C1775 H1831 0.930 . S
C1776 N1777 1.314 . S
C1776 C1781 1.353 . S
C1776 H1782 0.930 . S
N1777 Li1760 1.990 . S
N1777 C1776 1.314 . S
N1777 C1779 1.279 . S
C1778 C1779 1.358 . S
C1778 C1780 1.356 . S
C1778 H1832 0.930 . S
C1779 N1777 1.279 . S
C1779 C1778 1.358 . S
C1779 H1783 0.930 . S
C1780 C1778 1.356 . S
C1780 C1781 1.348 . S
C1781 C1776 1.353 . S
C1781 C1780 1.348 . S
C1781 H1833 0.929 . S
H1782 C1776 0.930 . S
H1783 C1779 0.930 . S
C1784 N1785 1.314 1_556 S
C1784 C1786 1.353 . S
C1784 H1790 0.930 . S
N1785 Li1761 1.990 . S
N1785 C1784 1.314 1_554 S
N1785 C1788 1.279 . S
C1786 C1784 1.353 . S
C1786 C1789 1.348 1_556 S
C1786 H1834 0.929 . S
C1787 C1788 1.358 . S
C1787 C1789 1.356 . S
C1787 H1835 0.930 . S
C1788 N1785 1.279 . S
C1788 C1787 1.358 . S
C1788 H1791 0.930 . S
C1789 C1786 1.348 1_554 S
C1789 C1787 1.356 . S
H1790 C1784 0.930 . S
H1791 C1788 0.930 . S
C1792 C1794 1.348 1_554 S
C1792 C1795 1.356 . S
C1792 O1822 1.325 . S
N1793 C1796 1.314 1_554 S
N1793 C1797 1.279 . S
C1794 C1792 1.348 1_556 S
C1794 C1796 1.353 . S
C1794 H1836 0.929 . S
C1795 C1792 1.356 . S
C1795 C1797 1.358 . S
C1795 H1837 0.930 . S
C1796 N1793 1.314 1_556 S
C1796 C1794 1.353 . S
C1796 H1838 0.930 . S
C1797 N1793 1.279 . S
C1797 C1795 1.358 . S
C1797 H1839 0.930 . S
C1798 C1799 1.348 . S
C1798 C1800 1.356 . S
C1798 O1823 1.325 . S
C1799 C1798 1.348 . S
C1799 C1801 1.353 . S
C1799 H1840 0.929 . S
C1800 C1798 1.356 . S
C1800 C1802 1.358 . S
C1800 H1841 0.930 . S
C1801 C1799 1.353 . S
C1801 N1803 1.314 . S
C1801 H1842 0.930 . S
C1802 C1800 1.358 . S
C1802 N1803 1.279 . S
C1802 H1843 0.930 . S
N1803 C1801 1.314 . S
N1803 C1802 1.279 . S
C1804 C1806 1.353 . S
C1804 N1807 1.314 . S
C1804 H1810 0.930 . S
C1805 N1807 1.279 . S
C1805 C1808 1.358 . S
C1805 H1811 0.930 . S
C1806 C1804 1.353 . S
C1806 C1809 1.348 . S
C1806 H1844 0.929 . S
N1807 Li1762 1.990 . S
N1807 C1804 1.314 . S
N1807 C1805 1.279 . S
C1808 C1805 1.358 . S
C1808 C1809 1.356 . S
C1808 H1845 0.930 . S
C1809 C1806 1.348 . S
C1809 C1808 1.356 . S
H1810 C1804 0.930 . S
H1811 C1805 0.930 . S
C1812 N1813 1.308 . S
C1812 C1814 1.353 . S
C1812 H1818 0.930 . S
N1813 Li1763 1.991 . S
N1813 C1812 1.308 . S
N1813 C1816 1.285 1_554 S
C1814 C1812 1.353 . S
C1814 C1817 1.348 1_554 S
C1814 H1846 0.929 . S
C1815 C1816 1.358 . S
C1815 C1817 1.356 . S
C1815 H1847 0.930 . S
C1816 N1813 1.285 1_556 S
C1816 C1815 1.358 . S
C1816 H1819 0.930 . S
C1817 C1814 1.348 1_556 S
C1817 C1815 1.356 . S
H1818 C1812 0.930 . S
H1819 C1816 0.930 . S
O1820 Li1760 1.956 . S
O1820 Li1761 1.970 . S
O1820 Li1762 1.961 1_554 S
O1820 C1764 1.325 . S
O1821 Li1760 1.970 . S
O1821 Li1761 1.956 . S
O1821 Li1763 1.961 . S
O1821 C1770 1.325 . S
O1822 Li1760 1.961 . S
O1822 Li1762 1.956 1_554 S
O1822 Li1763 1.970 . S
O1822 C1792 1.325 . S
O1823 Li1761 1.961 1_556 S
O1823 Li1762 1.970 . S
O1823 Li1763 1.956 1_556 S
O1823 C1798 1.325 . S
H1824 C1766 0.929 . S
H1825 C1767 0.930 . S
H1826 C1768 0.930 . S
H1827 C1769 0.930 . S
H1828 C1771 0.930 . S
H1829 C1773 0.929 . S
H1830 C1774 0.930 . S
H1831 C1775 0.930 . S
H1832 C1778 0.930 . S
H1833 C1781 0.929 . S
H1834 C1786 0.929 . S
H1835 C1787 0.930 . S
H1836 C1794 0.929 . S
H1837 C1795 0.930 . S
H1838 C1796 0.930 . S
H1839 C1797 0.930 . S
H1840 C1799 0.929 . S
H1841 C1800 0.930 . S
H1842 C1801 0.930 . S
H1843 C1802 0.930 . S
H1844 C1806 0.929 . S
H1845 C1808 0.930 . S
H1846 C1814 0.929 . S
H1847 C1815 0.930 . S
Li1848 N1865 1.990 . S
Li1848 O1908 1.956 . S
Li1848 O1909 1.970 . S
Li1848 O1910 1.961 . S
Li1849 N1873 1.990 . S
Li1849 O1908 1.970 . S
Li1849 O1909 1.956 . S
Li1849 O1911 1.961 . S
Li1850 N1895 1.990 . S
Li1850 O1908 1.961 . S
Li1850 O1910 1.956 . S
Li1850 O1911 1.970 . S
Li1851 N1901 1.990 . S
Li1851 O1909 1.961 . S
Li1851 O1910 1.970 . S
Li1851 O1911 1.956 . S
C1852 C1854 1.348 . S
C1852 C1855 1.356 . S
C1852 O1908 1.325 . S
N1853 C1856 1.314 . S
N1853 C1857 1.279 . S
C1854 C1852 1.348 . S
C1854 C1856 1.353 . S
C1854 H1912 0.929 . S
C1855 C1852 1.356 . S
C1855 C1857 1.358 . S
C1855 H1913 0.930 . S
C1856 N1853 1.314 . S
C1856 C1854 1.353 . S
C1856 H1914 0.930 . S
C1857 N1853 1.279 . S
C1857 C1855 1.358 . S
C1857 H1915 0.930 . S
C1858 C1861 1.348 . S
C1858 C1862 1.356 . S
C1858 O1909 1.325 . S
C1859 N1860 1.279 . S
C1859 C1862 1.358 . S
C1859 H1916 0.930 . S
N1860 C1859 1.279 . S
N1860 C1863 1.314 . S
C1861 C1858 1.348 . S
C1861 C1863 1.353 . S
C1861 H1917 0.929 . S
C1862 C1858 1.356 . S
C1862 C1859 1.358 . S
C1862 H1918 0.930 . S
C1863 N1860 1.314 . S
C1863 C1861 1.353 . S
C1863 H1919 0.930 . S
C1864 N1865 1.314 . S
C1864 C1869 1.353 . S
C1864 H1870 0.930 . S
N1865 Li1848 1.990 . S
N1865 C1864 1.314 . S
N1865 C1867 1.279 . S
C1866 C1867 1.358 . S
C1866 C1868 1.356 . S
C1866 H1920 0.930 . S
C1867 N1865 1.279 . S
C1867 C1866 1.358 . S
C1867 H1871 0.930 . S
C1868 C1866 1.356 . S
C1868 C1869 1.348 . S
C1869 C1864 1.353 . S
C1869 C1868 1.348 . S
C1869 H1921 0.929 . S
H1870 C1864 0.930 . S
H1871 C1867 0.930 . S
C1872 N1873 1.314 . S
C1872 C1874 1.353 . S
C1872 H1878 0.930 . S
N1873 Li1849 1.990 . S
N1873 C1872 1.314 . S
N1873 C1876 1.279 . S
C1874 C1872 1.353 . S
C1874 C1877 1.348 . S
C1874 H1922 0.929 . S
C1875 C1876 1.358 . S
C1875 C1877 1.356 . S
C1875 H1923 0.930 . S
C1876 N1873 1.279 . S
C1876 C1875 1.358 . S
C1876 H1879 0.930 . S
C1877 C1874 1.348 . S
C1877 C1875 1.356 . S
H1878 C1872 0.930 . S
H1879 C1876 0.930 . S
C1880 C1882 1.348 . S
C1880 C1883 1.356 . S
C1880 O1910 1.325 . S
N1881 C1884 1.314 . S
N1881 C1885 1.279 . S
C1882 C1880 1.348 . S
C1882 C1884 1.353 . S
C1882 H1924 0.929 . S
C1883 C1880 1.356 . S
C1883 C1885 1.358 . S
C1883 H1925 0.930 . S
C1884 N1881 1.314 . S
C1884 C1882 1.353 . S
C1884 H1926 0.930 . S
C1885 N1881 1.279 . S
C1885 C1883 1.358 . S
C1885 H1927 0.930 . S
C1886 C1887 1.348 . S
C1886 C1888 1.356 . S
C1886 O1911 1.325 . S
C1887 C1886 1.348 . S
C1887 C1889 1.353 . S
C1887 H1928 0.929 . S
C1888 C1886 1.356 . S
C1888 C1890 1.358 . S
C1888 H1929 0.930 . S
C1889 C1887 1.353 . S
C1889 N1891 1.314 . S
C1889 H1930 0.930 . S
C1890 C1888 1.358 . S
C1890 N1891 1.279 . S
C1890 H1931 0.930 . S
N1891 C1889 1.314 . S
N1891 C1890 1.279 . S
C1892 C1894 1.353 . S
C1892 N1895 1.314 . S
C1892 H1898 0.930 . S
C1893 N1895 1.279 . S
C1893 C1896 1.358 . S
C1893 H1899 0.930 . S
C1894 C1892 1.353 . S
C1894 C1897 1.348 . S
C1894 H1932 0.929 . S
N1895 Li1850 1.990 . S
N1895 C1892 1.314 . S
N1895 C1893 1.279 . S
C1896 C1893 1.358 . S
C1896 C1897 1.356 . S
C1896 H1933 0.930 . S
C1897 C1894 1.348 . S
C1897 C1896 1.356 . S
H1898 C1892 0.930 . S
H1899 C1893 0.930 . S
C1900 N1901 1.314 . S
C1900 C1902 1.353 . S
C1900 H1906 0.930 . S
N1901 Li1851 1.990 . S
N1901 C1900 1.314 . S
N1901 C1904 1.279 . S
C1902 C1900 1.353 . S
C1902 C1905 1.348 . S
C1902 H1934 0.929 . S
C1903 C1904 1.358 . S
C1903 C1905 1.356 . S
C1903 H1935 0.930 . S
C1904 N1901 1.279 . S
C1904 C1903 1.358 . S
C1904 H1907 0.930 . S
C1905 C1902 1.348 . S
C1905 C1903 1.356 . S
H1906 C1900 0.930 . S
H1907 C1904 0.930 . S
O1908 Li1848 1.956 . S
O1908 Li1849 1.970 . S
O1908 Li1850 1.961 . S
O1908 C1852 1.325 . S
O1909 Li1848 1.970 . S
O1909 Li1849 1.956 . S
O1909 Li1851 1.961 . S
O1909 C1858 1.325 . S
O1910 Li1848 1.961 . S
O1910 Li1850 1.956 . S
O1910 Li1851 1.970 . S
O1910 C1880 1.325 . S
O1911 Li1849 1.961 . S
O1911 Li1850 1.970 . S
O1911 Li1851 1.956 . S
O1911 C1886 1.325 . S
H1912 C1854 0.929 . S
H1913 C1855 0.930 . S
H1914 C1856 0.930 . S
H1915 C1857 0.930 . S
H1916 C1859 0.930 . S
H1917 C1861 0.929 . S
H1918 C1862 0.930 . S
H1919 C1863 0.930 . S
H1920 C1866 0.930 . S
H1921 C1869 0.929 . S
H1922 C1874 0.929 . S
H1923 C1875 0.930 . S
H1924 C1882 0.929 . S
H1925 C1883 0.930 . S
H1926 C1884 0.930 . S
H1927 C1885 0.930 . S
H1928 C1887 0.929 . S
H1929 C1888 0.930 . S
H1930 C1889 0.930 . S
H1931 C1890 0.930 . S
H1932 C1894 0.929 . S
H1933 C1896 0.930 . S
H1934 C1902 0.929 . S
H1935 C1903 0.930 . S
Li1936 N1953 1.990 . S
Li1936 O1996 1.956 . S
Li1936 O1997 1.970 . S
Li1936 O1998 1.961 . S
Li1937 N1961 1.990 . S
Li1937 O1996 1.970 . S
Li1937 O1997 1.956 . S
Li1937 O1999 1.961 . S
Li1938 N1983 1.990 . S
Li1938 O1996 1.961 . S
Li1938 O1998 1.956 . S
Li1938 O1999 1.970 . S
Li1939 N1989 1.990 . S
Li1939 O1997 1.961 . S
Li1939 O1998 1.970 . S
Li1939 O1999 1.956 . S
C1940 C1942 1.348 . S
C1940 C1943 1.356 . S
C1940 O1996 1.325 . S
N1941 C1944 1.314 . S
N1941 C1945 1.279 . S
C1942 C1940 1.348 . S
C1942 C1944 1.353 . S
C1942 H2000 0.929 . S
C1943 C1940 1.356 . S
C1943 C1945 1.358 . S
C1943 H2001 0.930 . S
C1944 N1941 1.314 . S
C1944 C1942 1.353 . S
C1944 H2002 0.930 . S
C1945 N1941 1.279 . S
C1945 C1943 1.358 . S
C1945 H2003 0.930 . S
C1946 C1949 1.348 . S
C1946 C1950 1.356 . S
C1946 O1997 1.325 . S
C1947 N1948 1.279 . S
C1947 C1950 1.358 . S
C1947 H2004 0.930 . S
N1948 C1947 1.279 . S
N1948 C1951 1.314 . S
C1949 C1946 1.348 . S
C1949 C1951 1.353 . S
C1949 H2005 0.929 . S
C1950 C1946 1.356 . S
C1950 C1947 1.358 . S
C1950 H2006 0.930 . S
C1951 N1948 1.314 . S
C1951 C1949 1.353 . S
C1951 H2007 0.930 . S
C1952 N1953 1.314 . S
C1952 C1957 1.353 . S
C1952 H1958 0.930 . S
N1953 Li1936 1.990 . S
N1953 C1952 1.314 . S
N1953 C1955 1.279 . S
C1954 C1955 1.358 . S
C1954 C1956 1.356 . S
C1954 H2008 0.930 . S
C1955 N1953 1.279 . S
C1955 C1954 1.358 . S
C1955 H1959 0.930 . S
C1956 C1954 1.356 . S
C1956 C1957 1.348 . S
C1957 C1952 1.353 . S
C1957 C1956 1.348 . S
C1957 H2009 0.929 . S
H1958 C1952 0.930 . S
H1959 C1955 0.930 . S
C1960 N1961 1.314 . S
C1960 C1962 1.353 . S
C1960 H1966 0.930 . S
N1961 Li1937 1.990 . S
N1961 C1960 1.314 . S
N1961 C1964 1.279 . S
C1962 C1960 1.353 . S
C1962 C1965 1.348 . S
C1962 H2010 0.929 . S
C1963 C1964 1.358 . S
C1963 C1965 1.356 . S
C1963 H2011 0.930 . S
C1964 N1961 1.279 . S
C1964 C1963 1.358 . S
C1964 H1967 0.930 . S
C1965 C1962 1.348 . S
C1965 C1963 1.356 . S
H1966 C1960 0.930 . S
H1967 C1964 0.930 . S
C1968 C1970 1.348 . S
C1968 C1971 1.356 . S
C1968 O1998 1.325 . S
N1969 C1972 1.314 . S
N1969 C1973 1.279 . S
C1970 C1968 1.348 . S
C1970 C1972 1.353 . S
C1970 H2012 0.929 . S
C1971 C1968 1.356 . S
C1971 C1973 1.358 . S
C1971 H2013 0.930 . S
C1972 N1969 1.314 . S
C1972 C1970 1.353 . S
C1972 H2014 0.930 . S
C1973 N1969 1.279 . S
C1973 C1971 1.358 . S
C1973 H2015 0.930 . S
C1974 C1975 1.348 . S
C1974 C1976 1.356 . S
C1974 O1999 1.325 . S
C1975 C1974 1.348 . S
C1975 C1977 1.353 . S
C1975 H2016 0.929 . S
C1976 C1974 1.356 . S
C1976 C1978 1.358 . S
C1976 H2017 0.930 . S
C1977 C1975 1.353 . S
C1977 N1979 1.314 . S
C1977 H2018 0.930 . S
C1978 C1976 1.358 . S
C1978 N1979 1.279 . S
C1978 H2019 0.930 . S
N1979 C1977 1.314 . S
N1979 C1978 1.279 . S
C1980 C1982 1.353 . S
C1980 N1983 1.314 . S
C1980 H1986 0.930 . S
C1981 N1983 1.279 . S
C1981 C1984 1.358 . S
C1981 H1987 0.930 . S
C1982 C1980 1.353 . S
C1982 C1985 1.348 . S
C1982 H2020 0.929 . S
N1983 Li1938 1.990 . S
N1983 C1980 1.314 . S
N1983 C1981 1.279 . S
C1984 C1981 1.358 . S
C1984 C1985 1.356 . S
C1984 H2021 0.930 . S
C1985 C1982 1.348 . S
C1985 C1984 1.356 . S
H1986 C1980 0.930 . S
H1987 C1981 0.930 . S
C1988 N1989 1.314 . S
C1988 C1990 1.353 . S
C1988 H1994 0.930 . S
N1989 Li1939 1.990 . S
N1989 C1988 1.314 . S
N1989 C1992 1.279 . S
C1990 C1988 1.353 . S
C1990 C1993 1.348 . S
C1990 H2022 0.929 . S
C1991 C1992 1.358 . S
C1991 C1993 1.356 . S
C1991 H2023 0.930 . S
C1992 N1989 1.279 . S
C1992 C1991 1.358 . S
C1992 H1995 0.930 . S
C1993 C1990 1.348 . S
C1993 C1991 1.356 . S
H1994 C1988 0.930 . S
H1995 C1992 0.930 . S
O1996 Li1936 1.956 . S
O1996 Li1937 1.970 . S
O1996 Li1938 1.961 . S
O1996 C1940 1.325 . S
O1997 Li1936 1.970 . S
O1997 Li1937 1.956 . S
O1997 Li1939 1.961 . S
O1997 C1946 1.325 . S
O1998 Li1936 1.961 . S
O1998 Li1938 1.956 . S
O1998 Li1939 1.970 . S
O1998 C1968 1.325 . S
O1999 Li1937 1.961 . S
O1999 Li1938 1.970 . S
O1999 Li1939 1.956 . S
O1999 C1974 1.325 . S
H2000 C1942 0.929 . S
H2001 C1943 0.930 . S
H2002 C1944 0.930 . S
H2003 C1945 0.930 . S
H2004 C1947 0.930 . S
H2005 C1949 0.929 . S
H2006 C1950 0.930 . S
H2007 C1951 0.930 . S
H2008 C1954 0.930 . S
H2009 C1957 0.929 . S
H2010 C1962 0.929 . S
H2011 C1963 0.930 . S
H2012 C1970 0.929 . S
H2013 C1971 0.930 . S
H2014 C1972 0.930 . S
H2015 C1973 0.930 . S
H2016 C1975 0.929 . S
H2017 C1976 0.930 . S
H2018 C1977 0.930 . S
H2019 C1978 0.930 . S
H2020 C1982 0.929 . S
H2021 C1984 0.930 . S
H2022 C1990 0.929 . S
H2023 C1991 0.930 . S
Li2024 N2041 1.990 . S
Li2024 O2084 1.956 . S
Li2024 O2085 1.970 . S
Li2024 O2086 1.961 . S
Li2025 N2049 1.990 . S
Li2025 O2084 1.970 . S
Li2025 O2085 1.956 . S
Li2025 O2087 1.961 . S
Li2026 N2071 1.990 . S
Li2026 O2084 1.961 . S
Li2026 O2086 1.956 . S
Li2026 O2087 1.970 . S
Li2027 N2077 1.990 . S
Li2027 O2085 1.961 . S
Li2027 O2086 1.970 . S
Li2027 O2087 1.956 . S
C2028 C2030 1.348 . S
C2028 C2031 1.356 . S
C2028 O2084 1.325 . S
N2029 C2032 1.314 . S
N2029 C2033 1.279 . S
C2030 C2028 1.348 . S
C2030 C2032 1.353 . S
C2030 H2088 0.929 . S
C2031 C2028 1.356 . S
C2031 C2033 1.358 . S
C2031 H2089 0.930 . S
C2032 N2029 1.314 . S
C2032 C2030 1.353 . S
C2032 H2090 0.930 . S
C2033 N2029 1.279 . S
C2033 C2031 1.358 . S
C2033 H2091 0.930 . S
C2034 C2037 1.348 . S
C2034 C2038 1.356 . S
C2034 O2085 1.325 . S
C2035 N2036 1.279 . S
C2035 C2038 1.358 . S
C2035 H2092 0.930 . S
N2036 C2035 1.279 . S
N2036 C2039 1.314 . S
C2037 C2034 1.348 . S
C2037 C2039 1.353 . S
C2037 H2093 0.929 . S
C2038 C2034 1.356 . S
C2038 C2035 1.358 . S
C2038 H2094 0.930 . S
C2039 N2036 1.314 . S
C2039 C2037 1.353 . S
C2039 H2095 0.930 . S
C2040 N2041 1.314 . S
C2040 C2045 1.353 . S
C2040 H2046 0.930 . S
N2041 Li2024 1.990 . S
N2041 C2040 1.314 . S
N2041 C2043 1.279 . S
C2042 C2043 1.358 . S
C2042 C2044 1.356 . S
C2042 H2096 0.930 . S
C2043 N2041 1.279 . S
C2043 C2042 1.358 . S
C2043 H2047 0.930 . S
C2044 C2042 1.356 . S
C2044 C2045 1.348 . S
C2045 C2040 1.353 . S
C2045 C2044 1.348 . S
C2045 H2097 0.929 . S
H2046 C2040 0.930 . S
H2047 C2043 0.930 . S
C2048 N2049 1.314 . S
C2048 C2050 1.353 . S
C2048 H2054 0.930 . S
N2049 Li2025 1.990 . S
N2049 C2048 1.314 . S
N2049 C2052 1.279 . S
C2050 C2048 1.353 . S
C2050 C2053 1.348 . S
C2050 H2098 0.929 . S
C2051 C2052 1.358 . S
C2051 C2053 1.356 . S
C2051 H2099 0.930 . S
C2052 N2049 1.279 . S
C2052 C2051 1.358 . S
C2052 H2055 0.930 . S
C2053 C2050 1.348 . S
C2053 C2051 1.356 . S
H2054 C2048 0.930 . S
H2055 C2052 0.930 . S
C2056 C2058 1.348 . S
C2056 C2059 1.356 . S
C2056 O2086 1.325 . S
N2057 C2060 1.314 . S
N2057 C2061 1.279 . S
C2058 C2056 1.348 . S
C2058 C2060 1.353 . S
C2058 H2100 0.929 . S
C2059 C2056 1.356 . S
C2059 C2061 1.358 . S
C2059 H2101 0.930 . S
C2060 N2057 1.314 . S
C2060 C2058 1.353 . S
C2060 H2102 0.930 . S
C2061 N2057 1.279 . S
C2061 C2059 1.358 . S
C2061 H2103 0.930 . S
C2062 C2063 1.348 . S
C2062 C2064 1.356 . S
C2062 O2087 1.325 . S
C2063 C2062 1.348 . S
C2063 C2065 1.353 . S
C2063 H2104 0.929 . S
C2064 C2062 1.356 . S
C2064 C2066 1.358 . S
C2064 H2105 0.930 . S
C2065 C2063 1.353 . S
C2065 N2067 1.314 . S
C2065 H2106 0.930 . S
C2066 C2064 1.358 . S
C2066 N2067 1.279 . S
C2066 H2107 0.930 . S
N2067 C2065 1.314 . S
N2067 C2066 1.279 . S
C2068 C2070 1.353 . S
C2068 N2071 1.314 . S
C2068 H2074 0.930 . S
C2069 N2071 1.279 . S
C2069 C2072 1.358 . S
C2069 H2075 0.930 . S
C2070 C2068 1.353 . S
C2070 C2073 1.348 . S
C2070 H2108 0.929 . S
N2071 Li2026 1.990 . S
N2071 C2068 1.314 . S
N2071 C2069 1.279 . S
C2072 C2069 1.358 . S
C2072 C2073 1.356 . S
C2072 H2109 0.930 . S
C2073 C2070 1.348 . S
C2073 C2072 1.356 . S
H2074 C2068 0.930 . S
H2075 C2069 0.930 . S
C2076 N2077 1.314 . S
C2076 C2078 1.353 . S
C2076 H2082 0.930 . S
N2077 Li2027 1.990 . S
N2077 C2076 1.314 . S
N2077 C2080 1.279 . S
C2078 C2076 1.353 . S
C2078 C2081 1.348 . S
C2078 H2110 0.929 . S
C2079 C2080 1.358 . S
C2079 C2081 1.356 . S
C2079 H2111 0.930 . S
C2080 N2077 1.279 . S
C2080 C2079 1.358 . S
C2080 H2083 0.930 . S
C2081 C2078 1.348 . S
C2081 C2079 1.356 . S
H2082 C2076 0.930 . S
H2083 C2080 0.930 . S
O2084 Li2024 1.956 . S
O2084 Li2025 1.970 . S
O2084 Li2026 1.961 . S
O2084 C2028 1.325 . S
O2085 Li2024 1.970 . S
O2085 Li2025 1.956 . S
O2085 Li2027 1.961 . S
O2085 C2034 1.325 . S
O2086 Li2024 1.961 . S
O2086 Li2026 1.956 . S
O2086 Li2027 1.970 . S
O2086 C2056 1.325 . S
O2087 Li2025 1.961 . S
O2087 Li2026 1.970 . S
O2087 Li2027 1.956 . S
O2087 C2062 1.325 . S
H2088 C2030 0.929 . S
H2089 C2031 0.930 . S
H2090 C2032 0.930 . S
H2091 C2033 0.930 . S
H2092 C2035 0.930 . S
H2093 C2037 0.929 . S
H2094 C2038 0.930 . S
H2095 C2039 0.930 . S
H2096 C2042 0.930 . S
H2097 C2045 0.929 . S
H2098 C2050 0.929 . S
H2099 C2051 0.930 . S
H2100 C2058 0.929 . S
H2101 C2059 0.930 . S
H2102 C2060 0.930 . S
H2103 C2061 0.930 . S
H2104 C2063 0.929 . S
H2105 C2064 0.930 . S
H2106 C2065 0.930 . S
H2107 C2066 0.930 . S
H2108 C2070 0.929 . S
H2109 C2072 0.930 . S
H2110 C2078 0.929 . S
H2111 C2079 0.930 . S
Eu2112 N2141 2.600 . S
Eu2112 N2147 2.562 . S
Eu2112 O2156 2.462 . S
Eu2112 O2157 2.373 . S
Eu2112 O2159 2.432 . S
Eu2112 O2160 2.291 . S
Eu2112 O2164 2.284 1_545 S
Eu2112 O2167 2.372 . S
Eu2112 C2176 2.787 . S
C2113 N2114 1.365 . S
C2113 C2116 1.405 . S
C2113 C2120 1.448 1_556 S
N2114 C2113 1.365 . S
N2114 C2117 1.319 . S
N2114 Eu2123 2.600 1_566 S
C2115 C2117 1.397 . S
C2115 C2118 1.367 . S
C2115 H2135 0.931 . S
C2116 C2113 1.405 . S
C2116 C2118 1.403 . S
C2116 C2122 1.439 . S
C2117 N2114 1.319 . S
C2117 C2115 1.397 . S
C2117 H2128 0.930 . S
C2118 C2115 1.367 . S
C2118 C2116 1.403 . S
C2118 H2139 0.929 . S
C2119 C2120 1.430 . S
C2119 C2121 1.387 1_554 S
C2119 C2125 1.404 . S
C2120 C2113 1.448 1_554 S
C2120 C2119 1.430 . S
C2120 N2124 1.351 . S
C2121 C2119 1.387 1_556 S
C2121 C2122 1.374 . S
C2121 H2136 0.908 1_556 S
C2122 C2116 1.439 . S
C2122 C2121 1.374 . S
C2122 H2137 0.931 . S
Eu2123 N2114 2.600 1_544 S
Eu2123 N2124 2.562 1_545 S
Eu2123 O2158 2.335 1_655 S
Eu2123 O2161 2.372 1_654 S
Eu2123 O2162 2.462 . S
Eu2123 O2163 2.373 1_645 S
Eu2123 O2165 2.432 1_554 S
Eu2123 O2166 2.291 1_655 S
Eu2123 C2187 2.795 . S
N2124 C2120 1.351 . S
N2124 Eu2123 2.562 1_565 S
N2124 C2126 1.325 . S
C2125 C2119 1.404 . S
C2125 C2127 1.366 . S
C2125 H2133 0.930 . S
C2126 N2124 1.325 . S
C2126 C2127 1.416 . S
C2126 H2132 0.929 . S
C2127 C2125 1.366 . S
C2127 C2126 1.416 . S
C2127 H2129 0.930 . S
H2128 C2117 0.930 . S
H2129 C2127 0.930 . S
H2130 C2145 0.930 . S
H2131 C2152 0.919 1_556 S
H2132 C2126 0.929 . S
H2133 C2125 0.930 . S
H2134 C2148 0.892 1_556 S
H2135 C2115 0.931 . S
H2136 C2121 0.908 1_554 S
H2137 C2122 0.931 . S
H2138 C2143 0.931 . S
H2139 C2118 0.929 . S
H2140 C2151 0.930 . S
N2141 Eu2112 2.600 . S
N2141 C2142 1.365 . S
N2141 C2145 1.319 . S
C2142 N2141 1.365 . S
C2142 C2144 1.405 . S
C2142 C2150 1.448 . S
C2143 H2138 0.931 . S
C2143 C2145 1.397 . S
C2143 C2146 1.367 . S
C2144 C2142 1.405 . S
C2144 C2146 1.403 . S
C2144 C2177 1.439 . S
C2145 H2130 0.930 . S
C2145 N2141 1.319 . S
C2145 C2143 1.397 . S
C2146 C2143 1.367 . S
C2146 C2144 1.403 . S
C2146 H2153 0.929 . S
N2147 Eu2112 2.562 . S
N2147 C2148 1.325 . S
N2147 C2150 1.351 . S
C2148 H2134 0.892 1_554 S
C2148 N2147 1.325 . S
C2148 C2152 1.421 . S
C2149 C2150 1.430 . S
C2149 C2151 1.404 . S
C2149 C2178 1.387 . S
C2150 C2142 1.448 . S
C2150 N2147 1.351 . S
C2150 C2149 1.430 . S
C2151 H2140 0.930 . S
C2151 C2149 1.404 . S
C2151 C2152 1.372 . S
C2152 H2131 0.919 1_554 S
C2152 C2148 1.421 . S
C2152 C2151 1.372 . S
H2153 C2146 0.929 . S
H2154 C2177 0.931 . S
H2155 C2178 0.931 . S
O2156 Eu2112 2.462 . S
O2156 C2176 1.252 . S
O2157 Eu2112 2.373 . S
O2157 C2168 1.249 . S
O2158 Eu2123 2.335 1_455 S
O2158 C2168 1.264 . S
O2159 Eu2112 2.432 . S
O2159 C2176 1.268 . S
O2160 Eu2112 2.291 . S
O2160 C2175 1.255 1_554 S
O2161 Eu2123 2.372 1_456 S
O2161 C2175 1.257 . S
O2162 Eu2123 2.462 . S
O2162 C2187 1.317 . S
O2163 Eu2123 2.373 1_465 S
O2163 C2179 1.249 . S
O2164 Eu2112 2.284 1_565 S
O2164 C2179 1.294 . S
O2165 Eu2123 2.432 1_556 S
O2165 C2187 1.213 1_556 S
O2166 Eu2123 2.291 1_455 S
O2166 C2186 1.255 . S
O2167 Eu2112 2.372 . S
O2167 C2186 1.257 . S
C2168 O2157 1.249 . S
C2168 O2158 1.264 . S
C2169 C2172 1.382 . S
C2169 C2174 1.390 . S
C2169 C2176 1.506 . S
C2170 C2171 1.398 . S
C2170 C2174 1.392 1_565 S
C2171 C2170 1.398 . S
C2171 C2173 1.372 1_565 S
C2171 H2188 0.931 . S
C2172 C2169 1.382 . S
C2172 C2173 1.390 . S
C2172 H2189 0.931 . S
C2173 C2171 1.372 1_545 S
C2173 C2172 1.390 . S
C2173 H2190 0.929 . S
C2174 C2169 1.390 . S
C2174 C2170 1.392 1_545 S
C2174 H2191 0.930 . S
C2175 O2160 1.255 1_556 S
C2175 O2161 1.257 . S
C2176 Eu2112 2.787 . S
C2176 O2156 1.252 . S
C2176 O2159 1.268 . S
C2176 C2169 1.506 . S
C2177 C2144 1.439 . S
C2177 H2154 0.931 . S
C2177 C2178 1.374 . S
C2178 C2149 1.387 . S
C2178 H2155 0.931 . S
C2178 C2177 1.374 . S
C2179 O2163 1.249 . S
C2179 O2164 1.294 . S
C2180 C2183 1.382 . S
C2180 C2184 1.390 1_556 S
C2180 C2187 1.499 1_556 S
C2181 C2182 1.398 1_554 S
C2181 C2184 1.392 . S
C2182 C2181 1.398 1_556 S
C2182 C2185 1.372 . S
C2182 H2192 0.931 . S
C2183 C2180 1.382 . S
C2183 C2185 1.390 . S
C2183 H2193 0.931 . S
C2184 C2180 1.390 1_554 S
C2184 C2181 1.392 . S
C2184 H2194 0.930 . S
C2185 C2182 1.372 . S
C2185 C2183 1.390 . S
C2185 H2195 0.929 . S
C2186 O2166 1.255 . S
C2186 O2167 1.257 . S
C2187 Eu2123 2.795 . S
C2187 O2162 1.317 . S
C2187 O2165 1.213 1_554 S
C2187 C2180 1.499 1_554 S
H2188 C2171 0.931 . S
H2189 C2172 0.931 . S
H2190 C2173 0.929 . S
H2191 C2174 0.930 . S
H2192 C2182 0.931 . S
H2193 C2183 0.931 . S
H2194 C2184 0.930 . S
H2195 C2185 0.929 . S
Eu2196 N2225 2.600 . S
Eu2196 N2231 2.562 . S
Eu2196 O2240 2.462 . S
Eu2196 O2241 2.373 . S
Eu2196 O2243 2.432 . S
Eu2196 O2244 2.291 . S
Eu2196 O2248 2.335 . S
Eu2196 O2251 2.372 . S
Eu2196 C2260 2.787 . S
C2197 N2198 1.365 . S
C2197 C2200 1.405 . S
C2197 C2204 1.448 . S
N2198 C2197 1.365 . S
N2198 C2201 1.319 . S
N2198 Eu2207 2.600 . S
C2199 C2201 1.397 . S
C2199 C2202 1.367 . S
C2199 H2219 0.931 . S
C2200 C2197 1.405 . S
C2200 C2202 1.403 . S
C2200 C2206 1.439 . S
C2201 N2198 1.319 . S
C2201 C2199 1.397 . S
C2201 H2212 0.930 . S
C2202 C2199 1.367 . S
C2202 C2200 1.403 . S
C2202 H2223 0.929 . S
C2203 C2204 1.430 . S
C2203 C2205 1.387 . S
C2203 C2209 1.404 . S
C2204 C2197 1.448 . S
C2204 C2203 1.430 . S
C2204 N2208 1.351 . S
C2205 C2203 1.387 . S
C2205 C2206 1.374 . S
C2205 H2220 0.931 . S
C2206 C2200 1.439 . S
C2206 C2205 1.374 . S
C2206 H2221 0.931 . S
Eu2207 N2198 2.600 . S
Eu2207 N2208 2.562 . S
Eu2207 O2242 2.335 . S
Eu2207 O2245 2.372 . S
Eu2207 O2246 2.462 . S
Eu2207 O2247 2.373 . S
Eu2207 O2249 2.432 . S
Eu2207 O2250 2.291 . S
Eu2207 C2271 2.787 . S
N2208 C2204 1.351 . S
N2208 Eu2207 2.562 . S
N2208 C2210 1.325 . S
C2209 C2203 1.404 . S
C2209 C2211 1.366 . S
C2209 H2217 0.930 . S
C2210 N2208 1.325 . S
C2210 C2211 1.416 . S
C2210 H2216 0.929 . S
C2211 C2209 1.366 . S
C2211 C2210 1.416 . S
C2211 H2213 0.930 . S
H2212 C2201 0.930 . S
H2213 C2211 0.930 . S
H2214 C2229 0.930 . S
H2215 C2236 0.930 . S
H2216 C2210 0.929 . S
H2217 C2209 0.930 . S
H2218 C2232 0.929 . S
H2219 C2199 0.931 . S
H2220 C2205 0.931 . S
H2221 C2206 0.931 . S
H2222 C2227 0.931 . S
H2223 C2202 0.929 . S
H2224 C2235 0.930 . S
N2225 Eu2196 2.600 . S
N2225 C2226 1.365 . S
N2225 C2229 1.319 . S
C2226 N2225 1.365 . S
C2226 C2228 1.405 . S
C2226 C2234 1.448 . S
C2227 H2222 0.931 . S
C2227 C2229 1.397 . S
C2227 C2230 1.367 . S
C2228 C2226 1.405 . S
C2228 C2230 1.403 . S
C2228 C2261 1.439 . S
C2229 H2214 0.930 . S
C2229 N2225 1.319 . S
C2229 C2227 1.397 . S
C2230 C2227 1.367 . S
C2230 C2228 1.403 . S
C2230 H2237 0.929 . S
N2231 Eu2196 2.562 . S
N2231 C2232 1.325 . S
N2231 C2234 1.351 . S
C2232 H2218 0.929 . S
C2232 N2231 1.325 . S
C2232 C2236 1.416 . S
C2233 C2234 1.430 . S
C2233 C2235 1.404 . S
C2233 C2262 1.387 . S
C2234 C2226 1.448 . S
C2234 N2231 1.351 . S
C2234 C2233 1.430 . S
C2235 H2224 0.930 . S
C2235 C2233 1.404 . S
C2235 C2236 1.366 . S
C2236 H2215 0.930 . S
C2236 C2232 1.416 . S
C2236 C2235 1.366 . S
H2237 C2230 0.929 . S
H2238 C2261 0.931 . S
H2239 C2262 0.931 . S
O2240 Eu2196 2.462 . S
O2240 C2260 1.252 . S
O2241 Eu2196 2.373 . S
O2241 C2252 1.249 . S
O2242 Eu2207 2.335 . S
O2242 C2252 1.264 . S
O2243 Eu2196 2.432 . S
O2243 C2260 1.268 . S
O2244 Eu2196 2.291 . S
O2244 C2259 1.255 . S
O2245 Eu2207 2.372 . S
O2245 C2259 1.257 . S
O2246 Eu2207 2.462 . S
O2246 C2271 1.252 . S
O2247 Eu2207 2.373 . S
O2247 C2263 1.249 . S
O2248 Eu2196 2.335 . S
O2248 C2263 1.264 . S
O2249 Eu2207 2.432 . S
O2249 C2271 1.268 . S
O2250 Eu2207 2.291 . S
O2250 C2270 1.255 . S
O2251 Eu2196 2.372 . S
O2251 C2270 1.257 . S
C2252 O2241 1.249 . S
C2252 O2242 1.264 . S
C2253 C2256 1.382 . S
C2253 C2258 1.390 . S
C2253 C2260 1.506 . S
C2254 C2255 1.398 . S
C2254 C2258 1.392 . S
C2255 C2254 1.398 . S
C2255 C2257 1.372 . S
C2255 H2272 0.931 . S
C2256 C2253 1.382 . S
C2256 C2257 1.390 . S
C2256 H2273 0.931 . S
C2257 C2255 1.372 . S
C2257 C2256 1.390 . S
C2257 H2274 0.929 . S
C2258 C2253 1.390 . S
C2258 C2254 1.392 . S
C2258 H2275 0.930 . S
C2259 O2244 1.255 . S
C2259 O2245 1.257 . S
C2260 Eu2196 2.787 . S
C2260 O2240 1.252 . S
C2260 O2243 1.268 . S
C2260 C2253 1.506 . S
C2261 C2228 1.439 . S
C2261 H2238 0.931 . S
C2261 C2262 1.374 . S
C2262 C2233 1.387 . S
C2262 H2239 0.931 . S
C2262 C2261 1.374 . S
C2263 O2247 1.249 . S
C2263 O2248 1.264 . S
C2264 C2267 1.382 . S
C2264 C2268 1.390 . S
C2264 C2271 1.506 . S
C2265 C2266 1.398 . S
C2265 C2268 1.392 . S
C2266 C2265 1.398 . S
C2266 C2269 1.372 . S
C2266 H2276 0.931 . S
C2267 C2264 1.382 . S
C2267 C2269 1.390 . S
C2267 H2277 0.931 . S
C2268 C2264 1.390 . S
C2268 C2265 1.392 . S
C2268 H2278 0.930 . S
C2269 C2266 1.372 . S
C2269 C2267 1.390 . S
C2269 H2279 0.929 . S
C2270 O2250 1.255 . S
C2270 O2251 1.257 . S
C2271 Eu2207 2.787 . S
C2271 O2246 1.252 . S
C2271 O2249 1.268 . S
C2271 C2264 1.506 . S
H2272 C2255 0.931 . S
H2273 C2256 0.931 . S
H2274 C2257 0.929 . S
H2275 C2258 0.930 . S
H2276 C2266 0.931 . S
H2277 C2267 0.931 . S
H2278 C2268 0.930 . S
H2279 C2269 0.929 . S
Eu2280 N2309 2.600 1_545 S
Eu2280 N2315 2.562 1_545 S
Eu2280 O2324 2.462 . S
Eu2280 O2325 2.373 1_545 S
Eu2280 O2327 2.432 . S
Eu2280 O2328 2.291 . S
Eu2280 O2332 2.335 . S
Eu2280 O2335 2.372 . S
Eu2280 C2344 2.787 . S
C2281 N2282 1.365 . S
C2281 C2284 1.405 . S
C2281 C2288 1.448 . S
N2282 C2281 1.365 . S
N2282 C2285 1.319 . S
N2282 Eu2291 2.600 . S
C2283 C2285 1.397 . S
C2283 C2286 1.367 . S
C2283 H2303 0.931 . S
C2284 C2281 1.405 . S
C2284 C2286 1.403 . S
C2284 C2290 1.439 . S
C2285 N2282 1.319 . S
C2285 C2283 1.397 . S
C2285 H2296 0.930 . S
C2286 C2283 1.367 . S
C2286 C2284 1.403 . S
C2286 H2307 0.929 . S
C2287 C2288 1.430 . S
C2287 C2289 1.387 . S
C2287 C2293 1.404 . S
C2288 C2281 1.448 . S
C2288 C2287 1.430 . S
C2288 N2292 1.351 . S
C2289 C2287 1.387 . S
C2289 C2290 1.374 . S
C2289 H2304 0.931 . S
C2290 C2284 1.439 . S
C2290 C2289 1.374 . S
C2290 H2305 0.931 . S
Eu2291 N2282 2.600 . S
Eu2291 N2292 2.562 . S
Eu2291 O2326 2.335 1_545 S
Eu2291 O2329 2.372 . S
Eu2291 O2330 2.462 . S
Eu2291 O2331 2.373 . S
Eu2291 O2333 2.432 . S
Eu2291 O2334 2.291 . S
Eu2291 C2355 2.787 . S
N2292 C2288 1.351 . S
N2292 Eu2291 2.562 . S
N2292 C2294 1.325 . S
C2293 C2287 1.404 . S
C2293 C2295 1.366 . S
C2293 H2301 0.930 . S
C2294 N2292 1.325 . S
C2294 C2295 1.416 . S
C2294 H2300 0.929 . S
C2295 C2293 1.366 . S
C2295 C2294 1.416 . S
C2295 H2297 0.930 . S
H2296 C2285 0.930 . S
H2297 C2295 0.930 . S
H2298 C2313 0.878 1_545 S
H2299 C2320 0.930 . S
H2300 C2294 0.929 . S
H2301 C2293 0.930 . S
H2302 C2316 0.971 . S
H2303 C2283 0.931 . S
H2304 C2289 0.931 . S
H2305 C2290 0.931 . S
H2306 C2311 0.931 . S
H2307 C2286 0.929 . S
H2308 C2319 0.930 . S
N2309 Eu2280 2.600 1_565 S
N2309 C2310 1.365 . S
N2309 C2313 1.318 . S
C2310 N2309 1.365 . S
C2310 C2312 1.405 . S
C2310 C2318 1.448 . S
C2311 H2306 0.931 . S
C2311 C2313 1.451 . S
C2311 C2314 1.367 . S
C2312 C2310 1.405 . S
C2312 C2314 1.403 . S
C2312 C2345 1.439 . S
C2313 H2298 0.878 1_565 S
C2313 N2309 1.318 . S
C2313 C2311 1.451 . S
C2314 C2311 1.367 . S
C2314 C2312 1.403 . S
C2314 H2321 0.929 . S
N2315 Eu2280 2.562 1_565 S
N2315 C2316 1.325 . S
N2315 C2318 1.351 . S
C2316 H2302 0.971 . S
C2316 N2315 1.325 . S
C2316 C2320 1.416 . S
C2317 C2318 1.430 . S
C2317 C2319 1.404 . S
C2317 C2346 1.387 . S
C2318 C2310 1.448 . S
C2318 N2315 1.351 . S
C2318 C2317 1.430 . S
C2319 H2308 0.930 . S
C2319 C2317 1.404 . S
C2319 C2320 1.366 . S
C2320 H2299 0.930 . S
C2320 C2316 1.416 . S
C2320 C2319 1.366 . S
H2321 C2314 0.929 . S
H2322 C2345 0.931 . S
H2323 C2346 0.931 . S
O2324 Eu2280 2.462 . S
O2324 C2344 1.252 . S
O2325 Eu2280 2.373 1_565 S
O2325 C2336 1.249 . S
O2326 Eu2291 2.335 1_565 S
O2326 C2336 1.264 . S
O2327 Eu2280 2.432 . S
O2327 C2344 1.268 . S
O2328 Eu2280 2.291 . S
O2328 C2343 1.255 . S
O2329 Eu2291 2.372 . S
O2329 C2343 1.257 . S
O2330 Eu2291 2.462 . S
O2330 C2355 1.252 . S
O2331 Eu2291 2.373 . S
O2331 C2347 1.249 . S
O2332 Eu2280 2.335 . S
O2332 C2347 1.264 . S
O2333 Eu2291 2.432 . S
O2333 C2355 1.268 . S
O2334 Eu2291 2.291 . S
O2334 C2354 1.255 . S
O2335 Eu2280 2.372 . S
O2335 C2354 1.257 . S
C2336 O2325 1.249 . S
C2336 O2326 1.264 . S
C2337 C2340 1.382 . S
C2337 C2342 1.390 . S
C2337 C2344 1.506 . S
C2338 C2339 1.398 . S
C2338 C2342 1.392 . S
C2339 C2338 1.398 . S
C2339 C2341 1.372 . S
C2339 H2356 0.931 . S
C2340 C2337 1.382 . S
C2340 C2341 1.390 . S
C2340 H2357 0.931 . S
C2341 C2339 1.372 . S
C2341 C2340 1.390 . S
C2341 H2358 0.929 . S
C2342 C2337 1.390 . S
C2342 C2338 1.392 . S
C2342 H2359 0.930 . S
C2343 O2328 1.255 . S
C2343 O2329 1.257 . S
C2344 Eu2280 2.787 . S
C2344 O2324 1.252 . S
C2344 O2327 1.268 . S
C2344 C2337 1.506 . S
C2345 C2312 1.439 . S
C2345 H2322 0.931 . S
C2345 C2346 1.374 . S
C2346 C2317 1.387 . S
C2346 H2323 0.931 . S
C2346 C2345 1.374 . S
C2347 O2331 1.249 . S
C2347 O2332 1.264 . S
C2348 C2351 1.382 . S
C2348 C2352 1.390 . S
C2348 C2355 1.506 1_565 S
C2349 C2350 1.398 . S
C2349 C2352 1.392 . S
C2350 C2349 1.398 . S
C2350 C2353 1.372 . S
C2350 H2360 0.931 . S
C2351 C2348 1.382 . S
C2351 C2353 1.390 . S
C2351 H2361 0.931 . S
C2352 C2348 1.390 . S
C2352 C2349 1.392 . S
C2352 H2362 0.930 . S
C2353 C2350 1.372 . S
C2353 C2351 1.390 . S
C2353 H2363 0.929 . S
C2354 O2334 1.255 . S
C2354 O2335 1.257 . S
C2355 Eu2291 2.787 . S
C2355 O2330 1.252 . S
C2355 O2333 1.268 . S
C2355 C2348 1.506 1_545 S
H2356 C2339 0.931 . S
H2357 C2340 0.931 . S
H2358 C2341 0.929 . S
H2359 C2342 0.930 . S
H2360 C2350 0.931 . S
H2361 C2351 0.931 . S
H2362 C2352 0.930 . S
H2363 C2353 0.929 . S
Eu2364 N2393 2.600 . S
Eu2364 N2399 2.562 . S
Eu2364 O2408 2.462 . S
Eu2364 O2409 2.373 . S
Eu2364 O2411 2.432 . S
Eu2364 O2412 2.291 . S
Eu2364 O2416 2.335 . S
Eu2364 O2419 2.372 . S
Eu2364 C2428 2.787 . S
C2365 N2366 1.365 . S
C2365 C2368 1.405 . S
C2365 C2372 1.448 . S
N2366 C2365 1.365 . S
N2366 C2369 1.319 . S
N2366 Eu2375 2.600 . S
C2367 C2369 1.397 . S
C2367 C2370 1.367 . S
C2367 H2387 0.931 . S
C2368 C2365 1.405 . S
C2368 C2370 1.403 . S
C2368 C2374 1.439 . S
C2369 N2366 1.319 . S
C2369 C2367 1.397 . S
C2369 H2380 0.930 . S
C2370 C2367 1.367 . S
C2370 C2368 1.403 . S
C2370 H2391 0.929 . S
C2371 C2372 1.430 . S
C2371 C2373 1.387 . S
C2371 C2377 1.404 . S
C2372 C2365 1.448 . S
C2372 C2371 1.430 . S
C2372 N2376 1.351 . S
C2373 C2371 1.387 . S
C2373 C2374 1.374 . S
C2373 H2388 0.931 . S
C2374 C2368 1.439 . S
C2374 C2373 1.374 . S
C2374 H2389 0.931 . S
Eu2375 N2366 2.600 . S
Eu2375 N2376 2.562 . S
Eu2375 O2410 2.335 . S
Eu2375 O2413 2.372 . S
Eu2375 O2414 2.462 . S
Eu2375 O2415 2.373 . S
Eu2375 O2417 2.432 . S
Eu2375 O2418 2.291 . S
Eu2375 C2439 2.787 . S
N2376 C2372 1.351 . S
N2376 Eu2375 2.562 . S
N2376 C2378 1.325 . S
C2377 C2371 1.404 . S
C2377 C2379 1.366 . S
C2377 H2385 0.930 . S
C2378 N2376 1.325 . S
C2378 C2379 1.416 . S
C2378 H2384 0.929 . S
C2379 C2377 1.366 . S
C2379 C2378 1.416 . S
C2379 H2381 0.930 . S
H2380 C2369 0.930 . S
H2381 C2379 0.930 . S
H2382 C2397 0.930 . S
H2383 C2404 0.930 . S
H2384 C2378 0.929 . S
H2385 C2377 0.930 . S
H2386 C2400 0.929 . S
H2387 C2367 0.931 . S
H2388 C2373 0.931 . S
H2389 C2374 0.931 . S
H2390 C2395 0.931 . S
H2391 C2370 0.929 . S
H2392 C2403 0.930 . S
N2393 Eu2364 2.600 . S
N2393 C2394 1.365 . S
N2393 C2397 1.319 . S
C2394 N2393 1.365 . S
C2394 C2396 1.405 . S
C2394 C2402 1.448 . S
C2395 H2390 0.931 . S
C2395 C2397 1.397 . S
C2395 C2398 1.367 . S
C2396 C2394 1.405 . S
C2396 C2398 1.403 . S
C2396 C2429 1.439 . S
C2397 H2382 0.930 . S
C2397 N2393 1.319 . S
C2397 C2395 1.397 . S
C2398 C2395 1.367 . S
C2398 C2396 1.403 . S
C2398 H2405 0.929 . S
N2399 Eu2364 2.562 . S
N2399 C2400 1.325 . S
N2399 C2402 1.351 . S
C2400 H2386 0.929 . S
C2400 N2399 1.325 . S
C2400 C2404 1.416 . S
C2401 C2402 1.430 . S
C2401 C2403 1.404 . S
C2401 C2430 1.387 . S
C2402 C2394 1.448 . S
C2402 N2399 1.351 . S
C2402 C2401 1.430 . S
C2403 H2392 0.930 . S
C2403 C2401 1.404 . S
C2403 C2404 1.366 . S
C2404 H2383 0.930 . S
C2404 C2400 1.416 . S
C2404 C2403 1.366 . S
H2405 C2398 0.929 . S
H2406 C2429 0.931 . S
H2407 C2430 0.931 . S
O2408 Eu2364 2.462 . S
O2408 C2428 1.252 . S
O2409 Eu2364 2.373 . S
O2409 C2420 1.249 . S
O2410 Eu2375 2.335 . S
O2410 C2420 1.264 . S
O2411 Eu2364 2.432 . S
O2411 C2428 1.268 . S
O2412 Eu2364 2.291 . S
O2412 C2427 1.255 . S
O2413 Eu2375 2.372 . S
O2413 C2427 1.257 . S
O2414 Eu2375 2.462 . S
O2414 C2439 1.252 . S
O2415 Eu2375 2.373 . S
O2415 C2431 1.249 . S
O2416 Eu2364 2.335 . S
O2416 C2431 1.264 . S
O2417 Eu2375 2.432 . S
O2417 C2439 1.268 . S
O2418 Eu2375 2.291 . S
O2418 C2438 1.255 . S
O2419 Eu2364 2.372 . S
O2419 C2438 1.257 . S
C2420 O2409 1.249 . S
C2420 O2410 1.264 . S
C2421 C2424 1.382 . S
C2421 C2426 1.390 . S
C2421 C2428 1.506 . S
C2422 C2423 1.398 . S
C2422 C2426 1.392 . S
C2423 C2422 1.398 . S
C2423 C2425 1.372 . S
C2423 H2440 0.931 . S
C2424 C2421 1.382 . S
C2424 C2425 1.390 . S
C2424 H2441 0.931 . S
C2425 C2423 1.372 . S
C2425 C2424 1.390 . S
C2425 H2442 0.929 . S
C2426 C2421 1.390 . S
C2426 C2422 1.392 . S
C2426 H2443 0.930 . S
C2427 O2412 1.255 . S
C2427 O2413 1.257 . S
C2428 Eu2364 2.787 . S
C2428 O2408 1.252 . S
C2428 O2411 1.268 . S
C2428 C2421 1.506 . S
C2429 C2396 1.439 . S
C2429 H2406 0.931 . S
C2429 C2430 1.374 . S
C2430 C2401 1.387 . S
C2430 H2407 0.931 . S
C2430 C2429 1.374 . S
C2431 O2415 1.249 . S
C2431 O2416 1.264 . S
C2432 C2435 1.382 . S
C2432 C2436 1.390 . S
C2432 C2439 1.506 . S
C2433 C2434 1.398 . S
C2433 C2436 1.392 . S
C2434 C2433 1.398 . S
C2434 C2437 1.372 . S
C2434 H2444 0.931 . S
C2435 C2432 1.382 . S
C2435 C2437 1.390 . S
C2435 H2445 0.931 . S
C2436 C2432 1.390 . S
C2436 C2433 1.392 . S
C2436 H2446 0.930 . S
C2437 C2434 1.372 . S
C2437 C2435 1.390 . S
C2437 H2447 0.929 . S
C2438 O2418 1.255 . S
C2438 O2419 1.257 . S
C2439 Eu2375 2.787 . S
C2439 O2414 1.252 . S
C2439 O2417 1.268 . S
C2439 C2432 1.506 . S
H2440 C2423 0.931 . S
H2441 C2424 0.931 . S
H2442 C2425 0.929 . S
H2443 C2426 0.930 . S
H2444 C2434 0.931 . S
H2445 C2435 0.931 . S
H2446 C2436 0.930 . S
H2447 C2437 0.929 . S
Eu2448 N2477 2.600 . S
Eu2448 N2483 2.562 . S
Eu2448 O2492 2.462 . S
Eu2448 O2493 2.373 1_565 S
Eu2448 O2495 2.432 . S
Eu2448 O2496 2.278 1_565 S
Eu2448 O2500 2.335 1_565 S
Eu2448 O2503 2.372 1_565 S
Eu2448 C2512 2.787 . S
C2449 N2450 1.365 1_455 S
C2449 C2452 1.405 1_455 S
C2449 C2456 1.448 . S
N2450 C2449 1.365 1_655 S
N2450 C2453 1.319 . S
N2450 Eu2459 2.600 1_655 S
C2451 C2453 1.397 . S
C2451 C2454 1.367 . S
C2451 H2471 0.931 . S
C2452 C2449 1.405 1_655 S
C2452 C2454 1.403 . S
C2452 C2458 1.439 1_655 S
C2453 N2450 1.319 . S
C2453 C2451 1.397 . S
C2453 H2464 0.930 . S
C2454 C2451 1.367 . S
C2454 C2452 1.403 . S
C2454 H2475 0.929 . S
C2455 C2456 1.430 . S
C2455 C2457 1.387 . S
C2455 C2461 1.404 . S
C2456 C2449 1.448 . S
C2456 C2455 1.430 . S
C2456 N2460 1.351 . S
C2457 C2455 1.387 . S
C2457 C2458 1.374 . S
C2457 H2472 0.931 . S
C2458 C2452 1.439 1_455 S
C2458 C2457 1.374 . S
C2458 H2473 0.931 1_455 S
Eu2459 N2450 2.600 1_455 S
Eu2459 N2460 2.562 . S
Eu2459 O2494 2.335 . S
Eu2459 O2497 2.372 1_455 S
Eu2459 O2498 2.462 . S
Eu2459 O2499 2.373 . S
Eu2459 O2501 2.432 1_455 S
Eu2459 O2502 2.291 . S
Eu2459 C2523 2.787 . S
N2460 C2456 1.351 . S
N2460 Eu2459 2.562 . S
N2460 C2462 1.325 . S
C2461 C2455 1.404 . S
C2461 C2463 1.366 . S
C2461 H2469 0.930 . S
C2462 N2460 1.325 . S
C2462 C2463 1.416 . S
C2462 H2468 0.929 . S
C2463 C2461 1.366 . S
C2463 C2462 1.416 . S
C2463 H2465 0.930 . S
H2464 C2453 0.930 . S
H2465 C2463 0.930 . S
H2466 C2481 0.895 1_545 S
H2467 C2488 0.930 . S
H2468 C2462 0.929 . S
H2469 C2461 0.930 . S
H2470 C2484 0.909 1_655 S
H2471 C2451 0.931 . S
H2472 C2457 0.931 . S
H2473 C2458 0.931 1_655 S
H2474 C2479 0.931 . S
H2475 C2454 0.929 . S
H2476 C2487 0.946 . S
N2477 Eu2448 2.600 . S
N2477 C2478 1.365 . S
N2477 C2481 1.319 . S
C2478 N2477 1.365 . S
C2478 C2480 1.405 . S
C2478 C2486 1.448 . S
C2479 H2474 0.931 . S
C2479 C2481 1.397 . S
C2479 C2482 1.367 . S
C2480 C2478 1.405 . S
C2480 C2482 1.403 . S
C2480 C2513 1.439 . S
C2481 H2466 0.895 1_565 S
C2481 N2477 1.319 . S
C2481 C2479 1.397 . S
C2482 C2479 1.367 . S
C2482 C2480 1.403 . S
C2482 H2489 0.929 . S
N2483 Eu2448 2.562 . S
N2483 C2484 1.355 . S
N2483 C2486 1.351 . S
C2484 H2470 0.909 1_455 S
C2484 N2483 1.355 . S
C2484 C2488 1.404 1_455 S
C2485 C2486 1.430 . S
C2485 C2487 1.361 1_455 S
C2485 C2514 1.387 . S
C2486 C2478 1.448 . S
C2486 N2483 1.351 . S
C2486 C2485 1.430 . S
C2487 H2476 0.946 . S
C2487 C2485 1.361 1_655 S
C2487 C2488 1.395 . S
C2488 H2467 0.930 . S
C2488 C2484 1.404 1_655 S
C2488 C2487 1.395 . S
H2489 C2482 0.929 . S
H2490 C2513 0.931 . S
H2491 C2514 0.931 . S
O2492 Eu2448 2.462 . S
O2492 C2512 1.252 . S
O2493 Eu2448 2.373 1_545 S
O2493 C2504 1.249 . S
O2494 Eu2459 2.335 . S
O2494 C2504 1.264 . S
O2495 Eu2448 2.432 . S
O2495 C2512 1.268 . S
O2496 Eu2448 2.278 1_545 S
O2496 C2511 1.278 1_455 S
O2497 Eu2459 2.372 1_655 S
O2497 C2511 1.257 . S
O2498 Eu2459 2.462 . S
O2498 C2523 1.252 . S
O2499 Eu2459 2.373 . S
O2499 C2515 1.249 . S
O2500 Eu2448 2.335 1_545 S
O2500 C2515 1.264 . S
O2501 Eu2459 2.432 1_655 S
O2501 C2523 1.268 1_655 S
O2502 Eu2459 2.291 . S
O2502 C2522 1.255 . S
O2503 Eu2448 2.372 1_545 S
O2503 C2522 1.257 . S
C2504 O2493 1.249 . S
C2504 O2494 1.264 . S
C2505 C2508 1.382 . S
C2505 C2510 1.390 . S
C2505 C2512 1.506 . S
C2506 C2507 1.398 . S
C2506 C2510 1.392 . S
C2507 C2506 1.398 . S
C2507 C2509 1.372 . S
C2507 H2524 0.931 . S
C2508 C2505 1.382 . S
C2508 C2509 1.390 . S
C2508 H2525 0.931 . S
C2509 C2507 1.372 . S
C2509 C2508 1.390 . S
C2509 H2526 0.929 . S
C2510 C2505 1.390 . S
C2510 C2506 1.392 . S
C2510 H2527 0.930 . S
C2511 O2496 1.278 1_655 S
C2511 O2497 1.257 . S
C2512 Eu2448 2.787 . S
C2512 O2492 1.252 . S
C2512 O2495 1.268 . S
C2512 C2505 1.506 . S
C2513 C2480 1.439 . S
C2513 H2490 0.931 . S
C2513 C2514 1.374 . S
C2514 C2485 1.387 . S
C2514 H2491 0.931 . S
C2514 C2513 1.374 . S
C2515 O2499 1.249 . S
C2515 O2500 1.264 . S
C2516 C2519 1.382 1_455 S
C2516 C2520 1.390 . S
C2516 C2523 1.506 . S
C2517 C2518 1.396 1_455 S
C2517 C2520 1.392 . S
C2518 C2517 1.396 1_655 S
C2518 C2521 1.373 . S
C2518 H2528 0.932 . S
C2519 C2516 1.382 1_655 S
C2519 C2521 1.390 . S
C2519 H2529 0.931 . S
C2520 C2516 1.390 . S
C2520 C2517 1.392 . S
C2520 H2530 0.930 . S
C2521 C2518 1.373 . S
C2521 C2519 1.390 . S
C2521 H2531 0.929 . S
C2522 O2502 1.255 . S
C2522 O2503 1.257 . S
C2523 Eu2459 2.787 . S
C2523 O2498 1.252 . S
C2523 O2501 1.268 1_455 S
C2523 C2516 1.506 . S
H2524 C2507 0.931 . S
H2525 C2508 0.931 . S
H2526 C2509 0.929 . S
H2527 C2510 0.930 . S
H2528 C2518 0.932 . S
H2529 C2519 0.931 . S
H2530 C2520 0.930 . S
H2531 C2521 0.929 . S
Eu2532 N2561 2.600 . S
Eu2532 N2567 2.562 . S
Eu2532 O2576 2.462 . S
Eu2532 O2577 2.373 . S
Eu2532 O2579 2.432 . S
Eu2532 O2580 2.291 . S
Eu2532 O2584 2.335 . S
Eu2532 O2587 2.372 . S
Eu2532 C2596 2.787 . S
C2533 N2534 1.365 . S
C2533 C2536 1.405 . S
C2533 C2540 1.448 . S
N2534 C2533 1.365 . S
N2534 C2537 1.319 . S
N2534 Eu2543 2.600 . S
C2535 C2537 1.397 . S
C2535 C2538 1.367 . S
C2535 H2555 0.931 . S
C2536 C2533 1.405 . S
C2536 C2538 1.403 . S
C2536 C2542 1.439 . S
C2537 N2534 1.319 . S
C2537 C2535 1.397 . S
C2537 H2548 0.930 . S
C2538 C2535 1.367 . S
C2538 C2536 1.403 . S
C2538 H2559 0.929 . S
C2539 C2540 1.430 . S
C2539 C2541 1.387 . S
C2539 C2545 1.404 . S
C2540 C2533 1.448 . S
C2540 C2539 1.430 . S
C2540 N2544 1.351 . S
C2541 C2539 1.387 . S
C2541 C2542 1.374 . S
C2541 H2556 0.931 . S
C2542 C2536 1.439 . S
C2542 C2541 1.374 . S
C2542 H2557 0.931 . S
Eu2543 N2534 2.600 . S
Eu2543 N2544 2.562 . S
Eu2543 O2578 2.335 . S
Eu2543 O2581 2.372 . S
Eu2543 O2582 2.462 . S
Eu2543 O2583 2.373 . S
Eu2543 O2585 2.432 . S
Eu2543 O2586 2.291 . S
Eu2543 C2607 2.787 . S
N2544 C2540 1.351 . S
N2544 Eu2543 2.562 . S
N2544 C2546 1.325 . S
C2545 C2539 1.404 . S
C2545 C2547 1.366 . S
C2545 H2553 0.930 . S
C2546 N2544 1.325 . S
C2546 C2547 1.416 . S
C2546 H2552 0.929 . S
C2547 C2545 1.366 . S
C2547 C2546 1.416 . S
C2547 H2549 0.930 . S
H2548 C2537 0.930 . S
H2549 C2547 0.930 . S
H2550 C2565 0.930 . S
H2551 C2572 0.930 . S
H2552 C2546 0.929 . S
H2553 C2545 0.930 . S
H2554 C2568 0.929 . S
H2555 C2535 0.931 . S
H2556 C2541 0.931 . S
H2557 C2542 0.931 . S
H2558 C2563 0.931 . S
H2559 C2538 0.929 . S
H2560 C2571 0.930 . S
N2561 Eu2532 2.600 . S
N2561 C2562 1.365 . S
N2561 C2565 1.319 . S
C2562 N2561 1.365 . S
C2562 C2564 1.405 . S
C2562 C2570 1.448 . S
C2563 H2558 0.931 . S
C2563 C2565 1.397 . S
C2563 C2566 1.367 . S
C2564 C2562 1.405 . S
C2564 C2566 1.403 . S
C2564 C2597 1.439 . S
C2565 H2550 0.930 . S
C2565 N2561 1.319 . S
C2565 C2563 1.397 . S
C2566 C2563 1.367 . S
C2566 C2564 1.403 . S
C2566 H2573 0.929 . S
N2567 Eu2532 2.562 . S
N2567 C2568 1.325 . S
N2567 C2570 1.351 . S
C2568 H2554 0.929 . S
C2568 N2567 1.325 . S
C2568 C2572 1.416 . S
C2569 C2570 1.430 . S
C2569 C2571 1.404 . S
C2569 C2598 1.387 . S
C2570 C2562 1.448 . S
C2570 N2567 1.351 . S
C2570 C2569 1.430 . S
C2571 H2560 0.930 . S
C2571 C2569 1.404 . S
C2571 C2572 1.366 . S
C2572 H2551 0.930 . S
C2572 C2568 1.416 . S
C2572 C2571 1.366 . S
H2573 C2566 0.929 . S
H2574 C2597 0.931 . S
H2575 C2598 0.931 . S
O2576 Eu2532 2.462 . S
O2576 C2596 1.252 . S
O2577 Eu2532 2.373 . S
O2577 C2588 1.249 . S
O2578 Eu2543 2.335 . S
O2578 C2588 1.264 . S
O2579 Eu2532 2.432 . S
O2579 C2596 1.268 . S
O2580 Eu2532 2.291 . S
O2580 C2595 1.255 . S
O2581 Eu2543 2.372 . S
O2581 C2595 1.257 . S
O2582 Eu2543 2.462 . S
O2582 C2607 1.252 . S
O2583 Eu2543 2.373 . S
O2583 C2599 1.249 . S
O2584 Eu2532 2.335 . S
O2584 C2599 1.264 . S
O2585 Eu2543 2.432 . S
O2585 C2607 1.268 . S
O2586 Eu2543 2.291 . S
O2586 C2606 1.255 . S
O2587 Eu2532 2.372 . S
O2587 C2606 1.257 . S
C2588 O2577 1.249 . S
C2588 O2578 1.264 . S
C2589 C2592 1.382 . S
C2589 C2594 1.390 . S
C2589 C2596 1.506 . S
C2590 C2591 1.398 . S
C2590 C2594 1.392 . S
C2591 C2590 1.398 . S
C2591 C2593 1.372 . S
C2591 H2608 0.931 . S
C2592 C2589 1.382 . S
C2592 C2593 1.390 . S
C2592 H2609 0.931 . S
C2593 C2591 1.372 . S
C2593 C2592 1.390 . S
C2593 H2610 0.929 . S
C2594 C2589 1.390 . S
C2594 C2590 1.392 . S
C2594 H2611 0.930 . S
C2595 O2580 1.255 . S
C2595 O2581 1.257 . S
C2596 Eu2532 2.787 . S
C2596 O2576 1.252 . S
C2596 O2579 1.268 . S
C2596 C2589 1.506 . S
C2597 C2564 1.439 . S
C2597 H2574 0.931 . S
C2597 C2598 1.374 . S
C2598 C2569 1.387 . S
C2598 H2575 0.931 . S
C2598 C2597 1.374 . S
C2599 O2583 1.249 . S
C2599 O2584 1.264 . S
C2600 C2603 1.382 . S
C2600 C2604 1.390 . S
C2600 C2607 1.506 . S
C2601 C2602 1.398 . S
C2601 C2604 1.392 . S
C2602 C2601 1.398 . S
C2602 C2605 1.372 . S
C2602 H2612 0.931 . S
C2603 C2600 1.382 . S
C2603 C2605 1.390 . S
C2603 H2613 0.931 . S
C2604 C2600 1.390 . S
C2604 C2601 1.392 . S
C2604 H2614 0.930 . S
C2605 C2602 1.372 . S
C2605 C2603 1.390 . S
C2605 H2615 0.929 . S
C2606 O2586 1.255 . S
C2606 O2587 1.257 . S
C2607 Eu2543 2.787 . S
C2607 O2582 1.252 . S
C2607 O2585 1.268 . S
C2607 C2600 1.506 . S
H2608 C2591 0.931 . S
H2609 C2592 0.931 . S
H2610 C2593 0.929 . S
H2611 C2594 0.930 . S
H2612 C2602 0.931 . S
H2613 C2603 0.931 . S
H2614 C2604 0.930 . S
H2615 C2605 0.929 . S
Eu2616 N2645 2.600 . S
Eu2616 N2651 2.562 . S
Eu2616 O2660 2.462 . S
Eu2616 O2661 2.373 1_556 S
Eu2616 O2663 2.432 . S
Eu2616 O2664 2.306 . S
Eu2616 O2668 2.335 1_556 S
Eu2616 O2671 2.372 1_556 S
Eu2616 C2680 2.787 . S
C2617 N2618 1.365 . S
C2617 C2620 1.405 . S
C2617 C2624 1.448 1_565 S
N2618 C2617 1.365 . S
N2618 C2621 1.319 . S
N2618 Eu2627 2.600 1_565 S
C2619 C2621 1.397 . S
C2619 C2622 1.367 . S
C2619 H2639 0.931 . S
C2620 C2617 1.405 . S
C2620 C2622 1.403 . S
C2620 C2626 1.439 . S
C2621 N2618 1.319 . S
C2621 C2619 1.397 . S
C2621 H2632 0.930 . S
C2622 C2619 1.367 . S
C2622 C2620 1.403 . S
C2622 H2643 0.929 . S
C2623 C2624 1.430 . S
C2623 C2625 1.387 . S
C2623 C2629 1.404 . S
C2624 C2617 1.448 1_545 S
C2624 C2623 1.430 . S
C2624 N2628 1.351 . S
C2625 C2623 1.387 . S
C2625 C2626 1.374 1_545 S
C2625 H2640 0.931 . S
C2626 C2620 1.439 . S
C2626 C2625 1.374 1_565 S
C2626 H2641 0.931 . S
Eu2627 N2618 2.600 1_545 S
Eu2627 N2628 2.562 . S
Eu2627 O2662 2.335 . S
Eu2627 O2665 2.372 1_545 S
Eu2627 O2666 2.462 . S
Eu2627 O2667 2.373 . S
Eu2627 O2669 2.432 1_545 S
Eu2627 O2670 2.291 . S
Eu2627 C2691 2.791 . S
N2628 C2624 1.351 . S
N2628 Eu2627 2.562 . S
N2628 C2630 1.325 . S
C2629 C2623 1.404 . S
C2629 C2631 1.366 . S
C2629 H2637 0.930 . S
C2630 N2628 1.325 . S
C2630 C2631 1.416 . S
C2630 H2636 0.929 . S
C2631 C2629 1.366 . S
C2631 C2630 1.416 . S
C2631 H2633 0.930 . S
H2632 C2621 0.930 . S
H2633 C2631 0.930 . S
H2634 C2649 0.915 1_554 S
H2635 C2656 0.930 . S
H2636 C2630 0.929 . S
H2637 C2629 0.930 . S
H2638 C2652 0.929 1_565 S
H2639 C2619 0.931 . S
H2640 C2625 0.931 . S
H2641 C2626 0.931 . S
H2642 C2647 0.931 . S
H2643 C2622 0.929 . S
H2644 C2655 0.930 1_565 S
N2645 Eu2616 2.600 . S
N2645 C2646 1.365 . S
N2645 C2649 1.319 . S
C2646 N2645 1.365 . S
C2646 C2648 1.405 . S
C2646 C2654 1.448 . S
C2647 H2642 0.931 . S
C2647 C2649 1.397 . S
C2647 C2650 1.367 . S
C2648 C2646 1.405 . S
C2648 C2650 1.403 . S
C2648 C2681 1.439 . S
C2649 H2634 0.915 1_556 S
C2649 N2645 1.319 . S
C2649 C2647 1.397 . S
C2650 C2647 1.367 . S
C2650 C2648 1.403 . S
C2650 H2657 0.929 . S
N2651 Eu2616 2.562 . S
N2651 C2652 1.325 . S
N2651 C2654 1.351 . S
C2652 H2638 0.929 1_545 S
C2652 N2651 1.325 . S
C2652 C2656 1.416 1_545 S
C2653 C2654 1.430 . S
C2653 C2655 1.404 . S
C2653 C2682 1.387 . S
C2654 C2646 1.448 . S
C2654 N2651 1.351 . S
C2654 C2653 1.430 . S
C2655 H2644 0.930 1_545 S
C2655 C2653 1.404 . S
C2655 C2656 1.366 1_545 S
C2656 H2635 0.930 . S
C2656 C2652 1.416 1_565 S
C2656 C2655 1.366 1_565 S
H2657 C2650 0.929 . S
H2658 C2681 0.931 . S
H2659 C2682 0.931 . S
O2660 Eu2616 2.462 . S
O2660 C2680 1.252 . S
O2661 Eu2616 2.373 1_554 S
O2661 C2672 1.249 . S
O2662 Eu2627 2.335 . S
O2662 C2672 1.264 . S
O2663 Eu2616 2.432 . S
O2663 C2680 1.268 . S
O2664 Eu2616 2.306 . S
O2664 C2679 1.229 1_546 S
O2665 Eu2627 2.372 1_565 S
O2665 C2679 1.257 . S
O2666 Eu2627 2.462 . S
O2666 C2691 1.271 . S
O2667 Eu2627 2.373 . S
O2667 C2683 1.249 . S
O2668 Eu2616 2.335 1_554 S
O2668 C2683 1.264 . S
O2669 Eu2627 2.432 1_565 S
O2669 C2691 1.254 1_565 S
O2670 Eu2627 2.291 . S
O2670 C2690 1.255 . S
O2671 Eu2616 2.372 1_554 S
O2671 C2690 1.257 . S
C2672 O2661 1.249 . S
C2672 O2662 1.264 . S
C2673 C2676 1.382 . S
C2673 C2678 1.390 . S
C2673 C2680 1.506 . S
C2674 C2675 1.398 . S
C2674 C2678 1.392 . S
C2675 C2674 1.398 . S
C2675 C2677 1.372 . S
C2675 H2692 0.931 . S
C2676 C2673 1.382 . S
C2676 C2677 1.390 . S
C2676 H2693 0.931 . S
C2677 C2675 1.372 . S
C2677 C2676 1.390 . S
C2677 H2694 0.929 . S
C2678 C2673 1.390 . S
C2678 C2674 1.392 . S
C2678 H2695 0.930 . S
C2679 O2664 1.229 1_564 S
C2679 O2665 1.257 . S
C2680 Eu2616 2.787 . S
C2680 O2660 1.252 . S
C2680 O2663 1.268 . S
C2680 C2673 1.506 . S
C2681 C2648 1.439 . S
C2681 H2658 0.931 . S
C2681 C2682 1.374 . S
C2682 C2653 1.387 . S
C2682 H2659 0.931 . S
C2682 C2681 1.374 . S
C2683 O2667 1.249 . S
C2683 O2668 1.264 . S
C2684 C2687 1.382 . S
C2684 C2688 1.390 1_565 S
C2684 C2691 1.502 1_565 S
C2685 C2686 1.398 1_545 S
C2685 C2688 1.392 . S
C2686 C2685 1.398 1_565 S
C2686 C2689 1.372 . S
C2686 H2696 0.931 . S
C2687 C2684 1.382 . S
C2687 C2689 1.390 . S
C2687 H2697 0.931 . S
C2688 C2684 1.390 1_545 S
C2688 C2685 1.392 . S
C2688 H2698 0.930 . S
C2689 C2686 1.372 . S
C2689 C2687 1.390 . S
C2689 H2699 0.929 . S
C2690 O2670 1.255 . S
C2690 O2671 1.257 . S
C2691 Eu2627 2.791 . S
C2691 O2666 1.271 . S
C2691 O2669 1.254 1_545 S
C2691 C2684 1.502 1_545 S
H2692 C2675 0.931 . S
H2693 C2676 0.931 . S
H2694 C2677 0.929 . S
H2695 C2678 0.930 . S
H2696 C2686 0.931 . S
H2697 C2687 0.931 . S
H2698 C2688 0.930 . S
H2699 C2689 0.929 . S
Eu2700 N2729 2.600 . S
Eu2700 N2735 2.562 . S
Eu2700 O2744 2.462 . S
Eu2700 O2745 2.373 . S
Eu2700 O2747 2.432 . S
Eu2700 O2748 2.291 . S
Eu2700 O2752 2.335 . S
Eu2700 O2755 2.372 . S
Eu2700 C2764 2.787 . S
C2701 N2702 1.365 . S
C2701 C2704 1.405 . S
C2701 C2708 1.448 . S
N2702 C2701 1.365 . S
N2702 C2705 1.319 . S
N2702 Eu2711 2.600 . S
C2703 C2705 1.397 . S
C2703 C2706 1.367 . S
C2703 H2723 0.931 . S
C2704 C2701 1.405 . S
C2704 C2706 1.403 . S
C2704 C2710 1.439 . S
C2705 N2702 1.319 . S
C2705 C2703 1.397 . S
C2705 H2716 0.930 . S
C2706 C2703 1.367 . S
C2706 C2704 1.403 . S
C2706 H2727 0.929 . S
C2707 C2708 1.430 . S
C2707 C2709 1.387 . S
C2707 C2713 1.404 . S
C2708 C2701 1.448 . S
C2708 C2707 1.430 . S
C2708 N2712 1.351 . S
C2709 C2707 1.387 . S
C2709 C2710 1.374 . S
C2709 H2724 0.931 . S
C2710 C2704 1.439 . S
C2710 C2709 1.374 . S
C2710 H2725 0.931 . S
Eu2711 N2702 2.600 . S
Eu2711 N2712 2.562 . S
Eu2711 O2746 2.335 . S
Eu2711 O2749 2.372 . S
Eu2711 O2750 2.462 . S
Eu2711 O2751 2.373 . S
Eu2711 O2753 2.432 . S
Eu2711 O2754 2.291 . S
Eu2711 C2775 2.787 . S
N2712 C2708 1.351 . S
N2712 Eu2711 2.562 . S
N2712 C2714 1.325 . S
C2713 C2707 1.404 . S
C2713 C2715 1.366 . S
C2713 H2721 0.930 . S
C2714 N2712 1.325 . S
C2714 C2715 1.416 . S
C2714 H2720 0.929 . S
C2715 C2713 1.366 . S
C2715 C2714 1.416 . S
C2715 H2717 0.930 . S
H2716 C2705 0.930 . S
H2717 C2715 0.930 . S
H2718 C2733 0.930 . S
H2719 C2740 0.930 . S
H2720 C2714 0.929 . S
H2721 C2713 0.930 . S
H2722 C2736 0.929 . S
H2723 C2703 0.931 . S
H2724 C2709 0.931 . S
H2725 C2710 0.931 . S
H2726 C2731 0.931 . S
H2727 C2706 0.929 . S
H2728 C2739 0.930 . S
N2729 Eu2700 2.600 . S
N2729 C2730 1.365 . S
N2729 C2733 1.319 . S
C2730 N2729 1.365 . S
C2730 C2732 1.405 . S
C2730 C2738 1.448 . S
C2731 H2726 0.931 . S
C2731 C2733 1.397 . S
C2731 C2734 1.367 . S
C2732 C2730 1.405 . S
C2732 C2734 1.403 . S
C2732 C2765 1.439 . S
C2733 H2718 0.930 . S
C2733 N2729 1.319 . S
C2733 C2731 1.397 . S
C2734 C2731 1.367 . S
C2734 C2732 1.403 . S
C2734 H2741 0.929 . S
N2735 Eu2700 2.562 . S
N2735 C2736 1.325 . S
N2735 C2738 1.351 . S
C2736 H2722 0.929 . S
C2736 N2735 1.325 . S
C2736 C2740 1.416 . S
C2737 C2738 1.430 . S
C2737 C2739 1.404 . S
C2737 C2766 1.387 . S
C2738 C2730 1.448 . S
C2738 N2735 1.351 . S
C2738 C2737 1.430 . S
C2739 H2728 0.930 . S
C2739 C2737 1.404 . S
C2739 C2740 1.366 . S
C2740 H2719 0.930 . S
C2740 C2736 1.416 . S
C2740 C2739 1.366 . S
H2741 C2734 0.929 . S
H2742 C2765 0.931 . S
H2743 C2766 0.931 . S
O2744 Eu2700 2.462 . S
O2744 C2764 1.252 . S
O2745 Eu2700 2.373 . S
O2745 C2756 1.249 . S
O2746 Eu2711 2.335 . S
O2746 C2756 1.264 . S
O2747 Eu2700 2.432 . S
O2747 C2764 1.268 . S
O2748 Eu2700 2.291 . S
O2748 C2763 1.255 . S
O2749 Eu2711 2.372 . S
O2749 C2763 1.257 . S
O2750 Eu2711 2.462 . S
O2750 C2775 1.252 . S
O2751 Eu2711 2.373 . S
O2751 C2767 1.249 . S
O2752 Eu2700 2.335 . S
O2752 C2767 1.264 . S
O2753 Eu2711 2.432 . S
O2753 C2775 1.268 . S
O2754 Eu2711 2.291 . S
O2754 C2774 1.255 . S
O2755 Eu2700 2.372 . S
O2755 C2774 1.257 . S
C2756 O2745 1.249 . S
C2756 O2746 1.264 . S
C2757 C2760 1.382 . S
C2757 C2762 1.390 . S
C2757 C2764 1.506 . S
C2758 C2759 1.398 . S
C2758 C2762 1.392 . S
C2759 C2758 1.398 . S
C2759 C2761 1.372 . S
C2759 H2776 0.931 . S
C2760 C2757 1.382 . S
C2760 C2761 1.390 . S
C2760 H2777 0.931 . S
C2761 C2759 1.372 . S
C2761 C2760 1.390 . S
C2761 H2778 0.929 . S
C2762 C2757 1.390 . S
C2762 C2758 1.392 . S
C2762 H2779 0.930 . S
C2763 O2748 1.255 . S
C2763 O2749 1.257 . S
C2764 Eu2700 2.787 . S
C2764 O2744 1.252 . S
C2764 O2747 1.268 . S
C2764 C2757 1.506 . S
C2765 C2732 1.439 . S
C2765 H2742 0.931 . S
C2765 C2766 1.374 . S
C2766 C2737 1.387 . S
C2766 H2743 0.931 . S
C2766 C2765 1.374 . S
C2767 O2751 1.249 . S
C2767 O2752 1.264 . S
C2768 C2771 1.382 . S
C2768 C2772 1.390 . S
C2768 C2775 1.506 . S
C2769 C2770 1.398 . S
C2769 C2772 1.392 . S
C2770 C2769 1.398 . S
C2770 C2773 1.372 . S
C2770 H2780 0.931 . S
C2771 C2768 1.382 . S
C2771 C2773 1.390 . S
C2771 H2781 0.931 . S
C2772 C2768 1.390 . S
C2772 C2769 1.392 . S
C2772 H2782 0.930 . S
C2773 C2770 1.372 . S
C2773 C2771 1.390 . S
C2773 H2783 0.929 . S
C2774 O2754 1.255 . S
C2774 O2755 1.257 . S
C2775 Eu2711 2.787 . S
C2775 O2750 1.252 . S
C2775 O2753 1.268 . S
C2775 C2768 1.506 . S
H2776 C2759 0.931 . S
H2777 C2760 0.931 . S
H2778 C2761 0.929 . S
H2779 C2762 0.930 . S
H2780 C2770 0.931 . S
H2781 C2771 0.931 . S
H2782 C2772 0.930 . S
H2783 C2773 0.929 . S
Eu2784 N2813 2.600 1_554 S
Eu2784 N2819 2.562 1_554 S
Eu2784 O2828 2.462 . S
Eu2784 O2829 2.373 1_554 S
Eu2784 O2831 2.432 . S
Eu2784 O2832 2.291 . S
Eu2784 O2836 2.335 . S
Eu2784 O2839 2.372 . S
Eu2784 C2848 2.787 . S
C2785 N2786 1.365 . S
C2785 C2788 1.405 . S
C2785 C2792 1.448 . S
N2786 C2785 1.365 . S
N2786 C2789 1.319 . S
N2786 Eu2795 2.600 . S
C2787 C2789 1.397 . S
C2787 C2790 1.367 . S
C2787 H2807 0.931 . S
C2788 C2785 1.405 . S
C2788 C2790 1.403 . S
C2788 C2794 1.439 . S
C2789 N2786 1.319 . S
C2789 C2787 1.397 . S
C2789 H2800 0.930 . S
C2790 C2787 1.367 . S
C2790 C2788 1.403 . S
C2790 H2811 0.929 . S
C2791 C2792 1.430 . S
C2791 C2793 1.387 . S
C2791 C2797 1.404 . S
C2792 C2785 1.448 . S
C2792 C2791 1.430 . S
C2792 N2796 1.351 . S
C2793 C2791 1.387 . S
C2793 C2794 1.374 . S
C2793 H2808 0.931 . S
C2794 C2788 1.439 . S
C2794 C2793 1.374 . S
C2794 H2809 0.931 . S
Eu2795 N2786 2.600 . S
Eu2795 N2796 2.562 . S
Eu2795 O2830 2.335 1_554 S
Eu2795 O2833 2.372 . S
Eu2795 O2834 2.462 . S
Eu2795 O2835 2.373 . S
Eu2795 O2837 2.432 . S
Eu2795 O2838 2.291 . S
Eu2795 C2859 2.787 . S
N2796 C2792 1.351 . S
N2796 Eu2795 2.562 . S
N2796 C2798 1.325 . S
C2797 C2791 1.404 . S
C2797 C2799 1.366 . S
C2797 H2805 0.930 . S
C2798 N2796 1.325 . S
C2798 C2799 1.416 . S
C2798 H2804 0.929 . S
C2799 C2797 1.366 . S
C2799 C2798 1.416 . S
C2799 H2801 0.930 . S
H2800 C2789 0.930 . S
H2801 C2799 0.930 . S
H2802 C2817 0.930 1_554 S
H2803 C2824 0.930 . S
H2804 C2798 0.929 . S
H2805 C2797 0.930 . S
H2806 C2820 0.897 1_554 S
H2807 C2787 0.931 . S
H2808 C2793 0.931 . S
H2809 C2794 0.931 . S
H2810 C2815 0.931 . S
H2811 C2790 0.929 . S
H2812 C2823 0.930 . S
N2813 Eu2784 2.600 1_556 S
N2813 C2814 1.365 . S
N2813 C2817 1.319 . S
C2814 N2813 1.365 . S
C2814 C2816 1.405 . S
C2814 C2822 1.448 . S
C2815 H2810 0.931 . S
C2815 C2817 1.397 . S
C2815 C2818 1.367 . S
C2816 C2814 1.405 . S
C2816 C2818 1.403 . S
C2816 C2849 1.439 . S
C2817 H2802 0.930 1_556 S
C2817 N2813 1.319 . S
C2817 C2815 1.397 . S
C2818 C2815 1.367 . S
C2818 C2816 1.403 . S
C2818 H2825 0.929 . S
N2819 Eu2784 2.562 1_556 S
N2819 C2820 1.325 . S
N2819 C2822 1.351 . S
C2820 H2806 0.897 1_556 S
C2820 N2819 1.325 . S
C2820 C2824 1.416 . S
C2821 C2822 1.430 . S
C2821 C2823 1.404 . S
C2821 C2850 1.387 . S
C2822 C2814 1.448 . S
C2822 N2819 1.351 . S
C2822 C2821 1.430 . S
C2823 H2812 0.930 . S
C2823 C2821 1.404 . S
C2823 C2824 1.366 . S
C2824 H2803 0.930 . S
C2824 C2820 1.416 . S
C2824 C2823 1.366 . S
H2825 C2818 0.929 . S
H2826 C2849 0.931 . S
H2827 C2850 0.931 . S
O2828 Eu2784 2.462 . S
O2828 C2848 1.252 . S
O2829 Eu2784 2.373 1_556 S
O2829 C2840 1.249 . S
O2830 Eu2795 2.335 1_556 S
O2830 C2840 1.264 . S
O2831 Eu2784 2.432 . S
O2831 C2848 1.268 . S
O2832 Eu2784 2.291 . S
O2832 C2847 1.255 . S
O2833 Eu2795 2.372 . S
O2833 C2847 1.257 . S
O2834 Eu2795 2.462 . S
O2834 C2859 1.252 . S
O2835 Eu2795 2.373 . S
O2835 C2851 1.249 . S
O2836 Eu2784 2.335 . S
O2836 C2851 1.264 . S
O2837 Eu2795 2.432 . S
O2837 C2859 1.268 . S
O2838 Eu2795 2.291 . S
O2838 C2858 1.255 . S
O2839 Eu2784 2.372 . S
O2839 C2858 1.257 . S
C2840 O2829 1.249 . S
C2840 O2830 1.264 . S
C2841 C2844 1.382 . S
C2841 C2846 1.390 . S
C2841 C2848 1.506 . S
C2842 C2843 1.398 . S
C2842 C2846 1.392 . S
C2843 C2842 1.398 . S
C2843 C2845 1.372 . S
C2843 H2860 0.931 . S
C2844 C2841 1.382 . S
C2844 C2845 1.390 . S
C2844 H2861 0.931 . S
C2845 C2843 1.372 . S
C2845 C2844 1.390 . S
C2845 H2862 0.929 . S
C2846 C2841 1.390 . S
C2846 C2842 1.392 . S
C2846 H2863 0.930 . S
C2847 O2832 1.255 . S
C2847 O2833 1.257 . S
C2848 Eu2784 2.787 . S
C2848 O2828 1.252 . S
C2848 O2831 1.268 . S
C2848 C2841 1.506 . S
C2849 C2816 1.439 . S
C2849 H2826 0.931 . S
C2849 C2850 1.374 . S
C2850 C2821 1.387 . S
C2850 H2827 0.931 . S
C2850 C2849 1.374 . S
C2851 O2835 1.249 . S
C2851 O2836 1.264 . S
C2852 C2855 1.382 . S
C2852 C2856 1.390 . S
C2852 C2859 1.506 1_556 S
C2853 C2854 1.398 . S
C2853 C2856 1.392 . S
C2854 C2853 1.398 . S
C2854 C2857 1.372 . S
C2854 H2864 0.931 . S
C2855 C2852 1.382 . S
C2855 C2857 1.390 . S
C2855 H2865 0.931 . S
C2856 C2852 1.390 . S
C2856 C2853 1.392 . S
C2856 H2866 0.930 . S
C2857 C2854 1.372 . S
C2857 C2855 1.390 . S
C2857 H2867 0.929 . S
C2858 O2838 1.255 . S
C2858 O2839 1.257 . S
C2859 Eu2795 2.787 . S
C2859 O2834 1.252 . S
C2859 O2837 1.268 . S
C2859 C2852 1.506 1_554 S
H2860 C2843 0.931 . S
H2861 C2844 0.931 . S
H2862 C2845 0.929 . S
H2863 C2846 0.930 . S
H2864 C2854 0.931 . S
H2865 C2855 0.931 . S
H2866 C2856 0.930 . S
H2867 C2857 0.929 . S
Eu2868 N2897 2.600 . S
Eu2868 N2903 2.562 . S
Eu2868 O2912 2.462 . S
Eu2868 O2913 2.373 . S
Eu2868 O2915 2.432 . S
Eu2868 O2916 2.291 . S
Eu2868 O2920 2.335 . S
Eu2868 O2923 2.372 . S
Eu2868 C2932 2.787 . S
C2869 N2870 1.365 . S
C2869 C2872 1.405 . S
C2869 C2876 1.448 . S
N2870 C2869 1.365 . S
N2870 C2873 1.319 . S
N2870 Eu2879 2.600 . S
C2871 C2873 1.397 . S
C2871 C2874 1.367 . S
C2871 H2891 0.931 . S
C2872 C2869 1.405 . S
C2872 C2874 1.403 . S
C2872 C2878 1.439 . S
C2873 N2870 1.319 . S
C2873 C2871 1.397 . S
C2873 H2884 0.930 . S
C2874 C2871 1.367 . S
C2874 C2872 1.403 . S
C2874 H2895 0.929 . S
C2875 C2876 1.430 . S
C2875 C2877 1.387 . S
C2875 C2881 1.404 . S
C2876 C2869 1.448 . S
C2876 C2875 1.430 . S
C2876 N2880 1.351 . S
C2877 C2875 1.387 . S
C2877 C2878 1.374 . S
C2877 H2892 0.931 . S
C2878 C2872 1.439 . S
C2878 C2877 1.374 . S
C2878 H2893 0.931 . S
Eu2879 N2870 2.600 . S
Eu2879 N2880 2.562 . S
Eu2879 O2914 2.335 . S
Eu2879 O2917 2.372 . S
Eu2879 O2918 2.462 . S
Eu2879 O2919 2.373 . S
Eu2879 O2921 2.432 . S
Eu2879 O2922 2.291 . S
Eu2879 C2943 2.787 . S
N2880 C2876 1.351 . S
N2880 Eu2879 2.562 . S
N2880 C2882 1.325 . S
C2881 C2875 1.404 . S
C2881 C2883 1.366 . S
C2881 H2889 0.930 . S
C2882 N2880 1.325 . S
C2882 C2883 1.416 . S
C2882 H2888 0.929 . S
C2883 C2881 1.366 . S
C2883 C2882 1.416 . S
C2883 H2885 0.930 . S
H2884 C2873 0.930 . S
H2885 C2883 0.930 . S
H2886 C2901 0.930 . S
H2887 C2908 0.930 . S
H2888 C2882 0.929 . S
H2889 C2881 0.930 . S
H2890 C2904 0.929 . S
H2891 C2871 0.931 . S
H2892 C2877 0.931 . S
H2893 C2878 0.931 . S
H2894 C2899 0.931 . S
H2895 C2874 0.929 . S
H2896 C2907 0.930 . S
N2897 Eu2868 2.600 . S
N2897 C2898 1.365 . S
N2897 C2901 1.319 . S
C2898 N2897 1.365 . S
C2898 C2900 1.405 . S
C2898 C2906 1.448 . S
C2899 H2894 0.931 . S
C2899 C2901 1.397 . S
C2899 C2902 1.367 . S
C2900 C2898 1.405 . S
C2900 C2902 1.403 . S
C2900 C2933 1.439 . S
C2901 H2886 0.930 . S
C2901 N2897 1.319 . S
C2901 C2899 1.397 . S
C2902 C2899 1.367 . S
C2902 C2900 1.403 . S
C2902 H2909 0.929 . S
N2903 Eu2868 2.562 . S
N2903 C2904 1.325 . S
N2903 C2906 1.351 . S
C2904 H2890 0.929 . S
C2904 N2903 1.325 . S
C2904 C2908 1.416 . S
C2905 C2906 1.430 . S
C2905 C2907 1.404 . S
C2905 C2934 1.387 . S
C2906 C2898 1.448 . S
C2906 N2903 1.351 . S
C2906 C2905 1.430 . S
C2907 H2896 0.930 . S
C2907 C2905 1.404 . S
C2907 C2908 1.366 . S
C2908 H2887 0.930 . S
C2908 C2904 1.416 . S
C2908 C2907 1.366 . S
H2909 C2902 0.929 . S
H2910 C2933 0.931 . S
H2911 C2934 0.931 . S
O2912 Eu2868 2.462 . S
O2912 C2932 1.252 . S
O2913 Eu2868 2.373 . S
O2913 C2924 1.249 . S
O2914 Eu2879 2.335 . S
O2914 C2924 1.264 . S
O2915 Eu2868 2.432 . S
O2915 C2932 1.268 . S
O2916 Eu2868 2.291 . S
O2916 C2931 1.255 . S
O2917 Eu2879 2.372 . S
O2917 C2931 1.257 . S
O2918 Eu2879 2.462 . S
O2918 C2943 1.252 . S
O2919 Eu2879 2.373 . S
O2919 C2935 1.249 . S
O2920 Eu2868 2.335 . S
O2920 C2935 1.264 . S
O2921 Eu2879 2.432 . S
O2921 C2943 1.268 . S
O2922 Eu2879 2.291 . S
O2922 C2942 1.255 . S
O2923 Eu2868 2.372 . S
O2923 C2942 1.257 . S
C2924 O2913 1.249 . S
C2924 O2914 1.264 . S
C2925 C2928 1.382 . S
C2925 C2930 1.390 . S
C2925 C2932 1.506 . S
C2926 C2927 1.398 . S
C2926 C2930 1.392 . S
C2927 C2926 1.398 . S
C2927 C2929 1.372 . S
C2927 H2944 0.931 . S
C2928 C2925 1.382 . S
C2928 C2929 1.390 . S
C2928 H2945 0.931 . S
C2929 C2927 1.372 . S
C2929 C2928 1.390 . S
C2929 H2946 0.929 . S
C2930 C2925 1.390 . S
C2930 C2926 1.392 . S
C2930 H2947 0.930 . S
C2931 O2916 1.255 . S
C2931 O2917 1.257 . S
C2932 Eu2868 2.787 . S
C2932 O2912 1.252 . S
C2932 O2915 1.268 . S
C2932 C2925 1.506 . S
C2933 C2900 1.439 . S
C2933 H2910 0.931 . S
C2933 C2934 1.374 . S
C2934 C2905 1.387 . S
C2934 H2911 0.931 . S
C2934 C2933 1.374 . S
C2935 O2919 1.249 . S
C2935 O2920 1.264 . S
C2936 C2939 1.382 . S
C2936 C2940 1.390 . S
C2936 C2943 1.506 . S
C2937 C2938 1.398 . S
C2937 C2940 1.392 . S
C2938 C2937 1.398 . S
C2938 C2941 1.372 . S
C2938 H2948 0.931 . S
C2939 C2936 1.382 . S
C2939 C2941 1.390 . S
C2939 H2949 0.931 . S
C2940 C2936 1.390 . S
C2940 C2937 1.392 . S
C2940 H2950 0.930 . S
C2941 C2938 1.372 . S
C2941 C2939 1.390 . S
C2941 H2951 0.929 . S
C2942 O2922 1.255 . S
C2942 O2923 1.257 . S
C2943 Eu2879 2.787 . S
C2943 O2918 1.252 . S
C2943 O2921 1.268 . S
C2943 C2936 1.506 . S
H2944 C2927 0.931 . S
H2945 C2928 0.931 . S
H2946 C2929 0.929 . S
H2947 C2930 0.930 . S
H2948 C2938 0.931 . S
H2949 C2939 0.931 . S
H2950 C2940 0.930 . S
H2951 C2941 0.929 . S
Eu2952 N2981 2.542 1_455 S
Eu2952 N2987 2.562 1_455 S
Eu2952 O2996 2.462 . S
Eu2952 O2997 2.373 1_455 S
Eu2952 O2999 2.432 . S
Eu2952 O3000 2.291 . S
Eu2952 O3004 2.335 . S
Eu2952 O3007 2.372 . S
Eu2952 C3016 2.787 . S
C2953 N2954 1.365 . S
C2953 C2956 1.405 . S
C2953 C2960 1.448 . S
N2954 C2953 1.365 . S
N2954 C2957 1.319 . S
N2954 Eu2963 2.600 . S
C2955 C2957 1.397 . S
C2955 C2958 1.367 . S
C2955 H2975 0.931 . S
C2956 C2953 1.405 . S
C2956 C2958 1.403 . S
C2956 C2962 1.439 . S
C2957 N2954 1.319 . S
C2957 C2955 1.397 . S
C2957 H2968 0.930 . S
C2958 C2955 1.367 . S
C2958 C2956 1.403 . S
C2958 H2979 0.929 . S
C2959 C2960 1.430 . S
C2959 C2961 1.387 . S
C2959 C2965 1.404 . S
C2960 C2953 1.448 . S
C2960 C2959 1.430 . S
C2960 N2964 1.351 . S
C2961 C2959 1.387 . S
C2961 C2962 1.374 . S
C2961 H2976 0.931 . S
C2962 C2956 1.439 . S
C2962 C2961 1.374 . S
C2962 H2977 0.931 . S
Eu2963 N2954 2.600 . S
Eu2963 N2964 2.562 . S
Eu2963 O2998 2.335 1_455 S
Eu2963 O3001 2.372 . S
Eu2963 O3002 2.462 . S
Eu2963 O3003 2.373 . S
Eu2963 O3005 2.432 . S
Eu2963 O3006 2.291 . S
Eu2963 C3027 2.787 . S
N2964 C2960 1.351 . S
N2964 Eu2963 2.562 . S
N2964 C2966 1.325 . S
C2965 C2959 1.404 . S
C2965 C2967 1.366 . S
C2965 H2973 0.930 . S
C2966 N2964 1.325 . S
C2966 C2967 1.416 . S
C2966 H2972 0.929 . S
C2967 C2965 1.366 . S
C2967 C2966 1.416 . S
C2967 H2969 0.930 . S
H2968 C2957 0.930 . S
H2969 C2967 0.930 . S
H2970 C2985 0.925 1_455 S
H2971 C2992 0.930 . S
H2972 C2966 0.929 . S
H2973 C2965 0.930 . S
H2974 C2988 0.929 1_455 S
H2975 C2955 0.931 . S
H2976 C2961 0.931 . S
H2977 C2962 0.931 . S
H2978 C2983 0.931 . S
H2979 C2958 0.929 . S
H2980 C2991 0.930 . S
N2981 Eu2952 2.542 1_655 S
N2981 C2982 1.419 . S
N2981 C2985 1.332 . S
C2982 N2981 1.419 . S
C2982 C2984 1.405 . S
C2982 C2990 1.448 . S
C2983 H2978 0.931 . S
C2983 C2985 1.402 . S
C2983 C2986 1.367 . S
C2984 C2982 1.405 . S
C2984 C2986 1.403 . S
C2984 C3017 1.439 . S
C2985 H2970 0.925 1_655 S
C2985 N2981 1.332 . S
C2985 C2983 1.402 . S
C2986 C2983 1.367 . S
C2986 C2984 1.403 . S
C2986 H2993 0.929 . S
N2987 Eu2952 2.562 1_655 S
N2987 C2988 1.325 . S
N2987 C2990 1.351 . S
C2988 H2974 0.929 1_655 S
C2988 N2987 1.325 . S
C2988 C2992 1.416 . S
C2989 C2990 1.430 . S
C2989 C2991 1.404 . S
C2989 C3018 1.387 . S
C2990 C2982 1.448 . S
C2990 N2987 1.351 . S
C2990 C2989 1.430 . S
C2991 H2980 0.930 . S
C2991 C2989 1.404 . S
C2991 C2992 1.366 . S
C2992 H2971 0.930 . S
C2992 C2988 1.416 . S
C2992 C2991 1.366 . S
H2993 C2986 0.929 . S
H2994 C3017 0.931 . S
H2995 C3018 0.931 . S
O2996 Eu2952 2.462 . S
O2996 C3016 1.252 . S
O2997 Eu2952 2.373 1_655 S
O2997 C3008 1.249 . S
O2998 Eu2963 2.335 1_655 S
O2998 C3008 1.264 . S
O2999 Eu2952 2.432 . S
O2999 C3016 1.268 . S
O3000 Eu2952 2.291 . S
O3000 C3015 1.255 . S
O3001 Eu2963 2.372 . S
O3001 C3015 1.257 . S
O3002 Eu2963 2.462 . S
O3002 C3027 1.252 . S
O3003 Eu2963 2.373 . S
O3003 C3019 1.249 . S
O3004 Eu2952 2.335 . S
O3004 C3019 1.264 . S
O3005 Eu2963 2.432 . S
O3005 C3027 1.268 . S
O3006 Eu2963 2.291 . S
O3006 C3026 1.255 . S
O3007 Eu2952 2.372 . S
O3007 C3026 1.257 . S
C3008 O2997 1.249 . S
C3008 O2998 1.264 . S
C3009 C3012 1.382 . S
C3009 C3014 1.390 . S
C3009 C3016 1.506 . S
C3010 C3011 1.398 . S
C3010 C3014 1.392 . S
C3011 C3010 1.398 . S
C3011 C3013 1.372 . S
C3011 H3028 0.931 . S
C3012 C3009 1.382 . S
C3012 C3013 1.390 . S
C3012 H3029 0.931 . S
C3013 C3011 1.372 . S
C3013 C3012 1.390 . S
C3013 H3030 0.929 . S
C3014 C3009 1.390 . S
C3014 C3010 1.392 . S
C3014 H3031 0.930 . S
C3015 O3000 1.255 . S
C3015 O3001 1.257 . S
C3016 Eu2952 2.787 . S
C3016 O2996 1.252 . S
C3016 O2999 1.268 . S
C3016 C3009 1.506 . S
C3017 C2984 1.439 . S
C3017 H2994 0.931 . S
C3017 C3018 1.374 . S
C3018 C2989 1.387 . S
C3018 H2995 0.931 . S
C3018 C3017 1.374 . S
C3019 O3003 1.249 . S
C3019 O3004 1.264 . S
C3020 C3023 1.382 . S
C3020 C3024 1.390 . S
C3020 C3027 1.506 1_655 S
C3021 C3022 1.398 . S
C3021 C3024 1.392 . S
C3022 C3021 1.398 . S
C3022 C3025 1.372 . S
C3022 H3032 0.931 . S
C3023 C3020 1.382 . S
C3023 C3025 1.390 . S
C3023 H3033 0.931 . S
C3024 C3020 1.390 . S
C3024 C3021 1.392 . S
C3024 H3034 0.930 . S
C3025 C3022 1.372 . S
C3025 C3023 1.390 . S
C3025 H3035 0.929 . S
C3026 O3006 1.255 . S
C3026 O3007 1.257 . S
C3027 Eu2963 2.787 . S
C3027 O3002 1.252 . S
C3027 O3005 1.268 . S
C3027 C3020 1.506 1_455 S
H3028 C3011 0.931 . S
H3029 C3012 0.931 . S
H3030 C3013 0.929 . S
H3031 C3014 0.930 . S
H3032 C3022 0.931 . S
H3033 C3023 0.931 . S
H3034 C3024 0.930 . S
H3035 C3025 0.929 . S
Eu3036 N3065 2.600 . S
Eu3036 N3071 2.562 . S
Eu3036 O3080 2.462 . S
Eu3036 O3081 2.373 . S
Eu3036 O3083 2.432 . S
Eu3036 O3084 2.291 . S
Eu3036 O3088 2.335 . S
Eu3036 O3091 2.372 . S
Eu3036 C3100 2.787 . S
C3037 N3038 1.365 . S
C3037 C3040 1.405 . S
C3037 C3044 1.448 . S
N3038 C3037 1.365 . S
N3038 C3041 1.319 . S
N3038 Eu3047 2.600 . S
C3039 C3041 1.397 . S
C3039 C3042 1.367 . S
C3039 H3059 0.931 . S
C3040 C3037 1.405 . S
C3040 C3042 1.403 . S
C3040 C3046 1.439 . S
C3041 N3038 1.319 . S
C3041 C3039 1.397 . S
C3041 H3052 0.930 . S
C3042 C3039 1.367 . S
C3042 C3040 1.403 . S
C3042 H3063 0.929 . S
C3043 C3044 1.430 . S
C3043 C3045 1.387 . S
C3043 C3049 1.404 . S
C3044 C3037 1.448 . S
C3044 C3043 1.430 . S
C3044 N3048 1.351 . S
C3045 C3043 1.387 . S
C3045 C3046 1.374 . S
C3045 H3060 0.931 . S
C3046 C3040 1.439 . S
C3046 C3045 1.374 . S
C3046 H3061 0.931 . S
Eu3047 N3038 2.600 . S
Eu3047 N3048 2.562 . S
Eu3047 O3082 2.335 . S
Eu3047 O3085 2.372 . S
Eu3047 O3086 2.462 . S
Eu3047 O3087 2.373 . S
Eu3047 O3089 2.432 . S
Eu3047 O3090 2.291 . S
Eu3047 C3111 2.787 . S
N3048 C3044 1.351 . S
N3048 Eu3047 2.562 . S
N3048 C3050 1.325 . S
C3049 C3043 1.404 . S
C3049 C3051 1.366 . S
C3049 H3057 0.930 . S
C3050 N3048 1.325 . S
C3050 C3051 1.416 . S
C3050 H3056 0.929 . S
C3051 C3049 1.366 . S
C3051 C3050 1.416 . S
C3051 H3053 0.930 . S
H3052 C3041 0.930 . S
H3053 C3051 0.930 . S
H3054 C3069 0.930 . S
H3055 C3076 0.930 . S
H3056 C3050 0.929 . S
H3057 C3049 0.930 . S
H3058 C3072 0.929 . S
H3059 C3039 0.931 . S
H3060 C3045 0.931 . S
H3061 C3046 0.931 . S
H3062 C3067 0.931 . S
H3063 C3042 0.929 . S
H3064 C3075 0.930 . S
N3065 Eu3036 2.600 . S
N3065 C3066 1.365 . S
N3065 C3069 1.319 . S
C3066 N3065 1.365 . S
C3066 C3068 1.405 . S
C3066 C3074 1.448 . S
C3067 H3062 0.931 . S
C3067 C3069 1.397 . S
C3067 C3070 1.367 . S
C3068 C3066 1.405 . S
C3068 C3070 1.403 . S
C3068 C3101 1.439 . S
C3069 H3054 0.930 . S
C3069 N3065 1.319 . S
C3069 C3067 1.397 . S
C3070 C3067 1.367 . S
C3070 C3068 1.403 . S
C3070 H3077 0.929 . S
N3071 Eu3036 2.562 . S
N3071 C3072 1.325 . S
N3071 C3074 1.351 . S
C3072 H3058 0.929 . S
C3072 N3071 1.325 . S
C3072 C3076 1.416 . S
C3073 C3074 1.430 . S
C3073 C3075 1.404 . S
C3073 C3102 1.387 . S
C3074 C3066 1.448 . S
C3074 N3071 1.351 . S
C3074 C3073 1.430 . S
C3075 H3064 0.930 . S
C3075 C3073 1.404 . S
C3075 C3076 1.366 . S
C3076 H3055 0.930 . S
C3076 C3072 1.416 . S
C3076 C3075 1.366 . S
H3077 C3070 0.929 . S
H3078 C3101 0.931 . S
H3079 C3102 0.931 . S
O3080 Eu3036 2.462 . S
O3080 C3100 1.252 . S
O3081 Eu3036 2.373 . S
O3081 C3092 1.249 . S
O3082 Eu3047 2.335 . S
O3082 C3092 1.264 . S
O3083 Eu3036 2.432 . S
O3083 C3100 1.268 . S
O3084 Eu3036 2.291 . S
O3084 C3099 1.255 . S
O3085 Eu3047 2.372 . S
O3085 C3099 1.257 . S
O3086 Eu3047 2.462 . S
O3086 C3111 1.252 . S
O3087 Eu3047 2.373 . S
O3087 C3103 1.249 . S
O3088 Eu3036 2.335 . S
O3088 C3103 1.264 . S
O3089 Eu3047 2.432 . S
O3089 C3111 1.268 . S
O3090 Eu3047 2.291 . S
O3090 C3110 1.255 . S
O3091 Eu3036 2.372 . S
O3091 C3110 1.257 . S
C3092 O3081 1.249 . S
C3092 O3082 1.264 . S
C3093 C3096 1.382 . S
C3093 C3098 1.390 . S
C3093 C3100 1.506 . S
C3094 C3095 1.398 . S
C3094 C3098 1.392 . S
C3095 C3094 1.398 . S
C3095 C3097 1.372 . S
C3095 H3112 0.931 . S
C3096 C3093 1.382 . S
C3096 C3097 1.390 . S
C3096 H3113 0.931 . S
C3097 C3095 1.372 . S
C3097 C3096 1.390 . S
C3097 H3114 0.929 . S
C3098 C3093 1.390 . S
C3098 C3094 1.392 . S
C3098 H3115 0.930 . S
C3099 O3084 1.255 . S
C3099 O3085 1.257 . S
C3100 Eu3036 2.787 . S
C3100 O3080 1.252 . S
C3100 O3083 1.268 . S
C3100 C3093 1.506 . S
C3101 C3068 1.439 . S
C3101 H3078 0.931 . S
C3101 C3102 1.374 . S
C3102 C3073 1.387 . S
C3102 H3079 0.931 . S
C3102 C3101 1.374 . S
C3103 O3087 1.249 . S
C3103 O3088 1.264 . S
C3104 C3107 1.382 . S
C3104 C3108 1.390 . S
C3104 C3111 1.506 . S
C3105 C3106 1.398 . S
C3105 C3108 1.392 . S
C3106 C3105 1.398 . S
C3106 C3109 1.372 . S
C3106 H3116 0.931 . S
C3107 C3104 1.382 . S
C3107 C3109 1.390 . S
C3107 H3117 0.931 . S
C3108 C3104 1.390 . S
C3108 C3105 1.392 . S
C3108 H3118 0.930 . S
C3109 C3106 1.372 . S
C3109 C3107 1.390 . S
C3109 H3119 0.929 . S
C3110 O3090 1.255 . S
C3110 O3091 1.257 . S
C3111 Eu3047 2.787 . S
C3111 O3086 1.252 . S
C3111 O3089 1.268 . S
C3111 C3104 1.506 . S
H3112 C3095 0.931 . S
H3113 C3096 0.931 . S
H3114 C3097 0.929 . S
H3115 C3098 0.930 . S
H3116 C3106 0.931 . S
H3117 C3107 0.931 . S
H3118 C3108 0.930 . S
H3119 C3109 0.929 . S
Eu3120 N3149 2.600 . S
Eu3120 N3155 2.562 . S
Eu3120 O3164 2.462 . S
Eu3120 O3165 2.373 . S
Eu3120 O3167 2.432 . S
Eu3120 O3168 2.291 . S
Eu3120 O3172 2.335 . S
Eu3120 O3175 2.372 . S
Eu3120 C3184 2.787 . S
C3121 N3122 1.365 . S
C3121 C3124 1.405 . S
C3121 C3128 1.448 . S
N3122 C3121 1.365 . S
N3122 C3125 1.319 . S
N3122 Eu3131 2.600 . S
C3123 C3125 1.397 . S
C3123 C3126 1.367 . S
C3123 H3143 0.931 . S
C3124 C3121 1.405 . S
C3124 C3126 1.403 . S
C3124 C3130 1.439 . S
C3125 N3122 1.319 . S
C3125 C3123 1.397 . S
C3125 H3136 0.930 . S
C3126 C3123 1.367 . S
C3126 C3124 1.403 . S
C3126 H3147 0.929 . S
C3127 C3128 1.430 . S
C3127 C3129 1.387 . S
C3127 C3133 1.404 . S
C3128 C3121 1.448 . S
C3128 C3127 1.430 . S
C3128 N3132 1.351 . S
C3129 C3127 1.387 . S
C3129 C3130 1.374 . S
C3129 H3144 0.931 . S
C3130 C3124 1.439 . S
C3130 C3129 1.374 . S
C3130 H3145 0.931 . S
Eu3131 N3122 2.600 . S
Eu3131 N3132 2.562 . S
Eu3131 O3166 2.335 . S
Eu3131 O3169 2.372 . S
Eu3131 O3170 2.462 . S
Eu3131 O3171 2.373 . S
Eu3131 O3173 2.432 . S
Eu3131 O3174 2.291 . S
Eu3131 C3195 2.787 . S
N3132 C3128 1.351 . S
N3132 Eu3131 2.562 . S
N3132 C3134 1.325 . S
C3133 C3127 1.404 . S
C3133 C3135 1.366 . S
C3133 H3141 0.930 . S
C3134 N3132 1.325 . S
C3134 C3135 1.416 . S
C3134 H3140 0.929 . S
C3135 C3133 1.366 . S
C3135 C3134 1.416 . S
C3135 H3137 0.930 . S
H3136 C3125 0.930 . S
H3137 C3135 0.930 . S
H3138 C3153 0.930 . S
H3139 C3160 0.930 . S
H3140 C3134 0.929 . S
H3141 C3133 0.930 . S
H3142 C3156 0.929 . S
H3143 C3123 0.931 . S
H3144 C3129 0.931 . S
H3145 C3130 0.931 . S
H3146 C3151 0.931 . S
H3147 C3126 0.929 . S
H3148 C3159 0.930 . S
N3149 Eu3120 2.600 . S
N3149 C3150 1.365 . S
N3149 C3153 1.319 . S
C3150 N3149 1.365 . S
C3150 C3152 1.405 . S
C3150 C3158 1.448 . S
C3151 H3146 0.931 . S
C3151 C3153 1.397 . S
C3151 C3154 1.367 . S
C3152 C3150 1.405 . S
C3152 C3154 1.403 . S
C3152 C3185 1.439 . S
C3153 H3138 0.930 . S
C3153 N3149 1.319 . S
C3153 C3151 1.397 . S
C3154 C3151 1.367 . S
C3154 C3152 1.403 . S
C3154 H3161 0.929 . S
N3155 Eu3120 2.562 . S
N3155 C3156 1.325 . S
N3155 C3158 1.351 . S
C3156 H3142 0.929 . S
C3156 N3155 1.325 . S
C3156 C3160 1.416 . S
C3157 C3158 1.430 . S
C3157 C3159 1.404 . S
C3157 C3186 1.387 . S
C3158 C3150 1.448 . S
C3158 N3155 1.351 . S
C3158 C3157 1.430 . S
C3159 H3148 0.930 . S
C3159 C3157 1.404 . S
C3159 C3160 1.366 . S
C3160 H3139 0.930 . S
C3160 C3156 1.416 . S
C3160 C3159 1.366 . S
H3161 C3154 0.929 . S
H3162 C3185 0.931 . S
H3163 C3186 0.931 . S
O3164 Eu3120 2.462 . S
O3164 C3184 1.252 . S
O3165 Eu3120 2.373 . S
O3165 C3176 1.249 . S
O3166 Eu3131 2.335 . S
O3166 C3176 1.264 . S
O3167 Eu3120 2.432 . S
O3167 C3184 1.268 . S
O3168 Eu3120 2.291 . S
O3168 C3183 1.255 . S
O3169 Eu3131 2.372 . S
O3169 C3183 1.257 . S
O3170 Eu3131 2.462 . S
O3170 C3195 1.252 . S
O3171 Eu3131 2.373 . S
O3171 C3187 1.249 . S
O3172 Eu3120 2.335 . S
O3172 C3187 1.264 . S
O3173 Eu3131 2.432 . S
O3173 C3195 1.268 . S
O3174 Eu3131 2.291 . S
O3174 C3194 1.255 . S
O3175 Eu3120 2.372 . S
O3175 C3194 1.257 . S
C3176 O3165 1.249 . S
C3176 O3166 1.264 . S
C3177 C3180 1.382 . S
C3177 C3182 1.390 . S
C3177 C3184 1.506 . S
C3178 C3179 1.398 . S
C3178 C3182 1.392 . S
C3179 C3178 1.398 . S
C3179 C3181 1.372 . S
C3179 H3196 0.931 . S
C3180 C3177 1.382 . S
C3180 C3181 1.390 . S
C3180 H3197 0.931 . S
C3181 C3179 1.372 . S
C3181 C3180 1.390 . S
C3181 H3198 0.929 . S
C3182 C3177 1.390 . S
C3182 C3178 1.392 . S
C3182 H3199 0.930 . S
C3183 O3168 1.255 . S
C3183 O3169 1.257 . S
C3184 Eu3120 2.787 . S
C3184 O3164 1.252 . S
C3184 O3167 1.268 . S
C3184 C3177 1.506 . S
C3185 C3152 1.439 . S
C3185 H3162 0.931 . S
C3185 C3186 1.374 . S
C3186 C3157 1.387 . S
C3186 H3163 0.931 . S
C3186 C3185 1.374 . S
C3187 O3171 1.249 . S
C3187 O3172 1.264 . S
C3188 C3191 1.382 . S
C3188 C3192 1.390 . S
C3188 C3195 1.506 . S
C3189 C3190 1.398 . S
C3189 C3192 1.392 . S
C3190 C3189 1.398 . S
C3190 C3193 1.372 . S
C3190 H3200 0.931 . S
C3191 C3188 1.382 . S
C3191 C3193 1.390 . S
C3191 H3201 0.931 . S
C3192 C3188 1.390 . S
C3192 C3189 1.392 . S
C3192 H3202 0.930 . S
C3193 C3190 1.372 . S
C3193 C3191 1.390 . S
C3193 H3203 0.929 . S
C3194 O3174 1.255 . S
C3194 O3175 1.257 . S
C3195 Eu3131 2.787 . S
C3195 O3170 1.252 . S
C3195 O3173 1.268 . S
C3195 C3188 1.506 . S
H3196 C3179 0.931 . S
H3197 C3180 0.931 . S
H3198 C3181 0.929 . S
H3199 C3182 0.930 . S
H3200 C3190 0.931 . S
H3201 C3191 0.931 . S
H3202 C3192 0.930 . S
H3203 C3193 0.929 . S
Eu3204 N3233 2.600 . S
Eu3204 N3239 2.562 . S
Eu3204 O3248 2.462 . S
Eu3204 O3249 2.373 . S
Eu3204 O3251 2.432 . S
Eu3204 O3252 2.291 . S
Eu3204 O3256 2.335 . S
Eu3204 O3259 2.372 . S
Eu3204 C3268 2.787 . S
C3205 N3206 1.365 . S
C3205 C3208 1.405 . S
C3205 C3212 1.448 . S
N3206 C3205 1.365 . S
N3206 C3209 1.319 . S
N3206 Eu3215 2.600 . S
C3207 C3209 1.397 . S
C3207 C3210 1.367 . S
C3207 H3227 0.931 . S
C3208 C3205 1.405 . S
C3208 C3210 1.403 . S
C3208 C3214 1.439 . S
C3209 N3206 1.319 . S
C3209 C3207 1.397 . S
C3209 H3220 0.930 . S
C3210 C3207 1.367 . S
C3210 C3208 1.403 . S
C3210 H3231 0.929 . S
C3211 C3212 1.430 . S
C3211 C3213 1.387 . S
C3211 C3217 1.404 . S
C3212 C3205 1.448 . S
C3212 C3211 1.430 . S
C3212 N3216 1.351 . S
C3213 C3211 1.387 . S
C3213 C3214 1.374 . S
C3213 H3228 0.931 . S
C3214 C3208 1.439 . S
C3214 C3213 1.374 . S
C3214 H3229 0.931 . S
Eu3215 N3206 2.600 . S
Eu3215 N3216 2.562 . S
Eu3215 O3250 2.335 . S
Eu3215 O3253 2.372 . S
Eu3215 O3254 2.462 . S
Eu3215 O3255 2.373 . S
Eu3215 O3257 2.432 . S
Eu3215 O3258 2.291 . S
Eu3215 C3279 2.787 . S
N3216 C3212 1.351 . S
N3216 Eu3215 2.562 . S
N3216 C3218 1.325 . S
C3217 C3211 1.404 . S
C3217 C3219 1.366 . S
C3217 H3225 0.930 . S
C3218 N3216 1.325 . S
C3218 C3219 1.416 . S
C3218 H3224 0.929 . S
C3219 C3217 1.366 . S
C3219 C3218 1.416 . S
C3219 H3221 0.930 . S
H3220 C3209 0.930 . S
H3221 C3219 0.930 . S
H3222 C3237 0.930 . S
H3223 C3244 0.930 . S
H3224 C3218 0.929 . S
H3225 C3217 0.930 . S
H3226 C3240 0.929 . S
H3227 C3207 0.931 . S
H3228 C3213 0.931 . S
H3229 C3214 0.931 . S
H3230 C3235 0.931 . S
H3231 C3210 0.929 . S
H3232 C3243 0.930 . S
N3233 Eu3204 2.600 . S
N3233 C3234 1.365 . S
N3233 C3237 1.319 . S
C3234 N3233 1.365 . S
C3234 C3236 1.405 . S
C3234 C3242 1.448 . S
C3235 H3230 0.931 . S
C3235 C3237 1.397 . S
C3235 C3238 1.367 . S
C3236 C3234 1.405 . S
C3236 C3238 1.403 . S
C3236 C3269 1.439 . S
C3237 H3222 0.930 . S
C3237 N3233 1.319 . S
C3237 C3235 1.397 . S
C3238 C3235 1.367 . S
C3238 C3236 1.403 . S
C3238 H3245 0.929 . S
N3239 Eu3204 2.562 . S
N3239 C3240 1.325 . S
N3239 C3242 1.351 . S
C3240 H3226 0.929 . S
C3240 N3239 1.325 . S
C3240 C3244 1.416 . S
C3241 C3242 1.430 . S
C3241 C3243 1.404 . S
C3241 C3270 1.387 . S
C3242 C3234 1.448 . S
C3242 N3239 1.351 . S
C3242 C3241 1.430 . S
C3243 H3232 0.930 . S
C3243 C3241 1.404 . S
C3243 C3244 1.366 . S
C3244 H3223 0.930 . S
C3244 C3240 1.416 . S
C3244 C3243 1.366 . S
H3245 C3238 0.929 . S
H3246 C3269 0.931 . S
H3247 C3270 0.931 . S
O3248 Eu3204 2.462 . S
O3248 C3268 1.252 . S
O3249 Eu3204 2.373 . S
O3249 C3260 1.249 . S
O3250 Eu3215 2.335 . S
O3250 C3260 1.264 . S
O3251 Eu3204 2.432 . S
O3251 C3268 1.268 . S
O3252 Eu3204 2.291 . S
O3252 C3267 1.255 . S
O3253 Eu3215 2.372 . S
O3253 C3267 1.257 . S
O3254 Eu3215 2.462 . S
O3254 C3279 1.252 . S
O3255 Eu3215 2.373 . S
O3255 C3271 1.249 . S
O3256 Eu3204 2.335 . S
O3256 C3271 1.264 . S
O3257 Eu3215 2.432 . S
O3257 C3279 1.268 . S
O3258 Eu3215 2.291 . S
O3258 C3278 1.255 . S
O3259 Eu3204 2.372 . S
O3259 C3278 1.257 . S
C3260 O3249 1.249 . S
C3260 O3250 1.264 . S
C3261 C3264 1.382 . S
C3261 C3266 1.390 . S
C3261 C3268 1.506 . S
C3262 C3263 1.398 . S
C3262 C3266 1.392 . S
C3263 C3262 1.398 . S
C3263 C3265 1.372 . S
C3263 H3280 0.931 . S
C3264 C3261 1.382 . S
C3264 C3265 1.390 . S
C3264 H3281 0.931 . S
C3265 C3263 1.372 . S
C3265 C3264 1.390 . S
C3265 H3282 0.929 . S
C3266 C3261 1.390 . S
C3266 C3262 1.392 . S
C3266 H3283 0.930 . S
C3267 O3252 1.255 . S
C3267 O3253 1.257 . S
C3268 Eu3204 2.787 . S
C3268 O3248 1.252 . S
C3268 O3251 1.268 . S
C3268 C3261 1.506 . S
C3269 C3236 1.439 . S
C3269 H3246 0.931 . S
C3269 C3270 1.374 . S
C3270 C3241 1.387 . S
C3270 H3247 0.931 . S
C3270 C3269 1.374 . S
C3271 O3255 1.249 . S
C3271 O3256 1.264 . S
C3272 C3275 1.382 . S
C3272 C3276 1.390 . S
C3272 C3279 1.506 . S
C3273 C3274 1.398 . S
C3273 C3276 1.392 . S
C3274 C3273 1.398 . S
C3274 C3277 1.372 . S
C3274 H3284 0.931 . S
C3275 C3272 1.382 . S
C3275 C3277 1.390 . S
C3275 H3285 0.931 . S
C3276 C3272 1.390 . S
C3276 C3273 1.392 . S
C3276 H3286 0.930 . S
C3277 C3274 1.372 . S
C3277 C3275 1.390 . S
C3277 H3287 0.929 . S
C3278 O3258 1.255 . S
C3278 O3259 1.257 . S
C3279 Eu3215 2.787 . S
C3279 O3254 1.252 . S
C3279 O3257 1.268 . S
C3279 C3272 1.506 . S
H3280 C3263 0.931 . S
H3281 C3264 0.931 . S
H3282 C3265 0.929 . S
H3283 C3266 0.930 . S
H3284 C3274 0.931 . S
H3285 C3275 0.931 . S
H3286 C3276 0.930 . S
H3287 C3277 0.929 . S
Eu3288 N3317 2.600 . S
Eu3288 N3323 2.562 . S
Eu3288 O3332 2.462 . S
Eu3288 O3333 2.373 . S
Eu3288 O3335 2.432 . S
Eu3288 O3336 2.291 . S
Eu3288 O3340 2.335 . S
Eu3288 O3343 2.372 . S
Eu3288 C3352 2.787 . S
C3289 N3290 1.365 . S
C3289 C3292 1.405 . S
C3289 C3296 1.448 . S
N3290 C3289 1.365 . S
N3290 C3293 1.319 . S
N3290 Eu3299 2.600 . S
C3291 C3293 1.397 . S
C3291 C3294 1.367 . S
C3291 H3311 0.931 . S
C3292 C3289 1.405 . S
C3292 C3294 1.403 . S
C3292 C3298 1.439 . S
C3293 N3290 1.319 . S
C3293 C3291 1.397 . S
C3293 H3304 0.930 . S
C3294 C3291 1.367 . S
C3294 C3292 1.403 . S
C3294 H3315 0.929 . S
C3295 C3296 1.430 . S
C3295 C3297 1.387 . S
C3295 C3301 1.404 . S
C3296 C3289 1.448 . S
C3296 C3295 1.430 . S
C3296 N3300 1.351 . S
C3297 C3295 1.387 . S
C3297 C3298 1.374 . S
C3297 H3312 0.931 . S
C3298 C3292 1.439 . S
C3298 C3297 1.374 . S
C3298 H3313 0.931 . S
Eu3299 N3290 2.600 . S
Eu3299 N3300 2.562 . S
Eu3299 O3334 2.335 . S
Eu3299 O3337 2.372 . S
Eu3299 O3338 2.462 . S
Eu3299 O3339 2.373 . S
Eu3299 O3341 2.432 . S
Eu3299 O3342 2.291 . S
Eu3299 C3363 2.787 . S
N3300 C3296 1.351 . S
N3300 Eu3299 2.562 . S
N3300 C3302 1.325 . S
C3301 C3295 1.404 . S
C3301 C3303 1.366 . S
C3301 H3309 0.930 . S
C3302 N3300 1.325 . S
C3302 C3303 1.416 . S
C3302 H3308 0.929 . S
C3303 C3301 1.366 . S
C3303 C3302 1.416 . S
C3303 H3305 0.930 . S
H3304 C3293 0.930 . S
H3305 C3303 0.930 . S
H3306 C3321 0.930 . S
H3307 C3328 0.930 . S
H3308 C3302 0.929 . S
H3309 C3301 0.930 . S
H3310 C3324 0.929 . S
H3311 C3291 0.931 . S
H3312 C3297 0.931 . S
H3313 C3298 0.931 . S
H3314 C3319 0.931 . S
H3315 C3294 0.929 . S
H3316 C3327 0.930 . S
N3317 Eu3288 2.600 . S
N3317 C3318 1.365 . S
N3317 C3321 1.319 . S
C3318 N3317 1.365 . S
C3318 C3320 1.405 . S
C3318 C3326 1.448 . S
C3319 H3314 0.931 . S
C3319 C3321 1.397 . S
C3319 C3322 1.367 . S
C3320 C3318 1.405 . S
C3320 C3322 1.403 . S
C3320 C3353 1.439 . S
C3321 H3306 0.930 . S
C3321 N3317 1.319 . S
C3321 C3319 1.397 . S
C3322 C3319 1.367 . S
C3322 C3320 1.403 . S
C3322 H3329 0.929 . S
N3323 Eu3288 2.562 . S
N3323 C3324 1.325 . S
N3323 C3326 1.351 . S
C3324 H3310 0.929 . S
C3324 N3323 1.325 . S
C3324 C3328 1.416 . S
C3325 C3326 1.430 . S
C3325 C3327 1.404 . S
C3325 C3354 1.387 . S
C3326 C3318 1.448 . S
C3326 N3323 1.351 . S
C3326 C3325 1.430 . S
C3327 H3316 0.930 . S
C3327 C3325 1.404 . S
C3327 C3328 1.366 . S
C3328 H3307 0.930 . S
C3328 C3324 1.416 . S
C3328 C3327 1.366 . S
H3329 C3322 0.929 . S
H3330 C3353 0.931 . S
H3331 C3354 0.931 . S
O3332 Eu3288 2.462 . S
O3332 C3352 1.252 . S
O3333 Eu3288 2.373 . S
O3333 C3344 1.249 . S
O3334 Eu3299 2.335 . S
O3334 C3344 1.264 . S
O3335 Eu3288 2.432 . S
O3335 C3352 1.268 . S
O3336 Eu3288 2.291 . S
O3336 C3351 1.255 . S
O3337 Eu3299 2.372 . S
O3337 C3351 1.257 . S
O3338 Eu3299 2.462 . S
O3338 C3363 1.252 . S
O3339 Eu3299 2.373 . S
O3339 C3355 1.249 . S
O3340 Eu3288 2.335 . S
O3340 C3355 1.264 . S
O3341 Eu3299 2.432 . S
O3341 C3363 1.268 . S
O3342 Eu3299 2.291 . S
O3342 C3362 1.255 . S
O3343 Eu3288 2.372 . S
O3343 C3362 1.257 . S
C3344 O3333 1.249 . S
C3344 O3334 1.264 . S
C3345 C3348 1.382 . S
C3345 C3350 1.390 . S
C3345 C3352 1.506 . S
C3346 C3347 1.398 . S
C3346 C3350 1.392 . S
C3347 C3346 1.398 . S
C3347 C3349 1.372 . S
C3347 H3364 0.931 . S
C3348 C3345 1.382 . S
C3348 C3349 1.390 . S
C3348 H3365 0.931 . S
C3349 C3347 1.372 . S
C3349 C3348 1.390 . S
C3349 H3366 0.929 . S
C3350 C3345 1.390 . S
C3350 C3346 1.392 . S
C3350 H3367 0.930 . S
C3351 O3336 1.255 . S
C3351 O3337 1.257 . S
C3352 Eu3288 2.787 . S
C3352 O3332 1.252 . S
C3352 O3335 1.268 . S
C3352 C3345 1.506 . S
C3353 C3320 1.439 . S
C3353 H3330 0.931 . S
C3353 C3354 1.374 . S
C3354 C3325 1.387 . S
C3354 H3331 0.931 . S
C3354 C3353 1.374 . S
C3355 O3339 1.249 . S
C3355 O3340 1.264 . S
C3356 C3359 1.382 . S
C3356 C3360 1.390 . S
C3356 C3363 1.506 . S
C3357 C3358 1.398 . S
C3357 C3360 1.392 . S
C3358 C3357 1.398 . S
C3358 C3361 1.372 . S
C3358 H3368 0.931 . S
C3359 C3356 1.382 . S
C3359 C3361 1.390 . S
C3359 H3369 0.931 . S
C3360 C3356 1.390 . S
C3360 C3357 1.392 . S
C3360 H3370 0.930 . S
C3361 C3358 1.372 . S
C3361 C3359 1.390 . S
C3361 H3371 0.929 . S
C3362 O3342 1.255 . S
C3362 O3343 1.257 . S
C3363 Eu3299 2.787 . S
C3363 O3338 1.252 . S
C3363 O3341 1.268 . S
C3363 C3356 1.506 . S
H3364 C3347 0.931 . S
H3365 C3348 0.931 . S
H3366 C3349 0.929 . S
H3367 C3350 0.930 . S
H3368 C3358 0.931 . S
H3369 C3359 0.931 . S
H3370 C3360 0.930 . S
H3371 C3361 0.929 . S
Eu3372 N3401 2.600 . S
Eu3372 N3407 2.562 . S
Eu3372 O3416 2.462 . S
Eu3372 O3417 2.373 1_655 S
Eu3372 O3419 2.432 . S
Eu3372 O3420 2.291 1_655 S
Eu3372 O3424 2.335 1_655 S
Eu3372 O3427 2.372 1_655 S
Eu3372 C3436 2.787 . S
C3373 N3374 1.365 . S
C3373 C3376 1.405 . S
C3373 C3380 1.448 1_556 S
N3374 C3373 1.365 . S
N3374 C3377 1.319 . S
N3374 Eu3383 2.600 1_556 S
C3375 C3377 1.397 . S
C3375 C3378 1.367 . S
C3375 H3395 0.931 . S
C3376 C3373 1.405 . S
C3376 C3378 1.403 . S
C3376 C3382 1.439 . S
C3377 N3374 1.319 . S
C3377 C3375 1.397 . S
C3377 H3388 0.930 . S
C3378 C3375 1.367 . S
C3378 C3376 1.403 . S
C3378 H3399 0.929 . S
C3379 C3380 1.430 . S
C3379 C3381 1.387 . S
C3379 C3385 1.404 . S
C3380 C3373 1.448 1_554 S
C3380 C3379 1.430 . S
C3380 N3384 1.351 . S
C3381 C3379 1.387 . S
C3381 C3382 1.374 1_554 S
C3381 H3396 0.931 . S
C3382 C3376 1.439 . S
C3382 C3381 1.374 1_556 S
C3382 H3397 0.931 . S
Eu3383 N3374 2.600 1_554 S
Eu3383 N3384 2.562 . S
Eu3383 O3418 2.335 . S
Eu3383 O3421 2.372 1_554 S
Eu3383 O3422 2.462 . S
Eu3383 O3423 2.373 . S
Eu3383 O3425 2.432 1_554 S
Eu3383 O3426 2.291 . S
Eu3383 C3447 2.787 . S
N3384 C3380 1.351 . S
N3384 Eu3383 2.562 . S
N3384 C3386 1.325 . S
C3385 C3379 1.404 . S
C3385 C3387 1.366 . S
C3385 H3393 0.930 . S
C3386 N3384 1.325 . S
C3386 C3387 1.416 . S
C3386 H3392 0.929 . S
C3387 C3385 1.366 . S
C3387 C3386 1.416 . S
C3387 H3389 0.930 . S
H3388 C3377 0.930 . S
H3389 C3387 0.930 . S
H3390 C3405 0.930 1_455 S
H3391 C3412 0.930 . S
H3392 C3386 0.929 . S
H3393 C3385 0.930 . S
H3394 C3408 0.929 1_556 S
H3395 C3375 0.931 . S
H3396 C3381 0.931 . S
H3397 C3382 0.931 . S
H3398 C3403 0.931 . S
H3399 C3378 0.929 . S
H3400 C3411 0.930 . S
N3401 Eu3372 2.600 . S
N3401 C3402 1.365 . S
N3401 C3405 1.319 . S
C3402 N3401 1.365 . S
C3402 C3404 1.405 . S
C3402 C3410 1.448 . S
C3403 H3398 0.931 . S
C3403 C3405 1.397 . S
C3403 C3406 1.367 . S
C3404 C3402 1.405 . S
C3404 C3406 1.403 . S
C3404 C3437 1.439 . S
C3405 H3390 0.930 1_655 S
C3405 N3401 1.319 . S
C3405 C3403 1.397 . S
C3406 C3403 1.367 . S
C3406 C3404 1.403 . S
C3406 H3413 0.929 . S
N3407 Eu3372 2.562 . S
N3407 C3408 1.325 . S
N3407 C3410 1.351 . S
C3408 H3394 0.929 1_554 S
C3408 N3407 1.325 . S
C3408 C3412 1.416 1_554 S
C3409 C3410 1.430 . S
C3409 C3411 1.404 . S
C3409 C3438 1.387 . S
C3410 C3402 1.448 . S
C3410 N3407 1.351 . S
C3410 C3409 1.430 . S
C3411 H3400 0.930 . S
C3411 C3409 1.404 . S
C3411 C3412 1.366 1_554 S
C3412 H3391 0.930 . S
C3412 C3408 1.416 1_556 S
C3412 C3411 1.366 1_556 S
H3413 C3406 0.929 . S
H3414 C3437 0.931 . S
H3415 C3438 0.931 . S
O3416 Eu3372 2.462 . S
O3416 C3436 1.252 . S
O3417 Eu3372 2.373 1_455 S
O3417 C3428 1.249 . S
O3418 Eu3383 2.335 . S
O3418 C3428 1.264 . S
O3419 Eu3372 2.432 . S
O3419 C3436 1.268 . S
O3420 Eu3372 2.291 1_455 S
O3420 C3435 1.255 1_554 S
O3421 Eu3383 2.372 1_556 S
O3421 C3435 1.257 . S
O3422 Eu3383 2.462 . S
O3422 C3447 1.252 . S
O3423 Eu3383 2.373 . S
O3423 C3439 1.249 . S
O3424 Eu3372 2.335 1_455 S
O3424 C3439 1.264 . S
O3425 Eu3383 2.432 1_556 S
O3425 C3447 1.268 1_556 S
O3426 Eu3383 2.291 . S
O3426 C3446 1.255 . S
O3427 Eu3372 2.372 1_455 S
O3427 C3446 1.257 . S
C3428 O3417 1.249 . S
C3428 O3418 1.264 . S
C3429 C3432 1.382 . S
C3429 C3434 1.390 . S
C3429 C3436 1.506 . S
C3430 C3431 1.398 . S
C3430 C3434 1.392 . S
C3431 C3430 1.398 . S
C3431 C3433 1.372 . S
C3431 H3448 0.931 . S
C3432 C3429 1.382 . S
C3432 C3433 1.390 . S
C3432 H3449 0.931 . S
C3433 C3431 1.372 . S
C3433 C3432 1.390 . S
C3433 H3450 0.929 . S
C3434 C3429 1.390 . S
C3434 C3430 1.392 . S
C3434 H3451 0.930 . S
C3435 O3420 1.255 1_556 S
C3435 O3421 1.257 . S
C3436 Eu3372 2.787 . S
C3436 O3416 1.252 . S
C3436 O3419 1.268 . S
C3436 C3429 1.506 . S
C3437 C3404 1.439 . S
C3437 H3414 0.931 . S
C3437 C3438 1.374 . S
C3438 C3409 1.387 . S
C3438 H3415 0.931 . S
C3438 C3437 1.374 . S
C3439 O3423 1.249 . S
C3439 O3424 1.264 . S
C3440 C3443 1.382 . S
C3440 C3444 1.390 1_556 S
C3440 C3447 1.506 1_556 S
C3441 C3442 1.398 1_554 S
C3441 C3444 1.392 . S
C3442 C3441 1.398 1_556 S
C3442 C3445 1.372 . S
C3442 H3452 0.931 . S
C3443 C3440 1.382 . S
C3443 C3445 1.390 . S
C3443 H3453 0.931 . S
C3444 C3440 1.390 1_554 S
C3444 C3441 1.392 . S
C3444 H3454 0.930 . S
C3445 C3442 1.372 . S
C3445 C3443 1.390 . S
C3445 H3455 0.929 . S
C3446 O3426 1.255 . S
C3446 O3427 1.257 . S
C3447 Eu3383 2.787 . S
C3447 O3422 1.252 . S
C3447 O3425 1.268 1_554 S
C3447 C3440 1.506 1_554 S
H3448 C3431 0.931 . S
H3449 C3432 0.931 . S
H3450 C3433 0.929 . S
H3451 C3434 0.930 . S
H3452 C3442 0.931 . S
H3453 C3443 0.931 . S
H3454 C3444 0.930 . S
H3455 C3445 0.929 . S
H3456 C3464 0.929 . S
H3457 C3466 0.930 . S
H3458 C3468 0.930 . S
H3459 C3471 0.929 . S
H3460 C3474 0.946 . S
H3461 C3476 0.960 . S
H3462 C3476 0.960 . S
H3463 C3476 0.960 . S
C3464 H3456 0.929 . S
C3464 C3465 1.377 1_455 S
C3464 C3466 1.384 . S
C3465 C3464 1.377 1_655 S
C3465 C3471 1.390 . S
C3466 H3457 0.930 . S
C3466 C3464 1.384 . S
C3466 C3467 1.372 . S
C3467 C3466 1.372 . S
C3467 C3468 1.400 1_455 S
C3467 C3472 1.490 . S
C3468 H3458 0.930 . S
C3468 C3467 1.400 1_655 S
C3468 C3471 1.386 . S
H3469 C3485 0.930 1_655 S
H3470 C3486 0.931 1_655 S
C3471 H3459 0.929 . S
C3471 C3465 1.390 . S
C3471 C3468 1.386 . S
C3472 C3467 1.490 . S
C3472 C3474 1.360 1_556 S
C3472 C3475 1.403 1_455 S
H3473 C3479 0.908 1_655 S
C3474 H3460 0.946 . S
C3474 C3472 1.360 1_554 S
C3474 C3477 1.426 . S
C3475 C3472 1.403 1_655 S
C3475 C3476 1.524 . S
C3475 C3479 1.382 1_655 S
C3476 H3461 0.960 . S
C3476 H3462 0.960 . S
C3476 H3463 0.960 . S
C3476 C3475 1.524 . S
C3477 C3474 1.426 . S
C3477 C3478 1.375 1_554 S
C3477 C3481 1.495 . S
C3478 C3477 1.375 1_556 S
C3478 C3479 1.472 . S
C3478 C3480 1.455 1_556 S
C3479 H3473 0.908 1_455 S
C3479 C3475 1.382 1_455 S
C3479 C3478 1.472 . S
C3480 C3478 1.455 1_554 S
C3480 C3482 1.363 1_554 S
C3480 C3486 1.383 . S
C3481 C3477 1.495 . S
C3481 H3487 0.959 . S
C3481 H3488 0.961 . S
C3481 H3489 0.960 . S
C3482 C3480 1.363 1_556 S
C3482 C3483 1.378 1_556 S
C3482 H3490 0.970 . S
C3483 C3482 1.378 1_554 S
C3483 C3484 1.383 . S
C3483 H3491 0.909 1_554 S
C3484 C3483 1.383 . S
C3484 C3485 1.377 . S
C3485 H3469 0.930 1_455 S
C3485 C3484 1.377 . S
C3485 C3486 1.379 . S
C3486 H3470 0.931 1_455 S
C3486 C3480 1.383 . S
C3486 C3485 1.379 . S
H3487 C3481 0.959 . S
H3488 C3481 0.961 . S
H3489 C3481 0.960 . S
H3490 C3482 0.970 . S
H3491 C3483 0.909 1_556 S
H3492 C3500 0.929 . S
H3493 C3502 0.930 . S
H3494 C3504 0.930 . S
H3495 C3507 0.929 . S
H3496 C3510 0.930 . S
H3497 C3512 0.960 . S
H3498 C3512 0.960 . S
H3499 C3512 0.960 . S
C3500 H3492 0.929 . S
C3500 C3501 1.377 . S
C3500 C3502 1.384 . S
C3501 C3500 1.377 . S
C3501 C3507 1.390 . S
C3502 H3493 0.930 . S
C3502 C3500 1.384 . S
C3502 C3503 1.372 . S
C3503 C3502 1.372 . S
C3503 C3504 1.400 . S
C3503 C3508 1.490 . S
C3504 H3494 0.930 . S
C3504 C3503 1.400 . S
C3504 C3507 1.386 . S
H3505 C3521 0.930 . S
H3506 C3522 0.931 . S
C3507 H3495 0.929 . S
C3507 C3501 1.390 . S
C3507 C3504 1.386 . S
C3508 C3503 1.490 . S
C3508 C3510 1.395 . S
C3508 C3511 1.403 . S
H3509 C3515 0.930 . S
C3510 H3496 0.930 . S
C3510 C3508 1.395 . S
C3510 C3513 1.403 . S
C3511 C3508 1.403 . S
C3511 C3512 1.524 . S
C3511 C3515 1.400 . S
C3512 H3497 0.960 . S
C3512 H3498 0.960 . S
C3512 H3499 0.960 . S
C3512 C3511 1.524 . S
C3513 C3510 1.403 . S
C3513 C3514 1.392 . S
C3513 C3517 1.495 . S
C3514 C3513 1.392 . S
C3514 C3515 1.385 . S
C3514 C3516 1.478 . S
C3515 H3509 0.930 . S
C3515 C3511 1.400 . S
C3515 C3514 1.385 . S
C3516 C3514 1.478 . S
C3516 C3518 1.381 . S
C3516 C3522 1.383 . S
C3517 C3513 1.495 . S
C3517 H3523 0.959 . S
C3517 H3524 0.961 . S
C3517 H3525 0.960 . S
C3518 C3516 1.381 . S
C3518 C3519 1.394 . S
C3518 H3526 0.930 . S
C3519 C3518 1.394 . S
C3519 C3520 1.383 . S
C3519 H3527 0.929 . S
C3520 C3519 1.383 . S
C3520 C3521 1.377 . S
C3521 H3505 0.930 . S
C3521 C3520 1.377 . S
C3521 C3522 1.379 . S
C3522 H3506 0.931 . S
C3522 C3516 1.383 . S
C3522 C3521 1.379 . S
H3523 C3517 0.959 . S
H3524 C3517 0.961 . S
H3525 C3517 0.960 . S
H3526 C3518 0.930 . S
H3527 C3519 0.929 . S
H3528 C3536 0.929 . S
H3529 C3538 0.930 . S
H3530 C3540 0.930 . S
H3531 C3543 0.929 . S
H3532 C3546 0.930 . S
H3533 C3548 0.960 . S
H3534 C3548 0.960 . S
H3535 C3548 0.960 . S
C3536 H3528 0.929 . S
C3536 C3537 1.377 . S
C3536 C3538 1.384 . S
C3537 C3536 1.377 . S
C3537 C3543 1.390 . S
C3538 H3529 0.930 . S
C3538 C3536 1.384 . S
C3538 C3539 1.372 . S
C3539 C3538 1.372 . S
C3539 C3540 1.400 . S
C3539 C3544 1.490 . S
C3540 H3530 0.930 . S
C3540 C3539 1.400 . S
C3540 C3543 1.386 . S
H3541 C3557 0.930 . S
H3542 C3558 0.931 . S
C3543 H3531 0.929 . S
C3543 C3537 1.390 . S
C3543 C3540 1.386 . S
C3544 C3539 1.490 . S
C3544 C3546 1.395 . S
C3544 C3547 1.403 . S
H3545 C3551 0.930 . S
C3546 H3532 0.930 . S
C3546 C3544 1.395 . S
C3546 C3549 1.403 . S
C3547 C3544 1.403 . S
C3547 C3548 1.524 . S
C3547 C3551 1.400 . S
C3548 H3533 0.960 . S
C3548 H3534 0.960 . S
C3548 H3535 0.960 . S
C3548 C3547 1.524 . S
C3549 C3546 1.403 . S
C3549 C3550 1.392 . S
C3549 C3553 1.495 . S
C3550 C3549 1.392 . S
C3550 C3551 1.385 . S
C3550 C3552 1.478 . S
C3551 H3545 0.930 . S
C3551 C3547 1.400 . S
C3551 C3550 1.385 . S
C3552 C3550 1.478 . S
C3552 C3554 1.381 . S
C3552 C3558 1.383 . S
C3553 C3549 1.495 . S
C3553 H3559 0.959 . S
C3553 H3560 0.961 . S
C3553 H3561 0.960 . S
C3554 C3552 1.381 . S
C3554 C3555 1.394 . S
C3554 H3562 0.930 . S
C3555 C3554 1.394 . S
C3555 C3556 1.383 . S
C3555 H3563 0.929 . S
C3556 C3555 1.383 . S
C3556 C3557 1.377 . S
C3557 H3541 0.930 . S
C3557 C3556 1.377 . S
C3557 C3558 1.379 . S
C3558 H3542 0.931 . S
C3558 C3552 1.383 . S
C3558 C3557 1.379 . S
H3559 C3553 0.959 . S
H3560 C3553 0.961 . S
H3561 C3553 0.960 . S
H3562 C3554 0.930 . S
H3563 C3555 0.929 . S
H3564 C3572 0.929 . S
H3565 C3574 0.930 . S
H3566 C3576 0.930 . S
H3567 C3579 0.929 . S
H3568 C3582 0.930 . S
H3569 C3584 0.960 . S
H3570 C3584 0.960 . S
H3571 C3584 0.960 . S
C3572 H3564 0.929 . S
C3572 C3573 1.377 . S
C3572 C3574 1.384 . S
C3573 C3572 1.377 . S
C3573 C3579 1.390 . S
C3574 H3565 0.930 . S
C3574 C3572 1.384 . S
C3574 C3575 1.372 . S
C3575 C3574 1.372 . S
C3575 C3576 1.400 . S
C3575 C3580 1.490 . S
C3576 H3566 0.930 . S
C3576 C3575 1.400 . S
C3576 C3579 1.386 . S
H3577 C3593 0.930 . S
H3578 C3594 0.931 . S
C3579 H3567 0.929 . S
C3579 C3573 1.390 . S
C3579 C3576 1.386 . S
C3580 C3575 1.490 . S
C3580 C3582 1.395 . S
C3580 C3583 1.403 . S
H3581 C3587 0.930 . S
C3582 H3568 0.930 . S
C3582 C3580 1.395 . S
C3582 C3585 1.403 . S
C3583 C3580 1.403 . S
C3583 C3584 1.524 . S
C3583 C3587 1.400 . S
C3584 H3569 0.960 . S
C3584 H3570 0.960 . S
C3584 H3571 0.960 . S
C3584 C3583 1.524 . S
C3585 C3582 1.403 . S
C3585 C3586 1.392 . S
C3585 C3589 1.495 . S
C3586 C3585 1.392 . S
C3586 C3587 1.385 . S
C3586 C3588 1.478 . S
C3587 H3581 0.930 . S
C3587 C3583 1.400 . S
C3587 C3586 1.385 . S
C3588 C3586 1.478 . S
C3588 C3590 1.381 . S
C3588 C3594 1.383 . S
C3589 C3585 1.495 . S
C3589 H3595 0.959 . S
C3589 H3596 0.961 . S
C3589 H3597 0.960 . S
C3590 C3588 1.381 . S
C3590 C3591 1.394 . S
C3590 H3598 0.930 . S
C3591 C3590 1.394 . S
C3591 C3592 1.383 . S
C3591 H3599 0.929 . S
C3592 C3591 1.383 . S
C3592 C3593 1.377 . S
C3593 H3577 0.930 . S
C3593 C3592 1.377 . S
C3593 C3594 1.379 . S
C3594 H3578 0.931 . S
C3594 C3588 1.383 . S
C3594 C3593 1.379 . S
H3595 C3589 0.959 . S
H3596 C3589 0.961 . S
H3597 C3589 0.960 . S
H3598 C3590 0.930 . S
H3599 C3591 0.929 . S
H3600 C3608 0.929 . S
H3601 C3610 0.930 . S
H3602 C3612 0.930 . S
H3603 C3615 0.929 . S
H3604 C3618 0.930 . S
H3605 C3620 0.960 . S
H3606 C3620 0.960 . S
H3607 C3620 0.960 . S
C3608 H3600 0.929 . S
C3608 C3609 1.377 . S
C3608 C3610 1.384 . S
C3609 C3608 1.377 . S
C3609 C3615 1.390 . S
C3610 H3601 0.930 . S
C3610 C3608 1.384 . S
C3610 C3611 1.372 . S
C3611 C3610 1.372 . S
C3611 C3612 1.400 . S
C3611 C3616 1.490 . S
C3612 H3602 0.930 . S
C3612 C3611 1.400 . S
C3612 C3615 1.386 . S
H3613 C3629 0.930 . S
H3614 C3630 0.931 . S
C3615 H3603 0.929 . S
C3615 C3609 1.390 . S
C3615 C3612 1.386 . S
C3616 C3611 1.490 . S
C3616 C3618 1.395 . S
C3616 C3619 1.403 . S
H3617 C3623 0.972 . S
C3618 H3604 0.930 . S
C3618 C3616 1.395 . S
C3618 C3621 1.403 . S
C3619 C3616 1.403 . S
C3619 C3620 1.524 1_455 S
C3619 C3623 1.400 . S
C3620 H3605 0.960 . S
C3620 H3606 0.960 . S
C3620 H3607 0.960 . S
C3620 C3619 1.524 1_655 S
C3621 C3618 1.403 . S
C3621 C3622 1.392 . S
C3621 C3625 1.495 . S
C3622 C3621 1.392 . S
C3622 C3623 1.385 . S
C3622 C3624 1.478 . S
C3623 H3617 0.972 . S
C3623 C3619 1.400 . S
C3623 C3622 1.385 . S
C3624 C3622 1.478 . S
C3624 C3626 1.381 . S
C3624 C3630 1.383 . S
C3625 C3621 1.495 . S
C3625 H3631 0.959 . S
C3625 H3632 0.961 . S
C3625 H3633 0.960 . S
C3626 C3624 1.381 . S
C3626 C3627 1.394 . S
C3626 H3634 0.930 . S
C3627 C3626 1.394 . S
C3627 C3628 1.383 . S
C3627 H3635 0.929 . S
C3628 C3627 1.383 . S
C3628 C3629 1.377 . S
C3629 H3613 0.930 . S
C3629 C3628 1.377 . S
C3629 C3630 1.379 . S
C3630 H3614 0.931 . S
C3630 C3624 1.383 . S
C3630 C3629 1.379 . S
H3631 C3625 0.959 . S
H3632 C3625 0.961 . S
H3633 C3625 0.960 . S
H3634 C3626 0.930 . S
H3635 C3627 0.929 . S
H3636 C3644 0.929 . S
H3637 C3646 0.930 . S
H3638 C3648 0.930 . S
H3639 C3651 0.929 . S
H3640 C3654 0.930 . S
H3641 C3656 0.960 . S
H3642 C3656 0.960 . S
H3643 C3656 0.960 . S
C3644 H3636 0.929 . S
C3644 C3645 1.377 . S
C3644 C3646 1.384 . S
C3645 C3644 1.377 . S
C3645 C3651 1.390 . S
C3646 H3637 0.930 . S
C3646 C3644 1.384 . S
C3646 C3647 1.372 . S
C3647 C3646 1.372 . S
C3647 C3648 1.400 . S
C3647 C3652 1.490 . S
C3648 H3638 0.930 . S
C3648 C3647 1.400 . S
C3648 C3651 1.386 . S
H3649 C3665 0.930 . S
H3650 C3666 0.931 . S
C3651 H3639 0.929 . S
C3651 C3645 1.390 . S
C3651 C3648 1.386 . S
C3652 C3647 1.490 . S
C3652 C3654 1.395 . S
C3652 C3655 1.403 . S
H3653 C3659 0.930 . S
C3654 H3640 0.930 . S
C3654 C3652 1.395 . S
C3654 C3657 1.403 . S
C3655 C3652 1.403 . S
C3655 C3656 1.524 . S
C3655 C3659 1.400 . S
C3656 H3641 0.960 . S
C3656 H3642 0.960 . S
C3656 H3643 0.960 . S
C3656 C3655 1.524 . S
C3657 C3654 1.403 . S
C3657 C3658 1.392 . S
C3657 C3661 1.495 . S
C3658 C3657 1.392 . S
C3658 C3659 1.385 . S
C3658 C3660 1.478 . S
C3659 H3653 0.930 . S
C3659 C3655 1.400 . S
C3659 C3658 1.385 . S
C3660 C3658 1.478 . S
C3660 C3662 1.381 . S
C3660 C3666 1.383 . S
C3661 C3657 1.495 . S
C3661 H3667 0.959 . S
C3661 H3668 0.961 . S
C3661 H3669 0.960 . S
C3662 C3660 1.381 . S
C3662 C3663 1.394 . S
C3662 H3670 0.930 . S
C3663 C3662 1.394 . S
C3663 C3664 1.383 . S
C3663 H3671 0.929 . S
C3664 C3663 1.383 . S
C3664 C3665 1.377 . S
C3665 H3649 0.930 . S
C3665 C3664 1.377 . S
C3665 C3666 1.379 . S
C3666 H3650 0.931 . S
C3666 C3660 1.383 . S
C3666 C3665 1.379 . S
H3667 C3661 0.959 . S
H3668 C3661 0.961 . S
H3669 C3661 0.960 . S
H3670 C3662 0.930 . S
H3671 C3663 0.929 . S
H3672 C3680 0.929 . S
H3673 C3682 0.930 . S
H3674 C3684 0.930 . S
H3675 C3687 0.929 . S
H3676 C3690 0.930 . S
H3677 C3692 0.960 . S
H3678 C3692 0.960 . S
H3679 C3692 0.960 . S
C3680 H3672 0.929 . S
C3680 C3681 1.377 . S
C3680 C3682 1.384 . S
C3681 C3680 1.377 . S
C3681 C3687 1.390 . S
C3682 H3673 0.930 . S
C3682 C3680 1.384 . S
C3682 C3683 1.372 . S
C3683 C3682 1.372 . S
C3683 C3684 1.400 . S
C3683 C3688 1.490 . S
C3684 H3674 0.930 . S
C3684 C3683 1.400 . S
C3684 C3687 1.386 . S
H3685 C3701 0.930 . S
H3686 C3702 0.931 . S
C3687 H3675 0.929 . S
C3687 C3681 1.390 . S
C3687 C3684 1.386 . S
C3688 C3683 1.490 . S
C3688 C3690 1.395 . S
C3688 C3691 1.403 . S
H3689 C3695 0.930 . S
C3690 H3676 0.930 . S
C3690 C3688 1.395 . S
C3690 C3693 1.403 . S
C3691 C3688 1.403 . S
C3691 C3692 1.524 . S
C3691 C3695 1.400 . S
C3692 H3677 0.960 . S
C3692 H3678 0.960 . S
C3692 H3679 0.960 . S
C3692 C3691 1.524 . S
C3693 C3690 1.403 . S
C3693 C3694 1.392 . S
C3693 C3697 1.495 . S
C3694 C3693 1.392 . S
C3694 C3695 1.385 . S
C3694 C3696 1.478 . S
C3695 H3689 0.930 . S
C3695 C3691 1.400 . S
C3695 C3694 1.385 . S
C3696 C3694 1.478 . S
C3696 C3698 1.381 . S
C3696 C3702 1.383 . S
C3697 C3693 1.495 . S
C3697 H3703 0.959 . S
C3697 H3704 0.961 . S
C3697 H3705 0.960 . S
C3698 C3696 1.381 . S
C3698 C3699 1.394 . S
C3698 H3706 0.930 . S
C3699 C3698 1.394 . S
C3699 C3700 1.383 . S
C3699 H3707 0.929 . S
C3700 C3699 1.383 . S
C3700 C3701 1.377 . S
C3701 H3685 0.930 . S
C3701 C3700 1.377 . S
C3701 C3702 1.379 . S
C3702 H3686 0.931 . S
C3702 C3696 1.383 . S
C3702 C3701 1.379 . S
H3703 C3697 0.959 . S
H3704 C3697 0.961 . S
H3705 C3697 0.960 . S
H3706 C3698 0.930 . S
H3707 C3699 0.929 . S
H3708 C3716 0.929 . S
H3709 C3718 0.930 . S
H3710 C3720 0.930 . S
H3711 C3723 0.929 . S
H3712 C3726 0.930 . S
H3713 C3728 0.960 . S
H3714 C3728 0.960 . S
H3715 C3728 0.960 . S
C3716 H3708 0.929 . S
C3716 C3717 1.377 . S
C3716 C3718 1.384 . S
C3717 C3716 1.377 . S
C3717 C3723 1.390 . S
C3718 H3709 0.930 . S
C3718 C3716 1.384 . S
C3718 C3719 1.372 . S
C3719 C3718 1.372 . S
C3719 C3720 1.400 . S
C3719 C3724 1.490 . S
C3720 H3710 0.930 . S
C3720 C3719 1.400 . S
C3720 C3723 1.386 . S
H3721 C3737 0.930 . S
H3722 C3738 0.931 . S
C3723 H3711 0.929 . S
C3723 C3717 1.390 . S
C3723 C3720 1.386 . S
C3724 C3719 1.490 . S
C3724 C3726 1.395 . S
C3724 C3727 1.403 . S
H3725 C3731 0.930 . S
C3726 H3712 0.930 . S
C3726 C3724 1.395 . S
C3726 C3729 1.403 . S
C3727 C3724 1.403 . S
C3727 C3728 1.524 . S
C3727 C3731 1.400 . S
C3728 H3713 0.960 . S
C3728 H3714 0.960 . S
C3728 H3715 0.960 . S
C3728 C3727 1.524 . S
C3729 C3726 1.403 . S
C3729 C3730 1.392 . S
C3729 C3733 1.495 . S
C3730 C3729 1.392 . S
C3730 C3731 1.385 . S
C3730 C3732 1.478 . S
C3731 H3725 0.930 . S
C3731 C3727 1.400 . S
C3731 C3730 1.385 . S
C3732 C3730 1.478 . S
C3732 C3734 1.381 . S
C3732 C3738 1.383 . S
C3733 C3729 1.495 . S
C3733 H3739 0.959 . S
C3733 H3740 0.961 . S
C3733 H3741 0.960 . S
C3734 C3732 1.381 . S
C3734 C3735 1.394 . S
C3734 H3742 0.930 . S
C3735 C3734 1.394 . S
C3735 C3736 1.383 . S
C3735 H3743 0.929 . S
C3736 C3735 1.383 . S
C3736 C3737 1.377 . S
C3737 H3721 0.930 . S
C3737 C3736 1.377 . S
C3737 C3738 1.379 . S
C3738 H3722 0.931 . S
C3738 C3732 1.383 . S
C3738 C3737 1.379 . S
H3739 C3733 0.959 . S
H3740 C3733 0.961 . S
H3741 C3733 0.960 . S
H3742 C3734 0.930 . S
H3743 C3735 0.929 . S
H3744 C3752 0.929 . S
H3745 C3754 0.930 . S
H3746 C3756 0.930 . S
H3747 C3759 0.929 . S
H3748 C3762 0.930 1_565 S
H3749 C3764 0.960 . S
H3750 C3764 0.960 . S
H3751 C3764 0.960 . S
C3752 H3744 0.929 . S
C3752 C3753 1.377 . S
C3752 C3754 1.384 . S
C3753 C3752 1.377 . S
C3753 C3759 1.390 . S
C3754 H3745 0.930 . S
C3754 C3752 1.384 . S
C3754 C3755 1.372 . S
C3755 C3754 1.372 . S
C3755 C3756 1.400 . S
C3755 C3760 1.490 . S
C3756 H3746 0.930 . S
C3756 C3755 1.400 . S
C3756 C3759 1.386 . S
H3757 C3773 0.930 . S
H3758 C3774 0.931 . S
C3759 H3747 0.929 . S
C3759 C3753 1.390 . S
C3759 C3756 1.386 . S
C3760 C3755 1.490 . S
C3760 C3762 1.395 . S
C3760 C3763 1.403 . S
H3761 C3767 0.930 . S
C3762 H3748 0.930 1_545 S
C3762 C3760 1.395 . S
C3762 C3765 1.403 . S
C3763 C3760 1.403 . S
C3763 C3764 1.524 . S
C3763 C3767 1.400 . S
C3764 H3749 0.960 . S
C3764 H3750 0.960 . S
C3764 H3751 0.960 . S
C3764 C3763 1.524 . S
C3765 C3762 1.403 . S
C3765 C3766 1.392 . S
C3765 C3769 1.495 1_545 S
C3766 C3765 1.392 . S
C3766 C3767 1.385 . S
C3766 C3768 1.478 . S
C3767 H3761 0.930 . S
C3767 C3763 1.400 . S
C3767 C3766 1.385 . S
C3768 C3766 1.478 . S
C3768 C3770 1.381 1_655 S
C3768 C3774 1.383 . S
C3769 C3765 1.495 1_565 S
C3769 H3775 0.959 . S
C3769 H3776 0.961 . S
C3769 H3777 0.960 . S
C3770 C3768 1.381 1_455 S
C3770 C3771 1.394 . S
C3770 H3778 0.930 . S
C3771 C3770 1.394 . S
C3771 C3772 1.383 . S
C3771 H3779 0.929 . S
C3772 C3771 1.383 . S
C3772 C3773 1.377 1_455 S
C3773 H3757 0.930 . S
C3773 C3772 1.377 1_655 S
C3773 C3774 1.379 . S
C3774 H3758 0.931 . S
C3774 C3768 1.383 . S
C3774 C3773 1.379 . S
H3775 C3769 0.959 . S
H3776 C3769 0.961 . S
H3777 C3769 0.960 . S
H3778 C3770 0.930 . S
H3779 C3771 0.929 . S
H3780 C3788 0.929 . S
H3781 C3790 0.930 . S
H3782 C3792 0.930 . S
H3783 C3795 0.929 . S
H3784 C3798 0.930 . S
H3785 C3800 0.960 . S
H3786 C3800 0.960 . S
H3787 C3800 0.960 . S
C3788 H3780 0.929 . S
C3788 C3789 1.377 . S
C3788 C3790 1.384 . S
C3789 C3788 1.377 . S
C3789 C3795 1.390 . S
C3790 H3781 0.930 . S
C3790 C3788 1.384 . S
C3790 C3791 1.372 . S
C3791 C3790 1.372 . S
C3791 C3792 1.400 . S
C3791 C3796 1.490 . S
C3792 H3782 0.930 . S
C3792 C3791 1.400 . S
C3792 C3795 1.386 . S
H3793 C3809 0.930 . S
H3794 C3810 0.931 . S
C3795 H3783 0.929 . S
C3795 C3789 1.390 . S
C3795 C3792 1.386 . S
C3796 C3791 1.490 . S
C3796 C3798 1.395 . S
C3796 C3799 1.403 . S
H3797 C3803 0.930 . S
C3798 H3784 0.930 . S
C3798 C3796 1.395 . S
C3798 C3801 1.403 . S
C3799 C3796 1.403 . S
C3799 C3800 1.524 . S
C3799 C3803 1.400 . S
C3800 H3785 0.960 . S
C3800 H3786 0.960 . S
C3800 H3787 0.960 . S
C3800 C3799 1.524 . S
C3801 C3798 1.403 . S
C3801 C3802 1.392 . S
C3801 C3805 1.495 . S
C3802 C3801 1.392 . S
C3802 C3803 1.385 . S
C3802 C3804 1.478 . S
C3803 H3797 0.930 . S
C3803 C3799 1.400 . S
C3803 C3802 1.385 . S
C3804 C3802 1.478 . S
C3804 C3806 1.381 . S
C3804 C3810 1.383 . S
C3805 C3801 1.495 . S
C3805 H3811 0.959 . S
C3805 H3812 0.961 . S
C3805 H3813 0.960 . S
C3806 C3804 1.381 . S
C3806 C3807 1.394 . S
C3806 H3814 0.930 . S
C3807 C3806 1.394 . S
C3807 C3808 1.383 . S
C3807 H3815 0.929 . S
C3808 C3807 1.383 . S
C3808 C3809 1.377 . S
C3809 H3793 0.930 . S
C3809 C3808 1.377 . S
C3809 C3810 1.379 . S
C3810 H3794 0.931 . S
C3810 C3804 1.383 . S
C3810 C3809 1.379 . S
H3811 C3805 0.959 . S
H3812 C3805 0.961 . S
H3813 C3805 0.960 . S
H3814 C3806 0.930 . S
H3815 C3807 0.929 . S
H3816 C3824 0.929 . S
H3817 C3826 0.930 . S
H3818 C3828 0.930 . S
H3819 C3831 0.929 . S
H3820 C3834 0.930 . S
H3821 C3836 0.962 1_565 S
H3822 C3836 0.963 1_565 S
H3823 C3836 0.959 . S
C3824 H3816 0.929 . S
C3824 C3825 1.377 . S
C3824 C3826 1.384 . S
C3825 C3824 1.377 . S
C3825 C3831 1.390 . S
C3826 H3817 0.930 . S
C3826 C3824 1.384 . S
C3826 C3827 1.372 . S
C3827 C3826 1.372 . S
C3827 C3828 1.400 . S
C3827 C3832 1.490 . S
C3828 H3818 0.930 . S
C3828 C3827 1.400 . S
C3828 C3831 1.386 . S
H3829 C3845 0.930 . S
H3830 C3846 0.931 . S
C3831 H3819 0.929 . S
C3831 C3825 1.390 . S
C3831 C3828 1.386 . S
C3832 C3827 1.490 . S
C3832 C3834 1.395 . S
C3832 C3835 1.403 . S
H3833 C3839 0.930 . S
C3834 H3820 0.930 . S
C3834 C3832 1.395 . S
C3834 C3837 1.403 . S
C3835 C3832 1.403 . S
C3835 C3836 1.520 . S
C3835 C3839 1.400 . S
C3836 H3821 0.962 1_545 S
C3836 H3822 0.963 1_545 S
C3836 H3823 0.959 . S
C3836 C3835 1.520 . S
C3837 C3834 1.403 . S
C3837 C3838 1.392 . S
C3837 C3841 1.495 . S
C3838 C3837 1.392 . S
C3838 C3839 1.385 . S
C3838 C3840 1.478 . S
C3839 H3833 0.930 . S
C3839 C3835 1.400 . S
C3839 C3838 1.385 . S
C3840 C3838 1.478 . S
C3840 C3842 1.381 . S
C3840 C3846 1.383 . S
C3841 C3837 1.495 . S
C3841 H3847 0.959 . S
C3841 H3848 0.961 . S
C3841 H3849 0.960 . S
C3842 C3840 1.381 . S
C3842 C3843 1.394 . S
C3842 H3850 0.930 . S
C3843 C3842 1.394 . S
C3843 C3844 1.383 . S
C3843 H3851 0.929 . S
C3844 C3843 1.383 . S
C3844 C3845 1.377 . S
C3845 H3829 0.930 . S
C3845 C3844 1.377 . S
C3845 C3846 1.379 . S
C3846 H3830 0.931 . S
C3846 C3840 1.383 . S
C3846 C3845 1.379 . S
H3847 C3841 0.959 . S
H3848 C3841 0.961 . S
H3849 C3841 0.960 . S
H3850 C3842 0.930 . S
H3851 C3843 0.929 . S
H3852 C3860 0.929 . S
H3853 C3862 0.930 . S
H3854 C3864 0.930 . S
H3855 C3867 0.929 . S
H3856 C3870 0.930 . S
H3857 C3872 0.960 . S
H3858 C3872 0.960 . S
H3859 C3872 0.960 . S
C3860 H3852 0.929 . S
C3860 C3861 1.377 . S
C3860 C3862 1.384 . S
C3861 C3860 1.377 . S
C3861 C3867 1.390 . S
C3862 H3853 0.930 . S
C3862 C3860 1.384 . S
C3862 C3863 1.372 . S
C3863 C3862 1.372 . S
C3863 C3864 1.400 . S
C3863 C3868 1.490 . S
C3864 H3854 0.930 . S
C3864 C3863 1.400 . S
C3864 C3867 1.386 . S
H3865 C3881 0.930 . S
H3866 C3882 0.931 . S
C3867 H3855 0.929 . S
C3867 C3861 1.390 . S
C3867 C3864 1.386 . S
C3868 C3863 1.490 . S
C3868 C3870 1.395 . S
C3868 C3871 1.403 . S
H3869 C3875 0.930 . S
C3870 H3856 0.930 . S
C3870 C3868 1.395 . S
C3870 C3873 1.403 . S
C3871 C3868 1.403 . S
C3871 C3872 1.524 . S
C3871 C3875 1.400 . S
C3872 H3857 0.960 . S
C3872 H3858 0.960 . S
C3872 H3859 0.960 . S
C3872 C3871 1.524 . S
C3873 C3870 1.403 . S
C3873 C3874 1.392 . S
C3873 C3877 1.495 . S
C3874 C3873 1.392 . S
C3874 C3875 1.385 . S
C3874 C3876 1.478 . S
C3875 H3869 0.930 . S
C3875 C3871 1.400 . S
C3875 C3874 1.385 . S
C3876 C3874 1.478 . S
C3876 C3878 1.381 . S
C3876 C3882 1.383 . S
C3877 C3873 1.495 . S
C3877 H3883 0.959 . S
C3877 H3884 0.961 . S
C3877 H3885 0.960 . S
C3878 C3876 1.381 . S
C3878 C3879 1.394 . S
C3878 H3886 0.930 . S
C3879 C3878 1.394 . S
C3879 C3880 1.383 . S
C3879 H3887 0.929 . S
C3880 C3879 1.383 . S
C3880 C3881 1.377 . S
C3881 H3865 0.930 . S
C3881 C3880 1.377 . S
C3881 C3882 1.379 . S
C3882 H3866 0.931 . S
C3882 C3876 1.383 . S
C3882 C3881 1.379 . S
H3883 C3877 0.959 . S
H3884 C3877 0.961 . S
H3885 C3877 0.960 . S
H3886 C3878 0.930 . S
H3887 C3879 0.929 . S
H3888 C3896 0.929 . S
H3889 C3898 0.930 . S
H3890 C3900 0.930 . S
H3891 C3903 0.929 . S
H3892 C3906 0.931 . S
H3893 C3908 0.960 . S
H3894 C3908 0.960 . S
H3895 C3908 0.924 1_545 S
C3896 H3888 0.929 . S
C3896 C3897 1.377 . S
C3896 C3898 1.384 . S
C3897 C3896 1.377 . S
C3897 C3903 1.390 . S
C3898 H3889 0.930 . S
C3898 C3896 1.384 . S
C3898 C3899 1.372 . S
C3899 C3898 1.372 . S
C3899 C3900 1.400 . S
C3899 C3904 1.490 . S
C3900 H3890 0.930 . S
C3900 C3899 1.400 . S
C3900 C3903 1.386 . S
H3901 C3917 0.930 . S
H3902 C3918 0.931 . S
C3903 H3891 0.929 . S
C3903 C3897 1.390 . S
C3903 C3900 1.386 . S
C3904 C3899 1.490 . S
C3904 C3906 1.395 . S
C3904 C3907 1.403 . S
H3905 C3911 0.930 . S
C3906 H3892 0.931 . S
C3906 C3904 1.395 . S
C3906 C3909 1.385 1_655 S
C3907 C3904 1.403 . S
C3907 C3908 1.524 1_545 S
C3907 C3911 1.400 . S
C3908 H3893 0.960 . S
C3908 H3894 0.960 . S
C3908 H3895 0.924 1_565 S
C3908 C3907 1.524 1_565 S
C3909 C3906 1.385 1_455 S
C3909 C3910 1.365 1_455 S
C3909 C3913 1.544 . S
C3910 C3909 1.365 1_655 S
C3910 C3911 1.385 . S
C3910 C3912 1.478 . S
C3911 H3905 0.930 . S
C3911 C3907 1.400 . S
C3911 C3910 1.385 . S
C3912 C3910 1.478 . S
C3912 C3914 1.381 1_655 S
C3912 C3918 1.383 . S
C3913 C3909 1.544 . S
C3913 H3919 0.959 . S
C3913 H3920 0.961 . S
C3913 H3921 0.960 . S
C3914 C3912 1.381 1_455 S
C3914 C3915 1.394 . S
C3914 H3922 0.930 . S
C3915 C3914 1.394 . S
C3915 C3916 1.383 . S
C3915 H3923 0.929 . S
C3916 C3915 1.383 . S
C3916 C3917 1.377 1_455 S
C3917 H3901 0.930 . S
C3917 C3916 1.377 1_655 S
C3917 C3918 1.379 . S
C3918 H3902 0.931 . S
C3918 C3912 1.383 . S
C3918 C3917 1.379 . S
H3919 C3913 0.959 . S
H3920 C3913 0.961 . S
H3921 C3913 0.960 . S
H3922 C3914 0.930 . S
H3923 C3915 0.929 . S
H3924 C3932 0.929 . S
H3925 C3934 0.930 . S
H3926 C3936 0.930 . S
H3927 C3939 0.929 . S
H3928 C3942 0.930 . S
H3929 C3944 0.960 . S
H3930 C3944 0.960 . S
H3931 C3944 0.960 . S
C3932 H3924 0.929 . S
C3932 C3933 1.377 . S
C3932 C3934 1.384 . S
C3933 C3932 1.377 . S
C3933 C3939 1.390 . S
C3934 H3925 0.930 . S
C3934 C3932 1.384 . S
C3934 C3935 1.372 . S
C3935 C3934 1.372 . S
C3935 C3936 1.400 . S
C3935 C3940 1.490 . S
C3936 H3926 0.930 . S
C3936 C3935 1.400 . S
C3936 C3939 1.386 . S
H3937 C3953 0.930 . S
H3938 C3954 0.931 . S
C3939 H3927 0.929 . S
C3939 C3933 1.390 . S
C3939 C3936 1.386 . S
C3940 C3935 1.490 . S
C3940 C3942 1.395 . S
C3940 C3943 1.403 . S
H3941 C3947 0.930 . S
C3942 H3928 0.930 . S
C3942 C3940 1.395 . S
C3942 C3945 1.403 . S
C3943 C3940 1.403 . S
C3943 C3944 1.524 . S
C3943 C3947 1.400 . S
C3944 H3929 0.960 . S
C3944 H3930 0.960 . S
C3944 H3931 0.960 . S
C3944 C3943 1.524 . S
C3945 C3942 1.403 . S
C3945 C3946 1.392 . S
C3945 C3949 1.495 . S
C3946 C3945 1.392 . S
C3946 C3947 1.385 . S
C3946 C3948 1.478 . S
C3947 H3941 0.930 . S
C3947 C3943 1.400 . S
C3947 C3946 1.385 . S
C3948 C3946 1.478 . S
C3948 C3950 1.381 . S
C3948 C3954 1.383 . S
C3949 C3945 1.495 . S
C3949 H3955 0.959 . S
C3949 H3956 0.961 . S
C3949 H3957 0.960 . S
C3950 C3948 1.381 . S
C3950 C3951 1.394 . S
C3950 H3958 0.930 . S
C3951 C3950 1.394 . S
C3951 C3952 1.383 . S
C3951 H3959 0.929 . S
C3952 C3951 1.383 . S
C3952 C3953 1.377 . S
C3953 H3937 0.930 . S
C3953 C3952 1.377 . S
C3953 C3954 1.379 . S
C3954 H3938 0.931 . S
C3954 C3948 1.383 . S
C3954 C3953 1.379 . S
H3955 C3949 0.959 . S
H3956 C3949 0.961 . S
H3957 C3949 0.960 . S
H3958 C3950 0.930 . S
H3959 C3951 0.929 . S
H3960 C3968 0.929 . S
H3961 C3970 0.930 . S
H3962 C3972 0.930 . S
H3963 C3975 0.929 . S
H3964 C3978 0.930 . S
H3965 C3980 0.960 . S
H3966 C3980 0.960 . S
H3967 C3980 0.960 . S
C3968 H3960 0.929 . S
C3968 C3969 1.377 . S
C3968 C3970 1.384 . S
C3969 C3968 1.377 . S
C3969 C3975 1.390 . S
C3970 H3961 0.930 . S
C3970 C3968 1.384 . S
C3970 C3971 1.372 . S
C3971 C3970 1.372 . S
C3971 C3972 1.400 . S
C3971 C3976 1.490 . S
C3972 H3962 0.930 . S
C3972 C3971 1.400 . S
C3972 C3975 1.386 . S
H3973 C3989 0.930 . S
H3974 C3990 0.931 . S
C3975 H3963 0.929 . S
C3975 C3969 1.390 . S
C3975 C3972 1.386 . S
C3976 C3971 1.490 . S
C3976 C3978 1.395 . S
C3976 C3979 1.403 . S
H3977 C3983 0.930 . S
C3978 H3964 0.930 . S
C3978 C3976 1.395 . S
C3978 C3981 1.403 . S
C3979 C3976 1.403 . S
C3979 C3980 1.524 . S
C3979 C3983 1.400 . S
C3980 H3965 0.960 . S
C3980 H3966 0.960 . S
C3980 H3967 0.960 . S
C3980 C3979 1.524 . S
C3981 C3978 1.403 . S
C3981 C3982 1.392 . S
C3981 C3985 1.495 1_545 S
C3982 C3981 1.392 . S
C3982 C3983 1.385 . S
C3982 C3984 1.478 . S
C3983 H3977 0.930 . S
C3983 C3979 1.400 . S
C3983 C3982 1.385 . S
C3984 C3982 1.478 . S
C3984 C3986 1.381 . S
C3984 C3990 1.383 . S
C3985 C3981 1.495 1_565 S
C3985 H3991 0.959 . S
C3985 H3992 0.961 . S
C3985 H3993 0.960 . S
C3986 C3984 1.381 . S
C3986 C3987 1.394 . S
C3986 H3994 0.930 . S
C3987 C3986 1.394 . S
C3987 C3988 1.383 . S
C3987 H3995 0.929 . S
C3988 C3987 1.383 . S
C3988 C3989 1.377 . S
C3989 H3973 0.930 . S
C3989 C3988 1.377 . S
C3989 C3990 1.379 . S
C3990 H3974 0.931 . S
C3990 C3984 1.383 . S
C3990 C3989 1.379 . S
H3991 C3985 0.959 . S
H3992 C3985 0.961 . S
H3993 C3985 0.960 . S
H3994 C3986 0.930 . S
H3995 C3987 0.929 . S
H3996 C4004 0.929 . S
H3997 C4006 0.930 . S
H3998 C4008 0.930 . S
H3999 C4011 0.929 . S
H4000 C4014 0.930 . S
H4001 C4016 0.960 . S
H4002 C4016 0.960 . S
H4003 C4016 0.960 . S
C4004 H3996 0.929 . S
C4004 C4005 1.377 . S
C4004 C4006 1.384 . S
C4005 C4004 1.377 . S
C4005 C4011 1.390 . S
C4006 H3997 0.930 . S
C4006 C4004 1.384 . S
C4006 C4007 1.372 . S
C4007 C4006 1.372 . S
C4007 C4008 1.400 . S
C4007 C4012 1.490 . S
C4008 H3998 0.930 . S
C4008 C4007 1.400 . S
C4008 C4011 1.386 . S
H4009 C4025 0.930 . S
H4010 C4026 0.931 . S
C4011 H3999 0.929 . S
C4011 C4005 1.390 . S
C4011 C4008 1.386 . S
C4012 C4007 1.490 . S
C4012 C4014 1.395 . S
C4012 C4015 1.403 . S
H4013 C4019 0.930 . S
C4014 H4000 0.930 . S
C4014 C4012 1.395 . S
C4014 C4017 1.403 . S
C4015 C4012 1.403 . S
C4015 C4016 1.524 . S
C4015 C4019 1.400 . S
C4016 H4001 0.960 . S
C4016 H4002 0.960 . S
C4016 H4003 0.960 . S
C4016 C4015 1.524 . S
C4017 C4014 1.403 . S
C4017 C4018 1.392 . S
C4017 C4021 1.495 . S
C4018 C4017 1.392 . S
C4018 C4019 1.385 . S
C4018 C4020 1.478 . S
C4019 H4013 0.930 . S
C4019 C4015 1.400 . S
C4019 C4018 1.385 . S
C4020 C4018 1.478 . S
C4020 C4022 1.381 . S
C4020 C4026 1.383 . S
C4021 C4017 1.495 . S
C4021 H4027 0.959 . S
C4021 H4028 0.961 . S
C4021 H4029 0.960 . S
C4022 C4020 1.381 . S
C4022 C4023 1.394 . S
C4022 H4030 0.930 . S
C4023 C4022 1.394 . S
C4023 C4024 1.383 . S
C4023 H4031 0.929 . S
C4024 C4023 1.383 . S
C4024 C4025 1.377 . S
C4025 H4009 0.930 . S
C4025 C4024 1.377 . S
C4025 C4026 1.379 . S
C4026 H4010 0.931 . S
C4026 C4020 1.383 . S
C4026 C4025 1.379 . S
H4027 C4021 0.959 . S
H4028 C4021 0.961 . S
H4029 C4021 0.960 . S
H4030 C4022 0.930 . S
H4031 C4023 0.929 . S
H4032 C4040 0.929 . S
H4033 C4042 0.930 . S
H4034 C4044 0.930 . S
H4035 C4047 0.929 . S
H4036 C4050 0.930 . S
H4037 C4052 0.960 . S
H4038 C4052 0.960 . S
H4039 C4052 0.960 . S
C4040 H4032 0.929 . S
C4040 C4041 1.362 1_554 S
C4040 C4042 1.384 . S
C4041 C4040 1.362 1_556 S
C4041 C4047 1.402 . S
C4042 H4033 0.930 . S
C4042 C4040 1.384 . S
C4042 C4043 1.372 . S
C4043 C4042 1.372 . S
C4043 C4044 1.400 1_554 S
C4043 C4048 1.490 . S
C4044 H4034 0.930 . S
C4044 C4043 1.400 1_556 S
C4044 C4047 1.386 . S
H4045 C4061 0.930 1_556 S
H4046 C4062 0.931 1_556 S
C4047 H4035 0.929 . S
C4047 C4041 1.402 . S
C4047 C4044 1.386 . S
C4048 C4043 1.490 . S
C4048 C4050 1.395 . S
C4048 C4051 1.403 . S
H4049 C4055 0.940 . S
C4050 H4036 0.930 . S
C4050 C4048 1.395 . S
C4050 C4053 1.403 . S
C4051 C4048 1.403 . S
C4051 C4052 1.524 1_554 S
C4051 C4055 1.400 . S
C4052 H4037 0.960 . S
C4052 H4038 0.960 . S
C4052 H4039 0.960 . S
C4052 C4051 1.524 1_556 S
C4053 C4050 1.403 . S
C4053 C4054 1.392 . S
C4053 C4057 1.495 1_565 S
C4054 C4053 1.392 . S
C4054 C4055 1.385 . S
C4054 C4056 1.478 . S
C4055 H4049 0.940 . S
C4055 C4051 1.400 . S
C4055 C4054 1.385 . S
C4056 C4054 1.478 . S
C4056 C4058 1.381 . S
C4056 C4062 1.383 . S
C4057 C4053 1.495 1_545 S
C4057 H4063 0.959 . S
C4057 H4064 0.961 . S
C4057 H4065 0.960 . S
C4058 C4056 1.381 . S
C4058 C4059 1.394 . S
C4058 H4066 0.930 . S
C4059 C4058 1.394 . S
C4059 C4060 1.383 . S
C4059 H4067 0.929 . S
C4060 C4059 1.383 . S
C4060 C4061 1.377 . S
C4061 H4045 0.930 1_554 S
C4061 C4060 1.377 . S
C4061 C4062 1.379 . S
C4062 H4046 0.931 1_554 S
C4062 C4056 1.383 . S
C4062 C4061 1.379 . S
H4063 C4057 0.959 . S
H4064 C4057 0.961 . S
H4065 C4057 0.960 . S
H4066 C4058 0.930 . S
H4067 C4059 0.929 . S
H4068 C4076 0.929 . S
H4069 C4078 0.930 . S
H4070 C4080 0.930 . S
H4071 C4083 0.929 . S
H4072 C4086 0.930 . S
H4073 C4088 0.960 . S
H4074 C4088 0.960 . S
H4075 C4088 0.998 . S
C4076 H4068 0.929 . S
C4076 C4077 1.377 . S
C4076 C4078 1.384 . S
C4077 C4076 1.377 . S
C4077 C4083 1.390 1_556 S
C4078 H4069 0.930 . S
C4078 C4076 1.384 . S
C4078 C4079 1.345 1_556 S
C4079 C4078 1.345 1_554 S
C4079 C4080 1.418 . S
C4079 C4084 1.501 . S
C4080 H4070 0.930 . S
C4080 C4079 1.418 . S
C4080 C4083 1.386 . S
H4081 C4097 0.930 . S
H4082 C4098 0.931 . S
C4083 H4071 0.929 . S
C4083 C4077 1.390 1_554 S
C4083 C4080 1.386 . S
C4084 C4079 1.501 . S
C4084 C4086 1.395 . S
C4084 C4087 1.403 1_554 S
H4085 C4091 0.922 1_556 S
C4086 H4072 0.930 . S
C4086 C4084 1.395 . S
C4086 C4089 1.403 . S
C4087 C4084 1.403 1_556 S
C4087 C4088 1.524 . S
C4087 C4091 1.381 1_556 S
C4088 H4073 0.960 . S
C4088 H4074 0.960 . S
C4088 H4075 0.998 . S
C4088 C4087 1.524 . S
C4089 C4086 1.403 . S
C4089 C4090 1.392 . S
C4089 C4093 1.495 . S
C4090 C4089 1.392 . S
C4090 C4091 1.418 . S
C4090 C4092 1.478 . S
C4091 H4085 0.922 1_554 S
C4091 C4087 1.381 1_554 S
C4091 C4090 1.418 . S
C4092 C4090 1.478 . S
C4092 C4094 1.381 1_554 S
C4092 C4098 1.383 . S
C4093 C4089 1.495 . S
C4093 H4099 0.959 . S
C4093 H4100 0.961 . S
C4093 H4101 0.960 . S
C4094 C4092 1.381 1_556 S
C4094 C4095 1.398 . S
C4094 H4102 0.930 . S
C4095 C4094 1.398 . S
C4095 C4096 1.372 1_556 S
C4095 H4103 0.937 . S
C4096 C4095 1.372 1_554 S
C4096 C4097 1.377 . S
C4097 H4081 0.930 . S
C4097 C4096 1.377 . S
C4097 C4098 1.379 . S
C4098 H4082 0.931 . S
C4098 C4092 1.383 . S
C4098 C4097 1.379 . S
H4099 C4093 0.959 . S
H4100 C4093 0.961 . S
H4101 C4093 0.960 . S
H4102 C4094 0.930 . S
H4103 C4095 0.937 . S
H4104 C4112 0.929 . S
H4105 C4114 0.930 . S
H4106 C4116 0.930 . S
H4107 C4119 0.929 . S
H4108 C4122 0.930 . S
H4109 C4124 0.960 . S
H4110 C4124 0.960 . S
H4111 C4124 0.960 . S
C4112 H4104 0.929 . S
C4112 C4113 1.377 . S
C4112 C4114 1.384 . S
C4113 C4112 1.377 . S
C4113 C4119 1.390 . S
C4114 H4105 0.930 . S
C4114 C4112 1.384 . S
C4114 C4115 1.372 . S
C4115 C4114 1.372 . S
C4115 C4116 1.400 . S
C4115 C4120 1.490 . S
C4116 H4106 0.930 . S
C4116 C4115 1.400 . S
C4116 C4119 1.386 . S
H4117 C4133 0.930 . S
H4118 C4134 0.931 . S
C4119 H4107 0.929 . S
C4119 C4113 1.390 . S
C4119 C4116 1.386 . S
C4120 C4115 1.490 . S
C4120 C4122 1.395 . S
C4120 C4123 1.403 . S
H4121 C4127 0.930 . S
C4122 H4108 0.930 . S
C4122 C4120 1.395 . S
C4122 C4125 1.403 . S
C4123 C4120 1.403 . S
C4123 C4124 1.524 . S
C4123 C4127 1.400 . S
C4124 H4109 0.960 . S
C4124 H4110 0.960 . S
C4124 H4111 0.960 . S
C4124 C4123 1.524 . S
C4125 C4122 1.403 . S
C4125 C4126 1.392 . S
C4125 C4129 1.495 . S
C4126 C4125 1.392 . S
C4126 C4127 1.385 . S
C4126 C4128 1.478 . S
C4127 H4121 0.930 . S
C4127 C4123 1.400 . S
C4127 C4126 1.385 . S
C4128 C4126 1.478 . S
C4128 C4130 1.381 . S
C4128 C4134 1.383 . S
C4129 C4125 1.495 . S
C4129 H4135 0.959 . S
C4129 H4136 0.961 . S
C4129 H4137 0.960 . S
C4130 C4128 1.381 . S
C4130 C4131 1.394 . S
C4130 H4138 0.930 . S
C4131 C4130 1.394 . S
C4131 C4132 1.383 . S
C4131 H4139 0.929 . S
C4132 C4131 1.383 . S
C4132 C4133 1.377 . S
C4133 H4117 0.930 . S
C4133 C4132 1.377 . S
C4133 C4134 1.379 . S
C4134 H4118 0.931 . S
C4134 C4128 1.383 . S
C4134 C4133 1.379 . S
H4135 C4129 0.959 . S
H4136 C4129 0.961 . S
H4137 C4129 0.960 . S
H4138 C4130 0.930 . S
H4139 C4131 0.929 . S
H4140 C4148 0.929 . S
H4141 C4150 0.930 . S
H4142 C4152 0.930 . S
H4143 C4155 0.929 . S
H4144 C4158 0.930 . S
H4145 C4160 0.960 . S
H4146 C4160 0.960 . S
H4147 C4160 0.960 . S
C4148 H4140 0.929 . S
C4148 C4149 1.377 . S
C4148 C4150 1.384 . S
C4149 C4148 1.377 . S
C4149 C4155 1.390 . S
C4150 H4141 0.930 . S
C4150 C4148 1.384 . S
C4150 C4151 1.372 . S
C4151 C4150 1.372 . S
C4151 C4152 1.400 . S
C4151 C4156 1.490 . S
C4152 H4142 0.930 . S
C4152 C4151 1.400 . S
C4152 C4155 1.386 . S
H4153 C4169 0.930 . S
H4154 C4170 0.931 . S
C4155 H4143 0.929 . S
C4155 C4149 1.390 . S
C4155 C4152 1.386 . S
C4156 C4151 1.490 . S
C4156 C4158 1.395 . S
C4156 C4159 1.403 . S
H4157 C4163 0.930 . S
C4158 H4144 0.930 . S
C4158 C4156 1.395 . S
C4158 C4161 1.403 . S
C4159 C4156 1.403 . S
C4159 C4160 1.524 . S
C4159 C4163 1.400 . S
C4160 H4145 0.960 . S
C4160 H4146 0.960 . S
C4160 H4147 0.960 . S
C4160 C4159 1.524 . S
C4161 C4158 1.403 . S
C4161 C4162 1.392 . S
C4161 C4165 1.495 . S
C4162 C4161 1.392 . S
C4162 C4163 1.385 . S
C4162 C4164 1.478 . S
C4163 H4157 0.930 . S
C4163 C4159 1.400 . S
C4163 C4162 1.385 . S
C4164 C4162 1.478 . S
C4164 C4166 1.381 . S
C4164 C4170 1.383 . S
C4165 C4161 1.495 . S
C4165 H4171 0.959 . S
C4165 H4172 0.961 . S
C4165 H4173 0.960 . S
C4166 C4164 1.381 . S
C4166 C4167 1.394 . S
C4166 H4174 0.930 . S
C4167 C4166 1.394 . S
C4167 C4168 1.383 . S
C4167 H4175 0.929 . S
C4168 C4167 1.383 . S
C4168 C4169 1.377 . S
C4169 H4153 0.930 . S
C4169 C4168 1.377 . S
C4169 C4170 1.379 . S
C4170 H4154 0.931 . S
C4170 C4164 1.383 . S
C4170 C4169 1.379 . S
H4171 C4165 0.959 . S
H4172 C4165 0.961 . S
H4173 C4165 0.960 . S
H4174 C4166 0.930 . S
H4175 C4167 0.929 . S
H4176 C4184 0.929 . S
H4177 C4186 0.930 . S
H4178 C4188 0.930 . S
H4179 C4191 0.929 . S
H4180 C4194 0.930 . S
H4181 C4196 0.960 . S
H4182 C4196 0.960 . S
H4183 C4196 0.960 . S
C4184 H4176 0.929 . S
C4184 C4185 1.377 . S
C4184 C4186 1.384 . S
C4185 C4184 1.377 . S
C4185 C4191 1.390 . S
C4186 H4177 0.930 . S
C4186 C4184 1.384 . S
C4186 C4187 1.372 . S
C4187 C4186 1.372 . S
C4187 C4188 1.400 . S
C4187 C4192 1.490 . S
C4188 H4178 0.930 . S
C4188 C4187 1.400 . S
C4188 C4191 1.386 . S
H4189 C4205 0.930 . S
H4190 C4206 0.931 . S
C4191 H4179 0.929 . S
C4191 C4185 1.390 . S
C4191 C4188 1.386 . S
C4192 C4187 1.490 . S
C4192 C4194 1.395 . S
C4192 C4195 1.403 . S
H4193 C4199 0.930 . S
C4194 H4180 0.930 . S
C4194 C4192 1.395 . S
C4194 C4197 1.403 . S
C4195 C4192 1.403 . S
C4195 C4196 1.524 . S
C4195 C4199 1.400 . S
C4196 H4181 0.960 . S
C4196 H4182 0.960 . S
C4196 H4183 0.960 . S
C4196 C4195 1.524 . S
C4197 C4194 1.403 . S
C4197 C4198 1.392 . S
C4197 C4201 1.495 . S
C4198 C4197 1.392 . S
C4198 C4199 1.385 . S
C4198 C4200 1.478 . S
C4199 H4193 0.930 . S
C4199 C4195 1.400 . S
C4199 C4198 1.385 . S
C4200 C4198 1.478 . S
C4200 C4202 1.381 . S
C4200 C4206 1.383 . S
C4201 C4197 1.495 . S
C4201 H4207 0.959 . S
C4201 H4208 0.961 . S
C4201 H4209 0.960 . S
C4202 C4200 1.381 . S
C4202 C4203 1.394 . S
C4202 H4210 0.930 . S
C4203 C4202 1.394 . S
C4203 C4204 1.383 . S
C4203 H4211 0.929 . S
C4204 C4203 1.383 . S
C4204 C4205 1.377 . S
C4205 H4189 0.930 . S
C4205 C4204 1.377 . S
C4205 C4206 1.379 . S
C4206 H4190 0.931 . S
C4206 C4200 1.383 . S
C4206 C4205 1.379 . S
H4207 C4201 0.959 . S
H4208 C4201 0.961 . S
H4209 C4201 0.960 . S
H4210 C4202 0.930 . S
H4211 C4203 0.929 . S
H4212 C4220 0.929 . S
H4213 C4222 0.930 . S
H4214 C4224 0.930 . S
H4215 C4227 0.929 . S
H4216 C4230 0.930 . S
H4217 C4232 0.960 . S
H4218 C4232 0.960 . S
H4219 C4232 0.960 . S
C4220 H4212 0.929 . S
C4220 C4221 1.377 . S
C4220 C4222 1.384 . S
C4221 C4220 1.377 . S
C4221 C4227 1.390 . S
C4222 H4213 0.930 . S
C4222 C4220 1.384 . S
C4222 C4223 1.372 . S
C4223 C4222 1.372 . S
C4223 C4224 1.400 . S
C4223 C4228 1.490 . S
C4224 H4214 0.930 . S
C4224 C4223 1.400 . S
C4224 C4227 1.386 . S
H4225 C4241 0.930 . S
H4226 C4242 0.931 . S
C4227 H4215 0.929 . S
C4227 C4221 1.390 . S
C4227 C4224 1.386 . S
C4228 C4223 1.490 . S
C4228 C4230 1.395 . S
C4228 C4231 1.403 . S
H4229 C4235 0.930 . S
C4230 H4216 0.930 . S
C4230 C4228 1.395 . S
C4230 C4233 1.403 . S
C4231 C4228 1.403 . S
C4231 C4232 1.524 . S
C4231 C4235 1.400 . S
C4232 H4217 0.960 . S
C4232 H4218 0.960 . S
C4232 H4219 0.960 . S
C4232 C4231 1.524 . S
C4233 C4230 1.403 . S
C4233 C4234 1.392 . S
C4233 C4237 1.495 . S
C4234 C4233 1.392 . S
C4234 C4235 1.385 . S
C4234 C4236 1.478 . S
C4235 H4229 0.930 . S
C4235 C4231 1.400 . S
C4235 C4234 1.385 . S
C4236 C4234 1.478 . S
C4236 C4238 1.381 . S
C4236 C4242 1.383 . S
C4237 C4233 1.495 . S
C4237 H4243 0.959 . S
C4237 H4244 0.961 . S
C4237 H4245 0.960 . S
C4238 C4236 1.381 . S
C4238 C4239 1.394 . S
C4238 H4246 0.930 . S
C4239 C4238 1.394 . S
C4239 C4240 1.383 . S
C4239 H4247 0.929 . S
C4240 C4239 1.383 . S
C4240 C4241 1.377 . S
C4241 H4225 0.930 . S
C4241 C4240 1.377 . S
C4241 C4242 1.379 . S
C4242 H4226 0.931 . S
C4242 C4236 1.383 . S
C4242 C4241 1.379 . S
H4243 C4237 0.959 . S
H4244 C4237 0.961 . S
H4245 C4237 0.960 . S
H4246 C4238 0.930 . S
H4247 C4239 0.929 . S
H4248 C4256 0.929 . S
H4249 C4258 0.930 . S
H4250 C4260 0.930 . S
H4251 C4263 0.929 . S
H4252 C4266 0.930 . S
H4253 C4268 0.960 . S
H4254 C4268 0.960 . S
H4255 C4268 0.960 . S
C4256 H4248 0.929 . S
C4256 C4257 1.377 . S
C4256 C4258 1.384 . S
C4257 C4256 1.377 . S
C4257 C4263 1.390 . S
C4258 H4249 0.930 . S
C4258 C4256 1.384 . S
C4258 C4259 1.372 . S
C4259 C4258 1.372 . S
C4259 C4260 1.400 . S
C4259 C4264 1.490 . S
C4260 H4250 0.930 . S
C4260 C4259 1.400 . S
C4260 C4263 1.386 . S
H4261 C4277 0.930 . S
H4262 C4278 0.931 . S
C4263 H4251 0.929 . S
C4263 C4257 1.390 . S
C4263 C4260 1.386 . S
C4264 C4259 1.490 . S
C4264 C4266 1.395 . S
C4264 C4267 1.403 . S
H4265 C4271 0.930 . S
C4266 H4252 0.930 . S
C4266 C4264 1.395 . S
C4266 C4269 1.403 . S
C4267 C4264 1.403 . S
C4267 C4268 1.524 . S
C4267 C4271 1.400 . S
C4268 H4253 0.960 . S
C4268 H4254 0.960 . S
C4268 H4255 0.960 . S
C4268 C4267 1.524 . S
C4269 C4266 1.403 . S
C4269 C4270 1.392 . S
C4269 C4273 1.495 . S
C4270 C4269 1.392 . S
C4270 C4271 1.385 . S
C4270 C4272 1.478 . S
C4271 H4265 0.930 . S
C4271 C4267 1.400 . S
C4271 C4270 1.385 . S
C4272 C4270 1.478 . S
C4272 C4274 1.381 . S
C4272 C4278 1.383 . S
C4273 C4269 1.495 . S
C4273 H4279 0.959 . S
C4273 H4280 0.961 . S
C4273 H4281 0.960 . S
C4274 C4272 1.381 . S
C4274 C4275 1.394 . S
C4274 H4282 0.930 . S
C4275 C4274 1.394 . S
C4275 C4276 1.383 . S
C4275 H4283 0.929 . S
C4276 C4275 1.383 . S
C4276 C4277 1.377 . S
C4277 H4261 0.930 . S
C4277 C4276 1.377 . S
C4277 C4278 1.379 . S
C4278 H4262 0.931 . S
C4278 C4272 1.383 . S
C4278 C4277 1.379 . S
H4279 C4273 0.959 . S
H4280 C4273 0.961 . S
H4281 C4273 0.960 . S
H4282 C4274 0.930 . S
H4283 C4275 0.929 . S
H4284 C4292 0.929 . S
H4285 C4294 0.930 . S
H4286 C4296 0.930 . S
H4287 C4299 0.929 . S
H4288 C4302 0.930 . S
H4289 C4304 0.960 . S
H4290 C4304 0.960 . S
H4291 C4304 0.960 . S
C4292 H4284 0.929 . S
C4292 C4293 1.377 . S
C4292 C4294 1.384 . S
C4293 C4292 1.377 . S
C4293 C4299 1.390 . S
C4294 H4285 0.930 . S
C4294 C4292 1.384 . S
C4294 C4295 1.372 . S
C4295 C4294 1.372 . S
C4295 C4296 1.400 . S
C4295 C4300 1.490 . S
C4296 H4286 0.930 . S
C4296 C4295 1.400 . S
C4296 C4299 1.386 . S
H4297 C4313 0.930 . S
H4298 C4314 0.931 . S
C4299 H4287 0.929 . S
C4299 C4293 1.390 . S
C4299 C4296 1.386 . S
C4300 C4295 1.490 . S
C4300 C4302 1.395 . S
C4300 C4303 1.403 . S
H4301 C4307 0.930 . S
C4302 H4288 0.930 . S
C4302 C4300 1.395 . S
C4302 C4305 1.403 . S
C4303 C4300 1.403 . S
C4303 C4304 1.524 . S
C4303 C4307 1.400 . S
C4304 H4289 0.960 . S
C4304 H4290 0.960 . S
C4304 H4291 0.960 . S
C4304 C4303 1.524 . S
C4305 C4302 1.403 . S
C4305 C4306 1.392 . S
C4305 C4309 1.495 . S
C4306 C4305 1.392 . S
C4306 C4307 1.385 . S
C4306 C4308 1.478 . S
C4307 H4301 0.930 . S
C4307 C4303 1.400 . S
C4307 C4306 1.385 . S
C4308 C4306 1.478 . S
C4308 C4310 1.381 . S
C4308 C4314 1.383 . S
C4309 C4305 1.495 . S
C4309 H4315 0.959 . S
C4309 H4316 0.961 . S
C4309 H4317 0.960 . S
C4310 C4308 1.381 . S
C4310 C4311 1.394 . S
C4310 H4318 0.930 . S
C4311 C4310 1.394 . S
C4311 C4312 1.383 . S
C4311 H4319 0.929 . S
C4312 C4311 1.383 . S
C4312 C4313 1.377 . S
C4313 H4297 0.930 . S
C4313 C4312 1.377 . S
C4313 C4314 1.379 . S
C4314 H4298 0.931 . S
C4314 C4308 1.383 . S
C4314 C4313 1.379 . S
H4315 C4309 0.959 . S
H4316 C4309 0.961 . S
H4317 C4309 0.960 . S
H4318 C4310 0.930 . S
H4319 C4311 0.929 . S
H4320 C4328 0.929 . S
H4321 C4330 0.930 . S
H4322 C4332 0.930 . S
H4323 C4335 0.929 . S
H4324 C4338 0.930 . S
H4325 C4340 0.930 1_655 S
H4326 C4340 0.960 . S
H4327 C4340 0.960 . S
C4328 H4320 0.929 . S
C4328 C4329 1.377 . S
C4328 C4330 1.384 . S
C4329 C4328 1.377 . S
C4329 C4335 1.390 . S
C4330 H4321 0.930 . S
C4330 C4328 1.384 . S
C4330 C4331 1.372 . S
C4331 C4330 1.372 . S
C4331 C4332 1.400 . S
C4331 C4336 1.490 . S
C4332 H4322 0.930 . S
C4332 C4331 1.400 . S
C4332 C4335 1.386 . S
H4333 C4349 0.930 . S
H4334 C4350 0.931 . S
C4335 H4323 0.929 . S
C4335 C4329 1.390 . S
C4335 C4332 1.386 . S
C4336 C4331 1.490 . S
C4336 C4338 1.395 . S
C4336 C4339 1.403 . S
H4337 C4343 0.930 . S
C4338 H4324 0.930 . S
C4338 C4336 1.395 . S
C4338 C4341 1.403 . S
C4339 C4336 1.403 . S
C4339 C4340 1.524 . S
C4339 C4343 1.400 . S
C4340 H4325 0.930 1_455 S
C4340 H4326 0.960 . S
C4340 H4327 0.960 . S
C4340 C4339 1.524 . S
C4341 C4338 1.403 . S
C4341 C4342 1.392 . S
C4341 C4345 1.495 . S
C4342 C4341 1.392 . S
C4342 C4343 1.385 . S
C4342 C4344 1.478 . S
C4343 H4337 0.930 . S
C4343 C4339 1.400 . S
C4343 C4342 1.385 . S
C4344 C4342 1.478 . S
C4344 C4346 1.381 . S
C4344 C4350 1.383 . S
C4345 C4341 1.495 . S
C4345 H4351 0.959 . S
C4345 H4352 0.961 . S
C4345 H4353 0.960 . S
C4346 C4344 1.381 . S
C4346 C4347 1.394 . S
C4346 H4354 0.930 . S
C4347 C4346 1.394 . S
C4347 C4348 1.383 . S
C4347 H4355 0.929 . S
C4348 C4347 1.383 . S
C4348 C4349 1.377 . S
C4349 H4333 0.930 . S
C4349 C4348 1.377 . S
C4349 C4350 1.379 . S
C4350 H4334 0.931 . S
C4350 C4344 1.383 . S
C4350 C4349 1.379 . S
H4351 C4345 0.959 . S
H4352 C4345 0.961 . S
H4353 C4345 0.960 . S
H4354 C4346 0.930 . S
H4355 C4347 0.929 . S
H4356 C4364 0.929 . S
H4357 C4366 0.930 . S
H4358 C4368 0.930 . S
H4359 C4371 0.929 . S
H4360 C4374 0.930 . S
H4361 C4376 0.960 . S
H4362 C4376 0.960 . S
H4363 C4376 0.960 . S
C4364 H4356 0.929 . S
C4364 C4365 1.377 . S
C4364 C4366 1.384 . S
C4365 C4364 1.377 . S
C4365 C4371 1.390 . S
C4366 H4357 0.930 . S
C4366 C4364 1.384 . S
C4366 C4367 1.372 . S
C4367 C4366 1.372 . S
C4367 C4368 1.400 . S
C4367 C4372 1.490 . S
C4368 H4358 0.930 . S
C4368 C4367 1.400 . S
C4368 C4371 1.386 . S
H4369 C4385 0.930 . S
H4370 C4386 0.931 . S
C4371 H4359 0.929 . S
C4371 C4365 1.390 . S
C4371 C4368 1.386 . S
C4372 C4367 1.490 . S
C4372 C4374 1.395 . S
C4372 C4375 1.403 . S
H4373 C4379 0.930 . S
C4374 H4360 0.930 . S
C4374 C4372 1.395 . S
C4374 C4377 1.403 . S
C4375 C4372 1.403 . S
C4375 C4376 1.524 . S
C4375 C4379 1.400 . S
C4376 H4361 0.960 . S
C4376 H4362 0.960 . S
C4376 H4363 0.960 . S
C4376 C4375 1.524 . S
C4377 C4374 1.403 . S
C4377 C4378 1.392 . S
C4377 C4381 1.495 . S
C4378 C4377 1.392 . S
C4378 C4379 1.385 . S
C4378 C4380 1.478 . S
C4379 H4373 0.930 . S
C4379 C4375 1.400 . S
C4379 C4378 1.385 . S
C4380 C4378 1.478 . S
C4380 C4382 1.381 . S
C4380 C4386 1.383 . S
C4381 C4377 1.495 . S
C4381 H4387 0.959 . S
C4381 H4388 0.961 . S
C4381 H4389 0.960 . S
C4382 C4380 1.381 . S
C4382 C4383 1.394 . S
C4382 H4390 0.930 . S
C4383 C4382 1.394 . S
C4383 C4384 1.383 . S
C4383 H4391 0.929 . S
C4384 C4383 1.383 . S
C4384 C4385 1.377 . S
C4385 H4369 0.930 . S
C4385 C4384 1.377 . S
C4385 C4386 1.379 . S
C4386 H4370 0.931 . S
C4386 C4380 1.383 . S
C4386 C4385 1.379 . S
H4387 C4381 0.959 . S
H4388 C4381 0.961 . S
H4389 C4381 0.960 . S
H4390 C4382 0.930 . S
H4391 C4383 0.929 . S
H4392 C4400 0.929 . S
H4393 C4402 0.930 . S
H4394 C4404 0.930 . S
H4395 C4407 0.929 . S
H4396 C4410 0.930 . S
H4397 C4412 0.960 . S
H4398 C4412 0.960 . S
H4399 C4412 0.960 . S
C4400 H4392 0.929 . S
C4400 C4401 1.377 . S
C4400 C4402 1.384 . S
C4401 C4400 1.377 . S
C4401 C4407 1.390 . S
C4402 H4393 0.930 . S
C4402 C4400 1.384 . S
C4402 C4403 1.372 . S
C4403 C4402 1.372 . S
C4403 C4404 1.400 . S
C4403 C4408 1.490 . S
C4404 H4394 0.930 . S
C4404 C4403 1.400 . S
C4404 C4407 1.386 . S
H4405 C4421 0.930 . S
H4406 C4422 0.931 . S
C4407 H4395 0.929 . S
C4407 C4401 1.390 . S
C4407 C4404 1.386 . S
C4408 C4403 1.490 . S
C4408 C4410 1.395 . S
C4408 C4411 1.403 . S
H4409 C4415 0.930 . S
C4410 H4396 0.930 . S
C4410 C4408 1.395 . S
C4410 C4413 1.403 . S
C4411 C4408 1.403 . S
C4411 C4412 1.524 . S
C4411 C4415 1.400 . S
C4412 H4397 0.960 . S
C4412 H4398 0.960 . S
C4412 H4399 0.960 . S
C4412 C4411 1.524 . S
C4413 C4410 1.403 . S
C4413 C4414 1.392 . S
C4413 C4417 1.495 . S
C4414 C4413 1.392 . S
C4414 C4415 1.385 . S
C4414 C4416 1.478 . S
C4415 H4409 0.930 . S
C4415 C4411 1.400 . S
C4415 C4414 1.385 . S
C4416 C4414 1.478 . S
C4416 C4418 1.381 . S
C4416 C4422 1.383 . S
C4417 C4413 1.495 . S
C4417 H4423 0.959 . S
C4417 H4424 0.961 . S
C4417 H4425 0.960 . S
C4418 C4416 1.381 . S
C4418 C4419 1.394 . S
C4418 H4426 0.930 . S
C4419 C4418 1.394 . S
C4419 C4420 1.383 . S
C4419 H4427 0.929 . S
C4420 C4419 1.383 . S
C4420 C4421 1.377 . S
C4421 H4405 0.930 . S
C4421 C4420 1.377 . S
C4421 C4422 1.379 . S
C4422 H4406 0.931 . S
C4422 C4416 1.383 . S
C4422 C4421 1.379 . S
H4423 C4417 0.959 . S
H4424 C4417 0.961 . S
H4425 C4417 0.960 . S
H4426 C4418 0.930 . S
H4427 C4419 0.929 . S
H4428 C4436 0.929 . S
H4429 C4438 0.930 . S
H4430 C4440 0.930 . S
H4431 C4443 0.929 . S
H4432 C4446 0.930 . S
H4433 C4448 0.960 . S
H4434 C4448 0.960 . S
H4435 C4448 0.960 . S
C4436 H4428 0.929 . S
C4436 C4437 1.377 . S
C4436 C4438 1.384 . S
C4437 C4436 1.377 . S
C4437 C4443 1.390 . S
C4438 H4429 0.930 . S
C4438 C4436 1.384 . S
C4438 C4439 1.372 . S
C4439 C4438 1.372 . S
C4439 C4440 1.400 . S
C4439 C4444 1.490 . S
C4440 H4430 0.930 . S
C4440 C4439 1.400 . S
C4440 C4443 1.386 . S
H4441 C4457 0.930 . S
H4442 C4458 0.931 . S
C4443 H4431 0.929 . S
C4443 C4437 1.390 . S
C4443 C4440 1.386 . S
C4444 C4439 1.490 . S
C4444 C4446 1.395 . S
C4444 C4447 1.403 . S
H4445 C4451 0.930 . S
C4446 H4432 0.930 . S
C4446 C4444 1.395 . S
C4446 C4449 1.403 . S
C4447 C4444 1.403 . S
C4447 C4448 1.524 . S
C4447 C4451 1.400 . S
C4448 H4433 0.960 . S
C4448 H4434 0.960 . S
C4448 H4435 0.960 . S
C4448 C4447 1.524 . S
C4449 C4446 1.403 . S
C4449 C4450 1.392 . S
C4449 C4453 1.495 . S
C4450 C4449 1.392 . S
C4450 C4451 1.385 . S
C4450 C4452 1.478 . S
C4451 H4445 0.930 . S
C4451 C4447 1.400 . S
C4451 C4450 1.385 . S
C4452 C4450 1.478 . S
C4452 C4454 1.381 . S
C4452 C4458 1.383 . S
C4453 C4449 1.495 . S
C4453 H4459 0.959 . S
C4453 H4460 0.961 . S
C4453 H4461 0.960 . S
C4454 C4452 1.381 . S
C4454 C4455 1.394 . S
C4454 H4462 0.930 . S
C4455 C4454 1.394 . S
C4455 C4456 1.383 . S
C4455 H4463 0.929 . S
C4456 C4455 1.383 . S
C4456 C4457 1.377 . S
C4457 H4441 0.930 . S
C4457 C4456 1.377 . S
C4457 C4458 1.379 . S
C4458 H4442 0.931 . S
C4458 C4452 1.383 . S
C4458 C4457 1.379 . S
H4459 C4453 0.959 . S
H4460 C4453 0.961 . S
H4461 C4453 0.960 . S
H4462 C4454 0.930 . S
H4463 C4455 0.929 . S
H4464 C4472 0.929 . S
H4465 C4474 0.930 . S
H4466 C4476 0.930 . S
H4467 C4479 0.929 . S
H4468 C4482 0.930 . S
H4469 C4484 0.960 . S
H4470 C4484 0.960 . S
H4471 C4484 0.960 . S
C4472 H4464 0.929 . S
C4472 C4473 1.377 . S
C4472 C4474 1.384 . S
C4473 C4472 1.377 . S
C4473 C4479 1.390 . S
C4474 H4465 0.930 . S
C4474 C4472 1.384 . S
C4474 C4475 1.372 . S
C4475 C4474 1.372 . S
C4475 C4476 1.400 . S
C4475 C4480 1.490 . S
C4476 H4466 0.930 . S
C4476 C4475 1.400 . S
C4476 C4479 1.386 . S
H4477 C4493 0.869 1_655 S
H4478 C4494 0.993 . S
C4479 H4467 0.929 . S
C4479 C4473 1.390 . S
C4479 C4476 1.386 . S
C4480 C4475 1.490 . S
C4480 C4482 1.395 . S
C4480 C4483 1.403 . S
H4481 C4487 0.930 . S
C4482 H4468 0.930 . S
C4482 C4480 1.395 . S
C4482 C4485 1.403 . S
C4483 C4480 1.403 . S
C4483 C4484 1.524 . S
C4483 C4487 1.400 . S
C4484 H4469 0.960 . S
C4484 H4470 0.960 . S
C4484 H4471 0.960 . S
C4484 C4483 1.524 . S
C4485 C4482 1.403 . S
C4485 C4486 1.392 . S
C4485 C4489 1.495 . S
C4486 C4485 1.392 . S
C4486 C4487 1.385 . S
C4486 C4488 1.478 . S
C4487 H4481 0.930 . S
C4487 C4483 1.400 . S
C4487 C4486 1.385 . S
C4488 C4486 1.478 . S
C4488 C4490 1.381 . S
C4488 C4494 1.383 . S
C4489 C4485 1.495 . S
C4489 H4495 0.959 . S
C4489 H4496 0.961 . S
C4489 H4497 0.960 . S
C4490 C4488 1.381 . S
C4490 C4491 1.394 . S
C4490 H4498 0.930 . S
C4491 C4490 1.394 . S
C4491 C4492 1.383 . S
C4491 H4499 0.929 . S
C4492 C4491 1.383 . S
C4492 C4493 1.377 . S
C4493 H4477 0.869 1_455 S
C4493 C4492 1.377 . S
C4493 C4494 1.379 . S
C4494 H4478 0.993 . S
C4494 C4488 1.383 . S
C4494 C4493 1.379 . S
H4495 C4489 0.959 . S
H4496 C4489 0.961 . S
H4497 C4489 0.960 . S
H4498 C4490 0.930 . S
H4499 C4491 0.929 . S
H4500 C4508 0.929 . S
H4501 C4510 0.930 . S
H4502 C4512 0.930 . S
H4503 C4515 0.929 . S
H4504 C4518 0.930 . S
H4505 C4520 0.960 . S
H4506 C4520 0.960 . S
H4507 C4520 0.960 . S
C4508 H4500 0.929 . S
C4508 C4509 1.377 . S
C4508 C4510 1.384 . S
C4509 C4508 1.377 . S
C4509 C4515 1.390 . S
C4510 H4501 0.930 . S
C4510 C4508 1.384 . S
C4510 C4511 1.372 . S
C4511 C4510 1.372 . S
C4511 C4512 1.400 . S
C4511 C4516 1.490 . S
C4512 H4502 0.930 . S
C4512 C4511 1.400 . S
C4512 C4515 1.386 . S
H4513 C4529 0.930 . S
H4514 C4530 0.931 . S
C4515 H4503 0.929 . S
C4515 C4509 1.390 . S
C4515 C4512 1.386 . S
C4516 C4511 1.490 . S
C4516 C4518 1.395 . S
C4516 C4519 1.403 . S
H4517 C4523 0.930 . S
C4518 H4504 0.930 . S
C4518 C4516 1.395 . S
C4518 C4521 1.403 . S
C4519 C4516 1.403 . S
C4519 C4520 1.524 . S
C4519 C4523 1.400 . S
C4520 H4505 0.960 . S
C4520 H4506 0.960 . S
C4520 H4507 0.960 . S
C4520 C4519 1.524 . S
C4521 C4518 1.403 . S
C4521 C4522 1.392 . S
C4521 C4525 1.495 . S
C4522 C4521 1.392 . S
C4522 C4523 1.385 . S
C4522 C4524 1.478 . S
C4523 H4517 0.930 . S
C4523 C4519 1.400 . S
C4523 C4522 1.385 . S
C4524 C4522 1.478 . S
C4524 C4526 1.381 . S
C4524 C4530 1.383 . S
C4525 C4521 1.495 . S
C4525 H4531 0.959 . S
C4525 H4532 0.961 . S
C4525 H4533 0.960 . S
C4526 C4524 1.381 . S
C4526 C4527 1.394 . S
C4526 H4534 0.930 . S
C4527 C4526 1.394 . S
C4527 C4528 1.383 . S
C4527 H4535 0.929 . S
C4528 C4527 1.383 . S
C4528 C4529 1.377 . S
C4529 H4513 0.930 . S
C4529 C4528 1.377 . S
C4529 C4530 1.379 . S
C4530 H4514 0.931 . S
C4530 C4524 1.383 . S
C4530 C4529 1.379 . S
H4531 C4525 0.959 . S
H4532 C4525 0.961 . S
H4533 C4525 0.960 . S
H4534 C4526 0.930 . S
H4535 C4527 0.929 . S
H4536 C4544 0.929 . S
H4537 C4546 0.930 . S
H4538 C4548 0.930 . S
H4539 C4551 0.929 . S
H4540 C4554 0.930 . S
H4541 C4556 0.960 . S
H4542 C4556 0.960 . S
H4543 C4556 0.960 . S
C4544 H4536 0.929 . S
C4544 C4545 1.377 . S
C4544 C4546 1.384 . S
C4545 C4544 1.377 . S
C4545 C4551 1.390 . S
C4546 H4537 0.930 . S
C4546 C4544 1.384 . S
C4546 C4547 1.372 . S
C4547 C4546 1.372 . S
C4547 C4548 1.400 . S
C4547 C4552 1.490 . S
C4548 H4538 0.930 . S
C4548 C4547 1.400 . S
C4548 C4551 1.386 . S
H4549 C4565 0.930 . S
H4550 C4566 0.931 . S
C4551 H4539 0.929 . S
C4551 C4545 1.390 . S
C4551 C4548 1.386 . S
C4552 C4547 1.490 . S
C4552 C4554 1.395 . S
C4552 C4555 1.403 . S
H4553 C4559 0.930 . S
C4554 H4540 0.930 . S
C4554 C4552 1.395 . S
C4554 C4557 1.403 . S
C4555 C4552 1.403 . S
C4555 C4556 1.524 . S
C4555 C4559 1.400 . S
C4556 H4541 0.960 . S
C4556 H4542 0.960 . S
C4556 H4543 0.960 . S
C4556 C4555 1.524 . S
C4557 C4554 1.403 . S
C4557 C4558 1.392 . S
C4557 C4561 1.495 . S
C4558 C4557 1.392 . S
C4558 C4559 1.385 . S
C4558 C4560 1.478 . S
C4559 H4553 0.930 . S
C4559 C4555 1.400 . S
C4559 C4558 1.385 . S
C4560 C4558 1.478 . S
C4560 C4562 1.381 . S
C4560 C4566 1.383 . S
C4561 C4557 1.495 . S
C4561 H4567 0.959 . S
C4561 H4568 0.961 . S
C4561 H4569 0.960 . S
C4562 C4560 1.381 . S
C4562 C4563 1.394 . S
C4562 H4570 0.930 . S
C4563 C4562 1.394 . S
C4563 C4564 1.383 . S
C4563 H4571 0.929 . S
C4564 C4563 1.383 . S
C4564 C4565 1.377 . S
C4565 H4549 0.930 . S
C4565 C4564 1.377 . S
C4565 C4566 1.379 . S
C4566 H4550 0.931 . S
C4566 C4560 1.383 . S
C4566 C4565 1.379 . S
H4567 C4561 0.959 . S
H4568 C4561 0.961 . S
H4569 C4561 0.960 . S
H4570 C4562 0.930 . S
H4571 C4563 0.929 . S
H4572 C4580 0.929 . S
H4573 C4582 0.930 . S
H4574 C4584 0.930 . S
H4575 C4587 0.929 . S
H4576 C4590 0.930 . S
H4577 C4592 0.960 . S
H4578 C4592 0.960 . S
H4579 C4592 0.960 . S
C4580 H4572 0.929 . S
C4580 C4581 1.377 . S
C4580 C4582 1.384 . S
C4581 C4580 1.377 . S
C4581 C4587 1.390 . S
C4582 H4573 0.930 . S
C4582 C4580 1.384 . S
C4582 C4583 1.372 . S
C4583 C4582 1.372 . S
C4583 C4584 1.400 . S
C4583 C4588 1.490 . S
C4584 H4574 0.930 . S
C4584 C4583 1.400 . S
C4584 C4587 1.386 . S
H4585 C4601 0.930 . S
H4586 C4602 0.931 . S
C4587 H4575 0.929 . S
C4587 C4581 1.390 . S
C4587 C4584 1.386 . S
C4588 C4583 1.490 . S
C4588 C4590 1.395 . S
C4588 C4591 1.403 . S
H4589 C4595 0.930 . S
C4590 H4576 0.930 . S
C4590 C4588 1.395 . S
C4590 C4593 1.403 . S
C4591 C4588 1.403 . S
C4591 C4592 1.524 . S
C4591 C4595 1.400 . S
C4592 H4577 0.960 . S
C4592 H4578 0.960 . S
C4592 H4579 0.960 . S
C4592 C4591 1.524 . S
C4593 C4590 1.403 . S
C4593 C4594 1.392 . S
C4593 C4597 1.495 . S
C4594 C4593 1.392 . S
C4594 C4595 1.385 . S
C4594 C4596 1.478 . S
C4595 H4589 0.930 . S
C4595 C4591 1.400 . S
C4595 C4594 1.385 . S
C4596 C4594 1.478 . S
C4596 C4598 1.381 . S
C4596 C4602 1.383 . S
C4597 C4593 1.495 . S
C4597 H4603 0.959 . S
C4597 H4604 0.961 . S
C4597 H4605 0.960 . S
C4598 C4596 1.381 . S
C4598 C4599 1.394 . S
C4598 H4606 0.930 . S
C4599 C4598 1.394 . S
C4599 C4600 1.383 . S
C4599 H4607 0.929 . S
C4600 C4599 1.383 . S
C4600 C4601 1.377 . S
C4601 H4585 0.930 . S
C4601 C4600 1.377 . S
C4601 C4602 1.379 . S
C4602 H4586 0.931 . S
C4602 C4596 1.383 . S
C4602 C4601 1.379 . S
H4603 C4597 0.959 . S
H4604 C4597 0.961 . S
H4605 C4597 0.960 . S
H4606 C4598 0.930 . S
H4607 C4599 0.929 . S
H4608 C4616 0.929 . S
H4609 C4618 0.930 . S
H4610 C4620 0.930 . S
H4611 C4623 0.929 . S
H4612 C4626 0.930 . S
H4613 C4628 0.960 . S
H4614 C4628 0.960 . S
H4615 C4628 0.960 . S
C4616 H4608 0.929 . S
C4616 C4617 1.377 . S
C4616 C4618 1.384 . S
C4617 C4616 1.377 . S
C4617 C4623 1.390 . S
C4618 H4609 0.930 . S
C4618 C4616 1.384 . S
C4618 C4619 1.372 . S
C4619 C4618 1.372 . S
C4619 C4620 1.400 . S
C4619 C4624 1.490 . S
C4620 H4610 0.930 . S
C4620 C4619 1.400 . S
C4620 C4623 1.386 . S
H4621 C4637 0.930 1_565 S
H4622 C4638 0.931 1_565 S
C4623 H4611 0.929 . S
C4623 C4617 1.390 . S
C4623 C4620 1.386 . S
C4624 C4619 1.490 . S
C4624 C4626 1.395 . S
C4624 C4627 1.403 . S
H4625 C4631 0.930 . S
C4626 H4612 0.930 . S
C4626 C4624 1.395 . S
C4626 C4629 1.403 . S
C4627 C4624 1.403 . S
C4627 C4628 1.524 . S
C4627 C4631 1.400 . S
C4628 H4613 0.960 . S
C4628 H4614 0.960 . S
C4628 H4615 0.960 . S
C4628 C4627 1.524 . S
C4629 C4626 1.403 . S
C4629 C4630 1.392 . S
C4629 C4633 1.495 . S
C4630 C4629 1.392 . S
C4630 C4631 1.385 . S
C4630 C4632 1.478 . S
C4631 H4625 0.930 . S
C4631 C4627 1.400 . S
C4631 C4630 1.385 . S
C4632 C4630 1.478 . S
C4632 C4634 1.381 . S
C4632 C4638 1.383 . S
C4633 C4629 1.495 . S
C4633 H4639 0.959 . S
C4633 H4640 0.961 . S
C4633 H4641 0.960 . S
C4634 C4632 1.381 . S
C4634 C4635 1.394 . S
C4634 H4642 0.930 . S
C4635 C4634 1.394 . S
C4635 C4636 1.383 . S
C4635 H4643 0.929 . S
C4636 C4635 1.383 . S
C4636 C4637 1.377 . S
C4637 H4621 0.930 1_545 S
C4637 C4636 1.377 . S
C4637 C4638 1.379 . S
C4638 H4622 0.931 1_545 S
C4638 C4632 1.383 . S
C4638 C4637 1.379 . S
H4639 C4633 0.959 . S
H4640 C4633 0.961 . S
H4641 C4633 0.960 . S
H4642 C4634 0.930 . S
H4643 C4635 0.929 . S
H4644 C4652 0.929 . S
H4645 C4654 0.930 . S
H4646 C4656 0.930 . S
H4647 C4659 0.929 . S
H4648 C4662 0.930 . S
H4649 C4664 0.960 . S
H4650 C4664 0.960 . S
H4651 C4664 0.960 . S
C4652 H4644 0.929 . S
C4652 C4653 1.377 . S
C4652 C4654 1.384 . S
C4653 C4652 1.377 . S
C4653 C4659 1.390 . S
C4654 H4645 0.930 . S
C4654 C4652 1.384 . S
C4654 C4655 1.372 . S
C4655 C4654 1.372 . S
C4655 C4656 1.400 . S
C4655 C4660 1.490 . S
C4656 H4646 0.930 . S
C4656 C4655 1.400 . S
C4656 C4659 1.386 . S
H4657 C4673 0.930 . S
H4658 C4674 0.931 . S
C4659 H4647 0.929 . S
C4659 C4653 1.390 . S
C4659 C4656 1.386 . S
C4660 C4655 1.490 . S
C4660 C4662 1.395 . S
C4660 C4663 1.403 . S
H4661 C4667 0.930 . S
C4662 H4648 0.930 . S
C4662 C4660 1.395 . S
C4662 C4665 1.403 . S
C4663 C4660 1.403 . S
C4663 C4664 1.524 . S
C4663 C4667 1.400 . S
C4664 H4649 0.960 . S
C4664 H4650 0.960 . S
C4664 H4651 0.960 . S
C4664 C4663 1.524 . S
C4665 C4662 1.403 . S
C4665 C4666 1.392 . S
C4665 C4669 1.495 . S
C4666 C4665 1.392 . S
C4666 C4667 1.385 . S
C4666 C4668 1.478 . S
C4667 H4661 0.930 . S
C4667 C4663 1.400 . S
C4667 C4666 1.385 . S
C4668 C4666 1.478 . S
C4668 C4670 1.381 . S
C4668 C4674 1.383 . S
C4669 C4665 1.495 . S
C4669 H4675 0.959 . S
C4669 H4676 0.961 . S
C4669 H4677 0.960 . S
C4670 C4668 1.381 . S
C4670 C4671 1.394 . S
C4670 H4678 0.930 . S
C4671 C4670 1.394 . S
C4671 C4672 1.383 . S
C4671 H4679 0.929 . S
C4672 C4671 1.383 . S
C4672 C4673 1.377 . S
C4673 H4657 0.930 . S
C4673 C4672 1.377 . S
C4673 C4674 1.379 . S
C4674 H4658 0.931 . S
C4674 C4668 1.383 . S
C4674 C4673 1.379 . S
H4675 C4669 0.959 . S
H4676 C4669 0.961 . S
H4677 C4669 0.960 . S
H4678 C4670 0.930 . S
H4679 C4671 0.929 . S
H4680 C4688 0.929 . S
H4681 C4690 0.930 . S
H4682 C4692 0.930 . S
H4683 C4695 0.929 . S
H4684 C4698 0.930 . S
H4685 C4700 0.960 . S
H4686 C4700 0.960 . S
H4687 C4700 0.960 1_545 S
C4688 H4680 0.929 . S
C4688 C4689 1.377 . S
C4688 C4690 1.384 . S
C4689 C4688 1.377 . S
C4689 C4695 1.390 . S
C4690 H4681 0.930 . S
C4690 C4688 1.384 . S
C4690 C4691 1.372 . S
C4691 C4690 1.372 . S
C4691 C4692 1.400 . S
C4691 C4696 1.490 . S
C4692 H4682 0.930 . S
C4692 C4691 1.400 . S
C4692 C4695 1.386 . S
H4693 C4709 0.930 . S
H4694 C4710 0.931 . S
C4695 H4683 0.929 . S
C4695 C4689 1.390 . S
C4695 C4692 1.386 . S
C4696 C4691 1.490 . S
C4696 C4698 1.395 . S
C4696 C4699 1.403 . S
H4697 C4703 0.930 . S
C4698 H4684 0.930 . S
C4698 C4696 1.395 . S
C4698 C4701 1.403 . S
C4699 C4696 1.403 . S
C4699 C4700 1.524 1_545 S
C4699 C4703 1.400 . S
C4700 H4685 0.960 . S
C4700 H4686 0.960 . S
C4700 H4687 0.960 1_565 S
C4700 C4699 1.524 1_565 S
C4701 C4698 1.403 . S
C4701 C4702 1.392 . S
C4701 C4705 1.495 . S
C4702 C4701 1.392 . S
C4702 C4703 1.385 . S
C4702 C4704 1.478 . S
C4703 H4697 0.930 . S
C4703 C4699 1.400 . S
C4703 C4702 1.385 . S
C4704 C4702 1.478 . S
C4704 C4706 1.381 . S
C4704 C4710 1.383 . S
C4705 C4701 1.495 . S
C4705 H4711 0.959 . S
C4705 H4712 0.961 . S
C4705 H4713 0.960 . S
C4706 C4704 1.381 . S
C4706 C4707 1.394 . S
C4706 H4714 0.930 . S
C4707 C4706 1.394 . S
C4707 C4708 1.383 . S
C4707 H4715 0.929 . S
C4708 C4707 1.383 . S
C4708 C4709 1.377 . S
C4709 H4693 0.930 . S
C4709 C4708 1.377 . S
C4709 C4710 1.379 . S
C4710 H4694 0.931 . S
C4710 C4704 1.383 . S
C4710 C4709 1.379 . S
H4711 C4705 0.959 . S
H4712 C4705 0.961 . S
H4713 C4705 0.960 . S
H4714 C4706 0.930 . S
H4715 C4707 0.929 . S
H4716 C4724 0.929 . S
H4717 C4726 0.930 . S
H4718 C4728 0.930 . S
H4719 C4731 0.929 . S
H4720 C4734 0.930 . S
H4721 C4736 0.960 . S
H4722 C4736 0.960 . S
H4723 C4736 0.960 . S
C4724 H4716 0.929 . S
C4724 C4725 1.377 . S
C4724 C4726 1.384 . S
C4725 C4724 1.377 . S
C4725 C4731 1.390 . S
C4726 H4717 0.930 . S
C4726 C4724 1.384 . S
C4726 C4727 1.372 . S
C4727 C4726 1.372 . S
C4727 C4728 1.400 . S
C4727 C4732 1.490 . S
C4728 H4718 0.930 . S
C4728 C4727 1.400 . S
C4728 C4731 1.386 . S
H4729 C4745 0.930 . S
H4730 C4746 0.931 . S
C4731 H4719 0.929 . S
C4731 C4725 1.390 . S
C4731 C4728 1.386 . S
C4732 C4727 1.490 . S
C4732 C4734 1.395 . S
C4732 C4735 1.403 . S
H4733 C4739 0.930 . S
C4734 H4720 0.930 . S
C4734 C4732 1.395 . S
C4734 C4737 1.403 . S
C4735 C4732 1.403 . S
C4735 C4736 1.524 . S
C4735 C4739 1.400 . S
C4736 H4721 0.960 . S
C4736 H4722 0.960 . S
C4736 H4723 0.960 . S
C4736 C4735 1.524 . S
C4737 C4734 1.403 . S
C4737 C4738 1.392 . S
C4737 C4741 1.495 . S
C4738 C4737 1.392 . S
C4738 C4739 1.385 . S
C4738 C4740 1.478 . S
C4739 H4733 0.930 . S
C4739 C4735 1.400 . S
C4739 C4738 1.385 . S
C4740 C4738 1.478 . S
C4740 C4742 1.381 . S
C4740 C4746 1.383 . S
C4741 C4737 1.495 . S
C4741 H4747 0.959 . S
C4741 H4748 0.961 . S
C4741 H4749 0.960 . S
C4742 C4740 1.381 . S
C4742 C4743 1.394 . S
C4742 H4750 0.930 . S
C4743 C4742 1.394 . S
C4743 C4744 1.383 . S
C4743 H4751 0.929 . S
C4744 C4743 1.383 . S
C4744 C4745 1.377 . S
C4745 H4729 0.930 . S
C4745 C4744 1.377 . S
C4745 C4746 1.379 . S
C4746 H4730 0.931 . S
C4746 C4740 1.383 . S
C4746 C4745 1.379 . S
H4747 C4741 0.959 . S
H4748 C4741 0.961 . S
H4749 C4741 0.960 . S
H4750 C4742 0.930 . S
H4751 C4743 0.929 . S
H4752 C4760 0.929 . S
H4753 C4762 0.930 . S
H4754 C4764 0.896 1_565 S
H4755 C4767 0.929 1_565 S
H4756 C4770 0.930 . S
H4757 C4772 0.960 . S
H4758 C4772 0.960 . S
H4759 C4772 0.960 . S
C4760 H4752 0.929 . S
C4760 C4761 1.377 . S
C4760 C4762 1.384 . S
C4761 C4760 1.377 . S
C4761 C4767 1.390 . S
C4762 H4753 0.930 . S
C4762 C4760 1.384 . S
C4762 C4763 1.372 . S
C4763 C4762 1.372 . S
C4763 C4764 1.400 . S
C4763 C4768 1.490 . S
C4764 H4754 0.896 1_545 S
C4764 C4763 1.400 . S
C4764 C4767 1.386 . S
H4765 C4781 0.930 . S
H4766 C4782 0.931 . S
C4767 H4755 0.929 1_545 S
C4767 C4761 1.390 . S
C4767 C4764 1.386 . S
C4768 C4763 1.490 . S
C4768 C4770 1.395 . S
C4768 C4771 1.403 . S
H4769 C4775 0.923 1_565 S
C4770 H4756 0.930 . S
C4770 C4768 1.395 . S
C4770 C4773 1.403 . S
C4771 C4768 1.403 . S
C4771 C4772 1.524 1_545 S
C4771 C4775 1.400 . S
C4772 H4757 0.960 . S
C4772 H4758 0.960 . S
C4772 H4759 0.960 . S
C4772 C4771 1.524 1_565 S
C4773 C4770 1.403 . S
C4773 C4774 1.392 . S
C4773 C4777 1.495 . S
C4774 C4773 1.392 . S
C4774 C4775 1.385 . S
C4774 C4776 1.478 . S
C4775 H4769 0.923 1_545 S
C4775 C4771 1.400 . S
C4775 C4774 1.385 . S
C4776 C4774 1.478 . S
C4776 C4778 1.381 . S
C4776 C4782 1.383 . S
C4777 C4773 1.495 . S
C4777 H4783 0.959 . S
C4777 H4784 0.961 . S
C4777 H4785 0.960 . S
C4778 C4776 1.381 . S
C4778 C4779 1.394 . S
C4778 H4786 0.930 . S
C4779 C4778 1.394 . S
C4779 C4780 1.383 . S
C4779 H4787 0.929 . S
C4780 C4779 1.383 . S
C4780 C4781 1.377 . S
C4781 H4765 0.930 . S
C4781 C4780 1.377 . S
C4781 C4782 1.379 . S
C4782 H4766 0.931 . S
C4782 C4776 1.383 . S
C4782 C4781 1.379 . S
H4783 C4777 0.959 . S
H4784 C4777 0.961 . S
H4785 C4777 0.960 . S
H4786 C4778 0.930 . S
H4787 C4779 0.929 . S
H4788 C4796 0.929 . S
H4789 C4798 0.930 . S
H4790 C4800 0.930 . S
H4791 C4803 0.929 . S
H4792 C4806 0.930 . S
H4793 C4808 0.960 . S
H4794 C4808 0.960 . S
H4795 C4808 0.960 . S
C4796 H4788 0.929 . S
C4796 C4797 1.377 . S
C4796 C4798 1.384 . S
C4797 C4796 1.377 . S
C4797 C4803 1.390 . S
C4798 H4789 0.930 . S
C4798 C4796 1.384 . S
C4798 C4799 1.372 . S
C4799 C4798 1.372 . S
C4799 C4800 1.400 . S
C4799 C4804 1.490 . S
C4800 H4790 0.930 . S
C4800 C4799 1.400 . S
C4800 C4803 1.386 . S
H4801 C4817 0.930 . S
H4802 C4818 0.931 . S
C4803 H4791 0.929 . S
C4803 C4797 1.390 . S
C4803 C4800 1.386 . S
C4804 C4799 1.490 . S
C4804 C4806 1.395 . S
C4804 C4807 1.403 . S
H4805 C4811 0.930 . S
C4806 H4792 0.930 . S
C4806 C4804 1.395 . S
C4806 C4809 1.403 . S
C4807 C4804 1.403 . S
C4807 C4808 1.524 . S
C4807 C4811 1.400 . S
C4808 H4793 0.960 . S
C4808 H4794 0.960 . S
C4808 H4795 0.960 . S
C4808 C4807 1.524 . S
C4809 C4806 1.403 . S
C4809 C4810 1.392 . S
C4809 C4813 1.495 . S
C4810 C4809 1.392 . S
C4810 C4811 1.385 . S
C4810 C4812 1.478 . S
C4811 H4805 0.930 . S
C4811 C4807 1.400 . S
C4811 C4810 1.385 . S
C4812 C4810 1.478 . S
C4812 C4814 1.381 . S
C4812 C4818 1.383 . S
C4813 C4809 1.495 . S
C4813 H4819 0.959 . S
C4813 H4820 0.961 . S
C4813 H4821 0.960 . S
C4814 C4812 1.381 . S
C4814 C4815 1.394 . S
C4814 H4822 0.930 . S
C4815 C4814 1.394 . S
C4815 C4816 1.383 . S
C4815 H4823 0.929 . S
C4816 C4815 1.383 . S
C4816 C4817 1.377 . S
C4817 H4801 0.930 . S
C4817 C4816 1.377 . S
C4817 C4818 1.379 . S
C4818 H4802 0.931 . S
C4818 C4812 1.383 . S
C4818 C4817 1.379 . S
H4819 C4813 0.959 . S
H4820 C4813 0.961 . S
H4821 C4813 0.960 . S
H4822 C4814 0.930 . S
H4823 C4815 0.929 . S
H4824 C4832 0.929 . S
H4825 C4834 0.930 . S
H4826 C4836 0.930 1_565 S
H4827 C4839 0.929 1_565 S
H4828 C4842 0.930 1_565 S
H4829 C4844 0.960 . S
H4830 C4844 0.960 . S
H4831 C4844 0.960 . S
C4832 H4824 0.929 . S
C4832 C4833 1.377 . S
C4832 C4834 1.384 . S
C4833 C4832 1.377 . S
C4833 C4839 1.390 . S
C4834 H4825 0.930 . S
C4834 C4832 1.384 . S
C4834 C4835 1.372 . S
C4835 C4834 1.372 . S
C4835 C4836 1.400 . S
C4835 C4840 1.490 . S
C4836 H4826 0.930 1_545 S
C4836 C4835 1.400 . S
C4836 C4839 1.386 . S
H4837 C4853 0.962 . S
H4838 C4854 0.931 . S
C4839 H4827 0.929 1_545 S
C4839 C4833 1.390 . S
C4839 C4836 1.386 . S
C4840 C4835 1.490 . S
C4840 C4842 1.395 . S
C4840 C4843 1.403 . S
H4841 C4847 0.930 . S
C4842 H4828 0.930 1_545 S
C4842 C4840 1.395 . S
C4842 C4845 1.403 . S
C4843 C4840 1.403 . S
C4843 C4844 1.524 . S
C4843 C4847 1.400 . S
C4844 H4829 0.960 . S
C4844 H4830 0.960 . S
C4844 H4831 0.960 . S
C4844 C4843 1.524 . S
C4845 C4842 1.403 . S
C4845 C4846 1.392 . S
C4845 C4849 1.495 1_545 S
C4846 C4845 1.392 . S
C4846 C4847 1.385 . S
C4846 C4848 1.478 . S
C4847 H4841 0.930 . S
C4847 C4843 1.400 . S
C4847 C4846 1.385 . S
C4848 C4846 1.478 . S
C4848 C4850 1.381 . S
C4848 C4854 1.383 1_545 S
C4849 C4845 1.495 1_565 S
C4849 H4855 0.959 . S
C4849 H4856 0.961 . S
C4849 H4857 0.960 1_565 S
C4850 C4848 1.381 . S
C4850 C4851 1.394 . S
C4850 H4858 0.930 . S
C4851 C4850 1.394 . S
C4851 C4852 1.383 . S
C4851 H4859 0.929 . S
C4852 C4851 1.383 . S
C4852 C4853 1.346 1_545 S
C4853 H4837 0.962 . S
C4853 C4852 1.346 1_565 S
C4853 C4854 1.384 . S
C4854 H4838 0.931 . S
C4854 C4848 1.383 1_565 S
C4854 C4853 1.384 . S
H4855 C4849 0.959 . S
H4856 C4849 0.961 . S
H4857 C4849 0.960 1_545 S
H4858 C4850 0.930 . S
H4859 C4851 0.929 . S
H4860 C4868 0.929 . S
H4861 C4870 0.930 . S
H4862 C4872 0.930 . S
H4863 C4875 0.929 . S
H4864 C4878 0.930 . S
H4865 C4880 0.960 . S
H4866 C4880 0.960 . S
H4867 C4880 0.960 . S
C4868 H4860 0.929 . S
C4868 C4869 1.377 . S
C4868 C4870 1.384 . S
C4869 C4868 1.377 . S
C4869 C4875 1.390 . S
C4870 H4861 0.930 . S
C4870 C4868 1.384 . S
C4870 C4871 1.372 . S
C4871 C4870 1.372 . S
C4871 C4872 1.400 . S
C4871 C4876 1.490 . S
C4872 H4862 0.930 . S
C4872 C4871 1.400 . S
C4872 C4875 1.386 . S
H4873 C4889 0.930 . S
H4874 C4890 0.931 . S
C4875 H4863 0.929 . S
C4875 C4869 1.390 . S
C4875 C4872 1.386 . S
C4876 C4871 1.490 . S
C4876 C4878 1.395 . S
C4876 C4879 1.403 . S
H4877 C4883 0.930 . S
C4878 H4864 0.930 . S
C4878 C4876 1.395 . S
C4878 C4881 1.403 . S
C4879 C4876 1.403 . S
C4879 C4880 1.524 . S
C4879 C4883 1.400 . S
C4880 H4865 0.960 . S
C4880 H4866 0.960 . S
C4880 H4867 0.960 . S
C4880 C4879 1.524 . S
C4881 C4878 1.403 . S
C4881 C4882 1.392 . S
C4881 C4885 1.495 . S
C4882 C4881 1.392 . S
C4882 C4883 1.385 . S
C4882 C4884 1.478 . S
C4883 H4877 0.930 . S
C4883 C4879 1.400 . S
C4883 C4882 1.385 . S
C4884 C4882 1.478 . S
C4884 C4886 1.381 . S
C4884 C4890 1.383 . S
C4885 C4881 1.495 . S
C4885 H4891 0.959 . S
C4885 H4892 0.961 . S
C4885 H4893 0.960 . S
C4886 C4884 1.381 . S
C4886 C4887 1.394 . S
C4886 H4894 0.930 . S
C4887 C4886 1.394 . S
C4887 C4888 1.383 . S
C4887 H4895 0.929 . S
C4888 C4887 1.383 . S
C4888 C4889 1.377 . S
C4889 H4873 0.930 . S
C4889 C4888 1.377 . S
C4889 C4890 1.379 . S
C4890 H4874 0.931 . S
C4890 C4884 1.383 . S
C4890 C4889 1.379 . S
H4891 C4885 0.959 . S
H4892 C4885 0.961 . S
H4893 C4885 0.960 . S
H4894 C4886 0.930 . S
H4895 C4887 0.929 . S
H4896 C4904 0.929 . S
H4897 C4906 0.930 . S
H4898 C4908 0.930 . S
H4899 C4911 0.929 . S
H4900 C4914 0.930 . S
H4901 C4916 0.960 . S
H4902 C4916 0.960 . S
H4903 C4916 0.960 . S
C4904 H4896 0.929 . S
C4904 C4905 1.377 . S
C4904 C4906 1.384 . S
C4905 C4904 1.377 . S
C4905 C4911 1.390 . S
C4906 H4897 0.930 . S
C4906 C4904 1.384 . S
C4906 C4907 1.372 . S
C4907 C4906 1.372 . S
C4907 C4908 1.400 . S
C4907 C4912 1.490 . S
C4908 H4898 0.930 . S
C4908 C4907 1.400 . S
C4908 C4911 1.386 . S
H4909 C4925 0.930 . S
H4910 C4926 0.931 . S
C4911 H4899 0.929 . S
C4911 C4905 1.390 . S
C4911 C4908 1.386 . S
C4912 C4907 1.490 . S
C4912 C4914 1.395 . S
C4912 C4915 1.403 . S
H4913 C4919 0.930 . S
C4914 H4900 0.930 . S
C4914 C4912 1.395 . S
C4914 C4917 1.403 . S
C4915 C4912 1.403 . S
C4915 C4916 1.524 . S
C4915 C4919 1.400 . S
C4916 H4901 0.960 . S
C4916 H4902 0.960 . S
C4916 H4903 0.960 . S
C4916 C4915 1.524 . S
C4917 C4914 1.403 . S
C4917 C4918 1.392 . S
C4917 C4921 1.495 1_554 S
C4918 C4917 1.392 . S
C4918 C4919 1.385 . S
C4918 C4920 1.478 . S
C4919 H4913 0.930 . S
C4919 C4915 1.400 . S
C4919 C4918 1.385 . S
C4920 C4918 1.478 . S
C4920 C4922 1.381 . S
C4920 C4926 1.383 . S
C4921 C4917 1.495 1_556 S
C4921 H4927 0.959 . S
C4921 H4928 0.961 . S
C4921 H4929 0.960 . S
C4922 C4920 1.381 . S
C4922 C4923 1.394 . S
C4922 H4930 0.930 . S
C4923 C4922 1.394 . S
C4923 C4924 1.383 . S
C4923 H4931 0.929 . S
C4924 C4923 1.383 . S
C4924 C4925 1.377 . S
C4925 H4909 0.930 . S
C4925 C4924 1.377 . S
C4925 C4926 1.379 . S
C4926 H4910 0.931 . S
C4926 C4920 1.383 . S
C4926 C4925 1.379 . S
H4927 C4921 0.959 . S
H4928 C4921 0.961 . S
H4929 C4921 0.960 . S
H4930 C4922 0.930 . S
H4931 C4923 0.929 . S
H4932 C4940 0.929 . S
H4933 C4942 0.930 . S
H4934 C4944 0.930 . S
H4935 C4947 0.929 . S
H4936 C4950 0.930 . S
H4937 C4952 0.960 . S
H4938 C4952 0.960 . S
H4939 C4952 0.960 . S
C4940 H4932 0.929 . S
C4940 C4941 1.377 . S
C4940 C4942 1.384 . S
C4941 C4940 1.377 . S
C4941 C4947 1.390 . S
C4942 H4933 0.930 . S
C4942 C4940 1.384 . S
C4942 C4943 1.372 . S
C4943 C4942 1.372 . S
C4943 C4944 1.400 . S
C4943 C4948 1.490 . S
C4944 H4934 0.930 . S
C4944 C4943 1.400 . S
C4944 C4947 1.386 . S
H4945 C4961 0.930 . S
H4946 C4962 0.931 . S
C4947 H4935 0.929 . S
C4947 C4941 1.390 . S
C4947 C4944 1.386 . S
C4948 C4943 1.490 . S
C4948 C4950 1.395 . S
C4948 C4951 1.403 . S
H4949 C4955 0.930 . S
C4950 H4936 0.930 . S
C4950 C4948 1.395 . S
C4950 C4953 1.403 . S
C4951 C4948 1.403 . S
C4951 C4952 1.524 . S
C4951 C4955 1.400 . S
C4952 H4937 0.960 . S
C4952 H4938 0.960 . S
C4952 H4939 0.960 . S
C4952 C4951 1.524 . S
C4953 C4950 1.403 . S
C4953 C4954 1.392 . S
C4953 C4957 1.557 . S
C4954 C4953 1.392 . S
C4954 C4955 1.385 . S
C4954 C4956 1.478 . S
C4955 H4949 0.930 . S
C4955 C4951 1.400 . S
C4955 C4954 1.385 . S
C4956 C4954 1.478 . S
C4956 C4958 1.381 . S
C4956 C4962 1.383 . S
C4957 C4953 1.557 . S
C4957 H4963 0.932 1_554 S
C4957 H4964 0.917 1_554 S
C4957 H4965 0.975 . S
C4958 C4956 1.381 . S
C4958 C4959 1.394 . S
C4958 H4966 0.930 . S
C4959 C4958 1.394 . S
C4959 C4960 1.383 . S
C4959 H4967 0.929 . S
C4960 C4959 1.383 . S
C4960 C4961 1.377 . S
C4961 H4945 0.930 . S
C4961 C4960 1.377 . S
C4961 C4962 1.379 . S
C4962 H4946 0.931 . S
C4962 C4956 1.383 . S
C4962 C4961 1.379 . S
H4963 C4957 0.932 1_556 S
H4964 C4957 0.917 1_556 S
H4965 C4957 0.975 . S
H4966 C4958 0.930 . S
H4967 C4959 0.929 . S
H4968 C4976 0.929 . S
H4969 C4978 0.930 . S
H4970 C4980 0.930 . S
H4971 C4983 0.929 . S
H4972 C4986 0.930 . S
H4973 C4988 0.960 . S
H4974 C4988 0.960 . S
H4975 C4988 0.960 . S
C4976 H4968 0.929 . S
C4976 C4977 1.377 . S
C4976 C4978 1.384 . S
C4977 C4976 1.377 . S
C4977 C4983 1.390 . S
C4978 H4969 0.930 . S
C4978 C4976 1.384 . S
C4978 C4979 1.372 . S
C4979 C4978 1.372 . S
C4979 C4980 1.400 . S
C4979 C4984 1.490 . S
C4980 H4970 0.930 . S
C4980 C4979 1.400 . S
C4980 C4983 1.386 . S
H4981 C4997 0.930 . S
H4982 C4998 0.931 . S
C4983 H4971 0.929 . S
C4983 C4977 1.390 . S
C4983 C4980 1.386 . S
C4984 C4979 1.490 . S
C4984 C4986 1.395 . S
C4984 C4987 1.403 . S
H4985 C4991 0.930 . S
C4986 H4972 0.930 . S
C4986 C4984 1.395 . S
C4986 C4989 1.403 . S
C4987 C4984 1.403 . S
C4987 C4988 1.524 . S
C4987 C4991 1.400 . S
C4988 H4973 0.960 . S
C4988 H4974 0.960 . S
C4988 H4975 0.960 . S
C4988 C4987 1.524 . S
C4989 C4986 1.403 . S
C4989 C4990 1.392 . S
C4989 C4993 1.495 . S
C4990 C4989 1.392 . S
C4990 C4991 1.385 . S
C4990 C4992 1.478 . S
C4991 H4985 0.930 . S
C4991 C4987 1.400 . S
C4991 C4990 1.385 . S
C4992 C4990 1.478 . S
C4992 C4994 1.381 . S
C4992 C4998 1.383 . S
C4993 C4989 1.495 . S
C4993 H4999 0.959 . S
C4993 H5000 0.961 . S
C4993 H5001 0.960 . S
C4994 C4992 1.381 . S
C4994 C4995 1.394 . S
C4994 H5002 0.930 . S
C4995 C4994 1.394 . S
C4995 C4996 1.383 . S
C4995 H5003 0.929 . S
C4996 C4995 1.383 . S
C4996 C4997 1.377 . S
C4997 H4981 0.930 . S
C4997 C4996 1.377 . S
C4997 C4998 1.379 . S
C4998 H4982 0.931 . S
C4998 C4992 1.383 . S
C4998 C4997 1.379 . S
H4999 C4993 0.959 . S
H5000 C4993 0.961 . S
H5001 C4993 0.960 . S
H5002 C4994 0.930 . S
H5003 C4995 0.929 . S
H5004 C5012 0.929 . S
H5005 C5014 0.930 . S
H5006 C5016 0.930 . S
H5007 C5019 0.929 . S
H5008 C5022 0.930 . S
H5009 C5024 0.960 . S
H5010 C5024 0.960 . S
H5011 C5024 0.960 . S
C5012 H5004 0.929 . S
C5012 C5013 1.377 . S
C5012 C5014 1.384 . S
C5013 C5012 1.377 . S
C5013 C5019 1.390 . S
C5014 H5005 0.930 . S
C5014 C5012 1.384 . S
C5014 C5015 1.372 . S
C5015 C5014 1.372 . S
C5015 C5016 1.400 . S
C5015 C5020 1.490 . S
C5016 H5006 0.930 . S
C5016 C5015 1.400 . S
C5016 C5019 1.386 . S
H5017 C5033 0.930 . S
H5018 C5034 0.931 . S
C5019 H5007 0.929 . S
C5019 C5013 1.390 . S
C5019 C5016 1.386 . S
C5020 C5015 1.490 . S
C5020 C5022 1.395 . S
C5020 C5023 1.403 . S
H5021 C5027 0.930 . S
C5022 H5008 0.930 . S
C5022 C5020 1.395 . S
C5022 C5025 1.403 . S
C5023 C5020 1.403 . S
C5023 C5024 1.524 . S
C5023 C5027 1.400 . S
C5024 H5009 0.960 . S
C5024 H5010 0.960 . S
C5024 H5011 0.960 . S
C5024 C5023 1.524 . S
C5025 C5022 1.403 . S
C5025 C5026 1.392 . S
C5025 C5029 1.495 . S
C5026 C5025 1.392 . S
C5026 C5027 1.385 . S
C5026 C5028 1.478 . S
C5027 H5021 0.930 . S
C5027 C5023 1.400 . S
C5027 C5026 1.385 . S
C5028 C5026 1.478 . S
C5028 C5030 1.381 . S
C5028 C5034 1.383 . S
C5029 C5025 1.495 . S
C5029 H5035 0.959 . S
C5029 H5036 0.961 . S
C5029 H5037 0.960 . S
C5030 C5028 1.381 . S
C5030 C5031 1.394 . S
C5030 H5038 0.930 . S
C5031 C5030 1.394 . S
C5031 C5032 1.383 . S
C5031 H5039 0.929 . S
C5032 C5031 1.383 . S
C5032 C5033 1.377 . S
C5033 H5017 0.930 . S
C5033 C5032 1.377 . S
C5033 C5034 1.379 . S
C5034 H5018 0.931 . S
C5034 C5028 1.383 . S
C5034 C5033 1.379 . S
H5035 C5029 0.959 . S
H5036 C5029 0.961 . S
H5037 C5029 0.960 . S
H5038 C5030 0.930 . S
H5039 C5031 0.929 . S
H5040 C5048 0.929 . S
H5041 C5050 0.930 . S
H5042 C5052 0.930 . S
H5043 C5055 0.929 . S
H5044 C5058 0.930 . S
H5045 C5060 0.960 . S
H5046 C5060 0.960 . S
H5047 C5060 0.960 . S
C5048 H5040 0.929 . S
C5048 C5049 1.377 . S
C5048 C5050 1.384 . S
C5049 C5048 1.377 . S
C5049 C5055 1.390 . S
C5050 H5041 0.930 . S
C5050 C5048 1.384 . S
C5050 C5051 1.372 . S
C5051 C5050 1.372 . S
C5051 C5052 1.400 . S
C5051 C5056 1.490 . S
C5052 H5042 0.930 . S
C5052 C5051 1.400 . S
C5052 C5055 1.386 . S
H5053 C5069 0.930 . S
H5054 C5070 0.931 . S
C5055 H5043 0.929 . S
C5055 C5049 1.390 . S
C5055 C5052 1.386 . S
C5056 C5051 1.490 . S
C5056 C5058 1.395 . S
C5056 C5059 1.403 . S
H5057 C5063 0.930 . S
C5058 H5044 0.930 . S
C5058 C5056 1.395 . S
C5058 C5061 1.403 . S
C5059 C5056 1.403 . S
C5059 C5060 1.524 . S
C5059 C5063 1.400 . S
C5060 H5045 0.960 . S
C5060 H5046 0.960 . S
C5060 H5047 0.960 . S
C5060 C5059 1.524 . S
C5061 C5058 1.403 . S
C5061 C5062 1.392 . S
C5061 C5065 1.495 . S
C5062 C5061 1.392 . S
C5062 C5063 1.385 . S
C5062 C5064 1.478 . S
C5063 H5057 0.930 . S
C5063 C5059 1.400 . S
C5063 C5062 1.385 . S
C5064 C5062 1.478 . S
C5064 C5066 1.381 . S
C5064 C5070 1.383 . S
C5065 C5061 1.495 . S
C5065 H5071 0.959 . S
C5065 H5072 0.961 . S
C5065 H5073 0.960 . S
C5066 C5064 1.381 . S
C5066 C5067 1.394 . S
C5066 H5074 0.930 . S
C5067 C5066 1.394 . S
C5067 C5068 1.383 . S
C5067 H5075 0.929 . S
C5068 C5067 1.383 . S
C5068 C5069 1.377 . S
C5069 H5053 0.930 . S
C5069 C5068 1.377 . S
C5069 C5070 1.379 . S
C5070 H5054 0.931 . S
C5070 C5064 1.383 . S
C5070 C5069 1.379 . S
H5071 C5065 0.959 . S
H5072 C5065 0.961 . S
H5073 C5065 0.960 . S
H5074 C5066 0.930 . S
H5075 C5067 0.929 . S
H5076 C5084 0.929 . S
H5077 C5086 0.930 . S
H5078 C5088 0.930 . S
H5079 C5091 0.929 . S
H5080 C5094 0.930 . S
H5081 C5096 0.960 . S
H5082 C5096 0.960 . S
H5083 C5096 0.960 . S
C5084 H5076 0.929 . S
C5084 C5085 1.377 . S
C5084 C5086 1.384 . S
C5085 C5084 1.377 . S
C5085 C5091 1.390 . S
C5086 H5077 0.930 . S
C5086 C5084 1.384 . S
C5086 C5087 1.372 . S
C5087 C5086 1.372 . S
C5087 C5088 1.400 . S
C5087 C5092 1.490 . S
C5088 H5078 0.930 . S
C5088 C5087 1.400 . S
C5088 C5091 1.386 . S
H5089 C5105 0.930 . S
H5090 C5106 0.931 . S
C5091 H5079 0.929 . S
C5091 C5085 1.390 . S
C5091 C5088 1.386 . S
C5092 C5087 1.490 . S
C5092 C5094 1.395 . S
C5092 C5095 1.403 . S
H5093 C5099 0.930 . S
C5094 H5080 0.930 . S
C5094 C5092 1.395 . S
C5094 C5097 1.403 . S
C5095 C5092 1.403 . S
C5095 C5096 1.524 . S
C5095 C5099 1.400 . S
C5096 H5081 0.960 . S
C5096 H5082 0.960 . S
C5096 H5083 0.960 . S
C5096 C5095 1.524 . S
C5097 C5094 1.403 . S
C5097 C5098 1.392 . S
C5097 C5101 1.495 . S
C5098 C5097 1.392 . S
C5098 C5099 1.385 . S
C5098 C5100 1.478 . S
C5099 H5093 0.930 . S
C5099 C5095 1.400 . S
C5099 C5098 1.385 . S
C5100 C5098 1.478 . S
C5100 C5102 1.381 . S
C5100 C5106 1.383 . S
C5101 C5097 1.495 . S
C5101 H5107 0.959 . S
C5101 H5108 0.961 . S
C5101 H5109 0.960 . S
C5102 C5100 1.381 . S
C5102 C5103 1.394 . S
C5102 H5110 0.930 . S
C5103 C5102 1.394 . S
C5103 C5104 1.383 . S
C5103 H5111 0.929 . S
C5104 C5103 1.383 . S
C5104 C5105 1.377 . S
C5105 H5089 0.930 . S
C5105 C5104 1.377 . S
C5105 C5106 1.379 . S
C5106 H5090 0.931 . S
C5106 C5100 1.383 . S
C5106 C5105 1.379 . S
H5107 C5101 0.959 . S
H5108 C5101 0.961 . S
H5109 C5101 0.960 . S
H5110 C5102 0.930 . S
H5111 C5103 0.929 . S
H5112 C5120 0.929 . S
H5113 C5122 0.930 . S
H5114 C5124 0.930 . S
H5115 C5127 0.929 . S
H5116 C5130 0.930 . S
H5117 C5132 0.960 . S
H5118 C5132 0.960 . S
H5119 C5132 0.960 . S
C5120 H5112 0.929 . S
C5120 C5121 1.377 . S
C5120 C5122 1.384 . S
C5121 C5120 1.377 . S
C5121 C5127 1.390 . S
C5122 H5113 0.930 . S
C5122 C5120 1.384 . S
C5122 C5123 1.372 . S
C5123 C5122 1.372 . S
C5123 C5124 1.400 . S
C5123 C5128 1.490 . S
C5124 H5114 0.930 . S
C5124 C5123 1.400 . S
C5124 C5127 1.386 . S
H5125 C5141 0.930 . S
H5126 C5142 0.931 . S
C5127 H5115 0.929 . S
C5127 C5121 1.390 . S
C5127 C5124 1.386 . S
C5128 C5123 1.490 . S
C5128 C5130 1.395 . S
C5128 C5131 1.403 . S
H5129 C5135 0.930 . S
C5130 H5116 0.930 . S
C5130 C5128 1.395 . S
C5130 C5133 1.403 . S
C5131 C5128 1.403 . S
C5131 C5132 1.524 . S
C5131 C5135 1.400 . S
C5132 H5117 0.960 . S
C5132 H5118 0.960 . S
C5132 H5119 0.960 . S
C5132 C5131 1.524 . S
C5133 C5130 1.403 . S
C5133 C5134 1.392 . S
C5133 C5137 1.495 . S
C5134 C5133 1.392 . S
C5134 C5135 1.385 . S
C5134 C5136 1.478 . S
C5135 H5129 0.930 . S
C5135 C5131 1.400 . S
C5135 C5134 1.385 . S
C5136 C5134 1.478 . S
C5136 C5138 1.381 . S
C5136 C5142 1.383 . S
C5137 C5133 1.495 . S
C5137 H5143 0.959 . S
C5137 H5144 0.961 . S
C5137 H5145 0.960 . S
C5138 C5136 1.381 . S
C5138 C5139 1.394 . S
C5138 H5146 0.930 . S
C5139 C5138 1.394 . S
C5139 C5140 1.383 . S
C5139 H5147 0.929 . S
C5140 C5139 1.383 . S
C5140 C5141 1.377 . S
C5141 H5125 0.930 . S
C5141 C5140 1.377 . S
C5141 C5142 1.379 . S
C5142 H5126 0.931 . S
C5142 C5136 1.383 . S
C5142 C5141 1.379 . S
H5143 C5137 0.959 . S
H5144 C5137 0.961 . S
H5145 C5137 0.960 . S
H5146 C5138 0.930 . S
H5147 C5139 0.929 . S
H5148 C5156 0.929 . S
H5149 C5158 0.930 . S
H5150 C5160 0.930 . S
H5151 C5163 0.929 . S
H5152 C5166 0.930 . S
H5153 C5168 0.960 . S
H5154 C5168 0.960 . S
H5155 C5168 0.960 . S
C5156 H5148 0.929 . S
C5156 C5157 1.377 . S
C5156 C5158 1.384 . S
C5157 C5156 1.377 . S
C5157 C5163 1.390 . S
C5158 H5149 0.930 . S
C5158 C5156 1.384 . S
C5158 C5159 1.372 . S
C5159 C5158 1.372 . S
C5159 C5160 1.400 . S
C5159 C5164 1.490 . S
C5160 H5150 0.930 . S
C5160 C5159 1.400 . S
C5160 C5163 1.386 . S
H5161 C5177 0.930 . S
H5162 C5178 0.931 . S
C5163 H5151 0.929 . S
C5163 C5157 1.390 . S
C5163 C5160 1.386 . S
C5164 C5159 1.490 . S
C5164 C5166 1.395 . S
C5164 C5167 1.403 . S
H5165 C5171 0.930 . S
C5166 H5152 0.930 . S
C5166 C5164 1.395 . S
C5166 C5169 1.403 . S
C5167 C5164 1.403 . S
C5167 C5168 1.524 . S
C5167 C5171 1.400 . S
C5168 H5153 0.960 . S
C5168 H5154 0.960 . S
C5168 H5155 0.960 . S
C5168 C5167 1.524 . S
C5169 C5166 1.403 . S
C5169 C5170 1.392 . S
C5169 C5173 1.495 . S
C5170 C5169 1.392 . S
C5170 C5171 1.385 . S
C5170 C5172 1.478 . S
C5171 H5165 0.930 . S
C5171 C5167 1.400 . S
C5171 C5170 1.385 . S
C5172 C5170 1.478 . S
C5172 C5174 1.381 . S
C5172 C5178 1.383 . S
C5173 C5169 1.495 . S
C5173 H5179 0.959 . S
C5173 H5180 0.961 . S
C5173 H5181 0.960 . S
C5174 C5172 1.381 . S
C5174 C5175 1.394 . S
C5174 H5182 0.930 . S
C5175 C5174 1.394 . S
C5175 C5176 1.383 . S
C5175 H5183 0.929 . S
C5176 C5175 1.383 . S
C5176 C5177 1.377 . S
C5177 H5161 0.930 . S
C5177 C5176 1.377 . S
C5177 C5178 1.379 . S
C5178 H5162 0.931 . S
C5178 C5172 1.383 . S
C5178 C5177 1.379 . S
H5179 C5173 0.959 . S
H5180 C5173 0.961 . S
H5181 C5173 0.960 . S
H5182 C5174 0.930 . S
H5183 C5175 0.929 . S
H5184 C5192 0.929 . S
H5185 C5194 0.930 . S
H5186 C5196 0.930 . S
H5187 C5199 0.929 . S
H5188 C5202 0.930 . S
H5189 C5204 0.960 . S
H5190 C5204 0.960 . S
H5191 C5204 0.960 . S
C5192 H5184 0.929 . S
C5192 C5193 1.377 . S
C5192 C5194 1.384 . S
C5193 C5192 1.377 . S
C5193 C5199 1.390 . S
C5194 H5185 0.930 . S
C5194 C5192 1.384 . S
C5194 C5195 1.372 . S
C5195 C5194 1.372 . S
C5195 C5196 1.400 . S
C5195 C5200 1.490 . S
C5196 H5186 0.930 . S
C5196 C5195 1.400 . S
C5196 C5199 1.386 . S
H5197 C5213 0.930 . S
H5198 C5214 0.931 . S
C5199 H5187 0.929 . S
C5199 C5193 1.390 . S
C5199 C5196 1.386 . S
C5200 C5195 1.490 . S
C5200 C5202 1.395 . S
C5200 C5203 1.403 . S
H5201 C5207 0.930 . S
C5202 H5188 0.930 . S
C5202 C5200 1.395 . S
C5202 C5205 1.403 . S
C5203 C5200 1.403 . S
C5203 C5204 1.524 . S
C5203 C5207 1.400 . S
C5204 H5189 0.960 . S
C5204 H5190 0.960 . S
C5204 H5191 0.960 . S
C5204 C5203 1.524 . S
C5205 C5202 1.403 . S
C5205 C5206 1.392 . S
C5205 C5209 1.495 . S
C5206 C5205 1.392 . S
C5206 C5207 1.385 . S
C5206 C5208 1.478 . S
C5207 H5201 0.930 . S
C5207 C5203 1.400 . S
C5207 C5206 1.385 . S
C5208 C5206 1.478 . S
C5208 C5210 1.381 . S
C5208 C5214 1.383 . S
C5209 C5205 1.495 . S
C5209 H5215 0.959 . S
C5209 H5216 0.961 . S
C5209 H5217 0.960 . S
C5210 C5208 1.381 . S
C5210 C5211 1.394 . S
C5210 H5218 0.930 . S
C5211 C5210 1.394 . S
C5211 C5212 1.383 . S
C5211 H5219 0.929 . S
C5212 C5211 1.383 . S
C5212 C5213 1.377 . S
C5213 H5197 0.930 . S
C5213 C5212 1.377 . S
C5213 C5214 1.379 . S
C5214 H5198 0.931 . S
C5214 C5208 1.383 . S
C5214 C5213 1.379 . S
H5215 C5209 0.959 . S
H5216 C5209 0.961 . S
H5217 C5209 0.960 . S
H5218 C5210 0.930 . S
H5219 C5211 0.929 . S
H5220 C5228 0.929 . S
H5221 C5230 0.930 . S
H5222 C5232 0.930 . S
H5223 C5235 0.929 . S
H5224 C5238 0.930 . S
H5225 C5240 0.960 . S
H5226 C5240 0.960 . S
H5227 C5240 0.960 . S
C5228 H5220 0.929 . S
C5228 C5229 1.377 . S
C5228 C5230 1.384 . S
C5229 C5228 1.377 . S
C5229 C5235 1.390 . S
C5230 H5221 0.930 . S
C5230 C5228 1.384 . S
C5230 C5231 1.372 . S
C5231 C5230 1.372 . S
C5231 C5232 1.400 . S
C5231 C5236 1.490 . S
C5232 H5222 0.930 . S
C5232 C5231 1.400 . S
C5232 C5235 1.386 . S
H5233 C5249 0.930 . S
H5234 C5250 0.931 . S
C5235 H5223 0.929 . S
C5235 C5229 1.390 . S
C5235 C5232 1.386 . S
C5236 C5231 1.490 . S
C5236 C5238 1.395 . S
C5236 C5239 1.403 . S
H5237 C5243 0.930 . S
C5238 H5224 0.930 . S
C5238 C5236 1.395 . S
C5238 C5241 1.403 . S
C5239 C5236 1.403 . S
C5239 C5240 1.524 . S
C5239 C5243 1.400 . S
C5240 H5225 0.960 . S
C5240 H5226 0.960 . S
C5240 H5227 0.960 . S
C5240 C5239 1.524 . S
C5241 C5238 1.403 . S
C5241 C5242 1.392 . S
C5241 C5245 1.495 . S
C5242 C5241 1.392 . S
C5242 C5243 1.385 . S
C5242 C5244 1.478 . S
C5243 H5237 0.930 . S
C5243 C5239 1.400 . S
C5243 C5242 1.385 . S
C5244 C5242 1.478 . S
C5244 C5246 1.381 . S
C5244 C5250 1.383 . S
C5245 C5241 1.495 . S
C5245 H5251 0.959 . S
C5245 H5252 0.961 . S
C5245 H5253 0.960 . S
C5246 C5244 1.381 . S
C5246 C5247 1.394 . S
C5246 H5254 0.930 . S
C5247 C5246 1.394 . S
C5247 C5248 1.383 . S
C5247 H5255 0.929 . S
C5248 C5247 1.383 . S
C5248 C5249 1.377 . S
C5249 H5233 0.930 . S
C5249 C5248 1.377 . S
C5249 C5250 1.379 . S
C5250 H5234 0.931 . S
C5250 C5244 1.383 . S
C5250 C5249 1.379 . S
H5251 C5245 0.959 . S
H5252 C5245 0.961 . S
H5253 C5245 0.960 . S
H5254 C5246 0.930 . S
H5255 C5247 0.929 . S
H5256 C5264 0.929 . S
H5257 C5266 0.930 . S
H5258 C5268 0.930 . S
H5259 C5271 0.929 . S
H5260 C5274 0.930 . S
H5261 C5276 0.960 . S
H5262 C5276 0.960 . S
H5263 C5276 0.960 . S
C5264 H5256 0.929 . S
C5264 C5265 1.377 1_655 S
C5264 C5266 1.384 . S
C5265 C5264 1.377 1_455 S
C5265 C5271 1.390 . S
C5266 H5257 0.930 . S
C5266 C5264 1.384 . S
C5266 C5267 1.372 1_655 S
C5267 C5266 1.372 1_455 S
C5267 C5268 1.400 . S
C5267 C5272 1.490 . S
C5268 H5258 0.930 . S
C5268 C5267 1.400 . S
C5268 C5271 1.386 . S
H5269 C5285 0.930 . S
H5270 C5286 0.931 1_556 S
C5271 H5259 0.929 . S
C5271 C5265 1.390 . S
C5271 C5268 1.386 . S
C5272 C5267 1.490 . S
C5272 C5274 1.395 1_556 S
C5272 C5275 1.403 . S
H5273 C5279 0.930 . S
C5274 H5260 0.930 . S
C5274 C5272 1.395 1_554 S
C5274 C5277 1.403 . S
C5275 C5272 1.403 . S
C5275 C5276 1.524 . S
C5275 C5279 1.400 . S
C5276 H5261 0.960 . S
C5276 H5262 0.960 . S
C5276 H5263 0.960 . S
C5276 C5275 1.524 . S
C5277 C5274 1.403 . S
C5277 C5278 1.392 . S
C5277 C5281 1.495 . S
C5278 C5277 1.392 . S
C5278 C5279 1.385 1_554 S
C5278 C5280 1.478 . S
C5279 H5273 0.930 . S
C5279 C5275 1.400 . S
C5279 C5278 1.385 1_556 S
C5280 C5278 1.478 . S
C5280 C5282 1.381 . S
C5280 C5286 1.383 . S
C5281 C5277 1.495 . S
C5281 H5287 0.959 . S
C5281 H5288 0.961 . S
C5281 H5289 0.960 . S
C5282 C5280 1.381 . S
C5282 C5283 1.394 . S
C5282 H5290 0.930 1_455 S
C5283 C5282 1.394 . S
C5283 C5284 1.383 . S
C5283 H5291 0.929 1_455 S
C5284 C5283 1.383 . S
C5284 C5285 1.377 . S
C5285 H5269 0.930 . S
C5285 C5284 1.377 . S
C5285 C5286 1.379 . S
C5286 H5270 0.931 1_554 S
C5286 C5280 1.383 . S
C5286 C5285 1.379 . S
H5287 C5281 0.959 . S
H5288 C5281 0.961 . S
H5289 C5281 0.960 . S
H5290 C5282 0.930 1_655 S
H5291 C5283 0.929 1_655 S
H5292 C5300 0.929 . S
H5293 C5302 0.930 . S
H5294 C5304 0.930 . S
H5295 C5307 0.929 . S
H5296 C5310 0.930 . S
H5297 C5312 0.960 . S
H5298 C5312 0.960 . S
H5299 C5312 0.960 . S
C5300 H5292 0.929 . S
C5300 C5301 1.377 . S
C5300 C5302 1.384 . S
C5301 C5300 1.377 . S
C5301 C5307 1.390 . S
C5302 H5293 0.930 . S
C5302 C5300 1.384 . S
C5302 C5303 1.372 . S
C5303 C5302 1.372 . S
C5303 C5304 1.400 . S
C5303 C5308 1.490 . S
C5304 H5294 0.930 . S
C5304 C5303 1.400 . S
C5304 C5307 1.386 . S
H5305 C5321 0.930 . S
H5306 C5322 0.931 . S
C5307 H5295 0.929 . S
C5307 C5301 1.390 . S
C5307 C5304 1.386 . S
C5308 C5303 1.490 . S
C5308 C5310 1.395 . S
C5308 C5311 1.403 . S
H5309 C5315 0.930 . S
C5310 H5296 0.930 . S
C5310 C5308 1.395 . S
C5310 C5313 1.403 . S
C5311 C5308 1.403 . S
C5311 C5312 1.524 . S
C5311 C5315 1.400 . S
C5312 H5297 0.960 . S
C5312 H5298 0.960 . S
C5312 H5299 0.960 . S
C5312 C5311 1.524 . S
C5313 C5310 1.403 . S
C5313 C5314 1.392 . S
C5313 C5317 1.495 . S
C5314 C5313 1.392 . S
C5314 C5315 1.385 . S
C5314 C5316 1.478 . S
C5315 H5309 0.930 . S
C5315 C5311 1.400 . S
C5315 C5314 1.385 . S
C5316 C5314 1.478 . S
C5316 C5318 1.381 . S
C5316 C5322 1.383 . S
C5317 C5313 1.495 . S
C5317 H5323 0.959 . S
C5317 H5324 0.961 . S
C5317 H5325 0.960 . S
C5318 C5316 1.381 . S
C5318 C5319 1.394 . S
C5318 H5326 0.930 . S
C5319 C5318 1.394 . S
C5319 C5320 1.383 . S
C5319 H5327 0.929 . S
C5320 C5319 1.383 . S
C5320 C5321 1.377 . S
C5321 H5305 0.930 . S
C5321 C5320 1.377 . S
C5321 C5322 1.379 . S
C5322 H5306 0.931 . S
C5322 C5316 1.383 . S
C5322 C5321 1.379 . S
H5323 C5317 0.959 . S
H5324 C5317 0.961 . S
H5325 C5317 0.960 . S
H5326 C5318 0.930 . S
H5327 C5319 0.929 . S
H5328 C5336 0.929 . S
H5329 C5338 0.930 . S
H5330 C5340 0.930 . S
H5331 C5343 0.929 . S
H5332 C5346 0.930 . S
H5333 C5348 0.960 . S
H5334 C5348 0.960 . S
H5335 C5348 0.960 . S
C5336 H5328 0.929 . S
C5336 C5337 1.377 . S
C5336 C5338 1.384 . S
C5337 C5336 1.377 . S
C5337 C5343 1.390 . S
C5338 H5329 0.930 . S
C5338 C5336 1.384 . S
C5338 C5339 1.372 . S
C5339 C5338 1.372 . S
C5339 C5340 1.400 . S
C5339 C5344 1.490 . S
C5340 H5330 0.930 . S
C5340 C5339 1.400 . S
C5340 C5343 1.386 . S
H5341 C5357 0.930 . S
H5342 C5358 0.931 . S
C5343 H5331 0.929 . S
C5343 C5337 1.390 . S
C5343 C5340 1.386 . S
C5344 C5339 1.490 . S
C5344 C5346 1.395 . S
C5344 C5347 1.403 . S
H5345 C5351 0.930 . S
C5346 H5332 0.930 . S
C5346 C5344 1.395 . S
C5346 C5349 1.403 . S
C5347 C5344 1.403 . S
C5347 C5348 1.524 . S
C5347 C5351 1.400 . S
C5348 H5333 0.960 . S
C5348 H5334 0.960 . S
C5348 H5335 0.960 . S
C5348 C5347 1.524 . S
C5349 C5346 1.403 . S
C5349 C5350 1.392 . S
C5349 C5353 1.495 . S
C5350 C5349 1.392 . S
C5350 C5351 1.385 . S
C5350 C5352 1.478 . S
C5351 H5345 0.930 . S
C5351 C5347 1.400 . S
C5351 C5350 1.385 . S
C5352 C5350 1.478 . S
C5352 C5354 1.381 . S
C5352 C5358 1.383 . S
C5353 C5349 1.495 . S
C5353 H5359 0.959 . S
C5353 H5360 0.961 . S
C5353 H5361 0.960 . S
C5354 C5352 1.381 . S
C5354 C5355 1.394 . S
C5354 H5362 0.930 . S
C5355 C5354 1.394 . S
C5355 C5356 1.383 . S
C5355 H5363 0.929 . S
C5356 C5355 1.383 . S
C5356 C5357 1.377 . S
C5357 H5341 0.930 . S
C5357 C5356 1.377 . S
C5357 C5358 1.379 . S
C5358 H5342 0.931 . S
C5358 C5352 1.383 . S
C5358 C5357 1.379 . S
H5359 C5353 0.959 . S
H5360 C5353 0.961 . S
H5361 C5353 0.960 . S
H5362 C5354 0.930 . S
H5363 C5355 0.929 . S
H5364 C5372 0.929 . S
H5365 C5374 0.930 . S
H5366 C5376 0.930 . S
H5367 C5379 0.929 . S
H5368 C5382 0.930 . S
H5369 C5384 0.960 . S
H5370 C5384 0.960 . S
H5371 C5384 0.960 . S
C5372 H5364 0.929 . S
C5372 C5373 1.377 . S
C5372 C5374 1.384 . S
C5373 C5372 1.377 . S
C5373 C5379 1.390 . S
C5374 H5365 0.930 . S
C5374 C5372 1.384 . S
C5374 C5375 1.372 . S
C5375 C5374 1.372 . S
C5375 C5376 1.400 . S
C5375 C5380 1.490 . S
C5376 H5366 0.930 . S
C5376 C5375 1.400 . S
C5376 C5379 1.386 . S
H5377 C5393 0.930 . S
H5378 C5394 0.931 . S
C5379 H5367 0.929 . S
C5379 C5373 1.390 . S
C5379 C5376 1.386 . S
C5380 C5375 1.490 . S
C5380 C5382 1.395 . S
C5380 C5383 1.403 . S
H5381 C5387 0.930 . S
C5382 H5368 0.930 . S
C5382 C5380 1.395 . S
C5382 C5385 1.403 . S
C5383 C5380 1.403 . S
C5383 C5384 1.524 . S
C5383 C5387 1.400 . S
C5384 H5369 0.960 . S
C5384 H5370 0.960 . S
C5384 H5371 0.960 . S
C5384 C5383 1.524 . S
C5385 C5382 1.403 . S
C5385 C5386 1.392 . S
C5385 C5389 1.495 . S
C5386 C5385 1.392 . S
C5386 C5387 1.385 . S
C5386 C5388 1.478 . S
C5387 H5381 0.930 . S
C5387 C5383 1.400 . S
C5387 C5386 1.385 . S
C5388 C5386 1.478 . S
C5388 C5390 1.381 . S
C5388 C5394 1.383 . S
C5389 C5385 1.495 . S
C5389 H5395 0.959 . S
C5389 H5396 0.961 . S
C5389 H5397 0.960 . S
C5390 C5388 1.381 . S
C5390 C5391 1.394 . S
C5390 H5398 0.930 . S
C5391 C5390 1.394 . S
C5391 C5392 1.383 . S
C5391 H5399 0.929 . S
C5392 C5391 1.383 . S
C5392 C5393 1.377 . S
C5393 H5377 0.930 . S
C5393 C5392 1.377 . S
C5393 C5394 1.379 . S
C5394 H5378 0.931 . S
C5394 C5388 1.383 . S
C5394 C5393 1.379 . S
H5395 C5389 0.959 . S
H5396 C5389 0.961 . S
H5397 C5389 0.960 . S
H5398 C5390 0.930 . S
H5399 C5391 0.929 . S
H5400 C5408 0.929 . S
H5401 C5410 0.930 . S
H5402 C5412 0.930 . S
H5403 C5415 0.929 . S
H5404 C5418 0.930 . S
H5405 C5420 0.960 . S
H5406 C5420 0.960 1_655 S
H5407 C5420 0.960 . S
C5408 H5400 0.929 . S
C5408 C5409 1.377 1_655 S
C5408 C5410 1.384 . S
C5409 C5408 1.377 1_455 S
C5409 C5415 1.390 . S
C5410 H5401 0.930 . S
C5410 C5408 1.384 . S
C5410 C5411 1.372 1_655 S
C5411 C5410 1.372 1_455 S
C5411 C5412 1.400 . S
C5411 C5416 1.490 . S
C5412 H5402 0.930 . S
C5412 C5411 1.400 . S
C5412 C5415 1.386 . S
H5413 C5429 0.930 . S
H5414 C5430 0.931 . S
C5415 H5403 0.929 . S
C5415 C5409 1.390 . S
C5415 C5412 1.386 . S
C5416 C5411 1.490 . S
C5416 C5418 1.395 . S
C5416 C5419 1.403 . S
H5417 C5423 0.930 . S
C5418 H5404 0.930 . S
C5418 C5416 1.395 . S
C5418 C5421 1.403 . S
C5419 C5416 1.403 . S
C5419 C5420 1.524 . S
C5419 C5423 1.400 . S
C5420 H5405 0.960 . S
C5420 H5406 0.960 1_455 S
C5420 H5407 0.960 . S
C5420 C5419 1.524 . S
C5421 C5418 1.403 . S
C5421 C5422 1.392 . S
C5421 C5425 1.495 . S
C5422 C5421 1.392 . S
C5422 C5423 1.385 . S
C5422 C5424 1.478 . S
C5423 H5417 0.930 . S
C5423 C5419 1.400 . S
C5423 C5422 1.385 . S
C5424 C5422 1.478 . S
C5424 C5426 1.378 . S
C5424 C5430 1.383 . S
C5425 C5421 1.495 . S
C5425 H5431 0.959 . S
C5425 H5432 0.961 . S
C5425 H5433 0.960 . S
C5426 C5424 1.378 . S
C5426 C5427 1.393 . S
C5426 H5434 0.935 1_455 S
C5427 C5426 1.393 . S
C5427 C5428 1.383 . S
C5427 H5435 0.929 1_455 S
C5428 C5427 1.383 . S
C5428 C5429 1.377 . S
C5429 H5413 0.930 . S
C5429 C5428 1.377 . S
C5429 C5430 1.379 . S
C5430 H5414 0.931 . S
C5430 C5424 1.383 . S
C5430 C5429 1.379 . S
H5431 C5425 0.959 . S
H5432 C5425 0.961 . S
H5433 C5425 0.960 . S
H5434 C5426 0.935 1_655 S
H5435 C5427 0.929 1_655 S
H5436 C5444 0.929 . S
H5437 C5446 0.930 . S
H5438 C5448 0.930 . S
H5439 C5451 0.929 . S
H5440 C5454 0.930 . S
H5441 C5456 0.960 . S
H5442 C5456 0.960 . S
H5443 C5456 0.960 . S
C5444 H5436 0.929 . S
C5444 C5445 1.377 . S
C5444 C5446 1.384 . S
C5445 C5444 1.377 . S
C5445 C5451 1.390 . S
C5446 H5437 0.930 . S
C5446 C5444 1.384 . S
C5446 C5447 1.372 . S
C5447 C5446 1.372 . S
C5447 C5448 1.400 . S
C5447 C5452 1.490 . S
C5448 H5438 0.930 . S
C5448 C5447 1.400 . S
C5448 C5451 1.386 . S
H5449 C5465 0.930 . S
H5450 C5466 0.931 . S
C5451 H5439 0.929 . S
C5451 C5445 1.390 . S
C5451 C5448 1.386 . S
C5452 C5447 1.490 . S
C5452 C5454 1.395 . S
C5452 C5455 1.403 . S
H5453 C5459 0.930 . S
C5454 H5440 0.930 . S
C5454 C5452 1.395 . S
C5454 C5457 1.403 . S
C5455 C5452 1.403 . S
C5455 C5456 1.524 . S
C5455 C5459 1.400 . S
C5456 H5441 0.960 . S
C5456 H5442 0.960 . S
C5456 H5443 0.960 . S
C5456 C5455 1.524 . S
C5457 C5454 1.403 . S
C5457 C5458 1.392 . S
C5457 C5461 1.495 . S
C5458 C5457 1.392 . S
C5458 C5459 1.385 . S
C5458 C5460 1.478 . S
C5459 H5453 0.930 . S
C5459 C5455 1.400 . S
C5459 C5458 1.385 . S
C5460 C5458 1.478 . S
C5460 C5462 1.381 . S
C5460 C5466 1.383 . S
C5461 C5457 1.495 . S
C5461 H5467 0.959 . S
C5461 H5468 0.961 . S
C5461 H5469 0.960 . S
C5462 C5460 1.381 . S
C5462 C5463 1.394 . S
C5462 H5470 0.930 . S
C5463 C5462 1.394 . S
C5463 C5464 1.383 . S
C5463 H5471 0.929 . S
C5464 C5463 1.383 . S
C5464 C5465 1.377 . S
C5465 H5449 0.930 . S
C5465 C5464 1.377 . S
C5465 C5466 1.379 . S
C5466 H5450 0.931 . S
C5466 C5460 1.383 . S
C5466 C5465 1.379 . S
H5467 C5461 0.959 . S
H5468 C5461 0.961 . S
H5469 C5461 0.960 . S
H5470 C5462 0.930 . S
H5471 C5463 0.929 . S
H5472 C5480 0.929 . S
H5473 C5482 0.930 . S
H5474 C5484 0.930 . S
H5475 C5487 0.929 . S
H5476 C5490 0.930 . S
H5477 C5492 0.960 . S
H5478 C5492 0.960 . S
H5479 C5492 0.960 . S
C5480 H5472 0.929 . S
C5480 C5481 1.377 . S
C5480 C5482 1.384 . S
C5481 C5480 1.377 . S
C5481 C5487 1.390 . S
C5482 H5473 0.930 . S
C5482 C5480 1.384 . S
C5482 C5483 1.372 . S
C5483 C5482 1.372 . S
C5483 C5484 1.400 . S
C5483 C5488 1.490 . S
C5484 H5474 0.930 . S
C5484 C5483 1.400 . S
C5484 C5487 1.386 . S
H5485 C5501 0.930 . S
H5486 C5502 0.931 . S
C5487 H5475 0.929 . S
C5487 C5481 1.390 . S
C5487 C5484 1.386 . S
C5488 C5483 1.490 . S
C5488 C5490 1.395 . S
C5488 C5491 1.403 . S
H5489 C5495 0.930 . S
C5490 H5476 0.930 . S
C5490 C5488 1.395 . S
C5490 C5493 1.403 . S
C5491 C5488 1.403 . S
C5491 C5492 1.524 . S
C5491 C5495 1.400 . S
C5492 H5477 0.960 . S
C5492 H5478 0.960 . S
C5492 H5479 0.960 . S
C5492 C5491 1.524 . S
C5493 C5490 1.403 . S
C5493 C5494 1.392 . S
C5493 C5497 1.495 . S
C5494 C5493 1.392 . S
C5494 C5495 1.385 . S
C5494 C5496 1.478 . S
C5495 H5489 0.930 . S
C5495 C5491 1.400 . S
C5495 C5494 1.385 . S
C5496 C5494 1.478 . S
C5496 C5498 1.381 . S
C5496 C5502 1.383 . S
C5497 C5493 1.495 . S
C5497 H5503 0.959 . S
C5497 H5504 0.961 . S
C5497 H5505 0.960 . S
C5498 C5496 1.381 . S
C5498 C5499 1.394 . S
C5498 H5506 0.930 . S
C5499 C5498 1.394 . S
C5499 C5500 1.383 . S
C5499 H5507 0.929 . S
C5500 C5499 1.383 . S
C5500 C5501 1.377 . S
C5501 H5485 0.930 . S
C5501 C5500 1.377 . S
C5501 C5502 1.379 . S
C5502 H5486 0.931 . S
C5502 C5496 1.383 . S
C5502 C5501 1.379 . S
H5503 C5497 0.959 . S
H5504 C5497 0.961 . S
H5505 C5497 0.960 . S
H5506 C5498 0.930 . S
H5507 C5499 0.929 . S
H5508 C5516 0.929 . S
H5509 C5518 0.930 . S
H5510 C5520 0.930 . S
H5511 C5523 0.929 . S
H5512 C5526 0.930 . S
H5513 C5528 0.960 . S
H5514 C5528 0.960 . S
H5515 C5528 0.960 . S
C5516 H5508 0.929 . S
C5516 C5517 1.377 . S
C5516 C5518 1.384 . S
C5517 C5516 1.377 . S
C5517 C5523 1.390 . S
C5518 H5509 0.930 . S
C5518 C5516 1.384 . S
C5518 C5519 1.372 . S
C5519 C5518 1.372 . S
C5519 C5520 1.400 . S
C5519 C5524 1.490 . S
C5520 H5510 0.930 . S
C5520 C5519 1.400 . S
C5520 C5523 1.386 . S
H5521 C5537 0.930 . S
H5522 C5538 0.931 . S
C5523 H5511 0.929 . S
C5523 C5517 1.390 . S
C5523 C5520 1.386 . S
C5524 C5519 1.490 . S
C5524 C5526 1.395 . S
C5524 C5527 1.403 . S
H5525 C5531 0.930 . S
C5526 H5512 0.930 . S
C5526 C5524 1.395 . S
C5526 C5529 1.403 . S
C5527 C5524 1.403 . S
C5527 C5528 1.524 . S
C5527 C5531 1.400 . S
C5528 H5513 0.960 . S
C5528 H5514 0.960 . S
C5528 H5515 0.960 . S
C5528 C5527 1.524 . S
C5529 C5526 1.403 . S
C5529 C5530 1.392 . S
C5529 C5533 1.495 . S
C5530 C5529 1.392 . S
C5530 C5531 1.385 . S
C5530 C5532 1.478 . S
C5531 H5525 0.930 . S
C5531 C5527 1.400 . S
C5531 C5530 1.385 . S
C5532 C5530 1.478 . S
C5532 C5534 1.381 . S
C5532 C5538 1.383 . S
C5533 C5529 1.495 . S
C5533 H5539 0.959 . S
C5533 H5540 0.961 . S
C5533 H5541 0.960 . S
C5534 C5532 1.381 . S
C5534 C5535 1.394 . S
C5534 H5542 0.930 . S
C5535 C5534 1.394 . S
C5535 C5536 1.383 . S
C5535 H5543 0.929 . S
C5536 C5535 1.383 . S
C5536 C5537 1.377 . S
C5537 H5521 0.930 . S
C5537 C5536 1.377 . S
C5537 C5538 1.379 . S
C5538 H5522 0.931 . S
C5538 C5532 1.383 . S
C5538 C5537 1.379 . S
H5539 C5533 0.959 . S
H5540 C5533 0.961 . S
H5541 C5533 0.960 . S
H5542 C5534 0.930 . S
H5543 C5535 0.929 . S
H5544 C5552 0.929 . S
H5545 C5554 0.930 . S
H5546 C5556 0.930 . S
H5547 C5559 0.929 . S
H5548 C5562 0.930 . S
H5549 C5564 0.960 . S
H5550 C5564 0.960 . S
H5551 C5564 0.960 . S
C5552 H5544 0.929 . S
C5552 C5553 1.377 . S
C5552 C5554 1.384 . S
C5553 C5552 1.377 . S
C5553 C5559 1.390 . S
C5554 H5545 0.930 . S
C5554 C5552 1.384 . S
C5554 C5555 1.372 . S
C5555 C5554 1.372 . S
C5555 C5556 1.400 . S
C5555 C5560 1.490 . S
C5556 H5546 0.930 . S
C5556 C5555 1.400 . S
C5556 C5559 1.386 . S
H5557 C5573 0.930 . S
H5558 C5574 0.931 . S
C5559 H5547 0.929 . S
C5559 C5553 1.390 . S
C5559 C5556 1.386 . S
C5560 C5555 1.490 . S
C5560 C5562 1.395 . S
C5560 C5563 1.403 . S
H5561 C5567 0.930 . S
C5562 H5548 0.930 . S
C5562 C5560 1.395 . S
C5562 C5565 1.403 . S
C5563 C5560 1.403 . S
C5563 C5564 1.524 . S
C5563 C5567 1.400 . S
C5564 H5549 0.960 . S
C5564 H5550 0.960 . S
C5564 H5551 0.960 . S
C5564 C5563 1.524 . S
C5565 C5562 1.403 . S
C5565 C5566 1.392 . S
C5565 C5569 1.495 . S
C5566 C5565 1.392 . S
C5566 C5567 1.385 . S
C5566 C5568 1.478 . S
C5567 H5561 0.930 . S
C5567 C5563 1.400 . S
C5567 C5566 1.385 . S
C5568 C5566 1.478 . S
C5568 C5570 1.381 . S
C5568 C5574 1.383 . S
C5569 C5565 1.495 . S
C5569 H5575 0.959 . S
C5569 H5576 0.961 . S
C5569 H5577 0.960 . S
C5570 C5568 1.381 . S
C5570 C5571 1.394 . S
C5570 H5578 0.930 . S
C5571 C5570 1.394 . S
C5571 C5572 1.383 . S
C5571 H5579 0.929 . S
C5572 C5571 1.383 . S
C5572 C5573 1.377 . S
C5573 H5557 0.930 . S
C5573 C5572 1.377 . S
C5573 C5574 1.379 . S
C5574 H5558 0.931 . S
C5574 C5568 1.383 . S
C5574 C5573 1.379 . S
H5575 C5569 0.959 . S
H5576 C5569 0.961 . S
H5577 C5569 0.960 . S
H5578 C5570 0.930 . S
H5579 C5571 0.929 . S
H5580 C5588 0.929 . S
H5581 C5590 0.930 . S
H5582 C5592 0.930 . S
H5583 C5595 0.929 . S
H5584 C5598 0.930 . S
H5585 C5600 0.960 . S
H5586 C5600 0.960 . S
H5587 C5600 0.960 . S
C5588 H5580 0.929 . S
C5588 C5589 1.377 . S
C5588 C5590 1.384 . S
C5589 C5588 1.377 . S
C5589 C5595 1.390 . S
C5590 H5581 0.930 . S
C5590 C5588 1.384 . S
C5590 C5591 1.372 . S
C5591 C5590 1.372 . S
C5591 C5592 1.400 . S
C5591 C5596 1.490 . S
C5592 H5582 0.930 . S
C5592 C5591 1.400 . S
C5592 C5595 1.386 . S
H5593 C5609 0.930 . S
H5594 C5610 0.931 . S
C5595 H5583 0.929 . S
C5595 C5589 1.390 . S
C5595 C5592 1.386 . S
C5596 C5591 1.490 . S
C5596 C5598 1.395 . S
C5596 C5599 1.403 . S
H5597 C5603 0.930 . S
C5598 H5584 0.930 . S
C5598 C5596 1.395 . S
C5598 C5601 1.403 . S
C5599 C5596 1.403 . S
C5599 C5600 1.524 . S
C5599 C5603 1.400 . S
C5600 H5585 0.960 . S
C5600 H5586 0.960 . S
C5600 H5587 0.960 . S
C5600 C5599 1.524 . S
C5601 C5598 1.403 . S
C5601 C5602 1.392 . S
C5601 C5605 1.495 . S
C5602 C5601 1.392 . S
C5602 C5603 1.385 . S
C5602 C5604 1.478 . S
C5603 H5597 0.930 . S
C5603 C5599 1.400 . S
C5603 C5602 1.385 . S
C5604 C5602 1.478 . S
C5604 C5606 1.381 . S
C5604 C5610 1.383 . S
C5605 C5601 1.495 . S
C5605 H5611 0.959 . S
C5605 H5612 0.961 . S
C5605 H5613 0.960 . S
C5606 C5604 1.381 . S
C5606 C5607 1.394 . S
C5606 H5614 0.930 . S
C5607 C5606 1.394 . S
C5607 C5608 1.383 . S
C5607 H5615 0.929 . S
C5608 C5607 1.383 . S
C5608 C5609 1.377 . S
C5609 H5593 0.930 . S
C5609 C5608 1.377 . S
C5609 C5610 1.379 . S
C5610 H5594 0.931 . S
C5610 C5604 1.383 . S
C5610 C5609 1.379 . S
H5611 C5605 0.959 . S
H5612 C5605 0.961 . S
H5613 C5605 0.960 . S
H5614 C5606 0.930 . S
H5615 C5607 0.929 . S
H5616 C5624 0.929 . S
H5617 C5626 0.930 . S
H5618 C5628 0.930 . S
H5619 C5631 0.929 . S
H5620 C5634 0.930 . S
H5621 C5636 0.960 . S
H5622 C5636 0.960 . S
H5623 C5636 0.960 . S
C5624 H5616 0.929 . S
C5624 C5625 1.377 . S
C5624 C5626 1.384 . S
C5625 C5624 1.377 . S
C5625 C5631 1.390 . S
C5626 H5617 0.930 . S
C5626 C5624 1.384 . S
C5626 C5627 1.372 . S
C5627 C5626 1.372 . S
C5627 C5628 1.400 . S
C5627 C5632 1.490 . S
C5628 H5618 0.930 . S
C5628 C5627 1.400 . S
C5628 C5631 1.386 . S
H5629 C5645 0.930 . S
H5630 C5646 0.931 . S
C5631 H5619 0.929 . S
C5631 C5625 1.390 . S
C5631 C5628 1.386 . S
C5632 C5627 1.490 . S
C5632 C5634 1.395 . S
C5632 C5635 1.403 . S
H5633 C5639 0.930 . S
C5634 H5620 0.930 . S
C5634 C5632 1.395 . S
C5634 C5637 1.403 . S
C5635 C5632 1.403 . S
C5635 C5636 1.524 . S
C5635 C5639 1.400 . S
C5636 H5621 0.960 . S
C5636 H5622 0.960 . S
C5636 H5623 0.960 . S
C5636 C5635 1.524 . S
C5637 C5634 1.403 . S
C5637 C5638 1.392 . S
C5637 C5641 1.495 . S
C5638 C5637 1.392 . S
C5638 C5639 1.385 . S
C5638 C5640 1.478 . S
C5639 H5633 0.930 . S
C5639 C5635 1.400 . S
C5639 C5638 1.385 . S
C5640 C5638 1.478 . S
C5640 C5642 1.381 . S
C5640 C5646 1.383 . S
C5641 C5637 1.495 . S
C5641 H5647 0.959 . S
C5641 H5648 0.961 . S
C5641 H5649 0.960 . S
C5642 C5640 1.381 . S
C5642 C5643 1.394 . S
C5642 H5650 0.930 . S
C5643 C5642 1.394 . S
C5643 C5644 1.383 . S
C5643 H5651 0.929 . S
C5644 C5643 1.383 . S
C5644 C5645 1.377 . S
C5645 H5629 0.930 . S
C5645 C5644 1.377 . S
C5645 C5646 1.379 . S
C5646 H5630 0.931 . S
C5646 C5640 1.383 . S
C5646 C5645 1.379 . S
H5647 C5641 0.959 . S
H5648 C5641 0.961 . S
H5649 C5641 0.960 . S
H5650 C5642 0.930 . S
H5651 C5643 0.929 . S
H5652 C5660 0.929 . S
H5653 C5662 0.930 . S
H5654 C5664 0.930 . S
H5655 C5667 0.929 . S
H5656 C5670 0.930 . S
H5657 C5672 0.960 . S
H5658 C5672 0.960 . S
H5659 C5672 0.960 . S
C5660 H5652 0.929 . S
C5660 C5661 1.377 . S
C5660 C5662 1.384 . S
C5661 C5660 1.377 . S
C5661 C5667 1.390 . S
C5662 H5653 0.930 . S
C5662 C5660 1.384 . S
C5662 C5663 1.372 . S
C5663 C5662 1.372 . S
C5663 C5664 1.400 . S
C5663 C5668 1.490 . S
C5664 H5654 0.930 . S
C5664 C5663 1.400 . S
C5664 C5667 1.386 . S
H5665 C5681 0.930 . S
H5666 C5682 0.931 . S
C5667 H5655 0.929 . S
C5667 C5661 1.390 . S
C5667 C5664 1.386 . S
C5668 C5663 1.490 . S
C5668 C5670 1.395 . S
C5668 C5671 1.403 . S
H5669 C5675 0.930 . S
C5670 H5656 0.930 . S
C5670 C5668 1.395 . S
C5670 C5673 1.403 . S
C5671 C5668 1.403 . S
C5671 C5672 1.524 . S
C5671 C5675 1.400 . S
C5672 H5657 0.960 . S
C5672 H5658 0.960 . S
C5672 H5659 0.960 . S
C5672 C5671 1.524 . S
C5673 C5670 1.403 . S
C5673 C5674 1.392 . S
C5673 C5677 1.495 . S
C5674 C5673 1.392 . S
C5674 C5675 1.385 . S
C5674 C5676 1.478 . S
C5675 H5669 0.930 . S
C5675 C5671 1.400 . S
C5675 C5674 1.385 . S
C5676 C5674 1.478 . S
C5676 C5678 1.381 . S
C5676 C5682 1.383 . S
C5677 C5673 1.495 . S
C5677 H5683 0.959 . S
C5677 H5684 0.961 . S
C5677 H5685 0.960 . S
C5678 C5676 1.381 . S
C5678 C5679 1.394 . S
C5678 H5686 0.930 . S
C5679 C5678 1.394 . S
C5679 C5680 1.383 . S
C5679 H5687 0.929 . S
C5680 C5679 1.383 . S
C5680 C5681 1.377 . S
C5681 H5665 0.930 . S
C5681 C5680 1.377 . S
C5681 C5682 1.379 . S
C5682 H5666 0.931 . S
C5682 C5676 1.383 . S
C5682 C5681 1.379 . S
H5683 C5677 0.959 . S
H5684 C5677 0.961 . S
H5685 C5677 0.960 . S
H5686 C5678 0.930 . S
H5687 C5679 0.929 . S
H5688 C5696 0.929 . S
H5689 C5698 0.930 . S
H5690 C5700 0.930 . S
H5691 C5703 0.929 . S
H5692 C5706 0.930 . S
H5693 C5708 0.960 . S
H5694 C5708 0.960 . S
H5695 C5708 0.960 . S
C5696 H5688 0.929 . S
C5696 C5697 1.377 . S
C5696 C5698 1.384 . S
C5697 C5696 1.377 . S
C5697 C5703 1.390 . S
C5698 H5689 0.930 . S
C5698 C5696 1.384 . S
C5698 C5699 1.372 . S
C5699 C5698 1.372 . S
C5699 C5700 1.400 . S
C5699 C5704 1.490 . S
C5700 H5690 0.930 . S
C5700 C5699 1.400 . S
C5700 C5703 1.386 . S
H5701 C5717 0.930 . S
H5702 C5718 0.931 . S
C5703 H5691 0.929 . S
C5703 C5697 1.390 . S
C5703 C5700 1.386 . S
C5704 C5699 1.490 . S
C5704 C5706 1.395 . S
C5704 C5707 1.403 . S
H5705 C5711 0.930 . S
C5706 H5692 0.930 . S
C5706 C5704 1.395 . S
C5706 C5709 1.403 . S
C5707 C5704 1.403 . S
C5707 C5708 1.524 . S
C5707 C5711 1.400 . S
C5708 H5693 0.960 . S
C5708 H5694 0.960 . S
C5708 H5695 0.960 . S
C5708 C5707 1.524 . S
C5709 C5706 1.403 . S
C5709 C5710 1.392 . S
C5709 C5713 1.495 . S
C5710 C5709 1.392 . S
C5710 C5711 1.385 . S
C5710 C5712 1.478 . S
C5711 H5705 0.930 . S
C5711 C5707 1.400 . S
C5711 C5710 1.385 . S
C5712 C5710 1.478 . S
C5712 C5714 1.381 . S
C5712 C5718 1.383 . S
C5713 C5709 1.495 . S
C5713 H5719 0.959 . S
C5713 H5720 0.961 . S
C5713 H5721 0.960 . S
C5714 C5712 1.381 . S
C5714 C5715 1.394 . S
C5714 H5722 0.930 . S
C5715 C5714 1.394 . S
C5715 C5716 1.383 . S
C5715 H5723 0.929 . S
C5716 C5715 1.383 . S
C5716 C5717 1.377 . S
C5717 H5701 0.930 . S
C5717 C5716 1.377 . S
C5717 C5718 1.379 . S
C5718 H5702 0.931 . S
C5718 C5712 1.383 . S
C5718 C5717 1.379 . S
H5719 C5713 0.959 . S
H5720 C5713 0.961 . S
H5721 C5713 0.960 . S
H5722 C5714 0.930 . S
H5723 C5715 0.929 . S
H5724 C5732 0.929 . S
H5725 C5734 0.930 . S
H5726 C5736 0.930 . S
H5727 C5739 0.929 . S
H5728 C5742 0.930 . S
H5729 C5744 0.960 . S
H5730 C5744 0.960 . S
H5731 C5744 0.960 . S
C5732 H5724 0.929 . S
C5732 C5733 1.377 . S
C5732 C5734 1.384 . S
C5733 C5732 1.377 . S
C5733 C5739 1.390 . S
C5734 H5725 0.930 . S
C5734 C5732 1.384 . S
C5734 C5735 1.372 . S
C5735 C5734 1.372 . S
C5735 C5736 1.400 . S
C5735 C5740 1.490 . S
C5736 H5726 0.930 . S
C5736 C5735 1.400 . S
C5736 C5739 1.386 . S
H5737 C5753 0.930 . S
H5738 C5754 0.931 . S
C5739 H5727 0.929 . S
C5739 C5733 1.390 . S
C5739 C5736 1.386 . S
C5740 C5735 1.490 . S
C5740 C5742 1.395 . S
C5740 C5743 1.403 . S
H5741 C5747 0.930 . S
C5742 H5728 0.930 . S
C5742 C5740 1.395 . S
C5742 C5745 1.403 . S
C5743 C5740 1.403 . S
C5743 C5744 1.524 . S
C5743 C5747 1.400 . S
C5744 H5729 0.960 . S
C5744 H5730 0.960 . S
C5744 H5731 0.960 . S
C5744 C5743 1.524 . S
C5745 C5742 1.403 . S
C5745 C5746 1.392 . S
C5745 C5749 1.495 . S
C5746 C5745 1.392 . S
C5746 C5747 1.385 . S
C5746 C5748 1.478 . S
C5747 H5741 0.930 . S
C5747 C5743 1.400 . S
C5747 C5746 1.385 . S
C5748 C5746 1.478 . S
C5748 C5750 1.381 . S
C5748 C5754 1.383 . S
C5749 C5745 1.495 . S
C5749 H5755 0.959 . S
C5749 H5756 0.961 . S
C5749 H5757 0.960 . S
C5750 C5748 1.381 . S
C5750 C5751 1.394 . S
C5750 H5758 0.930 . S
C5751 C5750 1.394 . S
C5751 C5752 1.383 . S
C5751 H5759 0.929 . S
C5752 C5751 1.383 . S
C5752 C5753 1.377 . S
C5753 H5737 0.930 . S
C5753 C5752 1.377 . S
C5753 C5754 1.379 . S
C5754 H5738 0.931 . S
C5754 C5748 1.383 . S
C5754 C5753 1.379 . S
H5755 C5749 0.959 . S
H5756 C5749 0.961 . S
H5757 C5749 0.960 . S
H5758 C5750 0.930 . S
H5759 C5751 0.929 . S
H5760 C5768 0.929 . S
H5761 C5770 0.930 . S
H5762 C5772 0.930 . S
H5763 C5775 0.929 . S
H5764 C5778 0.930 . S
H5765 C5780 0.960 . S
H5766 C5780 0.960 . S
H5767 C5780 0.960 . S
C5768 H5760 0.929 . S
C5768 C5769 1.377 . S
C5768 C5770 1.384 . S
C5769 C5768 1.377 . S
C5769 C5775 1.390 . S
C5770 H5761 0.930 . S
C5770 C5768 1.384 . S
C5770 C5771 1.372 . S
C5771 C5770 1.372 . S
C5771 C5772 1.400 . S
C5771 C5776 1.490 . S
C5772 H5762 0.930 . S
C5772 C5771 1.400 . S
C5772 C5775 1.386 . S
H5773 C5789 0.930 . S
H5774 C5790 0.931 . S
C5775 H5763 0.929 . S
C5775 C5769 1.390 . S
C5775 C5772 1.386 . S
C5776 C5771 1.490 . S
C5776 C5778 1.395 . S
C5776 C5779 1.403 . S
H5777 C5783 0.930 . S
C5778 H5764 0.930 . S
C5778 C5776 1.395 . S
C5778 C5781 1.403 . S
C5779 C5776 1.403 . S
C5779 C5780 1.524 . S
C5779 C5783 1.400 . S
C5780 H5765 0.960 . S
C5780 H5766 0.960 . S
C5780 H5767 0.960 . S
C5780 C5779 1.524 . S
C5781 C5778 1.403 . S
C5781 C5782 1.392 . S
C5781 C5785 1.495 . S
C5782 C5781 1.392 . S
C5782 C5783 1.385 . S
C5782 C5784 1.478 . S
C5783 H5777 0.930 . S
C5783 C5779 1.400 . S
C5783 C5782 1.385 . S
C5784 C5782 1.478 . S
C5784 C5786 1.381 . S
C5784 C5790 1.383 . S
C5785 C5781 1.495 . S
C5785 H5791 0.959 . S
C5785 H5792 0.961 . S
C5785 H5793 0.960 . S
C5786 C5784 1.381 . S
C5786 C5787 1.394 . S
C5786 H5794 0.930 . S
C5787 C5786 1.394 . S
C5787 C5788 1.383 . S
C5787 H5795 0.929 . S
C5788 C5787 1.383 . S
C5788 C5789 1.377 . S
C5789 H5773 0.930 . S
C5789 C5788 1.377 . S
C5789 C5790 1.379 . S
C5790 H5774 0.931 . S
C5790 C5784 1.383 . S
C5790 C5789 1.379 . S
H5791 C5785 0.959 . S
H5792 C5785 0.961 . S
H5793 C5785 0.960 . S
H5794 C5786 0.930 . S
H5795 C5787 0.929 . S
H5796 C5804 0.929 . S
H5797 C5806 0.930 . S
H5798 C5808 0.930 . S
H5799 C5811 0.929 . S
H5800 C5814 0.930 . S
H5801 C5816 0.960 . S
H5802 C5816 0.960 . S
H5803 C5816 0.960 . S
C5804 H5796 0.929 . S
C5804 C5805 1.377 . S
C5804 C5806 1.384 . S
C5805 C5804 1.377 . S
C5805 C5811 1.390 . S
C5806 H5797 0.930 . S
C5806 C5804 1.384 . S
C5806 C5807 1.372 . S
C5807 C5806 1.372 . S
C5807 C5808 1.400 . S
C5807 C5812 1.490 . S
C5808 H5798 0.930 . S
C5808 C5807 1.400 . S
C5808 C5811 1.386 . S
H5809 C5825 0.930 . S
H5810 C5826 0.931 . S
C5811 H5799 0.929 . S
C5811 C5805 1.390 . S
C5811 C5808 1.386 . S
C5812 C5807 1.490 . S
C5812 C5814 1.395 . S
C5812 C5815 1.403 . S
H5813 C5819 0.930 . S
C5814 H5800 0.930 . S
C5814 C5812 1.395 . S
C5814 C5817 1.403 . S
C5815 C5812 1.403 . S
C5815 C5816 1.524 . S
C5815 C5819 1.400 . S
C5816 H5801 0.960 . S
C5816 H5802 0.960 . S
C5816 H5803 0.960 . S
C5816 C5815 1.524 . S
C5817 C5814 1.403 . S
C5817 C5818 1.392 . S
C5817 C5821 1.495 . S
C5818 C5817 1.392 . S
C5818 C5819 1.385 . S
C5818 C5820 1.478 . S
C5819 H5813 0.930 . S
C5819 C5815 1.400 . S
C5819 C5818 1.385 . S
C5820 C5818 1.478 . S
C5820 C5822 1.381 . S
C5820 C5826 1.383 . S
C5821 C5817 1.495 . S
C5821 H5827 0.959 . S
C5821 H5828 0.961 . S
C5821 H5829 0.960 . S
C5822 C5820 1.381 . S
C5822 C5823 1.394 . S
C5822 H5830 0.930 . S
C5823 C5822 1.394 . S
C5823 C5824 1.383 . S
C5823 H5831 0.929 . S
C5824 C5823 1.383 . S
C5824 C5825 1.377 . S
C5825 H5809 0.930 . S
C5825 C5824 1.377 . S
C5825 C5826 1.379 . S
C5826 H5810 0.931 . S
C5826 C5820 1.383 . S
C5826 C5825 1.379 . S
H5827 C5821 0.959 . S
H5828 C5821 0.961 . S
H5829 C5821 0.960 . S
H5830 C5822 0.930 . S
H5831 C5823 0.929 . S
H5832 C5840 0.929 . S
H5833 C5842 0.930 . S
H5834 C5844 0.930 . S
H5835 C5847 0.929 . S
H5836 C5850 0.930 . S
H5837 C5852 0.960 . S
H5838 C5852 0.960 . S
H5839 C5852 0.960 . S
C5840 H5832 0.929 . S
C5840 C5841 1.377 . S
C5840 C5842 1.384 . S
C5841 C5840 1.377 . S
C5841 C5847 1.390 . S
C5842 H5833 0.930 . S
C5842 C5840 1.384 . S
C5842 C5843 1.372 . S
C5843 C5842 1.372 . S
C5843 C5844 1.400 . S
C5843 C5848 1.490 . S
C5844 H5834 0.930 . S
C5844 C5843 1.400 . S
C5844 C5847 1.386 . S
H5845 C5861 0.930 . S
H5846 C5862 0.931 . S
C5847 H5835 0.929 . S
C5847 C5841 1.390 . S
C5847 C5844 1.386 . S
C5848 C5843 1.490 . S
C5848 C5850 1.395 . S
C5848 C5851 1.403 . S
H5849 C5855 0.930 . S
C5850 H5836 0.930 . S
C5850 C5848 1.395 . S
C5850 C5853 1.403 . S
C5851 C5848 1.403 . S
C5851 C5852 1.524 . S
C5851 C5855 1.400 . S
C5852 H5837 0.960 . S
C5852 H5838 0.960 . S
C5852 H5839 0.960 . S
C5852 C5851 1.524 . S
C5853 C5850 1.403 . S
C5853 C5854 1.392 . S
C5853 C5857 1.495 . S
C5854 C5853 1.392 . S
C5854 C5855 1.385 . S
C5854 C5856 1.478 . S
C5855 H5849 0.930 . S
C5855 C5851 1.400 . S
C5855 C5854 1.385 . S
C5856 C5854 1.478 . S
C5856 C5858 1.381 . S
C5856 C5862 1.383 . S
C5857 C5853 1.495 . S
C5857 H5863 0.959 . S
C5857 H5864 0.961 . S
C5857 H5865 0.960 . S
C5858 C5856 1.381 . S
C5858 C5859 1.394 . S
C5858 H5866 0.930 . S
C5859 C5858 1.394 . S
C5859 C5860 1.383 . S
C5859 H5867 0.929 . S
C5860 C5859 1.383 . S
C5860 C5861 1.377 . S
C5861 H5845 0.930 . S
C5861 C5860 1.377 . S
C5861 C5862 1.379 . S
C5862 H5846 0.931 . S
C5862 C5856 1.383 . S
C5862 C5861 1.379 . S
H5863 C5857 0.959 . S
H5864 C5857 0.961 . S
H5865 C5857 0.960 . S
H5866 C5858 0.930 . S
H5867 C5859 0.929 . S
H5868 C5876 0.929 . S
H5869 C5878 0.930 . S
H5870 C5880 0.930 . S
H5871 C5883 0.929 . S
H5872 C5886 0.930 . S
H5873 C5888 0.960 . S
H5874 C5888 0.960 . S
H5875 C5888 0.960 . S
C5876 H5868 0.929 . S
C5876 C5877 1.377 . S
C5876 C5878 1.384 . S
C5877 C5876 1.377 . S
C5877 C5883 1.390 1_554 S
C5878 H5869 0.930 . S
C5878 C5876 1.384 . S
C5878 C5879 1.372 . S
C5879 C5878 1.372 . S
C5879 C5880 1.400 1_554 S
C5879 C5884 1.490 . S
C5880 H5870 0.930 . S
C5880 C5879 1.400 1_556 S
C5880 C5883 1.386 . S
H5881 C5897 0.927 . S
H5882 C5898 0.939 . S
C5883 H5871 0.929 . S
C5883 C5877 1.390 1_556 S
C5883 C5880 1.386 . S
C5884 C5879 1.490 . S
C5884 C5886 1.395 . S
C5884 C5887 1.403 1_554 S
H5885 C5891 0.893 1_556 S
C5886 H5872 0.930 . S
C5886 C5884 1.395 . S
C5886 C5889 1.403 . S
C5887 C5884 1.403 1_556 S
C5887 C5888 1.524 . S
C5887 C5891 1.400 1_556 S
C5888 H5873 0.960 . S
C5888 H5874 0.960 . S
C5888 H5875 0.960 . S
C5888 C5887 1.524 . S
C5889 C5886 1.403 . S
C5889 C5890 1.392 . S
C5889 C5893 1.495 . S
C5890 C5889 1.392 . S
C5890 C5891 1.422 . S
C5890 C5892 1.478 . S
C5891 H5885 0.893 1_554 S
C5891 C5887 1.400 1_554 S
C5891 C5890 1.422 . S
C5892 C5890 1.478 . S
C5892 C5894 1.381 1_565 S
C5892 C5898 1.383 . S
C5893 C5889 1.495 . S
C5893 H5899 0.959 . S
C5893 H5900 0.961 . S
C5893 H5901 0.960 . S
C5894 C5892 1.381 1_545 S
C5894 C5895 1.394 . S
C5894 H5902 0.930 . S
C5895 C5894 1.394 . S
C5895 C5896 1.383 . S
C5895 H5903 0.929 . S
C5896 C5895 1.383 . S
C5896 C5897 1.377 1_545 S
C5897 H5881 0.927 . S
C5897 C5896 1.377 1_565 S
C5897 C5898 1.379 . S
C5898 H5882 0.939 . S
C5898 C5892 1.383 . S
C5898 C5897 1.379 . S
H5899 C5893 0.959 . S
H5900 C5893 0.961 . S
H5901 C5893 0.960 . S
H5902 C5894 0.930 . S
H5903 C5895 0.929 . S
H5904 C5912 0.929 . S
H5905 C5914 0.930 . S
H5906 C5916 0.930 . S
H5907 C5919 0.929 . S
H5908 C5922 0.930 . S
H5909 C5924 0.960 . S
H5910 C5924 0.960 . S
H5911 C5924 0.960 . S
C5912 H5904 0.929 . S
C5912 C5913 1.377 . S
C5912 C5914 1.384 . S
C5913 C5912 1.377 . S
C5913 C5919 1.390 . S
C5914 H5905 0.930 . S
C5914 C5912 1.384 . S
C5914 C5915 1.372 . S
C5915 C5914 1.372 . S
C5915 C5916 1.400 . S
C5915 C5920 1.490 . S
C5916 H5906 0.930 . S
C5916 C5915 1.400 . S
C5916 C5919 1.386 . S
H5917 C5933 0.930 . S
H5918 C5934 0.931 . S
C5919 H5907 0.929 . S
C5919 C5913 1.390 . S
C5919 C5916 1.386 . S
C5920 C5915 1.490 . S
C5920 C5922 1.395 . S
C5920 C5923 1.403 . S
H5921 C5927 0.930 . S
C5922 H5908 0.930 . S
C5922 C5920 1.395 . S
C5922 C5925 1.403 . S
C5923 C5920 1.403 . S
C5923 C5924 1.524 . S
C5923 C5927 1.400 . S
C5924 H5909 0.960 . S
C5924 H5910 0.960 . S
C5924 H5911 0.960 . S
C5924 C5923 1.524 . S
C5925 C5922 1.403 . S
C5925 C5926 1.392 . S
C5925 C5929 1.495 . S
C5926 C5925 1.392 . S
C5926 C5927 1.385 . S
C5926 C5928 1.478 . S
C5927 H5921 0.930 . S
C5927 C5923 1.400 . S
C5927 C5926 1.385 . S
C5928 C5926 1.478 . S
C5928 C5930 1.381 . S
C5928 C5934 1.383 . S
C5929 C5925 1.495 . S
C5929 H5935 0.959 . S
C5929 H5936 0.961 . S
C5929 H5937 0.960 . S
C5930 C5928 1.381 . S
C5930 C5931 1.394 . S
C5930 H5938 0.930 . S
C5931 C5930 1.394 . S
C5931 C5932 1.383 . S
C5931 H5939 0.929 . S
C5932 C5931 1.383 . S
C5932 C5933 1.377 . S
C5933 H5917 0.930 . S
C5933 C5932 1.377 . S
C5933 C5934 1.379 . S
C5934 H5918 0.931 . S
C5934 C5928 1.383 . S
C5934 C5933 1.379 . S
H5935 C5929 0.959 . S
H5936 C5929 0.961 . S
H5937 C5929 0.960 . S
H5938 C5930 0.930 . S
H5939 C5931 0.929 . S
H5940 C5948 0.929 . S
H5941 C5950 0.930 . S
H5942 C5952 0.930 . S
H5943 C5955 0.929 . S
H5944 C5958 0.930 . S
H5945 C5960 0.960 1_556 S
H5946 C5960 0.960 . S
H5947 C5960 0.960 1_556 S
C5948 H5940 0.929 . S
C5948 C5949 1.377 . S
C5948 C5950 1.384 . S
C5949 C5948 1.377 . S
C5949 C5955 1.390 1_554 S
C5950 H5941 0.930 . S
C5950 C5948 1.384 . S
C5950 C5951 1.372 . S
C5951 C5950 1.372 . S
C5951 C5952 1.400 1_554 S
C5951 C5956 1.490 . S
C5952 H5942 0.930 . S
C5952 C5951 1.400 1_556 S
C5952 C5955 1.386 . S
H5953 C5969 0.930 1_556 S
H5954 C5970 0.931 1_556 S
C5955 H5943 0.929 . S
C5955 C5949 1.390 1_556 S
C5955 C5952 1.386 . S
C5956 C5951 1.490 . S
C5956 C5958 1.395 . S
C5956 C5959 1.403 . S
H5957 C5963 0.930 . S
C5958 H5944 0.930 . S
C5958 C5956 1.395 . S
C5958 C5961 1.403 . S
C5959 C5956 1.403 . S
C5959 C5960 1.524 . S
C5959 C5963 1.400 . S
C5960 H5945 0.960 1_554 S
C5960 H5946 0.960 . S
C5960 H5947 0.960 1_554 S
C5960 C5959 1.524 . S
C5961 C5958 1.403 . S
C5961 C5962 1.392 . S
C5961 C5965 1.495 . S
C5962 C5961 1.392 . S
C5962 C5963 1.385 . S
C5962 C5964 1.478 . S
C5963 H5957 0.930 . S
C5963 C5959 1.400 . S
C5963 C5962 1.385 . S
C5964 C5962 1.478 . S
C5964 C5966 1.381 . S
C5964 C5970 1.383 . S
C5965 C5961 1.495 . S
C5965 H5971 0.959 . S
C5965 H5972 0.961 . S
C5965 H5973 0.960 . S
C5966 C5964 1.381 . S
C5966 C5967 1.394 . S
C5966 H5974 0.930 . S
C5967 C5966 1.394 . S
C5967 C5968 1.383 . S
C5967 H5975 0.929 . S
C5968 C5967 1.383 . S
C5968 C5969 1.377 . S
C5969 H5953 0.930 1_554 S
C5969 C5968 1.377 . S
C5969 C5970 1.379 . S
C5970 H5954 0.931 1_554 S
C5970 C5964 1.383 . S
C5970 C5969 1.379 . S
H5971 C5965 0.959 . S
H5972 C5965 0.961 . S
H5973 C5965 0.960 . S
H5974 C5966 0.930 . S
H5975 C5967 0.929 . S
H5976 C5984 0.929 . S
H5977 C5986 0.930 . S
H5978 C5988 0.930 . S
H5979 C5991 0.929 . S
H5980 C5994 0.930 . S
H5981 C5996 0.960 . S
H5982 C5996 0.960 . S
H5983 C5996 0.960 . S
C5984 H5976 0.929 . S
C5984 C5985 1.377 . S
C5984 C5986 1.384 . S
C5985 C5984 1.377 . S
C5985 C5991 1.390 . S
C5986 H5977 0.930 . S
C5986 C5984 1.384 . S
C5986 C5987 1.372 . S
C5987 C5986 1.372 . S
C5987 C5988 1.400 . S
C5987 C5992 1.490 . S
C5988 H5978 0.930 . S
C5988 C5987 1.400 . S
C5988 C5991 1.386 . S
H5989 C6005 0.930 . S
H5990 C6006 0.931 . S
C5991 H5979 0.929 . S
C5991 C5985 1.390 . S
C5991 C5988 1.386 . S
C5992 C5987 1.490 . S
C5992 C5994 1.395 . S
C5992 C5995 1.403 . S
H5993 C5999 0.930 . S
C5994 H5980 0.930 . S
C5994 C5992 1.395 . S
C5994 C5997 1.403 . S
C5995 C5992 1.403 . S
C5995 C5996 1.524 . S
C5995 C5999 1.400 . S
C5996 H5981 0.960 . S
C5996 H5982 0.960 . S
C5996 H5983 0.960 . S
C5996 C5995 1.524 . S
C5997 C5994 1.403 . S
C5997 C5998 1.392 . S
C5997 C6001 1.495 . S
C5998 C5997 1.392 . S
C5998 C5999 1.385 . S
C5998 C6000 1.478 . S
C5999 H5993 0.930 . S
C5999 C5995 1.400 . S
C5999 C5998 1.385 . S
C6000 C5998 1.478 . S
C6000 C6002 1.381 . S
C6000 C6006 1.383 . S
C6001 C5997 1.495 . S
C6001 H6007 0.959 . S
C6001 H6008 0.961 . S
C6001 H6009 0.960 . S
C6002 C6000 1.381 . S
C6002 C6003 1.394 . S
C6002 H6010 0.930 . S
C6003 C6002 1.394 . S
C6003 C6004 1.383 . S
C6003 H6011 0.929 . S
C6004 C6003 1.383 . S
C6004 C6005 1.377 . S
C6005 H5989 0.930 . S
C6005 C6004 1.377 . S
C6005 C6006 1.379 . S
C6006 H5990 0.931 . S
C6006 C6000 1.383 . S
C6006 C6005 1.379 . S
H6007 C6001 0.959 . S
H6008 C6001 0.961 . S
H6009 C6001 0.960 . S
H6010 C6002 0.930 . S
H6011 C6003 0.929 . S
H6012 C6020 0.929 . S
H6013 C6022 0.930 . S
H6014 C6024 0.930 . S
H6015 C6027 0.929 . S
H6016 C6030 0.930 . S
H6017 C6032 0.960 . S
H6018 C6032 0.960 . S
H6019 C6032 0.960 . S
C6020 H6012 0.929 . S
C6020 C6021 1.377 . S
C6020 C6022 1.384 . S
C6021 C6020 1.377 . S
C6021 C6027 1.390 . S
C6022 H6013 0.930 . S
C6022 C6020 1.384 . S
C6022 C6023 1.372 . S
C6023 C6022 1.372 . S
C6023 C6024 1.400 . S
C6023 C6028 1.490 . S
C6024 H6014 0.930 . S
C6024 C6023 1.400 . S
C6024 C6027 1.386 . S
H6025 C6041 0.930 . S
H6026 C6042 0.931 . S
C6027 H6015 0.929 . S
C6027 C6021 1.390 . S
C6027 C6024 1.386 . S
C6028 C6023 1.490 . S
C6028 C6030 1.395 . S
C6028 C6031 1.403 . S
H6029 C6035 0.930 . S
C6030 H6016 0.930 . S
C6030 C6028 1.395 . S
C6030 C6033 1.403 . S
C6031 C6028 1.403 . S
C6031 C6032 1.524 . S
C6031 C6035 1.400 . S
C6032 H6017 0.960 . S
C6032 H6018 0.960 . S
C6032 H6019 0.960 . S
C6032 C6031 1.524 . S
C6033 C6030 1.403 . S
C6033 C6034 1.392 . S
C6033 C6037 1.495 . S
C6034 C6033 1.392 . S
C6034 C6035 1.385 . S
C6034 C6036 1.478 . S
C6035 H6029 0.930 . S
C6035 C6031 1.400 . S
C6035 C6034 1.385 . S
C6036 C6034 1.478 . S
C6036 C6038 1.381 . S
C6036 C6042 1.383 . S
C6037 C6033 1.495 . S
C6037 H6043 0.959 . S
C6037 H6044 0.961 . S
C6037 H6045 0.960 . S
C6038 C6036 1.381 . S
C6038 C6039 1.394 . S
C6038 H6046 0.930 . S
C6039 C6038 1.394 . S
C6039 C6040 1.383 . S
C6039 H6047 0.929 . S
C6040 C6039 1.383 . S
C6040 C6041 1.377 . S
C6041 H6025 0.930 . S
C6041 C6040 1.377 . S
C6041 C6042 1.379 . S
C6042 H6026 0.931 . S
C6042 C6036 1.383 . S
C6042 C6041 1.379 . S
H6043 C6037 0.959 . S
H6044 C6037 0.961 . S
H6045 C6037 0.960 . S
H6046 C6038 0.930 . S
H6047 C6039 0.929 . S
H6048 C6056 0.929 . S
H6049 C6058 0.930 . S
H6050 C6060 0.930 . S
H6051 C6063 0.929 . S
H6052 C6066 0.930 . S
H6053 C6068 0.960 . S
H6054 C6068 0.960 . S
H6055 C6068 0.960 . S
C6056 H6048 0.929 . S
C6056 C6057 1.377 . S
C6056 C6058 1.384 . S
C6057 C6056 1.377 . S
C6057 C6063 1.390 . S
C6058 H6049 0.930 . S
C6058 C6056 1.384 . S
C6058 C6059 1.372 . S
C6059 C6058 1.372 . S
C6059 C6060 1.400 . S
C6059 C6064 1.490 . S
C6060 H6050 0.930 . S
C6060 C6059 1.400 . S
C6060 C6063 1.386 . S
H6061 C6077 0.930 . S
H6062 C6078 0.931 . S
C6063 H6051 0.929 . S
C6063 C6057 1.390 . S
C6063 C6060 1.386 . S
C6064 C6059 1.490 . S
C6064 C6066 1.395 . S
C6064 C6067 1.403 . S
H6065 C6071 0.930 . S
C6066 H6052 0.930 . S
C6066 C6064 1.395 . S
C6066 C6069 1.403 . S
C6067 C6064 1.403 . S
C6067 C6068 1.524 . S
C6067 C6071 1.400 . S
C6068 H6053 0.960 . S
C6068 H6054 0.960 . S
C6068 H6055 0.960 . S
C6068 C6067 1.524 . S
C6069 C6066 1.403 . S
C6069 C6070 1.392 . S
C6069 C6073 1.495 . S
C6070 C6069 1.392 . S
C6070 C6071 1.385 . S
C6070 C6072 1.478 . S
C6071 H6065 0.930 . S
C6071 C6067 1.400 . S
C6071 C6070 1.385 . S
C6072 C6070 1.478 . S
C6072 C6074 1.381 . S
C6072 C6078 1.383 . S
C6073 C6069 1.495 . S
C6073 H6079 0.959 . S
C6073 H6080 0.961 . S
C6073 H6081 0.960 . S
C6074 C6072 1.381 . S
C6074 C6075 1.394 . S
C6074 H6082 0.930 . S
C6075 C6074 1.394 . S
C6075 C6076 1.383 . S
C6075 H6083 0.929 . S
C6076 C6075 1.383 . S
C6076 C6077 1.377 . S
C6077 H6061 0.930 . S
C6077 C6076 1.377 . S
C6077 C6078 1.379 . S
C6078 H6062 0.931 . S
C6078 C6072 1.383 . S
C6078 C6077 1.379 . S
H6079 C6073 0.959 . S
H6080 C6073 0.961 . S
H6081 C6073 0.960 . S
H6082 C6074 0.930 . S
H6083 C6075 0.929 . S
H6084 C6092 0.929 . S
H6085 C6094 0.930 . S
H6086 C6096 0.930 . S
H6087 C6099 0.929 . S
H6088 C6102 0.930 . S
H6089 C6104 0.960 . S
H6090 C6104 0.960 . S
H6091 C6104 0.960 . S
C6092 H6084 0.929 . S
C6092 C6093 1.377 . S
C6092 C6094 1.384 . S
C6093 C6092 1.377 . S
C6093 C6099 1.390 . S
C6094 H6085 0.930 . S
C6094 C6092 1.384 . S
C6094 C6095 1.372 . S
C6095 C6094 1.372 . S
C6095 C6096 1.400 . S
C6095 C6100 1.490 . S
C6096 H6086 0.930 . S
C6096 C6095 1.400 . S
C6096 C6099 1.386 . S
H6097 C6113 0.930 . S
H6098 C6114 0.931 . S
C6099 H6087 0.929 . S
C6099 C6093 1.390 . S
C6099 C6096 1.386 . S
C6100 C6095 1.490 . S
C6100 C6102 1.395 . S
C6100 C6103 1.403 . S
H6101 C6107 0.930 . S
C6102 H6088 0.930 . S
C6102 C6100 1.395 . S
C6102 C6105 1.403 . S
C6103 C6100 1.403 . S
C6103 C6104 1.524 . S
C6103 C6107 1.400 . S
C6104 H6089 0.960 . S
C6104 H6090 0.960 . S
C6104 H6091 0.960 . S
C6104 C6103 1.524 . S
C6105 C6102 1.403 . S
C6105 C6106 1.392 . S
C6105 C6109 1.495 . S
C6106 C6105 1.392 . S
C6106 C6107 1.385 . S
C6106 C6108 1.478 . S
C6107 H6101 0.930 . S
C6107 C6103 1.400 . S
C6107 C6106 1.385 . S
C6108 C6106 1.478 . S
C6108 C6110 1.381 . S
C6108 C6114 1.383 . S
C6109 C6105 1.495 . S
C6109 H6115 0.959 . S
C6109 H6116 0.961 . S
C6109 H6117 0.960 . S
C6110 C6108 1.381 . S
C6110 C6111 1.394 . S
C6110 H6118 0.930 . S
C6111 C6110 1.394 . S
C6111 C6112 1.383 . S
C6111 H6119 0.929 . S
C6112 C6111 1.383 . S
C6112 C6113 1.377 . S
C6113 H6097 0.930 . S
C6113 C6112 1.377 . S
C6113 C6114 1.379 . S
C6114 H6098 0.931 . S
C6114 C6108 1.383 . S
C6114 C6113 1.379 . S
H6115 C6109 0.959 . S
H6116 C6109 0.961 . S
H6117 C6109 0.960 . S
H6118 C6110 0.930 . S
H6119 C6111 0.929 . S
H6120 C6128 0.929 . S
H6121 C6130 0.930 . S
H6122 C6132 0.930 . S
H6123 C6135 0.929 . S
H6124 C6138 0.930 . S
H6125 C6140 0.960 . S
H6126 C6140 0.960 . S
H6127 C6140 0.960 . S
C6128 H6120 0.929 . S
C6128 C6129 1.377 . S
C6128 C6130 1.384 . S
C6129 C6128 1.377 . S
C6129 C6135 1.390 . S
C6130 H6121 0.930 . S
C6130 C6128 1.384 . S
C6130 C6131 1.372 . S
C6131 C6130 1.372 . S
C6131 C6132 1.400 . S
C6131 C6136 1.490 . S
C6132 H6122 0.930 . S
C6132 C6131 1.400 . S
C6132 C6135 1.386 . S
H6133 C6149 0.930 . S
H6134 C6150 0.931 . S
C6135 H6123 0.929 . S
C6135 C6129 1.390 . S
C6135 C6132 1.386 . S
C6136 C6131 1.490 . S
C6136 C6138 1.395 . S
C6136 C6139 1.403 . S
H6137 C6143 0.930 . S
C6138 H6124 0.930 . S
C6138 C6136 1.395 . S
C6138 C6141 1.403 . S
C6139 C6136 1.403 . S
C6139 C6140 1.524 . S
C6139 C6143 1.400 . S
C6140 H6125 0.960 . S
C6140 H6126 0.960 . S
C6140 H6127 0.960 . S
C6140 C6139 1.524 . S
C6141 C6138 1.403 . S
C6141 C6142 1.392 . S
C6141 C6145 1.495 . S
C6142 C6141 1.392 . S
C6142 C6143 1.385 . S
C6142 C6144 1.478 . S
C6143 H6137 0.930 . S
C6143 C6139 1.400 . S
C6143 C6142 1.385 . S
C6144 C6142 1.478 . S
C6144 C6146 1.381 . S
C6144 C6150 1.383 . S
C6145 C6141 1.495 . S
C6145 H6151 0.959 . S
C6145 H6152 0.961 . S
C6145 H6153 0.965 1_455 S
C6146 C6144 1.381 . S
C6146 C6147 1.394 . S
C6146 H6154 0.930 . S
C6147 C6146 1.394 . S
C6147 C6148 1.383 . S
C6147 H6155 0.929 . S
C6148 C6147 1.383 . S
C6148 C6149 1.377 . S
C6149 H6133 0.930 . S
C6149 C6148 1.377 . S
C6149 C6150 1.379 . S
C6150 H6134 0.931 . S
C6150 C6144 1.383 . S
C6150 C6149 1.379 . S
H6151 C6145 0.959 . S
H6152 C6145 0.961 . S
H6153 C6145 0.965 1_655 S
H6154 C6146 0.930 . S
H6155 C6147 0.929 . S
H6156 C6164 0.929 . S
H6157 C6166 0.930 . S
H6158 C6168 0.930 . S
H6159 C6171 0.929 . S
H6160 C6174 0.930 . S
H6161 C6176 0.960 . S
H6162 C6176 0.960 . S
H6163 C6176 0.960 . S
C6164 H6156 0.929 . S
C6164 C6165 1.377 . S
C6164 C6166 1.384 . S
C6165 C6164 1.377 . S
C6165 C6171 1.390 . S
C6166 H6157 0.930 . S
C6166 C6164 1.384 . S
C6166 C6167 1.372 . S
C6167 C6166 1.372 . S
C6167 C6168 1.400 . S
C6167 C6172 1.490 . S
C6168 H6158 0.930 . S
C6168 C6167 1.400 . S
C6168 C6171 1.386 . S
H6169 C6185 0.930 . S
H6170 C6186 0.931 . S
C6171 H6159 0.929 . S
C6171 C6165 1.390 . S
C6171 C6168 1.386 . S
C6172 C6167 1.490 . S
C6172 C6174 1.395 . S
C6172 C6175 1.403 . S
H6173 C6179 0.930 . S
C6174 H6160 0.930 . S
C6174 C6172 1.395 . S
C6174 C6177 1.403 . S
C6175 C6172 1.403 . S
C6175 C6176 1.524 . S
C6175 C6179 1.400 . S
C6176 H6161 0.960 . S
C6176 H6162 0.960 . S
C6176 H6163 0.960 . S
C6176 C6175 1.524 . S
C6177 C6174 1.403 . S
C6177 C6178 1.392 . S
C6177 C6181 1.495 . S
C6178 C6177 1.392 . S
C6178 C6179 1.385 . S
C6178 C6180 1.478 . S
C6179 H6173 0.930 . S
C6179 C6175 1.400 . S
C6179 C6178 1.385 . S
C6180 C6178 1.478 . S
C6180 C6182 1.381 . S
C6180 C6186 1.383 . S
C6181 C6177 1.495 . S
C6181 H6187 0.959 . S
C6181 H6188 0.961 . S
C6181 H6189 0.960 . S
C6182 C6180 1.381 . S
C6182 C6183 1.394 . S
C6182 H6190 0.930 . S
C6183 C6182 1.394 . S
C6183 C6184 1.383 . S
C6183 H6191 0.929 . S
C6184 C6183 1.383 . S
C6184 C6185 1.377 . S
C6185 H6169 0.930 . S
C6185 C6184 1.377 . S
C6185 C6186 1.379 . S
C6186 H6170 0.931 . S
C6186 C6180 1.383 . S
C6186 C6185 1.379 . S
H6187 C6181 0.959 . S
H6188 C6181 0.961 . S
H6189 C6181 0.960 . S
H6190 C6182 0.930 . S
H6191 C6183 0.929 . S
H6192 C6200 0.929 . S
H6193 C6202 0.930 . S
H6194 C6204 0.930 . S
H6195 C6207 0.929 . S
H6196 C6210 0.930 . S
H6197 C6212 0.960 . S
H6198 C6212 0.960 . S
H6199 C6212 0.960 . S
C6200 H6192 0.929 . S
C6200 C6201 1.377 . S
C6200 C6202 1.384 . S
C6201 C6200 1.377 . S
C6201 C6207 1.390 . S
C6202 H6193 0.930 . S
C6202 C6200 1.384 . S
C6202 C6203 1.372 . S
C6203 C6202 1.372 . S
C6203 C6204 1.400 . S
C6203 C6208 1.490 . S
C6204 H6194 0.930 . S
C6204 C6203 1.400 . S
C6204 C6207 1.386 . S
H6205 C6221 0.930 . S
H6206 C6222 0.931 . S
C6207 H6195 0.929 . S
C6207 C6201 1.390 . S
C6207 C6204 1.386 . S
C6208 C6203 1.490 . S
C6208 C6210 1.395 . S
C6208 C6211 1.403 . S
H6209 C6215 0.930 . S
C6210 H6196 0.930 . S
C6210 C6208 1.395 . S
C6210 C6213 1.403 . S
C6211 C6208 1.403 . S
C6211 C6212 1.524 . S
C6211 C6215 1.400 . S
C6212 H6197 0.960 . S
C6212 H6198 0.960 . S
C6212 H6199 0.960 . S
C6212 C6211 1.524 . S
C6213 C6210 1.403 . S
C6213 C6214 1.392 . S
C6213 C6217 1.495 . S
C6214 C6213 1.392 . S
C6214 C6215 1.385 . S
C6214 C6216 1.478 . S
C6215 H6209 0.930 . S
C6215 C6211 1.400 . S
C6215 C6214 1.385 . S
C6216 C6214 1.478 . S
C6216 C6218 1.381 . S
C6216 C6222 1.383 . S
C6217 C6213 1.495 . S
C6217 H6223 0.959 . S
C6217 H6224 0.961 . S
C6217 H6225 0.960 . S
C6218 C6216 1.381 . S
C6218 C6219 1.394 . S
C6218 H6226 0.930 . S
C6219 C6218 1.394 . S
C6219 C6220 1.383 . S
C6219 H6227 0.929 . S
C6220 C6219 1.383 . S
C6220 C6221 1.377 . S
C6221 H6205 0.930 . S
C6221 C6220 1.377 . S
C6221 C6222 1.379 . S
C6222 H6206 0.931 . S
C6222 C6216 1.383 . S
C6222 C6221 1.379 . S
H6223 C6217 0.959 . S
H6224 C6217 0.961 . S
H6225 C6217 0.960 . S
H6226 C6218 0.930 . S
H6227 C6219 0.929 . S
H6228 C6236 0.929 . S
H6229 C6238 0.930 . S
H6230 C6240 0.930 . S
H6231 C6243 0.929 . S
H6232 C6246 0.930 . S
H6233 C6248 0.960 . S
H6234 C6248 0.960 . S
H6235 C6248 0.960 . S
C6236 H6228 0.929 . S
C6236 C6237 1.377 . S
C6236 C6238 1.384 . S
C6237 C6236 1.377 . S
C6237 C6243 1.390 . S
C6238 H6229 0.930 . S
C6238 C6236 1.384 . S
C6238 C6239 1.372 . S
C6239 C6238 1.372 . S
C6239 C6240 1.400 . S
C6239 C6244 1.490 . S
C6240 H6230 0.930 . S
C6240 C6239 1.400 . S
C6240 C6243 1.386 . S
H6241 C6257 0.930 . S
H6242 C6258 0.931 . S
C6243 H6231 0.929 . S
C6243 C6237 1.390 . S
C6243 C6240 1.386 . S
C6244 C6239 1.490 . S
C6244 C6246 1.395 . S
C6244 C6247 1.403 . S
H6245 C6251 0.930 . S
C6246 H6232 0.930 . S
C6246 C6244 1.395 . S
C6246 C6249 1.403 . S
C6247 C6244 1.403 . S
C6247 C6248 1.524 . S
C6247 C6251 1.400 . S
C6248 H6233 0.960 . S
C6248 H6234 0.960 . S
C6248 H6235 0.960 . S
C6248 C6247 1.524 . S
C6249 C6246 1.403 . S
C6249 C6250 1.392 . S
C6249 C6253 1.495 . S
C6250 C6249 1.392 . S
C6250 C6251 1.385 . S
C6250 C6252 1.478 . S
C6251 H6245 0.930 . S
C6251 C6247 1.400 . S
C6251 C6250 1.385 . S
C6252 C6250 1.478 . S
C6252 C6254 1.381 . S
C6252 C6258 1.383 . S
C6253 C6249 1.495 . S
C6253 H6259 0.959 . S
C6253 H6260 0.961 . S
C6253 H6261 0.960 . S
C6254 C6252 1.381 . S
C6254 C6255 1.394 . S
C6254 H6262 0.930 . S
C6255 C6254 1.394 . S
C6255 C6256 1.383 . S
C6255 H6263 0.929 . S
C6256 C6255 1.383 . S
C6256 C6257 1.377 . S
C6257 H6241 0.930 . S
C6257 C6256 1.377 . S
C6257 C6258 1.379 . S
C6258 H6242 0.931 . S
C6258 C6252 1.383 . S
C6258 C6257 1.379 . S
H6259 C6253 0.959 . S
H6260 C6253 0.961 . S
H6261 C6253 0.960 . S
H6262 C6254 0.930 . S
H6263 C6255 0.929 . S
H6264 C6272 0.929 . S
H6265 C6274 0.930 . S
H6266 C6276 0.930 . S
H6267 C6279 0.929 . S
H6268 C6282 0.930 . S
H6269 C6284 0.960 . S
H6270 C6284 0.960 . S
H6271 C6284 0.960 . S
C6272 H6264 0.929 . S
C6272 C6273 1.377 . S
C6272 C6274 1.384 . S
C6273 C6272 1.377 . S
C6273 C6279 1.390 . S
C6274 H6265 0.930 . S
C6274 C6272 1.384 . S
C6274 C6275 1.372 . S
C6275 C6274 1.372 . S
C6275 C6276 1.400 . S
C6275 C6280 1.490 . S
C6276 H6266 0.930 . S
C6276 C6275 1.400 . S
C6276 C6279 1.386 . S
H6277 C6293 0.930 . S
H6278 C6294 0.931 . S
C6279 H6267 0.929 . S
C6279 C6273 1.390 . S
C6279 C6276 1.386 . S
C6280 C6275 1.490 . S
C6280 C6282 1.395 . S
C6280 C6283 1.403 . S
H6281 C6287 0.930 . S
C6282 H6268 0.930 . S
C6282 C6280 1.395 . S
C6282 C6285 1.403 . S
C6283 C6280 1.403 . S
C6283 C6284 1.524 . S
C6283 C6287 1.400 . S
C6284 H6269 0.960 . S
C6284 H6270 0.960 . S
C6284 H6271 0.960 . S
C6284 C6283 1.524 . S
C6285 C6282 1.403 . S
C6285 C6286 1.392 . S
C6285 C6289 1.495 . S
C6286 C6285 1.392 . S
C6286 C6287 1.385 . S
C6286 C6288 1.478 . S
C6287 H6281 0.930 . S
C6287 C6283 1.400 . S
C6287 C6286 1.385 . S
C6288 C6286 1.478 . S
C6288 C6290 1.381 . S
C6288 C6294 1.383 . S
C6289 C6285 1.495 . S
C6289 H6295 0.959 . S
C6289 H6296 0.961 . S
C6289 H6297 0.927 1_455 S
C6290 C6288 1.381 . S
C6290 C6291 1.394 . S
C6290 H6298 0.930 . S
C6291 C6290 1.394 . S
C6291 C6292 1.383 . S
C6291 H6299 0.929 . S
C6292 C6291 1.383 . S
C6292 C6293 1.377 . S
C6293 H6277 0.930 . S
C6293 C6292 1.377 . S
C6293 C6294 1.379 . S
C6294 H6278 0.931 . S
C6294 C6288 1.383 . S
C6294 C6293 1.379 . S
H6295 C6289 0.959 . S
H6296 C6289 0.961 . S
H6297 C6289 0.927 1_655 S
H6298 C6290 0.930 . S
H6299 C6291 0.929 . S
H6300 C6308 0.929 . S
H6301 C6310 0.930 . S
H6302 C6312 0.930 . S
H6303 C6315 0.929 . S
H6304 C6318 0.930 . S
H6305 C6320 0.960 . S
H6306 C6320 0.960 . S
H6307 C6320 0.960 . S
C6308 H6300 0.929 . S
C6308 C6309 1.377 . S
C6308 C6310 1.384 . S
C6309 C6308 1.377 . S
C6309 C6315 1.390 . S
C6310 H6301 0.930 . S
C6310 C6308 1.384 . S
C6310 C6311 1.372 . S
C6311 C6310 1.372 . S
C6311 C6312 1.400 . S
C6311 C6316 1.490 . S
C6312 H6302 0.930 . S
C6312 C6311 1.400 . S
C6312 C6315 1.386 . S
H6313 C6329 0.930 . S
H6314 C6330 0.931 . S
C6315 H6303 0.929 . S
C6315 C6309 1.390 . S
C6315 C6312 1.386 . S
C6316 C6311 1.490 . S
C6316 C6318 1.395 . S
C6316 C6319 1.403 . S
H6317 C6323 0.930 . S
C6318 H6304 0.930 . S
C6318 C6316 1.395 . S
C6318 C6321 1.403 . S
C6319 C6316 1.403 . S
C6319 C6320 1.524 . S
C6319 C6323 1.400 . S
C6320 H6305 0.960 . S
C6320 H6306 0.960 . S
C6320 H6307 0.960 . S
C6320 C6319 1.524 . S
C6321 C6318 1.403 . S
C6321 C6322 1.392 . S
C6321 C6325 1.495 . S
C6322 C6321 1.392 . S
C6322 C6323 1.385 . S
C6322 C6324 1.478 . S
C6323 H6317 0.930 . S
C6323 C6319 1.400 . S
C6323 C6322 1.385 . S
C6324 C6322 1.478 . S
C6324 C6326 1.381 . S
C6324 C6330 1.383 . S
C6325 C6321 1.495 . S
C6325 H6331 0.959 . S
C6325 H6332 0.961 . S
C6325 H6333 0.960 . S
C6326 C6324 1.381 . S
C6326 C6327 1.394 . S
C6326 H6334 0.930 . S
C6327 C6326 1.394 . S
C6327 C6328 1.383 . S
C6327 H6335 0.929 . S
C6328 C6327 1.383 . S
C6328 C6329 1.377 . S
C6329 H6313 0.930 . S
C6329 C6328 1.377 . S
C6329 C6330 1.379 . S
C6330 H6314 0.931 . S
C6330 C6324 1.383 . S
C6330 C6329 1.379 . S
H6331 C6325 0.959 . S
H6332 C6325 0.961 . S
H6333 C6325 0.960 . S
H6334 C6326 0.930 . S
H6335 C6327 0.929 . S
H6336 C6344 0.929 . S
H6337 C6346 0.930 . S
H6338 C6348 0.930 . S
H6339 C6351 0.929 . S
H6340 C6354 0.930 . S
H6341 C6356 0.960 . S
H6342 C6356 0.960 . S
H6343 C6356 0.960 . S
C6344 H6336 0.929 . S
C6344 C6345 1.377 . S
C6344 C6346 1.384 . S
C6345 C6344 1.377 . S
C6345 C6351 1.390 . S
C6346 H6337 0.930 . S
C6346 C6344 1.384 . S
C6346 C6347 1.372 . S
C6347 C6346 1.372 . S
C6347 C6348 1.400 . S
C6347 C6352 1.490 . S
C6348 H6338 0.930 . S
C6348 C6347 1.400 . S
C6348 C6351 1.386 . S
H6349 C6365 0.930 . S
H6350 C6366 0.931 . S
C6351 H6339 0.929 . S
C6351 C6345 1.390 . S
C6351 C6348 1.386 . S
C6352 C6347 1.490 . S
C6352 C6354 1.395 . S
C6352 C6355 1.403 . S
H6353 C6359 0.930 . S
C6354 H6340 0.930 . S
C6354 C6352 1.395 . S
C6354 C6357 1.403 . S
C6355 C6352 1.403 . S
C6355 C6356 1.524 . S
C6355 C6359 1.400 . S
C6356 H6341 0.960 . S
C6356 H6342 0.960 . S
C6356 H6343 0.960 . S
C6356 C6355 1.524 . S
C6357 C6354 1.403 . S
C6357 C6358 1.392 . S
C6357 C6361 1.495 . S
C6358 C6357 1.392 . S
C6358 C6359 1.385 . S
C6358 C6360 1.478 . S
C6359 H6353 0.930 . S
C6359 C6355 1.400 . S
C6359 C6358 1.385 . S
C6360 C6358 1.478 . S
C6360 C6362 1.381 . S
C6360 C6366 1.383 . S
C6361 C6357 1.495 . S
C6361 H6367 0.959 . S
C6361 H6368 0.961 . S
C6361 H6369 0.960 . S
C6362 C6360 1.381 . S
C6362 C6363 1.394 . S
C6362 H6370 0.930 . S
C6363 C6362 1.394 . S
C6363 C6364 1.383 . S
C6363 H6371 0.929 . S
C6364 C6363 1.383 . S
C6364 C6365 1.377 . S
C6365 H6349 0.930 . S
C6365 C6364 1.377 . S
C6365 C6366 1.379 . S
C6366 H6350 0.931 . S
C6366 C6360 1.383 . S
C6366 C6365 1.379 . S
H6367 C6361 0.959 . S
H6368 C6361 0.961 . S
H6369 C6361 0.960 . S
H6370 C6362 0.930 . S
H6371 C6363 0.929 . S
H6372 C6380 0.929 . S
H6373 C6382 0.930 . S
H6374 C6384 0.930 . S
H6375 C6387 0.929 . S
H6376 C6390 0.930 . S
H6377 C6392 0.960 . S
H6378 C6392 0.960 . S
H6379 C6392 0.960 . S
C6380 H6372 0.929 . S
C6380 C6381 1.377 . S
C6380 C6382 1.384 . S
C6381 C6380 1.377 . S
C6381 C6387 1.390 . S
C6382 H6373 0.930 . S
C6382 C6380 1.384 . S
C6382 C6383 1.372 . S
C6383 C6382 1.372 . S
C6383 C6384 1.400 . S
C6383 C6388 1.490 . S
C6384 H6374 0.930 . S
C6384 C6383 1.400 . S
C6384 C6387 1.386 . S
H6385 C6401 0.930 . S
H6386 C6402 0.931 . S
C6387 H6375 0.929 . S
C6387 C6381 1.390 . S
C6387 C6384 1.386 . S
C6388 C6383 1.490 . S
C6388 C6390 1.395 . S
C6388 C6391 1.403 . S
H6389 C6395 0.930 . S
C6390 H6376 0.930 . S
C6390 C6388 1.395 . S
C6390 C6393 1.403 . S
C6391 C6388 1.403 . S
C6391 C6392 1.524 . S
C6391 C6395 1.400 . S
C6392 H6377 0.960 . S
C6392 H6378 0.960 . S
C6392 H6379 0.960 . S
C6392 C6391 1.524 . S
C6393 C6390 1.403 . S
C6393 C6394 1.392 . S
C6393 C6397 1.495 . S
C6394 C6393 1.392 . S
C6394 C6395 1.385 . S
C6394 C6396 1.478 . S
C6395 H6389 0.930 . S
C6395 C6391 1.400 . S
C6395 C6394 1.385 . S
C6396 C6394 1.478 . S
C6396 C6398 1.381 . S
C6396 C6402 1.383 . S
C6397 C6393 1.495 . S
C6397 H6403 0.959 . S
C6397 H6404 0.961 . S
C6397 H6405 0.960 . S
C6398 C6396 1.381 . S
C6398 C6399 1.394 . S
C6398 H6406 0.930 . S
C6399 C6398 1.394 . S
C6399 C6400 1.383 . S
C6399 H6407 0.929 . S
C6400 C6399 1.383 . S
C6400 C6401 1.377 . S
C6401 H6385 0.930 . S
C6401 C6400 1.377 . S
C6401 C6402 1.379 . S
C6402 H6386 0.931 . S
C6402 C6396 1.383 . S
C6402 C6401 1.379 . S
H6403 C6397 0.959 . S
H6404 C6397 0.961 . S
H6405 C6397 0.960 . S
H6406 C6398 0.930 . S
H6407 C6399 0.929 . S
H6408 C6416 0.929 . S
H6409 C6418 0.930 . S
H6410 C6420 0.930 . S
H6411 C6423 0.929 . S
H6412 C6426 0.930 . S
H6413 C6428 0.960 . S
H6414 C6428 0.960 . S
H6415 C6428 0.960 . S
C6416 H6408 0.929 . S
C6416 C6417 1.377 . S
C6416 C6418 1.384 . S
C6417 C6416 1.377 . S
C6417 C6423 1.390 . S
C6418 H6409 0.930 . S
C6418 C6416 1.384 . S
C6418 C6419 1.372 . S
C6419 C6418 1.372 . S
C6419 C6420 1.400 . S
C6419 C6424 1.490 . S
C6420 H6410 0.930 . S
C6420 C6419 1.400 . S
C6420 C6423 1.386 . S
H6421 C6437 0.930 . S
H6422 C6438 0.931 . S
C6423 H6411 0.929 . S
C6423 C6417 1.390 . S
C6423 C6420 1.386 . S
C6424 C6419 1.490 . S
C6424 C6426 1.395 . S
C6424 C6427 1.403 . S
H6425 C6431 0.930 . S
C6426 H6412 0.930 . S
C6426 C6424 1.395 . S
C6426 C6429 1.403 . S
C6427 C6424 1.403 . S
C6427 C6428 1.524 . S
C6427 C6431 1.400 . S
C6428 H6413 0.960 . S
C6428 H6414 0.960 . S
C6428 H6415 0.960 . S
C6428 C6427 1.524 . S
C6429 C6426 1.403 . S
C6429 C6430 1.392 . S
C6429 C6433 1.495 . S
C6430 C6429 1.392 . S
C6430 C6431 1.385 . S
C6430 C6432 1.478 . S
C6431 H6425 0.930 . S
C6431 C6427 1.400 . S
C6431 C6430 1.385 . S
C6432 C6430 1.478 . S
C6432 C6434 1.395 . S
C6432 C6438 1.383 . S
C6433 C6429 1.495 . S
C6433 H6439 0.959 . S
C6433 H6440 0.961 . S
C6433 H6441 0.960 . S
C6434 C6432 1.395 . S
C6434 C6435 1.387 1_655 S
C6434 H6442 0.923 1_655 S
C6435 C6434 1.387 1_455 S
C6435 C6436 1.383 . S
C6435 H6443 0.929 . S
C6436 C6435 1.383 . S
C6436 C6437 1.377 1_455 S
C6437 H6421 0.930 . S
C6437 C6436 1.377 1_655 S
C6437 C6438 1.379 . S
C6438 H6422 0.931 . S
C6438 C6432 1.383 . S
C6438 C6437 1.379 . S
H6439 C6433 0.959 . S
H6440 C6433 0.961 . S
H6441 C6433 0.960 . S
H6442 C6434 0.923 1_455 S
H6443 C6435 0.929 . S
H6444 C6452 0.929 . S
H6445 C6454 0.930 . S
H6446 C6456 0.930 . S
H6447 C6459 0.929 . S
H6448 C6462 0.930 . S
H6449 C6464 0.960 . S
H6450 C6464 0.960 . S
H6451 C6464 0.960 . S
C6452 H6444 0.929 . S
C6452 C6453 1.377 . S
C6452 C6454 1.384 . S
C6453 C6452 1.377 . S
C6453 C6459 1.390 . S
C6454 H6445 0.930 . S
C6454 C6452 1.384 . S
C6454 C6455 1.372 . S
C6455 C6454 1.372 . S
C6455 C6456 1.400 . S
C6455 C6460 1.490 . S
C6456 H6446 0.930 . S
C6456 C6455 1.400 . S
C6456 C6459 1.386 . S
H6457 C6473 0.930 . S
H6458 C6474 0.931 . S
C6459 H6447 0.929 . S
C6459 C6453 1.390 . S
C6459 C6456 1.386 . S
C6460 C6455 1.490 . S
C6460 C6462 1.395 . S
C6460 C6463 1.403 . S
H6461 C6467 0.930 . S
C6462 H6448 0.930 . S
C6462 C6460 1.395 . S
C6462 C6465 1.403 . S
C6463 C6460 1.403 . S
C6463 C6464 1.524 . S
C6463 C6467 1.400 . S
C6464 H6449 0.960 . S
C6464 H6450 0.960 . S
C6464 H6451 0.960 . S
C6464 C6463 1.524 . S
C6465 C6462 1.403 . S
C6465 C6466 1.392 . S
C6465 C6469 1.495 . S
C6466 C6465 1.392 . S
C6466 C6467 1.385 . S
C6466 C6468 1.478 . S
C6467 H6461 0.930 . S
C6467 C6463 1.400 . S
C6467 C6466 1.385 . S
C6468 C6466 1.478 . S
C6468 C6470 1.381 . S
C6468 C6474 1.383 . S
C6469 C6465 1.495 . S
C6469 H6475 0.959 . S
C6469 H6476 0.961 . S
C6469 H6477 0.960 . S
C6470 C6468 1.381 . S
C6470 C6471 1.394 . S
C6470 H6478 0.930 . S
C6471 C6470 1.394 . S
C6471 C6472 1.383 . S
C6471 H6479 0.929 . S
C6472 C6471 1.383 . S
C6472 C6473 1.377 . S
C6473 H6457 0.930 . S
C6473 C6472 1.377 . S
C6473 C6474 1.379 . S
C6474 H6458 0.931 . S
C6474 C6468 1.383 . S
C6474 C6473 1.379 . S
H6475 C6469 0.959 . S
H6476 C6469 0.961 . S
H6477 C6469 0.960 . S
H6478 C6470 0.930 . S
H6479 C6471 0.929 . S
H6480 C6488 0.929 . S
H6481 C6490 0.930 . S
H6482 C6492 0.930 . S
H6483 C6495 0.929 . S
H6484 C6498 0.930 . S
H6485 C6500 0.960 . S
H6486 C6500 0.960 . S
H6487 C6500 0.960 . S
C6488 H6480 0.929 . S
C6488 C6489 1.377 . S
C6488 C6490 1.384 . S
C6489 C6488 1.377 . S
C6489 C6495 1.390 . S
C6490 H6481 0.930 . S
C6490 C6488 1.384 . S
C6490 C6491 1.372 . S
C6491 C6490 1.372 . S
C6491 C6492 1.400 . S
C6491 C6496 1.490 . S
C6492 H6482 0.930 . S
C6492 C6491 1.400 . S
C6492 C6495 1.386 . S
H6493 C6509 0.930 . S
H6494 C6510 0.931 . S
C6495 H6483 0.929 . S
C6495 C6489 1.390 . S
C6495 C6492 1.386 . S
C6496 C6491 1.490 . S
C6496 C6498 1.395 . S
C6496 C6499 1.403 . S
H6497 C6503 0.930 . S
C6498 H6484 0.930 . S
C6498 C6496 1.395 . S
C6498 C6501 1.403 . S
C6499 C6496 1.403 . S
C6499 C6500 1.524 . S
C6499 C6503 1.400 . S
C6500 H6485 0.960 . S
C6500 H6486 0.960 . S
C6500 H6487 0.960 . S
C6500 C6499 1.524 . S
C6501 C6498 1.403 . S
C6501 C6502 1.392 . S
C6501 C6505 1.495 . S
C6502 C6501 1.392 . S
C6502 C6503 1.385 . S
C6502 C6504 1.478 . S
C6503 H6497 0.930 . S
C6503 C6499 1.400 . S
C6503 C6502 1.385 . S
C6504 C6502 1.478 . S
C6504 C6506 1.381 . S
C6504 C6510 1.383 . S
C6505 C6501 1.495 . S
C6505 H6511 0.959 . S
C6505 H6512 0.961 . S
C6505 H6513 0.960 . S
C6506 C6504 1.381 . S
C6506 C6507 1.394 . S
C6506 H6514 0.930 . S
C6507 C6506 1.394 . S
C6507 C6508 1.383 . S
C6507 H6515 0.929 . S
C6508 C6507 1.383 . S
C6508 C6509 1.377 . S
C6509 H6493 0.930 . S
C6509 C6508 1.377 . S
C6509 C6510 1.379 . S
C6510 H6494 0.931 . S
C6510 C6504 1.383 . S
C6510 C6509 1.379 . S
H6511 C6505 0.959 . S
H6512 C6505 0.961 . S
H6513 C6505 0.960 . S
H6514 C6506 0.930 . S
H6515 C6507 0.929 . S
H6516 C6524 0.929 . S
H6517 C6526 0.930 . S
H6518 C6528 0.930 . S
H6519 C6531 0.929 . S
H6520 C6534 0.930 . S
H6521 C6536 0.960 . S
H6522 C6536 0.960 . S
H6523 C6536 0.960 . S
C6524 H6516 0.929 . S
C6524 C6525 1.377 . S
C6524 C6526 1.384 . S
C6525 C6524 1.377 . S
C6525 C6531 1.390 . S
C6526 H6517 0.930 . S
C6526 C6524 1.384 . S
C6526 C6527 1.372 . S
C6527 C6526 1.372 . S
C6527 C6528 1.400 . S
C6527 C6532 1.490 . S
C6528 H6518 0.930 . S
C6528 C6527 1.400 . S
C6528 C6531 1.386 . S
H6529 C6545 0.930 . S
H6530 C6546 0.931 . S
C6531 H6519 0.929 . S
C6531 C6525 1.390 . S
C6531 C6528 1.386 . S
C6532 C6527 1.490 . S
C6532 C6534 1.395 . S
C6532 C6535 1.403 . S
H6533 C6539 0.930 . S
C6534 H6520 0.930 . S
C6534 C6532 1.395 . S
C6534 C6537 1.403 . S
C6535 C6532 1.403 . S
C6535 C6536 1.524 . S
C6535 C6539 1.400 . S
C6536 H6521 0.960 . S
C6536 H6522 0.960 . S
C6536 H6523 0.960 . S
C6536 C6535 1.524 . S
C6537 C6534 1.403 . S
C6537 C6538 1.392 . S
C6537 C6541 1.495 . S
C6538 C6537 1.392 . S
C6538 C6539 1.385 . S
C6538 C6540 1.478 . S
C6539 H6533 0.930 . S
C6539 C6535 1.400 . S
C6539 C6538 1.385 . S
C6540 C6538 1.478 . S
C6540 C6542 1.381 . S
C6540 C6546 1.383 . S
C6541 C6537 1.495 . S
C6541 H6547 0.959 . S
C6541 H6548 0.961 . S
C6541 H6549 0.960 . S
C6542 C6540 1.381 . S
C6542 C6543 1.394 . S
C6542 H6550 0.930 . S
C6543 C6542 1.394 . S
C6543 C6544 1.383 . S
C6543 H6551 0.929 . S
C6544 C6543 1.383 . S
C6544 C6545 1.377 . S
C6545 H6529 0.930 . S
C6545 C6544 1.377 . S
C6545 C6546 1.379 . S
C6546 H6530 0.931 . S
C6546 C6540 1.383 . S
C6546 C6545 1.379 . S
H6547 C6541 0.959 . S
H6548 C6541 0.961 . S
H6549 C6541 0.960 . S
H6550 C6542 0.930 . S
H6551 C6543 0.929 . S
H6552 C6560 0.929 . S
H6553 C6562 0.930 . S
H6554 C6564 0.930 . S
H6555 C6567 0.929 . S
H6556 C6570 0.930 . S
H6557 C6572 0.960 . S
H6558 C6572 0.960 . S
H6559 C6572 0.960 . S
C6560 H6552 0.929 . S
C6560 C6561 1.377 . S
C6560 C6562 1.384 . S
C6561 C6560 1.377 . S
C6561 C6567 1.390 . S
C6562 H6553 0.930 . S
C6562 C6560 1.384 . S
C6562 C6563 1.372 . S
C6563 C6562 1.372 . S
C6563 C6564 1.400 . S
C6563 C6568 1.490 . S
C6564 H6554 0.930 . S
C6564 C6563 1.400 . S
C6564 C6567 1.386 . S
H6565 C6581 0.930 . S
H6566 C6582 0.931 . S
C6567 H6555 0.929 . S
C6567 C6561 1.390 . S
C6567 C6564 1.386 . S
C6568 C6563 1.490 . S
C6568 C6570 1.395 . S
C6568 C6571 1.403 . S
H6569 C6575 0.930 . S
C6570 H6556 0.930 . S
C6570 C6568 1.395 . S
C6570 C6573 1.403 . S
C6571 C6568 1.403 . S
C6571 C6572 1.524 . S
C6571 C6575 1.400 . S
C6572 H6557 0.960 . S
C6572 H6558 0.960 . S
C6572 H6559 0.960 . S
C6572 C6571 1.524 . S
C6573 C6570 1.403 . S
C6573 C6574 1.392 . S
C6573 C6577 1.495 . S
C6574 C6573 1.392 . S
C6574 C6575 1.385 . S
C6574 C6576 1.478 . S
C6575 H6569 0.930 . S
C6575 C6571 1.400 . S
C6575 C6574 1.385 . S
C6576 C6574 1.478 . S
C6576 C6578 1.381 . S
C6576 C6582 1.383 . S
C6577 C6573 1.495 . S
C6577 H6583 0.959 . S
C6577 H6584 0.961 . S
C6577 H6585 0.960 . S
C6578 C6576 1.381 . S
C6578 C6579 1.394 . S
C6578 H6586 0.930 . S
C6579 C6578 1.394 . S
C6579 C6580 1.383 . S
C6579 H6587 0.929 . S
C6580 C6579 1.383 . S
C6580 C6581 1.377 . S
C6581 H6565 0.930 . S
C6581 C6580 1.377 . S
C6581 C6582 1.379 . S
C6582 H6566 0.931 . S
C6582 C6576 1.383 . S
C6582 C6581 1.379 . S
H6583 C6577 0.959 . S
H6584 C6577 0.961 . S
H6585 C6577 0.960 . S
H6586 C6578 0.930 . S
H6587 C6579 0.929 . S
H6588 C6596 0.929 . S
H6589 C6598 0.930 . S
H6590 C6600 0.930 . S
H6591 C6603 0.929 . S
H6592 C6606 0.930 . S
H6593 C6608 0.960 . S
H6594 C6608 0.960 . S
H6595 C6608 0.960 . S
C6596 H6588 0.929 . S
C6596 C6597 1.377 . S
C6596 C6598 1.384 . S
C6597 C6596 1.377 . S
C6597 C6603 1.390 . S
C6598 H6589 0.930 . S
C6598 C6596 1.384 . S
C6598 C6599 1.372 . S
C6599 C6598 1.372 . S
C6599 C6600 1.400 . S
C6599 C6604 1.490 . S
C6600 H6590 0.930 . S
C6600 C6599 1.400 . S
C6600 C6603 1.386 . S
H6601 C6617 0.930 . S
H6602 C6618 0.931 . S
C6603 H6591 0.929 . S
C6603 C6597 1.390 . S
C6603 C6600 1.386 . S
C6604 C6599 1.490 . S
C6604 C6606 1.395 . S
C6604 C6607 1.403 . S
H6605 C6611 0.930 . S
C6606 H6592 0.930 . S
C6606 C6604 1.395 . S
C6606 C6609 1.403 . S
C6607 C6604 1.403 . S
C6607 C6608 1.524 . S
C6607 C6611 1.400 . S
C6608 H6593 0.960 . S
C6608 H6594 0.960 . S
C6608 H6595 0.960 . S
C6608 C6607 1.524 . S
C6609 C6606 1.403 . S
C6609 C6610 1.392 . S
C6609 C6613 1.495 . S
C6610 C6609 1.392 . S
C6610 C6611 1.385 . S
C6610 C6612 1.478 . S
C6611 H6605 0.930 . S
C6611 C6607 1.400 . S
C6611 C6610 1.385 . S
C6612 C6610 1.478 . S
C6612 C6614 1.381 . S
C6612 C6618 1.383 . S
C6613 C6609 1.495 . S
C6613 H6619 0.959 . S
C6613 H6620 0.961 . S
C6613 H6621 0.960 . S
C6614 C6612 1.381 . S
C6614 C6615 1.394 . S
C6614 H6622 0.930 . S
C6615 C6614 1.394 . S
C6615 C6616 1.383 . S
C6615 H6623 0.929 . S
C6616 C6615 1.383 . S
C6616 C6617 1.377 . S
C6617 H6601 0.930 . S
C6617 C6616 1.377 . S
C6617 C6618 1.379 . S
C6618 H6602 0.931 . S
C6618 C6612 1.383 . S
C6618 C6617 1.379 . S
H6619 C6613 0.959 . S
H6620 C6613 0.961 . S
H6621 C6613 0.960 . S
H6622 C6614 0.930 . S
H6623 C6615 0.929 . S
H6624 C6632 0.929 . S
H6625 C6634 0.930 . S
H6626 C6636 0.930 . S
H6627 C6639 0.929 . S
H6628 C6642 0.930 . S
H6629 C6644 0.960 . S
H6630 C6644 0.960 . S
H6631 C6644 0.960 . S
C6632 H6624 0.929 . S
C6632 C6633 1.377 . S
C6632 C6634 1.384 . S
C6633 C6632 1.377 . S
C6633 C6639 1.390 . S
C6634 H6625 0.930 . S
C6634 C6632 1.384 . S
C6634 C6635 1.372 . S
C6635 C6634 1.372 . S
C6635 C6636 1.400 . S
C6635 C6640 1.490 . S
C6636 H6626 0.930 . S
C6636 C6635 1.400 . S
C6636 C6639 1.386 . S
H6637 C6653 0.930 . S
H6638 C6654 0.931 . S
C6639 H6627 0.929 . S
C6639 C6633 1.390 . S
C6639 C6636 1.386 . S
C6640 C6635 1.490 . S
C6640 C6642 1.395 . S
C6640 C6643 1.403 . S
H6641 C6647 0.930 . S
C6642 H6628 0.930 . S
C6642 C6640 1.395 . S
C6642 C6645 1.403 . S
C6643 C6640 1.403 . S
C6643 C6644 1.524 . S
C6643 C6647 1.400 . S
C6644 H6629 0.960 . S
C6644 H6630 0.960 . S
C6644 H6631 0.960 . S
C6644 C6643 1.524 . S
C6645 C6642 1.403 . S
C6645 C6646 1.392 . S
C6645 C6649 1.495 . S
C6646 C6645 1.392 . S
C6646 C6647 1.385 . S
C6646 C6648 1.478 . S
C6647 H6641 0.930 . S
C6647 C6643 1.400 . S
C6647 C6646 1.385 . S
C6648 C6646 1.478 . S
C6648 C6650 1.381 . S
C6648 C6654 1.383 . S
C6649 C6645 1.495 . S
C6649 H6655 0.959 . S
C6649 H6656 0.961 . S
C6649 H6657 0.960 . S
C6650 C6648 1.381 . S
C6650 C6651 1.394 . S
C6650 H6658 0.930 . S
C6651 C6650 1.394 . S
C6651 C6652 1.383 . S
C6651 H6659 0.929 . S
C6652 C6651 1.383 . S
C6652 C6653 1.377 . S
C6653 H6637 0.930 . S
C6653 C6652 1.377 . S
C6653 C6654 1.379 . S
C6654 H6638 0.931 . S
C6654 C6648 1.383 . S
C6654 C6653 1.379 . S
H6655 C6649 0.959 . S
H6656 C6649 0.961 . S
H6657 C6649 0.960 . S
H6658 C6650 0.930 . S
H6659 C6651 0.929 . S
H6660 C6668 0.929 . S
H6661 C6670 0.930 . S
H6662 C6672 0.930 . S
H6663 C6675 0.929 . S
H6664 C6678 0.930 . S
H6665 C6680 0.960 . S
H6666 C6680 0.960 . S
H6667 C6680 0.960 . S
C6668 H6660 0.929 . S
C6668 C6669 1.377 . S
C6668 C6670 1.384 . S
C6669 C6668 1.377 . S
C6669 C6675 1.390 . S
C6670 H6661 0.930 . S
C6670 C6668 1.384 . S
C6670 C6671 1.372 . S
C6671 C6670 1.372 . S
C6671 C6672 1.400 . S
C6671 C6676 1.490 . S
C6672 H6662 0.930 . S
C6672 C6671 1.400 . S
C6672 C6675 1.386 . S
H6673 C6689 0.930 1_545 S
H6674 C6690 0.931 . S
C6675 H6663 0.929 . S
C6675 C6669 1.390 . S
C6675 C6672 1.386 . S
C6676 C6671 1.490 . S
C6676 C6678 1.395 . S
C6676 C6679 1.403 . S
H6677 C6683 0.930 . S
C6678 H6664 0.930 . S
C6678 C6676 1.395 . S
C6678 C6681 1.403 . S
C6679 C6676 1.403 . S
C6679 C6680 1.524 . S
C6679 C6683 1.400 . S
C6680 H6665 0.960 . S
C6680 H6666 0.960 . S
C6680 H6667 0.960 . S
C6680 C6679 1.524 . S
C6681 C6678 1.403 . S
C6681 C6682 1.392 . S
C6681 C6685 1.495 . S
C6682 C6681 1.392 . S
C6682 C6683 1.385 . S
C6682 C6684 1.478 . S
C6683 H6677 0.930 . S
C6683 C6679 1.400 . S
C6683 C6682 1.385 . S
C6684 C6682 1.478 . S
C6684 C6686 1.381 . S
C6684 C6690 1.383 . S
C6685 C6681 1.495 . S
C6685 H6691 0.959 . S
C6685 H6692 0.961 . S
C6685 H6693 0.960 . S
C6686 C6684 1.381 . S
C6686 C6687 1.394 . S
C6686 H6694 0.930 . S
C6687 C6686 1.394 . S
C6687 C6688 1.383 . S
C6687 H6695 0.929 . S
C6688 C6687 1.383 . S
C6688 C6689 1.377 . S
C6689 H6673 0.930 1_565 S
C6689 C6688 1.377 . S
C6689 C6690 1.379 . S
C6690 H6674 0.931 . S
C6690 C6684 1.383 . S
C6690 C6689 1.379 . S
H6691 C6685 0.959 . S
H6692 C6685 0.961 . S
H6693 C6685 0.960 . S
H6694 C6686 0.930 . S
H6695 C6687 0.929 . S
H6696 C6704 0.929 . S
H6697 C6706 0.930 . S
H6698 C6708 0.930 . S
H6699 C6711 0.929 . S
H6700 C6714 0.930 . S
H6701 C6716 0.960 . S
H6702 C6716 0.960 . S
H6703 C6716 0.960 . S
C6704 H6696 0.929 . S
C6704 C6705 1.377 . S
C6704 C6706 1.384 . S
C6705 C6704 1.377 . S
C6705 C6711 1.390 . S
C6706 H6697 0.930 . S
C6706 C6704 1.384 . S
C6706 C6707 1.372 . S
C6707 C6706 1.372 . S
C6707 C6708 1.400 . S
C6707 C6712 1.490 . S
C6708 H6698 0.930 . S
C6708 C6707 1.400 . S
C6708 C6711 1.386 . S
H6709 C6725 0.930 . S
H6710 C6726 0.931 . S
C6711 H6699 0.929 . S
C6711 C6705 1.390 . S
C6711 C6708 1.386 . S
C6712 C6707 1.490 . S
C6712 C6714 1.395 . S
C6712 C6715 1.403 . S
H6713 C6719 0.930 . S
C6714 H6700 0.930 . S
C6714 C6712 1.395 . S
C6714 C6717 1.403 . S
C6715 C6712 1.403 . S
C6715 C6716 1.524 . S
C6715 C6719 1.400 . S
C6716 H6701 0.960 . S
C6716 H6702 0.960 . S
C6716 H6703 0.960 . S
C6716 C6715 1.524 . S
C6717 C6714 1.403 . S
C6717 C6718 1.392 . S
C6717 C6721 1.495 . S
C6718 C6717 1.392 . S
C6718 C6719 1.385 . S
C6718 C6720 1.478 . S
C6719 H6713 0.930 . S
C6719 C6715 1.400 . S
C6719 C6718 1.385 . S
C6720 C6718 1.478 . S
C6720 C6722 1.381 . S
C6720 C6726 1.383 . S
C6721 C6717 1.495 . S
C6721 H6727 0.959 . S
C6721 H6728 0.961 . S
C6721 H6729 0.960 . S
C6722 C6720 1.381 . S
C6722 C6723 1.394 . S
C6722 H6730 0.930 . S
C6723 C6722 1.394 . S
C6723 C6724 1.383 . S
C6723 H6731 0.929 . S
C6724 C6723 1.383 . S
C6724 C6725 1.377 . S
C6725 H6709 0.930 . S
C6725 C6724 1.377 . S
C6725 C6726 1.379 . S
C6726 H6710 0.931 . S
C6726 C6720 1.383 . S
C6726 C6725 1.379 . S
H6727 C6721 0.959 . S
H6728 C6721 0.961 . S
H6729 C6721 0.960 . S
H6730 C6722 0.930 . S
H6731 C6723 0.929 . S
H6732 C6740 0.929 . S
H6733 C6742 0.930 . S
H6734 C6744 0.930 . S
H6735 C6747 0.929 . S
H6736 C6750 0.930 . S
H6737 C6752 0.960 . S
H6738 C6752 0.960 . S
H6739 C6752 0.960 . S
C6740 H6732 0.929 . S
C6740 C6741 1.377 . S
C6740 C6742 1.384 . S
C6741 C6740 1.377 . S
C6741 C6747 1.390 . S
C6742 H6733 0.930 . S
C6742 C6740 1.384 . S
C6742 C6743 1.372 . S
C6743 C6742 1.372 . S
C6743 C6744 1.400 . S
C6743 C6748 1.490 . S
C6744 H6734 0.930 . S
C6744 C6743 1.400 . S
C6744 C6747 1.386 . S
H6745 C6761 0.930 . S
H6746 C6762 0.931 . S
C6747 H6735 0.929 . S
C6747 C6741 1.390 . S
C6747 C6744 1.386 . S
C6748 C6743 1.490 . S
C6748 C6750 1.395 . S
C6748 C6751 1.403 . S
H6749 C6755 0.930 . S
C6750 H6736 0.930 . S
C6750 C6748 1.395 . S
C6750 C6753 1.403 . S
C6751 C6748 1.403 . S
C6751 C6752 1.524 . S
C6751 C6755 1.400 . S
C6752 H6737 0.960 . S
C6752 H6738 0.960 . S
C6752 H6739 0.960 . S
C6752 C6751 1.524 . S
C6753 C6750 1.403 . S
C6753 C6754 1.392 . S
C6753 C6757 1.495 . S
C6754 C6753 1.392 . S
C6754 C6755 1.385 . S
C6754 C6756 1.478 . S
C6755 H6749 0.930 . S
C6755 C6751 1.400 . S
C6755 C6754 1.385 . S
C6756 C6754 1.478 . S
C6756 C6758 1.381 . S
C6756 C6762 1.383 . S
C6757 C6753 1.495 . S
C6757 H6763 0.959 . S
C6757 H6764 0.961 . S
C6757 H6765 0.960 . S
C6758 C6756 1.381 . S
C6758 C6759 1.394 . S
C6758 H6766 0.930 1_554 S
C6759 C6758 1.394 . S
C6759 C6760 1.383 . S
C6759 H6767 0.929 1_554 S
C6760 C6759 1.383 . S
C6760 C6761 1.377 . S
C6761 H6745 0.930 . S
C6761 C6760 1.377 . S
C6761 C6762 1.379 . S
C6762 H6746 0.931 . S
C6762 C6756 1.383 . S
C6762 C6761 1.379 . S
H6763 C6757 0.959 . S
H6764 C6757 0.961 . S
H6765 C6757 0.960 . S
H6766 C6758 0.930 1_556 S
H6767 C6759 0.929 1_556 S
H6768 C6776 0.929 . S
H6769 C6778 0.930 . S
H6770 C6780 0.930 . S
H6771 C6783 0.929 . S
H6772 C6786 0.930 . S
H6773 C6788 0.960 . S
H6774 C6788 0.960 . S
H6775 C6788 0.960 . S
C6776 H6768 0.929 . S
C6776 C6777 1.377 . S
C6776 C6778 1.384 . S
C6777 C6776 1.377 . S
C6777 C6783 1.390 . S
C6778 H6769 0.930 . S
C6778 C6776 1.384 . S
C6778 C6779 1.372 . S
C6779 C6778 1.372 . S
C6779 C6780 1.400 . S
C6779 C6784 1.490 . S
C6780 H6770 0.930 . S
C6780 C6779 1.400 . S
C6780 C6783 1.386 . S
H6781 C6797 0.930 . S
H6782 C6798 0.931 . S
C6783 H6771 0.929 . S
C6783 C6777 1.390 . S
C6783 C6780 1.386 . S
C6784 C6779 1.490 . S
C6784 C6786 1.395 . S
C6784 C6787 1.403 . S
H6785 C6791 0.930 . S
C6786 H6772 0.930 . S
C6786 C6784 1.395 . S
C6786 C6789 1.403 . S
C6787 C6784 1.403 . S
C6787 C6788 1.524 . S
C6787 C6791 1.400 . S
C6788 H6773 0.960 . S
C6788 H6774 0.960 . S
C6788 H6775 0.960 . S
C6788 C6787 1.524 . S
C6789 C6786 1.403 . S
C6789 C6790 1.392 . S
C6789 C6793 1.495 . S
C6790 C6789 1.392 . S
C6790 C6791 1.385 . S
C6790 C6792 1.478 . S
C6791 H6785 0.930 . S
C6791 C6787 1.400 . S
C6791 C6790 1.385 . S
C6792 C6790 1.478 . S
C6792 C6794 1.381 . S
C6792 C6798 1.383 . S
C6793 C6789 1.495 . S
C6793 H6799 0.959 . S
C6793 H6800 0.961 . S
C6793 H6801 0.960 . S
C6794 C6792 1.381 . S
C6794 C6795 1.394 . S
C6794 H6802 0.930 . S
C6795 C6794 1.394 . S
C6795 C6796 1.383 . S
C6795 H6803 0.929 . S
C6796 C6795 1.383 . S
C6796 C6797 1.377 . S
C6797 H6781 0.930 . S
C6797 C6796 1.377 . S
C6797 C6798 1.379 . S
C6798 H6782 0.931 . S
C6798 C6792 1.383 . S
C6798 C6797 1.379 . S
H6799 C6793 0.959 . S
H6800 C6793 0.961 . S
H6801 C6793 0.960 . S
H6802 C6794 0.930 . S
H6803 C6795 0.929 . S
H6804 C6812 0.929 . S
H6805 C6814 0.930 . S
H6806 C6816 0.930 . S
H6807 C6819 0.929 . S
H6808 C6822 0.930 . S
H6809 C6824 0.960 . S
H6810 C6824 0.960 . S
H6811 C6824 0.960 . S
C6812 H6804 0.929 . S
C6812 C6813 1.377 . S
C6812 C6814 1.384 . S
C6813 C6812 1.377 . S
C6813 C6819 1.390 . S
C6814 H6805 0.930 . S
C6814 C6812 1.384 . S
C6814 C6815 1.372 . S
C6815 C6814 1.372 . S
C6815 C6816 1.400 . S
C6815 C6820 1.490 . S
C6816 H6806 0.930 . S
C6816 C6815 1.400 . S
C6816 C6819 1.386 . S
H6817 C6833 0.930 . S
H6818 C6834 0.931 . S
C6819 H6807 0.929 . S
C6819 C6813 1.390 . S
C6819 C6816 1.386 . S
C6820 C6815 1.490 . S
C6820 C6822 1.395 . S
C6820 C6823 1.403 . S
H6821 C6827 0.930 . S
C6822 H6808 0.930 . S
C6822 C6820 1.395 . S
C6822 C6825 1.403 . S
C6823 C6820 1.403 . S
C6823 C6824 1.524 1_554 S
C6823 C6827 1.400 . S
C6824 H6809 0.960 . S
C6824 H6810 0.960 . S
C6824 H6811 0.960 . S
C6824 C6823 1.524 1_556 S
C6825 C6822 1.403 . S
C6825 C6826 1.392 . S
C6825 C6829 1.495 . S
C6826 C6825 1.392 . S
C6826 C6827 1.385 . S
C6826 C6828 1.478 . S
C6827 H6821 0.930 . S
C6827 C6823 1.400 . S
C6827 C6826 1.385 . S
C6828 C6826 1.478 . S
C6828 C6830 1.381 . S
C6828 C6834 1.383 . S
C6829 C6825 1.495 . S
C6829 H6835 0.959 . S
C6829 H6836 0.961 . S
C6829 H6837 0.960 . S
C6830 C6828 1.381 . S
C6830 C6831 1.394 . S
C6830 H6838 0.930 . S
C6831 C6830 1.394 . S
C6831 C6832 1.383 . S
C6831 H6839 0.929 . S
C6832 C6831 1.383 . S
C6832 C6833 1.377 . S
C6833 H6817 0.930 . S
C6833 C6832 1.377 . S
C6833 C6834 1.379 . S
C6834 H6818 0.931 . S
C6834 C6828 1.383 . S
C6834 C6833 1.379 . S
H6835 C6829 0.959 . S
H6836 C6829 0.961 . S
H6837 C6829 0.960 . S
H6838 C6830 0.930 . S
H6839 C6831 0.929 . S
H6840 C6848 0.929 . S
H6841 C6850 0.930 . S
H6842 C6852 0.930 . S
H6843 C6855 0.929 . S
H6844 C6858 0.930 . S
H6845 C6860 0.960 . S
H6846 C6860 0.960 . S
H6847 C6860 0.960 . S
C6848 H6840 0.929 . S
C6848 C6849 1.377 . S
C6848 C6850 1.384 . S
C6849 C6848 1.377 . S
C6849 C6855 1.390 . S
C6850 H6841 0.930 . S
C6850 C6848 1.384 . S
C6850 C6851 1.372 . S
C6851 C6850 1.372 . S
C6851 C6852 1.400 . S
C6851 C6856 1.490 . S
C6852 H6842 0.930 . S
C6852 C6851 1.400 . S
C6852 C6855 1.386 . S
H6853 C6869 0.930 . S
H6854 C6870 0.931 . S
C6855 H6843 0.929 . S
C6855 C6849 1.390 . S
C6855 C6852 1.386 . S
C6856 C6851 1.490 . S
C6856 C6858 1.395 . S
C6856 C6859 1.403 . S
H6857 C6863 0.930 . S
C6858 H6844 0.930 . S
C6858 C6856 1.395 . S
C6858 C6861 1.403 . S
C6859 C6856 1.403 . S
C6859 C6860 1.524 . S
C6859 C6863 1.400 . S
C6860 H6845 0.960 . S
C6860 H6846 0.960 . S
C6860 H6847 0.960 . S
C6860 C6859 1.524 . S
C6861 C6858 1.403 . S
C6861 C6862 1.392 . S
C6861 C6865 1.495 . S
C6862 C6861 1.392 . S
C6862 C6863 1.385 . S
C6862 C6864 1.478 . S
C6863 H6857 0.930 . S
C6863 C6859 1.400 . S
C6863 C6862 1.385 . S
C6864 C6862 1.478 . S
C6864 C6866 1.381 . S
C6864 C6870 1.383 . S
C6865 C6861 1.495 . S
C6865 H6871 0.959 . S
C6865 H6872 0.961 . S
C6865 H6873 0.960 . S
C6866 C6864 1.381 . S
C6866 C6867 1.394 . S
C6866 H6874 0.930 . S
C6867 C6866 1.394 . S
C6867 C6868 1.383 . S
C6867 H6875 0.929 . S
C6868 C6867 1.383 . S
C6868 C6869 1.377 . S
C6869 H6853 0.930 . S
C6869 C6868 1.377 . S
C6869 C6870 1.379 . S
C6870 H6854 0.931 . S
C6870 C6864 1.383 . S
C6870 C6869 1.379 . S
H6871 C6865 0.959 . S
H6872 C6865 0.961 . S
H6873 C6865 0.960 . S
H6874 C6866 0.930 . S
H6875 C6867 0.929 . S
H6876 C6884 0.929 . S
H6877 C6886 0.930 . S
H6878 C6888 0.930 . S
H6879 C6891 0.929 . S
H6880 C6894 0.930 . S
H6881 C6896 0.960 . S
H6882 C6896 0.960 . S
H6883 C6896 0.960 . S
C6884 H6876 0.929 . S
C6884 C6885 1.377 . S
C6884 C6886 1.384 . S
C6885 C6884 1.377 . S
C6885 C6891 1.390 . S
C6886 H6877 0.930 . S
C6886 C6884 1.384 . S
C6886 C6887 1.372 . S
C6887 C6886 1.372 . S
C6887 C6888 1.400 . S
C6887 C6892 1.490 . S
C6888 H6878 0.930 . S
C6888 C6887 1.400 . S
C6888 C6891 1.386 . S
H6889 C6905 0.930 . S
H6890 C6906 0.931 . S
C6891 H6879 0.929 . S
C6891 C6885 1.390 . S
C6891 C6888 1.386 . S
C6892 C6887 1.490 . S
C6892 C6894 1.395 . S
C6892 C6895 1.403 . S
H6893 C6899 0.930 . S
C6894 H6880 0.930 . S
C6894 C6892 1.395 . S
C6894 C6897 1.403 . S
C6895 C6892 1.403 . S
C6895 C6896 1.524 . S
C6895 C6899 1.400 . S
C6896 H6881 0.960 . S
C6896 H6882 0.960 . S
C6896 H6883 0.960 . S
C6896 C6895 1.524 . S
C6897 C6894 1.403 . S
C6897 C6898 1.392 . S
C6897 C6901 1.495 . S
C6898 C6897 1.392 . S
C6898 C6899 1.385 . S
C6898 C6900 1.478 . S
C6899 H6893 0.930 . S
C6899 C6895 1.400 . S
C6899 C6898 1.385 . S
C6900 C6898 1.478 . S
C6900 C6902 1.381 . S
C6900 C6906 1.383 . S
C6901 C6897 1.495 . S
C6901 H6907 0.959 . S
C6901 H6908 0.961 . S
C6901 H6909 0.960 . S
C6902 C6900 1.381 . S
C6902 C6903 1.394 . S
C6902 H6910 0.930 . S
C6903 C6902 1.394 . S
C6903 C6904 1.383 . S
C6903 H6911 0.929 . S
C6904 C6903 1.383 . S
C6904 C6905 1.377 . S
C6905 H6889 0.930 . S
C6905 C6904 1.377 . S
C6905 C6906 1.379 . S
C6906 H6890 0.931 . S
C6906 C6900 1.383 . S
C6906 C6905 1.379 . S
H6907 C6901 0.959 . S
H6908 C6901 0.961 . S
H6909 C6901 0.960 . S
H6910 C6902 0.930 . S
H6911 C6903 0.929 . S
C3465 C665 1.846 . S
C3484 C2168 1.873 . S
C3501 C381 1.751 . S
C3520 C2270 1.733 . S
C3537 C460 1.757 . S
C3556 C2336 1.776 . S
C3592 C2422 1.470 . S
C3573 C585 1.616 . S
C3609 C108 1.615 . S
C3628 C2506 1.456 . S
C3664 C2588 1.786 . S
C3645 C196 1.757 . S
C3700 C2690 1.747 . S
C3681 C313 1.749 . S
C3717 C49 1.846 . S
C3736 C2756 1.872 . S
C3772 C2186 1.334 . S
C3753 C1457 1.388 . S
C3789 C1545 0.766 . S
C3808 C2254 0.798 . S
C3844 C2354 0.937 . S
C3825 C1721 0.976 . S
C3880 C2420 1.580 . S
C3861 C1113 1.561 . S
C3897 C1428 1.562 . S
C3916 C2504 1.562 . S
C3952 C2606 0.975 . S
C3933 C1516 0.974 . S
C3988 C2674 0.828 . S
C3969 C1692 0.768 . S
C4024 C2774 1.336 . S
C4005 C1085 1.384 . S
C4060 C2170 0.756 . S
C4041 C988 0.795 . S
C4077 C1817 1.649 . S
C4096 C2858 1.606 . S
C4132 C2926 1.197 . S
C4113 C2081 1.311 . S
C4168 C3008 0.721 . S
C4149 C1993 0.735 . S
C4185 C761 0.796 . S
C4204 C2758 0.741 . S
C4221 C821 1.312 . S
C4240 C2338 1.266 . S
C4257 C2053 1.647 . S
C4276 C3110 1.633 . S
C4312 C3176 0.752 . S
C4293 C1868 0.743 . S
C4348 C2179 1.859 . S
C4329 C372 1.843 . S
C4384 C3183 1.726 . S
C4365 C645 1.751 . S
C4401 C577 1.747 . S
C4420 C2347 1.770 . S
C4437 C497 1.613 . S
C4456 C3105 1.446 . S
C4492 C2517 1.485 . S
C4473 C57 1.612 . S
C4509 C293 1.749 . S
C4528 C2935 1.773 . S
C4564 C2679 1.743 1_556 S
C4545 C205 1.746 . S
C4600 C3271 1.866 . S
C4581 C145 1.845 . S
C4636 C2175 1.331 . S
C4617 C909 1.381 . S
C4672 C3189 0.807 . S
C4653 C1956 0.763 . S
C4689 C724 0.969 . S
C4708 C2343 0.967 . S
C4725 C1780 1.555 . S
C4744 C3103 1.561 . S
C4761 C937 1.561 . S
C4780 C2515 1.575 . S
C4816 C2931 0.969 . S
C4797 C1985 0.971 . S
C4833 C753 0.762 . S
C4852 C2685 0.710 . S
C4869 C1809 1.379 . S
C4888 C3267 1.318 . S
C4905 C1173 0.802 . S
C4924 C2181 0.730 . S
C4941 C1105 1.643 . S
C4960 C2847 1.612 . S
C4977 C1633 1.309 . S
C4996 C2601 1.266 . S
C5013 C1553 0.728 . S
C5032 C3019 0.714 . S
C5068 C3273 0.845 . S
C5049 C1729 0.793 . S
C5085 C1340 1.310 . S
C5104 C2349 1.196 . S
C5140 C2427 1.634 . S
C5121 C1604 1.644 . S
C5176 C2263 0.716 . S
C5157 C1252 0.729 . S
C5193 C489 1.846 . S
C5212 C3344 1.876 . S
C5248 C3194 1.741 . S
C5229 C557 1.752 . S
C5265 C636 1.751 . S
C5284 C3428 1.775 . S
C5301 C409 1.614 . S
C5320 C3094 1.477 . S
C5337 C284 1.616 . S
C5356 C2842 1.465 . S
C5392 C2924 1.776 . S
C5373 C20 1.757 . S
C5428 C3026 1.728 . S
C5409 C137 1.753 . S
C5464 C3260 1.868 . S
C5445 C225 1.852 . S
C5500 C3362 1.346 . S
C5481 C1641 1.388 . S
C5517 C1193 0.766 . S
C5536 C3178 0.699 . S
C5572 C3446 0.950 . S
C5553 C1289 0.975 . S
C5608 C3092 1.578 . S
C5589 C1377 1.560 . S
C5644 C2840 1.569 . S
C5625 C1613 1.559 . S
C5661 C1164 0.976 . S
C5680 C2942 0.946 . S
C5716 C3010 0.725 . S
C5697 C1261 0.766 . S
C5733 C1349 1.387 . S
C5752 C3278 1.325 . S
C5788 C3346 0.742 . S
C5769 C1965 0.796 . S
C5805 C849 1.649 . S
C5824 C2522 1.607 . S
C5860 C2590 1.236 . S
C5841 C929 1.313 . S
C5896 C2672 0.733 . S
C5877 C1017 0.745 . S
C5932 C3262 0.850 . S
C5913 C1897 0.802 . S
C5949 C1789 1.311 . S
C5968 C3430 1.217 . S
C6004 C2438 1.606 . S
C5985 C900 1.648 . S
C6040 C2252 0.755 . S
C6021 C733 0.740 . S
C6057 C548 1.847 . S
C6076 C3355 1.865 . S
C6112 C2259 1.724 . S
C6093 C469 1.743 . S
C6129 C401 1.746 . S
C6148 C3439 1.767 . S
C6165 C673 1.612 . S
C6184 C2433 1.444 . S
C6201 C233 1.613 . S
C6220 C2853 1.501 . S
C6256 C2599 1.769 . S
C6237 C117 1.745 . S
C6273 C29 1.743 . S
C6292 C3015 1.719 . S
C6309 C321 1.846 . S
C6328 C2767 1.867 . S
C6364 C3351 1.318 . S
C6345 C2044 1.380 . S
C6381 C997 0.761 . S
C6400 C2265 0.821 . S
C6436 C3435 0.981 . S
C6417 C1877 0.970 . S
C6453 C812 1.554 . S
C6472 C2431 1.556 . S
C6489 C2073 1.557 . S
C6508 C2851 1.559 . S
C6544 C2595 0.975 . S
C6525 C1025 0.978 . S
C6561 C1905 0.763 . S
C6580 C3021 0.785 . S
C6616 C2763 1.368 . S
C6597 C841 1.383 . S
C6652 C3357 0.763 . S
C6633 C1525 0.799 . S
C6688 C2511 1.602 1_565 S
C6669 C1369 1.640 . S
C6705 C1465 1.311 . S
C6724 C2937 1.204 . S
C6760 C2683 0.715 . S
C6741 C1201 0.728 . S
C6777 C1281 0.799 . S
C6796 C2769 0.760 . S
C6813 C1076 1.309 . S
C6832 C3441 1.268 . S
C6868 C3099 1.610 . S
C6849 C1437 1.642 . S
C6904 C3187 0.720 . S
C6885 C1701 0.726 . S
