# Generated by pormake.
# Topology iac, (4,6)-cn, num edge types: 1
# Building blocks:
#     Node 0, Type 0, BuildingBlock: NAHDIM_clean_sbu_0, # of connection points: 4
#     Node 1, Type 0, BuildingBlock: NAHDIM_clean_sbu_0, # of connection points: 4
#     Node 2, Type 0, BuildingBlock: NAHDIM_clean_sbu_0, # of connection points: 4
#     Node 3, Type 0, BuildingBlock: NAHDIM_clean_sbu_0, # of connection points: 4
#     Node 4, Type 0, BuildingBlock: NAHDIM_clean_sbu_0, # of connection points: 4
#     Node 5, Type 0, BuildingBlock: NAHDIM_clean_sbu_0, # of connection points: 4
#     Node 6, Type 0, BuildingBlock: NAHDIM_clean_sbu_0, # of connection points: 4
#     Node 7, Type 0, BuildingBlock: NAHDIM_clean_sbu_0, # of connection points: 4
#     Node 8, Type 0, BuildingBlock: NAHDIM_clean_sbu_0, # of connection points: 4
#     Node 9, Type 0, BuildingBlock: NAHDIM_clean_sbu_0, # of connection points: 4
#     Node 10, Type 0, BuildingBlock: NAHDIM_clean_sbu_0, # of connection points: 4
#     Node 11, Type 0, BuildingBlock: NAHDIM_clean_sbu_0, # of connection points: 4
#     Node 12, Type 0, BuildingBlock: NAHDIM_clean_sbu_0, # of connection points: 4
#     Node 13, Type 0, BuildingBlock: NAHDIM_clean_sbu_0, # of connection points: 4
#     Node 14, Type 0, BuildingBlock: NAHDIM_clean_sbu_0, # of connection points: 4
#     Node 15, Type 0, BuildingBlock: NAHDIM_clean_sbu_0, # of connection points: 4
#     Node 16, Type 0, BuildingBlock: NAHDIM_clean_sbu_0, # of connection points: 4
#     Node 17, Type 0, BuildingBlock: NAHDIM_clean_sbu_0, # of connection points: 4
#     Node 18, Type 0, BuildingBlock: NAHDIM_clean_sbu_0, # of connection points: 4
#     Node 19, Type 0, BuildingBlock: NAHDIM_clean_sbu_0, # of connection points: 4
#     Node 20, Type 0, BuildingBlock: NAHDIM_clean_sbu_0, # of connection points: 4
#     Node 21, Type 0, BuildingBlock: NAHDIM_clean_sbu_0, # of connection points: 4
#     Node 22, Type 0, BuildingBlock: NAHDIM_clean_sbu_0, # of connection points: 4
#     Node 23, Type 0, BuildingBlock: NAHDIM_clean_sbu_0, # of connection points: 4
#     Node 24, Type 1, BuildingBlock: JUFBIX_clean_sbu_0, # of connection points: 6
#     Node 25, Type 1, BuildingBlock: JUFBIX_clean_sbu_0, # of connection points: 6
#     Node 26, Type 1, BuildingBlock: JUFBIX_clean_sbu_0, # of connection points: 6
#     Node 27, Type 1, BuildingBlock: JUFBIX_clean_sbu_0, # of connection points: 6
#     Node 28, Type 1, BuildingBlock: JUFBIX_clean_sbu_0, # of connection points: 6
#     Node 29, Type 1, BuildingBlock: JUFBIX_clean_sbu_0, # of connection points: 6
#     Node 30, Type 1, BuildingBlock: JUFBIX_clean_sbu_0, # of connection points: 6
#     Node 31, Type 1, BuildingBlock: JUFBIX_clean_sbu_0, # of connection points: 6
#     Node 32, Type 1, BuildingBlock: JUFBIX_clean_sbu_0, # of connection points: 6
#     Node 33, Type 1, BuildingBlock: JUFBIX_clean_sbu_0, # of connection points: 6
#     Node 34, Type 1, BuildingBlock: JUFBIX_clean_sbu_0, # of connection points: 6
#     Node 35, Type 1, BuildingBlock: JUFBIX_clean_sbu_0, # of connection points: 6
#     Node 36, Type 1, BuildingBlock: JUFBIX_clean_sbu_0, # of connection points: 6
#     Node 37, Type 1, BuildingBlock: JUFBIX_clean_sbu_0, # of connection points: 6
#     Node 38, Type 1, BuildingBlock: JUFBIX_clean_sbu_0, # of connection points: 6
#     Node 39, Type 1, BuildingBlock: JUFBIX_clean_sbu_0, # of connection points: 6
#     Edge 40, Type (0, 1), BuildingBlock: OJICUG_clean_linker_0, # of connection points: 2
#     Edge 41, Type (0, 1), BuildingBlock: OJICUG_clean_linker_0, # of connection points: 2
#     Edge 42, Type (0, 1), BuildingBlock: OJICUG_clean_linker_0, # of connection points: 2
#     Edge 43, Type (0, 1), BuildingBlock: OJICUG_clean_linker_0, # of connection points: 2
#     Edge 44, Type (0, 1), BuildingBlock: OJICUG_clean_linker_0, # of connection points: 2
#     Edge 45, Type (0, 1), BuildingBlock: OJICUG_clean_linker_0, # of connection points: 2
#     Edge 46, Type (0, 1), BuildingBlock: OJICUG_clean_linker_0, # of connection points: 2
#     Edge 47, Type (0, 1), BuildingBlock: OJICUG_clean_linker_0, # of connection points: 2
#     Edge 48, Type (0, 1), BuildingBlock: OJICUG_clean_linker_0, # of connection points: 2
#     Edge 49, Type (0, 1), BuildingBlock: OJICUG_clean_linker_0, # of connection points: 2
#     Edge 50, Type (0, 1), BuildingBlock: OJICUG_clean_linker_0, # of connection points: 2
#     Edge 51, Type (0, 1), BuildingBlock: OJICUG_clean_linker_0, # of connection points: 2
#     Edge 52, Type (0, 1), BuildingBlock: OJICUG_clean_linker_0, # of connection points: 2
#     Edge 53, Type (0, 1), BuildingBlock: OJICUG_clean_linker_0, # of connection points: 2
#     Edge 54, Type (0, 1), BuildingBlock: OJICUG_clean_linker_0, # of connection points: 2
#     Edge 55, Type (0, 1), BuildingBlock: OJICUG_clean_linker_0, # of connection points: 2
#     Edge 56, Type (0, 1), BuildingBlock: OJICUG_clean_linker_0, # of connection points: 2
#     Edge 57, Type (0, 1), BuildingBlock: OJICUG_clean_linker_0, # of connection points: 2
#     Edge 58, Type (0, 1), BuildingBlock: OJICUG_clean_linker_0, # of connection points: 2
#     Edge 59, Type (0, 1), BuildingBlock: OJICUG_clean_linker_0, # of connection points: 2
#     Edge 60, Type (0, 1), BuildingBlock: OJICUG_clean_linker_0, # of connection points: 2
#     Edge 61, Type (0, 1), BuildingBlock: OJICUG_clean_linker_0, # of connection points: 2
#     Edge 62, Type (0, 1), BuildingBlock: OJICUG_clean_linker_0, # of connection points: 2
#     Edge 63, Type (0, 1), BuildingBlock: OJICUG_clean_linker_0, # of connection points: 2
#     Edge 64, Type (0, 1), BuildingBlock: OJICUG_clean_linker_0, # of connection points: 2
#     Edge 65, Type (0, 1), BuildingBlock: OJICUG_clean_linker_0, # of connection points: 2
#     Edge 66, Type (0, 1), BuildingBlock: OJICUG_clean_linker_0, # of connection points: 2
#     Edge 67, Type (0, 1), BuildingBlock: OJICUG_clean_linker_0, # of connection points: 2
#     Edge 68, Type (0, 1), BuildingBlock: OJICUG_clean_linker_0, # of connection points: 2
#     Edge 69, Type (0, 1), BuildingBlock: OJICUG_clean_linker_0, # of connection points: 2
#     Edge 70, Type (0, 1), BuildingBlock: OJICUG_clean_linker_0, # of connection points: 2
#     Edge 71, Type (0, 1), BuildingBlock: OJICUG_clean_linker_0, # of connection points: 2
#     Edge 72, Type (0, 1), BuildingBlock: OJICUG_clean_linker_0, # of connection points: 2
#     Edge 73, Type (0, 1), BuildingBlock: OJICUG_clean_linker_0, # of connection points: 2
#     Edge 74, Type (0, 1), BuildingBlock: OJICUG_clean_linker_0, # of connection points: 2
#     Edge 75, Type (0, 1), BuildingBlock: OJICUG_clean_linker_0, # of connection points: 2
#     Edge 76, Type (0, 1), BuildingBlock: OJICUG_clean_linker_0, # of connection points: 2
#     Edge 77, Type (0, 1), BuildingBlock: OJICUG_clean_linker_0, # of connection points: 2
#     Edge 78, Type (0, 1), BuildingBlock: OJICUG_clean_linker_0, # of connection points: 2
#     Edge 79, Type (0, 1), BuildingBlock: OJICUG_clean_linker_0, # of connection points: 2
#     Edge 80, Type (0, 1), BuildingBlock: OJICUG_clean_linker_0, # of connection points: 2
#     Edge 81, Type (0, 1), BuildingBlock: OJICUG_clean_linker_0, # of connection points: 2
#     Edge 82, Type (0, 1), BuildingBlock: OJICUG_clean_linker_0, # of connection points: 2
#     Edge 83, Type (0, 1), BuildingBlock: OJICUG_clean_linker_0, # of connection points: 2
#     Edge 84, Type (0, 1), BuildingBlock: OJICUG_clean_linker_0, # of connection points: 2
#     Edge 85, Type (0, 1), BuildingBlock: OJICUG_clean_linker_0, # of connection points: 2
#     Edge 86, Type (0, 1), BuildingBlock: OJICUG_clean_linker_0, # of connection points: 2
#     Edge 87, Type (0, 1), BuildingBlock: OJICUG_clean_linker_0, # of connection points: 2
#     Edge 88, Type (0, 1), BuildingBlock: OJICUG_clean_linker_0, # of connection points: 2
#     Edge 89, Type (0, 1), BuildingBlock: OJICUG_clean_linker_0, # of connection points: 2
#     Edge 90, Type (0, 1), BuildingBlock: OJICUG_clean_linker_0, # of connection points: 2
#     Edge 91, Type (0, 1), BuildingBlock: OJICUG_clean_linker_0, # of connection points: 2
#     Edge 92, Type (0, 1), BuildingBlock: OJICUG_clean_linker_0, # of connection points: 2
#     Edge 93, Type (0, 1), BuildingBlock: OJICUG_clean_linker_0, # of connection points: 2
#     Edge 94, Type (0, 1), BuildingBlock: OJICUG_clean_linker_0, # of connection points: 2
#     Edge 95, Type (0, 1), BuildingBlock: OJICUG_clean_linker_0, # of connection points: 2
#     Edge 96, Type (0, 1), BuildingBlock: OJICUG_clean_linker_0, # of connection points: 2
#     Edge 97, Type (0, 1), BuildingBlock: OJICUG_clean_linker_0, # of connection points: 2
#     Edge 98, Type (0, 1), BuildingBlock: OJICUG_clean_linker_0, # of connection points: 2
#     Edge 99, Type (0, 1), BuildingBlock: OJICUG_clean_linker_0, # of connection points: 2
#     Edge 100, Type (0, 1), BuildingBlock: OJICUG_clean_linker_0, # of connection points: 2
#     Edge 101, Type (0, 1), BuildingBlock: OJICUG_clean_linker_0, # of connection points: 2
#     Edge 102, Type (0, 1), BuildingBlock: OJICUG_clean_linker_0, # of connection points: 2
#     Edge 103, Type (0, 1), BuildingBlock: OJICUG_clean_linker_0, # of connection points: 2
#     Edge 104, Type (0, 1), BuildingBlock: OJICUG_clean_linker_0, # of connection points: 2
#     Edge 105, Type (0, 1), BuildingBlock: OJICUG_clean_linker_0, # of connection points: 2
#     Edge 106, Type (0, 1), BuildingBlock: OJICUG_clean_linker_0, # of connection points: 2
#     Edge 107, Type (0, 1), BuildingBlock: OJICUG_clean_linker_0, # of connection points: 2
#     Edge 108, Type (0, 1), BuildingBlock: OJICUG_clean_linker_0, # of connection points: 2
#     Edge 109, Type (0, 1), BuildingBlock: OJICUG_clean_linker_0, # of connection points: 2
#     Edge 110, Type (0, 1), BuildingBlock: OJICUG_clean_linker_0, # of connection points: 2
#     Edge 111, Type (0, 1), BuildingBlock: OJICUG_clean_linker_0, # of connection points: 2
#     Edge 112, Type (0, 1), BuildingBlock: OJICUG_clean_linker_0, # of connection points: 2
#     Edge 113, Type (0, 1), BuildingBlock: OJICUG_clean_linker_0, # of connection points: 2
#     Edge 114, Type (0, 1), BuildingBlock: OJICUG_clean_linker_0, # of connection points: 2
#     Edge 115, Type (0, 1), BuildingBlock: OJICUG_clean_linker_0, # of connection points: 2
#     Edge 116, Type (0, 1), BuildingBlock: OJICUG_clean_linker_0, # of connection points: 2
#     Edge 117, Type (0, 1), BuildingBlock: OJICUG_clean_linker_0, # of connection points: 2
#     Edge 118, Type (0, 1), BuildingBlock: OJICUG_clean_linker_0, # of connection points: 2
#     Edge 119, Type (0, 1), BuildingBlock: OJICUG_clean_linker_0, # of connection points: 2
#     Edge 120, Type (0, 1), BuildingBlock: OJICUG_clean_linker_0, # of connection points: 2
#     Edge 121, Type (0, 1), BuildingBlock: OJICUG_clean_linker_0, # of connection points: 2
#     Edge 122, Type (0, 1), BuildingBlock: OJICUG_clean_linker_0, # of connection points: 2
#     Edge 123, Type (0, 1), BuildingBlock: OJICUG_clean_linker_0, # of connection points: 2
#     Edge 124, Type (0, 1), BuildingBlock: OJICUG_clean_linker_0, # of connection points: 2
#     Edge 125, Type (0, 1), BuildingBlock: OJICUG_clean_linker_0, # of connection points: 2
#     Edge 126, Type (0, 1), BuildingBlock: OJICUG_clean_linker_0, # of connection points: 2
#     Edge 127, Type (0, 1), BuildingBlock: OJICUG_clean_linker_0, # of connection points: 2
#     Edge 128, Type (0, 1), BuildingBlock: OJICUG_clean_linker_0, # of connection points: 2
#     Edge 129, Type (0, 1), BuildingBlock: OJICUG_clean_linker_0, # of connection points: 2
#     Edge 130, Type (0, 1), BuildingBlock: OJICUG_clean_linker_0, # of connection points: 2
#     Edge 131, Type (0, 1), BuildingBlock: OJICUG_clean_linker_0, # of connection points: 2
#     Edge 132, Type (0, 1), BuildingBlock: OJICUG_clean_linker_0, # of connection points: 2
#     Edge 133, Type (0, 1), BuildingBlock: OJICUG_clean_linker_0, # of connection points: 2
#     Edge 134, Type (0, 1), BuildingBlock: OJICUG_clean_linker_0, # of connection points: 2
#     Edge 135, Type (0, 1), BuildingBlock: OJICUG_clean_linker_0, # of connection points: 2
# Relax obj value: 0.274
# Max RMSD: 0.247
# Mean RMSD: 0.156
data_MOF--net-iac--node1-NAHDIM_clean_sbu_0--node2-JUFBIX_clean_sbu_0--edge1-OJICUG_clean_linker_0
_symmetry_space_group_name_H-M    P1
_symmetry_Int_Tables_number       1
_symmetry_cell_setting            triclinic
loop_
_symmetry_equiv_pos_as_xyz
'x, y, z'
_cell_length_a     40.823491
_cell_length_b     41.201583
_cell_length_c     39.834099
_cell_angle_alpha  88.79486
_cell_angle_beta   87.850993
_cell_angle_gamma 88.476764
loop_
_atom_site_label
_atom_site_type_symbol
_atom_site_fract_x
_atom_site_fract_y
_atom_site_fract_z
_atom_type_partial_charge
C0 C 0.9765 0.2805 0.18586 0.0
O1 O 0.97927 0.25941 0.16161 0.0
O2 O 0.04714 0.24586 0.13984 0.0
Zn3 Zn 0.04642 0.2926 0.16337 0.0
O4 O 0.04852 0.33417 0.12974 0.0
C5 C 0.11462 0.30552 0.18849 0.0
O6 O 0.11836 0.31986 0.15887 0.0
O7 O 1.00154 0.29729 0.19187 0.0
C8 C 0.0552 0.36246 0.14029 0.0
O9 O 0.06135 0.36514 0.17224 0.0
C10 C 0.03488 0.23798 0.11201 0.0
O11 O 0.02095 0.26104 0.09379 0.0
O12 O 0.087 0.29253 0.19605 0.0
C13 C 0.13166 0.73963 0.38348 0.0
O14 O 0.12702 0.722 0.41096 0.0
O15 O 0.05706 0.73144 0.4262 0.0
Zn16 Zn 0.07054 0.77237 0.40294 0.0
O17 O 0.07049 0.80929 0.43497 0.0
C18 C 0.02128 0.76936 0.35236 0.0
O19 O 0.02751 0.73791 0.3521 0.0
O20 O 0.11218 0.76329 0.3768 0.0
C21 C 0.04175 0.81465 0.44751 0.0
O22 O 0.0187 0.79409 0.44152 0.0
C23 C 0.06729 0.72583 0.45547 0.0
O24 O 0.08424 0.74798 0.46988 0.0
O25 O 0.03729 0.78712 0.371 0.0
C26 C 0.47371 0.78418 0.68611 0.0
O27 O 0.4752 0.77171 0.65601 0.0
O28 O 0.54479 0.74307 0.64669 0.0
Zn29 Zn 0.54383 0.79069 0.66808 0.0
O30 O 0.54233 0.83179 0.63437 0.0
C31 C 0.5994 0.7746 0.71666 0.0
O32 O 0.58439 0.74711 0.72237 0.0
O33 O 0.50026 0.79426 0.69797 0.0
C34 C 0.55311 0.85887 0.64435 0.0
O35 O 0.56551 0.85926 0.6743 0.0
C36 C 0.53355 0.73441 0.61867 0.0
O37 O 0.52129 0.75711 0.59878 0.0
O38 O 0.5867 0.7954 0.69624 0.0
C39 C 0.59305 0.27778 0.8499 0.0
O40 O 0.57139 0.25475 0.85055 0.0
O41 O 0.55484 0.24803 0.92249 0.0
Zn42 Zn 0.55703 0.29426 0.90767 0.0
O43 O 0.56226 0.32368 0.94602 0.0
C44 C 0.49158 0.31876 0.90033 0.0
O45 O 0.48931 0.31642 0.93324 0.0
O46 O 0.59268 0.29825 0.87329 0.0
C47 C 0.55027 0.31808 0.97542 0.0
O48 O 0.53706 0.28991 0.98251 0.0
C49 C 0.58055 0.23553 0.93487 0.0
O50 O 0.6061 0.25371 0.93845 0.0
O51 O 0.51745 0.30906 0.88469 0.0
C52 C 0.17939 0.94329 0.33615 0.0
O53 O 0.14953 0.94998 0.32635 0.0
O54 O 0.17561 1.00267 0.2708 0.0
Zn55 Zn 0.18367 0.00796 0.31908 0.0
O56 O 0.1406 0.01865 0.3406 0.0
C57 C 0.23674 0.05262 0.30819 0.0
O58 O 0.24281 0.03764 0.27975 0.0
O59 O 0.19956 0.96606 0.33731 0.0
C60 C 0.12799 0.04709 0.33961 0.0
O61 O 0.14428 0.07074 0.32474 0.0
C62 C 0.16957 0.02696 0.25179 0.0
O63 O 0.17341 0.05634 0.26289 0.0
O64 O 0.21383 0.04311 0.32805 0.0
C65 C 0.21446 0.94973 0.5406 0.0
O66 O 0.23802 0.96215 0.55741 0.0
O67 O 0.26215 0.89055 0.5891 0.0
Zn68 Zn 0.26084 0.89917 0.53983 0.0
O69 O 0.26777 0.85788 0.51503 0.0
C70 C 0.3127 0.94407 0.54576 0.0
O71 O 0.30381 0.94239 0.57777 0.0
O72 O 0.21827 0.9212 0.52946 0.0
C73 C 0.29655 0.84534 0.51487 0.0
O74 O 0.31879 0.85849 0.53294 0.0
C75 C 0.23728 0.87918 0.60481 0.0
O76 O 0.21112 0.87274 0.58816 0.0
O77 O 0.2974 0.92799 0.52483 0.0
C78 C 0.3646 0.12347 0.75014 0.0
O79 O 0.35716 0.10282 0.72712 0.0
O80 O 0.41046 0.05827 0.73017 0.0
Zn81 Zn 0.39498 0.06823 0.77642 0.0
O82 O 0.43321 0.06291 0.80453 0.0
C83 C 0.3378 0.02812 0.77987 0.0
O84 O 0.33304 0.0382 0.74888 0.0
O85 O 0.37954 0.11358 0.77589 0.0
C86 C 0.44648 0.03476 0.80561 0.0
O87 O 0.43429 0.01136 0.78838 0.0
C88 C 0.43281 0.07782 0.72121 0.0
O89 O 0.44197 0.09936 0.74261 0.0
O90 O 0.36167 0.03866 0.79538 0.0
C91 C 0.36018 0.14936 0.04646 0.0
O92 O 0.35761 0.17542 0.06487 0.0
O93 O 0.28964 0.18942 0.08599 0.0
Zn94 Zn 0.28925 0.16601 0.03857 0.0
O95 O 0.28305 0.19705 0.99606 0.0
C96 C 0.22963 0.13201 0.0151 0.0
O97 O 0.23697 0.14824 0.98721 0.0
O98 O 0.33447 0.13996 0.03234 0.0
C99 C 0.30591 0.20875 0.97692 0.0
O100 O 0.33646 0.20374 0.98537 0.0
C101 C 0.30063 0.21735 0.09269 0.0
O102 O 0.31199 0.23559 0.06765 0.0
O103 O 0.24846 0.13462 0.03996 0.0
C104 C 0.73276 0.44837 0.04373 0.0
O105 O 0.76025 0.458 0.05595 0.0
O106 O 0.77645 0.38346 0.08201 0.0
Zn107 Zn 0.77163 0.39245 0.03327 0.0
O108 O 0.76529 0.35087 0.00983 0.0
C109 C 0.83855 0.40888 0.02334 0.0
O110 O 0.8426 0.38466 0.04489 0.0
O111 O 0.73205 0.42074 0.03032 0.0
C112 C 0.78124 0.32489 0.01696 0.0
O113 O 0.80321 0.32503 0.04021 0.0
C114 C 0.75176 0.37076 0.09683 0.0
O115 O 0.72632 0.36378 0.07931 0.0
O116 O 0.80995 0.41622 0.01388 0.0
C117 C 0.87696 0.62213 0.24368 0.0
O118 O 0.87066 0.60081 0.22091 0.0
O119 O 0.923 0.5546 0.22961 0.0
Zn120 Zn 0.90579 0.56769 0.27423 0.0
O121 O 0.94118 0.5626 0.3062 0.0
C122 C 0.84718 0.53029 0.27401 0.0
O123 O 0.84597 0.53918 0.24221 0.0
O124 O 0.89131 0.61318 0.27013 0.0
C125 C 0.95223 0.53381 0.31035 0.0
O126 O 0.94078 0.51049 0.29246 0.0
C127 C 0.94612 0.57295 0.2201 0.0
O128 O 0.9558 0.59502 0.24064 0.0
O129 O 0.86985 0.54046 0.29153 0.0
C130 C 0.84649 0.63185 0.56172 0.0
O131 O 0.83687 0.64511 0.59022 0.0
O132 O 0.78253 0.6876 0.58564 0.0
Zn133 Zn 0.78479 0.66463 0.53822 0.0
O134 O 0.78746 0.69704 0.49591 0.0
C135 C 0.73116 0.61413 0.5515 0.0
O136 O 0.74888 0.6038 0.57664 0.0
O137 O 0.828 0.6354 0.53654 0.0
C138 C 0.77417 0.68948 0.46852 0.0
O139 O 0.75869 0.66196 0.46805 0.0
C140 C 0.79984 0.7114 0.59413 0.0
O141 O 0.81946 0.72475 0.5712 0.0
O142 O 0.74165 0.63785 0.53319 0.0
C143 C 0.69718 0.45157 0.87284 0.0
O144 O 0.67892 0.45186 0.9007 0.0
O145 O 0.63739 0.50271 0.8014 0.0
Zn146 Zn 0.65843 0.50753 0.84509 0.0
O147 O 0.62399 0.5076 0.88138 0.0
C148 C 0.70359 0.55622 0.82395 0.0
O149 O 0.70867 0.53735 0.79798 0.0
O150 O 0.69134 0.47177 0.84923 0.0
C151 C 0.60707 0.53376 0.88443 0.0
O152 O 0.61293 0.55832 0.86373 0.0
C153 C 0.62767 0.52652 0.78337 0.0
O154 O 0.6317 0.55628 0.79334 0.0
O155 O 0.68257 0.54853 0.84676 0.0
C156 C 0.10392 0.80172 0.88988 0.0
O157 O 0.10594 0.81279 0.9204 0.0
O158 O 0.03725 0.75407 0.94415 0.0
Zn159 Zn 0.03474 0.79766 0.91369 0.0
O160 O 0.03926 0.84091 0.94271 0.0
C161 C 0.98025 0.77993 0.86645 0.0
O162 O 0.99841 0.75349 0.86178 0.0
O163 O 0.0757 0.79396 0.88019 0.0
C164 C 0.04317 0.86912 0.9289 0.0
O165 O 0.04417 0.87106 0.89591 0.0
C166 C 0.01519 0.73253 0.94813 0.0
O167 O 0.98691 0.73803 0.93413 0.0
O168 O 0.99038 0.80125 0.88643 0.0
C169 C 0.96199 0.31814 0.72599 0.0
O170 O 0.98364 0.34033 0.73107 0.0
O171 O 1.00673 0.27718 0.63333 0.0
Zn172 Zn 1.00064 0.31091 0.6674 0.0
O173 O 0.99682 0.35406 0.64499 0.0
C174 C 0.04515 0.27802 0.70619 0.0
O175 O 0.02492 0.25491 0.6996 0.0
O176 O 0.96326 0.30251 0.69884 0.0
C177 C 0.00998 0.37829 0.65751 0.0
O178 O 0.02545 0.37462 0.68572 0.0
C179 C 0.03132 0.27973 0.61305 0.0
O180 O 0.0483 0.3064 0.61237 0.0
O181 O 0.03991 0.30653 0.69456 0.0
C182 C 0.60626 0.30494 0.39039 0.0
O183 O 0.60799 0.32007 0.41895 0.0
O184 O 0.53963 0.25121 0.44656 0.0
Zn185 Zn 0.53738 0.29553 0.4169 0.0
O186 O 0.54082 0.33812 0.44729 0.0
C187 C 0.48118 0.27777 0.37108 0.0
O188 O 0.49716 0.24978 0.36848 0.0
O189 O 0.57882 0.29287 0.38332 0.0
C190 C 0.54338 0.3669 0.43445 0.0
O191 O 0.54377 0.36993 0.40153 0.0
C192 C 0.51673 0.23076 0.45213 0.0
O193 O 0.48769 0.23783 0.44043 0.0
O194 O 0.49319 0.29966 0.38919 0.0
C195 C 0.44095 0.8535 0.17801 0.0
O196 O 0.44224 0.86767 0.14816 0.0
O197 O 0.51091 0.79351 0.1329 0.0
Zn198 Zn 0.50713 0.83243 0.16184 0.0
O199 O 0.51335 0.87202 0.1342 0.0
C200 C 0.5449 0.79831 0.20748 0.0
O201 O 0.52246 0.77705 0.20167 0.0
O202 O 0.46511 0.83627 0.18781 0.0
C203 C 0.51367 0.89909 0.14867 0.0
O204 O 0.51119 0.89991 0.18163 0.0
C205 C 0.53952 0.78936 0.11974 0.0
O206 O 0.56104 0.81218 0.12278 0.0
O207 O 0.54273 0.82648 0.19408 0.0
C208 C 0.86112 0.13197 0.70852 0.0
O209 O 0.88143 0.13097 0.68217 0.0
O210 O 0.93602 0.08036 0.70553 0.0
Zn211 Zn 0.90124 0.08085 0.74157 0.0
O212 O 0.92242 0.0899 0.78414 0.0
C213 C 0.87065 0.02463 0.71951 0.0
O214 O 0.87446 0.03921 0.69002 0.0
O215 O 0.86627 0.11378 0.73395 0.0
C216 C 0.93271 0.06615 0.80192 0.0
O217 O 0.92786 0.03638 0.79245 0.0
C218 C 0.95475 0.05533 0.70348 0.0
O219 O 0.94986 0.03053 0.72411 0.0
O220 O 0.8803 0.03823 0.74544 0.0
C221 C 0.87534 0.17379 0.5232 0.0
O222 O 0.87647 0.20212 0.5075 0.0
O223 O 0.80327 0.2304 0.56457 0.0
Zn224 Zn 0.8089 0.19369 0.53286 0.0
O225 O 0.81025 0.21288 0.48687 0.0
C226 C 0.76191 0.15738 0.56931 0.0
O227 O 0.77878 0.16754 0.59432 0.0
O228 O 0.84897 0.1656 0.53852 0.0
C229 C 0.81511 0.19594 0.46087 0.0
O230 O 0.81794 0.16419 0.46389 0.0
C231 C 0.81976 0.25613 0.56369 0.0
O232 O 0.84513 0.25893 0.54268 0.0
O233 O 0.77032 0.16573 0.53943 0.0
C234 C 0.67497 0.9566 0.31859 0.0
O235 O 0.64454 0.95822 0.33049 0.0
O236 O 0.63732 0.03526 0.27341 0.0
Zn237 Zn 0.66785 0.02488 0.30961 0.0
O238 O 0.64372 0.02735 0.35256 0.0
C239 C 0.71782 0.05668 0.27696 0.0
O240 O 0.70975 0.0358 0.25438 0.0
O241 O 0.68848 0.98174 0.30643 0.0
C242 C 0.65754 0.01933 0.37951 0.0
O243 O 0.68907 0.01201 0.37897 0.0
C244 C 0.62888 0.06505 0.2704 0.0
O245 O 0.63956 0.08597 0.29162 0.0
O246 O 0.70322 0.05621 0.30563 0.0
C247 C 0.73015 0.95793 0.0185 0.0
O248 O 0.72919 0.93165 1.0005 0.0
O249 O 0.79025 0.89911 0.07384 0.0
Zn250 Zn 0.79618 0.92999 0.03079 0.0
O251 O 0.79382 0.90524 0.98444 0.0
C252 C 0.85415 0.96964 0.05428 0.0
O253 O 0.83873 0.96926 0.08383 0.0
O254 O 0.75643 0.96328 0.03373 0.0
C255 C 0.78371 0.87657 0.97958 0.0
O256 O 0.77406 0.859 0.00584 0.0
C257 C 0.8128 0.88998 0.09372 0.0
O258 O 0.84305 0.89829 0.08604 0.0
O259 O 0.84114 0.95538 0.02992 0.0
C260 C 0.38272 0.64791 0.06118 0.0
O261 O 0.37423 0.67322 0.07935 0.0
O262 O 0.31881 0.70783 0.04815 0.0
Zn263 Zn 0.32957 0.66984 0.0191 0.0
O264 O 0.33707 0.68867 0.97319 0.0
C265 C 0.28038 0.63583 0.05268 0.0
O266 O 0.29803 0.64536 0.0774 0.0
O267 O 0.36783 0.64274 0.03447 0.0
C268 C 0.3295 0.67532 0.9463 0.0
O269 O 0.31805 0.64579 0.94768 0.0
C270 C 0.29102 0.72156 0.0435 0.0
O271 O 0.27245 0.71085 0.0201 0.0
O272 O 0.28986 0.6424 0.02261 0.0
C273 C 0.18796 0.46632 0.82969 0.0
O274 O 0.15699 0.47477 0.83498 0.0
O275 O 0.16562 0.54266 0.78211 0.0
Zn276 Zn 0.19755 0.53332 0.81794 0.0
O277 O 0.17999 0.54416 0.86296 0.0
C278 C 0.24743 0.5539 0.77474 0.0
O279 O 0.23387 0.53235 0.75615 0.0
O280 O 0.20877 0.4873 0.82054 0.0
C281 C 0.15613 0.56369 0.86871 0.0
O282 O 0.14487 0.58226 0.84431 0.0
C283 C 0.1346 0.54113 0.78271 0.0
O284 O 0.11854 0.53133 0.81009 0.0
O285 O 0.23721 0.55716 0.80501 0.0
C286 C 0.22439 0.45838 0.52227 0.0
O287 O 0.22664 0.43817 0.49718 0.0
O288 O 0.29342 0.39918 0.57653 0.0
Zn289 Zn 0.29137 0.43073 0.534 0.0
O290 O 0.29032 0.40725 0.48665 0.0
C291 C 0.35184 0.46364 0.55759 0.0
O292 O 0.34304 0.44992 0.58649 0.0
O293 O 0.24891 0.4602 0.54112 0.0
C294 C 0.27799 0.38 0.47965 0.0
O295 O 0.26432 0.36278 0.50425 0.0
C296 C 0.26842 0.38734 0.59242 0.0
O297 O 0.23929 0.39293 0.58026 0.0
O298 O 0.33383 0.45956 0.53241 0.0
C299 C 0.41033 0.63976 0.21763 0.0
O300 O 0.44205 0.6406 0.22197 0.0
O301 O 0.46319 0.57541 0.24082 0.0
Zn302 Zn 0.41785 0.58358 0.25735 0.0
O303 O 0.42233 0.60287 0.30163 0.0
C304 C 0.39234 0.52693 0.23356 0.0
O305 O 0.4052 0.53907 0.20543 0.0
O306 O 0.3949 0.61498 0.22793 0.0
C307 C 0.4118 0.58999 0.32892 0.0
O308 O 0.39266 0.56491 0.32804 0.0
C309 C 0.48245 0.55529 0.25517 0.0
O310 O 0.47163 0.53709 0.28046 0.0
O311 O 0.3945 0.54238 0.26051 0.0
Co312 Co 0.0376 0.0597 0.00775 0.0
C313 C 0.03414 0.10399 0.0611 0.0
Co314 Co 0.04902 0.03655 0.05547 0.0
C315 C 0.0092 0.06763 0.94433 0.0
C316 C 0.0372 0.10889 0.95581 0.0
N317 N 0.02784 0.07962 0.96793 0.0
N318 N 1.00648 0.08813 0.9178 0.0
C319 C 0.02397 0.11425 0.92486 0.0
H320 H 0.99744 0.04442 0.94689 0.0
H321 H 0.05262 0.12519 0.96865 0.0
C322 C 0.05205 0.99267 1.00116 0.0
N323 N 0.05948 0.01702 0.09534 0.0
C324 C 0.08082 0.02869 0.11661 0.0
C325 C 0.0507 0.98804 0.10862 0.0
N326 N 0.08616 0.00815 0.14259 0.0
C327 C 0.06721 0.98245 0.13782 0.0
C328 C 0.98254 0.03154 0.04107 0.0
O329 O 0.04633 0.01903 0.98488 0.0
O330 O 0.05536 0.99451 0.0328 0.0
O331 O 1.00331 0.02608 0.06375 0.0
O332 O 0.99203 0.04702 0.01457 0.0
O333 O 0.04255 0.07868 0.07806 0.0
H334 H 0.03404 0.97179 0.0974 0.0
H335 H 0.0932 0.05139 0.11233 0.0
O336 O 0.02874 0.10045 0.03016 0.0
O337 O 0.08286 0.07216 1.00079 0.0
O338 O 0.09505 0.0471 0.0475 0.0
C339 C 0.10412 0.06465 0.02238 0.0
H340 H 0.02729 0.13544 0.90869 0.0
H341 H 0.06551 0.96115 0.1541 0.0
Co342 Co 0.2995 0.78246 0.29993 0.0
C343 C 0.32262 0.74123 0.25122 0.0
Co344 Co 0.27178 0.78663 0.25359 0.0
C345 C 0.30702 0.7815 0.37057 0.0
C346 C 0.35323 0.77287 0.34486 0.0
N347 N 0.32105 0.77804 0.33971 0.0
N348 N 0.32903 0.77937 0.39497 0.0
C349 C 0.35825 0.77382 0.37886 0.0
H350 H 0.28125 0.78746 0.3748 0.0
H351 H 0.37194 0.76983 0.32513 0.0
C352 C 0.24905 0.82833 0.30199 0.0
N353 N 0.25066 0.79099 0.2137 0.0
C354 C 0.26624 0.78903 0.18348 0.0
C355 C 0.21854 0.79354 0.20714 0.0
N356 N 0.24543 0.78933 0.15805 0.0
C357 C 0.21521 0.79229 0.17281 0.0
C358 C 0.24438 0.74436 0.29917 0.0
O359 O 0.27232 0.81577 0.31842 0.0
O360 O 0.24483 0.81957 0.27217 0.0
O361 O 0.24149 0.75617 0.2697 0.0
O362 O 0.26901 0.75153 0.31584 0.0
O363 O 0.29891 0.7531 0.23501 0.0
H364 H 0.19886 0.79459 0.22608 0.0
H365 H 0.29246 0.78493 0.18047 0.0
O366 O 0.32668 0.74991 0.28107 0.0
O367 O 0.32957 0.81332 0.28402 0.0
O368 O 0.3023 0.81757 0.23775 0.0
C369 C 0.32635 0.82555 0.25479 0.0
H370 H 0.38172 0.7718 0.39058 0.0
H371 H 0.19233 0.79197 0.15999 0.0
Co372 Co 0.51816 0.03678 0.53367 0.0
C373 C 0.53446 0.10256 0.51975 0.0
Co374 Co 0.56089 0.05197 0.56038 0.0
C375 C 0.45586 0.01044 0.52684 0.0
C376 C 0.47306 0.03083 0.47982 0.0
N377 N 0.48164 0.02515 0.51182 0.0
N378 N 0.43118 0.0071 0.50587 0.0
C379 C 0.44189 0.01955 0.47602 0.0
H380 H 0.45516 1.00253 0.55293 0.0
H381 H 0.48811 0.04307 0.46081 0.0
C382 C 0.54424 0.98609 0.57389 0.0
N383 N 0.5971 0.06347 0.58284 0.0
C384 C 0.62249 0.08039 0.56998 0.0
C385 C 0.60453 0.05656 0.61495 0.0
N386 N 0.64569 0.08431 0.59264 0.0
C387 C 0.63445 0.06942 0.62109 0.0
C388 C 0.50353 0.06213 0.59612 0.0
O389 O 0.52219 0.99292 0.55288 0.0
O390 O 0.56364 0.00853 0.58105 0.0
O391 O 0.53413 0.06616 0.59633 0.0
O392 O 0.49126 0.04943 0.57096 0.0
O393 O 0.5578 0.09555 0.53931 0.0
H394 H 0.58927 0.0429 0.63263 0.0
H395 H 0.62365 0.08989 0.54444 0.0
O396 O 0.51409 0.08046 0.51441 0.0
O397 O 0.54513 0.02427 0.49682 0.0
O398 O 0.58798 0.0378 0.52446 0.0
C399 C 0.57596 0.02665 0.49836 0.0
H400 H 0.42789 0.02129 0.45348 0.0
H401 H 0.64709 0.06752 0.64447 0.0
Co402 Co 0.30263 0.30976 0.78803 0.0
C403 C 0.27579 0.32323 0.72536 0.0
Co404 Co 0.25697 0.28433 0.78224 0.0
C405 C 0.3633 0.32419 0.81533 0.0
C406 C 0.34723 0.36288 0.78281 0.0
N407 N 0.33955 0.33282 0.7943 0.0
N408 N 0.385 0.34772 0.81805 0.0
C409 C 0.3756 0.37208 0.79733 0.0
H410 H 0.36447 0.30127 0.82908 0.0
H411 H 0.33249 0.37765 0.76608 0.0
C412 C 0.28459 0.27085 0.84493 0.0
N413 N 0.21984 0.26172 0.77654 0.0
C414 C 0.19182 0.27422 0.76467 0.0
C415 C 0.2136 0.23046 0.78453 0.0
N416 N 0.16801 0.25225 0.76516 0.0
C417 C 0.18159 0.2245 0.77742 0.0
C418 C 0.31288 0.25087 0.76039 0.0
O419 O 0.30545 0.29064 0.83272 0.0
O420 O 0.26069 0.26406 0.82691 0.0
O421 O 0.28189 0.25045 0.76322 0.0
O422 O 0.32803 0.27507 0.77052 0.0
O423 O 0.2534 0.30477 0.73739 0.0
H424 H 0.23105 0.21333 0.79523 0.0
H425 H 0.18911 0.29908 0.75567 0.0
O426 O 0.29989 0.32856 0.74358 0.0
O427 O 0.27746 0.34418 0.80581 0.0
O428 O 0.23171 0.31841 0.80128 0.0
C429 C 0.24662 0.34311 0.81025 0.0
H430 H 0.38754 0.39514 0.79411 0.0
H431 H 0.1692 0.20177 0.78148 0.0
Co432 Co 0.02662 0.03182 0.51529 0.0
C433 C 0.02945 0.049 0.58104 0.0
Co434 Co 0.05394 0.0764 0.52166 0.0
C435 C 0.02098 0.96718 0.4934 0.0
C436 C 0.97968 0.98093 0.52508 0.0
N437 N 1.00703 0.9926 0.50975 0.0
N438 N 1.00406 0.93978 0.49855 0.0
C439 C 0.97774 0.9484 0.51818 0.0
H440 H 0.04387 0.96862 0.47892 0.0
H441 H 0.96328 0.99468 0.54171 0.0
C442 C 0.05021 0.05979 0.45597 0.0
N443 N 0.07365 0.11521 0.52753 0.0
C444 C 0.06035 0.13827 0.54741 0.0
C445 C 0.10111 0.12822 0.51369 0.0
N446 N 0.07808 0.16527 0.54686 0.0
C447 C 0.10383 0.15932 0.5255 0.0
C448 C 0.09447 0.02365 0.52379 0.0
O449 O 0.03366 0.03644 0.4683 0.0
O450 O 0.06208 0.08007 0.47538 0.0
O451 O 0.09405 0.05423 0.52651 0.0
O452 O 0.06797 0.00946 0.51858 0.0
O453 O 0.0452 0.07271 0.5685 0.0
H454 H 0.11764 0.11614 0.49583 0.0
H455 H 0.03719 0.13562 0.56117 0.0
O456 O 0.01963 0.02737 0.56194 0.0
O457 O 0.98542 0.0548 0.51249 0.0
O458 O 0.01395 0.09873 0.51671 0.0
C459 C 0.98662 0.08558 0.51363 0.0
H460 H 0.95936 0.93208 0.52833 0.0
H461 H 0.12305 0.17614 0.51886 0.0
Co462 Co 0.29216 0.81247 0.79525 0.0
C463 C 0.22756 0.78992 0.81052 0.0
Co464 Co 0.27887 0.76916 0.76849 0.0
C465 C 0.30521 0.87871 0.80322 0.0
C466 C 0.29163 0.85648 0.85052 0.0
N467 N 0.29859 0.84989 0.81793 0.0
N468 N 0.30163 0.90321 0.82487 0.0
C469 C 0.2937 0.88947 0.85493 0.0
H470 H 0.31142 0.88186 0.77672 0.0
H471 H 0.28366 0.83878 0.86933 0.0
C472 C 0.34386 0.79212 0.7541 0.0
N473 N 0.27285 0.73221 0.74454 0.0
C474 C 0.2708 0.70184 0.75715 0.0
C475 C 0.27732 0.72864 0.71099 0.0
N476 N 0.27485 0.67947 0.73312 0.0
C477 C 0.27829 0.69607 0.70385 0.0
C478 C 0.26276 0.82428 0.73369 0.0
O479 O 0.336 0.81359 0.77564 0.0
O480 O 0.32245 0.77155 0.74716 0.0
O481 O 0.26118 0.79375 0.73363 0.0
O482 O 0.27604 0.83775 0.75788 0.0
O483 O 0.23517 0.7671 0.79021 0.0
H484 H 0.28186 0.74828 0.69311 0.0
H485 H 0.26769 0.69609 0.78368 0.0
O486 O 0.2487 0.81137 0.81514 0.0
O487 O 0.30803 0.78716 0.83189 0.0
O488 O 0.29645 0.74405 0.80399 0.0
C489 C 0.30765 0.75645 0.82987 0.0
H490 H 0.28819 0.90245 0.87788 0.0
H491 H 0.28297 0.68543 0.67947 0.0
Co492 Co 0.54319 0.04888 0.009 0.0
C493 C 0.60852 0.03627 0.02874 0.0
Co494 Co 0.55661 0.07458 0.05364 0.0
C495 C 0.52256 0.03706 0.94298 0.0
C496 C 0.54392 0.99448 0.96577 0.0
N497 N 0.53554 0.02585 0.97152 0.0
N498 N 0.52264 0.01405 0.91945 0.0
C499 C 0.53582 0.98707 0.9337 0.0
H500 H 0.51292 0.06161 0.93972 0.0
H501 H 0.5556 0.9782 0.98361 0.0
C502 C 0.49074 0.08636 0.03369 0.0
N503 N 0.56501 0.09669 0.09163 0.0
C504 C 0.57712 0.08285 0.11946 0.0
C505 C 0.55738 0.12764 0.09989 0.0
N506 N 0.57671 0.10348 0.14517 0.0
C507 C 0.56474 0.13196 0.133 0.0
C508 C 0.56862 0.10957 0.9956 0.0
O509 O 0.4986 0.06613 0.01083 0.0
O510 O 0.51249 0.09354 0.05431 0.0
O511 O 0.57168 0.10943 0.02713 0.0
O512 O 0.55631 0.08533 0.98198 0.0
O513 O 0.60081 0.0552 0.05281 0.0
H514 H 0.54603 0.14545 0.08336 0.0
H515 H 0.58541 0.05771 0.12101 0.0
O516 O 0.58717 0.03155 0.00711 0.0
O517 O 0.53009 0.01305 0.03581 0.0
O518 O 0.54154 0.03958 0.08057 0.0
C519 C 0.53136 0.01423 0.06746 0.0
H520 H 0.53961 0.96387 0.92172 0.0
H521 H 0.56038 0.15379 0.14732 0.0
Co522 Co 0.28782 0.27345 0.29822 0.0
C523 C 0.35457 0.29211 0.30466 0.0
Co524 Co 0.29971 0.32033 0.27522 0.0
C525 C 0.27245 0.20625 0.3081 0.0
C526 C 0.28925 0.22756 0.35265 0.0
N527 N 0.28128 0.23465 0.32069 0.0
N528 N 0.27495 0.1817 0.33083 0.0
C529 C 0.28519 0.19503 0.35902 0.0
H530 H 0.26496 0.2035 0.28257 0.0
H531 H 0.2989 0.24462 0.36978 0.0
C532 C 0.2331 0.30138 0.26859 0.0
N533 N 0.30681 0.35861 0.25218 0.0
C534 C 0.32502 0.38386 0.26017 0.0
C535 C 0.29523 0.36638 0.22167 0.0
N536 N 0.32537 0.40698 0.23569 0.0
C537 C 0.30662 0.39611 0.21145 0.0
C538 C 0.30539 0.26741 0.23009 0.0
O539 O 0.24182 0.27659 0.28613 0.0
O540 O 0.25411 0.32333 0.26282 0.0
O541 O 0.30975 0.2976 0.2336 0.0
O542 O 0.29714 0.25081 0.2562 0.0
O543 O 0.34548 0.31729 0.28796 0.0
H544 H 0.27977 0.35117 0.20753 0.0
H545 H 0.33837 0.38484 0.28308 0.0
O546 O 0.33376 0.26991 0.3101 0.0
O547 O 0.27813 0.2964 0.33991 0.0
O548 O 0.28982 0.34339 0.3168 0.0
C549 C 0.28166 0.32682 0.34304 0.0
H550 H 0.29065 0.18198 0.38209 0.0
H551 H 0.3014 0.4088 0.1881 0.0
Co552 Co 0.54246 0.51957 0.07907 0.0
C553 C 0.55687 0.53908 0.14226 0.0
Co554 Co 0.5668 0.56663 0.07926 0.0
C555 C 0.53826 0.45616 0.05615 0.0
C556 C 0.50248 0.46299 0.09604 0.0
N557 N 0.52615 0.47834 0.07788 0.0
N558 N 0.52329 0.42755 0.0595 0.0
C559 C 0.50067 0.43156 0.08476 0.0
H560 H 0.55825 0.46102 0.03835 0.0
H561 H 0.48759 0.47389 0.11604 0.0
C562 C 0.55294 0.54651 0.01594 0.0
N563 N 0.58375 0.60764 0.07901 0.0
C564 C 0.56983 0.63385 0.09393 0.0
C565 C 0.6086 0.6193 0.05942 0.0
N566 N 0.58424 0.66158 0.08373 0.0
C567 C 0.60901 0.65253 0.06235 0.0
C568 C 0.61132 0.51743 0.07315 0.0
O569 O 0.54108 0.52248 0.03204 0.0
O570 O 0.56518 0.56925 0.03194 0.0
O571 O 0.60949 0.54807 0.07524 0.0
O572 O 0.58528 0.50134 0.07522 0.0
O573 O 0.56834 0.56371 0.12653 0.0
H574 H 0.62403 0.60486 0.04249 0.0
H575 H 0.54855 0.63272 0.1109 0.0
O576 O 0.54414 0.51674 0.12597 0.0
O577 O 0.49952 0.53821 0.08246 0.0
O578 O 0.52381 0.58503 0.08302 0.0
C579 C 0.49769 0.56899 0.08388 0.0
H580 H 0.48376 0.41338 0.09405 0.0
H581 H 0.62492 0.66886 0.04821 0.0
Co582 Co 0.79428 0.31603 0.29362 0.0
C583 C 0.72935 0.29402 0.30943 0.0
Co584 Co 0.78217 0.27032 0.27096 0.0
C585 C 0.80678 0.38305 0.29829 0.0
C586 C 0.79223 0.36258 0.34616 0.0
N587 N 0.79989 0.35479 0.31401 0.0
N588 N 0.80295 0.40833 0.31899 0.0
C589 C 0.79432 0.39566 0.34936 0.0
H590 H 0.81372 0.38514 0.27186 0.0
H591 H 0.78401 0.34557 0.36555 0.0
C592 C 0.84737 0.2926 0.25584 0.0
N593 N 0.77646 0.23192 0.25011 0.0
C594 C 0.76708 0.20382 0.26459 0.0
C595 C 0.78492 0.22465 0.21801 0.0
N596 N 0.76984 0.17906 0.24304 0.0
C597 C 0.78073 0.19206 0.21354 0.0
C598 C 0.7678 0.32291 0.23074 0.0
O599 O 0.83889 0.31601 0.27494 0.0
O600 O 0.82636 0.27101 0.25102 0.0
O601 O 0.76609 0.29238 0.23335 0.0
O602 O 0.77963 0.3385 0.25434 0.0
O603 O 0.73776 0.2698 0.2913 0.0
H604 H 0.79464 0.24172 0.19944 0.0
H605 H 0.75882 0.2016 0.29065 0.0
O606 O 0.75008 0.3162 0.31247 0.0
O607 O 0.80876 0.29353 0.33229 0.0
O608 O 0.79805 0.24766 0.30887 0.0
C609 C 0.80809 0.26277 0.3337 0.0
H610 H 0.78867 0.4094 0.3718 0.0
H611 H 0.78623 0.17886 0.19072 0.0
Co612 Co 0.0316 0.53682 0.52635 0.0
C613 C 0.09754 0.52618 0.54432 0.0
Co614 Co 0.04371 0.56 0.57306 0.0
C615 C 0.01252 0.52916 0.45879 0.0
C616 C 0.03356 0.4854 0.47948 0.0
N617 N 0.02467 0.51624 0.48708 0.0
N618 N 0.01371 0.50772 0.43365 0.0
C619 C 0.02672 0.48004 0.44659 0.0
H620 H 1.00304 0.55388 0.45675 0.0
H621 H 0.04507 0.46819 0.49653 0.0
C622 C 0.97761 0.57021 0.55347 0.0
N623 N 0.05147 0.57923 0.61308 0.0
C624 C 0.07094 0.56633 0.63662 0.0
C625 C 0.03703 0.60568 0.62733 0.0
N626 N 0.06912 0.58334 0.66503 0.0
C627 C 0.04772 0.60812 0.65962 0.0
C628 C 0.05306 0.59984 0.51818 0.0
O629 O 0.98695 0.55266 0.52884 0.0
O630 O 0.99825 0.57587 0.57581 0.0
O631 O 0.05541 0.59775 0.54977 0.0
O632 O 0.04362 0.57551 0.5023 0.0
O633 O 0.08938 0.54365 0.56945 0.0
H634 H 0.0191 0.62148 0.61547 0.0
H635 H 0.08496 0.54383 0.63367 0.0
O636 O 0.07589 0.52101 0.52319 0.0
O637 O 0.01946 0.49869 0.55083 0.0
O638 O 0.03199 0.52247 0.59697 0.0
C639 C 0.02197 0.49783 0.58247 0.0
H640 H 0.03164 0.45781 0.43308 0.0
H641 H 0.04019 0.62631 0.67775 0.0
Co642 Co 0.80706 0.80473 0.28967 0.0
C643 C 0.78843 0.8225 0.22367 0.0
Co644 Co 0.76234 0.78182 0.27463 0.0
C645 C 0.87229 0.805 0.30977 0.0
C646 C 0.85751 0.85239 0.29224 0.0
N647 N 0.84623 0.82243 0.29926 0.0
N648 N 0.89972 0.82235 0.30867 0.0
C649 C 0.89058 0.85245 0.29818 0.0
H650 H 0.87134 0.77956 0.31697 0.0
H651 H 0.84308 0.87226 0.28175 0.0
C652 C 0.78203 0.76396 0.34075 0.0
N653 N 0.72352 0.76331 0.26518 0.0
C654 C 0.69657 0.77901 0.25427 0.0
C655 C 0.71435 0.73253 0.27155 0.0
N656 N 0.67057 0.75952 0.25412 0.0
C657 C 0.68174 0.7301 0.26471 0.0
C658 C 0.81599 0.74568 0.25757 0.0
O659 O 0.80477 0.78384 0.33384 0.0
O660 O 0.76125 0.75929 0.31831 0.0
O661 O 0.78517 0.74674 0.25549 0.0
O662 O 0.83001 0.76825 0.27208 0.0
O663 O 0.76394 0.80461 0.23074 0.0
H664 H 0.73003 0.71347 0.28175 0.0
H665 H 0.69604 0.80451 0.24724 0.0
O666 O 0.80965 0.82542 0.24594 0.0
O667 O 0.78394 0.84104 0.30686 0.0
O668 O 0.73906 0.81702 0.29372 0.0
C669 C 0.7529 0.84085 0.3062 0.0
H670 H 0.90687 0.87248 0.29352 0.0
H671 H 0.66719 0.70867 0.26849 0.0
Co672 Co 0.78108 0.27663 0.81109 0.0
C673 C 0.78957 0.2407 0.7547 0.0
Co674 Co 0.77532 0.30632 0.76473 0.0
C675 C 0.76929 0.26039 0.88005 0.0
C676 C 0.80725 0.22974 0.85868 0.0
N677 N 0.78484 0.253 0.85075 0.0
N678 N 0.78192 0.24395 0.9064 0.0
C679 C 0.80565 0.22427 0.89297 0.0
H680 H 0.75145 0.28017 0.88246 0.0
H681 H 0.82539 0.21951 0.84116 0.0
C682 C 0.7666 0.34246 0.82087 0.0
N683 N 0.77226 0.3296 0.72489 0.0
C684 C 0.79269 0.32483 0.69807 0.0
C685 C 0.74724 0.34808 0.71326 0.0
N686 N 0.78098 0.33819 0.66971 0.0
C687 C 0.75235 0.35302 0.67912 0.0
C688 C 0.71798 0.2804 0.78888 0.0
O689 O 0.7726 0.3155 0.83569 0.0
O690 O 0.76655 0.34393 0.78904 0.0
O691 O 0.73001 0.29805 0.76527 0.0
O692 O 0.73617 0.26886 0.81158 0.0
O693 O 0.78451 0.26785 0.74 0.0
H694 H 0.72526 0.35463 0.72784 0.0
H695 H 0.81362 0.30811 0.69844 0.0
O696 O 0.78898 0.23897 0.78653 0.0
O697 O 0.82656 0.28421 0.81021 0.0
O698 O 0.82004 0.3147 0.76493 0.0
C699 C 0.83834 0.30265 0.7872 0.0
H700 H 0.82248 0.20907 0.90709 0.0
H701 H 0.73483 0.36364 0.66206 0.0
Co702 Co 0.78704 0.76589 0.80069 0.0
C703 C 0.85204 0.7884 0.80297 0.0
Co704 Co 0.79344 0.81346 0.77678 0.0
C705 C 0.76824 0.7004 0.81241 0.0
C706 C 0.79401 0.71841 0.8537 0.0
N707 N 0.78311 0.72682 0.82309 0.0
N708 N 0.76928 0.67583 0.83516 0.0
C709 C 0.78531 0.687 0.86132 0.0
H710 H 0.75612 0.69948 0.78874 0.0
H711 H 0.80723 0.73416 0.86951 0.0
C712 C 0.7283 0.78991 0.77526 0.0
N713 N 0.79686 0.85191 0.75289 0.0
C714 C 0.81473 0.87822 0.75801 0.0
C715 C 0.78174 0.85836 0.72384 0.0
N716 N 0.81135 0.90075 0.73315 0.0
C717 C 0.7905 0.88833 0.71172 0.0
C718 C 0.80063 0.76071 0.73178 0.0
O719 O 0.74065 0.76671 0.79259 0.0
O720 O 0.74674 0.81335 0.76669 0.0
O721 O 0.80326 0.79112 0.73515 0.0
O722 O 0.79443 0.74357 0.75811 0.0
O723 O 0.84012 0.81329 0.78757 0.0
H724 H 0.76565 0.84206 0.71187 0.0
H725 H 0.83048 0.88039 0.77907 0.0
O726 O 0.83342 0.76449 0.80893 0.0
O727 O 0.77942 0.78855 0.843 0.0
O728 O 0.78402 0.83621 0.81831 0.0
C729 C 0.78002 0.81939 0.84532 0.0
H730 H 0.79039 0.67342 0.88418 0.0
H731 H 0.78204 0.90009 0.68897 0.0
Co732 Co 0.53586 0.55555 0.51823 0.0
C733 C 0.53102 0.59905 0.57224 0.0
Co734 Co 0.5443 0.53145 0.56624 0.0
C735 C 0.50398 0.57121 0.45767 0.0
C736 C 0.53868 0.60695 0.46922 0.0
N737 N 0.52775 0.57747 0.47885 0.0
N738 N 0.49872 0.59605 0.43584 0.0
C739 C 0.52087 0.61846 0.4427 0.0
H740 H 0.48993 0.54931 0.45922 0.0
H741 H 0.55675 0.6202 0.48217 0.0
C742 C 0.54888 0.48871 0.51052 0.0
N743 N 0.55183 0.51072 0.60638 0.0
C744 C 0.56856 0.52269 0.63156 0.0
C745 C 0.54099 0.48181 0.61797 0.0
N746 N 0.56842 0.50265 0.65867 0.0
C747 C 0.55126 0.47672 0.65024 0.0
C748 C 0.47868 0.52844 0.54894 0.0
O749 O 0.54474 0.51553 0.49445 0.0
O750 O 0.55028 0.48978 0.54251 0.0
O751 O 0.49841 0.52252 0.57235 0.0
O752 O 0.48955 0.54363 0.52283 0.0
O753 O 0.53828 0.57359 0.58953 0.0
H754 H 0.52606 0.46584 0.60412 0.0
H755 H 0.58061 0.54578 0.62996 0.0
O756 O 0.52677 0.59556 0.54116 0.0
O757 O 0.58203 0.56724 0.51411 0.0
O758 O 0.59038 0.54014 0.56079 0.0
C759 C 0.6016 0.55804 0.53686 0.0
H760 H 0.52291 0.64218 0.43076 0.0
H761 H 0.54575 0.45605 0.6665 0.0
Co762 Co 0.02291 0.53815 0.02677 0.0
C763 C 0.03591 0.60481 0.0155 0.0
Co764 Co 0.0663 0.55348 0.05212 0.0
C765 C 0.96565 0.50264 0.01704 0.0
C766 C 0.97577 0.53417 0.97479 0.0
N767 N 0.98648 0.52533 0.00536 0.0
N768 N 0.94257 0.49651 0.99495 0.0
C769 C 0.94856 0.51651 0.96835 0.0
H770 H 0.96746 0.49076 0.04143 0.0
H771 H 0.98741 0.55177 0.95804 0.0
C772 C 0.05268 0.48672 0.06373 0.0
N773 N 0.10308 0.56552 0.07355 0.0
C774 C 0.12932 0.5804 0.05949 0.0
C775 C 0.11106 0.55869 0.1055 0.0
N776 N 0.1537 0.58276 0.08118 0.0
C777 C 0.14219 0.5693 0.11029 0.0
C778 C 0.01013 0.55924 0.09096 0.0
O779 O 0.03064 0.49334 0.04267 0.0
O780 O 0.07127 0.50961 0.07147 0.0
O781 O 0.04035 0.5654 0.08922 0.0
O782 O 0.99701 0.54633 0.0663 0.0
O783 O 0.06093 0.59749 0.03273 0.0
H784 H 0.09569 0.54584 0.12376 0.0
H785 H 0.1306 0.58881 0.03357 0.0
O786 O 0.01533 0.58264 0.01114 0.0
O787 O 0.04878 0.53072 0.98732 0.0
O788 O 0.09244 0.54188 0.01475 0.0
C789 C 0.07948 0.53457 0.98767 0.0
H790 H 0.93483 0.51766 0.94561 0.0
H791 H 0.15568 0.56617 0.13305 0.0
C792 C 0.04603 0.1764 0.11965 0.0
C793 C 0.03477 0.20318 0.10012 0.0
H794 H 0.05442 0.12443 0.1233 0.0
C795 C 0.02242 0.19643 0.06845 0.0
H796 H 0.05561 0.18029 0.14419 0.0
C797 C 0.02168 0.16452 0.05654 0.0
C798 C 0.03303 0.1377 0.07579 0.0
H799 H 0.01339 0.21599 0.05243 0.0
H800 H 0.01233 0.16096 0.03183 0.0
C801 C 0.04513 0.1442 0.10771 0.0
C802 C 0.15663 0.73929 0.3259 0.0
C803 C 0.15948 0.7325 0.36031 0.0
H804 H 0.18166 0.74622 0.27854 0.0
C805 C 0.18964 0.72137 0.37244 0.0
H806 H 0.13331 0.74708 0.31591 0.0
C807 C 0.21755 0.72111 0.35108 0.0
C808 C 0.21534 0.73158 0.31738 0.0
H809 H 0.19218 0.71551 0.39887 0.0
H810 H 0.24117 0.71558 0.36167 0.0
C811 C 0.18429 0.73832 0.30444 0.0
C812 C 0.5306 0.89563 0.59707 0.0
C813 C 0.55162 0.89032 0.62406 0.0
H814 H 0.51137 0.92968 0.56038 0.0
C815 C 0.57059 0.91662 0.63339 0.0
H816 H 0.51543 0.87624 0.58915 0.0
C817 C 0.56848 0.94707 0.61686 0.0
C818 C 0.54702 0.95278 0.59042 0.0
H819 H 0.58718 0.91381 0.65391 0.0
H820 H 0.58346 0.9664 0.62529 0.0
C821 C 0.52819 0.92644 0.58064 0.0
C822 C 0.46964 0.34381 0.84832 0.0
C823 C 0.46401 0.33122 0.88107 0.0
H824 H 0.44793 0.35986 0.80243 0.0
C825 C 0.43188 0.32858 0.89417 0.0
H826 H 0.49434 0.34644 0.83789 0.0
C827 C 0.40566 0.33595 0.87379 0.0
C828 C 0.41136 0.34665 0.84046 0.0
H829 H 0.427 0.31907 0.91937 0.0
H830 H 0.38091 0.33201 0.88348 0.0
C831 C 0.44334 0.35179 0.82818 0.0
C832 C 0.9998 0.85308 0.47265 0.0
C833 C 0.03281 0.84567 0.46383 0.0
H834 H 0.96471 0.88897 0.48997 0.0
C835 C 0.05643 0.86917 0.46823 0.0
H836 H 0.98093 0.83552 0.46952 0.0
C837 C 0.04707 0.8998 0.48014 0.0
C838 C 0.01386 0.90767 0.48776 0.0
H839 H 0.08207 0.86416 0.46183 0.0
H840 H 0.06596 0.91729 0.48326 0.0
C841 C 0.99043 0.88374 0.48442 0.0
C842 C 0.41482 0.76821 0.69376 0.0
C843 C 0.44112 0.78616 0.70488 0.0
H844 H 0.36431 0.75585 0.70027 0.0
C845 C 0.43517 0.80625 0.73277 0.0
H846 H 0.41824 0.75238 0.67248 0.0
C847 C 0.40366 0.80857 0.74864 0.0
C848 C 0.37743 0.79051 0.73734 0.0
H849 H 0.45468 0.82055 0.74199 0.0
H850 H 0.3999 0.82439 0.76989 0.0
C851 C 0.38367 0.77019 0.70978 0.0
C852 C 0.55903 0.17951 0.93451 0.0
C853 C 0.58077 0.20169 0.94717 0.0
H854 H 0.53889 0.13209 0.93946 0.0
C855 C 0.60139 0.1918 0.97304 0.0
H856 H 0.54314 0.18653 0.91427 0.0
C857 C 0.59864 0.16093 0.98769 0.0
C858 C 0.57579 0.13929 0.97613 0.0
H859 H 0.61844 0.20843 0.98314 0.0
H860 H 0.61357 0.15439 0.00885 0.0
C861 C 0.55682 0.14834 0.94866 0.0
C862 C 0.14745 0.2812 0.23728 0.0
C863 C 0.14285 0.30526 0.212 0.0
H864 H 0.17933 0.26065 0.27478 0.0
C865 C 0.16709 0.32886 0.20761 0.0
H866 H 0.12952 0.2625 0.24141 0.0
C867 C 0.19518 0.32817 0.22698 0.0
C868 C 0.20066 0.30352 0.25136 0.0
H869 H 0.1646 0.34794 0.18868 0.0
H870 H 0.21321 0.34663 0.22196 0.0
C871 C 0.17611 0.28015 0.25645 0.0
C872 C 0.14467 0.99058 0.21106 0.0
C873 C 0.1516 0.02213 0.22107 0.0
H874 H 0.11826 0.96141 0.17811 0.0
C875 C 0.13785 0.04891 0.20387 0.0
H876 H 0.15498 0.96943 0.22383 0.0
C877 C 0.11649 0.04424 0.17808 0.0
C878 C 0.10863 0.01272 0.16882 0.0
H879 H 0.14253 0.07349 0.21113 0.0
H880 H 0.10536 0.0654 0.16613 0.0
C881 C 0.12332 0.98593 0.1852 0.0
C882 C 0.33921 0.81925 0.47715 0.0
C883 C 0.30643 0.82151 0.48912 0.0
H884 H 0.37225 0.80416 0.43735 0.0
C885 C 0.28257 0.80431 0.473 0.0
H886 H 0.35819 0.83212 0.48922 0.0
C887 C 0.29075 0.78774 0.44358 0.0
C888 C 0.32279 0.78865 0.42933 0.0
H889 H 0.25722 0.80511 0.48211 0.0
H890 H 0.27151 0.77582 0.43097 0.0
C891 C 0.34731 0.80309 0.44739 0.0
C892 C 0.43631 0.05708 0.66286 0.0
C893 C 0.44907 0.07601 0.68792 0.0
H894 H 0.4435 0.03835 0.61339 0.0
C895 C 0.47818 0.09271 0.68132 0.0
H896 H 0.41368 0.04427 0.66728 0.0
C897 C 0.49523 0.08923 0.65074 0.0
C898 C 0.48321 0.0693 0.62616 0.0
H899 H 0.48844 0.10765 0.70015 0.0
H900 H 0.51825 0.10147 0.64668 0.0
C901 C 0.4532 0.05392 0.63201 0.0
C902 C 0.269 0.22317 0.92806 0.0
C903 C 0.29896 0.2261 0.94415 0.0
H904 H 0.24098 0.23436 0.88426 0.0
C905 C 0.32351 0.24447 0.92749 0.0
H906 H 0.24956 0.20908 0.93986 0.0
C907 C 0.3185 0.25918 0.89586 0.0
C908 C 0.28891 0.25573 0.87933 0.0
H909 H 0.34691 0.2474 0.93885 0.0
H910 H 0.33823 0.27292 0.88411 0.0
C911 C 0.26414 0.23756 0.89601 0.0
C912 C 0.07931 0.02865 0.37281 0.0
C913 C 0.09946 0.05414 0.36181 0.0
H914 H 0.04678 0.0108 0.41167 0.0
C915 C 0.09621 0.08434 0.37729 0.0
H916 H 0.08098 0.00532 0.36071 0.0
C917 C 0.07685 0.08741 0.40662 0.0
C918 C 0.06042 0.0604 0.42034 0.0
H919 H 0.11119 0.10449 0.36895 0.0
H920 H 0.07717 0.10997 0.4201 0.0
C921 C 0.05968 0.03182 0.4019 0.0
C922 C 0.22027 0.84437 0.65379 0.0
C923 C 0.23966 0.86941 0.64035 0.0
H924 H 0.21266 0.81032 0.6944 0.0
C925 C 0.26351 0.88277 0.66017 0.0
H926 H 0.20166 0.83372 0.63911 0.0
C927 C 0.26931 0.86982 0.69215 0.0
C928 C 0.25181 0.84293 0.70426 0.0
H929 H 0.27855 0.90235 0.65042 0.0
H930 H 0.28895 0.87934 0.70631 0.0
C931 C 0.22657 0.83098 0.68537 0.0
C932 C 0.47567 0.9963 0.84384 0.0
C933 C 0.47165 0.02772 0.83009 0.0
H934 H 0.4951 0.96732 0.88393 0.0
C935 C 0.48891 0.05336 0.84296 0.0
H936 H 0.46266 0.97611 0.83419 0.0
C937 C 0.50763 0.04827 0.87106 0.0
C938 C 0.50908 0.01756 0.88692 0.0
H939 H 0.48669 0.07769 0.83228 0.0
H940 H 0.51976 0.0687 0.88127 0.0
C941 C 0.49424 0.99126 0.87223 0.0
C942 C 0.29329 0.20978 0.15663 0.0
C943 C 0.30231 0.22916 0.1283 0.0
H944 H 0.28754 0.2061 0.21064 0.0
C945 C 0.31375 0.26047 0.13426 0.0
H946 H 0.28451 0.18553 0.15333 0.0
C947 C 0.31561 0.27221 0.16705 0.0
C948 C 0.3063 0.25311 0.19541 0.0
H949 H 0.32109 0.2763 0.11343 0.0
H950 H 0.32399 0.29667 0.1701 0.0
C951 C 0.29528 0.22155 0.18964 0.0
C952 C 0.17792 0.1129 0.98952 0.0
C953 C 0.19871 0.11258 0.01709 0.0
H954 H 0.13268 0.09833 0.96938 0.0
C955 C 0.18879 0.09449 0.04599 0.0
H956 H 0.18438 0.12638 0.9667 0.0
C957 C 0.15882 0.0779 0.04736 0.0
C958 C 0.13775 0.07904 0.01996 0.0
H959 H 0.20393 0.09353 0.06775 0.0
H960 H 0.15175 0.0649 0.0703 0.0
C961 C 0.14805 0.09662 0.99097 0.0
C962 C 0.70222 0.49904 0.06142 0.0
C963 C 0.70203 0.4671 0.04972 0.0
H964 H 0.67337 0.54034 0.07802 0.0
C965 C 0.67197 0.45219 0.04568 0.0
H966 H 0.72512 0.51105 0.06478 0.0
C967 C 0.64268 0.46858 0.05379 0.0
C968 C 0.64274 0.50041 0.06569 0.0
H969 H 0.67099 0.42754 0.03689 0.0
H970 H 0.61994 0.45625 0.0505 0.0
C971 C 0.67271 0.51571 0.0691 0.0
C972 C 0.81186 0.4831 0.26566 0.0
C973 C 0.82807 0.50295 0.28746 0.0
H974 H 0.79058 0.43699 0.25906 0.0
C975 C 0.83049 0.49346 0.32144 0.0
H976 H 0.80922 0.48999 0.23949 0.0
C977 C 0.82015 0.46301 0.3325 0.0
C978 C 0.80725 0.44175 0.30976 0.0
H979 H 0.84245 0.50858 0.33896 0.0
H980 H 0.82446 0.45525 0.35813 0.0
C981 C 0.80155 0.45265 0.27676 0.0
C982 C 0.90064 0.61567 0.58646 0.0
C983 C 0.87948 0.61481 0.55929 0.0
H984 H 0.94757 0.6027 0.60598 0.0
C985 C 0.89075 0.59837 0.53027 0.0
H986 H 0.8931 0.62809 0.60928 0.0
C987 C 0.92227 0.58342 0.52853 0.0
C988 C 0.94351 0.58477 0.55562 0.0
H989 H 0.87531 0.59716 0.50884 0.0
H990 H 0.93017 0.57121 0.5057 0.0
C991 C 0.9321 0.60107 0.5846 0.0
C992 C 0.26525 0.10263 0.28829 0.0
C993 C 0.25161 0.0838 0.31474 0.0
H994 H 0.28344 0.14901 0.27278 0.0
C995 C 0.24845 0.09675 0.34708 0.0
H996 H 0.26792 0.09322 0.26311 0.0
C997 C 0.25708 0.12859 0.35253 0.0
C998 C 0.26886 0.1481 0.32572 0.0
H999 H 0.23811 0.08268 0.36799 0.0
H1000 H 0.25314 0.13837 0.3774 0.0
C1001 C 0.27368 0.13464 0.29372 0.0
C1002 C 0.35362 0.96136 0.501 0.0
C1003 C 0.3415 0.96272 0.53449 0.0
H1004 H 0.39209 0.97453 0.46559 0.0
C1005 C 0.35802 0.98091 0.55758 0.0
H1006 H 0.3413 0.94759 0.48258 0.0
C1007 C 0.38684 0.99634 0.54777 0.0
C1008 C 0.39981 0.99381 0.51472 0.0
H1009 H 0.34908 0.98277 0.58343 0.0
H1010 H 0.39918 0.00999 0.56624 0.0
C1011 C 0.38257 0.97685 0.49118 0.0
C1012 C 0.88068 0.68001 0.25705 0.0
C1013 C 0.86476 0.65552 0.24063 0.0
H1014 H 0.8778 0.72852 0.27454 0.0
C1015 C 0.83527 0.66254 0.22479 0.0
H1016 H 0.90378 0.67508 0.26894 0.0
C1017 C 0.82013 0.693 0.22836 0.0
C1018 C 0.83474 0.71667 0.24729 0.0
H1019 H 0.82277 0.6439 0.21183 0.0
H1020 H 0.79626 0.69739 0.2179 0.0
C1021 C 0.86589 0.71056 0.2601 0.0
C1022 C 0.74344 0.4288 0.83814 0.0
C1023 C 0.72134 0.42522 0.86579 0.0
H1024 H 0.77548 0.405 0.80236 0.0
C1025 C 0.71956 0.39505 0.88276 0.0
H1026 H 0.74591 0.45197 0.82502 0.0
C1027 C 0.73698 0.36807 0.86987 0.0
C1028 C 0.75604 0.37119 0.8399 0.0
H1029 H 0.70288 0.39172 0.90427 0.0
H1030 H 0.73334 0.34445 0.88168 0.0
C1031 C 0.76046 0.40198 0.82518 0.0
C1032 C 0.04778 0.93028 0.93122 0.0
C1033 C 0.0464 0.90004 0.94857 0.0
H1034 H 0.05074 0.98209 0.93351 0.0
C1035 C 0.04823 0.90051 0.9839 0.0
H1036 H 0.04651 0.93145 0.90411 0.0
C1037 C 0.05105 0.93018 1.00105 0.0
C1038 C 0.05195 0.96038 0.98346 0.0
H1039 H 0.04734 0.87799 0.99837 0.0
H1040 H 0.05188 0.92948 0.02819 0.0
C1041 C 0.05035 0.95968 0.94822 0.0
C1042 C 0.92262 0.28248 0.75627 0.0
C1043 C 0.93434 0.31372 0.74965 0.0
H1044 H 0.88247 0.2545 0.77565 0.0
C1045 C 0.91697 0.34093 0.76217 0.0
H1046 H 0.93595 0.26126 0.74683 0.0
C1047 C 0.88624 0.33711 0.77791 0.0
C1048 C 0.87346 0.30601 0.78225 0.0
H1049 H 0.92572 0.36521 0.75711 0.0
H1050 H 0.87148 0.35846 0.78446 0.0
C1051 C 0.89241 0.2786 0.77302 0.0
C1052 C 0.55115 0.19005 0.48705 0.0
C1053 C 0.5222 0.19836 0.47014 0.0
H1054 H 0.57776 0.15396 0.51615 0.0
C1055 C 0.4977 0.1748 0.47018 0.0
H1056 H 0.57066 0.2073 0.48772 0.0
C1057 C 0.50188 0.14422 0.4861 0.0
C1058 C 0.53062 0.13581 0.50313 0.0
H1059 H 0.47505 0.17981 0.4575 0.0
H1060 H 0.48228 0.12709 0.48509 0.0
C1061 C 0.5552 0.15935 0.50346 0.0
C1062 C 0.59643 0.8111 0.23517 0.0
C1063 C 0.57523 0.78791 0.2237 0.0
H1064 H 0.64295 0.82019 0.25492 0.0
C1065 C 0.58477 0.75492 0.22476 0.0
H1066 H 0.58947 0.83667 0.23492 0.0
C1067 C 0.61581 0.74547 0.23542 0.0
C1068 C 0.63768 0.76882 0.24555 0.0
H1069 H 0.56892 0.73654 0.21582 0.0
H1070 H 0.62304 0.72005 0.23448 0.0
C1071 C 0.62724 0.80163 0.24625 0.0
C1072 C 0.03646 0.22011 0.60904 0.0
C1073 C 0.04412 0.2508 0.59565 0.0
H1074 H 0.04294 0.16903 0.60519 0.0
C1075 C 0.06531 0.25323 0.56715 0.0
H1076 H 0.02101 0.21749 0.6316 0.0
C1077 C 0.07754 0.22511 0.55144 0.0
C1078 C 0.06901 0.19438 0.56444 0.0
H1079 H 0.07188 0.27676 0.5567 0.0
H1080 H 0.09277 0.22739 0.52873 0.0
C1081 C 0.04909 0.19229 0.59388 0.0
C1082 C 0.64085 0.27854 0.34269 0.0
C1083 C 0.63651 0.30229 0.36764 0.0
H1084 H 0.67345 0.25674 0.305 0.0
C1085 C 0.66254 0.3233 0.37218 0.0
H1086 H 0.62149 0.26179 0.33851 0.0
C1087 C 0.6919 0.32067 0.35292 0.0
C1088 C 0.6968 0.29661 0.32848 0.0
H1089 H 0.66036 0.34197 0.39093 0.0
H1090 H 0.71113 0.3374 0.35773 0.0
C1091 C 0.67073 0.27556 0.32354 0.0
C1092 C 0.52153 0.95884 0.14348 0.0
C1093 C 0.51621 0.9291 0.12835 0.0
H1094 H 0.53039 0.00941 0.13592 0.0
C1095 C 0.51369 0.92803 0.09332 0.0
H1096 H 0.52342 0.96034 0.17045 0.0
C1097 C 0.51738 0.95604 0.07362 0.0
C1098 C 0.52385 0.98559 0.08859 0.0
H1099 H 0.50925 0.90547 0.08098 0.0
H1100 H 0.51603 0.95431 0.04661 0.0
C1101 C 0.52544 0.9869 0.12372 0.0
C1102 C 0.93165 0.81356 0.84368 0.0
C1103 C 0.94777 0.78332 0.84944 0.0
H1104 H 0.88958 0.8392 0.82362 0.0
C1105 C 0.93263 0.75538 0.83812 0.0
H1106 H 0.94244 0.83567 0.8518 0.0
C1107 C 0.90229 0.75735 0.82247 0.0
C1108 C 0.88609 0.78742 0.81661 0.0
H1109 H 0.94397 0.73159 0.84198 0.0
H1110 H 0.89133 0.73505 0.81509 0.0
C1111 C 0.90144 0.81561 0.82715 0.0
C1112 C 0.95635 0.10375 0.8423 0.0
C1113 C 0.95137 0.07194 0.8319 0.0
H1114 H 0.9778 0.13383 0.87819 0.0
C1115 C 0.96511 0.04566 0.84989 0.0
H1116 H 0.94603 0.1245 0.82886 0.0
C1117 C 0.98349 0.05106 0.87783 0.0
C1118 C 0.98835 0.08283 0.8884 0.0
H1119 H 0.96193 0.02089 0.84229 0.0
H1120 H 0.99419 0.03033 0.89092 0.0
C1121 C 0.97472 0.10915 0.87034 0.0
C1122 C 0.83286 0.3015 0.60121 0.0
C1123 C 0.80959 0.28267 0.58614 0.0
H1124 H 0.84145 0.33479 0.6405 0.0
C1125 C 0.77618 0.28752 0.59473 0.0
H1126 H 0.85875 0.29819 0.59485 0.0
C1127 C 0.76632 0.30909 0.61983 0.0
C1128 C 0.78978 0.32557 0.63728 0.0
H1129 H 0.75775 0.27353 0.58307 0.0
H1130 H 0.74066 0.31057 0.62769 0.0
C1131 C 0.82301 0.32255 0.62699 0.0
C1132 C 0.65165 0.01999 0.4419 0.0
C1133 C 0.63754 0.01731 0.41061 0.0
H1134 H 0.64286 0.02505 0.49478 0.0
C1135 C 0.60352 0.01397 0.40886 0.0
H1136 H 0.67789 0.02235 0.44377 0.0
C1137 C 0.5836 0.01509 0.43781 0.0
C1138 C 0.59739 0.01993 0.46893 0.0
H1139 H 0.59214 0.01124 0.38497 0.0
H1140 H 0.55731 0.01363 0.43555 0.0
C1141 C 0.63163 0.0215 0.47096 0.0
C1142 C 0.77474 0.85856 0.1348 0.0
C1143 C 0.80553 0.87201 0.12644 0.0
H1144 H 0.74504 0.83211 0.17157 0.0
C1145 C 0.83004 0.86868 0.15033 0.0
H1146 H 0.75518 0.86057 0.11719 0.0
C1147 C 0.82414 0.85287 0.18142 0.0
C1148 C 0.79356 0.83928 0.18994 0.0
H1149 H 0.85403 0.87868 0.14523 0.0
H1150 H 0.84389 0.8512 0.19884 0.0
C1151 C 0.76891 0.84218 0.16603 0.0
C1152 C 0.99248 0.08122 0.66126 0.0
C1153 C 0.9793 0.05294 0.67586 0.0
H1154 H 0.02008 0.10189 0.61993 0.0
C1155 C 0.98749 0.02266 0.66196 0.0
H1156 H 0.98676 0.10478 0.67189 0.0
C1157 C 1.00613 0.02101 0.63199 0.0
C1158 C 0.01737 0.04956 0.6161 0.0
H1159 H 0.97767 1.00052 0.67293 0.0
H1160 H 0.01027 0.99765 0.62035 0.0
C1161 C 0.01176 0.0795 0.63175 0.0
C1162 C 0.82066 0.24609 0.42551 0.0
C1163 C 0.81713 0.21227 0.4277 0.0
H1164 H 0.82125 0.28853 0.39389 0.0
C1165 C 0.81428 0.19473 0.3982 0.0
H1166 H 0.82341 0.2602 0.44783 0.0
C1167 C 0.81301 0.21103 0.36717 0.0
C1168 C 0.81485 0.24507 0.36525 0.0
H1169 H 0.81176 0.16862 0.39917 0.0
H1170 H 0.80938 0.19708 0.34492 0.0
C1171 C 0.81966 0.26232 0.39457 0.0
C1172 C 0.61246 0.10893 0.22978 0.0
C1173 C 0.61114 0.07635 0.24083 0.0
H1174 H 0.60259 0.14317 0.18991 0.0
C1175 C 0.59512 0.05389 0.22173 0.0
H1176 H 0.62467 0.12675 0.24415 0.0
C1177 C 0.58237 0.06334 0.19111 0.0
C1178 C 0.58572 0.09533 0.17879 0.0
H1179 H 0.59327 0.02875 0.22997 0.0
H1180 H 0.57059 0.04533 0.17665 0.0
C1181 C 0.59984 0.11837 0.19886 0.0
C1182 C 0.78841 0.88151 0.91537 0.0
C1183 C 0.78218 0.86272 0.94483 0.0
H1184 H 0.79218 0.88307 0.86124 0.0
C1185 C 0.77402 0.82998 0.94085 0.0
H1186 H 0.79465 0.90678 0.91715 0.0
C1187 C 0.77265 0.81636 0.90882 0.0
C1188 C 0.77906 0.83497 0.87935 0.0
H1189 H 0.76898 0.81452 0.96266 0.0
H1190 H 0.76682 0.79095 0.90722 0.0
C1191 C 0.78677 0.86789 0.88317 0.0
C1192 C 0.90501 0.99219 0.07877 0.0
C1193 C 0.88677 0.986 0.05028 0.0
H1194 H 0.94896 0.01087 0.09835 0.0
C1195 C 0.90002 0.99603 0.01867 0.0
H1196 H 0.89587 0.98488 0.10359 0.0
C1197 C 0.93039 0.0118 0.01576 0.0
C1198 C 0.94882 0.01744 0.04429 0.0
H1199 H 0.88681 0.99189 0.99614 0.0
H1200 H 0.93982 0.01888 0.99098 0.0
C1201 C 0.93559 0.00725 0.0758 0.0
C1202 C 0.43502 0.63748 0.0906 0.0
C1203 C 0.41022 0.62617 0.07075 0.0
H1204 H 0.48246 0.62794 0.11031 0.0
C1205 C 0.41269 0.59432 0.05871 0.0
H1206 H 0.43365 0.66186 0.10033 0.0
C1207 C 0.44024 0.57463 0.06511 0.0
C1208 C 0.46602 0.58679 0.083 0.0
H1209 H 0.39367 0.58487 0.04367 0.0
H1210 H 0.44218 0.55067 0.05441 0.0
C1211 C 0.46289 0.61809 0.09633 0.0
C1212 C 0.25626 0.59216 0.72662 0.0
C1213 C 0.26486 0.58104 0.7588 0.0
H1214 H 0.25244 0.63345 0.69325 0.0
C1215 C 0.28347 0.60063 0.7787 0.0
H1216 H 0.24192 0.5774 0.71077 0.0
C1217 C 0.28941 0.63247 0.76865 0.0
C1218 C 0.27664 0.64509 0.73871 0.0
H1219 H 0.29077 0.59232 0.80338 0.0
H1220 H 0.30188 0.64791 0.78544 0.0
C1221 C 0.26206 0.62422 0.71665 0.0
C1222 C 0.1865 0.49611 0.5574 0.0
C1223 C 0.19301 0.47764 0.52832 0.0
H1224 H 0.15142 0.52599 0.58559 0.0
C1225 C 0.16834 0.4766 0.50467 0.0
H1226 H 0.20483 0.49748 0.57624 0.0
C1227 C 0.1381 0.4928 0.50994 0.0
C1228 C 0.13109 0.51077 0.53915 0.0
H1229 H 0.17219 0.4629 0.48188 0.0
H1230 H 0.11996 0.49083 0.49097 0.0
C1231 C 0.15586 0.51246 0.56278 0.0
C1232 C 0.84654 0.97623 0.6943 0.0
C1233 C 0.85574 0.9926 0.72283 0.0
H1234 H 0.82578 0.9337 0.67522 0.0
C1235 C 0.85066 0.97806 0.75478 0.0
H1236 H 0.85039 0.98674 0.66936 0.0
C1237 C 0.83636 0.94781 0.75816 0.0
C1238 C 0.82689 0.93152 0.72968 0.0
H1239 H 0.85751 0.99012 0.77728 0.0
H1240 H 0.83217 0.93749 0.78311 0.0
C1241 C 0.83229 0.94593 0.6977 0.0
C1242 C 0.71977 0.1328 0.60853 0.0
C1243 C 0.73297 0.13729 0.57575 0.0
H1244 H 0.68122 0.11275 0.6396 0.0
C1245 C 0.71787 0.12293 0.5489 0.0
H1246 H 0.73092 0.14361 0.62972 0.0
C1247 C 0.68972 0.10499 0.5546 0.0
C1248 C 0.67585 0.10123 0.58724 0.0
H1249 H 0.72772 0.12562 0.52339 0.0
H1250 H 0.67888 0.09406 0.53335 0.0
C1251 C 0.6914 0.11499 0.61422 0.0
C1252 C 0.18052 0.40738 0.8214 0.0
C1253 C 0.19927 0.43265 0.83278 0.0
H1254 H 0.18129 0.35814 0.80511 0.0
C1255 C 0.23144 0.42638 0.84263 0.0
H1256 H 0.15557 0.41192 0.81384 0.0
C1257 C 0.24599 0.39604 0.83781 0.0
C1258 C 0.22859 0.37166 0.82288 0.0
H1259 H 0.24603 0.44553 0.85213 0.0
H1260 H 0.27153 0.39238 0.84377 0.0
C1261 C 0.19523 0.37681 0.81638 0.0
C1262 C 0.40207 0.69738 0.23154 0.0
C1263 C 0.39112 0.67013 0.21513 0.0
H1264 H 0.38807 0.74107 0.25692 0.0
C1265 C 0.35847 0.66948 0.20518 0.0
H1266 H 0.42709 0.69849 0.23951 0.0
C1267 C 0.33621 0.6941 0.21489 0.0
C1268 C 0.34643 0.71896 0.23521 0.0
H1269 H 0.34961 0.64864 0.19245 0.0
H1270 H 0.31065 0.69227 0.20894 0.0
C1271 C 0.37969 0.72142 0.24201 0.0
C1272 C 0.54326 0.67285 0.62894 0.0
C1273 C 0.53277 0.69919 0.6083 0.0
H1274 H 0.55073 0.62082 0.63443 0.0
C1275 C 0.52057 0.69162 0.57682 0.0
H1276 H 0.55269 0.6774 0.6534 0.0
C1277 C 0.51931 0.6594 0.56609 0.0
C1278 C 0.53004 0.63299 0.58632 0.0
H1279 H 0.51207 0.71077 0.56 0.0
H1280 H 0.51013 0.65527 0.54141 0.0
C1281 C 0.54189 0.64026 0.61813 0.0
C1282 C 0.63836 0.24778 0.82053 0.0
C1283 C 0.62073 0.27699 0.82574 0.0
H1284 H 0.68435 0.2261 0.80426 0.0
C1285 C 0.63272 0.30616 0.81206 0.0
H1286 H 0.62944 0.2251 0.83113 0.0
C1287 C 0.66344 0.30653 0.79567 0.0
C1288 C 0.68266 0.2779 0.79396 0.0
H1289 H 0.61925 0.32888 0.81589 0.0
H1290 H 0.67346 0.32963 0.78755 0.0
C1291 C 0.66956 0.24832 0.80517 0.0
C1292 C 0.03799 0.39678 0.08885 0.0
C1293 C 0.05634 0.39272 0.11804 0.0
H1294 H 0.02196 0.4293 0.04915 0.0
C1295 C 0.07461 0.41936 0.12774 0.0
H1296 H 0.02339 0.37711 0.0806 0.0
C1297 C 0.07424 0.44904 0.10952 0.0
C1298 C 0.05511 0.45366 0.08103 0.0
H1299 H 0.08916 0.41745 0.14992 0.0
H1300 H 0.08836 0.46877 0.11846 0.0
C1301 C 0.03713 0.42688 0.07084 0.0
C1302 C 0.98513 0.81721 0.33886 0.0
C1303 C 0.99241 0.78374 0.33606 0.0
H1304 H 0.94953 0.85571 0.33254 0.0
C1305 C 0.9702 0.76398 0.32068 0.0
H1306 H 1.00193 0.83319 0.35036 0.0
C1307 C 0.9403 0.77704 0.31039 0.0
C1308 C 0.93207 0.81003 0.31537 0.0
H1309 H 0.97527 0.73823 0.31783 0.0
H1310 H 0.92332 0.76109 0.29922 0.0
C1311 C 0.9552 0.83023 0.3286 0.0
C1312 C 0.55347 0.37676 0.98744 0.0
C1313 C 0.54541 0.34538 0.99864 0.0
H1314 H 0.55138 0.42717 0.99688 0.0
C1315 C 0.53008 0.34118 0.0306 0.0
H1316 H 0.5649 0.38102 0.96281 0.0
C1317 C 0.52268 0.36806 0.05077 0.0
C1318 C 0.53036 0.39952 0.03918 0.0
H1319 H 0.5234 0.31725 0.03983 0.0
H1320 H 0.51108 0.36421 0.07535 0.0
C1321 C 0.54577 0.40341 0.00722 0.0
C1322 C 0.91903 0.26219 0.19945 0.0
C1323 C 0.9441 0.28411 0.20506 0.0
H1324 H 0.86985 0.24755 0.21064 0.0
C1325 C 0.93715 0.3091 0.22815 0.0
H1326 H 0.92311 0.24255 0.18202 0.0
C1327 C 0.90594 0.31211 0.24474 0.0
C1328 C 0.88093 0.29008 0.23885 0.0
H1329 H 0.95566 0.32652 0.23315 0.0
H1330 H 0.90141 0.33171 0.26213 0.0
C1331 C 0.88819 0.26506 0.21602 0.0
C1332 C 0.0508 0.66794 0.4534 0.0
C1333 C 0.06369 0.69347 0.47125 0.0
H1334 H 0.03784 0.6179 0.45408 0.0
C1335 C 0.07439 0.68751 0.5039 0.0
H1336 H 0.04263 0.67178 0.42803 0.0
C1337 C 0.07179 0.65674 0.51867 0.0
C1338 C 0.05856 0.63127 0.50104 0.0
H1339 H 0.08461 0.70664 0.51818 0.0
H1340 H 0.07983 0.65304 0.54411 0.0
C1341 C 0.04835 0.63703 0.46815 0.0
C1342 C 0.64421 0.75696 0.75601 0.0
C1343 C 0.63149 0.78021 0.7331 0.0
H1344 H 0.68375 0.7418 0.78724 0.0
C1345 C 0.65034 0.80784 0.72567 0.0
H1346 H 0.63067 0.73535 0.76261 0.0
C1347 C 0.68115 0.8116 0.74006 0.0
C1348 C 0.69408 0.7879 0.76242 0.0
H1349 H 0.6416 0.82633 0.70823 0.0
H1350 H 0.69517 0.8328 0.73305 0.0
C1351 C 0.67484 0.76072 0.77036 0.0
C1352 C 0.60804 0.48847 0.74099 0.0
C1353 C 0.61207 0.52046 0.75145 0.0
H1354 H 0.59116 0.45776 0.703 0.0
C1355 C 0.60109 0.54645 0.73116 0.0
H1356 H 0.61628 0.46788 0.75611 0.0
C1357 C 0.58657 0.54056 0.70085 0.0
C1358 C 0.58278 0.50858 0.69024 0.0
H1359 H 0.60368 0.57135 0.73864 0.0
H1360 H 0.578 0.5611 0.68592 0.0
C1361 C 0.59349 0.4826 0.71069 0.0
C1362 C 0.74976 0.2924 0.97813 0.0
C1363 C 0.77867 0.29674 0.99524 0.0
H1364 H 0.72767 0.27008 0.937 0.0
C1365 C 0.80637 0.27699 0.98761 0.0
H1366 H 0.72784 0.30687 0.9841 0.0
C1367 C 0.80646 0.25634 0.96021 0.0
C1368 C 0.77871 0.25503 0.94041 0.0
H1369 H 0.8289 0.27972 1.00069 0.0
H1370 H 0.82922 0.24404 0.95271 0.0
C1371 C 0.74966 0.27133 0.95124 0.0
C1372 C 0.94771 0.55087 0.16223 0.0
C1373 C 0.96121 0.5705 0.18631 0.0
H1374 H 0.95251 0.53231 0.11243 0.0
C1375 C 0.98935 0.5881 0.17788 0.0
H1376 H 0.92578 0.53731 0.16808 0.0
C1377 C 1.00448 0.58527 0.14627 0.0
C1378 C 0.99161 0.56497 0.12248 0.0
H1379 H 1.00013 0.60361 0.19588 0.0
H1380 H 0.02666 0.59855 0.1407 0.0
C1381 C 0.96276 0.54824 0.13038 0.0
C1382 C 0.79821 0.73558 0.43178 0.0
C1383 C 0.77589 0.71024 0.43684 0.0
H1384 H 0.81802 0.7721 0.39773 0.0
C1385 C 0.75541 0.70352 0.41019 0.0
H1386 H 0.81449 0.74148 0.45147 0.0
C1387 C 0.75723 0.72112 0.3796 0.0
C1388 C 0.77985 0.74603 0.37415 0.0
H1389 H 0.73779 0.68436 0.41285 0.0
H1390 H 0.74103 0.71482 0.35996 0.0
C1391 C 0.80029 0.75308 0.40081 0.0
C1392 C 0.58161 0.56924 0.92834 0.0
C1393 C 0.58572 0.53831 0.91443 0.0
H1394 H 0.56764 0.5962 0.97216 0.0
C1395 C 0.57297 0.51123 0.93177 0.0
H1396 H 0.59111 0.59052 0.9153 0.0
C1397 C 0.55894 0.51458 0.96393 0.0
C1398 C 0.55822 0.54494 0.97939 0.0
H1399 H 0.57552 0.48721 0.92127 0.0
H1400 H 0.55126 0.49291 0.97761 0.0
C1401 C 0.56821 0.5725 0.96083 0.0
C1402 C 0.73307 0.33655 0.14559 0.0
C1403 C 0.75265 0.36166 0.13262 0.0
H1404 H 0.72266 0.3045 0.18733 0.0
C1405 C 0.77432 0.37668 0.15364 0.0
H1406 H 0.71609 0.32466 0.12992 0.0
C1407 C 0.77749 0.36566 0.18676 0.0
C1408 C 0.75957 0.33902 0.19891 0.0
H1409 H 0.78942 0.39635 0.14424 0.0
H1410 H 0.79535 0.37665 0.20214 0.0
C1411 C 0.73678 0.32506 0.17839 0.0
C1412 C 0.98704 0.55136 0.35604 0.0
C1413 C 0.97303 0.52615 0.33883 0.0
H1414 H 0.01176 0.56504 0.39957 0.0
C1415 C 0.97603 0.49413 0.3513 0.0
H1416 H 0.98553 0.57621 0.34667 0.0
C1417 C 0.99067 0.48781 0.38189 0.0
C1418 C 1.00263 0.51339 0.40027 0.0
H1419 H 0.96549 0.47422 0.33845 0.0
H1420 H 0.99104 0.4632 0.39192 0.0
C1421 C 1.0018 0.54501 0.38645 0.0
C1422 C 0.81357 0.75335 0.6365 0.0
C1423 C 0.79965 0.72334 0.62972 0.0
H1424 H 0.82484 0.78836 0.67319 0.0
C1425 C 0.78704 0.70493 0.65733 0.0
H1426 H 0.82363 0.76833 0.61617 0.0
C1427 C 0.78835 0.71629 0.69054 0.0
C1428 C 0.8019 0.7466 0.6971 0.0
H1429 H 0.77636 0.68161 0.65331 0.0
H1430 H 0.77809 0.70163 0.71102 0.0
C1431 C 0.81442 0.76486 0.66944 0.0
C1432 C 0.68766 0.57328 0.56709 0.0
C1433 C 0.69876 0.59872 0.54572 0.0
H1434 H 0.64924 0.54057 0.58093 0.0
C1435 C 0.67818 0.60937 0.51978 0.0
H1436 H 0.70256 0.56417 0.58732 0.0
C1437 C 0.64724 0.59549 0.51594 0.0
C1438 C 0.63591 0.57057 0.53795 0.0
H1439 H 0.68571 0.62882 0.50273 0.0
H1440 H 0.63183 0.60491 0.49625 0.0
C1441 C 0.65688 0.55954 0.56333 0.0
C1442 C 0.15623 0.95373 0.52339 0.0
C1443 C 0.18393 0.96862 0.53536 0.0
H1444 H 0.10596 0.95953 0.51051 0.0
C1445 C 0.18216 1.00177 0.54285 0.0
H1446 H 0.15691 0.92818 0.51746 0.0
C1447 C 0.15317 0.01972 0.53865 0.0
C1448 C 0.12529 0.00478 0.5272 0.0
H1449 H 0.20318 0.01393 0.55199 0.0
H1450 H 0.15252 0.04523 0.5448 0.0
C1451 C 0.12707 0.97164 0.5195 0.0
C1452 C 0.30381 0.97959 0.77326 0.0
C1453 C 0.32111 0.9995 0.79407 0.0
H1454 H 0.28362 0.93288 0.76723 0.0
C1455 C 0.32682 0.98916 0.82731 0.0
H1456 H 0.29871 0.98705 0.7477 0.0
C1457 C 0.31839 0.95807 0.83837 0.0
C1458 C 0.30425 0.93698 0.81631 0.0
H1459 H 0.33973 0.00427 0.8441 0.0
H1460 H 0.32503 0.94975 0.86322 0.0
C1461 C 0.29551 0.94849 0.7843 0.0
C1462 C 0.39964 0.10723 0.01952 0.0
C1463 C 0.39302 0.13204 0.04285 0.0
H1464 H 0.43547 0.07352 0.99799 0.0
C1465 C 0.41881 0.14118 0.06297 0.0
H1466 H 0.38057 0.09954 0.00351 0.0
C1467 C 0.45004 0.12626 0.05997 0.0
C1468 C 0.45692 0.10171 0.03654 0.0
H1469 H 0.41495 0.16006 0.08132 0.0
H1470 H 0.46894 0.13426 0.07605 0.0
C1471 C 0.43122 0.09237 0.01631 0.0
C1472 C 0.72299 0.60125 0.85814 0.0
C1473 C 0.72182 0.58625 0.82686 0.0
H1474 H 0.73946 0.64164 0.88524 0.0
C1475 C 0.73764 0.60049 0.79859 0.0
H1476 H 0.71114 0.59068 0.88041 0.0
C1477 C 0.75359 0.62979 0.8014 0.0
C1478 C 0.75441 0.64493 0.83261 0.0
H1479 H 0.73711 0.58939 0.77421 0.0
H1480 H 0.7653 0.64065 0.77922 0.0
C1481 C 0.73937 0.63022 0.86102 0.0
C1482 C 0.86133 0.45693 0.99189 0.0
C1483 C 0.86621 0.42961 0.01308 0.0
H1484 H 0.88202 0.49987 0.9696 0.0
C1485 C 0.89728 0.42346 0.02607 0.0
H1486 H 0.83765 0.46226 0.98138 0.0
C1487 C 0.92256 0.44495 0.01926 0.0
C1488 C 0.91732 0.47302 0.9993 0.0
H1489 H 0.90191 0.40248 0.04222 0.0
H1490 H 0.94617 0.43977 0.02996 0.0
C1491 C 0.88671 0.47841 0.98501 0.0
C1492 C 0.37218 0.18097 0.76391 0.0
C1493 C 0.35504 0.15767 0.74689 0.0
H1494 H 0.37249 0.22989 0.78055 0.0
C1495 C 0.32741 0.16702 0.72891 0.0
H1496 H 0.39402 0.17427 0.77736 0.0
C1497 C 0.31502 0.19869 0.73093 0.0
C1498 C 0.33058 0.22128 0.7504 0.0
H1499 H 0.31409 0.14942 0.71531 0.0
H1500 H 0.29222 0.20498 0.71899 0.0
C1501 C 0.36016 0.21279 0.76539 0.0
C1502 C 0.22234 0.9021 0.3502 0.0
C1503 C 0.19245 0.90991 0.33529 0.0
H1504 H 0.26385 0.86938 0.35138 0.0
C1505 C 0.17879 0.88776 0.31386 0.0
H1506 H 0.23316 0.91878 0.36702 0.0
C1507 C 0.19664 0.86005 0.3043 0.0
C1508 C 0.22795 0.85388 0.31669 0.0
H1509 H 0.15571 0.8932 0.30212 0.0
H1510 H 0.18669 0.84434 0.28595 0.0
C1511 C 0.2399 0.874 0.34116 0.0
C1512 C 0.54767 0.42796 0.43868 0.0
C1513 C 0.54585 0.39731 0.45515 0.0
H1514 H 0.55024 0.47967 0.44249 0.0
C1515 C 0.54631 0.39694 0.49061 0.0
H1516 H 0.54748 0.4298 0.41153 0.0
C1517 C 0.54815 0.4262 0.50871 0.0
C1518 C 0.54951 0.45682 0.49197 0.0
H1519 H 0.54502 0.37407 0.50444 0.0
H1520 H 0.54793 0.42484 0.53589 0.0
C1521 C 0.54937 0.45694 0.4566 0.0
C1522 C 0.38017 0.85908 0.18494 0.0
C1523 C 0.41087 0.85485 0.19926 0.0
H1524 H 0.32845 0.85349 0.19193 0.0
C1525 C 0.41262 0.84825 0.23386 0.0
H1526 H 0.37826 0.86459 0.15836 0.0
C1527 C 0.38424 0.84241 0.25318 0.0
C1528 C 0.35377 0.84258 0.23799 0.0
H1529 H 0.43609 0.84565 0.24561 0.0
H1530 H 0.38659 0.83497 0.27925 0.0
C1531 C 0.3517 0.85283 0.20421 0.0
C1532 C 0.05041 0.69269 0.98309 0.0
C1533 C 0.02104 0.70054 0.96676 0.0
H1534 H 0.07821 0.65691 0.01137 0.0
C1535 C 0.99674 0.67675 0.96755 0.0
H1536 H 0.0698 0.71011 0.98313 0.0
C1537 C 1.0016 0.6463 0.98351 0.0
C1538 C 0.0309 0.63823 0.99968 0.0
H1539 H 0.97376 0.68144 0.95539 0.0
H1540 H 0.9822 0.6289 0.98297 0.0
C1541 C 0.05521 0.66207 0.99939 0.0
C1542 C 0.08746 0.23863 0.72687 0.0
C1543 C 0.07482 0.27059 0.72469 0.0
H1544 H 0.12768 0.20771 0.74119 0.0
C1545 C 0.09171 0.2958 0.73878 0.0
H1546 H 0.07477 0.21876 0.71617 0.0
C1547 C 0.12156 0.28941 0.7535 0.0
C1548 C 0.13535 0.25779 0.7539 0.0
H1549 H 0.08213 0.32057 0.73795 0.0
H1550 H 0.13411 0.30943 0.76401 0.0
C1551 C 0.11764 0.23228 0.74127 0.0
C1552 C 0.58345 0.75117 0.09791 0.0
C1553 C 0.55029 0.75731 0.10703 0.0
H1554 H 0.62037 0.71562 0.08388 0.0
C1555 C 0.52824 0.73176 0.10684 0.0
H1556 H 0.60109 0.77034 0.09791 0.0
C1557 C 0.53934 0.70049 0.0988 0.0
C1558 C 0.57272 0.69408 0.09086 0.0
H1559 H 0.50252 0.73573 0.11362 0.0
H1560 H 0.52168 0.68137 0.09886 0.0
C1561 C 0.59455 0.71984 0.08989 0.0
C1562 C 0.13742 0.77817 0.83997 0.0
C1563 C 0.13459 0.79866 0.86796 0.0
H1564 H 0.16895 0.75865 0.80007 0.0
C1565 C 0.16239 0.81584 0.87627 0.0
H1566 H 0.11663 0.7644 0.8329 0.0
C1567 C 0.19194 0.81282 0.85748 0.0
C1568 C 0.19521 0.79212 0.82979 0.0
H1569 H 0.16139 0.83189 0.89749 0.0
H1570 H 0.21252 0.82667 0.86505 0.0
C1571 C 0.16749 0.77472 0.82127 0.0
C1572 C 0.02114 0.43729 0.65449 0.0
C1573 C 0.01014 0.40953 0.63912 0.0
H1574 H 0.03308 0.48718 0.64865 0.0
C1575 C 1.00079 0.41151 0.6055 0.0
H1576 H 0.02827 0.43649 0.68042 0.0
C1577 C 1.00373 0.44053 0.58714 0.0
C1578 C 0.01576 0.46802 0.60225 0.0
H1579 H 0.99217 0.39042 0.59304 0.0
H1580 H 0.99728 0.44122 0.561 0.0
C1581 C 0.02378 0.46633 0.63627 0.0
C1582 C 0.43116 0.25511 0.34515 0.0
C1583 C 0.44893 0.28244 0.3538 0.0
H1584 H 0.38815 0.23662 0.32352 0.0
C1585 C 0.43571 0.31333 0.34501 0.0
H1586 H 0.44023 0.23087 0.3514 0.0
C1587 C 0.40586 0.3166 0.32797 0.0
C1588 C 0.38792 0.28911 0.3199 0.0
H1589 H 0.44857 0.33499 0.35101 0.0
H1590 H 0.39641 0.34073 0.32187 0.0
C1591 C 0.40112 0.25838 0.32897 0.0
C1592 C 0.4547 0.6191 0.35808 0.0
C1593 C 0.42898 0.597 0.35964 0.0
H1594 H 0.49765 0.63539 0.38062 0.0
C1595 C 0.42384 0.57798 0.38885 0.0
H1596 H 0.45911 0.63443 0.33603 0.0
C1597 C 0.44586 0.57886 0.41469 0.0
C1598 C 0.47353 0.59856 0.4116 0.0
H1599 H 0.40395 0.56109 0.39098 0.0
H1600 H 0.44167 0.56327 0.43652 0.0
C1601 C 0.47689 0.61968 0.3837 0.0
C1602 C 0.29858 0.76509 0.08444 0.0
C1603 C 0.27756 0.74504 0.06787 0.0
H1604 H 0.30402 0.79711 0.12508 0.0
C1605 C 0.24412 0.74491 0.0775 0.0
H1606 H 0.32434 0.76605 0.07695 0.0
C1607 C 0.23261 0.76189 0.10573 0.0
C1608 C 0.25435 0.77957 0.12436 0.0
H1609 H 0.2274 0.72965 0.06492 0.0
H1610 H 0.20739 0.759 0.11434 0.0
C1611 C 0.28692 0.78272 0.11205 0.0
C1612 C 0.15182 0.5461 0.92843 0.0
C1613 C 0.13649 0.55815 0.89961 0.0
H1614 H 0.14548 0.52834 0.97898 0.0
C1615 C 0.10217 0.56008 0.89915 0.0
H1616 H 0.1783 0.54398 0.92908 0.0
C1617 C 0.0834 0.55003 0.92721 0.0
C1618 C 0.09877 0.5385 0.95625 0.0
H1619 H 0.08985 0.56857 0.87687 0.0
H1620 H 0.05693 0.55244 0.9266 0.0
C1621 C 0.1331 0.53662 0.95665 0.0
C1622 C 0.24417 0.35283 0.64015 0.0
C1623 C 0.27124 0.36934 0.62557 0.0
H1624 H 0.22427 0.32533 0.68233 0.0
C1625 C 0.30002 0.36975 0.64394 0.0
H1626 H 0.22151 0.35188 0.62696 0.0
C1627 C 0.30143 0.35477 0.67604 0.0
C1628 C 0.27424 0.33852 0.69074 0.0
H1629 H 0.32132 0.38228 0.63384 0.0
H1630 H 0.32394 0.35606 0.68945 0.0
C1631 C 0.24571 0.33752 0.67206 0.0
C1632 C 0.53177 0.57379 0.22426 0.0
C1633 C 0.51366 0.54786 0.23775 0.0
H1634 H 0.56154 0.59089 0.18286 0.0
C1635 C 0.51937 0.51656 0.22545 0.0
H1636 H 0.52776 0.59808 0.2338 0.0
C1637 C 0.53822 0.51246 0.19586 0.0
C1638 C 0.55146 0.53967 0.17889 0.0
H1639 H 0.50562 0.49627 0.23569 0.0
H1640 H 0.53892 0.4889 0.18424 0.0
C1641 C 0.55101 0.56963 0.19503 0.0
C1642 C 0.31843 0.6816 0.88515 0.0
C1643 C 0.32857 0.69506 0.91497 0.0
H1644 H 0.30424 0.69045 0.83468 0.0
C1645 C 0.33498 0.72846 0.91547 0.0
H1646 H 0.31349 0.65596 0.88391 0.0
C1647 C 0.32942 0.74832 0.88735 0.0
C1648 C 0.31759 0.73514 0.85812 0.0
H1649 H 0.343 0.73959 0.93803 0.0
H1650 H 0.33335 0.77414 0.88893 0.0
C1651 C 0.31309 0.70143 0.85696 0.0
C1652 C 0.08432 0.56319 0.75514 0.0
C1653 C 0.11716 0.5521 0.75277 0.0
H1654 H 0.04327 0.58286 0.72846 0.0
C1655 C 0.13407 0.55275 0.72143 0.0
H1656 H 0.07089 0.56321 0.77911 0.0
C1657 C 0.11834 0.5637 0.69285 0.0
C1658 C 0.0856 0.57473 0.6951 0.0
H1659 H 0.15943 0.54442 0.71887 0.0
H1660 H 0.13169 0.56352 0.66884 0.0
C1661 C 0.06871 0.57477 0.72643 0.0
C1662 C 0.28954 0.38598 0.41606 0.0
C1663 C 0.27843 0.36738 0.4442 0.0
H1664 H 0.2989 0.38834 0.3624 0.0
C1665 C 0.26728 0.33597 0.43818 0.0
H1666 H 0.29823 0.41027 0.4194 0.0
C1667 C 0.26769 0.32339 0.40557 0.0
C1668 C 0.27899 0.34176 0.37743 0.0
H1669 H 0.25846 0.3207 0.45887 0.0
H1670 H 0.25937 0.29892 0.40249 0.0
C1671 C 0.28972 0.37342 0.38322 0.0
C1672 C 0.4028 0.48438 0.58319 0.0
C1673 C 0.38319 0.48236 0.55493 0.0
H1674 H 0.44733 0.50032 0.60361 0.0
C1675 C 0.39454 0.4976 0.52479 0.0
H1676 H 0.39519 0.47318 0.60696 0.0
C1677 C 0.42482 0.51366 0.52295 0.0
C1678 C 0.44472 0.51482 0.55115 0.0
H1679 H 0.38029 0.49671 0.50246 0.0
H1680 H 0.43305 0.5244 0.49916 0.0
C1681 C 0.43293 0.50016 0.58132 0.0
C1682 C 0.93376 0.16137 0.50761 0.0
C1683 C 0.90339 0.15065 0.52034 0.0
H1684 H 0.98368 0.14893 0.4951 0.0
C1685 C 0.89986 0.11757 0.52896 0.0
H1686 H 0.93719 0.18662 0.50054 0.0
C1687 C 0.92652 0.0957 0.52531 0.0
C1688 C 0.95708 0.10677 0.51341 0.0
H1689 H 0.87655 0.10858 0.53851 0.0
H1690 H 0.92352 0.07049 0.53281 0.0
C1691 C 0.96034 0.13971 0.50434 0.0
C1692 C 0.75063 0.10352 0.29199 0.0
C1693 C 0.73759 0.08464 0.26714 0.0
H1694 H 0.77223 0.14824 0.3035 0.0
C1695 C 0.73954 0.09527 0.23344 0.0
H1696 H 0.74983 0.09553 0.3181 0.0
C1697 C 0.7517 0.1258 0.22516 0.0
C1698 C 0.76227 0.14586 0.25045 0.0
H1699 H 0.72959 0.08109 0.21381 0.0
H1700 H 0.7509 0.13442 0.19935 0.0
C1701 C 0.76309 0.13381 0.28367 0.0
C1702 C 0.6957 0.00359 0.04594 0.0
C1703 C 0.70038 0.98004 0.02087 0.0
H1704 H 0.66307 0.03975 0.06851 0.0
C1705 C 0.67523 0.97646 0.99814 0.0
H1706 H 0.71445 0.00699 0.06397 0.0
C1707 C 0.6462 0.99522 1.00055 0.0
C1708 C 0.64091 0.01821 0.02598 0.0
H1709 H 0.67779 0.95882 0.97837 0.0
H1710 H 0.62754 0.99116 0.98257 0.0
C1711 C 0.6662 0.02233 0.04859 0.0
C1712 C 0.3641 0.482 0.26467 0.0
C1713 C 0.3755 0.49586 0.23403 0.0
H1714 H 0.33892 0.44274 0.2891 0.0
C1715 C 0.37051 0.47985 0.20398 0.0
H1716 H 0.36762 0.4938 0.28827 0.0
C1717 C 0.3541 0.45062 0.20455 0.0
C1718 C 0.34258 0.43685 0.23517 0.0
H1719 H 0.37912 0.48993 0.18001 0.0
H1720 H 0.35073 0.43862 0.18107 0.0
C1721 C 0.34786 0.4527 0.26522 0.0
C1722 C 0.23001 0.60926 0.03397 0.0
C1723 C 0.24852 0.62068 0.06003 0.0
H1724 H 0.18564 0.58765 0.02027 0.0
C1725 C 0.23565 0.61887 0.09321 0.0
H1726 H 0.23933 0.61022 0.00815 0.0
C1727 C 0.20464 0.60639 0.10014 0.0
C1728 C 0.18587 0.5953 0.07406 0.0
H1729 H 0.24925 0.62767 0.11386 0.0
H1730 H 0.19516 0.60605 0.12587 0.0
C1731 C 0.19906 0.5966 0.04092 0.0
C1732 C 0.67938 0.89626 0.3204 0.0
C1733 C 0.69442 0.92639 0.32034 0.0
H1734 H 0.68653 0.84493 0.31606 0.0
C1735 C 0.72876 0.92778 0.32034 0.0
H1736 H 0.65292 0.8947 0.3207 0.0
C1737 C 0.74794 0.89951 0.31824 0.0
C1738 C 0.73301 0.86951 0.31563 0.0
H1739 H 0.74088 0.95083 0.32098 0.0
H1740 H 0.77438 0.90139 0.31673 0.0
C1741 C 0.69861 0.86791 0.31781 0.0
C1742 C 0.81131 0.15425 0.73768 0.0
C1743 C 0.83583 0.15779 0.71227 0.0
H1744 H 0.77703 0.17836 0.77106 0.0
C1745 C 0.83928 0.18794 0.69559 0.0
H1746 H 0.80764 0.13106 0.75042 0.0
C1747 C 0.8213 0.21507 0.70724 0.0
C1748 C 0.80007 0.21204 0.73566 0.0
H1749 H 0.85788 0.1912 0.67578 0.0
H1750 H 0.82637 0.23874 0.69616 0.0
C1751 C 0.79375 0.18124 0.74948 0.0
loop_
_geom_bond_atom_site_label_1
_geom_bond_atom_site_label_2
_geom_bond_distance
_geom_bond_site_symmetry_2
_ccdc_geom_bond_type
C0 O1 1.160 . S
C0 O7 1.185 . S
O1 C0 1.160 . S
O2 Zn3 1.899 . S
O2 C10 1.284 . S
Zn3 O2 1.899 . S
Zn3 O4 2.032 . S
Zn3 O7 2.086 1_455 S
Zn3 O12 1.977 . S
O4 Zn3 2.032 . S
O4 C8 1.278 . S
C5 O6 1.203 . S
C5 O12 1.267 . S
O6 C5 1.203 . S
O7 C0 1.185 . S
O7 Zn3 2.086 1_655 S
C8 O4 1.278 . S
C8 O9 1.211 . S
O9 C8 1.211 . S
C10 O2 1.284 . S
C10 O11 1.273 . S
O11 C10 1.273 . S
O12 Zn3 1.977 . S
O12 C5 1.267 . S
C13 O14 1.160 . S
C13 O20 1.185 . S
O14 C13 1.160 . S
O15 Zn16 1.899 . S
O15 C23 1.284 . S
Zn16 O15 1.899 . S
Zn16 O17 2.032 . S
Zn16 O20 2.086 . S
Zn16 O25 1.977 . S
O17 Zn16 2.032 . S
O17 C21 1.278 . S
C18 O19 1.203 1_455 S
C18 O25 1.267 . S
O19 C18 1.203 1_655 S
O20 C13 1.185 . S
O20 Zn16 2.086 . S
C21 O17 1.278 . S
C21 O22 1.211 . S
O22 C21 1.211 . S
C23 O15 1.284 . S
C23 O24 1.273 . S
O24 C23 1.273 . S
O25 Zn16 1.977 . S
O25 C18 1.267 . S
C26 O27 1.160 . S
C26 O33 1.185 . S
O27 C26 1.160 . S
O28 Zn29 1.899 . S
O28 C36 1.284 . S
Zn29 O28 1.899 . S
Zn29 O30 2.032 . S
Zn29 O33 2.086 . S
Zn29 O38 1.977 . S
O30 Zn29 2.032 . S
O30 C34 1.278 . S
C31 O32 1.203 . S
C31 O38 1.267 . S
O32 C31 1.203 . S
O33 C26 1.185 . S
O33 Zn29 2.086 . S
C34 O30 1.278 . S
C34 O35 1.211 . S
O35 C34 1.211 . S
C36 O28 1.284 . S
C36 O37 1.273 . S
O37 C36 1.273 . S
O38 Zn29 1.977 . S
O38 C31 1.267 . S
C39 O40 1.160 . S
C39 O46 1.185 . S
O40 C39 1.160 . S
O41 Zn42 1.899 . S
O41 C49 1.284 . S
Zn42 O41 1.899 . S
Zn42 O43 2.032 . S
Zn42 O46 2.086 . S
Zn42 O51 1.977 . S
O43 Zn42 2.032 . S
O43 C47 1.278 . S
C44 O45 1.203 . S
C44 O51 1.267 . S
O45 C44 1.203 . S
O46 C39 1.185 . S
O46 Zn42 2.086 . S
C47 O43 1.278 . S
C47 O48 1.211 . S
O48 C47 1.211 . S
C49 O41 1.284 . S
C49 O50 1.273 . S
O50 C49 1.273 . S
O51 Zn42 1.977 . S
O51 C44 1.267 . S
C52 O53 1.160 . S
C52 O59 1.185 . S
O53 C52 1.160 . S
O54 Zn55 1.899 . S
O54 C62 1.284 . S
Zn55 O54 1.899 . S
Zn55 O56 2.032 1_545 S
Zn55 O59 2.086 1_545 S
Zn55 O64 1.977 . S
O56 Zn55 2.032 1_565 S
O56 C60 1.278 1_565 S
C57 O58 1.203 . S
C57 O64 1.267 . S
O58 C57 1.203 . S
O59 C52 1.185 . S
O59 Zn55 2.086 1_565 S
C60 O56 1.278 1_545 S
C60 O61 1.211 . S
O61 C60 1.211 . S
C62 O54 1.284 . S
C62 O63 1.273 . S
O63 C62 1.273 . S
O64 Zn55 1.977 . S
O64 C57 1.267 . S
C65 O66 1.160 . S
C65 O72 1.185 . S
O66 C65 1.160 . S
O67 Zn68 1.899 . S
O67 C75 1.284 . S
Zn68 O67 1.899 . S
Zn68 O69 2.032 . S
Zn68 O72 2.086 . S
Zn68 O77 1.977 . S
O69 Zn68 2.032 . S
O69 C73 1.278 . S
C70 O71 1.203 . S
C70 O77 1.267 . S
O71 C70 1.203 . S
O72 C65 1.185 . S
O72 Zn68 2.086 . S
C73 O69 1.278 . S
C73 O74 1.211 . S
O74 C73 1.211 . S
C75 O67 1.284 . S
C75 O76 1.273 . S
O76 C75 1.273 . S
O77 Zn68 1.977 . S
O77 C70 1.267 . S
C78 O79 1.160 . S
C78 O85 1.185 . S
O79 C78 1.160 . S
O80 Zn81 1.899 . S
O80 C88 1.284 . S
Zn81 O80 1.899 . S
Zn81 O82 2.032 . S
Zn81 O85 2.086 . S
Zn81 O90 1.977 . S
O82 Zn81 2.032 . S
O82 C86 1.278 . S
C83 O84 1.203 . S
C83 O90 1.267 . S
O84 C83 1.203 . S
O85 C78 1.185 . S
O85 Zn81 2.086 . S
C86 O82 1.278 . S
C86 O87 1.211 . S
O87 C86 1.211 . S
C88 O80 1.284 . S
C88 O89 1.273 . S
O89 C88 1.273 . S
O90 Zn81 1.977 . S
O90 C83 1.267 . S
C91 O92 1.160 . S
C91 O98 1.185 . S
O92 C91 1.160 . S
O93 Zn94 1.899 . S
O93 C101 1.284 . S
Zn94 O93 1.899 . S
Zn94 O95 2.032 . S
Zn94 O98 2.086 . S
Zn94 O103 1.977 . S
O95 Zn94 2.032 . S
O95 C99 1.278 1_554 S
C96 O97 1.203 . S
C96 O103 1.267 . S
O97 C96 1.203 . S
O98 C91 1.185 . S
O98 Zn94 2.086 . S
C99 O95 1.278 1_556 S
C99 O100 1.211 . S
O100 C99 1.211 . S
C101 O93 1.284 . S
C101 O102 1.273 . S
O102 C101 1.273 . S
O103 Zn94 1.977 . S
O103 C96 1.267 . S
C104 O105 1.160 . S
C104 O111 1.185 . S
O105 C104 1.160 . S
O106 Zn107 1.899 . S
O106 C114 1.284 . S
Zn107 O106 1.899 . S
Zn107 O108 2.032 . S
Zn107 O111 2.086 . S
Zn107 O116 1.977 . S
O108 Zn107 2.032 . S
O108 C112 1.278 . S
C109 O110 1.203 . S
C109 O116 1.267 . S
O110 C109 1.203 . S
O111 C104 1.185 . S
O111 Zn107 2.086 . S
C112 O108 1.278 . S
C112 O113 1.211 . S
O113 C112 1.211 . S
C114 O106 1.284 . S
C114 O115 1.273 . S
O115 C114 1.273 . S
O116 Zn107 1.977 . S
O116 C109 1.267 . S
C117 O118 1.160 . S
C117 O124 1.185 . S
O118 C117 1.160 . S
O119 Zn120 1.899 . S
O119 C127 1.284 . S
Zn120 O119 1.899 . S
Zn120 O121 2.032 . S
Zn120 O124 2.086 . S
Zn120 O129 1.977 . S
O121 Zn120 2.032 . S
O121 C125 1.278 . S
C122 O123 1.203 . S
C122 O129 1.267 . S
O123 C122 1.203 . S
O124 C117 1.185 . S
O124 Zn120 2.086 . S
C125 O121 1.278 . S
C125 O126 1.211 . S
O126 C125 1.211 . S
C127 O119 1.284 . S
C127 O128 1.273 . S
O128 C127 1.273 . S
O129 Zn120 1.977 . S
O129 C122 1.267 . S
C130 O131 1.160 . S
C130 O137 1.185 . S
O131 C130 1.160 . S
O132 Zn133 1.899 . S
O132 C140 1.284 . S
Zn133 O132 1.899 . S
Zn133 O134 2.032 . S
Zn133 O137 2.086 . S
Zn133 O142 1.977 . S
O134 Zn133 2.032 . S
O134 C138 1.278 . S
C135 O136 1.203 . S
C135 O142 1.267 . S
O136 C135 1.203 . S
O137 C130 1.185 . S
O137 Zn133 2.086 . S
C138 O134 1.278 . S
C138 O139 1.211 . S
O139 C138 1.211 . S
C140 O132 1.284 . S
C140 O141 1.273 . S
O141 C140 1.273 . S
O142 Zn133 1.977 . S
O142 C135 1.267 . S
C143 O144 1.160 . S
C143 O150 1.185 . S
O144 C143 1.160 . S
O145 Zn146 1.899 . S
O145 C153 1.284 . S
Zn146 O145 1.899 . S
Zn146 O147 2.032 . S
Zn146 O150 2.086 . S
Zn146 O155 1.977 . S
O147 Zn146 2.032 . S
O147 C151 1.278 . S
C148 O149 1.203 . S
C148 O155 1.267 . S
O149 C148 1.203 . S
O150 C143 1.185 . S
O150 Zn146 2.086 . S
C151 O147 1.278 . S
C151 O152 1.211 . S
O152 C151 1.211 . S
C153 O145 1.284 . S
C153 O154 1.273 . S
O154 C153 1.273 . S
O155 Zn146 1.977 . S
O155 C148 1.267 . S
C156 O157 1.160 . S
C156 O163 1.185 . S
O157 C156 1.160 . S
O158 Zn159 1.899 . S
O158 C166 1.284 . S
Zn159 O158 1.899 . S
Zn159 O160 2.032 . S
Zn159 O163 2.086 . S
Zn159 O168 1.977 1_455 S
O160 Zn159 2.032 . S
O160 C164 1.278 . S
C161 O162 1.203 . S
C161 O168 1.267 . S
O162 C161 1.203 . S
O163 C156 1.185 . S
O163 Zn159 2.086 . S
C164 O160 1.278 . S
C164 O165 1.211 1_455 S
O165 C164 1.211 1_655 S
C166 O158 1.284 . S
C166 O167 1.273 . S
O167 C166 1.273 . S
O168 Zn159 1.977 1_655 S
O168 C161 1.267 . S
C169 O170 1.160 . S
C169 O176 1.185 . S
O170 C169 1.160 . S
O171 Zn172 1.899 . S
O171 C179 1.284 1_655 S
Zn172 O171 1.899 . S
Zn172 O173 2.032 . S
Zn172 O176 2.086 . S
Zn172 O181 1.977 1_655 S
O173 Zn172 2.032 . S
O173 C177 1.278 1_655 S
C174 O175 1.203 . S
C174 O181 1.267 . S
O175 C174 1.203 . S
O176 C169 1.185 . S
O176 Zn172 2.086 . S
C177 O173 1.278 1_455 S
C177 O178 1.211 . S
O178 C177 1.211 . S
C179 O171 1.284 1_455 S
C179 O180 1.273 . S
O180 C179 1.273 . S
O181 Zn172 1.977 1_455 S
O181 C174 1.267 . S
C182 O183 1.160 . S
C182 O189 1.185 . S
O183 C182 1.160 . S
O184 Zn185 1.899 . S
O184 C192 1.284 . S
Zn185 O184 1.899 . S
Zn185 O186 2.032 . S
Zn185 O189 2.086 . S
Zn185 O194 1.977 . S
O186 Zn185 2.032 . S
O186 C190 1.278 . S
C187 O188 1.203 . S
C187 O194 1.267 . S
O188 C187 1.203 . S
O189 C182 1.185 . S
O189 Zn185 2.086 . S
C190 O186 1.278 . S
C190 O191 1.211 . S
O191 C190 1.211 . S
C192 O184 1.284 . S
C192 O193 1.273 . S
O193 C192 1.273 . S
O194 Zn185 1.977 . S
O194 C187 1.267 . S
C195 O196 1.160 . S
C195 O202 1.185 . S
O196 C195 1.160 . S
O197 Zn198 1.899 . S
O197 C205 1.284 . S
Zn198 O197 1.899 . S
Zn198 O199 2.032 . S
Zn198 O202 2.086 . S
Zn198 O207 1.977 . S
O199 Zn198 2.032 . S
O199 C203 1.278 . S
C200 O201 1.203 . S
C200 O207 1.267 . S
O201 C200 1.203 . S
O202 C195 1.185 . S
O202 Zn198 2.086 . S
C203 O199 1.278 . S
C203 O204 1.211 . S
O204 C203 1.211 . S
C205 O197 1.284 . S
C205 O206 1.273 . S
O206 C205 1.273 . S
O207 Zn198 1.977 . S
O207 C200 1.267 . S
C208 O209 1.160 . S
C208 O215 1.185 . S
O209 C208 1.160 . S
O210 Zn211 1.899 . S
O210 C218 1.284 . S
Zn211 O210 1.899 . S
Zn211 O212 2.032 . S
Zn211 O215 2.086 . S
Zn211 O220 1.977 . S
O212 Zn211 2.032 . S
O212 C216 1.278 . S
C213 O214 1.203 . S
C213 O220 1.267 . S
O214 C213 1.203 . S
O215 C208 1.185 . S
O215 Zn211 2.086 . S
C216 O212 1.278 . S
C216 O217 1.211 . S
O217 C216 1.211 . S
C218 O210 1.284 . S
C218 O219 1.273 . S
O219 C218 1.273 . S
O220 Zn211 1.977 . S
O220 C213 1.267 . S
C221 O222 1.160 . S
C221 O228 1.185 . S
O222 C221 1.160 . S
O223 Zn224 1.899 . S
O223 C231 1.284 . S
Zn224 O223 1.899 . S
Zn224 O225 2.032 . S
Zn224 O228 2.086 . S
Zn224 O233 1.977 . S
O225 Zn224 2.032 . S
O225 C229 1.278 . S
C226 O227 1.203 . S
C226 O233 1.267 . S
O227 C226 1.203 . S
O228 C221 1.185 . S
O228 Zn224 2.086 . S
C229 O225 1.278 . S
C229 O230 1.211 . S
O230 C229 1.211 . S
C231 O223 1.284 . S
C231 O232 1.273 . S
O232 C231 1.273 . S
O233 Zn224 1.977 . S
O233 C226 1.267 . S
C234 O235 1.160 . S
C234 O241 1.185 . S
O235 C234 1.160 . S
O236 Zn237 1.899 . S
O236 C244 1.284 . S
Zn237 O236 1.899 . S
Zn237 O238 2.032 1_545 S
Zn237 O241 2.086 1_545 S
Zn237 O246 1.977 . S
O238 Zn237 2.032 1_565 S
O238 C242 1.278 1_565 S
C239 O240 1.203 . S
C239 O246 1.267 . S
O240 C239 1.203 . S
O241 C234 1.185 . S
O241 Zn237 2.086 1_565 S
C242 O238 1.278 1_545 S
C242 O243 1.211 . S
O243 C242 1.211 . S
C244 O236 1.284 . S
C244 O245 1.273 . S
O245 C244 1.273 . S
O246 Zn237 1.977 . S
O246 C239 1.267 . S
C247 O248 1.160 . S
C247 O254 1.185 . S
O248 C247 1.160 . S
O249 Zn250 1.899 . S
O249 C257 1.284 . S
Zn250 O249 1.899 . S
Zn250 O251 2.032 1_554 S
Zn250 O254 2.086 . S
Zn250 O259 1.977 . S
O251 Zn250 2.032 1_556 S
O251 C255 1.278 . S
C252 O253 1.203 . S
C252 O259 1.267 . S
O253 C252 1.203 . S
O254 C247 1.185 . S
O254 Zn250 2.086 . S
C255 O251 1.278 . S
C255 O256 1.211 . S
O256 C255 1.211 . S
C257 O249 1.284 . S
C257 O258 1.273 . S
O258 C257 1.273 . S
O259 Zn250 1.977 . S
O259 C252 1.267 . S
C260 O261 1.160 . S
C260 O267 1.185 1_554 S
O261 C260 1.160 . S
O262 Zn263 1.899 . S
O262 C270 1.284 . S
Zn263 O262 1.899 . S
Zn263 O264 2.032 1_554 S
Zn263 O267 2.086 1_554 S
Zn263 O272 1.977 1_554 S
O264 Zn263 2.032 1_556 S
O264 C268 1.278 . S
C265 O266 1.203 . S
C265 O272 1.267 1_554 S
O266 C265 1.203 . S
O267 C260 1.185 1_556 S
O267 Zn263 2.086 1_556 S
C268 O264 1.278 . S
C268 O269 1.211 . S
O269 C268 1.211 . S
C270 O262 1.284 . S
C270 O271 1.273 . S
O271 C270 1.273 . S
O272 Zn263 1.977 1_556 S
O272 C265 1.267 1_556 S
C273 O274 1.160 . S
C273 O280 1.185 . S
O274 C273 1.160 . S
O275 Zn276 1.899 . S
O275 C283 1.284 . S
Zn276 O275 1.899 . S
Zn276 O277 2.032 . S
Zn276 O280 2.086 . S
Zn276 O285 1.977 . S
O277 Zn276 2.032 . S
O277 C281 1.278 . S
C278 O279 1.203 . S
C278 O285 1.267 . S
O279 C278 1.203 . S
O280 C273 1.185 . S
O280 Zn276 2.086 . S
C281 O277 1.278 . S
C281 O282 1.211 . S
O282 C281 1.211 . S
C283 O275 1.284 . S
C283 O284 1.273 . S
O284 C283 1.273 . S
O285 Zn276 1.977 . S
O285 C278 1.267 . S
C286 O287 1.160 . S
C286 O293 1.185 . S
O287 C286 1.160 . S
O288 Zn289 1.899 . S
O288 C296 1.284 . S
Zn289 O288 1.899 . S
Zn289 O290 2.032 . S
Zn289 O293 2.086 . S
Zn289 O298 1.977 . S
O290 Zn289 2.032 . S
O290 C294 1.278 . S
C291 O292 1.203 . S
C291 O298 1.267 . S
O292 C291 1.203 . S
O293 C286 1.185 . S
O293 Zn289 2.086 . S
C294 O290 1.278 . S
C294 O295 1.211 . S
O295 C294 1.211 . S
C296 O288 1.284 . S
C296 O297 1.273 . S
O297 C296 1.273 . S
O298 Zn289 1.977 . S
O298 C291 1.267 . S
C299 O300 1.160 . S
C299 O306 1.185 . S
O300 C299 1.160 . S
O301 Zn302 1.899 . S
O301 C309 1.284 . S
Zn302 O301 1.899 . S
Zn302 O303 2.032 . S
Zn302 O306 2.086 . S
Zn302 O311 1.977 . S
O303 Zn302 2.032 . S
O303 C307 1.278 . S
C304 O305 1.203 . S
C304 O311 1.267 . S
O305 C304 1.203 . S
O306 C299 1.185 . S
O306 Zn302 2.086 . S
C307 O303 1.278 . S
C307 O308 1.211 . S
O308 C307 1.211 . S
C309 O301 1.284 . S
C309 O310 1.273 . S
O310 C309 1.273 . S
O311 Zn302 1.977 . S
O311 C304 1.267 . S
Co312 N317 2.057 1_554 S
Co312 O329 2.021 1_554 S
Co312 O332 2.062 1_455 S
Co312 O336 2.117 . S
Co312 O337 2.020 . S
C313 O333 1.259 . S
C313 O336 1.258 . S
Co314 N323 2.057 . S
Co314 O330 2.117 1_545 S
Co314 O331 2.020 1_455 S
Co314 O333 2.021 . S
Co314 O338 2.062 . S
C315 N317 1.325 . S
C315 N318 1.333 1_455 S
C315 H320 0.936 . S
C316 N317 1.375 1_655 S
C316 C319 1.350 . S
C316 H321 0.929 1_655 S
N317 Co312 2.057 1_556 S
N317 C315 1.325 . S
N317 C316 1.375 1_455 S
N318 C315 1.333 1_655 S
N318 C319 1.373 . S
C319 C316 1.350 . S
C319 N318 1.373 . S
C319 H340 0.931 . S
H320 C315 0.936 . S
H321 C316 0.929 1_455 S
C322 O329 1.259 1_564 S
C322 O330 1.258 . S
N323 Co314 2.057 . S
N323 C324 1.316 . S
N323 C325 1.375 1_545 S
C324 N323 1.316 . S
C324 N326 1.347 . S
C324 H335 0.931 . S
C325 N323 1.375 1_565 S
C325 C327 1.350 . S
C325 H334 0.930 . S
N326 C324 1.347 . S
N326 C327 1.373 1_545 S
C327 C325 1.350 . S
C327 N326 1.373 1_565 S
C327 H341 0.931 . S
C328 O331 1.256 . S
C328 O332 1.255 . S
O329 Co312 2.021 1_556 S
O329 C322 1.259 1_546 S
O330 Co314 2.117 1_565 S
O330 C322 1.258 . S
O331 Co314 2.020 1_655 S
O331 C328 1.256 . S
O332 Co312 2.062 1_655 S
O332 C328 1.255 . S
O333 C313 1.259 . S
O333 Co314 2.021 . S
H334 C325 0.930 . S
H335 C324 0.931 . S
O336 Co312 2.117 . S
O336 C313 1.258 . S
O337 Co312 2.020 . S
O337 C339 1.256 . S
O338 Co314 2.062 . S
O338 C339 1.255 . S
C339 O337 1.256 . S
C339 O338 1.255 . S
H340 C319 0.931 . S
H341 C327 0.931 . S
Co342 N347 2.057 . S
Co342 O359 2.021 . S
Co342 O362 2.062 . S
Co342 O366 2.117 . S
Co342 O367 2.020 . S
C343 O363 1.259 . S
C343 O366 1.258 . S
Co344 N353 2.057 . S
Co344 O360 2.117 . S
Co344 O361 2.020 . S
Co344 O363 2.021 . S
Co344 O368 2.062 . S
C345 N347 1.316 . S
C345 N348 1.347 . S
C345 H350 0.931 . S
C346 N347 1.375 . S
C346 C349 1.350 . S
C346 H351 0.930 . S
N347 Co342 2.057 . S
N347 C345 1.316 . S
N347 C346 1.375 . S
N348 C345 1.347 . S
N348 C349 1.373 . S
C349 C346 1.350 . S
C349 N348 1.373 . S
C349 H370 0.931 . S
H350 C345 0.931 . S
H351 C346 0.930 . S
C352 O359 1.259 . S
C352 O360 1.258 . S
N353 Co344 2.057 . S
N353 C354 1.316 . S
N353 C355 1.375 . S
C354 N353 1.316 . S
C354 N356 1.347 . S
C354 H365 0.931 . S
C355 N353 1.375 . S
C355 C357 1.350 . S
C355 H364 0.930 . S
N356 C354 1.347 . S
N356 C357 1.373 . S
C357 C355 1.350 . S
C357 N356 1.373 . S
C357 H371 0.931 . S
C358 O361 1.256 . S
C358 O362 1.255 . S
O359 Co342 2.021 . S
O359 C352 1.259 . S
O360 Co344 2.117 . S
O360 C352 1.258 . S
O361 Co344 2.020 . S
O361 C358 1.256 . S
O362 Co342 2.062 . S
O362 C358 1.255 . S
O363 C343 1.259 . S
O363 Co344 2.021 . S
H364 C355 0.930 . S
H365 C354 0.931 . S
O366 Co342 2.117 . S
O366 C343 1.258 . S
O367 Co342 2.020 . S
O367 C369 1.256 . S
O368 Co344 2.062 . S
O368 C369 1.255 . S
C369 O367 1.256 . S
C369 O368 1.255 . S
H370 C349 0.931 . S
H371 C357 0.931 . S
Co372 N377 2.057 . S
Co372 O389 2.021 1_545 S
Co372 O392 2.062 . S
Co372 O396 2.117 . S
Co372 O397 2.020 . S
C373 O393 1.259 . S
C373 O396 1.258 . S
Co374 N383 2.057 . S
Co374 O390 2.117 . S
Co374 O391 2.020 . S
Co374 O393 2.021 . S
Co374 O398 2.062 . S
C375 N377 1.316 1_565 S
C375 N378 1.347 1_565 S
C375 H380 0.931 . S
C376 N377 1.375 . S
C376 C379 1.350 . S
C376 H381 0.930 . S
N377 Co372 2.057 . S
N377 C375 1.316 1_545 S
N377 C376 1.375 . S
N378 C375 1.347 1_545 S
N378 C379 1.373 . S
C379 C376 1.350 . S
C379 N378 1.373 . S
C379 H400 0.931 . S
H380 C375 0.931 . S
H381 C376 0.930 . S
C382 O389 1.259 . S
C382 O390 1.258 1_565 S
N383 Co374 2.057 . S
N383 C384 1.316 . S
N383 C385 1.375 . S
C384 N383 1.316 . S
C384 N386 1.347 . S
C384 H395 0.931 . S
C385 N383 1.375 . S
C385 C387 1.350 . S
C385 H394 0.930 . S
N386 C384 1.347 . S
N386 C387 1.373 . S
C387 C385 1.350 . S
C387 N386 1.373 . S
C387 H401 0.931 . S
C388 O391 1.256 . S
C388 O392 1.255 . S
O389 Co372 2.021 1_565 S
O389 C382 1.259 . S
O390 Co374 2.117 . S
O390 C382 1.258 1_545 S
O391 Co374 2.020 . S
O391 C388 1.256 . S
O392 Co372 2.062 . S
O392 C388 1.255 . S
O393 C373 1.259 . S
O393 Co374 2.021 . S
H394 C385 0.930 . S
H395 C384 0.931 . S
O396 Co372 2.117 . S
O396 C373 1.258 . S
O397 Co372 2.020 . S
O397 C399 1.256 . S
O398 Co374 2.062 . S
O398 C399 1.255 . S
C399 O397 1.256 . S
C399 O398 1.255 . S
H400 C379 0.931 . S
H401 C387 0.931 . S
Co402 N407 2.057 . S
Co402 O419 2.021 . S
Co402 O422 2.062 . S
Co402 O426 2.117 . S
Co402 O427 2.020 . S
C403 O423 1.259 . S
C403 O426 1.258 . S
Co404 N413 2.057 . S
Co404 O420 2.117 . S
Co404 O421 2.020 . S
Co404 O423 2.021 . S
Co404 O428 2.062 . S
C405 N407 1.316 . S
C405 N408 1.347 . S
C405 H410 0.931 . S
C406 N407 1.375 . S
C406 C409 1.350 . S
C406 H411 0.930 . S
N407 Co402 2.057 . S
N407 C405 1.316 . S
N407 C406 1.375 . S
N408 C405 1.347 . S
N408 C409 1.373 . S
C409 C406 1.350 . S
C409 N408 1.373 . S
C409 H430 0.931 . S
H410 C405 0.931 . S
H411 C406 0.930 . S
C412 O419 1.259 . S
C412 O420 1.258 . S
N413 Co404 2.057 . S
N413 C414 1.316 . S
N413 C415 1.375 . S
C414 N413 1.316 . S
C414 N416 1.347 . S
C414 H425 0.931 . S
C415 N413 1.375 . S
C415 C417 1.350 . S
C415 H424 0.930 . S
N416 C414 1.347 . S
N416 C417 1.373 . S
C417 C415 1.350 . S
C417 N416 1.373 . S
C417 H431 0.931 . S
C418 O421 1.256 . S
C418 O422 1.255 . S
O419 Co402 2.021 . S
O419 C412 1.259 . S
O420 Co404 2.117 . S
O420 C412 1.258 . S
O421 Co404 2.020 . S
O421 C418 1.256 . S
O422 Co402 2.062 . S
O422 C418 1.255 . S
O423 C403 1.259 . S
O423 Co404 2.021 . S
H424 C415 0.930 . S
H425 C414 0.931 . S
O426 Co402 2.117 . S
O426 C403 1.258 . S
O427 Co402 2.020 . S
O427 C429 1.256 . S
O428 Co404 2.062 . S
O428 C429 1.255 . S
C429 O427 1.256 . S
C429 O428 1.255 . S
H430 C409 0.931 . S
H431 C417 0.931 . S
Co432 N437 2.057 1_545 S
Co432 O449 2.021 . S
Co432 O452 2.056 1_545 S
Co432 O456 2.117 . S
Co432 O457 2.020 1_455 S
C433 O453 1.259 . S
C433 O456 1.258 . S
Co434 N443 2.057 . S
Co434 O450 2.117 . S
Co434 O451 2.020 . S
Co434 O453 2.021 . S
Co434 O458 2.062 1_455 S
C435 N437 1.316 . S
C435 N438 1.347 . S
C435 H440 0.931 . S
C436 N437 1.375 1_655 S
C436 C439 1.350 . S
C436 H441 0.930 . S
N437 Co432 2.057 1_565 S
N437 C435 1.316 . S
N437 C436 1.375 1_455 S
N438 C435 1.347 . S
N438 C439 1.373 1_455 S
C439 C436 1.350 . S
C439 N438 1.373 1_655 S
C439 H460 0.931 . S
H440 C435 0.931 . S
H441 C436 0.930 . S
C442 O449 1.259 . S
C442 O450 1.258 . S
N443 Co434 2.057 . S
N443 C444 1.316 . S
N443 C445 1.375 . S
C444 N443 1.316 . S
C444 N446 1.347 . S
C444 H455 0.931 . S
C445 N443 1.375 . S
C445 C447 1.350 . S
C445 H454 0.930 . S
N446 C444 1.347 . S
N446 C447 1.373 . S
C447 C445 1.350 . S
C447 N446 1.373 . S
C447 H461 0.931 . S
C448 O451 1.256 . S
C448 O452 1.239 1_545 S
O449 Co432 2.021 . S
O449 C442 1.259 . S
O450 Co434 2.117 . S
O450 C442 1.258 . S
O451 Co434 2.020 . S
O451 C448 1.256 . S
O452 Co432 2.056 1_565 S
O452 C448 1.239 1_565 S
O453 C433 1.259 . S
O453 Co434 2.021 . S
H454 C445 0.930 . S
H455 C444 0.931 . S
O456 Co432 2.117 . S
O456 C433 1.258 . S
O457 Co432 2.020 1_655 S
O457 C459 1.256 . S
O458 Co434 2.062 1_655 S
O458 C459 1.255 . S
C459 O457 1.256 . S
C459 O458 1.255 . S
H460 C439 0.931 . S
H461 C447 0.931 . S
Co462 N467 2.057 . S
Co462 O479 2.021 . S
Co462 O482 2.062 . S
Co462 O486 2.117 . S
Co462 O487 2.020 . S
C463 O483 1.259 . S
C463 O486 1.258 . S
Co464 N473 2.057 . S
Co464 O480 2.117 . S
Co464 O481 2.020 . S
Co464 O483 2.021 . S
Co464 O488 2.062 . S
C465 N467 1.316 . S
C465 N468 1.347 . S
C465 H470 0.931 . S
C466 N467 1.375 . S
C466 C469 1.350 . S
C466 H471 0.930 . S
N467 Co462 2.057 . S
N467 C465 1.316 . S
N467 C466 1.375 . S
N468 C465 1.347 . S
N468 C469 1.373 . S
C469 C466 1.350 . S
C469 N468 1.373 . S
C469 H490 0.931 . S
H470 C465 0.931 . S
H471 C466 0.930 . S
C472 O479 1.259 . S
C472 O480 1.258 . S
N473 Co464 2.057 . S
N473 C474 1.316 . S
N473 C475 1.375 . S
C474 N473 1.316 . S
C474 N476 1.347 . S
C474 H485 0.931 . S
C475 N473 1.375 . S
C475 C477 1.350 . S
C475 H484 0.930 . S
N476 C474 1.347 . S
N476 C477 1.373 . S
C477 C475 1.350 . S
C477 N476 1.373 . S
C477 H491 0.931 . S
C478 O481 1.256 . S
C478 O482 1.255 . S
O479 Co462 2.021 . S
O479 C472 1.259 . S
O480 Co464 2.117 . S
O480 C472 1.258 . S
O481 Co464 2.020 . S
O481 C478 1.256 . S
O482 Co462 2.062 . S
O482 C478 1.255 . S
O483 C463 1.259 . S
O483 Co464 2.021 . S
H484 C475 0.930 . S
H485 C474 0.931 . S
O486 Co462 2.117 . S
O486 C463 1.258 . S
O487 Co462 2.020 . S
O487 C489 1.256 . S
O488 Co464 2.062 . S
O488 C489 1.255 . S
C489 O487 1.256 . S
C489 O488 1.255 . S
H490 C469 0.931 . S
H491 C477 0.931 . S
Co492 N497 2.057 1_554 S
Co492 O509 2.021 . S
Co492 O512 2.062 1_554 S
Co492 O516 2.117 . S
Co492 O517 2.020 1_545 S
C493 O513 1.259 . S
C493 O516 1.258 . S
Co494 N503 2.057 . S
Co494 O510 2.117 . S
Co494 O511 2.020 . S
Co494 O513 2.021 . S
Co494 O518 2.062 . S
C495 N497 1.316 . S
C495 N498 1.347 . S
C495 H500 0.931 . S
C496 N497 1.375 . S
C496 C499 1.350 . S
C496 H501 0.917 1_545 S
N497 Co492 2.057 1_556 S
N497 C495 1.316 . S
N497 C496 1.375 . S
N498 C495 1.347 . S
N498 C499 1.373 . S
C499 C496 1.350 . S
C499 N498 1.373 . S
C499 H520 0.919 1_545 S
H500 C495 0.931 . S
H501 C496 0.917 1_565 S
C502 O509 1.259 . S
C502 O510 1.258 . S
N503 Co494 2.057 . S
N503 C504 1.316 . S
N503 C505 1.375 . S
C504 N503 1.316 . S
C504 N506 1.347 . S
C504 H515 0.931 . S
C505 N503 1.375 . S
C505 C507 1.350 . S
C505 H514 0.930 . S
N506 C504 1.347 . S
N506 C507 1.373 . S
C507 C505 1.350 . S
C507 N506 1.373 . S
C507 H521 0.931 . S
C508 O511 1.256 . S
C508 O512 1.255 1_554 S
O509 Co492 2.021 . S
O509 C502 1.259 . S
O510 Co494 2.117 . S
O510 C502 1.258 . S
O511 Co494 2.020 . S
O511 C508 1.256 . S
O512 Co492 2.062 1_556 S
O512 C508 1.255 1_556 S
O513 C493 1.259 . S
O513 Co494 2.021 . S
H514 C505 0.930 . S
H515 C504 0.931 . S
O516 Co492 2.117 . S
O516 C493 1.258 . S
O517 Co492 2.020 1_565 S
O517 C519 1.256 . S
O518 Co494 2.062 . S
O518 C519 1.255 1_545 S
C519 O517 1.256 . S
C519 O518 1.255 1_565 S
H520 C499 0.919 1_565 S
H521 C507 0.931 . S
Co522 N527 2.057 . S
Co522 O539 2.021 . S
Co522 O542 2.062 . S
Co522 O546 2.117 . S
Co522 O547 2.020 . S
C523 O543 1.259 . S
C523 O546 1.258 . S
Co524 N533 2.057 . S
Co524 O540 2.117 . S
Co524 O541 2.020 . S
Co524 O543 2.021 . S
Co524 O548 2.062 . S
C525 N527 1.316 . S
C525 N528 1.347 . S
C525 H530 0.931 . S
C526 N527 1.375 . S
C526 C529 1.350 . S
C526 H531 0.930 . S
N527 Co522 2.057 . S
N527 C525 1.316 . S
N527 C526 1.375 . S
N528 C525 1.347 . S
N528 C529 1.373 . S
C529 C526 1.350 . S
C529 N528 1.373 . S
C529 H550 0.931 . S
H530 C525 0.931 . S
H531 C526 0.930 . S
C532 O539 1.259 . S
C532 O540 1.258 . S
N533 Co524 2.057 . S
N533 C534 1.316 . S
N533 C535 1.375 . S
C534 N533 1.316 . S
C534 N536 1.347 . S
C534 H545 0.931 . S
C535 N533 1.375 . S
C535 C537 1.350 . S
C535 H544 0.930 . S
N536 C534 1.347 . S
N536 C537 1.373 . S
C537 C535 1.350 . S
C537 N536 1.373 . S
C537 H551 0.931 . S
C538 O541 1.256 . S
C538 O542 1.255 . S
O539 Co522 2.021 . S
O539 C532 1.259 . S
O540 Co524 2.117 . S
O540 C532 1.258 . S
O541 Co524 2.020 . S
O541 C538 1.256 . S
O542 Co522 2.062 . S
O542 C538 1.255 . S
O543 C523 1.259 . S
O543 Co524 2.021 . S
H544 C535 0.930 . S
H545 C534 0.931 . S
O546 Co522 2.117 . S
O546 C523 1.258 . S
O547 Co522 2.020 . S
O547 C549 1.256 . S
O548 Co524 2.062 . S
O548 C549 1.255 . S
C549 O547 1.256 . S
C549 O548 1.255 . S
H550 C529 0.931 . S
H551 C537 0.931 . S
Co552 N557 2.057 . S
Co552 O569 2.021 1_554 S
Co552 O572 2.062 . S
Co552 O576 2.117 . S
Co552 O577 2.020 . S
C553 O573 1.259 . S
C553 O576 1.258 . S
Co554 N563 2.057 . S
Co554 O570 2.117 1_554 S
Co554 O571 2.020 . S
Co554 O573 2.021 . S
Co554 O578 2.062 . S
C555 N557 1.316 1_556 S
C555 N558 1.347 1_556 S
C555 H560 0.931 . S
C556 N557 1.375 . S
C556 C559 1.350 . S
C556 H561 0.930 . S
N557 Co552 2.057 . S
N557 C555 1.316 1_554 S
N557 C556 1.375 . S
N558 C555 1.347 1_554 S
N558 C559 1.373 . S
C559 C556 1.350 . S
C559 N558 1.373 . S
C559 H580 0.931 . S
H560 C555 0.931 . S
H561 C556 0.930 . S
C562 O569 1.259 . S
C562 O570 1.258 . S
N563 Co554 2.057 . S
N563 C564 1.316 . S
N563 C565 1.375 . S
C564 N563 1.316 . S
C564 N566 1.347 . S
C564 H575 0.931 . S
C565 N563 1.375 . S
C565 C567 1.350 . S
C565 H574 0.930 . S
N566 C564 1.347 . S
N566 C567 1.373 . S
C567 C565 1.350 . S
C567 N566 1.373 . S
C567 H581 0.931 . S
C568 O571 1.256 . S
C568 O572 1.255 . S
O569 Co552 2.021 1_556 S
O569 C562 1.259 . S
O570 Co554 2.117 1_556 S
O570 C562 1.258 . S
O571 Co554 2.020 . S
O571 C568 1.256 . S
O572 Co552 2.062 . S
O572 C568 1.255 . S
O573 C553 1.259 . S
O573 Co554 2.021 . S
H574 C565 0.930 . S
H575 C564 0.931 . S
O576 Co552 2.117 . S
O576 C553 1.258 . S
O577 Co552 2.020 . S
O577 C579 1.256 . S
O578 Co554 2.062 . S
O578 C579 1.255 . S
C579 O577 1.256 . S
C579 O578 1.255 . S
H580 C559 0.931 . S
H581 C567 0.931 . S
Co582 N587 2.057 . S
Co582 O599 2.021 . S
Co582 O602 2.062 . S
Co582 O606 2.117 . S
Co582 O607 2.020 . S
C583 O603 1.259 . S
C583 O606 1.258 . S
Co584 N593 2.057 . S
Co584 O600 2.117 . S
Co584 O601 2.020 . S
Co584 O603 2.021 . S
Co584 O608 2.062 . S
C585 N587 1.316 . S
C585 N588 1.347 . S
C585 H590 0.931 . S
C586 N587 1.375 . S
C586 C589 1.350 . S
C586 H591 0.930 . S
N587 Co582 2.057 . S
N587 C585 1.316 . S
N587 C586 1.375 . S
N588 C585 1.347 . S
N588 C589 1.373 . S
C589 C586 1.350 . S
C589 N588 1.373 . S
C589 H610 0.931 . S
H590 C585 0.931 . S
H591 C586 0.930 . S
C592 O599 1.259 . S
C592 O600 1.258 . S
N593 Co584 2.057 . S
N593 C594 1.316 . S
N593 C595 1.375 . S
C594 N593 1.316 . S
C594 N596 1.347 . S
C594 H605 0.931 . S
C595 N593 1.375 . S
C595 C597 1.350 . S
C595 H604 0.930 . S
N596 C594 1.347 . S
N596 C597 1.373 . S
C597 C595 1.350 . S
C597 N596 1.373 . S
C597 H611 0.931 . S
C598 O601 1.256 . S
C598 O602 1.255 . S
O599 Co582 2.021 . S
O599 C592 1.259 . S
O600 Co584 2.117 . S
O600 C592 1.258 . S
O601 Co584 2.020 . S
O601 C598 1.256 . S
O602 Co582 2.062 . S
O602 C598 1.255 . S
O603 C583 1.259 . S
O603 Co584 2.021 . S
H604 C595 0.930 . S
H605 C594 0.931 . S
O606 Co582 2.117 . S
O606 C583 1.258 . S
O607 Co582 2.020 . S
O607 C609 1.256 . S
O608 Co584 2.062 . S
O608 C609 1.255 . S
C609 O607 1.256 . S
C609 O608 1.255 . S
H610 C589 0.931 . S
H611 C597 0.931 . S
Co612 N617 2.057 . S
Co612 O629 2.021 1_455 S
Co612 O632 2.062 . S
Co612 O636 2.117 . S
Co612 O637 2.020 . S
C613 O633 1.259 . S
C613 O636 1.258 . S
Co614 N623 2.057 . S
Co614 O630 2.117 1_455 S
Co614 O631 2.020 . S
Co614 O633 2.021 . S
Co614 O638 2.062 . S
C615 N617 1.316 1_655 S
C615 N618 1.347 . S
C615 H620 0.931 . S
C616 N617 1.375 . S
C616 C619 1.350 . S
C616 H621 0.930 . S
N617 Co612 2.057 . S
N617 C615 1.316 1_455 S
N617 C616 1.375 . S
N618 C615 1.347 . S
N618 C619 1.373 1_655 S
C619 C616 1.350 . S
C619 N618 1.373 1_455 S
C619 H640 0.931 . S
H620 C615 0.931 . S
H621 C616 0.930 . S
C622 O629 1.259 . S
C622 O630 1.258 . S
N623 Co614 2.057 . S
N623 C624 1.316 . S
N623 C625 1.375 . S
C624 N623 1.316 . S
C624 N626 1.347 . S
C624 H635 0.931 . S
C625 N623 1.375 . S
C625 C627 1.350 . S
C625 H634 0.930 . S
N626 C624 1.347 . S
N626 C627 1.373 . S
C627 C625 1.350 . S
C627 N626 1.373 . S
C627 H641 0.931 . S
C628 O631 1.256 . S
C628 O632 1.255 . S
O629 Co612 2.021 1_655 S
O629 C622 1.259 . S
O630 Co614 2.117 1_655 S
O630 C622 1.258 . S
O631 Co614 2.020 . S
O631 C628 1.256 . S
O632 Co612 2.062 . S
O632 C628 1.255 . S
O633 C613 1.259 . S
O633 Co614 2.021 . S
H634 C625 0.930 . S
H635 C624 0.931 . S
O636 Co612 2.117 . S
O636 C613 1.258 . S
O637 Co612 2.020 . S
O637 C639 1.256 . S
O638 Co614 2.062 . S
O638 C639 1.255 . S
C639 O637 1.256 . S
C639 O638 1.255 . S
H640 C619 0.931 . S
H641 C627 0.931 . S
Co642 N647 2.057 . S
Co642 O659 2.021 . S
Co642 O662 2.062 . S
Co642 O666 2.117 . S
Co642 O667 2.020 . S
C643 O663 1.259 . S
C643 O666 1.258 . S
Co644 N653 2.057 . S
Co644 O660 2.117 . S
Co644 O661 2.020 . S
Co644 O663 2.021 . S
Co644 O668 2.062 . S
C645 N647 1.316 . S
C645 N648 1.347 . S
C645 H650 0.931 . S
C646 N647 1.375 . S
C646 C649 1.350 . S
C646 H651 0.930 . S
N647 Co642 2.057 . S
N647 C645 1.316 . S
N647 C646 1.375 . S
N648 C645 1.347 . S
N648 C649 1.373 . S
C649 C646 1.350 . S
C649 N648 1.373 . S
C649 H670 0.931 . S
H650 C645 0.931 . S
H651 C646 0.930 . S
C652 O659 1.259 . S
C652 O660 1.258 . S
N653 Co644 2.057 . S
N653 C654 1.316 . S
N653 C655 1.375 . S
C654 N653 1.316 . S
C654 N656 1.347 . S
C654 H665 0.931 . S
C655 N653 1.375 . S
C655 C657 1.350 . S
C655 H664 0.930 . S
N656 C654 1.347 . S
N656 C657 1.373 . S
C657 C655 1.350 . S
C657 N656 1.373 . S
C657 H671 0.931 . S
C658 O661 1.256 . S
C658 O662 1.255 . S
O659 Co642 2.021 . S
O659 C652 1.259 . S
O660 Co644 2.117 . S
O660 C652 1.258 . S
O661 Co644 2.020 . S
O661 C658 1.256 . S
O662 Co642 2.062 . S
O662 C658 1.255 . S
O663 C643 1.259 . S
O663 Co644 2.021 . S
H664 C655 0.930 . S
H665 C654 0.931 . S
O666 Co642 2.117 . S
O666 C643 1.258 . S
O667 Co642 2.020 . S
O667 C669 1.256 . S
O668 Co644 2.062 . S
O668 C669 1.255 . S
C669 O667 1.256 . S
C669 O668 1.255 . S
H670 C649 0.931 . S
H671 C657 0.931 . S
Co672 N677 2.057 . S
Co672 O689 2.021 . S
Co672 O692 2.062 . S
Co672 O696 2.117 . S
Co672 O697 2.020 . S
C673 O693 1.259 . S
C673 O696 1.258 . S
Co674 N683 2.057 . S
Co674 O690 2.117 . S
Co674 O691 2.020 . S
Co674 O693 2.021 . S
Co674 O698 2.062 . S
C675 N677 1.316 . S
C675 N678 1.347 . S
C675 H680 0.931 . S
C676 N677 1.375 . S
C676 C679 1.350 . S
C676 H681 0.930 . S
N677 Co672 2.057 . S
N677 C675 1.316 . S
N677 C676 1.375 . S
N678 C675 1.347 . S
N678 C679 1.373 . S
C679 C676 1.350 . S
C679 N678 1.373 . S
C679 H700 0.931 . S
H680 C675 0.931 . S
H681 C676 0.930 . S
C682 O689 1.259 . S
C682 O690 1.258 . S
N683 Co674 2.057 . S
N683 C684 1.316 . S
N683 C685 1.375 . S
C684 N683 1.316 . S
C684 N686 1.347 . S
C684 H695 0.931 . S
C685 N683 1.375 . S
C685 C687 1.350 . S
C685 H694 0.930 . S
N686 C684 1.347 . S
N686 C687 1.373 . S
C687 C685 1.350 . S
C687 N686 1.373 . S
C687 H701 0.931 . S
C688 O691 1.256 . S
C688 O692 1.255 . S
O689 Co672 2.021 . S
O689 C682 1.259 . S
O690 Co674 2.117 . S
O690 C682 1.258 . S
O691 Co674 2.020 . S
O691 C688 1.256 . S
O692 Co672 2.062 . S
O692 C688 1.255 . S
O693 C673 1.259 . S
O693 Co674 2.021 . S
H694 C685 0.930 . S
H695 C684 0.931 . S
O696 Co672 2.117 . S
O696 C673 1.258 . S
O697 Co672 2.020 . S
O697 C699 1.256 . S
O698 Co674 2.062 . S
O698 C699 1.255 . S
C699 O697 1.256 . S
C699 O698 1.255 . S
H700 C679 0.931 . S
H701 C687 0.931 . S
Co702 N707 2.057 . S
Co702 O719 2.021 . S
Co702 O722 2.062 . S
Co702 O726 2.117 . S
Co702 O727 2.020 . S
C703 O723 1.259 . S
C703 O726 1.258 . S
Co704 N713 2.057 . S
Co704 O720 2.117 . S
Co704 O721 2.020 . S
Co704 O723 2.021 . S
Co704 O728 2.062 . S
C705 N707 1.316 . S
C705 N708 1.347 . S
C705 H710 0.931 . S
C706 N707 1.375 . S
C706 C709 1.350 . S
C706 H711 0.930 . S
N707 Co702 2.057 . S
N707 C705 1.316 . S
N707 C706 1.375 . S
N708 C705 1.347 . S
N708 C709 1.373 . S
C709 C706 1.350 . S
C709 N708 1.373 . S
C709 H730 0.931 . S
H710 C705 0.931 . S
H711 C706 0.930 . S
C712 O719 1.259 . S
C712 O720 1.258 . S
N713 Co704 2.057 . S
N713 C714 1.316 . S
N713 C715 1.375 . S
C714 N713 1.316 . S
C714 N716 1.347 . S
C714 H725 0.931 . S
C715 N713 1.375 . S
C715 C717 1.350 . S
C715 H724 0.930 . S
N716 C714 1.347 . S
N716 C717 1.373 . S
C717 C715 1.350 . S
C717 N716 1.373 . S
C717 H731 0.931 . S
C718 O721 1.256 . S
C718 O722 1.255 . S
O719 Co702 2.021 . S
O719 C712 1.259 . S
O720 Co704 2.117 . S
O720 C712 1.258 . S
O721 Co704 2.020 . S
O721 C718 1.256 . S
O722 Co702 2.062 . S
O722 C718 1.255 . S
O723 C703 1.259 . S
O723 Co704 2.021 . S
H724 C715 0.930 . S
H725 C714 0.931 . S
O726 Co702 2.117 . S
O726 C703 1.258 . S
O727 Co702 2.020 . S
O727 C729 1.256 . S
O728 Co704 2.062 . S
O728 C729 1.255 . S
C729 O727 1.256 . S
C729 O728 1.255 . S
H730 C709 0.931 . S
H731 C717 0.931 . S
Co732 N737 2.057 . S
Co732 O749 2.021 . S
Co732 O752 2.062 . S
Co732 O756 2.117 . S
Co732 O757 2.020 . S
C733 O753 1.259 . S
C733 O756 1.258 . S
Co734 N743 2.057 . S
Co734 O750 2.117 . S
Co734 O751 2.020 . S
Co734 O753 2.021 . S
Co734 O758 2.062 . S
C735 N737 1.316 . S
C735 N738 1.347 . S
C735 H740 0.931 . S
C736 N737 1.375 . S
C736 C739 1.350 . S
C736 H741 0.930 . S
N737 Co732 2.057 . S
N737 C735 1.316 . S
N737 C736 1.375 . S
N738 C735 1.347 . S
N738 C739 1.373 . S
C739 C736 1.350 . S
C739 N738 1.373 . S
C739 H760 0.931 . S
H740 C735 0.931 . S
H741 C736 0.930 . S
C742 O749 1.259 . S
C742 O750 1.258 . S
N743 Co734 2.057 . S
N743 C744 1.316 . S
N743 C745 1.375 . S
C744 N743 1.316 . S
C744 N746 1.347 . S
C744 H755 0.931 . S
C745 N743 1.375 . S
C745 C747 1.350 . S
C745 H754 0.930 . S
N746 C744 1.347 . S
N746 C747 1.373 . S
C747 C745 1.350 . S
C747 N746 1.373 . S
C747 H761 0.931 . S
C748 O751 1.256 . S
C748 O752 1.255 . S
O749 Co732 2.021 . S
O749 C742 1.259 . S
O750 Co734 2.117 . S
O750 C742 1.258 . S
O751 Co734 2.020 . S
O751 C748 1.256 . S
O752 Co732 2.062 . S
O752 C748 1.255 . S
O753 C733 1.259 . S
O753 Co734 2.021 . S
H754 C745 0.930 . S
H755 C744 0.931 . S
O756 Co732 2.117 . S
O756 C733 1.258 . S
O757 Co732 2.020 . S
O757 C759 1.256 . S
O758 Co734 2.062 . S
O758 C759 1.255 . S
C759 O757 1.256 . S
C759 O758 1.255 . S
H760 C739 0.931 . S
H761 C747 0.931 . S
Co762 N767 2.057 1_455 S
Co762 O779 2.021 . S
Co762 O782 2.062 1_455 S
Co762 O786 2.117 . S
Co762 O787 2.020 1_554 S
C763 O783 1.259 . S
C763 O786 1.258 . S
Co764 N773 2.057 . S
Co764 O780 2.117 . S
Co764 O781 2.020 . S
Co764 O783 2.021 . S
Co764 O788 2.038 1_554 S
C765 N767 1.316 . S
C765 N768 1.347 . S
C765 H770 0.931 . S
C766 N767 1.391 . S
C766 C769 1.350 . S
C766 H771 0.918 1_554 S
N767 Co762 2.057 1_655 S
N767 C765 1.316 . S
N767 C766 1.391 . S
N768 C765 1.347 . S
N768 C769 1.386 . S
C769 C766 1.350 . S
C769 N768 1.386 . S
C769 H790 0.919 1_554 S
H770 C765 0.931 . S
H771 C766 0.918 1_556 S
C772 O779 1.259 . S
C772 O780 1.258 . S
N773 Co764 2.057 . S
N773 C774 1.316 . S
N773 C775 1.375 . S
C774 N773 1.316 . S
C774 N776 1.347 . S
C774 H785 0.931 . S
C775 N773 1.375 . S
C775 C777 1.350 . S
C775 H784 0.930 . S
N776 C774 1.347 . S
N776 C777 1.373 . S
C777 C775 1.350 . S
C777 N776 1.373 . S
C777 H791 0.931 . S
C778 O781 1.256 . S
C778 O782 1.255 1_455 S
O779 Co762 2.021 . S
O779 C772 1.259 . S
O780 Co764 2.117 . S
O780 C772 1.258 . S
O781 Co764 2.020 . S
O781 C778 1.256 . S
O782 Co762 2.062 1_655 S
O782 C778 1.255 1_655 S
O783 C763 1.259 . S
O783 Co764 2.021 . S
H784 C775 0.930 . S
H785 C774 0.931 . S
O786 Co762 2.117 . S
O786 C763 1.258 . S
O787 Co762 2.020 1_556 S
O787 C789 1.256 . S
O788 Co764 2.038 1_556 S
O788 C789 1.271 . S
C789 O787 1.256 . S
C789 O788 1.271 . S
H790 C769 0.919 1_556 S
H791 C777 0.931 . S
C792 C793 1.387 . S
C792 H796 0.950 . S
C792 C801 1.390 . S
C793 C792 1.387 . S
C793 C795 1.387 . S
H794 C801 0.950 1_655 S
C795 C793 1.387 . S
C795 C797 1.390 . S
C795 H799 0.950 . S
H796 C792 0.950 . S
C797 C795 1.390 . S
C797 C798 1.387 . S
C797 H800 0.950 . S
C798 C797 1.387 . S
C798 C801 1.387 . S
H799 C795 0.950 . S
H800 C797 0.950 . S
C801 C792 1.390 . S
C801 H794 0.950 1_455 S
C801 C798 1.387 . S
C802 C803 1.387 . S
C802 H806 0.950 . S
C802 C811 1.390 . S
C803 C802 1.387 . S
C803 C805 1.387 . S
H804 C811 0.950 . S
C805 C803 1.387 . S
C805 C807 1.390 . S
C805 H809 0.950 . S
H806 C802 0.950 . S
C807 C805 1.390 . S
C807 C808 1.387 . S
C807 H810 0.950 . S
C808 C807 1.387 . S
C808 C811 1.387 . S
H809 C805 0.950 . S
H810 C807 0.950 . S
C811 C802 1.390 . S
C811 H804 0.950 . S
C811 C808 1.387 . S
C812 C813 1.387 . S
C812 H816 0.950 . S
C812 C821 1.390 . S
C813 C812 1.387 . S
C813 C815 1.387 . S
H814 C821 0.950 . S
C815 C813 1.387 . S
C815 C817 1.390 . S
C815 H819 0.950 . S
H816 C812 0.950 . S
C817 C815 1.390 . S
C817 C818 1.387 . S
C817 H820 0.950 . S
C818 C817 1.387 . S
C818 C821 1.387 . S
H819 C815 0.950 . S
H820 C817 0.950 . S
C821 C812 1.390 . S
C821 H814 0.950 . S
C821 C818 1.387 . S
C822 C823 1.387 . S
C822 H826 0.950 . S
C822 C831 1.390 . S
C823 C822 1.387 . S
C823 C825 1.387 . S
H824 C831 0.950 . S
C825 C823 1.387 . S
C825 C827 1.390 . S
C825 H829 0.950 . S
H826 C822 0.950 . S
C827 C825 1.390 . S
C827 C828 1.387 . S
C827 H830 0.950 . S
C828 C827 1.387 . S
C828 C831 1.387 . S
H829 C825 0.950 . S
H830 C827 0.950 . S
C831 C822 1.390 . S
C831 H824 0.950 . S
C831 C828 1.387 . S
C832 C833 1.387 . S
C832 H836 0.950 . S
C832 C841 1.390 . S
C833 C832 1.387 . S
C833 C835 1.387 . S
H834 C841 0.950 . S
C835 C833 1.387 . S
C835 C837 1.390 . S
C835 H839 0.950 . S
H836 C832 0.950 . S
C837 C835 1.390 . S
C837 C838 1.387 . S
C837 H840 0.949 1_455 S
C838 C837 1.387 . S
C838 C841 1.387 . S
H839 C835 0.950 . S
H840 C837 0.949 1_655 S
C841 C832 1.390 . S
C841 H834 0.950 . S
C841 C838 1.387 . S
C842 C843 1.387 . S
C842 H846 0.950 . S
C842 C851 1.390 . S
C843 C842 1.387 . S
C843 C845 1.387 . S
H844 C851 0.950 . S
C845 C843 1.387 . S
C845 C847 1.390 . S
C845 H849 0.950 . S
H846 C842 0.950 . S
C847 C845 1.390 . S
C847 C848 1.387 . S
C847 H850 0.950 . S
C848 C847 1.387 . S
C848 C851 1.387 . S
H849 C845 0.950 . S
H850 C847 0.950 . S
C851 C842 1.390 . S
C851 H844 0.950 . S
C851 C848 1.387 . S
C852 C853 1.387 . S
C852 H856 0.950 . S
C852 C861 1.390 . S
C853 C852 1.387 . S
C853 C855 1.387 . S
H854 C861 0.950 . S
C855 C853 1.387 . S
C855 C857 1.390 1_556 S
C855 H859 0.950 1_556 S
H856 C852 0.950 . S
C857 C855 1.390 1_554 S
C857 C858 1.379 1_554 S
C857 H860 0.950 . S
C858 C857 1.379 1_556 S
C858 C861 1.405 . S
H859 C855 0.950 1_554 S
H860 C857 0.950 . S
C861 C852 1.390 . S
C861 H854 0.950 . S
C861 C858 1.405 . S
C862 C863 1.387 . S
C862 H866 0.950 . S
C862 C871 1.390 . S
C863 C862 1.387 . S
C863 C865 1.387 . S
H864 C871 0.950 . S
C865 C863 1.387 . S
C865 C867 1.390 . S
C865 H869 0.950 . S
H866 C862 0.950 . S
C867 C865 1.390 . S
C867 C868 1.387 . S
C867 H870 0.950 . S
C868 C867 1.387 . S
C868 C871 1.387 . S
H869 C865 0.950 . S
H870 C867 0.950 . S
C871 C862 1.390 . S
C871 H864 0.950 . S
C871 C868 1.387 . S
C872 C873 1.387 1_565 S
C872 H876 0.950 . S
C872 C881 1.390 . S
C873 C872 1.387 1_545 S
C873 C875 1.387 . S
H874 C881 0.950 . S
C875 C873 1.387 . S
C875 C877 1.390 . S
C875 H879 0.950 . S
H876 C872 0.950 . S
C877 C875 1.390 . S
C877 C878 1.387 . S
C877 H880 0.950 . S
C878 C877 1.387 . S
C878 C881 1.387 1_545 S
H879 C875 0.950 . S
H880 C877 0.950 . S
C881 C872 1.390 . S
C881 H874 0.950 . S
C881 C878 1.387 1_565 S
C882 C883 1.387 . S
C882 H886 0.950 . S
C882 C891 1.390 . S
C883 C882 1.387 . S
C883 C885 1.387 . S
H884 C891 0.950 . S
C885 C883 1.387 . S
C885 C887 1.390 . S
C885 H889 0.950 . S
H886 C882 0.950 . S
C887 C885 1.390 . S
C887 C888 1.387 . S
C887 H890 0.950 . S
C888 C887 1.387 . S
C888 C891 1.387 . S
H889 C885 0.950 . S
H890 C887 0.950 . S
C891 C882 1.390 . S
C891 H884 0.950 . S
C891 C888 1.387 . S
C892 C893 1.387 . S
C892 H896 0.950 . S
C892 C901 1.390 . S
C893 C892 1.387 . S
C893 C895 1.387 . S
H894 C901 0.950 . S
C895 C893 1.387 . S
C895 C897 1.390 . S
C895 H899 0.950 . S
H896 C892 0.950 . S
C897 C895 1.390 . S
C897 C898 1.387 . S
C897 H900 0.950 . S
C898 C897 1.387 . S
C898 C901 1.387 . S
H899 C895 0.950 . S
H900 C897 0.950 . S
C901 C892 1.390 . S
C901 H894 0.950 . S
C901 C898 1.387 . S
C902 C903 1.387 . S
C902 H906 0.950 . S
C902 C911 1.390 . S
C903 C902 1.387 . S
C903 C905 1.387 . S
H904 C911 0.950 . S
C905 C903 1.387 . S
C905 C907 1.390 . S
C905 H909 0.950 . S
H906 C902 0.950 . S
C907 C905 1.390 . S
C907 C908 1.387 . S
C907 H910 0.950 . S
C908 C907 1.387 . S
C908 C911 1.387 . S
H909 C905 0.950 . S
H910 C907 0.950 . S
C911 C902 1.390 . S
C911 H904 0.950 . S
C911 C908 1.387 . S
C912 C913 1.387 1_565 S
C912 H916 0.950 . S
C912 C921 1.390 1_565 S
C913 C912 1.387 1_545 S
C913 C915 1.387 . S
H914 C921 0.965 . S
C915 C913 1.387 . S
C915 C917 1.390 . S
C915 H919 0.950 . S
H916 C912 0.950 . S
C917 C915 1.390 . S
C917 C918 1.387 . S
C917 H920 0.950 . S
C918 C917 1.387 . S
C918 C921 1.387 . S
H919 C915 0.950 . S
H920 C917 0.950 . S
C921 C912 1.390 1_545 S
C921 H914 0.965 . S
C921 C918 1.387 . S
C922 C923 1.387 . S
C922 H926 0.950 . S
C922 C931 1.390 . S
C923 C922 1.387 . S
C923 C925 1.387 . S
H924 C931 0.950 . S
C925 C923 1.387 . S
C925 C927 1.390 . S
C925 H929 0.950 . S
H926 C922 0.950 . S
C927 C925 1.390 . S
C927 C928 1.387 . S
C927 H930 0.950 . S
C928 C927 1.387 . S
C928 C931 1.387 . S
H929 C925 0.950 . S
H930 C927 0.950 . S
C931 C922 1.390 . S
C931 H924 0.950 . S
C931 C928 1.387 . S
C932 C933 1.387 . S
C932 H936 0.950 . S
C932 C941 1.390 . S
C933 C932 1.387 . S
C933 C935 1.387 . S
H934 C941 0.950 1_565 S
C935 C933 1.387 . S
C935 C937 1.390 . S
C935 H939 0.950 . S
H936 C932 0.950 . S
C937 C935 1.390 . S
C937 C938 1.387 . S
C937 H940 0.950 . S
C938 C937 1.387 . S
C938 C941 1.387 . S
H939 C935 0.950 . S
H940 C937 0.950 . S
C941 C932 1.390 . S
C941 H934 0.950 1_545 S
C941 C938 1.387 . S
C942 C943 1.387 . S
C942 H946 0.950 . S
C942 C951 1.390 . S
C943 C942 1.387 . S
C943 C945 1.387 . S
H944 C951 0.950 . S
C945 C943 1.387 . S
C945 C947 1.390 . S
C945 H949 0.950 . S
H946 C942 0.950 . S
C947 C945 1.390 . S
C947 C948 1.387 . S
C947 H950 0.950 . S
C948 C947 1.387 . S
C948 C951 1.387 . S
H949 C945 0.950 . S
H950 C947 0.950 . S
C951 C942 1.390 . S
C951 H944 0.950 . S
C951 C948 1.387 . S
C952 C953 1.387 . S
C952 H956 0.950 1_554 S
C952 C961 1.390 . S
C953 C952 1.387 . S
C953 C955 1.387 . S
H954 C961 0.950 1_556 S
C955 C953 1.387 . S
C955 C957 1.390 . S
C955 H959 0.950 . S
H956 C952 0.950 1_556 S
C957 C955 1.390 . S
C957 C958 1.387 . S
C957 H960 0.950 . S
C958 C957 1.387 . S
C958 C961 1.387 . S
H959 C955 0.950 . S
H960 C957 0.950 . S
C961 C952 1.390 . S
C961 H954 0.950 1_554 S
C961 C958 1.387 . S
C962 C963 1.387 . S
C962 H966 0.950 . S
C962 C971 1.390 . S
C963 C962 1.387 . S
C963 C965 1.387 . S
H964 C971 0.950 . S
C965 C963 1.387 . S
C965 C967 1.390 . S
C965 H969 0.950 . S
H966 C962 0.950 . S
C967 C965 1.390 . S
C967 C968 1.387 . S
C967 H970 0.950 . S
C968 C967 1.387 . S
C968 C971 1.387 . S
H969 C965 0.950 . S
H970 C967 0.950 . S
C971 C962 1.390 . S
C971 H964 0.950 . S
C971 C968 1.387 . S
C972 C973 1.387 . S
C972 H976 0.950 . S
C972 C981 1.390 . S
C973 C972 1.387 . S
C973 C975 1.387 . S
H974 C981 0.950 . S
C975 C973 1.387 . S
C975 C977 1.390 . S
C975 H979 0.950 . S
H976 C972 0.950 . S
C977 C975 1.390 . S
C977 C978 1.387 . S
C977 H980 0.950 . S
C978 C977 1.387 . S
C978 C981 1.387 . S
H979 C975 0.950 . S
H980 C977 0.950 . S
C981 C972 1.390 . S
C981 H974 0.950 . S
C981 C978 1.387 . S
C982 C983 1.387 . S
C982 H986 0.950 . S
C982 C991 1.390 . S
C983 C982 1.387 . S
C983 C985 1.387 . S
H984 C991 0.950 . S
C985 C983 1.387 . S
C985 C987 1.390 . S
C985 H989 0.950 . S
H986 C982 0.950 . S
C987 C985 1.390 . S
C987 C988 1.387 . S
C987 H990 0.950 . S
C988 C987 1.387 . S
C988 C991 1.387 . S
H989 C985 0.950 . S
H990 C987 0.950 . S
C991 C982 1.390 . S
C991 H984 0.950 . S
C991 C988 1.387 . S
C992 C993 1.387 . S
C992 H996 0.950 . S
C992 C1001 1.390 . S
C993 C992 1.387 . S
C993 C995 1.387 . S
H994 C1001 0.950 . S
C995 C993 1.387 . S
C995 C997 1.390 . S
C995 H999 0.950 . S
H996 C992 0.950 . S
C997 C995 1.390 . S
C997 C998 1.387 . S
C997 H1000 0.950 . S
C998 C997 1.387 . S
C998 C1001 1.387 . S
H999 C995 0.950 . S
H1000 C997 0.950 . S
C1001 C992 1.390 . S
C1001 H994 0.950 . S
C1001 C998 1.387 . S
C1002 C1003 1.387 . S
C1002 H1006 0.950 . S
C1002 C1011 1.390 . S
C1003 C1002 1.387 . S
C1003 C1005 1.387 . S
H1004 C1011 0.950 . S
C1005 C1003 1.387 . S
C1005 C1007 1.390 . S
C1005 H1009 0.950 . S
H1006 C1002 0.950 . S
C1007 C1005 1.390 . S
C1007 C1008 1.387 . S
C1007 H1010 0.950 1_565 S
C1008 C1007 1.387 . S
C1008 C1011 1.387 . S
H1009 C1005 0.950 . S
H1010 C1007 0.950 1_545 S
C1011 C1002 1.390 . S
C1011 H1004 0.950 . S
C1011 C1008 1.387 . S
C1012 C1013 1.387 . S
C1012 H1016 0.950 . S
C1012 C1021 1.390 . S
C1013 C1012 1.387 . S
C1013 C1015 1.387 . S
H1014 C1021 0.950 . S
C1015 C1013 1.387 . S
C1015 C1017 1.390 . S
C1015 H1019 0.950 . S
H1016 C1012 0.950 . S
C1017 C1015 1.390 . S
C1017 C1018 1.387 . S
C1017 H1020 0.950 . S
C1018 C1017 1.387 . S
C1018 C1021 1.387 . S
H1019 C1015 0.950 . S
H1020 C1017 0.950 . S
C1021 C1012 1.390 . S
C1021 H1014 0.950 . S
C1021 C1018 1.387 . S
C1022 C1023 1.387 . S
C1022 H1026 0.950 . S
C1022 C1031 1.390 . S
C1023 C1022 1.387 . S
C1023 C1025 1.387 . S
H1024 C1031 0.950 . S
C1025 C1023 1.387 . S
C1025 C1027 1.390 . S
C1025 H1029 0.950 . S
H1026 C1022 0.950 . S
C1027 C1025 1.390 . S
C1027 C1028 1.387 . S
C1027 H1030 0.950 . S
C1028 C1027 1.387 . S
C1028 C1031 1.387 . S
H1029 C1025 0.950 . S
H1030 C1027 0.950 . S
C1031 C1022 1.390 . S
C1031 H1024 0.950 . S
C1031 C1028 1.387 . S
C1032 C1033 1.387 . S
C1032 H1036 0.950 1_455 S
C1032 C1041 1.390 . S
C1033 C1032 1.387 . S
C1033 C1035 1.387 . S
H1034 C1041 0.967 . S
C1035 C1033 1.387 . S
C1035 C1037 1.390 . S
C1035 H1039 0.950 . S
H1036 C1032 0.950 1_655 S
C1037 C1035 1.390 . S
C1037 C1038 1.387 . S
C1037 H1040 0.950 1_556 S
C1038 C1037 1.387 . S
C1038 C1041 1.387 . S
H1039 C1035 0.950 . S
H1040 C1037 0.950 1_554 S
C1041 C1032 1.390 . S
C1041 H1034 0.967 . S
C1041 C1038 1.387 . S
C1042 C1043 1.387 . S
C1042 H1046 0.950 . S
C1042 C1051 1.390 . S
C1043 C1042 1.387 . S
C1043 C1045 1.387 . S
H1044 C1051 0.950 . S
C1045 C1043 1.387 . S
C1045 C1047 1.390 . S
C1045 H1049 0.950 . S
H1046 C1042 0.950 . S
C1047 C1045 1.390 . S
C1047 C1048 1.387 . S
C1047 H1050 0.950 . S
C1048 C1047 1.387 . S
C1048 C1051 1.387 . S
H1049 C1045 0.950 . S
H1050 C1047 0.950 . S
C1051 C1042 1.390 . S
C1051 H1044 0.950 . S
C1051 C1048 1.387 . S
C1052 C1053 1.387 . S
C1052 H1056 0.950 . S
C1052 C1061 1.390 . S
C1053 C1052 1.387 . S
C1053 C1055 1.387 . S
H1054 C1061 0.950 . S
C1055 C1053 1.387 . S
C1055 C1057 1.390 . S
C1055 H1059 0.950 . S
H1056 C1052 0.950 . S
C1057 C1055 1.390 . S
C1057 C1058 1.387 . S
C1057 H1060 0.950 . S
C1058 C1057 1.387 . S
C1058 C1061 1.387 . S
H1059 C1055 0.950 . S
H1060 C1057 0.950 . S
C1061 C1052 1.390 . S
C1061 H1054 0.950 . S
C1061 C1058 1.387 . S
C1062 C1063 1.387 . S
C1062 H1066 0.950 . S
C1062 C1071 1.390 . S
C1063 C1062 1.387 . S
C1063 C1065 1.387 . S
H1064 C1071 0.950 . S
C1065 C1063 1.387 . S
C1065 C1067 1.390 . S
C1065 H1069 0.950 . S
H1066 C1062 0.950 . S
C1067 C1065 1.390 . S
C1067 C1068 1.387 . S
C1067 H1070 0.950 . S
C1068 C1067 1.387 . S
C1068 C1071 1.387 . S
H1069 C1065 0.950 . S
H1070 C1067 0.950 . S
C1071 C1062 1.390 . S
C1071 H1064 0.950 . S
C1071 C1068 1.387 . S
C1072 C1073 1.387 . S
C1072 H1076 0.950 . S
C1072 C1081 1.390 . S
C1073 C1072 1.387 . S
C1073 C1075 1.387 . S
H1074 C1081 0.950 . S
C1075 C1073 1.387 . S
C1075 C1077 1.390 . S
C1075 H1079 0.950 1_455 S
H1076 C1072 0.950 . S
C1077 C1075 1.390 . S
C1077 C1078 1.387 . S
C1077 H1080 0.950 . S
C1078 C1077 1.387 . S
C1078 C1081 1.387 . S
H1079 C1075 0.950 1_655 S
H1080 C1077 0.950 . S
C1081 C1072 1.390 . S
C1081 H1074 0.950 . S
C1081 C1078 1.387 . S
C1082 C1083 1.387 . S
C1082 H1086 0.950 . S
C1082 C1091 1.390 . S
C1083 C1082 1.387 . S
C1083 C1085 1.387 . S
H1084 C1091 0.950 . S
C1085 C1083 1.387 . S
C1085 C1087 1.390 . S
C1085 H1089 0.950 . S
H1086 C1082 0.950 . S
C1087 C1085 1.390 . S
C1087 C1088 1.387 . S
C1087 H1090 0.950 . S
C1088 C1087 1.387 . S
C1088 C1091 1.387 . S
H1089 C1085 0.950 . S
H1090 C1087 0.950 . S
C1091 C1082 1.390 . S
C1091 H1084 0.950 . S
C1091 C1088 1.387 . S
C1092 C1093 1.387 . S
C1092 H1096 0.950 . S
C1092 C1101 1.390 . S
C1093 C1092 1.387 . S
C1093 C1095 1.387 . S
H1094 C1101 0.950 . S
C1095 C1093 1.387 . S
C1095 C1097 1.390 . S
C1095 H1099 0.950 . S
H1096 C1092 0.950 . S
C1097 C1095 1.390 . S
C1097 C1098 1.387 . S
C1097 H1100 0.950 . S
C1098 C1097 1.387 . S
C1098 C1101 1.387 . S
H1099 C1095 0.950 . S
H1100 C1097 0.950 . S
C1101 C1092 1.390 . S
C1101 H1094 0.950 . S
C1101 C1098 1.387 . S
C1102 C1103 1.387 . S
C1102 H1106 0.950 . S
C1102 C1111 1.390 . S
C1103 C1102 1.387 . S
C1103 C1105 1.387 . S
H1104 C1111 0.950 . S
C1105 C1103 1.387 . S
C1105 C1107 1.390 . S
C1105 H1109 0.950 . S
H1106 C1102 0.950 . S
C1107 C1105 1.390 . S
C1107 C1108 1.387 . S
C1107 H1110 0.950 . S
C1108 C1107 1.387 . S
C1108 C1111 1.387 . S
H1109 C1105 0.950 . S
H1110 C1107 0.950 . S
C1111 C1102 1.390 . S
C1111 H1104 0.950 . S
C1111 C1108 1.387 . S
C1112 C1113 1.387 . S
C1112 H1116 0.950 . S
C1112 C1121 1.390 . S
C1113 C1112 1.387 . S
C1113 C1115 1.387 . S
H1114 C1121 0.950 . S
C1115 C1113 1.387 . S
C1115 C1117 1.390 . S
C1115 H1119 0.950 . S
H1116 C1112 0.950 . S
C1117 C1115 1.390 . S
C1117 C1118 1.387 . S
C1117 H1120 0.950 . S
C1118 C1117 1.387 . S
C1118 C1121 1.387 . S
H1119 C1115 0.950 . S
H1120 C1117 0.950 . S
C1121 C1112 1.390 . S
C1121 H1114 0.950 . S
C1121 C1118 1.387 . S
C1122 C1123 1.387 . S
C1122 H1126 0.950 . S
C1122 C1131 1.390 . S
C1123 C1122 1.387 . S
C1123 C1125 1.387 . S
H1124 C1131 0.950 . S
C1125 C1123 1.387 . S
C1125 C1127 1.390 . S
C1125 H1129 0.950 . S
H1126 C1122 0.950 . S
C1127 C1125 1.390 . S
C1127 C1128 1.387 . S
C1127 H1130 0.950 . S
C1128 C1127 1.387 . S
C1128 C1131 1.387 . S
H1129 C1125 0.950 . S
H1130 C1127 0.950 . S
C1131 C1122 1.390 . S
C1131 H1124 0.950 . S
C1131 C1128 1.387 . S
C1132 C1133 1.387 1_565 S
C1132 H1136 0.950 . S
C1132 C1141 1.390 . S
C1133 C1132 1.387 1_545 S
C1133 C1135 1.387 . S
H1134 C1141 0.950 . S
C1135 C1133 1.387 . S
C1135 C1137 1.390 . S
C1135 H1139 0.950 . S
H1136 C1132 0.950 . S
C1137 C1135 1.390 . S
C1137 C1138 1.387 . S
C1137 H1140 0.950 . S
C1138 C1137 1.387 . S
C1138 C1141 1.387 1_545 S
H1139 C1135 0.950 . S
H1140 C1137 0.950 . S
C1141 C1132 1.390 . S
C1141 H1134 0.950 . S
C1141 C1138 1.387 1_565 S
C1142 C1143 1.387 . S
C1142 H1146 0.950 . S
C1142 C1151 1.390 . S
C1143 C1142 1.387 . S
C1143 C1145 1.387 . S
H1144 C1151 0.950 . S
C1145 C1143 1.387 . S
C1145 C1147 1.390 . S
C1145 H1149 0.950 . S
H1146 C1142 0.950 . S
C1147 C1145 1.390 . S
C1147 C1148 1.387 . S
C1147 H1150 0.950 . S
C1148 C1147 1.387 . S
C1148 C1151 1.387 . S
H1149 C1145 0.950 . S
H1150 C1147 0.950 . S
C1151 C1142 1.390 . S
C1151 H1144 0.950 . S
C1151 C1148 1.387 . S
C1152 C1153 1.387 . S
C1152 H1156 0.950 . S
C1152 C1161 1.390 . S
C1153 C1152 1.387 . S
C1153 C1155 1.387 . S
H1154 C1161 0.954 . S
C1155 C1153 1.387 . S
C1155 C1157 1.390 . S
C1155 H1159 0.950 . S
H1156 C1152 0.950 . S
C1157 C1155 1.390 . S
C1157 C1158 1.387 . S
C1157 H1160 0.950 1_545 S
C1158 C1157 1.387 . S
C1158 C1161 1.387 . S
H1159 C1155 0.950 . S
H1160 C1157 0.950 1_565 S
C1161 C1152 1.390 . S
C1161 H1154 0.954 . S
C1161 C1158 1.387 . S
C1162 C1163 1.387 . S
C1162 H1166 0.950 . S
C1162 C1171 1.390 . S
C1163 C1162 1.387 . S
C1163 C1165 1.387 . S
H1164 C1171 0.950 . S
C1165 C1163 1.387 . S
C1165 C1167 1.390 . S
C1165 H1169 0.950 . S
H1166 C1162 0.950 . S
C1167 C1165 1.390 . S
C1167 C1168 1.387 . S
C1167 H1170 0.950 . S
C1168 C1167 1.387 . S
C1168 C1171 1.387 . S
H1169 C1165 0.950 . S
H1170 C1167 0.950 . S
C1171 C1162 1.390 . S
C1171 H1164 0.950 . S
C1171 C1168 1.387 . S
C1172 C1173 1.387 . S
C1172 H1176 0.950 . S
C1172 C1181 1.390 . S
C1173 C1172 1.387 . S
C1173 C1175 1.387 . S
H1174 C1181 0.950 . S
C1175 C1173 1.387 . S
C1175 C1177 1.390 . S
C1175 H1179 0.950 1_545 S
H1176 C1172 0.950 . S
C1177 C1175 1.390 . S
C1177 C1178 1.387 . S
C1177 H1180 0.950 . S
C1178 C1177 1.387 . S
C1178 C1181 1.387 . S
H1179 C1175 0.950 1_565 S
H1180 C1177 0.950 . S
C1181 C1172 1.390 . S
C1181 H1174 0.950 . S
C1181 C1178 1.387 . S
C1182 C1183 1.387 . S
C1182 H1186 0.950 . S
C1182 C1191 1.390 . S
C1183 C1182 1.387 . S
C1183 C1185 1.387 . S
H1184 C1191 0.950 . S
C1185 C1183 1.387 . S
C1185 C1187 1.390 . S
C1185 H1189 0.950 . S
H1186 C1182 0.950 . S
C1187 C1185 1.390 . S
C1187 C1188 1.387 . S
C1187 H1190 0.950 . S
C1188 C1187 1.387 . S
C1188 C1191 1.387 . S
H1189 C1185 0.950 . S
H1190 C1187 0.950 . S
C1191 C1182 1.390 . S
C1191 H1184 0.950 . S
C1191 C1188 1.387 . S
C1192 C1193 1.387 . S
C1192 H1196 0.950 . S
C1192 C1201 1.390 . S
C1193 C1192 1.387 . S
C1193 C1195 1.387 . S
H1194 C1201 0.950 . S
C1195 C1193 1.387 . S
C1195 C1197 1.390 1_565 S
C1195 H1199 0.950 1_554 S
H1196 C1192 0.950 . S
C1197 C1195 1.390 1_545 S
C1197 C1198 1.387 . S
C1197 H1200 0.950 1_554 S
C1198 C1197 1.387 . S
C1198 C1201 1.387 1_545 S
H1199 C1195 0.950 1_556 S
H1200 C1197 0.950 1_556 S
C1201 C1192 1.390 . S
C1201 H1194 0.950 . S
C1201 C1198 1.387 1_565 S
C1202 C1203 1.387 1_554 S
C1202 H1206 0.950 . S
C1202 C1211 1.390 . S
C1203 C1202 1.387 1_556 S
C1203 C1205 1.387 . S
H1204 C1211 0.950 . S
C1205 C1203 1.387 . S
C1205 C1207 1.390 . S
C1205 H1209 0.950 . S
H1206 C1202 0.950 . S
C1207 C1205 1.390 . S
C1207 C1208 1.387 1_556 S
C1207 H1210 0.950 . S
C1208 C1207 1.387 1_554 S
C1208 C1211 1.387 . S
H1209 C1205 0.950 . S
H1210 C1207 0.950 . S
C1211 C1202 1.390 . S
C1211 H1204 0.950 . S
C1211 C1208 1.387 . S
C1212 C1213 1.387 . S
C1212 H1216 0.950 . S
C1212 C1221 1.390 . S
C1213 C1212 1.387 . S
C1213 C1215 1.387 . S
H1214 C1221 0.950 . S
C1215 C1213 1.387 . S
C1215 C1217 1.390 . S
C1215 H1219 0.950 . S
H1216 C1212 0.950 . S
C1217 C1215 1.390 . S
C1217 C1218 1.387 . S
C1217 H1220 0.950 . S
C1218 C1217 1.387 . S
C1218 C1221 1.387 . S
H1219 C1215 0.950 . S
H1220 C1217 0.950 . S
C1221 C1212 1.390 . S
C1221 H1214 0.950 . S
C1221 C1218 1.387 . S
C1222 C1223 1.387 . S
C1222 H1226 0.950 . S
C1222 C1231 1.390 . S
C1223 C1222 1.387 . S
C1223 C1225 1.387 . S
H1224 C1231 0.950 . S
C1225 C1223 1.387 . S
C1225 C1227 1.390 . S
C1225 H1229 0.950 . S
H1226 C1222 0.950 . S
C1227 C1225 1.390 . S
C1227 C1228 1.387 . S
C1227 H1230 0.950 . S
C1228 C1227 1.387 . S
C1228 C1231 1.387 . S
H1229 C1225 0.950 . S
H1230 C1227 0.950 . S
C1231 C1222 1.390 . S
C1231 H1224 0.950 . S
C1231 C1228 1.387 . S
C1232 C1233 1.387 . S
C1232 H1236 0.950 . S
C1232 C1241 1.390 . S
C1233 C1232 1.387 . S
C1233 C1235 1.387 . S
H1234 C1241 0.950 . S
C1235 C1233 1.387 . S
C1235 C1237 1.390 . S
C1235 H1239 0.950 . S
H1236 C1232 0.950 . S
C1237 C1235 1.390 . S
C1237 C1238 1.387 . S
C1237 H1240 0.950 . S
C1238 C1237 1.387 . S
C1238 C1241 1.387 . S
H1239 C1235 0.950 . S
H1240 C1237 0.950 . S
C1241 C1232 1.390 . S
C1241 H1234 0.950 . S
C1241 C1238 1.387 . S
C1242 C1243 1.387 . S
C1242 H1246 0.950 . S
C1242 C1251 1.390 . S
C1243 C1242 1.387 . S
C1243 C1245 1.387 . S
H1244 C1251 0.950 . S
C1245 C1243 1.387 . S
C1245 C1247 1.390 . S
C1245 H1249 0.950 . S
H1246 C1242 0.950 . S
C1247 C1245 1.390 . S
C1247 C1248 1.387 . S
C1247 H1250 0.950 . S
C1248 C1247 1.387 . S
C1248 C1251 1.387 . S
H1249 C1245 0.950 . S
H1250 C1247 0.950 . S
C1251 C1242 1.390 . S
C1251 H1244 0.950 . S
C1251 C1248 1.387 . S
C1252 C1253 1.387 . S
C1252 H1256 0.950 . S
C1252 C1261 1.390 . S
C1253 C1252 1.387 . S
C1253 C1255 1.387 . S
H1254 C1261 0.950 . S
C1255 C1253 1.387 . S
C1255 C1257 1.390 . S
C1255 H1259 0.950 . S
H1256 C1252 0.950 . S
C1257 C1255 1.390 . S
C1257 C1258 1.387 . S
C1257 H1260 0.950 . S
C1258 C1257 1.387 . S
C1258 C1261 1.387 . S
H1259 C1255 0.950 . S
H1260 C1257 0.950 . S
C1261 C1252 1.390 . S
C1261 H1254 0.950 . S
C1261 C1258 1.387 . S
C1262 C1263 1.387 . S
C1262 H1266 0.950 . S
C1262 C1271 1.390 . S
C1263 C1262 1.387 . S
C1263 C1265 1.387 . S
H1264 C1271 0.950 . S
C1265 C1263 1.387 . S
C1265 C1267 1.390 . S
C1265 H1269 0.950 . S
H1266 C1262 0.950 . S
C1267 C1265 1.390 . S
C1267 C1268 1.387 . S
C1267 H1270 0.950 . S
C1268 C1267 1.387 . S
C1268 C1271 1.387 . S
H1269 C1265 0.950 . S
H1270 C1267 0.950 . S
C1271 C1262 1.390 . S
C1271 H1264 0.950 . S
C1271 C1268 1.387 . S
C1272 C1273 1.387 . S
C1272 H1276 0.950 . S
C1272 C1281 1.390 . S
C1273 C1272 1.387 . S
C1273 C1275 1.387 . S
H1274 C1281 0.950 . S
C1275 C1273 1.387 . S
C1275 C1277 1.390 . S
C1275 H1279 0.950 . S
H1276 C1272 0.950 . S
C1277 C1275 1.390 . S
C1277 C1278 1.387 . S
C1277 H1280 0.950 . S
C1278 C1277 1.387 . S
C1278 C1281 1.387 . S
H1279 C1275 0.950 . S
H1280 C1277 0.950 . S
C1281 C1272 1.390 . S
C1281 H1274 0.950 . S
C1281 C1278 1.387 . S
C1282 C1283 1.387 . S
C1282 H1286 0.950 . S
C1282 C1291 1.390 . S
C1283 C1282 1.387 . S
C1283 C1285 1.387 . S
H1284 C1291 0.950 . S
C1285 C1283 1.387 . S
C1285 C1287 1.390 . S
C1285 H1289 0.950 . S
H1286 C1282 0.950 . S
C1287 C1285 1.390 . S
C1287 C1288 1.387 . S
C1287 H1290 0.950 . S
C1288 C1287 1.387 . S
C1288 C1291 1.387 . S
H1289 C1285 0.950 . S
H1290 C1287 0.950 . S
C1291 C1282 1.390 . S
C1291 H1284 0.950 . S
C1291 C1288 1.387 . S
C1292 C1293 1.387 . S
C1292 H1296 0.950 . S
C1292 C1301 1.390 . S
C1293 C1292 1.387 . S
C1293 C1295 1.387 . S
H1294 C1301 0.950 . S
C1295 C1293 1.387 . S
C1295 C1297 1.390 . S
C1295 H1299 0.950 . S
H1296 C1292 0.950 . S
C1297 C1295 1.390 . S
C1297 C1298 1.387 . S
C1297 H1300 0.950 . S
C1298 C1297 1.387 . S
C1298 C1301 1.387 . S
H1299 C1295 0.950 . S
H1300 C1297 0.950 . S
C1301 C1292 1.390 . S
C1301 H1294 0.950 . S
C1301 C1298 1.387 . S
C1302 C1303 1.387 . S
C1302 H1306 0.950 . S
C1302 C1311 1.390 . S
C1303 C1302 1.387 . S
C1303 C1305 1.387 . S
H1304 C1311 0.950 . S
C1305 C1303 1.387 . S
C1305 C1307 1.390 . S
C1305 H1309 0.950 . S
H1306 C1302 0.950 . S
C1307 C1305 1.390 . S
C1307 C1308 1.387 . S
C1307 H1310 0.950 . S
C1308 C1307 1.387 . S
C1308 C1311 1.387 . S
H1309 C1305 0.950 . S
H1310 C1307 0.950 . S
C1311 C1302 1.390 . S
C1311 H1304 0.950 . S
C1311 C1308 1.387 . S
C1312 C1313 1.387 . S
C1312 H1316 0.950 . S
C1312 C1321 1.390 . S
C1313 C1312 1.387 . S
C1313 C1315 1.387 . S
H1314 C1321 0.950 . S
C1315 C1313 1.387 . S
C1315 C1317 1.390 1_556 S
C1315 H1319 0.950 1_556 S
H1316 C1312 0.950 . S
C1317 C1315 1.390 1_554 S
C1317 C1318 1.387 1_554 S
C1317 H1320 0.950 . S
C1318 C1317 1.387 1_556 S
C1318 C1321 1.387 . S
H1319 C1315 0.950 1_554 S
H1320 C1317 0.950 . S
C1321 C1312 1.390 . S
C1321 H1314 0.950 . S
C1321 C1318 1.387 . S
C1322 C1323 1.387 . S
C1322 H1326 0.950 . S
C1322 C1331 1.390 . S
C1323 C1322 1.387 . S
C1323 C1325 1.387 . S
H1324 C1331 0.950 . S
C1325 C1323 1.387 . S
C1325 C1327 1.390 . S
C1325 H1329 0.950 . S
H1326 C1322 0.950 . S
C1327 C1325 1.390 . S
C1327 C1328 1.387 . S
C1327 H1330 0.950 . S
C1328 C1327 1.387 . S
C1328 C1331 1.387 . S
H1329 C1325 0.950 . S
H1330 C1327 0.950 . S
C1331 C1322 1.390 . S
C1331 H1324 0.950 . S
C1331 C1328 1.387 . S
C1332 C1333 1.387 . S
C1332 H1336 0.950 . S
C1332 C1341 1.390 . S
C1333 C1332 1.387 . S
C1333 C1335 1.387 . S
H1334 C1341 0.950 . S
C1335 C1333 1.387 . S
C1335 C1337 1.390 . S
C1335 H1339 0.950 . S
H1336 C1332 0.950 . S
C1337 C1335 1.390 . S
C1337 C1338 1.387 . S
C1337 H1340 0.950 . S
C1338 C1337 1.387 . S
C1338 C1341 1.387 . S
H1339 C1335 0.950 . S
H1340 C1337 0.950 . S
C1341 C1332 1.390 . S
C1341 H1334 0.950 . S
C1341 C1338 1.387 . S
C1342 C1343 1.387 . S
C1342 H1346 0.950 . S
C1342 C1351 1.390 . S
C1343 C1342 1.387 . S
C1343 C1345 1.387 . S
H1344 C1351 0.950 . S
C1345 C1343 1.387 . S
C1345 C1347 1.390 . S
C1345 H1349 0.950 . S
H1346 C1342 0.950 . S
C1347 C1345 1.390 . S
C1347 C1348 1.387 . S
C1347 H1350 0.950 . S
C1348 C1347 1.387 . S
C1348 C1351 1.387 . S
H1349 C1345 0.950 . S
H1350 C1347 0.950 . S
C1351 C1342 1.390 . S
C1351 H1344 0.950 . S
C1351 C1348 1.387 . S
C1352 C1353 1.387 . S
C1352 H1356 0.950 . S
C1352 C1361 1.390 . S
C1353 C1352 1.387 . S
C1353 C1355 1.387 . S
H1354 C1361 0.950 . S
C1355 C1353 1.387 . S
C1355 C1357 1.390 . S
C1355 H1359 0.950 . S
H1356 C1352 0.950 . S
C1357 C1355 1.390 . S
C1357 C1358 1.387 . S
C1357 H1360 0.950 . S
C1358 C1357 1.387 . S
C1358 C1361 1.387 . S
H1359 C1355 0.950 . S
H1360 C1357 0.950 . S
C1361 C1352 1.390 . S
C1361 H1354 0.950 . S
C1361 C1358 1.387 . S
C1362 C1363 1.387 . S
C1362 H1366 0.950 . S
C1362 C1371 1.390 . S
C1363 C1362 1.387 . S
C1363 C1365 1.387 . S
H1364 C1371 0.950 . S
C1365 C1363 1.387 . S
C1365 C1367 1.390 . S
C1365 H1369 0.950 1_556 S
H1366 C1362 0.950 . S
C1367 C1365 1.390 . S
C1367 C1368 1.387 . S
C1367 H1370 0.950 . S
C1368 C1367 1.387 . S
C1368 C1371 1.387 . S
H1369 C1365 0.950 1_554 S
H1370 C1367 0.950 . S
C1371 C1362 1.390 . S
C1371 H1364 0.950 . S
C1371 C1368 1.387 . S
C1372 C1373 1.387 . S
C1372 H1376 0.950 . S
C1372 C1381 1.390 . S
C1373 C1372 1.387 . S
C1373 C1375 1.387 . S
H1374 C1381 0.950 . S
C1375 C1373 1.387 . S
C1375 C1377 1.390 . S
C1375 H1379 0.950 . S
H1376 C1372 0.950 . S
C1377 C1375 1.390 . S
C1377 C1378 1.387 . S
C1377 H1380 0.950 . S
C1378 C1377 1.387 . S
C1378 C1381 1.387 . S
H1379 C1375 0.950 . S
H1380 C1377 0.950 . S
C1381 C1372 1.390 . S
C1381 H1374 0.950 . S
C1381 C1378 1.387 . S
C1382 C1383 1.387 . S
C1382 H1386 0.950 . S
C1382 C1391 1.390 . S
C1383 C1382 1.387 . S
C1383 C1385 1.387 . S
H1384 C1391 0.950 . S
C1385 C1383 1.387 . S
C1385 C1387 1.390 . S
C1385 H1389 0.950 . S
H1386 C1382 0.950 . S
C1387 C1385 1.390 . S
C1387 C1388 1.387 . S
C1387 H1390 0.950 . S
C1388 C1387 1.387 . S
C1388 C1391 1.387 . S
H1389 C1385 0.950 . S
H1390 C1387 0.950 . S
C1391 C1382 1.390 . S
C1391 H1384 0.950 . S
C1391 C1388 1.387 . S
C1392 C1393 1.387 . S
C1392 H1396 0.950 . S
C1392 C1401 1.390 . S
C1393 C1392 1.387 . S
C1393 C1395 1.387 . S
H1394 C1401 0.950 . S
C1395 C1393 1.387 . S
C1395 C1397 1.390 . S
C1395 H1399 0.950 . S
H1396 C1392 0.950 . S
C1397 C1395 1.390 . S
C1397 C1398 1.387 . S
C1397 H1400 0.950 . S
C1398 C1397 1.387 . S
C1398 C1401 1.387 . S
H1399 C1395 0.950 . S
H1400 C1397 0.950 . S
C1401 C1392 1.390 . S
C1401 H1394 0.950 . S
C1401 C1398 1.387 . S
C1402 C1403 1.387 . S
C1402 H1406 0.950 . S
C1402 C1411 1.390 . S
C1403 C1402 1.387 . S
C1403 C1405 1.387 . S
H1404 C1411 0.950 . S
C1405 C1403 1.387 . S
C1405 C1407 1.390 . S
C1405 H1409 0.950 . S
H1406 C1402 0.950 . S
C1407 C1405 1.390 . S
C1407 C1408 1.387 . S
C1407 H1410 0.950 . S
C1408 C1407 1.387 . S
C1408 C1411 1.387 . S
H1409 C1405 0.950 . S
H1410 C1407 0.950 . S
C1411 C1402 1.390 . S
C1411 H1404 0.950 . S
C1411 C1408 1.387 . S
C1412 C1413 1.387 . S
C1412 H1416 0.950 . S
C1412 C1421 1.390 . S
C1413 C1412 1.387 . S
C1413 C1415 1.387 . S
H1414 C1421 0.950 . S
C1415 C1413 1.387 . S
C1415 C1417 1.390 . S
C1415 H1419 0.950 . S
H1416 C1412 0.950 . S
C1417 C1415 1.390 . S
C1417 C1418 1.387 . S
C1417 H1420 0.950 . S
C1418 C1417 1.387 . S
C1418 C1421 1.387 . S
H1419 C1415 0.950 . S
H1420 C1417 0.950 . S
C1421 C1412 1.390 . S
C1421 H1414 0.950 . S
C1421 C1418 1.387 . S
C1422 C1423 1.387 . S
C1422 H1426 0.950 . S
C1422 C1431 1.390 . S
C1423 C1422 1.387 . S
C1423 C1425 1.387 . S
H1424 C1431 0.950 . S
C1425 C1423 1.387 . S
C1425 C1427 1.390 . S
C1425 H1429 0.950 . S
H1426 C1422 0.950 . S
C1427 C1425 1.390 . S
C1427 C1428 1.387 . S
C1427 H1430 0.950 . S
C1428 C1427 1.387 . S
C1428 C1431 1.387 . S
H1429 C1425 0.950 . S
H1430 C1427 0.950 . S
C1431 C1422 1.390 . S
C1431 H1424 0.950 . S
C1431 C1428 1.387 . S
C1432 C1433 1.387 . S
C1432 H1436 0.950 . S
C1432 C1441 1.390 . S
C1433 C1432 1.387 . S
C1433 C1435 1.387 . S
H1434 C1441 0.950 . S
C1435 C1433 1.387 . S
C1435 C1437 1.390 . S
C1435 H1439 0.950 . S
H1436 C1432 0.950 . S
C1437 C1435 1.390 . S
C1437 C1438 1.387 . S
C1437 H1440 0.950 . S
C1438 C1437 1.387 . S
C1438 C1441 1.387 . S
H1439 C1435 0.950 . S
H1440 C1437 0.950 . S
C1441 C1432 1.390 . S
C1441 H1434 0.950 . S
C1441 C1438 1.387 . S
C1442 C1443 1.387 . S
C1442 H1446 0.950 . S
C1442 C1451 1.390 . S
C1443 C1442 1.387 . S
C1443 C1445 1.387 . S
H1444 C1451 0.950 . S
C1445 C1443 1.387 . S
C1445 C1447 1.390 1_565 S
C1445 H1449 0.950 . S
H1446 C1442 0.950 . S
C1447 C1445 1.390 1_545 S
C1447 C1448 1.387 . S
C1447 H1450 0.950 . S
C1448 C1447 1.387 . S
C1448 C1451 1.387 1_545 S
H1449 C1445 0.950 . S
H1450 C1447 0.950 . S
C1451 C1442 1.390 . S
C1451 H1444 0.950 . S
C1451 C1448 1.387 1_565 S
C1452 C1453 1.387 . S
C1452 H1456 0.950 . S
C1452 C1461 1.390 . S
C1453 C1452 1.387 . S
C1453 C1455 1.387 . S
H1454 C1461 0.950 . S
C1455 C1453 1.387 . S
C1455 C1457 1.390 . S
C1455 H1459 0.950 1_565 S
H1456 C1452 0.950 . S
C1457 C1455 1.390 . S
C1457 C1458 1.387 . S
C1457 H1460 0.950 . S
C1458 C1457 1.387 . S
C1458 C1461 1.387 . S
H1459 C1455 0.950 1_545 S
H1460 C1457 0.950 . S
C1461 C1452 1.390 . S
C1461 H1454 0.950 . S
C1461 C1458 1.387 . S
C1462 C1463 1.387 . S
C1462 H1466 0.950 . S
C1462 C1471 1.390 . S
C1463 C1462 1.387 . S
C1463 C1465 1.387 . S
H1464 C1471 0.950 . S
C1465 C1463 1.387 . S
C1465 C1467 1.390 . S
C1465 H1469 0.950 . S
H1466 C1462 0.950 . S
C1467 C1465 1.390 . S
C1467 C1468 1.387 . S
C1467 H1470 0.950 . S
C1468 C1467 1.387 . S
C1468 C1471 1.387 . S
H1469 C1465 0.950 . S
H1470 C1467 0.950 . S
C1471 C1462 1.390 . S
C1471 H1464 0.950 . S
C1471 C1468 1.387 . S
C1472 C1473 1.387 . S
C1472 H1476 0.950 . S
C1472 C1481 1.390 . S
C1473 C1472 1.387 . S
C1473 C1475 1.387 . S
H1474 C1481 0.950 . S
C1475 C1473 1.387 . S
C1475 C1477 1.390 . S
C1475 H1479 0.950 . S
H1476 C1472 0.950 . S
C1477 C1475 1.390 . S
C1477 C1478 1.387 . S
C1477 H1480 0.950 . S
C1478 C1477 1.387 . S
C1478 C1481 1.387 . S
H1479 C1475 0.950 . S
H1480 C1477 0.950 . S
C1481 C1472 1.390 . S
C1481 H1474 0.950 . S
C1481 C1478 1.387 . S
C1482 C1483 1.387 . S
C1482 H1486 0.950 . S
C1482 C1491 1.390 . S
C1483 C1482 1.387 . S
C1483 C1485 1.387 . S
H1484 C1491 0.950 . S
C1485 C1483 1.387 . S
C1485 C1487 1.390 . S
C1485 H1489 0.950 . S
H1486 C1482 0.950 . S
C1487 C1485 1.390 . S
C1487 C1488 1.387 . S
C1487 H1490 0.932 1_554 S
C1488 C1487 1.387 . S
C1488 C1491 1.387 . S
H1489 C1485 0.950 . S
H1490 C1487 0.932 1_556 S
C1491 C1482 1.390 . S
C1491 H1484 0.950 . S
C1491 C1488 1.387 . S
C1492 C1493 1.387 . S
C1492 H1496 0.950 . S
C1492 C1501 1.390 . S
C1493 C1492 1.387 . S
C1493 C1495 1.387 . S
H1494 C1501 0.950 . S
C1495 C1493 1.387 . S
C1495 C1497 1.390 . S
C1495 H1499 0.950 . S
H1496 C1492 0.950 . S
C1497 C1495 1.390 . S
C1497 C1498 1.387 . S
C1497 H1500 0.950 . S
C1498 C1497 1.387 . S
C1498 C1501 1.387 . S
H1499 C1495 0.950 . S
H1500 C1497 0.950 . S
C1501 C1492 1.390 . S
C1501 H1494 0.950 . S
C1501 C1498 1.387 . S
C1502 C1503 1.387 . S
C1502 H1506 0.950 . S
C1502 C1511 1.390 . S
C1503 C1502 1.387 . S
C1503 C1505 1.387 . S
H1504 C1511 0.950 . S
C1505 C1503 1.387 . S
C1505 C1507 1.390 . S
C1505 H1509 0.950 . S
H1506 C1502 0.950 . S
C1507 C1505 1.390 . S
C1507 C1508 1.387 . S
C1507 H1510 0.950 . S
C1508 C1507 1.387 . S
C1508 C1511 1.387 . S
H1509 C1505 0.950 . S
H1510 C1507 0.950 . S
C1511 C1502 1.390 . S
C1511 H1504 0.950 . S
C1511 C1508 1.387 . S
C1512 C1513 1.387 . S
C1512 H1516 0.950 . S
C1512 C1521 1.390 . S
C1513 C1512 1.387 . S
C1513 C1515 1.387 . S
H1514 C1521 0.950 . S
C1515 C1513 1.387 . S
C1515 C1517 1.390 . S
C1515 H1519 0.950 . S
H1516 C1512 0.950 . S
C1517 C1515 1.390 . S
C1517 C1518 1.387 . S
C1517 H1520 0.950 . S
C1518 C1517 1.387 . S
C1518 C1521 1.387 . S
H1519 C1515 0.950 . S
H1520 C1517 0.950 . S
C1521 C1512 1.390 . S
C1521 H1514 0.950 . S
C1521 C1518 1.387 . S
C1522 C1523 1.387 . S
C1522 H1526 0.950 . S
C1522 C1531 1.390 . S
C1523 C1522 1.387 . S
C1523 C1525 1.387 . S
H1524 C1531 0.950 . S
C1525 C1523 1.387 . S
C1525 C1527 1.390 . S
C1525 H1529 0.950 . S
H1526 C1522 0.950 . S
C1527 C1525 1.390 . S
C1527 C1528 1.387 . S
C1527 H1530 0.950 . S
C1528 C1527 1.387 . S
C1528 C1531 1.387 . S
H1529 C1525 0.950 . S
H1530 C1527 0.950 . S
C1531 C1522 1.390 . S
C1531 H1524 0.950 . S
C1531 C1528 1.387 . S
C1532 C1533 1.387 . S
C1532 H1536 0.950 . S
C1532 C1541 1.390 . S
C1533 C1532 1.387 . S
C1533 C1535 1.387 1_455 S
H1534 C1541 0.950 . S
C1535 C1533 1.387 1_655 S
C1535 C1537 1.390 1_556 S
C1535 H1539 0.950 1_556 S
H1536 C1532 0.950 . S
C1537 C1535 1.390 1_554 S
C1537 C1538 1.387 1_654 S
C1537 H1540 0.950 . S
C1538 C1537 1.387 1_456 S
C1538 C1541 1.387 . S
H1539 C1535 0.950 1_554 S
H1540 C1537 0.950 . S
C1541 C1532 1.390 . S
C1541 H1534 0.950 . S
C1541 C1538 1.387 . S
C1542 C1543 1.387 . S
C1542 H1546 0.950 . S
C1542 C1551 1.390 . S
C1543 C1542 1.387 . S
C1543 C1545 1.387 . S
H1544 C1551 0.950 . S
C1545 C1543 1.387 . S
C1545 C1547 1.390 . S
C1545 H1549 0.950 . S
H1546 C1542 0.950 . S
C1547 C1545 1.390 . S
C1547 C1548 1.387 . S
C1547 H1550 0.950 . S
C1548 C1547 1.387 . S
C1548 C1551 1.387 . S
H1549 C1545 0.950 . S
H1550 C1547 0.950 . S
C1551 C1542 1.390 . S
C1551 H1544 0.950 . S
C1551 C1548 1.387 . S
C1552 C1553 1.387 . S
C1552 H1556 0.950 . S
C1552 C1561 1.390 . S
C1553 C1552 1.387 . S
C1553 C1555 1.387 . S
H1554 C1561 0.950 . S
C1555 C1553 1.387 . S
C1555 C1557 1.390 . S
C1555 H1559 0.950 . S
H1556 C1552 0.950 . S
C1557 C1555 1.390 . S
C1557 C1558 1.387 . S
C1557 H1560 0.950 . S
C1558 C1557 1.387 . S
C1558 C1561 1.387 . S
H1559 C1555 0.950 . S
H1560 C1557 0.950 . S
C1561 C1552 1.390 . S
C1561 H1554 0.950 . S
C1561 C1558 1.387 . S
C1562 C1563 1.387 . S
C1562 H1566 0.950 . S
C1562 C1571 1.390 . S
C1563 C1562 1.387 . S
C1563 C1565 1.387 . S
H1564 C1571 0.950 . S
C1565 C1563 1.387 . S
C1565 C1567 1.390 . S
C1565 H1569 0.950 . S
H1566 C1562 0.950 . S
C1567 C1565 1.390 . S
C1567 C1568 1.387 . S
C1567 H1570 0.950 . S
C1568 C1567 1.387 . S
C1568 C1571 1.387 . S
H1569 C1565 0.950 . S
H1570 C1567 0.950 . S
C1571 C1562 1.390 . S
C1571 H1564 0.950 . S
C1571 C1568 1.387 . S
C1572 C1573 1.387 . S
C1572 H1576 0.950 . S
C1572 C1581 1.390 . S
C1573 C1572 1.387 . S
C1573 C1575 1.387 1_455 S
H1574 C1581 0.950 . S
C1575 C1573 1.387 1_655 S
C1575 C1577 1.390 . S
C1575 H1579 0.950 . S
H1576 C1572 0.950 . S
C1577 C1575 1.390 . S
C1577 C1578 1.387 1_655 S
C1577 H1580 0.950 . S
C1578 C1577 1.387 1_455 S
C1578 C1581 1.387 . S
H1579 C1575 0.950 . S
H1580 C1577 0.950 . S
C1581 C1572 1.390 . S
C1581 H1574 0.950 . S
C1581 C1578 1.387 . S
C1582 C1583 1.387 . S
C1582 H1586 0.950 . S
C1582 C1591 1.390 . S
C1583 C1582 1.387 . S
C1583 C1585 1.387 . S
H1584 C1591 0.950 . S
C1585 C1583 1.387 . S
C1585 C1587 1.390 . S
C1585 H1589 0.950 . S
H1586 C1582 0.950 . S
C1587 C1585 1.390 . S
C1587 C1588 1.387 . S
C1587 H1590 0.950 . S
C1588 C1587 1.387 . S
C1588 C1591 1.387 . S
H1589 C1585 0.950 . S
H1590 C1587 0.950 . S
C1591 C1582 1.390 . S
C1591 H1584 0.950 . S
C1591 C1588 1.387 . S
C1592 C1593 1.387 . S
C1592 H1596 0.950 . S
C1592 C1601 1.390 . S
C1593 C1592 1.387 . S
C1593 C1595 1.387 . S
H1594 C1601 0.950 . S
C1595 C1593 1.387 . S
C1595 C1597 1.390 . S
C1595 H1599 0.950 . S
H1596 C1592 0.950 . S
C1597 C1595 1.390 . S
C1597 C1598 1.387 . S
C1597 H1600 0.950 . S
C1598 C1597 1.387 . S
C1598 C1601 1.387 . S
H1599 C1595 0.950 . S
H1600 C1597 0.950 . S
C1601 C1592 1.390 . S
C1601 H1594 0.950 . S
C1601 C1598 1.387 . S
C1602 C1603 1.387 . S
C1602 H1606 0.950 . S
C1602 C1611 1.390 . S
C1603 C1602 1.387 . S
C1603 C1605 1.387 . S
H1604 C1611 0.950 . S
C1605 C1603 1.387 . S
C1605 C1607 1.390 . S
C1605 H1609 0.950 . S
H1606 C1602 0.950 . S
C1607 C1605 1.390 . S
C1607 C1608 1.387 . S
C1607 H1610 0.950 . S
C1608 C1607 1.387 . S
C1608 C1611 1.387 . S
H1609 C1605 0.950 . S
H1610 C1607 0.950 . S
C1611 C1602 1.390 . S
C1611 H1604 0.950 . S
C1611 C1608 1.387 . S
C1612 C1613 1.387 . S
C1612 H1616 0.950 . S
C1612 C1621 1.390 . S
C1613 C1612 1.387 . S
C1613 C1615 1.387 . S
H1614 C1621 0.950 . S
C1615 C1613 1.387 . S
C1615 C1617 1.390 . S
C1615 H1619 0.950 . S
H1616 C1612 0.950 . S
C1617 C1615 1.390 . S
C1617 C1618 1.387 . S
C1617 H1620 0.950 . S
C1618 C1617 1.387 . S
C1618 C1621 1.387 . S
H1619 C1615 0.950 . S
H1620 C1617 0.950 . S
C1621 C1612 1.390 . S
C1621 H1614 0.950 . S
C1621 C1618 1.387 . S
C1622 C1623 1.387 . S
C1622 H1626 0.950 . S
C1622 C1631 1.390 . S
C1623 C1622 1.387 . S
C1623 C1625 1.387 . S
H1624 C1631 0.950 . S
C1625 C1623 1.387 . S
C1625 C1627 1.390 . S
C1625 H1629 0.950 . S
H1626 C1622 0.950 . S
C1627 C1625 1.390 . S
C1627 C1628 1.387 . S
C1627 H1630 0.950 . S
C1628 C1627 1.387 . S
C1628 C1631 1.387 . S
H1629 C1625 0.950 . S
H1630 C1627 0.950 . S
C1631 C1622 1.390 . S
C1631 H1624 0.950 . S
C1631 C1628 1.387 . S
C1632 C1633 1.387 . S
C1632 H1636 0.950 . S
C1632 C1641 1.390 . S
C1633 C1632 1.387 . S
C1633 C1635 1.387 . S
H1634 C1641 0.950 . S
C1635 C1633 1.387 . S
C1635 C1637 1.390 . S
C1635 H1639 0.950 . S
H1636 C1632 0.950 . S
C1637 C1635 1.390 . S
C1637 C1638 1.387 . S
C1637 H1640 0.950 . S
C1638 C1637 1.387 . S
C1638 C1641 1.387 . S
H1639 C1635 0.950 . S
H1640 C1637 0.950 . S
C1641 C1632 1.390 . S
C1641 H1634 0.950 . S
C1641 C1638 1.387 . S
C1642 C1643 1.387 . S
C1642 H1646 0.950 . S
C1642 C1651 1.390 . S
C1643 C1642 1.387 . S
C1643 C1645 1.387 . S
H1644 C1651 0.950 . S
C1645 C1643 1.387 . S
C1645 C1647 1.390 . S
C1645 H1649 0.950 . S
H1646 C1642 0.950 . S
C1647 C1645 1.390 . S
C1647 C1648 1.387 . S
C1647 H1650 0.950 . S
C1648 C1647 1.387 . S
C1648 C1651 1.387 . S
H1649 C1645 0.950 . S
H1650 C1647 0.950 . S
C1651 C1642 1.390 . S
C1651 H1644 0.950 . S
C1651 C1648 1.387 . S
C1652 C1653 1.387 . S
C1652 H1656 0.950 . S
C1652 C1661 1.390 . S
C1653 C1652 1.387 . S
C1653 C1655 1.387 . S
H1654 C1661 0.950 . S
C1655 C1653 1.387 . S
C1655 C1657 1.390 . S
C1655 H1659 0.950 . S
H1656 C1652 0.950 . S
C1657 C1655 1.390 . S
C1657 C1658 1.387 . S
C1657 H1660 0.950 . S
C1658 C1657 1.387 . S
C1658 C1661 1.387 . S
H1659 C1655 0.950 . S
H1660 C1657 0.950 . S
C1661 C1652 1.390 . S
C1661 H1654 0.950 . S
C1661 C1658 1.387 . S
C1662 C1663 1.387 . S
C1662 H1666 0.950 . S
C1662 C1671 1.390 . S
C1663 C1662 1.387 . S
C1663 C1665 1.387 . S
H1664 C1671 0.950 . S
C1665 C1663 1.387 . S
C1665 C1667 1.390 . S
C1665 H1669 0.950 . S
H1666 C1662 0.950 . S
C1667 C1665 1.390 . S
C1667 C1668 1.387 . S
C1667 H1670 0.950 . S
C1668 C1667 1.387 . S
C1668 C1671 1.387 . S
H1669 C1665 0.950 . S
H1670 C1667 0.950 . S
C1671 C1662 1.390 . S
C1671 H1664 0.950 . S
C1671 C1668 1.387 . S
C1672 C1673 1.387 . S
C1672 H1676 0.950 . S
C1672 C1681 1.390 . S
C1673 C1672 1.387 . S
C1673 C1675 1.387 . S
H1674 C1681 0.950 . S
C1675 C1673 1.387 . S
C1675 C1677 1.390 . S
C1675 H1679 0.950 . S
H1676 C1672 0.950 . S
C1677 C1675 1.390 . S
C1677 C1678 1.387 . S
C1677 H1680 0.950 . S
C1678 C1677 1.387 . S
C1678 C1681 1.387 . S
H1679 C1675 0.950 . S
H1680 C1677 0.950 . S
C1681 C1672 1.390 . S
C1681 H1674 0.950 . S
C1681 C1678 1.387 . S
C1682 C1683 1.387 . S
C1682 H1686 0.950 . S
C1682 C1691 1.390 . S
C1683 C1682 1.387 . S
C1683 C1685 1.387 . S
H1684 C1691 0.950 . S
C1685 C1683 1.387 . S
C1685 C1687 1.390 . S
C1685 H1689 0.950 . S
H1686 C1682 0.950 . S
C1687 C1685 1.390 . S
C1687 C1688 1.387 . S
C1687 H1690 0.950 . S
C1688 C1687 1.387 . S
C1688 C1691 1.387 . S
H1689 C1685 0.950 . S
H1690 C1687 0.950 . S
C1691 C1682 1.390 . S
C1691 H1684 0.950 . S
C1691 C1688 1.387 . S
C1692 C1693 1.387 . S
C1692 H1696 0.950 . S
C1692 C1701 1.390 . S
C1693 C1692 1.387 . S
C1693 C1695 1.387 . S
H1694 C1701 0.950 . S
C1695 C1693 1.387 . S
C1695 C1697 1.390 . S
C1695 H1699 0.950 . S
H1696 C1692 0.950 . S
C1697 C1695 1.390 . S
C1697 C1698 1.387 . S
C1697 H1700 0.950 . S
C1698 C1697 1.387 . S
C1698 C1701 1.387 . S
H1699 C1695 0.950 . S
H1700 C1697 0.950 . S
C1701 C1692 1.390 . S
C1701 H1694 0.950 . S
C1701 C1698 1.387 . S
C1702 C1703 1.387 . S
C1702 H1706 0.950 . S
C1702 C1711 1.390 1_565 S
C1703 C1702 1.387 . S
C1703 C1705 1.387 1_554 S
H1704 C1711 0.950 . S
C1705 C1703 1.387 1_556 S
C1705 C1707 1.390 . S
C1705 H1709 0.950 . S
H1706 C1702 0.950 . S
C1707 C1705 1.390 . S
C1707 C1708 1.387 1_566 S
C1707 H1710 0.950 . S
C1708 C1707 1.387 1_544 S
C1708 C1711 1.387 . S
H1709 C1705 0.950 . S
H1710 C1707 0.950 . S
C1711 C1702 1.390 1_545 S
C1711 H1704 0.950 . S
C1711 C1708 1.387 . S
C1712 C1713 1.387 . S
C1712 H1716 0.950 . S
C1712 C1721 1.390 . S
C1713 C1712 1.387 . S
C1713 C1715 1.387 . S
H1714 C1721 0.950 . S
C1715 C1713 1.387 . S
C1715 C1717 1.390 . S
C1715 H1719 0.950 . S
H1716 C1712 0.950 . S
C1717 C1715 1.390 . S
C1717 C1718 1.387 . S
C1717 H1720 0.950 . S
C1718 C1717 1.387 . S
C1718 C1721 1.387 . S
H1719 C1715 0.950 . S
H1720 C1717 0.950 . S
C1721 C1712 1.390 . S
C1721 H1714 0.950 . S
C1721 C1718 1.387 . S
C1722 C1723 1.387 1_556 S
C1722 H1726 0.950 . S
C1722 C1731 1.390 1_556 S
C1723 C1722 1.387 1_554 S
C1723 C1725 1.387 . S
H1724 C1731 0.950 . S
C1725 C1723 1.387 . S
C1725 C1727 1.390 . S
C1725 H1729 0.950 . S
H1726 C1722 0.950 . S
C1727 C1725 1.390 . S
C1727 C1728 1.387 . S
C1727 H1730 0.950 . S
C1728 C1727 1.387 . S
C1728 C1731 1.387 . S
H1729 C1725 0.950 . S
H1730 C1727 0.950 . S
C1731 C1722 1.390 1_554 S
C1731 H1724 0.950 . S
C1731 C1728 1.387 . S
C1732 C1733 1.387 . S
C1732 H1736 0.950 . S
C1732 C1741 1.390 . S
C1733 C1732 1.387 . S
C1733 C1735 1.387 . S
H1734 C1741 0.950 . S
C1735 C1733 1.387 . S
C1735 C1737 1.390 . S
C1735 H1739 0.950 . S
H1736 C1732 0.950 . S
C1737 C1735 1.390 . S
C1737 C1738 1.387 . S
C1737 H1740 0.950 . S
C1738 C1737 1.387 . S
C1738 C1741 1.387 . S
H1739 C1735 0.950 . S
H1740 C1737 0.950 . S
C1741 C1732 1.390 . S
C1741 H1734 0.950 . S
C1741 C1738 1.387 . S
C1742 C1743 1.387 . S
C1742 H1746 0.950 . S
C1742 C1751 1.390 . S
C1743 C1742 1.387 . S
C1743 C1745 1.387 . S
H1744 C1751 0.950 . S
C1745 C1743 1.387 . S
C1745 C1747 1.390 . S
C1745 H1749 0.950 . S
H1746 C1742 0.950 . S
C1747 C1745 1.390 . S
C1747 C1748 1.387 . S
C1747 H1750 0.950 . S
C1748 C1747 1.387 . S
C1748 C1751 1.387 . S
H1749 C1745 0.950 . S
H1750 C1747 0.950 . S
C1751 C1742 1.390 . S
C1751 H1744 0.950 . S
C1751 C1748 1.387 . S
C798 C313 1.873 . S
C793 C10 1.901 . S
C803 C13 0.973 . S
C808 C358 0.979 . S
C813 C34 1.707 . S
C818 C382 1.743 . S
C828 N408 1.179 . S
C823 C44 1.156 . S
C833 C21 1.144 . S
C838 N438 1.256 . S
C848 C472 1.557 . S
C843 C26 1.523 . S
C858 C508 1.188 1_556 S
C853 C49 1.197 . S
C863 C5 1.799 . S
C868 C532 1.773 . S
C873 C62 1.046 . S
C878 N326 1.048 . S
C883 C73 1.130 . S
C888 N348 1.238 . S
C898 C388 1.025 . S
C893 C88 1.024 . S
C908 C412 1.734 . S
C903 C99 1.707 . S
C913 C60 1.161 . S
C918 C442 1.197 . S
C928 C478 1.084 . S
C923 C75 1.081 . S
C938 N498 1.206 . S
C933 C86 1.102 . S
C948 C538 1.749 . S
C943 C101 1.773 . S
C958 C339 1.722 . S
C953 C96 1.730 . S
C968 C568 0.999 . S
C963 C104 0.995 . S
C973 C122 1.200 . S
C978 N588 1.222 . S
C988 C622 1.567 . S
C983 C130 1.534 . S
C993 C57 0.971 . S
C998 N528 0.984 . S
C1008 N378 1.219 1_565 S
C1003 C70 1.194 . S
C1013 C117 1.009 . S
C1018 C658 1.012 . S
C1028 C682 1.034 . S
C1023 C143 1.006 . S
C1033 C164 1.941 . S
C1038 C322 1.931 1_556 S
C1048 C699 1.051 . S
C1043 C169 1.024 . S
C1053 C192 1.834 . S
C1058 C373 1.795 . S
C1063 C200 1.149 . S
C1068 N656 1.219 . S
C1078 N446 1.291 . S
C1073 C179 1.266 . S
C1088 C583 1.603 . S
C1083 C182 1.609 . S
C1098 C519 1.283 . S
C1093 C203 1.244 . S
C1108 C703 1.826 . S
C1103 C161 1.823 . S
C1118 N318 1.077 . S
C1113 C216 1.064 . S
C1123 C231 1.243 . S
C1128 N686 1.271 . S
C1138 C399 1.103 . S
C1133 C242 1.077 . S
C1143 C257 1.829 . S
C1148 C643 1.791 . S
C1153 C218 1.293 . S
C1158 C433 1.255 1_655 S
C1163 C229 1.136 . S
C1168 C609 1.170 . S
C1178 N506 1.227 . S
C1173 C244 1.202 . S
C1183 C255 1.827 . S
C1188 C729 1.804 . S
C1193 C252 1.755 . S
C1198 C328 1.771 . S
C1203 C260 1.039 1_556 S
C1208 C579 1.067 . S
C1213 C278 1.182 . S
C1218 N476 1.253 . S
C1223 C286 1.627 . S
C1228 C613 1.620 . S
C1238 N716 1.009 . S
C1233 C213 0.989 1_565 S
C1248 N386 1.248 . S
C1243 C226 1.174 . S
C1258 C429 1.079 . S
C1253 C273 1.051 . S
C1268 C343 1.080 . S
C1263 C299 1.146 . S
C1273 C36 1.901 . S
C1278 C733 1.873 . S
C1288 C688 0.980 . S
C1283 C39 0.974 . S
C1298 C772 1.743 . S
C1293 C8 1.707 . S
C1303 C18 1.156 1_655 S
C1308 N648 1.180 . S
C1313 C47 1.148 . S
C1318 N558 1.258 1_556 S
C1328 C592 1.557 . S
C1323 C0 1.523 . S
C1338 C628 1.196 . S
C1333 C23 1.197 . S
C1348 C712 1.774 . S
C1343 C31 1.800 . S
C1358 N746 1.048 . S
C1353 C153 1.046 . S
C1363 C112 1.134 1_556 S
C1368 N678 1.239 . S
C1373 C127 1.022 . S
C1378 C778 1.024 1_655 S
C1388 C652 1.733 . S
C1383 C138 1.706 . S
C1398 C562 1.194 . S
C1393 C151 1.157 . S
C1403 C114 1.082 . S
C1408 C598 1.086 . S
C1418 N618 1.207 . S
C1413 C125 1.104 . S
C1423 C140 1.772 . S
C1428 C718 1.747 . S
C1438 C759 1.721 . S
C1433 C135 1.732 . S
C1448 C448 0.999 . S
C1443 C65 0.997 . S
C1458 N468 1.221 . S
C1453 C83 1.201 1_565 S
C1463 C91 1.534 . S
C1468 C502 1.567 . S
C1478 N708 0.983 . S
C1473 C148 0.967 . S
C1483 C109 1.195 . S
C1488 N768 1.218 . S
C1498 C418 1.010 . S
C1493 C78 1.009 . S
C1508 C352 1.036 . S
C1503 C52 1.009 . S
C1513 C190 1.941 . S
C1518 C742 1.931 . S
C1528 C369 1.050 . S
C1523 C195 1.025 . S
C1538 C763 1.794 1_556 S
C1533 C166 1.834 . S
C1543 C174 1.148 . S
C1548 N416 1.217 . S
C1553 C205 1.269 . S
C1558 N566 1.293 . S
C1563 C156 1.609 . S
C1568 C463 1.604 . S
C1573 C177 1.244 . S
C1578 C639 1.282 . S
C1583 C187 1.824 . S
C1588 C523 1.825 . S
C1598 N738 1.077 . S
C1593 C307 1.063 . S
C1603 C270 1.239 . S
C1608 N356 1.267 . S
C1618 C789 1.103 . S
C1613 C281 1.077 . S
C1623 C296 1.829 . S
C1628 C403 1.792 . S
C1633 C309 1.293 . S
C1638 C553 1.255 . S
C1648 C489 1.170 . S
C1643 C268 1.140 . S
C1653 C283 1.204 . S
C1658 N626 1.227 . S
C1668 C549 1.804 . S
C1663 C294 1.827 . S
C1678 C748 1.771 . S
C1673 C291 1.755 . S
C1688 C459 1.068 . S
C1683 C221 1.041 . S
C1693 C239 1.181 . S
C1698 N596 1.254 . S
C1708 C493 1.620 . S
C1703 C247 1.627 . S
C1718 N536 1.008 . S
C1713 C304 0.986 . S
C1723 C265 1.175 . S
C1728 N776 1.248 . S
C1738 C669 1.077 . S
C1733 C234 1.053 . S
C1748 C673 1.085 . S
C1743 C208 1.146 . S
